data_crystal

_cell_length_a 30.21404
_cell_length_b 30.28665
_cell_length_c 35.34604
_cell_angle_alpha 95.55144
_cell_angle_beta  95.54753
_cell_angle_gamma 125.64364

_symmetry_space_group_name_	'P 1'
_symmetry_space_group_name_H-M	'P 1'

loop_
_symmetry_equiv_pos_as_xyz
  x,y,z

loop_
_atom_site_label
_atom_site_type_symbol
_atom_site_fract_x
_atom_site_fract_y
_atom_site_fract_z
_atom_site_charge
C 	C 	0.01316 0.04643 0.99579 0.11000
N 	N 	0.06915 0.07581 0.99978 -0.14000
C 	C 	0.09324 0.04946 0.00070 0.11500
N 	N 	0.06128 0.99367 0.99781 -0.14000
C 	C 	0.00535 0.96412 0.99377 0.11300
N 	N 	0.98138 0.99056 0.99261 -0.13800
C 	C 	0.90082 0.97965 0.43979 0.11600
N 	N 	0.87566 0.92548 0.44177 -0.14100
C 	C 	0.90670 0.90688 0.44835 0.11800
N 	N 	0.96278 0.94256 0.45330 -0.14200
C 	C 	0.98801 0.99657 0.45140 0.12100
N 	N 	0.95700 0.01504 0.44455 -0.14000
Cu	Cu	0.68079 0.26735 0.00605 0.92700
Cu	Cu	0.71650 0.26619 0.92138 0.86900
Cu	Cu	0.71619 0.35816 0.95865 0.89700
Cu	Cu	0.69284 0.37508 0.03717 0.89300
C 	C 	0.70490 0.30777 0.08816 0.32700
O 	O 	0.60231 0.24031 0.00862 -0.36800
C 	C 	0.68949 0.32091 0.87337 0.32700
O 	O 	0.73106 0.35384 0.01146 -0.64400
O 	O 	0.67184 0.27587 0.95169 -0.64100
O 	O 	0.70915 0.22262 0.99937 -0.37500
O 	O 	0.76971 0.27727 0.96221 -0.44100
O 	O 	0.68448 0.33541 0.08107 -0.39500
O 	O 	0.76353 0.43812 0.96884 -0.38400
C 	C 	0.76340 0.46980 0.99725 0.29300
C 	C 	0.58318 0.26712 0.99695 0.28600
O 	O 	0.61797 0.31901 0.99357 -0.39200
O 	O 	0.72791 0.44849 0.02115 -0.39900
O 	O 	0.70122 0.27273 0.06027 -0.37300
C 	C 	0.75491 0.24192 0.98575 0.28800
O 	O 	0.71291 0.36242 0.90317 -0.39900
O 	O 	0.68177 0.27405 0.87718 -0.42900
H 	H 	0.77093 0.37475 0.02277 0.16200
H 	H 	0.63306 0.25628 0.93816 0.17200
Cu	Cu	0.68376 0.31662 0.44193 0.92700
Cu	Cu	0.69049 0.27521 0.52335 0.87000
Cu	Cu	0.59824 0.27993 0.49457 0.89700
Cu	Cu	0.57658 0.30957 0.42005 0.89400
C 	C 	0.63970 0.30233 0.36155 0.32800
O 	O 	0.71322 0.39665 0.44347 -0.36600
C 	C 	0.64177 0.30027 0.57842 0.32700
O 	O 	0.59784 0.26817 0.44031 -0.64200
O 	O 	0.68021 0.32288 0.49769 -0.64100
O 	O 	0.72623 0.28497 0.44166 -0.37500
O 	O 	0.67403 0.22375 0.47919 -0.44300
O 	O 	0.61073 0.31953 0.37286 -0.39800
O 	O 	0.51819 0.23422 0.48753 -0.38400
C 	C 	0.48562 0.23781 0.46232 0.29000
C 	C 	0.68809 0.41621 0.45796 0.28400
O 	O 	0.63757 0.38179 0.46421 -0.39300
O 	O 	0.50632 0.27629 0.44065 -0.39600
O 	O 	0.67296 0.29929 0.38669 -0.37400
C 	C 	0.70805 0.23900 0.45462 0.28800
O 	O 	0.59850 0.28000 0.55054 -0.39900
O 	O 	0.68761 0.30834 0.57078 -0.43000
H 	H 	0.57529 0.22879 0.42750 0.16400
H 	H 	0.70140 0.36113 0.51252 0.17300
C 	C 	0.66978 0.31997 0.68775 0.00300
C 	C 	0.71163 0.36015 0.71885 -0.04100
C 	C 	0.70693 0.35132 0.75681 -0.04000
C 	C 	0.65993 0.30225 0.76413 0.00300
C 	C 	0.61738 0.26275 0.73312 -0.04100
C 	C 	0.62229 0.27139 0.69512 -0.04000
C 	C 	0.65825 0.28878 0.80337 0.01000
C 	C 	0.67871 0.32956 0.83651 -0.17400
C 	C 	0.67958 0.32558 0.64769 0.01000
C 	C 	0.63630 0.30759 0.61691 -0.17400
H 	H 	0.74868 0.39748 0.71351 0.03600
H 	H 	0.74082 0.38156 0.78032 0.03800
H 	H 	0.58123 0.22454 0.73836 0.03500
H 	H 	0.59026 0.23932 0.67140 0.03700
H 	H 	0.64082 0.24641 0.80624 0.03200
H 	H 	0.68885 0.36969 0.83340 0.08400
H 	H 	0.72127 0.34396 0.64231 0.03200
H 	H 	0.59685 0.29671 0.62302 0.08300
C 	C 	0.72029 0.33459 0.19632 0.00600
C 	C 	0.70128 0.35956 0.21795 -0.03900
C 	C 	0.69084 0.34889 0.25485 -0.03900
C 	C 	0.69796 0.31188 0.27030 0.00700
C 	C 	0.71921 0.28866 0.24942 -0.04100
C 	C 	0.73091 0.30037 0.21274 -0.03800
C 	C 	0.68615 0.29980 0.30927 0.01100
C 	C 	0.64196 0.29645 0.32224 -0.16600
C 	C 	0.73048 0.34632 0.15705 0.01100
C 	C 	0.71778 0.30514 0.12651 -0.16800
H 	H 	0.69455 0.38732 0.20612 0.03700
H 	H 	0.67777 0.36986 0.27156 0.04000
H 	H 	0.72680 0.26167 0.26161 0.03900
H 	H 	0.74899 0.28362 0.19755 0.03800
H 	H 	0.71293 0.29472 0.32809 0.04200
H 	H 	0.61209 0.29560 0.30178 0.07900
H 	H 	0.74018 0.38517 0.15066 0.02600
H 	H 	0.71706 0.27028 0.13253 0.08500
C 	C 	0.87980 0.84788 0.44891 -0.02600
C 	C 	0.89902 0.82089 0.43008 -0.01400
C 	C 	0.87901 0.76732 0.43467 -0.05900
C 	C 	0.83917 0.73986 0.45779 0.03300
C 	C 	0.81870 0.76619 0.47584 -0.05900
C 	C 	0.83871 0.81988 0.47119 -0.01500
C 	C 	0.82266 0.68550 0.46545 -0.04800
C 	C 	0.76896 0.64222 0.46080 -0.05600
C 	C 	0.75258 0.58618 0.46323 0.04600
C 	C 	0.71205 0.55354 0.48467 -0.07700
C 	C 	0.69289 0.49885 0.48448 0.01600
C 	C 	0.71349 0.47593 0.46227 -0.09400
C 	C 	0.75509 0.50913 0.44154 0.01700
C 	C 	0.77423 0.56378 0.44179 -0.07600
H 	H 	0.93031 0.84187 0.41249 0.03800
H 	H 	0.89505 0.74740 0.42064 0.04300
H 	H 	0.78858 0.74576 0.49430 0.04300
H 	H 	0.82377 0.84039 0.48603 0.03600
H 	H 	0.85465 0.67959 0.47166 0.04100
H 	H 	0.73684 0.64805 0.45517 0.04300
H 	H 	0.69499 0.57036 0.50122 0.04600
H 	H 	0.66135 0.47406 0.50104 0.03000
H 	H 	0.77128 0.49212 0.42415 0.03600
H 	H 	0.80474 0.58820 0.42447 0.04800
C 	C 	0.86738 0.00015 0.43251 -0.02200
C 	C 	0.81950 0.97942 0.44848 -0.01900
C 	C 	0.79035 0.00193 0.44402 -0.05600
C 	C 	0.80906 0.04569 0.42391 0.03100
C 	C 	0.85561 0.06493 0.40659 -0.05700
C 	C 	0.88474 0.04244 0.41100 -0.01600
C 	C 	0.77927 0.07073 0.42076 -0.04700
C 	C 	0.80677 0.12589 0.43018 -0.05600
C 	C 	0.77684 0.15092 0.43199 0.04600
C 	C 	0.79800 0.20076 0.41889 -0.07800
C 	C 	0.77428 0.22851 0.42482 0.01800
C 	C 	0.72933 0.20688 0.44428 -0.10000
C 	C 	0.70702 0.15597 0.45621 0.01500
C 	C 	0.73104 0.12858 0.45058 -0.07800
H 	H 	0.80555 0.94677 0.46508 0.03800
H 	H 	0.75393 0.98617 0.45693 0.04000
H 	H 	0.86929 0.09736 0.38982 0.04300
H 	H 	0.92087 0.05800 0.39778 0.03800
H 	H 	0.73422 0.04365 0.41356 0.04000
H 	H 	0.85186 0.15294 0.43678 0.04300
H 	H 	0.83351 0.21855 0.40473 0.04700
H 	H 	0.79178 0.26743 0.41513 0.03500
H 	H 	0.67193 0.13826 0.47078 0.02500
H 	H 	0.71513 0.09093 0.46177 0.04500
C 	C 	0.04877 0.03463 0.45589 -0.03000
C 	C 	0.07316 0.07094 0.43000 -0.01400
C 	C 	0.13061 0.10354 0.43218 -0.06000
C 	C 	0.16411 0.09996 0.46013 0.03300
C 	C 	0.13997 0.06562 0.48724 -0.05900
C 	C 	0.08253 0.03271 0.48486 -0.01400
C 	C 	0.22460 0.13322 0.46131 -0.04800
C 	C 	0.25172 0.11061 0.46496 -0.05600
C 	C 	0.31157 0.14323 0.46422 0.04700
C 	C 	0.34769 0.14598 0.49405 -0.07700
C 	C 	0.40438 0.17641 0.49339 0.01800
C 	C 	0.42540 0.20386 0.46252 -0.09100
C 	C 	0.38876 0.19962 0.43207 0.01700
C 	C 	0.33220 0.16949 0.43293 -0.07700
H 	H 	0.04753 0.07292 0.40762 0.03500
H 	H 	0.14896 0.13075 0.41165 0.04200
H 	H 	0.16565 0.06434 0.51004 0.04300
H 	H 	0.06424 0.00565 0.50548 0.03700
H 	H 	0.24650 0.17557 0.45665 0.04100
H 	H 	0.23003 0.06824 0.46949 0.04300
H 	H 	0.33194 0.12507 0.51799 0.04700
H 	H 	0.43190 0.17905 0.51706 0.03600
H 	H 	0.40402 0.21950 0.40766 0.02700
H 	H 	0.30435 0.16624 0.40917 0.04700
C 	C 	0.97086 0.90361 0.99131 -0.02100
C 	C 	0.92228 0.87677 0.00697 -0.01700
C 	C 	0.89043 0.81967 0.00552 -0.06200
C 	C 	0.90710 0.78894 0.98887 0.03700
C 	C 	0.95494 0.81545 0.97242 -0.06000
C 	C 	0.98678 0.87253 0.97378 -0.01200
C 	C 	0.87313 0.72863 0.98751 -0.05000
C 	C 	0.89631 0.70462 0.99988 -0.05200
C 	C 	0.86214 0.64449 0.99942 0.04900
C 	C 	0.87906 0.61325 0.98419 -0.07700
C 	C 	0.84710 0.55635 0.98372 0.01900
C 	C 	0.79804 0.53019 0.99880 -0.09000
C 	C 	0.78188 0.56183 0.01495 0.01600
C 	C 	0.81395 0.61871 0.01549 -0.07900
H 	H 	0.90956 0.90021 0.02068 0.03700
H 	H 	0.85315 0.79941 0.01781 0.04200
H 	H 	0.96725 0.79181 0.95839 0.04500
H 	H 	0.02356 0.89249 0.96094 0.03600
H 	H 	0.82841 0.70413 0.97826 0.04200
H 	H 	0.94105 0.72909 0.00899 0.04000
H 	H 	0.91675 0.63298 0.97240 0.04700
H 	H 	0.86059 0.53269 0.97176 0.03000
H 	H 	0.74425 0.54235 0.02678 0.03100
H 	H 	0.80145 0.64276 0.02849 0.04700
C 	C 	0.98691 0.07507 0.99518 -0.01100
C 	C 	0.01147 0.12458 0.98092 -0.02900
C 	C 	0.98569 0.15070 0.97930 -0.04600
C 	C 	0.93532 0.12789 0.99211 0.02900
C 	C 	0.91058 0.07826 0.00621 -0.05600
C 	C 	0.93650 0.05232 0.00811 -0.02300
C 	C 	0.90650 0.15372 0.98761 -0.04200
C 	C 	0.88328 0.16035 0.01610 -0.06000
C 	C 	0.85166 0.18304 0.01038 0.04400
C 	C 	0.79757 0.15407 0.01777 -0.07700
C 	C 	0.76630 0.17380 0.01054 0.01500
C 	C 	0.78915 0.22311 0.99620 -0.09500
C 	C 	0.84427 0.25335 0.99047 0.01500
C 	C 	0.87539 0.23349 0.99763 -0.07500
H 	H 	0.05001 0.14234 0.97046 0.04100
H 	H 	0.00468 0.18852 0.96783 0.03600
H 	H 	0.87084 0.05927 0.01508 0.04200
H 	H 	0.91721 0.01438 0.01942 0.04000
H 	H 	0.90542 0.16870 0.96104 0.03900
H 	H 	0.88464 0.14583 0.04282 0.04400
H 	H 	0.77929 0.11559 0.02826 0.04600
H 	H 	0.72403 0.15017 0.01536 0.03400
H 	H 	0.86296 0.29211 0.98032 0.02700
H 	H 	0.91780 0.25713 0.99306 0.04600
C 	C 	0.52302 0.24035 0.99068 -0.09200
C 	C 	0.50032 0.26076 0.96804 0.01600
C 	C 	0.44406 0.23799 0.96456 -0.07700
C 	C 	0.41015 0.19506 0.98393 0.04800
C 	C 	0.43227 0.17316 0.00529 -0.07900
C 	C 	0.48842 0.19583 0.00879 0.01600
C 	C 	0.35113 0.17216 0.98102 -0.05300
C 	C 	0.32890 0.16660 0.01297 -0.05100
C 	C 	0.26864 0.13750 0.01013 0.03100
C 	C 	0.23937 0.09492 0.03091 -0.06000
C 	C 	0.18226 0.06669 0.02824 -0.01500
C 	C 	0.15392 0.08123 0.00507 -0.02800
C 	C 	0.18350 0.12502 0.98517 -0.01300
C 	C 	0.24066 0.15314 0.98777 -0.05700
H 	H 	0.52625 0.29440 0.95332 0.02900
H 	H 	0.42706 0.25432 0.94732 0.04700
H 	H 	0.40601 0.13879 0.01935 0.04800
H 	H 	0.50518 0.17941 0.02616 0.03600
H 	H 	0.32584 0.16026 0.95262 0.04200
H 	H 	0.35457 0.17917 0.04133 0.04100
H 	H 	0.26080 0.08323 0.04877 0.04200
H 	H 	0.16004 0.03353 0.04419 0.03700
H 	H 	0.16213 0.13672 0.96727 0.03600
H 	H 	0.26316 0.18701 0.97244 0.04300
