data_crystal

_cell_length_a 18.57135
_cell_length_b 18.78674
_cell_length_c 34.06217
_cell_angle_alpha 95.41390
_cell_angle_beta  95.41519
_cell_angle_gamma 126.39348

_symmetry_space_group_name_	'P 1'
_symmetry_space_group_name_H-M	'P 1'

loop_
_symmetry_equiv_pos_as_xyz
  x,y,z

loop_
_atom_site_label
_atom_site_type_symbol
_atom_site_fract_x
_atom_site_fract_y
_atom_site_fract_z
_atom_site_charge
C 	C 	0.93325 0.02102 0.97914 0.09900
C 	C 	0.02684 0.07393 0.97900 -0.07400
C 	C 	0.06907 0.03324 0.97243 0.10200
C 	C 	0.01821 0.93951 0.96750 -0.07000
C 	C 	0.92588 0.88656 0.97023 0.10500
C 	C 	0.88277 0.92714 0.97542 -0.06700
H 	H 	0.06631 0.14656 0.98300 0.09400
H 	H 	0.05080 0.90794 0.96225 0.09300
H 	H 	0.81078 0.88614 0.97651 0.09400
C 	C 	0.92641 0.01404 0.48505 0.09700
C 	C 	0.02138 0.06532 0.48926 -0.07300
C 	C 	0.06379 0.02427 0.49468 0.10100
C 	C 	0.01150 0.93283 0.49695 -0.07100
C 	C 	0.91652 0.88107 0.49157 0.10400
C 	C 	0.87398 0.92146 0.48490 -0.07000
H 	H 	0.06197 0.13663 0.48848 0.09300
H 	H 	0.04457 0.90172 0.50227 0.09200
H 	H 	0.80039 0.88140 0.48065 0.09400
Cu	Cu	0.77783 0.35902 0.96323 0.93300
Cu	Cu	0.74834 0.29391 0.04996 0.88900
Cu	Cu	0.63426 0.33602 0.00776 0.90800
Cu	Cu	0.59971 0.32868 0.91901 0.91300
C 	C 	0.72059 0.30857 0.87740 0.28400
O 	O 	0.81825 0.48415 0.95586 -0.33700
C 	C 	0.66868 0.35805 0.09541 0.27500
O 	O 	0.63553 0.28247 0.95610 -0.63200
O 	O 	0.76270 0.38049 0.01834 -0.63900
O 	O 	0.84403 0.30800 0.97614 -0.34300
O 	O 	0.73544 0.20883 0.00921 -0.40800
O 	O 	0.67999 0.34653 0.88030 -0.35400
O 	O 	0.51197 0.30318 0.99591 -0.35100
C 	C 	0.45035 0.24866 0.96346 0.33200
C 	C 	0.76910 0.51250 0.96252 0.31800
O 	O 	0.68106 0.45442 0.96194 -0.37300
O 	O 	0.47349 0.24966 0.92805 -0.36200
O 	O 	0.77429 0.31755 0.90880 -0.33100
C 	C 	0.80262 0.23259 0.99021 0.33200
O 	O 	0.63481 0.37208 0.06376 -0.33900
O 	O 	0.73706 0.35391 0.09491 -0.38400
H 	H 	0.59908 0.21606 0.95160 0.17900
H 	H 	0.80597 0.44382 0.03255 0.19900
Cu	Cu	0.59865 0.18237 0.50326 0.93400
Cu	Cu	0.65931 0.20673 0.41547 0.88900
Cu	Cu	0.61969 0.32214 0.45782 0.90700
Cu	Cu	0.63173 0.35985 0.54674 0.91400
C 	C 	0.65348 0.24174 0.58886 0.28400
O 	O 	0.47395 0.14409 0.51197 -0.34000
C 	C 	0.59351 0.28482 0.37010 0.27400
O 	O 	0.67649 0.32281 0.50925 -0.63200
O 	O 	0.57409 0.19496 0.44801 -0.64000
O 	O 	0.64646 0.11405 0.48988 -0.34500
O 	O 	0.74583 0.21857 0.45554 -0.41000
O 	O 	0.61525 0.28206 0.58602 -0.35500
O 	O 	0.65338 0.44330 0.46896 -0.35000
C 	C 	0.70885 0.50525 0.50109 0.33300
C 	C 	0.44482 0.19186 0.50452 0.31900
O 	O 	0.50311 0.27879 0.50480 -0.37300
O 	O 	0.71083 0.48360 0.53660 -0.36200
O 	O 	0.64346 0.18792 0.55752 -0.33100
C 	C 	0.72136 0.15259 0.47490 0.33600
O 	O 	0.58068 0.31948 0.40184 -0.33800
O 	O 	0.59715 0.21691 0.37076 -0.38500
H 	H 	0.74360 0.35862 0.51310 0.17900
H 	H 	0.50958 0.15181 0.43442 0.19900
C 	C 	0.86821 0.39960 0.76119 -0.02900
C 	C 	0.85841 0.39014 0.71936 -0.03100
C 	C 	0.77944 0.31302 0.69466 0.03200
C 	C 	0.71245 0.24240 0.71212 0.00000
C 	C 	0.72210 0.25211 0.75423 0.00000
C 	C 	0.79905 0.33214 0.77881 0.03200
C 	C 	0.65176 0.18457 0.77168 0.03200
C 	C 	0.57520 0.10522 0.74699 -0.03100
C 	C 	0.56583 0.09538 0.70515 -0.03000
C 	C 	0.63279 0.16486 0.68752 0.03200
C 	C 	0.61824 0.16065 0.64590 -0.01400
C 	C 	0.68133 0.23425 0.62900 -0.03200
C 	C 	0.76369 0.30829 0.65304 -0.02100
C 	C 	0.80280 0.34630 0.82040 -0.01400
C 	C 	0.72927 0.28232 0.83727 -0.03200
C 	C 	0.65600 0.19990 0.81327 -0.02100
H 	H 	0.92835 0.46064 0.77984 0.06200
H 	H 	0.91109 0.44399 0.70621 0.06000
H 	H 	0.52163 0.05219 0.76013 0.05900
H 	H 	0.50513 0.03485 0.68650 0.06100
H 	H 	0.55514 0.10310 0.62706 0.06700
H 	H 	0.81283 0.36438 0.63969 0.05300
H 	H 	0.85977 0.40950 0.83921 0.06800
H 	H 	0.60000 0.15013 0.82660 0.05300
C 	C 	0.46196 0.20681 0.18838 -0.03500
C 	C 	0.45127 0.19548 0.22800 -0.03100
C 	C 	0.51982 0.26187 0.26020 0.03000
C 	C 	0.59721 0.34256 0.25255 -0.00300
C 	C 	0.60851 0.35347 0.21268 -0.00300
C 	C 	0.54163 0.28434 0.18051 0.03400
C 	C 	0.68943 0.43083 0.20506 0.03000
C 	C 	0.75550 0.49955 0.23724 -0.03000
C 	C 	0.74376 0.48922 0.27685 -0.03400
C 	C 	0.66615 0.40975 0.28474 0.03400
C 	C 	0.65947 0.39400 0.32418 -0.03000
C 	C 	0.58649 0.31057 0.33141 -0.03400
C 	C 	0.51477 0.24630 0.29971 -0.02000
C 	C 	0.55800 0.29094 0.14114 -0.03000
C 	C 	0.64180 0.36419 0.13396 -0.03400
C 	C 	0.70566 0.43586 0.16562 -0.02000
H 	H 	0.40947 0.15400 0.16385 0.06700
H 	H 	0.39073 0.13402 0.23358 0.06100
H 	H 	0.81709 0.56003 0.23167 0.06200
H 	H 	0.79638 0.54190 0.30139 0.06700
H 	H 	0.71399 0.44394 0.34887 0.06600
H 	H 	0.45762 0.18255 0.30557 0.06600
H 	H 	0.50837 0.23638 0.11648 0.06600
H 	H 	0.76970 0.49312 0.15979 0.06600
C 	C 	0.81310 0.75247 0.52496 0.06800
C 	C 	0.86153 0.78447 0.49345 -0.03700
C 	C 	0.85820 0.72413 0.46400 0.06800
C 	C 	0.81375 0.63418 0.46824 0.12200
C 	C 	0.76012 0.60093 0.49811 -0.11600
C 	C 	0.75616 0.65978 0.52513 0.12200
Br	Br	0.66642 0.61300 0.55930 -0.16900
Br	Br	0.82932 0.83582 0.56922 -0.14500
Br	Br	0.83281 0.55920 0.43549 -0.22700
Br	Br	0.90986 0.76331 0.41679 -0.16100
C 	C 	0.87825 0.10090 0.51706 0.06700
C 	C 	0.88154 0.05742 0.48200 -0.03500
C 	C 	0.83391 0.04712 0.44460 0.06200
C 	C 	0.77824 0.07482 0.44254 0.12200
C 	C 	0.77501 0.11846 0.47757 -0.12300
C 	C 	0.82710 0.13372 0.51465 0.12300
Br	Br	0.83166 0.20296 0.56172 -0.18300
Br	Br	0.94156 0.11289 0.56849 -0.14700
Br	Br	0.70343 0.04966 0.39209 -0.23400
Br	Br	0.84587 0.99575 0.39619 -0.14200
C 	C 	0.19969 0.08815 0.46212 0.07100
C 	C 	0.16303 0.07642 0.49742 -0.03800
C 	C 	0.21967 0.10551 0.53508 0.06900
C 	C 	0.31151 0.14095 0.53732 0.11700
C 	C 	0.34780 0.15103 0.50195 -0.11400
C 	C 	0.29252 0.12723 0.46447 0.11700
Br	Br	0.34412 0.14885 0.41643 -0.20400
Br	Br	0.12188 0.04801 0.41051 -0.15100
Br	Br	0.38786 0.17609 0.58881 -0.18100
Br	Br	0.17112 0.09709 0.58354 -0.15000
C 	C 	0.83310 0.66350 0.00196 0.11800
C 	C 	0.80970 0.60846 0.96467 -0.11200
C 	C 	0.81644 0.64280 0.92901 0.11700
C 	C 	0.84689 0.73199 0.93070 0.07000
C 	C 	0.87512 0.78851 0.96809 -0.03800
C 	C 	0.86721 0.75389 0.00373 0.07200
Br	Br	0.90562 0.83118 0.05498 -0.14500
Br	Br	0.81818 0.61501 0.05056 -0.20100
Br	Br	0.84981 0.77711 0.88182 -0.14700
Br	Br	0.78412 0.56765 0.87787 -0.18200
C 	C 	0.87609 0.17079 0.02220 0.12000
C 	C 	0.83514 0.17750 0.98718 -0.12100
C 	C 	0.81831 0.12550 0.94997 0.12200
C 	C 	0.84672 0.07063 0.94751 0.06900
C 	C 	0.88839 0.06462 0.98250 -0.03700
C 	C 	0.89976 0.11208 0.02001 0.06900
Br	Br	0.94784 0.09637 0.06833 -0.15400
Br	Br	0.90330 0.24494 0.07289 -0.23000
Br	Br	0.83109 0.00567 0.89607 -0.14900
Br	Br	0.75351 0.12687 0.90271 -0.18400
C 	C 	0.32055 0.14071 0.99567 0.12100
C 	C 	0.35305 0.19472 0.96608 -0.11600
C 	C 	0.29190 0.19638 0.93897 0.12100
C 	C 	0.19811 0.13738 0.93888 0.06800
C 	C 	0.16681 0.08898 0.97033 -0.03700
C 	C 	0.22914 0.09408 0.99978 0.06700
Br	Br	0.19071 0.04215 0.04691 -0.16400
Br	Br	0.39868 0.12418 0.02819 -0.23000
Br	Br	0.11250 0.11857 0.89442 -0.14900
Br	Br	0.33669 0.28570 0.90514 -0.16900
