data_crystal

_cell_length_a 18.97472
_cell_length_b 20.20305
_cell_length_c 68.03078
_cell_angle_alpha 90.15388
_cell_angle_beta  90.15367
_cell_angle_gamma 119.40441

_symmetry_space_group_name_	'P 1'
_symmetry_space_group_name_H-M	'P 1'

loop_
_symmetry_equiv_pos_as_xyz
  x,y,z

loop_
_atom_site_label
_atom_site_type_symbol
_atom_site_fract_x
_atom_site_fract_y
_atom_site_fract_z
_atom_site_charge
H 	H 	0.39656 0.07130 0.00550 0.05000
C 	C 	0.43788 0.12939 0.00128 -0.06300
C 	C 	0.54913 0.25443 0.00900 -0.06400
C 	C 	0.71638 0.52194 0.00916 0.02500
C 	C 	0.74252 0.47004 0.00422 -0.06300
C 	C 	0.77206 0.28868 0.00393 -0.06300
C 	C 	0.85561 0.32108 0.00703 0.02500
H 	H 	0.90664 0.47148 0.00717 0.04400
C 	C 	0.49833 0.17855 0.01438 0.02600
H 	H 	0.56462 0.40893 0.01627 0.04200
H 	H 	0.59452 0.29360 0.01919 0.04400
H 	H 	0.62305 0.15032 0.01737 0.04200
H 	H 	0.74254 0.43122 0.01517 0.04400
H 	H 	0.73382 0.29079 0.01543 0.04300
C 	C 	0.91983 0.45201 0.02079 -0.04000
C 	C 	0.89437 0.37463 0.02342 0.00200
H 	H 	0.47662 0.40025 0.04390 0.04100
C 	C 	0.51934 0.14682 0.03145 0.00100
C 	C 	0.53886 0.44572 0.04366 -0.03700
C 	C 	0.58893 0.45028 0.02808 -0.03800
C 	C 	0.58452 0.13254 0.03019 -0.03800
H 	H 	0.64559 0.07789 0.04337 0.04000
C 	C 	0.66875 0.51062 0.02716 0.00100
C 	C 	0.69907 0.56472 0.04235 -0.03800
H 	H 	0.76053 0.61154 0.04175 0.04000
H 	H 	0.89233 0.29032 0.04323 0.04000
C 	C 	0.91200 0.34999 0.04106 -0.04000
C 	C 	0.96542 0.50479 0.03535 -0.03500
H 	H 	0.98687 0.56466 0.03293 0.04000
H 	H 	0.14565 0.57477 0.04631 0.05000
H 	H 	0.41823 0.13271 0.04902 0.04100
H 	H 	0.44351 0.52841 0.05160 0.04900
C 	C 	0.46869 0.12198 0.04792 -0.03800
H 	H 	0.51741 0.92200 0.05118 0.04900
C 	C 	0.59683 0.09089 0.04484 -0.03800
C 	C 	0.98622 0.48067 0.05263 -0.00600
C 	C 	0.12703 0.57902 0.06109 -0.06600
C 	C 	0.56801 0.50165 0.05840 0.00000
C 	C 	0.64893 0.56017 0.05794 -0.03700
C 	C 	0.95773 0.40285 0.05564 -0.03500
C 	C 	0.04533 0.53708 0.06642 0.03200
C 	C 	0.45284 0.52248 0.06707 -0.06500
C 	C 	0.48085 0.08004 0.06256 -0.03700
C 	C 	0.52699 0.93403 0.06679 -0.06200
C 	C 	0.54359 0.06245 0.06078 0.00100
C 	C 	0.18546 0.62260 0.07516 0.01900
H 	H 	0.24889 0.65094 0.07121 0.03400
H 	H 	0.97349 0.38371 0.06896 0.03900
H 	H 	0.36826 0.55792 0.07641 0.03300
C 	C 	0.40973 0.53863 0.08113 0.01900
H 	H 	0.43943 0.05839 0.07483 0.04100
H 	H 	0.49353 0.81893 0.07415 0.03400
C 	C 	0.51185 0.50388 0.07300 0.02900
C 	C 	0.51397 0.87573 0.07980 0.01900
C 	C 	0.54657 0.00618 0.07403 0.02500
H 	H 	0.67201 0.60364 0.06927 0.04100
C 	C 	0.02175 0.54408 0.08549 -0.05500
C 	C 	0.52223 0.49494 0.09306 -0.06600
H 	H 	0.95862 0.51284 0.08964 0.04100
C 	C 	0.16263 0.62481 0.09463 -0.08700
H 	H 	0.56659 0.47922 0.09777 0.04800
C 	C 	0.56030 0.02140 0.09423 -0.06700
C 	C 	0.08024 0.58832 0.09952 0.01400
C 	C 	0.42523 0.53623 0.10121 -0.08800
C 	C 	0.52053 0.88912 0.10013 -0.08800
H 	H 	0.57691 0.07732 0.09994 0.04900
C 	C 	0.22342 0.64806 0.11029 0.31000
C 	C 	0.47860 0.51056 0.10711 0.01800
C 	C 	0.54785 0.96310 0.10724 0.01800
O 	O 	0.25657 0.60568 0.11376 -0.39300
O 	O 	0.23525 0.70384 0.12233 -0.37800
H 	H 	0.06196 0.58993 0.11451 0.04300
O 	O 	0.34784 0.54252 0.12847 -0.37600
C 	C 	0.40398 0.57886 0.11517 0.30800
O 	O 	0.40051 0.78665 0.11353 -0.38700
O 	O 	0.45091 0.65243 0.11638 -0.37900
H 	H 	0.49060 0.50802 0.12260 0.03300
C 	C 	0.47955 0.82470 0.11353 0.30800
O 	O 	0.52111 0.81161 0.12696 -0.36500
H 	H 	0.55367 0.97417 0.12292 0.04100
Ni	Ni	0.28163 0.58639 0.14101 1.12100
Ni	Ni	0.33694 0.76283 0.13872 1.12100
O 	O 	0.19688 0.60636 0.15415 -0.36100
O 	O 	0.36499 0.68751 0.14565 -0.71600
O 	O 	0.43542 0.84273 0.15427 -0.35800
O 	O 	0.44909 0.61217 0.15907 -0.35900
Ni	Ni	0.47297 0.71001 0.14282 1.11300
C 	C 	0.21435 0.66281 0.16688 0.25600
O 	O 	0.26548 0.73456 0.16234 -0.36900
O 	O 	0.31272 0.55974 0.16694 -0.36400
H 	H 	0.36187 0.68928 0.16007 0.15600
H 	H 	0.39137 0.44217 0.17043 0.05700
C 	C 	0.47000 0.82711 0.16931 0.25300
O 	O 	0.49845 0.77916 0.16730 -0.35700
C 	C 	0.38742 0.57523 0.17144 0.25600
O 	O 	0.08867 0.64409 0.18274 -0.18200
C 	C 	0.16423 0.64832 0.18435 0.05200
H 	H 	0.31601 0.30828 0.18959 0.06800
C 	C 	0.39710 0.53475 0.18810 0.04900
C 	C 	0.39298 0.46534 0.18494 -0.05600
C 	C 	0.49604 0.87711 0.18651 0.05100
O 	O 	0.56182 0.95047 0.18503 -0.18800
C 	C 	0.30368 0.34304 0.19961 -0.08600
C 	C 	0.08484 0.67217 0.20114 0.10900
C 	C 	0.03899 0.70851 0.20437 -0.05700
C 	C 	0.20050 0.67331 0.20252 -0.06000
H 	H 	0.99370 0.70321 0.19380 0.05100
H 	H 	0.26530 0.70035 0.20500 0.05500
C 	C 	0.35512 0.42219 0.20062 0.01100
O 	O 	0.36783 0.54066 0.20648 -0.19300
C 	C 	0.48615 0.84639 0.20506 -0.06100
C 	C 	0.59361 0.95871 0.20386 0.12000
C 	C 	0.67641 0.00599 0.20762 -0.09100
H 	H 	0.71445 0.04830 0.19700 0.06800
C 	C 	0.23561 0.31021 0.21180 0.11800
C 	C 	0.15057 0.68871 0.21306 0.02000
H 	H 	0.99797 0.82104 0.21358 0.04100
C 	C 	0.33878 0.46697 0.21315 0.12000
H 	H 	0.45457 0.78582 0.20797 0.05700
C 	C 	0.27251 0.43312 0.22596 -0.08700
C 	C 	0.21922 0.35496 0.22407 0.01300
O 	O 	0.19730 0.23406 0.21704 -0.18500
C 	C 	0.05844 0.75704 0.22070 -0.00500
C 	C 	0.04032 0.81299 0.22259 -0.02800
C 	C 	0.54825 0.89748 0.21597 0.01400
C 	C 	0.70998 0.99159 0.22435 0.01600
C 	C 	0.78816 0.01172 0.22648 -0.06100
H 	H 	0.83722 0.05076 0.21717 0.05700
C 	C 	0.15675 0.23782 0.23381 0.05000
C 	C 	0.16983 0.30988 0.23816 -0.05700
H 	H 	0.25944 0.46759 0.23592 0.06800
C 	C 	0.12768 0.77828 0.23155 0.12600
C 	C 	0.17689 0.74619 0.22747 -0.08900
C 	C 	0.09835 0.86658 0.23489 0.04200
H 	H 	0.23601 0.76876 0.23426 0.07200
C 	C 	0.58497 0.87761 0.23110 -0.08500
C 	C 	0.66662 0.92714 0.23542 0.11700
C 	C 	0.79059 0.95929 0.23899 0.05000
C 	C 	0.08335 0.92093 0.24602 0.26500
C 	C 	0.12559 0.17676 0.24845 0.25600
O 	O 	0.15916 0.13259 0.24933 -0.34800
O 	O 	0.15669 0.84785 0.24116 -0.17900
O 	O 	0.00746 0.90653 0.24780 -0.36400
H 	H 	0.55304 0.82264 0.23815 0.07100
O 	O 	0.71443 0.90337 0.24537 -0.18100
C 	C 	0.86427 0.97604 0.24997 0.26200
O 	O 	0.91986 0.04845 0.25248 -0.38300
O 	O 	0.14391 0.97478 0.25672 -0.33800
O 	O 	0.07915 0.17852 0.26297 -0.36200
H 	H 	0.03066 0.02761 0.25525 0.17000
H 	H 	0.16495 0.32917 0.25272 0.05900
O 	O 	0.86541 0.91984 0.26018 -0.35600
Ni	Ni	0.14446 0.06406 0.27332 1.11400
O 	O 	0.03292 0.02501 0.26968 -0.71400
Ni	Ni	0.96285 0.91989 0.27345 1.11400
Ni	Ni	0.98704 0.08626 0.27692 1.11300
O 	O 	0.04204 0.89200 0.28642 -0.35200
C 	C 	0.12507 0.16396 0.30339 0.27400
C 	C 	0.09358 0.93303 0.30029 0.27900
O 	O 	0.17366 0.16150 0.29001 -0.35800
O 	O 	0.04762 0.11563 0.30273 -0.36000
O 	O 	0.13079 0.00720 0.29948 -0.36400
H 	H 	0.20823 0.31811 0.29516 0.05800
O 	O 	0.15918 0.85502 0.30717 -0.18000
C 	C 	0.88260 0.95997 0.30373 0.28200
O 	O 	0.88689 0.01411 0.29221 -0.36700
O 	O 	0.92867 0.92964 0.30058 -0.38800
C 	C 	0.19652 0.30221 0.31051 -0.05400
H 	H 	0.22539 0.45116 0.30950 0.06800
H 	H 	0.28102 0.81995 0.31058 0.07200
H 	H 	0.57584 0.78708 0.31236 0.07000
O 	O 	0.73536 0.89724 0.31116 -0.18100
C 	C 	0.18899 0.41370 0.32118 -0.08500
C 	C 	0.18687 0.34427 0.32442 0.01000
C 	C 	0.15481 0.22814 0.31711 0.04100
C 	C 	0.20537 0.86056 0.32362 0.11900
C 	C 	0.27392 0.85160 0.32256 -0.08400
C 	C 	0.12330 0.89675 0.31407 0.04500
C 	C 	0.61593 0.78370 0.32318 -0.08500
C 	C 	0.69476 0.84409 0.32575 0.11800
C 	C 	0.81490 0.92272 0.31744 0.04000
C 	C 	0.14938 0.43698 0.33464 0.11800
C 	C 	0.13970 0.29548 0.33888 0.11800
O 	O 	0.17968 0.51315 0.33923 -0.18500
O 	O 	0.11742 0.22003 0.33533 -0.18400
C 	C 	0.19623 0.89965 0.33904 0.01300
C 	C 	0.14503 0.92341 0.33309 -0.05600
H 	H 	0.14361 0.97259 0.33903 0.06400
C 	C 	0.33259 0.88369 0.33754 0.01300
H 	H 	0.36922 0.79899 0.33827 0.06100
C 	C 	0.37327 0.85008 0.34462 -0.05500
H 	H 	0.46518 0.68923 0.33752 0.06100
C 	C 	0.51400 0.67908 0.34198 -0.05400
C 	C 	0.58980 0.71915 0.33514 0.01200
C 	C 	0.74474 0.83969 0.33969 0.01000
C 	C 	0.82099 0.88854 0.33445 -0.05500
H 	H 	0.87329 0.88338 0.33860 0.05800
C 	C 	0.09713 0.31691 0.35185 -0.08800
C 	C 	0.10244 0.38830 0.34934 0.01200
C 	C 	0.15311 0.50653 0.35864 0.04200
C 	C 	0.10363 0.43222 0.36437 -0.05600
H 	H 	0.06111 0.27931 0.36354 0.06900
C 	C 	0.25658 0.93545 0.35339 -0.08700
C 	C 	0.32302 0.92282 0.35308 0.11800
C 	C 	0.52002 0.65439 0.36051 0.04400
O 	O 	0.59874 0.67158 0.36548 -0.18900
C 	C 	0.63999 0.71551 0.34936 0.11700
C 	C 	0.72053 0.77420 0.35100 -0.08700
H 	H 	0.76079 0.77143 0.36187 0.06600
C 	C 	0.20666 0.56191 0.37318 0.27700
H 	H 	0.24897 0.96684 0.36535 0.06800
C 	C 	0.38463 0.86700 0.36447 0.04400
O 	O 	0.27982 0.57242 0.37518 -0.37200
H 	H 	0.09497 0.41399 0.37959 0.05500
O 	O 	0.30876 0.74311 0.37779 -0.36300
O 	O 	0.35927 0.91822 0.37039 -0.19000
C 	C 	0.37611 0.80788 0.37815 0.27500
C 	C 	0.46638 0.65386 0.37599 0.28000
O 	O 	0.46495 0.71680 0.37961 -0.38000
O 	O 	0.17841 0.59212 0.38586 -0.35700
O 	O 	0.42697 0.82474 0.39294 -0.36100
O 	O 	0.42942 0.59484 0.38770 -0.36700
Ni	Ni	0.25493 0.68596 0.40333 1.11400
Ni	Ni	0.32471 0.56845 0.40176 1.12000
O 	O 	0.21148 0.51663 0.41450 -0.37400
O 	O 	0.33904 0.66512 0.40888 -0.71800
Ni	Ni	0.44713 0.74525 0.40651 1.12100
C 	C 	0.18634 0.54684 0.42850 0.28900
O 	O 	0.19526 0.61594 0.42672 -0.37300
H 	H 	0.02720 0.44702 0.42306 0.03400
O 	O 	0.31232 0.78670 0.42039 -0.36100
H 	H 	0.33484 0.65995 0.42328 0.16000
O 	O 	0.37941 0.56866 0.42694 -0.38500
O 	O 	0.49348 0.68543 0.42066 -0.37300
C 	C 	0.04594 0.45722 0.43834 0.03300
C 	C 	0.37004 0.80415 0.43397 0.28800
H 	H 	0.41972 0.95308 0.42823 0.04400
O 	O 	0.42755 0.78532 0.43185 -0.38100
C 	C 	0.45189 0.62473 0.43210 0.28800
H 	H 	0.56251 0.57797 0.42819 0.04100
C 	C 	0.12857 0.49689 0.44320 -0.08700
C 	C 	0.38305 0.86122 0.44896 -0.07800
C 	C 	0.41908 0.93795 0.44352 0.01500
C 	C 	0.49439 0.60926 0.44786 -0.07900
C 	C 	0.54177 0.57569 0.44312 0.01600
H 	H 	0.92440 0.41376 0.44894 0.05200
C 	C 	0.98768 0.43905 0.45299 -0.08800
C 	C 	0.15177 0.50779 0.46306 0.02000
H 	H 	0.21535 0.53699 0.46702 0.02700
C 	C 	0.46913 0.60692 0.46733 0.01300
C 	C 	0.46213 0.99508 0.45742 -0.06000
H 	H 	0.49452 0.05391 0.45283 0.04700
C 	C 	0.55476 0.53199 0.45708 -0.06300
H 	H 	0.58666 0.50199 0.45291 0.04900
C 	C 	0.01178 0.45900 0.47262 0.04800
C 	C 	0.09359 0.48920 0.47774 -0.07200
H 	H 	0.35294 0.78349 0.47327 0.03000
H 	H 	0.43048 0.37025 0.47190 0.04200
C 	C 	0.38152 0.84252 0.46886 0.01400
H 	H 	0.43334 0.63341 0.47121 0.02900
C 	C 	0.42381 0.89960 0.48279 -0.06300
C 	C 	0.48271 0.56384 0.48133 -0.06300
C 	C 	0.46782 0.97574 0.47691 0.03000
C 	C 	0.52184 0.52299 0.47595 0.02700
H 	H 	0.63083 0.03780 0.47596 0.04100
C 	C 	0.92537 0.51085 0.48537 -0.03200
C 	C 	0.95413 0.45892 0.48717 -0.01200
H 	H 	0.94021 0.54674 0.47252 0.03900
H 	H 	0.11269 0.50314 0.49292 0.05000
C 	C 	0.46557 0.38722 0.48540 -0.03700
C 	C 	0.51955 0.46438 0.48920 0.00100
C 	C 	0.52721 0.03314 0.49046 -0.00200
C 	C 	0.60985 0.05665 0.48845 -0.03600
H 	H 	0.41016 0.27320 0.49667 0.04100
H 	H 	0.45850 0.55847 0.49601 0.04800
C 	C 	0.45398 0.33225 0.49942 -0.03800
H 	H 	0.42650 0.88428 0.49792 0.04900
H 	H 	0.43715 0.04018 0.50832 0.04000
C 	C 	0.50074 0.05791 0.50666 -0.03700
C 	C 	0.56464 0.48568 0.50670 -0.03800
H 	H 	0.60653 0.54502 0.50974 0.04100
C 	C 	0.66494 0.10140 0.50305 -0.03900
H 	H 	0.72809 0.11693 0.50174 0.04000
H 	H 	0.86095 0.56093 0.49933 0.04100
C 	C 	0.88062 0.51903 0.50057 -0.04100
C 	C 	0.93460 0.41288 0.50390 -0.03300
H 	H 	0.95626 0.37251 0.50541 0.03800
C 	C 	0.49657 0.35406 0.51727 0.00100
C 	C 	0.55312 0.43079 0.52068 -0.03800
C 	C 	0.55578 0.10275 0.52121 -0.03900
C 	C 	0.63779 0.12327 0.51968 0.00100
C 	C 	0.86402 0.47517 0.51762 0.00300
C 	C 	0.88977 0.42100 0.51907 -0.04100
C 	C 	0.47569 0.29878 0.53330 0.02500
C 	C 	0.52722 0.26944 0.53773 -0.06400
H 	H 	0.53417 0.11871 0.53411 0.04300
H 	H 	0.57112 0.27285 0.52705 0.04400
H 	H 	0.58556 0.44821 0.53453 0.04300
C 	C 	0.69234 0.15925 0.53655 0.02500
H 	H 	0.71752 0.27309 0.52964 0.04400
C 	C 	0.72082 0.23630 0.54072 -0.06400
H 	H 	0.70556 0.40291 0.52814 0.04400
C 	C 	0.74540 0.44307 0.53906 -0.06300
C 	C 	0.82735 0.49107 0.53478 0.02400
H 	H 	0.87759 0.38720 0.53225 0.04300
H 	H 	0.37366 0.30926 0.54331 0.04900
C 	C 	0.41614 0.28979 0.54687 -0.06300
H 	H 	0.68178 0.05448 0.54748 0.04900
C 	C 	0.70061 0.11336 0.55077 -0.06300
C 	C 	0.87721 0.54509 0.54876 -0.06200
H 	H 	0.93996 0.58427 0.54538 0.04900
C 	C 	0.52851 0.24389 0.55677 0.00600
H 	H 	0.57412 0.22876 0.56067 0.03100
H 	H 	0.65521 0.40020 0.56171 0.03200
C 	C 	0.71672 0.44188 0.55807 0.00400
C 	C 	0.74491 0.26371 0.55988 0.00600
H 	H 	0.75955 0.32135 0.56342 0.03100
H 	H 	0.37768 0.26617 0.57694 0.03500
C 	C 	0.41807 0.26484 0.56591 0.01700
C 	C 	0.48040 0.25026 0.57145 -0.08100
C 	C 	0.73700 0.21335 0.57498 -0.08100
C 	C 	0.72353 0.14064 0.56997 0.01700
C 	C 	0.77059 0.48632 0.57298 -0.08000
C 	C 	0.84859 0.54316 0.56779 0.01700
H 	H 	0.88993 0.58005 0.57902 0.03900
C 	C 	0.51424 0.27178 0.59129 0.28500
O 	O 	0.55111 0.34488 0.59608 -0.38500
C 	C 	0.71099 0.22458 0.59433 0.28400
H 	H 	0.72105 0.10223 0.58137 0.03700
C 	C 	0.75743 0.45533 0.59291 0.28300
O 	O 	0.79940 0.42220 0.59861 -0.37000
O 	O 	0.49826 0.21832 0.60469 -0.37600
Ni	Ni	0.61625 0.38522 0.62077 1.11900
O 	O 	0.63224 0.18981 0.59801 -0.37600
O 	O 	0.66021 0.31928 0.61769 -0.71200
H 	H 	0.66240 0.31902 0.60325 0.14400
O 	O 	0.71212 0.46873 0.60552 -0.37200
O 	O 	0.76562 0.26299 0.60825 -0.36100
Ni	Ni	0.58500 0.21427 0.62163 1.12100
Ni	Ni	0.77066 0.35597 0.62359 1.11300
O 	O 	0.51435 0.31819 0.63587 -0.37800
O 	O 	0.65792 0.18673 0.63749 -0.35500
O 	O 	0.67220 0.42308 0.64693 -0.38100
C 	C 	0.74985 0.47037 0.64822 0.27500
O 	O 	0.80165 0.45797 0.63829 -0.34500
H 	H 	0.35998 0.26034 0.65463 0.05800
C 	C 	0.51157 0.27255 0.64998 0.27600
O 	O 	0.53940 0.22520 0.64723 -0.36700
C 	C 	0.70228 0.22788 0.65234 0.27500
O 	O 	0.74877 0.30154 0.65050 -0.36400
C 	C 	0.77847 0.54065 0.65969 0.04300
O 	O 	0.85991 0.59679 0.66020 -0.18200
C 	C 	0.39275 0.26248 0.66791 -0.05500
C 	C 	0.46773 0.26693 0.66815 0.04200
H 	H 	0.66475 0.52528 0.67199 0.06000
O 	O 	0.69989 0.11620 0.66858 -0.18400
C 	C 	0.71103 0.18980 0.66977 0.04700
C 	C 	0.72621 0.56311 0.66727 -0.06000
C 	C 	0.77237 0.63514 0.67315 0.01500
C 	C 	0.85147 0.65452 0.66917 0.11500
H 	H 	0.23150 0.19632 0.67949 0.06800
H 	H 	0.74955 0.01557 0.67997 0.06900
C 	C 	0.91490 0.71418 0.67955 -0.08000
C 	C 	0.27343 0.18455 0.68753 -0.08600
C 	C 	0.35733 0.22931 0.68492 0.01100
O 	O 	0.48395 0.23844 0.68524 -0.18300
C 	C 	0.73974 0.11619 0.68575 0.11800
C 	C 	0.75177 0.22949 0.68642 -0.05400
C 	C 	0.77313 0.06833 0.68815 -0.08800
C 	C 	0.75292 0.66986 0.68847 -0.08800
C 	C 	0.24540 0.12569 0.70132 0.11600
C 	C 	0.41117 0.21416 0.69493 0.11900
H 	H 	0.69153 0.64562 0.69385 0.07000
C 	C 	0.76954 0.18263 0.69651 0.01300
H 	H 	0.78485 0.29091 0.68767 0.06600
H 	H 	0.82776 0.98496 0.70913 0.07100
C 	C 	0.81623 0.73342 0.69769 0.12100
C 	C 	0.84068 0.09268 0.70054 0.01700
C 	C 	0.89551 0.75673 0.69263 0.00500
O 	O 	0.17159 0.09884 0.71076 -0.18500
H 	H 	0.00223 0.80726 0.71095 0.04800
C 	C 	0.29912 0.10981 0.71104 0.01200
C 	C 	0.38292 0.15564 0.70883 -0.08600
O 	O 	0.80757 0.75837 0.71613 -0.18400
C 	C 	0.83670 0.20666 0.70902 -0.08400
C 	C 	0.85994 0.04639 0.71039 -0.06300
C 	C 	0.87036 0.15902 0.71132 0.11700
C 	C 	0.18669 0.06594 0.72714 0.04400
C 	C 	0.26247 0.07228 0.72747 -0.05700
H 	H 	0.42473 0.14362 0.71685 0.07000
H 	H 	0.86035 0.25945 0.71719 0.07300
C 	C 	0.88893 0.79764 0.72168 0.04100
C 	C 	0.90175 0.08654 0.72689 0.05300
O 	O 	0.91155 0.15961 0.72829 -0.18100
C 	C 	0.13517 0.04527 0.74460 0.26800
O 	O 	0.09168 0.07861 0.74775 -0.36900
O 	O 	0.99325 0.88062 0.74414 -0.36700
O 	O 	0.13934 0.99984 0.75783 -0.37000
H 	H 	0.29380 0.07095 0.74068 0.06100
O 	O 	0.86148 0.82800 0.75396 -0.34600
O 	O 	0.88030 0.97567 0.74468 -0.35800
C 	C 	0.91677 0.05009 0.74379 0.26800
C 	C 	0.91554 0.83705 0.74066 0.27600
Ni	Ni	0.04086 0.91730 0.77132 1.11500
Ni	Ni	0.86934 0.91797 0.77067 1.11400
Ni	Ni	0.04086 0.07569 0.77382 1.11600
O 	O 	0.85550 0.99946 0.78700 -0.33600
O 	O 	0.09951 0.95734 0.79699 -0.37000
O 	O 	0.13527 0.08201 0.78965 -0.35700
O 	O 	0.85440 0.84943 0.79478 -0.35700
C 	C 	0.90214 0.81961 0.79794 0.25300
C 	C 	0.12835 0.02935 0.80244 0.24400
C 	C 	0.16263 0.05306 0.82221 0.05200
O 	O 	0.79248 0.04766 0.81877 -0.18600
H 	H 	0.84986 0.56350 0.82754 0.07200
C 	C 	0.87137 0.05910 0.81871 0.05300
C 	C 	0.88775 0.77157 0.81525 0.05200
O 	O 	0.89835 0.70787 0.81466 -0.18300
O 	O 	0.18417 0.12485 0.82974 -0.19100
C 	C 	0.17375 0.00619 0.83501 -0.07000
H 	H 	0.17979 0.95752 0.83071 0.06700
H 	H 	0.68704 0.09504 0.83133 0.07000
C 	C 	0.74634 0.12104 0.83816 -0.08500
C 	C 	0.79803 0.09071 0.83528 0.11600
H 	H 	0.81562 0.80783 0.83262 0.06300
C 	C 	0.82719 0.59584 0.83539 -0.08500
C 	C 	0.84799 0.77620 0.83172 -0.06000
C 	C 	0.85984 0.67387 0.83211 0.11800
C 	C 	0.21076 0.11734 0.84823 0.11400
C 	C 	0.76212 0.56023 0.84846 0.01300
C 	C 	0.77516 0.18807 0.84928 0.01300
C 	C 	0.83109 0.71454 0.84240 0.01500
C 	C 	0.87257 0.12331 0.84447 0.01500
C 	C 	0.25620 0.03822 0.86463 -0.09600
C 	C 	0.20417 0.04702 0.85151 0.01700
C 	C 	0.26562 0.18046 0.85925 -0.08600
H 	H 	0.26115 0.98703 0.86457 0.07400
H 	H 	0.27842 0.23718 0.85528 0.06800
H 	H 	0.66315 0.17545 0.86034 0.06400
C 	C 	0.72864 0.20766 0.85985 -0.05600
C 	C 	0.73402 0.60111 0.85894 0.11700
H 	H 	0.74357 0.71145 0.86337 0.07000
C 	C 	0.74599 0.49890 0.85918 -0.05500
C 	C 	0.76613 0.67904 0.85550 -0.08600
H 	H 	0.77853 0.46746 0.85808 0.06400
C 	C 	0.85019 0.22133 0.85822 0.11800
C 	C 	0.30668 0.10008 0.87668 0.11900
C 	C 	0.30860 0.16891 0.87441 0.01000
H 	H 	0.40877 0.28242 0.87799 0.05800
O 	O 	0.69722 0.56766 0.87660 -0.18500
C 	C 	0.70782 0.50395 0.87590 0.04300
C 	C 	0.77752 0.25345 0.87487 0.04400
O 	O 	0.85660 0.26549 0.87453 -0.18400
O 	O 	0.37537 0.10583 0.88574 -0.18700
C 	C 	0.37994 0.22244 0.88147 -0.05900
C 	C 	0.41928 0.18469 0.88800 0.04400
C 	C 	0.49522 0.22270 0.89919 0.27400
O 	O 	0.51252 0.18332 0.91178 -0.35300
O 	O 	0.53729 0.29689 0.89903 -0.37300
O 	O 	0.65083 0.45583 0.90771 -0.35100
O 	O 	0.66787 0.22850 0.89669 -0.37700
C 	C 	0.69891 0.45863 0.89350 0.27500
O 	O 	0.73991 0.42210 0.89490 -0.37600
C 	C 	0.74491 0.27105 0.89244 0.27400
O 	O 	0.79526 0.32170 0.90510 -0.36100
Ni	Ni	0.58341 0.35889 0.92459 1.11200
Ni	Ni	0.62423 0.21966 0.92399 1.12100
O 	O 	0.65892 0.32501 0.92761 -0.71300
Ni	Ni	0.76874 0.39165 0.92075 1.12100
O 	O 	0.72512 0.23006 0.93772 -0.37200
O 	O 	0.76701 0.47870 0.93606 -0.36800
O 	O 	0.50155 0.26908 0.94246 -0.36600
O 	O 	0.63723 0.43125 0.94821 -0.37100
H 	H 	0.66458 0.32800 0.94201 0.14600
O 	O 	0.80566 0.35862 0.94450 -0.38100
C 	C 	0.52417 0.23347 0.95534 0.28400
O 	O 	0.56522 0.19904 0.94983 -0.37700
C 	C 	0.71664 0.46795 0.95086 0.28400
C 	C 	0.77061 0.28654 0.95008 0.28500
H 	H 	0.73099 0.60085 0.96423 0.03800
H 	H 	0.39524 0.11160 0.97139 0.03700
C 	C 	0.43674 0.15242 0.98197 0.01800
C 	C 	0.49636 0.22441 0.97570 -0.08200
C 	C 	0.73676 0.56568 0.97541 0.01700
C 	C 	0.74823 0.50465 0.96991 -0.08000
H 	H 	0.77319 0.41788 0.98066 0.03200
C 	C 	0.79067 0.26966 0.96954 -0.08000
C 	C 	0.54701 0.27765 0.98975 0.00600
H 	H 	0.59128 0.33440 0.98522 0.03000
H 	H 	0.67603 0.24234 0.98255 0.03300
C 	C 	0.73933 0.26123 0.98527 0.00500
C 	C 	0.76020 0.46267 0.98464 0.00600
H 	H 	0.70309 0.61625 0.99881 0.04900
C 	C 	0.72026 0.57401 0.99501 -0.06200
C 	C 	0.87121 0.28935 0.97353 0.01700
C 	C 	0.90153 0.19059 0.85548 -0.08600
H 	H 	0.91078 0.29285 0.96164 0.03800
C 	C 	0.90383 0.31551 0.99224 -0.06300
C 	C 	0.90556 0.04284 0.80120 0.24600
C 	C 	0.91926 0.10366 0.83402 -0.06200
C 	C 	0.94168 0.79719 0.70786 -0.03400
O 	O 	0.95184 0.82045 0.78405 -0.34600
H 	H 	0.96084 0.21664 0.86230 0.07100
O 	O 	0.95715 0.09169 0.75902 -0.34800
H 	H 	0.96802 0.33793 0.99472 0.04900
H 	H 	0.97629 0.72420 0.67834 0.07100
H 	H 	0.97819 0.96476 0.79044 0.15200
O 	O 	0.98070 0.96827 0.77601 -0.70900
H 	H 	0.98481 0.13532 0.83386 0.06900
O 	O 	0.98519 0.08231 0.79849 -0.35800
