data_crystal

_cell_length_a 30.21014
_cell_length_b 30.43769
_cell_length_c 34.59963
_cell_angle_alpha 95.52583
_cell_angle_beta  95.52664
_cell_angle_gamma 125.58716

_symmetry_space_group_name_	'P 1'
_symmetry_space_group_name_H-M	'P 1'

loop_
_symmetry_equiv_pos_as_xyz
  x,y,z

loop_
_atom_site_label
_atom_site_type_symbol
_atom_site_fract_x
_atom_site_fract_y
_atom_site_fract_z
_atom_site_charge
C 	C 	0.97893 0.02434 0.98157 0.03800
C 	C 	0.03474 0.05737 0.97734 -0.08400
C 	C 	0.06412 0.03479 0.97526 0.03600
C 	C 	0.03724 0.97898 0.97694 -0.08300
C 	C 	0.98126 0.94566 0.98009 0.03800
C 	C 	0.95237 0.96848 0.98292 -0.08200
H 	H 	0.05512 0.10031 0.97565 0.05000
H 	H 	0.05993 0.96155 0.97597 0.05100
H 	H 	0.90929 0.94283 0.98608 0.05100
C 	C 	0.93126 0.99617 0.45125 0.02700
C 	C 	0.90525 0.94012 0.45150 -0.07500
C 	C 	0.93702 0.92025 0.45537 0.03000
C 	C 	0.99477 0.95655 0.45915 -0.07200
C 	C 	0.02080 0.01245 0.45877 0.02600
C 	C 	0.98903 0.03221 0.45478 -0.06900
H 	H 	0.86060 0.91216 0.44871 0.04900
H 	H 	0.01936 0.94125 0.46219 0.04700
H 	H 	0.00916 0.07547 0.45443 0.04600
Cu	Cu	0.65213 0.25301 0.00238 0.92700
Cu	Cu	0.71271 0.26655 0.92599 0.87000
Cu	Cu	0.69900 0.35034 0.95969 0.89600
Cu	Cu	0.65526 0.35578 0.03268 0.89400
C 	C 	0.65146 0.28087 0.08387 0.28600
O 	O 	0.57128 0.22468 0.99342 -0.36100
C 	C 	0.69349 0.32333 0.87397 0.28700
O 	O 	0.70128 0.33954 0.01337 -0.63900
O 	O 	0.65776 0.26875 0.94831 -0.64200
O 	O 	0.68395 0.21094 0.00095 -0.37200
O 	O 	0.75531 0.27386 0.97345 -0.44200
O 	O 	0.63034 0.30613 0.07215 -0.38500
O 	O 	0.74164 0.42937 0.97443 -0.38500
C 	C 	0.72859 0.45588 0.99746 0.29200
C 	C 	0.55591 0.25344 0.97908 0.28300
O 	O 	0.59321 0.30607 0.97961 -0.39800
O 	O 	0.69853 0.43372 0.02490 -0.39600
O 	O 	0.65874 0.25185 0.05797 -0.35800
C 	C 	0.73407 0.23375 0.99346 0.29200
O 	O 	0.71011 0.36177 0.90513 -0.38600
O 	O 	0.68799 0.27776 0.87765 -0.41800
H 	H 	0.73906 0.36021 0.02936 0.16600
H 	H 	0.62192 0.24933 0.92981 0.17100
Cu	Cu	0.71396 0.33219 0.44906 0.92700
Cu	Cu	0.72769 0.29804 0.53437 0.87000
Cu	Cu	0.63285 0.30058 0.50616 0.89700
Cu	Cu	0.60701 0.32697 0.42941 0.89300
C 	C 	0.66069 0.30849 0.36850 0.28400
O 	O 	0.74323 0.41126 0.44818 -0.36400
C 	C 	0.68122 0.32487 0.59118 0.28600
O 	O 	0.62880 0.28614 0.45040 -0.64000
O 	O 	0.71428 0.34239 0.50658 -0.64000
O 	O 	0.75626 0.30063 0.44864 -0.37500
O 	O 	0.70857 0.24379 0.49060 -0.44300
O 	O 	0.63891 0.33334 0.38052 -0.38300
O 	O 	0.55315 0.25626 0.50149 -0.38200
C 	C 	0.51950 0.25802 0.47538 0.29000
C 	C 	0.72046 0.43255 0.46435 0.28400
O 	O 	0.67073 0.40001 0.47250 -0.39200
O 	O 	0.53887 0.29580 0.45284 -0.39500
O 	O 	0.69910 0.31087 0.39259 -0.36000
C 	C 	0.73996 0.25661 0.46378 0.28900
O 	O 	0.63636 0.30207 0.56368 -0.38600
O 	O 	0.72708 0.33422 0.58225 -0.42000
H 	H 	0.60530 0.24658 0.43827 0.16300
H 	H 	0.73611 0.38114 0.52041 0.17100
C 	C 	0.72344 0.34446 0.76929 0.00000
C 	C 	0.74541 0.36698 0.73652 -0.05800
C 	C 	0.71150 0.33870 0.69911 0.01300
C 	C 	0.65655 0.29242 0.69557 -0.00200
C 	C 	0.63227 0.27554 0.72879 -0.05700
C 	C 	0.66736 0.30101 0.76595 0.01300
S 	S 	0.74846 0.37653 0.81613 0.00700
C 	C 	0.69074 0.33572 0.83435 -0.07400
C 	C 	0.64889 0.29562 0.80247 -0.02200
S 	S 	0.62309 0.28018 0.65038 0.01300
C 	C 	0.67671 0.33075 0.63295 -0.07600
C 	C 	0.72325 0.36006 0.66384 -0.02400
H 	H 	0.78639 0.40539 0.74001 0.04200
H 	H 	0.58797 0.24506 0.72593 0.04300
H 	H 	0.60785 0.26201 0.80592 0.03500
H 	H 	0.76422 0.39396 0.66052 0.03800
C 	C 	0.62873 0.29642 0.25560 0.00400
C 	C 	0.60184 0.27924 0.21609 -0.05800
C 	C 	0.63440 0.28988 0.18706 0.01500
C 	C 	0.69080 0.31344 0.19762 0.00100
C 	C 	0.71524 0.32184 0.23675 -0.05600
C 	C 	0.68370 0.31492 0.26605 0.01400
S 	S 	0.59809 0.27558 0.29404 0.00400
C 	C 	0.65297 0.29106 0.32583 -0.07000
C 	C 	0.69773 0.31247 0.30569 -0.01900
S 	S 	0.71264 0.30475 0.15729 0.00600
C 	C 	0.65277 0.27302 0.12498 -0.06700
C 	C 	0.61292 0.26741 0.14631 -0.02200
H 	H 	0.55739 0.25722 0.20826 0.04400
H 	H 	0.75622 0.33189 0.24395 0.04500
H 	H 	0.73926 0.32832 0.31962 0.04600
H 	H 	0.57099 0.25052 0.13257 0.04400
C 	C 	0.91002 0.86138 0.45524 -0.00700
C 	C 	0.91382 0.82992 0.42521 -0.03100
C 	C 	0.89484 0.77624 0.42768 -0.05300
C 	C 	0.87120 0.75321 0.45990 0.02700
C 	C 	0.86607 0.78418 0.48949 -0.05200
C 	C 	0.88523 0.83799 0.48706 -0.03200
C 	C 	0.85593 0.69836 0.46395 -0.04600
C 	C 	0.80532 0.65870 0.47016 -0.05700
C 	C 	0.78828 0.60233 0.47076 0.04700
C 	C 	0.75836 0.57380 0.49927 -0.07700
C 	C 	0.73809 0.51896 0.49816 0.01700
C 	C 	0.74726 0.49198 0.46833 -0.09500
C 	C 	0.77813 0.52086 0.44024 0.01800
C 	C 	0.79801 0.57552 0.44117 -0.07600
H 	H 	0.93279 0.84761 0.40048 0.03600
H 	H 	0.89911 0.75274 0.40477 0.04000
H 	H 	0.84867 0.76714 0.51483 0.04000
H 	H 	0.88241 0.86207 0.51051 0.03600
H 	H 	0.88510 0.68927 0.45925 0.04000
H 	H 	0.77648 0.66804 0.47544 0.04300
H 	H 	0.75031 0.59395 0.52205 0.04600
H 	H 	0.71461 0.49723 0.52014 0.02800
H 	H 	0.78494 0.50037 0.41679 0.03500
H 	H 	0.81958 0.59648 0.41826 0.04700
C 	C 	0.76094 0.22442 0.45349 -0.10000
C 	C 	0.73524 0.17178 0.46286 0.01600
C 	C 	0.75935 0.14439 0.45842 -0.07900
C 	C 	0.80885 0.16875 0.44367 0.04700
C 	C 	0.83318 0.22020 0.43263 -0.07900
C 	C 	0.80930 0.24784 0.43734 0.01900
C 	C 	0.83908 0.14412 0.44448 -0.05700
C 	C 	0.81229 0.08956 0.43376 -0.04600
C 	C 	0.84207 0.06481 0.43865 0.02600
C 	C 	0.83332 0.02546 0.40790 -0.05300
C 	C 	0.86150 0.00205 0.41231 -0.03000
C 	C 	0.89820 0.01741 0.44767 -0.00600
C 	C 	0.90553 0.05537 0.47890 -0.03200
C 	C 	0.87739 0.07876 0.47452 -0.05200
H 	H 	0.69741 0.15271 0.47467 0.02600
H 	H 	0.74061 0.10519 0.46779 0.04600
H 	H 	0.87142 0.23944 0.42133 0.04700
H 	H 	0.82947 0.28821 0.42971 0.03300
H 	H 	0.88392 0.17103 0.45373 0.04200
H 	H 	0.76853 0.06319 0.42039 0.04000
H 	H 	0.80536 0.01365 0.38040 0.04100
H 	H 	0.85548 0.97265 0.38807 0.03500
H 	H 	0.93332 0.06701 0.50646 0.03600
H 	H 	0.88296 0.10762 0.49899 0.04000
C 	C 	0.45960 0.22346 0.47604 -0.09200
C 	C 	0.44044 0.20526 0.51079 0.01900
C 	C 	0.38384 0.17482 0.51173 -0.07700
C 	C 	0.34601 0.16283 0.47818 0.04800
C 	C 	0.36489 0.17951 0.44309 -0.07700
C 	C 	0.42138 0.20980 0.44207 0.01800
C 	C 	0.28637 0.13105 0.47949 -0.05700
C 	C 	0.25690 0.14898 0.46724 -0.04600
C 	C 	0.19646 0.11542 0.46581 0.02600
C 	C 	0.16127 0.10654 0.43159 -0.05200
C 	C 	0.10392 0.07379 0.42956 -0.03200
C 	C 	0.08136 0.05011 0.46191 -0.00600
C 	C 	0.11663 0.06052 0.49667 -0.03300
C 	C 	0.17398 0.09333 0.49873 -0.05200
H 	H 	0.46938 0.21540 0.53722 0.03700
H 	H 	0.36951 0.16129 0.53873 0.04700
H 	H 	0.33578 0.16886 0.41661 0.04700
H 	H 	0.43543 0.22257 0.41485 0.02400
H 	H 	0.26671 0.09338 0.49137 0.04300
H 	H 	0.27679 0.18681 0.45553 0.04000
H 	H 	0.17830 0.12419 0.40631 0.03900
H 	H 	0.07698 0.06611 0.40267 0.03600
H 	H 	0.09956 0.04292 0.52195 0.03600
H 	H 	0.20089 0.10153 0.52581 0.04000
C 	C 	0.75466 0.51443 0.99638 -0.09000
C 	C 	0.76313 0.55013 0.03003 0.01800
C 	C 	0.78696 0.60529 0.02876 -0.07800
C 	C 	0.80324 0.62557 0.99411 0.04800
C 	C 	0.79432 0.58989 0.96032 -0.07600
C 	C 	0.77033 0.53465 0.96149 0.01800
C 	C 	0.82755 0.68371 0.99295 -0.05600
C 	C 	0.87556 0.71586 0.98031 -0.04600
C 	C 	0.90063 0.77439 0.97997 0.02800
C 	C 	0.92010 0.79620 0.94635 -0.05400
C 	C 	0.94576 0.85197 0.94622 -0.03000
C 	C 	0.95268 0.88654 0.97988 -0.01000
C 	C 	0.93355 0.86489 0.01364 -0.03000
C 	C 	0.90795 0.80913 0.01381 -0.05300
H 	H 	0.75155 0.53528 0.05722 0.03000
H 	H 	0.79319 0.63240 0.05485 0.04600
H 	H 	0.80540 0.60480 0.93306 0.04800
H 	H 	0.76326 0.50745 0.93513 0.03600
H 	H 	0.80758 0.70112 0.00451 0.04200
H 	H 	0.89538 0.69837 0.96862 0.04000
H 	H 	0.91525 0.76990 0.92030 0.04000
H 	H 	0.96048 0.86839 0.92004 0.03500
H 	H 	0.93923 0.89141 0.03990 0.03600
H 	H 	0.89454 0.79310 0.04035 0.04100
C 	C 	0.76329 0.20965 0.00242 -0.10200
C 	C 	0.81804 0.24337 0.02345 0.02400
C 	C 	0.85015 0.22395 0.02512 -0.08000
C 	C 	0.82796 0.17073 0.00557 0.04700
C 	C 	0.77240 0.13629 0.98560 -0.07800
C 	C 	0.74006 0.15546 0.98459 0.01900
C 	C 	0.86513 0.15421 0.00197 -0.05700
C 	C 	0.84785 0.10261 0.00338 -0.04800
C 	C 	0.88370 0.08566 0.99611 0.02900
C 	C 	0.86540 0.04248 0.96491 -0.05500
C 	C 	0.89774 0.02419 0.95905 -0.02700
C 	C 	0.94819 0.04815 0.98491 -0.01100
C 	C 	0.96692 0.09196 0.01582 -0.02700
C 	C 	0.93484 0.11069 0.02137 -0.05500
H 	H 	0.83636 0.28529 0.03734 0.02500
H 	H 	0.89287 0.25092 0.04053 0.04600
H 	H 	0.75504 0.09568 0.96938 0.04500
H 	H 	0.69795 0.12925 0.96800 0.01900
H 	H 	0.90753 0.18496 0.99867 0.04300
H 	H 	0.80597 0.07187 0.00757 0.04000
H 	H 	0.82601 0.02294 0.94528 0.04000
H 	H 	0.88308 0.99067 0.93490 0.03400
H 	H 	0.00559 0.11054 0.03611 0.03200
H 	H 	0.94913 0.14381 0.04576 0.04200
C 	C 	0.12348 0.06968 0.97227 -0.00900
C 	C 	0.14257 0.05176 0.94377 -0.03100
C 	C 	0.19941 0.07930 0.94521 -0.05200
C 	C 	0.23794 0.12674 0.97410 0.02700
C 	C 	0.21872 0.14621 0.00127 -0.05300
C 	C 	0.16185 0.11773 0.00051 -0.03100
C 	C 	0.29814 0.15255 0.97924 -0.04400
C 	C 	0.32303 0.15658 0.94816 -0.05900
C 	C 	0.38286 0.18198 0.95438 0.04900
C 	C 	0.42169 0.23783 0.97141 -0.07900
C 	C 	0.47824 0.26140 0.97861 0.02000
C 	C 	0.49653 0.22927 0.96897 -0.09400
C 	C 	0.45770 0.17362 0.95115 0.02000
C 	C 	0.40108 0.15020 0.94358 -0.07800
H 	H 	0.11335 0.01510 0.92153 0.03500
H 	H 	0.21334 0.06249 0.92487 0.04000
H 	H 	0.24793 0.18254 0.02378 0.03900
H 	H 	0.14773 0.13192 0.02274 0.03400
H 	H 	0.32291 0.17020 0.00896 0.04000
H 	H 	0.29928 0.14041 0.91819 0.04200
H 	H 	0.40801 0.26283 0.97940 0.04800
H 	H 	0.50772 0.30434 0.99248 0.02200
H 	H 	0.47130 0.14852 0.94325 0.02700
H 	H 	0.37136 0.10717 0.93001 0.04700
