data_crystal

_cell_length_a 16.45040
_cell_length_b 14.98639
_cell_length_c 37.85350
_cell_angle_alpha 89.88099
_cell_angle_beta  89.88326
_cell_angle_gamma 119.39824

_symmetry_space_group_name_	'P 1'
_symmetry_space_group_name_H-M	'P 1'

loop_
_symmetry_equiv_pos_as_xyz
  x,y,z

loop_
_atom_site_label
_atom_site_type_symbol
_atom_site_fract_x
_atom_site_fract_y
_atom_site_fract_z
_atom_site_charge
Ni	Ni	0.07374 0.94180 0.75682 1.12200
Ni	Ni	0.12436 0.17364 0.73526 1.11700
O 	O 	0.04138 0.04591 0.75591 -0.70600
H 	H 	0.05215 0.06905 0.78066 0.16500
O 	O 	0.03422 0.15138 0.19905 -0.36700
O 	O 	0.05257 0.88270 0.30230 -0.36700
O 	O 	0.03001 0.19633 0.27170 -0.36600
O 	O 	0.99951 0.82337 0.22937 -0.41500
O 	O 	0.01043 0.00893 0.25810 -0.70000
H 	H 	0.01877 0.03684 0.28213 0.15700
N 	N 	0.96383 0.64337 0.19807 -0.21300
H 	H 	0.91104 0.56722 0.19571 0.07900
H 	H 	0.97732 0.40462 0.25979 0.05800
H 	H 	0.99838 0.31332 0.23692 0.05800
N 	N 	0.99730 0.82544 0.37411 -0.21300
H 	H 	0.95849 0.75887 0.38903 0.08400
H 	H 	0.96142 0.85401 0.35946 0.09500
C 	C 	0.03588 0.46288 0.45675 -0.04700
C 	C 	0.98316 0.49103 0.51326 -0.05200
H 	H 	0.99341 0.50171 0.54152 0.03700
N 	N 	0.92482 0.64293 0.74750 -0.20200
H 	H 	0.95258 0.59438 0.75175 0.07900
H 	H 	0.93831 0.69967 0.76612 0.08600
C 	C 	0.04670 0.64607 0.01664 0.01600
C 	C 	0.02907 0.62268 0.05267 -0.04500
C 	C 	0.94321 0.53678 0.06158 -0.05800
H 	H 	0.92303 0.52166 0.08917 0.04600
N 	N 	0.03511 0.93601 0.88024 -0.18900
H 	H 	0.07419 0.94067 0.90259 0.09300
H 	H 	0.06974 0.98330 0.85872 0.10100
C 	C 	0.56231 0.23467 0.86288 0.28800
C 	C 	0.77554 0.63579 0.92038 0.31300
C 	C 	0.82146 0.39960 0.85822 0.30900
C 	C 	0.53381 0.46526 0.93436 0.29400
C 	C 	0.84682 0.43495 0.97383 0.31500
C 	C 	0.59486 0.21358 0.98043 0.28300
Ni	Ni	0.67343 0.45421 0.87917 1.11500
Ni	Ni	0.68015 0.44339 0.96434 1.12100
Ni	Ni	0.71829 0.29081 0.91901 1.11800
O 	O 	0.56984 0.32519 0.85782 -0.37600
O 	O 	0.63561 0.22386 0.87377 -0.36200
O 	O 	0.81480 0.49403 0.96427 -0.40300
O 	O 	0.78887 0.57935 0.89802 -0.38100
O 	O 	0.71906 0.59147 0.94757 -0.37300
O 	O 	0.61558 0.18993 0.94941 -0.39400
O 	O 	0.75908 0.42180 0.84539 -0.35900
O 	O 	0.82845 0.39643 0.89205 -0.38700
O 	O 	0.64057 0.30991 0.99290 -0.37800
O 	O 	0.57697 0.49545 0.90269 -0.36000
O 	O 	0.54932 0.40607 0.95518 -0.39700
O 	O 	0.80664 0.33894 0.96224 -0.37400
O 	O 	0.66532 0.37757 0.92009 -0.71200
H 	H 	0.59914 0.32463 0.92045 0.16800
C 	C 	0.81749 0.42575 0.51660 0.28700
C 	C 	0.52857 0.05504 0.57397 0.29500
C 	C 	0.56068 0.33946 0.51577 0.31100
C 	C 	0.78839 0.17397 0.58502 0.28600
C 	C 	0.52205 0.29216 0.62324 0.32800
C 	C 	0.77065 0.44779 0.64238 0.30000
Ni	Ni	0.66104 0.22115 0.53452 1.11100
Ni	Ni	0.65744 0.22212 0.62036 1.12500
Ni	Ni	0.68299 0.41688 0.57568 1.11900
O 	O 	0.78251 0.32666 0.51258 -0.38600
O 	O 	0.76791 0.46685 0.53064 -0.37100
O 	O 	0.53445 0.21294 0.62493 -0.39200
O 	O 	0.53477 0.13304 0.55766 -0.39200
O 	O 	0.58483 0.07406 0.60093 -0.36600
O 	O 	0.78929 0.47261 0.60902 -0.39900
O 	O 	0.60119 0.29018 0.50218 -0.36800
O 	O 	0.56279 0.35271 0.54932 -0.39800
O 	O 	0.72441 0.34929 0.65267 -0.37000
O 	O 	0.72925 0.14276 0.55715 -0.36200
O 	O 	0.76999 0.20794 0.61447 -0.38200
O 	O 	0.59274 0.38472 0.61695 -0.38700
O 	O 	0.69398 0.29785 0.57623 -0.71200
H 	H 	0.76239 0.32812 0.57643 0.16600
C 	C 	0.24398 0.11353 0.78575 0.28500
C 	C 	0.89564 0.80841 0.72270 0.31600
C 	C 	0.20041 0.06756 0.69683 0.30900
C 	C 	0.93035 0.91082 0.81563 0.28300
C 	C 	0.97570 0.10577 0.68073 0.27400
C 	C 	0.99656 0.21954 0.77574 0.26600
Ni	Ni	0.91211 0.00371 0.74923 1.11100
O 	O 	0.16975 0.02686 0.79396 -0.39100
O 	O 	0.23834 0.18512 0.76527 -0.36900
O 	O 	0.91806 0.01920 0.69661 -0.38800
O 	O 	0.98508 0.85773 0.71687 -0.39400
O 	O 	0.85684 0.84924 0.74245 -0.37800
O 	O 	0.08564 0.24492 0.77131 -0.36500
O 	O 	0.18715 0.99816 0.72089 -0.36800
O 	O 	0.14253 0.10112 0.69465 -0.40000
O 	O 	0.92943 0.14630 0.75669 -0.38300
O 	O 	0.96960 0.86756 0.79602 -0.37200
O 	O 	0.90141 0.97149 0.80125 -0.37500
O 	O 	0.03704 0.18507 0.69960 -0.35200
C 	C 	0.28716 0.85724 0.41051 0.28800
C 	C 	0.35308 0.51825 0.46105 0.30800
C 	C 	0.50079 0.85949 0.44893 0.30700
C 	C 	0.12781 0.52190 0.44070 0.29000
C 	C 	0.47850 0.65632 0.36161 0.31300
C 	C 	0.26418 0.62093 0.32697 0.30200
Ni	Ni	0.31437 0.69692 0.45506 1.11300
Ni	Ni	0.28708 0.54098 0.39220 1.12100
Ni	Ni	0.40608 0.78391 0.37913 1.12000
O 	O 	0.30835 0.83293 0.44221 -0.36300
O 	O 	0.32576 0.84881 0.38099 -0.37900
O 	O 	0.39533 0.57438 0.35740 -0.37500
O 	O 	0.31163 0.56464 0.47642 -0.36900
O 	O 	0.37203 0.53087 0.42757 -0.38500
O 	O 	0.34438 0.71011 0.33162 -0.37200
O 	O 	0.45639 0.76340 0.45588 -0.38400
O 	O 	0.48423 0.88879 0.41813 -0.36800
O 	O 	0.21768 0.56301 0.35387 -0.39500
O 	O 	0.17365 0.61727 0.45105 -0.38200
O 	O 	0.17120 0.47483 0.42586 -0.36400
O 	O 	0.48660 0.72182 0.38520 -0.39200
O 	O 	0.31363 0.67431 0.40676 -0.71300
H 	H 	0.25690 0.67534 0.39922 0.17500
C 	C 	0.38633 0.53039 0.04784 0.29700
C 	C 	0.20103 0.59346 0.17353 0.32100
C 	C 	0.15708 0.38615 0.08426 0.32000
C 	C 	0.45036 0.73631 0.15546 0.28500
C 	C 	0.10833 0.63606 0.07404 0.30600
C 	C 	0.36145 0.83030 0.04926 0.28900
Ni	Ni	0.31340 0.54030 0.12383 1.11100
Ni	Ni	0.28041 0.73589 0.11688 1.11900
Ni	Ni	0.24829 0.59415 0.05084 1.12200
O 	O 	0.36476 0.48989 0.08058 -0.36600
O 	O 	0.36699 0.60106 0.03701 -0.39100
O 	O 	0.17151 0.72560 0.08678 -0.36800
O 	O 	0.26610 0.56670 0.17280 -0.37600
O 	O 	0.17977 0.62163 0.14450 -0.39000
O 	O 	0.29345 0.74402 0.03444 -0.37500
O 	O 	0.17692 0.43527 0.11383 -0.37500
O 	O 	0.19444 0.43752 0.05487 -0.37200
O 	O 	0.36848 0.84274 0.08388 -0.38800
O 	O 	0.44175 0.65889 0.13638 -0.38000
O 	O 	0.38563 0.76780 0.15467 -0.36500
O 	O 	0.12857 0.56404 0.07200 -0.39100
O 	O 	0.30898 0.64032 0.09488 -0.71200
H 	H 	0.37451 0.68568 0.08792 0.17800
C 	C 	0.82164 0.92562 0.30086 0.32000
C 	C 	0.07371 0.11157 0.17903 0.31300
C 	C 	0.80382 0.86904 0.21920 0.30700
C 	C 	0.11928 0.25450 0.26389 0.29800
C 	C 	0.08772 0.84727 0.22868 0.33700
C 	C 	0.11453 0.96987 0.31773 0.29600
Ni	Ni	0.94458 0.07179 0.24069 1.09400
Ni	Ni	0.13922 0.06463 0.24641 1.11700
Ni	Ni	0.94765 0.86650 0.26944 1.11200
O 	O 	0.83725 0.00336 0.27932 -0.39600
O 	O 	0.88857 0.90525 0.30838 -0.40700
O 	O 	0.15280 0.93817 0.23963 -0.38600
O 	O 	0.11374 0.06252 0.19346 -0.38000
O 	O 	0.87106 0.95354 0.20643 -0.38300
O 	O 	0.82309 0.81443 0.24194 -0.37700
O 	O 	0.16391 0.05533 0.29858 -0.38400
O 	O 	0.16925 0.21548 0.24944 -0.37800
C 	C 	0.18618 0.24267 0.09467 -0.05200
C 	C 	0.12164 0.27506 0.08615 -0.09800
C 	C 	0.02800 0.21181 0.09648 0.12500
C 	C 	0.00746 0.14030 0.12398 -0.00800
C 	C 	0.07981 0.13095 0.14020 -0.09900
C 	C 	0.16617 0.17086 0.12204 0.11000
N 	N 	0.22793 0.13826 0.12971 -0.20200
H 	H 	0.25537 0.28158 0.08306 0.05200
H 	H 	0.93768 0.10050 0.13512 0.02300
N 	N 	0.95931 0.22595 0.08239 -0.21400
H 	H 	0.29463 0.17464 0.11846 0.08300
H 	H 	0.20718 0.07038 0.14370 0.10000
H 	H 	0.97383 0.27878 0.06197 0.09200
H 	H 	0.89039 0.18234 0.09115 0.08400
C 	C 	0.59116 0.87954 0.18313 -0.05100
C 	C 	0.52478 0.77533 0.18283 -0.08500
C 	C 	0.54483 0.70514 0.20115 0.10100
C 	C 	0.63476 0.73823 0.21459 -0.04100
C 	C 	0.70447 0.84063 0.21147 -0.09400
C 	C 	0.67954 0.91377 0.19862 0.11600
N 	N 	0.73767 0.01604 0.20245 -0.19900
H 	H 	0.57533 0.93416 0.17047 0.05100
H 	H 	0.65090 0.68301 0.22657 0.05000
N 	N 	0.47922 0.60480 0.20430 -0.20000
H 	H 	0.72374 0.06853 0.18937 0.07400
H 	H 	0.79025 0.04433 0.22135 0.04300
H 	H 	0.49708 0.55142 0.21406 0.07800
H 	H 	0.40919 0.58000 0.19921 0.08700
C 	C 	0.07670 0.59070 0.20910 -0.04700
C 	C 	0.17205 0.62195 0.20646 -0.10200
C 	C 	0.23504 0.71570 0.22238 0.10600
C 	C 	0.20599 0.78763 0.22994 -0.04300
C 	C 	0.11421 0.76612 0.22217 -0.10500
C 	C 	0.04841 0.66526 0.21116 0.13100
H 	H 	0.02648 0.51385 0.20080 0.05700
H 	H 	0.25543 0.86087 0.24119 0.05600
N 	N 	0.32418 0.73873 0.22903 -0.19800
H 	H 	0.95521 0.69902 0.18463 0.10200
H 	H 	0.34621 0.68558 0.22410 0.10500
H 	H 	0.37164 0.80925 0.24002 0.09000
C 	C 	0.56093 0.79383 0.31805 -0.04800
C 	C 	0.54414 0.69847 0.33163 -0.10400
C 	C 	0.61382 0.67097 0.32740 0.10600
C 	C 	0.70370 0.74562 0.31651 -0.03700
C 	C 	0.72477 0.84796 0.31044 -0.10200
C 	C 	0.65207 0.87213 0.31167 0.11300
N 	N 	0.67006 0.97089 0.31047 -0.19100
H 	H 	0.50614 0.81358 0.31904 0.01900
H 	H 	0.75749 0.72438 0.31330 0.03300
N 	N 	0.59550 0.57388 0.33433 -0.20200
H 	H 	0.61568 0.98711 0.30680 0.08100
H 	H 	0.73512 0.03114 0.31768 0.08700
H 	H 	0.52805 0.51649 0.34079 0.09400
H 	H 	0.64814 0.55426 0.33227 0.08100
C 	C 	0.14796 0.51734 0.28253 -0.03400
C 	C 	0.24236 0.56964 0.29234 -0.09600
C 	C 	0.29990 0.53115 0.27990 0.11300
C 	C 	0.25978 0.42767 0.27035 -0.04900
C 	C 	0.16261 0.36788 0.26712 -0.08300
C 	C 	0.10795 0.41736 0.26879 0.10800
N 	N 	0.02042 0.37280 0.25518 -0.16400
H 	H 	0.10411 0.55092 0.28819 0.05400
H 	H 	0.30411 0.39436 0.26530 0.05000
N 	N 	0.39311 0.59300 0.27720 -0.19800
H 	H 	0.43738 0.56223 0.27359 0.09000
H 	H 	0.42112 0.67221 0.27612 0.10100
C 	C 	0.13670 0.85221 0.40310 -0.05400
C 	C 	0.23333 0.91185 0.40794 -0.07300
C 	C 	0.27859 0.01194 0.39347 0.09900
C 	C 	0.23621 0.03614 0.36549 -0.04900
C 	C 	0.14568 0.96465 0.35456 -0.07900
C 	C 	0.09169 0.87895 0.37681 0.13100
H 	H 	0.09838 0.77992 0.41706 0.05900
H 	H 	0.27540 0.10784 0.35131 0.05400
N 	N 	0.36561 0.08159 0.40423 -0.19900
H 	H 	0.39773 0.06489 0.42497 0.09100
H 	H 	0.40069 0.15429 0.39264 0.08500
C 	C 	0.52456 0.92757 0.47993 -0.09000
C 	C 	0.45853 0.95528 0.49051 -0.04400
C 	C 	0.43333 0.94759 0.52603 0.03200
C 	C 	0.50089 0.96434 0.55162 -0.08100
C 	C 	0.56957 0.93835 0.54230 -0.03200
C 	C 	0.58326 0.92261 0.50640 0.03200
S 	S 	0.32942 0.94661 0.53795 -0.03100
S 	S 	0.67462 0.89908 0.49487 -0.03700
H 	H 	0.64372 0.79604 0.49630 0.04100
H 	H 	0.34357 0.04469 0.53797 0.03900
H 	H 	0.42446 0.97851 0.47122 0.05800
H 	H 	0.61773 0.94013 0.56213 0.05800
C 	C 	0.96263 0.47009 0.44038 -0.05400
C 	C 	0.90131 0.48991 0.46067 0.04500
C 	C 	0.90502 0.48883 0.49794 -0.07100
C 	C 	0.03471 0.45646 0.49382 0.06000
S 	S 	0.81447 0.50589 0.43937 -0.05200
S 	S 	0.11094 0.42430 0.51580 -0.02600
H 	H 	0.18545 0.51148 0.52856 0.04000
H 	H 	0.73454 0.41306 0.43694 0.04500
H 	H 	0.96055 0.47330 0.41180 0.04100
C 	C 	0.39672 0.46993 0.48200 -0.07500
C 	C 	0.48987 0.53185 0.49179 -0.02000
C 	C 	0.54999 0.49091 0.49494 0.03800
C 	C 	0.51457 0.38368 0.49384 -0.08300
C 	C 	0.42024 0.32072 0.48504 -0.01800
C 	C 	0.36128 0.36301 0.47948 0.03300
S 	S 	0.66981 0.57526 0.50054 -0.06200
S 	S 	0.24310 0.28129 0.46930 -0.04200
H 	H 	0.19178 0.25234 0.49990 0.04400
H 	H 	0.70967 0.61421 0.46833 0.04600
H 	H 	0.51827 0.61408 0.49324 0.04800
H 	H 	0.39112 0.23825 0.48473 0.04100
C 	C 	0.99725 0.21765 0.62813 -0.08300
C 	C 	0.96059 0.11903 0.64249 -0.07200
C 	C 	0.89491 0.03507 0.62209 0.09500
C 	C 	0.84691 0.05313 0.59457 -0.05700
C 	C 	0.86720 0.15356 0.58681 -0.09100
C 	C 	0.95298 0.23461 0.59913 0.11700
N 	N 	0.98367 0.33137 0.58730 -0.21600
H 	H 	0.05511 0.28203 0.64096 0.07800
H 	H 	0.78803 0.98922 0.58200 0.06100
N 	N 	0.88138 0.93911 0.62758 -0.19000
H 	H 	0.04398 0.39279 0.59769 0.10500
H 	H 	0.94736 0.34569 0.56758 0.08800
H 	H 	0.92725 0.92696 0.64327 0.10800
H 	H 	0.82909 0.87675 0.61399 0.08600
C 	C 	0.36010 0.21310 0.69358 -0.05700
C 	C 	0.28886 0.12447 0.67748 -0.10400
C 	C 	0.28695 0.11876 0.64011 0.11600
C 	C 	0.35391 0.20185 0.62025 -0.03700
C 	C 	0.43386 0.27806 0.63685 -0.10400
C 	C 	0.42884 0.29263 0.67319 0.11600
N 	N 	0.49356 0.38006 0.68899 -0.20300
H 	H 	0.35834 0.22385 0.72164 0.05300
H 	H 	0.35287 0.19670 0.59165 0.05300
N 	N 	0.22071 0.03418 0.62331 -0.20500
H 	H 	0.49330 0.38850 0.71638 0.09000
H 	H 	0.54233 0.44177 0.67396 0.10400
H 	H 	0.17422 0.96883 0.63745 0.10900
H 	H 	0.21740 0.03173 0.59573 0.09100
C 	C 	0.84048 0.54280 0.69769 -0.04500
C 	C 	0.78596 0.52950 0.66775 -0.08800
C 	C 	0.75157 0.59913 0.66136 0.10000
C 	C 	0.77383 0.67957 0.68491 -0.03900
C 	C 	0.84078 0.70200 0.71091 -0.10100
C 	C 	0.86943 0.62945 0.71916 0.10900
H 	H 	0.86354 0.48798 0.70349 0.04600
H 	H 	0.74859 0.73306 0.67988 0.04700
N 	N 	0.70020 0.59155 0.63231 -0.18900
H 	H 	0.71274 0.56762 0.60816 0.04800
H 	H 	0.65833 0.62611 0.63211 0.08200
C 	C 	0.92139 0.47595 0.00052 -0.11300
C 	C 	0.00211 0.56833 0.99141 0.01300
C 	C 	0.89547 0.45860 0.03656 0.04900
S 	S 	0.12198 0.77240 0.00282 -0.02000
S 	S 	0.80368 0.33970 0.05070 -0.05000
H 	H 	0.72514 0.34763 0.05616 0.04100
H 	H 	0.19921 0.77889 0.98663 0.04100
H 	H 	0.02108 0.58574 0.96378 0.04700
C 	C 	0.41818 0.92255 0.02729 -0.07800
C 	C 	0.38328 0.98972 0.02015 -0.00300
C 	C 	0.44368 0.09190 0.00979 0.01400
C 	C 	0.53954 0.12680 0.00477 -0.05900
C 	C 	0.57480 0.06092 0.01324 -0.04300
C 	C 	0.51490 0.95930 0.02382 0.05300
S 	S 	0.39958 0.17711 0.00548 -0.04100
S 	S 	0.56238 0.87938 0.03370 -0.04200
H 	H 	0.58135 0.88463 0.06911 0.04300
H 	H 	0.37679 0.18187 0.97105 0.03600
H 	H 	0.31015 0.96458 0.02483 0.04400
H 	H 	0.64857 0.08713 0.00968 0.04800
C 	C 	0.49301 0.52122 0.95167 -0.08200
C 	C 	0.39719 0.46201 0.95800 -0.01900
C 	C 	0.36541 0.43515 0.99301 0.03100
C 	C 	0.42446 0.49061 0.02148 -0.07400
C 	C 	0.51915 0.55307 0.01424 -0.02400
C 	C 	0.54619 0.58611 0.97962 0.03200
S 	S 	0.25242 0.33338 0.00087 -0.02500
S 	S 	0.62576 0.71619 0.97236 -0.03300
H 	H 	0.57766 0.76789 0.96657 0.04200
H 	H 	0.25433 0.24385 0.00546 0.03800
H 	H 	0.35141 0.41940 0.93641 0.04200
H 	H 	0.56564 0.59627 0.03562 0.04100
C 	C 	0.89402 0.38685 0.80134 -0.04300
C 	C 	0.86369 0.35075 0.83580 -0.09400
C 	C 	0.88718 0.27891 0.85079 0.10400
C 	C 	0.94925 0.25584 0.83303 -0.04800
C 	C 	0.97241 0.28410 0.79780 -0.08800
C 	C 	0.94760 0.35328 0.78202 0.10600
N 	N 	0.97613 0.38878 0.74866 -0.21200
H 	H 	0.87704 0.44170 0.78966 0.05000
H 	H 	0.96888 0.20342 0.84509 0.04200
N 	N 	0.84469 0.22595 0.88067 -0.19000
H 	H 	0.95632 0.43804 0.73679 0.08200
H 	H 	0.02052 0.37022 0.73464 0.11800
H 	H 	0.77915 0.21398 0.88804 0.02800
H 	H 	0.87100 0.18452 0.89405 0.07800
C 	C 	0.32568 0.13799 0.84296 -0.04100
C 	C 	0.33107 0.13814 0.80583 -0.08200
C 	C 	0.40436 0.12556 0.79040 0.10200
C 	C 	0.47782 0.13323 0.81184 -0.03900
C 	C 	0.47774 0.14893 0.84827 -0.09000
C 	C 	0.39300 0.13050 0.86382 0.10600
N 	N 	0.38064 0.11728 0.89928 -0.20100
H 	H 	0.26564 0.13622 0.85558 0.04900
H 	H 	0.53870 0.13601 0.79962 0.05000
N 	N 	0.40179 0.09950 0.75604 -0.20400
H 	H 	0.31930 0.10734 0.91115 0.08400
H 	H 	0.43091 0.11359 0.91511 0.09200
H 	H 	0.33918 0.06275 0.74259 0.10200
H 	H 	0.46074 0.10372 0.74392 0.08800
C 	C 	0.89578 0.81355 0.91019 -0.03300
C 	C 	0.80048 0.74018 0.90878 -0.10100
C 	C 	0.74653 0.75075 0.88147 0.10600
C 	C 	0.79096 0.80811 0.85148 -0.04700
C 	C 	0.88782 0.86277 0.84945 -0.08000
C 	C 	0.94128 0.87212 0.87989 0.08900
H 	H 	0.93683 0.81400 0.93263 0.04200
H 	H 	0.74962 0.80816 0.82918 0.05300
N 	N 	0.65224 0.70180 0.88306 -0.20700
H 	H 	0.61734 0.66930 0.90627 0.11100
H 	H 	0.61311 0.70257 0.86145 0.08900
