data_crystal

_cell_length_a 35.98809
_cell_length_b 29.42400
_cell_length_c 31.90801
_cell_angle_alpha 103.52267
_cell_angle_beta  115.67361
_cell_angle_gamma 112.68896

_symmetry_space_group_name_	'P 1'
_symmetry_space_group_name_H-M	'P 1'

loop_
_symmetry_equiv_pos_as_xyz
  x,y,z

loop_
_atom_site_label
_atom_site_type_symbol
_atom_site_fract_x
_atom_site_fract_y
_atom_site_fract_z
_atom_site_charge
Zn	Zn	0.06188 0.07891 0.87813 1.19400
O 	O 	0.05371 0.98756 0.79270 -0.49000
O 	O 	0.03539 0.05409 0.80061 -0.44500
Zn	Zn	0.03307 0.01105 0.92821 1.21800
C 	C 	0.03615 0.00422 0.09047 0.34700
O 	O 	0.03247 0.96325 0.05718 -0.44600
O 	O 	0.04370 0.04995 0.08627 -0.47500
O 	O 	0.05003 0.01958 0.99688 -0.87700
Zn	Zn	0.03158 0.95492 0.83163 1.18200
C 	C 	0.04079 0.01850 0.77413 0.32700
Zn	Zn	0.02747 0.05365 0.35331 1.19800
O 	O 	0.02091 0.95821 0.27350 -0.42000
O 	O 	0.00223 0.02435 0.27591 -0.41200
C 	C 	0.01616 0.00414 0.57985 0.32500
O 	O 	0.00416 0.95708 0.54457 -0.38200
O 	O 	0.01778 0.04536 0.56938 -0.44400
O 	O 	0.01857 0.00513 0.47797 -0.88200
C 	C 	0.01014 0.98922 0.25321 0.30000
C 	C 	0.03587 0.01620 0.72528 -0.10900
C 	C 	0.02440 0.00912 0.63055 0.02600
C 	C 	0.06249 0.00585 0.66702 -0.11700
C 	C 	0.06676 0.00765 0.71353 0.08700
C 	C 	0.03194 0.99877 0.13310 -0.13300
C 	C 	0.06151 0.04596 0.18315 0.04800
C 	C 	0.05367 0.04253 0.22176 -0.05100
C 	C 	0.01582 0.99202 0.21076 0.03200
O 	O 	0.05976 0.92217 0.86841 -0.50200
O 	O 	0.07737 0.08823 0.95046 -0.78200
O 	O 	0.02313 0.89706 0.35181 -0.48100
O 	O 	0.04367 0.06733 0.42664 -0.77600
H 	H 	0.12735 0.91761 0.86251 0.02500
F 	F 	0.07312 0.94473 0.61730 -0.46000
O 	O 	0.01539 0.00198 0.85918 -0.85900
Zn	Zn	0.02075 0.04976 0.01859 1.20100
H 	H 	0.09435 0.00299 0.74081 0.06500
H 	H 	0.05454 0.02421 0.50502 0.18300
H 	H 	0.08585 0.03822 0.02428 0.15300
C 	C 	0.09661 0.95424 0.91893 0.32300
O 	O 	0.09835 0.99560 0.94874 -0.46800
O 	O 	0.11306 0.15654 0.89918 -0.45200
O 	O 	0.06467 0.97526 0.42979 -0.45400
O 	O 	0.07856 0.12982 0.37147 -0.45200
C 	C 	0.06137 0.93141 0.40152 0.31800
H 	H 	0.07729 0.07920 0.26055 0.05300
H 	H 	0.09054 0.08549 0.19211 0.02300
H 	H 	0.08869 0.21395 0.35153 0.03300
C 	C 	0.09768 0.99916 0.65609 0.76300
C 	C 	0.15192 0.93239 0.90455 0.03100
F 	F 	0.11510 0.03628 0.63921 -0.46500
H 	H 	0.13404 0.97013 0.50415 0.03400
Zn	Zn	0.11009 0.09920 0.46792 1.18800
C 	C 	0.11957 0.17260 0.41795 0.31900
C 	C 	0.10548 0.92874 0.42144 -0.10400
C 	C 	0.14088 0.95180 0.93932 -0.12000
H 	H 	0.20325 0.91779 0.89682 0.05100
C 	C 	0.14051 0.95245 0.47624 0.02400
F 	F 	0.13837 0.00996 0.70118 -0.45200
Zn	Zn	0.14393 0.12055 0.99165 1.18500
C 	C 	0.15294 0.19890 0.94659 0.32300
O 	O 	0.15267 0.06661 0.90888 -0.34500
O 	O 	0.16728 0.19317 0.98966 -0.46200
O 	O 	0.11634 0.03959 0.38567 -0.34700
O 	O 	0.13339 0.16961 0.46234 -0.46000
C 	C 	0.12808 0.24099 0.38296 0.01900
H 	H 	0.13946 0.30402 0.35797 0.04700
H 	H 	0.08880 0.88958 0.34363 0.03300
H 	H 	0.16276 0.21872 0.87170 0.04000
C 	C 	0.19532 0.93321 0.92407 -0.07700
C 	C 	0.15002 0.22555 0.42049 -0.09700
C 	C 	0.15685 0.29209 0.38661 -0.06900
C 	C 	0.11479 0.90664 0.38588 0.02300
C 	C 	0.18380 0.25674 0.90872 0.02900
C 	C 	0.18234 0.25390 0.95140 -0.10700
C 	C 	0.17415 0.97267 0.99396 0.04200
H 	H 	0.21096 0.86725 0.50396 0.04400
C 	C 	0.15789 0.06227 0.43214 0.30400
O 	O 	0.16320 0.08970 0.47541 -0.45300
C 	C 	0.15832 0.90783 0.40482 -0.06800
C 	C 	0.18402 0.95337 0.49514 -0.06700
H 	H 	0.20923 0.30222 0.03237 0.01500
H 	H 	0.16638 0.98828 0.02130 0.00300
H 	H 	0.15691 0.00191 0.35217 0.04400
C 	C 	0.21029 0.30366 0.99927 0.04500
C 	C 	0.19356 0.08785 0.95547 0.30400
O 	O 	0.19777 0.11281 0.99872 -0.45700
H 	H 	0.21060 0.97123 0.53742 0.05400
H 	H 	0.16497 0.89044 0.37699 0.04900
C 	C 	0.21319 0.30867 0.91405 -0.07600
H 	H 	0.21411 0.31037 0.88094 0.05300
C 	C 	0.22806 0.95311 0.97847 0.04000
H 	H 	0.19454 0.03194 0.87517 0.04800
C 	C 	0.20119 0.26124 0.46098 0.02000
C 	C 	0.19293 0.93081 0.45943 0.03100
H 	H 	0.23257 0.44702 0.98026 0.03800
C 	C 	0.21753 0.97323 0.01343 -0.09200
H 	H 	0.24285 0.88616 0.01982 0.03800
C 	C 	0.19368 0.03133 0.38896 0.01600
C 	C 	0.20775 0.32813 0.42772 0.02900
C 	C 	0.24138 0.35823 0.96205 0.04500
C 	C 	0.23968 0.35551 0.00455 -0.09700
C 	C 	0.20006 0.06224 0.43522 -0.08600
C 	C 	0.23860 0.88945 0.49798 -0.03600
C 	C 	0.23083 0.05977 0.91277 0.02000
C 	C 	0.23612 0.08843 0.95903 -0.07900
H 	H 	0.21879 0.24942 0.48961 0.03100
C 	C 	0.23648 0.92723 0.47865 -0.00100
C 	C 	0.26343 0.45501 0.97789 -0.03400
H 	H 	0.26132 0.39355 0.04177 0.04900
C 	C 	0.27173 0.90942 0.01578 -0.04300
C 	C 	0.27117 0.94863 0.99800 0.00300
H 	H 	0.22931 0.34808 0.35970 0.03600
C 	C 	0.22985 0.31227 0.46459 -0.07000
C 	C 	0.23764 0.38324 0.43318 -0.00300
H 	H 	0.24269 0.98878 0.05555 0.04600
H 	H 	0.27434 0.84641 0.51902 0.04100
H 	H 	0.22973 0.01888 0.35278 0.05000
C 	C 	0.27275 0.41301 0.96788 -0.00600
C 	C 	0.24539 0.38623 0.39415 -0.03700
H 	H 	0.25297 0.43104 0.50801 0.03800
C 	C 	0.27454 0.87767 0.50653 -0.04000
H 	H 	0.28642 0.53957 0.99259 0.04000
C 	C 	0.23494 0.04049 0.38938 -0.06500
H 	H 	0.26840 0.04895 0.87808 0.06200
C 	C 	0.25889 0.43294 0.47777 -0.03600
H 	H 	0.26382 0.52908 0.37814 0.03900
H 	H 	0.26921 0.33960 0.49616 0.04600
C 	C 	0.27261 0.95593 0.47128 -0.03800
H 	H 	0.31288 0.86098 0.41431 0.03800
C 	C 	0.29396 0.50745 0.98492 -0.04100
C 	C 	0.30796 0.89787 0.02554 -0.04200
H 	H 	0.30676 0.86575 0.03704 0.03800
C 	C 	0.30884 0.97860 0.99304 -0.04400
H 	H 	0.30891 0.00924 0.97974 0.05200
C 	C 	0.24784 0.09748 0.48319 0.01700
H 	H 	0.25329 0.11990 0.51969 0.03800
C 	C 	0.27266 0.06894 0.91446 -0.06500
C 	C 	0.28321 0.12169 0.00787 0.01000
C 	C 	0.27420 0.43854 0.39970 -0.04300
H 	H 	0.28776 0.14240 0.04424 0.03200
H 	H 	0.27146 0.98545 0.45674 0.03800
H 	H 	0.28007 0.44045 0.36943 0.03700
C 	C 	0.28761 0.48521 0.48329 -0.04200
C 	C 	0.31266 0.42377 0.96454 -0.03400
C 	C 	0.29540 0.48825 0.44429 0.00700
C 	C 	0.30888 0.90384 0.49613 0.00600
C 	C 	0.28290 0.08023 0.43610 0.02700
C 	C 	0.30223 0.55859 0.41202 -0.04300
C 	C 	0.34413 0.92565 0.01786 0.00900
H 	H 	0.30349 0.52333 0.51764 0.03900
H 	H 	0.32026 0.39169 0.95702 0.04000
C 	C 	0.28908 0.10649 0.48356 -0.06600
C 	C 	0.34526 0.96725 0.00303 -0.05200
H 	H 	0.31111 0.62378 0.39003 0.03700
C 	C 	0.30879 0.94443 0.48015 -0.04200
C 	C 	0.32010 0.10657 0.96239 0.03700
C 	C 	0.33410 0.51837 0.98201 0.00400
H 	H 	0.35283 0.88564 0.93928 0.03900
C 	C 	0.32502 0.13082 0.00947 -0.07700
C 	C 	0.32469 0.54351 0.44954 0.00700
C 	C 	0.32897 0.61228 0.41885 -0.03600
C 	C 	0.34319 0.47624 0.97155 -0.04100
H 	H 	0.34746 0.54203 0.91047 0.04200
C 	C 	0.33690 0.86089 0.44958 -0.04300
C 	C 	0.34110 0.88433 0.49640 0.00700
C 	C 	0.32590 0.10026 0.43361 -0.00100
C 	C 	0.37574 0.88519 0.97487 -0.03700
H 	H 	0.31732 0.01979 0.40845 0.03900
H 	H 	0.37340 0.98949 0.99767 0.04100
C 	C 	0.37750 0.90725 0.02027 -0.00000
H 	H 	0.32596 0.13597 0.52020 0.04700
H 	H 	0.33559 0.96553 0.47278 0.03600
H 	H 	0.34383 0.18513 0.45728 0.03800
C 	C 	0.36662 0.57401 0.99006 0.02000
C 	C 	0.36850 0.57911 0.94826 -0.05000
H 	H 	0.35479 0.72735 0.48039 0.05100
H 	H 	0.38392 0.21200 0.98710 0.04200
C 	C 	0.33744 0.06270 0.41615 -0.03700
C 	C 	0.36429 0.12643 0.96200 -0.00200
Zn	Zn	0.00980 0.94196 0.97992 1.19200
H 	H 	0.36143 0.15871 0.04692 0.04500
H 	H 	0.35721 0.81549 0.41069 0.03600
C 	C 	0.35253 0.15586 0.44389 -0.03600
C 	C 	0.36186 0.83493 0.44745 -0.03600
C 	C 	0.37232 0.88380 0.54177 -0.04300
H 	H 	0.37627 0.90232 0.57828 0.03900
H 	H 	0.37411 0.48429 0.96928 0.04000
H 	H 	0.35423 0.04523 0.93580 0.04000
H 	H 	0.39881 0.84160 0.93873 0.03700
H 	H 	0.39748 0.75562 0.01599 0.05100
C 	C 	0.37451 0.58214 0.49326 -0.04300
C 	C 	0.40167 0.86010 0.97450 -0.02900
C 	C 	0.39255 0.18247 0.97414 -0.03100
C 	C 	0.37836 0.65145 0.46334 -0.00400
C 	C 	0.39415 0.62235 0.03887 -0.05700
H 	H 	0.39332 0.61880 0.07154 0.04000
C 	C 	0.40736 0.90636 0.06610 -0.04300
C 	C 	0.39639 0.63227 0.95466 -0.02100
H 	H 	0.39655 0.63589 0.92171 0.03600
H 	H 	0.40945 0.92384 0.10155 0.03700
C 	C 	0.37568 0.08851 0.94502 -0.03200
C 	C 	0.38753 0.74354 0.48053 -0.07700
C 	C 	0.39100 0.83194 0.49198 -0.00500
C 	C 	0.39699 0.85746 0.53947 -0.03600
C 	C 	0.37403 0.08009 0.40709 -0.04100
H 	H 	0.39228 0.57075 0.52223 0.03800
C 	C 	0.40122 0.63592 0.50015 -0.03600
C 	C 	0.38906 0.17320 0.43490 -0.04200
C 	C 	0.40511 0.70957 0.47285 0.03100
H 	H 	0.38196 0.05052 0.39246 0.04000
H 	H 	0.38975 0.16160 0.33722 0.03800
C 	C 	0.41159 0.79799 0.48745 0.03100
C 	C 	0.42938 0.85660 0.01938 -0.01300
C 	C 	0.42261 0.68073 0.00292 -0.02000
C 	C 	0.42202 0.67548 0.04526 -0.02800
C 	C 	0.43303 0.88092 0.06558 -0.03500
C 	C 	0.42904 0.77070 0.01402 -0.08300
H 	H 	0.41973 0.85564 0.57415 0.03700
C 	C 	0.39927 0.13512 0.41547 0.00700
C 	C 	0.43067 0.19996 0.96749 -0.04100
H 	H 	0.40877 0.21594 0.44204 0.03900
C 	C 	0.41396 0.10607 0.93850 -0.04100
H 	H 	0.42549 0.11786 0.85354 0.04500
H 	H 	0.45128 0.24291 0.97550 0.04200
H 	H 	0.44236 0.71262 0.08275 0.03300
C 	C 	0.45074 0.82319 0.01638 0.03600
C 	C 	0.44706 0.73693 0.00760 0.04000
H 	H 	0.45470 0.87880 0.10057 0.03500
H 	H 	0.43934 0.66583 0.53458 0.03600
C 	C 	0.44100 0.16163 0.94878 0.01200
H 	H 	0.42201 0.07630 0.92457 0.04300
C 	C 	0.42471 0.16597 0.36067 -0.04300
C 	C 	0.44747 0.73063 0.47302 -0.07700
C 	C 	0.43490 0.15230 0.40190 0.00800
C 	C 	0.45374 0.81886 0.48737 -0.07700
H 	H 	0.46097 0.70435 0.46676 0.04900
C 	C 	0.46354 0.15246 0.88493 -0.03800
H 	H 	0.45183 0.19674 0.31837 0.03600
C 	C 	0.47178 0.78527 0.48018 0.03100
H 	H 	0.47225 0.86093 0.49255 0.04900
C 	C 	0.45989 0.18598 0.35007 -0.03600
C 	C 	0.48724 0.75602 0.00394 -0.09100
H 	H 	0.47919 0.81158 0.40705 0.03600
C 	C 	0.47809 0.17889 0.93705 0.00400
C 	C 	0.49098 0.84228 0.01292 -0.08300
H 	H 	0.48625 0.15088 0.83266 0.04100
C 	C 	0.48014 0.15778 0.43180 -0.04300
H 	H 	0.50099 0.72980 0.99857 0.05900
H 	H 	0.50778 0.88290 0.01475 0.04900
C 	C 	0.49786 0.17138 0.87304 -0.03600
C 	C 	0.50926 0.80873 0.00655 0.03900
H 	H 	0.51114 0.83249 0.93007 0.03500
H 	H 	0.48834 0.14742 0.46376 0.04000
C 	C 	0.51317 0.81874 0.43805 -0.03700
C 	C 	0.51546 0.80688 0.47890 -0.00500
C 	C 	0.50553 0.19247 0.38061 -0.00400
C 	C 	0.51536 0.17785 0.42124 -0.03600
C 	C 	0.52739 0.22406 0.97725 -0.03000
H 	H 	0.53902 0.24465 0.01762 0.02900
C 	C 	0.54566 0.83914 0.95928 -0.02300
C 	C 	0.55070 0.82827 0.00134 -0.01900
C 	C 	0.54693 0.21700 0.91309 -0.00100
C 	C 	0.54338 0.21547 0.37073 0.03200
H 	H 	0.54337 0.14025 0.34915 0.05000
H 	H 	0.55235 0.84801 0.40496 0.03700
C 	C 	0.55464 0.83953 0.43695 -0.04300
H 	H 	0.55121 0.29554 0.38943 0.04900
H 	H 	0.55052 0.18276 0.44505 0.03700
C 	C 	0.55961 0.81617 0.51877 -0.03700
H 	H 	0.56178 0.80738 0.55059 0.03500
C 	C 	0.56164 0.24311 0.96528 -0.04000
C 	C 	0.56019 0.18319 0.35602 -0.07600
C 	C 	0.56429 0.27058 0.37832 -0.07700
H 	H 	0.58093 0.86699 0.92228 0.04000
C 	C 	0.58315 0.23660 0.90058 0.03200
H 	H 	0.58503 0.16233 0.88605 0.05200
C 	C 	0.58515 0.85856 0.95480 -0.05000
Zn	Zn	0.99983 0.99160 0.40789 1.21100
C 	C 	0.99989 0.02184 0.69006 0.02000
Zn	Zn	0.99596 0.92829 0.31190 1.19300
Zn	Zn	0.99012 0.03748 0.49852 1.20100
C 	C 	0.99400 0.01798 0.64295 -0.05700
H 	H 	0.96532 0.02133 0.61562 0.04600
H 	H 	0.97576 0.02818 0.69871 0.02400
C 	C 	0.60206 0.28931 0.90265 -0.07600
C 	C 	0.63675 0.30798 0.89099 0.03300
C 	C 	0.65267 0.27404 0.87755 -0.07600
C 	C 	0.63423 0.22163 0.87594 0.03300
C 	C 	0.59921 0.20279 0.88711 -0.07600
H 	H 	0.58980 0.31559 0.91322 0.05200
H 	H 	0.68022 0.28896 0.86955 0.05100
C 	C 	0.60255 0.29367 0.37228 0.03200
C 	C 	0.62061 0.26213 0.35974 -0.07600
C 	C 	0.59957 0.20681 0.35158 0.03200
H 	H 	0.65163 0.28101 0.35734 0.05000
Zn	Zn	0.92450 0.91147 0.87941 1.17500
C 	C 	0.91790 0.82788 0.91916 0.32500
C 	C 	0.90203 0.95798 0.94477 0.31900
O 	O 	0.96968 0.03158 0.90938 -0.46500
O 	O 	0.96600 0.86182 0.95728 -0.45800
O 	O 	0.89635 0.83804 0.88033 -0.46500
O 	O 	0.88585 0.93443 0.89489 -0.47800
O 	O 	0.94504 0.96925 0.98161 -0.48300
O 	O 	0.98832 0.93389 0.90612 -0.80300
C 	C 	0.96840 0.06932 0.93966 0.32100
O 	O 	0.99377 0.08789 0.99100 -0.49300
H 	H 	0.98028 0.98860 0.83454 0.13000
O 	O 	0.98103 0.97817 0.33747 -0.88000
Zn	Zn	0.89263 0.89481 0.36520 1.17700
Zn	Zn	0.97889 0.92983 0.46581 1.19000
C 	C 	0.88808 0.81526 0.40934 0.31800
C 	C 	0.87210 0.94510 0.43124 0.31900
O 	O 	0.93638 0.01228 0.38709 -0.46300
O 	O 	0.93592 0.85120 0.44799 -0.44400
O 	O 	0.86575 0.82319 0.36903 -0.46100
O 	O 	0.85500 0.91926 0.38125 -0.47800
O 	O 	0.91616 0.95889 0.46835 -0.48800
O 	O 	0.95581 0.91610 0.39010 -0.79000
C 	C 	0.93658 0.05270 0.41606 0.32200
O 	O 	0.96180 0.07316 0.46764 -0.49200
H 	H 	0.94590 0.96476 0.31289 0.16300
C 	C 	0.98496 0.94427 0.15983 -0.14900
C 	C 	0.99450 0.94776 0.12190 0.09200
H 	H 	0.97181 0.91145 0.08308 0.04900
C 	C 	0.94238 0.88969 0.14604 0.78700
F 	F 	0.91090 0.85279 0.09201 -0.47400
F 	F 	0.96103 0.86400 0.17202 -0.48600
F 	F 	0.91464 0.90023 0.16122 -0.49200
C 	C 	0.70083 0.85397 0.46630 -0.03800
C 	C 	0.72275 0.90602 0.46782 -0.00400
C 	C 	0.70440 0.93968 0.47315 -0.03800
H 	H 	0.72114 0.97996 0.47445 0.03400
C 	C 	0.66425 0.92127 0.47663 -0.04400
C 	C 	0.64208 0.86898 0.47467 0.00600
C 	C 	0.66067 0.83553 0.46968 -0.04400
H 	H 	0.64365 0.79499 0.46783 0.03700
C 	C 	0.59879 0.84872 0.47676 0.00600
C 	C 	0.60114 0.83708 0.51775 -0.04400
C 	C 	0.76399 0.92439 0.46234 0.02800
C 	C 	0.75723 0.92867 0.41705 -0.07100
C 	C 	0.79372 0.93840 0.40821 0.02100
C 	C 	0.83729 0.94377 0.44455 -0.10400
C 	C 	0.84525 0.94291 0.49150 0.01800
C 	C 	0.80872 0.93314 0.50024 -0.07100
H 	H 	0.78745 0.94005 0.37236 0.02900
H 	H 	0.87886 0.94762 0.52025 0.02800
H 	H 	0.81455 0.93073 0.53573 0.04100
H 	H 	0.72302 0.92258 0.38784 0.04500
H 	H 	0.63510 0.84421 0.54875 0.03500
H 	H 	0.65030 0.94751 0.48072 0.03600
H 	H 	0.71457 0.82756 0.46187 0.03600
C 	C 	0.75640 0.95492 0.02208 -0.04200
C 	C 	0.75022 0.92183 0.97696 0.00500
C 	C 	0.70427 0.87120 0.93653 -0.03500
H 	H 	0.69925 0.84519 0.90172 0.04000
C 	C 	0.66500 0.85350 0.94141 -0.04000
C 	C 	0.67126 0.88631 0.98672 0.01100
C 	C 	0.71706 0.93727 0.02691 -0.04600
H 	H 	0.72216 0.96308 0.06188 0.03700
C 	C 	0.62997 0.86706 0.99220 0.01800
C 	C 	0.59555 0.83687 0.03881 -0.02900
C 	C 	0.63501 0.85612 0.03423 -0.05500
C 	C 	0.79240 0.93876 0.97304 0.03600
C 	C 	0.78973 0.94943 0.93153 -0.07200
C 	C 	0.82680 0.95838 0.92377 0.02100
C 	C 	0.86689 0.95673 0.95746 -0.09600
C 	C 	0.87090 0.94919 0.00081 0.01800
C 	C 	0.83374 0.94008 0.00842 -0.07200
H 	H 	0.82368 0.96516 0.89079 0.02700
H 	H 	0.90177 0.94825 0.02743 0.04500
H 	H 	0.83627 0.93222 0.04078 0.06700
H 	H 	0.75834 0.94940 0.90453 0.04300
H 	H 	0.66936 0.86226 0.06314 0.04200
H 	H 	0.59988 0.82884 0.07155 0.03300
H 	H 	0.62987 0.81402 0.91025 0.04000
H 	H 	0.79170 0.99411 0.05345 0.03800
C 	C 	0.75959 0.14525 0.39399 -0.04200
C 	C 	0.71615 0.12138 0.34355 0.00700
C 	C 	0.70951 0.08756 0.29836 -0.04200
H 	H 	0.67602 0.06859 0.25925 0.04000
C 	C 	0.74624 0.07830 0.30359 -0.03600
C 	C 	0.78936 0.10159 0.35416 -0.00100
C 	C 	0.79553 0.13465 0.39931 -0.03600
H 	H 	0.82817 0.15201 0.43860 0.03800
C 	C 	0.82731 0.08986 0.36024 0.02800
C 	C 	0.87779 0.13384 0.39423 -0.07200
C 	C 	0.91406 0.12185 0.40972 0.02400
C 	C 	0.90023 0.06590 0.39000 -0.11400
C 	C 	0.85010 0.02239 0.35111 0.03300
C 	C 	0.81367 0.03415 0.33709 -0.06200
C 	C 	0.67845 0.13333 0.33822 0.00800
C 	C 	0.66204 0.15458 0.30408 -0.04200
C 	C 	0.63287 0.17454 0.30546 -0.03500
C 	C 	0.62128 0.17527 0.34229 -0.00400
C 	C 	0.63512 0.15083 0.37406 -0.03500
C 	C 	0.66275 0.12903 0.37129 -0.04200
H 	H 	0.62106 0.19165 0.27953 0.03700
H 	H 	0.62617 0.15073 0.40239 0.03600
H 	H 	0.67386 0.11107 0.39660 0.03900
H 	H 	0.67346 0.15765 0.27798 0.03900
H 	H 	0.88883 0.17716 0.41074 0.04500
H 	H 	0.95280 0.15590 0.43867 0.02000
H 	H 	0.77490 0.99981 0.31026 0.03500
H 	H 	0.83913 0.97919 0.33399 0.01200
H 	H 	0.74113 0.05293 0.26843 0.03800
H 	H 	0.76554 0.17215 0.42909 0.03900
C 	C 	0.69053 0.54394 0.38311 -0.04300
C 	C 	0.71081 0.51536 0.40315 0.00600
C 	C 	0.76158 0.53814 0.42778 -0.04200
H 	H 	0.77754 0.51629 0.44323 0.03900
C 	C 	0.79155 0.58828 0.43104 -0.03700
C 	C 	0.77099 0.61605 0.40971 -0.00300
C 	C 	0.72050 0.59410 0.38641 -0.03800
H 	H 	0.70440 0.61553 0.37026 0.03600
C 	C 	0.80178 0.66670 0.40972 0.02800
C 	C 	0.84248 0.71571 0.45783 -0.06700
C 	C 	0.87136 0.76386 0.45774 0.01800
C 	C 	0.85972 0.76343 0.40949 -0.09300
C 	C 	0.81934 0.71407 0.36138 0.01900
C 	C 	0.79056 0.66597 0.36152 -0.06900
C 	C 	0.67837 0.45977 0.39509 0.00700
C 	C 	0.68603 0.45143 0.43891 -0.04300
C 	C 	0.65913 0.39735 0.43132 -0.03600
C 	C 	0.62447 0.35128 0.37989 -0.00500
C 	C 	0.61522 0.36000 0.33600 -0.03600
C 	C 	0.64205 0.41402 0.34356 -0.04300
H 	H 	0.66644 0.39097 0.46542 0.03700
H 	H 	0.58843 0.32465 0.29615 0.03700
H 	H 	0.63577 0.42007 0.30948 0.03800
H 	H 	0.71368 0.48658 0.47882 0.03700
H 	H 	0.85142 0.71665 0.49524 0.04500
H 	H 	0.90212 0.80178 0.49513 0.04200
H 	H 	0.75953 0.62811 0.32419 0.04500
H 	H 	0.81024 0.71295 0.32388 0.02900
H 	H 	0.83048 0.60491 0.44912 0.03900
H 	H 	0.65143 0.52682 0.36429 0.03700
C 	C 	0.77335 0.15489 0.84480 -0.04200
C 	C 	0.73674 0.12200 0.84984 0.00800
C 	C 	0.73468 0.07618 0.85734 -0.04200
H 	H 	0.70622 0.05013 0.86066 0.04100
C 	C 	0.77079 0.06554 0.86311 -0.03400
C 	C 	0.80911 0.10055 0.86125 -0.00400
C 	C 	0.80934 0.14415 0.85042 -0.03600
H 	H 	0.83853 0.17105 0.84843 0.03600
C 	C 	0.85197 0.09600 0.87716 0.03200
C 	C 	0.89821 0.13866 0.92500 -0.07300
C 	C 	0.93737 0.13144 0.94377 0.02500
C 	C 	0.93059 0.08135 0.91500 -0.11200
C 	C 	0.88521 0.04018 0.86540 0.02600
C 	C 	0.84595 0.04735 0.84676 -0.07600
C 	C 	0.70442 0.13943 0.85331 0.00800
C 	C 	0.70804 0.15640 0.90061 -0.04200
C 	C 	0.68304 0.18072 0.90699 -0.03500
C 	C 	0.65427 0.18839 0.86619 -0.00400
C 	C 	0.64863 0.16888 0.81790 -0.03500
C 	C 	0.67359 0.14444 0.81147 -0.04200
H 	H 	0.68752 0.19555 0.94436 0.03900
H 	H 	0.62609 0.17414 0.78599 0.03800
H 	H 	0.67014 0.13094 0.77461 0.04000
H 	H 	0.73172 0.15269 0.93314 0.04100
H 	H 	0.90330 0.17660 0.94850 0.04700
H 	H 	0.97250 0.16403 0.98152 0.02600
H 	H 	0.81047 0.01442 0.80951 0.04600
H 	H 	0.87957 0.00155 0.84247 0.01400
H 	H 	0.77020 0.03161 0.87125 0.03900
H 	H 	0.77514 0.19022 0.83878 0.03900
C 	C 	0.80046 0.57543 0.89073 -0.03600
C 	C 	0.80047 0.62290 0.91205 0.00000
C 	C 	0.77099 0.61974 0.93049 -0.03400
H 	H 	0.77069 0.65615 0.94691 0.05100
C 	C 	0.74137 0.56930 0.92716 -0.03900
C 	C 	0.74104 0.52170 0.90538 0.00700
C 	C 	0.77091 0.52508 0.88744 -0.04100
H 	H 	0.77124 0.48869 0.87101 0.03900
C 	C 	0.70957 0.46830 0.90139 0.00900
C 	C 	0.71899 0.46450 0.94755 -0.04200
C 	C 	0.69307 0.41240 0.94399 -0.03400
C 	C 	0.65764 0.36375 0.89427 -0.00400
C 	C 	0.64655 0.36800 0.84801 -0.03500
C 	C 	0.67235 0.42007 0.85154 -0.04300
C 	C 	0.83051 0.67548 0.91394 0.03400
C 	C 	0.87004 0.72401 0.96293 -0.06500
C 	C 	0.89899 0.77357 0.96465 0.04200
C 	C 	0.88857 0.77505 0.91734 -0.10200
C 	C 	0.84895 0.72642 0.86834 0.02500
C 	C 	0.82010 0.67690 0.86667 -0.07200
H 	H 	0.92909 0.81096 0.00270 0.04700
H 	H 	0.84063 0.72691 0.83156 0.02400
H 	H 	0.78961 0.63963 0.82866 0.04600
H 	H 	0.87838 0.72329 0.99964 0.07600
H 	H 	0.74749 0.50154 0.98621 0.04300
H 	H 	0.70182 0.40951 0.97991 0.03900
H 	H 	0.66438 0.42271 0.81565 0.03900
H 	H 	0.61905 0.33068 0.80944 0.03800
H 	H 	0.71846 0.56711 0.94113 0.04300
H 	H 	0.82331 0.57758 0.87667 0.03800
H 	H 	0.59959 0.27808 0.99652 0.04000
