data_crystal

_cell_length_a 23.83291
_cell_length_b 25.01973
_cell_length_c 38.09105
_cell_angle_alpha 60.94022
_cell_angle_beta  118.77014
_cell_angle_gamma 133.23384

_symmetry_space_group_name_	'P 1'
_symmetry_space_group_name_H-M	'P 1'

loop_
_symmetry_equiv_pos_as_xyz
  x,y,z

loop_
_atom_site_label
_atom_site_type_symbol
_atom_site_fract_x
_atom_site_fract_y
_atom_site_fract_z
_atom_site_charge
C 	C 	0.71279 0.31401 0.99052 0.11000
N 	N 	0.63925 0.26447 0.99802 -0.14300
C 	C 	0.60839 0.28905 0.00332 0.11500
N 	N 	0.65062 0.36347 0.00036 -0.13900
C 	C 	0.72529 0.41279 0.99483 0.10900
N 	N 	0.75635 0.38830 0.98949 -0.13900
C 	C 	0.71292 0.31242 0.49027 0.11100
N 	N 	0.64058 0.26169 0.49933 -0.14200
C 	C 	0.61180 0.28421 0.50823 0.11400
N 	N 	0.65468 0.35793 0.50713 -0.13900
C 	C 	0.72731 0.40883 0.49881 0.11400
N 	N 	0.75652 0.38624 0.49019 -0.13800
C 	C 	0.26709 0.63110 0.20578 0.11400
N 	N 	0.33573 0.68506 0.19278 -0.13800
C 	C 	0.36342 0.66648 0.17999 0.11700
N 	N 	0.32184 0.59372 0.17976 -0.13900
C 	C 	0.25268 0.53937 0.19199 0.11400
N 	N 	0.22514 0.55779 0.20533 -0.13900
C 	C 	0.26696 0.62895 0.70766 0.11400
N 	N 	0.33587 0.68231 0.69492 -0.13900
C 	C 	0.36291 0.66306 0.68215 0.11700
N 	N 	0.32046 0.59024 0.68171 -0.13900
C 	C 	0.25100 0.53652 0.69363 0.11400
N 	N 	0.22407 0.55559 0.70694 -0.13900
Co	Co	0.08408 0.02694 0.06792 1.16600
Co	Co	0.92742 0.92259 0.14619 1.19800
Co	Co	0.02616 0.07956 0.10043 1.17400
Co	Co	0.98325 0.86945 0.11296 1.18800
C 	C 	0.23481 0.04019 0.09550 0.24000
Co	Co	0.09304 0.90230 0.06740 1.17000
Co	Co	0.92534 0.04413 0.15392 1.15300
C 	C 	0.92081 0.78210 0.05227 0.29000
O 	O 	0.95451 0.14376 0.10798 -0.40800
O 	O 	0.95809 0.01241 0.12936 -0.78800
C 	C 	0.94200 0.15029 0.06901 0.30000
O 	O 	0.09453 0.11627 0.06539 -0.47700
O 	O 	0.91716 0.83329 0.14906 -0.46500
C 	C 	0.77471 0.90613 0.12718 0.29200
O 	O 	0.98302 0.97005 0.09460 -0.55600
C 	C 	0.09782 0.15828 0.16689 0.29300
C 	C 	0.08129 0.01593 0.99154 0.25100
C 	C 	0.07376 0.80458 0.15293 0.30100
O 	O 	0.96296 0.12407 0.05839 -0.39000
O 	O 	0.12761 0.99488 0.01709 -0.35500
O 	O 	0.05776 0.03607 0.00505 -0.38900
O 	O 	0.81470 0.98021 0.11868 -0.36900
O 	O 	0.80721 0.87373 0.13402 -0.37300
O 	O 	0.04093 0.10325 0.18675 -0.41100
O 	O 	0.11300 0.14406 0.14430 -0.39800
O 	O 	0.06291 0.80593 0.11546 -0.40700
O 	O 	0.05964 0.84199 0.15873 -0.39300
O 	O 	0.04718 0.93501 0.08196 -0.74300
C 	C 	0.94846 0.93387 0.22625 0.31700
O 	O 	0.89753 0.95019 0.20385 -0.39500
O 	O 	0.97868 0.92815 0.20797 -0.38300
O 	O 	0.20072 0.96750 0.10401 -0.34800
O 	O 	0.20104 0.06395 0.09741 -0.39600
O 	O 	0.97924 0.84023 0.03347 -0.38600
O 	O 	0.90343 0.79007 0.07715 -0.37800
Co	Co	0.08395 0.02634 0.56840 1.16600
Co	Co	0.92593 0.92025 0.64625 1.19800
Co	Co	0.02376 0.07730 0.60037 1.17400
Co	Co	0.98484 0.86888 0.61383 1.18800
C 	C 	0.23627 0.04285 0.59632 0.23900
Co	Co	0.09673 0.90362 0.56872 1.17000
Co	Co	0.92123 0.04082 0.65313 1.15300
C 	C 	0.92494 0.78111 0.55420 0.28900
O 	O 	0.94961 0.14014 0.60697 -0.40800
O 	O 	0.95556 0.00976 0.62915 -0.78800
C 	C 	0.93836 0.14705 0.56811 0.30000
O 	O 	0.09281 0.11493 0.56548 -0.47900
O 	O 	0.91779 0.83182 0.64967 -0.46500
C 	C 	0.77207 0.90186 0.62699 0.29200
O 	O 	0.98217 0.96822 0.59484 -0.55600
C 	C 	0.09360 0.15620 0.66638 0.29300
C 	C 	0.08281 0.01560 0.49239 0.25400
C 	C 	0.07787 0.80638 0.65450 0.30100
O 	O 	0.95955 0.12049 0.55796 -0.39200
O 	O 	0.13001 0.99561 0.51804 -0.35600
O 	O 	0.05879 0.03563 0.50563 -0.39200
O 	O 	0.81117 0.97588 0.61792 -0.36900
O 	O 	0.80527 0.87013 0.63384 -0.37300
O 	O 	0.03648 0.10100 0.68608 -0.41100
O 	O 	0.10963 0.14221 0.64411 -0.39800
O 	O 	0.06829 0.80800 0.61722 -0.40700
O 	O 	0.06247 0.84322 0.65984 -0.39300
O 	O 	0.04850 0.93483 0.58269 -0.74300
C 	C 	0.94575 0.93183 0.72591 0.31700
O 	O 	0.89413 0.94725 0.70328 -0.39500
O 	O 	0.97671 0.92643 0.70793 -0.38300
O 	O 	0.20431 0.97067 0.60476 -0.34800
O 	O 	0.20054 0.06390 0.59888 -0.39800
O 	O 	0.98303 0.83945 0.53518 -0.38600
O 	O 	0.90634 0.78927 0.57834 -0.37900
C 	C 	0.88147 0.84586 0.85548 -0.02900
C 	C 	0.89508 0.86429 0.88949 -0.03700
C 	C 	0.96551 0.93218 0.90017 -0.00200
C 	C 	0.02293 0.98154 0.87666 0.02700
C 	C 	0.00921 0.96292 0.84237 0.06600
C 	C 	0.93794 0.89520 0.83156 -0.01500
C 	C 	0.06614 0.01273 0.81851 -0.12700
C 	C 	0.13693 0.08026 0.82946 -0.00100
C 	C 	0.15106 0.09819 0.86384 -0.05300
C 	C 	0.09439 0.04905 0.88763 -0.03400
C 	C 	0.10961 0.06524 0.92317 -0.00200
C 	C 	0.05404 0.01434 0.94784 -0.12000
C 	C 	0.98051 0.94986 0.93503 0.04000
C 	C 	0.92230 0.87934 0.79582 0.01400
C 	C 	0.97616 0.93168 0.77012 -0.11100
C 	C 	0.05001 0.99606 0.78291 0.12600
H 	H 	0.82664 0.79346 0.84758 0.03900
H 	H 	0.85093 0.82550 0.90761 0.04200
H 	H 	0.18093 0.11921 0.81123 0.02500
H 	H 	0.20616 0.15029 0.87194 0.04000
H 	H 	0.16641 0.11491 0.93302 0.03300
H 	H 	0.93732 0.91090 0.95378 0.04000
H 	H 	0.86568 0.82927 0.78626 0.03400
H 	H 	0.09227 0.03586 0.76357 -0.01500
C 	C 	0.15291 0.09897 0.36454 -0.05200
C 	C 	0.13910 0.08141 0.33009 -0.00100
C 	C 	0.06866 0.01372 0.31915 -0.12800
C 	C 	0.01181 0.96334 0.34310 0.06700
C 	C 	0.02526 0.98152 0.37750 0.02800
C 	C 	0.09632 0.04926 0.38843 -0.03500
C 	C 	0.96796 0.93154 0.40114 -0.00200
C 	C 	0.89791 0.86349 0.39047 -0.03700
C 	C 	0.88450 0.84556 0.35631 -0.02900
C 	C 	0.94085 0.89552 0.33226 -0.01500
C 	C 	0.92534 0.88018 0.29635 0.01400
C 	C 	0.97905 0.93310 0.27056 -0.11200
C 	C 	0.05273 0.99749 0.28343 0.12700
C 	C 	0.11121 0.06515 0.42400 -0.00100
C 	C 	0.05576 0.01370 0.44877 -0.12200
C 	C 	0.98269 0.94883 0.43610 0.04200
H 	H 	0.20769 0.15124 0.37260 0.04000
H 	H 	0.18302 0.12078 0.31179 0.02500
H 	H 	0.85388 0.82422 0.40869 0.04200
H 	H 	0.82992 0.79307 0.34839 0.03900
H 	H 	0.86888 0.83006 0.28674 0.03400
H 	H 	0.09496 0.03766 0.26406 -0.01500
H 	H 	0.16767 0.11513 0.43376 0.03200
H 	H 	0.93966 0.90936 0.45497 0.04000
C 	C 	0.13736 0.23453 0.66793 -0.08300
C 	C 	0.16157 0.29424 0.63285 0.01300
C 	C 	0.18354 0.36421 0.62983 -0.06700
C 	C 	0.18177 0.37543 0.66193 0.03200
C 	C 	0.16031 0.31666 0.69792 -0.00300
C 	C 	0.13984 0.24701 0.70114 -0.01300
C 	C 	0.15865 0.32800 0.73003 -0.04000
C 	C 	0.18143 0.39835 0.72712 -0.03000
C 	C 	0.20594 0.45798 0.69208 -0.00700
C 	C 	0.20273 0.44519 0.65880 -0.05400
H 	H 	0.15946 0.28532 0.60698 0.03000
H 	H 	0.20049 0.40920 0.60217 0.04600
H 	H 	0.12267 0.20153 0.72867 0.03700
H 	H 	0.14134 0.28292 0.75762 0.03600
H 	H 	0.18371 0.40751 0.75294 0.04200
H 	H 	0.22045 0.49084 0.63140 0.04900
C 	C 	0.43961 0.72056 0.67002 -0.00600
C 	C 	0.49555 0.78888 0.68240 -0.02600
C 	C 	0.57062 0.84009 0.67418 -0.03700
C 	C 	0.59115 0.82328 0.65398 0.00200
C 	C 	0.53473 0.75565 0.64055 0.03300
C 	C 	0.45877 0.70531 0.64793 -0.05200
C 	C 	0.55585 0.73819 0.62105 -0.06300
C 	C 	0.63310 0.78649 0.61600 0.01500
C 	C 	0.68956 0.85322 0.62980 -0.07300
C 	C 	0.66804 0.87210 0.64813 -0.00800
H 	H 	0.48157 0.80167 0.69920 0.04700
H 	H 	0.61337 0.89212 0.68433 0.04500
H 	H 	0.41523 0.65372 0.63726 0.05200
H 	H 	0.51288 0.68664 0.61043 0.04800
H 	H 	0.64907 0.77194 0.60144 0.03900
H 	H 	0.71185 0.92352 0.65900 0.03800
C 	C 	0.23852 0.65202 0.72104 -0.00700
C 	C 	0.29389 0.71698 0.73669 -0.02600
C 	C 	0.27002 0.75532 0.73603 -0.03900
C 	C 	0.19021 0.72791 0.72088 0.00500
C 	C 	0.13282 0.65631 0.71158 0.03000
C 	C 	0.15723 0.61864 0.71138 -0.05200
C 	C 	0.05256 0.62743 0.69848 -0.06100
C 	C 	0.03113 0.67405 0.68846 0.00700
C 	C 	0.08999 0.75080 0.68912 -0.07500
C 	C 	0.16798 0.77443 0.71038 -0.01300
H 	H 	0.35628 0.74067 0.74673 0.04500
H 	H 	0.31419 0.80832 0.74527 0.04700
H 	H 	0.11378 0.56696 0.70082 0.05000
H 	H 	0.00728 0.57091 0.69345 0.04400
H 	H 	0.96975 0.65362 0.67461 0.03400
H 	H 	0.21305 0.83231 0.71345 0.04600
C 	C 	0.14133 0.23680 0.16806 -0.08400
C 	C 	0.16524 0.29614 0.13281 0.01300
C 	C 	0.18708 0.36623 0.12949 -0.06700
C 	C 	0.18536 0.37789 0.16141 0.03200
C 	C 	0.16411 0.31946 0.19754 -0.00300
C 	C 	0.14390 0.24975 0.20110 -0.01300
C 	C 	0.16230 0.33117 0.22945 -0.04000
C 	C 	0.18457 0.40149 0.22615 -0.03000
C 	C 	0.20879 0.46078 0.19096 -0.00700
C 	C 	0.20600 0.44770 0.15794 -0.05400
H 	H 	0.16304 0.28686 0.10706 0.03000
H 	H 	0.20384 0.41094 0.10172 0.04600
H 	H 	0.12695 0.20457 0.22875 0.03700
H 	H 	0.14517 0.28636 0.25714 0.03600
H 	H 	0.18659 0.41090 0.25178 0.04200
H 	H 	0.22355 0.49309 0.13043 0.04900
C 	C 	0.44015 0.72457 0.16788 -0.00600
C 	C 	0.49579 0.79251 0.18063 -0.02600
C 	C 	0.57115 0.84399 0.17272 -0.03700
C 	C 	0.59225 0.82781 0.15247 0.00300
C 	C 	0.53603 0.76070 0.13855 0.03300
C 	C 	0.45978 0.71013 0.14560 -0.05200
C 	C 	0.55770 0.74385 0.11901 -0.06300
C 	C 	0.63534 0.79205 0.11454 0.01500
C 	C 	0.69168 0.85811 0.12898 -0.07200
C 	C 	0.66955 0.87661 0.14718 -0.00800
H 	H 	0.48141 0.80472 0.19754 0.04700
H 	H 	0.61370 0.89566 0.18321 0.04600
H 	H 	0.41643 0.65890 0.13460 0.05200
H 	H 	0.51487 0.69276 0.10796 0.04900
H 	H 	0.65176 0.77788 0.10002 0.03900
H 	H 	0.71321 0.92756 0.15848 0.03800
C 	C 	0.08669 0.74934 0.18736 -0.07500
C 	C 	0.02847 0.67257 0.18665 0.00700
C 	C 	0.05076 0.62664 0.19670 -0.06100
C 	C 	0.13123 0.65624 0.20978 0.03000
C 	C 	0.18798 0.72786 0.21904 0.00500
C 	C 	0.16490 0.77368 0.20855 -0.01300
C 	C 	0.26802 0.75602 0.23412 -0.03900
C 	C 	0.29271 0.71841 0.23477 -0.02600
C 	C 	0.23794 0.65342 0.21919 -0.00700
C 	C 	0.15647 0.61929 0.20960 -0.05200
H 	H 	0.96694 0.65162 0.17280 0.03500
H 	H 	0.00597 0.57009 0.19170 0.04400
H 	H 	0.20947 0.83158 0.21161 0.04700
H 	H 	0.31172 0.80903 0.24332 0.04700
H 	H 	0.35526 0.74269 0.24473 0.04600
H 	H 	0.11349 0.56758 0.19909 0.05000
C 	C 	0.91777 0.19869 0.53640 -0.08500
C 	C 	0.97079 0.27548 0.53683 0.02700
C 	C 	0.94274 0.31865 0.52148 -0.07100
C 	C 	0.86144 0.28545 0.50523 0.03600
C 	C 	0.80971 0.21142 0.49962 -0.00500
C 	C 	0.83860 0.16870 0.51471 -0.01000
C 	C 	0.72866 0.17870 0.48264 -0.03900
C 	C 	0.69793 0.21553 0.47563 -0.03200
C 	C 	0.74780 0.28511 0.48601 -0.00600
C 	C 	0.83027 0.32230 0.49812 -0.05600
H 	H 	0.03263 0.29979 0.55235 0.02300
H 	H 	0.98356 0.37640 0.52449 0.05100
H 	H 	0.79801 0.10995 0.51331 0.03100
H 	H 	0.68884 0.12322 0.47663 0.03300
H 	H 	0.63472 0.18816 0.46407 0.04000
H 	H 	0.86950 0.37722 0.50477 0.05300
C 	C 	0.87906 0.70557 0.54804 -0.07500
C 	C 	0.84511 0.64081 0.57958 0.01200
C 	C 	0.81300 0.57026 0.57718 -0.06500
C 	C 	0.81399 0.56340 0.54309 0.03200
C 	C 	0.84641 0.62787 0.51077 0.00100
C 	C 	0.87828 0.69868 0.51321 -0.01400
C 	C 	0.84658 0.62058 0.47648 -0.03900
C 	C 	0.81233 0.54930 0.47374 -0.02800
C 	C 	0.77798 0.48490 0.50527 -0.00700
C 	C 	0.78146 0.49261 0.54054 -0.05200
H 	H 	0.84610 0.64551 0.60672 0.03500
H 	H 	0.78794 0.52101 0.60205 0.04600
H 	H 	0.90352 0.74838 0.48850 0.04300
H 	H 	0.87179 0.66975 0.45161 0.04100
H 	H 	0.80985 0.54381 0.44642 0.04300
H 	H 	0.75595 0.44291 0.56521 0.05000
C 	C 	0.53953 0.22782 0.52432 -0.00900
C 	C 	0.51935 0.15493 0.54728 -0.03100
C 	C 	0.45822 0.10543 0.56781 -0.04400
C 	C 	0.41653 0.12818 0.56567 -0.00100
C 	C 	0.43533 0.20070 0.54194 0.02900
C 	C 	0.49594 0.24974 0.52089 -0.05400
C 	C 	0.39354 0.22337 0.53974 -0.06400
C 	C 	0.33171 0.17349 0.55982 0.00400
C 	C 	0.31100 0.10033 0.58243 -0.07100
C 	C 	0.35547 0.07889 0.58642 -0.02400
H 	H 	0.55259 0.13739 0.55029 0.03800
H 	H 	0.44386 0.04968 0.58573 0.03000
H 	H 	0.51029 0.30542 0.50256 0.05100
H 	H 	0.40804 0.27920 0.52193 0.04600
H 	H 	0.29810 0.19085 0.55654 0.03400
H 	H 	0.34094 0.02311 0.60459 0.02900
C 	C 	0.74797 0.28527 0.98793 -0.00400
C 	C 	0.69830 0.21504 0.97831 -0.03200
C 	C 	0.72946 0.17849 0.98550 -0.04200
C 	C 	0.81076 0.21207 0.00193 -0.00300
C 	C 	0.86213 0.28631 0.00716 0.03900
C 	C 	0.83052 0.32285 0.99997 -0.06200
C 	C 	0.94367 0.32037 0.02281 -0.07200
C 	C 	0.97251 0.27799 0.03777 0.02800
C 	C 	0.92007 0.20112 0.03758 -0.08500
C 	C 	0.84041 0.17013 0.01663 -0.01100
H 	H 	0.63500 0.18723 0.96691 0.03900
H 	H 	0.68986 0.12272 0.97989 0.03300
H 	H 	0.86956 0.37808 0.00619 0.05600
H 	H 	0.98416 0.37824 0.02557 0.05100
H 	H 	0.03464 0.30303 0.05279 0.02300
H 	H 	0.80019 0.11129 0.01547 0.03200
C 	C 	0.77593 0.48832 0.00191 -0.00200
C 	C 	0.81127 0.55327 0.97083 -0.03100
C 	C 	0.84467 0.62411 0.97378 -0.04000
C 	C 	0.84272 0.63038 0.00786 0.00200
C 	C 	0.80935 0.56535 0.03976 0.03200
C 	C 	0.77756 0.49499 0.03698 -0.05400
C 	C 	0.80680 0.57127 0.07367 -0.06500
C 	C 	0.83872 0.64152 0.07642 0.01200
C 	C 	0.87382 0.70686 0.04536 -0.07600
C 	C 	0.87399 0.70077 0.01055 -0.01100
H 	H 	0.81011 0.54854 0.94365 0.04400
H 	H 	0.87064 0.67373 0.94924 0.04100
H 	H 	0.75098 0.44478 0.06122 0.04800
H 	H 	0.78088 0.52156 0.09819 0.04600
H 	H 	0.83883 0.64555 0.10353 0.03600
H 	H 	0.89995 0.75088 0.98615 0.04100
C 	C 	0.30962 0.09509 0.08213 -0.07400
C 	C 	0.36685 0.16566 0.09194 0.00700
C 	C 	0.43733 0.21772 0.07863 -0.06500
C 	C 	0.45078 0.19995 0.05497 0.02900
C 	C 	0.39295 0.12930 0.04470 -0.00200
C 	C 	0.32299 0.07704 0.05860 -0.01700
C 	C 	0.40572 0.11192 0.02052 -0.04300
C 	C 	0.47563 0.16418 0.00676 -0.02800
C 	C 	0.53385 0.23425 0.01723 -0.01000
C 	C 	0.52121 0.25188 0.04147 -0.05300
H 	H 	0.35709 0.17996 0.11015 0.03600
H 	H 	0.48130 0.27187 0.08662 0.04600
H 	H 	0.27851 0.02273 0.05071 0.01700
H 	H 	0.36140 0.05799 0.01227 0.03100
H 	H 	0.48435 0.15029 0.98778 0.03600
H 	H 	0.56637 0.30552 0.05010 0.05000
