data_crystal

_cell_length_a 33.61604
_cell_length_b 34.04517
_cell_length_c 26.50254
_cell_angle_alpha 95.52516
_cell_angle_beta  95.51801
_cell_angle_gamma 125.44105

_symmetry_space_group_name_	'P 1'
_symmetry_space_group_name_H-M	'P 1'

loop_
_symmetry_equiv_pos_as_xyz
  x,y,z

loop_
_atom_site_label
_atom_site_type_symbol
_atom_site_fract_x
_atom_site_fract_y
_atom_site_fract_z
_atom_site_charge
C 	C 	0.02225 0.00260 0.44346 0.11500
C 	C 	0.88640 0.00966 0.46201 -0.02100
C 	C 	0.92164 0.01823 0.43145 -0.02300
N 	N 	0.03110 0.05380 0.98353 -0.14100
C 	C 	0.05159 0.02930 0.97887 0.11800
N 	N 	0.02425 0.98093 0.98165 -0.14300
C 	C 	0.48903 0.24151 0.43789 -0.08900
C 	C 	0.46290 0.25797 0.41527 0.01300
C 	C 	0.41191 0.23226 0.41437 -0.06700
C 	C 	0.38648 0.18997 0.43622 0.02600
C 	C 	0.41235 0.17327 0.45852 -0.06700
C 	C 	0.46331 0.19877 0.45921 0.01300
C 	C 	0.33283 0.16342 0.43615 -0.00200
C 	C 	0.31528 0.18730 0.46104 -0.03700
C 	C 	0.26454 0.16196 0.46155 -0.04100
C 	C 	0.23100 0.11252 0.43739 0.00500
C 	C 	0.24845 0.08873 0.41221 -0.04100
C 	C 	0.29915 0.11410 0.41149 -0.03800
C 	C 	0.17785 0.08525 0.43977 0.01300
C 	C 	0.14817 0.09497 0.41111 -0.04900
C 	C 	0.09747 0.06834 0.41260 -0.02000
C 	C 	0.07607 0.03185 0.44297 -0.02200
C 	C 	0.10610 0.02269 0.47217 -0.02000
C 	C 	0.15668 0.04918 0.47043 -0.05000
H 	H 	0.48210 0.29090 0.39882 0.03200
H 	H 	0.39217 0.24526 0.39680 0.04500
H 	H 	0.39302 0.14067 0.47554 0.04400
H 	H 	0.48272 0.18526 0.47627 0.03200
H 	H 	0.34100 0.22531 0.48033 0.03800
H 	H 	0.25136 0.18055 0.48118 0.03900
H 	H 	0.22274 0.05057 0.39336 0.03900
H 	H 	0.31228 0.09546 0.39185 0.03600
H 	H 	0.16428 0.12279 0.38732 0.04100
H 	H 	0.07477 0.07561 0.38961 0.03900
H 	H 	0.09030 0.99516 0.49632 0.03800
H 	H 	0.17946 0.04172 0.49295 0.04100
H 	H 	0.00808 0.90901 0.03380 0.03800
H 	H 	0.02235 0.11814 0.04987 0.03800
C 	C 	0.48646 0.24479 0.93219 0.01200
C 	C 	0.43578 0.22272 0.92951 -0.06700
C 	C 	0.40701 0.18204 0.95295 0.02600
C 	C 	0.42887 0.16227 0.97713 -0.07000
C 	C 	0.47963 0.18453 0.98021 0.02100
C 	C 	0.35476 0.16184 0.95465 0.00400
C 	C 	0.33957 0.16082 0.00233 -0.04300
C 	C 	0.29014 0.14167 0.00407 -0.04800
C 	C 	0.25549 0.12373 0.95814 0.01200
C 	C 	0.27084 0.12544 0.91045 -0.04300
C 	C 	0.32022 0.14424 0.90871 -0.03800
C 	C 	0.20269 0.10085 0.96000 0.01000
C 	C 	0.18902 0.12740 0.98731 -0.04300
C 	C 	0.13948 0.10448 0.99244 -0.01500
C 	C 	0.10313 0.05482 0.97010 -0.02300
C 	C 	0.11665 0.02883 0.94129 -0.02000
C 	C 	0.16617 0.05166 0.93649 -0.04800
H 	H 	0.41917 0.23800 0.91035 0.04500
H 	H 	0.40675 0.13032 0.99455 0.04700
H 	H 	0.36606 0.17481 0.03802 0.03700
H 	H 	0.27862 0.14024 0.04106 0.03900
H 	H 	0.24443 0.11184 0.87478 0.03900
H 	H 	0.33158 0.14491 0.87171 0.03700
H 	H 	0.21688 0.16554 0.00521 0.03500
H 	H 	0.12963 0.12500 0.01476 0.03300
H 	H 	0.08888 0.99077 0.92306 0.04000
H 	H 	0.17632 0.03086 0.91529 0.04100
H 	H 	0.49628 0.16978 0.00046 0.02800
H 	H 	0.89354 0.99973 0.93963 0.04000
C 	C 	0.98326 0.02981 0.99043 0.11700
C 	C 	0.97650 0.95684 0.98853 0.11800
N 	N 	0.95599 0.98130 0.99274 -0.14000
C 	C 	0.94815 0.99599 0.43815 0.11700
N 	N 	0.99753 0.02272 0.43702 -0.14000
N 	N 	0.99741 0.95557 0.45092 -0.14100
C 	C 	0.94816 0.92874 0.45248 0.11800
N 	N 	0.92352 0.94900 0.44606 -0.14100
Cu	Cu	0.65827 0.26734 0.99162 0.92800
Cu	Cu	0.69995 0.27191 0.88344 0.87000
Cu	Cu	0.68501 0.34569 0.92602 0.89700
Cu	Cu	0.65266 0.35469 0.02538 0.89100
C 	C 	0.66834 0.30170 0.09884 0.29200
O 	O 	0.58469 0.23522 0.98832 -0.36500
C 	C 	0.67083 0.31320 0.81356 0.29200
O 	O 	0.69538 0.34340 0.99766 -0.63400
O 	O 	0.65295 0.27368 0.91820 -0.64100
O 	O 	0.69184 0.23455 0.98966 -0.37200
O 	O 	0.74621 0.28631 0.94220 -0.44100
O 	O 	0.64408 0.31963 0.08438 -0.38900
O 	O 	0.71968 0.41608 0.93875 -0.38400
C 	C 	0.71284 0.44094 0.97385 0.29700
C 	C 	0.56377 0.25457 0.96866 0.28400
O 	O 	0.59173 0.30063 0.96329 -0.39300
O 	O 	0.67888 0.41865 0.00301 -0.40300
O 	O 	0.67333 0.27435 0.06502 -0.36800
C 	C 	0.73374 0.25417 0.97250 0.29000
O 	O 	0.68685 0.34966 0.85223 -0.38900
O 	O 	0.66877 0.27439 0.82106 -0.42100
H 	H 	0.73056 0.36549 0.01552 0.15700
H 	H 	0.61875 0.25301 0.89771 0.17000
Cu	Cu	0.72267 0.33251 0.42481 0.92700
Cu	Cu	0.71840 0.28996 0.53174 0.86900
Cu	Cu	0.64128 0.30118 0.48873 0.89600
Cu	Cu	0.63070 0.33240 0.38942 0.89300
C 	C 	0.68822 0.32196 0.31736 0.29200
O 	O 	0.75169 0.40454 0.42893 -0.36700
C 	C 	0.67356 0.31516 0.60125 0.29200
O 	O 	0.64504 0.29228 0.41736 -0.64100
O 	O 	0.71476 0.33579 0.49775 -0.64200
O 	O 	0.75887 0.30238 0.42741 -0.37500
O 	O 	0.70643 0.24582 0.47261 -0.44300
O 	O 	0.66786 0.34381 0.33139 -0.38700
O 	O 	0.56963 0.26401 0.47505 -0.38400
C 	C 	0.54319 0.26919 0.43972 0.28900
C 	C 	0.72965 0.42274 0.44809 0.28200
O 	O 	0.68284 0.39296 0.45238 -0.39500
O 	O 	0.56451 0.30247 0.41001 -0.39700
O 	O 	0.71726 0.31896 0.35155 -0.36400
C 	C 	0.73944 0.26014 0.44255 0.28900
O 	O 	0.63663 0.29848 0.56225 -0.38900
O 	O 	0.71367 0.31850 0.59432 -0.42100
H 	H 	0.62422 0.25762 0.39930 0.16200
H 	H 	0.73434 0.36928 0.51877 0.17000
C 	C 	0.70288 0.36180 0.74441 -0.04600
C 	C 	0.66396 0.32003 0.76012 -0.09600
C 	C 	0.62246 0.28174 0.72279 0.10400
C 	C 	0.62422 0.28247 0.67012 -0.04600
C 	C 	0.66601 0.32160 0.65447 -0.09700
C 	C 	0.70383 0.36328 0.69173 0.10400
N 	N 	0.74081 0.40475 0.67717 -0.19900
H 	H 	0.73356 0.39232 0.77312 0.04700
H 	H 	0.59398 0.25156 0.64142 0.04700
N 	N 	0.58088 0.24452 0.73726 -0.19900
H 	H 	0.76970 0.43473 0.70486 0.08000
H 	H 	0.74001 0.40842 0.63848 0.08400
H 	H 	0.57684 0.24534 0.77585 0.08400
H 	H 	0.55111 0.21535 0.70956 0.08000
C 	C 	0.72125 0.34345 0.18544 -0.04800
C 	C 	0.67828 0.30156 0.15407 -0.09300
C 	C 	0.64208 0.26313 0.17690 0.11000
C 	C 	0.64801 0.26906 0.23092 -0.04800
C 	C 	0.68905 0.31264 0.26226 -0.09200
C 	C 	0.72701 0.34953 0.23946 0.11000
N 	N 	0.76851 0.39115 0.26906 -0.20000
H 	H 	0.74938 0.37237 0.16779 0.03600
H 	H 	0.61952 0.24045 0.24857 0.03600
N 	N 	0.60120 0.22095 0.14732 -0.20100
H 	H 	0.79583 0.41859 0.25182 0.08200
H 	H 	0.77451 0.39645 0.30928 0.10100
H 	H 	0.59609 0.21486 0.10711 0.10000
H 	H 	0.57420 0.19323 0.16457 0.08200
C 	C 	0.92168 0.87769 0.46093 -0.02200
C 	C 	0.94698 0.86423 0.49137 -0.02000
C 	C 	0.92400 0.81503 0.49474 -0.04900
C 	C 	0.87530 0.77875 0.46815 0.01300
C 	C 	0.84917 0.79235 0.43951 -0.04900
C 	C 	0.87227 0.84159 0.43583 -0.02000
C 	C 	0.85281 0.72638 0.46790 0.00500
C 	C 	0.83786 0.69417 0.42114 -0.04100
C 	C 	0.81949 0.64534 0.42105 -0.03700
C 	C 	0.81627 0.62832 0.46776 -0.00200
C 	C 	0.83078 0.66039 0.51452 -0.03800
C 	C 	0.84878 0.70915 0.51458 -0.04100
C 	C 	0.79714 0.57675 0.46758 0.02600
C 	C 	0.82000 0.55779 0.44451 -0.06700
C 	C 	0.79925 0.50791 0.44008 0.01200
C 	C 	0.75543 0.47647 0.45885 -0.09100
C 	C 	0.73411 0.49610 0.48433 0.01000
C 	C 	0.75469 0.54589 0.48836 -0.06700
H 	H 	0.98477 0.89179 0.51173 0.03900
H 	H 	0.94445 0.80497 0.51707 0.04100
H 	H 	0.81134 0.76467 0.41930 0.04100
H 	H 	0.85225 0.85140 0.41230 0.04000
H 	H 	0.84111 0.70715 0.38493 0.03900
H 	H 	0.80788 0.62075 0.38472 0.03700
H 	H 	0.82839 0.64762 0.55078 0.03700
H 	H 	0.86003 0.73365 0.55087 0.03900
H 	H 	0.85329 0.58151 0.42913 0.04500
H 	H 	0.81651 0.49357 0.42083 0.03400
H 	H 	0.70097 0.47263 0.50002 0.03100
H 	H 	0.73697 0.56024 0.50659 0.04500
C 	C 	0.75806 0.23103 0.43009 -0.09700
C 	C 	0.80817 0.25461 0.42615 0.01300
C 	C 	0.82733 0.22759 0.42123 -0.06900
C 	C 	0.79653 0.17679 0.41989 0.02700
C 	C 	0.74599 0.15289 0.42144 -0.07000
C 	C 	0.72683 0.17986 0.42652 0.01300
C 	C 	0.81783 0.14920 0.42039 -0.00300
C 	C 	0.80408 0.11313 0.37781 -0.03700
C 	C 	0.82322 0.08600 0.37903 -0.04200
C 	C 	0.85605 0.09462 0.42294 0.00500
C 	C 	0.86982 0.13072 0.46547 -0.04200
C 	C 	0.85083 0.15792 0.46419 -0.03700
C 	C 	0.87677 0.06652 0.42409 0.01300
C 	C 	0.91091 0.07406 0.39253 -0.04900
C 	C 	0.93329 0.05008 0.39620 -0.02000
C 	C 	0.86416 0.03380 0.45841 -0.04900
H 	H 	0.83267 0.29402 0.42871 0.03000
H 	H 	0.86633 0.24629 0.41963 0.04500
H 	H 	0.72186 0.11363 0.42009 0.04400
H 	H 	0.68794 0.16111 0.42870 0.02700
H 	H 	0.77858 0.10610 0.34387 0.03800
H 	H 	0.81244 0.05825 0.34599 0.03900
H 	H 	0.89534 0.13778 0.49941 0.03900
H 	H 	0.86145 0.18552 0.49734 0.03500
H 	H 	0.92076 0.09915 0.36582 0.04200
H 	H 	0.95995 0.05655 0.37196 0.03900
H 	H 	0.87715 0.98528 0.48942 0.03900
H 	H 	0.83766 0.02761 0.48277 0.04100
C 	C 	0.94688 0.90415 0.99065 -0.01700
C 	C 	0.89654 0.87251 0.96678 -0.02000
C 	C 	0.86937 0.82207 0.96608 -0.05000
C 	C 	0.89226 0.80287 0.98933 0.01800
C 	C 	0.94224 0.83454 0.01406 -0.05500
C 	C 	0.96944 0.88493 0.01475 -0.02400
C 	C 	0.86432 0.74951 0.98664 0.00900
C 	C 	0.85502 0.72996 0.03197 -0.04600
C 	C 	0.83015 0.67955 0.02960 -0.04400
C 	C 	0.81440 0.64832 0.98190 0.00600
C 	C 	0.82343 0.66783 0.93654 -0.03900
C 	C 	0.84829 0.71823 0.93890 -0.04100
C 	C 	0.78827 0.59520 0.97944 0.02400
C 	C 	0.74149 0.56702 0.99354 -0.06100
C 	C 	0.71681 0.51671 0.99160 0.02000
C 	C 	0.73874 0.49404 0.97555 -0.09100
C 	C 	0.78558 0.52233 0.96132 0.01500
C 	C 	0.81019 0.57267 0.96323 -0.06600
H 	H 	0.87874 0.88683 0.94788 0.03900
H 	H 	0.83070 0.79787 0.94711 0.04200
H 	H 	0.96017 0.82001 0.03219 0.04100
H 	H 	0.86722 0.75384 0.06898 0.03900
H 	H 	0.82334 0.66479 0.06482 0.03700
H 	H 	0.81118 0.64394 0.89952 0.03900
H 	H 	0.85549 0.73305 0.90373 0.03900
H 	H 	0.72419 0.58409 0.00582 0.04000
H 	H 	0.68049 0.49532 0.00216 0.02700
H 	H 	0.80312 0.50546 0.94927 0.03000
H 	H 	0.84643 0.59423 0.95247 0.04500
C 	C 	0.96062 0.05596 0.99423 -0.01300
C 	C 	0.91319 0.03483 0.96551 -0.02400
C 	C 	0.89123 0.05917 0.96967 -0.03900
C 	C 	0.91620 0.10465 0.00309 0.00400
C 	C 	0.96361 0.12575 0.03195 -0.04500
C 	C 	0.98585 0.10165 0.02728 -0.02800
C 	C 	0.89305 0.13054 0.00701 0.00300
C 	C 	0.91776 0.17824 0.99655 -0.03900
C 	C 	0.89412 0.20110 0.99586 -0.02700
C 	C 	0.84526 0.17620 0.00485 -0.01900
C 	C 	0.82119 0.12916 0.01705 -0.03200
C 	C 	0.84510 0.10658 0.01847 -0.04500
C 	C 	0.81800 0.19770 0.99742 0.04400
C 	C 	0.81306 0.21125 0.95015 -0.07600
C 	C 	0.78613 0.23026 0.94236 0.01700
C 	C 	0.76334 0.23546 0.98155 -0.09500
C 	C 	0.76828 0.22198 0.02890 0.01500
C 	C 	0.79572 0.20341 0.03689 -0.07800
H 	H 	0.85492 0.04284 0.94671 0.04000
H 	H 	0.98313 0.16071 0.05804 0.03900
H 	H 	0.95479 0.19714 0.98777 0.04000
H 	H 	0.91329 0.23767 0.98707 0.03500
H 	H 	0.78351 0.10961 0.02411 0.03500
H 	H 	0.82597 0.07005 0.02737 0.03800
H 	H 	0.82959 0.20649 0.91922 0.04500
H 	H 	0.78221 0.24010 0.90549 0.00800
H 	H 	0.75114 0.22612 0.05955 0.03600
H 	H 	0.79954 0.19334 0.07364 0.04900
C 	C 	0.50906 0.22677 0.95895 -0.09300
H 	H 	0.50834 0.27661 0.91453 0.03100
