data_crystal

_cell_length_a 28.45502
_cell_length_b 26.39348
_cell_length_c 31.15373
_cell_angle_alpha 103.77680
_cell_angle_beta  115.80291
_cell_angle_gamma 112.10576

_symmetry_space_group_name_	'P 1'
_symmetry_space_group_name_H-M	'P 1'

loop_
_symmetry_equiv_pos_as_xyz
  x,y,z

loop_
_atom_site_label
_atom_site_type_symbol
_atom_site_fract_x
_atom_site_fract_y
_atom_site_fract_z
_atom_site_charge
C 	C 	0.60813 0.27245 0.88645 0.04500
C 	C 	0.63726 0.24061 0.88301 -0.08500
C 	C 	0.68771 0.26603 0.87965 0.04500
C 	C 	0.70779 0.32236 0.87806 -0.08500
C 	C 	0.67902 0.35447 0.88180 0.04400
C 	C 	0.62881 0.32927 0.88555 -0.08600
H 	H 	0.62249 0.19760 0.88535 0.05100
H 	H 	0.74776 0.34273 0.87666 0.05100
H 	H 	0.60735 0.35475 0.88963 0.04900
C 	C 	0.51005 0.23256 0.33647 0.04300
C 	C 	0.53197 0.29064 0.33782 -0.08700
C 	C 	0.58299 0.31691 0.33525 0.04300
C 	C 	0.61138 0.28465 0.33045 -0.08600
C 	C 	0.59002 0.22701 0.32974 0.04400
C 	C 	0.53876 0.20055 0.33194 -0.08600
H 	H 	0.51081 0.31619 0.34273 0.04800
H 	H 	0.65190 0.30575 0.32991 0.05000
H 	H 	0.52305 0.15654 0.33258 0.05100
C 	C 	0.53737 0.79204 0.04147 0.04000
C 	C 	0.50620 0.82244 0.04160 -0.08800
C 	C 	0.45141 0.79397 0.03864 0.04300
C 	C 	0.42842 0.73564 0.03655 -0.08700
C 	C 	0.45914 0.70491 0.03606 0.04100
C 	C 	0.51385 0.73322 0.03877 -0.08800
H 	H 	0.52346 0.86718 0.04231 0.04600
H 	H 	0.38553 0.71326 0.03352 0.04800
H 	H 	0.53717 0.70906 0.03756 0.04500
C 	C 	0.43369 0.74569 0.48683 0.04300
C 	C 	0.40234 0.77567 0.48787 -0.08600
C 	C 	0.34776 0.74635 0.48506 0.04300
C 	C 	0.32507 0.68752 0.48202 -0.08600
C 	C 	0.35598 0.65726 0.48059 0.04300
C 	C 	0.41052 0.68643 0.48326 -0.08600
H 	H 	0.41940 0.82084 0.48936 0.04800
H 	H 	0.28234 0.66450 0.47914 0.04900
H 	H 	0.43409 0.66270 0.48149 0.04800
Zn	Zn	0.21325 0.14936 0.02427 1.18200
Zn	Zn	0.10589 0.10442 0.91114 1.19300
O 	O 	0.08200 0.99611 0.81651 -0.49200
O 	O 	0.06831 0.07714 0.83076 -0.44400
O 	O 	0.08996 0.92092 0.89293 -0.50500
C 	C 	0.26345 0.11274 0.97163 0.32700
O 	O 	0.04514 0.02055 0.89237 -0.87300
C 	C 	0.21746 0.23774 0.98153 0.33800
O 	O 	0.27806 0.14455 0.01974 -0.47100
O 	O 	0.20450 0.07434 0.93018 -0.36300
O 	O 	0.12948 0.11448 0.98633 -0.78100
O 	O 	0.14622 0.00330 0.97722 -0.44400
O 	O 	0.17299 0.18895 0.93237 -0.45900
O 	O 	0.23690 0.23135 0.02554 -0.47200
Zn	Zn	0.93433 0.92855 0.91900 1.17500
Zn	Zn	0.04068 0.95258 0.01556 1.18100
Zn	Zn	0.07066 0.03003 0.96352 1.21900
C 	C 	0.92298 0.82720 0.94969 0.33600
C 	C 	0.91157 0.97731 0.99255 0.34500
O 	O 	0.99652 0.06090 0.95077 -0.46600
Zn	Zn	0.06236 0.07576 0.06086 1.20000
O 	O 	0.98304 0.86373 0.99021 -0.45700
O 	O 	0.89507 0.84538 0.91642 -0.46900
O 	O 	0.89267 0.95983 0.94195 -0.48700
O 	O 	0.96697 0.99044 0.02859 -0.48500
C 	C 	0.07852 0.02225 0.13097 0.31400
O 	O 	0.01131 0.94588 0.94033 -0.81000
C 	C 	0.99882 0.10434 0.98467 0.35700
O 	O 	0.06963 0.97433 0.09503 -0.44700
O 	O 	0.09555 0.07536 0.12983 -0.47300
O 	O 	0.03040 0.12155 0.03662 -0.51500
O 	O 	0.09447 0.03845 0.03420 -0.89100
Zn	Zn	0.05896 0.96345 0.85992 1.18100
C 	C 	0.06568 0.03146 0.79902 0.30900
C 	C 	0.13565 0.95171 0.94486 0.31800
H 	H 	0.13942 0.05644 0.06072 0.16100
H 	H 	0.00142 0.00848 0.86923 0.14700
Zn	Zn	0.11738 0.10638 0.47512 1.18400
Zn	Zn	0.01128 0.05757 0.36007 1.19200
O 	O 	0.99755 0.94407 0.27730 -0.47300
O 	O 	0.98331 0.02440 0.28168 -0.43200
O 	O 	0.98322 0.86985 0.34995 -0.49500
C 	C 	0.16949 0.06731 0.42568 0.31500
O 	O 	0.94869 0.97535 0.34263 -0.87400
C 	C 	0.12168 0.19099 0.42890 0.32900
O 	O 	0.18353 0.10208 0.47268 -0.46300
O 	O 	0.11095 0.02400 0.38559 -0.34600
O 	O 	0.03344 0.07154 0.43560 -0.78400
O 	O 	0.04679 0.95886 0.43083 -0.46500
O 	O 	0.07992 0.14059 0.38049 -0.46300
O 	O 	0.14050 0.18693 0.47400 -0.46600
Zn	Zn	0.83769 0.89148 0.37517 1.17200
Zn	Zn	0.94427 0.91843 0.47193 1.18400
Zn	Zn	0.97340 0.98888 0.41487 1.21400
C 	C 	0.82687 0.79290 0.40906 0.33500
C 	C 	0.81616 0.94114 0.44948 0.33100
O 	O 	0.90045 0.02219 0.39950 -0.46200
Zn	Zn	0.96514 0.03944 0.51153 1.20400
O 	O 	0.88625 0.83131 0.45101 -0.46000
O 	O 	0.79865 0.80949 0.37432 -0.47000
O 	O 	0.79824 0.92509 0.39925 -0.49100
O 	O 	0.87242 0.95673 0.48650 -0.47700
C 	C 	0.00367 0.00140 0.59317 0.30700
O 	O 	0.91341 0.90657 0.39485 -0.80200
C 	C 	0.90029 0.06440 0.43218 0.33500
O 	O 	0.98035 0.94662 0.55368 -0.43500
O 	O 	0.00535 0.04797 0.58388 -0.47400
O 	O 	0.93102 0.08240 0.48431 -0.49300
O 	O 	0.99761 0.00161 0.48631 -0.87700
Zn	Zn	0.95913 0.91277 0.31297 1.18400
C 	C 	0.99459 0.98488 0.26066 0.30200
C 	C 	0.03203 0.90350 0.40080 0.32000
H 	H 	0.04260 0.01995 0.51310 0.15400
H 	H 	0.90545 0.96439 0.31919 0.14000
C 	C 	0.00143 0.96076 0.69157 -0.03500
H 	H 	0.97327 0.91539 0.68823 0.02300
C 	C 	0.04781 0.97547 0.67583 -0.02900
H 	H 	0.05766 0.94210 0.65864 0.02800
C 	C 	0.97477 0.99355 0.66284 -0.01500
H 	H 	0.92442 0.97491 0.63482 0.02800
C 	C 	0.02134 0.00835 0.64784 -0.05600
C 	C 	0.04995 0.02353 0.74454 -0.06900
C 	C 	0.02346 0.05635 0.71644 -0.00700
H 	H 	0.01352 0.08973 0.73343 0.03000
C 	C 	0.06990 0.07111 0.70085 -0.01800
H 	H 	0.09811 0.11655 0.70432 0.03000
C 	C 	0.09659 0.03833 0.72961 0.00100
H 	H 	0.14694 0.05700 0.75767 0.03000
C 	C 	0.98896 0.97034 0.14367 -0.03900
H 	H 	0.94914 0.94284 0.09994 0.04200
C 	C 	0.99765 0.02208 0.18819 0.04500
H 	H 	0.96464 0.03712 0.18156 0.02500
C 	C 	0.00764 0.94261 0.18193 -0.00600
H 	H 	0.98273 0.89232 0.17017 0.03000
C 	C 	0.01659 0.99453 0.22602 -0.12100
C 	C 	0.05812 0.01249 0.16665 -0.04700
C 	C 	0.07708 0.98490 0.20445 -0.04000
H 	H 	0.11004 0.96983 0.21096 0.03100
C 	C 	0.08572 0.03665 0.24907 0.02700
H 	H 	0.12509 0.06389 0.29293 0.02800
C 	C 	0.06704 0.06439 0.21079 -0.04200
H 	H 	0.09192 0.11473 0.22270 0.03800
C 	C 	0.16756 0.37428 0.40162 -0.07200
C 	C 	0.21278 0.36503 0.44470 0.01800
C 	C 	0.30206 0.44361 0.44746 -0.08400
C 	C 	0.27227 0.47886 0.45886 0.04500
C 	C 	0.20250 0.44115 0.40994 -0.08400
H 	H 	0.14705 0.33949 0.35992 0.03800
H 	H 	0.12815 0.36649 0.40473 0.03700
C 	C 	0.17951 0.30175 0.43726 0.02900
H 	H 	0.35216 0.46943 0.48204 0.04100
H 	H 	0.30022 0.44086 0.41049 0.04000
C 	C 	0.30482 0.54255 0.46686 -0.03300
H 	H 	0.19864 0.43829 0.37219 0.04000
H 	H 	0.17971 0.46522 0.41698 0.04000
C 	C 	0.27550 0.48139 0.51040 -0.08400
H 	H 	0.25427 0.50633 0.51958 0.04100
H 	H 	0.32508 0.50793 0.54624 0.04100
C 	C 	0.24057 0.41457 0.50209 -0.07200
H 	H 	0.27348 0.40922 0.53398 0.03900
H 	H 	0.20269 0.40765 0.50730 0.03700
C 	C 	0.26705 0.37662 0.43911 -0.07200
H 	H 	0.30047 0.37046 0.46969 0.03900
H 	H 	0.24851 0.34188 0.39816 0.03900
C 	C 	0.15264 0.25073 0.43256 -0.11800
C 	C 	0.32946 0.59485 0.47334 -0.02900
C 	C 	0.57397 0.86230 0.44786 -0.08400
C 	C 	0.58316 0.82495 0.47900 0.04500
C 	C 	0.64191 0.80217 0.44283 -0.07200
C 	C 	0.67647 0.87437 0.47060 0.01800
C 	C 	0.62879 0.89134 0.44293 -0.07200
H 	H 	0.52917 0.83114 0.40644 0.04000
H 	H 	0.57118 0.90007 0.46948 0.03900
C 	C 	0.53068 0.79704 0.48315 -0.03400
H 	H 	0.67494 0.78848 0.46199 0.04000
H 	H 	0.62349 0.78294 0.39905 0.04000
C 	C 	0.72807 0.90119 0.46522 0.03100
H 	H 	0.61012 0.87401 0.39917 0.03700
H 	H 	0.65218 0.94296 0.46221 0.03600
C 	C 	0.70105 0.89909 0.53131 -0.07200
H 	H 	0.72589 0.95086 0.55233 0.03600
H 	H 	0.73531 0.88740 0.55226 0.03700
C 	C 	0.64616 0.87001 0.53625 -0.08400
H 	H 	0.65423 0.84445 0.55956 0.03800
H 	H 	0.64480 0.90791 0.55964 0.03800
C 	C 	0.58714 0.77317 0.44776 -0.08400
H 	H 	0.59403 0.74567 0.46930 0.04000
H 	H 	0.54260 0.74014 0.40634 0.04100
C 	C 	0.48690 0.77373 0.48538 -0.02900
C 	C 	0.76904 0.92089 0.45904 -0.12100
C 	C 	0.21190 0.89299 0.44072 -0.07100
C 	C 	0.15827 0.85227 0.44342 0.01500
C 	C 	0.16933 0.76154 0.41250 -0.08400
C 	C 	0.23612 0.81526 0.46315 0.04500
C 	C 	0.25768 0.87122 0.45232 -0.08400
H 	H 	0.19239 0.88990 0.39980 0.03800
H 	H 	0.23784 0.94290 0.47099 0.03700
C 	C 	0.11422 0.87220 0.43135 0.02900
H 	H 	0.15245 0.72065 0.41913 0.04000
H 	H 	0.16974 0.74574 0.37625 0.04000
C 	C 	0.27872 0.79360 0.47329 -0.03300
H 	H 	0.25996 0.85770 0.41692 0.04000
H 	H 	0.30548 0.91069 0.48815 0.03900
C 	C 	0.23330 0.83599 0.51252 -0.08500
H 	H 	0.28063 0.87479 0.54952 0.04000
H 	H 	0.21778 0.79665 0.52121 0.04000
C 	C 	0.18747 0.85779 0.50090 -0.07100
H 	H 	0.15007 0.82884 0.50403 0.03400
H 	H 	0.21290 0.90700 0.53234 0.03400
C 	C 	0.12365 0.78325 0.40093 -0.07100
H 	H 	0.08499 0.75275 0.40205 0.03600
H 	H 	0.10228 0.77781 0.35916 0.03700
C 	C 	0.07705 0.88708 0.41884 -0.13400
C 	C 	0.31142 0.77341 0.47962 -0.02900
C 	C 	0.30310 0.49049 0.96681 -0.08300
C 	C 	0.37312 0.52683 0.01483 0.04600
C 	C 	0.34145 0.46271 0.05824 -0.06700
C 	C 	0.31186 0.41301 0.00025 -0.00100
C 	C 	0.26715 0.42369 0.95826 -0.06300
H 	H 	0.28166 0.51570 0.97500 0.04200
H 	H 	0.29844 0.48752 0.92876 0.04200
C 	C 	0.40663 0.59048 0.02294 -0.03600
H 	H 	0.37406 0.45638 0.08938 0.03600
H 	H 	0.30446 0.45692 0.06447 0.03500
C 	C 	0.27755 0.34964 0.99238 0.04200
H 	H 	0.22860 0.41706 0.96240 0.03700
H 	H 	0.24537 0.38883 0.91615 0.03700
C 	C 	0.36496 0.42308 0.99327 -0.05000
H 	H 	0.34515 0.38821 0.95186 0.03500
H 	H 	0.39803 0.41591 0.02306 0.03100
C 	C 	0.40099 0.49001 0.00185 -0.10000
H 	H 	0.45122 0.51479 0.03575 0.04200
H 	H 	0.39834 0.48708 0.96454 0.04700
C 	C 	0.37741 0.52951 0.06680 -0.08700
H 	H 	0.42718 0.55506 0.10200 0.04100
H 	H 	0.35756 0.55556 0.07711 0.04000
C 	C 	0.43195 0.64266 0.02924 -0.03000
C 	C 	0.24972 0.29828 0.98683 -0.12200
C 	C 	0.68364 0.91725 0.01156 -0.08800
C 	C 	0.68470 0.86789 0.03024 0.04100
C 	C 	0.73063 0.84351 0.98005 -0.06800
C 	C 	0.77540 0.91514 0.01831 0.01300
C 	C 	0.73690 0.94499 0.00456 -0.07600
H 	H 	0.63786 0.89561 0.97229 0.04400
H 	H 	0.68907 0.95549 0.04197 0.03800
C 	C 	0.63342 0.84114 0.03610 -0.03600
H 	H 	0.75695 0.82068 0.98914 0.04000
H 	H 	0.71008 0.83286 0.93690 0.03900
C 	C 	0.82542 0.94062 0.01084 0.03300
H 	H 	0.71652 0.93654 0.96195 0.04000
H 	H 	0.76778 0.99646 0.03163 0.03500
C 	C 	0.80270 0.92777 0.07786 -0.07300
H 	H 	0.83487 0.97890 0.10636 0.03500
H 	H 	0.83058 0.90676 0.08894 0.03500
C 	C 	0.74933 0.89995 0.08486 -0.08200
H 	H 	0.75169 0.86560 0.09922 0.03000
H 	H 	0.75604 0.93780 0.11673 0.03300
C 	C 	0.67741 0.81581 0.98702 -0.08000
H 	H 	0.67833 0.77976 0.99943 0.03900
H 	H 	0.63151 0.79202 0.94722 0.04100
C 	C 	0.59023 0.81878 0.03928 -0.03300
C 	C 	0.86523 0.95895 0.00315 -0.13300
C 	C 	0.36006 0.91615 0.99805 -0.07100
C 	C 	0.33993 0.86350 0.01285 0.03200
C 	C 	0.29354 0.91108 0.04975 -0.07900
C 	C 	0.26229 0.90096 0.99071 0.02200
C 	C 	0.31442 0.93818 0.98503 -0.07000
H 	H 	0.40826 0.95642 0.03244 0.03300
H 	H 	0.36081 0.89917 0.96217 0.03900
C 	C 	0.38242 0.84158 0.02436 -0.03100
H 	H 	0.25726 0.88471 0.05504 0.03400
H 	H 	0.31950 0.96135 0.07915 0.03400
C 	C 	0.21829 0.92105 0.97733 0.02800
H 	H 	0.34082 0.98899 0.01318 0.03300
H 	H 	0.29344 0.93173 0.94295 0.03800
C 	C 	0.22701 0.83057 0.95114 -0.07500
H 	H 	0.20418 0.82182 0.90833 0.03800
H 	H 	0.18939 0.80253 0.95445 0.03800
C 	C 	0.27255 0.80860 0.96413 -0.07600
H 	H 	0.25665 0.77006 0.97362 0.04100
H 	H 	0.27143 0.78938 0.92751 0.04000
C 	C 	0.33924 0.88903 0.06278 -0.08000
H 	H 	0.32476 0.85215 0.07431 0.03800
H 	H 	0.38703 0.92876 0.09843 0.03800
C 	C 	0.41505 0.82120 0.03183 -0.03300
C 	C 	0.18103 0.93580 0.96388 -0.13000
C 	C 	0.81466 0.19039 0.40933 -0.07200
C 	C 	0.77722 0.11805 0.37891 0.01800
C 	C 	0.68795 0.11554 0.38135 -0.08400
C 	C 	0.70084 0.15695 0.35479 0.04600
C 	C 	0.76982 0.21322 0.39518 -0.08400
H 	H 	0.84403 0.20839 0.45410 0.04100
H 	H 	0.84680 0.20999 0.39801 0.03900
C 	C 	0.82039 0.09707 0.39380 0.03300
H 	H 	0.63875 0.07451 0.35313 0.04400
H 	H 	0.69419 0.14233 0.41906 0.04400
C 	C 	0.65894 0.17952 0.34256 -0.03100
H 	H 	0.77783 0.24210 0.43320 0.04300
H 	H 	0.78055 0.24375 0.37710 0.04200
C 	C 	0.69187 0.11793 0.30261 -0.08500
H 	H 	0.70101 0.14657 0.28270 0.04300
H 	H 	0.64274 0.07698 0.27287 0.04400
C 	C 	0.73690 0.09500 0.31683 -0.07200
H 	H 	0.70927 0.04310 0.29390 0.04000
H 	H 	0.76754 0.11270 0.30373 0.03800
C 	C 	0.73280 0.09270 0.39551 -0.07200
H 	H 	0.70503 0.04074 0.37410 0.04400
H 	H 	0.76038 0.10858 0.43998 0.04400
C 	C 	0.85664 0.08143 0.40948 -0.12500
C 	C 	0.62649 0.20007 0.33533 -0.02600
C 	C 	0.74027 0.53035 0.40460 -0.08400
C 	C 	0.66906 0.49725 0.36164 0.04500
C 	C 	0.68207 0.60300 0.39478 -0.07200
C 	C 	0.72993 0.61331 0.38083 0.01800
C 	C 	0.77600 0.59850 0.41587 -0.07200
H 	H 	0.74957 0.53043 0.44323 0.04200
H 	H 	0.75812 0.50463 0.38999 0.04200
C 	C 	0.63580 0.43248 0.35115 -0.03300
H 	H 	0.64816 0.61311 0.37007 0.03800
H 	H 	0.70651 0.63571 0.43836 0.03800
C 	C 	0.76423 0.67800 0.39147 0.03000
H 	H 	0.80233 0.63111 0.45987 0.04000
H 	H 	0.81088 0.60527 0.40661 0.04000
C 	C 	0.69401 0.56666 0.31996 -0.07200
H 	H 	0.72718 0.57277 0.30872 0.03700
H 	H 	0.66032 0.57601 0.29374 0.03700
C 	C 	0.65825 0.49846 0.30868 -0.08400
H 	H 	0.60748 0.47524 0.27709 0.04100
H 	H 	0.67437 0.47204 0.29208 0.04100
C 	C 	0.64625 0.53471 0.38349 -0.08400
H 	H 	0.59526 0.51220 0.35336 0.04000
H 	H 	0.65361 0.53483 0.42166 0.04100
C 	C 	0.61054 0.37964 0.34335 -0.02800
C 	C 	0.79277 0.73065 0.39981 -0.11800
C 	C 	0.26358 0.11293 0.33058 -0.07400
C 	C 	0.29745 0.12597 0.39054 0.02200
C 	C 	0.38079 0.11677 0.38475 -0.08300
C 	C 	0.37855 0.16665 0.36721 0.04400
C 	C 	0.31126 0.13672 0.31684 -0.08200
H 	H 	0.22852 0.06197 0.30248 0.04400
H 	H 	0.23785 0.13652 0.32377 0.04200
C 	C 	0.25229 0.10368 0.40371 0.02800
H 	H 	0.42856 0.13696 0.42103 0.04300
H 	H 	0.37012 0.07681 0.35156 0.04300
C 	C 	0.42427 0.18967 0.35470 -0.03300
H 	H 	0.29912 0.09708 0.28231 0.04100
H 	H 	0.30810 0.17148 0.30332 0.03900
C 	C 	0.39337 0.22123 0.41440 -0.08300
H 	H 	0.39176 0.25769 0.40289 0.04000
H 	H 	0.44145 0.24363 0.45125 0.04200
C 	C 	0.34580 0.19732 0.42815 -0.07400
H 	H 	0.37116 0.20820 0.47153 0.04100
H 	H 	0.32156 0.22246 0.42330 0.04100
C 	C 	0.33304 0.09279 0.39837 -0.07400
H 	H 	0.35801 0.10144 0.44112 0.04200
H 	H 	0.29947 0.04141 0.37160 0.04300
C 	C 	0.21499 0.08649 0.41424 -0.10700
C 	C 	0.46275 0.20904 0.34570 -0.02900
C 	C 	0.82470 0.12499 0.93989 -0.07100
C 	C 	0.87660 0.15922 0.93297 0.01400
C 	C 	0.79981 0.16839 0.85803 -0.08500
C 	C 	0.79981 0.19750 0.90761 0.04700
C 	C 	0.77957 0.14749 0.92499 -0.08500
H 	H 	0.79789 0.07366 0.91340 0.04400
H 	H 	0.84589 0.13382 0.98266 0.04500
C 	C 	0.91983 0.13841 0.94825 0.03900
H 	H 	0.81435 0.20335 0.84471 0.04300
H 	H 	0.75182 0.12826 0.82311 0.04400
C 	C 	0.75762 0.21965 0.89455 -0.03200
H 	H 	0.73119 0.10694 0.89136 0.04400
H 	H 	0.77927 0.16709 0.96065 0.04500
C 	C 	0.86743 0.25290 0.95535 -0.08600
H 	H 	0.86901 0.27472 0.99168 0.04500
H 	H 	0.88337 0.28956 0.94398 0.04300
C 	C 	0.91252 0.23042 0.97024 -0.06600
H 	H 	0.94999 0.25632 0.96597 0.03900
H 	H 	0.93559 0.24151 0.01366 0.03800
C 	C 	0.84508 0.14582 0.87298 -0.07100
H 	H 	0.88123 0.17001 0.86680 0.03800
H 	H 	0.81871 0.09491 0.84521 0.03800
C 	C 	0.95583 0.12244 0.96348 -0.13100
C 	C 	0.72477 0.23973 0.88643 -0.02600
C 	C 	0.78706 0.60062 0.86076 -0.07100
C 	C 	0.82457 0.64814 0.92168 0.01700
C 	C 	0.74237 0.57155 0.92690 -0.08500
C 	C 	0.76379 0.53294 0.90420 0.04700
C 	C 	0.75132 0.53287 0.85048 -0.08500
H 	H 	0.75320 0.61003 0.83487 0.03800
H 	H 	0.81919 0.60564 0.84843 0.03800
C 	C 	0.85895 0.71240 0.93157 0.03200
H 	H 	0.75092 0.57258 0.96563 0.04100
H 	H 	0.69127 0.54935 0.89760 0.04100
C 	C 	0.73069 0.46872 0.89482 -0.03200
H 	H 	0.70039 0.50992 0.81970 0.04200
H 	H 	0.76641 0.50559 0.83326 0.04200
C 	C 	0.83516 0.56560 0.94600 -0.08600
H 	H 	0.85202 0.53903 0.93076 0.04300
H 	H 	0.84564 0.56657 0.98516 0.04300
C 	C 	0.87085 0.63325 0.95627 -0.06600
H 	H 	0.89834 0.66650 0.00031 0.03600
H 	H 	0.90471 0.63894 0.94590 0.04000
C 	C 	0.77815 0.63935 0.93719 -0.07100
H 	H 	0.80376 0.67275 0.98084 0.03900
H 	H 	0.74413 0.64956 0.91283 0.03800
C 	C 	0.88792 0.76489 0.93983 -0.11800
C 	C 	0.70582 0.41642 0.88821 -0.02700
C 	C 	0.48965 0.17276 0.94945 -0.08600
C 	C 	0.47703 0.20900 0.91785 0.04700
C 	C 	0.36149 0.14152 0.87772 -0.07200
C 	C 	0.39484 0.16937 0.94015 0.01700
C 	C 	0.44129 0.14945 0.96256 -0.06600
H 	H 	0.48704 0.13213 0.92491 0.04400
H 	H 	0.53761 0.20339 0.98804 0.04500
C 	C 	0.52307 0.23132 0.90563 -0.03200
H 	H 	0.32784 0.15516 0.86043 0.04100
H 	H 	0.33420 0.08961 0.85772 0.04200
C 	C 	0.34878 0.14766 0.95242 0.03300
H 	H 	0.41556 0.09770 0.94427 0.04100
H 	H 	0.46615 0.16899 0.00740 0.03600
C 	C 	0.43251 0.24162 0.96637 -0.06600
H 	H 	0.45724 0.26303 0.01129 0.03500
H 	H 	0.40034 0.25736 0.95092 0.04000
C 	C 	0.48081 0.26490 0.95326 -0.08600
H 	H 	0.47167 0.29172 0.93154 0.04200
H 	H 	0.52859 0.29742 0.99193 0.04300
C 	C 	0.40983 0.16483 0.86462 -0.08500
H 	H 	0.39928 0.18964 0.84112 0.04100
H 	H 	0.40563 0.12406 0.83838 0.04300
C 	C 	0.56137 0.24995 0.89636 -0.02700
C 	C 	0.31034 0.13102 0.96176 -0.11000
