data_crystal

_cell_length_a 17.57971
_cell_length_b 16.37266
_cell_length_c 49.59443
_cell_angle_alpha 90.74022
_cell_angle_beta  91.02698
_cell_angle_gamma 110.83291

_symmetry_space_group_name_	'P 1'
_symmetry_space_group_name_H-M	'P 1'

loop_
_symmetry_equiv_pos_as_xyz
  x,y,z

loop_
_atom_site_label
_atom_site_type_symbol
_atom_site_fract_x
_atom_site_fract_y
_atom_site_fract_z
_atom_site_charge
O 	O 	0.13060 0.91148 0.75478 -0.70100
Ni	Ni	0.15648 0.01740 0.77925 1.10200
O 	O 	0.17072 0.81768 0.70941 -0.38200
Ni	Ni	0.23174 0.91624 0.73775 1.07400
O 	O 	0.22673 0.02048 0.71627 -0.40300
O 	O 	0.24933 0.00222 0.80139 -0.36500
O 	O 	0.06808 0.03319 0.75513 -0.70600
O 	O 	0.15585 0.11848 0.80425 -0.34400
H 	H 	0.10509 0.85587 0.76417 0.17100
H 	H 	0.08654 0.09142 0.74683 0.17000
C 	C 	0.23988 0.09751 0.72825 0.26200
C 	C 	0.09638 0.80191 0.69982 0.29700
C 	C 	0.31521 0.00086 0.78951 0.28700
C 	C 	0.08626 0.12093 0.81293 0.27200
O 	O 	0.23988 0.10437 0.75493 -0.35600
O 	O 	0.31804 0.99978 0.76298 -0.39600
Ni	Ni	0.33806 0.77024 0.39972 1.10200
O 	O 	0.31030 0.69451 0.36495 -0.69800
Ni	Ni	0.19055 0.67553 0.36112 1.10000
O 	O 	0.44782 0.75726 0.40651 -0.36100
O 	O 	0.43352 0.62485 0.38836 -0.36400
O 	O 	0.39904 0.88187 0.37918 -0.35900
Ni	Ni	0.31776 0.57802 0.37034 1.07800
O 	O 	0.30925 0.94349 0.41328 -0.39600
O 	O 	0.26302 0.56788 0.40686 -0.40700
O 	O 	0.16491 0.59178 0.32869 -0.36700
O 	O 	0.22162 0.75778 0.39391 -0.70900
O 	O 	0.35667 0.84530 0.43361 -0.35400
O 	O 	0.07484 0.67870 0.35923 -0.34200
O 	O 	0.12172 0.82788 0.35843 -0.40400
Ni	Ni	0.21907 0.87377 0.38616 1.07500
H 	H 	0.34106 0.72380 0.34913 0.17000
H 	H 	0.18903 0.73323 0.40991 0.17800
C 	C 	0.18629 0.56102 0.40845 0.32400
O 	O 	0.29505 0.89690 0.35416 -0.40100
C 	C 	0.45128 0.67943 0.40909 0.35200
C 	C 	0.17976 0.51881 0.32996 0.28800
C 	C 	0.37170 0.90450 0.35680 0.28700
C 	C 	0.06111 0.75257 0.36052 0.28600
C 	C 	0.32892 0.90990 0.43539 0.34200
O 	O 	0.14593 0.57187 0.38689 -0.33700
O 	O 	0.21123 0.49993 0.35226 -0.38000
Ni	Ni	0.35286 0.62741 0.12862 1.10100
O 	O 	0.25535 0.61381 0.10305 -0.69900
Ni	Ni	0.19144 0.66847 0.12598 1.10400
O 	O 	0.40007 0.55432 0.10487 -0.35000
O 	O 	0.28056 0.44557 0.09390 -0.35900
O 	O 	0.42512 0.73176 0.10682 -0.37100
Ni	Ni	0.18526 0.49185 0.09528 1.08100
O 	O 	0.46975 0.79604 0.15576 -0.39000
O 	O 	0.17362 0.46358 0.13518 -0.39400
O 	O 	0.09882 0.65402 0.09895 -0.35500
O 	O 	0.28918 0.68290 0.15108 -0.70200
O 	O 	0.44781 0.64972 0.15536 -0.35600
O 	O 	0.14456 0.73664 0.15153 -0.34500
O 	O 	0.26190 0.85413 0.15592 -0.37400
Ni	Ni	0.35769 0.80767 0.15507 1.07500
H 	H 	0.27148 0.64586 0.08607 0.16900
H 	H 	0.27415 0.65418 0.16864 0.16800
C 	C 	0.12349 0.48679 0.15001 0.28800
O 	O 	0.36168 0.82878 0.11465 -0.37800
C 	C 	0.35383 0.49649 0.08734 0.33400
C 	C 	0.06808 0.58121 0.08462 0.33100
C 	C 	0.40286 0.79621 0.09868 0.33100
C 	C 	0.18967 0.80777 0.16476 0.27900
C 	C 	0.48502 0.72882 0.16568 0.28200
O 	O 	0.11536 0.56305 0.14684 -0.35200
O 	O 	0.07596 0.50875 0.09322 -0.36600
O 	O 	0.01891 0.15648 0.25790 -0.36200
O 	O 	0.06793 0.01137 0.26298 -0.37700
O 	O 	0.99437 0.00835 0.22389 -0.35400
Ni	Ni	0.98952 0.99090 0.29440 1.06800
O 	O 	0.01384 0.12022 0.30230 -0.38300
C 	C 	0.02972 0.17936 0.28356 0.29000
C 	C 	0.04436 0.98074 0.23808 0.27700
C 	C 	0.06662 0.42119 0.16769 -0.04100
C 	C 	0.09694 0.37222 0.18505 -0.00100
C 	C 	0.04419 0.29263 0.19500 0.02000
C 	C 	0.98128 0.39897 0.16454 -0.00900
C 	C 	0.18273 0.40347 0.19263 0.09500
C 	C 	0.07739 0.22630 0.20193 0.10700
N 	N 	0.10525 0.17391 0.20697 -0.08100
N 	N 	0.25117 0.42843 0.19871 -0.10200
C 	C 	0.15200 0.84593 0.18588 -0.05300
C 	C 	0.20112 0.90097 0.20670 0.00400
C 	C 	0.16666 0.94506 0.22465 0.00100
C 	C 	0.08137 0.92348 0.22458 -0.06600
C 	C 	0.03187 0.85520 0.20756 0.01900
C 	C 	0.06644 0.82519 0.18609 0.00200
C 	C 	0.28543 0.90877 0.21054 0.07100
C 	C 	0.94530 0.81577 0.21222 0.07100
C 	C 	0.01492 0.78081 0.16326 0.13000
C 	C 	0.21901 0.01290 0.24273 0.11200
N 	N 	0.97360 0.74546 0.14507 -0.09000
N 	N 	0.26092 0.06701 0.25715 -0.09900
N 	N 	0.35269 0.91501 0.21363 -0.13100
C 	C 	0.06309 0.27297 0.29154 -0.07000
C 	C 	0.14112 0.32656 0.28312 0.01100
C 	C 	0.17589 0.41342 0.29299 -0.00400
C 	C 	0.13384 0.44584 0.31171 -0.05000
C 	C 	0.05267 0.39600 0.31755 0.00300
C 	C 	0.01907 0.30798 0.30898 0.02200
C 	C 	0.18874 0.29007 0.26652 0.09800
C 	C 	0.00520 0.43418 0.33365 0.13900
C 	C 	0.25627 0.46850 0.28474 0.07900
N 	N 	0.32048 0.51249 0.27820 -0.10500
N 	N 	0.22718 0.26120 0.25339 -0.08900
C 	C 	0.97693 0.75053 0.35650 -0.06700
C 	C 	0.93765 0.72805 0.33094 0.00300
C 	C 	0.94172 0.78712 0.37640 0.00500
C 	C 	0.96371 0.67629 0.31180 0.08900
C 	C 	0.97152 0.79529 0.40410 0.08100
N 	N 	0.99540 0.80180 0.42622 -0.09800
N 	N 	0.98454 0.63495 0.29652 -0.10500
C 	C 	0.41846 0.09065 0.48676 0.28900
C 	C 	0.38666 0.04884 0.46210 -0.04100
C 	C 	0.34162 0.95876 0.46112 -0.15000
C 	C 	0.32324 0.91242 0.48524 0.38100
F 	F 	0.46308 0.17750 0.48746 -0.40400
H 	H 	0.40049 0.08546 0.44365 0.10600
C 	C 	0.04679 0.46830 0.47887 0.02900
H 	H 	0.06346 0.38836 0.52507 0.13400
C 	C 	0.12127 0.53889 0.48093 0.30000
C 	C 	0.16835 0.56710 0.45805 -0.05300
C 	C 	0.14121 0.52541 0.43295 -0.13700
C 	C 	0.06838 0.45255 0.43113 0.37700
C 	C 	0.02158 0.42411 0.45401 -0.12300
F 	F 	0.14642 0.58220 0.50486 -0.38600
H 	H 	0.22438 0.62326 0.45965 0.10300
F 	F 	0.04274 0.40972 0.40715 -0.42100
C 	C 	0.49353 0.60430 0.48836 0.02100
C 	C 	0.43516 0.64306 0.48380 0.29300
C 	C 	0.42029 0.66568 0.45774 -0.04600
C 	C 	0.46323 0.64936 0.43600 -0.15900
C 	C 	0.51971 0.60788 0.44041 0.38400
F 	F 	0.39351 0.65959 0.50468 -0.39300
H 	H 	0.37577 0.69651 0.45444 0.08300
F 	F 	0.56170 0.59182 0.41955 -0.42700
C 	C 	0.40001 0.29166 0.68204 -0.05600
C 	C 	0.33018 0.23283 0.66871 0.01200
C 	C 	0.26775 0.17462 0.68397 0.00600
C 	C 	0.27521 0.17864 0.71237 -0.05300
C 	C 	0.33125 0.25562 0.72471 0.00900
C 	C 	0.39586 0.31071 0.70955 0.00200
C 	C 	0.32314 0.23251 0.63957 0.11300
C 	C 	0.31960 0.28080 0.75200 0.10800
C 	C 	0.45890 0.38476 0.72230 0.09200
C 	C 	0.19559 0.11313 0.67071 0.10000
N 	N 	0.50921 0.44402 0.73246 -0.10200
N 	N 	0.13793 0.06401 0.66014 -0.08800
N 	N 	0.31046 0.30103 0.77381 -0.09300
N 	N 	0.31738 0.23257 0.61629 -0.07700
N 	N 	0.03111 0.63001 0.74972 -0.10700
C 	C 	0.00322 0.64213 0.01745 0.31500
C 	C 	0.04214 0.64924 0.04263 -0.06500
C 	C 	0.01807 0.57878 0.06032 -0.12600
F 	F 	0.02931 0.70919 0.00003 -0.40300
H 	H 	0.09328 0.70807 0.04794 0.11000
C 	C 	0.54983 0.95317 0.98063 0.30800
C 	C 	0.51199 0.94088 0.02909 0.01700
F 	F 	0.51394 0.86512 0.97757 -0.39000
C 	C 	0.51361 0.84220 0.06502 -0.05700
C 	C 	0.43860 0.84340 0.07404 -0.13900
C 	C 	0.39941 0.89188 0.05991 0.37000
C 	C 	0.43630 0.94072 0.03764 -0.14000
H 	H 	0.54424 0.80467 0.07553 0.11500
F 	F 	0.32519 0.89069 0.06747 -0.43300
H 	H 	0.40598 0.97831 0.02697 0.12900
C 	C 	0.54370 0.46540 0.97778 0.30800
C 	C 	0.43503 0.47521 0.00767 0.01700
F 	F 	0.59525 0.48007 0.99950 -0.39500
C 	C 	0.43183 0.56369 0.04693 -0.05600
C 	C 	0.38470 0.48824 0.06044 -0.14800
C 	C 	0.36338 0.40604 0.04745 0.37500
C 	C 	0.38834 0.39976 0.02115 -0.14200
F 	F 	0.31977 0.33222 0.06045 -0.42300
H 	H 	0.37226 0.33614 0.01134 0.12800
C 	C 	0.53300 0.09132 0.83920 -0.06200
C 	C 	0.53344 0.12596 0.81337 -0.00100
C 	C 	0.46241 0.09687 0.79693 0.00400
C 	C 	0.39280 0.02712 0.80542 -0.06100
C 	C 	0.39698 0.98440 0.82965 0.01000
C 	C 	0.46663 0.01731 0.84672 0.00600
C 	C 	0.33025 0.90602 0.83679 0.09600
C 	C 	0.47039 0.97473 0.87191 0.11000
C 	C 	0.46037 0.14079 0.77185 0.09800
N 	N 	0.47332 0.94073 0.89201 -0.08700
N 	N 	0.45930 0.17592 0.75183 -0.11400
N 	N 	0.27704 0.84346 0.84249 -0.09100
N 	N 	0.08847 0.83329 0.81996 -0.11800
Ni	Ni	0.64185 0.28679 0.89995 1.10200
O 	O 	0.66293 0.34918 0.86341 -0.69600
Ni	Ni	0.78129 0.36459 0.85954 1.10000
O 	O 	0.53599 0.30729 0.90714 -0.35400
O 	O 	0.54523 0.42781 0.88324 -0.36400
O 	O 	0.57358 0.17020 0.88140 -0.35700
Ni	Ni	0.65722 0.46761 0.86447 1.07800
O 	O 	0.66409 0.11272 0.91499 -0.39500
O 	O 	0.71691 0.49346 0.90099 -0.37900
O 	O 	0.80254 0.43591 0.82521 -0.36900
O 	O 	0.75564 0.29390 0.89385 -0.71100
O 	O 	0.62933 0.22149 0.93515 -0.34200
O 	O 	0.89549 0.35773 0.85877 -0.35400
O 	O 	0.84346 0.20842 0.85925 -0.40100
Ni	Ni	0.75298 0.17458 0.88812 1.07500
H 	H 	0.62908 0.31373 0.84833 0.16900
H 	H 	0.79203 0.32250 0.90934 0.17200
C 	C 	0.79170 0.49424 0.90389 0.31800
O 	O 	0.67142 0.14572 0.85653 -0.40200
C 	C 	0.53369 0.38614 0.90614 0.35100
C 	C 	0.79216 0.51143 0.82447 0.28700
C 	C 	0.59564 0.13958 0.85951 0.28700
C 	C 	0.90657 0.28238 0.85959 0.28400
C 	C 	0.64607 0.14915 0.93691 0.33400
O 	O 	0.82976 0.47675 0.88311 -0.36200
O 	O 	0.76165 0.53878 0.84538 -0.38500
Ni	Ni	0.60382 0.40228 0.63121 1.10200
O 	O 	0.68588 0.40862 0.60194 -0.70500
Ni	Ni	0.75316 0.34816 0.61981 1.11100
O 	O 	0.54615 0.46483 0.60746 -0.35400
O 	O 	0.66573 0.57730 0.60138 -0.37100
O 	O 	0.53241 0.28420 0.61378 -0.36600
Ni	Ni	0.75650 0.52680 0.59374 1.07900
O 	O 	0.50074 0.24273 0.66293 -0.39700
O 	O 	0.79826 0.55492 0.63268 -0.39500
O 	O 	0.82135 0.34808 0.58687 -0.30800
O 	O 	0.68170 0.35884 0.65139 -0.69600
O 	O 	0.51931 0.38741 0.66031 -0.36700
O 	O 	0.79797 0.25691 0.63550 -0.32600
O 	O 	0.72516 0.22798 0.67431 -0.39600
Ni	Ni	0.61689 0.24360 0.66434 1.07700
H 	H 	0.65954 0.37701 0.58515 0.18200
H 	H 	0.71163 0.39969 0.66610 0.17800
C 	C 	0.85397 0.52675 0.64251 0.28700
O 	O 	0.60515 0.19734 0.62558 -0.40300
C 	C 	0.58946 0.53391 0.59402 0.33500
C 	C 	0.84958 0.41945 0.57240 0.32700
C 	C 	0.55956 0.22041 0.60795 0.32100
C 	C 	0.77165 0.20865 0.65694 0.29900
C 	C 	0.48012 0.30967 0.66995 0.29000
O 	O 	0.85258 0.44773 0.63632 -0.34400
O 	O 	0.85484 0.49607 0.58285 -0.38500
O 	O 	0.89349 0.97453 0.73765 -0.38600
C 	C 	0.92216 0.00060 0.71348 0.26400
O 	O 	0.84406 0.10142 0.26583 -0.70200
Ni	Ni	0.80166 0.99882 0.29023 1.10200
O 	O 	0.83603 0.20306 0.21962 -0.38300
Ni	Ni	0.75406 0.10905 0.24395 1.07700
O 	O 	0.75447 0.99866 0.22426 -0.40800
O 	O 	0.70873 0.02772 0.30678 -0.36500
O 	O 	0.78825 0.89964 0.31696 -0.34400
C 	C 	0.72731 0.92107 0.23579 0.26200
C 	C 	0.64932 0.03482 0.29161 0.28500
O 	O 	0.72121 0.91499 0.26247 -0.35700
O 	O 	0.65450 0.03571 0.26504 -0.39100
N 	N 	0.77085 0.27985 0.16909 -0.09600
C 	C 	0.55936 0.74631 0.18251 -0.05500
C 	C 	0.55285 0.72703 0.21013 0.00200
C 	C 	0.61730 0.77300 0.22815 0.00800
C 	C 	0.68517 0.84200 0.21847 -0.05200
C 	C 	0.69949 0.84451 0.19054 0.00500
C 	C 	0.63569 0.79758 0.17241 0.01100
C 	C 	0.47877 0.66321 0.22007 0.08800
C 	C 	0.77959 0.89367 0.18063 0.09800
C 	C 	0.64768 0.80339 0.14357 0.11200
C 	C 	0.61551 0.74658 0.25598 0.10900
N 	N 	0.65725 0.80801 0.12053 -0.08300
N 	N 	0.61384 0.72536 0.27820 -0.09500
N 	N 	0.84355 0.93291 0.17272 -0.09300
N 	N 	0.41952 0.61225 0.22795 -0.10200
C 	C 	0.43076 0.95269 0.33647 -0.06900
C 	C 	0.43029 0.91461 0.31079 0.00600
C 	C 	0.49932 0.94669 0.29450 -0.00400
C 	C 	0.56867 0.01744 0.30396 -0.04800
C 	C 	0.56337 0.06368 0.32763 0.00100
C 	C 	0.49451 0.03111 0.34395 0.02000
C 	C 	0.35957 0.84144 0.30138 0.07200
C 	C 	0.62874 0.14456 0.33516 0.09700
C 	C 	0.48930 0.07787 0.36848 0.10500
C 	C 	0.49882 0.90677 0.26820 0.10400
N 	N 	0.48511 0.11513 0.38805 -0.08800
N 	N 	0.49805 0.87496 0.24718 -0.11200
N 	N 	0.68092 0.20911 0.34116 -0.09400
N 	N 	0.30314 0.78308 0.29385 -0.11900
C 	C 	0.35632 0.95365 0.50975 -0.13600
C 	C 	0.40584 0.04229 0.51055 0.02600
C 	C 	0.44598 0.08351 0.53620 0.01500
F 	F 	0.27698 0.82597 0.48469 -0.42300
H 	H 	0.34525 0.91614 0.52805 0.14800
C 	C 	0.39908 0.08554 0.55864 0.29500
C 	C 	0.43721 0.12331 0.58298 -0.05100
C 	C 	0.52225 0.16230 0.58491 -0.13800
C 	C 	0.56941 0.15761 0.56283 0.36500
C 	C 	0.53136 0.11776 0.53860 -0.13000
F 	F 	0.31653 0.05264 0.55665 -0.40600
H 	H 	0.40056 0.12495 0.60015 0.10400
F 	F 	0.65183 0.19463 0.56451 -0.45200
H 	H 	0.56808 0.11452 0.52158 0.13300
C 	C 	0.87213 0.45461 0.52406 -0.06300
C 	C 	0.89229 0.41786 0.54727 -0.12000
F 	F 	0.90253 0.50747 0.47954 -0.41600
H 	H 	0.81966 0.47471 0.52385 0.08200
C 	C 	0.53495 0.58567 0.46656 -0.14000
C 	C 	0.51379 0.58660 0.51601 0.01500
H 	H 	0.57991 0.55542 0.46997 0.13200
C 	C 	0.48823 0.50055 0.52515 0.29700
C 	C 	0.50998 0.48382 0.55114 -0.05700
C 	C 	0.55770 0.55296 0.56818 -0.15200
C 	C 	0.58090 0.63939 0.55931 0.37100
C 	C 	0.55917 0.65599 0.53328 -0.13700
F 	F 	0.44310 0.43312 0.50872 -0.40000
H 	H 	0.49192 0.41688 0.55774 0.10400
F 	F 	0.62460 0.70717 0.57586 -0.42700
H 	H 	0.57818 0.72269 0.52642 0.13000
C 	C 	0.81517 0.15146 0.66609 -0.05500
C 	C 	0.77090 0.06224 0.67044 0.00800
C 	C 	0.80555 0.01265 0.68616 0.00200
C 	C 	0.88548 0.05166 0.69684 -0.05700
C 	C 	0.93231 0.13860 0.69037 -0.01300
C 	C 	0.89694 0.18874 0.67528 0.01600
C 	C 	0.68942 0.02188 0.65889 0.08700
C 	C 	0.01664 0.17688 0.69956 0.09300
C 	C 	0.94354 0.27986 0.67021 0.10900
C 	C 	0.75932 0.92148 0.69117 0.11100
N 	N 	0.72246 0.84874 0.69516 -0.09300
N 	N 	0.08395 0.20776 0.70679 -0.11500
N 	N 	0.62441 0.98976 0.64967 -0.09400
C 	C 	0.98290 0.65785 0.64249 0.00100
C 	C 	0.92643 0.58919 0.65673 -0.04600
C 	C 	0.97189 0.66596 0.61374 0.10500
N 	N 	0.96378 0.67353 0.59081 -0.09500
C 	C 	0.89816 0.49012 0.93713 -0.06100
C 	C 	0.83523 0.52045 0.93010 -0.14300
C 	C 	0.81082 0.57092 0.94894 0.37700
H 	H 	0.91862 0.45258 0.92270 0.08800
F 	F 	0.75417 0.60612 0.94202 -0.42100
C 	C 	0.58898 0.08449 0.00884 -0.14000
C 	C 	0.55114 0.99356 0.00585 0.01800
C 	C 	0.58413 0.00366 0.95839 -0.05700
C 	C 	0.61950 0.09518 0.96108 -0.13200
C 	C 	0.62339 0.13517 0.98662 0.37300
H 	H 	0.58130 0.97177 0.93894 0.11200
F 	F 	0.66043 0.22302 0.98991 -0.42800
H 	H 	0.59130 0.11592 0.02836 0.12800
C 	C 	0.55019 0.89084 0.04272 0.31000
F 	F 	0.62323 0.89014 0.03452 -0.39200
C 	C 	0.41271 0.45320 0.95798 -0.14300
C 	C 	0.46512 0.46734 0.98064 0.02400
C 	C 	0.56780 0.44417 0.95280 -0.04000
C 	C 	0.51399 0.42553 0.93044 -0.14700
C 	C 	0.43714 0.43257 0.93289 0.38600
H 	H 	0.62712 0.43855 0.95106 0.09700
F 	F 	0.38468 0.41501 0.91135 -0.42600
H 	H 	0.35216 0.45529 0.96002 0.13000
C 	C 	0.45683 0.55724 0.02065 0.30400
F 	F 	0.50213 0.63063 0.00778 -0.38400
H 	H 	0.44786 0.62748 0.05664 0.09900
C 	C 	0.02078 0.22940 0.86858 0.01900
C 	C 	0.98684 0.27907 0.85267 -0.08100
C 	C 	0.00199 0.21771 0.89692 0.09600
N 	N 	0.98693 0.20841 0.91955 -0.10700
C 	C 	0.60673 0.19244 0.80382 0.06700
N 	N 	0.66517 0.24542 0.79619 -0.12200
C 	C 	0.84196 0.57781 0.80575 -0.05300
C 	C 	0.81012 0.58777 0.78024 -0.00100
C 	C 	0.84786 0.66486 0.76565 0.00700
C 	C 	0.91652 0.73224 0.77699 -0.06300
C 	C 	0.91787 0.63802 0.81471 0.01300
C 	C 	0.73925 0.51871 0.76897 0.08400
C 	C 	0.81580 0.67498 0.73928 0.09700
N 	N 	0.79028 0.68294 0.71820 -0.09500
N 	N 	0.68276 0.46339 0.75999 -0.10900
H 	H 	0.87260 0.15702 0.27562 0.16900
C 	C 	0.84030 0.30004 0.17296 0.10400
N 	N 	0.88165 0.20756 0.32877 -0.11000
H 	H 	0.86195 0.43692 0.02251 0.13600
C 	C 	0.09773 0.28611 0.78793 0.08400
N 	N 	0.12118 0.30362 0.76633 -0.10500
C 	C 	0.95097 0.50323 0.05331 0.36300
N 	N 	0.98064 0.35253 0.66619 -0.08600
O 	O 	0.07023 0.86632 0.69611 -0.35700
C 	C 	0.88517 0.50718 0.69898 0.09300
N 	N 	0.84186 0.44843 0.71048 -0.11300
C 	C 	0.87523 0.75970 0.32380 -0.01300
N 	N 	0.15770 0.84275 0.63014 -0.08000
C 	C 	0.93950 0.58083 0.68458 -0.00300
C 	C 	0.87932 0.81836 0.36892 0.00800
C 	C 	0.00991 0.40652 0.52468 -0.09900
C 	C 	0.01901 0.63712 0.72702 0.08400
C 	C 	0.94869 0.45074 0.14753 0.12100
C 	C 	0.84379 0.85868 0.38879 0.10900
N 	N 	0.81536 0.89091 0.40467 -0.08600
C 	C 	0.01872 0.30523 0.82694 0.03300
C 	C 	0.99780 0.37097 0.81246 0.08300
N 	N 	0.98113 0.42349 0.80090 -0.09400
N 	N 	0.80279 0.72256 0.27656 -0.10500
O 	O 	0.92164 0.96693 0.32921 -0.39900
C 	C 	0.95871 0.27278 0.19367 -0.07100
C 	C 	0.85719 0.81783 0.34151 -0.06100
H 	H 	0.96462 0.36912 0.45230 0.12300
F 	F 	0.92393 0.43640 0.07078 -0.42300
O 	O 	0.97746 0.97380 0.70291 -0.34600
O 	O 	0.94622 0.88676 0.78351 -0.39300
C 	C 	0.94151 0.82258 0.76663 0.28200
C 	C 	0.04862 0.72074 0.65645 0.02700
C 	C 	0.10929 0.78858 0.64181 0.11400
C 	C 	0.84567 0.58602 0.97491 -0.13500
C 	C 	0.93309 0.50568 0.96306 0.29300
Ni	Ni	0.05488 0.94026 0.72736 1.10600
O 	O 	0.95705 0.83731 0.74087 -0.36600
O 	O 	0.01894 0.05221 0.80988 -0.38900
Ni	Ni	0.96372 0.01111 0.77221 1.06700
Ni	Ni	0.91815 0.05662 0.24288 1.10500
O 	O 	0.91443 0.12315 0.20853 -0.35900
O 	O 	0.89193 0.97011 0.27198 -0.71200
H 	H 	0.87230 0.91000 0.26421 0.17100
C 	C 	0.90283 0.19768 0.20908 0.29600
C 	C 	0.85352 0.89927 0.33043 0.27700
C 	C 	0.92738 0.32546 0.17776 0.01500
N 	N 	0.92251 0.49200 0.13401 -0.07100
N 	N 	0.87626 0.78418 0.21597 -0.10700
C 	C 	0.94255 0.25198 0.31990 0.06500
N 	N 	0.96737 0.46465 0.34649 -0.08600
C 	C 	0.83497 0.73912 0.29755 0.07600
C 	C 	0.99134 0.44655 0.50189 -0.00900
C 	C 	0.92132 0.46897 0.50149 0.30500
C 	C 	0.96059 0.39220 0.54733 0.36300
F 	F 	0.98130 0.35722 0.56971 -0.41200
C 	C 	0.05428 0.71945 0.68476 -0.06300
C 	C 	0.00410 0.64583 0.69855 0.01800
C 	C 	0.90590 0.55235 0.98216 0.02400
C 	C 	0.93959 0.56464 0.00985 0.00400
F 	F 	0.99265 0.47439 0.96979 -0.41800
H 	H 	0.82556 0.62347 0.98947 0.14600
C 	C 	0.91213 0.49628 0.02812 -0.12800
C 	C 	0.08416 0.19690 0.82863 -0.04900
C 	C 	0.07013 0.18832 0.85648 0.00500
C 	C 	0.06834 0.26419 0.81496 -0.01400
C 	C 	0.10200 0.13301 0.87211 0.11400
N 	N 	0.12747 0.08881 0.88458 -0.08400
C 	C 	0.95421 0.71628 0.80078 -0.00000
C 	C 	0.02896 0.78141 0.81138 0.08800
C 	C 	0.95831 0.61956 0.83836 0.11000
N 	N 	0.99067 0.60484 0.85721 -0.08300
