data_crystal

_cell_length_a 44.28044
_cell_length_b 45.11665
_cell_length_c 25.65596
_cell_angle_alpha 89.86107
_cell_angle_beta  89.99998
_cell_angle_gamma 90.00000

_symmetry_space_group_name_	'P 1'
_symmetry_space_group_name_H-M	'P 1'

loop_
_symmetry_equiv_pos_as_xyz
  x,y,z

loop_
_atom_site_label
_atom_site_type_symbol
_atom_site_fract_x
_atom_site_fract_y
_atom_site_fract_z
_atom_site_charge
C 	C 	0.49101 0.55787 0.85213 0.10100
N 	N 	0.47791 0.53407 0.87437 -0.17400
C 	C 	0.44792 0.53735 0.86791 0.10100
C 	C 	0.42559 0.52087 0.89965 -0.07600
C 	C 	0.42897 0.48854 0.90672 0.08900
C 	C 	0.39853 0.53604 0.92044 0.04400
C 	C 	0.40165 0.56048 0.95377 -0.05900
C 	C 	0.37601 0.57432 0.97431 -0.02500
C 	C 	0.34711 0.56366 0.96193 -0.00500
C 	C 	0.36961 0.52562 0.90771 -0.05800
N 	N 	0.44580 0.47162 0.87470 -0.12800
C 	C 	0.42202 0.47361 0.95230 -0.06000
C 	C 	0.44889 0.44549 0.89965 0.09000
C 	C 	0.47069 0.42261 0.88332 -0.07600
C 	C 	0.46249 0.39105 0.88921 0.04500
C 	C 	0.42891 0.35017 0.86909 -0.02500
C 	C 	0.47792 0.37307 0.92505 -0.05900
C 	C 	0.46857 0.34382 0.93348 -0.02100
C 	C 	0.44366 0.33243 0.90623 -0.00200
N 	N 	0.51436 0.45586 0.86645 -0.17200
C 	C 	0.54183 0.45248 0.84469 0.10200
C 	C 	0.54359 0.42555 0.81900 -0.06100
C 	C 	0.51587 0.41197 0.82549 -0.06100
C 	C 	0.56850 0.46955 0.86213 -0.07600
C 	C 	0.59715 0.45414 0.87364 0.04500
C 	C 	0.64984 0.44511 0.85330 -0.02400
C 	C 	0.65314 0.42918 0.90002 -0.00400
C 	C 	0.62809 0.42510 0.93278 -0.02100
C 	C 	0.60014 0.43738 0.91944 -0.05900
N 	N 	0.54410 0.51819 0.84509 -0.12700
C 	C 	0.57124 0.54683 0.89954 -0.06000
C 	C 	0.54693 0.54552 0.86573 0.09000
C 	C 	0.52207 0.56739 0.86530 -0.07600
C 	C 	0.52851 0.59894 0.87588 0.04400
C 	C 	0.54618 0.61545 0.84096 -0.05700
C 	C 	0.55095 0.64568 0.84948 -0.02500
C 	C 	0.53823 0.65956 0.89316 -0.00400
C 	C 	0.52117 0.64289 0.92875 -0.02200
C 	C 	0.51620 0.61270 0.92000 -0.05900
C 	C 	0.46927 0.57650 0.83107 -0.06200
C 	C 	0.44170 0.56335 0.84116 -0.06200
C 	C 	0.34404 0.53928 0.92855 -0.02000
C 	C 	0.43481 0.44591 0.94771 -0.06000
C 	C 	0.49851 0.43124 0.85491 0.10200
C 	C 	0.58421 0.51910 0.89905 -0.06000
C 	C 	0.56715 0.50227 0.86499 0.09000
C 	C 	0.62197 0.45759 0.84024 -0.05700
H 	H 	0.48776 0.52148 0.90410 0.09300
H 	H 	0.51000 0.46947 0.89850 0.09300
H 	H 	0.56428 0.65838 0.82193 0.04200
H 	H 	0.51130 0.65343 0.96261 0.04300
H 	H 	0.55580 0.60498 0.80683 0.05100
H 	H 	0.50257 0.60007 0.94721 0.04700
H 	H 	0.37860 0.59306 0.00025 0.04000
H 	H 	0.36697 0.50689 0.88175 0.05200
H 	H 	0.32181 0.53098 0.91864 0.04700
H 	H 	0.42389 0.56861 0.96398 0.04700
H 	H 	0.48025 0.33025 0.96196 0.04700
H 	H 	0.49678 0.38191 0.94698 0.04800
C 	C 	0.43820 0.37939 0.86083 -0.05600
H 	H 	0.41007 0.34141 0.84702 0.04300
H 	H 	0.66908 0.44855 0.82792 0.04100
H 	H 	0.61978 0.47040 0.80466 0.05000
H 	H 	0.58101 0.43452 0.94531 0.04800
H 	H 	0.63042 0.41285 0.96893 0.04500
H 	H 	0.47237 0.59993 0.82361 0.05100
H 	H 	0.42041 0.57511 0.84240 0.05100
H 	H 	0.41656 0.48416 0.98896 0.05100
H 	H 	0.44072 0.43175 0.98028 0.05000
H 	H 	0.56436 0.41387 0.81051 0.05200
H 	H 	0.51215 0.38832 0.82249 0.05300
H 	H 	0.57335 0.56242 0.93135 0.05100
H 	H 	0.59790 0.51016 0.93032 0.05100
H 	H 	0.42635 0.39308 0.83274 0.05200
Co	Co	0.37954 0.11361 0.94545 1.18200
Co	Co	0.37675 0.04380 0.94853 1.09800
O 	O 	0.38027 0.15845 0.95220 -0.35500
O 	O 	0.42468 0.14080 0.94355 -0.31100
O 	O 	0.33633 0.10274 0.94608 -0.40400
O 	O 	0.36234 0.05989 0.88081 -0.44500
C 	C 	0.32567 0.08215 0.97748 0.29900
C 	C 	0.40865 0.16434 0.95028 0.28600
O 	O 	0.34331 0.06082 0.99455 -0.41900
O 	O 	0.38875 0.10306 0.87405 -0.42200
C 	C 	0.37881 0.07833 0.85319 0.28800
O 	O 	0.39019 0.10145 0.01514 -0.41200
O 	O 	0.41282 0.06017 0.98381 -0.47400
C 	C 	0.40963 0.07982 0.02104 0.30000
C 	C 	0.52584 0.00698 0.41999 0.01600
C 	C 	0.50089 0.02667 0.41587 0.01200
C 	C 	0.52622 0.98518 0.45923 -0.05400
C 	C 	0.50142 0.98193 0.49290 0.01400
C 	C 	0.47614 0.02356 0.44982 -0.05300
C 	C 	0.47596 0.00089 0.48755 0.01400
H 	H 	0.45700 0.03840 0.44647 0.05400
H 	H 	0.54552 0.97057 0.46308 0.05400
C 	C 	0.45023 0.99543 0.51860 -0.01500
C 	C 	0.44990 0.97300 0.55654 0.00900
C 	C 	0.42731 0.97740 0.59529 -0.04600
C 	C 	0.41067 0.00346 0.58798 -0.00700
S 	S 	0.42464 0.02078 0.53566 0.01600
H 	H 	0.42532 0.96400 0.63013 0.04400
C 	C 	0.50061 0.95901 0.53048 -0.01500
C 	C 	0.47554 0.95503 0.56332 0.01000
C 	C 	0.48295 0.94044 0.61101 -0.04900
C 	C 	0.51374 0.93376 0.61574 -0.00300
S 	S 	0.53086 0.94621 0.56211 0.01300
H 	H 	0.46751 0.93848 0.64348 0.04500
C 	C 	0.54936 0.03087 0.34400 0.01200
C 	C 	0.55009 0.00991 0.38457 -0.01600
S 	S 	0.57173 0.98184 0.36480 0.01800
C 	C 	0.58229 0.99543 0.30709 -0.00600
C 	C 	0.56777 0.02278 0.30062 -0.04600
C 	C 	0.50167 0.04924 0.37761 -0.01100
C 	C 	0.52511 0.05093 0.34092 0.00800
C 	C 	0.51679 0.06659 0.29476 -0.04100
C 	C 	0.48677 0.07650 0.29515 -0.00500
S 	S 	0.47130 0.06526 0.35122 0.00400
H 	H 	0.53104 0.06824 0.26066 0.05300
H 	H 	0.56721 0.03416 0.26350 0.04900
Co	Co	0.61433 0.87251 0.97204 1.18100
Co	Co	0.54441 0.88380 0.97590 1.09800
O 	O 	0.65906 0.86317 0.96476 -0.36800
O 	O 	0.64993 0.90868 0.94938 -0.29400
O 	O 	0.59499 0.83494 0.99339 -0.41100
O 	O 	0.56101 0.87733 0.04701 -0.45500
C 	C 	0.57157 0.82414 0.96809 0.29600
C 	C 	0.67038 0.88839 0.95164 0.28400
O 	O 	0.55131 0.84203 0.94759 -0.42000
O 	O 	0.60877 0.89496 0.03559 -0.41400
C 	C 	0.58433 0.89237 0.06422 0.29200
O 	O 	0.60121 0.87308 0.90051 -0.42400
O 	O 	0.56574 0.90707 0.92163 -0.46200
C 	C 	0.58166 0.89327 0.88604 0.30200
Co	Co	0.13163 0.62208 0.02132 1.18200
Co	Co	0.06169 0.61301 0.00418 1.10000
O 	O 	0.17604 0.62832 0.03866 -0.35700
O 	O 	0.16294 0.58331 0.04857 -0.31000
O 	O 	0.11563 0.66099 0.99920 -0.40600
O 	O 	0.08316 0.61981 0.93741 -0.44400
C 	C 	0.09022 0.67169 0.01821 0.29600
C 	C 	0.18473 0.60214 0.05203 0.28400
O 	O 	0.06921 0.65376 0.03626 -0.41600
O 	O 	0.12999 0.60162 0.95513 -0.42200
C 	C 	0.10649 0.60364 0.92409 0.29100
O 	O 	0.11343 0.62025 0.08936 -0.41400
O 	O 	0.07901 0.58739 0.05934 -0.47200
C 	C 	0.09352 0.59944 0.09850 0.30200
C 	C 	0.02779 0.49874 0.54992 0.01400
C 	C 	0.00416 0.47763 0.54485 0.01300
C 	C 	0.02921 0.52307 0.51565 -0.05300
C 	C 	0.00680 0.52707 0.47753 0.01400
C 	C 	0.98273 0.48076 0.50474 -0.05400
C 	C 	0.98365 0.50556 0.47153 0.01400
H 	H 	0.96507 0.46436 0.50012 0.05400
H 	H 	0.04726 0.53912 0.51934 0.05400
C 	C 	0.96110 0.51025 0.43355 -0.01600
C 	C 	0.96173 0.53507 0.40041 0.01100
C 	C 	0.94594 0.53036 0.35272 -0.04900
C 	C 	0.93404 0.50170 0.34804 -0.00300
S 	S 	0.94314 0.48316 0.40205 0.01500
H 	H 	0.94599 0.54594 0.32064 0.04600
C 	C 	0.00617 0.55278 0.44611 -0.01400
C 	C 	0.98446 0.55655 0.40683 0.00800
C 	C 	0.99410 0.57624 0.36656 -0.04200
C 	C 	0.02350 0.58700 0.37362 -0.00800
S 	S 	0.03666 0.57204 0.42856 0.01100
H 	H 	0.98195 0.57934 0.33041 0.04700
C 	C 	0.04492 0.47380 0.62972 0.01000
C 	C 	0.04893 0.49533 0.59074 -0.01400
S 	S 	0.06846 0.52309 0.61706 0.00800
C 	C 	0.07364 0.50904 0.67647 -0.00100
C 	C 	0.05899 0.48150 0.67787 -0.04800
C 	C 	0.00229 0.45417 0.58129 -0.01200
C 	C 	0.02139 0.45305 0.62499 0.00800
C 	C 	0.00872 0.43701 0.66771 -0.04500
C 	C 	0.97973 0.42608 0.65751 -0.00200
S 	S 	0.97039 0.43670 0.59723 0.00300
H 	H 	0.01853 0.43654 0.70629 0.05100
H 	H 	0.05524 0.46961 0.71393 0.04800
Co	Co	0.87223 0.37988 0.01647 1.18200
Co	Co	0.87462 0.44779 0.98839 1.09900
O 	O 	0.87073 0.33568 0.03194 -0.35500
O 	O 	0.91248 0.35479 0.05605 -0.31000
O 	O 	0.83261 0.39019 0.98604 -0.39500
O 	O 	0.89910 0.43711 0.05051 -0.46300
C 	C 	0.81801 0.41423 0.00044 0.29400
C 	C 	0.89641 0.33100 0.05394 0.28400
O 	O 	0.83295 0.43749 0.01740 -0.43000
O 	O 	0.86850 0.40094 0.08148 -0.42500
C 	C 	0.88635 0.42355 0.09008 0.30200
O 	O 	0.89622 0.38044 0.95354 -0.42100
O 	O 	0.87398 0.42300 0.92480 -0.44400
C 	C 	0.89324 0.40125 0.91795 0.29000
C 	C 	0.98587 0.93691 0.08178 0.10100
N 	N 	0.97294 0.96199 0.06409 -0.17200
C 	C 	0.94306 0.95910 0.07246 0.10100
C 	C 	0.92027 0.97969 0.05043 -0.07500
C 	C 	0.92742 0.01158 0.04594 0.09000
C 	C 	0.88945 0.96917 0.03837 0.04400
C 	C 	0.88470 0.94912 0.99747 -0.05800
C 	C 	0.85532 0.94086 0.98366 -0.02100
C 	C 	0.83050 0.95273 0.01049 -0.00400
C 	C 	0.86469 0.98032 0.06620 -0.05700
N 	N 	0.95041 0.02440 0.07183 -0.12800
C 	C 	0.91580 0.03037 0.00829 -0.06100
C 	C 	0.95307 0.05167 0.05094 0.09000
C 	C 	0.97381 0.07435 0.07179 -0.07500
C 	C 	0.96408 0.10565 0.07372 0.04500
C 	C 	0.92732 0.14249 0.10040 -0.02500
C 	C 	0.97883 0.12704 0.04320 -0.05900
C 	C 	0.96763 0.15600 0.04080 -0.02100
C 	C 	0.94148 0.16367 0.06856 -0.00300
N 	N 	0.01736 0.03997 0.08220 -0.17200
C 	C 	0.04486 0.04137 0.10440 0.10100
C 	C 	0.04789 0.06743 0.13256 -0.06100
C 	C 	0.02087 0.08253 0.12705 -0.06200
C 	C 	0.07037 0.02232 0.08772 -0.07400
C 	C 	0.10162 0.03405 0.08661 0.04400
C 	C 	0.15471 0.02810 0.10781 -0.02500
C 	C 	0.16187 0.05298 0.07709 -0.00300
C 	C 	0.13861 0.06855 0.05175 -0.02000
C 	C 	0.10867 0.05897 0.05613 -0.05900
N 	N 	0.04111 0.97522 0.09211 -0.12700
C 	C 	0.06473 0.94945 0.02879 -0.06100
C 	C 	0.04142 0.94978 0.06462 0.08900
C 	C 	0.01675 0.92771 0.06647 -0.07500
C 	C 	0.02358 0.89613 0.05663 0.04500
C 	C 	0.04483 0.88124 0.08765 -0.05700
C 	C 	0.05084 0.85123 0.07917 -0.02100
C 	C 	0.03551 0.83582 0.03979 -0.00300
C 	C 	0.01466 0.85087 0.00808 -0.02600
C 	C 	0.00875 0.88093 0.01644 -0.05900
C 	C 	0.96411 0.91785 0.10171 -0.06100
C 	C 	0.93668 0.93212 0.09576 -0.06200
C 	C 	0.83535 0.97211 0.05240 -0.02500
C 	C 	0.93210 0.05628 0.01182 -0.06100
C 	C 	0.00276 0.06497 0.09578 0.10100
C 	C 	0.07978 0.97592 0.03483 -0.06000
C 	C 	0.06486 0.99092 0.07406 0.08900
C 	C 	0.12472 0.01897 0.11309 -0.05600
H 	H 	0.98249 0.97588 0.03589 0.09500
H 	H 	0.01227 0.02729 0.04930 0.09500
H 	H 	0.06700 0.83983 0.10378 0.04700
H 	H 	0.00300 0.83926 0.97713 0.04000
H 	H 	0.05644 0.89284 0.11868 0.05100
H 	H 	0.99254 0.89235 0.99196 0.04800
H 	H 	0.85183 0.92571 0.95152 0.04600
H 	H 	0.86818 0.99560 0.09814 0.05000
H 	H 	0.81638 0.98093 0.07406 0.04200
H 	H 	0.90372 0.94032 0.97591 0.04800
H 	H 	0.97884 0.17226 0.01640 0.04700
H 	H 	0.99855 0.12107 0.02055 0.04900
C 	C 	0.93859 0.11360 0.10296 -0.05600
H 	H 	0.90741 0.14833 0.12267 0.04200
H 	H 	0.17242 0.01537 0.12647 0.04000
H 	H 	0.11951 0.99971 0.13673 0.05100
H 	H 	0.09103 0.07063 0.03520 0.04900
H 	H 	0.14378 0.08778 0.02799 0.04700
H 	H 	0.96675 0.89413 0.10619 0.05100
H 	H 	0.91495 0.92115 0.09511 0.05200
H 	H 	0.89458 0.02760 0.98794 0.05100
H 	H 	0.92517 0.07759 0.99646 0.05200
H 	H 	0.06913 0.07761 0.14328 0.05200
H 	H 	0.01809 0.10613 0.13283 0.05300
H 	H 	0.06527 0.93601 0.99391 0.05100
H 	H 	0.09381 0.98620 0.00533 0.05100
H 	H 	0.92718 0.09724 0.12685 0.05100
C 	C 	0.90406 0.24925 0.05274 0.09100
C 	C 	0.93389 0.24549 0.07021 0.09600
N 	N 	0.94557 0.21779 0.07497 -0.11400
C 	C 	0.92852 0.19358 0.06328 0.05000
C 	C 	0.89871 0.19739 0.04567 0.00200
N 	N 	0.88708 0.22515 0.04077 -0.10200
N 	N 	0.89240 0.27695 0.04787 -0.08800
N 	N 	0.95082 0.26959 0.08238 -0.11000
H 	H 	0.88499 0.17837 0.03568 0.04200
C 	C 	0.90937 0.30117 0.05979 -0.02200
C 	C 	0.93916 0.29736 0.07765 0.04200
H 	H 	0.95291 0.31634 0.08767 0.04700
C 	C 	0.91986 0.41835 0.78441 0.08500
C 	C 	0.94465 0.39914 0.77961 0.09600
N 	N 	0.96295 0.40116 0.73727 -0.11400
C 	C 	0.95737 0.42150 0.69918 0.05300
C 	C 	0.93214 0.44031 0.70361 0.00100
N 	N 	0.91392 0.43833 0.74613 -0.10700
N 	N 	0.90296 0.41793 0.82855 -0.09600
N 	N 	0.95109 0.37974 0.81860 -0.11200
H 	H 	0.92771 0.45711 0.67441 0.04200
C 	C 	0.90973 0.39898 0.86827 -0.03600
C 	C 	0.93409 0.37919 0.86277 0.04300
H 	H 	0.93991 0.36399 0.89391 0.04600
C 	C 	0.92286 0.46143 0.20114 0.08600
C 	C 	0.90213 0.45607 0.24155 0.09600
N 	N 	0.90637 0.46886 0.28889 -0.11300
C 	C 	0.93054 0.48686 0.29743 0.05400
C 	C 	0.95181 0.49133 0.25741 -0.00000
N 	N 	0.94741 0.47869 0.21001 -0.10700
N 	N 	0.91773 0.45008 0.15305 -0.09400
N 	N 	0.87749 0.43892 0.23249 -0.11200
H 	H 	0.97167 0.50481 0.26403 0.04300
C 	C 	0.89281 0.43328 0.14355 -0.03800
C 	C 	0.87245 0.42730 0.18435 0.04500
H 	H 	0.85240 0.41416 0.17747 0.04400
C 	C 	0.07482 0.76397 0.02252 0.09600
C 	C 	0.05070 0.74386 0.02633 0.08700
N 	N 	0.05618 0.71429 0.02446 -0.09600
C 	C 	0.08482 0.70386 0.01850 -0.03000
C 	C 	0.10893 0.72404 0.01413 0.04500
N 	N 	0.10342 0.75369 0.01635 -0.11200
N 	N 	0.06943 0.79353 0.02600 -0.11500
N 	N 	0.02212 0.75409 0.03280 -0.10700
H 	H 	0.13189 0.71619 0.00976 0.04400
C 	C 	0.04079 0.80386 0.03271 0.04900
C 	C 	0.01667 0.78369 0.03602 0.00100
H 	H 	0.99383 0.79153 0.04208 0.03900
C 	C 	0.10394 0.55229 0.78704 0.09600
C 	C 	0.07746 0.56483 0.80757 0.08400
N 	N 	0.07898 0.58209 0.85069 -0.10300
C 	C 	0.10590 0.58719 0.87468 -0.03900
C 	C 	0.13247 0.57496 0.85366 0.04700
N 	N 	0.13093 0.55777 0.81022 -0.11200
N 	N 	0.10230 0.53429 0.74475 -0.11300
N 	N 	0.05040 0.55892 0.78504 -0.11100
H 	H 	0.15413 0.57896 0.87191 0.04600
C 	C 	0.07514 0.52821 0.72236 0.05300
C 	C 	0.04870 0.54085 0.74285 -0.00100
H 	H 	0.02698 0.53632 0.72518 0.04000
C 	C 	0.07275 0.60562 0.23754 0.08700
C 	C 	0.06285 0.57665 0.24831 0.09500
N 	N 	0.04840 0.57078 0.29377 -0.11500
C 	C 	0.04330 0.59270 0.32903 0.05500
C 	C 	0.05409 0.62139 0.31911 0.00000
N 	N 	0.06859 0.62732 0.27347 -0.10300
N 	N 	0.08424 0.61221 0.18979 -0.08900
N 	N 	0.06570 0.55526 0.21156 -0.11400
H 	H 	0.05016 0.63905 0.34681 0.04400
C 	C 	0.08595 0.59103 0.15217 -0.03800
C 	C 	0.07710 0.56184 0.16374 0.04300
H 	H 	0.07866 0.54467 0.13445 0.03700
C 	C 	0.76191 0.90898 0.97942 0.09600
C 	C 	0.74082 0.93150 0.96907 0.09100
N 	N 	0.71162 0.92434 0.95905 -0.08800
C 	C 	0.70251 0.89552 0.95907 -0.02100
C 	C 	0.72381 0.87296 0.96827 0.04200
N 	N 	0.75306 0.88017 0.97841 -0.11100
N 	N 	0.79082 0.91621 0.99182 -0.11400
N 	N 	0.74957 0.96032 0.97063 -0.10200
H 	H 	0.71706 0.84990 0.96785 0.04600
C 	C 	0.79949 0.94513 0.99443 0.05100
C 	C 	0.77850 0.96759 0.98291 0.00200
H 	H 	0.78517 0.99067 0.98400 0.04200
C 	C 	0.55189 0.92798 0.76576 0.08500
C 	C 	0.55728 0.90571 0.72871 0.09600
N 	N 	0.54574 0.90846 0.67983 -0.11300
C 	C 	0.52906 0.93267 0.66650 0.05400
C 	C 	0.52475 0.95547 0.70303 -0.00100
N 	N 	0.53611 0.95257 0.75201 -0.10700
N 	N 	0.56106 0.92404 0.81579 -0.09400
N 	N 	0.57257 0.88086 0.74281 -0.11200
H 	H 	0.51192 0.97506 0.69276 0.04200
C 	C 	0.57568 0.89881 0.83043 -0.03800
C 	C 	0.58203 0.87701 0.79285 0.04600
H 	H 	0.59350 0.85673 0.80375 0.04600
C 	C 	0.57754 0.93517 0.20979 0.09500
C 	C 	0.59878 0.94461 0.17260 0.08800
N 	N 	0.60133 0.92988 0.12670 -0.08900
C 	C 	0.58327 0.90620 0.11612 -0.03700
C 	C 	0.56250 0.89640 0.15391 0.04000
N 	N 	0.56007 0.91110 0.19995 -0.11400
N 	N 	0.57350 0.95111 0.25409 -0.11400
N 	N 	0.61546 0.96933 0.18160 -0.10200
H 	H 	0.54825 0.87737 0.14653 0.03500
C 	C 	0.58972 0.97629 0.26264 0.05500
C 	C 	0.61133 0.98538 0.22587 0.00100
H 	H 	0.62432 0.00540 0.23203 0.04400
C 	C 	0.23274 0.07402 0.00909 0.09500
C 	C 	0.25406 0.07152 0.04941 0.08800
N 	N 	0.28392 0.07482 0.03871 -0.09100
C 	C 	0.29330 0.08129 0.98944 -0.03100
C 	C 	0.27185 0.08484 0.94954 0.04300
N 	N 	0.24201 0.08089 0.96009 -0.11200
N 	N 	0.20313 0.06864 0.01903 -0.11500
N 	N 	0.24474 0.06514 0.09858 -0.10400
H 	H 	0.27897 0.08981 0.91010 0.04300
C 	C 	0.19378 0.06128 0.06798 0.05000
C 	C 	0.21499 0.06038 0.10885 0.00100
H 	H 	0.20785 0.05572 0.14839 0.04100
C 	C 	0.40027 0.05455 0.69881 0.09500
C 	C 	0.37603 0.04103 0.72500 0.08400
N 	N 	0.36856 0.05003 0.77377 -0.09600
C 	C 	0.38426 0.07211 0.79764 -0.03700
C 	C 	0.40775 0.08643 0.77054 0.04200
N 	N 	0.41534 0.07726 0.72176 -0.11200
N 	N 	0.40995 0.04334 0.65263 -0.11400
N 	N 	0.36170 0.01759 0.70300 -0.10800
H 	H 	0.42054 0.10401 0.78881 0.04400
C 	C 	0.39631 0.01911 0.63150 0.05400
C 	C 	0.37131 0.00641 0.65672 -0.00100
H 	H 	0.36032 0.98708 0.64051 0.04100
C 	C 	0.43572 0.08839 0.15755 0.08800
C 	C 	0.46280 0.07218 0.15688 0.09600
N 	N 	0.47892 0.06876 0.20145 -0.11600
C 	C 	0.46907 0.08076 0.24704 0.05400
C 	C 	0.44210 0.09721 0.24759 0.00200
N 	N 	0.42595 0.10066 0.20282 -0.10200
N 	N 	0.41920 0.09118 0.11315 -0.08700
N 	N 	0.47246 0.05964 0.11186 -0.11500
H 	H 	0.43414 0.10728 0.28330 0.04500
C 	C 	0.42861 0.07819 0.06806 -0.03600
C 	C 	0.45594 0.06231 0.06745 0.04200
H 	H 	0.46396 0.05214 0.03186 0.03300
C 	C 	0.44190 0.25083 0.92459 0.09600
C 	C 	0.41128 0.24601 0.93618 0.09100
N 	N 	0.40110 0.21801 0.94439 -0.08800
C 	C 	0.42028 0.19449 0.94159 -0.02200
C 	C 	0.45100 0.19937 0.93054 0.04300
N 	N 	0.46117 0.22745 0.92213 -0.11000
N 	N 	0.45198 0.27881 0.91548 -0.11400
N 	N 	0.39202 0.26936 0.93882 -0.10200
H 	H 	0.46665 0.18097 0.92850 0.04600
C 	C 	0.43261 0.30224 0.91741 0.05100
C 	C 	0.40208 0.29738 0.92986 0.00300
H 	H 	0.38650 0.31582 0.93244 0.04300
C 	C 	0.26535 0.60077 0.01423 0.08900
C 	C 	0.27348 0.57173 0.02835 0.09700
N 	N 	0.30057 0.56064 0.01319 -0.11500
C 	C 	0.32007 0.57745 0.98469 0.05100
C 	C 	0.31239 0.60684 0.97221 0.00100
N 	N 	0.28512 0.61788 0.98708 -0.10300
N 	N 	0.23705 0.61078 0.02462 -0.08900
N 	N 	0.25340 0.55429 0.05405 -0.11100
H 	H 	0.32758 0.62043 0.94930 0.04100
C 	C 	0.21647 0.59288 0.04851 -0.02300
C 	C 	0.22513 0.56433 0.06468 0.04300
H 	H 	0.20918 0.54996 0.08438 0.04400
C 	C 	0.74206 0.40607 0.94209 0.08900
C 	C 	0.72483 0.42501 0.97373 0.09500
N 	N 	0.69579 0.43117 0.96068 -0.11500
C 	C 	0.68327 0.41937 0.91696 0.05000
C 	C 	0.70027 0.39982 0.88609 0.00100
N 	N 	0.72934 0.39358 0.89927 -0.10300
N 	N 	0.77181 0.40182 0.95272 -0.08800
N 	N 	0.73786 0.43844 0.01533 -0.11400
H 	H 	0.69056 0.39014 0.85134 0.04300
C 	C 	0.78515 0.41605 0.99342 -0.03100
C 	C 	0.76766 0.43434 0.02585 0.04100
H 	H 	0.77782 0.44550 0.05878 0.03800
C 	C 	0.56223 0.73177 0.94787 0.09500
C 	C 	0.54772 0.75176 0.91410 0.08700
N 	N 	0.55099 0.78137 0.92142 -0.09200
C 	C 	0.56847 0.79194 0.96089 -0.03300
C 	C 	0.58310 0.77189 0.99453 0.04400
N 	N 	0.57961 0.74220 0.98739 -0.11200
N 	N 	0.55887 0.70213 0.94064 -0.11500
N 	N 	0.53062 0.74136 0.87422 -0.10600
H 	H 	0.59687 0.77986 0.02642 0.04300
C 	C 	0.54180 0.69167 0.90054 0.04900
C 	C 	0.52742 0.71170 0.86669 0.00000
H 	H 	0.51368 0.70368 0.83479 0.04000
