data_crystal

_cell_length_a 41.85280
_cell_length_b 42.23328
_cell_length_c 31.86872
_cell_angle_alpha 89.96528
_cell_angle_beta  89.95270
_cell_angle_gamma 87.79490

_symmetry_space_group_name_	'P 1'
_symmetry_space_group_name_H-M	'P 1'

loop_
_symmetry_equiv_pos_as_xyz
  x,y,z

loop_
_atom_site_label
_atom_site_type_symbol
_atom_site_fract_x
_atom_site_fract_y
_atom_site_fract_z
_atom_site_charge
C 	C 	0.46783 0.54269 0.01614 -0.04000
C 	C 	0.49981 0.55080 0.01479 -0.03900
C 	C 	0.45941 0.51077 0.01294 0.00800
C 	C 	0.48377 0.48674 0.00989 -0.00700
C 	C 	0.51618 0.49500 0.00752 -0.00400
C 	C 	0.52430 0.52724 0.01027 0.00500
C 	C 	0.47573 0.45444 0.00878 0.00700
C 	C 	0.50019 0.43086 0.00418 -0.04000
C 	C 	0.54041 0.47109 0.00193 0.00300
C 	C 	0.55685 0.53522 0.00802 -0.00500
C 	C 	0.58052 0.51143 0.00166 -0.05500
C 	C 	0.57260 0.47970 0.99776 -0.00200
C 	C 	0.42700 0.50239 0.01289 -0.00900
C 	C 	0.41928 0.47048 0.01322 -0.04700
C 	C 	0.44320 0.44646 0.01169 -0.00900
C 	C 	0.56671 0.56837 0.01199 0.01000
C 	C 	0.57506 0.58536 0.97601 -0.04300
C 	C 	0.59024 0.61416 0.97985 -0.03200
C 	C 	0.59710 0.62623 0.01972 -0.00700
C 	C 	0.58727 0.61006 0.05569 -0.03500
C 	C 	0.57221 0.58119 0.05184 -0.04500
C 	C 	0.59815 0.45603 0.98734 0.01500
C 	C 	0.61578 0.44092 0.01946 -0.04800
C 	C 	0.64176 0.42053 0.00960 -0.03800
C 	C 	0.60631 0.45027 0.94529 -0.04500
C 	C 	0.63240 0.43004 0.93540 -0.03500
C 	C 	0.65047 0.41538 0.96754 -0.00200
C 	C 	0.40087 0.52671 0.01013 0.01200
C 	C 	0.38337 0.53546 0.04608 -0.04600
C 	C 	0.35808 0.55790 0.04323 -0.03500
C 	C 	0.35012 0.57170 0.00437 -0.00700
C 	C 	0.36766 0.56292 0.96841 -0.03200
C 	C 	0.39289 0.54042 0.97127 -0.04300
C 	C 	0.43363 0.41313 0.01394 0.01100
C 	C 	0.42100 0.39863 0.97833 -0.04400
C 	C 	0.40518 0.37018 0.98221 -0.03100
C 	C 	0.40188 0.35603 0.02176 -0.00800
C 	C 	0.41631 0.36948 0.05691 -0.03400
C 	C 	0.43210 0.39794 0.05301 -0.04600
C 	C 	0.53205 0.43907 0.00059 -0.04300
H 	H 	0.57090 0.57566 0.94512 0.04100
H 	H 	0.59751 0.62660 0.95190 0.03900
H 	H 	0.59232 0.61927 0.08660 0.03700
H 	H 	0.56586 0.56823 0.07979 0.04100
H 	H 	0.36176 0.57356 0.93832 0.03800
H 	H 	0.40626 0.53365 0.94335 0.04200
H 	H 	0.34458 0.56448 0.07113 0.03700
H 	H 	0.38935 0.52483 0.07616 0.04000
H 	H 	0.42214 0.41015 0.94801 0.04100
H 	H 	0.39433 0.35988 0.95482 0.03800
H 	H 	0.44188 0.40890 0.08066 0.04100
H 	H 	0.41428 0.35851 0.08749 0.03700
H 	H 	0.60958 0.44528 0.05201 0.04100
H 	H 	0.65539 0.40906 0.03461 0.03800
H 	H 	0.59278 0.46194 0.92034 0.04200
H 	H 	0.63895 0.42621 0.90284 0.03800
H 	H 	0.44967 0.56140 0.02007 0.04100
H 	H 	0.50535 0.57556 0.01706 0.04100
H 	H 	0.60534 0.51773 0.99917 0.04800
H 	H 	0.55020 0.42031 0.99700 0.04400
H 	H 	0.49466 0.40605 0.00288 0.04000
H 	H 	0.39437 0.46427 0.01428 0.04300
Zn	Zn	0.30291 0.18650 0.03051 1.21800
C 	C 	0.31369 0.18155 0.11996 0.32300
O 	O 	0.25755 0.17712 0.02150 -0.46700
O 	O 	0.30297 0.21116 0.12290 -0.45200
O 	O 	0.24143 0.19015 0.08754 -0.49600
C 	C 	0.31833 0.25154 0.04181 0.32700
O 	O 	0.33011 0.22232 0.04042 -0.45600
O 	O 	0.28797 0.25694 0.05060 -0.51100
C 	C 	0.23749 0.17409 0.05285 0.31700
O 	O 	0.30800 0.19773 0.95821 -0.32900
Zn	Zn	0.26509 0.22880 0.08750 1.16900
O 	O 	0.30964 0.16548 0.08509 -0.44000
C 	C 	0.32339 0.17049 0.95618 0.28200
O 	O 	0.32637 0.15529 0.99137 -0.38500
C 	C 	0.50279 0.02421 0.49295 0.01000
C 	C 	0.52721 0.99978 0.49130 0.01100
C 	C 	0.49727 0.04115 0.53038 -0.05400
C 	C 	0.51594 0.03411 0.56612 0.01000
C 	C 	0.54565 0.99259 0.52709 -0.05500
C 	C 	0.54024 0.00960 0.56445 0.01100
H 	H 	0.56515 0.97501 0.52527 0.05000
H 	H 	0.47974 0.06069 0.53109 0.05000
C 	C 	0.56009 0.00440 0.59981 -0.01300
C 	C 	0.55496 0.02125 0.63728 0.00700
C 	C 	0.56796 0.00524 0.67310 -0.05500
C 	C 	0.58311 0.97603 0.66319 0.00300
S 	S 	0.57899 0.97006 0.61176 -0.00900
H 	H 	0.56382 0.01301 0.70505 0.04300
C 	C 	0.51276 0.05249 0.60302 -0.01300
C 	C 	0.53120 0.04556 0.63883 0.00800
C 	C 	0.51741 0.05813 0.67640 -0.05500
C 	C 	0.48829 0.07474 0.66946 0.00300
S 	S 	0.47951 0.07235 0.61846 -0.00900
H 	H 	0.52678 0.05321 0.70744 0.04300
C 	C 	0.49104 0.01505 0.41857 0.00800
C 	C 	0.48620 0.03241 0.45559 -0.01300
S 	S 	0.45016 0.05059 0.45271 -0.01000
C 	C 	0.43987 0.03772 0.40503 0.00300
C 	C 	0.46515 0.01823 0.38990 -0.05400
C 	C 	0.53389 0.98486 0.45243 -0.01400
C 	C 	0.51506 0.99116 0.41702 0.00800
C 	C 	0.51744 0.96689 0.38621 -0.05500
C 	C 	0.53792 0.94137 0.39815 0.00200
S 	S 	0.55231 0.94952 0.44575 -0.00800
H 	H 	0.50671 0.96889 0.35538 0.04400
H 	H 	0.46565 0.00842 0.35852 0.04500
Zn	Zn	0.69147 0.79838 0.02552 1.21900
C 	C 	0.67882 0.80726 0.11417 0.32400
O 	O 	0.73705 0.80663 0.01677 -0.46700
O 	O 	0.68951 0.77797 0.12055 -0.45200
O 	O 	0.75156 0.79778 0.08457 -0.49400
C 	C 	0.67596 0.73395 0.04125 0.32500
O 	O 	0.66409 0.76301 0.03714 -0.45700
O 	O 	0.70600 0.72905 0.05214 -0.51100
C 	C 	0.75611 0.81188 0.04850 0.31500
O 	O 	0.68661 0.78601 0.95331 -0.32600
Zn	Zn	0.72807 0.75893 0.08754 1.16900
O 	O 	0.68458 0.82150 0.07840 -0.44300
C 	C 	0.67144 0.81336 0.95076 0.28400
O 	O 	0.66868 0.82904 0.98551 -0.38500
Zn	Zn	0.18266 0.67955 0.96291 1.22200
C 	C 	0.16630 0.68768 0.05024 0.32100
O 	O 	0.15648 0.71899 0.96188 -0.44900
O 	O 	0.17791 0.71615 0.04815 -0.45300
O 	O 	0.19986 0.74899 0.96993 -0.51000
C 	C 	0.24584 0.66399 0.99410 0.32300
O 	O 	0.22769 0.66574 0.96052 -0.47100
O 	O 	0.24078 0.68390 0.02514 -0.50000
C 	C 	0.16945 0.74677 0.96098 0.32900
O 	O 	0.18334 0.67928 0.88869 -0.32600
Zn	Zn	0.21935 0.72462 0.01565 1.17000
O 	O 	0.17327 0.66667 0.02080 -0.44200
C 	C 	0.16340 0.65661 0.89204 0.28200
O 	O 	0.15601 0.64877 0.93002 -0.38700
C 	C 	0.96937 0.54881 0.49645 0.01000
C 	C 	0.94695 0.52433 0.49461 0.01100
C 	C 	0.97466 0.56761 0.46087 -0.05400
C 	C 	0.95796 0.56212 0.42344 0.01000
C 	C 	0.92975 0.51937 0.45756 -0.05500
C 	C 	0.93520 0.53795 0.42190 0.01100
H 	H 	0.91133 0.50204 0.45700 0.05000
H 	H 	0.99066 0.58712 0.46275 0.05000
C 	C 	0.91734 0.53419 0.38479 -0.01300
C 	C 	0.92370 0.55151 0.34837 0.00700
C 	C 	0.91309 0.53672 0.31100 -0.05500
C 	C 	0.89834 0.50806 0.31882 0.00300
S 	S 	0.90011 0.50094 0.37027 -0.01000
H 	H 	0.91817 0.54511 0.27972 0.04200
C 	C 	0.96196 0.58132 0.38763 -0.01300
C 	C 	0.94617 0.57526 0.34980 0.00700
C 	C 	0.96154 0.58802 0.31407 -0.05500
C 	C 	0.98911 0.60407 0.32446 0.00200
S 	S 	0.99480 0.60083 0.37615 -0.00900
H 	H 	0.95470 0.58327 0.28203 0.04300
C 	C 	0.98078 0.53487 0.56987 0.00800
C 	C 	0.98461 0.55468 0.53511 -0.01300
S 	S 	0.01899 0.57290 0.54112 -0.01000
C 	C 	0.02971 0.55702 0.58743 0.00300
C 	C 	0.00596 0.53641 0.59960 -0.05400
C 	C 	0.94116 0.50659 0.53124 -0.01300
C 	C 	0.95901 0.51059 0.56787 0.00800
C 	C 	0.95931 0.48378 0.59489 -0.05400
C 	C 	0.94225 0.45866 0.57862 0.00300
S 	S 	0.92707 0.47019 0.53229 -0.01000
H 	H 	0.96995 0.48334 0.62584 0.04500
H 	H 	0.00590 0.52454 0.62971 0.04500
Zn	Zn	0.82717 0.31787 0.95401 1.22200
C 	C 	0.83644 0.31466 0.86445 0.32600
O 	O 	0.78271 0.33178 0.96481 -0.46700
O 	O 	0.82379 0.28665 0.86417 -0.44900
O 	O 	0.76445 0.31798 0.90049 -0.49300
C 	C 	0.83788 0.25094 0.95226 0.32800
O 	O 	0.85159 0.27817 0.94783 -0.46000
O 	O 	0.80746 0.24864 0.94321 -0.51000
C 	C 	0.76162 0.33527 0.93456 0.31900
O 	O 	0.83561 0.31318 0.02729 -0.32800
Zn	Zn	0.78577 0.27638 0.90257 1.17100
O 	O 	0.83187 0.33372 0.89665 -0.44200
C 	C 	0.85178 0.33863 0.02307 0.28000
O 	O 	0.85317 0.34985 0.98536 -0.38600
C 	C 	0.93581 0.99155 0.03274 -0.04100
C 	C 	0.94264 0.02357 0.03539 -0.04000
C 	C 	0.96034 0.96855 0.02468 0.00800
C 	C 	0.99234 0.97811 0.02113 -0.00800
C 	C 	0.99937 0.01044 0.02569 -0.00600
C 	C 	0.97423 0.03340 0.03070 0.00700
C 	C 	0.01726 0.95545 0.01272 0.00900
C 	C 	0.04914 0.96514 0.01121 -0.04200
C 	C 	0.03150 0.01984 0.02434 0.00600
C 	C 	0.98116 0.06589 0.03101 -0.00900
C 	C 	0.01296 0.07490 0.03244 -0.04700
C 	C 	0.03818 0.05229 0.02928 -0.00900
C 	C 	0.95357 0.93610 0.01991 -0.01000
C 	C 	0.97825 0.91412 0.00983 -0.04500
C 	C 	0.00982 0.92344 0.00599 -0.01400
C 	C 	0.95588 0.09047 0.02318 0.01200
C 	C 	0.94322 0.09431 0.98270 -0.04400
C 	C 	0.92194 0.11968 0.97388 -0.03000
C 	C 	0.91314 0.14142 0.00549 -0.01100
C 	C 	0.92509 0.13705 0.04631 -0.03300
C 	C 	0.94647 0.11168 0.05510 -0.04700
C 	C 	0.07136 0.06319 0.03036 0.01100
C 	C 	0.08837 0.06277 0.06827 -0.04600
C 	C 	0.11731 0.07814 0.07128 -0.03400
C 	C 	0.08422 0.07783 0.99495 -0.04400
C 	C 	0.11309 0.09331 0.99797 -0.03100
C 	C 	0.12935 0.09422 0.03643 -0.00800
C 	C 	0.92105 0.92443 0.02661 0.01200
C 	C 	0.91413 0.90795 0.06355 -0.04600
C 	C 	0.88561 0.89196 0.06711 -0.03400
C 	C 	0.86352 0.89261 0.03392 -0.00800
C 	C 	0.86982 0.91033 0.99770 -0.03100
C 	C 	0.89861 0.92590 0.99391 -0.04400
C 	C 	0.03482 0.89937 0.99498 0.02200
C 	C 	0.04278 0.89381 0.95280 -0.04800
C 	C 	0.06617 0.87064 0.94237 -0.03400
C 	C 	0.08170 0.85293 0.97410 -0.00300
C 	C 	0.07372 0.85856 0.01628 -0.03600
C 	C 	0.05031 0.88166 0.02667 -0.05100
C 	C 	0.05616 0.99684 0.01726 -0.04000
H 	H 	0.95048 0.07806 0.95787 0.04200
H 	H 	0.91288 0.12290 0.94226 0.03600
H 	H 	0.91823 0.15360 0.07099 0.03700
H 	H 	0.95617 0.10884 0.08644 0.04100
H 	H 	0.85276 0.91145 0.97215 0.03800
H 	H 	0.90379 0.93850 0.96522 0.04100
H 	H 	0.88111 0.87833 0.09516 0.03600
H 	H 	0.93138 0.90657 0.08887 0.04100
H 	H 	0.03082 0.90741 0.92818 0.04300
H 	H 	0.07218 0.86640 0.90973 0.03800
H 	H 	0.04420 0.88581 0.05929 0.04200
H 	H 	0.08548 0.84484 0.04094 0.03600
H 	H 	0.07865 0.05146 0.09574 0.04100
H 	H 	0.12988 0.07835 0.10098 0.03700
H 	H 	0.07125 0.07823 0.96554 0.04200
H 	H 	0.12221 0.10554 0.97084 0.03800
H 	H 	0.91130 0.98481 0.03675 0.04100
H 	H 	0.92329 0.04065 0.04175 0.04100
H 	H 	0.01813 0.09985 0.03416 0.04300
H 	H 	0.08088 0.00342 0.01579 0.04100
H 	H 	0.06869 0.94818 0.00550 0.04100
H 	H 	0.97286 0.88942 0.00532 0.04300
C 	C 	0.84416 0.19261 0.96479 0.02200
C 	C 	0.85652 0.22300 0.96796 -0.10200
C 	C 	0.88685 0.22655 0.98589 0.02400
C 	C 	0.90493 0.19996 0.99932 -0.06800
C 	C 	0.89283 0.16961 0.99521 0.03400
C 	C 	0.86220 0.16609 0.97848 -0.07300
H 	H 	0.82079 0.18945 0.95119 0.02400
H 	H 	0.89653 0.24983 0.98920 0.03800
H 	H 	0.92860 0.20289 0.01216 0.04600
H 	H 	0.85261 0.14274 0.97541 0.04600
C 	C 	0.90077 0.39270 0.66251 0.08400
C 	C 	0.88111 0.41411 0.63985 -0.06700
C 	C 	0.89450 0.43522 0.61165 -0.02400
C 	C 	0.92775 0.43472 0.60542 0.00200
C 	C 	0.94735 0.41248 0.62693 -0.02600
C 	C 	0.93394 0.39138 0.65516 -0.06400
H 	H 	0.85552 0.41503 0.64507 0.05300
H 	H 	0.87913 0.45249 0.59554 0.03900
H 	H 	0.97301 0.41179 0.62214 0.03700
H 	H 	0.94931 0.37434 0.67165 0.05600
N 	N 	0.88708 0.37341 0.69366 -0.08600
N 	N 	0.90281 0.36475 0.72513 -0.09000
C 	C 	0.85526 0.32510 0.82831 -0.10800
C 	C 	0.88138 0.34443 0.83465 0.03900
C 	C 	0.89764 0.35666 0.80034 -0.09600
C 	C 	0.88774 0.35007 0.75945 0.10600
C 	C 	0.86252 0.32957 0.75296 -0.09500
C 	C 	0.84632 0.31717 0.78729 0.03700
H 	H 	0.88888 0.35023 0.86617 0.03000
H 	H 	0.91743 0.37198 0.80551 0.06200
H 	H 	0.85526 0.32362 0.72142 0.06200
H 	H 	0.82636 0.30209 0.78199 0.02100
C 	C 	0.88120 0.39522 0.12644 0.10000
C 	C 	0.89711 0.39666 0.08788 -0.09100
C 	C 	0.88825 0.37738 0.05456 0.02700
C 	C 	0.86325 0.35645 0.05947 -0.08800
C 	C 	0.84792 0.35424 0.09852 0.02600
C 	C 	0.85666 0.37367 0.13178 -0.08700
H 	H 	0.91597 0.41320 0.08351 0.05800
H 	H 	0.90051 0.37906 0.02473 0.03400
H 	H 	0.82856 0.33823 0.10274 0.03600
H 	H 	0.84388 0.37249 0.16126 0.06200
N 	N 	0.88831 0.41728 0.15839 -0.08900
N 	N 	0.88014 0.41282 0.19550 -0.08700
C 	C 	0.89420 0.48310 0.28720 0.00100
C 	C 	0.86674 0.46506 0.28813 -0.02500
C 	C 	0.86241 0.44156 0.25802 -0.06800
C 	C 	0.88529 0.43607 0.22655 0.08400
C 	C 	0.91326 0.45347 0.22624 -0.06400
C 	C 	0.91768 0.47691 0.25643 -0.02600
H 	H 	0.84862 0.46945 0.31194 0.03700
H 	H 	0.84104 0.42791 0.25876 0.05200
H 	H 	0.93153 0.44877 0.20274 0.05500
H 	H 	0.93943 0.49000 0.25611 0.03600
C 	C 	0.15908 0.80470 0.97259 0.02200
C 	C 	0.14891 0.77575 0.95659 -0.10400
C 	C 	0.11769 0.77391 0.94082 0.02600
C 	C 	0.09614 0.79987 0.94431 -0.07100
C 	C 	0.10568 0.82791 0.96329 0.03100
C 	C 	0.13751 0.83062 0.97598 -0.07300
H 	H 	0.18323 0.80671 0.98417 0.01700
H 	H 	0.10977 0.75205 0.92724 0.03800
H 	H 	0.07169 0.79776 0.93385 0.04900
H 	H 	0.14519 0.85241 0.99001 0.04500
C 	C 	0.08448 0.60074 0.68296 0.08400
C 	C 	0.06285 0.61910 0.65881 -0.06700
C 	C 	0.04564 0.60514 0.62659 -0.02400
C 	C 	0.05034 0.57269 0.61786 0.00200
C 	C 	0.07293 0.55456 0.64099 -0.02600
C 	C 	0.09008 0.56853 0.67324 -0.06400
H 	H 	0.05876 0.64403 0.66577 0.05300
H 	H 	0.02803 0.61934 0.60928 0.03900
H 	H 	0.07682 0.52954 0.63440 0.03700
H 	H 	0.10743 0.55431 0.69093 0.05600
N 	N 	0.10040 0.61479 0.71707 -0.08600
N 	N 	0.10674 0.59925 0.74951 -0.08900
C 	C 	0.14913 0.64157 0.85496 -0.08700
C 	C 	0.12857 0.61630 0.86004 0.02700
C 	C 	0.11471 0.60241 0.82502 -0.09100
C 	C 	0.12096 0.61370 0.78467 0.10100
C 	C 	0.14200 0.63856 0.77937 -0.08700
C 	C 	0.15590 0.65251 0.81435 0.02500
H 	H 	0.12331 0.60740 0.89107 0.03900
H 	H 	0.09889 0.58295 0.82926 0.06000
H 	H 	0.14768 0.64696 0.74823 0.06300
H 	H 	0.17188 0.67179 0.80983 0.03800
C 	C 	0.06100 0.62410 0.23386 0.08400
C 	C 	0.04881 0.59373 0.23609 -0.06700
C 	C 	0.02573 0.58689 0.26617 -0.02500
C 	C 	0.01489 0.61040 0.29453 0.00200
C 	C 	0.02811 0.64039 0.29345 -0.02600
C 	C 	0.05109 0.64724 0.26326 -0.06400
H 	H 	0.05683 0.57561 0.21403 0.05100
H 	H 	0.01618 0.56342 0.26732 0.03700
H 	H 	0.02019 0.65855 0.31554 0.03700
H 	H 	0.06105 0.67053 0.26251 0.05400
N 	N 	0.08342 0.63115 0.20221 -0.08700
N 	N 	0.08154 0.65707 0.18340 -0.09000
C 	C 	0.14489 0.67953 0.08523 -0.10600
C 	C 	0.12978 0.70363 0.10932 0.03400
C 	C 	0.10924 0.69598 0.14209 -0.09700
C 	C 	0.10364 0.66427 0.15132 0.10300
C 	C 	0.11854 0.64008 0.12711 -0.09200
C 	C 	0.13920 0.64768 0.09441 0.03400
H 	H 	0.13362 0.72831 0.10239 0.02800
H 	H 	0.09750 0.71473 0.16023 0.05800
H 	H 	0.11387 0.61547 0.13333 0.06300
H 	H 	0.15071 0.62880 0.07624 0.03500
C 	C 	0.78852 0.85592 0.07510 0.02100
C 	C 	0.78255 0.83363 0.04368 -0.10100
C 	C 	0.80230 0.83179 0.00808 0.01700
C 	C 	0.82838 0.85139 0.00454 -0.07300
C 	C 	0.83465 0.87341 0.03626 0.03100
C 	C 	0.81427 0.87589 0.07125 -0.07100
H 	H 	0.77318 0.85781 0.10246 0.03100
H 	H 	0.79790 0.81469 0.98364 0.03100
H 	H 	0.84405 0.84905 0.97755 0.04900
H 	H 	0.81858 0.89306 0.09565 0.04600
C 	C 	0.64170 0.85619 0.83472 0.10200
C 	C 	0.66648 0.83295 0.83516 -0.09100
C 	C 	0.67553 0.81809 0.87281 0.02800
C 	C 	0.66014 0.82680 0.91050 -0.08800
C 	C 	0.63495 0.84974 0.90990 0.02800
C 	C 	0.62584 0.86443 0.87225 -0.08800
H 	H 	0.67903 0.82673 0.80641 0.05900
H 	H 	0.69507 0.80051 0.87283 0.03600
H 	H 	0.62271 0.85650 0.93868 0.03700
H 	H 	0.60701 0.88275 0.87239 0.06300
N 	N 	0.63489 0.87331 0.79734 -0.08900
N 	N 	0.60685 0.88191 0.78848 -0.08600
C 	C 	0.58827 0.95006 0.69360 0.00200
C 	C 	0.56497 0.94393 0.72397 -0.02500
C 	C 	0.57098 0.92075 0.75458 -0.06700
C 	C 	0.60022 0.90352 0.75518 0.08300
C 	C 	0.62293 0.90852 0.72347 -0.06300
C 	C 	0.61696 0.93177 0.69291 -0.02600
H 	H 	0.54232 0.95724 0.72406 0.03700
H 	H 	0.55315 0.91662 0.77842 0.05200
H 	H 	0.64525 0.89469 0.72275 0.05600
H 	H 	0.63486 0.93597 0.66918 0.03800
C 	C 	0.58997 0.88524 0.30764 0.08300
C 	C 	0.57264 0.87057 0.33933 -0.06700
C 	C 	0.55577 0.88892 0.36914 -0.02500
C 	C 	0.55627 0.92208 0.36749 0.00200
C 	C 	0.57444 0.93676 0.33654 -0.02600
C 	C 	0.59130 0.91845 0.30684 -0.06300
H 	H 	0.57197 0.84497 0.34056 0.05100
H 	H 	0.54213 0.87739 0.39325 0.03800
H 	H 	0.57555 0.96234 0.33560 0.03800
H 	H 	0.60545 0.93001 0.28331 0.05500
N 	N 	0.60666 0.86649 0.27726 -0.08700
N 	N 	0.60952 0.87628 0.24058 -0.09000
C 	C 	0.66178 0.82484 0.14796 -0.10800
C 	C 	0.66218 0.85807 0.14926 0.03600
C 	C 	0.64519 0.87487 0.18034 -0.09600
C 	C 	0.62796 0.85874 0.21070 0.10400
C 	C 	0.62754 0.82549 0.20962 -0.09400
C 	C 	0.64449 0.80860 0.17847 0.03300
H 	H 	0.67563 0.87091 0.12619 0.03400
H 	H 	0.64536 0.90051 0.18081 0.06000
H 	H 	0.61371 0.81282 0.23244 0.06200
H 	H 	0.64369 0.78300 0.17762 0.02800
C 	C 	0.18228 0.15930 0.07303 0.02100
C 	C 	0.20985 0.15353 0.04857 -0.10200
C 	C 	0.21102 0.12790 0.02040 0.02400
C 	C 	0.18491 0.10833 0.01674 -0.07500
C 	C 	0.15738 0.11421 0.04116 0.03200
C 	C 	0.15620 0.13978 0.06928 -0.07300
H 	H 	0.18089 0.17909 0.09464 0.02000
H 	H 	0.23221 0.12297 0.00160 0.03400
H 	H 	0.18608 0.08861 0.99499 0.05100
H 	H 	0.13495 0.14472 0.08795 0.04500
C 	C 	0.36846 0.13684 0.84288 0.10100
C 	C 	0.35531 0.16776 0.84505 -0.09100
C 	C 	0.34044 0.17871 0.88186 0.02600
C 	C 	0.33837 0.15865 0.91690 -0.08700
C 	C 	0.35087 0.12733 0.91435 0.02600
C 	C 	0.36571 0.11643 0.87747 -0.08700
H 	H 	0.35699 0.18347 0.81832 0.05900
H 	H 	0.33082 0.20286 0.88323 0.03700
H 	H 	0.34903 0.11142 0.94083 0.03900
H 	H 	0.37500 0.09217 0.87577 0.06300
N 	N 	0.38411 0.12638 0.80559 -0.08900
N 	N 	0.40629 0.10581 0.80688 -0.08600
C 	C 	0.46431 0.08161 0.70240 0.00200
C 	C 	0.45812 0.05889 0.73328 -0.02500
C 	C 	0.43804 0.06674 0.76709 -0.06700
C 	C 	0.42366 0.09714 0.77013 0.08400
C 	C 	0.42905 0.11959 0.73851 -0.06400
C 	C 	0.44911 0.11173 0.70466 -0.02600
H 	H 	0.46926 0.03535 0.73146 0.03700
H 	H 	0.43407 0.04936 0.79136 0.05200
H 	H 	0.41844 0.14332 0.74077 0.05600
H 	H 	0.45366 0.12940 0.68095 0.03800
C 	C 	0.38184 0.08721 0.31435 0.08300
C 	C 	0.37695 0.05525 0.32294 -0.06700
C 	C 	0.39502 0.03940 0.35391 -0.02600
C 	C 	0.41784 0.05554 0.37694 0.00200
C 	C 	0.42181 0.08795 0.36955 -0.02600
C 	C 	0.40373 0.10378 0.33859 -0.06400
H 	H 	0.35974 0.04249 0.30486 0.05100
H 	H 	0.39180 0.01440 0.35937 0.03700
H 	H 	0.43952 0.10063 0.38690 0.03900
H 	H 	0.40706 0.12874 0.33302 0.05500
N 	N 	0.36472 0.10249 0.28120 -0.08600
N 	N 	0.37727 0.12345 0.25987 -0.09000
C 	C 	0.33028 0.16634 0.15592 -0.10700
C 	C 	0.34821 0.18452 0.18354 0.03500
C 	C 	0.36348 0.17024 0.21808 -0.09700
C 	C 	0.36068 0.13783 0.22568 0.10400
C 	C 	0.34308 0.11949 0.19784 -0.09300
C 	C 	0.32789 0.13370 0.16317 0.03500
H 	H 	0.35056 0.20965 0.17805 0.02900
H 	H 	0.37748 0.18438 0.23902 0.05900
H 	H 	0.34140 0.09425 0.20291 0.06300
H 	H 	0.31409 0.11940 0.14218 0.03300
C 	C 	0.33210 0.30770 0.05529 0.02200
C 	C 	0.33960 0.27838 0.03615 -0.10100
C 	C 	0.36777 0.27462 0.01229 0.02200
C 	C 	0.38820 0.29990 0.00774 -0.07400
C 	C 	0.38070 0.32911 0.02706 0.03200
C 	C 	0.35254 0.33290 0.05075 -0.07300
H 	H 	0.31062 0.31090 0.07403 0.01900
H 	H 	0.37376 0.25224 0.99709 0.03900
H 	H 	0.40983 0.29678 0.98926 0.05100
H 	H 	0.34643 0.35542 0.06554 0.04500
C 	C 	0.32508 0.62423 0.02300 -0.07100
C 	C 	0.32355 0.59543 0.00138 0.02700
C 	C 	0.29660 0.58929 0.97699 -0.06700
C 	C 	0.27130 0.61175 0.97436 0.02200
C 	C 	0.27272 0.64054 0.99620 -0.10100
C 	C 	0.29979 0.64668 0.02047 0.01800
H 	H 	0.34592 0.62924 0.04166 0.04400
H 	H 	0.29519 0.56703 0.96033 0.04800
H 	H 	0.25046 0.60662 0.95579 0.03400
H 	H 	0.30134 0.66892 0.03713 0.01900
C 	C 	0.70919 0.40401 0.97230 -0.07000
C 	C 	0.67918 0.39564 0.95726 0.03100
C 	C 	0.67659 0.36825 0.93281 -0.07200
C 	C 	0.70370 0.34900 0.92424 0.02100
C 	C 	0.73360 0.35691 0.94029 -0.10400
C 	C 	0.73626 0.38470 0.96396 0.02500
H 	H 	0.71147 0.42538 0.99069 0.04900
H 	H 	0.65351 0.36164 0.92101 0.04500
H 	H 	0.70133 0.32755 0.90607 0.01600
H 	H 	0.75927 0.39123 0.97608 0.03500
C 	C 	0.60352 0.68299 0.03875 -0.07100
C 	C 	0.61696 0.65421 0.02381 0.03100
C 	C 	0.64959 0.65187 0.01370 -0.07200
C 	C 	0.66876 0.67798 0.01895 0.02100
C 	C 	0.65545 0.70676 0.03424 -0.10200
C 	C 	0.62265 0.70920 0.04381 0.02200
H 	H 	0.57834 0.68501 0.04663 0.04700
H 	H 	0.66016 0.62972 0.00215 0.04600
H 	H 	0.69394 0.67583 0.01109 0.02800
H 	H 	0.61209 0.73119 0.05584 0.03500
