data_crystal

_cell_length_a 16.43557
_cell_length_b 16.35753
_cell_length_c 46.63159
_cell_angle_alpha 90.19979
_cell_angle_beta  90.20846
_cell_angle_gamma 119.32052

_symmetry_space_group_name_	'P 1'
_symmetry_space_group_name_H-M	'P 1'

loop_
_symmetry_equiv_pos_as_xyz
  x,y,z

loop_
_atom_site_label
_atom_site_type_symbol
_atom_site_fract_x
_atom_site_fract_y
_atom_site_fract_z
_atom_site_charge
C 	C 	0.17121 0.06335 0.72167 0.30400
C 	C 	0.20477 0.11095 0.79799 0.29000
Ni	Ni	0.07501 0.13689 0.75531 1.12500
Ni	Ni	0.05905 0.93976 0.77079 1.11700
O 	O 	0.10913 0.09098 0.72032 -0.37600
O 	O 	0.14298 0.02134 0.80186 -0.36500
O 	O 	0.19484 0.16286 0.77732 -0.36000
O 	O 	0.16820 0.00789 0.74282 -0.35300
C 	C 	0.24544 0.54649 0.48647 0.31500
C 	C 	0.14386 0.45880 0.41243 0.30000
Ni	Ni	0.19451 0.64397 0.44184 1.12500
O 	O 	0.20610 0.59891 0.48170 -0.34100
O 	O 	0.26416 0.50292 0.46496 -0.32800
O 	O 	0.16896 0.66856 0.40050 -0.35900
O 	O 	0.11791 0.49967 0.43204 -0.33000
O 	O 	0.22815 0.50187 0.40210 -0.36600
O 	O 	0.24570 0.78668 0.45561 -0.32200
C 	C 	0.34397 0.52920 0.20207 0.29000
C 	C 	0.15895 0.59735 0.11082 0.35400
C 	C 	0.18969 0.69618 0.18784 0.28100
Ni	Ni	0.22764 0.54881 0.15998 1.12900
O 	O 	0.20001 0.55164 0.11908 -0.37500
O 	O 	0.27891 0.46104 0.14641 -0.35000
O 	O 	0.25520 0.77115 0.17475 -0.36500
O 	O 	0.15254 0.61014 0.17586 -0.34300
O 	O 	0.27478 0.54631 0.19889 -0.37900
O 	O 	0.18580 0.68193 0.12147 -0.34400
C 	C 	0.07617 0.90670 0.25362 0.28900
C 	C 	0.01271 0.14250 0.34138 0.30700
C 	C 	0.99678 0.86180 0.32145 0.31500
C 	C 	0.11757 0.21914 0.26871 0.28100
Ni	Ni	0.08750 0.04954 0.30108 1.12300
O 	O 	0.12382 0.96322 0.27568 -0.34900
O 	O 	0.08832 0.14756 0.33035 -0.34700
O 	O 	0.00635 0.94264 0.32821 -0.37400
O 	O 	0.15234 0.16310 0.27452 -0.34900
O 	O 	0.03879 0.20827 0.28105 -0.35000
H 	H 	0.00384 0.03946 0.26039 0.17400
C 	C 	0.17705 0.30416 0.25176 -0.04900
C 	C 	0.19682 0.29200 0.22323 0.00700
C 	C 	0.27970 0.35992 0.21037 0.00300
C 	C 	0.32701 0.45160 0.22174 -0.04500
C 	C 	0.31166 0.46350 0.25093 0.00600
C 	C 	0.23641 0.38991 0.26594 0.00900
C 	C 	0.13390 0.20744 0.20756 0.10000
C 	C 	0.36487 0.55503 0.26419 0.10500
C 	C 	0.22033 0.40252 0.29578 0.10800
N 	N 	0.40700 0.62843 0.27465 -0.10100
N 	N 	0.08363 0.13991 0.19508 -0.08700
C 	C 	0.09488 0.82870 0.24469 -0.05300
C 	C 	0.02660 0.75085 0.22884 0.01000
C 	C 	0.05394 0.69801 0.21142 0.00600
C 	C 	0.14595 0.71307 0.21327 -0.04700
C 	C 	0.20510 0.77190 0.23533 0.00500
C 	C 	0.18163 0.83279 0.25032 0.00700
C 	C 	0.29372 0.77546 0.24078 0.09600
C 	C 	0.24403 0.89450 0.27238 0.10400
C 	C 	0.98934 0.63357 0.19032 0.12100
N 	N 	0.29402 0.94349 0.29003 -0.09700
N 	N 	0.36458 0.77856 0.24504 -0.09900
C 	C 	0.07897 0.36262 0.40222 -0.04400
C 	C 	0.01671 0.34984 0.37962 0.00300
C 	C 	0.02090 0.20850 0.36456 -0.05900
C 	C 	0.06716 0.21139 0.39032 0.01800
C 	C 	0.09824 0.28950 0.40884 0.00900
C 	C 	0.08279 0.13412 0.39774 0.11400
C 	C 	0.15535 0.29749 0.43355 0.10500
N 	N 	0.09516 0.07243 0.40369 -0.08200
C 	C 	0.06516 0.83691 0.33415 -0.07000
C 	C 	0.05897 0.74816 0.32972 0.01000
C 	C 	0.11975 0.72591 0.34519 0.00900
C 	C 	0.17142 0.78303 0.36872 -0.05800
C 	C 	0.16903 0.86608 0.37430 0.01600
C 	C 	0.13402 0.90058 0.35337 0.00800
C 	C 	0.99033 0.67969 0.31028 0.11000
C 	C 	0.18255 0.00026 0.34788 0.08800
C 	C 	0.13159 0.64731 0.33638 0.10600
N 	N 	0.22227 0.08006 0.34355 -0.11900
N 	N 	0.14127 0.58472 0.32933 -0.09400
Br	Br	0.25283 0.88536 0.52385 -0.12800
C 	C 	0.17538 0.57297 0.56251 0.01700
C 	C 	0.17150 0.45473 0.52965 0.12400
C 	C 	0.25261 0.52495 0.51668 -0.08800
C 	C 	0.31044 0.60222 0.53393 0.11600
C 	C 	0.26933 0.63297 0.55488 0.07400
Br	Br	0.33867 0.75596 0.57168 -0.11900
Br	Br	0.44076 0.67169 0.52565 -0.13300
C 	C 	0.25372 0.10785 0.70191 -0.05300
C 	C 	0.24235 0.13407 0.67383 0.00800
C 	C 	0.15103 0.08917 0.66037 0.11700
N 	N 	0.07833 0.05353 0.64947 -0.07900
N 	N 	0.01979 0.70109 0.77544 -0.10900
C 	C 	0.07514 0.54661 0.09291 -0.11200
C 	C 	0.08327 0.56652 0.06349 0.13300
C 	C 	0.04411 0.49255 0.04324 0.06400
C 	C 	0.01034 0.45506 0.10173 0.12500
Br	Br	0.15505 0.69457 0.05108 -0.13000
Br	Br	0.07047 0.51951 0.00306 -0.11700
Br	Br	0.18891 0.31788 0.08493 -0.12800
C 	C 	0.29157 0.11116 0.84179 0.01100
C 	C 	0.29351 0.14919 0.81459 -0.05300
C 	C 	0.21252 0.08461 0.86050 0.11100
N 	N 	0.14966 0.06346 0.87559 -0.08000
C 	C 	0.18045 0.90254 0.40322 0.11900
N 	N 	0.18818 0.93118 0.42638 -0.07600
N 	N 	0.10383 0.21363 0.85603 -0.09100
N 	N 	0.04254 0.84890 0.87079 -0.09400
C 	C 	0.21797 0.75069 0.38906 0.31000
N 	N 	0.20120 0.30292 0.45313 -0.07000
O 	O 	0.47431 0.18052 0.91714 -0.33400
C 	C 	0.33560 0.85118 0.46061 0.32400
C 	C 	0.42324 0.66857 0.37283 0.30500
Ni	Ni	0.39581 0.77614 0.41381 1.13400
Ni	Ni	0.34040 0.56618 0.42794 1.12600
O 	O 	0.36913 0.70287 0.37796 -0.38200
O 	O 	0.29831 0.81143 0.40069 -0.35300
O 	O 	0.45593 0.63912 0.45099 -0.36800
O 	O 	0.40468 0.84041 0.45087 -0.36400
O 	O 	0.42266 0.60662 0.39134 -0.34300
O 	O 	0.31661 0.66701 0.43459 -0.71900
H 	H 	0.34336 0.68491 0.45399 0.17900
C 	C 	0.34068 0.48561 0.12549 0.35200
C 	C 	0.44698 0.77197 0.09655 0.35100
Ni	Ni	0.44830 0.66837 0.15068 1.12200
Ni	Ni	0.31620 0.76116 0.13935 1.12900
O 	O 	0.44975 0.86783 0.15175 -0.33400
O 	O 	0.38884 0.57225 0.11879 -0.36400
O 	O 	0.35950 0.73984 0.10179 -0.36800
O 	O 	0.41763 0.56591 0.18411 -0.32500
O 	O 	0.33640 0.66846 0.15774 -0.71500
H 	H 	0.34464 0.69072 0.17776 0.17800
C 	C 	0.31950 0.33263 0.18723 0.12300
N 	N 	0.34935 0.30735 0.16896 -0.07800
C 	C 	0.36190 0.94491 0.47214 -0.10300
C 	C 	0.36457 0.95514 0.50211 0.10900
C 	C 	0.45122 0.01522 0.51581 0.09300
C 	C 	0.43455 0.01910 0.45735 0.12900
Br	Br	0.41627 0.04844 0.41899 -0.14700
Br	Br	0.45517 0.04511 0.55592 -0.17000
C 	C 	0.52767 0.44573 0.50408 0.07500
C 	C 	0.51466 0.38457 0.52702 0.12500
Br	Br	0.42207 0.44606 0.48635 -0.15500
Br	Br	0.39090 0.29775 0.53992 -0.12300
C 	C 	0.34520 0.14108 0.71263 0.00600
C 	C 	0.42183 0.21327 0.69803 0.00900
C 	C 	0.41143 0.23566 0.66965 -0.05200
C 	C 	0.32089 0.19945 0.65809 0.01000
C 	C 	0.36183 0.09137 0.73548 0.10900
C 	C 	0.30833 0.22953 0.63004 0.11300
N 	N 	0.29810 0.25363 0.60766 -0.07000
N 	N 	0.37482 0.05082 0.75358 -0.09400
C 	C 	0.44510 0.03750 0.94333 -0.08700
C 	C 	0.39504 0.03151 0.96837 0.13900
C 	C 	0.39403 0.97450 0.99128 0.05800
C 	C 	0.47053 0.96747 0.93856 0.11200
C 	C 	0.43041 0.74752 0.04409 0.13200
C 	C 	0.41508 0.78508 0.01878 0.07000
Br	Br	0.33414 0.10586 0.97194 -0.12300
Br	Br	0.32468 0.70342 0.99081 -0.10800
Br	Br	0.51566 0.95579 0.90149 -0.18800
Br	Br	0.32770 0.96701 0.02601 -0.12100
Br	Br	0.36726 0.61326 0.04918 -0.12500
C 	C 	0.36852 0.42086 0.11256 -0.11200
C 	C 	0.37538 0.38305 0.06238 0.07000
C 	C 	0.32256 0.37540 0.08708 0.13100
Br	Br	0.31464 0.34088 0.02565 -0.10400
C 	C 	0.45430 0.15107 0.83768 -0.05200
C 	C 	0.36679 0.09953 0.85087 -0.00700
C 	C 	0.37988 0.19783 0.80044 0.00700
C 	C 	0.45730 0.19029 0.81053 0.00800
C 	C 	0.35000 0.02557 0.87070 0.14000
C 	C 	0.39270 0.26544 0.77850 0.10400
C 	C 	0.54294 0.23026 0.79435 0.11000
N 	N 	0.40286 0.31989 0.76111 -0.10000
N 	N 	0.33324 0.96477 0.88635 -0.09700
C 	C 	0.49231 0.26794 0.65003 0.30500
C 	C 	0.51105 0.26647 0.71232 0.10700
C 	C 	0.44345 0.92423 0.98882 0.02000
Br	Br	0.04844 0.65158 0.66049 -0.17600
O 	O 	0.03397 0.19054 0.78752 -0.36500
C 	C 	0.52798 0.71472 0.44073 0.33200
Br	Br	0.61981 0.47124 0.42716 -0.12900
O 	O 	0.50331 0.78128 0.17754 -0.36500
N 	N 	0.47968 0.02919 0.21530 -0.09200
C 	C 	0.50779 0.13108 0.93131 0.33200
C 	C 	0.53744 0.20187 0.85630 0.30000
Ni	Ni	0.55160 0.32399 0.90288 1.11800
O 	O 	0.59722 0.15815 0.93226 -0.35800
O 	O 	0.59755 0.46353 0.88911 -0.33800
O 	O 	0.56390 0.28881 0.86174 -0.37000
O 	O 	0.56701 0.15675 0.87311 -0.33900
O 	O 	0.55131 0.37875 0.94211 -0.34300
C 	C 	0.58887 0.37055 0.57207 0.31700
Ni	Ni	0.59341 0.21947 0.60775 1.13400
O 	O 	0.66446 0.21352 0.57410 -0.36000
O 	O 	0.53156 0.35295 0.63874 -0.34800
O 	O 	0.53843 0.28341 0.58239 -0.33500
O 	O 	0.63165 0.44359 0.58946 -0.34600
O 	O 	0.51893 0.20755 0.64267 -0.36700
O 	O 	0.51763 0.77325 0.42302 -0.34900
C 	C 	0.51363 0.86188 0.16874 0.28200
O 	O 	0.50164 0.76411 0.11600 -0.34000
C 	C 	0.60454 0.94538 0.17505 -0.02700
C 	C 	0.53871 0.01367 0.20884 0.13200
C 	C 	0.50825 0.72695 0.35482 -0.05600
C 	C 	0.53694 0.68436 0.33379 0.01900
C 	C 	0.49030 0.58303 0.33127 0.11600
C 	C 	0.51677 0.87654 0.37231 0.05700
N 	N 	0.48798 0.91858 0.38446 -0.12200
N 	N 	0.45311 0.50215 0.32927 -0.08900
C 	C 	0.53393 0.05775 0.49906 0.01400
C 	C 	0.52453 0.05708 0.46894 0.07400
C 	C 	0.62863 0.10022 0.51278 0.02000
C 	C 	0.65416 0.04647 0.53095 0.08100
Br	Br	0.57514 0.91399 0.53485 -0.12000
C 	C 	0.59281 0.38886 0.54094 -0.10000
C 	C 	0.68142 0.43999 0.52798 0.12900
C 	C 	0.69329 0.49661 0.50412 0.07700
C 	C 	0.61854 0.50708 0.49424 0.01600
C 	C 	0.63703 0.58889 0.47636 0.02200
C 	C 	0.65945 0.67594 0.48927 0.06900
C 	C 	0.65770 0.74602 0.47223 0.12900
C 	C 	0.61980 0.72231 0.44464 -0.10700
C 	C 	0.63357 0.65487 0.43023 0.12200
C 	C 	0.63256 0.58157 0.44616 0.06500
Br	Br	0.71335 0.87352 0.48498 -0.12700
Br	Br	0.68875 0.69736 0.52954 -0.11000
N 	N 	0.64298 0.92325 0.61536 -0.06700
N 	N 	0.58276 0.31027 0.72345 -0.08900
C 	C 	0.47956 0.91878 0.96202 0.07000
C 	C 	0.46267 0.88273 0.01464 0.02200
C 	C 	0.52775 0.94105 0.03537 0.06000
C 	C 	0.52785 0.90571 0.06280 0.12700
C 	C 	0.47973 0.80758 0.06740 -0.10700
Br	Br	0.55253 0.85590 0.95841 -0.12700
C 	C 	0.46328 0.44366 0.11597 0.12500
C 	C 	0.51533 0.44492 0.09193 0.06700
C 	C 	0.47337 0.42386 0.06464 0.02200
C 	C 	0.53071 0.43442 0.03884 0.02000
C 	C 	0.57981 0.52157 0.02475 0.07300
C 	C 	0.53941 0.35797 0.02915 0.07300
Br	Br	0.52772 0.49424 0.15171 -0.19000
Br	Br	0.48514 0.24298 0.05091 -0.10000
Br	Br	0.59349 0.63375 0.04275 -0.12600
N 	N 	0.61183 0.26209 0.78161 -0.08900
C 	C 	0.58084 0.56862 0.83502 0.10600
N 	N 	0.50437 0.51796 0.82830 -0.09400
C 	C 	0.55554 0.82726 0.35663 0.01900
C 	C 	0.11907 0.61052 0.57692 0.01900
C 	C 	0.11660 0.61511 0.60718 0.07000
Br	Br	0.20194 0.59459 0.63041 -0.14400
C 	C 	0.13177 0.47902 0.55281 0.07600
N 	N 	0.20744 0.41248 0.31960 -0.09200
Br	Br	0.11657 0.32824 0.51579 -0.11500
Br	Br	0.66201 0.66833 0.39025 -0.16900
O 	O 	0.63149 0.13130 0.62827 -0.33800
C 	C 	0.61245 0.99405 0.20075 -0.02600
C 	C 	0.69568 0.19576 0.50819 0.07300
Br	Br	0.67155 0.27392 0.48271 -0.13000
C 	C 	0.67885 0.51333 0.87657 0.30700
C 	C 	0.62945 0.43731 0.95532 0.31400
Ni	Ni	0.68179 0.22611 0.90018 1.12900
O 	O 	0.73557 0.48041 0.87543 -0.37900
O 	O 	0.66569 0.32798 0.91267 -0.71600
H 	H 	0.65987 0.31731 0.93341 0.17800
C 	C 	0.67503 0.15348 0.65332 0.30500
Ni	Ni	0.67024 0.43066 0.62898 1.13100
O 	O 	0.69621 0.41037 0.66946 -0.37600
O 	O 	0.69928 0.33760 0.61663 -0.72100
H 	H 	0.72105 0.36019 0.59726 0.18000
C 	C 	0.68569 0.94557 0.16470 -0.00200
C 	C 	0.68666 0.01346 0.21999 0.04300
C 	C 	0.69155 0.05714 0.24750 0.09400
C 	C 	0.68973 0.91815 0.13544 0.11900
N 	N 	0.69526 0.09222 0.26943 -0.09100
N 	N 	0.69534 0.89659 0.11218 -0.07400
C 	C 	0.63819 0.88105 0.34122 0.01600
C 	C 	0.61126 0.74075 0.31505 0.01500
C 	C 	0.63112 0.69788 0.29076 0.10100
C 	C 	0.73642 0.09364 0.54772 0.12100
Br	Br	0.62552 0.07321 0.44444 -0.12800
C 	C 	0.68087 0.97334 0.63440 0.10400
C 	C 	0.70110 0.57858 0.66543 0.06700
N 	N 	0.64863 0.56279 0.64680 -0.12900
N 	N 	0.69897 0.77339 0.69807 -0.09600
Br	Br	0.56946 0.99165 0.09479 -0.15900
Br	Br	0.61676 0.06884 0.02631 -0.10200
C 	C 	0.62356 0.52717 0.99819 0.12800
C 	C 	0.62341 0.44713 0.98678 -0.09200
C 	C 	0.58683 0.36464 0.00358 0.12800
Br	Br	0.67828 0.64231 0.97681 -0.12600
Br	Br	0.64461 0.47729 0.09627 -0.11600
Br	Br	0.59432 0.25751 0.99043 -0.17400
C 	C 	0.71425 0.61244 0.86794 -0.05800
C 	C 	0.67663 0.63196 0.84342 0.01200
C 	C 	0.69231 0.73487 0.80253 0.09700
N 	N 	0.65857 0.75343 0.78363 -0.10700
N 	N 	0.64691 0.66366 0.27136 -0.09700
Br	Br	0.06431 0.63485 0.51949 -0.13600
C 	C 	0.04873 0.23370 0.84860 0.10500
C 	C 	0.74913 0.22365 0.57554 0.32100
Br	Br	0.78782 0.43872 0.54410 -0.17300
C 	C 	0.66460 0.83924 0.31954 -0.05400
C 	C 	0.68639 0.08478 0.67087 -0.05900
N 	N 	0.69948 0.12084 0.78398 -0.09600
C 	C 	0.73356 0.71115 0.82635 0.00600
N 	N 	0.06313 0.40085 0.90197 -0.07400
Br	Br	0.81267 0.56204 0.48532 -0.11000
C 	C 	0.05827 0.63109 0.56063 0.07400
Br	Br	0.02663 0.38435 0.57323 -0.15000
C 	C 	0.04563 0.62712 0.62022 0.11600
O 	O 	0.72197 0.24071 0.66108 -0.37000
C 	C 	0.72695 0.03505 0.65845 0.02000
C 	C 	0.77833 0.19091 0.55022 -0.08700
O 	O 	0.70868 0.49230 0.94052 -0.32600
O 	O 	0.75074 0.29279 0.86555 -0.38300
C 	C 	0.69662 0.97980 0.34816 0.10400
C 	C 	0.77830 0.23557 0.52463 0.12400
N 	N 	0.58374 0.12451 0.73141 -0.09100
C 	C 	0.63782 0.11729 0.71742 0.11200
Br	Br	0.79572 0.02910 0.56415 -0.10900
Ni	Ni	0.77668 0.44650 0.91158 1.12700
C 	C 	0.75534 0.98900 0.21229 -0.07000
C 	C 	0.75922 0.96310 0.18380 0.02100
C 	C 	0.70451 0.10700 0.69998 0.00900
C 	C 	0.73848 0.73195 0.70160 0.11100
C 	C 	0.77036 0.17578 0.79370 0.11100
N 	N 	0.80579 0.42349 0.79008 -0.09400
O 	O 	0.79526 0.26652 0.92725 -0.34400
C 	C 	0.78168 0.45671 0.67822 0.30800
Ni	Ni	0.80567 0.33944 0.63224 1.12100
O 	O 	0.79542 0.24017 0.60056 -0.33100
O 	O 	0.80888 0.53705 0.62208 -0.33400
C 	C 	0.75569 0.89485 0.30473 0.30600
N 	N 	0.74283 0.05843 0.35378 -0.07700
C 	C 	0.76654 0.60074 0.68901 0.01800
C 	C 	0.83258 0.37996 0.80240 0.11300
C 	C 	0.80459 0.68023 0.87735 0.01400
C 	C 	0.83772 0.35718 0.86686 0.30900
O 	O 	0.86592 0.42613 0.88580 -0.34800
O 	O 	0.77997 0.97877 0.29399 -0.36900
C 	C 	0.80383 0.03455 0.67252 0.02500
C 	C 	0.81132 0.54621 0.69430 -0.05700
C 	C 	0.78799 0.67980 0.70607 0.01200
C 	C 	0.83020 0.76732 0.83287 -0.04700
C 	C 	0.83688 0.67408 0.90578 0.08300
C 	C 	0.81985 0.33063 0.94839 0.32300
O 	O 	0.84414 0.44160 0.66516 -0.33900
C 	C 	0.82217 0.99007 0.23392 0.28600
O 	O 	0.81990 0.90910 0.24080 -0.35600
C 	C 	0.79259 0.12980 0.71083 0.00600
Br	Br	0.91785 0.25247 0.09531 -0.10900
C 	C 	0.86713 0.32664 0.81780 0.01200
C 	C 	0.85851 0.24366 0.80621 0.00800
N 	N 	0.86401 0.67047 0.92841 -0.08400
O 	O 	0.86908 0.91230 0.80889 -0.36700
O 	O 	0.83928 0.82264 0.75558 -0.35800
O 	O 	0.81185 0.86021 0.30334 -0.37200
C 	C 	0.83814 0.95368 0.17421 0.10600
C 	C 	0.84035 0.08710 0.69842 -0.06800
C 	C 	0.84169 0.97767 0.66123 0.09800
C 	C 	0.86515 0.75156 0.85861 0.00500
O 	O 	0.83792 0.41655 0.94293 -0.35100
C 	C 	0.87965 0.53084 0.60943 0.32500
O 	O 	0.87791 0.45027 0.60563 -0.35100
O 	O 	0.87613 0.08544 0.78060 -0.34800
Br	Br	0.89337 0.32645 0.50794 -0.11100
C 	C 	0.90193 0.35257 0.84575 -0.06100
N 	N 	0.84949 0.69457 0.23547 -0.10700
C 	C 	0.89236 0.84713 0.81396 0.28700
Ni	Ni	0.87266 0.95902 0.76783 1.11200
C 	C 	0.84334 0.21361 0.72793 0.10800
N 	N 	0.87103 0.93144 0.65219 -0.07700
C 	C 	0.87866 0.57396 0.71646 0.01700
C 	C 	0.85846 0.70971 0.72697 -0.05900
C 	C 	0.84226 0.31231 0.97775 -0.09300
Br	Br	0.76692 0.33611 0.06086 -0.10700
C 	C 	0.81849 0.35065 0.00168 0.12400
O 	O 	0.88317 0.07135 0.24531 -0.36400
C 	C 	0.83569 0.32842 0.02868 0.06900
Br	Br	0.82430 0.47101 0.99923 -0.14800
Br	Br	0.04976 0.26573 0.01590 -0.09700
O 	O 	0.88223 0.98883 0.72480 -0.38300
Br	Br	0.91930 0.69210 0.55558 -0.11500
C 	C 	0.89458 0.80314 0.74022 0.31000
C 	C 	0.90590 0.27812 0.98244 0.12900
C 	C 	0.92332 0.21556 0.81472 -0.05000
N 	N 	0.90105 0.94608 0.16658 -0.08300
N 	N 	0.89411 0.26439 0.31427 -0.10400
N 	N 	0.88496 0.28155 0.74125 -0.09600
C 	C 	0.90132 0.65493 0.73298 0.01200
C 	C 	0.90743 0.07336 0.71647 0.32600
Ni	Ni	0.89853 0.88532 0.27090 1.12500
C 	C 	0.92713 0.52151 0.72170 0.11700
Ni	Ni	0.91441 0.08285 0.28687 1.12600
C 	C 	0.91919 0.32779 0.03254 0.02200
C 	C 	0.94545 0.15701 0.79499 0.29000
Br	Br	0.93890 0.22067 0.95186 -0.13200
O 	O 	0.00056 0.90557 0.24349 -0.36600
C 	C 	0.92812 0.71964 0.23253 0.10000
N 	N 	0.96674 0.48054 0.72584 -0.08800
C 	C 	0.96747 0.32656 0.85523 0.01000
O 	O 	0.93164 0.08769 0.32976 -0.36100
C 	C 	0.93697 0.26905 0.33457 0.09700
O 	O 	0.96281 0.84450 0.79993 -0.34900
C 	C 	0.96932 0.61551 0.60357 -0.09500
C 	C 	0.94866 0.29106 0.00990 0.07500
C 	C 	0.96378 0.80600 0.86538 0.11100
C 	C 	0.98018 0.25937 0.83929 0.01000
N 	N 	0.93554 0.62457 0.29482 -0.09200
O 	O 	0.95512 0.82400 0.29697 -0.35700
C 	C 	0.98817 0.64177 0.57483 0.12700
C 	C 	0.97777 0.38029 0.08205 0.07400
N 	N 	0.95468 0.46796 0.37316 -0.08700
C 	C 	0.96721 0.68070 0.75660 0.09600
O 	O 	0.97481 0.14514 0.73055 -0.35700
O 	O 	0.98208 0.86533 0.73704 -0.37400
H 	H 	0.00978 0.03425 0.79246 0.17300
C 	C 	0.02057 0.36770 0.88122 0.10900
O 	O 	0.97840 0.01529 0.27954 -0.70700
C 	C 	0.98849 0.39863 0.05255 0.02400
Br	Br	0.98054 0.43009 0.14170 -0.18400
N 	N 	0.93700 0.58263 0.17350 -0.07200
C 	C 	0.98228 0.41555 0.37600 0.12200
O 	O 	0.00233 0.01674 0.77198 -0.71300
C 	C 	0.99066 0.27496 0.36000 0.02500
