data_crystal

_cell_length_a 18.73000
_cell_length_b 18.90950
_cell_length_c 36.44923
_cell_angle_alpha 95.41947
_cell_angle_beta  95.42798
_cell_angle_gamma 126.63993

_symmetry_space_group_name_	'P 1'
_symmetry_space_group_name_H-M	'P 1'

loop_
_symmetry_equiv_pos_as_xyz
  x,y,z

loop_
_atom_site_label
_atom_site_type_symbol
_atom_site_fract_x
_atom_site_fract_y
_atom_site_fract_z
_atom_site_charge
C 	C 	0.92115 0.00922 0.98376 0.02000
C 	C 	0.01569 0.06790 0.98824 -0.05400
C 	C 	0.06410 0.03436 0.98280 0.02400
C 	C 	0.01867 0.94147 0.97628 -0.04600
C 	C 	0.92525 0.88220 0.97556 0.02900
C 	C 	0.87564 0.91587 0.97820 -0.04700
H 	H 	0.05105 0.13983 0.99382 0.05900
H 	H 	0.05613 0.91537 0.97230 0.05900
H 	H 	0.80273 0.87010 0.97583 0.05900
C 	C 	0.93254 0.02123 0.49186 0.02100
C 	C 	0.88435 0.93013 0.49348 -0.04600
C 	C 	0.92701 0.88975 0.49144 0.02800
C 	C 	0.01839 0.94074 0.48862 -0.04600
C 	C 	0.06799 0.03261 0.48864 0.02400
C 	C 	0.02488 0.07295 0.48980 -0.05100
H 	H 	0.81323 0.89028 0.49539 0.06000
H 	H 	0.05152 0.90941 0.48735 0.06000
H 	H 	0.06278 0.14385 0.48914 0.05800
Cu	Cu	0.74982 0.33725 0.95985 0.92400
Cu	Cu	0.76562 0.29589 0.04563 0.88500
Cu	Cu	0.62615 0.33160 0.00938 0.91500
Cu	Cu	0.58538 0.33966 0.92907 0.90500
C 	C 	0.68226 0.30367 0.88055 0.31300
O 	O 	0.80726 0.46903 0.95617 -0.34400
C 	C 	0.65750 0.32445 0.08525 0.30800
O 	O 	0.61244 0.27905 0.95828 -0.63300
O 	O 	0.74963 0.36418 0.01361 -0.63300
O 	O 	0.78712 0.25612 0.96095 -0.35100
O 	O 	0.85396 0.30075 0.02273 -0.40500
O 	O 	0.65316 0.35056 0.88848 -0.37600
O 	O 	0.51025 0.31063 0.00520 -0.36100
C 	C 	0.44489 0.26509 0.97537 0.29000
C 	C 	0.77047 0.50810 0.96670 0.27500
O 	O 	0.68508 0.45914 0.97053 -0.38900
O 	O 	0.46294 0.27442 0.94129 -0.37900
O 	O 	0.72947 0.29643 0.90688 -0.35300
C 	C 	0.82904 0.24943 0.99004 0.28300
O 	O 	0.64331 0.36671 0.06278 -0.36300
O 	O 	0.66722 0.26449 0.07142 -0.41300
H 	H 	0.56808 0.21274 0.95250 0.16400
H 	H 	0.79600 0.42900 0.02400 0.16700
Cu	Cu	0.59950 0.18611 0.50374 0.93000
Cu	Cu	0.65724 0.18845 0.42149 0.88100
Cu	Cu	0.65666 0.33308 0.45806 0.90100
Cu	Cu	0.62356 0.36102 0.53464 0.90100
C 	C 	0.63955 0.25080 0.58318 0.30900
O 	O 	0.47192 0.14351 0.50695 -0.35100
C 	C 	0.61485 0.27558 0.37515 0.31000
O 	O 	0.68361 0.32649 0.50897 -0.64000
O 	O 	0.58337 0.19983 0.45109 -0.64000
O 	O 	0.64783 0.11700 0.49668 -0.36100
O 	O 	0.74472 0.21109 0.46127 -0.43000
O 	O 	0.60619 0.29408 0.57630 -0.37100
O 	O 	0.73541 0.46215 0.46803 -0.37500
C 	C 	0.73258 0.51330 0.49416 0.29900
C 	C 	0.44362 0.18871 0.49606 0.28700
O 	O 	0.50245 0.27194 0.49213 -0.38500
O 	O 	0.68190 0.48043 0.52001 -0.38100
O 	O 	0.63453 0.19543 0.55618 -0.35100
C 	C 	0.72175 0.15133 0.48258 0.29500
O 	O 	0.64685 0.34060 0.40428 -0.37200
O 	O 	0.59944 0.19941 0.37913 -0.40600
H 	H 	0.74897 0.36074 0.51933 0.17500
H 	H 	0.51997 0.16722 0.43807 0.18600
C 	C 	0.68348 0.23716 0.69305 0.00300
C 	C 	0.76143 0.31116 0.71751 -0.02900
C 	C 	0.76567 0.31824 0.75631 -0.02700
C 	C 	0.69201 0.25127 0.77079 0.00200
C 	C 	0.61728 0.17380 0.74646 -0.02900
C 	C 	0.61306 0.16671 0.70764 -0.02900
C 	C 	0.68768 0.26781 0.80958 0.05500
C 	C 	0.68517 0.28275 0.84213 -0.09100
C 	C 	0.66906 0.24102 0.65404 0.05400
C 	C 	0.65704 0.24432 0.62138 -0.08600
H 	H 	0.81658 0.36549 0.70647 0.05100
H 	H 	0.82422 0.37784 0.77498 0.05300
H 	H 	0.56054 0.12118 0.75747 0.04800
H 	H 	0.55294 0.10878 0.68892 0.05100
C 	C 	0.61860 0.33477 0.19323 0.00100
C 	C 	0.68917 0.40423 0.22177 -0.03000
C 	C 	0.68241 0.39811 0.25939 -0.02900
C 	C 	0.60513 0.32247 0.26860 0.00100
C 	C 	0.53192 0.25623 0.24007 -0.02900
C 	C 	0.53867 0.26235 0.20244 -0.02900
C 	C 	0.60691 0.30611 0.30632 0.05400
C 	C 	0.60907 0.29303 0.33798 -0.09500
C 	C 	0.63249 0.33220 0.15511 0.05400
C 	C 	0.64366 0.32960 0.12313 -0.09700
H 	H 	0.75081 0.46094 0.21486 0.04800
H 	H 	0.73901 0.44999 0.28131 0.05000
H 	H 	0.47161 0.19790 0.24696 0.05000
H 	H 	0.48340 0.20886 0.18051 0.05200
C 	C 	0.87578 0.79332 0.49235 0.01600
C 	C 	0.81448 0.72877 0.46014 -0.03900
C 	C 	0.76652 0.63685 0.46086 0.02300
C 	C 	0.78329 0.60950 0.49319 -0.07900
C 	C 	0.84658 0.67429 0.52505 0.02200
C 	C 	0.89070 0.76595 0.52500 -0.03800
C 	C 	0.80176 0.75714 0.42610 0.09900
C 	C 	0.86798 0.64670 0.55747 0.07900
C 	C 	0.95110 0.83228 0.55859 0.09900
C 	C 	0.69835 0.57037 0.42871 0.08700
N 	N 	0.99931 0.88528 0.58534 -0.10300
N 	N 	0.64400 0.51740 0.40306 -0.10100
N 	N 	0.88507 0.62468 0.58332 -0.11100
N 	N 	0.79163 0.77977 0.39896 -0.10300
C 	C 	0.88391 0.06040 0.48941 0.01500
C 	C 	0.83456 0.04783 0.45452 -0.03700
C 	C 	0.77570 0.07102 0.45281 0.02100
C 	C 	0.77109 0.11312 0.48562 -0.08600
C 	C 	0.82175 0.12730 0.52050 0.02300
C 	C 	0.87783 0.10051 0.52241 -0.04000
C 	C 	0.84489 0.01141 0.42035 0.08700
C 	C 	0.81712 0.17044 0.55428 0.08400
C 	C 	0.92919 0.11405 0.55826 0.09700
C 	C 	0.71827 0.04977 0.41742 0.05200
N 	N 	0.97022 0.12479 0.58683 -0.10500
N 	N 	0.67245 0.03281 0.38920 -0.13200
N 	N 	0.81348 0.20488 0.58124 -0.10200
N 	N 	0.85327 0.98248 0.39312 -0.09400
C 	C 	0.16683 0.08726 0.49017 0.01500
C 	C 	0.20050 0.09011 0.45689 -0.03900
C 	C 	0.29091 0.12189 0.45879 0.02000
C 	C 	0.34779 0.15129 0.49401 -0.08000
C 	C 	0.31533 0.15285 0.52726 0.02100
C 	C 	0.22545 0.12245 0.52526 -0.03900
C 	C 	0.14150 0.05891 0.42076 0.09700
C 	C 	0.37420 0.18535 0.56354 0.07800
C 	C 	0.19246 0.12560 0.55936 0.09900
C 	C 	0.32510 0.12335 0.42455 0.07300
N 	N 	0.16601 0.12805 0.58652 -0.10300
N 	N 	0.35230 0.12452 0.39722 -0.11200
N 	N 	0.42070 0.21110 0.59259 -0.10100
N 	N 	0.09430 0.03394 0.39195 -0.10600
C 	C 	0.82099 0.60631 0.96935 -0.07400
C 	C 	0.82953 0.64197 0.93625 0.01700
C 	C 	0.85711 0.73021 0.93807 -0.03700
C 	C 	0.88037 0.78467 0.97311 0.01300
C 	C 	0.87420 0.74989 0.00629 -0.03400
C 	C 	0.84486 0.66103 0.00442 0.01900
C 	C 	0.80922 0.58764 0.90029 0.08400
C 	C 	0.89881 0.80587 0.04239 0.10100
C 	C 	0.83934 0.62587 0.03860 0.07600
C 	C 	0.86120 0.76492 0.90387 0.09700
N 	N 	0.83491 0.59780 0.06587 -0.11300
N 	N 	0.86450 0.79275 0.87661 -0.10400
N 	N 	0.91851 0.85067 0.07116 -0.10100
N 	N 	0.79315 0.54446 0.87156 -0.10000
C 	C 	0.87028 0.04659 0.98176 0.01200
C 	C 	0.84649 0.06700 0.01443 -0.03400
C 	C 	0.82651 0.12841 0.01617 0.01900
C 	C 	0.83936 0.17639 0.98656 -0.08300
C 	C 	0.85816 0.15146 0.95304 0.02100
C 	C 	0.86534 0.08104 0.94984 -0.03900
C 	C 	0.84332 0.02549 0.04633 0.08600
C 	C 	0.87509 0.20098 0.92276 0.09300
C 	C 	0.86648 0.04309 0.91367 0.10000
C 	C 	0.78833 0.13828 0.04726 0.05200
N 	N 	0.86696 0.01241 0.88476 -0.10400
N 	N 	0.75780 0.14590 0.07210 -0.13500
N 	N 	0.88865 0.24043 0.89856 -0.09800
N 	N 	0.84083 0.99229 0.07177 -0.09600
C 	C 	0.16256 0.09701 0.98241 0.01400
C 	C 	0.19387 0.15333 0.95556 -0.03900
C 	C 	0.28738 0.21705 0.95700 0.02200
C 	C 	0.34929 0.21333 0.98033 -0.07700
C 	C 	0.31793 0.15511 0.00656 0.02000
C 	C 	0.22550 0.10142 0.00912 -0.03800
C 	C 	0.13011 0.14320 0.92551 0.09700
C 	C 	0.37972 0.14789 0.02988 0.07600
C 	C 	0.19543 0.05200 0.03953 0.09500
C 	C 	0.31995 0.28909 0.93604 0.08800
N 	N 	0.17134 0.01251 0.06377 -0.10900
N 	N 	0.34586 0.34656 0.91932 -0.10600
N 	N 	0.42889 0.14200 0.04850 -0.11200
N 	N 	0.07959 0.13540 0.90145 -0.10400
