data_crystal

_cell_length_a 18.59233
_cell_length_b 18.83144
_cell_length_c 34.22278
_cell_angle_alpha 95.45039
_cell_angle_beta  95.45109
_cell_angle_gamma 126.45266

_symmetry_space_group_name_	'P 1'
_symmetry_space_group_name_H-M	'P 1'

loop_
_symmetry_equiv_pos_as_xyz
  x,y,z

loop_
_atom_site_label
_atom_site_type_symbol
_atom_site_fract_x
_atom_site_fract_y
_atom_site_fract_z
_atom_site_charge
C 	C 	0.92762 0.03138 0.96713 0.07000
C 	C 	0.88385 0.94050 0.96945 -0.10700
C 	C 	0.93274 0.90535 0.96869 0.06000
C 	C 	0.02551 0.96178 0.96684 -0.10800
C 	C 	0.06843 0.05170 0.96367 0.07000
C 	C 	0.01939 0.08617 0.96365 -0.09800
H 	H 	0.81259 0.89763 0.97180 0.06500
H 	H 	0.06387 0.93540 0.96730 0.06700
H 	H 	0.05316 0.15622 0.96185 0.06500
C 	C 	0.92585 0.99926 0.48574 0.01100
C 	C 	0.02045 0.04757 0.48959 -0.06500
C 	C 	0.05916 0.00260 0.49210 0.05400
C 	C 	0.00357 0.91004 0.49172 -0.09600
C 	C 	0.90934 0.86198 0.48840 0.04400
C 	C 	0.87024 0.90611 0.48392 -0.07400
H 	H 	0.06357 0.11957 0.49065 0.05600
H 	H 	0.03377 0.87566 0.49449 0.06100
H 	H 	0.79697 0.86847 0.48000 0.05600
Cu	Cu	0.78443 0.37829 0.96546 0.93300
Cu	Cu	0.75589 0.30800 0.05057 0.88000
Cu	Cu	0.62881 0.33066 0.00805 0.89900
Cu	Cu	0.61609 0.36467 0.92556 0.90400
C 	C 	0.73511 0.34701 0.88014 0.39800
O 	O 	0.83367 0.50753 0.96267 -0.34100
C 	C 	0.66542 0.35594 0.09643 0.38800
O 	O 	0.64150 0.30045 0.95528 -0.63700
O 	O 	0.76231 0.39228 0.01996 -0.64100
O 	O 	0.84758 0.32343 0.97579 -0.35200
O 	O 	0.73912 0.22387 0.00839 -0.42700
O 	O 	0.69546 0.38555 0.88573 -0.36100
O 	O 	0.49828 0.26180 0.99448 -0.36400
C 	C 	0.45231 0.26701 0.96450 0.30200
C 	C 	0.78824 0.53817 0.97201 0.28700
O 	O 	0.70131 0.48132 0.97307 -0.39200
O 	O 	0.48814 0.30202 0.93345 -0.37900
O 	O 	0.78314 0.34533 0.91050 -0.34300
C 	C 	0.80525 0.24721 0.98896 0.30200
O 	O 	0.61698 0.35127 0.06388 -0.36300
O 	O 	0.73996 0.36278 0.09518 -0.38600
H 	H 	0.60460 0.23516 0.94461 0.18900
H 	H 	0.79833 0.45471 0.03504 0.18400
Cu	Cu	0.60198 0.17236 0.50471 0.93300
Cu	Cu	0.67727 0.20791 0.42126 0.87600
Cu	Cu	0.61853 0.30602 0.45660 0.89600
Cu	Cu	0.61582 0.34078 0.54359 0.90900
C 	C 	0.64194 0.23013 0.58973 0.40700
O 	O 	0.47289 0.12527 0.50997 -0.33900
C 	C 	0.59263 0.26164 0.36912 0.37500
O 	O 	0.67232 0.31157 0.50969 -0.63500
O 	O 	0.58026 0.18187 0.44887 -0.64400
O 	O 	0.65660 0.10975 0.49469 -0.35800
O 	O 	0.75946 0.21879 0.46336 -0.42600
O 	O 	0.59836 0.26437 0.58362 -0.36600
O 	O 	0.64654 0.42455 0.46558 -0.36000
C 	C 	0.69701 0.48642 0.49819 0.29500
C 	C 	0.43864 0.16686 0.49941 0.28300
O 	O 	0.49292 0.25338 0.49875 -0.39100
O 	O 	0.68739 0.46498 0.53388 -0.37500
O 	O 	0.64500 0.18312 0.55984 -0.35700
C 	C 	0.73364 0.15108 0.48150 0.30400
O 	O 	0.57832 0.29679 0.40002 -0.35500
O 	O 	0.61626 0.20847 0.37300 -0.38100
H 	H 	0.73974 0.35157 0.51553 0.17400
H 	H 	0.51771 0.13612 0.43341 0.18700
C 	C 	0.76557 0.36484 0.77338 0.21900
C 	C 	0.73434 0.27743 0.75767 -0.00700
C 	C 	0.71497 0.21688 0.78349 0.22500
C 	C 	0.72027 0.24142 0.82421 0.30400
C 	C 	0.74496 0.32662 0.83929 -0.21900
C 	C 	0.77130 0.38947 0.81403 0.30900
C 	C 	0.71001 0.24605 0.71392 -0.00600
F 	F 	0.68740 0.13311 0.76881 -0.35900
F 	F 	0.80043 0.47383 0.82874 -0.39600
C 	C 	0.77844 0.28124 0.69076 0.22400
C 	C 	0.75559 0.26983 0.64926 0.30300
C 	C 	0.66428 0.22294 0.63078 -0.22600
C 	C 	0.59544 0.18032 0.65347 0.31200
C 	C 	0.61820 0.19204 0.69489 0.21800
F 	F 	0.86726 0.33065 0.70871 -0.35900
F 	F 	0.50659 0.13124 0.63556 -0.39300
F 	F 	0.82251 0.30906 0.62740 -0.41100
F 	F 	0.55133 0.15573 0.71686 -0.35900
F 	F 	0.78610 0.42449 0.74883 -0.36300
F 	F 	0.69727 0.18100 0.84860 -0.40500
C 	C 	0.54742 0.22726 0.25669 0.22100
C 	C 	0.57432 0.31220 0.25102 -0.01000
C 	C 	0.59153 0.37458 0.28377 0.22600
C 	C 	0.59086 0.35567 0.32241 0.29900
C 	C 	0.57192 0.27360 0.32848 -0.21200
C 	C 	0.54428 0.20736 0.29508 0.30200
C 	C 	0.59452 0.33904 0.21188 -0.00800
F 	F 	0.61246 0.45494 0.27833 -0.35800
F 	F 	0.51641 0.12432 0.29992 -0.38900
C 	C 	0.52546 0.29148 0.17762 0.22500
C 	C 	0.54788 0.30081 0.13957 0.30200
C 	C 	0.63943 0.36029 0.13554 -0.22000
C 	C 	0.70720 0.41513 0.16989 0.30500
C 	C 	0.68509 0.40352 0.20788 0.21800
F 	F 	0.43711 0.23230 0.18119 -0.35600
F 	F 	0.79504 0.47752 0.16646 -0.39400
F 	F 	0.48146 0.24747 0.10677 -0.40600
F 	F 	0.75235 0.45144 0.24077 -0.36100
F 	F 	0.52837 0.16544 0.22516 -0.35700
F 	F 	0.61183 0.41832 0.35396 -0.40200
C 	C 	0.84924 0.70547 0.46149 -0.08100
C 	C 	0.85198 0.76547 0.49038 -0.00600
C 	C 	0.80579 0.73406 0.52256 0.04100
C 	C 	0.75181 0.64196 0.52344 -0.01200
C 	C 	0.75078 0.58221 0.49509 -0.09700
C 	C 	0.80345 0.61519 0.46489 0.11800
C 	C 	0.81319 0.55556 0.43695 -0.22200
H 	H 	0.88584 0.73000 0.43717 0.06700
H 	H 	0.71181 0.61697 0.54670 0.05400
C 	C 	0.81363 0.79806 0.55599 -0.18200
H 	H 	0.87165 0.59576 0.42164 0.09500
H 	H 	0.75054 0.51022 0.41378 0.13200
H 	H 	0.82564 0.51497 0.45369 0.06900
H 	H 	0.77030 0.81771 0.54586 0.07500
H 	H 	0.88541 0.85912 0.56577 0.07500
H 	H 	0.79107 0.76655 0.58257 0.07900
C 	C 	0.86761 0.07186 0.52059 -0.09600
C 	C 	0.88483 0.04637 0.48494 0.01700
C 	C 	0.85536 0.05849 0.44837 0.02900
C 	C 	0.80598 0.09289 0.44783 -0.00400
C 	C 	0.78657 0.11617 0.48332 -0.11500
C 	C 	0.81985 0.10808 0.52019 0.12500
C 	C 	0.80381 0.13678 0.55901 -0.23100
H 	H 	0.89037 0.06233 0.54860 0.06700
H 	H 	0.78155 0.10052 0.41967 0.03100
C 	C 	0.87424 0.03251 0.40978 -0.16200
H 	H 	0.84642 0.13996 0.58523 0.10900
H 	H 	0.73122 0.08802 0.56132 0.11900
H 	H 	0.82155 0.20479 0.56062 0.12700
H 	H 	0.83768 0.95871 0.40323 0.07000
H 	H 	0.94848 0.06749 0.41221 0.07700
H 	H 	0.85154 0.05114 0.38416 0.07800
C 	C 	0.19505 0.07252 0.46016 -0.07700
C 	C 	0.15812 0.05204 0.49496 -0.01200
C 	C 	0.21374 0.06932 0.53124 0.04900
C 	C 	0.30404 0.10187 0.53159 -0.01900
C 	C 	0.34080 0.12169 0.49675 -0.09100
C 	C 	0.28608 0.10703 0.46072 0.10300
C 	C 	0.32429 0.12758 0.42286 -0.21200
H 	H 	0.15218 0.05947 0.43242 0.06200
H 	H 	0.34660 0.11407 0.55927 0.07400
C 	C 	0.17642 0.05094 0.56937 -0.17200
H 	H 	0.27055 0.10399 0.39650 0.09600
H 	H 	0.35555 0.09344 0.41701 0.08500
H 	H 	0.37670 0.20126 0.42582 0.09600
H 	H 	0.13201 0.97748 0.56894 0.07100
H 	H 	0.13642 0.07665 0.57267 0.07900
H 	H 	0.23197 0.08464 0.59604 0.09200
C 	C 	0.87658 0.77901 0.00540 -0.07800
C 	C 	0.88677 0.80883 0.96884 -0.01500
C 	C 	0.86448 0.74932 0.93333 0.05200
C 	C 	0.83754 0.66269 0.93529 -0.02400
C 	C 	0.82822 0.63313 0.97186 -0.08800
C 	C 	0.84743 0.69145 0.00721 0.09500
C 	C 	0.83734 0.66079 0.04682 -0.20800
H 	H 	0.89353 0.82472 0.03259 0.06000
H 	H 	0.82172 0.61739 0.90814 0.07300
C 	C 	0.87209 0.77882 0.89348 -0.18900
H 	H 	0.86261 0.71660 0.07205 0.09200
H 	H 	0.87703 0.63495 0.05223 0.08600
H 	H 	0.76446 0.60661 0.04675 0.08700
H 	H 	0.94481 0.82416 0.89083 0.07900
H 	H 	0.84194 0.81470 0.89047 0.07700
H 	H 	0.83530 0.72043 0.86828 0.09400
C 	C 	0.88113 0.10484 0.01047 -0.07600
C 	C 	0.88036 0.07199 0.97182 -0.01400
C 	C 	0.85117 0.09385 0.93853 0.05400
C 	C 	0.82963 0.15362 0.94464 -0.01900
C 	C 	0.83411 0.18946 0.98344 -0.08900
C 	C 	0.86062 0.16528 0.01669 0.09400
C 	C 	0.86803 0.20424 0.05883 -0.20200
H 	H 	0.90272 0.08722 0.03592 0.06100
H 	H 	0.80860 0.17162 0.91917 0.08300
C 	C 	0.84682 0.05684 0.89659 -0.17700
H 	H 	0.90664 0.19336 0.08102 0.08500
H 	H 	0.79892 0.17161 0.06576 0.07100
H 	H 	0.90452 0.27792 0.06247 0.06000
H 	H 	0.81484 0.98404 0.89317 0.07000
H 	H 	0.91666 0.09328 0.89005 0.08300
H 	H 	0.80552 0.06432 0.87418 0.10500
C 	C 	0.22754 0.17961 0.99516 -0.07500
C 	C 	0.16623 0.11127 0.96220 -0.01100
C 	C 	0.19857 0.10090 0.92803 0.04300
C 	C 	0.29264 0.15375 0.92891 -0.01000
C 	C 	0.35419 0.21970 0.96256 -0.10000
C 	C 	0.32118 0.23606 0.99503 0.12400
C 	C 	0.38531 0.31277 0.02971 -0.23200
H 	H 	0.20222 0.18888 0.02092 0.06500
H 	H 	0.31807 0.14234 0.90371 0.05400
C 	C 	0.13359 0.03136 0.89125 -0.16700
H 	H 	0.34833 0.32920 0.04748 0.10000
H 	H 	0.43715 0.37438 0.01887 0.09100
H 	H 	0.41992 0.29426 0.04965 0.14200
H 	H 	0.07387 0.03109 0.88416 0.07600
H 	H 	0.11005 0.96385 0.89626 0.06600
H 	H 	0.16686 0.04545 0.86473 0.08300
