data_crystal

_cell_length_a 20.88072
_cell_length_b 21.19663
_cell_length_c 38.61523
_cell_angle_alpha 60.66469
_cell_angle_beta  119.09499
_cell_angle_gamma 133.12071

_symmetry_space_group_name_	'P 1'
_symmetry_space_group_name_H-M	'P 1'

loop_
_symmetry_equiv_pos_as_xyz
  x,y,z

loop_
_atom_site_label
_atom_site_type_symbol
_atom_site_fract_x
_atom_site_fract_y
_atom_site_fract_z
_atom_site_charge
Co	Co	0.07619 0.99579 0.05436 1.20500
Co	Co	0.10452 0.85577 0.06200 1.17800
C 	C 	0.25114 0.04888 0.05689 0.28800
O 	O 	0.07076 0.09638 0.04369 -0.39200
C 	C 	0.08134 0.19696 0.11922 0.29500
C 	C 	0.16372 0.80851 0.15116 0.30700
O 	O 	0.19435 0.86468 0.11820 -0.34300
O 	O 	0.10955 0.80716 0.16110 -0.30600
O 	O 	0.10043 0.15467 0.11404 -0.33700
O 	O 	0.05598 0.89378 0.07886 -0.75100
O 	O 	0.19936 0.98691 0.03735 -0.35900
O 	O 	0.21501 0.06064 0.07138 -0.33000
Co	Co	0.00667 0.11889 0.56593 1.19000
Co	Co	0.05356 0.03986 0.53253 1.18600
Co	Co	0.04938 0.88253 0.53279 1.18700
C 	C 	0.22126 0.06510 0.53836 0.28600
O 	O 	0.05013 0.12493 0.67861 -0.37900
C 	C 	0.05328 0.05607 0.70203 0.30400
O 	O 	0.06162 0.14740 0.52454 -0.39500
C 	C 	0.10216 0.27210 0.59834 0.31400
C 	C 	0.10965 0.82322 0.62194 0.31500
O 	O 	0.05376 0.01261 0.68655 -0.39000
O 	O 	0.05680 0.79421 0.58882 -0.36900
O 	O 	0.10548 0.87452 0.62967 -0.33800
O 	O 	0.02101 0.23822 0.59774 -0.38200
O 	O 	0.11584 0.22552 0.59286 -0.33500
O 	O 	0.02190 0.93392 0.55402 -0.75500
O 	O 	0.18530 0.97935 0.54908 -0.31700
O 	O 	0.18938 0.09441 0.54493 -0.34000
C 	C 	0.04550 0.00390 0.82112 -0.06500
C 	C 	0.11010 0.09087 0.80205 0.08900
C 	C 	0.12027 0.10600 0.76478 -0.01900
C 	C 	0.06798 0.03534 0.74665 -0.10100
C 	C 	0.16945 0.16721 0.82172 -0.22500
H 	H 	0.16619 0.17343 0.74896 0.09700
C 	C 	0.08920 0.94158 0.93594 0.15200
C 	C 	0.09078 0.95842 0.89641 -0.08400
C 	C 	0.15348 0.92138 0.97138 -0.22000
H 	H 	0.13413 0.95248 0.89226 0.09800
H 	H 	0.21065 0.15313 0.85212 0.12900
H 	H 	0.12739 0.17667 0.82558 0.12700
H 	H 	0.21648 0.23089 0.80293 0.15900
H 	H 	0.17175 0.89376 0.96250 0.13100
H 	H 	0.12445 0.87032 0.99806 0.07500
H 	H 	0.21708 0.98408 0.97990 0.14100
C 	C 	0.06114 0.00094 0.31558 -0.00900
C 	C 	0.07194 0.99837 0.28306 0.07200
C 	C 	0.14339 0.04767 0.34767 -0.18900
H 	H 	0.13814 0.04295 0.27686 0.05900
H 	H 	0.12693 0.02018 0.37742 0.13200
H 	H 	0.17436 0.12011 0.33715 0.15000
H 	H 	0.19441 0.03867 0.35318 0.13500
H 	H 	0.10106 0.18226 0.32225 0.16700
C 	C 	0.23002 0.43985 0.65542 -0.10800
C 	C 	0.20229 0.36460 0.64785 0.07100
C 	C 	0.17728 0.35999 0.60777 0.00400
H 	H 	0.19249 0.30635 0.67273 0.08100
C 	C 	0.25084 0.44086 0.69877 0.79000
F 	F 	0.20660 0.46703 0.69969 -0.40900
F 	F 	0.34289 0.50001 0.71245 -0.41200
F 	F 	0.22320 0.35749 0.72542 -0.43900
C 	C 	0.27478 0.82681 0.61512 -0.09600
C 	C 	0.25496 0.86782 0.62409 0.08200
C 	C 	0.18573 0.81487 0.64394 0.01100
C 	C 	0.16864 0.73215 0.67084 -0.06200
C 	C 	0.11152 0.68168 0.70074 0.78300
H 	H 	0.28008 0.93673 0.60887 0.09500
C 	C 	0.29711 0.86534 0.57431 0.79400
F 	F 	0.02129 0.63042 0.68174 -0.39600
F 	F 	0.23550 0.88220 0.54372 -0.42900
F 	F 	0.38220 0.94506 0.57500 -0.35800
C 	C 	0.20858 0.42926 0.12140 0.04400
C 	C 	0.15282 0.27593 0.13618 0.00900
C 	C 	0.18519 0.36167 0.10946 -0.06900
C 	C 	0.19367 0.38117 0.06798 0.78100
H 	H 	0.22714 0.49343 0.09987 0.13000
F 	F 	0.25972 0.47064 0.05489 -0.37900
F 	F 	0.21734 0.33233 0.06981 -0.40000
C 	C 	0.12501 0.66139 0.16225 0.05800
C 	C 	0.18349 0.74069 0.17470 0.02000
C 	C 	0.27269 0.76784 0.19682 -0.06600
C 	C 	0.15967 0.62780 0.15797 -0.10000
C 	C 	0.10044 0.56584 0.12973 0.78600
H 	H 	0.05361 0.63165 0.15151 0.11700
F 	F 	0.02831 0.57027 0.10363 -0.42500
F 	F 	0.06619 0.47875 0.15263 -0.39800
F 	F 	0.14890 0.58950 0.10553 -0.41300
F 	F 	0.37283 0.92403 0.18886 -0.38500
F 	F 	0.21056 0.07493 0.45030 -0.44700
C 	C 	0.29126 0.61953 0.17809 0.17700
N 	N 	0.23869 0.53253 0.17714 -0.06700
C 	C 	0.27522 0.49896 0.17664 0.19300
N 	N 	0.36491 0.54980 0.18045 -0.08800
C 	C 	0.41786 0.63627 0.18084 0.18300
N 	N 	0.38096 0.67187 0.17914 -0.11000
C 	C 	0.30012 0.70802 0.64160 0.19100
N 	N 	0.24985 0.62831 0.63263 -0.08300
C 	C 	0.29189 0.60209 0.63049 0.18700
N 	N 	0.38271 0.65607 0.63621 -0.09900
C 	C 	0.43295 0.73454 0.64552 0.18800
N 	N 	0.39189 0.75985 0.64901 -0.07400
C 	C 	0.22282 0.51280 0.58285 0.04100
C 	C 	0.24004 0.51474 0.62243 0.07700
C 	C 	0.19724 0.43813 0.57579 -0.06600
C 	C 	0.18745 0.44081 0.53366 0.78000
H 	H 	0.23318 0.57110 0.55783 0.13300
F 	F 	0.24051 0.52762 0.51206 -0.37700
F 	F 	0.09834 0.40357 0.51209 -0.41000
F 	F 	0.21429 0.39358 0.53675 -0.40200
C 	C 	0.20272 0.69536 0.66843 0.04400
C 	C 	0.25512 0.74180 0.64020 0.08000
H 	H 	0.18847 0.63117 0.68832 0.13700
F 	F 	0.13300 0.62651 0.73433 -0.37700
F 	F 	0.12597 0.74067 0.71450 -0.40000
F 	F 	0.29328 0.80834 0.56430 -0.38300
C 	C 	0.21723 0.41799 0.16208 0.08500
C 	C 	0.19468 0.33476 0.19040 -0.10100
C 	C 	0.16438 0.26493 0.17726 0.06600
H 	H 	0.14499 0.20042 0.19842 0.08000
C 	C 	0.20527 0.32119 0.23477 0.78600
F 	F 	0.16402 0.34916 0.23688 -0.41100
F 	F 	0.29606 0.37017 0.25375 -0.38200
F 	F 	0.16634 0.23242 0.25588 -0.45900
C 	C 	0.30612 0.72656 0.19815 0.04200
C 	C 	0.25127 0.65796 0.17799 0.07300
H 	H 	0.37529 0.74913 0.21413 0.12200
C 	C 	0.33381 0.84363 0.21722 0.78300
F 	F 	0.28478 0.84084 0.23305 -0.39200
F 	F 	0.40153 0.83820 0.24904 -0.38000
C 	C 	0.42107 0.19248 0.49717 0.04600
C 	C 	0.38178 0.13043 0.57185 0.07200
C 	C 	0.31548 0.12650 0.53548 0.02000
C 	C 	0.33620 0.16081 0.49752 -0.06800
C 	C 	0.26626 0.15827 0.45751 0.77600
H 	H 	0.36622 0.10603 0.60075 0.08800
F 	F 	0.30701 0.22154 0.42514 -0.41200
F 	F 	0.21472 0.17576 0.45884 -0.43800
C 	C 	0.40698 0.09347 0.08620 0.05500
C 	C 	0.34675 0.11391 0.05548 0.01900
C 	C 	0.36877 0.17194 0.01741 -0.08900
H 	H 	0.39180 0.05178 0.11588 0.11900
C 	C 	0.31139 0.20446 0.98517 0.79000
F 	F 	0.27897 0.21736 0.00320 -0.41300
F 	F 	0.23930 0.14225 0.96244 -0.45600
C 	C 	0.02677 0.93064 0.98266 0.32100
O 	O 	0.03523 0.98726 0.99368 -0.31000
O 	O 	0.05059 0.96820 0.47546 -0.34500
C 	C 	0.01316 0.94703 0.76873 0.12200
C 	C 	0.03525 0.95346 0.94132 -0.07400
H 	H 	0.02920 0.87377 0.75376 0.12800
C 	C 	0.02660 0.13437 0.31340 -0.25600
H 	H 	0.03593 0.12828 0.38793 0.09600
O 	O 	0.01513 0.72232 0.08623 -0.37700
C 	C 	0.03904 0.98477 0.86213 0.03800
O 	O 	0.01075 0.85423 0.00792 -0.38200
C 	C 	0.44020 0.19383 0.00815 0.02600
F 	F 	0.36147 0.28488 0.95913 -0.39800
F 	F 	0.11242 0.35944 0.03974 -0.40300
H 	H 	0.43786 0.21917 0.46833 0.11100
H 	H 	0.45409 0.23434 0.97813 0.11400
H 	H 	0.00768 0.11679 0.28554 0.13500
Co	Co	0.00744 0.82720 0.11896 1.19200
O 	O 	0.00618 0.92689 0.20161 -0.38000
C 	C 	0.46406 0.15685 0.57152 -0.08800
Co	Co	0.00085 0.05842 0.08083 1.18400
F 	F 	0.46579 0.88434 0.57079 -0.35900
C 	C 	0.99890 0.93234 0.80477 -0.00100
Co	Co	0.99179 0.87698 0.59858 1.20600
C 	C 	0.98304 0.99380 0.86703 0.10300
C 	C 	0.48098 0.11835 0.07755 -0.09900
F 	F 	0.50330 0.02411 0.14295 -0.39300
C 	C 	0.99320 0.98855 0.45615 0.35300
C 	C 	0.99377 0.05396 0.34876 0.08400
C 	C 	0.99540 0.06262 0.38318 0.00100
H 	H 	0.99599 0.16822 0.30530 0.16500
H 	H 	0.48499 0.78198 0.12028 0.11500
C 	C 	0.98326 0.98016 0.90666 0.01400
H 	H 	0.96181 0.08243 0.81070 0.13100
F 	F 	0.48332 0.07953 0.64197 -0.39900
O 	O 	0.98426 0.02243 0.47312 -0.34600
C 	C 	0.54257 0.09142 0.11065 0.78200
F 	F 	0.56116 0.06057 0.09491 -0.42000
C 	C 	0.97255 0.95614 0.31818 0.07700
C 	C 	0.95578 0.96834 0.34725 0.01900
F 	F 	0.52094 0.93760 0.62471 -0.36600
C 	C 	0.52913 0.14771 0.61163 0.78900
O 	O 	0.99838 0.03843 0.19073 -0.39300
C 	C 	0.99683 0.96734 0.21457 0.35000
O 	O 	0.99715 0.16560 0.11165 -0.35900
C 	C 	0.99663 0.94064 0.25769 -0.11200
H 	H 	0.83554 0.77431 0.44601 0.14000
C 	C 	0.54200 0.92695 0.59999 0.81300
F 	F 	0.60408 0.01123 0.58015 -0.41100
F 	F 	0.95534 0.45872 0.47574 -0.37300
C 	C 	0.71233 0.25731 0.02285 0.17900
N 	N 	0.62377 0.20292 0.02437 -0.10000
C 	C 	0.59275 0.23040 0.03405 0.17900
N 	N 	0.64835 0.31231 0.04055 -0.10300
C 	C 	0.73588 0.36606 0.03970 0.18700
N 	N 	0.76879 0.33802 0.03187 -0.06300
C 	C 	0.70148 0.29742 0.51451 0.17800
N 	N 	0.61404 0.23790 0.51773 -0.10000
C 	C 	0.58149 0.25595 0.53206 0.18300
N 	N 	0.63511 0.33388 0.54231 -0.09500
C 	C 	0.72060 0.39541 0.53755 0.19000
N 	N 	0.75451 0.37702 0.52407 -0.06800
Co	Co	0.93302 0.89108 0.14548 1.19500
C 	C 	0.93083 0.68589 0.08217 0.32700
Co	Co	0.90397 0.03321 0.13609 1.17500
O 	O 	0.94247 0.98757 0.11740 -0.72200
O 	O 	0.94643 0.79431 0.15891 -0.38800
O 	O 	0.97733 0.92965 0.09088 -0.53500
C 	C 	0.75714 0.83661 0.14748 0.31000
O 	O 	0.80794 0.90492 0.16312 -0.37000
O 	O 	0.79444 0.81485 0.13976 -0.32400
C 	C 	0.84678 0.08200 0.04645 0.31000
O 	O 	0.81628 0.02395 0.07939 -0.30700
O 	O 	0.91203 0.09597 0.03861 -0.29600
O 	O 	0.91004 0.71810 0.09369 -0.30900
Co	Co	0.95735 0.96122 0.63546 1.20300
C 	C 	0.87181 0.73137 0.55133 0.31200
Co	Co	0.94098 0.10940 0.63011 1.18100
O 	O 	0.96290 0.05557 0.60703 -0.75200
O 	O 	0.96151 0.85959 0.64654 -0.39300
O 	O 	0.97132 0.98485 0.57500 -0.53100
C 	C 	0.80146 0.91260 0.65375 0.31200
O 	O 	0.86053 0.98587 0.66638 -0.35500
O 	O 	0.82599 0.88764 0.63987 -0.31300
C 	C 	0.85497 0.13931 0.54170 0.30800
O 	O 	0.83733 0.08954 0.57807 -0.34800
O 	O 	0.91109 0.14864 0.52905 -0.29200
O 	O 	0.91175 0.79196 0.52087 -0.35600
O 	O 	0.88642 0.75367 0.58276 -0.30500
C 	C 	0.97400 0.86863 0.75531 -0.19600
H 	H 	0.95390 0.86487 0.82093 0.10000
C 	C 	0.92139 0.01547 0.83031 -0.25800
H 	H 	0.94090 0.98772 0.91051 0.09600
H 	H 	0.93643 0.80423 0.77698 0.16300
H 	H 	0.92661 0.86717 0.72479 0.14000
H 	H 	0.87839 0.01548 0.83937 0.13700
H 	H 	0.87612 0.96499 0.81223 0.15400
C 	C 	0.89910 0.89318 0.29505 -0.10700
C 	C 	0.91311 0.87870 0.26847 0.15500
C 	C 	0.84086 0.79441 0.25415 -0.24400
H 	H 	0.83140 0.85336 0.29866 0.10200
C 	C 	0.95016 0.98624 0.41291 -0.06400
C 	C 	0.88982 0.90283 0.40359 0.13700
C 	C 	0.89967 0.89284 0.37364 -0.07300
C 	C 	0.81896 0.82324 0.42710 -0.24600
H 	H 	0.86432 0.82652 0.37116 0.09300
H 	H 	0.83287 0.73660 0.28060 0.15800
H 	H 	0.85634 0.79328 0.23084 0.11100
H 	H 	0.77640 0.78726 0.24119 0.13100
H 	H 	0.75230 0.79104 0.40539 0.17100
H 	H 	0.81319 0.84235 0.44703 0.16300
C 	C 	0.66210 0.90418 0.62338 0.07800
C 	C 	0.70550 0.86303 0.65163 0.00700
C 	C 	0.66336 0.78576 0.68241 -0.06300
C 	C 	0.57659 0.74960 0.68280 0.03500
C 	C 	0.53227 0.78962 0.65347 0.07700
C 	C 	0.57901 0.87200 0.62587 -0.09700
H 	H 	0.69570 0.96438 0.60081 0.11700
H 	H 	0.54188 0.68845 0.70507 0.13200
C 	C 	0.71320 0.74626 0.71666 0.77600
F 	F 	0.78105 0.80333 0.74220 -0.44400
F 	F 	0.75025 0.73428 0.70089 -0.42000
F 	F 	0.65631 0.66410 0.73970 -0.39200
C 	C 	0.52969 0.76136 0.13896 0.04300
C 	C 	0.51022 0.69407 0.17519 0.06600
C 	C 	0.56820 0.66629 0.19914 -0.10900
C 	C 	0.63797 0.69973 0.18388 0.06500
C 	C 	0.66106 0.77144 0.14934 0.01100
C 	C 	0.60026 0.79516 0.12429 -0.07700
C 	C 	0.60710 0.85321 0.08132 0.78500
H 	H 	0.67927 0.67516 0.20091 0.08600
C 	C 	0.55457 0.59917 0.24033 0.78700
F 	F 	0.52174 0.81922 0.05534 -0.36800
F 	F 	0.65837 0.85643 0.06677 -0.39200
F 	F 	0.64496 0.93823 0.08089 -0.41200
F 	F 	0.49493 0.51372 0.23487 -0.38400
F 	F 	0.52092 0.60785 0.25977 -0.40000
F 	F 	0.63554 0.61190 0.26569 -0.42500
C 	C 	0.68448 0.18578 0.49736 0.05200
C 	C 	0.73986 0.27156 0.50374 0.07800
C 	C 	0.83355 0.32457 0.50612 -0.09000
C 	C 	0.87250 0.28169 0.51650 0.07000
C 	C 	0.81755 0.19175 0.51620 0.02000
C 	C 	0.72335 0.14811 0.50090 -0.06100
C 	C 	0.66412 0.06099 0.48927 0.77100
H 	H 	0.61168 0.14751 0.49078 0.12900
H 	H 	0.94522 0.31773 0.52564 0.12500
C 	C 	0.88942 0.42551 0.49268 0.78500
F 	F 	0.58681 0.05021 0.45981 -0.38300
F 	F 	0.63929 0.99058 0.52329 -0.37800
F 	F 	0.70984 0.05941 0.47346 -0.40000
F 	F 	0.93149 0.46001 0.52602 -0.38000
F 	F 	0.83615 0.45421 0.46328 -0.40300
C 	C 	0.73154 0.53354 0.51085 0.04100
C 	C 	0.76886 0.48656 0.53973 0.07300
C 	C 	0.83219 0.51475 0.57601 -0.08200
C 	C 	0.85719 0.59008 0.58216 0.06100
C 	C 	0.81969 0.63677 0.55298 0.01500
C 	C 	0.74942 0.60238 0.51919 -0.08500
C 	C 	0.68065 0.62344 0.49765 0.77900
H 	H 	0.67964 0.50900 0.48414 0.10800
H 	H 	0.90872 0.61488 0.60878 0.12900
C 	C 	0.86890 0.46165 0.60914 0.78200
F 	F 	0.60568 0.55547 0.51400 -0.38500
F 	F 	0.65408 0.62858 0.45636 -0.42100
F 	F 	0.71340 0.70288 0.50177 -0.42200
F 	F 	0.90184 0.44683 0.59249 -0.37800
F 	F 	0.80057 0.38050 0.62708 -0.36700
F 	F 	0.93866 0.50603 0.63931 -0.37300
C 	C 	0.48645 0.19462 0.53375 0.07700
F 	F 	0.59003 0.22662 0.62368 -0.37900
F 	F 	0.57580 0.12813 0.60750 -0.36800
C 	C 	0.87497 0.22865 0.02436 0.06200
C 	C 	0.81587 0.14043 0.02099 0.02000
C 	C 	0.72233 0.10213 0.00532 -0.05000
C 	C 	0.68838 0.14167 0.00495 0.03900
C 	C 	0.74783 0.22573 0.01365 0.07800
C 	C 	0.84131 0.27494 0.01640 -0.09100
C 	C 	0.90153 0.37598 0.00440 0.77700
H 	H 	0.94699 0.26065 0.03412 0.13000
H 	H 	0.61609 0.10845 0.99647 0.12500
C 	C 	0.66230 0.03210 0.98152 0.76100
F 	F 	0.97155 0.40749 0.99092 -0.35100
F 	F 	0.93867 0.40896 0.03769 -0.37300
F 	F 	0.85266 0.40778 0.97267 -0.35400
F 	F 	0.69614 0.98589 0.99169 -0.35200
F 	F 	0.65516 0.07350 0.94023 -0.38400
F 	F 	0.57691 0.97146 0.98886 -0.34000
C 	C 	0.84823 0.60631 0.02906 0.08400
C 	C 	0.86079 0.60265 0.06892 0.01000
C 	C 	0.83057 0.52035 0.09836 -0.05600
C 	C 	0.80713 0.44841 0.09010 0.05200
C 	C 	0.79529 0.45156 0.05037 0.09500
C 	C 	0.81466 0.53123 0.01917 -0.10100
C 	C 	0.81026 0.54012 0.97670 0.79700
H 	H 	0.87122 0.66980 0.00652 0.08800
H 	H 	0.79075 0.38696 0.11371 0.13500
C 	C 	0.82074 0.50852 0.13795 0.78000
F 	F 	0.81657 0.61640 0.94936 -0.40400
F 	F 	0.72976 0.46819 0.96137 -0.39200
F 	F 	0.88158 0.54533 0.97872 -0.35400
F 	F 	0.77785 0.54462 0.12982 -0.40000
F 	F 	0.90480 0.55098 0.16387 -0.41400
F 	F 	0.76975 0.41928 0.15774 -0.38500
C 	C 	0.49958 0.17191 0.03845 0.05900
F 	F 	0.62259 0.16435 0.12542 -0.40400
