data_crystal

_cell_length_a 16.18677
_cell_length_b 15.31878
_cell_length_c 39.10081
_cell_angle_alpha 89.89828
_cell_angle_beta  89.90092
_cell_angle_gamma 119.41688

_symmetry_space_group_name_	'P 1'
_symmetry_space_group_name_H-M	'P 1'

loop_
_symmetry_equiv_pos_as_xyz
  x,y,z

loop_
_atom_site_label
_atom_site_type_symbol
_atom_site_fract_x
_atom_site_fract_y
_atom_site_fract_z
_atom_site_charge
Ni	Ni	0.07682 0.93897 0.76956 1.09700
Ni	Ni	0.10386 0.16064 0.75437 1.12700
O 	O 	0.06470 0.22909 0.25619 -0.34800
C 	C 	0.07206 0.66971 0.51308 -0.04900
C 	C 	0.00343 0.55014 0.98045 -0.05100
H 	H 	0.03134 0.56830 0.95463 0.06600
C 	C 	0.20616 0.11123 0.80929 0.34600
C 	C 	0.22826 0.09644 0.71903 0.33800
O 	O 	0.12822 0.02686 0.81209 -0.32000
O 	O 	0.20986 0.18065 0.78825 -0.34300
O 	O 	0.20712 0.02496 0.74286 -0.34500
O 	O 	0.18672 0.15243 0.71777 -0.36000
C 	C 	0.18237 0.43721 0.39969 0.35300
C 	C 	0.27732 0.74085 0.36558 0.36000
C 	C 	0.17103 0.66376 0.46555 0.29800
C 	C 	0.41739 0.73961 0.50169 0.28200
Ni	Ni	0.36447 0.61490 0.38497 1.12000
Ni	Ni	0.27857 0.55649 0.46171 1.12500
Ni	Ni	0.36127 0.78097 0.43474 1.12400
O 	O 	0.16673 0.57868 0.45706 -0.36600
O 	O 	0.21991 0.52287 0.38392 -0.36900
O 	O 	0.20856 0.43274 0.43114 -0.35000
O 	O 	0.34243 0.71747 0.35679 -0.35200
O 	O 	0.26477 0.75526 0.39772 -0.36400
O 	O 	0.33498 0.65367 0.50182 -0.36500
O 	O 	0.38205 0.51929 0.46329 -0.37000
O 	O 	0.25344 0.74637 0.46799 -0.37000
O 	O 	0.35696 0.65564 0.42919 -0.71800
H 	H 	0.42041 0.67250 0.43761 0.16200
C 	C 	0.20654 0.64076 0.16503 0.34200
C 	C 	0.18201 0.42485 0.08515 0.35700
C 	C 	0.08609 0.62819 0.06509 0.32600
C 	C 	0.33248 0.84022 0.03739 0.26500
Ni	Ni	0.33435 0.60352 0.11787 1.12100
Ni	Ni	0.25688 0.76097 0.10473 1.12400
Ni	Ni	0.24641 0.61416 0.04559 1.12300
O 	O 	0.13799 0.72124 0.07569 -0.36700
O 	O 	0.28288 0.63067 0.16438 -0.30100
O 	O 	0.17217 0.65005 0.13635 -0.38100
O 	O 	0.26982 0.74938 0.02518 -0.36600
O 	O 	0.20441 0.47766 0.11296 -0.36700
O 	O 	0.21594 0.46890 0.05537 -0.37200
O 	O 	0.33009 0.86435 0.06965 -0.37100
O 	O 	0.36951 0.82318 0.13965 -0.32600
O 	O 	0.12159 0.56986 0.06691 -0.38200
O 	O 	0.30491 0.67852 0.08690 -0.71100
H 	H 	0.36756 0.73057 0.07878 0.17400
C 	C 	0.04644 0.14946 0.18066 0.27900
C 	C 	0.12148 0.22583 0.27885 0.33700
C 	C 	0.08839 0.90287 0.28659 0.29300
C 	C 	0.04798 0.85715 0.21287 0.28000
Ni	Ni	0.11664 0.06310 0.23665 1.13600
O 	O 	0.12014 0.15927 0.19909 -0.31200
O 	O 	0.09591 0.95294 0.20363 -0.37200
O 	O 	0.16451 0.17456 0.27217 -0.34700
O 	O 	0.14558 0.99297 0.27434 -0.34800
C 	C 	0.17856 0.26707 0.09879 -0.07600
C 	C 	0.12814 0.31554 0.08860 -0.13300
C 	C 	0.03311 0.27346 0.09906 0.34800
C 	C 	0.00156 0.21027 0.12779 -0.13300
C 	C 	0.06306 0.18316 0.14422 -0.07000
C 	C 	0.14746 0.20274 0.12727 0.32700
F 	F 	0.20134 0.16395 0.13924 -0.42200
H 	H 	0.24845 0.29097 0.08827 0.09400
C 	C 	0.19259 0.83765 0.20876 -0.10000
C 	C 	0.09334 0.79319 0.20971 -0.09900
C 	C 	0.03863 0.68751 0.20964 0.30800
C 	C 	0.08277 0.62951 0.20394 -0.07200
C 	C 	0.17986 0.67650 0.19589 -0.11500
C 	C 	0.23540 0.77810 0.20460 0.34800
F 	F 	0.33081 0.82070 0.20663 -0.40000
H 	H 	0.23656 0.91804 0.21120 0.12700
H 	H 	0.03927 0.54927 0.20062 0.10700
C 	C 	0.17934 0.25327 0.33938 -0.08900
C 	C 	0.12075 0.26018 0.31426 -0.11300
C 	C 	0.05925 0.29705 0.32357 0.31900
C 	C 	0.06531 0.33709 0.35611 -0.07100
C 	C 	0.13610 0.34652 0.37879 -0.13300
C 	C 	0.18507 0.29406 0.37185 0.35000
F 	F 	0.24501 0.29091 0.39538 -0.43400
H 	H 	0.22252 0.21914 0.33352 0.12300
H 	H 	0.02276 0.37191 0.36212 0.10800
C 	C 	0.08051 0.76548 0.32422 -0.09300
C 	C 	0.13281 0.84731 0.30230 -0.10500
C 	C 	0.23007 0.87959 0.29662 0.34000
C 	C 	0.27500 0.83624 0.31477 -0.07600
C 	C 	0.22490 0.76214 0.33924 -0.12200
C 	C 	0.12639 0.72309 0.34263 0.35000
F 	F 	0.07573 0.64615 0.36456 -0.44000
H 	H 	0.35055 0.86531 0.31147 0.13000
F 	F 	0.28230 0.95626 0.27480 -0.42900
C 	C 	0.41993 0.81459 0.55744 -0.00600
H 	H 	0.43941 0.93847 0.58876 0.06800
H 	H 	0.34327 0.77979 0.55808 0.06100
C 	C 	0.08454 0.66231 0.47790 -0.02400
H 	H 	0.13259 0.69970 0.53008 0.06500
C 	C 	0.39012 0.32718 0.45926 0.00600
H 	H 	0.38673 0.20935 0.49023 0.06600
H 	H 	0.31452 0.29907 0.46175 0.08200
C 	C 	0.43867 0.20744 0.64132 -0.11700
C 	C 	0.36578 0.10680 0.64069 0.33100
C 	C 	0.30268 0.06640 0.66829 -0.02600
C 	C 	0.31064 0.12629 0.69650 -0.13300
C 	C 	0.38517 0.22615 0.69747 0.35400
F 	F 	0.39308 0.28587 0.72431 -0.43400
H 	H 	0.24461 0.99007 0.66691 0.05500
F 	F 	0.35568 0.04843 0.61319 -0.42200
C 	C 	0.04158 0.62447 0.00561 0.00900
C 	C 	0.01167 0.60082 0.03967 -0.11100
H 	H 	0.10284 0.69595 0.99946 0.04600
C 	C 	0.36485 0.98156 0.99833 -0.07600
H 	H 	0.28953 0.95539 0.99627 0.06500
C 	C 	0.38127 0.08186 0.86562 -0.08500
C 	C 	0.36939 0.13761 0.79871 -0.08600
C 	C 	0.29470 0.11605 0.82163 -0.11200
C 	C 	0.29837 0.08106 0.85464 0.34700
F 	F 	0.22405 0.05130 0.87651 -0.39800
H 	H 	0.38678 0.06388 0.89205 0.10200
H 	H 	0.36556 0.15743 0.77250 0.13400
O 	O 	0.38803 0.49933 0.40415 -0.32700
H 	H 	0.08732 0.29482 0.66646 0.11300
C 	C 	0.44820 0.26644 0.66995 -0.08600
H 	H 	0.34007 0.35254 0.96444 0.06100
H 	H 	0.32095 0.40168 0.02254 0.05700
H 	H 	0.04378 0.34035 0.81787 0.08600
F 	F 	0.03182 0.87806 0.87011 -0.43800
H 	H 	0.01495 0.62657 0.42877 0.09800
H 	H 	0.03910 0.00801 0.72755 0.16100
F 	F 	0.05307 0.38257 0.61549 -0.42800
H 	H 	0.40460 0.12284 0.97370 0.04000
C 	C 	0.39033 0.42650 0.97374 -0.01100
C 	C 	0.38195 0.45242 0.00737 -0.00100
O 	O 	0.44444 0.80244 0.47523 -0.37700
C 	C 	0.47439 0.90483 0.57473 0.01400
C 	C 	0.40964 0.48727 0.43629 0.28800
O 	O 	0.47394 0.85005 0.40110 -0.33800
C 	C 	0.41298 0.59222 0.04540 0.29200
C 	C 	0.44702 0.81141 0.14150 0.33400
O 	O 	0.39610 0.55854 0.07789 -0.34800
O 	O 	0.37681 0.64530 0.03282 -0.38600
O 	O 	0.45246 0.73918 0.12534 -0.36900
F 	F 	0.42941 0.72568 0.20756 -0.40600
C 	C 	0.46414 0.78054 0.53431 -0.04700
C 	C 	0.43111 0.27630 0.47546 0.00500
C 	C 	0.44751 0.41890 0.44266 -0.03000
H 	H 	0.50574 0.34309 0.67123 0.11000
C 	C 	0.43014 0.07824 0.98673 0.07000
C 	C 	0.39666 0.92109 0.01416 -0.01100
C 	C 	0.46322 0.12880 0.84526 -0.10700
C 	C 	0.45034 0.13517 0.81006 0.35500
O 	O 	0.02990 0.01851 0.75176 -0.70700
C 	C 	0.00595 0.62850 0.45615 -0.05500
C 	C 	0.51559 0.24358 0.61582 0.35500
O 	O 	0.50624 0.72339 0.38562 -0.36100
C 	C 	0.47163 0.48816 0.95435 -0.03400
C 	C 	0.44719 0.54698 0.02030 -0.06200
C 	C 	0.51457 0.43827 0.93544 0.28700
O 	O 	0.53853 0.29938 0.86011 -0.35600
C 	C 	0.53537 0.81879 0.39275 0.31600
C 	C 	0.51722 0.86131 0.16847 -0.09700
C 	C 	0.51335 0.80344 0.19717 0.35600
C 	C 	0.49464 0.95770 0.01732 -0.08000
F 	F 	0.52403 0.16115 0.78821 -0.41700
C 	C 	0.54364 0.21577 0.86041 0.32000
O 	O 	0.53939 0.38421 0.95412 -0.38400
C 	C 	0.52987 0.31660 0.47520 -0.05900
C 	C 	0.52809 0.11566 0.99076 -0.08800
O 	O 	0.55695 0.19019 0.61056 -0.36500
O 	O 	0.55430 0.47298 0.90453 -0.31600
O 	O 	0.55370 0.28853 0.53366 -0.37100
O 	O 	0.55280 0.33573 0.60344 -0.37600
C 	C 	0.54499 0.45341 0.43912 -0.01000
H 	H 	0.52039 0.91275 0.02999 0.06100
C 	C 	0.53253 0.58537 0.96625 -0.01800
C 	C 	0.52426 0.61193 0.99974 0.00500
F 	F 	0.57602 0.98574 0.34933 -0.42000
C 	C 	0.57274 0.95840 0.56956 -0.10300
C 	C 	0.03198 0.24383 0.64942 -0.10100
C 	C 	0.56275 0.82092 0.53610 -0.01300
C 	C 	0.55969 0.05481 0.00635 0.07800
H 	H 	0.00516 0.73664 0.32787 0.10900
C 	C 	0.57470 0.28501 0.50165 0.30400
O 	O 	0.02715 0.18008 0.79117 -0.38900
H 	H 	0.58664 0.30585 0.91707 0.17000
C 	C 	0.58605 0.40205 0.45517 0.00500
O 	O 	0.01372 0.83912 0.72969 -0.40000
C 	C 	0.59489 0.20029 0.96931 0.29500
H 	H 	0.58990 0.52348 0.42600 0.05600
H 	H 	0.57373 0.68649 0.00879 0.04800
H 	H 	0.59292 0.63643 0.95114 0.09800
C 	C 	0.62113 0.06773 0.57017 0.35400
O 	O 	0.62130 0.11583 0.54238 -0.35900
C 	C 	0.60479 0.94302 0.15911 -0.07800
C 	C 	0.59678 0.81681 0.21233 -0.08500
H 	H 	0.60903 0.98981 0.13761 0.09200
H 	H 	0.59278 0.76986 0.23375 0.11000
H 	H 	0.59763 0.79106 0.52006 0.04900
O 	O 	0.62549 0.21563 0.86681 -0.34400
O 	O 	0.62011 0.17777 0.93991 -0.37100
C 	C 	0.63250 0.89323 0.38201 -0.09100
C 	C 	0.61738 0.91077 0.55354 0.01900
O 	O 	0.99847 0.87487 0.29331 -0.33800
F 	F 	0.64733 0.69596 0.89373 -0.44800
Ni	Ni	0.64566 0.43311 0.87681 1.12400
C 	C 	0.64633 0.96478 0.35677 0.28100
O 	O 	0.64427 0.29246 0.98277 -0.36900
O 	O 	0.65262 0.36001 0.91453 -0.71200
O 	O 	0.64951 0.27652 0.49390 -0.34600
H 	H 	0.63500 0.08128 0.00873 0.05000
O 	O 	0.02478 0.17657 0.71694 -0.38200
Ni	Ni	0.65128 0.39128 0.56510 1.12300
H 	H 	0.66229 0.43310 0.45425 0.05800
O 	O 	0.67683 0.11607 0.59586 -0.36400
Ni	Ni	0.67572 0.42403 0.95764 1.12200
H 	H 	0.70407 0.60919 0.63912 0.10300
C 	C 	0.68487 0.89129 0.20038 -0.10900
C 	C 	0.68848 0.95671 0.17441 0.31000
H 	H 	0.69388 0.94919 0.55095 0.03600
C 	C 	0.00840 0.28207 0.62091 0.32500
H 	H 	0.70935 0.25720 0.79984 0.14800
Ni	Ni	0.69740 0.25147 0.61220 1.13100
H 	H 	0.69958 0.82407 0.41046 0.10000
O 	O 	0.70890 0.56752 0.94306 -0.36800
Ni	Ni	0.71407 0.28213 0.90873 1.12500
C 	C 	0.70790 0.87620 0.39021 -0.11000
O 	O 	0.71587 0.31690 0.56950 -0.71800
O 	O 	0.72718 0.40842 0.83993 -0.34100
O 	O 	0.71721 0.37305 0.64031 -0.34700
H 	H 	0.73466 0.81437 0.84243 0.10300
C 	C 	0.72902 0.00705 0.33674 0.02100
C 	C 	0.74264 0.74467 0.88919 0.33300
F 	F 	0.97763 0.30869 0.08582 -0.41000
O 	O 	0.96655 0.13480 0.19584 -0.28800
O 	O 	0.98287 0.01038 0.24218 -0.65400
O 	O 	0.95768 0.81593 0.22227 -0.30700
H 	H 	0.96551 0.99212 0.21809 0.11700
F 	F 	0.94292 0.64115 0.21317 -0.39800
H 	H 	0.93259 0.18893 0.13860 0.17200
F 	F 	0.99576 0.29697 0.30092 -0.41100
C 	C 	0.76318 0.61219 0.91623 0.35200
C 	C 	0.80075 0.39825 0.84833 0.35300
C 	C 	0.84992 0.42261 0.95943 0.30400
O 	O 	0.81280 0.47719 0.95174 -0.38500
O 	O 	0.76706 0.55833 0.89149 -0.36300
O 	O 	0.81647 0.39091 0.88042 -0.36000
O 	O 	0.81042 0.32954 0.94810 -0.34900
C 	C 	0.82415 0.47753 0.51818 0.29000
C 	C 	0.86985 0.25562 0.58689 0.33500
C 	C 	0.75560 0.46808 0.62958 0.34200
Ni	Ni	0.73356 0.25589 0.53041 1.12000
O 	O 	0.83583 0.39785 0.51563 -0.34900
O 	O 	0.73890 0.46854 0.52439 -0.36700
O 	O 	0.74253 0.49146 0.59814 -0.38500
O 	O 	0.83096 0.22403 0.55602 -0.35000
O 	O 	0.83684 0.29703 0.60880 -0.33900
H 	H 	0.78058 0.37285 0.57287 0.17100
C 	C 	0.92337 0.80287 0.72162 0.36200
C 	C 	0.91178 0.88068 0.81705 0.35200
C 	C 	0.93974 0.16148 0.78502 0.37100
C 	C 	0.97622 0.10761 0.69325 0.34200
Ni	Ni	0.89641 0.96932 0.75143 1.11900
O 	O 	0.86775 0.82681 0.73969 -0.34700
O 	O 	0.91103 0.01497 0.70235 -0.28900
O 	O 	0.95892 0.84582 0.79946 -0.33400
O 	O 	0.88265 0.93792 0.80224 -0.37600
O 	O 	0.88672 0.09249 0.76263 -0.31600
C 	C 	0.85742 0.98215 0.31229 0.32900
C 	C 	0.76938 0.91844 0.22101 0.33500
Ni	Ni	0.93760 0.10184 0.24784 1.14100
Ni	Ni	0.90807 0.87545 0.25777 1.12100
O 	O 	0.91978 0.07064 0.29999 -0.30900
O 	O 	0.83192 0.89898 0.29478 -0.35200
O 	O 	0.79718 0.99524 0.24151 -0.37500
O 	O 	0.80126 0.85375 0.22480 -0.35200
F 	F 	0.77317 0.03319 0.16387 -0.40800
C 	C 	0.79742 0.97698 0.34144 -0.17300
C 	C 	0.78981 0.91732 0.36985 0.36500
H 	H 	0.73546 0.05546 0.31546 0.10300
F 	F 	0.85775 0.89171 0.37586 -0.43400
C 	C 	0.91444 0.58592 0.47000 0.05600
C 	C 	0.90151 0.57281 0.50551 -0.07800
C 	C 	0.98030 0.62616 0.52684 0.04500
H 	H 	0.85379 0.55032 0.45313 0.04900
H 	H 	0.97106 0.62176 0.55436 0.05200
C 	C 	0.89234 0.11410 0.60427 -0.09600
C 	C 	0.93048 0.21806 0.60072 -0.08700
C 	C 	0.97779 0.14141 0.65761 -0.09300
C 	C 	0.91505 0.07543 0.63293 0.38100
F 	F 	0.87307 0.97468 0.63739 -0.44000
H 	H 	0.83704 0.06350 0.58713 0.11900
C 	C 	0.76136 0.61861 0.65575 -0.08100
C 	C 	0.79367 0.54866 0.65513 -0.11700
C 	C 	0.86715 0.56097 0.67703 0.34600
C 	C 	0.90952 0.64405 0.69875 -0.07600
C 	C 	0.87866 0.71540 0.69874 -0.12000
C 	C 	0.80380 0.70174 0.67730 0.34900
F 	F 	0.77351 0.77014 0.67680 -0.41600
H 	H 	0.96613 0.65283 0.71561 0.11400
F 	F 	0.89924 0.49407 0.67664 -0.41600
C 	C 	0.88487 0.43879 0.02058 -0.02500
C 	C 	0.91970 0.45953 0.98689 -0.01400
C 	C 	0.92609 0.51214 0.04606 0.05500
H 	H 	0.82004 0.36990 0.02624 0.07100
H 	H 	0.89870 0.49411 0.07194 0.06400
C 	C 	0.78261 0.27629 0.80345 -0.09500
C 	C 	0.84282 0.35968 0.82318 -0.11200
C 	C 	0.93868 0.38520 0.82660 0.33300
C 	C 	0.97046 0.32101 0.81413 -0.04700
C 	C 	0.90716 0.23135 0.79764 -0.12800
C 	C 	0.81313 0.21073 0.79163 0.36100
F 	F 	0.75002 0.12519 0.77561 -0.40600
F 	F 	0.99947 0.46876 0.84409 -0.41500
C 	C 	0.89856 0.77814 0.90596 -0.08700
C 	C 	0.79968 0.71886 0.90924 -0.12800
C 	C 	0.78103 0.80427 0.85999 -0.08200
C 	C 	0.87693 0.84152 0.85174 -0.12500
C 	C 	0.93722 0.83482 0.87612 0.36600
H 	H 	0.94447 0.76641 0.92326 0.10800
