data_crystal

_cell_length_a 22.11762
_cell_length_b 22.27166
_cell_length_c 53.43240
_cell_angle_alpha 89.76278
_cell_angle_beta  89.77064
_cell_angle_gamma 119.79570

_symmetry_space_group_name_	'P 1'
_symmetry_space_group_name_H-M	'P 1'

loop_
_symmetry_equiv_pos_as_xyz
  x,y,z

loop_
_atom_site_label
_atom_site_type_symbol
_atom_site_fract_x
_atom_site_fract_y
_atom_site_fract_z
_atom_site_charge
Ni	Ni	0.09597 0.99241 0.73211 1.10600
Ni	Ni	0.07243 0.12537 0.73624 1.12200
O 	O 	0.04349 0.03132 0.74411 -0.71000
H 	H 	0.05753 0.03651 0.76178 0.15600
C 	C 	0.05477 0.11408 0.18770 0.32600
C 	C 	0.05415 0.15403 0.25852 0.30900
C 	C 	0.07658 0.93482 0.20450 0.32500
C 	C 	0.06950 0.96705 0.27424 0.28900
O 	O 	0.01547 0.12498 0.20338 -0.36700
O 	O 	0.03320 0.91537 0.25845 -0.37300
O 	O 	0.98579 0.11615 0.25536 -0.37300
O 	O 	0.00918 0.91119 0.20422 -0.38700
C 	C 	0.06264 0.13850 0.16234 -0.09600
H 	H 	0.98804 0.19595 0.11583 0.04100
C 	C 	0.10332 0.89357 0.19380 -0.10200
H 	H 	0.05267 0.72099 0.17764 0.04600
C 	C 	0.07984 0.21440 0.27392 -0.09100
H 	H 	0.02951 0.29626 0.31981 0.04800
C 	C 	0.07977 0.95078 0.29928 -0.09000
H 	H 	0.01104 0.81485 0.34401 0.04700
C 	C 	0.01682 0.48765 0.47643 0.12200
C 	C 	0.03681 0.52429 0.49841 0.01900
O 	O 	0.07229 0.49550 0.46166 -0.19100
H 	H 	0.01436 0.58174 0.52599 0.07300
C 	C 	0.98298 0.53281 0.04683 0.11400
C 	C 	0.98934 0.47527 0.05176 0.00500
O 	O 	0.04472 0.59044 0.03880 -0.18100
C 	C 	0.59656 0.17501 0.94461 0.27400
C 	C 	0.55533 0.30103 0.91039 0.30900
Ni	Ni	0.62067 0.31171 0.96269 1.11400
Ni	Ni	0.68481 0.29256 0.91072 1.12200
O 	O 	0.63573 0.41124 0.96439 -0.35300
O 	O 	0.61267 0.21482 0.96432 -0.35600
O 	O 	0.60164 0.20105 0.92208 -0.35700
O 	O 	0.54495 0.27940 0.93421 -0.36000
O 	O 	0.61360 0.31660 0.89807 -0.37900
H 	H 	0.68540 0.38286 0.93071 0.16200
C 	C 	0.46903 0.22247 0.54585 0.32900
C 	C 	0.55572 0.41435 0.54535 0.25600
Ni	Ni	0.57357 0.31474 0.58097 1.11400
Ni	Ni	0.60258 0.32482 0.52081 1.12100
O 	O 	0.60285 0.23595 0.51582 -0.37400
O 	O 	0.50890 0.22257 0.56362 -0.37900
O 	O 	0.49697 0.26709 0.52727 -0.36900
O 	O 	0.52605 0.36507 0.56290 -0.36100
O 	O 	0.58999 0.40795 0.52594 -0.35400
C 	C 	0.18997 0.11913 0.76119 0.30300
C 	C 	0.12969 0.09518 0.69074 0.32500
O 	O 	0.17259 0.05362 0.75760 -0.35900
O 	O 	0.17318 0.15313 0.74468 -0.37000
O 	O 	0.15654 0.06853 0.70599 -0.36600
O 	O 	0.08804 0.11686 0.69919 -0.37700
C 	C 	0.25064 0.78369 0.41616 0.30900
C 	C 	0.38428 0.67051 0.48390 0.27400
C 	C 	0.44044 0.85354 0.43794 0.27900
C 	C 	0.19449 0.59164 0.46546 0.25800
C 	C 	0.44792 0.68778 0.40351 0.33100
C 	C 	0.26483 0.59444 0.38446 0.30900
Ni	Ni	0.31022 0.73862 0.46011 1.11400
Ni	Ni	0.32115 0.61122 0.43538 1.12200
Ni	Ni	0.35542 0.74348 0.40220 1.12200
O 	O 	0.27908 0.79869 0.43889 -0.36300
O 	O 	0.27106 0.75514 0.39872 -0.37800
O 	O 	0.39744 0.62608 0.41038 -0.37900
O 	O 	0.33714 0.68909 0.48758 -0.35400
O 	O 	0.39687 0.65645 0.46133 -0.37200
O 	O 	0.31546 0.65898 0.37915 -0.37800
O 	O 	0.41409 0.81508 0.45801 -0.36700
O 	O 	0.40328 0.83955 0.41750 -0.36000
O 	O 	0.25260 0.56862 0.40754 -0.38100
O 	O 	0.21004 0.65742 0.46527 -0.36100
O 	O 	0.24360 0.57377 0.46241 -0.35100
O 	O 	0.44347 0.74251 0.40856 -0.39900
O 	O 	0.31222 0.69125 0.43138 -0.71900
H 	H 	0.26317 0.66945 0.42618 0.16500
C 	C 	0.41011 0.58703 0.02003 0.25700
C 	C 	0.25171 0.64136 0.09781 0.33200
C 	C 	0.22325 0.46611 0.04628 0.32000
C 	C 	0.42466 0.74813 0.07611 0.31000
C 	C 	0.15655 0.59476 0.02659 0.27600
C 	C 	0.34463 0.73504 0.99667 0.25300
Ni	Ni	0.33713 0.59649 0.06709 1.11400
Ni	Ni	0.28650 0.70226 0.04802 1.12100
Ni	Ni	0.27731 0.58444 0.01029 1.12100
O 	O 	0.38227 0.55748 0.04192 -0.34700
O 	O 	0.37270 0.59696 0.00284 -0.36600
O 	O 	0.19807 0.66207 0.02797 -0.36200
O 	O 	0.30337 0.62830 0.09856 -0.37300
O 	O 	0.22511 0.64356 0.07640 -0.39200
O 	O 	0.29815 0.67069 0.99004 -0.36300
O 	O 	0.24049 0.50873 0.06507 -0.38000
O 	O 	0.25157 0.48850 0.02399 -0.37000
O 	O 	0.33998 0.76115 0.01844 -0.36100
O 	O 	0.42599 0.69181 0.06934 -0.37500
O 	O 	0.36932 0.75644 0.07215 -0.37100
O 	O 	0.17665 0.55630 0.01465 -0.37400
O 	O 	0.31493 0.63695 0.04029 -0.71300
H 	H 	0.36179 0.66937 0.03378 0.15700
Ni	Ni	0.09498 0.05965 0.23139 1.12500
O 	O 	0.11753 0.98721 0.21889 -0.38400
O 	O 	0.08776 0.08174 0.19498 -0.37200
O 	O 	0.10646 0.03216 0.26621 -0.36500
O 	O 	0.09875 0.14932 0.24292 -0.37100
C 	C 	0.11987 0.27012 0.07302 -0.00100
C 	C 	0.15963 0.24041 0.08091 -0.03100
C 	C 	0.14003 0.19857 0.10238 -0.02900
C 	C 	0.08003 0.18546 0.11576 -0.00300
C 	C 	0.03553 0.20743 0.10596 -0.02400
C 	C 	0.05514 0.24919 0.08447 -0.03300
C 	C 	0.15405 0.33521 0.05981 0.05200
C 	C 	0.18484 0.39348 0.05169 -0.10200
C 	C 	0.06984 0.15907 0.14101 0.05600
H 	H 	0.20897 0.25488 0.07184 0.04700
H 	H 	0.17381 0.18019 0.10946 0.04800
H 	H 	0.02315 0.27052 0.07817 0.04700
C 	C 	0.58198 0.85162 0.12478 -0.00100
C 	C 	0.57047 0.82678 0.14953 -0.03300
C 	C 	0.52483 0.82359 0.10750 0.04800
C 	C 	0.47794 0.79349 0.09293 -0.09400
H 	H 	0.51784 0.79733 0.15688 0.04400
C 	C 	0.15217 0.81534 0.17573 -0.00300
C 	C 	0.22265 0.84486 0.16908 -0.03200
C 	C 	0.24705 0.80441 0.15769 -0.03200
C 	C 	0.20103 0.73429 0.15284 -0.00500
C 	C 	0.13142 0.70397 0.16081 -0.03100
C 	C 	0.10703 0.74441 0.17221 -0.03100
C 	C 	0.12570 0.85815 0.18546 0.05200
C 	C 	0.22110 0.69810 0.13537 0.05400
C 	C 	0.23624 0.67027 0.11918 -0.10900
H 	H 	0.25811 0.89946 0.17208 0.04400
H 	H 	0.30091 0.82834 0.15157 0.04400
H 	H 	0.09544 0.64986 0.15713 0.04600
C 	C 	0.59370 0.73599 0.34934 -0.00500
C 	C 	0.57465 0.74128 0.32474 -0.03100
C 	C 	0.54132 0.70962 0.36877 0.05400
C 	C 	0.49797 0.69453 0.38497 -0.10900
H 	H 	0.61025 0.78803 0.28837 0.04400
H 	H 	0.52021 0.71503 0.31950 0.04300
C 	C 	0.12750 0.32844 0.30084 0.00000
C 	C 	0.08348 0.33646 0.31776 -0.03100
C 	C 	0.10945 0.39593 0.33247 -0.03100
C 	C 	0.17955 0.44767 0.33031 -0.00000
C 	C 	0.22298 0.44057 0.31283 -0.03200
C 	C 	0.19700 0.38111 0.29811 -0.03200
C 	C 	0.10147 0.26610 0.28633 0.04900
C 	C 	0.20904 0.50277 0.34833 0.04800
C 	C 	0.23425 0.54646 0.36427 -0.09200
H 	H 	0.07561 0.40084 0.34603 0.04800
H 	H 	0.27729 0.48014 0.31112 0.04500
H 	H 	0.23119 0.37557 0.28490 0.04600
C 	C 	0.10041 0.91786 0.34479 0.00800
C 	C 	0.16028 0.96373 0.35797 -0.05200
C 	C 	0.18186 0.93995 0.37844 -0.02400
C 	C 	0.14398 0.87010 0.38561 -0.00600
C 	C 	0.07987 0.82649 0.37425 -0.02800
C 	C 	0.05824 0.85026 0.35379 -0.03700
C 	C 	0.08861 0.93635 0.32019 0.04000
C 	C 	0.17875 0.84000 0.39902 0.05000
C 	C 	0.21034 0.81433 0.40813 -0.09400
H 	H 	0.19242 0.01655 0.35144 0.06000
H 	H 	0.23089 0.97442 0.38740 0.04200
H 	H 	0.04957 0.77269 0.37994 0.04500
C 	C 	0.66341 0.10126 0.47946 0.10400
C 	C 	0.64083 0.03038 0.47820 -0.05200
C 	C 	0.60345 0.99384 0.45704 -0.03700
C 	C 	0.58135 0.02408 0.43936 0.15900
C 	C 	0.60039 0.09398 0.44144 -0.10400
C 	C 	0.64536 0.13262 0.46085 0.02600
O 	O 	0.67945 0.13608 0.50215 -0.18100
C 	C 	0.66757 0.18997 0.49550 0.04600
C 	C 	0.64739 0.18848 0.47107 -0.06200
O 	O 	0.52146 0.97722 0.42681 -0.20100
C 	C 	0.50863 0.91663 0.43915 0.03800
C 	C 	0.55725 0.92586 0.45702 -0.03700
H 	H 	0.64715 0.00358 0.49406 0.06600
H 	H 	0.57649 0.11593 0.42963 0.07600
H 	H 	0.54771 0.89114 0.47270 0.05400
C 	C 	0.12759 0.54129 0.47674 0.05500
C 	C 	0.10649 0.55701 0.49892 -0.05800
H 	H 	0.13815 0.60364 0.50955 0.06000
C 	C 	0.53043 0.55073 0.52648 0.12100
C 	C 	0.54696 0.61667 0.51798 -0.08900
C 	C 	0.49637 0.63695 0.52078 0.01300
C 	C 	0.43131 0.59254 0.53095 0.11500
C 	C 	0.41636 0.52739 0.54032 -0.08400
C 	C 	0.46665 0.50737 0.53684 0.00900
O 	O 	0.57968 0.53051 0.53051 -0.18700
C 	C 	0.53842 0.47003 0.54449 0.04800
C 	C 	0.47147 0.45755 0.54924 -0.05600
O 	O 	0.37910 0.60477 0.52236 -0.18600
C 	C 	0.41806 0.65844 0.50537 0.04300
C 	C 	0.48799 0.67852 0.50464 -0.05800
H 	H 	0.59678 0.65053 0.50913 0.06900
H 	H 	0.36580 0.49208 0.54836 0.06800
H 	H 	0.42763 0.40837 0.55500 0.05800
H 	H 	0.52199 0.70388 0.48872 0.06000
C 	C 	0.19286 0.12299 0.61761 -0.00100
C 	C 	0.22148 0.18849 0.60635 -0.03200
C 	C 	0.26242 0.20338 0.58469 -0.03100
C 	C 	0.27577 0.15313 0.57448 -0.00400
C 	C 	0.23964 0.08524 0.58390 -0.03000
C 	C 	0.19860 0.07028 0.60553 -0.03100
C 	C 	0.16834 0.11328 0.64317 0.05300
C 	C 	0.15006 0.10527 0.66482 -0.09700
C 	C 	0.33956 0.17535 0.56068 0.05400
C 	C 	0.39694 0.19582 0.55198 -0.10800
H 	H 	0.21592 0.22916 0.61523 0.04500
H 	H 	0.28888 0.25569 0.57725 0.04300
H 	H 	0.24834 0.04557 0.57584 0.04800
H 	H 	0.17519 0.01896 0.61377 0.04900
C 	C 	0.08813 0.56152 0.03916 0.04400
C 	C 	0.05576 0.49337 0.04691 -0.04500
H 	H 	0.07363 0.45730 0.04240 0.06100
C 	C 	0.48240 0.87981 0.96878 0.13500
C 	C 	0.53643 0.94609 0.97507 -0.12300
C 	C 	0.53051 0.00323 0.96753 0.06700
C 	C 	0.47837 0.99644 0.95195 0.07000
C 	C 	0.42514 0.93061 0.94502 -0.06500
C 	C 	0.42870 0.87257 0.95359 -0.00600
O 	O 	0.46447 0.82300 0.98418 -0.19500
C 	C 	0.39416 0.78248 0.97798 0.04800
C 	C 	0.37276 0.81113 0.95944 -0.04900
O 	O 	0.49380 0.05654 0.93882 -0.16700
C 	C 	0.56095 0.09969 0.94804 0.05100
C 	C 	0.58299 0.06839 0.96522 -0.07300
H 	H 	0.57865 0.95240 0.98700 0.07500
H 	H 	0.38251 0.92469 0.93341 0.06000
H 	H 	0.31934 0.79946 0.95709 0.05700
H 	H 	0.63646 0.08723 0.97079 0.06900
C 	C 	0.58061 0.61053 0.01518 0.11700
C 	C 	0.62877 0.58859 0.02028 -0.08500
C 	C 	0.67019 0.58744 0.00046 0.01000
C 	C 	0.65704 0.59739 0.97600 0.11900
C 	C 	0.60615 0.61566 0.97076 -0.08700
C 	C 	0.57228 0.62692 0.99094 0.01200
O 	O 	0.52364 0.59353 0.03075 -0.18800
C 	C 	0.48029 0.60028 0.01340 0.05000
C 	C 	0.50869 0.62035 0.98978 -0.05600
O 	O 	0.67592 0.56342 0.95858 -0.19100
C 	C 	0.70034 0.53101 0.97482 0.05100
C 	C 	0.69777 0.54565 0.99974 -0.05700
H 	H 	0.63012 0.56811 0.03857 0.06800
H 	H 	0.58978 0.61577 0.95169 0.06900
H 	H 	0.47905 0.61213 0.97279 0.06200
H 	H 	0.69449 0.51200 0.01505 0.05600
C 	C 	0.39563 0.26393 0.86385 0.00000
C 	C 	0.41217 0.30310 0.84169 -0.03200
C 	C 	0.36735 0.27830 0.82119 -0.03200
C 	C 	0.30566 0.21443 0.82282 -0.00000
C 	C 	0.28668 0.17776 0.84555 -0.03100
C 	C 	0.33157 0.20247 0.86603 -0.03100
C 	C 	0.44933 0.27913 0.88193 0.04900
C 	C 	0.49647 0.29008 0.89582 -0.09000
C 	C 	0.26560 0.18316 0.80067 0.05000
C 	C 	0.23173 0.15505 0.78238 -0.09500
H 	H 	0.46145 0.35085 0.83987 0.04500
H 	H 	0.38201 0.30735 0.80377 0.04500
H 	H 	0.23861 0.12871 0.84705 0.04800
H 	H 	0.31821 0.17199 0.88311 0.04900
O 	O 	0.02606 0.94036 0.70377 -0.38500
O 	O 	0.05228 0.13903 0.77176 -0.37700
C 	C 	0.62552 0.78360 0.30723 -0.03400
H 	H 	0.94090 0.36402 0.04768 0.06700
C 	C 	0.62649 0.83599 0.16432 -0.03100
H 	H 	0.61699 0.81557 0.18326 0.04300
H 	H 	0.61844 0.21275 0.46434 0.05400
C 	C 	0.65031 0.88943 0.11550 -0.03300
H 	H 	0.65980 0.90870 0.09640 0.04400
C 	C 	0.66099 0.23383 0.51435 0.27800
C 	C 	0.99671 0.55018 0.50933 -0.09600
C 	C 	0.69807 0.46671 0.96754 0.25600
C 	C 	0.73757 0.34265 0.99890 0.27600
C 	C 	0.81311 0.29887 0.92625 0.33200
C 	C 	0.78848 0.44045 0.89665 0.30600
Ni	Ni	0.78621 0.40435 0.94982 1.12100
O 	O 	0.75501 0.46135 0.97098 -0.36800
O 	O 	0.74567 0.25868 0.92509 -0.39400
O 	O 	0.80455 0.46511 0.91971 -0.38000
O 	O 	0.67596 0.33736 0.99643 -0.35500
O 	O 	0.77144 0.34098 0.97909 -0.36700
O 	O 	0.76430 0.37361 0.89177 -0.37900
O 	O 	0.84007 0.36442 0.93241 -0.37900
O 	O 	0.69317 0.34751 0.93883 -0.71800
C 	C 	0.71439 0.41983 0.59924 0.30700
C 	C 	0.63440 0.22625 0.59747 0.33000
C 	C 	0.75992 0.42476 0.51643 0.26300
Ni	Ni	0.71494 0.32647 0.55850 1.12200
O 	O 	0.64797 0.40313 0.59859 -0.37000
O 	O 	0.73459 0.37487 0.59260 -0.37400
O 	O 	0.77058 0.41609 0.54024 -0.36700
O 	O 	0.60616 0.26261 0.60525 -0.36800
O 	O 	0.65623 0.23234 0.57437 -0.38100
O 	O 	0.69966 0.38333 0.50485 -0.36900
O 	O 	0.71669 0.27787 0.52681 -0.36700
O 	O 	0.63707 0.33933 0.55419 -0.71400
H 	H 	0.65990 0.39015 0.55485 0.16400
C 	C 	0.96260 0.89049 0.70839 0.32500
C 	C 	0.00125 0.89377 0.77471 0.31800
C 	C 	0.93153 0.06925 0.71454 0.32600
C 	C 	0.99291 0.09620 0.78340 0.30100
Ni	Ni	0.94632 0.97430 0.74879 1.11300
O 	O 	0.91788 0.00527 0.71789 -0.38100
O 	O 	0.93064 0.88892 0.72941 -0.38400
O 	O 	0.93973 0.04487 0.77132 -0.37000
O 	O 	0.04633 0.90535 0.75607 -0.37200
O 	O 	0.97037 0.93138 0.77776 -0.39300
O 	O 	0.98162 0.12055 0.72702 -0.38300
C 	C 	0.85379 0.92838 0.26459 0.30800
C 	C 	0.86602 0.92026 0.19620 0.33100
Ni	Ni	0.94234 0.04628 0.22623 1.11700
Ni	Ni	0.95790 0.91068 0.23527 1.11800
O 	O 	0.85489 0.97200 0.24702 -0.37400
O 	O 	0.89911 0.90588 0.26486 -0.38700
O 	O 	0.91138 0.98582 0.19467 -0.39400
O 	O 	0.87024 0.88208 0.21424 -0.37800
O 	O 	0.99653 0.00819 0.23659 -0.71300
H 	H 	0.99446 0.01443 0.25474 0.15900
C 	C 	0.70626 0.89857 0.13027 -0.03100
C 	C 	0.69430 0.87028 0.15447 -0.00600
C 	C 	0.75237 0.88123 0.16975 0.05200
C 	C 	0.80310 0.89516 0.18211 -0.11000
H 	H 	0.75880 0.92680 0.12275 0.04300
C 	C 	0.66427 0.77064 0.35591 -0.03100
C 	C 	0.71506 0.81299 0.33843 -0.03300
C 	C 	0.69567 0.82079 0.31422 -0.00200
C 	C 	0.74858 0.86258 0.29606 0.04600
C 	C 	0.79524 0.89514 0.28134 -0.09800
H 	H 	0.67953 0.76723 0.37488 0.04400
H 	H 	0.76941 0.84028 0.34380 0.04400
C 	C 	0.95051 0.46641 0.46656 -0.09000
C 	C 	0.90869 0.48940 0.47829 0.01100
C 	C 	0.93130 0.53096 0.49915 0.12100
O 	O 	0.87767 0.52670 0.51391 -0.18800
C 	C 	0.82070 0.47354 0.50160 0.04900
C 	C 	0.83867 0.45252 0.47982 -0.05700
H 	H 	0.93294 0.43482 0.44992 0.06900
H 	H 	0.80761 0.40174 0.47164 0.06000
C 	C 	0.79516 0.10594 0.67534 -0.00100
C 	C 	0.77787 0.15459 0.68431 -0.03100
C 	C 	0.73624 0.17236 0.66998 -0.03100
C 	C 	0.71171 0.14154 0.64663 -0.00300
C 	C 	0.72660 0.09075 0.63815 -0.03000
C 	C 	0.76826 0.07300 0.65248 -0.03100
C 	C 	0.84316 0.09239 0.68899 0.05300
C 	C 	0.88365 0.08168 0.70051 -0.09900
C 	C 	0.68021 0.16887 0.62995 0.05500
C 	C 	0.65713 0.19384 0.61544 -0.10400
H 	H 	0.79805 0.17987 0.70206 0.04600
H 	H 	0.72506 0.21173 0.67665 0.04600
H 	H 	0.70791 0.06675 0.62010 0.04900
H 	H 	0.78097 0.03495 0.64551 0.04900
C 	C 	0.88929 0.71637 0.66635 -0.00500
C 	C 	0.88760 0.71996 0.64021 -0.03100
C 	C 	0.86143 0.65957 0.62607 -0.03300
C 	C 	0.83686 0.59538 0.63803 -0.00100
C 	C 	0.84107 0.59218 0.66412 -0.03300
C 	C 	0.86725 0.65257 0.67825 -0.03100
C 	C 	0.91362 0.77804 0.68098 0.05100
C 	C 	0.93492 0.82951 0.69339 -0.10800
C 	C 	0.79773 0.53274 0.62410 0.04900
C 	C 	0.76164 0.48068 0.61261 -0.09400
H 	H 	0.90538 0.76928 0.63087 0.04200
H 	H 	0.85814 0.66242 0.60590 0.04600
H 	H 	0.82197 0.54272 0.67350 0.04500
H 	H 	0.86923 0.64957 0.69846 0.04400
C 	C 	0.91739 0.52487 0.04136 -0.08700
C 	C 	0.85906 0.45776 0.04197 0.01100
C 	C 	0.86693 0.40022 0.04408 0.11600
C 	C 	0.93285 0.40814 0.04867 -0.08400
O 	O 	0.81520 0.34203 0.03217 -0.18600
C 	C 	0.77625 0.37007 0.02220 0.04300
C 	C 	0.80122 0.43849 0.02848 -0.06000
H 	H 	0.91282 0.56853 0.03480 0.06700
H 	H 	0.79132 0.47411 0.01781 0.06000
C 	C 	0.95970 0.16577 0.84960 0.00200
C 	C 	0.99658 0.23739 0.85357 -0.03600
C 	C 	0.97721 0.26610 0.87310 -0.03400
C 	C 	0.92091 0.22330 0.88875 -0.00300
C 	C 	0.88783 0.15123 0.88601 -0.03000
C 	C 	0.90701 0.12254 0.86642 -0.03300
C 	C 	0.97034 0.13800 0.82679 0.04600
C 	C 	0.97974 0.11718 0.80719 -0.09000
C 	C 	0.88812 0.25294 0.90364 0.05400
C 	C 	0.85647 0.27564 0.91479 -0.10500
H 	H 	0.03803 0.27110 0.84082 0.04900
H 	H 	0.00337 0.32181 0.87515 0.04900
H 	H 	0.84454 0.11770 0.89814 0.04700
H 	H 	0.87881 0.06704 0.86367 0.04800
C 	C 	0.86531 0.59050 0.84270 -0.00100
C 	C 	0.82189 0.61096 0.83090 -0.03200
C 	C 	0.85086 0.67220 0.81681 -0.03300
C 	C 	0.92341 0.71334 0.81448 -0.00200
C 	C 	0.96680 0.69185 0.82563 -0.03800
C 	C 	0.93781 0.63056 0.83971 -0.03100
C 	C 	0.83630 0.53407 0.86046 0.04800
C 	C 	0.81334 0.48940 0.87634 -0.09200
C 	C 	0.95312 0.77795 0.80090 0.04800
C 	C 	0.97634 0.83147 0.78925 -0.10400
H 	H 	0.76584 0.58048 0.83320 0.04400
H 	H 	0.81696 0.68820 0.80806 0.04300
H 	H 	0.02290 0.72308 0.82374 0.04700
H 	H 	0.97176 0.61526 0.84885 0.04400
