data_crystal

_cell_length_a 18.41217
_cell_length_b 18.92100
_cell_length_c 26.24416
_cell_angle_alpha 95.43057
_cell_angle_beta  95.43120
_cell_angle_gamma 126.41729

_symmetry_space_group_name_	'P 1'
_symmetry_space_group_name_H-M	'P 1'

loop_
_symmetry_equiv_pos_as_xyz
  x,y,z

loop_
_atom_site_label
_atom_site_type_symbol
_atom_site_fract_x
_atom_site_fract_y
_atom_site_fract_z
_atom_site_charge
C 	C 	0.90308 0.99168 0.95024 0.13100
N 	N 	0.99407 0.04205 0.94877 -0.14600
C 	C 	0.03804 0.00465 0.94894 0.11600
N 	N 	0.99078 0.91629 0.94941 -0.13700
C 	C 	0.89988 0.86515 0.95080 0.11800
N 	N 	0.85564 0.90286 0.95168 -0.14200
C 	C 	0.94684 0.02578 0.48533 0.10700
N 	N 	0.03849 0.07253 0.48571 -0.13800
C 	C 	0.08035 0.03421 0.49587 0.11100
N 	N 	0.03060 0.94964 0.50521 -0.13400
C 	C 	0.93956 0.90341 0.50518 0.11700
N 	N 	0.89785 0.94148 0.49510 -0.13700
Cu	Cu	0.75675 0.34168 0.94549 0.92600
Cu	Cu	0.75685 0.28419 0.05985 0.87300
Cu	Cu	0.61418 0.29733 0.01412 0.89800
Cu	Cu	0.58132 0.32949 0.90705 0.89800
C 	C 	0.68099 0.29927 0.83594 0.30700
O 	O 	0.80732 0.47106 0.94136 -0.35800
C 	C 	0.68303 0.34114 0.12864 0.30300
O 	O 	0.61384 0.26695 0.94201 -0.63600
O 	O 	0.74920 0.36092 0.01982 -0.64000
O 	O 	0.81965 0.28382 0.95201 -0.36400
O 	O 	0.72538 0.19389 0.00414 -0.43700
O 	O 	0.64311 0.33878 0.84684 -0.38200
O 	O 	0.48185 0.22762 0.00424 -0.37900
C 	C 	0.42905 0.22108 0.96339 0.29700
C 	C 	0.76423 0.50353 0.95598 0.28600
O 	O 	0.68038 0.44927 0.96442 -0.39100
O 	O 	0.46350 0.27867 0.93152 -0.39100
O 	O 	0.74057 0.30475 0.87176 -0.35900
C 	C 	0.78322 0.21158 0.97284 0.29200
O 	O 	0.61373 0.31017 0.08992 -0.38000
O 	O 	0.75583 0.34686 0.12068 -0.40400
H 	H 	0.57525 0.20189 0.92811 0.17100
H 	H 	0.78685 0.42422 0.03764 0.18200
Cu	Cu	0.63735 0.22562 0.50733 0.92200
Cu	Cu	0.72271 0.25776 0.40114 0.87400
Cu	Cu	0.65119 0.36231 0.44836 0.90900
Cu	Cu	0.61389 0.37135 0.55647 0.90100
C 	C 	0.64511 0.26607 0.61772 0.31000
O 	O 	0.49914 0.15989 0.50310 -0.35600
C 	C 	0.67863 0.35446 0.34525 0.30600
O 	O 	0.69185 0.36167 0.51960 -0.63100
O 	O 	0.62666 0.24440 0.43479 -0.63900
O 	O 	0.71616 0.18356 0.50530 -0.36500
O 	O 	0.69937 0.15268 0.41675 -0.42400
O 	O 	0.59283 0.29013 0.60555 -0.38700
O 	O 	0.66489 0.47237 0.46144 -0.37800
C 	C 	0.70397 0.52713 0.50678 0.29500
C 	C 	0.45808 0.19554 0.48923 0.28400
O 	O 	0.50726 0.28186 0.48955 -0.40200
O 	O 	0.67711 0.49746 0.54981 -0.38900
O 	O 	0.66401 0.22977 0.58110 -0.35100
C 	C 	0.73073 0.15227 0.46351 0.28800
O 	O 	0.62804 0.36038 0.37465 -0.36300
O 	O 	0.74556 0.35363 0.36663 -0.43300
H 	H 	0.75863 0.40743 0.53289 0.16000
H 	H 	0.56485 0.19761 0.41352 0.17500
C 	C 	0.58380 0.19737 0.69393 -0.03500
C 	C 	0.66007 0.25643 0.67189 -0.08600
C 	C 	0.74719 0.31701 0.70422 0.11900
C 	C 	0.75544 0.32467 0.75849 -0.03600
C 	C 	0.67718 0.27224 0.78071 -0.08600
C 	C 	0.59200 0.20503 0.74810 0.12100
Br	Br	0.48537 0.12542 0.77702 -0.28600
H 	H 	0.51703 0.14869 0.66909 0.06400
H 	H 	0.82167 0.37520 0.78338 0.06600
Br	Br	0.85455 0.39370 0.67516 -0.26700
C 	C 	0.59393 0.28791 0.19996 -0.04200
C 	C 	0.67235 0.35596 0.18278 -0.08700
C 	C 	0.74546 0.43163 0.21926 0.12100
C 	C 	0.74411 0.43366 0.27264 -0.03600
C 	C 	0.66947 0.36153 0.28999 -0.09500
C 	C 	0.59223 0.29034 0.25334 0.12000
Br	Br	0.48634 0.19280 0.27545 -0.27700
H 	H 	0.53632 0.23060 0.17204 0.06300
H 	H 	0.80237 0.49015 0.30068 0.05900
Br	Br	0.84657 0.53355 0.19690 -0.25500
C 	C 	0.89471 0.75162 0.47869 -0.06900
C 	C 	0.88433 0.80867 0.50948 -0.02700
C 	C 	0.81905 0.77389 0.54258 0.04800
C 	C 	0.75905 0.68132 0.54032 -0.02100
C 	C 	0.76784 0.62395 0.50843 -0.10100
C 	C 	0.83920 0.65993 0.47927 0.09100
C 	C 	0.85578 0.60102 0.44813 -0.19700
H 	H 	0.94569 0.77863 0.45385 0.05600
H 	H 	0.70546 0.65387 0.56344 0.04500
C 	C 	0.81214 0.83465 0.57983 -0.18200
H 	H 	0.92525 0.64112 0.43792 0.07000
H 	H 	0.80414 0.56432 0.41137 0.08000
H 	H 	0.85168 0.55256 0.47091 0.05000
H 	H 	0.77282 0.85353 0.55853 0.07700
H 	H 	0.88155 0.89594 0.59862 0.07400
H 	H 	0.77638 0.80106 0.61150 0.06700
C 	C 	0.92787 0.14365 0.50748 -0.07400
C 	C 	0.90008 0.06587 0.47434 -0.02400
C 	C 	0.81952 0.01972 0.43576 0.03600
C 	C 	0.76244 0.04584 0.43506 -0.02200
C 	C 	0.78845 0.12206 0.46922 -0.10700
C 	C 	0.87407 0.17376 0.50431 0.08900
C 	C 	0.90835 0.26039 0.53857 -0.20000
H 	H 	0.99034 0.17967 0.53661 0.05200
H 	H 	0.69819 0.00752 0.40723 0.04100
C 	C 	0.79266 0.94110 0.39609 -0.17200
H 	H 	0.98202 0.29925 0.55671 0.07200
H 	H 	0.86836 0.24621 0.57033 0.09600
H 	H 	0.90208 0.30325 0.51535 0.05900
H 	H 	0.75516 0.87943 0.41293 0.07500
H 	H 	0.85429 0.95217 0.38386 0.07300
H 	H 	0.74736 0.93097 0.36048 0.06700
C 	C 	0.21033 0.10260 0.44838 -0.07100
C 	C 	0.17897 0.08285 0.49548 -0.02600
C 	C 	0.23906 0.09706 0.53988 0.04800
C 	C 	0.32754 0.12531 0.53557 -0.02700
C 	C 	0.35923 0.14568 0.48867 -0.09900
C 	C 	0.29987 0.13312 0.44446 0.09200
C 	C 	0.33217 0.15351 0.39339 -0.20500
H 	H 	0.16411 0.09162 0.41435 0.05200
H 	H 	0.37351 0.13565 0.56954 0.04700
C 	C 	0.20876 0.08080 0.59174 -0.18300
H 	H 	0.27367 0.12439 0.36060 0.07900
H 	H 	0.36852 0.12487 0.38436 0.08100
H 	H 	0.37958 0.22702 0.39571 0.08700
H 	H 	0.16646 0.00817 0.59246 0.07400
H 	H 	0.16800 0.10530 0.59867 0.07100
H 	H 	0.26873 0.11666 0.62438 0.06900
C 	C 	0.83170 0.65713 0.00105 -0.02500
C 	C 	0.80301 0.59753 0.95422 -0.09700
C 	C 	0.79644 0.62353 0.90622 0.08900
C 	C 	0.81932 0.70889 0.90596 -0.06800
C 	C 	0.85074 0.76946 0.95271 -0.02700
C 	C 	0.85481 0.74260 0.00069 0.05200
C 	C 	0.88773 0.80626 0.05152 -0.18500
H 	H 	0.83486 0.63655 0.03787 0.04300
H 	H 	0.81619 0.72954 0.86916 0.05000
C 	C 	0.76177 0.55951 0.85531 -0.20200
H 	H 	0.87271 0.77125 0.08517 0.07300
H 	H 	0.85274 0.83797 0.05139 0.07400
H 	H 	0.96311 0.85909 0.05716 0.07400
H 	H 	0.68746 0.50440 0.85181 0.06800
H 	H 	0.80021 0.53148 0.85325 0.09000
H 	H 	0.77067 0.59311 0.82139 0.07300
C 	C 	0.87779 0.08604 0.00551 -0.06400
C 	C 	0.85942 0.03622 0.95653 -0.03600
C 	C 	0.81667 0.04486 0.91245 0.04200
C 	C 	0.79574 0.10549 0.91790 -0.02100
C 	C 	0.81605 0.15674 0.96680 -0.09800
C 	C 	0.85897 0.14805 0.01083 0.08100
C 	C 	0.88473 0.20445 0.06361 -0.19000
H 	H 	0.91104 0.07973 0.03924 0.04400
H 	H 	0.76257 0.11186 0.88418 0.04600
C 	C 	0.79626 0.99205 0.85937 -0.16400
H 	H 	0.93534 0.20487 0.09058 0.06300
H 	H 	0.82249 0.17731 0.08107 0.04200
H 	H 	0.91665 0.27491 0.06016 0.04400
H 	H 	0.75935 0.92023 0.86125 0.07200
H 	H 	0.86153 0.01769 0.84561 0.06400
H 	H 	0.75226 0.99709 0.83034 0.07000
C 	C 	0.17427 0.05132 0.91052 -0.06900
C 	C 	0.13795 0.06089 0.95286 -0.02600
C 	C 	0.19735 0.11987 0.99980 0.04800
C 	C 	0.29268 0.17108 0.00289 -0.02000
C 	C 	0.32910 0.16242 0.96027 -0.09900
C 	C 	0.26952 0.10047 0.91413 0.09000
C 	C 	0.30710 0.08737 0.86851 -0.20200
H 	H 	0.12821 0.00495 0.87484 0.05100
H 	H 	0.33867 0.21854 0.03827 0.04900
C 	C 	0.15945 0.12898 0.04643 -0.18100
H 	H 	0.25266 0.02577 0.83980 0.07700
H 	H 	0.36147 0.08069 0.88191 0.07400
H 	H 	0.33625 0.14535 0.84845 0.07900
H 	H 	0.10802 0.06214 0.05565 0.07000
H 	H 	0.12640 0.16127 0.03811 0.07300
H 	H 	0.21432 0.17038 0.08163 0.06900
