data_crystal

_cell_length_a 18.50969
_cell_length_b 18.83212
_cell_length_c 36.52486
_cell_angle_alpha 95.42036
_cell_angle_beta  95.42043
_cell_angle_gamma 126.42029

_symmetry_space_group_name_	'P 1'
_symmetry_space_group_name_H-M	'P 1'

loop_
_symmetry_equiv_pos_as_xyz
  x,y,z

loop_
_atom_site_label
_atom_site_type_symbol
_atom_site_fract_x
_atom_site_fract_y
_atom_site_fract_z
_atom_site_charge
C 	C 	0.90589 0.99116 0.96520 0.14400
N 	N 	0.99613 0.04436 0.96358 -0.14600
C 	C 	0.04227 0.00935 0.96244 0.12200
N 	N 	0.99828 0.92091 0.96289 -0.13000
C 	C 	0.90811 0.86705 0.96452 0.12600
N 	N 	0.86164 0.90222 0.96599 -0.13300
C 	C 	0.94312 0.02996 0.49308 0.10700
N 	N 	0.89148 0.94129 0.49464 -0.12400
C 	C 	0.93029 0.89887 0.49612 0.11900
N 	N 	0.02053 0.94488 0.49533 -0.12400
C 	C 	0.07227 0.03327 0.49330 0.10900
N 	N 	0.03347 0.07591 0.49203 -0.12500
Cu	Cu	0.75953 0.34005 0.96375 0.92800
Cu	Cu	0.74780 0.27534 0.04469 0.87200
Cu	Cu	0.61148 0.29377 0.00930 0.89800
Cu	Cu	0.59030 0.33315 0.93321 0.89700
C 	C 	0.69664 0.30758 0.88451 0.30600
O 	O 	0.81270 0.47094 0.96200 -0.35100
C 	C 	0.66963 0.33091 0.09199 0.30900
O 	O 	0.61682 0.26611 0.95817 -0.63800
O 	O 	0.74581 0.35584 0.01630 -0.64300
O 	O 	0.81946 0.27995 0.96961 -0.36000
O 	O 	0.71888 0.18611 0.00435 -0.43800
O 	O 	0.65901 0.34752 0.89191 -0.38300
O 	O 	0.48010 0.22526 0.99956 -0.37300
C 	C 	0.43090 0.22654 0.97133 0.29300
C 	C 	0.77053 0.50419 0.97264 0.27900
O 	O 	0.68535 0.44951 0.97675 -0.38400
O 	O 	0.46877 0.28069 0.94716 -0.38600
O 	O 	0.74933 0.30662 0.91117 -0.35300
C 	C 	0.77806 0.20437 0.98259 0.28800
O 	O 	0.60442 0.30352 0.06308 -0.37600
O 	O 	0.74249 0.33615 0.08789 -0.41500
H 	H 	0.57799 0.20109 0.94743 0.16800
H 	H 	0.78315 0.41883 0.02984 0.18000
Cu	Cu	0.61689 0.20491 0.50755 0.93000
Cu	Cu	0.70031 0.23753 0.43071 0.87100
Cu	Cu	0.64430 0.34313 0.46246 0.89900
Cu	Cu	0.63000 0.37379 0.54290 0.90200
C 	C 	0.64892 0.26046 0.58717 0.31000
O 	O 	0.48571 0.15824 0.50905 -0.35100
C 	C 	0.63550 0.30651 0.38142 0.30200
O 	O 	0.68999 0.34477 0.51319 -0.63400
O 	O 	0.60283 0.21772 0.45505 -0.64300
O 	O 	0.67289 0.14240 0.50050 -0.36000
O 	O 	0.77966 0.25192 0.47251 -0.43300
O 	O 	0.60687 0.29595 0.58040 -0.38400
O 	O 	0.67427 0.46229 0.47068 -0.36900
C 	C 	0.71977 0.52243 0.50196 0.29000
C 	C 	0.45429 0.20240 0.49909 0.28000
O 	O 	0.51128 0.28884 0.49875 -0.39400
O 	O 	0.70501 0.49876 0.53486 -0.38700
O 	O 	0.65206 0.21205 0.55984 -0.35400
C 	C 	0.75241 0.18449 0.48984 0.29100
O 	O 	0.61605 0.34012 0.40884 -0.36700
O 	O 	0.64579 0.24389 0.38516 -0.41200
H 	H 	0.75748 0.38374 0.52028 0.16600
H 	H 	0.54057 0.17378 0.43988 0.18300
C 	C 	0.70562 0.25822 0.77443 0.00100
C 	C 	0.62852 0.18244 0.75011 -0.03200
C 	C 	0.62319 0.17627 0.71133 -0.03100
C 	C 	0.69491 0.24589 0.69670 0.00000
C 	C 	0.77434 0.31898 0.72104 -0.03100
C 	C 	0.77969 0.32513 0.75982 -0.03100
C 	C 	0.70364 0.27311 0.81366 0.05000
C 	C 	0.70092 0.28765 0.84620 -0.09300
C 	C 	0.68138 0.24896 0.65752 0.05100
C 	C 	0.66788 0.25328 0.62512 -0.09400
H 	H 	0.57116 0.13017 0.76117 0.04400
H 	H 	0.56168 0.11933 0.69272 0.04700
H 	H 	0.83026 0.37292 0.70998 0.04600
H 	H 	0.83978 0.38370 0.77843 0.04800
C 	C 	0.62169 0.35307 0.27508 -0.00100
C 	C 	0.70046 0.42538 0.26475 -0.03200
C 	C 	0.70549 0.42830 0.22686 -0.03100
C 	C 	0.63175 0.35896 0.19915 -0.00200
C 	C 	0.55080 0.28983 0.20948 -0.03200
C 	C 	0.54578 0.28689 0.24736 -0.03200
C 	C 	0.62414 0.33927 0.31320 0.04700
C 	C 	0.62813 0.32554 0.34467 -0.09700
C 	C 	0.64377 0.35179 0.16089 0.05000
C 	C 	0.65500 0.34354 0.12921 -0.10000
H 	H 	0.75931 0.47707 0.28598 0.04600
H 	H 	0.76814 0.48229 0.21913 0.04600
H 	H 	0.49326 0.23624 0.18824 0.04500
H 	H 	0.48446 0.23097 0.25509 0.04500
C 	C 	0.87413 0.80231 0.49715 -0.00000
C 	C 	0.88136 0.74596 0.47247 -0.04100
C 	C 	0.83216 0.65472 0.47400 0.01900
C 	C 	0.77288 0.61845 0.49991 -0.07500
C 	C 	0.76504 0.67472 0.52438 0.00700
C 	C 	0.81613 0.76643 0.52352 -0.02500
H 	H 	0.92623 0.77353 0.45230 0.05400
H 	H 	0.71942 0.64708 0.54427 0.04500
C 	C 	0.81116 0.82369 0.55069 0.09600
C 	C 	0.84545 0.59959 0.44981 0.07100
N 	N 	0.80718 0.86954 0.57245 -0.10900
N 	N 	0.85608 0.55546 0.43044 -0.12500
C 	C 	0.90124 0.07623 0.49315 0.00500
C 	C 	0.86784 0.08492 0.52484 -0.04600
C 	C 	0.81992 0.12100 0.52436 0.02500
C 	C 	0.80373 0.14736 0.49154 -0.08600
C 	C 	0.83866 0.14002 0.46008 0.00700
C 	C 	0.88741 0.10492 0.46076 -0.03100
H 	H 	0.87894 0.06323 0.54984 0.05900
H 	H 	0.82680 0.16062 0.43486 0.01800
C 	C 	0.92110 0.09656 0.42778 0.08800
C 	C 	0.79029 0.13328 0.55799 0.08300
N 	N 	0.94810 0.08985 0.40137 -0.11700
N 	N 	0.76668 0.14306 0.58499 -0.10100
C 	C 	0.35654 0.16036 0.49646 -0.07700
C 	C 	0.32974 0.19796 0.52155 0.01100
C 	C 	0.23721 0.15919 0.51995 -0.03000
C 	C 	0.17034 0.08239 0.49256 0.00900
C 	C 	0.19745 0.04632 0.46678 -0.06100
C 	C 	0.29004 0.08462 0.46868 0.02600
H 	H 	0.38105 0.25662 0.54281 0.03300
H 	H 	0.14619 0.98748 0.44559 0.07000
C 	C 	0.31620 0.04643 0.44179 0.06600
C 	C 	0.21139 0.19664 0.54741 0.09500
N 	N 	0.33712 0.01581 0.42023 -0.11800
N 	N 	0.19071 0.22662 0.56939 -0.11100
C 	C 	0.86172 0.77086 0.96512 -0.00600
C 	C 	0.84235 0.74023 0.99903 -0.02800
C 	C 	0.81696 0.65482 0.00241 0.00500
C 	C 	0.81058 0.59899 0.97152 -0.06600
C 	C 	0.82887 0.62927 0.93750 -0.00200
C 	C 	0.85296 0.71404 0.93399 -0.02000
H 	H 	0.85005 0.78405 0.02317 0.05200
H 	H 	0.82139 0.58559 0.91337 0.04700
C 	C 	0.86640 0.74140 0.89807 0.09300
C 	C 	0.79983 0.62588 0.03794 0.07600
N 	N 	0.87699 0.76318 0.86926 -0.10500
N 	N 	0.78609 0.60262 0.06638 -0.11300
C 	C 	0.80665 0.14579 0.97714 -0.07600
C 	C 	0.81968 0.11205 0.00775 -0.00600
C 	C 	0.84476 0.05500 0.00346 -0.02000
C 	C 	0.85804 0.03166 0.96827 -0.01700
C 	C 	0.84180 0.06257 0.93734 -0.03600
C 	C 	0.81563 0.11887 0.94148 0.01700
H 	H 	0.81130 0.13109 0.03509 0.02200
H 	H 	0.85176 0.04455 0.91020 0.05100
C 	C 	0.79610 0.14661 0.90883 0.08100
C 	C 	0.85908 0.02260 0.03557 0.06600
N 	N 	0.78049 0.16855 0.88256 -0.10300
N 	N 	0.87059 0.99660 0.06127 -0.10200
C 	C 	0.14125 0.06842 0.96370 -0.00500
C 	C 	0.19958 0.13038 0.99658 -0.03700
C 	C 	0.29447 0.18295 0.99941 0.02400
C 	C 	0.33156 0.17327 0.96899 -0.07600
C 	C 	0.27313 0.11309 0.93575 0.00100
C 	C 	0.17827 0.06070 0.93293 -0.01900
H 	H 	0.17096 0.13688 0.02012 0.05000
H 	H 	0.30163 0.10670 0.91215 0.03500
C 	C 	0.11941 0.00056 0.89813 0.07600
C 	C 	0.35318 0.24797 0.03325 0.07700
N 	N 	0.07237 0.95251 0.87021 -0.09200
N 	N 	0.40020 0.30002 0.06036 -0.10400
