data_crystal

_cell_length_a 24.55371
_cell_length_b 23.27568
_cell_length_c 34.54325
_cell_angle_alpha 88.38738
_cell_angle_beta  90.79633
_cell_angle_gamma 121.07825

_symmetry_space_group_name_	'P 1'
_symmetry_space_group_name_H-M	'P 1'

loop_
_symmetry_equiv_pos_as_xyz
  x,y,z

loop_
_atom_site_label
_atom_site_type_symbol
_atom_site_fract_x
_atom_site_fract_y
_atom_site_fract_z
_atom_site_charge
Zn	Zn	0.30020 0.09873 0.70527 1.22300
Zn	Zn	0.45175 0.13317 0.69457 1.19300
C 	C 	0.28568 0.09588 0.56064 0.33800
Zn	Zn	0.37352 0.12485 0.62623 1.22000
Zn	Zn	0.24345 0.13240 0.63174 1.19400
H 	H 	0.34813 0.02892 0.67245 0.17300
C 	C 	0.47065 0.25696 0.64730 0.28900
O 	O 	0.18435 0.12109 0.67363 -0.46700
O 	O 	0.24411 0.13584 0.72816 -0.38900
O 	O 	0.36248 0.07679 0.67583 -0.78700
O 	O 	0.44029 0.15169 0.74782 -0.45500
O 	O 	0.22328 0.00826 0.69936 -0.44000
O 	O 	0.33510 0.10995 0.75869 -0.41800
O 	O 	0.20904 0.02562 0.63572 -0.42300
O 	O 	0.50990 0.15172 0.65098 -0.47100
H 	H 	0.34544 0.20647 0.66575 0.17400
O 	O 	0.43594 0.09549 0.60402 -0.39700
O 	O 	0.32366 0.15871 0.65870 -0.79100
O 	O 	0.26228 0.13058 0.57510 -0.47100
O 	O 	0.44207 0.21913 0.61744 -0.44000
O 	O 	0.31742 0.07606 0.58253 -0.44400
O 	O 	0.46084 0.22979 0.68225 -0.41700
C 	C 	0.20302 0.14544 0.70852 0.28100
C 	C 	0.38824 0.11122 0.76705 0.28100
C 	C 	0.18689 0.99122 0.66839 0.31000
C 	C 	0.49406 0.12139 0.61763 0.29100
Zn	Zn	0.44028 0.93844 0.95980 1.22600
Zn	Zn	0.49934 0.10326 0.97827 1.19700
C 	C 	0.40157 0.88988 0.10228 0.33700
Zn	Zn	0.46242 0.00027 0.04255 1.21700
Zn	Zn	0.42942 0.84534 0.02909 1.19500
H 	H 	0.38723 0.00233 0.99334 0.17800
C 	C 	0.59602 0.08397 0.02456 0.27500
O 	O 	0.40965 0.78881 0.98340 -0.46100
O 	O 	0.45968 0.86771 0.93527 -0.38600
O 	O 	0.43038 0.00910 0.99162 -0.78300
O 	O 	0.51262 0.09972 0.92236 -0.44500
O 	O 	0.34768 0.87463 0.95676 -0.42900
O 	O 	0.47652 0.99002 0.91145 -0.42000
O 	O 	0.34068 0.84385 0.02054 -0.41900
O 	O 	0.52446 0.15447 0.02626 -0.46300
H 	H 	0.52631 0.95031 0.00553 0.17700
O 	O 	0.44816 0.07555 0.06624 -0.39800
O 	O 	0.48162 0.93799 0.00926 -0.79000
O 	O 	0.42422 0.85580 0.08620 -0.47300
O 	O 	0.55493 0.05709 0.05341 -0.43500
O 	O 	0.40214 0.94033 0.08357 -0.43500
O 	O 	0.57563 0.08354 0.98906 -0.41200
C 	C 	0.44594 0.81067 0.95241 0.28600
C 	C 	0.47518 0.04482 0.90355 0.29800
C 	C 	0.31472 0.83461 0.98594 0.29200
C 	C 	0.48457 0.13855 0.05502 0.28900
Zn	Zn	0.19994 0.86300 0.28611 1.22200
Zn	Zn	0.28950 0.79714 0.31653 1.19200
C 	C 	0.22003 0.95063 0.41933 0.30400
Zn	Zn	0.25149 0.86826 0.37097 1.22100
Zn	Zn	0.13638 0.89778 0.35051 1.19500
H 	H 	0.32111 0.92104 0.31246 0.17300
C 	C 	0.18736 0.72520 0.37992 0.28700
O 	O 	0.09770 0.91090 0.30248 -0.46300
O 	O 	0.11091 0.84211 0.26266 -0.40300
O 	O 	0.28091 0.87801 0.31733 -0.78700
O 	O 	0.25223 0.75808 0.26559 -0.45000
O 	O 	0.23843 0.95962 0.27244 -0.43300
O 	O 	0.20014 0.80956 0.24284 -0.41800
O 	O 	0.22775 0.98424 0.33423 -0.42000
O 	O 	0.32765 0.79335 0.36646 -0.46100
H 	H 	0.13048 0.78828 0.34139 0.17700
O 	O 	0.34223 0.88919 0.39294 -0.38700
O 	O 	0.16539 0.83572 0.33938 -0.78800
O 	O 	0.16108 0.91881 0.40633 -0.46200
O 	O 	0.21222 0.78124 0.39892 -0.43200
O 	O 	0.26480 0.94587 0.40161 -0.42500
O 	O 	0.19680 0.72698 0.34232 -0.41300
C 	C 	0.07944 0.87120 0.27251 0.31800
C 	C 	0.24433 0.79426 0.23878 0.28000
C 	C 	0.24456 0.00336 0.29801 0.30200
C 	C 	0.36106 0.84610 0.38794 0.28200
Zn	Zn	0.78920 0.64738 0.62841 1.22000
Zn	Zn	0.78442 0.78526 0.64042 1.19700
C 	C 	0.74619 0.59600 0.76621 0.29700
Zn	Zn	0.79835 0.71148 0.70954 1.21900
Zn	Zn	0.79355 0.56501 0.69686 1.19500
H 	H 	0.70186 0.66707 0.66561 0.17500
C 	C 	0.91454 0.81971 0.67450 0.30900
O 	O 	0.78808 0.51292 0.65141 -0.47000
O 	O 	0.83478 0.59751 0.60583 -0.39800
O 	O 	0.74841 0.69208 0.66129 -0.78700
O 	O 	0.78084 0.77507 0.58376 -0.46700
O 	O 	0.70530 0.56522 0.62141 -0.44900
O 	O 	0.82234 0.70709 0.58176 -0.43800
O 	O 	0.69595 0.53894 0.68595 -0.43100
O 	O 	0.80697 0.84728 0.68288 -0.46600
H 	H 	0.87871 0.68114 0.67555 0.17400
O 	O 	0.76285 0.77098 0.73245 -0.39700
O 	O 	0.83207 0.65902 0.67870 -0.79000
O 	O 	0.77728 0.56867 0.75269 -0.46000
O 	O 	0.88527 0.79183 0.70766 -0.43800
O 	O 	0.76782 0.66050 0.75979 -0.42900
O 	O 	0.88196 0.80666 0.64188 -0.41900
C 	C 	0.82540 0.54064 0.62118 0.31500
C 	C 	0.79203 0.73410 0.56489 0.32900
C 	C 	0.67140 0.52724 0.65090 0.32300
C 	C 	0.77789 0.82905 0.71632 0.28600
Zn	Zn	0.52347 0.51168 0.94492 1.22400
Zn	Zn	0.63341 0.46948 0.97042 1.19200
C 	C 	0.54756 0.59866 0.07927 0.33600
Zn	Zn	0.58606 0.52805 0.02727 1.22000
Zn	Zn	0.45813 0.53828 0.01287 1.19300
H 	H 	0.64755 0.58716 0.96688 0.17400
C 	C 	0.53342 0.38644 0.03452 0.31100
O 	O 	0.40817 0.53655 0.96687 -0.46800
O 	O 	0.42827 0.47446 0.92561 -0.39500
O 	O 	0.61168 0.54120 0.97268 -0.78400
O 	O 	0.59864 0.42898 0.91931 -0.45800
O 	O 	0.54735 0.60438 0.92923 -0.43700
O 	O 	0.52610 0.45836 0.90265 -0.42900
O 	O 	0.54011 0.63049 0.99125 -0.42500
O 	O 	0.67803 0.47043 0.01877 -0.47400
H 	H 	0.46514 0.43743 0.00218 0.16700
O 	O 	0.67984 0.55849 0.04778 -0.40300
O 	O 	0.49655 0.48588 0.99937 -0.78600
O 	O 	0.48795 0.56649 0.06743 -0.47200
O 	O 	0.55595 0.44159 0.05424 -0.44800
O 	O 	0.59307 0.60247 0.05764 -0.44100
O 	O 	0.54472 0.38980 0.99701 -0.41600
C 	C 	0.38891 0.49048 0.94032 0.31300
C 	C 	0.57762 0.45711 0.89469 0.31200
C 	C 	0.54705 0.64605 0.95406 0.31900
C 	C 	0.70404 0.52010 0.04312 0.31600
Zn	Zn	0.64091 0.75928 0.34840 1.22000
Zn	Zn	0.75004 0.72074 0.33362 1.19500
C 	C 	0.62969 0.77138 0.21069 0.28300
Zn	Zn	0.72004 0.79564 0.27183 1.22200
Zn	Zn	0.58536 0.80372 0.28228 1.19200
H 	H 	0.64655 0.67597 0.29525 0.17700
C 	C 	0.81921 0.88011 0.32580 0.27800
O 	O 	0.53501 0.80138 0.32758 -0.47200
O 	O 	0.60229 0.81046 0.37733 -0.39900
O 	O 	0.67692 0.71849 0.30791 -0.79500
O 	O 	0.71435 0.69071 0.38607 -0.47700
O 	O 	0.55486 0.67729 0.34914 -0.43500
O 	O 	0.69108 0.77200 0.39699 -0.42500
O 	O 	0.53591 0.69429 0.28646 -0.41900
O 	O 	0.82141 0.74638 0.29830 -0.47200
H 	H 	0.69215 0.87043 0.31441 0.17000
O 	O 	0.77654 0.76305 0.24410 -0.40600
O 	O 	0.66758 0.82395 0.30502 -0.79500
O 	O 	0.59205 0.79017 0.22543 -0.44700
O 	O 	0.79912 0.87347 0.28972 -0.44200
O 	O 	0.69044 0.80288 0.21986 -0.43500
O 	O 	0.79659 0.82749 0.34997 -0.40900
C 	C 	0.55669 0.81909 0.36318 0.31700
C 	C 	0.70839 0.72981 0.40988 0.30600
C 	C 	0.51601 0.66022 0.31941 0.29300
C 	C 	0.82503 0.76433 0.26167 0.30200
Zn	Zn	0.86910 0.22114 0.61766 1.22300
Zn	Zn	0.95284 0.15062 0.65173 1.19200
C 	C 	0.87881 0.29751 0.75352 0.30300
Zn	Zn	0.91344 0.22194 0.70390 1.22100
Zn	Zn	0.79897 0.25192 0.68193 1.19400
H 	H 	0.98822 0.27605 0.64760 0.17400
C 	C 	0.84418 0.07884 0.71131 0.32600
O 	O 	0.75829 0.25764 0.63331 -0.46800
O 	O 	0.78226 0.19999 0.59107 -0.39500
O 	O 	0.94711 0.23350 0.65126 -0.78700
O 	O 	0.91868 0.11317 0.60024 -0.46200
O 	O 	0.90695 0.31826 0.60476 -0.42800
O 	O 	0.87256 0.16905 0.57463 -0.42700
O 	O 	0.88798 0.34161 0.66502 -0.41600
O 	O 	0.98525 0.14352 0.70311 -0.47100
H 	H 	0.79536 0.14493 0.67067 0.17200
O 	O 	0.00120 0.24024 0.72893 -0.39900
O 	O 	0.83056 0.19226 0.67012 -0.78900
O 	O 	0.82191 0.27427 0.73812 -0.46200
O 	O 	0.87004 0.13406 0.73113 -0.44500
O 	O 	0.92465 0.29848 0.73366 -0.43600
O 	O 	0.85736 0.08161 0.67422 -0.42500
C 	C 	0.74106 0.21298 0.60607 0.31100
C 	C 	0.91516 0.15108 0.57268 0.31200
C 	C 	0.90298 0.35930 0.62844 0.28800
C 	C 	0.01807 0.19534 0.72532 0.31600
Zn	Zn	0.97143 0.40748 0.05406 1.22000
Zn	Zn	0.12239 0.44729 0.03201 1.19100
C 	C 	0.93064 0.38963 0.91048 0.33500
Zn	Zn	0.02801 0.42473 0.96998 1.22100
Zn	Zn	0.89380 0.42156 0.98546 1.19700
H 	H 	0.01724 0.33762 0.01892 0.17100
C 	C 	0.12547 0.56135 0.98252 0.33100
O 	O 	0.84177 0.40846 0.03131 -0.46500
O 	O 	0.91543 0.44366 0.07997 -0.38800
O 	O 	0.03021 0.38542 0.02062 -0.78700
O 	O 	0.12150 0.47075 0.08606 -0.45600
O 	O 	0.89872 0.31326 0.05512 -0.44400
O 	O 	0.01890 0.43055 0.10384 -0.41700
O 	O 	0.86857 0.31766 0.99275 -0.41200
O 	O 	0.17098 0.46272 0.98409 -0.46800
H 	H 	0.00167 0.50729 0.00965 0.17500
O 	O 	0.08920 0.39647 0.94351 -0.39300
O 	O 	0.98103 0.45859 0.00526 -0.79300
O 	O 	0.90122 0.41582 0.92781 -0.46700
O 	O 	0.08987 0.51898 0.95583 -0.45300
O 	O 	0.96444 0.37015 0.93052 -0.44200
O 	O 	0.12394 0.53966 0.01826 -0.43000
C 	C 	0.86630 0.44226 0.06304 0.28100
C 	C 	0.07315 0.43231 0.10875 0.27500
C 	C 	0.85611 0.28809 0.02728 0.31300
C 	C 	0.14932 0.42440 0.95378 0.28600
Zn	Zn	0.12410 0.27394 0.32241 1.22000
Zn	Zn	0.10887 0.40457 0.32787 1.19600
C 	C 	0.11716 0.26250 0.45979 0.28400
Zn	Zn	0.15305 0.36106 0.39716 1.21900
Zn	Zn	0.15624 0.21502 0.39392 1.19400
H 	H 	0.04282 0.29412 0.36698 0.17800
C 	C 	0.25197 0.45703 0.34531 0.30200
O 	O 	0.15463 0.15901 0.35157 -0.46400
O 	O 	0.17132 0.22745 0.29847 -0.38700
O 	O 	0.08684 0.32081 0.35691 -0.79100
O 	O 	0.08265 0.37084 0.27530 -0.47800
O 	O 	0.04359 0.18540 0.32395 -0.44100
O 	O 	0.14313 0.32264 0.27126 -0.43700
O 	O 	0.05339 0.16900 0.38844 -0.42700
O 	O 	0.14050 0.48012 0.36249 -0.47200
H 	H 	0.22468 0.32400 0.35858 0.16500
O 	O 	0.11898 0.42213 0.41970 -0.40600
O 	O 	0.18030 0.30162 0.36787 -0.79000
O 	O 	0.14223 0.22708 0.44928 -0.45100
O 	O 	0.23395 0.44325 0.38189 -0.43400
O 	O 	0.14620 0.32704 0.45085 -0.43500
O 	O 	0.20874 0.43431 0.31739 -0.41500
C 	C 	0.18152 0.18418 0.31764 0.28300
C 	C 	0.10741 0.34352 0.25483 0.34000
C 	C 	0.02227 0.14780 0.35568 0.32400
C 	C 	0.12392 0.47270 0.39890 0.32100
C 	C 	0.08369 0.40219 0.14410 -0.05300
C 	C 	0.14535 0.42875 0.15918 -0.04000
C 	C 	0.15534 0.40080 0.19285 0.02000
C 	C 	0.10370 0.34750 0.21256 -0.13400
C 	C 	0.04327 0.31480 0.19457 0.12700
C 	C 	0.03325 0.34347 0.16089 -0.07400
H 	H 	0.20232 0.42490 0.20572 0.03000
H 	H 	0.98643 0.31993 0.14778 0.04700
H 	H 	0.18529 0.47253 0.14562 0.03900
N 	N 	0.99455 0.25692 0.21009 -0.20600
H 	H 	0.00181 0.23301 0.23393 0.08500
H 	H 	0.94931 0.23409 0.19761 0.08000
C 	C 	0.89234 0.32618 0.79274 -0.04900
C 	C 	0.84236 0.30926 0.81862 -0.03500
C 	C 	0.85523 0.33260 0.85647 0.02200
C 	C 	0.91820 0.37318 0.86910 -0.13000
C 	C 	0.96889 0.39333 0.84260 0.12700
C 	C 	0.95547 0.36872 0.80477 -0.06800
H 	H 	0.81614 0.31734 0.87641 0.02700
H 	H 	0.99423 0.38339 0.78463 0.06200
H 	H 	0.79346 0.27660 0.80977 0.04100
N 	N 	0.03011 0.43736 0.85292 -0.20100
H 	H 	0.04114 0.46190 0.87925 0.08300
H 	H 	0.06738 0.44969 0.83377 0.08800
C 	C 	0.06501 0.23347 0.48862 -0.04800
C 	C 	0.05304 0.27545 0.51076 -0.04200
C 	C 	0.00222 0.24799 0.53679 0.01500
C 	C 	0.96251 0.17819 0.54120 -0.15200
C 	C 	0.97258 0.13539 0.51785 0.12900
C 	C 	0.02452 0.16350 0.49216 -0.07600
H 	H 	0.99468 0.28109 0.55441 0.00900
H 	H 	0.03227 0.13091 0.47419 0.05300
H 	H 	0.08347 0.32947 0.50813 0.05200
N 	N 	0.93156 0.06783 0.51894 -0.20600
H 	H 	0.88926 0.04605 0.53472 0.09800
H 	H 	0.94046 0.03650 0.50251 0.08100
C 	C 	0.44943 0.60319 0.32328 -0.04800
C 	C 	0.40156 0.59981 0.29897 -0.03100
C 	C 	0.33776 0.55003 0.30516 0.01300
C 	C 	0.32062 0.50242 0.33562 -0.11500
C 	C 	0.36947 0.50295 0.35867 0.11800
C 	C 	0.43313 0.55457 0.35292 -0.06700
H 	H 	0.30137 0.55001 0.28705 0.03200
H 	H 	0.47008 0.55592 0.37113 0.05300
H 	H 	0.41340 0.63709 0.27602 0.03600
N 	N 	0.35612 0.45315 0.38523 -0.19900
H 	H 	0.31238 0.40847 0.38568 0.06700
H 	H 	0.39154 0.45675 0.40392 0.07600
C 	C 	0.86580 0.94781 0.33948 -0.03100
C 	C 	0.91971 0.95888 0.36022 -0.02700
C 	C 	0.96906 0.02441 0.36741 0.00800
C 	C 	0.96504 0.07975 0.35407 -0.12800
C 	C 	0.90842 0.06866 0.33589 0.13000
C 	C 	0.85977 0.00265 0.32802 -0.09300
H 	H 	0.01174 0.03224 0.38188 0.02100
H 	H 	0.81726 0.99402 0.31292 0.05200
H 	H 	0.92476 0.91691 0.36926 0.03600
N 	N 	0.89976 0.12068 0.32692 -0.20300
H 	H 	0.93149 0.16907 0.33638 0.07900
H 	H 	0.85912 0.11240 0.31195 0.07400
C 	C 	0.60744 0.72596 0.17757 -0.04400
C 	C 	0.56420 0.72643 0.15078 -0.03500
C 	C 	0.54324 0.68316 0.11952 0.02200
C 	C 	0.56463 0.63825 0.11482 -0.13200
C 	C 	0.60598 0.63532 0.14285 0.13000
C 	C 	0.62837 0.68062 0.17343 -0.07200
H 	H 	0.51146 0.68566 0.09838 0.01800
H 	H 	0.66053 0.67906 0.19469 0.04500
H 	H 	0.54769 0.76119 0.15371 0.04000
N 	N 	0.62243 0.58783 0.14138 -0.20200
H 	H 	0.60035 0.54823 0.12223 0.08700
H 	H 	0.65536 0.58815 0.16101 0.08600
C 	C 	0.84039 0.48150 0.07817 -0.05100
C 	C 	0.78220 0.44811 0.09794 -0.02700
C 	C 	0.73999 0.47140 0.09406 0.01800
C 	C 	0.75475 0.52587 0.06880 -0.12500
C 	C 	0.81866 0.56836 0.05731 0.11500
C 	C 	0.86144 0.54550 0.06188 -0.07600
H 	H 	0.69245 0.44134 0.10589 0.02900
H 	H 	0.90850 0.57409 0.04912 0.03100
H 	H 	0.76678 0.40038 0.11261 0.03700
N 	N 	0.83790 0.62875 0.03969 -0.20800
H 	H 	0.80715 0.64716 0.03704 0.08700
H 	H 	0.88456 0.65886 0.02964 0.07600
C 	C 	0.19470 0.41881 0.92967 -0.04600
C 	C 	0.23733 0.47501 0.90713 -0.02800
C 	C 	0.30175 0.49533 0.90657 0.02200
C 	C 	0.32276 0.45717 0.92667 -0.12700
C 	C 	0.27723 0.39228 0.94105 0.11500
C 	C 	0.21275 0.37303 0.94169 -0.07200
H 	H 	0.33584 0.54350 0.89351 0.02800
H 	H 	0.17836 0.32641 0.95617 0.03800
H 	H 	0.22238 0.50781 0.89461 0.03900
N 	N 	0.29529 0.34983 0.95578 -0.20700
H 	H 	0.34246 0.36177 0.95442 0.07900
H 	H 	0.26159 0.30315 0.96777 0.07500
C 	C 	0.69896 0.55973 0.79748 -0.04600
C 	C 	0.68717 0.59515 0.82511 -0.03600
C 	C 	0.64488 0.56080 0.85561 0.01100
C 	C 	0.61389 0.49064 0.85911 -0.14700
C 	C 	0.62270 0.45419 0.83019 0.13200
C 	C 	0.66558 0.48923 0.79967 -0.07400
H 	H 	0.63783 0.58900 0.87737 0.00900
H 	H 	0.67253 0.46153 0.77751 0.04900
H 	H 	0.71180 0.64942 0.82352 0.05200
N 	N 	0.58930 0.38593 0.83104 -0.20600
H 	H 	0.55385 0.35851 0.85165 0.10100
H 	H 	0.59719 0.35947 0.81009 0.08500
C 	C 	0.77086 0.87820 0.73750 -0.03800
C 	C 	0.82284 0.92505 0.75922 -0.04200
C 	C 	0.84245 0.99305 0.75581 0.05000
C 	C 	0.80885 0.01337 0.73153 -0.15300
C 	C 	0.74767 0.96456 0.71864 0.14200
C 	C 	0.72832 0.89639 0.72256 -0.08000
H 	H 	0.88765 0.03012 0.76803 0.02100
H 	H 	0.68446 0.85882 0.70914 0.03900
H 	H 	0.85352 0.91049 0.77364 0.04500
N 	N 	0.70862 0.98291 0.70150 -0.20000
H 	H 	0.72074 0.03304 0.70040 0.06300
H 	H 	0.66453 0.94673 0.69044 0.07700
C 	C 	0.90046 0.41708 0.61255 -0.04400
C 	C 	0.93703 0.47974 0.62957 -0.03600
C 	C 	0.91825 0.52704 0.62623 0.01400
C 	C 	0.86138 0.51090 0.60721 -0.13400
C 	C 	0.83061 0.45267 0.58469 0.13300
C 	C 	0.85082 0.40609 0.58734 -0.07300
H 	H 	0.94380 0.57300 0.64225 0.00900
H 	H 	0.82468 0.35911 0.57231 0.06200
H 	H 	0.97694 0.48972 0.64797 0.03900
N 	N 	0.78041 0.44017 0.56176 -0.20500
H 	H 	0.76626 0.47532 0.55822 0.09400
H 	H 	0.75625 0.39587 0.54627 0.08400
C 	C 	0.72817 0.73122 0.45028 -0.05100
C 	C 	0.77903 0.79037 0.46494 -0.03300
C 	C 	0.80589 0.78935 0.50068 0.02200
C 	C 	0.78127 0.72939 0.52278 -0.12900
C 	C 	0.73286 0.66871 0.50678 0.11800
C 	C 	0.70541 0.67052 0.47116 -0.06700
H 	H 	0.84373 0.83598 0.51227 0.03100
H 	H 	0.66779 0.62424 0.45903 0.04800
H 	H 	0.79861 0.83705 0.44831 0.04800
N 	N 	0.71294 0.60876 0.52526 -0.20400
H 	H 	0.73775 0.60475 0.54888 0.08500
H 	H 	0.67450 0.56467 0.51455 0.08300
C 	C 	0.42209 0.85886 0.40335 -0.04400
C 	C 	0.47808 0.91218 0.38721 -0.04200
C 	C 	0.52921 0.90355 0.37963 0.01600
C 	C 	0.52437 0.84186 0.38858 -0.13000
C 	C 	0.47463 0.79522 0.41319 0.13200
C 	C 	0.42411 0.80508 0.42117 -0.06900
H 	H 	0.56909 0.94154 0.36274 0.01200
H 	H 	0.38280 0.76646 0.43684 0.05500
H 	H 	0.47875 0.95631 0.37567 0.03400
N 	N 	0.47346 0.73954 0.42741 -0.20500
H 	H 	0.51161 0.73248 0.42323 0.10200
H 	H 	0.43494 0.70364 0.44398 0.08700
C 	C 	0.88756 0.79771 0.24313 -0.04700
C 	C 	0.91475 0.75931 0.23492 -0.03100
C 	C 	0.98008 0.78640 0.23982 0.01300
C 	C 	0.01866 0.85238 0.25266 -0.12700
C 	C 	0.99334 0.89504 0.25259 0.12900
C 	C 	0.92752 0.86707 0.24766 -0.07100
H 	H 	0.99948 0.75414 0.23719 0.03500
H 	H 	0.90694 0.89815 0.25092 0.06100
H 	H 	0.88447 0.70632 0.22932 0.03500
N 	N 	0.03174 0.96233 0.25655 -0.20400
H 	H 	0.08104 0.98519 0.25517 0.10400
H 	H 	0.01236 0.99290 0.25882 0.09300
C 	C 	0.21952 0.15994 0.30001 -0.05100
C 	C 	0.27222 0.16589 0.31998 -0.03500
C 	C 	0.29420 0.12296 0.31168 0.01500
C 	C 	0.26041 0.07117 0.28549 -0.12700
C 	C 	0.22034 0.07815 0.25847 0.12300
C 	C 	0.19722 0.12040 0.26707 -0.06700
H 	H 	0.33024 0.12275 0.33004 0.02500
H 	H 	0.16021 0.12005 0.24941 0.05300
H 	H 	0.29245 0.19952 0.34405 0.01700
N 	N 	0.20386 0.04443 0.22480 -0.20400
H 	H 	0.22641 0.01937 0.21589 0.10000
H 	H 	0.17165 0.04715 0.20587 0.08200
C 	C 	0.15912 0.66101 0.40138 -0.04300
C 	C 	0.19800 0.64593 0.42425 -0.03100
C 	C 	0.17859 0.57897 0.43292 0.02300
C 	C 	0.12182 0.52747 0.41716 -0.12600
C 	C 	0.07662 0.54326 0.40328 0.11900
C 	C 	0.09649 0.61033 0.39372 -0.06600
H 	H 	0.21191 0.56733 0.44652 0.03300
H 	H 	0.06463 0.62241 0.37847 0.04100
H 	H 	0.24547 0.68536 0.43208 0.04900
N 	N 	0.01602 0.49376 0.39588 -0.20600
H 	H 	0.00061 0.44374 0.40312 0.07400
H 	H 	0.98328 0.50513 0.38388 0.07600
C 	C 	0.28567 0.81864 0.20442 -0.06100
C 	C 	0.28418 0.77322 0.17808 -0.02900
C 	C 	0.32416 0.79655 0.14567 0.01800
C 	C 	0.36726 0.86562 0.13967 -0.13100
C 	C 	0.37196 0.91128 0.16780 0.12700
C 	C 	0.32914 0.88750 0.19912 -0.07700
H 	H 	0.32039 0.76102 0.12462 0.02500
H 	H 	0.33141 0.92237 0.22019 0.03200
H 	H 	0.25122 0.71986 0.18229 0.04400
N 	N 	0.41903 0.97697 0.16590 -0.19700
H 	H 	0.45720 0.99398 0.14680 0.08900
H 	H 	0.42001 0.01097 0.18545 0.07400
C 	C 	0.25744 0.76994 0.97769 -0.03400
C 	C 	0.20445 0.74382 0.00205 -0.05300
C 	C 	0.15605 0.67665 0.99957 0.03900
C 	C 	0.16148 0.63410 0.97386 -0.14100
C 	C 	0.21173 0.66223 0.94637 0.13500
C 	C 	0.25923 0.73023 0.94855 -0.07600
H 	H 	0.11673 0.65623 0.01984 0.01600
H 	H 	0.29934 0.75125 0.92882 0.06400
H 	H 	0.20201 0.77471 0.02405 0.04800
N 	N 	0.21568 0.62418 0.91864 -0.20700
H 	H 	0.17806 0.57607 0.91307 0.10200
H 	H 	0.25564 0.64418 0.90070 0.08500
C 	C 	0.66454 0.12479 0.03264 -0.04200
C 	C 	0.70818 0.12333 0.00758 -0.04200
C 	C 	0.77243 0.17353 0.00871 0.01300
C 	C 	0.79388 0.22635 0.03463 -0.12500
C 	C 	0.75077 0.22440 0.06258 0.12500
C 	C 	0.68638 0.17335 0.06118 -0.07200
H 	H 	0.80497 0.17356 0.98781 0.03500
H 	H 	0.65273 0.17366 0.08106 0.05800
H 	H 	0.69180 0.08511 0.98589 0.04300
N 	N 	0.77021 0.27194 0.09002 -0.20400
H 	H 	0.81807 0.30642 0.09486 0.10300
H 	H 	0.73708 0.27247 0.10846 0.08300
C 	C 	0.47352 0.18990 0.06935 -0.05300
C 	C 	0.52228 0.24241 0.09023 -0.02800
C 	C 	0.53687 0.30817 0.08292 0.01600
C 	C 	0.50213 0.32105 0.05510 -0.12600
C 	C 	0.44415 0.26693 0.04143 0.11900
C 	C 	0.42963 0.20105 0.04939 -0.07500
H 	H 	0.57923 0.34933 0.09559 0.03200
H 	H 	0.38850 0.15937 0.03597 0.03500
H 	H 	0.55420 0.23354 0.10786 0.03700
N 	N 	0.40292 0.27794 0.02063 -0.20200
H 	H 	0.40964 0.32589 0.01773 0.06600
H 	H 	0.36175 0.23784 0.00891 0.07400
C 	C 	0.48180 0.77912 0.94215 -0.05600
C 	C 	0.45303 0.72064 0.92060 -0.02500
C 	C 	0.48146 0.68207 0.91856 0.01600
C 	C 	0.53683 0.69979 0.93994 -0.12800
C 	C 	0.57047 0.76354 0.95687 0.12600
C 	C 	0.54222 0.80268 0.95817 -0.07400
H 	H 	0.45697 0.63484 0.90373 0.03900
H 	H 	0.56579 0.84973 0.97329 0.03000
H 	H 	0.40710 0.70318 0.90719 0.03800
N 	N 	0.62902 0.78651 0.97255 -0.20300
H 	H 	0.65236 0.75989 0.96992 0.09100
H 	H 	0.65270 0.83255 0.98638 0.08300
C 	C 	0.39316 0.07849 0.80263 -0.06100
C 	C 	0.42087 0.03891 0.80092 -0.03000
C 	C 	0.44356 0.02367 0.83451 0.00300
C 	C 	0.43834 0.04741 0.87025 -0.12300
C 	C 	0.40308 0.08000 0.87277 0.10800
C 	C 	0.38198 0.09667 0.83862 -0.05500
H 	H 	0.46850 0.99672 0.83240 0.04400
H 	H 	0.35885 0.12561 0.84003 0.05600
H 	H 	0.42846 0.02356 0.77317 0.00100
N 	N 	0.38852 0.09421 0.90770 -0.19800
H 	H 	0.39704 0.07572 0.93349 0.02600
H 	H 	0.36523 0.12107 0.90925 0.07500
C 	C 	0.54469 0.12760 0.59311 -0.04700
C 	C 	0.58548 0.19016 0.57527 -0.03000
C 	C 	0.65101 0.21612 0.57539 0.02200
C 	C 	0.67537 0.17817 0.59175 -0.13000
C 	C 	0.63296 0.10943 0.60140 0.11300
C 	C 	0.56725 0.08423 0.60088 -0.07100
H 	H 	0.68296 0.26770 0.56604 0.02700
H 	H 	0.53465 0.03361 0.61161 0.03900
H 	H 	0.56755 0.22245 0.56657 0.04100
N 	N 	0.65489 0.06867 0.61307 -0.20700
H 	H 	0.70323 0.08513 0.61281 0.07800
H 	H 	0.62311 0.01893 0.62170 0.07400
C 	C 	0.17036 0.17431 0.72785 -0.04800
C 	C 	0.17950 0.23618 0.71467 -0.03900
C 	C 	0.13412 0.25324 0.72293 0.01000
C 	C 	0.07772 0.20628 0.74190 -0.13100
C 	C 	0.07652 0.15270 0.76293 0.13000
C 	C 	0.12214 0.13551 0.75476 -0.06700
H 	H 	0.13806 0.29772 0.70927 0.01800
H 	H 	0.11757 0.08993 0.76720 0.05000
H 	H 	0.21881 0.26836 0.69551 0.01900
N 	N 	0.02868 0.11449 0.78827 -0.20300
H 	H 	0.99516 0.12753 0.79510 0.09500
H 	H 	0.02564 0.07244 0.80215 0.08200
C 	C 	0.11815 0.94347 0.67241 -0.05000
C 	C 	0.08603 0.89281 0.64545 -0.03100
C 	C 	0.01971 0.85256 0.64646 0.01500
C 	C 	0.98444 0.86388 0.67366 -0.12600
C 	C 	0.01665 0.91689 0.70006 0.13000
C 	C 	0.08349 0.95394 0.70041 -0.06800
H 	H 	0.99562 0.81257 0.62596 0.02900
H 	H 	0.10835 0.99383 0.72089 0.06200
H 	H 	0.11243 0.88474 0.62357 0.04400
N 	N 	0.98403 0.93507 0.72331 -0.20500
H 	H 	0.93550 0.91616 0.71950 0.10500
H 	H 	0.00806 0.97215 0.74384 0.08900
C 	C 	0.51173 0.33001 0.64214 -0.05000
C 	C 	0.55764 0.35673 0.61275 -0.03400
C 	C 	0.60681 0.42380 0.61354 0.01900
C 	C 	0.61052 0.46486 0.64377 -0.13100
C 	C 	0.55975 0.44038 0.67056 0.12500
C 	C 	0.51131 0.37250 0.67002 -0.07200
H 	H 	0.64451 0.44251 0.59221 0.03300
H 	H 	0.47401 0.35249 0.69171 0.05000
H 	H 	0.55768 0.32453 0.59072 0.04300
N 	N 	0.55678 0.48187 0.69627 -0.20200
H 	H 	0.58781 0.53377 0.69432 0.08400
H 	H 	0.52106 0.46275 0.71732 0.08500
C 	C 	0.23680 0.99450 0.45329 -0.03900
C 	C 	0.18906 0.98831 0.47809 -0.02900
C 	C 	0.20516 0.02649 0.51149 0.01000
C 	C 	0.26914 0.07108 0.52078 -0.13200
C 	C 	0.31727 0.08137 0.49440 0.12800
C 	C 	0.30071 0.04233 0.46107 -0.08000
H 	H 	0.16793 0.01864 0.53128 0.02400
H 	H 	0.33764 0.04946 0.44122 0.06100
H 	H 	0.13950 0.95244 0.47220 0.04200
N 	N 	0.37917 0.12897 0.50071 -0.20300
H 	H 	0.39226 0.16234 0.52341 0.08500
H 	H 	0.41474 0.13463 0.48195 0.08500
