data_crystal

_cell_length_a 18.51523
_cell_length_b 18.81469
_cell_length_c 26.45943
_cell_angle_alpha 95.42490
_cell_angle_beta  95.42577
_cell_angle_gamma 126.41589

_symmetry_space_group_name_	'P 1'
_symmetry_space_group_name_H-M	'P 1'

loop_
_symmetry_equiv_pos_as_xyz
  x,y,z

loop_
_atom_site_label
_atom_site_type_symbol
_atom_site_fract_x
_atom_site_fract_y
_atom_site_fract_z
_atom_site_charge
C 	C 	0.95831 0.04734 0.00155 0.20700
N 	N 	0.04889 0.09402 0.00043 -0.08500
C 	C 	0.08736 0.05095 0.00005 0.20600
N 	N 	0.03527 0.96172 0.00082 -0.06000
C 	C 	0.94438 0.91453 0.00005 0.24700
N 	N 	0.90608 0.95752 0.00060 -0.07300
C 	C 	0.90151 0.98667 0.44864 0.35400
N 	N 	0.85689 0.89743 0.44936 -0.11300
C 	C 	0.90360 0.86235 0.44832 0.28100
N 	N 	0.99424 0.91659 0.44744 -0.10100
C 	C 	0.03867 0.00534 0.44752 0.25400
N 	N 	0.99235 0.04025 0.44794 -0.15000
Cu	Cu	0.62395 0.21155 0.01129 0.93700
Cu	Cu	0.68120 0.21754 0.89768 0.90600
Cu	Cu	0.66102 0.35134 0.94636 0.91400
Cu	Cu	0.64876 0.38701 0.05603 0.92500
C 	C 	0.66511 0.27474 0.12101 0.30300
O 	O 	0.49648 0.17082 0.01834 -0.32300
C 	C 	0.62982 0.29854 0.83292 0.30100
O 	O 	0.70446 0.35150 0.01586 -0.63900
O 	O 	0.60124 0.22028 0.93855 -0.63100
O 	O 	0.67493 0.14422 0.00033 -0.33100
O 	O 	0.77079 0.24150 0.95211 -0.38500
O 	O 	0.62879 0.31585 0.11157 -0.32900
O 	O 	0.72713 0.48025 0.95539 -0.32700
C 	C 	0.73782 0.53496 0.99578 0.40700
C 	C 	0.46636 0.21552 0.00369 0.38400
O 	O 	0.52445 0.29987 0.99905 -0.34900
O 	O 	0.71852 0.50994 0.04071 -0.33700
O 	O 	0.66568 0.22404 0.08328 -0.30500
C 	C 	0.74964 0.18092 0.98072 0.39700
O 	O 	0.63046 0.34836 0.87214 -0.32100
O 	O 	0.62051 0.22484 0.83844 -0.37100
H 	H 	0.77170 0.38784 0.02584 0.20000
H 	H 	0.53628 0.18165 0.92118 0.21800
Cu	Cu	0.75272 0.33331 0.44607 0.93600
Cu	Cu	0.73767 0.26715 0.55746 0.90100
Cu	Cu	0.60883 0.29581 0.51028 0.91100
Cu	Cu	0.58296 0.32520 0.40335 0.91900
C 	C 	0.68951 0.29939 0.33653 0.30500
O 	O 	0.80483 0.46399 0.44245 -0.30900
C 	C 	0.65889 0.32129 0.62360 0.30100
O 	O 	0.61022 0.26025 0.43985 -0.63600
O 	O 	0.74158 0.35162 0.51889 -0.63400
O 	O 	0.81347 0.27397 0.45462 -0.31600
O 	O 	0.71121 0.17946 0.50158 -0.38900
O 	O 	0.65245 0.33987 0.34681 -0.33000
O 	O 	0.47800 0.23242 0.49956 -0.33500
C 	C 	0.42593 0.22239 0.45746 0.40300
C 	C 	0.76253 0.49747 0.45676 0.38100
O 	O 	0.67743 0.44297 0.46263 -0.35700
O 	O 	0.46070 0.27095 0.42133 -0.33700
O 	O 	0.74052 0.29661 0.37349 -0.30300
C 	C 	0.77272 0.19891 0.47311 0.38100
O 	O 	0.60990 0.32272 0.58440 -0.31300
O 	O 	0.73144 0.32586 0.61793 -0.37100
H 	H 	0.57036 0.19449 0.42695 0.19600
H 	H 	0.78177 0.41473 0.53771 0.21100
C 	C 	0.55199 0.25273 0.74133 -0.02000
C 	C 	0.62649 0.31837 0.78057 -0.05700
C 	C 	0.70451 0.39416 0.76741 0.12400
C 	C 	0.71117 0.39879 0.71535 -0.01500
C 	C 	0.64054 0.32833 0.67614 -0.05500
C 	C 	0.55860 0.25737 0.68925 0.13100
Br	Br	0.45741 0.16270 0.63677 -0.13800
H 	H 	0.49076 0.19543 0.75123 0.09700
H 	H 	0.77333 0.45496 0.70548 0.10100
Br	Br	0.80577 0.48855 0.81988 -0.10300
C 	C 	0.61511 0.20439 0.24912 -0.02300
C 	C 	0.69391 0.27907 0.28234 -0.04700
C 	C 	0.77001 0.34239 0.26150 0.14000
C 	C 	0.76330 0.33517 0.20779 -0.01800
C 	C 	0.68115 0.26541 0.17463 -0.04900
C 	C 	0.60841 0.19727 0.19543 0.14100
Br	Br	0.49694 0.09731 0.15116 -0.12300
H 	H 	0.55705 0.15442 0.26495 0.08900
H 	H 	0.82017 0.38685 0.19196 0.09200
Br	Br	0.88151 0.44247 0.30568 -0.07700
C 	C 	0.79707 0.64321 0.49556 0.29500
C 	C 	0.80314 0.59268 0.45584 -0.19200
C 	C 	0.83485 0.62866 0.41169 0.29500
C 	C 	0.86121 0.71446 0.40760 0.26700
C 	C 	0.85676 0.76566 0.44771 -0.12600
C 	C 	0.82367 0.72921 0.49148 0.26900
F 	F 	0.82037 0.77834 0.53091 -0.33100
F 	F 	0.76581 0.60910 0.53828 -0.36500
F 	F 	0.89248 0.74858 0.36489 -0.33400
F 	F 	0.83745 0.57939 0.37200 -0.36200
C 	C 	0.82708 0.03823 0.49759 0.24000
C 	C 	0.85321 0.02688 0.45125 -0.17700
C 	C 	0.84947 0.06936 0.41117 0.27600
C 	C 	0.82299 0.12521 0.41807 0.29100
C 	C 	0.80052 0.13964 0.46532 -0.19400
C 	C 	0.80166 0.09480 0.50485 0.29400
F 	F 	0.78144 0.10866 0.55104 -0.39700
F 	F 	0.83109 0.99826 0.53676 -0.30000
F 	F 	0.81873 0.16477 0.37875 -0.36200
F 	F 	0.87368 0.05820 0.36593 -0.35700
C 	C 	0.17294 0.04934 0.40814 0.22000
C 	C 	0.13734 0.06391 0.44894 -0.11600
C 	C 	0.19676 0.13097 0.49254 0.25800
C 	C 	0.29125 0.18236 0.49561 0.30600
C 	C 	0.32690 0.16738 0.45490 -0.20400
C 	C 	0.26738 0.10115 0.41100 0.31000
F 	F 	0.30124 0.08616 0.37148 -0.38400
F 	F 	0.11585 0.98479 0.36575 -0.28400
F 	F 	0.34822 0.24746 0.53781 -0.35500
F 	F 	0.16282 0.14501 0.53236 -0.34700
C 	C 	0.81522 0.77310 0.02360 0.25400
C 	C 	0.88684 0.81627 0.99586 -0.09500
C 	C 	0.90485 0.76533 0.96504 0.26000
C 	C 	0.85572 0.67340 0.96454 0.30400
C 	C 	0.78516 0.63042 0.99306 -0.18300
C 	C 	0.76364 0.68042 0.02147 0.29500
F 	F 	0.69304 0.63917 0.04733 -0.35100
F 	F 	0.79717 0.82132 0.05374 -0.32300
F 	F 	0.87894 0.62674 0.93782 -0.35800
F 	F 	0.97018 0.80508 0.93558 -0.32300
C 	C 	0.90240 0.11686 0.95244 0.25200
C 	C 	0.91486 0.09175 0.99875 -0.09300
C 	C 	0.87426 0.09732 0.03965 0.24700
C 	C 	0.82032 0.12649 0.03395 0.29400
C 	C 	0.80561 0.14920 0.98697 -0.19300
C 	C 	0.84732 0.14449 0.94628 0.29700
F 	F 	0.83200 0.16389 0.90016 -0.39300
F 	F 	0.94038 0.11052 0.91246 -0.35300
F 	F 	0.78322 0.13359 0.07420 -0.36200
F 	F 	0.88627 0.07339 0.08471 -0.34000
C 	C 	0.30258 0.10003 0.96345 0.33200
C 	C 	0.36966 0.17623 0.00088 -0.22300
C 	C 	0.34421 0.21580 0.03528 0.31500
C 	C 	0.25192 0.17754 0.03337 0.23400
C 	C 	0.18444 0.09964 0.99688 -0.07000
C 	C 	0.21040 0.06237 0.96108 0.20300
F 	F 	0.14605 0.98920 0.92424 -0.27400
F 	F 	0.32680 0.06279 0.92918 -0.38800
F 	F 	0.22789 0.21396 0.06834 -0.33900
F 	F 	0.40884 0.28980 0.07157 -0.37600
