data_crystal

_cell_length_a 18.34106
_cell_length_b 15.76078
_cell_length_c 42.53208
_cell_angle_alpha 90.49514
_cell_angle_beta  91.08706
_cell_angle_gamma 111.02631

_symmetry_space_group_name_	'P 1'
_symmetry_space_group_name_H-M	'P 1'

loop_
_symmetry_equiv_pos_as_xyz
  x,y,z

loop_
_atom_site_label
_atom_site_type_symbol
_atom_site_fract_x
_atom_site_fract_y
_atom_site_fract_z
_atom_site_charge
Ni	Ni	0.74323 0.37227 0.88893 1.10000
O 	O 	0.64565 0.33122 0.85992 -0.70400
Ni	Ni	0.56590 0.34855 0.88878 1.09800
O 	O 	0.81092 0.33642 0.85760 -0.36400
O 	O 	0.72202 0.19656 0.84557 -0.41000
O 	O 	0.79062 0.49735 0.86808 -0.37000
Ni	Ni	0.61078 0.19926 0.85168 1.06000
O 	O 	0.81814 0.54783 0.92963 -0.39800
O 	O 	0.62229 0.17281 0.89818 -0.42000
O 	O 	0.47125 0.29789 0.85887 -0.37800
O 	O 	0.66411 0.39215 0.91734 -0.70300
O 	O 	0.83462 0.41265 0.92032 -0.37600
O 	O 	0.49875 0.38651 0.91991 -0.35300
O 	O 	0.58878 0.52810 0.93009 -0.40900
Ni	Ni	0.70021 0.52226 0.92782 1.07200
H 	H 	0.65145 0.36675 0.84044 0.15000
H 	H 	0.65996 0.35647 0.93662 0.16800
C 	C 	0.57353 0.18148 0.91907 0.29400
O 	O 	0.70057 0.55835 0.88208 -0.41800
C 	C 	0.78319 0.26714 0.83796 0.27000
C 	C 	0.45353 0.21656 0.84581 0.27000
C 	C 	0.75411 0.55400 0.86291 0.28000
C 	C 	0.52719 0.45876 0.93833 0.29600
C 	C 	0.84941 0.48698 0.93754 0.29700
O 	O 	0.52811 0.22707 0.91208 -0.36200
O 	O 	0.49213 0.16388 0.85433 -0.40600
Ni	Ni	0.51005 0.38688 0.55642 1.10000
O 	O 	0.60803 0.41419 0.53043 -0.70300
Ni	Ni	0.67597 0.37243 0.55906 1.10000
O 	O 	0.46909 0.47543 0.53370 -0.37200
O 	O 	0.58834 0.58825 0.53827 -0.41600
O 	O 	0.44700 0.28799 0.52370 -0.36500
Ni	Ni	0.66685 0.53811 0.51811 1.07400
O 	O 	0.40446 0.19894 0.57869 -0.40900
O 	O 	0.75106 0.58820 0.55317 -0.39500
O 	O 	0.78130 0.42581 0.53645 -0.37300
O 	O 	0.57172 0.32878 0.58193 -0.70000
O 	O 	0.41467 0.34799 0.58354 -0.38400
O 	O 	0.72082 0.29960 0.58887 -0.36200
O 	O 	0.61761 0.16932 0.57747 -0.40600
Ni	Ni	0.51608 0.19809 0.57896 1.06400
H 	H 	0.59606 0.37528 0.51124 0.16400
H 	H 	0.57720 0.35042 0.60408 0.15000
C 	C 	0.74139 0.56531 0.58284 0.28700
O 	O 	0.51960 0.19967 0.53152 -0.41700
C 	C 	0.51548 0.55876 0.52776 0.26900
C 	C 	0.78982 0.46101 0.50780 0.30300
C 	C 	0.46671 0.21872 0.51522 0.28700
C 	C 	0.67958 0.21375 0.59489 0.26100
C 	C 	0.38336 0.26255 0.59211 0.26900
O 	O 	0.70929 0.47953 0.59070 -0.39000
O 	O 	0.73603 0.48692 0.49422 -0.41100
Ni	Ni	0.96977 0.02537 0.68403 1.10000
O 	O 	0.06256 0.04718 0.71408 -0.71400
Ni	Ni	0.00924 0.99759 0.75351 1.08600
O 	O 	0.04554 0.07717 0.64855 -0.37300
O 	O 	0.09338 0.20922 0.67688 -0.42100
O 	O 	0.95928 0.89325 0.67371 -0.37800
Ni	Ni	0.11890 0.17668 0.72208 1.06300
O 	O 	0.77341 0.93114 0.68013 -0.42600
O 	O 	0.02630 0.20740 0.73865 -0.42400
O 	O 	0.10973 0.01020 0.77847 -0.36300
O 	O 	0.91531 0.00074 0.72576 -0.68100
O 	O 	0.88139 0.00771 0.65303 -0.38500
O 	O 	0.94555 0.91204 0.78780 -0.36300
O 	O 	0.82045 0.87275 0.76962 -0.41000
Ni	Ni	0.81306 0.90220 0.72266 1.06500
H 	H 	0.09759 0.01535 0.70743 0.15800
H 	H 	0.90277 0.05521 0.73054 0.13700
C 	C 	0.99586 0.17618 0.76581 0.30000
O 	O 	0.85948 0.81206 0.70547 -0.41200
C 	C 	0.09759 0.15947 0.65247 0.27400
C 	C 	0.16850 0.09039 0.77749 0.25900
C 	C 	0.89302 0.82426 0.67794 0.27700
C 	C 	0.87587 0.84927 0.78232 0.27600
C 	C 	0.81329 0.00133 0.66311 0.28000
O 	O 	0.00964 0.10854 0.77877 -0.37900
O 	O 	0.15591 0.16296 0.76676 -0.40200
Ni	Ni	0.15226 0.72381 0.38274 1.09800
O 	O 	0.24602 0.79984 0.35698 -0.70400
Ni	Ni	0.33436 0.79411 0.38364 1.10300
O 	O 	0.07612 0.74363 0.35021 -0.37200
O 	O 	0.13912 0.89792 0.35332 -0.41200
O 	O 	0.15696 0.61692 0.35646 -0.40200
Ni	Ni	0.25962 0.92722 0.35284 1.06100
O 	O 	0.13363 0.62202 0.45119 -0.41100
O 	O 	0.26226 0.95283 0.40023 -0.41300
O 	O 	0.41978 0.85821 0.35385 -0.38200
O 	O 	0.24154 0.73457 0.41187 -0.70400
O 	O 	0.06029 0.63802 0.40806 -0.37700
O 	O 	0.41251 0.75642 0.40987 -0.35900
O 	O 	0.32706 0.61157 0.40842 -0.41900
Ni	Ni	0.22531 0.61348 0.42789 1.07800
H 	H 	0.24647 0.77220 0.33603 0.15200
H 	H 	0.23995 0.77525 0.42939 0.16900
C 	C 	0.32143 0.95490 0.41845 0.28700
O 	O 	0.15248 0.51937 0.39653 -0.39600
C 	C 	0.08681 0.82546 0.33954 0.26300
C 	C 	0.42512 0.93586 0.34083 0.27300
C 	C 	0.13747 0.53432 0.36714 0.29700
C 	C 	0.39362 0.67187 0.41864 0.29800
C 	C 	0.06579 0.61209 0.43748 0.27000
O 	O 	0.36849 0.91326 0.40977 -0.36100
O 	O 	0.38004 0.98122 0.34990 -0.40700
Ni	Ni	0.31647 0.82136 0.05998 1.09900
O 	O 	0.24260 0.71609 0.08558 -0.70000
Ni	Ni	0.25102 0.60736 0.06349 1.10000
O 	O 	0.28993 0.91610 0.08704 -0.36700
O 	O 	0.16273 0.84105 0.07279 -0.41200
O 	O 	0.40598 0.82422 0.09093 -0.38400
Ni	Ni	0.13343 0.70420 0.08242 1.06300
O 	O 	0.40391 0.82355 0.99433 -0.41600
O 	O 	0.12764 0.68880 0.03488 -0.41600
O 	O 	0.18602 0.51261 0.09359 -0.37700
O 	O 	0.30989 0.71071 0.03432 -0.69500
O 	O 	0.39448 0.92206 0.03334 -0.36800
O 	O 	0.29321 0.51385 0.04439 -0.36800
O 	O 	0.41375 0.61979 0.05012 -0.42500
Ni	Ni	0.41415 0.72356 0.02094 1.07200
H 	H 	0.26013 0.71867 0.10784 0.14900
H 	H 	0.27702 0.70809 0.01535 0.16100
C 	C 	0.11629 0.60983 0.02192 0.28700
O 	O 	0.48591 0.81946 0.05122 -0.40000
C 	C 	0.21530 0.90390 0.08992 0.26800
C 	C 	0.11917 0.51586 0.10356 0.26000
C 	C 	0.47307 0.82144 0.08128 0.28800
C 	C 	0.36913 0.53742 0.04151 0.26700
C 	C 	0.42099 0.90669 0.00564 0.28100
O 	O 	0.15729 0.56115 0.03164 -0.36700
O 	O 	0.08471 0.56600 0.08883 -0.40900
Ni	Ni	0.88847 0.02277 0.18870 1.09700
O 	O 	0.80196 0.03333 0.21581 -0.70800
Ni	Ni	0.86142 0.09235 0.25471 1.10000
O 	O 	0.80739 0.96390 0.15303 -0.36400
O 	O 	0.73757 0.85137 0.18551 -0.41600
O 	O 	0.90822 0.14821 0.16818 -0.36500
Ni	Ni	0.73164 0.91255 0.22827 1.06200
O 	O 	0.06681 0.13947 0.17805 -0.41800
O 	O 	0.81745 0.87106 0.24724 -0.41200
O 	O 	0.76758 0.10638 0.27659 -0.36500
O 	O 	0.94757 0.06397 0.23034 -0.68800
O 	O 	0.97367 0.00388 0.16300 -0.37400
O 	O 	0.93174 0.17956 0.28875 -0.35500
O 	O 	0.05337 0.20567 0.27032 -0.41200
Ni	Ni	0.04434 0.16598 0.22337 1.06200
H 	H 	0.77361 0.06982 0.20614 0.16000
H 	H 	0.96167 0.01386 0.23900 0.15100
C 	C 	0.85524 0.90976 0.27320 0.27800
O 	O 	0.97529 0.23493 0.21014 -0.43100
C 	C 	0.74257 0.89557 0.15916 0.26800
C 	C 	0.70297 0.03310 0.27715 0.26500
C 	C 	0.95027 0.22847 0.18087 0.28000
C 	C 	0.00377 0.23554 0.28423 0.27200
C 	C 	0.04751 0.05674 0.16596 0.25700
O 	O 	0.84958 0.98529 0.28367 -0.37000
O 	O 	0.70629 0.95222 0.27094 -0.40800
C 	C 	0.01270 0.44705 0.14855 -0.04400
H 	H 	0.99880 0.50849 0.15404 0.03500
C 	C 	0.04853 0.39736 0.17200 -0.02300
H 	H 	0.06338 0.41702 0.19711 0.02200
C 	C 	0.95339 0.35415 0.13651 0.01200
H 	H 	0.88983 0.33773 0.13235 0.03200
C 	C 	0.98994 0.30556 0.15967 -0.05700
C 	C 	0.07080 0.44096 0.12383 -0.05000
C 	C 	0.01222 0.34952 0.11140 -0.02900
H 	H 	0.99789 0.33060 0.08622 0.05800
C 	C 	0.04804 0.29993 0.13484 -0.01300
H 	H 	0.06236 0.23916 0.12878 0.04800
C 	C 	0.10692 0.39214 0.14703 -0.01900
H 	H 	0.17039 0.40805 0.15133 0.03000
C 	C 	0.54308 0.83027 0.13958 -0.01800
H 	H 	0.49100 0.80622 0.15460 0.02400
C 	C 	0.61059 0.92400 0.14280 -0.02200
H 	H 	0.61493 0.97754 0.16065 0.01200
C 	C 	0.60394 0.78363 0.13583 -0.01800
H 	H 	0.60260 0.72077 0.14779 0.03100
C 	C 	0.67053 0.87703 0.13871 -0.07200
C 	C 	0.54173 0.84221 0.10376 -0.06200
C 	C 	0.60183 0.79531 0.09979 -0.01400
H 	H 	0.59779 0.74167 0.08202 0.03200
C 	C 	0.66898 0.88881 0.10291 -0.00700
H 	H 	0.72097 0.91278 0.08782 0.04000
C 	C 	0.60830 0.93557 0.10666 -0.00800
H 	H 	0.60955 0.99830 0.09463 0.03900
C 	C 	0.07542 0.97507 0.11694 -0.03100
H 	H 	0.01620 0.95729 0.10602 0.04300
C 	C 	0.11079 0.90587 0.12851 -0.00300
H 	H 	0.08025 0.83091 0.12762 -0.01000
C 	C 	0.15218 0.02949 0.10074 0.01200
H 	H 	0.15667 0.05737 0.07667 0.03700
C 	C 	0.18764 0.95987 0.11213 -0.08700
C 	C 	0.10563 0.03126 0.14738 -0.04500
C 	C 	0.18258 0.08670 0.13140 -0.02600
H 	H 	0.21172 0.16176 0.13275 0.03700
C 	C 	0.21906 0.01609 0.14255 0.00400
H 	H 	0.27863 0.03291 0.15297 0.02600
C 	C 	0.14138 0.96211 0.15891 -0.04800
H 	H 	0.13642 0.93398 0.18295 0.01500
C 	C 	0.60320 0.09968 0.31237 -0.01900
H 	H 	0.63436 0.17417 0.31513 0.04100
C 	C 	0.57877 0.03083 0.33973 0.00900
H 	H 	0.58922 0.04833 0.36517 0.04700
C 	C 	0.52061 0.05221 0.29659 -0.00500
H 	H 	0.48317 0.08734 0.28639 0.02100
C 	C 	0.49824 0.98377 0.32359 -0.07400
C 	C 	0.63325 0.03371 0.29444 -0.04800
C 	C 	0.55232 0.98759 0.27844 -0.04000
H 	H 	0.54133 0.96939 0.25305 0.01300
C 	C 	0.52949 0.91967 0.30540 -0.00500
H 	H 	0.49997 0.84500 0.30210 0.02900
C 	C 	0.60957 0.96609 0.32165 -0.01800
H 	H 	0.64572 0.92990 0.33230 0.05300
C 	C 	0.99320 0.37296 0.32037 0.01300
H 	H 	0.93067 0.36224 0.31588 0.03700
C 	C 	0.06322 0.46030 0.31280 -0.02700
H 	H 	0.05882 0.52261 0.30231 0.03600
C 	C 	0.03109 0.36903 0.35297 -0.02100
H 	H 	0.00028 0.35619 0.37565 0.04200
C 	C 	0.10071 0.45525 0.34509 -0.06000
C 	C 	0.03710 0.31542 0.30623 -0.07400
C 	C 	0.07450 0.31045 0.33852 -0.00300
H 	H 	0.07879 0.24803 0.34897 0.03500
C 	C 	0.14444 0.39766 0.33092 -0.01700
H 	H 	0.20697 0.40833 0.33541 0.03100
C 	C 	0.10664 0.40174 0.29838 -0.01300
H 	H 	0.13744 0.41476 0.27569 0.01900
C 	C 	0.95347 0.76779 0.30250 -0.00100
H 	H 	0.94166 0.69365 0.30111 0.03800
C 	C 	0.96778 0.83262 0.27402 -0.01100
H 	H 	0.96670 0.81210 0.24892 0.02400
C 	C 	0.89848 0.81269 0.31677 -0.01200
H 	H 	0.84040 0.77568 0.32680 0.04000
C 	C 	0.91375 0.87681 0.28863 -0.07000
C 	C 	0.02313 0.83871 0.32020 -0.07800
C 	C 	0.96894 0.88286 0.33461 0.00600
H 	H 	0.96985 0.90387 0.35964 0.04100
C 	C 	0.98392 0.94709 0.30640 -0.01200
H 	H 	0.99701 0.02151 0.30805 0.04300
C 	C 	0.03837 0.90271 0.29204 -0.04100
H 	H 	0.09642 0.94002 0.28203 0.00500
C 	C 	0.41754 0.15059 0.49238 -0.05800
C 	C 	0.39353 0.17710 0.46383 -0.01400
C 	C 	0.35693 0.11177 0.44044 -0.00000
C 	C 	0.34501 0.01958 0.44528 -0.07200
C 	C 	0.36517 0.99266 0.47477 0.05700
C 	C 	0.40006 0.05804 0.49818 -0.02100
H 	H 	0.34139 0.13333 0.41798 0.03400
H 	H 	0.41568 0.03698 0.52073 0.04200
H 	H 	0.40584 0.24837 0.45927 0.04100
I 	I 	0.34464 0.85450 0.48508 -0.16400
C 	C 	0.99485 0.57118 0.45558 -0.04200
C 	C 	0.99507 0.59460 0.48749 -0.01100
C 	C 	0.93062 0.55010 0.50577 0.00200
C 	C 	0.86461 0.48290 0.49225 -0.09200
C 	C 	0.86637 0.45496 0.46077 0.07600
C 	C 	0.93101 0.50008 0.44244 -0.04200
H 	H 	0.93004 0.57186 0.52998 0.04200
H 	H 	0.93227 0.47854 0.41825 0.06300
H 	H 	0.04500 0.64806 0.49804 0.03200
I 	I 	0.77311 0.34320 0.44072 -0.11900
C 	C 	0.49156 0.60864 0.50314 -0.06100
C 	C 	0.41441 0.60606 0.50209 -0.02200
C 	C 	0.38314 0.62761 0.47451 0.01600
C 	C 	0.42905 0.65366 0.44778 -0.11200
C 	C 	0.50850 0.66361 0.44949 0.08000
C 	C 	0.53949 0.64120 0.47722 -0.04400
H 	H 	0.32264 0.62263 0.47373 -0.02800
H 	H 	0.59939 0.64395 0.47795 0.01100
H 	H 	0.37737 0.58259 0.52216 0.04300
I 	I 	0.58153 0.70634 0.41008 -0.12100
C 	C 	0.72946 0.02902 0.61493 0.00800
H 	H 	0.71763 0.96347 0.60219 0.02900
C 	C 	0.77691 0.12441 0.60243 -0.00900
H 	H 	0.80440 0.13897 0.57908 0.04500
C 	C 	0.66651 0.06480 0.62693 -0.02200
H 	H 	0.60241 0.02969 0.62366 0.02100
C 	C 	0.71465 0.15977 0.61454 -0.06100
C 	C 	0.77282 0.05575 0.64678 -0.07500
C 	C 	0.71062 0.09107 0.65909 -0.01900
H 	H 	0.68337 0.07637 0.68248 0.01400
C 	C 	0.75792 0.18683 0.64644 -0.02200
H 	H 	0.76982 0.25245 0.65913 0.02900
C 	C 	0.82077 0.15093 0.63447 -0.00900
H 	H 	0.88486 0.18626 0.63772 0.03400
C 	C 	0.23105 0.23258 0.59188 -0.00900
H 	H 	0.22510 0.25187 0.56718 0.04200
C 	C 	0.21394 0.27953 0.62150 -0.00800
H 	H 	0.19189 0.33658 0.62147 0.03200
C 	C 	0.18782 0.13803 0.60608 -0.00500
H 	H 	0.14446 0.07900 0.59341 0.04100
C 	C 	0.17184 0.18545 0.63543 -0.07900
C 	C 	0.30727 0.23393 0.60791 -0.06200
C 	C 	0.26519 0.13979 0.62186 -0.01800
H 	H 	0.28716 0.08268 0.62193 0.02400
C 	C 	0.24812 0.18677 0.65142 -0.02300
H 	H 	0.25414 0.16752 0.67613 -0.01000
C 	C 	0.29119 0.28121 0.63726 -0.02300
H 	H 	0.33456 0.34022 0.64994 0.02100
C 	C 	0.78880 0.73421 0.60809 -0.01100
H 	H 	0.76231 0.76584 0.59016 0.03600
C 	C 	0.87710 0.76526 0.61678 -0.00900
H 	H 	0.92408 0.82299 0.60619 0.04400
C 	C 	0.76922 0.72616 0.64341 -0.01800
H 	H 	0.72687 0.75169 0.65475 0.02800
C 	C 	0.85706 0.75635 0.65186 -0.06200
C 	C 	0.78372 0.63457 0.60775 -0.06300
C 	C 	0.76376 0.62595 0.64283 -0.01300
H 	H 	0.71673 0.56844 0.65351 0.02700
C 	C 	0.85195 0.65675 0.65152 -0.01200
H 	H 	0.87833 0.62520 0.66951 0.03300
C 	C 	0.87155 0.66461 0.61608 -0.00900
H 	H 	0.91343 0.63861 0.60460 0.03800
C 	C 	0.04699 0.56820 0.00132 -0.06400
C 	C 	0.05517 0.54541 0.97002 -0.02800
C 	C 	0.99041 0.51851 0.94928 0.02200
C 	C 	0.91680 0.51385 0.95973 -0.09300
C 	C 	0.90794 0.53320 0.99151 0.07400
C 	C 	0.97304 0.56068 0.01208 -0.02500
H 	H 	0.99768 0.50273 0.92496 0.04400
H 	H 	0.96633 0.57715 0.03640 0.04500
H 	H 	0.11201 0.55108 0.96151 0.04000
I 	I 	0.79653 0.51789 0.00942 -0.19100
C 	C 	0.47356 0.98255 0.98761 -0.05600
C 	C 	0.51762 0.96463 0.96348 -0.03100
C 	C 	0.55689 0.03254 0.94267 0.01600
C 	C 	0.55432 0.11990 0.94613 -0.09600
C 	C 	0.52081 0.14130 0.97335 0.08100
C 	C 	0.47767 0.07177 0.99318 -0.03000
H 	H 	0.58568 0.01579 0.92282 0.03400
H 	H 	0.44836 0.08751 0.01305 0.06500
H 	H 	0.51891 0.89699 0.96008 0.03400
I 	I 	0.54755 0.27695 0.98876 -0.14000
C 	C 	0.39983 0.49054 0.01813 -0.06700
C 	C 	0.47775 0.49655 0.02142 -0.02900
C 	C 	0.51931 0.48896 0.99511 0.00300
C 	C 	0.48212 0.46870 0.96545 -0.09800
C 	C 	0.40186 0.45540 0.96238 0.07600
C 	C 	0.36090 0.46482 0.98887 -0.05300
H 	H 	0.58078 0.49912 0.99776 0.02100
H 	H 	0.30061 0.45970 0.98611 0.05600
H 	H 	0.50802 0.51475 0.04402 0.04100
I 	I 	0.34327 0.43377 0.91771 -0.11700
C 	C 	0.86556 0.14082 0.79480 -0.01200
H 	H 	0.84601 0.06589 0.79155 0.02800
C 	C 	0.81873 0.20010 0.78416 -0.02700
H 	H 	0.76000 0.17450 0.77253 0.01200
C 	C 	0.88538 0.19189 0.82668 -0.00700
H 	H 	0.88151 0.15944 0.84997 0.04600
C 	C 	0.83902 0.25089 0.81600 -0.06000
C 	C 	0.94005 0.21092 0.78130 -0.07800
C 	C 	0.95989 0.26191 0.81310 0.00800
H 	H 	0.01848 0.28735 0.82487 0.03000
C 	C 	0.91305 0.32164 0.80252 -0.01700
H 	H 	0.93188 0.39641 0.80599 0.04100
C 	C 	0.89391 0.27005 0.77027 -0.01300
H 	H 	0.89819 0.30199 0.74688 0.02800
C 	C 	0.32009 0.16620 0.78288 -0.02400
H 	H 	0.32915 0.18641 0.75789 0.01000
C 	C 	0.35997 0.10816 0.80027 -0.02400
H 	H 	0.40259 0.08142 0.78982 0.01800
C 	C 	0.33724 0.23248 0.81129 -0.01400
H 	H 	0.36059 0.30779 0.80993 0.03300
C 	C 	0.37653 0.17460 0.82857 -0.05900
C 	C 	0.24135 0.10859 0.79716 -0.06000
C 	C 	0.25849 0.17480 0.82559 -0.00500
H 	H 	0.21629 0.20206 0.83613 0.04600
C 	C 	0.29836 0.11675 0.84308 -0.00900
H 	H 	0.29002 0.09711 0.86814 0.04800
C 	C 	0.28026 0.04987 0.81436 0.00000
H 	H 	0.25641 0.97456 0.81557 0.02300
C 	C 	0.74227 0.68191 0.82463 -0.01600
H 	H 	0.67857 0.66653 0.82673 0.02900
C 	C 	0.78451 0.67932 0.79372 -0.02100
H 	H 	0.75625 0.66291 0.77000 0.02200
C 	C 	0.80750 0.77269 0.83424 -0.00800
H 	H 	0.79826 0.83348 0.84406 0.03600
C 	C 	0.84951 0.76957 0.80352 -0.06100
C 	C 	0.78895 0.63041 0.84091 -0.06400
C 	C 	0.85404 0.72041 0.85074 -0.00800
H 	H 	0.88216 0.73661 0.87449 0.04000
C 	C 	0.89654 0.71822 0.81971 -0.01000
H 	H 	0.96025 0.73390 0.81754 0.03900
C 	C 	0.83100 0.62679 0.81024 -0.01400
H 	H 	0.84003 0.56577 0.80053 0.03200
