data_crystal

_cell_length_a 18.22253
_cell_length_b 19.54094
_cell_length_c 26.63281
_cell_angle_alpha 95.43359
_cell_angle_beta  95.43452
_cell_angle_gamma 126.42239

_symmetry_space_group_name_	'P 1'
_symmetry_space_group_name_H-M	'P 1'

loop_
_symmetry_equiv_pos_as_xyz
  x,y,z

loop_
_atom_site_label
_atom_site_type_symbol
_atom_site_fract_x
_atom_site_fract_y
_atom_site_fract_z
_atom_site_charge
C 	C 	0.93765 0.01844 0.98948 0.04700
C 	C 	0.03148 0.07261 0.98478 -0.09100
C 	C 	0.08023 0.03832 0.97957 0.04400
C 	C 	0.03436 0.94955 0.97693 -0.09300
C 	C 	0.94052 0.89500 0.98051 0.04400
C 	C 	0.89229 0.92947 0.98736 -0.09200
H 	H 	0.06659 0.14115 0.98582 0.05200
H 	H 	0.07200 0.92305 0.97264 0.05500
H 	H 	0.81969 0.88724 0.99050 0.05300
C 	C 	0.93128 0.02472 0.47831 0.04700
C 	C 	0.02792 0.07034 0.48538 -0.09200
C 	C 	0.06545 0.02503 0.48512 0.04600
C 	C 	0.00704 0.93513 0.48157 -0.09500
C 	C 	0.91071 0.88956 0.47513 0.04500
C 	C 	0.87279 0.93408 0.47094 -0.09300
H 	H 	0.07345 0.14037 0.49033 0.05100
H 	H 	0.03648 0.90059 0.48326 0.05200
H 	H 	0.79806 0.89854 0.46325 0.05300
Cu	Cu	0.63962 0.23185 0.00752 0.92600
Cu	Cu	0.70795 0.21044 0.90007 0.88000
Cu	Cu	0.70573 0.36128 0.93370 0.89900
Cu	Cu	0.63598 0.39094 0.02632 0.89200
C 	C 	0.65405 0.30698 0.11022 0.28600
O 	O 	0.50293 0.17843 0.00158 -0.36500
C 	C 	0.68383 0.29026 0.82486 0.28000
O 	O 	0.71434 0.36476 0.00637 -0.64200
O 	O 	0.63309 0.23331 0.93270 -0.63400
O 	O 	0.69423 0.16804 0.01442 -0.37000
O 	O 	0.79213 0.23859 0.95979 -0.43500
O 	O 	0.61520 0.34023 0.09004 -0.38300
O 	O 	0.77560 0.48604 0.94107 -0.37200
C 	C 	0.76155 0.53244 0.97228 0.29200
C 	C 	0.46681 0.21123 0.97834 0.29600
O 	O 	0.52181 0.28828 0.96706 -0.38900
O 	O 	0.68785 0.49509 0.99421 -0.39000
O 	O 	0.66389 0.25481 0.08134 -0.35500
C 	C 	0.76421 0.18606 0.99262 0.30300
O 	O 	0.72405 0.36000 0.86113 -0.37800
O 	O 	0.65416 0.21541 0.83723 -0.40900
H 	H 	0.77869 0.40365 0.02625 0.16400
H 	H 	0.56908 0.19961 0.91280 0.17100
Cu	Cu	0.64035 0.24411 0.50166 0.92300
Cu	Cu	0.68905 0.22053 0.38885 0.87800
Cu	Cu	0.64578 0.35675 0.42790 0.90900
Cu	Cu	0.60374 0.38081 0.53193 0.90000
C 	C 	0.65114 0.30386 0.60735 0.28800
O 	O 	0.50147 0.17444 0.50247 -0.35600
C 	C 	0.67895 0.32895 0.32971 0.28600
O 	O 	0.68666 0.37146 0.50061 -0.63400
O 	O 	0.61500 0.23996 0.42685 -0.63100
O 	O 	0.72782 0.21209 0.50364 -0.37400
O 	O 	0.67029 0.13282 0.42254 -0.42400
O 	O 	0.59409 0.32047 0.59012 -0.38000
O 	O 	0.66555 0.46618 0.42969 -0.38000
C 	C 	0.68984 0.52131 0.47208 0.29200
C 	C 	0.45161 0.19700 0.48174 0.28400
O 	O 	0.49329 0.27590 0.47264 -0.40000
O 	O 	0.65063 0.49349 0.51228 -0.39000
O 	O 	0.67904 0.27153 0.57528 -0.36000
C 	C 	0.71930 0.15440 0.46834 0.29400
O 	O 	0.62765 0.34231 0.35372 -0.37400
O 	O 	0.73595 0.31896 0.35565 -0.42700
H 	H 	0.75336 0.41934 0.51353 0.15900
H 	H 	0.54881 0.19421 0.41143 0.16000
C 	C 	0.68367 0.29876 0.76952 -0.06700
C 	C 	0.68242 0.23960 0.73348 -0.00100
C 	C 	0.66102 0.23522 0.68062 0.00100
C 	C 	0.66799 0.30462 0.66328 -0.06700
C 	C 	0.68373 0.37172 0.69970 -0.00100
C 	C 	0.68130 0.36371 0.75176 -0.00100
C 	C 	0.71002 0.18827 0.75033 0.07500
C 	C 	0.70403 0.44944 0.68391 0.07100
C 	C 	0.66966 0.41796 0.78558 0.08500
C 	C 	0.62030 0.15506 0.64528 0.08600
N 	N 	0.66015 0.46122 0.81244 -0.11900
N 	N 	0.58703 0.09070 0.61722 -0.12000
N 	N 	0.72026 0.51147 0.67132 -0.12800
N 	N 	0.73211 0.14728 0.76368 -0.13100
C 	C 	0.66307 0.30938 0.16619 -0.06300
C 	C 	0.74408 0.38062 0.19969 -0.00600
C 	C 	0.74879 0.38794 0.25333 0.00300
C 	C 	0.67218 0.32416 0.27352 -0.07900
C 	C 	0.59126 0.25270 0.23996 -0.00200
C 	C 	0.58700 0.24497 0.18637 -0.00000
C 	C 	0.82225 0.44679 0.17891 0.06900
C 	C 	0.51283 0.18660 0.26063 0.06200
C 	C 	0.50413 0.17099 0.15194 0.08400
C 	C 	0.83202 0.46150 0.28772 0.07500
N 	N 	0.43805 0.11196 0.12448 -0.11500
N 	N 	0.89851 0.52016 0.31512 -0.12200
N 	N 	0.45031 0.13393 0.27716 -0.12900
N 	N 	0.88452 0.49955 0.16227 -0.12700
C 	C 	0.73661 0.66780 0.50628 -0.02100
C 	C 	0.74396 0.61513 0.47065 -0.10200
C 	C 	0.80677 0.65382 0.43630 0.09400
C 	C 	0.85358 0.74205 0.43533 -0.08300
C 	C 	0.84971 0.79487 0.47270 -0.01500
C 	C 	0.79357 0.75780 0.50986 0.03400
C 	C 	0.79415 0.81348 0.55355 -0.17700
H 	H 	0.68860 0.63904 0.53250 0.04600
H 	H 	0.89704 0.77071 0.40700 0.05000
C 	C 	0.82726 0.60317 0.40210 -0.20000
H 	H 	0.76579 0.77791 0.58534 0.06300
H 	H 	0.75072 0.83286 0.53980 0.06300
H 	H 	0.86600 0.87218 0.56990 0.06500
H 	H 	0.76872 0.56034 0.36913 0.08900
H 	H 	0.83964 0.56426 0.42405 0.06800
H 	H 	0.89094 0.64690 0.38637 0.07400
C 	C 	0.83435 0.14051 0.43637 -0.01400
C 	C 	0.78424 0.13263 0.47527 -0.11700
C 	C 	0.79156 0.09820 0.51815 0.10400
C 	C 	0.84637 0.06951 0.52041 -0.08800
C 	C 	0.89067 0.07146 0.47962 -0.01100
C 	C 	0.88562 0.10826 0.43753 0.02900
C 	C 	0.93335 0.11199 0.39339 -0.17000
H 	H 	0.83101 0.16943 0.40428 0.01400
H 	H 	0.85124 0.04198 0.55290 0.05000
C 	C 	0.73907 0.08931 0.56064 -0.21100
H 	H 	0.91588 0.13569 0.36152 0.05800
H 	H 	0.91148 0.04649 0.37766 0.06600
H 	H 	0.00979 0.15669 0.40667 0.06000
H 	H 	0.66395 0.05151 0.54444 0.08600
H 	H 	0.76599 0.15442 0.58106 0.09400
H 	H 	0.74647 0.05497 0.58927 0.07500
C 	C 	0.31919 0.12496 0.52729 -0.02200
C 	C 	0.35111 0.14268 0.48083 -0.10300
C 	C 	0.28852 0.12045 0.43557 0.09200
C 	C 	0.19634 0.08609 0.43818 -0.08200
C 	C 	0.16508 0.07058 0.48490 -0.01600
C 	C 	0.22688 0.09024 0.52987 0.03600
C 	C 	0.19452 0.07373 0.58048 -0.17800
H 	H 	0.36732 0.14166 0.56193 0.04700
H 	H 	0.14832 0.06990 0.40362 0.04800
C 	C 	0.32011 0.13488 0.38467 -0.20100
H 	H 	0.25357 0.10281 0.61298 0.06500
H 	H 	0.14610 0.00293 0.57950 0.06600
H 	H 	0.15848 0.10260 0.58805 0.06500
H 	H 	0.36412 0.11371 0.37987 0.07000
H 	H 	0.36049 0.20463 0.38266 0.07700
H 	H 	0.26015 0.09727 0.35205 0.07100
C 	C 	0.89929 0.77201 0.02295 -0.08700
C 	C 	0.89339 0.80165 0.97797 -0.00800
C 	C 	0.85048 0.74368 0.93028 0.03700
C 	C 	0.81272 0.65634 0.92851 -0.02000
C 	C 	0.81659 0.62625 0.97369 -0.09100
C 	C 	0.86285 0.68505 0.02108 0.08200
C 	C 	0.87153 0.65497 0.06990 -0.19600
H 	H 	0.93356 0.81705 0.05937 0.04900
H 	H 	0.77779 0.61122 0.89217 0.05200
C 	C 	0.84484 0.77470 0.88133 -0.17800
H 	H 	0.92571 0.71043 0.10084 0.06900
H 	H 	0.89150 0.61154 0.06330 0.06400
H 	H 	0.80427 0.61967 0.08334 0.06400
H 	H 	0.91585 0.82352 0.87431 0.06700
H 	H 	0.80862 0.80435 0.88441 0.06600
H 	H 	0.80597 0.72078 0.84756 0.06800
C 	C 	0.86124 0.15213 0.03823 -0.02200
C 	C 	0.79628 0.13249 0.99550 -0.10100
C 	C 	0.77036 0.06818 0.95313 0.08200
C 	C 	0.81677 0.03108 0.95198 -0.07400
C 	C 	0.88522 0.05393 0.99356 -0.00900
C 	C 	0.90450 0.11178 0.03810 0.02700
C 	C 	0.97356 0.13337 0.08467 -0.17000
H 	H 	0.87995 0.20041 0.07105 0.03900
H 	H 	0.80059 0.98529 0.91831 0.04400
C 	C 	0.69689 0.04216 0.90785 -0.18700
H 	H 	0.96488 0.16235 0.11936 0.06200
H 	H 	0.04523 0.18046 0.07800 0.05700
H 	H 	0.96388 0.07407 0.09286 0.06300
H 	H 	0.72768 0.09037 0.88228 0.02600
H 	H 	0.63829 0.03782 0.92079 0.04400
H 	H 	0.66772 0.97759 0.88530 0.06200
C 	C 	0.21121 0.10162 0.93243 -0.08300
C 	C 	0.18072 0.09566 0.97939 -0.00700
C 	C 	0.24559 0.13296 0.02595 0.03000
C 	C 	0.33912 0.17109 0.02481 -0.02600
C 	C 	0.36875 0.17306 0.97793 -0.09900
C 	C 	0.30494 0.13983 0.93131 0.09300
C 	C 	0.33592 0.14307 0.88046 -0.20200
H 	H 	0.16124 0.07341 0.89677 0.04900
H 	H 	0.38898 0.19898 0.06049 0.04800
C 	C 	0.21468 0.12923 0.07687 -0.17500
H 	H 	0.27682 0.11090 0.84760 0.06800
H 	H 	0.36820 0.10961 0.87799 0.06800
H 	H 	0.38727 0.21148 0.87656 0.07600
H 	H 	0.16854 0.06097 0.08220 0.06700
H 	H 	0.17656 0.15715 0.07821 0.06100
H 	H 	0.27459 0.16659 0.10952 0.06700
