data_crystal

_cell_length_a 16.06604
_cell_length_b 14.46077
_cell_length_c 37.02250
_cell_angle_alpha 90.89286
_cell_angle_beta  91.16993
_cell_angle_gamma 111.14904

_symmetry_space_group_name_	'P 1'
_symmetry_space_group_name_H-M	'P 1'

loop_
_symmetry_equiv_pos_as_xyz
  x,y,z

loop_
_atom_site_label
_atom_site_type_symbol
_atom_site_fract_x
_atom_site_fract_y
_atom_site_fract_z
_atom_site_charge
Ni	Ni	0.55171 0.24873 0.88782 1.11000
O 	O 	0.62223 0.38341 0.86696 -0.69500
Ni	Ni	0.73318 0.36195 0.85091 1.10200
O 	O 	0.45378 0.29594 0.90598 -0.33200
O 	O 	0.55369 0.42520 0.93850 -0.34500
O 	O 	0.48068 0.21603 0.83996 -0.37300
Ni	Ni	0.65716 0.48996 0.90360 1.09100
O 	O 	0.55155 0.01288 0.87873 -0.33400
O 	O 	0.71756 0.41712 0.93479 -0.36100
O 	O 	0.79287 0.49744 0.82928 -0.37400
O 	O 	0.66479 0.22908 0.87424 -0.70200
O 	O 	0.48248 0.10957 0.90509 -0.35800
O 	O 	0.82952 0.31653 0.82959 -0.35100
O 	O 	0.72599 0.17644 0.80430 -0.40700
Ni	Ni	0.63422 0.10764 0.84347 1.08800
H 	H 	0.59071 0.39984 0.84620 0.17300
H 	H 	0.69666 0.22152 0.89650 0.22800
C 	C 	0.79786 0.42111 0.92840 0.31400
O 	O 	0.52809 0.10589 0.81086 -0.38900
C 	C 	0.47095 0.36983 0.92948 0.30200
C 	C 	0.78824 0.57693 0.84559 0.28300
C 	C 	0.46212 0.13228 0.82185 0.30300
C 	C 	0.80969 0.22980 0.81317 0.28900
C 	C 	0.51828 0.04066 0.90756 0.26700
O 	O 	0.82099 0.41123 0.89507 -0.33700
O 	O 	0.77364 0.57705 0.88067 -0.37600
Ni	Ni	0.58323 0.28882 0.59545 1.10600
O 	O 	0.69831 0.36080 0.56873 -0.69700
Ni	Ni	0.78524 0.31329 0.59465 1.11100
O 	O 	0.51132 0.34860 0.56276 -0.28100
O 	O 	0.61286 0.50507 0.57132 -0.37100
O 	O 	0.56557 0.18240 0.55638 -0.31400
Ni	Ni	0.74167 0.50489 0.57024 1.10900
O 	O 	0.52999 0.14230 0.66594 -0.40600
O 	O 	0.75172 0.50887 0.62516 -0.40400
O 	O 	0.88789 0.37251 0.56073 -0.31900
O 	O 	0.67574 0.26170 0.62640 -0.70000
O 	O 	0.46695 0.20431 0.61975 -0.33400
O 	O 	0.85248 0.23268 0.61903 -0.35400
O 	O 	0.73032 0.08988 0.61290 -0.39100
Ni	Ni	0.62699 0.12026 0.63686 1.07500
H 	H 	0.69296 0.33699 0.54339 0.27000
H 	H 	0.68523 0.30124 0.64921 0.15800
C 	C 	0.82030 0.49784 0.64166 0.29200
O 	O 	0.53808 0.05406 0.59509 -0.33900
C 	C 	0.54846 0.44004 0.55163 0.28400
C 	C 	0.89661 0.45813 0.54628 0.28400
C 	C 	0.54421 0.08787 0.56213 0.31500
C 	C 	0.81355 0.13692 0.62405 0.28100
C 	C 	0.46282 0.16364 0.65186 0.30100
O 	O 	0.85052 0.42870 0.63093 -0.35700
O 	O 	0.87239 0.52352 0.56421 -0.35700
Ni	Ni	0.01900 0.00783 0.78579 1.08100
O 	O 	0.99509 0.88463 0.75325 -0.67000
Ni	Ni	0.05189 0.94739 0.70785 1.10400
O 	O 	0.95593 0.92220 0.82803 -0.31400
O 	O 	0.83199 0.85162 0.79194 -0.39400
O 	O 	0.13991 0.99824 0.80190 -0.33500
Ni	Ni	0.86877 0.81481 0.74174 1.07200
O 	O 	0.09577 0.25763 0.77214 -0.38200
O 	O 	0.84814 0.93572 0.72136 -0.40600
O 	O 	0.03454 0.81794 0.68020 -0.36500
O 	O 	0.05575 0.06913 0.73783 -0.71100
O 	O 	0.04398 0.13672 0.81472 -0.35500
O 	O 	0.14379 0.02876 0.67147 -0.36500
O 	O 	0.23736 0.11445 0.71781 -0.41600
Ni	Ni	0.16452 0.18619 0.74436 1.07600
H 	H 	0.02366 0.83937 0.76276 0.14900
H 	H 	0.00872 0.09315 0.72922 0.14300
C 	C 	0.87695 0.97042 0.68959 0.32200
O 	O 	0.21673 0.16158 0.79230 -0.36300
C 	C 	0.87860 0.85020 0.82144 0.30100
C 	C 	0.95534 0.74530 0.68149 0.30600
C 	C 	0.21638 0.07402 0.80096 0.27600
C 	C 	0.22343 0.08888 0.68327 0.28400
C 	C 	0.03984 0.21538 0.79817 0.27200
O 	O 	0.94871 0.95980 0.67638 -0.34000
O 	O 	0.88456 0.76534 0.69127 -0.39700
Ni	Ni	0.21596 0.73710 0.37287 1.10800
O 	O 	0.33035 0.78582 0.34420 -0.70400
Ni	Ni	0.41071 0.73379 0.37354 1.10400
O 	O 	0.15128 0.80638 0.34065 -0.35000
O 	O 	0.26473 0.95635 0.34655 -0.37000
O 	O 	0.16034 0.61757 0.33741 -0.36700
Ni	Ni	0.38451 0.93113 0.34688 1.07700
O 	O 	0.11337 0.53010 0.40056 -0.37700
O 	O 	0.38268 0.94059 0.40213 -0.35000
O 	O 	0.51856 0.78680 0.34195 -0.35100
O 	O 	0.29755 0.68797 0.40321 -0.69200
O 	O 	0.10675 0.68419 0.40410 -0.32400
O 	O 	0.47662 0.66384 0.40517 -0.28800
O 	O 	0.36128 0.51727 0.40856 -0.36500
Ni	Ni	0.24310 0.54207 0.40314 1.11100
H 	H 	0.32218 0.76026 0.31891 0.15500
H 	H 	0.30815 0.71839 0.42769 0.26500
C 	C 	0.43375 0.90880 0.42259 0.29200
O 	O 	0.25485 0.53552 0.34881 -0.41000
C 	C 	0.19059 0.89807 0.33011 0.27200
C 	C 	0.54521 0.87928 0.33148 0.29300
C 	C 	0.20094 0.55797 0.32657 0.29100
C 	C 	0.43307 0.58395 0.42318 0.29800
C 	C 	0.08694 0.59519 0.41710 0.30500
O 	O 	0.47226 0.85095 0.40885 -0.27300
O 	O 	0.51547 0.94346 0.34740 -0.34400
Ni	Ni	0.40227 0.67048 0.09241 1.10400
O 	O 	0.28572 0.63317 0.06210 -0.69600
Ni	Ni	0.21294 0.68837 0.09267 1.12100
O 	O 	0.44423 0.56663 0.06819 -0.33200
O 	O 	0.30743 0.45297 0.07594 -0.37100
O 	O 	0.46353 0.77381 0.05387 -0.34400
Ni	Ni	0.21416 0.49573 0.04938 1.09200
O 	O 	0.52994 0.88230 0.11482 -0.37700
O 	O 	0.12131 0.45352 0.08899 -0.38100
O 	O 	0.08942 0.62718 0.06563 -0.31100
O 	O 	0.33483 0.73872 0.11993 -0.69400
O 	O 	0.51719 0.72067 0.12335 -0.36200
O 	O 	0.16564 0.77337 0.12543 -0.33700
O 	O 	0.28629 0.91456 0.11623 -0.32600
Ni	Ni	0.40178 0.88076 0.11768 1.08100
H 	H 	0.29730 0.66869 0.03913 0.21700
H 	H 	0.32989 0.71774 0.14538 0.15500
C 	C 	0.13806 0.48500 0.12268 0.30500
O 	O 	0.39373 0.88475 0.06321 -0.31100
C 	C 	0.38498 0.47782 0.06077 0.31300
C 	C 	0.07586 0.57996 0.03350 0.29000
C 	C 	0.43045 0.83917 0.04141 0.28000
C 	C 	0.21379 0.86665 0.13411 0.26400
C 	C 	0.56165 0.81680 0.12834 0.28700
O 	O 	0.17675 0.57991 0.13064 -0.38600
O 	O 	0.13554 0.54789 0.01945 -0.34000
Ni	Ni	0.88249 0.01657 0.23996 1.08900
O 	O 	0.99099 0.01844 0.21344 -0.72000
Ni	Ni	0.08086 0.14505 0.23345 1.09600
O 	O 	0.80760 0.88725 0.21343 -0.35800
O 	O 	0.83662 0.95935 0.15805 -0.36600
O 	O 	0.92242 0.94249 0.28063 -0.32900
Ni	Ni	0.97658 0.02781 0.16155 1.07600
O 	O 	0.85436 0.05000 0.31959 -0.37700
O 	O 	0.95813 0.16040 0.16514 -0.39200
O 	O 	0.18621 0.12603 0.20932 -0.37100
O 	O 	0.96596 0.15465 0.25398 -0.69600
O 	O 	0.77365 0.01582 0.26679 -0.39800
O 	O 	0.16727 0.25713 0.26557 -0.36300
O 	O 	0.08357 0.28942 0.30958 -0.38700
Ni	Ni	0.96921 0.16259 0.30708 1.08600
H 	H 	0.00838 0.96109 0.21913 0.16800
H 	H 	0.94719 0.20603 0.24282 0.16800
C 	C 	0.02531 0.24397 0.17119 0.29500
O 	O 	0.03883 0.07054 0.30801 -0.41900
C 	C 	0.78574 0.88866 0.17906 0.28300
C 	C 	0.17163 0.08396 0.17674 0.30500
C 	C 	0.00359 0.97756 0.29620 0.27600
C 	C 	0.14095 0.32047 0.28348 0.29600
C 	C 	0.77804 0.03039 0.30183 0.26800
O 	O 	0.08816 0.24960 0.19534 -0.36700
O 	O 	0.11082 0.09592 0.15446 -0.37700
C 	C 	0.10591 0.41428 0.15208 -0.07200
C 	C 	0.03895 0.32641 0.14623 -0.10500
H 	H 	0.14028 0.43204 0.17830 0.07500
H 	H 	0.99885 0.31261 0.12133 0.11600
C 	C 	0.69249 0.83022 0.16689 -0.07500
C 	C 	0.65871 0.85108 0.13584 -0.07400
H 	H 	0.64877 0.77745 0.18516 0.07500
H 	H 	0.70227 0.90419 0.11765 0.10900
C 	C 	0.17089 0.92509 0.15409 -0.03000
C 	C 	0.21801 0.01795 0.16596 -0.13700
H 	H 	0.09884 0.89485 0.15693 0.03500
H 	H 	0.29055 0.04584 0.16650 0.08500
C 	C 	0.62589 0.91684 0.31037 -0.08600
C 	C 	0.69525 0.99693 0.32189 -0.01200
H 	H 	0.63148 0.87454 0.28661 0.08400
H 	H 	0.69281 0.03359 0.34750 0.10000
C 	C 	0.19934 0.42535 0.28480 -0.08600
C 	C 	0.16531 0.49412 0.29427 -0.09300
H 	H 	0.27101 0.44315 0.28719 0.08200
H 	H 	0.09869 0.48555 0.28437 0.06800
C 	C 	0.14047 0.94454 0.30740 -0.04900
C 	C 	0.05049 0.90955 0.30526 -0.09600
H 	H 	0.17735 0.01677 0.29644 0.03700
H 	H 	0.01220 0.83473 0.31350 0.09500
C 	C 	0.57967 0.02509 0.50480 0.10300
C 	C 	0.51590 0.01880 0.53082 -0.01400
C 	C 	0.42401 0.97130 0.52158 -0.01100
C 	C 	0.39817 0.93965 0.48549 0.05400
C 	C 	0.46231 0.95355 0.45897 0.08600
C 	C 	0.55394 0.00250 0.46829 -0.09400
C 	C 	0.62389 0.03560 0.43942 0.77300
H 	H 	0.64992 0.05782 0.51247 0.08600
H 	H 	0.32821 0.90466 0.47792 0.13100
C 	C 	0.35357 0.95773 0.54979 0.79100
F 	F 	0.70079 0.10981 0.45258 -0.39800
F 	F 	0.59202 0.07300 0.41028 -0.43300
F 	F 	0.64608 0.95632 0.42787 -0.38000
F 	F 	0.35163 0.04915 0.56024 -0.43400
F 	F 	0.37314 0.91212 0.57963 -0.40600
F 	F 	0.26929 0.89926 0.53670 -0.39000
C 	C 	0.03669 0.54093 0.51524 0.02900
C 	C 	0.94509 0.48721 0.51285 0.03700
C 	C 	0.89885 0.47272 0.47901 -0.12100
C 	C 	0.94591 0.51482 0.44818 0.10100
C 	C 	0.03766 0.56868 0.45058 -0.03600
C 	C 	0.08340 0.58454 0.48461 -0.08600
C 	C 	0.18235 0.64477 0.48808 0.78400
H 	H 	0.07115 0.55047 0.54129 0.09500
H 	H 	0.91173 0.50394 0.42203 0.08100
C 	C 	0.79942 0.41361 0.47587 0.79400
F 	F 	0.21108 0.66534 0.52383 -0.40100
F 	F 	0.20065 0.73424 0.47121 -0.45800
F 	F 	0.22929 0.59196 0.47236 -0.51000
F 	F 	0.75374 0.46369 0.49420 -0.49300
F 	F 	0.78130 0.32114 0.49046 -0.43300
F 	F 	0.76849 0.39960 0.44027 -0.41000
C 	C 	0.48366 0.46178 0.45355 0.05900
C 	C 	0.47679 0.55568 0.45442 0.01500
C 	C 	0.49384 0.61149 0.48733 -0.08300
C 	C 	0.50910 0.56798 0.51929 0.05500
C 	C 	0.51379 0.47288 0.51870 0.01100
C 	C 	0.49910 0.41792 0.48542 -0.08200
C 	C 	0.49581 0.31144 0.48379 0.78300
H 	H 	0.47246 0.42085 0.42804 0.09500
H 	H 	0.51946 0.60897 0.54477 0.09300
C 	C 	0.49774 0.71796 0.48835 0.77800
F 	F 	0.48153 0.27236 0.44884 -0.41900
F 	F 	0.42681 0.25213 0.50435 -0.41500
F 	F 	0.57572 0.30740 0.49643 -0.42000
F 	F 	0.41532 0.72070 0.47859 -0.43800
F 	F 	0.56094 0.77338 0.46472 -0.40700
F 	F 	0.52097 0.76170 0.52243 -0.42400
C 	C 	0.86363 0.08264 0.64239 -0.07500
C 	C 	0.82497 0.01634 0.66774 -0.11800
H 	H 	0.93466 0.10412 0.63782 0.08500
H 	H 	0.75548 0.00058 0.67407 0.05100
C 	C 	0.38454 0.14878 0.67396 -0.07600
C 	C 	0.30094 0.11034 0.65971 -0.08700
H 	H 	0.39527 0.16253 0.70293 0.06900
H 	H 	0.28999 0.09171 0.63102 0.13200
C 	C 	0.93977 0.65036 0.66217 -0.08900
C 	C 	0.86883 0.56968 0.67022 -0.07600
H 	H 	0.97723 0.64976 0.63810 0.10700
H 	H 	0.83547 0.56862 0.69554 0.04900
C 	C 	0.92881 0.55934 0.95305 0.06000
C 	C 	0.86749 0.46283 0.95684 0.00400
C 	C 	0.86412 0.41432 0.99007 -0.08900
C 	C 	0.92349 0.46410 0.01868 0.05300
C 	C 	0.99035 0.55685 0.01349 0.03800
C 	C 	0.98719 0.60871 0.98174 -0.08200
C 	C 	0.05306 0.71244 0.97653 0.77100
H 	H 	0.93009 0.59676 0.92780 0.09200
H 	H 	0.92309 0.42702 0.04392 0.08700
C 	C 	0.79811 0.30966 0.99498 0.77400
F 	F 	0.01898 0.76307 0.95250 -0.41700
F 	F 	0.13042 0.70644 0.96287 -0.39200
F 	F 	0.07208 0.76565 0.00898 -0.39100
F 	F 	0.79831 0.25019 0.96537 -0.42000
F 	F 	0.71333 0.31171 0.99867 -0.42700
F 	F 	0.81937 0.26713 0.02535 -0.42200
C 	C 	0.52696 0.88323 0.98792 0.04600
C 	C 	0.44484 0.87135 0.00346 0.03500
C 	C 	0.38181 0.90176 0.98413 -0.08500
C 	C 	0.40537 0.94844 0.95101 0.06200
C 	C 	0.49140 0.97169 0.93789 0.04500
C 	C 	0.55283 0.93704 0.95603 -0.08200
C 	C 	0.64502 0.95561 0.94135 0.80300
H 	H 	0.57282 0.85556 0.00187 0.11100
H 	H 	0.35801 0.97224 0.93622 0.10900
C 	C 	0.29299 0.89416 0.99995 0.78300
F 	F 	0.69837 0.92819 0.96551 -0.41200
F 	F 	0.68789 0.05523 0.93471 -0.45700
F 	F 	0.63702 0.90095 0.90963 -0.43700
F 	F 	0.30608 0.97182 0.02435 -0.38300
F 	F 	0.25401 0.80516 0.01699 -0.44300
F 	F 	0.23362 0.89990 0.97324 -0.37800
C 	C 	0.37576 0.48772 0.99449 0.04100
C 	C 	0.38599 0.43513 0.02475 -0.03100
C 	C 	0.38846 0.33893 0.02002 -0.06700
C 	C 	0.39337 0.30385 0.98474 0.04100
C 	C 	0.40313 0.36695 0.95544 0.02000
C 	C 	0.37955 0.45113 0.95958 -0.10500
C 	C 	0.37161 0.51010 0.92718 0.77900
H 	H 	0.36690 0.55812 0.99820 0.04100
H 	H 	0.40228 0.23369 0.98058 0.09900
C 	C 	0.38942 0.27597 0.05234 0.77300
F 	F 	0.31151 0.55677 0.93351 -0.42900
F 	F 	0.34169 0.44857 0.89692 -0.43900
F 	F 	0.45412 0.58113 0.92051 -0.45000
F 	F 	0.31106 0.25531 0.07082 -0.43200
F 	F 	0.46107 0.32663 0.07526 -0.42700
F 	F 	0.39691 0.18687 0.04211 -0.40700
C 	C 	0.88206 0.19490 0.80252 -0.09000
C 	C 	0.96887 0.25316 0.80724 -0.06200
H 	H 	0.86436 0.11994 0.79145 0.04900
H 	H 	0.98746 0.33011 0.81609 0.10300
C 	C 	0.37528 0.09323 0.80156 -0.08400
C 	C 	0.29738 0.06754 0.81901 -0.06900
H 	H 	0.37507 0.09737 0.77228 0.07100
H 	H 	0.29658 0.05515 0.84790 0.09400
C 	C 	0.81476 0.67011 0.82579 -0.07000
C 	C 	0.85336 0.75912 0.84256 -0.09300
H 	H 	0.80540 0.66566 0.79655 0.02000
H 	H 	0.87041 0.76426 0.87126 0.12800
