data_crystal

_cell_length_a 12.99097
_cell_length_b 12.18334
_cell_length_c 18.69655
_cell_angle_alpha 89.98634
_cell_angle_beta  89.99431
_cell_angle_gamma 100.34676

_symmetry_space_group_name_	'P 1'
_symmetry_space_group_name_H-M	'P 1'

loop_
_symmetry_equiv_pos_as_xyz
  x,y,z

loop_
_atom_site_label
_atom_site_type_symbol
_atom_site_fract_x
_atom_site_fract_y
_atom_site_fract_z
_atom_site_charge
Ni	Ni	0.40260 0.62128 0.81924 1.10200
O 	O 	0.35734 0.75740 0.77259 -0.69700
Ni	Ni	0.29734 0.69037 0.67921 1.09900
O 	O 	0.49783 0.70689 0.89631 -0.35800
O 	O 	0.57709 0.84142 0.82004 -0.41300
O 	O 	0.28673 0.61327 0.89553 -0.37100
Ni	Ni	0.46500 0.88943 0.75392 1.07100
O 	O 	0.26257 0.39057 0.85544 -0.39800
O 	O 	0.54447 0.84696 0.66536 -0.38600
O 	O 	0.27655 0.82950 0.62160 -0.38100
O 	O 	0.32838 0.55307 0.73226 -0.70300
O 	O 	0.43600 0.47712 0.85922 -0.38200
O 	O 	0.22122 0.59077 0.59963 -0.36900
O 	O 	0.11040 0.48972 0.68026 -0.41200
Ni	Ni	0.20398 0.45069 0.76371 1.06800
H 	H 	0.30022 0.78072 0.80050 0.15000
H 	H 	0.37452 0.51253 0.70443 0.16200
C 	C 	0.50454 0.77894 0.61361 0.31400
O 	O 	0.14898 0.57041 0.81954 -0.41000
C 	C 	0.55328 0.80661 0.88537 0.29900
C 	C 	0.33553 0.92873 0.63139 0.29200
C 	C 	0.18552 0.59916 0.88318 0.30900
C 	C 	0.14241 0.50900 0.61374 0.29900
C 	C 	0.36236 0.38898 0.87097 0.29700
O 	O 	0.43573 0.68910 0.62810 -0.39400
O 	O 	0.36483 0.96321 0.69610 -0.42700
Ni	Ni	0.63317 0.38407 0.32114 1.10100
O 	O 	0.67628 0.24754 0.27358 -0.69900
Ni	Ni	0.73588 0.31527 0.18044 1.10000
O 	O 	0.53811 0.29825 0.39797 -0.36400
O 	O 	0.45528 0.16800 0.32004 -0.40100
O 	O 	0.75097 0.39244 0.39655 -0.35900
Ni	Ni	0.56666 0.11722 0.25429 1.07000
O 	O 	0.77500 0.61269 0.35719 -0.39700
O 	O 	0.48827 0.15959 0.16517 -0.39500
O 	O 	0.75604 0.17636 0.12255 -0.35600
O 	O 	0.70606 0.45247 0.23380 -0.70400
O 	O 	0.60116 0.52827 0.36163 -0.38100
O 	O 	0.81091 0.41546 0.10105 -0.36500
O 	O 	0.92497 0.51423 0.18097 -0.40000
Ni	Ni	0.83178 0.55311 0.26468 1.06700
H 	H 	0.73312 0.22282 0.30103 0.15700
H 	H 	0.65993 0.49365 0.20644 0.16100
C 	C 	0.52947 0.22828 0.11411 0.31500
O 	O 	0.88640 0.43114 0.31858 -0.41300
C 	C 	0.47822 0.20122 0.38589 0.29700
C 	C 	0.69630 0.07723 0.13132 0.28900
C 	C 	0.85142 0.40141 0.38245 0.30000
C 	C 	0.89364 0.49246 0.11456 0.29100
C 	C 	0.67561 0.61562 0.37307 0.29500
O 	O 	0.59744 0.31801 0.12981 -0.39400
O 	O 	0.66476 0.04158 0.19556 -0.41400
C 	C 	0.11325 0.58497 0.94473 -0.11100
C 	C 	0.14531 0.54225 0.00906 -0.04100
C 	C 	0.07400 0.51187 0.06446 0.15100
C 	C 	0.96938 0.52619 0.05668 -0.08100
C 	C 	0.93766 0.57226 0.99341 -0.05500
C 	C 	0.00944 0.60293 0.93774 0.13700
H 	H 	0.22489 0.52819 0.01514 0.08500
O 	O 	0.10501 0.46141 0.12437 -0.27200
H 	H 	0.85753 0.58461 0.98741 0.05700
O 	O 	0.97760 0.64862 0.87632 -0.26400
H 	H 	0.99103 0.73033 0.88471 0.13900
H 	H 	0.13500 0.52343 0.15677 0.14500
C 	C 	0.92741 0.40344 0.44220 -0.07900
C 	C 	0.03551 0.43007 0.42816 -0.08900
C 	C 	0.10694 0.46031 0.48403 0.18000
C 	C 	0.07067 0.46304 0.55494 -0.12600
C 	C 	0.96405 0.42468 0.56957 -0.03600
C 	C 	0.89303 0.39274 0.51392 0.15400
H 	H 	0.06412 0.43098 0.37368 0.06900
O 	O 	0.21211 0.48347 0.46938 -0.28300
H 	H 	0.93553 0.42159 0.62412 0.06600
O 	O 	0.78985 0.35373 0.52984 -0.27300
H 	H 	0.78387 0.27173 0.53455 0.14900
H 	H 	0.22672 0.56315 0.45507 0.15000
C 	C 	0.36900 0.00216 0.56944 -0.09400
C 	C 	0.30359 0.00094 0.50943 -0.02200
C 	C 	0.33901 0.06365 0.44830 0.16100
C 	C 	0.44053 0.12852 0.44719 -0.10500
C 	C 	0.50545 0.12921 0.50710 -0.06100
C 	C 	0.46966 0.06892 0.56839 0.17400
H 	H 	0.22563 0.95104 0.50992 0.04500
O 	O 	0.27293 0.06489 0.39121 -0.27400
H 	H 	0.58401 0.17780 0.50644 0.06800
O 	O 	0.53478 0.07226 0.62641 -0.29500
H 	H 	0.52278 0.13748 0.65490 0.14100
H 	H 	0.28329 0.00096 0.36089 0.14800
C 	C 	0.66241 0.00600 0.06862 -0.04000
C 	C 	0.55914 0.94747 0.06567 -0.10500
C 	C 	0.52245 0.88579 0.00498 0.18800
C 	C 	0.59033 0.87816 0.94722 -0.13700
C 	C 	0.69390 0.93641 0.94987 -0.04100
C 	C 	0.73039 0.99964 0.01053 0.11900
H 	H 	0.50623 0.95197 0.10994 0.05200
O 	O 	0.42008 0.83237 0.00233 -0.27800
H 	H 	0.74664 0.93119 0.90560 0.05400
O 	O 	0.83189 0.05558 0.01258 -0.24400
H 	H 	0.87256 0.00220 0.03388 0.14800
H 	H 	0.38111 0.88714 0.98086 0.12100
C 	C 	0.38666 0.30490 0.92219 -0.10200
C 	C 	0.48544 0.27385 0.91920 -0.06300
C 	C 	0.53014 0.23799 0.98110 0.16000
C 	C 	0.47345 0.22709 0.04565 -0.09700
C 	C 	0.36810 0.23924 0.04529 -0.04700
C 	C 	0.32431 0.27795 0.98379 0.15600
H 	H 	0.53169 0.28789 0.87070 0.05600
O 	O 	0.63073 0.21813 0.97910 -0.28600
H 	H 	0.32261 0.22725 0.09418 0.06900
O 	O 	0.22394 0.29838 0.98610 -0.27400
H 	H 	0.17918 0.22801 0.97011 0.14500
H 	H 	0.67607 0.29141 0.98818 0.16400
C 	C 	0.56408 0.77945 0.54673 -0.10300
C 	C 	0.66722 0.76005 0.54907 -0.05800
C 	C 	0.71126 0.71803 0.48882 0.17100
C 	C 	0.65295 0.69924 0.42490 -0.10300
C 	C 	0.55753 0.73726 0.41964 -0.06600
C 	C 	0.51153 0.77409 0.48069 0.16800
H 	H 	0.70977 0.76786 0.59922 0.06700
O 	O 	0.80883 0.69021 0.49363 -0.28300
H 	H 	0.51426 0.72802 0.36979 0.04900
O 	O 	0.41347 0.80041 0.47629 -0.30500
H 	H 	0.36428 0.72941 0.48476 0.15800
H 	H 	0.79689 0.61229 0.51155 0.16700
