data_crystal

_cell_length_a 26.20030
_cell_length_b 26.27390
_cell_length_c 26.40433
_cell_angle_alpha 95.51962
_cell_angle_beta  95.51702
_cell_angle_gamma 125.87587

_symmetry_space_group_name_	'P 1'
_symmetry_space_group_name_H-M	'P 1'

loop_
_symmetry_equiv_pos_as_xyz
  x,y,z

loop_
_atom_site_label
_atom_site_type_symbol
_atom_site_fract_x
_atom_site_fract_y
_atom_site_fract_z
_atom_site_charge
C 	C 	0.96763 0.02908 0.98641 0.11400
N 	N 	0.02752 0.05695 0.97606 -0.13800
C 	C 	0.05051 0.02228 0.97044 0.11700
N 	N 	0.01355 0.95991 0.97531 -0.13400
C 	C 	0.95323 0.93177 0.98442 0.12200
N 	N 	0.93053 0.96648 0.99038 -0.13800
C 	C 	0.94148 0.00120 0.45231 0.11200
N 	N 	0.00599 0.04366 0.45688 -0.13700
C 	C 	0.04238 0.02267 0.45495 0.12100
N 	N 	0.01431 0.95917 0.44821 -0.13400
C 	C 	0.94993 0.91638 0.44449 0.11900
N 	N 	0.91346 0.93756 0.44727 -0.13800
Cu	Cu	0.63884 0.24667 0.00743 0.92600
Cu	Cu	0.68438 0.23280 0.89824 0.87600
Cu	Cu	0.66113 0.33973 0.93549 0.91000
Cu	Cu	0.61335 0.34961 0.03176 0.89600
C 	C 	0.64336 0.29478 0.11209 0.32200
O 	O 	0.54189 0.19475 0.00070 -0.35000
C 	C 	0.68695 0.31822 0.83768 0.32600
O 	O 	0.67525 0.34263 0.00862 -0.63900
O 	O 	0.63113 0.24937 0.93205 -0.63200
O 	O 	0.69812 0.22151 0.01552 -0.35400
O 	O 	0.66771 0.16679 0.93287 -0.42600
O 	O 	0.60510 0.30833 0.09294 -0.38500
O 	O 	0.69575 0.42871 0.94188 -0.37100
C 	C 	0.68976 0.46024 0.97992 0.29300
C 	C 	0.50977 0.21272 0.97708 0.28600
O 	O 	0.54019 0.27197 0.96983 -0.39000
O 	O 	0.64260 0.42994 0.00591 -0.38800
O 	O 	0.65577 0.26145 0.08207 -0.32500
C 	C 	0.69723 0.18140 0.98071 0.29600
O 	O 	0.65487 0.33385 0.86134 -0.34600
O 	O 	0.72236 0.30619 0.86471 -0.43500
H 	H 	0.71999 0.37621 0.02678 0.15900
H 	H 	0.58639 0.21887 0.91294 0.16200
Cu	Cu	0.71888 0.32416 0.43450 0.92300
Cu	Cu	0.76344 0.30920 0.54917 0.88600
Cu	Cu	0.64546 0.31948 0.51942 0.91000
Cu	Cu	0.60160 0.33198 0.41338 0.90100
C 	C 	0.65955 0.30905 0.33108 0.33100
O 	O 	0.76668 0.41707 0.42655 -0.36800
C 	C 	0.69139 0.31836 0.61989 0.33600
O 	O 	0.62537 0.28681 0.44676 -0.63800
O 	O 	0.73389 0.35031 0.51082 -0.63100
O 	O 	0.74488 0.26563 0.42971 -0.37100
O 	O 	0.81847 0.31513 0.50492 -0.41900
O 	O 	0.60953 0.30453 0.34354 -0.36600
O 	O 	0.55796 0.28262 0.52571 -0.37900
C 	C 	0.51786 0.28329 0.49205 0.29800
C 	C 	0.74390 0.44944 0.43678 0.30200
O 	O 	0.68971 0.42209 0.45375 -0.38800
O 	O 	0.53831 0.32016 0.45692 -0.39100
O 	O 	0.68978 0.29329 0.36096 -0.36600
C 	C 	0.79395 0.27564 0.46024 0.29600
O 	O 	0.66927 0.34379 0.59388 -0.38500
O 	O 	0.70145 0.28020 0.59473 -0.40900
H 	H 	0.59327 0.23972 0.43755 0.16200
H 	H 	0.76447 0.39733 0.52205 0.16300
C 	C 	0.74230 0.33261 0.76243 -0.09700
C 	C 	0.68935 0.32147 0.78223 -0.13600
C 	C 	0.63770 0.31090 0.74844 0.33200
C 	C 	0.63915 0.31124 0.69565 -0.08800
C 	C 	0.69153 0.32116 0.67587 -0.13900
C 	C 	0.74328 0.33218 0.70953 0.33200
F 	F 	0.79483 0.34310 0.69107 -0.47600
H 	H 	0.78273 0.34154 0.78801 0.08600
H 	H 	0.59879 0.30224 0.66989 0.09400
F 	F 	0.58524 0.29823 0.76636 -0.44900
C 	C 	0.66852 0.35608 0.20023 -0.09600
C 	C 	0.65975 0.30416 0.16903 -0.12500
C 	C 	0.65948 0.25812 0.19259 0.33500
C 	C 	0.66406 0.26229 0.24635 -0.08800
C 	C 	0.66785 0.31166 0.27682 -0.13100
C 	C 	0.67145 0.35927 0.25362 0.33100
F 	F 	0.67478 0.40709 0.28253 -0.46600
H 	H 	0.67029 0.39261 0.18272 0.07800
H 	H 	0.66136 0.22536 0.26391 0.09600
F 	F 	0.65145 0.20766 0.16335 -0.43700
C 	C 	0.78514 0.51970 0.44035 -0.11100
C 	C 	0.81118 0.54814 0.39746 0.13700
C 	C 	0.84026 0.61360 0.39963 -0.09900
C 	C 	0.84115 0.65033 0.44243 0.00600
C 	C 	0.81485 0.62188 0.48502 0.05800
C 	C 	0.79006 0.55780 0.48451 -0.02200
N 	N 	0.80747 0.51305 0.35387 -0.20100
H 	H 	0.86103 0.63572 0.36731 0.06000
C 	C 	0.87023 0.71875 0.44225 -0.00900
N 	N 	0.81206 0.65531 0.52596 -0.19100
H 	H 	0.77109 0.53642 0.51760 0.04100
C 	C 	0.83801 0.73432 0.40927 -0.08400
C 	C 	0.86461 0.79853 0.40742 0.09900
C 	C 	0.92120 0.84795 0.44314 -0.04700
C 	C 	0.95280 0.83213 0.47666 -0.05600
C 	C 	0.92954 0.76826 0.47482 0.07200
H 	H 	0.79323 0.69635 0.38361 0.05700
N 	N 	0.83750 0.81216 0.36979 -0.19800
H 	H 	0.99655 0.86984 0.50354 0.05000
N 	N 	0.96453 0.75491 0.50405 -0.19900
H 	H 	0.79361 0.77558 0.34590 0.08700
H 	H 	0.86169 0.85801 0.36126 0.09300
H 	H 	0.00714 0.79163 0.52930 0.09100
H 	H 	0.95117 0.70851 0.50074 0.08900
H 	H 	0.79442 0.63450 0.55792 0.08400
H 	H 	0.82518 0.70123 0.52582 0.08900
H 	H 	0.78483 0.46412 0.34995 0.12400
H 	H 	0.82693 0.53477 0.32271 0.09900
C 	C 	0.90207 0.02430 0.45089 -0.04700
C 	C 	0.89676 0.05134 0.49722 0.09700
C 	C 	0.87441 0.08849 0.49487 -0.08400
C 	C 	0.85637 0.09813 0.44709 -0.01000
C 	C 	0.85734 0.06727 0.40053 0.07200
C 	C 	0.87990 0.03028 0.40298 -0.05600
N 	N 	0.91323 0.04200 0.54397 -0.19900
H 	H 	0.87192 0.11073 0.53039 0.05300
C 	C 	0.83906 0.14271 0.44647 0.00500
N 	N 	0.83740 0.07344 0.35355 -0.19500
H 	H 	0.88302 0.00858 0.36750 0.04500
C 	C 	0.88785 0.20819 0.45026 -0.10000
C 	C 	0.87369 0.25225 0.45170 0.13000
C 	C 	0.80964 0.23035 0.45077 -0.11700
C 	C 	0.76060 0.16460 0.44528 -0.02300
C 	C 	0.77465 0.12049 0.44333 0.05600
H 	H 	0.93700 0.22490 0.45185 0.05800
N 	N 	0.92140 0.31501 0.45277 -0.20400
H 	H 	0.71149 0.14783 0.44411 0.03500
N 	N 	0.72620 0.05711 0.43866 -0.19200
H 	H 	0.96885 0.33107 0.45507 0.08600
H 	H 	0.91168 0.34792 0.44937 0.09600
H 	H 	0.67885 0.04124 0.43659 0.08200
H 	H 	0.73481 0.02296 0.43675 0.08700
H 	H 	0.83896 0.05104 0.31944 0.08400
H 	H 	0.81956 0.09981 0.35029 0.09200
H 	H 	0.92652 0.01172 0.54675 0.08900
H 	H 	0.91100 0.06366 0.57816 0.08300
C 	C 	0.11252 0.06877 0.46374 -0.04800
C 	C 	0.14578 0.08193 0.42196 0.09900
C 	C 	0.21301 0.11981 0.43228 -0.08300
C 	C 	0.24729 0.14483 0.48341 -0.01000
C 	C 	0.21409 0.13389 0.52513 0.07200
C 	C 	0.14685 0.09606 0.51476 -0.05400
N 	N 	0.11359 0.05868 0.37200 -0.19900
H 	H 	0.23875 0.12924 0.40044 0.05400
C 	C 	0.31775 0.18083 0.49266 0.00600
N 	N 	0.24628 0.15866 0.57509 -0.19500
H 	H 	0.12108 0.08638 0.54660 0.04800
C 	C 	0.35656 0.24758 0.49812 -0.10100
C 	C 	0.42332 0.28284 0.50315 0.13400
C 	C 	0.45097 0.25011 0.49894 -0.11200
C 	C 	0.41263 0.18374 0.49626 -0.02200
C 	C 	0.34617 0.14869 0.49355 0.05700
H 	H 	0.33478 0.27219 0.49903 0.06000
N 	N 	0.46066 0.34786 0.51372 -0.20300
H 	H 	0.43426 0.15901 0.49467 0.03700
N 	N 	0.31001 0.08439 0.49157 -0.19100
H 	H 	0.43973 0.37164 0.51436 0.08800
H 	H 	0.51048 0.37523 0.52434 0.10000
H 	H 	0.33130 0.06095 0.49119 0.08300
H 	H 	0.26086 0.05724 0.49148 0.08800
H 	H 	0.22125 0.14999 0.60559 0.08500
H 	H 	0.29625 0.18672 0.58424 0.09200
H 	H 	0.06380 0.03279 0.36294 0.09200
H 	H 	0.13854 0.06760 0.34142 0.08500
C 	C 	0.72729 0.53014 0.98579 -0.10700
C 	C 	0.79521 0.56985 0.99712 0.12300
C 	C 	0.82951 0.63565 0.99788 -0.10100
C 	C 	0.79730 0.66270 0.98955 0.00600
C 	C 	0.72942 0.62346 0.98045 0.05800
C 	C 	0.69506 0.55737 0.97838 -0.02000
N 	N 	0.82766 0.54540 0.00842 -0.20000
H 	H 	0.88153 0.66609 0.00544 0.06100
C 	C 	0.83524 0.73180 0.98858 -0.01300
N 	N 	0.69707 0.64886 0.97376 -0.19100
H 	H 	0.64304 0.52692 0.97029 0.04700
C 	C 	0.84822 0.75190 0.94113 -0.08300
C 	C 	0.88514 0.81711 0.93868 0.10000
C 	C 	0.91132 0.86299 0.98499 -0.05100
C 	C 	0.89785 0.84291 0.03239 -0.05000
C 	C 	0.85972 0.77760 0.03470 0.07500
H 	H 	0.82891 0.71656 0.90589 0.05600
N 	N 	0.89426 0.83522 0.89180 -0.19900
H 	H 	0.91737 0.87826 0.06766 0.04800
N 	N 	0.84665 0.75925 0.08111 -0.19500
H 	H 	0.87640 0.80108 0.85803 0.08500
H 	H 	0.91717 0.88283 0.88811 0.08900
H 	H 	0.86541 0.79348 0.11497 0.08400
H 	H 	0.81735 0.71107 0.08408 0.08900
H 	H 	0.64693 0.61936 0.96649 0.08500
H 	H 	0.72110 0.69800 0.97635 0.08900
H 	H 	0.80381 0.49781 0.01256 0.07700
H 	H 	0.87778 0.57478 0.01512 0.08400
C 	C 	0.74182 0.16538 0.99214 -0.10800
C 	C 	0.80899 0.21200 0.99687 0.11400
C 	C 	0.84933 0.19331 0.00173 -0.08600
C 	C 	0.82374 0.12888 0.99942 -0.00200
C 	C 	0.75702 0.08269 0.99665 0.06200
C 	C 	0.71671 0.10155 0.99310 -0.02200
N 	N 	0.83481 0.27418 0.99511 -0.20100
H 	H 	0.90061 0.22863 0.00474 0.05500
C 	C 	0.86656 0.10975 0.99579 -0.01100
N 	N 	0.73135 0.02028 0.99690 -0.19800
H 	H 	0.66541 0.06610 0.98985 0.04500
C 	C 	0.89759 0.10849 0.04142 -0.08200
C 	C 	0.93532 0.08677 0.03931 0.10100
C 	C 	0.94144 0.06545 0.99056 -0.05200
C 	C 	0.91375 0.07051 0.94508 -0.05400
C 	C 	0.87608 0.09229 0.94710 0.07000
H 	H 	0.89163 0.12361 0.07866 0.05500
N 	N 	0.96567 0.08672 0.08408 -0.19900
H 	H 	0.91938 0.05499 0.90782 0.04500
N 	N 	0.84861 0.09549 0.90227 -0.19400
H 	H 	0.95949 0.10085 0.11993 0.08400
H 	H 	0.99706 0.07448 0.08382 0.08900
H 	H 	0.85547 0.08190 0.86655 0.08100
H 	H 	0.82064 0.11181 0.90229 0.08500
H 	H 	0.68190 0.98635 0.99391 0.09300
H 	H 	0.76008 0.00491 0.00082 0.09200
H 	H 	0.80622 0.28931 0.98832 0.06500
H 	H 	0.88445 0.30818 0.99944 0.08000
C 	C 	0.11613 0.05262 0.96059 -0.04400
C 	C 	0.12820 0.02252 0.92117 0.09200
C 	C 	0.19126 0.04353 0.92087 -0.08200
C 	C 	0.24273 0.09702 0.95663 -0.01100
C 	C 	0.23126 0.13178 0.99204 0.07300
C 	C 	0.16782 0.10825 0.99450 -0.06000
N 	N 	0.07983 0.97500 0.88273 -0.19300
H 	H 	0.20037 0.01854 0.89240 0.05200
C 	C 	0.30826 0.11558 0.95718 0.00700
N 	N 	0.28072 0.18751 0.02359 -0.19300
H 	H 	0.15868 0.13250 0.02367 0.05400
C 	C 	0.34051 0.14507 0.91761 -0.10200
C 	C 	0.40504 0.16970 0.92006 0.12900
C 	C 	0.43897 0.16909 0.96478 -0.11500
C 	C 	0.40524 0.13450 0.00200 -0.01500
C 	C 	0.33964 0.10642 0.99800 0.05200
H 	H 	0.31543 0.14908 0.88495 0.05900
N 	N 	0.43365 0.19229 0.87898 -0.20200
H 	H 	0.43056 0.13161 0.03524 0.05300
N 	N 	0.30732 0.07132 0.03351 -0.18900
H 	H 	0.40935 0.19545 0.84711 0.09500
H 	H 	0.47865 0.20335 0.87700 0.09500
H 	H 	0.33138 0.06672 0.06454 0.08800
H 	H 	0.25779 0.04650 0.02973 0.09100
H 	H 	0.27174 0.21164 0.05079 0.08600
H 	H 	0.32830 0.20858 0.02030 0.09100
H 	H 	0.03435 0.96443 0.87776 0.09400
H 	H 	0.08848 0.95071 0.85536 0.08800
