data_crystal

_cell_length_a 15.09113
_cell_length_b 15.44828
_cell_length_c 49.80747
_cell_angle_alpha 90.21124
_cell_angle_beta  90.21480
_cell_angle_gamma 119.37626

_symmetry_space_group_name_	'P 1'
_symmetry_space_group_name_H-M	'P 1'

loop_
_symmetry_equiv_pos_as_xyz
  x,y,z

loop_
_atom_site_label
_atom_site_type_symbol
_atom_site_fract_x
_atom_site_fract_y
_atom_site_fract_z
_atom_site_charge
C 	C 	0.20217 0.12508 0.72014 0.32200
C 	C 	0.25826 0.13647 0.79321 0.30400
Ni	Ni	0.08211 0.13358 0.76338 1.13300
Ni	Ni	0.13820 0.95919 0.76014 1.11400
O 	O 	0.11689 0.12363 0.72546 -0.35900
O 	O 	0.23973 0.04525 0.78761 -0.35600
O 	O 	0.22828 0.18565 0.77681 -0.36800
O 	O 	0.22470 0.06168 0.73198 -0.34700
C 	C 	0.25756 0.48979 0.45269 0.28400
C 	C 	0.25883 0.53613 0.37724 0.32600
Ni	Ni	0.20438 0.62701 0.42390 1.11900
O 	O 	0.19060 0.52140 0.45107 -0.36700
O 	O 	0.31998 0.50116 0.43235 -0.36500
O 	O 	0.21192 0.71767 0.39277 -0.36200
O 	O 	0.18955 0.52069 0.39541 -0.35500
O 	O 	0.18807 0.71635 0.45354 -0.34500
C 	C 	0.09126 0.64662 0.09793 0.31800
C 	C 	0.13664 0.64428 0.17008 0.32900
Ni	Ni	0.17273 0.53649 0.12372 1.12600
O 	O 	0.13222 0.59096 0.09306 -0.39200
O 	O 	0.21089 0.45426 0.09829 -0.36900
O 	O 	0.22658 0.72249 0.16688 -0.37500
O 	O 	0.09601 0.57339 0.15136 -0.37000
O 	O 	0.23553 0.49442 0.15228 -0.36300
O 	O 	0.13451 0.72096 0.11553 -0.36600
C 	C 	0.03416 0.86043 0.23916 0.33800
C 	C 	0.14840 0.23981 0.29624 0.32200
C 	C 	0.07826 0.93702 0.31234 0.31000
C 	C 	0.15010 0.20320 0.22171 0.30700
Ni	Ni	0.14473 0.07010 0.26553 1.12600
O 	O 	0.11595 0.92785 0.25273 -0.34900
O 	O 	0.94104 0.84335 0.24470 -0.37800
O 	O 	0.19996 0.21588 0.27939 -0.35900
O 	O 	0.04932 0.19685 0.29479 -0.35400
O 	O 	0.12833 0.02973 0.30526 -0.33400
O 	O 	0.00058 0.87237 0.29786 -0.34600
O 	O 	0.16527 0.12795 0.22740 -0.34100
O 	O 	0.08773 0.22355 0.23638 -0.34500
O 	O 	0.00771 0.03170 0.26060 -0.67300
H 	H 	0.99955 0.01543 0.24127 0.14600
C 	C 	0.28109 0.37853 0.21363 -0.02800
C 	C 	0.22411 0.28130 0.20385 -0.06700
C 	C 	0.24285 0.25927 0.17765 0.12300
C 	C 	0.30782 0.33707 0.16067 -0.03100
C 	C 	0.34381 0.43623 0.16861 -0.07400
C 	C 	0.34280 0.45572 0.19631 0.12800
H 	H 	0.27387 0.39507 0.23442 0.08100
Br	Br	0.17372 0.12591 0.16378 -0.17500
C 	C 	0.08321 0.73017 0.23299 -0.02600
C 	C 	0.04381 0.78800 0.22212 -0.07400
C 	C 	0.00518 0.76938 0.19568 0.14400
C 	C 	0.01288 0.69820 0.17997 0.00200
C 	C 	0.06967 0.65470 0.18928 -0.08800
C 	C 	0.09449 0.66222 0.21673 0.13600
Br	Br	0.15253 0.58677 0.23158 -0.18200
H 	H 	0.10647 0.73908 0.25389 0.09100
H 	H 	0.98837 0.68826 0.15916 0.04500
Br	Br	0.95526 0.84989 0.17945 -0.23200
C 	C 	0.24651 0.41614 0.30991 -0.03100
C 	C 	0.20095 0.31568 0.31707 -0.07800
C 	C 	0.18049 0.28930 0.34434 0.12800
C 	C 	0.19818 0.36173 0.36367 -0.03100
C 	C 	0.23692 0.46103 0.35626 -0.08400
C 	C 	0.26306 0.48874 0.32926 0.12900
Br	Br	0.31286 0.62355 0.31799 -0.18700
H 	H 	0.26198 0.43700 0.28898 0.07800
H 	H 	0.18163 0.34065 0.38456 0.07800
Br	Br	0.12366 0.15375 0.35550 -0.18900
C 	C 	0.07546 0.88113 0.35898 -0.02900
C 	C 	0.12088 0.90282 0.33362 -0.07000
C 	C 	0.21629 0.90847 0.33016 0.12800
C 	C 	0.12315 0.86265 0.38063 0.13200
Br	Br	0.05874 0.83279 0.41510 -0.20300
H 	H 	0.00398 0.88036 0.36201 0.08500
H 	H 	0.20259 0.61256 0.50860 0.03600
C 	C 	0.10999 0.33779 0.50594 -0.05200
C 	C 	0.16207 0.40939 0.52604 0.02500
C 	C 	0.26736 0.47210 0.52330 -0.05600
C 	C 	0.31279 0.48038 0.49823 0.00500
C 	C 	0.25141 0.42987 0.47604 -0.07300
C 	C 	0.15677 0.34598 0.48112 0.02000
H 	H 	0.31156 0.52013 0.53967 0.04400
H 	H 	0.39077 0.53754 0.49519 0.03600
H 	H 	0.11227 0.29840 0.46462 0.05300
C 	C 	0.28338 0.21278 0.70646 -0.07900
C 	C 	0.27605 0.22983 0.67896 0.12200
Br	Br	0.15494 0.14643 0.65872 -0.18800
C 	C 	0.96082 0.60727 0.06350 -0.01100
C 	C 	0.98362 0.60491 0.09070 -0.09900
H 	H 	0.00618 0.67347 0.05184 0.05600
H 	H 	0.92064 0.52510 0.12752 0.03700
C 	C 	0.33470 0.19083 0.81387 -0.07200
C 	C 	0.30733 0.16996 0.84102 0.12300
Br	Br	0.16866 0.11742 0.85194 -0.21600
O 	O 	0.03993 0.14831 0.80048 -0.33100
O 	O 	0.04586 0.00121 0.77232 -0.69300
H 	H 	0.06426 0.01113 0.79150 0.16900
H 	H 	0.31607 0.32048 0.14000 0.06800
C 	C 	0.13302 0.44594 0.57338 -0.05800
H 	H 	0.19966 0.44218 0.57985 0.05500
H 	H 	0.96585 0.35359 0.04677 0.04800
Br	Br	0.92329 0.27693 0.79373 -0.20600
C 	C 	0.21662 0.86469 0.37688 -0.08300
Br	Br	0.28079 0.93582 0.29571 -0.22000
Br	Br	0.40091 0.58905 0.20942 -0.19900
O 	O 	0.35217 0.60780 0.38043 -0.37400
C 	C 	0.26410 0.89093 0.35185 -0.02600
H 	H 	0.33559 0.89166 0.34880 0.07600
C 	C 	0.48277 0.24147 0.94522 0.28600
C 	C 	0.55992 0.24793 0.87385 0.32700
Ni	Ni	0.64320 0.41678 0.91086 1.11600
O 	O 	0.49944 0.30640 0.92544 -0.35800
O 	O 	0.62903 0.34089 0.87577 -0.36500
O 	O 	0.54267 0.18867 0.89449 -0.36700
C 	C 	0.54164 0.35650 0.66705 0.33100
C 	C 	0.55718 0.35114 0.59472 0.29300
Ni	Ni	0.54907 0.20254 0.63719 1.12500
O 	O 	0.59756 0.42317 0.64898 -0.37300
O 	O 	0.50028 0.27472 0.61104 -0.36700
O 	O 	0.54815 0.27641 0.66959 -0.37900
C 	C 	0.24890 0.81323 0.39574 0.32600
C 	C 	0.25642 0.76438 0.47292 0.28300
C 	C 	0.53851 0.82801 0.38699 0.32400
C 	C 	0.53768 0.75964 0.46226 0.28600
Ni	Ni	0.41683 0.83459 0.43161 1.12200
Ni	Ni	0.42334 0.63673 0.41633 1.12200
O 	O 	0.47255 0.85509 0.39441 -0.38700
O 	O 	0.30577 0.86060 0.41669 -0.36400
O 	O 	0.50803 0.67419 0.44959 -0.37800
O 	O 	0.54026 0.83758 0.44992 -0.36200
O 	O 	0.35276 0.82798 0.46739 -0.37700
O 	O 	0.54305 0.75416 0.39892 -0.36200
O 	O 	0.34578 0.69342 0.43024 -0.71400
H 	H 	0.34703 0.67931 0.44945 0.14700
C 	C 	0.48987 0.82284 0.15094 0.29700
C 	C 	0.26766 0.49228 0.07708 0.31600
C 	C 	0.36627 0.81573 0.07627 0.30400
C 	C 	0.32518 0.49912 0.14997 0.29600
Ni	Ni	0.40607 0.66983 0.10627 1.11200
Ni	Ni	0.27930 0.77456 0.13054 1.12600
O 	O 	0.51101 0.77496 0.13218 -0.36700
O 	O 	0.42372 0.85550 0.14652 -0.33700
O 	O 	0.31637 0.58727 0.07479 -0.38800
O 	O 	0.43498 0.78867 0.08117 -0.36000
O 	O 	0.33288 0.84789 0.09593 -0.37200
O 	O 	0.38782 0.54327 0.12886 -0.35900
O 	O 	0.29706 0.66179 0.12548 -0.71700
H 	H 	0.32154 0.66116 0.14375 0.16400
Br	Br	0.56505 0.04964 0.17079 -0.18300
H 	H 	0.50447 0.84989 0.33513 0.08800
C 	C 	0.41433 0.85282 0.56695 0.01900
C 	C 	0.31930 0.81041 0.55088 0.02200
H 	H 	0.34143 0.78496 0.60431 0.05900
C 	C 	0.29204 0.87484 0.53807 -0.05400
C 	C 	0.24139 0.84749 0.51327 0.01700
C 	C 	0.22406 0.75876 0.50086 -0.07000
C 	C 	0.22472 0.68498 0.51707 0.00500
C 	C 	0.27321 0.71112 0.54224 -0.05400
H 	H 	0.32036 0.94975 0.54563 0.05200
H 	H 	0.23203 0.90207 0.50186 0.04600
H 	H 	0.28341 0.65715 0.55361 0.04500
C 	C 	0.51383 0.55646 0.57651 -0.05800
C 	C 	0.53519 0.56101 0.54900 0.02000
C 	C 	0.52678 0.47634 0.53597 -0.05800
C 	C 	0.51327 0.39442 0.55100 0.01600
C 	C 	0.50870 0.39689 0.57909 -0.07500
C 	C 	0.49734 0.47302 0.59134 0.01100
C 	C 	0.56777 0.65422 0.53380 0.01900
H 	H 	0.53567 0.47594 0.51440 0.05200
H 	H 	0.51727 0.33389 0.54109 0.03800
H 	H 	0.48820 0.47328 0.61289 0.04500
H 	H 	0.51502 0.61918 0.58665 0.05100
C 	C 	0.50579 0.69831 0.53307 -0.05700
C 	C 	0.50911 0.75485 0.51079 0.00100
C 	C 	0.57618 0.76907 0.48974 -0.07500
C 	C 	0.64987 0.68806 0.51598 -0.05600
H 	H 	0.44928 0.68156 0.54838 0.04300
H 	H 	0.45026 0.77480 0.50813 0.03400
C 	C 	0.36082 0.30552 0.66581 -0.03800
C 	C 	0.45430 0.35706 0.67951 -0.08700
C 	C 	0.45231 0.35740 0.70769 0.13200
C 	C 	0.36922 0.28144 0.72108 -0.03300
H 	H 	0.35844 0.31257 0.64422 0.06700
H 	H 	0.37327 0.27359 0.74255 0.07800
Br	Br	0.57207 0.44534 0.72771 -0.18800
C 	C 	0.28548 0.01533 0.96717 -0.02000
C 	C 	0.31446 0.03475 0.99430 0.03700
C 	C 	0.35369 0.13232 0.00412 -0.05500
C 	C 	0.38368 0.21073 0.98597 0.01300
C 	C 	0.38405 0.19149 0.95846 -0.06900
C 	C 	0.31594 0.09495 0.94937 0.01200
C 	C 	0.32693 0.96098 0.01028 0.01300
H 	H 	0.37013 0.14816 0.02533 0.05700
H 	H 	0.42390 0.28649 0.99333 0.03400
H 	H 	0.30400 0.07989 0.92802 0.05500
H 	H 	0.24883 0.93988 0.95949 0.03800
C 	C 	0.24220 0.87890 0.02120 -0.05600
C 	C 	0.25582 0.81933 0.04003 0.01900
C 	C 	0.35407 0.84414 0.04893 -0.08100
C 	C 	0.42482 0.97630 0.01606 -0.08700
H 	H 	0.16610 0.86387 0.01608 0.05400
H 	H 	0.19005 0.75944 0.04949 0.03800
C 	C 	0.46516 0.42872 0.06362 -0.06200
C 	C 	0.48375 0.46053 0.03687 0.02000
C 	C 	0.40597 0.46237 0.02178 -0.06100
C 	C 	0.31698 0.44754 0.03447 0.02200
C 	C 	0.30824 0.43657 0.06248 -0.08900
C 	C 	0.37562 0.41348 0.07614 0.01400
C 	C 	0.58481 0.49399 0.02481 0.01900
H 	H 	0.41655 0.48021 0.00061 0.05600
H 	H 	0.26173 0.45845 0.02320 0.04100
H 	H 	0.36525 0.39596 0.09727 0.04700
H 	H 	0.52194 0.42080 0.07506 0.05300
H 	H 	0.62067 0.64690 0.02007 0.05100
C 	C 	0.38058 0.18324 0.86025 -0.02800
C 	C 	0.48218 0.21972 0.85281 -0.08600
C 	C 	0.51086 0.24665 0.82591 0.13200
C 	C 	0.43750 0.23446 0.80677 -0.02900
H 	H 	0.35875 0.16689 0.88111 0.07400
H 	H 	0.45916 0.25076 0.78589 0.08600
Br	Br	0.64865 0.29395 0.81457 -0.17000
C 	C 	0.10416 0.43264 0.54621 0.01700
H 	H 	0.51170 0.92892 0.53334 0.04800
C 	C 	0.43852 0.91880 0.03556 0.02800
H 	H 	0.57413 0.35004 0.02688 0.04400
C 	C 	0.64233 0.59144 0.01520 -0.05700
Ni	Ni	0.64878 0.21362 0.92371 1.12600
O 	O 	0.54397 0.20431 0.94977 -0.38400
O 	O 	0.76586 0.54264 0.89424 -0.34400
O 	O 	0.67556 0.50993 0.94339 -0.36000
H 	H 	0.68894 0.35610 0.94691 0.15100
O 	O 	0.56554 0.12290 0.60798 -0.37800
O 	O 	0.55680 0.10321 0.66330 -0.36400
O 	O 	0.65712 0.40217 0.59690 -0.39100
C 	C 	0.55789 0.85719 0.17479 -0.06500
C 	C 	0.60126 0.95545 0.18490 0.12300
C 	C 	0.58436 0.89113 0.34055 -0.04200
C 	C 	0.61515 0.88784 0.36693 -0.07300
Br	Br	0.61065 0.94614 0.28497 -0.19300
C 	C 	0.41134 0.83860 0.59479 -0.05900
C 	C 	0.50746 0.91836 0.55487 -0.05200
C 	C 	0.59242 0.97828 0.57082 -0.00700
C 	C 	0.49648 0.90077 0.61062 0.01800
H 	H 	0.49002 0.89668 0.63229 0.03900
C 	C 	0.65547 0.74790 0.49430 0.01500
H 	H 	0.71249 0.76481 0.47901 0.04700
H 	H 	0.70370 0.66100 0.51751 0.05100
H 	H 	0.51480 0.93720 0.04165 0.03700
H 	H 	0.49031 0.03506 0.00621 0.07300
C 	C 	0.61756 0.42526 0.01957 -0.05700
C 	C 	0.69859 0.44976 0.00205 0.00400
C 	C 	0.72225 0.61466 0.99724 0.01600
H 	H 	0.75904 0.68681 0.98773 0.04300
C 	C 	0.75521 0.53358 0.95901 0.28600
H 	H 	0.09194 0.46238 0.61359 0.05300
C 	C 	0.74122 0.53934 0.98794 -0.08200
H 	H 	0.71525 0.39274 0.99583 0.02900
Ni	Ni	0.72421 0.42767 0.63267 1.12200
O 	O 	0.70731 0.35366 0.92812 -0.71600
C 	C 	0.62076 0.07864 0.61123 0.30900
C 	C 	0.62448 0.13229 0.68283 0.34200
O 	O 	0.68982 0.29182 0.63123 -0.71400
H 	H 	0.69643 0.28295 0.61187 0.17400
C 	C 	0.59412 0.79479 0.18437 -0.02800
C 	C 	0.67783 0.98804 0.20462 -0.04500
H 	H 	0.56704 0.72213 0.17535 0.08200
C 	C 	0.71790 0.94749 0.37433 0.10100
C 	C 	0.65648 0.94559 0.32095 0.14000
Br	Br	0.76192 0.95375 0.41087 -0.22800
C 	C 	0.58149 0.98073 0.59868 -0.09000
H 	H 	0.66095 0.03466 0.56134 0.05400
C 	C 	0.63285 0.05899 0.69962 -0.11400
Br	Br	0.58523 0.13815 0.74673 -0.18500
H 	H 	0.61896 0.19936 0.00792 0.03300
Br	Br	0.92630 0.76820 0.91066 -0.22800
H 	H 	0.64541 0.97346 0.66708 0.03800
C 	C 	0.85386 0.54995 0.88798 0.32200
O 	O 	0.73431 0.20116 0.95389 -0.36100
O 	O 	0.84100 0.53960 0.94929 -0.35900
O 	O 	0.73901 0.21838 0.89412 -0.37400
O 	O 	0.69815 0.11156 0.62901 -0.35400
O 	O 	0.77273 0.44204 0.67078 -0.37100
O 	O 	0.70445 0.21894 0.68129 -0.37100
C 	C 	0.66913 0.82677 0.20421 0.13400
H 	H 	0.71071 0.06328 0.21235 0.09200
C 	C 	0.78978 0.00311 0.35484 0.01200
C 	C 	0.76086 0.99725 0.32778 -0.12700
C 	C 	0.66939 0.00092 0.68734 0.03800
C 	C 	0.65330 0.08108 0.72711 0.14900
Br	Br	0.83130 0.58104 0.77061 -0.17500
C 	C 	0.69328 0.22705 0.01703 0.00500
H 	H 	0.65281 0.27961 0.05262 0.05000
Br	Br	0.08196 0.65352 0.79932 -0.18400
Ni	Ni	0.78292 0.25748 0.64586 1.11600
C 	C 	0.71393 0.92500 0.21392 -0.05700
C 	C 	0.95544 0.73041 0.87644 0.09800
C 	C 	0.77989 0.26853 0.97332 0.28600
O 	O 	0.87481 0.48035 0.89464 -0.38700
O 	O 	0.86658 0.46801 0.61680 -0.35900
C 	C 	0.92391 0.63041 0.87026 -0.06800
Ni	Ni	0.85077 0.42237 0.93183 1.12000
H 	H 	0.88915 0.45196 0.55111 0.03900
C 	C 	0.75108 0.99514 0.69895 0.05600
H 	H 	0.83445 0.44255 0.73065 0.09500
C 	C 	0.71341 0.27639 0.04191 -0.05400
Br	Br	0.88223 0.08822 0.91558 -0.20700
C 	C 	0.83792 0.26037 0.89635 0.32700
O 	O 	0.84350 0.36291 0.96780 -0.38500
C 	C 	0.85966 0.44888 0.67682 0.31900
C 	C 	0.89491 0.40918 0.60376 0.29000
O 	O 	0.86631 0.31762 0.61174 -0.37200
C 	C 	0.73260 0.07296 0.73939 -0.05100
C 	C 	0.77496 0.23701 0.00135 -0.07100
O 	O 	0.04275 0.87346 0.73105 -0.36600
Br	Br	0.71124 0.73500 0.21678 -0.19500
H 	H 	0.86946 0.04522 0.36041 0.06900
H 	H 	0.75286 0.09609 0.76010 0.09600
C 	C 	0.83821 0.01775 0.30718 0.35900
C 	C 	0.80044 0.96373 0.23301 0.29300
O 	O 	0.79243 0.91059 0.25494 -0.34400
C 	C 	0.78691 0.03678 0.72467 -0.04000
C 	C 	0.88488 0.51556 0.72260 -0.03800
C 	C 	0.89663 0.60004 0.73633 0.14800
O 	O 	0.84611 0.07259 0.28609 -0.36500
Br	Br	0.81916 0.94047 0.67817 -0.21400
O 	O 	0.07600 0.84147 0.78655 -0.35300
O 	O 	0.88835 0.39049 0.66499 -0.35200
O 	O 	0.89897 0.78317 0.75512 -0.33600
O 	O 	0.88759 0.32191 0.91641 -0.36900
C 	C 	0.89545 0.14365 0.88044 0.13200
H 	H 	0.90994 0.02596 0.86120 0.08100
C 	C 	0.96009 0.60751 0.84687 -0.06100
C 	C 	0.00951 0.80395 0.85743 -0.00100
H 	H 	0.02698 0.87972 0.86142 0.07100
O 	O 	0.87911 0.00876 0.79739 -0.34100
C 	C 	0.95855 0.45317 0.55741 -0.01900
C 	C 	0.92432 0.52374 0.69671 -0.06300
H 	H 	0.94394 0.53202 0.84307 0.08600
Ni	Ni	0.90742 0.90730 0.77511 1.10600
O 	O 	0.87250 0.94972 0.73928 -0.38000
C 	C 	0.81438 0.33371 0.05068 0.02100
H 	H 	0.80627 0.36657 0.10449 0.05600
C 	C 	0.89188 0.23234 0.87680 -0.08300
C 	C 	0.90626 0.09359 0.85822 -0.03600
O 	O 	0.87215 0.05851 0.23098 -0.36300
O 	O 	0.94716 0.85474 0.80846 -0.38600
C 	C 	0.95533 0.69533 0.72465 -0.10900
C 	C 	0.87489 0.03490 0.73710 0.33400
C 	C 	0.98000 0.45312 0.58482 -0.08700
C 	C 	0.86761 0.26469 0.01451 0.01700
O 	O 	0.88911 0.96968 0.30829 -0.41300
H 	H 	0.00088 0.43950 0.51707 0.05200
C 	C 	0.96475 0.78764 0.73708 0.30800
C 	C 	0.84645 0.42914 0.06473 0.02000
C 	C 	0.84827 0.43362 0.09286 -0.06100
C 	C 	0.91521 0.13209 0.83230 -0.06100
C 	C 	0.99693 0.61800 0.68762 0.07400
C 	C 	0.02837 0.77778 0.83189 -0.09200
C 	C 	0.02028 0.44293 0.53816 -0.02300
C 	C 	0.01021 0.70329 0.70110 0.02600
C 	C 	0.88880 0.31648 0.03893 -0.05500
C 	C 	0.90717 0.27371 0.85113 -0.02500
C 	C 	0.01576 0.68184 0.82813 0.16500
C 	C 	0.94794 0.09108 0.81020 0.28200
H 	H 	0.03090 0.28246 0.50857 0.06400
H 	H 	0.90386 0.34155 0.84813 0.07700
C 	C 	0.02280 0.83407 0.80870 0.32600
Ni	Ni	0.90964 0.90868 0.27536 1.11500
H 	H 	0.92886 0.26279 0.00373 0.04300
C 	C 	0.91560 0.22290 0.82886 0.12500
H 	H 	0.89075 0.51695 0.02849 0.05000
O 	O 	0.94348 0.11346 0.75053 -0.36400
Ni	Ni	0.96858 0.13133 0.26126 1.10900
C 	C 	0.89512 0.51832 0.05020 -0.05000
H 	H 	0.06100 0.77564 0.69278 0.06600
Br	Br	0.07105 0.63169 0.65526 -0.19900
C 	C 	0.91313 0.52376 0.10588 0.01100
C 	C 	0.07261 0.45895 0.59250 0.04600
