data_crystal

_cell_length_a 20.37273
_cell_length_b 20.57314
_cell_length_c 35.16753
_cell_angle_alpha 95.46078
_cell_angle_beta  95.46142
_cell_angle_gamma 126.13694

_symmetry_space_group_name_	'P 1'
_symmetry_space_group_name_H-M	'P 1'

loop_
_symmetry_equiv_pos_as_xyz
  x,y,z

loop_
_atom_site_label
_atom_site_type_symbol
_atom_site_fract_x
_atom_site_fract_y
_atom_site_fract_z
_atom_site_charge
C 	C 	0.05093 0.97146 0.99540 -0.08800
C 	C 	0.10009 0.05610 0.99701 0.05000
C 	C 	0.06483 0.09767 0.99992 -0.08700
H 	H 	0.07817 0.93942 0.99309 0.05700
H 	H 	0.10267 0.16328 0.00088 0.05600
C 	C 	0.97039 0.02418 0.45976 -0.07300
C 	C 	0.01084 0.98804 0.46070 0.03800
C 	C 	0.96602 0.90399 0.45979 -0.07800
H 	H 	0.00558 0.08962 0.46054 0.05300
H 	H 	0.99781 0.87632 0.46044 0.05500
Cu	Cu	0.64978 0.23603 0.00801 0.92700
Cu	Cu	0.71062 0.23404 0.92497 0.87100
Cu	Cu	0.69496 0.36261 0.95592 0.89700
Cu	Cu	0.65196 0.38791 0.03275 0.89600
C 	C 	0.67251 0.29787 0.08912 0.29700
O 	O 	0.52867 0.18774 0.00764 -0.36200
C 	C 	0.66474 0.30120 0.87111 0.29700
O 	O 	0.71660 0.36299 0.01038 -0.63900
O 	O 	0.63731 0.24232 0.95223 -0.64100
O 	O 	0.70369 0.18010 0.00631 -0.37100
O 	O 	0.79115 0.26282 0.96842 -0.44400
O 	O 	0.63742 0.33221 0.07832 -0.38600
O 	O 	0.75633 0.48036 0.96345 -0.38300
C 	C 	0.75197 0.52548 0.99091 0.31200
C 	C 	0.49732 0.22308 0.99367 0.30300
O 	O 	0.54682 0.29801 0.98761 -0.39700
O 	O 	0.69742 0.49250 0.01401 -0.39600
O 	O 	0.67879 0.25140 0.06341 -0.36200
C 	C 	0.77253 0.21233 0.99263 0.30900
O 	O 	0.69336 0.36405 0.89944 -0.38500
O 	O 	0.65577 0.23498 0.87833 -0.42100
H 	H 	0.77598 0.39865 0.02261 0.16300
H 	H 	0.57951 0.20825 0.93781 0.17300
Cu	Cu	0.71458 0.31519 0.45291 0.92500
Cu	Cu	0.71925 0.26715 0.53902 0.87000
Cu	Cu	0.58406 0.27078 0.50330 0.89800
Cu	Cu	0.55182 0.29529 0.42142 0.89600
C 	C 	0.66578 0.29948 0.37128 0.29900
O 	O 	0.75976 0.43304 0.44927 -0.37000
C 	C 	0.64535 0.31273 0.58889 0.29600
O 	O 	0.58545 0.24353 0.44980 -0.63700
O 	O 	0.70642 0.33291 0.50802 -0.64200
O 	O 	0.77389 0.26474 0.45818 -0.37100
O 	O 	0.69292 0.18310 0.49845 -0.44200
O 	O 	0.59444 0.28641 0.37364 -0.38600
O 	O 	0.46463 0.20372 0.49516 -0.38300
C 	C 	0.41754 0.20332 0.46650 0.31300
C 	C 	0.71692 0.46049 0.45600 0.30200
O 	O 	0.64092 0.41032 0.46134 -0.39500
O 	O 	0.44947 0.25552 0.44254 -0.39500
O 	O 	0.70166 0.28347 0.39816 -0.36600
C 	C 	0.74282 0.19895 0.47387 0.30700
O 	O 	0.58219 0.28034 0.55974 -0.38500
O 	O 	0.71418 0.32389 0.58340 -0.42100
H 	H 	0.55363 0.18398 0.43999 0.16700
H 	H 	0.73787 0.39108 0.52067 0.17200
C 	C 	0.65779 0.31131 0.83019 -0.11200
C 	C 	0.60892 0.33447 0.81497 0.12700
C 	C 	0.60529 0.34414 0.77592 -0.09900
C 	C 	0.64523 0.32622 0.75138 0.00100
C 	C 	0.69386 0.30293 0.76659 0.05700
C 	C 	0.70018 0.29648 0.80592 -0.02200
N 	N 	0.56304 0.34443 0.83703 -0.20300
H 	H 	0.56829 0.36216 0.76417 0.05600
C 	C 	0.63261 0.32822 0.70937 0.00000
N 	N 	0.73439 0.28644 0.74364 -0.19200
H 	H 	0.73814 0.27949 0.81767 0.03100
C 	C 	0.69122 0.39920 0.69585 -0.09800
C 	C 	0.69183 0.39766 0.65584 0.12500
C 	C 	0.63337 0.32338 0.62913 -0.11200
C 	C 	0.56960 0.25505 0.64238 -0.02500
C 	C 	0.56860 0.25664 0.68233 0.05800
H 	H 	0.73835 0.45489 0.71658 0.05600
N 	N 	0.74786 0.46762 0.64327 -0.20300
H 	H 	0.52303 0.19901 0.62172 0.04100
N 	N 	0.50719 0.18889 0.69453 -0.19200
H 	H 	0.74530 0.46997 0.61367 0.08800
H 	H 	0.46143 0.13563 0.67441 0.08100
H 	H 	0.50314 0.18885 0.72389 0.08700
H 	H 	0.73160 0.29101 0.71432 0.08500
H 	H 	0.55718 0.32936 0.86464 0.09000
H 	H 	0.52953 0.36425 0.82592 0.08500
C 	C 	0.68244 0.29197 0.13042 -0.10400
C 	C 	0.76164 0.33852 0.15460 0.12200
C 	C 	0.76789 0.33972 0.19487 -0.09600
C 	C 	0.69662 0.29494 0.21121 0.00000
C 	C 	0.61752 0.24562 0.18675 0.06100
C 	C 	0.61139 0.24451 0.14656 -0.02100
H 	H 	0.82836 0.37665 0.21363 0.05600
C 	C 	0.70527 0.30457 0.25414 0.00100
N 	N 	0.54735 0.20001 0.20165 -0.19200
H 	H 	0.55085 0.20800 0.12785 0.04700
C 	C 	0.70867 0.36844 0.27491 -0.09600
C 	C 	0.70359 0.37209 0.31450 0.12400
C 	C 	0.69202 0.30899 0.33320 -0.10500
C 	C 	0.69537 0.24884 0.31327 -0.02200
C 	C 	0.70280 0.24652 0.27391 0.06000
H 	H 	0.71355 0.41452 0.26001 0.05600
N 	N 	0.71076 0.43660 0.33448 -0.20400
H 	H 	0.68896 0.20186 0.32793 0.04900
N 	N 	0.70608 0.18780 0.25517 -0.19200
H 	H 	0.71628 0.48141 0.32017 0.08500
H 	H 	0.71439 0.44472 0.36457 0.08900
H 	H 	0.70198 0.14384 0.26970 0.08500
H 	H 	0.71467 0.18629 0.22639 0.09000
H 	H 	0.48930 0.16430 0.18336 0.08500
H 	H 	0.54944 0.19904 0.23134 0.09000
C 	C 	0.75205 0.54530 0.45658 -0.11900
C 	C 	0.09871 0.03705 0.46271 -0.01400
C 	C 	0.17214 0.07601 0.46425 -0.02900
C 	C 	0.25779 0.12013 0.46568 0.06200
C 	C 	0.33085 0.15770 0.46641 -0.11500
C 	C 	0.79692 0.61124 0.99110 -0.11400
C 	C 	0.81939 0.18120 0.99822 -0.12500
C 	C 	0.41187 0.18774 0.99339 -0.11600
C 	C 	0.34099 0.16089 0.99379 0.05700
C 	C 	0.25814 0.12942 0.99476 -0.02600
C 	C 	0.18667 0.09926 0.99579 -0.01900
C 	C 	0.98010 0.05365 0.00129 0.05100
C 	C 	0.93148 0.96879 0.99980 -0.08700
C 	C 	0.96694 0.92787 0.99672 0.05100
H 	H 	0.86607 0.93464 0.00067 0.05700
C 	C 	0.88470 0.97631 0.45826 0.03900
C 	C 	0.88054 0.85531 0.45821 0.04200
C 	C 	0.83926 0.89131 0.45751 -0.07800
H 	H 	0.77304 0.85394 0.45657 0.05400
H 	H 	0.79274 0.52156 0.66322 0.08300
H 	H 	0.76975 0.26887 0.75514 0.07800
N 	N 	0.83170 0.38271 0.13949 -0.20400
H 	H 	0.82933 0.38189 0.10965 0.08500
H 	H 	0.88987 0.41785 0.15766 0.08400
C 	C 	0.77765 0.61542 0.45690 0.05600
C 	C 	0.80737 0.69753 0.45724 -0.02800
C 	C 	0.83664 0.76863 0.45760 -0.01700
C 	C 	0.76925 0.14806 0.46713 -0.12000
C 	C 	0.79091 0.10461 0.46332 0.05800
C 	C 	0.81803 0.05494 0.46048 -0.03000
C 	C 	0.84504 0.01598 0.45905 -0.01400
C 	C 	0.83418 0.68351 0.99189 0.06000
C 	C 	0.87823 0.76825 0.99334 -0.02600
C 	C 	0.91738 0.84092 0.99483 -0.01900
C 	C 	0.94150 0.09412 0.00229 -0.01900
C 	C 	0.90503 0.12377 0.00228 -0.02900
C 	C 	0.85930 0.15534 0.00093 0.06000
