data_crystal

_cell_length_a 26.29920
_cell_length_b 26.45308
_cell_length_c 34.94042
_cell_angle_alpha 95.48589
_cell_angle_beta  95.48279
_cell_angle_gamma 125.81640

_symmetry_space_group_name_	'P 1'
_symmetry_space_group_name_H-M	'P 1'

loop_
_symmetry_equiv_pos_as_xyz
  x,y,z

loop_
_atom_site_label
_atom_site_type_symbol
_atom_site_fract_x
_atom_site_fract_y
_atom_site_fract_z
_atom_site_charge
C 	C 	0.98480 0.05167 0.98794 0.08600
C 	C 	0.94570 0.98611 0.98729 -0.08000
C 	C 	0.97218 0.95307 0.98765 0.08800
C 	C 	0.03792 0.98574 0.98947 -0.08800
C 	C 	0.07702 0.05105 0.98942 0.08500
C 	C 	0.05016 0.08381 0.98793 -0.08200
H 	H 	0.89494 0.96097 0.98653 0.08800
H 	H 	0.05846 0.96021 0.99031 0.07800
H 	H 	0.08012 0.13420 0.98740 0.08400
C 	C 	0.93139 0.98928 0.47191 0.07800
C 	C 	0.89901 0.92518 0.47478 -0.07600
C 	C 	0.93121 0.89757 0.47431 0.07600
C 	C 	0.99659 0.93519 0.47304 -0.07100
C 	C 	0.02957 0.99988 0.47200 0.07100
C 	C 	0.99699 0.02688 0.47146 -0.07100
H 	H 	0.84868 0.89655 0.47630 0.08200
H 	H 	0.02170 0.91414 0.47278 0.07500
H 	H 	0.02231 0.07671 0.46994 0.07800
Cu	Cu	0.65970 0.26449 0.00279 0.93100
Cu	Cu	0.69896 0.26387 0.91711 0.87800
Cu	Cu	0.68323 0.35846 0.94947 0.90100
Cu	Cu	0.67411 0.38982 0.03383 0.90200
C 	C 	0.67738 0.30771 0.08469 0.29600
O 	O 	0.56854 0.22650 0.00758 -0.34400
C 	C 	0.64655 0.30628 0.86410 0.29400
O 	O 	0.71206 0.36297 0.00306 -0.63800
O 	O 	0.64187 0.26635 0.94699 -0.64000
O 	O 	0.69799 0.21862 0.99757 -0.35900
O 	O 	0.76321 0.28223 0.95842 -0.41100
O 	O 	0.69357 0.36464 0.08179 -0.37100
O 	O 	0.73066 0.44943 0.95411 -0.36300
C 	C 	0.73400 0.48734 0.98338 0.31900
C 	C 	0.54446 0.25787 0.00435 0.29600
O 	O 	0.58044 0.31648 0.99855 -0.38100
O 	O 	0.69741 0.46452 0.00985 -0.38100
O 	O 	0.68659 0.27649 0.05792 -0.34800
C 	C 	0.74962 0.24247 0.98240 0.31300
O 	O 	0.66219 0.35236 0.89279 -0.37400
O 	O 	0.65324 0.26181 0.87034 -0.40400
H 	H 	0.75906 0.38855 0.01071 0.18700
H 	H 	0.59630 0.23864 0.93417 0.18400
Cu	Cu	0.72354 0.31873 0.44907 0.93300
Cu	Cu	0.71255 0.26518 0.53062 0.87400
Cu	Cu	0.62597 0.29173 0.49972 0.89900
Cu	Cu	0.60181 0.31112 0.41969 0.90300
C 	C 	0.67594 0.29525 0.36675 0.29700
O 	O 	0.75863 0.41036 0.44829 -0.33700
C 	C 	0.66144 0.30697 0.58425 0.28600
O 	O 	0.62418 0.26607 0.44594 -0.64100
O 	O 	0.71794 0.32945 0.50462 -0.64200
O 	O 	0.77060 0.28137 0.45352 -0.35800
O 	O 	0.70015 0.20843 0.48670 -0.41600
O 	O 	0.64835 0.32228 0.37559 -0.36800
O 	O 	0.53496 0.24809 0.49454 -0.37900
C 	C 	0.49689 0.24695 0.46630 0.32000
C 	C 	0.72863 0.43384 0.45920 0.30000
O 	O 	0.66903 0.39554 0.46376 -0.38400
O 	O 	0.51577 0.26899 0.43399 -0.37000
O 	O 	0.71400 0.29462 0.39387 -0.34500
C 	C 	0.74451 0.22704 0.46541 0.31300
O 	O 	0.63337 0.31692 0.55561 -0.36600
O 	O 	0.70711 0.30122 0.57903 -0.40600
H 	H 	0.59678 0.21960 0.43642 0.17800
H 	H 	0.74678 0.37327 0.51996 0.18700
C 	C 	0.59025 0.25750 0.75467 -0.07000
C 	C 	0.62331 0.31713 0.74371 0.01800
C 	C 	0.65051 0.37188 0.77240 -0.00400
C 	C 	0.65419 0.36768 0.81210 -0.00100
C 	C 	0.62768 0.30856 0.82330 -0.08500
C 	C 	0.59021 0.25283 0.79423 0.05900
C 	C 	0.63488 0.32213 0.70309 0.01400
S 	S 	0.67990 0.44558 0.75896 -0.00200
H 	H 	0.67968 0.41057 0.83416 0.05600
S 	S 	0.53906 0.17766 0.80673 -0.02500
H 	H 	0.56549 0.21485 0.73247 0.06000
C 	C 	0.69556 0.34525 0.69464 -0.00300
C 	C 	0.70436 0.34483 0.65583 -0.00200
C 	C 	0.65226 0.31666 0.62481 -0.07900
C 	C 	0.59113 0.29273 0.63327 0.05000
C 	C 	0.58341 0.29735 0.67230 -0.06400
S 	S 	0.75982 0.37059 0.73214 -0.02000
H 	H 	0.75151 0.36407 0.64970 0.05200
S 	S 	0.52315 0.25295 0.59578 0.00300
H 	H 	0.53660 0.27898 0.67873 0.06400
H 	H 	0.48105 0.16527 0.80865 0.05100
H 	H 	0.75750 0.31926 0.73916 0.04400
H 	H 	0.49757 0.18988 0.58748 0.04400
H 	H 	0.74352 0.47806 0.75780 0.04700
C 	C 	0.62911 0.22296 0.25945 -0.06500
C 	C 	0.67725 0.27421 0.24448 0.01700
C 	C 	0.72893 0.32938 0.27045 -0.00200
C 	C 	0.73052 0.33362 0.31082 0.00500
C 	C 	0.68023 0.28411 0.32560 -0.07600
C 	C 	0.63023 0.22773 0.29985 0.05300
C 	C 	0.66961 0.27260 0.20179 0.01800
S 	S 	0.79049 0.39443 0.25270 0.00100
H 	H 	0.76950 0.37668 0.33066 0.06600
S 	S 	0.56838 0.16330 0.31781 -0.02400
H 	H 	0.58976 0.18019 0.23958 0.06300
C 	C 	0.70379 0.26024 0.17891 -0.00300
C 	C 	0.70377 0.26897 0.13999 0.00400
C 	C 	0.66905 0.28905 0.12345 -0.07400
C 	C 	0.63045 0.29598 0.14547 0.06000
C 	C 	0.63143 0.28827 0.18452 -0.06400
S 	S 	0.74727 0.23455 0.19878 -0.00800
H 	H 	0.73235 0.26207 0.12301 0.06100
S 	S 	0.57977 0.31302 0.12432 -0.02000
H 	H 	0.60357 0.29590 0.20179 0.06300
H 	H 	0.52087 0.17002 0.32027 0.04000
H 	H 	0.70811 0.16966 0.19376 0.05100
H 	H 	0.61185 0.37746 0.12989 0.04200
H 	H 	0.83741 0.38728 0.24881 0.04900
C 	C 	0.89687 0.82935 0.47560 -0.02000
C 	C 	0.84798 0.78229 0.44440 0.11000
C 	C 	0.81895 0.71816 0.44514 -0.06400
C 	C 	0.84064 0.70036 0.47553 0.01100
C 	C 	0.89062 0.74743 0.50618 0.10500
C 	C 	0.91698 0.81133 0.50670 -0.05300
H 	H 	0.78120 0.68215 0.42120 0.08300
C 	C 	0.81467 0.63294 0.47307 0.02900
H 	H 	0.95493 0.84729 0.53057 0.07700
C 	C 	0.82934 0.60488 0.44448 -0.08600
C 	C 	0.80091 0.53989 0.43909 0.14800
C 	C 	0.76075 0.50299 0.46461 -0.09400
C 	C 	0.74723 0.53161 0.49378 -0.01200
C 	C 	0.77228 0.59568 0.49727 0.08700
H 	H 	0.86083 0.63315 0.42524 0.08900
H 	H 	0.71577 0.50359 0.51311 0.07000
Br	Br	0.92626 0.72584 0.54620 -0.19200
Br	Br	0.82409 0.80458 0.39888 -0.18800
Br	Br	0.81159 0.50187 0.39386 -0.21400
Br	Br	0.74533 0.63046 0.53380 -0.18600
C 	C 	0.89628 0.01663 0.46782 -0.02100
C 	C 	0.88131 0.02762 0.43121 0.11000
C 	C 	0.85500 0.06061 0.42860 -0.06200
C 	C 	0.84271 0.08211 0.46218 0.01000
C 	C 	0.85449 0.06812 0.49843 0.10500
C 	C 	0.88162 0.03591 0.50113 -0.05300
H 	H 	0.84473 0.07012 0.40053 0.08400
C 	C 	0.81852 0.12010 0.45930 0.03000
H 	H 	0.89231 0.02679 0.52926 0.07600
C 	C 	0.75308 0.08938 0.44681 -0.08700
C 	C 	0.72883 0.12441 0.44618 0.15100
C 	C 	0.77018 0.19079 0.45903 -0.10400
C 	C 	0.83610 0.22178 0.46941 -0.01000
C 	C 	0.86044 0.18681 0.46938 0.08300
H 	H 	0.72099 0.03821 0.43778 0.08900
H 	H 	0.86829 0.27291 0.47865 0.06500
Br	Br	0.83420 0.09303 0.54454 -0.20500
Br	Br	0.89596 0.99742 0.38444 -0.17400
Br	Br	0.63984 0.08121 0.42567 -0.22300
Br	Br	0.95093 0.23086 0.48365 -0.19400
C 	C 	0.09840 0.03938 0.47141 -0.02100
C 	C 	0.12031 0.04407 0.43576 0.11000
C 	C 	0.18587 0.07999 0.43585 -0.06200
C 	C 	0.22988 0.11127 0.47128 0.01000
C 	C 	0.20800 0.10767 0.50688 0.10400
C 	C 	0.14244 0.07168 0.50679 -0.05400
H 	H 	0.20262 0.08302 0.40840 0.08400
C 	C 	0.29863 0.14628 0.47091 0.03100
H 	H 	0.12567 0.06841 0.53424 0.07600
C 	C 	0.33507 0.21051 0.46785 -0.08400
C 	C 	0.40023 0.24425 0.46703 0.15100
C 	C 	0.42921 0.21331 0.46882 -0.09900
C 	C 	0.39288 0.14929 0.47242 -0.00800
C 	C 	0.32780 0.11563 0.47330 0.08200
H 	H 	0.31281 0.23434 0.46637 0.09000
H 	H 	0.41507 0.12540 0.47402 0.06100
Br	Br	0.26698 0.15100 0.55587 -0.20000
Br	Br	0.06134 0.00151 0.38673 -0.18500
Br	Br	0.44936 0.33315 0.46532 -0.21100
Br	Br	0.27940 0.02776 0.47763 -0.19900
C 	C 	0.76697 0.55455 0.98110 -0.09700
C 	C 	0.83367 0.59536 0.98391 0.14800
C 	C 	0.86453 0.65994 0.98376 -0.08300
C 	C 	0.82943 0.68430 0.98110 0.02900
C 	C 	0.76265 0.64329 0.97752 0.08400
C 	C 	0.73178 0.57875 0.97761 -0.00500
H 	H 	0.91596 0.69144 0.98637 0.08900
C 	C 	0.86309 0.75290 0.98281 0.01400
H 	H 	0.68037 0.54738 0.97517 0.07000
C 	C 	0.87372 0.77716 0.94809 -0.06400
C 	C 	0.90743 0.84240 0.94929 0.11300
C 	C 	0.93104 0.88395 0.98553 -0.02300
C 	C 	0.91925 0.85957 0.02017 -0.05200
C 	C 	0.88554 0.79433 0.01899 0.10100
H 	H 	0.85607 0.74529 0.92019 0.08400
H 	H 	0.93731 0.89148 0.04809 0.08400
Br	Br	0.71298 0.67481 0.97299 -0.18600
Br	Br	0.88372 0.56440 0.98976 -0.22100
Br	Br	0.92138 0.87407 0.90120 -0.20600
Br	Br	0.87113 0.76263 0.06706 -0.19000
C 	C 	0.78697 0.21774 0.98771 -0.10300
C 	C 	0.85420 0.25923 0.99754 0.15100
C 	C 	0.88897 0.23458 0.99845 -0.08200
C 	C 	0.85730 0.16881 0.99027 0.02800
C 	C 	0.79012 0.12733 0.98233 0.08400
C 	C 	0.75534 0.15190 0.98095 -0.01000
H 	H 	0.94067 0.26656 0.00550 0.08700
C 	C 	0.89472 0.14369 0.98996 0.01400
H 	H 	0.70366 0.11976 0.97380 0.06500
C 	C 	0.91515 0.13355 0.02500 -0.06500
C 	C 	0.94649 0.10533 0.02479 0.11100
C 	C 	0.95732 0.08675 0.98921 -0.02000
C 	C 	0.93893 0.09896 0.95437 -0.05100
C 	C 	0.90800 0.12760 0.95461 0.10500
H 	H 	0.90580 0.14672 0.05231 0.08400
H 	H 	0.94783 0.08532 0.92701 0.08000
Br	Br	0.74511 0.03696 0.97294 -0.19200
Br	Br	0.89917 0.34931 0.01200 -0.21500
Br	Br	0.97418 0.09248 0.07334 -0.19100
Br	Br	0.88346 0.14362 0.90637 -0.20000
C 	C 	0.47462 0.22387 0.99943 -0.09100
C 	C 	0.43751 0.17667 0.02142 0.14300
C 	C 	0.37215 0.14802 0.01752 -0.08800
C 	C 	0.34359 0.16738 0.99312 0.03000
C 	C 	0.38064 0.21520 0.97184 0.08500
C 	C 	0.44529 0.24194 0.97428 -0.01500
H 	H 	0.34376 0.11166 0.03425 0.08600
C 	C 	0.27545 0.13917 0.99133 0.01200
H 	H 	0.47312 0.27785 0.95717 0.06700
C 	C 	0.25651 0.15740 0.02271 -0.06700
C 	C 	0.19192 0.12948 0.02228 0.10800
C 	C 	0.14574 0.08441 0.98947 -0.02100
C 	C 	0.16490 0.06704 0.95781 -0.05300
C 	C 	0.22919 0.09301 0.95900 0.10500
H 	H 	0.29197 0.19238 0.04783 0.08100
H 	H 	0.12948 0.03186 0.93273 0.08000
Br	Br	0.34435 0.24636 0.94041 -0.19300
Br	Br	0.47515 0.15333 0.05890 -0.21900
Br	Br	0.16750 0.15052 0.06775 -0.19900
Br	Br	0.25259 0.06297 0.91697 -0.19600
