data_crystal

_cell_length_a 18.68708
_cell_length_b 18.82040
_cell_length_c 31.30545
_cell_angle_alpha 95.43875
_cell_angle_beta  95.43867
_cell_angle_gamma 126.42645

_symmetry_space_group_name_	'P 1'
_symmetry_space_group_name_H-M	'P 1'

loop_
_symmetry_equiv_pos_as_xyz
  x,y,z

loop_
_atom_site_label
_atom_site_type_symbol
_atom_site_fract_x
_atom_site_fract_y
_atom_site_fract_z
_atom_site_charge
C 	C 	0.91358 0.00711 0.97411 0.10000
C 	C 	0.86383 0.91337 0.97015 -0.06800
C 	C 	0.90791 0.87370 0.96637 0.10600
C 	C 	0.00059 0.92749 0.96508 -0.07200
C 	C 	0.05068 0.02112 0.97050 0.10200
C 	C 	0.00739 0.06082 0.97608 -0.07600
H 	H 	0.79163 0.87175 0.96985 0.09400
H 	H 	0.03388 0.89660 0.96046 0.09400
H 	H 	0.04621 0.13332 0.98056 0.09500
C 	C 	0.95190 0.03489 0.49658 0.10100
C 	C 	0.04369 0.07994 0.49443 -0.07500
C 	C 	0.08023 0.03284 0.49408 0.10400
C 	C 	0.02468 0.94083 0.49495 -0.07400
C 	C 	0.93392 0.89660 0.49834 0.10800
C 	C 	0.89794 0.94394 0.49989 -0.07300
H 	H 	0.08608 0.15077 0.49267 0.09500
H 	H 	0.05258 0.90412 0.49394 0.09200
H 	H 	0.82729 0.90934 0.50208 0.09400
Cu	Cu	0.75208 0.34151 0.95291 0.93400
Cu	Cu	0.72835 0.27362 0.04639 0.89100
Cu	Cu	0.61585 0.31992 0.00651 0.90500
Cu	Cu	0.57501 0.31687 0.91100 0.91500
C 	C 	0.69032 0.29836 0.85974 0.31200
O 	O 	0.79407 0.46803 0.94676 -0.33200
C 	C 	0.66248 0.34414 0.10212 0.28600
O 	O 	0.61162 0.26757 0.94852 -0.63300
O 	O 	0.74313 0.36291 0.01421 -0.63900
O 	O 	0.81716 0.28826 0.96323 -0.33700
O 	O 	0.71161 0.18953 0.00011 -0.40800
O 	O 	0.65058 0.33611 0.86631 -0.35400
O 	O 	0.49424 0.28825 0.99725 -0.34800
C 	C 	0.43073 0.23684 0.96214 0.33000
C 	C 	0.74796 0.49830 0.95664 0.31700
O 	O 	0.66127 0.44168 0.95828 -0.37100
O 	O 	0.45116 0.23887 0.92293 -0.35900
O 	O 	0.74122 0.29962 0.89239 -0.33200
C 	C 	0.77750 0.21331 0.97882 0.33200
O 	O 	0.62190 0.35430 0.06887 -0.34100
O 	O 	0.72675 0.33565 0.09784 -0.38500
H 	H 	0.57414 0.20110 0.94280 0.18100
H 	H 	0.78769 0.42580 0.03003 0.20100
Cu	Cu	0.61654 0.19383 0.50403 0.93400
Cu	Cu	0.67835 0.20719 0.40872 0.89300
Cu	Cu	0.66700 0.34368 0.45339 0.90600
Cu	Cu	0.62878 0.36172 0.54294 0.91000
C 	C 	0.65958 0.25692 0.59708 0.29100
O 	O 	0.48634 0.14162 0.50747 -0.33800
C 	C 	0.63047 0.29345 0.35650 0.31000
O 	O 	0.69392 0.33471 0.51216 -0.63800
O 	O 	0.59991 0.21066 0.44333 -0.63700
O 	O 	0.67091 0.13054 0.49443 -0.34700
O 	O 	0.76707 0.23029 0.45476 -0.41300
O 	O 	0.62139 0.29688 0.59121 -0.35000
O 	O 	0.74005 0.47272 0.46703 -0.36000
C 	C 	0.73258 0.51898 0.49825 0.33800
C 	C 	0.45331 0.18428 0.49720 0.32800
O 	O 	0.50811 0.26878 0.49357 -0.37000
O 	O 	0.67688 0.47979 0.52577 -0.36000
O 	O 	0.65110 0.20018 0.56483 -0.33100
C 	C 	0.74618 0.16963 0.47889 0.33700
O 	O 	0.65744 0.35520 0.39132 -0.35200
O 	O 	0.61905 0.21829 0.35986 -0.38700
H 	H 	0.75939 0.37120 0.52455 0.18600
H 	H 	0.53642 0.17603 0.42791 0.20200
C 	C 	0.71169 0.26160 0.73260 0.03100
C 	C 	0.76943 0.33909 0.71553 -0.03900
C 	C 	0.75723 0.33601 0.67044 0.02200
C 	C 	0.70027 0.28102 0.81590 -0.06200
C 	C 	0.63555 0.17596 0.65892 0.02800
C 	C 	0.64727 0.17925 0.70409 -0.04100
C 	C 	0.70660 0.27026 0.77824 0.06100
C 	C 	0.68778 0.25520 0.64212 -0.05600
H 	H 	0.82004 0.40288 0.73730 0.07400
H 	H 	0.79864 0.39735 0.65774 0.05000
H 	H 	0.58211 0.11302 0.63729 0.06300
H 	H 	0.60280 0.11883 0.71697 0.07100
C 	C 	0.62779 0.34927 0.23388 0.02600
C 	C 	0.55214 0.29020 0.20036 -0.04000
C 	C 	0.56134 0.29451 0.15661 0.01500
C 	C 	0.62554 0.31403 0.31380 -0.07200
C 	C 	0.72005 0.42134 0.17986 0.02200
C 	C 	0.71065 0.41747 0.22353 -0.04200
C 	C 	0.62474 0.33061 0.27754 0.05900
C 	C 	0.64648 0.35711 0.14624 -0.05900
H 	H 	0.48750 0.23793 0.20807 0.07200
H 	H 	0.50378 0.24537 0.13090 0.06200
H 	H 	0.78573 0.47108 0.17220 0.06000
H 	H 	0.76915 0.46425 0.24925 0.06900
C 	C 	0.81464 0.73700 0.46183 0.06900
C 	C 	0.87618 0.80002 0.49958 -0.03800
C 	C 	0.88657 0.77051 0.53772 0.06900
C 	C 	0.84130 0.67835 0.53699 0.12000
C 	C 	0.77950 0.61528 0.49927 -0.11600
C 	C 	0.76316 0.64469 0.46242 0.12100
Br	Br	0.66686 0.55878 0.41380 -0.16100
Br	Br	0.80416 0.77716 0.40875 -0.14100
Br	Br	0.86783 0.63884 0.58665 -0.18700
Br	Br	0.96157 0.85646 0.59108 -0.13700
C 	C 	0.90477 0.12425 0.52878 0.06800
C 	C 	0.90989 0.08030 0.49156 -0.03700
C 	C 	0.86424 0.06907 0.45012 0.06800
C 	C 	0.80692 0.09415 0.44631 0.12200
C 	C 	0.80090 0.13734 0.48355 -0.12300
C 	C 	0.85130 0.15400 0.52469 0.12200
Br	Br	0.84868 0.21927 0.57512 -0.17700
Br	Br	0.97026 0.14257 0.58530 -0.14600
Br	Br	0.73240 0.06442 0.39057 -0.23300
Br	Br	0.88089 0.01963 0.39856 -0.14000
C 	C 	0.29962 0.11837 0.45610 0.11800
C 	C 	0.35689 0.14195 0.49607 -0.11700
C 	C 	0.32453 0.13518 0.53551 0.11600
C 	C 	0.23585 0.10676 0.53502 0.06900
C 	C 	0.17767 0.08025 0.49500 -0.03800
C 	C 	0.20988 0.08713 0.45556 0.06900
Br	Br	0.13045 0.05262 0.40084 -0.14600
Br	Br	0.34378 0.12748 0.40209 -0.19000
Br	Br	0.19370 0.10447 0.58919 -0.14100
Br	Br	0.40156 0.16448 0.59022 -0.17800
C 	C 	0.84926 0.74041 0.00233 0.07200
C 	C 	0.85748 0.77558 0.96373 -0.03700
C 	C 	0.82898 0.71941 0.92287 0.07000
C 	C 	0.79673 0.62961 0.92065 0.11600
C 	C 	0.78969 0.59469 0.95928 -0.10900
C 	C 	0.81457 0.64981 0.00008 0.11700
Br	Br	0.80169 0.60133 0.05286 -0.19300
Br	Br	0.88732 0.81705 0.05829 -0.13800
Br	Br	0.76192 0.55440 0.86466 -0.17000
Br	Br	0.83416 0.76587 0.86995 -0.14200
C 	C 	0.85192 0.15528 0.01635 0.12000
C 	C 	0.81364 0.16155 0.97719 -0.11900
C 	C 	0.80170 0.11109 0.93722 0.12200
C 	C 	0.83020 0.05645 0.93634 0.06500
C 	C 	0.86790 0.04984 0.97559 -0.03500
C 	C 	0.87550 0.09676 0.01567 0.06800
Br	Br	0.91823 0.08047 0.06966 -0.14800
Br	Br	0.87669 0.23060 0.07060 -0.23600
Br	Br	0.81969 0.99227 0.88135 -0.13000
Br	Br	0.74447 0.11514 0.88388 -0.16900
C 	C 	0.18072 0.12781 0.93556 0.06800
C 	C 	0.14843 0.07775 0.96908 -0.03600
C 	C 	0.20991 0.08306 0.00160 0.06900
C 	C 	0.30149 0.13103 0.99800 0.12100
C 	C 	0.33458 0.18587 0.96616 -0.11300
C 	C 	0.27425 0.18849 0.93687 0.12100
Br	Br	0.31963 0.28159 0.90237 -0.16300
Br	Br	0.09710 0.10853 0.88621 -0.14300
Br	Br	0.37895 0.11526 0.03414 -0.21700
Br	Br	0.17005 0.02949 0.05227 -0.15400
