data_crystal

_cell_length_a 18.65199
_cell_length_b 18.85819
_cell_length_c 26.69159
_cell_angle_alpha 95.43753
_cell_angle_beta  95.43440
_cell_angle_gamma 126.37314

_symmetry_space_group_name_	'P 1'
_symmetry_space_group_name_H-M	'P 1'

loop_
_symmetry_equiv_pos_as_xyz
  x,y,z

loop_
_atom_site_label
_atom_site_type_symbol
_atom_site_fract_x
_atom_site_fract_y
_atom_site_fract_z
_atom_site_charge
C 	C 	0.94443 0.03429 0.00907 0.02600
C 	C 	0.88516 0.94055 0.00338 -0.06100
C 	C 	0.91810 0.89068 0.99785 0.02200
C 	C 	0.01030 0.93414 0.99818 -0.07300
C 	C 	0.07020 0.02757 0.00405 0.03400
C 	C 	0.03738 0.07795 0.00953 -0.06500
H 	H 	0.81331 0.90638 0.00226 0.05600
H 	H 	0.03545 0.89517 0.99373 0.05700
H 	H 	0.08355 0.15032 0.01372 0.05800
C 	C 	0.91845 0.01022 0.44183 0.03000
C 	C 	0.01335 0.06787 0.44822 -0.06800
C 	C 	0.06262 0.03405 0.45356 0.03000
C 	C 	0.01753 0.94249 0.45242 -0.06900
C 	C 	0.92294 0.88390 0.44591 0.02800
C 	C 	0.87295 0.91768 0.44078 -0.06800
H 	H 	0.04894 0.13922 0.44990 0.05700
H 	H 	0.05615 0.91675 0.45663 0.05800
H 	H 	0.79972 0.87267 0.43624 0.05600
Cu	Cu	0.61244 0.20269 0.01163 0.93200
Cu	Cu	0.67994 0.20024 0.90280 0.88800
Cu	Cu	0.65155 0.33491 0.93958 0.90100
Cu	Cu	0.60086 0.36036 0.03979 0.90400
C 	C 	0.63284 0.27214 0.11739 0.39400
O 	O 	0.47809 0.14150 0.01111 -0.33700
C 	C 	0.63638 0.27244 0.82937 0.37800
O 	O 	0.67742 0.33985 0.01194 -0.63200
O 	O 	0.59618 0.20499 0.93731 -0.63800
O 	O 	0.67829 0.14858 0.01209 -0.34600
O 	O 	0.76952 0.23915 0.96072 -0.42200
O 	O 	0.58966 0.30403 0.10140 -0.36800
O 	O 	0.71166 0.46248 0.94749 -0.36400
C 	C 	0.70406 0.50964 0.98351 0.28600
C 	C 	0.43845 0.17445 0.99167 0.28000
O 	O 	0.48843 0.25515 0.98120 -0.38600
O 	O 	0.64155 0.47023 0.01212 -0.37500
O 	O 	0.64567 0.22484 0.08492 -0.34500
C 	C 	0.75291 0.18538 0.99305 0.27400
O 	O 	0.64631 0.33380 0.86451 -0.35100
O 	O 	0.61911 0.19825 0.84106 -0.38700
H 	H 	0.74239 0.38291 0.02804 0.18200
H 	H 	0.53269 0.16373 0.91848 0.18300
Cu	Cu	0.76094 0.35133 0.44051 0.92900
Cu	Cu	0.76947 0.29060 0.55087 0.88900
Cu	Cu	0.62813 0.31139 0.51381 0.90300
Cu	Cu	0.59673 0.35705 0.41264 0.90600
C 	C 	0.68055 0.31925 0.33518 0.38800
O 	O 	0.81939 0.48395 0.43950 -0.34000
C 	C 	0.69712 0.33386 0.62432 0.37500
O 	O 	0.62192 0.28489 0.44135 -0.63400
O 	O 	0.76006 0.36952 0.51497 -0.63500
O 	O 	0.81588 0.28561 0.44045 -0.34900
O 	O 	0.72760 0.19902 0.49422 -0.42500
O 	O 	0.65067 0.36456 0.35034 -0.36800
O 	O 	0.49853 0.24873 0.50676 -0.36100
C 	C 	0.44899 0.25299 0.47011 0.29300
C 	C 	0.78406 0.52164 0.45835 0.28000
O 	O 	0.70331 0.47101 0.46975 -0.38300
O 	O 	0.48698 0.31571 0.44196 -0.37700
O 	O 	0.73723 0.31651 0.36717 -0.33800
C 	C 	0.77963 0.21297 0.46081 0.28600
O 	O 	0.63123 0.31738 0.58916 -0.35000
O 	O 	0.77249 0.35315 0.61182 -0.38500
H 	H 	0.57946 0.22027 0.42589 0.18000
H 	H 	0.80060 0.43288 0.53293 0.18300
C 	C 	0.61977 0.33022 0.75143 0.27200
C 	C 	0.65292 0.29062 0.77731 -0.20400
C 	C 	0.70146 0.26691 0.75305 0.26700
C 	C 	0.71457 0.28005 0.70316 0.26600
C 	C 	0.68187 0.31982 0.67712 -0.20200
C 	C 	0.63444 0.34503 0.70154 0.27100
F 	F 	0.60346 0.38463 0.67728 -0.39400
F 	F 	0.57225 0.35301 0.77417 -0.39400
F 	F 	0.75768 0.25236 0.67965 -0.42000
F 	F 	0.73688 0.23175 0.77815 -0.42200
C 	C 	0.58143 0.23559 0.24962 0.26600
C 	C 	0.66898 0.29173 0.27969 -0.20000
C 	C 	0.74480 0.33160 0.25564 0.27300
C 	C 	0.73292 0.32031 0.20205 0.26900
C 	C 	0.64534 0.26948 0.17227 -0.20200
C 	C 	0.56966 0.22447 0.19617 0.27500
F 	F 	0.48459 0.17233 0.16759 -0.40100
F 	F 	0.50767 0.19447 0.27235 -0.41300
F 	F 	0.80655 0.36256 0.17925 -0.40200
F 	F 	0.82988 0.38538 0.28420 -0.39300
C 	C 	0.85966 0.65198 0.41338 0.01100
C 	C 	0.82533 0.61650 0.45666 -0.07500
C 	C 	0.81663 0.66693 0.49441 0.01100
C 	C 	0.84237 0.75188 0.48907 -0.05400
C 	C 	0.87736 0.78763 0.44603 0.01800
C 	C 	0.88504 0.73682 0.40796 -0.05300
H 	H 	0.86477 0.61311 0.38337 0.05700
H 	H 	0.78929 0.63997 0.52774 0.04400
H 	H 	0.83758 0.79096 0.51911 0.05300
H 	H 	0.91289 0.76409 0.37480 0.05600
C 	C 	0.85192 0.15825 0.41148 0.01400
C 	C 	0.80617 0.15305 0.45154 -0.07800
C 	C 	0.78711 0.09135 0.48395 0.01000
C 	C 	0.81802 0.03970 0.47832 -0.05200
C 	C 	0.86802 0.04845 0.44014 0.01900
C 	C 	0.88219 0.10582 0.40563 -0.05300
H 	H 	0.86524 0.20359 0.38536 0.05900
H 	H 	0.75074 0.08528 0.51458 0.04000
H 	H 	0.80658 0.99589 0.50517 0.05100
H 	H 	0.91966 0.11231 0.37550 0.05500
C 	C 	0.21691 0.11272 0.50526 -0.05300
C 	C 	0.16162 0.09414 0.45887 0.02000
C 	C 	0.20069 0.12791 0.41647 -0.05400
C 	C 	0.29437 0.17906 0.42013 0.01500
C 	C 	0.35005 0.19755 0.46644 -0.07400
C 	C 	0.31083 0.16431 0.50910 0.01700
H 	H 	0.18701 0.08660 0.53817 0.05700
H 	H 	0.15824 0.11311 0.38040 0.05500
H 	H 	0.32366 0.20363 0.38681 0.04500
H 	H 	0.35295 0.17881 0.54522 0.05900
C 	C 	0.82249 0.75449 0.03516 -0.04900
C 	C 	0.85642 0.79280 0.99262 0.01400
C 	C 	0.83818 0.73787 0.94648 -0.05400
C 	C 	0.78800 0.64529 0.94324 0.01700
C 	C 	0.75571 0.60696 0.98623 -0.08200
C 	C 	0.77260 0.66207 0.03207 0.02100
H 	H 	0.83678 0.79664 0.07099 0.05200
H 	H 	0.86416 0.76714 0.91342 0.05600
H 	H 	0.77429 0.60352 0.90739 0.05800
H 	H 	0.74837 0.63344 0.06557 0.03800
C 	C 	0.91726 0.13466 0.97191 -0.06000
C 	C 	0.90762 0.08554 0.01042 0.02700
C 	C 	0.85290 0.07580 0.04612 -0.05300
C 	C 	0.80418 0.11038 0.04145 0.01400
C 	C 	0.81025 0.15560 0.00124 -0.06200
C 	C 	0.86919 0.16970 0.96739 0.00200
H 	H 	0.95918 0.14262 0.94416 0.05200
H 	H 	0.84593 0.03904 0.07648 0.05500
H 	H 	0.76088 0.10082 0.06860 0.05800
H 	H 	0.87561 0.20531 0.93652 0.04000
C 	C 	0.21866 0.06349 0.04026 -0.05400
C 	C 	0.16683 0.07177 0.00305 0.02900
C 	C 	0.20325 0.11029 0.96094 -0.06600
C 	C 	0.29047 0.13978 0.95591 0.01700
C 	C 	0.34221 0.13112 0.99299 -0.08500
C 	C 	0.30570 0.09258 0.03514 0.02400
H 	H 	0.19085 0.03316 0.07272 0.06400
H 	H 	0.16329 0.11565 0.93157 0.05400
H 	H 	0.31813 0.16998 0.92339 0.04200
H 	H 	0.34551 0.08718 0.06458 0.07300
