data_crystal

_cell_length_a 26.43140
_cell_length_b 26.97331
_cell_length_c 40.07604
_cell_angle_alpha 95.50891
_cell_angle_beta  95.51252
_cell_angle_gamma 125.68399

_symmetry_space_group_name_	'P 1'
_symmetry_space_group_name_H-M	'P 1'

loop_
_symmetry_equiv_pos_as_xyz
  x,y,z

loop_
_atom_site_label
_atom_site_type_symbol
_atom_site_fract_x
_atom_site_fract_y
_atom_site_fract_z
_atom_site_charge
C 	C 	0.97129 0.03313 0.99495 0.12400
N 	N 	0.93063 0.97111 0.99450 -0.14100
C 	C 	0.95175 0.93581 0.99315 0.12900
N 	N 	0.01398 0.96278 0.99289 -0.13800
C 	C 	0.05467 0.02453 0.99301 0.13100
N 	N 	0.03322 0.05971 0.99394 -0.14100
C 	C 	0.94012 0.00162 0.47181 0.12500
N 	N 	0.00454 0.03874 0.47655 -0.14100
C 	C 	0.03652 0.01367 0.47906 0.12900
N 	N 	0.00399 0.95141 0.47775 -0.13800
C 	C 	0.93959 0.91425 0.47296 0.12900
N 	N 	0.90781 0.93930 0.46935 -0.14300
Cu	Cu	0.62616 0.23780 0.99437 0.92900
Cu	Cu	0.66809 0.22555 0.92144 0.87000
Cu	Cu	0.68099 0.33848 0.95111 0.89700
Cu	Cu	0.65835 0.36876 0.01978 0.89300
C 	C 	0.65355 0.28645 0.06596 0.28800
O 	O 	0.54122 0.22161 0.99492 -0.36900
C 	C 	0.65163 0.29293 0.87644 0.30700
O 	O 	0.69408 0.33399 0.99829 -0.63700
O 	O 	0.62150 0.24627 0.94605 -0.64300
O 	O 	0.64621 0.17733 0.99049 -0.38300
O 	O 	0.72202 0.23123 0.95897 -0.44600
O 	O 	0.63598 0.32140 0.05799 -0.38600
O 	O 	0.74159 0.42775 0.95916 -0.39100
C 	C 	0.73797 0.46669 0.97942 0.31400
C 	C 	0.52811 0.25745 0.98287 0.30200
O 	O 	0.57437 0.31400 0.97987 -0.40100
O 	O 	0.71433 0.45266 0.00766 -0.40000
O 	O 	0.64603 0.24365 0.04247 -0.36500
C 	C 	0.69820 0.19218 0.98013 0.31000
O 	O 	0.68090 0.34093 0.90204 -0.39000
O 	O 	0.63618 0.23827 0.88094 -0.42200
H 	H 	0.73854 0.35259 0.00850 0.16300
H 	H 	0.57853 0.22810 0.93337 0.17100
Cu	Cu	0.73311 0.33937 0.45152 0.92800
Cu	Cu	0.73560 0.29631 0.52544 0.87000
Cu	Cu	0.63503 0.30809 0.49677 0.89600
Cu	Cu	0.61781 0.34251 0.42953 0.89300
C 	C 	0.68284 0.31849 0.38048 0.30400
O 	O 	0.77247 0.42971 0.45057 -0.36900
C 	C 	0.68067 0.33095 0.57129 0.28700
O 	O 	0.63533 0.29220 0.44928 -0.64200
O 	O 	0.72834 0.35038 0.50047 -0.64100
O 	O 	0.77943 0.30175 0.45363 -0.37700
O 	O 	0.71905 0.23671 0.48819 -0.44500
O 	O 	0.65901 0.34836 0.38921 -0.38500
O 	O 	0.54372 0.26245 0.48968 -0.38700
C 	C 	0.50941 0.26616 0.46517 0.30600
C 	C 	0.74956 0.45744 0.46385 0.30200
O 	O 	0.69019 0.42421 0.46796 -0.39200
O 	O 	0.53631 0.30923 0.44609 -0.39900
O 	O 	0.72072 0.31599 0.40313 -0.36200
C 	C 	0.75962 0.25269 0.46751 0.31000
O 	O 	0.63266 0.30903 0.54590 -0.39000
O 	O 	0.73230 0.33701 0.56590 -0.42200
H 	H 	0.60703 0.24765 0.43844 0.16200
H 	H 	0.75464 0.39403 0.51277 0.17000
C 	C 	0.67270 0.34048 0.60686 -0.09000
C 	C 	0.72529 0.37167 0.63378 0.01100
C 	C 	0.71661 0.37227 0.66764 -0.06700
C 	C 	0.65541 0.34237 0.67498 0.02500
C 	C 	0.60332 0.31494 0.64822 -0.06600
C 	C 	0.61184 0.31393 0.61433 0.01100
C 	C 	0.64532 0.33441 0.71027 0.00100
C 	C 	0.60859 0.27450 0.71796 -0.04100
C 	C 	0.60504 0.26679 0.75185 -0.03300
C 	C 	0.63824 0.31882 0.77830 -0.00900
C 	C 	0.67296 0.37869 0.77064 -0.03300
C 	C 	0.67637 0.38651 0.73671 -0.04100
C 	C 	0.64177 0.31073 0.81323 0.04400
C 	C 	0.64568 0.30303 0.84224 -0.11300
H 	H 	0.77271 0.39395 0.62851 0.03000
H 	H 	0.75723 0.39408 0.68812 0.04400
H 	H 	0.55599 0.29266 0.65366 0.04500
H 	H 	0.57085 0.29063 0.59394 0.03700
H 	H 	0.58450 0.23397 0.69777 0.03800
H 	H 	0.57804 0.22037 0.75759 0.03700
H 	H 	0.69861 0.41915 0.79097 0.03900
H 	H 	0.70436 0.43294 0.73103 0.03900
C 	C 	0.66640 0.28464 0.10229 -0.08600
C 	C 	0.64408 0.22795 0.11268 0.01600
C 	C 	0.65043 0.22554 0.14743 -0.06600
C 	C 	0.67928 0.27971 0.17205 0.02600
C 	C 	0.70376 0.33668 0.16166 -0.06600
C 	C 	0.69743 0.33915 0.12697 0.01300
C 	C 	0.67993 0.27625 0.20859 0.00200
C 	C 	0.73776 0.31038 0.23182 -0.04000
C 	C 	0.73826 0.31376 0.26691 -0.03200
C 	C 	0.68101 0.28293 0.27897 -0.00700
C 	C 	0.62323 0.24658 0.25576 -0.03300
C 	C 	0.62265 0.24320 0.22068 -0.04000
C 	C 	0.68155 0.29366 0.31494 0.04400
C 	C 	0.68204 0.30415 0.34494 -0.10400
H 	H 	0.62012 0.18552 0.09394 0.03900
H 	H 	0.63179 0.18140 0.15522 0.04600
H 	H 	0.72624 0.37878 0.18049 0.04600
H 	H 	0.71564 0.38328 0.11927 0.02300
H 	H 	0.78222 0.33562 0.22273 0.03900
H 	H 	0.78312 0.34178 0.28470 0.04100
H 	H 	0.57878 0.22250 0.26491 0.03700
H 	H 	0.57776 0.21666 0.20297 0.04000
C 	C 	0.80796 0.62569 0.49028 0.00400
C 	C 	0.77734 0.65299 0.48329 -0.03600
C 	C 	0.81279 0.71724 0.48493 -0.04600
C 	C 	0.87944 0.75477 0.49317 0.02100
C 	C 	0.90979 0.72786 0.50192 -0.04700
C 	C 	0.87428 0.66373 0.50073 -0.03600
C 	C 	0.91771 0.82283 0.49448 -0.03000
C 	C 	0.90394 0.84662 0.47030 -0.07500
C 	C 	0.77018 0.55717 0.48659 0.00600
C 	C 	0.78912 0.52599 0.47076 -0.15100
H 	H 	0.72613 0.62436 0.47619 0.03700
H 	H 	0.78846 0.73779 0.47996 0.04200
H 	H 	0.96094 0.75658 0.50943 0.04000
H 	H 	0.89830 0.64366 0.50783 0.03700
H 	H 	0.95885 0.85364 0.51482 0.04100
H 	H 	0.86346 0.81606 0.44962 0.05400
H 	H 	0.72448 0.53191 0.49457 0.03500
H 	H 	0.83401 0.55141 0.46192 0.07700
C 	C 	0.89554 0.11344 0.48137 0.01900
C 	C 	0.90163 0.14878 0.51162 -0.04800
C 	C 	0.86633 0.17210 0.51257 -0.03700
C 	C 	0.82565 0.16151 0.48308 -0.00100
C 	C 	0.81980 0.12648 0.45267 -0.03500
C 	C 	0.85496 0.10293 0.45175 -0.04700
C 	C 	0.78743 0.18516 0.48470 0.00900
C 	C 	0.78785 0.21943 0.46231 -0.16000
C 	C 	0.93305 0.08890 0.48074 -0.02800
C 	C 	0.90482 0.02835 0.46893 -0.08200
H 	H 	0.93318 0.15757 0.53452 0.03800
H 	H 	0.87087 0.19873 0.53620 0.03000
H 	H 	0.78779 0.11716 0.42986 0.03800
H 	H 	0.85073 0.07665 0.42807 0.04100
H 	H 	0.76424 0.17999 0.50646 0.01900
H 	H 	0.81406 0.22741 0.44165 0.08100
H 	H 	0.98283 0.11933 0.49285 0.04100
H 	H 	0.85409 0.99734 0.45890 0.06000
C 	C 	0.34052 0.15257 0.48136 0.00300
C 	C 	0.31366 0.15259 0.50990 -0.03600
C 	C 	0.24774 0.11431 0.50732 -0.04800
C 	C 	0.20803 0.07539 0.47615 0.02400
C 	C 	0.23494 0.07441 0.44781 -0.04900
C 	C 	0.30084 0.11286 0.45035 -0.03500
C 	C 	0.13832 0.03306 0.47347 -0.03800
C 	C 	0.10648 0.05451 0.48401 -0.07200
C 	C 	0.41038 0.19103 0.48479 0.00700
C 	C 	0.43972 0.22792 0.46226 -0.14700
H 	H 	0.34386 0.18217 0.53410 0.03800
H 	H 	0.22761 0.11427 0.52964 0.04200
H 	H 	0.20480 0.04382 0.42381 0.04100
H 	H 	0.32104 0.11109 0.42839 0.03600
H 	H 	0.11251 0.98511 0.46048 0.05100
H 	H 	0.13207 0.10361 0.49452 0.05400
H 	H 	0.43804 0.19134 0.50682 0.03900
H 	H 	0.41196 0.23018 0.44145 0.07400
C 	C 	0.87570 0.76256 0.98251 0.02400
C 	C 	0.85349 0.71768 0.95308 -0.04800
C 	C 	0.81495 0.65455 0.95470 -0.03500
C 	C 	0.79976 0.63586 0.98604 0.00400
C 	C 	0.82121 0.68072 0.01535 -0.03700
C 	C 	0.85946 0.74382 0.01369 -0.04900
C 	C 	0.76042 0.56936 0.98830 0.01100
C 	C 	0.77347 0.53151 0.97451 -0.15000
C 	C 	0.91896 0.82911 0.98095 -0.03100
C 	C 	0.90772 0.86901 0.99371 -0.07300
H 	H 	0.86583 0.73173 0.92892 0.04100
H 	H 	0.79695 0.62024 0.93165 0.03900
H 	H 	0.80917 0.66672 0.03955 0.03700
H 	H 	0.87721 0.77815 0.03670 0.04200
H 	H 	0.72346 0.55233 0.00353 0.03100
H 	H 	0.81066 0.54856 0.95946 0.07800
H 	H 	0.95871 0.84505 0.96793 0.04300
H 	H 	0.86481 0.85190 0.00393 0.05200
C 	C 	0.86593 0.08595 0.00155 0.01800
C 	C 	0.80152 0.05232 0.98714 -0.04500
C 	C 	0.77451 0.08327 0.98197 -0.03800
C 	C 	0.81147 0.14819 0.99190 0.00400
C 	C 	0.87566 0.18173 0.00688 -0.04000
C 	C 	0.90267 0.15073 0.01204 -0.04600
C 	C 	0.78468 0.18175 0.98402 0.00600
C 	C 	0.72778 0.16256 0.99097 -0.15600
C 	C 	0.89416 0.05274 0.00610 -0.03300
C 	C 	0.94788 0.07111 0.99488 -0.07300
H 	H 	0.77269 0.00228 0.97927 0.03900
H 	H 	0.72526 0.05699 0.96965 0.03500
H 	H 	0.90461 0.23183 0.01449 0.03600
H 	H 	0.95207 0.17699 0.02407 0.03900
H 	H 	0.81240 0.22326 0.97308 0.03100
H 	H 	0.70248 0.12407 0.00441 0.07600
H 	H 	0.97431 0.11414 0.98512 0.05100
C 	C 	0.22882 0.13445 0.98583 0.02400
C 	C 	0.25509 0.14738 0.95622 -0.04800
C 	C 	0.31714 0.16650 0.95698 -0.03600
C 	C 	0.35362 0.17380 0.98755 0.00500
C 	C 	0.32814 0.16335 0.01742 -0.03800
C 	C 	0.26629 0.14442 0.01667 -0.04900
C 	C 	0.41643 0.18738 0.98797 0.01000
C 	C 	0.46222 0.23714 0.97654 -0.15200
C 	C 	0.16111 0.10712 0.98406 -0.03100
C 	C 	0.12266 0.05364 0.99505 -0.07300
H 	H 	0.22674 0.14047 0.93239 0.04100
H 	H 	0.33619 0.17397 0.93369 0.03700
H 	H 	0.35605 0.16918 0.04114 0.03900
H 	H 	0.24693 0.13606 0.03987 0.04300
H 	H 	0.42723 0.16015 0.00096 0.03800
H 	H 	0.45199 0.26585 0.96484 0.07400
H 	H 	0.14194 0.12859 0.97184 0.04400
H 	H 	0.14128 0.02974 0.00452 0.05300
H 	H 	0.86784 0.00983 0.01599 0.04200
