data_crystal

_cell_length_a 13.42465
_cell_length_b 13.73174
_cell_length_c 33.66939
_cell_angle_alpha 89.87227
_cell_angle_beta  89.87546
_cell_angle_gamma 120.00924

_symmetry_space_group_name_	'P 1'
_symmetry_space_group_name_H-M	'P 1'

loop_
_symmetry_equiv_pos_as_xyz
  x,y,z

loop_
_atom_site_label
_atom_site_type_symbol
_atom_site_fract_x
_atom_site_fract_y
_atom_site_fract_z
_atom_site_charge
H 	H 	0.97584 0.95128 0.70129 0.13700
O 	O 	0.97101 0.01769 0.23399 -0.72300
C 	C 	0.94275 0.42971 0.92529 0.30200
C 	C 	0.47170 0.35457 0.88750 0.30900
C 	C 	0.82864 0.60639 0.93716 0.31800
C 	C 	0.57920 0.15607 0.86779 0.29400
C 	C 	0.55145 0.36484 0.01730 0.34600
C 	C 	0.64374 0.14134 0.99285 0.30400
Ni	Ni	0.71847 0.40227 0.88702 1.11400
Ni	Ni	0.51578 0.22254 0.94560 1.11600
Ni	Ni	0.76232 0.39207 0.98184 1.11700
O 	O 	0.89339 0.44768 0.89382 -0.37400
O 	O 	0.88142 0.36652 0.95550 -0.39400
O 	O 	0.49621 0.26259 0.00202 -0.39200
O 	O 	0.55978 0.37202 0.86520 -0.37400
O 	O 	0.47198 0.33545 0.92563 -0.38700
O 	O 	0.69160 0.24097 0.01099 -0.38200
O 	O 	0.74070 0.54685 0.91405 -0.38300
O 	O 	0.86109 0.55614 0.96327 -0.39000
O 	O 	0.55568 0.11030 0.96824 -0.37900
O 	O 	0.67611 0.25115 0.86014 -0.37100
O 	O 	0.49560 0.15472 0.88972 -0.38000
O 	O 	0.65548 0.43815 0.00534 -0.38800
O 	O 	0.67436 0.32361 0.93544 -0.71500
H 	H 	0.69881 0.26830 0.92996 0.15600
C 	C 	0.88910 0.44601 0.60453 0.30700
C 	C 	0.42963 0.23779 0.54264 0.30800
C 	C 	0.70224 0.14821 0.56753 0.31600
C 	C 	0.57841 0.51249 0.56801 0.31600
C 	C 	0.67638 0.26574 0.45165 0.34000
C 	C 	0.89946 0.57791 0.48869 0.31400
Ni	Ni	0.63824 0.32374 0.58871 1.11300
Ni	Ni	0.63790 0.42179 0.49990 1.11900
Ni	Ni	0.82648 0.35452 0.52165 1.11700
O 	O 	0.78825 0.42404 0.61899 -0.37600
O 	O 	0.89759 0.38012 0.57737 -0.38400
O 	O 	0.59973 0.29091 0.46433 -0.39200
O 	O 	0.50190 0.20938 0.55583 -0.39100
O 	O 	0.46807 0.32739 0.51937 -0.37200
O 	O 	0.93309 0.51475 0.50763 -0.39000
O 	O 	0.68446 0.20054 0.59690 -0.37200
O 	O 	0.71984 0.18922 0.53164 -0.39800
O 	O 	0.79334 0.53298 0.47257 -0.37700
O 	O 	0.57466 0.43793 0.59477 -0.37200
O 	O 	0.64520 0.54060 0.53623 -0.38700
O 	O 	0.78382 0.32465 0.46347 -0.40100
O 	O 	0.71683 0.39234 0.54113 -0.71200
H 	H 	0.76780 0.46958 0.55061 0.15700
C 	C 	0.78627 0.90722 0.66639 0.29600
C 	C 	0.96883 0.85162 0.81338 0.30000
C 	C 	0.73247 0.94472 0.77502 0.31400
C 	C 	0.02944 0.79062 0.70173 0.30200
C 	C 	0.11461 0.19042 0.78802 0.31800
C 	C 	0.14180 0.14149 0.67628 0.28100
Ni	Ni	0.83562 0.81463 0.73867 1.11200
Ni	Ni	0.11056 0.99951 0.74848 1.12300
Ni	Ni	0.93620 0.08414 0.72497 1.11100
O 	O 	0.78626 0.81707 0.68045 -0.37700
O 	O 	0.79551 0.98773 0.69051 -0.37600
O 	O 	0.10884 0.09343 0.79320 -0.40000
O 	O 	0.86525 0.81031 0.79865 -0.37900
O 	O 	0.05645 0.87515 0.78979 -0.36700
O 	O 	0.04197 0.14017 0.67733 -0.38000
O 	O 	0.71000 0.85531 0.75406 -0.37200
O 	O 	0.83565 0.03463 0.77436 -0.39500
O 	O 	0.19040 0.13101 0.70940 -0.38300
O 	O 	0.93777 0.74296 0.72537 -0.37900
O 	O 	0.11811 0.89155 0.70943 -0.38400
O 	O 	0.06427 0.20814 0.75747 -0.38500
O 	O 	0.96246 0.96033 0.72940 -0.71200
C 	C 	0.38662 0.60837 0.53167 0.31800
C 	C 	0.49058 0.98458 0.42789 0.34600
C 	C 	0.17973 0.72251 0.49277 0.33200
C 	C 	0.67983 0.88099 0.45836 0.29700
C 	C 	0.24901 0.67634 0.37778 0.31700
C 	C 	0.39218 0.51799 0.40097 0.30100
Ni	Ni	0.44238 0.82775 0.49493 1.11100
Ni	Ni	0.48672 0.77101 0.40457 1.12500
Ni	Ni	0.26718 0.58400 0.45429 1.11900
O 	O 	0.45116 0.71854 0.53625 -0.36800
O 	O 	0.28494 0.56570 0.51383 -0.38500
O 	O 	0.35525 0.75944 0.37350 -0.38700
O 	O 	0.41626 0.92970 0.45610 -0.39100
O 	O 	0.54810 0.94094 0.41094 -0.37900
O 	O 	0.35381 0.50662 0.43782 -0.39700
O 	O 	0.27265 0.76567 0.51558 -0.37400
O 	O 	0.16530 0.65148 0.46428 -0.37600
O 	O 	0.45943 0.61916 0.38488 -0.37700
O 	O 	0.62407 0.91532 0.48281 -0.35100
O 	O 	0.62308 0.79279 0.43552 -0.38700
O 	O 	0.22563 0.58356 0.39685 -0.39600
O 	O 	0.40852 0.72176 0.45436 -0.71200
H 	H 	0.45360 0.68929 0.46483 0.15000
C 	C 	0.55273 0.57959 0.06709 0.32100
C 	C 	0.14326 0.61145 0.09892 0.30800
C 	C 	0.25530 0.41430 0.05512 0.29800
C 	C 	0.43491 0.85763 0.11557 0.30900
C 	C 	0.21469 0.60722 0.97400 0.35600
C 	C 	0.53351 0.86630 0.99460 0.30000
Ni	Ni	0.37430 0.61867 0.10421 1.11400
Ni	Ni	0.31183 0.75979 0.04012 1.12000
Ni	Ni	0.41657 0.60999 0.00524 1.12200
O 	O 	0.53147 0.62373 0.09845 -0.37300
O 	O 	0.55794 0.62190 0.03137 -0.37600
O 	O 	0.25717 0.71131 0.98498 -0.41800
O 	O 	0.21835 0.60520 0.12257 -0.37100
O 	O 	0.16403 0.62840 0.06069 -0.40300
O 	O 	0.50424 0.76574 0.97845 -0.37800
O 	O 	0.29938 0.45196 0.09010 -0.38000
O 	O 	0.32276 0.44605 0.02351 -0.36700
O 	O 	0.46108 0.88247 0.01727 -0.36900
O 	O 	0.45497 0.77795 0.12787 -0.37200
O 	O 	0.34344 0.83394 0.09439 -0.39200
O 	O 	0.28208 0.56578 0.96935 -0.39300
O 	O 	0.38562 0.67444 0.05150 -0.70100
H 	H 	0.46496 0.73669 0.05522 0.13800
C 	C 	0.92916 0.81219 0.17794 0.28500
C 	C 	0.20246 0.20207 0.27828 0.30700
C 	C 	0.04006 0.84376 0.27702 0.33100
C 	C 	0.06713 0.19226 0.16974 0.29000
C 	C 	0.88370 0.01521 0.32507 0.29800
C 	C 	0.74161 0.00240 0.21848 0.28100
Ni	Ni	0.10671 0.02502 0.21545 1.11200
Ni	Ni	0.97298 0.15087 0.25184 1.11300
Ni	Ni	0.84761 0.87965 0.25331 1.12100
O 	O 	0.00585 0.91858 0.17064 -0.37300
O 	O 	0.85989 0.78096 0.20972 -0.37500
O 	O 	0.95687 0.11531 0.31050 -0.39600
O 	O 	0.20803 0.11690 0.26321 -0.38100
O 	O 	0.14550 0.24329 0.25984 -0.37700
O 	O 	0.73301 0.90210 0.22196 -0.37000
O 	O 	0.08724 0.87948 0.24190 -0.38300
O 	O 	0.95293 0.85426 0.28902 -0.40800
O 	O 	0.80107 0.08356 0.24442 -0.38300
O 	O 	0.14735 0.17090 0.18310 -0.36800
O 	O 	0.00251 0.21068 0.19507 -0.37400
O 	O 	0.80554 0.93802 0.30179 -0.38000
H 	H 	0.93684 0.01330 0.20799 0.13300
C 	C 	0.05356 0.31604 0.07121 -0.05200
C 	C 	0.14541 0.30921 0.05465 -0.09000
C 	C 	0.14872 0.21070 0.06310 0.11400
C 	C 	0.10699 0.15819 0.10016 -0.04400
C 	C 	0.05382 0.19961 0.12591 -0.09200
C 	C 	0.01222 0.26797 0.10893 0.12300
N 	N 	0.92862 0.28088 0.12671 -0.21100
H 	H 	0.03037 0.37505 0.05895 0.05200
H 	H 	0.12376 0.09258 0.11005 0.04800
N 	N 	0.20182 0.17393 0.03798 -0.20100
H 	H 	0.90185 0.33349 0.11402 0.08300
H 	H 	0.88395 0.23396 0.15147 0.10200
H 	H 	0.23447 0.21419 0.01074 0.10200
H 	H 	0.20903 0.10363 0.04518 0.08600
C 	C 	0.62065 0.02179 0.11980 -0.05000
C 	C 	0.50603 0.96996 0.13145 -0.09300
C 	C 	0.48381 0.98821 0.17077 0.12300
C 	C 	0.56833 0.01193 0.19972 -0.05100
C 	C 	0.67256 0.01867 0.18840 -0.08800
C 	C 	0.69960 0.02412 0.14727 0.10600
N 	N 	0.79018 0.01453 0.13423 -0.20400
H 	H 	0.64085 0.02811 0.08841 0.05000
H 	H 	0.54934 0.01498 0.23086 0.05400
N 	N 	0.37809 0.96933 0.18148 -0.20200
H 	H 	0.80773 0.01754 0.10384 0.08500
H 	H 	0.84011 0.99812 0.15362 0.09100
H 	H 	0.31419 0.94885 0.16015 0.09400
H 	H 	0.35966 0.97706 0.21110 0.08700
C 	C 	0.00419 0.68134 0.09428 -0.02500
C 	C 	0.04814 0.62392 0.11631 -0.11000
C 	C 	0.01529 0.59799 0.15678 0.13200
C 	C 	0.96076 0.64961 0.17594 -0.06900
C 	C 	0.93775 0.72494 0.15531 -0.07900
C 	C 	0.94906 0.73216 0.11357 0.08700
N 	N 	0.90736 0.78765 0.09198 -0.19600
H 	H 	0.01871 0.69222 0.06249 0.04100
H 	H 	0.94174 0.63566 0.20742 0.05300
N 	N 	0.03267 0.52190 0.17694 -0.20300
H 	H 	0.91913 0.79588 0.06120 0.08700
H 	H 	0.85904 0.81914 0.10538 0.09800
H 	H 	0.05903 0.47166 0.16243 0.10800
H 	H 	0.01273 0.50728 0.20717 0.08700
C 	C 	0.85577 0.90100 0.43053 -0.05200
C 	C 	0.80261 0.95537 0.44825 -0.08300
C 	C 	0.83557 0.06219 0.43284 0.09900
C 	C 	0.86401 0.08302 0.39213 -0.04300
C 	C 	0.86987 0.00055 0.36896 -0.10700
C 	C 	0.86800 0.90789 0.38893 0.11400
N 	N 	0.85735 0.81805 0.36864 -0.19800
H 	H 	0.85375 0.83082 0.44601 0.05100
H 	H 	0.88159 0.16205 0.37883 0.04800
N 	N 	0.85661 0.14760 0.45755 -0.20100
H 	H 	0.87442 0.76013 0.38277 0.09000
H 	H 	0.81194 0.79369 0.34207 0.09400
H 	H 	0.83481 0.13168 0.48748 0.09500
H 	H 	0.90110 0.23074 0.44746 0.07800
C 	C 	0.20912 0.23550 0.35048 -0.04600
C 	C 	0.26803 0.25784 0.31428 -0.09700
C 	C 	0.38129 0.34947 0.31153 0.11300
C 	C 	0.42607 0.42628 0.34304 -0.04400
C 	C 	0.35626 0.41725 0.37573 -0.09100
C 	C 	0.24654 0.31844 0.37986 0.10900
N 	N 	0.17448 0.30528 0.41040 -0.19300
H 	H 	0.12738 0.15896 0.35409 0.05500
H 	H 	0.51299 0.49708 0.34096 0.05200
N 	N 	0.44705 0.36453 0.27880 -0.20000
H 	H 	0.16636 0.37266 0.42048 0.07000
H 	H 	0.11056 0.22461 0.41891 0.08900
H 	H 	0.41807 0.30545 0.25594 0.09700
H 	H 	0.52968 0.43446 0.27646 0.08500
C 	C 	0.13238 0.76485 0.37110 -0.04300
C 	C 	0.15817 0.68404 0.35733 -0.09400
C 	C 	0.13070 0.64527 0.31788 0.11300
C 	C 	0.09591 0.70117 0.29134 -0.03700
C 	C 	0.08691 0.79360 0.30403 -0.10600
C 	C 	0.10930 0.82823 0.34412 0.12200
N 	N 	0.11797 0.92682 0.35599 -0.19900
H 	H 	0.14897 0.79090 0.40192 0.05700
H 	H 	0.07618 0.67294 0.26087 0.04800
N 	N 	0.14011 0.55625 0.30521 -0.20100
H 	H 	0.13042 0.94979 0.38593 0.09200
H 	H 	0.11842 0.98405 0.33547 0.10600
H 	H 	0.15971 0.50949 0.32494 0.10400
H 	H 	0.12412 0.53067 0.27556 0.08600
C 	C 	0.64519 0.18105 0.42569 -0.11900
C 	C 	0.52238 0.09260 0.42172 -0.12700
H 	H 	0.71049 0.16993 0.41092 0.08400
H 	H 	0.45783 0.11739 0.42607 0.08900
C 	C 	0.09341 0.74287 0.50143 -0.10600
C 	C 	0.97967 0.68510 0.48009 -0.12100
H 	H 	0.10655 0.80424 0.52411 0.07000
H 	H 	0.95681 0.73531 0.46141 0.06800
C 	C 	0.43515 0.54441 0.53521 -0.13600
C 	C 	0.50279 0.54906 0.57087 -0.10400
H 	H 	0.40963 0.47544 0.51458 0.08100
H 	H 	0.46819 0.55069 0.59990 0.07200
C 	C 	0.62549 0.95296 0.59068 -0.03400
C 	C 	0.71905 0.05272 0.57617 -0.10400
C 	C 	0.83141 0.06734 0.57859 0.10300
C 	C 	0.84797 0.99026 0.60080 -0.02700
C 	C 	0.75885 0.91172 0.62482 -0.10000
C 	C 	0.64501 0.88092 0.61488 0.12100
N 	N 	0.55492 0.78739 0.63089 -0.19900
H 	H 	0.53850 0.93656 0.58607 0.03600
H 	H 	0.93440 0.00466 0.60499 0.03300
N 	N 	0.92389 0.15837 0.56218 -0.20200
H 	H 	0.47037 0.76693 0.62475 0.09500
H 	H 	0.56849 0.73236 0.64850 0.10000
H 	H 	0.00616 0.16864 0.56484 0.09900
H 	H 	0.91552 0.21921 0.54645 0.06600
C 	C 	0.27925 0.26631 0.57579 -0.04400
C 	C 	0.31823 0.19286 0.56444 -0.10500
C 	C 	0.27574 0.09047 0.58552 0.11100
C 	C 	0.22740 0.07969 0.62345 -0.05900
C 	C 	0.20338 0.16158 0.63780 -0.08900
C 	C 	0.22828 0.25573 0.61343 0.10500
N 	N 	0.20956 0.33874 0.62666 -0.19900
H 	H 	0.29257 0.33401 0.55636 0.05400
H 	H 	0.20777 0.00709 0.64162 0.05300
N 	N 	0.28407 0.00371 0.56985 -0.20300
H 	H 	0.22295 0.40487 0.60781 0.09200
H 	H 	0.18864 0.34232 0.65628 0.09700
H 	H 	0.31276 0.00750 0.54070 0.09700
H 	H 	0.25689 0.92959 0.58608 0.09300
C 	C 	0.00472 0.64955 0.60368 0.00000
C 	C 	0.99122 0.54785 0.61791 -0.13600
C 	C 	0.03625 0.54669 0.65552 0.13800
C 	C 	0.06044 0.63411 0.68225 -0.05100
C 	C 	0.04204 0.72226 0.67093 -0.08200
C 	C 	0.01998 0.73360 0.63058 0.09200
N 	N 	0.00374 0.81907 0.61825 -0.19000
H 	H 	0.97886 0.65344 0.57358 0.03100
H 	H 	0.08530 0.62933 0.71250 0.05600
N 	N 	0.04681 0.45756 0.66717 -0.20600
H 	H 	0.98838 0.82694 0.58832 0.08000
H 	H 	0.00405 0.87719 0.63820 0.08700
H 	H 	0.02766 0.39143 0.64767 0.10300
H 	H 	0.07657 0.45480 0.69558 0.08700
C 	C 	0.10247 0.54303 0.96866 -0.14400
C 	C 	0.05628 0.49182 0.92953 -0.08500
H 	H 	0.04534 0.55280 0.98912 0.07900
H 	H 	0.10995 0.52789 0.90329 0.07700
C 	C 	0.63174 0.95691 0.98265 -0.10700
C 	C 	0.67720 0.06729 0.00303 -0.10800
H 	H 	0.68702 0.94653 0.96153 0.06600
H 	H 	0.74743 0.09257 0.02391 0.06600
C 	C 	0.57166 0.49340 0.07180 -0.10700
C 	C 	0.50494 0.38958 0.04809 -0.13100
H 	H 	0.60267 0.48355 0.10046 0.07400
H 	H 	0.42117 0.32634 0.05911 0.09000
C 	C 	0.59754 0.01746 0.77732 -0.04900
C 	C 	0.63799 0.95105 0.79466 -0.09000
C 	C 	0.60940 0.91673 0.83462 0.10900
C 	C 	0.56985 0.97340 0.85905 -0.04200
C 	C 	0.55307 0.05843 0.84301 -0.09500
C 	C 	0.55136 0.06874 0.80131 0.11400
N 	N 	0.51153 0.13270 0.78451 -0.20200
H 	H 	0.61012 0.03622 0.74579 0.04800
H 	H 	0.56151 0.95795 0.89081 0.05200
N 	N 	0.61840 0.82933 0.84936 -0.20200
H 	H 	0.51473 0.14407 0.75373 0.08300
H 	H 	0.47325 0.16817 0.80184 0.09800
H 	H 	0.64238 0.78299 0.83113 0.09900
H 	H 	0.59807 0.80481 0.87906 0.09200
C 	C 	0.16059 0.24896 0.85737 -0.03600
C 	C 	0.17975 0.27989 0.81719 -0.09900
C 	C 	0.28817 0.37055 0.80628 0.11000
C 	C 	0.38186 0.40382 0.83214 -0.04300
C 	C 	0.36783 0.34567 0.86813 -0.09300
C 	C 	0.25405 0.26904 0.88159 0.11000
N 	N 	0.23426 0.20710 0.91524 -0.19200
H 	H 	0.07398 0.18939 0.86720 0.05300
H 	H 	0.46672 0.46987 0.82313 0.04900
N 	N 	0.30370 0.42296 0.77066 -0.20100
H 	H 	0.15368 0.17085 0.92906 0.08800
H 	H 	0.28876 0.17698 0.92347 0.07100
H 	H 	0.23389 0.40485 0.75236 0.10100
H 	H 	0.38546 0.48624 0.76179 0.08600
C 	C 	0.04698 0.80719 0.87313 -0.03700
C 	C 	0.98138 0.85060 0.85677 -0.10500
C 	C 	0.90212 0.86062 0.88170 0.11000
C 	C 	0.86015 0.79186 0.91564 -0.03900
C 	C 	0.90763 0.72496 0.92635 -0.11900
C 	C 	0.01608 0.75425 0.91040 0.12500
N 	N 	0.09526 0.74730 0.93298 -0.20100
H 	H 	0.11997 0.81334 0.85706 0.05600
H 	H 	0.78508 0.78275 0.93116 0.04800
N 	N 	0.86941 0.93743 0.87374 -0.20100
H 	H 	0.17554 0.76815 0.92110 0.10100
H 	H 	0.08142 0.73242 0.96346 0.10200
H 	H 	0.90261 0.99087 0.84914 0.10400
H 	H 	0.81583 0.94888 0.89341 0.08800
