data_crystal

_cell_length_a 19.55684
_cell_length_b 18.19780
_cell_length_c 26.82744
_cell_angle_alpha 95.43122
_cell_angle_beta  95.43200
_cell_angle_gamma 126.41333

_symmetry_space_group_name_	'P 1'
_symmetry_space_group_name_H-M	'P 1'

loop_
_symmetry_equiv_pos_as_xyz
  x,y,z

loop_
_atom_site_label
_atom_site_type_symbol
_atom_site_fract_x
_atom_site_fract_y
_atom_site_fract_z
_atom_site_charge
C 	C 	0.94125 0.02872 0.97250 0.12000
C 	C 	0.03154 0.08663 0.97636 -0.09200
C 	C 	0.07711 0.04963 0.98131 0.12200
H 	H 	0.06614 0.16005 0.97578 0.09600
C 	C 	0.92220 0.01017 0.46201 0.12400
C 	C 	0.01290 0.06406 0.47063 -0.09400
C 	C 	0.05307 0.02115 0.47528 0.12700
H 	H 	0.05194 0.13891 0.47393 0.10100
Cu	Cu	0.73133 0.32389 0.94852 0.93500
Cu	Cu	0.72704 0.24408 0.05398 0.88100
Cu	Cu	0.60742 0.28767 0.02172 0.90400
Cu	Cu	0.58378 0.34406 0.92445 0.90400
C 	C 	0.66199 0.30709 0.84466 0.32400
C 	C 	0.66572 0.29789 0.13051 0.33000
O 	O 	0.59997 0.26100 0.94964 -0.63600
O 	O 	0.73091 0.33802 0.02288 -0.63800
O 	O 	0.78620 0.25932 0.94544 -0.31100
O 	O 	0.69809 0.16032 0.99419 -0.42100
O 	O 	0.63638 0.35557 0.86252 -0.36900
O 	O 	0.48499 0.23056 0.01576 -0.33100
C 	C 	0.44022 0.24347 0.98253 0.34200
O 	O 	0.47780 0.30398 0.95199 -0.37200
O 	O 	0.70757 0.29175 0.87544 -0.30400
C 	C 	0.75614 0.18471 0.96544 0.33800
O 	O 	0.61343 0.29992 0.09636 -0.31800
O 	O 	0.73131 0.30165 0.11843 -0.40000
H 	H 	0.55622 0.19478 0.93337 0.18100
Cu	Cu	0.69892 0.29805 0.44184 0.93300
Cu	Cu	0.76604 0.28918 0.55921 0.90600
Cu	Cu	0.58345 0.25342 0.52181 0.91100
Cu	Cu	0.54304 0.30973 0.42379 0.91900
C 	C 	0.62509 0.28683 0.34025 0.33900
C 	C 	0.66323 0.28421 0.62919 0.33100
O 	O 	0.57062 0.23644 0.44927 -0.63600
O 	O 	0.70968 0.32518 0.51727 -0.63000
O 	O 	0.73661 0.21599 0.43579 -0.34300
O 	O 	0.83121 0.28853 0.51179 -0.38200
O 	O 	0.56028 0.28458 0.35371 -0.35300
O 	O 	0.46031 0.18887 0.51935 -0.34700
C 	C 	0.41709 0.20831 0.48976 0.33400
O 	O 	0.45851 0.28282 0.46881 -0.35000
O 	O 	0.66473 0.26201 0.36889 -0.32400
C 	C 	0.79375 0.22375 0.47076 0.33700
O 	O 	0.59189 0.23972 0.59412 -0.33600
O 	O 	0.74009 0.33235 0.61673 -0.39100
H 	H 	0.52937 0.17007 0.43271 0.18300
C 	C 	0.72148 0.28607 0.71652 -0.08100
C 	C 	0.65705 0.27946 0.68350 -0.12000
C 	C 	0.58987 0.27303 0.70312 0.34900
C 	C 	0.58928 0.27682 0.75542 -0.08700
C 	C 	0.65641 0.28871 0.78887 -0.10900
C 	C 	0.72171 0.29133 0.76888 0.34700
F 	F 	0.78720 0.30254 0.80022 -0.40000
H 	H 	0.77253 0.28896 0.70171 0.10500
H 	H 	0.53776 0.27301 0.77017 0.10200
F 	F 	0.52698 0.26669 0.67197 -0.42400
C 	C 	0.65534 0.30029 0.18435 -0.11200
C 	C 	0.57229 0.24859 0.19660 0.34500
C 	C 	0.56269 0.24404 0.24747 -0.08000
C 	C 	0.63577 0.29081 0.28665 -0.10900
C 	C 	0.71878 0.34339 0.27454 0.35200
H 	H 	0.49832 0.20291 0.25636 0.11600
F 	F 	0.50082 0.20009 0.15916 -0.40500
C 	C 	0.84078 0.05815 0.50152 -0.12400
C 	C 	0.88011 0.05600 0.46091 -0.05200
C 	C 	0.88348 0.10209 0.42089 0.30600
C 	C 	0.85074 0.15291 0.42266 -0.06000
C 	C 	0.81509 0.15854 0.46453 -0.14100
C 	C 	0.80855 0.10923 0.50342 0.35900
F 	F 	0.77237 0.11229 0.54357 -0.46900
H 	H 	0.85579 0.19038 0.39239 0.10900
F 	F 	0.91982 0.09905 0.38084 -0.42200
C 	C 	0.28648 0.13469 0.53002 -0.06600
C 	C 	0.32318 0.15556 0.48610 -0.13000
C 	C 	0.27129 0.13555 0.43922 0.35900
C 	C 	0.18415 0.09667 0.43652 -0.12300
C 	C 	0.14739 0.07578 0.48027 -0.05600
C 	C 	0.19879 0.09479 0.52714 0.31300
H 	H 	0.32610 0.15088 0.56646 0.12100
H 	H 	0.14446 0.08038 0.40007 0.11800
F 	F 	0.30547 0.15347 0.39619 -0.44700
C 	C 	0.88503 0.10174 0.92693 -0.12400
C 	C 	0.89369 0.06846 0.97039 -0.04600
C 	C 	0.85644 0.07252 0.01176 0.29800
C 	C 	0.81092 0.10944 0.00971 -0.07600
C 	C 	0.80220 0.14307 0.96634 -0.13400
C 	C 	0.83935 0.13877 0.92478 0.36600
F 	F 	0.83012 0.16896 0.88211 -0.40500
H 	H 	0.78355 0.11324 0.04224 0.07200
F 	F 	0.86525 0.04166 0.05425 -0.42900
C 	C 	0.29065 0.17075 0.93731 -0.07000
C 	C 	0.34762 0.19687 0.98304 -0.11900
C 	C 	0.31609 0.18077 0.02896 0.35600
C 	C 	0.22811 0.13651 0.02863 -0.12800
C 	C 	0.17111 0.10864 0.98269 -0.04900
C 	C 	0.20294 0.12704 0.93713 0.31300
F 	F 	0.14828 0.09979 0.89241 -0.41400
H 	H 	0.31417 0.18308 0.90173 0.10000
H 	H 	0.20392 0.12243 0.06395 0.11600
F 	F 	0.37063 0.20900 0.07389 -0.40100
C 	C 	0.72847 0.34824 0.22366 -0.08100
F 	F 	0.16350 0.07371 0.56966 -0.41300
H 	H 	0.83720 0.02217 0.53230 0.12300
H 	H 	0.91322 0.09841 0.89473 0.12600
H 	H 	0.77328 0.40190 0.04290 0.19700
H 	H 	0.73910 0.39206 0.52958 0.18000
H 	H 	0.79285 0.38901 0.21477 0.11300
F 	F 	0.79005 0.39080 0.31207 -0.40600
C 	C 	0.03249 0.95498 0.98248 -0.08900
C 	C 	0.94232 0.89653 0.97760 0.12300
C 	C 	0.89669 0.93345 0.97280 -0.08700
H 	H 	0.06777 0.92647 0.98620 0.10000
H 	H 	0.82690 0.88833 0.96925 0.09900
C 	C 	0.00284 0.92471 0.47107 -0.09900
C 	C 	0.91259 0.87050 0.46195 0.12800
C 	C 	0.87204 0.91312 0.45760 -0.09400
H 	H 	0.03404 0.89167 0.47437 0.09700
H 	H 	0.80206 0.87120 0.45119 0.09700
O 	O 	0.79351 0.46215 0.95095 -0.34300
C 	C 	0.76646 0.50580 0.97306 0.33000
O 	O 	0.68808 0.45753 0.98302 -0.35300
O 	O 	0.76293 0.43483 0.43844 -0.31200
C 	C 	0.73273 0.47943 0.45366 0.33000
O 	O 	0.65925 0.43502 0.46974 -0.37300
C 	C 	0.85777 0.71479 0.41589 -0.12100
C 	C 	0.86108 0.76920 0.45823 -0.05900
C 	C 	0.82603 0.72901 0.50001 0.31400
C 	C 	0.78807 0.63527 0.49947 -0.07000
C 	C 	0.78432 0.58058 0.45707 -0.13100
C 	C 	0.81962 0.62087 0.41527 0.35800
F 	F 	0.81465 0.56845 0.37348 -0.41200
H 	H 	0.88574 0.74570 0.38377 0.11400
H 	H 	0.76084 0.60480 0.53186 0.10200
F 	F 	0.83053 0.78140 0.54162 -0.41800
C 	C 	0.85618 0.64747 0.93545 -0.07000
C 	C 	0.81562 0.60685 0.97589 -0.12500
C 	C 	0.81587 0.66162 0.01670 0.35200
C 	C 	0.85575 0.75582 0.01669 -0.13100
C 	C 	0.89565 0.79602 0.97603 -0.04800
C 	C 	0.89562 0.74140 0.93536 0.31000
F 	F 	0.93334 0.77932 0.89558 -0.41400
H 	H 	0.85530 0.60567 0.90344 0.11200
H 	H 	0.85642 0.79778 0.04850 0.12000
F 	F 	0.77820 0.62382 0.05651 -0.43000
