data_crystal

_cell_length_a 30.51863
_cell_length_b 31.20182
_cell_length_c 36.78721
_cell_angle_alpha 95.48326
_cell_angle_beta  95.46789
_cell_angle_gamma 125.65875

_symmetry_space_group_name_	'P 1'
_symmetry_space_group_name_H-M	'P 1'

loop_
_symmetry_equiv_pos_as_xyz
  x,y,z

loop_
_atom_site_label
_atom_site_type_symbol
_atom_site_fract_x
_atom_site_fract_y
_atom_site_fract_z
_atom_site_charge
C 	C 	0.97273 0.02585 0.00209 0.13200
N 	N 	0.02709 0.05466 0.00095 -0.13900
C 	C 	0.05078 0.02924 0.99637 0.11800
N 	N 	0.01989 0.97503 0.99269 -0.13900
C 	C 	0.96548 0.94610 0.99355 0.12000
N 	N 	0.94194 0.97161 0.99835 -0.14000
C 	C 	0.94132 0.99354 0.45405 0.11900
N 	N 	0.91370 0.94212 0.45984 -0.14100
C 	C 	0.94095 0.92040 0.46581 0.11800
N 	N 	0.99568 0.95010 0.46591 -0.14000
C 	C 	0.02335 0.00133 0.46006 0.11700
N 	N 	0.99610 0.02296 0.45411 -0.14200
Cu	Cu	0.64881 0.25751 0.99721 0.92800
Cu	Cu	0.69268 0.25919 0.91901 0.87000
Cu	Cu	0.68120 0.34306 0.94937 0.89700
Cu	Cu	0.65022 0.35743 0.02201 0.89500
C 	C 	0.66426 0.29745 0.07464 0.30500
O 	O 	0.56879 0.22652 0.99601 -0.36300
C 	C 	0.66397 0.30619 0.86828 0.30700
O 	O 	0.69385 0.34114 0.00100 -0.64000
O 	O 	0.64260 0.26389 0.94427 -0.64100
O 	O 	0.68205 0.21833 0.99514 -0.37400
O 	O 	0.74346 0.27363 0.96104 -0.44100
O 	O 	0.63992 0.31944 0.06480 -0.38400
O 	O 	0.72274 0.42042 0.95785 -0.38200
C 	C 	0.71797 0.44958 0.98332 0.30800
C 	C 	0.54806 0.24974 0.98222 0.30300
O 	O 	0.58079 0.29978 0.97805 -0.39500
O 	O 	0.68215 0.42768 0.00570 -0.39300
O 	O 	0.66633 0.26527 0.04999 -0.36100
C 	C 	0.72847 0.23870 0.98319 0.29000
O 	O 	0.68100 0.34603 0.89590 -0.38600
O 	O 	0.65916 0.26276 0.87412 -0.42200
H 	H 	0.73301 0.36396 0.01315 0.16500
H 	H 	0.60469 0.24219 0.92982 0.17400
Cu	Cu	0.73093 0.33716 0.44995 0.92800
Cu	Cu	0.72898 0.29343 0.52792 0.87100
Cu	Cu	0.64177 0.30230 0.49683 0.89700
Cu	Cu	0.62723 0.33330 0.42442 0.89500
C 	C 	0.69127 0.32300 0.37239 0.30500
O 	O 	0.76113 0.41536 0.45181 -0.36100
C 	C 	0.67858 0.31912 0.57801 0.30700
O 	O 	0.64517 0.29149 0.44533 -0.64000
O 	O 	0.72307 0.34183 0.50268 -0.64100
O 	O 	0.77192 0.30534 0.45212 -0.37200
O 	O 	0.71539 0.24447 0.48582 -0.44300
O 	O 	0.66742 0.34544 0.38216 -0.38400
O 	O 	0.56248 0.25993 0.48764 -0.38100
C 	C 	0.53229 0.26329 0.46155 0.30800
C 	C 	0.73598 0.43432 0.46524 0.30100
O 	O 	0.68465 0.40120 0.46885 -0.39300
O 	O 	0.55450 0.29959 0.44001 -0.39400
O 	O 	0.72427 0.32131 0.39719 -0.36000
C 	C 	0.75138 0.25988 0.46390 0.30800
O 	O 	0.63775 0.30113 0.55010 -0.38600
O 	O 	0.72373 0.32506 0.57265 -0.42100
H 	H 	0.62274 0.25336 0.43287 0.16400
H 	H 	0.74428 0.37871 0.51734 0.17400
C 	C 	0.65662 0.33019 0.68524 -0.00600
C 	C 	0.60995 0.28704 0.69588 -0.03500
C 	C 	0.60795 0.28524 0.73359 -0.03500
C 	C 	0.65260 0.32659 0.76077 -0.00600
C 	C 	0.69754 0.37151 0.75012 -0.03500
C 	C 	0.69955 0.37330 0.71243 -0.03500
C 	C 	0.65578 0.31948 0.79880 0.04500
C 	C 	0.65875 0.31384 0.83070 -0.11000
C 	C 	0.66385 0.32668 0.64723 0.04500
C 	C 	0.67002 0.32386 0.61542 -0.11000
H 	H 	0.57636 0.25376 0.67503 0.04000
H 	H 	0.57283 0.25059 0.74160 0.03900
H 	H 	0.73203 0.40386 0.77097 0.04000
H 	H 	0.73557 0.40702 0.70443 0.03900
C 	C 	0.69096 0.29625 0.18522 -0.00400
C 	C 	0.73423 0.34335 0.20953 -0.03400
C 	C 	0.73739 0.34633 0.24797 -0.03400
C 	C 	0.69729 0.30223 0.26226 -0.00300
C 	C 	0.65585 0.25411 0.23800 -0.03400
C 	C 	0.65270 0.25112 0.19955 -0.03400
C 	C 	0.69492 0.30845 0.30117 0.04500
C 	C 	0.69352 0.31433 0.33381 -0.10100
C 	C 	0.68204 0.29639 0.14609 0.04400
C 	C 	0.67464 0.29657 0.11333 -0.10200
H 	H 	0.76416 0.37830 0.19868 0.03900
H 	H 	0.76977 0.38357 0.26655 0.04300
H 	H 	0.62491 0.21972 0.24884 0.04000
H 	H 	0.61932 0.21444 0.18093 0.04200
C 	C 	0.91149 0.86477 0.47213 -0.02200
C 	C 	0.86221 0.82310 0.44831 -0.01900
C 	C 	0.83891 0.76953 0.45067 -0.04800
C 	C 	0.86458 0.75728 0.47699 0.01300
C 	C 	0.91230 0.79900 0.50199 -0.04900
C 	C 	0.93566 0.85246 0.49957 -0.01900
C 	C 	0.84345 0.70095 0.47691 0.00700
C 	C 	0.87581 0.68401 0.46902 -0.04200
C 	C 	0.85561 0.63053 0.46847 -0.03100
C 	C 	0.80298 0.59364 0.47578 -0.00800
C 	C 	0.77078 0.61056 0.48399 -0.03100
C 	C 	0.79094 0.66405 0.48457 -0.04300
C 	C 	0.78082 0.53783 0.47290 0.04500
C 	C 	0.76121 0.49080 0.46984 -0.10900
H 	H 	0.84314 0.83206 0.42705 0.04000
H 	H 	0.80187 0.73758 0.43137 0.04300
H 	H 	0.93195 0.78996 0.52277 0.04200
H 	H 	0.97326 0.88432 0.51847 0.03900
H 	H 	0.91635 0.71215 0.46299 0.04100
H 	H 	0.88065 0.61770 0.46196 0.04000
H 	H 	0.72998 0.58221 0.48958 0.03900
H 	H 	0.76575 0.67677 0.49087 0.04100
C 	C 	0.91255 0.01821 0.44913 -0.02300
C 	C 	0.87422 0.00968 0.47142 -0.02100
C 	C 	0.85217 0.03834 0.47002 -0.04800
C 	C 	0.86806 0.07559 0.44622 0.01200
C 	C 	0.90453 0.08244 0.42280 -0.04800
C 	C 	0.92668 0.05392 0.42424 -0.01900
C 	C 	0.84949 0.11000 0.44767 0.00800
C 	C 	0.81514 0.10536 0.41683 -0.04300
C 	C 	0.79738 0.13786 0.41844 -0.03000
C 	C 	0.81406 0.17531 0.45079 -0.01100
C 	C 	0.84898 0.18048 0.48138 -0.03100
C 	C 	0.86663 0.14796 0.47985 -0.04400
C 	C 	0.79246 0.20586 0.45368 0.04700
C 	C 	0.77404 0.23097 0.45748 -0.11900
H 	H 	0.86293 0.98227 0.49073 0.04100
H 	H 	0.82369 0.03247 0.48800 0.04100
H 	H 	0.91679 0.11088 0.40419 0.04300
H 	H 	0.95560 0.06030 0.40650 0.03900
H 	H 	0.80183 0.07630 0.39182 0.04100
H 	H 	0.77021 0.13347 0.39472 0.03900
H 	H 	0.86192 0.20922 0.50652 0.03400
H 	H 	0.89353 0.15217 0.50367 0.04000
C 	C 	0.08296 0.03352 0.46063 -0.02100
C 	C 	0.10671 0.07022 0.43649 -0.02000
C 	C 	0.16292 0.09936 0.43624 -0.04800
C 	C 	0.19589 0.09212 0.46013 0.01300
C 	C 	0.17234 0.05594 0.48453 -0.04800
C 	C 	0.11618 0.02679 0.48480 -0.02100
C 	C 	0.25499 0.12217 0.45946 0.00800
C 	C 	0.27670 0.09462 0.44915 -0.04300
C 	C 	0.33294 0.12302 0.44934 -0.03100
C 	C 	0.36779 0.17908 0.45980 -0.00800
C 	C 	0.34616 0.20669 0.46989 -0.03000
C 	C 	0.28993 0.17834 0.46973 -0.04300
C 	C 	0.42578 0.20830 0.46032 0.04600
C 	C 	0.47439 0.23313 0.46085 -0.10700
H 	H 	0.08153 0.07555 0.41754 0.04000
H 	H 	0.18076 0.12715 0.41726 0.04200
H 	H 	0.19758 0.05046 0.50329 0.04200
H 	H 	0.09855 0.99913 0.50389 0.04100
H 	H 	0.25001 0.05127 0.44104 0.04100
H 	H 	0.34939 0.10144 0.44144 0.03800
H 	H 	0.37290 0.25005 0.47797 0.04000
H 	H 	0.27358 0.19994 0.47785 0.04100
C 	C 	0.93218 0.88721 0.98903 -0.02300
C 	C 	0.89175 0.85991 0.01066 -0.01800
C 	C 	0.86335 0.80457 0.00847 -0.04700
C 	C 	0.87506 0.77609 0.98460 0.01200
C 	C 	0.91429 0.80307 0.96221 -0.04800
C 	C 	0.94271 0.85834 0.96439 -0.01900
C 	C 	0.84770 0.71847 0.98399 0.00800
C 	C 	0.87854 0.70051 0.99576 -0.04400
C 	C 	0.85268 0.64582 0.99501 -0.03200
C 	C 	0.79589 0.60879 0.98253 -0.00800
C 	C 	0.76502 0.62660 0.97072 -0.03000
C 	C 	0.79084 0.68130 0.97144 -0.04300
C 	C 	0.76908 0.55265 0.98258 0.04600
C 	C 	0.74614 0.50560 0.98281 -0.10700
H 	H 	0.88334 0.88173 0.02984 0.04100
H 	H 	0.83303 0.78400 0.02582 0.04300
H 	H 	0.92312 0.78126 0.94340 0.04300
H 	H 	0.97320 0.87881 0.94713 0.04000
H 	H 	0.92245 0.72896 0.00559 0.04200
H 	H 	0.87674 0.63230 0.00427 0.03900
H 	H 	0.72105 0.59814 0.96108 0.04000
H 	H 	0.76675 0.69478 0.96217 0.04100
C 	C 	0.76099 0.21851 0.99159 -0.09900
C 	C 	0.75446 0.19228 0.02186 0.01900
C 	C 	0.78325 0.17081 0.02851 -0.06900
C 	C 	0.81889 0.17546 0.00502 0.03100
C 	C 	0.82628 0.20257 0.97527 -0.07200
C 	C 	0.79759 0.22403 0.96859 0.01400
C 	C 	0.84655 0.14985 0.01043 -0.00300
C 	C 	0.90411 0.18107 0.01699 -0.03400
C 	C 	0.93022 0.15624 0.01758 -0.04200
C 	C 	0.89900 0.10013 0.01176 0.01400
C 	C 	0.84163 0.06899 0.00655 -0.04200
C 	C 	0.81545 0.09374 0.00589 -0.03400
C 	C 	0.92558 0.07441 0.00893 0.00400
C 	C 	0.94739 0.05249 0.00602 -0.04100
H 	H 	0.72700 0.18835 0.04015 0.04000
H 	H 	0.77756 0.15022 0.05170 0.04800
H 	H 	0.85352 0.20613 0.95688 0.04500
H 	H 	0.80301 0.24399 0.94508 0.01800
H 	H 	0.92849 0.22443 0.02076 0.03900
H 	H 	0.97462 0.18058 0.02181 0.04300
H 	H 	0.81726 0.02558 0.00219 0.04300
H 	H 	0.77102 0.06929 0.00078 0.03800
C 	C 	0.10968 0.06011 0.99516 -0.02300
C 	C 	0.14134 0.04638 0.01318 -0.01800
C 	C 	0.19577 0.07175 0.00900 -0.04700
C 	C 	0.21909 0.11101 0.98670 0.01100
C 	C 	0.18803 0.12591 0.96952 -0.04800
C 	C 	0.13353 0.10062 0.97379 -0.02000
C 	C 	0.27585 0.13609 0.98115 0.00800
C 	C 	0.31656 0.19116 0.99433 -0.04400
C 	C 	0.37124 0.21400 0.99194 -0.03100
C 	C 	0.38555 0.18196 0.97639 -0.00900
C 	C 	0.34475 0.12728 0.96223 -0.03000
C 	C 	0.29002 0.10440 0.96452 -0.04300
C 	C 	0.44240 0.20453 0.97718 0.04600
C 	C 	0.49042 0.22442 0.97887 -0.11100
H 	H 	0.12357 0.01566 0.03012 0.04000
H 	H 	0.21973 0.06060 0.02284 0.04300
H 	H 	0.20581 0.15640 0.95240 0.04200
H 	H 	0.10946 0.11144 0.95966 0.04000
H 	H 	0.30603 0.21595 0.00718 0.04200
H 	H 	0.40261 0.25635 0.00287 0.04000
H 	H 	0.35552 0.10232 0.95007 0.03800
H 	H 	0.25879 0.06192 0.95399 0.04100
