data_crystal

_cell_length_a 23.88436
_cell_length_b 24.75402
_cell_length_c 45.14875
_cell_angle_alpha 95.49406
_cell_angle_beta  95.49350
_cell_angle_gamma 125.81857

_symmetry_space_group_name_	'P 1'
_symmetry_space_group_name_H-M	'P 1'

loop_
_symmetry_equiv_pos_as_xyz
  x,y,z

loop_
_atom_site_label
_atom_site_type_symbol
_atom_site_fract_x
_atom_site_fract_y
_atom_site_fract_z
_atom_site_charge
C 	C 	0.96963 0.02440 0.00104 0.09200
C 	C 	0.06425 0.01937 0.99720 0.09400
N 	N 	0.03246 0.04970 0.99253 -0.11900
N 	N 	0.98411 0.01303 0.44537 -0.13700
Cu	Cu	0.64705 0.25040 0.00495 0.92700
Cu	Cu	0.72367 0.27155 0.94573 0.87100
Cu	Cu	0.69024 0.36406 0.96904 0.89600
Cu	Cu	0.62838 0.36384 0.02421 0.89500
C 	C 	0.65015 0.29128 0.06720 0.28700
O 	O 	0.54151 0.20100 0.99847 -0.35100
C 	C 	0.68080 0.32570 0.90380 0.29000
O 	O 	0.69571 0.35524 0.01073 -0.64000
O 	O 	0.64902 0.26535 0.96256 -0.63900
O 	O 	0.69651 0.20747 0.00558 -0.34700
O 	O 	0.78049 0.28581 0.98222 -0.43100
O 	O 	0.61330 0.31266 0.05790 -0.37900
O 	O 	0.73516 0.46068 0.97857 -0.36600
C 	C 	0.72112 0.48929 0.99986 0.25500
C 	C 	0.51210 0.22618 0.98547 0.25000
O 	O 	0.54970 0.29122 0.98498 -0.36500
O 	O 	0.66492 0.45282 0.01213 -0.36900
O 	O 	0.65878 0.25414 0.04791 -0.35700
C 	C 	0.75775 0.23609 0.99726 0.25800
O 	O 	0.70042 0.37465 0.92663 -0.38500
O 	O 	0.68607 0.27664 0.90776 -0.41600
H 	H 	0.74363 0.38642 0.02316 0.16300
H 	H 	0.60292 0.23618 0.94861 0.17400
Cu	Cu	0.73380 0.33630 0.46891 0.92800
Cu	Cu	0.71940 0.26758 0.52922 0.87200
Cu	Cu	0.61528 0.28912 0.50485 0.89700
Cu	Cu	0.60962 0.34464 0.44898 0.89500
C 	C 	0.69270 0.33404 0.40635 0.28900
O 	O 	0.78091 0.43796 0.47457 -0.33600
C 	C 	0.65843 0.30382 0.57040 0.28900
O 	O 	0.62429 0.28394 0.46307 -0.63800
O 	O 	0.71891 0.33508 0.51123 -0.64000
O 	O 	0.77781 0.28805 0.46852 -0.34800
O 	O 	0.69881 0.20799 0.49320 -0.43000
O 	O 	0.66441 0.36382 0.41560 -0.38300
O 	O 	0.51411 0.24023 0.49534 -0.36700
C 	C 	0.48227 0.24998 0.47325 0.25400
C 	C 	0.74941 0.46307 0.48497 0.25100
O 	O 	0.68358 0.42169 0.48771 -0.38300
O 	O 	0.51720 0.30518 0.46142 -0.37100
O 	O 	0.72912 0.32383 0.42588 -0.35500
C 	C 	0.74460 0.22704 0.47515 0.25400
O 	O 	0.60603 0.28008 0.54749 -0.38600
O 	O 	0.71317 0.30495 0.56662 -0.41500
H 	H 	0.59410 0.23737 0.45090 0.16400
H 	H 	0.74698 0.38024 0.52462 0.17700
C 	C 	0.66265 0.33114 0.87267 -0.08900
C 	C 	0.70225 0.39378 0.86313 0.02000
C 	C 	0.69266 0.39668 0.83241 -0.07100
C 	C 	0.64327 0.33717 0.81110 0.04700
C 	C 	0.60083 0.27528 0.82081 -0.07100
C 	C 	0.61050 0.27223 0.85147 0.02000
C 	C 	0.64118 0.33846 0.77919 -0.02800
C 	C 	0.63947 0.33960 0.75249 0.00100
C 	C 	0.63882 0.34000 0.72120 0.00100
C 	C 	0.63939 0.33933 0.69449 -0.02800
C 	C 	0.64170 0.33738 0.66266 0.04600
C 	C 	0.70609 0.38002 0.65339 -0.07100
C 	C 	0.71077 0.37131 0.62291 0.01900
C 	C 	0.65101 0.31972 0.60144 -0.08900
C 	C 	0.58574 0.27939 0.61052 0.01900
C 	C 	0.58121 0.28808 0.64107 -0.07100
H 	H 	0.74249 0.43965 0.87926 0.03800
H 	H 	0.72538 0.44479 0.82508 0.05300
H 	H 	0.56206 0.22914 0.80451 0.05200
H 	H 	0.57894 0.22377 0.85862 0.03000
H 	H 	0.75299 0.41851 0.66993 0.05200
H 	H 	0.76120 0.40347 0.61612 0.03100
H 	H 	0.53916 0.23957 0.59418 0.03800
H 	H 	0.53116 0.25505 0.64806 0.05300
C 	C 	0.69919 0.32855 0.37429 -0.08300
C 	C 	0.68900 0.27057 0.35885 0.01800
C 	C 	0.69053 0.26364 0.32783 -0.06900
C 	C 	0.70277 0.31486 0.31222 0.04700
C 	C 	0.71495 0.37354 0.32781 -0.06900
C 	C 	0.71315 0.38040 0.35869 0.02100
C 	C 	0.69970 0.30620 0.27995 -0.02700
C 	C 	0.69766 0.30151 0.25299 0.00300
C 	C 	0.69467 0.29826 0.22143 0.00300
C 	C 	0.69153 0.29719 0.19455 -0.02700
C 	C 	0.68698 0.29777 0.16255 0.04700
C 	C 	0.66942 0.24156 0.14206 -0.06900
C 	C 	0.65938 0.24006 0.11085 0.02200
C 	C 	0.66653 0.29478 0.09997 -0.08400
C 	C 	0.68605 0.35175 0.12063 0.01800
C 	C 	0.69621 0.35319 0.15177 -0.07000
H 	H 	0.67839 0.23033 0.37068 0.03500
H 	H 	0.68122 0.21816 0.31593 0.05400
H 	H 	0.72488 0.41349 0.31590 0.05400
H 	H 	0.72227 0.42589 0.37046 0.04000
H 	H 	0.66230 0.19856 0.15026 0.05500
H 	H 	0.64427 0.19573 0.09519 0.04400
H 	H 	0.69260 0.39461 0.11254 0.02400
H 	H 	0.71010 0.39694 0.16750 0.05300
O 	O 	0.85341 0.58367 0.48718 -0.18700
C 	C 	0.78155 0.53543 0.48657 0.04200
C 	C 	0.74180 0.55854 0.48130 -0.06400
H 	H 	0.68905 0.53479 0.48567 0.05300
C 	C 	0.81763 0.14660 0.44832 0.11700
C 	C 	0.87888 0.15148 0.44707 -0.09200
C 	C 	0.88597 0.10643 0.46044 0.02100
C 	C 	0.83267 0.05507 0.47237 0.11200
C 	C 	0.77085 0.04928 0.47318 -0.08700
C 	C 	0.76396 0.09501 0.46020 0.00800
O 	O 	0.81692 0.20245 0.44861 -0.18600
C 	C 	0.75885 0.18009 0.46245 0.03600
C 	C 	0.72691 0.11617 0.46936 -0.05900
C 	C 	0.89550 0.02466 0.46090 0.09600
C 	C 	0.92572 0.08742 0.45295 -0.08600
H 	H 	0.92095 0.19116 0.43745 0.06900
H 	H 	0.72906 0.00982 0.48299 0.06500
H 	H 	0.69525 0.09770 0.48675 0.04800
H 	H 	0.96082 0.10743 0.43687 0.06200
C 	C 	0.18100 0.03729 0.42845 0.11000
C 	C 	0.24409 0.04703 0.43893 -0.08300
C 	C 	0.30720 0.11198 0.44164 0.00500
C 	C 	0.30786 0.16691 0.43803 0.11900
C 	C 	0.24463 0.15823 0.42987 -0.09300
C 	C 	0.18194 0.09188 0.42306 0.02200
C 	C 	0.08060 0.01135 0.43238 0.09000
C 	C 	0.11857 0.07573 0.42573 -0.08300
O 	O 	0.36942 0.22877 0.45261 -0.18900
C 	C 	0.40544 0.20555 0.46554 0.04300
C 	C 	0.36750 0.13590 0.46005 -0.05800
H 	H 	0.24353 0.00681 0.44687 0.06600
H 	H 	0.24391 0.20170 0.43069 0.06900
H 	H 	0.10856 0.11247 0.43162 0.06200
H 	H 	0.38902 0.10812 0.46306 0.04800
O 	O 	0.72656 0.59298 0.01062 -0.18700
C 	C 	0.76056 0.56311 0.00580 0.04500
C 	C 	0.79485 0.11884 0.98665 0.11700
C 	C 	0.79063 0.06085 0.98977 -0.09500
C 	C 	0.84612 0.05966 0.98303 0.02400
C 	C 	0.90812 0.11723 0.97853 0.11000
C 	C 	0.91466 0.17741 0.97835 -0.08300
C 	C 	0.85466 0.17469 0.98002 0.00100
O 	O 	0.75186 0.13236 0.99860 -0.19000
C 	C 	0.79144 0.20188 0.99815 0.03100
C 	C 	0.85441 0.22789 0.98845 -0.05800
O 	O 	0.96605 0.11679 0.98477 -0.20200
C 	C 	0.93279 0.05410 0.99400 0.10200
C 	C 	0.86161 0.01982 0.99301 -0.09300
H 	H 	0.74739 0.01962 0.99828 0.06900
H 	H 	0.96510 0.22489 0.97846 0.06500
H 	H 	0.88768 0.27695 0.98199 0.04700
C 	C 	0.20888 0.04151 0.96945 0.11400
C 	C 	0.26762 0.04117 0.97205 -0.08500
C 	C 	0.32800 0.09379 0.96285 0.00900
C 	C 	0.33398 0.14994 0.95597 0.11800
C 	C 	0.27701 0.15285 0.95587 -0.09200
C 	C 	0.21309 0.09526 0.96033 0.02200
O 	O 	0.15499 0.00426 0.98525 -0.19900
C 	C 	0.12814 0.04148 0.98517 0.10400
C 	C 	0.16212 0.09560 0.97038 -0.08700
O 	O 	0.40292 0.20810 0.96047 -0.19100
C 	C 	0.43743 0.18170 0.97114 0.04100
C 	C 	0.39339 0.11385 0.97273 -0.05900
H 	H 	0.26769 0.00369 0.98260 0.06900
H 	H 	0.28353 0.19953 0.95420 0.07000
H 	H 	0.16116 0.13896 0.97376 0.06800
H 	H 	0.40638 0.08925 0.98756 0.06000
H 	H 	0.86524 0.58957 0.02091 0.04700
C 	C 	0.83174 0.60540 0.01733 -0.05900
C 	C 	0.78707 0.62327 0.47861 0.01200
C 	C 	0.85293 0.63829 0.48265 0.11800
C 	C 	0.78354 0.65604 0.02687 0.11900
C 	C 	0.84534 0.66289 0.03171 0.00700
H 	H 	0.72501 0.66088 0.48117 0.06800
C 	C 	0.77723 0.67359 0.48434 -0.08500
C 	C 	0.91284 0.70583 0.49134 -0.09100
H 	H 	0.73779 0.70929 0.02136 0.07000
C 	C 	0.78501 0.71373 0.02887 -0.09200
O 	O 	0.83586 0.00096 0.47381 -0.19800
H 	H 	0.96498 0.71838 0.49424 0.07000
O 	O 	0.11713 0.98338 0.43402 -0.19600
C 	C 	0.01654 0.98275 0.44520 0.10800
N 	N 	0.93881 0.96885 0.01430 -0.12800
C 	C 	0.97060 0.93868 0.01904 0.09800
N 	N 	0.03345 0.96434 0.01069 -0.10600
C 	C 	0.92667 0.98808 0.45847 0.10400
N 	N 	0.99117 0.92711 0.45791 -0.12200
C 	C 	0.93362 0.90158 0.47090 0.09900
N 	N 	0.90103 0.93189 0.47105 -0.11000
C 	C 	0.83708 0.74137 0.49227 0.11400
C 	C 	0.90327 0.75657 0.49683 0.02300
O 	O 	0.83623 0.79451 0.48536 -0.19800
C 	C 	0.90781 0.84226 0.48541 0.10400
C 	C 	0.94808 0.82023 0.49243 -0.08800
H 	H 	0.99864 0.84068 0.48608 0.07000
C 	C 	0.91242 0.78441 0.04206 0.11400
C 	C 	0.91093 0.72668 0.03736 -0.08300
C 	C 	0.85027 0.77752 0.03882 0.02200
O 	O 	0.97003 0.84748 0.03865 -0.19700
C 	C 	0.93647 0.87723 0.03238 0.10100
C 	C 	0.86520 0.83602 0.03241 -0.08600
H 	H 	0.95864 0.73145 0.03600 0.06900
H 	H 	0.82744 0.84086 0.02019 0.06300
H 	H 	0.82993 0.97942 0.00519 0.06700
