data_crystal

_cell_length_a 26.18142
_cell_length_b 26.32150
_cell_length_c 39.86383
_cell_angle_alpha 95.51088
_cell_angle_beta  95.50606
_cell_angle_gamma 125.71504

_symmetry_space_group_name_	'P 1'
_symmetry_space_group_name_H-M	'P 1'

loop_
_symmetry_equiv_pos_as_xyz
  x,y,z

loop_
_atom_site_label
_atom_site_type_symbol
_atom_site_fract_x
_atom_site_fract_y
_atom_site_fract_z
_atom_site_charge
C 	C 	0.95861 0.02890 0.99831 0.01000
C 	C 	0.02383 0.06279 0.99651 -0.06100
C 	C 	0.05288 0.03171 0.99636 0.01100
H 	H 	0.05162 0.11284 0.99487 0.04500
C 	C 	0.94604 0.00493 0.45976 0.01200
C 	C 	0.04665 0.01846 0.46321 0.01300
C 	C 	0.01265 0.04427 0.46163 -0.06100
H 	H 	0.03801 0.09494 0.46227 0.04700
Cu	Cu	0.62768 0.23500 0.00155 0.92700
Cu	Cu	0.66224 0.23525 0.92455 0.87000
Cu	Cu	0.66256 0.33977 0.96034 0.89700
Cu	Cu	0.64098 0.35773 0.03169 0.89300
C 	C 	0.65984 0.28094 0.07451 0.28800
O 	O 	0.53729 0.20260 0.00625 -0.36100
C 	C 	0.62926 0.29882 0.88430 0.28800
O 	O 	0.68398 0.33469 0.00657 -0.64100
O 	O 	0.61282 0.24501 0.95378 -0.64100
O 	O 	0.66199 0.18516 0.99336 -0.37200
O 	O 	0.72664 0.24963 0.95900 -0.44000
O 	O 	0.63336 0.31033 0.06947 -0.38600
O 	O 	0.71583 0.43177 0.96976 -0.38300
C 	C 	0.71555 0.46753 0.99532 0.28400
C 	C 	0.51431 0.23353 0.99757 0.27700
O 	O 	0.55342 0.29314 0.99422 -0.39000
O 	O 	0.67870 0.44253 0.01839 -0.39400
O 	O 	0.65563 0.24164 0.04913 -0.36400
C 	C 	0.71232 0.20770 0.97876 0.28000
O 	O 	0.65501 0.34565 0.91116 -0.38700
O 	O 	0.61834 0.24404 0.88736 -0.42200
H 	H 	0.73051 0.35942 0.01548 0.16400
H 	H 	0.56732 0.22188 0.94294 0.17200
Cu	Cu	0.74455 0.33959 0.46025 0.92700
Cu	Cu	0.74034 0.29774 0.53533 0.86700
Cu	Cu	0.64485 0.31416 0.50391 0.89600
Cu	Cu	0.62651 0.33759 0.43358 0.89300
C 	C 	0.69642 0.31259 0.38784 0.30500
O 	O 	0.78285 0.43146 0.45676 -0.36000
C 	C 	0.68249 0.33357 0.57906 0.30200
O 	O 	0.64508 0.28980 0.45706 -0.64100
O 	O 	0.73854 0.35486 0.50886 -0.64000
O 	O 	0.78979 0.29979 0.46576 -0.37000
O 	O 	0.72240 0.23460 0.49887 -0.44000
O 	O 	0.67096 0.34253 0.39456 -0.38800
O 	O 	0.55289 0.26812 0.49684 -0.38300
C 	C 	0.51720 0.26775 0.47084 0.28200
C 	C 	0.75625 0.45838 0.46712 0.27400
O 	O 	0.69669 0.42267 0.47158 -0.39100
O 	O 	0.54294 0.30467 0.44798 -0.39200
O 	O 	0.73375 0.31168 0.41215 -0.36400
C 	C 	0.76457 0.24823 0.47922 0.28100
O 	O 	0.64503 0.33123 0.55321 -0.38200
O 	O 	0.73517 0.34001 0.57500 -0.42300
H 	H 	0.61672 0.24330 0.44814 0.16400
H 	H 	0.76616 0.39997 0.52072 0.17400
C 	C 	0.62056 0.31096 0.84965 -0.09100
C 	C 	0.56864 0.26192 0.82433 0.01400
C 	C 	0.56749 0.26816 0.78988 -0.06800
C 	C 	0.61856 0.32323 0.78041 0.02500
C 	C 	0.66793 0.37425 0.80598 -0.06700
C 	C 	0.66876 0.36826 0.84049 0.01200
C 	C 	0.62466 0.32400 0.74395 0.00100
C 	C 	0.63037 0.37213 0.72815 -0.04100
C 	C 	0.64011 0.37476 0.69422 -0.03300
C 	C 	0.64402 0.32924 0.67594 -0.00900
C 	C 	0.63732 0.28068 0.69152 -0.03400
C 	C 	0.62784 0.27811 0.72538 -0.04100
C 	C 	0.65707 0.33327 0.64160 0.04300
C 	C 	0.66846 0.33458 0.61296 -0.11300
H 	H 	0.53043 0.21801 0.83118 0.02800
H 	H 	0.52840 0.22905 0.77041 0.04400
H 	H 	0.70729 0.41725 0.79900 0.04400
H 	H 	0.70876 0.40675 0.85983 0.03100
H 	H 	0.62784 0.40770 0.74220 0.03900
H 	H 	0.64518 0.41242 0.68232 0.03900
H 	H 	0.64033 0.24538 0.67754 0.03400
H 	H 	0.62404 0.24110 0.73739 0.03700
C 	C 	0.67935 0.27942 0.11013 -0.08600
C 	C 	0.66183 0.22186 0.11951 0.01600
C 	C 	0.67126 0.21851 0.15415 -0.06600
C 	C 	0.69848 0.27268 0.17966 0.02600
C 	C 	0.71920 0.33094 0.17015 -0.06600
C 	C 	0.70977 0.33430 0.13558 0.01300
C 	C 	0.69973 0.26728 0.21623 0.00200
C 	C 	0.75791 0.30561 0.23983 -0.04100
C 	C 	0.75802 0.30871 0.27508 -0.03300
C 	C 	0.70006 0.27335 0.28693 -0.00700
C 	C 	0.64226 0.23228 0.26336 -0.03300
C 	C 	0.64205 0.22921 0.22812 -0.04000
C 	C 	0.69920 0.28516 0.32285 0.04400
C 	C 	0.69808 0.29671 0.35268 -0.10500
H 	H 	0.63861 0.17919 0.10014 0.03800
H 	H 	0.65572 0.17346 0.16121 0.04600
H 	H 	0.74053 0.37310 0.18963 0.04500
H 	H 	0.72437 0.37918 0.12863 0.02100
H 	H 	0.80276 0.33466 0.23092 0.03900
H 	H 	0.80295 0.34033 0.29315 0.04000
H 	H 	0.59727 0.20460 0.27232 0.03700
H 	H 	0.59688 0.19934 0.21014 0.04000
C 	C 	0.88056 0.64714 0.41388 -0.03600
C 	C 	0.90391 0.70977 0.41174 -0.05500
C 	C 	0.89543 0.74516 0.43617 0.04000
C 	C 	0.86299 0.71726 0.46288 -0.02900
C 	C 	0.83913 0.65404 0.46491 0.00100
C 	C 	0.84810 0.61894 0.44036 0.01000
C 	C 	0.80604 0.62586 0.49138 0.00900
C 	C 	0.79768 0.66131 0.51585 -0.03600
C 	C 	0.82201 0.72435 0.51406 -0.05500
C 	C 	0.85476 0.75268 0.48768 0.04000
C 	C 	0.91997 0.80841 0.43456 -0.07800
C 	C 	0.82357 0.55576 0.44223 -0.02500
C 	C 	0.78908 0.52700 0.46803 -0.06300
C 	C 	0.78100 0.56234 0.49278 -0.02600
H 	H 	0.88758 0.62053 0.39485 0.03800
H 	H 	0.92883 0.73082 0.39115 0.04100
H 	H 	0.77235 0.64011 0.53630 0.03700
H 	H 	0.81538 0.75111 0.53322 0.04100
H 	H 	0.82938 0.52830 0.42301 0.04700
H 	H 	0.75467 0.54016 0.51278 0.04000
C 	C 	0.82430 0.06330 0.51763 -0.05700
C 	C 	0.80006 0.09854 0.52071 -0.03600
C 	C 	0.80475 0.13492 0.49594 0.00500
C 	C 	0.83319 0.13515 0.46761 0.00200
C 	C 	0.85747 0.09952 0.46446 -0.03000
C 	C 	0.85352 0.06394 0.48975 0.04000
C 	C 	0.88678 0.10045 0.43640 0.04100
C 	C 	0.89071 0.13618 0.41140 -0.05500
C 	C 	0.86660 0.17159 0.41453 -0.03500
C 	C 	0.83820 0.17170 0.44268 0.00700
C 	C 	0.81527 0.20833 0.44638 -0.02100
C 	C 	0.78752 0.20871 0.47484 -0.07100
C 	C 	0.78201 0.17161 0.49942 -0.02400
C 	C 	0.88019 0.03073 0.48728 -0.07900
C 	C 	0.91100 0.03306 0.45987 0.02800
C 	C 	0.91308 0.06684 0.43410 -0.07900
H 	H 	0.82076 0.03589 0.53711 0.04000
H 	H 	0.77801 0.09783 0.54249 0.03200
H 	H 	0.87041 0.19923 0.39514 0.03800
H 	H 	0.81887 0.23629 0.42719 0.04900
H 	H 	0.76092 0.17206 0.52147 0.02600
H 	H 	0.87870 0.00466 0.50713 0.04800
C 	C 	0.33192 0.16756 0.52961 -0.03600
C 	C 	0.26596 0.13337 0.52861 -0.05500
C 	C 	0.22414 0.11440 0.49745 0.04100
C 	C 	0.24888 0.13034 0.46709 -0.03000
C 	C 	0.31524 0.16454 0.46807 0.00200
C 	C 	0.35689 0.18311 0.49944 0.00900
C 	C 	0.33988 0.17980 0.43765 0.00800
C 	C 	0.29808 0.16119 0.40653 -0.03600
C 	C 	0.23217 0.12733 0.40556 -0.05600
C 	C 	0.20719 0.11152 0.43569 0.04100
C 	C 	0.14101 0.07638 0.43476 -0.07900
C 	C 	0.11633 0.05958 0.46485 0.02800
C 	C 	0.15785 0.07902 0.49617 -0.07900
C 	C 	0.42292 0.21688 0.50026 -0.02400
C 	C 	0.44763 0.23198 0.46993 -0.06200
C 	C 	0.40592 0.21325 0.43869 -0.02500
H 	H 	0.36354 0.18173 0.55385 0.03700
H 	H 	0.31657 0.17283 0.38303 0.03500
H 	H 	0.20054 0.11317 0.38133 0.04100
H 	H 	0.10861 0.06115 0.41063 0.04900
H 	H 	0.45504 0.23180 0.52443 0.04900
H 	H 	0.42483 0.22432 0.41523 0.03800
C 	C 	0.85805 0.75144 0.05969 -0.05600
C 	C 	0.82653 0.68631 0.05918 -0.03600
C 	C 	0.80522 0.64404 0.02797 0.00700
C 	C 	0.81562 0.66742 0.99702 0.00300
C 	C 	0.84733 0.73295 0.99753 -0.02900
C 	C 	0.86874 0.77513 0.02900 0.04000
C 	C 	0.85805 0.75639 0.96659 0.04100
C 	C 	0.83663 0.71412 0.93538 -0.05600
C 	C 	0.80497 0.64898 0.93486 -0.03600
C 	C 	0.79437 0.62530 0.96556 0.00900
C 	C 	0.76251 0.56002 0.96517 -0.02300
C 	C 	0.75167 0.53652 0.99596 -0.06200
C 	C 	0.77350 0.57872 0.02731 -0.02500
H 	H 	0.87429 0.78345 0.08399 0.04100
H 	H 	0.81870 0.66878 0.08309 0.03500
H 	H 	0.84460 0.73168 0.91148 0.04100
H 	H 	0.78876 0.61698 0.91056 0.03700
H 	H 	0.74526 0.52743 0.94095 0.04800
H 	H 	0.76576 0.56066 0.05110 0.03700
C 	C 	0.83192 0.08972 0.04799 -0.05600
C 	C 	0.79616 0.11353 0.04496 -0.03500
C 	C 	0.79097 0.13630 0.01532 0.00600
C 	C 	0.82242 0.13556 0.98864 0.00400
C 	C 	0.85840 0.11161 0.99170 -0.03000
C 	C 	0.86293 0.08834 0.02142 0.04000
C 	C 	0.88925 0.11025 0.96484 0.04100
C 	C 	0.88447 0.13344 0.93532 -0.05700
C 	C 	0.84885 0.15733 0.93232 -0.03600
C 	C 	0.81753 0.15833 0.95880 0.00500
C 	C 	0.78122 0.18157 0.95572 -0.02300
C 	C 	0.74976 0.18239 0.98222 -0.07100
C 	C 	0.75469 0.15971 0.01198 -0.02200
C 	C 	0.89760 0.06317 0.02395 -0.08000
C 	C 	0.92724 0.06063 0.99691 0.02900
C 	C 	0.92360 0.08481 0.96760 -0.07900
H 	H 	0.77236 0.11405 0.06564 0.03700
H 	H 	0.90811 0.13274 0.91459 0.04000
H 	H 	0.84548 0.17488 0.90933 0.03200
H 	H 	0.77693 0.19852 0.93261 0.02500
H 	H 	0.73087 0.16083 0.03255 0.04700
H 	H 	0.94635 0.08255 0.94673 0.04900
C 	C 	0.34574 0.23153 0.04381 -0.03400
C 	C 	0.28093 0.20397 0.04329 -0.05600
C 	C 	0.23347 0.15012 0.01842 0.04100
C 	C 	0.25137 0.12426 0.99363 -0.03000
C 	C 	0.31655 0.15146 0.99446 0.00500
C 	C 	0.36388 0.20533 0.01962 0.00600
C 	C 	0.33438 0.12441 0.97032 0.00700
C 	C 	0.28698 0.07122 0.94510 -0.03500
C 	C 	0.22224 0.04463 0.94405 -0.05600
C 	C 	0.20406 0.07058 0.96837 0.04100
C 	C 	0.13915 0.04266 0.96823 -0.07900
C 	C 	0.12113 0.06666 0.99381 0.02900
C 	C 	0.16834 0.12100 0.01849 -0.08000
C 	C 	0.42869 0.23207 0.02040 -0.02000
C 	C 	0.44639 0.20477 0.99665 -0.06400
C 	C 	0.39936 0.15090 0.97176 -0.02100
H 	H 	0.38178 0.27302 0.06319 0.03500
H 	H 	0.26769 0.22438 0.06233 0.04100
H 	H 	0.30018 0.05031 0.92633 0.03500
H 	H 	0.15432 0.13944 0.03818 0.04900
H 	H 	0.46533 0.27370 0.03960 0.03200
H 	H 	0.41339 0.13021 0.95338 0.03200
C 	C 	0.01661 0.96688 0.99829 -0.05900
C 	C 	0.95138 0.93280 0.99947 0.01200
C 	C 	0.92250 0.96384 0.99975 -0.05900
H 	H 	0.03895 0.94280 0.99846 0.04700
H 	H 	0.87181 0.93720 0.00036 0.04600
C 	C 	0.91345 0.93934 0.45915 -0.06100
C 	C 	0.94757 0.91343 0.46074 0.01300
C 	C 	0.01421 0.95328 0.46303 -0.06000
H 	H 	0.86193 0.90870 0.45740 0.04600
H 	H 	0.04077 0.93354 0.46456 0.04700
C 	C 	0.88030 0.81627 0.48610 -0.07800
C 	C 	0.91375 0.84449 0.45989 0.02700
H 	H 	0.87566 0.84426 0.50565 0.04800
H 	H 	0.94529 0.83016 0.41418 0.04900
H 	H 	0.91290 0.13700 0.38966 0.04100
H 	H 	0.93643 0.06808 0.41281 0.04800
H 	H 	0.24744 0.12148 0.55208 0.04100
H 	H 	0.13842 0.06589 0.51934 0.04900
C 	C 	0.90124 0.84051 0.02940 -0.08000
C 	C 	0.91273 0.86386 0.99867 0.02900
C 	C 	0.89069 0.82183 0.96733 -0.07900
H 	H 	0.91851 0.87333 0.05353 0.04900
H 	H 	0.89982 0.84030 0.94368 0.04900
H 	H 	0.83522 0.07208 0.07096 0.04100
H 	H 	0.90082 0.04472 0.04663 0.04900
H 	H 	0.18623 0.00346 0.92449 0.04100
H 	H 	0.10258 0.00133 0.94886 0.04800
