data_crystal

_cell_length_a 26.14790
_cell_length_b 26.37249
_cell_length_c 26.71444
_cell_angle_alpha 95.49283
_cell_angle_beta  95.49162
_cell_angle_gamma 125.83979

_symmetry_space_group_name_	'P 1'
_symmetry_space_group_name_H-M	'P 1'

loop_
_symmetry_equiv_pos_as_xyz
  x,y,z

loop_
_atom_site_label
_atom_site_type_symbol
_atom_site_fract_x
_atom_site_fract_y
_atom_site_fract_z
_atom_site_charge
C 	C 	0.96137 0.02753 0.96878 0.12200
N 	N 	0.02401 0.06344 0.96384 -0.14700
C 	C 	0.05547 0.03690 0.96132 0.12000
N 	N 	0.02341 0.97383 0.96199 -0.14500
C 	C 	0.96050 0.93765 0.96579 0.12200
N 	N 	0.92963 0.96457 0.96947 -0.14500
C 	C 	0.93612 0.99563 0.46247 0.12000
N 	N 	0.90339 0.93161 0.45866 -0.14600
C 	C 	0.93466 0.90498 0.45374 0.12000
N 	N 	0.99877 0.94280 0.45414 -0.14500
C 	C 	0.03180 0.00678 0.45989 0.12300
N 	N 	0.00036 0.03310 0.46332 -0.14500
Cu	Cu	0.63635 0.24508 0.00602 0.93000
Cu	Cu	0.68726 0.24034 0.89959 0.87700
Cu	Cu	0.67772 0.34408 0.93772 0.89800
Cu	Cu	0.65199 0.37173 0.03944 0.89400
C 	C 	0.65596 0.29459 0.11275 0.33500
O 	O 	0.54517 0.21617 0.00408 -0.35800
C 	C 	0.66987 0.30458 0.82858 0.33600
O 	O 	0.69594 0.34415 0.00915 -0.63900
O 	O 	0.62982 0.25015 0.93259 -0.64100
O 	O 	0.66716 0.19152 0.00472 -0.36600
O 	O 	0.74250 0.25274 0.95840 -0.43500
O 	O 	0.63429 0.32639 0.09855 -0.38800
O 	O 	0.73003 0.43574 0.94618 -0.38200
C 	C 	0.72484 0.47368 0.97760 0.29800
C 	C 	0.52541 0.24826 0.98688 0.28800
O 	O 	0.56749 0.30684 0.98029 -0.40000
O 	O 	0.69944 0.45699 0.01906 -0.39500
O 	O 	0.65689 0.25536 0.07888 -0.35200
C 	C 	0.72036 0.21057 0.98827 0.29100
O 	O 	0.66765 0.34223 0.86330 -0.37900
O 	O 	0.65534 0.24951 0.83670 -0.40900
H 	H 	0.74217 0.36880 0.02405 0.16700
H 	H 	0.58556 0.22508 0.91258 0.17300
Cu	Cu	0.71954 0.32098 0.43088 0.92800
Cu	Cu	0.77518 0.32782 0.55252 0.87500
Cu	Cu	0.63535 0.29050 0.51194 0.90300
Cu	Cu	0.59289 0.31197 0.40875 0.89700
C 	C 	0.65724 0.29678 0.32656 0.33100
O 	O 	0.75714 0.41164 0.42204 -0.35500
C 	C 	0.69894 0.33047 0.62067 0.32700
O 	O 	0.62371 0.27183 0.43930 -0.64300
O 	O 	0.72861 0.34497 0.50600 -0.63900
O 	O 	0.75480 0.27068 0.42870 -0.36000
O 	O 	0.82244 0.32164 0.50620 -0.42500
O 	O 	0.60731 0.29288 0.33937 -0.39200
O 	O 	0.54397 0.23901 0.51083 -0.36600
C 	C 	0.50485 0.24417 0.48055 0.29300
C 	C 	0.72925 0.43820 0.43442 0.28500
O 	O 	0.67457 0.40489 0.45049 -0.38300
O 	O 	0.52751 0.28964 0.45306 -0.39300
O 	O 	0.69354 0.28937 0.35839 -0.34800
C 	C 	0.79373 0.27478 0.46672 0.28900
O 	O 	0.64615 0.28986 0.58595 -0.36600
O 	O 	0.75585 0.36209 0.60772 -0.42000
H 	H 	0.59691 0.22547 0.42568 0.15800
H 	H 	0.74653 0.39031 0.51579 0.16900
C 	C 	0.63445 0.31688 0.74367 -0.08600
C 	C 	0.68131 0.32065 0.77775 -0.13800
C 	C 	0.73642 0.33331 0.76131 0.33100
C 	C 	0.74332 0.33931 0.71057 -0.09600
C 	C 	0.69497 0.33225 0.67554 -0.13400
C 	C 	0.64115 0.32266 0.69267 0.33200
F 	F 	0.59527 0.31854 0.65996 -0.44800
H 	H 	0.59201 0.30765 0.75624 0.08500
H 	H 	0.78523 0.34716 0.69804 0.07500
F 	F 	0.78252 0.33802 0.79424 -0.47400
C 	C 	0.71647 0.33466 0.20228 -0.09300
C 	C 	0.66030 0.28819 0.16662 -0.13300
C 	C 	0.60553 0.24034 0.18367 0.33800
C 	C 	0.60540 0.24184 0.23607 -0.09400
C 	C 	0.66041 0.29042 0.27187 -0.12900
C 	C 	0.71688 0.33520 0.25479 0.33000
F 	F 	0.77151 0.38018 0.28899 -0.46300
H 	H 	0.75923 0.37126 0.18938 0.07500
H 	H 	0.56217 0.20596 0.24890 0.08500
F 	F 	0.55172 0.19364 0.14944 -0.46000
C 	C 	0.81422 0.72436 0.41892 -0.07800
C 	C 	0.84668 0.70613 0.44773 -0.00800
C 	C 	0.90714 0.75309 0.47911 0.03900
C 	C 	0.93241 0.81748 0.48362 -0.04800
C 	C 	0.90110 0.83621 0.45372 -0.04600
C 	C 	0.84183 0.78912 0.42033 0.06600
C 	C 	0.81705 0.63755 0.44467 0.00700
C 	C 	0.94562 0.73489 0.50673 -0.17900
H 	H 	0.97773 0.85341 0.50924 0.04200
C 	C 	0.80802 0.80728 0.38598 -0.18900
H 	H 	0.76787 0.68806 0.39474 0.04700
C 	C 	0.78302 0.60481 0.48238 0.02300
C 	C 	0.75946 0.54115 0.48058 -0.01700
C 	C 	0.76422 0.50790 0.43919 -0.10900
C 	C 	0.79557 0.54000 0.39996 0.10000
C 	C 	0.82349 0.60515 0.40398 -0.09700
C 	C 	0.77033 0.63704 0.52382 -0.17200
H 	H 	0.73542 0.51671 0.51063 0.04000
C 	C 	0.79841 0.50513 0.35344 -0.21200
H 	H 	0.84942 0.63047 0.37497 0.05300
H 	H 	0.78754 0.82603 0.40922 0.07100
H 	H 	0.76808 0.76568 0.35700 0.06300
H 	H 	0.84193 0.84383 0.36483 0.07000
H 	H 	0.95212 0.70579 0.47903 0.06700
H 	H 	0.92054 0.70706 0.53612 0.06300
H 	H 	0.99411 0.77747 0.52624 0.06100
H 	H 	0.73813 0.60326 0.54750 0.06300
H 	H 	0.74673 0.65673 0.50641 0.06500
H 	H 	0.81608 0.67627 0.54952 0.06200
H 	H 	0.81705 0.53492 0.32363 0.08000
H 	H 	0.74961 0.46150 0.33598 0.10000
H 	H 	0.83079 0.49215 0.36447 0.11200
C 	C 	0.87538 0.19689 0.44157 -0.10000
C 	C 	0.83793 0.14159 0.46208 0.01000
C 	C 	0.78457 0.12907 0.48255 0.01800
C 	C 	0.77043 0.17293 0.48325 -0.01600
C 	C 	0.80835 0.22859 0.46338 -0.12100
C 	C 	0.86075 0.24039 0.44176 0.10900
C 	C 	0.85662 0.09834 0.46390 -0.00900
C 	C 	0.74375 0.06998 0.50487 -0.16900
H 	H 	0.73018 0.16405 0.49974 0.01100
C 	C 	0.90162 0.29960 0.41962 -0.21300
H 	H 	0.91620 0.20623 0.42580 0.05300
C 	C 	0.83744 0.05112 0.42106 0.03900
C 	C 	0.86070 0.01475 0.42229 -0.04800
C 	C 	0.90226 0.02464 0.46577 -0.04600
C 	C 	0.91739 0.06844 0.50995 0.06700
C 	C 	0.89554 0.10594 0.50826 -0.07800
C 	C 	0.79463 0.04136 0.37328 -0.17900
H 	H 	0.84844 0.98045 0.38870 0.04000
C 	C 	0.95899 0.07732 0.55820 -0.18900
H 	H 	0.90936 0.14155 0.54133 0.04600
H 	H 	0.87113 0.30174 0.38928 0.09100
H 	H 	0.93902 0.30051 0.40224 0.07200
H 	H 	0.92606 0.34247 0.45026 0.08100
H 	H 	0.77222 0.07286 0.54012 0.06100
H 	H 	0.72696 0.02701 0.47673 0.06200
H 	H 	0.70059 0.06419 0.51499 0.05600
H 	H 	0.77848 0.99836 0.34547 0.06100
H 	H 	0.82112 0.08334 0.35449 0.06700
H 	H 	0.75108 0.03499 0.38300 0.06500
H 	H 	0.01016 0.10732 0.55412 0.06900
H 	H 	0.94514 0.03057 0.56593 0.06800
H 	H 	0.95375 0.10088 0.59196 0.06200
C 	C 	0.20537 0.09084 0.52049 -0.07900
C 	C 	0.23583 0.11443 0.47912 -0.00700
C 	C 	0.19953 0.10618 0.43220 0.03800
C 	C 	0.13277 0.07250 0.42697 -0.04700
C 	C 	0.10220 0.04772 0.46800 -0.04700
C 	C 	0.13887 0.05852 0.51561 0.06700
C 	C 	0.30573 0.14697 0.48497 0.00700
C 	C 	0.23154 0.13157 0.38732 -0.17800
H 	H 	0.10440 0.06442 0.39062 0.04200
C 	C 	0.10701 0.03409 0.56076 -0.18900
H 	H 	0.23353 0.09767 0.55650 0.04900
C 	C 	0.34990 0.21305 0.50413 0.02600
C 	C 	0.41555 0.24377 0.50472 -0.01000
C 	C 	0.43751 0.20934 0.48666 -0.10100
C 	C 	0.39368 0.14269 0.47001 0.09500
C 	C 	0.32800 0.11194 0.46954 -0.09200
C 	C 	0.32705 0.25110 0.52280 -0.17200
H 	H 	0.44952 0.29481 0.51818 0.04600
C 	C 	0.41644 0.10456 0.45132 -0.20100
H 	H 	0.29390 0.06097 0.45581 0.05100
H 	H 	0.14289 0.05421 0.59678 0.06300
H 	H 	0.07859 0.98140 0.55416 0.06900
H 	H 	0.07471 0.04774 0.56621 0.06700
H 	H 	0.25115 0.10610 0.37402 0.06500
H 	H 	0.27123 0.18330 0.39862 0.06400
H 	H 	0.19731 0.12510 0.35467 0.06100
H 	H 	0.36772 0.30198 0.53757 0.06400
H 	H 	0.30055 0.23161 0.55436 0.06600
H 	H 	0.29483 0.24889 0.49095 0.06200
H 	H 	0.37604 0.05312 0.43902 0.06600
H 	H 	0.45108 0.10931 0.48250 0.07600
H 	H 	0.44012 0.12195 0.41807 0.06000
C 	C 	0.75777 0.63023 0.95953 -0.09500
C 	C 	0.82498 0.66997 0.96651 0.00800
C 	C 	0.85923 0.64463 0.97530 0.02300
C 	C 	0.82555 0.57981 0.97760 -0.01100
C 	C 	0.75840 0.54028 0.97143 -0.10700
C 	C 	0.72405 0.56526 0.96128 0.09900
C 	C 	0.85928 0.73855 0.96585 -0.01000
C 	C 	0.93163 0.68687 0.98371 -0.17400
H 	H 	0.85167 0.56033 0.98522 0.03700
C 	C 	0.65168 0.52314 0.95310 -0.20400
H 	H 	0.73176 0.64998 0.95277 0.05100
C 	C 	0.87165 0.76153 0.91952 0.03900
C 	C 	0.90530 0.82703 0.92022 -0.04700
C 	C 	0.92599 0.86947 0.96634 -0.04900
C 	C 	0.91340 0.84648 0.01264 0.07000
C 	C 	0.87969 0.78098 0.01195 -0.07600
C 	C 	0.84848 0.71635 0.86936 -0.18000
H 	H 	0.91506 0.84502 0.88479 0.04200
C 	C 	0.93540 0.89149 0.06267 -0.19100
H 	H 	0.86967 0.76296 0.04734 0.04700
H 	H 	0.63121 0.47940 0.92441 0.07200
H 	H 	0.63187 0.54763 0.93868 0.06700
H 	H 	0.63591 0.50962 0.98984 0.07100
H 	H 	0.95175 0.72281 0.01944 0.06600
H 	H 	0.94833 0.71166 0.95095 0.06500
H 	H 	0.95095 0.65917 0.98727 0.06200
H 	H 	0.86305 0.74196 0.83677 0.06300
H 	H 	0.79524 0.68222 0.86180 0.06800
H 	H 	0.86897 0.68955 0.87078 0.06700
H 	H 	0.90936 0.91292 0.06234 0.07000
H 	H 	0.98784 0.92996 0.06851 0.07000
H 	H 	0.92618 0.86673 0.09579 0.06300
C 	C 	0.88976 0.11631 0.95145 -0.07700
C 	C 	0.86270 0.10919 0.99547 -0.01400
C 	C 	0.86996 0.07714 0.03161 0.04100
C 	C 	0.90341 0.05170 0.02266 -0.04600
C 	C 	0.92956 0.05779 0.97817 -0.05000
C 	C 	0.92251 0.09017 0.94210 0.06600
C 	C 	0.82447 0.13322 0.00225 0.01300
C 	C 	0.84071 0.06854 0.07899 -0.18000
H 	H 	0.90878 0.02670 0.05019 0.04100
C 	C 	0.94968 0.09699 0.89373 -0.19000
H 	H 	0.88442 0.14143 0.92404 0.04600
C 	C 	0.85474 0.19784 0.02295 0.02200
C 	C 	0.81871 0.22157 0.02153 -0.01200
C 	C 	0.75297 0.18160 0.00009 -0.10700
C 	C 	0.72182 0.11589 0.98280 0.09200
C 	C 	0.75798 0.09227 0.98412 -0.09700
C 	C 	0.92600 0.24236 0.04381 -0.17100
H 	H 	0.84235 0.27181 0.03526 0.03800
C 	C 	0.65070 0.07128 0.96131 -0.19900
H 	H 	0.73477 0.04234 0.96943 0.05100
H 	H 	0.00290 0.13101 0.90319 0.07000
H 	H 	0.93210 0.11516 0.86640 0.06300
H 	H 	0.93506 0.05013 0.87404 0.07000
H 	H 	0.78752 0.03668 0.06803 0.06700
H 	H 	0.85669 0.11529 0.10017 0.06600
H 	H 	0.85512 0.04711 0.10542 0.06100
H 	H 	0.94061 0.28862 0.06496 0.06200
H 	H 	0.95271 0.25170 0.01180 0.06400
H 	H 	0.93988 0.22109 0.07082 0.06300
H 	H 	0.63912 0.08731 0.92797 0.05300
H 	H 	0.62350 0.07004 0.99123 0.08200
H 	H 	0.63425 0.02186 0.94816 0.06500
C 	C 	0.23550 0.16843 0.98612 -0.08100
C 	C 	0.25579 0.13962 0.95552 -0.00800
C 	C 	0.20985 0.07987 0.92328 0.03900
C 	C 	0.14425 0.04939 0.92293 -0.04900
C 	C 	0.12397 0.07579 0.95650 -0.04600
C 	C 	0.17022 0.13609 0.98852 0.06400
C 	C 	0.32497 0.16796 0.96310 0.00600
C 	C 	0.23060 0.04614 0.89238 -0.17900
H 	H 	0.10892 0.00362 0.89802 0.04400
C 	C 	0.15088 0.16542 0.02632 -0.18700
H 	H 	0.27104 0.21467 0.01034 0.04900
C 	C 	0.36441 0.20791 0.93074 0.02100
C 	C 	0.42941 0.23217 0.93808 -0.01600
C 	C 	0.45639 0.22064 0.97938 -0.11600
C 	C 	0.41777 0.18525 0.01443 0.10700
C 	C 	0.35181 0.15660 0.00438 -0.09700
C 	C 	0.33799 0.22640 0.88958 -0.17100
H 	H 	0.45924 0.26070 0.91202 0.03600
C 	C 	0.44658 0.17945 0.06327 -0.21600
H 	H 	0.32149 0.12683 0.02967 0.05500
H 	H 	0.12548 0.18151 0.00559 0.07100
H 	H 	0.19333 0.20746 0.05333 0.06300
H 	H 	0.11940 0.13056 0.04967 0.07100
H 	H 	0.25367 0.03177 0.91853 0.06600
H 	H 	0.26522 0.07778 0.86897 0.06400
H 	H 	0.18920 0.00268 0.86578 0.06100
H 	H 	0.37551 0.25950 0.86861 0.06100
H 	H 	0.31896 0.25063 0.90704 0.06300
H 	H 	0.29874 0.18349 0.86137 0.06100
H 	H 	0.41351 0.16335 0.09111 0.08600
H 	H 	0.49171 0.22630 0.08218 0.11100
H 	H 	0.45627 0.14411 0.05477 0.11300
