data_crystal

_cell_length_a 26.18131
_cell_length_b 26.30313
_cell_length_c 26.48878
_cell_angle_alpha 95.45124
_cell_angle_beta  95.45141
_cell_angle_gamma 125.71835

_symmetry_space_group_name_	'P 1'
_symmetry_space_group_name_H-M	'P 1'

loop_
_symmetry_equiv_pos_as_xyz
  x,y,z

loop_
_atom_site_label
_atom_site_type_symbol
_atom_site_fract_x
_atom_site_fract_y
_atom_site_fract_z
_atom_site_charge
C 	C 	0.98507 0.04698 0.98949 0.02700
C 	C 	0.07774 0.04679 0.98770 0.02400
C 	C 	0.05076 0.07985 0.98913 -0.07100
C 	C 	0.02516 0.00150 0.44314 0.00700
C 	C 	0.99104 0.02722 0.44171 -0.04800
C 	C 	0.86766 0.11729 0.36535 -0.04700
C 	C 	0.86402 0.08195 0.40328 0.04300
C 	C 	0.88912 0.01547 0.43934 0.03400
C 	C 	0.89086 0.04881 0.40025 -0.07600
C 	C 	0.20777 0.08739 0.35304 -0.04900
C 	C 	0.18404 0.08310 0.39906 0.04200
C 	C 	0.09457 0.04266 0.44425 0.03300
C 	C 	0.11791 0.04747 0.39804 -0.07600
C 	C 	0.92314 0.16752 0.90553 -0.05000
C 	C 	0.92438 0.13899 0.94737 0.04300
C 	C 	0.95649 0.11106 0.94899 -0.07400
C 	C 	0.95636 0.08137 0.99037 0.03300
C 	C 	0.23239 0.08649 0.95287 0.04600
C 	C 	0.25276 0.06352 0.91585 -0.04900
C 	C 	0.31760 0.08922 0.92026 -0.02700
C 	C 	0.14686 0.08101 0.98779 0.03400
C 	C 	0.16730 0.05990 0.94931 -0.07500
H 	H 	0.33252 0.07085 0.89146 0.05000
H 	H 	0.21837 0.02549 0.88378 0.05100
H 	H 	0.13232 0.02177 0.91743 0.05400
H 	H 	0.01615 0.07787 0.44258 0.04600
C 	C 	0.85808 0.01307 0.48048 -0.07300
C 	C 	0.13729 0.07436 0.49167 -0.07500
H 	H 	0.17516 0.06376 0.31619 0.04700
H 	H 	0.11887 0.07038 0.52724 0.05500
H 	H 	0.08457 0.02282 0.36153 0.05200
H 	H 	0.94806 0.16930 0.87455 0.04800
H 	H 	0.98033 0.11110 0.91763 0.05400
H 	H 	0.89006 0.11818 0.33275 0.04900
C 	C 	0.83443 0.08092 0.44537 -0.02300
H 	H 	0.08064 0.13080 0.98991 0.05300
C 	C 	0.22701 0.11422 0.44678 -0.02200
C 	C 	0.20354 0.11009 0.49319 0.04300
C 	C 	0.89204 0.13731 0.98761 -0.02000
C 	C 	0.92550 0.08111 0.03107 -0.08000
C 	C 	0.83080 0.04575 0.48374 0.04200
H 	H 	0.92594 0.05853 0.06316 0.05300
C 	C 	0.85781 0.16328 0.98526 0.00700
C 	C 	0.89303 0.10871 0.02976 0.03800
C 	C 	0.27758 0.13593 0.99447 -0.02100
C 	C 	0.36295 0.13855 0.96152 0.01600
C 	C 	0.19206 0.13106 0.02870 -0.08100
H 	H 	0.91435 0.05008 0.36828 0.05400
H 	H 	0.79794 0.01788 0.55507 0.04700
H 	H 	0.22908 0.13828 0.57638 0.05200
C 	C 	0.80954 0.11606 0.44964 -0.00000
C 	C 	0.80125 0.04498 0.52553 -0.04900
C 	C 	0.24663 0.14108 0.54053 -0.04400
H 	H 	0.44403 0.14778 0.93700 0.04700
H 	H 	0.17614 0.14715 0.05841 0.05300
F 	F 	0.48676 0.16907 0.66664 -0.45200
C 	C 	0.78076 0.11570 0.49210 0.01800
C 	C 	0.77637 0.07969 0.52967 -0.03400
H 	H 	0.75407 0.07889 0.56233 0.04400
C 	C 	0.86056 0.10708 0.06959 -0.04800
H 	H 	0.86125 0.08544 0.10223 0.04800
C 	C 	0.82652 0.13287 0.06724 -0.03200
F 	F 	0.51803 0.14201 0.17007 -0.45100
C 	C 	0.25742 0.15882 0.03211 0.04200
C 	C 	0.82455 0.16064 0.02504 0.01400
H 	H 	0.80139 0.13085 0.09812 0.05300
C 	C 	0.34289 0.16218 0.99866 0.01600
C 	C 	0.42819 0.16524 0.96572 -0.00700
C 	C 	0.27373 0.12197 0.35437 -0.03500
C 	C 	0.29339 0.14893 0.44812 -0.00100
C 	C 	0.31259 0.17559 0.54186 -0.03200
F 	F 	0.57412 0.16332 0.10642 -0.44900
C 	C 	0.75746 0.15196 0.49688 -0.02700
H 	H 	0.73612 0.15236 0.52993 0.04100
C 	C 	0.84301 0.15226 0.36962 -0.03400
C 	C 	0.81432 0.15227 0.41184 0.02500
H 	H 	0.76372 0.18338 0.05246 0.06700
C 	C 	0.78922 0.18522 0.02187 -0.02700
H 	H 	0.29126 0.12467 0.31852 0.04800
C 	C 	0.31680 0.15268 0.40174 0.02200
C 	C 	0.33631 0.17957 0.49585 0.03100
F 	F 	0.55847 0.18220 0.61868 -0.47400
H 	H 	0.84663 0.17965 0.34023 0.06100
H 	H 	0.34519 0.19905 0.57872 0.06900
C 	C 	0.92453 0.98769 0.43947 0.00700
H 	H 	0.85682 0.98731 0.51058 0.05000
C 	C 	0.88925 0.19342 0.90325 -0.03300
C 	C 	0.85614 0.19109 0.94277 0.01500
H 	H 	0.88846 0.21494 0.87055 0.04300
H 	H 	0.81872 0.23603 0.90687 0.03900
C 	C 	0.94638 0.98092 0.98780 -0.07000
C 	C 	0.97324 0.94788 0.98625 0.02600
C 	C 	0.03890 0.98093 0.98674 -0.07300
H 	H 	0.89547 0.95525 0.98723 0.05400
H 	H 	0.05981 0.95545 0.98657 0.05500
C 	C 	0.89226 0.92210 0.43862 -0.05800
C 	C 	0.92656 0.89634 0.44031 0.01300
C 	C 	0.99306 0.93633 0.44285 -0.05400
H 	H 	0.84082 0.89132 0.43645 0.04800
H 	H 	0.01976 0.91670 0.44451 0.04900
Cu	Cu	0.65909 0.25826 0.00708 0.93200
Cu	Cu	0.69381 0.25784 0.89159 0.87900
Cu	Cu	0.67979 0.35356 0.93868 0.90700
Cu	Cu	0.66865 0.38028 0.04871 0.90000
C 	C 	0.67854 0.29888 0.11613 0.30800
O 	O 	0.56809 0.22008 0.01612 -0.30600
C 	C 	0.65155 0.31166 0.82618 0.29200
O 	O 	0.70991 0.35690 0.00866 -0.64200
O 	O 	0.63872 0.26073 0.93390 -0.63500
O 	O 	0.69826 0.21272 0.99787 -0.34200
O 	O 	0.75969 0.27695 0.94456 -0.41900
O 	O 	0.68160 0.35042 0.11215 -0.36000
O 	O 	0.72677 0.44486 0.94588 -0.33300
C 	C 	0.73043 0.48214 0.98546 0.28300
C 	C 	0.54187 0.24897 0.00686 0.28000
O 	O 	0.57696 0.30776 0.99922 -0.37200
O 	O 	0.69390 0.45798 0.02044 -0.38400
O 	O 	0.69016 0.27179 0.07900 -0.33000
C 	C 	0.74782 0.23601 0.97481 0.27700
O 	O 	0.65213 0.34734 0.86531 -0.31700
O 	O 	0.64837 0.26080 0.83247 -0.39500
H 	H 	0.75712 0.38394 0.01897 0.17600
H 	H 	0.59271 0.23308 0.91796 0.18300
Cu	Cu	0.72141 0.32077 0.43750 0.93600
Cu	Cu	0.71277 0.27617 0.54956 0.88200
Cu	Cu	0.62281 0.29920 0.50263 0.90500
Cu	Cu	0.60513 0.32065 0.39631 0.89800
C 	C 	0.67825 0.29857 0.32838 0.29300
O 	O 	0.76029 0.41294 0.43225 -0.31400
C 	C 	0.65724 0.31642 0.61507 0.29900
O 	O 	0.62221 0.27231 0.43245 -0.64000
O 	O 	0.71550 0.33621 0.51043 -0.63700
O 	O 	0.76603 0.28048 0.44626 -0.33500
O 	O 	0.69656 0.21405 0.49450 -0.41500
O 	O 	0.65199 0.32774 0.33868 -0.35800
O 	O 	0.53135 0.25651 0.49290 -0.33600
C 	C 	0.49517 0.25279 0.45214 0.27800
C 	C 	0.73424 0.44036 0.44824 0.26700
O 	O 	0.67433 0.40498 0.45423 -0.38400
O 	O 	0.52015 0.28626 0.41554 -0.38000
O 	O 	0.71027 0.29199 0.36544 -0.30600
C 	C 	0.73995 0.22842 0.46598 0.27500
O 	O 	0.62577 0.32160 0.57627 -0.32900
O 	O 	0.70769 0.31794 0.60989 -0.39000
H 	H 	0.59310 0.22567 0.41975 0.17800
H 	H 	0.74449 0.38111 0.52870 0.18300
C 	C 	0.69090 0.37743 0.70389 0.05200
C 	C 	0.64436 0.32245 0.66737 -0.00100
C 	C 	0.59126 0.26981 0.68326 -0.10400
C 	C 	0.59113 0.26953 0.73633 0.05100
C 	C 	0.64205 0.32146 0.77315 0.00100
C 	C 	0.68960 0.37802 0.75694 -0.10400
C 	C 	0.73882 0.43864 0.79597 0.77900
H 	H 	0.72979 0.41857 0.69101 0.07300
H 	H 	0.55338 0.22750 0.74917 0.07500
C 	C 	0.53665 0.21260 0.64383 0.77900
F 	F 	0.77949 0.48896 0.77231 -0.45800
F 	F 	0.77564 0.42899 0.82869 -0.47600
F 	F 	0.70787 0.45580 0.82455 -0.45300
F 	F 	0.51283 0.23228 0.60809 -0.45600
C 	C 	0.73981 0.32378 0.20321 0.05000
C 	C 	0.68173 0.28418 0.16804 0.00200
C 	C 	0.62533 0.23837 0.18530 -0.10300
C 	C 	0.62613 0.24045 0.23865 0.05000
C 	C 	0.68285 0.28523 0.27435 0.00100
C 	C 	0.74123 0.32446 0.25654 -0.09700
C 	C 	0.80461 0.36789 0.29419 0.78000
H 	H 	0.78325 0.35667 0.18914 0.07400
H 	H 	0.58194 0.20965 0.25259 0.06400
C 	C 	0.56329 0.19060 0.14726 0.78000
F 	F 	0.85577 0.40128 0.26902 -0.45000
F 	F 	0.81439 0.33195 0.32273 -0.44500
F 	F 	0.80416 0.41165 0.32710 -0.45600
F 	F 	0.53886 0.22116 0.12877 -0.46800
C 	C 	0.77766 0.64374 0.52329 -0.03600
C 	C 	0.80208 0.70691 0.52082 -0.04800
C 	C 	0.83454 0.73539 0.48097 0.04100
C 	C 	0.84247 0.70002 0.44332 -0.02100
C 	C 	0.81853 0.63668 0.44616 -0.00400
C 	C 	0.78564 0.60831 0.48609 0.02200
C 	C 	0.82711 0.60160 0.40883 0.02900
C 	C 	0.85934 0.62997 0.36888 -0.03700
C 	C 	0.88277 0.69273 0.36589 -0.04500
C 	C 	0.87460 0.72806 0.40299 0.04100
C 	C 	0.89905 0.79138 0.40070 -0.07400
C 	C 	0.89306 0.82738 0.43908 0.03000
C 	C 	0.86001 0.79905 0.47874 -0.07400
C 	C 	0.76033 0.54460 0.48787 -0.03100
C 	C 	0.76789 0.50924 0.45019 -0.03900
C 	C 	0.80230 0.53822 0.41133 -0.03400
H 	H 	0.75252 0.62241 0.55415 0.04900
H 	H 	0.79570 0.73363 0.54992 0.04800
H 	H 	0.86609 0.60339 0.33998 0.06300
H 	H 	0.90748 0.71389 0.33480 0.04900
H 	H 	0.92406 0.81321 0.36986 0.05300
H 	H 	0.85556 0.82697 0.50838 0.05200
H 	H 	0.73405 0.52225 0.51801 0.05100
H 	H 	0.80772 0.51076 0.38207 0.09500
C 	C 	0.79093 0.18853 0.41699 -0.02500
C 	C 	0.76290 0.18885 0.45967 -0.04900
H 	H 	0.79445 0.21633 0.38794 0.08300
C 	C 	0.38292 0.18679 0.40331 -0.02800
C 	C 	0.42577 0.21715 0.45084 -0.03700
C 	C 	0.40235 0.21366 0.49700 -0.02600
H 	H 	0.40102 0.18926 0.36775 0.05000
H 	H 	0.43550 0.23799 0.53359 0.09700
C 	C 	0.81326 0.69828 0.07088 -0.03600
C 	C 	0.84568 0.76331 0.07044 -0.04800
C 	C 	0.87171 0.78832 0.02728 0.03600
C 	C 	0.86467 0.74752 0.98407 -0.01400
C 	C 	0.83205 0.68206 0.98453 0.00000
C 	C 	0.80638 0.65741 0.02814 0.01800
C 	C 	0.82550 0.64137 0.94152 0.03700
C 	C 	0.85136 0.66637 0.89828 -0.03600
C 	C 	0.88384 0.73143 0.89783 -0.04000
C 	C 	0.89089 0.77232 0.94063 0.04000
C 	C 	0.92465 0.83779 0.94089 -0.07200
C 	C 	0.93272 0.87857 0.98430 0.03200
C 	C 	0.90557 0.85372 0.02710 -0.07900
C 	C 	0.77413 0.59226 0.02852 -0.03600
C 	C 	0.76668 0.55126 0.98542 -0.02900
C 	C 	0.79316 0.57623 0.94224 -0.03200
H 	H 	0.79357 0.67973 0.10454 0.04300
H 	H 	0.85075 0.79424 0.10378 0.04400
H 	H 	0.84642 0.63545 0.86498 0.08100
H 	H 	0.90372 0.75002 0.86425 0.05300
H 	H 	0.94552 0.85727 0.90783 0.05400
H 	H 	0.91204 0.88550 0.06054 0.05100
H 	H 	0.75487 0.57347 0.06227 0.05100
H 	H 	0.78846 0.54510 0.90927 0.11200
C 	C 	0.78677 0.21218 0.97916 -0.04900
C 	C 	0.82075 0.21548 0.93994 -0.02600
C 	C 	0.30283 0.20848 0.07315 -0.05100
C 	C 	0.36783 0.23517 0.07690 -0.02500
C 	C 	0.38820 0.21226 0.03984 0.01200
C 	C 	0.47335 0.21608 0.00601 -0.04100
C 	C 	0.45333 0.23928 0.04310 0.00000
H 	H 	0.28785 0.22646 0.10221 0.04800
H 	H 	0.40230 0.27360 0.10871 0.04900
H 	H 	0.48856 0.27875 0.07406 0.06200
