data_crystal

_cell_length_a 29.53025
_cell_length_b 30.54663
_cell_length_c 30.86943
_cell_angle_alpha 61.32809
_cell_angle_beta  118.34505
_cell_angle_gamma 133.13102

_symmetry_space_group_name_	'P 1'
_symmetry_space_group_name_H-M	'P 1'

loop_
_symmetry_equiv_pos_as_xyz
  x,y,z

loop_
_atom_site_label
_atom_site_type_symbol
_atom_site_fract_x
_atom_site_fract_y
_atom_site_fract_z
_atom_site_charge
C 	C 	0.73460 0.30557 0.05577 0.13200
N 	N 	0.77608 0.36504 0.06033 -0.13900
C 	C 	0.75617 0.38866 0.06896 0.13500
N 	N 	0.69560 0.35313 0.07318 -0.14000
C 	C 	0.65447 0.29404 0.06915 0.13500
N 	N 	0.67374 0.26995 0.06044 -0.13900
C 	C 	0.73459 0.30557 0.55577 0.13200
N 	N 	0.77608 0.36504 0.56033 -0.13900
C 	C 	0.75617 0.38866 0.56896 0.13500
N 	N 	0.69560 0.35313 0.57319 -0.14000
C 	C 	0.65447 0.29403 0.56916 0.13600
N 	N 	0.67374 0.26995 0.56044 -0.13900
C 	C 	0.27231 0.65945 0.26611 0.13400
N 	N 	0.33246 0.69479 0.25984 -0.13600
C 	C 	0.34980 0.67038 0.24901 0.13600
N 	N 	0.30748 0.61132 0.24460 -0.13900
C 	C 	0.24795 0.57598 0.25103 0.13700
N 	N 	0.23007 0.59987 0.26179 -0.13700
C 	C 	0.27231 0.65944 0.76611 0.13400
N 	N 	0.33246 0.69479 0.75984 -0.13600
C 	C 	0.34980 0.67038 0.74901 0.13700
N 	N 	0.30747 0.61132 0.74460 -0.13900
C 	C 	0.24794 0.57598 0.75103 0.13800
N 	N 	0.23007 0.59987 0.76179 -0.13600
Co	Co	0.09476 0.99887 0.18249 1.19500
Co	Co	0.90528 0.95455 0.14581 1.18700
Co	Co	0.02569 0.02411 0.21751 1.18200
Co	Co	0.97579 0.93131 0.10998 1.18000
C 	C 	0.14730 0.92810 0.22837 0.32400
Co	Co	0.09861 0.94362 0.11846 1.17600
Co	Co	0.90380 0.00726 0.21546 1.16100
C 	C 	0.00916 0.95325 0.01858 0.35400
O 	O 	0.96143 0.09937 0.18157 -0.40800
O 	O 	0.94858 0.99600 0.18970 -0.75600
C 	C 	0.02387 0.13251 0.19877 0.33300
O 	O 	0.10767 0.03674 0.23002 -0.46300
O 	O 	0.89232 0.91497 0.09964 -0.45300
C 	C 	0.84416 0.01790 0.10604 0.30400
O 	O 	0.00630 0.99560 0.15135 -0.56000
C 	C 	0.99231 0.99167 0.31165 0.31800
C 	C 	0.19289 0.07602 0.11683 0.31300
C 	C 	0.97717 0.82168 0.13745 0.29400
O 	O 	0.05817 0.11453 0.20647 -0.36800
O 	O 	0.15085 0.03724 0.08720 -0.40000
O 	O 	0.17772 0.07266 0.15340 -0.37600
O 	O 	0.83113 0.98970 0.15068 -0.39000
O 	O 	0.87442 0.00945 0.09379 -0.39100
O 	O 	0.97147 0.02553 0.28312 -0.41100
O 	O 	0.00921 0.97666 0.29095 -0.35000
O 	O 	0.03945 0.85207 0.15268 -0.37300
O 	O 	0.94793 0.84013 0.13846 -0.38200
O 	O 	0.05415 0.96349 0.13508 -0.74900
C 	C 	0.81460 0.87535 0.21707 0.31400
O 	O 	0.85415 0.91359 0.24690 -0.38800
O 	O 	0.83519 0.87502 0.18708 -0.38000
O 	O 	0.16629 0.95920 0.18608 -0.40200
O 	O 	0.10867 0.93157 0.23447 -0.38500
O 	O 	0.03349 0.92281 0.05022 -0.39000
O 	O 	0.98337 0.96367 0.03469 -0.38100
Co	Co	0.09476 0.99887 0.68249 1.19500
Co	Co	0.90528 0.95455 0.64581 1.18700
Co	Co	0.02569 0.02411 0.71752 1.18200
Co	Co	0.97579 0.93131 0.60998 1.18000
C 	C 	0.14730 0.92810 0.72837 0.32400
Co	Co	0.09861 0.94362 0.61847 1.17600
Co	Co	0.90380 0.00726 0.71546 1.16100
C 	C 	0.00916 0.95325 0.51858 0.35900
O 	O 	0.96143 0.09936 0.68157 -0.40800
O 	O 	0.94858 0.99600 0.68970 -0.75600
C 	C 	0.02387 0.13251 0.69877 0.33300
O 	O 	0.10767 0.03674 0.73002 -0.46300
O 	O 	0.89232 0.91497 0.59964 -0.45200
C 	C 	0.84416 0.01790 0.60604 0.30300
O 	O 	0.00630 0.99560 0.65135 -0.56000
C 	C 	0.99231 0.99167 0.81165 0.31800
C 	C 	0.19290 0.07602 0.61684 0.31400
C 	C 	0.97717 0.82168 0.63745 0.29400
O 	O 	0.05817 0.11452 0.70647 -0.36700
O 	O 	0.15085 0.03724 0.58720 -0.40000
O 	O 	0.17772 0.07266 0.65340 -0.37600
O 	O 	0.83113 0.98970 0.65068 -0.38900
O 	O 	0.87442 0.00945 0.59379 -0.39100
O 	O 	0.97147 0.02553 0.78312 -0.41100
O 	O 	0.00921 0.97666 0.79095 -0.35000
O 	O 	0.03945 0.85207 0.65268 -0.37300
O 	O 	0.94793 0.84013 0.63846 -0.38200
O 	O 	0.05415 0.96349 0.63509 -0.74900
C 	C 	0.81460 0.87535 0.71707 0.31400
O 	O 	0.85415 0.91359 0.74690 -0.38800
O 	O 	0.83519 0.87502 0.68708 -0.38000
O 	O 	0.16629 0.95919 0.68608 -0.40100
O 	O 	0.10867 0.93157 0.73447 -0.38500
O 	O 	0.03349 0.92281 0.55022 -0.39000
O 	O 	0.98337 0.96367 0.53469 -0.38100
C 	C 	0.05536 0.01595 0.94237 -0.11000
C 	C 	0.00176 0.96658 0.96350 -0.08400
C 	C 	0.94828 0.92101 0.93656 0.32400
C 	C 	0.94825 0.92537 0.88901 -0.11900
C 	C 	0.00141 0.97543 0.86742 -0.06400
C 	C 	0.05538 0.02025 0.89490 0.31300
F 	F 	0.10693 0.06954 0.87462 -0.44200
H 	H 	0.09782 0.05027 0.96337 0.09300
H 	H 	0.90573 0.89113 0.86797 0.09900
F 	F 	0.89683 0.87165 0.95694 -0.44300
C 	C 	0.94825 0.92537 0.38901 -0.12000
C 	C 	0.00141 0.97543 0.36741 -0.06300
C 	C 	0.05538 0.02025 0.39490 0.31200
C 	C 	0.05536 0.01595 0.44237 -0.10900
C 	C 	0.00176 0.96658 0.46350 -0.08900
C 	C 	0.94828 0.92101 0.43656 0.32500
F 	F 	0.89683 0.87165 0.45694 -0.44500
H 	H 	0.90573 0.89113 0.36797 0.09800
H 	H 	0.09783 0.05027 0.46337 0.09100
F 	F 	0.10693 0.06954 0.37462 -0.44200
C 	C 	0.10164 0.29557 0.72032 -0.00300
C 	C 	0.13620 0.30821 0.76837 -0.02500
C 	C 	0.15644 0.36095 0.77678 -0.03800
C 	C 	0.14221 0.40136 0.73720 0.01900
C 	C 	0.10614 0.38778 0.68951 -0.04000
C 	C 	0.08579 0.33496 0.68112 -0.02600
C 	C 	0.07816 0.23970 0.71232 0.05900
C 	C 	0.05572 0.19168 0.70589 -0.09500
C 	C 	0.17394 0.46141 0.74292 0.01100
C 	C 	0.20481 0.51306 0.74711 -0.03300
H 	H 	0.14766 0.27740 0.79913 0.05400
H 	H 	0.18476 0.37133 0.81364 0.05100
H 	H 	0.09537 0.41898 0.65856 0.05000
H 	H 	0.05800 0.32486 0.64413 0.04500
C 	C 	0.52382 0.75175 0.73308 0.02000
C 	C 	0.54325 0.79148 0.68737 -0.04000
C 	C 	0.59705 0.80820 0.67988 -0.02600
C 	C 	0.63148 0.78495 0.71793 -0.00500
C 	C 	0.61126 0.74433 0.76323 -0.02500
C 	C 	0.55769 0.72783 0.77079 -0.03900
C 	C 	0.46465 0.72911 0.73883 0.01000
C 	C 	0.41337 0.70566 0.74372 -0.03200
C 	C 	0.69345 0.81158 0.71458 0.05500
C 	C 	0.74759 0.83775 0.71412 -0.10200
H 	H 	0.51668 0.80927 0.65761 0.05000
H 	H 	0.61277 0.84031 0.64502 0.04700
H 	H 	0.63799 0.72678 0.79313 0.04900
H 	H 	0.54232 0.69617 0.80585 0.05200
C 	C 	0.17549 0.79523 0.79221 -0.00400
C 	C 	0.23840 0.81357 0.81487 -0.02500
C 	C 	0.25744 0.78265 0.81413 -0.04000
C 	C 	0.21359 0.73287 0.79106 0.02000
C 	C 	0.14962 0.71150 0.77194 -0.04000
C 	C 	0.13060 0.74246 0.77265 -0.02500
C 	C 	0.16187 0.83871 0.77697 0.05700
C 	C 	0.15308 0.87803 0.75865 -0.09900
C 	C 	0.23516 0.70701 0.78325 0.00900
C 	C 	0.25263 0.68556 0.77577 -0.03000
H 	H 	0.27353 0.85415 0.83018 0.04700
H 	H 	0.30679 0.79901 0.82966 0.05100
H 	H 	0.11514 0.67254 0.75466 0.05100
H 	H 	0.08189 0.72777 0.75503 0.04900
C 	C 	0.10165 0.29557 0.22032 -0.00300
C 	C 	0.13621 0.30821 0.26837 -0.02500
C 	C 	0.15645 0.36096 0.27678 -0.03900
C 	C 	0.14221 0.40136 0.23720 0.01900
C 	C 	0.10615 0.38778 0.18951 -0.04000
C 	C 	0.08579 0.33496 0.18112 -0.02600
C 	C 	0.07816 0.23970 0.21232 0.05800
C 	C 	0.05572 0.19169 0.20589 -0.09500
C 	C 	0.17395 0.46141 0.24292 0.01000
C 	C 	0.20481 0.51306 0.24711 -0.03300
H 	H 	0.14767 0.27740 0.29913 0.05400
H 	H 	0.18476 0.37133 0.31364 0.05100
H 	H 	0.09537 0.41898 0.15857 0.05000
H 	H 	0.05800 0.32486 0.14413 0.04500
C 	C 	0.63148 0.78496 0.21793 -0.00500
C 	C 	0.61128 0.74436 0.26323 -0.02500
C 	C 	0.55770 0.72786 0.27079 -0.03900
C 	C 	0.52382 0.75176 0.23308 0.02000
C 	C 	0.54324 0.79148 0.18736 -0.04000
C 	C 	0.59704 0.80819 0.17987 -0.02600
C 	C 	0.69345 0.81158 0.21458 0.05500
C 	C 	0.74759 0.83776 0.21412 -0.10200
C 	C 	0.46465 0.72912 0.23882 0.01000
C 	C 	0.41337 0.70567 0.24372 -0.03300
H 	H 	0.63801 0.72681 0.29314 0.04800
H 	H 	0.54235 0.69621 0.30585 0.05100
H 	H 	0.51666 0.80925 0.15759 0.05000
H 	H 	0.61275 0.84029 0.14501 0.04700
C 	C 	0.21359 0.73287 0.29106 0.02000
C 	C 	0.25744 0.78265 0.31413 -0.04000
C 	C 	0.23839 0.81357 0.31488 -0.02600
C 	C 	0.17549 0.79523 0.29221 -0.00400
C 	C 	0.13060 0.74246 0.27264 -0.02600
C 	C 	0.14962 0.71150 0.27194 -0.04000
C 	C 	0.23516 0.70701 0.28325 0.00800
C 	C 	0.25263 0.68556 0.27577 -0.03100
C 	C 	0.16187 0.83871 0.27697 0.05600
C 	C 	0.15308 0.87803 0.25865 -0.10000
H 	H 	0.30679 0.79901 0.32966 0.05000
H 	H 	0.27353 0.85415 0.33018 0.04700
H 	H 	0.08189 0.72777 0.25503 0.04900
H 	H 	0.11514 0.67254 0.25466 0.05000
C 	C 	0.79044 0.22644 0.53570 0.01700
C 	C 	0.74430 0.17581 0.51348 -0.04300
C 	C 	0.75943 0.14007 0.51564 -0.02900
C 	C 	0.82073 0.15461 0.54018 -0.00800
C 	C 	0.86812 0.20809 0.55888 -0.02900
C 	C 	0.85297 0.24377 0.55679 -0.04400
C 	C 	0.77197 0.25617 0.54178 0.00400
C 	C 	0.75555 0.27952 0.54783 -0.03500
C 	C 	0.83045 0.10794 0.55700 0.04700
C 	C 	0.83748 0.06737 0.57601 -0.10700
H 	H 	0.69601 0.16246 0.49656 0.04600
H 	H 	0.72246 0.09900 0.50096 0.04000
H 	H 	0.91567 0.21986 0.57787 0.04000
H 	H 	0.88916 0.28322 0.57356 0.04300
C 	C 	0.85769 0.55855 0.59021 0.01600
C 	C 	0.84488 0.60030 0.55143 -0.03800
C 	C 	0.86202 0.65027 0.56202 -0.02800
C 	C 	0.89201 0.65877 0.61148 -0.00200
C 	C 	0.90594 0.61773 0.65007 -0.03000
C 	C 	0.88874 0.56773 0.63948 -0.04100
C 	C 	0.82842 0.50076 0.58168 0.00800
C 	C 	0.79891 0.45049 0.57527 -0.03700
C 	C 	0.91621 0.71399 0.62115 0.05000
C 	C 	0.94074 0.76202 0.62894 -0.09000
H 	H 	0.82018 0.59317 0.51336 0.05000
H 	H 	0.85228 0.68250 0.53174 0.05600
H 	H 	0.93039 0.62474 0.68817 0.04000
H 	H 	0.89814 0.53531 0.66984 0.04500
C 	C 	0.37275 0.17049 0.60579 -0.00600
C 	C 	0.38708 0.20511 0.55791 -0.02600
C 	C 	0.44067 0.22305 0.54917 -0.04000
C 	C 	0.48032 0.20653 0.58827 0.01800
C 	C 	0.46649 0.17255 0.63636 -0.04200
C 	C 	0.41276 0.15446 0.64507 -0.02800
C 	C 	0.31168 0.14231 0.61188 0.05300
C 	C 	0.25849 0.11482 0.61529 -0.10400
C 	C 	0.53971 0.23192 0.58103 0.00800
C 	C 	0.59110 0.25730 0.57522 -0.03600
H 	H 	0.35593 0.21695 0.52713 0.04800
H 	H 	0.45167 0.25029 0.51215 0.05000
H 	H 	0.49755 0.16057 0.66707 0.04600
H 	H 	0.40155 0.12693 0.68200 0.04200
C 	C 	0.79044 0.22644 0.03570 0.01900
C 	C 	0.85296 0.24376 0.05680 -0.04500
C 	C 	0.86811 0.20807 0.05889 -0.02800
C 	C 	0.82073 0.15461 0.04018 -0.01000
C 	C 	0.75943 0.14008 0.01563 -0.02600
C 	C 	0.74430 0.17582 0.01347 -0.05000
C 	C 	0.77197 0.25617 0.04178 0.00200
C 	C 	0.75555 0.27952 0.04782 -0.03500
C 	C 	0.83045 0.10795 0.05700 0.04800
C 	C 	0.83748 0.06737 0.07601 -0.10700
H 	H 	0.88915 0.28320 0.07359 0.04300
H 	H 	0.91566 0.21984 0.07790 0.04000
H 	H 	0.72247 0.09902 0.00093 0.03900
H 	H 	0.69602 0.16248 0.99654 0.05100
C 	C 	0.89201 0.65877 0.11148 -0.00200
C 	C 	0.86203 0.65028 0.06203 -0.02800
C 	C 	0.84488 0.60030 0.05143 -0.03900
C 	C 	0.85769 0.55855 0.09021 0.01600
C 	C 	0.88873 0.56773 0.13948 -0.04100
C 	C 	0.90594 0.61773 0.15007 -0.03000
C 	C 	0.91621 0.71399 0.12116 0.04900
C 	C 	0.94074 0.76202 0.12894 -0.09100
C 	C 	0.82842 0.50076 0.08168 0.00700
C 	C 	0.79891 0.45049 0.07527 -0.03700
H 	H 	0.85229 0.68250 0.03174 0.05500
H 	H 	0.82019 0.59318 0.01337 0.04900
H 	H 	0.89814 0.53531 0.16984 0.04400
H 	H 	0.93039 0.62474 0.18818 0.04000
C 	C 	0.37274 0.17049 0.10579 -0.00700
C 	C 	0.41275 0.15446 0.14506 -0.02800
C 	C 	0.46648 0.17255 0.13635 -0.04200
C 	C 	0.48032 0.20653 0.08826 0.01700
C 	C 	0.44067 0.22307 0.04917 -0.04000
C 	C 	0.38708 0.20513 0.05790 -0.02600
C 	C 	0.31168 0.14231 0.11188 0.05200
C 	C 	0.25849 0.11482 0.11529 -0.10500
C 	C 	0.53971 0.23192 0.08102 0.00700
C 	C 	0.59110 0.25730 0.07521 -0.03700
H 	H 	0.40154 0.12692 0.18199 0.04200
H 	H 	0.49753 0.16056 0.16705 0.04500
H 	H 	0.45167 0.25031 0.01214 0.04900
H 	H 	0.35594 0.21698 0.02713 0.04800
