data_crystal

_cell_length_a 26.66436
_cell_length_b 26.72991
_cell_length_c 34.27568
_cell_angle_alpha 95.53812
_cell_angle_beta  95.53681
_cell_angle_gamma 125.65466

_symmetry_space_group_name_	'P 1'
_symmetry_space_group_name_H-M	'P 1'

loop_
_symmetry_equiv_pos_as_xyz
  x,y,z

loop_
_atom_site_label
_atom_site_type_symbol
_atom_site_fract_x
_atom_site_fract_y
_atom_site_fract_z
_atom_site_charge
C 	C 	0.04019 0.99490 0.96892 -0.10800
C 	C 	0.07823 0.06025 0.97221 0.07000
C 	C 	0.05166 0.09242 0.97525 -0.10800
H 	H 	0.06081 0.97002 0.96636 0.05700
H 	H 	0.08117 0.14299 0.97795 0.05500
C 	C 	0.99893 0.02459 0.47934 -0.08300
C 	C 	0.02635 0.99291 0.47870 0.04500
C 	C 	0.98897 0.92815 0.47792 -0.08900
H 	H 	0.02801 0.07499 0.48117 0.04800
H 	H 	0.01007 0.90362 0.47733 0.05000
C 	C 	0.12253 0.06593 0.45379 -0.04600
C 	C 	0.09455 0.02760 0.47969 -0.05600
H 	H 	0.09456 0.07022 0.43102 0.04000
H 	H 	0.12128 0.01874 0.50001 0.04300
C 	C 	0.14665 0.09565 0.97506 -0.06600
H 	H 	0.17779 0.13021 0.00187 0.04400
C 	C 	0.98712 0.05957 0.97474 0.07000
C 	C 	0.94897 0.99406 0.97130 -0.10700
C 	C 	0.97561 0.96174 0.96919 0.06800
H 	H 	0.89882 0.96839 0.97024 0.05500
C 	C 	0.93399 0.99124 0.47741 0.05000
C 	C 	0.92405 0.89472 0.47675 0.05500
C 	C 	0.89665 0.92627 0.47628 -0.09400
H 	H 	0.84658 0.90048 0.47559 0.05200
Cu	Cu	0.65920 0.27734 0.01338 0.92800
Cu	Cu	0.72868 0.28325 0.93753 0.87100
Cu	Cu	0.70356 0.37677 0.96109 0.89700
Cu	Cu	0.64310 0.38413 0.02896 0.89300
C 	C 	0.64831 0.31500 0.09194 0.28900
O 	O 	0.56526 0.23255 0.00221 -0.37300
C 	C 	0.70203 0.33551 0.87759 0.28600
O 	O 	0.70394 0.37349 0.01662 -0.64300
O 	O 	0.66396 0.28514 0.95673 -0.64000
O 	O 	0.70172 0.23651 0.02067 -0.37800
O 	O 	0.77842 0.30085 0.98746 -0.44400
O 	O 	0.62282 0.34016 0.07568 -0.38400
O 	O 	0.74484 0.46621 0.96981 -0.38600
C 	C 	0.72986 0.49601 0.99332 0.30800
C 	C 	0.53979 0.25383 0.98154 0.30500
O 	O 	0.57409 0.31298 0.97789 -0.39500
O 	O 	0.67953 0.46525 0.00991 -0.40100
O 	O 	0.66677 0.28703 0.07014 -0.36300
C 	C 	0.75660 0.25927 0.01081 0.30800
O 	O 	0.72027 0.38281 0.90620 -0.38700
O 	O 	0.69832 0.28639 0.88574 -0.41700
H 	H 	0.74589 0.40283 0.03404 0.16300
H 	H 	0.62309 0.25812 0.93799 0.17000
Cu	Cu	0.70880 0.30921 0.44490 0.92800
Cu	Cu	0.72533 0.27213 0.53159 0.87000
Cu	Cu	0.62148 0.28191 0.50468 0.89700
Cu	Cu	0.59283 0.31265 0.42678 0.89300
C 	C 	0.64375 0.27869 0.36463 0.28500
O 	O 	0.74720 0.39982 0.44254 -0.37000
C 	C 	0.67896 0.30969 0.58984 0.28600
O 	O 	0.61355 0.26322 0.44822 -0.64100
O 	O 	0.71265 0.32408 0.50327 -0.64100
O 	O 	0.75270 0.26931 0.44391 -0.38100
O 	O 	0.69975 0.20770 0.48796 -0.44600
O 	O 	0.62385 0.31197 0.37606 -0.38500
O 	O 	0.53181 0.23659 0.50165 -0.38600
C 	C 	0.49482 0.24000 0.47532 0.30700
C 	C 	0.72690 0.42901 0.45993 0.30300
O 	O 	0.67013 0.39663 0.46831 -0.39300
O 	O 	0.51828 0.28320 0.45264 -0.40000
O 	O 	0.68850 0.28223 0.38809 -0.35700
C 	C 	0.73327 0.21963 0.45983 0.31000
O 	O 	0.62749 0.28459 0.56285 -0.38600
O 	O 	0.72906 0.31685 0.58000 -0.41900
H 	H 	0.58438 0.21790 0.43651 0.16100
H 	H 	0.73994 0.36871 0.51659 0.17000
C 	C 	0.65624 0.27942 0.69705 -0.00200
C 	C 	0.63006 0.26362 0.73136 -0.05700
C 	C 	0.67081 0.29575 0.76841 0.01400
C 	C 	0.73426 0.34493 0.77046 -0.00000
C 	C 	0.75782 0.36706 0.73627 -0.05800
C 	C 	0.71840 0.33182 0.69913 0.01300
S 	S 	0.61652 0.26285 0.65154 0.01400
C 	C 	0.67605 0.31872 0.63226 -0.07600
C 	C 	0.72995 0.35353 0.66258 -0.02300
S 	S 	0.76320 0.38666 0.81651 0.00800
C 	C 	0.69833 0.34334 0.83600 -0.07400
C 	C 	0.65066 0.29421 0.80531 -0.02200
H 	H 	0.57990 0.22947 0.72934 0.04300
H 	H 	0.80391 0.41084 0.73848 0.04300
H 	H 	0.77585 0.39178 0.65815 0.03800
H 	H 	0.60421 0.25735 0.80986 0.03500
C 	C 	0.63771 0.23030 0.25157 -0.00300
C 	C 	0.66697 0.24447 0.21828 -0.05400
C 	C 	0.63911 0.25328 0.18545 0.01500
C 	C 	0.58580 0.25165 0.18730 -0.00000
C 	C 	0.56247 0.24685 0.22266 -0.05600
C 	C 	0.58763 0.23398 0.25459 0.01500
S 	S 	0.67395 0.24256 0.29761 0.02900
C 	C 	0.62619 0.24877 0.32244 -0.07700
C 	C 	0.58114 0.24440 0.29452 -0.02300
S 	S 	0.58052 0.28848 0.15262 0.01900
C 	C 	0.64309 0.30593 0.13334 -0.07400
C 	C 	0.67068 0.28267 0.15450 -0.01900
H 	H 	0.71161 0.25198 0.21884 0.04500
H 	H 	0.52850 0.25621 0.22599 0.04300
H 	H 	0.55074 0.25656 0.30267 0.03600
H 	H 	0.71213 0.28738 0.14820 0.04400
C 	C 	0.78565 0.59899 0.48813 0.00200
C 	C 	0.80051 0.63706 0.52489 -0.03700
C 	C 	0.83684 0.70224 0.52839 -0.05000
C 	C 	0.85734 0.72971 0.49494 0.02400
C 	C 	0.84209 0.69152 0.45806 -0.04900
C 	C 	0.80591 0.62647 0.45458 -0.03600
C 	C 	0.89704 0.79866 0.49906 -0.04400
C 	C 	0.88378 0.82592 0.47321 -0.06200
C 	C 	0.74769 0.53020 0.48461 0.00600
C 	C 	0.76699 0.49811 0.46786 -0.15300
H 	H 	0.78461 0.61624 0.55084 0.03600
H 	H 	0.84875 0.73134 0.55703 0.03900
H 	H 	0.85864 0.71227 0.43219 0.04100
H 	H 	0.79367 0.59743 0.42586 0.03800
H 	H 	0.93599 0.82743 0.52423 0.03900
H 	H 	0.84139 0.79746 0.45034 0.04400
H 	H 	0.70455 0.50603 0.49648 0.03400
H 	H 	0.81230 0.52325 0.45855 0.07700
C 	C 	0.82558 0.03876 0.45446 0.02300
C 	C 	0.76068 0.00464 0.45315 -0.04600
C 	C 	0.73312 0.03576 0.45643 -0.03700
C 	C 	0.77001 0.10116 0.46025 0.00100
C 	C 	0.83487 0.13524 0.46069 -0.03700
C 	C 	0.86236 0.10410 0.45731 -0.04900
C 	C 	0.74161 0.13413 0.46766 0.00700
C 	C 	0.75434 0.18092 0.44864 -0.15900
C 	C 	0.85458 0.00564 0.45228 -0.04100
C 	C 	0.90590 0.02525 0.47885 -0.05900
H 	H 	0.73179 0.95413 0.45040 0.03600
H 	H 	0.68317 0.00909 0.45634 0.03600
H 	H 	0.86415 0.18588 0.46444 0.03500
H 	H 	0.91226 0.13077 0.45725 0.04000
H 	H 	0.70961 0.11955 0.48863 0.02700
H 	H 	0.78308 0.19260 0.42579 0.08000
H 	H 	0.83177 0.96290 0.43019 0.03700
H 	H 	0.92873 0.06800 0.50093 0.04300
C 	C 	0.31906 0.16575 0.45198 0.00100
C 	C 	0.29901 0.16744 0.48823 -0.03500
C 	C 	0.23489 0.13396 0.48903 -0.05000
C 	C 	0.19021 0.09878 0.45358 0.02500
C 	C 	0.21031 0.09821 0.41733 -0.05100
C 	C 	0.27441 0.13146 0.41654 -0.03600
C 	C 	0.38683 0.20333 0.45043 0.00800
C 	C 	0.42728 0.20316 0.47701 -0.15000
H 	H 	0.33306 0.19561 0.51560 0.03900
H 	H 	0.22000 0.13638 0.51703 0.04000
H 	H 	0.17625 0.07202 0.38975 0.03900
H 	H 	0.28940 0.13070 0.38835 0.03400
H 	H 	0.40304 0.22858 0.42601 0.03100
H 	H 	0.41015 0.17447 0.49978 0.07700
C 	C 	0.84409 0.66576 0.97931 0.00500
C 	C 	0.85461 0.69174 0.94467 -0.03700
C 	C 	0.88866 0.75662 0.94748 -0.04800
C 	C 	0.91256 0.79618 0.98505 0.02400
C 	C 	0.90284 0.77025 0.01970 -0.05100
C 	C 	0.86882 0.70539 0.01690 -0.03800
C 	C 	0.95252 0.86511 0.98851 -0.03900
C 	C 	0.93519 0.89278 0.96575 -0.06700
C 	C 	0.81057 0.59737 0.97608 0.00500
C 	C 	0.76402 0.56437 0.99638 -0.14500
H 	H 	0.83669 0.66169 0.91558 0.03800
H 	H 	0.89751 0.77619 0.92053 0.04000
H 	H 	0.92210 0.80041 0.04884 0.03900
H 	H 	0.86263 0.68608 0.04391 0.03600
H 	H 	0.99513 0.89372 0.01121 0.03700
H 	H 	0.88963 0.86473 0.94586 0.04500
H 	H 	0.82200 0.57354 0.95542 0.04100
H 	H 	0.75056 0.58808 0.01531 0.07200
C 	C 	0.90223 0.12835 0.00582 0.02400
C 	C 	0.83823 0.09984 0.00496 -0.05000
C 	C 	0.81570 0.13577 0.00509 -0.03600
C 	C 	0.85739 0.20092 0.00703 -0.00000
C 	C 	0.92174 0.22965 0.00932 -0.03700
C 	C 	0.94418 0.19367 0.00906 -0.05000
C 	C 	0.83317 0.23797 0.00173 0.00400
C 	C 	0.78904 0.23142 0.02146 -0.16000
C 	C 	0.92512 0.08962 0.00306 -0.04300
C 	C 	0.95936 0.09386 0.97551 -0.06500
H 	H 	0.80565 0.04958 0.00294 0.03900
H 	H 	0.76571 0.11274 0.00243 0.03500
H 	H 	0.95425 0.27976 0.01071 0.03400
H 	H 	0.99400 0.21640 0.01084 0.04000
H 	H 	0.85144 0.27061 0.98122 0.02300
H 	H 	0.77322 0.20116 0.04345 0.08000
H 	H 	0.91247 0.05625 0.02290 0.03900
H 	H 	0.97129 0.12681 0.95544 0.04500
C 	C 	0.37018 0.19509 0.95351 0.00200
C 	C 	0.33366 0.19571 0.92153 -0.03700
C 	C 	0.26833 0.15980 0.91809 -0.04900
C 	C 	0.23929 0.12424 0.94715 0.02300
C 	C 	0.27578 0.12311 0.97892 -0.04700
C 	C 	0.34092 0.15875 0.98229 -0.03500
C 	C 	0.17064 0.08824 0.94424 -0.04100
C 	C 	0.43940 0.23556 0.95827 0.00800
C 	C 	0.47169 0.21230 0.96567 -0.15300
H 	H 	0.35583 0.22396 0.89937 0.03600
H 	H 	0.24045 0.16053 0.89329 0.03900
H 	H 	0.25369 0.09499 0.00116 0.03900
H 	H 	0.36876 0.15881 0.00752 0.03800
H 	H 	0.13964 0.05758 0.91622 0.03900
H 	H 	0.46407 0.28504 0.95733 0.03200
H 	H 	0.44642 0.16217 0.96444 0.07600
