data_crystal

_cell_length_a 21.11921
_cell_length_b 32.03637
_cell_length_c 15.22523
_cell_angle_alpha 90.00148
_cell_angle_beta  89.99609
_cell_angle_gamma 90.00067

_symmetry_space_group_name_	'P 1'
_symmetry_space_group_name_H-M	'P 1'

loop_
_symmetry_equiv_pos_as_xyz
  x,y,z

loop_
_atom_site_label
_atom_site_type_symbol
_atom_site_fract_x
_atom_site_fract_y
_atom_site_fract_z
_atom_site_charge
Cu	Cu	0.52185 0.37059 0.93533 0.92300
Cu	Cu	0.56255 0.33237 0.74487 0.86100
Cu	Cu	0.43287 0.33035 0.80228 0.89100
Cu	Cu	0.37306 0.38111 0.94491 0.88900
C 	C 	0.46417 0.43954 0.02297 0.34600
O 	O 	0.49260 0.33470 0.03765 -0.35400
C 	C 	0.48603 0.26155 0.69516 0.30600
O 	O 	0.43932 0.38366 0.86118 -0.64000
O 	O 	0.51852 0.32264 0.85464 -0.64700
O 	O 	0.61096 0.38721 0.91100 -0.37600
O 	O 	0.59403 0.38728 0.76373 -0.43900
O 	O 	0.41433 0.41578 0.03657 -0.39300
O 	O 	0.35071 0.34091 0.74845 -0.38800
C 	C 	0.29939 0.35322 0.79081 0.29300
C 	C 	0.44392 0.30922 0.03003 0.30600
O 	O 	0.39916 0.31710 0.97255 -0.42500
O 	O 	0.30331 0.37918 0.85794 -0.39900
O 	O 	0.51792 0.42302 0.99583 -0.38900
C 	C 	0.63089 0.39523 0.83117 0.29100
O 	O 	0.43573 0.27881 0.73254 -0.39300
O 	O 	0.54369 0.27677 0.70679 -0.42700
H 	H 	0.43885 0.40822 0.82172 0.15900
H 	H 	0.52539 0.29473 0.88094 0.16900
Cu	Cu	0.55671 0.62210 0.13885 0.92900
Cu	Cu	0.58743 0.65779 0.33400 0.86200
Cu	Cu	0.46018 0.65459 0.27256 0.88900
Cu	Cu	0.41087 0.59795 0.12952 0.89700
C 	C 	0.51347 0.54779 0.05779 0.32000
O 	O 	0.51880 0.65520 0.03905 -0.35500
C 	C 	0.50123 0.72078 0.39434 0.30200
O 	O 	0.47728 0.60208 0.21308 -0.63600
O 	O 	0.54488 0.66858 0.22293 -0.64300
O 	O 	0.64863 0.61384 0.15928 -0.36400
O 	O 	0.63018 0.60792 0.30471 -0.44100
O 	O 	0.45914 0.56608 0.04055 -0.38800
O 	O 	0.37963 0.63799 0.32453 -0.38700
C 	C 	0.33278 0.61990 0.28153 0.29500
C 	C 	0.46705 0.67751 0.04980 0.27200
O 	O 	0.42152 0.66412 0.10148 -0.39600
O 	O 	0.34413 0.59247 0.21903 -0.39500
O 	O 	0.56364 0.57042 0.07608 -0.36200
C 	C 	0.67011 0.60809 0.23886 0.30000
O 	O 	0.45484 0.70543 0.34543 -0.38600
O 	O 	0.56084 0.71043 0.37970 -0.42500
H 	H 	0.48216 0.57779 0.25275 0.15900
H 	H 	0.54868 0.69737 0.19984 0.17700
Cu	Cu	0.89569 0.37458 0.61527 0.92600
Cu	Cu	0.85714 0.34765 0.81713 0.86200
Cu	Cu	0.98418 0.33492 0.75162 0.88500
Cu	Cu	0.04380 0.36944 0.58999 0.89700
C 	C 	0.96304 0.43222 0.50764 0.31100
O 	O 	0.91044 0.33174 0.51857 -0.36000
C 	C 	0.92481 0.27656 0.88013 0.29800
O 	O 	0.98421 0.38377 0.67799 -0.64400
O 	O 	0.89517 0.33048 0.70681 -0.64200
O 	O 	0.81100 0.39970 0.63996 -0.36600
O 	O 	0.83007 0.40187 0.78618 -0.44100
O 	O 	0.00500 0.40264 0.49411 -0.38600
O 	O 	0.06953 0.34386 0.79673 -0.38400
C 	C 	0.12122 0.35043 0.74954 0.29400
C 	C 	0.95438 0.30282 0.52548 0.27200
O 	O 	0.00165 0.30810 0.58043 -0.38900
O 	O 	0.11857 0.36500 0.66833 -0.39500
O 	O 	0.90759 0.42317 0.54281 -0.36100
C 	C 	0.79102 0.40674 0.72010 0.29600
O 	O 	0.97691 0.28996 0.84015 -0.39500
O 	O 	0.86889 0.29289 0.86298 -0.43200
H 	H 	0.99238 0.41037 0.70913 0.15800
H 	H 	0.88356 0.30203 0.68712 0.17200
Cu	Cu	0.93676 0.63138 0.45757 0.92600
Cu	Cu	0.91005 0.69785 0.29907 0.86400
Cu	Cu	0.03876 0.66243 0.33096 0.89800
Cu	Cu	0.07105 0.58759 0.44749 0.89500
C 	C 	0.95290 0.54502 0.49634 0.30200
O 	O 	0.98058 0.64650 0.57075 -0.37800
C 	C 	0.01981 0.74358 0.24390 0.31700
O 	O 	0.00772 0.60912 0.37130 -0.62200
O 	O 	0.96405 0.68327 0.39839 -0.64600
O 	O 	0.84579 0.63747 0.43320 -0.38400
O 	O 	0.86047 0.64819 0.28738 -0.43900
O 	O 	0.01279 0.55160 0.51676 -0.38000
O 	O 	0.10910 0.63900 0.26686 -0.38400
C 	C 	0.15421 0.61708 0.30462 0.29300
C 	C 	0.03919 0.66019 0.57178 0.29700
O 	O 	0.07941 0.64824 0.51099 -0.39900
O 	O 	0.14026 0.58639 0.35909 -0.38900
O 	O 	0.91264 0.57636 0.49415 -0.36500
C 	C 	0.82501 0.63492 0.35261 0.29300
O 	O 	0.06050 0.71602 0.27550 -0.38700
O 	O 	0.96151 0.74594 0.27501 -0.43200
H 	H 	0.99440 0.59001 0.32364 0.15100
H 	H 	0.97401 0.70697 0.43777 0.16600
Cu	Cu	0.45888 0.87038 0.65990 0.92700
Cu	Cu	0.43541 0.84730 0.86730 0.86100
Cu	Cu	0.55434 0.83681 0.79229 0.88900
Cu	Cu	0.60726 0.87479 0.63006 0.89400
C 	C 	0.51577 0.93084 0.54706 0.31800
O 	O 	0.47832 0.82639 0.56601 -0.35800
C 	C 	0.50431 0.77366 0.91484 0.31900
O 	O 	0.54681 0.88558 0.71876 -0.63800
O 	O 	0.46549 0.82809 0.75377 -0.64300
O 	O 	0.37418 0.89308 0.69487 -0.36300
O 	O 	0.40869 0.90116 0.83431 -0.44600
O 	O 	0.56255 0.90449 0.53412 -0.39800
O 	O 	0.63857 0.84925 0.83490 -0.39500
C 	C 	0.68819 0.85751 0.78527 0.29600
C 	C 	0.52717 0.80094 0.57411 0.28100
O 	O 	0.57439 0.81091 0.62609 -0.40700
O 	O 	0.68211 0.87646 0.70865 -0.39800
O 	O 	0.46239 0.91802 0.58333 -0.36300
C 	C 	0.36324 0.90450 0.77654 0.29400
O 	O 	0.55422 0.78956 0.87421 -0.40100
O 	O 	0.44928 0.79327 0.91602 -0.43800
H 	H 	0.55151 0.91251 0.75003 0.16100
H 	H 	0.45529 0.79883 0.73822 0.17400
Cu	Cu	0.43064 0.11822 0.44287 0.92700
Cu	Cu	0.38657 0.16677 0.26561 0.86700
Cu	Cu	0.52242 0.15677 0.30998 0.89400
Cu	Cu	0.57726 0.09579 0.44266 0.89300
C 	C 	0.47589 0.03999 0.50600 0.31600
O 	O 	0.46636 0.14793 0.54931 -0.36400
C 	C 	0.47505 0.22719 0.20379 0.30300
O 	O 	0.50939 0.10247 0.36249 -0.63500
O 	O 	0.43994 0.16844 0.36932 -0.64300
O 	O 	0.33964 0.10719 0.41754 -0.37500
O 	O 	0.35671 0.11110 0.27120 -0.44000
O 	O 	0.53239 0.05598 0.52178 -0.39200
O 	O 	0.60098 0.14210 0.25105 -0.38400
C 	C 	0.65180 0.12731 0.29083 0.29100
C 	C 	0.51930 0.16954 0.54519 0.28000
O 	O 	0.56334 0.15962 0.48791 -0.39800
O 	O 	0.64673 0.09932 0.35424 -0.39200
O 	O 	0.42645 0.06456 0.49702 -0.36800
C 	C 	0.32051 0.09997 0.33709 0.29200
O 	O 	0.52431 0.20919 0.24211 -0.38500
O 	O 	0.41690 0.22027 0.23173 -0.42400
H 	H 	0.50416 0.07950 0.31958 0.16100
H 	H 	0.43902 0.19537 0.40123 0.17200
Cu	Cu	0.09640 0.86902 0.93701 0.92200
Cu	Cu	0.12454 0.80876 0.76836 0.86700
Cu	Cu	0.99511 0.82389 0.82999 0.88900
Cu	Cu	0.94976 0.89100 0.95252 0.88200
C 	C 	0.05251 0.94959 0.98800 0.30200
O 	O 	0.06985 0.84516 0.05636 -0.34600
C 	C 	0.03133 0.74600 0.74141 0.31300
O 	O 	0.01179 0.88048 0.86595 -0.63100
O 	O 	0.08114 0.81458 0.88004 -0.64000
O 	O 	0.18188 0.88021 0.88514 -0.37900
O 	O 	0.14528 0.86533 0.74910 -0.44400
O 	O 	0.99963 0.93310 0.01787 -0.37600
O 	O 	0.91445 0.83608 0.77552 -0.39400
C 	C 	0.86644 0.85450 0.81504 0.29400
C 	C 	0.01499 0.82595 0.06717 0.28500
O 	O 	0.96984 0.83031 0.00862 -0.39900
O 	O 	0.87554 0.88424 0.87384 -0.40200
O 	O 	0.10275 0.92596 0.97550 -0.36800
C 	C 	0.18796 0.88279 0.79924 0.28900
O 	O 	0.98644 0.76729 0.78220 -0.40200
O 	O 	0.09171 0.75372 0.75622 -0.42800
H 	H 	0.01306 0.90081 0.81700 0.16700
H 	H 	0.08388 0.78982 0.91878 0.16800
Cu	Cu	0.05789 0.12183 0.11447 0.93200
Cu	Cu	0.09145 0.14919 0.31485 0.86600
Cu	Cu	0.96465 0.15719 0.24980 0.88600
Cu	Cu	0.90964 0.11527 0.09047 0.89900
C 	C 	0.00194 0.05710 0.01187 0.38400
O 	O 	0.03657 0.16235 0.01643 -0.35200
C 	C 	0.01937 0.21795 0.37741 0.31500
O 	O 	0.97149 0.10748 0.17870 -0.64300
O 	O 	0.05258 0.16582 0.20473 -0.64000
O 	O 	0.14548 0.10240 0.14092 -0.36400
O 	O 	0.12215 0.09562 0.28512 -0.43700
O 	O 	0.95244 0.08130 0.99827 -0.44000
O 	O 	0.88057 0.14431 0.29556 -0.38900
C 	C 	0.83010 0.13356 0.24914 0.29300
C 	C 	0.98802 0.18797 0.02070 0.30000
O 	O 	0.94010 0.17955 0.07295 -0.39500
O 	O 	0.83510 0.11618 0.17053 -0.39200
O 	O 	0.05500 0.07276 0.04334 -0.37000
C 	C 	0.16266 0.09181 0.22050 0.29800
O 	O 	0.96800 0.20285 0.33802 -0.39700
O 	O 	0.07623 0.20332 0.35994 -0.43200
H 	H 	0.96833 0.08096 0.21181 0.15900
H 	H 	0.06151 0.19472 0.18525 0.17800
C 	C 	0.05825 0.99111 0.98360 -0.10700
C 	C 	0.00119 0.01812 0.98041 -0.15600
H 	H 	0.10469 0.00489 0.97297 0.08100
H 	H 	0.95759 0.00576 0.95262 0.05700
C 	C 	0.23055 0.08541 0.23932 -0.10900
C 	C 	0.25342 0.08935 0.32142 -0.10800
H 	H 	0.26308 0.08293 0.18425 0.07200
H 	H 	0.22123 0.08902 0.37711 0.05900
C 	C 	0.71367 0.13246 0.24708 -0.09100
C 	C 	0.76789 0.13261 0.29363 -0.09200
H 	H 	0.71493 0.13690 0.17632 0.07000
H 	H 	0.76630 0.13183 0.36498 0.06200
C 	C 	0.24846 0.89596 0.75925 -0.10400
C 	C 	0.29750 0.90856 0.80863 -0.10900
H 	H 	0.25497 0.89101 0.68921 0.06800
H 	H 	0.29001 0.91628 0.87737 0.06600
C 	C 	0.80310 0.85002 0.77650 -0.09500
C 	C 	0.75118 0.85582 0.82576 -0.09500
H 	H 	0.79868 0.84232 0.70722 0.06300
H 	H 	0.75540 0.85960 0.89650 0.06000
C 	C 	0.51995 0.96923 0.51284 -0.12300
C 	C 	0.46636 0.99900 0.51672 -0.12000
H 	H 	0.56391 0.97882 0.48149 0.06400
H 	H 	0.41818 0.98705 0.51889 0.09200
C 	C 	0.04147 0.77377 0.18415 -0.12700
C 	C 	0.00051 0.80415 0.14996 -0.06700
H 	H 	0.08955 0.77156 0.15906 0.07900
H 	H 	0.95320 0.80757 0.17706 0.05000
C 	C 	0.05910 0.69085 0.63807 -0.09700
C 	C 	0.01430 0.71169 0.69024 -0.11000
H 	H 	0.10887 0.69928 0.64182 0.06100
H 	H 	0.96456 0.70327 0.68546 0.06900
C 	C 	0.98605 0.22477 0.96256 -0.13000
C 	C 	0.92813 0.24304 0.93891 -0.11000
H 	H 	0.02999 0.23595 0.93384 0.08500
H 	H 	0.88449 0.23117 0.96737 0.06100
C 	C 	0.95620 0.26819 0.46177 -0.09700
C 	C 	0.01450 0.25119 0.43633 -0.10900
H 	H 	0.91248 0.25780 0.43117 0.07300
H 	H 	0.05780 0.26371 0.46461 0.06800
C 	C 	0.97479 0.47057 0.47690 -0.13700
C 	C 	0.93087 0.50587 0.49237 -0.11600
H 	H 	0.01969 0.47658 0.44419 0.07300
H 	H 	0.88006 0.50041 0.49072 0.08900
C 	C 	0.45964 0.71746 0.00353 -0.05400
C 	C 	0.51073 0.73568 0.95874 -0.15900
H 	H 	0.41410 0.73320 0.00624 0.06400
H 	H 	0.55643 0.72007 0.95802 0.08000
C 	C 	0.48794 0.75244 0.45511 -0.11800
C 	C 	0.53261 0.76299 0.51977 -0.08900
H 	H 	0.44192 0.76760 0.45433 0.08000
H 	H 	0.57463 0.74376 0.52790 0.05800
C 	C 	0.21790 0.61860 0.26691 -0.09100
C 	C 	0.26886 0.62155 0.31910 -0.09400
H 	H 	0.22337 0.61845 0.19589 0.06600
H 	H 	0.26313 0.62554 0.38958 0.06100
C 	C 	0.73842 0.61279 0.25558 -0.11000
C 	C 	0.75988 0.62056 0.33695 -0.10500
H 	H 	0.77067 0.61375 0.19998 0.07400
H 	H 	0.72826 0.61771 0.39295 0.05600
C 	C 	0.48544 0.25881 0.14224 -0.11600
C 	C 	0.43493 0.27495 0.09290 -0.09300
H 	H 	0.53345 0.26944 0.12960 0.07900
H 	H 	0.38806 0.26119 0.09865 0.06400
C 	C 	0.47796 0.22486 0.64660 -0.12200
C 	C 	0.52896 0.20589 0.60291 -0.08900
H 	H 	0.43073 0.21173 0.64026 0.07700
H 	H 	0.57611 0.21931 0.60729 0.06300
C 	C 	0.23746 0.34760 0.74773 -0.09400
C 	C 	0.18324 0.34935 0.79418 -0.09300
H 	H 	0.23604 0.34223 0.67726 0.06800
H 	H 	0.18478 0.35099 0.86547 0.06200
C 	C 	0.69799 0.40658 0.81739 -0.10900
C 	C 	0.72224 0.41076 0.73610 -0.11300
H 	H 	0.72915 0.40755 0.87415 0.05400
H 	H 	0.69074 0.41232 0.67976 0.06700
C 	C 	0.46237 0.47930 0.04969 -0.13000
C 	C 	0.51930 0.50649 0.04777 -0.11900
H 	H 	0.41800 0.49188 0.07458 0.06500
H 	H 	0.56614 0.49242 0.04965 0.09600
