data_crystal

_cell_length_a 17.91722
_cell_length_b 19.60649
_cell_length_c 26.53453
_cell_angle_alpha 95.43528
_cell_angle_beta  95.43487
_cell_angle_gamma 126.37182

_symmetry_space_group_name_	'P 1'
_symmetry_space_group_name_H-M	'P 1'

loop_
_symmetry_equiv_pos_as_xyz
  x,y,z

loop_
_atom_site_label
_atom_site_type_symbol
_atom_site_fract_x
_atom_site_fract_y
_atom_site_fract_z
_atom_site_charge
C 	C 	0.93829 0.02842 0.99205 0.11000
N 	N 	0.88656 0.94202 0.97504 -0.13200
C 	C 	0.92978 0.90461 0.96841 0.11600
N 	N 	0.02536 0.95430 0.97770 -0.13300
C 	C 	0.07801 0.04079 0.99416 0.12700
N 	N 	0.03437 0.07799 0.00161 -0.14300
C 	C 	0.91936 0.00051 0.47409 0.10800
N 	N 	0.86724 0.91357 0.47069 -0.13400
C 	C 	0.90660 0.87297 0.46150 0.11700
N 	N 	0.99840 0.91969 0.45630 -0.13700
C 	C 	0.05086 0.00642 0.45962 0.11500
N 	N 	0.01083 0.04645 0.46807 -0.13600
Cu	Cu	0.66413 0.26899 0.01281 0.92300
Cu	Cu	0.68931 0.20875 0.90021 0.88900
Cu	Cu	0.68290 0.37282 0.92907 0.91300
Cu	Cu	0.65331 0.42525 0.03210 0.89400
C 	C 	0.68045 0.34460 0.11523 0.30000
O 	O 	0.52609 0.20668 0.01926 -0.34700
C 	C 	0.68998 0.31132 0.83044 0.30600
O 	O 	0.72389 0.39596 0.00191 -0.64200
O 	O 	0.63076 0.25177 0.93661 -0.62500
O 	O 	0.74637 0.23014 0.01879 -0.36700
O 	O 	0.67142 0.13172 0.94387 -0.40900
O 	O 	0.68297 0.40968 0.10270 -0.38200
O 	O 	0.74151 0.49219 0.92518 -0.37200
C 	C 	0.73249 0.54239 0.95649 0.28800
C 	C 	0.48000 0.23657 0.00455 0.27300
O 	O 	0.52410 0.30902 0.98735 -0.38100
O 	O 	0.67361 0.51096 0.98910 -0.38800
O 	O 	0.70721 0.30740 0.08583 -0.34900
C 	C 	0.72749 0.16217 0.98882 0.29400
O 	O 	0.65539 0.34525 0.85462 -0.37100
O 	O 	0.74172 0.29509 0.85704 -0.41100
H 	H 	0.79308 0.43913 0.01330 0.16300
H 	H 	0.56160 0.21225 0.92426 0.17000
Cu	Cu	0.62548 0.21660 0.50575 0.92900
Cu	Cu	0.71712 0.22670 0.40319 0.87100
Cu	Cu	0.67287 0.34540 0.43467 0.89700
Cu	Cu	0.62495 0.37603 0.53419 0.90200
C 	C 	0.64755 0.28644 0.61068 0.30300
O 	O 	0.48784 0.16734 0.50067 -0.35700
C 	C 	0.67002 0.29455 0.32581 0.29800
O 	O 	0.70120 0.35024 0.50730 -0.63700
O 	O 	0.61831 0.22156 0.43155 -0.64000
O 	O 	0.67838 0.15116 0.50734 -0.36200
O 	O 	0.79247 0.24213 0.46471 -0.43400
O 	O 	0.60087 0.31446 0.59321 -0.36500
O 	O 	0.73467 0.46810 0.44027 -0.36800
C 	C 	0.72299 0.51577 0.47227 0.28900
C 	C 	0.45243 0.20131 0.47725 0.28200
O 	O 	0.50842 0.28225 0.47181 -0.39400
O 	O 	0.68945 0.49158 0.51483 -0.37800
O 	O 	0.65346 0.23376 0.57959 -0.35500
C 	C 	0.75782 0.18025 0.49150 0.28900
O 	O 	0.65507 0.33756 0.35955 -0.36200
O 	O 	0.66911 0.22981 0.33665 -0.41300
H 	H 	0.76917 0.38993 0.52298 0.17700
H 	H 	0.55478 0.18083 0.40960 0.17600
C 	C 	0.64379 0.22329 0.68847 -0.02300
C 	C 	0.67119 0.29589 0.66696 -0.07200
C 	C 	0.71097 0.37519 0.69973 0.09100
C 	C 	0.71624 0.37935 0.75309 -0.02000
C 	C 	0.68507 0.30590 0.77436 -0.08100
C 	C 	0.65010 0.22776 0.74192 0.09100
N 	N 	0.61766 0.15197 0.76292 -0.02600
H 	H 	0.61346 0.16225 0.66357 0.07100
H 	H 	0.74586 0.44015 0.77807 0.06700
N 	N 	0.74703 0.45184 0.67892 -0.02300
O 	O 	0.54746 0.11975 0.78739 -0.14300
O 	O 	0.65305 0.11122 0.75387 -0.12000
O 	O 	0.72139 0.49979 0.69175 -0.11000
O 	O 	0.80976 0.47640 0.64965 -0.12500
C 	C 	0.61526 0.23667 0.23142 -0.02600
C 	C 	0.66965 0.30817 0.27205 -0.07700
C 	C 	0.72647 0.39209 0.26097 0.09100
C 	C 	0.72886 0.40336 0.20961 -0.02500
C 	C 	0.67585 0.33169 0.16905 -0.07400
C 	C 	0.61804 0.24804 0.18014 0.09300
N 	N 	0.55943 0.17462 0.13939 -0.02200
H 	H 	0.57037 0.17208 0.23962 0.06100
H 	H 	0.77368 0.46790 0.20133 0.06300
N 	N 	0.78366 0.46592 0.30174 -0.01800
O 	O 	0.59146 0.13522 0.12023 -0.10600
O 	O 	0.47147 0.14247 0.12481 -0.11100
O 	O 	0.85175 0.47650 0.33293 -0.12400
O 	O 	0.77291 0.52613 0.30489 -0.10900
C 	C 	0.87436 0.73178 0.43068 -0.03600
C 	C 	0.85122 0.77883 0.45923 -0.00100
C 	C 	0.77999 0.73692 0.48852 -0.03900
C 	C 	0.73565 0.65021 0.49115 0.00600
C 	C 	0.76259 0.60452 0.46490 -0.06700
C 	C 	0.83073 0.64537 0.43370 0.00700
H 	H 	0.92753 0.76261 0.40692 0.05300
H 	H 	0.76079 0.77202 0.51044 0.05200
H 	H 	0.68155 0.61907 0.51434 0.04300
H 	H 	0.85182 0.61105 0.41284 0.06100
C 	C 	0.77849 0.99915 0.47566 -0.03200
C 	C 	0.87710 0.04537 0.48450 -0.00600
C 	C 	0.93556 0.13541 0.50132 -0.04900
C 	C 	0.89621 0.17898 0.50613 0.00800
C 	C 	0.79804 0.13321 0.49502 -0.08500
C 	C 	0.73926 0.04288 0.48116 -0.00400
H 	H 	0.73220 0.92978 0.46310 0.04900
H 	H 	0.01158 0.17192 0.50985 0.05400
H 	H 	0.94219 0.24861 0.51747 0.03600
H 	H 	0.66330 0.00682 0.47248 0.03400
C 	C 	0.29031 0.06351 0.44845 0.01200
C 	C 	0.34935 0.15325 0.46511 -0.08000
C 	C 	0.30945 0.19565 0.47500 0.01000
C 	C 	0.21185 0.14825 0.47134 -0.04500
C 	C 	0.15285 0.05771 0.45744 0.00400
C 	C 	0.19263 0.01601 0.44430 -0.05000
H 	H 	0.32024 0.03031 0.43970 0.03400
H 	H 	0.35429 0.26501 0.48758 0.03300
H 	H 	0.18266 0.18186 0.48076 0.05100
H 	H 	0.14824 0.94666 0.43187 0.05800
C 	C 	0.73023 0.66827 0.95819 0.00900
C 	C 	0.77603 0.63122 0.94904 -0.07600
C 	C 	0.86776 0.68233 0.93867 0.00800
C 	C 	0.91607 0.77100 0.94167 -0.04200
C 	C 	0.87328 0.80951 0.95562 0.00100
C 	C 	0.77855 0.75687 0.96162 -0.04200
H 	H 	0.65813 0.62885 0.96442 0.04200
H 	H 	0.90318 0.65414 0.93054 0.03900
H 	H 	0.98775 0.81002 0.93480 0.05300
H 	H 	0.74335 0.78484 0.97089 0.05300
C 	C 	0.79584 0.01687 0.00798 -0.06000
C 	C 	0.88955 0.06785 0.99985 0.01300
C 	C 	0.93306 0.15400 0.99490 -0.05300
C 	C 	0.88172 0.18691 0.99506 0.00900
C 	C 	0.78634 0.13389 0.99969 -0.07700
C 	C 	0.74435 0.04946 0.00730 0.00900
H 	H 	0.76198 0.95115 0.01341 0.05500
H 	H 	0.00528 0.19449 0.98897 0.05600
H 	H 	0.91484 0.25231 0.98918 0.02500
H 	H 	0.67099 0.00821 0.01125 0.03700
C 	C 	0.23627 0.17996 0.99564 -0.03000
C 	C 	0.18236 0.09403 0.00259 -0.01600
C 	C 	0.22760 0.05640 0.01315 -0.04200
C 	C 	0.32458 0.10273 0.01416 0.00800
C 	C 	0.37790 0.18774 0.00548 -0.07800
C 	C 	0.33336 0.22661 0.99729 0.00800
H 	H 	0.20278 0.21005 0.98761 0.04800
H 	H 	0.18736 0.99071 0.01969 0.05400
H 	H 	0.35768 0.07197 0.02098 0.05300
H 	H 	0.37373 0.29275 0.99160 0.03700
