data_crystal

_cell_length_a 25.99008
_cell_length_b 26.52642
_cell_length_c 45.29983
_cell_angle_alpha 95.50947
_cell_angle_beta  95.50905
_cell_angle_gamma 125.80920

_symmetry_space_group_name_	'P 1'
_symmetry_space_group_name_H-M	'P 1'

loop_
_symmetry_equiv_pos_as_xyz
  x,y,z

loop_
_atom_site_label
_atom_site_type_symbol
_atom_site_fract_x
_atom_site_fract_y
_atom_site_fract_z
_atom_site_charge
C 	C 	0.96806 0.03026 0.98949 0.18600
N 	N 	0.03016 0.06315 0.98531 -0.11800
C 	C 	0.05797 0.03330 0.98162 0.18900
N 	N 	0.99053 0.02426 0.46984 -0.13800
C 	C 	0.82889 0.04468 0.48772 -0.11600
C 	C 	0.83644 0.07970 0.46497 0.00800
C 	C 	0.86825 0.07893 0.44174 0.30700
C 	C 	0.89486 0.04588 0.44209 -0.07700
C 	C 	0.88937 0.01278 0.46544 -0.08300
C 	C 	0.85498 0.01109 0.48790 0.34900
F 	F 	0.87433 0.11111 0.41914 -0.41000
H 	H 	0.92084 0.04698 0.42453 0.10900
H 	H 	0.80430 0.04486 0.50569 0.13000
C 	C 	0.74884 0.09330 0.46437 0.28800
F 	F 	0.70406 0.02943 0.45884 -0.41000
H 	H 	0.67825 0.11089 0.46688 0.09700
C 	C 	0.20267 0.13138 0.49624 -0.12100
C 	C 	0.22818 0.11248 0.47576 0.00700
C 	C 	0.18633 0.05809 0.45327 0.30900
C 	C 	0.11959 0.02217 0.45173 -0.08900
C 	C 	0.09404 0.04051 0.47245 -0.09000
C 	C 	0.13581 0.09568 0.49455 0.35600
F 	F 	0.21040 0.04009 0.43294 -0.41300
F 	F 	0.11175 0.11361 0.51492 -0.41400
C 	C 	0.33005 0.12263 0.48638 -0.13600
F 	F 	0.42542 0.12842 0.49394 -0.43300
H 	H 	0.30278 0.07577 0.49193 0.13200
C 	C 	0.91052 0.12991 0.97777 -0.12100
C 	C 	0.87723 0.12090 0.00171 0.00700
C 	C 	0.87542 0.08348 0.02211 0.31000
C 	C 	0.90565 0.05438 0.01823 -0.08200
C 	C 	0.93831 0.06279 0.99407 -0.07300
C 	C 	0.94108 0.10115 0.97398 0.34800
C 	C 	0.84140 0.14782 0.00431 0.02300
F 	F 	0.84412 0.07514 0.04560 -0.40800
H 	H 	0.90374 0.02531 0.03399 0.12800
F 	F 	0.97166 0.10895 0.95026 -0.41800
H 	H 	0.91173 0.15835 0.96181 0.12600
C 	C 	0.73923 0.13293 0.99723 0.37100
C 	C 	0.77364 0.10762 0.99852 -0.14100
F 	F 	0.67371 0.09336 0.99017 -0.43300
H 	H 	0.74767 0.05672 0.99404 0.13400
C 	C 	0.21038 0.07400 0.95655 -0.12000
C 	C 	0.25740 0.13045 0.97692 0.00400
C 	C 	0.17300 0.12762 0.99739 -0.08300
C 	C 	0.12597 0.06929 0.97815 -0.06600
C 	C 	0.14487 0.04351 0.95708 0.34100
H 	H 	0.22470 0.05284 0.94091 0.12100
C 	C 	0.35410 0.14143 0.00155 0.30000
F 	F 	0.31784 0.10103 0.01964 -0.40700
H 	H 	0.44127 0.15737 0.02257 0.10600
C 	C 	0.81473 0.12032 0.46660 0.02100
C 	C 	0.72908 0.13218 0.46813 -0.05300
C 	C 	0.29871 0.14925 0.47806 0.01900
H 	H 	0.23468 0.17333 0.51364 0.13100
C 	C 	0.39634 0.15587 0.48699 0.37300
C 	C 	0.23848 0.15806 0.99681 0.31900
C 	C 	0.32596 0.15674 0.97968 0.01900
H 	H 	0.15895 0.14818 0.01354 0.12000
C 	C 	0.41979 0.16840 0.00511 -0.05600
C 	C 	0.77485 0.19835 0.47389 -0.14600
C 	C 	0.86035 0.18643 0.47161 -0.13700
C 	C 	0.87462 0.21370 0.01020 0.28700
C 	C 	0.77251 0.19887 0.00159 -0.14700
H 	H 	0.56814 0.26753 0.59530 0.05700
O 	O 	0.68219 0.20205 0.00466 -0.32800
H 	H 	0.58275 0.21747 0.85408 0.05000
C 	C 	0.33440 0.21003 0.47098 0.29200
C 	C 	0.45808 0.21096 0.98683 -0.14000
H 	H 	0.57513 0.22924 0.80082 0.06700
C 	C 	0.43206 0.21652 0.47958 -0.13800
F 	F 	0.28368 0.21322 0.01632 -0.40600
O 	O 	0.55146 0.21512 0.00425 -0.35100
O 	O 	0.71448 0.22437 0.50009 -0.42400
H 	H 	0.91129 0.20769 0.47340 0.13700
C 	C 	0.36355 0.19786 0.96083 -0.14100
C 	C 	0.84057 0.22533 0.47512 0.37300
H 	H 	0.59599 0.23335 0.95126 0.19400
C 	C 	0.73723 0.22554 0.99556 0.33600
H 	H 	0.60381 0.23175 0.45606 0.18400
C 	C 	0.75449 0.23885 0.48127 0.33800
C 	C 	0.52834 0.24311 0.99247 0.32900
C 	C 	0.84028 0.23907 0.00874 -0.05400
O 	O 	0.53798 0.24840 0.50051 -0.34400
C 	C 	0.42939 0.22484 0.96430 0.37100
H 	H 	0.34186 0.20923 0.94365 0.12700
F 	F 	0.30454 0.23616 0.46280 -0.40800
H 	H 	0.57664 0.22941 0.30374 0.07000
C 	C 	0.40076 0.24356 0.47184 -0.05400
Cu	Cu	0.64511 0.24977 0.00629 0.93500
C 	C 	0.50161 0.25114 0.47921 0.34100
Cu	Cu	0.70045 0.25448 0.94373 0.88500
F 	F 	0.94019 0.25307 0.01666 -0.41000
O 	O 	0.66294 0.25975 0.90691 -0.39700
H 	H 	0.57673 0.24430 0.35834 0.04400
O 	O 	0.64013 0.25865 0.96353 -0.63800
O 	O 	0.66373 0.25741 0.04911 -0.34500
C 	C 	0.61163 0.26429 0.84854 0.02600
C 	C 	0.62059 0.24918 0.31979 -0.05700
C 	C 	0.62069 0.25778 0.35072 0.02700
C 	C 	0.60706 0.27096 0.81836 -0.05900
F 	F 	0.46510 0.26399 0.94567 -0.43300
O 	O 	0.75744 0.26830 0.97835 -0.42800
C 	C 	0.67944 0.26766 0.25129 0.02200
C 	C 	0.67764 0.26845 0.30961 0.05700
C 	C 	0.67961 0.26839 0.27794 -0.00800
C 	C 	0.67751 0.26793 0.22007 0.02200
H 	H 	0.58185 0.26639 0.15987 0.07200
C 	C 	0.67418 0.26898 0.19343 -0.00900
C 	C 	0.66794 0.27110 0.16173 0.05600
C 	C 	0.61738 0.27055 0.14742 -0.05900
H 	H 	0.55891 0.27673 0.64890 0.06900
C 	C 	0.71353 0.27621 0.14544 -0.05800
H 	H 	0.75279 0.27666 0.15638 0.07300
C 	C 	0.61282 0.27610 0.11711 0.02800
H 	H 	0.57337 0.27548 0.10630 0.05700
O 	O 	0.63138 0.27753 0.46484 -0.63900
C 	C 	0.02414 0.99999 0.47197 0.22100
F 	F 	0.09980 0.98860 0.93737 -0.40800
F 	F 	0.84929 0.97926 0.51061 -0.38800
N 	N 	0.02385 0.97072 0.98260 -0.11300
C 	C 	0.96172 0.93763 0.98671 0.19600
N 	N 	0.93379 0.96745 0.98998 -0.11100
C 	C 	0.92547 0.98609 0.46806 0.21900
N 	N 	0.89389 0.92325 0.46815 -0.10700
C 	C 	0.92761 0.89889 0.47021 0.20000
N 	N 	0.99265 0.93746 0.47218 -0.14300
Cu	Cu	0.68573 0.35190 0.96851 0.90700
Cu	Cu	0.64858 0.36791 0.02707 0.90500
C 	C 	0.65518 0.29034 0.06911 0.29300
C 	C 	0.66612 0.30993 0.90261 0.29400
O 	O 	0.69970 0.34835 0.01032 -0.64000
O 	O 	0.62989 0.31895 0.06055 -0.36800
O 	O 	0.73472 0.44290 0.97593 -0.35200
C 	C 	0.72590 0.47694 0.99502 0.35200
O 	O 	0.56804 0.30288 0.99017 -0.35300
O 	O 	0.69258 0.45408 0.01680 -0.37200
O 	O 	0.68649 0.35661 0.92532 -0.35100
H 	H 	0.74564 0.37475 0.02043 0.17900
Cu	Cu	0.73180 0.32933 0.46711 0.93300
Cu	Cu	0.73360 0.28697 0.53267 0.88600
Cu	Cu	0.63108 0.29673 0.50662 0.90300
Cu	Cu	0.61032 0.32498 0.44598 0.91000
C 	C 	0.68020 0.30366 0.40389 0.29000
O 	O 	0.76857 0.42082 0.46546 -0.33200
C 	C 	0.67903 0.32485 0.57271 0.29200
O 	O 	0.72622 0.34138 0.51011 -0.63600
O 	O 	0.77875 0.29099 0.47031 -0.33000
O 	O 	0.65382 0.33225 0.41086 -0.33800
C 	C 	0.74048 0.44561 0.47527 0.33800
O 	O 	0.68116 0.40843 0.47990 -0.37900
O 	O 	0.52695 0.29028 0.45999 -0.37600
O 	O 	0.72041 0.30432 0.42447 -0.33900
O 	O 	0.62978 0.30173 0.55031 -0.36700
O 	O 	0.73105 0.32979 0.56815 -0.39800
H 	H 	0.75247 0.38600 0.52073 0.18400
C 	C 	0.67215 0.33739 0.60401 -0.07700
C 	C 	0.61114 0.30133 0.61225 0.02400
C 	C 	0.60588 0.30644 0.64266 -0.06000
C 	C 	0.66138 0.34771 0.66500 0.05400
C 	C 	0.72184 0.38634 0.65672 -0.06100
C 	C 	0.72725 0.38132 0.62633 0.02500
C 	C 	0.65709 0.34580 0.69639 -0.01300
C 	C 	0.65344 0.34415 0.72265 0.01900
C 	C 	0.64973 0.34079 0.75336 0.01800
C 	C 	0.64724 0.33687 0.77956 -0.01100
C 	C 	0.64525 0.33103 0.81078 0.05400
C 	C 	0.65468 0.31776 0.87140 -0.06900
C 	C 	0.69055 0.37824 0.86385 0.02700
C 	C 	0.68595 0.38476 0.83362 -0.05600
H 	H 	0.76490 0.41885 0.67386 0.06800
H 	H 	0.77444 0.41039 0.62025 0.04900
H 	H 	0.72372 0.41996 0.88122 0.07000
H 	H 	0.71543 0.43141 0.82793 0.07400
C 	C 	0.67791 0.28568 0.37173 -0.06400
C 	C 	0.73424 0.30182 0.36150 0.03200
C 	C 	0.73407 0.29334 0.33051 -0.05500
C 	C 	0.70896 0.28159 0.11500 0.02700
C 	C 	0.65895 0.28229 0.10080 -0.07200
H 	H 	0.77871 0.32325 0.37746 0.06600
H 	H 	0.77830 0.30802 0.32279 0.07500
H 	H 	0.74478 0.28625 0.10265 0.05300
C 	C 	0.78051 0.59024 0.44568 -0.13500
C 	C 	0.81423 0.63691 0.47201 0.02200
C 	C 	0.82498 0.62070 0.49939 0.29000
C 	C 	0.80194 0.55826 0.50033 -0.05000
C 	C 	0.76874 0.51188 0.47393 -0.14400
C 	C 	0.75823 0.52811 0.44657 0.37600
C 	C 	0.84096 0.70325 0.47050 0.00600
F 	F 	0.85829 0.66552 0.52495 -0.40900
H 	H 	0.80972 0.54592 0.52157 0.08800
F 	F 	0.72569 0.48342 0.42094 -0.43800
H 	H 	0.77192 0.60226 0.42448 0.13400
C 	C 	0.88902 0.73691 0.45341 0.30800
C 	C 	0.91474 0.79976 0.45217 -0.08200
C 	C 	0.89371 0.83021 0.46845 -0.07400
C 	C 	0.84469 0.79617 0.48514 0.35200
C 	C 	0.81824 0.73282 0.48599 -0.11600
F 	F 	0.91169 0.70903 0.43845 -0.41000
H 	H 	0.95202 0.82528 0.43900 0.11100
F 	F 	0.82427 0.82494 0.50132 -0.39500
H 	H 	0.78069 0.70697 0.49899 0.13300
F 	F 	0.88555 0.28918 0.48100 -0.42900
H 	H 	0.08766 0.97989 0.43449 0.11900
H 	H 	0.42784 0.29053 0.46641 0.10400
C 	C 	0.84456 0.77696 0.00672 -0.11400
C 	C 	0.85700 0.73997 0.98920 0.00400
C 	C 	0.90294 0.76769 0.97049 0.31100
C 	C 	0.93612 0.83186 0.96933 -0.08300
C 	C 	0.92454 0.86929 0.98722 -0.07000
C 	C 	0.87857 0.84145 0.00604 0.35100
C 	C 	0.82260 0.67245 0.99084 0.02200
F 	F 	0.91604 0.73259 0.95374 -0.41000
H 	H 	0.97100 0.85255 0.95459 0.13200
F 	F 	0.86820 0.87713 0.02429 -0.41400
H 	H 	0.80907 0.75585 0.02116 0.13400
C 	C 	0.83117 0.65462 0.01805 0.29000
C 	C 	0.79885 0.59063 0.01943 -0.04800
C 	C 	0.75859 0.54401 0.99359 -0.14300
C 	C 	0.75014 0.56179 0.96636 0.37900
C 	C 	0.78163 0.62574 0.96509 -0.13600
F 	F 	0.87153 0.69936 0.04298 -0.40800
H 	H 	0.80588 0.57729 0.04048 0.09500
F 	F 	0.71075 0.51706 0.94128 -0.42900
H 	H 	0.77438 0.63908 0.94408 0.13500
H 	H 	0.86634 0.28997 0.01254 0.09600
