data_crystal

_cell_length_a 18.62778
_cell_length_b 18.79998
_cell_length_c 36.40960
_cell_angle_alpha 95.41947
_cell_angle_beta  95.42798
_cell_angle_gamma 126.63993

_symmetry_space_group_name_	'P 1'
_symmetry_space_group_name_H-M	'P 1'

loop_
_symmetry_equiv_pos_as_xyz
  x,y,z

loop_
_atom_site_label
_atom_site_type_symbol
_atom_site_fract_x
_atom_site_fract_y
_atom_site_fract_z
_atom_site_charge
C 	C 	0.92755 0.01255 0.98188 0.09100
N 	N 	0.01935 0.07145 0.98562 -0.11500
C 	C 	0.06868 0.04090 0.98159 0.11200
N 	N 	0.02653 0.95086 0.97574 -0.10100
C 	C 	0.93546 0.89149 0.97446 0.11500
N 	N 	0.88523 0.92210 0.97676 -0.11000
C 	C 	0.92865 0.01557 0.49412 0.09200
N 	N 	0.88222 0.92749 0.49680 -0.11100
C 	C 	0.92396 0.88828 0.49555 0.11700
N 	N 	0.01251 0.93734 0.49211 -0.10100
C 	C 	0.05952 0.02561 0.48975 0.10600
N 	N 	0.01741 0.06479 0.49041 -0.11200
Cu	Cu	0.75489 0.34184 0.95952 0.92400
Cu	Cu	0.77107 0.29898 0.04502 0.88400
Cu	Cu	0.63317 0.33859 0.01004 0.91500
Cu	Cu	0.59249 0.34964 0.92991 0.90500
C 	C 	0.68426 0.30760 0.88045 0.31200
O 	O 	0.81574 0.47515 0.95616 -0.34300
C 	C 	0.66588 0.33096 0.08588 0.30700
O 	O 	0.61745 0.28612 0.95856 -0.63300
O 	O 	0.75634 0.36936 0.01352 -0.63400
O 	O 	0.78926 0.25767 0.95999 -0.35100
O 	O 	0.85847 0.30222 0.02157 -0.40600
O 	O 	0.65797 0.35736 0.88864 -0.37500
O 	O 	0.51765 0.31896 0.00669 -0.36000
C 	C 	0.45214 0.27531 0.97677 0.28900
C 	C 	0.78075 0.51626 0.96704 0.27400
O 	O 	0.69534 0.46866 0.97138 -0.38600
O 	O 	0.47032 0.28857 0.94284 -0.37700
O 	O 	0.73301 0.30087 0.90639 -0.35200
C 	C 	0.83237 0.25079 0.98867 0.28300
O 	O 	0.65222 0.37418 0.06360 -0.36200
O 	O 	0.67397 0.26959 0.07174 -0.41200
H 	H 	0.57165 0.21955 0.95252 0.16400
H 	H 	0.80384 0.43439 0.02398 0.16700
Cu	Cu	0.58982 0.17656 0.50206 0.93000
Cu	Cu	0.65719 0.18729 0.42153 0.88100
Cu	Cu	0.65359 0.32986 0.45899 0.90100
Cu	Cu	0.61515 0.35221 0.53514 0.90400
C 	C 	0.62354 0.23497 0.58166 0.30800
O 	O 	0.46131 0.13560 0.50328 -0.34900
C 	C 	0.61938 0.27925 0.37577 0.30900
O 	O 	0.67652 0.31833 0.50966 -0.63900
O 	O 	0.57952 0.19574 0.44994 -0.64000
O 	O 	0.63798 0.10673 0.49482 -0.36000
O 	O 	0.74095 0.20607 0.46224 -0.43000
O 	O 	0.58947 0.27787 0.57471 -0.36900
O 	O 	0.73281 0.45965 0.47084 -0.37500
C 	C 	0.72781 0.50950 0.49693 0.29800
C 	C 	0.43583 0.18378 0.49272 0.28800
O 	O 	0.49748 0.26832 0.49040 -0.38500
O 	O 	0.68169 0.47639 0.52421 -0.37700
O 	O 	0.61952 0.18031 0.55450 -0.35000
C 	C 	0.71467 0.14326 0.48238 0.29400
O 	O 	0.64783 0.34205 0.40557 -0.37200
O 	O 	0.60347 0.20210 0.37892 -0.40600
H 	H 	0.74169 0.35156 0.52069 0.17600
H 	H 	0.51680 0.16408 0.43592 0.18700
C 	C 	0.66844 0.22273 0.69181 0.00300
C 	C 	0.75050 0.29441 0.71540 -0.02900
C 	C 	0.75713 0.30471 0.75440 -0.02700
C 	C 	0.68177 0.24325 0.76995 0.00200
C 	C 	0.60230 0.16748 0.74649 -0.02900
C 	C 	0.59568 0.15717 0.70747 -0.02900
C 	C 	0.68180 0.26430 0.80901 0.05500
C 	C 	0.68280 0.28280 0.84176 -0.09000
C 	C 	0.65345 0.22568 0.65266 0.05400
C 	C 	0.64096 0.22822 0.61988 -0.08600
H 	H 	0.80740 0.34491 0.70353 0.05100
H 	H 	0.81925 0.36285 0.77238 0.05300
H 	H 	0.54414 0.11898 0.75833 0.04800
H 	H 	0.53230 0.10099 0.68944 0.05100
C 	C 	0.62990 0.34381 0.19440 0.00100
C 	C 	0.70306 0.41092 0.22299 -0.02900
C 	C 	0.69591 0.40504 0.26065 -0.02900
C 	C 	0.61563 0.33197 0.26985 0.00100
C 	C 	0.54028 0.26848 0.24130 -0.02900
C 	C 	0.54743 0.27436 0.20363 -0.02800
C 	C 	0.61573 0.31418 0.30744 0.05300
C 	C 	0.61620 0.29962 0.33896 -0.09600
C 	C 	0.64278 0.34021 0.15609 0.05400
C 	C 	0.65317 0.33684 0.12397 -0.09700
H 	H 	0.76672 0.46542 0.21607 0.04800
H 	H 	0.75425 0.45480 0.28257 0.04900
H 	H 	0.47771 0.21217 0.24817 0.05100
H 	H 	0.49021 0.22277 0.18167 0.05200
C 	C 	0.87221 0.79156 0.49633 -0.00200
C 	C 	0.80393 0.72695 0.46538 -0.02300
C 	C 	0.75600 0.63436 0.46573 0.01800
C 	C 	0.77822 0.60633 0.49652 -0.07100
C 	C 	0.84776 0.67105 0.52715 0.01500
C 	C 	0.89337 0.76356 0.52739 -0.01600
C 	C 	0.78429 0.75585 0.43289 0.10500
C 	C 	0.87388 0.64243 0.55794 0.08500
C 	C 	0.96143 0.83008 0.55975 0.08100
C 	C 	0.68291 0.56782 0.43465 0.08900
N 	N 	0.01574 0.88320 0.58554 -0.07300
N 	N 	0.62465 0.51475 0.40987 -0.10100
N 	N 	0.89471 0.61958 0.58248 -0.11000
N 	N 	0.76857 0.77880 0.40695 -0.09800
C 	C 	0.87971 0.05443 0.49113 0.00000
C 	C 	0.83308 0.04378 0.45577 -0.02000
C 	C 	0.77277 0.06570 0.45332 0.01400
C 	C 	0.76419 0.10488 0.48598 -0.08100
C 	C 	0.81220 0.11719 0.52136 0.01900
C 	C 	0.86965 0.09156 0.52394 -0.02900
C 	C 	0.84801 0.01107 0.42186 0.06900
C 	C 	0.80357 0.15741 0.55499 0.08500
C 	C 	0.91865 0.10357 0.56028 0.09800
C 	C 	0.71808 0.04634 0.41729 0.05500
N 	N 	0.95777 0.11311 0.58926 -0.10700
N 	N 	0.67445 0.03089 0.38855 -0.13300
N 	N 	0.79678 0.18952 0.58185 -0.10300
N 	N 	0.86009 0.98514 0.39483 -0.07800
C 	C 	0.15688 0.07898 0.48749 0.01300
C 	C 	0.18328 0.05564 0.45632 -0.05700
C 	C 	0.27466 0.08927 0.45811 0.02800
C 	C 	0.34023 0.14880 0.49058 -0.07800
C 	C 	0.31516 0.17818 0.52044 0.02300
C 	C 	0.22346 0.14298 0.51894 -0.03000
C 	C 	0.11621 0.99691 0.42247 0.14500
C 	C 	0.38356 0.24402 0.55284 0.07700
C 	C 	0.19712 0.17050 0.55025 0.10800
C 	C 	0.30119 0.06278 0.42658 0.06900
N 	N 	0.17606 0.19241 0.57521 -0.09800
N 	N 	0.32227 0.04158 0.40140 -0.11300
N 	N 	0.43787 0.29663 0.57872 -0.11100
N 	N 	0.06260 0.95003 0.39549 -0.09800
C 	C 	0.83329 0.61528 0.96971 -0.06900
C 	C 	0.84694 0.65183 0.93661 0.01300
C 	C 	0.87499 0.74059 0.93782 -0.02400
C 	C 	0.89239 0.79421 0.97233 0.00200
C 	C 	0.88207 0.75889 0.00564 -0.02300
C 	C 	0.85321 0.66986 0.00437 0.01600
C 	C 	0.83081 0.59770 0.90118 0.08800
C 	C 	0.90208 0.81450 0.04129 0.10600
C 	C 	0.84401 0.63432 0.03874 0.07900
C 	C 	0.88526 0.77654 0.90352 0.10300
N 	N 	0.83663 0.60591 0.06616 -0.11200
N 	N 	0.89349 0.80533 0.87618 -0.10000
N 	N 	0.91812 0.85897 0.06971 -0.09800
N 	N 	0.81802 0.55459 0.87289 -0.09900
C 	C 	0.87409 0.04720 0.97935 -0.00100
C 	C 	0.84723 0.06496 0.01166 -0.01800
C 	C 	0.82714 0.12673 0.01368 0.01200
C 	C 	0.84200 0.17691 0.98463 -0.07800
C 	C 	0.86251 0.15364 0.95117 0.01700
C 	C 	0.87082 0.08353 0.94772 -0.02800
C 	C 	0.84125 0.02055 0.04297 0.06900
C 	C 	0.87980 0.20444 0.92120 0.09500
C 	C 	0.87533 0.04813 0.91163 0.09900
C 	C 	0.78709 0.13499 0.04449 0.05300
N 	N 	0.87873 0.01962 0.88281 -0.10800
N 	N 	0.75505 0.14133 0.06910 -0.13600
N 	N 	0.89365 0.24493 0.89726 -0.09900
N 	N 	0.83650 0.98506 0.06794 -0.07700
C 	C 	0.16806 0.10565 0.98276 -0.00300
C 	C 	0.20255 0.17403 0.96091 -0.02300
C 	C 	0.29704 0.23622 0.96268 0.01800
C 	C 	0.35630 0.22276 0.98180 -0.07000
C 	C 	0.32230 0.15506 0.00392 0.01200
C 	C 	0.22898 0.09956 0.00580 -0.01400
C 	C 	0.14104 0.17845 0.93549 0.10700
C 	C 	0.38272 0.14100 0.02397 0.07800
C 	C 	0.19617 0.03819 0.03218 0.07300
C 	C 	0.33354 0.31587 0.94603 0.09400
N 	N 	0.16994 0.98922 0.05321 -0.07400
N 	N 	0.36260 0.37939 0.93276 -0.10200
N 	N 	0.43091 0.12979 0.03997 -0.11500
N 	N 	0.09253 0.18256 0.91516 -0.09700
