data_crystal

_cell_length_a 16.23655
_cell_length_b 19.51900
_cell_length_c 54.34832
_cell_angle_alpha 89.58853
_cell_angle_beta  89.58773
_cell_angle_gamma 119.42883

_symmetry_space_group_name_	'P 1'
_symmetry_space_group_name_H-M	'P 1'

loop_
_symmetry_equiv_pos_as_xyz
  x,y,z

loop_
_atom_site_label
_atom_site_type_symbol
_atom_site_fract_x
_atom_site_fract_y
_atom_site_fract_z
_atom_site_charge
C 	C 	0.86907 0.53031 0.00739 -0.00800
C 	C 	0.91977 0.43264 0.00533 -0.00800
O 	O 	0.10046 0.56088 0.99179 -0.38700
H 	H 	0.31731 0.73659 0.01464 0.14200
C 	C 	0.94250 0.51187 0.00715 -0.06200
O 	O 	0.24721 0.53668 0.00248 -0.37800
H 	H 	0.88434 0.59039 0.00993 0.04500
C 	C 	0.04256 0.57481 0.00494 0.30000
H 	H 	0.97473 0.41660 0.00663 0.04700
O 	O 	0.45080 0.68913 0.01984 -0.36300
H 	H 	0.57157 0.63850 0.01410 0.04500
O 	O 	0.06581 0.64757 0.01021 -0.38800
O 	O 	0.26730 0.68534 0.02087 -0.70800
Ni	Ni	0.17804 0.71666 0.03101 1.11900
C 	C 	0.23038 0.51227 0.02563 0.31400
O 	O 	0.40562 0.79519 0.04988 -0.37800
Ni	Ni	0.34470 0.67512 0.04500 1.11400
O 	O 	0.28837 0.55509 0.04291 -0.37400
C 	C 	0.17175 0.43023 0.03115 -0.09900
O 	O 	0.26475 0.79559 0.05673 -0.38000
C 	C 	0.35812 0.82819 0.05896 0.31400
O 	O 	0.12819 0.62934 0.05640 -0.39800
C 	C 	0.12807 0.36526 0.04014 0.05100
C 	C 	0.82769 0.37505 0.99951 -0.00900
C 	C 	0.40312 0.88601 0.07758 -0.09800
O 	O 	0.26369 0.66105 0.07688 -0.37100
C 	C 	0.17267 0.63826 0.07707 0.32700
C 	C 	0.07545 0.28775 0.05089 -0.00700
H 	H 	0.94940 0.29546 0.05817 0.04300
H 	H 	0.18694 0.25862 0.04652 0.04500
C 	C 	0.99072 0.26794 0.06343 -0.02900
C 	C 	0.12420 0.24732 0.05690 -0.03100
C 	C 	0.44333 0.92993 0.09424 0.04800
H 	H 	0.62029 0.05230 0.09324 0.04500
C 	C 	0.13058 0.64801 0.09907 -0.11300
C 	C 	0.96774 0.22323 0.08520 -0.02700
C 	C 	0.10161 0.20279 0.07872 -0.03100
C 	C 	0.49142 0.98240 0.11410 0.00300
H 	H 	0.90811 0.21567 0.09633 0.04300
C 	C 	0.58778 0.03720 0.11140 -0.03800
C 	C 	0.09467 0.66153 0.11647 0.05600
H 	H 	0.14642 0.17942 0.08481 0.04400
C 	C 	0.02830 0.19671 0.09398 -0.00800
H 	H 	0.91460 0.63173 0.11879 0.04100
H 	H 	0.37471 0.92443 0.13991 0.04400
C 	C 	0.44968 0.96523 0.13765 -0.03600
C 	C 	0.95772 0.66580 0.13400 -0.02000
C 	C 	0.04925 0.67688 0.13684 -0.01700
C 	C 	0.64445 0.06578 0.13218 -0.02800
H 	H 	0.72020 0.10316 0.12991 0.04400
C 	C 	0.02926 0.18153 0.11996 0.04900
H 	H 	0.85735 0.70092 0.14583 0.04700
C 	C 	0.92532 0.70513 0.14929 -0.03900
C 	C 	0.10331 0.71933 0.15695 -0.02500
C 	C 	0.50641 0.99371 0.15845 -0.02500
H 	H 	0.17347 0.72705 0.15957 0.04100
C 	C 	0.60472 0.03985 0.15570 -0.01000
C 	C 	0.02856 0.16911 0.14177 -0.09900
C 	C 	0.98419 0.75519 0.16755 0.00800
H 	H 	0.47477 0.97501 0.17661 0.04200
C 	C 	0.07082 0.75847 0.17229 -0.04600
C 	C 	0.66500 0.04669 0.17589 0.05500
C 	C 	0.96501 0.81368 0.17786 0.05100
H 	H 	0.11594 0.79576 0.18672 0.04400
C 	C 	0.02812 0.15826 0.16796 0.31700
C 	C 	0.71749 0.05341 0.19239 -0.10400
C 	C 	0.95192 0.86375 0.18692 -0.10400
O 	O 	0.22318 0.79954 0.00428 -0.37300
O 	O 	0.96606 0.16634 0.18139 -0.36900
O 	O 	0.10175 0.15932 0.17827 -0.37600
O 	O 	0.99320 0.99767 0.18742 -0.39200
C 	C 	0.94360 0.92747 0.19724 0.32800
C 	C 	0.78259 0.05938 0.21102 0.32500
O 	O 	0.80128 0.00156 0.21394 -0.37900
O 	O 	0.89942 0.91718 0.21853 -0.38000
Ni	Ni	0.09041 0.08695 0.20684 1.11800
O 	O 	0.83376 0.12675 0.22188 -0.37300
Ni	Ni	0.98018 0.18506 0.21908 1.11500
O 	O 	0.12560 0.26100 0.21482 -0.37100
O 	O 	0.99983 0.09902 0.22563 -0.70600
Ni	Ni	0.89671 0.00379 0.23837 1.12000
O 	O 	0.10487 0.01371 0.23155 -0.38400
O 	O 	0.19483 0.18429 0.22304 -0.37300
C 	C 	0.19043 0.24995 0.22599 0.30500
H 	H 	0.03776 0.11817 0.24062 0.14500
C 	C 	0.26330 0.31387 0.23931 -0.09800
O 	O 	0.86697 0.06795 0.26298 -0.37200
C 	C 	0.05738 0.98327 0.25271 0.30500
O 	O 	0.98980 0.99708 0.26087 -0.38100
O 	O 	0.97828 0.19881 0.25700 -0.36500
C 	C 	0.32064 0.36863 0.25099 0.04700
C 	C 	0.93172 0.13677 0.27176 0.30300
C 	C 	0.07833 0.93147 0.26685 -0.09700
C 	C 	0.38810 0.43562 0.26457 -0.00100
H 	H 	0.44100 0.37054 0.28514 0.04400
C 	C 	0.09370 0.88695 0.27892 0.04600
H 	H 	0.35048 0.51641 0.24735 0.04500
C 	C 	0.44048 0.42563 0.28324 -0.03300
C 	C 	0.38956 0.50772 0.26198 -0.03300
H 	H 	0.20360 0.82462 0.26664 0.04300
C 	C 	0.94468 0.14550 0.29788 -0.09400
C 	C 	0.11119 0.83377 0.29360 -0.00200
C 	C 	0.48631 0.48454 0.30067 -0.03100
C 	C 	0.17412 0.80928 0.28510 -0.03300
C 	C 	0.43521 0.56651 0.27942 -0.03100
H 	H 	0.02092 0.82876 0.32378 0.04400
H 	H 	0.52171 0.47441 0.31594 0.04300
C 	C 	0.07133 0.81159 0.31726 -0.03300
C 	C 	0.95288 0.14750 0.31994 0.04400
H 	H 	0.43073 0.62002 0.27819 0.04400
C 	C 	0.47953 0.55341 0.29950 -0.00600
C 	C 	0.20357 0.76895 0.30096 -0.03300
H 	H 	0.25684 0.75465 0.29474 0.04400
C 	C 	0.10084 0.77129 0.33312 -0.03300
C 	C 	0.17099 0.75375 0.32545 -0.00300
H 	H 	0.07300 0.11664 0.34572 0.04700
C 	C 	0.49997 0.60171 0.32095 0.05400
C 	C 	0.96384 0.14946 0.34626 0.01000
H 	H 	0.07426 0.75887 0.35190 0.04300
H 	H 	0.85979 0.18515 0.35392 0.04500
C 	C 	0.01906 0.11992 0.35668 -0.05200
C 	C 	0.89930 0.15838 0.36128 -0.04000
C 	C 	0.51707 0.64218 0.33890 -0.11000
C 	C 	0.22586 0.74051 0.34362 0.04600
C 	C 	0.99537 0.08418 0.38004 -0.01500
C 	C 	0.53004 0.68543 0.36109 0.33200
C 	C 	0.27372 0.72961 0.35827 -0.09700
C 	C 	0.87568 0.12240 0.38457 -0.02800
H 	H 	0.03072 0.05305 0.38675 0.03600
O 	O 	0.53201 0.75339 0.36011 -0.37400
C 	C 	0.91472 0.07588 0.39236 -0.01100
H 	H 	0.81751 0.12117 0.39486 0.04100
O 	O 	0.51674 0.64872 0.38212 -0.39200
C 	C 	0.34068 0.72896 0.37518 0.30700
O 	O 	0.34610 0.66299 0.37794 -0.37400
C 	C 	0.85276 0.00168 0.40418 0.05200
O 	O 	0.40877 0.79833 0.38243 -0.37900
C 	C 	0.79323 0.94052 0.41320 -0.10800
Ni	Ni	0.54239 0.81919 0.39135 1.11400
O 	O 	0.66725 0.82261 0.40024 -0.38300
Ni	Ni	0.41293 0.63587 0.40554 1.12100
H 	H 	0.48411 0.46593 0.42014 0.04400
C 	C 	0.71380 0.86498 0.41883 0.32600
O 	O 	0.46340 0.58543 0.42917 -0.38200
O 	O 	0.48074 0.74197 0.41566 -0.71500
C 	C 	0.55120 0.48945 0.42945 -0.00700
C 	C 	0.55371 0.61780 0.43469 0.30300
H 	H 	0.54814 0.37816 0.43024 0.04400
H 	H 	0.42742 0.75055 0.41984 0.16000
O 	O 	0.60035 0.69127 0.44178 -0.38300
C 	C 	0.59894 0.56817 0.43694 -0.06200
C 	C 	0.58808 0.43985 0.43492 -0.00700
O 	O 	0.31196 0.61638 0.43051 -0.37700
O 	O 	0.56511 0.90731 0.41705 -0.36700
O 	O 	0.66950 0.85348 0.44010 -0.37000
Ni	Ni	0.53898 0.75739 0.44717 1.12200
C 	C 	0.68873 0.59850 0.44767 -0.00800
H 	H 	0.51114 0.01560 0.41312 0.04100
C 	C 	0.67268 0.46830 0.44803 -0.06700
C 	C 	0.51812 0.89767 0.43827 0.28400
C 	C 	0.33191 0.64252 0.45341 0.27900
H 	H 	0.72845 0.65985 0.45269 0.05000
O 	O 	0.41810 0.66832 0.46259 -0.37400
C 	C 	0.72530 0.54867 0.45317 -0.00600
O 	O 	0.49498 0.83611 0.45300 -0.38100
H 	H 	0.19751 0.68453 0.44693 0.04000
C 	C 	0.51860 0.02469 0.43280 -0.01200
O 	O 	0.77851 0.42037 0.46009 -0.37000
C 	C 	0.69323 0.41250 0.46109 0.29900
C 	C 	0.51428 0.96571 0.44852 -0.05900
H 	H 	0.54695 0.14412 0.42988 0.04400
C 	C 	0.25259 0.62629 0.47009 -0.05800
C 	C 	0.18320 0.64450 0.46233 -0.01100
H 	H 	0.79142 0.57152 0.46294 0.04600
C 	C 	0.53852 0.09740 0.44232 -0.00800
O 	O 	0.67444 0.24667 0.46181 -0.36800
H 	H 	0.03672 0.61357 0.46491 0.03800
O 	O 	0.62424 0.35239 0.47268 -0.37800
C 	C 	0.09213 0.60459 0.47260 -0.00500
C 	C 	0.23440 0.57715 0.49073 -0.01000
H 	H 	0.28813 0.56422 0.49735 0.04700
O 	O 	0.94627 0.41963 0.47949 -0.36600
Ni	Ni	0.80620 0.33392 0.47407 1.11300
C 	C 	0.51845 0.97690 0.47414 -0.00800
C 	C 	0.07020 0.54660 0.49074 -0.07000
C 	C 	0.55497 0.11178 0.46758 -0.06200
H 	H 	0.51199 0.93096 0.48662 0.04500
C 	C 	0.14335 0.53758 0.50110 -0.00400
C 	C 	0.97270 0.48213 0.49321 0.30200
C 	C 	0.60670 0.19297 0.47621 0.28300
C 	C 	0.53887 0.04982 0.48360 -0.01100
H 	H 	0.12763 0.49429 0.51558 0.04100
O 	O 	0.84598 0.25491 0.48883 -0.36700
O 	O 	0.91922 0.48160 0.51161 -0.38100
O 	O 	0.57644 0.21288 0.49634 -0.37400
H 	H 	0.54911 0.05977 0.50321 0.04100
O 	O 	0.75472 0.33209 0.50536 -0.71500
Ni	Ni	0.63470 0.32564 0.50813 1.12200
O 	O 	0.68261 0.43937 0.51644 -0.38900
H 	H 	0.73441 0.27728 0.51006 0.14900
C 	C 	0.88776 0.26859 0.51059 0.30800
O 	O 	0.92127 0.33794 0.52105 -0.38200
Ni	Ni	0.83735 0.38283 0.53186 1.12200
C 	C 	0.73482 0.47235 0.53586 0.32800
O 	O 	0.77479 0.43803 0.54788 -0.38800
C 	C 	0.89010 0.20679 0.52438 -0.10500
O 	O 	0.61806 0.29246 0.54414 -0.38000
C 	C 	0.72773 0.53394 0.54801 -0.10500
C 	C 	0.89591 0.16375 0.53942 0.05100
O 	O 	0.75520 0.28894 0.55368 -0.37900
C 	C 	0.66174 0.25864 0.55533 0.30300
H 	H 	0.05088 0.15436 0.55149 0.04400
C 	C 	0.72591 0.58298 0.56091 0.05300
C 	C 	0.09841 0.99537 0.76684 0.29900
C 	C 	0.15059 0.98894 0.69572 0.31900
Ni	Ni	0.97808 0.88677 0.72632 1.11300
Ni	Ni	0.07847 0.07847 0.72346 1.12300
O 	O 	0.08841 0.93834 0.75181 -0.36100
O 	O 	0.11233 0.06412 0.75820 -0.37000
O 	O 	0.07241 0.92081 0.69668 -0.37400
O 	O 	0.16974 0.04087 0.71303 -0.37500
O 	O 	0.87707 0.84222 0.75422 -0.37500
O 	O 	0.96696 0.97782 0.72654 -0.71700
C 	C 	0.36036 0.03401 0.64577 -0.00300
C 	C 	0.45406 0.08564 0.65238 -0.03100
C 	C 	0.52447 0.12030 0.63418 -0.03300
C 	C 	0.50122 0.10368 0.60933 -0.00200
C 	C 	0.40988 0.04523 0.60306 -0.03400
C 	C 	0.33944 0.01064 0.62125 -0.03000
C 	C 	0.56188 0.15815 0.59067 0.04600
C 	C 	0.61087 0.20268 0.57458 -0.09600
C 	C 	0.28476 0.01608 0.66311 0.05000
C 	C 	0.22262 0.00184 0.67792 -0.09600
H 	H 	0.47123 0.10279 0.67139 0.04600
H 	H 	0.59530 0.16437 0.63925 0.04500
H 	H 	0.39165 0.03092 0.58393 0.04300
H 	H 	0.26753 0.96952 0.61605 0.04200
C 	C 	0.79391 0.71627 0.57702 -0.03200
C 	C 	0.71995 0.63824 0.57705 -0.00500
H 	H 	0.87341 0.81983 0.59866 0.04400
H 	H 	0.84195 0.73963 0.56137 0.04300
C 	C 	0.14113 0.95880 0.85559 -0.03200
C 	C 	0.07921 0.97355 0.84165 -0.00600
C 	C 	0.02462 0.00171 0.85338 -0.02700
C 	C 	0.08814 0.97799 0.81519 0.04800
C 	C 	0.09308 0.98291 0.79302 -0.09900
H 	H 	0.18120 0.93436 0.84696 0.04300
H 	H 	0.97392 0.01071 0.84300 0.04000
C 	C 	0.52018 0.54127 0.81253 -0.03100
C 	C 	0.53370 0.50268 0.85482 0.05300
H 	H 	0.48751 0.48039 0.80693 0.04500
H 	H 	0.54337 0.58568 0.77532 0.04500
C 	C 	0.81242 0.76132 0.59824 -0.03200
C 	C 	0.53875 0.56062 0.83741 -0.00400
C 	C 	0.55147 0.60097 0.79462 -0.03300
C 	C 	0.90179 0.11203 0.55744 -0.00300
C 	C 	0.99139 0.12440 0.56411 -0.03500
H 	H 	0.07816 0.12433 0.59386 0.04400
C 	C 	0.75616 0.72868 0.61938 -0.00400
C 	C 	0.65666 0.60960 0.59711 -0.03100
H 	H 	0.59783 0.54996 0.59706 0.04500
H 	H 	0.91707 0.13294 0.83666 0.04100
C 	C 	0.60245 0.68008 0.80157 -0.00100
C 	C 	0.93255 0.07745 0.60544 -0.00500
C 	C 	0.84034 0.05348 0.59764 -0.03100
C 	C 	0.82486 0.07004 0.57356 -0.03300
C 	C 	0.00708 0.10812 0.58821 -0.02900
H 	H 	0.75466 0.05781 0.56835 0.04400
C 	C 	0.67526 0.65449 0.61835 -0.03200
C 	C 	0.78599 0.76821 0.64249 0.05300
C 	C 	0.93001 0.22315 0.81113 -0.00200
C 	C 	0.91334 0.18654 0.83430 -0.03200
C 	C 	0.88367 0.21518 0.85397 -0.03300
C 	C 	0.57828 0.63935 0.84449 -0.03100
C 	C 	0.66722 0.73776 0.78421 0.04700
O 	O 	0.85721 0.03957 0.74438 -0.37800
Ni	Ni	0.85346 0.97316 0.71571 1.12100
O 	O 	0.91073 0.07057 0.69438 -0.38200
O 	O 	0.76981 0.86840 0.73394 -0.37400
C 	C 	0.95226 0.08147 0.63137 0.05300
H 	H 	0.78168 0.02715 0.61064 0.04500
C 	C 	0.81265 0.80262 0.66160 -0.10500
C 	C 	0.86999 0.28008 0.85042 -0.00200
C 	C 	0.89894 0.32266 0.82818 -0.03200
C 	C 	0.92852 0.29398 0.80850 -0.03200
C 	C 	0.93270 0.18180 0.78964 0.04800
H 	H 	0.94394 0.32388 0.79079 0.04500
C 	C 	0.60990 0.69900 0.82658 -0.03300
O 	O 	0.86701 0.81849 0.70279 -0.37300
O 	O 	0.06246 0.09697 0.68774 -0.38200
C 	C 	0.84510 0.84754 0.68360 0.32700
C 	C 	0.79431 0.84013 0.75326 0.30600
C 	C 	0.98133 0.08604 0.67925 0.32100
C 	C 	0.93619 0.10401 0.75060 0.30100
O 	O 	0.84790 0.91572 0.68444 -0.38800
C 	C 	0.96690 0.08424 0.65317 -0.10000
H 	H 	0.62968 0.62988 0.63440 0.04400
C 	C 	0.93488 0.14672 0.77175 -0.09600
H 	H 	0.89090 0.37411 0.82547 0.04500
C 	C 	0.72160 0.78630 0.76975 -0.09500
H 	H 	0.64723 0.75998 0.83215 0.04300
O 	O 	0.01110 0.13634 0.73563 -0.37300
H 	H 	0.95443 0.97857 0.74423 0.14400
H 	H 	0.59059 0.65472 0.86375 0.04400
C 	C 	0.04325 0.02690 0.87780 -0.03500
C 	C 	0.15991 0.98428 0.87994 -0.03700
H 	H 	0.86373 0.18302 0.87131 0.04400
H 	H 	0.00748 0.05590 0.88590 0.04300
C 	C 	0.53026 0.45543 0.86979 -0.10600
H 	H 	0.21535 0.98027 0.88968 0.04200
C 	C 	0.11790 0.02566 0.89023 -0.00400
C 	C 	0.80534 0.28951 0.86632 0.04900
O 	O 	0.51889 0.33339 0.88120 -0.37400
C 	C 	0.75110 0.29694 0.87976 -0.09500
C 	C 	0.53085 0.40198 0.88794 0.33100
C 	C 	0.17199 0.08742 0.90732 0.05000
C 	C 	0.67901 0.29973 0.89428 0.30800
O 	O 	0.59454 0.23581 0.89485 -0.37300
Ni	Ni	0.47339 0.23810 0.90551 1.11400
C 	C 	0.22590 0.13843 0.92076 -0.11700
O 	O 	0.36537 0.25662 0.91703 -0.38800
O 	O 	0.55596 0.42654 0.91039 -0.38800
O 	O 	0.69044 0.36984 0.90042 -0.37500
C 	C 	0.30375 0.20459 0.93200 0.32900
O 	O 	0.41069 0.12605 0.92291 -0.36700
H 	H 	0.25990 0.98519 0.93239 0.04500
Ni	Ni	0.63436 0.39372 0.93105 1.12100
O 	O 	0.53781 0.28724 0.93412 -0.71600
H 	H 	0.39376 0.46444 0.94498 0.04900
H 	H 	0.57584 0.26093 0.93632 0.16500
O 	O 	0.33281 0.19481 0.95359 -0.37000
C 	C 	0.43222 0.10579 0.94454 0.28200
C 	C 	0.30104 0.96621 0.94315 -0.01000
C 	C 	0.39332 0.02101 0.95027 -0.05700
H 	H 	0.18600 0.84750 0.94703 0.04400
H 	H 	0.36277 0.57107 0.95712 0.03300
C 	C 	0.25900 0.88793 0.95148 -0.00800
C 	C 	0.43256 0.50229 0.96008 -0.00600
O 	O 	0.44868 0.35298 0.96693 -0.37800
O 	O 	0.60403 0.44300 0.95965 -0.39200
C 	C 	0.51745 0.42644 0.96539 0.30300
Ni	Ni	0.47093 0.26022 0.96498 1.12000
O 	O 	0.47345 0.15746 0.96254 -0.37300
O 	O 	0.70624 0.36436 0.95445 -0.38500
C 	C 	0.44489 0.99551 0.96463 -0.00800
C 	C 	0.41567 0.56332 0.96684 -0.00200
H 	H 	0.51651 0.03678 0.96999 0.04400
C 	C 	0.49937 0.49026 0.97270 -0.06500
C 	C 	0.30835 0.86378 0.96720 -0.05600
C 	C 	0.40269 0.91723 0.97298 -0.01200
C 	C 	0.68266 0.35188 0.97806 0.28600
O 	O 	0.59204 0.31314 0.98584 -0.36900
O 	O 	0.22879 0.72157 0.97273 -0.36800
H 	H 	0.44150 0.89935 0.98513 0.04100
C 	C 	0.25568 0.79221 0.98248 0.27200
O 	O 	0.38077 0.68580 0.98313 -0.38500
C 	C 	0.46383 0.61183 0.98679 -0.06600
C 	C 	0.55068 0.54070 0.99187 -0.00700
C 	C 	0.43423 0.66720 0.99659 0.29100
C 	C 	0.75756 0.39607 0.99585 -0.06000
Ni	Ni	0.24055 0.63288 0.98994 1.11800
C 	C 	0.53283 0.60105 0.99894 -0.00700
H 	H 	0.72182 0.48820 0.00047 0.04500
H 	H 	0.60307 0.53229 0.00159 0.03900
H 	H 	0.81319 0.31582 0.99561 0.04000
C 	C 	0.77650 0.47208 0.00218 -0.01300
