data_crystal

_cell_length_a 26.25256
_cell_length_b 26.30828
_cell_length_c 34.82581
_cell_angle_alpha 95.53494
_cell_angle_beta  95.53659
_cell_angle_gamma 125.69248

_symmetry_space_group_name_	'P 1'
_symmetry_space_group_name_H-M	'P 1'

loop_
_symmetry_equiv_pos_as_xyz
  x,y,z

loop_
_atom_site_label
_atom_site_type_symbol
_atom_site_fract_x
_atom_site_fract_y
_atom_site_fract_z
_atom_site_charge
C 	C 	0.95958 0.01679 0.99869 0.02800
C 	C 	0.02508 0.04846 0.99879 -0.06700
C 	C 	0.05034 0.01389 0.99671 0.02700
C 	C 	0.01025 0.94787 0.99507 -0.06900
C 	C 	0.94507 0.91621 0.99507 0.02700
C 	C 	0.91967 0.95052 0.99663 -0.06800
H 	H 	0.05611 0.09960 0.00028 0.05400
H 	H 	0.02964 0.92105 0.99333 0.05700
H 	H 	0.86894 0.92568 0.99593 0.05600
C 	C 	0.95316 0.02793 0.46728 0.03000
C 	C 	0.91756 0.96392 0.47188 -0.06900
C 	C 	0.94516 0.93145 0.47069 0.02900
C 	C 	0.00853 0.96338 0.46524 -0.06800
C 	C 	0.04458 0.02757 0.46170 0.03000
C 	C 	0.01654 0.05938 0.46193 -0.06900
H 	H 	0.86896 0.93976 0.47672 0.05500
H 	H 	0.02992 0.93845 0.46409 0.05700
H 	H 	0.04432 0.10887 0.45867 0.05600
Cu	Cu	0.62897 0.22386 0.99713 0.93300
Cu	Cu	0.67500 0.22570 0.91287 0.88700
Cu	Cu	0.65395 0.31955 0.94419 0.90300
Cu	Cu	0.62491 0.33889 0.02293 0.90400
C 	C 	0.64957 0.27326 0.07905 0.40100
O 	O 	0.53554 0.18315 0.99864 -0.34100
C 	C 	0.63788 0.27748 0.85873 0.39000
O 	O 	0.67612 0.32201 0.99889 -0.63600
O 	O 	0.61545 0.22709 0.94073 -0.63700
O 	O 	0.67276 0.18234 0.99439 -0.35300
O 	O 	0.73823 0.24876 0.95639 -0.42000
O 	O 	0.61823 0.29642 0.06876 -0.36200
O 	O 	0.69742 0.41062 0.95069 -0.36100
C 	C 	0.69720 0.44616 0.98014 0.29000
C 	C 	0.50751 0.20766 0.98479 0.28000
O 	O 	0.54251 0.26631 0.97855 -0.37700
O 	O 	0.65712 0.42046 0.00467 -0.37500
O 	O 	0.65488 0.23757 0.05285 -0.34400
C 	C 	0.72576 0.20897 0.98031 0.29000
O 	O 	0.64168 0.31772 0.88701 -0.35100
O 	O 	0.63203 0.22621 0.86583 -0.38400
H 	H 	0.72242 0.35155 0.01006 0.18300
H 	H 	0.57059 0.19824 0.92649 0.18700
Cu	Cu	0.74848 0.36341 0.45169 0.93300
Cu	Cu	0.74031 0.30869 0.53314 0.88400
Cu	Cu	0.63743 0.31245 0.49543 0.90300
Cu	Cu	0.62264 0.34585 0.41755 0.90400
C 	C 	0.70940 0.34564 0.36856 0.39800
O 	O 	0.77562 0.45367 0.45344 -0.33900
C 	C 	0.67065 0.32911 0.58220 0.39500
O 	O 	0.64805 0.30155 0.44235 -0.63800
O 	O 	0.73263 0.36520 0.50595 -0.63900
O 	O 	0.80223 0.33288 0.45790 -0.34900
O 	O 	0.73334 0.25491 0.48927 -0.42000
O 	O 	0.67691 0.36788 0.37657 -0.35800
O 	O 	0.54542 0.25644 0.48193 -0.36000
C 	C 	0.50977 0.26153 0.45546 0.28900
C 	C 	0.74012 0.47037 0.46491 0.28300
O 	O 	0.67988 0.42633 0.46590 -0.38200
O 	O 	0.53345 0.29606 0.42789 -0.37500
O 	O 	0.74804 0.34711 0.39669 -0.33800
C 	C 	0.77882 0.27778 0.46859 0.29100
O 	O 	0.62681 0.31092 0.55088 -0.35800
O 	O 	0.72607 0.34088 0.57898 -0.38600
H 	H 	0.62604 0.25669 0.42945 0.18800
H 	H 	0.75367 0.40810 0.52192 0.19000
C 	C 	0.60222 0.31934 0.76368 0.22600
C 	C 	0.63863 0.31081 0.74064 -0.00600
C 	C 	0.67439 0.29118 0.75636 0.22200
C 	C 	0.67411 0.28044 0.79487 0.30500
C 	C 	0.63764 0.28878 0.81805 -0.21700
C 	C 	0.60164 0.30832 0.80228 0.30800
C 	C 	0.63929 0.32197 0.69992 -0.00500
F 	F 	0.70957 0.28264 0.73422 -0.36400
F 	F 	0.56527 0.31548 0.82403 -0.39000
C 	C 	0.69256 0.37768 0.69124 0.22300
C 	C 	0.70056 0.38214 0.65226 0.30800
C 	C 	0.65521 0.33092 0.62165 -0.21800
C 	C 	0.59912 0.27758 0.63014 0.30400
C 	C 	0.59131 0.27309 0.66916 0.22200
F 	F 	0.73814 0.42616 0.72074 -0.36000
F 	F 	0.55415 0.22833 0.60079 -0.39800
F 	F 	0.75345 0.43529 0.64429 -0.39400
F 	F 	0.53884 0.21967 0.67724 -0.36100
F 	F 	0.56734 0.33814 0.74865 -0.35800
F 	F 	0.71029 0.26307 0.80998 -0.40900
C 	C 	0.69452 0.26164 0.26941 0.22600
C 	C 	0.70715 0.30722 0.24624 -0.00600
C 	C 	0.72766 0.36793 0.26421 0.22100
C 	C 	0.73179 0.38170 0.30467 0.31000
C 	C 	0.71520 0.33477 0.32749 -0.21600
C 	C 	0.69867 0.27543 0.30995 0.30500
C 	C 	0.69169 0.28923 0.20298 -0.00500
F 	F 	0.74104 0.41269 0.24216 -0.36100
F 	F 	0.68387 0.23019 0.33188 -0.40000
C 	C 	0.62804 0.25452 0.18338 0.22000
C 	C 	0.61396 0.24636 0.14253 0.31000
C 	C 	0.66344 0.27299 0.12092 -0.21900
C 	C 	0.72673 0.30431 0.14021 0.30600
C 	C 	0.74086 0.31254 0.18116 0.22600
F 	F 	0.58009 0.23097 0.20415 -0.36300
F 	F 	0.77477 0.32910 0.11949 -0.39900
F 	F 	0.55232 0.21385 0.12396 -0.39500
F 	F 	0.80244 0.34502 0.19978 -0.35600
F 	F 	0.67600 0.20326 0.25241 -0.35900
F 	F 	0.75064 0.44023 0.32162 -0.38800
C 	C 	0.90778 0.86377 0.47481 0.01700
C 	C 	0.85076 0.81768 0.44827 -0.04100
C 	C 	0.81991 0.75283 0.44828 -0.02200
C 	C 	0.84517 0.73294 0.47565 -0.00800
C 	C 	0.90408 0.77964 0.50145 0.03800
C 	C 	0.93321 0.84463 0.50216 -0.06400
C 	C 	0.93536 0.76099 0.52433 -0.04500
C 	C 	0.91042 0.69684 0.52057 -0.02700
C 	C 	0.85137 0.64979 0.49609 0.01200
C 	C 	0.81607 0.66724 0.47564 0.02100
C 	C 	0.75211 0.61893 0.45711 -0.04700
C 	C 	0.72733 0.55483 0.45419 0.01600
C 	C 	0.76495 0.53778 0.47078 -0.06100
C 	C 	0.82643 0.58520 0.49243 -0.00700
H 	H 	0.83180 0.83201 0.42634 0.04900
H 	H 	0.77924 0.71865 0.42525 0.04700
H 	H 	0.97749 0.88033 0.52261 0.05400
H 	H 	0.98054 0.79656 0.54396 0.05300
H 	H 	0.93678 0.68365 0.53718 0.05200
H 	H 	0.72055 0.63046 0.44661 0.05300
H 	H 	0.67880 0.51831 0.43879 0.04100
H 	H 	0.85450 0.57185 0.50669 0.05000
C 	C 	0.92490 0.06283 0.46906 0.01600
C 	C 	0.95657 0.12109 0.49522 -0.04200
C 	C 	0.93436 0.15804 0.49405 -0.02300
C 	C 	0.88031 0.13754 0.46606 -0.00800
C 	C 	0.84447 0.07561 0.44271 0.03700
C 	C 	0.86813 0.03954 0.44336 -0.06200
C 	C 	0.78459 0.04970 0.41996 -0.04400
C 	C 	0.75944 0.08407 0.42079 -0.02600
C 	C 	0.79568 0.14667 0.44210 0.01300
C 	C 	0.85827 0.17542 0.46272 0.01800
C 	C 	0.89799 0.24164 0.47782 -0.04900
C 	C 	0.87274 0.27597 0.47763 0.00900
C 	C 	0.80831 0.24532 0.46159 -0.06400
C 	C 	0.77038 0.18125 0.44273 -0.00500
H 	H 	0.99863 0.13784 0.51650 0.05000
H 	H 	0.95748 0.20073 0.51612 0.04400
H 	H 	0.84262 0.99367 0.42387 0.05300
H 	H 	0.75659 0.00204 0.40244 0.05400
H 	H 	0.71204 0.06231 0.40423 0.05700
H 	H 	0.94861 0.26711 0.48837 0.05300
H 	H 	0.90295 0.32614 0.49085 0.04100
H 	H 	0.72113 0.15823 0.42903 0.06000
C 	C 	0.44072 0.22500 0.45542 -0.05700
C 	C 	0.39736 0.20290 0.42009 0.00700
C 	C 	0.33200 0.16891 0.41997 -0.04600
C 	C 	0.30914 0.15880 0.45566 0.01400
C 	C 	0.35245 0.17672 0.49083 0.02000
C 	C 	0.41805 0.21115 0.49066 -0.01600
C 	C 	0.32962 0.15845 0.52552 -0.03000
C 	C 	0.26436 0.12225 0.52568 -0.04100
C 	C 	0.22103 0.10710 0.49181 0.03600
C 	C 	0.24339 0.12801 0.45695 -0.00700
C 	C 	0.20037 0.12089 0.42528 -0.02400
C 	C 	0.13551 0.08725 0.42671 -0.04200
C 	C 	0.11292 0.06257 0.46016 0.01600
C 	C 	0.15574 0.07311 0.49280 -0.06300
H 	H 	0.41409 0.21058 0.39248 0.04900
H 	H 	0.29947 0.14772 0.39201 0.05200
H 	H 	0.45138 0.22697 0.51790 0.07600
H 	H 	0.36250 0.17121 0.55233 0.07000
H 	H 	0.24754 0.10713 0.55255 0.05700
H 	H 	0.21713 0.14404 0.40056 0.04400
H 	H 	0.10288 0.08129 0.40199 0.05000
H 	H 	0.13835 0.05583 0.51917 0.05500
C 	C 	0.73461 0.51542 0.98176 -0.05900
C 	C 	0.74421 0.54007 0.94704 0.01100
C 	C 	0.77811 0.60561 0.94852 -0.04600
C 	C 	0.80103 0.64751 0.98497 0.01900
C 	C 	0.79577 0.62296 0.02005 0.01100
C 	C 	0.76108 0.55698 0.01821 -0.01500
C 	C 	0.82703 0.66466 0.05648 -0.02900
C 	C 	0.86421 0.73040 0.05847 -0.04600
C 	C 	0.86744 0.75556 0.02432 0.03600
C 	C 	0.83278 0.71412 0.98749 -0.00700
C 	C 	0.82822 0.73997 0.95470 -0.02300
C 	C 	0.86435 0.80594 0.95746 -0.04200
C 	C 	0.90334 0.84690 0.99310 0.01800
C 	C 	0.90383 0.82177 0.02667 -0.06600
H 	H 	0.72562 0.50846 0.91878 0.06500
H 	H 	0.78905 0.62353 0.92153 0.05900
H 	H 	0.75570 0.53806 0.04509 0.05000
H 	H 	0.82380 0.64611 0.08334 0.05300
H 	H 	0.88968 0.76189 0.08679 0.05200
H 	H 	0.79480 0.70954 0.92776 0.04800
H 	H 	0.86186 0.82529 0.93185 0.05200
H 	H 	0.93246 0.85372 0.05453 0.05400
C 	C 	0.76823 0.18976 0.98817 -0.06300
C 	C 	0.82087 0.21328 0.96939 0.00700
C 	C 	0.85754 0.19084 0.97350 -0.04800
C 	C 	0.84060 0.14242 0.99533 0.01900
C 	C 	0.79259 0.12446 0.01804 0.01200
C 	C 	0.75564 0.14704 0.01364 -0.01100
C 	C 	0.78273 0.08504 0.04528 -0.02700
C 	C 	0.81913 0.06235 0.04964 -0.04400
C 	C 	0.86293 0.07502 0.02497 0.03600
C 	C 	0.87215 0.11310 0.99639 -0.00700
C 	C 	0.90829 0.11668 0.96776 -0.02300
C 	C 	0.93860 0.08732 0.96958 -0.04200
C 	C 	0.93218 0.05250 0.99916 0.01900
C 	C 	0.89500 0.04711 0.02712 -0.06500
H 	H 	0.83364 0.24920 0.95160 0.04700
H 	H 	0.90046 0.21332 0.96118 0.05400
H 	H 	0.71727 0.13132 0.02992 0.06600
H 	H 	0.74725 0.07251 0.06350 0.05700
H 	H 	0.81161 0.03292 0.07137 0.05400
H 	H 	0.90974 0.13840 0.94269 0.04500
H 	H 	0.96524 0.08966 0.94704 0.04900
H 	H 	0.88929 0.01937 0.04967 0.05400
C 	C 	0.43836 0.17409 0.98303 -0.05700
C 	C 	0.40434 0.18603 0.95664 0.00400
C 	C 	0.34131 0.16208 0.95854 -0.04400
C 	C 	0.30995 0.12292 0.98592 0.01600
C 	C 	0.34525 0.11291 0.01351 0.01800
C 	C 	0.40839 0.13676 0.01104 -0.01700
C 	C 	0.31840 0.08222 0.04451 -0.02900
C 	C 	0.25753 0.06242 0.04896 -0.04200
C 	C 	0.22060 0.06916 0.02110 0.03500
C 	C 	0.24525 0.09668 0.98820 -0.00500
C 	C 	0.20377 0.09411 0.95761 -0.02400
C 	C 	0.14148 0.07046 0.96159 -0.04200
C 	C 	0.11843 0.04631 0.99509 0.01800
C 	C 	0.15811 0.04603 0.02487 -0.06500
H 	H 	0.42759 0.21603 0.93550 0.05300
H 	H 	0.31896 0.17764 0.94049 0.05400
H 	H 	0.43521 0.12900 0.03221 0.07500
H 	H 	0.34551 0.07516 0.06591 0.06500
H 	H 	0.23843 0.04045 0.07379 0.05500
H 	H 	0.21772 0.10620 0.92979 0.04600
H 	H 	0.11013 0.06832 0.93777 0.05000
H 	H 	0.13956 0.02578 0.05031 0.05500
