data_crystal

_cell_length_a 22.77788
_cell_length_b 22.40902
_cell_length_c 34.90305
_cell_angle_alpha 95.47750
_cell_angle_beta  95.47684
_cell_angle_gamma 125.99668

_symmetry_space_group_name_	'P 1'
_symmetry_space_group_name_H-M	'P 1'

loop_
_symmetry_equiv_pos_as_xyz
  x,y,z

loop_
_atom_site_label
_atom_site_type_symbol
_atom_site_fract_x
_atom_site_fract_y
_atom_site_fract_z
_atom_site_charge
C 	C 	0.00378 0.06325 0.99866 0.10300
N 	N 	0.96328 0.98996 0.00214 -0.13800
C 	C 	0.99586 0.95532 0.00548 0.11900
N 	N 	0.06936 0.99434 0.00535 -0.14500
C 	C 	0.11009 0.06780 0.00188 0.11500
N 	N 	0.07709 0.10199 0.99849 -0.14200
C 	C 	0.89232 0.97728 0.46653 0.10500
N 	N 	0.85707 0.90371 0.46905 -0.13800
C 	C 	0.89455 0.87385 0.46896 0.11300
N 	N 	0.96674 0.91717 0.46581 -0.13400
C 	C 	0.00227 0.99050 0.46341 0.09800
N 	N 	0.96503 0.02056 0.46385 -0.13100
Cu	Cu	0.66037 0.24526 0.00554 0.92900
Cu	Cu	0.70177 0.22939 0.91946 0.87000
Cu	Cu	0.70263 0.35827 0.95118 0.89500
Cu	Cu	0.67251 0.39105 0.02975 0.89300
C 	C 	0.69127 0.30904 0.08718 0.30000
O 	O 	0.55588 0.20701 0.00847 -0.36300
C 	C 	0.66303 0.29452 0.86635 0.29800
O 	O 	0.72404 0.36088 0.00601 -0.64100
O 	O 	0.64473 0.24753 0.94911 -0.64300
O 	O 	0.69954 0.18592 0.00280 -0.37400
O 	O 	0.77540 0.25248 0.96142 -0.44200
O 	O 	0.66360 0.34456 0.07718 -0.38700
O 	O 	0.76405 0.46647 0.95710 -0.38000
C 	C 	0.76756 0.51211 0.98580 0.28000
C 	C 	0.52750 0.23858 0.99376 0.27900
O 	O 	0.57115 0.30775 0.98771 -0.39000
O 	O 	0.71764 0.48617 0.00870 -0.39200
O 	O 	0.69112 0.26229 0.06093 -0.36600
C 	C 	0.75815 0.20858 0.98731 0.28400
O 	O 	0.69825 0.35532 0.89411 -0.39100
O 	O 	0.65196 0.23226 0.87345 -0.42300
H 	H 	0.77739 0.39133 0.01734 0.16200
H 	H 	0.59245 0.21898 0.93606 0.17000
Cu	Cu	0.70141 0.31437 0.44953 0.92700
Cu	Cu	0.71392 0.28154 0.53807 0.86900
Cu	Cu	0.58213 0.26476 0.49895 0.89700
Cu	Cu	0.54530 0.27280 0.41438 0.89400
C 	C 	0.65579 0.29068 0.36716 0.29900
O 	O 	0.72940 0.41624 0.44252 -0.37000
C 	C 	0.63628 0.31300 0.58518 0.29700
O 	O 	0.58626 0.23797 0.44619 -0.63900
O 	O 	0.69191 0.33199 0.50425 -0.64400
O 	O 	0.76789 0.28445 0.45803 -0.37500
O 	O 	0.70234 0.20755 0.49957 -0.44000
O 	O 	0.58674 0.26532 0.36767 -0.38700
O 	O 	0.47605 0.19312 0.49075 -0.38500
C 	C 	0.42891 0.18864 0.46321 0.28800
C 	C 	0.68473 0.43451 0.44636 0.28000
O 	O 	0.61698 0.38410 0.45101 -0.39200
O 	O 	0.45109 0.22806 0.43482 -0.39300
O 	O 	0.69316 0.28345 0.39521 -0.36900
C 	C 	0.74824 0.22695 0.47500 0.28300
O 	O 	0.57962 0.27711 0.55541 -0.39000
O 	O 	0.70100 0.32968 0.58092 -0.42300
H 	H 	0.56382 0.18408 0.43818 0.16600
H 	H 	0.71465 0.38493 0.51557 0.17100
C 	C 	0.62343 0.32323 0.62510 -0.11400
C 	C 	0.67619 0.39023 0.65257 0.12500
C 	C 	0.67553 0.39000 0.69275 -0.09900
C 	C 	0.62167 0.32469 0.70556 -0.00000
C 	C 	0.56254 0.26160 0.67781 0.05700
C 	C 	0.56418 0.26133 0.63771 -0.02600
N 	N 	0.72677 0.45485 0.64052 -0.20300
H 	H 	0.71875 0.43964 0.71409 0.05500
C 	C 	0.63415 0.31873 0.74697 0.00200
N 	N 	0.50522 0.20061 0.68952 -0.19200
H 	H 	0.52156 0.21119 0.61646 0.04200
C 	C 	0.60593 0.34042 0.77447 -0.09900
C 	C 	0.61187 0.33005 0.81335 0.12700
C 	C 	0.65040 0.30120 0.82525 -0.11400
C 	C 	0.67950 0.28060 0.79780 -0.02200
C 	C 	0.67179 0.28899 0.75877 0.05600
H 	H 	0.57692 0.36292 0.76525 0.05500
N 	N 	0.57825 0.34522 0.83853 -0.20300
H 	H 	0.70925 0.25885 0.80700 0.03100
N 	N 	0.70093 0.26875 0.73286 -0.19200
H 	H 	0.55229 0.36901 0.82988 0.08300
H 	H 	0.57459 0.33056 0.86617 0.08500
H 	H 	0.72794 0.24615 0.74182 0.07600
H 	H 	0.69781 0.27573 0.70379 0.08400
H 	H 	0.46303 0.15320 0.66888 0.08000
H 	H 	0.50083 0.20045 0.71901 0.08600
H 	H 	0.72391 0.45845 0.61087 0.08700
H 	H 	0.76749 0.50337 0.66099 0.08100
C 	C 	0.70224 0.30480 0.12873 -0.10600
C 	C 	0.76439 0.36630 0.15583 0.12100
C 	C 	0.76621 0.36617 0.19616 -0.09600
C 	C 	0.70717 0.30578 0.20970 0.00000
C 	C 	0.64657 0.24263 0.18244 0.06000
C 	C 	0.64550 0.24238 0.14217 -0.02100
N 	N 	0.82248 0.42530 0.14337 -0.20400
H 	H 	0.81307 0.41385 0.21710 0.05500
C 	C 	0.70677 0.31188 0.25229 0.00100
N 	N 	0.58866 0.18297 0.19468 -0.19200
H 	H 	0.59849 0.19487 0.12122 0.04600
C 	C 	0.68527 0.35358 0.26958 -0.09600
C 	C 	0.67526 0.35308 0.30862 0.12400
C 	C 	0.68254 0.30630 0.32984 -0.10700
C 	C 	0.70928 0.26893 0.31350 -0.02300
C 	C 	0.72304 0.27263 0.27509 0.05900
H 	H 	0.67579 0.38609 0.25250 0.05600
N 	N 	0.66039 0.39875 0.32580 -0.20300
H 	H 	0.71738 0.23516 0.33025 0.04900
N 	N 	0.75067 0.23759 0.26014 -0.19200
H 	H 	0.65206 0.43075 0.30948 0.08200
H 	H 	0.66075 0.40589 0.35584 0.08300
H 	H 	0.76044 0.20687 0.27677 0.08300
H 	H 	0.76455 0.24211 0.23236 0.08800
H 	H 	0.54445 0.13660 0.17428 0.08400
H 	H 	0.58643 0.18201 0.22435 0.08900
H 	H 	0.82452 0.42522 0.11361 0.07700
H 	H 	0.86741 0.47135 0.16361 0.08200
C 	C 	0.85834 0.79568 0.47398 -0.00700
C 	C 	0.89545 0.77907 0.50013 -0.03000
C 	C 	0.86785 0.70465 0.50057 -0.03900
C 	C 	0.80270 0.64584 0.47486 -0.00300
C 	C 	0.76329 0.66198 0.44966 0.03200
C 	C 	0.79117 0.73700 0.44951 -0.05500
C 	C 	0.69764 0.60300 0.42426 -0.06800
C 	C 	0.67196 0.52874 0.42342 0.01100
C 	C 	0.71187 0.51267 0.44770 -0.08300
C 	C 	0.77699 0.57119 0.47355 -0.01000
H 	H 	0.94681 0.82408 0.51948 0.04000
H 	H 	0.89790 0.69289 0.52042 0.03600
H 	H 	0.76235 0.74975 0.42938 0.04800
H 	H 	0.66674 0.61459 0.40495 0.04400
H 	H 	0.62147 0.48367 0.40349 0.02000
H 	H 	0.80729 0.55860 0.49265 0.03200
C 	C 	0.85284 0.01113 0.46859 0.00400
C 	C 	0.79641 0.98479 0.49063 -0.04300
C 	C 	0.76277 0.02022 0.49502 -0.02900
C 	C 	0.78533 0.08270 0.47761 -0.00800
C 	C 	0.84086 0.10853 0.45472 0.03500
C 	C 	0.87405 0.07232 0.45008 -0.06000
C 	C 	0.86342 0.17103 0.43732 -0.06900
C 	C 	0.83236 0.20877 0.44334 0.01000
C 	C 	0.77815 0.18441 0.46680 -0.08400
C 	C 	0.75394 0.12046 0.48339 -0.01400
H 	H 	0.77968 0.93787 0.50511 0.04500
H 	H 	0.71990 0.99968 0.51247 0.03000
H 	H 	0.91667 0.09207 0.43247 0.05100
H 	H 	0.90562 0.19099 0.41946 0.04600
H 	H 	0.85113 0.25745 0.43008 0.03900
H 	H 	0.71147 0.10066 0.50109 0.03400
C 	C 	0.08174 0.03774 0.46163 -0.00400
C 	C 	0.11194 0.09880 0.44203 -0.03200
C 	C 	0.18632 0.14094 0.43859 -0.04000
C 	C 	0.23124 0.12222 0.45448 -0.00100
C 	C 	0.20130 0.06127 0.47447 0.02800
C 	C 	0.12698 0.01986 0.47830 -0.05200
C 	C 	0.24593 0.04212 0.49012 -0.06200
C 	C 	0.31979 0.08310 0.48599 0.00800
C 	C 	0.35016 0.14410 0.46637 -0.07700
C 	C 	0.30563 0.16350 0.45058 -0.01400
H 	H 	0.07756 0.11290 0.42889 0.04000
H 	H 	0.20875 0.18766 0.42324 0.03700
H 	H 	0.10427 0.97363 0.49407 0.04500
H 	H 	0.22338 0.99528 0.50539 0.04000
H 	H 	0.35338 0.06724 0.49796 0.03400
H 	H 	0.32897 0.21096 0.43571 0.04000
C 	C 	0.95118 0.87534 0.00866 -0.01000
C 	C 	0.89330 0.84615 0.02978 -0.02700
C 	C 	0.84683 0.76933 0.03029 -0.04300
C 	C 	0.85762 0.72066 0.00965 0.00300
C 	C 	0.91686 0.74987 0.98914 0.02400
C 	C 	0.96360 0.82722 0.98886 -0.04500
C 	C 	0.92780 0.70121 0.96865 -0.06300
C 	C 	0.87964 0.62397 0.96794 0.00600
C 	C 	0.81958 0.59424 0.98757 -0.07600
C 	C 	0.80931 0.64305 0.00882 -0.01500
H 	H 	0.88398 0.88300 0.04563 0.04000
H 	H 	0.80202 0.74763 0.04643 0.03800
H 	H 	0.00818 0.84957 0.97247 0.04000
H 	H 	0.97342 0.72307 0.95309 0.04400
H 	H 	0.88908 0.58725 0.95210 0.03500
H 	H 	0.76340 0.62070 0.02420 0.04100
C 	C 	0.96798 0.10021 0.99417 -0.00500
C 	C 	0.99000 0.15227 0.96905 -0.02300
C 	C 	0.95500 0.18606 0.96389 -0.04200
C 	C 	0.89739 0.16806 0.98371 -0.00500
C 	C 	0.87569 0.11658 0.00948 0.03400
C 	C 	0.91121 0.08296 0.01465 -0.05400
C 	C 	0.81819 0.09877 0.02936 -0.06900
C 	C 	0.78114 0.13026 0.02294 0.01300
C 	C 	0.80113 0.17997 0.99651 -0.08800
C 	C 	0.86040 0.19987 0.97756 -0.01500
H 	H 	0.03356 0.16574 0.95304 0.03500
H 	H 	0.97223 0.22566 0.94416 0.03600
H 	H 	0.89482 0.04355 0.03449 0.05000
H 	H 	0.80159 0.05993 0.04948 0.04600
H 	H 	0.73635 0.11527 0.03821 0.04000
H 	H 	0.87688 0.23901 0.95758 0.03300
C 	C 	0.44719 0.19876 0.98748 -0.08300
C 	C 	0.39923 0.12229 0.97017 0.01100
C 	C 	0.32313 0.08160 0.96863 -0.06800
C 	C 	0.29427 0.11676 0.98486 0.03000
C 	C 	0.34225 0.19411 0.00167 -0.00100
C 	C 	0.41844 0.23496 0.00241 -0.00900
C 	C 	0.31364 0.22909 0.01840 -0.04000
C 	C 	0.23813 0.18762 0.01880 -0.03000
C 	C 	0.19006 0.11070 0.00217 -0.00600
C 	C 	0.21829 0.07544 0.98506 -0.05600
H 	H 	0.42108 0.09413 0.95838 0.02400
H 	H 	0.28685 0.02247 0.95542 0.04300
H 	H 	0.45555 0.29398 0.01595 0.03200
H 	H 	0.34995 0.28831 0.03143 0.03600
H 	H 	0.21700 0.21523 0.03229 0.04200
H 	H 	0.18126 0.01628 0.97180 0.04800
