data_crystal

_cell_length_a 18.45302
_cell_length_b 18.85566
_cell_length_c 34.59283
_cell_angle_alpha 95.40245
_cell_angle_beta  95.40309
_cell_angle_gamma 126.43787

_symmetry_space_group_name_	'P 1'
_symmetry_space_group_name_H-M	'P 1'

loop_
_symmetry_equiv_pos_as_xyz
  x,y,z

loop_
_atom_site_label
_atom_site_type_symbol
_atom_site_fract_x
_atom_site_fract_y
_atom_site_fract_z
_atom_site_charge
C 	C 	0.90454 0.99256 0.96836 0.12800
N 	N 	0.99495 0.04643 0.96654 -0.14000
C 	C 	0.04216 0.01245 0.96544 0.10800
N 	N 	0.99935 0.92458 0.96671 -0.13400
C 	C 	0.90885 0.86998 0.96831 0.12000
N 	N 	0.86093 0.90379 0.96900 -0.14200
C 	C 	0.94145 0.02748 0.48669 0.11900
N 	N 	0.89589 0.93748 0.48226 -0.14200
C 	C 	0.94284 0.90330 0.48479 0.12700
N 	N 	0.03544 0.95854 0.48921 -0.14100
C 	C 	0.08160 0.04851 0.49389 0.11300
N 	N 	0.03489 0.08344 0.49417 -0.14500
Cu	Cu	0.76062 0.34104 0.96144 0.92600
Cu	Cu	0.74736 0.28133 0.04797 0.86800
Cu	Cu	0.61091 0.29681 0.00837 0.89400
Cu	Cu	0.58882 0.32869 0.92645 0.89400
C 	C 	0.69649 0.29967 0.87723 0.28600
O 	O 	0.81352 0.47089 0.95781 -0.36100
C 	C 	0.66613 0.33663 0.09609 0.28600
O 	O 	0.61715 0.26566 0.95509 -0.63900
O 	O 	0.74580 0.35988 0.01644 -0.64500
O 	O 	0.82126 0.28230 0.96990 -0.37300
O 	O 	0.71931 0.19028 0.00673 -0.44800
O 	O 	0.65654 0.33814 0.88307 -0.39100
O 	O 	0.47908 0.22674 0.99766 -0.38700
C 	C 	0.42967 0.22884 0.96823 0.30300
C 	C 	0.76928 0.50353 0.96648 0.28800
O 	O 	0.68353 0.44916 0.97053 -0.39400
O 	O 	0.46661 0.27742 0.94077 -0.39800
O 	O 	0.75202 0.30472 0.90641 -0.36800
C 	C 	0.77882 0.20734 0.98401 0.29900
O 	O 	0.60346 0.31266 0.06487 -0.38800
O 	O 	0.74051 0.34365 0.09232 -0.42300
H 	H 	0.57913 0.20032 0.94479 0.16300
H 	H 	0.78262 0.42325 0.03005 0.17300
Cu	Cu	0.61664 0.20551 0.50914 0.92600
Cu	Cu	0.64288 0.19098 0.41654 0.86900
Cu	Cu	0.66388 0.34790 0.45946 0.89700
Cu	Cu	0.65661 0.38755 0.54413 0.89400
C 	C 	0.67627 0.27536 0.59293 0.28900
O 	O 	0.49380 0.17138 0.51969 -0.36600
C 	C 	0.60048 0.28494 0.37217 0.28500
O 	O 	0.70454 0.34479 0.51191 -0.64000
O 	O 	0.58609 0.21468 0.45426 -0.64200
O 	O 	0.65831 0.13030 0.49786 -0.37400
O 	O 	0.73881 0.21011 0.45249 -0.44700
O 	O 	0.64514 0.32209 0.58810 -0.39000
O 	O 	0.74660 0.47689 0.46771 -0.38900
C 	C 	0.74759 0.53123 0.49514 0.30200
C 	C 	0.46580 0.21874 0.51035 0.29000
O 	O 	0.52497 0.30098 0.50473 -0.39900
O 	O 	0.71924 0.50740 0.52867 -0.39700
O 	O 	0.66505 0.21838 0.56312 -0.36300
C 	C 	0.72136 0.15339 0.47608 0.29300
O 	O 	0.63782 0.35108 0.40304 -0.38700
O 	O 	0.57743 0.20562 0.37639 -0.42500
H 	H 	0.77145 0.37669 0.51918 0.16700
H 	H 	0.52030 0.18466 0.44440 0.17100
C 	C 	0.66605 0.18009 0.68491 -0.06300
C 	C 	0.71693 0.25854 0.71395 0.01900
C 	C 	0.76565 0.34257 0.70248 -0.06200
C 	C 	0.75787 0.34805 0.66248 0.01200
C 	C 	0.70147 0.26959 0.63355 -0.08500
C 	C 	0.65848 0.18558 0.64484 0.01500
C 	C 	0.70894 0.25291 0.75582 0.01900
H 	H 	0.80574 0.40358 0.72463 0.04500
H 	H 	0.79241 0.41326 0.65407 0.02200
H 	H 	0.61523 0.12449 0.62278 0.03600
H 	H 	0.62914 0.11488 0.69344 0.04400
C 	C 	0.62413 0.21713 0.76717 -0.06300
C 	C 	0.61918 0.22725 0.80716 0.01000
C 	C 	0.69893 0.27315 0.83621 -0.08700
C 	C 	0.78271 0.30326 0.82500 0.01400
C 	C 	0.78771 0.29336 0.78493 -0.06300
H 	H 	0.56280 0.18524 0.74496 0.04300
H 	H 	0.55392 0.20247 0.81549 0.02000
H 	H 	0.84469 0.33819 0.84714 0.03900
H 	H 	0.85334 0.32029 0.77649 0.04600
C 	C 	0.54320 0.30937 0.18146 -0.06400
C 	C 	0.61567 0.34909 0.21382 0.01700
C 	C 	0.70594 0.39525 0.20725 -0.06400
C 	C 	0.72302 0.39653 0.16871 0.00900
C 	C 	0.64988 0.35056 0.13625 -0.08900
C 	C 	0.56013 0.30989 0.14285 0.00800
C 	C 	0.59641 0.33326 0.25398 0.01700
H 	H 	0.76255 0.42691 0.23197 0.04200
H 	H 	0.79289 0.43061 0.16415 0.03000
H 	H 	0.50306 0.27550 0.11817 0.03500
H 	H 	0.47342 0.27513 0.18620 0.04100
C 	C 	0.64251 0.40564 0.28600 -0.06400
C 	C 	0.63890 0.39003 0.32478 0.00800
C 	C 	0.58879 0.30171 0.33189 -0.09000
C 	C 	0.53606 0.22947 0.29971 0.00800
C 	C 	0.54044 0.24517 0.26101 -0.06500
H 	H 	0.68418 0.47397 0.28089 0.04300
H 	H 	0.67826 0.44661 0.34920 0.03600
H 	H 	0.49450 0.16101 0.30463 0.02800
H 	H 	0.50360 0.18873 0.23653 0.04000
C 	C 	0.82840 0.74248 0.45517 -0.07500
C 	C 	0.89445 0.80856 0.48746 -0.03400
C 	C 	0.91095 0.78330 0.52256 0.08000
C 	C 	0.86475 0.69220 0.52370 -0.03000
C 	C 	0.79712 0.62596 0.49180 -0.10500
C 	C 	0.77709 0.65123 0.45745 0.11900
N 	N 	0.70689 0.58884 0.42732 -0.20100
H 	H 	0.81491 0.76222 0.42860 0.05200
H 	H 	0.87978 0.67270 0.55001 0.04200
N 	N 	0.96860 0.84582 0.55558 -0.19500
H 	H 	0.69595 0.60785 0.40128 0.08300
H 	H 	0.65963 0.52212 0.43014 0.09300
H 	H 	0.99514 0.91298 0.55757 0.09400
H 	H 	0.98359 0.82661 0.58065 0.08400
C 	C 	0.80662 0.01873 0.50045 -0.08400
C 	C 	0.88873 0.06373 0.48564 -0.03000
C 	C 	0.91507 0.13809 0.46749 0.07400
C 	C 	0.86403 0.17100 0.46845 -0.03300
C 	C 	0.77795 0.12131 0.48000 -0.11200
C 	C 	0.74664 0.04084 0.49382 0.11700
N 	N 	0.65759 0.98091 0.49727 -0.19700
H 	H 	0.78563 0.96145 0.51417 0.06100
H 	H 	0.88850 0.23230 0.45757 0.04300
N 	N 	0.98449 0.17387 0.44673 -0.18700
H 	H 	0.63807 0.92805 0.51213 0.08500
H 	H 	0.60572 0.97871 0.48079 0.09000
H 	H 	0.00638 0.13739 0.43584 0.08200
H 	H 	0.00973 0.23433 0.43726 0.07400
C 	C 	0.23374 0.12822 0.53630 -0.07700
C 	C 	0.18206 0.10755 0.49893 -0.03200
C 	C 	0.22524 0.12838 0.46562 0.07500
C 	C 	0.31809 0.16426 0.47000 -0.03100
C 	C 	0.36852 0.18050 0.50703 -0.10800
C 	C 	0.32687 0.16498 0.54080 0.11800
N 	N 	0.37574 0.18562 0.57753 -0.20400
H 	H 	0.20057 0.11277 0.56182 0.05000
H 	H 	0.35104 0.17903 0.44442 0.03400
N 	N 	0.17785 0.11354 0.42938 -0.19500
H 	H 	0.34382 0.17236 0.60213 0.08300
H 	H 	0.44591 0.21654 0.58225 0.09600
H 	H 	0.10980 0.09022 0.42541 0.08400
H 	H 	0.20969 0.12720 0.40476 0.07800
C 	C 	0.83207 0.65442 0.00276 -0.03600
C 	C 	0.81162 0.59923 0.96686 -0.09900
C 	C 	0.81653 0.63157 0.93106 0.11600
C 	C 	0.84084 0.71801 0.93199 -0.07500
C 	C 	0.86270 0.77367 0.96791 -0.02600
C 	C 	0.85722 0.74125 0.00366 0.07400
N 	N 	0.87549 0.79275 0.03887 -0.19400
H 	H 	0.82640 0.62901 0.03006 0.03700
H 	H 	0.84623 0.74337 0.90469 0.05200
N 	N 	0.79848 0.58041 0.89577 -0.20500
H 	H 	0.87321 0.76911 0.06522 0.08100
H 	H 	0.89017 0.85573 0.04041 0.08700
H 	H 	0.78547 0.51821 0.89407 0.10100
H 	H 	0.79972 0.60387 0.86946 0.08500
C 	C 	0.82158 0.04600 0.93866 -0.07500
C 	C 	0.85631 0.03242 0.97268 -0.03200
C 	C 	0.86201 0.07363 0.01038 0.07100
C 	C 	0.83863 0.13232 0.01325 -0.03400
C 	C 	0.80698 0.14854 0.97923 -0.10700
C 	C 	0.79551 0.10272 0.94153 0.12100
N 	N 	0.75853 0.11162 0.90815 -0.20300
H 	H 	0.81689 0.01410 0.90978 0.05200
H 	H 	0.84481 0.16529 0.04215 0.02000
N 	N 	0.89026 0.05750 0.04392 -0.19400
H 	H 	0.75296 0.07967 0.88042 0.08600
H 	H 	0.73228 0.14767 0.90935 0.09800
H 	H 	0.90332 0.01061 0.04288 0.08400
H 	H 	0.89694 0.09022 0.07166 0.07600
C 	C 	0.20104 0.13942 0.99737 -0.07300
C 	C 	0.14050 0.07161 0.96454 -0.02900
C 	C 	0.17493 0.05946 0.93174 0.07100
C 	C 	0.26998 0.11212 0.93351 -0.02800
C 	C 	0.33067 0.17841 0.96677 -0.10900
C 	C 	0.29593 0.19443 0.99848 0.12600
N 	N 	0.35288 0.26367 0.02948 -0.20400
H 	H 	0.17416 0.14960 0.02209 0.04700
H 	H 	0.29684 0.10139 0.90891 0.03400
N 	N 	0.11730 0.99875 0.89829 -0.19100
H 	H 	0.32688 0.27248 0.05351 0.08200
H 	H 	0.42244 0.31164 0.02930 0.09300
H 	H 	0.04642 0.96361 0.89474 0.09000
H 	H 	0.14349 0.98839 0.87473 0.08200
