data_crystal

_cell_length_a 18.78340
_cell_length_b 18.88639
_cell_length_c 26.49768
_cell_angle_alpha 95.41062
_cell_angle_beta  95.41104
_cell_angle_gamma 126.43128

_symmetry_space_group_name_	'P 1'
_symmetry_space_group_name_H-M	'P 1'

loop_
_symmetry_equiv_pos_as_xyz
  x,y,z

loop_
_atom_site_label
_atom_site_type_symbol
_atom_site_fract_x
_atom_site_fract_y
_atom_site_fract_z
_atom_site_charge
C 	C 	0.92513 0.01898 0.99019 0.04500
C 	C 	0.01880 0.06710 0.99307 -0.09100
C 	C 	0.05569 0.02050 0.98843 0.04100
C 	C 	0.99945 0.92707 0.98228 -0.08900
C 	C 	0.90720 0.87991 0.98127 0.04100
C 	C 	0.86992 0.92549 0.98437 -0.09500
H 	H 	0.06214 0.13955 0.99814 0.04700
H 	H 	0.02781 0.89117 0.97917 0.04800
H 	H 	0.79798 0.88831 0.98274 0.05200
C 	C 	0.93933 0.02854 0.46740 0.04600
C 	C 	0.88814 0.93513 0.46486 -0.09400
C 	C 	0.93202 0.89542 0.46960 0.04600
C 	C 	0.02584 0.94853 0.47534 -0.09900
C 	C 	0.07608 0.04035 0.47564 0.04900
C 	C 	0.03329 0.08065 0.47291 -0.09200
H 	H 	0.81534 0.89405 0.45956 0.04900
H 	H 	0.05952 0.91781 0.47797 0.05400
H 	H 	0.07283 0.15223 0.47393 0.05300
Cu	Cu	0.60147 0.19887 0.00946 0.92300
Cu	Cu	0.64239 0.15858 0.89502 0.87600
Cu	Cu	0.63451 0.32360 0.93362 0.90800
Cu	Cu	0.58869 0.35848 0.03374 0.89600
C 	C 	0.63240 0.28391 0.11464 0.28400
O 	O 	0.46692 0.13515 0.00933 -0.36000
C 	C 	0.64764 0.27697 0.83250 0.28700
O 	O 	0.66272 0.33447 0.00658 -0.63800
O 	O 	0.58161 0.19511 0.93348 -0.63100
O 	O 	0.68207 0.16089 0.01572 -0.36900
O 	O 	0.62603 0.07521 0.93544 -0.42400
O 	O 	0.58599 0.31202 0.09855 -0.38700
O 	O 	0.69434 0.44953 0.93658 -0.38800
C 	C 	0.68843 0.49960 0.97146 0.29500
C 	C 	0.42653 0.16834 0.99147 0.28400
O 	O 	0.47426 0.24731 0.97852 -0.39800
O 	O 	0.62701 0.46376 0.00097 -0.39300
O 	O 	0.63374 0.22556 0.08372 -0.36200
C 	C 	0.67925 0.10492 0.98035 0.28800
O 	O 	0.61228 0.30691 0.85914 -0.38200
O 	O 	0.69498 0.25560 0.85657 -0.42600
H 	H 	0.72772 0.37871 0.02157 0.16200
H 	H 	0.51676 0.15581 0.91786 0.15900
Cu	Cu	0.76881 0.35920 0.44099 0.92400
Cu	Cu	0.81709 0.33002 0.56029 0.87500
Cu	Cu	0.63141 0.29084 0.51217 0.90000
Cu	Cu	0.59877 0.35705 0.41756 0.89600
C 	C 	0.68815 0.33531 0.33519 0.28200
O 	O 	0.82596 0.49232 0.44430 -0.36100
C 	C 	0.69513 0.31615 0.62301 0.28300
O 	O 	0.63096 0.28754 0.44018 -0.64500
O 	O 	0.76559 0.37067 0.51639 -0.63800
O 	O 	0.81247 0.28389 0.43399 -0.36600
O 	O 	0.89195 0.33350 0.51615 -0.42400
O 	O 	0.64745 0.36851 0.35221 -0.38800
O 	O 	0.50207 0.21750 0.50182 -0.38600
C 	C 	0.45427 0.23616 0.47479 0.29500
C 	C 	0.78613 0.52607 0.46123 0.28500
O 	O 	0.70667 0.47323 0.47355 -0.38600
O 	O 	0.49307 0.30789 0.45306 -0.39800
O 	O 	0.74661 0.33401 0.36662 -0.35800
C 	C 	0.85691 0.27687 0.47223 0.28700
O 	O 	0.62903 0.26565 0.58274 -0.39500
O 	O 	0.77983 0.36213 0.61759 -0.41100
H 	H 	0.59325 0.22562 0.42006 0.16100
H 	H 	0.79110 0.43259 0.53229 0.16800
C 	C 	0.65091 0.28551 0.77785 -0.07600
C 	C 	0.69528 0.37050 0.76451 -0.00900
C 	C 	0.70738 0.38108 0.71356 -0.00100
C 	C 	0.67423 0.30577 0.67537 -0.07200
C 	C 	0.62587 0.22027 0.68825 -0.01600
C 	C 	0.61449 0.20982 0.73923 0.00000
H 	H 	0.72222 0.42866 0.79402 0.03800
H 	H 	0.59929 0.16210 0.65883 0.03500
C 	C 	0.56512 0.12115 0.75157 0.04600
C 	C 	0.75290 0.46914 0.70069 0.06900
N 	N 	0.52558 0.05014 0.76147 -0.13800
N 	N 	0.78936 0.53970 0.69038 -0.12400
C 	C 	0.66105 0.29803 0.17082 -0.06700
C 	C 	0.62549 0.22375 0.19528 -0.01100
C 	C 	0.63816 0.23547 0.24934 -0.00300
C 	C 	0.68668 0.32220 0.27926 -0.06500
C 	C 	0.72758 0.39668 0.25490 -0.01200
C 	C 	0.71527 0.38512 0.20098 -0.00100
H 	H 	0.58492 0.15670 0.17226 0.04300
H 	H 	0.76744 0.46360 0.27792 0.03600
C 	C 	0.75840 0.46299 0.17683 0.05900
C 	C 	0.59922 0.15806 0.27371 0.06700
N 	N 	0.79289 0.52531 0.15747 -0.13200
N 	N 	0.56807 0.09608 0.29326 -0.12400
C 	C 	0.86371 0.74465 0.41935 -0.08400
C 	C 	0.88038 0.79749 0.46636 -0.01600
C 	C 	0.86649 0.76094 0.51179 0.03300
C 	C 	0.84121 0.67396 0.50997 -0.02100
C 	C 	0.82724 0.62200 0.46320 -0.10600
C 	C 	0.83797 0.65751 0.41736 0.09200
C 	C 	0.81930 0.60208 0.36607 -0.20700
H 	H 	0.87437 0.77283 0.38452 0.04800
H 	H 	0.83117 0.64616 0.54492 0.03700
C 	C 	0.88220 0.81578 0.56264 -0.17600
H 	H 	0.83499 0.64105 0.33448 0.06800
H 	H 	0.74697 0.54366 0.35625 0.07400
H 	H 	0.86134 0.57870 0.36758 0.08500
H 	H 	0.84758 0.84687 0.55822 0.06100
H 	H 	0.95555 0.86930 0.57618 0.06300
H 	H 	0.85561 0.77390 0.59270 0.06200
C 	C 	0.89844 0.11116 0.42030 -0.08900
C 	C 	0.89548 0.07287 0.46377 -0.01100
C 	C 	0.86920 0.09383 0.50750 0.02500
C 	C 	0.85289 0.15763 0.50848 -0.01600
C 	C 	0.86390 0.20208 0.46684 -0.12000
C 	C 	0.88557 0.17756 0.42189 0.10300
C 	C 	0.89734 0.22300 0.37612 -0.20700
H 	H 	0.91684 0.09360 0.38637 0.05000
H 	H 	0.83371 0.17436 0.54231 0.00100
C 	C 	0.86190 0.05105 0.55397 -0.16500
H 	H 	0.92619 0.20498 0.34746 0.06900
H 	H 	0.94415 0.29696 0.38867 0.08200
H 	H 	0.83101 0.20209 0.35653 0.09000
H 	H 	0.92861 0.06961 0.57068 0.06100
H 	H 	0.81258 0.97705 0.54264 0.05400
H 	H 	0.83873 0.07298 0.58454 0.05300
C 	C 	0.23450 0.13557 0.52206 -0.08600
C 	C 	0.17304 0.09320 0.47517 -0.01300
C 	C 	0.20399 0.09758 0.42821 0.03000
C 	C 	0.29622 0.14297 0.42898 -0.01700
C 	C 	0.35780 0.18496 0.47583 -0.10900
C 	C 	0.32707 0.18279 0.52281 0.10000
C 	C 	0.39228 0.22979 0.57372 -0.20500
H 	H 	0.21014 0.13158 0.55799 0.04900
H 	H 	0.32030 0.14590 0.39303 0.02800
C 	C 	0.13873 0.05286 0.37732 -0.16700
H 	H 	0.35914 0.23282 0.60555 0.06800
H 	H 	0.44866 0.29979 0.57169 0.07600
H 	H 	0.41951 0.19326 0.58350 0.08700
H 	H 	0.09809 0.07773 0.37361 0.06200
H 	H 	0.09306 0.97916 0.37500 0.05800
H 	H 	0.17412 0.06696 0.34406 0.05800
C 	C 	0.79838 0.72509 0.93167 -0.08700
C 	C 	0.84994 0.78269 0.97908 -0.01700
C 	C 	0.84685 0.74728 0.02409 0.03600
C 	C 	0.79445 0.65434 0.02060 -0.01600
C 	C 	0.74333 0.59651 0.97317 -0.11300
C 	C 	0.74334 0.63197 0.92845 0.10000
C 	C 	0.68570 0.57128 0.87731 -0.20400
H 	H 	0.80082 0.75289 0.89730 0.04900
H 	H 	0.79346 0.62676 0.05487 0.03300
C 	C 	0.90054 0.80840 0.07569 -0.17700
H 	H 	0.68027 0.60877 0.84925 0.06800
H 	H 	0.61625 0.51751 0.88223 0.07900
H 	H 	0.71587 0.54087 0.86064 0.08400
H 	H 	0.88586 0.85692 0.08351 0.06500
H 	H 	0.97363 0.84557 0.07573 0.06500
H 	H 	0.88376 0.77033 0.10775 0.06200
C 	C 	0.84523 0.06529 0.03562 -0.08400
C 	C 	0.88331 0.06526 0.99247 -0.01600
C 	C 	0.86176 0.08839 0.94745 0.02900
C 	C 	0.79643 0.10302 0.94465 -0.01600
C 	C 	0.75197 0.09460 0.98609 -0.12200
C 	C 	0.77764 0.07692 0.03237 0.10500
C 	C 	0.73230 0.06847 0.07794 -0.20800
H 	H 	0.86345 0.04956 0.07057 0.05000
H 	H 	0.77922 0.11976 0.90983 0.00700
C 	C 	0.90513 0.09344 0.90144 -0.17300
H 	H 	0.74925 0.04009 0.10744 0.07000
H 	H 	0.65790 0.02308 0.06546 0.08100
H 	H 	0.75468 0.13553 0.09643 0.08800
H 	H 	0.88475 0.02615 0.88530 0.06400
H 	H 	0.97958 0.14098 0.91309 0.06000
H 	H 	0.88505 0.11728 0.87040 0.05600
C 	C 	0.20718 0.08233 0.03615 -0.08200
C 	C 	0.15337 0.06866 0.99023 -0.01700
C 	C 	0.18821 0.08293 0.94416 0.03000
C 	C 	0.27525 0.10790 0.94443 -0.01800
C 	C 	0.32923 0.12154 0.99032 -0.11200
C 	C 	0.29450 0.10785 0.03658 0.09700
C 	C 	0.35061 0.12205 0.08664 -0.20800
H 	H 	0.17980 0.07011 0.07132 0.04800
H 	H 	0.30210 0.11925 0.90908 0.03300
C 	C 	0.13180 0.06904 0.89433 -0.16600
H 	H 	0.31233 0.10520 0.11870 0.06900
H 	H 	0.41073 0.19329 0.09759 0.07900
H 	H 	0.37207 0.07859 0.08259 0.08600
H 	H 	0.10467 0.10726 0.89989 0.05900
H 	H 	0.07492 0.99672 0.88155 0.05700
H 	H 	0.17178 0.09239 0.86313 0.05800
