data_crystal

_cell_length_a 18.58939
_cell_length_b 18.89194
_cell_length_c 39.55958
_cell_angle_alpha 95.43781
_cell_angle_beta  95.43788
_cell_angle_gamma 126.43001

_symmetry_space_group_name_	'P 1'
_symmetry_space_group_name_H-M	'P 1'

loop_
_symmetry_equiv_pos_as_xyz
  x,y,z

loop_
_atom_site_label
_atom_site_type_symbol
_atom_site_fract_x
_atom_site_fract_y
_atom_site_fract_z
_atom_site_charge
C 	C 	0.90278 0.00496 0.96981 0.05300
C 	C 	0.99512 0.05814 0.96756 -0.05500
C 	C 	0.04188 0.02136 0.96730 0.04400
C 	C 	0.99620 0.93078 0.96892 -0.04800
C 	C 	0.90311 0.87606 0.97002 0.05500
C 	C 	0.85632 0.91342 0.97094 -0.05800
H 	H 	0.03107 0.12869 0.96681 0.06700
H 	H 	0.03284 0.90263 0.96898 0.06900
H 	H 	0.78478 0.87188 0.97258 0.07000
C 	C 	0.95173 0.03024 0.50072 0.06300
C 	C 	0.89582 0.93871 0.50193 -0.06300
C 	C 	0.93174 0.89128 0.50130 0.06800
C 	C 	0.02402 0.93574 0.50050 -0.06600
C 	C 	0.08090 0.02777 0.50058 0.06100
C 	C 	0.04473 0.07517 0.50046 -0.07200
H 	H 	0.82404 0.90399 0.50227 0.07500
H 	H 	0.05167 0.89879 0.49993 0.07400
H 	H 	0.08828 0.14611 0.49972 0.07200
Cu	Cu	0.75934 0.35251 0.96669 0.92900
Cu	Cu	0.74223 0.29007 0.04197 0.88700
Cu	Cu	0.60482 0.30045 0.00518 0.90300
Cu	Cu	0.58736 0.33593 0.93412 0.89900
C 	C 	0.70185 0.31539 0.89309 0.29000
O 	O 	0.80681 0.48093 0.96393 -0.34800
C 	C 	0.65372 0.33905 0.08201 0.29100
O 	O 	0.61638 0.27340 0.95907 -0.63900
O 	O 	0.73951 0.36743 0.01422 -0.64000
O 	O 	0.82381 0.29830 0.97486 -0.35800
O 	O 	0.72149 0.20297 0.00595 -0.42000
O 	O 	0.66221 0.35378 0.89814 -0.37700
O 	O 	0.47398 0.22737 0.99383 -0.36900
C 	C 	0.42630 0.23433 0.96931 0.31800
C 	C 	0.76106 0.51087 0.97240 0.30200
O 	O 	0.67500 0.45380 0.97441 -0.37700
O 	O 	0.46143 0.27559 0.94343 -0.38300
O 	O 	0.75548 0.31921 0.91886 -0.35600
C 	C 	0.78450 0.22422 0.98762 0.30900
O 	O 	0.59153 0.31059 0.05402 -0.36300
O 	O 	0.72941 0.34864 0.08011 -0.40000
H 	H 	0.58055 0.20861 0.94954 0.17200
H 	H 	0.77364 0.43010 0.02648 0.19400
Cu	Cu	0.62129 0.19590 0.50515 0.93200
Cu	Cu	0.68248 0.20425 0.42965 0.87800
Cu	Cu	0.66405 0.33867 0.46255 0.90400
Cu	Cu	0.62370 0.35865 0.53290 0.90400
C 	C 	0.65731 0.25982 0.57816 0.30900
O 	O 	0.48956 0.14089 0.50755 -0.35400
C 	C 	0.62144 0.27817 0.38653 0.31400
O 	O 	0.69341 0.33519 0.50983 -0.63700
O 	O 	0.60263 0.20734 0.45654 -0.64000
O 	O 	0.67990 0.13625 0.49927 -0.35500
O 	O 	0.77394 0.23259 0.46641 -0.42900
O 	O 	0.61444 0.29448 0.57159 -0.37200
O 	O 	0.73123 0.46704 0.47129 -0.37200
C 	C 	0.72891 0.51399 0.49753 0.31500
C 	C 	0.45296 0.17877 0.49699 0.30700
O 	O 	0.50562 0.26237 0.49317 -0.37900
O 	O 	0.67059 0.47487 0.51852 -0.36900
O 	O 	0.65776 0.20779 0.55356 -0.34000
C 	C 	0.75556 0.17549 0.48692 0.31300
O 	O 	0.65473 0.34453 0.41290 -0.37400
O 	O 	0.61867 0.20799 0.39002 -0.40600
H 	H 	0.75937 0.37448 0.51972 0.18100
H 	H 	0.53841 0.16983 0.44440 0.19100
C 	C 	0.70479 0.28890 0.85730 -0.07900
C 	C 	0.62739 0.24747 0.83131 0.01900
C 	C 	0.63288 0.23347 0.79665 -0.06000
C 	C 	0.71582 0.26063 0.78760 0.03200
C 	C 	0.79218 0.29797 0.81365 -0.05900
C 	C 	0.78668 0.31191 0.84839 0.02300
C 	C 	0.72459 0.25788 0.75090 0.00800
C 	C 	0.66880 0.17618 0.72731 -0.03400
C 	C 	0.66436 0.17533 0.69176 -0.02600
C 	C 	0.71590 0.25603 0.67962 0.00400
C 	C 	0.77603 0.33711 0.70318 -0.02600
C 	C 	0.78044 0.33809 0.73872 -0.03300
C 	C 	0.69810 0.25679 0.64348 0.05800
C 	C 	0.68077 0.25798 0.61349 -0.08000
H 	H 	0.56352 0.22825 0.83792 0.03100
H 	H 	0.57348 0.20434 0.77674 0.05600
H 	H 	0.85633 0.31846 0.80693 0.05900
H 	H 	0.84687 0.34362 0.86820 0.05000
H 	H 	0.62623 0.11379 0.73646 0.05100
H 	H 	0.61816 0.11228 0.67369 0.05400
H 	H 	0.81649 0.39973 0.69398 0.05400
H 	H 	0.82405 0.40150 0.75670 0.05200
C 	C 	0.63401 0.35167 0.11642 -0.07300
C 	C 	0.70581 0.40756 0.14479 0.01800
C 	C 	0.68811 0.40598 0.17837 -0.05800
C 	C 	0.59837 0.34928 0.18393 0.02900
C 	C 	0.52608 0.29911 0.15546 -0.05600
C 	C 	0.54377 0.30006 0.12185 0.01600
C 	C 	0.58130 0.33387 0.21920 0.00700
C 	C 	0.53975 0.24788 0.22680 -0.03600
C 	C 	0.53738 0.23558 0.26107 -0.02800
C 	C 	0.57674 0.30903 0.28799 -0.00100
C 	C 	0.61362 0.39408 0.28037 -0.02700
C 	C 	0.61559 0.40646 0.24606 -0.03500
C 	C 	0.58971 0.29912 0.32321 0.05500
C 	C 	0.60291 0.28993 0.35234 -0.09500
H 	H 	0.77559 0.44967 0.14093 0.04700
H 	H 	0.74443 0.44574 0.20013 0.05500
H 	H 	0.45643 0.25641 0.15943 0.05600
H 	H 	0.48757 0.25734 0.10023 0.05700
H 	H 	0.51292 0.19132 0.20631 0.04600
H 	H 	0.50836 0.16955 0.26676 0.04800
H 	H 	0.64369 0.45113 0.30106 0.05300
H 	H 	0.64669 0.47290 0.24046 0.05100
C 	C 	0.76956 0.64158 0.46929 -0.01300
C 	C 	0.77843 0.61044 0.49903 -0.09600
C 	C 	0.83403 0.67186 0.53003 0.14400
C 	C 	0.87997 0.76342 0.53096 -0.07800
C 	C 	0.87272 0.79462 0.50102 -0.00600
C 	C 	0.81681 0.73324 0.47009 0.08600
Br	Br	0.80682 0.77361 0.42836 -0.20400
H 	H 	0.72625 0.59446 0.44547 0.07000
H 	H 	0.92388 0.81073 0.55468 0.08500
Br	Br	0.85335 0.63272 0.57068 -0.24000
C 	C 	0.82712 0.11213 0.46131 -0.01400
C 	C 	0.81112 0.14401 0.49091 -0.10600
C 	C 	0.84868 0.14575 0.52393 0.14600
C 	C 	0.89814 0.11191 0.52693 -0.08100
C 	C 	0.91126 0.07713 0.49727 -0.00500
C 	C 	0.87684 0.07874 0.46434 0.08400
Br	Br	0.89523 0.03351 0.42317 -0.21400
H 	H 	0.79944 0.11180 0.43587 0.04200
H 	H 	0.92524 0.11141 0.55233 0.08100
Br	Br	0.83651 0.19725 0.56515 -0.21900
C 	C 	0.20947 0.09012 0.46908 -0.08000
C 	C 	0.17818 0.07378 0.50041 -0.00700
C 	C 	0.23694 0.08975 0.53034 0.08600
C 	C 	0.32526 0.11946 0.52850 -0.01800
C 	C 	0.35648 0.13544 0.49716 -0.10000
C 	C 	0.29824 0.12082 0.46732 0.14300
Br	Br	0.33768 0.13923 0.42368 -0.24400
H 	H 	0.16402 0.07674 0.44589 0.08400
H 	H 	0.37058 0.13258 0.55169 0.06700
Br	Br	0.19804 0.07273 0.57409 -0.22500
C 	C 	0.84387 0.74875 0.00131 -0.08100
C 	C 	0.85520 0.77942 0.96985 -0.00200
C 	C 	0.83578 0.72141 0.93932 0.08500
C 	C 	0.80932 0.63530 0.94073 -0.01800
C 	C 	0.79968 0.60522 0.97227 -0.09500
C 	C 	0.81590 0.66197 0.00263 0.14100
Br	Br	0.80305 0.62321 0.04629 -0.24300
H 	H 	0.85944 0.79323 0.02494 0.07700
H 	H 	0.79432 0.59101 0.91713 0.06500
Br	Br	0.84413 0.75844 0.89540 -0.19000
C 	C 	0.86317 0.08536 0.00726 -0.08400
C 	C 	0.85772 0.04774 0.97393 -0.00200
C 	C 	0.82738 0.06786 0.94498 0.08400
C 	C 	0.80591 0.12747 0.94964 -0.01300
C 	C 	0.81416 0.16723 0.98303 -0.10100
C 	C 	0.84318 0.14595 0.01197 0.14500
Br	Br	0.86312 0.20433 0.05812 -0.28900
H 	H 	0.88792 0.07135 0.02960 0.07600
H 	H 	0.78214 0.14227 0.92728 0.06400
Br	Br	0.81597 0.01529 0.89893 -0.20600
C 	C 	0.26662 0.12519 0.93795 -0.01200
C 	C 	0.32817 0.18487 0.96824 -0.10000
C 	C 	0.29511 0.19422 0.99764 0.14500
C 	C 	0.20141 0.14047 0.99703 -0.08400
C 	C 	0.14007 0.07898 0.96706 0.00000
C 	C 	0.17288 0.07282 0.93715 0.07700
Br	Br	0.09068 0.99482 0.89477 -0.18800
H 	H 	0.29170 0.11868 0.91512 0.05900
H 	H 	0.17614 0.14674 0.01984 0.07500
Br	Br	0.37630 0.28359 0.03807 -0.23000
