data_crystal

_cell_length_a 26.11374
_cell_length_b 26.49195
_cell_length_c 34.87626
_cell_angle_alpha 95.49476
_cell_angle_beta  95.49089
_cell_angle_gamma 125.82124

_symmetry_space_group_name_	'P 1'
_symmetry_space_group_name_H-M	'P 1'

loop_
_symmetry_equiv_pos_as_xyz
  x,y,z

loop_
_atom_site_label
_atom_site_type_symbol
_atom_site_fract_x
_atom_site_fract_y
_atom_site_fract_z
_atom_site_charge
C 	C 	0.95946 0.02987 0.98884 0.13800
N 	N 	0.02105 0.06102 0.98317 -0.13000
C 	C 	0.04869 0.03071 0.98180 0.14300
N 	N 	0.01432 0.96898 0.98555 -0.14000
C 	C 	0.95250 0.93752 0.99062 0.13800
N 	N 	0.92511 0.96799 0.99233 -0.12500
C 	C 	0.93942 0.99286 0.45937 0.14100
N 	N 	0.00409 0.02884 0.46156 -0.13000
C 	C 	0.03450 0.00130 0.46142 0.14800
N 	N 	0.00023 0.93777 0.45910 -0.13900
C 	C 	0.93570 0.90164 0.45729 0.13700
N 	N 	0.90510 0.92914 0.45718 -0.13100
Cu	Cu	0.63402 0.24541 0.00140 0.92900
Cu	Cu	0.68439 0.25422 0.91801 0.87500
Cu	Cu	0.67118 0.35099 0.95524 0.90000
Cu	Cu	0.63537 0.36127 0.03339 0.89500
C 	C 	0.65456 0.28749 0.08414 0.29300
O 	O 	0.54046 0.20754 0.00127 -0.35300
C 	C 	0.65064 0.31425 0.86880 0.29300
O 	O 	0.68629 0.34447 0.00873 -0.64200
O 	O 	0.62621 0.25736 0.94663 -0.63900
O 	O 	0.67195 0.19895 0.99543 -0.37100
O 	O 	0.74422 0.26733 0.96077 -0.42600
O 	O 	0.62404 0.31219 0.07604 -0.38100
O 	O 	0.71957 0.44219 0.96714 -0.36800
C 	C 	0.71549 0.47478 0.99628 0.31400
C 	C 	0.51550 0.23562 0.98921 0.30500
O 	O 	0.55339 0.29571 0.98664 -0.39200
O 	O 	0.67316 0.44638 0.01944 -0.39700
O 	O 	0.65541 0.25037 0.05644 -0.35700
C 	C 	0.72635 0.22430 0.98279 0.31200
O 	O 	0.67149 0.35935 0.89953 -0.37900
O 	O 	0.64484 0.26215 0.87249 -0.41200
H 	H 	0.73223 0.37096 0.02140 0.16800
H 	H 	0.58167 0.23245 0.93165 0.17600
Cu	Cu	0.73992 0.33245 0.45258 0.92800
Cu	Cu	0.74549 0.29201 0.53812 0.87300
Cu	Cu	0.63899 0.29602 0.50416 0.90000
Cu	Cu	0.61656 0.32440 0.42566 0.90000
C 	C 	0.68742 0.30630 0.37073 0.29100
O 	O 	0.77430 0.42376 0.45087 -0.35900
C 	C 	0.68667 0.32325 0.59004 0.29300
O 	O 	0.63975 0.27826 0.44975 -0.63900
O 	O 	0.73417 0.34374 0.50850 -0.64000
O 	O 	0.78851 0.29582 0.45625 -0.35900
O 	O 	0.72700 0.22964 0.49597 -0.44100
O 	O 	0.66099 0.33454 0.38026 -0.37700
O 	O 	0.54614 0.24542 0.49612 -0.36700
C 	C 	0.50914 0.24797 0.46895 0.31000
C 	C 	0.74426 0.44651 0.46326 0.30400
O 	O 	0.68585 0.40760 0.46993 -0.38200
O 	O 	0.53338 0.28735 0.44399 -0.38900
O 	O 	0.72858 0.30797 0.39708 -0.35600
C 	C 	0.76650 0.24455 0.47127 0.30600
O 	O 	0.63732 0.29867 0.56093 -0.37600
O 	O 	0.74077 0.33365 0.58373 -0.41700
H 	H 	0.61333 0.23257 0.43812 0.16800
H 	H 	0.75893 0.38837 0.52212 0.17400
C 	C 	0.59282 0.28775 0.76047 -0.07100
C 	C 	0.64913 0.33756 0.74986 0.01400
C 	C 	0.70092 0.38620 0.77933 -0.00600
C 	C 	0.69861 0.38097 0.81878 -0.00300
C 	C 	0.64513 0.32740 0.82912 -0.09100
C 	C 	0.59056 0.28241 0.79994 0.05800
C 	C 	0.65744 0.33287 0.70864 0.01400
S 	S 	0.77025 0.45204 0.76703 -0.03300
H 	H 	0.73994 0.41674 0.84125 0.04400
S 	S 	0.51912 0.21969 0.81249 -0.04600
H 	H 	0.55201 0.25145 0.73789 0.05700
C 	C 	0.68225 0.30085 0.69513 -0.00700
C 	C 	0.69178 0.29842 0.65645 -0.00200
C 	C 	0.67693 0.32769 0.63084 -0.09200
C 	C 	0.65246 0.36016 0.64440 0.05800
C 	C 	0.64236 0.36208 0.68312 -0.07100
S 	S 	0.70217 0.26416 0.72655 -0.03900
H 	H 	0.71039 0.27328 0.64613 0.03000
S 	S 	0.63748 0.40125 0.61401 -0.03600
H 	H 	0.62385 0.38723 0.69360 0.05700
H 	H 	0.48177 0.23885 0.81983 0.04100
H 	H 	0.76398 0.30769 0.74668 0.03400
H 	H 	0.69238 0.46181 0.61782 0.03800
H 	H 	0.81182 0.43778 0.76081 0.03500
C 	C 	0.71032 0.33946 0.19405 -0.07200
C 	C 	0.68587 0.28126 0.20569 0.01500
C 	C 	0.65801 0.22636 0.17704 -0.00600
C 	C 	0.65060 0.22933 0.13719 0.00100
C 	C 	0.67187 0.28698 0.12558 -0.08800
C 	C 	0.70478 0.34285 0.15424 0.05800
C 	C 	0.68504 0.27753 0.24774 0.01500
S 	S 	0.63287 0.15392 0.19067 -0.02700
H 	H 	0.62669 0.18647 0.11530 0.05200
S 	S 	0.74142 0.41752 0.14068 -0.06900
H 	H 	0.73320 0.38205 0.21604 0.05500
C 	C 	0.74251 0.30516 0.27475 -0.00600
C 	C 	0.74236 0.31129 0.31507 0.00100
C 	C 	0.68500 0.28888 0.32874 -0.08600
C 	C 	0.62658 0.25560 0.30157 0.05800
C 	C 	0.62709 0.25130 0.26133 -0.07100
S 	S 	0.81477 0.33214 0.25845 -0.02800
H 	H 	0.78721 0.33536 0.33577 0.05300
S 	S 	0.55241 0.21720 0.31749 -0.06600
H 	H 	0.58251 0.22833 0.24055 0.05700
H 	H 	0.69862 0.43170 0.13765 0.03500
H 	H 	0.84550 0.39390 0.25411 0.03800
H 	H 	0.53050 0.15687 0.32098 0.03900
H 	H 	0.68351 0.15065 0.19471 0.04200
C 	C 	0.83751 0.74072 0.48607 -0.09900
C 	C 	0.84693 0.70594 0.45863 -0.00700
C 	C 	0.88114 0.73418 0.42890 0.13800
C 	C 	0.90680 0.79724 0.42726 -0.06700
C 	C 	0.89937 0.83286 0.45549 -0.05600
C 	C 	0.86399 0.80416 0.48480 0.16300
C 	C 	0.82042 0.63972 0.46081 0.01200
O 	O 	0.88863 0.69989 0.40106 -0.27700
H 	H 	0.93377 0.81894 0.40453 0.06500
O 	O 	0.85567 0.83810 0.51235 -0.27600
H 	H 	0.81053 0.71888 0.50876 0.07100
C 	C 	0.85917 0.62537 0.47991 0.11400
C 	C 	0.83433 0.56207 0.48030 -0.03000
C 	C 	0.77060 0.51294 0.46222 -0.12600
C 	C 	0.73205 0.52747 0.44289 0.19800
C 	C 	0.75688 0.59068 0.44264 -0.11500
O 	O 	0.92178 0.67302 0.49729 -0.27600
H 	H 	0.86442 0.55128 0.49495 0.05200
O 	O 	0.67013 0.47993 0.42420 -0.30300
H 	H 	0.72699 0.60153 0.42777 0.08000
H 	H 	0.89258 0.85743 0.53432 0.15000
H 	H 	0.92015 0.68512 0.52470 0.14400
H 	H 	0.67344 0.46896 0.39700 0.14700
H 	H 	0.92938 0.70701 0.41182 0.15600
C 	C 	0.89282 0.09865 0.49155 -0.10100
C 	C 	0.85610 0.09174 0.45660 -0.00700
C 	C 	0.84346 0.04915 0.42314 0.14000
C 	C 	0.86874 0.01490 0.42466 -0.06600
C 	C 	0.90683 0.02306 0.45936 -0.05400
C 	C 	0.91866 0.06497 0.49293 0.16600
C 	C 	0.83119 0.12942 0.45519 0.01000
O 	O 	0.80887 0.04303 0.38853 -0.27400
H 	H 	0.86007 0.98321 0.39859 0.06700
O 	O 	0.95439 0.07208 0.52735 -0.28200
H 	H 	0.90190 0.13068 0.51755 0.06700
C 	C 	0.76645 0.10146 0.45713 0.11600
C 	C 	0.74470 0.13882 0.45968 -0.03400
C 	C 	0.78762 0.20461 0.46163 -0.12700
C 	C 	0.85219 0.23233 0.45872 0.18900
C 	C 	0.87343 0.19454 0.45506 -0.11400
O 	O 	0.72438 0.03765 0.45666 -0.27500
H 	H 	0.69477 0.11687 0.46133 0.05700
O 	O 	0.89481 0.29635 0.46007 -0.28000
H 	H 	0.92329 0.21624 0.45336 0.07700
H 	H 	0.99934 0.10798 0.52677 0.15800
H 	H 	0.72680 0.03325 0.48458 0.14600
H 	H 	0.91423 0.31517 0.48821 0.13800
H 	H 	0.76361 0.00742 0.38867 0.16000
C 	C 	0.21337 0.12479 0.49650 -0.09400
C 	C 	0.23761 0.10905 0.46723 -0.00600
C 	C 	0.19494 0.05915 0.43542 0.13000
C 	C 	0.12856 0.02438 0.43357 -0.06200
C 	C 	0.10424 0.03990 0.46289 -0.06000
C 	C 	0.14691 0.09036 0.49447 0.16600
C 	C 	0.30767 0.14569 0.46949 0.00900
O 	O 	0.21811 0.04362 0.40648 -0.27700
H 	H 	0.09592 0.98547 0.40923 0.06700
O 	O 	0.12377 0.10626 0.52324 -0.27900
H 	H 	0.24607 0.16353 0.52090 0.07900
C 	C 	0.34340 0.20765 0.46182 0.11500
C 	C 	0.40944 0.24129 0.46261 -0.03200
C 	C 	0.44011 0.21298 0.47012 -0.12000
C 	C 	0.40413 0.15071 0.47758 0.19300
C 	C 	0.33836 0.11772 0.47778 -0.11000
O 	O 	0.31396 0.23565 0.45396 -0.27000
H 	H 	0.43677 0.28937 0.45722 0.06300
O 	O 	0.43307 0.12199 0.48458 -0.28500
H 	H 	0.31094 0.06993 0.48366 0.08100
H 	H 	0.11949 0.08057 0.54334 0.15300
H 	H 	0.29951 0.22453 0.42508 0.14600
H 	H 	0.42881 0.10004 0.45846 0.14600
H 	H 	0.22258 0.06973 0.38664 0.14600
C 	C 	0.82670 0.75990 0.96892 -0.09300
C 	C 	0.84933 0.74193 0.99879 -0.00400
C 	C 	0.90434 0.78864 0.02702 0.12800
C 	C 	0.93754 0.85264 0.02442 -0.06800
C 	C 	0.91540 0.87056 0.99425 -0.05300
C 	C 	0.85957 0.82394 0.96652 0.16400
C 	C 	0.81615 0.67413 0.99993 0.01200
O 	O 	0.92659 0.77168 0.05658 -0.28000
H 	H 	0.98053 0.88836 0.04585 0.06400
O 	O 	0.83710 0.84090 0.93707 -0.27400
H 	H 	0.78412 0.72411 0.94724 0.08000
C 	C 	0.75470 0.63795 0.00970 0.11100
C 	C 	0.72223 0.57298 0.00875 -0.03500
C 	C 	0.75127 0.54383 0.99885 -0.11900
C 	C 	0.81396 0.58075 0.99065 0.19200
C 	C 	0.84566 0.64539 0.99064 -0.11100
O 	O 	0.72560 0.66570 0.01918 -0.27000
H 	H 	0.67411 0.54512 0.01519 0.06100
O 	O 	0.84403 0.55363 0.98225 -0.28400
H 	H 	0.89326 0.67323 0.98341 0.08100
H 	H 	0.85844 0.84083 0.91503 0.14900
H 	H 	0.73895 0.68046 0.04802 0.14600
H 	H 	0.86748 0.55787 0.00791 0.14200
H 	H 	0.90453 0.77107 0.07835 0.14600
C 	C 	0.86450 0.21336 0.99986 -0.11300
C 	C 	0.83158 0.14748 0.99290 0.00900
C 	C 	0.76395 0.10696 0.98471 0.11800
C 	C 	0.72977 0.13243 0.98304 -0.03300
C 	C 	0.76266 0.19831 0.98869 -0.13100
C 	C 	0.83035 0.23889 0.99793 0.19700
C 	C 	0.86794 0.12097 0.99298 -0.00300
O 	O 	0.73121 0.04244 0.97851 -0.26800
H 	H 	0.67768 0.10087 0.97616 0.05700
O 	O 	0.86319 0.30343 0.00443 -0.29500
H 	H 	0.91661 0.24476 0.00645 0.06900
C 	C 	0.89741 0.12164 0.96110 0.13100
C 	C 	0.92817 0.09263 0.96020 -0.06400
C 	C 	0.92988 0.06297 0.99101 -0.05100
C 	C 	0.90210 0.06402 0.02346 0.16200
C 	C 	0.87102 0.09271 0.02424 -0.09600
O 	O 	0.89368 0.14811 0.93001 -0.27800
H 	H 	0.94961 0.09212 0.93518 0.06800
O 	O 	0.90433 0.03609 0.05410 -0.27600
H 	H 	0.84878 0.09247 0.04898 0.07700
H 	H 	0.86814 0.31612 0.03301 0.14800
H 	H 	0.93263 0.19285 0.93636 0.14700
H 	H 	0.94456 0.06992 0.07269 0.14800
H 	H 	0.72544 0.02932 0.94988 0.15100
C 	C 	0.34405 0.13649 0.00578 -0.12300
C 	C 	0.31400 0.14786 0.97605 0.01300
C 	C 	0.34929 0.18509 0.94921 0.12000
C 	C 	0.41484 0.21224 0.95298 -0.03500
C 	C 	0.44542 0.20215 0.98333 -0.12200
C 	C 	0.40959 0.16393 0.00981 0.19000
C 	C 	0.24595 0.12194 0.97382 -0.00900
O 	O 	0.32042 0.19693 0.92021 -0.27000
H 	H 	0.44201 0.24162 0.93253 0.05500
O 	O 	0.43870 0.15398 0.03989 -0.28100
H 	H 	0.31680 0.10735 0.02631 0.07400
C 	C 	0.19738 0.06410 0.94878 0.13700
C 	C 	0.13274 0.03608 0.95014 -0.06700
C 	C 	0.11612 0.06481 0.97697 -0.05200
C 	C 	0.16479 0.12356 0.00136 0.15400
C 	C 	0.22937 0.15214 0.99938 -0.08500
O 	O 	0.21303 0.03497 0.92293 -0.27900
H 	H 	0.09554 0.99127 0.93094 0.06900
O 	O 	0.14943 0.15263 0.02751 -0.27600
H 	H 	0.26669 0.19686 0.01863 0.06900
H 	H 	0.45400 0.18871 0.06219 0.15000
H 	H 	0.21728 0.00675 0.93739 0.15000
H 	H 	0.14930 0.13645 0.05203 0.14800
H 	H 	0.30406 0.16266 0.89737 0.15600
