data_crystal

_cell_length_a 20.60048
_cell_length_b 29.87483
_cell_length_c 28.37520
_cell_angle_alpha 90.01052
_cell_angle_beta  89.99994
_cell_angle_gamma 89.99012

_symmetry_space_group_name_	'P 1'
_symmetry_space_group_name_H-M	'P 1'

loop_
_symmetry_equiv_pos_as_xyz
  x,y,z

loop_
_atom_site_label
_atom_site_type_symbol
_atom_site_fract_x
_atom_site_fract_y
_atom_site_fract_z
_atom_site_charge
Cu	Cu	0.06723 0.85965 0.09465 0.93600
Cu	Cu	0.99378 0.85366 0.19708 0.85500
Cu	Cu	0.92638 0.83149 0.10634 0.88800
Cu	Cu	0.98769 0.81429 0.01228 0.87600
C 	C 	0.13079 0.81380 0.01895 0.26000
O 	O 	0.04907 0.90860 0.04725 -0.32900
C 	C 	0.85501 0.86074 0.18934 0.27900
O 	O 	0.00339 0.80687 0.07762 -0.61600
O 	O 	0.98998 0.87547 0.13228 -0.65800
O 	O 	0.13214 0.86323 0.14618 -0.36200
O 	O 	0.07189 0.81965 0.19506 -0.42000
O 	O 	0.07977 0.82197 0.99232 -0.35600
O 	O 	0.86718 0.78605 0.08304 -0.38600
C 	C 	0.86152 0.77393 0.03848 0.29600
C 	C 	0.99102 0.91491 0.02914 0.24700
O 	O 	0.95024 0.88126 0.02525 -0.39400
O 	O 	0.91225 0.77296 0.01008 -0.40600
O 	O 	0.13736 0.83316 0.06039 -0.35200
C 	C 	0.12709 0.83913 0.18462 0.29200
O 	O 	0.85380 0.85447 0.14327 -0.37600
O 	O 	0.90785 0.87566 0.21042 -0.41900
H 	H 	0.01437 0.77609 0.08780 0.16700
H 	H 	0.97543 0.90695 0.12948 0.16900
Cu	Cu	0.41191 0.85881 0.39809 0.92900
Cu	Cu	0.47872 0.85441 0.29356 0.86600
Cu	Cu	0.55092 0.82845 0.38129 0.89500
Cu	Cu	0.49455 0.81137 0.47744 0.89400
C 	C 	0.35102 0.81156 0.47382 0.28900
O 	O 	0.43342 0.90680 0.44569 -0.36100
C 	C 	0.61779 0.85985 0.29662 0.28300
O 	O 	0.47514 0.80494 0.41247 -0.63800
O 	O 	0.48749 0.87420 0.35874 -0.64200
O 	O 	0.34504 0.86377 0.34821 -0.36900
O 	O 	0.40110 0.81978 0.29723 -0.43500
O 	O 	0.40312 0.81862 0.49976 -0.38400
O 	O 	0.60905 0.78130 0.40195 -0.38200
C 	C 	0.61843 0.76965 0.44629 0.29100
C 	C 	0.49266 0.91246 0.46181 0.28200
O 	O 	0.53269 0.87831 0.46476 -0.39100
O 	O 	0.57038 0.76996 0.47718 -0.39000
O 	O 	0.34279 0.83281 0.43359 -0.35500
C 	C 	0.34633 0.83832 0.31060 0.29400
O 	O 	0.62221 0.85001 0.34190 -0.37800
O 	O 	0.56390 0.87650 0.27864 -0.41500
H 	H 	0.46229 0.77448 0.40235 0.16400
H 	H 	0.50338 0.90533 0.36196 0.17100
Cu	Cu	0.07537 0.14528 0.88683 0.93500
Cu	Cu	0.00484 0.15851 0.78492 0.88400
Cu	Cu	0.93674 0.17805 0.87473 0.88800
Cu	Cu	0.99660 0.18922 0.97085 0.88000
C 	C 	0.13968 0.18843 0.96375 0.28300
O 	O 	0.05472 0.09397 0.93078 -0.32400
C 	C 	0.86651 0.15133 0.78963 0.28400
O 	O 	0.01395 0.19884 0.90616 -0.61600
O 	O 	0.99820 0.13331 0.84802 -0.66500
O 	O 	0.13940 0.14626 0.83466 -0.36600
O 	O 	0.07950 0.19542 0.79217 -0.43000
O 	O 	0.08871 0.18103 0.99076 -0.36500
O 	O 	0.88077 0.22453 0.89916 -0.38800
C 	C 	0.87224 0.23290 0.94436 0.29100
C 	C 	0.99700 0.08889 0.94991 0.24200
O 	O 	0.95769 0.12332 0.95434 -0.38600
O 	O 	0.92120 0.23093 0.97438 -0.39700
O 	O 	0.14624 0.16774 0.92306 -0.35600
C 	C 	0.13587 0.17732 0.80213 0.29000
O 	O 	0.86368 0.15961 0.83533 -0.37800
O 	O 	0.92012 0.13642 0.76972 -0.42900
H 	H 	0.02722 0.22965 0.89766 0.16700
H 	H 	0.98166 0.10220 0.84902 0.17100
Cu	Cu	0.41393 0.14658 0.59367 0.92900
Cu	Cu	0.48862 0.16047 0.69394 0.86700
Cu	Cu	0.55324 0.17812 0.60224 0.89600
Cu	Cu	0.48949 0.18967 0.50811 0.89400
C 	C 	0.34598 0.18766 0.51694 0.29000
O 	O 	0.43305 0.09536 0.54920 -0.36000
C 	C 	0.62703 0.15255 0.68564 0.28200
O 	O 	0.47489 0.19979 0.57302 -0.63900
O 	O 	0.49222 0.13435 0.63103 -0.64300
O 	O 	0.35195 0.14697 0.64701 -0.37100
O 	O 	0.41251 0.19640 0.68878 -0.43600
O 	O 	0.39677 0.18022 0.48972 -0.38200
O 	O 	0.60974 0.22377 0.57655 -0.38300
C 	C 	0.61474 0.23405 0.53146 0.29100
C 	C 	0.49081 0.08969 0.53030 0.28200
O 	O 	0.52977 0.12407 0.52426 -0.39300
O 	O 	0.56423 0.23176 0.50282 -0.39000
O 	O 	0.34187 0.16961 0.55919 -0.36300
C 	C 	0.35617 0.17780 0.67972 0.29200
O 	O 	0.62728 0.15798 0.63943 -0.37800
O 	O 	0.57431 0.13894 0.70785 -0.41500
H 	H 	0.46271 0.23076 0.58178 0.16300
H 	H 	0.50810 0.10307 0.63019 0.17300
Cu	Cu	0.91311 0.64285 0.59311 0.92700
Cu	Cu	0.97604 0.64745 0.69953 0.86000
Cu	Cu	0.04702 0.68186 0.61404 0.91000
Cu	Cu	0.99442 0.68969 0.51258 0.88100
C 	C 	0.85087 0.68576 0.51487 0.28900
O 	O 	0.93869 0.59300 0.54864 -0.35200
C 	C 	0.11446 0.64225 0.69662 0.28600
O 	O 	0.97235 0.69820 0.57671 -0.64800
O 	O 	0.98881 0.63198 0.63400 -0.68500
O 	O 	0.84552 0.63919 0.64260 -0.37600
O 	O 	0.90023 0.68343 0.69415 -0.44100
O 	O 	0.90387 0.67983 0.48951 -0.38600
O 	O 	0.10258 0.72880 0.58964 -0.36700
C 	C 	0.11470 0.73471 0.54439 0.28300
C 	C 	0.99786 0.58904 0.53177 0.20000
O 	O 	0.03575 0.62432 0.52867 -0.34400
O 	O 	0.06759 0.73320 0.51287 -0.37000
O 	O 	0.84305 0.66453 0.55521 -0.36100
C 	C 	0.84552 0.66575 0.67942 0.29200
O 	O 	0.11315 0.67363 0.66365 -0.37800
O 	O 	0.06052 0.62410 0.71278 -0.40100
H 	H 	0.95459 0.72818 0.58419 0.15800
H 	H 	0.00915 0.60228 0.62980 0.20500
Cu	Cu	0.56518 0.64458 0.89304 0.92800
Cu	Cu	0.49424 0.64588 0.78898 0.87300
Cu	Cu	0.42895 0.68166 0.87610 0.89600
Cu	Cu	0.48675 0.69038 0.97592 0.89800
C 	C 	0.62971 0.68965 0.96862 0.28300
O 	O 	0.54493 0.59493 0.93898 -0.35900
C 	C 	0.35655 0.64087 0.79644 0.28700
O 	O 	0.50501 0.69895 0.91111 -0.63500
O 	O 	0.48679 0.63172 0.85522 -0.64200
O 	O 	0.62985 0.64188 0.84135 -0.37100
O 	O 	0.56839 0.68354 0.79146 -0.43700
O 	O 	0.57898 0.68237 0.99593 -0.37800
O 	O 	0.37521 0.72897 0.90144 -0.37800
C 	C 	0.36365 0.73367 0.94688 0.29200
C 	C 	0.48691 0.58978 0.95744 0.27800
O 	O 	0.44745 0.62416 0.96138 -0.38100
O 	O 	0.41141 0.73214 0.97790 -0.38200
O 	O 	0.63640 0.66805 0.92840 -0.35700
C 	C 	0.62482 0.66672 0.80341 0.29300
O 	O 	0.36006 0.67297 0.82853 -0.38400
O 	O 	0.40940 0.62151 0.77998 -0.41600
H 	H 	0.52138 0.72916 0.90307 0.16400
H 	H 	0.46754 0.60186 0.86099 0.16900
Cu	Cu	0.91405 0.36060 0.38647 0.92800
Cu	Cu	0.98695 0.34141 0.28660 0.85900
Cu	Cu	0.05190 0.32542 0.37719 0.90900
Cu	Cu	0.98936 0.31801 0.47313 0.87800
C 	C 	0.84689 0.31926 0.46301 0.28900
O 	O 	0.93576 0.41280 0.42903 -0.34900
C 	C 	0.12498 0.34848 0.29204 0.28600
O 	O 	0.97340 0.30677 0.40843 -0.65000
O 	O 	0.99249 0.36997 0.34806 -0.68400
O 	O 	0.85091 0.35976 0.33376 -0.37200
O 	O 	0.90976 0.30774 0.29445 -0.43900
O 	O 	0.89656 0.32718 0.49111 -0.39100
O 	O 	0.10567 0.27904 0.40391 -0.37600
C 	C 	0.11355 0.27268 0.44949 0.29000
C 	C 	0.99376 0.41792 0.44774 0.21100
O 	O 	0.03109 0.38291 0.45524 -0.35000
O 	O 	0.06403 0.27572 0.47893 -0.37500
O 	O 	0.84143 0.34039 0.42249 -0.36000
C 	C 	0.85492 0.32901 0.30094 0.29200
O 	O 	0.12645 0.34132 0.33800 -0.37800
O 	O 	0.07178 0.36220 0.27074 -0.39900
H 	H 	0.95936 0.27593 0.40073 0.16000
H 	H 	0.01035 0.40070 0.34753 0.21300
Cu	Cu	0.57457 0.35793 0.09251 0.92800
Cu	Cu	0.50142 0.34139 0.19304 0.86900
Cu	Cu	0.43616 0.32482 0.10263 0.89600
Cu	Cu	0.49798 0.31468 0.00733 0.89100
C 	C 	0.64147 0.31823 0.01434 0.26800
O 	O 	0.55310 0.40928 0.04864 -0.36400
C 	C 	0.36313 0.34880 0.18676 0.28400
O 	O 	0.51431 0.30429 0.07208 -0.63900
O 	O 	0.49667 0.36909 0.13099 -0.64300
O 	O 	0.63806 0.35797 0.14504 -0.37100
O 	O 	0.57852 0.30745 0.18597 -0.43400
O 	O 	0.58987 0.32566 0.98796 -0.37000
O 	O 	0.38059 0.27882 0.07701 -0.38800
C 	C 	0.37340 0.27125 0.03157 0.29500
C 	C 	0.49482 0.41428 0.03034 0.28600
O 	O 	0.45652 0.37949 0.02490 -0.39600
O 	O 	0.42370 0.27225 0.00273 -0.39300
O 	O 	0.64634 0.33567 0.05688 -0.35800
C 	C 	0.63351 0.32841 0.17901 0.29200
O 	O 	0.36224 0.34392 0.14049 -0.37900
O 	O 	0.41615 0.36206 0.20873 -0.41600
H 	H 	0.52746 0.27340 0.08040 0.16300
H 	H 	0.47992 0.40017 0.13089 0.17400
C 	C 	0.79911 0.32080 0.26958 -0.08800
C 	C 	0.73663 0.31960 0.28912 -0.02300
C 	C 	0.68176 0.32073 0.26016 0.04100
C 	C 	0.68923 0.32067 0.21059 -0.08500
C 	C 	0.75166 0.31834 0.19109 -0.02400
C 	C 	0.80657 0.31960 0.22002 0.04300
S 	S 	0.60468 0.32580 0.28658 -0.09200
S 	S 	0.88373 0.32319 0.19347 -0.10300
H 	H 	0.89990 0.36731 0.18746 0.01900
H 	H 	0.58944 0.37022 0.29131 0.02300
H 	H 	0.73070 0.32010 0.32710 0.05000
H 	H 	0.75757 0.31774 0.15310 0.05100
C 	C 	0.18609 0.34882 0.26570 -0.07700
C 	C 	0.19959 0.31352 0.23475 -0.02500
C 	C 	0.25705 0.31317 0.20857 0.03600
C 	C 	0.30116 0.34916 0.21258 -0.07700
C 	C 	0.28725 0.38471 0.24337 -0.02400
C 	C 	0.23015 0.38462 0.27004 0.04000
S 	S 	0.27447 0.26652 0.17267 -0.05500
S 	S 	0.21414 0.42964 0.30841 -0.04400
H 	H 	0.23765 0.41968 0.35235 0.03800
H 	H 	0.25036 0.27368 0.12829 0.05100
H 	H 	0.16558 0.28600 0.23144 0.03400
H 	H 	0.32091 0.41245 0.24654 0.04600
C 	C 	0.47475 0.45846 0.01270 -0.09400
C 	C 	0.47464 0.49503 0.04369 -0.01400
C 	C 	0.47154 0.53879 0.02620 0.02600
C 	C 	0.46872 0.54613 0.97718 -0.06200
C 	C 	0.46200 0.50954 0.94664 -0.03300
C 	C 	0.46520 0.46575 0.96406 0.05600
S 	S 	0.47509 0.58409 0.06583 -0.06400
S 	S 	0.46151 0.42058 0.92423 -0.06200
H 	H 	0.52311 0.40945 0.91029 0.03700
H 	H 	0.53848 0.59680 0.07175 0.03700
H 	H 	0.48008 0.48948 0.08125 0.03300
H 	H 	0.45828 0.51513 0.90898 0.03500
C 	C 	0.01683 0.54700 0.50870 -0.02300
C 	C 	0.00952 0.54313 0.45977 -0.04600
C 	C 	0.00751 0.50087 0.43849 0.07700
C 	C 	0.01280 0.46201 0.46648 -0.04400
C 	C 	0.02797 0.46618 0.51447 -0.02400
C 	C 	0.03005 0.50848 0.53569 0.02700
S 	S 	0.99919 0.49710 0.37688 -0.13400
S 	S 	0.04904 0.51278 0.59598 -0.05100
H 	H 	0.11448 0.51940 0.60110 0.03300
H 	H 	0.05948 0.49497 0.35661 0.06100
H 	H 	0.00187 0.57288 0.43859 0.05800
H 	H 	0.03482 0.43644 0.53580 0.04600
C 	C 	0.17583 0.63398 0.72215 -0.07500
C 	C 	0.17607 0.63451 0.77165 -0.02400
C 	C 	0.23474 0.63351 0.79658 0.03900
C 	C 	0.29420 0.63324 0.77180 -0.07800
C 	C 	0.29369 0.62919 0.72245 -0.02500
C 	C 	0.23494 0.62896 0.69762 0.03800
S 	S 	0.23286 0.63059 0.85859 -0.04300
S 	S 	0.23599 0.62051 0.63617 -0.05000
H 	H 	0.23005 0.57571 0.62675 0.03300
H 	H 	0.23296 0.58663 0.87237 0.03500
H 	H 	0.13063 0.63674 0.79078 0.04300
H 	H 	0.33909 0.62734 0.70322 0.03800
C 	C 	0.78767 0.66710 0.70996 -0.08700
C 	C 	0.75405 0.62717 0.71897 -0.02800
C 	C 	0.69916 0.62707 0.74780 0.04100
C 	C 	0.67837 0.66712 0.76928 -0.09100
C 	C 	0.71083 0.70731 0.75954 -0.02200
C 	C 	0.76494 0.70765 0.72958 0.03600
S 	S 	0.65562 0.57683 0.75548 -0.08900
S 	S 	0.80163 0.75913 0.71529 -0.05500
H 	H 	0.84989 0.76814 0.74714 0.03000
H 	H 	0.67944 0.55447 0.79392 0.04200
H 	H 	0.77075 0.59604 0.70349 0.04000
H 	H 	0.69419 0.73826 0.77543 0.03700
C 	C 	0.28739 0.20776 0.49609 -0.07600
C 	C 	0.28975 0.25210 0.48001 -0.02600
C 	C 	0.23322 0.27361 0.46462 0.03600
C 	C 	0.17340 0.25071 0.46565 -0.07500
C 	C 	0.17126 0.20602 0.48059 -0.02200
C 	C 	0.22804 0.18413 0.49487 0.04000
S 	S 	0.23773 0.32951 0.44509 -0.05800
S 	S 	0.22491 0.12654 0.50802 -0.02700
H 	H 	0.21194 0.12076 0.55497 0.04600
H 	H 	0.24788 0.33019 0.39736 0.04700
H 	H 	0.33540 0.27016 0.48037 0.03200
H 	H 	0.12559 0.18797 0.48016 0.04800
C 	C 	0.67431 0.25617 0.51462 -0.07700
C 	C 	0.70783 0.23771 0.47626 -0.02700
C 	C 	0.76509 0.25749 0.45984 0.03800
C 	C 	0.78948 0.29622 0.48201 -0.08000
C 	C 	0.75620 0.31466 0.52051 -0.02200
C 	C 	0.69827 0.29533 0.53648 0.03800
S 	S 	0.80650 0.23294 0.41205 -0.07500
S 	S 	0.65409 0.32225 0.58145 -0.04800
H 	H 	0.61122 0.35186 0.56167 0.03500
H 	H 	0.78539 0.25173 0.37077 0.04300
H 	H 	0.68950 0.20772 0.45934 0.03900
H 	H 	0.77429 0.34487 0.53712 0.04500
C 	C 	0.31260 0.25079 0.01505 -0.09400
C 	C 	0.28941 0.21182 0.03689 -0.01300
C 	C 	0.23199 0.19160 0.02131 0.02200
C 	C 	0.19666 0.21096 0.98389 -0.05700
C 	C 	0.21909 0.25047 0.96285 -0.03500
C 	C 	0.27683 0.27039 0.97806 0.05300
S 	S 	0.20624 0.14131 0.04776 -0.03300
S 	S 	0.30308 0.32038 0.95119 -0.05800
H 	H 	0.27914 0.35625 0.97576 0.04200
H 	H 	0.23142 0.10577 0.02330 0.04000
H 	H 	0.31662 0.19684 0.06556 0.04100
H 	H 	0.19194 0.26540 0.93412 0.03900
C 	C 	0.69959 0.29842 0.99243 -0.06500
C 	C 	0.69603 0.25497 0.97389 -0.02900
C 	C 	0.75194 0.23355 0.95717 0.03600
C 	C 	0.81230 0.25572 0.95912 -0.07600
C 	C 	0.81549 0.29978 0.97599 -0.02400
C 	C 	0.75943 0.32149 0.99196 0.04600
S 	S 	0.74604 0.17851 0.93530 -0.04200
S 	S 	0.76420 0.37820 0.00865 -0.05400
H 	H 	0.75230 0.40466 0.97017 0.04400
H 	H 	0.75674 0.14879 0.97125 0.03600
H 	H 	0.64997 0.23740 0.97354 0.03500
H 	H 	0.86157 0.31732 0.97630 0.04100
C 	C 	0.19239 0.18625 0.77153 -0.08200
C 	C 	0.18339 0.18951 0.72262 -0.02600
C 	C 	0.23687 0.19058 0.69225 0.03700
C 	C 	0.30020 0.18664 0.71078 -0.08500
C 	C 	0.30932 0.18739 0.75977 -0.02400
C 	C 	0.25588 0.18812 0.79021 0.03500
S 	S 	0.22399 0.19919 0.63157 -0.03100
S 	S 	0.26911 0.19430 0.85117 -0.02400
H 	H 	0.27199 0.23895 0.86201 0.03600
H 	H 	0.22660 0.24405 0.62172 0.03600
H 	H 	0.13473 0.19019 0.70808 0.03000
H 	H 	0.35801 0.18647 0.77426 0.02700
C 	C 	0.68952 0.15165 0.71087 -0.07700
C 	C 	0.70489 0.11488 0.73961 -0.02500
C 	C 	0.76275 0.11429 0.76548 0.04000
C 	C 	0.80605 0.15065 0.76238 -0.08000
C 	C 	0.79125 0.18705 0.73323 -0.02600
C 	C 	0.73309 0.18803 0.70785 0.03400
S 	S 	0.78064 0.06772 0.80123 -0.04400
S 	S 	0.71409 0.23591 0.67431 -0.06000
H 	H 	0.73715 0.23068 0.62935 0.04900
H 	H 	0.81548 0.03713 0.77563 0.03300
H 	H 	0.67180 0.08674 0.74185 0.04500
H 	H 	0.82461 0.21504 0.73090 0.02500
C 	C 	0.67925 0.74669 0.45889 -0.07500
C 	C 	0.73674 0.77159 0.46232 -0.02600
C 	C 	0.79378 0.75168 0.47916 0.03800
C 	C 	0.79358 0.70617 0.49240 -0.07700
C 	C 	0.73677 0.68077 0.48694 -0.02000
C 	C 	0.67982 0.70067 0.46999 0.03900
S 	S 	0.86419 0.78457 0.48551 -0.08200
S 	S 	0.61017 0.66740 0.46173 -0.04800
H 	H 	0.57365 0.66778 0.50209 0.03700
H 	H 	0.86607 0.80212 0.53010 0.02900
H 	H 	0.73663 0.80683 0.45316 0.04100
H 	H 	0.73678 0.64556 0.49621 0.05000
C 	C 	0.17813 0.75291 0.52992 -0.07100
C 	C 	0.21371 0.73037 0.49510 -0.02500
C 	C 	0.27138 0.74862 0.47752 0.03700
C 	C 	0.29454 0.78960 0.49538 -0.07600
C 	C 	0.26020 0.81152 0.53128 -0.01900
C 	C 	0.20167 0.79381 0.54819 0.03900
S 	S 	0.31401 0.71994 0.43296 -0.05700
S 	S 	0.15660 0.82461 0.58980 -0.02800
H 	H 	0.11435 0.85242 0.56671 0.04200
H 	H 	0.35914 0.69224 0.45316 0.02900
H 	H 	0.19589 0.69890 0.48112 0.03900
H 	H 	0.27778 0.84322 0.54483 0.04800
C 	C 	0.50975 0.04512 0.51313 -0.07800
C 	C 	0.51173 0.00929 0.54501 -0.02300
C 	C 	0.51282 0.96510 0.52859 0.04100
C 	C 	0.51205 0.95659 0.47973 -0.07800
C 	C 	0.51687 0.99242 0.44803 -0.02400
C 	C 	0.51539 0.03662 0.46440 0.04200
S 	S 	0.51111 0.92078 0.56947 -0.06100
S 	S 	0.51617 0.08084 0.42335 -0.06400
H 	H 	0.45362 0.09180 0.41167 0.03900
H 	H 	0.44795 0.90892 0.57807 0.04000
H 	H 	0.50909 0.01575 0.58257 0.03400
H 	H 	0.51778 0.98594 0.41043 0.03200
C 	C 	0.80062 0.75309 0.02247 -0.09500
C 	C 	0.76869 0.77100 0.98313 -0.00600
C 	C 	0.71211 0.75102 0.96581 0.02900
C 	C 	0.68651 0.71285 0.98830 -0.06000
C 	C 	0.71786 0.69521 0.02805 -0.04100
C 	C 	0.77536 0.71457 0.04476 0.04900
S 	S 	0.67352 0.77428 0.91610 -0.06400
S 	S 	0.81750 0.68837 0.09119 -0.05400
H 	H 	0.86078 0.65815 0.07296 0.02900
H 	H 	0.69604 0.75366 0.87616 0.04000
H 	H 	0.78816 0.80044 0.96580 0.03600
H 	H 	0.69872 0.66548 0.04500 0.04900
C 	C 	0.30101 0.75238 0.96188 -0.08700
C 	C 	0.28239 0.79506 0.94636 -0.00800
C 	C 	0.22619 0.81529 0.96419 0.02500
C 	C 	0.18781 0.79241 0.99758 -0.03800
C 	C 	0.20541 0.74923 0.01195 -0.06300
C 	C 	0.26153 0.72902 0.99413 0.06700
S 	S 	0.20555 0.86970 0.94556 -0.01800
S 	S 	0.28116 0.67409 0.01165 -0.08100
H 	H 	0.25471 0.64428 0.98038 0.04800
H 	H 	0.16482 0.86707 0.90748 0.04000
H 	H 	0.31254 0.81300 0.92139 0.04400
H 	H 	0.17554 0.73143 0.03722 0.04500
C 	C 	0.97494 0.95862 0.00849 -0.08800
C 	C 	0.97165 0.99616 0.03805 -0.02400
C 	C 	0.97416 0.03939 0.01910 0.02800
C 	C 	0.97891 0.04523 0.96988 -0.05700
C 	C 	0.97643 0.00776 0.94019 -0.04000
C 	C 	0.97486 0.96452 0.95918 0.05700
S 	S 	0.97610 0.08569 0.05753 -0.10400
S 	S 	0.97723 0.91812 0.92092 -0.10100
H 	H 	0.04050 0.90566 0.91382 0.06600
H 	H 	0.03935 0.09638 0.06737 0.06400
H 	H 	0.97085 0.99170 0.07597 0.02800
H 	H 	0.97899 0.01219 0.90230 0.03400
C 	C 	0.18087 0.83869 0.21882 -0.08500
C 	C 	0.20954 0.79788 0.23169 -0.02100
C 	C 	0.26339 0.79712 0.26195 0.03800
C 	C 	0.28962 0.83773 0.27887 -0.08500
C 	C 	0.25997 0.87838 0.26672 -0.02500
C 	C 	0.20536 0.87906 0.23751 0.03900
S 	S 	0.29544 0.74522 0.27997 -0.04400
S 	S 	0.16632 0.93048 0.22644 -0.06300
H 	H 	0.19227 0.94958 0.18679 0.04400
H 	H 	0.34333 0.73240 0.24929 0.03400
H 	H 	0.19017 0.76674 0.21801 0.04300
H 	H 	0.27927 0.90960 0.28029 0.04100
C 	C 	0.67743 0.86114 0.26825 -0.07900
C 	C 	0.69454 0.82355 0.24151 -0.02500
C 	C 	0.75211 0.82315 0.21533 0.03100
C 	C 	0.79305 0.86105 0.21545 -0.07600
C 	C 	0.77552 0.89891 0.24191 -0.02600
C 	C 	0.71801 0.89912 0.26830 0.04000
S 	S 	0.77363 0.77429 0.18430 -0.04500
S 	S 	0.69737 0.94708 0.30112 -0.04700
H 	H 	0.65987 0.97482 0.27397 0.03500
H 	H 	0.81082 0.74741 0.21260 0.02400
H 	H 	0.66340 0.79429 0.24156 0.02900
H 	H 	0.80661 0.92819 0.24195 0.04300
