data_crystal

_cell_length_a 16.46512
_cell_length_b 15.82378
_cell_length_c 36.56482
_cell_angle_alpha 89.87983
_cell_angle_beta  89.88212
_cell_angle_gamma 119.42001

_symmetry_space_group_name_	'P 1'
_symmetry_space_group_name_H-M	'P 1'

loop_
_symmetry_equiv_pos_as_xyz
  x,y,z

loop_
_atom_site_label
_atom_site_type_symbol
_atom_site_fract_x
_atom_site_fract_y
_atom_site_fract_z
_atom_site_charge
Ni	Ni	0.06783 0.94383 0.74788 1.10600
Ni	Ni	0.06421 0.14181 0.72366 1.11500
O 	O 	0.05760 0.86692 0.24123 -0.40000
N 	N 	0.00186 0.68157 0.12126 -0.20600
H 	H 	0.00977 0.65499 0.09615 0.09600
C 	C 	0.00332 0.43833 0.51373 0.08800
N 	N 	0.07192 0.43218 0.53600 -0.02400
O 	O 	0.10151 0.48303 0.56581 -0.11900
C 	C 	0.04142 0.39745 0.01764 -0.04000
H 	H 	0.05403 0.40165 0.04684 0.06400
O 	O 	0.12047 0.03337 0.79253 -0.38600
O 	O 	0.15609 0.18339 0.76751 -0.37400
O 	O 	0.19461 0.02667 0.72096 -0.36900
O 	O 	0.15779 0.12968 0.69207 -0.39200
C 	C 	0.10961 0.50621 0.46240 0.30600
C 	C 	0.19595 0.54379 0.00808 0.29200
C 	C 	0.05958 0.17404 0.20863 0.30700
C 	C 	0.05871 0.20618 0.30070 0.29000
C 	C 	0.10606 0.92984 0.21572 0.30900
C 	C 	0.07293 0.92034 0.32401 0.27400
Ni	Ni	0.11042 0.07391 0.26700 1.11800
O 	O 	0.13359 0.02203 0.22040 -0.39200
O 	O 	0.11580 0.18240 0.23546 -0.38900
O 	O 	0.13521 0.98605 0.30094 -0.37800
O 	O 	0.09456 0.14950 0.30820 -0.38300
C 	C 	0.07115 0.32467 0.18347 -0.03400
C 	C 	0.09539 0.25126 0.18087 -0.09400
H 	H 	0.01195 0.31286 0.20017 0.04700
H 	H 	0.14202 0.12164 0.15920 0.10800
C 	C 	0.15359 0.82232 0.11496 -0.09500
C 	C 	0.06853 0.76903 0.13392 0.11400
C 	C 	0.05353 0.80609 0.16651 -0.05300
C 	C 	0.12278 0.89537 0.18044 -0.09300
C 	C 	0.08141 0.37506 0.29407 -0.04500
C 	C 	0.12133 0.31476 0.29866 -0.08000
C 	C 	0.13532 0.47600 0.29976 0.11200
N 	N 	0.09636 0.53360 0.29542 -0.20100
H 	H 	0.13549 0.60836 0.29980 0.09600
C 	C 	0.05873 0.81369 0.37746 -0.05700
C 	C 	0.10562 0.90523 0.36040 -0.07700
C 	C 	0.18921 0.97801 0.37641 0.11100
C 	C 	0.19554 0.85498 0.41492 -0.07900
C 	C 	0.10139 0.79056 0.40618 0.11200
N 	N 	0.05240 0.70616 0.42489 -0.20900
H 	H 	0.07808 0.69453 0.44930 0.10700
C 	C 	0.01518 0.44804 0.47549 -0.07700
C 	C 	0.11424 0.45628 0.99368 -0.06400
C 	C 	0.09908 0.44354 0.95566 0.10600
N 	N 	0.17382 0.49634 0.93046 -0.02300
C 	C 	0.12643 0.41557 0.16664 0.10600
N 	N 	0.10097 0.48513 0.16936 -0.20000
H 	H 	0.14112 0.55380 0.15782 0.10000
H 	H 	0.04034 0.47107 0.18350 0.08900
H 	H 	0.18107 0.09663 0.35511 0.10400
O 	O 	0.10448 0.37533 0.52653 -0.08700
H 	H 	0.08753 0.62543 0.63757 0.09900
H 	H 	0.03417 0.86567 0.91158 0.08400
O 	O 	0.20721 0.58925 0.92627 -0.09900
H 	H 	0.09349 0.30178 0.59783 0.11300
H 	H 	0.04341 0.73449 0.66500 0.05300
N 	N 	0.06153 0.23166 0.60877 -0.20400
H 	H 	0.10219 0.21054 0.62402 0.10600
O 	O 	0.19090 0.62486 0.01063 -0.35900
O 	O 	0.19973 0.44973 0.90832 -0.09100
N 	N 	0.22262 0.07328 0.36834 -0.19600
C 	C 	0.17279 0.26701 0.15938 0.11700
C 	C 	0.23546 0.95128 0.40248 -0.04700
N 	N 	0.19038 0.19316 0.15233 -0.20100
H 	H 	0.25045 0.20600 0.13804 0.09600
C 	C 	0.17543 0.12800 0.78989 0.29000
C 	C 	0.22028 0.11228 0.70690 0.31200
C 	C 	0.25849 0.81468 0.42147 0.28900
C 	C 	0.24913 0.57257 0.34716 0.29600
Ni	Ni	0.27631 0.52145 0.41943 1.12700
O 	O 	0.28409 0.80645 0.45564 -0.35400
O 	O 	0.29964 0.80195 0.39250 -0.37300
O 	O 	0.32780 0.65978 0.34940 -0.37300
O 	O 	0.20494 0.52402 0.37653 -0.39100
O 	O 	0.14967 0.59823 0.47152 -0.38300
O 	O 	0.15908 0.46324 0.45261 -0.34700
O 	O 	0.29374 0.64797 0.42762 -0.71100
H 	H 	0.23592 0.64283 0.41774 0.17100
C 	C 	0.19323 0.77053 0.09512 0.30100
C 	C 	0.25793 0.51843 0.12324 0.29200
Ni	Ni	0.30301 0.75460 0.02804 1.11500
O 	O 	0.27739 0.54513 0.01127 -0.36100
O 	O 	0.26841 0.50076 0.08864 -0.38400
O 	O 	0.22174 0.79612 0.06052 -0.36900
O 	O 	0.21738 0.71586 0.11456 -0.39100
H 	H 	0.25027 0.63418 0.07047 0.16100
C 	C 	0.23173 0.35943 0.14495 -0.04300
C 	C 	0.20819 0.43331 0.14740 -0.08200
C 	C 	0.21435 0.91833 0.12528 -0.04200
C 	C 	0.20485 0.95200 0.15959 0.10600
N 	N 	0.27779 0.03344 0.17360 -0.19600
H 	H 	0.27700 0.96138 0.10941 0.05700
H 	H 	0.28486 0.04600 0.20172 0.10000
C 	C 	0.22040 0.35994 0.30211 0.10800
C 	C 	0.27216 0.46059 0.30844 -0.04600
C 	C 	0.22678 0.51498 0.31342 -0.09200
N 	N 	0.26644 0.30895 0.29824 -0.19100
H 	H 	0.24093 0.24831 0.28143 0.06500
H 	H 	0.30529 0.00361 0.41086 0.07900
H 	H 	0.28743 0.12582 0.37826 0.10100
O 	O 	0.17541 0.23744 0.51586 -0.09300
C 	C 	0.34705 0.27102 0.68370 -0.04400
C 	C 	0.32047 0.18728 0.70516 -0.09400
H 	H 	0.29450 0.28540 0.67209 0.05100
H 	H 	0.31013 0.07458 0.76396 0.09700
C 	C 	0.24573 0.12659 0.84982 -0.03800
C 	C 	0.25405 0.17391 0.81614 -0.08700
H 	H 	0.17700 0.07835 0.86093 0.05800
H 	H 	0.24935 0.04762 0.91210 0.10100
H 	H 	0.02734 0.50444 0.28672 0.08800
N 	N 	0.24045 0.30962 0.49756 -0.01700
O 	O 	0.23073 0.31648 0.46257 -0.11900
C 	C 	0.32965 0.52127 0.49460 0.32700
Ni	Ni	0.28969 0.68282 0.47615 1.11600
Ni	Ni	0.38449 0.74500 0.39608 1.12100
O 	O 	0.28629 0.56744 0.50600 -0.34800
Ni	Ni	0.34861 0.73791 0.11373 1.12000
Ni	Ni	0.36535 0.59923 0.05565 1.12200
O 	O 	0.37693 0.73171 0.98613 -0.35400
O 	O 	0.31048 0.60623 0.13816 -0.37900
O 	O 	0.31622 0.68258 0.06644 -0.71500
H 	H 	0.29347 0.37231 0.12975 0.05700
H 	H 	0.33357 0.07967 0.15678 0.09400
H 	H 	0.34582 0.49328 0.31424 0.05600
H 	H 	0.33507 0.33818 0.30743 0.08900
C 	C 	0.32833 0.37095 0.51450 0.09600
C 	C 	0.39114 0.17725 0.72404 0.11600
N 	N 	0.37023 0.10337 0.74796 -0.19700
H 	H 	0.41638 0.42805 0.64351 0.10100
H 	H 	0.34470 0.02412 0.04983 0.05900
H 	H 	0.36883 0.57853 0.94295 0.09000
O 	O 	0.38832 0.44703 0.89082 -0.09000
C 	C 	0.34395 0.24077 0.80354 0.11200
C 	C 	0.32522 0.13542 0.86788 0.11700
N 	N 	0.31516 0.08813 0.90008 -0.19800
N 	N 	0.35731 0.31199 0.77945 -0.19900
H 	H 	0.37215 0.08907 0.91296 0.11200
H 	H 	0.30426 0.32798 0.77382 0.10600
O 	O 	0.38652 0.54697 0.38599 -0.37700
O 	O 	0.35909 0.53155 0.46105 -0.37500
C 	C 	0.44143 0.33402 0.67586 0.11900
C 	C 	0.45057 0.72270 0.99288 0.32700
O 	O 	0.42522 0.87829 0.04186 -0.36700
O 	O 	0.38765 0.88000 0.10182 -0.37100
O 	O 	0.45928 0.85707 0.62279 -0.10200
C 	C 	0.38619 0.33271 0.52404 -0.02000
C 	C 	0.35857 0.47030 0.52029 -0.07400
H 	H 	0.36325 0.25675 0.51907 0.07000
N 	N 	0.46682 0.41419 0.65495 -0.20000
H 	H 	0.42139 0.08569 0.75533 0.09400
N 	N 	0.41091 0.19300 0.01419 -0.02200
O 	O 	0.33834 0.13312 0.99536 -0.10300
O 	O 	0.43443 0.28436 0.01549 -0.09700
C 	C 	0.44353 0.60961 0.94559 -0.03200
N 	N 	0.42968 0.45814 0.92212 -0.02400
O 	O 	0.41689 0.38236 0.94072 -0.08500
C 	C 	0.42110 0.23748 0.81807 -0.04100
C 	C 	0.41456 0.19343 0.85224 -0.08800
H 	H 	0.42371 0.35828 0.76885 0.08900
O 	O 	0.01872 0.85878 0.70217 -0.39100
C 	C 	0.41971 0.06896 0.05186 -0.03000
C 	C 	0.46857 0.62658 0.38849 0.31600
O 	O 	0.43117 0.74534 0.47746 -0.38100
O 	O 	0.45888 0.85405 0.43372 -0.34600
C 	C 	0.43216 0.92627 0.07183 0.31300
O 	O 	0.46696 0.70659 0.02622 -0.38700
O 	O 	0.46080 0.62880 0.09579 -0.38000
H 	H 	0.46476 0.65068 0.31547 0.05300
H 	H 	0.42966 0.05541 0.52679 0.05600
O 	O 	0.43835 0.06893 0.45658 -0.10900
C 	C 	0.48505 0.55329 0.93696 0.10000
C 	C 	0.43965 0.52582 0.54050 -0.02300
N 	N 	0.02548 0.56571 0.64651 -0.20400
C 	C 	0.48478 0.24553 0.71764 -0.04200
C 	C 	0.47651 0.83392 0.46689 0.31200
O 	O 	0.47494 0.69991 0.40641 -0.38700
C 	C 	0.45949 0.00781 0.52810 -0.03500
H 	H 	0.46228 0.60163 0.54575 0.06800
C 	C 	0.46478 0.15852 0.03345 0.09300
C 	C 	0.49560 0.69900 0.96328 -0.07900
C 	C 	0.49686 0.24207 0.87600 0.30400
O 	O 	0.48468 0.77895 0.11137 -0.37700
C 	C 	0.48727 0.98821 0.56218 -0.11200
C 	C 	0.48476 0.98054 0.49552 0.07500
C 	C 	0.47350 0.39236 0.53971 -0.07800
C 	C 	0.50853 0.31051 0.68843 -0.10200
C 	C 	0.47204 0.03236 0.06918 -0.07400
H 	H 	0.48936 0.28248 0.80593 0.04700
C 	C 	0.50939 0.90744 0.49634 -0.07900
N 	N 	0.49345 0.03324 0.46241 -0.01600
N 	N 	0.52325 0.87857 0.59794 -0.02000
C 	C 	0.49962 0.48933 0.54857 0.09700
H 	H 	0.53700 0.46551 0.65131 0.11400
C 	C 	0.51174 0.06160 0.59173 0.33000
O 	O 	0.50980 0.13794 0.58192 -0.38500
C 	C 	0.51500 0.71657 0.10884 0.31200
C 	C 	0.51699 0.91877 0.56353 0.10800
O 	O 	0.53366 0.33650 0.87847 -0.36800
C 	C 	0.53359 0.67782 0.32691 -0.05000
H 	H 	0.53127 0.75757 0.26489 0.09100
C 	C 	0.53036 0.88080 0.53063 -0.04200
H 	H 	0.53907 0.23718 0.73113 0.04700
H 	H 	0.01388 0.49615 0.64042 0.10000
C 	C 	0.53107 0.35030 0.55199 0.32500
C 	C 	0.54303 0.64711 0.36186 -0.10100
O 	O 	0.54363 0.19600 0.88642 -0.37200
H 	H 	0.54444 0.61964 0.16331 0.05400
H 	H 	0.00818 0.34365 0.28734 0.05500
H 	H 	0.54841 0.82354 0.53186 0.06900
O 	O 	0.54487 0.29151 0.53079 -0.35000
O 	O 	0.00141 0.00954 0.73795 -0.71500
O 	O 	0.56649 0.22735 0.65223 -0.38100
O 	O 	0.55973 0.36386 0.58551 -0.38000
C 	C 	0.56293 0.20993 0.03139 -0.06700
C 	C 	0.56869 0.09386 0.07377 0.10300
C 	C 	0.57575 0.31102 0.66231 0.32000
O 	O 	0.57759 0.21684 0.96620 -0.37100
C 	C 	0.00855 0.38354 0.94238 -0.04500
O 	O 	0.56479 0.05779 0.44094 -0.09200
C 	C 	0.58037 0.58972 0.94413 -0.07600
O 	O 	0.57725 0.07527 0.61520 -0.34800
O 	O 	0.58906 0.85715 0.60347 -0.10900
H 	H 	0.59012 0.57798 0.41847 0.11500
O 	O 	0.58898 0.02274 0.12766 -0.09800
N 	N 	0.59029 0.55323 0.56285 -0.02800
C 	C 	0.59355 0.74259 0.96342 0.09600
N 	N 	0.59651 0.79127 0.27755 -0.20000
O 	O 	0.59844 0.59505 0.59426 -0.11900
H 	H 	0.95341 0.45564 0.42474 0.06100
H 	H 	0.90763 0.37119 0.73034 0.09800
H 	H 	0.97696 0.91363 0.85970 0.05300
C 	C 	0.94547 0.44974 0.45424 -0.02100
H 	H 	0.91489 0.26863 0.71371 0.10600
O 	O 	0.96922 0.11287 0.21046 -0.36600
O 	O 	0.98830 0.85452 0.31241 -0.37000
O 	O 	0.97043 0.16742 0.28942 -0.35400
O 	O 	0.97914 0.99219 0.26952 -0.71500
H 	H 	0.97124 0.99120 0.29626 0.15500
H 	H 	0.98856 0.76462 0.18135 0.05900
O 	O 	0.78834 0.54252 0.45873 -0.09600
H 	H 	0.99011 0.75996 0.36815 0.06900
H 	H 	0.98510 0.65505 0.41675 0.11000
H 	H 	0.98936 0.02285 0.76307 0.15900
C 	C 	0.84640 0.58867 0.89729 0.31500
C 	C 	0.72513 0.28106 0.84630 0.31500
C 	C 	0.62466 0.53108 0.93682 0.31100
C 	C 	0.84730 0.34448 0.95598 0.30900
C 	C 	0.60801 0.26411 0.99755 0.30800
Ni	Ni	0.67427 0.42715 0.87666 1.11600
Ni	Ni	0.74888 0.45522 0.96026 1.12400
Ni	Ni	0.65795 0.24584 0.92178 1.12100
O 	O 	0.85384 0.42942 0.95064 -0.37600
O 	O 	0.81648 0.50720 0.88025 -0.37800
O 	O 	0.82696 0.58458 0.93246 -0.36300
O 	O 	0.68262 0.33110 0.83921 -0.38000
O 	O 	0.74727 0.27280 0.87984 -0.38300
O 	O 	0.68813 0.34875 0.99985 -0.36400
O 	O 	0.65807 0.53559 0.90340 -0.36300
O 	O 	0.65242 0.49872 0.96514 -0.36500
O 	O 	0.76545 0.26380 0.95475 -0.35500
O 	O 	0.67271 0.37204 0.92204 -0.71900
H 	H 	0.61123 0.35667 0.93185 0.17600
C 	C 	0.77142 0.40817 0.52350 0.30200
C 	C 	0.76176 0.15630 0.57596 0.28800
C 	C 	0.82788 0.42046 0.65015 0.30400
Ni	Ni	0.61759 0.22009 0.54760 1.11700
Ni	Ni	0.67208 0.21436 0.63249 1.12500
Ni	Ni	0.69347 0.41122 0.59821 1.12600
O 	O 	0.71682 0.31812 0.51338 -0.35800
O 	O 	0.74149 0.45445 0.54555 -0.35000
O 	O 	0.81937 0.44786 0.61711 -0.39100
O 	O 	0.77155 0.32973 0.66207 -0.37400
O 	O 	0.68866 0.13666 0.55376 -0.34600
O 	O 	0.76720 0.18841 0.60978 -0.37500
O 	O 	0.64584 0.39340 0.65037 -0.38600
O 	O 	0.68458 0.28933 0.58889 -0.70900
H 	H 	0.74890 0.30999 0.58108 0.16200
C 	C 	0.93382 0.78637 0.70247 0.32500
C 	C 	0.89089 0.85875 0.79353 0.29000
C 	C 	0.94922 0.05902 0.65555 0.31600
C 	C 	0.88594 0.11699 0.75157 0.29500
Ni	Ni	0.87548 0.93494 0.72103 1.11900
O 	O 	0.91257 0.96950 0.66831 -0.38100
O 	O 	0.86419 0.80116 0.71152 -0.37200
O 	O 	0.97789 0.17037 0.75340 -0.37500
O 	O 	0.84522 0.04466 0.72780 -0.37700
O 	O 	0.95401 0.84158 0.77787 -0.37700
O 	O 	0.84213 0.88924 0.77381 -0.38200
O 	O 	0.99020 0.13450 0.67794 -0.37600
C 	C 	0.78312 0.85862 0.30353 0.29600
C 	C 	0.82601 0.87412 0.20269 0.31000
Ni	Ni	0.89784 0.03951 0.25769 1.11400
Ni	Ni	0.94089 0.85876 0.26183 1.12100
O 	O 	0.81195 0.95338 0.30065 -0.36500
O 	O 	0.80901 0.81403 0.27953 -0.38500
O 	O 	0.80404 0.92623 0.22441 -0.37000
O 	O 	0.89797 0.86177 0.20986 -0.38500
C 	C 	0.60608 0.68778 0.15658 -0.04000
C 	C 	0.60534 0.74079 0.12590 -0.09200
C 	C 	0.68763 0.82712 0.11618 0.12600
C 	C 	0.76422 0.86600 0.14018 -0.04200
C 	C 	0.76102 0.81818 0.17293 -0.08900
C 	C 	0.68399 0.72498 0.17989 0.10900
N 	N 	0.68402 0.67144 0.20900 -0.19800
H 	H 	0.82468 0.93570 0.13408 0.06100
N 	N 	0.69357 0.87270 0.08391 -0.19900
H 	H 	0.62469 0.60563 0.21542 0.09000
H 	H 	0.74435 0.69192 0.22423 0.09100
H 	H 	0.63973 0.84284 0.06478 0.12900
H 	H 	0.75412 0.93688 0.07701 0.12000
H 	H 	0.94009 0.64061 0.13598 0.09800
C 	C 	0.63369 0.67834 0.37530 0.12200
C 	C 	0.71096 0.75544 0.35788 -0.04700
C 	C 	0.69964 0.79657 0.32558 -0.08500
C 	C 	0.60997 0.75561 0.30948 0.11100
H 	H 	0.78036 0.78107 0.36879 0.05500
N 	N 	0.64634 0.63723 0.40585 -0.20100
H 	H 	0.64932 0.85456 0.26571 0.10700
H 	H 	0.71303 0.66245 0.41664 0.11000
C 	C 	0.93298 0.45008 0.53036 -0.02400
C 	C 	0.86550 0.45622 0.50914 -0.07600
C 	C 	0.87638 0.46379 0.47086 0.10100
N 	N 	0.81324 0.47966 0.44870 -0.02200
H 	H 	0.92483 0.44354 0.55983 0.05800
O 	O 	0.78208 0.43273 0.41817 -0.10100
O 	O 	0.66332 0.58111 0.54209 -0.10200
C 	C 	0.84497 0.00106 0.60027 -0.03000
C 	C 	0.92528 0.07439 0.61751 -0.08800
C 	C 	0.97138 0.16733 0.60075 0.13500
C 	C 	0.92317 0.19119 0.57440 -0.04100
C 	C 	0.82967 0.12446 0.56654 -0.08100
C 	C 	0.80228 0.02625 0.57209 0.12900
N 	N 	0.74268 0.95815 0.54861 -0.20100
H 	H 	0.81566 0.92601 0.60875 0.06300
H 	H 	0.95135 0.26575 0.56584 0.07100
H 	H 	0.72388 0.88521 0.55209 0.11000
H 	H 	0.72014 0.97869 0.52525 0.11100
C 	C 	0.98153 0.67228 0.67584 -0.03200
C 	C 	0.91858 0.68604 0.69766 -0.10000
C 	C 	0.84389 0.60382 0.71500 0.11700
C 	C 	0.82373 0.51028 0.70421 -0.04500
C 	C 	0.87700 0.49808 0.67694 -0.09900
C 	C 	0.96311 0.57834 0.66683 0.11800
H 	H 	0.76226 0.44742 0.71497 0.05600
N 	N 	0.79495 0.61378 0.74299 -0.20100
H 	H 	0.82160 0.67787 0.75776 0.11300
H 	H 	0.73463 0.55360 0.75291 0.08600
C 	C 	0.93254 0.34211 0.96667 -0.05500
C 	C 	0.95064 0.33843 0.00414 0.10100
H 	H 	0.99598 0.38058 0.91319 0.08100
N 	N 	0.87643 0.27877 0.02873 -0.02300
O 	O 	0.81644 0.19023 0.01966 -0.07900
O 	O 	0.87348 0.30991 0.06135 -0.10400
C 	C 	0.61377 0.18310 0.05491 -0.03000
N 	N 	0.62171 0.06414 0.09617 -0.02200
H 	H 	0.68877 0.22731 0.05623 0.08800
O 	O 	0.70471 0.08302 0.08600 -0.08600
C 	C 	0.63548 0.68660 0.95475 -0.02300
N 	N 	0.64972 0.84118 0.97523 -0.02100
H 	H 	0.71052 0.71795 0.95662 0.06800
O 	O 	0.72602 0.86682 0.99351 -0.10300
O 	O 	0.62566 0.90586 0.96696 -0.09800
C 	C 	0.76547 0.09482 0.79723 -0.04500
C 	C 	0.82865 0.15249 0.77009 -0.08400
C 	C 	0.84291 0.24716 0.76342 0.11300
C 	C 	0.80299 0.28660 0.78723 -0.03800
C 	C 	0.74637 0.23161 0.81652 -0.09500
C 	C 	0.72227 0.13268 0.81996 0.11600
N 	N 	0.65704 0.07360 0.84465 -0.20000
H 	H 	0.75134 0.02086 0.80125 0.05500
H 	H 	0.81827 0.36103 0.78355 0.05200
N 	N 	0.89331 0.29966 0.73402 -0.19900
H 	H 	0.64286 0.00207 0.84826 0.09800
H 	H 	0.61655 0.09637 0.85906 0.09000
C 	C 	0.78195 0.64738 0.84839 -0.01700
C 	C 	0.85002 0.66957 0.87556 -0.10800
C 	C 	0.91788 0.76784 0.88147 0.12300
C 	C 	0.91943 0.83991 0.85814 -0.04600
C 	C 	0.85521 0.81388 0.82922 -0.08800
C 	C 	0.77692 0.72120 0.82967 0.10500
N 	N 	0.70015 0.70106 0.80964 -0.19800
H 	H 	0.73201 0.57260 0.84220 -0.01100
N 	N 	0.98449 0.79289 0.90756 -0.19600
H 	H 	0.64502 0.62993 0.80767 0.08700
H 	H 	0.69194 0.75666 0.79798 0.10200
H 	H 	0.98863 0.74066 0.92369 0.10800
