data_crystal

_cell_length_a 17.86236
_cell_length_b 15.10939
_cell_length_c 16.89190
_cell_angle_alpha 90.00000
_cell_angle_beta  90.00000
_cell_angle_gamma 90.03475

_symmetry_space_group_name_	'P 1'
_symmetry_space_group_name_H-M	'P 1'

loop_
_symmetry_equiv_pos_as_xyz
  x,y,z

loop_
_atom_site_label
_atom_site_type_symbol
_atom_site_fract_x
_atom_site_fract_y
_atom_site_fract_z
_atom_site_charge
Co	Co	0.93532 0.86502 0.00721 1.16800
Co	Co	0.11207 0.06143 0.00597 1.19100
Co	Co	0.11727 0.87327 0.99931 1.19000
Co	Co	0.93019 0.05260 0.01094 1.16600
C 	C 	0.81229 0.80001 0.11663 0.29400
Co	Co	0.77016 0.95560 0.01163 1.16400
Co	Co	0.27732 0.97012 0.99527 1.16600
C 	C 	0.81856 0.08854 0.88911 0.30000
O 	O 	0.27522 0.85529 0.92606 -0.38900
O 	O 	0.16084 0.96885 0.01598 -0.77800
C 	C 	0.22399 0.84264 0.87094 0.29800
O 	O 	0.02824 0.79142 0.99174 -0.43000
O 	O 	0.01837 0.13561 0.00222 -0.43300
C 	C 	0.21882 0.10142 0.87556 0.29500
O 	O 	0.02525 0.96161 0.04655 -0.54500
C 	C 	0.24378 0.82462 0.11349 0.29300
C 	C 	0.82406 0.83578 0.87891 0.30300
C 	C 	0.80884 0.09536 0.13355 0.29100
O 	O 	0.15438 0.86629 0.88447 -0.39200
O 	O 	0.76787 0.88307 0.90657 -0.38400
O 	O 	0.89364 0.85838 0.89393 -0.41600
O 	O 	0.27321 0.04583 0.89287 -0.37200
O 	O 	0.14883 0.08119 0.89221 -0.38700
O 	O 	0.28445 0.89589 0.09831 -0.38100
O 	O 	0.19104 0.79609 0.06432 -0.37200
O 	O 	0.76676 0.02569 0.11687 -0.37900
O 	O 	0.85940 0.12650 0.08314 -0.38900
O 	O 	0.88753 0.95628 0.02629 -0.79600
C 	C 	0.24135 0.11816 0.11097 0.29400
O 	O 	0.29091 0.08668 0.06030 -0.38300
O 	O 	0.17166 0.13351 0.08883 -0.37400
O 	O 	0.75913 0.83714 0.07360 -0.38300
O 	O 	0.87935 0.78483 0.08651 -0.39600
O 	O 	0.76924 0.07330 0.94557 -0.37000
O 	O 	0.88851 0.06448 0.89870 -0.40500
Co	Co	0.61351 0.55368 0.50798 1.19200
Co	Co	0.42515 0.37393 0.50629 1.19000
Co	Co	0.43140 0.56217 0.50054 1.18700
Co	Co	0.60706 0.36461 0.51355 1.18800
C 	C 	0.73833 0.60411 0.62577 0.29400
Co	Co	0.77313 0.45557 0.51261 1.16600
Co	Co	0.26564 0.47113 0.49484 1.17100
C 	C 	0.72109 0.32642 0.38750 0.29600
O 	O 	0.26957 0.54174 0.38937 -0.37900
O 	O 	0.38208 0.47020 0.51674 -0.77700
C 	C 	0.32563 0.59278 0.36740 0.29800
O 	O 	0.52565 0.63540 0.49264 -0.46100
O 	O 	0.51312 0.29049 0.50583 -0.46100
C 	C 	0.32079 0.33658 0.37751 0.29900
O 	O 	0.51799 0.46524 0.54639 -0.57500
C 	C 	0.30279 0.62571 0.60258 0.29400
C 	C 	0.72998 0.59132 0.39056 0.29900
C 	C 	0.73177 0.30397 0.62285 0.29600
O 	O 	0.39499 0.57171 0.38543 -0.39900
O 	O 	0.77762 0.57415 0.44815 -0.39200
O 	O 	0.65993 0.56594 0.39712 -0.39900
O 	O 	0.26842 0.35275 0.43072 -0.38300
O 	O 	0.39035 0.35969 0.39181 -0.40000
O 	O 	0.25228 0.59111 0.55464 -0.37600
O 	O 	0.37166 0.64114 0.57766 -0.37700
O 	O 	0.78112 0.33431 0.57142 -0.38900
O 	O 	0.66013 0.29780 0.60437 -0.37900
O 	O 	0.65576 0.45806 0.52443 -0.77500
C 	C 	0.29801 0.33593 0.62264 0.29300
O 	O 	0.25541 0.40334 0.60113 -0.37200
O 	O 	0.34953 0.30235 0.57486 -0.37500
O 	O 	0.76913 0.52489 0.61797 -0.39100
O 	O 	0.67762 0.62834 0.58556 -0.37400
O 	O 	0.77109 0.38723 0.40585 -0.38500
O 	O 	0.64945 0.33986 0.40245 -0.40000
C 	C 	0.26908 0.16593 0.18122 -0.05800
C 	C 	0.32055 0.23524 0.17149 -0.00700
C 	C 	0.33806 0.29135 0.23489 0.00700
C 	C 	0.30406 0.27781 0.30957 -0.06200
C 	C 	0.25465 0.20633 0.31989 -0.00600
C 	C 	0.23738 0.15025 0.25637 0.00700
H 	H 	0.34499 0.24745 0.11375 0.05800
H 	H 	0.23003 0.19399 0.37757 0.06100
C 	C 	0.18781 0.07598 0.26901 0.08500
C 	C 	0.38961 0.36371 0.22212 0.08900
N 	N 	0.14811 0.01647 0.27908 -0.10600
N 	N 	0.43108 0.42145 0.21181 -0.10800
C 	C 	0.27347 0.28229 0.69004 -0.05900
C 	C 	0.31721 0.28020 0.75871 -0.00700
C 	C 	0.29739 0.22507 0.82184 0.00800
C 	C 	0.23371 0.17000 0.81567 -0.05800
C 	C 	0.18809 0.17520 0.74822 -0.00400
C 	C 	0.20798 0.23035 0.68515 0.01300
H 	H 	0.36715 0.32086 0.76266 0.04700
H 	H 	0.13856 0.13396 0.74365 0.06900
C 	C 	0.16253 0.23071 0.61436 0.09700
C 	C 	0.34232 0.22598 0.89295 0.08600
N 	N 	0.12618 0.23097 0.55764 -0.09700
N 	N 	0.37851 0.22681 0.94976 -0.10300
C 	C 	0.31284 0.65418 0.30187 -0.06400
C 	C 	0.30714 0.62079 0.22482 -0.00100
C 	C 	0.28604 0.67607 0.16242 0.00700
C 	C 	0.26851 0.76568 0.17754 -0.06000
C 	C 	0.27656 0.79970 0.25431 -0.00800
C 	C 	0.29859 0.74440 0.31653 0.00600
H 	H 	0.31776 0.55123 0.21376 0.05500
H 	H 	0.26476 0.86898 0.26570 0.05100
C 	C 	0.30540 0.78036 0.39547 0.07700
C 	C 	0.28423 0.64077 0.08293 0.09600
N 	N 	0.31086 0.80918 0.45868 -0.10600
N 	N 	0.28277 0.61225 0.01937 -0.10600
C 	C 	0.78523 0.15258 0.19912 -0.06400
C 	C 	0.83004 0.15886 0.26688 -0.01000
C 	C 	0.80839 0.21306 0.33010 0.00400
C 	C 	0.74114 0.26208 0.32536 -0.06200
C 	C 	0.69585 0.25461 0.25777 -0.00700
C 	C 	0.71771 0.20067 0.19461 0.00900
H 	H 	0.88175 0.12140 0.27044 0.03200
H 	H 	0.64464 0.29290 0.25337 0.05500
C 	C 	0.67160 0.19694 0.12437 0.08700
C 	C 	0.85534 0.21775 0.39964 0.07800
N 	N 	0.63470 0.19395 0.06811 -0.11000
N 	N 	0.89311 0.22153 0.45522 -0.11600
C 	C 	0.76708 0.66395 0.68773 -0.06300
C 	C 	0.79248 0.62823 0.75967 -0.01200
C 	C 	0.81381 0.68400 0.82181 0.00700
C 	C 	0.80958 0.77642 0.81225 -0.07300
C 	C 	0.78709 0.81224 0.73969 -0.00200
C 	C 	0.76641 0.75688 0.67719 0.00200
H 	H 	0.79365 0.55703 0.76800 0.04900
H 	H 	0.78469 0.88346 0.73228 0.04100
C 	C 	0.74481 0.79615 0.60258 0.09200
C 	C 	0.83827 0.64588 0.89589 0.07100
N 	N 	0.72728 0.82788 0.54304 -0.10500
N 	N 	0.85787 0.61539 0.95522 -0.10600
C 	C 	0.75910 0.25032 0.68983 -0.06200
C 	C 	0.76056 0.28720 0.76601 -0.01200
C 	C 	0.77970 0.23498 0.83168 0.00800
C 	C 	0.79810 0.14486 0.82107 -0.06600
C 	C 	0.79861 0.10870 0.74466 -0.00800
C 	C 	0.77798 0.16035 0.67924 0.00700
H 	H 	0.74597 0.35630 0.77428 0.04300
H 	H 	0.81414 0.04001 0.73624 0.04700
C 	C 	0.77390 0.11975 0.60192 0.08900
C 	C 	0.78156 0.27473 0.90946 0.08700
N 	N 	0.77046 0.08702 0.54009 -0.10500
N 	N 	0.78309 0.30655 0.97176 -0.09800
C 	C 	0.27645 0.67557 0.67230 -0.05700
C 	C 	0.23070 0.75010 0.66160 -0.00300
C 	C 	0.21365 0.80567 0.72568 0.00800
C 	C 	0.24144 0.78563 0.80196 -0.06000
C 	C 	0.28603 0.71002 0.81271 -0.00600
C 	C 	0.30341 0.65496 0.74851 0.00600
H 	H 	0.21044 0.76650 0.60285 0.06000
H 	H 	0.30720 0.69400 0.87112 0.06100
C 	C 	0.34857 0.57699 0.76146 0.08200
C 	C 	0.17060 0.88508 0.71181 0.09700
N 	N 	0.38475 0.51454 0.77180 -0.11500
N 	N 	0.13609 0.94865 0.70061 -0.10300
C 	C 	0.78979 0.74765 0.18664 -0.06400
C 	C 	0.82325 0.76548 0.25996 -0.01200
C 	C 	0.80610 0.71392 0.32664 0.00300
C 	C 	0.75388 0.64352 0.32026 -0.06400
C 	C 	0.72128 0.62513 0.24635 -0.01000
C 	C 	0.73927 0.67615 0.17965 0.00800
H 	H 	0.86313 0.81941 0.26506 0.03300
H 	H 	0.68226 0.57043 0.24060 0.05400
C 	C 	0.70725 0.65297 0.10386 0.09100
C 	C 	0.84294 0.73353 0.40072 0.08500
N 	N 	0.68162 0.63440 0.04316 -0.10700
N 	N 	0.87288 0.74926 0.45984 -0.11600
