data_crystal

_cell_length_a 49.19824
_cell_length_b 46.38971
_cell_length_c 27.25963
_cell_angle_alpha 89.95419
_cell_angle_beta  89.95598
_cell_angle_gamma 90.41289

_symmetry_space_group_name_	'P 1'
_symmetry_space_group_name_H-M	'P 1'

loop_
_symmetry_equiv_pos_as_xyz
  x,y,z

loop_
_atom_site_label
_atom_site_type_symbol
_atom_site_fract_x
_atom_site_fract_y
_atom_site_fract_z
_atom_site_charge
Zn	Zn	0.50100 0.49811 0.96248 1.22100
C 	C 	0.50839 0.55937 0.97308 0.33800
O 	O 	0.46835 0.49484 0.92112 -0.46500
O 	O 	0.52265 0.55762 0.93234 -0.44400
O 	O 	0.47226 0.53812 0.88298 -0.49100
C 	C 	0.55294 0.49859 0.91605 0.35000
O 	O 	0.54025 0.50161 0.95789 -0.45300
O 	O 	0.54055 0.50468 0.87481 -0.49900
C 	C 	0.45705 0.51751 0.90130 0.34100
O 	O 	0.50767 0.44827 0.95422 -0.32300
Zn	Zn	0.51104 0.53268 0.87329 1.17200
O 	O 	0.49490 0.53680 0.98995 -0.43000
C 	C 	0.49877 0.44642 0.99884 0.29600
O 	O 	0.49177 0.47054 0.01908 -0.37200
Zn	Zn	0.41290 0.08060 0.04439 1.22700
C 	C 	0.36191 0.04867 0.03947 0.34000
O 	O 	0.43066 0.07003 0.10666 -0.39300
O 	O 	0.37540 0.02653 0.02256 -0.43800
O 	O 	0.40495 0.02992 0.11741 -0.47500
C 	C 	0.42800 0.04489 0.96325 0.34200
O 	O 	0.41389 0.06761 0.97613 -0.44400
O 	O 	0.43536 0.02591 0.99631 -0.49900
C 	C 	0.42046 0.05025 0.13595 0.30500
O 	O 	0.45062 0.11091 0.02564 -0.29200
Zn	Zn	0.41240 0.01580 0.05179 1.17600
O 	O 	0.37491 0.07029 0.06012 -0.41500
C 	C 	0.43400 0.13175 0.03531 0.30600
O 	O 	0.40974 0.12409 0.04813 -0.34800
C 	C 	0.51135 0.00035 0.72444 0.15000
C 	C 	0.53103 0.98456 0.75006 -0.09600
H 	H 	0.54720 0.97398 0.73013 0.08600
C 	C 	0.52960 0.98231 0.80130 0.07100
C 	C 	0.50852 0.99584 0.82679 -0.05600
C 	C 	0.48876 0.01147 0.80136 0.05400
C 	C 	0.49047 0.01421 0.75023 -0.06900
H 	H 	0.47530 0.02639 0.73041 0.09500
N 	N 	0.51194 0.00134 0.67173 -0.17300
C 	C 	0.49751 0.98118 0.64544 0.19300
C 	C 	0.49785 0.98173 0.59379 -0.04900
C 	C 	0.51309 0.00314 0.56951 0.03400
C 	C 	0.52777 0.02363 0.59690 -0.05100
C 	C 	0.52694 0.02237 0.64852 0.19400
C 	C 	0.48321 0.96123 0.56618 -0.00800
C 	C 	0.48375 0.96214 0.51490 -0.00500
C 	C 	0.49893 0.98360 0.49038 -0.05500
C 	C 	0.51361 0.00409 0.51774 0.03700
C 	C 	0.52878 0.02555 0.49344 -0.05300
C 	C 	0.54301 0.04503 0.57236 -0.00700
C 	C 	0.54352 0.04598 0.52106 -0.00500
C 	C 	0.49961 0.98495 0.43879 0.19500
N 	N 	0.51433 0.00619 0.41554 -0.17700
C 	C 	0.52890 0.02626 0.44178 0.19500
C 	C 	0.51426 0.00757 0.36285 0.15200
C 	C 	0.53425 0.99304 0.33588 -0.10900
C 	C 	0.53317 0.99282 0.28447 0.07400
C 	C 	0.51256 0.00786 0.26017 -0.09500
C 	C 	0.49211 0.02160 0.28694 0.07400
C 	C 	0.49317 0.02181 0.33831 -0.10900
O 	O 	0.54060 0.04147 0.67466 -0.18300
O 	O 	0.48327 0.96121 0.66867 -0.15100
O 	O 	0.48602 0.96577 0.41268 -0.19100
O 	O 	0.54297 0.04633 0.41851 -0.17900
H 	H 	0.47722 0.03213 0.35920 0.08600
H 	H 	0.55002 0.98129 0.35490 0.08800
H 	H 	0.55449 0.06098 0.59286 0.06300
H 	H 	0.55536 0.06265 0.50296 0.06400
H 	H 	0.47137 0.94455 0.58427 0.06600
H 	H 	0.47232 0.94616 0.49440 0.05900
H 	H 	0.51164 0.00759 0.22041 0.06300
H 	H 	0.50743 0.99415 0.86644 0.07300
Zn	Zn	0.60663 0.91441 0.04302 1.22300
C 	C 	0.65735 0.94647 0.04019 0.34600
O 	O 	0.58837 0.92547 0.10449 -0.44600
O 	O 	0.64391 0.96795 0.02066 -0.38000
O 	O 	0.61117 0.96785 0.11285 -0.41900
C 	C 	0.59251 0.94761 0.95827 0.32700
O 	O 	0.60722 0.92600 0.97399 -0.41500
O 	O 	0.58429 0.96748 0.98893 -0.46600
C 	C 	0.59649 0.94705 0.13217 0.31100
O 	O 	0.56844 0.88527 0.02337 -0.31900
Zn	Zn	0.60580 0.97910 0.04520 1.19000
O 	O 	0.64429 0.92463 0.06018 -0.40500
C 	C 	0.58411 0.86387 0.03447 0.29900
O 	O 	0.60843 0.87072 0.04833 -0.36500
Zn	Zn	0.10228 0.57934 0.97075 1.22300
C 	C 	0.06652 0.62713 0.95048 0.34100
O 	O 	0.09272 0.56391 0.03645 -0.44900
O 	O 	0.04831 0.60845 0.93487 -0.42900
O 	O 	0.05092 0.58416 0.03533 -0.48200
C 	C 	0.07419 0.55286 0.89058 0.34200
O 	O 	0.09234 0.57254 0.90222 -0.44100
O 	O 	0.05679 0.54371 0.92358 -0.50200
C 	C 	0.07041 0.57144 0.05962 0.32700
O 	O 	0.13462 0.54221 0.96111 -0.31600
Zn	Zn	0.04133 0.57007 0.97102 1.17800
O 	O 	0.08745 0.61853 0.97648 -0.42500
C 	C 	0.15249 0.56242 0.96859 0.29800
O 	O 	0.14286 0.58797 0.97548 -0.37300
C 	C 	0.00579 0.48827 0.28910 0.15000
C 	C 	0.98598 0.47302 0.26246 -0.09500
H 	H 	0.97135 0.45951 0.28159 0.08400
C 	C 	0.98482 0.47570 0.21129 0.07100
C 	C 	0.00328 0.49386 0.18691 -0.05700
C 	C 	0.02292 0.50930 0.21347 0.05300
C 	C 	0.02470 0.50581 0.26441 -0.06900
H 	H 	0.04002 0.51752 0.28505 0.09900
N 	N 	0.00545 0.48765 0.34179 -0.17400
C 	C 	0.01958 0.46668 0.36624 0.19400
C 	C 	0.02005 0.46626 0.41790 -0.05300
C 	C 	0.00588 0.48751 0.44400 0.03600
C 	C 	0.99138 0.50873 0.41843 -0.04700
C 	C 	0.99132 0.50838 0.36682 0.19500
C 	C 	0.03451 0.44501 0.44373 -0.00700
C 	C 	0.03482 0.44503 0.49505 -0.00700
C 	C 	0.02067 0.46629 0.52138 -0.05200
C 	C 	0.00623 0.48755 0.49577 0.03500
C 	C 	0.99214 0.50887 0.52184 -0.04300
C 	C 	0.97726 0.53001 0.44475 -0.00200
C 	C 	0.97766 0.53009 0.49602 -0.00300
C 	C 	0.02065 0.46662 0.57304 0.19500
N 	N 	0.00669 0.48752 0.59797 -0.17000
C 	C 	0.99272 0.50858 0.57342 0.19700
C 	C 	0.00642 0.48727 0.65065 0.14600
C 	C 	0.98454 0.47449 0.67576 -0.06200
C 	C 	0.98195 0.47817 0.72654 0.05100
C 	C 	0.00174 0.49380 0.75238 -0.03000
C 	C 	0.02407 0.50584 0.72763 0.05000
C 	C 	0.02666 0.50212 0.67684 -0.06100
O 	O 	0.97772 0.52812 0.34238 -0.14400
O 	O 	0.03287 0.44695 0.34126 -0.18600
O 	O 	0.03400 0.44673 0.59757 -0.19200
O 	O 	0.97976 0.52860 0.59833 -0.11400
H 	H 	0.04385 0.51145 0.65749 0.10000
H 	H 	0.96917 0.46261 0.65555 0.09500
H 	H 	0.96598 0.54654 0.42563 0.07300
H 	H 	0.96666 0.54668 0.51553 0.07900
H 	H 	0.04555 0.42846 0.42422 0.06000
H 	H 	0.04607 0.42848 0.51418 0.05900
H 	H 	0.99981 0.49653 0.79175 0.07100
H 	H 	0.00210 0.49630 0.14739 0.06700
Zn	Zn	0.90345 0.40790 0.96874 1.22600
C 	C 	0.85530 0.44318 0.97863 0.34300
O 	O 	0.92087 0.41889 0.90619 -0.44800
O 	O 	0.87075 0.46321 0.99837 -0.44000
O 	O 	0.90020 0.46238 0.90271 -0.48000
C 	C 	0.92344 0.43847 0.05299 0.32200
O 	O 	0.90626 0.41844 0.03835 -0.39900
O 	O 	0.93156 0.45864 0.02248 -0.48100
C 	C 	0.91396 0.44190 0.88109 0.32900
O 	O 	0.93941 0.37516 0.98193 -0.24200
Zn	Zn	0.90859 0.47267 0.96983 1.17700
O 	O 	0.86628 0.42124 0.95581 -0.42800
C 	C 	0.92139 0.35548 0.97221 0.29900
O 	O 	0.89735 0.36467 0.96185 -0.36200
Zn	Zn	0.00817 0.99572 0.04570 1.22200
C 	C 	0.01664 0.93478 0.03316 0.33800
O 	O 	0.97559 0.99819 0.08712 -0.46600
O 	O 	0.03014 0.93600 0.07473 -0.44400
O 	O 	0.97870 0.95397 0.12202 -0.48700
C 	C 	0.05922 0.99593 0.09458 0.34900
O 	O 	0.04732 0.99336 0.05189 -0.45300
O 	O 	0.04614 0.98892 0.13484 -0.49900
C 	C 	0.96388 0.97507 0.10511 0.34200
O 	O 	0.01398 0.04591 0.05283 -0.32000
Zn	Zn	0.01729 0.95973 0.13420 1.17300
O 	O 	0.00251 0.95703 0.01775 -0.43000
C 	C 	0.00501 0.04707 0.00821 0.29700
O 	O 	0.99863 0.02250 0.98865 -0.37200
C 	C 	0.94117 0.27075 0.95681 0.00900
C 	C 	0.93421 0.25112 0.99389 -0.02600
C 	C 	0.94114 0.22209 0.98932 -0.03500
C 	C 	0.95507 0.21248 0.94752 0.01300
C 	C 	0.96179 0.23211 0.91014 -0.03600
C 	C 	0.95485 0.26117 0.91480 -0.02700
C 	C 	0.96388 0.18221 0.94428 0.01300
C 	C 	0.94456 0.15981 0.94576 -0.03800
C 	C 	0.95295 0.13126 0.95143 -0.02700
C 	C 	0.98067 0.12497 0.95559 0.00100
C 	C 	0.00003 0.14708 0.95050 -0.02900
C 	C 	0.99167 0.17564 0.94492 -0.03600
C 	C 	0.98897 0.09708 0.97294 0.05000
C 	C 	0.99623 0.07384 0.98747 -0.08400
C 	C 	0.93434 0.30071 0.96200 0.05400
C 	C 	0.92853 0.32575 0.96669 -0.05500
H 	H 	0.92360 0.25838 0.02642 0.06000
H 	H 	0.93605 0.20715 0.01854 0.05200
H 	H 	0.97254 0.22490 0.87774 0.04900
H 	H 	0.96022 0.27623 0.88590 0.05200
H 	H 	0.92305 0.16463 0.94450 0.05000
H 	H 	0.93786 0.11425 0.95493 0.04900
H 	H 	0.02151 0.14236 0.95332 0.04900
H 	H 	0.00675 0.19275 0.94336 0.04900
C 	C 	0.92609 0.44722 0.83215 -0.12800
C 	C 	0.94634 0.42889 0.81404 0.05500
C 	C 	0.96276 0.43771 0.77496 -0.09800
C 	C 	0.95904 0.46483 0.75337 0.10800
C 	C 	0.93592 0.48126 0.76604 -0.16800
C 	C 	0.91990 0.47257 0.80631 0.10900
H 	H 	0.97972 0.42443 0.76392 0.06600
H 	H 	0.90343 0.48609 0.81881 0.06100
H 	H 	0.95050 0.40858 0.83206 0.04200
C 	C 	0.92955 0.50910 0.73936 0.79700
F 	F 	0.93242 0.50550 0.68926 -0.43400
F 	F 	0.90314 0.51778 0.74826 -0.43900
F 	F 	0.94710 0.53058 0.75504 -0.41400
C 	C 	0.96417 0.45983 0.18289 -0.01900
C 	C 	0.93925 0.47286 0.17243 -0.01400
C 	C 	0.92334 0.46278 0.13353 -0.02100
C 	C 	0.93235 0.43976 0.10453 0.01300
C 	C 	0.95500 0.42353 0.12041 -0.10800
C 	C 	0.97133 0.43435 0.15870 0.04600
H 	H 	0.90534 0.47460 0.12300 0.04700
H 	H 	0.99037 0.42400 0.16772 0.07400
H 	H 	0.93325 0.49214 0.19190 0.06500
C 	C 	0.96293 0.39604 0.09437 0.78200
F 	F 	0.97493 0.40279 0.04991 -0.45400
F 	F 	0.98112 0.38017 0.12193 -0.44300
F 	F 	0.94015 0.37903 0.08651 -0.44400
C 	C 	0.05327 0.71302 0.93026 -0.00100
C 	C 	0.03015 0.72211 0.90469 -0.02300
C 	C 	0.02375 0.75142 0.90263 -0.03600
C 	C 	0.04041 0.77179 0.92629 0.01300
C 	C 	0.06415 0.76269 0.95015 -0.03800
C 	C 	0.07055 0.73341 0.95207 -0.02400
C 	C 	0.03166 0.80205 0.93057 0.01500
C 	C 	0.00763 0.80863 0.95588 -0.04000
C 	C 	0.00222 0.83707 0.96940 -0.02500
C 	C 	0.02082 0.85908 0.95792 -0.00600
C 	C 	0.04361 0.85292 0.92898 -0.02500
C 	C 	0.04901 0.82448 0.91526 -0.04000
C 	C 	0.01922 0.88626 0.98313 0.05800
C 	C 	0.01761 0.90891 0.00452 -0.10500
C 	C 	0.05814 0.68272 0.93721 0.06600
C 	C 	0.06217 0.65735 0.94296 -0.09500
H 	H 	0.01678 0.70645 0.88749 0.05800
H 	H 	0.00549 0.75822 0.88383 0.05300
H 	H 	0.07712 0.77821 0.96864 0.04800
H 	H 	0.08852 0.72654 0.97171 0.05100
H 	H 	0.99393 0.79153 0.96742 0.05100
H 	H 	0.98439 0.84171 0.99130 0.04700
H 	H 	0.05792 0.86989 0.91942 0.04700
H 	H 	0.06735 0.81972 0.89486 0.05000
C 	C 	0.07004 0.54488 0.83920 -0.12900
C 	C 	0.07665 0.51708 0.82357 0.06100
C 	C 	0.06442 0.50554 0.78169 -0.09900
C 	C 	0.04510 0.52155 0.75569 0.11000
C 	C 	0.04187 0.55119 0.76659 -0.16600
C 	C 	0.05403 0.56249 0.80925 0.11400
H 	H 	0.06791 0.48317 0.77228 0.06600
H 	H 	0.04944 0.58422 0.82109 0.05900
H 	H 	0.08960 0.50361 0.84593 0.03000
C 	C 	0.02366 0.57004 0.73545 0.79600
F 	F 	0.99674 0.56337 0.74497 -0.40900
F 	F 	0.02790 0.59900 0.74532 -0.43700
F 	F 	0.02894 0.56565 0.68620 -0.43800
C 	C 	0.06475 0.56024 0.10935 -0.13100
C 	C 	0.07580 0.53387 0.12440 0.05200
C 	C 	0.06407 0.51865 0.16334 -0.09700
C 	C 	0.04120 0.52959 0.18755 0.10600
C 	C 	0.03283 0.55820 0.17783 -0.17100
C 	C 	0.04456 0.57321 0.13810 0.11100
H 	H 	0.07131 0.49723 0.17198 0.06900
H 	H 	0.03693 0.59420 0.12775 0.06400
H 	H 	0.09211 0.52411 0.10365 0.03700
C 	C 	0.01011 0.57184 0.20729 0.79800
F 	F 	0.00827 0.60112 0.19810 -0.44500
F 	F 	0.98557 0.55899 0.19520 -0.45500
F 	F 	0.01482 0.56831 0.25693 -0.44500
C 	C 	0.88172 0.96665 0.09101 -0.00800
C 	C 	0.86700 0.94564 0.11699 -0.02300
C 	C 	0.83895 0.94280 0.10998 -0.04000
C 	C 	0.82547 0.96098 0.07691 0.01600
C 	C 	0.84027 0.98202 0.05098 -0.04000
C 	C 	0.86829 0.98484 0.05804 -0.02300
C 	C 	0.79587 0.95822 0.06979 0.01400
C 	C 	0.78474 0.93283 0.04998 -0.03500
C 	C 	0.75666 0.93034 0.04295 -0.02200
C 	C 	0.73958 0.95320 0.05565 0.00800
C 	C 	0.75066 0.97859 0.07529 -0.02000
C 	C 	0.77871 0.98110 0.08236 -0.03400
C 	C 	0.71062 0.95042 0.04962 0.07300
C 	C 	0.68632 0.94847 0.04484 -0.06500
C 	C 	0.91069 0.96914 0.09717 0.06300
C 	C 	0.93496 0.97171 0.10159 -0.11400
H 	H 	0.87727 0.93147 0.14247 0.04700
H 	H 	0.82768 0.92658 0.13033 0.05300
H 	H 	0.83006 0.99609 0.02527 0.05200
H 	H 	0.87957 0.00107 0.03772 0.04900
H 	H 	0.79783 0.91511 0.03992 0.05200
H 	H 	0.74821 0.91064 0.02777 0.05700
H 	H 	0.73755 0.99632 0.08528 0.06400
H 	H 	0.78711 0.00076 0.09776 0.05500
C 	C 	0.55063 0.96669 0.82886 -0.01700
C 	C 	0.54347 0.94189 0.85546 -0.01500
C 	C 	0.55967 0.93279 0.89450 -0.01900
C 	C 	0.58312 0.94842 0.90714 0.01300
C 	C 	0.59295 0.97003 0.87488 -0.10700
C 	C 	0.57606 0.97972 0.83669 0.04700
H 	H 	0.55263 0.91530 0.91774 0.05600
H 	H 	0.58186 0.99849 0.81529 0.07500
H 	H 	0.52421 0.93116 0.84858 0.07000
C 	C 	0.62016 0.98457 0.88378 0.78200
F 	F 	0.63005 0.99704 0.84114 -0.43900
F 	F 	0.61727 0.00577 0.91897 -0.46500
F 	F 	0.63903 0.96467 0.89978 -0.44000
C 	C 	0.55202 0.97485 0.25589 -0.02800
C 	C 	0.54169 0.95245 0.22676 -0.01500
C 	C 	0.55753 0.94076 0.18941 -0.03000
C 	C 	0.58406 0.95112 0.18121 0.01100
C 	C 	0.59623 0.96944 0.21682 -0.10900
C 	C 	0.57956 0.98255 0.25228 0.05000
H 	H 	0.54846 0.92523 0.16457 0.05600
H 	H 	0.58781 0.99916 0.27604 0.07400
H 	H 	0.52071 0.94556 0.23077 0.04100
C 	C 	0.62660 0.97513 0.21745 0.78600
F 	F 	0.63248 0.99938 0.18977 -0.44700
F 	F 	0.63547 0.97979 0.26499 -0.43800
F 	F 	0.64074 0.95185 0.19891 -0.43700
C 	C 	0.13944 0.01840 0.09599 -0.00900
C 	C 	0.14778 0.04411 0.07331 -0.02400
C 	C 	0.17545 0.05000 0.06673 -0.04000
C 	C 	0.19492 0.03017 0.08279 0.01300
C 	C 	0.18656 0.00497 0.10718 -0.04000
C 	C 	0.15889 0.99911 0.11375 -0.02600
C 	C 	0.22391 0.03499 0.07176 0.01200
C 	C 	0.23814 0.05777 0.09409 -0.03800
C 	C 	0.26593 0.06151 0.08521 -0.02500
C 	C 	0.27962 0.04254 0.05391 -0.00400
C 	C 	0.26530 0.02021 0.03067 -0.02600
C 	C 	0.23753 0.01643 0.03955 -0.03900
C 	C 	0.30863 0.04482 0.04825 0.06200
C 	C 	0.33292 0.04681 0.04361 -0.09900
C 	C 	0.11112 0.01046 0.09645 0.06200
C 	C 	0.08737 0.00398 0.09669 -0.11400
H 	H 	0.13284 0.05913 0.05954 0.04700
H 	H 	0.18173 0.06957 0.04805 0.04900
H 	H 	0.20148 0.98967 0.12013 0.04700
H 	H 	0.15258 0.97923 0.13144 0.04300
H 	H 	0.22776 0.07227 0.11886 0.05000
H 	H 	0.27690 0.07884 0.10328 0.05400
H 	H 	0.27576 0.00550 0.00636 0.04900
H 	H 	0.22663 0.99895 0.02179 0.04800
C 	C 	0.43657 0.04104 0.91210 -0.12900
C 	C 	0.45539 0.06020 0.89114 0.06200
C 	C 	0.47016 0.05205 0.84963 -0.09700
C 	C 	0.46617 0.02467 0.82882 0.11000
C 	C 	0.44395 0.00747 0.84476 -0.17300
C 	C 	0.42991 0.01538 0.88762 0.12000
H 	H 	0.48642 0.06589 0.83638 0.07100
H 	H 	0.41488 0.00090 0.90341 0.04700
H 	H 	0.46016 0.08041 0.90922 0.03600
C 	C 	0.43688 0.97946 0.81898 0.80000
F 	F 	0.45506 0.95836 0.83276 -0.45700
F 	F 	0.41086 0.97028 0.83089 -0.44800
F 	F 	0.43802 0.98308 0.76865 -0.44600
C 	C 	0.46788 0.03210 0.26114 -0.02800
C 	C 	0.44790 0.01235 0.24625 -0.01700
C 	C 	0.42973 0.01962 0.20908 -0.03100
C 	C 	0.43134 0.04685 0.18649 0.01100
C 	C 	0.44754 0.06866 0.20887 -0.10700
C 	C 	0.46707 0.06056 0.24392 0.05000
H 	H 	0.41581 0.00334 0.19538 0.04500
H 	H 	0.48192 0.07616 0.25689 0.07400
H 	H 	0.44783 0.99060 0.26079 0.04300
C 	C 	0.44377 0.10031 0.19696 0.78400
F 	F 	0.44964 0.11711 0.23760 -0.44100
F 	F 	0.46113 0.10824 0.15931 -0.44400
F 	F 	0.41720 0.10586 0.18338 -0.44300
C 	C 	0.48187 0.36614 0.05209 -0.00100
C 	C 	0.45509 0.35563 0.05276 -0.02600
C 	C 	0.45009 0.32602 0.05700 -0.03900
C 	C 	0.47188 0.30676 0.06065 0.01400
C 	C 	0.49854 0.31752 0.06386 -0.03900
C 	C 	0.50351 0.34714 0.05964 -0.02600
C 	C 	0.46702 0.27550 0.05557 0.01200
C 	C 	0.45704 0.26432 0.01121 -0.03500
C 	C 	0.45207 0.23477 0.00640 -0.02800
C 	C 	0.45704 0.21617 0.04584 0.00900
C 	C 	0.46752 0.22719 0.08988 -0.02500
C 	C 	0.47254 0.25679 0.09473 -0.03300
C 	C 	0.44942 0.18621 0.04231 0.05900
C 	C 	0.44294 0.16118 0.03885 -0.05700
C 	C 	0.48733 0.39494 0.03474 0.05000
C 	C 	0.49228 0.41897 0.02025 -0.08500
H 	H 	0.43823 0.37020 0.04739 0.04800
H 	H 	0.42940 0.31794 0.05534 0.05000
H 	H 	0.51548 0.30285 0.06726 0.05100
H 	H 	0.52426 0.35513 0.05957 0.04800
H 	H 	0.45303 0.27857 0.98058 0.04800
H 	H 	0.44395 0.22640 0.97227 0.05000
H 	H 	0.47137 0.21293 0.12057 0.07000
H 	H 	0.48040 0.26519 0.12901 0.05400
C 	C 	0.23372 0.54954 0.94800 0.00100
C 	C 	0.25040 0.57278 0.93413 -0.02800
C 	C 	0.27825 0.56867 0.92685 -0.03800
C 	C 	0.28961 0.54126 0.93343 0.01100
C 	C 	0.27285 0.51799 0.94721 -0.03800
C 	C 	0.24499 0.52213 0.95446 -0.02800
C 	C 	0.31910 0.53705 0.92672 0.01300
C 	C 	0.33769 0.55155 0.95713 -0.04100
C 	C 	0.36562 0.54753 0.95088 -0.02500
C 	C 	0.37516 0.52899 0.91423 -0.00900
C 	C 	0.35664 0.51452 0.88375 -0.02500
C 	C 	0.32869 0.51853 0.88995 -0.04200
C 	C 	0.40396 0.52452 0.90852 0.06000
C 	C 	0.42815 0.52117 0.90454 -0.11500
C 	C 	0.20503 0.55384 0.95546 0.05000
C 	C 	0.18104 0.55766 0.96160 -0.08200
H 	H 	0.24181 0.59401 0.92900 0.05000
H 	H 	0.29098 0.58675 0.91608 0.04700
H 	H 	0.28144 0.49678 0.95260 0.04800
H 	H 	0.23222 0.50407 0.96517 0.04900
H 	H 	0.33050 0.56580 0.98573 0.04800
H 	H 	0.37983 0.55875 0.97464 0.04500
H 	H 	0.36387 0.50013 0.85536 0.04400
H 	H 	0.31450 0.50732 0.86616 0.04800
C 	C 	0.63340 0.47829 0.92185 -0.00900
C 	C 	0.65299 0.49456 0.89648 -0.02400
C 	C 	0.68065 0.48939 0.90401 -0.04100
C 	C 	0.68887 0.46791 0.93704 0.01400
C 	C 	0.66921 0.45119 0.96150 -0.04100
C 	C 	0.64157 0.45636 0.95390 -0.02300
C 	C 	0.71803 0.46334 0.94677 0.01300
C 	C 	0.73385 0.48547 0.96758 -0.03900
C 	C 	0.76155 0.48123 0.97630 -0.02400
C 	C 	0.77358 0.45485 0.96436 -0.00400
C 	C 	0.75774 0.43260 0.94420 -0.02300
C 	C 	0.73005 0.43682 0.93542 -0.03900
C 	C 	0.80243 0.45112 0.97027 0.06300
C 	C 	0.82654 0.44760 0.97495 -0.10200
C 	C 	0.60509 0.48568 0.91832 0.06200
C 	C 	0.58126 0.49144 0.91601 -0.11400
H 	H 	0.64682 0.51156 0.87167 0.04400
H 	H 	0.69568 0.50223 0.88460 0.05000
H 	H 	0.67535 0.43453 0.98700 0.04900
H 	H 	0.62654 0.44374 0.97370 0.04700
H 	H 	0.72471 0.50593 0.97687 0.04900
H 	H 	0.77368 0.49853 0.99186 0.04800
H 	H 	0.76692 0.41217 0.93480 0.05100
H 	H 	0.71800 0.41960 0.91941 0.05000
C 	C 	0.55554 0.78157 0.05019 0.00100
C 	C 	0.57059 0.75880 0.03058 -0.02700
C 	C 	0.56109 0.73047 0.03504 -0.03800
C 	C 	0.53645 0.72467 0.05929 0.01200
C 	C 	0.52155 0.74748 0.07948 -0.03800
C 	C 	0.53109 0.77587 0.07493 -0.02700
C 	C 	0.52551 0.69497 0.06054 0.01300
C 	C 	0.54102 0.67269 0.08095 -0.04100
C 	C 	0.53416 0.64391 0.07155 -0.02500
C 	C 	0.51176 0.63726 0.04180 -0.00800
C 	C 	0.49461 0.65940 0.02593 -0.02600
C 	C 	0.50150 0.68820 0.03513 -0.04100
C 	C 	0.51000 0.60935 0.01893 0.05800
C 	C 	0.50854 0.58598 0.99981 -0.10800
C 	C 	0.56524 0.81078 0.04481 0.05100
C 	C 	0.57368 0.83508 0.03995 -0.08100
H 	H 	0.58954 0.76306 0.01152 0.05100
H 	H 	0.57262 0.71306 0.01892 0.04800
H 	H 	0.50251 0.74325 0.09825 0.04700
H 	H 	0.51940 0.79337 0.09036 0.04800
H 	H 	0.55924 0.67767 0.10166 0.04900
H 	H 	0.54730 0.62691 0.08463 0.04700
H 	H 	0.47698 0.65443 0.00357 0.04400
H 	H 	0.48911 0.70522 0.01992 0.04700
