data_crystal

_cell_length_a 27.63645
_cell_length_b 29.00409
_cell_length_c 39.32585
_cell_angle_alpha 60.90455
_cell_angle_beta  118.80151
_cell_angle_gamma 133.24491

_symmetry_space_group_name_	'P 1'
_symmetry_space_group_name_H-M	'P 1'

loop_
_symmetry_equiv_pos_as_xyz
  x,y,z

loop_
_atom_site_label
_atom_site_type_symbol
_atom_site_fract_x
_atom_site_fract_y
_atom_site_fract_z
_atom_site_charge
C 	C 	0.74320 0.30306 0.03751 0.20200
N 	N 	0.78040 0.36697 0.03687 -0.12400
C 	C 	0.75829 0.38511 0.04915 0.20700
N 	N 	0.70030 0.33957 0.06260 -0.12200
C 	C 	0.66309 0.27620 0.06314 0.20600
N 	N 	0.68408 0.25792 0.05022 -0.11900
C 	C 	0.71201 0.30385 0.52939 0.20200
N 	N 	0.65397 0.26498 0.54233 -0.10400
C 	C 	0.63402 0.29211 0.54783 0.20900
N 	N 	0.67147 0.35780 0.53995 -0.12600
C 	C 	0.72945 0.39682 0.52728 0.20400
N 	N 	0.75014 0.36992 0.52219 -0.13200
C 	C 	0.29910 0.63794 0.22725 0.20600
N 	N 	0.25297 0.57982 0.21701 -0.12700
C 	C 	0.27486 0.55365 0.21238 0.20700
N 	N 	0.34255 0.58528 0.21824 -0.11500
C 	C 	0.38866 0.64370 0.22775 0.21100
N 	N 	0.36689 0.67007 0.23226 -0.12000
C 	C 	0.24475 0.63066 0.70181 0.20700
N 	N 	0.31343 0.67240 0.70488 -0.11700
C 	C 	0.34487 0.65498 0.70087 0.20800
N 	N 	0.30795 0.59553 0.69480 -0.12900
C 	C 	0.23902 0.55596 0.68830 0.21100
N 	N 	0.20701 0.57327 0.69200 -0.11400
Co	Co	0.06438 0.01556 0.07285 1.18600
Co	Co	0.95728 0.93596 0.16362 1.19500
Co	Co	0.01078 0.05985 0.10248 1.19600
Co	Co	0.00944 0.89098 0.13344 1.19800
C 	C 	0.19993 0.05703 0.07612 0.36000
Co	Co	0.09021 0.91582 0.08060 1.18300
Co	Co	0.93881 0.03900 0.15914 1.17200
C 	C 	0.95244 0.79427 0.09267 0.35500
O 	O 	0.93537 0.10281 0.10397 -0.39500
O 	O 	0.97679 0.01143 0.14307 -0.76700
C 	C 	0.90812 0.08596 0.07042 0.35900
O 	O 	0.05295 0.08437 0.06079 -0.41700
O 	O 	0.95623 0.86141 0.17037 -0.42800
C 	C 	0.82191 0.90382 0.15220 0.35200
O 	O 	0.03225 0.98544 0.12764 -0.55000
C 	C 	0.07645 0.15875 0.14818 0.35700
C 	C 	0.02259 0.96697 0.00252 0.32200
C 	C 	0.12437 0.87372 0.16896 0.35000
O 	O 	0.92465 0.05713 0.06505 -0.37200
O 	O 	0.02398 0.91613 0.02497 -0.32500
O 	O 	0.01265 0.99268 0.01670 -0.33600
O 	O 	0.84015 0.96382 0.13962 -0.35900
O 	O 	0.85244 0.88943 0.14565 -0.36400
O 	O 	0.04105 0.11156 0.17559 -0.35500
O 	O 	0.08074 0.14643 0.12159 -0.34000
O 	O 	0.15107 0.91738 0.13779 -0.38200
O 	O 	0.07532 0.86484 0.17562 -0.33600
O 	O 	0.05647 0.94521 0.09859 -0.74700
C 	C 	0.98202 0.96473 0.23770 0.32200
O 	O 	0.93644 0.97691 0.21620 -0.37500
O 	O 	0.99689 0.94425 0.22289 -0.34600
O 	O 	0.16500 0.01112 0.05797 -0.38800
O 	O 	0.16924 0.07346 0.08029 -0.35200
O 	O 	0.01653 0.81753 0.10097 -0.36100
O 	O 	0.93632 0.82194 0.09979 -0.37200
Co	Co	0.04480 0.00814 0.57276 1.18700
Co	Co	0.93017 0.93430 0.65729 1.19500
Co	Co	0.98172 0.05395 0.59169 1.18900
Co	Co	0.99005 0.88623 0.63653 1.18600
C 	C 	0.18753 0.05874 0.58881 0.36600
Co	Co	0.08744 0.91680 0.59184 1.18600
Co	Co	0.91274 0.04203 0.64533 1.18500
C 	C 	0.95259 0.78886 0.60378 0.34400
O 	O 	0.84375 0.03089 0.59087 -0.33200
O 	O 	0.94152 0.00603 0.62961 -0.76600
C 	C 	0.86467 0.06869 0.55739 0.34400
O 	O 	0.03200 0.07799 0.55514 -0.42400
O 	O 	0.93526 0.86027 0.67119 -0.42500
C 	C 	0.80114 0.89961 0.65804 0.35900
O 	O 	0.96496 0.95930 0.60504 -0.56100
C 	C 	0.04430 0.16277 0.62340 0.36700
C 	C 	0.02943 0.96306 0.50786 0.34700
C 	C 	0.11362 0.88205 0.67897 0.35300
O 	O 	0.91075 0.07433 0.54962 -0.34900
O 	O 	0.02494 0.91124 0.53503 -0.36800
O 	O 	0.02834 0.00242 0.51570 -0.35600
O 	O 	0.84269 0.94917 0.67413 -0.35400
O 	O 	0.82568 0.88258 0.64835 -0.36200
O 	O 	0.98079 0.13822 0.61831 -0.39400
O 	O 	0.05837 0.13055 0.61950 -0.37300
O 	O 	0.14388 0.92462 0.64930 -0.33200
O 	O 	0.06789 0.88049 0.68352 -0.35100
O 	O 	0.03350 0.93649 0.59948 -0.74000
C 	C 	0.98119 0.99734 0.72398 0.34000
O 	O 	0.98789 0.05016 0.69720 -0.37800
O 	O 	0.97573 0.95508 0.71450 -0.34900
O 	O 	0.15991 0.01498 0.57085 -0.38800
O 	O 	0.14859 0.06127 0.59694 -0.38200
O 	O 	0.01854 0.81732 0.61337 -0.36900
O 	O 	0.92788 0.80528 0.61396 -0.35800
C 	C 	0.01016 0.98076 0.95859 -0.06200
C 	C 	0.94816 0.93414 0.93783 0.12800
C 	C 	0.94520 0.93068 0.90222 0.06000
C 	C 	0.00175 0.97917 0.88445 0.05800
C 	C 	0.06129 0.03055 0.90289 0.05500
C 	C 	0.06539 0.03127 0.93990 0.09900
C 	C 	0.99496 0.98133 0.84362 0.01000
C 	C 	0.02153 0.95774 0.83877 0.08400
C 	C 	0.01877 0.96399 0.79991 0.13300
C 	C 	0.98203 0.98674 0.76572 -0.09900
C 	C 	0.95157 0.00630 0.77130 0.11700
C 	C 	0.96214 0.00753 0.80972 0.06200
Br	Br	0.13686 0.10001 0.87732 -0.09800
Br	Br	0.86632 0.87897 0.95643 -0.08700
Br	Br	0.07133 0.94805 0.79405 -0.11300
Br	Br	0.93263 0.04663 0.81588 -0.11700
Br	Br	0.14555 0.10243 0.96434 -0.10200
Br	Br	0.86441 0.85895 0.87829 -0.09100
Br	Br	0.06170 0.91698 0.88528 -0.09900
Br	Br	0.89334 0.02966 0.72696 -0.19600
C 	C 	0.00543 0.96100 0.28121 -0.06500
C 	C 	0.96482 0.90326 0.30743 0.11400
C 	C 	0.96858 0.90583 0.34372 0.06000
C 	C 	0.01340 0.96627 0.35390 0.04600
C 	C 	0.05766 0.02300 0.32902 0.05600
C 	C 	0.05638 0.01924 0.29413 0.09900
C 	C 	0.01913 0.96910 0.39281 0.02800
C 	C 	0.97387 0.97370 0.39604 0.06500
C 	C 	0.97819 0.97407 0.43332 0.12100
C 	C 	0.03097 0.97454 0.46683 -0.09300
C 	C 	0.07910 0.97476 0.46242 0.12800
C 	C 	0.07095 0.96860 0.42629 0.07300
Br	Br	0.11855 0.10607 0.34211 -0.10300
Br	Br	0.90636 0.82066 0.29436 -0.13200
Br	Br	0.90952 0.96991 0.43881 -0.12500
Br	Br	0.12996 0.95771 0.42295 -0.09200
Br	Br	0.12722 0.09203 0.26567 -0.10200
Br	Br	0.91238 0.82693 0.37930 -0.08200
Br	Br	0.90600 0.97929 0.34948 -0.09700
Br	Br	0.15730 0.98494 0.50546 -0.15900
C 	C 	0.13598 0.38476 0.68036 -0.11000
C 	C 	0.16175 0.39688 0.65133 0.01000
C 	C 	0.20281 0.46139 0.62998 0.31400
C 	C 	0.21950 0.51294 0.63846 -0.07700
C 	C 	0.19986 0.50151 0.67028 -0.06900
C 	C 	0.15585 0.43693 0.69027 0.35700
C 	C 	0.14516 0.34199 0.64301 0.03000
F 	F 	0.22934 0.47446 0.60240 -0.39700
H 	H 	0.25248 0.56255 0.62235 0.13200
F 	F 	0.13530 0.42478 0.72063 -0.39700
H 	H 	0.10214 0.33511 0.69598 0.14400
C 	C 	0.15610 0.29602 0.67434 0.29200
C 	C 	0.13203 0.23997 0.66686 -0.04300
C 	C 	0.09784 0.22991 0.62807 -0.14200
C 	C 	0.09676 0.28066 0.59612 0.39000
C 	C 	0.11744 0.33501 0.60365 -0.13200
F 	F 	0.18802 0.30458 0.71211 -0.39500
H 	H 	0.13505 0.20201 0.69169 0.10800
F 	F 	0.06957 0.27435 0.55798 -0.41800
H 	H 	0.10992 0.37059 0.57905 0.16200
C 	C 	0.48081 0.76185 0.64518 -0.12900
C 	C 	0.53588 0.76407 0.67636 0.01300
C 	C 	0.53105 0.74007 0.71629 0.32500
C 	C 	0.46986 0.70985 0.72468 -0.07400
C 	C 	0.41361 0.70451 0.69336 -0.07400
C 	C 	0.42044 0.73320 0.65364 0.35700
C 	C 	0.60017 0.79600 0.66706 0.02800
F 	F 	0.58532 0.74550 0.74686 -0.38300
H 	H 	0.46518 0.68803 0.75543 0.13000
F 	F 	0.36665 0.72906 0.62306 -0.41300
H 	H 	0.48451 0.78157 0.61433 0.13400
C 	C 	0.62714 0.76157 0.67960 0.31000
C 	C 	0.69077 0.79404 0.67319 -0.04400
C 	C 	0.72727 0.86071 0.65385 -0.13200
C 	C 	0.69720 0.89324 0.63839 0.39000
C 	C 	0.63456 0.86127 0.64538 -0.14300
F 	F 	0.59247 0.69723 0.69860 -0.38200
H 	H 	0.71307 0.76824 0.68499 0.11400
F 	F 	0.73087 0.95724 0.61876 -0.41800
H 	H 	0.61355 0.88786 0.63486 0.13700
C 	C 	0.20640 0.68733 0.74817 -0.12600
C 	C 	0.16557 0.70526 0.71494 0.01600
C 	C 	0.14504 0.69210 0.67839 0.32300
C 	C 	0.16743 0.66371 0.67487 -0.07400
C 	C 	0.21123 0.64909 0.70754 -0.06700
C 	C 	0.22944 0.65973 0.74448 0.35800
C 	C 	0.15159 0.74499 0.71705 0.01900
F 	F 	0.10618 0.70964 0.64580 -0.38600
H 	H 	0.15310 0.65574 0.64627 0.13000
F 	F 	0.27087 0.64488 0.77653 -0.40200
H 	H 	0.22214 0.69674 0.77653 0.13500
C 	C 	0.08411 0.72287 0.70911 0.31900
C 	C 	0.07136 0.76578 0.70338 -0.05500
C 	C 	0.12567 0.83142 0.70426 -0.12700
C 	C 	0.19305 0.85033 0.71793 0.38100
C 	C 	0.20593 0.80762 0.72376 -0.14000
F 	F 	0.03093 0.66100 0.70513 -0.37000
H 	H 	0.01912 0.74954 0.69474 0.12900
F 	F 	0.24629 0.91224 0.72183 -0.38600
H 	H 	0.25821 0.82447 0.73136 0.13500
C 	C 	0.19540 0.45152 0.14430 -0.11700
C 	C 	0.17058 0.38977 0.17104 0.01600
C 	C 	0.16776 0.38050 0.20879 0.31200
C 	C 	0.19551 0.43390 0.22096 -0.07200
C 	C 	0.22595 0.49666 0.19550 -0.07300
C 	C 	0.22245 0.50469 0.15634 0.35900
C 	C 	0.15263 0.33634 0.16077 0.02300
F 	F 	0.14080 0.32028 0.23425 -0.39600
H 	H 	0.19715 0.42713 0.25103 0.12300
F 	F 	0.24988 0.56499 0.13098 -0.40200
H 	H 	0.19644 0.45884 0.11482 0.14600
C 	C 	0.09646 0.30954 0.12940 0.30300
C 	C 	0.07612 0.25511 0.12220 -0.05000
C 	C 	0.11078 0.22631 0.14679 -0.13100
C 	C 	0.17022 0.25635 0.17594 0.38800
C 	C 	0.19109 0.31122 0.18289 -0.12900
F 	F 	0.05993 0.33448 0.10705 -0.37900
H 	H 	0.03102 0.23307 0.09902 0.12600
F 	F 	0.20633 0.23099 0.19846 -0.40500
H 	H 	0.23600 0.33314 0.20620 0.14500
C 	C 	0.63685 0.78729 0.15430 -0.13100
C 	C 	0.64213 0.77743 0.19426 0.02500
C 	C 	0.70610 0.80107 0.22136 0.30200
C 	C 	0.76477 0.83790 0.20800 -0.05100
C 	C 	0.76009 0.85138 0.16756 -0.13800
C 	C 	0.69571 0.82437 0.14093 0.39000
C 	C 	0.58149 0.74626 0.20696 0.01300
F 	F 	0.71178 0.79126 0.26017 -0.39300
H 	H 	0.81428 0.85937 0.22856 0.10700
F 	F 	0.69052 0.83691 0.10173 -0.41000
H 	H 	0.58742 0.76818 0.13336 0.14500
C 	C 	0.55155 0.77845 0.19264 0.31700
C 	C 	0.49110 0.74679 0.20235 -0.07400
C 	C 	0.46006 0.68272 0.22637 -0.06700
C 	C 	0.49291 0.65252 0.24309 0.35700
C 	C 	0.55309 0.68404 0.23313 -0.11400
F 	F 	0.58021 0.83979 0.16855 -0.39000
H 	H 	0.46656 0.77077 0.18956 0.14300
F 	F 	0.46516 0.59173 0.26788 -0.40300
H 	H 	0.57689 0.65958 0.24508 0.14300
C 	C 	0.13152 0.73127 0.21392 -0.13500
C 	C 	0.20246 0.76360 0.22448 0.02900
C 	C 	0.24646 0.82928 0.22592 0.29600
C 	C 	0.22000 0.86435 0.21176 -0.04400
C 	C 	0.14943 0.83378 0.19674 -0.13800
C 	C 	0.10503 0.76609 0.20048 0.38000
C 	C 	0.23007 0.73270 0.22679 0.01300
F 	F 	0.31509 0.86020 0.23843 -0.38500
H 	H 	0.25461 0.91623 0.21001 0.11600
F 	F 	0.03642 0.73528 0.18755 -0.42200
H 	H 	0.09703 0.68023 0.21356 0.14800
C 	C 	0.21752 0.67433 0.25553 0.31200
C 	C 	0.23975 0.64309 0.25552 -0.07300
C 	C 	0.27536 0.67038 0.22718 -0.07500
C 	C 	0.28848 0.72900 0.19875 0.36100
C 	C 	0.26557 0.75973 0.19842 -0.11700
F 	F 	0.18387 0.64797 0.28340 -0.39300
H 	H 	0.22969 0.59797 0.27765 0.12200
F 	F 	0.32222 0.75545 0.17091 -0.40300
H 	H 	0.27456 0.80416 0.17576 0.14200
C 	C 	0.74684 0.11592 0.51043 -0.14000
C 	C 	0.79445 0.18205 0.51113 0.02500
C 	C 	0.86363 0.21334 0.51516 0.31200
C 	C 	0.88579 0.17677 0.52356 -0.06200
C 	C 	0.83953 0.10867 0.52948 -0.12300
C 	C 	0.76924 0.07932 0.51944 0.38500
C 	C 	0.77416 0.21419 0.51562 0.01000
F 	F 	0.91010 0.27789 0.51435 -0.38800
H 	H 	0.93980 0.20036 0.52955 0.13800
F 	F 	0.72324 0.01408 0.52235 -0.40400
H 	H 	0.69301 0.09181 0.50589 0.13700
C 	C 	0.77190 0.26521 0.48475 0.32500
C 	C 	0.75268 0.29525 0.48953 -0.07700
C 	C 	0.73514 0.27421 0.52503 -0.07100
C 	C 	0.73816 0.22362 0.55601 0.35600
C 	C 	0.75756 0.19387 0.55128 -0.12900
F 	F 	0.78766 0.28522 0.45007 -0.38400
H 	H 	0.75043 0.33414 0.46543 0.12700
F 	F 	0.72326 0.20396 0.59095 -0.41200
H 	H 	0.75995 0.15506 0.57541 0.12800
C 	C 	0.85823 0.62050 0.59589 -0.12500
C 	C 	0.85506 0.63343 0.55578 0.02500
C 	C 	0.87324 0.69515 0.53023 0.29900
C 	C 	0.89775 0.74434 0.54526 -0.05200
C 	C 	0.90620 0.73297 0.58608 -0.13300
C 	C 	0.88412 0.67018 0.61107 0.39000
C 	C 	0.83205 0.58202 0.54060 0.01600
F 	F 	0.86965 0.70820 0.49125 -0.39700
H 	H 	0.91359 0.79236 0.52560 0.10500
F 	F 	0.89111 0.65825 0.65050 -0.40800
H 	H 	0.84228 0.57241 0.61553 0.14800
C 	C 	0.86682 0.55348 0.55839 0.30800
C 	C 	0.83720 0.49627 0.54973 -0.07600
C 	C 	0.77280 0.46733 0.52335 -0.07600
C 	C 	0.74289 0.50092 0.50161 0.35900
C 	C 	0.77180 0.55742 0.51070 -0.11800
F 	F 	0.92751 0.57929 0.58551 -0.39100
H 	H 	0.86167 0.47171 0.56590 0.11900
F 	F 	0.68253 0.47550 0.47419 -0.39800
H 	H 	0.74557 0.58014 0.49597 0.14800
C 	C 	0.45018 0.17957 0.55272 -0.11500
C 	C 	0.45533 0.19697 0.58260 0.01000
C 	C 	0.51988 0.23779 0.60499 0.31500
C 	C 	0.57879 0.26426 0.59586 -0.07500
C 	C 	0.57372 0.25087 0.56395 -0.06900
C 	C 	0.50915 0.20652 0.54333 0.36000
C 	C 	0.39311 0.17414 0.58933 0.02800
F 	F 	0.52552 0.25389 0.63451 -0.39800
H 	H 	0.62847 0.29769 0.61233 0.12000
F 	F 	0.50339 0.19254 0.51270 -0.40200
H 	H 	0.40043 0.14678 0.53595 0.13700
C 	C 	0.35228 0.19455 0.55920 0.29600
C 	C 	0.28656 0.16257 0.56195 -0.04200
C 	C 	0.26115 0.10978 0.59456 -0.13900
C 	C 	0.30546 0.09566 0.62711 0.37900
C 	C 	0.37100 0.12719 0.62427 -0.13200
F 	F 	0.37476 0.24268 0.52624 -0.39200
H 	H 	0.25330 0.17497 0.53712 0.10900
F 	F 	0.28282 0.04723 0.65993 -0.40300
H 	H 	0.40312 0.11269 0.64828 0.14600
C 	C 	0.87974 0.21140 0.00484 -0.13000
C 	C 	0.81879 0.18119 0.01370 0.02200
C 	C 	0.77718 0.11290 0.02771 0.29600
C 	C 	0.80142 0.07704 0.03845 -0.05100
C 	C 	0.86842 0.10951 0.03721 -0.13300
C 	C 	0.90411 0.17539 0.01611 0.38000
C 	C 	0.80478 0.22133 0.01504 0.00700
F 	F 	0.71628 0.08213 0.03449 -0.39800
H 	H 	0.77176 0.02539 0.05276 0.11600
F 	F 	0.96691 0.20665 0.01176 -0.42100
H 	H 	0.91076 0.26357 0.99217 0.14600
C 	C 	0.84863 0.25998 0.04294 0.31000
C 	C 	0.83058 0.29057 0.04821 -0.07400
C 	C 	0.76819 0.28202 0.02625 -0.07300
C 	C 	0.72587 0.24594 0.99704 0.35800
C 	C 	0.74436 0.21612 0.99132 -0.10900
F 	F 	0.90700 0.26519 0.06634 -0.39300
H 	H 	0.86359 0.31830 0.07076 0.13100
F 	F 	0.66608 0.23849 0.97489 -0.40600
H 	H 	0.71067 0.18725 0.96936 0.14400
C 	C 	0.86925 0.68034 0.03230 -0.13300
C 	C 	0.84643 0.62124 0.06158 0.02700
C 	C 	0.84376 0.61736 0.09778 0.29700
C 	C 	0.86984 0.67376 0.10590 -0.04100
C 	C 	0.89925 0.73433 0.07814 -0.13000
C 	C 	0.89499 0.73643 0.04035 0.37900
C 	C 	0.82927 0.56475 0.05515 0.01100
F 	F 	0.81847 0.55966 0.12565 -0.39100
H 	H 	0.87213 0.67124 0.13500 0.12200
F 	F 	0.92244 0.79418 0.01296 -0.42600
H 	H 	0.87028 0.68361 0.00397 0.14500
C 	C 	0.77607 0.53718 0.02311 0.31000
C 	C 	0.75898 0.48284 0.01778 -0.07900
C 	C 	0.79331 0.45422 0.04504 -0.07200
C 	C 	0.84974 0.48467 0.07527 0.35800
C 	C 	0.86772 0.53980 0.08024 -0.11400
F 	F 	0.73912 0.56133 0.99815 -0.39600
H 	H 	0.71562 0.45997 0.99419 0.12200
F 	F 	0.88424 0.45829 0.10147 -0.40400
H 	H 	0.91044 0.56216 0.10418 0.13800
C 	C 	0.53112 0.19880 0.11490 -0.11500
C 	C 	0.47151 0.17219 0.08507 0.01200
C 	C 	0.47414 0.16907 0.05150 0.31300
C 	C 	0.53693 0.19728 0.04631 -0.07700
C 	C 	0.59738 0.22896 0.07451 -0.07000
C 	C 	0.59377 0.22658 0.10985 0.35800
C 	C 	0.40693 0.14974 0.08827 0.02500
F 	F 	0.41619 0.14069 0.02329 -0.39800
H 	H 	0.53904 0.19807 0.01921 0.13200
F 	F 	0.65161 0.25451 0.13824 -0.39700
H 	H 	0.52920 0.19982 0.14140 0.14400
C 	C 	0.37246 0.09282 0.11681 0.29600
C 	C 	0.30680 0.06660 0.11600 -0.05200
C 	C 	0.27462 0.09633 0.08626 -0.13900
C 	C 	0.31176 0.15674 0.06033 0.39100
C 	C 	0.37770 0.18326 0.06126 -0.13200
F 	F 	0.40109 0.06104 0.14393 -0.39900
H 	H 	0.27926 0.02094 0.13690 0.09400
F 	F 	0.28245 0.18767 0.03266 -0.40300
H 	H 	0.40501 0.22847 0.03999 0.14400
