data_crystal

_cell_length_a 28.89198
_cell_length_b 27.89298
_cell_length_c 31.09861
_cell_angle_alpha 89.93966
_cell_angle_beta  89.93320
_cell_angle_gamma 90.86516

_symmetry_space_group_name_	'P 1'
_symmetry_space_group_name_H-M	'P 1'

loop_
_symmetry_equiv_pos_as_xyz
  x,y,z

loop_
_atom_site_label
_atom_site_type_symbol
_atom_site_fract_x
_atom_site_fract_y
_atom_site_fract_z
_atom_site_charge
Zn	Zn	0.50786 0.52356 0.01340 1.22000
C 	C 	0.59093 0.57884 0.02704 0.30700
O 	O 	0.51641 0.46512 0.04716 -0.48100
O 	O 	0.57042 0.59279 0.06262 -0.45200
O 	O 	0.57246 0.49200 0.09143 -0.48800
C 	C 	0.46124 0.59617 0.05713 0.31300
O 	O 	0.48415 0.58700 0.02186 -0.45400
O 	O 	0.47162 0.57352 0.09289 -0.49800
C 	C 	0.55529 0.45792 0.06716 0.30900
O 	O 	0.43026 0.50271 0.00473 -0.34000
Zn	Zn	0.53395 0.54767 0.10296 1.16800
O 	O 	0.57261 0.54415 0.00344 -0.43700
C 	C 	0.44209 0.48393 0.96839 0.27900
O 	O 	0.48495 0.49206 0.95753 -0.37800
Zn	Zn	0.31447 0.21768 0.95143 1.22500
C 	C 	0.34468 0.23041 0.03936 0.34200
O 	O 	0.24706 0.20443 0.95438 -0.45600
O 	O 	0.33189 0.27539 0.03695 -0.45100
O 	O 	0.23750 0.23642 0.02107 -0.49900
C 	C 	0.33845 0.31600 0.94325 0.32000
O 	O 	0.35614 0.27317 0.94590 -0.44300
O 	O 	0.29491 0.32154 0.95321 -0.50800
C 	C 	0.22409 0.20667 0.99086 0.31400
O 	O 	0.31261 0.21535 0.87527 -0.32000
Zn	Zn	0.27094 0.29434 0.00639 1.17100
O 	O 	0.33098 0.19926 0.01024 -0.44500
C 	C 	0.33272 0.17433 0.87959 0.30100
O 	O 	0.34038 0.16122 0.91878 -0.38700
C 	C 	0.54086 0.03135 0.30837 0.14100
C 	C 	0.51465 0.06498 0.28557 -0.11100
H 	H 	0.49428 0.09096 0.30290 0.07500
C 	C 	0.51473 0.06460 0.24041 0.07400
C 	C 	0.54078 0.03060 0.21824 -0.10500
C 	C 	0.56671 0.99698 0.24094 0.07900
C 	C 	0.56693 0.99750 0.28593 -0.11000
H 	H 	0.58708 0.97157 0.30358 0.07400
N 	N 	0.54056 0.03096 0.35465 -0.18000
C 	C 	0.51276 0.99838 0.37594 0.19300
C 	C 	0.51774 0.99148 0.42057 -0.05600
C 	C 	0.55025 0.01955 0.44327 0.02800
C 	C 	0.57680 0.05446 0.42140 -0.05900
C 	C 	0.57117 0.05994 0.37666 0.18900
C 	C 	0.49138 0.95637 0.44259 -0.01200
C 	C 	0.49761 0.94925 0.48674 -0.01300
C 	C 	0.53004 0.97739 0.50967 -0.05500
C 	C 	0.55631 0.01259 0.48789 0.02700
C 	C 	0.58854 0.04093 0.51067 -0.05800
C 	C 	0.60913 0.08270 0.44436 -0.01300
C 	C 	0.61498 0.07596 0.48862 -0.01300
C 	C 	0.53604 0.97151 0.55431 0.19300
N 	N 	0.56601 0.00103 0.57649 -0.18000
C 	C 	0.59319 0.03432 0.55539 0.18900
C 	C 	0.56560 0.00023 0.62277 0.13900
C 	C 	0.53147 0.02528 0.64524 -0.10900
C 	C 	0.53036 0.02405 0.69021 0.06900
C 	C 	0.56351 0.99811 0.71283 -0.09100
C 	C 	0.59780 0.97315 0.69068 0.07200
C 	C 	0.59887 0.97406 0.64554 -0.10300
O 	O 	0.59622 0.09221 0.35567 -0.19900
O 	O 	0.48196 0.97271 0.35436 -0.20000
O 	O 	0.51205 0.93818 0.57504 -0.19600
O 	O 	0.62294 0.06103 0.57722 -0.19900
H 	H 	0.62520 0.95465 0.62820 0.07600
H 	H 	0.50586 0.04541 0.62764 0.07400
H 	H 	0.62987 0.10983 0.42806 0.05100
H 	H 	0.64002 0.09812 0.50563 0.05100
H 	H 	0.46621 0.93435 0.42561 0.05100
H 	H 	0.47700 0.92200 0.50301 0.05200
H 	H 	0.56262 0.99731 0.74772 0.06200
H 	H 	0.54069 0.03016 0.18335 0.06100
Zn	Zn	0.77843 0.79533 0.97980 1.22300
C 	C 	0.74101 0.79965 0.06632 0.34600
O 	O 	0.84578 0.80297 0.98784 -0.45600
O 	O 	0.75070 0.75411 0.07168 -0.45600
O 	O 	0.84932 0.77900 0.05765 -0.48900
C 	C 	0.74067 0.69993 0.98494 0.31800
O 	O 	0.73096 0.74494 0.97751 -0.44300
O 	O 	0.78207 0.68897 0.99853 -0.50500
C 	C 	0.86342 0.80749 0.02663 0.29900
O 	O 	0.78698 0.78603 0.90436 -0.32000
Zn	Zn	0.80977 0.72376 0.04647 1.17000
O 	O 	0.75903 0.82424 0.03420 -0.44600
C 	C 	0.77097 0.82921 0.90209 0.30000
O 	O 	0.76160 0.84888 0.93865 -0.38200
Zn	Zn	0.19974 0.70438 0.01497 1.21800
C 	C 	0.18460 0.69373 0.10646 0.34500
O 	O 	0.17780 0.76801 0.99670 -0.44500
O 	O 	0.22297 0.71777 0.11456 -0.45100
O 	O 	0.18183 0.79743 0.06466 -0.49000
C 	C 	0.29523 0.69728 0.04082 0.31600
O 	O 	0.25649 0.67333 0.03398 -0.45400
O 	O 	0.29470 0.74380 0.04669 -0.51000
C 	C 	0.16610 0.80022 0.02523 0.29400
O 	O 	0.22272 0.68786 0.94315 -0.32100
Zn	Zn	0.24365 0.77432 0.07612 1.16900
O 	O 	0.16449 0.69723 0.06878 -0.44200
C 	C 	0.18665 0.65958 0.94302 0.30300
O 	O 	0.16263 0.65842 0.97802 -0.38400
C 	C 	0.99210 0.45781 0.35658 0.14000
C 	C 	0.96164 0.42763 0.33375 -0.11400
H 	H 	0.93847 0.40349 0.35103 0.07500
C 	C 	0.96098 0.42905 0.28875 0.07700
C 	C 	0.99077 0.46052 0.26660 -0.11000
C 	C 	0.02108 0.49077 0.28933 0.08300
C 	C 	0.02188 0.48934 0.33432 -0.10700
H 	H 	0.04517 0.51286 0.35205 0.07500
N 	N 	0.99211 0.45719 0.40274 -0.18200
C 	C 	0.01939 0.42512 0.42409 0.19500
C 	C 	0.02024 0.42435 0.46932 -0.05300
C 	C 	0.99292 0.45679 0.49231 0.02600
C 	C 	0.96509 0.48934 0.46999 -0.05900
C 	C 	0.96504 0.48889 0.42476 0.18900
C 	C 	0.04799 0.39175 0.49184 -0.01200
C 	C 	0.04845 0.39160 0.53681 -0.01200
C 	C 	0.02118 0.42407 0.55998 -0.05200
C 	C 	0.99345 0.45670 0.53766 0.02500
C 	C 	0.96623 0.48924 0.56063 -0.05800
C 	C 	0.93785 0.52183 0.49317 -0.01200
C 	C 	0.93844 0.52180 0.53812 -0.01300
C 	C 	0.02112 0.42443 0.60523 0.19500
N 	N 	0.99431 0.45639 0.62722 -0.18200
C 	C 	0.96723 0.48863 0.60586 0.18900
C 	C 	0.99436 0.45592 0.67339 0.14100
C 	C 	0.96062 0.42918 0.69580 -0.11300
C 	C 	0.95985 0.42985 0.74081 0.07900
C 	C 	0.99298 0.45687 0.76339 -0.10900
C 	C 	0.02662 0.48368 0.74110 0.08500
C 	C 	0.02739 0.48318 0.69608 -0.10600
O 	O 	0.93891 0.51907 0.40341 -0.20100
O 	O 	0.04501 0.39503 0.40210 -0.19800
O 	O 	0.04681 0.39387 0.62660 -0.19600
O 	O 	0.94205 0.51914 0.62782 -0.19800
H 	H 	0.05314 0.50421 0.67869 0.07700
H 	H 	0.93492 0.40842 0.67818 0.07600
H 	H 	0.91620 0.54718 0.47649 0.05100
H 	H 	0.91722 0.54713 0.55531 0.05200
H 	H 	0.06925 0.36646 0.47465 0.05200
H 	H 	0.07004 0.36620 0.55348 0.05300
H 	H 	0.99221 0.45755 0.79828 0.06400
H 	H 	0.99005 0.46177 0.23172 0.06100
Zn	Zn	0.74612 0.25075 0.01519 1.22200
C 	C 	0.75479 0.27441 0.92504 0.34300
O 	O 	0.70813 0.30764 0.01158 -0.44800
O 	O 	0.70950 0.27225 0.92156 -0.44800
O 	O 	0.64283 0.26414 0.99608 -0.48600
C 	C 	0.74160 0.15787 0.98150 0.31500
O 	O 	0.73575 0.18206 0.01705 -0.48800
O 	O 	0.71602 0.16855 0.94822 -0.47700
C 	C 	0.66291 0.30417 0.00940 0.30500
O 	O 	0.73930 0.25149 0.09119 -0.32500
Zn	Zn	0.67114 0.22054 0.95368 1.17100
O 	O 	0.77553 0.25536 0.95834 -0.44400
C 	C 	0.78238 0.26530 0.09037 0.30200
O 	O 	0.80041 0.27030 0.05259 -0.39200
Zn	Zn	0.98998 0.03380 0.99862 1.22400
C 	C 	0.06544 0.96756 0.99905 0.31400
O 	O 	0.95749 0.01171 0.05008 -0.48300
O 	O 	0.08449 0.00100 0.02307 -0.46400
O 	O 	0.01168 0.96843 0.08339 -0.47800
C 	C 	0.05979 0.10180 0.01867 0.31000
O 	O 	0.04120 0.07733 0.98694 -0.42900
O 	O 	0.04854 0.09090 0.05852 -0.49700
C 	C 	0.96975 0.97155 0.06799 0.30600
O 	O 	0.94674 0.10344 0.00013 -0.33100
Zn	Zn	0.05275 0.02459 0.07815 1.17000
O 	O 	0.02306 0.97342 0.98404 -0.41700
C 	C 	0.92075 0.08403 0.97087 0.27300
O 	O 	0.93430 0.04224 0.95764 -0.38000
C 	C 	0.82161 0.14642 0.93844 -0.00600
H 	H 	0.81521 0.17156 0.91146 0.04400
C 	C 	0.83329 0.09244 0.93374 -0.01700
H 	H 	0.83696 0.07283 0.90292 0.04200
C 	C 	0.86013 0.15227 0.97248 -0.00900
H 	H 	0.88588 0.18222 0.97348 0.04800
C 	C 	0.87131 0.09870 0.96800 -0.04900
C 	C 	0.78706 0.13380 0.97461 -0.07400
C 	C 	0.82547 0.13970 0.00853 -0.01400
H 	H 	0.82278 0.15917 0.03955 0.04100
C 	C 	0.83659 0.08606 0.00399 -0.02200
H 	H 	0.84303 0.06101 0.03104 0.04000
C 	C 	0.79772 0.08014 0.96996 -0.00100
H 	H 	0.77161 0.05056 0.96907 0.03500
C 	C 	0.78202 0.29718 0.89212 -0.12300
C 	C 	0.80633 0.31638 0.86553 0.07600
C 	C 	0.83631 0.33912 0.83579 -0.03600
C 	C 	0.86309 0.35894 0.81171 0.00900
C 	C 	0.89571 0.38276 0.78520 0.00700
C 	C 	0.92451 0.40379 0.76408 -0.03500
C 	C 	0.92922 0.39902 0.26500 -0.03900
C 	C 	0.90348 0.37504 0.24314 0.00600
C 	C 	0.87455 0.34845 0.21522 0.00300
C 	C 	0.85107 0.32709 0.18941 -0.03200
C 	C 	0.82523 0.30377 0.15696 0.06400
C 	C 	0.80472 0.28534 0.12746 -0.10300
C 	C 	0.08064 0.87198 0.97462 -0.00300
H 	H 	0.05481 0.86529 0.94884 0.04100
C 	C 	0.08353 0.84406 0.01790 -0.01000
H 	H 	0.06025 0.81403 0.02791 0.03500
C 	C 	0.13413 0.86834 0.96966 -0.00700
H 	H 	0.15274 0.85830 0.93983 0.04000
C 	C 	0.13641 0.84146 0.01286 -0.07500
C 	C 	0.08737 0.91937 0.99937 -0.06900
C 	C 	0.14028 0.91627 0.99415 -0.01100
H 	H 	0.16377 0.94621 0.98432 0.03600
C 	C 	0.14276 0.88903 0.03715 -0.01900
H 	H 	0.16836 0.89650 0.06299 0.01500
C 	C 	0.08989 0.89194 0.04229 -0.02200
H 	H 	0.07186 0.90104 0.07264 0.02800
C 	C 	0.17080 0.63566 0.90492 -0.09900
C 	C 	0.15467 0.61445 0.87461 0.06700
C 	C 	0.13271 0.58847 0.84135 -0.02800
C 	C 	0.11153 0.56544 0.81500 0.00700
C 	C 	0.08415 0.53764 0.78670 0.01200
C 	C 	0.05884 0.51330 0.76471 -0.03500
C 	C 	0.16339 0.66484 0.13934 -0.12600
C 	C 	0.14445 0.63981 0.16581 0.07300
C 	C 	0.12095 0.60971 0.19531 -0.04000
C 	C 	0.09976 0.58333 0.21915 0.00600
C 	C 	0.07364 0.55175 0.24537 0.00500
C 	C 	0.05025 0.52422 0.26626 -0.03700
C 	C 	0.87857 0.88755 0.07134 -0.01200
H 	H 	0.84611 0.88636 0.09049 0.04100
C 	C 	0.89298 0.92803 0.03982 -0.00700
H 	H 	0.87276 0.96080 0.03329 0.04000
C 	C 	0.92833 0.88697 0.08990 -0.00700
H 	H 	0.93739 0.88591 0.12456 0.02900
C 	C 	0.94242 0.92693 0.05823 -0.08000
C 	C 	0.89269 0.85033 0.03743 -0.06700
C 	C 	0.94199 0.84906 0.05589 -0.01300
H 	H 	0.96210 0.81620 0.06223 0.02800
C 	C 	0.95642 0.88963 0.02436 -0.01100
H 	H 	0.98841 0.88979 0.00481 0.03800
C 	C 	0.90674 0.89034 0.00586 -0.01900
H 	H 	0.89780 0.89160 0.97117 0.05100
C 	C 	0.63151 0.94663 0.71483 -0.03100
C 	C 	0.65780 0.92569 0.73815 0.00800
C 	C 	0.68633 0.90260 0.76849 0.00700
C 	C 	0.70876 0.88407 0.79652 -0.02600
C 	C 	0.73278 0.86368 0.83152 0.06500
C 	C 	0.75132 0.84736 0.86296 -0.09500
C 	C 	0.59328 0.96211 0.21784 -0.03600
C 	C 	0.61538 0.93367 0.19750 0.00400
C 	C 	0.64127 0.90151 0.17245 0.00600
C 	C 	0.66356 0.87534 0.14993 -0.04000
C 	C 	0.69001 0.84655 0.12219 0.07300
C 	C 	0.71302 0.82388 0.09732 -0.12800
C 	C 	0.16877 0.15105 0.03825 -0.01600
H 	H 	0.19172 0.14826 0.06673 0.03000
C 	C 	0.15107 0.10839 0.01078 -0.02100
H 	H 	0.15864 0.07008 0.01689 0.02700
C 	C 	0.11985 0.17286 0.03799 -0.01700
H 	H 	0.10165 0.18768 0.06638 0.03200
C 	C 	0.10265 0.13056 0.01045 -0.07900
C 	C 	0.18033 0.17864 0.99669 -0.07300
C 	C 	0.13194 0.20084 0.99633 -0.00800
H 	H 	0.12453 0.23919 0.99023 0.02500
C 	C 	0.11413 0.15810 0.96883 -0.00200
H 	H 	0.09112 0.16082 0.94039 0.04300
C 	C 	0.16318 0.13632 0.96910 0.00000
H 	H 	0.18139 0.12148 0.94075 0.04200
C 	C 	0.35757 0.15315 0.84467 -0.10000
C 	C 	0.38035 0.13484 0.81685 0.06500
C 	C 	0.40899 0.11278 0.78613 -0.03000
C 	C 	0.43494 0.09339 0.76153 0.00600
C 	C 	0.46687 0.07000 0.73470 0.00600
C 	C 	0.49527 0.04941 0.71349 -0.03400
C 	C 	0.48716 0.09801 0.21637 -0.03600
C 	C 	0.46479 0.12409 0.19371 0.00200
C 	C 	0.43917 0.15233 0.16466 0.00400
C 	C 	0.41759 0.17425 0.13808 -0.04100
C 	C 	0.39241 0.19715 0.10513 0.07000
C 	C 	0.37078 0.21400 0.07571 -0.12600
C 	C 	0.36557 0.43347 0.96298 -0.02000
H 	H 	0.34231 0.46228 0.97413 0.03900
C 	C 	0.37438 0.38618 0.98699 -0.00000
H 	H 	0.35822 0.37547 0.01803 0.00800
C 	C 	0.36063 0.40607 0.92009 -0.00600
H 	H 	0.33303 0.41157 0.89585 0.03600
C 	C 	0.36954 0.35897 0.94428 -0.08300
C 	C 	0.41791 0.43897 0.95492 -0.05600
C 	C 	0.41352 0.41209 0.91194 -0.01600
H 	H 	0.42987 0.42330 0.88115 0.04100
C 	C 	0.42189 0.36396 0.93597 -0.00100
H 	H 	0.44478 0.33483 0.92493 0.03900
C 	C 	0.42681 0.39169 0.97889 -0.00800
H 	H 	0.45431 0.38608 0.00323 0.03500
C 	C 	0.35895 0.63641 0.01188 -0.01200
H 	H 	0.34259 0.62766 0.98051 0.04800
C 	C 	0.36935 0.59999 0.04808 -0.00600
H 	H 	0.36208 0.56083 0.04672 0.04000
C 	C 	0.40746 0.65972 0.01796 -0.01600
H 	H 	0.43171 0.66987 0.99165 0.04900
C 	C 	0.41736 0.62360 0.05415 -0.07000
C 	C 	0.33955 0.67093 0.04564 -0.07400
C 	C 	0.38756 0.69457 0.05172 -0.01100
H 	H 	0.39484 0.73374 0.05309 0.03000
C 	C 	0.39801 0.65811 0.08796 -0.01400
H 	H 	0.41441 0.66680 0.11932 0.02700
C 	C 	0.34938 0.63486 0.08185 -0.01100
H 	H 	0.32499 0.62482 0.10809 0.03400
C 	C 	0.65320 0.39565 0.03363 -0.00600
H 	H 	0.68952 0.40789 0.02841 0.04100
C 	C 	0.62700 0.39677 0.07712 -0.00800
H 	H 	0.64136 0.41029 0.10798 0.03500
C 	C 	0.61038 0.41608 0.01055 -0.01900
H 	H 	0.61110 0.44569 0.98664 0.04400
C 	C 	0.58454 0.41674 0.05383 -0.07500
C 	C 	0.63417 0.34456 0.02559 -0.06800
C 	C 	0.59171 0.36461 0.00235 -0.01700
H 	H 	0.57727 0.35117 0.97148 0.03700
C 	C 	0.56549 0.36569 0.04578 -0.00800
H 	H 	0.52911 0.35363 0.05097 0.03300
C 	C 	0.60837 0.34513 0.06889 -0.01300
H 	H 	0.60769 0.31548 0.09274 0.03600
C 	C 	0.66234 0.60197 0.97115 -0.00500
H 	H 	0.65854 0.57359 0.94635 0.04100
C 	C 	0.70566 0.61075 0.99983 -0.00900
H 	H 	0.73814 0.59003 0.99848 0.03200
C 	C 	0.65919 0.65687 0.96307 -0.00200
H 	H 	0.65340 0.67423 0.93143 0.04100
C 	C 	0.70174 0.66503 0.99199 -0.07400
C 	C 	0.63140 0.60744 0.01107 -0.07300
C 	C 	0.62770 0.66168 0.00309 -0.00900
H 	H 	0.59528 0.68253 0.00451 0.03900
C 	C 	0.67058 0.67010 0.03176 -0.01900
H 	H 	0.67374 0.69825 0.05682 0.03800
C 	C 	0.67410 0.61570 0.03976 -0.02000
H 	H 	0.68005 0.59854 0.07147 0.02200
