data_crystal

_cell_length_a 30.72461
_cell_length_b 27.29210
_cell_length_c 36.01810
_cell_angle_alpha 103.73081
_cell_angle_beta  115.80392
_cell_angle_gamma 112.15897

_symmetry_space_group_name_	'P 1'
_symmetry_space_group_name_H-M	'P 1'

loop_
_symmetry_equiv_pos_as_xyz
  x,y,z

loop_
_atom_site_label
_atom_site_type_symbol
_atom_site_fract_x
_atom_site_fract_y
_atom_site_fract_z
_atom_site_charge
Zn	Zn	0.13340 0.12566 0.99070 1.18700
Zn	Zn	0.03032 0.07359 0.89098 1.19000
O 	O 	0.03212 0.98181 0.81877 -0.43300
O 	O 	0.04646 0.91188 0.88698 -0.46400
C 	C 	0.19191 0.10470 0.95243 0.32300
C 	C 	0.13215 0.20296 0.94589 0.35300
O 	O 	0.19743 0.12427 0.99222 -0.45600
O 	O 	0.14326 0.08456 0.91281 -0.32800
O 	O 	0.05503 0.08572 0.95681 -0.78800
O 	O 	0.08971 0.99248 0.95668 -0.47000
O 	O 	0.08155 0.15830 0.90622 -0.43300
O 	O 	0.15070 0.20091 0.98571 -0.45400
Zn	Zn	0.01015 0.00286 0.94022 1.20500
C 	C 	0.03662 0.00531 0.09277 0.31200
O 	O 	0.03085 0.96064 0.06219 -0.42100
O 	O 	0.03616 0.01524 0.00265 -0.90000
C 	C 	0.01448 0.01383 0.80219 0.25800
C 	C 	0.08526 0.94398 0.93272 0.35100
H 	H 	0.07867 0.03815 0.02580 0.17200
Zn	Zn	0.15454 0.14418 0.51351 1.19100
Zn	Zn	0.06664 0.09582 0.40949 1.19900
O 	O 	0.04128 0.07459 0.34258 -0.42700
O 	O 	0.06977 0.93092 0.39985 -0.49700
C 	C 	0.16172 0.22781 0.47493 0.35100
O 	O 	0.17443 0.09196 0.44515 -0.33800
O 	O 	0.07669 0.10141 0.47063 -0.77400
O 	O 	0.10680 0.00593 0.47026 -0.44600
O 	O 	0.12905 0.18014 0.43284 -0.40900
O 	O 	0.17122 0.22156 0.51237 -0.44400
Zn	Zn	0.02687 0.01730 0.44791 1.21300
C 	C 	0.02621 0.00083 0.58792 0.30700
O 	O 	0.02234 0.95773 0.55762 -0.41000
O 	O 	0.04220 0.02261 0.50688 -0.90300
C 	C 	0.05113 0.03958 0.31994 0.30400
C 	C 	0.10801 0.96294 0.44564 0.35400
H 	H 	0.08369 0.04438 0.53291 0.17800
C 	C 	0.02570 0.98639 0.70182 0.09800
N 	N 	0.02274 0.98104 0.73733 -0.09000
C 	C 	0.01633 0.01946 0.76319 -0.01800
N 	N 	0.03097 0.94734 0.67549 -0.10600
C 	C 	0.02909 0.99747 0.62904 -0.02200
C 	C 	0.03267 0.95186 0.63924 0.05200
H 	H 	0.03631 0.92002 0.61831 0.05800
C 	C 	0.05283 0.05059 0.20563 0.09800
N 	N 	0.05055 0.05179 0.16741 -0.08700
C 	C 	0.04609 0.00651 0.13681 -0.02400
N 	N 	0.05497 0.09468 0.23493 -0.10500
C 	C 	0.05211 0.04361 0.28026 -0.02800
C 	C 	0.05473 0.09225 0.27212 0.04900
H 	H 	0.05680 0.12797 0.29530 0.06100
C 	C 	0.19623 0.28827 0.48147 -0.10300
C 	C 	0.17245 0.30622 0.44824 0.20800
Cl	Cl	0.09868 0.26016 0.40044 -0.33000
C 	C 	0.19459 0.97207 0.45191 -0.02100
C 	C 	0.15929 0.96005 0.46773 -0.13600
C 	C 	0.17367 0.94601 0.50477 0.20800
C 	C 	0.22153 0.94126 0.52409 -0.10500
H 	H 	0.18468 0.98478 0.42440 0.06500
Cl	Cl	0.13069 0.93168 0.52593 -0.38700
C 	C 	0.16703 0.25792 0.94641 -0.12100
C 	C 	0.14779 0.29636 0.93912 0.20700
C 	C 	0.18459 0.35187 0.94513 -0.10300
H 	H 	0.17023 0.38206 0.94066 0.08300
Cl	Cl	0.07881 0.27690 0.92465 -0.33900
C 	C 	0.18881 0.97930 0.98293 -0.01700
C 	C 	0.13030 0.93223 0.95567 -0.12600
C 	C 	0.11538 0.87351 0.94821 0.20200
C 	C 	0.15874 0.86186 0.96574 -0.09400
H 	H 	0.20066 0.02480 0.98989 0.06900
H 	H 	0.14712 0.81653 0.95958 0.08300
Cl	Cl	0.04280 0.81470 0.91866 -0.33300
Cl	Cl	0.17331 0.99352 0.88375 -0.33300
H 	H 	0.24824 0.85382 0.45591 0.05900
C 	C 	0.20696 0.36285 0.45440 -0.09500
H 	H 	0.18865 0.37629 0.42864 0.08500
C 	C 	0.24263 0.96779 0.47144 0.13200
C 	C 	0.21701 0.90839 0.99083 -0.01900
Zn	Zn	0.00043 0.04377 0.02295 1.19900
O 	O 	0.03533 0.04982 0.08512 -0.44300
O 	O 	0.02794 0.04738 0.58230 -0.44600
C 	C 	0.05090 0.00238 0.21397 0.09600
C 	C 	0.04509 0.95869 0.14564 0.05100
Zn	Zn	0.01016 0.94576 0.85458 1.18300
O 	O 	0.06290 0.00283 0.33374 -0.45600
Zn	Zn	0.03588 0.96569 0.36685 1.18400
C 	C 	0.02256 0.03215 0.69188 0.09400
N 	N 	0.02454 0.03690 0.65595 -0.09000
N 	N 	0.04755 0.95766 0.18408 -0.10900
N 	N 	0.05075 0.99989 0.25112 -0.09300
H 	H 	0.04132 0.92208 0.12170 0.05100
N 	N 	0.01648 0.07068 0.71770 -0.10800
C 	C 	0.01328 0.06531 0.75314 0.03900
H 	H 	0.23137 0.92840 0.55151 0.08500
O 	O 	0.22539 0.15173 0.52378 -0.44900
C 	C 	0.22416 0.12773 0.48686 0.33400
H 	H 	0.24354 0.49112 0.50761 0.05500
C 	C 	0.25531 0.95059 0.50677 -0.00400
Cl	Cl	0.28665 0.98408 0.45132 -0.30800
C 	C 	0.23206 0.96746 0.99975 0.13400
H 	H 	0.00900 0.09682 0.77367 0.04600
C 	C 	0.28800 0.88242 0.49117 -0.03300
C 	C 	0.25400 0.32823 0.52112 -0.01700
C 	C 	0.22215 0.27449 0.95792 -0.02000
O 	O 	0.01119 0.01179 0.38856 -0.90500
C 	C 	0.26446 0.40294 0.49432 -0.00600
C 	C 	0.24062 0.36951 0.95858 -0.00500
H 	H 	0.30737 0.11050 0.53615 0.07100
H 	H 	0.26262 0.88230 0.94561 0.06400
C 	C 	0.26174 0.89459 0.00673 0.06500
C 	C 	0.28202 0.50461 0.50833 -0.04100
C 	C 	0.29920 0.93547 0.52178 0.04600
H 	H 	0.31846 0.82449 0.48235 0.04800
H 	H 	0.27272 0.31473 0.54669 0.07700
H 	H 	0.23680 0.24463 0.96295 0.06600
C 	C 	0.24234 0.11297 0.95282 -0.10500
C 	C 	0.23707 0.06652 0.92016 0.20400
H 	H 	0.24863 0.40956 0.89836 0.05700
H 	H 	0.27040 0.90309 0.07115 0.05900
H 	H 	0.30000 0.59267 0.51946 0.04500
C 	C 	0.28773 0.38565 0.52811 0.13900
C 	C 	0.25892 0.32997 0.96395 0.13300
C 	C 	0.27843 0.14764 0.49104 -0.11100
C 	C 	0.28008 0.88101 0.97851 -0.04800
C 	C 	0.28441 0.89266 0.04919 -0.04200
C 	C 	0.32763 0.86571 0.50621 -0.02900
C 	C 	0.28118 0.43107 0.97051 0.03600
C 	C 	0.29884 0.46403 0.50171 0.04400
C 	C 	0.31464 0.56261 0.51579 -0.02800
Cl	Cl	0.30487 0.02681 0.03101 -0.30300
C 	C 	0.31726 0.13470 0.51811 -0.01900
C 	C 	0.28318 0.07805 0.91668 -0.09200
C 	C 	0.29503 0.16942 0.98350 -0.03100
H 	H 	0.29960 0.20509 0.00909 0.08700
C 	C 	0.27881 0.44471 0.93479 -0.03900
H 	H 	0.27856 0.04266 0.89082 0.08600
C 	C 	0.32017 0.86463 0.99228 -0.03600
C 	C 	0.32457 0.87633 0.06303 -0.02700
C 	C 	0.29155 0.17920 0.46772 0.20200
Cl	Cl	0.24526 0.19897 0.43538 -0.31900
C 	C 	0.31455 0.50409 0.94596 -0.02200
H 	H 	0.31120 0.51449 0.91800 0.04600
C 	C 	0.35080 0.97218 0.56740 -0.03500
H 	H 	0.33287 0.85263 0.96961 0.04600
C 	C 	0.32030 0.47689 0.01755 -0.02600
H 	H 	0.32234 0.46667 0.04533 0.06100
Cl	Cl	0.35828 0.43635 0.58039 -0.31400
H 	H 	0.35989 0.01337 0.59118 0.06300
H 	H 	0.34123 0.87407 0.09554 0.04900
C 	C 	0.36837 0.15194 0.52125 0.14700
C 	C 	0.34240 0.86195 0.03454 0.02300
C 	C 	0.34823 0.48166 0.50196 -0.03200
Cl	Cl	0.32806 0.34967 0.97873 -0.30200
C 	C 	0.33458 0.13555 0.94548 -0.00500
C 	C 	0.37837 0.90133 0.55230 0.01500
C 	C 	0.34095 0.18096 0.97981 0.13900
H 	H 	0.34760 0.64951 0.03318 0.05800
C 	C 	0.36547 0.58129 0.51789 0.01500
H 	H 	0.34970 0.18714 0.89297 0.06300
S 	S 	0.35650 0.76995 0.04104 0.01200
C 	C 	0.35289 0.55020 0.99300 -0.00700
H 	H 	0.36097 0.45023 0.49605 0.06600
C 	C 	0.35598 0.53621 0.02874 -0.01500
H 	H 	0.38132 0.69442 0.56694 0.05500
C 	C 	0.39030 0.95510 0.58263 -0.02700
C 	C 	0.37101 0.65443 0.01746 -0.06700
C 	C 	0.34257 0.19646 0.47096 -0.09400
S 	S 	0.39397 0.81463 0.56924 0.00800
C 	C 	0.38197 0.54032 0.51087 -0.02700
C 	C 	0.38038 0.83935 0.04708 0.00300
C 	C 	0.39608 0.69114 0.54463 -0.05700
H 	H 	0.35242 0.22058 0.45286 0.08600
C 	C 	0.37962 0.14924 0.93713 0.04500
C 	C 	0.38100 0.18280 0.49742 -0.00700
C 	C 	0.38192 0.17716 0.90938 -0.03400
H 	H 	0.39266 0.11818 0.43697 0.06800
C 	C 	0.38549 0.61366 0.00451 0.02600
H 	H 	0.38524 0.57151 0.06509 0.04800
C 	C 	0.39192 0.70376 0.00935 0.04300
C 	C 	0.40136 0.64341 0.52727 0.00600
Zn	Zn	0.00144 0.04776 0.52256 1.19600
Cl	Cl	0.00105 0.21310 0.50627 -0.36800
O 	O 	0.99905 0.04400 0.82218 -0.38600
Zn	Zn	0.99619 0.93308 0.99168 1.20300
Cl	Cl	0.41589 0.13416 0.55476 -0.30400
C 	C 	0.58291 0.27355 0.91474 0.03200
C 	C 	0.56550 0.21898 0.88047 -0.02400
C 	C 	0.60100 0.21706 0.86612 0.03100
C 	C 	0.65050 0.27139 0.88205 -0.02500
C 	C 	0.67036 0.32504 0.91860 0.03200
C 	C 	0.63678 0.32559 0.93526 -0.02500
C 	C 	0.55574 0.26486 0.93800 -0.05700
S 	S 	0.51955 0.16236 0.88104 0.00800
C 	C 	0.60151 0.16511 0.84790 -0.05700
S 	S 	0.69367 0.25465 0.87456 0.01500
C 	C 	0.71000 0.38304 0.92875 -0.05600
S 	S 	0.65416 0.39607 0.95952 0.01800
C 	C 	0.51889 0.20385 0.92304 0.00600
H 	H 	0.56357 0.30156 0.96530 0.06200
C 	C 	0.65145 0.17954 0.84933 0.00500
H 	H 	0.56957 0.12017 0.83791 0.05400
C 	C 	0.70690 0.42848 0.95315 0.00100
H 	H 	0.73281 0.39002 0.91258 0.05700
C 	C 	0.77514 0.59472 0.95092 0.05000
C 	C 	0.79352 0.59461 0.99399 -0.04400
C 	C 	0.76865 0.54044 0.99473 -0.03600
C 	C 	0.72558 0.48608 0.95242 0.01900
C 	C 	0.70510 0.48669 0.90938 -0.03000
C 	C 	0.72994 0.54082 0.90864 -0.03500
H 	H 	0.82815 0.63618 0.02680 0.07100
H 	H 	0.78439 0.54041 0.02811 0.06100
H 	H 	0.67128 0.44497 0.87652 0.05000
H 	H 	0.71523 0.54065 0.87524 0.06200
C 	C 	0.42653 0.19344 0.90362 -0.02800
C 	C 	0.46913 0.18181 0.92550 0.01600
C 	C 	0.46580 0.15213 0.95199 -0.02800
C 	C 	0.42117 0.13593 0.95784 -0.03600
H 	H 	0.42852 0.21589 0.88276 0.05100
H 	H 	0.49838 0.14276 0.96883 0.05000
H 	H 	0.41942 0.11399 0.97905 0.06300
C 	C 	0.73912 0.08819 0.86746 0.05100
C 	C 	0.69541 0.07285 0.87460 -0.04500
C 	C 	0.66394 0.09983 0.86616 -0.02400
C 	C 	0.67462 0.14090 0.84893 0.01400
C 	C 	0.71418 0.15125 0.83732 -0.02600
C 	C 	0.74727 0.12632 0.84762 -0.03500
H 	H 	0.68818 0.04277 0.88929 0.07400
H 	H 	0.63356 0.09109 0.87526 0.04800
H 	H 	0.72167 0.18146 0.82277 0.05300
H 	H 	0.78101 0.13876 0.84213 0.07100
C 	C 	0.61708 0.31061 0.45433 0.03200
C 	C 	0.62611 0.26324 0.44903 -0.02400
C 	C 	0.62931 0.23852 0.41215 0.03100
C 	C 	0.63031 0.26603 0.38387 -0.02400
C 	C 	0.62709 0.31708 0.39186 0.03200
C 	C 	0.61550 0.33585 0.42440 -0.02500
C 	C 	0.58876 0.31185 0.47661 -0.05700
S 	S 	0.59775 0.22372 0.47018 0.01400
C 	C 	0.65351 0.20341 0.41182 -0.05700
S 	S 	0.66287 0.24911 0.36098 0.01400
C 	C 	0.65028 0.36209 0.38046 -0.05600
S 	S 	0.63570 0.40729 0.43945 0.01200
C 	C 	0.57593 0.26557 0.48861 0.00500
H 	H 	0.56981 0.33825 0.47644 0.05500
C 	C 	0.67313 0.20381 0.38319 0.00500
H 	H 	0.66424 0.18662 0.43670 0.05600
C 	C 	0.65594 0.41550 0.40394 0.00600
H 	H 	0.66734 0.35805 0.35998 0.05900
C 	C 	0.76064 0.58638 0.41913 0.04800
C 	C 	0.78139 0.54890 0.42449 -0.03200
C 	C 	0.74743 0.49315 0.41976 -0.02600
C 	C 	0.69248 0.47456 0.40975 0.01600
C 	C 	0.67232 0.51266 0.40531 -0.02500
C 	C 	0.70621 0.56828 0.40990 -0.03700
H 	H 	0.82362 0.56282 0.43205 0.06500
H 	H 	0.76394 0.46464 0.42414 0.05100
H 	H 	0.63012 0.49886 0.39779 0.05100
H 	H 	0.69002 0.59713 0.40595 0.06600
C 	C 	0.43382 0.20032 0.49929 0.05000
C 	C 	0.43154 0.16262 0.46348 -0.03700
C 	C 	0.47846 0.18318 0.46056 -0.02700
C 	C 	0.52832 0.24159 0.49376 0.01500
C 	C 	0.53126 0.27849 0.53050 -0.02800
C 	C 	0.48418 0.25793 0.53325 -0.03800
H 	H 	0.47527 0.15448 0.43166 0.05000
H 	H 	0.56954 0.32353 0.55635 0.05000
H 	H 	0.48618 0.28741 0.56093 0.06100
C 	C 	0.78796 0.14654 0.39174 0.04700
C 	C 	0.74278 0.11472 0.39488 -0.03100
C 	C 	0.70421 0.13214 0.39031 -0.02700
C 	C 	0.71166 0.18308 0.38438 0.01600
C 	C 	0.75647 0.21446 0.38054 -0.02600
C 	C 	0.79412 0.19593 0.38387 -0.03900
H 	H 	0.73807 0.07699 0.40155 0.07500
H 	H 	0.66894 0.10644 0.39197 0.05000
H 	H 	0.76308 0.25390 0.37608 0.05100
H 	H 	0.82900 0.22092 0.38155 0.06200
C 	C 	0.46127 0.75247 0.99332 0.02700
C 	C 	0.46614 0.80707 0.01292 -0.01800
C 	C 	0.43896 0.81169 0.03516 0.03200
C 	C 	0.40345 0.76014 0.03464 -0.02600
C 	C 	0.42108 0.70017 0.98877 -0.03300
C 	C 	0.50956 0.76039 0.99312 -0.06500
S 	S 	0.52980 0.86318 0.03052 0.01700
C 	C 	0.42597 0.85632 0.04219 -0.05400
S 	S 	0.42226 0.63827 0.98260 0.00200
C 	C 	0.55252 0.82135 0.01381 0.01000
H 	H 	0.51354 0.72360 0.97960 0.05700
H 	H 	0.44224 0.89409 0.03611 0.05800
C 	C 	0.68869 0.88513 0.99588 0.03600
C 	C 	0.63426 0.83266 0.95907 -0.02600
C 	C 	0.58949 0.81212 0.96456 -0.04100
C 	C 	0.59902 0.84357 0.00721 0.02900
C 	C 	0.65331 0.89654 0.04378 -0.03400
C 	C 	0.69796 0.91719 0.03814 -0.02400
H 	H 	0.62683 0.80754 0.92637 0.06300
H 	H 	0.54748 0.77191 0.93569 0.05200
H 	H 	0.66116 0.92119 0.07681 0.05400
H 	H 	0.73995 0.95763 0.06680 0.06100
C 	C 	0.47856 0.77260 0.50777 0.03000
C 	C 	0.49003 0.83081 0.52809 -0.02500
C 	C 	0.46912 0.84345 0.55442 0.03200
C 	C 	0.43524 0.79693 0.55919 -0.02200
C 	C 	0.41760 0.73744 0.53390 0.03000
C 	C 	0.43871 0.72540 0.50774 -0.02400
C 	C 	0.52209 0.77243 0.50312 -0.05700
S 	S 	0.55369 0.88000 0.54105 0.01600
C 	C 	0.45906 0.89055 0.56023 -0.05600
S 	S 	0.43211 0.65959 0.49942 0.00800
C 	C 	0.56822 0.83065 0.52145 0.00400
H 	H 	0.52048 0.73191 0.48792 0.05700
C 	C 	0.41732 0.88074 0.56929 0.00500
H 	H 	0.47299 0.92361 0.54934 0.06000
H 	H 	0.42106 0.55396 0.51255 0.05000
C 	C 	0.69044 0.87335 0.48770 0.04600
C 	C 	0.63127 0.83131 0.45184 -0.03400
C 	C 	0.59125 0.81672 0.46282 -0.02900
C 	C 	0.61013 0.84452 0.50972 0.01600
C 	C 	0.66924 0.88689 0.54546 -0.02800
C 	C 	0.70926 0.90110 0.53452 -0.03800
H 	H 	0.61635 0.81005 0.41554 0.06100
H 	H 	0.54562 0.78449 0.43487 0.04800
H 	H 	0.68417 0.90868 0.58173 0.05300
H 	H 	0.75487 0.93375 0.56238 0.06200
H 	H 	0.42959 0.98307 0.61816 0.05100
O 	O 	0.98488 0.99027 0.87758 -0.85200
Zn	Zn	0.89054 0.89130 0.90294 1.18400
C 	C 	0.89500 0.80734 0.94231 0.35700
C 	C 	0.86450 0.93551 0.96359 0.34600
O 	O 	0.93016 0.01581 0.92432 -0.45300
O 	O 	0.95060 0.84786 0.97606 -0.40700
O 	O 	0.86627 0.81391 0.90610 -0.44300
O 	O 	0.84423 0.91070 0.91898 -0.46600
O 	O 	0.91806 0.95430 0.99577 -0.44600
O 	O 	0.96516 0.92020 0.92440 -0.76100
C 	C 	0.92546 0.05260 0.95142 0.33700
O 	O 	0.96172 0.07895 0.99716 -0.44400
H 	H 	0.94265 0.97140 0.85609 0.15800
Zn	Zn	0.90066 0.90519 0.39937 1.18000
Zn	Zn	0.99855 0.93821 0.48997 1.20800
C 	C 	0.89457 0.81414 0.43339 0.34300
C 	C 	0.86450 0.94265 0.45318 0.35100
O 	O 	0.94978 0.03566 0.42785 -0.44500
O 	O 	0.95039 0.85101 0.46776 -0.41100
O 	O 	0.86959 0.82497 0.39875 -0.44900
O 	O 	0.85134 0.92502 0.41051 -0.46200
O 	O 	0.91529 0.95775 0.48760 -0.45200
O 	O 	0.97654 0.93294 0.42577 -0.76400
C 	C 	0.94749 0.07587 0.45440 0.35900
O 	O 	0.96782 0.08765 0.49803 -0.42900
H 	H 	0.97056 0.99720 0.36492 0.19100
C 	C 	0.73265 0.88946 0.47616 -0.00800
C 	C 	0.74936 0.84992 0.46489 0.14300
C 	C 	0.79104 0.86697 0.45576 -0.01600
C 	C 	0.81730 0.92378 0.45879 -0.11400
C 	C 	0.80031 0.96312 0.46967 0.20000
C 	C 	0.75788 0.94568 0.47802 -0.09400
H 	H 	0.80374 0.83640 0.44703 0.08000
H 	H 	0.74505 0.97617 0.48659 0.08400
Cl	Cl	0.71992 0.77980 0.46371 -0.30900
Cl	Cl	0.83243 0.03471 0.47376 -0.32000
C 	C 	0.73711 0.90392 0.99141 -0.01000
C 	C 	0.73945 0.93004 0.96246 0.14200
C 	C 	0.78197 0.94124 0.95441 -0.01400
C 	C 	0.82362 0.92841 0.97620 -0.11900
C 	C 	0.82228 0.90388 0.00646 0.21200
C 	C 	0.77924 0.89210 0.01395 -0.08500
H 	H 	0.78209 0.95908 0.93058 0.07500
H 	H 	0.77753 0.87203 0.03630 0.09100
Cl	Cl	0.68948 0.94923 0.93619 -0.32100
Cl	Cl	0.87160 0.88394 0.03293 -0.30900
C 	C 	0.91168 0.09805 0.43259 -0.12200
C 	C 	0.92908 0.15798 0.45714 0.24500
C 	C 	0.88916 0.17447 0.44213 -0.10100
C 	C 	0.83233 0.13215 0.40180 0.00600
C 	C 	0.81705 0.07437 0.37417 0.13800
C 	C 	0.85657 0.05739 0.38985 -0.00600
H 	H 	0.90184 0.21970 0.46263 0.09800
H 	H 	0.84349 0.01177 0.36989 0.06400
Cl	Cl	0.74864 0.02293 0.31993 -0.31300
C 	C 	0.79578 0.64452 0.42293 -0.00600
C 	C 	0.79808 0.64648 0.38506 0.13900
C 	C 	0.83082 0.70206 0.38893 -0.02000
C 	C 	0.86130 0.75600 0.43031 -0.11000
C 	C 	0.85851 0.75406 0.46804 0.20400
C 	C 	0.82600 0.69841 0.46422 -0.09000
H 	H 	0.83255 0.70330 0.35972 0.07200
H 	H 	0.82379 0.69710 0.49322 0.09300
Cl	Cl	0.75921 0.57968 0.33223 -0.30600
Cl	Cl	0.89341 0.82103 0.51949 -0.30500
C 	C 	0.87487 0.05808 0.92990 -0.11600
C 	C 	0.85914 0.08342 0.95719 0.19400
C 	C 	0.81446 0.09234 0.93618 -0.09000
C 	C 	0.78216 0.07266 0.88775 -0.00600
C 	C 	0.79403 0.04234 0.85982 0.13700
C 	C 	0.84110 0.03675 0.88103 -0.02700
H 	H 	0.80449 0.11430 0.95764 0.09000
H 	H 	0.85112 0.01539 0.85934 0.05700
Cl	Cl	0.89011 0.09867 0.01620 -0.29500
Cl	Cl	0.74890 0.00893 0.79802 -0.32100
C 	C 	0.80644 0.65006 0.94994 -0.01000
C 	C 	0.78459 0.68668 0.94395 0.14300
C 	C 	0.81346 0.73748 0.94083 -0.01900
C 	C 	0.86464 0.75272 0.94436 -0.10500
C 	C 	0.88645 0.71594 0.95027 0.20200
C 	C 	0.85741 0.66503 0.95323 -0.09300
H 	H 	0.79641 0.76551 0.93611 0.08100
H 	H 	0.87399 0.63652 0.95738 0.08800
Cl	Cl	0.72141 0.66977 0.94082 -0.31200
Cl	Cl	0.94824 0.73112 0.95147 -0.28100
Cl	Cl	0.40583 0.25300 0.01767 -0.27800
