data_crystal

_cell_length_a 30.36599
_cell_length_b 52.86267
_cell_length_c 17.66363
_cell_angle_alpha 90.00227
_cell_angle_beta  89.99920
_cell_angle_gamma 89.99915

_symmetry_space_group_name_	'P 1'
_symmetry_space_group_name_H-M	'P 1'

loop_
_symmetry_equiv_pos_as_xyz
  x,y,z

loop_
_atom_site_label
_atom_site_type_symbol
_atom_site_fract_x
_atom_site_fract_y
_atom_site_fract_z
_atom_site_charge
Cu	Cu	0.53845 0.33572 0.95248 0.92100
Cu	Cu	0.55692 0.32082 0.77586 0.86400
Cu	Cu	0.46967 0.31822 0.83876 0.89200
Cu	Cu	0.43674 0.34015 0.98390 0.88800
C 	C 	0.50464 0.37196 0.05835 0.26200
O 	O 	0.52542 0.30936 0.03299 -0.35300
C 	C 	0.49895 0.28145 0.72267 0.26200
O 	O 	0.47751 0.34661 0.90561 -0.64200
O 	O 	0.53091 0.31050 0.87108 -0.64500
O 	O 	0.59657 0.34911 0.91968 -0.37200
O 	O 	0.57159 0.35469 0.79998 -0.43500
O 	O 	0.46978 0.35735 0.06693 -0.37000
O 	O 	0.41165 0.32826 0.80551 -0.38000
C 	C 	0.37774 0.33242 0.85050 0.26500
C 	C 	0.49121 0.29417 0.02706 0.27500
O 	O 	0.45722 0.30085 0.98567 -0.40800
O 	O 	0.38293 0.34173 0.91947 -0.39100
O 	O 	0.53927 0.36398 0.02010 -0.34800
C 	C 	0.60133 0.35908 0.85209 0.26500
O 	O 	0.46628 0.29085 0.76372 -0.38000
O 	O 	0.53987 0.28957 0.72987 -0.41600
H 	H 	0.47498 0.36339 0.88105 0.16300
H 	H 	0.53579 0.29256 0.88484 0.17100
Cu	Cu	0.53102 0.58749 0.10218 0.92900
Cu	Cu	0.56092 0.63003 0.22561 0.86700
Cu	Cu	0.46760 0.62218 0.18810 0.89300
Cu	Cu	0.42781 0.57669 0.10380 0.89500
C 	C 	0.49564 0.53788 0.08516 0.26000
O 	O 	0.50954 0.59717 0.99737 -0.36100
C 	C 	0.50246 0.67237 0.23321 0.25800
O 	O 	0.47385 0.58605 0.17130 -0.63000
O 	O 	0.52602 0.62277 0.13672 -0.64400
O 	O 	0.59281 0.58164 0.13596 -0.36100
O 	O 	0.57817 0.59684 0.25327 -0.43600
O 	O 	0.45848 0.54711 0.05867 -0.37600
O 	O 	0.40986 0.62028 0.23520 -0.37500
C 	C 	0.37560 0.60943 0.20283 0.26200
C 	C 	0.47441 0.61147 0.98834 0.23500
O 	O 	0.44173 0.61026 0.03710 -0.37200
O 	O 	0.37913 0.58677 0.17234 -0.38400
O 	O 	0.53164 0.55172 0.08506 -0.34900
C 	C 	0.60362 0.58386 0.20760 0.26300
O 	O 	0.46773 0.65826 0.21636 -0.37400
O 	O 	0.54295 0.66449 0.22011 -0.41400
H 	H 	0.47552 0.57592 0.21837 0.15900
H 	H 	0.52830 0.63580 0.09665 0.17800
Cu	Cu	0.95368 0.39709 0.61381 0.92800
Cu	Cu	0.93529 0.38120 0.78991 0.86000
Cu	Cu	0.01923 0.37716 0.72971 0.88700
Cu	Cu	0.05653 0.40641 0.59968 0.89400
C 	C 	0.98904 0.43760 0.52615 0.26200
O 	O 	0.97526 0.37283 0.53259 -0.35400
C 	C 	0.98493 0.33627 0.82613 0.26000
O 	O 	0.01116 0.40827 0.67277 -0.63800
O 	O 	0.95872 0.37074 0.69233 -0.64300
O 	O 	0.89152 0.40661 0.63594 -0.35500
O 	O 	0.90933 0.41192 0.75882 -0.43300
O 	O 	0.02511 0.42421 0.51661 -0.37800
O 	O 	0.07687 0.38508 0.77155 -0.38200
C 	C 	0.11048 0.39452 0.73336 0.26500
C 	C 	0.01046 0.35861 0.54295 0.25300
O 	O 	0.04253 0.36639 0.58724 -0.39400
O 	O 	0.10425 0.40973 0.67515 -0.39100
O 	O 	0.95292 0.42679 0.55169 -0.35400
C 	C 	0.87927 0.41123 0.70580 0.27000
O 	O 	0.01974 0.34653 0.79277 -0.38100
O 	O 	0.94702 0.34843 0.83124 -0.41500
H 	H 	0.01054 0.42384 0.70393 0.15800
H 	H 	0.95301 0.35303 0.67694 0.17700
Cu	Cu	0.94964 0.64876 0.42498 0.92700
Cu	Cu	0.91791 0.67105 0.26151 0.86700
Cu	Cu	0.00986 0.67270 0.30660 0.89300
Cu	Cu	0.05352 0.64512 0.43560 0.89300
C 	C 	0.99219 0.60824 0.50343 0.26100
O 	O 	0.96666 0.67166 0.51261 -0.35500
C 	C 	0.97022 0.71332 0.21236 0.26200
O 	O 	0.00799 0.64154 0.36319 -0.63600
O 	O 	0.95076 0.67741 0.35343 -0.64400
O 	O 	0.89008 0.63565 0.39829 -0.36400
O 	O 	0.90649 0.63600 0.27306 -0.43400
O 	O 	0.02659 0.62301 0.51434 -0.38000
O 	O 	0.06644 0.66571 0.26059 -0.37600
C 	C 	0.10301 0.66173 0.29908 0.26200
C 	C 	0.99981 0.68761 0.50701 0.25500
O 	O 	0.03147 0.68345 0.45784 -0.39200
O 	O 	0.10295 0.64808 0.36176 -0.38600
O 	O 	0.95436 0.61780 0.48059 -0.35500
C 	C 	0.88141 0.62829 0.32890 0.26300
O 	O 	0.00624 0.70228 0.23905 -0.37900
O 	O 	0.93044 0.70451 0.22701 -0.41400
H 	H 	0.00945 0.62604 0.33180 0.16400
H 	H 	0.94621 0.69442 0.37557 0.17400
Cu	Cu	0.43362 0.83547 0.65789 0.92800
Cu	Cu	0.40799 0.82006 0.83102 0.86500
Cu	Cu	0.49794 0.81640 0.77746 0.89100
Cu	Cu	0.53693 0.84015 0.63901 0.89400
C 	C 	0.47271 0.87312 0.56442 0.26200
O 	O 	0.45033 0.80932 0.57877 -0.35500
C 	C 	0.45970 0.77677 0.87485 0.26100
O 	O 	0.49295 0.84570 0.71281 -0.63700
O 	O 	0.43742 0.81002 0.73851 -0.64600
O 	O 	0.37399 0.84837 0.68330 -0.36700
O 	O 	0.39231 0.85393 0.80688 -0.43200
O 	O 	0.50683 0.85813 0.55488 -0.37800
O 	O 	0.55569 0.82495 0.81786 -0.37800
C 	C 	0.59071 0.83120 0.77752 0.26300
C 	C 	0.48420 0.79408 0.58873 0.25400
O 	O 	0.51705 0.80085 0.63271 -0.39300
O 	O 	0.58712 0.84223 0.71065 -0.38800
O 	O 	0.43552 0.86413 0.59169 -0.35600
C 	C 	0.36599 0.85858 0.74963 0.26400
O 	O 	0.49563 0.78899 0.85291 -0.38100
O 	O 	0.42064 0.78780 0.87491 -0.41300
H 	H 	0.49451 0.86213 0.73961 0.16200
H 	H 	0.43203 0.79230 0.72285 0.17200
Cu	Cu	0.46225 0.08311 0.46302 0.92700
Cu	Cu	0.44310 0.10062 0.28896 0.86500
Cu	Cu	0.53170 0.10069 0.34997 0.89200
Cu	Cu	0.56433 0.07366 0.48844 0.89300
C 	C 	0.49408 0.04283 0.55514 0.26100
O 	O 	0.48080 0.10738 0.54617 -0.35500
C 	C 	0.50511 0.13749 0.23371 0.25900
O 	O 	0.52140 0.07094 0.41102 -0.63700
O 	O 	0.47104 0.10917 0.38447 -0.64400
O 	O 	0.40102 0.07354 0.43482 -0.36400
O 	O 	0.42085 0.06805 0.31225 -0.43100
O 	O 	0.52993 0.05609 0.56840 -0.38000
O 	O 	0.58942 0.09055 0.31380 -0.37700
C 	C 	0.62253 0.08377 0.35777 0.26300
C 	C 	0.51645 0.12142 0.53995 0.25400
O 	O 	0.54961 0.11374 0.49792 -0.39300
O 	O 	0.61573 0.07034 0.41970 -0.38800
O 	O 	0.45892 0.05376 0.52630 -0.35400
C 	C 	0.39164 0.06555 0.36634 0.26600
O 	O 	0.53613 0.12950 0.28060 -0.37700
O 	O 	0.46333 0.13138 0.24353 -0.41400
H 	H 	0.52142 0.05481 0.38250 0.16300
H 	H 	0.46737 0.12698 0.40058 0.17500
Cu	Cu	0.01756 0.90475 0.95083 0.92200
Cu	Cu	0.04213 0.87181 0.79999 0.86500
Cu	Cu	0.94879 0.87991 0.84881 0.89300
Cu	Cu	0.91596 0.91964 0.95982 0.88600
C 	C 	0.98882 0.95337 0.99971 0.21100
O 	O 	0.99517 0.88891 0.04784 -0.34700
C 	C 	0.97544 0.83666 0.75680 0.25600
O 	O 	0.96054 0.91360 0.88655 -0.63700
O 	O 	0.00807 0.87313 0.89343 -0.64300
O 	O 	0.08013 0.91019 0.92180 -0.37100
O 	O 	0.06433 0.90531 0.79741 -0.43400
O 	O 	0.95049 0.94419 0.02107 -0.35100
O 	O 	0.89262 0.88816 0.80304 -0.37800
C 	C 	0.85931 0.89825 0.84020 0.26100
C 	C 	0.95827 0.87586 0.04966 0.25300
O 	O 	0.92572 0.88153 0.00352 -0.38000
O 	O 	0.86577 0.91709 0.88797 -0.39000
O 	O 	0.02284 0.93826 0.99078 -0.34900
C 	C 	0.09139 0.91283 0.85056 0.26500
O 	O 	0.94398 0.84703 0.79808 -0.37700
O 	O 	0.01722 0.83969 0.77466 -0.41200
H 	H 	0.96317 0.92665 0.84657 0.16100
H 	H 	0.00933 0.85739 0.92373 0.16600
Cu	Cu	0.05645 0.14917 0.17130 0.92800
Cu	Cu	0.07292 0.15443 0.35381 0.86700
Cu	Cu	0.98516 0.16025 0.28803 0.89300
Cu	Cu	0.95509 0.14710 0.13138 0.89400
C 	C 	0.02382 0.11857 0.05030 0.27400
O 	O 	0.04532 0.18000 0.10530 -0.35300
C 	C 	0.01524 0.19287 0.41316 0.26200
O 	O 	0.99417 0.13616 0.20788 -0.63800
O 	O 	0.04727 0.16930 0.26377 -0.64500
O 	O 	0.11403 0.13401 0.20001 -0.36500
O 	O 	0.08859 0.12209 0.31558 -0.43100
O 	O 	0.98990 0.13398 0.04422 -0.37400
O 	O 	0.92613 0.14888 0.31180 -0.37700
C 	C 	0.89322 0.14739 0.26312 0.26300
C 	C 	0.01114 0.19483 0.11723 0.25500
O 	O 	0.97577 0.18586 0.15077 -0.39200
O 	O 	0.89994 0.14213 0.19079 -0.38600
O 	O 	0.05868 0.12521 0.09007 -0.35600
C 	C 	0.11799 0.12020 0.26145 0.26400
O 	O 	0.98184 0.18129 0.37967 -0.37900
O 	O 	0.05543 0.18328 0.41198 -0.41300
H 	H 	0.99109 0.11824 0.22333 0.16500
H 	H 	0.05238 0.18772 0.25868 0.17300
C 	C 	0.03287 0.01387 0.96494 0.08200
C 	C 	0.06181 0.03402 0.97863 -0.11400
C 	C 	0.04703 0.05858 0.96202 0.02600
C 	C 	0.00315 0.06310 0.94321 0.06700
C 	C 	0.97293 0.04301 0.93887 -0.08600
C 	C 	0.98940 0.01833 0.94468 0.01500
N 	N 	0.03646 0.99127 0.99925 -0.17900
C 	C 	0.99572 0.98089 0.00007 0.06300
C 	C 	0.96539 0.99766 0.96895 -0.08800
N 	N 	0.99141 0.08658 0.96467 -0.15100
C 	C 	0.02721 0.09707 0.99766 -0.00800
C 	C 	0.06239 0.08020 0.99736 -0.07000
H 	H 	0.09324 0.03090 0.00615 0.07300
H 	H 	0.93781 0.04655 0.93662 0.04800
H 	H 	0.93267 0.99277 0.94942 0.04200
H 	H 	0.08908 0.08045 0.03807 0.06900
H 	H 	0.06599 0.98162 0.00880 0.11200
H 	H 	0.95899 0.09208 0.97598 0.07300
C 	C 	0.28623 0.06480 0.28310 0.07200
C 	C 	0.26226 0.07989 0.23212 -0.08500
C 	C 	0.22842 0.09501 0.26116 0.00700
C 	C 	0.21609 0.09355 0.33656 0.07200
C 	C 	0.23816 0.07748 0.38687 -0.08500
C 	C 	0.27388 0.06336 0.35911 0.01000
N 	N 	0.32995 0.06129 0.27633 -0.15100
C 	C 	0.34608 0.05831 0.34718 -0.01100
C 	C 	0.31203 0.05910 0.39992 -0.04300
N 	N 	0.17366 0.10033 0.34473 -0.15500
C 	C 	0.15849 0.10563 0.27454 -0.01000
C 	C 	0.19183 0.10296 0.22117 -0.04100
H 	H 	0.27148 0.08096 0.17296 0.05100
H 	H 	0.22873 0.07650 0.44594 0.05000
H 	H 	0.31627 0.06450 0.45867 0.05100
H 	H 	0.18684 0.10064 0.16085 0.05100
H 	H 	0.34852 0.06801 0.23069 0.06900
H 	H 	0.15392 0.09615 0.39156 0.07700
C 	C 	0.79421 0.12631 0.34713 0.07400
C 	C 	0.77521 0.10407 0.37572 -0.08400
C 	C 	0.73904 0.09377 0.33716 0.01000
C 	C 	0.72137 0.10569 0.27390 0.07700
C 	C 	0.74038 0.12790 0.24522 -0.08500
C 	C 	0.77669 0.13814 0.28355 0.01300
N 	N 	0.83754 0.13133 0.35286 -0.15100
C 	C 	0.84807 0.14599 0.29279 0.00300
C 	C 	0.81107 0.15062 0.24846 -0.04800
N 	N 	0.67803 0.10067 0.26842 -0.15200
C 	C 	0.66772 0.08574 0.32807 0.00200
C 	C 	0.70488 0.08104 0.37202 -0.04600
H 	H 	0.78863 0.09487 0.42543 0.05000
H 	H 	0.72696 0.13709 0.19551 0.05400
H 	H 	0.81211 0.15497 0.18853 0.04700
H 	H 	0.70397 0.07658 0.43189 0.04500
H 	H 	0.86002 0.11974 0.38129 0.08700
H 	H 	0.65547 0.11230 0.24030 0.09300
C 	C 	0.19686 0.91316 0.76735 0.07100
C 	C 	0.22105 0.89781 0.71741 -0.08600
C 	C 	0.25499 0.88300 0.74751 0.00600
C 	C 	0.26708 0.88492 0.82296 0.06900
C 	C 	0.24481 0.90131 0.87213 -0.08600
C 	C 	0.20912 0.91520 0.84328 0.00800
N 	N 	0.15312 0.91647 0.76020 -0.15100
C 	C 	0.13690 0.91998 0.83078 -0.01200
C 	C 	0.17090 0.91971 0.88364 -0.04500
N 	N 	0.30953 0.87829 0.83185 -0.15400
C 	C 	0.32496 0.87272 0.76203 -0.01100
C 	C 	0.29179 0.87501 0.70822 -0.04400
H 	H 	0.21197 0.89633 0.65827 0.04900
H 	H 	0.25411 0.90270 0.93119 0.04700
H 	H 	0.16662 0.91471 0.94270 0.04600
H 	H 	0.29696 0.87710 0.64786 0.05000
H 	H 	0.13466 0.90943 0.71487 0.07400
H 	H 	0.32913 0.88292 0.87849 0.07700
C 	C 	0.68750 0.85448 0.85948 0.07200
C 	C 	0.70677 0.87825 0.87255 -0.08400
C 	C 	0.74319 0.88522 0.82847 0.00800
C 	C 	0.76146 0.86860 0.77636 0.07500
C 	C 	0.74310 0.84457 0.76480 -0.08600
C 	C 	0.70588 0.83779 0.80735 0.01200
N 	N 	0.64379 0.85060 0.86471 -0.15100
C 	C 	0.63370 0.83195 0.81524 0.00200
C 	C 	0.67162 0.82338 0.77923 -0.04900
N 	N 	0.80463 0.87349 0.76728 -0.15300
C 	C 	0.81421 0.89310 0.81370 0.00000
C 	C 	0.77678 0.90086 0.85287 -0.04700
H 	H 	0.69283 0.89122 0.91353 0.04800
H 	H 	0.75716 0.83163 0.72384 0.05100
H 	H 	0.67181 0.81469 0.72363 0.04200
H 	H 	0.77734 0.91017 0.90752 0.04200
H 	H 	0.62139 0.86447 0.88213 0.08100
H 	H 	0.82767 0.86014 0.74877 0.09100
C 	C 	0.50065 0.93656 0.52590 0.07400
C 	C 	0.52805 0.95546 0.55578 -0.08600
C 	C 	0.50828 0.97660 0.58947 0.00900
C 	C 	0.46279 0.97951 0.58972 0.07500
C 	C 	0.43530 0.96055 0.56046 -0.08500
C 	C 	0.45507 0.93913 0.52820 0.01200
N 	N 	0.51179 0.91194 0.52673 -0.15200
C 	C 	0.47384 0.89867 0.53159 0.00100
C 	C 	0.43780 0.91497 0.53242 -0.04400
N 	N 	0.45215 0.00422 0.58800 -0.15200
C 	C 	0.49060 0.01718 0.58664 0.00100
C 	C 	0.52615 0.00062 0.58796 -0.04900
H 	H 	0.56355 0.95348 0.55433 0.05000
H 	H 	0.39981 0.96256 0.56187 0.05400
H 	H 	0.40628 0.91048 0.55787 0.05400
H 	H 	0.55832 0.00500 0.56485 0.03600
H 	H 	0.54227 0.90520 0.54556 0.07600
H 	H 	0.42228 0.01121 0.56728 0.09500
C 	C 	0.95137 0.77095 0.11468 0.07700
C 	C 	0.92075 0.79074 0.10978 -0.08500
C 	C 	0.93433 0.81506 0.13108 0.01200
C 	C 	0.97740 0.81968 0.15410 0.07400
C 	C 	0.00789 0.79980 0.16017 -0.08500
C 	C 	0.99424 0.77547 0.13887 0.01100
N 	N 	0.93966 0.74699 0.13033 -0.15200
C 	C 	0.97452 0.73617 0.16531 -0.00000
C 	C 	0.00912 0.75330 0.17185 -0.04400
N 	N 	0.98921 0.84349 0.13605 -0.15200
C 	C 	0.95406 0.85409 0.10125 0.00200
C 	C 	0.91929 0.83701 0.09742 -0.04900
H 	H 	0.88736 0.78726 0.09086 0.05300
H 	H 	0.04128 0.80327 0.17908 0.05200
H 	H 	0.03425 0.75245 0.21532 0.04900
H 	H 	0.89357 0.83757 0.05492 0.05100
H 	H 	0.90708 0.74089 0.13618 0.08500
H 	H 	0.02179 0.84929 0.12783 0.08800
C 	C 	0.98073 0.73782 0.63741 0.07300
C 	C 	0.94811 0.75270 0.67188 -0.08400
C 	C 	0.94936 0.77895 0.66000 0.00800
C 	C 	0.98178 0.78992 0.61490 0.07500
C 	C 	0.01400 0.77492 0.57984 -0.08600
C 	C 	0.01381 0.74888 0.59424 0.01100
N 	N 	0.97408 0.71373 0.61542 -0.15200
C 	C 	0.00297 0.70937 0.55859 -0.00300
C 	C 	0.02813 0.73073 0.54368 -0.04900
N 	N 	0.98996 0.81365 0.63828 -0.15300
C 	C 	0.96381 0.81789 0.69889 -0.00400
C 	C 	0.93797 0.79676 0.71410 -0.04100
H 	H 	0.92279 0.74417 0.70673 0.04900
H 	H 	0.03934 0.78340 0.54490 0.05000
H 	H 	0.04336 0.73484 0.48957 0.04500
H 	H 	0.92514 0.79211 0.76963 0.04500
H 	H 	0.94470 0.70377 0.62334 0.08800
H 	H 	0.01947 0.82327 0.62804 0.07400
C 	C 	0.03062 0.25342 0.02498 0.10300
C 	C 	0.04624 0.26360 0.95655 -0.11500
C 	C 	0.01610 0.27627 0.90982 0.02800
C 	C 	0.97234 0.27924 0.93117 0.04500
C 	C 	0.95717 0.26984 0.00064 -0.05200
C 	C 	0.98723 0.25730 0.04772 -0.00500
N 	N 	0.04628 0.23177 0.05496 -0.15600
C 	C 	0.01321 0.22182 0.09682 -0.00400
C 	C 	0.97614 0.23721 0.09389 -0.03900
N 	N 	0.95511 0.29988 0.89810 -0.14800
C 	C 	0.98774 0.31041 0.85671 0.00000
C 	C 	0.02638 0.29638 0.86268 -0.05300
H 	H 	0.08021 0.26111 0.93944 0.05500
H 	H 	0.92316 0.27232 0.01762 0.04700
H 	H 	0.94275 0.23054 0.10230 0.04500
H 	H 	0.05920 0.30397 0.85486 0.05100
H 	H 	0.07194 0.22119 0.03136 0.09500
H 	H 	0.92779 0.30976 0.91875 0.08100
C 	C 	0.98303 0.25326 0.47943 0.07400
C 	C 	0.96694 0.27644 0.45206 -0.08500
C 	C 	0.99482 0.29757 0.45534 0.01100
C 	C 	0.03662 0.29590 0.48694 0.07500
C 	C 	0.05215 0.27296 0.51639 -0.08500
C 	C 	0.02442 0.25178 0.51305 0.01100
N 	N 	0.97218 0.23085 0.44825 -0.15100
C 	C 	0.00644 0.21507 0.46124 0.00000
C 	C 	0.03934 0.22740 0.50179 -0.04700
N 	N 	0.04907 0.31851 0.51448 -0.15300
C 	C 	0.01525 0.33458 0.50168 -0.00000
C 	C 	0.98074 0.32225 0.46523 -0.04500
H 	H 	0.93444 0.27779 0.42711 0.05200
H 	H 	0.08467 0.27165 0.54132 0.05100
H 	H 	0.07384 0.22218 0.50032 0.04700
H 	H 	0.94651 0.32792 0.46885 0.04800
H 	H 	0.95005 0.22882 0.40330 0.08700
H 	H 	0.07262 0.32091 0.55707 0.08600
C 	C 	0.00912 0.50157 0.47965 0.07300
C 	C 	0.03571 0.52176 0.50363 -0.08600
C 	C 	0.01524 0.54263 0.53763 0.00900
C 	C 	0.96967 0.54395 0.54405 0.07500
C 	C 	0.94303 0.52379 0.52014 -0.08500
C 	C 	0.96355 0.50270 0.48735 0.01200
N 	N 	0.02279 0.47738 0.48168 -0.15200
C 	C 	0.98649 0.46298 0.49219 0.00200
C 	C 	0.94899 0.47808 0.49586 -0.04500
N 	N 	0.95631 0.56821 0.54220 -0.15200
C 	C 	0.99308 0.58246 0.53459 0.00200
C 	C 	0.03034 0.56720 0.53170 -0.04900
H 	H 	0.07119 0.52096 0.49766 0.04900
H 	H 	0.90756 0.52463 0.52609 0.05400
H 	H 	0.91905 0.47287 0.52540 0.05600
H 	H 	0.06076 0.57250 0.50378 0.03700
H 	H 	0.05457 0.47186 0.49746 0.07700
H 	H 	0.92482 0.57398 0.52554 0.09500
C 	C 	0.44550 0.71258 0.92902 0.07400
C 	C 	0.42365 0.69033 0.90788 -0.08700
C 	C 	0.44903 0.66879 0.89214 0.01200
C 	C 	0.49479 0.66943 0.89779 0.07000
C 	C 	0.51674 0.69223 0.91400 -0.08500
C 	C 	0.49114 0.71352 0.93148 0.00800
N 	N 	0.42889 0.73575 0.91631 -0.15200
C 	C 	0.46370 0.75152 0.90925 -0.00200
C 	C 	0.50316 0.73838 0.91766 -0.04600
N 	N 	0.51007 0.64677 0.92086 -0.15200
C 	C 	0.47453 0.63168 0.93104 0.00000
C 	C 	0.43621 0.64464 0.91207 -0.05100
H 	H 	0.38802 0.68967 0.90516 0.04900
H 	H 	0.55234 0.69299 0.91673 0.04700
H 	H 	0.53432 0.74414 0.89328 0.04900
H 	H 	0.40394 0.64007 0.93451 0.04300
H 	H 	0.39783 0.73915 0.89285 0.08200
H 	H 	0.53997 0.64433 0.94933 0.07200
C 	C 	0.51226 0.74452 0.46292 0.07400
C 	C 	0.53593 0.74005 0.39617 -0.08500
C 	C 	0.51300 0.73092 0.33292 0.01100
C 	C 	0.46800 0.72593 0.33667 0.07600
C 	C 	0.44389 0.73175 0.40227 -0.08400
C 	C 	0.46704 0.74062 0.46557 0.01100
N 	N 	0.52417 0.76218 0.51366 -0.15100
C 	C 	0.48674 0.77003 0.54761 -0.00100
C 	C 	0.45037 0.75721 0.51893 -0.04900
N 	N 	0.45773 0.70631 0.29131 -0.15200
C 	C 	0.49580 0.69861 0.25881 0.00300
C 	C 	0.53062 0.71374 0.28258 -0.04700
H 	H 	0.57111 0.74335 0.39373 0.05000
H 	H 	0.40871 0.72850 0.40485 0.05200
H 	H 	0.41705 0.76456 0.51875 0.04700
H 	H 	0.56470 0.70764 0.28367 0.04400
H 	H 	0.55278 0.77311 0.50956 0.08000
H 	H 	0.43040 0.69459 0.29962 0.09000
C 	C 	0.28845 0.65217 0.23547 0.07600
C 	C 	0.26045 0.66657 0.28161 -0.08300
C 	C 	0.21761 0.67129 0.25519 0.01300
C 	C 	0.20133 0.65899 0.19125 0.07600
C 	C 	0.22783 0.64180 0.15116 -0.08200
C 	C 	0.27240 0.64017 0.17122 0.01100
N 	N 	0.32404 0.63986 0.26188 -0.15200
C 	C 	0.33145 0.62022 0.21443 0.00200
C 	C 	0.29896 0.61936 0.15893 -0.04800
N 	N 	0.15724 0.65670 0.19594 -0.15000
C 	C 	0.14527 0.66728 0.26247 0.00400
C 	C 	0.18186 0.67631 0.30128 -0.04900
H 	H 	0.27060 0.67243 0.33775 0.05200
H 	H 	0.21369 0.62909 0.10963 0.05300
H 	H 	0.30087 0.60884 0.10640 0.04300
H 	H 	0.18363 0.67841 0.36223 0.04300
H 	H 	0.34638 0.64708 0.30138 0.09000
H 	H 	0.13892 0.64283 0.16782 0.08700
C 	C 	0.71869 0.57754 0.22731 0.07500
C 	C 	0.75684 0.58891 0.19778 -0.08600
C 	C 	0.78099 0.60497 0.24518 0.00800
C 	C 	0.76992 0.60806 0.32071 0.07000
C 	C 	0.73326 0.59572 0.35164 -0.08600
C 	C 	0.70753 0.58059 0.30342 0.00900
N 	N 	0.68210 0.57414 0.18547 -0.15100
C 	C 	0.64747 0.57556 0.23347 -0.00700
C 	C 	0.66211 0.57925 0.30737 -0.04800
N 	N 	0.80568 0.61459 0.36128 -0.15200
C 	C 	0.83986 0.61510 0.31223 -0.00800
C 	C 	0.82561 0.60962 0.23921 -0.05300
H 	H 	0.76589 0.58645 0.13892 0.05200
H 	H 	0.72442 0.59827 0.41056 0.04900
H 	H 	0.64270 0.58812 0.35150 0.04000
H 	H 	0.84657 0.60358 0.19299 0.04500
H 	H 	0.68018 0.57824 0.12763 0.08900
H 	H 	0.80858 0.61308 0.42008 0.08800
C 	C 	0.47500 0.23180 0.09749 0.07700
C 	C 	0.46851 0.20661 0.07546 -0.08500
C 	C 	0.49892 0.18843 0.10018 0.01400
C 	C 	0.53444 0.19514 0.14594 0.07400
C 	C 	0.54192 0.22056 0.16520 -0.08300
C 	C 	0.51094 0.23858 0.14178 0.01000
N 	N 	0.46152 0.25159 0.05567 -0.15100
C 	C 	0.48903 0.27089 0.07230 -0.00400
C 	C 	0.52040 0.26357 0.12529 -0.04300
N 	N 	0.54495 0.17585 0.19241 -0.15100
C 	C 	0.51619 0.15697 0.17736 0.00100
C 	C 	0.48741 0.16404 0.11989 -0.04800
H 	H 	0.44055 0.20131 0.04084 0.05400
H 	H 	0.56986 0.22593 0.19977 0.05200
H 	H 	0.55252 0.27223 0.13169 0.05100
H 	H 	0.45476 0.15617 0.11228 0.04500
H 	H 	0.44373 0.25004 0.00519 0.08900
H 	H 	0.56095 0.17815 0.24439 0.08900
C 	C 	0.50990 0.22791 0.60409 0.07500
C 	C 	0.54180 0.20996 0.58353 -0.08600
C 	C 	0.53577 0.18491 0.60719 0.01100
C 	C 	0.49803 0.17763 0.64599 0.07300
C 	C 	0.46573 0.19544 0.66558 -0.08500
C 	C 	0.47229 0.22069 0.64372 0.00800
N 	N 	0.52016 0.25207 0.62011 -0.15200
C 	C 	0.48995 0.26031 0.67069 -0.00200
C 	C 	0.45955 0.24135 0.68657 -0.04300
N 	N 	0.48890 0.15314 0.63209 -0.15200
C 	C 	0.52067 0.14478 0.58460 -0.00200
C 	C 	0.55034 0.16397 0.56765 -0.04900
H 	H 	0.57100 0.21550 0.55246 0.05000
H 	H 	0.43654 0.18985 0.69661 0.05000
H 	H 	0.44121 0.24001 0.73906 0.04600
H 	H 	0.56983 0.16482 0.51632 0.04600
H 	H 	0.55172 0.25973 0.61415 0.08300
H 	H 	0.45755 0.14511 0.63680 0.08800
C 	C 	0.20705 0.37319 0.82520 0.07300
C 	C 	0.22516 0.35119 0.85676 -0.08500
C 	C 	0.26203 0.34046 0.82143 0.01100
C 	C 	0.28074 0.35150 0.75758 0.07400
C 	C 	0.26262 0.37354 0.72616 -0.08500
C 	C 	0.22614 0.38448 0.76211 0.00900
N 	N 	0.16372 0.37842 0.82777 -0.15200
C 	C 	0.15482 0.39287 0.76644 -0.00200
C 	C 	0.19287 0.39708 0.72446 -0.04700
N 	N 	0.32411 0.34638 0.75486 -0.15000
C 	C 	0.33352 0.33258 0.81720 0.00100
C 	C 	0.29569 0.32844 0.85980 -0.04800
H 	H 	0.21070 0.34255 0.90650 0.04900
H 	H 	0.27705 0.38218 0.67639 0.05000
H 	H 	0.19318 0.40102 0.66424 0.04300
H 	H 	0.29561 0.32496 0.92027 0.04200
H 	H 	0.14048 0.36714 0.85551 0.08900
H 	H 	0.34713 0.35763 0.72644 0.08400
C 	C 	0.78715 0.38524 0.79511 0.06500
C 	C 	0.75769 0.38098 0.85490 -0.08200
C 	C 	0.71656 0.37068 0.83640 0.00500
C 	C 	0.70276 0.36892 0.76170 0.06900
C 	C 	0.73034 0.37649 0.70212 -0.08200
C 	C 	0.77401 0.38251 0.72049 0.00500
N 	N 	0.82210 0.40070 0.79968 -0.15200
C 	C 	0.83301 0.40706 0.72769 -0.02100
C 	C 	0.80208 0.39709 0.67731 -0.04000
N 	N 	0.65861 0.36935 0.75795 -0.15100
C 	C 	0.64374 0.37036 0.83022 -0.01400
C 	C 	0.67909 0.37237 0.88026 -0.04200
H 	H 	0.76555 0.38663 0.91230 0.04700
H 	H 	0.71784 0.37879 0.64509 0.05100
H 	H 	0.80657 0.39509 0.61678 0.04900
H 	H 	0.67777 0.36905 0.94072 0.04700
H 	H 	0.84296 0.40198 0.84659 0.05900
H 	H 	0.64021 0.36350 0.71112 0.06800
C 	C 	0.48966 0.42927 0.16023 0.07500
C 	C 	0.46318 0.45104 0.16182 -0.08400
C 	C 	0.48420 0.47463 0.15897 0.01200
C 	C 	0.52906 0.47649 0.14370 0.07600
C 	C 	0.55449 0.45466 0.13227 -0.08300
C 	C 	0.53475 0.43114 0.14658 0.01300
N 	N 	0.47456 0.40660 0.13720 -0.15200
C 	C 	0.50950 0.39405 0.10835 0.00600
C 	C 	0.54744 0.40870 0.11271 -0.04500
N 	N 	0.53790 0.49871 0.10968 -0.15100
C 	C 	0.49895 0.51067 0.10079 0.00400
C 	C 	0.46497 0.49655 0.13201 -0.05500
H 	H 	0.42760 0.44962 0.16000 0.05100
H 	H 	0.58728 0.45587 0.10834 0.05700
H 	H 	0.57554 0.40675 0.07537 0.05800
H 	H 	0.43033 0.49897 0.11926 0.04300
H 	H 	0.44183 0.40301 0.12225 0.08200
H 	H 	0.56641 0.50271 0.07873 0.09600
