data_crystal

_cell_length_a 22.73126
_cell_length_b 20.53709
_cell_length_c 51.08489
_cell_angle_alpha 89.85230
_cell_angle_beta  89.85593
_cell_angle_gamma 119.78777

_symmetry_space_group_name_	'P 1'
_symmetry_space_group_name_H-M	'P 1'

loop_
_symmetry_equiv_pos_as_xyz
  x,y,z

loop_
_atom_site_label
_atom_site_type_symbol
_atom_site_fract_x
_atom_site_fract_y
_atom_site_fract_z
_atom_site_charge
C 	C 	0.85060 0.50414 0.92622 0.34900
C 	C 	0.59405 0.38136 0.86445 0.30300
C 	C 	0.72748 0.55876 0.91837 0.31000
C 	C 	0.72292 0.31087 0.86256 0.28700
C 	C 	0.56304 0.33775 0.94734 0.37100
C 	C 	0.67266 0.25268 0.94913 0.34500
Ni	Ni	0.73878 0.45512 0.88271 1.11400
Ni	Ni	0.62026 0.29348 0.90352 1.12600
Ni	Ni	0.71034 0.41912 0.94493 1.12600
O 	O 	0.83235 0.51871 0.90288 -0.35700
O 	O 	0.80809 0.44687 0.94100 -0.36800
O 	O 	0.56374 0.28116 0.93572 -0.38000
O 	O 	0.65739 0.41104 0.85652 -0.36600
O 	O 	0.57534 0.34716 0.88712 -0.36300
O 	O 	0.68341 0.31583 0.96123 -0.36400
O 	O 	0.69741 0.51501 0.89873 -0.37500
O 	O 	0.74419 0.53195 0.93879 -0.36200
O 	O 	0.66167 0.24286 0.92358 -0.36000
O 	O 	0.76616 0.38368 0.86491 -0.35500
O 	O 	0.65747 0.28220 0.86825 -0.36300
O 	O 	0.61685 0.40461 0.94720 -0.37200
O 	O 	0.70215 0.38440 0.90992 -0.71700
H 	H 	0.73486 0.36614 0.91005 0.17600
C 	C 	0.73884 0.38601 0.51936 0.33400
C 	C 	0.59198 0.13361 0.59038 0.35600
C 	C 	0.56520 0.31408 0.54654 0.35000
C 	C 	0.76820 0.21409 0.56696 0.29300
C 	C 	0.63114 0.33975 0.62569 0.30500
C 	C 	0.81934 0.44339 0.60281 0.28900
Ni	Ni	0.65121 0.23938 0.54682 1.12300
Ni	Ni	0.71358 0.27776 0.60557 1.12500
Ni	Ni	0.69264 0.39874 0.57410 1.13000
O 	O 	0.71907 0.31338 0.51969 -0.33900
O 	O 	0.70886 0.41461 0.53428 -0.35700
O 	O 	0.63796 0.28001 0.62471 -0.37800
O 	O 	0.57912 0.17427 0.57431 -0.37300
O 	O 	0.65091 0.16433 0.60231 -0.34700
O 	O 	0.79199 0.45758 0.58214 -0.37900
O 	O 	0.58566 0.27570 0.53232 -0.34000
O 	O 	0.59152 0.33794 0.56953 -0.36200
O 	O 	0.78365 0.38254 0.61773 -0.37600
O 	O 	0.70904 0.18570 0.55415 -0.33900
O 	O 	0.78306 0.26130 0.58685 -0.37000
O 	O 	0.67227 0.40096 0.61250 -0.36700
O 	O 	0.70080 0.31162 0.57237 -0.71700
H 	H 	0.74694 0.33379 0.56504 0.16300
C 	C 	0.98365 0.07017 0.68676 0.28700
C 	C 	0.97541 0.91133 0.78477 0.29700
C 	C 	0.96206 0.10146 0.76094 0.30300
C 	C 	0.00184 0.87019 0.71201 0.28000
C 	C 	0.16928 0.14052 0.77404 0.30500
C 	C 	0.18731 0.09111 0.70849 0.28300
Ni	Ni	0.94817 0.96516 0.73426 1.09800
Ni	Ni	0.09590 0.98767 0.74984 1.10500
Ni	Ni	0.08368 0.12891 0.73038 1.12200
O 	O 	0.93719 0.03003 0.70485 -0.35400
O 	O 	0.04801 0.11624 0.69325 -0.37600
O 	O 	0.16894 0.07737 0.76902 -0.36600
O 	O 	0.93917 0.88956 0.76329 -0.37500
O 	O 	0.04093 0.95935 0.78367 -0.38600
O 	O 	0.17404 0.14334 0.71756 -0.38400
O 	O 	0.93834 0.02908 0.76337 -0.36300
O 	O 	0.00249 0.13898 0.74133 -0.37800
O 	O 	0.15806 0.02169 0.71838 -0.36700
O 	O 	0.95642 0.89210 0.70849 -0.37800
O 	O 	0.03524 0.88318 0.73448 -0.37800
O 	O 	0.11815 0.14963 0.76718 -0.38600
O 	O 	0.04305 0.02359 0.73290 -0.70200
H 	H 	0.05028 0.01424 0.71460 0.15600
C 	C 	0.25839 0.77423 0.42785 0.28100
C 	C 	0.30333 0.52382 0.45763 0.36200
C 	C 	0.41114 0.76853 0.45693 0.36100
C 	C 	0.14041 0.52581 0.43284 0.34100
C 	C 	0.41101 0.64049 0.38779 0.31200
C 	C 	0.25650 0.63468 0.35971 0.29100
Ni	Ni	0.26872 0.64729 0.45585 1.12000
Ni	Ni	0.26721 0.55253 0.40483 1.12500
Ni	Ni	0.35220 0.73138 0.40309 1.12300
O 	O 	0.26999 0.75031 0.45061 -0.34800
O 	O 	0.29213 0.77735 0.40617 -0.36800
O 	O 	0.35009 0.58565 0.38161 -0.37300
O 	O 	0.26279 0.54636 0.46733 -0.35900
O 	O 	0.31917 0.53228 0.43268 -0.36000
O 	O 	0.31760 0.69195 0.36607 -0.37600
O 	O 	0.37113 0.69845 0.46311 -0.33700
O 	O 	0.40120 0.79562 0.43502 -0.37700
O 	O 	0.22322 0.57541 0.37523 -0.36900
O 	O 	0.16597 0.58359 0.44903 -0.35600
O 	O 	0.17704 0.49512 0.42491 -0.36800
O 	O 	0.41786 0.69360 0.40368 -0.37000
O 	O 	0.28230 0.64428 0.41982 -0.71600
H 	H 	0.24241 0.64582 0.41317 0.16800
C 	C 	0.36185 0.52053 0.06586 0.34600
C 	C 	0.24452 0.67193 0.12981 0.30500
C 	C 	0.19384 0.47737 0.07957 0.29900
C 	C 	0.43391 0.73214 0.12277 0.28600
C 	C 	0.22775 0.69142 0.04534 0.35800
C 	C 	0.41528 0.76599 0.03696 0.34200
Ni	Ni	0.31053 0.58646 0.10980 1.11400
Ni	Ni	0.33668 0.74429 0.08520 1.12400
Ni	Ni	0.29813 0.60624 0.04736 1.13000
O 	O 	0.33656 0.51362 0.09006 -0.37200
O 	O 	0.36807 0.57353 0.04936 -0.36500
O 	O 	0.28218 0.75024 0.05468 -0.35700
O 	O 	0.28169 0.64211 0.13654 -0.37100
O 	O 	0.24988 0.70023 0.10635 -0.37800
O 	O 	0.36156 0.70409 0.02746 -0.35800
O 	O 	0.21060 0.52512 0.09863 -0.37700
O 	O 	0.22986 0.49732 0.05778 -0.32300
O 	O 	0.41760 0.78783 0.06156 -0.35900
O 	O 	0.40790 0.65829 0.12259 -0.36400
O 	O 	0.39538 0.76319 0.11807 -0.36200
O 	O 	0.21968 0.62414 0.04776 -0.38700
O 	O 	0.33156 0.64976 0.08058 -0.71900
H 	H 	0.37995 0.66578 0.07833 0.17100
C 	C 	0.06063 0.18583 0.27989 0.28900
C 	C 	0.03961 0.90268 0.23734 0.30400
C 	C 	0.03294 0.10246 0.21264 0.30500
C 	C 	0.05747 0.96181 0.30853 0.24300
C 	C 	0.84347 0.91549 0.23288 0.30600
C 	C 	0.84777 0.94477 0.29977 0.25900
Ni	Ni	0.08003 0.05445 0.25980 1.12000
Ni	Ni	0.93671 0.90415 0.27175 1.11500
Ni	Ni	0.93812 0.05675 0.25763 1.12600
O 	O 	0.10003 0.16400 0.26779 -0.36500
O 	O 	0.99436 0.14017 0.28305 -0.37300
O 	O 	0.85053 0.87455 0.25123 -0.38800
O 	O 	0.08654 0.95969 0.25039 -0.38600
O 	O 	0.97612 0.88626 0.23873 -0.38600
O 	O 	0.85987 0.00214 0.28385 -0.34600
O 	O 	0.06519 0.06754 0.22036 -0.36100
O 	O 	0.00446 0.12539 0.22995 -0.37800
O 	O 	0.89133 0.92021 0.30265 -0.38800
O 	O 	0.09455 0.02996 0.29804 -0.33600
O 	O 	0.01185 0.90456 0.29426 -0.36700
O 	O 	0.89041 0.98500 0.22858 -0.41300
O 	O 	0.98771 0.01032 0.26872 -0.70600
H 	H 	0.99174 0.02434 0.28733 0.16800
C 	C 	0.04064 0.12981 0.18538 -0.06600
C 	C 	0.99180 0.14468 0.17457 0.01500
C 	C 	0.00485 0.18456 0.15105 -0.05000
C 	C 	0.06871 0.21346 0.13871 0.01500
C 	C 	0.11319 0.18830 0.14745 0.01300
C 	C 	0.09933 0.14739 0.17094 -0.01000
C 	C 	0.17206 0.20652 0.13315 -0.03100
C 	C 	0.19068 0.25534 0.11183 -0.03500
C 	C 	0.15297 0.29031 0.10542 0.02200
C 	C 	0.09065 0.26876 0.11843 0.00700
C 	C 	0.05673 0.30949 0.11317 -0.04000
C 	C 	0.08652 0.37265 0.09683 0.00600
C 	C 	0.15072 0.39726 0.08587 -0.04800
C 	C 	0.18088 0.35240 0.08842 -0.01500
H 	H 	0.94387 0.12593 0.18455 0.04500
H 	H 	0.96445 0.18998 0.14215 0.05600
H 	H 	0.13560 0.13245 0.17854 0.05300
H 	H 	0.20440 0.18414 0.13893 0.05400
H 	H 	0.23715 0.26991 0.10133 0.06000
H 	H 	0.01023 0.29655 0.12311 0.05100
H 	H 	0.06227 0.40635 0.09459 0.05200
H 	H 	0.23044 0.37128 0.07996 0.08000
C 	C 	0.78019 0.88452 0.21801 -0.08000
C 	C 	0.76517 0.82908 0.19919 0.01400
C 	C 	0.71032 0.80760 0.18227 -0.05300
C 	C 	0.67046 0.84281 0.18373 0.01100
C 	C 	0.68151 0.89283 0.20459 0.00600
C 	C 	0.73788 0.91562 0.22093 -0.01400
C 	C 	0.63528 0.91805 0.20927 -0.03800
C 	C 	0.57776 0.89328 0.19368 -0.04100
C 	C 	0.56791 0.84701 0.17208 0.01500
C 	C 	0.61677 0.82566 0.16590 0.00600
C 	C 	0.61227 0.79081 0.14166 -0.04200
C 	C 	0.55449 0.76624 0.12622 0.01100
C 	C 	0.50138 0.77772 0.13434 -0.05400
C 	C 	0.50964 0.82152 0.15653 -0.01600
H 	H 	0.79660 0.80333 0.19739 0.04000
H 	H 	0.69751 0.76168 0.16895 0.05300
H 	H 	0.74903 0.95770 0.23584 0.02800
H 	H 	0.64295 0.95537 0.22549 0.03800
H 	H 	0.54127 0.91106 0.19821 0.04300
H 	H 	0.65383 0.78454 0.13432 0.05500
H 	H 	0.54992 0.73583 0.10834 0.05900
H 	H 	0.46961 0.83278 0.16233 0.05000
C 	C 	0.20008 0.67884 0.14914 -0.07200
C 	C 	0.13686 0.66838 0.14138 0.01200
C 	C 	0.10102 0.69125 0.15759 -0.04900
C 	C 	0.13008 0.72884 0.18122 0.00900
C 	C 	0.18875 0.72907 0.19066 0.01000
C 	C 	0.22393 0.70482 0.17440 -0.01400
C 	C 	0.21245 0.75515 0.21591 -0.03800
C 	C 	0.18107 0.78521 0.23126 -0.03800
C 	C 	0.12814 0.79392 0.22104 0.01000
C 	C 	0.10255 0.76672 0.19569 0.00900
C 	C 	0.05526 0.78448 0.18453 -0.05000
C 	C 	0.03220 0.82550 0.19875 0.00800
C 	C 	0.05731 0.85168 0.22382 -0.07500
C 	C 	0.10376 0.83410 0.23519 -0.01300
H 	H 	0.11596 0.64356 0.12255 0.05000
H 	H 	0.05025 0.67740 0.15209 0.05300
H 	H 	0.27142 0.70979 0.18086 0.04700
H 	H 	0.25568 0.75268 0.22362 0.04200
H 	H 	0.20013 0.80508 0.25076 0.04200
H 	H 	0.03956 0.77122 0.16440 0.05200
H 	H 	0.99710 0.83998 0.18972 0.04300
H 	H 	0.12285 0.85417 0.25470 0.04800
C 	C 	0.46990 0.65327 0.37211 -0.06400
C 	C 	0.52960 0.66757 0.38489 0.01100
C 	C 	0.59241 0.71011 0.37254 -0.04300
C 	C 	0.59608 0.74182 0.34761 0.00800
C 	C 	0.53548 0.71669 0.33322 0.01200
C 	C 	0.47258 0.67192 0.34556 -0.01700
C 	C 	0.53830 0.73878 0.30704 -0.03800
C 	C 	0.60042 0.78785 0.29533 -0.03900
C 	C 	0.66042 0.81858 0.30995 0.01300
C 	C 	0.65856 0.79775 0.33656 0.00700
C 	C 	0.71787 0.83682 0.35177 -0.04800
C 	C 	0.77922 0.88802 0.33992 0.00300
C 	C 	0.78193 0.90384 0.31313 -0.06100
C 	C 	0.72223 0.87093 0.29838 -0.02100
H 	H 	0.52760 0.64921 0.40495 0.07200
H 	H 	0.63737 0.71694 0.38220 0.05400
H 	H 	0.42608 0.65707 0.33521 0.04500
H 	H 	0.49217 0.71811 0.29574 0.04100
H 	H 	0.60167 0.80365 0.27498 0.04200
H 	H 	0.71648 0.83006 0.37278 0.05000
H 	H 	0.82491 0.91507 0.35159 0.04100
H 	H 	0.72427 0.88409 0.27772 0.04200
C 	C 	0.23490 0.62500 0.33230 -0.06000
C 	C 	0.27560 0.61532 0.31384 0.00200
C 	C 	0.24669 0.55148 0.29800 -0.04800
C 	C 	0.17668 0.49973 0.30028 0.00600
C 	C 	0.13484 0.52406 0.31223 0.02000
C 	C 	0.16491 0.58951 0.32748 -0.01800
C 	C 	0.06424 0.47806 0.31164 -0.03600
C 	C 	0.03553 0.40484 0.30217 -0.03500
C 	C 	0.07714 0.37532 0.29472 0.01400
C 	C 	0.14859 0.42266 0.29384 0.00900
C 	C 	0.18998 0.39003 0.29032 -0.04800
C 	C 	0.16096 0.31279 0.28682 0.00600
C 	C 	0.09025 0.26637 0.28635 -0.06000
C 	C 	0.04843 0.29798 0.29009 -0.01700
H 	H 	0.33010 0.65099 0.31424 0.03700
H 	H 	0.27840 0.54234 0.28440 0.04400
H 	H 	0.13333 0.60390 0.33931 0.06600
H 	H 	0.03165 0.49786 0.31951 0.05400
H 	H 	0.98086 0.36945 0.30226 0.04900
H 	H 	0.24452 0.42329 0.29169 0.04800
H 	H 	0.19379 0.28891 0.28460 0.04500
H 	H 	0.99376 0.26244 0.28989 0.05100
C 	C 	0.21611 0.80977 0.42722 -0.04600
C 	C 	0.24785 0.88798 0.42444 0.00600
C 	C 	0.21636 0.92054 0.41027 -0.04000
C 	C 	0.15351 0.87438 0.39799 -0.00100
C 	C 	0.11618 0.79787 0.40544 0.03100
C 	C 	0.14769 0.76606 0.42031 -0.02300
C 	C 	0.04951 0.75317 0.39668 -0.03700
C 	C 	0.02161 0.78188 0.37888 -0.03200
C 	C 	0.06120 0.85428 0.36836 0.01200
C 	C 	0.12790 0.90152 0.37776 0.01900
C 	C 	0.16951 0.97056 0.36479 -0.07300
C 	C 	0.14507 0.99199 0.34324 -0.02800
C 	C 	0.07935 0.94476 0.33380 -0.04400
C 	C 	0.03663 0.87755 0.34715 -0.02300
H 	H 	0.29906 0.92303 0.43150 0.05200
H 	H 	0.24041 0.98099 0.40929 0.04800
H 	H 	0.12131 0.70620 0.42418 0.07900
H 	H 	0.01963 0.69546 0.40323 0.06400
H 	H 	0.97017 0.74617 0.37214 0.04700
H 	H 	0.22201 0.00566 0.37010 0.08200
H 	H 	0.17862 0.04400 0.33317 0.07400
H 	H 	0.98533 0.84158 0.34026 0.04800
C 	C 	0.56793 0.95770 0.56417 -0.21200
C 	C 	0.50815 0.93744 0.55023 0.03000
C 	C 	0.46396 0.96200 0.55924 0.24800
C 	C 	0.48648 0.01890 0.57794 -0.00300
C 	C 	0.55323 0.05154 0.58723 -0.17200
C 	C 	0.58853 0.01218 0.58372 0.41900
C 	C 	0.49673 0.90025 0.52454 0.00600
F 	F 	0.40186 0.93545 0.54830 -0.41400
H 	H 	0.45552 0.04389 0.58261 0.09300
F 	F 	0.64491 0.03021 0.59791 -0.45200
H 	H 	0.59995 0.93447 0.55894 0.11000
C 	C 	0.48785 0.93395 0.50199 0.27300
C 	C 	0.46631 0.89355 0.47865 -0.05100
C 	C 	0.45514 0.81996 0.47748 -0.14600
C 	C 	0.47401 0.79109 0.49893 0.36900
C 	C 	0.49297 0.83028 0.52255 -0.15000
F 	F 	0.49807 0.00490 0.50296 -0.39000
H 	H 	0.45483 0.91795 0.46198 0.09300
F 	F 	0.47057 0.72331 0.49726 -0.41900
H 	H 	0.50277 0.80528 0.53948 0.11100
C 	C 	0.81939 0.42200 0.45411 -0.14200
C 	C 	0.88737 0.46392 0.46164 0.00900
C 	C 	0.90352 0.49952 0.48614 0.29600
C 	C 	0.85207 0.48354 0.50438 -0.06400
C 	C 	0.78466 0.43164 0.49826 -0.13200
C 	C 	0.76798 0.40685 0.47228 0.37300
C 	C 	0.94013 0.45943 0.44629 0.01000
F 	F 	0.96930 0.54411 0.49305 -0.42600
H 	H 	0.86529 0.50533 0.52410 0.08700
F 	F 	0.70227 0.36105 0.46553 -0.42700
H 	H 	0.80643 0.39680 0.43487 0.11700
C 	C 	0.96421 0.41167 0.45462 0.29700
C 	C 	0.02742 0.42425 0.44596 -0.05600
C 	C 	0.06690 0.48511 0.42934 -0.13900
C 	C 	0.03665 0.52245 0.41711 0.36100
C 	C 	0.97403 0.51107 0.42609 -0.14400
F 	F 	0.92937 0.35785 0.47291 -0.42100
H 	H 	0.04894 0.39246 0.45454 0.09900
F 	F 	0.07158 0.57611 0.39878 -0.46600
H 	H 	0.95424 0.54579 0.41864 0.10300
C 	C 	0.43944 0.49247 0.48622 -0.14800
C 	C 	0.40091 0.42458 0.49972 0.01700
C 	C 	0.33020 0.39314 0.50156 0.29700
C 	C 	0.29830 0.42843 0.48923 -0.05500
C 	C 	0.33688 0.49525 0.47507 -0.14100
C 	C 	0.40776 0.52784 0.47408 0.38400
C 	C 	0.43565 0.39000 0.51355 0.01600
F 	F 	0.29248 0.32846 0.51515 -0.41200
H 	H 	0.24359 0.40260 0.48998 0.09700
F 	F 	0.44581 0.59292 0.46072 -0.41800
H 	H 	0.49408 0.51777 0.48510 0.12200
C 	C 	0.43516 0.32624 0.50329 0.30000
C 	C 	0.47651 0.30056 0.51429 -0.05300
C 	C 	0.51926 0.33898 0.53540 -0.13900
C 	C 	0.51881 0.40244 0.54575 0.36500
C 	C 	0.47638 0.42660 0.53515 -0.15100
F 	F 	0.39610 0.29044 0.48227 -0.40500
H 	H 	0.47576 0.25142 0.50623 0.11500
F 	F 	0.56185 0.44295 0.56526 -0.46400
H 	H 	0.47732 0.47603 0.54305 0.11700
C 	C 	0.81045 0.17872 0.56383 -0.04600
C 	C 	0.78073 0.10099 0.56744 0.02200
C 	C 	0.81505 0.07191 0.58176 -0.03200
C 	C 	0.88000 0.12122 0.59197 0.01600
C 	C 	0.91568 0.19523 0.58189 0.02100
C 	C 	0.88071 0.22330 0.56732 -0.01200
C 	C 	0.98375 0.24217 0.58851 -0.03400
C 	C 	0.01413 0.21975 0.60748 -0.03200
C 	C 	0.97583 0.15189 0.62111 0.01500
C 	C 	0.90843 0.10090 0.61321 0.00500
C 	C 	0.86886 0.03626 0.62870 -0.01500
C 	C 	0.89507 0.02419 0.65180 0.03700
C 	C 	0.96059 0.07646 0.66016 -0.06800
C 	C 	0.00207 0.13790 0.64399 -0.01300
H 	H 	0.72954 0.06390 0.56084 0.07900
H 	H 	0.79184 0.01187 0.58429 0.06900
H 	H 	0.90580 0.28226 0.56196 0.06000
H 	H 	0.01250 0.29735 0.57968 0.05700
H 	H 	0.06638 0.25758 0.61283 0.05000
H 	H 	0.81668 0.99741 0.62392 0.02400
H 	H 	0.86333 0.97520 0.66366 0.01200
H 	H 	0.05337 0.17751 0.64999 0.05100
C 	C 	0.24881 0.11718 0.69266 -0.06100
C 	C 	0.30240 0.10894 0.70233 0.00800
C 	C 	0.36803 0.15393 0.69267 -0.04800
C 	C 	0.38093 0.20875 0.67335 0.01100
C 	C 	0.32541 0.20923 0.66105 0.01400
C 	C 	0.25975 0.16451 0.67115 -0.01400
C 	C 	0.33612 0.25382 0.63872 -0.03100
C 	C 	0.40117 0.29640 0.62816 -0.03600
C 	C 	0.45696 0.29884 0.64077 0.02500
C 	C 	0.44763 0.25972 0.66464 0.00600
C 	C 	0.50521 0.27348 0.67923 -0.04500
C 	C 	0.56934 0.31146 0.66765 0.00800
C 	C 	0.57661 0.33708 0.64174 -0.05800
C 	C 	0.52180 0.33757 0.62940 -0.02000
H 	H 	0.29384 0.07047 0.71833 0.04500
H 	H 	0.40800 0.14455 0.69977 0.05100
H 	H 	0.21769 0.16870 0.66301 0.04700
H 	H 	0.29371 0.25386 0.62908 0.05300
H 	H 	0.40818 0.32769 0.61019 0.06400
H 	H 	0.50074 0.25567 0.69944 0.04500
H 	H 	0.61263 0.31593 0.67808 0.03900
H 	H 	0.52841 0.36230 0.61010 0.08400
C 	C 	0.00338 0.81650 0.69342 -0.06800
C 	C 	0.99573 0.82444 0.66663 0.00500
C 	C 	0.98536 0.76749 0.64922 -0.04900
C 	C 	0.98301 0.70121 0.65843 0.00900
C 	C 	0.99325 0.69464 0.68552 0.01100
C 	C 	0.00574 0.75349 0.70261 -0.01500
C 	C 	0.98407 0.62656 0.69562 -0.03700
C 	C 	0.95654 0.56256 0.68003 -0.03800
C 	C 	0.94152 0.56678 0.65373 0.01400
C 	C 	0.96172 0.63741 0.64209 0.00800
C 	C 	0.95575 0.64105 0.61472 -0.04500
C 	C 	0.91512 0.57550 0.60069 0.00800
C 	C 	0.88229 0.50594 0.61373 -0.06000
C 	C 	0.90209 0.50107 0.63937 -0.01500
H 	H 	0.99509 0.87372 0.65936 0.03400
H 	H 	0.97473 0.77337 0.62904 0.04800
H 	H 	0.01223 0.74771 0.72336 0.04900
H 	H 	0.99397 0.62200 0.71610 0.04400
H 	H 	0.94474 0.50914 0.68867 0.04400
H 	H 	0.98317 0.69362 0.60421 0.05200
H 	H 	0.90676 0.57919 0.58001 0.05300
H 	H 	0.88262 0.44674 0.64876 0.05000
C 	C 	0.03169 0.60536 0.94915 -0.14600
C 	C 	0.02626 0.64325 0.97113 0.00500
C 	C 	0.96641 0.64586 0.97513 0.30700
C 	C 	0.90949 0.60179 0.95989 -0.06500
C 	C 	0.91369 0.56152 0.93848 -0.14000
C 	C 	0.97575 0.56536 0.93266 0.36900
C 	C 	0.07781 0.66848 0.99211 0.01500
F 	F 	0.96181 0.68647 0.99515 -0.41000
H 	H 	0.86118 0.59613 0.96548 0.09400
F 	F 	0.98060 0.52623 0.91220 -0.44000
H 	H 	0.07795 0.60373 0.94561 0.11500
C 	C 	0.05932 0.63712 0.01736 0.29900
C 	C 	0.10884 0.65505 0.03644 -0.05500
C 	C 	0.17761 0.70071 0.03017 -0.14600
C 	C 	0.19576 0.73698 0.00568 0.37200
C 	C 	0.14593 0.72083 0.98670 -0.15000
F 	F 	0.99392 0.58551 0.02289 -0.40700
H 	H 	0.09426 0.62781 0.05542 0.09400
F 	F 	0.26197 0.78340 0.99959 -0.43700
H 	H 	0.16056 0.74679 0.96753 0.11600
C 	C 	0.64003 0.05899 0.96577 -0.15400
C 	C 	0.59310 0.03985 0.98627 0.05700
C 	C 	0.58264 0.09553 0.99764 0.29000
C 	C 	0.61499 0.16837 0.98722 -0.04800
C 	C 	0.65733 0.18594 0.96516 -0.13600
C 	C 	0.67244 0.13184 0.95535 0.37800
C 	C 	0.55215 0.96083 0.99490 -0.03200
F 	F 	0.53907 0.07829 0.01809 -0.39500
H 	H 	0.60393 0.20979 0.99534 0.10300
F 	F 	0.71620 0.14894 0.93496 -0.44100
H 	H 	0.64980 0.01687 0.95737 0.12900
C 	C 	0.48590 0.91598 0.98550 0.31500
C 	C 	0.44288 0.84618 0.99714 -0.06900
C 	C 	0.46535 0.82133 0.01852 -0.12100
C 	C 	0.53389 0.86267 0.02593 0.35900
C 	C 	0.57691 0.93239 0.01428 -0.12600
F 	F 	0.46214 0.94167 0.96603 -0.42400
H 	H 	0.39072 0.81406 0.99077 0.13300
F 	F 	0.55748 0.83766 0.04569 -0.44100
H 	H 	0.62854 0.96573 0.02115 0.10500
C 	C 	0.34062 0.36055 0.02401 -0.15600
C 	C 	0.40565 0.36939 0.02557 0.02100
C 	C 	0.45096 0.41736 0.04463 0.29300
C 	C 	0.43373 0.46210 0.05980 -0.05500
C 	C 	0.37210 0.46034 0.05559 -0.15100
C 	C 	0.32489 0.40805 0.03800 0.36700
C 	C 	0.43134 0.34481 0.00345 0.01100
F 	F 	0.51374 0.42542 0.04681 -0.40600
H 	H 	0.47018 0.50178 0.07349 0.09100
F 	F 	0.26641 0.40789 0.03270 -0.45000
H 	H 	0.30486 0.32245 0.00979 0.12100
C 	C 	0.45739 0.29633 0.00746 0.30700
C 	C 	0.49421 0.28607 0.98751 -0.04900
C 	C 	0.50535 0.32457 0.96364 -0.15100
C 	C 	0.47235 0.36555 0.95867 0.38000
C 	C 	0.43578 0.37597 0.97854 -0.15200
F 	F 	0.44996 0.26230 0.03101 -0.39600
H 	H 	0.51814 0.25268 0.99124 0.10400
F 	F 	0.48042 0.40036 0.93523 -0.44800
H 	H 	0.41419 0.41185 0.97507 0.11700
C 	C 	0.74372 0.26656 0.84684 -0.05000
C 	C 	0.75020 0.27690 0.81968 0.00700
C 	C 	0.78346 0.24755 0.80507 -0.04300
C 	C 	0.81335 0.21014 0.81779 0.00600
C 	C 	0.79895 0.19149 0.84465 0.03000
C 	C 	0.76532 0.22119 0.85916 -0.02100
C 	C 	0.81823 0.14348 0.85662 -0.03700
C 	C 	0.85230 0.11457 0.84226 -0.02800
C 	C 	0.87156 0.13711 0.81622 0.01300
C 	C 	0.85531 0.18838 0.80420 0.01400
C 	C 	0.88489 0.22011 0.77975 -0.04900
C 	C 	0.92164 0.19341 0.76601 0.00900
C 	C 	0.93156 0.13675 0.77679 -0.06800
C 	C 	0.90829 0.11035 0.80221 -0.01100
H 	H 	0.73054 0.30901 0.80994 0.04200
H 	H 	0.78386 0.25193 0.78397 0.04700
H 	H 	0.75785 0.21100 0.88008 0.08100
H 	H 	0.80597 0.12766 0.87701 0.07300
H 	H 	0.86526 0.07596 0.85163 0.05500
H 	H 	0.88204 0.26728 0.77178 0.04800
H 	H 	0.94171 0.21624 0.74681 0.04500
H 	H 	0.91859 0.06891 0.81101 0.05600
C 	C 	0.54247 0.38342 0.84752 -0.05900
C 	C 	0.54515 0.37684 0.82031 0.00200
C 	C 	0.48786 0.35825 0.80508 -0.04400
C 	C 	0.42559 0.34053 0.81727 0.00300
C 	C 	0.42618 0.35814 0.84408 0.02600
C 	C 	0.48495 0.38044 0.85896 -0.02200
C 	C 	0.36713 0.34928 0.85610 -0.03900
C 	C 	0.30580 0.31560 0.84267 -0.03000
C 	C 	0.30195 0.28800 0.81729 0.01100
C 	C 	0.36217 0.30203 0.80392 0.01200
C 	C 	0.35641 0.27049 0.77883 -0.04900
C 	C 	0.29278 0.22386 0.76803 0.01000
C 	C 	0.23359 0.20581 0.78210 -0.07300
C 	C 	0.23813 0.24102 0.80601 -0.01000
H 	H 	0.59093 0.38417 0.81099 0.04400
H 	H 	0.49305 0.36030 0.78404 0.04400
H 	H 	0.48451 0.39073 0.87976 0.08800
H 	H 	0.36826 0.36622 0.87626 0.06600
H 	H 	0.26034 0.30730 0.85258 0.05200
H 	H 	0.40029 0.27781 0.76817 0.04600
H 	H 	0.28951 0.19773 0.74930 0.04300
H 	H 	0.19218 0.22769 0.81673 0.05000
C 	C 	0.94292 0.87859 0.81021 -0.07300
C 	C 	0.97694 0.85944 0.82885 0.01000
C 	C 	0.94406 0.82177 0.85188 -0.05200
C 	C 	0.87641 0.80397 0.85695 0.01000
C 	C 	0.84229 0.82384 0.83806 0.00700
C 	C 	0.87640 0.86279 0.81522 -0.01400
C 	C 	0.77310 0.79987 0.84125 -0.03700
C 	C 	0.73586 0.75039 0.86143 -0.03900
C 	C 	0.76795 0.72728 0.87959 0.01400
C 	C 	0.83928 0.75949 0.87899 0.00500
C 	C 	0.87081 0.74369 0.89989 -0.04500
C 	C 	0.83184 0.68405 0.91696 0.00900
C 	C 	0.76151 0.64056 0.91355 -0.06700
C 	C 	0.72933 0.66858 0.89728 -0.01400
H 	H 	0.02814 0.87093 0.82503 0.03900
H 	H 	0.97013 0.80281 0.86476 0.05100
H 	H 	0.85036 0.87846 0.80092 0.03700
H 	H 	0.74723 0.81640 0.82721 0.04000
H 	H 	0.68162 0.72857 0.86255 0.04800
H 	H 	0.92462 0.77784 0.90333 0.05400
H 	H 	0.85679 0.66893 0.93162 0.05400
H 	H 	0.67442 0.63904 0.89618 0.05700
