data_crystal

_cell_length_a 19.57588
_cell_length_b 16.85893
_cell_length_c 47.41774
_cell_angle_alpha 89.61252
_cell_angle_beta  89.61560
_cell_angle_gamma 119.40695

_symmetry_space_group_name_	'P 1'
_symmetry_space_group_name_H-M	'P 1'

loop_
_symmetry_equiv_pos_as_xyz
  x,y,z

loop_
_atom_site_label
_atom_site_type_symbol
_atom_site_fract_x
_atom_site_fract_y
_atom_site_fract_z
_atom_site_charge
Ni	Ni	0.12381 0.00496 0.72206 1.11600
Ni	Ni	0.09853 0.18129 0.71267 1.12300
O 	O 	0.06907 0.92406 0.68778 -0.37300
O 	O 	0.05261 0.20253 0.74801 -0.37500
O 	O 	0.05919 0.05808 0.72433 -0.71100
H 	H 	0.06275 0.06815 0.74479 0.14600
C 	C 	0.03058 0.12080 0.15580 0.30800
C 	C 	0.06479 0.22767 0.23337 0.28800
C 	C 	0.06771 0.99630 0.26582 0.28900
O 	O 	0.01278 0.91867 0.25484 -0.37700
C 	C 	0.00212 0.78673 0.14901 -0.00300
C 	C 	0.08439 0.19633 0.34207 -0.05300
S 	S 	0.02864 0.18694 0.28954 0.02300
C 	C 	0.08892 0.24654 0.26288 -0.07900
H 	H 	0.02565 0.16464 0.35101 0.04700
C 	C 	0.01269 0.47553 0.44704 -0.07300
H 	H 	0.01065 0.59772 0.45867 0.05300
H 	H 	0.05516 0.33869 0.44268 0.08700
H 	H 	0.01757 0.34577 0.40830 0.07900
C 	C 	0.06064 0.56339 0.93750 -0.02700
C 	C 	0.08030 0.56774 0.99597 -0.03500
H 	H 	0.08911 0.56719 0.01849 0.05200
H 	H 	0.09662 0.78731 0.86554 0.04500
O 	O 	0.04981 0.90167 0.75056 -0.36300
C 	C 	0.02585 0.12446 0.12487 -0.07200
H 	H 	0.05415 0.56051 0.91479 0.04800
S 	S 	0.06748 0.85700 0.81256 0.02100
C 	C 	0.02785 0.88887 0.19034 0.31400
O 	O 	0.13890 0.16524 0.67475 -0.37900
C 	C 	0.09922 0.52395 0.44212 0.29700
Ni	Ni	0.08505 0.07759 0.20946 1.12100
O 	O 	0.06885 0.08298 0.16723 -0.37800
O 	O 	0.11216 0.06815 0.24959 -0.37900
O 	O 	0.10675 0.20820 0.21537 -0.37100
C 	C 	0.05818 0.27751 0.03902 -0.00100
C 	C 	0.01397 0.25144 0.06414 -0.05100
C 	C 	0.01627 0.18449 0.08118 0.01800
C 	C 	0.06392 0.14709 0.07347 -0.00100
C 	C 	0.11201 0.24724 0.03294 0.01600
S 	S 	0.09338 0.37999 0.02443 0.02600
S 	S 	0.08072 0.10295 0.10239 0.02900
C 	C 	0.04475 0.82870 0.17326 -0.08000
C 	C 	0.09595 0.20057 0.31289 0.00300
H 	H 	0.08834 0.24940 0.39721 0.03800
S 	S 	0.18014 0.06283 0.30766 0.03500
C 	C 	0.09009 0.99733 0.29529 -0.07500
C 	C 	0.14092 0.63231 0.97883 -0.08800
C 	C 	0.13045 0.63145 0.94930 0.07700
O 	O 	0.08588 0.95988 0.20244 -0.38100
C 	C 	0.18402 0.12817 0.67164 0.30200
O 	O 	0.19238 0.09125 0.75357 -0.37100
O 	O 	0.20379 0.21926 0.73125 -0.37500
O 	O 	0.20567 0.09843 0.69366 -0.36700
O 	O 	0.14434 0.50841 0.45932 -0.36700
O 	O 	0.13025 0.58721 0.42236 -0.38700
C 	C 	0.11591 0.18213 0.05049 -0.05400
C 	C 	0.17523 0.39075 0.00968 -0.07600
C 	C 	0.17665 0.30991 0.01604 -0.01900
H 	H 	0.16211 0.16499 0.04768 0.04600
C 	C 	0.00901 0.60056 0.11070 0.00500
S 	S 	0.04026 0.59141 0.07897 0.01400
C 	C 	0.15015 0.24268 0.35922 0.01400
C 	C 	0.16997 0.25640 0.30056 0.01900
C 	C 	0.16612 0.27997 0.27202 -0.01600
C 	C 	0.14433 0.27161 0.38676 -0.01800
C 	C 	0.16405 0.01837 0.34002 0.00100
C 	C 	0.04435 0.93415 0.31614 -0.01100
C 	C 	0.19207 0.70360 0.93029 -0.19300
H 	H 	0.16786 0.70519 0.90929 0.06700
C 	C 	0.21157 0.17832 0.75401 0.28900
C 	C 	0.20973 0.41986 0.41152 0.28000
O 	O 	0.16575 0.45345 0.40177 -0.38700
C 	C 	0.21518 0.69839 0.99234 0.30700
O 	O 	0.21308 0.72416 0.01826 -0.38900
H 	H 	0.22926 0.30446 0.01349 0.04300
C 	C 	0.03383 0.67552 0.16417 0.00500
S 	S 	0.07275 0.75862 0.18763 0.03100
C 	C 	0.21340 0.34804 0.39565 -0.07400
H 	H 	0.21728 0.32122 0.25894 0.04300
C 	C 	0.08635 0.94573 0.34147 0.01200
C 	C 	0.22258 0.01924 0.35694 -0.04900
H 	H 	0.28387 0.06654 0.35251 0.04600
C 	C 	0.21557 0.12694 0.64349 -0.07200
C 	C 	0.19500 0.15541 0.61868 -0.01600
H 	H 	0.17191 0.20210 0.61834 0.04700
H 	H 	0.24119 0.68931 0.92705 0.07700
H 	H 	0.21444 0.77219 0.93954 0.08200
C 	C 	0.06329 0.82231 0.86872 -0.05800
Ni	Ni	0.20702 0.58800 0.39329 1.11900
O 	O 	0.24351 0.44356 0.43661 -0.37200
O 	O 	0.22920 0.69025 0.07500 -0.38300
O 	O 	0.28280 0.72082 0.98019 -0.39400
C 	C 	0.06503 0.61899 0.15757 -0.05300
C 	C 	0.05244 0.58135 0.13051 0.01600
C 	C 	0.10725 0.56248 0.08825 -0.07600
C 	C 	0.22531 0.29407 0.34695 0.00600
C 	C 	0.23543 0.30553 0.31760 -0.05600
C 	C 	0.22402 0.16350 0.56743 -0.05100
C 	C 	0.21227 0.12120 0.59396 0.01600
C 	C 	0.24324 0.06321 0.59968 0.00100
S 	S 	0.25072 0.05800 0.63456 0.03200
H 	H 	0.20700 0.21490 0.56377 0.04700
C 	C 	0.25657 0.23331 0.77777 -0.07300
Ni	Ni	0.26703 0.56568 0.45591 1.11000
O 	O 	0.23129 0.71409 0.38178 -0.38300
C 	C 	0.18233 0.60188 0.07327 0.30200
C 	C 	0.24772 0.47866 0.01003 0.30700
O 	O 	0.25551 0.54640 0.99382 -0.38000
C 	C 	0.10550 0.55722 0.11782 -0.01600
C 	C 	0.06489 0.87624 0.36166 -0.05300
H 	H 	0.00792 0.81538 0.36104 0.04700
C 	C 	0.26707 0.14646 0.54695 -0.00200
C 	C 	0.29353 0.05461 0.58037 -0.05300
S 	S 	0.25481 0.18499 0.80881 0.02900
Ni	Ni	0.30519 0.76844 0.04409 1.12100
S 	S 	0.27910 0.37502 0.36951 0.00600
H 	H 	0.29078 0.35666 0.30851 0.04900
C 	C 	0.20068 0.95129 0.37772 0.01200
H 	H 	0.31658 0.96329 0.38434 0.04100
H 	H 	0.23316 0.80910 0.48010 0.08700
C 	C 	0.30521 0.09669 0.55374 0.02000
H 	H 	0.10473 0.61218 0.17193 0.04900
O 	O 	0.28553 0.68355 0.47713 -0.37200
O 	O 	0.27525 0.58676 0.36124 -0.37900
O 	O 	0.28878 0.62004 0.41970 -0.71200
O 	O 	0.20986 0.54803 0.06567 -0.37800
O 	O 	0.29924 0.49276 0.02948 -0.38300
C 	C 	0.12169 0.88288 0.38075 0.00000
C 	C 	0.25420 0.92570 0.38892 -0.01700
H 	H 	0.25411 0.92258 0.48831 0.07500
C 	C 	0.33177 0.30874 0.77413 -0.01800
H 	H 	0.35351 0.34231 0.75387 0.04700
H 	H 	0.15213 0.55579 0.12963 0.04300
H 	H 	0.37696 0.42441 0.42380 0.08100
C 	C 	0.25476 0.78068 0.40001 0.30200
H 	H 	0.31147 0.58532 0.41103 0.13900
Ni	Ni	0.35199 0.67340 0.99489 1.11900
O 	O 	0.37890 0.86618 0.01623 -0.37800
C 	C 	0.27683 0.88233 0.47719 -0.20800
H 	H 	0.28291 0.90007 0.45442 0.08600
H 	H 	0.45021 0.41667 0.40252 0.07100
H 	H 	0.43248 0.51021 0.39708 0.07400
S 	S 	0.32111 0.22212 0.52225 0.02900
H 	H 	0.44074 0.98849 0.05396 0.07400
H 	H 	0.47973 0.41798 0.06357 0.06900
H 	H 	0.41030 0.44929 0.05047 0.07700
H 	H 	0.48934 0.52526 0.07332 0.07800
C 	C 	0.34573 0.25491 0.81859 0.00000
H 	H 	0.32829 0.02373 0.58678 0.05000
O 	O 	0.34294 0.68779 0.03424 -0.71800
S 	S 	0.12079 0.79317 0.39575 0.02300
C 	C 	0.21722 0.83718 0.40020 -0.08000
C 	C 	0.43523 0.46438 0.41340 -0.19900
C 	C 	0.47289 0.47600 0.05581 -0.19600
C 	C 	0.38210 0.32063 0.79702 0.01700
Ni	Ni	0.32866 0.59393 0.05902 1.11300
C 	C 	0.35129 0.76167 0.47378 0.30600
C 	C 	0.34949 0.65143 0.35805 0.28700
O 	O 	0.38580 0.81364 0.07489 -0.39300
C 	C 	0.50382 0.00859 0.05294 -0.18800
H 	H 	0.51313 0.95258 0.06083 0.08000
H 	H 	0.36006 0.17304 0.85077 0.04700
O 	O 	0.32005 0.80734 0.41416 -0.38800
O 	O 	0.38617 0.60530 0.46126 -0.36400
C 	C 	0.44489 0.87225 0.00596 0.28200
H 	H 	0.39873 0.72899 0.03810 0.15100
C 	C 	0.35557 0.90463 0.48873 0.09000
C 	C 	0.37447 0.12321 0.53747 -0.02500
H 	H 	0.53568 0.06709 0.06728 0.07000
C 	C 	0.38896 0.22716 0.83523 -0.05300
C 	C 	0.38118 0.76314 0.09713 0.29800
O 	O 	0.44422 0.80186 0.99288 -0.38000
C 	C 	0.39703 0.64534 0.33515 -0.07100
C 	C 	0.37435 0.83550 0.49429 -0.09600
C 	C 	0.39284 0.19614 0.51871 -0.07300
Ni	Ni	0.37865 0.73716 0.41431 1.12100
O 	O 	0.42250 0.61654 0.00054 -0.37300
S 	S 	0.40434 0.69668 0.30405 0.03000
O 	O 	0.40380 0.76914 0.45522 -0.38300
O 	O 	0.37735 0.72911 0.37177 -0.38100
O 	O 	0.35645 0.67419 0.09534 -0.37300
H 	H 	0.37963 0.68620 0.14989 0.04500
H 	H 	0.40213 0.04944 0.48428 0.06100
H 	H 	0.41763 0.10382 0.54348 0.04400
C 	C 	0.52415 0.52148 0.03028 0.08200
H 	H 	0.55554 0.41621 0.02515 0.05000
C 	C 	0.43835 0.62243 0.44063 0.28500
C 	C 	0.46409 0.36888 0.79445 -0.05300
C 	C 	0.46656 0.62398 0.02279 0.29200
C 	C 	0.41354 0.99611 0.49166 -0.05700
C 	C 	0.49512 0.51868 0.43524 0.07400
C 	C 	0.40459 0.80663 0.12470 -0.07300
O 	O 	0.44570 0.67632 0.41875 -0.38000
O 	O 	0.44375 0.62822 0.04898 -0.37600
C 	C 	0.40885 0.75988 0.14858 -0.01800
H 	H 	0.53199 0.41818 0.44055 0.03900
C 	C 	0.53427 0.03271 0.02312 0.07600
C 	C 	0.51527 0.96420 0.00265 -0.07900
H 	H 	0.49302 0.42270 0.77883 0.04700
C 	C 	0.47424 0.26880 0.51577 0.29300
C 	C 	0.43987 0.85669 0.51107 -0.03000
C 	C 	0.50103 0.59986 0.44576 -0.08200
C 	C 	0.56352 0.48074 0.01721 -0.03500
C 	C 	0.47150 0.65623 0.34084 -0.02700
H 	H 	0.45094 0.80257 0.51793 0.04500
C 	C 	0.54100 0.48420 0.44700 -0.03300
C 	C 	0.53024 0.60221 0.01851 -0.08300
C 	C 	0.47048 0.27221 0.83176 0.01700
C 	C 	0.05352 0.87100 0.84653 0.00700
O 	O 	0.50589 0.29599 0.49041 -0.38100
O 	O 	0.50671 0.32035 0.53772 -0.37000
C 	C 	0.48741 0.01863 0.50276 -0.07200
C 	C 	0.50722 0.34167 0.81140 -0.00100
C 	C 	0.46950 0.81612 0.16722 0.01300
S 	S 	0.47318 0.91524 0.12778 0.01300
H 	H 	0.48740 0.64463 0.36170 0.04100
H 	H 	0.59534 0.17777 0.03041 0.04700
H 	H 	0.47595 0.70838 0.18997 0.04500
C 	C 	0.49827 0.73298 0.29688 -0.00300
C 	C 	0.58678 0.12412 0.01597 -0.02800
C 	C 	0.49659 0.94822 0.51578 0.07300
C 	C 	0.56108 0.98587 0.97795 -0.04800
H 	H 	0.50045 0.23655 0.87268 0.03600
C 	C 	0.51102 0.90806 0.15824 0.00400
C 	C 	0.50543 0.78046 0.18481 -0.05200
H 	H 	0.52167 0.83187 0.26344 0.04800
H 	H 	0.55082 0.93307 0.96292 0.05200
C 	C 	0.52134 0.27642 0.85336 -0.01600
O 	O 	0.54696 0.16512 0.47907 -0.38700
C 	C 	0.52878 0.70746 0.31986 0.01900
O 	O 	0.59952 0.41810 0.95641 -0.36700
C 	C 	0.56026 0.65190 0.46494 -0.03900
C 	C 	0.61030 0.52063 0.99319 -0.08200
C 	C 	0.58494 0.64764 0.99666 -0.03800
O 	O 	0.60587 0.26173 0.96843 -0.38800
C 	C 	0.55442 0.11350 0.49823 0.29900
C 	C 	0.54584 0.81148 0.28071 -0.05300
C 	C 	0.59450 0.53147 0.46841 -0.09300
H 	H 	0.56675 0.71605 0.47225 0.04900
C 	C 	0.62577 0.14677 0.98980 -0.09300
C 	C 	0.64165 0.47013 0.97770 0.28700
H 	H 	0.55100 0.90899 0.54873 0.06800
H 	H 	0.59186 0.71121 0.98827 0.04400
C 	C 	0.56398 0.96877 0.53510 -0.19900
C 	C 	0.61868 0.07620 0.97205 0.08800
C 	C 	0.62506 0.60722 0.98384 0.07700
S 	S 	0.59878 0.40967 0.82154 0.03300
Ni	Ni	0.62425 0.33471 0.93268 1.12000
O 	O 	0.61147 0.39496 0.89860 -0.39500
C 	C 	0.60620 0.24167 0.58166 0.30800
C 	C 	0.62694 0.48347 0.48513 0.30100
Ni	Ni	0.60903 0.30174 0.47896 1.11600
O 	O 	0.60079 0.19746 0.55858 -0.40100
C 	C 	0.59077 0.96171 0.16383 -0.06200
C 	C 	0.58441 0.83565 0.19138 -0.00600
H 	H 	0.57467 0.02544 0.54940 0.08300
C 	C 	0.60903 0.61970 0.47565 0.08300
S 	S 	0.60779 0.10381 0.61239 0.01400
C 	C 	0.59695 0.35115 0.85043 -0.08500
H 	H 	0.02683 0.69217 0.91032 0.03900
O 	O 	0.62975 0.23661 0.90952 -0.38600
O 	O 	0.61775 0.32527 0.58009 -0.36800
C 	C 	0.65624 0.24009 0.97850 0.30800
Ni	Ni	0.62653 0.39567 0.54240 1.11300
H 	H 	0.62509 0.02640 0.15294 0.04800
O 	O 	0.63094 0.49188 0.51295 -0.37400
C 	C 	0.60902 0.75756 0.32596 -0.05600
C 	C 	0.62544 0.21105 0.60798 -0.07800
C 	C 	0.62804 0.92330 0.17927 0.01900
O 	O 	0.62467 0.13626 0.50749 -0.39000
H 	H 	0.61758 0.98603 0.52250 0.07900
H 	H 	0.63353 0.08575 0.92737 0.08500
O 	O 	0.69722 0.45935 0.99003 -0.37600
O 	O 	0.65456 0.43646 0.47194 -0.39700
C 	C 	0.62530 0.86296 0.28765 0.01600
C 	C 	0.64536 0.39446 0.87490 0.30500
H 	H 	0.63352 0.73793 0.34331 0.04600
O 	O 	0.65177 0.32874 0.51597 -0.70800
S 	S 	0.67526 0.20556 0.83745 0.01500
S 	S 	0.64551 0.79449 0.19591 0.03100
C 	C 	0.66975 0.09612 0.94630 -0.20800
C 	C 	0.65492 0.83819 0.31079 0.00100
H 	H 	0.67220 0.94093 0.24800 0.04600
C 	C 	0.68045 0.65463 0.95942 -0.19800
H 	H 	0.65409 0.61807 0.93959 0.08000
H 	H 	0.69327 0.72625 0.95697 0.07100
C 	C 	0.67683 0.18140 0.87156 -0.07400
C 	C 	0.02167 0.81123 0.89409 0.02300
C 	C 	0.67512 0.67912 0.49498 -0.19400
C 	C 	0.68559 0.12470 0.63144 -0.00200
C 	C 	0.00887 0.50297 0.98449 0.08500
C 	C 	0.68925 0.24962 0.89276 0.28200
C 	C 	0.68458 0.92529 0.26891 -0.02200
H 	H 	0.68492 0.99578 0.62963 0.03800
Ni	Ni	0.68844 0.25013 0.52978 1.11700
H 	H 	0.70248 0.38045 0.51009 0.13500
C 	C 	0.69572 0.26767 0.62189 -0.01800
H 	H 	0.69349 0.04835 0.94546 0.07400
O 	O 	0.70750 0.30532 0.46218 -0.37200
H 	H 	0.72654 0.66906 0.49153 0.07600
H 	H 	0.69502 0.75231 0.49094 0.06700
O 	O 	0.72496 0.30464 0.98670 -0.36800
O 	O 	0.00559 0.17394 0.69256 -0.38000
H 	H 	0.72754 0.47434 0.93407 0.15000
H 	H 	0.65500 0.66284 0.51727 0.07900
H 	H 	0.72045 0.16634 0.94608 0.08800
H 	H 	0.73705 0.65586 0.96284 0.07500
O 	O 	0.72204 0.44065 0.87214 -0.38700
C 	C 	0.70786 0.94977 0.17473 -0.02600
C 	C 	0.72025 0.06892 0.63167 -0.04700
H 	H 	0.72780 0.34072 0.61842 0.05200
C 	C 	0.71744 0.13214 0.87334 -0.02000
O 	O 	0.73409 0.42007 0.93468 -0.70600
C 	C 	0.73113 0.21985 0.63403 0.01600
C 	C 	0.72557 0.15892 0.82417 0.00300
O 	O 	0.74507 0.47218 0.55105 -0.37400
C 	C 	0.72632 0.88245 0.18240 -0.08200
C 	C 	0.74645 0.12133 0.84701 0.01600
H 	H 	0.74089 0.12373 0.89304 0.04000
H 	H 	0.74985 0.01455 0.16532 0.03500
H 	H 	0.76071 0.22765 0.78350 0.04800
O 	O 	0.76220 0.30964 0.89891 -0.38800
O 	O 	0.76059 0.34601 0.55790 -0.38000
S 	S 	0.75170 0.88955 0.30746 0.01900
Ni	Ni	0.78144 0.43726 0.96996 1.10800
C 	C 	0.77452 0.33162 0.47608 0.27800
C 	C 	0.76060 0.94875 0.27779 -0.06900
C 	C 	0.77496 0.19498 0.80043 -0.05500
O 	O 	0.77523 0.29393 0.50071 -0.38000
C 	C 	0.00229 0.32643 0.43081 -0.18800
C 	C 	0.79090 0.43550 0.55470 0.28200
Ni	Ni	0.79942 0.44304 0.90099 1.11900
C 	C 	0.80184 0.11060 0.63458 0.01000
H 	H 	0.80740 0.52008 0.46010 0.08300
H 	H 	0.81187 0.99378 0.65081 0.03700
C 	C 	0.80583 0.90334 0.18954 0.31100
C 	C 	0.81252 0.26048 0.63722 -0.05400
C 	C 	0.81356 0.11155 0.84512 -0.05400
O 	O 	0.81663 0.86411 0.21180 -0.37800
C 	C 	0.82703 0.97747 0.25811 0.28600
O 	O 	0.83670 0.57432 0.90979 -0.37800
O 	O 	0.83273 0.02969 0.23580 -0.36700
H 	H 	0.82937 0.08094 0.86221 0.04600
H 	H 	0.83708 0.51338 0.49576 0.07000
C 	C 	0.84173 0.06547 0.64516 -0.01000
C 	C 	0.84728 0.20565 0.63487 0.00000
H 	H 	0.84802 0.33321 0.64010 0.04700
C 	C 	0.84490 0.19149 0.79988 0.01700
C 	C 	0.85052 0.38341 0.46078 -0.08100
H 	H 	0.85127 0.26236 0.44719 0.04800
C 	C 	0.00293 0.73745 0.91311 -0.02000
O 	O 	0.85961 0.57613 0.95854 -0.36900
O 	O 	0.85882 0.39572 0.95738 -0.39500
C 	C 	0.85777 0.53318 0.47366 -0.20000
C 	C 	0.00318 0.91108 0.76922 0.28600
C 	C 	0.86442 0.15287 0.82232 0.00300
C 	C 	0.00302 0.88428 0.79892 -0.06000
O 	O 	0.86418 0.97730 0.17904 -0.39100
C 	C 	0.87122 0.49502 0.56409 -0.07100
C 	C 	0.87710 0.61554 0.93264 0.28000
H 	H 	0.87716 0.22179 0.75495 0.04600
O 	O 	0.87700 0.94679 0.26241 -0.38600
C 	C 	0.88591 0.33554 0.44956 -0.03200
H 	H 	0.88970 0.62047 0.54350 0.04000
C 	C 	0.89116 0.20494 0.77541 -0.02000
C 	C 	0.89533 0.47924 0.46321 0.07700
H 	H 	0.89697 0.44889 0.00610 0.04700
H 	H 	0.89948 0.60758 0.47306 0.06900
S 	S 	0.90107 0.47752 0.59521 0.02100
S 	S 	0.90464 0.78635 0.92123 0.01700
H 	H 	0.90473 0.89875 0.87388 0.04400
O 	O 	0.90590 0.46794 0.91641 -0.38900
C 	C 	0.90815 0.58962 0.55972 -0.02200
O 	O 	0.99894 0.15792 0.17160 -0.37600
C 	C 	0.99738 0.70159 0.14355 0.00600
C 	C 	0.99487 0.17196 0.11023 -0.02200
H 	H 	0.98686 0.87659 0.31232 0.03600
O 	O 	0.99153 0.20468 0.22744 -0.36600
H 	H 	0.98400 0.28736 0.07129 0.04400
C 	C 	0.98408 0.66368 0.11662 -0.05500
H 	H 	0.98589 0.05879 0.23928 0.15100
H 	H 	0.96699 0.20591 0.12059 0.04400
O 	O 	0.97787 0.03307 0.22028 -0.70900
O 	O 	0.95450 0.86376 0.19654 -0.39000
H 	H 	0.97576 0.81661 0.13570 0.03900
H 	H 	0.96303 0.68995 0.09988 0.04600
C 	C 	0.97605 0.52455 0.45625 -0.05000
C 	C 	0.91815 0.44907 0.94197 0.32400
C 	C 	0.99284 0.87502 0.68553 0.29800
C 	C 	0.95913 0.10676 0.67608 0.30200
C 	C 	0.97849 0.14816 0.75598 0.28200
Ni	Ni	0.94864 0.98425 0.72227 1.11600
O 	O 	0.93790 0.02169 0.68281 -0.38600
O 	O 	0.94630 0.87132 0.70621 -0.37900
O 	O 	0.92833 0.08086 0.73970 -0.37500
O 	O 	0.94874 0.93156 0.76097 -0.38000
Ni	Ni	0.92277 0.08767 0.20478 1.11200
Ni	Ni	0.92255 0.90731 0.23070 1.11900
C 	C 	0.96672 0.38026 0.44307 0.06600
H 	H 	0.96073 0.25202 0.43184 0.06600
S 	S 	0.93387 0.23204 0.64786 0.02600
C 	C 	0.91908 0.12649 0.65328 -0.07700
C 	C 	0.98911 0.76024 0.61586 0.00100
C 	C 	0.97083 0.72887 0.58827 -0.05600
C 	C 	0.95565 0.64015 0.58257 0.01600
C 	C 	0.95856 0.58475 0.60442 -0.00100
C 	C 	0.96780 0.61304 0.63251 -0.05500
C 	C 	0.98297 0.70166 0.63802 0.01500
S 	S 	0.97424 0.84114 0.62928 0.02000
C 	C 	0.96184 0.80806 0.66316 -0.07300
C 	C 	0.96814 0.72871 0.66456 -0.01800
H 	H 	0.96156 0.76888 0.57232 0.04400
H 	H 	0.95577 0.56482 0.64962 0.04500
H 	H 	0.96595 0.69425 0.68420 0.04200
C 	C 	0.99739 0.50296 0.95481 -0.10900
C 	C 	0.94641 0.43452 0.00423 -0.18900
H 	H 	0.92576 0.36410 0.99679 0.08500
H 	H 	0.96903 0.43807 0.02587 0.06800
S 	S 	0.93484 0.13186 0.81176 0.01500
C 	C 	0.94711 0.17673 0.77926 -0.06600
C 	C 	0.97097 0.84775 0.89670 -0.00600
C 	C 	0.95398 0.88622 0.87327 -0.05100
C 	C 	0.99612 0.89793 0.84809 0.00900
C 	C 	0.93508 0.71224 0.92963 -0.07000
C 	C 	0.96874 0.90716 0.82123 -0.02900
H 	H 	0.92387 0.92630 0.81838 0.04700
