data_crystal

_cell_length_a 18.47645
_cell_length_b 18.77540
_cell_length_c 34.70561
_cell_angle_alpha 95.42758
_cell_angle_beta  95.42912
_cell_angle_gamma 126.41994

_symmetry_space_group_name_	'P 1'
_symmetry_space_group_name_H-M	'P 1'

loop_
_symmetry_equiv_pos_as_xyz
  x,y,z

loop_
_atom_site_label
_atom_site_type_symbol
_atom_site_fract_x
_atom_site_fract_y
_atom_site_fract_z
_atom_site_charge
C 	C 	0.88112 0.95797 0.96283 0.26800
N 	N 	0.83699 0.86852 0.96295 -0.11200
C 	C 	0.88469 0.83436 0.96264 0.26700
N 	N 	0.97587 0.88967 0.96262 -0.13500
C 	C 	0.01988 0.97873 0.96300 0.34300
N 	N 	0.97244 0.01269 0.96303 -0.15800
C 	C 	0.98985 0.08465 0.49945 0.23000
N 	N 	0.93515 0.99342 0.49417 -0.09400
C 	C 	0.97252 0.94947 0.49587 0.24600
N 	N 	0.06479 0.99695 0.50261 -0.07900
C 	C 	0.11989 0.08804 0.50713 0.24600
N 	N 	0.08242 0.13217 0.50555 -0.09600
Cu	Cu	0.73003 0.30209 0.95835 0.93300
Cu	Cu	0.69587 0.22324 0.04037 0.89700
Cu	Cu	0.58714 0.27612 0.00427 0.91500
Cu	Cu	0.56030 0.29127 0.91946 0.91700
C 	C 	0.67885 0.27317 0.87418 0.30100
O 	O 	0.77999 0.43266 0.95610 -0.32200
C 	C 	0.62118 0.28624 0.08972 0.29600
O 	O 	0.58748 0.23129 0.95132 -0.63500
O 	O 	0.71522 0.31729 0.01321 -0.63400
O 	O 	0.79006 0.24266 0.96657 -0.33100
O 	O 	0.67811 0.14116 0.99721 -0.40200
O 	O 	0.64119 0.31353 0.88064 -0.34700
O 	O 	0.46522 0.24546 0.99462 -0.34000
C 	C 	0.40567 0.20262 0.96113 0.38900
C 	C 	0.73479 0.46474 0.96484 0.37400
O 	O 	0.64690 0.40902 0.96568 -0.36700
O 	O 	0.43196 0.21897 0.92695 -0.34200
O 	O 	0.72387 0.26664 0.90363 -0.32100
C 	C 	0.74536 0.16471 0.97843 0.39000
O 	O 	0.58917 0.30614 0.06030 -0.33100
O 	O 	0.68705 0.27841 0.08719 -0.38200
H 	H 	0.54738 0.16476 0.94371 0.18200
H 	H 	0.75948 0.37921 0.02877 0.20200
Cu	Cu	0.65790 0.24917 0.51044 0.93500
Cu	Cu	0.69456 0.24363 0.42037 0.89400
Cu	Cu	0.68747 0.38510 0.45978 0.91000
Cu	Cu	0.69565 0.43192 0.54651 0.91300
C 	C 	0.69493 0.30656 0.59355 0.30200
O 	O 	0.53287 0.20591 0.52098 -0.33500
C 	C 	0.63612 0.32351 0.37350 0.29600
O 	O 	0.73946 0.38959 0.51144 -0.63500
O 	O 	0.62419 0.25344 0.45556 -0.63700
O 	O 	0.70658 0.18024 0.49999 -0.33100
O 	O 	0.79207 0.26960 0.45825 -0.39500
O 	O 	0.71836 0.38792 0.59291 -0.35800
O 	O 	0.75889 0.51402 0.46474 -0.34400
C 	C 	0.76915 0.57076 0.49436 0.39900
C 	C 	0.50245 0.25320 0.51641 0.37400
O 	O 	0.55827 0.33705 0.51176 -0.35600
O 	O 	0.74091 0.54609 0.52767 -0.33800
O 	O 	0.70491 0.26429 0.56450 -0.32300
C 	C 	0.77660 0.21336 0.48188 0.38500
O 	O 	0.64500 0.37737 0.40422 -0.33800
O 	O 	0.62676 0.24946 0.37739 -0.38500
H 	H 	0.80680 0.42367 0.51627 0.19500
H 	H 	0.55764 0.21608 0.44495 0.20400
C 	C 	0.69467 0.26091 0.83417 -0.07700
C 	C 	0.63354 0.17742 0.80782 0.14300
C 	C 	0.63665 0.17354 0.76742 -0.08400
C 	C 	0.70041 0.25132 0.75318 0.00700
C 	C 	0.76705 0.33286 0.78011 0.08800
C 	C 	0.76348 0.33670 0.82042 -0.01300
N 	N 	0.57137 0.10116 0.82102 -0.20000
H 	H 	0.58728 0.11057 0.74685 0.08200
C 	C 	0.68841 0.24990 0.71021 0.00800
N 	N 	0.83340 0.40794 0.76741 -0.19100
H 	H 	0.81193 0.40002 0.84092 0.09300
C 	C 	0.62861 0.26613 0.69348 -0.08400
C 	C 	0.62407 0.27723 0.65414 0.15000
C 	C 	0.68308 0.27527 0.63157 -0.08000
C 	C 	0.73806 0.25245 0.64741 -0.01900
C 	C 	0.74047 0.23864 0.68650 0.08700
H 	H 	0.58645 0.27158 0.71137 0.08300
N 	N 	0.56238 0.28877 0.63810 -0.19700
H 	H 	0.78142 0.24847 0.62981 0.10000
N 	N 	0.79387 0.21619 0.70120 -0.19300
H 	H 	0.52103 0.29283 0.65530 0.13300
H 	H 	0.55230 0.29033 0.60819 0.13000
H 	H 	0.83376 0.21013 0.68379 0.13400
H 	H 	0.79491 0.20275 0.72968 0.12200
H 	H 	0.88099 0.46833 0.78741 0.12900
H 	H 	0.83962 0.40688 0.73783 0.11500
H 	H 	0.57049 0.10104 0.85106 0.11400
H 	H 	0.52468 0.04020 0.80123 0.11900
C 	C 	0.59694 0.29139 0.12864 -0.08300
C 	C 	0.56749 0.22099 0.15005 0.14100
C 	C 	0.56438 0.23541 0.19007 -0.08600
C 	C 	0.58560 0.31706 0.20849 0.00600
C 	C 	0.60556 0.38377 0.18599 0.08300
C 	C 	0.61254 0.37087 0.14633 -0.01600
N 	N 	0.54107 0.13921 0.13224 -0.19900
H 	H 	0.54655 0.18335 0.20708 0.07500
C 	C 	0.59601 0.33527 0.25199 0.00700
N 	N 	0.61757 0.45978 0.20217 -0.19200
H 	H 	0.63244 0.42375 0.12956 0.08200
C 	C 	0.68441 0.39294 0.27498 -0.08700
C 	C 	0.69827 0.39637 0.31581 0.14000
C 	C 	0.62241 0.33899 0.33359 -0.08900
C 	C 	0.53352 0.28686 0.31117 -0.01400
C 	C 	0.51948 0.28592 0.27056 0.08000
H 	H 	0.74284 0.43289 0.26087 0.07700
N 	N 	0.78451 0.45376 0.33760 -0.20200
H 	H 	0.47526 0.24518 0.32514 0.07300
N 	N 	0.43272 0.23776 0.24963 -0.19200
H 	H 	0.84048 0.49393 0.32405 0.12200
H 	H 	0.79660 0.46112 0.36824 0.11800
H 	H 	0.37648 0.19895 0.26323 0.12200
H 	H 	0.42030 0.24104 0.22010 0.11700
H 	H 	0.63509 0.50998 0.18574 0.12600
H 	H 	0.60656 0.46838 0.23063 0.11800
H 	H 	0.53451 0.12361 0.10182 0.10600
H 	H 	0.52279 0.08872 0.14859 0.11700
C 	C 	0.93643 0.80100 0.47034 0.23900
C 	C 	0.91332 0.85063 0.49118 -0.11900
C 	C 	0.83684 0.80594 0.50962 0.25800
C 	C 	0.78656 0.71342 0.50867 0.29800
C 	C 	0.81391 0.66509 0.49038 -0.20200
C 	C 	0.88783 0.70899 0.47039 0.29900
F 	F 	0.91461 0.66321 0.45219 -0.38600
F 	F 	0.00672 0.84227 0.45037 -0.33600
F 	F 	0.71162 0.67077 0.52587 -0.36500
F 	F 	0.81322 0.85273 0.52968 -0.34500
C 	C 	0.85911 0.17236 0.52432 0.29500
C 	C 	0.83681 0.18627 0.48732 -0.20500
C 	C 	0.87332 0.17533 0.45546 0.29000
C 	C 	0.92933 0.14850 0.46033 0.25600
C 	C 	0.94836 0.13104 0.49680 -0.12500
C 	C 	0.91426 0.14438 0.52895 0.25600
F 	F 	0.93275 0.12802 0.56442 -0.36300
F 	F 	0.82774 0.18630 0.55580 -0.38400
F 	F 	0.96184 0.13552 0.42907 -0.36100
F 	F 	0.85173 0.18741 0.41939 -0.40100
C 	C 	0.26812 0.19384 0.48568 0.26000
C 	C 	0.21970 0.13793 0.51218 -0.12500
C 	C 	0.26444 0.11981 0.54000 0.25700
C 	C 	0.35590 0.15513 0.54061 0.28800
C 	C 	0.40421 0.21051 0.51391 -0.20400
C 	C 	0.35982 0.22976 0.48645 0.29200
F 	F 	0.40484 0.28122 0.45975 -0.38200
F 	F 	0.22520 0.21026 0.45808 -0.34900
F 	F 	0.39773 0.13606 0.56736 -0.39000
F 	F 	0.21880 0.06706 0.56623 -0.36300
C 	C 	0.81835 0.60116 0.93393 0.28900
C 	C 	0.77719 0.56087 0.96541 -0.19600
C 	C 	0.76548 0.60885 0.99454 0.28300
C 	C 	0.79578 0.69662 0.99247 0.25700
C 	C 	0.83794 0.73719 0.96123 -0.13000
C 	C 	0.84817 0.68859 0.93178 0.26000
F 	F 	0.88760 0.72647 0.90111 -0.36300
F 	F 	0.82686 0.55453 0.90473 -0.38500
F 	F 	0.78677 0.74319 0.02147 -0.34100
F 	F 	0.72530 0.57061 0.02501 -0.37600
C 	C 	0.77101 0.05826 0.00258 0.33100
C 	C 	0.77410 0.10612 0.97302 -0.23300
C 	C 	0.80263 0.09608 0.93812 0.31400
C 	C 	0.83129 0.04187 0.93353 0.21200
C 	C 	0.83127 0.99675 0.96367 -0.05700
C 	C 	0.79880 0.00342 0.99774 0.17400
F 	F 	0.79884 0.96059 0.02715 -0.31800
F 	F 	0.74444 0.06762 0.03666 -0.41200
F 	F 	0.86123 0.03486 0.90016 -0.35000
F 	F 	0.80217 0.13837 0.90855 -0.38200
C 	C 	0.27189 0.08731 0.98872 0.28400
C 	C 	0.30728 0.14733 0.96228 -0.19700
C 	C 	0.24818 0.15372 0.93687 0.29100
C 	C 	0.15436 0.09898 0.93724 0.27300
C 	C 	0.11891 0.03833 0.96342 -0.16600
C 	C 	0.17828 0.03348 0.98945 0.24400
F 	F 	0.14525 0.97702 0.01568 -0.33200
F 	F 	0.32811 0.08009 0.01326 -0.39400
F 	F 	0.09759 0.10365 0.91165 -0.34500
F 	F 	0.28183 0.21381 0.91219 -0.36700
