data_crystal

_cell_length_a 20.10529
_cell_length_b 21.34110
_cell_length_c 31.14752
_cell_angle_alpha 60.83450
_cell_angle_beta  118.88543
_cell_angle_gamma 133.19270

_symmetry_space_group_name_	'P 1'
_symmetry_space_group_name_H-M	'P 1'

loop_
_symmetry_equiv_pos_as_xyz
  x,y,z

loop_
_atom_site_label
_atom_site_type_symbol
_atom_site_fract_x
_atom_site_fract_y
_atom_site_fract_z
_atom_site_charge
Co	Co	0.01251 0.87711 0.12529 1.20600
O 	O 	0.00638 0.93342 0.75048 -0.30800
C 	C 	0.00941 0.94687 0.82679 0.01900
Co	Co	0.03711 0.12158 0.08809 1.19600
Co	Co	0.03560 0.00518 0.54840 1.18600
Co	Co	0.07803 0.88810 0.54220 1.20000
O 	O 	0.00283 0.10216 0.70314 -0.37400
F 	F 	0.02635 0.43088 0.06009 -0.39700
F 	F 	0.05043 0.39912 0.98758 -0.36700
O 	O 	0.04168 0.03320 0.97426 -0.31600
O 	O 	0.01430 0.97858 0.23592 -0.31200
O 	O 	0.00785 0.01932 0.46911 -0.33400
C 	C 	0.03208 0.99835 0.90516 0.03700
C 	C 	0.01431 0.01086 0.30379 -0.05400
C 	C 	0.01976 0.99792 0.40131 0.01200
F 	F 	0.02805 0.49858 0.70627 -0.39000
F 	F 	0.04581 0.53613 0.76881 -0.36200
O 	O 	0.06851 0.94561 0.07718 -0.73800
O 	O 	0.02783 0.09740 0.54569 -0.37900
C 	C 	0.05590 0.96341 0.39636 0.01500
C 	C 	0.04561 0.96339 0.34782 0.07200
F 	F 	0.02369 0.25404 0.55744 -0.45300
C 	C 	0.01597 0.62098 0.21742 0.80100
C 	C 	0.07131 0.01086 0.95770 0.23900
H 	H 	0.06681 0.67613 0.70934 0.08400
C 	C 	0.06688 0.91417 0.34377 0.16300
Co	Co	0.09621 0.04862 0.04919 1.18300
O 	O 	0.07016 0.17699 0.18641 -0.34100
O 	O 	0.10536 0.80714 0.12288 -0.35800
C 	C 	0.04859 0.16866 0.66800 0.29200
C 	C 	0.08059 0.03505 0.83206 -0.00400
N 	N 	0.08390 0.87479 0.34062 -0.02800
F 	F 	0.07611 0.50352 0.11387 -0.39900
F 	F 	0.04199 0.36613 0.74232 -0.35400
C 	C 	0.09332 0.54809 0.74182 0.79300
O 	O 	0.02142 0.90685 0.57324 -0.71700
O 	O 	0.06776 0.15554 0.63873 -0.28200
C 	C 	0.08895 0.06156 0.86964 -0.00100
F 	F 	0.09831 0.63381 0.57975 -0.39100
C 	C 	0.05460 0.66786 0.57373 0.78900
F 	F 	0.02735 0.69966 0.52256 -0.40400
Co	Co	0.11739 0.90535 0.05688 1.18100
O 	O 	0.10237 0.15380 0.03948 -0.39700
C 	C 	0.10730 0.93170 0.44070 0.12800
C 	C 	0.09027 0.25982 0.66766 0.01200
C 	C 	0.09356 0.32568 0.62185 -0.06600
C 	C 	0.10514 0.48703 0.09076 0.79800
H 	H 	0.10513 0.36405 0.08457 0.11700
C 	C 	0.10142 0.39709 0.62178 0.03800
F 	F 	0.05992 0.25758 0.78977 -0.41300
F 	F 	0.11977 0.73674 0.59706 -0.46400
C 	C 	0.13020 0.24112 0.15768 0.30700
C 	C 	0.13707 0.82038 0.16757 0.31300
O 	O 	0.13528 0.99753 0.98787 -0.33000
O 	O 	0.12069 0.86402 0.17547 -0.31200
C 	C 	0.10312 0.32780 0.57560 0.78400
H 	H 	0.10645 0.44883 0.58746 0.16500
C 	C 	0.10578 0.34048 0.71097 -0.11800
C 	C 	0.10249 0.27166 0.71232 0.07900
H 	H 	0.10318 0.22356 0.74776 0.08400
C 	C 	0.09897 0.34099 0.75704 0.79600
F 	F 	0.11540 0.40207 0.53686 -0.36400
H 	H 	0.01106 0.71892 0.04003 0.07100
F 	F 	0.01575 0.68766 0.97794 -0.38800
O 	O 	0.13206 0.87250 0.66754 -0.30100
C 	C 	0.13430 0.70284 0.70678 0.07800
O 	O 	0.14259 0.22431 0.12685 -0.31000
C 	C 	0.14929 0.09643 0.80175 0.15900
C 	C 	0.14653 0.38164 0.12053 0.06900
C 	C 	0.15591 0.44576 0.13009 -0.09900
F 	F 	0.16454 0.56583 0.06107 -0.35200
C 	C 	0.12003 0.41076 0.66736 0.09500
F 	F 	0.14769 0.51777 0.77563 -0.35500
C 	C 	0.11775 0.67806 0.21673 -0.07600
H 	H 	0.10743 0.57307 0.21274 0.12000
N 	N 	0.14853 0.90632 0.47588 -0.06800
C 	C 	0.16294 0.84839 0.65358 0.29400
C 	C 	0.15299 0.15411 0.87038 0.17500
C 	C 	0.15414 0.64470 0.71557 -0.09400
N 	N 	0.17678 0.54496 0.68475 -0.05600
C 	C 	0.15423 0.64024 0.21693 0.05200
O 	O 	0.17734 0.88379 0.60795 -0.27400
O 	O 	0.17569 0.02413 0.51931 -0.38100
O 	O 	0.17820 0.07370 0.57076 -0.32900
C 	C 	0.17443 0.77101 0.20986 0.02900
Co	Co	0.99982 0.84562 0.63228 1.18600
C 	C 	0.18130 0.33320 0.15890 0.01400
F 	F 	0.99445 0.54382 0.25527 -0.37400
F 	F 	0.99700 0.66430 0.22641 -0.39200
C 	C 	0.99443 0.96557 0.45042 0.29800
C 	C 	0.99956 0.06268 0.30982 0.05500
C 	C 	0.99438 0.05011 0.35762 -0.01200
C 	C 	0.99027 0.12926 0.26719 0.12600
N 	N 	0.98248 0.18254 0.23353 -0.08800
C 	C 	0.96195 0.09027 0.36120 0.15400
C 	C 	0.97575 0.99202 0.25252 0.33700
O 	O 	0.25214 0.99925 0.08725 -0.30300
O 	O 	0.24017 0.10785 0.07382 -0.32700
Co	Co	0.96770 0.05140 0.60126 1.19300
O 	O 	0.97670 0.88925 0.47909 -0.33800
C 	C 	0.96429 0.92919 0.77513 0.27400
N 	N 	0.20450 0.14551 0.77766 -0.04400
N 	N 	0.20418 0.22811 0.87102 -0.02400
C 	C 	0.19908 0.79513 0.69128 0.04100
C 	C 	0.29082 0.82862 0.69541 -0.05600
C 	C 	0.37098 0.92491 0.69537 0.78600
F 	F 	0.45583 0.93588 0.71968 -0.38200
F 	F 	0.35940 0.95405 0.72064 -0.35100
F 	F 	0.37402 0.97602 0.64618 -0.39600
C 	C 	0.27203 0.81571 0.22440 0.07200
H 	H 	0.31766 0.88483 0.22497 0.13500
F 	F 	0.95995 0.59922 0.17150 -0.41500
F 	F 	0.95419 0.40955 0.91142 -0.35300
F 	F 	0.96760 0.29819 0.94339 -0.37900
C 	C 	0.73644 0.32297 0.00096 0.17200
N 	N 	0.64215 0.27999 0.98722 -0.05900
C 	C 	0.60465 0.31019 0.99113 0.21600
N 	N 	0.66082 0.39351 0.99637 -0.09900
C 	C 	0.75483 0.43557 0.01304 0.16400
N 	N 	0.79317 0.39918 0.01638 -0.07300
C 	C 	0.70775 0.26179 0.55091 0.18900
N 	N 	0.78000 0.32456 0.57800 -0.09000
C 	C 	0.76315 0.36326 0.59210 0.18600
N 	N 	0.67513 0.33906 0.57915 -0.09300
C 	C 	0.60301 0.27448 0.55431 0.19100
N 	N 	0.61919 0.23600 0.54004 -0.09000
C 	C 	0.28298 0.66872 0.19864 0.17900
N 	N 	0.35820 0.73468 0.17746 -0.07900
C 	C 	0.38800 0.71598 0.15744 0.19400
N 	N 	0.33861 0.63197 0.15520 -0.09100
C 	C 	0.26356 0.56521 0.17595 0.18000
N 	N 	0.23566 0.58298 0.19835 -0.09700
C 	C 	0.25058 0.62509 0.69705 0.20000
N 	N 	0.33868 0.66094 0.69750 -0.10500
C 	C 	0.35280 0.62114 0.68299 0.19300
N 	N 	0.28081 0.54181 0.67210 -0.09400
C 	C 	0.19333 0.50245 0.67361 0.19100
Co	Co	0.95034 0.95039 0.16330 1.20600
C 	C 	0.28212 0.08271 0.07056 0.27900
Co	Co	0.93039 0.09476 0.15441 1.18100
C 	C 	0.92357 0.75167 0.06035 0.30500
O 	O 	0.95049 0.19799 0.09033 -0.37400
O 	O 	0.97274 0.05092 0.13231 -0.76600
C 	C 	0.91978 0.18691 0.04520 0.31800
O 	O 	0.95335 0.84834 0.17652 -0.36500
C 	C 	0.76131 0.91697 0.14169 0.32200
O 	O 	0.99932 0.98936 0.09646 -0.54400
O 	O 	0.94008 0.14858 0.03562 -0.32700
O 	O 	0.79716 0.00224 0.12200 -0.36200
O 	O 	0.80514 0.88431 0.14929 -0.29400
O 	O 	0.90807 0.99893 0.22133 -0.32700
O 	O 	0.97667 0.82053 0.02883 -0.37400
O 	O 	0.91678 0.76233 0.09686 -0.26500
Co	Co	0.92633 0.89027 0.68236 1.19800
C 	C 	0.22258 0.07774 0.54842 0.31800
Co	Co	0.86751 0.99706 0.68304 1.19700
C 	C 	0.95741 0.70401 0.60120 0.27400
O 	O 	0.85319 0.08780 0.61907 -0.36700
O 	O 	0.91771 0.97467 0.65067 -0.74700
C 	C 	0.82188 0.08047 0.57285 0.31900
O 	O 	0.95926 0.81107 0.69361 -0.39800
C 	C 	0.72197 0.80927 0.67590 0.29500
O 	O 	0.94776 0.92957 0.60519 -0.53700
O 	O 	0.85538 0.06110 0.55719 -0.31200
O 	O 	0.74066 0.88893 0.65876 -0.30600
O 	O 	0.78748 0.79662 0.69069 -0.29700
O 	O 	0.88250 0.91451 0.75239 -0.32800
O 	O 	0.97837 0.75315 0.55734 -0.29900
O 	O 	0.92693 0.72069 0.62141 -0.33900
C 	C 	0.95699 0.88398 0.86417 0.01900
C 	C 	0.95892 0.91199 0.89792 -0.00800
C 	C 	0.90242 0.79043 0.86850 0.18000
C 	C 	0.88102 0.85498 0.92124 0.15400
N 	N 	0.81818 0.80935 0.93954 -0.04600
N 	N 	0.85899 0.71553 0.87217 -0.00300
N 	N 	0.93602 0.12238 0.36397 -0.05200
F 	F 	0.18028 0.32930 0.58839 -0.38600
F 	F 	0.18735 0.39964 0.78243 -0.38600
C 	C 	0.55536 0.72313 0.63414 0.07800
C 	C 	0.62515 0.73252 0.67909 0.02800
C 	C 	0.59976 0.69061 0.72581 -0.07300
C 	C 	0.51209 0.65982 0.72614 0.05000
C 	C 	0.44671 0.66223 0.68080 0.06300
C 	C 	0.46762 0.69318 0.63404 -0.07700
C 	C 	0.39693 0.69459 0.58422 0.78800
H 	H 	0.57326 0.74868 0.59869 0.12300
H 	H 	0.49435 0.63352 0.76179 0.11900
C 	C 	0.66881 0.68664 0.77550 0.78200
F 	F 	0.43808 0.74552 0.54345 -0.35400
F 	F 	0.35905 0.73013 0.58355 -0.37100
F 	F 	0.32572 0.60916 0.57811 -0.38200
F 	F 	0.72528 0.76513 0.78930 -0.43400
F 	F 	0.72356 0.67314 0.77151 -0.40400
F 	F 	0.62243 0.61746 0.81330 -0.39000
C 	C 	0.30613 0.77284 0.69627 0.05800
C 	C 	0.23563 0.68059 0.70305 0.09500
H 	H 	0.37245 0.80151 0.69108 0.12300
C 	C 	0.23986 0.35960 0.20499 -0.06500
C 	C 	0.25365 0.42745 0.21347 0.03500
C 	C 	0.21574 0.47361 0.17549 0.07100
H 	H 	0.29833 0.44778 0.24865 0.11900
C 	C 	0.28397 0.31272 0.24626 0.78100
F 	F 	0.30857 0.28841 0.22553 -0.38800
F 	F 	0.22084 0.23769 0.27537 -0.41500
F 	F 	0.36450 0.36737 0.27727 -0.36800
C 	C 	0.55560 0.78516 0.19613 0.05000
C 	C 	0.48491 0.77879 0.15218 0.08500
C 	C 	0.50474 0.81572 0.10440 -0.08400
C 	C 	0.59345 0.85164 0.10193 0.09200
C 	C 	0.66355 0.85534 0.14621 0.01500
C 	C 	0.64208 0.81601 0.19409 -0.06100
C 	C 	0.71095 0.80919 0.24354 0.78000
H 	H 	0.54048 0.75940 0.23253 0.13700
H 	H 	0.60949 0.88005 0.06549 0.10700
C 	C 	0.43073 0.81459 0.05612 0.79200
F 	F 	0.66288 0.73296 0.27878 -0.38200
F 	F 	0.76123 0.88122 0.26238 -0.41300
F 	F 	0.77182 0.80477 0.23817 -0.42100
F 	F 	0.38249 0.83513 0.06042 -0.37200
F 	F 	0.36813 0.73118 0.04706 -0.36900
F 	F 	0.47059 0.87598 0.01501 -0.37200
C 	C 	0.25021 0.69153 0.21950 0.07200
C 	C 	0.31076 0.77438 0.23208 -0.08700
C 	C 	0.41499 0.81812 0.25433 0.78800
F 	F 	0.46303 0.88086 0.21640 -0.37900
F 	F 	0.43458 0.75635 0.27842 -0.40100
F 	F 	0.44664 0.85990 0.28969 -0.36600
C 	C 	0.65926 0.12067 0.54727 0.05900
C 	C 	0.72273 0.21358 0.53850 0.06600
C 	C 	0.79738 0.25840 0.51663 -0.08800
C 	C 	0.81838 0.20837 0.51522 0.06800
C 	C 	0.76758 0.11641 0.53631 0.03200
C 	C 	0.67848 0.07229 0.54271 -0.10200
C 	C 	0.60933 0.97257 0.55217 0.80400
H 	H 	0.59685 0.08581 0.55937 0.10900
H 	H 	0.87937 0.24176 0.50244 0.14100
C 	C 	0.85598 0.35824 0.49617 0.78900
F 	F 	0.61269 0.93558 0.60333 -0.42400
F 	F 	0.62924 0.93851 0.53561 -0.39600
F 	F 	0.51942 0.94924 0.52650 -0.35900
F 	F 	0.92475 0.39821 0.53552 -0.41900
F 	F 	0.80070 0.38840 0.47209 -0.37800
F 	F 	0.89900 0.38337 0.46135 -0.36400
C 	C 	0.91761 0.50903 0.59316 0.05700
C 	C 	0.84119 0.43962 0.61530 0.08900
C 	C 	0.82721 0.45506 0.64876 -0.08200
C 	C 	0.87037 0.54287 0.64699 0.08300
C 	C 	0.93609 0.61430 0.61739 0.01100
C 	C 	0.96904 0.59597 0.59614 -0.07200
H 	H 	0.93308 0.49672 0.57041 0.14300
H 	H 	0.85072 0.55510 0.66740 0.10700
C 	C 	0.76415 0.37901 0.68490 0.79200
F 	F 	0.75436 0.30276 0.69464 -0.38300
F 	F 	0.67674 0.36264 0.66440 -0.39600
F 	F 	0.80206 0.40054 0.73045 -0.35400
C 	C 	0.48115 0.20477 0.59558 0.04700
C 	C 	0.50703 0.23652 0.55088 0.07600
C 	C 	0.44287 0.23699 0.50364 -0.09900
C 	C 	0.34934 0.19213 0.50287 0.08300
C 	C 	0.32134 0.15181 0.54821 0.00400
C 	C 	0.39007 0.16809 0.59410 -0.04600
C 	C 	0.36771 0.15067 0.64049 0.78300
H 	H 	0.53208 0.20824 0.63147 0.15300
H 	H 	0.29689 0.18352 0.46735 0.09700
C 	C 	0.47221 0.28061 0.45428 0.78800
F 	F 	0.44726 0.18119 0.67931 -0.35700
F 	F 	0.30415 0.06081 0.65797 -0.39900
F 	F 	0.32978 0.19385 0.62820 -0.39400
F 	F 	0.48043 0.22799 0.44637 -0.38500
F 	F 	0.55732 0.36337 0.45571 -0.37900
F 	F 	0.40690 0.29200 0.41362 -0.37800
C 	C 	0.85025 0.33380 0.98047 0.06900
C 	C 	0.77591 0.28218 0.00364 0.07900
C 	C 	0.73333 0.18943 0.02420 -0.10300
C 	C 	0.76457 0.15207 0.01882 0.07900
C 	C 	0.85223 0.20684 0.00818 -0.00700
C 	C 	0.88667 0.29558 0.98107 -0.03900
C 	C 	0.96575 0.35120 0.95560 0.77500
H 	H 	0.87994 0.40340 0.96234 0.15700
H 	H 	0.72974 0.08106 0.03179 0.09100
C 	C 	0.65934 0.13116 0.05428 0.78700
F 	F 	0.57200 0.10403 0.02157 -0.38700
F 	F 	0.67924 0.17623 0.08386 -0.42000
F 	F 	0.65603 0.05632 0.08648 -0.42100
C 	C 	0.76819 0.50635 0.06356 0.04100
C 	C 	0.81062 0.50993 0.03641 0.08500
C 	C 	0.89694 0.58971 0.02493 -0.11200
C 	C 	0.94011 0.66132 0.04332 0.08100
C 	C 	0.88916 0.66334 0.06111 0.01800
C 	C 	0.80147 0.58425 0.07155 -0.04300
C 	C 	0.74353 0.58174 0.09123 0.77900
H 	H 	0.70536 0.44370 0.07528 0.11900
C 	C 	0.94210 0.60017 0.99217 0.80000
F 	F 	0.65640 0.50074 0.09358 -0.38200
F 	F 	0.72876 0.64634 0.05953 -0.40500
F 	F 	0.78978 0.59558 0.13941 -0.35800
F 	F 	0.87736 0.57273 0.94844 -0.39800
F 	F 	0.97666 0.55021 0.01874 -0.37200
C 	C 	0.53220 0.22458 0.06325 0.05400
C 	C 	0.52062 0.24572 0.01101 0.04700
C 	C 	0.43050 0.21394 0.97854 -0.07700
C 	C 	0.35529 0.17184 0.99818 0.08500
C 	C 	0.36622 0.14916 0.05052 -0.00500
C 	C 	0.45592 0.17769 0.08339 -0.05800
C 	C 	0.46976 0.15559 0.14004 0.78100
H 	H 	0.60159 0.24701 0.08795 0.12500
H 	H 	0.28730 0.15378 0.97301 0.07600
C 	C 	0.41446 0.22710 0.92281 0.78700
F 	F 	0.56380 0.20536 0.16388 -0.37600
F 	F 	0.43380 0.06680 0.16054 -0.39800
F 	F 	0.42419 0.17305 0.14974 -0.39100
F 	F 	0.46995 0.21827 0.91541 -0.37600
F 	F 	0.43524 0.31066 0.89665 -0.39000
F 	F 	0.32226 0.16437 0.90312 -0.42600
