data_crystal

_cell_length_a 24.36572
_cell_length_b 24.70647
_cell_length_c 45.13321
_cell_angle_alpha 95.48666
_cell_angle_beta  95.48558
_cell_angle_gamma 125.82682

_symmetry_space_group_name_	'P 1'
_symmetry_space_group_name_H-M	'P 1'

loop_
_symmetry_equiv_pos_as_xyz
  x,y,z

loop_
_atom_site_label
_atom_site_type_symbol
_atom_site_fract_x
_atom_site_fract_y
_atom_site_fract_z
_atom_site_charge
C 	C 	0.98784 0.05449 0.01778 -0.01500
C 	C 	0.07008 0.03507 0.00403 -0.01700
C 	C 	0.05488 0.07995 0.01364 -0.03300
H 	H 	0.09492 0.13437 0.01786 0.04000
C 	C 	0.97793 0.02671 0.45514 -0.02000
H 	H 	0.99767 0.07873 0.45423 0.04600
Cu	Cu	0.63967 0.24003 0.00216 0.92800
Cu	Cu	0.69585 0.24761 0.93829 0.87300
Cu	Cu	0.67632 0.34904 0.96429 0.89800
Cu	Cu	0.63642 0.36271 0.02408 0.89500
C 	C 	0.65729 0.28674 0.06558 0.30600
O 	O 	0.53873 0.19794 0.00108 -0.35300
C 	C 	0.65554 0.30547 0.89799 0.30800
O 	O 	0.69278 0.34545 0.00623 -0.64000
O 	O 	0.63133 0.24948 0.95925 -0.64100
O 	O 	0.68478 0.19401 0.99972 -0.36300
O 	O 	0.76068 0.26706 0.97233 -0.41600
O 	O 	0.62462 0.31266 0.05809 -0.38300
O 	O 	0.72560 0.44651 0.97179 -0.35500
C 	C 	0.72474 0.48246 0.99512 0.25600
C 	C 	0.51063 0.22507 0.98937 0.24800
O 	O 	0.54932 0.28990 0.98781 -0.36700
O 	O 	0.67762 0.45337 0.01237 -0.38000
O 	O 	0.66173 0.24836 0.04502 -0.36100
C 	C 	0.74352 0.22270 0.99013 0.25600
O 	O 	0.67607 0.35473 0.92093 -0.38100
O 	O 	0.65233 0.25165 0.90202 -0.41700
H 	H 	0.74200 0.37523 0.01612 0.16700
H 	H 	0.58375 0.22092 0.94738 0.17500
Cu	Cu	0.73438 0.33325 0.46407 0.92800
Cu	Cu	0.73002 0.28259 0.52909 0.87200
Cu	Cu	0.62470 0.29805 0.50237 0.89800
Cu	Cu	0.60849 0.33403 0.44190 0.89500
C 	C 	0.68555 0.31306 0.40050 0.30600
O 	O 	0.77597 0.43233 0.46407 -0.35200
C 	C 	0.67061 0.32226 0.56881 0.30800
O 	O 	0.62753 0.28016 0.46043 -0.64000
O 	O 	0.72589 0.34371 0.50706 -0.64100
O 	O 	0.78145 0.28908 0.46697 -0.34800
O 	O 	0.70929 0.21688 0.49573 -0.43000
O 	O 	0.65854 0.34469 0.40771 -0.38300
O 	O 	0.52571 0.24821 0.49516 -0.35500
C 	C 	0.48852 0.24719 0.47152 0.25600
C 	C 	0.74802 0.46000 0.47534 0.24800
O 	O 	0.68260 0.42151 0.47742 -0.36600
O 	O 	0.51704 0.29337 0.45409 -0.38100
O 	O 	0.72483 0.30946 0.42125 -0.35700
C 	C 	0.75352 0.23248 0.47762 0.25600
O 	O 	0.61996 0.30021 0.54589 -0.38100
O 	O 	0.72607 0.32715 0.56480 -0.41800
H 	H 	0.59765 0.23136 0.45097 0.16600
H 	H 	0.75444 0.39110 0.51839 0.17600
C 	C 	0.63987 0.33681 0.81148 -0.00800
C 	C 	0.57593 0.30574 0.79258 -0.03000
C 	C 	0.57264 0.31053 0.76191 -0.04300
C 	C 	0.63336 0.34619 0.74996 0.01000
C 	C 	0.69745 0.37969 0.76925 -0.04300
C 	C 	0.70063 0.37506 0.79990 -0.02900
C 	C 	0.62968 0.34283 0.71692 0.01000
C 	C 	0.59595 0.27978 0.69752 -0.04300
C 	C 	0.60045 0.27696 0.66685 -0.03000
C 	C 	0.63881 0.33704 0.65535 -0.00800
C 	C 	0.67002 0.39992 0.67434 -0.02900
C 	C 	0.66535 0.40284 0.70504 -0.04300
C 	C 	0.65087 0.33425 0.62482 0.04800
C 	C 	0.65984 0.32989 0.59915 -0.10700
C 	C 	0.64308 0.32495 0.84200 0.04800
C 	C 	0.64770 0.31608 0.86765 -0.10600
H 	H 	0.52874 0.27643 0.80143 0.04100
H 	H 	0.52294 0.28502 0.74728 0.04200
H 	H 	0.74461 0.40730 0.76028 0.04200
H 	H 	0.75026 0.39950 0.81442 0.04000
H 	H 	0.56832 0.23317 0.70643 0.04200
H 	H 	0.57590 0.22814 0.65225 0.04000
H 	H 	0.69940 0.44657 0.66555 0.04100
H 	H 	0.69100 0.45173 0.71975 0.04300
C 	C 	0.69282 0.27878 0.31124 -0.00600
C 	C 	0.75649 0.31129 0.30182 -0.02900
C 	C 	0.75905 0.30772 0.27092 -0.04200
C 	C 	0.69788 0.27168 0.24926 0.01000
C 	C 	0.63409 0.23674 0.25875 -0.04200
C 	C 	0.63163 0.24028 0.28964 -0.03000
C 	C 	0.70065 0.27526 0.21693 0.01000
C 	C 	0.73133 0.33798 0.20751 -0.04200
C 	C 	0.72713 0.34061 0.17664 -0.02900
C 	C 	0.69219 0.28063 0.15499 -0.00600
C 	C 	0.66383 0.21824 0.16434 -0.02900
C 	C 	0.66808 0.21553 0.19522 -0.04200
C 	C 	0.68036 0.28248 0.12335 0.04700
C 	C 	0.67067 0.28443 0.09690 -0.10100
C 	C 	0.69048 0.29027 0.34282 0.04800
C 	C 	0.68824 0.29974 0.36924 -0.09900
H 	H 	0.80401 0.34090 0.31841 0.04500
H 	H 	0.80852 0.33433 0.26383 0.04400
H 	H 	0.58658 0.20873 0.24222 0.04300
H 	H 	0.58222 0.21482 0.29676 0.04000
H 	H 	0.75657 0.38438 0.22407 0.04300
H 	H 	0.74935 0.38904 0.16956 0.04000
H 	H 	0.63699 0.17169 0.14771 0.04300
H 	H 	0.64474 0.16694 0.20227 0.04400
C 	C 	0.79032 0.53366 0.48647 0.04100
H 	H 	0.87771 0.56556 0.46403 0.06000
C 	C 	0.79759 0.02367 0.45718 0.11100
C 	C 	0.77652 0.05044 0.47813 -0.08700
C 	C 	0.79508 0.11565 0.47737 0.00800
C 	C 	0.82733 0.15066 0.45514 0.11700
C 	C 	0.84670 0.12326 0.43357 -0.09500
C 	C 	0.82990 0.05857 0.43474 0.02800
C 	C 	0.86799 0.03868 0.42664 -0.10800
O 	O 	0.81848 0.20015 0.45041 -0.18500
C 	C 	0.77634 0.18979 0.47156 0.03500
C 	C 	0.76233 0.13981 0.48775 -0.06500
H 	H 	0.75053 0.02325 0.49560 0.06300
H 	H 	0.87326 0.15094 0.41632 0.07000
H 	H 	0.91248 0.06806 0.41605 0.06400
H 	H 	0.71972 0.11362 0.49970 0.04800
C 	C 	0.19892 0.13405 0.45941 0.11200
C 	C 	0.25032 0.15778 0.44176 -0.08500
C 	C 	0.30600 0.15646 0.45119 0.00800
C 	C 	0.31332 0.13717 0.47808 0.11800
C 	C 	0.26265 0.11468 0.49601 -0.09500
C 	C 	0.20675 0.11570 0.48658 0.02800
O 	O 	0.13088 0.10492 0.44689 -0.21600
C 	C 	0.09876 0.06611 0.46872 0.12700
C 	C 	0.14346 0.07269 0.49254 -0.10800
O 	O 	0.38077 0.16343 0.49001 -0.18700
C 	C 	0.41317 0.20166 0.46805 0.04300
C 	C 	0.36921 0.19782 0.44480 -0.06100
H 	H 	0.24535 0.17349 0.42069 0.06500
H 	H 	0.26759 0.09875 0.51702 0.06900
H 	H 	0.38413 0.23536 0.43049 0.05500
C 	C 	0.90290 0.12733 0.03292 0.11200
C 	C 	0.83789 0.11319 0.03215 -0.08500
C 	C 	0.81710 0.13894 0.01110 0.00500
C 	C 	0.86080 0.18200 0.99353 0.11900
C 	C 	0.92644 0.19780 0.99483 -0.09700
C 	C 	0.94695 0.17076 0.01533 0.02700
O 	O 	0.91594 0.08246 0.04095 -0.21500
C 	C 	0.97036 0.10141 0.02574 0.12300
C 	C 	0.98951 0.15437 0.01068 -0.10500
O 	O 	0.84409 0.22261 0.98305 -0.19800
C 	C 	0.78682 0.20042 0.99664 0.03500
C 	C 	0.77012 0.15043 0.01331 -0.05600
H 	H 	0.80319 0.07981 0.04605 0.06600
H 	H 	0.96070 0.23069 0.98067 0.06600
H 	H 	0.01495 0.16341 0.99133 0.05800
H 	H 	0.73907 0.13772 0.03076 0.06000
C 	C 	0.33583 0.15462 0.96399 0.11700
C 	C 	0.28263 0.16150 0.96441 -0.09500
C 	C 	0.22071 0.10797 0.97156 0.02400
C 	C 	0.21510 0.05491 0.98227 0.11300
C 	C 	0.27020 0.05071 0.98416 -0.08700
C 	C 	0.32808 0.09855 0.97251 0.00800
O 	O 	0.40410 0.21034 0.96624 -0.19200
C 	C 	0.43630 0.18258 0.97722 0.04000
C 	C 	0.39164 0.11630 0.98111 -0.06000
O 	O 	0.16392 0.02240 0.99942 -0.21700
C 	C 	0.13940 0.06129 0.99804 0.12300
C 	C 	0.17471 0.11379 0.98235 -0.10600
H 	H 	0.29095 0.20858 0.96135 0.06800
H 	H 	0.26958 0.01400 0.99577 0.06600
H 	H 	0.40454 0.09266 0.99653 0.05900
H 	H 	0.15781 0.14258 0.97423 0.05900
C 	C 	0.85562 0.57829 0.48055 -0.05900
C 	C 	0.76890 0.55674 0.99831 0.04300
H 	H 	0.73804 0.58426 0.03763 0.05500
O 	O 	0.76248 0.56463 0.49879 -0.19200
C 	C 	0.77413 0.59964 0.02227 -0.06100
O 	O 	0.80428 0.58899 0.97558 -0.18600
C 	C 	0.87269 0.64060 0.48919 0.00800
C 	C 	0.81716 0.63212 0.49973 0.11800
C 	C 	0.83025 0.65517 0.98781 0.11900
C 	C 	0.81360 0.66200 0.01559 0.00900
C 	C 	0.02398 0.01163 0.46290 -0.02500
C 	C 	0.80827 0.68345 0.50025 -0.09500
H 	H 	0.76112 0.67448 0.50501 0.06900
C 	C 	0.91760 0.69724 0.47639 -0.08700
H 	H 	0.86311 0.70007 0.94817 0.06900
H 	H 	0.12968 0.03595 0.50719 0.06200
H 	H 	0.95323 0.69827 0.46337 0.06700
C 	C 	0.84929 0.70466 0.96989 -0.09500
C 	C 	0.81157 0.71604 0.02601 -0.08500
H 	H 	0.79794 0.72066 0.04777 0.06600
C 	C 	0.85787 0.99221 0.44449 0.12600
O 	O 	0.81184 0.97894 0.46397 -0.21700
C 	C 	0.90646 0.97531 0.44991 -0.02000
C 	C 	0.93673 0.98400 0.01332 -0.01900
C 	C 	0.95176 0.93909 0.00388 -0.01700
C 	C 	0.01877 0.96473 0.99979 -0.02500
H 	H 	0.88486 0.96410 0.01634 0.05900
H 	H 	0.03079 0.92999 0.99309 0.05200
C 	C 	0.88138 0.90884 0.45289 -0.02200
C 	C 	0.92748 0.89359 0.46083 -0.02100
C 	C 	0.99867 0.94476 0.46507 -0.01600
H 	H 	0.82626 0.86928 0.44919 0.04700
H 	H 	0.03433 0.93282 0.47049 0.04900
C 	C 	0.85977 0.74444 0.49197 0.02600
C 	C 	0.91190 0.75066 0.47929 0.11300
O 	O 	0.94124 0.80088 0.46182 -0.21600
C 	C 	0.90172 0.82451 0.46536 0.12500
C 	C 	0.85126 0.78913 0.48232 -0.10600
H 	H 	0.82357 0.80577 0.49228 0.06300
C 	C 	0.84766 0.75894 0.98035 0.02800
C 	C 	0.83205 0.76637 0.00837 0.11200
O 	O 	0.86131 0.83327 0.02114 -0.21300
C 	C 	0.89718 0.86518 0.99845 0.12500
C 	C 	0.88878 0.82133 0.97397 -0.10700
H 	H 	0.92396 0.83542 0.95823 0.06200
