data_crystal

_cell_length_a 16.20811
_cell_length_b 15.77357
_cell_length_c 37.67027
_cell_angle_alpha 89.87835
_cell_angle_beta  89.88109
_cell_angle_gamma 119.41722

_symmetry_space_group_name_	'P 1'
_symmetry_space_group_name_H-M	'P 1'

loop_
_symmetry_equiv_pos_as_xyz
  x,y,z

loop_
_atom_site_label
_atom_site_type_symbol
_atom_site_fract_x
_atom_site_fract_y
_atom_site_fract_z
_atom_site_charge
Ni	Ni	0.04839 0.90181 0.76940 1.11300
Ni	Ni	0.09948 0.12025 0.74268 1.11300
O 	O 	0.01542 0.00120 0.76629 -0.72600
H 	H 	0.02798 0.02542 0.79093 0.15100
O 	O 	0.06614 0.15301 0.20454 -0.37600
H 	H 	0.02393 0.65817 0.21644 0.04000
H 	H 	0.03961 0.33140 0.28363 0.04300
C 	C 	0.09741 0.50300 0.31768 -0.19200
H 	H 	0.07768 0.52078 0.34376 0.07300
H 	H 	0.03329 0.47192 0.30067 0.06200
C 	C 	0.09213 0.43768 0.53638 -0.03800
C 	C 	0.03199 0.39873 0.47640 0.07100
C 	C 	0.04906 0.39600 0.43725 -0.19300
H 	H 	0.07037 0.46809 0.42510 0.07200
C 	C 	0.02252 0.48654 0.97021 -0.03800
C 	C 	0.05352 0.54148 0.03157 -0.10100
C 	C 	0.07031 0.56154 0.99486 0.07800
H 	H 	0.03821 0.50198 0.94215 0.04500
H 	H 	0.16196 0.37139 0.79763 0.07500
O 	O 	0.15998 0.95229 0.73310 -0.38900
C 	C 	0.11872 0.12362 0.18760 0.30200
C 	C 	0.08598 0.18872 0.28544 0.29500
C 	C 	0.10070 0.85415 0.22031 0.30300
C 	C 	0.03102 0.88896 0.31363 0.28400
Ni	Ni	0.12394 0.03215 0.25622 1.10700
C 	C 	0.16839 0.17524 0.15491 -0.09000
C 	C 	0.11811 0.17456 0.12418 0.07200
C 	C 	0.16266 0.24946 0.09882 -0.03500
H 	H 	0.12213 0.25368 0.07668 0.04200
C 	C 	0.09823 0.69632 0.20905 -0.03700
C 	C 	0.09120 0.53354 0.20358 -0.19500
H 	H 	0.05847 0.50453 0.17735 0.07900
C 	C 	0.09450 0.34566 0.30289 -0.03700
H 	H 	0.15241 0.57076 0.30479 0.07600
C 	C 	0.01842 0.85217 0.35066 -0.08900
C 	C 	0.10843 0.45124 0.49974 -0.08600
H 	H 	0.04590 0.39916 0.60408 0.06800
O 	O 	0.06450 0.19340 0.77813 -0.39000
O 	O 	0.01732 0.14355 0.70769 -0.38300
O 	O 	0.14644 0.06751 0.20371 -0.39400
O 	O 	0.09612 0.98121 0.30668 -0.37700
C 	C 	0.14727 0.79858 0.20731 -0.08800
C 	C 	0.14552 0.64300 0.20213 0.07700
H 	H 	0.13878 0.50397 0.21057 0.07600
H 	H 	0.10549 0.37656 0.43300 0.07900
H 	H 	0.09412 0.68415 0.96302 0.07000
C 	C 	0.11531 0.36086 0.82077 -0.19100
H 	H 	0.10603 0.29773 0.83690 0.08000
H 	H 	0.15194 0.42690 0.83756 0.06400
O 	O 	0.01222 0.82753 0.21129 -0.38000
C 	C 	0.13488 0.58253 0.05579 0.31400
H 	H 	0.15146 0.47180 0.55450 0.04100
C 	C 	0.22550 0.07254 0.79151 0.27400
C 	C 	0.16394 0.99791 0.70344 0.31800
O 	O 	0.15133 0.99344 0.80399 -0.36900
O 	O 	0.21550 0.13810 0.77195 -0.37700
O 	O 	0.12458 0.05342 0.70121 -0.40300
C 	C 	0.14152 0.75354 0.41884 0.29700
C 	C 	0.18921 0.54286 0.48752 0.28400
O 	O 	0.18352 0.62352 0.49143 -0.37000
O 	O 	0.17799 0.67522 0.06492 -0.38100
O 	O 	0.22975 0.63988 0.13174 -0.38600
O 	O 	0.17727 0.53250 0.06068 -0.40000
O 	O 	0.14229 0.91705 0.24603 -0.38100
O 	O 	0.14589 0.16832 0.26842 -0.38900
C 	C 	0.26555 0.23884 0.15652 -0.03600
C 	C 	0.25412 0.32679 0.10502 -0.09700
C 	C 	0.24146 0.69217 0.19113 -0.09600
C 	C 	0.13449 0.43274 0.32252 0.07200
C 	C 	0.12551 0.27727 0.30784 -0.08900
C 	C 	0.06878 0.77889 0.40874 -0.09000
C 	C 	0.09183 0.87753 0.40852 0.07700
C 	C 	0.07202 0.91547 0.37804 -0.03900
H 	H 	0.09996 0.99319 0.37531 0.04900
H 	H 	0.14490 0.03006 0.63380 0.04600
C 	C 	0.13391 0.66325 0.98140 -0.20300
H 	H 	0.19371 0.66584 0.96615 0.07800
H 	H 	0.16066 0.71828 0.00281 0.09100
C 	C 	0.24401 0.53556 0.37150 0.29300
Ni	Ni	0.28748 0.75808 0.47334 1.11400
O 	O 	0.19085 0.79169 0.44847 -0.37400
O 	O 	0.16982 0.71298 0.39426 -0.38800
O 	O 	0.27561 0.62610 0.35918 -0.39200
O 	O 	0.25680 0.51762 0.40478 -0.40200
O 	O 	0.27154 0.54634 0.48019 -0.37900
O 	O 	0.29616 0.69249 0.43283 -0.71600
H 	H 	0.23006 0.64013 0.43084 0.15400
C 	C 	0.27088 0.64957 0.16199 0.30400
C 	C 	0.27586 0.42507 0.09338 0.31000
Ni	Ni	0.30095 0.73790 0.09380 1.12100
Ni	Ni	0.30577 0.58226 0.04109 1.11900
O 	O 	0.35487 0.65460 0.16234 -0.37000
O 	O 	0.28916 0.48814 0.11765 -0.38200
O 	O 	0.29563 0.45342 0.05983 -0.37800
C 	C 	0.30863 0.31719 0.13284 0.07400
H 	H 	0.30550 0.23491 0.17893 0.03900
C 	C 	0.24619 0.84739 0.20028 0.08000
C 	C 	0.29329 0.79317 0.19579 -0.04900
C 	C 	0.30178 0.95682 0.19705 -0.20000
H 	H 	0.32066 0.98985 0.22386 0.07600
H 	H 	0.26014 0.98484 0.18277 0.08400
C 	C 	0.24343 0.38731 0.34970 -0.03800
C 	C 	0.20964 0.45359 0.34621 -0.09100
C 	C 	0.19853 0.29719 0.33242 0.07100
C 	C 	0.22797 0.22231 0.34088 -0.19000
H 	H 	0.27399 0.22060 0.31935 0.06500
H 	H 	0.16471 0.14932 0.34397 0.06500
C 	C 	0.13269 0.94006 0.44088 -0.17000
H 	H 	0.12733 0.00752 0.43911 0.04300
H 	H 	0.20816 0.96094 0.44386 0.08100
H 	H 	0.09339 0.89946 0.46496 0.07000
H 	H 	0.30311 0.44390 0.58725 0.06400
C 	C 	0.20961 0.02834 0.63953 -0.05300
C 	C 	0.22142 0.99545 0.67285 -0.08600
H 	H 	0.23397 0.85196 0.71084 0.07900
H 	H 	0.19816 0.07175 0.57182 0.05900
H 	H 	0.31579 0.10074 0.55901 0.06600
H 	H 	0.40909 0.35106 0.06409 0.07800
C 	C 	0.33394 0.04885 0.83235 -0.04900
C 	C 	0.32201 0.09007 0.80086 -0.08200
H 	H 	0.27369 0.00591 0.84950 0.04300
Ni	Ni	0.35565 0.61533 0.43668 1.11900
Ni	Ni	0.30693 0.74933 0.38763 1.12000
O 	O 	0.37331 0.73852 0.51016 -0.37100
O 	O 	0.31252 0.69777 0.01262 -0.38700
O 	O 	0.36088 0.66448 0.08058 -0.71100
H 	H 	0.36924 0.83080 0.19190 0.05400
H 	H 	0.36829 0.98053 0.18173 0.07300
H 	H 	0.30212 0.40402 0.36742 0.04100
H 	H 	0.26793 0.23913 0.36620 0.06000
H 	H 	0.34955 0.07257 0.42100 0.03000
H 	H 	0.36839 0.23318 0.43703 0.05800
H 	H 	0.33917 0.57705 0.54865 0.05300
C 	C 	0.28450 0.06748 0.61488 0.07200
C 	C 	0.30045 0.98092 0.67783 0.09600
C 	C 	0.30362 0.91907 0.70778 -0.20100
C 	C 	0.27335 0.10950 0.58043 -0.19200
H 	H 	0.32345 0.96101 0.73288 0.08400
H 	H 	0.31176 0.91881 0.99651 0.04100
H 	H 	0.34670 0.08161 0.99035 0.06000
H 	H 	0.44821 0.07726 0.89847 0.07500
H 	H 	0.33209 0.13427 0.72761 0.07400
H 	H 	0.03453 0.50789 0.22408 0.06200
O 	O 	0.36257 0.82570 0.05278 -0.38700
C 	C 	0.48138 0.38706 0.05267 -0.19800
C 	C 	0.40608 0.39854 0.14181 -0.20000
H 	H 	0.40062 0.44685 0.16196 0.05500
O 	O 	0.33812 0.88501 0.40372 -0.38600
C 	C 	0.36563 0.79265 0.02083 0.28500
Ni	Ni	0.41014 0.61989 0.11664 1.11000
O 	O 	0.41468 0.82491 0.12735 -0.37100
H 	H 	0.41853 0.71644 0.06945 0.17100
H 	H 	0.45033 0.36882 0.15275 0.06100
C 	C 	0.42217 0.24301 0.45726 -0.18800
H 	H 	0.38639 0.21701 0.48336 0.06500
C 	C 	0.41372 0.59827 0.54863 -0.03600
C 	C 	0.37228 0.44622 0.58372 -0.19100
H 	H 	0.39780 0.44020 0.61044 0.07300
H 	H 	0.36080 0.38276 0.56743 0.06800
C 	C 	0.37691 0.02412 0.65388 -0.06300
C 	C 	0.37220 0.07506 0.62410 -0.08400
H 	H 	0.35681 0.89557 0.70243 0.07100
H 	H 	0.29720 0.18808 0.58389 0.07100
C 	C 	0.38289 0.93659 0.98864 -0.01800
C 	C 	0.41986 0.11040 0.97996 -0.19000
H 	H 	0.41269 0.31196 0.98801 0.04400
H 	H 	0.50035 0.33005 0.04620 0.05900
C 	C 	0.40058 0.13829 0.77728 0.07100
C 	C 	0.42430 0.06593 0.84238 0.07800
C 	C 	0.43674 0.02528 0.87680 -0.22100
C 	C 	0.39404 0.18526 0.74327 -0.19200
H 	H 	0.37311 0.95445 0.88311 0.08400
H 	H 	0.38929 0.25154 0.74940 0.07300
C 	C 	0.42206 0.09847 0.42898 -0.02300
C 	C 	0.02041 0.34483 0.80826 0.07500
H 	H 	0.02650 0.46109 0.84047 0.04500
C 	C 	0.44136 0.71997 0.50157 0.30900
C 	C 	0.40225 0.93296 0.42800 0.33500
O 	O 	0.40131 0.89071 0.45819 -0.37800
O 	O 	0.47992 0.57416 0.07863 -0.37300
O 	O 	0.43875 0.62540 0.02760 -0.40700
H 	H 	0.44306 0.44194 0.11835 0.06400
H 	H 	0.40950 0.77562 0.31244 0.06300
H 	H 	0.41139 0.66160 0.31060 0.08100
H 	H 	0.47374 0.32207 0.45897 0.07000
C 	C 	0.44392 0.53913 0.56578 0.07300
C 	C 	0.41139 0.86604 0.99255 -0.08700
H 	H 	0.42228 0.13836 0.95272 0.07100
H 	H 	0.46813 0.17139 0.99736 0.07100
C 	C 	0.45131 0.39091 0.98760 -0.04300
C 	C 	0.48332 0.44144 0.01973 0.08000
O 	O 	0.44928 0.66152 0.39529 -0.38800
O 	O 	0.45890 0.71297 0.46815 -0.39500
O 	O 	0.44633 0.80287 0.38466 -0.40500
C 	C 	0.48612 0.58910 0.04330 0.30400
C 	C 	0.44912 0.73950 0.30266 -0.19500
H 	H 	0.45009 0.74237 0.27317 0.06800
C 	C 	0.47159 0.18683 0.44730 0.06100
C 	C 	0.46299 0.03885 0.42468 -0.13200
C 	C 	0.47806 0.67985 0.52883 -0.09900
H 	H 	0.44224 0.02378 0.65974 0.04800
C 	C 	0.44905 0.03318 0.97938 0.05600
H 	H 	0.45725 0.20711 0.72613 0.06300
H 	H 	0.02392 0.80897 0.94585 0.06800
H 	H 	0.42677 0.57794 0.93378 0.06500
C 	C 	0.46080 0.15510 0.60957 0.29000
C 	C 	0.48907 0.15036 0.78750 -0.03800
H 	H 	0.49853 0.01302 0.87521 0.07900
C 	C 	0.48413 0.74751 0.37962 0.31100
C 	C 	0.49960 0.82870 0.12988 0.29500
H 	H 	0.50064 0.78937 0.20111 0.04700
C 	C 	0.48962 0.43983 0.95533 -0.09700
C 	C 	0.50372 0.13233 0.82267 -0.09200
C 	C 	0.01606 0.09861 0.11939 -0.18500
O 	O 	0.47920 0.24488 0.61662 -0.38400
O 	O 	0.51484 0.76163 0.11586 -0.38500
H 	H 	0.49020 0.55084 0.90050 0.07300
H 	H 	0.53379 0.43637 0.07235 0.07400
H 	H 	0.46999 0.73958 0.97149 0.07600
C 	C 	0.49691 0.58645 0.92655 -0.19400
C 	C 	0.50184 0.88773 0.98022 0.06000
C 	C 	0.52602 0.54365 0.01967 -0.09900
C 	C 	0.52882 0.39450 0.93104 0.29800
C 	C 	0.52781 0.54116 0.95500 0.08400
H 	H 	0.00156 0.85976 0.88550 0.04300
O 	O 	0.52865 0.13592 0.59891 -0.38300
C 	C 	0.54002 0.56358 0.56357 -0.08600
C 	C 	0.54277 0.05707 0.97053 -0.11500
C 	C 	0.53068 0.81063 0.97939 -0.19000
H 	H 	0.54941 0.18878 0.77005 0.03700
O 	O 	0.54779 0.33091 0.94564 -0.40500
H 	H 	0.55335 0.68186 0.21914 0.06300
C 	C 	0.54789 0.78914 0.31778 0.07900
H 	H 	0.55650 0.80449 0.00602 0.07900
C 	C 	0.56325 0.59199 0.98706 -0.03300
H 	H 	0.54812 0.66537 0.92380 0.06400
O 	O 	0.57231 0.29306 0.84538 -0.37600
C 	C 	0.56844 0.48927 0.56937 0.29100
O 	O 	0.55997 0.19866 0.52290 -0.39200
H 	H 	0.56835 0.31128 0.56437 0.16400
C 	C 	0.56717 0.83589 0.18774 -0.04900
C 	C 	0.56687 0.88745 0.15742 -0.08900
C 	C 	0.56316 0.78028 0.35425 -0.09800
C 	C 	0.56316 0.21513 0.46006 -0.07700
C 	C 	0.56181 0.08040 0.42861 0.10700
C 	C 	0.57586 0.71179 0.53117 0.07900
C 	C 	0.56815 0.98381 0.97098 0.01500
C 	C 	0.58018 0.21368 0.84184 0.28200
O 	O 	0.57204 0.43913 0.90054 -0.37100
O 	O 	0.57675 0.46432 0.60275 -0.37300
C 	C 	0.59063 0.25894 0.49529 0.29000
H 	H 	0.59814 0.04849 0.12233 0.06700
H 	H 	0.58534 0.99108 0.39118 0.11200
O 	O 	0.59529 0.45820 0.54126 -0.38800
H 	H 	0.58828 0.82901 0.95973 0.06700
H 	H 	0.60045 0.67085 0.98651 0.04400
C 	C 	0.60725 0.15019 0.95281 0.29500
H 	H 	0.59889 0.96826 0.43738 0.11000
C 	C 	0.60616 0.65310 0.54853 -0.04200
H 	H 	0.60881 0.27559 0.90456 0.16200
H 	H 	0.00476 0.02594 0.12750 0.07600
H 	H 	0.61360 0.85296 0.26764 0.04700
C 	C 	0.61205 0.16988 0.44615 -0.05700
C 	C 	0.61170 0.02548 0.41746 -0.26900
Ni	Ni	0.61537 0.36047 0.62035 1.11000
H 	H 	0.61718 0.56279 0.71934 0.05900
H 	H 	0.61978 0.70802 0.85294 0.06000
C 	C 	0.62545 0.84389 0.29532 -0.04300
H 	H 	0.62702 0.86218 0.51631 0.07500
C 	C 	0.62928 0.72978 0.21237 -0.20100
O 	O 	0.63235 0.33240 0.57362 -0.71500
O 	O 	0.63997 0.14482 0.92115 -0.40000
H 	H 	0.63921 0.00117 0.96314 0.02000
Ni	Ni	0.64098 0.21850 0.56537 1.11900
C 	C 	0.64534 0.82163 0.19385 0.08800
O 	O 	0.64754 0.26578 0.64860 -0.38300
C 	C 	0.64760 0.80494 0.51342 -0.19600
O 	O 	0.64876 0.23232 0.97191 -0.39100
H 	H 	0.65085 0.68767 0.19475 0.07500
H 	H 	0.65109 0.05710 0.65071 0.03200
H 	H 	0.65271 0.79161 0.48477 0.07600
C 	C 	0.99513 0.71441 0.38678 -0.04000
C 	C 	0.99917 0.39350 0.54970 0.08200
O 	O 	0.99310 0.82491 0.28742 -0.38300
H 	H 	0.96683 0.63658 0.38974 0.04100
C 	C 	0.96656 0.75092 0.35824 0.07900
O 	O 	0.99614 0.14815 0.27581 -0.39700
H 	H 	0.97671 0.83509 0.59881 0.06900
C 	C 	0.98259 0.38876 0.58913 -0.20400
H 	H 	0.93952 0.86171 0.65668 0.05100
H 	H 	0.95772 0.71381 0.59304 0.07700
O 	O 	0.96283 0.81463 0.72929 -0.38000
H 	H 	0.97308 0.27690 0.69762 0.04800
H 	H 	0.92975 0.40425 0.70408 0.06900
C 	C 	0.92144 0.75722 0.59708 -0.19800
O 	O 	0.94306 0.82356 0.80766 -0.37100
H 	H 	0.97087 0.11828 0.13564 0.06600
H 	H 	0.90057 0.65162 0.31485 0.07100
H 	H 	0.98444 0.34037 0.42355 0.06200
H 	H 	0.99427 0.09345 0.09117 0.05800
O 	O 	0.99060 0.97913 0.25079 -0.69900
H 	H 	0.97458 0.98464 0.27553 0.14500
C 	C 	0.77514 0.56858 0.92172 0.30800
C 	C 	0.83810 0.40138 0.84009 0.31100
C 	C 	0.85925 0.36860 0.95700 0.31600
Ni	Ni	0.67247 0.41560 0.87067 1.11100
Ni	Ni	0.68279 0.36879 0.95362 1.11900
Ni	Ni	0.73922 0.26035 0.89526 1.11900
O 	O 	0.66210 0.21432 0.84840 -0.37700
O 	O 	0.82107 0.42357 0.95477 -0.40200
O 	O 	0.78826 0.52764 0.89426 -0.38000
O 	O 	0.71666 0.51290 0.94695 -0.37400
O 	O 	0.76571 0.41373 0.83199 -0.37300
O 	O 	0.84652 0.37811 0.87244 -0.38900
O 	O 	0.82672 0.28825 0.93796 -0.38400
O 	O 	0.67417 0.32999 0.90546 -0.70900
C 	C 	0.71296 0.24522 0.63790 0.31500
C 	C 	0.78059 0.54884 0.60964 0.31200
C 	C 	0.83137 0.35070 0.53726 0.31100
Ni	Ni	0.70802 0.43697 0.54189 1.12000
O 	O 	0.75321 0.26778 0.53215 -0.39400
O 	O 	0.73617 0.25214 0.60448 -0.40000
O 	O 	0.66347 0.34978 0.49776 -0.38000
O 	O 	0.75562 0.46413 0.62333 -0.39300
O 	O 	0.76644 0.55474 0.57557 -0.38300
O 	O 	0.82727 0.42869 0.54672 -0.38800
C 	C 	0.87896 0.80397 0.72353 0.30900
C 	C 	0.90020 0.85846 0.82841 0.29300
C 	C 	0.92526 0.08787 0.70331 0.28000
C 	C 	0.97716 0.18102 0.78066 0.28500
Ni	Ni	0.88498 0.96424 0.76512 1.12500
O 	O 	0.88223 0.99778 0.71440 -0.38900
O 	O 	0.83562 0.82516 0.74861 -0.39300
O 	O 	0.90100 0.09281 0.78317 -0.39400
O 	O 	0.87108 0.91792 0.81600 -0.37800
C 	C 	0.79396 0.90083 0.28187 0.28000
C 	C 	0.82477 0.89177 0.18840 0.31200
Ni	Ni	0.94415 0.05693 0.23215 1.09800
Ni	Ni	0.92250 0.84064 0.24566 1.11700
O 	O 	0.81123 0.96597 0.25610 -0.36900
O 	O 	0.82342 0.83567 0.27973 -0.38900
O 	O 	0.90096 0.97576 0.18690 -0.38700
O 	O 	0.82665 0.82032 0.20596 -0.37900
C 	C 	0.65479 0.96263 0.14574 0.08700
C 	C 	0.73725 0.95824 0.15399 -0.01300
C 	C 	0.73335 0.88566 0.17719 -0.10500
H 	H 	0.80394 0.01031 0.14199 0.01700
C 	C 	0.65938 0.03583 0.11903 -0.21400
H 	H 	0.66942 0.74701 0.23749 0.08500
H 	H 	0.65841 0.00875 0.09176 0.06800
H 	H 	0.72529 0.10658 0.12256 0.06100
C 	C 	0.71811 0.88065 0.30772 -0.08200
C 	C 	0.73359 0.87550 0.34441 0.07200
C 	C 	0.65595 0.82341 0.36724 -0.03400
H 	H 	0.66777 0.81947 0.39538 0.04000
C 	C 	0.83242 0.92297 0.35933 -0.19400
H 	H 	0.88301 0.98527 0.34270 0.07400
H 	H 	0.85629 0.86829 0.36106 0.07300
H 	H 	0.83362 0.95150 0.38637 0.06800
C 	C 	0.88002 0.68287 0.33732 -0.19500
H 	H 	0.82895 0.62201 0.35439 0.06400
H 	H 	0.84273 0.72107 0.32723 0.07600
H 	H 	0.68567 0.19704 0.45315 0.04900
H 	H 	0.68930 0.07490 0.41496 0.07500
C 	C 	0.93892 0.35573 0.48953 -0.03700
C 	C 	0.92272 0.36116 0.52576 -0.09600
H 	H 	0.87966 0.32467 0.47129 0.04200
H 	H 	0.92275 0.31655 0.59671 0.08500
H 	H 	0.96630 0.44679 0.59690 0.08400
H 	H 	0.68067 0.67394 0.54829 0.04400
H 	H 	0.71869 0.83311 0.52557 0.06600
C 	C 	0.90338 0.22870 0.68695 -0.04900
C 	C 	0.87028 0.12802 0.68535 -0.08600
C 	C 	0.77998 0.06621 0.67040 0.04800
C 	C 	0.72058 0.10451 0.66178 -0.03100
C 	C 	0.75466 0.20507 0.66259 -0.10800
C 	C 	0.84455 0.26686 0.67726 0.08000
C 	C 	0.87963 0.37430 0.68149 -0.20100
C 	C 	0.74906 0.96174 0.66107 -0.16800
H 	H 	0.82014 0.38849 0.68692 0.07700
H 	H 	0.91645 0.41362 0.65699 0.07600
H 	H 	0.71766 0.91449 0.68475 0.07100
H 	H 	0.80969 0.95443 0.65095 0.08000
H 	H 	0.69482 0.93509 0.63977 0.06500
C 	C 	0.72710 0.59943 0.66344 -0.02600
C 	C 	0.78788 0.62609 0.63379 -0.10400
C 	C 	0.86104 0.72341 0.63014 0.08500
C 	C 	0.87984 0.78843 0.65841 -0.04100
C 	C 	0.82964 0.75588 0.69058 -0.09100
C 	C 	0.74715 0.66397 0.69182 0.07200
C 	C 	0.68402 0.63176 0.72420 -0.18900
H 	H 	0.66733 0.52633 0.66534 0.01300
H 	H 	0.66447 0.68783 0.73145 0.07300
H 	H 	0.72114 0.61986 0.74678 0.07400
H 	H 	0.87648 0.74895 0.57371 0.07700
C 	C 	0.94093 0.40092 0.98039 -0.09700
C 	C 	0.92337 0.37997 0.01693 0.07000
C 	C 	0.97488 0.45300 0.04203 -0.03400
H 	H 	0.96000 0.43696 0.07008 0.04100
C 	C 	0.84263 0.28387 0.02918 -0.19400
H 	H 	0.83016 0.22508 0.01014 0.07700
H 	H 	0.77719 0.28948 0.03155 0.06600
H 	H 	0.85859 0.26309 0.05542 0.06300
C 	C 	0.87920 0.26062 0.77186 -0.04900
C 	C 	0.96265 0.26649 0.78544 -0.08800
C 	C 	0.98638 0.40624 0.82074 -0.03900
C 	C 	0.89465 0.38757 0.81198 -0.10300
C 	C 	0.84867 0.32530 0.78321 0.08600
C 	C 	0.76593 0.32538 0.76522 -0.20600
H 	H 	0.83451 0.20144 0.75433 0.04700
H 	H 	0.74652 0.28262 0.74029 0.07100
H 	H 	0.78337 0.40107 0.75864 0.07800
H 	H 	0.70343 0.29196 0.78282 0.09100
C 	C 	0.92605 0.81144 0.88873 -0.03900
C 	C 	0.86313 0.81110 0.86318 -0.08300
C 	C 	0.76459 0.75324 0.86913 0.07700
C 	C 	0.73217 0.68428 0.89672 -0.04800
C 	C 	0.79642 0.66990 0.91711 -0.09400
C 	C 	0.89231 0.74346 0.91677 0.08300
C 	C 	0.96187 0.73605 0.94091 -0.19900
H 	H 	0.65895 0.62892 0.89699 0.04300
C 	C 	0.69386 0.75814 0.84441 -0.19500
H 	H 	0.98598 0.68892 0.92795 0.07700
H 	H 	0.92862 0.70384 0.96691 0.07800
H 	H 	0.70283 0.73733 0.81711 0.07200
H 	H 	0.70367 0.83291 0.84421 0.07800
