data_crystal

_cell_length_a 20.05190
_cell_length_b 20.64219
_cell_length_c 43.90623
_cell_angle_alpha 60.77686
_cell_angle_beta  118.97650
_cell_angle_gamma 133.20096

_symmetry_space_group_name_	'P 1'
_symmetry_space_group_name_H-M	'P 1'

loop_
_symmetry_equiv_pos_as_xyz
  x,y,z

loop_
_atom_site_label
_atom_site_type_symbol
_atom_site_fract_x
_atom_site_fract_y
_atom_site_fract_z
_atom_site_charge
C 	C 	0.71154 0.32539 0.98783 0.01600
C 	C 	0.62282 0.27864 0.99335 -0.06400
C 	C 	0.59537 0.32807 0.99111 0.02400
C 	C 	0.65647 0.42325 0.98408 -0.06900
C 	C 	0.74998 0.46796 0.98567 0.02500
C 	C 	0.77395 0.42183 0.98254 -0.06800
H 	H 	0.57749 0.20443 0.00122 0.04300
H 	H 	0.63595 0.46048 0.98377 0.05100
H 	H 	0.84269 0.46003 0.97837 0.04200
C 	C 	0.65299 0.20972 0.54016 0.01700
C 	C 	0.56358 0.19043 0.52878 -0.06600
C 	C 	0.55342 0.24983 0.53004 0.02000
C 	C 	0.63247 0.32919 0.54193 -0.06700
C 	C 	0.72173 0.34874 0.55356 0.02000
C 	C 	0.73228 0.28915 0.55265 -0.06800
H 	H 	0.50205 0.12876 0.51954 0.04700
H 	H 	0.62456 0.37606 0.54206 0.05100
H 	H 	0.80149 0.30419 0.56174 0.04200
C 	C 	0.31098 0.64590 0.16727 0.02000
C 	C 	0.40545 0.67604 0.18232 -0.06500
C 	C 	0.43543 0.63528 0.17944 0.01900
C 	C 	0.36894 0.54812 0.17331 -0.06500
C 	C 	0.27460 0.51576 0.15795 0.02000
C 	C 	0.24506 0.56522 0.15454 -0.06500
H 	H 	0.45747 0.73798 0.19191 0.04700
H 	H 	0.39277 0.51329 0.17408 0.05000
H 	H 	0.17331 0.54352 0.14089 0.05000
C 	C 	0.30006 0.68084 0.61862 0.02200
C 	C 	0.39185 0.70424 0.63148 -0.06700
C 	C 	0.40919 0.64956 0.63088 0.02100
C 	C 	0.33456 0.56939 0.61894 -0.06800
C 	C 	0.24293 0.54494 0.60606 0.02600
C 	C 	0.22523 0.60054 0.60591 -0.06800
H 	H 	0.44990 0.76598 0.64111 0.04600
H 	H 	0.34785 0.52565 0.61972 0.05100
H 	H 	0.15430 0.58204 0.59569 0.05500
Co	Co	0.02504 0.86867 0.09495 1.20000
Co	Co	0.99023 0.08708 0.05887 1.17200
Co	Co	0.94463 0.92601 0.12045 1.17800
Co	Co	0.07171 0.03176 0.03373 1.19000
C 	C 	0.97031 0.72842 0.06711 0.26300
Co	Co	0.13546 0.91305 0.04411 1.17000
Co	Co	0.90035 0.06186 0.11166 1.15900
C 	C 	0.26069 0.11569 0.03105 0.31200
O 	O 	0.01163 0.08376 0.15593 -0.37800
O 	O 	0.94124 0.01754 0.09422 -0.77300
C 	C 	0.01937 0.01655 0.17820 0.28800
O 	O 	0.96443 0.83125 0.13196 -0.48300
O 	O 	0.05122 0.12567 0.02195 -0.45200
C 	C 	0.07046 0.23651 0.08784 0.34800
O 	O 	0.97592 0.95942 0.06962 -0.60200
C 	C 	0.76775 0.85650 0.13249 0.30900
C 	C 	0.20796 0.88502 0.12175 0.29400
C 	C 	0.02516 0.95826 0.97392 0.28800
O 	O 	0.02939 0.97474 0.16709 -0.37100
O 	O 	0.23373 0.94201 0.09158 -0.39700
O 	O 	0.14599 0.87411 0.13096 -0.37500
O 	O 	0.98219 0.19625 0.08453 -0.45300
O 	O 	0.09393 0.19673 0.08291 -0.39500
O 	O 	0.81888 0.93199 0.14239 -0.41700
O 	O 	0.80447 0.83900 0.12198 -0.39200
O 	O 	0.02967 0.89018 0.99806 -0.37900
O 	O 	0.02277 0.01044 0.98248 -0.36700
O 	O 	0.06840 0.93669 0.05785 -0.75200
C 	C 	0.82113 0.09324 0.03346 0.29400
O 	O 	0.79689 0.03901 0.06440 -0.39400
O 	O 	0.88082 0.10141 0.02394 -0.38600
O 	O 	0.06080 0.77662 0.07098 -0.38100
O 	O 	0.93701 0.75127 0.07672 -0.39400
O 	O 	0.21692 0.04844 0.01713 -0.41600
O 	O 	0.21631 0.11592 0.04525 -0.40400
Co	Co	0.02488 0.86242 0.59080 1.19500
Co	Co	0.92658 0.02551 0.56495 1.17500
Co	Co	0.95551 0.89849 0.63189 1.17000
Co	Co	0.99909 0.99236 0.52456 1.17200
C 	C 	0.97006 0.71354 0.56734 0.26400
Co	Co	0.08083 0.90368 0.52145 1.17500
Co	Co	0.88106 0.99732 0.63373 1.16000
C 	C 	0.17249 0.10288 0.50152 0.30800
O 	O 	0.01715 0.05831 0.66395 -0.38300
O 	O 	0.91921 0.96792 0.60778 -0.76400
C 	C 	0.04954 0.00918 0.68559 0.31300
O 	O 	0.00149 0.82955 0.63801 -0.44500
O 	O 	0.95478 0.06256 0.51838 -0.48500
C 	C 	0.99483 0.18053 0.58755 0.21700
O 	O 	0.94484 0.91972 0.57451 -0.59900
C 	C 	0.79478 0.79899 0.66271 0.30900
C 	C 	0.21134 0.91787 0.59211 0.29500
C 	C 	0.92393 0.90366 0.46492 0.31500
O 	O 	0.05765 0.96851 0.67291 -0.37300
O 	O 	0.20792 0.96097 0.55807 -0.39400
O 	O 	0.16675 0.90986 0.60969 -0.38500
O 	O 	0.91532 0.12210 0.59745 -0.40700
O 	O 	0.02153 0.15263 0.57704 -0.34800
O 	O 	0.84455 0.87452 0.67233 -0.42100
O 	O 	0.83161 0.78910 0.64870 -0.39600
O 	O 	0.94796 0.84864 0.48858 -0.41400
O 	O 	0.92197 0.95301 0.47535 -0.38300
O 	O 	0.02603 0.91592 0.54713 -0.73500
C 	C 	0.74378 0.97863 0.56439 0.30000
O 	O 	0.75137 0.93633 0.59874 -0.39500
O 	O 	0.79061 0.99369 0.54547 -0.37900
O 	O 	0.04671 0.77601 0.55503 -0.37300
O 	O 	0.94557 0.73414 0.58260 -0.40000
O 	O 	0.12399 0.03377 0.48774 -0.39800
O 	O 	0.13528 0.10008 0.52029 -0.39300
C 	C 	0.02671 0.97873 0.93704 -0.04700
C 	C 	0.10717 0.05871 0.92424 0.00800
C 	C 	0.12415 0.06604 0.89491 -0.07100
C 	C 	0.05926 0.99451 0.87735 0.06600
C 	C 	0.97529 0.91752 0.88851 -0.10100
C 	C 	0.95959 0.90930 0.91841 -0.01800
C 	C 	0.07934 0.00016 0.84733 -0.01000
C 	C 	0.06854 0.92583 0.84670 -0.02800
C 	C 	0.07970 0.92842 0.81687 -0.03100
C 	C 	0.10372 0.00597 0.78783 -0.00500
C 	C 	0.12027 0.08226 0.78949 -0.03400
C 	C 	0.10709 0.07907 0.81883 -0.03200
C 	C 	0.09280 0.00118 0.75379 0.04900
C 	C 	0.07747 0.00184 0.72345 -0.10200
H 	H 	0.15964 0.11262 0.93846 0.03700
H 	H 	0.18901 0.12605 0.88655 0.04900
H 	H 	0.92322 0.86309 0.87456 0.04500
H 	H 	0.89723 0.84717 0.92805 0.03100
H 	H 	0.04949 0.86539 0.86890 0.04500
H 	H 	0.06654 0.86902 0.81585 0.04700
H 	H 	0.13850 0.14238 0.76712 0.04300
H 	H 	0.11572 0.13688 0.81888 0.04100
C 	C 	0.03171 0.99845 0.21674 -0.05500
C 	C 	0.09355 0.07278 0.23254 0.02300
C 	C 	0.08176 0.06371 0.26363 -0.09200
C 	C 	0.00928 0.97954 0.27977 0.11600
C 	C 	0.95318 0.90291 0.26594 -0.11800
C 	C 	0.96456 0.91234 0.23459 -0.00800
C 	C 	0.99022 0.97269 0.31034 -0.08300
C 	C 	0.89990 0.93974 0.30866 -0.01700
C 	C 	0.88255 0.93453 0.33741 -0.03700
C 	C 	0.95556 0.96339 0.36778 -0.03900
C 	C 	0.04610 0.99827 0.36909 -0.00400
C 	C 	0.06325 0.00230 0.34067 0.00700
C 	C 	0.93571 0.94555 0.39967 0.05000
C 	C 	0.92574 0.92827 0.42835 -0.12400
H 	H 	0.14660 0.13932 0.21933 0.03100
H 	H 	0.12650 0.12306 0.27430 0.05800
H 	H 	0.89877 0.83690 0.27873 0.05500
H 	H 	0.91668 0.85428 0.22281 0.02700
H 	H 	0.84324 0.91801 0.28518 0.03000
H 	H 	0.81217 0.90671 0.33627 0.04000
H 	H 	0.10272 0.01988 0.39261 0.03600
H 	H 	0.13310 0.02770 0.34238 0.03000
C 	C 	0.10314 0.38361 0.61807 -0.04800
C 	C 	0.16518 0.45682 0.59566 0.01200
C 	C 	0.16769 0.43964 0.56899 -0.04800
C 	C 	0.11366 0.34948 0.56659 -0.00700
C 	C 	0.05579 0.27591 0.59052 -0.02900
C 	C 	0.04960 0.29382 0.61581 -0.00200
H 	H 	0.10064 0.39574 0.63877 0.04700
H 	H 	0.21507 0.49575 0.55136 0.04600
H 	H 	0.11714 0.33710 0.54627 0.04700
H 	H 	0.00442 0.23782 0.63422 0.04300
C 	C 	0.54062 0.68944 0.61612 -0.06300
C 	C 	0.50629 0.67880 0.64072 0.02100
C 	C 	0.56342 0.69249 0.67506 -0.06600
C 	C 	0.65610 0.72227 0.68390 0.01600
C 	C 	0.69248 0.73898 0.65840 -0.10000
C 	C 	0.63270 0.71778 0.62517 0.02500
H 	H 	0.49657 0.67779 0.58967 0.04900
H 	H 	0.53661 0.68167 0.69464 0.04500
H 	H 	0.70119 0.73702 0.70988 0.02600
H 	H 	0.65972 0.73002 0.60529 0.03300
C 	C 	0.34149 0.83829 0.60036 -0.06200
C 	C 	0.28400 0.74418 0.61612 0.01900
C 	C 	0.21300 0.71130 0.63009 -0.05800
C 	C 	0.19622 0.77104 0.62633 0.01900
C 	C 	0.24948 0.86393 0.60818 -0.09000
C 	C 	0.32551 0.89786 0.59708 0.01200
H 	H 	0.39704 0.86498 0.58974 0.04300
H 	H 	0.16974 0.63942 0.64321 0.05100
H 	H 	0.13799 0.74380 0.63544 0.03700
H 	H 	0.36833 0.96958 0.58362 0.03300
C 	C 	0.20889 0.35996 0.15909 -0.06300
C 	C 	0.21275 0.44011 0.14009 0.02300
C 	C 	0.18083 0.45778 0.10253 -0.06300
C 	C 	0.14550 0.39617 0.08437 0.02600
C 	C 	0.14164 0.31609 0.10349 -0.10200
C 	C 	0.17864 0.30140 0.14072 0.02200
H 	H 	0.23456 0.34589 0.18803 0.04700
H 	H 	0.18572 0.52040 0.08730 0.04900
H 	H 	0.11666 0.40831 0.05560 0.03300
H 	H 	0.17867 0.24141 0.15575 0.03800
C 	C 	0.59390 0.68032 0.18909 -0.06600
C 	C 	0.52329 0.69408 0.16823 0.02100
C 	C 	0.52730 0.74966 0.13309 -0.06300
C 	C 	0.60215 0.79278 0.11928 0.01600
C 	C 	0.67583 0.78395 0.14084 -0.09400
C 	C 	0.66993 0.72506 0.17542 0.02000
H 	H 	0.58970 0.63485 0.21577 0.04500
H 	H 	0.47112 0.75780 0.11623 0.04600
H 	H 	0.60611 0.83817 0.09257 0.03000
H 	H 	0.72691 0.71822 0.19242 0.02600
C 	C 	0.35074 0.80313 0.14851 -0.06200
C 	C 	0.28612 0.70745 0.15934 0.01900
C 	C 	0.19998 0.67165 0.16345 -0.05800
C 	C 	0.17715 0.73075 0.15484 0.01600
C 	C 	0.24142 0.82622 0.14310 -0.08600
C 	C 	0.33057 0.86167 0.14249 0.01100
H 	H 	0.41593 0.83236 0.14386 0.04200
H 	H 	0.15010 0.59844 0.17258 0.05100
H 	H 	0.10793 0.70195 0.15549 0.04200
H 	H 	0.38140 0.93504 0.13403 0.03300
C 	C 	0.74462 0.11674 0.52722 0.02200
C 	C 	0.70095 0.02746 0.54943 -0.10400
C 	C 	0.63071 0.99425 0.56388 0.02400
C 	C 	0.61260 0.05286 0.55979 -0.07400
C 	C 	0.66301 0.14471 0.54050 0.02200
C 	C 	0.72610 0.17525 0.52295 -0.06800
H 	H 	0.79786 0.14300 0.51538 0.02800
H 	H 	0.59448 0.92471 0.58023 0.02900
H 	H 	0.56226 0.02794 0.57285 0.04300
H 	H 	0.76330 0.24523 0.50709 0.04400
C 	C 	0.86453 0.54539 0.59359 0.00800
C 	C 	0.91816 0.61724 0.56812 -0.08300
C 	C 	0.92155 0.59689 0.54288 0.00700
C 	C 	0.86520 0.50632 0.54100 -0.06400
C 	C 	0.80430 0.43538 0.56405 0.01500
C 	C 	0.80854 0.45469 0.59178 -0.06400
H 	H 	0.86437 0.55974 0.61421 0.03300
H 	H 	0.96461 0.65154 0.52365 0.02100
H 	H 	0.86364 0.49204 0.51988 0.04100
H 	H 	0.76335 0.39995 0.61030 0.04200
C 	C 	0.33474 0.18327 0.53896 0.02400
C 	C 	0.27454 0.16640 0.50520 -0.09300
C 	C 	0.31093 0.19032 0.47805 0.01600
C 	C 	0.40289 0.21953 0.48591 -0.06400
C 	C 	0.45948 0.22658 0.52079 0.02100
C 	C 	0.42646 0.21197 0.54688 -0.06300
H 	H 	0.30812 0.16673 0.55998 0.03500
H 	H 	0.26584 0.18009 0.45155 0.03400
H 	H 	0.42918 0.23403 0.46524 0.04600
H 	H 	0.47072 0.21958 0.57368 0.04700
C 	C 	0.83813 0.30537 0.00600 -0.06900
C 	C 	0.74273 0.27241 0.99189 0.02200
C 	C 	0.67593 0.18473 0.98477 -0.06600
C 	C 	0.70180 0.12641 0.99678 0.01900
C 	C 	0.79615 0.15834 0.01262 -0.09600
C 	C 	0.86477 0.25057 0.01390 0.01300
H 	H 	0.89130 0.37151 0.01232 0.03700
H 	H 	0.60356 0.16054 0.97111 0.04500
H 	H 	0.64836 0.05623 0.99433 0.02800
H 	H 	0.93865 0.27853 0.02295 0.02800
C 	C 	0.87570 0.53179 0.03774 -0.06000
C 	C 	0.82277 0.54556 0.00276 0.00600
C 	C 	0.81831 0.62006 0.98949 -0.05300
C 	C 	0.85732 0.67351 0.01213 0.00200
C 	C 	0.90689 0.65720 0.04752 -0.08400
C 	C 	0.91651 0.58657 0.06006 0.00500
H 	H 	0.88016 0.47486 0.04839 0.03800
H 	H 	0.77884 0.63237 0.96240 0.04000
H 	H 	0.85157 0.72947 0.00180 0.03300
H 	H 	0.95750 0.57543 0.08693 0.02100
C 	C 	0.44038 0.29248 0.97930 -0.06000
C 	C 	0.51140 0.28052 0.00283 0.01400
C 	C 	0.50876 0.23486 0.03901 -0.06200
C 	C 	0.43099 0.19363 0.05062 0.01600
C 	C 	0.35434 0.19538 0.02589 -0.09800
C 	C 	0.36317 0.25184 0.99109 0.02300
H 	H 	0.44428 0.33187 0.95175 0.04500
H 	H 	0.56620 0.23012 0.05794 0.04300
H 	H 	0.42611 0.15247 0.07793 0.03100
H 	H 	0.30545 0.25604 0.97207 0.02900
