data_crystal

_cell_length_a 44.64627
_cell_length_b 39.11604
_cell_length_c 24.41557
_cell_angle_alpha 89.94515
_cell_angle_beta  89.94439
_cell_angle_gamma 90.50945

_symmetry_space_group_name_	'P 1'
_symmetry_space_group_name_H-M	'P 1'

loop_
_symmetry_equiv_pos_as_xyz
  x,y,z

loop_
_atom_site_label
_atom_site_type_symbol
_atom_site_fract_x
_atom_site_fract_y
_atom_site_fract_z
_atom_site_charge
Zn	Zn	0.47565 0.48512 0.03578 1.22200
C 	C 	0.49338 0.55512 0.05743 0.31600
O 	O 	0.49782 0.45934 0.09095 -0.47400
O 	O 	0.47123 0.55504 0.09306 -0.45100
O 	O 	0.50607 0.50216 0.15134 -0.49400
C 	C 	0.41698 0.50374 0.06780 0.33400
O 	O 	0.43727 0.50747 0.02932 -0.45500
O 	O 	0.42530 0.49863 0.11877 -0.50600
C 	C 	0.51578 0.47531 0.12489 0.32000
O 	O 	0.45006 0.43468 0.01072 -0.31400
Zn	Zn	0.46405 0.51490 0.14651 1.16900
O 	O 	0.50106 0.52662 0.03249 -0.43300
C 	C 	0.46733 0.43470 0.96799 0.26400
O 	O 	0.48634 0.45988 0.96509 -0.38700
Zn	Zn	0.40497 0.08397 0.97155 1.22200
C 	C 	0.34585 0.05489 0.99622 0.29700
O 	O 	0.42382 0.09349 0.04258 -0.42900
O 	O 	0.35825 0.02472 0.99228 -0.45100
O 	O 	0.39551 0.05294 0.08348 -0.48200
C 	C 	0.42271 0.01860 0.92766 0.29300
O 	O 	0.40562 0.04554 0.91986 -0.45100
O 	O 	0.42223 0.00231 0.97484 -0.50100
C 	C 	0.41931 0.07279 0.08414 0.28500
O 	O 	0.44888 0.10547 0.92813 -0.33800
Zn	Zn	0.39634 0.01368 0.03555 1.18100
O 	O 	0.36265 0.08267 0.99511 -0.43000
C 	C 	0.43227 0.13131 0.91500 0.28200
O 	O 	0.40484 0.12950 0.93178 -0.39100
C 	C 	0.54554 0.00458 0.28666 0.12900
C 	C 	0.52129 0.02116 0.26223 -0.09500
H 	H 	0.50286 0.02904 0.28782 0.06100
C 	C 	0.52140 0.02787 0.20552 0.02500
C 	C 	0.54744 0.02053 0.17539 -0.07200
C 	C 	0.57009 0.99998 0.19782 0.02600
C 	C 	0.56944 0.99307 0.25452 -0.09300
H 	H 	0.58739 0.97939 0.27415 0.06200
N 	N 	0.54586 0.99944 0.34492 -0.17800
C 	C 	0.53248 0.97076 0.36667 0.18900
C 	C 	0.53042 0.96663 0.42383 -0.06200
C 	C 	0.54252 0.99197 0.45827 0.03000
C 	C 	0.55670 0.02085 0.43538 -0.06200
C 	C 	0.55832 0.02406 0.37803 0.18900
C 	C 	0.51622 0.93775 0.44698 -0.01400
C 	C 	0.51415 0.93426 0.50386 -0.01400
C 	C 	0.52630 0.95954 0.53855 -0.06200
C 	C 	0.54043 0.98844 0.51567 0.03000
C 	C 	0.55255 0.01378 0.55011 -0.06200
C 	C 	0.56877 0.04618 0.47007 -0.01400
C 	C 	0.56668 0.04269 0.52697 -0.01400
C 	C 	0.52485 0.95622 0.59589 0.18900
N 	N 	0.53745 0.98075 0.62900 -0.17800
C 	C 	0.55062 0.00955 0.60728 0.18900
C 	C 	0.53824 0.97528 0.68718 0.13000
C 	C 	0.51389 0.98498 0.71972 -0.09400
C 	C 	0.51333 0.97684 0.77601 0.02500
C 	C 	0.53681 0.95710 0.79767 -0.07100
C 	C 	0.56305 0.95123 0.76708 0.02500
C 	C 	0.56304 0.95937 0.71085 -0.09500
O 	O 	0.57157 0.05102 0.35600 -0.20400
O 	O 	0.52125 0.94717 0.33387 -0.20700
O 	O 	0.51172 0.92917 0.61791 -0.20500
O 	O 	0.56182 0.03316 0.64009 -0.20700
H 	H 	0.58174 0.95292 0.68491 0.06100
H 	H 	0.49545 0.99806 0.70060 0.06200
H 	H 	0.57976 0.06862 0.45314 0.04800
H 	H 	0.57614 0.06248 0.55288 0.04700
H 	H 	0.50674 0.91798 0.42106 0.04700
H 	H 	0.50314 0.91182 0.52079 0.04700
H 	H 	0.53500 0.94709 0.83878 0.03800
H 	H 	0.54923 0.02907 0.13343 0.04000
Zn	Zn	0.67155 0.88121 0.99561 1.21900
C 	C 	0.73220 0.90838 0.99407 0.29500
O 	O 	0.66865 0.91685 0.05298 -0.44200
O 	O 	0.72081 0.93921 0.99246 -0.45100
O 	O 	0.65726 0.96252 0.99841 -0.51100
C 	C 	0.66417 0.89768 0.88263 0.28800
O 	O 	0.65893 0.87438 0.92001 -0.44300
O 	O 	0.68811 0.91697 0.88796 -0.49000
C 	C 	0.65519 0.94639 0.04560 0.31200
O 	O 	0.62325 0.86092 0.01932 -0.33000
Zn	Zn	0.68617 0.95278 0.94166 1.17600
O 	O 	0.71528 0.88135 0.98425 -0.43300
C 	C 	0.63697 0.83454 0.03925 0.27900
O 	O 	0.66594 0.83599 0.03617 -0.38300
Zn	Zn	0.11123 0.61501 0.95011 1.22100
C 	C 	0.09232 0.68273 0.91433 0.32000
O 	O 	0.10946 0.61486 0.03115 -0.41700
O 	O 	0.06517 0.66999 0.91055 -0.45900
O 	O 	0.07395 0.65484 0.03046 -0.47500
C 	C 	0.05668 0.59138 0.89371 0.29700
O 	O 	0.08483 0.60167 0.88813 -0.44200
O 	O 	0.04100 0.60030 0.93688 -0.50700
C 	C 	0.08611 0.62852 0.05480 0.27700
O 	O 	0.12782 0.55756 0.95348 -0.33300
Zn	Zn	0.04578 0.64332 0.97385 1.17600
O 	O 	0.11360 0.66496 0.93793 -0.43300
C 	C 	0.15373 0.57044 0.94004 0.27400
O 	O 	0.15434 0.60322 0.93325 -0.38900
C 	C 	0.97766 0.48344 0.66008 0.13000
C 	C 	0.00071 0.49793 0.69163 -0.09400
H 	H 	0.01882 0.51124 0.67107 0.06100
C 	C 	0.00002 0.49528 0.74918 0.02500
C 	C 	0.97837 0.47347 0.77304 -0.07100
C 	C 	0.95280 0.46334 0.74319 0.02400
C 	C 	0.95335 0.46699 0.68572 -0.09400
H 	H 	0.93528 0.45720 0.66069 0.06100
N 	N 	0.97801 0.48740 0.60153 -0.17800
C 	C 	0.99174 0.46320 0.56976 0.18900
C 	C 	0.99354 0.46747 0.51255 -0.06100
C 	C 	0.98095 0.49663 0.48842 0.03000
C 	C 	0.96666 0.52097 0.52142 -0.06200
C 	C 	0.96531 0.51580 0.57845 0.18900
C 	C 	0.00784 0.44316 0.47928 -0.01400
C 	C 	0.00955 0.44796 0.42256 -0.01400
C 	C 	0.99695 0.47712 0.39816 -0.06100
C 	C 	0.98267 0.50146 0.43118 0.03000
C 	C 	0.97007 0.53060 0.40707 -0.06200
C 	C 	0.95409 0.55014 0.49703 -0.01400
C 	C 	0.95580 0.55493 0.44034 -0.01500
C 	C 	0.99823 0.48226 0.34109 0.18900
N 	N 	0.98545 0.51063 0.31804 -0.17800
C 	C 	0.97179 0.53485 0.34988 0.18900
C 	C 	0.98556 0.51459 0.25949 0.13000
C 	C 	0.00840 0.53378 0.23403 -0.09300
C 	C 	0.00738 0.54002 0.17725 0.02500
C 	C 	0.98350 0.52611 0.14670 -0.07100
C 	C 	0.96051 0.50685 0.17158 0.02600
C 	C 	0.96186 0.50094 0.22843 -0.09400
O 	O 	0.95197 0.53846 0.60988 -0.20900
O 	O 	0.00345 0.43596 0.59295 -0.20300
O 	O 	0.01159 0.45965 0.30962 -0.20300
O 	O 	0.96001 0.56206 0.32673 -0.20700
H 	H 	0.94457 0.48633 0.24905 0.06200
H 	H 	0.02640 0.54401 0.25880 0.06200
H 	H 	0.94300 0.56918 0.52184 0.04600
H 	H 	0.94597 0.57756 0.42246 0.04700
H 	H 	0.01769 0.42054 0.49717 0.04900
H 	H 	0.02065 0.42893 0.39776 0.04900
H 	H 	0.98182 0.53213 0.10375 0.03900
H 	H 	0.97953 0.46783 0.81623 0.03900
Zn	Zn	0.83974 0.40842 0.98189 1.21900
C 	C 	0.78281 0.44299 0.98147 0.29600
O 	O 	0.85317 0.39921 0.90676 -0.43900
O 	O 	0.79618 0.47269 0.97382 -0.45100
O 	O 	0.82749 0.44378 0.87349 -0.48500
C 	C 	0.86354 0.47072 0.02911 0.31100
O 	O 	0.84572 0.44416 0.03719 -0.45000
O 	O 	0.86279 0.48761 0.98249 -0.51300
C 	C 	0.84954 0.42212 0.86823 0.28300
O 	O 	0.88469 0.38430 0.01400 -0.33300
Zn	Zn	0.83343 0.48039 0.92533 1.17600
O 	O 	0.79658 0.41441 0.96919 -0.43400
C 	C 	0.86808 0.35842 0.02832 0.28100
O 	O 	0.83983 0.36130 0.01752 -0.38200
Zn	Zn	0.02198 0.01786 0.11798 1.22100
C 	C 	0.04974 0.96237 0.05922 0.30400
O 	O 	0.99288 0.99528 0.16661 -0.47300
O 	O 	0.06772 0.95927 0.10157 -0.44600
O 	O 	0.01396 0.94284 0.16745 -0.49400
C 	C 	0.08146 0.02721 0.15876 0.33100
O 	O 	0.06357 0.03256 0.11715 -0.45300
O 	O 	0.07292 0.00659 0.19837 -0.51000
C 	C 	0.98999 0.96190 0.16659 0.31900
O 	O 	0.01110 0.07072 0.15951 -0.32800
Zn	Zn	0.05312 0.96328 0.18131 1.16900
O 	O 	0.02584 0.98182 0.06219 -0.43200
C 	C 	0.99649 0.07720 0.11482 0.28000
O 	O 	0.99672 0.05324 0.07821 -0.38400
C 	C 	0.98057 0.10973 0.10650 -0.07800
C 	C 	0.96125 0.11385 0.06159 0.01500
C 	C 	0.94617 0.14468 0.05405 -0.06700
C 	C 	0.95027 0.17157 0.09123 0.03900
C 	C 	0.96944 0.16754 0.13607 -0.06700
C 	C 	0.98454 0.13678 0.14374 0.01400
C 	C 	0.93528 0.20355 0.08285 -0.01900
C 	C 	0.92283 0.23043 0.07617 -0.02000
C 	C 	0.90832 0.26272 0.06796 0.04000
C 	C 	0.92443 0.29325 0.07531 -0.06700
C 	C 	0.91096 0.32460 0.06411 0.01500
C 	C 	0.88126 0.32562 0.04522 -0.08000
C 	C 	0.86487 0.29497 0.03961 0.01600
C 	C 	0.87841 0.26365 0.05082 -0.06700
H 	H 	0.95783 0.09321 0.03266 0.04300
H 	H 	0.93137 0.14767 0.01925 0.05100
H 	H 	0.97275 0.18828 0.16489 0.05000
H 	H 	0.99942 0.13407 0.17846 0.04100
H 	H 	0.94750 0.29270 0.08900 0.05000
H 	H 	0.92373 0.34805 0.06946 0.03700
H 	H 	0.84191 0.29533 0.02536 0.04300
H 	H 	0.86578 0.24011 0.04537 0.05000
C 	C 	0.89599 0.44611 0.73745 -0.09100
C 	C 	0.92429 0.45166 0.77430 0.03700
C 	C 	0.88868 0.46752 0.85279 -0.04000
C 	C 	0.87647 0.43233 0.83342 -0.07500
C 	C 	0.86811 0.43552 0.77206 -0.03600
H 	H 	0.89090 0.46999 0.71460 0.04600
H 	H 	0.90027 0.42564 0.70689 0.04700
H 	H 	0.89543 0.46591 0.89659 -0.00300
H 	H 	0.87098 0.48728 0.84977 -0.04100
H 	H 	0.85021 0.45487 0.76670 0.03200
H 	H 	0.85900 0.41071 0.75687 0.03700
C 	C 	0.90228 0.40592 0.83823 -0.03600
H 	H 	0.89441 0.38042 0.82371 0.04300
H 	H 	0.90905 0.40294 0.88185 0.04000
C 	C 	0.93005 0.41731 0.80443 -0.09100
H 	H 	0.94956 0.41972 0.83246 0.04400
H 	H 	0.93563 0.39713 0.77406 0.04900
C 	C 	0.91584 0.47907 0.81799 -0.08900
H 	H 	0.93468 0.48431 0.84650 0.03800
H 	H 	0.91070 0.50367 0.79721 0.04100
C 	C 	0.89073 0.51844 0.07689 -0.04200
C 	C 	0.88814 0.47909 0.06970 -0.05400
C 	C 	0.94428 0.47427 0.08646 -0.08500
C 	C 	0.93335 0.49562 0.13658 0.03400
C 	C 	0.91705 0.52803 0.11506 -0.08800
H 	H 	0.89428 0.53113 0.03653 0.03900
H 	H 	0.86949 0.52858 0.09412 0.03400
H 	H 	0.95461 0.45015 0.10120 0.04900
H 	H 	0.96177 0.48796 0.06249 0.04300
H 	H 	0.93267 0.54502 0.09202 0.04000
H 	H 	0.90852 0.54317 0.15027 0.04700
C 	C 	0.90922 0.47328 0.16675 -0.08800
H 	H 	0.89968 0.48769 0.20185 0.04700
H 	H 	0.91964 0.44970 0.18332 0.04800
C 	C 	0.88316 0.46306 0.12734 -0.04300
H 	H 	0.88191 0.43470 0.12412 0.04800
H 	H 	0.86147 0.47179 0.14464 0.04300
C 	C 	0.91825 0.46568 0.04709 -0.05000
H 	H 	0.91700 0.43752 0.04126 0.04700
H 	H 	0.92296 0.47717 0.00617 0.03900
C 	C 	0.09744 0.71905 0.90089 -0.10400
C 	C 	0.11686 0.73895 0.93325 0.02100
C 	C 	0.11484 0.77459 0.93237 -0.07600
C 	C 	0.09350 0.79048 0.89913 0.04100
C 	C 	0.07682 0.77090 0.86189 -0.07700
C 	C 	0.07887 0.73526 0.86254 0.02000
C 	C 	0.08460 0.82489 0.91119 -0.03100
C 	C 	0.07781 0.85374 0.92265 -0.01800
C 	C 	0.06943 0.88729 0.94076 0.01900
C 	C 	0.09176 0.91065 0.95646 -0.04900
C 	C 	0.08471 0.93787 0.99103 -0.03100
C 	C 	0.05526 0.94182 0.01006 -0.04500
C 	C 	0.03237 0.92092 0.98886 -0.03200
C 	C 	0.03946 0.89366 0.95431 -0.04900
H 	H 	0.13191 0.72685 0.96198 0.03500
H 	H 	0.12836 0.78966 0.96038 0.04600
H 	H 	0.06079 0.78307 0.83504 0.04600
H 	H 	0.06462 0.72022 0.83574 0.02700
H 	H 	0.11490 0.90632 0.94523 0.03900
H 	H 	0.10245 0.95449 0.00593 0.05200
H 	H 	0.00945 0.92410 0.00250 0.05300
H 	H 	0.02196 0.87605 0.94149 0.03700
C 	C 	0.99333 0.54472 0.81358 -0.08900
C 	C 	0.01684 0.52130 0.78580 0.03500
C 	C 	0.05481 0.57117 0.79421 -0.04400
C 	C 	0.04299 0.56623 0.85348 -0.05200
C 	C 	0.00839 0.57074 0.85232 -0.04200
H 	H 	0.98034 0.55860 0.78175 0.04600
H 	H 	0.97694 0.52928 0.83769 0.03900
H 	H 	0.07948 0.56737 0.79294 0.04700
H 	H 	0.05051 0.59777 0.78022 0.03900
H 	H 	0.00282 0.59715 0.83895 0.02600
H 	H 	0.99879 0.56719 0.89408 0.03300
C 	C 	0.04986 0.52908 0.87126 -0.04600
H 	H 	0.04144 0.52454 0.91363 0.03500
H 	H 	0.07451 0.52505 0.87205 0.04300
C 	C 	0.03507 0.50295 0.83161 -0.08700
H 	H 	0.05267 0.48686 0.81259 0.04700
H 	H 	0.02063 0.48560 0.85631 0.04100
C 	C 	0.03933 0.54535 0.75462 -0.08900
H 	H 	0.05677 0.52984 0.73391 0.04700
H 	H 	0.02736 0.56013 0.72254 0.04800
C 	C 	0.04426 0.54503 0.09867 -0.08800
C 	C 	0.02993 0.56408 0.14818 0.03800
C 	C 	0.07743 0.60228 0.14993 -0.03300
C 	C 	0.06611 0.60542 0.09004 -0.08300
C 	C 	0.06522 0.56878 0.06550 -0.04600
H 	H 	0.05709 0.52266 0.11383 0.05000
H 	H 	0.02708 0.53481 0.07010 0.04400
H 	H 	0.07822 0.62800 0.16936 0.03600
H 	H 	0.10065 0.59218 0.15035 0.04200
H 	H 	0.08808 0.55763 0.06523 0.04800
H 	H 	0.05758 0.56960 0.02228 0.01900
C 	C 	0.03351 0.61920 0.09219 -0.02100
H 	H 	0.02404 0.62083 0.05024 -0.06600
H 	H 	0.03341 0.64545 0.10978 0.01900
C 	C 	0.01287 0.59584 0.12658 -0.09700
H 	H 	0.00371 0.61055 0.16174 0.04800
H 	H 	0.99341 0.58832 0.10081 0.04000
C 	C 	0.05645 0.57803 0.18394 -0.09300
H 	H 	0.04761 0.59253 0.21956 0.04800
H 	H 	0.06975 0.55637 0.20024 0.04900
C 	C 	0.76380 0.90424 0.00927 -0.05300
C 	C 	0.78566 0.92567 0.98576 -0.03100
C 	C 	0.81470 0.92649 0.00696 -0.02100
C 	C 	0.82210 0.90601 0.05195 0.01800
C 	C 	0.80079 0.88317 0.07364 -0.05400
C 	C 	0.77171 0.88217 0.05220 0.00300
C 	C 	0.85056 0.91084 0.07873 -0.01000
C 	C 	0.87464 0.91584 0.09971 -0.02800
C 	C 	0.90336 0.92347 0.12385 0.04500
C 	C 	0.92904 0.90669 0.10525 -0.07600
C 	C 	0.95744 0.91794 0.12187 0.02500
C 	C 	0.96032 0.94622 0.15700 -0.10500
C 	C 	0.93449 0.96183 0.17776 0.02400
C 	C 	0.90613 0.95046 0.16126 -0.07500
H 	H 	0.77988 0.94251 0.95220 0.02800
H 	H 	0.83115 0.94394 0.98962 0.02500
H 	H 	0.80642 0.86705 0.10818 0.04500
H 	H 	0.75503 0.86546 0.07058 0.03900
H 	H 	0.92707 0.88576 0.07639 0.04900
H 	H 	0.97717 0.90570 0.10542 0.03100
H 	H 	0.93640 0.98339 0.20539 0.03100
H 	H 	0.88637 0.96343 0.17604 0.05100
C 	C 	0.61980 0.93563 0.75922 -0.09200
C 	C 	0.59098 0.93655 0.79578 0.03700
C 	C 	0.61199 0.88447 0.84596 -0.03500
C 	C 	0.63784 0.91135 0.85027 -0.08100
C 	C 	0.64714 0.92172 0.79137 -0.03400
H 	H 	0.61601 0.91876 0.72317 0.04700
H 	H 	0.62521 0.96174 0.74376 0.04500
H 	H 	0.60460 0.87631 0.88757 0.04300
H 	H 	0.62006 0.86125 0.82438 0.04100
H 	H 	0.65653 0.89925 0.76954 0.03600
H 	H 	0.66504 0.94168 0.79265 0.02500
C 	C 	0.62543 0.94353 0.87921 -0.03400
H 	H 	0.64323 0.96348 0.88278 -0.04700
H 	H 	0.61809 0.93684 0.92152 0.00700
C 	C 	0.59880 0.95858 0.84717 -0.09100
H 	H 	0.57952 0.96028 0.87576 0.04100
H 	H 	0.60434 0.98519 0.83419 0.04200
C 	C 	0.58470 0.89926 0.81499 -0.09100
H 	H 	0.56483 0.89821 0.84246 0.04400
H 	H 	0.57943 0.88287 0.77896 0.04800
C 	C 	0.61644 0.95971 0.18809 -0.08900
C 	C 	0.59400 0.98458 0.15961 0.03500
C 	C 	0.63602 0.99928 0.09194 -0.04000
C 	C 	0.63360 0.95965 0.08824 -0.05400
C 	C 	0.63926 0.94491 0.14635 -0.04200
H 	H 	0.62914 0.97346 0.22063 0.04700
H 	H 	0.60397 0.93822 0.20779 0.04900
H 	H 	0.63195 0.01103 0.05110 0.04000
H 	H 	0.65907 0.00692 0.10464 0.03400
H 	H 	0.66248 0.95122 0.15970 0.04300
H 	H 	0.63712 0.91654 0.14575 0.04700
C 	C 	0.60123 0.94986 0.07132 -0.04800
H 	H 	0.59882 0.92156 0.06879 0.04400
H 	H 	0.59623 0.96023 0.02984 0.04000
C 	C 	0.57829 0.96390 0.11289 -0.08600
H 	H 	0.56213 0.97997 0.09008 0.04200
H 	H 	0.56521 0.94229 0.13090 0.04700
C 	C 	0.61307 0.01372 0.13319 -0.09100
H 	H 	0.59863 0.03225 0.11133 0.04400
H 	H 	0.62509 0.02827 0.16572 0.04800
C 	C 	0.31392 0.05734 0.01138 -0.06000
C 	C 	0.29402 0.03041 0.99905 -0.02700
C 	C 	0.26491 0.03040 0.02022 -0.04300
C 	C 	0.25543 0.05731 0.05366 0.02600
C 	C 	0.27474 0.08494 0.06406 -0.05800
C 	C 	0.30386 0.08504 0.04294 0.00500
C 	C 	0.22635 0.05583 0.07908 -0.01500
C 	C 	0.20191 0.05408 0.09996 -0.02600
C 	C 	0.17256 0.05116 0.12405 0.04600
C 	C 	0.15012 0.07416 0.10917 -0.07500
C 	C 	0.12044 0.06797 0.12484 0.03100
C 	C 	0.11297 0.03851 0.15508 -0.10700
C 	C 	0.13590 0.01700 0.17357 0.02600
C 	C 	0.16557 0.02327 0.15789 -0.07800
H 	H 	0.30128 0.00918 0.97402 0.03700
H 	H 	0.24994 0.00914 0.01148 0.04200
H 	H 	0.26745 0.10599 0.08949 0.04800
H 	H 	0.31889 0.10605 0.05274 0.04700
H 	H 	0.15545 0.09609 0.08369 0.05300
H 	H 	0.10306 0.08519 0.11132 0.03600
H 	H 	0.13055 0.99435 0.19734 0.01000
H 	H 	0.18291 0.00562 0.17014 0.04700
C 	C 	0.46495 0.01376 0.78694 -0.08800
C 	C 	0.48799 0.98908 0.81426 0.03500
C 	C 	0.47733 0.01903 0.90573 -0.05000
C 	C 	0.44575 0.00850 0.88518 -0.05200
C 	C 	0.44081 0.02564 0.82859 -0.04400
H 	H 	0.47678 0.03660 0.77003 0.04900
H 	H 	0.45336 0.00061 0.75246 0.04600
H 	H 	0.48197 0.00671 0.94595 0.03200
H 	H 	0.47851 0.04713 0.91236 0.04100
H 	H 	0.44196 0.05397 0.83268 0.04800
H 	H 	0.41810 0.01904 0.81283 0.04300
C 	C 	0.44510 0.96911 0.87668 -0.04200
H 	H 	0.42280 0.96096 0.86078 0.03400
H 	H 	0.44843 0.95571 0.91643 0.03600
C 	C 	0.46984 0.95781 0.83622 -0.08900
H 	H 	0.48477 0.93953 0.85755 0.04200
H 	H 	0.45945 0.94374 0.80137 0.04700
C 	C 	0.50173 0.00860 0.86415 -0.08600
H 	H 	0.51838 0.99274 0.88613 0.03900
H 	H 	0.51387 0.03185 0.84948 0.04700
C 	C 	0.49918 0.07658 0.14996 -0.09100
C 	C 	0.49327 0.04061 0.17527 0.03700
C 	C 	0.43717 0.05546 0.17844 -0.03600
C 	C 	0.44601 0.06182 0.11785 -0.07600
C 	C 	0.47169 0.08899 0.11686 -0.03600
H 	H 	0.50435 0.09524 0.18307 0.04900
H 	H 	0.51896 0.07615 0.12231 0.04600
H 	H 	0.41921 0.03560 0.18107 0.02800
H 	H 	0.42802 0.07929 0.19657 0.03800
H 	H 	0.46359 0.11353 0.13425 0.04400
H 	H 	0.47881 0.09420 0.07392 0.04600
C 	C 	0.45832 0.02794 0.09427 -0.03400
H 	H 	0.46517 0.03171 0.05078 0.01200
H 	H 	0.44061 0.00775 0.09474 -0.04500
C 	C 	0.48533 0.01535 0.12789 -0.09200
H 	H 	0.48019 0.98961 0.14518 0.04400
H 	H 	0.50445 0.01216 0.09927 0.04300
C 	C 	0.46470 0.04361 0.21208 -0.09200
H 	H 	0.45942 0.01849 0.23143 0.04600
H 	H 	0.46871 0.06248 0.24542 0.04700
C 	C 	0.44529 0.16393 0.89597 -0.08300
C 	C 	0.42840 0.18535 0.86198 0.01700
C 	C 	0.43681 0.21958 0.85494 -0.06800
C 	C 	0.46210 0.23266 0.88191 0.03900
C 	C 	0.48049 0.21059 0.91186 -0.06900
C 	C 	0.47217 0.17625 0.91872 0.01500
C 	C 	0.46620 0.26913 0.88645 -0.02200
C 	C 	0.46917 0.29975 0.88968 -0.02100
C 	C 	0.47110 0.33632 0.89605 0.03700
C 	C 	0.49735 0.35145 0.91663 -0.06800
C 	C 	0.49702 0.38527 0.93533 0.01300
C 	C 	0.47031 0.40395 0.93410 -0.07600
C 	C 	0.44478 0.38965 0.90939 0.01300
C 	C 	0.44522 0.35600 0.89023 -0.06700
H 	H 	0.40792 0.17594 0.84330 0.03400
H 	H 	0.42272 0.23636 0.83104 0.04900
H 	H 	0.50030 0.22041 0.93229 0.04600
H 	H 	0.48562 0.15988 0.94452 0.03200
H 	H 	0.51755 0.33651 0.92083 0.04600
H 	H 	0.51692 0.39613 0.95409 0.03300
H 	H 	0.42413 0.40396 0.90776 0.03000
H 	H 	0.42492 0.34462 0.87378 0.04800
C 	C 	0.18164 0.55114 0.94656 -0.06300
C 	C 	0.18532 0.52920 0.99161 -0.03100
C 	C 	0.21384 0.51721 0.00510 -0.02200
C 	C 	0.23872 0.52684 0.97339 0.01500
C 	C 	0.23470 0.54663 0.92618 -0.05600
C 	C 	0.20628 0.55875 0.91280 0.00300
C 	C 	0.26856 0.51953 0.99218 -0.03100
C 	C 	0.29381 0.51382 0.00687 -0.01100
C 	C 	0.32425 0.50815 0.02393 0.06700
C 	C 	0.33338 0.51742 0.07681 -0.08700
C 	C 	0.36358 0.51534 0.09161 0.03900
C 	C 	0.38489 0.50406 0.05345 -0.12000
C 	C 	0.37551 0.49389 0.00096 0.07400
C 	C 	0.34531 0.49598 0.98629 -0.11900
H 	H 	0.16647 0.52298 0.01786 0.05600
H 	H 	0.21673 0.50159 0.04137 0.04100
H 	H 	0.25377 0.55379 0.90105 0.04500
H 	H 	0.20363 0.57526 0.87750 0.03700
H 	H 	0.31722 0.52691 0.10611 0.05300
H 	H 	0.37048 0.52325 0.13223 0.01800
H 	H 	0.39160 0.48454 0.97143 0.01500
H 	H 	0.33840 0.48870 0.94537 0.05800
C 	C 	0.75303 0.44183 0.00745 -0.05400
C 	C 	0.73150 0.41760 0.99083 -0.03300
C 	C 	0.70252 0.41844 0.01273 -0.02000
C 	C 	0.69499 0.44334 0.05153 0.01800
C 	C 	0.71675 0.46672 0.06956 -0.05400
C 	C 	0.74564 0.46600 0.04766 0.00100
C 	C 	0.66449 0.44659 0.06990 -0.00900
C 	C 	0.63912 0.44986 0.08590 -0.02700
C 	C 	0.60877 0.45483 0.10403 0.04600
C 	C 	0.59964 0.48721 0.12153 -0.07500
C 	C 	0.56938 0.49341 0.13201 0.02500
C 	C 	0.54799 0.46722 0.12487 -0.10500
C 	C 	0.55749 0.43428 0.11032 0.02500
C 	C 	0.58777 0.42817 0.09977 -0.07400
H 	H 	0.73695 0.39875 0.95999 0.04600
H 	H 	0.68580 0.40021 0.99868 0.02700
H 	H 	0.71112 0.48592 0.09977 0.04400
H 	H 	0.76221 0.48443 0.06157 0.03800
H 	H 	0.61582 0.50790 0.12520 0.04900
H 	H 	0.56244 0.51896 0.14310 0.03000
H 	H 	0.54130 0.41371 0.10539 0.03500
H 	H 	0.59472 0.40298 0.08672 0.05200
C 	C 	0.51041 0.58697 0.04749 -0.09700
C 	C 	0.49559 0.61849 0.04754 0.02100
C 	C 	0.51202 0.64908 0.04616 -0.07300
C 	C 	0.54338 0.64844 0.04479 0.04100
C 	C 	0.55825 0.61704 0.04280 -0.07200
C 	C 	0.54182 0.58637 0.04403 0.02100
C 	C 	0.56025 0.68003 0.04731 -0.02200
C 	C 	0.57394 0.70675 0.04946 -0.02000
C 	C 	0.58991 0.73894 0.05182 0.03800
C 	C 	0.62129 0.73960 0.05178 -0.06600
C 	C 	0.63677 0.77086 0.05043 0.01400
C 	C 	0.62091 0.80178 0.04866 -0.07800
C 	C 	0.58945 0.80098 0.05113 0.01300
C 	C 	0.57404 0.76968 0.05250 -0.06700
H 	H 	0.47137 0.61930 0.04972 0.03300
H 	H 	0.50037 0.67326 0.04719 0.04900
H 	H 	0.58249 0.61635 0.04142 0.04900
H 	H 	0.55355 0.56223 0.04433 0.03400
H 	H 	0.63371 0.71592 0.05185 0.04800
H 	H 	0.66102 0.77097 0.04925 0.04200
H 	H 	0.57689 0.82455 0.05083 0.03700
H 	H 	0.54977 0.76936 0.05319 0.04800
