data_crystal

_cell_length_a 16.77923
_cell_length_b 17.77111
_cell_length_c 38.29362
_cell_angle_alpha 60.71745
_cell_angle_beta  119.05812
_cell_angle_gamma 133.26712

_symmetry_space_group_name_	'P 1'
_symmetry_space_group_name_H-M	'P 1'

loop_
_symmetry_equiv_pos_as_xyz
  x,y,z

loop_
_atom_site_label
_atom_site_type_symbol
_atom_site_fract_x
_atom_site_fract_y
_atom_site_fract_z
_atom_site_charge
C 	C 	0.59974 0.17376 0.01343 0.12300
N 	N 	0.49004 0.11977 0.01215 -0.12800
C 	C 	0.45257 0.17075 0.00938 0.14400
N 	N 	0.52110 0.27776 0.00279 -0.13000
C 	C 	0.63102 0.33296 0.00449 0.13400
N 	N 	0.67030 0.28116 0.00933 -0.13200
C 	C 	0.79297 0.38434 0.49552 0.12900
N 	N 	0.68464 0.34610 0.48840 -0.12900
C 	C 	0.66118 0.40269 0.49084 0.13500
N 	N 	0.74443 0.50474 0.49350 -0.12600
C 	C 	0.19340 0.54445 0.16492 0.13400
N 	N 	0.30305 0.58245 0.17611 -0.12800
C 	C 	0.33307 0.53383 0.17190 0.14300
N 	N 	0.25262 0.44212 0.15927 -0.13200
C 	C 	0.14218 0.40032 0.14961 0.13400
N 	N 	0.11241 0.45194 0.15219 -0.12800
C 	C 	0.35934 0.71954 0.66057 0.13600
N 	N 	0.30622 0.62088 0.65733 -0.13000
C 	C 	0.35631 0.60186 0.64660 0.13600
N 	N 	0.46222 0.68148 0.64040 -0.13400
C 	C 	0.51709 0.78023 0.64440 0.13300
N 	N 	0.46518 0.79903 0.65429 -0.13400
Co	Co	0.00493 0.74948 0.04024 1.17900
C 	C 	0.21378 0.95320 0.05899 0.30400
O 	O 	0.00082 0.05460 0.03235 -0.41900
C 	C 	0.59435 0.72124 0.13276 0.32600
C 	C 	0.01339 0.63186 0.12815 0.34200
O 	O 	0.02173 0.11872 0.10101 -0.35400
O 	O 	0.64993 0.80201 0.14797 -0.38300
O 	O 	0.64343 0.71579 0.11684 -0.38800
O 	O 	0.16403 0.84986 0.07194 -0.39100
O 	O 	0.17140 0.99588 0.05842 -0.38500
Co	Co	0.11416 0.22047 0.55680 1.18900
Co	Co	0.20396 0.14661 0.52746 1.19000
Co	Co	0.23482 0.97603 0.53386 1.16200
C 	C 	0.43030 0.19264 0.54359 0.35200
O 	O 	0.10732 0.17896 0.66885 -0.36200
O 	O 	0.19902 0.26677 0.51819 -0.44300
C 	C 	0.21763 0.37849 0.60079 0.31600
C 	C 	0.80267 0.94410 0.62059 0.29800
C 	C 	0.26497 0.88052 0.62401 0.32100
O 	O 	0.22728 0.86113 0.58839 -0.40800
O 	O 	0.23933 0.92937 0.62931 -0.39100
O 	O 	0.11257 0.34114 0.59359 -0.38600
O 	O 	0.24045 0.33348 0.59139 -0.38600
O 	O 	0.17222 0.02195 0.54949 -0.73800
O 	O 	0.39110 0.09203 0.56051 -0.39100
O 	O 	0.37860 0.22939 0.54020 -0.38600
C 	C 	0.06164 0.04495 0.86460 0.09600
C 	C 	0.04421 0.03189 0.90021 0.15700
C 	C 	0.10210 0.99693 0.76891 0.09100
Br	Br	0.18441 0.18018 0.84121 -0.13500
Br	Br	0.74358 0.72504 0.91578 -0.16800
Br	Br	0.21070 0.98739 0.76957 -0.17300
Br	Br	0.13851 0.15030 0.92441 -0.16600
Br	Br	0.79837 0.74376 0.83740 -0.15600
Br	Br	0.13968 0.89785 0.85665 -0.15500
C 	C 	0.04540 0.90970 0.31168 0.07500
C 	C 	0.12713 0.08833 0.35088 0.09400
C 	C 	0.16556 0.13231 0.38274 0.11600
Br	Br	0.17475 0.91682 0.35298 -0.16500
Br	Br	0.29868 0.27613 0.38394 -0.16400
Br	Br	0.09323 0.86489 0.26346 -0.17100
Br	Br	0.19424 0.17788 0.30413 -0.13800
C 	C 	0.29504 0.49350 0.64277 -0.01400
C 	C 	0.30929 0.47661 0.61611 -0.11300
H 	H 	0.22507 0.42787 0.65759 0.07100
H 	H 	0.38232 0.53852 0.60285 0.08700
C 	C 	0.68367 0.85893 0.62344 -0.11200
C 	C 	0.63452 0.86645 0.63975 -0.02100
H 	H 	0.63624 0.78936 0.61231 0.08800
H 	H 	0.68109 0.93786 0.64951 0.06800
C 	C 	0.33239 0.84310 0.65801 -0.12000
C 	C 	0.29471 0.74251 0.66489 -0.00800
H 	H 	0.42167 0.90256 0.66825 0.09100
H 	H 	0.20525 0.67976 0.66319 0.06400
C 	C 	0.05474 0.30301 0.13365 0.00400
C 	C 	0.08214 0.26027 0.12401 -0.09300
H 	H 	0.16986 0.29695 0.12793 0.09100
C 	C 	0.47827 0.63195 0.13652 -0.11900
C 	C 	0.45002 0.59227 0.17198 -0.01400
H 	H 	0.41366 0.60353 0.10933 0.08600
H 	H 	0.51493 0.61556 0.19972 0.08200
C 	C 	0.16805 0.61937 0.15398 -0.00700
C 	C 	0.07580 0.58750 0.16029 -0.12300
H 	H 	0.21740 0.69894 0.13515 0.05500
H 	H 	0.03298 0.51347 0.18265 0.09900
H 	H 	0.76453 0.22978 0.53211 0.05800
C 	C 	0.55834 0.34534 0.50344 0.01000
C 	C 	0.53218 0.26003 0.53584 -0.17100
H 	H 	0.50543 0.37318 0.48674 0.06500
H 	H 	0.58668 0.23403 0.55124 0.10200
C 	C 	0.64750 0.11278 0.03455 0.02200
C 	C 	0.69003 0.10430 0.01526 -0.19200
H 	H 	0.63836 0.06592 0.06590 0.03400
C 	C 	0.68848 0.47348 0.02946 -0.13600
H 	H 	0.61630 0.41447 0.04320 0.09900
C 	C 	0.34874 0.10981 0.02222 -0.01700
C 	C 	0.31359 0.01543 0.05015 -0.10100
H 	H 	0.30452 0.14509 0.01042 0.07800
H 	H 	0.35842 0.98119 0.06105 0.07000
O 	O 	0.04004 0.87219 0.98726 -0.38500
O 	O 	0.66791 0.95296 0.06472 -0.41200
Co	Co	0.10523 0.93826 0.58768 1.18300
C 	C 	0.16627 0.09718 0.45424 0.33900
O 	O 	0.24772 0.08600 0.47725 -0.38500
O 	O 	0.13439 0.12611 0.46799 -0.35200
C 	C 	0.10669 0.07074 0.41394 -0.08800
C 	C 	0.07534 0.96233 0.80617 0.07400
C 	C 	0.71042 0.44245 0.00951 -0.00500
C 	C 	0.71234 0.03127 0.03363 0.37100
H 	H 	0.71231 0.16026 0.98617 0.12300
Br	Br	0.68175 0.80364 0.23211 -0.20400
C 	C 	0.08725 0.08718 0.69273 0.32100
O 	O 	0.08490 0.02714 0.68036 -0.34400
O 	O 	0.08083 0.06718 0.56411 -0.56300
O 	O 	0.07041 0.86118 0.51192 -0.38600
C 	C 	0.05703 0.04695 0.73216 -0.06100
C 	C 	0.03692 0.97938 0.35271 0.00900
O 	O 	0.75314 0.59376 0.06290 -0.37700
C 	C 	0.76399 0.57533 0.03601 0.33000
Co	Co	0.77105 0.95963 0.12287 1.17000
O 	O 	0.04223 0.13299 0.59419 -0.74400
C 	C 	0.00579 0.87935 0.27539 0.13400
H 	H 	0.02278 0.70019 0.50175 0.06900
H 	H 	0.78920 0.49660 0.00014 0.05500
O 	O 	0.78943 0.04613 0.02382 -0.37700
Co	Co	0.02100 0.01278 0.61907 1.19900
O 	O 	0.02778 0.89407 0.62847 -0.45400
C 	C 	0.00554 0.96896 0.41110 0.11000
O 	O 	0.00654 0.26942 0.51582 -0.35000
C 	C 	0.00159 0.78469 0.53693 0.35700
C 	C 	0.00210 0.97559 0.80664 0.02000
O 	O 	0.00004 0.68735 0.13552 -0.38100
O 	O 	0.81303 0.67741 0.13770 -0.45000
Co	Co	0.99988 0.93111 0.04039 1.17700
C 	C 	0.99378 0.16239 0.10850 0.28000
C 	C 	0.81719 0.30539 0.51239 -0.00200
O 	O 	0.97702 0.62101 0.09100 -0.42500
C 	C 	0.97396 0.90267 0.96339 0.33900
Br	Br	0.83432 0.01674 0.76896 -0.14400
C 	C 	0.85297 0.54608 0.49926 0.14000
O 	O 	0.95296 0.80141 0.05806 -0.76300
O 	O 	0.86522 0.02278 0.63824 -0.36600
O 	O 	0.84895 0.93071 0.60651 -0.39300
Br	Br	0.81703 0.96315 0.29345 -0.16600
H 	H 	0.96679 0.26650 0.12929 0.04600
H 	H 	0.85622 0.62251 0.54663 0.10100
O 	O 	0.94046 0.92649 0.97892 -0.36800
C 	C 	0.95845 0.93181 0.91854 -0.15000
N 	N 	0.87767 0.48563 0.50054 -0.13300
O 	O 	0.88595 0.17869 0.55695 -0.39000
Co	Co	0.90303 0.00551 0.06655 1.18800
Br	Br	0.86836 0.76667 0.39178 -0.16100
Br	Br	0.89573 0.90617 0.43888 -0.19300
C 	C 	0.89829 0.32208 0.50364 -0.15400
C 	C 	0.92720 0.68081 0.53226 -0.14700
C 	C 	0.92861 0.25449 0.52517 0.32000
O 	O 	0.88654 0.96470 0.17820 -0.38800
O 	O 	0.88731 0.12102 0.10098 -0.39100
H 	H 	0.94209 0.39203 0.48033 0.10100
C 	C 	0.94366 0.64910 0.51049 -0.01200
Br	Br	0.95464 0.16296 0.69018 -0.26600
C 	C 	0.88649 0.91454 0.29039 0.06700
C 	C 	0.95067 0.01732 0.76970 0.07500
C 	C 	0.88514 0.88044 0.20296 0.33000
O 	O 	0.88870 0.82556 0.18981 -0.36700
O 	O 	0.98763 0.80668 0.56150 -0.39000
C 	C 	0.90338 0.86230 0.24761 -0.12300
C 	C 	0.98937 0.93433 0.31765 -0.00100
Co	Co	0.87927 0.71557 0.09433 1.18900
Co	Co	0.81527 0.80062 0.12980 1.18800
O 	O 	0.83088 0.91758 0.10391 -0.76100
O 	O 	0.87345 0.85406 0.07477 -0.58900
O 	O 	0.83827 0.65302 0.01311 -0.38100
Co	Co	0.99139 0.18064 0.61455 1.17300
C 	C 	0.87911 0.85030 0.89745 0.12200
C 	C 	0.89776 0.86157 0.86255 0.07100
C 	C 	0.99006 0.95873 0.84630 -0.02400
C 	C 	0.98665 0.06332 0.73371 0.10000
C 	C 	0.83770 0.86534 0.25916 0.12000
C 	C 	0.97963 0.91861 0.38437 0.05600
