data_crystal

_cell_length_a 21.77569
_cell_length_b 23.46107
_cell_length_c 31.62819
_cell_angle_alpha 61.01858
_cell_angle_beta  118.65959
_cell_angle_gamma 133.27873

_symmetry_space_group_name_	'P 1'
_symmetry_space_group_name_H-M	'P 1'

loop_
_symmetry_equiv_pos_as_xyz
  x,y,z

loop_
_atom_site_label
_atom_site_type_symbol
_atom_site_fract_x
_atom_site_fract_y
_atom_site_fract_z
_atom_site_charge
C 	C 	0.23434 0.63416 0.20064 0.14200
N 	N 	0.31851 0.68880 0.19726 -0.12700
C 	C 	0.35374 0.67042 0.18488 0.14900
N 	N 	0.30581 0.59769 0.17630 -0.13100
C 	C 	0.22330 0.54124 0.18144 0.14300
N 	N 	0.18615 0.55909 0.19333 -0.12800
C 	C 	0.26506 0.65086 0.68684 0.14000
N 	N 	0.35154 0.69162 0.69354 -0.12600
C 	C 	0.38037 0.66345 0.68448 0.14800
N 	N 	0.32363 0.59502 0.66893 -0.13200
C 	C 	0.23795 0.55165 0.66415 0.14200
N 	N 	0.20742 0.57941 0.67277 -0.12700
Co	Co	0.05977 0.02490 0.06358 1.16000
Co	Co	0.00850 0.08836 0.10826 1.17900
C 	C 	0.23234 0.08248 0.06625 0.32800
Co	Co	0.10168 0.90716 0.07758 1.19800
O 	O 	0.05849 0.11671 0.05433 -0.45500
C 	C 	0.10573 0.19271 0.18220 0.31400
C 	C 	0.14788 0.86387 0.18497 0.31400
O 	O 	0.01391 0.89845 0.00993 -0.37500
O 	O 	0.05622 0.13202 0.21352 -0.35800
O 	O 	0.11231 0.17947 0.14816 -0.36900
O 	O 	0.18168 0.92067 0.14703 -0.35900
O 	O 	0.09008 0.85615 0.19589 -0.35300
O 	O 	0.04406 0.93506 0.09450 -0.71400
C 	C 	0.95731 0.95430 0.27635 0.39100
O 	O 	0.18714 0.02472 0.04480 -0.41900
O 	O 	0.19394 0.08908 0.08384 -0.40700
Co	Co	0.03878 0.00532 0.55891 1.15500
Co	Co	0.97304 0.05234 0.60571 1.15200
C 	C 	0.20822 0.08721 0.54378 0.34800
Co	Co	0.10377 0.91083 0.56532 1.19000
O 	O 	0.01318 0.08159 0.54696 -0.45800
C 	C 	0.03612 0.18681 0.64085 0.33600
C 	C 	0.19341 0.89743 0.66909 0.31800
O 	O 	0.99420 0.87710 0.50882 -0.36200
O 	O 	0.95781 0.13955 0.64747 -0.41200
O 	O 	0.06171 0.16138 0.62742 -0.38900
O 	O 	0.20696 0.94607 0.62533 -0.36000
O 	O 	0.14706 0.89095 0.68931 -0.35400
O 	O 	0.04693 0.92759 0.59238 -0.71500
C 	C 	0.02511 0.00347 0.78020 0.23500
O 	O 	0.16292 0.02844 0.52293 -0.41400
O 	O 	0.17100 0.08795 0.56596 -0.41100
C 	C 	0.08033 0.97801 0.87445 0.25700
C 	C 	0.08411 0.97587 0.92120 0.28800
F 	F 	0.14252 0.96719 0.96177 -0.38900
F 	F 	0.13683 0.97397 0.87081 -0.36400
C 	C 	0.04078 0.01314 0.35053 0.21100
C 	C 	0.03722 0.01191 0.39465 0.21000
F 	F 	0.09682 0.07961 0.41196 -0.39500
F 	F 	0.10068 0.08330 0.32499 -0.39800
C 	C 	0.08707 0.27027 0.64058 -0.09200
C 	C 	0.11807 0.33573 0.64317 0.07400
C 	C 	0.14991 0.40928 0.64869 0.00900
C 	C 	0.18269 0.47286 0.65506 -0.00900
C 	C 	0.23544 0.68847 0.68981 -0.00500
C 	C 	0.21994 0.72828 0.69144 0.01300
C 	C 	0.20845 0.78219 0.69049 0.07700
C 	C 	0.20128 0.83273 0.68486 -0.08600
C 	C 	0.18032 0.46105 0.17890 -0.01000
C 	C 	0.15928 0.39948 0.17647 0.01200
C 	C 	0.14384 0.33094 0.17480 0.07200
C 	C 	0.13042 0.27086 0.17594 -0.08200
C 	C 	0.19509 0.66045 0.20617 -0.00700
C 	C 	0.17331 0.69439 0.20867 0.01200
C 	C 	0.15746 0.74498 0.20768 0.07400
C 	C 	0.15017 0.79563 0.20151 -0.08400
C 	C 	0.30004 0.13218 0.55588 -0.11300
C 	C 	0.37567 0.16274 0.56491 0.07900
C 	C 	0.46215 0.19359 0.57425 -0.00300
C 	C 	0.31995 0.14475 0.06194 -0.10600
C 	C 	0.38945 0.18727 0.05271 0.07200
C 	C 	0.46522 0.22946 0.03784 0.00000
C 	C 	0.72914 0.33218 0.01246 0.13200
N 	N 	0.64351 0.28342 0.01220 -0.13500
C 	C 	0.60651 0.31559 0.00745 0.13800
N 	N 	0.65358 0.39593 0.00002 -0.13400
C 	C 	0.74066 0.44180 0.00926 0.13800
N 	N 	0.77943 0.41050 0.01469 -0.13100
C 	C 	0.73470 0.27285 0.57727 0.13700
N 	N 	0.64981 0.23059 0.57554 -0.13600
C 	C 	0.62543 0.25686 0.59017 0.14000
N 	N 	0.68528 0.32499 0.60633 -0.13300
C 	C 	0.76880 0.37086 0.60481 0.14000
N 	N 	0.79458 0.34472 0.59069 -0.13000
Co	Co	0.92781 0.92914 0.18073 1.20600
Co	Co	0.99226 0.87101 0.14241 1.18100
Co	Co	0.92506 0.06225 0.18471 1.15000
C 	C 	0.93709 0.74925 0.09911 0.31400
O 	O 	0.94485 0.15987 0.12496 -0.41700
O 	O 	0.95434 0.02296 0.15491 -0.80800
C 	C 	0.90921 0.15286 0.07948 0.32000
O 	O 	0.92581 0.83604 0.18904 -0.43700
C 	C 	0.75992 0.90680 0.16470 0.31600
O 	O 	0.97355 0.96911 0.11353 -0.53800
C 	C 	0.02102 0.96385 0.97737 0.45500
O 	O 	0.92173 0.11981 0.06314 -0.38900
O 	O 	0.02304 0.01315 0.98970 -0.39900
O 	O 	0.79907 0.98550 0.15132 -0.34100
O 	O 	0.79605 0.87424 0.17005 -0.34800
O 	O 	0.90157 0.97067 0.24881 -0.36700
O 	O 	0.98768 0.94310 0.25525 -0.34200
O 	O 	0.02003 0.78608 0.10871 -0.38700
O 	O 	0.90715 0.77332 0.10982 -0.36900
Co	Co	0.96214 0.92204 0.69815 1.18600
Co	Co	0.02733 0.87477 0.65073 1.19000
Co	Co	0.90281 0.02262 0.69109 1.15100
C 	C 	0.97204 0.74270 0.61596 0.31500
O 	O 	0.79791 0.98563 0.63210 -0.29700
O 	O 	0.94985 0.99728 0.66311 -0.70300
C 	C 	0.80950 0.03466 0.58803 0.23000
O 	O 	0.99129 0.84801 0.71069 -0.44100
C 	C 	0.79880 0.84500 0.72074 0.32100
O 	O 	0.97697 0.94884 0.62260 -0.54900
C 	C 	0.98412 0.93247 0.47423 0.36800
O 	O 	0.85869 0.04628 0.56699 -0.37100
O 	O 	0.98681 0.98220 0.48639 -0.30000
O 	O 	0.84602 0.90825 0.73763 -0.33400
O 	O 	0.83300 0.83652 0.70134 -0.37100
O 	O 	0.01560 0.05887 0.74528 -0.35300
O 	O 	0.02607 0.95592 0.76833 -0.26800
O 	O 	0.04931 0.79242 0.60700 -0.38000
O 	O 	0.94718 0.76372 0.63366 -0.37100
C 	C 	0.02003 0.98627 0.83178 -0.10000
C 	C 	0.96376 0.99284 0.83684 0.30200
C 	C 	0.96763 0.99069 0.88350 0.27200
C 	C 	0.02763 0.98219 0.92613 -0.18000
F 	F 	0.91127 0.99492 0.88713 -0.36400
F 	F 	0.90583 0.00242 0.79637 -0.48400
C 	C 	0.91909 0.87188 0.35919 0.26600
C 	C 	0.98006 0.94365 0.33146 -0.12600
C 	C 	0.97364 0.94084 0.42108 -0.11900
C 	C 	0.91491 0.87077 0.40290 0.26200
F 	F 	0.85410 0.80080 0.42799 -0.38100
F 	F 	0.85956 0.80406 0.34197 -0.38700
C 	C 	0.47081 0.70344 0.69321 -0.00700
C 	C 	0.54522 0.73235 0.69953 0.01700
C 	C 	0.63175 0.76531 0.70641 0.08300
C 	C 	0.70716 0.79760 0.71256 -0.08200
C 	C 	0.44220 0.72660 0.18183 -0.00700
C 	C 	0.51556 0.76877 0.17833 0.02100
C 	C 	0.60028 0.81494 0.17357 0.08000
C 	C 	0.67281 0.85506 0.16936 -0.07100
C 	C 	0.76137 0.23584 0.57108 -0.02000
C 	C 	0.77621 0.19704 0.56781 0.00500
C 	C 	0.78839 0.14469 0.56779 0.04800
C 	C 	0.79743 0.09591 0.57301 -0.08400
C 	C 	0.92437 0.65960 0.61760 -0.08100
C 	C 	0.89306 0.59328 0.61669 0.07200
C 	C 	0.85895 0.51762 0.61364 0.01200
C 	C 	0.82422 0.45187 0.60991 -0.01200
C 	C 	0.53607 0.22027 0.58164 -0.01600
C 	C 	0.76774 0.29826 0.01548 -0.01800
C 	C 	0.79749 0.26613 0.02012 -0.00400
C 	C 	0.83269 0.22570 0.03067 0.06000
C 	C 	0.86548 0.19090 0.04719 -0.10500
C 	C 	0.88074 0.68024 0.07898 -0.08800
C 	C 	0.84808 0.62617 0.06205 0.06900
C 	C 	0.81783 0.56532 0.04287 0.00700
C 	C 	0.78886 0.51150 0.02707 -0.01500
C 	C 	0.52866 0.26559 0.02374 -0.01800
