data_crystal

_cell_length_a 26.19068
_cell_length_b 26.16279
_cell_length_c 26.27082
_cell_angle_alpha 95.49831
_cell_angle_beta  95.49532
_cell_angle_gamma 125.83557

_symmetry_space_group_name_	'P 1'
_symmetry_space_group_name_H-M	'P 1'

loop_
_symmetry_equiv_pos_as_xyz
  x,y,z

loop_
_atom_site_label
_atom_site_type_symbol
_atom_site_fract_x
_atom_site_fract_y
_atom_site_fract_z
_atom_site_charge
C 	C 	0.00815 0.06486 0.00453 0.11500
N 	N 	0.07227 0.10384 0.00519 -0.13700
C 	C 	0.10421 0.07816 0.99884 0.12500
N 	N 	0.07222 0.01370 0.99223 -0.13300
C 	C 	0.00817 0.97469 0.99123 0.10600
C 	C 	0.10207 0.02158 0.51631 -0.02400
C 	C 	0.06529 0.01382 0.46973 -0.03000
C 	C 	0.09560 0.04214 0.42843 0.03000
H 	H 	0.07877 0.99982 0.54810 0.03700
S 	S 	0.05050 0.03179 0.36892 -0.03900
H 	H 	0.04164 0.07860 0.37164 0.03800
H 	H 	0.00517 0.30382 0.02628 0.03200
S 	S 	0.14019 0.11531 0.89339 -0.03800
H 	H 	0.11492 0.05471 0.86818 0.04100
S 	S 	0.00128 0.90790 0.88477 -0.05100
C 	C 	0.16222 0.07784 0.43416 -0.05900
N 	N 	0.97621 0.00031 0.99784 -0.12900
C 	C 	0.90099 0.96767 0.45358 0.12300
N 	N 	0.96592 0.00374 0.46335 -0.13300
C 	C 	0.99534 0.97500 0.46409 0.11800
N 	N 	0.95982 0.91010 0.45589 -0.13900
C 	C 	0.89483 0.87374 0.44648 0.12400
N 	N 	0.86529 0.90253 0.44478 -0.13700
Cu	Cu	0.67389 0.27525 0.01270 0.92900
Cu	Cu	0.71047 0.25341 0.90080 0.87500
Cu	Cu	0.72163 0.37112 0.93874 0.90000
Cu	Cu	0.70175 0.41063 0.04333 0.90000
C 	C 	0.68250 0.32328 0.11708 0.30400
O 	O 	0.58452 0.24962 0.01368 -0.36100
C 	C 	0.68573 0.31262 0.82704 0.30700
O 	O 	0.73796 0.37437 0.01193 -0.63700
O 	O 	0.66432 0.27652 0.93747 -0.64100
O 	O 	0.70219 0.21920 0.01364 -0.36400
O 	O 	0.77084 0.26981 0.95837 -0.43800
O 	O 	0.70391 0.38202 0.11114 -0.36500
O 	O 	0.78148 0.46317 0.94521 -0.37500
C 	C 	0.78090 0.50517 0.97678 0.29700
C 	C 	0.56808 0.28589 0.00025 0.29600
O 	O 	0.61138 0.34196 0.98949 -0.38100
O 	O 	0.73985 0.48706 0.00892 -0.38900
O 	O 	0.69433 0.28968 0.08659 -0.36200
C 	C 	0.75210 0.23328 0.99360 0.29400
O 	O 	0.71896 0.36572 0.86295 -0.38200
O 	O 	0.67221 0.25822 0.83778 -0.40200
H 	H 	0.78366 0.39592 0.02677 0.16900
H 	H 	0.61976 0.25547 0.91948 0.18300
Cu	Cu	0.67482 0.28657 0.41960 0.92500
Cu	Cu	0.72820 0.28839 0.53885 0.88500
Cu	Cu	0.59930 0.28039 0.50386 0.91100
Cu	Cu	0.54732 0.27728 0.39366 0.89700
C 	C 	0.61063 0.25759 0.31476 0.29800
O 	O 	0.71278 0.37566 0.40463 -0.36200
C 	C 	0.65384 0.29668 0.60708 0.31200
O 	O 	0.58014 0.24225 0.43229 -0.63700
O 	O 	0.68973 0.31864 0.49530 -0.62800
O 	O 	0.70964 0.23557 0.41923 -0.35400
O 	O 	0.78287 0.29405 0.49435 -0.41600
O 	O 	0.55695 0.24600 0.32573 -0.37900
O 	O 	0.51077 0.23653 0.51050 -0.37300
C 	C 	0.46686 0.22876 0.47455 0.29300
C 	C 	0.68486 0.40352 0.41214 0.28900
O 	O 	0.63090 0.37374 0.42968 -0.38400
O 	O 	0.48308 0.26290 0.43724 -0.38700
O 	O 	0.64610 0.24953 0.34704 -0.34000
C 	C 	0.75873 0.24955 0.45270 0.29500
O 	O 	0.62359 0.31254 0.57794 -0.37200
O 	O 	0.66760 0.25976 0.58552 -0.41900
H 	H 	0.55201 0.19473 0.42593 0.16500
H 	H 	0.71640 0.36608 0.50359 0.16700
C 	C 	0.72880 0.35729 0.74950 -0.03800
C 	C 	0.67556 0.31727 0.77223 -0.08700
C 	C 	0.61393 0.27633 0.74085 0.12300
C 	C 	0.60675 0.27242 0.68682 -0.03200
C 	C 	0.66065 0.30901 0.66384 -0.09400
C 	C 	0.72165 0.35308 0.69549 0.12200
Br	Br	0.79587 0.40713 0.66552 -0.29400
H 	H 	0.77620 0.38970 0.77360 0.06400
H 	H 	0.55949 0.23948 0.66259 0.06600
Br	Br	0.53910 0.22596 0.77114 -0.25000
C 	C 	0.68095 0.27124 0.19226 -0.03500
C 	C 	0.66072 0.30252 0.16600 -0.08200
C 	C 	0.61810 0.31190 0.18585 0.12500
C 	C 	0.60141 0.29597 0.23388 -0.04300
C 	C 	0.62354 0.26698 0.26135 -0.07900
C 	C 	0.66033 0.25081 0.23845 0.12300
Br	Br	0.67431 0.19265 0.26402 -0.21600
H 	H 	0.71137 0.26117 0.17606 0.07500
H 	H 	0.57070 0.30583 0.24975 0.06000
Br	Br	0.57749 0.34095 0.14611 -0.27200
C 	C 	0.71638 0.55671 0.38178 -0.07500
C 	C 	0.77444 0.60292 0.41612 0.01900
C 	C 	0.80622 0.58350 0.44540 -0.00700
C 	C 	0.77822 0.51805 0.44170 0.00100
C 	C 	0.71882 0.47171 0.40889 -0.09300
C 	C 	0.68893 0.49140 0.37746 0.06100
C 	C 	0.80141 0.67153 0.42138 0.00300
S 	S 	0.88094 0.64061 0.48672 -0.03100
H 	H 	0.80172 0.50314 0.46548 0.03800
S 	S 	0.61851 0.43491 0.33114 -0.06900
H 	H 	0.69273 0.57166 0.35824 0.05600
C 	C 	0.83868 0.70847 0.38612 0.00700
C 	C 	0.86577 0.77387 0.39297 -0.03300
C 	C 	0.85686 0.80324 0.43515 -0.02900
C 	C 	0.81810 0.76587 0.46964 0.02900
C 	C 	0.79021 0.70020 0.46230 -0.05800
S 	S 	0.85314 0.67376 0.33408 -0.03800
H 	H 	0.89538 0.80242 0.36630 0.04800
S 	S 	0.80642 0.80112 0.52339 -0.03700
H 	H 	0.76098 0.67166 0.48913 0.05200
H 	H 	0.63478 0.42825 0.28423 0.04900
H 	H 	0.80474 0.64848 0.29199 0.03800
H 	H 	0.85474 0.82348 0.56485 0.03800
H 	H 	0.92885 0.65957 0.45877 0.03900
C 	C 	0.74872 0.09883 0.44987 -0.07500
C 	C 	0.81197 0.12253 0.44720 0.01800
C 	C 	0.85753 0.18789 0.44523 -0.00700
C 	C 	0.83946 0.22886 0.44648 0.00400
C 	C 	0.77631 0.20529 0.44974 -0.09800
C 	C 	0.73084 0.13987 0.45200 0.06300
C 	C 	0.83074 0.07917 0.44898 0.00900
S 	S 	0.93749 0.21916 0.44222 -0.03000
H 	H 	0.87461 0.27913 0.44515 0.04200
S 	S 	0.65249 0.10952 0.46049 -0.08300
H 	H 	0.71380 0.04870 0.45178 0.05700
C 	C 	0.84909 0.06910 0.49700 0.00100
C 	C 	0.86814 0.02909 0.49790 -0.01800
C 	C 	0.86971 0.99940 0.45135 -0.05000
C 	C 	0.84971 0.00809 0.40329 0.05000
C 	C 	0.82998 0.04756 0.40235 -0.06600
S 	S 	0.84989 0.10754 0.55621 -0.04000
H 	H 	0.88366 0.02260 0.53491 0.04500
S 	S 	0.85111 0.97145 0.34415 -0.05200
H 	H 	0.81513 0.05465 0.36538 0.05800
H 	H 	0.61364 0.08822 0.41274 0.05300
H 	H 	0.79053 0.07043 0.56931 0.03700
H 	H 	0.91023 0.01095 0.33115 0.04600
H 	H 	0.97171 0.23774 0.49174 0.03800
C 	C 	0.30904 0.18758 0.50157 -0.07500
C 	C 	0.26888 0.12082 0.48477 0.01800
C 	C 	0.29514 0.08920 0.46886 -0.00700
C 	C 	0.36071 0.12490 0.46799 -0.00300
C 	C 	0.40029 0.19193 0.48236 -0.09200
C 	C 	0.37460 0.22328 0.50057 0.06100
C 	C 	0.19896 0.08503 0.48052 0.00500
S 	S 	0.24625 0.00513 0.44936 -0.02700
H 	H 	0.38066 0.10067 0.45474 0.03100
S 	S 	0.42409 0.30696 0.52276 -0.03900
H 	H 	0.28902 0.21179 0.51463 0.05500
C 	C 	0.16874 0.05718 0.52199 0.00300
S 	S 	0.21384 0.06641 0.58099 -0.03300
H 	H 	0.18549 0.09933 0.40228 0.05200
H 	H 	0.44821 0.32039 0.57485 0.04500
H 	H 	0.23377 0.12169 0.61320 0.03900
H 	H 	0.24233 0.97777 0.49215 0.03200
C 	C 	0.91560 0.68061 0.98595 -0.07300
C 	C 	0.88131 0.70286 0.96735 0.01800
C 	C 	0.81528 0.65875 0.94643 -0.00600
C 	C 	0.78355 0.59350 0.94716 0.00200
C 	C 	0.81707 0.57167 0.96853 -0.08900
C 	C 	0.88379 0.61526 0.98677 0.05700
C 	C 	0.91375 0.77260 0.97364 0.00400
S 	S 	0.77148 0.68498 0.92085 -0.03200
H 	H 	0.73234 0.55985 0.93247 0.04300
S 	S 	0.92751 0.58905 0.01253 -0.05200
H 	H 	0.96661 0.71445 0.00139 0.05400
C 	C 	0.91579 0.80707 0.01945 0.00700
C 	C 	0.94568 0.87290 0.02432 -0.03700
C 	C 	0.97371 0.90486 0.98394 -0.02400
C 	C 	0.97069 0.87015 0.93772 0.03200
C 	C 	0.94121 0.80438 0.93303 -0.05900
S 	S 	0.88111 0.76827 0.07091 -0.04100
H 	H 	0.94783 0.89948 0.05982 0.04700
H 	H 	0.93889 0.77771 0.89752 0.05400
H 	H 	0.92721 0.59065 0.06478 0.03400
H 	H 	0.92511 0.76776 0.10311 0.03700
H 	H 	0.95503 0.90678 0.85430 0.04000
H 	H 	0.75020 0.70156 0.96024 0.03800
C 	C 	0.92670 0.14184 0.97322 -0.05800
C 	C 	0.89972 0.13825 0.01757 0.00200
C 	C 	0.90982 0.11193 0.05823 0.00900
C 	C 	0.94627 0.08902 0.05392 -0.03500
C 	C 	0.97291 0.09225 0.00941 -0.02300
C 	C 	0.96312 0.11896 0.96888 0.02700
C 	C 	0.85993 0.16108 0.02043 0.01900
S 	S 	0.87748 0.10781 0.11476 -0.03000
H 	H 	0.95371 0.06844 0.08510 0.04900
S 	S 	0.99429 0.12202 0.91180 -0.03300
H 	H 	0.91889 0.16204 0.94191 0.04800
C 	C 	0.88851 0.22656 0.03763 -0.01000
C 	C 	0.85160 0.24906 0.03200 0.00300
C 	C 	0.78625 0.20679 0.00944 -0.09700
C 	C 	0.75681 0.14057 0.99540 0.05600
C 	C 	0.79379 0.11813 0.00102 -0.07500
S 	S 	0.97070 0.28098 0.06516 -0.03000
H 	H 	0.87418 0.29986 0.04353 0.03700
S 	S 	0.67452 0.08579 0.96823 -0.04600
H 	H 	0.77156 0.06755 0.98856 0.05700
H 	H 	0.95181 0.06535 0.87726 0.03900
H 	H 	0.66621 0.08141 0.91528 0.02300
H 	H 	0.91966 0.16400 0.14992 0.04100
C 	C 	0.25917 0.16620 0.94830 -0.06000
C 	C 	0.30278 0.18107 0.99290 0.00600
C 	C 	0.28186 0.16789 0.04066 0.00600
C 	C 	0.21711 0.13727 0.04277 -0.03200
C 	C 	0.17295 0.11970 0.99767 -0.02900
C 	C 	0.19436 0.13542 0.95041 0.03100
C 	C 	0.36966 0.20803 0.98886 0.01900
S 	S 	0.33596 0.18786 0.09769 -0.02600
H 	H 	0.20072 0.12542 0.07919 0.04700
H 	H 	0.27541 0.17713 0.91171 0.05200
C 	C 	0.38746 0.16746 0.97723 -0.00500
C 	C 	0.45204 0.19378 0.97862 0.00200
C 	C 	0.49966 0.26049 0.99226 -0.08500
C 	C 	0.48110 0.30137 0.00150 0.06400
C 	C 	0.41630 0.27466 0.99939 -0.07000
S 	S 	0.32938 0.08352 0.96171 -0.02900
H 	H 	0.46537 0.16217 0.96990 0.04600
S 	S 	0.53770 0.38567 0.01608 -0.04600
H 	H 	0.40229 0.30582 0.00742 0.05700
H 	H 	0.30558 0.06533 0.90925 0.03900
H 	H 	0.55144 0.40729 0.06865 0.04900
H 	H 	0.34069 0.13871 0.10049 0.04300
