data_crystal

_cell_length_a 26.08866
_cell_length_b 26.32456
_cell_length_c 34.75001
_cell_angle_alpha 95.45899
_cell_angle_beta  95.45551
_cell_angle_gamma 125.71115

_symmetry_space_group_name_	'P 1'
_symmetry_space_group_name_H-M	'P 1'

loop_
_symmetry_equiv_pos_as_xyz
  x,y,z

loop_
_atom_site_label
_atom_site_type_symbol
_atom_site_fract_x
_atom_site_fract_y
_atom_site_fract_z
_atom_site_charge
C 	C 	0.95357 0.03351 0.98379 0.16100
N 	N 	0.91695 0.97141 0.98751 -0.04700
C 	C 	0.94056 0.93728 0.98385 0.18700
N 	N 	0.00117 0.96555 0.97698 -0.04700
C 	C 	0.03712 0.02708 0.97193 0.17800
N 	N 	0.01327 0.06103 0.97547 -0.07900
C 	C 	0.95134 0.99216 0.47021 0.22900
N 	N 	0.01484 0.03103 0.46872 -0.07100
C 	C 	0.05037 0.00879 0.47149 0.18400
N 	N 	0.02209 0.94725 0.47484 -0.06400
C 	C 	0.95891 0.90859 0.47728 0.17900
N 	N 	0.92406 0.93179 0.47618 -0.07300
Cu	Cu	0.62555 0.24798 0.99852 0.94800
Cu	Cu	0.68785 0.26603 0.91865 0.91800
Cu	Cu	0.66468 0.35743 0.95489 0.92900
Cu	Cu	0.61431 0.35624 0.02983 0.92700
C 	C 	0.62979 0.27917 0.08084 0.30300
O 	O 	0.52999 0.20437 0.99360 -0.28900
C 	C 	0.65826 0.32913 0.86897 0.31400
O 	O 	0.67247 0.34661 0.00836 -0.63500
O 	O 	0.62425 0.26410 0.94419 -0.63000
O 	O 	0.66741 0.20486 0.99470 -0.29000
O 	O 	0.74382 0.27740 0.96345 -0.32800
O 	O 	0.59871 0.30301 0.07108 -0.30700
O 	O 	0.70744 0.44811 0.96922 -0.28300
C 	C 	0.69933 0.47613 0.99915 0.31200
C 	C 	0.50304 0.22982 0.97949 0.29100
O 	O 	0.53844 0.29129 0.97965 -0.29500
O 	O 	0.65123 0.44300 0.01802 -0.30600
O 	O 	0.64112 0.24990 0.05378 -0.26600
C 	C 	0.72407 0.23281 0.98474 0.30600
O 	O 	0.67443 0.37169 0.90038 -0.29800
O 	O 	0.65260 0.27664 0.87210 -0.30700
H 	H 	0.71702 0.37418 0.02351 0.24400
H 	H 	0.58113 0.23818 0.92728 0.25300
Cu	Cu	0.74728 0.32765 0.45285 0.94800
Cu	Cu	0.74248 0.27539 0.53554 0.91300
Cu	Cu	0.64520 0.29371 0.50310 0.92400
Cu	Cu	0.63289 0.33451 0.42656 0.93100
C 	C 	0.70047 0.31196 0.37105 0.30500
O 	O 	0.79080 0.42211 0.45555 -0.25100
C 	C 	0.68904 0.31335 0.58856 0.31000
O 	O 	0.64785 0.28051 0.44840 -0.63400
O 	O 	0.73932 0.33478 0.50873 -0.62700
O 	O 	0.79002 0.28509 0.45476 -0.28600
O 	O 	0.72283 0.21504 0.49111 -0.33600
O 	O 	0.67853 0.34440 0.38170 -0.28200
O 	O 	0.55313 0.24961 0.49373 -0.28700
C 	C 	0.52064 0.25601 0.46553 0.31100
C 	C 	0.76463 0.44915 0.46821 0.28900
O 	O 	0.70459 0.41357 0.47287 -0.33100
O 	O 	0.55009 0.30147 0.44463 -0.30400
O 	O 	0.73746 0.30722 0.39684 -0.24900
C 	C 	0.76340 0.23068 0.46696 0.30500
O 	O 	0.64047 0.29058 0.55929 -0.29900
O 	O 	0.73969 0.31589 0.58295 -0.33100
H 	H 	0.61900 0.23534 0.43498 0.24400
H 	H 	0.76641 0.37881 0.52402 0.22400
C 	C 	0.66751 0.37810 0.68305 0.04300
C 	C 	0.66768 0.33939 0.70807 0.10200
C 	C 	0.67053 0.28927 0.69305 -0.09300
C 	C 	0.67682 0.28144 0.65363 0.08900
C 	C 	0.68027 0.32238 0.62923 0.01600
C 	C 	0.67623 0.37171 0.64399 -0.04600
C 	C 	0.66473 0.35155 0.75004 0.09700
C 	C 	0.66372 0.24229 0.71838 0.79000
H 	H 	0.67883 0.24322 0.64165 0.10800
C 	C 	0.68022 0.41683 0.61808 0.77900
H 	H 	0.66202 0.41413 0.69441 0.14600
C 	C 	0.72162 0.39226 0.77875 -0.08500
C 	C 	0.71829 0.38773 0.81857 0.08800
C 	C 	0.65898 0.34631 0.82986 0.02300
C 	C 	0.60152 0.31504 0.80192 -0.04700
C 	C 	0.60496 0.31687 0.76189 0.04800
C 	C 	0.78587 0.43844 0.76686 0.79000
H 	H 	0.76195 0.41371 0.84055 0.11500
C 	C 	0.53679 0.27752 0.81452 0.78200
H 	H 	0.56142 0.28837 0.73974 0.13800
F 	F 	0.73368 0.44205 0.60055 -0.40500
F 	F 	0.68511 0.46709 0.63947 -0.35300
F 	F 	0.62559 0.38416 0.58918 -0.40200
F 	F 	0.60337 0.20837 0.72819 -0.38900
F 	F 	0.70976 0.27416 0.75243 -0.38000
F 	F 	0.67114 0.19918 0.69894 -0.37200
F 	F 	0.48840 0.26403 0.78527 -0.35500
F 	F 	0.53817 0.31229 0.84759 -0.36600
F 	F 	0.52252 0.22079 0.82301 -0.36200
F 	F 	0.83401 0.47831 0.79931 -0.36500
F 	F 	0.78148 0.47611 0.74369 -0.37800
F 	F 	0.80329 0.40515 0.74590 -0.36700
C 	C 	0.73348 0.30002 0.26778 0.04300
C 	C 	0.67237 0.27280 0.24595 0.10000
C 	C 	0.61890 0.24675 0.26511 -0.08400
C 	C 	0.62909 0.25390 0.30633 0.08600
C 	C 	0.69146 0.28961 0.32861 0.03000
C 	C 	0.74443 0.31128 0.30921 -0.03400
C 	C 	0.66569 0.27607 0.20356 0.10100
C 	C 	0.55110 0.21131 0.24174 0.78900
H 	H 	0.58876 0.23470 0.32146 0.11200
C 	C 	0.81219 0.34570 0.33230 0.77900
H 	H 	0.77309 0.31562 0.25240 0.14300
C 	C 	0.68098 0.33244 0.19116 -0.08800
C 	C 	0.67214 0.33286 0.15067 0.08700
C 	C 	0.64318 0.27700 0.12273 0.02200
C 	C 	0.62502 0.21978 0.13540 -0.04100
C 	C 	0.64198 0.22182 0.17547 0.04300
C 	C 	0.70911 0.39286 0.22086 0.79000
H 	H 	0.68700 0.37657 0.14072 0.10700
C 	C 	0.58740 0.15662 0.10679 0.78000
H 	H 	0.63391 0.18014 0.18514 0.14400
F 	F 	0.85700 0.36651 0.30786 -0.35400
F 	F 	0.81538 0.30491 0.35290 -0.37500
F 	F 	0.82908 0.39850 0.35829 -0.34500
F 	F 	0.53405 0.15633 0.21832 -0.37000
F 	F 	0.54775 0.24919 0.21822 -0.36500
F 	F 	0.50655 0.19423 0.26608 -0.35900
F 	F 	0.62820 0.15415 0.08540 -0.38400
F 	F 	0.53831 0.14915 0.08139 -0.38300
F 	F 	0.55961 0.10580 0.12645 -0.35100
F 	F 	0.71158 0.43906 0.20321 -0.36300
F 	F 	0.77091 0.41729 0.23834 -0.37300
F 	F 	0.67201 0.38020 0.24957 -0.36900
C 	C 	0.84428 0.72832 0.46700 0.05900
C 	C 	0.88103 0.71729 0.49183 0.08400
C 	C 	0.94210 0.76934 0.51337 -0.05100
C 	C 	0.96431 0.83161 0.50997 0.01800
C 	C 	0.92946 0.84249 0.48309 0.09000
C 	C 	0.86977 0.78989 0.46003 -0.07600
C 	C 	0.85900 0.65090 0.49040 0.10600
C 	C 	0.98655 0.75864 0.53645 0.74800
H 	H 	0.01017 0.87189 0.52710 0.18000
C 	C 	0.83374 0.79855 0.42745 0.78600
H 	H 	0.79713 0.68809 0.45127 0.13800
C 	C 	0.81583 0.61171 0.51426 -0.08500
C 	C 	0.79027 0.54687 0.50850 0.07800
C 	C 	0.80223 0.51948 0.47723 0.02000
C 	C 	0.84401 0.55877 0.45253 -0.05200
C 	C 	0.87522 0.62476 0.46135 0.03700
C 	C 	0.79132 0.63691 0.54267 0.78900
H 	H 	0.75827 0.51670 0.52715 0.12800
C 	C 	0.85429 0.53092 0.41626 0.78200
H 	H 	0.90960 0.65576 0.44403 0.14300
F 	F 	0.80437 0.82304 0.44370 -0.36300
F 	F 	0.78668 0.74123 0.40260 -0.35700
F 	F 	0.87534 0.83917 0.40473 -0.35800
F 	F 	0.01026 0.73766 0.51049 -0.35300
F 	F 	0.95421 0.71374 0.55973 -0.35300
F 	F 	0.03800 0.81416 0.56091 -0.32600
F 	F 	0.79590 0.48050 0.39365 -0.38200
F 	F 	0.89072 0.51052 0.42762 -0.35400
F 	F 	0.88641 0.57549 0.39266 -0.35500
F 	F 	0.75926 0.59548 0.56794 -0.34800
F 	F 	0.74926 0.64448 0.52157 -0.37700
F 	F 	0.84154 0.69490 0.56544 -0.35100
C 	C 	0.87661 0.06621 0.42687 0.05000
C 	C 	0.85444 0.07773 0.45933 0.09700
C 	C 	0.85445 0.05158 0.49312 -0.08000
C 	C 	0.88483 0.02172 0.49567 0.08100
C 	C 	0.91181 0.01494 0.46439 0.04600
C 	C 	0.90363 0.03319 0.42857 -0.05100
C 	C 	0.83270 0.11856 0.45792 0.10200
C 	C 	0.82148 0.05475 0.52607 0.78900
H 	H 	0.88908 0.00520 0.52234 0.12700
C 	C 	0.92651 0.02060 0.39277 0.76200
H 	H 	0.87443 0.08468 0.40067 0.14200
C 	C 	0.87665 0.18554 0.47008 -0.08900
C 	C 	0.85316 0.22194 0.47134 0.08500
C 	C 	0.78754 0.19291 0.45928 0.01600
C 	C 	0.74518 0.12725 0.44254 -0.04700
C 	C 	0.76791 0.09026 0.44327 0.04300
C 	C 	0.94852 0.21833 0.48042 0.79000
H 	H 	0.88554 0.27272 0.48266 0.11300
C 	C 	0.67543 0.09605 0.42504 0.78000
H 	H 	0.73510 0.03921 0.43288 0.14300
F 	F 	0.99215 0.06589 0.39695 -0.37500
F 	F 	0.89686 0.02345 0.35868 -0.35600
F 	F 	0.91234 0.96065 0.38837 -0.33900
F 	F 	0.75718 0.02468 0.51136 -0.38500
F 	F 	0.84975 0.11750 0.54228 -0.37200
F 	F 	0.82541 0.02509 0.55583 -0.36400
F 	F 	0.64842 0.03870 0.40016 -0.36400
F 	F 	0.67053 0.13497 0.40335 -0.39700
F 	F 	0.64072 0.08462 0.45495 -0.37500
F 	F 	0.98286 0.28346 0.49253 -0.36600
F 	F 	0.96989 0.20794 0.44778 -0.37900
F 	F 	0.96170 0.19463 0.51057 -0.36700
C 	C 	0.23111 0.10867 0.50135 0.05700
C 	C 	0.25020 0.12333 0.46517 0.09000
C 	C 	0.20342 0.10212 0.43104 -0.06800
C 	C 	0.13806 0.06502 0.43392 0.06300
C 	C 	0.11923 0.05102 0.47021 0.07800
C 	C 	0.16618 0.07521 0.50462 -0.07100
C 	C 	0.31919 0.15856 0.46313 0.10400
C 	C 	0.22250 0.11472 0.39108 0.78600
H 	H 	0.10151 0.04576 0.40778 0.15400
C 	C 	0.14701 0.06313 0.54456 0.78700
H 	H 	0.26714 0.12347 0.52696 0.13600
C 	C 	0.36256 0.22556 0.47556 -0.08700
C 	C 	0.42852 0.25632 0.47645 0.08800
C 	C 	0.45119 0.22197 0.46364 0.02100
C 	C 	0.40755 0.15556 0.44949 -0.05000
C 	C 	0.34213 0.12415 0.45093 0.04200
C 	C 	0.33949 0.26371 0.49069 0.79000
H 	H 	0.46263 0.30704 0.48770 0.12400
C 	C 	0.43085 0.11794 0.43391 0.77900
H 	H 	0.30877 0.07275 0.44267 0.14100
F 	F 	0.10354 0.07601 0.55003 -0.37100
F 	F 	0.19961 0.10143 0.57488 -0.35400
F 	F 	0.11930 0.00020 0.54685 -0.39200
F 	F 	0.23999 0.07663 0.37785 -0.37200
F 	F 	0.27354 0.17790 0.39352 -0.35300
F 	F 	0.17227 0.10143 0.36356 -0.34100
F 	F 	0.46585 0.11463 0.46472 -0.39300
F 	F 	0.46934 0.14721 0.40666 -0.40100
F 	F 	0.38017 0.05651 0.41558 -0.35700
F 	F 	0.38590 0.32843 0.49336 -0.35400
F 	F 	0.32535 0.25257 0.52769 -0.37300
F 	F 	0.28518 0.24671 0.46571 -0.35100
C 	C 	0.83408 0.65147 0.00842 0.04200
C 	C 	0.79973 0.67712 0.00665 0.10600
C 	C 	0.73270 0.63740 0.00635 -0.08900
C 	C 	0.70077 0.57164 0.00432 0.08700
C 	C 	0.73515 0.54597 0.00559 0.01900
C 	C 	0.80304 0.58699 0.01059 -0.04900
C 	C 	0.83348 0.74430 0.00177 0.09100
C 	C 	0.69413 0.66379 0.00487 0.79000
H 	H 	0.64883 0.54000 0.00053 0.12300
C 	C 	0.84245 0.56208 0.01678 0.77900
H 	H 	0.88504 0.68182 0.00781 0.14400
C 	C 	0.87426 0.79538 0.03401 -0.06800
C 	C 	0.90957 0.85828 0.02726 0.06400
C 	C 	0.90196 0.87087 0.98970 0.08500
C 	C 	0.85882 0.82002 0.95793 -0.06200
C 	C 	0.82680 0.75704 0.96407 0.05800
C 	C 	0.88366 0.78309 0.07505 0.78600
H 	H 	0.94345 0.89768 0.05120 0.14500
C 	C 	0.84751 0.83286 0.91746 0.78500
H 	H 	0.79656 0.71759 0.93956 0.14000
F 	F 	0.90572 0.61106 0.03364 -0.35200
F 	F 	0.84140 0.53338 0.98097 -0.39000
F 	F 	0.81819 0.51838 0.04167 -0.40200
F 	F 	0.68359 0.67221 0.96704 -0.37100
F 	F 	0.72635 0.72146 0.03044 -0.35000
F 	F 	0.63518 0.62259 0.01555 -0.35300
F 	F 	0.80096 0.77722 0.89108 -0.34900
F 	F 	0.90388 0.86323 0.90279 -0.34700
F 	F 	0.82733 0.87116 0.91999 -0.35500
F 	F 	0.91240 0.83754 0.10328 -0.34300
F 	F 	0.92256 0.76341 0.07677 -0.37000
F 	F 	0.82534 0.73669 0.08441 -0.35200
C 	C 	0.86145 0.22107 0.00751 0.04100
C 	C 	0.82982 0.15581 0.99433 0.10400
C 	C 	0.76202 0.11451 0.98324 -0.08900
C 	C 	0.72813 0.14077 0.98085 0.08700
C 	C 	0.76031 0.20662 0.99169 0.01800
C 	C 	0.82688 0.24666 0.00789 -0.04900
C 	C 	0.86818 0.13105 0.99268 0.09200
C 	C 	0.72574 0.04263 0.97514 0.79100
H 	H 	0.67678 0.11024 0.96986 0.11700
C 	C 	0.86160 0.31672 0.02465 0.78000
H 	H 	0.91318 0.25198 0.01705 0.14000
C 	C 	0.89094 0.12641 0.95807 -0.07400
C 	C 	0.91903 0.09431 0.95582 0.06200
C 	C 	0.92835 0.07085 0.98824 0.07800
C 	C 	0.91324 0.08306 0.02446 -0.07000
C 	C 	0.88120 0.11124 0.02586 0.05600
C 	C 	0.88678 0.15696 0.92409 0.78700
H 	H 	0.93304 0.08677 0.92873 0.13400
C 	C 	0.92899 0.06416 0.06122 0.76900
H 	H 	0.86513 0.11668 0.05255 0.13900
F 	F 	0.87510 0.35047 0.99428 -0.37200
F 	F 	0.91884 0.34139 0.04959 -0.36500
F 	F 	0.82429 0.32527 0.04611 -0.39700
F 	F 	0.73758 0.02344 0.00840 -0.37900
F 	F 	0.74527 0.02467 0.94443 -0.36200
F 	F 	0.66003 0.01088 0.96515 -0.36300
F 	F 	0.92686 0.09526 0.09478 -0.36200
F 	F 	0.99017 0.07984 0.06500 -0.39300
F 	F 	0.88489 0.99928 0.05904 -0.34500
F 	F 	0.91327 0.14867 0.89363 -0.36400
F 	F 	0.91985 0.22166 0.93701 -0.38700
F 	F 	0.82332 0.13040 0.90935 -0.36900
C 	C 	0.33525 0.17465 0.93762 0.04700
C 	C 	0.30032 0.13526 0.96376 0.10100
C 	C 	0.32949 0.11774 0.99035 -0.08400
C 	C 	0.39608 0.14883 0.99487 0.08300
C 	C 	0.43213 0.19167 0.97043 0.02500
C 	C 	0.40016 0.19994 0.93911 -0.05600
C 	C 	0.23307 0.11227 0.96283 0.08900
C 	C 	0.28958 0.06509 0.01310 0.78800
H 	H 	0.42024 0.14084 0.01791 0.13400
C 	C 	0.43441 0.23496 0.90718 0.78700
H 	H 	0.31181 0.18574 0.91623 0.14100
C 	C 	0.21805 0.14485 0.98860 -0.07000
C 	C 	0.15342 0.11585 0.99135 0.06200
C 	C 	0.10394 0.05870 0.96600 0.08100
C 	C 	0.11910 0.03204 0.93582 -0.09300
C 	C 	0.18373 0.05729 0.93595 0.06500
C 	C 	0.27053 0.21095 0.01224 0.78400
H 	H 	0.14142 0.13720 0.01348 0.13800
C 	C 	0.06700 0.97619 0.90400 0.80900
H 	H 	0.19580 0.03387 0.91539 0.13300
F 	F 	0.46899 0.29985 0.92005 -0.37600
F 	F 	0.39094 0.21735 0.87327 -0.35200
F 	F 	0.47548 0.22078 0.89753 -0.39900
F 	F 	0.24081 0.00997 0.98721 -0.38200
F 	F 	0.26295 0.08283 0.03872 -0.35900
F 	F 	0.32618 0.05160 0.03482 -0.35400
F 	F 	0.09175 0.97248 0.87120 -0.34400
F 	F 	0.01923 0.98261 0.89202 -0.34400
F 	F 	0.04072 0.92019 0.91823 -0.34500
F 	F 	0.24541 0.23667 0.03288 -0.35800
F 	F 	0.30543 0.25132 0.98720 -0.38300
F 	F 	0.31141 0.20841 0.03895 -0.36400
