data_crystal

_cell_length_a 26.04072
_cell_length_b 26.42295
_cell_length_c 34.77872
_cell_angle_alpha 95.54248
_cell_angle_beta  95.54237
_cell_angle_gamma 125.67034

_symmetry_space_group_name_	'P 1'
_symmetry_space_group_name_H-M	'P 1'

loop_
_symmetry_equiv_pos_as_xyz
  x,y,z

loop_
_atom_site_label
_atom_site_type_symbol
_atom_site_fract_x
_atom_site_fract_y
_atom_site_fract_z
_atom_site_charge
C 	C 	0.95673 0.01934 0.99638 0.01000
C 	C 	0.91603 0.95335 0.99392 -0.06100
C 	C 	0.94105 0.91869 0.99162 0.01000
C 	C 	0.00668 0.94984 0.99154 -0.06000
C 	C 	0.04777 0.01585 0.99450 0.01100
C 	C 	0.02274 0.05061 0.99698 -0.06100
H 	H 	0.86501 0.92902 0.99343 0.04600
H 	H 	0.02583 0.92280 0.98942 0.04600
H 	H 	0.05443 0.10170 0.99936 0.04600
C 	C 	0.94503 0.00969 0.45271 0.01100
C 	C 	0.91213 0.94432 0.45193 -0.06100
C 	C 	0.94631 0.91834 0.45370 0.01200
C 	C 	0.01332 0.95793 0.45647 -0.06000
C 	C 	0.04605 0.02288 0.45682 0.01200
C 	C 	0.01199 0.04874 0.45498 -0.06000
H 	H 	0.86035 0.91392 0.44987 0.04600
H 	H 	0.03992 0.93815 0.45819 0.04700
H 	H 	0.03759 0.09922 0.45579 0.04700
Cu	Cu	0.63270 0.23276 0.00139 0.92700
Cu	Cu	0.67476 0.23700 0.91535 0.86600
Cu	Cu	0.65553 0.32952 0.95052 0.89600
Cu	Cu	0.63173 0.34805 0.03096 0.89300
C 	C 	0.66112 0.28239 0.08412 0.28800
O 	O 	0.53996 0.19331 0.00561 -0.36400
C 	C 	0.63400 0.29035 0.86427 0.28400
O 	O 	0.68113 0.33088 0.00435 -0.64200
O 	O 	0.61614 0.23726 0.94550 -0.64000
O 	O 	0.67383 0.18914 0.99528 -0.37200
O 	O 	0.73916 0.25599 0.95725 -0.44100
O 	O 	0.62920 0.30597 0.07624 -0.38600
O 	O 	0.70036 0.42024 0.95803 -0.38600
C 	C 	0.69905 0.45522 0.98721 0.28500
C 	C 	0.51130 0.21790 0.99302 0.27700
O 	O 	0.54599 0.27680 0.98770 -0.39100
O 	O 	0.66226 0.42955 0.01358 -0.39500
O 	O 	0.66173 0.24474 0.05654 -0.36400
C 	C 	0.72603 0.21469 0.98002 0.28200
O 	O 	0.63716 0.32806 0.89397 -0.38200
O 	O 	0.63043 0.23969 0.86953 -0.42200
H 	H 	0.72814 0.35984 0.01451 0.16300
H 	H 	0.57054 0.20903 0.93190 0.17400
Cu	Cu	0.74872 0.34878 0.45397 0.92700
Cu	Cu	0.74545 0.30840 0.54036 0.86700
Cu	Cu	0.64825 0.32228 0.50407 0.89600
Cu	Cu	0.62880 0.34510 0.42343 0.89300
C 	C 	0.69866 0.31970 0.37104 0.28800
O 	O 	0.78634 0.44004 0.44968 -0.36100
C 	C 	0.68834 0.34563 0.59062 0.28400
O 	O 	0.64864 0.29835 0.45039 -0.64100
O 	O 	0.74267 0.36433 0.50965 -0.64100
O 	O 	0.79431 0.30916 0.46049 -0.37200
O 	O 	0.72696 0.24494 0.49881 -0.44100
O 	O 	0.67285 0.34943 0.37855 -0.38600
O 	O 	0.55566 0.27504 0.49592 -0.38500
C 	C 	0.51946 0.27455 0.46626 0.28200
C 	C 	0.75900 0.46637 0.46132 0.27400
O 	O 	0.69930 0.43042 0.46665 -0.39100
O 	O 	0.54506 0.31201 0.44038 -0.39300
O 	O 	0.73790 0.32084 0.39887 -0.36400
C 	C 	0.76904 0.25804 0.47615 0.28000
O 	O 	0.64804 0.33877 0.56056 -0.38300
O 	O 	0.74105 0.35160 0.58561 -0.42300
H 	H 	0.62059 0.25205 0.44017 0.16300
H 	H 	0.76984 0.40932 0.52310 0.17400
C 	C 	0.59982 0.31327 0.67547 -0.06300
C 	C 	0.65071 0.34108 0.70768 0.01800
C 	C 	0.71440 0.37681 0.70152 -0.06400
C 	C 	0.72695 0.38155 0.66335 0.01000
C 	C 	0.67587 0.35023 0.63089 -0.08800
C 	C 	0.61231 0.31781 0.63723 0.00900
C 	C 	0.63728 0.32726 0.74716 0.01700
H 	H 	0.75408 0.39890 0.72621 0.04200
H 	H 	0.77630 0.40806 0.65899 0.03000
H 	H 	0.57242 0.29388 0.61252 0.03400
H 	H 	0.55051 0.28633 0.67995 0.04400
C 	C 	0.66350 0.37706 0.77933 -0.06300
C 	C 	0.65937 0.36465 0.81756 0.00900
C 	C 	0.62897 0.30227 0.82394 -0.08800
C 	C 	0.59927 0.25211 0.79150 0.01000
C 	C 	0.60359 0.26458 0.75334 -0.06400
H 	H 	0.68888 0.42554 0.77483 0.04400
H 	H 	0.68206 0.40379 0.84225 0.03400
H 	H 	0.57431 0.20360 0.79587 0.03000
H 	H 	0.58277 0.22574 0.72868 0.04200
C 	C 	0.72314 0.34173 0.19312 -0.06300
C 	C 	0.69890 0.28478 0.20658 0.01900
C 	C 	0.66910 0.22813 0.17935 -0.06400
C 	C 	0.66044 0.22791 0.13898 0.01500
C 	C 	0.68104 0.28430 0.12561 -0.08500
C 	C 	0.71406 0.34146 0.15281 0.01100
C 	C 	0.69772 0.28343 0.24877 0.01900
H 	H 	0.65062 0.18399 0.18948 0.04500
H 	H 	0.63506 0.18350 0.11825 0.03600
H 	H 	0.73078 0.38534 0.14279 0.02000
H 	H 	0.74652 0.38576 0.21393 0.04500
C 	C 	0.75548 0.31492 0.27608 -0.06400
C 	C 	0.75540 0.32316 0.31643 0.01500
C 	C 	0.69757 0.30041 0.32968 -0.08500
C 	C 	0.63944 0.26577 0.30240 0.01100
C 	C 	0.63949 0.25714 0.26213 -0.06300
H 	H 	0.80063 0.33500 0.26603 0.04500
H 	H 	0.80057 0.34981 0.33722 0.03600
H 	H 	0.59448 0.24744 0.31234 0.02000
H 	H 	0.59461 0.23244 0.24125 0.04500
C 	C 	0.82215 0.73010 0.51500 -0.05500
C 	C 	0.79865 0.66759 0.51718 -0.03600
C 	C 	0.80722 0.63254 0.48900 0.00900
C 	C 	0.83963 0.66057 0.45841 0.00100
C 	C 	0.86264 0.72324 0.45597 -0.02900
C 	C 	0.85427 0.75829 0.48453 0.04000
C 	C 	0.89447 0.75100 0.42513 0.04000
C 	C 	0.90310 0.71600 0.39700 -0.05500
C 	C 	0.88059 0.65391 0.39955 -0.03600
C 	C 	0.84882 0.62587 0.43015 0.00900
C 	C 	0.82516 0.56322 0.43244 -0.02500
C 	C 	0.79131 0.53460 0.46227 -0.06400
C 	C 	0.78305 0.56956 0.49075 -0.02600
C 	C 	0.87919 0.82144 0.48268 -0.07800
C 	C 	0.91221 0.84959 0.45247 0.02700
C 	C 	0.91837 0.81379 0.42325 -0.07800
H 	H 	0.81540 0.75656 0.53707 0.04100
H 	H 	0.77382 0.64650 0.54080 0.03600
H 	H 	0.92754 0.73693 0.37321 0.04100
H 	H 	0.88775 0.62761 0.37765 0.03700
H 	H 	0.83110 0.53605 0.41032 0.04600
H 	H 	0.75720 0.54749 0.51387 0.03900
H 	H 	0.87455 0.84918 0.50522 0.04800
H 	H 	0.94336 0.83549 0.39976 0.04900
C 	C 	0.89121 0.14182 0.39741 -0.05600
C 	C 	0.86823 0.17822 0.40125 -0.03500
C 	C 	0.84062 0.17939 0.43379 0.00700
C 	C 	0.83528 0.14291 0.46238 0.00300
C 	C 	0.85839 0.10625 0.45850 -0.03000
C 	C 	0.88693 0.10613 0.42606 0.04000
C 	C 	0.85409 0.07071 0.48748 0.04000
C 	C 	0.82568 0.07115 0.51972 -0.05700
C 	C 	0.80262 0.10743 0.52352 -0.03600
C 	C 	0.80766 0.14376 0.49514 0.00500
C 	C 	0.78600 0.18135 0.49936 -0.02400
C 	C 	0.79166 0.21823 0.47111 -0.07200
C 	C 	0.81873 0.21691 0.43826 -0.02100
C 	C 	0.91224 0.07159 0.42320 -0.07900
C 	C 	0.90998 0.03795 0.45277 0.02800
C 	C 	0.87973 0.03653 0.48440 -0.07900
H 	H 	0.91282 0.14184 0.37228 0.04100
H 	H 	0.87229 0.20579 0.37902 0.03700
H 	H 	0.82188 0.04381 0.54205 0.03900
H 	H 	0.78119 0.10754 0.54871 0.03100
H 	H 	0.76550 0.18257 0.52483 0.02500
H 	H 	0.82249 0.24473 0.41622 0.04800
H 	H 	0.93517 0.07216 0.39863 0.04800
H 	H 	0.87808 0.01056 0.50717 0.04800
C 	C 	0.33278 0.17056 0.53304 -0.03600
C 	C 	0.26642 0.13595 0.53180 -0.05600
C 	C 	0.22444 0.11780 0.49617 0.04100
C 	C 	0.24943 0.13492 0.46155 -0.03000
C 	C 	0.31620 0.16953 0.46277 0.00200
C 	C 	0.35800 0.18735 0.49864 0.00800
C 	C 	0.34109 0.18602 0.42807 0.00800
C 	C 	0.29913 0.16817 0.39247 -0.03600
C 	C 	0.23281 0.13392 0.39127 -0.05600
C 	C 	0.20759 0.11694 0.42564 0.04100
C 	C 	0.14104 0.08159 0.42448 -0.07900
C 	C 	0.11612 0.06373 0.45880 0.02800
C 	C 	0.15777 0.08219 0.49461 -0.07900
C 	C 	0.42446 0.22166 0.49968 -0.02400
C 	C 	0.44943 0.23806 0.46509 -0.06300
C 	C 	0.40754 0.21999 0.42935 -0.02500
H 	H 	0.36451 0.18413 0.56076 0.03600
H 	H 	0.24770 0.12314 0.55857 0.04100
H 	H 	0.31781 0.18073 0.36567 0.03500
H 	H 	0.20108 0.12039 0.36356 0.04100
H 	H 	0.10855 0.06710 0.39689 0.04900
H 	H 	0.13817 0.06825 0.52103 0.04900
H 	H 	0.45670 0.23603 0.52735 0.04700
H 	H 	0.42665 0.23202 0.40259 0.03700
C 	C 	0.80033 0.67207 0.05868 -0.03600
C 	C 	0.83278 0.73697 0.05912 -0.05600
C 	C 	0.84786 0.76088 0.02428 0.04000
C 	C 	0.82946 0.71908 0.98861 -0.02900
C 	C 	0.79669 0.65375 0.98816 0.00300
C 	C 	0.78242 0.63023 0.02337 0.00600
C 	C 	0.77880 0.61204 0.95257 0.00800
C 	C 	0.79339 0.63590 0.91765 -0.03500
C 	C 	0.82622 0.70087 0.91814 -0.05600
C 	C 	0.84474 0.74278 0.95352 0.04100
C 	C 	0.87939 0.80818 0.95442 -0.07900
C 	C 	0.89886 0.84985 0.99005 0.03000
C 	C 	0.88224 0.82614 0.02477 -0.08100
C 	C 	0.75079 0.56530 0.02290 -0.02600
C 	C 	0.73287 0.52358 0.98747 -0.06200
C 	C 	0.74680 0.54710 0.95235 -0.02300
H 	H 	0.78935 0.65440 0.08586 0.03500
H 	H 	0.84656 0.76868 0.08664 0.04100
H 	H 	0.77964 0.60420 0.89014 0.03600
H 	H 	0.83753 0.71859 0.89100 0.04100
H 	H 	0.89233 0.82688 0.92768 0.04900
H 	H 	0.89746 0.85867 0.05220 0.04900
H 	H 	0.74055 0.54728 0.05005 0.03700
H 	H 	0.73238 0.51488 0.92492 0.04600
C 	C 	0.87294 0.17485 0.93067 -0.03600
C 	C 	0.90549 0.14754 0.93299 -0.05700
C 	C 	0.90315 0.11684 0.96429 0.04100
C 	C 	0.86880 0.11463 0.99388 -0.03000
C 	C 	0.83591 0.14201 0.99149 0.00400
C 	C 	0.83757 0.17175 0.95959 0.00400
C 	C 	0.80037 0.13858 0.02060 0.00500
C 	C 	0.79903 0.10891 0.05230 -0.03500
C 	C 	0.83178 0.08175 0.05470 -0.05600
C 	C 	0.86624 0.08390 0.02542 0.04000
C 	C 	0.89705 0.05460 0.02684 -0.08100
C 	C 	0.92971 0.05526 0.99679 0.03000
C 	C 	0.93353 0.08717 0.96592 -0.08000
C 	C 	0.80285 0.19688 0.95654 -0.02400
C 	C 	0.76605 0.19216 0.98498 -0.07100
C 	C 	0.76573 0.16387 0.01728 -0.02200
H 	H 	0.87479 0.19792 0.90615 0.03100
H 	H 	0.93207 0.14982 0.91025 0.04000
H 	H 	0.77219 0.10636 0.07494 0.03700
H 	H 	0.82981 0.05855 0.07916 0.04100
H 	H 	0.89477 0.03040 0.05084 0.04800
H 	H 	0.95882 0.08756 0.94278 0.04800
H 	H 	0.80319 0.21872 0.93162 0.02600
H 	H 	0.73825 0.16118 0.03958 0.04800
C 	C 	0.31790 0.08535 0.04975 -0.03600
C 	C 	0.25371 0.05972 0.05116 -0.05600
C 	C 	0.21782 0.06784 0.02306 0.03900
C 	C 	0.24667 0.10196 0.99329 -0.02800
C 	C 	0.31140 0.12807 0.99201 0.00200
C 	C 	0.34712 0.11972 0.02035 0.00700
C 	C 	0.34058 0.16302 0.96260 0.00900
C 	C 	0.30455 0.17080 0.93434 -0.03600
C 	C 	0.24002 0.14432 0.93539 -0.05500
C 	C 	0.21079 0.10993 0.96479 0.04000
C 	C 	0.14601 0.08294 0.96585 -0.07900
C 	C 	0.11710 0.04843 0.99528 0.03000
C 	C 	0.15332 0.04177 0.02414 -0.08000
C 	C 	0.41190 0.14683 0.01941 -0.02600
C 	C 	0.44156 0.18317 0.99083 -0.06400
C 	C 	0.40564 0.19050 0.96217 -0.02500
H 	H 	0.34496 0.07870 0.07167 0.03700
H 	H 	0.23190 0.03345 0.07408 0.04100
H 	H 	0.32650 0.19746 0.91159 0.03600
H 	H 	0.21286 0.15067 0.91335 0.04100
H 	H 	0.11779 0.08777 0.94353 0.04800
H 	H 	0.13093 0.01552 0.04699 0.04900
H 	H 	0.43981 0.14150 0.04162 0.04600
H 	H 	0.42853 0.21814 0.93993 0.04000
