data_crystal

_cell_length_a 19.33766
_cell_length_b 21.24170
_cell_length_c 48.18170
_cell_angle_alpha 60.78838
_cell_angle_beta  118.98427
_cell_angle_gamma 133.31242

_symmetry_space_group_name_	'P 1'
_symmetry_space_group_name_H-M	'P 1'

loop_
_symmetry_equiv_pos_as_xyz
  x,y,z

loop_
_atom_site_label
_atom_site_type_symbol
_atom_site_fract_x
_atom_site_fract_y
_atom_site_fract_z
_atom_site_charge
C 	C 	0.02700 0.96137 0.42225 0.04500
C 	C 	0.03736 0.95785 0.44980 -0.08800
C 	C 	0.00120 0.05681 0.73897 -0.02000
O 	O 	0.04049 0.89812 0.99800 -0.36900
C 	C 	0.01660 0.07624 0.76624 -0.01200
C 	C 	0.01409 0.98778 0.71440 0.06000
C 	C 	0.05265 0.94428 0.48420 0.30900
N 	N 	0.00042 0.25246 0.68665 -0.11000
C 	C 	0.01044 0.04325 0.86448 0.04100
C 	C 	0.01548 0.12789 0.60380 0.31800
O 	O 	0.05758 0.87721 0.50477 -0.38600
H 	H 	0.02718 0.55609 0.10388 0.06400
C 	C 	0.05943 0.75419 0.01383 0.08800
Co	Co	0.03199 0.83003 0.59428 1.18900
O 	O 	0.05854 0.99712 0.49420 -0.36800
C 	C 	0.03634 0.65952 0.10711 0.05200
C 	C 	0.01020 0.95950 0.38973 0.01200
C 	C 	0.03968 0.01626 0.74197 0.00500
C 	C 	0.03680 0.19361 0.64077 0.03700
C 	C 	0.03486 0.25967 0.67029 0.09700
N 	N 	0.04422 0.45135 0.68385 -0.10600
C 	C 	0.05764 0.17056 0.11280 0.32100
O 	O 	0.05575 0.10716 0.59686 -0.38600
O 	O 	0.07510 0.97774 0.03996 -0.75800
O 	O 	0.07296 0.85213 0.09708 -0.38700
C 	C 	0.06948 0.60937 0.11562 -0.06200
C 	C 	0.07014 0.05469 0.79692 -0.01200
O 	O 	0.07848 0.75369 0.56857 -0.39600
O 	O 	0.07860 0.08926 0.53883 -0.44700
C 	C 	0.06494 0.03144 0.33966 -0.01600
O 	O 	0.08170 0.90192 0.56141 -0.75500
N 	N 	0.07827 0.28286 0.52983 -0.09200
C 	C 	0.07704 0.20019 0.62084 -0.08800
C 	C 	0.07792 0.26887 0.64985 -0.04600
H 	H 	0.02575 0.84839 0.32380 0.04100
C 	C 	0.07081 0.03653 0.36881 -0.03100
C 	C 	0.08190 0.07094 0.82622 0.06000
C 	C 	0.00617 0.88661 0.30069 0.00300
H 	H 	0.00399 0.83269 0.27193 0.06700
O 	O 	0.08747 0.16598 0.09454 -0.38500
C 	C 	0.99928 0.02991 0.83634 -0.11000
C 	C 	0.99820 0.25696 0.52387 0.05200
H 	H 	0.98593 0.10706 0.76358 0.03300
H 	H 	0.95516 0.03716 0.26919 0.03900
C 	C 	0.96690 0.99317 0.26999 -0.02800
O 	O 	0.98882 0.92758 0.65081 -0.39900
H 	H 	0.93377 0.02158 0.21755 0.04300
C 	C 	0.95485 0.98435 0.24067 -0.03400
O 	O 	0.98235 0.09915 0.12551 -0.40800
C 	C 	0.99148 0.94363 0.30018 -0.00900
C 	C 	0.99838 0.94912 0.33119 -0.00400
C 	C 	0.72587 0.36837 0.98082 0.02800
C 	C 	0.64593 0.31314 0.99481 -0.06400
C 	C 	0.61602 0.35068 0.99962 0.03300
C 	C 	0.66606 0.44317 0.99049 -0.06300
C 	C 	0.74140 0.49854 0.97437 0.03400
C 	C 	0.76779 0.46016 0.96803 -0.06500
H 	H 	0.61150 0.24196 0.00392 0.05000
H 	H 	0.64931 0.47234 0.99734 0.06200
H 	H 	0.82751 0.50263 0.95625 0.05400
C 	C 	0.75685 0.30804 0.49952 0.03100
C 	C 	0.66634 0.25789 0.50670 -0.06500
C 	C 	0.63652 0.30132 0.50738 0.03300
C 	C 	0.69802 0.39336 0.50245 -0.06600
C 	C 	0.79474 0.44088 0.50232 0.03100
C 	C 	0.82249 0.40051 0.49794 -0.06500
H 	H 	0.62029 0.18563 0.51227 0.05700
H 	H 	0.67522 0.42600 0.50394 0.05900
H 	H 	0.89531 0.43958 0.49486 0.05300
C 	C 	0.21326 0.60551 0.13631 0.03200
C 	C 	0.16582 0.51552 0.13847 -0.06400
C 	C 	0.21426 0.49205 0.13554 0.03100
C 	C 	0.31141 0.55628 0.13326 -0.06300
C 	C 	0.35517 0.64626 0.12772 0.03300
C 	C 	0.30672 0.67109 0.12955 -0.06300
H 	H 	0.09124 0.46509 0.14130 0.05700
H 	H 	0.34872 0.53735 0.13153 0.05900
H 	H 	0.33997 0.74120 0.12458 0.05700
C 	C 	0.26194 0.56228 0.65731 0.03100
C 	C 	0.35950 0.59038 0.67217 -0.06500
C 	C 	0.38840 0.54490 0.67266 0.02900
C 	C 	0.31765 0.45544 0.67209 -0.06600
C 	C 	0.22120 0.42626 0.65522 0.03100
C 	C 	0.19246 0.48024 0.64769 -0.05800
H 	H 	0.41510 0.65531 0.67769 0.05400
H 	H 	0.34072 0.41553 0.67747 0.05600
H 	H 	0.11998 0.46165 0.63305 0.06700
Co	Co	0.99543 0.10446 0.05553 1.18000
Co	Co	0.87762 0.91114 0.08455 1.18500
Co	Co	0.10725 0.08081 0.03192 1.18800
C 	C 	0.95994 0.82154 0.00668 0.26900
Co	Co	0.16291 0.96535 0.03208 1.17000
C 	C 	0.30520 0.11464 0.06371 0.30200
O 	O 	0.81510 0.91255 0.13171 -0.41100
C 	C 	0.88325 0.89995 0.14944 0.31800
O 	O 	0.87907 0.81993 0.08144 -0.46200
O 	O 	0.09504 0.17026 0.03009 -0.45300
C 	C 	0.67889 0.87163 0.06995 0.30000
C 	C 	0.10460 0.81852 0.09346 0.31100
O 	O 	0.92822 0.90251 0.13483 -0.39500
O 	O 	0.12218 0.84287 0.06555 -0.39300
O 	O 	0.72022 0.95685 0.06392 -0.38400
O 	O 	0.72558 0.84440 0.07132 -0.37100
C 	C 	0.87590 0.17238 0.03188 0.30600
O 	O 	0.87874 0.15107 0.06283 -0.40800
O 	O 	0.91560 0.81338 0.02384 -0.37200
O 	O 	0.27448 0.03373 0.06775 -0.38300
O 	O 	0.24622 0.12769 0.06281 -0.38900
Co	Co	0.98011 0.03011 0.56368 1.17800
Co	Co	0.91791 0.86568 0.61306 1.18200
Co	Co	0.09149 0.99760 0.54309 1.18700
C 	C 	0.98402 0.70558 0.56436 0.29200
Co	Co	0.15993 0.88918 0.54857 1.17100
C 	C 	0.29164 0.08215 0.54509 0.31600
O 	O 	0.85545 0.91702 0.64432 -0.40900
C 	C 	0.94493 0.94011 0.65989 0.31500
O 	O 	0.96771 0.79223 0.62802 -0.46300
C 	C 	0.70764 0.76332 0.61428 0.29900
C 	C 	0.21870 0.84128 0.61945 0.29500
O 	O 	0.25302 0.90469 0.59397 -0.38500
O 	O 	0.15429 0.83027 0.62792 -0.37100
O 	O 	0.92150 0.09234 0.59261 -0.42100
O 	O 	0.70141 0.82749 0.59153 -0.38600
O 	O 	0.77554 0.75720 0.61822 -0.37200
C 	C 	0.82600 0.06541 0.52596 0.29900
O 	O 	0.76309 0.99550 0.54389 -0.38000
O 	O 	0.94662 0.71882 0.57616 -0.38000
O 	O 	0.25031 0.02444 0.52917 -0.40300
O 	O 	0.24064 0.07245 0.55927 -0.39400
C 	C 	0.11036 0.01561 0.79980 -0.01600
C 	C 	0.09514 0.99648 0.77241 -0.04500
C 	C 	0.18664 0.14050 0.87221 -0.00500
C 	C 	0.17561 0.12721 0.84410 -0.06300
C 	C 	0.98796 0.96640 0.69001 -0.11400
H 	H 	0.95740 0.07147 0.71567 0.03300
H 	H 	0.15182 0.99863 0.82330 0.03900
H 	H 	0.12475 0.96472 0.77507 0.05200
H 	H 	0.92657 0.98649 0.82277 0.06200
H 	H 	0.94627 0.00934 0.87249 0.01900
H 	H 	0.25940 0.18237 0.88621 0.04200
H 	H 	0.23989 0.16005 0.83640 0.05300
C 	C 	0.96773 0.92632 0.24113 0.01500
C 	C 	0.94436 0.91079 0.21050 0.04700
C 	C 	0.92149 0.90372 0.18332 -0.09800
H 	H 	0.88368 0.80891 0.34539 0.04300
H 	H 	0.89562 0.81766 0.39699 0.04800
H 	H 	0.12416 0.09988 0.37547 0.05200
H 	H 	0.11291 0.09116 0.32392 0.04700
C 	C 	0.16051 0.35230 0.63905 0.02500
C 	C 	0.20016 0.35879 0.61894 -0.05900
C 	C 	0.16308 0.28259 0.61170 0.03200
H 	H 	0.26537 0.42203 0.61128 0.05900
H 	H 	0.97153 0.13021 0.64844 0.01800
C 	C 	0.21875 0.28842 0.59756 0.08500
N 	N 	0.26370 0.29326 0.58631 -0.10100
C 	C 	0.47095 0.59625 0.65809 0.01400
C 	C 	0.56278 0.61689 0.67826 -0.05800
C 	C 	0.64060 0.66388 0.66435 0.02200
C 	C 	0.62530 0.68791 0.62997 -0.08100
C 	C 	0.53069 0.65760 0.61037 0.01200
C 	C 	0.45560 0.61814 0.62378 -0.04100
H 	H 	0.57416 0.59800 0.70464 0.05200
H 	H 	0.51812 0.67356 0.58403 0.04800
C 	C 	0.36529 0.60613 0.60203 0.08400
C 	C 	0.73629 0.68960 0.68537 0.07500
N 	N 	0.29323 0.59685 0.58447 -0.11600
N 	N 	0.81297 0.71021 0.70222 -0.10900
C 	C 	0.24082 0.62902 0.64498 0.01800
C 	C 	0.30623 0.71645 0.62887 -0.05600
C 	C 	0.31009 0.78730 0.62629 0.01800
C 	C 	0.23438 0.77021 0.63316 -0.07800
C 	C 	0.16390 0.68156 0.64731 0.01100
C 	C 	0.16882 0.61154 0.65427 -0.03700
H 	H 	0.36031 0.73052 0.62092 0.05200
H 	H 	0.10487 0.66669 0.65259 0.04600
C 	C 	0.09969 0.52266 0.67070 0.09200
C 	C 	0.39502 0.87737 0.61830 0.07400
N 	N 	0.46321 0.94934 0.61189 -0.11000
C 	C 	0.16017 0.40551 0.12896 0.01900
C 	C 	0.14997 0.33262 0.15552 -0.06000
C 	C 	0.12799 0.25931 0.15124 0.03200
C 	C 	0.11018 0.25614 0.11968 -0.08900
C 	C 	0.12293 0.32986 0.09335 0.01500
C 	C 	0.14501 0.40317 0.09756 -0.04000
H 	H 	0.16556 0.33559 0.17989 0.05600
H 	H 	0.11275 0.32900 0.06930 0.03700
C 	C 	0.15783 0.47839 0.06988 0.09400
C 	C 	0.13183 0.19126 0.17963 0.08200
N 	N 	0.16849 0.53880 0.04778 -0.11000
C 	C 	0.44351 0.71386 0.11459 0.01700
C 	C 	0.43599 0.76292 0.08190 -0.05800
C 	C 	0.50918 0.80948 0.06598 0.02700
C 	C 	0.59058 0.80646 0.08274 -0.08700
C 	C 	0.59617 0.75497 0.11501 0.01200
C 	C 	0.52687 0.71392 0.13160 -0.04000
H 	H 	0.37116 0.76174 0.06848 0.05800
H 	H 	0.65750 0.75083 0.12779 0.04500
C 	C 	0.54186 0.67226 0.16618 0.09100
C 	C 	0.49878 0.85794 0.03214 0.07900
N 	N 	0.55384 0.63890 0.19387 -0.11300
N 	N 	0.49040 0.89674 0.00503 -0.10300
C 	C 	0.09933 0.73897 0.11746 -0.08800
C 	C 	0.18039 0.75154 0.14379 0.01600
C 	C 	0.21056 0.69761 0.15415 -0.04100
C 	C 	0.16115 0.63317 0.13710 0.02200
H 	H 	0.22524 0.80828 0.15399 0.04300
C 	C 	0.94176 0.63422 0.08516 0.04900
C 	C 	0.29301 0.70993 0.18165 0.09200
N 	N 	0.35912 0.71979 0.20367 -0.11200
C 	C 	0.78521 0.26198 0.49638 0.01800
C 	C 	0.87893 0.28142 0.51252 -0.06000
C 	C 	0.89840 0.22518 0.51582 0.03200
C 	C 	0.82078 0.14224 0.50779 -0.08700
C 	C 	0.73073 0.12766 0.48845 0.01500
C 	C 	0.71499 0.19023 0.48094 -0.04200
H 	H 	0.93607 0.33912 0.52283 0.05500
H 	H 	0.67251 0.06701 0.47987 0.04400
C 	C 	0.62907 0.18245 0.45662 0.09000
N 	N 	0.56024 0.17625 0.43714 -0.11200
C 	C 	0.92227 0.62995 0.54995 -0.08200
C 	C 	0.93855 0.56401 0.56619 0.01100
C 	C 	0.91482 0.51186 0.54893 -0.04000
C 	C 	0.86791 0.52105 0.51532 0.01300
C 	C 	0.85892 0.59166 0.49872 -0.05800
C 	C 	0.87772 0.64048 0.51625 0.02100
H 	H 	0.97540 0.55715 0.59195 0.03800
H 	H 	0.82455 0.60028 0.47275 0.05200
C 	C 	0.84818 0.69923 0.49971 0.07600
C 	C 	0.93433 0.44575 0.56627 0.08500
N 	N 	0.94983 0.39273 0.58011 -0.12100
C 	C 	0.38703 0.16515 0.54091 -0.08700
C 	C 	0.39364 0.21977 0.50913 0.01800
C 	C 	0.47100 0.25809 0.49708 -0.03900
C 	C 	0.54811 0.25038 0.51826 0.01700
C 	C 	0.54955 0.20978 0.55165 -0.05700
C 	C 	0.47033 0.16956 0.56319 0.02800
H 	H 	0.33177 0.22152 0.49248 0.04200
H 	H 	0.61264 0.21041 0.56858 0.05600
C 	C 	0.47221 0.12808 0.59758 0.08400
C 	C 	0.46895 0.30198 0.46275 0.09300
N 	N 	0.47365 0.09487 0.62515 -0.09900
N 	N 	0.46737 0.33715 0.43527 -0.11200
C 	C 	0.85614 0.23905 0.00902 -0.09000
C 	C 	0.91169 0.31904 0.01759 0.01700
C 	C 	0.87053 0.36244 0.00857 -0.04700
C 	C 	0.77833 0.33395 0.98626 0.02000
C 	C 	0.72978 0.26248 0.97328 -0.06100
C 	C 	0.76736 0.21377 0.98507 0.03000
H 	H 	0.98191 0.34082 0.03483 0.03100
H 	H 	0.65991 0.24133 0.95564 0.05400
C 	C 	0.71238 0.13588 0.97358 0.07700
C 	C 	0.91638 0.42675 0.02596 0.08600
N 	N 	0.66838 0.07345 0.96438 -0.10100
N 	N 	0.95294 0.47761 0.04015 -0.12300
C 	C 	0.80538 0.59620 0.97090 0.01400
C 	C 	0.90504 0.63810 0.98643 -0.04900
C 	C 	0.95739 0.71375 0.99724 0.00600
C 	C 	0.90963 0.74845 0.99224 -0.06300
C 	C 	0.81463 0.71478 0.97236 0.00700
C 	C 	0.76401 0.64121 0.96042 -0.03600
H 	H 	0.94029 0.60870 0.99192 0.05500
H 	H 	0.78037 0.74580 0.96615 0.04500
C 	C 	0.66980 0.61189 0.93764 0.08900
N 	N 	0.59433 0.58847 0.91935 -0.10800
N 	N 	0.14122 0.78614 0.02698 -0.12100
C 	C 	0.53849 0.29414 0.01727 0.01500
C 	C 	0.55131 0.24500 0.04958 -0.06000
C 	C 	0.47988 0.19309 0.06700 0.02900
C 	C 	0.39531 0.19108 0.05216 -0.09300
C 	C 	0.38923 0.24932 0.02163 0.01900
C 	C 	0.45651 0.29603 0.00323 -0.04200
H 	H 	0.61665 0.24695 0.06107 0.05100
H 	H 	0.32638 0.25101 0.01077 0.03400
C 	C 	0.43715 0.34020 0.96926 0.09700
C 	C 	0.49390 0.14234 0.10014 0.07500
N 	N 	0.42142 0.37536 0.94204 -0.10900
N 	N 	0.50511 0.10166 0.12669 -0.10700
Co	Co	0.98329 0.88623 0.05782 1.18300
Co	Co	0.84719 0.02949 0.09571 1.16800
O 	O 	0.90692 0.01376 0.07507 -0.76300
O 	O 	0.96393 0.99106 0.04627 -0.58500
C 	C 	0.15166 0.10415 0.97444 0.32300
O 	O 	0.21240 0.08515 0.99693 -0.40600
O 	O 	0.10257 0.11177 0.98289 -0.37600
O 	O 	0.91166 0.15196 0.02280 -0.38600
Co	Co	0.81230 0.95795 0.59375 1.16700
O 	O 	0.89613 0.94216 0.58526 -0.75900
O 	O 	0.97299 0.91238 0.56990 -0.57800
O 	O 	0.89225 0.06665 0.52368 -0.37500
C 	C 	0.10418 0.09776 0.88274 -0.03100
C 	C 	0.11641 0.10059 0.91445 0.06900
C 	C 	0.13004 0.10469 0.94108 -0.10300
C 	C 	0.99431 0.87802 0.27125 -0.07000
C 	C 	0.93629 0.87251 0.35182 -0.03300
C 	C 	0.94228 0.87771 0.38093 -0.04600
N 	N 	0.13543 0.13699 0.20239 -0.10300
N 	N 	0.86583 0.61368 0.06761 -0.10400
N 	N 	0.82416 0.74606 0.48643 -0.10900
