data_crystal

_cell_length_a 10.21823
_cell_length_b 11.67824
_cell_length_c 49.68252
_cell_angle_alpha 90.22042
_cell_angle_beta  90.22897
_cell_angle_gamma 119.35464

_symmetry_space_group_name_	'P 1'
_symmetry_space_group_name_H-M	'P 1'

loop_
_symmetry_equiv_pos_as_xyz
  x,y,z

loop_
_atom_site_label
_atom_site_type_symbol
_atom_site_fract_x
_atom_site_fract_y
_atom_site_fract_z
_atom_site_charge
C 	C 	0.12493 0.59270 0.10206 0.30400
O 	O 	0.10147 0.48984 0.11597 -0.38700
H 	H 	0.16197 0.20678 0.19176 0.08000
C 	C 	0.05471 0.65547 0.03000 -0.05500
C 	C 	0.07557 0.57193 0.07363 -0.06900
C 	C 	0.07989 0.67349 0.05789 0.00700
H 	H 	0.05593 0.73329 0.01800 0.04700
Ni	Ni	0.21861 0.49829 0.14848 1.12100
O 	O 	0.29104 0.38952 0.12630 -0.36900
O 	O 	0.17015 0.70669 0.11417 -0.38000
H 	H 	0.10399 0.76611 0.06707 0.04400
C 	C 	0.37140 0.45606 0.06090 -0.02700
H 	H 	0.32198 0.51709 0.06534 0.04100
C 	C 	0.40710 0.44209 0.10961 0.28600
C 	C 	0.39624 0.38967 0.08204 -0.06500
O 	O 	0.54152 0.51448 0.11920 -0.37700
C 	C 	0.39890 0.35404 0.20034 -0.11300
H 	H 	0.49501 0.34298 0.20588 0.07600
C 	C 	0.47397 0.32047 0.07642 0.00900
C 	C 	0.43852 0.46707 0.03561 0.01900
H 	H 	0.49138 0.26575 0.09226 0.03700
H 	H 	0.32757 0.56001 0.01641 0.04800
Ni	Ni	0.36807 0.80176 0.13428 1.12000
O 	O 	0.39970 0.66202 0.14599 -0.70400
C 	C 	0.42247 0.84798 0.00825 -0.05600
C 	C 	0.41520 0.45339 0.18476 0.32000
O 	O 	0.45681 0.79059 0.09946 -0.40300
H 	H 	0.40813 0.68374 0.16529 0.13600
C 	C 	0.54296 0.90983 0.02641 0.01500
H 	H 	0.49027 0.73338 0.04775 0.04500
C 	C 	0.54982 0.33899 0.05186 -0.05300
C 	C 	0.41492 0.53478 0.01479 -0.06100
Ni	Ni	0.59402 0.67277 0.14335 1.11200
O 	O 	0.55152 0.54384 0.17637 -0.36800
C 	C 	0.63413 0.04687 0.02575 0.01700
C 	C 	0.56459 0.83783 0.04674 -0.01500
C 	C 	0.53778 0.41757 0.03178 0.01600
C 	C 	0.59979 0.83984 0.09543 0.29800
H 	H 	0.62095 0.29581 0.04891 0.04500
C 	C 	0.65484 0.90233 0.06927 -0.07000
O 	O 	0.56698 0.93810 0.15184 -0.38800
O 	O 	0.67896 0.80031 0.10999 -0.36000
C 	C 	0.73381 0.11125 0.04718 -0.06000
C 	C 	0.62304 0.44741 0.00782 -0.02000
C 	C 	0.74731 0.03905 0.06845 -0.00000
C 	C 	0.63186 0.90763 0.17171 0.32200
O 	O 	0.70041 0.84047 0.16640 -0.38100
H 	H 	0.78852 0.21646 0.04881 0.04300
H 	H 	0.70115 0.41135 0.00485 0.04000
H 	H 	0.81613 0.09082 0.08577 0.03100
H 	H 	0.02635 0.23328 0.98424 0.03600
H 	H 	0.05395 0.26289 0.03328 0.05200
C 	C 	0.02931 0.31888 0.99340 0.01600
C 	C 	0.04210 0.33439 0.02119 -0.06700
H 	H 	0.03081 0.37080 0.07345 0.05300
C 	C 	0.03701 0.44055 0.03345 0.01400
C 	C 	0.04018 0.45160 0.06135 -0.02500
C 	C 	0.02831 0.52583 0.98945 -0.01800
C 	C 	0.03803 0.54044 0.01755 0.00600
H 	H 	0.34221 0.74583 0.01025 0.04500
C 	C 	0.61945 0.11787 0.00420 -0.02500
O 	O 	0.30071 0.47431 0.18319 -0.39100
C 	C 	0.16194 0.69113 0.18074 0.31900
O 	O 	0.10424 0.57101 0.16988 -0.36900
C 	C 	0.24380 0.25202 0.20794 -0.11900
O 	O 	0.25774 0.79799 0.16750 -0.39200
H 	H 	0.18512 0.92087 0.19734 0.09200
C 	C 	0.60300 0.92055 0.19749 -0.13800
C 	C 	0.19276 0.24543 0.23302 0.31900
C 	C 	0.10227 0.70793 0.20345 -0.10200
H 	H 	0.54702 0.97609 0.20275 0.08900
H 	H 	0.56880 0.73159 0.21338 0.08200
O 	O 	0.04724 0.20573 0.23678 -0.35600
C 	C 	0.14303 0.84331 0.21230 -0.11800
C 	C 	0.62000 0.83591 0.21798 -0.10600
H 	H 	0.02319 0.62350 0.21499 0.09200
C 	C 	0.16313 0.87916 0.23812 0.32800
O 	O 	0.26677 0.00115 0.24436 -0.38300
O 	O 	0.28174 0.26108 0.25373 -0.37000
C 	C 	0.73246 0.88667 0.23590 0.32500
H 	H 	0.03950 0.01175 0.25034 0.15000
O 	O 	0.75048 0.98839 0.25089 -0.38500
O 	O 	0.80363 0.81919 0.24138 -0.39900
O 	O 	0.06968 0.79936 0.25666 -0.36200
Ni	Ni	0.24638 0.10087 0.27730 1.11200
Ni	Ni	0.93757 0.11814 0.27160 1.09700
O 	O 	0.03803 0.01798 0.27002 -0.69600
O 	O 	0.10283 0.27846 0.29038 -0.37300
Ni	Ni	0.91637 0.83588 0.27593 1.10100
C 	C 	0.17427 0.27275 0.31186 0.34100
O 	O 	0.23506 0.19587 0.31214 -0.37600
O 	O 	0.25594 0.95354 0.29894 -0.37700
O 	O 	0.01060 0.84178 0.31254 -0.36200
H 	H 	0.14651 0.41885 0.33105 0.09300
C 	C 	0.15278 0.87327 0.31564 0.34900
C 	C 	0.20063 0.35858 0.33187 -0.11800
H 	H 	0.39587 0.35337 0.35091 0.08000
H 	H 	0.55988 0.77761 0.33167 0.08600
C 	C 	0.64906 0.87967 0.33202 -0.13200
C 	C 	0.75050 0.92068 0.31219 0.35100
O 	O 	0.74027 0.83282 0.29445 -0.40300
O 	O 	0.83977 0.04774 0.30787 -0.41200
C 	C 	0.19437 0.81851 0.33502 -0.13800
C 	C 	0.31173 0.38378 0.35358 -0.10500
H 	H 	0.31153 0.84245 0.33615 0.09000
H 	H 	0.97945 0.65789 0.35104 0.03400
C 	C 	0.09148 0.73558 0.35638 -0.04800
C 	C 	0.31751 0.45382 0.37544 0.31500
C 	C 	0.66772 0.95702 0.35687 -0.09600
O 	O 	0.20269 0.47472 0.38042 -0.37700
O 	O 	0.42815 0.48569 0.39326 -0.37600
O 	O 	0.62904 0.78221 0.38348 -0.37100
H 	H 	0.68981 0.05773 0.35533 0.06700
C 	C 	0.14708 0.73983 0.38100 0.29400
H 	H 	0.36871 0.69511 0.39216 0.15000
C 	C 	0.62531 0.89378 0.38049 0.30300
O 	O 	0.07423 0.63938 0.39770 -0.37400
O 	O 	0.27099 0.84780 0.38875 -0.37700
O 	O 	0.58949 0.94725 0.40100 -0.37900
Ni	Ni	0.17187 0.54331 0.41596 1.12200
O 	O 	0.22571 0.41345 0.43305 -0.37100
O 	O 	0.36824 0.68751 0.41189 -0.71500
Ni	Ni	0.38890 0.85348 0.42153 1.12000
Ni	Ni	0.53381 0.66011 0.41628 1.11300
O 	O 	0.14164 0.59116 0.45331 -0.38800
O 	O 	0.20071 0.80284 0.44345 -0.37100
C 	C 	0.32503 0.44556 0.45256 0.30300
O 	O 	0.45502 0.55377 0.45143 -0.37700
H 	H 	0.44795 0.28871 0.45994 0.02800
O 	O 	0.67741 0.82482 0.43936 -0.36800
C 	C 	0.13480 0.69806 0.45895 0.29600
C 	C 	0.29653 0.35409 0.47463 -0.07100
O 	O 	0.49320 0.86009 0.45652 -0.38800
C 	C 	0.62964 0.87707 0.45765 0.30300
H 	H 	0.83724 0.52958 0.46359 0.02700
C 	C 	0.37938 0.28775 0.47662 0.01200
H 	H 	0.72071 0.12688 0.47275 0.03200
C 	C 	0.03534 0.69345 0.48089 -0.04700
H 	H 	0.13919 0.39910 0.49413 0.04800
C 	C 	0.20573 0.35015 0.49598 -0.01400
C 	C 	0.38097 0.22671 0.50068 -0.06100
C 	C 	0.72518 0.94752 0.48075 -0.07000
C 	C 	0.74491 0.07166 0.48757 -0.02000
C 	C 	0.88543 0.59169 0.48118 -0.01600
C 	C 	0.09544 0.77551 0.50359 -0.02800
H 	H 	0.21053 0.85531 0.50330 0.04800
H 	H 	0.44894 0.17915 0.50224 0.04300
H 	H 	0.75079 0.78417 0.49417 0.04000
C 	C 	0.76270 0.87874 0.49950 0.01100
H 	H 	0.68588 0.48359 0.50467 0.04300
H 	H 	0.75727 0.29021 0.50730 0.04000
C 	C 	0.79984 0.56495 0.50457 -0.04900
C 	C 	0.21346 0.29597 0.52065 0.01700
C 	C 	0.30459 0.23638 0.52323 0.01800
C 	C 	0.77619 0.11628 0.51429 0.01300
H 	H 	0.70173 0.22010 0.00156 0.03800
C 	C 	0.01068 0.74745 0.52738 0.03000
C 	C 	0.07435 0.82067 0.55101 -0.08200
H 	H 	0.18523 0.90632 0.55065 0.05500
H 	H 	0.07973 0.36339 0.54182 0.05100
C 	C 	0.14508 0.31360 0.54343 -0.05400
C 	C 	0.17286 0.27890 0.56876 0.01000
C 	C 	0.27647 0.23390 0.57177 -0.06700
C 	C 	0.33239 0.20236 0.54886 -0.02700
H 	H 	0.41071 0.16542 0.55119 0.03900
C 	C 	0.79863 0.92446 0.52603 -0.05400
H 	H 	0.81624 0.86564 0.54083 0.05200
H 	H 	0.67651 0.51321 0.55343 0.03600
C 	C 	0.79713 0.03923 0.53391 0.01600
C 	C 	0.78677 0.59992 0.55267 -0.01600
C 	C 	0.77019 0.25768 0.54950 0.00100
C 	C 	0.77021 0.22894 0.52220 -0.05800
H 	H 	0.75421 0.33917 0.55545 0.02900
C 	C 	0.86362 0.63885 0.52807 0.00100
C 	C 	0.80087 0.07075 0.56130 -0.01600
C 	C 	0.77986 0.17608 0.56911 -0.07000
H 	H 	0.12650 0.30050 0.58639 0.03900
H 	H 	0.80945 0.00828 0.57651 0.05000
C 	C 	0.86007 0.66185 0.57676 -0.07800
C 	C 	0.99918 0.77806 0.57558 0.04200
C 	C 	0.36097 0.26266 0.59696 0.28200
H 	H 	0.05487 0.82903 0.59398 0.02100
O 	O 	0.43736 0.38747 0.60480 -0.38600
O 	O 	0.58402 0.11862 0.60129 -0.37700
C 	C 	0.73024 0.18071 0.59640 0.28100
C 	C 	0.82023 0.58358 0.60152 0.28400
O 	O 	0.89254 0.51808 0.60681 -0.37000
H 	H 	0.63997 0.33939 0.61245 0.14400
O 	O 	0.33428 0.16461 0.61365 -0.37700
Ni	Ni	0.49610 0.14979 0.63499 1.12200
O 	O 	0.63609 0.33279 0.63220 -0.71400
O 	O 	0.73552 0.59858 0.62013 -0.36900
O 	O 	0.83103 0.23994 0.61596 -0.35700
Ni	Ni	0.55573 0.44563 0.63912 1.12000
Ni	Ni	0.84116 0.39437 0.63945 1.11500
O 	O 	0.36587 0.32229 0.65890 -0.39500
O 	O 	0.63119 0.09708 0.65535 -0.38100
O 	O 	0.89332 0.56201 0.66261 -0.37300
C 	C 	0.36100 0.23717 0.67678 0.33800
O 	O 	0.40852 0.15419 0.67066 -0.39700
O 	O 	0.65356 0.49709 0.67580 -0.39800
H 	H 	0.24535 0.28874 0.70492 0.08100
C 	C 	0.29464 0.22672 0.70057 -0.11700
H 	H 	0.62925 0.99422 0.70037 0.07800
C 	C 	0.71041 0.16323 0.67647 0.33200
C 	C 	0.70159 0.10010 0.69941 -0.10100
C 	C 	0.79861 0.56921 0.67953 0.33900
O 	O 	0.80605 0.28943 0.67467 -0.37500
C 	C 	0.85067 0.64964 0.70100 -0.11900
H 	H 	0.36721 0.09228 0.71894 0.09100
H 	H 	0.97119 0.71052 0.70390 0.09500
C 	C 	0.29518 0.13582 0.72152 -0.12300
H 	H 	0.83711 0.28153 0.72386 0.09700
H 	H 	0.62541 0.58480 0.71937 0.08700
C 	C 	0.20867 0.10475 0.74341 0.34100
C 	C 	0.74488 0.65411 0.72115 -0.11600
C 	C 	0.79315 0.73869 0.74194 0.33500
C 	C 	0.78477 0.17489 0.72380 -0.12500
C 	C 	0.80399 0.11621 0.74530 0.35500
O 	O 	0.93664 0.82316 0.74470 -0.37500
O 	O 	0.12740 0.16173 0.74804 -0.40800
O 	O 	0.21685 0.02588 0.76134 -0.39700
O 	O 	0.72995 0.98759 0.74737 -0.38900
Ni	Ni	0.04273 0.16160 0.78449 1.10400
Ni	Ni	0.03697 0.88722 0.78104 1.09900
O 	O 	0.69604 0.73170 0.76011 -0.37800
Ni	Ni	0.72096 0.89149 0.78313 1.11100
O 	O 	0.94419 0.17488 0.81848 -0.36200
O 	O 	0.15736 0.95884 0.81491 -0.41000
O 	O 	0.22193 0.17431 0.80493 -0.39400
C 	C 	0.21655 0.08447 0.82203 0.33100
C 	C 	0.29468 0.12528 0.84484 -0.12700
H 	H 	0.32309 0.22165 0.85262 0.08300
C 	C 	0.77323 0.65012 0.84169 -0.11200
H 	H 	0.86602 0.63453 0.84723 0.08700
O 	O 	0.69648 0.77080 0.81580 -0.36800
C 	C 	0.78696 0.72023 0.81951 0.31500
O 	O 	0.69463 0.03170 0.80634 -0.36500
H 	H 	0.64082 0.19490 0.82994 0.08400
O 	O 	0.87703 0.72209 0.79995 -0.36800
C 	C 	0.75706 0.21831 0.83139 -0.11300
C 	C 	0.79959 0.13969 0.81912 0.32700
H 	H 	0.40224 0.00089 0.84189 0.08900
C 	C 	0.37429 0.05835 0.85563 -0.12000
H 	H 	0.52454 0.52604 0.84154 0.08200
C 	C 	0.62437 0.56509 0.85423 -0.11200
C 	C 	0.44865 0.09872 0.87882 0.33200
O 	O 	0.38321 0.11852 0.89954 -0.38100
C 	C 	0.61545 0.51058 0.87843 0.32300
O 	O 	0.49607 0.39736 0.88432 -0.38100
O 	O 	0.57781 0.10077 0.88163 -0.38200
O 	O 	0.71613 0.57763 0.89717 -0.37400
O 	O 	0.88292 0.28258 0.88493 -0.37200
C 	C 	0.88005 0.37053 0.86881 0.32700
Ni	Ni	0.47859 0.29585 0.91991 1.11200
O 	O 	0.44949 0.18803 0.95525 -0.36400
O 	O 	0.67960 0.33043 0.91874 -0.70100
Ni	Ni	0.72349 0.19053 0.91259 1.12300
Ni	Ni	0.84065 0.50762 0.91527 1.12000
O 	O 	0.78558 0.55266 0.95225 -0.37000
H 	H 	0.31092 0.86952 0.97359 0.03700
C 	C 	0.51407 0.11406 0.95875 0.27500
O 	O 	0.53731 0.46778 0.94086 -0.37100
H 	H 	0.48352 0.62348 0.97604 0.04300
C 	C 	0.64382 0.51147 0.95924 0.28100
O 	O 	0.55705 0.07053 0.93784 -0.36700
H 	H 	0.69273 0.33086 0.93829 0.12200
O 	O 	0.87806 0.25114 0.94251 -0.38100
O 	O 	0.99623 0.47118 0.93200 -0.37500
H 	H 	0.02974 0.60237 0.97701 0.03900
C 	C 	0.40192 0.91965 0.98796 0.00600
C 	C 	0.50438 0.05321 0.98493 -0.06200
C 	C 	0.50282 0.56902 0.99171 0.00900
C 	C 	0.60302 0.52127 0.98737 -0.06800
C 	C 	0.96054 0.37651 0.94964 0.30000
O 	O 	0.90809 0.48604 0.87837 -0.38200
C 	C 	0.01363 0.41032 0.97753 -0.09900
C 	C 	0.86732 0.34927 0.84221 -0.11200
O 	O 	0.88440 0.18918 0.76555 -0.38400
O 	O 	0.92924 0.97719 0.78900 -0.70400
H 	H 	0.92922 0.97279 0.80879 0.16100
H 	H 	0.90296 0.43284 0.82890 0.08400
