data_crystal

_cell_length_a 18.54699
_cell_length_b 18.99659
_cell_length_c 39.90692
_cell_angle_alpha 95.44169
_cell_angle_beta  95.44173
_cell_angle_gamma 126.45493

_symmetry_space_group_name_	'P 1'
_symmetry_space_group_name_H-M	'P 1'

loop_
_symmetry_equiv_pos_as_xyz
  x,y,z

loop_
_atom_site_label
_atom_site_type_symbol
_atom_site_fract_x
_atom_site_fract_y
_atom_site_fract_z
_atom_site_charge
C 	C 	0.90930 0.99372 0.96897 0.03500
C 	C 	0.00197 0.04549 0.96683 -0.07300
C 	C 	0.04808 0.00807 0.96749 0.03300
C 	C 	0.00073 0.91756 0.96848 -0.06700
C 	C 	0.90732 0.86400 0.96930 0.03200
C 	C 	0.86142 0.90234 0.97009 -0.07200
H 	H 	0.03906 0.11579 0.96611 0.05300
H 	H 	0.03666 0.88875 0.96875 0.05300
H 	H 	0.78970 0.86181 0.97168 0.05300
C 	C 	0.94247 0.04544 0.49366 0.02600
C 	C 	0.03530 0.09259 0.49216 -0.06700
C 	C 	0.07381 0.04765 0.49042 0.02900
C 	C 	0.01927 0.95578 0.48970 -0.06700
C 	C 	0.92730 0.90936 0.49205 0.02900
C 	C 	0.88880 0.95400 0.49383 -0.07000
H 	H 	0.07733 0.16373 0.49257 0.05300
H 	H 	0.04916 0.92109 0.48856 0.05300
H 	H 	0.81726 0.91774 0.49540 0.05200
Cu	Cu	0.76644 0.34329 0.96661 0.92600
Cu	Cu	0.75981 0.28472 0.04177 0.87300
Cu	Cu	0.61780 0.29412 0.00838 0.89700
Cu	Cu	0.59268 0.32917 0.93813 0.89500
C 	C 	0.69808 0.30195 0.89420 0.28800
O 	O 	0.81559 0.47187 0.96393 -0.35600
C 	C 	0.67803 0.33685 0.08407 0.28900
O 	O 	0.62350 0.26663 0.96171 -0.63800
O 	O 	0.75277 0.36010 0.01465 -0.64200
O 	O 	0.83001 0.28719 0.97258 -0.36800
O 	O 	0.73314 0.19565 0.00568 -0.43700
O 	O 	0.65962 0.34108 0.90010 -0.38500
O 	O 	0.48616 0.22209 0.99960 -0.38200
C 	C 	0.43553 0.21927 0.97308 0.29400
C 	C 	0.77151 0.50303 0.97318 0.28500
O 	O 	0.68670 0.44752 0.97701 -0.39200
O 	O 	0.47220 0.27596 0.95191 -0.39000
O 	O 	0.75631 0.30865 0.91864 -0.36300
C 	C 	0.79267 0.21457 0.98592 0.29300
O 	O 	0.61100 0.30385 0.05755 -0.38700
O 	O 	0.75274 0.34549 0.08057 -0.41800
H 	H 	0.58637 0.20206 0.95222 0.16400
H 	H 	0.78819 0.42288 0.02650 0.17500
Cu	Cu	0.61900 0.22110 0.50878 0.92900
Cu	Cu	0.68478 0.22954 0.43478 0.87600
Cu	Cu	0.66911 0.36441 0.46653 0.89700
Cu	Cu	0.62825 0.38703 0.53537 0.89600
C 	C 	0.64347 0.27815 0.58118 0.29000
O 	O 	0.48766 0.17108 0.50982 -0.36300
C 	C 	0.63348 0.30818 0.39092 0.28900
O 	O 	0.69626 0.35978 0.51342 -0.64100
O 	O 	0.60356 0.23318 0.46034 -0.64000
O 	O 	0.67414 0.15804 0.50399 -0.37200
O 	O 	0.77137 0.25445 0.47238 -0.43800
O 	O 	0.60870 0.31969 0.57332 -0.38600
O 	O 	0.73986 0.49205 0.47556 -0.38700
C 	C 	0.72735 0.53860 0.49755 0.30100
C 	C 	0.45450 0.21157 0.49895 0.28900
O 	O 	0.51018 0.29478 0.49532 -0.39600
O 	O 	0.68531 0.50683 0.52344 -0.39500
O 	O 	0.65248 0.23244 0.55710 -0.36300
C 	C 	0.74874 0.19371 0.49111 0.30000
O 	O 	0.66123 0.37180 0.41738 -0.38700
O 	O 	0.62522 0.23584 0.39497 -0.41800
H 	H 	0.76215 0.39725 0.52350 0.16800
H 	H 	0.53982 0.19749 0.44772 0.17400
C 	C 	0.65141 0.26523 0.61688 -0.08500
C 	C 	0.59635 0.26767 0.63811 0.01600
C 	C 	0.60583 0.25918 0.67225 -0.07000
C 	C 	0.67052 0.24851 0.68569 0.03900
C 	C 	0.72489 0.24467 0.66461 -0.06900
C 	C 	0.71526 0.25280 0.63021 0.01500
C 	C 	0.68273 0.24493 0.72149 -0.02100
C 	C 	0.68825 0.24265 0.75165 -0.02100
C 	C 	0.69058 0.24197 0.78777 0.04000
C 	C 	0.77442 0.29380 0.81071 -0.07000
C 	C 	0.77689 0.30872 0.84597 0.02100
C 	C 	0.69543 0.27249 0.85840 -0.08700
C 	C 	0.61146 0.21624 0.83555 0.01600
C 	C 	0.60908 0.20078 0.80038 -0.07000
H 	H 	0.54647 0.27666 0.62822 0.03600
H 	H 	0.56346 0.26196 0.68840 0.04900
H 	H 	0.77512 0.23640 0.67487 0.04800
H 	H 	0.75834 0.25099 0.61419 0.03400
H 	H 	0.83775 0.32566 0.80117 0.04900
H 	H 	0.84214 0.35195 0.86340 0.03700
H 	H 	0.54818 0.18714 0.84491 0.02000
H 	H 	0.54396 0.16022 0.78282 0.04800
C 	C 	0.62124 0.32279 0.35590 -0.09200
C 	C 	0.68329 0.40686 0.34759 0.01600
C 	C 	0.68118 0.41729 0.31338 -0.07200
C 	C 	0.61721 0.34390 0.28726 0.03900
C 	C 	0.55205 0.26106 0.29561 -0.07200
C 	C 	0.55398 0.25049 0.32981 0.01800
C 	C 	0.62485 0.35118 0.25198 -0.02300
C 	C 	0.63130 0.35735 0.22244 -0.02200
C 	C 	0.64077 0.36319 0.18722 0.03900
C 	C 	0.56472 0.30471 0.16090 -0.07100
C 	C 	0.57608 0.29980 0.12682 0.01500
C 	C 	0.66387 0.35309 0.11887 -0.09100
C 	C 	0.73921 0.41550 0.14513 0.01600
C 	C 	0.72764 0.42033 0.17917 -0.07100
H 	H 	0.73605 0.46297 0.36740 0.03000
H 	H 	0.73159 0.48162 0.30711 0.04700
H 	H 	0.50191 0.20414 0.27555 0.04700
H 	H 	0.50497 0.18556 0.33592 0.02900
H 	H 	0.49725 0.26073 0.16692 0.04800
H 	H 	0.51719 0.25182 0.10683 0.03500
H 	H 	0.80703 0.45840 0.13930 0.03000
H 	H 	0.78667 0.46635 0.19938 0.04700
C 	C 	0.87227 0.81462 0.49412 0.00300
C 	C 	0.81176 0.75054 0.46489 -0.07200
C 	C 	0.76152 0.65985 0.46595 0.05700
C 	C 	0.77347 0.63296 0.49641 -0.09500
C 	C 	0.83180 0.69722 0.52595 -0.00300
C 	C 	0.88074 0.78777 0.52502 -0.00400
S 	S 	0.68119 0.58095 0.42951 -0.05000
S 	S 	0.95151 0.86698 0.56276 -0.04500
H 	H 	0.90338 0.88836 0.57909 0.03500
H 	H 	0.72342 0.56032 0.40883 0.04600
H 	H 	0.80388 0.77137 0.44132 0.05000
H 	H 	0.84000 0.67665 0.54955 0.03600
C 	C 	0.89973 0.09029 0.49306 0.00600
C 	C 	0.85098 0.08169 0.46195 -0.07700
C 	C 	0.79814 0.11170 0.46121 0.06800
C 	C 	0.79639 0.15385 0.49185 -0.10700
C 	C 	0.84548 0.16289 0.52302 0.00300
C 	C 	0.89703 0.13119 0.52379 -0.00700
S 	S 	0.73026 0.09134 0.42211 -0.13000
S 	S 	0.95693 0.14204 0.56334 -0.04400
H 	H 	0.90351 0.06605 0.57639 0.03500
H 	H 	0.64578 0.01116 0.41865 0.03700
H 	H 	0.85163 0.04862 0.43841 0.05300
H 	H 	0.84422 0.19528 0.54660 0.03700
C 	C 	0.35715 0.16967 0.49688 -0.09600
C 	C 	0.30377 0.15198 0.46535 -0.00500
C 	C 	0.21170 0.11568 0.46311 -0.00400
C 	C 	0.17278 0.09760 0.49278 0.00400
C 	C 	0.22679 0.11750 0.52442 -0.07100
C 	C 	0.31846 0.15310 0.52666 0.05500
S 	S 	0.14561 0.09206 0.42304 -0.04400
S 	S 	0.38428 0.17802 0.56698 -0.05100
H 	H 	0.38265 0.10671 0.57189 0.04600
H 	H 	0.10402 0.00568 0.40772 0.03400
H 	H 	0.33378 0.16610 0.44253 0.03200
H 	H 	0.19674 0.10340 0.54724 0.05200
C 	C 	0.81025 0.59700 0.97273 -0.08900
C 	C 	0.81732 0.62544 0.94120 -0.00900
C 	C 	0.84002 0.70962 0.93929 -0.00300
C 	C 	0.85852 0.76765 0.96934 0.00400
C 	C 	0.84945 0.73842 0.00078 -0.07200
C 	C 	0.82567 0.65373 0.00264 0.05200
S 	S 	0.84506 0.74173 0.89909 -0.04100
S 	S 	0.81856 0.62082 0.04274 -0.06600
H 	H 	0.73048 0.57545 0.04789 0.03900
H 	H 	0.93262 0.78684 0.89337 0.03500
H 	H 	0.80276 0.58110 0.91798 0.04000
H 	H 	0.86459 0.78298 0.02403 0.05100
C 	C 	0.82360 0.15862 0.98149 -0.09700
C 	C 	0.80811 0.11253 0.94873 -0.00200
C 	C 	0.82884 0.05240 0.94452 -0.00700
C 	C 	0.86569 0.03807 0.97333 0.00300
C 	C 	0.87902 0.08258 0.00611 -0.07600
C 	C 	0.85986 0.14369 0.01031 0.06000
S 	S 	0.80903 0.99605 0.90308 -0.03600
S 	S 	0.88723 0.20527 0.05153 -0.11200
H 	H 	0.97469 0.28253 0.05676 0.03400
H 	H 	0.88673 0.04409 0.88958 0.03400
H 	H 	0.77900 0.12259 0.92655 0.04000
H 	H 	0.90903 0.07323 0.02825 0.05100
C 	C 	0.14730 0.06469 0.96876 0.00000
C 	C 	0.18089 0.05826 0.93953 -0.06900
C 	C 	0.27492 0.10742 0.94073 0.05400
C 	C 	0.33635 0.16503 0.97137 -0.08800
C 	C 	0.30261 0.17156 0.00057 -0.00900
C 	C 	0.20862 0.12133 0.99950 0.00200
S 	S 	0.31457 0.09274 0.90428 -0.06800
S 	S 	0.16848 0.12850 0.03699 -0.04600
H 	H 	0.15443 0.19168 0.03737 0.03400
H 	H 	0.32304 0.02617 0.90586 0.03300
H 	H 	0.13367 0.01372 0.91602 0.05000
H 	H 	0.34965 0.21585 0.02414 0.04400
