data_crystal

_cell_length_a 45.58574
_cell_length_b 43.61785
_cell_length_c 26.37909
_cell_angle_alpha 89.96909
_cell_angle_beta  89.95252
_cell_angle_gamma 89.99933

_symmetry_space_group_name_	'P 1'
_symmetry_space_group_name_H-M	'P 1'

loop_
_symmetry_equiv_pos_as_xyz
  x,y,z

loop_
_atom_site_label
_atom_site_type_symbol
_atom_site_fract_x
_atom_site_fract_y
_atom_site_fract_z
_atom_site_charge
C 	C 	0.55777 0.44999 0.98109 0.10100
N 	N 	0.52910 0.44877 0.96924 -0.17300
C 	C 	0.51695 0.42817 0.00094 0.10000
C 	C 	0.48760 0.41457 0.99233 -0.07400
C 	C 	0.46310 0.43408 0.97420 0.09000
C 	C 	0.48331 0.38125 0.99850 0.04600
C 	C 	0.48475 0.36189 0.95619 -0.05700
C 	C 	0.47938 0.33051 0.96157 -0.02300
C 	C 	0.47288 0.31819 0.00952 -0.00500
C 	C 	0.47690 0.36902 0.04637 -0.06100
N 	N 	0.46512 0.46484 0.97119 -0.12800
C 	C 	0.43416 0.42464 0.97090 -0.06000
C 	C 	0.43748 0.47504 0.96451 0.09000
C 	C 	0.42927 0.50772 0.97122 -0.07500
C 	C 	0.39808 0.51694 0.96997 0.04600
C 	C 	0.35256 0.52803 0.01409 -0.02200
C 	C 	0.38390 0.52131 0.92339 -0.05700
C 	C 	0.35409 0.52885 0.92211 -0.02500
C 	C 	0.33827 0.53212 0.96748 -0.00200
N 	N 	0.47848 0.53062 0.95474 -0.17200
C 	C 	0.49146 0.55767 0.96473 0.09900
C 	C 	0.47393 0.57549 0.99590 -0.05700
C 	C 	0.44873 0.55860 0.00459 -0.06500
C 	C 	0.52113 0.56621 0.94632 -0.07300
C 	C 	0.53124 0.59825 0.95068 0.04400
C 	C 	0.55981 0.63696 0.99435 -0.02400
C 	C 	0.55166 0.65877 0.95777 -0.00300
C 	C 	0.53279 0.65025 0.91816 -0.02000
C 	C 	0.52262 0.62008 0.91466 -0.05900
N 	N 	0.54200 0.51380 0.95012 -0.12700
C 	C 	0.58427 0.52134 0.90764 -0.06100
C 	C 	0.56765 0.50106 0.93601 0.09000
C 	C 	0.57862 0.47193 0.95792 -0.07400
C 	C 	0.61034 0.46500 0.95790 0.04400
C 	C 	0.62910 0.48009 0.99179 -0.05800
C 	C 	0.65900 0.47299 0.99267 -0.02000
C 	C 	0.67038 0.45069 0.95969 -0.00400
C 	C 	0.65157 0.43581 0.92542 -0.02500
C 	C 	0.62164 0.44282 0.92479 -0.05700
C 	C 	0.56405 0.43069 0.02124 -0.06300
C 	C 	0.53794 0.41635 0.03363 -0.06100
C 	C 	0.47184 0.33760 0.05194 -0.01900
C 	C 	0.41773 0.45091 0.96470 -0.05900
C 	C 	0.45239 0.53120 0.97873 0.10400
C 	C 	0.56776 0.54771 0.90362 -0.05900
C 	C 	0.54190 0.54209 0.92966 0.08900
C 	C 	0.54977 0.60679 0.99062 -0.05600
H 	H 	0.52038 0.45516 0.93415 0.09800
H 	H 	0.48346 0.51669 0.92367 0.09800
H 	H 	0.67329 0.48466 0.01920 0.04600
H 	H 	0.66017 0.41900 0.89909 0.04100
H 	H 	0.62048 0.49720 0.01757 0.05000
H 	H 	0.60727 0.43110 0.89848 0.04800
H 	H 	0.47962 0.31593 0.92835 0.04100
H 	H 	0.47567 0.38390 0.07919 0.05000
H 	H 	0.46681 0.32839 0.08909 0.04600
H 	H 	0.48956 0.37125 0.91905 0.04900
H 	H 	0.34330 0.53218 0.88594 0.04200
H 	H 	0.39593 0.51869 0.88822 0.04900
C 	C 	0.38231 0.52023 0.01531 -0.06000
H 	H 	0.34054 0.53053 0.04929 0.04600
H 	H 	0.57383 0.64341 0.02573 0.04000
H 	H 	0.55635 0.59005 0.01876 0.05000
H 	H 	0.50822 0.61363 0.88380 0.05000
H 	H 	0.52624 0.66691 0.88988 0.04700
H 	H 	0.58568 0.42267 0.03170 0.05100
H 	H 	0.53623 0.39483 0.05383 0.05000
H 	H 	0.42570 0.40327 0.98581 0.05300
H 	H 	0.39469 0.45280 0.97416 0.05200
H 	H 	0.47597 0.60000 0.00114 0.05100
H 	H 	0.42795 0.56809 0.01671 0.05300
H 	H 	0.60784 0.52028 0.90293 0.05200
H 	H 	0.57666 0.57020 0.89552 0.05100
H 	H 	0.39308 0.51669 0.05143 0.05000
Zn	Zn	0.36996 0.10830 0.02019 1.22100
C 	C 	0.31105 0.08649 0.00049 0.30900
O 	O 	0.38650 0.08129 0.07282 -0.44600
O 	O 	0.32249 0.06701 0.96805 -0.42800
O 	O 	0.35501 0.04205 0.05701 -0.48700
C 	C 	0.38219 0.09085 0.91793 0.31600
O 	O 	0.36874 0.11110 0.94644 -0.44500
O 	O 	0.38656 0.06292 0.93470 -0.49200
C 	C 	0.37280 0.05643 0.08799 0.30400
O 	O 	0.41485 0.13554 0.01557 -0.30800
Zn	Zn	0.36079 0.04395 0.98423 1.17400
O 	O 	0.32804 0.10115 0.03261 -0.43300
C 	C 	0.40078 0.15701 0.03948 0.27100
O 	O 	0.37370 0.15093 0.05014 -0.37700
C 	C 	0.51219 0.01789 0.55919 0.01400
C 	C 	0.48852 0.03856 0.55145 0.01200
C 	C 	0.51639 0.99320 0.52567 -0.05400
C 	C 	0.49659 0.98826 0.48568 0.01300
C 	C 	0.46889 0.03377 0.51115 -0.05300
C 	C 	0.47237 0.00837 0.47897 0.01300
H 	H 	0.45085 0.04952 0.50524 0.05300
H 	H 	0.53474 0.97776 0.53100 0.05400
C 	C 	0.45165 0.00174 0.44080 -0.01200
C 	C 	0.45585 0.97754 0.40657 0.00900
C 	C 	0.43985 0.98128 0.36058 -0.04500
C 	C 	0.42354 0.00844 0.35923 -0.00200
S 	S 	0.42985 0.02748 0.41304 0.00300
H 	H 	0.44241 0.96662 0.32784 0.05100
C 	C 	0.49964 0.96286 0.45285 -0.01200
C 	C 	0.48022 0.95811 0.41228 0.00900
C 	C 	0.49273 0.94059 0.37211 -0.04500
C 	C 	0.52192 0.93226 0.38097 -0.00200
S 	S 	0.53163 0.94691 0.43706 0.00300
H 	H 	0.48243 0.93771 0.33551 0.05200
C 	C 	0.52623 0.04627 0.63582 0.01100
C 	C 	0.53118 0.02264 0.60067 -0.01600
S 	S 	0.54917 0.99474 0.63083 0.01400
C 	C 	0.55306 0.01171 0.68700 -0.00200
C 	C 	0.53923 0.04035 0.68398 -0.05000
C 	C 	0.48479 0.06335 0.58530 -0.01200
C 	C 	0.50251 0.06647 0.62856 0.00800
C 	C 	0.48824 0.08244 0.66892 -0.04500
C 	C 	0.45931 0.09086 0.65785 -0.00100
S 	S 	0.45237 0.07900 0.59895 0.00300
H 	H 	0.49693 0.08369 0.70697 0.05100
H 	H 	0.53620 0.05486 0.71678 0.04800
Zn	Zn	0.60561 0.88557 0.01605 1.22200
C 	C 	0.65976 0.91898 0.02921 0.30900
O 	O 	0.58324 0.89010 0.07967 -0.45700
O 	O 	0.64556 0.94375 0.01498 -0.43200
O 	O 	0.60740 0.93294 0.10501 -0.47600
C 	C 	0.59349 0.93016 0.93956 0.31500
O 	O 	0.60933 0.90591 0.95038 -0.44300
O 	O 	0.58246 0.94690 0.97616 -0.49200
C 	C 	0.59147 0.90882 0.11598 0.30400
O 	O 	0.56582 0.85792 0.98100 -0.31600
Zn	Zn	0.60346 0.95268 0.03954 1.17300
O 	O 	0.64525 0.89401 0.04161 -0.43100
C 	C 	0.58250 0.83408 0.98711 0.27000
O 	O 	0.60804 0.83939 0.00656 -0.36600
Zn	Zn	0.12453 0.61594 0.98551 1.22000
C 	C 	0.08740 0.66934 0.96963 0.30800
O 	O 	0.11224 0.59866 0.05158 -0.45400
O 	O 	0.06828 0.65057 0.94904 -0.43100
O 	O 	0.06729 0.62117 0.05030 -0.47700
C 	C 	0.09580 0.59097 0.89824 0.31500
O 	O 	0.11535 0.61103 0.91359 -0.44500
O 	O 	0.07489 0.58198 0.92900 -0.49400
C 	C 	0.08891 0.60871 0.07568 0.30400
O 	O 	0.15808 0.57492 0.97513 -0.30700
Zn	Zn	0.05920 0.60869 0.98128 1.17400
O 	O 	0.11029 0.65835 0.99404 -0.42700
C 	C 	0.17799 0.59519 0.98570 0.26900
O 	O 	0.16844 0.62264 0.99437 -0.37700
C 	C 	0.03205 0.49546 0.51280 0.01400
C 	C 	0.01045 0.47225 0.50665 0.01200
C 	C 	0.03322 0.52016 0.47852 -0.05400
C 	C 	0.01182 0.52307 0.44048 0.01600
C 	C 	0.99002 0.47437 0.46689 -0.05300
C 	C 	0.98982 0.50020 0.43510 0.01300
H 	H 	0.97379 0.45651 0.46174 0.05300
H 	H 	0.05009 0.53749 0.48240 0.05400
C 	C 	0.96687 0.50503 0.40005 -0.01200
C 	C 	0.96630 0.53088 0.36844 0.00800
C 	C 	0.94938 0.52635 0.32365 -0.04100
C 	C 	0.93711 0.49695 0.32037 -0.00600
S 	S 	0.94803 0.47727 0.37126 0.00600
H 	H 	0.94883 0.54243 0.29245 0.05100
C 	C 	0.01014 0.54968 0.41012 -0.01600
C 	C 	0.98797 0.55353 0.37383 0.01100
C 	C 	0.99536 0.57532 0.33572 -0.04600
C 	C 	0.02337 0.58788 0.34204 -0.00600
S 	S 	0.03868 0.57119 0.39251 0.01700
H 	H 	0.98240 0.57918 0.30199 0.04800
C 	C 	0.04851 0.47076 0.59150 0.01100
C 	C 	0.05159 0.49354 0.55425 -0.01500
S 	S 	0.06763 0.52365 0.58168 0.01000
C 	C 	0.07290 0.50891 0.63929 -0.00100
C 	C 	0.06100 0.47929 0.63904 -0.04900
C 	C 	0.00914 0.44803 0.54217 -0.01100
C 	C 	0.02679 0.44809 0.58583 0.00800
C 	C 	0.01404 0.43162 0.62719 -0.04500
C 	C 	0.98640 0.41933 0.61613 -0.00200
S 	S 	0.97855 0.42891 0.55644 0.00200
H 	H 	0.02255 0.43233 0.66541 0.05000
H 	H 	0.05827 0.46609 0.67343 0.04900
Zn	Zn	0.88911 0.39691 0.97683 1.22200
C 	C 	0.84181 0.44038 0.96160 0.31000
O 	O 	0.90916 0.39150 0.91102 -0.45200
O 	O 	0.86107 0.46241 0.96844 -0.44300
O 	O 	0.89213 0.43632 0.87887 -0.47700
C 	C 	0.91361 0.44329 0.04088 0.31400
O 	O 	0.89292 0.42245 0.03737 -0.43400
O 	O 	0.92523 0.45496 0.99964 -0.50500
C 	C 	0.90430 0.40946 0.87192 0.30300
O 	O 	0.92407 0.36373 0.01418 -0.30300
Zn	Zn	0.90260 0.46021 0.93790 1.17300
O 	O 	0.85069 0.41210 0.95346 -0.41700
C 	C 	0.90286 0.34388 0.01509 0.26800
O 	O 	0.87811 0.35334 0.99684 -0.37200
C 	C 	0.97885 0.93667 0.07395 0.10100
N 	N 	0.96596 0.96415 0.06702 -0.17200
C 	C 	0.93849 0.96167 0.08545 0.10200
C 	C 	0.91469 0.98303 0.07089 -0.07600
C 	C 	0.91969 0.01650 0.07158 0.09000
C 	C 	0.88498 0.97126 0.06053 0.04500
C 	C 	0.87797 0.95991 0.01233 -0.05900
C 	C 	0.84905 0.95178 0.00093 -0.02600
C 	C 	0.82704 0.95476 0.03784 -0.00300
C 	C 	0.86316 0.97339 0.09783 -0.05800
N 	N 	0.94240 0.02973 0.09582 -0.12700
C 	C 	0.90568 0.03709 0.03996 -0.06000
C 	C 	0.94245 0.05919 0.08020 0.08900
C 	C 	0.96796 0.07971 0.08714 -0.07500
C 	C 	0.96430 0.11324 0.08141 0.04400
C 	C 	0.94046 0.16067 0.10626 -0.02000
C 	C 	0.98006 0.12913 0.04401 -0.05800
C 	C 	0.97597 0.16066 0.03764 -0.02500
C 	C 	0.95615 0.17660 0.06877 -0.00300
N 	N 	0.00825 0.04202 0.07739 -0.17200
C 	C 	0.03730 0.04244 0.08643 0.10200
C 	C 	0.04464 0.06753 0.11604 -0.06200
C 	C 	0.01877 0.08303 0.12537 -0.06100
C 	C 	0.05850 0.02499 0.05521 -0.07600
C 	C 	0.08740 0.03819 0.04300 0.04500
C 	C 	0.13946 0.04197 0.06036 -0.02000
C 	C 	0.14352 0.05819 0.01497 -0.00600
C 	C 	0.11925 0.06520 0.98438 -0.02300
C 	C 	0.09123 0.05532 0.99850 -0.05800
N 	N 	0.03293 0.97527 0.06721 -0.12700
C 	C 	0.04650 0.95139 0.99513 -0.05900
C 	C 	0.02967 0.94989 0.03867 0.08900
C 	C 	0.00598 0.92740 0.04697 -0.07500
C 	C 	0.01133 0.89487 0.03466 0.04500
C 	C 	0.03012 0.87734 0.06513 -0.05700
C 	C 	0.03664 0.84707 0.05197 -0.01900
C 	C 	0.02448 0.83408 0.00808 -0.00600
C 	C 	0.00559 0.85166 0.97761 -0.02300
C 	C 	0.99891 0.88189 0.99108 -0.05800
C 	C 	0.95958 0.91642 0.09696 -0.06100
C 	C 	0.93376 0.93239 0.10430 -0.06100
C 	C 	0.83432 0.96501 0.08662 -0.02100
C 	C 	0.92033 0.06448 0.04538 -0.06000
C 	C 	0.99688 0.06670 0.10092 0.10100
C 	C 	0.06118 0.97894 0.99727 -0.05900
C 	C 	0.05248 0.99273 0.04201 0.08900
C 	C 	0.11152 0.03185 0.07416 -0.05800
H 	H 	0.97228 0.97997 0.03930 0.09300
H 	H 	0.99862 0.03127 0.04614 0.09300
H 	H 	0.05113 0.83371 0.07588 0.04700
H 	H 	0.99641 0.84207 0.94324 0.03900
H 	H 	0.03981 0.88725 0.09885 0.05200
H 	H 	0.98451 0.89538 0.96720 0.04700
H 	H 	0.84367 0.94359 0.96330 0.04200
H 	H 	0.86847 0.98204 0.13521 0.05100
H 	H 	0.81749 0.96725 0.11540 0.04600
H 	H 	0.89477 0.95812 0.98340 0.04800
H 	H 	0.98788 0.17262 0.00806 0.04100
H 	H 	0.99523 0.11698 0.01958 0.04700
C 	C 	0.94455 0.12914 0.11259 -0.05700
H 	H 	0.92510 0.17273 0.13046 0.04700
H 	H 	0.15807 0.03655 0.08427 0.04600
H 	H 	0.10867 0.01869 0.10865 0.05200
H 	H 	0.07264 0.06034 0.97433 0.04700
H 	H 	0.12216 0.07794 0.94947 0.04100
H 	H 	0.96111 0.89168 0.09495 0.05100
H 	H 	0.91246 0.92176 0.10871 0.05200
H 	H 	0.89273 0.03083 0.00718 0.04900
H 	H 	0.92057 0.08252 0.01716 0.05100
H 	H 	0.06619 0.07790 0.11773 0.05300
H 	H 	0.01749 0.10705 0.13539 0.05200
H 	H 	0.04200 0.93888 0.96055 0.05000
H 	H 	0.06982 0.99098 0.96462 0.04900
H 	H 	0.93234 0.11706 0.14164 0.05200
C 	C 	0.91757 0.25030 0.04694 0.09600
C 	C 	0.94110 0.27106 0.04477 0.09100
N 	N 	0.93586 0.30119 0.03542 -0.09000
C 	C 	0.90798 0.31148 0.02794 -0.01400
C 	C 	0.88443 0.29071 0.03086 0.04000
N 	N 	0.88972 0.26054 0.04024 -0.11000
N 	N 	0.92286 0.22005 0.05493 -0.11400
N 	N 	0.96897 0.26077 0.05115 -0.10300
H 	H 	0.86209 0.29848 0.02547 0.04900
C 	C 	0.95081 0.20960 0.06073 0.05000
C 	C 	0.97430 0.23047 0.05923 0.00200
H 	H 	0.99662 0.22262 0.06463 0.04200
C 	C 	0.92695 0.41791 0.73813 0.08500
C 	C 	0.94911 0.39565 0.73433 0.09500
N 	N 	0.96709 0.39539 0.69322 -0.11400
C 	C 	0.96364 0.41634 0.65539 0.05300
C 	C 	0.94073 0.43789 0.65850 0.00100
N 	N 	0.92290 0.43823 0.69981 -0.10700
N 	N 	0.91140 0.42062 0.78179 -0.09400
N 	N 	0.95386 0.37606 0.77351 -0.11200
H 	H 	0.93798 0.45512 0.62935 0.04200
C 	C 	0.91704 0.40202 0.82208 -0.04100
C 	C 	0.93813 0.37862 0.81718 0.04300
H 	H 	0.94278 0.36336 0.84853 0.04600
C 	C 	0.93900 0.47799 0.18360 0.09600
C 	C 	0.91610 0.45658 0.17974 0.08900
N 	N 	0.90858 0.44518 0.13359 -0.08500
C 	C 	0.92315 0.45430 0.09103 -0.03700
C 	C 	0.94651 0.47525 0.09528 0.04300
N 	N 	0.95387 0.48671 0.14144 -0.11700
N 	N 	0.94569 0.49038 0.22930 -0.11600
N 	N 	0.90112 0.44803 0.22200 -0.10200
H 	H 	0.95857 0.48256 0.06204 0.02900
C 	C 	0.93052 0.48213 0.27164 0.05500
C 	C 	0.90795 0.46031 0.26794 0.00200
H 	H 	0.89563 0.45358 0.30124 0.04400
C 	C 	0.04562 0.74210 0.97373 0.08700
C 	C 	0.06776 0.76333 0.98545 0.09700
N 	N 	0.06058 0.79298 0.99511 -0.11500
C 	C 	0.03208 0.80234 0.99365 0.05100
C 	C 	0.00998 0.78107 0.98156 0.00100
N 	N 	0.01722 0.75140 0.97174 -0.10700
N 	N 	0.05260 0.71212 0.96686 -0.09400
N 	N 	0.09604 0.75382 0.98909 -0.11200
H 	H 	0.98716 0.78796 0.98113 0.03900
C 	C 	0.08084 0.70235 0.97174 -0.03100
C 	C 	0.10305 0.72376 0.98244 0.04800
H 	H 	0.12567 0.71649 0.98592 0.04500
C 	C 	0.09773 0.55254 0.75168 0.09700
C 	C 	0.07094 0.55831 0.77627 0.08600
N 	N 	0.07083 0.57141 0.82290 -0.09600
C 	C 	0.09641 0.57943 0.84593 -0.03600
C 	C 	0.12318 0.57445 0.82072 0.04900
N 	N 	0.12330 0.56095 0.77417 -0.11000
N 	N 	0.09793 0.53745 0.70658 -0.11200
N 	N 	0.04539 0.54965 0.75415 -0.10900
H 	H 	0.14375 0.58048 0.83863 0.04500
C 	C 	0.07233 0.52811 0.68495 0.05300
C 	C 	0.04553 0.53482 0.70886 -0.00000
H 	H 	0.02500 0.52763 0.69197 0.04000
C 	C 	0.06168 0.61805 0.20655 0.08700
C 	C 	0.07111 0.59059 0.22913 0.09600
N 	N 	0.06020 0.58219 0.27506 -0.11300
C 	C 	0.04032 0.60029 0.29945 0.05500
C 	C 	0.03220 0.62849 0.27800 -0.00000
N 	N 	0.04295 0.63676 0.23191 -0.10500
N 	N 	0.06923 0.62436 0.15788 -0.09000
N 	N 	0.08895 0.57132 0.20289 -0.11200
H 	H 	0.01637 0.64306 0.29689 0.04300
C 	C 	0.08604 0.60448 0.13072 -0.03700
C 	C 	0.09681 0.57783 0.15426 0.04200
H 	H 	0.11019 0.56172 0.13326 0.04000
C 	C 	0.75169 0.92351 0.04436 0.09600
C 	C 	0.73698 0.94228 0.00934 0.08700
N 	N 	0.70742 0.94009 0.00437 -0.09100
C 	C 	0.69191 0.91955 0.03258 -0.03300
C 	C 	0.70677 0.90024 0.06669 0.04600
N 	N 	0.73635 0.90273 0.07206 -0.11200
N 	N 	0.78095 0.92711 0.05175 -0.11500
N 	N 	0.75228 0.96327 0.98200 -0.10400
H 	H 	0.69478 0.88391 0.08966 0.04600
C 	C 	0.79625 0.94850 0.02500 0.04800
C 	C 	0.78165 0.96668 0.98898 0.00200
H 	H 	0.79347 0.98400 0.96779 0.04100
C 	C 	0.55923 0.96555 0.82703 0.08700
C 	C 	0.58188 0.96325 0.79107 0.09700
N 	N 	0.57919 0.97760 0.74555 -0.11300
C 	C 	0.55465 0.99411 0.73452 0.05400
C 	C 	0.53144 0.99511 0.76969 0.00100
N 	N 	0.53433 0.98104 0.81537 -0.10600
N 	N 	0.56296 0.95357 0.87404 -0.09200
N 	N 	0.60691 0.94796 0.80303 -0.11100
H 	H 	0.51137 0.00725 0.76087 0.04100
C 	C 	0.58830 0.93893 0.88661 -0.03700
C 	C 	0.61050 0.93556 0.84999 0.04700
H 	H 	0.63088 0.92417 0.85944 0.04500
C 	C 	0.57460 0.92479 0.25068 0.08600
C 	C 	0.55263 0.90306 0.26075 0.09600
N 	N 	0.53716 0.90468 0.30467 -0.11400
C 	C 	0.54277 0.92713 0.33920 0.05300
C 	C 	0.56557 0.94815 0.32984 0.00100
N 	N 	0.58097 0.94655 0.28575 -0.10600
N 	N 	0.58778 0.92534 0.20453 -0.09300
N 	N 	0.54552 0.88200 0.22492 -0.11300
H 	H 	0.57008 0.96649 0.35633 0.04300
C 	C 	0.57992 0.90502 0.16778 -0.03900
C 	C 	0.55882 0.88240 0.17874 0.04400
H 	H 	0.55249 0.86578 0.15032 0.04400
C 	C 	0.21933 0.08785 0.01990 0.09500
C 	C 	0.23195 0.07334 0.97765 0.08800
N 	N 	0.26147 0.07423 0.97092 -0.09100
C 	C 	0.27896 0.08921 0.00462 -0.03300
C 	C 	0.26610 0.10490 0.04562 0.04600
N 	N 	0.23657 0.10373 0.05255 -0.11200
N 	N 	0.19033 0.08412 0.02974 -0.11500
N 	N 	0.21480 0.05677 0.94575 -0.10500
H 	H 	0.27957 0.11721 0.07257 0.04700
C 	C 	0.17328 0.06667 0.99878 0.05200
C 	C 	0.18567 0.05327 0.95533 0.00000
H 	H 	0.17244 0.03913 0.93054 0.04100
C 	C 	0.40310 0.08381 0.78340 0.08900
C 	C 	0.42063 0.10999 0.77673 0.09700
N 	N 	0.43719 0.11293 0.73414 -0.11300
C 	C 	0.43663 0.09092 0.69754 0.05300
C 	C 	0.41797 0.06545 0.70336 0.00200
N 	N 	0.40169 0.06239 0.74622 -0.10600
N 	N 	0.38960 0.07887 0.82851 -0.09400
N 	N 	0.42271 0.13095 0.81465 -0.11000
H 	H 	0.41763 0.04741 0.67520 0.04300
C 	C 	0.39248 0.09927 0.86718 -0.03400
C 	C 	0.40876 0.12624 0.85964 0.04800
H 	H 	0.41136 0.14264 0.89011 0.04500
C 	C 	0.38940 0.02021 0.23362 0.09600
C 	C 	0.40170 0.04832 0.21867 0.08700
N 	N 	0.39584 0.05976 0.17186 -0.08800
C 	C 	0.37805 0.04425 0.13928 -0.03800
C 	C 	0.36542 0.01629 0.15469 0.04300
N 	N 	0.37143 0.00484 0.20148 -0.11400
N 	N 	0.39616 0.00818 0.27960 -0.11500
N 	N 	0.41997 0.06349 0.25062 -0.10300
H 	H 	0.35116 0.00364 0.12946 0.03400
C 	C 	0.41457 0.02323 0.31165 0.05300
C 	C 	0.42668 0.05152 0.29682 0.00200
H 	H 	0.44190 0.06349 0.32128 0.04400
C 	C 	0.43156 0.24805 0.04431 0.09600
C 	C 	0.44791 0.22514 0.01975 0.08900
N 	N 	0.43817 0.19571 0.02005 -0.09100
C 	C 	0.41268 0.18822 0.04405 -0.01600
C 	C 	0.39690 0.21104 0.07005 0.04100
N 	N 	0.40661 0.24051 0.06945 -0.11100
N 	N 	0.44027 0.27774 0.04128 -0.11500
N 	N 	0.47278 0.23276 0.99431 -0.10300
H 	H 	0.37681 0.20545 0.08993 0.04900
C 	C 	0.46478 0.28558 0.01476 0.05000
C 	C 	0.48167 0.26249 0.99161 0.00300
H 	H 	0.50163 0.26822 0.97145 0.04100
C 	C 	0.24800 0.55372 0.96518 0.09000
C 	C 	0.26827 0.57358 0.98818 0.09700
N 	N 	0.29723 0.56625 0.98851 -0.11400
C 	C 	0.30684 0.53994 0.96625 0.05000
C 	C 	0.28656 0.52014 0.94311 0.00200
N 	N 	0.25753 0.52741 0.94311 -0.10300
N 	N 	0.21902 0.56101 0.96498 -0.09100
N 	N 	0.25878 0.60004 0.00977 -0.11100
H 	H 	0.29385 0.49902 0.92562 0.04300
C 	C 	0.20945 0.58759 0.98646 -0.01400
C 	C 	0.22981 0.60749 0.00928 0.03900
H 	H 	0.22259 0.62862 0.02683 0.04800
C 	C 	0.75122 0.46077 0.96041 0.09600
C 	C 	0.76100 0.43025 0.96200 0.09000
N 	N 	0.79023 0.42417 0.96254 -0.08600
C 	C 	0.81018 0.44743 0.96185 -0.03100
C 	C 	0.80029 0.47799 0.96051 0.04500
N 	N 	0.77102 0.48401 0.95976 -0.11400
N 	N 	0.72201 0.46685 0.95950 -0.11500
N 	N 	0.74118 0.40702 0.96307 -0.10300
H 	H 	0.81576 0.49680 0.95963 0.03300
C 	C 	0.70206 0.44361 0.96017 0.05000
C 	C 	0.71190 0.41307 0.96240 0.00200
H 	H 	0.69635 0.39433 0.96402 0.04200
C 	C 	0.55249 0.74375 0.96325 0.09600
C 	C 	0.58235 0.74971 0.97182 0.09100
N 	N 	0.59160 0.77899 0.97866 -0.08900
C 	C 	0.57223 0.80273 0.97694 -0.01600
C 	C 	0.54240 0.79677 0.96743 0.04000
N 	N 	0.53314 0.76738 0.96094 -0.11100
N 	N 	0.54307 0.71437 0.95829 -0.11400
N 	N 	0.60172 0.72611 0.97408 -0.10300
H 	H 	0.52666 0.81532 0.96597 0.04700
C 	C 	0.56237 0.69060 0.96147 0.05100
C 	C 	0.59237 0.69668 0.96878 0.00200
H 	H 	0.60809 0.67810 0.97027 0.04100
