data_crystal

_cell_length_a 15.30026
_cell_length_b 15.29976
_cell_length_c 35.26959
_cell_angle_alpha 95.38120
_cell_angle_beta  95.38315
_cell_angle_gamma 126.68460

_symmetry_space_group_name_	'P 1'
_symmetry_space_group_name_H-M	'P 1'

loop_
_symmetry_equiv_pos_as_xyz
  x,y,z

loop_
_atom_site_label
_atom_site_type_symbol
_atom_site_fract_x
_atom_site_fract_y
_atom_site_fract_z
_atom_site_charge
C 	C 	0.86204 0.98259 0.96540 0.02800
C 	C 	0.80034 0.86765 0.96305 -0.07200
C 	C 	0.85084 0.81637 0.95844 0.03000
C 	C 	0.96386 0.88053 0.95597 -0.06200
C 	C 	0.02588 0.99568 0.95817 0.02100
C 	C 	0.97502 0.04650 0.96301 -0.06400
H 	H 	0.71313 0.81818 0.96490 0.04800
H 	H 	0.00269 0.84083 0.95162 0.04700
H 	H 	0.02378 0.13577 0.96570 0.04500
C 	C 	0.97901 0.08437 0.49689 0.03400
C 	C 	0.09483 0.15102 0.50152 -0.08100
C 	C 	0.15087 0.10718 0.51053 0.03300
C 	C 	0.09041 0.99598 0.51535 -0.08100
C 	C 	0.97420 0.92826 0.50977 0.03700
C 	C 	0.91863 0.97245 0.50047 -0.07800
H 	H 	0.14134 0.23711 0.49833 0.04800
H 	H 	0.13356 0.96256 0.52355 0.05000
H 	H 	0.82878 0.92000 0.49602 0.05100
Cu	Cu	0.72745 0.32382 0.95349 0.93000
Cu	Cu	0.75392 0.25090 0.03576 0.86700
Cu	Cu	0.57154 0.26404 0.01121 0.89400
Cu	Cu	0.51297 0.30733 0.93545 0.89200
C 	C 	0.62755 0.28620 0.87431 0.29500
O 	O 	0.78483 0.48150 0.95243 -0.36700
C 	C 	0.66136 0.29566 0.09350 0.28900
O 	O 	0.55856 0.22868 0.95634 -0.64000
O 	O 	0.73296 0.34545 0.01017 -0.64400
O 	O 	0.81351 0.26505 0.95183 -0.37600
O 	O 	0.71727 0.14590 0.99185 -0.44300
O 	O 	0.57629 0.32546 0.88698 -0.38700
O 	O 	0.41298 0.17442 0.00919 -0.39500
C 	C 	0.34118 0.16434 0.98165 0.31000
C 	C 	0.74225 0.52419 0.96955 0.29800
O 	O 	0.64130 0.45890 0.97688 -0.39000
O 	O 	0.37413 0.23583 0.95772 -0.39700
O 	O 	0.69361 0.27878 0.89835 -0.36100
C 	C 	0.78172 0.17614 0.96601 0.31100
O 	O 	0.58749 0.28931 0.06808 -0.38100
O 	O 	0.75282 0.31722 0.08406 -0.41600
H 	H 	0.51098 0.14829 0.94537 0.16400
H 	H 	0.78009 0.42348 0.02404 0.17200
Cu	Cu	0.64819 0.22795 0.51626 0.92800
Cu	Cu	0.70559 0.19853 0.43095 0.86600
Cu	Cu	0.69500 0.38137 0.45867 0.89600
Cu	Cu	0.67398 0.44834 0.53895 0.89300
C 	C 	0.67455 0.31309 0.59517 0.29600
O 	O 	0.49279 0.16880 0.52124 -0.37900
C 	C 	0.64895 0.29035 0.37578 0.28800
O 	O 	0.74203 0.39714 0.51282 -0.64000
O 	O 	0.61650 0.22059 0.45996 -0.64300
O 	O 	0.70433 0.13980 0.51539 -0.38000
O 	O 	0.81517 0.23061 0.47243 -0.44600
O 	O 	0.69246 0.40656 0.58960 -0.38200
O 	O 	0.78287 0.53933 0.45963 -0.38700
C 	C 	0.79545 0.61217 0.48739 0.30600
C 	C 	0.44828 0.21516 0.50961 0.30400
O 	O 	0.51103 0.31720 0.50308 -0.39100
O 	O 	0.73003 0.58005 0.51340 -0.39400
O 	O 	0.69807 0.26202 0.57092 -0.36600
C 	C 	0.78776 0.16672 0.49845 0.31000
O 	O 	0.65393 0.36091 0.40238 -0.37700
O 	O 	0.63323 0.20014 0.38401 -0.42000
H 	H 	0.82348 0.44292 0.52126 0.16400
H 	H 	0.53689 0.17327 0.44788 0.17200
C 	C 	0.55552 0.24203 0.68648 -0.07400
C 	C 	0.64364 0.25962 0.71147 0.01300
C 	C 	0.73647 0.28222 0.69684 -0.00600
C 	C 	0.74342 0.29418 0.65811 -0.00000
C 	C 	0.65868 0.28423 0.63386 -0.09000
C 	C 	0.56278 0.25482 0.64786 0.05600
C 	C 	0.64381 0.26747 0.75357 0.01200
S 	S 	0.84607 0.29956 0.72706 -0.03700
H 	H 	0.81649 0.31505 0.64725 0.04300
S 	S 	0.45154 0.23417 0.61738 -0.06300
H 	H 	0.48319 0.22270 0.69753 0.05100
C 	C 	0.68465 0.36888 0.77703 -0.00600
C 	C 	0.67930 0.37386 0.81644 -0.00200
C 	C 	0.63428 0.27875 0.83293 -0.08900
C 	C 	0.59507 0.17761 0.80964 0.05400
C 	C 	0.59964 0.17243 0.77006 -0.07200
S 	S 	0.74261 0.49015 0.75734 -0.04000
H 	H 	0.71043 0.45194 0.83438 0.04200
S 	S 	0.53727 0.05649 0.82938 -0.05200
H 	H 	0.56823 0.09438 0.75203 0.05200
H 	H 	0.38095 0.12632 0.59797 0.04200
H 	H 	0.65989 0.49538 0.74282 0.03500
H 	H 	0.42584 0.00279 0.82715 0.03000
H 	H 	0.92035 0.40822 0.74544 0.03800
C 	C 	0.65383 0.23199 0.19483 -0.07600
C 	C 	0.63428 0.30223 0.21343 0.01400
C 	C 	0.62019 0.36804 0.19227 -0.00700
C 	C 	0.62826 0.36468 0.15299 -0.00100
C 	C 	0.64949 0.29553 0.13450 -0.09600
C 	C 	0.65982 0.22695 0.15546 0.05900
C 	C 	0.63116 0.30778 0.25532 0.01200
S 	S 	0.59069 0.45338 0.21443 -0.04200
H 	H 	0.61896 0.41653 0.13692 0.04000
S 	S 	0.67450 0.13038 0.13233 -0.09200
H 	H 	0.66326 0.18032 0.21098 0.05100
C 	C 	0.53752 0.22218 0.26862 -0.00700
C 	C 	0.54283 0.21916 0.30827 -0.00200
C 	C 	0.64022 0.30191 0.33493 -0.09300
C 	C 	0.73154 0.39110 0.32183 0.05200
C 	C 	0.72668 0.39324 0.28213 -0.07200
S 	S 	0.41355 0.11830 0.23589 -0.04600
H 	H 	0.47172 0.15163 0.31835 0.03700
S 	S 	0.85406 0.49801 0.35462 -0.05800
H 	H 	0.79838 0.45976 0.27198 0.05200
H 	H 	0.57153 0.03226 0.11776 0.03000
H 	H 	0.41701 0.03357 0.22253 0.03200
H 	H 	0.92275 0.46884 0.35982 0.02500
H 	H 	0.47824 0.39309 0.21180 0.03500
C 	C 	0.91053 0.81145 0.51451 -0.00600
C 	C 	0.86444 0.72981 0.48346 -0.14200
H 	H 	0.90010 0.79217 0.54340 0.03300
H 	H 	0.88006 0.75027 0.45493 0.07800
C 	C 	0.92102 0.13146 0.48717 -0.00500
C 	C 	0.84964 0.12407 0.50868 -0.15300
H 	H 	0.94045 0.17640 0.46330 0.02900
H 	H 	0.83362 0.08226 0.53333 0.08000
C 	C 	0.27348 0.18005 0.51698 -0.00300
C 	C 	0.32702 0.14788 0.49984 -0.14500
H 	H 	0.32023 0.26205 0.53501 0.03100
H 	H 	0.28048 0.06637 0.48153 0.06900
C 	C 	0.80443 0.64507 0.97750 -0.13200
C 	C 	0.78262 0.69426 0.95290 -0.00300
H 	H 	0.87448 0.69487 0.00154 0.06100
H 	H 	0.71156 0.64403 0.92919 0.03100
C 	C 	0.81028 0.03666 0.97402 -0.00200
C 	C 	0.82506 0.11536 0.95492 -0.15300
H 	H 	0.75767 0.00999 0.99572 0.03000
H 	H 	0.87323 0.13804 0.93191 0.08000
C 	C 	0.22194 0.08724 0.98333 -0.13800
C 	C 	0.14346 0.06320 0.95417 -0.00400
H 	H 	0.19781 0.04929 0.00877 0.06900
H 	H 	0.16658 0.10044 0.92857 0.03400
