data_crystal

_cell_length_a 26.93512
_cell_length_b 28.36668
_cell_length_c 38.58655
_cell_angle_alpha 60.89219
_cell_angle_beta  118.86329
_cell_angle_gamma 133.11040

_symmetry_space_group_name_	'P 1'
_symmetry_space_group_name_H-M	'P 1'

loop_
_symmetry_equiv_pos_as_xyz
  x,y,z

loop_
_atom_site_label
_atom_site_type_symbol
_atom_site_fract_x
_atom_site_fract_y
_atom_site_fract_z
_atom_site_charge
C 	C 	0.70427 0.35555 0.97311 0.12200
N 	N 	0.75225 0.40163 0.99583 -0.14700
C 	C 	0.73086 0.41875 0.01043 0.13100
N 	N 	0.66169 0.38810 0.00373 -0.14200
C 	C 	0.61373 0.34117 0.98205 0.12600
N 	N 	0.63511 0.32741 0.96497 -0.14500
C 	C 	0.75257 0.29904 0.53629 0.12500
N 	N 	0.69919 0.25060 0.55563 -0.14400
C 	C 	0.67465 0.26708 0.56819 0.12800
N 	N 	0.70255 0.33191 0.56072 -0.14400
C 	C 	0.75606 0.38054 0.54174 0.12600
N 	N 	0.78127 0.36424 0.52947 -0.14500
C 	C 	0.26407 0.64772 0.21841 0.12600
N 	N 	0.32490 0.69984 0.20630 -0.14400
C 	C 	0.36060 0.68876 0.19939 0.12900
N 	N 	0.33428 0.62589 0.20300 -0.14300
C 	C 	0.27348 0.57346 0.21486 0.12700
N 	N 	0.23790 0.58420 0.22254 -0.14300
C 	C 	0.24670 0.58749 0.70622 0.12700
N 	N 	0.24059 0.53084 0.73264 -0.14400
C 	C 	0.27748 0.51364 0.73333 0.12900
N 	N 	0.32441 0.55587 0.70973 -0.14400
C 	C 	0.33228 0.61325 0.68424 0.13000
N 	N 	0.29295 0.62872 0.68215 -0.14400
Co	Co	0.05007 0.03514 0.06718 1.18500
Co	Co	0.96142 0.96727 0.16600 1.19000
Co	Co	0.01087 0.09025 0.10009 1.18800
Co	Co	0.99994 0.91196 0.13237 1.18200
C 	C 	0.19003 0.07301 0.07681 0.30900
Co	Co	0.07565 0.93148 0.07657 1.17400
Co	Co	0.96261 0.08313 0.16624 1.16300
C 	C 	0.93663 0.80724 0.09053 0.30200
O 	O 	0.88848 0.08072 0.11260 -0.40000
O 	O 	0.97583 0.04208 0.14127 -0.77000
C 	C 	0.90790 0.12141 0.07810 0.30500
O 	O 	0.04719 0.11080 0.05573 -0.46300
O 	O 	0.95766 0.88866 0.17464 -0.45900
C 	C 	0.84154 0.93966 0.17871 0.32300
O 	O 	0.97977 0.98977 0.10671 -0.58000
C 	C 	0.09805 0.19783 0.14185 0.31900
C 	C 	0.01930 0.99479 0.99577 0.37000
C 	C 	0.10933 0.88866 0.16781 0.31400
O 	O 	0.94418 0.12051 0.06444 -0.38300
O 	O 	0.07094 0.98899 0.01710 -0.40200
O 	O 	0.00432 0.01805 0.00899 -0.38800
O 	O 	0.88953 0.98992 0.19594 -0.39100
O 	O 	0.85910 0.91971 0.16477 -0.38400
O 	O 	0.03734 0.17978 0.13988 -0.40900
O 	O 	0.10116 0.16317 0.13041 -0.40400
O 	O 	0.08445 0.87087 0.13424 -0.40900
O 	O 	0.08955 0.91753 0.17126 -0.39900
O 	O 	0.03489 0.95998 0.09129 -0.75200
C 	C 	0.03401 0.02676 0.23891 0.33800
O 	O 	0.04008 0.08254 0.21678 -0.39700
O 	O 	0.02817 0.99097 0.22250 -0.36000
O 	O 	0.17563 0.01307 0.09267 -0.40200
O 	O 	0.15785 0.08744 0.08276 -0.40500
O 	O 	0.97208 0.85333 0.06205 -0.36100
O 	O 	0.92876 0.82276 0.11415 -0.37900
Co	Co	0.07602 0.99063 0.59491 1.19100
Co	Co	0.93455 0.91713 0.66365 1.18800
Co	Co	0.01777 0.04735 0.61061 1.18400
Co	Co	0.98969 0.85969 0.64584 1.18200
C 	C 	0.21021 0.01257 0.60911 0.30500
Co	Co	0.08027 0.87298 0.60402 1.17200
Co	Co	0.91648 0.02778 0.64833 1.16600
C 	C 	0.92690 0.76870 0.59733 0.31700
O 	O 	0.87132 0.03781 0.58676 -0.40500
O 	O 	0.96432 0.99698 0.64314 -0.76200
C 	C 	0.90970 0.07629 0.55993 0.30500
O 	O 	0.08131 0.07193 0.58182 -0.46900
O 	O 	0.92629 0.83490 0.67484 -0.46800
C 	C 	0.79626 0.88924 0.63894 0.31500
O 	O 	0.02609 0.96107 0.64193 -0.57500
C 	C 	0.06623 0.14423 0.65094 0.31300
C 	C 	0.04446 0.95020 0.52273 0.35000
C 	C 	0.08321 0.81089 0.69160 0.30800
O 	O 	0.94775 0.06308 0.55921 -0.40300
O 	O 	0.03180 0.89135 0.54323 -0.38800
O 	O 	0.03451 0.97846 0.53546 -0.39200
O 	O 	0.82695 0.93164 0.65991 -0.37700
O 	O 	0.83395 0.88465 0.63001 -0.40600
O 	O 	0.00189 0.12686 0.63656 -0.40100
O 	O 	0.08683 0.12412 0.63956 -0.39300
O 	O 	0.12387 0.85746 0.66582 -0.39600
O 	O 	0.03585 0.81208 0.69318 -0.37500
O 	O 	0.05067 0.91227 0.61824 -0.76100
C 	C 	0.94917 0.95474 0.73309 0.36100
O 	O 	0.96599 0.01396 0.70924 -0.40600
O 	O 	0.94420 0.91301 0.72254 -0.38100
O 	O 	0.17232 0.96497 0.59061 -0.36400
O 	O 	0.18132 0.03044 0.61510 -0.39400
O 	O 	0.98784 0.77830 0.61313 -0.41500
O 	O 	0.91644 0.80261 0.60375 -0.40800
C 	C 	0.92407 0.91330 0.91031 -0.15700
C 	C 	0.96361 0.96619 0.88133 0.01000
C 	C 	0.01106 0.03121 0.88687 0.28900
C 	C 	0.02350 0.04201 0.92291 -0.05500
C 	C 	0.98828 0.98820 0.95348 -0.16400
C 	C 	0.93587 0.92433 0.94606 0.36600
C 	C 	0.95704 0.95309 0.84595 -0.00100
F 	F 	0.04677 0.08353 0.85801 -0.43400
H 	H 	0.06365 0.09158 0.92814 0.07500
F 	F 	0.89961 0.87213 0.97471 -0.46000
H 	H 	0.88599 0.86325 0.90585 0.10400
C 	C 	0.01509 0.96818 0.84063 0.29800
C 	C 	0.01042 0.96191 0.80513 -0.05100
C 	C 	0.94767 0.93982 0.77492 -0.16200
C 	C 	0.88817 0.91957 0.78185 0.36300
C 	C 	0.89298 0.92657 0.81708 -0.15300
F 	F 	0.07646 0.99058 0.86930 -0.42700
H 	H 	0.05662 0.97765 0.80012 0.08000
F 	F 	0.82678 0.89706 0.75319 -0.45800
H 	H 	0.84750 0.91339 0.82130 0.10500
C 	C 	0.11100 0.00250 0.43555 -0.16800
C 	C 	0.05144 0.98903 0.40324 0.03500
C 	C 	0.99226 0.97081 0.40935 0.26400
C 	C 	0.99189 0.96335 0.44795 -0.05700
C 	C 	0.05082 0.97489 0.48054 -0.15200
C 	C 	0.11108 0.99642 0.47378 0.38300
C 	C 	0.05219 0.99630 0.36266 0.01100
F 	F 	0.93506 0.95984 0.37806 -0.43300
H 	H 	0.94492 0.94615 0.45290 0.07900
F 	F 	0.16890 0.00889 0.50479 -0.46600
H 	H 	0.15708 0.01708 0.43114 0.12400
C 	C 	0.10186 0.05792 0.34172 0.27100
C 	C 	0.10088 0.06549 0.30284 -0.05600
C 	C 	0.04894 0.01240 0.28371 -0.15900
C 	C 	0.00166 0.94968 0.30555 0.37800
C 	C 	0.00356 0.94163 0.34496 -0.13100
F 	F 	0.14931 0.11127 0.35833 -0.43600
H 	H 	0.13787 0.11386 0.28654 0.08100
F 	F 	0.95117 0.89766 0.28769 -0.46100
H 	H 	0.96616 0.89340 0.36129 0.11000
C 	C 	0.11745 0.19231 0.67650 -0.11300
C 	C 	0.15539 0.26156 0.65868 0.13300
C 	C 	0.18926 0.30571 0.68220 -0.09800
C 	C 	0.18715 0.28180 0.72332 0.00400
C 	C 	0.15497 0.21305 0.74212 0.06700
C 	C 	0.12053 0.16890 0.71845 -0.02300
N 	N 	0.15959 0.28591 0.61918 -0.20500
H 	H 	0.21596 0.35872 0.66822 0.05800
C 	C 	0.21323 0.32847 0.74502 -0.00600
N 	N 	0.15684 0.18921 0.78269 -0.19200
H 	H 	0.09439 0.11600 0.73249 0.05400
C 	C 	0.16567 0.33288 0.74667 -0.08400
C 	C 	0.18963 0.38984 0.75433 0.10400
C 	C 	0.26006 0.44570 0.75479 -0.05200
C 	C 	0.30885 0.43517 0.76253 -0.05100
C 	C 	0.28580 0.37688 0.75708 0.07200
H 	H 	0.11023 0.29276 0.74131 0.06200
N 	N 	0.14700 0.38871 0.76443 -0.20000
H 	H 	0.36431 0.47510 0.76831 0.05100
N 	N 	0.33317 0.36832 0.76250 -0.19400
H 	H 	0.09374 0.34945 0.76114 0.08900
H 	H 	0.16767 0.42308 0.77940 0.09800
H 	H 	0.38681 0.40538 0.76998 0.08600
H 	H 	0.31714 0.32390 0.76071 0.09000
H 	H 	0.13106 0.13808 0.79606 0.12400
H 	H 	0.18518 0.22114 0.80151 0.10700
H 	H 	0.14040 0.25488 0.60211 0.09500
H 	H 	0.18504 0.33696 0.60567 0.08500
C 	C 	0.72024 0.83862 0.63265 -0.10900
C 	C 	0.67431 0.85186 0.59821 0.13100
C 	C 	0.60441 0.81457 0.59919 -0.09900
C 	C 	0.57988 0.76386 0.63370 0.00600
C 	C 	0.62368 0.74548 0.66597 0.06500
C 	C 	0.69368 0.78328 0.66511 -0.01200
N 	N 	0.69715 0.90049 0.56438 -0.20600
H 	H 	0.56983 0.82668 0.57374 0.05800
C 	C 	0.51136 0.73515 0.63767 -0.00900
N 	N 	0.59927 0.69254 0.69812 -0.19000
H 	H 	0.72858 0.77190 0.69088 0.05300
C 	C 	0.45121 0.67825 0.62336 -0.08500
C 	C 	0.38873 0.64104 0.63470 0.10100
C 	C 	0.38720 0.66079 0.66131 -0.05000
C 	C 	0.44477 0.72185 0.67155 -0.05400
C 	C 	0.50706 0.75947 0.65990 0.07700
H 	H 	0.45382 0.66138 0.60479 0.05400
N 	N 	0.33052 0.58659 0.62000 -0.19900
H 	H 	0.44251 0.73826 0.69061 0.05100
N 	N 	0.56280 0.81805 0.67076 -0.19400
H 	H 	0.33267 0.57075 0.60163 0.08500
H 	H 	0.28211 0.56113 0.62532 0.09200
H 	H 	0.55984 0.83460 0.68823 0.09200
H 	H 	0.60883 0.84852 0.66113 0.10000
H 	H 	0.63258 0.68058 0.72237 0.09200
H 	H 	0.54683 0.66181 0.69894 0.09200
H 	H 	0.74699 0.92506 0.56151 0.10400
H 	H 	0.66393 0.91225 0.53978 0.08800
C 	C 	0.20653 0.60673 0.70537 -0.04900
C 	C 	0.14568 0.55941 0.72102 0.09900
C 	C 	0.12108 0.58185 0.72993 -0.08500
C 	C 	0.14483 0.64866 0.71444 -0.00900
C 	C 	0.19852 0.69461 0.69293 0.07300
C 	C 	0.23172 0.67409 0.69087 -0.05400
N 	N 	0.10646 0.49374 0.72289 -0.19900
H 	H 	0.07898 0.54630 0.74564 0.05400
C 	C 	0.11515 0.67083 0.72195 0.00600
N 	N 	0.21768 0.75800 0.67376 -0.19400
H 	H 	0.27664 0.71061 0.67746 0.05300
C 	C 	0.15890 0.71571 0.74679 -0.10100
C 	C 	0.14402 0.75749 0.74224 0.13300
C 	C 	0.08286 0.75140 0.71407 -0.12000
C 	C 	0.03143 0.69538 0.69777 -0.01200
C 	C 	0.04853 0.65762 0.69890 0.05400
H 	H 	0.20769 0.72257 0.76668 0.05900
N 	N 	0.18933 0.80444 0.76401 -0.20500
H 	H 	0.98092 0.68603 0.68001 0.04100
N 	N 	0.00253 0.61158 0.67632 -0.18700
H 	H 	0.23585 0.81047 0.78378 0.08700
H 	H 	0.17760 0.83391 0.76234 0.09700
H 	H 	0.95401 0.60305 0.65914 0.07900
H 	H 	0.01439 0.58436 0.67512 0.08700
H 	H 	0.25968 0.79243 0.65974 0.08600
H 	H 	0.18901 0.77276 0.67065 0.08700
H 	H 	0.11118 0.47813 0.70579 0.09400
H 	H 	0.06530 0.45857 0.73762 0.08400
C 	C 	0.24746 0.50526 0.21986 -0.04900
C 	C 	0.29481 0.48792 0.23950 0.10400
C 	C 	0.28247 0.43998 0.22818 -0.08300
C 	C 	0.22016 0.40434 0.20078 -0.00700
C 	C 	0.16659 0.41214 0.18795 0.07500
C 	C 	0.18178 0.46449 0.19628 -0.05400
N 	N 	0.35242 0.51777 0.26885 -0.19800
H 	H 	0.32185 0.43120 0.24022 0.05600
C 	C 	0.21288 0.36161 0.18421 0.00800
N 	N 	0.10090 0.36955 0.16804 -0.19400
H 	H 	0.14366 0.47522 0.18293 0.05100
C 	C 	0.21548 0.30735 0.21093 -0.10100
C 	C 	0.19360 0.25848 0.19544 0.13600
C 	C 	0.16153 0.26022 0.15363 -0.12000
C 	C 	0.17160 0.32015 0.12659 -0.01600
C 	C 	0.19869 0.37188 0.14166 0.05800
H 	H 	0.23225 0.30199 0.24362 0.06700
N 	N 	0.20235 0.20956 0.22077 -0.20500
H 	H 	0.15244 0.32416 0.09399 0.04200
N 	N 	0.21044 0.43057 0.11538 -0.19100
H 	H 	0.22812 0.20953 0.25148 0.09600
H 	H 	0.18702 0.17334 0.20958 0.10100
H 	H 	0.19682 0.43664 0.08390 0.08600
H 	H 	0.23623 0.47160 0.12602 0.09000
H 	H 	0.06271 0.37756 0.15694 0.08700
H 	H 	0.08613 0.32631 0.16536 0.09200
H 	H 	0.35970 0.54946 0.28010 0.09300
H 	H 	0.38892 0.50706 0.28204 0.08900
C 	C 	0.42851 0.74440 0.18879 -0.05000
C 	C 	0.48992 0.77390 0.21926 0.10200
C 	C 	0.55549 0.81182 0.21152 -0.08400
C 	C 	0.56061 0.81962 0.17438 -0.00800
C 	C 	0.49965 0.79469 0.14279 0.07200
C 	C 	0.43414 0.75818 0.15017 -0.05200
N 	N 	0.48629 0.76454 0.25630 -0.20000
H 	H 	0.60264 0.83301 0.23513 0.06100
C 	C 	0.62929 0.84920 0.17029 0.00800
N 	N 	0.50355 0.80486 0.10563 -0.19500
H 	H 	0.38703 0.73690 0.12655 0.05000
C 	C 	0.65241 0.80906 0.18704 -0.10000
C 	C 	0.72184 0.83736 0.19049 0.14200
C 	C 	0.76733 0.90661 0.17418 -0.11300
C 	C 	0.74287 0.94605 0.15555 -0.01800
C 	C 	0.67449 0.91819 0.15375 0.05900
H 	H 	0.61734 0.75610 0.19951 0.06200
N 	N 	0.74508 0.79844 0.21109 -0.20500
H 	H 	0.77778 0.99904 0.14323 0.04700
N 	N 	0.65268 0.95793 0.13621 -0.18700
H 	H 	0.71029 0.74701 0.22150 0.09500
H 	H 	0.79805 0.81886 0.21878 0.12200
H 	H 	0.68679 0.00901 0.12444 0.07900
H 	H 	0.60167 0.93863 0.13358 0.09000
H 	H 	0.45808 0.78539 0.08270 0.08600
H 	H 	0.55153 0.83280 0.09890 0.09100
H 	H 	0.43857 0.73768 0.26293 0.09400
H 	H 	0.53195 0.78528 0.27887 0.08900
C 	C 	0.22828 0.66055 0.22831 -0.04800
C 	C 	0.25768 0.68240 0.26388 0.10000
C 	C 	0.24012 0.71753 0.26591 -0.08400
C 	C 	0.19281 0.73001 0.23334 -0.00900
C 	C 	0.15799 0.70212 0.19954 0.07400
C 	C 	0.17543 0.66667 0.19777 -0.05300
N 	N 	0.30344 0.67059 0.29589 -0.19900
H 	H 	0.26498 0.73695 0.29235 0.05400
C 	C 	0.18601 0.77819 0.23279 0.00600
N 	N 	0.10948 0.71079 0.16824 -0.19500
H 	H 	0.15146 0.64816 0.17105 0.05000
C 	C 	0.23278 0.84630 0.21666 -0.09800
C 	C 	0.21501 0.88999 0.20305 0.13100
C 	C 	0.14834 0.86418 0.20372 -0.11400
C 	C 	0.10980 0.80020 0.22826 -0.01900
C 	C 	0.12742 0.75614 0.24231 0.05800
H 	H 	0.28066 0.86446 0.21226 0.05900
N 	N 	0.25999 0.95576 0.18693 -0.20500
H 	H 	0.06162 0.78208 0.23223 0.04200
N 	N 	0.08673 0.69257 0.26339 -0.19200
H 	H 	0.30806 0.97443 0.18463 0.09000
H 	H 	0.24837 0.98913 0.17781 0.10100
H 	H 	0.04189 0.67583 0.26884 0.08700
H 	H 	0.10030 0.65984 0.27550 0.08900
H 	H 	0.08374 0.68955 0.14367 0.08700
H 	H 	0.09696 0.73872 0.16777 0.09400
H 	H 	0.31423 0.64131 0.29619 0.09000
H 	H 	0.32703 0.68892 0.32149 0.08500
C 	C 	0.78493 0.28092 0.52774 -0.04900
C 	C 	0.78898 0.29738 0.48763 0.09900
C 	C 	0.81677 0.27565 0.48090 -0.08600
C 	C 	0.83546 0.23387 0.51272 -0.00800
C 	C 	0.83170 0.21776 0.55279 0.07300
C 	C 	0.80794 0.24273 0.55994 -0.05400
N 	N 	0.76416 0.33172 0.45537 -0.19900
H 	H 	0.82047 0.28849 0.45037 0.05200
C 	C 	0.85640 0.20506 0.50367 0.00300
N 	N 	0.85008 0.17786 0.58444 -0.19400
H 	H 	0.80559 0.23086 0.59065 0.04900
C 	C 	0.92771 0.23317 0.51331 -0.09600
C 	C 	0.94864 0.19308 0.52393 0.11900
C 	C 	0.89728 0.12438 0.52551 -0.11400
C 	C 	0.82760 0.10192 0.50548 -0.01800
C 	C 	0.80618 0.14134 0.49539 0.05800
H 	H 	0.96668 0.28408 0.51636 0.05500
N 	N 	0.01774 0.21982 0.53460 -0.19900
H 	H 	0.78865 0.05079 0.50282 0.04100
N 	N 	0.73740 0.11674 0.47965 -0.19100
H 	H 	0.05564 0.27018 0.53478 0.08700
H 	H 	0.03425 0.19146 0.54119 0.09200
H 	H 	0.70019 0.06852 0.47525 0.08100
H 	H 	0.72056 0.14592 0.47051 0.08700
H 	H 	0.84742 0.16666 0.61387 0.08100
H 	H 	0.86658 0.15709 0.58030 0.08600
H 	H 	0.73712 0.34303 0.45846 0.09400
H 	H 	0.76942 0.34529 0.42621 0.08500
C 	C 	0.78410 0.45047 0.53307 -0.04900
C 	C 	0.84661 0.49182 0.55857 0.09800
C 	C 	0.85823 0.54660 0.56105 -0.08200
C 	C 	0.80788 0.55972 0.53923 -0.01000
C 	C 	0.74895 0.52253 0.51059 0.07400
C 	C 	0.73902 0.46955 0.50689 -0.05300
N 	N 	0.89465 0.47825 0.58150 -0.20000
H 	H 	0.90495 0.57711 0.58159 0.05200
C 	C 	0.81503 0.60882 0.54911 0.00700
N 	N 	0.70055 0.53571 0.48772 -0.19500
H 	H 	0.69249 0.43924 0.48619 0.05000
C 	C 	0.83910 0.67251 0.52273 -0.10200
C 	C 	0.86243 0.72445 0.53580 0.13400
C 	C 	0.86860 0.71408 0.57693 -0.12000
C 	C 	0.83565 0.64883 0.60128 -0.01700
C 	C 	0.80783 0.59566 0.58744 0.05500
H 	H 	0.84111 0.68197 0.49246 0.06300
N 	N 	0.87983 0.78434 0.50906 -0.20500
H 	H 	0.83675 0.64014 0.63222 0.03800
N 	N 	0.77566 0.53255 0.61128 -0.19200
H 	H 	0.87910 0.79326 0.47921 0.10000
H 	H 	0.89070 0.82126 0.51716 0.10300
H 	H 	0.77329 0.52355 0.64030 0.08200
H 	H 	0.75042 0.49170 0.60062 0.08900
H 	H 	0.65722 0.50782 0.46673 0.08700
H 	H 	0.70501 0.57325 0.49059 0.09000
H 	H 	0.88918 0.43985 0.57896 0.09200
H 	H 	0.93937 0.50754 0.60146 0.08200
C 	C 	0.61532 0.21473 0.58799 -0.05000
C 	C 	0.61623 0.22077 0.62264 0.10000
C 	C 	0.55287 0.18512 0.63240 -0.08500
C 	C 	0.48958 0.13994 0.61004 -0.00900
C 	C 	0.49018 0.12649 0.57943 0.07500
C 	C 	0.55310 0.16487 0.56823 -0.05400
N 	N 	0.67770 0.25991 0.64683 -0.19900
H 	H 	0.55269 0.19322 0.65705 0.05300
C 	C 	0.42292 0.11403 0.61497 0.00600
N 	N 	0.43056 0.07750 0.56047 -0.19400
H 	H 	0.55290 0.15808 0.54282 0.05200
C 	C 	0.38849 0.14367 0.58615 -0.09600
C 	C 	0.32017 0.11431 0.58566 0.14400
C 	C 	0.28657 0.05504 0.61537 -0.10100
C 	C 	0.32368 0.02922 0.64658 -0.03500
C 	C 	0.39138 0.05761 0.64643 0.06200
H 	H 	0.41384 0.18819 0.56290 0.06400
N 	N 	0.28658 0.14222 0.55602 -0.19900
H 	H 	0.29820 0.98445 0.66969 0.05000
N 	N 	0.42485 0.02947 0.67584 -0.19800
H 	H 	0.31128 0.18503 0.53365 0.10000
H 	H 	0.23624 0.12248 0.55511 0.10900
H 	H 	0.40068 0.98731 0.69863 0.09000
H 	H 	0.47508 0.04914 0.67657 0.08700
H 	H 	0.43093 0.06940 0.53693 0.09000
H 	H 	0.38397 0.04558 0.56980 0.09900
H 	H 	0.72565 0.28110 0.64292 0.09000
H 	H 	0.67793 0.26661 0.67127 0.08300
C 	C 	0.88236 0.16363 0.05209 -0.11300
C 	C 	0.87638 0.19313 0.06962 0.12700
C 	C 	0.84249 0.22416 0.04488 -0.10200
C 	C 	0.81893 0.23086 0.00271 0.01500
C 	C 	0.82918 0.20588 0.98456 0.04500
C 	C 	0.86012 0.17171 0.00955 -0.01100
N 	N 	0.90477 0.19365 0.10980 -0.20100
H 	H 	0.83557 0.24446 0.05848 0.05800
C 	C 	0.78156 0.26231 0.97842 -0.01600
N 	N 	0.80869 0.21364 0.94345 -0.19000
H 	H 	0.86554 0.15026 0.99591 0.04300
C 	C 	0.82095 0.33208 0.96643 -0.08300
C 	C 	0.79258 0.36437 0.95855 0.09900
C 	C 	0.72534 0.32599 0.96497 -0.04900
C 	C 	0.68239 0.25666 0.97029 -0.05700
C 	C 	0.70987 0.22453 0.97662 0.07300
H 	H 	0.87479 0.36123 0.96530 0.05200
N 	N 	0.82909 0.43158 0.94394 -0.19800
H 	H 	0.62879 0.22719 0.97194 0.04900
N 	N 	0.66791 0.15730 0.98231 -0.19500
H 	H 	0.88005 0.45997 0.94112 0.08400
H 	H 	0.80570 0.45565 0.93296 0.09200
H 	H 	0.61560 0.12926 0.98260 0.08200
H 	H 	0.68616 0.13260 0.98511 0.08700
H 	H 	0.81569 0.19433 0.93037 0.08300
H 	H 	0.78628 0.23932 0.92407 0.08600
H 	H 	0.94093 0.18260 0.12754 0.06600
H 	H 	0.89501 0.21056 0.12292 0.07900
C 	C 	0.78200 0.46879 0.03474 -0.05300
C 	C 	0.77306 0.45406 0.07285 0.10200
C 	C 	0.79942 0.50598 0.08725 -0.08700
C 	C 	0.83819 0.57230 0.06539 -0.00700
C 	C 	0.85810 0.58726 0.03146 0.07100
C 	C 	0.82855 0.53512 0.01589 -0.04900
N 	N 	0.73857 0.39018 0.09536 -0.19900
H 	H 	0.78785 0.49463 0.11474 0.05400
C 	C 	0.85191 0.62472 0.07589 0.00200
N 	N 	0.90461 0.65126 0.01356 -0.19200
H 	H 	0.83851 0.54640 0.98779 0.04600
C 	C 	0.89946 0.64335 0.11243 -0.09700
C 	C 	0.91915 0.69761 0.12103 0.12100
C 	C 	0.89531 0.73693 0.09108 -0.10100
C 	C 	0.84271 0.71448 0.05644 -0.01800
C 	C 	0.81920 0.65739 0.04914 0.06800
H 	H 	0.92167 0.61605 0.13402 0.05400
N 	N 	0.96056 0.71156 0.15800 -0.20400
H 	H 	0.82209 0.74299 0.03429 0.07400
N 	N 	0.76555 0.63435 0.01655 -0.19000
H 	H 	0.97985 0.68365 0.17954 0.08400
H 	H 	0.97039 0.74740 0.16658 0.09300
H 	H 	0.74387 0.66049 0.99597 0.09300
H 	H 	0.74285 0.58898 0.01232 0.09300
H 	H 	0.91687 0.66211 0.98754 0.08700
H 	H 	0.93103 0.69043 0.02619 0.09400
H 	H 	0.72314 0.35134 0.08679 0.09100
H 	H 	0.72951 0.37917 0.12268 0.08400
C 	C 	0.53921 0.30081 0.98092 -0.05100
C 	C 	0.50272 0.23238 0.00175 0.10200
C 	C 	0.43743 0.19956 0.00789 -0.07700
C 	C 	0.41169 0.23512 0.99775 -0.01700
C 	C 	0.44617 0.30240 0.97528 0.07400
C 	C 	0.50842 0.33383 0.96585 -0.05400
N 	N 	0.53141 0.19888 0.01774 -0.20000
H 	H 	0.40951 0.14738 0.02395 0.05400
C 	C 	0.35512 0.20419 0.01590 0.01600
N 	N 	0.42054 0.33732 0.96328 -0.19500
H 	H 	0.53557 0.38570 0.94913 0.05000
C 	C 	0.37124 0.19894 0.05751 -0.10500
C 	C 	0.31783 0.15928 0.07783 0.13700
C 	C 	0.24728 0.12587 0.05575 -0.12200
C 	C 	0.23155 0.13659 0.01341 -0.01200
C 	C 	0.28460 0.17370 0.99339 0.05200
H 	H 	0.42546 0.22368 0.07444 0.06000
N 	N 	0.33460 0.15331 0.11844 -0.20600
H 	H 	0.17753 0.11348 0.99626 0.04200
N 	N 	0.26745 0.17913 0.95282 -0.19100
H 	H 	0.38688 0.17683 0.13475 0.08500
H 	H 	0.29621 0.12660 0.13401 0.09600
H 	H 	0.21511 0.15582 0.93660 0.10600
H 	H 	0.30562 0.20661 0.93692 0.09600
H 	H 	0.44691 0.38725 0.94713 0.08600
H 	H 	0.37407 0.31531 0.96947 0.09100
H 	H 	0.58361 0.22333 0.01941 0.09200
H 	H 	0.50232 0.14771 0.03101 0.08400
