data_crystal

_cell_length_a 27.52809
_cell_length_b 28.27422
_cell_length_c 43.11332
_cell_angle_alpha 95.50770
_cell_angle_beta  95.50651
_cell_angle_gamma 125.77734

_symmetry_space_group_name_	'P 1'
_symmetry_space_group_name_H-M	'P 1'

loop_
_symmetry_equiv_pos_as_xyz
  x,y,z

loop_
_atom_site_label
_atom_site_type_symbol
_atom_site_fract_x
_atom_site_fract_y
_atom_site_fract_z
_atom_site_charge
C 	C 	0.95783 0.02210 0.98952 0.12500
N 	N 	0.01693 0.05206 0.98614 -0.13500
C 	C 	0.04195 0.02280 0.98279 0.13200
N 	N 	0.00799 0.96377 0.98290 -0.13400
C 	C 	0.94899 0.93387 0.98628 0.12800
N 	N 	0.92387 0.96300 0.98958 -0.13700
C 	C 	0.94277 0.99828 0.46434 0.13300
N 	N 	0.00382 0.03185 0.46519 -0.13900
C 	C 	0.03345 0.00696 0.46717 0.13100
N 	N 	0.00217 0.94854 0.46834 -0.13400
C 	C 	0.94123 0.91475 0.46757 0.12800
N 	N 	0.91130 0.93957 0.46563 -0.13900
Cu	Cu	0.63635 0.24810 0.99923 0.92900
Cu	Cu	0.68814 0.25784 0.93305 0.87000
Cu	Cu	0.67253 0.34615 0.96146 0.89600
Cu	Cu	0.64052 0.35841 0.02450 0.89500
C 	C 	0.64990 0.28430 0.06596 0.28900
O 	O 	0.54808 0.21584 0.99821 -0.36300
C 	C 	0.65298 0.31039 0.89161 0.28800
O 	O 	0.68785 0.34090 0.00490 -0.64000
O 	O 	0.63055 0.25883 0.95482 -0.64300
O 	O 	0.67209 0.20418 0.99527 -0.37400
O 	O 	0.74274 0.26955 0.96859 -0.44300
O 	O 	0.62414 0.31010 0.05842 -0.38500
O 	O 	0.71788 0.43149 0.97047 -0.38600
C 	C 	0.70881 0.46176 0.99125 0.31100
C 	C 	0.52663 0.24326 0.98710 0.30100
O 	O 	0.56414 0.29971 0.98567 -0.39800
O 	O 	0.68231 0.44036 0.01557 -0.39300
O 	O 	0.65524 0.25272 0.04385 -0.36000
C 	C 	0.72448 0.22844 0.98591 0.31000
O 	O 	0.66999 0.35227 0.91618 -0.38600
O 	O 	0.65159 0.26379 0.89520 -0.42000
H 	H 	0.73150 0.36536 0.01494 0.16700
H 	H 	0.58876 0.23508 0.94209 0.17400
Cu	Cu	0.74392 0.34239 0.46246 0.92700
Cu	Cu	0.74636 0.30388 0.53161 0.87100
Cu	Cu	0.64833 0.31068 0.50388 0.89700
Cu	Cu	0.62735 0.33507 0.43961 0.89500
C 	C 	0.69519 0.31701 0.39592 0.28800
O 	O 	0.77662 0.42785 0.46055 -0.36100
C 	C 	0.69346 0.33759 0.57351 0.28800
O 	O 	0.64900 0.29228 0.46000 -0.63900
O 	O 	0.73829 0.35386 0.50757 -0.64100
O 	O 	0.78867 0.30667 0.46615 -0.37400
O 	O 	0.72799 0.24483 0.49762 -0.44300
O 	O 	0.66933 0.34299 0.40298 -0.38400
O 	O 	0.56031 0.26390 0.49747 -0.38200
C 	C 	0.52519 0.26335 0.47407 0.30900
C 	C 	0.74882 0.44976 0.47086 0.30000
O 	O 	0.69260 0.41391 0.47520 -0.39400
O 	O 	0.54810 0.30042 0.45405 -0.39500
O 	O 	0.73366 0.31871 0.41773 -0.36200
C 	C 	0.76565 0.25800 0.47790 0.30700
O 	O 	0.64730 0.31677 0.54990 -0.38400
O 	O 	0.74344 0.34422 0.56850 -0.42000
H 	H 	0.62382 0.24930 0.45103 0.16400
H 	H 	0.76248 0.39572 0.51861 0.17400
C 	C 	0.68639 0.34774 0.60651 -0.08900
C 	C 	0.64521 0.35982 0.61308 0.01500
C 	C 	0.63628 0.36608 0.64420 -0.06600
C 	C 	0.66839 0.36030 0.66899 0.02700
C 	C 	0.71018 0.34919 0.66249 -0.06800
C 	C 	0.71926 0.34311 0.63150 0.01300
C 	C 	0.65645 0.36312 0.70153 -0.00000
C 	C 	0.70486 0.40337 0.72684 -0.03800
C 	C 	0.69664 0.39792 0.75813 -0.03800
C 	C 	0.63967 0.35265 0.76442 0.00000
C 	C 	0.58999 0.31563 0.73916 -0.03800
C 	C 	0.59843 0.32061 0.70784 -0.03800
C 	C 	0.63414 0.33934 0.79679 0.02600
C 	C 	0.65331 0.38423 0.82273 -0.06500
C 	C 	0.65705 0.37416 0.85372 0.01200
C 	C 	0.64129 0.31887 0.85907 -0.08800
C 	C 	0.61824 0.27283 0.83299 0.01200
C 	C 	0.61519 0.28318 0.80208 -0.06600
H 	H 	0.62003 0.36417 0.59413 0.03700
H 	H 	0.60415 0.37497 0.64901 0.04700
H 	H 	0.73481 0.34417 0.68141 0.04400
H 	H 	0.75086 0.33343 0.62683 0.02600
H 	H 	0.74956 0.43706 0.72223 0.03800
H 	H 	0.73522 0.42708 0.77741 0.03800
H 	H 	0.54552 0.28134 0.74376 0.03900
H 	H 	0.56059 0.28969 0.68849 0.03900
H 	H 	0.66702 0.42744 0.81890 0.04600
H 	H 	0.67381 0.40986 0.87349 0.04000
H 	H 	0.60422 0.22945 0.83662 0.03100
H 	H 	0.60004 0.24809 0.78225 0.04500
C 	C 	0.65843 0.27824 0.09921 -0.08400
C 	C 	0.70888 0.28087 0.11226 0.01300
C 	C 	0.71807 0.27740 0.14422 -0.06500
C 	C 	0.67656 0.27070 0.16322 0.02700
C 	C 	0.62559 0.26695 0.15003 -0.06500
C 	C 	0.61657 0.27076 0.11821 0.01500
C 	C 	0.68763 0.27017 0.19725 0.00000
C 	C 	0.64808 0.21848 0.20906 -0.03800
C 	C 	0.65204 0.22042 0.24179 -0.03800
C 	C 	0.69539 0.27416 0.26296 0.00000
C 	C 	0.73708 0.32509 0.25113 -0.03800
C 	C 	0.73326 0.32305 0.21840 -0.03800
C 	C 	0.69310 0.27862 0.29711 0.02700
C 	C 	0.74441 0.29799 0.31966 -0.06500
C 	C 	0.74441 0.30838 0.35205 0.01600
C 	C 	0.69304 0.29951 0.36215 -0.08400
C 	C 	0.64086 0.27770 0.33959 0.01300
C 	C 	0.64095 0.26748 0.30725 -0.06500
H 	H 	0.74145 0.28660 0.09783 0.03300
H 	H 	0.75758 0.28035 0.15424 0.04700
H 	H 	0.59336 0.26183 0.16455 0.04700
H 	H 	0.57700 0.26782 0.10831 0.03700
H 	H 	0.61301 0.17733 0.19288 0.04100
H 	H 	0.62015 0.18069 0.25068 0.03900
H 	H 	0.77084 0.36676 0.26727 0.04000
H 	H 	0.76411 0.36313 0.20949 0.03900
H 	H 	0.78470 0.30623 0.31207 0.04700
H 	H 	0.78497 0.32503 0.36917 0.04100
H 	H 	0.60062 0.26979 0.34707 0.02400
H 	H 	0.60107 0.25241 0.29003 0.04600
C 	C 	0.81783 0.62341 0.47319 -0.00900
C 	C 	0.78080 0.63538 0.45672 -0.02800
C 	C 	0.80248 0.69413 0.45647 -0.04400
C 	C 	0.86127 0.74114 0.47271 0.01700
C 	C 	0.89789 0.72913 0.48960 -0.04400
C 	C 	0.87622 0.67042 0.48984 -0.02900
C 	C 	0.88590 0.80153 0.47023 0.00300
C 	C 	0.90898 0.85288 0.46896 -0.03600
C 	C 	0.79575 0.56282 0.47296 0.04600
C 	C 	0.77577 0.51160 0.47225 -0.10900
H 	H 	0.73546 0.59926 0.44393 0.03900
H 	H 	0.77395 0.70300 0.44329 0.04500
H 	H 	0.94345 0.76523 0.50215 0.04400
H 	H 	0.90500 0.66156 0.50275 0.03900
C 	C 	0.82010 0.15173 0.46469 -0.01100
C 	C 	0.85455 0.15565 0.44178 -0.02900
C 	C 	0.87533 0.12071 0.44009 -0.04400
C 	C 	0.86176 0.08175 0.46134 0.01500
C 	C 	0.82588 0.07669 0.48364 -0.04500
C 	C 	0.80507 0.11153 0.48530 -0.03000
C 	C 	0.88921 0.05118 0.46221 0.00400
C 	C 	0.91215 0.02557 0.46296 -0.04300
C 	C 	0.80216 0.19053 0.46802 0.04600
C 	C 	0.78609 0.22199 0.47177 -0.11800
H 	H 	0.86613 0.18640 0.42566 0.04000
H 	H 	0.90306 0.12494 0.42277 0.04400
H 	H 	0.81526 0.04678 0.50016 0.04300
H 	H 	0.77822 0.10802 0.50298 0.03500
C 	C 	0.34267 0.16866 0.47300 -0.00900
C 	C 	0.31458 0.19676 0.46997 -0.02800
C 	C 	0.25181 0.16470 0.46892 -0.04400
C 	C 	0.21692 0.10443 0.47089 0.01700
C 	C 	0.24505 0.07640 0.47406 -0.04400
C 	C 	0.30781 0.10845 0.47511 -0.02800
C 	C 	0.15223 0.07118 0.46951 0.00500
C 	C 	0.09801 0.04245 0.46840 -0.03700
C 	C 	0.40706 0.20142 0.47350 0.04700
C 	C 	0.46103 0.22938 0.47388 -0.10800
H 	H 	0.34129 0.24331 0.46832 0.04000
H 	H 	0.23036 0.18666 0.46649 0.04500
H 	H 	0.21833 0.02981 0.47563 0.04500
H 	H 	0.32923 0.08645 0.47745 0.03900
C 	C 	0.78974 0.63634 0.98924 -0.01000
C 	C 	0.81330 0.67733 0.01769 -0.02800
C 	C 	0.84353 0.73764 0.01710 -0.04300
C 	C 	0.85031 0.75715 0.98806 0.01600
C 	C 	0.82587 0.71603 0.95959 -0.04400
C 	C 	0.79568 0.65574 0.96018 -0.02800
C 	C 	0.88479 0.81952 0.98753 0.00400
C 	C 	0.91364 0.87172 0.98697 -0.03700
C 	C 	0.76104 0.57469 0.98987 0.04800
C 	C 	0.73699 0.52302 0.99034 -0.10800
H 	H 	0.80874 0.66260 0.04024 0.03900
H 	H 	0.86230 0.76921 0.03920 0.04500
H 	H 	0.83091 0.73083 0.93705 0.04400
H 	H 	0.77740 0.62423 0.93810 0.04000
C 	C 	0.81996 0.16067 0.99612 -0.01400
C 	C 	0.86863 0.18108 0.97998 -0.02900
C 	C 	0.89864 0.15480 0.98013 -0.04500
C 	C 	0.88014 0.10801 0.99642 0.01600
C 	C 	0.83266 0.08875 0.01337 -0.04400
C 	C 	0.80260 0.11505 0.01321 -0.02700
C 	C 	0.90756 0.07767 0.99425 0.00200
C 	C 	0.93080 0.05255 0.99228 -0.03800
C 	C 	0.78542 0.18384 0.99333 0.04900
C 	C 	0.75740 0.20413 0.99053 -0.12200
H 	H 	0.88238 0.21644 0.96679 0.03500
H 	H 	0.93544 0.17003 0.96707 0.04300
H 	H 	0.81828 0.05273 0.02613 0.04500
H 	H 	0.76512 0.09916 0.02582 0.04000
C 	C 	0.22091 0.11103 0.97619 0.01800
C 	C 	0.23912 0.08316 0.95710 -0.04400
C 	C 	0.30111 0.11076 0.95749 -0.02800
C 	C 	0.34503 0.16628 0.97695 -0.00900
C 	C 	0.32672 0.19493 0.99526 -0.02800
C 	C 	0.26479 0.16735 0.99488 -0.04400
C 	C 	0.40876 0.19222 0.97972 0.04700
C 	C 	0.46245 0.21505 0.98254 -0.11100
C 	C 	0.15771 0.08019 0.97833 0.00400
C 	C 	0.10481 0.05447 0.98017 -0.03700
H 	H 	0.20540 0.03965 0.94252 0.04500
H 	H 	0.31495 0.08844 0.94320 0.03900
H 	H 	0.36046 0.23796 0.01029 0.04000
H 	H 	0.25102 0.18920 0.00964 0.04600
