data_crystal

_cell_length_a 35.19621
_cell_length_b 35.77108
_cell_length_c 36.77607
_cell_angle_alpha 95.54701
_cell_angle_beta  95.55162
_cell_angle_gamma 125.37892

_symmetry_space_group_name_	'P 1'
_symmetry_space_group_name_H-M	'P 1'

loop_
_symmetry_equiv_pos_as_xyz
  x,y,z

loop_
_atom_site_label
_atom_site_type_symbol
_atom_site_fract_x
_atom_site_fract_y
_atom_site_fract_z
_atom_site_charge
C 	C 	0.98052 0.02406 0.99576 0.11600
N 	N 	0.95302 0.97686 0.99256 -0.14200
C 	C 	0.97213 0.95333 0.98757 0.12000
N 	N 	0.01883 0.97708 0.98582 -0.14100
C 	C 	0.04648 0.02420 0.98901 0.12000
N 	N 	0.02728 0.04767 0.99396 -0.14100
C 	C 	0.95191 0.99906 0.44551 0.12100
N 	N 	0.92699 0.95263 0.44605 -0.14100
C 	C 	0.94918 0.93169 0.44572 0.12000
N 	N 	0.99630 0.95728 0.44503 -0.14000
C 	C 	0.02133 0.00363 0.44461 0.11900
N 	N 	0.99905 0.02443 0.44477 -0.14100
Cu	Cu	0.65446 0.26561 0.99793 0.92800
Cu	Cu	0.69873 0.27030 0.92256 0.87000
Cu	Cu	0.68539 0.34169 0.95152 0.89700
Cu	Cu	0.65268 0.35116 0.02166 0.89500
C 	C 	0.66262 0.29822 0.07474 0.30500
O 	O 	0.58461 0.23772 0.99334 -0.36300
C 	C 	0.67523 0.31170 0.87093 0.30700
O 	O 	0.69281 0.33848 0.00308 -0.64000
O 	O 	0.65287 0.27287 0.94532 -0.64200
O 	O 	0.68377 0.23184 0.99757 -0.37400
O 	O 	0.73997 0.28134 0.96619 -0.44100
O 	O 	0.64114 0.31672 0.06380 -0.38500
O 	O 	0.72027 0.40885 0.96117 -0.38300
C 	C 	0.71224 0.43305 0.98445 0.29100
C 	C 	0.56694 0.25780 0.97841 0.28400
O 	O 	0.59552 0.30182 0.97546 -0.39500
O 	O 	0.68134 0.41328 0.00685 -0.39300
O 	O 	0.66587 0.27066 0.05079 -0.36000
C 	C 	0.72519 0.25016 0.98776 0.29000
O 	O 	0.68927 0.34601 0.89870 -0.38800
O 	O 	0.67249 0.27446 0.87658 -0.42100
H 	H 	0.72609 0.35841 0.01666 0.16500
H 	H 	0.62085 0.25405 0.92951 0.17300
Cu	Cu	0.72511 0.33779 0.45093 0.92800
Cu	Cu	0.72372 0.29889 0.52836 0.87100
Cu	Cu	0.64984 0.31025 0.49921 0.89700
Cu	Cu	0.63796 0.33959 0.42758 0.89400
C 	C 	0.68939 0.32637 0.37381 0.30400
O 	O 	0.75430 0.40650 0.45331 -0.36300
C 	C 	0.68294 0.32342 0.57995 0.30700
O 	O 	0.65143 0.30104 0.44736 -0.64100
O 	O 	0.71973 0.34229 0.50398 -0.64100
O 	O 	0.75838 0.30775 0.45168 -0.37300
O 	O 	0.70969 0.25551 0.48577 -0.44100
O 	O 	0.67064 0.34776 0.38428 -0.38600
O 	O 	0.58150 0.27572 0.49080 -0.38100
C 	C 	0.55611 0.27983 0.46479 0.28900
C 	C 	0.73452 0.42523 0.46706 0.28300
O 	O 	0.69033 0.39807 0.47162 -0.39100
O 	O 	0.57648 0.31318 0.44490 -0.39300
O 	O 	0.71783 0.32388 0.39797 -0.36100
C 	C 	0.73976 0.26778 0.46297 0.28900
O 	O 	0.64728 0.30854 0.55255 -0.38800
O 	O 	0.72118 0.32727 0.57374 -0.42100
H 	H 	0.63086 0.26796 0.43455 0.16300
H 	H 	0.73913 0.37441 0.51874 0.17300
C 	C 	0.66589 0.33260 0.68781 -0.00600
C 	C 	0.62707 0.29385 0.69862 -0.03500
C 	C 	0.62602 0.29216 0.73637 -0.03500
C 	C 	0.66378 0.32922 0.76345 -0.00600
C 	C 	0.70098 0.36933 0.75267 -0.03500
C 	C 	0.70204 0.37101 0.71490 -0.03500
C 	C 	0.66752 0.32347 0.80155 0.04500
C 	C 	0.67053 0.31853 0.83342 -0.11000
C 	C 	0.67187 0.33013 0.64967 0.04500
C 	C 	0.67654 0.32773 0.61767 -0.11100
H 	H 	0.59878 0.26417 0.67784 0.03900
H 	H 	0.59692 0.26120 0.74449 0.03900
H 	H 	0.73011 0.39831 0.77345 0.04000
H 	H 	0.73199 0.40127 0.70677 0.03900
C 	C 	0.69013 0.30496 0.26299 -0.00400
C 	C 	0.65193 0.26407 0.23909 -0.03400
C 	C 	0.64870 0.26067 0.20054 -0.03300
C 	C 	0.68364 0.29815 0.18577 -0.00400
C 	C 	0.72309 0.33800 0.20970 -0.03400
C 	C 	0.72633 0.34140 0.24823 -0.03400
C 	C 	0.67649 0.29784 0.14649 0.04500
C 	C 	0.67061 0.29770 0.11363 -0.10200
C 	C 	0.68959 0.31161 0.30213 0.04400
C 	C 	0.68963 0.31770 0.33495 -0.10200
H 	H 	0.62394 0.23563 0.25030 0.04000
H 	H 	0.61823 0.22961 0.18221 0.04300
H 	H 	0.75038 0.36701 0.19849 0.03900
H 	H 	0.75612 0.37301 0.26654 0.04200
C 	C 	0.92248 0.88142 0.44638 -0.02400
C 	C 	0.89046 0.86141 0.47079 -0.01500
C 	C 	0.86946 0.81503 0.47451 -0.05500
C 	C 	0.88019 0.78838 0.45375 0.03200
C 	C 	0.91076 0.80776 0.42842 -0.05500
C 	C 	0.93183 0.85406 0.42472 -0.01400
C 	C 	0.86141 0.74178 0.45941 -0.02500
C 	C 	0.84629 0.70271 0.46352 -0.00400
C 	C 	0.82931 0.65694 0.46771 0.00100
C 	C 	0.81515 0.61777 0.47067 -0.03100
C 	C 	0.79835 0.57078 0.47331 0.04500
C 	C 	0.76143 0.54434 0.49246 -0.07200
C 	C 	0.74210 0.49734 0.49203 0.01500
C 	C 	0.75937 0.47631 0.47214 -0.09100
C 	C 	0.79788 0.50361 0.45440 0.01700
C 	C 	0.81717 0.55059 0.45494 -0.07200
H 	H 	0.88298 0.88213 0.48769 0.04000
H 	H 	0.84562 0.80016 0.49400 0.04600
H 	H 	0.91887 0.78722 0.41204 0.04600
H 	H 	0.95598 0.86890 0.40544 0.03900
H 	H 	0.74704 0.55988 0.50706 0.05000
H 	H 	0.71309 0.47709 0.50650 0.03200
H 	H 	0.81191 0.48814 0.43917 0.03800
H 	H 	0.84600 0.57097 0.44033 0.05100
C 	C 	0.92806 0.02205 0.44603 -0.02700
C 	C 	0.95250 0.06822 0.46516 -0.01400
C 	C 	0.93094 0.09096 0.46409 -0.05600
C 	C 	0.88481 0.06782 0.44398 0.03300
C 	C 	0.86001 0.02155 0.42528 -0.05700
C 	C 	0.88151 0.99868 0.42631 -0.01200
C 	C 	0.86312 0.09176 0.44242 -0.02500
C 	C 	0.84570 0.11251 0.44152 -0.00500
C 	C 	0.82595 0.13743 0.44108 0.00000
C 	C 	0.80948 0.15907 0.44132 -0.03200
C 	C 	0.79010 0.18521 0.44247 0.04500
C 	C 	0.74373 0.16414 0.44857 -0.07500
C 	C 	0.72653 0.19068 0.45364 0.01700
C 	C 	0.75572 0.23866 0.45281 -0.09800
C 	C 	0.80154 0.25924 0.44511 0.01800
C 	C 	0.81866 0.23259 0.44005 -0.07400
H 	H 	0.98820 0.08649 0.48083 0.03900
H 	H 	0.95022 0.12664 0.47878 0.04600
H 	H 	0.82426 0.00340 0.40975 0.04600
H 	H 	0.86232 0.96319 0.41126 0.04000
H 	H 	0.72133 0.12743 0.45019 0.04900
H 	H 	0.69083 0.17412 0.45888 0.02800
H 	H 	0.82444 0.29613 0.44426 0.03400
H 	H 	0.85449 0.24907 0.43515 0.05000
C 	C 	0.50419 0.25187 0.46216 -0.08900
C 	C 	0.48388 0.23611 0.49352 0.01900
C 	C 	0.43481 0.21088 0.49114 -0.07200
C 	C 	0.40568 0.20118 0.45749 0.04600
C 	C 	0.42571 0.21641 0.42609 -0.07300
C 	C 	0.47476 0.24163 0.42837 0.01700
C 	C 	0.35526 0.17590 0.45526 -0.03100
C 	C 	0.31305 0.15473 0.45342 0.00100
C 	C 	0.26363 0.12989 0.45128 -0.00400
C 	C 	0.22140 0.10853 0.44941 -0.02500
C 	C 	0.17092 0.08274 0.44716 0.03200
C 	C 	0.15233 0.10317 0.46555 -0.05500
C 	C 	0.10341 0.07764 0.46427 -0.01500
C 	C 	0.07271 0.03140 0.44457 -0.02400
C 	C 	0.09147 0.01129 0.42573 -0.01600
C 	C 	0.14039 0.03689 0.42707 -0.05400
H 	H 	0.50610 0.24397 0.51983 0.03900
H 	H 	0.41951 0.19916 0.51552 0.05100
H 	H 	0.40335 0.20885 0.39994 0.05000
H 	H 	0.48985 0.25313 0.40388 0.02600
H 	H 	0.17577 0.13865 0.48110 0.04600
H 	H 	0.08949 0.09352 0.47910 0.03900
H 	H 	0.06819 0.97587 0.41008 0.04000
H 	H 	0.15453 0.02097 0.41265 0.04600
C 	C 	0.94244 0.90218 0.98423 -0.02600
C 	C 	0.95022 0.87529 0.96012 -0.01400
C 	C 	0.92456 0.82725 0.95892 -0.05500
C 	C 	0.89092 0.80568 0.98174 0.03000
C 	C 	0.88218 0.83215 0.00516 -0.05300
C 	C 	0.90780 0.88026 0.00639 -0.01300
C 	C 	0.86669 0.75673 0.98207 -0.02500
C 	C 	0.84667 0.71572 0.98208 -0.00500
C 	C 	0.82369 0.66779 0.98210 0.00100
C 	C 	0.80423 0.62688 0.98220 -0.03200
C 	C 	0.78097 0.57805 0.98244 0.04600
C 	C 	0.80332 0.55728 0.97331 -0.07300
C 	C 	0.78091 0.50992 0.97389 0.01900
C 	C 	0.73591 0.48299 0.98364 -0.09000
C 	C 	0.71359 0.50398 0.99268 0.01900
C 	C 	0.73609 0.55131 0.99208 -0.07300
H 	H 	0.97635 0.89165 0.94249 0.04000
H 	H 	0.93127 0.80691 0.94058 0.04600
H 	H 	0.85609 0.81563 0.02280 0.04600
H 	H 	0.90153 0.90059 0.02519 0.03900
H 	H 	0.83810 0.57782 0.96588 0.05000
H 	H 	0.79870 0.49431 0.96711 0.03200
H 	H 	0.67869 0.48357 0.99987 0.03200
H 	H 	0.71859 0.56717 0.99911 0.05000
C 	C 	0.75284 0.23233 0.99769 -0.10000
C 	C 	0.72993 0.18686 0.00503 0.02100
C 	C 	0.75513 0.16804 0.01001 -0.07400
C 	C 	0.80334 0.19452 0.00784 0.04600
C 	C 	0.82677 0.24055 0.00220 -0.07300
C 	C 	0.80170 0.25946 0.99722 0.01600
C 	C 	0.82790 0.17341 0.00870 -0.03200
C 	C 	0.84863 0.15591 0.00940 0.00100
C 	C 	0.87268 0.13520 0.00938 -0.00400
C 	C 	0.89295 0.11726 0.00874 -0.02500
C 	C 	0.91680 0.09546 0.00731 0.03300
C 	C 	0.90130 0.05660 0.02406 -0.05500
C 	C 	0.92256 0.03369 0.02080 -0.01500
C 	C 	0.95950 0.04947 0.00063 -0.02000
C 	C 	0.97548 0.08896 0.98441 -0.01700
C 	C 	0.95416 0.11181 0.98775 -0.05600
H 	H 	0.69235 0.16555 0.00567 0.03400
H 	H 	0.73686 0.13250 0.01460 0.05100
H 	H 	0.86417 0.26136 0.00083 0.04900
H 	H 	0.82006 0.29488 0.99233 0.02800
H 	H 	0.87250 0.04385 0.03931 0.04600
H 	H 	0.91030 0.00367 0.03388 0.04000
H 	H 	0.00376 0.10140 0.96864 0.03900
H 	H 	0.96628 0.14183 0.97469 0.04500
C 	C 	0.09719 0.04965 0.98720 -0.02800
C 	C 	0.12338 0.03510 0.00312 -0.00900
C 	C 	0.17053 0.05701 0.99921 -0.06100
C 	C 	0.19193 0.09363 0.97943 0.03500
C 	C 	0.16627 0.10892 0.96413 -0.05700
C 	C 	0.11904 0.08706 0.96803 -0.01300
C 	C 	0.24005 0.11508 0.97454 -0.02600
C 	C 	0.28038 0.13238 0.97087 -0.00400
C 	C 	0.32771 0.15220 0.96727 0.00000
C 	C 	0.36834 0.16903 0.96492 -0.03100
C 	C 	0.41716 0.18928 0.96313 0.04500
C 	C 	0.43540 0.16407 0.96945 -0.07200
C 	C 	0.48405 0.18568 0.97253 0.01800
C 	C 	0.51492 0.23291 0.96962 -0.09100
C 	C 	0.49600 0.25725 0.96120 0.01500
C 	C 	0.44735 0.23551 0.95813 -0.07300
H 	H 	0.10714 0.00669 0.01837 0.03900
H 	H 	0.19030 0.04526 0.01134 0.04900
H 	H 	0.18271 0.13738 0.94892 0.04600
H 	H 	0.09920 0.09852 0.95550 0.03800
H 	H 	0.41212 0.12811 0.97294 0.05000
H 	H 	0.49780 0.16602 0.97812 0.03500
H 	H 	0.51908 0.29339 0.95818 0.03100
H 	H 	0.43336 0.25505 0.95287 0.04900
