data_crystal

_cell_length_a 26.95163
_cell_length_b 24.34406
_cell_length_c 31.56260
_cell_angle_alpha 104.10499
_cell_angle_beta  115.95490
_cell_angle_gamma 111.20904

_symmetry_space_group_name_	'P 1'
_symmetry_space_group_name_H-M	'P 1'

loop_
_symmetry_equiv_pos_as_xyz
  x,y,z

loop_
_atom_site_label
_atom_site_type_symbol
_atom_site_fract_x
_atom_site_fract_y
_atom_site_fract_z
_atom_site_charge
N 	N 	0.65982 0.26165 0.96144 -0.13200
C 	C 	0.64769 0.30524 0.98444 0.13600
N 	N 	0.67543 0.36873 0.99141 -0.13500
C 	C 	0.71571 0.38854 0.97596 0.13900
N 	N 	0.72861 0.34507 0.95399 -0.13400
C 	C 	0.70057 0.28157 0.94659 0.14400
C 	C 	0.49644 0.22192 0.00778 -0.02700
C 	C 	0.50638 0.27504 0.99538 -0.00400
C 	C 	0.55793 0.30463 0.99054 -0.02700
C 	C 	0.60131 0.28234 0.99871 -0.00700
C 	C 	0.59483 0.23333 0.01546 0.03300
C 	C 	0.54165 0.20262 0.01959 0.05200
H 	H 	0.47236 0.29143 0.98701 0.05000
H 	H 	0.56230 0.34297 0.97823 0.05400
N 	N 	0.63317 0.20713 0.02352 -0.11000
N 	N 	0.53531 0.15055 0.03052 -0.11000
C 	C 	0.76514 0.15727 0.89592 -0.00100
C 	C 	0.73751 0.18288 0.86383 0.04100
C 	C 	0.71472 0.22315 0.87991 0.06500
C 	C 	0.71937 0.23670 0.92763 -0.03800
C 	C 	0.74506 0.20865 0.95872 -0.00800
C 	C 	0.76838 0.17005 0.94339 -0.03400
N 	N 	0.73342 0.17477 0.81785 -0.10800
N 	N 	0.69141 0.24853 0.84727 -0.10700
C 	C 	0.80272 0.58040 0.98232 0.01400
C 	C 	0.84201 0.55861 0.00979 -0.05500
C 	C 	0.81365 0.49733 0.00983 -0.03000
C 	C 	0.74547 0.45692 0.98298 -0.02000
C 	C 	0.70649 0.48016 0.95834 0.06100
C 	C 	0.73545 0.54255 0.95802 0.04100
H 	H 	0.89437 0.58793 0.02958 0.05100
H 	H 	0.84471 0.48050 0.02963 0.04400
N 	N 	0.63973 0.44176 0.92657 -0.11000
N 	N 	0.69272 0.55593 0.92610 -0.10500
S 	S 	0.59706 0.14808 0.03472 0.10300
S 	S 	0.70146 0.21839 0.80139 0.11100
S 	S 	0.62296 0.48919 0.90148 0.10700
H 	H 	0.74885 0.21834 0.99573 0.05400
H 	H 	0.79034 0.15132 0.96916 0.05500
N 	N 	0.57397 0.21967 0.38638 -0.13700
C 	C 	0.53799 0.24563 0.38949 0.14000
N 	N 	0.54344 0.29786 0.37932 -0.14200
C 	C 	0.58381 0.32324 0.36510 0.14200
N 	N 	0.61872 0.29634 0.36111 -0.13100
C 	C 	0.61496 0.24552 0.37278 0.14100
C 	C 	0.41376 0.17450 0.44059 -0.00300
C 	C 	0.38994 0.18077 0.39359 -0.03800
C 	C 	0.43033 0.20308 0.37663 -0.01100
C 	C 	0.49535 0.21925 0.40616 -0.04100
C 	C 	0.51888 0.21170 0.45226 0.06300
C 	C 	0.47778 0.18938 0.46968 0.04200
H 	H 	0.34030 0.16909 0.37037 0.04300
H 	H 	0.41097 0.20802 0.34058 0.04300
N 	N 	0.58252 0.23150 0.48621 -0.10900
N 	N 	0.50709 0.19031 0.51795 -0.10700
C 	C 	0.75014 0.18126 0.39425 0.00000
C 	C 	0.77186 0.24902 0.41067 0.04200
C 	C 	0.72665 0.27049 0.40179 0.06500
C 	C 	0.66033 0.22356 0.37640 -0.03900
C 	C 	0.63843 0.15497 0.35737 -0.00900
C 	C 	0.68285 0.13408 0.36619 -0.03800
N 	N 	0.83656 0.29894 0.44270 -0.10600
N 	N 	0.75398 0.33828 0.42667 -0.10700
C 	C 	0.65784 0.51408 0.36915 -0.00400
C 	C 	0.66047 0.50927 0.41355 -0.03800
C 	C 	0.63090 0.44610 0.41057 -0.01000
C 	C 	0.59844 0.38646 0.36324 -0.04000
C 	C 	0.59131 0.39076 0.31774 0.06300
C 	C 	0.62089 0.45521 0.32062 0.04200
H 	H 	0.68787 0.55445 0.45118 0.04400
H 	H 	0.63649 0.44378 0.44612 0.04500
N 	N 	0.56454 0.33643 0.27117 -0.10800
N 	N 	0.61878 0.45447 0.27646 -0.10800
S 	S 	0.58148 0.21875 0.53445 0.10700
S 	S 	0.83156 0.36512 0.45680 0.11300
S 	S 	0.57984 0.37365 0.23779 0.10400
H 	H 	0.58716 0.11775 0.33678 0.04600
H 	H 	0.66512 0.08129 0.35281 0.05500
N 	N 	0.49097 0.83729 0.03679 -0.14000
C 	C 	0.51582 0.80154 0.02437 0.14300
N 	N 	0.49216 0.73827 0.01820 -0.14800
C 	C 	0.44491 0.71162 0.02585 0.14500
N 	N 	0.42172 0.74836 0.03979 -0.13500
C 	C 	0.44346 0.81050 0.04407 0.13700
C 	C 	0.66353 0.88189 0.99649 0.03600
C 	C 	0.67559 0.86376 0.03748 -0.07900
C 	C 	0.62744 0.83795 0.04667 0.00800
C 	C 	0.56638 0.83029 0.01544 -0.07600
C 	C 	0.55491 0.85064 0.97610 0.09600
C 	C 	0.60368 0.87608 0.96624 0.02800
H 	H 	0.72158 0.86765 0.06121 0.05100
H 	H 	0.63759 0.82337 0.07784 0.03000
N 	N 	0.49552 0.83962 0.94056 -0.11000
N 	N 	0.58481 0.88619 0.92255 -0.10000
C 	C 	0.34376 0.91332 0.05085 0.00700
C 	C 	0.30813 0.84336 0.02116 0.02300
C 	C 	0.34121 0.80871 0.02003 0.05200
C 	C 	0.40956 0.84469 0.04941 -0.03700
C 	C 	0.44521 0.91482 0.08211 -0.01100
C 	C 	0.41259 0.94875 0.08304 -0.03700
N 	N 	0.24165 0.80565 0.98481 -0.09700
N 	N 	0.30212 0.74230 0.98260 -0.09500
C 	C 	0.33062 0.50323 0.98083 0.03200
C 	C 	0.34286 0.52147 0.94574 -0.05800
C 	C 	0.38380 0.58953 0.96179 0.02600
C 	C 	0.41360 0.64072 0.01337 -0.07500
C 	C 	0.40348 0.62252 0.04897 0.07800
C 	C 	0.36178 0.55338 0.03259 0.00800
H 	H 	0.32017 0.48313 0.90579 0.05300
H 	H 	0.39052 0.60244 0.93338 0.04100
N 	N 	0.42922 0.66796 0.09948 -0.11400
N 	N 	0.35270 0.54109 0.06938 -0.10800
S 	S 	0.50936 0.86298 0.90045 0.11900
S 	S 	0.23018 0.73274 0.95488 0.11700
S 	S 	0.39765 0.61764 0.11901 0.09800
H 	H 	0.49816 0.94341 0.10594 0.04700
H 	H 	0.44091 0.00294 0.10681 0.05000
N 	N 	0.41174 0.78187 0.47671 -0.13600
C 	C 	0.45327 0.75986 0.48697 0.14000
N 	N 	0.43612 0.70102 0.48871 -0.13800
C 	C 	0.37808 0.66493 0.48096 0.14100
N 	N 	0.33765 0.68811 0.47217 -0.13600
C 	C 	0.35402 0.74620 0.46950 0.14000
C 	C 	0.62593 0.86726 0.49285 -0.00000
C 	C 	0.58990 0.79666 0.46849 -0.03900
C 	C 	0.53476 0.76188 0.46802 -0.01000
C 	C 	0.51435 0.79699 0.49192 -0.04000
C 	C 	0.55070 0.86730 0.51697 0.06400
C 	C 	0.60650 0.90255 0.51698 0.04100
H 	H 	0.60415 0.76847 0.44940 0.05300
H 	H 	0.50720 0.70750 0.44801 0.04500
N 	N 	0.53844 0.90640 0.54484 -0.11000
N 	N 	0.64060 0.97097 0.54463 -0.10500
C 	C 	0.22284 0.81767 0.43909 -0.00200
C 	C 	0.19770 0.74887 0.41528 0.04200
C 	C 	0.24096 0.72489 0.42437 0.06400
C 	C 	0.30893 0.77020 0.45833 -0.03900
C 	C 	0.33375 0.83960 0.48281 -0.00900
C 	C 	0.29113 0.86302 0.47319 -0.03600
N 	N 	0.13257 0.70151 0.37771 -0.10700
N 	N 	0.21179 0.65756 0.39408 -0.11100
C 	C 	0.30253 0.47162 0.47452 -0.00200
C 	C 	0.26844 0.47973 0.43020 -0.03900
C 	C 	0.29487 0.54220 0.43146 -0.01100
C 	C 	0.35609 0.59799 0.47704 -0.04100
C 	C 	0.39187 0.58952 0.52016 0.06300
C 	C 	0.36467 0.52575 0.51895 0.04200
H 	H 	0.22043 0.43815 0.39528 0.04600
H 	H 	0.26675 0.54760 0.39741 0.04500
N 	N 	0.44837 0.64162 0.56798 -0.11000
N 	N 	0.39869 0.52487 0.56569 -0.10600
S 	S 	0.59802 0.98122 0.56656 0.11100
S 	S 	0.13489 0.63414 0.35928 0.09700
S 	S 	0.45956 0.60339 0.60410 0.10600
H 	H 	0.38610 0.87560 0.50962 0.05200
H 	H 	0.31138 0.91656 0.49220 0.05300
Zn	Zn	0.18399 0.16400 0.01155 1.17800
Zn	Zn	0.07982 0.09401 0.89330 1.19500
O 	O 	0.09111 0.98321 0.82596 -0.47100
O 	O 	0.05425 0.05396 0.81676 -0.44000
O 	O 	0.10328 0.92480 0.91655 -0.49100
C 	C 	0.25790 0.12175 0.98787 0.33500
O 	O 	0.02785 0.00378 0.88192 -0.88800
C 	C 	0.18517 0.24090 0.95118 0.32300
O 	O 	0.26208 0.16250 0.02701 -0.46500
O 	O 	0.20124 0.08197 0.94064 -0.37800
O 	O 	0.09482 0.11531 0.96629 -0.76300
O 	O 	0.14298 0.02027 0.98813 -0.44000
O 	O 	0.12992 0.18791 0.90641 -0.44700
O 	O 	0.20598 0.24313 0.99835 -0.43800
Zn	Zn	0.91219 0.89352 0.90482 1.18000
Zn	Zn	0.02514 0.95624 0.01542 1.18800
Zn	Zn	0.04623 0.02457 0.95200 1.21800
C 	C 	0.92176 0.81409 0.96359 0.34600
C 	C 	0.85817 0.93589 0.95428 0.32000
O 	O 	0.94871 0.03116 0.91515 -0.45500
Zn	Zn	0.00795 0.06745 0.02870 1.19300
O 	O 	0.98267 0.86323 0.00311 -0.45300
O 	O 	0.89109 0.81305 0.91709 -0.44900
O 	O 	0.84692 0.90816 0.90724 -0.46600
O 	O 	0.91748 0.96532 0.99840 -0.44900
C 	C 	0.04527 0.04255 0.11850 0.31500
O 	O 	0.99954 0.93433 0.93884 -0.77800
C 	C 	0.93611 0.07286 0.93720 0.33400
O 	O 	0.04614 0.99178 0.09198 -0.41700
O 	O 	0.04387 0.08730 0.10253 -0.47900
O 	O 	0.96057 0.09740 0.98832 -0.48300
O 	O 	0.06343 0.04480 0.02148 -0.90800
Zn	Zn	0.06192 0.95257 0.86813 1.18800
C 	C 	0.06836 0.01142 0.79836 0.30000
C 	C 	0.14649 0.96886 0.96767 0.33100
H 	H 	0.11012 0.07579 0.05215 0.17000
H 	H 	0.98066 0.98110 0.85340 0.16500
Zn	Zn	0.14004 0.12838 0.50655 1.18800
Zn	Zn	0.03752 0.08328 0.38734 1.19200
O 	O 	0.98122 0.95600 0.27276 -0.46300
O 	O 	0.00674 0.06372 0.31129 -0.45000
O 	O 	0.99099 0.87495 0.34783 -0.48700
C 	C 	0.21643 0.10067 0.47641 0.30800
O 	O 	0.96146 0.99715 0.36111 -0.87300
C 	C 	0.15660 0.22140 0.46271 0.32700
O 	O 	0.21702 0.12612 0.51850 -0.44400
O 	O 	0.16044 0.06162 0.42869 -0.33600
O 	O 	0.05226 0.08876 0.45790 -0.78300
O 	O 	0.06011 0.96263 0.43271 -0.43600
O 	O 	0.11968 0.16719 0.41558 -0.46300
O 	O 	0.16829 0.21643 0.50630 -0.44000
Zn	Zn	0.84129 0.88960 0.37962 1.18000
Zn	Zn	0.94976 0.90524 0.47243 1.19600
Zn	Zn	0.98643 0.99751 0.42873 1.22000
C 	C 	0.81968 0.77564 0.40369 0.32700
C 	C 	0.82283 0.94671 0.45629 0.33000
O 	O 	0.91370 0.03712 0.42546 -0.45900
Zn	Zn	0.98324 0.03977 0.52814 1.20200
O 	O 	0.88228 0.81083 0.44442 -0.45000
O 	O 	0.79669 0.79610 0.36876 -0.45100
O 	O 	0.79826 0.92183 0.40496 -0.46000
O 	O 	0.87793 0.95213 0.48924 -0.47800
C 	C 	0.00835 0.97293 0.59282 0.31000
O 	O 	0.92132 0.90605 0.40061 -0.79300
C 	C 	0.92165 0.08452 0.46366 0.33000
O 	O 	0.98994 0.92150 0.55043 -0.41600
O 	O 	0.01419 0.02891 0.59233 -0.46900
O 	O 	0.96076 0.10094 0.51383 -0.48000
O 	O 	0.01151 0.99737 0.49570 -0.89700
Zn	Zn	0.96254 0.92713 0.32050 1.18300
C 	C 	0.00739 0.01774 0.27975 0.29200
C 	C 	0.04324 0.90555 0.39716 0.31700
H 	H 	0.05794 0.01241 0.52006 0.16600
H 	H 	0.91941 0.99439 0.34186 0.16200
C 	C 	0.05558 0.99272 0.74504 -0.09800
C 	C 	0.10644 0.02165 0.73901 0.05900
C 	C 	0.09045 0.01004 0.68762 -0.03000
C 	C 	0.02516 0.96893 0.64249 -0.09200
C 	C 	0.97552 0.93371 0.64794 0.06400
C 	C 	0.99114 0.94672 0.69941 -0.02000
H 	H 	0.12880 0.03466 0.68297 0.03800
H 	H 	0.95286 0.92153 0.70397 0.02700
C 	C 	0.17793 0.06381 0.78652 -0.11900
C 	C 	0.90636 0.88008 0.59920 -0.11600
C 	C 	0.20867 0.13895 0.80325 -0.01100
H 	H 	0.20107 0.14699 0.76827 0.03000
H 	H 	0.26230 0.16546 0.83365 0.03800
C 	C 	0.89931 0.81202 0.57773 -0.01400
H 	H 	0.91517 0.79829 0.61029 0.03200
H 	H 	0.93080 0.81515 0.56342 0.05100
H 	H 	0.18559 0.05646 0.82166 0.06900
H 	H 	0.89185 0.89419 0.56687 0.06400
C 	C 	0.18149 0.17019 0.82778 -0.16300
C 	C 	0.82852 0.75683 0.53130 -0.16400
H 	H 	0.18740 0.16091 0.86191 0.07000
H 	H 	0.20871 0.22525 0.84289 0.07100
H 	H 	0.12897 0.14892 0.79727 0.07900
H 	H 	0.20534 0.04665 0.77501 0.06100
H 	H 	0.79694 0.74819 0.54576 0.06500
H 	H 	0.82554 0.70933 0.51365 0.07000
H 	H 	0.81011 0.77126 0.49966 0.07500
H 	H 	0.87159 0.87516 0.61015 0.06000
C 	C 	0.02496 0.03156 0.24369 -0.07900
C 	C 	0.06637 0.01395 0.23626 0.04700
C 	C 	0.07372 0.01896 0.19568 -0.02100
C 	C 	0.04846 0.05010 0.16804 -0.09100
C 	C 	0.01881 0.08016 0.18410 0.06300
C 	C 	0.00161 0.06456 0.21747 -0.04600
H 	H 	0.10085 0.00036 0.18678 0.05100
H 	H 	0.97284 0.08138 0.22524 0.05900
C 	C 	0.10911 0.99778 0.27507 -0.10100
C 	C 	0.01316 0.13522 0.17234 -0.12400
C 	C 	0.18166 0.05498 0.31157 -0.02200
H 	H 	0.20042 0.06307 0.28709 0.03500
H 	H 	0.20998 0.03964 0.33836 0.04100
C 	C 	0.94696 0.10697 0.12015 -0.00500
H 	H 	0.90764 0.08786 0.12612 0.03700
H 	H 	0.93574 0.06432 0.08697 0.02800
H 	H 	0.09386 0.98609 0.30078 0.04900
H 	H 	0.05492 0.16661 0.17227 0.06400
C 	C 	0.19382 0.12107 0.34624 -0.16100
C 	C 	0.94660 0.16101 0.10376 -0.16600
H 	H 	0.16961 0.11301 0.36685 0.07300
H 	H 	0.24716 0.15731 0.37714 0.06800
H 	H 	0.17496 0.14334 0.32120 0.07000
H 	H 	0.10447 0.95178 0.25142 0.05700
H 	H 	0.95697 0.20404 0.13608 0.06800
H 	H 	0.89797 0.14015 0.06674 0.06400
H 	H 	0.98392 0.17902 0.09557 0.05400
H 	H 	0.01781 0.17075 0.20580 0.05300
C 	C 	0.19611 0.28652 0.46829 -0.10200
C 	C 	0.19285 0.34191 0.48997 0.09000
C 	C 	0.23009 0.40307 0.49394 -0.08000
C 	C 	0.27000 0.40932 0.47585 0.02900
C 	C 	0.27401 0.35423 0.45494 0.02000
C 	C 	0.23674 0.29309 0.45089 0.00600
H 	H 	0.22667 0.44533 0.50975 0.06800
H 	H 	0.23981 0.25074 0.43466 0.04500
I 	I 	0.12832 0.33338 0.51304 -0.13000
I 	I 	0.33617 0.36196 0.42952 -0.11300
C 	C 	0.77898 0.94562 0.47308 -0.09900
C 	C 	0.71831 0.93764 0.43848 0.09900
C 	C 	0.66918 0.91422 0.44646 -0.07900
C 	C 	0.68102 0.90258 0.49021 0.03100
C 	C 	0.74430 0.92037 0.52902 0.02300
C 	C 	0.79319 0.94254 0.52067 0.00200
H 	H 	0.62151 0.90448 0.41831 0.06900
H 	H 	0.84165 0.95567 0.55050 0.04800
I 	I 	0.70138 0.96793 0.37831 -0.11300
I 	I 	0.76718 0.91414 0.60049 -0.11600
C 	C 	0.17877 0.84262 0.42929 0.03100
C 	C 	0.15258 0.85179 0.38396 0.01700
C 	C 	0.10959 0.87394 0.37468 0.00600
C 	C 	0.09022 0.88446 0.40900 -0.11300
C 	C 	0.11553 0.87412 0.45387 0.10000
C 	C 	0.16053 0.85442 0.46426 -0.08500
H 	H 	0.09058 0.88228 0.34034 0.03300
H 	H 	0.17997 0.84644 0.49875 0.07000
I 	I 	0.17395 0.82879 0.32712 -0.09600
I 	I 	0.08253 0.88181 0.50383 -0.19900
C 	C 	0.28962 0.43190 0.96454 0.01800
C 	C 	0.22336 0.40280 0.94534 0.02600
C 	C 	0.18810 0.33823 0.93773 -0.00100
C 	C 	0.21865 0.30271 0.94965 -0.09800
C 	C 	0.28387 0.33059 0.96595 0.08400
C 	C 	0.31872 0.39467 0.97300 -0.07300
H 	H 	0.13774 0.31678 0.92453 0.05300
H 	H 	0.36931 0.41649 0.98680 0.06600
I 	I 	0.17594 0.45582 0.92884 -0.08600
I 	I 	0.33141 0.27763 0.98015 -0.12400
C 	C 	0.80252 0.92106 0.95808 -0.09500
C 	C 	0.75388 0.85433 0.93858 0.09400
C 	C 	0.70829 0.84249 0.95075 -0.07100
C 	C 	0.70877 0.89598 0.98046 0.01700
C 	C 	0.75364 0.96221 0.99608 0.04400
C 	C 	0.80027 0.97437 0.98481 -0.00400
H 	H 	0.67234 0.79138 0.93716 0.06900
H 	H 	0.83465 0.02522 0.99669 0.04100
I 	I 	0.74482 0.76972 0.88860 -0.10700
I 	I 	0.75142 0.04441 0.03583 -0.14100
C 	C 	0.30986 0.94949 0.04187 0.00000
C 	C 	0.29623 0.96501 0.99953 0.04900
C 	C 	0.24384 0.97336 0.97659 -0.00500
C 	C 	0.20723 0.97060 0.99761 -0.08400
C 	C 	0.22603 0.96351 0.04418 0.07400
C 	C 	0.27737 0.95302 0.06615 -0.06400
H 	H 	0.23013 0.97978 0.94121 0.04600
H 	H 	0.28892 0.94288 0.09971 0.06600
I 	I 	0.35112 0.97139 0.96693 -0.07400
I 	I 	0.17459 0.96284 0.07953 -0.19600
C 	C 	0.79738 0.16076 0.41354 0.03300
C 	C 	0.81962 0.14149 0.38333 0.01900
C 	C 	0.86216 0.11929 0.40137 0.00400
C 	C 	0.88194 0.11470 0.44898 -0.10700
C 	C 	0.86032 0.13564 0.47994 0.09700
C 	C 	0.81905 0.15918 0.46213 -0.07900
H 	H 	0.87919 0.10466 0.37788 0.03100
H 	H 	0.80214 0.17458 0.48549 0.07100
I 	I 	0.78908 0.14454 0.30993 -0.10700
I 	I 	0.88386 0.12901 0.55170 -0.11100
C 	C 	0.69815 0.57973 0.37550 0.02700
C 	C 	0.76071 0.60071 0.38708 0.01800
C 	C 	0.79935 0.66425 0.39509 -0.00100
C 	C 	0.77691 0.70798 0.39297 -0.10600
C 	C 	0.71478 0.68744 0.38259 0.08600
C 	C 	0.67549 0.62314 0.37312 -0.08300
H 	H 	0.84723 0.67995 0.40354 0.05100
H 	H 	0.62794 0.60755 0.36536 0.06400
I 	I 	0.79917 0.53852 0.39478 -0.09200
I 	I 	0.68178 0.75443 0.38710 -0.12900
C 	C 	0.27813 0.12011 0.48143 -0.09700
C 	C 	0.32655 0.18846 0.50490 0.08500
C 	C 	0.37220 0.20568 0.49273 -0.08100
C 	C 	0.37250 0.15567 0.45984 0.02700
C 	C 	0.32998 0.08783 0.44233 0.01700
C 	C 	0.28267 0.07028 0.45278 -0.00500
H 	H 	0.40692 0.25811 0.50824 0.07000
H 	H 	0.24732 0.01773 0.43634 0.04800
I 	I 	0.33518 0.26698 0.56107 -0.10700
I 	I 	0.33528 0.01105 0.39901 -0.09900
C 	C 	0.79812 0.12514 0.88463 0.03200
C 	C 	0.77696 0.05873 0.87548 0.01600
C 	C 	0.82018 0.03692 0.88414 -0.00200
C 	C 	0.88469 0.08143 0.90311 -0.11500
C 	C 	0.90176 0.14327 0.90318 0.09300
C 	C 	0.85851 0.16513 0.89417 -0.08000
H 	H 	0.80544 0.98751 0.88075 0.05000
H 	H 	0.87386 0.21518 0.89872 0.07300
I 	I 	0.68192 0.99218 0.85251 -0.08100
I 	I 	0.99485 0.20679 0.92149 -0.14200
C 	C 	0.89117 0.75461 0.96853 -0.08000
C 	C 	0.87886 0.75961 0.00795 0.07700
C 	C 	0.84986 0.70236 0.01205 -0.09700
C 	C 	0.83181 0.63985 0.97655 0.04600
C 	C 	0.84232 0.63450 0.93616 0.02100
C 	C 	0.87218 0.69187 0.93252 0.00600
H 	H 	0.84086 0.70635 0.04260 0.06400
H 	H 	0.88061 0.68766 0.90164 0.04900
I 	I 	0.89913 0.85174 0.05934 -0.12000
I 	I 	0.81227 0.54022 0.87937 -0.08500
C 	C 	0.31796 0.13030 0.99323 -0.07400
C 	C 	0.37807 0.16445 0.04414 0.07000
C 	C 	0.43674 0.19300 0.04870 -0.06700
C 	C 	0.43566 0.18306 0.00256 0.00800
C 	C 	0.37579 0.13895 0.95152 0.04800
C 	C 	0.31728 0.11275 0.94707 -0.01300
H 	H 	0.48306 0.22279 0.08800 0.06500
H 	H 	0.27128 0.08131 0.90765 0.05000
I 	I 	0.38175 0.16315 0.11251 -0.11300
I 	I 	0.37226 0.11107 0.88056 -0.10300
