data_crystal

_cell_length_a 26.10844
_cell_length_b 26.39277
_cell_length_c 34.94799
_cell_angle_alpha 95.51502
_cell_angle_beta  95.51228
_cell_angle_gamma 125.86309

_symmetry_space_group_name_	'P 1'
_symmetry_space_group_name_H-M	'P 1'

loop_
_symmetry_equiv_pos_as_xyz
  x,y,z

loop_
_atom_site_label
_atom_site_type_symbol
_atom_site_fract_x
_atom_site_fract_y
_atom_site_fract_z
_atom_site_charge
C 	C 	0.95649 0.01170 0.97902 0.10300
N 	N 	0.91950 0.94777 0.97733 -0.13600
C 	C 	0.94547 0.91601 0.97359 0.11200
N 	N 	0.00853 0.94830 0.97115 -0.13200
C 	C 	0.04571 0.01215 0.97262 0.11300
N 	N 	0.01978 0.04399 0.97684 -0.13400
C 	C 	0.95233 0.02042 0.46935 0.10500
N 	N 	0.01687 0.05648 0.47066 -0.13500
C 	C 	0.04858 0.03038 0.47444 0.11400
N 	N 	0.01567 0.96815 0.47731 -0.13200
C 	C 	0.95122 0.93185 0.47618 0.11200
N 	N 	0.91933 0.95785 0.47187 -0.13500
Cu	Cu	0.63378 0.22934 0.00260 0.92900
Cu	Cu	0.69278 0.24391 0.92264 0.86200
Cu	Cu	0.65977 0.32471 0.95074 0.89400
Cu	Cu	0.63270 0.34564 0.02853 0.89300
C 	C 	0.64788 0.27352 0.08403 0.29800
O 	O 	0.53976 0.19129 0.00182 -0.36700
C 	C 	0.64142 0.28444 0.86598 0.29400
O 	O 	0.68363 0.32775 0.00513 -0.64300
O 	O 	0.62417 0.23380 0.94664 -0.64500
O 	O 	0.67577 0.18628 0.00044 -0.37300
O 	O 	0.74924 0.25851 0.96797 -0.44500
O 	O 	0.61986 0.29971 0.07317 -0.39300
O 	O 	0.70123 0.41490 0.95558 -0.39200
C 	C 	0.70161 0.45215 0.98395 0.29500
C 	C 	0.51401 0.21709 0.98656 0.28200
O 	O 	0.55125 0.27672 0.98229 -0.39900
O 	O 	0.67216 0.43057 0.01375 -0.39700
O 	O 	0.65671 0.24087 0.05808 -0.36800
C 	C 	0.73106 0.21359 0.98862 0.28900
O 	O 	0.63605 0.31693 0.89455 -0.38700
O 	O 	0.65567 0.24518 0.87284 -0.42800
H 	H 	0.73042 0.35708 0.01587 0.16300
H 	H 	0.58047 0.20372 0.93045 0.17400
Cu	Cu	0.74746 0.35498 0.45490 0.92700
Cu	Cu	0.73340 0.29237 0.53313 0.86300
Cu	Cu	0.65178 0.32909 0.50782 0.89400
Cu	Cu	0.62971 0.35755 0.43047 0.89300
C 	C 	0.69774 0.33839 0.37404 0.29500
O 	O 	0.78684 0.44888 0.45757 -0.36300
C 	C 	0.68553 0.33195 0.59061 0.28800
O 	O 	0.64778 0.30638 0.45295 -0.64100
O 	O 	0.74305 0.36175 0.51101 -0.64300
O 	O 	0.78999 0.31209 0.45494 -0.37400
O 	O 	0.71665 0.23788 0.48647 -0.44500
O 	O 	0.67494 0.36945 0.38552 -0.39100
O 	O 	0.56099 0.29049 0.50397 -0.39400
C 	C 	0.52212 0.28475 0.47379 0.29300
C 	C 	0.76029 0.47403 0.47268 0.28100
O 	O 	0.70016 0.43683 0.47717 -0.39900
O 	O 	0.54430 0.31820 0.44577 -0.39600
O 	O 	0.73623 0.33495 0.39915 -0.36700
C 	C 	0.76141 0.25621 0.46530 0.28700
O 	O 	0.66050 0.34863 0.56455 -0.38500
O 	O 	0.73061 0.32582 0.58349 -0.42400
H 	H 	0.61783 0.26020 0.44195 0.15800
H 	H 	0.77435 0.40450 0.52763 0.17400
C 	C 	0.60068 0.30568 0.67753 -0.09300
C 	C 	0.65008 0.32359 0.70827 0.00200
C 	C 	0.71193 0.34766 0.70066 0.02200
C 	C 	0.72381 0.35524 0.66255 -0.01800
C 	C 	0.67355 0.33379 0.63122 -0.10800
C 	C 	0.61110 0.30840 0.63882 0.09300
C 	C 	0.63510 0.31128 0.74765 0.00200
C 	C 	0.76451 0.36246 0.73265 -0.17000
H 	H 	0.77183 0.37566 0.65700 0.03800
C 	C 	0.55529 0.28335 0.60604 -0.20200
H 	H 	0.55331 0.28728 0.68357 0.05000
C 	C 	0.65371 0.36129 0.77815 0.02400
C 	C 	0.65326 0.35145 0.81695 -0.02000
C 	C 	0.62948 0.29097 0.82510 -0.10900
C 	C 	0.59995 0.23862 0.79367 0.09600
C 	C 	0.60584 0.24974 0.75533 -0.09500
C 	C 	0.67553 0.42537 0.76963 -0.17300
H 	H 	0.67308 0.39119 0.84080 0.04000
C 	C 	0.56223 0.17114 0.80062 -0.19800
H 	H 	0.58840 0.21064 0.73152 0.04900
H 	H 	0.56161 0.32358 0.59384 0.08500
H 	H 	0.50874 0.25753 0.61641 0.06500
H 	H 	0.55178 0.24931 0.58261 0.07000
H 	H 	0.74813 0.31964 0.74558 0.06000
H 	H 	0.77741 0.40183 0.75593 0.05900
H 	H 	0.80880 0.37717 0.72137 0.05600
H 	H 	0.67488 0.45414 0.79470 0.06100
H 	H 	0.64296 0.41942 0.74376 0.06500
H 	H 	0.72525 0.45209 0.76378 0.06100
H 	H 	0.52531 0.13727 0.77433 0.06300
H 	H 	0.53645 0.16539 0.82525 0.07000
H 	H 	0.59521 0.15817 0.80712 0.06800
C 	C 	0.67715 0.25263 0.27345 -0.09300
C 	C 	0.68549 0.29651 0.25024 0.00200
C 	C 	0.69967 0.35488 0.26784 0.02400
C 	C 	0.70571 0.36863 0.30850 -0.01600
C 	C 	0.69556 0.32406 0.33171 -0.10600
C 	C 	0.68090 0.26535 0.31402 0.09500
C 	C 	0.67463 0.27912 0.20715 0.00400
C 	C 	0.70637 0.40172 0.24322 -0.17200
H 	H 	0.71756 0.41384 0.32209 0.04100
C 	C 	0.66910 0.21615 0.33808 -0.20200
H 	H 	0.66639 0.20795 0.25977 0.05000
C 	C 	0.72685 0.30042 0.18761 0.02400
C 	C 	0.71706 0.29607 0.14683 -0.01700
C 	C 	0.65541 0.26806 0.12540 -0.10900
C 	C 	0.60197 0.23896 0.14445 0.10200
C 	C 	0.61225 0.24621 0.18537 -0.09600
C 	C 	0.79330 0.33018 0.21025 -0.17200
H 	H 	0.75768 0.31619 0.13195 0.03300
C 	C 	0.53425 0.20214 0.12153 -0.20500
H 	H 	0.57194 0.22798 0.20039 0.05100
H 	H 	0.71518 0.23244 0.35633 0.08400
H 	H 	0.64848 0.16961 0.31922 0.06500
H 	H 	0.63440 0.20806 0.35727 0.06500
H 	H 	0.66060 0.37948 0.22235 0.06300
H 	H 	0.74570 0.41664 0.22661 0.06100
H 	H 	0.71786 0.44524 0.26145 0.05900
H 	H 	0.82614 0.33469 0.19052 0.06000
H 	H 	0.79115 0.30025 0.23126 0.06500
H 	H 	0.81395 0.37836 0.22659 0.06100
H 	H 	0.52798 0.17285 0.09391 0.08200
H 	H 	0.52365 0.23564 0.11458 0.07700
H 	H 	0.49852 0.16914 0.13851 0.06700
C 	C 	0.91536 0.78611 0.51209 -0.04600
C 	C 	0.86486 0.73742 0.48235 0.00500
C 	C 	0.83850 0.75249 0.45265 -0.04500
C 	C 	0.86418 0.81609 0.45191 -0.02300
C 	C 	0.91670 0.86502 0.48068 -0.01900
C 	C 	0.94125 0.84962 0.51123 -0.02300
C 	C 	0.84142 0.67101 0.48141 0.02300
H 	H 	0.79905 0.71509 0.42976 0.04000
H 	H 	0.84488 0.82741 0.42819 0.03800
H 	H 	0.98151 0.88702 0.53374 0.03700
H 	H 	0.93562 0.77486 0.53530 0.03900
C 	C 	0.85551 0.64168 0.45312 -0.06600
C 	C 	0.83202 0.57822 0.45160 0.01100
C 	C 	0.79384 0.54339 0.47823 -0.08900
C 	C 	0.78161 0.57353 0.50735 0.01100
C 	C 	0.80536 0.63707 0.50894 -0.06600
H 	H 	0.88402 0.66783 0.43204 0.04500
H 	H 	0.84162 0.55555 0.42888 0.03500
H 	H 	0.75268 0.54737 0.52827 0.03000
H 	H 	0.79493 0.65960 0.53119 0.04500
C 	C 	0.87117 0.21031 0.44794 -0.06900
C 	C 	0.83388 0.14714 0.45387 0.02400
C 	C 	0.77021 0.11786 0.45887 -0.06900
C 	C 	0.74522 0.15242 0.46012 0.01000
C 	C 	0.78393 0.21698 0.45690 -0.09900
C 	C 	0.84638 0.24513 0.44950 0.01100
C 	C 	0.86324 0.11363 0.45824 0.00200
H 	H 	0.74078 0.06897 0.46309 0.04200
H 	H 	0.69638 0.12951 0.46477 0.02500
H 	H 	0.87658 0.29454 0.44640 0.03200
H 	H 	0.92000 0.23301 0.44330 0.04400
C 	C 	0.83582 0.05457 0.43417 -0.04200
C 	C 	0.86350 0.02282 0.43870 -0.03300
C 	C 	0.91908 0.05013 0.46712 -0.01600
C 	C 	0.94578 0.10865 0.49156 -0.02600
C 	C 	0.91790 0.14009 0.48724 -0.04400
H 	H 	0.79350 0.03359 0.41177 0.03700
H 	H 	0.84268 0.97785 0.41954 0.04400
H 	H 	0.98839 0.12993 0.51378 0.03700
H 	H 	0.93877 0.18504 0.50644 0.03600
C 	C 	0.22243 0.09192 0.49710 -0.04500
C 	C 	0.25138 0.14155 0.47594 0.00500
C 	C 	0.21391 0.15551 0.45492 -0.04500
C 	C 	0.14785 0.11961 0.45466 -0.02300
C 	C 	0.11865 0.06953 0.47558 -0.02000
C 	C 	0.15646 0.05620 0.49703 -0.02300
C 	C 	0.32078 0.17838 0.47542 0.02500
H 	H 	0.23594 0.19399 0.43867 0.04000
H 	H 	0.11928 0.13021 0.43779 0.04100
H 	H 	0.13478 0.01826 0.51370 0.03900
H 	H 	0.25098 0.08078 0.51339 0.03800
C 	C 	0.36598 0.21272 0.51045 -0.06800
C 	C 	0.43172 0.24719 0.50999 0.01500
C 	C 	0.45286 0.24777 0.47446 -0.09200
C 	C 	0.40760 0.21349 0.43942 0.01400
C 	C 	0.34185 0.17883 0.43992 -0.06800
H 	H 	0.35016 0.21297 0.53797 0.04400
H 	H 	0.46617 0.27420 0.53714 0.03000
H 	H 	0.42333 0.21328 0.41186 0.02400
H 	H 	0.30728 0.15208 0.41276 0.04500
C 	C 	0.88436 0.74428 0.95371 -0.04600
C 	C 	0.83381 0.71625 0.97460 0.00500
C 	C 	0.81850 0.75343 0.99404 -0.04500
C 	C 	0.85433 0.81843 0.99330 -0.02300
C 	C 	0.90566 0.84683 0.97290 -0.02000
C 	C 	0.91996 0.80917 0.95272 -0.02300
C 	C 	0.79817 0.64841 0.97706 0.02500
H 	H 	0.77924 0.73207 0.01003 0.04000
H 	H 	0.84288 0.84687 0.00913 0.04100
H 	H 	0.95876 0.83017 0.93638 0.03800
H 	H 	0.89651 0.71592 0.93861 0.03800
C 	C 	0.76533 0.60161 0.94285 -0.06700
C 	C 	0.73356 0.53748 0.94509 0.01500
C 	C 	0.73403 0.51956 0.98161 -0.09100
C 	C 	0.76621 0.56636 0.01586 0.01400
C 	C 	0.79829 0.63050 0.01357 -0.06800
H 	H 	0.76460 0.61497 0.91455 0.04400
H 	H 	0.70832 0.50174 0.91848 0.03300
H 	H 	0.76726 0.55316 0.04417 0.02600
H 	H 	0.82386 0.66635 0.04012 0.04400
C 	C 	0.86573 0.19774 0.98781 -0.07000
C 	C 	0.83698 0.13698 0.99683 0.02500
C 	C 	0.77605 0.10434 0.00723 -0.06900
C 	C 	0.74254 0.13058 0.00637 0.01300
C 	C 	0.76977 0.18989 0.99517 -0.09800
C 	C 	0.83251 0.22424 0.98720 0.01000
C 	C 	0.86814 0.10537 0.99214 -0.00000
H 	H 	0.75392 0.05784 0.01490 0.04500
H 	H 	0.69468 0.10387 0.01321 0.03400
H 	H 	0.85491 0.27076 0.97952 0.02500
H 	H 	0.91299 0.22358 0.98009 0.04200
C 	C 	0.83685 0.04809 0.96526 -0.04100
C 	C 	0.86629 0.01822 0.96047 -0.03500
C 	C 	0.92753 0.04548 0.98237 -0.01200
C 	C 	0.95937 0.10337 0.00882 -0.03600
C 	C 	0.92969 0.13310 0.01377 -0.04000
H 	H 	0.78977 0.02682 0.94799 0.03500
H 	H 	0.84153 0.97388 0.93971 0.04500
H 	H 	0.00648 0.12466 0.02604 0.04600
H 	H 	0.95430 0.17740 0.03455 0.03600
C 	C 	0.34269 0.11722 0.00264 -0.06800
C 	C 	0.31281 0.12948 0.97337 0.02400
C 	C 	0.34807 0.16699 0.94678 -0.06700
C 	C 	0.41334 0.19362 0.95012 0.01200
C 	C 	0.44379 0.18273 0.98003 -0.09200
C 	C 	0.40787 0.14357 0.00592 0.01300
C 	C 	0.24465 0.10312 0.97068 0.00300
H 	H 	0.32512 0.17616 0.92386 0.04500
H 	H 	0.44043 0.22335 0.92979 0.02900
H 	H 	0.43086 0.13516 0.02930 0.03100
H 	H 	0.31558 0.08786 0.02311 0.04500
C 	C 	0.19733 0.04835 0.94295 -0.04200
C 	C 	0.13225 0.02011 0.94253 -0.03100
C 	C 	0.11397 0.04654 0.96981 -0.01700
C 	C 	0.16147 0.10286 0.99654 -0.02400
C 	C 	0.22660 0.13091 0.99705 -0.04400
H 	H 	0.21094 0.02689 0.92231 0.03800
H 	H 	0.09600 0.97705 0.92147 0.04500
H 	H 	0.14796 0.12367 0.01773 0.03900
H 	H 	0.26297 0.17349 0.01841 0.04000
