data_crystal

_cell_length_a 16.18247
_cell_length_b 15.81431
_cell_length_c 38.18630
_cell_angle_alpha 89.86178
_cell_angle_beta  89.86472
_cell_angle_gamma 119.40585

_symmetry_space_group_name_	'P 1'
_symmetry_space_group_name_H-M	'P 1'

loop_
_symmetry_equiv_pos_as_xyz
  x,y,z

loop_
_atom_site_label
_atom_site_type_symbol
_atom_site_fract_x
_atom_site_fract_y
_atom_site_fract_z
_atom_site_charge
Ni	Ni	0.04557 0.93265 0.76665 1.07100
Ni	Ni	0.07007 0.14769 0.75413 1.10100
O 	O 	0.00124 0.15490 0.19645 -0.37800
O 	O 	0.07879 0.23487 0.26652 -0.38900
C 	C 	0.06202 0.21974 0.12672 -0.05800
H 	H 	0.05400 0.29475 0.08091 0.03500
C 	C 	0.05272 0.66423 0.52062 0.14600
C 	C 	0.06982 0.66834 0.48438 -0.15600
O 	O 	0.12608 0.69216 0.54380 -0.27900
H 	H 	0.14788 0.76152 0.54867 0.14700
C 	C 	0.06927 0.58001 0.01342 -0.17100
C 	C 	0.05115 0.53289 0.95198 -0.12300
H 	H 	0.06940 0.55331 0.92475 0.06500
C 	C 	0.54548 0.22447 0.85210 0.28300
C 	C 	0.55077 0.42575 0.94817 0.31300
O 	O 	0.53608 0.29932 0.86220 -0.37100
C 	C 	0.49959 0.25182 0.61936 0.29800
O 	O 	0.54095 0.20026 0.61353 -0.38800
O 	O 	0.53788 0.34223 0.60782 -0.38000
C 	C 	0.18990 0.09985 0.80473 0.28700
C 	C 	0.19125 0.08667 0.71769 0.31600
O 	O 	0.11891 0.01166 0.80942 -0.37700
O 	O 	0.17809 0.16846 0.78840 -0.38200
O 	O 	0.17343 0.01353 0.73881 -0.36500
O 	O 	0.12958 0.11609 0.71365 -0.40600
C 	C 	0.49264 0.79382 0.38328 0.28500
C 	C 	0.15112 0.42517 0.41004 0.29600
C 	C 	0.22652 0.71044 0.36408 0.30500
C 	C 	0.38202 0.48547 0.43809 0.30700
C 	C 	0.15401 0.66598 0.47134 0.34300
C 	C 	0.41163 0.75394 0.49807 0.30700
Ni	Ni	0.32133 0.59505 0.38439 1.11300
Ni	Ni	0.26301 0.56350 0.46680 1.12200
Ni	Ni	0.33166 0.77024 0.43087 1.12000
O 	O 	0.46152 0.70051 0.37712 -0.37000
O 	O 	0.43269 0.82601 0.39169 -0.37800
O 	O 	0.14864 0.58151 0.46560 -0.39000
O 	O 	0.17843 0.50290 0.39118 -0.38600
O 	O 	0.18440 0.43310 0.44191 -0.36600
O 	O 	0.42819 0.80558 0.46876 -0.39000
O 	O 	0.28755 0.68334 0.35374 -0.37400
O 	O 	0.22301 0.73193 0.39695 -0.38900
O 	O 	0.33132 0.67025 0.50306 -0.36700
O 	O 	0.35605 0.49212 0.40531 -0.37000
O 	O 	0.36874 0.53083 0.46495 -0.38500
O 	O 	0.23558 0.74692 0.46891 -0.38500
O 	O 	0.32780 0.64838 0.42853 -0.71700
H 	H 	0.39412 0.66843 0.43443 0.16100
C 	C 	0.48180 0.60481 0.06051 0.31700
C 	C 	0.21322 0.66569 0.15287 0.30200
C 	C 	0.23669 0.44222 0.08591 0.30600
C 	C 	0.46790 0.83695 0.13247 0.28000
C 	C 	0.14541 0.62062 0.03916 0.34400
C 	C 	0.39822 0.83185 0.02328 0.29600
Ni	Ni	0.36175 0.62309 0.12198 1.11400
Ni	Ni	0.28799 0.76341 0.08766 1.12000
Ni	Ni	0.31885 0.61738 0.03947 1.12100
O 	O 	0.44732 0.57745 0.09322 -0.36200
O 	O 	0.45531 0.65527 0.04108 -0.38900
O 	O 	0.18515 0.71165 0.04971 -0.37900
O 	O 	0.28796 0.65668 0.16049 -0.36000
O 	O 	0.19102 0.66514 0.12027 -0.38800
O 	O 	0.34768 0.74064 0.01141 -0.38200
O 	O 	0.23817 0.49820 0.11102 -0.37500
O 	O 	0.28698 0.48107 0.05716 -0.37600
O 	O 	0.37609 0.85854 0.05296 -0.38700
O 	O 	0.47298 0.75599 0.13421 -0.36600
O 	O 	0.38473 0.83556 0.12760 -0.37100
O 	O 	0.18295 0.56829 0.04743 -0.41300
O 	O 	0.34749 0.68597 0.08222 -0.71100
H 	H 	0.41280 0.73771 0.07767 0.17300
C 	C 	0.08771 0.17476 0.18730 0.28600
C 	C 	0.12268 0.21771 0.29196 0.28300
C 	C 	0.05690 0.89255 0.20497 0.24700
C 	C 	0.05503 0.88151 0.28339 0.23300
Ni	Ni	0.12422 0.07104 0.24486 1.12800
O 	O 	0.11098 0.98728 0.20359 -0.41100
O 	O 	0.14897 0.18177 0.21150 -0.36900
O 	O 	0.12388 0.97275 0.27890 -0.39900
O 	O 	0.16403 0.16513 0.28586 -0.36400
C 	C 	0.21937 0.25228 0.14299 -0.01700
C 	C 	0.12268 0.21251 0.15142 -0.03600
C 	C 	0.10041 0.28140 0.09765 0.01900
C 	C 	0.19918 0.33921 0.09422 -0.07900
C 	C 	0.25707 0.31381 0.11388 0.00000
H 	H 	0.26644 0.24136 0.16020 0.05200
H 	H 	0.33322 0.35313 0.11009 0.03800
H 	H 	0.48503 0.92206 0.19630 0.03500
C 	C 	0.07815 0.66990 0.18192 0.01100
C 	C 	0.17685 0.71021 0.17815 -0.08200
C 	C 	0.23580 0.80721 0.18795 -0.01000
C 	C 	0.19700 0.86738 0.19524 -0.02700
C 	C 	0.09802 0.82896 0.19618 -0.04600
C 	C 	0.03889 0.72877 0.19093 -0.06500
H 	H 	0.03148 0.59456 0.17523 0.02900
H 	H 	0.31200 0.83799 0.18743 0.04300
H 	H 	0.24401 0.94340 0.20080 0.03200
H 	H 	0.55033 0.95897 0.34470 0.02800
C 	C 	0.03927 0.30806 0.36799 -0.03900
C 	C 	0.11371 0.33254 0.39154 -0.05900
C 	C 	0.17306 0.29181 0.38681 -0.01400
C 	C 	0.17365 0.24944 0.35471 -0.00400
C 	C 	0.11089 0.24278 0.32818 -0.06600
C 	C 	0.03929 0.26596 0.33595 -0.03300
H 	H 	0.22558 0.30241 0.40631 0.06400
H 	H 	0.22603 0.22698 0.34991 0.05300
C 	C 	0.07886 0.71302 0.34717 0.01400
C 	C 	0.16974 0.72880 0.33812 -0.08200
C 	C 	0.21188 0.77719 0.30682 0.00200
C 	C 	0.16936 0.81969 0.28705 -0.02800
C 	C 	0.08298 0.81251 0.29790 -0.03500
C 	C 	0.03559 0.75475 0.32712 -0.06900
H 	H 	0.04390 0.67252 0.37062 0.03100
H 	H 	0.28128 0.78880 0.29926 0.04000
H 	H 	0.20797 0.86592 0.26523 0.03900
C 	C 	0.47023 0.80379 0.52852 -0.10200
C 	C 	0.57215 0.97904 0.56405 -0.16100
C 	C 	0.47998 0.91248 0.57505 -0.04300
C 	C 	0.42864 0.82429 0.55737 0.15800
H 	H 	0.44488 0.93319 0.59471 0.03900
O 	O 	0.33477 0.76464 0.56536 -0.27300
H 	H 	0.33417 0.71803 0.58291 0.14400
C 	C 	0.41389 0.41484 0.44575 -0.10100
C 	C 	0.40229 0.28598 0.48381 -0.05700
C 	C 	0.36082 0.33692 0.46879 0.16700
H 	H 	0.36268 0.22958 0.50297 0.07100
O 	O 	0.26907 0.31178 0.47720 -0.28100
H 	H 	0.27349 0.34856 0.49878 0.14500
C 	C 	0.40234 0.27061 0.66636 -0.02500
C 	C 	0.41554 0.21101 0.64248 -0.05000
C 	C 	0.35703 0.10961 0.64465 -0.04200
C 	C 	0.28812 0.06837 0.67093 0.07600
C 	C 	0.27513 0.12791 0.69479 -0.10300
C 	C 	0.33213 0.22928 0.69224 0.00700
H 	H 	0.44772 0.34867 0.66543 0.04500
H 	H 	0.36608 0.06263 0.62628 0.06800
H 	H 	0.24288 0.99029 0.67204 -0.02100
H 	H 	0.32134 0.27606 0.71015 0.02100
C 	C 	0.09366 0.60417 0.97796 0.19400
O 	O 	0.15992 0.69702 0.96866 -0.29800
H 	H 	0.21948 0.69505 0.96467 0.15000
C 	C 	0.46226 0.91019 0.99962 -0.05600
C 	C 	0.42453 0.95744 0.97955 -0.14600
C 	C 	0.48174 0.05438 0.96918 0.25300
H 	H 	0.34914 0.92120 0.97409 0.07800
O 	O 	0.44308 0.09949 0.94986 -0.30400
H 	H 	0.42236 0.13182 0.96725 0.17100
C 	C 	0.52049 0.55195 0.04123 -0.10700
C 	C 	0.45873 0.45372 0.03399 -0.05900
C 	C 	0.45583 0.41682 0.00032 0.16500
C 	C 	0.52317 0.47473 0.97472 -0.10600
H 	H 	0.40596 0.40863 0.05315 0.07100
O 	O 	0.39144 0.32183 0.99323 -0.27900
H 	H 	0.33488 0.32314 0.98396 0.14900
C 	C 	0.45133 0.18026 0.79887 -0.01000
C 	C 	0.46688 0.15115 0.83186 -0.05400
C 	C 	0.38770 0.08325 0.85086 -0.01100
C 	C 	0.29777 0.07025 0.84298 -0.00100
C 	C 	0.28581 0.11862 0.81411 -0.06500
C 	C 	0.36219 0.16951 0.79099 -0.00300
H 	H 	0.51123 0.22557 0.78215 0.04000
H 	H 	0.39759 0.05266 0.87486 0.05900
H 	H 	0.23811 0.02476 0.85979 0.05200
H 	H 	0.35311 0.20185 0.76736 0.03800
O 	O 	0.53386 0.29669 0.53648 -0.38800
C 	C 	0.50404 0.43346 0.43484 -0.05900
C 	C 	0.49770 0.31453 0.47700 -0.10700
H 	H 	0.06668 0.26399 0.66282 0.06100
H 	H 	0.02375 0.35522 0.79394 -0.00200
H 	H 	0.00866 0.65695 0.43334 0.01800
C 	C 	0.56848 0.85918 0.52363 -0.05300
C 	C 	0.54955 0.93565 0.18296 -0.01000
C 	C 	0.54908 0.92287 0.14670 -0.06300
C 	C 	0.56029 0.95858 0.00667 0.08500
O 	O 	0.57250 0.46164 0.91529 -0.36600
O 	O 	0.58205 0.36953 0.96048 -0.38400
C 	C 	0.60683 0.08271 0.56895 0.37700
C 	C 	0.55156 0.29273 0.50336 0.32600
O 	O 	0.60195 0.13301 0.54262 -0.37900
C 	C 	0.58992 0.86377 0.37165 -0.07900
C 	C 	0.54557 0.38239 0.44997 0.17300
H 	H 	0.54401 0.49091 0.41608 0.06500
C 	C 	0.57930 0.10371 0.97700 -0.14400
C 	C 	0.58845 0.57135 0.98299 -0.06300
C 	C 	0.59356 0.60603 0.01708 0.17000
H 	H 	0.02604 0.33823 0.61380 -0.01400
O 	O 	0.59871 0.91363 0.02621 -0.27600
O 	O 	0.62999 0.22688 0.85212 -0.36300
H 	H 	0.60996 0.29912 0.91360 0.17900
C 	C 	0.60562 0.94029 0.34893 0.02100
C 	C 	0.61889 0.94913 0.54009 0.13200
H 	H 	0.60272 0.83969 0.50324 0.05400
C 	C 	0.61796 0.05528 0.99588 0.03700
H 	H 	0.61817 0.87982 0.00899 0.15400
C 	C 	0.64265 0.18977 0.95610 0.32600
Ni	Ni	0.63383 0.39667 0.56779 1.12000
O 	O 	0.62716 0.28743 0.49406 -0.35400
C 	C 	0.62641 0.94537 0.20266 -0.01600
C 	C 	0.63674 0.95356 0.12985 -0.01300
H 	H 	0.62262 0.94536 0.23100 0.03900
H 	H 	0.64015 0.95379 0.10150 0.04800
H 	H 	0.62519 0.35779 0.42041 0.15300
H 	H 	0.63968 0.61780 0.96371 0.07100
O 	O 	0.63487 0.40321 0.43984 -0.27200
Ni	Ni	0.64885 0.42919 0.87616 1.11300
O 	O 	0.65666 0.17516 0.92312 -0.37800
O 	O 	0.65766 0.12660 0.59669 -0.38600
O 	O 	0.66139 0.69918 0.02497 -0.28400
H 	H 	0.65316 0.78486 0.39535 0.03900
H 	H 	0.66948 0.67762 0.90520 0.03800
O 	O 	0.67362 0.35331 0.90820 -0.71100
C 	C 	0.66330 0.84200 0.37720 0.00600
H 	H 	0.67178 0.48727 0.69457 0.04200
Ni	Ni	0.68130 0.25882 0.61398 1.12200
O 	O 	0.69642 0.27581 0.97167 -0.38200
H 	H 	0.69347 0.09133 0.00107 0.06100
H 	H 	0.68445 0.26476 0.78459 0.05100
C 	C 	0.00430 0.21951 0.64727 -0.12700
C 	C 	0.68942 0.98682 0.32911 -0.09200
O 	O 	0.69920 0.32473 0.57073 -0.71400
H 	H 	0.69784 0.04090 0.30983 0.09600
Ni	Ni	0.71756 0.40779 0.95301 1.12100
O 	O 	0.70426 0.37683 0.64346 -0.37900
C 	C 	0.70752 0.95371 0.18577 -0.05400
H 	H 	0.70698 0.04724 0.50971 0.15000
H 	H 	0.71498 0.69332 0.03484 0.15200
H 	H 	0.71011 0.78342 0.85329 0.03500
O 	O 	0.71327 0.41450 0.82993 -0.36100
O 	O 	0.71101 0.01125 0.53035 -0.24400
Ni	Ni	0.71451 0.26721 0.52974 1.11600
C 	C 	0.71468 0.96394 0.14924 -0.01200
O 	O 	0.71846 0.47231 0.52564 -0.36100
O 	O 	0.72698 0.49301 0.60123 -0.38700
H 	H 	0.73064 0.63731 0.72931 0.04400
Ni	Ni	0.73401 0.28426 0.89079 1.12300
H 	H 	0.73352 0.14354 0.77120 0.05000
H 	H 	0.00358 0.86084 0.86506 -0.00800
C 	C 	0.74312 0.72025 0.89741 -0.02400
O 	O 	0.74475 0.54868 0.94508 -0.37200
C 	C 	0.73881 0.55022 0.68765 -0.01000
C 	C 	0.74420 0.46919 0.63260 0.28500
C 	C 	0.74640 0.88759 0.35707 -0.03300
C 	C 	0.75857 0.28485 0.78659 -0.01700
C 	C 	0.75774 0.95674 0.33171 -0.01800
C 	C 	0.76582 0.77886 0.86737 -0.00000
H 	H 	0.76427 0.37846 0.57403 0.16200
C 	C 	0.77115 0.63607 0.70689 -0.00800
O 	O 	0.77581 0.54905 0.88743 -0.37100
H 	H 	0.77989 0.97955 0.13593 0.04200
C 	C 	0.78351 0.59679 0.91582 0.30200
H 	H 	0.78257 0.06204 0.59119 0.07600
C 	C 	0.78633 0.21540 0.77953 -0.00300
H 	H 	0.99749 0.02902 0.27822 0.16600
H 	H 	0.98898 0.33353 0.37241 0.07600
O 	O 	0.99353 0.03172 0.25253 -0.67700
H 	H 	0.96255 0.69682 0.19270 0.08100
H 	H 	0.98729 0.25708 0.31641 0.06400
O 	O 	0.99248 0.01536 0.76643 -0.66900
H 	H 	0.98850 0.02559 0.79169 0.17600
O 	O 	0.96351 0.85796 0.28354 -0.35900
O 	O 	0.96440 0.85421 0.20916 -0.35300
H 	H 	0.96846 0.74737 0.33564 0.08100
C 	C 	0.99526 0.64755 0.46126 0.03400
C 	C 	0.79212 0.40963 0.83151 0.30000
C 	C 	0.89070 0.41043 0.93763 0.31500
O 	O 	0.85044 0.46301 0.93771 -0.39200
O 	O 	0.82110 0.40012 0.86198 -0.38000
O 	O 	0.84618 0.32297 0.92390 -0.36000
C 	C 	0.80376 0.48190 0.51881 0.29900
C 	C 	0.84844 0.25623 0.58647 0.30600
O 	O 	0.81531 0.40516 0.51431 -0.35900
O 	O 	0.81357 0.23464 0.55394 -0.35300
O 	O 	0.81988 0.30010 0.60901 -0.38200
C 	C 	0.89211 0.81003 0.71777 0.29900
C 	C 	0.87729 0.85680 0.81694 0.28100
C 	C 	0.94174 0.09255 0.69401 0.29300
C 	C 	0.90850 0.16081 0.78168 0.29300
Ni	Ni	0.86080 0.95926 0.75441 1.09400
O 	O 	0.88198 0.00253 0.70378 -0.34900
O 	O 	0.98358 0.86654 0.72006 -0.38200
O 	O 	0.83466 0.82498 0.73802 -0.38500
O 	O 	0.99714 0.18181 0.78857 -0.36300
O 	O 	0.84325 0.07284 0.77062 -0.35600
O 	O 	0.92973 0.83239 0.79688 -0.36200
O 	O 	0.83071 0.89866 0.80311 -0.38600
O 	O 	0.98756 0.15962 0.71760 -0.37000
C 	C 	0.82727 0.98009 0.30326 0.21600
C 	C 	0.79144 0.97527 0.20683 0.24900
Ni	Ni	0.95192 0.12406 0.24790 1.12500
Ni	Ni	0.90257 0.89911 0.24543 1.10700
O 	O 	0.88840 0.07341 0.29669 -0.32100
O 	O 	0.81021 0.90979 0.28008 -0.36300
O 	O 	0.81483 0.03922 0.23148 -0.33000
O 	O 	0.83294 0.92137 0.20441 -0.36500
H 	H 	0.98611 0.18314 0.13118 0.09600
H 	H 	0.79926 0.86482 0.35970 0.04800
C 	C 	0.88340 0.57710 0.50942 -0.09000
C 	C 	0.95909 0.62033 0.53307 -0.03000
C 	C 	0.90164 0.60180 0.47372 0.14900
H 	H 	0.94561 0.60754 0.56093 0.05700
O 	O 	0.82809 0.57200 0.45053 -0.26600
H 	H 	0.81940 0.51005 0.44082 0.16600
C 	C 	0.98234 0.26129 0.61906 0.11500
C 	C 	0.89756 0.20682 0.60072 -0.09100
C 	C 	0.84547 0.10607 0.60635 -0.00000
C 	C 	0.86574 0.06466 0.63511 0.03500
C 	C 	0.94030 0.12362 0.65760 -0.00400
H 	H 	0.81917 0.98881 0.64132 0.00200
C 	C 	0.79010 0.54756 0.65835 -0.06000
C 	C 	0.87621 0.62997 0.64953 -0.00900
C 	C 	0.90833 0.71572 0.66854 -0.00800
C 	C 	0.85534 0.71991 0.69701 -0.06900
H 	H 	0.91626 0.62884 0.62692 0.04300
H 	H 	0.97380 0.77942 0.66078 0.04800
C 	C 	0.99315 0.48757 0.02147 0.00600
C 	C 	0.95449 0.41591 0.99562 0.13400
C 	C 	0.97288 0.44210 0.96021 -0.04600
H 	H 	0.97418 0.46689 0.04865 0.06000
O 	O 	0.89554 0.32097 0.00500 -0.26000
H 	H 	0.83435 0.31696 0.01138 0.15100
C 	C 	0.82350 0.37412 0.80143 -0.06400
C 	C 	0.92066 0.40311 0.79919 -0.02700
C 	C 	0.94932 0.33423 0.79229 0.04400
C 	C 	0.88112 0.23777 0.78489 -0.07500
H 	H 	0.97291 0.47498 0.80779 0.05400
C 	C 	0.90688 0.76347 0.90403 -0.02600
C 	C 	0.81112 0.69948 0.91185 -0.05800
C 	C 	0.85838 0.82255 0.85371 -0.08100
C 	C 	0.93050 0.82181 0.87390 0.04400
H 	H 	0.96171 0.75547 0.91735 0.05800
