data_crystal

_cell_length_a 22.88993
_cell_length_b 20.76622
_cell_length_c 22.27435
_cell_angle_alpha 90.03301
_cell_angle_beta  89.11448
_cell_angle_gamma 90.53994

_symmetry_space_group_name_	'P 1'
_symmetry_space_group_name_H-M	'P 1'

loop_
_symmetry_equiv_pos_as_xyz
  x,y,z

loop_
_atom_site_label
_atom_site_type_symbol
_atom_site_fract_x
_atom_site_fract_y
_atom_site_fract_z
_atom_site_charge
C 	C 	0.11487 0.02560 0.14218 0.28400
C 	C 	0.94580 0.11361 0.96787 0.34100
C 	C 	0.02851 0.94106 0.02522 0.30800
C 	C 	0.02977 0.22626 0.04410 0.31900
C 	C 	0.10469 0.03053 0.87767 0.35100
C 	C 	0.20653 0.13237 0.96683 0.34100
Ni	Ni	0.01940 0.07727 0.06867 1.12000
Ni	Ni	0.07391 0.14293 0.94823 1.13400
Ni	Ni	0.13585 0.02015 0.00469 1.12000
O 	O 	0.08041 0.07565 0.13595 -0.33500
O 	O 	0.13943 0.99607 0.09475 -0.31000
O 	O 	0.06192 0.06964 0.89121 -0.36300
O 	O 	0.96267 0.06459 0.99881 -0.34500
O 	O 	0.98457 0.15628 0.94826 -0.33700
O 	O 	0.20062 0.08571 0.00763 -0.36500
O 	O 	0.01976 0.97670 0.07312 -0.32500
O 	O 	0.07238 0.95389 0.98843 -0.32800
O 	O 	0.16250 0.15019 0.93142 -0.33300
O 	O 	0.00404 0.17803 0.07520 -0.32700
O 	O 	0.07481 0.21589 0.00752 -0.35600
O 	O 	0.14781 0.02294 0.91497 -0.35400
O 	O 	0.08330 0.08970 0.01703 -0.73500
H 	H 	0.10771 0.11785 0.04224 0.18300
C 	C 	0.21739 0.82872 0.55675 0.32100
C 	C 	0.01734 0.97557 0.48177 0.34300
C 	C 	0.10245 0.92439 0.64026 0.34200
C 	C 	0.12389 0.90182 0.37328 0.33300
C 	C 	0.96063 0.79463 0.54819 0.35300
C 	C 	0.06441 0.70082 0.49307 0.32000
Ni	Ni	0.13738 0.92966 0.50983 1.12800
Ni	Ni	0.03670 0.83751 0.45084 1.13100
Ni	Ni	0.08824 0.80118 0.57912 1.13400
O 	O 	0.21293 0.87629 0.51722 -0.32600
O 	O 	0.17516 0.81633 0.59714 -0.33100
O 	O 	0.97074 0.84068 0.50969 -0.36800
O 	O 	0.06334 0.98602 0.51481 -0.33200
O 	O 	0.01943 0.93298 0.43774 -0.34300
O 	O 	0.10458 0.72306 0.52963 -0.35000
O 	O 	0.14463 0.93999 0.60238 -0.32800
O 	O 	0.06451 0.87945 0.62684 -0.34500
O 	O 	0.04126 0.73829 0.45064 -0.33200
O 	O 	0.14341 0.94153 0.41574 -0.32500
O 	O 	0.09962 0.84560 0.38667 -0.34100
O 	O 	0.00252 0.77309 0.58270 -0.35000
O 	O 	0.09668 0.84993 0.50702 -0.71900
H 	H 	0.12660 0.82404 0.48617 0.17200
C 	C 	0.89163 0.72549 0.95595 0.32200
C 	C 	0.82100 0.52354 0.12359 0.34300
C 	C 	0.97774 0.61815 0.03005 0.36500
C 	C 	0.71639 0.62632 0.03843 0.31200
C 	C 	0.89566 0.44276 0.97601 0.34900
C 	C 	0.81000 0.52503 0.85929 0.32500
Ni	Ni	0.85005 0.64165 0.05537 1.12200
Ni	Ni	0.78755 0.51628 0.99561 1.13500
Ni	Ni	0.90182 0.57792 0.93346 1.13800
O 	O 	0.84754 0.71561 0.99395 -0.33700
O 	O 	0.91659 0.67667 0.92540 -0.32000
O 	O 	0.84865 0.44982 0.00975 -0.36900
O 	O 	0.86383 0.56323 0.11020 -0.34600
O 	O 	0.77710 0.51677 0.08676 -0.34400
O 	O 	0.84353 0.57628 0.86747 -0.34600
O 	O 	0.94037 0.65891 0.05332 -0.35300
O 	O 	0.95925 0.56849 0.00020 -0.37200
O 	O 	0.78075 0.49688 0.90507 -0.33500
O 	O 	0.75980 0.64159 0.07528 -0.32700
O 	O 	0.72158 0.58049 0.99680 -0.33300
O 	O 	0.90485 0.48026 0.92909 -0.34500
O 	O 	0.83834 0.58930 0.98748 -0.71600
H 	H 	0.81356 0.61689 0.96264 0.18200
C 	C 	0.81260 0.40134 0.62615 0.33300
C 	C 	0.97678 0.28818 0.45220 0.35400
C 	C 	0.92253 0.47421 0.51838 0.33500
C 	C 	0.87205 0.19534 0.50881 0.32100
C 	C 	0.83696 0.41776 0.36029 0.34900
C 	C 	0.72085 0.32563 0.44958 0.31800
Ni	Ni	0.90246 0.33471 0.55209 1.12800
Ni	Ni	0.84784 0.29613 0.42251 1.13500
Ni	Ni	0.80466 0.42435 0.48943 1.13200
O 	O 	0.83703 0.34502 0.61640 -0.33400
O 	O 	0.80029 0.44116 0.58101 -0.33800
O 	O 	0.87295 0.37074 0.37123 -0.34600
O 	O 	0.96883 0.33585 0.48912 -0.35800
O 	O 	0.93345 0.26574 0.41961 -0.33500
O 	O 	0.72931 0.37479 0.48711 -0.34600
O 	O 	0.92133 0.43282 0.56333 -0.33400
O 	O 	0.87911 0.47691 0.48073 -0.34500
O 	O 	0.76073 0.30929 0.40796 -0.33300
O 	O 	0.89595 0.23252 0.55123 -0.31600
O 	O 	0.83157 0.21765 0.47315 -0.34600
O 	O 	0.79617 0.43318 0.39972 -0.35200
O 	O 	0.84421 0.34379 0.49551 -0.71900
H 	H 	0.81367 0.31871 0.51691 0.17200
C 	C 	0.60412 0.01084 0.12497 0.29100
C 	C 	0.44766 0.13858 0.95647 0.34300
C 	C 	0.49012 0.94864 0.01901 0.32900
C 	C 	0.55898 0.22363 0.01777 0.31700
C 	C 	0.58407 0.00883 0.85738 0.30300
C 	C 	0.70132 0.08682 0.95095 0.31600
Ni	Ni	0.51779 0.08544 0.05519 1.11800
Ni	Ni	0.57764 0.12616 0.92703 1.13300
Ni	Ni	0.61085 0.99111 0.98715 1.13900
O 	O 	0.58132 0.06854 0.11834 -0.33000
O 	O 	0.61281 0.97135 0.07822 -0.32000
O 	O 	0.54985 0.05652 0.87258 -0.35300
O 	O 	0.45266 0.09005 0.99288 -0.35400
O 	O 	0.49382 0.16290 0.92778 -0.33700
O 	O 	0.69004 0.03480 0.98467 -0.34000
O 	O 	0.49346 0.98858 0.06485 -0.32300
O 	O 	0.53258 0.94567 0.97875 -0.33500
O 	O 	0.66363 0.10694 0.91012 -0.33900
O 	O 	0.52866 0.18726 0.05715 -0.32200
O 	O 	0.59915 0.19837 0.98259 -0.33700
O 	O 	0.61911 0.98303 0.89687 -0.32300
O 	O 	0.57644 0.07404 0.99724 -0.70900
H 	H 	0.60826 0.09483 0.01953 0.15700
C 	C 	0.55129 0.69403 0.48082 0.32200
C 	C 	0.60473 0.92151 0.62004 0.34300
C 	C 	0.45710 0.79290 0.54517 0.34200
C 	C 	0.71912 0.81499 0.54145 0.32600
C 	C 	0.52456 0.97467 0.47382 0.35600
C 	C 	0.61405 0.89178 0.35954 0.32700
Ni	Ni	0.58800 0.79102 0.56830 1.12700
Ni	Ni	0.63935 0.91382 0.49267 1.13300
Ni	Ni	0.52906 0.83510 0.44285 1.13200
O 	O 	0.59597 0.71166 0.51362 -0.34100
O 	O 	0.52618 0.73498 0.44244 -0.32500
O 	O 	0.57366 0.97566 0.50357 -0.35700
O 	O 	0.56975 0.87130 0.61972 -0.34400
O 	O 	0.64923 0.92457 0.58242 -0.34300
O 	O 	0.58493 0.83828 0.37278 -0.34600
O 	O 	0.49913 0.76518 0.57473 -0.33600
O 	O 	0.46868 0.84083 0.50917 -0.36100
O 	O 	0.64460 0.92384 0.40091 -0.33600
O 	O 	0.67795 0.80191 0.58259 -0.33100
O 	O 	0.71056 0.85665 0.49692 -0.33800
O 	O 	0.51539 0.93106 0.43181 -0.34700
O 	O 	0.59333 0.83690 0.49515 -0.72100
H 	H 	0.61987 0.80938 0.47137 0.17600
C 	C 	0.47876 0.63949 0.04233 0.31500
C 	C 	0.30916 0.52020 0.87890 0.34100
C 	C 	0.36279 0.72088 0.97544 0.35300
C 	C 	0.42044 0.44347 0.97965 0.32600
C 	C 	0.22302 0.59795 0.04512 0.34300
C 	C 	0.33251 0.51390 0.14468 0.33100
Ni	Ni	0.40380 0.58543 0.94418 1.13000
Ni	Ni	0.30546 0.49708 0.01272 1.13100
Ni	Ni	0.34620 0.63023 0.07143 1.13800
O 	O 	0.47615 0.59860 0.99686 -0.33600
O 	O 	0.43125 0.66488 0.06835 -0.33500
O 	O 	0.23785 0.55593 0.00351 -0.36000
O 	O 	0.33096 0.57720 0.89059 -0.33300
O 	O 	0.30305 0.47743 0.92232 -0.33300
O 	O 	0.36373 0.56737 0.13674 -0.33900
O 	O 	0.39940 0.68705 0.94200 -0.32400
O 	O 	0.32251 0.69101 0.00647 -0.36500
O 	O 	0.29451 0.49352 0.10388 -0.34300
O 	O 	0.42230 0.48625 0.93478 -0.32400
O 	O 	0.37252 0.43486 0.01317 -0.34600
O 	O 	0.25998 0.61534 0.08707 -0.34100
O 	O 	0.36258 0.56479 0.01494 -0.72400
H 	H 	0.39360 0.54371 0.03757 0.16900
C 	C 	0.30858 0.39743 0.64527 0.32600
C 	C 	0.47714 0.30660 0.46681 0.35500
C 	C 	0.39930 0.47807 0.52692 0.34200
C 	C 	0.39027 0.19448 0.53988 0.31800
C 	C 	0.32460 0.39901 0.38011 0.34900
C 	C 	0.21753 0.29696 0.46471 0.32800
Ni	Ni	0.40244 0.34204 0.56924 1.13000
Ni	Ni	0.34970 0.28251 0.44710 1.13100
Ni	Ni	0.28877 0.40579 0.50791 1.13000
O 	O 	0.34048 0.34541 0.63756 -0.33500
O 	O 	0.28137 0.42544 0.59928 -0.33100
O 	O 	0.36527 0.35711 0.39219 -0.35000
O 	O 	0.46082 0.35495 0.49930 -0.35900
O 	O 	0.43808 0.26607 0.44595 -0.35400
O 	O 	0.22279 0.34161 0.50738 -0.35100
O 	O 	0.40516 0.44188 0.57456 -0.34000
O 	O 	0.35133 0.47477 0.49580 -0.34400
O 	O 	0.26228 0.27909 0.42929 -0.33900
O 	O 	0.41457 0.24080 0.57371 -0.31900
O 	O 	0.34622 0.20688 0.50378 -0.34700
O 	O 	0.28066 0.40790 0.41776 -0.35100
O 	O 	0.33969 0.33405 0.51753 -0.72100
H 	H 	0.31405 0.30567 0.54202 0.18000
C 	C 	0.35934 0.49029 0.78219 0.11800
C 	C 	0.30702 0.49776 0.81552 -0.09100
C 	C 	0.25413 0.47452 0.79150 0.11000
C 	C 	0.25427 0.44194 0.73554 0.10900
C 	C 	0.30777 0.42930 0.70538 -0.08400
C 	C 	0.36066 0.44962 0.73182 0.11400
Br	Br	0.43477 0.41575 0.70487 -0.14400
Br	Br	0.42837 0.53919 0.80224 -0.16700
Br	Br	0.18190 0.41049 0.70283 -0.12300
Br	Br	0.18153 0.48939 0.83407 -0.10800
C 	C 	0.33495 0.41761 0.21149 0.11100
C 	C 	0.32983 0.48479 0.20504 -0.08200
C 	C 	0.31893 0.52352 0.25613 0.11400
C 	C 	0.31675 0.49546 0.31351 0.11700
C 	C 	0.32319 0.42828 0.31991 -0.09000
C 	C 	0.32958 0.38920 0.26847 0.12000
Br	Br	0.32678 0.29640 0.27538 -0.13700
Br	Br	0.35028 0.36434 0.14245 -0.12100
Br	Br	0.30513 0.54957 0.38309 -0.12200
Br	Br	0.30377 0.61452 0.24771 -0.11100
C 	C 	0.50703 0.58992 0.44609 0.11200
C 	C 	0.52299 0.63103 0.49343 -0.08900
C 	C 	0.50413 0.61583 0.55242 0.10700
C 	C 	0.45699 0.57352 0.56098 0.11600
C 	C 	0.44169 0.53077 0.51480 -0.09200
C 	C 	0.46929 0.53712 0.45769 0.11400
Br	Br	0.46032 0.47133 0.39774 -0.13600
Br	Br	0.53942 0.60351 0.36661 -0.10700
Br	Br	0.40855 0.58157 0.63187 -0.13000
Br	Br	0.55077 0.63864 0.62059 -0.16500
C 	C 	0.48182 0.13084 0.53612 0.10000
C 	C 	0.42081 0.13167 0.53350 -0.08300
C 	C 	0.39165 0.07659 0.51053 0.10900
C 	C 	0.42472 0.02567 0.48465 0.09900
C 	C 	0.48640 0.03215 0.47904 -0.10500
C 	C 	0.51223 0.09065 0.49699 0.11400
Br	Br	0.58876 0.11578 0.46845 -0.16800
Br	Br	0.51913 0.15616 0.60886 -0.12400
Br	Br	0.38524 0.94997 0.45505 -0.11600
Br	Br	0.30860 0.06619 0.52329 -0.14800
C 	C 	0.40779 0.89652 0.96443 0.12400
C 	C 	0.44202 0.90082 0.01633 -0.10100
C 	C 	0.43561 0.85284 0.06065 0.12100
C 	C 	0.39608 0.80198 0.05151 0.09600
C 	C 	0.37843 0.78785 0.99245 -0.08400
C 	C 	0.38200 0.83696 0.94907 0.11000
Br	Br	0.34912 0.82446 0.87091 -0.09700
Br	Br	0.38151 0.97398 0.92727 -0.11600
Br	Br	0.35242 0.76860 0.11936 -0.18800
Br	Br	0.48464 0.85193 0.12990 -0.12800
C 	C 	0.49465 0.38861 0.04212 0.09400
C 	C 	0.46818 0.39705 0.98582 -0.07300
C 	C 	0.48280 0.35554 0.93813 0.10600
C 	C 	0.52492 0.30818 0.94650 0.12300
C 	C 	0.53987 0.29024 0.00545 -0.10600
C 	C 	0.52772 0.33298 0.05298 0.12000
Br	Br	0.55853 0.31709 0.13158 -0.10300
Br	Br	0.48816 0.45457 0.10256 -0.15000
Br	Br	0.56947 0.27839 0.87795 -0.16900
Br	Br	0.43959 0.35662 0.86469 -0.12200
C 	C 	0.53934 0.98344 0.75849 0.10300
C 	C 	0.58995 0.99110 0.79336 -0.06700
C 	C 	0.64568 0.99064 0.76456 0.09900
C 	C 	0.64951 0.98540 0.70187 0.13300
C 	C 	0.59969 0.96798 0.66959 -0.10100
C 	C 	0.54460 0.97768 0.69601 0.12300
Br	Br	0.47666 0.98255 0.64629 -0.11900
Br	Br	0.46472 0.96828 0.79648 -0.08800
Br	Br	0.71913 0.01424 0.66004 -0.13200
Br	Br	0.71662 0.98839 0.81002 -0.09800
C 	C 	0.66193 0.96082 0.20777 0.10200
C 	C 	0.60823 0.98404 0.18659 -0.06200
C 	C 	0.55710 0.97522 0.22198 0.12300
C 	C 	0.55808 0.93526 0.27267 0.11000
C 	C 	0.61202 0.91745 0.29727 -0.08700
C 	C 	0.66410 0.92930 0.26406 0.11300
Br	Br	0.73749 0.89809 0.29325 -0.11200
Br	Br	0.73257 0.97411 0.16095 -0.10000
Br	Br	0.48578 0.89779 0.30208 -0.13600
Br	Br	0.48646 0.02089 0.20411 -0.17500
C 	C 	0.62773 0.29892 0.39669 0.10700
C 	C 	0.66242 0.29561 0.44864 -0.08600
C 	C 	0.63545 0.28077 0.50377 0.11000
C 	C 	0.57556 0.29059 0.51128 0.11700
C 	C 	0.53994 0.29349 0.45997 -0.10500
C 	C 	0.56640 0.29363 0.40235 0.11500
Br	Br	0.51878 0.29277 0.33159 -0.11500
Br	Br	0.66288 0.31591 0.31908 -0.10700
Br	Br	0.54673 0.31746 0.58924 -0.16400
Br	Br	0.68168 0.25343 0.57048 -0.12800
C 	C 	0.06579 0.23578 0.49162 0.10600
C 	C 	0.03660 0.26403 0.44291 -0.11100
C 	C 	0.06959 0.28589 0.39310 0.11500
C 	C 	0.13053 0.29381 0.39792 0.10600
C 	C 	0.15863 0.27330 0.45051 -0.09100
C 	C 	0.12700 0.23820 0.49385 0.10500
Br	Br	0.16776 0.19609 0.55780 -0.13200
Br	Br	0.02239 0.20118 0.55850 -0.16900
Br	Br	0.17419 0.33692 0.33492 -0.12600
Br	Br	0.03099 0.30748 0.31963 -0.12000
C 	C 	0.62620 0.62874 0.10318 0.10700
C 	C 	0.65779 0.65114 0.05220 -0.08700
C 	C 	0.63016 0.69105 0.01062 0.09700
C 	C 	0.56930 0.69889 0.01420 0.10000
C 	C 	0.53651 0.66496 0.05805 -0.08600
C 	C 	0.56546 0.63809 0.10688 0.10500
Br	Br	0.52161 0.61327 0.17773 -0.10900
Br	Br	0.66495 0.58183 0.16543 -0.11900
Br	Br	0.53048 0.75329 0.95783 -0.14500
Br	Br	0.67544 0.73275 0.94788 -0.13000
C 	C 	0.07728 0.63448 0.98541 0.12900
C 	C 	0.04086 0.62829 0.03687 -0.12900
C 	C 	0.06616 0.62215 0.09384 0.11700
C 	C 	0.12708 0.61501 0.09829 0.10800
C 	C 	0.16300 0.62241 0.04644 -0.10300
C 	C 	0.13768 0.64004 0.99202 0.12300
Br	Br	0.18617 0.66990 0.92588 -0.09800
Br	Br	0.04656 0.62292 0.90611 -0.15000
Br	Br	0.15980 0.58854 0.17355 -0.11300
Br	Br	0.01715 0.61796 0.16509 -0.13400
C 	C 	0.75669 0.48189 0.76928 0.10900
C 	C 	0.80980 0.49408 0.79898 -0.08600
C 	C 	0.86290 0.47417 0.77183 0.10900
C 	C 	0.86199 0.43401 0.72126 0.11600
C 	C 	0.81005 0.42642 0.68861 -0.08700
C 	C 	0.75702 0.44937 0.71335 0.10900
Br	Br	0.68472 0.43318 0.67241 -0.11600
Br	Br	0.68433 0.51396 0.80258 -0.12200
Br	Br	0.93157 0.38716 0.69925 -0.15200
Br	Br	0.93699 0.50840 0.79787 -0.13600
C 	C 	0.80778 0.43100 0.19434 0.11300
C 	C 	0.81632 0.49753 0.18500 -0.09200
C 	C 	0.82714 0.53816 0.23436 0.11800
C 	C 	0.83803 0.51145 0.29089 0.11300
C 	C 	0.83408 0.44437 0.29931 -0.09200
C 	C 	0.81923 0.40402 0.25075 0.11600
Br	Br	0.81461 0.31179 0.26127 -0.13000
Br	Br	0.77493 0.37800 0.13214 -0.12200
Br	Br	0.86022 0.56659 0.35640 -0.11500
Br	Br	0.82160 0.63043 0.22577 -0.13900
C 	C 	0.01889 0.61605 0.55970 0.09300
C 	C 	0.04111 0.63452 0.50265 -0.08700
C 	C 	0.03404 0.59217 0.45378 0.11300
C 	C 	-0.00000 0.53553 0.46113 0.09200
C 	C 	0.96831 0.52490 0.51528 -0.08000
C 	C 	0.97650 0.56712 0.56395 0.12200
Br	Br	0.92429 0.56488 0.63250 -0.13000
Br	Br	0.05408 0.64739 0.63226 -0.15600
Br	Br	0.99861 0.47164 0.39837 -0.11200
Br	Br	0.07369 0.60949 0.37844 -0.10800
C 	C 	0.95869 0.06378 0.43607 0.12400
C 	C 	0.96913 0.02260 0.48488 -0.09900
C 	C 	0.93827 0.03220 0.53958 0.10100
C 	C 	0.90338 0.08741 0.54747 0.11300
C 	C 	0.89442 0.12910 0.49863 -0.08500
C 	C 	0.91544 0.11093 0.44116 0.10200
Br	Br	0.87803 0.14052 0.36950 -0.15200
Br	Br	0.00917 0.06316 0.36618 -0.16200
Br	Br	0.86647 0.10449 0.62414 -0.10300
Br	Br	0.94237 0.96911 0.60261 -0.10400
C 	C 	0.86879 0.79499 0.60894 0.11500
C 	C 	0.89980 0.77306 0.55812 -0.09800
C 	C 	0.86853 0.74787 0.50926 0.10600
C 	C 	0.80795 0.75719 0.50596 0.10600
C 	C 	0.77883 0.79161 0.55151 -0.08900
C 	C 	0.80843 0.80656 0.60518 0.10800
Br	Br	0.76752 0.84485 0.67241 -0.11200
Br	Br	0.90910 0.80961 0.68313 -0.09900
Br	Br	0.76471 0.72260 0.43937 -0.13200
Br	Br	0.90908 0.70367 0.44568 -0.14700
C 	C 	0.31016 0.81813 0.61341 0.11000
C 	C 	0.27497 0.79970 0.56472 -0.08500
C 	C 	0.29867 0.76155 0.51854 0.10700
C 	C 	0.35925 0.75171 0.51522 0.10900
C 	C 	0.39563 0.77750 0.55996 -0.09600
C 	C 	0.37005 0.80345 0.61230 0.11500
Br	Br	0.41686 0.81821 0.68216 -0.10800
Br	Br	0.27801 0.86881 0.67832 -0.10000
Br	Br	0.39229 0.70557 0.44827 -0.14900
Br	Br	0.24816 0.72532 0.45845 -0.13100
C 	C 	0.89453 0.84163 0.98687 0.12300
C 	C 	0.92122 0.78962 0.95665 -0.09200
C 	C 	0.98131 0.79348 0.94485 0.12700
C 	C 	0.01597 0.83128 0.98235 0.09200
C 	C 	0.99108 0.88359 0.01330 -0.06700
C 	C 	0.92932 0.88699 0.01778 0.08800
Br	Br	0.89231 0.94472 0.07361 -0.11500
Br	Br	0.81201 0.85592 0.97848 -0.11900
Br	Br	0.09403 0.80494 0.99927 -0.13500
Br	Br	0.00939 0.77584 0.86524 -0.11400
C 	C 	0.99438 0.38941 0.98302 0.13500
C 	C 	0.93249 0.38505 0.98578 -0.08100
C 	C 	0.90668 0.33079 0.01369 0.09100
C 	C 	0.94001 0.29252 0.05118 0.11500
C 	C 	0.00035 0.28977 0.04120 -0.09600
C 	C 	0.02826 0.34247 0.01223 0.08400
Br	Br	0.11113 0.35600 0.02102 -0.14100
Br	Br	0.03297 0.45265 0.93309 -0.13400
Br	Br	0.90900 0.27074 0.12877 -0.10200
Br	Br	0.82926 0.30300 0.99323 -0.12600
C 	C 	0.84630 0.12428 0.01602 0.10500
C 	C 	0.88229 0.12614 0.96358 -0.08400
C 	C 	0.85602 0.13136 0.90685 0.10900
C 	C 	0.79452 0.12943 0.90249 0.10900
C 	C 	0.75989 0.11784 0.95455 -0.07100
C 	C 	0.78531 0.12519 0.01092 0.09800
Br	Br	0.73637 0.14056 0.08056 -0.13100
Br	Br	0.87932 0.11310 0.09434 -0.16300
Br	Br	0.75869 0.15483 0.82856 -0.11200
Br	Br	0.90386 0.13582 0.83489 -0.11600
C 	C 	0.35824 0.19174 0.99723 0.11300
C 	C 	0.38883 0.16569 0.94749 -0.09600
C 	C 	0.35734 0.14801 0.89628 0.11300
C 	C 	0.29600 0.14068 0.90022 0.11000
C 	C 	0.26604 0.15775 0.95386 -0.09100
C 	C 	0.29677 0.18917 0.99958 0.11700
Br	Br	0.25449 0.22641 0.06643 -0.13800
Br	Br	0.40036 0.22557 0.06417 -0.16400
Br	Br	0.25428 0.10295 0.83429 -0.12300
Br	Br	0.39828 0.13291 0.82155 -0.11500
C 	C 	0.09483 0.01766 0.70935 0.08700
C 	C 	0.10268 0.95123 0.70095 -0.06700
C 	C 	0.11562 0.91154 0.75009 0.10500
C 	C 	0.12195 0.93866 0.80729 0.13900
C 	C 	0.10969 0.00445 0.81647 -0.12200
C 	C 	0.09976 0.04463 0.76675 0.12900
Br	Br	0.09898 0.13717 0.77614 -0.14200
Br	Br	0.07549 0.07129 0.64243 -0.12500
Br	Br	0.15297 0.88708 0.87100 -0.11300
Br	Br	0.12470 0.81985 0.73917 -0.13100
C 	C 	0.17248 0.98384 0.22864 0.11700
C 	C 	0.11792 0.99453 0.20190 -0.06100
C 	C 	0.06645 0.97073 0.23024 0.09800
C 	C 	0.07033 0.92986 0.28000 0.12100
C 	C 	0.12372 0.92437 0.31021 -0.08900
C 	C 	0.17529 0.94954 0.28329 0.11100
Br	Br	0.24989 0.93354 0.31924 -0.10400
Br	Br	0.24269 0.01986 0.19273 -0.15000
Br	Br	0.00293 0.87904 0.30415 -0.16300
Br	Br	0.99044 0.99974 0.20626 -0.11000
