data_crystal

_cell_length_a 26.11827
_cell_length_b 24.80989
_cell_length_c 35.20876
_cell_angle_alpha 90.00222
_cell_angle_beta  90.00447
_cell_angle_gamma 92.43239

_symmetry_space_group_name_	'P 1'
_symmetry_space_group_name_H-M	'P 1'

loop_
_symmetry_equiv_pos_as_xyz
  x,y,z

loop_
_atom_site_label
_atom_site_type_symbol
_atom_site_fract_x
_atom_site_fract_y
_atom_site_fract_z
_atom_site_charge
C 	C 	0.90279 0.96886 0.03885 -0.03700
C 	C 	0.90416 0.02398 0.03113 -0.03800
C 	C 	0.94825 0.94035 0.03954 0.01000
C 	C 	0.99589 0.96858 0.03367 -0.00400
C 	C 	0.99730 0.02463 0.02577 -0.00400
C 	C 	0.95111 0.05239 0.02411 0.01000
C 	C 	0.04203 0.94079 0.03543 0.00900
C 	C 	0.08905 0.96925 0.02872 -0.03700
C 	C 	0.04489 0.05282 0.01953 0.00900
C 	C 	0.95277 0.10823 0.01565 -0.00900
C 	C 	0.99990 0.13584 0.00971 -0.04200
C 	C 	0.04591 0.10907 0.01213 -0.00900
C 	C 	0.94707 0.88401 0.04625 -0.00800
C 	C 	0.99294 0.85722 0.04914 -0.04400
C 	C 	0.04020 0.88479 0.04359 -0.00800
C 	C 	0.90542 0.13851 0.01344 0.01800
C 	C 	0.87749 0.13947 0.97946 -0.04600
C 	C 	0.83111 0.16547 0.97798 -0.02800
C 	C 	0.81236 0.19079 0.01049 0.00200
C 	C 	0.84098 0.19083 0.04427 -0.03200
C 	C 	0.88729 0.16470 0.04573 -0.04400
C 	C 	0.09481 0.14125 0.00905 0.01800
C 	C 	0.12283 0.15489 0.04190 -0.04400
C 	C 	0.16512 0.19124 0.03984 -0.03200
C 	C 	0.11031 0.16313 0.97390 -0.04500
C 	C 	0.15236 0.19994 0.97187 -0.02800
C 	C 	0.17915 0.21523 0.00499 0.00400
C 	C 	0.89811 0.85183 0.04737 0.01600
C 	C 	0.87694 0.83516 0.08228 -0.04400
C 	C 	0.83161 0.80302 0.08319 -0.03200
C 	C 	0.80714 0.78736 0.04916 0.00200
C 	C 	0.82842 0.80414 0.01428 -0.02600
C 	C 	0.87372 0.83618 0.01340 -0.04300
C 	C 	0.08721 0.85388 0.04467 0.01700
C 	C 	0.10479 0.82941 0.01153 -0.04400
C 	C 	0.14804 0.79823 0.01277 -0.02600
C 	C 	0.17389 0.79100 0.04722 0.00100
C 	C 	0.15649 0.81588 0.08036 -0.03100
C 	C 	0.11316 0.84705 0.07909 -0.04400
C 	C 	0.09039 0.02430 0.02047 -0.03900
H 	H 	0.89137 0.11938 0.95439 0.04700
H 	H 	0.80950 0.16551 0.95171 0.04900
H 	H 	0.82743 0.21123 0.06931 0.04200
H 	H 	0.90882 0.16432 0.07202 0.04500
H 	H 	0.80982 0.79238 0.98787 0.04800
H 	H 	0.88996 0.84874 0.98634 0.04600
H 	H 	0.81587 0.78980 0.11027 0.04300
H 	H 	0.89575 0.84683 0.10862 0.04500
H 	H 	0.08479 0.83439 0.98489 0.04500
H 	H 	0.16120 0.77928 0.98703 0.04700
H 	H 	0.09973 0.86583 0.10480 0.04500
H 	H 	0.17660 0.81122 0.10699 0.04300
H 	H 	0.11121 0.13813 0.06914 0.04500
H 	H 	0.18635 0.20161 0.06544 0.04300
H 	H 	0.08890 0.15279 0.94838 0.04600
H 	H 	0.16310 0.21776 0.94477 0.04900
H 	H 	0.86610 0.94860 0.04463 0.04500
H 	H 	0.86839 0.04445 0.03085 0.04500
H 	H 	0.00084 0.17881 0.00385 0.04700
H 	H 	0.12706 0.04449 0.01456 0.04600
H 	H 	0.12485 0.94887 0.02961 0.04600
H 	H 	0.99180 0.81414 0.05461 0.04800
C 	C 	0.90821 0.97370 0.47260 -0.03900
C 	C 	0.91116 0.02882 0.46459 -0.03800
C 	C 	0.95308 0.94454 0.47630 0.01000
C 	C 	0.00140 0.97138 0.47050 -0.00600
C 	C 	0.00443 0.02755 0.46319 -0.00600
C 	C 	0.95910 0.05649 0.46032 0.01000
C 	C 	0.04671 0.94217 0.47200 0.00900
C 	C 	0.09442 0.96931 0.46527 -0.03900
C 	C 	0.05287 0.05478 0.45911 0.00900
C 	C 	0.96264 0.11277 0.45335 -0.00700
C 	C 	0.01070 0.13953 0.45048 -0.04600
C 	C 	0.05573 0.11157 0.45476 -0.00700
C 	C 	0.95064 0.88877 0.48532 -0.00800
C 	C 	0.99571 0.86025 0.48682 -0.04300
C 	C 	0.04346 0.88620 0.48005 -0.00900
C 	C 	0.91656 0.14497 0.45185 0.01700
C 	C 	0.89246 0.15418 0.41700 -0.04400
C 	C 	0.85015 0.18677 0.41541 -0.03200
C 	C 	0.83203 0.21074 0.44866 0.00100
C 	C 	0.85617 0.20130 0.48350 -0.02700
C 	C 	0.89831 0.16863 0.48505 -0.04500
C 	C 	0.10488 0.14298 0.45907 0.01600
C 	C 	0.12899 0.14616 0.49466 -0.04300
C 	C 	0.17146 0.18143 0.50022 -0.03200
C 	C 	0.12438 0.17448 0.42883 -0.04400
C 	C 	0.16642 0.21041 0.43453 -0.02700
C 	C 	0.18940 0.21500 0.47050 0.00300
C 	C 	0.90126 0.85971 0.49374 0.01700
C 	C 	0.87893 0.86376 0.52983 -0.04300
C 	C 	0.83354 0.83421 0.53835 -0.03200
C 	C 	0.81035 0.80011 0.51091 0.00200
C 	C 	0.83285 0.79600 0.47487 -0.02700
C 	C 	0.87806 0.82575 0.46631 -0.04400
C 	C 	0.08986 0.85440 0.48184 0.01700
C 	C 	0.10674 0.82769 0.44938 -0.04400
C 	C 	0.15302 0.80145 0.45011 -0.03200
C 	C 	0.18290 0.80204 0.48329 0.00200
C 	C 	0.16523 0.82761 0.51605 -0.02700
C 	C 	0.11882 0.85357 0.51534 -0.04500
C 	C 	0.09741 0.02480 0.45889 -0.03900
H 	H 	0.90650 0.13610 0.39122 0.04500
H 	H 	0.83131 0.19312 0.38846 0.04300
H 	H 	0.84244 0.21956 0.50931 0.04800
H 	H 	0.91696 0.16187 0.51202 0.04600
H 	H 	0.81521 0.76991 0.45346 0.04900
H 	H 	0.89522 0.82219 0.43846 0.04600
H 	H 	0.81669 0.83742 0.56633 0.04400
H 	H 	0.89684 0.88958 0.55127 0.04600
H 	H 	0.08438 0.82796 0.42347 0.04500
H 	H 	0.16563 0.78068 0.42494 0.04200
H 	H 	0.10590 0.87406 0.54054 0.04600
H 	H 	0.18777 0.82792 0.54189 0.04900
H 	H 	0.11422 0.12202 0.51818 0.04500
H 	H 	0.18991 0.18330 0.52778 0.04300
H 	H 	0.10605 0.17224 0.40124 0.04500
H 	H 	0.18025 0.23563 0.41127 0.04900
H 	H 	0.87074 0.95380 0.47556 0.04500
H 	H 	0.87587 0.04982 0.46179 0.04600
H 	H 	0.01303 0.18297 0.44662 0.04700
H 	H 	0.13453 0.04421 0.45321 0.04500
H 	H 	0.12949 0.94761 0.46481 0.04500
H 	H 	0.99362 0.81751 0.49347 0.04800
Ni	Ni	0.47692 0.53379 0.03138 1.09900
O 	O 	0.53071 0.47849 0.01972 -0.70200
Ni	Ni	0.51871 0.46605 0.96347 1.09700
O 	O 	0.49018 0.53353 0.08899 -0.34100
O 	O 	0.48340 0.44196 0.09434 -0.38400
O 	O 	0.53228 0.59571 0.03068 -0.35200
Ni	Ni	0.51490 0.40968 0.04557 1.06900
O 	O 	0.45912 0.64120 0.99104 -0.39800
O 	O 	0.44125 0.40566 0.02625 -0.39900
O 	O 	0.57346 0.41128 0.95578 -0.37200
O 	O 	0.46533 0.52159 0.97512 -0.70400
O 	O 	0.42286 0.58969 0.03840 -0.35600
O 	O 	0.50508 0.46671 0.90589 -0.34600
O 	O 	0.51439 0.55818 0.90072 -0.38800
Ni	Ni	0.48355 0.59049 0.94969 1.06700
H 	H 	0.56628 0.49175 0.02498 0.15600
H 	H 	0.42974 0.50875 0.96947 0.16000
C 	C 	0.42984 0.39467 0.99089 0.27700
O 	O 	0.55703 0.59343 0.96885 -0.40800
C 	C 	0.49682 0.48930 0.10870 0.25400
C 	C 	0.57917 0.37325 0.98127 0.26900
C 	C 	0.56829 0.60049 0.00475 0.27600
C 	C 	0.50027 0.51120 0.88610 0.25400
C 	C 	0.41999 0.62934 0.01373 0.27100
O 	O 	0.46410 0.40311 0.96392 -0.36300
O 	O 	0.54103 0.35956 0.00444 -0.38900
Ni	Ni	0.48255 0.53437 0.53084 1.09800
O 	O 	0.53786 0.48058 0.52045 -0.70500
Ni	Ni	0.53019 0.46977 0.46381 1.09700
O 	O 	0.49376 0.53316 0.58862 -0.34500
O 	O 	0.48480 0.44153 0.59259 -0.38700
O 	O 	0.53571 0.59845 0.53151 -0.35400
Ni	Ni	0.51951 0.41091 0.54444 1.06700
O 	O 	0.45946 0.64137 0.49036 -0.38500
O 	O 	0.44753 0.40750 0.52176 -0.40100
O 	O 	0.58618 0.41569 0.45810 -0.35900
O 	O 	0.47408 0.52299 0.47414 -0.70200
O 	O 	0.42611 0.58732 0.53746 -0.37100
O 	O 	0.52151 0.47150 0.40571 -0.34300
O 	O 	0.52322 0.56322 0.40097 -0.38300
Ni	Ni	0.48908 0.59308 0.44948 1.07000
H 	H 	0.57280 0.49399 0.52754 0.15700
H 	H 	0.43925 0.50853 0.46773 0.15800
C 	C 	0.43964 0.39725 0.48576 0.27700
O 	O 	0.56182 0.60045 0.46987 -0.40100
C 	C 	0.49731 0.48833 0.60821 0.25400
C 	C 	0.58793 0.37515 0.48216 0.27000
C 	C 	0.57213 0.60555 0.50607 0.27400
C 	C 	0.51246 0.51543 0.38628 0.25300
C 	C 	0.42065 0.62597 0.51243 0.27100
O 	O 	0.47660 0.40624 0.46094 -0.36300
O 	O 	0.54755 0.36205 0.50335 -0.40000
C 	C 	0.49501 0.50081 0.76805 0.10000
N 	N 	0.49429 0.45522 0.78944 -0.07000
N 	N 	0.49426 0.45838 0.82725 -0.05600
C 	C 	0.49482 0.50722 0.84469 0.04600
N 	N 	0.49454 0.55271 0.82327 -0.06500
N 	N 	0.49460 0.54955 0.78551 -0.07100
C 	C 	0.49994 0.49165 0.64979 0.04700
N 	N 	0.50137 0.54036 0.66740 -0.05500
N 	N 	0.50005 0.54327 0.70518 -0.06900
C 	C 	0.49723 0.49754 0.72642 0.10000
N 	N 	0.49649 0.44884 0.70882 -0.07100
N 	N 	0.49776 0.44593 0.67104 -0.06500
C 	C 	0.50568 0.50066 0.22662 0.10000
N 	N 	0.50478 0.54604 0.20508 -0.06800
N 	N 	0.50355 0.54257 0.16731 -0.05400
C 	C 	0.50325 0.49364 0.15002 0.04900
N 	N 	0.50504 0.44835 0.17155 -0.06500
N 	N 	0.50630 0.45182 0.20930 -0.07100
C 	C 	0.50695 0.51122 0.34488 0.04800
N 	N 	0.50726 0.46234 0.32755 -0.05500
N 	N 	0.50642 0.45894 0.28978 -0.06900
C 	C 	0.50535 0.50432 0.26826 0.10000
N 	N 	0.50424 0.55312 0.28560 -0.07100
N 	N 	0.50506 0.55652 0.32337 -0.06400
C 	C 	0.28588 0.71374 0.51431 0.09600
C 	C 	0.32275 0.72285 0.48572 0.08700
N 	N 	0.36662 0.69537 0.48624 -0.10000
C 	C 	0.37520 0.65899 0.51426 -0.02700
C 	C 	0.33857 0.65073 0.54326 0.04300
N 	N 	0.29469 0.67825 0.54264 -0.11100
N 	N 	0.24122 0.73965 0.51302 -0.11400
N 	N 	0.31374 0.75810 0.45723 -0.10700
H 	H 	0.34475 0.62225 0.56592 0.04900
C 	C 	0.23173 0.77444 0.48423 0.04900
C 	C 	0.26905 0.78428 0.45599 0.00200
H 	H 	0.26258 0.81272 0.43334 0.04000
C 	C 	0.71555 0.68507 0.51826 0.09600
C 	C 	0.67073 0.71145 0.52773 0.09100
N 	N 	0.62474 0.68367 0.52709 -0.08800
C 	C 	0.62168 0.63054 0.51721 -0.02300
C 	C 	0.66682 0.60370 0.50961 0.04000
N 	N 	0.71283 0.63152 0.51021 -0.11100
N 	N 	0.76055 0.71405 0.51437 -0.11400
N 	N 	0.67310 0.76549 0.53417 -0.10200
H 	H 	0.66500 0.56155 0.50150 0.02200
C 	C 	0.76276 0.76846 0.51981 0.04900
C 	C 	0.71824 0.79450 0.53054 0.00300
H 	H 	0.71927 0.83776 0.53477 0.04200
C 	C 	0.70624 0.31167 0.44984 0.08900
C 	C 	0.70764 0.26682 0.47411 0.09500
N 	N 	0.74771 0.23393 0.47243 -0.11500
C 	C 	0.78671 0.24394 0.44746 0.04900
C 	C 	0.78505 0.28850 0.42289 0.00200
N 	N 	0.74479 0.32147 0.42456 -0.10300
N 	N 	0.66712 0.34581 0.45258 -0.08900
N 	N 	0.66980 0.25766 0.49998 -0.11300
H 	H 	0.81614 0.29749 0.40324 0.04200
C 	C 	0.62918 0.33687 0.47866 -0.02700
C 	C 	0.63063 0.29174 0.50280 0.03800
H 	H 	0.60106 0.28412 0.52390 0.03000
C 	C 	0.31100 0.32914 0.49111 0.08800
C 	C 	0.31051 0.29713 0.45820 0.09500
N 	N 	0.27093 0.26091 0.45191 -0.11400
C 	C 	0.23153 0.25556 0.47719 0.04800
C 	C 	0.23128 0.28906 0.50943 0.00200
N 	N 	0.27121 0.32483 0.51588 -0.10400
N 	N 	0.35207 0.36280 0.49864 -0.09400
N 	N 	0.35038 0.30140 0.43349 -0.11000
H 	H 	0.19950 0.28660 0.52919 0.04100
C 	C 	0.39278 0.36618 0.47446 -0.02700
C 	C 	0.39139 0.33549 0.44081 0.04100
H 	H 	0.42333 0.33755 0.42120 0.05200
C 	C 	0.29886 0.73617 0.02132 0.09600
C 	C 	0.30152 0.69234 0.04640 0.08900
N 	N 	0.34126 0.65893 0.04394 -0.08900
C 	C 	0.37867 0.66761 0.01740 -0.02400
C 	C 	0.37609 0.71189 0.99257 0.03600
N 	N 	0.33625 0.74521 0.99507 -0.11300
N 	N 	0.25810 0.76823 0.02271 -0.11500
N 	N 	0.26354 0.68271 0.07216 -0.10200
H 	H 	0.40524 0.71936 0.97113 0.03200
C 	C 	0.21972 0.75842 0.04825 0.04900
C 	C 	0.22266 0.71487 0.07361 0.00200
H 	H 	0.19211 0.70605 0.09374 0.04200
C 	C 	0.71237 0.67724 0.02504 0.09500
C 	C 	0.66897 0.69286 0.04518 0.09000
N 	N 	0.62325 0.66563 0.03992 -0.08700
C 	C 	0.61908 0.62362 0.01504 -0.02500
C 	C 	0.66292 0.60700 0.99592 0.03600
N 	N 	0.70865 0.63417 0.00128 -0.11100
N 	N 	0.75694 0.70718 0.02774 -0.11400
N 	N 	0.67226 0.73719 0.06784 -0.10100
H 	H 	0.66031 0.57341 0.97627 0.03100
C 	C 	0.76010 0.75226 0.04983 0.04900
C 	C 	0.71696 0.76719 0.07060 0.00300
H 	H 	0.71863 0.80322 0.08799 0.04200
C 	C 	0.67375 0.27214 0.00672 0.08800
C 	C 	0.71199 0.28226 0.97927 0.09400
N 	N 	0.75610 0.25533 0.98078 -0.11500
C 	C 	0.76370 0.21864 0.00875 0.04900
C 	C 	0.72499 0.20779 0.03577 0.00100
N 	N 	0.68085 0.23491 0.03428 -0.10700
N 	N 	0.63058 0.30075 0.00617 -0.09900
N 	N 	0.70519 0.31994 0.95200 -0.11200
H 	H 	0.73003 0.17798 0.05777 0.04000
C 	C 	0.62397 0.33926 0.97924 -0.02900
C 	C 	0.66199 0.34862 0.95138 0.04100
H 	H 	0.65749 0.37896 0.92968 0.04600
C 	C 	0.29913 0.33501 0.00399 0.09000
C 	C 	0.29831 0.29275 0.97743 0.09400
N 	N 	0.25897 0.25502 0.97770 -0.11400
C 	C 	0.22026 0.25801 0.00351 0.04900
C 	C 	0.22024 0.30162 0.02902 0.00300
N 	N 	0.25984 0.33898 0.02891 -0.10400
N 	N 	0.34063 0.36972 0.00610 -0.09400
N 	N 	0.33815 0.28831 0.95297 -0.11000
H 	H 	0.18907 0.30547 0.04898 0.04100
C 	C 	0.38152 0.36423 0.98263 -0.02700
C 	C 	0.37963 0.32340 0.95486 0.04200
H 	H 	0.41186 0.31813 0.93609 0.05100
