data_crystal

_cell_length_a 18.46868
_cell_length_b 18.87084
_cell_length_c 34.48546
_cell_angle_alpha 95.41566
_cell_angle_beta  95.41527
_cell_angle_gamma 126.41028

_symmetry_space_group_name_	'P 1'
_symmetry_space_group_name_H-M	'P 1'

loop_
_symmetry_equiv_pos_as_xyz
  x,y,z

loop_
_atom_site_label
_atom_site_type_symbol
_atom_site_fract_x
_atom_site_fract_y
_atom_site_fract_z
_atom_site_charge
C 	C 	0.92448 0.99895 0.96637 0.14800
N 	N 	0.88061 0.91069 0.96801 -0.12900
C 	C 	0.92780 0.87619 0.96757 0.11800
N 	N 	0.01829 0.93003 0.96620 -0.11200
C 	C 	0.06166 0.01764 0.96450 0.11500
N 	N 	0.01464 0.05181 0.96424 -0.12900
C 	C 	0.92698 0.02793 0.48621 0.10300
N 	N 	0.87415 0.93815 0.48484 -0.11600
C 	C 	0.91371 0.89711 0.49016 0.11900
N 	N 	0.00614 0.94569 0.49578 -0.10900
C 	C 	0.05891 0.03476 0.49541 0.11900
N 	N 	0.01949 0.07630 0.49110 -0.11600
Cu	Cu	0.78028 0.34849 0.96204 0.92900
Cu	Cu	0.76824 0.28670 0.04832 0.88000
Cu	Cu	0.63297 0.30556 0.01029 0.90100
Cu	Cu	0.60885 0.33803 0.92877 0.90100
C 	C 	0.71408 0.30898 0.87809 0.31100
O 	O 	0.83246 0.47800 0.95864 -0.34800
C 	C 	0.68261 0.33374 0.09737 0.30600
O 	O 	0.63712 0.27372 0.95655 -0.63900
O 	O 	0.76749 0.36710 0.01764 -0.63900
O 	O 	0.84220 0.29087 0.96935 -0.35400
O 	O 	0.74094 0.19781 0.00607 -0.42600
O 	O 	0.67618 0.34906 0.88499 -0.37500
O 	O 	0.50150 0.23652 0.00074 -0.37400
C 	C 	0.45112 0.23436 0.97013 0.29700
C 	C 	0.78954 0.51096 0.96907 0.28400
O 	O 	0.70430 0.45666 0.97358 -0.38400
O 	O 	0.48812 0.28760 0.94420 -0.37900
O 	O 	0.76919 0.31183 0.90668 -0.34400
C 	C 	0.80157 0.21647 0.98376 0.28900
O 	O 	0.62957 0.32861 0.06680 -0.37000
O 	O 	0.75911 0.34542 0.09346 -0.39200
H 	H 	0.59834 0.20842 0.94613 0.17300
H 	H 	0.80529 0.43022 0.03167 0.18700
Cu	Cu	0.60424 0.20485 0.50676 0.93100
Cu	Cu	0.65858 0.21829 0.41892 0.87800
Cu	Cu	0.62160 0.33805 0.45811 0.90100
Cu	Cu	0.62759 0.37811 0.54517 0.90500
C 	C 	0.65660 0.26932 0.59081 0.31400
O 	O 	0.47769 0.16270 0.51543 -0.34900
C 	C 	0.58858 0.28872 0.37126 0.30400
O 	O 	0.67830 0.34387 0.51010 -0.63400
O 	O 	0.57547 0.21118 0.45148 -0.64200
O 	O 	0.65443 0.13800 0.49556 -0.35500
O 	O 	0.74939 0.23692 0.45870 -0.42500
O 	O 	0.61422 0.30530 0.58593 -0.37800
O 	O 	0.65691 0.45931 0.46606 -0.36000
C 	C 	0.70536 0.52146 0.49845 0.29300
C 	C 	0.44395 0.20515 0.50550 0.27800
O 	O 	0.49912 0.29076 0.50352 -0.38400
O 	O 	0.70029 0.50072 0.53404 -0.37900
O 	O 	0.65339 0.21830 0.56080 -0.34600
C 	C 	0.72798 0.17461 0.47958 0.29300
O 	O 	0.58107 0.33005 0.40200 -0.35200
O 	O 	0.59170 0.22137 0.37418 -0.40700
H 	H 	0.74604 0.38187 0.51478 0.17000
H 	H 	0.50999 0.16770 0.43886 0.18400
C 	C 	0.67284 0.18504 0.68392 -0.10700
C 	C 	0.71569 0.26328 0.71249 0.00900
C 	C 	0.75067 0.34536 0.70028 0.12500
C 	C 	0.73787 0.34776 0.65994 -0.03100
C 	C 	0.68784 0.26835 0.63155 -0.11200
C 	C 	0.65735 0.18688 0.64358 0.20100
C 	C 	0.71289 0.25744 0.75482 0.00600
O 	O 	0.79573 0.42304 0.72782 -0.27000
H 	H 	0.76312 0.41094 0.65085 0.05400
O 	O 	0.61052 0.10881 0.61617 -0.27300
H 	H 	0.64725 0.12190 0.69312 0.07900
C 	C 	0.62989 0.21965 0.76845 0.12000
C 	C 	0.63025 0.23133 0.80914 -0.03200
C 	C 	0.71301 0.28105 0.83654 -0.11100
C 	C 	0.79543 0.31372 0.82300 0.20100
C 	C 	0.79474 0.30047 0.78226 -0.10500
O 	O 	0.54923 0.17704 0.74196 -0.26800
H 	H 	0.56645 0.20498 0.81935 0.05600
O 	O 	0.87688 0.36063 0.84938 -0.27300
H 	H 	0.85863 0.32811 0.77193 0.08700
H 	H 	0.54496 0.08293 0.61400 0.16000
H 	H 	0.52337 0.11283 0.73711 0.15100
H 	H 	0.90133 0.42436 0.85230 0.16300
H 	H 	0.74748 0.42785 0.73441 0.15800
C 	C 	0.65274 0.28927 0.20153 -0.11200
C 	C 	0.61200 0.32948 0.21252 0.00500
C 	C 	0.59479 0.37186 0.18576 0.12600
C 	C 	0.61912 0.37431 0.14832 -0.03000
C 	C 	0.65956 0.33355 0.13723 -0.11500
C 	C 	0.67518 0.28985 0.16393 0.19100
C 	C 	0.58837 0.32735 0.25230 0.00900
O 	O 	0.55602 0.41244 0.19641 -0.26300
H 	H 	0.60677 0.40807 0.12802 0.07600
O 	O 	0.71241 0.24766 0.15331 -0.29100
H 	H 	0.66614 0.25659 0.22210 0.07300
C 	C 	0.51538 0.24610 0.26130 0.11900
C 	C 	0.50970 0.23652 0.30090 -0.02800
C 	C 	0.57716 0.30734 0.33162 -0.11200
C 	C 	0.64395 0.39153 0.32263 0.18900
C 	C 	0.64898 0.40139 0.28299 -0.10500
O 	O 	0.45091 0.17538 0.23142 -0.26500
H 	H 	0.45597 0.17238 0.30766 0.06700
O 	O 	0.70678 0.46314 0.35246 -0.27500
H 	H 	0.70386 0.46493 0.27620 0.08700
H 	H 	0.65939 0.18516 0.14113 0.14100
H 	H 	0.47382 0.13991 0.22652 0.14700
H 	H 	0.75960 0.46152 0.35689 0.14600
H 	H 	0.48900 0.36531 0.18796 0.16200
C 	C 	0.85640 0.79994 0.49059 0.00200
C 	C 	0.79246 0.76350 0.51622 -0.02300
C 	C 	0.73832 0.67099 0.51659 0.02000
C 	C 	0.75556 0.61663 0.49502 -0.06900
C 	C 	0.82160 0.65368 0.47041 0.01800
C 	C 	0.86777 0.74376 0.46638 -0.02300
C 	C 	0.78482 0.82157 0.54328 0.10800
C 	C 	0.84527 0.60048 0.45081 0.08400
C 	C 	0.92502 0.77798 0.43664 0.10500
C 	C 	0.66315 0.63135 0.53813 0.09200
N 	N 	0.97069 0.80535 0.41294 -0.10300
N 	N 	0.60319 0.59977 0.55531 -0.10300
N 	N 	0.86433 0.55809 0.43529 -0.12200
N 	N 	0.77879 0.86792 0.56485 -0.09700
C 	C 	0.88385 0.07314 0.48415 0.00000
C 	C 	0.88126 0.11562 0.51933 -0.02600
C 	C 	0.83054 0.14934 0.51788 0.02000
C 	C 	0.78089 0.13901 0.48130 -0.07800
C 	C 	0.78430 0.09718 0.44606 0.01500
C 	C 	0.83729 0.06602 0.44744 -0.02000
C 	C 	0.92967 0.12334 0.55708 0.10200
C 	C 	0.73129 0.08407 0.40856 0.05900
C 	C 	0.84405 0.02661 0.41107 0.08000
C 	C 	0.83079 0.19601 0.55388 0.09100
N 	N 	0.84953 0.99516 0.38210 -0.08300
N 	N 	0.83124 0.23329 0.58266 -0.09800
N 	N 	0.68901 0.07359 0.37864 -0.13100
N 	N 	0.96831 0.12939 0.58716 -0.10500
C 	C 	0.15869 0.08548 0.49853 0.00100
C 	C 	0.21387 0.10643 0.53532 -0.02400
C 	C 	0.30673 0.14294 0.53739 0.01700
C 	C 	0.34515 0.16066 0.50278 -0.07000
C 	C 	0.29052 0.14196 0.46614 0.01600
C 	C 	0.19728 0.10422 0.46402 -0.02300
C 	C 	0.17503 0.09085 0.57106 0.10400
C 	C 	0.32993 0.16036 0.43056 0.07800
C 	C 	0.14053 0.08317 0.42622 0.10600
C 	C 	0.36301 0.16303 0.57519 0.08800
N 	N 	0.09515 0.06630 0.39610 -0.09800
N 	N 	0.40786 0.17899 0.60533 -0.10000
N 	N 	0.36128 0.17500 0.40215 -0.10700
N 	N 	0.14394 0.07838 0.59954 -0.09900
C 	C 	0.83115 0.60655 0.96924 -0.07300
C 	C 	0.84078 0.63797 0.93307 0.01400
C 	C 	0.86235 0.72303 0.93196 -0.02400
C 	C 	0.88087 0.77969 0.96733 -0.00000
C 	C 	0.87128 0.74845 0.00350 -0.02300
C 	C 	0.84662 0.66209 0.00447 0.01700
C 	C 	0.82860 0.58290 0.89699 0.08600
C 	C 	0.88781 0.80558 0.03977 0.10400
C 	C 	0.83816 0.63068 0.04180 0.08100
C 	C 	0.86478 0.75215 0.89433 0.10200
N 	N 	0.83135 0.60553 0.07156 -0.10700
N 	N 	0.86661 0.77539 0.86432 -0.09900
N 	N 	0.90102 0.85117 0.06872 -0.09700
N 	N 	0.81914 0.53925 0.86816 -0.10200
C 	C 	0.87745 0.04015 0.97098 -0.02700
C 	C 	0.84042 0.05309 0.93712 -0.01100
C 	C 	0.81716 0.11223 0.94110 0.01200
C 	C 	0.83153 0.15899 0.97900 -0.07400
C 	C 	0.86640 0.14405 0.01293 0.01300
C 	C 	0.88616 0.08237 0.00894 -0.01600
C 	C 	0.82696 0.00604 0.89819 0.07400
C 	C 	0.88470 0.19425 0.05182 0.06100
C 	C 	0.91669 0.06316 0.04395 0.09500
C 	C 	0.77744 0.12393 0.90630 0.09100
N 	N 	0.94100 0.04781 0.07189 -0.10200
N 	N 	0.74569 0.13309 0.87848 -0.10100
N 	N 	0.89929 0.23428 0.08285 -0.12800
N 	N 	0.81627 0.96844 0.86714 -0.08300
C 	C 	0.16088 0.07662 0.96496 0.00700
C 	C 	0.22147 0.14393 0.99844 -0.02800
C 	C 	0.31664 0.19721 0.99974 0.02100
C 	C 	0.35145 0.18109 0.96817 -0.07600
C 	C 	0.29079 0.11431 0.93455 0.02400
C 	C 	0.19555 0.06332 0.93263 -0.04600
C 	C 	0.18590 0.15709 0.03189 0.10700
C 	C 	0.32650 0.09677 0.90234 0.07200
C 	C 	0.13312 0.99802 0.89718 0.13200
C 	C 	0.37870 0.26957 0.03325 0.09300
N 	N 	0.08337 0.94597 0.86890 -0.09600
N 	N 	0.42820 0.32722 0.05997 -0.10100
N 	N 	0.35503 0.08283 0.87666 -0.11300
N 	N 	0.15760 0.16764 0.05857 -0.09800
