data_crystal

_cell_length_a 16.54107
_cell_length_b 16.61429
_cell_length_c 48.72412
_cell_angle_alpha 90.20548
_cell_angle_beta  90.21422
_cell_angle_gamma 119.40760

_symmetry_space_group_name_	'P 1'
_symmetry_space_group_name_H-M	'P 1'

loop_
_symmetry_equiv_pos_as_xyz
  x,y,z

loop_
_atom_site_label
_atom_site_type_symbol
_atom_site_fract_x
_atom_site_fract_y
_atom_site_fract_z
_atom_site_charge
C 	C 	0.18755 0.08560 0.72898 0.43900
C 	C 	0.22217 0.09067 0.80373 0.39400
Ni	Ni	0.10187 0.14554 0.76940 1.14600
Ni	Ni	0.07600 0.94301 0.77049 1.12100
O 	O 	0.12985 0.11721 0.73204 -0.31800
O 	O 	0.16194 0.00077 0.80242 -0.29000
O 	O 	0.21822 0.15164 0.78662 -0.30700
O 	O 	0.06176 0.17614 0.80509 -0.27300
O 	O 	0.18523 0.02274 0.74590 -0.29700
C 	C 	0.24803 0.49896 0.38452 0.38000
C 	C 	0.25869 0.51002 0.46387 0.30500
C 	C 	0.25671 0.76503 0.46460 0.30600
C 	C 	0.25346 0.77512 0.38615 0.40200
Ni	Ni	0.41062 0.61535 0.42346 1.13700
Ni	Ni	0.40606 0.80831 0.42461 1.13900
Ni	Ni	0.21555 0.61764 0.42409 1.14300
O 	O 	0.30723 0.49863 0.40302 -0.28200
O 	O 	0.20172 0.54464 0.38906 -0.28200
O 	O 	0.31091 0.82384 0.44610 -0.29100
O 	O 	0.46036 0.79769 0.46108 -0.34700
O 	O 	0.19622 0.71415 0.40426 -0.30500
O 	O 	0.34900 0.56110 0.46104 -0.33100
O 	O 	0.20233 0.50497 0.44411 -0.28300
O 	O 	0.34504 0.82225 0.39036 -0.31000
O 	O 	0.22201 0.67535 0.46104 -0.34100
O 	O 	0.34520 0.67935 0.41783 -0.73000
H 	H 	0.34456 0.68010 0.39762 0.17400
C 	C 	0.31999 0.49750 0.09549 0.32700
C 	C 	0.33607 0.49748 0.17039 0.39700
C 	C 	0.16104 0.64334 0.10163 0.33500
C 	C 	0.18867 0.67428 0.17653 0.40000
Ni	Ni	0.44210 0.65818 0.12825 1.12800
Ni	Ni	0.22186 0.54937 0.13711 1.14200
Ni	Ni	0.32759 0.76929 0.13441 1.14100
O 	O 	0.19943 0.59163 0.10140 -0.33900
O 	O 	0.37480 0.58561 0.09351 -0.34800
O 	O 	0.25979 0.46632 0.11562 -0.27400
O 	O 	0.26988 0.74770 0.17133 -0.34200
O 	O 	0.36997 0.78245 0.09535 -0.32000
O 	O 	0.15181 0.59970 0.16005 -0.32400
O 	O 	0.40396 0.53624 0.15163 -0.31900
O 	O 	0.26437 0.51188 0.17061 -0.33800
O 	O 	0.19748 0.71778 0.11748 -0.28300
O 	O 	0.33685 0.66094 0.14066 -0.72400
H 	H 	0.34760 0.66571 0.16065 0.19700
C 	C 	0.05723 0.86588 0.24026 0.45100
C 	C 	0.11808 0.19418 0.30832 0.41000
C 	C 	0.06347 0.90197 0.31451 0.40800
C 	C 	0.13671 0.18870 0.23434 0.40100
Ni	Ni	0.13194 0.05032 0.27372 1.15100
O 	O 	0.12520 0.93115 0.25570 -0.33700
O 	O 	0.17331 0.17859 0.29257 -0.28500
O 	O 	0.02877 0.13785 0.30745 -0.29200
O 	O 	0.10138 0.99121 0.31196 -0.34000
O 	O 	0.15676 0.12144 0.23751 -0.30700
O 	O 	0.07301 0.19548 0.24984 -0.29300
C 	C 	0.32405 0.42858 0.21560 0.29500
C 	C 	0.32722 0.42040 0.18697 -0.16700
C 	C 	0.28137 0.33165 0.17509 0.29800
C 	C 	0.21690 0.25642 0.19040 0.30200
C 	C 	0.20134 0.26866 0.21801 -0.16800
C 	C 	0.25895 0.35381 0.23096 0.29800
F 	F 	0.25144 0.36431 0.25833 -0.34500
F 	F 	0.37476 0.51235 0.22790 -0.33100
F 	F 	0.16715 0.17242 0.17814 -0.30700
F 	F 	0.28904 0.32079 0.14780 -0.33600
C 	C 	0.15827 0.71158 0.22300 0.29000
C 	C 	0.12822 0.68735 0.19574 -0.16100
C 	C 	0.06042 0.70665 0.18519 0.28200
C 	C 	0.03502 0.76303 0.20001 0.35000
C 	C 	0.07516 0.79792 0.22588 -0.19800
C 	C 	0.13293 0.76766 0.23792 0.31400
F 	F 	0.16692 0.79501 0.26372 -0.33800
F 	F 	0.21945 0.68836 0.23405 -0.32300
F 	F 	0.02687 0.67924 0.15934 -0.32600
C 	C 	0.09692 0.31613 0.33246 0.30800
C 	C 	0.15527 0.28013 0.32500 -0.15300
C 	C 	0.24794 0.32505 0.33422 0.31600
C 	C 	0.28019 0.40160 0.35183 0.29900
C 	C 	0.21916 0.43170 0.36145 -0.14400
C 	C 	0.12805 0.39024 0.35092 0.30800
F 	F 	0.06868 0.41997 0.35906 -0.30700
F 	F 	0.00984 0.27928 0.32182 -0.32900
F 	F 	0.37059 0.44576 0.35988 -0.33700
F 	F 	0.30628 0.29331 0.32674 -0.32000
C 	C 	0.21701 0.89569 0.37096 0.32300
C 	C 	0.21271 0.81053 0.36605 -0.16600
C 	C 	0.15393 0.75186 0.34529 0.30700
C 	C 	0.10068 0.77870 0.32932 0.30600
C 	C 	0.10555 0.86474 0.33411 -0.14800
C 	C 	0.16154 0.92124 0.35580 0.25800
F 	F 	0.16159 0.00081 0.36233 -0.26400
F 	F 	0.27212 0.95208 0.39135 -0.31800
F 	F 	0.14731 0.66805 0.34091 -0.32800
C 	C 	0.12909 0.85503 0.50770 0.04200
C 	C 	0.11415 0.79966 0.53081 0.07400
C 	C 	0.17672 0.76626 0.53615 -0.09000
C 	C 	0.23202 0.76420 0.51467 0.07900
C 	C 	0.22874 0.79915 0.48882 0.01000
C 	C 	0.18445 0.85350 0.48603 -0.05900
C 	C 	0.17168 0.71635 0.56260 0.78500
H 	H 	0.27132 0.72827 0.51734 0.09600
C 	C 	0.19249 0.90613 0.45983 0.78300
H 	H 	0.08673 0.88748 0.50482 0.15500
F 	F 	0.28488 0.96653 0.45437 -0.37700
F 	F 	0.14765 0.95767 0.46194 -0.36700
F 	F 	0.15301 0.84486 0.43816 -0.38600
F 	F 	0.10683 0.62379 0.55977 -0.38000
F 	F 	0.14713 0.75307 0.58441 -0.35400
F 	F 	0.25709 0.72417 0.56867 -0.34800
F 	F 	0.12312 0.90020 0.58287 -0.36400
C 	C 	0.28748 0.30671 0.54177 0.08100
C 	C 	0.26375 0.25048 0.56536 -0.06900
C 	C 	0.33394 0.24072 0.57898 0.08200
C 	C 	0.22882 0.34419 0.53129 0.12400
C 	C 	0.16351 0.19549 0.57452 0.79000
H 	H 	0.32003 0.20625 0.59863 0.13200
C 	C 	0.25734 0.43859 0.53614 -0.11000
C 	C 	0.25538 0.49234 0.51424 0.09300
C 	C 	0.22153 0.45178 0.48847 0.00400
C 	C 	0.16969 0.35405 0.48634 -0.04300
C 	C 	0.17306 0.30068 0.50825 0.02400
C 	C 	0.30691 0.48614 0.56250 0.79300
H 	H 	0.28874 0.56687 0.51645 0.09100
C 	C 	0.11457 0.30688 0.46058 0.77700
H 	H 	0.14410 0.22679 0.50569 0.16800
F 	F 	0.11025 0.13753 0.55345 -0.33600
F 	F 	0.12948 0.25411 0.58124 -0.34500
F 	F 	0.15431 0.14172 0.59720 -0.32600
F 	F 	0.17433 0.32268 0.43894 -0.38400
F 	F 	0.05538 0.34078 0.45420 -0.36300
F 	F 	0.06096 0.21231 0.46402 -0.34500
F 	F 	0.29502 0.56152 0.56789 -0.34600
F 	F 	0.27257 0.42696 0.58457 -0.36500
C 	C 	0.36583 0.13919 0.67386 0.29200
C 	C 	0.42348 0.23496 0.67759 -0.17000
C 	C 	0.40212 0.28160 0.69783 0.30600
C 	C 	0.32514 0.23262 0.71471 0.31600
C 	C 	0.26865 0.13653 0.71135 -0.18100
C 	C 	0.28910 0.09014 0.69081 0.36500
F 	F 	0.23393 0.99774 0.68705 -0.35700
F 	F 	0.38421 0.09384 0.65373 -0.33400
F 	F 	0.30651 0.27805 0.73475 -0.35600
F 	F 	0.45763 0.37389 0.70172 -0.32600
H 	H 	0.04171 0.39274 0.02365 0.21200
C 	C 	0.00532 0.51130 0.10453 0.16800
C 	C 	0.06273 0.59874 0.09332 -0.00900
C 	C 	0.04076 0.61551 0.06679 0.03200
H 	H 	0.01186 0.50107 0.12619 0.09400
C 	C 	0.08681 0.71245 0.05558 0.76900
F 	F 	0.06387 0.29515 0.98752 -0.28700
F 	F 	0.03115 0.37794 0.95745 -0.31200
F 	F 	0.17286 0.73417 0.04535 -0.35300
F 	F 	0.09791 0.77487 0.07612 -0.34600
F 	F 	0.03384 0.72022 0.03478 -0.31800
F 	F 	0.04526 0.35340 0.09778 -0.35500
C 	C 	0.37523 0.01041 0.99523 0.01000
C 	C 	0.32458 0.00742 0.02139 0.81300
H 	H 	0.37149 0.12939 0.97831 0.16600
C 	C 	0.31742 0.74398 0.99839 0.79700
F 	F 	0.38752 0.05081 0.04247 -0.33900
F 	F 	0.26522 0.91686 0.02866 -0.36400
F 	F 	0.27218 0.05095 0.01801 -0.31900
F 	F 	0.26292 0.66001 0.01108 -0.35300
F 	F 	0.25938 0.77778 0.99047 -0.35200
C 	C 	0.41242 0.42672 0.03841 0.04400
C 	C 	0.42104 0.42830 0.09567 0.07800
C 	C 	0.35021 0.43699 0.08247 0.02900
C 	C 	0.33902 0.42264 0.05389 -0.04600
C 	C 	0.25421 0.41463 0.03950 0.77500
H 	H 	0.40904 0.42626 0.01618 0.13300
F 	F 	0.23785 0.36606 0.01509 -0.33700
F 	F 	0.26777 0.50191 0.03396 -0.38700
F 	F 	0.17664 0.36832 0.05585 -0.35300
F 	F 	0.41550 0.26354 0.01245 -0.40200
C 	C 	0.29760 0.11558 0.84932 0.30500
C 	C 	0.30548 0.12073 0.82075 -0.16200
C 	C 	0.39167 0.14708 0.80851 0.30500
C 	C 	0.47009 0.17073 0.82494 0.30600
C 	C 	0.46300 0.16896 0.85367 -0.15900
C 	C 	0.37581 0.14066 0.86571 0.31200
F 	F 	0.36736 0.14091 0.89331 -0.33600
F 	F 	0.21414 0.08834 0.86128 -0.30500
F 	F 	0.39940 0.14967 0.78075 -0.33200
O 	O 	0.46152 0.84981 0.14963 -0.29900
C 	C 	0.37235 0.33436 0.52895 0.05600
O 	O 	0.02468 0.02008 0.77900 -0.68200
H 	H 	0.03171 0.02384 0.79914 0.21100
F 	F 	0.40072 0.51629 0.56000 -0.40000
H 	H 	0.38777 0.37258 0.50989 0.11400
C 	C 	0.42420 0.28146 0.56815 0.04300
C 	C 	0.38749 0.07461 0.97440 0.04400
H 	H 	0.42463 0.43078 0.11781 0.12600
F 	F 	0.52488 0.91095 0.56032 -0.41200
F 	F 	0.47678 0.76033 0.56730 -0.35400
F 	F 	0.59115 0.15849 0.53291 -0.35600
F 	F 	0.47372 0.25598 0.05357 -0.32900
C 	C 	0.50933 0.16408 0.94061 0.27700
C 	C 	0.54791 0.21777 0.87054 0.41600
O 	O 	0.49315 0.22940 0.92966 -0.26400
O 	O 	0.58377 0.30626 0.87375 -0.33400
C 	C 	0.50945 0.28411 0.66180 0.41900
C 	C 	0.50290 0.30066 0.58667 0.30700
O 	O 	0.52188 0.35278 0.64569 -0.32900
O 	O 	0.49747 0.23230 0.60256 -0.29000
O 	O 	0.56371 0.24805 0.65992 -0.33100
C 	C 	0.52177 0.76930 0.46323 0.30600
C 	C 	0.52591 0.77237 0.38502 0.39700
O 	O 	0.52637 0.71476 0.44454 -0.27200
O 	O 	0.48488 0.68112 0.38827 -0.29400
O 	O 	0.52211 0.82696 0.40442 -0.31500
C 	C 	0.50778 0.82105 0.16598 0.39200
C 	C 	0.45301 0.80090 0.08802 0.32700
O 	O 	0.51248 0.74551 0.16035 -0.32500
O 	O 	0.50256 0.77633 0.10353 -0.29000
F 	F 	0.47884 0.80197 0.22360 -0.33300
F 	F 	0.51406 0.86494 0.33767 -0.34600
C 	C 	0.54368 0.78958 0.51358 0.08000
C 	C 	0.58288 0.79566 0.48769 0.00700
C 	C 	0.55339 0.84562 0.56222 0.78500
H 	H 	0.46896 0.74965 0.51592 0.09400
F 	F 	0.69639 0.19823 0.49922 -0.35800
C 	C 	0.44023 0.32002 0.54148 -0.06000
C 	C 	0.41186 0.94977 0.99120 0.00300
C 	C 	0.43214 0.07493 0.94996 0.13000
C 	C 	0.43522 0.90809 0.01476 0.15200
C 	C 	0.39390 0.81070 0.01766 -0.11100
C 	C 	0.42595 0.77539 0.03868 0.09600
C 	C 	0.48171 0.83353 0.05990 -0.00600
C 	C 	0.53248 0.92945 0.05505 -0.01000
C 	C 	0.50785 0.96628 0.03260 -0.06400
H 	H 	0.39615 0.70131 0.04091 0.11400
C 	C 	0.60546 0.99351 0.07535 0.69600
H 	H 	0.54368 0.04031 0.02932 0.20000
F 	F 	0.41155 0.00566 0.89582 -0.34500
F 	F 	0.56321 0.01459 0.09646 -0.30600
F 	F 	0.35649 0.72854 0.97536 -0.38400
C 	C 	0.49203 0.43515 0.05149 0.09400
C 	C 	0.49569 0.43341 0.08053 -0.08700
C 	C 	0.49372 0.27430 0.02603 0.79900
F 	F 	0.51592 0.20993 0.01578 -0.41100
F 	F 	0.55365 0.19887 0.81295 -0.31700
C 	C 	0.43829 0.93923 0.96481 0.09400
O 	O 	0.56748 0.38842 0.59050 -0.29000
C 	C 	0.68480 0.19773 0.52736 0.79100
H 	H 	0.66746 0.03745 0.50947 0.13000
Ni	Ni	0.60333 0.22690 0.62334 1.14900
C 	C 	0.56500 0.85840 0.21360 0.29300
C 	C 	0.57589 0.88524 0.18594 -0.16900
C 	C 	0.53250 0.35559 0.52745 0.79200
C 	C 	0.43605 0.99381 0.94339 -0.14400
C 	C 	0.57178 0.44837 0.03449 0.10900
C 	C 	0.57279 0.37200 0.02185 -0.08900
F 	F 	0.66911 0.07471 0.06282 -0.31600
F 	F 	0.65326 0.95189 0.08612 -0.36300
Ni	Ni	0.59134 0.35993 0.91228 1.13200
O 	O 	0.59371 0.17641 0.94352 -0.32700
O 	O 	0.57279 0.17090 0.88705 -0.28100
O 	O 	0.60696 0.43400 0.94770 -0.30900
O 	O 	0.65468 0.20190 0.58901 -0.27400
C 	C 	0.60161 0.81520 0.36510 -0.16500
C 	C 	0.59510 0.86571 0.34294 0.29600
C 	C 	0.59927 0.84294 0.53564 -0.10300
F 	F 	0.61385 0.86758 0.58418 -0.38200
F 	F 	0.73053 0.28795 0.53640 -0.35200
F 	F 	0.58686 0.44860 0.53339 -0.37000
F 	F 	0.52041 0.34451 0.49929 -0.35700
C 	C 	0.45043 0.97184 0.91437 0.73200
H 	H 	0.46448 0.89185 0.96118 0.11800
C 	C 	0.58230 0.44624 0.09535 0.78700
C 	C 	0.63969 0.53858 0.02743 0.04200
H 	H 	0.64035 0.59705 0.03759 0.12400
F 	F 	0.56993 0.43743 0.12349 -0.37900
F 	F 	0.60491 0.38068 0.08661 -0.32700
O 	O 	0.66168 0.49243 0.89480 -0.29800
Ni	Ni	0.64154 0.43392 0.62524 1.14000
O 	O 	0.68550 0.18592 0.64379 -0.32000
C 	C 	0.64298 0.88031 0.23003 0.28800
C 	C 	0.66493 0.94881 0.17653 0.30700
F 	F 	0.67635 0.98006 0.15035 -0.31600
F 	F 	0.63118 0.84831 0.25612 -0.33200
C 	C 	0.68636 0.81894 0.37089 0.30700
F 	F 	0.69326 0.76968 0.39204 -0.30800
C 	C 	0.69419 0.90603 0.53090 0.07100
C 	C 	0.68105 0.84050 0.48530 -0.06500
C 	C 	0.72221 0.14154 0.54114 -0.05800
C 	C 	0.70659 0.05954 0.52856 0.04400
F 	F 	0.70323 0.87875 0.43802 -0.39800
F 	F 	0.57671 0.30804 0.53594 -0.34500
F 	F 	0.67609 0.15901 0.71460 -0.32500
F 	F 	0.40824 0.87710 0.91060 -0.36500
C 	C 	0.63958 0.38867 0.00164 0.09500
H 	H 	0.63828 0.33086 0.99096 0.05400
F 	F 	0.65555 0.53330 0.09002 -0.39800
F 	F 	0.64540 0.55902 0.84178 -0.33400
F 	F 	0.65666 0.25977 0.05073 -0.35200
C 	C 	0.03429 0.87311 0.57361 0.88600
F 	F 	0.54426 0.00954 0.90934 -0.39100
O 	O 	0.00669 0.00895 0.26555 -0.68200
C 	C 	0.68847 0.48043 0.96004 0.28700
Ni	Ni	0.68590 0.22846 0.91333 1.14500
O 	O 	0.69126 0.34215 0.92296 -0.71300
H 	H 	0.67990 0.33377 0.94281 0.15500
O 	O 	0.68935 0.35335 0.61725 -0.73100
H 	H 	0.69044 0.35530 0.59701 0.21800
C 	C 	0.67224 0.91686 0.32608 0.29500
C 	C 	0.73343 0.00145 0.54143 0.12700
F 	F 	0.69835 0.74645 0.45166 -0.36800
C 	C 	0.69006 0.47668 0.99014 -0.00400
C 	C 	0.70122 0.55324 0.00566 -0.04600
H 	H 	0.00595 0.00575 0.24533 0.21900
O 	O 	0.00068 0.84718 0.29648 -0.28900
F 	F 	0.66397 0.96249 0.30414 -0.33700
H 	H 	0.70300 0.23895 0.00559 0.09400
C 	C 	0.01792 0.74611 0.54081 0.22300
C 	C 	0.72689 0.83724 0.45871 0.78300
F 	F 	0.00747 0.18652 0.68150 -0.27500
F 	F 	0.03936 0.92860 0.55188 -0.37200
O 	O 	0.00670 0.17376 0.75127 -0.25800
O 	O 	0.70406 0.46863 0.66234 -0.33300
C 	C 	0.74255 0.22185 0.58658 0.30500
F 	F 	0.73337 0.67915 0.97664 -0.39000
C 	C 	0.74324 0.97144 0.19293 0.24300
C 	C 	0.73270 0.93325 0.21928 -0.14500
C 	C 	0.73610 0.89268 0.50771 0.03300
C 	C 	0.73504 0.62438 0.84642 0.30700
F 	F 	0.73130 0.70519 0.80652 -0.32800
C 	C 	0.74563 0.52910 0.88428 0.41600
F 	F 	0.01858 0.16854 0.86711 -0.26900
C 	C 	0.74675 0.23617 0.66273 0.42700
C 	C 	0.76462 0.87450 0.35529 0.29000
C 	C 	0.76258 0.16379 0.56778 0.04700
F 	F 	0.74235 0.44940 0.54026 -0.35600
C 	C 	0.75703 0.16482 0.70629 0.31500
F 	F 	0.73591 0.50471 0.72012 -0.32700
O 	O 	0.76713 0.51903 0.94563 -0.27800
O 	O 	0.76495 0.28008 0.88037 -0.34400
O 	O 	0.75400 0.54253 0.60632 -0.30800
C 	C 	0.75722 0.91985 0.33182 -0.16200
F 	F 	0.77583 0.11313 0.75019 -0.32800
C 	C 	0.74747 0.32702 0.05548 0.79900
F 	F 	0.75418 0.41309 0.05363 -0.40300
C 	C 	0.77094 0.65040 0.99724 0.77700
C 	C 	0.78441 0.61594 0.86869 -0.18000
F 	F 	0.04416 0.72086 0.30942 -0.31500
O 	O 	0.78528 0.32579 0.66221 -0.34100
C 	C 	0.79129 0.03297 0.56494 -0.03200
F 	F 	0.78751 0.89488 0.58005 -0.36600
F 	F 	0.79473 0.71091 0.01925 -0.37000
C 	C 	0.77943 0.69812 0.82814 0.29400
O 	O 	0.79508 0.48811 0.88693 -0.33700
O 	O 	0.79168 0.25176 0.94010 -0.28200
C 	C 	0.79338 0.52351 0.66473 0.41000
O 	O 	0.80952 0.28109 0.60362 -0.28100
H 	H 	0.81054 0.93447 0.50544 0.13700
C 	C 	0.80353 0.11356 0.57845 0.06400
C 	C 	0.80872 0.14301 0.72459 0.29000
C 	C 	0.78998 0.19491 0.67971 -0.19100
C 	C 	0.79214 0.59100 0.71038 0.30100
F 	F 	0.78412 0.65481 0.75348 -0.32500
C 	C 	0.77684 0.27289 0.00975 0.08700
F 	F 	0.76936 0.31474 0.08192 -0.33600
C 	C 	0.81265 0.53749 0.58836 0.32400
Ni	Ni	0.81451 0.44452 0.92351 1.14200
Ni	Ni	0.81447 0.39451 0.62536 1.13700
F 	F 	0.82270 0.88305 0.46104 -0.38100
C 	C 	0.81756 0.31040 0.96140 0.28500
C 	C 	0.81537 0.95324 0.23614 0.33300
F 	F 	0.82929 0.02641 0.18263 -0.28600
F 	F 	0.81946 0.50519 0.50120 -0.36000
C 	C 	0.81534 0.66777 0.72726 0.28500
C 	C 	0.81242 0.32036 0.03484 -0.10100
O 	O 	0.81312 0.88595 0.25198 -0.31700
C 	C 	0.82954 0.49903 0.52921 0.78100
C 	C 	0.82776 0.60306 0.68363 -0.18800
F 	F 	0.84771 0.88279 0.36261 -0.33700
O 	O 	0.84377 0.47804 0.59143 -0.28000
C 	C 	0.83223 0.95394 0.31119 0.35600
H 	H 	0.83964 0.13389 0.59799 0.14700
O 	O 	0.84219 0.39838 0.95797 -0.32700
C 	C 	0.83745 0.28365 0.98829 0.00500
F 	F 	0.85109 0.65326 0.98778 -0.37700
F 	F 	0.01231 0.82163 0.85891 -0.29600
O 	O 	0.85068 0.51546 0.64776 -0.31500
C 	C 	0.84640 0.98663 0.57388 0.72000
C 	C 	0.85412 0.33552 0.88254 0.41600
O 	O 	0.84388 0.01903 0.29360 -0.26700
C 	C 	0.86163 0.61341 0.56855 0.00200
F 	F 	0.86494 0.37177 0.82550 -0.33800
O 	O 	0.85862 0.84537 0.75498 -0.30000
C 	C 	0.87741 0.68433 0.87317 0.31000
C 	C 	0.87375 0.76353 0.83186 -0.15900
F 	F 	0.87903 0.45319 0.53376 -0.37300
C 	C 	0.88175 0.59419 0.54181 -0.02200
H 	H 	0.88762 0.72203 0.59753 0.12900
C 	C 	0.87357 0.75743 0.71744 -0.16400
O 	O 	0.88861 0.39532 0.90304 -0.30900
O 	O 	0.88663 0.89895 0.81076 -0.34300
O 	O 	0.88412 0.03993 0.23747 -0.29400
O 	O 	0.88317 0.91417 0.30962 -0.35500
C 	C 	0.88641 0.69260 0.67391 0.30000
C 	C 	0.87456 0.20194 0.67146 0.31500
F 	F 	0.90100 0.26792 0.08108 -0.34600
C 	C 	0.90846 0.70514 0.57830 0.13700
C 	C 	0.89389 0.15134 0.71644 -0.14400
F 	F 	0.90594 0.26648 0.79088 -0.33600
Ni	Ni	0.89618 0.97050 0.77528 1.10000
C 	C 	0.90321 0.32221 0.83582 0.30300
O 	O 	0.90512 0.02776 0.73718 -0.30500
O 	O 	0.90323 0.08685 0.79560 -0.27600
F 	F 	0.90056 0.02916 0.59683 -0.31400
F 	F 	0.90435 0.99148 0.55283 -0.38000
C 	C 	0.90758 0.76932 0.69048 0.28100
C 	C 	0.91981 0.84097 0.81266 0.39000
C 	C 	0.91167 0.83706 0.73641 0.35000
F 	F 	0.92160 0.70539 0.64818 -0.35300
C 	C 	0.91003 0.37109 0.03868 0.12800
C 	C 	0.91530 0.31968 0.86430 -0.18300
C 	C 	0.92208 0.75715 0.85465 0.24600
F 	F 	0.92502 0.67885 0.89519 -0.36100
C 	C 	0.92206 0.26682 0.81824 0.28100
Ni	Ni	0.91955 0.88457 0.27381 1.11300
C 	C 	0.93041 0.31118 0.99507 -0.00800
F 	F 	0.92213 0.32635 0.12347 -0.37100
F 	F 	0.90800 0.23268 0.64596 -0.36700
C 	C 	0.94135 0.11676 0.73430 0.35600
C 	C 	0.92626 0.18025 0.68976 0.24800
F 	F 	0.94329 0.22266 0.95867 -0.34800
C 	C 	0.95279 0.44847 0.05883 0.11700
C 	C 	0.95974 0.66137 0.52820 -0.05000
C 	C 	0.95747 0.34398 0.09713 0.76900
C 	C 	0.95624 0.21095 0.82891 -0.14000
Ni	Ni	0.96170 0.09297 0.27125 1.11900
F 	F 	0.96214 0.85558 0.68045 -0.33700
C 	C 	0.96011 0.27263 0.87448 0.31000
C 	C 	0.96478 0.43391 0.08696 -0.14700
C 	C 	0.96753 0.35907 0.01990 -0.04300
F 	F 	0.98610 0.88691 0.59459 -0.38200
C 	C 	0.97400 0.15123 0.81049 0.32700
O 	O 	0.97075 0.85115 0.24093 -0.38000
H 	H 	0.97369 0.55093 0.02832 0.13500
F 	F 	0.97595 0.78829 0.18853 -0.37900
O 	O 	0.97538 0.83647 0.79344 -0.35200
C 	C 	0.98687 0.77291 0.56429 -0.20800
H 	H 	0.98046 0.64429 0.50891 0.12200
F 	F 	0.97682 0.27343 0.90179 -0.31900
C 	C 	0.97990 0.21780 0.85685 0.23800
C 	C 	0.98584 0.53950 0.04946 -0.03800
C 	C 	0.99303 0.30167 0.97439 0.69500
O 	O 	0.00034 0.89605 0.73580 -0.29700
