data_crystal

_cell_length_a 19.97616
_cell_length_b 20.63767
_cell_length_c 36.41533
_cell_angle_alpha 60.71761
_cell_angle_beta  118.99714
_cell_angle_gamma 133.23638

_symmetry_space_group_name_	'P 1'
_symmetry_space_group_name_H-M	'P 1'

loop_
_symmetry_equiv_pos_as_xyz
  x,y,z

loop_
_atom_site_label
_atom_site_type_symbol
_atom_site_fract_x
_atom_site_fract_y
_atom_site_fract_z
_atom_site_charge
C 	C 	0.71265 0.32511 0.97652 0.01400
C 	C 	0.75502 0.41883 0.96875 -0.06500
C 	C 	0.70494 0.44460 0.96809 0.01500
C 	C 	0.60848 0.37968 0.96615 -0.07000
C 	C 	0.57179 0.28689 0.98198 0.03200
C 	C 	0.62201 0.25897 0.98503 -0.07200
H 	H 	0.82828 0.47024 0.96669 0.04200
H 	H 	0.56769 0.40100 0.96172 0.05300
H 	H 	0.59397 0.18694 0.99703 0.04200
C 	C 	0.64967 0.20939 0.54880 -0.02100
C 	C 	0.72927 0.29186 0.56119 -0.05400
C 	C 	0.71828 0.35331 0.55976 0.01000
C 	C 	0.62822 0.33271 0.54583 -0.06100
C 	C 	0.54884 0.25059 0.53381 0.00700
C 	C 	0.55939 0.18882 0.53520 -0.05300
H 	H 	0.79920 0.30798 0.57189 0.03500
H 	H 	0.61998 0.38105 0.54405 0.04800
H 	H 	0.49766 0.12483 0.52605 0.02800
C 	C 	0.31334 0.63726 0.20797 0.02300
C 	C 	0.41271 0.68708 0.22096 -0.06600
C 	C 	0.45660 0.65617 0.22047 0.02200
C 	C 	0.40261 0.56561 0.21907 -0.06600
C 	C 	0.30514 0.51829 0.20245 0.02100
C 	C 	0.25965 0.55344 0.19730 -0.06600
H 	H 	0.45585 0.75332 0.22749 0.05400
H 	H 	0.43757 0.53929 0.22219 0.04900
H 	H 	0.18444 0.51875 0.18292 0.05100
C 	C 	0.30817 0.69636 0.63176 0.02500
C 	C 	0.40128 0.72217 0.64702 -0.06500
C 	C 	0.42028 0.66690 0.64826 0.02300
C 	C 	0.34628 0.58486 0.63529 -0.06500
C 	C 	0.25337 0.55801 0.62015 0.02200
C 	C 	0.23396 0.61374 0.61832 -0.06500
H 	H 	0.45882 0.78555 0.65736 0.05400
H 	H 	0.36088 0.54090 0.63765 0.05000
H 	H 	0.16199 0.59321 0.60641 0.05600
Co	Co	0.99310 0.85190 0.10330 1.17200
Co	Co	0.03067 0.10850 0.07573 1.20100
Co	Co	0.94627 0.93294 0.13960 1.19400
Co	Co	0.09960 0.03593 0.04827 1.16000
C 	C 	0.89049 0.73674 0.03767 0.29900
Co	Co	0.09733 0.87661 0.04765 1.18000
Co	Co	0.93628 0.08887 0.13464 1.13600
C 	C 	0.27419 0.04757 0.07050 0.20700
O 	O 	0.03501 0.08760 0.19165 -0.34700
O 	O 	0.96592 0.03622 0.11262 -0.83300
C 	C 	0.02888 0.01154 0.21566 0.08200
O 	O 	0.93549 0.82152 0.14744 -0.47900
O 	O 	0.10935 0.14668 0.03982 -0.47200
C 	C 	0.12275 0.25031 0.11770 0.30900
O 	O 	0.98682 0.97144 0.08019 -0.56400
C 	C 	0.77814 0.88611 0.15221 0.31100
C 	C 	0.10490 0.77958 0.14035 0.29800
C 	C 	0.07831 0.01179 0.96733 0.20600
O 	O 	0.02890 0.96568 0.19969 -0.27500
O 	O 	0.07030 0.76614 0.10173 -0.38900
O 	O 	0.09610 0.83049 0.14703 -0.36900
O 	O 	0.03634 0.22253 0.10849 -0.39300
O 	O 	0.13818 0.20188 0.11362 -0.39900
O 	O 	0.83599 0.96109 0.16561 -0.37900
O 	O 	0.80578 0.86745 0.13461 -0.37800
O 	O 	0.13135 0.98286 0.99240 -0.31000
O 	O 	0.05617 0.03880 0.98313 -0.37000
O 	O 	0.05446 0.92361 0.06518 -0.71300
C 	C 	0.87780 0.14260 0.03910 0.29300
O 	O 	0.84454 0.08507 0.07430 -0.41900
O 	O 	0.94428 0.15323 0.03137 -0.40600
O 	O 	0.95802 0.80353 0.01652 -0.41500
O 	O 	0.89118 0.74174 0.07327 -0.38900
O 	O 	0.23227 0.95879 0.08148 -0.32700
O 	O 	0.24011 0.08091 0.07407 -0.39800
Co	Co	0.02529 0.86975 0.60147 1.20000
Co	Co	0.93065 0.03035 0.57851 1.13900
Co	Co	0.96291 0.90195 0.65642 1.17100
Co	Co	0.99577 0.00061 0.52436 1.12600
C 	C 	0.96609 0.72248 0.57022 0.25500
Co	Co	0.07310 0.91445 0.51416 1.19000
Co	Co	0.89568 0.00088 0.66543 1.11700
C 	C 	0.16690 0.11312 0.49367 0.30600
O 	O 	0.03368 0.05928 0.70102 -0.37600
O 	O 	0.92636 0.97113 0.63020 -0.72400
C 	C 	0.06773 0.01076 0.72287 0.21200
O 	O 	0.00661 0.83403 0.66012 -0.43500
O 	O 	0.95330 0.06945 0.52051 -0.51700
C 	C 	0.00657 0.18522 0.60867 0.35800
O 	O 	0.94531 0.92474 0.58599 -0.57300
C 	C 	0.80648 0.80225 0.69710 0.30400
C 	C 	0.20916 0.92699 0.59835 0.29600
C 	C 	0.91102 0.91463 0.44973 0.24600
O 	O 	0.07408 0.97684 0.70269 -0.30300
O 	O 	0.20316 0.97008 0.55723 -0.36400
O 	O 	0.16781 0.91943 0.62117 -0.37000
O 	O 	0.92978 0.12705 0.62315 -0.47900
O 	O 	0.02946 0.15664 0.59407 -0.40500
O 	O 	0.85865 0.87630 0.71038 -0.39600
O 	O 	0.84301 0.79165 0.68034 -0.39400
O 	O 	0.93847 0.86087 0.47533 -0.39100
O 	O 	0.91139 0.96113 0.46547 -0.33500
O 	O 	0.02249 0.92434 0.54875 -0.70300
C 	C 	0.75244 0.98443 0.58293 0.42500
O 	O 	0.76280 0.94267 0.62443 -0.39500
O 	O 	0.79482 0.99754 0.55844 -0.36600
O 	O 	0.03988 0.78569 0.55292 -0.36200
O 	O 	0.94393 0.74274 0.59006 -0.40300
O 	O 	0.11571 0.04572 0.47541 -0.43900
O 	O 	0.13105 0.10965 0.51733 -0.40900
C 	C 	0.02027 0.97355 0.86930 0.21300
C 	C 	0.01353 0.91605 0.85558 -0.07900
C 	C 	0.07864 0.95597 0.83273 0.08000
C 	C 	0.14717 0.05030 0.82329 -0.02300
C 	C 	0.15619 0.10725 0.83859 -0.01900
C 	C 	0.08995 0.06740 0.86068 -0.11000
N 	N 	0.99517 0.94552 0.90537 -0.17200
C 	C 	0.04974 0.02039 0.92069 -0.01900
C 	C 	0.10943 0.09768 0.89349 -0.00300
N 	N 	0.16603 0.07848 0.78529 -0.12800
C 	C 	0.10869 0.00357 0.76955 -0.07900
C 	C 	0.05535 0.92588 0.79894 0.07100
H 	H 	0.95921 0.84270 0.86234 0.03100
H 	H 	0.21059 0.18057 0.83197 0.03700
H 	H 	0.17729 0.15729 0.90419 0.03700
H 	H 	0.98744 0.86457 0.78978 0.00300
H 	H 	0.96521 0.87836 0.92480 0.08800
H 	H 	0.19315 0.14539 0.76573 0.08400
C 	C 	0.97698 0.92020 0.31610 0.13800
C 	C 	0.89701 0.86597 0.33234 -0.15200
C 	C 	0.88640 0.90784 0.34808 0.15400
C 	C 	0.95310 0.00039 0.34777 -0.10100
C 	C 	0.03344 0.05422 0.33188 0.01100
C 	C 	0.04538 0.01189 0.31722 -0.04000
N 	N 	0.97551 0.90616 0.28317 -0.21000
C 	C 	0.04164 0.98856 0.26262 0.21500
C 	C 	0.08750 0.05546 0.28353 -0.15700
N 	N 	0.95480 0.01572 0.38024 -0.20000
C 	C 	0.89264 0.93336 0.40265 0.08600
C 	C 	0.84778 0.86477 0.38307 -0.11300
H 	H 	0.84423 0.79406 0.33215 0.06800
H 	H 	0.08603 0.12624 0.33188 0.03100
H 	H 	0.12189 0.12804 0.26787 0.07200
H 	H 	0.81800 0.79332 0.40017 0.06700
H 	H 	0.91607 0.85271 0.26810 0.08900
H 	H 	0.01300 0.07197 0.39368 0.11200
C 	C 	0.11610 0.39646 0.63888 -0.06600
C 	C 	0.17610 0.46689 0.61053 0.02600
C 	C 	0.17676 0.44506 0.57966 -0.06500
C 	C 	0.12260 0.35321 0.57918 0.02600
C 	C 	0.06663 0.28254 0.60928 -0.10400
C 	C 	0.06248 0.30499 0.63858 0.03100
H 	H 	0.11517 0.41222 0.66290 0.05100
H 	H 	0.22264 0.49899 0.55744 0.05200
H 	H 	0.12462 0.33731 0.55562 0.03700
H 	H 	0.01899 0.25129 0.66179 0.03200
C 	C 	0.55514 0.70335 0.63479 -0.06100
C 	C 	0.51811 0.69559 0.66225 0.02400
C 	C 	0.57210 0.70882 0.70404 -0.06300
C 	C 	0.66417 0.73433 0.71741 0.01800
C 	C 	0.70326 0.74739 0.68900 -0.09700
C 	C 	0.64659 0.72747 0.64840 0.02500
H 	H 	0.51349 0.69203 0.60265 0.05200
H 	H 	0.54310 0.70021 0.72597 0.04900
H 	H 	0.70675 0.74821 0.74909 0.03000
H 	H 	0.67567 0.73712 0.62616 0.03300
C 	C 	0.34314 0.85181 0.60676 -0.05500
C 	C 	0.28946 0.75838 0.62785 0.02100
C 	C 	0.21904 0.72469 0.64557 -0.05400
C 	C 	0.19916 0.78274 0.64009 0.01900
C 	C 	0.24912 0.87489 0.61663 -0.07900
C 	C 	0.32406 0.90985 0.60179 0.01700
H 	H 	0.39802 0.87902 0.59315 0.05700
H 	H 	0.17856 0.65334 0.66283 0.05200
H 	H 	0.14136 0.75465 0.65188 0.04000
H 	H 	0.36408 0.98101 0.58415 0.05600
C 	C 	0.25045 0.36624 0.20468 -0.06400
C 	C 	0.25734 0.44768 0.18045 0.02000
C 	C 	0.24159 0.47157 0.13525 -0.06100
C 	C 	0.21458 0.41261 0.11444 0.01900
C 	C 	0.19825 0.32694 0.13829 -0.09300
C 	C 	0.22344 0.30739 0.18371 0.01300
H 	H 	0.26731 0.34923 0.23975 0.04300
H 	H 	0.25185 0.53662 0.11631 0.05100
H 	H 	0.19760 0.42966 0.07936 0.03600
H 	H 	0.21465 0.24303 0.20268 0.03200
C 	C 	0.54299 0.77821 0.16274 -0.05800
C 	C 	0.54427 0.72286 0.20525 0.02300
C 	C 	0.61881 0.71394 0.22795 -0.06300
C 	C 	0.69007 0.75838 0.20808 0.02000
C 	C 	0.68937 0.81476 0.16586 -0.08900
C 	C 	0.61441 0.82280 0.14303 0.02000
H 	H 	0.48455 0.78376 0.14440 0.05300
H 	H 	0.61977 0.67011 0.26045 0.04400
H 	H 	0.74838 0.75264 0.22625 0.02200
H 	H 	0.61393 0.86732 0.11068 0.04300
C 	C 	0.30997 0.77330 0.18169 -0.05200
C 	C 	0.26696 0.67853 0.20000 0.01900
C 	C 	0.17771 0.62285 0.20865 -0.05500
C 	C 	0.12789 0.65936 0.19446 0.01500
C 	C 	0.16790 0.75236 0.17267 -0.07500
C 	C 	0.26235 0.81025 0.17020 0.01000
H 	H 	0.37821 0.81776 0.17435 0.05100
H 	H 	0.14520 0.55067 0.22467 0.04900
H 	H 	0.05571 0.61397 0.19758 0.03900
H 	H 	0.29594 0.88292 0.15550 0.05600
C 	C 	0.61856 0.05557 0.57854 -0.25300
C 	C 	0.66085 0.14393 0.55092 0.10200
C 	C 	0.71911 0.17180 0.52764 -0.15000
C 	C 	0.74157 0.11503 0.53475 0.11900
C 	C 	0.70635 0.03003 0.56546 -0.33700
C 	C 	0.64058 0.99851 0.58549 0.28200
H 	H 	0.57194 0.03269 0.59602 0.06200
H 	H 	0.75005 0.23897 0.50535 0.06000
H 	H 	0.79124 0.13977 0.51853 -0.01300
H 	H 	0.61051 0.93185 0.60824 -0.02000
C 	C 	0.85662 0.51229 0.53969 -0.06500
C 	C 	0.80101 0.44231 0.56990 0.01600
C 	C 	0.81052 0.46370 0.60405 -0.06500
C 	C 	0.86703 0.55518 0.60515 0.00600
C 	C 	0.91532 0.62583 0.57234 -0.08200
C 	C 	0.91322 0.60372 0.54075 0.00500
H 	H 	0.85074 0.49630 0.51355 0.04000
H 	H 	0.76918 0.40978 0.62806 0.03900
H 	H 	0.87121 0.57106 0.63080 0.03100
H 	H 	0.95199 0.65751 0.51583 0.02300
C 	C 	0.42067 0.21762 0.55106 -0.07100
C 	C 	0.45445 0.22812 0.52121 0.02100
C 	C 	0.39879 0.21912 0.47914 -0.07000
C 	C 	0.30702 0.19258 0.46808 0.01400
C 	C 	0.26976 0.17309 0.49932 -0.10400
C 	C 	0.32915 0.19151 0.53996 0.02100
H 	H 	0.46432 0.22686 0.58331 0.04000
H 	H 	0.42578 0.23048 0.45539 0.04200
H 	H 	0.26278 0.18136 0.43613 0.02600
H 	H 	0.30205 0.17858 0.56413 0.02400
C 	C 	0.85915 0.33099 0.00873 -0.08100
C 	C 	0.76737 0.29525 0.98194 0.02900
C 	C 	0.72266 0.22100 0.96589 -0.07500
C 	C 	0.76349 0.17531 0.98133 0.02600
C 	C 	0.85099 0.20585 0.01146 -0.10900
C 	C 	0.90152 0.28769 0.02251 0.01300
H 	H 	0.89526 0.38858 0.02115 0.03700
H 	H 	0.65348 0.19492 0.94378 0.04100
H 	H 	0.72460 0.11321 0.97185 0.01400
H 	H 	0.97068 0.31379 0.04455 0.01900
C 	C 	0.74137 0.59123 0.96096 -0.07200
C 	C 	0.75556 0.52236 0.98560 0.03000
C 	C 	0.79686 0.51483 0.03021 -0.08000
C 	C 	0.82677 0.57750 0.04953 0.01700
C 	C 	0.81977 0.65087 0.02419 -0.10400
C 	C 	0.77166 0.65405 0.98034 0.03000
H 	H 	0.70563 0.59522 0.92694 0.04800
H 	H 	0.80377 0.45903 0.05007 0.04100
H 	H 	0.86273 0.57354 0.08353 0.02200
H 	H 	0.76464 0.70978 0.96048 0.03300
C 	C 	0.50087 0.25298 0.03518 -0.05300
C 	C 	0.49615 0.22472 0.00523 -0.01100
C 	C 	0.42010 0.13713 0.99817 -0.03700
C 	C 	0.34942 0.07840 0.02065 -0.01800
C 	C 	0.35152 0.10845 0.04878 -0.07500
C 	C 	0.42775 0.19579 0.05610 -0.00300
H 	H 	0.56119 0.31934 0.04214 0.04000
H 	H 	0.41594 0.11444 0.97539 0.03000
H 	H 	0.29256 0.00969 0.01597 -0.00000
H 	H 	0.43119 0.21877 0.07849 0.03400
