data_crystal

_cell_length_a 26.09929
_cell_length_b 26.21289
_cell_length_c 34.35760
_cell_angle_alpha 95.50958
_cell_angle_beta  95.50889
_cell_angle_gamma 125.78709

_symmetry_space_group_name_	'P 1'
_symmetry_space_group_name_H-M	'P 1'

loop_
_symmetry_equiv_pos_as_xyz
  x,y,z

loop_
_atom_site_label
_atom_site_type_symbol
_atom_site_fract_x
_atom_site_fract_y
_atom_site_fract_z
_atom_site_charge
N 	N 	0.03448 0.06379 0.99925 -0.13300
C 	C 	0.06326 0.03417 0.99915 0.11400
N 	N 	0.02701 0.96955 0.99540 -0.13400
N 	N 	0.00056 0.03842 0.45245 -0.13500
C 	C 	0.03060 0.01030 0.45519 0.11200
N 	N 	0.99655 0.94776 0.45831 -0.13900
H 	H 	0.97247 0.19688 0.40414 0.04100
H 	H 	0.97008 0.10553 0.41791 0.05000
C 	C 	0.96950 0.02863 0.99582 0.10300
C 	C 	0.96222 0.93432 0.99176 0.10600
N 	N 	0.93355 0.96392 0.99196 -0.13500
C 	C 	0.93654 0.00413 0.45283 0.10300
C 	C 	0.93293 0.91337 0.45945 0.10900
N 	N 	0.90272 0.94145 0.45645 -0.13600
Cu	Cu	0.63779 0.23388 0.00150 0.92600
Cu	Cu	0.66321 0.22993 0.91015 0.86900
Cu	Cu	0.66893 0.33795 0.95363 0.89800
Cu	Cu	0.65883 0.36049 0.03890 0.89300
C 	C 	0.68311 0.28424 0.08549 0.28600
O 	O 	0.55004 0.20478 0.01160 -0.36200
C 	C 	0.63294 0.29731 0.86531 0.28400
O 	O 	0.69624 0.33408 0.00625 -0.64300
O 	O 	0.61806 0.24271 0.94666 -0.64000
O 	O 	0.66756 0.18057 0.98894 -0.37200
O 	O 	0.73024 0.24247 0.94723 -0.43800
O 	O 	0.65711 0.31476 0.08267 -0.38400
O 	O 	0.72367 0.43035 0.96352 -0.38300
C 	C 	0.72479 0.46779 0.99280 0.28800
C 	C 	0.52714 0.23662 0.00332 0.27000
O 	O 	0.56637 0.29636 0.99891 -0.38600
O 	O 	0.69713 0.44604 0.02373 -0.39600
O 	O 	0.67089 0.24081 0.05554 -0.36000
C 	C 	0.71730 0.20219 0.97139 0.27800
O 	O 	0.65404 0.34242 0.89689 -0.37900
O 	O 	0.61813 0.24077 0.86885 -0.42000
H 	H 	0.74333 0.35794 0.01429 0.16300
H 	H 	0.57180 0.21985 0.93580 0.17300
Cu	Cu	0.73922 0.34448 0.45378 0.92700
Cu	Cu	0.73459 0.30591 0.54201 0.87000
Cu	Cu	0.62853 0.30241 0.49779 0.89800
Cu	Cu	0.61366 0.32490 0.41486 0.89400
C 	C 	0.70478 0.32269 0.36843 0.29000
O 	O 	0.76785 0.43429 0.44961 -0.35900
C 	C 	0.66264 0.33007 0.58646 0.28500
O 	O 	0.63848 0.28402 0.44485 -0.64000
O 	O 	0.72438 0.35515 0.50826 -0.64300
O 	O 	0.79082 0.31165 0.46435 -0.37200
O 	O 	0.72332 0.24352 0.50194 -0.44000
O 	O 	0.66797 0.34129 0.37333 -0.38300
O 	O 	0.53598 0.24674 0.48429 -0.38400
C 	C 	0.50038 0.24945 0.45572 0.28300
C 	C 	0.73287 0.45343 0.45853 0.27300
O 	O 	0.67201 0.41105 0.46014 -0.39200
O 	O 	0.52388 0.27817 0.42541 -0.39100
O 	O 	0.73745 0.32019 0.39905 -0.36300
C 	C 	0.76653 0.25937 0.47947 0.27700
O 	O 	0.61787 0.30653 0.55412 -0.38100
O 	O 	0.72017 0.34577 0.58430 -0.42000
H 	H 	0.61590 0.23794 0.43425 0.16700
H 	H 	0.74563 0.39998 0.52141 0.17200
C 	C 	0.62053 0.28039 0.68706 -0.00100
C 	C 	0.58899 0.25050 0.71759 -0.05700
C 	C 	0.62114 0.28234 0.75686 0.01300
C 	C 	0.67972 0.34364 0.76452 -0.00200
C 	C 	0.70598 0.37723 0.73391 -0.05700
C 	C 	0.67667 0.34335 0.69467 0.01300
S 	S 	0.58805 0.26107 0.63922 0.00800
C 	C 	0.64489 0.32979 0.62571 -0.07400
C 	C 	0.69096 0.37128 0.66026 -0.02300
S 	S 	0.69478 0.37532 0.81208 0.01000
C 	C 	0.63005 0.31219 0.82541 -0.07400
C 	C 	0.59324 0.26408 0.79107 -0.02400
H 	H 	0.54135 0.20526 0.71112 0.04300
H 	H 	0.74651 0.42750 0.74027 0.04400
H 	H 	0.73489 0.41791 0.66004 0.03900
H 	H 	0.55009 0.21685 0.79126 0.04000
C 	C 	0.72984 0.34552 0.26036 -0.00100
C 	C 	0.75851 0.37030 0.22793 -0.05500
C 	C 	0.74423 0.32678 0.19395 0.01600
C 	C 	0.70681 0.26075 0.19423 -0.00200
C 	C 	0.67843 0.23611 0.22691 -0.05500
C 	C 	0.69248 0.27978 0.26072 0.01600
S 	S 	0.75733 0.38469 0.30713 0.02400
C 	C 	0.72247 0.32098 0.32946 -0.07000
C 	C 	0.68703 0.26572 0.29962 -0.02500
S 	S 	0.67599 0.22201 0.14728 0.02700
C 	C 	0.71098 0.28583 0.12512 -0.07300
C 	C 	0.74659 0.34094 0.15506 -0.02400
H 	H 	0.78847 0.42139 0.22841 0.04400
H 	H 	0.64791 0.18502 0.22639 0.04500
H 	H 	0.65819 0.21754 0.30566 0.03500
H 	H 	0.76470 0.38812 0.14926 0.03200
C 	C 	0.71629 0.62154 0.42247 -0.03700
C 	C 	0.74379 0.68632 0.42316 -0.05100
C 	C 	0.80575 0.73417 0.44526 0.03400
C 	C 	0.83974 0.71669 0.46750 -0.02300
C 	C 	0.81237 0.65148 0.46643 0.00000
C 	C 	0.75055 0.60376 0.44370 0.01000
C 	C 	0.84741 0.63403 0.48746 0.01000
C 	C 	0.90868 0.68186 0.51036 -0.03700
C 	C 	0.93556 0.74659 0.51175 -0.05100
C 	C 	0.90173 0.76434 0.49000 0.03300
C 	C 	0.93002 0.82905 0.48947 -0.06000
C 	C 	0.89783 0.84654 0.46558 0.00600
C 	C 	0.83497 0.79916 0.44441 -0.06100
C 	C 	0.72422 0.53891 0.44191 -0.02200
C 	C 	0.75969 0.52148 0.46208 -0.06300
C 	C 	0.82106 0.56902 0.48494 -0.02300
H 	H 	0.66861 0.58522 0.40507 0.03600
H 	H 	0.71706 0.69918 0.40620 0.04200
H 	H 	0.93576 0.66899 0.52690 0.03600
H 	H 	0.98312 0.78291 0.52931 0.04000
H 	H 	0.97789 0.86576 0.50661 0.04900
H 	H 	0.80994 0.81261 0.42618 0.05100
H 	H 	0.67687 0.50205 0.42421 0.03400
H 	H 	0.84807 0.55540 0.50074 0.03600
C 	C 	0.90994 0.21789 0.42402 -0.03800
C 	C 	0.93292 0.18132 0.41974 -0.05100
C 	C 	0.90559 0.12548 0.43600 0.03400
C 	C 	0.85390 0.10554 0.45597 -0.02400
C 	C 	0.83051 0.14216 0.46009 -0.00100
C 	C 	0.85914 0.19896 0.44448 0.01000
C 	C 	0.77928 0.12255 0.48044 0.00800
C 	C 	0.75115 0.06606 0.49604 -0.03700
C 	C 	0.77462 0.02995 0.49218 -0.05500
C 	C 	0.82637 0.04969 0.47254 0.03500
C 	C 	0.85191 0.01514 0.47013 -0.06500
C 	C 	0.90479 0.03600 0.45128 0.00800
C 	C 	0.93033 0.09023 0.43332 -0.06200
C 	C 	0.83734 0.23666 0.45007 -0.02500
C 	C 	0.78708 0.21788 0.47114 -0.06700
C 	C 	0.75746 0.16011 0.48559 -0.02800
H 	H 	0.93202 0.26118 0.41167 0.03800
H 	H 	0.71147 0.05040 0.51153 0.03400
H 	H 	0.75284 0.98691 0.50478 0.04300
H 	H 	0.83197 0.97331 0.48390 0.05400
H 	H 	0.85994 0.28076 0.43855 0.04900
H 	H 	0.71805 0.14486 0.50130 0.03800
C 	C 	0.23852 0.05211 0.50199 -0.05100
C 	C 	0.30406 0.08476 0.50149 -0.03700
C 	C 	0.33463 0.13316 0.47891 0.01100
C 	C 	0.29907 0.14902 0.45677 -0.00100
C 	C 	0.23298 0.11595 0.45716 -0.02200
C 	C 	0.20264 0.06726 0.47981 0.03400
C 	C 	0.19719 0.13130 0.43470 0.03400
C 	C 	0.22789 0.18003 0.41233 -0.05100
C 	C 	0.29364 0.21310 0.41210 -0.03700
C 	C 	0.32950 0.19775 0.43416 0.01100
C 	C 	0.39537 0.23051 0.43386 -0.02500
C 	C 	0.43090 0.21457 0.45577 -0.06000
C 	C 	0.40024 0.16576 0.47817 -0.02400
C 	C 	0.13674 0.03396 0.47975 -0.06200
C 	C 	0.10061 0.04823 0.45680 0.00600
C 	C 	0.13106 0.09731 0.43460 -0.06000
H 	H 	0.21561 0.01481 0.51953 0.04100
H 	H 	0.33103 0.07234 0.51867 0.03700
H 	H 	0.20086 0.19227 0.39504 0.04200
H 	H 	0.31659 0.25053 0.39467 0.03700
H 	H 	0.41902 0.26858 0.41690 0.04300
H 	H 	0.42735 0.15297 0.49482 0.04700
H 	H 	0.11347 0.99686 0.49743 0.05300
H 	H 	0.10315 0.10821 0.41680 0.05100
C 	C 	0.78377 0.73511 0.02734 -0.05100
C 	C 	0.75099 0.66982 0.02790 -0.03700
C 	C 	0.77019 0.63540 0.00881 0.00800
C 	C 	0.82230 0.66671 0.98863 0.00300
C 	C 	0.85523 0.73241 0.98801 -0.02000
C 	C 	0.83614 0.76681 0.00765 0.03100
C 	C 	0.90775 0.76386 0.96816 0.03400
C 	C 	0.92650 0.72928 0.94870 -0.05100
C 	C 	0.89382 0.66403 0.94934 -0.03700
C 	C 	0.84190 0.63250 0.96940 0.01100
C 	C 	0.80971 0.56736 0.97072 -0.02300
C 	C 	0.75804 0.53613 0.99107 -0.05800
C 	C 	0.73817 0.57020 0.00986 -0.02800
C 	C 	0.87027 0.83264 0.00792 -0.06500
C 	C 	0.92344 0.86433 0.98884 0.01100
C 	C 	0.94143 0.82962 0.96850 -0.06200
H 	H 	0.76860 0.76107 0.04241 0.04100
H 	H 	0.71085 0.64613 0.04337 0.03700
H 	H 	0.96667 0.75299 0.93326 0.04100
H 	H 	0.90909 0.63811 0.93435 0.03700
H 	H 	0.82526 0.54119 0.95639 0.04400
H 	H 	0.69774 0.54592 0.02509 0.04300
H 	H 	0.85652 0.85948 0.02371 0.05000
H 	H 	0.98184 0.85393 0.95325 0.05200
C 	C 	0.76044 0.06153 0.02790 -0.03600
C 	C 	0.79630 0.03770 0.03168 -0.05400
C 	C 	0.85048 0.06245 0.01370 0.03300
C 	C 	0.86948 0.11239 0.99242 -0.02100
C 	C 	0.83337 0.13640 0.98863 0.00200
C 	C 	0.77831 0.11045 0.00613 0.00700
C 	C 	0.85171 0.18558 0.96678 0.00900
C 	C 	0.90661 0.21116 0.94944 -0.03800
C 	C 	0.94242 0.18724 0.95314 -0.05200
C 	C 	0.92384 0.13749 0.97427 0.03400
C 	C 	0.95803 0.11152 0.97670 -0.06300
C 	C 	0.93796 0.06043 0.99688 0.01200
C 	C 	0.88503 0.03695 0.01603 -0.06800
C 	C 	0.74121 0.13297 0.00112 -0.02900
C 	C 	0.75854 0.18107 0.97858 -0.06300
C 	C 	0.81444 0.20792 0.96200 -0.02800
H 	H 	0.71844 0.04152 0.04167 0.03800
H 	H 	0.78154 0.99957 0.04829 0.04300
H 	H 	0.92132 0.24922 0.93277 0.03400
H 	H 	0.98429 0.20710 0.93927 0.04000
H 	H 	0.99891 0.12967 0.96197 0.05000
H 	H 	0.87030 0.99830 0.03221 0.05200
H 	H 	0.69853 0.11252 0.01426 0.04900
H 	H 	0.82854 0.24563 0.94509 0.03800
C 	C 	0.26346 0.06733 0.05452 -0.05000
C 	C 	0.32778 0.09344 0.05371 -0.03800
C 	C 	0.36104 0.13734 0.02882 0.01200
C 	C 	0.32959 0.15573 0.00491 -0.00600
C 	C 	0.26476 0.12937 0.00570 -0.02400
C 	C 	0.23150 0.08465 0.03038 0.03200
C 	C 	0.23287 0.14684 0.98127 0.03500
C 	C 	0.26643 0.19145 0.95679 -0.05000
C 	C 	0.33097 0.21789 0.95616 -0.03900
C 	C 	0.36276 0.20002 0.97997 0.01500
C 	C 	0.42724 0.22576 0.97909 -0.02400
C 	C 	0.45863 0.20742 0.00290 -0.06600
C 	C 	0.42532 0.16309 0.02760 -0.02600
C 	C 	0.16628 0.05653 0.02983 -0.05800
C 	C 	0.13370 0.07183 0.00434 -0.00300
C 	C 	0.16740 0.11817 0.98085 -0.05400
H 	H 	0.23835 0.03318 0.07370 0.04200
H 	H 	0.35164 0.07927 0.07234 0.03900
H 	H 	0.24248 0.20537 0.93802 0.04200
H 	H 	0.35609 0.25205 0.93699 0.03800
H 	H 	0.45288 0.25975 0.95989 0.04100
H 	H 	0.44976 0.14951 0.04629 0.04800
H 	H 	0.14035 0.02148 0.04840 0.05000
H 	H 	0.14219 0.13003 0.96127 0.04900
