data_crystal

_cell_length_a 15.73977
_cell_length_b 15.97514
_cell_length_c 35.22228
_cell_angle_alpha 95.39957
_cell_angle_beta  95.40023
_cell_angle_gamma 126.72569

_symmetry_space_group_name_	'P 1'
_symmetry_space_group_name_H-M	'P 1'

loop_
_symmetry_equiv_pos_as_xyz
  x,y,z

loop_
_atom_site_label
_atom_site_type_symbol
_atom_site_fract_x
_atom_site_fract_y
_atom_site_fract_z
_atom_site_charge
C 	C 	0.06615 0.10258 0.50141 -0.06000
C 	C 	0.04448 0.93824 0.49934 -0.05900
C 	C 	0.03999 0.02009 0.96003 -0.00500
H 	H 	0.02927 0.88007 0.96175 0.04400
H 	H 	0.02900 0.14763 0.95838 0.04500
H 	H 	0.07832 0.89569 0.49801 0.04800
H 	H 	0.11670 0.18722 0.50137 0.04500
C 	C 	0.11051 0.04732 0.49998 0.00900
C 	C 	0.98591 0.91325 0.96192 -0.04200
C 	C 	0.98564 0.06414 0.95987 -0.04300
C 	C 	0.87704 0.00270 0.96328 0.00400
C 	C 	0.82169 0.89390 0.96623 -0.05100
C 	C 	0.87760 0.84940 0.96528 0.00600
H 	H 	0.73790 0.84554 0.96940 0.04500
C 	C 	0.95507 0.04636 0.50255 0.01000
C 	C 	0.93522 0.88321 0.50007 0.01200
C 	C 	0.89058 0.93685 0.50208 -0.05500
H 	H 	0.80519 0.89307 0.50257 0.04800
Cu	Cu	0.75155 0.34916 0.96010 0.92300
Cu	Cu	0.73229 0.25943 0.04185 0.86500
Cu	Cu	0.57646 0.28964 0.00767 0.89200
Cu	Cu	0.55044 0.33931 0.92882 0.89800
C 	C 	0.68215 0.32178 0.87787 0.29600
O 	O 	0.81076 0.50684 0.96136 -0.35200
C 	C 	0.64290 0.32191 0.09338 0.29500
O 	O 	0.58290 0.26027 0.95402 -0.63300
O 	O 	0.73398 0.36012 0.01472 -0.64800
O 	O 	0.81662 0.27069 0.96374 -0.36300
O 	O 	0.69530 0.15606 0.99853 -0.43500
O 	O 	0.63634 0.36636 0.88692 -0.38800
O 	O 	0.42196 0.21265 0.99784 -0.37900
C 	C 	0.36323 0.20540 0.96648 0.31300
C 	C 	0.75590 0.54103 0.97196 0.29100
O 	O 	0.65600 0.47200 0.97584 -0.39400
O 	O 	0.40629 0.27137 0.94206 -0.39700
O 	O 	0.74209 0.31661 0.90501 -0.36400
C 	C 	0.76471 0.17853 0.97579 0.29400
O 	O 	0.56776 0.29586 0.06370 -0.38700
O 	O 	0.72825 0.32833 0.08808 -0.42400
H 	H 	0.53784 0.18368 0.94242 0.16100
H 	H 	0.77896 0.43358 0.02987 0.16900
Cu	Cu	0.62309 0.19063 0.50998 0.92400
Cu	Cu	0.70586 0.19605 0.42728 0.87000
Cu	Cu	0.67924 0.35544 0.45890 0.89700
Cu	Cu	0.62884 0.38691 0.53711 0.89700
C 	C 	0.64591 0.26097 0.59164 0.29900
O 	O 	0.46421 0.12904 0.50958 -0.36400
C 	C 	0.64291 0.28014 0.37373 0.29500
O 	O 	0.71091 0.35548 0.51317 -0.63700
O 	O 	0.60726 0.20035 0.45454 -0.64200
O 	O 	0.69836 0.12328 0.50756 -0.36900
O 	O 	0.81208 0.23564 0.47054 -0.44100
O 	O 	0.60651 0.31108 0.58176 -0.38900
O 	O 	0.75651 0.50744 0.46675 -0.38400
C 	C 	0.75601 0.56588 0.49574 0.31300
C 	C 	0.42594 0.17803 0.49700 0.29600
O 	O 	0.49277 0.27524 0.49141 -0.40000
O 	O 	0.68879 0.52354 0.52009 -0.39800
O 	O 	0.66077 0.20845 0.56528 -0.36600
C 	C 	0.78957 0.16973 0.49435 0.30000
O 	O 	0.67353 0.35847 0.40234 -0.38300
O 	O 	0.63323 0.19556 0.38078 -0.42200
H 	H 	0.78878 0.40177 0.52475 0.16400
H 	H 	0.53193 0.15480 0.44003 0.17200
C 	C 	0.69275 0.30714 0.83692 -0.10500
C 	C 	0.65474 0.20672 0.81626 0.12100
C 	C 	0.65608 0.19398 0.77628 -0.09600
C 	C 	0.69167 0.27848 0.75645 -0.00100
C 	C 	0.73196 0.37943 0.77730 0.06000
C 	C 	0.73379 0.39300 0.81744 -0.02300
N 	N 	0.61451 0.12180 0.83425 -0.20400
H 	H 	0.62600 0.11702 0.76029 0.05500
C 	C 	0.67745 0.25784 0.71339 0.00100
N 	N 	0.76741 0.46310 0.75897 -0.19200
H 	H 	0.76454 0.47023 0.83341 0.04700
C 	C 	0.57557 0.21058 0.69100 -0.09900
C 	C 	0.56156 0.20123 0.65044 0.12900
C 	C 	0.65252 0.24561 0.63225 -0.10900
C 	C 	0.75289 0.28603 0.65424 -0.02500
C 	C 	0.76590 0.29087 0.69469 0.05800
H 	H 	0.50705 0.18162 0.70522 0.05600
N 	N 	0.46061 0.14774 0.62909 -0.20400
H 	H 	0.82177 0.31664 0.64010 0.04000
N 	N 	0.86340 0.32850 0.71535 -0.19200
H 	H 	0.39451 0.11932 0.64280 0.08500
H 	H 	0.44599 0.12913 0.59882 0.10200
H 	H 	0.92900 0.35544 0.70149 0.08300
H 	H 	0.87440 0.32895 0.74508 0.08900
H 	H 	0.79729 0.53727 0.77468 0.08300
H 	H 	0.76522 0.45562 0.72908 0.08700
H 	H 	0.60867 0.12715 0.86351 0.08800
H 	H 	0.58728 0.04834 0.81876 0.08400
C 	C 	0.63665 0.29519 0.33295 -0.11200
C 	C 	0.57253 0.32328 0.31713 0.12600
C 	C 	0.57127 0.33854 0.27840 -0.09900
C 	C 	0.62665 0.31917 0.25457 0.00100
C 	C 	0.68948 0.28973 0.27025 0.05600
C 	C 	0.69486 0.27945 0.30938 -0.02300
N 	N 	0.50893 0.33152 0.33824 -0.20300
H 	H 	0.52328 0.36110 0.26630 0.05400
C 	C 	0.61566 0.32663 0.21287 -0.00000
N 	N 	0.74443 0.27081 0.24793 -0.19200
H 	H 	0.74430 0.25849 0.32151 0.02900
C 	C 	0.69553 0.42091 0.20116 -0.09900
C 	C 	0.70033 0.42399 0.16159 0.12400
C 	C 	0.62416 0.33073 0.13340 -0.11300
C 	C 	0.53819 0.23981 0.14489 -0.02600
C 	C 	0.53327 0.23657 0.18443 0.05600
H 	H 	0.75645 0.49091 0.22293 0.05500
N 	N 	0.77749 0.51663 0.15086 -0.20400
H 	H 	0.47795 0.16941 0.12314 0.03600
N 	N 	0.45071 0.14629 0.19485 -0.19200
H 	H 	0.83567 0.58430 0.17187 0.08100
H 	H 	0.77807 0.52343 0.12167 0.08500
H 	H 	0.39164 0.07944 0.17370 0.07800
H 	H 	0.44311 0.14202 0.22386 0.08500
H 	H 	0.79061 0.24921 0.25981 0.07600
H 	H 	0.74183 0.27688 0.21866 0.08400
H 	H 	0.49781 0.30856 0.36522 0.09000
H 	H 	0.46538 0.35637 0.32683 0.08200
C 	C 	0.86893 0.77097 0.49822 0.04200
C 	C 	0.81664 0.67701 0.49681 -0.10900
C 	C 	0.90408 0.09778 0.50140 0.03500
C 	C 	0.85320 0.13220 0.49922 -0.11200
C 	C 	0.31564 0.13552 0.49789 -0.10900
C 	C 	0.22330 0.10030 0.49885 0.03400
C 	C 	0.79527 0.64913 0.97021 -0.10000
C 	C 	0.82687 0.73897 0.96826 0.03500
C 	C 	0.82707 0.05559 0.96644 0.03500
C 	C 	0.79702 0.11035 0.96977 -0.10600
C 	C 	0.24952 0.14095 0.96367 -0.11200
C 	C 	0.15378 0.08656 0.96161 0.04800
