data_crystal

_cell_length_a 19.97194
_cell_length_b 21.66826
_cell_length_c 31.23485
_cell_angle_alpha 60.82677
_cell_angle_beta  118.91411
_cell_angle_gamma 133.32688

_symmetry_space_group_name_	'P 1'
_symmetry_space_group_name_H-M	'P 1'

loop_
_symmetry_equiv_pos_as_xyz
  x,y,z

loop_
_atom_site_label
_atom_site_type_symbol
_atom_site_fract_x
_atom_site_fract_y
_atom_site_fract_z
_atom_site_charge
O 	O 	0.00418 0.88655 0.49184 -0.32500
N 	N 	0.00946 0.31208 0.98414 -0.03200
O 	O 	0.01533 0.08131 0.72796 -0.36500
N 	N 	0.00425 0.50843 0.08889 -0.04700
H 	H 	0.01259 0.87764 0.93319 0.10900
C 	C 	0.02751 0.93680 0.90360 -0.03600
C 	C 	0.02566 0.94280 0.85591 0.38100
O 	O 	0.01981 0.10997 0.52499 -0.41900
C 	C 	0.03044 0.02399 0.76368 0.28500
C 	C 	0.00753 0.61238 0.23339 0.17100
O 	O 	0.03260 0.97285 0.75221 -0.26000
C 	C 	0.03250 0.71022 0.05248 0.16200
O 	O 	0.03661 0.02182 0.98213 -0.33400
C 	C 	0.04282 0.22307 0.62170 0.36600
Co	Co	0.04362 0.89167 0.63310 1.20200
O 	O 	0.04015 0.00459 0.61571 -0.57800
C 	C 	0.04592 0.96980 0.34761 0.41200
O 	O 	0.00109 0.86049 0.69285 -0.39800
F 	F 	0.00089 0.87304 0.84737 -0.41000
N 	N 	0.04496 0.44730 0.27744 -0.08700
C 	C 	0.04901 0.02045 0.81754 -0.14300
Co	Co	0.07409 0.02453 0.05784 1.17600
Co	Co	0.98385 0.07622 0.08937 1.16100
Co	Co	0.11192 0.89632 0.06422 1.18500
O 	O 	0.06407 0.11951 0.04538 -0.42600
C 	C 	0.05293 0.20698 0.13691 0.37200
C 	C 	0.11128 0.79471 0.17092 0.30100
O 	O 	0.14142 0.99661 0.99954 -0.33900
O 	O 	0.96259 0.16999 0.12663 -0.45500
O 	O 	0.08120 0.17392 0.12901 -0.37000
O 	O 	0.08823 0.79031 0.12542 -0.38000
O 	O 	0.08890 0.83203 0.17955 -0.34400
O 	O 	0.04802 0.92379 0.08232 -0.70900
C 	C 	0.96332 0.97518 0.25557 0.39400
Co	Co	0.05445 0.03135 0.53929 1.17800
Co	Co	0.98077 0.08158 0.58536 1.15500
Co	Co	0.12460 0.92514 0.54868 1.18200
C 	C 	0.22439 0.91149 0.65356 0.29500
O 	O 	0.95591 0.17055 0.62725 -0.45400
O 	O 	0.07013 0.20160 0.60319 -0.36300
O 	O 	0.23634 0.96573 0.60911 -0.36800
O 	O 	0.16532 0.89254 0.67401 -0.34200
O 	O 	0.07214 0.95279 0.57590 -0.71300
C 	C 	0.07259 0.08428 0.87499 0.34800
C 	C 	0.07318 0.09125 0.82791 -0.08700
H 	H 	0.09021 0.15136 0.79895 0.10600
F 	F 	0.09543 0.15334 0.88330 -0.42100
C 	C 	0.05690 0.97429 0.39436 -0.03900
H 	H 	0.12025 0.98545 0.42363 0.09700
F 	F 	0.11652 0.98349 0.33943 -0.41200
C 	C 	0.10668 0.30997 0.63221 -0.09000
C 	C 	0.10009 0.37826 0.59541 0.03700
C 	C 	0.12644 0.44595 0.61024 -0.03500
C 	C 	0.07653 0.38399 0.54253 0.10000
C 	C 	0.11604 0.51416 0.57269 0.11200
N 	N 	0.10766 0.56863 0.54273 -0.09100
C 	C 	0.25591 0.85428 0.67288 -0.05800
C 	C 	0.31281 0.87369 0.64739 -0.01100
C 	C 	0.38582 0.96377 0.62788 0.15500
N 	N 	0.44418 0.03560 0.61225 -0.14900
N 	N 	0.35751 0.83148 0.57220 -0.08900
C 	C 	0.14813 0.36821 0.12147 0.03500
C 	C 	0.12132 0.28685 0.15620 -0.09000
C 	C 	0.17803 0.39144 0.07880 0.09500
N 	N 	0.20327 0.41068 0.04501 -0.08700
N 	N 	0.16192 0.16799 0.27964 -0.08000
C 	C 	0.15736 0.75237 0.21176 -0.05100
N 	N 	0.93285 0.57442 0.23830 -0.15300
N 	N 	0.58870 0.94084 0.61380 -0.05800
N 	N 	0.96304 0.58535 0.71805 -0.11100
N 	N 	0.11172 0.76523 0.05210 -0.13800
C 	C 	0.72853 0.28644 0.03189 0.04800
C 	C 	0.67062 0.22676 0.06685 -0.07900
C 	C 	0.64687 0.25567 0.08514 0.04200
C 	C 	0.70295 0.34434 0.08203 -0.07900
C 	C 	0.75414 0.40479 0.04482 0.05100
C 	C 	0.76461 0.37566 0.01804 -0.09100
H 	H 	0.63667 0.15737 0.07570 0.05400
H 	H 	0.69336 0.36617 0.10201 0.06300
H 	H 	0.79731 0.42079 0.98629 0.08400
C 	C 	0.74764 0.31030 0.53248 0.03800
C 	C 	0.81623 0.39189 0.54579 -0.06400
C 	C 	0.78669 0.43758 0.54328 0.04100
C 	C 	0.69044 0.40132 0.52828 -0.06600
C 	C 	0.62302 0.31924 0.51800 0.04200
C 	C 	0.65138 0.27645 0.51680 -0.06400
H 	H 	0.89052 0.41816 0.55889 0.05100
H 	H 	0.66751 0.43477 0.52794 0.06500
H 	H 	0.59817 0.21297 0.50802 0.06300
C 	C 	0.25085 0.61285 0.22109 0.04500
C 	C 	0.18774 0.53895 0.20017 -0.06200
C 	C 	0.22206 0.49852 0.20114 0.04200
C 	C 	0.31814 0.53447 0.21995 -0.06900
C 	C 	0.38143 0.61467 0.23207 0.04400
C 	C 	0.34737 0.64593 0.24035 -0.06600
H 	H 	0.11405 0.51377 0.18345 0.07600
H 	H 	0.34512 0.50617 0.21834 0.06500
H 	H 	0.39686 0.70015 0.25801 0.07100
C 	C 	0.28287 0.66338 0.68681 0.04600
C 	C 	0.37827 0.69528 0.70094 -0.06500
C 	C 	0.40251 0.65054 0.69801 0.04500
C 	C 	0.33207 0.56881 0.68728 -0.06700
C 	C 	0.23668 0.53413 0.67472 0.04400
C 	C 	0.21131 0.58172 0.67390 -0.06300
H 	H 	0.43372 0.75848 0.71005 0.07000
H 	H 	0.35166 0.53388 0.68600 0.06400
H 	H 	0.13756 0.55674 0.66232 0.07600
Co	Co	0.91468 0.90971 0.16804 1.19600
Co	Co	0.98272 0.84769 0.12610 1.16400
C 	C 	0.27010 0.06539 0.09237 0.23800
Co	Co	0.86903 0.03769 0.15639 1.15900
C 	C 	0.91403 0.74292 0.05426 0.27800
O 	O 	0.78038 0.02848 0.08543 -0.39700
O 	O 	0.92370 0.00343 0.13569 -0.78800
C 	C 	0.81570 0.08762 0.04562 0.29500
O 	O 	0.91829 0.81144 0.17735 -0.45200
C 	C 	0.73080 0.84014 0.17803 0.31400
O 	O 	0.96341 0.95360 0.09976 -0.57300
C 	C 	0.07702 0.00862 0.96712 0.30400
O 	O 	0.88244 0.09939 0.03589 -0.38400
O 	O 	0.77309 0.91067 0.19105 -0.38100
O 	O 	0.77019 0.83648 0.15641 -0.37400
O 	O 	0.96656 0.04492 0.22440 -0.45400
O 	O 	0.97293 0.93228 0.24155 -0.36600
O 	O 	0.23948 0.98361 0.10387 -0.33300
O 	O 	0.21836 0.08471 0.09084 -0.37800
O 	O 	0.97555 0.81490 0.02759 -0.41400
O 	O 	0.89492 0.74504 0.08936 -0.37000
Co	Co	0.97285 0.94313 0.68007 1.17900
C 	C 	0.23540 0.11905 0.51670 0.31400
Co	Co	0.89598 0.04206 0.67078 1.14200
C 	C 	0.97327 0.74787 0.59604 0.23500
O 	O 	0.78474 0.99971 0.61055 -0.33000
O 	O 	0.95990 0.02471 0.64472 -0.79700
C 	C 	0.79662 0.05373 0.56627 0.24600
C 	C 	0.78777 0.84910 0.69804 0.31500
C 	C 	0.98903 0.94451 0.45758 0.28400
O 	O 	0.85171 0.06818 0.54517 -0.37300
O 	O 	0.97933 0.98836 0.47064 -0.33900
O 	O 	0.83167 0.91557 0.71562 -0.38800
O 	O 	0.82960 0.85097 0.67490 -0.39300
O 	O 	0.18946 0.04936 0.50176 -0.42400
O 	O 	0.19329 0.12725 0.53345 -0.38300
O 	O 	0.06090 0.79720 0.59262 -0.34400
O 	O 	0.94530 0.77615 0.60881 -0.39100
C 	C 	0.05125 0.00763 0.91357 -0.15100
C 	C 	0.89196 0.94041 0.31888 -0.06700
C 	C 	0.96398 0.95415 0.30912 -0.18700
C 	C 	0.98533 0.96128 0.40408 -0.15100
C 	C 	0.90228 0.94351 0.36601 0.34000
F 	F 	0.83057 0.92725 0.37475 -0.42500
H 	H 	0.82863 0.92917 0.28953 0.09100
C 	C 	0.16488 0.44809 0.66162 0.02000
C 	C 	0.16477 0.37619 0.69791 -0.03500
C 	C 	0.14987 0.31564 0.68262 0.02800
C 	C 	0.18773 0.36888 0.75106 0.11100
C 	C 	0.19135 0.26889 0.71656 0.08600
N 	N 	0.22540 0.23220 0.74361 -0.09800
N 	N 	0.20610 0.36305 0.79352 -0.08000
N 	N 	0.05869 0.38917 0.50026 -0.07900
C 	C 	0.50081 0.69470 0.69848 0.01300
C 	C 	0.52534 0.72776 0.65269 -0.03200
C 	C 	0.61811 0.76729 0.65308 0.02600
C 	C 	0.68754 0.77797 0.69885 -0.08100
C 	C 	0.66032 0.73598 0.74484 0.02600
C 	C 	0.56729 0.69557 0.74468 -0.03500
C 	C 	0.45504 0.72116 0.60524 0.10800
C 	C 	0.72852 0.73524 0.79222 0.09200
C 	C 	0.53986 0.65489 0.79191 0.10400
C 	C 	0.64264 0.79868 0.60629 0.10000
N 	N 	0.51793 0.62239 0.82958 -0.09500
N 	N 	0.66213 0.82369 0.56894 -0.09500
N 	N 	0.78283 0.73457 0.83007 -0.08600
N 	N 	0.39890 0.71565 0.56744 -0.09300
C 	C 	0.21303 0.77145 0.70746 0.02200
C 	C 	0.21598 0.70589 0.70993 -0.02500
C 	C 	0.26072 0.72294 0.67762 0.01100
C 	C 	0.30252 0.80557 0.64356 -0.02300
C 	C 	0.17703 0.75729 0.74440 0.11600
C 	C 	0.33320 0.81994 0.60394 0.09900
C 	C 	0.17414 0.62191 0.74589 0.11600
N 	N 	0.14069 0.55478 0.77457 -0.08200
N 	N 	0.14839 0.74593 0.77401 -0.07500
C 	C 	0.15976 0.41988 0.18110 0.02000
C 	C 	0.15959 0.43173 0.13227 -0.03500
C 	C 	0.12897 0.27799 0.20572 0.03100
C 	C 	0.13594 0.33890 0.21622 -0.03500
C 	C 	0.17401 0.51018 0.09367 0.11700
C 	C 	0.14655 0.21640 0.24669 0.10000
C 	C 	0.12526 0.32101 0.26450 0.11200
N 	N 	0.11673 0.30681 0.30306 -0.09200
N 	N 	0.18504 0.57247 0.06244 -0.08600
C 	C 	0.47435 0.67585 0.21948 0.01500
C 	C 	0.47834 0.71561 0.16820 -0.03400
C 	C 	0.55699 0.75078 0.15360 0.02600
C 	C 	0.63929 0.76308 0.19030 -0.08100
C 	C 	0.63546 0.72164 0.24147 0.02600
C 	C 	0.55289 0.67800 0.25612 -0.03400
C 	C 	0.40319 0.72326 0.13093 0.10800
C 	C 	0.71742 0.72604 0.27900 0.08600
C 	C 	0.54900 0.63619 0.30872 0.10800
C 	C 	0.55414 0.77586 0.10077 0.09800
N 	N 	0.54589 0.60281 0.35071 -0.09900
N 	N 	0.55191 0.79557 0.05863 -0.08700
N 	N 	0.78291 0.72964 0.30893 -0.09600
N 	N 	0.34371 0.73015 0.10115 -0.09300
C 	C 	0.21828 0.66039 0.21934 0.01200
C 	C 	0.13366 0.61386 0.23371 -0.01700
C 	C 	0.10088 0.65992 0.22719 -0.00200
C 	C 	0.25171 0.79537 0.21386 0.01300
C 	C 	0.27615 0.75343 0.20754 -0.02600
C 	C 	0.08435 0.52128 0.25801 0.10600
C 	C 	0.32269 0.88313 0.22080 0.10600
C 	C 	0.35260 0.80588 0.18325 0.10200
N 	N 	0.41411 0.84875 0.16397 -0.09900
N 	N 	0.38034 0.95312 0.22690 -0.08000
C 	C 	0.77283 0.25182 0.54355 0.01000
C 	C 	0.73373 0.17102 0.57928 -0.04400
C 	C 	0.71964 0.10045 0.57574 0.02000
C 	C 	0.77192 0.11606 0.54875 -0.07300
C 	C 	0.81518 0.19827 0.51365 0.01500
C 	C 	0.81348 0.26538 0.51032 -0.03800
C 	C 	0.70625 0.16000 0.61914 0.08700
C 	C 	0.85124 0.21074 0.47741 0.08600
C 	C 	0.85123 0.34690 0.47215 0.09200
C 	C 	0.64678 0.01165 0.59686 0.01700
N 	N 	0.88134 0.41207 0.44168 -0.10900
N 	N 	0.87997 0.22079 0.44835 -0.10600
N 	N 	0.68441 0.15115 0.65104 -0.10900
C 	C 	0.85472 0.52329 0.55703 0.00400
C 	C 	0.85368 0.59462 0.52053 -0.03400
C 	C 	0.86600 0.65429 0.53540 0.00500
C 	C 	0.90757 0.66003 0.58589 -0.06000
C 	C 	0.91480 0.59204 0.62292 0.00600
C 	C 	0.89002 0.52456 0.60848 -0.03500
C 	C 	0.83282 0.60257 0.46752 0.09600
C 	C 	0.94199 0.58859 0.67578 0.07600
C 	C 	0.89975 0.45620 0.64650 0.08500
C 	C 	0.82685 0.70273 0.50012 0.08800
N 	N 	0.90759 0.40161 0.67682 -0.11500
N 	N 	0.79471 0.74077 0.47186 -0.08300
N 	N 	0.81608 0.60880 0.42518 -0.10000
C 	C 	0.52354 0.27223 0.51699 0.01300
C 	C 	0.45620 0.26655 0.47059 -0.03700
C 	C 	0.36242 0.22511 0.46978 0.02600
C 	C 	0.33565 0.18771 0.51539 -0.08500
C 	C 	0.40512 0.20148 0.56109 0.02300
C 	C 	0.49846 0.24165 0.56217 -0.03400
C 	C 	0.48358 0.30366 0.42382 0.10300
C 	C 	0.37985 0.17205 0.60724 0.08600
C 	C 	0.56887 0.25140 0.60974 0.10300
C 	C 	0.29312 0.22047 0.42213 0.09100
N 	N 	0.62506 0.25939 0.64764 -0.10400
N 	N 	0.23770 0.21667 0.38416 -0.09300
N 	N 	0.35972 0.14857 0.64406 -0.11000
N 	N 	0.50550 0.33332 0.38652 -0.10200
C 	C 	0.74604 0.25332 0.00838 -0.01100
C 	C 	0.83951 0.29106 0.00976 -0.03600
C 	C 	0.85851 0.23916 0.00954 0.02200
C 	C 	0.78832 0.14860 0.01492 -0.08300
C 	C 	0.69323 0.11660 0.00234 0.00300
C 	C 	0.67197 0.17114 0.99604 -0.00900
C 	C 	0.91305 0.38356 0.00638 0.08200
C 	C 	0.61791 0.02937 0.99423 0.05400
C 	C 	0.57527 0.14382 0.97602 0.09400
C 	C 	0.94288 0.27993 0.99584 0.03800
N 	N 	0.49757 0.12088 0.95995 -0.10300
N 	N 	0.55750 0.95980 0.98757 -0.04200
N 	N 	0.97214 0.45768 0.00308 -0.11800
C 	C 	0.79659 0.49851 0.03458 -0.00900
C 	C 	0.89488 0.55757 0.05157 0.01200
C 	C 	0.93324 0.64074 0.05252 -0.06300
C 	C 	0.87287 0.65795 0.04819 -0.05300
C 	C 	0.77445 0.59940 0.03092 0.01300
C 	C 	0.73740 0.52328 0.02030 -0.03900
C 	C 	0.95575 0.53036 0.07215 0.01000
C 	C 	0.71172 0.61875 0.02231 0.09100
C 	C 	0.63882 0.47066 0.99486 0.11900
N 	N 	0.55997 0.42947 0.97442 -0.09900
N 	N 	0.66164 0.63419 0.01543 -0.09800
C 	C 	0.36935 0.13509 0.09037 -0.05900
C 	C 	0.39312 0.17543 0.04387 -0.00200
C 	C 	0.48055 0.20579 0.04205 -0.04300
C 	C 	0.54812 0.20338 0.08746 0.00700
C 	C 	0.52755 0.17247 0.13415 -0.03500
C 	C 	0.44023 0.14417 0.13507 0.01300
C 	C 	0.33032 0.19101 0.99832 0.10500
C 	C 	0.59624 0.17040 0.18091 0.09200
C 	C 	0.42694 0.13403 0.18030 0.09200
C 	C 	0.50363 0.24495 0.99363 0.12200
N 	N 	0.41633 0.12622 0.21639 -0.10000
N 	N 	0.52195 0.27676 0.95493 -0.10200
N 	N 	0.65110 0.16875 0.21824 -0.11100
N 	N 	0.28076 0.20418 0.96188 -0.07600
