data_crystal

_cell_length_a 18.61246
_cell_length_b 18.95040
_cell_length_c 31.72028
_cell_angle_alpha 95.41819
_cell_angle_beta  95.41810
_cell_angle_gamma 126.41603

_symmetry_space_group_name_	'P 1'
_symmetry_space_group_name_H-M	'P 1'

loop_
_symmetry_equiv_pos_as_xyz
  x,y,z

loop_
_atom_site_label
_atom_site_type_symbol
_atom_site_fract_x
_atom_site_fract_y
_atom_site_fract_z
_atom_site_charge
C 	C 	0.92280 0.01476 0.95802 0.05200
C 	C 	0.01594 0.06802 0.95708 -0.09300
C 	C 	0.06357 0.03243 0.96041 0.05100
C 	C 	0.01779 0.94263 0.96340 -0.09900
C 	C 	0.92407 0.88768 0.96276 0.04900
C 	C 	0.87645 0.92407 0.96084 -0.09600
H 	H 	0.05192 0.13796 0.95524 0.05800
H 	H 	0.05497 0.91529 0.96595 0.05800
H 	H 	0.80439 0.88246 0.96158 0.05400
C 	C 	0.93685 0.01917 0.49989 0.05200
C 	C 	0.02966 0.06059 0.50031 -0.09400
C 	C 	0.06042 0.00838 0.49656 0.04700
C 	C 	0.99852 0.91556 0.49221 -0.08900
C 	C 	0.90657 0.87475 0.49212 0.04600
C 	C 	0.87557 0.92615 0.49512 -0.09500
H 	H 	0.07739 0.13251 0.50371 0.05300
H 	H 	0.02216 0.87529 0.48959 0.05200
H 	H 	0.80393 0.89392 0.49449 0.05600
Cu	Cu	0.77111 0.36136 0.95517 0.92700
Cu	Cu	0.76652 0.28632 0.04487 0.87000
Cu	Cu	0.63099 0.31205 0.01341 0.89300
Cu	Cu	0.60582 0.36508 0.93027 0.89500
C 	C 	0.70113 0.34168 0.86622 0.30200
O 	O 	0.82841 0.49371 0.95764 -0.35800
C 	C 	0.69260 0.32994 0.10676 0.30300
O 	O 	0.63056 0.29168 0.95286 -0.63600
O 	O 	0.76397 0.37167 0.01733 -0.64300
O 	O 	0.82941 0.29938 0.95466 -0.36500
O 	O 	0.73366 0.20331 0.99492 -0.43500
O 	O 	0.66747 0.38262 0.87976 -0.38900
O 	O 	0.50060 0.24677 0.00515 -0.39300
C 	C 	0.45186 0.25311 0.97488 0.30800
C 	C 	0.79068 0.52862 0.97355 0.28900
O 	O 	0.70796 0.47565 0.98102 -0.39200
O 	O 	0.49024 0.31600 0.95141 -0.39800
O 	O 	0.75338 0.33370 0.89334 -0.36100
C 	C 	0.79258 0.22465 0.96961 0.29600
O 	O 	0.62897 0.31458 0.07604 -0.38600
O 	O 	0.76601 0.34132 0.09791 -0.42400
H 	H 	0.58939 0.22809 0.93851 0.16400
H 	H 	0.80337 0.43316 0.03442 0.17100
Cu	Cu	0.61652 0.20580 0.51150 0.92300
Cu	Cu	0.66773 0.18040 0.41633 0.87300
Cu	Cu	0.63627 0.32759 0.44926 0.90900
Cu	Cu	0.58298 0.34988 0.53252 0.89400
C 	C 	0.63616 0.28101 0.59950 0.28700
O 	O 	0.47948 0.13242 0.51048 -0.36100
C 	C 	0.65584 0.29052 0.36483 0.28800
O 	O 	0.66651 0.33857 0.51017 -0.63900
O 	O 	0.59632 0.20318 0.44824 -0.63000
O 	O 	0.70618 0.17817 0.51704 -0.36800
O 	O 	0.66061 0.09910 0.44872 -0.42500
O 	O 	0.58222 0.30103 0.58564 -0.38700
O 	O 	0.68428 0.45051 0.45226 -0.38500
C 	C 	0.67504 0.49584 0.48255 0.30000
C 	C 	0.43244 0.15763 0.49340 0.29000
O 	O 	0.47521 0.23763 0.48414 -0.39800
O 	O 	0.61452 0.45546 0.50756 -0.39900
O 	O 	0.64777 0.23115 0.57347 -0.36000
C 	C 	0.71200 0.12970 0.48700 0.29600
O 	O 	0.61319 0.31168 0.38708 -0.38300
O 	O 	0.71092 0.27745 0.38500 -0.42900
H 	H 	0.73118 0.38687 0.52295 0.15900
H 	H 	0.53148 0.15906 0.43454 0.15500
C 	C 	0.69601 0.31428 0.73660 0.01400
C 	C 	0.71346 0.38556 0.71757 -0.05800
C 	C 	0.69741 0.37581 0.67269 0.00900
C 	C 	0.70145 0.32837 0.82090 -0.10000
C 	C 	0.65062 0.22467 0.66551 0.01300
C 	C 	0.66616 0.23436 0.71049 -0.05800
C 	C 	0.69990 0.32044 0.78255 0.03500
C 	C 	0.66416 0.29475 0.64642 -0.08300
H 	H 	0.73687 0.44766 0.73754 0.04400
H 	H 	0.70897 0.43061 0.65835 0.02000
H 	H 	0.62493 0.16173 0.64561 0.03800
H 	H 	0.65258 0.17895 0.72494 0.04500
C 	C 	0.65778 0.30805 0.23120 0.01200
C 	C 	0.64772 0.36325 0.25839 -0.06000
C 	C 	0.64510 0.35646 0.30193 0.01400
C 	C 	0.67749 0.32549 0.15036 -0.10900
C 	C 	0.66151 0.23850 0.29093 0.01000
C 	C 	0.66368 0.24511 0.24750 -0.06100
C 	C 	0.66730 0.31893 0.18718 0.03400
C 	C 	0.65314 0.29469 0.31852 -0.09400
H 	H 	0.64324 0.41217 0.24605 0.04400
H 	H 	0.63888 0.40045 0.32286 0.03600
H 	H 	0.66675 0.18995 0.30318 0.01100
H 	H 	0.67129 0.20211 0.22664 0.04000
C 	C 	0.78780 0.72188 0.45115 -0.09200
C 	C 	0.84301 0.77813 0.49059 -0.01800
C 	C 	0.83666 0.74167 0.52823 0.06300
C 	C 	0.77864 0.64887 0.52509 -0.02600
C 	C 	0.72574 0.59240 0.48537 -0.11400
C 	C 	0.72684 0.62928 0.44843 0.12900
N 	N 	0.66739 0.57669 0.41092 -0.20300
H 	H 	0.79111 0.75046 0.42267 0.05200
H 	H 	0.77595 0.62036 0.55354 0.03000
N 	N 	0.88589 0.79527 0.56736 -0.19300
H 	H 	0.67191 0.60391 0.38323 0.08300
H 	H 	0.61307 0.50981 0.40949 0.09700
H 	H 	0.92719 0.86474 0.57119 0.08200
H 	H 	0.88185 0.76747 0.59480 0.07800
C 	C 	0.79501 0.08914 0.53174 -0.02600
C 	C 	0.78514 0.11995 0.49478 -0.11000
C 	C 	0.84365 0.13858 0.46489 0.11100
C 	C 	0.89913 0.11118 0.46859 -0.08400
C 	C 	0.90247 0.07232 0.50346 -0.02300
C 	C 	0.85575 0.06813 0.53706 0.06700
N 	N 	0.86860 0.04347 0.57423 -0.19400
H 	H 	0.75439 0.08004 0.55604 0.04600
H 	H 	0.93805 0.11820 0.44376 0.05000
N 	N 	0.84951 0.18561 0.43382 -0.19900
H 	H 	0.83131 0.03698 0.59823 0.08300
H 	H 	0.91828 0.03411 0.58032 0.08400
H 	H 	0.82189 0.22006 0.43480 0.03500
H 	H 	0.88819 0.19399 0.41021 0.07500
C 	C 	0.18830 0.06376 0.45748 -0.08800
C 	C 	0.15742 0.05021 0.49670 -0.02100
C 	C 	0.21456 0.06192 0.53394 0.06600
C 	C 	0.30169 0.08737 0.53111 -0.03000
C 	C 	0.33368 0.10398 0.49218 -0.10900
C 	C 	0.27492 0.08811 0.45460 0.11900
N 	N 	0.30073 0.09456 0.41556 -0.20100
H 	H 	0.14341 0.05192 0.42871 0.05100
H 	H 	0.34666 0.09945 0.55991 0.04600
N 	N 	0.18691 0.05048 0.57259 -0.19400
H 	H 	0.25851 0.08598 0.38815 0.08100
H 	H 	0.36106 0.10444 0.41176 0.07900
H 	H 	0.12496 0.03688 0.57641 0.08300
H 	H 	0.22861 0.05725 0.59969 0.08200
C 	C 	0.86286 0.76367 0.00356 -0.09400
C 	C 	0.87646 0.79171 0.96375 -0.01500
C 	C 	0.86299 0.73314 0.92728 0.06700
C 	C 	0.84189 0.65004 0.93195 -0.03200
C 	C 	0.83002 0.62262 0.97193 -0.09800
C 	C 	0.84127 0.68028 0.00823 0.11000
N 	N 	0.83445 0.65738 0.04784 -0.20100
H 	H 	0.87391 0.80882 0.03156 0.05000
H 	H 	0.83107 0.60506 0.90392 0.04800
N 	N 	0.86945 0.75600 0.88766 -0.19400
H 	H 	0.84023 0.69904 0.07422 0.08000
H 	H 	0.82661 0.59982 0.05318 0.08100
H 	H 	0.87844 0.81421 0.88255 0.08200
H 	H 	0.86246 0.71388 0.86111 0.08100
C 	C 	0.81472 0.12471 0.92617 -0.02600
C 	C 	0.83133 0.17555 0.96607 -0.10100
C 	C 	0.87273 0.16840 0.00356 0.10300
C 	C 	0.89084 0.10613 0.00086 -0.09200
C 	C 	0.87706 0.05729 0.96089 -0.01400
C 	C 	0.83744 0.06568 0.92314 0.06700
N 	N 	0.82042 0.01696 0.88409 -0.19100
H 	H 	0.78221 0.12945 0.89752 0.04400
H 	H 	0.92224 0.10056 0.02964 0.05000
N 	N 	0.89861 0.22361 0.04181 -0.20000
H 	H 	0.79303 0.02486 0.85626 0.08300
H 	H 	0.83229 0.96951 0.88108 0.08000
H 	H 	0.89813 0.27861 0.04365 0.03300
H 	H 	0.92484 0.21503 0.06980 0.07200
C 	C 	0.29703 0.13839 0.93298 -0.02600
C 	C 	0.35293 0.19794 0.97165 -0.10500
C 	C 	0.31353 0.20595 0.00609 0.12100
C 	C 	0.21866 0.15051 0.00182 -0.09800
C 	C 	0.16278 0.09072 0.96319 -0.01100
C 	C 	0.20214 0.08561 0.92810 0.06400
N 	N 	0.14941 0.03124 0.88958 -0.19000
H 	H 	0.32756 0.13369 0.90643 0.03100
H 	H 	0.18808 0.15472 0.02847 0.05200
N 	N 	0.36602 0.26809 0.04273 -0.20200
H 	H 	0.17917 0.02651 0.86420 0.08000
H 	H 	0.07885 0.99490 0.88402 0.07900
H 	H 	0.43601 0.31605 0.04546 0.09600
H 	H 	0.33628 0.27123 0.06849 0.08300
