data_crystal

_cell_length_a 25.96293
_cell_length_b 26.42423
_cell_length_c 35.11561
_cell_angle_alpha 95.49882
_cell_angle_beta  95.49589
_cell_angle_gamma 125.82665

_symmetry_space_group_name_	'P 1'
_symmetry_space_group_name_H-M	'P 1'

loop_
_symmetry_equiv_pos_as_xyz
  x,y,z

loop_
_atom_site_label
_atom_site_type_symbol
_atom_site_fract_x
_atom_site_fract_y
_atom_site_fract_z
_atom_site_charge
C 	C 	0.97096 0.03049 0.01496 0.13600
N 	N 	0.03481 0.06569 0.01304 -0.07100
C 	C 	0.06422 0.03721 0.00884 0.15200
N 	N 	0.02944 0.97327 0.00593 -0.03700
C 	C 	0.96564 0.93796 0.00787 0.18500
N 	N 	0.93621 0.96648 0.01174 -0.04400
C 	C 	0.93001 0.99482 0.44724 0.29200
N 	N 	0.89655 0.93178 0.44771 -0.09700
C 	C 	0.92863 0.90607 0.45279 0.20600
N 	N 	0.99414 0.94366 0.45828 -0.06400
C 	C 	0.02770 0.00689 0.45877 0.18900
N 	N 	0.99560 0.03241 0.45309 -0.12300
Cu	Cu	0.63313 0.23840 0.00142 0.94700
Cu	Cu	0.68962 0.23644 0.92243 0.90100
Cu	Cu	0.67967 0.33943 0.95091 0.91500
Cu	Cu	0.65053 0.36546 0.02750 0.92200
C 	C 	0.65045 0.28594 0.08218 0.30100
O 	O 	0.54194 0.21277 0.99879 -0.29700
C 	C 	0.67243 0.30081 0.86759 0.29300
O 	O 	0.69515 0.33756 0.00526 -0.63100
O 	O 	0.63028 0.24553 0.94605 -0.63600
O 	O 	0.66221 0.18346 0.00014 -0.30500
O 	O 	0.74281 0.24584 0.96783 -0.34900
O 	O 	0.62750 0.31647 0.07087 -0.34200
O 	O 	0.73248 0.43120 0.95825 -0.32900
C 	C 	0.72579 0.46810 0.98197 0.31000
C 	C 	0.52428 0.24524 0.98349 0.29600
O 	O 	0.56864 0.30410 0.98000 -0.33400
O 	O 	0.70368 0.45214 0.01455 -0.30100
O 	O 	0.65191 0.24687 0.05671 -0.30900
C 	C 	0.71836 0.20421 0.99088 0.29100
O 	O 	0.67187 0.33905 0.89456 -0.32300
O 	O 	0.65954 0.24647 0.87399 -0.35700
H 	H 	0.74128 0.36124 0.01736 0.22100
H 	H 	0.58652 0.22108 0.92984 0.24600
Cu	Cu	0.73830 0.34159 0.45092 0.94500
Cu	Cu	0.74472 0.29244 0.53236 0.90600
Cu	Cu	0.63593 0.29610 0.50217 0.91600
Cu	Cu	0.61227 0.33116 0.42709 0.92100
C 	C 	0.68473 0.31975 0.37051 0.30200
O 	O 	0.77013 0.43286 0.45277 -0.29200
C 	C 	0.68493 0.31916 0.58655 0.29900
O 	O 	0.63739 0.28405 0.44779 -0.63400
O 	O 	0.73183 0.34660 0.50654 -0.63200
O 	O 	0.79004 0.30838 0.45196 -0.31100
O 	O 	0.72865 0.23452 0.48801 -0.34700
O 	O 	0.65710 0.34627 0.38163 -0.33900
O 	O 	0.54250 0.24310 0.49411 -0.31100
C 	C 	0.50465 0.24657 0.46829 0.31300
C 	C 	0.73942 0.45321 0.46771 0.30200
O 	O 	0.68042 0.41188 0.47328 -0.34800
O 	O 	0.52828 0.28943 0.44556 -0.31400
O 	O 	0.72791 0.32213 0.39549 -0.30600
C 	C 	0.76757 0.25387 0.46277 0.30600
O 	O 	0.63447 0.29333 0.55807 -0.34200
O 	O 	0.73883 0.32857 0.57996 -0.35900
H 	H 	0.61193 0.23904 0.43465 0.24200
H 	H 	0.75578 0.39017 0.52180 0.23700
C 	C 	0.62208 0.27468 0.67941 -0.02200
C 	C 	0.67103 0.32946 0.70698 0.03700
C 	C 	0.72017 0.38354 0.69425 -0.04000
C 	C 	0.72310 0.38211 0.65454 0.04400
C 	C 	0.67649 0.32587 0.62722 -0.05400
C 	C 	0.62481 0.27335 0.63973 0.02600
C 	C 	0.67527 0.32808 0.74920 0.03500
C 	C 	0.71653 0.31608 0.76745 -0.03900
C 	C 	0.71759 0.30925 0.80648 0.03900
C 	C 	0.67627 0.31366 0.82756 -0.04800
C 	C 	0.63685 0.32823 0.80974 0.03100
C 	C 	0.63635 0.33571 0.77074 -0.01700
C 	C 	0.76223 0.29911 0.82494 0.10900
C 	C 	0.59543 0.35063 0.75294 0.14700
C 	C 	0.57002 0.21897 0.69175 0.13400
C 	C 	0.77370 0.43861 0.64205 0.12900
N 	N 	0.79799 0.29099 0.83971 -0.06300
N 	N 	0.56263 0.36256 0.73864 -0.04600
N 	N 	0.81422 0.48386 0.63204 -0.02900
N 	N 	0.52834 0.17438 0.70168 -0.06000
H 	H 	0.58826 0.23040 0.61871 0.07900
H 	H 	0.75710 0.42614 0.71538 0.09600
H 	H 	0.74729 0.31131 0.75104 0.08700
H 	H 	0.60565 0.33248 0.82599 0.09600
C 	C 	0.70298 0.34599 0.19079 -0.01900
C 	C 	0.67660 0.28910 0.20519 0.03800
C 	C 	0.64464 0.23131 0.17904 -0.03900
C 	C 	0.63660 0.22935 0.13874 0.04500
C 	C 	0.66278 0.28640 0.12428 -0.04400
C 	C 	0.69688 0.34441 0.15058 0.02900
C 	C 	0.67737 0.28898 0.24747 0.03700
C 	C 	0.62035 0.26632 0.26179 -0.03700
C 	C 	0.62133 0.27217 0.30196 0.04500
C 	C 	0.68049 0.30305 0.32830 -0.04100
C 	C 	0.73673 0.32191 0.31387 0.03100
C 	C 	0.73521 0.31419 0.27363 -0.01900
C 	C 	0.56125 0.24485 0.31587 0.12600
C 	C 	0.79323 0.33271 0.25941 0.14000
C 	C 	0.73470 0.40595 0.21709 0.13800
C 	C 	0.59862 0.16842 0.11270 0.13400
N 	N 	0.51314 0.22297 0.32702 -0.04000
N 	N 	0.83970 0.34756 0.24799 -0.05200
N 	N 	0.56819 0.11957 0.09187 -0.05200
N 	N 	0.76010 0.45395 0.23817 -0.05500
H 	H 	0.71728 0.38829 0.13964 0.07300
H 	H 	0.62417 0.18754 0.19011 0.09300
H 	H 	0.57535 0.24490 0.24162 0.09400
H 	H 	0.78200 0.34409 0.33392 0.08900
C 	C 	0.86465 0.73415 0.42874 0.05400
C 	C 	0.83706 0.71154 0.46131 0.08900
C 	C 	0.83669 0.75237 0.49041 -0.07400
C 	C 	0.86586 0.81582 0.48657 0.06700
C 	C 	0.89267 0.83800 0.45374 0.07000
C 	C 	0.88934 0.79607 0.42358 -0.06600
C 	C 	0.80961 0.64518 0.46485 0.10400
C 	C 	0.80969 0.72996 0.52687 0.78700
H 	H 	0.86937 0.84864 0.50962 0.13400
C 	C 	0.91445 0.81791 0.38663 0.78300
H 	H 	0.86636 0.70308 0.40726 0.12800
C 	C 	0.74769 0.59366 0.44359 -0.10000
C 	C 	0.72622 0.53124 0.44474 0.08600
C 	C 	0.76351 0.51953 0.46833 0.00200
C 	C 	0.82350 0.57099 0.49150 -0.05100
C 	C 	0.84737 0.63342 0.48795 0.03500
C 	C 	0.70650 0.60483 0.41733 0.79000
H 	H 	0.68080 0.49144 0.42672 0.08300
C 	C 	0.86239 0.55959 0.51959 0.77700
H 	H 	0.89540 0.67312 0.50316 0.13800
F 	F 	0.89225 0.76683 0.35742 -0.36200
F 	F 	0.98130 0.85610 0.39431 -0.37800
F 	F 	0.89385 0.85183 0.37292 -0.35300
F 	F 	0.85119 0.72447 0.55061 -0.38200
F 	F 	0.74938 0.67169 0.51730 -0.36800
F 	F 	0.80289 0.77228 0.54773 -0.36000
F 	F 	0.88873 0.53560 0.49890 -0.40900
F 	F 	0.82303 0.51679 0.54199 -0.42900
F 	F 	0.91229 0.61517 0.54467 -0.37600
F 	F 	0.64336 0.55041 0.40629 -0.38000
F 	F 	0.73201 0.62265 0.38409 -0.39100
F 	F 	0.70469 0.65199 0.43626 -0.36500
C 	C 	0.87262 0.08549 0.40783 0.03600
C 	C 	0.84780 0.09469 0.43931 0.10100
C 	C 	0.84037 0.06226 0.47062 -0.09600
C 	C 	0.86589 0.02781 0.47206 0.09200
C 	C 	0.89543 0.02289 0.44201 -0.01000
C 	C 	0.89503 0.04830 0.40836 -0.03900
C 	C 	0.83066 0.13923 0.43951 0.09500
C 	C 	0.80448 0.06352 0.50202 0.79100
H 	H 	0.86436 0.00608 0.49699 0.10500
C 	C 	0.92122 0.03845 0.37382 0.73700
H 	H 	0.87608 0.10886 0.38343 0.13500
C 	C 	0.87659 0.20437 0.45662 -0.09500
C 	C 	0.85554 0.24247 0.46236 0.08000
C 	C 	0.79074 0.21728 0.44950 0.00600
C 	C 	0.74745 0.15508 0.42716 -0.05600
C 	C 	0.76746 0.11590 0.42334 0.04100
C 	C 	0.94773 0.23319 0.46851 0.78900
H 	H 	0.88889 0.29107 0.47805 0.10000
C 	C 	0.67920 0.12941 0.40891 0.77800
H 	H 	0.73337 0.06660 0.40891 0.13000
F 	F 	0.98807 0.07855 0.38225 -0.37800
F 	F 	0.90065 0.05130 0.34076 -0.37000
F 	F 	0.90004 0.97615 0.36551 -0.32400
F 	F 	0.74192 0.03879 0.48527 -0.40300
F 	F 	0.83545 0.12523 0.52125 -0.38800
F 	F 	0.80122 0.02778 0.52936 -0.38600
F 	F 	0.65184 0.07671 0.37983 -0.39000
F 	F 	0.67944 0.17505 0.39240 -0.43000
F 	F 	0.64121 0.11208 0.43714 -0.39300
F 	F 	0.98481 0.29777 0.48315 -0.38200
F 	F 	0.97082 0.22466 0.43651 -0.39100
F 	F 	0.95569 0.20433 0.49693 -0.37500
C 	C 	0.32453 0.11569 0.45143 0.03700
C 	C 	0.30302 0.14818 0.46928 0.10000
C 	C 	0.34844 0.21176 0.48951 -0.09400
C 	C 	0.41466 0.24215 0.49008 0.08400
C 	C 	0.43576 0.21081 0.47030 0.01100
C 	C 	0.39065 0.14683 0.45105 -0.05400
C 	C 	0.23267 0.11478 0.46693 0.09000
C 	C 	0.32672 0.24617 0.51196 0.78900
H 	H 	0.45010 0.29061 0.50561 0.10400
C 	C 	0.41298 0.11214 0.42982 0.77800
H 	H 	0.28936 0.06643 0.43724 0.13300
C 	C 	0.19364 0.10970 0.43343 -0.07300
C 	C 	0.12650 0.07451 0.43160 0.06500
C 	C 	0.09853 0.04705 0.46305 0.07300
C 	C 	0.13817 0.05569 0.49745 -0.06700
C 	C 	0.20438 0.08631 0.49806 0.05100
C 	C 	0.22261 0.13767 0.39854 0.78600
H 	H 	0.09554 0.06708 0.40532 0.15300
C 	C 	0.10985 0.03044 0.53303 0.74900
H 	H 	0.23432 0.08861 0.52292 0.12700
F 	F 	0.44464 0.14372 0.40100 -0.40900
F 	F 	0.36174 0.05037 0.41248 -0.38000
F 	F 	0.45485 0.10998 0.45585 -0.40600
F 	F 	0.30401 0.21896 0.54394 -0.38900
F 	F 	0.27811 0.24229 0.48856 -0.36100
F 	F 	0.37701 0.30995 0.52507 -0.37400
F 	F 	0.07865 0.96558 0.52717 -0.34400
F 	F 	0.06630 0.04287 0.53986 -0.38400
F 	F 	0.15765 0.05875 0.56608 -0.36900
F 	F 	0.17922 0.13737 0.37213 -0.35100
F 	F 	0.23932 0.10223 0.37977 -0.38600
F 	F 	0.27708 0.19997 0.41021 -0.36700
C 	C 	0.88529 0.76966 0.02482 0.06100
C 	C 	0.85881 0.73540 0.98648 0.08200
C 	C 	0.86410 0.76735 0.95519 -0.07000
C 	C 	0.89800 0.83371 0.96311 0.05200
C 	C 	0.92694 0.86821 0.00129 0.08100
C 	C 	0.91971 0.83604 0.03264 -0.06300
C 	C 	0.82436 0.66567 0.97965 0.10700
C 	C 	0.83075 0.73058 0.91377 0.78500
H 	H 	0.90224 0.85886 0.93957 0.12500
C 	C 	0.94925 0.87246 0.07431 0.77200
H 	H 	0.87948 0.74433 0.04849 0.13300
C 	C 	0.85893 0.63946 0.98003 -0.10000
C 	C 	0.82528 0.57403 0.97966 0.08400
C 	C 	0.75802 0.53439 0.97706 0.00700
C 	C 	0.72294 0.55966 0.97287 -0.05200
C 	C 	0.75692 0.62568 0.97626 0.03600
C 	C 	0.93216 0.68172 0.98443 0.78700
H 	H 	0.85165 0.55416 0.98287 0.10200
C 	C 	0.64959 0.51685 0.96658 0.77300
H 	H 	0.73111 0.64630 0.97689 0.14200
F 	F 	0.01577 0.91330 0.07855 -0.31000
F 	F 	0.93406 0.83233 0.10083 -0.35400
F 	F 	0.92654 0.90728 0.08326 -0.32900
F 	F 	0.76454 0.69632 0.91077 -0.38300
F 	F 	0.84559 0.68918 0.90385 -0.37300
F 	F 	0.84969 0.77072 0.88703 -0.36900
F 	F 	0.63010 0.50011 0.00144 -0.39300
F 	F 	0.62412 0.46240 0.93948 -0.40600
F 	F 	0.62456 0.54711 0.95282 -0.36300
F 	F 	0.95434 0.64642 0.97501 -0.38100
F 	F 	0.95997 0.71354 0.02257 -0.38500
F 	F 	0.95235 0.72557 0.96009 -0.37300
C 	C 	0.87080 0.08286 0.04686 0.04500
C 	C 	0.86597 0.10911 0.01510 0.09700
C 	C 	0.90153 0.11589 0.98529 -0.08600
C 	C 	0.93637 0.09046 0.98616 0.04900
C 	C 	0.93827 0.06103 0.01688 0.07600
C 	C 	0.90827 0.06035 0.04871 -0.07100
C 	C 	0.82433 0.13047 0.01375 0.09300
C 	C 	0.90438 0.15223 0.95349 0.78700
H 	H 	0.96149 0.09276 0.96270 0.11200
C 	C 	0.91244 0.03215 0.08352 0.75000
H 	H 	0.84443 0.07914 0.06989 0.12700
C 	C 	0.75809 0.08854 0.99587 -0.08400
C 	C 	0.72279 0.11303 0.99033 0.06000
C 	C 	0.75177 0.17741 0.00393 0.02200
C 	C 	0.81487 0.21679 0.02676 -0.06200
C 	C 	0.85140 0.19339 0.03033 0.04400
C 	C 	0.72495 0.01785 0.98335 0.71300
H 	H 	0.67345 0.08268 0.97430 0.09700
C 	C 	0.84438 0.28443 0.04599 0.78000
H 	H 	0.90146 0.22448 0.04522 0.13200
F 	F 	0.86820 0.96673 0.07419 -0.31200
F 	F 	0.89851 0.05380 0.11551 -0.37100
F 	F 	0.97395 0.04878 0.09413 -0.36000
F 	F 	0.93308 0.21475 0.96994 -0.40000
F 	F 	0.84274 0.12526 0.93362 -0.39000
F 	F 	0.94003 0.15196 0.92668 -0.38400
F 	F 	0.89593 0.30732 0.07582 -0.39000
F 	F 	0.79905 0.28718 0.06180 -0.43200
F 	F 	0.86633 0.32334 0.01865 -0.39900
F 	F 	0.66034 0.98517 0.96688 -0.33200
F 	F 	0.72831 0.99257 0.01537 -0.33700
F 	F 	0.75485 0.00808 0.95615 -0.38000
C 	C 	0.24407 0.11521 0.02541 0.05600
C 	C 	0.26016 0.13967 0.99120 0.08100
C 	C 	0.21202 0.13218 0.96311 -0.07400
C 	C 	0.14813 0.09862 0.96968 0.04600
C 	C 	0.13236 0.07491 0.00417 0.07600
C 	C 	0.18130 0.08562 0.03314 -0.07000
C 	C 	0.32730 0.17113 0.98460 0.09900
C 	C 	0.22733 0.15552 0.92490 0.78400
H 	H 	0.11014 0.08965 0.94761 0.11700
C 	C 	0.16606 0.06138 0.07103 0.75000
H 	H 	0.28073 0.11929 0.04603 0.12300
C 	C 	0.37814 0.23399 0.00404 -0.09200
C 	C 	0.44243 0.25804 0.00237 0.09000
C 	C 	0.45637 0.22208 0.97996 0.00500
C 	C 	0.40518 0.16222 0.95713 -0.05500
C 	C 	0.34126 0.13584 0.96146 0.03600
C 	C 	0.36470 0.27343 0.02945 0.79000
H 	H 	0.48193 0.30388 0.01973 0.09600
C 	C 	0.41844 0.12610 0.92858 0.77800
H 	H 	0.30224 0.08747 0.94722 0.13200
F 	F 	0.22167 0.09236 0.09914 -0.36400
F 	F 	0.13798 0.99716 0.06444 -0.31100
F 	F 	0.12442 0.07131 0.08567 -0.35000
F 	F 	0.23451 0.11607 0.90109 -0.39000
F 	F 	0.28370 0.21694 0.93138 -0.36300
F 	F 	0.17836 0.15559 0.90553 -0.37000
F 	F 	0.44222 0.09916 0.94864 -0.41800
F 	F 	0.46311 0.16671 0.90737 -0.42700
F 	F 	0.36274 0.07812 0.90244 -0.38100
F 	F 	0.41697 0.33716 0.03718 -0.36900
F 	F 	0.35275 0.25262 0.06444 -0.39200
F 	F 	0.31183 0.26840 0.01125 -0.36000
