data_crystal

_cell_length_a 25.91361
_cell_length_b 26.26148
_cell_length_c 21.90996
_cell_angle_alpha 95.49746
_cell_angle_beta  95.49834
_cell_angle_gamma 125.84045

_symmetry_space_group_name_	'P 1'
_symmetry_space_group_name_H-M	'P 1'

loop_
_symmetry_equiv_pos_as_xyz
  x,y,z

loop_
_atom_site_label
_atom_site_type_symbol
_atom_site_fract_x
_atom_site_fract_y
_atom_site_fract_z
_atom_site_charge
C 	C 	0.03809 0.04166 0.96077 0.11900
N 	N 	0.01156 0.07254 0.97350 -0.13200
N 	N 	0.01996 0.02817 0.43764 -0.13400
Cu	Cu	0.62510 0.25770 0.01479 0.92300
Cu	Cu	0.70847 0.27505 0.90476 0.86500
Cu	Cu	0.66277 0.35135 0.92541 0.89700
Cu	Cu	0.61187 0.36969 0.03460 0.89200
C 	C 	0.62075 0.30636 0.13603 0.31700
O 	O 	0.52765 0.21362 0.99607 -0.35200
C 	C 	0.67839 0.31863 0.80071 0.31300
O 	O 	0.67241 0.35592 0.01450 -0.64400
O 	O 	0.63033 0.26134 0.92544 -0.63600
O 	O 	0.67083 0.21853 0.02958 -0.36800
O 	O 	0.75324 0.29276 0.98642 -0.43200
O 	O 	0.58906 0.32485 0.10703 -0.39800
O 	O 	0.70141 0.44108 0.92876 -0.38600
C 	C 	0.69800 0.47741 0.97174 0.29700
C 	C 	0.50363 0.23841 0.96553 0.28300
O 	O 	0.54304 0.29673 0.95533 -0.39200
O 	O 	0.65201 0.45231 0.00554 -0.40400
O 	O 	0.63418 0.27130 0.10435 -0.36600
C 	C 	0.73005 0.24701 0.01898 0.27500
O 	O 	0.65493 0.34238 0.83453 -0.38500
O 	O 	0.68549 0.27628 0.81926 -0.42300
H 	H 	0.71731 0.38740 0.03809 0.16000
H 	H 	0.59007 0.22928 0.89462 0.17700
Cu	Cu	0.74177 0.32019 0.41888 0.92600
Cu	Cu	0.74940 0.26344 0.54346 0.86800
Cu	Cu	0.66160 0.29824 0.52145 0.89400
Cu	Cu	0.63159 0.33765 0.40780 0.89400
C 	C 	0.67759 0.30986 0.29837 0.31800
O 	O 	0.78897 0.41627 0.42391 -0.36000
C 	C 	0.72404 0.31162 0.64968 0.31700
O 	O 	0.64619 0.27943 0.43172 -0.63900
O 	O 	0.75134 0.33034 0.51114 -0.64000
O 	O 	0.77644 0.26964 0.40496 -0.36800
O 	O 	0.71506 0.20343 0.46835 -0.44300
O 	O 	0.66270 0.34517 0.32680 -0.39300
O 	O 	0.57170 0.26108 0.52524 -0.37900
C 	C 	0.53387 0.26804 0.48782 0.28500
C 	C 	0.77136 0.44693 0.45615 0.27700
O 	O 	0.71583 0.41403 0.47512 -0.39500
O 	O 	0.55776 0.31096 0.45123 -0.39500
O 	O 	0.71479 0.29816 0.32951 -0.36900
C 	C 	0.75123 0.21588 0.42591 0.28400
O 	O 	0.67644 0.30654 0.61357 -0.38600
O 	O 	0.76593 0.30647 0.62584 -0.43300
H 	H 	0.61180 0.23398 0.41269 0.16300
H 	H 	0.78557 0.37398 0.53507 0.17400
C 	C 	0.68767 0.33172 0.74339 -0.12000
C 	C 	0.73015 0.32178 0.71192 -0.12400
H 	H 	0.67143 0.35758 0.72359 0.08500
H 	H 	0.76785 0.32318 0.74050 0.06500
C 	C 	0.62864 0.31386 0.19844 -0.12100
C 	C 	0.66426 0.29513 0.23565 -0.12100
H 	H 	0.61047 0.33675 0.22268 0.07500
H 	H 	0.68041 0.26994 0.21194 0.09000
C 	C 	0.80607 0.51649 0.45921 -0.07600
C 	C 	0.79773 0.55122 0.50464 0.00000
C 	C 	0.85217 0.64348 0.45318 0.01000
C 	C 	0.86022 0.60813 0.40701 0.00300
C 	C 	0.83870 0.54565 0.41130 -0.01900
C 	C 	0.88647 0.63410 0.35528 -0.03800
C 	C 	0.90372 0.69405 0.34800 -0.05000
H 	H 	0.77195 0.52893 0.54143 0.03300
H 	H 	0.84431 0.51863 0.37547 0.04500
H 	H 	0.89216 0.60701 0.31966 0.03500
H 	H 	0.92247 0.71246 0.30685 0.03900
C 	C 	0.77296 0.17567 0.41109 -0.08400
C 	C 	0.73893 0.11416 0.42552 0.00100
C 	C 	0.76501 0.08028 0.42341 -0.05900
C 	C 	0.82452 0.10588 0.40317 0.01200
C 	C 	0.83172 0.20144 0.39028 -0.01700
C 	C 	0.81953 0.00885 0.40935 -0.03000
H 	H 	0.69337 0.09360 0.44137 0.02900
H 	H 	0.74063 0.03637 0.44131 0.04000
H 	H 	0.00058 0.10444 0.39381 0.05600
C 	C 	0.12496 0.04587 0.45826 -0.00600
C 	C 	0.15849 0.10354 0.43595 -0.03100
C 	C 	0.22607 0.14250 0.44439 -0.03500
C 	C 	0.26171 0.12528 0.47718 -0.00800
C 	C 	0.22765 0.06525 0.49630 0.02600
C 	C 	0.15981 0.02713 0.48883 -0.05100
C 	C 	0.26139 0.04256 0.51992 -0.04800
C 	C 	0.32810 0.07763 0.52259 -0.03600
C 	C 	0.36297 0.13800 0.50572 0.00400
C 	C 	0.33062 0.16420 0.48704 0.01200
C 	C 	0.36799 0.22903 0.48093 -0.05600
C 	C 	0.43464 0.26342 0.48325 0.00500
C 	C 	0.46552 0.23472 0.49419 -0.07300
C 	C 	0.43005 0.17287 0.50778 -0.01700
H 	H 	0.13209 0.11732 0.41015 0.04300
H 	H 	0.24985 0.18369 0.42207 0.03700
H 	H 	0.35286 0.05806 0.53850 0.03600
H 	H 	0.34644 0.25379 0.47714 0.04300
H 	H 	0.46238 0.31264 0.47682 0.03600
H 	H 	0.45426 0.15144 0.51860 0.03800
C 	C 	0.73835 0.54703 0.97405 -0.06800
C 	C 	0.75206 0.58818 0.02909 -0.00500
C 	C 	0.78728 0.65385 0.03095 -0.06600
C 	C 	0.80734 0.67925 0.97670 0.02100
C 	C 	0.79926 0.63861 0.92322 0.00300
C 	C 	0.76332 0.57253 0.92160 -0.01600
C 	C 	0.82849 0.66461 0.87268 -0.03600
H 	H 	0.73627 0.56934 0.07092 0.02800
H 	H 	0.80153 0.68478 0.07528 0.04200
H 	H 	0.75464 0.54110 0.87958 0.04600
H 	H 	0.82346 0.63386 0.83214 0.03700
C 	C 	0.75476 0.02846 0.98887 -0.03300
C 	C 	0.72444 0.05687 0.00142 -0.06500
C 	C 	0.76090 0.12348 0.01862 0.00800
C 	C 	0.82957 0.16224 0.02700 0.01000
C 	C 	0.83207 0.25703 0.03908 0.00000
C 	C 	0.76425 0.21855 0.03056 -0.08300
C 	C 	0.72908 0.15198 0.02294 -0.02400
H 	H 	0.67202 0.02712 0.99521 0.05000
H 	H 	0.67658 0.12210 0.01589 0.03800
C 	C 	0.43448 0.21003 0.96060 -0.07900
C 	C 	0.38696 0.14557 0.93361 0.01000
C 	C 	0.32121 0.11878 0.92909 -0.05600
C 	C 	0.30215 0.15693 0.95068 0.01400
C 	C 	0.35052 0.22068 0.98223 0.00900
C 	C 	0.41620 0.24735 0.98515 0.00200
C 	C 	0.33285 0.25616 0.01296 -0.04300
C 	C 	0.26789 0.22841 0.01447 -0.05900
C 	C 	0.21916 0.16620 0.98174 0.03400
C 	C 	0.23575 0.13163 0.94595 -0.00800
C 	C 	0.18591 0.07421 0.90481 -0.03400
C 	C 	0.12108 0.04682 0.90711 -0.02800
C 	C 	0.10489 0.07705 0.94895 -0.00900
C 	C 	0.15383 0.13807 0.98415 -0.03900
H 	H 	0.40090 0.11595 0.91659 0.03100
H 	H 	0.28584 0.06794 0.91207 0.04500
H 	H 	0.45320 0.29663 0.00821 0.01400
H 	H 	0.36976 0.30481 0.03751 0.03500
H 	H 	0.25541 0.25570 0.04062 0.04100
H 	H 	0.19681 0.05193 0.86953 0.03900
H 	H 	0.14132 0.16269 0.01476 0.03800
H 	H 	0.08331 0.00153 0.87682 0.04300
C 	C 	0.89847 0.73093 0.39398 0.02500
C 	C 	0.81849 0.61315 0.50074 -0.05600
C 	C 	0.82248 0.06560 0.99737 0.03600
H 	H 	0.01002 0.16387 0.03941 0.05000
H 	H 	0.85961 0.30853 0.04479 0.02800
H 	H 	0.80428 0.63510 0.53219 0.04100
C 	C 	0.85849 0.16776 0.38773 0.00100
C 	C 	0.85369 0.07350 0.40247 -0.01300
H 	H 	0.85833 0.24901 0.37918 0.04200
C 	C 	0.86075 0.13226 0.02050 -0.02400
C 	C 	0.85236 0.03640 0.98426 -0.06000
C 	C 	0.86454 0.22944 0.03616 -0.06000
C 	C 	0.87502 0.70717 0.44832 -0.00900
C 	C 	0.86570 0.73042 0.87473 -0.05000
C 	C 	0.83854 0.74507 0.97543 -0.00100
H 	H 	0.80330 0.76478 0.05391 0.03700
C 	C 	0.87072 0.77089 0.92549 0.02600
C 	C 	0.05320 0.00355 0.44690 0.11500
H 	H 	0.86913 0.73585 0.54262 0.03600
C 	C 	0.87802 0.74859 0.49739 -0.03600
H 	H 	0.88943 0.74983 0.83597 0.04000
C 	C 	0.83499 0.78462 0.02053 -0.04300
C 	C 	0.91943 0.79276 0.38754 -0.05300
C 	C 	0.92055 0.19707 0.37361 -0.03500
C 	C 	0.91860 0.10664 0.39350 0.03000
C 	C 	0.91821 0.01661 0.41381 0.00200
H 	H 	0.91599 0.26036 0.03660 0.03800
C 	C 	0.89856 0.80979 0.49007 -0.03200
C 	C 	0.92013 0.07189 0.99788 0.01400
C 	C 	0.92000 0.83234 0.43566 -0.00600
C 	C 	0.92865 0.16661 0.03819 -0.02400
C 	C 	0.90571 0.83666 0.92587 -0.05500
H 	H 	0.90148 0.84118 0.52846 0.04000
H 	H 	0.93787 0.81107 0.34618 0.04500
C 	C 	0.86941 0.84987 0.02009 -0.04300
H 	H 	0.99989 0.19224 0.36925 0.03900
C 	C 	0.95072 0.03964 0.98667 0.10400
C 	C 	0.95090 0.16754 0.37798 -0.05300
C 	C 	0.95055 0.07834 0.39976 -0.06500
H 	H 	0.94644 0.24409 0.36134 0.03500
C 	C 	0.95797 0.13684 0.02563 -0.06000
H 	H 	0.95842 0.21479 0.06487 0.03100
H 	H 	0.72541 0.97713 0.97298 0.03800
H 	H 	0.82281 0.98588 0.96386 0.05200
C 	C 	0.85212 0.98154 0.41692 -0.03900
H 	H 	0.76758 0.97857 0.40580 0.03400
N 	N 	0.00358 0.97806 0.96090 -0.13400
N 	N 	0.02030 0.93974 0.44480 -0.13400
H 	H 	0.82560 0.93281 0.42466 0.04500
H 	H 	0.13414 0.98234 0.50570 0.05100
H 	H 	0.23548 0.99651 0.53430 0.04100
H 	H 	0.86745 0.87989 0.05585 0.04300
N 	N 	0.91701 0.97618 0.98749 -0.13700
N 	N 	0.92132 0.92532 0.42452 -0.13700
C 	C 	0.90581 0.87631 0.97359 0.00500
H 	H 	0.93175 0.85677 0.88846 0.04700
C 	C 	0.95402 0.98922 0.42563 0.10300
C 	C 	0.94315 0.94530 0.97420 0.10700
C 	C 	0.95460 0.90069 0.43420 0.10700
