data_crystal

_cell_length_a 18.47732
_cell_length_b 18.76268
_cell_length_c 34.74848
_cell_angle_alpha 95.43187
_cell_angle_beta  95.43240
_cell_angle_gamma 126.43045

_symmetry_space_group_name_	'P 1'
_symmetry_space_group_name_H-M	'P 1'

loop_
_symmetry_equiv_pos_as_xyz
  x,y,z

loop_
_atom_site_label
_atom_site_type_symbol
_atom_site_fract_x
_atom_site_fract_y
_atom_site_fract_z
_atom_site_charge
C 	C 	0.90731 0.99443 0.97342 0.17700
N 	N 	0.86250 0.90441 0.97208 -0.12100
C 	C 	0.90956 0.86970 0.97046 0.14500
N 	N 	0.00002 0.92441 0.96900 -0.11600
C 	C 	0.04431 0.01378 0.96994 0.15100
N 	N 	0.99835 0.04897 0.97304 -0.13600
C 	C 	0.94630 0.03406 0.48700 0.13300
N 	N 	0.89473 0.94517 0.48888 -0.11000
C 	C 	0.93433 0.90344 0.49175 0.14600
N 	N 	0.02481 0.94979 0.49110 -0.10900
C 	C 	0.07605 0.03792 0.48798 0.14000
N 	N 	0.03719 0.08069 0.48662 -0.11600
Cu	Cu	0.75041 0.33348 0.95979 0.93200
Cu	Cu	0.72112 0.26033 0.04304 0.87900
Cu	Cu	0.61075 0.31236 0.00659 0.90400
Cu	Cu	0.58016 0.32282 0.92118 0.90900
C 	C 	0.69347 0.29792 0.87588 0.29700
O 	O 	0.80101 0.46374 0.95627 -0.33200
C 	C 	0.64761 0.32479 0.09206 0.28900
O 	O 	0.60831 0.26443 0.95380 -0.63100
O 	O 	0.73846 0.35222 0.01480 -0.64100
O 	O 	0.81057 0.27440 0.96843 -0.34200
O 	O 	0.70083 0.17535 0.00056 -0.42000
O 	O 	0.65938 0.34178 0.88214 -0.35800
O 	O 	0.48956 0.28326 0.99714 -0.35000
C 	C 	0.42860 0.23590 0.96431 0.30900
C 	C 	0.75688 0.49707 0.96491 0.29200
O 	O 	0.66910 0.44264 0.96619 -0.38400
O 	O 	0.45256 0.25167 0.92976 -0.37100
O 	O 	0.74073 0.29374 0.90522 -0.33500
C 	C 	0.76628 0.19715 0.98087 0.30900
O 	O 	0.61328 0.34256 0.06262 -0.35200
O 	O 	0.71455 0.31874 0.08933 -0.39600
H 	H 	0.56772 0.19772 0.94692 0.17900
H 	H 	0.78361 0.41480 0.02962 0.18300
Cu	Cu	0.62131 0.20922 0.50566 0.93200
Cu	Cu	0.69277 0.23492 0.42185 0.87900
Cu	Cu	0.64414 0.34709 0.45893 0.90500
Cu	Cu	0.63779 0.37961 0.54459 0.91400
C 	C 	0.65992 0.26575 0.58952 0.29300
O 	O 	0.49139 0.16365 0.51019 -0.34300
C 	C 	0.63035 0.31066 0.37349 0.28900
O 	O 	0.69437 0.34940 0.51139 -0.63100
O 	O 	0.60134 0.22058 0.45065 -0.64000
O 	O 	0.67529 0.14504 0.49618 -0.34700
O 	O 	0.77754 0.25117 0.46387 -0.42000
O 	O 	0.61667 0.30067 0.58346 -0.35400
O 	O 	0.67535 0.46712 0.46844 -0.35100
C 	C 	0.72484 0.52784 0.50099 0.31000
C 	C 	0.45919 0.20780 0.50048 0.29700
O 	O 	0.51563 0.29444 0.49976 -0.37800
O 	O 	0.71239 0.50494 0.53583 -0.36900
O 	O 	0.66309 0.21870 0.56003 -0.33600
C 	C 	0.75288 0.18574 0.48326 0.31200
O 	O 	0.61249 0.34446 0.40299 -0.35100
O 	O 	0.63452 0.24342 0.37585 -0.39600
H 	H 	0.76212 0.38828 0.51775 0.17900
H 	H 	0.53744 0.17674 0.43611 0.18200
C 	C 	0.78051 0.28771 0.78215 -0.03200
C 	C 	0.70131 0.25106 0.75378 0.02500
C 	C 	0.61690 0.21489 0.76590 -0.03200
C 	C 	0.61319 0.22056 0.80630 0.02400
C 	C 	0.69484 0.26996 0.83469 -0.06100
C 	C 	0.77856 0.30132 0.82257 0.03100
C 	C 	0.70826 0.25802 0.71156 0.02500
C 	C 	0.53453 0.17449 0.73685 0.10800
C 	C 	0.86307 0.35110 0.85130 0.11600
C 	C 	0.67148 0.18018 0.68317 -0.03300
C 	C 	0.65760 0.18211 0.64275 0.02900
C 	C 	0.68885 0.26447 0.63066 -0.06200
C 	C 	0.73888 0.34484 0.65909 0.02400
C 	C 	0.74461 0.34111 0.69947 -0.03200
C 	C 	0.64635 0.09786 0.69564 0.11100
C 	C 	0.78449 0.43130 0.64669 0.08200
C 	C 	0.60773 0.09900 0.61400 0.11200
C 	C 	0.78518 0.42208 0.72855 0.10900
C 	C 	0.86423 0.31293 0.76965 0.11200
C 	C 	0.52543 0.17560 0.81873 0.08100
N 	N 	0.56792 0.03261 0.59109 -0.08900
N 	N 	0.62630 0.03219 0.70564 -0.09700
N 	N 	0.82084 0.50025 0.63677 -0.10400
N 	N 	0.81752 0.48662 0.75178 -0.09300
N 	N 	0.46887 0.14227 0.71364 -0.09700
N 	N 	0.45546 0.13977 0.82868 -0.10600
N 	N 	0.93056 0.39086 0.87419 -0.08700
N 	N 	0.93102 0.33306 0.75964 -0.09600
C 	C 	0.70267 0.38390 0.27774 -0.03400
C 	C 	0.61830 0.35192 0.25478 0.02400
C 	C 	0.54206 0.32177 0.27292 -0.03400
C 	C 	0.54692 0.31276 0.31278 0.02700
C 	C 	0.62921 0.33703 0.33477 -0.06700
C 	C 	0.70834 0.37745 0.31783 0.02300
C 	C 	0.60729 0.34029 0.21097 0.02400
C 	C 	0.45827 0.29822 0.25030 0.11000
C 	C 	0.79524 0.41105 0.34155 0.08100
C 	C 	0.57459 0.25672 0.18843 -0.03400
C 	C 	0.58095 0.25006 0.14834 0.02300
C 	C 	0.62219 0.32742 0.13099 -0.06700
C 	C 	0.64751 0.40910 0.15260 0.02700
C 	C 	0.63845 0.41495 0.19245 -0.03400
C 	C 	0.53684 0.17830 0.20683 0.10500
C 	C 	0.68566 0.48770 0.13432 0.09900
C 	C 	0.54610 0.16386 0.12500 0.08100
C 	C 	0.66291 0.49809 0.21464 0.11100
C 	C 	0.78287 0.42093 0.25977 0.10600
C 	C 	0.46662 0.27564 0.33067 0.09900
N 	N 	0.51835 0.09510 0.10638 -0.10200
N 	N 	0.50675 0.11581 0.22157 -0.10200
N 	N 	0.71613 0.55042 0.11971 -0.09200
N 	N 	0.68243 0.56443 0.23240 -0.09400
N 	N 	0.39141 0.27943 0.23221 -0.09500
N 	N 	0.40253 0.24599 0.34496 -0.09300
N 	N 	0.86457 0.43779 0.36047 -0.10200
N 	N 	0.84679 0.45044 0.24537 -0.10200
C 	C 	0.77308 0.68183 0.52441 -0.01400
C 	C 	0.77887 0.62393 0.49855 -0.08800
C 	C 	0.83640 0.65856 0.47062 0.14400
C 	C 	0.88444 0.74937 0.46790 -0.06300
C 	C 	0.87880 0.80724 0.49379 -0.01300
C 	C 	0.82399 0.77340 0.52270 0.10100
Br	Br	0.82272 0.85189 0.56194 -0.18600
H 	H 	0.72954 0.65579 0.54615 0.07700
H 	H 	0.92772 0.77548 0.44606 0.09300
Br	Br	0.85594 0.58501 0.43796 -0.23700
C 	C 	0.88710 0.10584 0.52144 -0.06500
C 	C 	0.90398 0.07986 0.48630 -0.01100
C 	C 	0.87242 0.09003 0.45035 0.09600
C 	C 	0.82289 0.12444 0.44972 -0.01600
C 	C 	0.80449 0.14902 0.48477 -0.09800
C 	C 	0.83824 0.14105 0.52091 0.14600
Br	Br	0.82248 0.18188 0.56995 -0.20300
H 	H 	0.91152 0.09816 0.54919 0.08700
H 	H 	0.79792 0.13131 0.42188 0.04600
Br	Br	0.89471 0.05552 0.40170 -0.20100
C 	C 	0.23676 0.15332 0.52203 -0.06500
C 	C 	0.17459 0.08807 0.48882 -0.00900
C 	C 	0.20644 0.06279 0.45917 0.08800
C 	C 	0.29944 0.10075 0.46365 -0.01300
C 	C 	0.36118 0.16447 0.49731 -0.08900
C 	C 	0.32958 0.19106 0.52658 0.14500
Br	Br	0.41142 0.27575 0.57383 -0.22800
H 	H 	0.21239 0.17236 0.54504 0.08700
H 	H 	0.32382 0.08151 0.44072 0.05900
Br	Br	0.12434 0.97850 0.41189 -0.16100
C 	C 	0.80446 0.64380 0.00078 -0.02300
C 	C 	0.80169 0.59408 0.96705 -0.08300
C 	C 	0.82879 0.63379 0.93357 0.13600
C 	C 	0.85855 0.72221 0.93428 -0.06200
C 	C 	0.86226 0.77225 0.96812 -0.01400
C 	C 	0.83502 0.73261 0.00155 0.09900
Br	Br	0.84146 0.79932 0.04891 -0.17300
H 	H 	0.78225 0.61320 0.02638 0.06900
H 	H 	0.88053 0.75274 0.90865 0.08500
Br	Br	0.82360 0.56797 0.88618 -0.20100
C 	C 	0.81917 0.11818 0.01258 -0.02200
C 	C 	0.79875 0.14167 0.97823 -0.09100
C 	C 	0.80451 0.10765 0.94163 0.14100
C 	C 	0.83436 0.05413 0.94004 -0.05500
C 	C 	0.85763 0.03322 0.97458 -0.03100
C 	C 	0.84846 0.06431 0.01090 0.10200
Br	Br	0.87844 0.03625 0.05874 -0.19600
H 	H 	0.81330 0.14270 0.04074 0.04900
H 	H 	0.84154 0.03057 0.91201 0.08400
Br	Br	0.76890 0.13043 0.89340 -0.20200
C 	C 	0.27073 0.18481 0.94078 -0.01600
C 	C 	0.33058 0.17995 0.96637 -0.08700
C 	C 	0.29573 0.12010 0.99310 0.14300
C 	C 	0.20259 0.06831 0.99476 -0.05900
C 	C 	0.14274 0.07270 0.96898 -0.01700
C 	C 	0.17700 0.13029 0.94136 0.10200
Br	Br	0.09651 0.13064 0.90218 -0.18900
H 	H 	0.29691 0.23015 0.91996 0.07600
H 	H 	0.17632 0.02321 0.01567 0.08500
Br	Br	0.37239 0.10269 0.02549 -0.24500
