data_crystal

_cell_length_a 18.12680
_cell_length_b 19.63039
_cell_length_c 26.47143
_cell_angle_alpha 95.42692
_cell_angle_beta  95.42609
_cell_angle_gamma 126.42365

_symmetry_space_group_name_	'P 1'
_symmetry_space_group_name_H-M	'P 1'

loop_
_symmetry_equiv_pos_as_xyz
  x,y,z

loop_
_atom_site_label
_atom_site_type_symbol
_atom_site_fract_x
_atom_site_fract_y
_atom_site_fract_z
_atom_site_charge
C 	C 	0.96759 0.03943 0.97813 0.04400
C 	C 	0.91059 0.95004 0.97623 -0.05300
C 	C 	0.94856 0.90534 0.97243 0.04900
C 	C 	0.04299 0.94975 0.96964 -0.05200
C 	C 	0.10011 0.03892 0.97149 0.04900
C 	C 	0.06225 0.08371 0.97540 -0.05500
H 	H 	0.83748 0.91572 0.97849 0.07200
H 	H 	0.07250 0.91526 0.96723 0.06900
H 	H 	0.10653 0.15286 0.97716 0.07200
C 	C 	0.90328 0.00498 0.49244 0.05900
C 	C 	0.99935 0.05066 0.49289 -0.08200
C 	C 	0.03705 0.00602 0.48633 0.06900
C 	C 	0.97907 0.91608 0.47975 -0.07200
C 	C 	0.88358 0.87045 0.47955 0.06500
C 	C 	0.84556 0.91469 0.48569 -0.05900
H 	H 	0.04425 0.12037 0.49781 0.07700
H 	H 	0.00827 0.88160 0.47481 0.08100
H 	H 	0.77116 0.87896 0.48449 0.07900
Cu	Cu	0.67625 0.25305 0.00762 0.93300
Cu	Cu	0.76597 0.26708 0.90312 0.89300
Cu	Cu	0.71866 0.38132 0.93604 0.89400
Cu	Cu	0.65592 0.40005 0.03326 0.90100
C 	C 	0.68683 0.31703 0.11297 0.29200
O 	O 	0.53704 0.19019 0.00215 -0.33300
C 	C 	0.70165 0.32050 0.82510 0.28800
O 	O 	0.74056 0.38478 0.00892 -0.63700
O 	O 	0.66752 0.25795 0.93279 -0.63800
O 	O 	0.73942 0.19711 0.01100 -0.34200
O 	O 	0.84392 0.28740 0.96430 -0.41900
O 	O 	0.64009 0.34425 0.09475 -0.36400
O 	O 	0.77653 0.50333 0.94410 -0.36400
C 	C 	0.75977 0.54613 0.97649 0.30200
C 	C 	0.49456 0.21934 0.98130 0.29200
O 	O 	0.54406 0.29813 0.97228 -0.38700
O 	O 	0.69935 0.50809 0.00754 -0.37300
O 	O 	0.70244 0.27172 0.08184 -0.34900
C 	C 	0.81412 0.22558 0.99085 0.30200
O 	O 	0.71630 0.38112 0.86109 -0.36800
O 	O 	0.70951 0.26111 0.83684 -0.39100
H 	H 	0.80645 0.42764 0.02663 0.16900
H 	H 	0.60449 0.21660 0.91108 0.18200
Cu	Cu	0.61289 0.22592 0.50204 0.92700
Cu	Cu	0.66327 0.18871 0.39135 0.89500
Cu	Cu	0.64306 0.34349 0.42472 0.91500
Cu	Cu	0.57705 0.36448 0.52118 0.90500
C 	C 	0.62764 0.30092 0.60585 0.29000
O 	O 	0.47291 0.15452 0.49960 -0.35300
C 	C 	0.67866 0.30485 0.32859 0.28800
O 	O 	0.66541 0.35350 0.49826 -0.63600
O 	O 	0.59507 0.22146 0.42575 -0.62500
O 	O 	0.69858 0.19233 0.51021 -0.35900
O 	O 	0.63850 0.10568 0.43119 -0.40200
O 	O 	0.57414 0.32094 0.58668 -0.37000
O 	O 	0.69523 0.46325 0.42818 -0.36600
C 	C 	0.68025 0.50496 0.46261 0.30600
C 	C 	0.42374 0.17674 0.47769 0.30000
O 	O 	0.46673 0.25266 0.46464 -0.37200
O 	O 	0.60960 0.46283 0.48704 -0.36500
O 	O 	0.64295 0.25359 0.57640 -0.35300
C 	C 	0.68938 0.13192 0.47732 0.30700
O 	O 	0.63542 0.33107 0.35043 -0.36000
O 	O 	0.72566 0.28644 0.35711 -0.39800
H 	H 	0.73088 0.39977 0.51549 0.17500
H 	H 	0.52851 0.18088 0.40894 0.17300
C 	C 	0.75685 0.35351 0.74226 -0.03000
C 	C 	0.68453 0.32392 0.77027 -0.07800
C 	C 	0.59441 0.29036 0.74466 0.09100
C 	C 	0.57699 0.28342 0.69086 -0.03300
C 	C 	0.64882 0.31108 0.66255 -0.07700
C 	C 	0.74020 0.34891 0.68867 0.08700
C 	C 	0.81968 0.38299 0.65963 -0.20100
H 	H 	0.82603 0.37933 0.76215 0.05000
H 	H 	0.50712 0.25522 0.67087 0.06100
C 	C 	0.51608 0.25952 0.77427 -0.20400
H 	H 	0.88837 0.42377 0.68637 0.08400
H 	H 	0.81947 0.42345 0.63307 0.08200
H 	H 	0.81296 0.32835 0.63704 0.09500
H 	H 	0.53599 0.31233 0.80570 0.09300
H 	H 	0.50113 0.20389 0.79128 0.08300
H 	H 	0.45091 0.23871 0.74904 0.09000
C 	C 	0.73130 0.38765 0.25752 -0.02700
C 	C 	0.68601 0.30820 0.27375 -0.08200
C 	C 	0.64908 0.23251 0.23763 0.08500
C 	C 	0.65578 0.23731 0.18545 -0.02700
C 	C 	0.69803 0.31635 0.16886 -0.07400
C 	C 	0.73981 0.39270 0.20556 0.08200
C 	C 	0.79118 0.47934 0.18938 -0.19600
H 	H 	0.76057 0.44576 0.28543 0.05800
H 	H 	0.62468 0.17893 0.15738 0.06800
C 	C 	0.60142 0.14646 0.25438 -0.19700
H 	H 	0.83917 0.53253 0.22290 0.08400
H 	H 	0.74029 0.48883 0.17223 0.08000
H 	H 	0.83414 0.48390 0.16066 0.07100
H 	H 	0.54588 0.13429 0.27563 0.06400
H 	H 	0.65332 0.14589 0.27982 0.06200
H 	H 	0.56818 0.09261 0.22082 0.08500
C 	C 	0.74797 0.63456 0.42215 -0.00500
C 	C 	0.73181 0.59852 0.46691 -0.08700
C 	C 	0.76209 0.65191 0.51566 0.11500
C 	C 	0.80648 0.74009 0.51895 -0.06600
C 	C 	0.82393 0.77623 0.47435 0.00100
C 	C 	0.79371 0.72310 0.42561 0.06000
N 	N 	0.81022 0.75907 0.37962 -0.01800
H 	H 	0.72381 0.59367 0.38456 0.06900
H 	H 	0.83099 0.78121 0.55650 0.08600
N 	N 	0.75112 0.61730 0.56203 -0.02400
O 	O 	0.85232 0.74533 0.34770 -0.09600
O 	O 	0.77804 0.80092 0.36804 -0.09200
O 	O 	0.79000 0.58090 0.57317 -0.12400
O 	O 	0.70865 0.62830 0.59504 -0.09400
C 	C 	0.75434 0.07201 0.52768 -0.00400
C 	C 	0.75597 0.11255 0.48651 -0.09400
C 	C 	0.81678 0.12876 0.45181 0.11000
C 	C 	0.86778 0.09643 0.45539 -0.06600
C 	C 	0.86170 0.05091 0.49455 0.00100
C 	C 	0.80804 0.04221 0.53238 0.05900
N 	N 	0.80780 0.00304 0.57543 -0.02300
H 	H 	0.71034 0.06235 0.55556 0.06300
H 	H 	0.91093 0.10544 0.42710 0.07600
N 	N 	0.82773 0.17904 0.41328 -0.03500
O 	O 	0.88621 0.03113 0.60431 -0.08800
O 	O 	0.72912 0.94211 0.58725 -0.08500
O 	O 	0.85861 0.25842 0.42699 -0.14100
O 	O 	0.81311 0.14749 0.36479 -0.12200
C 	C 	0.29005 0.09681 0.52292 -0.01100
C 	C 	0.32292 0.12503 0.47761 -0.09000
C 	C 	0.26146 0.11471 0.43527 0.11400
C 	C 	0.16931 0.07979 0.43954 -0.06700
C 	C 	0.13709 0.05308 0.48516 -0.00400
C 	C 	0.19783 0.06162 0.52708 0.06100
N 	N 	0.16613 0.03501 0.57407 -0.02300
H 	H 	0.33726 0.10558 0.55581 0.06500
H 	H 	0.12190 0.07098 0.40675 0.07900
N 	N 	0.29189 0.13793 0.38751 -0.02200
O 	O 	0.17642 0.98207 0.59348 -0.08500
O 	O 	0.13229 0.06776 0.59907 -0.08900
O 	O 	0.32772 0.10553 0.36441 -0.10800
O 	O 	0.27818 0.18697 0.36546 -0.09000
C 	C 	0.84374 0.75205 0.92791 -0.07000
C 	C 	0.89097 0.81271 0.97418 -0.00300
C 	C 	0.89239 0.78526 0.02130 0.06700
C 	C 	0.84904 0.69792 0.02153 0.00000
C 	C 	0.80378 0.63741 0.97517 -0.09600
C 	C 	0.79950 0.66444 0.92815 0.12000
N 	N 	0.74912 0.60306 0.88076 -0.02200
H 	H 	0.84224 0.77304 0.89165 0.08000
H 	H 	0.85130 0.67722 0.05782 0.05500
N 	N 	0.94002 0.84637 0.06888 -0.02100
O 	O 	0.65985 0.54232 0.87516 -0.09500
O 	O 	0.79116 0.61159 0.84197 -0.08900
O 	O 	0.91287 0.89158 0.08468 -0.07700
O 	O 	0.00683 0.85302 0.09792 -0.08600
C 	C 	0.89480 0.09957 0.93661 -0.06700
C 	C 	0.92770 0.08651 0.98186 -0.00300
C 	C 	0.92039 0.11663 0.03026 0.06500
C 	C 	0.88162 0.16078 0.03283 0.00500
C 	C 	0.85020 0.17517 0.98753 -0.10300
C 	C 	0.85451 0.14214 0.93907 0.11100
N 	N 	0.81366 0.14778 0.89226 -0.03800
H 	H 	0.89852 0.07482 0.89932 0.07900
H 	H 	0.87732 0.18499 0.07010 0.06400
N 	N 	0.95161 0.10196 0.07679 -0.01900
O 	O 	0.86539 0.18907 0.85915 -0.12500
O 	O 	0.72358 0.10461 0.88046 -0.15000
O 	O 	0.03914 0.13503 0.09025 -0.08300
O 	O 	0.89383 0.06065 0.10748 -0.08500
C 	C 	0.33775 0.16083 0.93317 -0.00600
C 	C 	0.39326 0.17103 0.97831 -0.10000
C 	C 	0.35241 0.13949 0.02156 0.12400
C 	C 	0.25683 0.09719 0.01893 -0.06400
C 	C 	0.20117 0.08615 0.97369 -0.00200
C 	C 	0.24175 0.11797 0.93048 0.05800
N 	N 	0.18570 0.10657 0.88380 -0.01800
H 	H 	0.36891 0.18543 0.89996 0.05600
H 	H 	0.22583 0.07318 0.05229 0.08300
N 	N 	0.40855 0.15365 0.06895 -0.02400
O 	O 	0.20727 0.17317 0.86418 -0.09500
O 	O 	0.11730 0.02937 0.85897 -0.09500
O 	O 	0.43906 0.21878 0.10524 -0.09300
O 	O 	0.41948 0.09596 0.07817 -0.09000
