data_crystal

_cell_length_a 28.89830
_cell_length_b 27.41838
_cell_length_c 30.60595
_cell_angle_alpha 89.93106
_cell_angle_beta  89.92784
_cell_angle_gamma 90.90042

_symmetry_space_group_name_	'P 1'
_symmetry_space_group_name_H-M	'P 1'

loop_
_symmetry_equiv_pos_as_xyz
  x,y,z

loop_
_atom_site_label
_atom_site_type_symbol
_atom_site_fract_x
_atom_site_fract_y
_atom_site_fract_z
_atom_site_charge
Zn	Zn	0.49884 0.47772 0.00296 1.22600
C 	C 	0.54947 0.56928 0.99792 0.32800
O 	O 	0.53295 0.44391 0.04851 -0.46300
O 	O 	0.52358 0.58265 0.03109 -0.43900
O 	O 	0.57042 0.50632 0.08113 -0.46800
C 	C 	0.42697 0.53705 0.03492 0.33500
O 	O 	0.44852 0.52285 0.99955 -0.43500
O 	O 	0.44480 0.52820 0.07361 -0.48800
C 	C 	0.57173 0.46353 0.06238 0.33400
O 	O 	0.44182 0.41591 0.00455 -0.30800
Zn	Zn	0.51098 0.53896 0.08464 1.17900
O 	O 	0.54766 0.52400 0.98335 -0.40600
C 	C 	0.46037 0.40044 0.96867 0.28500
O 	O 	0.49524 0.42632 0.95453 -0.33900
Zn	Zn	0.36653 0.11090 0.98476 1.22800
C 	C 	0.38749 0.11245 0.07661 0.33400
O 	O 	0.31104 0.07892 0.01028 -0.41600
O 	O 	0.34818 0.13412 0.08453 -0.42400
O 	O 	0.27405 0.15111 0.01737 -0.49400
C 	C 	0.39768 0.21111 0.98358 0.31800
O 	O 	0.38362 0.17429 0.95936 -0.42600
O 	O 	0.38484 0.21386 0.02459 -0.44200
C 	C 	0.27305 0.10330 0.01766 0.33300
O 	O 	0.34336 0.08727 0.91341 -0.28400
Zn	Zn	0.32514 0.18792 0.04304 1.18000
O 	O 	0.40551 0.11390 0.03723 -0.39000
C 	C 	0.37618 0.05562 0.91652 0.28800
O 	O 	0.39906 0.05658 0.95276 -0.31200
C 	C 	0.51468 0.95820 0.26315 0.15200
C 	C 	0.48778 0.99166 0.24008 -0.05700
H 	H 	0.46554 0.01629 0.25773 0.08200
C 	C 	0.49067 0.99423 0.19439 0.06500
C 	C 	0.51963 0.96235 0.17175 -0.02600
C 	C 	0.54717 0.92946 0.19481 0.05800
C 	C 	0.54373 0.92653 0.24043 -0.06100
H 	H 	0.56447 0.90068 0.25833 0.10200
N 	N 	0.51445 0.95825 0.31013 -0.17300
C 	C 	0.48805 0.92430 0.33224 0.20300
C 	C 	0.48842 0.92303 0.37826 -0.07000
C 	C 	0.51646 0.95651 0.40125 0.06500
C 	C 	0.54129 0.99267 0.37816 -0.05600
C 	C 	0.54060 0.99239 0.33216 0.20900
C 	C 	0.45992 0.89011 0.40144 0.01700
C 	C 	0.46058 0.88930 0.44703 -0.05000
C 	C 	0.49257 0.91878 0.47048 0.02200
C 	C 	0.51865 0.95468 0.44749 -0.02100
C 	C 	0.54531 0.99007 0.47041 0.02900
C 	C 	0.56487 0.02962 0.40119 0.01100
C 	C 	0.56512 0.02960 0.44677 -0.05300
C 	C 	0.49734 0.91482 0.51662 0.02200
C 	C 	0.52383 0.95030 0.53958 -0.02200
C 	C 	0.54969 0.98644 0.51663 0.03000
O 	O 	0.56558 0.02473 0.31013 -0.12800
O 	O 	0.46237 0.89262 0.31030 -0.18800
H 	H 	0.58163 0.05956 0.38391 0.07100
H 	H 	0.57851 0.06159 0.46329 0.06200
H 	H 	0.43601 0.86609 0.38430 0.05600
H 	H 	0.43450 0.86767 0.46378 0.05700
C 	C 	0.58107 0.01651 0.54023 -0.05600
C 	C 	0.58123 0.01602 0.58581 0.01100
C 	C 	0.55326 0.98253 0.60888 -0.06400
C 	C 	0.52616 0.94829 0.58581 0.06500
C 	C 	0.47824 0.87479 0.54007 -0.04900
C 	C 	0.47924 0.87409 0.58565 0.01700
C 	C 	0.50247 0.91120 0.60881 -0.07000
C 	C 	0.55340 0.98138 0.65488 0.20800
N 	N 	0.52876 0.94594 0.67693 -0.18000
C 	C 	0.50397 0.91077 0.65483 0.20200
C 	C 	0.52936 0.94537 0.72391 0.15800
C 	C 	0.56738 0.92618 0.74620 -0.10800
C 	C 	0.56871 0.92710 0.79196 0.08400
C 	C 	0.53168 0.94661 0.81545 -0.09000
C 	C 	0.49333 0.96533 0.79332 0.08000
C 	C 	0.49233 0.96487 0.74750 -0.10600
O 	O 	0.57701 0.01475 0.67688 -0.18300
O 	O 	0.48143 0.87645 0.67677 -0.17700
H 	H 	0.59594 0.91112 0.72792 0.09300
H 	H 	0.46300 0.97965 0.73020 0.08800
H 	H 	0.60710 0.03836 0.52367 0.06200
H 	H 	0.60458 0.04055 0.60305 0.06300
H 	H 	0.46481 0.84295 0.52333 0.05800
H 	H 	0.46315 0.84366 0.60279 0.06000
H 	H 	0.53282 0.94746 0.85087 0.09100
H 	H 	0.52154 0.96390 0.13639 0.10200
Zn	Zn	0.70691 0.82177 0.99416 1.22800
C 	C 	0.66634 0.82320 0.08074 0.33300
O 	O 	0.77372 0.83362 0.00136 -0.38700
O 	O 	0.67625 0.77679 0.08453 -0.42100
O 	O 	0.77447 0.80929 0.07239 -0.40100
C 	C 	0.67743 0.72153 0.99133 0.30900
O 	O 	0.66359 0.76692 0.99066 -0.43600
O 	O 	0.71493 0.71040 0.01306 -0.39000
C 	C 	0.79263 0.83500 0.04035 0.31600
O 	O 	0.71609 0.81331 0.91764 -0.25100
Zn	Zn	0.73803 0.75044 0.06108 1.20400
O 	O 	0.68536 0.84970 0.04954 -0.41400
C 	C 	0.69675 0.85570 0.91537 0.28000
O 	O 	0.68630 0.87485 0.95263 -0.31000
Zn	Zn	0.17835 0.67988 0.98901 1.23100
C 	C 	0.15274 0.68657 0.07961 0.33900
O 	O 	0.14049 0.73868 0.98927 -0.39200
O 	O 	0.16762 0.73212 0.07927 -0.42800
O 	O 	0.20182 0.78980 0.00050 -0.45500
C 	C 	0.26984 0.66215 0.02141 0.31200
O 	O 	0.24350 0.66249 0.98645 -0.39400
O 	O 	0.26020 0.68997 0.05490 -0.45300
C 	C 	0.15914 0.78256 0.98717 0.33700
O 	O 	0.17848 0.68133 0.91161 -0.23000
Zn	Zn	0.22835 0.75104 0.04727 1.19100
O 	O 	0.16502 0.65664 0.04834 -0.42300
C 	C 	0.14877 0.64549 0.91487 0.26400
O 	O 	0.13902 0.63179 0.95431 -0.32200
C 	C 	0.98087 0.57962 0.26448 0.17900
C 	C 	0.94879 0.55195 0.24026 -0.06700
H 	H 	0.92216 0.53085 0.25704 0.09100
C 	C 	0.95234 0.54987 0.19463 0.06200
C 	C 	0.98809 0.57555 0.17328 0.01400
C 	C 	0.02011 0.60337 0.19738 0.03600
C 	C 	0.01578 0.60637 0.24291 -0.08100
H 	H 	0.04076 0.62744 0.26171 0.09500
N 	N 	0.98089 0.57644 0.31132 -0.16500
C 	C 	0.00465 0.53970 0.33127 0.18600
C 	C 	0.00399 0.53498 0.37706 -0.09100
C 	C 	0.98021 0.56931 0.40223 0.08700
C 	C 	0.95488 0.60583 0.38122 -0.07100
C 	C 	0.95613 0.60924 0.33530 0.20800
C 	C 	0.02493 0.49530 0.39770 0.01800
C 	C 	0.02355 0.49069 0.44306 -0.04900
C 	C 	0.00474 0.52805 0.46917 0.00100
C 	C 	0.98061 0.56622 0.44845 -0.00200
C 	C 	0.95515 0.59998 0.47347 0.02200
C 	C 	0.92712 0.63690 0.40608 0.02000
C 	C 	0.92570 0.63267 0.45150 -0.04700
C 	C 	0.00751 0.52674 0.51556 0.00300
C 	C 	0.98203 0.56047 0.54059 -0.00400
C 	C 	0.95788 0.59865 0.51989 0.02300
O 	O 	0.93339 0.64407 0.31528 -0.15800
O 	O 	0.02821 0.50865 0.30743 -0.15400
H 	H 	0.90520 0.66326 0.39023 0.06400
H 	H 	0.89988 0.65295 0.46902 0.06100
H 	H 	0.04084 0.46685 0.37858 0.05900
H 	H 	0.03484 0.45687 0.45734 0.05600
C 	C 	0.93905 0.63596 0.54605 -0.04700
C 	C 	0.93782 0.63139 0.59144 0.02200
C 	C 	0.95881 0.59171 0.61205 -0.07300
C 	C 	0.98243 0.55731 0.58680 0.08900
C 	C 	0.03700 0.49408 0.53748 -0.05200
C 	C 	0.03545 0.48967 0.58286 0.01900
C 	C 	0.00762 0.52064 0.60774 -0.09700
C 	C 	0.95835 0.58701 0.65788 0.20800
N 	N 	0.98175 0.54992 0.67770 -0.17100
C 	C 	0.00620 0.51696 0.65360 0.18800
C 	C 	0.98186 0.54642 0.72454 0.18400
C 	C 	0.01747 0.56887 0.74862 -0.13300
C 	C 	0.01777 0.56537 0.79428 0.06000
C 	C 	0.98249 0.53919 0.81584 -0.06400
C 	C 	0.94671 0.51675 0.79188 0.07900
C 	C 	0.94647 0.52039 0.74615 -0.11000
O 	O 	0.93538 0.61841 0.68185 -0.16400
O 	O 	0.02841 0.48165 0.67349 -0.19300
H 	H 	0.04463 0.58920 0.73184 0.09100
H 	H 	0.91897 0.50310 0.72743 0.09200
H 	H 	0.92763 0.66974 0.53179 0.06400
H 	H 	0.92193 0.65982 0.61059 0.06600
H 	H 	0.06293 0.47395 0.51996 0.05600
H 	H 	0.05736 0.46327 0.59869 0.05300
H 	H 	0.98294 0.53620 0.85118 0.08900
H 	H 	0.99190 0.57261 0.13812 0.11300
Zn	Zn	0.84095 0.38161 0.99892 1.22800
C 	C 	0.83789 0.40042 0.90666 0.31300
O 	O 	0.78154 0.41471 0.99298 -0.36800
O 	O 	0.79740 0.37818 0.90439 -0.34900
O 	O 	0.74081 0.34403 0.98275 -0.41600
C 	C 	0.86951 0.28462 0.97598 0.33200
O 	O 	0.86374 0.31564 0.00819 -0.44900
O 	O 	0.84539 0.28886 0.93993 -0.46100
C 	C 	0.74218 0.39030 0.99360 0.31700
O 	O 	0.83520 0.38828 0.07597 -0.30000
Zn	Zn	0.78389 0.31621 0.94093 1.19700
O 	O 	0.86533 0.39261 0.93998 -0.39800
C 	C 	0.86660 0.42229 0.07157 0.29100
O 	O 	0.88026 0.43095 0.03206 -0.32800
Zn	Zn	0.01232 0.03255 0.03449 1.21800
C 	C 	0.04393 0.93866 0.00560 0.31800
O 	O 	0.95401 0.99548 0.03666 -0.35800
O 	O 	0.02234 0.92171 0.04038 -0.39800
O 	O 	0.96717 0.97235 0.10664 -0.45400
C 	C 	0.09882 0.02563 0.07835 0.31000
O 	O 	0.06247 0.05308 0.07315 -0.45600
O 	O 	0.09300 0.97956 0.08860 -0.41100
C 	C 	0.94007 0.97304 0.07224 0.34000
O 	O 	0.97303 0.10286 0.05707 -0.26800
Zn	Zn	0.03148 0.95301 0.10072 1.18400
O 	O 	0.04748 0.98606 0.99891 -0.39900
C 	C 	0.97726 0.11679 0.01675 0.26000
O 	O 	0.99861 0.08702 0.99113 -0.29300
C 	C 	0.89983 0.24241 0.98195 -0.10300
C 	C 	0.94001 0.24691 0.00724 0.04900
C 	C 	0.96662 0.20606 0.01614 -0.05100
C 	C 	0.95330 0.16000 0.00022 0.06000
C 	C 	0.91344 0.15525 0.97339 -0.12500
C 	C 	0.88737 0.19699 0.96401 0.10300
H 	H 	0.99702 0.20992 0.03663 0.07500
H 	H 	0.85662 0.19397 0.94393 0.07200
H 	H 	0.95033 0.28202 0.02057 0.05000
C 	C 	0.89849 0.10592 0.95518 0.79200
F 	F 	0.89208 0.07282 0.98889 -0.43100
F 	F 	0.85735 0.10855 0.93223 -0.41200
F 	F 	0.93211 0.08903 0.92706 -0.40900
C 	C 	0.91024 0.48841 0.81479 -0.01500
C 	C 	0.90620 0.43796 0.80825 -0.00800
C 	C 	0.87833 0.40955 0.83590 -0.01600
C 	C 	0.85426 0.43125 0.87040 0.02900
C 	C 	0.85383 0.48274 0.87399 -0.09200
C 	C 	0.88288 0.51095 0.84658 0.05300
H 	H 	0.87784 0.37023 0.83231 0.06300
H 	H 	0.88560 0.55010 0.85101 0.09700
H 	H 	0.92666 0.42041 0.78328 0.05900
C 	C 	0.82510 0.50730 0.90890 0.78200
F 	F 	0.82046 0.55661 0.90050 -0.38000
F 	F 	0.78119 0.48651 0.91048 -0.37800
F 	F 	0.84618 0.50185 0.94911 -0.42100
C 	C 	0.88097 0.45353 0.10805 -0.08600
C 	C 	0.90892 0.43481 0.14116 0.05500
C 	C 	0.92962 0.46619 0.17151 -0.07700
C 	C 	0.92183 0.51654 0.16955 0.11300
C 	C 	0.88907 0.53483 0.13948 -0.15400
C 	C 	0.87050 0.50327 0.10754 0.11300
H 	H 	0.95359 0.45171 0.19524 0.09300
H 	H 	0.84862 0.51747 0.08190 0.09600
H 	H 	0.91660 0.39626 0.14199 0.05100
C 	C 	0.87556 0.58808 0.13994 0.79700
F 	F 	0.83348 0.59456 0.11932 -0.41800
F 	F 	0.87129 0.60472 0.18241 -0.43400
F 	F 	0.90890 0.61574 0.11844 -0.41200
C 	C 	0.13023 0.82476 0.97575 -0.06700
C 	C 	0.14911 0.87229 0.97689 0.03200
C 	C 	0.11992 0.91235 0.97868 -0.02500
C 	C 	0.07179 0.90508 0.97959 0.02500
C 	C 	0.05329 0.85874 0.96828 -0.09000
C 	C 	0.08248 0.81828 0.96870 0.09300
H 	H 	0.13465 0.94837 0.98442 0.07500
H 	H 	0.06774 0.78191 0.96575 0.13300
H 	H 	0.18617 0.87810 0.97947 0.07400
C 	C 	0.00200 0.85140 0.96004 0.73400
F 	F 	0.99470 0.81451 0.92988 -0.34400
F 	F 	0.98000 0.83872 0.99865 -0.37800
F 	F 	0.98265 0.89350 0.94364 -0.37800
C 	C 	0.05401 0.59058 0.81978 -0.02000
C 	C 	0.09759 0.56965 0.82455 -0.00700
C 	C 	0.12978 0.58984 0.85362 -0.02800
C 	C 	0.11881 0.63130 0.87808 0.04600
C 	C 	0.07614 0.65491 0.87084 -0.10300
C 	C 	0.04364 0.63357 0.84216 0.05300
H 	H 	0.16258 0.57204 0.85852 0.06900
H 	H 	0.00983 0.64949 0.83811 0.09000
H 	H 	0.10588 0.53664 0.80695 0.05200
C 	C 	0.06429 0.70116 0.89533 0.78200
F 	F 	0.10005 0.73501 0.89139 -0.43300
F 	F 	0.02459 0.72221 0.87913 -0.40100
F 	F 	0.05722 0.69035 0.93899 -0.42900
C 	C 	0.12352 0.66841 0.11568 -0.11700
C 	C 	0.08638 0.69604 0.13068 0.07200
C 	C 	0.05434 0.67569 0.15993 -0.08900
C 	C 	0.05935 0.62767 0.17487 0.12200
C 	C 	0.09927 0.60121 0.16318 -0.17100
C 	C 	0.13048 0.62154 0.13261 0.12200
H 	H 	0.02436 0.69645 0.16944 0.09800
H 	H 	0.15966 0.60064 0.12127 0.06500
H 	H 	0.08104 0.73246 0.11805 0.05400
C 	C 	0.10735 0.55052 0.18145 0.80000
F 	F 	0.15180 0.53504 0.17279 -0.44400
F 	F 	0.10141 0.55038 0.22629 -0.44800
F 	F 	0.07638 0.51771 0.16284 -0.45400
C 	C 	0.90060 0.93877 0.06952 -0.08000
C 	C 	0.85927 0.95361 0.05016 0.06200
C 	C 	0.82448 0.91945 0.04051 -0.01900
C 	C 	0.83081 0.86977 0.04933 0.05200
C 	C 	0.87309 0.85417 0.06791 -0.10100
C 	C 	0.90685 0.88939 0.07960 0.11800
H 	H 	0.79240 0.93161 0.02612 0.10400
H 	H 	0.93889 0.87821 0.09469 0.06400
H 	H 	0.85433 0.99164 0.04203 0.10400
C 	C 	0.88228 0.80040 0.07545 0.79300
F 	F 	0.92879 0.79226 0.08284 -0.39900
F 	F 	0.85757 0.78423 0.11150 -0.42900
F 	F 	0.86923 0.77327 0.03927 -0.40400
C 	C 	0.60890 0.90781 0.81552 -0.02200
C 	C 	0.61232 0.85759 0.82280 -0.00000
C 	C 	0.64485 0.83991 0.85233 -0.02500
C 	C 	0.67432 0.87236 0.87488 0.04700
C 	C 	0.67526 0.92239 0.86309 -0.10200
C 	C 	0.64107 0.94003 0.83468 0.06000
H 	H 	0.64489 0.80132 0.86001 0.08000
H 	H 	0.63862 0.97884 0.82849 0.08800
H 	H 	0.58806 0.83245 0.80742 0.06100
C 	C 	0.71082 0.95743 0.88236 0.78600
F 	F 	0.71753 0.99752 0.85541 -0.40700
F 	F 	0.69564 0.97340 0.92266 -0.40700
F 	F 	0.75305 0.93495 0.88727 -0.40300
C 	C 	0.63803 0.84691 0.11418 -0.10900
C 	C 	0.59291 0.83009 0.12253 0.06100
C 	C 	0.56413 0.85603 0.15055 -0.08900
C 	C 	0.58033 0.89878 0.17099 0.11000
C 	C 	0.62702 0.91425 0.16500 -0.14900
C 	C 	0.65533 0.88826 0.13596 0.11900
H 	H 	0.52869 0.84369 0.15542 0.07100
H 	H 	0.69070 0.90023 0.13002 0.08000
H 	H 	0.57954 0.79786 0.10608 0.03800
C 	C 	0.64701 0.95712 0.19057 0.79600
F 	F 	0.69257 0.96711 0.17919 -0.41500
F 	F 	0.62172 0.99854 0.18258 -0.38100
F 	F 	0.64563 0.94671 0.23476 -0.43200
C 	C 	0.23031 0.07745 0.03050 -0.10200
C 	C 	0.18987 0.08422 0.00637 0.03900
C 	C 	0.14742 0.06692 0.02219 -0.04500
C 	C 	0.14451 0.04350 0.06296 0.02400
C 	C 	0.18540 0.03669 0.08788 -0.12300
C 	C 	0.22835 0.05223 0.07034 0.09400
H 	H 	0.11652 0.07194 0.00277 0.05500
H 	H 	0.26002 0.04653 0.08845 0.06600
H 	H 	0.19121 0.10367 0.97554 0.04600
C 	C 	0.18362 0.01271 0.13263 0.78200
F 	F 	0.17711 0.96294 0.12785 -0.44600
F 	F 	0.22431 0.02079 0.15555 -0.44800
F 	F 	0.14785 0.03136 0.15728 -0.45400
C 	C 	0.45481 0.98645 0.81833 -0.00800
C 	C 	0.44586 0.03640 0.81521 -0.01700
C 	C 	0.41578 0.05830 0.84478 -0.01400
C 	C 	0.39447 0.03050 0.87788 0.02700
C 	C 	0.39873 0.97911 0.87768 -0.09100
C 	C 	0.43016 0.95760 0.84857 0.05000
H 	H 	0.41161 0.09750 0.84391 0.07000
H 	H 	0.43664 0.91882 0.85039 0.08500
H 	H 	0.46417 0.05877 0.79141 0.06000
C 	C 	0.37225 0.94755 0.91018 0.78100
F 	F 	0.32767 0.96437 0.91543 -0.42900
F 	F 	0.36917 0.89965 0.89607 -0.42000
F 	F 	0.39468 0.94868 0.95005 -0.42300
C 	C 	0.41217 0.08775 0.11196 -0.10200
C 	C 	0.39014 0.05036 0.13570 0.06100
C 	C 	0.41556 0.02148 0.16429 -0.09200
C 	C 	0.46313 0.03028 0.17012 0.10200
C 	C 	0.48451 0.07139 0.14974 -0.15100
C 	C 	0.45909 0.09849 0.11924 0.11500
H 	H 	0.39866 0.99101 0.18071 0.08600
H 	H 	0.47593 0.12744 0.10068 0.10600
H 	H 	0.35377 0.04215 0.13044 0.05500
C 	C 	0.53494 0.08463 0.15799 0.79800
F 	F 	0.56268 0.05611 0.13194 -0.39800
F 	F 	0.54385 0.13317 0.14809 -0.40500
F 	F 	0.54642 0.07761 0.20140 -0.41100
C 	C 	0.45338 0.34964 0.95520 -0.07000
C 	C 	0.41101 0.33544 0.93667 0.02700
C 	C 	0.39524 0.28722 0.94051 -0.03800
C 	C 	0.42158 0.25305 0.96329 0.02400
C 	C 	0.46772 0.26509 0.97493 -0.11000
C 	C 	0.48304 0.31396 0.97153 0.09300
H 	H 	0.36062 0.27761 0.92960 0.05000
H 	H 	0.51634 0.32489 0.98492 0.08500
H 	H 	0.38845 0.36260 0.92281 0.04800
C 	C 	0.49903 0.22718 0.99473 0.78800
F 	F 	0.49265 0.18269 0.97409 -0.42600
F 	F 	0.54513 0.24080 0.99025 -0.41000
F 	F 	0.48898 0.22193 0.03868 -0.42500
C 	C 	0.38658 0.56866 0.03091 -0.11200
C 	C 	0.34976 0.56429 0.06046 0.03800
C 	C 	0.31152 0.59445 0.05658 -0.04500
C 	C 	0.30988 0.62985 0.02349 0.03000
C 	C 	0.34767 0.63557 0.99420 -0.12600
C 	C 	0.38521 0.60372 0.99751 0.09800
H 	H 	0.28303 0.59037 0.07943 0.07100
H 	H 	0.41377 0.60666 0.97464 0.07400
H 	H 	0.35051 0.53717 0.08622 0.04500
C 	C 	0.34777 0.67484 0.95909 0.78900
F 	F 	0.33625 0.71939 0.97693 -0.45400
F 	F 	0.39088 0.68024 0.93972 -0.43300
F 	F 	0.31609 0.66243 0.92700 -0.42700
C 	C 	0.61579 0.44622 0.04424 -0.10900
C 	C 	0.65679 0.45052 0.06839 0.05400
C 	C 	0.69847 0.43416 0.05087 -0.03500
C 	C 	0.69975 0.41416 0.00866 0.05400
C 	C 	0.65923 0.41382 0.98263 -0.10800
C 	C 	0.61708 0.42755 0.00156 0.10700
H 	H 	0.72958 0.43577 0.07058 0.08000
H 	H 	0.58539 0.42456 0.98285 0.05700
H 	H 	0.65625 0.46557 0.10110 0.05100
C 	C 	0.66043 0.39797 0.93512 0.78600
F 	F 	0.66018 0.34761 0.93288 -0.43900
F 	F 	0.62242 0.41488 0.91251 -0.41900
F 	F 	0.69968 0.41631 0.91456 -0.40600
C 	C 	0.58132 0.60518 0.97816 -0.09300
C 	C 	0.56651 0.65312 0.97204 0.03900
C 	C 	0.59871 0.69149 0.97067 -0.04000
C 	C 	0.64617 0.68214 0.97482 0.03600
C 	C 	0.66128 0.63328 0.97048 -0.11900
C 	C 	0.62859 0.59494 0.97488 0.10000
H 	H 	0.58652 0.72864 0.96991 0.07800
H 	H 	0.64007 0.55759 0.97766 0.08300
H 	H 	0.52989 0.66105 0.97226 0.06200
C 	C 	0.71123 0.62160 0.96026 0.79200
F 	F 	0.73521 0.61445 0.99874 -0.40800
F 	F 	0.71356 0.57948 0.93550 -0.37900
F 	F 	0.73225 0.65891 0.93662 -0.40200
