data_crystal

_cell_length_a 15.61124
_cell_length_b 20.30450
_cell_length_c 61.87604
_cell_angle_alpha 89.53966
_cell_angle_beta  89.54524
_cell_angle_gamma 119.47389

_symmetry_space_group_name_	'P 1'
_symmetry_space_group_name_H-M	'P 1'

loop_
_symmetry_equiv_pos_as_xyz
  x,y,z

loop_
_atom_site_label
_atom_site_type_symbol
_atom_site_fract_x
_atom_site_fract_y
_atom_site_fract_z
_atom_site_charge
C 	C 	0.19263 0.59143 0.03720 0.30700
Ni	Ni	0.40230 0.67327 0.01851 1.11900
Ni	Ni	0.25171 0.74208 0.01684 1.13100
O 	O 	0.28736 0.61695 0.04101 -0.35500
O 	O 	0.16109 0.63496 0.02798 -0.35100
O 	O 	0.46558 0.76604 0.03890 -0.36900
O 	O 	0.31837 0.75968 0.04576 -0.36700
O 	O 	0.34076 0.85264 0.00976 -0.34700
C 	C 	0.12274 0.52409 0.04845 -0.05800
C 	C 	0.68451 0.89224 0.02178 0.08700
C 	C 	0.63153 0.85279 0.00771 -0.08100
F 	F 	0.78103 0.42731 0.00448 -0.41900
F 	F 	0.84450 0.54227 0.01916 -0.43800
C 	C 	0.41435 0.79490 0.04744 0.30400
C 	C 	0.99793 0.16969 0.18790 0.28600
C 	C 	0.98390 0.14768 0.25199 0.25300
C 	C 	0.09918 0.01239 0.18264 0.33100
C 	C 	0.05698 0.97241 0.24516 0.27500
Ni	Ni	0.07867 0.09997 0.21806 1.12300
O 	O 	0.13871 0.05031 0.20026 -0.38600
O 	O 	0.93635 0.16101 0.20372 -0.37100
O 	O 	0.06743 0.15141 0.19073 -0.36600
O 	O 	0.09719 0.04745 0.24401 -0.37400
O 	O 	0.05218 0.17059 0.23658 -0.35700
C 	C 	0.99031 0.20147 0.16696 -0.10200
C 	C 	0.07296 0.23860 0.15322 0.03600
C 	C 	0.06537 0.26837 0.13335 -0.05100
C 	C 	0.97505 0.26109 0.12697 0.02300
C 	C 	0.89170 0.22187 0.14035 -0.06600
C 	C 	0.89928 0.19239 0.16028 0.02200
C 	C 	0.97061 0.30135 0.10745 -0.02500
C 	C 	0.00012 0.28730 0.08733 0.00800
C 	C 	0.02215 0.33859 0.07017 -0.04100
C 	C 	0.01455 0.40396 0.07304 0.05300
C 	C 	0.97365 0.41301 0.09227 -0.06200
C 	C 	0.95198 0.36198 0.10947 -0.01200
C 	C 	0.06998 0.46845 0.05907 0.06300
H 	H 	0.14343 0.24555 0.15807 0.04100
H 	H 	0.13031 0.29891 0.12317 0.05800
H 	H 	0.82149 0.21544 0.13549 0.05400
H 	H 	0.83438 0.16238 0.17049 0.03500
H 	H 	0.01196 0.23936 0.08542 0.05400
H 	H 	0.05196 0.33037 0.05520 0.08600
H 	H 	0.96583 0.46269 0.09449 0.06400
H 	H 	0.92723 0.37250 0.12481 0.04100
C 	C 	0.46076 0.85743 0.06254 -0.08400
C 	C 	0.46129 0.84125 0.08458 0.02300
C 	C 	0.45716 0.88953 0.10002 -0.06500
C 	C 	0.45324 0.95428 0.09336 0.03400
C 	C 	0.47320 0.97766 0.07161 -0.06400
C 	C 	0.47579 0.92881 0.05618 0.02100
C 	C 	0.40352 0.98418 0.10733 0.00400
C 	C 	0.43587 0.00664 0.12849 -0.03100
C 	C 	0.37696 0.01932 0.14314 -0.02900
C 	C 	0.28584 0.01011 0.13667 0.00300
C 	C 	0.25644 0.99248 0.11522 -0.02800
C 	C 	0.31491 0.97953 0.10059 -0.02900
C 	C 	0.21886 0.01182 0.15245 0.05700
C 	C 	0.16304 0.01211 0.16595 -0.09900
H 	H 	0.45417 0.78760 0.08970 0.03900
H 	H 	0.44685 0.87265 0.11692 0.05200
H 	H 	0.47627 0.02986 0.06641 0.07400
H 	H 	0.48093 0.94369 0.03918 0.05000
H 	H 	0.50453 0.01121 0.13382 0.04400
H 	H 	0.40061 0.03378 0.15969 0.04700
H 	H 	0.18649 0.98592 0.11007 0.05600
H 	H 	0.28897 0.96209 0.08432 0.06300
C 	C 	0.00958 0.18953 0.27217 -0.03300
C 	C 	0.97893 0.24289 0.27582 -0.02500
C 	C 	0.02823 0.30047 0.29069 -0.03000
C 	C 	0.10756 0.30429 0.30221 0.01700
C 	C 	0.13091 0.24610 0.30027 -0.04400
C 	C 	0.08209 0.18891 0.28526 -0.00500
C 	C 	0.17171 0.37246 0.31454 0.01600
C 	C 	0.27175 0.41645 0.30886 -0.03700
C 	C 	0.33259 0.48135 0.32050 -0.02100
C 	C 	0.29362 0.50296 0.33773 -0.00300
C 	C 	0.19333 0.46015 0.34308 -0.02000
C 	C 	0.13260 0.39498 0.33158 -0.03600
C 	C 	0.35764 0.56368 0.35146 0.06800
H 	H 	0.00837 0.34435 0.29239 0.05000
H 	H 	0.19002 0.24727 0.30962 0.05600
H 	H 	0.10467 0.14680 0.28287 0.04100
H 	H 	0.30227 0.40016 0.29549 0.04900
H 	H 	0.41015 0.51404 0.31635 0.05000
H 	H 	0.05543 0.36163 0.33601 0.05700
C 	C 	0.05698 0.93607 0.26587 -0.06200
C 	C 	0.13394 0.97365 0.28049 0.00700
C 	C 	0.13409 0.93849 0.30001 -0.06300
C 	C 	0.05686 0.86567 0.30517 0.04100
C 	C 	0.97819 0.82929 0.29091 -0.07200
C 	C 	0.97861 0.86402 0.27129 -0.00300
C 	C 	0.06307 0.82504 0.32449 0.00400
C 	C 	0.07671 0.85773 0.34497 -0.02600
C 	C 	0.11401 0.76356 0.35960 0.01600
C 	C 	0.09140 0.72685 0.33966 -0.02700
C 	C 	0.06626 0.75755 0.32214 -0.02800
H 	H 	0.19445 0.02947 0.27660 0.04700
H 	H 	0.19532 0.96707 0.31088 0.05600
H 	H 	0.91763 0.77353 0.29486 0.05400
H 	H 	0.91795 0.83498 0.26032 0.04200
H 	H 	0.07265 0.90902 0.34707 0.05000
H 	H 	0.09973 0.67744 0.33733 0.05300
H 	H 	0.05467 0.73125 0.30647 0.04900
C 	C 	0.77094 0.90942 0.24216 0.30700
C 	C 	0.80517 0.96436 0.17718 0.29500
Ni	Ni	0.84472 0.05510 0.21731 1.11300
Ni	Ni	0.91680 0.92797 0.20848 1.11400
O 	O 	0.74226 0.95053 0.23083 -0.36700
O 	O 	0.81406 0.87561 0.23232 -0.37700
O 	O 	0.02381 0.93010 0.22757 -0.36600
O 	O 	0.79282 0.01675 0.18659 -0.37100
O 	O 	0.80403 0.90935 0.18875 -0.37200
O 	O 	0.88978 0.10457 0.24739 -0.36300
O 	O 	0.00465 0.96308 0.18199 -0.38400
O 	O 	0.94231 0.02546 0.21780 -0.71000
H 	H 	0.93663 0.01518 0.23339 0.13300
C 	C 	0.80153 0.95978 0.15351 -0.08900
C 	C 	0.71520 0.90708 0.14329 0.02100
C 	C 	0.70885 0.90795 0.12075 -0.06400
C 	C 	0.78884 0.96154 0.10828 0.02600
C 	C 	0.87520 0.01412 0.11851 -0.05900
C 	C 	0.88158 0.01313 0.14103 0.02100
C 	C 	0.78393 0.95953 0.08450 0.00700
C 	C 	0.73810 0.99423 0.07349 -0.03400
C 	C 	0.71795 0.98094 0.05144 -0.02100
C 	C 	0.74011 0.93074 0.04055 0.01800
C 	C 	0.79492 0.90252 0.05105 -0.02200
C 	C 	0.81651 0.91667 0.07298 -0.02900
H 	H 	0.65265 0.86624 0.15280 0.03800
H 	H 	0.64208 0.86684 0.11296 0.05200
H 	H 	0.93740 0.05551 0.10902 0.05400
H 	H 	0.94866 0.05386 0.14879 0.03300
H 	H 	0.71429 0.02865 0.08217 0.05300
H 	H 	0.67915 0.00555 0.04323 0.07300
H 	H 	0.81409 0.86479 0.04267 0.07000
H 	H 	0.85384 0.89097 0.08126 0.05300
C 	C 	0.93726 0.98044 0.33629 -0.06400
C 	C 	0.91768 0.97574 0.31411 -0.01800
C 	C 	0.82016 0.94211 0.30697 -0.01200
C 	C 	0.74268 0.91582 0.32207 -0.02300
C 	C 	0.76213 0.92106 0.34419 -0.03900
C 	C 	0.79937 0.93068 0.28419 0.05600
C 	C 	0.78370 0.92059 0.26509 -0.12000
H 	H 	0.01254 0.00497 0.34167 0.06900
H 	H 	0.97809 0.99730 0.30253 0.03600
H 	H 	0.66722 0.88995 0.31669 0.04600
H 	H 	0.92198 0.24315 0.26598 0.04800
C 	C 	0.45751 0.66356 0.38111 0.34200
O 	O 	0.47255 0.73283 0.37947 -0.36900
C 	C 	0.40675 0.61157 0.36423 -0.10000
H 	H 	0.16290 0.47644 0.35648 0.05600
C 	C 	0.10178 0.82690 0.36248 -0.02400
C 	C 	0.17086 0.74789 0.37490 0.06700
C 	C 	0.22552 0.73925 0.38676 -0.06800
H 	H 	0.11785 0.85511 0.37792 0.07700
C 	C 	0.87775 0.94904 0.37467 0.02000
C 	C 	0.85940 0.95244 0.35141 0.01900
H 	H 	0.91562 0.86040 0.37185 0.05800
H 	H 	0.70145 0.89876 0.35573 0.04400
H 	H 	0.84837 0.03853 0.38396 0.06400
C 	C 	0.29929 0.73544 0.39950 0.31400
Ni	Ni	0.51690 0.80641 0.40567 1.11400
O 	O 	0.38122 0.80007 0.40289 -0.36200
O 	O 	0.29485 0.66819 0.40202 -0.35900
O 	O 	0.45772 0.63586 0.40012 -0.36200
O 	O 	0.63850 0.79283 0.40828 -0.34900
C 	C 	0.81710 0.95867 0.41004 0.00800
C 	C 	0.85225 0.98919 0.38936 -0.04500
C 	C 	0.89043 0.88941 0.38257 -0.03400
C 	C 	0.85540 0.85962 0.40331 0.01900
C 	C 	0.51602 0.60787 0.44486 0.31500
Ni	Ni	0.37034 0.63854 0.42379 1.12800
O 	O 	0.28712 0.63750 0.44861 -0.34800
O 	O 	0.57629 0.90089 0.42621 -0.35100
O 	O 	0.42163 0.58517 0.44294 -0.34100
O 	O 	0.45972 0.74099 0.42951 -0.71800
H 	H 	0.41395 0.75752 0.43496 0.16700
H 	H 	0.40280 0.45564 0.44886 0.10400
C 	C 	0.70349 0.82991 0.42290 0.32200
C 	C 	0.80200 0.88625 0.41523 -0.02500
H 	H 	0.78565 0.98455 0.42028 0.09000
H 	H 	0.85399 0.80784 0.40830 0.11300
F 	F 	0.51506 0.16934 0.42887 -0.40100
C 	C 	0.51208 0.42024 0.45135 -0.09200
C 	C 	0.48078 0.47396 0.44869 0.06700
C 	C 	0.54981 0.55076 0.44524 0.01400
C 	C 	0.65109 0.57229 0.44334 -0.07600
C 	C 	0.72516 0.64611 0.43246 0.77800
C 	C 	0.43881 0.33710 0.44824 0.78600
F 	F 	0.80259 0.63994 0.42359 -0.42400
F 	F 	0.68199 0.66497 0.41586 -0.45000
F 	F 	0.48364 0.30027 0.43867 -0.38500
F 	F 	0.36345 0.32872 0.43487 -0.41600
C 	C 	0.32139 0.66137 0.46827 0.28100
Ni	Ni	0.53683 0.75670 0.45472 1.14000
O 	O 	0.57712 0.67766 0.45055 -0.29800
O 	O 	0.41576 0.68631 0.47327 -0.29000
H 	H 	0.45528 0.97726 0.43122 0.07600
F 	F 	0.37969 0.05483 0.42826 -0.42100
H 	H 	0.20032 0.71936 0.47426 0.08700
C 	C 	0.64647 0.39678 0.46631 0.29800
O 	O 	0.73955 0.41414 0.46484 -0.32100
O 	O 	0.65923 0.24779 0.46291 -0.30200
C 	C 	0.54495 0.90351 0.44616 0.29500
O 	O 	0.67390 0.83341 0.44266 -0.28500
O 	O 	0.51854 0.84697 0.46030 -0.31100
C 	C 	0.51070 0.07442 0.45210 -0.08800
C 	C 	0.50343 0.00664 0.44452 0.05900
C 	C 	0.55798 0.97631 0.45400 -0.00000
C 	C 	0.45237 0.10708 0.44139 0.78300
F 	F 	0.73535 0.96954 0.46395 -0.43800
F 	F 	0.95386 0.60503 0.46446 -0.43700
F 	F 	0.04563 0.71877 0.47952 -0.41400
C 	C 	0.68219 0.52184 0.45071 0.05100
C 	C 	0.61316 0.44596 0.45543 0.02600
H 	H 	0.76003 0.54149 0.45250 0.12900
F 	F 	0.76260 0.70331 0.44748 -0.41600
F 	F 	0.39820 0.30331 0.46799 -0.41000
C 	C 	0.12253 0.52857 0.50378 0.05300
C 	C 	0.17876 0.66708 0.48309 0.05400
C 	C 	0.24783 0.64239 0.48570 0.02100
C 	C 	0.22248 0.57870 0.49918 -0.09400
C 	C 	0.30023 0.56024 0.50685 0.78400
F 	F 	0.32692 0.52876 0.49017 -0.43100
C 	C 	0.94821 0.48323 0.49486 0.30300
C 	C 	0.59804 0.18943 0.47529 0.29600
Ni	Ni	0.78863 0.33970 0.47434 1.12100
O 	O 	0.84940 0.27245 0.48386 -0.34200
O 	O 	0.58187 0.33369 0.47601 -0.28500
O 	O 	0.92830 0.43207 0.47985 -0.33100
C 	C 	0.62767 0.08134 0.47908 0.04800
C 	C 	0.57560 0.11282 0.46917 0.00700
C 	C 	0.62377 0.01548 0.47096 -0.08600
C 	C 	0.69045 0.98792 0.48033 0.77600
H 	H 	0.67456 0.11014 0.49261 0.06600
F 	F 	0.63599 0.92516 0.49344 -0.43800
F 	F 	0.40722 0.12886 0.45689 -0.39000
C 	C 	0.05017 0.54545 0.49679 0.01500
C 	C 	0.07885 0.61845 0.48839 -0.09400
H 	H 	0.10054 0.47437 0.51151 0.08500
C 	C 	0.00259 0.64143 0.48298 0.80000
F 	F 	0.93520 0.62191 0.49981 -0.44200
F 	F 	0.26571 0.50944 0.52408 -0.43700
F 	F 	0.38224 0.62524 0.51367 -0.42500
C 	C 	0.88913 0.28064 0.50322 0.31600
Ni	Ni	0.60061 0.30207 0.50600 1.13300
O 	O 	0.91479 0.34260 0.51442 -0.37400
O 	O 	0.63350 0.40545 0.51631 -0.35500
O 	O 	0.88492 0.47095 0.51057 -0.34100
O 	O 	0.55623 0.19875 0.49296 -0.31700
O 	O 	0.73243 0.32324 0.50234 -0.71300
H 	H 	0.72039 0.27154 0.50494 0.14600
F 	F 	0.76427 0.04299 0.49259 -0.44700
C 	C 	0.88637 0.21706 0.51409 -0.07400
C 	C 	0.68295 0.43449 0.53411 0.31700
Ni	Ni	0.81440 0.37003 0.52631 1.12300
O 	O 	0.58816 0.26139 0.53672 -0.36500
O 	O 	0.73601 0.40753 0.54292 -0.38000
C 	C 	0.88360 0.16757 0.52545 0.09400
F 	F 	0.22762 0.92629 0.99779 -0.42700
C 	C 	0.64339 0.23499 0.54536 0.30500
O 	O 	0.74092 0.27203 0.54317 -0.37900
C 	C 	0.96650 0.12842 0.55182 -0.03500
C 	C 	0.88022 0.11339 0.54105 0.03000
C 	C 	0.78889 0.05769 0.54933 -0.01300
H 	H 	0.03757 0.17050 0.54538 0.08500
H 	H 	0.72180 0.04476 0.54095 0.08400
C 	C 	0.65860 0.48235 0.54736 -0.06100
C 	C 	0.73386 0.55472 0.55272 0.02400
H 	H 	0.51185 0.39318 0.55553 0.05400
H 	H 	0.80015 0.58265 0.54282 0.07900
C 	C 	0.96092 0.09517 0.57203 -0.04100
C 	C 	0.78314 0.02373 0.56946 -0.02500
C 	C 	0.59996 0.17913 0.56228 -0.08400
C 	C 	0.57167 0.44821 0.55986 0.02900
C 	C 	0.72905 0.58695 0.57222 -0.04600
H 	H 	0.79086 0.64026 0.57705 0.06400
C 	C 	0.86882 0.04571 0.58146 0.01200
H 	H 	0.02777 0.11166 0.58095 0.06700
H 	H 	0.71179 0.98383 0.57627 0.05700
C 	C 	0.55881 0.13453 0.57686 0.05200
C 	C 	0.56713 0.48002 0.57950 -0.04900
C 	C 	0.64870 0.54696 0.58638 0.03200
H 	H 	0.50334 0.44990 0.59002 0.06000
C 	C 	0.86156 0.02605 0.60474 0.03100
C 	C 	0.91842 0.99610 0.61331 -0.06400
H 	H 	0.96096 0.98069 0.60267 0.05600
C 	C 	0.40309 0.03590 0.59256 -0.02600
C 	C 	0.50453 0.08450 0.59457 0.00200
H 	H 	0.36944 0.02551 0.57680 0.06300
C 	C 	0.65671 0.56870 0.60921 0.01100
H 	H 	0.77518 0.54541 0.61577 0.04800
H 	H 	0.26440 0.97314 0.60934 0.05200
C 	C 	0.80550 0.04458 0.61875 -0.06300
H 	H 	0.76176 0.06814 0.61237 0.05100
C 	C 	0.34351 0.00625 0.61102 -0.03100
C 	C 	0.54751 0.09625 0.61500 -0.03100
H 	H 	0.62617 0.13255 0.61668 0.04200
C 	C 	0.72928 0.56719 0.62213 -0.04000
C 	C 	0.59555 0.59456 0.61784 -0.03800
H 	H 	0.53810 0.59457 0.60814 0.06100
H 	H 	0.96865 0.96652 0.64215 0.03700
C 	C 	0.38523 0.02459 0.63162 0.00500
C 	C 	0.48804 0.06622 0.63350 -0.03600
H 	H 	0.38769 0.12888 0.65899 0.05200
C 	C 	0.80906 0.03579 0.64110 0.02000
C 	C 	0.92294 0.98824 0.63570 0.02100
C 	C 	0.74587 0.59717 0.64289 -0.02600
C 	C 	0.61184 0.62411 0.63868 -0.02400
H 	H 	0.80575 0.59976 0.65228 0.04100
C 	C 	0.26111 0.06035 0.67909 0.01800
C 	C 	0.32973 0.07191 0.66279 -0.06200
C 	C 	0.32136 0.01063 0.65082 0.03000
H 	H 	0.26786 0.10851 0.68790 0.04100
H 	H 	0.52132 0.07897 0.64931 0.04400
C 	C 	0.86953 0.00922 0.64970 -0.08600
H 	H 	0.76731 0.05200 0.65174 0.03900
C 	C 	0.68976 0.62843 0.65089 -0.00900
H 	H 	0.56762 0.64770 0.64482 0.04700
H 	H 	0.00513 0.58720 0.00279 0.11200
C 	C 	0.18282 0.98725 0.68359 -0.08100
C 	C 	0.24552 0.93723 0.65582 -0.06200
H 	H 	0.23871 0.88947 0.64676 0.05600
C 	C 	0.87992 0.00609 0.67326 0.30900
O 	O 	0.96801 0.03066 0.68137 -0.39400
C 	C 	0.72486 0.67868 0.66890 0.05500
C 	C 	0.75539 0.72576 0.68276 -0.11100
C 	C 	0.17640 0.92554 0.67206 0.01900
C 	C 	0.10558 0.97589 0.69963 0.30800
O 	O 	0.03774 0.90713 0.70515 -0.36300
H 	H 	0.11696 0.86875 0.67536 0.04800
C 	C 	0.79115 0.78768 0.69735 0.32500
O 	O 	0.80361 0.98848 0.68607 -0.38100
O 	O 	0.78827 0.84840 0.69126 -0.39300
Ni	Ni	0.99430 0.05168 0.71299 1.11400
O 	O 	0.11099 0.03418 0.70981 -0.37400
Ni	Ni	0.76972 0.91735 0.71171 1.12100
O 	O 	0.83946 0.78730 0.71467 -0.38100
O 	O 	0.90010 0.09294 0.71585 -0.38500
Ni	Ni	0.94062 0.88447 0.73096 1.10500
O 	O 	0.89795 0.95290 0.72296 -0.71600
H 	H 	0.61864 0.67675 0.73010 0.03800
C 	C 	0.82667 0.06589 0.73013 0.30300
O 	O 	0.75533 0.99416 0.72969 -0.37300
O 	O 	0.69934 0.83168 0.73450 -0.37100
O 	O 	0.04968 0.96902 0.75016 -0.35300
O 	O 	0.03807 0.07728 0.74394 -0.36200
H 	H 	0.88378 0.96522 0.73742 0.14900
C 	C 	0.73927 0.80908 0.74991 0.29700
C 	C 	0.04461 0.02872 0.75746 0.28700
O 	O 	0.83325 0.84886 0.75483 -0.38400
C 	C 	0.82552 0.11548 0.74632 -0.10100
C 	C 	0.67985 0.73383 0.76014 -0.08200
C 	C 	0.62746 0.66993 0.74718 0.02000
C 	C 	0.59249 0.59711 0.75592 -0.06300
H 	H 	0.55571 0.54835 0.74561 0.05200
C 	C 	0.05364 0.04496 0.78080 -0.08100
H 	H 	0.96953 0.10366 0.77966 0.01800
C 	C 	0.83240 0.16004 0.75986 0.04300
C 	C 	0.10557 0.02103 0.79419 0.02000
C 	C 	0.01141 0.08610 0.78970 0.03800
H 	H 	0.13839 0.98921 0.78759 0.04700
C 	C 	0.84730 0.21500 0.77605 0.00200
H 	H 	0.69470 0.18674 0.77762 0.04700
H 	H 	0.00374 0.25647 0.77802 0.06500
C 	C 	0.60840 0.58766 0.77772 0.03000
C 	C 	0.65486 0.65115 0.79099 -0.06000
C 	C 	0.69050 0.72388 0.78224 0.02100
C 	C 	0.58175 0.51202 0.78648 0.00600
H 	H 	0.72999 0.77260 0.79245 0.04400
H 	H 	0.71817 0.51748 0.77653 0.04400
C 	C 	0.76762 0.22132 0.78409 -0.03000
C 	C 	0.94163 0.26068 0.78431 -0.05200
C 	C 	0.49383 0.47049 0.79830 -0.03600
C 	C 	0.63748 0.42613 0.79927 -0.02900
C 	C 	0.65109 0.48699 0.78606 -0.03800
H 	H 	0.66625 0.64428 0.80792 0.06300
H 	H 	0.43878 0.48825 0.79836 0.05400
C 	C 	0.11774 0.04013 0.81607 -0.05700
C 	C 	0.07788 0.08313 0.82476 0.02700
C 	C 	0.02372 0.10523 0.81154 -0.03700
H 	H 	0.16016 0.02313 0.82614 0.06200
H 	H 	0.99235 0.13813 0.81810 0.03200
C 	C 	0.87498 0.31377 0.81006 0.01500
C 	C 	0.78133 0.27062 0.80102 -0.04000
C 	C 	0.95557 0.31023 0.80116 -0.06200
H 	H 	0.71849 0.27279 0.80776 0.04700
H 	H 	0.02821 0.34359 0.80789 0.07200
C 	C 	0.48038 0.40968 0.81149 -0.02500
C 	C 	0.55554 0.39100 0.81324 -0.00500
H 	H 	0.69384 0.40986 0.79973 0.03800
H 	H 	0.17841 0.22846 0.83819 0.04900
H 	H 	0.83282 0.42636 0.81892 0.04700
H 	H 	0.41546 0.38163 0.82180 0.05100
H 	H 	0.56391 0.96935 0.99279 0.07600
C 	C 	0.09959 0.10991 0.84723 0.01300
C 	C 	0.15829 0.18743 0.85125 -0.02800
C 	C 	0.84877 0.40287 0.83307 -0.05100
C 	C 	0.88499 0.35223 0.83079 0.02100
C 	C 	0.56204 0.35517 0.83293 0.05100
C 	C 	0.80579 0.50173 0.00046 0.77400
O 	O 	0.32774 0.70561 0.00247 -0.71700
C 	C 	0.19786 0.21159 0.87176 -0.02500
C 	C 	0.07177 0.05769 0.86444 -0.02400
C 	C 	0.91376 0.32783 0.84923 -0.04900
H 	H 	0.94564 0.29121 0.84769 0.05300
H 	H 	0.02402 0.99791 0.86166 0.06900
C 	C 	0.56755 0.33348 0.85082 -0.09900
C 	C 	0.82548 0.41815 0.85363 0.01300
H 	H 	0.78915 0.45167 0.85515 0.04500
H 	H 	0.24940 0.27096 0.87424 0.06700
C 	C 	0.57354 0.32044 0.87347 0.31700
O 	O 	0.56468 0.25593 0.88019 -0.36900
O 	O 	0.55565 0.36135 0.88675 -0.37900
C 	C 	0.83904 0.38311 0.87192 -0.05900
C 	C 	0.89215 0.34422 0.86975 0.01900
H 	H 	0.90864 0.32080 0.88388 0.06700
C 	C 	0.18011 0.15838 0.88824 0.02600
C 	C 	0.11148 0.08200 0.88494 -0.01900
H 	H 	0.09559 0.04056 0.89770 0.09000
F 	F 	0.02417 0.66750 0.91278 -0.41500
C 	C 	0.77721 0.36981 0.89132 0.28000
Ni	Ni	0.63604 0.41212 0.91286 1.12100
O 	O 	0.74694 0.30586 0.90240 -0.34900
O 	O 	0.76340 0.42552 0.89875 -0.36100
F 	F 	0.33114 0.55796 0.90527 -0.42300
C 	C 	0.25206 0.17742 0.90489 0.07800
C 	C 	0.31892 0.19126 0.91693 -0.02700
F 	F 	0.14554 0.64596 0.92322 -0.38400
Ni	Ni	0.60061 0.23734 0.91145 1.11400
O 	O 	0.45507 0.17260 0.92079 -0.35700
O 	O 	0.50911 0.41057 0.92016 -0.36200
H 	H 	0.89648 0.54570 0.92665 0.08500
C 	C 	0.35441 0.58770 0.92582 0.78500
H 	H 	0.44490 0.50529 0.91645 0.08200
F 	F 	0.43958 0.65706 0.92450 -0.42900
F 	F 	0.27765 0.59737 0.93326 -0.40900
C 	C 	0.07961 0.66826 0.93024 0.77500
F 	F 	0.13070 0.74194 0.93744 -0.39000
C 	C 	0.40553 0.20444 0.92822 0.29800
O 	O 	0.70740 0.48099 0.93785 -0.34700
O 	O 	0.61449 0.32220 0.92765 -0.70600
H 	H 	0.68248 0.33883 0.93210 0.15700
C 	C 	0.40835 0.49094 0.93214 0.06700
C 	C 	0.36994 0.53497 0.94065 -0.09500
O 	O 	0.52631 0.72608 0.99887 -0.35200
C 	C 	0.47435 0.40418 0.93983 0.31300
C 	C 	0.01451 0.61506 0.94813 -0.05900
O 	O 	0.42415 0.23541 0.94759 -0.29500
O 	O 	0.63483 0.19196 0.93795 -0.30800
C 	C 	0.91880 0.55775 0.94335 0.03000
C 	C 	0.40292 0.43034 0.94429 0.00800
C 	C 	0.74792 0.46276 0.95396 0.28500
Ni	Ni	0.56221 0.31589 0.95663 1.13800
O 	O 	0.52037 0.39469 0.95599 -0.31600
F 	F 	0.28294 0.27600 0.95600 -0.42900
C 	C 	0.34119 0.52523 0.96277 0.02300
O 	O 	0.22444 0.67698 0.96452 -0.26800
C 	C 	0.58588 0.18006 0.95626 0.29800
O 	O 	0.40156 0.65937 0.96721 -0.29100
C 	C 	0.85031 0.51763 0.95998 0.01600
H 	H 	0.39165 0.09370 0.95909 0.09500
F 	F 	0.22394 0.90135 0.96225 -0.39200
F 	F 	0.73146 0.11721 0.95635 -0.42000
C 	C 	0.34295 0.40612 0.96318 -0.08600
C 	C 	0.15011 0.67622 0.97551 0.27500
C 	C 	0.04749 0.62237 0.96969 0.05500
O 	O 	0.69627 0.39935 0.96556 -0.28100
O 	O 	0.59582 0.23734 0.96767 -0.30500
C 	C 	0.35769 0.59068 0.97622 0.28200
Ni	Ni	0.36616 0.74180 0.97346 1.14000
C 	C 	0.42915 0.06669 0.96648 0.05000
C 	C 	0.53225 0.10339 0.96583 0.01000
C 	C 	0.31732 0.45621 0.97302 0.06000
C 	C 	0.30425 0.32718 0.97246 0.78300
O 	O 	0.34280 0.83045 0.97368 -0.31000
O 	O 	0.50921 0.81609 0.98087 -0.34700
C 	C 	0.87976 0.53353 0.98184 -0.06900
C 	C 	0.58217 0.07017 0.97638 -0.08500
C 	C 	0.37430 0.99584 0.97673 -0.08000
C 	C 	0.26273 0.95773 0.97751 0.77600
C 	C 	0.69381 0.11083 0.97704 0.78000
F 	F 	0.23015 0.00876 0.97327 -0.40900
F 	F 	0.37339 0.32539 0.98590 -0.43200
F 	F 	0.21845 0.30484 0.98430 -0.41400
O 	O 	0.16606 0.72662 0.99074 -0.30600
C 	C 	0.97997 0.58086 0.98629 -0.00700
C 	C 	0.52690 0.99750 0.98578 0.04800
C 	C 	0.42377 0.95921 0.98526 0.00300
F 	F 	0.72900 0.18231 0.98549 -0.41500
H 	H 	0.28311 0.44311 0.98894 0.09200
F 	F 	0.72772 0.07232 0.98979 -0.43500
C 	C 	0.56085 0.79714 0.99360 0.33300
C 	C 	0.37006 0.87755 0.98986 0.30500
H 	H 	0.27333 0.65509 0.99908 0.15100
O 	O 	0.35334 0.58219 0.99763 -0.34600
F 	F 	0.72191 0.50569 0.99574 -0.42200
