data_crystal

_cell_length_a 38.95483
_cell_length_b 39.11338
_cell_length_c 27.00653
_cell_angle_alpha 90.00411
_cell_angle_beta  90.00037
_cell_angle_gamma 120.00091

_symmetry_space_group_name_	'P 1'
_symmetry_space_group_name_H-M	'P 1'

loop_
_symmetry_equiv_pos_as_xyz
  x,y,z

loop_
_atom_site_label
_atom_site_type_symbol
_atom_site_fract_x
_atom_site_fract_y
_atom_site_fract_z
_atom_site_charge
C 	C 	0.57542 0.42973 0.71685 0.30900
C 	C 	0.72110 0.57936 0.68319 0.32900
C 	C 	0.60766 0.52181 0.77758 0.32900
C 	C 	0.68745 0.49112 0.60723 0.30600
C 	C 	0.61591 0.58812 0.64055 0.33000
C 	C 	0.57083 0.49427 0.56914 0.30800
Ni	Ni	0.65616 0.50113 0.70944 1.11300
Ni	Ni	0.65534 0.54563 0.60867 1.12100
Ni	Ni	0.57850 0.50529 0.67686 1.12100
O 	O 	0.61288 0.44236 0.70512 -0.37600
O 	O 	0.55975 0.45340 0.71582 -0.37300
O 	O 	0.65009 0.58940 0.63900 -0.38800
O 	O 	0.69355 0.56112 0.71622 -0.37900
O 	O 	0.71206 0.57265 0.63594 -0.37300
O 	O 	0.55677 0.47719 0.61263 -0.38500
O 	O 	0.62674 0.50216 0.77400 -0.37100
O 	O 	0.60245 0.53793 0.73821 -0.38700
O 	O 	0.60629 0.52699 0.56444 -0.37700
O 	O 	0.69354 0.49673 0.65605 -0.36700
O 	O 	0.66759 0.50475 0.58180 -0.37800
O 	O 	0.58272 0.55414 0.64487 -0.38500
O 	O 	0.62702 0.50825 0.65939 -0.71800
H 	H 	0.61701 0.48343 0.64068 0.16800
C 	C 	0.38359 0.51438 0.21711 0.30900
C 	C 	0.23667 0.36600 0.18255 0.33000
C 	C 	0.34943 0.42220 0.27826 0.33100
C 	C 	0.27192 0.45437 0.10647 0.30900
C 	C 	0.34046 0.35496 0.14183 0.33100
C 	C 	0.38768 0.44959 0.07020 0.31900
Ni	Ni	0.30222 0.44384 0.20922 1.11400
Ni	Ni	0.30288 0.39897 0.10875 1.12200
Ni	Ni	0.37921 0.43796 0.17789 1.12200
O 	O 	0.34626 0.50235 0.20527 -0.37600
O 	O 	0.39855 0.49007 0.21674 -0.37400
O 	O 	0.30672 0.35452 0.13948 -0.38800
O 	O 	0.26403 0.38399 0.21588 -0.37900
O 	O 	0.24601 0.37289 0.13540 -0.37500
O 	O 	0.40205 0.46600 0.11393 -0.38800
O 	O 	0.33077 0.44223 0.27427 -0.37100
O 	O 	0.35427 0.40559 0.23914 -0.38800
O 	O 	0.35226 0.41684 0.06536 -0.38100
O 	O 	0.26564 0.44904 0.15530 -0.36800
O 	O 	0.29187 0.44059 0.08154 -0.38100
O 	O 	0.37408 0.38855 0.14622 -0.38400
O 	O 	0.33132 0.43611 0.15966 -0.71800
H 	H 	0.34194 0.46101 0.14098 0.16800
C 	C 	0.52224 0.10848 0.05133 0.30900
C 	C 	0.37546 0.11028 0.01466 0.31300
C 	C 	0.42867 0.05141 0.11108 0.33100
C 	C 	0.46518 0.16226 0.94009 0.30800
C 	C 	0.36205 0.99488 0.97418 0.33300
C 	C 	0.45761 0.04091 0.90338 0.30700
Ni	Ni	0.45257 0.12076 0.04252 1.11000
Ni	Ni	0.40796 0.07635 0.94127 1.12200
Ni	Ni	0.44516 0.03764 0.01089 1.11500
O 	O 	0.51099 0.13424 0.03935 -0.38100
O 	O 	0.49721 0.06940 0.05057 -0.37700
O 	O 	0.36231 0.02839 0.97115 -0.38500
O 	O 	0.39264 0.10015 0.04822 -0.38000
O 	O 	0.38256 0.10777 0.96759 -0.36200
O 	O 	0.47371 0.04278 0.94730 -0.37900
O 	O 	0.44963 0.09000 0.10743 -0.37300
O 	O 	0.41223 0.03029 0.07167 -0.39400
O 	O 	0.42536 0.04450 0.89801 -0.37600
O 	O 	0.45921 0.16298 0.98877 -0.36100
O 	O 	0.45075 0.12873 0.91476 -0.37800
O 	O 	0.39542 0.99429 0.97840 -0.38000
O 	O 	0.44449 0.08410 0.99276 -0.71100
H 	H 	0.46971 0.09813 0.97446 0.17000
C 	C 	0.43513 0.83514 0.55090 0.31000
C 	C 	0.58217 0.83427 0.51289 0.33000
C 	C 	0.52810 0.89202 0.61105 0.33100
C 	C 	0.49342 0.78290 0.43802 0.30700
C 	C 	0.59518 0.95012 0.47489 0.33000
C 	C 	0.49922 0.90351 0.40368 0.30900
Ni	Ni	0.50509 0.82338 0.54130 1.11400
Ni	Ni	0.54977 0.86900 0.44061 1.12200
Ni	Ni	0.51199 0.90659 0.51112 1.12200
O 	O 	0.44658 0.80965 0.53829 -0.37600
O 	O 	0.45991 0.87426 0.55046 -0.37300
O 	O 	0.59516 0.91678 0.47118 -0.38700
O 	O 	0.56510 0.84432 0.54666 -0.37900
O 	O 	0.57557 0.83773 0.46592 -0.37400
O 	O 	0.48341 0.90194 0.44772 -0.38500
O 	O 	0.50777 0.85342 0.60686 -0.37100
O 	O 	0.54470 0.91357 0.57199 -0.38800
O 	O 	0.53205 0.90100 0.39831 -0.37700
O 	O 	0.49863 0.78159 0.48685 -0.36800
O 	O 	0.50722 0.81673 0.41351 -0.37900
O 	O 	0.56167 0.95043 0.47916 -0.38400
O 	O 	0.51305 0.86047 0.49220 -0.71800
H 	H 	0.48788 0.84648 0.47380 0.16800
C 	C 	0.11437 0.56592 0.88593 0.30800
C 	C 	0.11630 0.71440 0.85232 0.32900
C 	C 	0.05807 0.60141 0.94769 0.32200
C 	C 	0.16793 0.67761 0.77559 0.30800
C 	C 	0.00019 0.61287 0.81159 0.32400
C 	C 	0.04575 0.56406 0.73931 0.30700
Ni	Ni	0.12707 0.64780 0.87841 1.11400
Ni	Ni	0.08173 0.64860 0.77832 1.12200
Ni	Ni	0.04309 0.57238 0.84710 1.12200
O 	O 	0.14024 0.60289 0.87395 -0.37500
O 	O 	0.07512 0.55173 0.88533 -0.37200
O 	O 	0.03400 0.64596 0.80965 -0.38700
O 	O 	0.10672 0.68709 0.88567 -0.37800
O 	O 	0.11365 0.70508 0.80515 -0.37400
O 	O 	0.04751 0.54937 0.78289 -0.38400
O 	O 	0.09682 0.61972 0.94358 -0.36700
O 	O 	0.03659 0.59744 0.90883 -0.38500
O 	O 	0.04922 0.59976 0.73477 -0.37800
O 	O 	0.16915 0.68369 0.82448 -0.36700
O 	O 	0.13401 0.65828 0.75083 -0.37900
O 	O 	0.99927 0.57889 0.81600 -0.37800
O 	O 	0.08975 0.61953 0.82895 -0.71800
H 	H 	0.10358 0.60846 0.81007 0.16800
C 	C 	0.84352 0.37923 0.38435 0.31000
C 	C 	0.84125 0.23041 0.35283 0.33000
C 	C 	0.89905 0.34380 0.44729 0.33100
C 	C 	0.79024 0.26678 0.27430 0.30800
C 	C 	0.95771 0.33143 0.31241 0.32800
C 	C 	0.91257 0.37998 0.23844 0.30900
Ni	Ni	0.83047 0.29724 0.37741 1.11400
Ni	Ni	0.87640 0.29571 0.27827 1.12200
Ni	Ni	0.91481 0.37233 0.34643 1.12200
O 	O 	0.81768 0.34237 0.37189 -0.37600
O 	O 	0.88278 0.39347 0.38362 -0.37300
O 	O 	0.92387 0.29837 0.31038 -0.38800
O 	O 	0.85069 0.25795 0.38580 -0.37900
O 	O 	0.84417 0.23941 0.30553 -0.37400
O 	O 	0.91092 0.39510 0.28176 -0.38400
O 	O 	0.86033 0.32560 0.44266 -0.37200
O 	O 	0.92089 0.34769 0.40883 -0.38800
O 	O 	0.90927 0.34432 0.23455 -0.37800
O 	O 	0.78862 0.26113 0.32332 -0.36700
O 	O 	0.82435 0.28605 0.24994 -0.38000
O 	O 	0.95870 0.36548 0.31624 -0.38200
O 	O 	0.86817 0.32515 0.32822 -0.71800
H 	H 	0.85454 0.33619 0.30885 0.16800
C 	C 	0.99367 0.48315 0.62873 0.01100
C 	C 	0.01323 0.46569 0.60537 -0.04600
C 	C 	0.99304 0.43532 0.57097 -0.01900
C 	C 	0.95321 0.42227 0.55982 -0.01100
C 	C 	0.93364 0.43966 0.58330 -0.02600
C 	C 	0.95381 0.47000 0.61770 -0.03900
C 	C 	0.93361 0.39373 0.52102 0.05700
C 	C 	0.91726 0.36984 0.48853 -0.11200
C 	C 	0.01347 0.51240 0.66674 0.03900
C 	C 	0.02919 0.53692 0.69874 -0.09100
H 	H 	0.04393 0.47544 0.61403 0.04700
H 	H 	0.00847 0.42227 0.55263 0.03900
H 	H 	0.90297 0.43000 0.57453 0.04200
H 	H 	0.93840 0.48313 0.63593 0.04700
C 	C 	0.96250 0.46020 0.12678 -0.00400
C 	C 	0.98896 0.45808 0.09348 -0.02800
C 	C 	0.00956 0.48843 0.05925 -0.04100
C 	C 	0.00380 0.52105 0.05814 0.00200
C 	C 	0.97720 0.52310 0.09127 -0.03400
C 	C 	0.95661 0.49275 0.12555 -0.03200
C 	C 	0.02297 0.55083 0.02059 0.02600
C 	C 	0.03958 0.57508 0.98856 -0.08400
C 	C 	0.94430 0.43096 0.16514 0.04700
C 	C 	0.92887 0.40670 0.19747 -0.09500
H 	H 	0.99393 0.43318 0.09448 0.04200
H 	H 	0.02986 0.48650 0.03348 0.04300
H 	H 	0.97232 0.54805 0.09034 0.04400
H 	H 	0.93645 0.49476 0.15146 0.04400
C 	C 	0.33380 0.78792 0.63280 -0.00200
C 	C 	0.33775 0.78797 0.68443 -0.03200
C 	C 	0.30439 0.76592 0.71414 -0.03300
C 	C 	0.26692 0.74375 0.69237 -0.00100
C 	C 	0.26277 0.74467 0.64089 -0.03300
C 	C 	0.29614 0.76671 0.61116 -0.03200
C 	C 	0.23265 0.72029 0.72280 0.04700
C 	C 	0.20353 0.70043 0.74749 -0.09400
C 	C 	0.36867 0.80519 0.60207 0.04700
C 	C 	0.39860 0.81998 0.57768 -0.09500
H 	H 	0.36678 0.80422 0.70143 0.04400
H 	H 	0.30777 0.76568 0.75395 0.04500
H 	H 	0.23381 0.72793 0.62385 0.04500
H 	H 	0.29284 0.76641 0.57130 0.04400
C 	C 	0.76230 0.12025 0.40217 -0.00400
C 	C 	0.74762 0.11815 0.45017 -0.03100
C 	C 	0.71487 0.08324 0.46689 -0.03200
C 	C 	0.69672 0.05025 0.43573 -0.00300
C 	C 	0.71250 0.05175 0.38858 -0.03200
C 	C 	0.74524 0.08670 0.37182 -0.03100
C 	C 	0.66085 0.01552 0.45109 0.05100
C 	C 	0.63080 0.98603 0.46287 -0.10200
C 	C 	0.79103 0.15796 0.38214 0.05300
C 	C 	0.81501 0.19041 0.36763 -0.10800
H 	H 	0.76070 0.14397 0.47388 0.04400
H 	H 	0.70305 0.08219 0.50354 0.04500
H 	H 	0.69882 0.02619 0.36446 0.04400
H 	H 	0.75643 0.08806 0.33470 0.04400
C 	C 	0.44655 0.99307 0.22402 -0.00300
C 	C 	0.45519 0.00738 0.27263 -0.03400
C 	C 	0.46478 0.98754 0.30822 -0.03100
C 	C 	0.46582 0.95333 0.29531 -0.00200
C 	C 	0.45643 0.93858 0.24695 -0.03300
C 	C 	0.44680 0.95841 0.21137 -0.03200
C 	C 	0.47739 0.93402 0.33156 0.04700
C 	C 	0.48727 0.91910 0.36340 -0.09500
C 	C 	0.43998 0.01516 0.18627 0.05100
C 	C 	0.43432 0.03240 0.15315 -0.11200
H 	H 	0.45508 0.03416 0.28267 0.04400
H 	H 	0.47187 0.99902 0.34563 0.04400
H 	H 	0.45702 0.91208 0.23676 0.04300
H 	H 	0.44016 0.94718 0.17382 0.04100
C 	C 	0.48780 0.98809 0.79511 0.00300
C 	C 	0.51304 0.00887 0.75566 -0.03700
C 	C 	0.52306 0.98892 0.72069 -0.02700
C 	C 	0.50790 0.94810 0.72503 -0.00700
C 	C 	0.48309 0.92743 0.76485 -0.02900
C 	C 	0.47308 0.94738 0.79983 -0.03500
C 	C 	0.51494 0.92702 0.68628 0.05500
C 	C 	0.52145 0.91037 0.65314 -0.11000
C 	C 	0.47787 0.00857 0.83168 0.04500
C 	C 	0.46868 0.02430 0.86329 -0.09100
H 	H 	0.52477 0.04038 0.75196 0.04600
H 	H 	0.54211 0.00507 0.68985 0.04200
H 	H 	0.47106 0.89586 0.76832 0.04400
H 	H 	0.45378 0.93117 0.83044 0.04600
C 	C 	0.69197 0.20041 0.18982 -0.00100
C 	C 	0.69342 0.20873 0.13913 -0.03300
C 	C 	0.66018 0.18652 0.10928 -0.03300
C 	C 	0.62531 0.15590 0.12996 -0.00300
C 	C 	0.62431 0.14671 0.18034 -0.03300
C 	C 	0.65758 0.16894 0.21021 -0.03300
C 	C 	0.58916 0.13814 0.10155 0.04600
C 	C 	0.55893 0.12329 0.07773 -0.09700
C 	C 	0.72603 0.22381 0.22065 0.04600
C 	C 	0.75487 0.24374 0.24581 -0.09500
H 	H 	0.72008 0.23271 0.12297 0.04400
H 	H 	0.66115 0.19393 0.07044 0.04200
H 	H 	0.59744 0.12317 0.19667 0.04400
H 	H 	0.65640 0.16202 0.24924 0.04400
C 	C 	0.26050 0.89545 0.93309 -0.01100
C 	C 	0.24852 0.89195 0.88350 -0.02700
C 	C 	0.21573 0.85703 0.86675 -0.03500
C 	C 	0.19482 0.82550 0.89953 0.00100
C 	C 	0.20568 0.82976 0.94963 -0.04000
C 	C 	0.23848 0.86465 0.96636 -0.01100
C 	C 	0.16639 0.78718 0.88071 0.05200
C 	C 	0.14246 0.75453 0.86675 -0.10600
C 	C 	0.29628 0.92996 0.94920 0.05900
C 	C 	0.32636 0.95923 0.96152 -0.10400
H 	H 	0.26517 0.91584 0.85767 0.04300
H 	H 	0.20752 0.85399 0.82798 0.04600
H 	H 	0.18963 0.80553 0.97523 0.04800
H 	H 	0.24732 0.86731 0.00486 0.03000
C 	C 	0.12518 0.33220 0.23077 -0.00500
C 	C 	0.12062 0.33564 0.28173 -0.03200
C 	C 	0.08607 0.33376 0.29978 -0.03300
C 	C 	0.05590 0.32831 0.26697 -0.00200
C 	C 	0.05957 0.32281 0.21635 -0.03400
C 	C 	0.09415 0.32475 0.19829 -0.03100
C 	C 	0.02188 0.32988 0.28479 0.04600
C 	C 	0.99301 0.33103 0.29841 -0.09800
C 	C 	0.16360 0.34256 0.21142 0.05300
C 	C 	0.19634 0.35156 0.19706 -0.10900
H 	H 	0.14446 0.34134 0.30710 0.04400
H 	H 	0.08323 0.33755 0.33904 0.04500
H 	H 	0.03612 0.31811 0.19084 0.04200
H 	H 	0.09741 0.32201 0.15887 0.04300
C 	C 	0.16185 0.50997 0.96327 0.02200
C 	C 	0.19361 0.50740 0.94300 -0.04700
C 	C 	0.21558 0.49601 0.97270 -0.00700
C 	C 	0.20589 0.48711 0.02282 -0.02600
C 	C 	0.17331 0.48836 0.04272 -0.01900
C 	C 	0.15131 0.49975 0.01299 -0.05800
C 	C 	0.22905 0.47607 0.05352 0.05200
C 	C 	0.24887 0.46691 0.07845 -0.10100
C 	C 	0.14407 0.52850 0.93537 0.04100
C 	C 	0.12928 0.54404 0.91189 -0.08900
H 	H 	0.20204 0.51538 0.90467 0.04900
H 	H 	0.24044 0.49464 0.95691 0.04200
H 	H 	0.16532 0.48102 0.08128 0.03900
H 	H 	0.12685 0.50175 0.02899 0.04600
C 	C 	0.43775 0.61824 0.29349 -0.00200
C 	C 	0.45355 0.62020 0.34077 -0.03300
C 	C 	0.46474 0.65336 0.37071 -0.03300
C 	C 	0.46017 0.68467 0.35350 -0.00100
C 	C 	0.44547 0.68320 0.30570 -0.03300
C 	C 	0.43430 0.65009 0.27578 -0.03300
C 	C 	0.47145 0.71877 0.38433 0.04600
C 	C 	0.48074 0.74756 0.40958 -0.09500
C 	C 	0.42000 0.58167 0.26621 0.04600
C 	C 	0.40497 0.55130 0.24288 -0.09600
H 	H 	0.45616 0.59565 0.35484 0.04300
H 	H 	0.47655 0.65450 0.40739 0.04300
H 	H 	0.44227 0.70748 0.29192 0.04400
H 	H 	0.42195 0.64873 0.23939 0.04300
C 	C 	0.34455 0.18993 0.06257 0.00400
C 	C 	0.33425 0.21142 0.03033 -0.05300
C 	C 	0.33219 0.24401 0.04786 -0.02400
C 	C 	0.34045 0.25523 0.09771 -0.00900
C 	C 	0.34915 0.23278 0.13037 -0.02800
C 	C 	0.35116 0.20018 0.11285 -0.03800
C 	C 	0.34104 0.29038 0.11490 0.05300
C 	C 	0.34129 0.31995 0.12812 -0.10600
C 	C 	0.35378 0.16117 0.04316 0.04300
C 	C 	0.36201 0.13693 0.02897 -0.10500
H 	H 	0.32912 0.20372 0.99142 0.06000
H 	H 	0.32504 0.26101 0.02250 0.03900
H 	H 	0.35518 0.24104 0.16904 0.04300
H 	H 	0.35916 0.18371 0.13802 0.04400
C 	C 	0.79727 0.43479 0.46486 -0.00200
C 	C 	0.80121 0.43556 0.51654 -0.03200
C 	C 	0.77950 0.44725 0.54634 -0.03300
C 	C 	0.75381 0.45825 0.52457 -0.00100
C 	C 	0.75089 0.45877 0.47287 -0.03300
C 	C 	0.77257 0.44706 0.44308 -0.03200
C 	C 	0.73051 0.46916 0.55516 0.04600
C 	C 	0.71062 0.47846 0.57973 -0.09400
C 	C 	0.81417 0.41643 0.43496 0.04700
C 	C 	0.82864 0.40090 0.41084 -0.09600
H 	H 	0.82021 0.42607 0.53368 0.04300
H 	H 	0.78226 0.44720 0.58626 0.04400
H 	H 	0.73141 0.46766 0.45576 0.04500
H 	H 	0.76927 0.44645 0.40319 0.04400
C 	C 	0.83325 0.61254 0.72829 -0.00400
C 	C 	0.85934 0.60934 0.69543 -0.03100
C 	C 	0.89371 0.61076 0.71327 -0.03200
C 	C 	0.90218 0.61542 0.76407 -0.00200
C 	C 	0.87714 0.62056 0.79666 -0.03200
C 	C 	0.84275 0.61918 0.77879 -0.03100
C 	C 	0.93621 0.61425 0.78266 0.05100
C 	C 	0.96496 0.61313 0.79690 -0.09800
C 	C 	0.79411 0.60221 0.71181 0.05400
C 	C 	0.76134 0.59356 0.69795 -0.10800
H 	H 	0.85219 0.60414 0.65638 0.04500
H 	H 	0.91325 0.60732 0.68776 0.04400
H 	H 	0.88380 0.62474 0.83589 0.04700
H 	H 	0.82275 0.62172 0.80446 0.04500
C 	C 	0.47054 0.48208 0.96108 -0.01900
C 	C 	0.46272 0.48524 0.91119 -0.02300
C 	C 	0.49219 0.49476 0.87553 -0.03600
C 	C 	0.52961 0.50115 0.88963 0.00200
C 	C 	0.53763 0.49856 0.93963 -0.04100
C 	C 	0.50815 0.48906 0.97529 -0.00700
C 	C 	0.55912 0.50889 0.85241 0.05200
C 	C 	0.58248 0.51521 0.81950 -0.10800
C 	C 	0.43977 0.47059 0.99765 0.07900
C 	C 	0.41510 0.46106 0.02972 -0.12400
H 	H 	0.43376 0.47995 0.89993 0.04300
H 	H 	0.48580 0.49674 0.83693 0.04400
H 	H 	0.56647 0.50348 0.95081 0.04900
H 	H 	0.51443 0.48673 0.01385 0.02900
C 	C 	0.48889 0.46457 0.45930 -0.00100
C 	C 	0.45450 0.42731 0.45979 -0.03400
C 	C 	0.42430 0.41830 0.42534 -0.03100
C 	C 	0.42838 0.44655 0.39034 -0.00600
C 	C 	0.46276 0.48381 0.38991 -0.03200
C 	C 	0.49294 0.49279 0.42428 -0.03400
C 	C 	0.39888 0.43644 0.35238 0.05300
C 	C 	0.37507 0.42938 0.31983 -0.11100
C 	C 	0.51846 0.47497 0.49725 0.04600
C 	C 	0.54314 0.48355 0.52908 -0.09500
H 	H 	0.45100 0.40546 0.48704 0.04500
H 	H 	0.39796 0.38933 0.42566 0.04400
H 	H 	0.46623 0.50570 0.36273 0.04300
H 	H 	0.51928 0.52176 0.42394 0.04400
C 	C 	0.52467 0.32954 0.80004 -0.00100
C 	C 	0.54022 0.33315 0.84783 -0.03200
C 	C 	0.52834 0.29959 0.87709 -0.03200
C 	C 	0.50083 0.26226 0.85872 -0.00000
C 	C 	0.48460 0.25871 0.81134 -0.03200
C 	C 	0.49653 0.29230 0.78204 -0.03200
C 	C 	0.48920 0.22759 0.88841 0.04800
C 	C 	0.47898 0.19812 0.91254 -0.09200
C 	C 	0.54033 0.36361 0.76823 0.04800
C 	C 	0.55482 0.39329 0.74364 -0.09500
H 	H 	0.56207 0.36185 0.86195 0.04600
H 	H 	0.54080 0.30259 0.91378 0.04600
H 	H 	0.46310 0.22994 0.79704 0.04500
H 	H 	0.48445 0.28926 0.74511 0.04400
C 	C 	0.60997 0.68358 0.59171 -0.00400
C 	C 	0.64264 0.72191 0.59510 -0.03200
C 	C 	0.64013 0.75391 0.57618 -0.03100
C 	C 	0.60497 0.74760 0.55375 -0.00500
C 	C 	0.57260 0.70920 0.54973 -0.03200
C 	C 	0.57508 0.67730 0.56869 -0.03200
C 	C 	0.60045 0.78051 0.53923 0.05400
C 	C 	0.59403 0.80626 0.52631 -0.10900
C 	C 	0.61264 0.65045 0.61002 0.05300
C 	C 	0.61409 0.62220 0.62503 -0.10500
H 	H 	0.66986 0.72693 0.61246 0.04600
H 	H 	0.66521 0.78354 0.57965 0.04500
H 	H 	0.54527 0.70414 0.53266 0.04400
H 	H 	0.54984 0.64772 0.56559 0.04400
