data_crystal

_cell_length_a 24.52366
_cell_length_b 21.61551
_cell_length_c 19.24260
_cell_angle_alpha 92.70324
_cell_angle_beta  85.31841
_cell_angle_gamma 124.79355

_symmetry_space_group_name_	'P 1'
_symmetry_space_group_name_H-M	'P 1'

loop_
_symmetry_equiv_pos_as_xyz
  x,y,z

loop_
_atom_site_label
_atom_site_type_symbol
_atom_site_fract_x
_atom_site_fract_y
_atom_site_fract_z
_atom_site_charge
C 	C 	0.94583 0.16492 0.88669 0.01500
C 	C 	0.95180 0.12929 0.82665 -0.03300
C 	C 	0.98468 0.09368 0.82800 -0.06600
C 	C 	0.01098 0.09245 0.88957 0.07800
C 	C 	0.00629 0.13001 0.94930 -0.06500
C 	C 	0.97399 0.16606 0.94760 -0.03400
N 	N 	0.03901 0.04917 0.89175 -0.13700
C 	C 	0.21993 0.15539 0.99302 0.02600
C 	C 	0.15907 0.10735 0.03094 -0.04500
C 	C 	0.09942 0.07240 0.99825 -0.05600
C 	C 	0.10008 0.08569 0.92699 0.07200
C 	C 	0.16104 0.13421 0.88941 -0.06200
C 	C 	0.22072 0.16865 0.92211 -0.03800
C 	C 	0.90523 0.81619 0.94127 -0.02600
C 	C 	0.95769 0.84076 0.89017 -0.01800
C 	C 	0.00070 0.91722 0.87343 -0.07000
C 	C 	0.99178 0.96991 0.90751 0.07200
C 	C 	0.93829 0.94484 0.95814 -0.07600
C 	C 	0.89531 0.86836 0.97465 -0.01400
H 	H 	0.93025 0.12835 0.77932 0.03700
H 	H 	0.98832 0.06535 0.78176 0.05000
H 	H 	0.02546 0.12903 0.99753 0.04800
H 	H 	0.96945 0.19343 0.99417 0.04000
H 	H 	0.15806 0.09669 0.08565 0.04100
H 	H 	0.05285 0.03616 0.02844 0.04400
H 	H 	0.16208 0.14448 0.83462 0.04900
H 	H 	0.26761 0.20509 0.89225 0.04400
H 	H 	0.96549 0.80069 0.86393 0.03200
H 	H 	0.04170 0.93586 0.83470 0.04700
H 	H 	0.93122 0.98448 0.98621 0.04700
H 	H 	0.85504 0.84981 0.01437 0.02900
C 	C 	0.89004 0.06477 0.50852 -0.02500
C 	C 	0.90883 0.02338 0.46782 -0.00800
C 	C 	0.93185 0.98614 0.49941 -0.08300
C 	C 	0.93860 0.99221 0.57195 0.07600
C 	C 	0.91927 0.03296 0.61243 -0.06700
C 	C 	0.89447 0.06835 0.58117 -0.01600
N 	N 	0.96403 0.95610 0.60559 -0.14200
C 	C 	0.17402 0.07506 0.61266 -0.01800
C 	C 	0.13215 0.04440 0.67370 -0.02500
C 	C 	0.06324 0.00633 0.67107 -0.05200
C 	C 	0.03556 0.99917 0.60775 0.06200
C 	C 	0.07793 0.03300 0.54727 -0.06100
C 	C 	0.14651 0.06964 0.54962 -0.02200
C 	C 	0.86184 0.72154 0.56285 -0.02800
C 	C 	0.92059 0.77309 0.52333 -0.01500
C 	C 	0.95486 0.85020 0.53729 -0.07700
C 	C 	0.93056 0.87654 0.59127 0.08200
C 	C 	0.87234 0.82464 0.63133 -0.07500
C 	C 	0.83810 0.74751 0.61723 -0.01500
H 	H 	0.90571 0.02015 0.41179 0.03100
H 	H 	0.94502 0.95340 0.46754 0.04800
H 	H 	0.92315 0.03677 0.66833 0.04900
H 	H 	0.87862 0.09854 0.61343 0.03400
H 	H 	0.15288 0.04933 0.72292 0.03600
H 	H 	0.03117 0.98183 0.71812 0.04200
H 	H 	0.05780 0.02840 0.49799 0.04700
H 	H 	0.17822 0.09256 0.50208 0.03600
H 	H 	0.93908 0.75350 0.48104 0.03100
H 	H 	0.99908 0.88921 0.50513 0.04700
H 	H 	0.85348 0.84428 0.67315 0.05000
H 	H 	0.79290 0.70798 0.64825 0.03100
Co	Co	0.74421 0.36286 0.97767 1.18400
O 	O 	0.81793 0.36197 0.91562 -0.38000
Co	Co	0.60766 0.35779 0.02075 1.18200
O 	O 	0.65565 0.31956 0.93586 -0.46300
O 	O 	0.68586 0.46262 0.03600 -0.43400
O 	O 	0.74214 0.26210 0.96944 -0.34700
C 	C 	0.74304 0.49913 0.99748 0.35600
O 	O 	0.60624 0.37034 0.91116 -0.36100
C 	C 	0.48419 0.28046 0.06697 0.27700
C 	C 	0.70000 0.35485 0.11194 0.30400
O 	O 	0.52804 0.35122 0.07808 -0.37300
O 	O 	0.51110 0.25261 0.02911 -0.34600
O 	O 	0.75987 0.37948 0.08691 -0.37000
O 	O 	0.65785 0.32147 0.06408 -0.46300
O 	O 	0.76436 0.46399 0.95767 -0.53600
C 	C 	0.79417 0.29229 0.92655 0.27900
C 	C 	0.64420 0.34927 0.88730 0.31400
H 	H 	0.79945 0.49295 0.91836 0.17300
Co	Co	0.70510 0.26437 0.47642 1.18200
O 	O 	0.77800 0.26164 0.41431 -0.38500
Co	Co	0.57313 0.26490 0.53182 1.18300
O 	O 	0.61569 0.22772 0.43846 -0.46100
O 	O 	0.65532 0.36494 0.55068 -0.42700
O 	O 	0.70015 0.16240 0.46583 -0.35700
C 	C 	0.70941 0.40323 0.50798 0.35000
O 	O 	0.57016 0.28681 0.42540 -0.37500
C 	C 	0.45261 0.19294 0.58619 0.30700
C 	C 	0.66364 0.24876 0.61219 0.32300
O 	O 	0.50035 0.26127 0.60001 -0.37700
O 	O 	0.47304 0.16420 0.53978 -0.35300
O 	O 	0.72301 0.27482 0.58488 -0.37100
O 	O 	0.62070 0.22119 0.56513 -0.47000
O 	O 	0.73104 0.36987 0.46549 -0.53300
C 	C 	0.75505 0.19242 0.42762 0.30600
C 	C 	0.60353 0.26214 0.39537 0.32100
H 	H 	0.76782 0.40120 0.42829 0.16900
C 	C 	0.65283 0.27627 0.67962 -0.12100
C 	C 	0.59984 0.22669 0.72787 0.08600
C 	C 	0.59577 0.25257 0.79478 -0.02800
C 	C 	0.64409 0.32657 0.81456 -0.09800
C 	C 	0.69482 0.37691 0.76588 0.07600
C 	C 	0.69920 0.35145 0.69869 -0.02100
H 	H 	0.55607 0.21419 0.83225 0.05600
H 	H 	0.73948 0.38989 0.66177 0.04700
N 	N 	0.55109 0.14918 0.71040 -0.14400
N 	N 	0.74348 0.45355 0.78567 -0.14600
C 	C 	0.57500 0.10203 0.72066 -0.09100
H 	H 	0.61874 0.11827 0.68429 0.05700
H 	H 	0.53476 0.04231 0.71052 0.05400
H 	H 	0.58842 0.10639 0.77535 0.05600
C 	C 	0.72882 0.50444 0.75885 -0.09300
H 	H 	0.73289 0.50499 0.70082 0.05400
H 	H 	0.76518 0.56247 0.77766 0.04800
H 	H 	0.67815 0.48755 0.77828 0.06000
H 	H 	0.53501 0.14303 0.66033 0.08600
H 	H 	0.79139 0.46993 0.76773 0.07300
C 	C 	0.63672 0.28620 0.32522 -0.11800
C 	C 	0.62182 0.23232 0.27261 0.08800
C 	C 	0.64294 0.25556 0.20289 -0.03600
C 	C 	0.67951 0.33217 0.18550 -0.09800
C 	C 	0.69670 0.38651 0.23883 0.07800
C 	C 	0.67534 0.36301 0.30822 -0.02800
H 	H 	0.63031 0.21382 0.16226 0.05100
H 	H 	0.68667 0.40458 0.34864 0.04200
N 	N 	0.58207 0.15341 0.28971 -0.14000
N 	N 	0.73285 0.46555 0.22278 -0.14500
C 	C 	0.62344 0.12446 0.28820 -0.09000
H 	H 	0.64376 0.12513 0.23421 0.04900
H 	H 	0.59274 0.06546 0.30733 0.05500
H 	H 	0.66501 0.15830 0.32286 0.05400
C 	C 	0.68725 0.48626 0.20981 -0.08900
H 	H 	0.65192 0.44870 0.17026 0.04900
H 	H 	0.71620 0.54513 0.19039 0.05300
H 	H 	0.65876 0.48306 0.25909 0.05200
H 	H 	0.54424 0.12291 0.25526 0.08100
H 	H 	0.76879 0.48167 0.18141 0.08400
C 	C 	0.82381 0.64066 0.54554 0.06300
C 	C 	0.84976 0.59892 0.55674 -0.09900
C 	C 	0.81353 0.52214 0.54096 0.05000
C 	C 	0.75085 0.48608 0.51379 -0.16800
C 	C 	0.72532 0.52858 0.50012 0.15500
C 	C 	0.76194 0.60563 0.51694 -0.13200
H 	H 	0.83327 0.49002 0.55187 0.01400
H 	H 	0.74253 0.63842 0.50718 0.06300
H 	H 	0.89766 0.62580 0.57864 0.05200
N 	N 	0.66657 0.49622 0.46994 -0.21100
H 	H 	0.64019 0.44039 0.45290 0.09000
H 	H 	0.64752 0.52766 0.46141 0.08500
C 	C 	0.86515 0.10400 0.47550 0.06100
C 	C 	0.81229 0.06453 0.43168 -0.09000
C 	C 	0.78100 0.09738 0.41072 0.04400
C 	C 	0.79987 0.16859 0.43591 -0.13700
C 	C 	0.85475 0.20961 0.47888 0.14900
C 	C 	0.88954 0.17861 0.49394 -0.12600
H 	H 	0.73920 0.06544 0.37823 0.02100
H 	H 	0.93223 0.21030 0.52534 0.06200
H 	H 	0.79362 0.00723 0.41614 0.05300
N 	N 	0.87169 0.27602 0.50917 -0.20500
H 	H 	0.83830 0.29135 0.51535 0.09000
H 	H 	0.91621 0.30928 0.53392 0.08600
C 	C 	0.24631 0.10994 0.61376 0.05800
C 	C 	0.26905 0.06874 0.63783 -0.08900
C 	C 	0.33656 0.09698 0.62954 0.04500
C 	C 	0.38211 0.16598 0.59573 -0.13700
C 	C 	0.35934 0.20768 0.57062 0.15100
C 	C 	0.29206 0.18090 0.58327 -0.12500
H 	H 	0.35341 0.06453 0.64847 0.02400
H 	H 	0.27460 0.21318 0.56540 0.06200
H 	H 	0.23414 0.01384 0.66135 0.05400
N 	N 	0.40055 0.27070 0.53126 -0.20500
H 	H 	0.44682 0.28469 0.51019 0.09400
H 	H 	0.38438 0.30348 0.51692 0.08600
C 	C 	0.86213 0.73620 0.96150 0.06000
C 	C 	0.79564 0.69178 0.94431 -0.09700
C 	C 	0.75557 0.61512 0.96056 0.05100
C 	C 	0.78155 0.58194 0.99406 -0.16300
C 	C 	0.84766 0.62745 0.01504 0.14200
C 	C 	0.88774 0.70434 0.99771 -0.12300
H 	H 	0.70503 0.58073 0.94445 0.01900
H 	H 	0.93877 0.73933 0.01245 0.05800
H 	H 	0.77544 0.71631 0.91689 0.05300
N 	N 	0.87252 0.59795 0.05228 -0.21000
H 	H 	0.84273 0.54225 0.06966 0.08700
H 	H 	0.92185 0.63150 0.06604 0.08300
C 	C 	0.83262 0.25953 0.91105 -0.05700
C 	C 	0.80161 0.18192 0.91897 -0.01000
C 	C 	0.83825 0.15093 0.90710 -0.03500
C 	C 	0.90648 0.19703 0.88735 -0.03000
C 	C 	0.93760 0.27497 0.87599 0.07900
C 	C 	0.90024 0.30564 0.88815 -0.05000
H 	H 	0.81399 0.09117 0.91529 0.04000
H 	H 	0.92404 0.36541 0.88046 0.05400
H 	H 	0.74912 0.14557 0.93507 0.04400
N 	N 	0.00295 0.32040 0.85347 -0.19500
H 	H 	0.03132 0.29884 0.84123 0.08700
H 	H 	0.02580 0.37809 0.84659 0.08300
C 	C 	0.41291 0.24882 0.06439 -0.05400
C 	C 	0.36697 0.17057 0.05995 -0.01000
C 	C 	0.30266 0.14022 0.04068 -0.03200
C 	C 	0.28313 0.18763 0.02625 -0.03600
C 	C 	0.32696 0.26623 0.03767 0.08200
C 	C 	0.39202 0.29636 0.05605 -0.05100
H 	H 	0.26885 0.07985 0.03385 0.03900
H 	H 	0.42677 0.35679 0.06161 0.05500
H 	H 	0.38215 0.13333 0.06806 0.04200
N 	N 	0.30687 0.31268 0.03150 -0.19700
H 	H 	0.25759 0.29137 0.02288 0.08600
H 	H 	0.34016 0.37085 0.03780 0.08300
