data_crystal

_cell_length_a 13.83652
_cell_length_b 14.08438
_cell_length_c 32.55603
_cell_angle_alpha 89.99866
_cell_angle_beta  90.00177
_cell_angle_gamma 119.38054

_symmetry_space_group_name_	'P 1'
_symmetry_space_group_name_H-M	'P 1'

loop_
_symmetry_equiv_pos_as_xyz
  x,y,z

loop_
_atom_site_label
_atom_site_type_symbol
_atom_site_fract_x
_atom_site_fract_y
_atom_site_fract_z
_atom_site_charge
C 	C 	0.52733 0.22599 0.84101 0.32100
C 	C 	0.85141 0.62623 0.91564 0.34800
C 	C 	0.83642 0.33691 0.85296 0.34000
C 	C 	0.57961 0.54954 0.91600 0.29100
C 	C 	0.77918 0.32479 0.99283 0.30200
C 	C 	0.48703 0.19834 0.97378 0.29000
Ni	Ni	0.70033 0.45167 0.86278 1.11300
Ni	Ni	0.67302 0.43830 0.96262 1.12700
Ni	Ni	0.66024 0.23564 0.91403 1.12300
O 	O 	0.55879 0.33035 0.83464 -0.36700
O 	O 	0.59798 0.19684 0.85583 -0.38000
O 	O 	0.80033 0.41787 0.97748 -0.38600
O 	O 	0.84687 0.55028 0.89209 -0.38800
O 	O 	0.78818 0.59802 0.94866 -0.37300
O 	O 	0.50823 0.16814 0.93790 -0.38000
O 	O 	0.78432 0.38077 0.83345 -0.37000
O 	O 	0.81659 0.31147 0.89201 -0.38200
O 	O 	0.55560 0.29632 0.99061 -0.35900
O 	O 	0.62728 0.54954 0.88007 -0.35700
O 	O 	0.55722 0.47434 0.94404 -0.37300
O 	O 	0.71910 0.23544 0.97145 -0.37000
O 	O 	0.65144 0.36731 0.91103 -0.70600
H 	H 	0.57101 0.33856 0.90797 0.16500
C 	C 	0.39075 0.22363 0.62740 0.32500
C 	C 	0.80032 0.33558 0.52955 0.32500
C 	C 	0.53915 0.07592 0.59788 0.31000
C 	C 	0.69849 0.50317 0.53128 0.29500
C 	C 	0.83151 0.29109 0.65589 0.35700
C 	C 	0.73763 0.50057 0.68295 0.31300
Ni	Ni	0.56733 0.27975 0.55847 1.12000
Ni	Ni	0.80281 0.44600 0.60411 1.12000
Ni	Ni	0.60713 0.25992 0.65692 1.12400
O 	O 	0.41539 0.24144 0.58738 -0.35100
O 	O 	0.46750 0.27095 0.65618 -0.37500
O 	O 	0.86394 0.39470 0.65003 -0.40300
O 	O 	0.69860 0.30785 0.51761 -0.36000
O 	O 	0.82211 0.34113 0.56847 -0.40500
O 	O 	0.69247 0.39513 0.69370 -0.37100
O 	O 	0.53574 0.12134 0.56332 -0.36100
O 	O 	0.51417 0.10708 0.63264 -0.36900
O 	O 	0.77356 0.53512 0.64503 -0.38300
O 	O 	0.60012 0.43508 0.54542 -0.36700
O 	O 	0.78905 0.52926 0.55372 -0.36800
O 	O 	0.72614 0.22024 0.65958 -0.39600
O 	O 	0.64872 0.34051 0.60711 -0.71300
H 	H 	0.61909 0.38986 0.61334 0.16100
C 	C 	0.84043 0.77236 0.72570 0.31900
C 	C 	0.23953 0.11905 0.81258 0.34800
C 	C 	0.89640 0.82585 0.83582 0.27800
C 	C 	0.19397 0.05429 0.69881 0.33200
C 	C 	0.94683 0.16163 0.81961 0.27000
C 	C 	0.91339 0.12047 0.70401 0.25700
Ni	Ni	0.06533 0.91482 0.77096 1.12000
Ni	Ni	0.09992 0.15871 0.75639 1.12600
Ni	Ni	0.85886 0.96025 0.77328 1.10500
O 	O 	0.92063 0.77440 0.74951 -0.39000
O 	O 	0.81308 0.85061 0.72713 -0.39200
O 	O 	0.01142 0.21403 0.78825 -0.31500
O 	O 	0.22105 0.02926 0.79357 -0.35900
O 	O 	0.16768 0.15324 0.81030 -0.37800
O 	O 	0.84962 0.07229 0.73660 -0.37500
O 	O 	0.00243 0.89041 0.83023 -0.32100
O 	O 	0.82545 0.83164 0.81054 -0.37600
O 	O 	0.02302 0.16978 0.70639 -0.32400
O 	O 	0.14379 0.95377 0.71420 -0.36400
O 	O 	0.21545 0.14062 0.72224 -0.36300
O 	O 	0.90495 0.05600 0.82314 -0.38200
O 	O 	0.00590 0.00466 0.75631 -0.63300
H 	H 	0.99541 0.99117 0.72653 0.09200
C 	C 	0.62403 0.95037 0.37141 0.30500
C 	C 	0.29976 0.49597 0.34597 0.34700
C 	C 	0.33014 0.80774 0.32567 0.34400
C 	C 	0.59274 0.62777 0.40190 0.28400
C 	C 	0.18410 0.62035 0.43477 0.29300
C 	C 	0.44853 0.77307 0.49278 0.29000
Ni	Ni	0.48530 0.72173 0.34358 1.11900
Ni	Ni	0.37370 0.59432 0.42741 1.12800
Ni	Ni	0.39102 0.82378 0.41228 1.12200
O 	O 	0.62495 0.86551 0.35467 -0.37000
O 	O 	0.52818 0.94849 0.38168 -0.36100
O 	O 	0.22593 0.57384 0.41253 -0.38100
O 	O 	0.33964 0.58726 0.32594 -0.38000
O 	O 	0.34871 0.49064 0.37986 -0.37500
O 	O 	0.47125 0.85175 0.46574 -0.37800
O 	O 	0.42590 0.81641 0.31520 -0.36700
O 	O 	0.29211 0.77873 0.36276 -0.37900
O 	O 	0.38439 0.66785 0.48332 -0.36000
O 	O 	0.56118 0.63048 0.36320 -0.35500
O 	O 	0.52561 0.61194 0.43335 -0.36600
O 	O 	0.24639 0.72506 0.44373 -0.34800
O 	O 	0.44514 0.72756 0.39846 -0.71800
H 	H 	0.51782 0.76523 0.41225 0.16800
C 	C 	0.26737 0.75360 0.19325 0.31400
C 	C 	0.20768 0.36349 0.11436 0.34000
C 	C 	0.48907 0.67413 0.18490 0.33000
C 	C 	0.01541 0.44634 0.12216 0.35500
C 	C 	0.43736 0.67277 0.04140 0.30300
C 	C 	0.28314 0.80101 0.06104 0.29600
Ni	Ni	0.23668 0.53518 0.17212 1.11700
Ni	Ni	0.21563 0.55875 0.07163 1.12800
Ni	Ni	0.40441 0.75929 0.12213 1.12500
O 	O 	0.20599 0.64868 0.20193 -0.36000
O 	O 	0.37053 0.79220 0.17988 -0.37800
O 	O 	0.36140 0.57780 0.05433 -0.37600
O 	O 	0.27683 0.43174 0.14141 -0.36700
O 	O 	0.16936 0.39859 0.08413 -0.36000
O 	O 	0.30686 0.81315 0.10000 -0.39000
O 	O 	0.39218 0.60876 0.20234 -0.35900
O 	O 	0.49425 0.69558 0.14561 -0.37600
O 	O 	0.24095 0.70237 0.04345 -0.35100
O 	O 	0.06753 0.43614 0.15513 -0.35500
O 	O 	0.06686 0.52406 0.09450 -0.36800
O 	O 	0.46683 0.76053 0.06447 -0.36400
O 	O 	0.27208 0.62131 0.12411 -0.70200
H 	H 	0.21837 0.64637 0.12890 0.15700
C 	C 	0.14886 0.18700 0.19134 0.32800
C 	C 	0.85381 0.01318 0.33067 0.34100
C 	C 	0.13693 0.22402 0.31227 0.33300
C 	C 	0.76654 0.89149 0.21837 0.32900
C 	C 	0.11775 0.86765 0.30653 0.34800
C 	C 	0.07175 0.84908 0.21896 0.35700
Ni	Ni	0.95447 0.10720 0.24830 1.08800
Ni	Ni	0.91651 0.86961 0.28038 1.09900
Ni	Ni	0.16702 0.06450 0.26164 1.12800
O 	O 	0.04828 0.17385 0.19498 -0.32800
O 	O 	0.20502 0.19271 0.22439 -0.39000
O 	O 	0.01613 0.83968 0.31661 -0.35200
O 	O 	0.83896 0.05249 0.29608 -0.37900
O 	O 	0.89511 0.94558 0.33079 -0.38600
O 	O 	0.14351 0.95656 0.21626 -0.38700
O 	O 	0.07958 0.23551 0.28188 -0.35600
O 	O 	0.16324 0.14619 0.31203 -0.36300
O 	O 	0.96536 0.80976 0.23150 -0.42600
O 	O 	0.82878 0.99628 0.20991 -0.37700
O 	O 	0.77441 0.85261 0.25432 -0.39300
O 	O 	0.18918 0.96970 0.30155 -0.39000
O 	O 	0.00980 0.00948 0.25642 -0.61400
H 	H 	0.99911 0.98891 0.22722 0.08200
C 	C 	0.20246 0.21501 0.15515 -0.10300
C 	C 	0.16413 0.25614 0.12053 -0.11000
H 	H 	0.28491 0.22383 0.15317 0.09000
H 	H 	0.10416 0.19866 0.09895 0.11000
C 	C 	0.67953 0.83017 0.19365 -0.11500
C 	C 	0.58064 0.72731 0.20844 -0.11000
H 	H 	0.67567 0.86267 0.16377 0.08800
H 	H 	0.57668 0.70360 0.24044 0.07700
C 	C 	0.10429 0.77901 0.20547 -0.12100
C 	C 	0.22225 0.81894 0.19343 -0.11200
H 	H 	0.04590 0.69206 0.20586 0.11100
H 	H 	0.27360 0.90370 0.18447 0.08800
C 	C 	0.72057 0.04428 0.37221 -0.09000
C 	C 	0.82723 0.04225 0.36675 -0.12400
H 	H 	0.72298 0.11780 0.38354 0.08400
H 	H 	0.86929 0.03912 0.39441 0.08800
C 	C 	0.17975 0.29930 0.34177 -0.10500
C 	C 	0.20461 0.41157 0.33346 -0.11700
H 	H 	0.21690 0.28347 0.36851 0.10100
H 	H 	0.15585 0.42547 0.31046 0.10000
C 	C 	0.26946 0.82560 0.29832 -0.11200
C 	C 	0.15241 0.79433 0.30792 -0.11900
H 	H 	0.30665 0.86651 0.26972 0.08600
H 	H 	0.09460 0.71047 0.31622 0.10900
C 	C 	0.53321 0.96827 0.59499 -0.07200
C 	C 	0.61879 0.96182 0.57371 -0.00800
C 	C 	0.59169 0.87721 0.54510 0.00600
C 	C 	0.47983 0.80502 0.53613 -0.05500
C 	C 	0.39876 0.79514 0.56486 0.00200
C 	C 	0.42828 0.87439 0.59609 0.00900
C 	C 	0.73141 0.04975 0.57645 0.10000
C 	C 	0.28582 0.70717 0.56166 0.10400
C 	C 	0.35276 0.85854 0.62943 0.09200
C 	C 	0.67795 0.87141 0.52184 0.08500
N 	N 	0.29247 0.84509 0.65624 -0.10300
N 	N 	0.74678 0.86696 0.50318 -0.11100
N 	N 	0.19505 0.63734 0.55966 -0.10200
N 	N 	0.82207 0.11951 0.57801 -0.11100
C 	C 	0.08596 0.54800 0.46004 0.02300
C 	C 	0.09487 0.47689 0.48876 -0.03200
C 	C 	0.00250 0.40711 0.51245 0.09400
C 	C 	0.89533 0.38525 0.50009 -0.15500
C 	C 	0.88509 0.42878 0.46245 0.05000
C 	C 	0.97863 0.52200 0.44646 -0.08600
C 	C 	0.18930 0.45851 0.48808 0.09100
C 	C 	0.79616 0.35973 0.43501 0.07200
C 	C 	0.96513 0.58226 0.41304 0.09500
C 	C 	0.01839 0.35274 0.54747 0.10300
N 	N 	0.95437 0.63025 0.38625 -0.12700
N 	N 	0.03417 0.31119 0.57532 -0.07700
N 	N 	0.72567 0.30361 0.41288 -0.10400
N 	N 	0.26293 0.44125 0.48769 -0.13500
C 	C 	0.68098 0.60135 0.40957 -0.05800
C 	C 	0.64381 0.49110 0.41595 0.00300
C 	C 	0.63931 0.45568 0.45668 0.01300
C 	C 	0.70957 0.53264 0.48680 -0.06400
C 	C 	0.78353 0.64034 0.47386 0.00700
C 	C 	0.76978 0.67426 0.43441 0.00100
C 	C 	0.58438 0.41401 0.38348 0.10300
C 	C 	0.87169 0.71535 0.50062 0.09400
C 	C 	0.84371 0.78338 0.42029 0.08900
C 	C 	0.55362 0.34710 0.46808 0.08100
N 	N 	0.90469 0.87107 0.40963 -0.10900
N 	N 	0.48468 0.26039 0.47687 -0.12800
N 	N 	0.94224 0.77533 0.52194 -0.11600
N 	N 	0.53678 0.35245 0.35752 -0.10400
C 	C 	0.86810 0.14305 0.67251 -0.08200
C 	C 	0.90604 0.25844 0.66191 -0.13400
H 	H 	0.78469 0.08189 0.66362 0.08700
H 	H 	0.99408 0.31756 0.66180 0.08100
C 	C 	0.28434 0.17272 0.63875 -0.10600
C 	C 	0.24070 0.06911 0.66155 -0.09400
H 	H 	0.22556 0.18271 0.61965 0.09900
H 	H 	0.23410 0.99902 0.64520 0.08500
C 	C 	0.75990 0.57515 0.71242 -0.10400
C 	C 	0.77992 0.68580 0.70165 -0.11600
H 	H 	0.74993 0.55074 0.74451 0.07500
H 	H 	0.72937 0.69294 0.67756 0.08800
C 	C 	0.79467 0.31776 0.03764 -0.06600
C 	C 	0.83791 0.25211 0.05266 -0.00300
C 	C 	0.88135 0.26990 0.09277 0.01400
C 	C 	0.89968 0.36422 0.11381 -0.12800
C 	C 	0.82682 0.40373 0.10528 0.02300
C 	C 	0.78014 0.38763 0.06567 0.00300
C 	C 	0.84470 0.17260 0.02641 0.09400
C 	C 	0.81499 0.47488 0.13448 0.07500
C 	C 	0.72418 0.44717 0.05326 0.07200
C 	C 	0.88775 0.18396 0.11438 0.07300
N 	N 	0.67995 0.49538 0.04369 -0.13300
N 	N 	0.89083 0.11321 0.13120 -0.10600
N 	N 	0.80564 0.53181 0.15784 -0.11000
N 	N 	0.85041 0.10936 0.00533 -0.10400
C 	C 	0.40582 0.11050 0.00068 -0.05900
C 	C 	0.44130 0.09962 0.03957 0.01900
C 	C 	0.42340 0.99780 0.05201 -0.00800
C 	C 	0.33190 0.90241 0.03578 -0.05600
C 	C 	0.27522 0.91333 0.00141 -0.00500
C 	C 	0.31475 0.01758 0.98299 0.01800
C 	C 	0.48057 0.18803 0.06879 0.09900
C 	C 	0.17771 0.81941 0.98517 0.10400
C 	C 	0.26027 0.02982 0.94702 0.10300
C 	C 	0.50416 0.99153 0.07856 0.07300
N 	N 	0.21649 0.03942 0.91831 -0.09000
N 	N 	0.56916 0.98744 0.09978 -0.13300
N 	N 	0.09979 0.74443 0.97218 -0.08300
N 	N 	0.51079 0.25797 0.09254 -0.10300
C 	C 	0.54625 0.63248 0.92476 -0.05800
C 	C 	0.43261 0.59537 0.92987 0.00400
C 	C 	0.39487 0.61988 0.96665 0.01100
C 	C 	0.47294 0.68351 0.99749 -0.06500
C 	C 	0.58644 0.74106 0.98680 0.00400
C 	C 	0.61979 0.72444 0.94770 -0.00100
C 	C 	0.35454 0.52245 0.89972 0.09900
C 	C 	0.66863 0.81261 0.01608 0.09900
C 	C 	0.71156 0.81399 0.92719 0.08800
C 	C 	0.27718 0.57796 0.97298 0.07700
N 	N 	0.78419 0.88726 0.91090 -0.11300
N 	N 	0.18291 0.54365 0.97769 -0.10600
N 	N 	0.73424 0.86947 0.03962 -0.10500
N 	N 	0.29218 0.46408 0.87562 -0.09800
C 	C 	0.89981 0.30674 0.83160 -0.13100
C 	C 	0.91389 0.21363 0.84569 -0.09400
H 	H 	0.92389 0.33705 0.80043 0.08800
H 	H 	0.87561 0.17364 0.87448 0.08100
C 	C 	0.33456 0.17985 0.83238 -0.11600
C 	C 	0.42274 0.14985 0.83382 -0.10900
H 	H 	0.34841 0.25488 0.84712 0.09600
H 	H 	0.40023 0.06428 0.83500 0.09400
C 	C 	0.88745 0.72502 0.89919 -0.14600
C 	C 	0.86362 0.73167 0.85503 -0.09200
H 	H 	0.91091 0.79477 0.91911 0.09100
H 	H 	0.80073 0.65821 0.84007 0.04100
