data_crystal

_cell_length_a 27.73481
_cell_length_b 28.06341
_cell_length_c 26.57550
_cell_angle_alpha 95.56500
_cell_angle_beta  95.56749
_cell_angle_gamma 125.63416

_symmetry_space_group_name_	'P 1'
_symmetry_space_group_name_H-M	'P 1'

loop_
_symmetry_equiv_pos_as_xyz
  x,y,z

loop_
_atom_site_label
_atom_site_type_symbol
_atom_site_fract_x
_atom_site_fract_y
_atom_site_fract_z
_atom_site_charge
C 	C 	0.05324 0.02730 0.97653 0.13200
N 	N 	0.02873 0.05708 0.98289 -0.13100
N 	N 	0.00489 0.03649 0.44430 -0.13100
C 	C 	0.03452 0.01174 0.44950 0.13000
Cu	Cu	0.64308 0.24758 0.00161 0.92600
Cu	Cu	0.69708 0.25599 0.89588 0.87400
Cu	Cu	0.67349 0.34043 0.93465 0.90300
Cu	Cu	0.64371 0.35824 0.03604 0.90000
C 	C 	0.65985 0.29218 0.10870 0.33200
O 	O 	0.55480 0.21303 0.99946 -0.34000
C 	C 	0.66411 0.30663 0.82363 0.32500
O 	O 	0.69174 0.34053 0.00623 -0.64400
O 	O 	0.63611 0.25366 0.92816 -0.63700
O 	O 	0.68033 0.20467 0.99901 -0.35500
O 	O 	0.75028 0.26958 0.95540 -0.43000
O 	O 	0.63181 0.31528 0.09468 -0.37100
O 	O 	0.71596 0.42596 0.94366 -0.36600
C 	C 	0.71483 0.45985 0.98094 0.32500
C 	C 	0.53183 0.23852 0.97978 0.30300
O 	O 	0.56766 0.29439 0.97459 -0.38300
O 	O 	0.68006 0.43736 0.01552 -0.39100
O 	O 	0.66286 0.25677 0.07479 -0.34400
C 	C 	0.73227 0.22874 0.98399 0.31600
O 	O 	0.65863 0.33775 0.86028 -0.35500
O 	O 	0.66362 0.26069 0.83171 -0.39900
H 	H 	0.73530 0.36688 0.02185 0.18000
H 	H 	0.59488 0.22729 0.90698 0.18800
Cu	Cu	0.73517 0.33931 0.43405 0.93200
Cu	Cu	0.72986 0.28941 0.54144 0.87500
Cu	Cu	0.64234 0.31020 0.50221 0.90100
Cu	Cu	0.62219 0.33737 0.40001 0.90200
C 	C 	0.68819 0.32042 0.32686 0.33100
O 	O 	0.76979 0.42639 0.43463 -0.34400
C 	C 	0.67866 0.32206 0.61336 0.32500
O 	O 	0.64128 0.29108 0.43055 -0.63900
O 	O 	0.73028 0.34794 0.50776 -0.63900
O 	O 	0.77839 0.30212 0.43685 -0.35800
O 	O 	0.71424 0.23499 0.48265 -0.43100
O 	O 	0.66434 0.34776 0.34062 -0.36900
O 	O 	0.55570 0.26747 0.49400 -0.36400
C 	C 	0.52066 0.26646 0.45585 0.31200
C 	C 	0.74373 0.44930 0.45334 0.30200
O 	O 	0.68779 0.41388 0.46001 -0.38700
O 	O 	0.54301 0.30211 0.42213 -0.38100
O 	O 	0.72449 0.31812 0.36087 -0.34100
C 	C 	0.75438 0.25139 0.45301 0.31100
O 	O 	0.64604 0.32615 0.57668 -0.35500
O 	O 	0.72587 0.32399 0.60513 -0.39900
H 	H 	0.61475 0.24788 0.41551 0.18100
H 	H 	0.75681 0.38912 0.52812 0.18800
C 	C 	0.71005 0.36933 0.75750 0.09800
C 	C 	0.66086 0.31724 0.77057 -0.10800
C 	C 	0.61180 0.27233 0.73168 0.10500
C 	C 	0.61578 0.27553 0.67955 0.09800
C 	C 	0.66793 0.32481 0.66647 -0.10800
C 	C 	0.71299 0.37353 0.70537 0.10500
Br	Br	0.77791 0.44619 0.68711 -0.19800
Br	Br	0.77462 0.43363 0.81089 -0.20800
Br	Br	0.55120 0.21119 0.62618 -0.21000
Br	Br	0.53897 0.20719 0.74999 -0.19800
C 	C 	0.72699 0.34319 0.19489 0.09900
C 	C 	0.67317 0.29295 0.16385 -0.10700
C 	C 	0.62892 0.24712 0.18669 0.10600
C 	C 	0.63628 0.25405 0.24069 0.09900
C 	C 	0.68739 0.30704 0.27174 -0.10600
C 	C 	0.73398 0.35050 0.24889 0.10600
Br	Br	0.80610 0.42115 0.29157 -0.18300
Br	Br	0.79040 0.40250 0.16324 -0.22200
Br	Br	0.57589 0.19169 0.27233 -0.22000
Br	Br	0.55724 0.17606 0.14398 -0.18500
C 	C 	0.79869 0.63976 0.41287 -0.02500
C 	C 	0.81515 0.62461 0.45672 -0.00200
C 	C 	0.79213 0.56345 0.45688 0.05400
C 	C 	0.77128 0.51170 0.45596 -0.09300
H 	H 	0.76921 0.60577 0.37890 0.04800
C 	C 	0.78310 0.09427 0.44406 -0.02600
C 	C 	0.81615 0.15116 0.43119 -0.00600
C 	C 	0.87196 0.17447 0.41645 -0.02600
C 	C 	0.79489 0.18726 0.43690 0.05400
C 	C 	0.77677 0.21702 0.44324 -0.10600
H 	H 	0.73992 0.07593 0.45551 0.04400
H 	H 	0.89779 0.21840 0.40647 0.04700
C 	C 	0.21629 0.11056 0.45483 0.02000
C 	C 	0.25201 0.10450 0.49074 -0.03800
C 	C 	0.31398 0.13623 0.49138 -0.02500
C 	C 	0.34043 0.17409 0.45611 -0.00100
C 	C 	0.30477 0.18042 0.42043 -0.02500
C 	C 	0.24281 0.14870 0.41978 -0.03900
C 	C 	0.15220 0.07641 0.45307 0.01000
C 	C 	0.09849 0.04726 0.45147 -0.03000
C 	C 	0.40407 0.20629 0.45639 0.05600
C 	C 	0.45733 0.23353 0.45632 -0.09000
H 	H 	0.23177 0.07503 0.51791 0.05300
H 	H 	0.34131 0.13121 0.51913 0.05500
H 	H 	0.32496 0.20970 0.39310 0.04700
H 	H 	0.21544 0.15354 0.39189 0.05000
C 	C 	0.80192 0.63672 0.97833 0.00800
C 	C 	0.77156 0.57430 0.97895 0.05800
C 	C 	0.74591 0.52203 0.97971 -0.09000
H 	H 	0.82441 0.63152 0.90336 0.05600
C 	C 	0.88695 0.19403 0.99369 -0.01400
C 	C 	0.82806 0.16156 0.00371 -0.02900
C 	C 	0.80085 0.10420 0.01468 -0.02200
C 	C 	0.79394 0.18516 0.99860 0.07200
C 	C 	0.76554 0.20493 0.99285 -0.11300
H 	H 	0.90829 0.23840 0.98516 0.04300
H 	H 	0.75534 0.07882 0.02245 0.04400
C 	C 	0.22987 0.11066 0.96534 0.01900
C 	C 	0.24662 0.07559 0.94456 -0.03800
C 	C 	0.30755 0.10100 0.94490 -0.02200
C 	C 	0.35196 0.16158 0.96598 -0.00400
C 	C 	0.33510 0.19695 0.98573 -0.01500
C 	C 	0.27418 0.17153 0.98544 -0.03000
C 	C 	0.16773 0.08329 0.96893 0.01300
C 	C 	0.11556 0.05885 0.97230 -0.03000
C 	C 	0.41494 0.18698 0.96947 0.05800
C 	C 	0.46807 0.20952 0.97349 -0.09200
H 	H 	0.21258 0.02847 0.92896 0.05200
H 	H 	0.32023 0.07341 0.92949 0.05000
H 	H 	0.36921 0.24387 0.00200 0.03700
H 	H 	0.26158 0.19891 0.00158 0.04100
C 	C 	0.96996 0.02689 0.98789 0.12400
H 	H 	0.86551 0.65737 0.53478 0.04900
C 	C 	0.86300 0.08550 0.43005 0.02000
C 	C 	0.80649 0.06153 0.44352 -0.04200
C 	C 	0.89531 0.14170 0.41585 -0.04100
C 	C 	0.88957 0.05421 0.43377 0.00400
C 	C 	0.91340 0.02958 0.43737 -0.03100
H 	H 	0.78120 0.01810 0.45448 0.04800
H 	H 	0.93900 0.16050 0.40532 0.04900
C 	C 	0.89000 0.11061 0.00284 -0.00200
C 	C 	0.91785 0.16859 0.99324 -0.03000
C 	C 	0.83176 0.07878 0.01427 -0.03800
C 	C 	0.91967 0.08245 0.99812 0.02200
C 	C 	0.94338 0.05781 0.99363 -0.03700
H 	H 	0.96291 0.19352 0.98449 0.04700
H 	H 	0.81000 0.03397 0.02186 0.04500
C 	C 	0.82755 0.66024 0.93593 -0.02500
H 	H 	0.78614 0.65619 0.05307 0.04700
C 	C 	0.85290 0.66879 0.50062 -0.02500
C 	C 	0.80601 0.67413 0.02022 -0.03500
C 	C 	0.82058 0.69897 0.41265 -0.03900
H 	H 	0.80837 0.71045 0.37833 0.05000
C 	C 	0.94425 0.00270 0.44203 0.12000
C 	C 	0.85768 0.72107 0.93564 -0.03900
N 	N 	0.01909 0.96761 0.97522 -0.12500
N 	N 	0.00358 0.95321 0.45242 -0.12500
N 	N 	0.93590 0.96713 0.98654 -0.13000
C 	C 	0.96049 0.93753 0.98020 0.13100
C 	C 	0.94300 0.91925 0.45017 0.13000
N 	N 	0.91316 0.94394 0.44496 -0.13000
C 	C 	0.85895 0.74332 0.45630 0.02000
C 	C 	0.87481 0.72805 0.50040 -0.03900
C 	C 	0.88610 0.80508 0.45435 0.00900
C 	C 	0.91068 0.85704 0.45248 -0.03000
H 	H 	0.90472 0.76213 0.53421 0.05100
C 	C 	0.86225 0.75859 0.97774 0.03100
C 	C 	0.83614 0.73496 0.01993 -0.04900
C 	C 	0.89587 0.82165 0.97855 0.00800
C 	C 	0.92484 0.87454 0.97930 -0.02700
H 	H 	0.83961 0.76375 0.05264 0.05000
H 	H 	0.87787 0.73908 0.90293 0.05300
