data_crystal

_cell_length_a 33.55785
_cell_length_b 34.09709
_cell_length_c 44.78526
_cell_angle_alpha 95.53715
_cell_angle_beta  95.53917
_cell_angle_gamma 125.44991

_symmetry_space_group_name_	'P 1'
_symmetry_space_group_name_H-M	'P 1'

loop_
_symmetry_equiv_pos_as_xyz
  x,y,z

loop_
_atom_site_label
_atom_site_type_symbol
_atom_site_fract_x
_atom_site_fract_y
_atom_site_fract_z
_atom_site_charge
C 	C 	0.96832 0.01418 0.99458 0.11200
N 	N 	0.01557 0.03844 0.98920 -0.14000
C 	C 	0.03695 0.01485 0.98626 0.11500
N 	N 	0.00564 0.03309 0.46325 -0.14000
Cu	Cu	0.64238 0.25102 0.99470 0.92700
Cu	Cu	0.68549 0.26073 0.93101 0.87000
O 	O 	0.56950 0.22197 0.99298 -0.36400
O 	O 	0.63910 0.26253 0.95240 -0.64200
O 	O 	0.67233 0.21511 0.99045 -0.37500
O 	O 	0.73011 0.26948 0.96500 -0.44100
C 	C 	0.55082 0.24432 0.98320 0.28200
O 	O 	0.65603 0.25255 0.03751 -0.36300
C 	C 	0.71530 0.23523 0.98153 0.28900
O 	O 	0.65698 0.26891 0.89537 -0.42200
H 	H 	0.60512 0.24403 0.94006 0.17200
Cu	Cu	0.73223 0.31322 0.52909 0.87100
Cu	Cu	0.65074 0.31496 0.49840 0.89700
O 	O 	0.65609 0.30230 0.45698 -0.64100
O 	O 	0.77364 0.31955 0.46793 -0.37300
O 	O 	0.72281 0.26655 0.49695 -0.44100
O 	O 	0.57878 0.27401 0.48936 -0.38400
C 	C 	0.55113 0.27550 0.46703 0.29100
O 	O 	0.57107 0.30581 0.44762 -0.39500
C 	C 	0.75613 0.27966 0.47946 0.28900
H 	H 	0.63710 0.26711 0.44788 0.16400
C 	C 	0.60559 0.31991 0.78945 -0.03100
C 	C 	0.60340 0.32510 0.75884 -0.04400
C 	C 	0.61835 0.30332 0.69326 -0.04400
C 	C 	0.62228 0.30188 0.66246 -0.03100
H 	H 	0.57149 0.29931 0.79840 0.03700
H 	H 	0.56762 0.30859 0.74438 0.04000
H 	H 	0.59678 0.26934 0.70171 0.03900
H 	H 	0.60350 0.26681 0.64731 0.03600
C 	C 	0.69412 0.27505 0.21159 0.00800
C 	C 	0.73437 0.29454 0.19613 -0.04400
C 	C 	0.72659 0.29275 0.16461 -0.03200
C 	C 	0.70302 0.28314 0.24528 0.00800
C 	C 	0.70822 0.29906 0.30862 -0.00800
C 	C 	0.68077 0.25114 0.29190 -0.03200
C 	C 	0.67825 0.24316 0.26032 -0.04400
H 	H 	0.77175 0.31218 0.20865 0.04000
H 	H 	0.75804 0.30912 0.15300 0.03700
H 	H 	0.66019 0.22010 0.30317 0.03700
H 	H 	0.65588 0.20601 0.24742 0.04000
C 	C 	0.93215 0.03230 0.46341 -0.02000
C 	C 	0.86456 0.03501 0.44212 -0.04800
C 	C 	0.88893 0.08220 0.45953 0.01200
C 	C 	0.93465 0.10399 0.47917 -0.04800
C 	C 	0.95624 0.07927 0.48099 -0.02100
C 	C 	0.86637 0.10863 0.45755 0.00500
C 	C 	0.89347 0.15573 0.45033 -0.04100
C 	C 	0.87441 0.18291 0.45169 -0.03700
C 	C 	0.82786 0.16306 0.45998 -0.00200
C 	C 	0.79974 0.11507 0.46577 -0.03700
C 	C 	0.81902 0.08809 0.46473 -0.04200
C 	C 	0.81032 0.19375 0.46496 0.02800
C 	C 	0.80405 0.21493 0.44126 -0.06800
C 	C 	0.78728 0.24384 0.44611 0.01700
C 	C 	0.77628 0.25145 0.47462 -0.09700
C 	C 	0.78308 0.23066 0.49836 0.01500
C 	C 	0.80020 0.20217 0.49360 -0.07000
H 	H 	0.95341 0.14006 0.49304 0.04100
H 	H 	0.99166 0.09659 0.49613 0.03900
H 	H 	0.92976 0.17167 0.44435 0.03900
H 	H 	0.89638 0.21984 0.44710 0.03800
H 	H 	0.76349 0.09917 0.47182 0.03700
H 	H 	0.79772 0.05175 0.47025 0.03900
H 	H 	0.81176 0.20867 0.41906 0.04700
H 	H 	0.78199 0.25953 0.42758 0.03700
H 	H 	0.77529 0.23674 0.52057 0.01200
H 	H 	0.80564 0.18664 0.51218 0.04400
C 	C 	0.08238 0.03903 0.46452 -0.02100
C 	C 	0.10489 0.07668 0.44750 -0.02000
C 	C 	0.15569 0.10267 0.44681 -0.04800
C 	C 	0.18440 0.09120 0.46307 0.01300
C 	C 	0.16207 0.05382 0.48019 -0.04800
C 	C 	0.11135 0.02789 0.48096 -0.02200
C 	C 	0.23785 0.11834 0.46222 0.00500
C 	C 	0.25582 0.09418 0.44853 -0.04100
C 	C 	0.30680 0.11942 0.44879 -0.03700
C 	C 	0.34018 0.16899 0.46277 -0.00200
C 	C 	0.32215 0.19330 0.47617 -0.03700
C 	C 	0.27116 0.16808 0.47588 -0.04100
C 	C 	0.39404 0.19525 0.46378 0.02700
C 	C 	0.41318 0.20429 0.43674 -0.06700
C 	C 	0.46439 0.22995 0.43776 0.01400
C 	C 	0.49693 0.24676 0.46585 -0.08800
C 	C 	0.47760 0.23715 0.49288 0.01400
C 	C 	0.42639 0.21156 0.49183 -0.06700
H 	H 	0.08296 0.08543 0.43452 0.04100
H 	H 	0.17266 0.13145 0.43349 0.04200
H 	H 	0.18407 0.04498 0.49299 0.04100
H 	H 	0.23033 0.05581 0.43786 0.04000
H 	H 	0.32041 0.10038 0.43838 0.03800
H 	H 	0.34765 0.23164 0.48690 0.03900
H 	H 	0.25760 0.18699 0.48654 0.04000
H 	H 	0.38842 0.19173 0.41498 0.04500
H 	H 	0.47875 0.23672 0.41672 0.02700
H 	H 	0.50226 0.25016 0.51473 0.03800
H 	H 	0.41187 0.20453 0.51280 0.04600
C 	C 	0.94491 0.03968 0.99742 -0.02200
C 	C 	0.95536 0.07531 0.97970 -0.02100
C 	C 	0.93207 0.09840 0.98174 -0.05000
C 	C 	0.89817 0.08619 0.00152 0.01300
C 	C 	0.88816 0.05108 0.01952 -0.04900
C 	C 	0.91140 0.02792 0.01749 -0.02000
C 	C 	0.87203 0.10907 0.00266 0.00500
C 	C 	0.89913 0.16000 0.01190 -0.04100
C 	C 	0.87466 0.18202 0.01110 -0.03800
C 	C 	0.82288 0.15329 0.00109 -0.00100
C 	C 	0.79563 0.10224 0.99261 -0.03800
C 	C 	0.82010 0.08022 0.99338 -0.04100
C 	C 	0.79766 0.17686 0.99763 0.02600
C 	C 	0.80874 0.20754 0.97620 -0.06900
C 	C 	0.78267 0.22744 0.97142 0.01100
C 	C 	0.74509 0.21678 0.98804 -0.09600
C 	C 	0.73494 0.18702 0.01008 0.01600
C 	C 	0.76104 0.16708 0.01479 -0.06700
H 	H 	0.98085 0.08450 0.96397 0.03900
H 	H 	0.93982 0.12530 0.96763 0.04100
H 	H 	0.86228 0.04165 0.03500 0.04100
H 	H 	0.93918 0.18252 0.01933 0.03900
H 	H 	0.89596 0.22143 0.01786 0.03800
H 	H 	0.75567 0.07978 0.98478 0.03700
H 	H 	0.79887 0.04089 0.98619 0.03900
H 	H 	0.83693 0.21523 0.96283 0.04300
H 	H 	0.79105 0.25032 0.95437 0.02000
H 	H 	0.70666 0.17906 0.02343 0.04000
H 	H 	0.75253 0.14372 0.03157 0.04700
C 	C 	0.08848 0.04129 0.98083 -0.02100
C 	C 	0.10243 0.01651 0.96296 -0.02300
C 	C 	0.15209 0.04032 0.95986 -0.04800
C 	C 	0.18826 0.08916 0.97449 0.01300
C 	C 	0.17412 0.11450 0.99147 -0.04900
C 	C 	0.12446 0.09070 0.99464 -0.02100
C 	C 	0.24130 0.11264 0.97370 0.00400
C 	C 	0.27492 0.12671 0.00077 -0.04000
C 	C 	0.32471 0.14687 0.99992 -0.03800
C 	C 	0.34132 0.15302 0.97199 -0.00100
C 	C 	0.30786 0.13945 0.94494 -0.03800
C 	C 	0.25801 0.11932 0.94578 -0.04100
C 	C 	0.39375 0.17366 0.97117 0.02600
C 	C 	0.41328 0.14903 0.98062 -0.06600
C 	C 	0.46419 0.17108 0.98322 0.01200
C 	C 	0.49619 0.21816 0.97647 -0.08900
C 	C 	0.47603 0.24158 0.96539 0.01000
C 	C 	0.42509 0.21948 0.96288 -0.06600
H 	H 	0.16265 0.02049 0.94664 0.04100
H 	H 	0.20176 0.15234 0.00268 0.04200
H 	H 	0.11424 0.11027 0.00847 0.04100
H 	H 	0.26232 0.12149 0.02239 0.03900
H 	H 	0.35038 0.15759 0.02095 0.03900
H 	H 	0.32039 0.14416 0.92328 0.03800
H 	H 	0.23234 0.10866 0.92478 0.03900
H 	H 	0.38917 0.11328 0.98662 0.04600
H 	H 	0.47887 0.15209 0.99127 0.03700
H 	H 	0.41022 0.23854 0.95527 0.04500
H 	H 	0.90347 0.00097 0.03157 0.03900
O 	O 	0.72396 0.34371 0.56343 -0.42200
O 	O 	0.73043 0.32837 0.41964 -0.36400
C 	C 	0.67858 0.27131 0.14838 -0.00800
C 	C 	0.70497 0.30742 0.34014 0.04400
C 	C 	0.70293 0.31554 0.36653 -0.10600
C 	C 	0.67129 0.27478 0.11679 0.04400
H 	H 	0.49991 0.27736 0.95941 0.03200
C 	C 	0.68132 0.33613 0.56589 0.30700
C 	C 	0.66404 0.27713 0.09035 -0.10500
C 	C 	0.65425 0.28041 0.05915 0.30500
C 	C 	0.66108 0.30932 0.89323 0.30700
O 	O 	0.58077 0.29123 0.98235 -0.39300
C 	C 	0.69995 0.32655 0.39761 0.30500
O 	O 	0.64496 0.31679 0.54194 -0.38900
C 	C 	0.66298 0.34380 0.62131 0.04500
C 	C 	0.67111 0.34103 0.59585 -0.11300
C 	C 	0.65621 0.31995 0.86345 -0.11200
Cu	Cu	0.73419 0.34596 0.46232 0.92700
C 	C 	0.65154 0.33969 0.80807 -0.01000
C 	C 	0.64718 0.34990 0.74667 0.00800
C 	C 	0.64437 0.34851 0.71343 0.00800
C 	C 	0.65234 0.34554 0.65160 -0.01000
C 	C 	0.65335 0.32858 0.83817 0.04500
C 	C 	0.64580 0.25179 0.19502 -0.04300
O 	O 	0.63195 0.30105 0.05279 -0.38600
Cu	Cu	0.63832 0.33717 0.43653 0.89400
O 	O 	0.72492 0.35332 0.50493 -0.64100
C 	C 	0.63809 0.24990 0.16353 -0.03100
C 	C 	0.73243 0.33106 0.26234 -0.04300
C 	C 	0.73504 0.33896 0.29390 -0.03100
O 	O 	0.67733 0.34368 0.91751 -0.38900
O 	O 	0.67673 0.34643 0.40309 -0.38700
H 	H 	0.61448 0.23668 0.20670 0.04000
Cu	Cu	0.67439 0.33510 0.96041 0.89700
O 	O 	0.68330 0.32780 0.00179 -0.64100
H 	H 	0.60084 0.23306 0.15108 0.04000
C 	C 	0.69334 0.37169 0.76580 -0.04400
C 	C 	0.69547 0.36664 0.79639 -0.03100
C 	C 	0.67616 0.39074 0.67129 -0.03100
Cu	Cu	0.64261 0.34031 0.02004 0.89400
C 	C 	0.67209 0.39225 0.70212 -0.04400
H 	H 	0.75173 0.36218 0.25100 0.04000
H 	H 	0.75655 0.37611 0.30672 0.04000
H 	H 	0.72736 0.39090 0.75667 0.03900
H 	H 	0.74257 0.38755 0.51572 0.17200
H 	H 	0.71846 0.34772 0.01244 0.16400
H 	H 	0.73115 0.38227 0.81071 0.03600
O 	O 	0.68770 0.40188 0.47185 -0.39300
O 	O 	0.75917 0.41600 0.46075 -0.36300
H 	H 	0.69916 0.42466 0.66300 0.03700
O 	O 	0.71227 0.40557 0.97100 -0.38300
H 	H 	0.82928 0.01786 0.42688 0.04000
O 	O 	0.67273 0.40707 0.01023 -0.39500
H 	H 	0.69182 0.42734 0.71740 0.04000
C 	C 	0.73460 0.43281 0.46964 0.28100
C 	C 	0.70603 0.42983 0.99261 0.29000
C 	C 	0.02859 0.01095 0.46489 0.11700
C 	C 	0.88599 0.01007 0.44416 -0.02300
H 	H 	0.70038 0.48055 0.49594 0.03200
C 	C 	0.95635 0.00752 0.46421 0.11300
C 	C 	0.75819 0.48605 0.47447 -0.08900
C 	C 	0.73294 0.48324 0.99484 -0.08800
H 	H 	0.67657 0.48529 0.01310 0.03300
H 	H 	0.79576 0.49401 0.97714 0.03200
C 	C 	0.73432 0.50451 0.48744 0.01000
H 	H 	0.82197 0.50468 0.45443 0.03800
C 	C 	0.71220 0.50634 0.00588 0.01400
C 	C 	0.77901 0.51118 0.98534 0.01500
H 	H 	0.09467 0.99938 0.49450 0.04200
H 	H 	0.86718 0.97393 0.43038 0.04000
N 	N 	0.01097 0.96694 0.98877 -0.13800
C 	C 	0.96377 0.94254 0.99414 0.11600
N 	N 	0.94248 0.96621 0.99702 -0.14000
N 	N 	0.00214 0.96315 0.46763 -0.13800
C 	C 	0.95299 0.93747 0.46892 0.11500
N 	N 	0.92999 0.95962 0.46702 -0.13900
C 	C 	0.92531 0.88621 0.47339 -0.02200
C 	C 	0.94930 0.87181 0.49176 -0.02000
C 	C 	0.92514 0.82247 0.49355 -0.04900
C 	C 	0.87658 0.78697 0.47720 0.01300
C 	C 	0.85181 0.80146 0.45973 -0.04900
C 	C 	0.87608 0.85089 0.45782 -0.02000
C 	C 	0.85282 0.73446 0.47710 0.00500
C 	C 	0.83930 0.70241 0.44963 -0.04100
C 	C 	0.82070 0.65364 0.44981 -0.03700
C 	C 	0.81576 0.63653 0.47748 -0.00100
C 	C 	0.82851 0.66834 0.50490 -0.03700
C 	C 	0.84679 0.71704 0.50470 -0.04100
C 	C 	0.79717 0.58527 0.47771 0.02600
C 	C 	0.82221 0.56746 0.46591 -0.06600
C 	C 	0.80284 0.51812 0.46426 0.01200
C 	C 	0.75358 0.55376 0.48889 -0.06600
H 	H 	0.98697 0.89878 0.50429 0.03800
H 	H 	0.94455 0.81170 0.50714 0.04100
H 	H 	0.81414 0.77437 0.44724 0.04100
H 	H 	0.85712 0.86148 0.44360 0.03900
H 	H 	0.84402 0.71552 0.42822 0.03900
H 	H 	0.81043 0.62924 0.42848 0.03800
H 	H 	0.82474 0.65547 0.52638 0.03700
H 	H 	0.85692 0.74141 0.52601 0.03900
H 	H 	0.85631 0.59169 0.45763 0.04600
H 	H 	0.73413 0.56723 0.49821 0.04500
C 	C 	0.73694 0.55661 0.00704 -0.06700
C 	C 	0.78259 0.58427 0.99718 0.02700
C 	C 	0.80365 0.56143 0.98648 -0.06700
C 	C 	0.80788 0.63696 0.99752 -0.00200
C 	C 	0.81364 0.65448 0.96999 -0.03700
C 	C 	0.83780 0.70446 0.97030 -0.04100
C 	C 	0.85638 0.73732 0.99814 0.00500
C 	C 	0.85038 0.71977 0.02567 -0.04100
C 	C 	0.82619 0.66976 0.02536 -0.03700
C 	C 	0.88326 0.79022 0.99849 0.01300
C 	C 	0.85837 0.80792 0.98531 -0.04900
C 	C 	0.88442 0.85780 0.98438 -0.02000
C 	C 	0.93564 0.89040 0.99658 -0.02200
C 	C 	0.96027 0.87271 0.01025 -0.02000
C 	C 	0.93418 0.82286 0.01118 -0.04900
H 	H 	0.72037 0.57395 0.01526 0.04600
H 	H 	0.83908 0.58262 0.97902 0.04500
H 	H 	0.79940 0.62936 0.94839 0.03900
H 	H 	0.84243 0.71773 0.94895 0.03900
H 	H 	0.86456 0.74488 0.04727 0.03900
H 	H 	0.82191 0.65654 0.04673 0.03800
H 	H 	0.81898 0.78297 0.97556 0.04200
H 	H 	0.86500 0.87092 0.97367 0.04000
H 	H 	0.99963 0.89755 0.02007 0.03900
H 	H 	0.95367 0.80949 0.02144 0.04100
H 	H 	0.07492 0.97865 0.95175 0.04200
