data_crystal

_cell_length_a 26.18499
_cell_length_b 26.54830
_cell_length_c 26.58260
_cell_angle_alpha 95.50365
_cell_angle_beta  95.50395
_cell_angle_gamma 125.83428

_symmetry_space_group_name_	'P 1'
_symmetry_space_group_name_H-M	'P 1'

loop_
_symmetry_equiv_pos_as_xyz
  x,y,z

loop_
_atom_site_label
_atom_site_type_symbol
_atom_site_fract_x
_atom_site_fract_y
_atom_site_fract_z
_atom_site_charge
C 	C 	0.96783 0.03020 0.99758 0.05800
C 	C 	0.03257 0.06068 0.99420 -0.10000
C 	C 	0.05768 0.02626 0.99199 0.06000
C 	C 	0.01759 0.96112 0.99171 -0.10300
C 	C 	0.95322 0.93079 0.99557 0.05600
C 	C 	0.92879 0.96559 0.99986 -0.09000
H 	H 	0.06315 0.11079 0.99317 0.05900
H 	H 	0.03652 0.93416 0.98871 0.06400
H 	H 	0.87902 0.94209 0.00321 0.04900
C 	C 	0.93508 0.00037 0.44013 0.06500
C 	C 	0.00214 0.03703 0.44727 -0.10300
C 	C 	0.03281 0.00816 0.45112 0.05800
C 	C 	0.99645 0.94259 0.44810 -0.09500
C 	C 	0.92937 0.90563 0.44058 0.05700
C 	C 	0.89862 0.93450 0.43623 -0.10500
H 	H 	0.03034 0.08785 0.44979 0.05900
H 	H 	0.02026 0.92033 0.45137 0.05800
H 	H 	0.84674 0.90602 0.43047 0.05900
Cu	Cu	0.64189 0.24182 0.00081 0.92800
Cu	Cu	0.70765 0.26230 0.89928 0.88100
Cu	Cu	0.67079 0.34139 0.93586 0.90600
Cu	Cu	0.63342 0.35274 0.03607 0.89600
C 	C 	0.65328 0.28375 0.10765 0.29300
O 	O 	0.54634 0.19960 0.99628 -0.31800
C 	C 	0.66930 0.31179 0.82580 0.29900
O 	O 	0.68900 0.34011 0.00744 -0.64400
O 	O 	0.63687 0.25087 0.92797 -0.63400
O 	O 	0.68808 0.20311 0.99872 -0.34700
O 	O 	0.76292 0.28048 0.96108 -0.42200
O 	O 	0.62073 0.30513 0.09325 -0.35100
O 	O 	0.71039 0.43110 0.94617 -0.34000
C 	C 	0.70944 0.46438 0.98587 0.31100
C 	C 	0.52036 0.22545 0.97724 0.29400
O 	O 	0.55767 0.28472 0.97201 -0.38900
O 	O 	0.66918 0.43690 0.01767 -0.39800
O 	O 	0.66063 0.24969 0.07387 -0.31800
C 	C 	0.74609 0.23599 0.98811 0.29200
O 	O 	0.65799 0.34045 0.86162 -0.32600
O 	O 	0.67283 0.26563 0.83413 -0.39000
H 	H 	0.73484 0.36985 0.02401 0.17000
H 	H 	0.59425 0.22113 0.90527 0.18000
Cu	Cu	0.73464 0.33861 0.43288 0.93400
Cu	Cu	0.74178 0.29761 0.54461 0.88000
Cu	Cu	0.63907 0.30714 0.50398 0.90600
Cu	Cu	0.60851 0.32503 0.39983 0.89800
C 	C 	0.68149 0.31273 0.32566 0.29300
O 	O 	0.76398 0.42777 0.42864 -0.31700
C 	C 	0.68258 0.32684 0.61486 0.29600
O 	O 	0.63544 0.28241 0.43266 -0.64000
O 	O 	0.73305 0.35215 0.50702 -0.63700
O 	O 	0.78729 0.30677 0.43670 -0.34900
O 	O 	0.72799 0.23874 0.48843 -0.42500
O 	O 	0.65125 0.33649 0.33895 -0.34500
O 	O 	0.54699 0.25725 0.49871 -0.33300
C 	C 	0.50604 0.25164 0.46116 0.29900
C 	C 	0.73477 0.44981 0.44800 0.29400
O 	O 	0.67656 0.41018 0.45670 -0.39000
O 	O 	0.52522 0.28462 0.42384 -0.38800
O 	O 	0.72007 0.31119 0.36022 -0.31400
C 	C 	0.76919 0.25701 0.45733 0.29400
O 	O 	0.64612 0.32880 0.57829 -0.32200
O 	O 	0.73565 0.33492 0.60684 -0.39300
H 	H 	0.60919 0.23619 0.41997 0.17300
H 	H 	0.75953 0.39677 0.52507 0.17600
C 	C 	0.61430 0.27394 0.73463 0.05200
C 	C 	0.66562 0.32293 0.77277 -0.00100
C 	C 	0.71724 0.37835 0.75878 -0.10200
C 	C 	0.71969 0.38053 0.70630 0.05100
C 	C 	0.67128 0.32893 0.66810 -0.00100
C 	C 	0.61643 0.27625 0.68212 -0.10300
C 	C 	0.56058 0.22239 0.64129 0.77900
H 	H 	0.57395 0.23281 0.74601 0.07300
H 	H 	0.76049 0.42134 0.69501 0.07400
C 	C 	0.77071 0.43413 0.79970 0.77800
F 	F 	0.51282 0.17462 0.66277 -0.45300
F 	F 	0.58154 0.19643 0.60944 -0.47700
F 	F 	0.53404 0.24499 0.61226 -0.44500
F 	F 	0.80243 0.41617 0.82846 -0.47300
F 	F 	0.74527 0.45462 0.83181 -0.44500
F 	F 	0.81513 0.48461 0.77838 -0.45100
C 	C 	0.72055 0.34301 0.19370 0.04400
C 	C 	0.66847 0.28567 0.16292 -0.00300
C 	C 	0.62646 0.23380 0.18615 -0.09500
C 	C 	0.63436 0.24248 0.24019 0.04300
C 	C 	0.68351 0.30136 0.27083 0.00200
C 	C 	0.72917 0.35125 0.24771 -0.09700
C 	C 	0.78523 0.41420 0.28046 0.77900
H 	H 	0.75278 0.38206 0.17541 0.06100
H 	H 	0.60073 0.20424 0.25852 0.06600
C 	C 	0.57271 0.16973 0.15343 0.77900
F 	F 	0.82800 0.45401 0.25116 -0.45300
F 	F 	0.81831 0.40447 0.31706 -0.44300
F 	F 	0.76281 0.44406 0.30486 -0.45000
F 	F 	0.59818 0.14787 0.12277 -0.44700
F 	F 	0.53107 0.17502 0.12251 -0.44800
F 	F 	0.53779 0.12518 0.18328 -0.45200
C 	C 	0.89151 0.83670 0.43863 -0.03900
C 	C 	0.88661 0.79639 0.39636 0.09200
C 	C 	0.86042 0.73343 0.39972 -0.08000
C 	C 	0.83649 0.70940 0.44345 -0.00900
C 	C 	0.83804 0.74873 0.48452 0.07600
C 	C 	0.86597 0.81222 0.48177 -0.06400
N 	N 	0.90615 0.81758 0.35235 -0.19800
H 	H 	0.85793 0.70278 0.36792 0.06600
C 	C 	0.80949 0.64278 0.44556 0.01000
N 	N 	0.81291 0.72594 0.52656 -0.19500
H 	H 	0.86914 0.84306 0.51382 0.04700
C 	C 	0.84889 0.62935 0.47021 -0.09200
C 	C 	0.82476 0.56678 0.47348 0.13900
C 	C 	0.76091 0.51660 0.44912 -0.09300
C 	C 	0.72165 0.53018 0.42435 -0.01100
C 	C 	0.74503 0.59282 0.42281 0.06500
H 	H 	0.89809 0.66785 0.48797 0.06500
N 	N 	0.86232 0.55556 0.50139 -0.19900
H 	H 	0.67273 0.49175 0.40584 0.04500
N 	N 	0.70532 0.60461 0.39965 -0.19000
H 	H 	0.91009 0.59266 0.51754 0.09800
H 	H 	0.84389 0.51076 0.50937 0.09400
H 	H 	0.65799 0.56730 0.38251 0.09000
H 	H 	0.72056 0.65066 0.39893 0.09100
H 	H 	0.81490 0.75555 0.55688 0.08800
H 	H 	0.79053 0.67867 0.52939 0.09300
H 	H 	0.92123 0.86254 0.34713 0.08900
H 	H 	0.90427 0.78812 0.32196 0.09000
C 	C 	0.90313 0.03125 0.43654 -0.04000
C 	C 	0.88194 0.04453 0.47947 0.09100
C 	C 	0.85666 0.07860 0.47580 -0.07900
C 	C 	0.85362 0.10085 0.43070 -0.01100
C 	C 	0.87372 0.08662 0.38748 0.07700
C 	C 	0.89790 0.05152 0.39078 -0.06400
N 	N 	0.88672 0.02577 0.52447 -0.19800
H 	H 	0.84076 0.08923 0.50867 0.05500
C 	C 	0.83279 0.14209 0.43041 0.00600
N 	N 	0.86998 0.10646 0.34285 -0.19500
H 	H 	0.91386 0.04097 0.35792 0.04900
C 	C 	0.87796 0.20696 0.45027 -0.09600
C 	C 	0.85865 0.24608 0.45823 0.12900
C 	C 	0.79293 0.21992 0.44402 -0.10600
C 	C 	0.74835 0.15572 0.42140 -0.01700
C 	C 	0.76753 0.11636 0.41467 0.06300
H 	H 	0.92804 0.22658 0.46165 0.06000
N 	N 	0.90302 0.30794 0.48100 -0.20300
H 	H 	0.69822 0.13596 0.41004 0.05000
N 	N 	0.72311 0.05405 0.39328 -0.19100
H 	H 	0.95143 0.32681 0.49056 0.09200
H 	H 	0.89010 0.33758 0.49048 0.09200
H 	H 	0.67488 0.03531 0.38246 0.09400
H 	H 	0.73597 0.02384 0.38651 0.09300
H 	H 	0.88540 0.09612 0.31130 0.08800
H 	H 	0.85130 0.13174 0.33879 0.09700
H 	H 	0.90670 0.00175 0.52907 0.08900
H 	H 	0.87068 0.03563 0.55580 0.08700
C 	C 	0.43818 0.21618 0.46575 -0.09100
C 	C 	0.39873 0.14962 0.46182 0.14300
C 	C 	0.33336 0.11733 0.46353 -0.09200
C 	C 	0.30668 0.15009 0.46791 0.01000
C 	C 	0.34657 0.21682 0.47373 0.06500
C 	C 	0.41197 0.24916 0.47236 -0.01400
N 	N 	0.42278 0.11631 0.45514 -0.19900
H 	H 	0.30269 0.06627 0.45973 0.06700
C 	C 	0.23638 0.11367 0.46315 -0.00900
N 	N 	0.32238 0.24999 0.48030 -0.19100
H 	H 	0.44254 0.30022 0.47613 0.05100
C 	C 	0.20950 0.09830 0.50747 -0.08000
C 	C 	0.14319 0.06538 0.50468 0.09200
C 	C 	0.10309 0.04637 0.45632 -0.03900
C 	C 	0.12999 0.06173 0.41203 -0.06400
C 	C 	0.19632 0.09514 0.41486 0.07600
H 	H 	0.24042 0.11280 0.54436 0.06500
N 	N 	0.11850 0.05279 0.54850 -0.19800
H 	H 	0.09904 0.04703 0.37509 0.04800
N 	N 	0.22114 0.10910 0.37118 -0.19500
H 	H 	0.14840 0.06619 0.58388 0.09100
H 	H 	0.06983 0.03070 0.54813 0.08900
H 	H 	0.19115 0.09549 0.33580 0.08600
H 	H 	0.27014 0.13321 0.37171 0.09200
H 	H 	0.35204 0.29917 0.48367 0.09000
H 	H 	0.27434 0.22765 0.48289 0.09200
H 	H 	0.47044 0.13832 0.45147 0.10400
H 	H 	0.39331 0.06729 0.45281 0.10400
C 	C 	0.91093 0.86203 0.99387 -0.02800
C 	C 	0.88140 0.81881 0.94638 0.09200
C 	C 	0.84717 0.75385 0.94627 -0.08000
C 	C 	0.84078 0.73140 0.99261 0.00100
C 	C 	0.86824 0.77446 0.04012 0.06700
C 	C 	0.90334 0.83951 0.04021 -0.07300
N 	N 	0.88556 0.83933 0.90089 -0.19700
H 	H 	0.82536 0.72058 0.91000 0.06600
C 	C 	0.80650 0.66283 0.99081 0.00900
N 	N 	0.86110 0.75371 0.08563 -0.19400
H 	H 	0.92559 0.87282 0.07648 0.04900
C 	C 	0.84165 0.63843 0.99217 -0.09000
C 	C 	0.81115 0.57389 0.99193 0.14500
C 	C 	0.74375 0.53275 0.98821 -0.09600
C 	C 	0.70855 0.55715 0.98638 -0.01300
C 	C 	0.73929 0.62192 0.98789 0.06600
H 	H 	0.89318 0.67008 0.99454 0.06900
N 	N 	0.84698 0.55217 0.99669 -0.19300
H 	H 	0.65694 0.52551 0.98352 0.05200
N 	N 	0.70410 0.64448 0.98674 -0.19100
H 	H 	0.89642 0.58260 0.99786 0.10700
H 	H 	0.82677 0.50574 0.00108 0.09100
H 	H 	0.65445 0.61380 0.98448 0.09200
H 	H 	0.72543 0.69248 0.98830 0.09300
H 	H 	0.88210 0.78596 0.12049 0.08600
H 	H 	0.83420 0.70560 0.08700 0.09000
H 	H 	0.90845 0.88707 0.89958 0.08800
H 	H 	0.86456 0.80711 0.86602 0.09200
C 	C 	0.78805 0.21608 0.99817 -0.09700
C 	C 	0.78245 0.18185 0.03775 0.12600
C 	C 	0.81236 0.15188 0.03833 -0.09400
C 	C 	0.85480 0.16293 0.00488 -0.00400
C 	C 	0.86700 0.20405 0.96991 0.07400
C 	C 	0.83186 0.22838 0.96561 -0.03100
N 	N 	0.75258 0.18133 0.07701 -0.20000
H 	H 	0.80470 0.12203 0.06630 0.06300
C 	C 	0.88319 0.12827 0.00448 -0.02300
N 	N 	0.91252 0.22059 0.94059 -0.19300
H 	H 	0.83836 0.25659 0.93652 0.04200
C 	C 	0.86044 0.07892 0.96307 -0.06300
C 	C 	0.89061 0.04958 0.95816 0.08300
C 	C 	0.94054 0.06578 0.99807 -0.02300
C 	C 	0.96238 0.11414 0.04014 -0.07700
C 	C 	0.93527 0.14671 0.04317 0.08100
H 	H 	0.82105 0.06541 0.93325 0.05400
N 	N 	0.87291 0.00758 0.91444 -0.19100
H 	H 	0.00083 0.12670 0.07052 0.04600
N 	N 	0.95995 0.19594 0.08281 -0.19600
H 	H 	0.83415 0.99382 0.88625 0.08300
H 	H 	0.89927 0.99072 0.90675 0.08300
H 	H 	0.99776 0.20853 0.11150 0.08800
H 	H 	0.94288 0.22293 0.08515 0.09300
H 	H 	0.91956 0.24912 0.91351 0.09000
H 	H 	0.94301 0.20749 0.94573 0.09400
H 	H 	0.74339 0.21437 0.08442 0.12900
H 	H 	0.74412 0.15193 0.10364 0.11300
C 	C 	0.45137 0.19479 0.97544 -0.09900
C 	C 	0.40371 0.13063 0.95183 0.14200
C 	C 	0.33914 0.10259 0.95453 -0.09200
C 	C 	0.32110 0.13858 0.97714 0.00800
C 	C 	0.36843 0.20342 0.99854 0.07000
C 	C 	0.43313 0.23047 0.99839 -0.00100
N 	N 	0.41911 0.09651 0.92499 -0.20000
H 	H 	0.30262 0.05305 0.93775 0.06700
C 	C 	0.25271 0.10753 0.97953 0.00300
N 	N 	0.35210 0.24000 0.01909 -0.19500
H 	H 	0.46958 0.27962 0.01636 0.02900
C 	C 	0.23147 0.08825 0.02526 -0.09000
C 	C 	0.16917 0.06552 0.03134 0.08400
C 	C 	0.12608 0.05828 0.98959 -0.02900
C 	C 	0.14706 0.07688 0.94362 -0.06400
C 	C 	0.21019 0.10191 0.93822 0.07600
H 	H 	0.26442 0.09330 0.05698 0.06500
N 	N 	0.15152 0.05217 0.07760 -0.19700
H 	H 	0.11391 0.07120 0.91171 0.04900
N 	N 	0.22963 0.12059 0.89349 -0.19400
H 	H 	0.18290 0.05566 0.10765 0.09000
H 	H 	0.10770 0.04061 0.08488 0.08600
H 	H 	0.19792 0.11644 0.86333 0.08900
H 	H 	0.27614 0.13931 0.88809 0.09400
H 	H 	0.38757 0.28757 0.03564 0.08600
H 	H 	0.30429 0.22221 0.01798 0.08800
H 	H 	0.46497 0.11781 0.91675 0.10000
H 	H 	0.38400 0.04849 0.90964 0.10100
