data_crystal

_cell_length_a 23.00927
_cell_length_b 23.40656
_cell_length_c 55.77655
_cell_angle_alpha 90.04766
_cell_angle_beta  90.05265
_cell_angle_gamma 119.44838

_symmetry_space_group_name_	'P 1'
_symmetry_space_group_name_H-M	'P 1'

loop_
_symmetry_equiv_pos_as_xyz
  x,y,z

loop_
_atom_site_label
_atom_site_type_symbol
_atom_site_fract_x
_atom_site_fract_y
_atom_site_fract_z
_atom_site_charge
C 	C 	0.15755 0.06375 0.74635 0.29700
C 	C 	0.11955 0.01569 0.80798 0.29500
Ni	Ni	0.05331 0.07118 0.77412 1.12300
Ni	Ni	0.05155 0.93536 0.76578 1.12000
O 	O 	0.11406 0.08487 0.74622 -0.38500
O 	O 	0.08082 0.95508 0.79998 -0.39100
O 	O 	0.11867 0.06817 0.79862 -0.37400
O 	O 	0.14360 0.00801 0.75684 -0.38400
C 	C 	0.25195 0.75657 0.40388 0.28200
C 	C 	0.23176 0.57205 0.45135 0.31000
C 	C 	0.27203 0.58883 0.36653 0.28000
Ni	Ni	0.32262 0.71404 0.44195 1.11300
Ni	Ni	0.33993 0.60282 0.41270 1.12100
Ni	Ni	0.35525 0.72828 0.38511 1.12000
O 	O 	0.28038 0.76656 0.42553 -0.36600
O 	O 	0.26837 0.72977 0.38599 -0.37900
O 	O 	0.36167 0.67325 0.46619 -0.37400
O 	O 	0.31911 0.65047 0.36174 -0.37800
O 	O 	0.27094 0.55989 0.38709 -0.38000
O 	O 	0.23349 0.62872 0.44762 -0.37900
O 	O 	0.27000 0.55365 0.43915 -0.37500
O 	O 	0.32264 0.67407 0.41271 -0.71700
H 	H 	0.27455 0.65001 0.40897 0.16500
C 	C 	0.27830 0.69277 0.05182 0.33200
C 	C 	0.31830 0.57042 0.06482 0.30700
C 	C 	0.23424 0.72145 0.12769 0.30100
C 	C 	0.26376 0.57417 0.14350 0.27700
Ni	Ni	0.24681 0.62397 0.09706 1.12100
Ni	Ni	0.35842 0.71713 0.13423 1.12000
O 	O 	0.20590 0.65959 0.12085 -0.38200
O 	O 	0.33917 0.70216 0.04986 -0.37300
O 	O 	0.25372 0.69128 0.07305 -0.39200
O 	O 	0.28866 0.63535 0.15174 -0.37900
O 	O 	0.41318 0.80554 0.08392 -0.37700
O 	O 	0.23711 0.55752 0.12173 -0.37800
O 	O 	0.26291 0.57296 0.07014 -0.37600
O 	O 	0.29912 0.75646 0.13010 -0.39200
O 	O 	0.33926 0.67391 0.10413 -0.71700
H 	H 	0.34764 0.63764 0.10817 0.15800
C 	C 	0.05324 0.93922 0.23090 0.30100
C 	C 	0.07162 0.16726 0.28667 0.28900
C 	C 	0.07245 0.96582 0.29991 0.29500
C 	C 	0.06854 0.15301 0.23105 0.27600
Ni	Ni	0.09584 0.06455 0.26177 1.11300
O 	O 	0.10123 0.98769 0.24382 -0.37100
O 	O 	0.11628 0.15166 0.27915 -0.37000
O 	O 	0.00955 0.12155 0.29027 -0.37500
O 	O 	0.10247 0.02880 0.29527 -0.36100
O 	O 	0.03405 0.92385 0.28369 -0.37700
O 	O 	0.09467 0.11354 0.23096 -0.37200
O 	O 	0.00595 0.13248 0.23819 -0.36400
O 	O 	0.00204 0.01910 0.25940 -0.68500
H 	H 	0.99743 0.01442 0.24182 0.13600
C 	C 	0.25205 0.36196 0.15739 -0.04100
C 	C 	0.22244 0.30141 0.16923 -0.04200
C 	C 	0.18212 0.29117 0.18945 0.01800
C 	C 	0.17350 0.34302 0.19833 -0.00900
C 	C 	0.20382 0.40416 0.18654 -0.00800
C 	C 	0.24191 0.41311 0.16568 0.01900
C 	C 	0.19358 0.45539 0.19500 0.01700
C 	C 	0.15560 0.44602 0.21582 -0.04100
C 	C 	0.12532 0.38522 0.22748 -0.04200
C 	C 	0.13261 0.33302 0.21846 0.01900
C 	C 	0.09814 0.27060 0.22893 -0.02900
C 	C 	0.10603 0.21860 0.22000 -0.05200
C 	C 	0.14891 0.22929 0.20051 -0.02800
C 	C 	0.26665 0.47186 0.15272 -0.02700
C 	C 	0.25270 0.52119 0.16023 -0.05200
C 	C 	0.21863 0.51404 0.18188 -0.02600
H 	H 	0.28193 0.36864 0.14154 0.04100
H 	H 	0.22999 0.26218 0.16241 0.04100
H 	H 	0.14840 0.48539 0.22273 0.04200
H 	H 	0.09545 0.37850 0.24335 0.04400
H 	H 	0.06497 0.26231 0.24393 0.04600
H 	H 	0.15498 0.18921 0.19360 0.04900
H 	H 	0.29397 0.47804 0.13619 0.04400
H 	H 	0.20838 0.55241 0.18776 0.04800
C 	C 	0.21718 0.91648 0.14721 -0.03700
C 	C 	0.19450 0.94803 0.16289 -0.05400
C 	C 	0.14360 0.91143 0.17942 0.01900
C 	C 	0.11378 0.84236 0.17964 -0.00200
C 	C 	0.13694 0.81065 0.16396 -0.01000
C 	C 	0.18954 0.84797 0.14798 0.01700
C 	C 	0.10948 0.74189 0.16504 0.02400
C 	C 	0.05691 0.70507 0.18096 -0.05300
C 	C 	0.03343 0.73650 0.19635 -0.00900
C 	C 	0.06239 0.80518 0.19607 0.00500
C 	C 	0.04178 0.83717 0.21244 -0.01400
C 	C 	0.07273 0.90608 0.21274 -0.05800
C 	C 	0.12313 0.94304 0.19608 -0.02500
C 	C 	0.21633 0.81679 0.13393 -0.02300
C 	C 	0.19289 0.74914 0.13648 -0.05900
C 	C 	0.13735 0.71132 0.15114 -0.02700
H 	H 	0.25725 0.94553 0.13483 0.03700
H 	H 	0.21718 0.00100 0.16237 0.05000
H 	H 	0.03495 0.65219 0.18174 0.04800
H 	H 	0.99343 0.70745 0.20875 0.01600
H 	H 	0.00297 0.80871 0.22536 0.04900
H 	H 	0.14643 0.99614 0.19618 0.04000
H 	H 	0.25808 0.84564 0.12211 0.04800
H 	H 	0.11865 0.65898 0.15286 0.05000
C 	C 	0.26756 0.46520 0.29593 -0.04300
C 	C 	0.24052 0.40247 0.28579 -0.04000
C 	C 	0.17868 0.35156 0.29372 0.01400
C 	C 	0.14148 0.36498 0.31063 -0.00200
C 	C 	0.16836 0.42834 0.32063 -0.01300
C 	C 	0.23283 0.47784 0.31398 0.02000
C 	C 	0.13293 0.44080 0.33858 0.02600
C 	C 	0.06901 0.39112 0.34528 -0.05300
C 	C 	0.04232 0.32818 0.33536 -0.01000
C 	C 	0.07909 0.31424 0.31855 0.00600
C 	C 	0.05552 0.24977 0.31030 -0.02000
C 	C 	0.09424 0.23564 0.29439 -0.06100
C 	C 	0.15500 0.28701 0.28571 -0.02500
C 	C 	0.26389 0.53715 0.32688 -0.02800
C 	C 	0.23164 0.54612 0.34674 -0.05000
C 	C 	0.16417 0.50066 0.35106 -0.02900
H 	H 	0.31640 0.50332 0.29024 0.04000
H 	H 	0.26858 0.39309 0.27226 0.04100
H 	H 	0.04084 0.40056 0.35875 0.04900
H 	H 	0.99375 0.28991 0.34122 0.01800
H 	H 	0.00818 0.21056 0.31674 0.05300
H 	H 	0.18393 0.27661 0.27285 0.04600
H 	H 	0.31531 0.57325 0.32304 0.04700
H 	H 	0.13847 0.50894 0.36582 0.04600
C 	C 	0.05573 0.75130 0.36772 -0.05700
C 	C 	0.03042 0.78165 0.35264 -0.00300
C 	C 	0.06989 0.84818 0.34660 -0.00500
C 	C 	0.13366 0.88547 0.35696 0.00100
C 	C 	0.15866 0.85519 0.37250 -0.01300
C 	C 	0.12052 0.78730 0.37715 0.02800
C 	C 	0.22352 0.89182 0.38210 0.01900
C 	C 	0.26170 0.95912 0.37699 -0.03800
C 	C 	0.23720 0.98901 0.36130 -0.05400
C 	C 	0.17399 0.95208 0.35070 0.01900
C 	C 	0.15210 0.97986 0.33299 -0.03200
C 	C 	0.09032 0.94139 0.32153 -0.06300
C 	C 	0.04792 0.87680 0.32934 0.01100
C 	C 	0.14930 0.75558 0.38979 -0.03000
C 	C 	0.21555 0.79127 0.39782 -0.05100
C 	C 	0.25108 0.85979 0.39523 -0.02800
H 	H 	0.02552 0.69942 0.37157 0.04900
H 	H 	0.98088 0.75287 0.34508 0.01600
H 	H 	0.31121 0.98790 0.38457 0.03800
H 	H 	0.26808 0.04050 0.35697 0.05100
H 	H 	0.18423 0.03020 0.32742 0.05700
H 	H 	0.99906 0.84800 0.32120 0.01900
H 	H 	0.12170 0.70277 0.39215 0.04400
H 	H 	0.30201 0.88725 0.40177 0.04900
C 	C 	0.06153 0.43290 0.55461 -0.01000
C 	C 	0.06464 0.42855 0.51113 -0.04400
C 	C 	0.13303 0.47380 0.51150 0.00200
C 	C 	0.16652 0.49517 0.53349 -0.03700
C 	C 	0.13088 0.47478 0.55501 -0.03100
C 	C 	0.16667 0.50509 0.48961 0.04500
C 	C 	0.19546 0.53396 0.47173 -0.09800
H 	H 	0.03850 0.41148 0.49421 0.04900
H 	H 	0.21959 0.52972 0.53391 0.04300
H 	H 	0.15665 0.49365 0.57189 0.03900
C 	C 	0.39411 0.11991 0.74009 -0.04100
C 	C 	0.34225 0.13243 0.73379 0.01700
C 	C 	0.35427 0.18221 0.71710 -0.00800
C 	C 	0.31499 0.24489 0.69405 -0.04100
C 	C 	0.30236 0.19485 0.71058 0.01900
C 	C 	0.23816 0.15646 0.72030 -0.02600
C 	C 	0.22564 0.10581 0.73660 -0.05700
C 	C 	0.27825 0.09489 0.74364 -0.02400
H 	H 	0.38556 0.08221 0.75311 0.04100
H 	H 	0.27574 0.25553 0.68911 0.04300
H 	H 	0.19796 0.16529 0.71492 0.05200
H 	H 	0.26928 0.05703 0.75666 0.04900
C 	C 	0.04170 0.49032 0.97230 0.03000
C 	C 	0.08966 0.47607 0.98168 -0.04900
C 	C 	0.14308 0.52333 0.99506 -0.02400
C 	C 	0.14860 0.58492 0.99919 -0.01400
C 	C 	0.10320 0.60064 0.98853 -0.02400
C 	C 	0.04997 0.55355 0.97504 -0.04800
C 	C 	0.19476 0.62777 0.01692 0.05800
C 	C 	0.23292 0.66007 0.03254 -0.11700
H 	H 	0.08404 0.42761 0.97946 0.04800
H 	H 	0.17839 0.51106 0.00314 0.04100
H 	H 	0.10744 0.64830 0.99152 0.04000
C 	C 	0.31182 0.48823 0.03120 0.04500
C 	C 	0.31357 0.52413 0.04702 -0.09900
H 	H 	0.27782 0.49230 0.98535 0.04000
C 	C 	0.31965 0.00136 0.82893 -0.02200
C 	C 	0.27038 0.01745 0.83534 0.00500
C 	C 	0.27352 0.04622 0.85786 0.00100
C 	C 	0.32754 0.06130 0.87339 -0.01100
C 	C 	0.28186 0.10672 0.90226 -0.04200
C 	C 	0.22830 0.09201 0.88679 -0.03800
C 	C 	0.22479 0.06348 0.86428 0.01400
C 	C 	0.17446 0.05386 0.84781 -0.01900
C 	C 	0.17222 0.02641 0.82521 -0.06100
C 	C 	0.21942 0.00725 0.81918 -0.00500
H 	H 	0.31701 0.97818 0.81182 0.02600
H 	H 	0.28503 0.13072 0.91922 0.04100
H 	H 	0.19044 0.10427 0.89210 0.04300
H 	H 	0.13732 0.06772 0.85251 0.04500
H 	H 	0.21716 0.98569 0.80173 0.02800
C 	C 	0.02898 0.40807 0.53260 -0.00600
H 	H 	0.36224 0.52070 0.45021 0.01400
C 	C 	0.29926 0.46074 0.98830 -0.03200
C 	C 	0.33284 0.09361 0.89530 0.02200
H 	H 	0.37955 0.47502 0.55326 0.04000
H 	H 	0.99660 0.47625 0.92655 0.03900
C 	C 	0.31322 0.44875 0.01165 -0.00500
H 	H 	0.04171 0.73380 0.68543 0.06000
H 	H 	0.05670 0.52573 0.58252 0.04700
C 	C 	0.37812 0.28082 0.68354 -0.04000
H 	H 	0.95219 0.64455 0.80812 0.03700
O 	O 	0.98927 0.91099 0.23716 -0.40300
C 	C 	0.38150 0.53583 0.46820 0.02900
H 	H 	0.36685 0.44079 0.47757 0.05000
C 	C 	0.39804 0.64688 0.45967 0.31400
H 	H 	0.97772 0.31700 0.57632 0.04800
C 	C 	0.51329 0.17697 0.90169 0.27700
C 	C 	0.72186 0.45273 0.89735 0.29800
C 	C 	0.69096 0.25102 0.87810 0.29700
C 	C 	0.54467 0.37120 0.92411 0.28500
C 	C 	0.77526 0.34376 0.94412 0.30900
C 	C 	0.60144 0.25900 0.97501 0.28900
Ni	Ni	0.61006 0.31751 0.88971 1.11300
Ni	Ni	0.66833 0.37713 0.94238 1.12200
Ni	Ni	0.64586 0.23552 0.92820 1.12000
O 	O 	0.51983 0.23201 0.89245 -0.37200
O 	O 	0.56645 0.17085 0.90735 -0.37400
O 	O 	0.76038 0.38965 0.93871 -0.39100
O 	O 	0.70376 0.39852 0.88530 -0.37900
O 	O 	0.69433 0.45083 0.91817 -0.37800
O 	O 	0.59022 0.21461 0.95806 -0.38700
O 	O 	0.64150 0.25993 0.87092 -0.36900
O 	O 	0.71032 0.26067 0.90049 -0.38900
O 	O 	0.64884 0.32154 0.97256 -0.38200
O 	O 	0.56953 0.37562 0.90216 -0.36600
O 	O 	0.57997 0.37584 0.94364 -0.37700
O 	O 	0.72796 0.28360 0.94894 -0.38600
O 	O 	0.62602 0.30332 0.92156 -0.71700
H 	H 	0.58042 0.28238 0.92808 0.15400
C 	C 	0.69396 0.21433 0.64953 0.27800
C 	C 	0.75812 0.48390 0.62772 0.30100
C 	C 	0.59301 0.29751 0.66360 0.29800
C 	C 	0.84644 0.39084 0.60951 0.28500
C 	C 	0.57915 0.33962 0.58955 0.32900
C 	C 	0.66520 0.24285 0.57015 0.28900
Ni	Ni	0.73692 0.35801 0.64737 1.11200
Ni	Ni	0.72013 0.37877 0.59100 1.12200
Ni	Ni	0.60986 0.24964 0.61698 1.12000
O 	O 	0.74401 0.27459 0.65310 -0.37300
O 	O 	0.63283 0.20305 0.64371 -0.37500
O 	O 	0.63888 0.38845 0.59418 -0.39200
O 	O 	0.72301 0.43836 0.64338 -0.37700
O 	O 	0.77391 0.46791 0.60716 -0.37700
O 	O 	0.63793 0.21036 0.59034 -0.38600
O 	O 	0.65419 0.31439 0.67042 -0.36800
O 	O 	0.57787 0.29290 0.64085 -0.38500
O 	O 	0.67660 0.30392 0.56690 -0.38300
O 	O 	0.83132 0.40751 0.63058 -0.37000
O 	O 	0.80768 0.37859 0.59031 -0.38000
O 	O 	0.56613 0.27846 0.59187 -0.38300
O 	O 	0.69816 0.32134 0.61770 -0.71700
H 	H 	0.72234 0.29772 0.61360 0.15800
C 	C 	0.92243 0.83989 0.78951 0.27900
C 	C 	0.96419 0.06626 0.73358 0.27800
C 	C 	0.96700 0.88261 0.72271 0.27400
C 	C 	0.92418 0.04389 0.79623 0.28400
Ni	Ni	0.91506 0.94081 0.75884 1.10600
O 	O 	0.88740 0.87025 0.78555 -0.37200
O 	O 	0.97049 0.84732 0.77447 -0.38300
O 	O 	0.94910 0.00530 0.73043 -0.37700
O 	O 	0.00004 0.09944 0.75230 -0.35500
O 	O 	0.91643 0.87036 0.73667 -0.37100
O 	O 	0.02853 0.91993 0.73029 -0.36400
O 	O 	0.89086 0.00331 0.77820 -0.37400
O 	O 	0.98882 0.06524 0.80015 -0.38600
O 	O 	0.00152 0.97881 0.77150 -0.70200
H 	H 	0.99054 0.96884 0.78859 0.14100
C 	C 	0.43300 0.83396 0.42040 0.32600
C 	C 	0.45894 0.69066 0.38378 0.30200
O 	O 	0.41133 0.62974 0.38715 -0.38400
O 	O 	0.41312 0.64722 0.43712 -0.39300
O 	O 	0.41851 0.79054 0.43730 -0.38000
O 	O 	0.39628 0.81887 0.40089 -0.38200
O 	O 	0.44713 0.73956 0.38640 -0.38800
C 	C 	0.48378 0.71683 0.12403 0.28700
C 	C 	0.43040 0.83639 0.10450 0.32400
Ni	Ni	0.40085 0.71261 0.07898 1.11500
O 	O 	0.48343 0.73367 0.10115 -0.36800
O 	O 	0.42905 0.69042 0.13736 -0.38500
O 	O 	0.43391 0.80654 0.12392 -0.38500
O 	O 	0.37892 0.61754 0.07096 -0.37600
C 	C 	0.88343 0.96181 0.30224 0.28800
C 	C 	0.86082 0.94283 0.23634 0.27200
Ni	Ni	0.95128 0.06278 0.26353 1.11000
Ni	Ni	0.95709 0.92910 0.26840 1.11100
O 	O 	0.88212 0.00724 0.28853 -0.37100
O 	O 	0.86846 0.90956 0.25409 -0.39500
O 	O 	0.88636 0.00746 0.23771 -0.37300
O 	O 	0.93215 0.94831 0.30044 -0.40300
C 	C 	0.60616 0.70860 0.19443 -0.04300
C 	C 	0.65710 0.74271 0.21113 -0.04300
C 	C 	0.70874 0.80635 0.20602 0.01600
C 	C 	0.71033 0.83513 0.18367 -0.00900
C 	C 	0.65887 0.80091 0.16690 -0.00800
C 	C 	0.60593 0.73791 0.17251 0.01700
C 	C 	0.65867 0.83088 0.14500 0.01600
C 	C 	0.71160 0.89361 0.13954 -0.04200
C 	C 	0.76306 0.92744 0.15613 -0.04300
C 	C 	0.76216 0.89902 0.17840 0.01700
C 	C 	0.81166 0.93408 0.19563 -0.03000
C 	C 	0.80926 0.90596 0.21812 -0.05400
C 	C 	0.75793 0.84193 0.22317 -0.02900
C 	C 	0.55156 0.70677 0.15679 -0.02800
C 	C 	0.54842 0.73920 0.13606 -0.05600
C 	C 	0.60372 0.79949 0.12952 -0.02500
H 	H 	0.56607 0.65996 0.19880 0.03900
H 	H 	0.65588 0.71994 0.22817 0.03800
H 	H 	0.71228 0.91675 0.12265 0.03800
H 	H 	0.80303 0.97617 0.15179 0.03700
H 	H 	0.85181 0.98304 0.19160 0.04400
H 	H 	0.75575 0.82026 0.24056 0.04500
H 	H 	0.50987 0.65916 0.16138 0.04600
H 	H 	0.60195 0.82396 0.11325 0.04800
C 	C 	0.70167 0.80621 0.38724 -0.04200
C 	C 	0.76162 0.84902 0.37571 -0.04300
C 	C 	0.76301 0.85781 0.35076 0.01500
C 	C 	0.70420 0.82126 0.33720 -0.00900
C 	C 	0.64425 0.77712 0.34875 -0.00700
C 	C 	0.64250 0.77120 0.37393 0.01700
C 	C 	0.58516 0.74174 0.33524 0.01500
C 	C 	0.58702 0.74883 0.31020 -0.04200
C 	C 	0.64635 0.79328 0.29878 -0.04300
C 	C 	0.70472 0.83068 0.31222 0.01700
C 	C 	0.76317 0.87816 0.30106 -0.02900
C 	C 	0.82179 0.91466 0.31449 -0.06300
C 	C 	0.82202 0.90370 0.33923 -0.02600
C 	C 	0.58095 0.73404 0.38557 -0.02300
C 	C 	0.52145 0.70376 0.37222 -0.06100
C 	C 	0.52422 0.70366 0.34708 -0.02400
H 	H 	0.70106 0.80132 0.40657 0.04000
H 	H 	0.80662 0.87628 0.38627 0.03700
H 	H 	0.54210 0.72125 0.29963 0.03900
H 	H 	0.64664 0.79921 0.27949 0.03900
H 	H 	0.76322 0.88666 0.28195 0.05000
H 	H 	0.86757 0.93147 0.34949 0.04000
H 	H 	0.57874 0.73301 0.40501 0.04500
H 	H 	0.47822 0.67912 0.33683 0.04100
C 	C 	0.66588 0.20557 0.54883 -0.08100
C 	C 	0.62333 0.13733 0.54760 0.01400
C 	C 	0.61334 0.10438 0.52577 -0.06400
C 	C 	0.64582 0.13918 0.50501 0.02600
C 	C 	0.69194 0.20629 0.50653 -0.06500
C 	C 	0.70249 0.23927 0.52839 0.01400
C 	C 	0.62669 0.10647 0.48151 0.00400
C 	C 	0.65359 0.06736 0.47378 -0.04400
C 	C 	0.62317 0.02265 0.45503 -0.02000
C 	C 	0.56515 0.01615 0.44420 0.00000
C 	C 	0.54312 0.06061 0.45006 -0.03300
C 	C 	0.57378 0.10565 0.46870 -0.03900
C 	C 	0.51965 0.95501 0.43284 0.03800
C 	C 	0.48028 0.90099 0.42567 -0.10500
H 	H 	0.59565 0.11027 0.56323 0.03800
H 	H 	0.57833 0.05225 0.52478 0.05000
H 	H 	0.71807 0.23327 0.49064 0.04600
H 	H 	0.73716 0.29150 0.52923 0.03200
H 	H 	0.69534 0.06863 0.48325 0.04200
H 	H 	0.64135 0.98929 0.45031 0.03200
H 	H 	0.49901 0.05677 0.44152 0.04300
H 	H 	0.55354 0.13672 0.47425 0.04300
C 	C 	0.91385 0.40124 0.60566 -0.08100
C 	C 	0.92147 0.34801 0.59825 0.01800
C 	C 	0.97530 0.35862 0.58370 -0.08700
C 	C 	0.02171 0.42256 0.57655 0.04800
C 	C 	0.01989 0.47600 0.58726 -0.04800
C 	C 	0.96624 0.46527 0.60195 -0.00400
H 	H 	0.88234 0.29825 0.60175 0.02600
H 	H 	0.96190 0.50681 0.60827 0.03500
H 	H 	0.97547 0.37560 0.53207 0.02200
C 	C 	0.40344 0.60037 0.47587 -0.10000
C 	C 	0.42797 0.61918 0.49924 0.02500
C 	C 	0.43327 0.57448 0.51447 -0.07000
C 	C 	0.41233 0.51014 0.50659 0.03100
C 	C 	0.38434 0.49059 0.48367 -0.07000
C 	C 	0.42681 0.46587 0.52108 0.00200
C 	C 	0.46198 0.43706 0.51085 -0.03900
C 	C 	0.48063 0.39955 0.52492 -0.03100
C 	C 	0.46585 0.39176 0.54943 -0.00800
C 	C 	0.42795 0.41769 0.55948 -0.03100
C 	C 	0.40799 0.45428 0.54530 -0.03900
C 	C 	0.50023 0.36877 0.56468 0.05200
C 	C 	0.53382 0.35319 0.57654 -0.10900
H 	H 	0.44433 0.66870 0.50541 0.03000
H 	H 	0.45523 0.59028 0.53210 0.04700
H 	H 	0.47682 0.44562 0.49219 0.04000
H 	H 	0.50990 0.37958 0.51703 0.04100
H 	H 	0.41619 0.41173 0.57844 0.04100
C 	C 	0.78365 0.12044 0.73390 -0.04300
C 	C 	0.73592 0.12976 0.72157 -0.04100
C 	C 	0.73540 0.13051 0.69639 0.01700
C 	C 	0.78109 0.11856 0.68351 -0.00700
C 	C 	0.82877 0.10864 0.69590 -0.00900
C 	C 	0.83093 0.11097 0.72117 0.01900
C 	C 	0.87525 0.09788 0.68301 0.01700
C 	C 	0.87331 0.09655 0.65783 -0.04200
C 	C 	0.82694 0.10800 0.64551 -0.04300
C 	C 	0.78163 0.12043 0.65823 0.01800
C 	C 	0.74089 0.14018 0.64613 -0.02800
C 	C 	0.70219 0.16064 0.65918 -0.05300
C 	C 	0.69398 0.14879 0.68397 -0.02400
C 	C 	0.87986 0.10313 0.73341 -0.03000
C 	C 	0.92480 0.09022 0.72064 -0.05800
C 	C 	0.92279 0.08822 0.69547 -0.02800
H 	H 	0.78415 0.12113 0.75333 0.04300
H 	H 	0.70056 0.13820 0.73164 0.04000
H 	H 	0.90833 0.08764 0.64775 0.03900
H 	H 	0.82727 0.10857 0.62608 0.03900
H 	H 	0.74510 0.14688 0.62683 0.03900
H 	H 	0.66177 0.16202 0.69390 0.04400
H 	H 	0.88118 0.10417 0.75285 0.05000
H 	H 	0.95715 0.07765 0.68567 0.04300
C 	C 	0.45692 0.15509 0.72927 -0.04100
C 	C 	0.41778 0.21819 0.70641 -0.00700
C 	C 	0.46883 0.20355 0.71212 0.01600
C 	C 	0.42937 0.26693 0.68930 0.01700
C 	C 	0.52989 0.23513 0.69970 -0.02500
C 	C 	0.53972 0.28042 0.68147 -0.06100
C 	C 	0.49078 0.29871 0.67724 -0.02300
H 	H 	0.49593 0.14389 0.73398 0.04000
H 	H 	0.38672 0.31860 0.67056 0.04200
H 	H 	0.56784 0.22140 0.70312 0.04600
H 	H 	0.49903 0.33474 0.66351 0.04900
C 	C 	0.99348 0.71860 0.67729 -0.07700
C 	C 	0.96156 0.65947 0.66453 -0.02900
C 	C 	0.89778 0.63756 0.65472 0.00700
C 	C 	0.86756 0.67720 0.65652 0.00000
C 	C 	0.90016 0.73719 0.66902 -0.02000
C 	C 	0.96218 0.75671 0.68023 0.03800
C 	C 	0.86861 0.77538 0.67176 0.02400
C 	C 	0.80636 0.75511 0.66088 -0.04600
C 	C 	0.77360 0.69513 0.64869 -0.03900
C 	C 	0.80306 0.65507 0.64701 0.01200
C 	C 	0.76784 0.59212 0.63688 -0.02000
C 	C 	0.79698 0.55180 0.63600 -0.06500
C 	C 	0.86259 0.57530 0.64416 -0.02200
C 	C 	0.98938 0.81103 0.69575 -0.05900
C 	C 	0.95424 0.84477 0.70042 -0.04400
C 	C 	0.89701 0.83028 0.68691 -0.03300
H 	H 	0.98566 0.62986 0.66287 0.03200
H 	H 	0.78225 0.78472 0.66255 0.03900
H 	H 	0.72469 0.67921 0.64103 0.03900
H 	H 	0.71746 0.57396 0.63021 0.04200
H 	H 	0.88518 0.54416 0.64304 0.04200
H 	H 	0.03469 0.82353 0.70566 0.06100
H 	H 	0.87153 0.85828 0.68984 0.04200
C 	C 	0.84527 0.36277 0.94835 -0.08700
C 	C 	0.86522 0.35269 0.97098 0.01200
C 	C 	0.93186 0.39003 0.97809 -0.05800
C 	C 	0.97873 0.43739 0.96255 0.00000
C 	C 	0.96032 0.44112 0.93889 -0.05900
C 	C 	0.89375 0.40374 0.93178 0.01300
H 	H 	0.82837 0.32006 0.98374 0.03600
H 	H 	0.94599 0.38574 0.99626 0.04000
H 	H 	0.87903 0.41029 0.91398 0.03400
H 	H 	0.01330 0.56509 0.96774 0.05100
C 	C 	0.57336 0.23528 0.99911 -0.08100
C 	C 	0.60961 0.26852 0.01971 0.01400
C 	C 	0.59051 0.23884 0.04224 -0.06500
C 	C 	0.53529 0.17564 0.04436 0.02700
C 	C 	0.49551 0.14526 0.02413 -0.06300
C 	C 	0.51426 0.17509 0.00165 0.01400
C 	C 	0.52575 0.13704 0.06642 0.00100
C 	C 	0.46233 0.10286 0.07700 -0.03700
C 	C 	0.44702 0.04975 0.09217 -0.03500
C 	C 	0.49504 0.03078 0.09683 0.00600
C 	C 	0.56098 0.07123 0.08932 -0.03600
C 	C 	0.57631 0.12405 0.07404 -0.03600
C 	C 	0.47336 0.96331 0.10249 0.03500
C 	C 	0.45435 0.90562 0.10479 -0.10200
H 	H 	0.65449 0.31573 0.01817 0.03700
H 	H 	0.62068 0.26343 0.05782 0.04600
H 	H 	0.45220 0.09684 0.02558 0.05000
H 	H 	0.48450 0.14997 0.98605 0.03600
H 	H 	0.42354 0.11407 0.07199 0.04000
H 	H 	0.39630 0.01990 0.09851 0.04400
H 	H 	0.59895 0.05808 0.09341 0.04300
H 	H 	0.62602 0.15128 0.06655 0.04000
C 	C 	0.48321 0.37442 0.92712 -0.08200
C 	C 	0.42568 0.31877 0.93538 0.01400
C 	C 	0.37693 0.32586 0.94787 -0.06400
C 	C 	0.38576 0.38873 0.95222 0.02700
C 	C 	0.43835 0.44315 0.94089 -0.06400
C 	C 	0.48684 0.43590 0.92830 0.01700
C 	C 	0.34996 0.39919 0.97222 0.00300
C 	C 	0.35804 0.38216 0.99565 -0.03900
C 	C 	0.33977 0.40694 0.01528 -0.03100
C 	C 	0.31745 0.43591 0.96861 -0.04000
H 	H 	0.42152 0.27072 0.93394 0.02600
H 	H 	0.33520 0.28316 0.95579 0.04700
H 	H 	0.44478 0.49178 0.94355 0.04700
H 	H 	0.53034 0.47900 0.92144 0.03300
H 	H 	0.38247 0.35329 0.99867 0.04200
H 	H 	0.34995 0.39678 0.03329 0.04100
H 	H 	0.30976 0.44831 0.95062 0.04100
C 	C 	0.93093 0.23128 0.83971 -0.04100
C 	C 	0.89794 0.26275 0.84944 -0.04400
C 	C 	0.82787 0.23157 0.84931 0.01700
C 	C 	0.79072 0.16873 0.83898 -0.01200
C 	C 	0.82391 0.13673 0.82942 -0.00300
C 	C 	0.89428 0.16811 0.82980 0.01100
C 	C 	0.78670 0.07321 0.81966 0.00300
C 	C 	0.71665 0.04247 0.81918 -0.02300
C 	C 	0.68369 0.07427 0.82862 -0.05000
C 	C 	0.72032 0.13712 0.83876 0.02000
C 	C 	0.68743 0.16761 0.84959 -0.02700
C 	C 	0.72436 0.22848 0.86113 -0.06100
C 	C 	0.79448 0.26134 0.86022 -0.02400
C 	C 	0.92715 0.13627 0.82003 -0.02300
C 	C 	0.89014 0.07323 0.80993 -0.06300
C 	C 	0.81989 0.04137 0.81031 -0.00900
H 	H 	0.98499 0.25597 0.84001 0.03600
H 	H 	0.92696 0.31116 0.85726 0.03800
H 	H 	0.68761 0.99383 0.81154 0.02600
H 	H 	0.62964 0.04964 0.82828 0.04300
H 	H 	0.63332 0.14235 0.85030 0.04500
H 	H 	0.82287 0.30859 0.86900 0.04400
H 	H 	0.98125 0.16118 0.81969 0.04100
H 	H 	0.79118 0.99241 0.80286 0.03200
C 	C 	0.37385 0.01729 0.84419 -0.04900
C 	C 	0.37938 0.04943 0.86605 0.02300
C 	C 	0.43898 0.07627 0.87934 -0.02600
C 	C 	0.44812 0.11802 0.89879 -0.05200
C 	C 	0.39227 0.11883 0.90858 -0.02700
H 	H 	0.41272 0.00676 0.83860 0.04300
H 	H 	0.48113 0.07234 0.87263 0.04600
H 	H 	0.39832 0.14758 0.92460 0.03800
C 	C 	0.91605 0.64038 0.82145 -0.04300
C 	C 	0.88928 0.58683 0.83709 -0.04200
C 	C 	0.84164 0.57998 0.85424 0.01500
C 	C 	0.82224 0.62838 0.85614 -0.00800
C 	C 	0.84914 0.68226 0.84036 -0.00900
C 	C 	0.89556 0.68779 0.82276 0.01600
C 	C 	0.82843 0.72976 0.84181 0.01700
C 	C 	0.78215 0.72384 0.85941 -0.04300
C 	C 	0.75529 0.67020 0.87506 -0.04200
C 	C 	0.77441 0.62184 0.87331 0.01500
C 	C 	0.74453 0.56589 0.88791 -0.02500
C 	C 	0.76144 0.51610 0.88520 -0.06200
C 	C 	0.81147 0.52426 0.86892 -0.02500
C 	C 	0.91997 0.73985 0.80641 -0.02800
C 	C 	0.89817 0.78646 0.80739 -0.05400
C 	C 	0.85333 0.78191 0.82540 -0.02900
H 	H 	0.90493 0.55020 0.83564 0.03800
H 	H 	0.76633 0.76035 0.86081 0.03900
H 	H 	0.71896 0.66588 0.88832 0.03900
H 	H 	0.70610 0.55968 0.90057 0.04800
H 	H 	0.82535 0.48634 0.86721 0.04500
H 	H 	0.95504 0.74350 0.79270 0.04500
H 	H 	0.83765 0.81859 0.82656 0.04600
