data_crystal

_cell_length_a 18.90563
_cell_length_b 15.77217
_cell_length_c 41.68152
_cell_angle_alpha 90.87754
_cell_angle_beta  91.27200
_cell_angle_gamma 111.20727

_symmetry_space_group_name_	'P 1'
_symmetry_space_group_name_H-M	'P 1'

loop_
_symmetry_equiv_pos_as_xyz
  x,y,z

loop_
_atom_site_label
_atom_site_type_symbol
_atom_site_fract_x
_atom_site_fract_y
_atom_site_fract_z
_atom_site_charge
Ni	Ni	0.72077 0.33424 0.88473 1.09900
O 	O 	0.63256 0.25269 0.85612 -0.70800
Ni	Ni	0.54523 0.26300 0.87915 1.10300
O 	O 	0.79706 0.31123 0.85496 -0.36100
O 	O 	0.73842 0.15631 0.85791 -0.39200
O 	O 	0.71627 0.43556 0.85575 -0.39500
Ni	Ni	0.62073 0.12546 0.85443 1.07100
O 	O 	0.73801 0.44902 0.95413 -0.40400
O 	O 	0.61521 0.11085 0.90317 -0.41000
O 	O 	0.46540 0.19200 0.84604 -0.37700
O 	O 	0.63252 0.32749 0.91126 -0.70200
O 	O 	0.80777 0.42560 0.91204 -0.37400
O 	O 	0.46757 0.30627 0.90121 -0.36400
O 	O 	0.55325 0.44989 0.90176 -0.41500
Ni	Ni	0.64921 0.45118 0.92667 1.08000
H 	H 	0.63378 0.27600 0.83414 0.16400
H 	H 	0.63163 0.28937 0.92998 0.16800
C 	C 	0.55517 0.10971 0.91875 0.30800
O 	O 	0.72240 0.53841 0.89593 -0.38500
C 	C 	0.78936 0.22843 0.84501 0.26800
C 	C 	0.45694 0.10759 0.83771 0.28000
C 	C 	0.73185 0.51950 0.86591 0.30600
C 	C 	0.48748 0.39191 0.91040 0.30900
C 	C 	0.80257 0.44940 0.94232 0.31300
O 	O 	0.51039 0.14968 0.90710 -0.36800
O 	O 	0.50383 0.06851 0.84924 -0.39400
Ni	Ni	0.61141 0.32832 0.56673 1.09800
O 	O 	0.69905 0.36070 0.53537 -0.70200
Ni	Ni	0.76154 0.29204 0.55340 1.09900
O 	O 	0.56456 0.41357 0.54572 -0.36100
O 	O 	0.67601 0.53443 0.54878 -0.40600
O 	O 	0.54256 0.22906 0.53479 -0.35900
Ni	Ni	0.76332 0.49017 0.53756 1.06700
O 	O 	0.50659 0.14226 0.58933 -0.40500
O 	O 	0.78273 0.48695 0.58557 -0.41500
O 	O 	0.84310 0.32861 0.51944 -0.37300
O 	O 	0.67641 0.26355 0.58631 -0.69600
O 	O 	0.52655 0.29137 0.59924 -0.36800
O 	O 	0.80644 0.19989 0.57015 -0.35700
O 	O 	0.69911 0.08501 0.58355 -0.39700
Ni	Ni	0.61136 0.13358 0.58614 1.07000
H 	H 	0.68161 0.34037 0.51302 0.15500
H 	H 	0.69516 0.28757 0.60821 0.16500
C 	C 	0.83607 0.45936 0.59609 0.29500
O 	O 	0.60484 0.12928 0.53751 -0.42100
C 	C 	0.60742 0.49476 0.53644 0.30400
C 	C 	0.87634 0.41455 0.51149 0.30300
C 	C 	0.56092 0.16328 0.52180 0.30000
C 	C 	0.77017 0.13549 0.58986 0.28300
C 	C 	0.49195 0.20520 0.60611 0.28000
O 	O 	0.83921 0.38220 0.58527 -0.35900
O 	O 	0.86574 0.48000 0.52849 -0.41200
Ni	Ni	0.01218 0.96948 0.76063 1.09900
O 	O 	0.00648 0.86853 0.72849 -0.70600
Ni	Ni	0.06883 0.94211 0.69347 1.10100
O 	O 	0.94735 0.87760 0.79230 -0.36200
O 	O 	0.85333 0.81518 0.75395 -0.40400
O 	O 	0.10750 0.95205 0.77857 -0.38400
Ni	Ni	0.90471 0.80259 0.71126 1.06800
O 	O 	0.07793 0.20040 0.76098 -0.39400
O 	O 	0.88940 0.91673 0.69529 -0.41300
O 	O 	0.06872 0.83384 0.66612 -0.35600
O 	O 	0.05750 0.04203 0.72218 -0.70000
O 	O 	0.02727 0.07466 0.79237 -0.36500
O 	O 	0.15245 0.03236 0.66684 -0.35900
O 	O 	0.22294 0.10565 0.71143 -0.40200
Ni	Ni	0.14574 0.14767 0.73614 1.07200
H 	H 	0.02963 0.82610 0.73711 0.16200
H 	H 	0.01963 0.06524 0.71293 0.15600
C 	C 	0.92317 0.95819 0.66968 0.28500
O 	O 	0.17683 0.10314 0.77789 -0.38400
C 	C 	0.88424 0.81210 0.78239 0.27200
C 	C 	0.00362 0.76398 0.66268 0.27100
C 	C 	0.17317 0.01916 0.78115 0.29500
C 	C 	0.21726 0.08730 0.68020 0.26900
C 	C 	0.02819 0.15381 0.78231 0.28700
O 	O 	0.98916 0.95543 0.66154 -0.36300
O 	O 	0.93856 0.77554 0.66731 -0.39800
Ni	Ni	0.24899 0.70157 0.39952 1.10000
O 	O 	0.33035 0.74176 0.36512 -0.70000
Ni	Ni	0.41964 0.73233 0.39033 1.09900
O 	O 	0.17328 0.74988 0.37830 -0.36400
O 	O 	0.24738 0.86625 0.34823 -0.38900
O 	O 	0.19393 0.58011 0.37444 -0.36300
Ni	Ni	0.35869 0.87016 0.35379 1.07000
O 	O 	0.19121 0.51787 0.43566 -0.39800
O 	O 	0.36229 0.90724 0.40111 -0.41100
O 	O 	0.49908 0.77997 0.35612 -0.37700
O 	O 	0.33573 0.68441 0.42298 -0.70600
O 	O 	0.17370 0.65485 0.43525 -0.37700
O 	O 	0.49582 0.69989 0.41894 -0.35700
O 	O 	0.41416 0.55399 0.42300 -0.40300
Ni	Ni	0.30566 0.55320 0.42930 1.07100
H 	H 	0.31788 0.70113 0.34582 0.15800
H 	H 	0.34770 0.71918 0.44363 0.15700
C 	C 	0.41905 0.90887 0.42021 0.29800
O 	O 	0.28847 0.52468 0.38166 -0.41400
C 	C 	0.18481 0.79437 0.35138 0.28300
C 	C 	0.51383 0.86104 0.34413 0.28000
C 	C 	0.22443 0.51921 0.36773 0.29100
C 	C 	0.47401 0.62196 0.43365 0.30500
C 	C 	0.15620 0.57167 0.44609 0.30400
O 	O 	0.45979 0.85851 0.41350 -0.36700
O 	O 	0.47508 0.91165 0.35333 -0.39300
Ni	Ni	0.37395 0.68825 0.05354 1.10400
O 	O 	0.27790 0.66557 0.02588 -0.70100
Ni	Ni	0.21197 0.69833 0.05692 1.10100
O 	O 	0.41470 0.60866 0.02565 -0.37000
O 	O 	0.30101 0.49180 0.02687 -0.40900
O 	O 	0.43411 0.79692 0.02593 -0.36600
Ni	Ni	0.22272 0.54341 0.00843 1.07800
O 	O 	0.47409 0.87071 0.08554 -0.40400
O 	O 	0.14312 0.47534 0.04137 -0.38800
O 	O 	0.10765 0.65110 0.03288 -0.37100
O 	O 	0.31342 0.73729 0.08195 -0.70300
O 	O 	0.46736 0.72217 0.08287 -0.36800
O 	O 	0.16866 0.75706 0.09179 -0.35600
O 	O 	0.26421 0.89467 0.08600 -0.40200
Ni	Ni	0.36485 0.86861 0.08510 1.06700
H 	H 	0.28839 0.70852 0.00799 0.16600
H 	H 	0.30864 0.71007 0.10342 0.16400
C 	C 	0.13693 0.50195 0.07099 0.29900
O 	O 	0.36457 0.88513 0.03679 -0.41500
C 	C 	0.37141 0.52478 0.01749 0.29800
C 	C 	0.09300 0.60259 0.00560 0.30200
C 	C 	0.41234 0.86484 0.01867 0.30600
C 	C 	0.20345 0.84289 0.10092 0.27100
C 	C 	0.49630 0.80482 0.09601 0.27300
O 	O 	0.18291 0.58123 0.08247 -0.38900
O 	O 	0.14776 0.59277 0.98873 -0.39600
Ni	Ni	0.95546 0.03252 0.26338 1.09600
O 	O 	0.96887 0.13392 0.23125 -0.71000
Ni	Ni	0.91880 0.06056 0.19226 1.09900
O 	O 	0.01002 0.12641 0.29895 -0.35600
O 	O 	0.11188 0.18785 0.26702 -0.39800
O 	O 	0.85151 0.03854 0.27477 -0.38300
Ni	Ni	0.07411 0.19896 0.22058 1.07600
O 	O 	0.89979 0.80284 0.25688 -0.39800
O 	O 	0.09531 0.08481 0.20730 -0.40400
O 	O 	0.92640 0.16773 0.16404 -0.36000
O 	O 	0.92288 0.96111 0.22227 -0.70000
O 	O 	0.93788 0.92507 0.29301 -0.36800
O 	O 	0.84145 0.97035 0.16105 -0.36600
O 	O 	0.76489 0.90360 0.20238 -0.40500
Ni	Ni	0.83384 0.85308 0.22948 1.07300
H 	H 	0.94320 0.17596 0.23769 0.16800
H 	H 	0.96369 0.93917 0.21637 0.15200
C 	C 	0.06751 0.04102 0.18009 0.28500
O 	O 	0.79255 0.88446 0.27096 -0.38600
C 	C 	0.07292 0.19411 0.29217 0.27500
C 	C 	0.99339 0.23432 0.16154 0.25800
C 	C 	0.79033 0.96482 0.27766 0.30000
C 	C 	0.77469 0.91836 0.17145 0.26700
C 	C 	0.94159 0.84750 0.28218 0.28000
O 	O 	0.00602 0.04695 0.16665 -0.36100
O 	O 	0.05593 0.22564 0.17372 -0.38400
C 	C 	0.00330 0.30091 0.13609 -0.04300
C 	C 	0.02673 0.39326 0.14491 -0.02200
C 	C 	0.06652 0.46062 0.12352 0.00800
C 	C 	0.08400 0.43500 0.09274 -0.06300
C 	C 	0.05171 0.34291 0.08272 -0.01100
C 	C 	0.01133 0.27624 0.10413 0.01200
H 	H 	0.01795 0.41259 0.16917 0.04200
H 	H 	0.06043 0.32249 0.05863 0.05100
C 	C 	0.98254 0.18179 0.09369 0.08800
C 	C 	0.08693 0.55484 0.13328 0.08600
N 	N 	0.95953 0.10612 0.08535 -0.10200
N 	N 	0.10290 0.62996 0.14157 -0.10700
C 	C 	0.56938 0.83088 0.11401 -0.06100
C 	C 	0.62684 0.91462 0.10804 -0.01400
C 	C 	0.69511 0.94353 0.12595 0.01100
C 	C 	0.70798 0.88611 0.14927 -0.06400
C 	C 	0.65194 0.80041 0.15408 -0.01000
C 	C 	0.58224 0.77342 0.13721 -0.00000
H 	H 	0.61782 0.95820 0.08975 0.05300
H 	H 	0.66166 0.75604 0.17189 0.02800
C 	C 	0.52312 0.68868 0.14497 0.07600
C 	C 	0.74965 0.03388 0.12123 0.08200
N 	N 	0.47581 0.62082 0.15121 -0.11700
N 	N 	0.79292 0.10639 0.11728 -0.10200
C 	C 	0.16778 0.88575 0.12435 -0.05900
C 	C 	0.21455 0.95937 0.14367 -0.01600
C 	C 	0.18302 0.00885 0.16319 0.00700
C 	C 	0.10330 0.98204 0.16466 -0.07100
C 	C 	0.05669 0.90372 0.14748 -0.00400
C 	C 	0.08793 0.85765 0.12646 0.00200
H 	H 	0.27578 0.97997 0.14274 0.02600
H 	H 	0.99548 0.88150 0.14917 0.03400
C 	C 	0.03736 0.78585 0.10578 0.10000
C 	C 	0.23303 0.08892 0.18050 0.07800
N 	N 	0.99675 0.72841 0.08924 -0.11100
N 	N 	0.27320 0.15306 0.19434 -0.11800
C 	C 	0.58774 0.90579 0.32876 -0.05800
C 	C 	0.58927 0.93285 0.29679 -0.01300
C 	C 	0.65812 0.96449 0.28059 0.00000
C 	C 	0.72623 0.96902 0.29645 -0.06100
C 	C 	0.72560 0.95143 0.32938 -0.00500
C 	C 	0.65685 0.91904 0.34553 0.00800
H 	H 	0.53669 0.92638 0.28418 0.03000
H 	H 	0.77803 0.95668 0.34189 0.05500
C 	C 	0.65772 0.89803 0.37911 0.09300
C 	C 	0.65809 0.98987 0.24745 0.07700
N 	N 	0.65845 0.88115 0.40601 -0.10800
N 	N 	0.65797 0.01027 0.22090 -0.11800
C 	C 	0.10117 0.27624 0.31298 -0.06800
C 	C 	0.12527 0.26987 0.34453 -0.00500
C 	C 	0.16425 0.34868 0.36294 0.00800
C 	C 	0.17914 0.43530 0.34964 -0.06300
C 	C 	0.15080 0.44147 0.31878 -0.00900
C 	C 	0.11205 0.36253 0.30036 0.00300
H 	H 	0.11581 0.20353 0.35441 0.05100
H 	H 	0.16025 0.50776 0.30886 0.04100
C 	C 	0.08336 0.37053 0.26857 0.03700
C 	C 	0.18820 0.33990 0.39549 0.07700
N 	N 	0.06041 0.37696 0.24311 -0.15100
N 	N 	0.20735 0.33255 0.42153 -0.12900
C 	C 	0.99408 0.81116 0.29831 -0.07000
C 	C 	0.05709 0.80810 0.28184 -0.00900
C 	C 	0.11847 0.79795 0.29869 0.00000
C 	C 	0.11675 0.79074 0.33238 -0.05900
C 	C 	0.05056 0.78531 0.34836 -0.00300
C 	C 	0.98933 0.79510 0.33148 0.00400
H 	H 	0.05997 0.81816 0.25613 0.03500
H 	H 	0.04782 0.77681 0.37413 0.05600
C 	C 	0.92210 0.78991 0.34844 0.09000
C 	C 	0.18263 0.79461 0.28126 0.06400
N 	N 	0.86825 0.78580 0.36202 -0.10700
N 	N 	0.23404 0.79193 0.26730 -0.13200
C 	C 	0.44990 0.98398 0.44397 -0.10000
C 	C 	0.40972 0.98567 0.47167 -0.06000
C 	C 	0.44368 0.04956 0.49647 0.16900
C 	C 	0.51798 0.11297 0.49338 -0.10000
C 	C 	0.55568 0.11555 0.46466 -0.05900
C 	C 	0.52202 0.05137 0.43998 0.17300
H 	H 	0.35342 0.93535 0.47454 0.05500
O 	O 	0.40475 0.04890 0.52392 -0.27000
H 	H 	0.61241 0.16506 0.46194 0.05100
O 	O 	0.55910 0.05549 0.41179 -0.28100
H 	H 	0.59225 0.01990 0.41537 0.16400
H 	H 	0.41687 0.00612 0.53829 0.14400
C 	C 	0.08352 0.52937 0.46233 -0.09800
C 	C 	0.08008 0.47452 0.48889 -0.05900
C 	C 	0.01076 0.42983 0.50353 0.17900
C 	C 	0.94401 0.43996 0.49166 -0.10600
C 	C 	0.94691 0.49164 0.46429 -0.06700
C 	C 	0.01614 0.53635 0.44962 0.17800
H 	H 	0.13134 0.46722 0.49842 0.05600
O 	O 	0.00924 0.38100 0.53063 -0.26800
H 	H 	0.89573 0.49954 0.45495 0.04800
O 	O 	0.01728 0.58364 0.42215 -0.27300
H 	H 	0.02319 0.64596 0.42958 0.15700
H 	H 	0.99974 0.31804 0.52278 0.15400
C 	C 	0.57788 0.54258 0.51282 -0.11300
C 	C 	0.62151 0.58153 0.48633 -0.05900
C 	C 	0.59005 0.61569 0.46125 0.17400
C 	C 	0.51454 0.61091 0.46265 -0.11500
C 	C 	0.47350 0.57976 0.49046 -0.06000
C 	C 	0.50451 0.54466 0.51536 0.17400
H 	H 	0.67864 0.58158 0.48451 0.02900
O 	O 	0.63119 0.64725 0.43439 -0.28100
H 	H 	0.41599 0.57860 0.49205 0.02400
O 	O 	0.46364 0.51402 0.54237 -0.28200
H 	H 	0.43186 0.44954 0.53740 0.16000
H 	H 	0.65856 0.71320 0.43876 0.16200
C 	C 	0.88530 0.00505 0.64904 -0.06900
C 	C 	0.84491 0.05425 0.66322 -0.01300
C 	C 	0.80803 0.09861 0.64407 0.00100
C 	C 	0.81457 0.09767 0.61046 -0.06400
C 	C 	0.85617 0.05026 0.59631 -0.00400
C 	C 	0.88920 0.00129 0.61521 0.00200
H 	H 	0.84148 0.05709 0.68914 0.04100
H 	H 	0.85939 0.04756 0.57037 0.05000
C 	C 	0.92147 0.94186 0.59959 0.09500
C 	C 	0.76127 0.14207 0.65899 0.05800
N 	N 	0.94713 0.89419 0.58700 -0.10400
N 	N 	0.72354 0.17651 0.67092 -0.12800
C 	C 	0.42111 0.17714 0.62504 -0.05900
C 	C 	0.36655 0.08906 0.62006 -0.01400
C 	C 	0.30189 0.05776 0.63874 0.01100
C 	C 	0.28722 0.11740 0.66102 -0.05900
C 	C 	0.34114 0.20572 0.66596 -0.01300
C 	C 	0.40875 0.23511 0.64883 0.00100
H 	H 	0.37548 0.04349 0.60219 0.05300
H 	H 	0.33112 0.25120 0.68356 0.03300
C 	C 	0.46607 0.32275 0.65700 0.08300
C 	C 	0.25498 0.96234 0.63682 0.08600
N 	N 	0.51192 0.39298 0.66360 -0.11400
N 	N 	0.21801 0.88570 0.63522 -0.09900
C 	C 	0.90356 0.52567 0.61253 -0.06300
C 	C 	0.95038 0.60069 0.59569 -0.01200
C 	C 	0.00051 0.67712 0.61247 0.01200
C 	C 	0.00068 0.68004 0.64621 -0.05700
C 	C 	0.96714 0.59825 0.66234 -0.02500
C 	C 	0.91664 0.52145 0.64574 0.00600
H 	H 	0.94467 0.60177 0.56980 0.04500
H 	H 	0.97231 0.59803 0.68832 0.02400
C 	C 	0.87571 0.44089 0.66317 0.07000
C 	C 	0.04685 0.75496 0.59500 0.09800
N 	N 	0.84299 0.37643 0.67721 -0.11400
N 	N 	0.08400 0.81725 0.58093 -0.10000
C 	C 	0.87177 0.48431 0.96246 -0.10600
C 	C 	0.91788 0.43257 0.96553 -0.04900
C 	C 	0.98843 0.46903 0.98146 0.15800
C 	C 	0.01438 0.55921 0.99365 -0.08400
C 	C 	0.96660 0.60943 0.99209 -0.06100
C 	C 	0.89526 0.57220 0.97660 0.17800
H 	H 	0.89940 0.36430 0.95515 0.05800
O 	O 	0.03307 0.41747 0.98424 -0.28900
H 	H 	0.98586 0.67848 0.00178 0.07100
O 	O 	0.85086 0.62395 0.97340 -0.28200
H 	H 	0.81935 0.61184 0.99273 0.15200
H 	H 	0.01680 0.38268 0.00410 0.15100
C 	C 	0.45178 0.92776 0.99338 -0.10000
C 	C 	0.47143 0.02191 0.99822 -0.05100
C 	C 	0.50941 0.08239 0.97459 0.17300
C 	C 	0.52932 0.04916 0.94600 -0.10200
C 	C 	0.51192 0.95537 0.94155 -0.05300
C 	C 	0.47309 0.89460 0.96501 0.17100
H 	H 	0.45732 0.04834 0.02034 0.05700
O 	O 	0.52828 0.17422 0.97973 -0.30000
H 	H 	0.52564 0.92915 0.91930 0.06100
O 	O 	0.45216 0.80273 0.95932 -0.29000
H 	H 	0.49604 0.78742 0.96698 0.16000
H 	H 	0.48364 0.18757 0.97180 0.15900
C 	C 	0.45355 0.41388 0.93915 -0.12800
C 	C 	0.49780 0.44164 0.96755 -0.05100
C 	C 	0.46968 0.47348 0.99400 0.17000
C 	C 	0.39618 0.47623 0.99237 -0.10700
C 	C 	0.34991 0.44225 0.96475 -0.06100
C 	C 	0.37835 0.41083 0.93819 0.17900
H 	H 	0.55474 0.44038 0.96887 -0.00900
O 	O 	0.51357 0.50038 0.02164 -0.28500
H 	H 	0.29306 0.44376 0.96336 0.03000
O 	O 	0.33405 0.38214 0.91074 -0.28400
H 	H 	0.30702 0.31582 0.91314 0.16200
H 	H 	0.54494 0.56538 0.01878 0.15500
C 	C 	0.85117 0.21645 0.82646 -0.05700
C 	C 	0.92720 0.26578 0.83571 -0.00900
C 	C 	0.98654 0.25170 0.81956 0.00400
C 	C 	0.97001 0.18785 0.79383 -0.07400
C 	C 	0.89431 0.14285 0.78334 -0.00800
C 	C 	0.83491 0.15655 0.79951 0.00000
H 	H 	0.94012 0.31339 0.85600 0.05600
H 	H 	0.88150 0.09431 0.76332 0.02500
C 	C 	0.75758 0.10933 0.78814 0.06200
C 	C 	0.06411 0.30121 0.83012 0.09400
N 	N 	0.69564 0.07149 0.77902 -0.13400
N 	N 	0.12626 0.34087 0.83857 -0.10700
C 	C 	0.38164 0.04852 0.82555 -0.06000
C 	C 	0.37069 0.02488 0.79280 -0.00800
C 	C 	0.29809 0.99999 0.77845 -0.00500
C 	C 	0.23739 0.00347 0.79675 -0.06000
C 	C 	0.24612 0.01233 0.83021 -0.00400
C 	C 	0.31793 0.03320 0.84478 0.01000
H 	H 	0.41899 0.03052 0.77826 0.03400
H 	H 	0.19820 0.00921 0.84463 0.05600
C 	C 	0.32652 0.04320 0.87932 0.09500
C 	C 	0.28573 0.96801 0.74544 0.07000
N 	N 	0.33331 0.05112 0.90699 -0.10200
N 	N 	0.27595 0.94181 0.71903 -0.12000
C 	C 	0.77094 0.59435 0.84462 -0.06700
C 	C 	0.73389 0.65186 0.83405 -0.01000
C 	C 	0.77053 0.72410 0.81395 0.00400
C 	C 	0.84501 0.73878 0.80425 -0.06800
C 	C 	0.88245 0.68231 0.81534 -0.01600
C 	C 	0.84599 0.61034 0.83545 0.00900
H 	H 	0.67662 0.64044 0.84153 0.04200
H 	H 	0.94000 0.69420 0.80813 0.03800
C 	C 	0.88668 0.55463 0.84718 0.08700
C 	C 	0.73234 0.78450 0.80427 0.08300
N 	N 	0.91956 0.51029 0.85652 -0.10100
N 	N 	0.70179 0.83293 0.79654 -0.11300
