data_crystal

_cell_length_a 26.58362
_cell_length_b 27.76377
_cell_length_c 38.83155
_cell_angle_alpha 61.00059
_cell_angle_beta  118.73132
_cell_angle_gamma 133.11932

_symmetry_space_group_name_	'P 1'
_symmetry_space_group_name_H-M	'P 1'

loop_
_symmetry_equiv_pos_as_xyz
  x,y,z

loop_
_atom_site_label
_atom_site_type_symbol
_atom_site_fract_x
_atom_site_fract_y
_atom_site_fract_z
_atom_site_charge
O 	O 	0.99742 0.08103 0.18160 -0.35700
C 	C 	0.67885 0.26742 0.02430 -0.00400
C 	C 	0.72741 0.33512 0.02792 -0.03800
C 	C 	0.70363 0.36731 0.02794 -0.00400
C 	C 	0.63159 0.33206 0.02427 -0.03800
C 	C 	0.58357 0.26391 0.02251 -0.00300
C 	C 	0.60656 0.23253 0.02077 -0.03700
H 	H 	0.78360 0.36162 0.03240 0.05200
H 	H 	0.61392 0.35597 0.02624 0.04900
H 	H 	0.56863 0.18035 0.01815 0.05400
C 	C 	0.75771 0.33732 0.53188 -0.00300
C 	C 	0.80139 0.40282 0.53826 -0.03900
C 	C 	0.77114 0.42870 0.53850 -0.00200
C 	C 	0.69774 0.38937 0.53270 -0.03900
C 	C 	0.65417 0.32337 0.52791 -0.00300
C 	C 	0.68376 0.29842 0.52584 -0.03700
H 	H 	0.85851 0.43245 0.54428 0.05000
H 	H 	0.67518 0.40859 0.53478 0.04900
H 	H 	0.64942 0.24840 0.52041 0.04900
C 	C 	0.23454 0.61413 0.19693 -0.00100
C 	C 	0.18937 0.54444 0.19748 -0.03800
C 	C 	0.21355 0.51575 0.19353 -0.00300
C 	C 	0.28345 0.55606 0.19027 -0.04000
C 	C 	0.32880 0.62523 0.18991 -0.00300
C 	C 	0.30378 0.65446 0.19215 -0.03600
H 	H 	0.13613 0.51247 0.20137 0.04900
H 	H 	0.30216 0.53380 0.18752 0.04800
H 	H 	0.33845 0.70843 0.19042 0.05200
C 	C 	0.29064 0.68523 0.69170 -0.00300
C 	C 	0.35877 0.73445 0.68363 -0.04100
C 	C 	0.38639 0.71714 0.67223 -0.00200
C 	C 	0.34466 0.65234 0.66621 -0.03900
C 	C 	0.27741 0.60273 0.67448 -0.00500
C 	C 	0.25020 0.61892 0.68728 -0.03900
H 	H 	0.39058 0.78557 0.68675 0.04600
H 	H 	0.36615 0.63932 0.65719 0.05200
H 	H 	0.19900 0.57977 0.69490 0.04900
Co	Co	0.02256 0.97645 0.08001 1.18700
Co	Co	0.91286 0.89877 0.17017 1.19600
Co	Co	0.96572 0.02463 0.10664 1.19000
Co	Co	0.96999 0.84986 0.14425 1.19200
C 	C 	0.16616 0.02649 0.08737 0.28200
Co	Co	0.05836 0.87795 0.09189 1.16800
Co	Co	0.89133 0.00374 0.16466 1.17300
C 	C 	0.92181 0.74366 0.11045 0.27700
O 	O 	0.88820 0.07298 0.11000 -0.38900
O 	O 	0.92028 0.97098 0.14325 -0.76400
C 	C 	0.86393 0.06038 0.07474 0.27100
O 	O 	0.01582 0.05175 0.06760 -0.45200
O 	O 	0.91958 0.82311 0.18312 -0.42700
C 	C 	0.76572 0.86163 0.15307 0.26600
O 	O 	0.94245 0.92499 0.11466 -0.56500
C 	C 	0.03905 0.12366 0.15603 0.25500
C 	C 	0.99412 0.92977 0.01056 0.32300
C 	C 	0.09731 0.84522 0.18078 0.26700
O 	O 	0.89047 0.04261 0.06575 -0.36300
O 	O 	0.98739 0.87387 0.03638 -0.35500
O 	O 	0.99595 0.97054 0.02075 -0.31900
O 	O 	0.78820 0.92507 0.14487 -0.36900
O 	O 	0.80942 0.84317 0.17449 -0.34200
O 	O 	0.04810 0.10073 0.13797 -0.38000
O 	O 	0.12440 0.88502 0.14885 -0.38300
O 	O 	0.05657 0.84987 0.18762 -0.36800
O 	O 	0.00903 0.90069 0.10456 -0.76500
C 	C 	0.95277 0.94012 0.24140 0.31100
O 	O 	0.89679 0.94064 0.22235 -0.35000
O 	O 	0.97737 0.93352 0.22268 -0.34700
O 	O 	0.13271 0.97946 0.06886 -0.39300
O 	O 	0.13088 0.02865 0.10076 -0.39000
O 	O 	0.98940 0.77455 0.11543 -0.38300
O 	O 	0.90102 0.76357 0.12249 -0.36100
Co	Co	0.08984 0.03955 0.57847 1.19400
Co	Co	0.98021 0.97322 0.66570 1.19600
Co	Co	0.04652 0.10126 0.60493 1.18300
Co	Co	0.02620 0.91293 0.64052 1.18200
C 	C 	0.22637 0.07002 0.58934 0.28400
Co	Co	0.10309 0.92537 0.58793 1.17200
Co	Co	0.97438 0.08852 0.66061 1.17800
C 	C 	0.95827 0.80196 0.60299 0.29000
O 	O 	0.98095 0.16196 0.60663 -0.39100
O 	O 	0.99790 0.04997 0.64021 -0.75700
C 	C 	0.95540 0.14919 0.57126 0.27100
O 	O 	0.09634 0.12246 0.56786 -0.44500
O 	O 	0.97910 0.89261 0.67884 -0.44100
C 	C 	0.83974 0.95045 0.64976 0.27200
O 	O 	0.01181 0.99714 0.61173 -0.58500
C 	C 	0.12369 0.19952 0.65592 0.26800
C 	C 	0.05333 0.99255 0.50667 0.30400
C 	C 	0.13725 0.88694 0.67725 0.26600
O 	O 	0.97759 0.12680 0.56264 -0.36400
O 	O 	0.03934 0.93310 0.53071 -0.37900
O 	O 	0.05965 0.03466 0.51845 -0.33000
O 	O 	0.87024 0.01671 0.63735 -0.38500
O 	O 	0.87626 0.92448 0.66625 -0.36200
O 	O 	0.08167 0.15614 0.68111 -0.31800
O 	O 	0.13127 0.17784 0.63605 -0.36100
O 	O 	0.16530 0.92135 0.64595 -0.38100
O 	O 	0.10755 0.90455 0.68356 -0.37200
O 	O 	0.06512 0.95942 0.60109 -0.76200
C 	C 	0.01862 0.01064 0.73852 0.31200
O 	O 	0.96952 0.02125 0.71766 -0.36700
O 	O 	0.04131 0.00087 0.72048 -0.36100
O 	O 	0.18756 0.02360 0.56917 -0.33400
O 	O 	0.19601 0.07971 0.60149 -0.37700
O 	O 	0.02260 0.82376 0.60721 -0.40400
O 	O 	0.94766 0.82744 0.61791 -0.37000
C 	C 	0.07492 0.04017 0.83889 0.03600
C 	C 	0.03118 0.97387 0.86057 0.07800
C 	C 	0.99470 0.91793 0.84484 -0.10100
C 	C 	0.99678 0.93056 0.80554 0.09000
C 	C 	0.03787 0.99736 0.78311 -0.02300
C 	C 	0.08296 0.05184 0.80183 -0.06900
C 	C 	0.02249 0.96390 0.89915 0.08300
C 	C 	0.94891 0.84521 0.86819 0.78700
H 	H 	0.96284 0.88878 0.79133 0.07200
C 	C 	0.13583 0.12345 0.78120 0.77300
H 	H 	0.10252 0.08287 0.85083 0.10600
C 	C 	0.07719 0.97250 0.93499 -0.11700
C 	C 	0.06942 0.96857 0.96980 0.07200
C 	C 	0.00592 0.94999 0.97076 -0.03500
C 	C 	0.95100 0.94095 0.93512 -0.05100
C 	C 	0.96086 0.95007 0.89924 0.03600
C 	C 	0.14538 0.98907 0.93585 0.78700
H 	H 	0.11199 0.97755 0.99684 0.06400
C 	C 	0.88200 0.92126 0.93536 0.77300
H 	H 	0.92044 0.94587 0.87136 0.10900
F 	F 	0.16111 0.12293 0.75755 -0.44400
F 	F 	0.19336 0.15950 0.80966 -0.42600
F 	F 	0.10359 0.15629 0.75739 -0.46800
F 	F 	0.88595 0.83061 0.86521 -0.43800
F 	F 	0.98330 0.83596 0.90858 -0.40700
F 	F 	0.93342 0.79940 0.85295 -0.43000
F 	F 	0.89562 0.97051 0.94620 -0.43300
F 	F 	0.84964 0.85951 0.96292 -0.43200
F 	F 	0.83515 0.91497 0.89774 -0.42800
F 	F 	0.18246 0.97754 0.97520 -0.44100
F 	F 	0.18818 0.05682 0.91694 -0.43400
F 	F 	0.13117 0.94902 0.91643 -0.41100
C 	C 	0.09372 0.02509 0.41425 0.03600
C 	C 	0.02559 0.99109 0.38957 0.08000
C 	C 	0.96687 0.96730 0.40064 -0.10300
C 	C 	0.97725 0.97159 0.43855 0.08600
C 	C 	0.04562 0.00513 0.46333 -0.01400
C 	C 	0.10479 0.03810 0.44889 -0.07600
C 	C 	0.01638 0.98002 0.35245 0.07100
C 	C 	0.89270 0.93346 0.37360 0.78800
H 	H 	0.93197 0.94660 0.44949 0.07500
C 	C 	0.17984 0.08490 0.47082 0.77800
H 	H 	0.13843 0.04242 0.40613 0.10600
C 	C 	0.03801 0.03447 0.31773 -0.10400
C 	C 	0.03025 0.02186 0.28388 0.04500
C 	C 	0.99192 0.95517 0.28170 0.01600
C 	C 	0.97516 0.90177 0.31715 -0.07800
C 	C 	0.98815 0.91494 0.35244 0.05200
C 	C 	0.07044 0.10612 0.31673 0.78400
H 	H 	0.04928 0.06340 0.25791 0.07100
C 	C 	0.93910 0.83002 0.31662 0.78000
H 	H 	0.97433 0.87419 0.37959 0.10400
F 	F 	0.22309 0.13437 0.44375 -0.42500
F 	F 	0.20596 0.04753 0.49894 -0.46300
F 	F 	0.18238 0.11777 0.48991 -0.45800
F 	F 	0.86549 0.86786 0.37718 -0.43700
F 	F 	0.89369 0.96946 0.33356 -0.41000
F 	F 	0.84782 0.93056 0.38434 -0.43100
F 	F 	0.94276 0.78932 0.35545 -0.43300
F 	F 	0.97154 0.83101 0.29689 -0.43900
F 	F 	0.86857 0.80155 0.29664 -0.42900
F 	F 	0.06934 0.14605 0.27747 -0.45400
F 	F 	0.14009 0.13627 0.33863 -0.43700
F 	F 	0.03319 0.10498 0.33293 -0.41500
C 	C 	0.25083 0.45589 0.68361 0.08200
C 	C 	0.24552 0.39521 0.70410 -0.07800
C 	C 	0.20093 0.34475 0.68279 0.03800
C 	C 	0.16543 0.35465 0.64297 0.07900
C 	C 	0.17147 0.41563 0.62210 -0.08100
C 	C 	0.21573 0.46630 0.64341 0.02600
N 	N 	0.26361 0.49459 0.70218 -0.16800
C 	C 	0.23937 0.53218 0.67380 0.08000
C 	C 	0.20627 0.51331 0.63723 -0.08500
N 	N 	0.14783 0.31233 0.62509 -0.15500
C 	C 	0.16899 0.27238 0.65413 0.02900
C 	C 	0.20631 0.29456 0.68990 -0.04000
H 	H 	0.27304 0.38697 0.73546 0.08200
H 	H 	0.14296 0.42318 0.59093 0.05900
H 	H 	0.19557 0.54353 0.60785 0.06000
H 	H 	0.21713 0.26514 0.71968 0.12300
H 	H 	0.30147 0.50688 0.72920 0.09800
H 	H 	0.10809 0.29935 0.59870 0.09000
C 	C 	0.68336 0.85794 0.67903 0.09500
C 	C 	0.63199 0.80338 0.70162 -0.08800
C 	C 	0.56121 0.77927 0.68201 0.03800
C 	C 	0.54252 0.80967 0.64212 0.07300
C 	C 	0.59419 0.86542 0.61980 -0.07400
C 	C 	0.66503 0.88921 0.63930 0.01000
N 	N 	0.74296 0.86624 0.68528 -0.15200
C 	C 	0.76444 0.90436 0.65014 0.01300
C 	C 	0.71575 0.91760 0.62053 -0.04000
N 	N 	0.48143 0.79920 0.63545 -0.16800
C 	C 	0.46146 0.76369 0.67103 0.08100
C 	C 	0.50988 0.75011 0.70051 -0.08800
H 	H 	0.64628 0.77945 0.73277 0.08100
H 	H 	0.57988 0.88931 0.58864 0.05900
H 	H 	0.72498 0.95597 0.59217 0.05300
H 	H 	0.51354 0.73194 0.73281 0.07100
H 	H 	0.77516 0.85994 0.71374 0.11400
H 	H 	0.46172 0.82545 0.61054 0.09200
C 	C 	0.19098 0.69573 0.72266 0.07400
C 	C 	0.13310 0.69649 0.71256 -0.07800
C 	C 	0.14463 0.74466 0.72424 0.01500
C 	C 	0.21298 0.79766 0.73819 0.08800
C 	C 	0.27185 0.80178 0.74330 -0.08700
C 	C 	0.25894 0.74655 0.73891 0.03300
N 	N 	0.19399 0.66825 0.70361 -0.16800
C 	C 	0.26361 0.70163 0.70737 0.08000
C 	C 	0.30564 0.75033 0.72936 -0.08500
N 	N 	0.21553 0.85288 0.72847 -0.14900
C 	C 	0.14918 0.83582 0.70847 0.01300
C 	C 	0.10378 0.76876 0.70534 -0.04700
H 	H 	0.08235 0.66360 0.69447 0.05500
H 	H 	0.32516 0.84760 0.74820 0.06500
H 	H 	0.36030 0.79361 0.72907 0.06100
H 	H 	0.05616 0.74936 0.68151 0.05000
H 	H 	0.15291 0.64246 0.68105 0.08700
H 	H 	0.26148 0.90279 0.72494 0.10000
C 	C 	0.14376 0.34715 0.20323 0.09700
C 	C 	0.16528 0.30617 0.21461 -0.06800
C 	C 	0.15018 0.28034 0.18484 0.03100
C 	C 	0.11368 0.29357 0.14548 0.08100
C 	C 	0.09234 0.33473 0.13411 -0.08200
C 	C 	0.10685 0.36003 0.16396 0.02900
N 	N 	0.17930 0.39792 0.22052 -0.16600
C 	C 	0.16536 0.44340 0.19254 0.08400
C 	C 	0.12087 0.42178 0.15684 -0.08500
N 	N 	0.07748 0.24244 0.12832 -0.15300
C 	C 	0.09005 0.19613 0.15652 0.02000
C 	C 	0.13491 0.21796 0.19216 -0.03700
H 	H 	0.19324 0.29531 0.24536 0.10100
H 	H 	0.06414 0.34540 0.10340 0.05900
H 	H 	0.11933 0.45572 0.12712 0.06100
H 	H 	0.13652 0.18424 0.22194 0.09200
H 	H 	0.22456 0.41015 0.24431 0.10500
H 	H 	0.03222 0.23055 0.10453 0.08900
C 	C 	0.59201 0.72667 0.16779 0.09300
C 	C 	0.55577 0.68768 0.19883 -0.08500
C 	C 	0.50908 0.69795 0.19622 0.04000
C 	C 	0.49577 0.74240 0.16298 0.07800
C 	C 	0.52947 0.77913 0.13110 -0.07500
C 	C 	0.57780 0.77043 0.13409 0.01500
N 	N 	0.65917 0.74948 0.17475 -0.15200
C 	C 	0.68856 0.80798 0.14614 0.02100
C 	C 	0.63927 0.82224 0.12019 -0.04100
N 	N 	0.43129 0.72385 0.15810 -0.16800
C 	C 	0.40323 0.66735 0.18790 0.08300
C 	C 	0.44971 0.64929 0.21221 -0.08400
H 	H 	0.56593 0.65293 0.22484 0.07700
H 	H 	0.51924 0.81393 0.10518 0.06100
H 	H 	0.65309 0.87283 0.10303 0.05700
H 	H 	0.43420 0.59853 0.23026 0.06600
H 	H 	0.68830 0.73789 0.20312 0.12600
H 	H 	0.40154 0.73689 0.13080 0.09400
C 	C 	0.21360 0.72437 0.20345 0.07900
C 	C 	0.23510 0.77051 0.22181 -0.07900
C 	C 	0.18240 0.76359 0.22817 0.01600
C 	C 	0.11105 0.71122 0.21772 0.08300
C 	C 	0.09012 0.66337 0.20075 -0.08500
C 	C 	0.14264 0.67306 0.19226 0.02800
N 	N 	0.25463 0.70781 0.20891 -0.16800
C 	C 	0.21002 0.64531 0.20161 0.08100
C 	C 	0.13965 0.62226 0.19067 -0.08300
N 	N 	0.07072 0.73136 0.20763 -0.15200
C 	C 	0.11522 0.79706 0.20982 0.01100
C 	C 	0.18517 0.81818 0.22328 -0.03800
H 	H 	0.29058 0.81136 0.22989 0.06300
H 	H 	0.03468 0.62273 0.19231 0.05700
H 	H 	0.09372 0.56981 0.19204 0.05800
H 	H 	0.23021 0.87079 0.21654 0.05800
H 	H 	0.30660 0.72864 0.22649 0.09400
H 	H 	0.01916 0.70923 0.18957 0.09000
C 	C 	0.80597 0.23317 0.54823 0.07600
C 	C 	0.78456 0.17396 0.54369 -0.07900
C 	C 	0.82630 0.17981 0.52752 0.01600
C 	C 	0.88664 0.24304 0.51563 0.08700
C 	C 	0.90440 0.30287 0.51715 -0.08800
C 	C 	0.86461 0.29625 0.53515 0.03200
N 	N 	0.76092 0.24008 0.54866 -0.16800
C 	C 	0.78974 0.30737 0.53489 0.08300
C 	C 	0.85462 0.34422 0.52638 -0.08800
N 	N 	0.93634 0.23608 0.52248 -0.14900
C 	C 	0.90945 0.16941 0.53950 0.01300
C 	C 	0.84040 0.13290 0.54192 -0.04400
H 	H 	0.73848 0.12472 0.55369 0.05800
H 	H 	0.95043 0.35226 0.50724 0.06500
H 	H 	0.87935 0.39422 0.50599 0.06500
H 	H 	0.81525 0.08522 0.56400 0.05200
H 	H 	0.70789 0.20081 0.54984 0.08900
H 	H 	0.99067 0.27532 0.52721 0.09500
C 	C 	0.84296 0.63115 0.59706 0.08400
C 	C 	0.84028 0.57233 0.61138 -0.08400
C 	C 	0.81819 0.54156 0.58236 0.02600
C 	C 	0.81082 0.57289 0.54180 0.08400
C 	C 	0.82446 0.63697 0.52767 -0.07900
C 	C 	0.83439 0.66249 0.55575 0.02500
N 	N 	0.88194 0.67688 0.61891 -0.14800
C 	C 	0.89831 0.73714 0.59200 0.01000
C 	C 	0.87068 0.73052 0.55248 -0.03900
N 	N 	0.81218 0.54606 0.52162 -0.16700
C 	C 	0.81586 0.49376 0.54917 0.08100
C 	C 	0.82533 0.49338 0.58804 -0.08400
H 	H 	0.85703 0.55317 0.64333 0.06400
H 	H 	0.82920 0.66635 0.49682 0.08400
H 	H 	0.89316 0.77139 0.52703 0.06900
H 	H 	0.81462 0.45004 0.61393 0.06100
H 	H 	0.91182 0.67197 0.64860 0.09500
H 	H 	0.79128 0.54959 0.49050 0.10700
C 	C 	0.50935 0.21561 0.57159 0.07600
C 	C 	0.45825 0.15369 0.59239 -0.07100
C 	C 	0.39153 0.13946 0.58141 0.02200
C 	C 	0.37734 0.18573 0.55263 0.12600
C 	C 	0.42820 0.24770 0.53186 -0.08400
C 	C 	0.49461 0.26159 0.54219 0.03700
N 	N 	0.56042 0.22425 0.56483 -0.16700
C 	C 	0.58030 0.27693 0.53187 0.08400
C 	C 	0.53775 0.29908 0.51596 -0.07900
N 	N 	0.32466 0.17544 0.55866 -0.15100
C 	C 	0.30200 0.12008 0.59011 0.03200
C 	C 	0.34553 0.09888 0.60635 -0.04000
H 	H 	0.46936 0.11752 0.61525 0.06100
H 	H 	0.41667 0.28348 0.50878 0.08700
H 	H 	0.54872 0.34666 0.49417 0.06900
H 	H 	0.33162 0.04897 0.62545 0.05800
H 	H 	0.59106 0.20681 0.58659 0.09100
H 	H 	0.29559 0.19469 0.53719 0.14800
C 	C 	0.77412 0.21398 0.03041 0.07700
C 	C 	0.81232 0.21745 0.01294 -0.07700
C 	C 	0.79450 0.15602 0.01405 0.01600
C 	C 	0.73852 0.09344 0.03050 0.08800
C 	C 	0.69810 0.09056 0.04595 -0.08700
C 	C 	0.71944 0.15172 0.04752 0.03400
N 	N 	0.76540 0.26255 0.01895 -0.17100
C 	C 	0.70452 0.23104 0.02816 0.08400
C 	C 	0.67498 0.16231 0.04652 -0.08600
N 	N 	0.75187 0.04694 0.04692 -0.15200
C 	C 	0.81692 0.07917 0.04278 0.01400
C 	C 	0.84426 0.14679 0.02166 -0.03500
H 	H 	0.85578 0.26606 0.00015 0.06200
H 	H 	0.65449 0.04212 0.05873 0.06400
H 	H 	0.62038 0.12304 0.04890 0.06300
H 	H 	0.90052 0.18737 0.02473 0.05500
H 	H 	0.78812 0.30838 0.99724 0.09900
H 	H 	0.72921 0.00350 0.06992 0.09000
C 	C 	0.85958 0.59464 0.09739 0.08200
C 	C 	0.83751 0.52749 0.10916 -0.08000
C 	C 	0.78985 0.48956 0.07985 0.02700
C 	C 	0.76679 0.51759 0.04052 0.08600
C 	C 	0.78921 0.58493 0.02867 -0.08200
C 	C 	0.83703 0.62298 0.05797 0.03700
N 	N 	0.87840 0.62689 0.12285 -0.15000
C 	C 	0.87092 0.67802 0.09992 0.02000
C 	C 	0.84189 0.67475 0.05946 -0.04800
N 	N 	0.74705 0.48474 0.01508 -0.16900
C 	C 	0.75466 0.43365 0.03812 0.08500
C 	C 	0.78474 0.43763 0.07846 -0.08400
H 	H 	0.85569 0.50548 0.13989 0.06300
H 	H 	0.77102 0.60691 0.99794 0.09200
H 	H 	0.84417 0.71628 0.03381 0.09300
H 	H 	0.78290 0.39640 0.10421 0.06300
H 	H 	0.90995 0.62464 0.15224 0.09400
H 	H 	0.71430 0.48609 0.98601 0.10800
C 	C 	0.31531 0.14091 0.05005 0.10600
C 	C 	0.36051 0.19684 0.02423 -0.08600
C 	C 	0.42973 0.21588 0.03590 0.04000
C 	C 	0.45231 0.18049 0.07183 0.07600
C 	C 	0.40721 0.12620 0.09820 -0.07000
C 	C 	0.33781 0.10643 0.08558 0.01700
N 	N 	0.25743 0.12855 0.05082 -0.15200
C 	C 	0.24026 0.08274 0.08643 0.00900
C 	C 	0.29245 0.07140 0.10989 -0.03900
N 	N 	0.50233 0.18378 0.06811 -0.16700
C 	C 	0.51370 0.22233 0.03059 0.09000
C 	C 	0.46773 0.24128 0.00932 -0.08300
H 	H 	0.34221 0.22313 0.99588 0.08600
H 	H 	0.42428 0.09828 0.12607 0.06200
H 	H 	0.28523 0.02757 0.13489 0.05600
H 	H 	0.47359 0.28173 0.98206 0.07700
H 	H 	0.22155 0.13511 0.02489 0.10500
H 	H 	0.53718 0.17333 0.09235 0.09400
