data_crystal

_cell_length_a 28.38348
_cell_length_b 29.85532
_cell_length_c 38.97500
_cell_angle_alpha 60.50530
_cell_angle_beta  119.17309
_cell_angle_gamma 133.23601

_symmetry_space_group_name_	'P 1'
_symmetry_space_group_name_H-M	'P 1'

loop_
_symmetry_equiv_pos_as_xyz
  x,y,z

loop_
_atom_site_label
_atom_site_type_symbol
_atom_site_fract_x
_atom_site_fract_y
_atom_site_fract_z
_atom_site_charge
Co	Co	0.06309 0.99913 0.08426 1.18200
Co	Co	0.00626 0.04673 0.10464 1.17500
Co	Co	0.01612 0.88568 0.15162 1.17800
O 	O 	0.05604 0.07036 0.06810 -0.47000
O 	O 	0.03655 0.97980 0.13865 -0.59800
C 	C 	0.04486 0.14989 0.13015 0.30300
C 	C 	0.02674 0.95700 0.01474 0.29400
O 	O 	0.00412 0.96659 0.03134 -0.39900
O 	O 	0.06742 0.13086 0.12150 -0.39600
O 	O 	0.05478 0.93148 0.11312 -0.77500
Co	Co	0.05315 0.02809 0.57473 1.18800
Co	Co	0.00091 0.07734 0.59872 1.18000
O 	O 	0.04790 0.09990 0.56076 -0.47000
O 	O 	0.01915 0.00224 0.62768 -0.58700
C 	C 	0.06207 0.16629 0.65069 0.31000
C 	C 	0.00797 0.97125 0.50733 0.26700
O 	O 	0.00920 0.92223 0.53297 -0.39600
O 	O 	0.00257 0.00269 0.51887 -0.37900
O 	O 	0.01547 0.12024 0.67157 -0.40300
O 	O 	0.06419 0.15899 0.62028 -0.38800
O 	O 	0.06612 0.88782 0.68293 -0.39000
O 	O 	0.04483 0.95991 0.60286 -0.77500
O 	O 	0.00937 0.83383 0.61291 -0.44000
H 	H 	0.00198 0.03731 0.94791 0.02300
C 	C 	0.02487 0.00554 0.83205 -0.01200
C 	C 	0.01617 0.00411 0.79377 -0.01000
H 	H 	0.05884 0.03501 0.78090 0.04000
H 	H 	0.04064 0.12109 0.85585 0.02100
C 	C 	0.03338 0.97533 0.34993 -0.08900
C 	C 	0.03380 0.97599 0.31372 0.04400
H 	H 	0.06984 0.97292 0.37756 0.05000
C 	C 	0.03767 0.03477 0.43958 0.04000
C 	C 	0.03441 0.03469 0.40242 -0.07300
H 	H 	0.06928 0.07791 0.38436 0.05100
H 	H 	0.02317 0.28038 0.15025 0.03000
H 	H 	0.03124 0.18804 0.17105 0.02400
C 	C 	0.07531 0.22556 0.15879 0.01000
Co	Co	0.07791 0.92841 0.58801 1.16600
Co	Co	0.08030 0.89701 0.09454 1.16600
O 	O 	0.07787 0.95438 0.03579 -0.40100
O 	O 	0.08309 0.83447 0.15068 -0.42100
H 	H 	0.08298 0.73869 0.69375 0.03700
C 	C 	0.07706 0.31133 0.15676 -0.03500
H 	H 	0.08361 0.38705 0.15745 0.03900
C 	C 	0.74883 0.28953 0.05842 0.06300
C 	C 	0.68594 0.24352 0.06751 -0.10000
C 	C 	0.65989 0.26001 0.07829 0.06300
C 	C 	0.69634 0.32301 0.07909 -0.09900
C 	C 	0.76065 0.36844 0.07221 0.06300
C 	C 	0.78613 0.35198 0.06082 -0.10000
H 	H 	0.65696 0.19538 0.06553 0.05600
H 	H 	0.67405 0.33702 0.08408 0.05600
H 	H 	0.83463 0.38755 0.05380 0.05700
C 	C 	0.74040 0.33407 0.52071 0.06200
C 	C 	0.67251 0.29337 0.52064 -0.09900
C 	C 	0.64463 0.31361 0.52588 0.06200
C 	C 	0.68395 0.37583 0.52924 -0.09800
C 	C 	0.75201 0.41667 0.52998 0.06200
C 	C 	0.78033 0.39529 0.52624 -0.09800
H 	H 	0.64206 0.24534 0.51794 0.05500
H 	H 	0.66198 0.39180 0.53246 0.05600
H 	H 	0.83320 0.42594 0.52791 0.05600
C 	C 	0.28266 0.63378 0.22365 0.06100
C 	C 	0.23928 0.57247 0.21767 -0.10000
C 	C 	0.26210 0.55012 0.20952 0.06100
C 	C 	0.32922 0.58827 0.20901 -0.09800
C 	C 	0.37276 0.64997 0.21433 0.06100
C 	C 	0.34926 0.67267 0.22148 -0.09900
H 	H 	0.18749 0.54295 0.21827 0.05200
H 	H 	0.34692 0.57067 0.20312 0.05500
H 	H 	0.38202 0.72122 0.22386 0.05300
C 	C 	0.27898 0.64506 0.73288 0.06200
C 	C 	0.34215 0.68975 0.72447 -0.10100
C 	C 	0.36490 0.67350 0.71071 0.06200
C 	C 	0.32374 0.61250 0.70484 -0.10000
C 	C 	0.26267 0.56614 0.71610 0.06100
C 	C 	0.23942 0.58296 0.72908 -0.10100
H 	H 	0.37305 0.73737 0.72801 0.05300
H 	H 	0.33894 0.60115 0.69133 0.05500
H 	H 	0.19120 0.54796 0.73645 0.05400
Co	Co	0.96483 0.93525 0.17473 1.18600
C 	C 	0.20054 0.02937 0.10458 0.33800
Co	Co	0.92133 0.02329 0.15379 1.16900
C 	C 	0.94378 0.78756 0.10625 0.35500
O 	O 	0.85720 0.00571 0.09835 -0.39700
O 	O 	0.97179 0.00269 0.14534 -0.74500
C 	C 	0.88085 0.04191 0.06575 0.31700
O 	O 	0.97589 0.86644 0.19223 -0.46000
C 	C 	0.82774 0.88282 0.16768 0.33000
C 	C 	0.11013 0.85059 0.18479 0.32500
O 	O 	0.92212 0.04015 0.06029 -0.38600
O 	O 	0.85702 0.92994 0.18234 -0.42000
O 	O 	0.86246 0.88035 0.15633 -0.41100
O 	O 	0.98063 0.11845 0.12484 -0.39900
O 	O 	0.08996 0.87287 0.19238 -0.40000
C 	C 	0.99083 0.98967 0.23761 0.28000
O 	O 	0.99125 0.03759 0.20827 -0.37700
O 	O 	0.99160 0.94995 0.23133 -0.36700
O 	O 	0.17788 0.96952 0.11312 -0.40900
O 	O 	0.16082 0.04837 0.08217 -0.39000
O 	O 	0.97951 0.82825 0.07880 -0.39800
O 	O 	0.93741 0.80792 0.12627 -0.40100
Co	Co	0.93846 0.95469 0.65744 1.18400
Co	Co	0.99932 0.90971 0.63789 1.19400
C 	C 	0.18291 0.06986 0.57264 0.34600
Co	Co	0.91765 0.05648 0.64590 1.17500
C 	C 	0.94621 0.80982 0.60388 0.38300
O 	O 	0.92770 0.12468 0.59143 -0.40800
O 	O 	0.95955 0.02878 0.63580 -0.75000
C 	C 	0.90569 0.11027 0.55753 0.32500
O 	O 	0.94240 0.88236 0.67091 -0.46600
C 	C 	0.80386 0.92823 0.63239 0.31600
C 	C 	0.11428 0.89531 0.67746 0.31300
O 	O 	0.92205 0.08016 0.55501 -0.39200
O 	O 	0.82481 0.98802 0.61912 -0.40400
O 	O 	0.83709 0.91210 0.63213 -0.40500
O 	O 	0.13952 0.93582 0.64525 -0.40000
C 	C 	0.94214 0.97549 0.72771 0.30500
O 	O 	0.90070 0.99014 0.70131 -0.40900
O 	O 	0.96661 0.96122 0.71633 -0.38500
O 	O 	0.14736 0.01919 0.55968 -0.41700
O 	O 	0.15502 0.08025 0.58407 -0.40100
O 	O 	0.92964 0.84014 0.60598 -0.41500
C 	C 	0.97759 0.91206 0.92126 -0.07300
C 	C 	0.97759 0.96288 0.89041 0.00700
C 	C 	0.98353 0.00681 0.89988 -0.00400
C 	C 	0.99402 0.00164 0.94056 0.03100
C 	C 	0.99763 0.95240 0.97185 -0.09600
C 	C 	0.98643 0.90590 0.96152 0.06300
C 	C 	0.96906 0.96806 0.84804 0.01900
S 	S 	0.97829 0.06840 0.86135 -0.01300
S 	S 	0.98198 0.83892 0.99846 -0.06400
H 	H 	0.97071 0.87702 0.91389 0.05500
C 	C 	0.95236 0.96502 0.77135 -0.08800
C 	C 	0.89704 0.92521 0.78834 0.05700
C 	C 	0.90556 0.92777 0.82609 -0.07600
S 	S 	0.10575 0.05433 0.85956 -0.04000
S 	S 	0.81710 0.87053 0.76321 -0.04800
H 	H 	0.86285 0.89718 0.83887 0.05200
H 	H 	0.91701 0.79049 0.00067 0.04600
H 	H 	0.12178 0.11374 0.84881 0.03200
H 	H 	0.80869 0.81458 0.77433 0.03800
C 	C 	0.98682 0.97886 0.35045 0.02700
C 	C 	0.93946 0.98187 0.31444 -0.00600
C 	C 	0.93828 0.98012 0.27874 -0.00800
C 	C 	0.98603 0.97866 0.27769 -0.07200
C 	C 	0.98753 0.97867 0.38904 0.01300
S 	S 	0.88282 0.99007 0.31325 -0.04200
H 	H 	0.90155 0.98232 0.25121 0.02800
S 	S 	0.09589 0.97609 0.31372 -0.05900
C 	C 	0.94120 0.92304 0.41217 -0.00100
C 	C 	0.94281 0.92381 0.44842 -0.01100
C 	C 	0.99289 0.97843 0.46349 -0.06300
S 	S 	0.88323 0.85126 0.39725 -0.04200
H 	H 	0.90777 0.88049 0.46637 0.04700
S 	S 	0.09970 0.10495 0.45649 -0.05000
H 	H 	0.14985 0.03749 0.30447 0.04300
H 	H 	0.91130 0.81977 0.41297 0.03700
H 	H 	0.15709 0.10861 0.47682 0.04000
H 	H 	0.82580 0.93118 0.32205 0.03700
C 	C 	0.21522 0.41028 0.71806 0.02400
C 	C 	0.22522 0.36438 0.74835 -0.04900
C 	C 	0.19585 0.30835 0.74013 -0.03600
C 	C 	0.15699 0.29798 0.70133 0.00300
C 	C 	0.14743 0.34423 0.67078 -0.03600
C 	C 	0.17685 0.40032 0.67902 -0.05000
C 	C 	0.11830 0.23483 0.69486 0.00600
C 	C 	0.11276 0.22836 0.66096 -0.14700
C 	C 	0.25193 0.47186 0.72606 -0.04300
C 	C 	0.22255 0.50023 0.71349 -0.06400
H 	H 	0.25573 0.37211 0.77834 0.04000
H 	H 	0.20271 0.27261 0.76408 0.03700
H 	H 	0.11618 0.33618 0.64096 0.03600
H 	H 	0.17037 0.43622 0.65498 0.03900
H 	H 	0.09333 0.19292 0.71809 0.03700
H 	H 	0.14272 0.26972 0.63958 0.07700
H 	H 	0.30383 0.49429 0.74266 0.04000
H 	H 	0.16911 0.47508 0.70094 0.04300
C 	C 	0.64725 0.84252 0.66427 0.00100
C 	C 	0.64182 0.85233 0.69350 -0.03500
C 	C 	0.58418 0.80781 0.70809 -0.05000
C 	C 	0.53137 0.75316 0.69348 0.02500
C 	C 	0.53704 0.74272 0.66475 -0.05000
C 	C 	0.59433 0.78762 0.64973 -0.03400
C 	C 	0.47021 0.70653 0.70837 -0.04300
C 	C 	0.43028 0.72188 0.70006 -0.06300
C 	C 	0.70638 0.89238 0.64693 0.01300
C 	C 	0.73776 0.87800 0.64163 -0.15200
H 	H 	0.68223 0.89463 0.70478 0.03600
H 	H 	0.58045 0.81585 0.73063 0.04100
H 	H 	0.49646 0.70049 0.65343 0.04100
H 	H 	0.59707 0.78030 0.62634 0.03900
H 	H 	0.45561 0.65829 0.72392 0.03900
H 	H 	0.44623 0.77071 0.68559 0.04400
H 	H 	0.72830 0.94173 0.64233 0.02900
H 	H 	0.71760 0.82869 0.64799 0.07900
C 	C 	0.18821 0.80627 0.71618 0.00200
C 	C 	0.25084 0.81763 0.73198 -0.03800
C 	C 	0.25765 0.77332 0.73540 -0.04800
C 	C 	0.20156 0.71659 0.72344 0.02200
C 	C 	0.13836 0.70339 0.71015 -0.05000
C 	C 	0.13162 0.74792 0.70648 -0.03800
C 	C 	0.20986 0.67676 0.71792 -0.04100
C 	C 	0.25427 0.66418 0.74497 -0.06600
C 	C 	0.18434 0.85998 0.70182 0.00500
C 	C 	0.13412 0.85208 0.70545 -0.15000
H 	H 	0.29484 0.86243 0.73946 0.03600
H 	H 	0.30696 0.78482 0.74508 0.03900
H 	H 	0.09477 0.65995 0.70078 0.03600
H 	H 	0.18229 0.66093 0.69009 0.03800
H 	H 	0.27975 0.67729 0.77366 0.04500
H 	H 	0.22048 0.90552 0.68541 0.03300
H 	H 	0.10255 0.80936 0.72562 0.07600
C 	C 	0.18101 0.41200 0.16961 0.02500
C 	C 	0.21627 0.39188 0.17361 -0.05000
C 	C 	0.18216 0.33128 0.16986 -0.03400
C 	C 	0.11223 0.29099 0.16083 0.00100
C 	C 	0.11128 0.37160 0.16106 -0.05100
C 	C 	0.09029 0.21289 0.13828 -0.15000
C 	C 	0.21732 0.47672 0.17225 -0.04400
C 	C 	0.21565 0.48628 0.20184 -0.06300
H 	H 	0.27017 0.42292 0.18013 0.04100
H 	H 	0.21006 0.31539 0.17457 0.03800
H 	H 	0.13456 0.24957 0.12628 0.07700
H 	H 	0.25045 0.51663 0.15216 0.03900
H 	H 	0.18067 0.44668 0.22092 0.04500
C 	C 	0.65120 0.79013 0.17346 0.00100
C 	C 	0.59384 0.78684 0.14714 -0.03500
C 	C 	0.53642 0.74819 0.16107 -0.05000
C 	C 	0.53636 0.71351 0.20183 0.02500
C 	C 	0.59258 0.71430 0.22761 -0.05000
C 	C 	0.64990 0.75267 0.21359 -0.03300
C 	C 	0.47620 0.67331 0.21705 -0.04300
C 	C 	0.44011 0.69401 0.20670 -0.06300
C 	C 	0.71509 0.84117 0.16135 0.01700
C 	C 	0.75754 0.82988 0.16790 -0.15600
H 	H 	0.59428 0.81548 0.11614 0.03600
H 	H 	0.49223 0.74559 0.14029 0.04000
H 	H 	0.59245 0.68642 0.25879 0.04100
H 	H 	0.69412 0.75531 0.23435 0.04100
H 	H 	0.46149 0.62648 0.23710 0.03900
H 	H 	0.45951 0.74352 0.19125 0.04400
H 	H 	0.72937 0.88951 0.14899 0.02700
H 	H 	0.74145 0.78148 0.17616 0.08100
C 	C 	0.22773 0.80558 0.23098 0.00000
C 	C 	0.18210 0.73909 0.23817 -0.03500
C 	C 	0.20275 0.70222 0.24782 -0.05000
C 	C 	0.26902 0.73152 0.25004 0.02400
C 	C 	0.31573 0.79703 0.24673 -0.05000
C 	C 	0.29511 0.83396 0.23699 -0.03600
C 	C 	0.28897 0.69481 0.25312 -0.04300
C 	C 	0.25577 0.66005 0.22645 -0.06300
C 	C 	0.20334 0.84567 0.20812 0.01100
C 	C 	0.15480 0.83332 0.21711 -0.15500
H 	H 	0.12992 0.71637 0.23378 0.03800
H 	H 	0.16672 0.65127 0.25192 0.03900
H 	H 	0.36737 0.81985 0.24950 0.03900
H 	H 	0.33087 0.88507 0.23184 0.03400
H 	H 	0.33522 0.70196 0.27423 0.03900
H 	H 	0.20894 0.65202 0.20580 0.04300
H 	H 	0.21992 0.88124 0.18063 0.02600
H 	H 	0.14281 0.80345 0.24649 0.07600
C 	C 	0.76351 0.24225 0.49519 0.02400
C 	C 	0.71388 0.18163 0.48776 -0.04700
C 	C 	0.73081 0.14308 0.49450 -0.03600
C 	C 	0.79764 0.16487 0.50832 0.00600
C 	C 	0.84775 0.22749 0.51276 -0.03500
C 	C 	0.83077 0.26610 0.50604 -0.04700
C 	C 	0.81310 0.11794 0.52774 0.01000
C 	C 	0.86478 0.13019 0.52247 -0.14600
C 	C 	0.74415 0.28047 0.49096 -0.04100
C 	C 	0.77128 0.31008 0.51959 -0.06200
H 	H 	0.66192 0.16338 0.47824 0.04100
H 	H 	0.69169 0.09504 0.49090 0.04100
H 	H 	0.89959 0.24509 0.52349 0.04500
H 	H 	0.86981 0.31391 0.51003 0.04300
H 	H 	0.78845 0.07731 0.55154 0.03500
H 	H 	0.88465 0.16547 0.49592 0.07900
H 	H 	0.70167 0.27786 0.46682 0.04000
H 	H 	0.81459 0.31418 0.54338 0.04600
C 	C 	0.80692 0.56619 0.54400 0.02700
C 	C 	0.81159 0.62210 0.51909 -0.05100
C 	C 	0.84153 0.67053 0.53612 -0.02900
C 	C 	0.86661 0.66329 0.57827 -0.00800
C 	C 	0.85840 0.60590 0.60328 -0.03000
C 	C 	0.82840 0.55748 0.58633 -0.05100
C 	C 	0.91546 0.71969 0.59497 0.04000
C 	C 	0.89899 0.75438 0.59280 -0.21200
C 	C 	0.77310 0.51429 0.52580 -0.04300
C 	C 	0.79524 0.47881 0.53977 -0.06200
H 	H 	0.79328 0.62859 0.48649 0.04200
H 	H 	0.84807 0.71480 0.51641 0.04000
H 	H 	0.87762 0.59977 0.63584 0.03800
H 	H 	0.82208 0.51334 0.60611 0.04300
H 	H 	0.96569 0.73230 0.60987 0.03300
H 	H 	0.84723 0.73764 0.58180 0.09800
H 	H 	0.72867 0.50406 0.50128 0.04000
H 	H 	0.84405 0.49393 0.56032 0.04600
C 	C 	0.34821 0.15796 0.55134 0.00100
C 	C 	0.36784 0.18860 0.51482 -0.03500
C 	C 	0.43473 0.22462 0.51519 -0.04900
C 	C 	0.48248 0.22877 0.55228 0.02500
C 	C 	0.46303 0.19950 0.58875 -0.04900
C 	C 	0.39618 0.16412 0.58831 -0.03300
C 	C 	0.55382 0.26817 0.55315 -0.04200
C 	C 	0.57360 0.26962 0.52719 -0.06300
C 	C 	0.27682 0.11240 0.55093 0.01500
C 	C 	0.24943 0.11645 0.57022 -0.17700
H 	H 	0.33112 0.18407 0.48614 0.03700
H 	H 	0.44941 0.24948 0.48670 0.04100
H 	H 	0.49960 0.20355 0.61747 0.04200
H 	H 	0.38144 0.14004 0.61672 0.04100
H 	H 	0.59079 0.29489 0.57617 0.04000
H 	H 	0.53753 0.23719 0.50751 0.04500
H 	H 	0.24486 0.07693 0.53378 0.03400
H 	H 	0.28001 0.15659 0.58305 0.08800
C 	C 	0.80718 0.21012 0.05271 0.02400
C 	C 	0.86399 0.21046 0.07351 -0.04600
C 	C 	0.87230 0.17599 0.06509 -0.03900
C 	C 	0.82316 0.13980 0.03622 0.00500
C 	C 	0.76904 0.14360 0.01325 -0.03500
C 	C 	0.76105 0.17856 0.02141 -0.04700
C 	C 	0.81891 0.08660 0.03750 0.01000
C 	C 	0.87294 0.09384 0.04039 -0.15300
C 	C 	0.79068 0.23326 0.06832 -0.04100
C 	C 	0.77350 0.27337 0.04354 -0.06400
H 	H 	0.90020 0.23503 0.09749 0.04200
H 	H 	0.91455 0.17392 0.08300 0.04800
H 	H 	0.73091 0.11621 0.99081 0.03800
H 	H 	0.71697 0.17792 0.00507 0.04200
H 	H 	0.77327 0.03904 0.04216 0.03600
H 	H 	0.91572 0.14081 0.03049 0.08300
H 	H 	0.79224 0.21694 0.10045 0.04100
H 	H 	0.77663 0.29362 0.01206 0.04700
C 	C 	0.82514 0.51207 0.09952 0.02700
C 	C 	0.85776 0.53259 0.13518 -0.05000
C 	C 	0.88249 0.59332 0.13329 -0.03000
C 	C 	0.87430 0.63386 0.09574 -0.00600
C 	C 	0.83887 0.61215 0.06036 -0.03000
C 	C 	0.81385 0.55141 0.06223 -0.05000
C 	C 	0.91473 0.70231 0.09207 0.03500
C 	C 	0.90617 0.72477 0.10982 -0.20000
C 	C 	0.79746 0.44700 0.10202 -0.04200
C 	C 	0.79934 0.43471 0.07388 -0.06200
H 	H 	0.86506 0.50197 0.16426 0.04300
H 	H 	0.91035 0.60978 0.16077 0.04100
H 	H 	0.83245 0.64314 0.03120 0.03700
H 	H 	0.78588 0.53507 0.03471 0.04200
H 	H 	0.95195 0.73460 0.07440 0.02700
H 	H 	0.87055 0.69161 0.12875 0.09500
H 	H 	0.77520 0.40859 0.12722 0.04000
H 	H 	0.82855 0.47363 0.05157 0.04600
C 	C 	0.50923 0.17179 0.11797 0.02600
C 	C 	0.48849 0.19932 0.12266 -0.04900
C 	C 	0.42418 0.16274 0.12741 -0.03300
C 	C 	0.38009 0.09820 0.12758 0.00300
C 	C 	0.40115 0.07052 0.12341 -0.03400
C 	C 	0.46537 0.10708 0.11862 -0.04800
C 	C 	0.31337 0.05803 0.13485 0.01400
C 	C 	0.26944 0.07555 0.11153 -0.16900
C 	C 	0.57853 0.21005 0.11540 -0.04200
C 	C 	0.59206 0.21231 0.08568 -0.06300
H 	H 	0.52236 0.24898 0.12288 0.04100
H 	H 	0.40921 0.18423 0.13179 0.03800
H 	H 	0.36783 0.02051 0.12415 0.03800
H 	H 	0.48140 0.08486 0.11618 0.04200
H 	H 	0.29493 0.01017 0.15418 0.03800
H 	H 	0.28893 0.12512 0.09647 0.08500
H 	H 	0.61848 0.24105 0.13579 0.04000
H 	H 	0.55260 0.18009 0.06598 0.04600
