data_crystal

_cell_length_a 20.25736
_cell_length_b 20.88370
_cell_length_c 38.35869
_cell_angle_alpha 60.64448
_cell_angle_beta  119.04245
_cell_angle_gamma 133.34605

_symmetry_space_group_name_	'P 1'
_symmetry_space_group_name_H-M	'P 1'

loop_
_symmetry_equiv_pos_as_xyz
  x,y,z

loop_
_atom_site_label
_atom_site_type_symbol
_atom_site_fract_x
_atom_site_fract_y
_atom_site_fract_z
_atom_site_charge
Co	Co	0.00573 0.10421 0.07454 1.18000
Co	Co	0.08053 0.04963 0.04072 1.17900
Co	Co	0.12269 0.91855 0.04657 1.19000
C 	C 	0.25932 0.11903 0.03068 0.36700
O 	O 	0.07210 0.14792 0.03311 -0.44900
C 	C 	0.07639 0.20885 0.13538 0.34300
C 	C 	0.18605 0.87230 0.13686 0.33200
O 	O 	0.21659 0.93261 0.10309 -0.34200
O 	O 	0.11652 0.85347 0.14523 -0.33300
O 	O 	0.01152 0.13490 0.15561 -0.40300
O 	O 	0.09158 0.20835 0.10506 -0.35200
O 	O 	0.07531 0.95397 0.06691 -0.75500
O 	O 	0.20715 0.04996 0.01518 -0.41300
O 	O 	0.22269 0.13268 0.04454 -0.37500
Co	Co	0.01140 0.07992 0.57683 1.17900
Co	Co	0.09775 0.01961 0.55489 1.17900
Co	Co	0.12120 0.87496 0.56082 1.17900
C 	C 	0.28385 0.04729 0.58338 0.32900
O 	O 	0.09381 0.12290 0.54359 -0.44500
C 	C 	0.08710 0.21779 0.61510 0.33900
C 	C 	0.11675 0.77072 0.64722 0.36100
O 	O 	0.09189 0.76311 0.61041 -0.37600
O 	O 	0.10004 0.81549 0.65304 -0.37100
O 	O 	0.10995 0.17532 0.61191 -0.37900
O 	O 	0.06441 0.91155 0.57424 -0.76700
O 	O 	0.24740 0.96013 0.59518 -0.34600
O 	O 	0.23992 0.07613 0.58132 -0.37900
C 	C 	0.05659 0.98720 0.81624 -0.04000
C 	C 	0.06484 0.98643 0.78215 0.03500
C 	C 	0.02557 0.05353 0.89778 -0.02500
C 	C 	0.02020 0.04912 0.86097 -0.05300
C 	C 	0.07220 0.13221 0.83211 0.10600
C 	C 	0.15590 0.02867 0.77876 0.08300
N 	N 	0.11385 0.19876 0.80897 -0.07600
N 	N 	0.22888 0.06261 0.77601 -0.08300
H 	H 	0.11803 0.01618 0.84054 0.06100
H 	H 	0.07585 0.11784 0.90629 0.06100
C 	C 	0.05414 0.00616 0.30044 -0.12800
C 	C 	0.03383 0.99046 0.26370 0.07300
C 	C 	0.10871 0.04056 0.24453 0.06200
N 	N 	0.16870 0.08060 0.22918 -0.08900
H 	H 	0.12563 0.05538 0.31415 0.09100
C 	C 	0.20907 0.34024 0.69538 0.31900
C 	C 	0.18003 0.27837 0.67690 -0.07800
C 	C 	0.15642 0.29540 0.63385 -0.12500
H 	H 	0.17097 0.21484 0.69601 0.10000
F 	F 	0.23223 0.32289 0.73704 -0.42100
C 	C 	0.26616 0.78984 0.68429 -0.07300
C 	C 	0.16958 0.73477 0.68045 -0.12100
C 	C 	0.12210 0.63989 0.69335 0.36400
C 	C 	0.16478 0.60163 0.70018 -0.10900
C 	C 	0.30950 0.75250 0.69086 0.32900
H 	H 	0.30531 0.86301 0.67693 0.13100
H 	H 	0.12489 0.52849 0.70710 0.12000
F 	F 	0.03068 0.58477 0.69387 -0.40700
C 	C 	0.17603 0.29575 0.18844 -0.07000
C 	C 	0.13284 0.29388 0.14687 -0.13400
C 	C 	0.12465 0.36454 0.11879 0.35800
C 	C 	0.16085 0.43693 0.13211 -0.11300
H 	H 	0.17975 0.24001 0.21067 0.10100
H 	H 	0.15736 0.49286 0.10988 0.11900
F 	F 	0.07958 0.36196 0.07880 -0.43800
C 	C 	0.18496 0.66874 0.17531 -0.11100
C 	C 	0.31451 0.85425 0.17327 -0.06900
C 	C 	0.21870 0.81423 0.16181 -0.11900
C 	C 	0.15443 0.71979 0.16593 0.35600
F 	F 	0.06175 0.67852 0.15808 -0.43300
H 	H 	0.13395 0.59726 0.17566 0.11700
H 	H 	0.36492 0.92630 0.17189 0.12900
H 	H 	0.31102 0.18100 0.51330 0.09600
H 	H 	0.31278 0.26439 0.96594 0.09600
C 	C 	0.31106 0.66292 0.18255 0.18900
N 	N 	0.39672 0.71137 0.17625 -0.09900
C 	C 	0.42330 0.66891 0.17430 0.19300
N 	N 	0.36579 0.57779 0.18025 -0.13100
C 	C 	0.27748 0.53000 0.18266 0.19700
N 	N 	0.24991 0.57227 0.18418 -0.13600
C 	C 	0.29619 0.61872 0.69506 0.18500
N 	N 	0.23844 0.53344 0.68905 -0.13500
C 	C 	0.27541 0.49749 0.68959 0.19500
N 	N 	0.36888 0.54593 0.69689 -0.13100
C 	C 	0.42439 0.63463 0.69626 0.18800
N 	N 	0.38891 0.67037 0.69700 -0.09300
C 	C 	0.19636 0.43932 0.62807 -0.11200
C 	C 	0.21682 0.42103 0.67101 -0.06300
C 	C 	0.16992 0.37872 0.60976 0.36000
F 	F 	0.15239 0.39879 0.56822 -0.40200
H 	H 	0.20615 0.50318 0.60897 0.12100
C 	C 	0.51958 0.75568 0.64455 0.32300
F 	F 	0.45503 0.77334 0.62239 -0.40600
C 	C 	0.25690 0.65800 0.69603 -0.05100
F 	F 	0.40096 0.80880 0.69020 -0.39300
C 	C 	0.20836 0.44108 0.17327 -0.06400
C 	C 	0.21284 0.36846 0.20164 0.32000
F 	F 	0.25773 0.37097 0.24165 -0.41800
F 	F 	0.42426 0.78109 0.09377 -0.41400
C 	C 	0.28042 0.71107 0.18205 -0.05300
C 	C 	0.34555 0.80274 0.18422 0.32900
F 	F 	0.43867 0.84237 0.19621 -0.40700
C 	C 	0.50257 0.14123 0.56294 -0.11000
C 	C 	0.50064 0.20029 0.52388 -0.05600
C 	C 	0.43148 0.21479 0.50626 0.32200
C 	C 	0.36560 0.17125 0.52770 -0.06900
C 	C 	0.36674 0.11119 0.56653 -0.13200
C 	C 	0.43689 0.09789 0.58442 0.36000
F 	F 	0.44042 0.04172 0.62243 -0.41900
F 	F 	0.42896 0.27205 0.46851 -0.40800
C 	C 	0.36399 0.25010 0.98510 -0.04600
C 	C 	0.35345 0.18976 0.02412 -0.15000
C 	C 	0.42119 0.17319 0.04876 0.37300
C 	C 	0.49042 0.20578 0.03239 -0.11700
C 	C 	0.49684 0.26066 0.99217 -0.04400
C 	C 	0.43367 0.28346 0.96874 0.31600
F 	F 	0.44108 0.33949 0.93036 -0.41300
F 	F 	0.41437 0.11800 0.08731 -0.43100
O 	O 	0.03173 0.99943 0.09665 -0.57000
C 	C 	0.09631 0.99800 0.48277 0.32300
O 	O 	0.15799 0.98330 0.50990 -0.39100
O 	O 	0.05975 0.01633 0.49400 -0.39100
H 	H 	0.02932 0.08090 0.41079 0.05500
C 	C 	0.51208 0.69451 0.68356 -0.05100
C 	C 	0.50049 0.72151 0.15552 -0.05900
O 	O 	0.03962 0.78282 0.07366 -0.37800
C 	C 	0.06066 0.92061 0.43539 0.03500
C 	C 	0.05982 0.98233 0.44126 -0.06300
C 	C 	0.03028 0.03362 0.40679 0.01400
C 	C 	0.08839 0.86453 0.46959 0.08000
N 	N 	0.11076 0.81952 0.49674 -0.11500
C 	C 	0.49522 0.77222 0.11448 0.32800
C 	C 	0.00713 0.96993 0.96950 0.28400
O 	O 	0.01763 0.90449 0.99410 -0.33800
C 	C 	0.03469 0.91333 0.39579 -0.04500
H 	H 	0.03581 0.86642 0.39152 0.07000
C 	C 	0.00798 0.96621 0.36155 0.02200
C 	C 	0.00479 0.02615 0.36698 -0.06800
Co	Co	0.01386 0.87518 0.10277 1.19000
O 	O 	0.00335 0.01388 0.98393 -0.38600
O 	O 	0.00082 0.93446 0.69599 -0.38100
O 	O 	0.99953 0.18506 0.60522 -0.35500
O 	O 	0.99947 0.05279 0.68474 -0.38100
Co	Co	0.99860 0.83612 0.60856 1.20400
H 	H 	0.54167 0.19156 0.05160 0.12400
C 	C 	0.99361 0.97818 0.70866 0.32100
C 	C 	0.98482 0.94722 0.75092 -0.05300
O 	O 	0.85006 0.94250 0.17681 -0.37900
C 	C 	0.91327 0.92827 0.20210 0.32800
O 	O 	0.95150 0.91562 0.18868 -0.34600
C 	C 	0.96994 0.95462 0.81806 0.03700
C 	C 	0.94083 0.92662 0.24573 -0.07400
C 	C 	0.97621 0.08058 0.33194 0.14900
N 	N 	0.95328 0.12418 0.30382 -0.09200
H 	H 	0.55731 0.13171 0.57734 0.12000
C 	C 	0.71103 0.32336 0.98679 0.18500
N 	N 	0.77144 0.40573 0.99602 -0.11000
C 	C 	0.73720 0.44512 0.99452 0.19900
N 	N 	0.64442 0.40442 0.98202 -0.11400
C 	C 	0.58480 0.31666 0.98063 0.19900
N 	N 	0.61754 0.27674 0.98136 -0.13700
C 	C 	0.70381 0.28583 0.49594 0.18300
N 	N 	0.75820 0.37509 0.49562 -0.13400
C 	C 	0.72307 0.40778 0.49933 0.19800
N 	N 	0.63374 0.35202 0.50239 -0.11900
C 	C 	0.58222 0.26206 0.50642 0.19600
N 	N 	0.61695 0.22886 0.50294 -0.11500
Co	Co	0.91516 0.91810 0.12734 1.20000
C 	C 	0.95042 0.74212 0.06492 0.38300
Co	Co	0.87854 0.04998 0.12517 1.18000
O 	O 	0.94233 0.02387 0.10963 -0.75100
O 	O 	0.92927 0.82272 0.13728 -0.41500
C 	C 	0.72371 0.87624 0.10191 0.34100
O 	O 	0.75453 0.96143 0.09130 -0.35300
O 	O 	0.77197 0.85454 0.10188 -0.35000
C 	C 	0.87546 0.15462 0.03831 0.36000
O 	O 	0.89886 0.16028 0.07540 -0.37100
O 	O 	0.89840 0.11650 0.03154 -0.36200
O 	O 	0.92056 0.77726 0.06899 -0.37500
Co	Co	0.93069 0.90455 0.63808 1.19600
C 	C 	0.91920 0.72574 0.54856 0.34300
Co	Co	0.90386 0.05025 0.62935 1.17500
O 	O 	0.94579 0.00525 0.61145 -0.75300
O 	O 	0.93101 0.79961 0.64758 -0.41500
O 	O 	0.98177 0.94851 0.58412 -0.55600
C 	C 	0.75257 0.84981 0.64222 0.35900
O 	O 	0.80582 0.92050 0.65697 -0.40100
O 	O 	0.78816 0.83227 0.62985 -0.35700
C 	C 	0.85001 0.10101 0.53863 0.33500
O 	O 	0.81588 0.04216 0.57153 -0.38400
O 	O 	0.92070 0.11706 0.53270 -0.32500
O 	O 	0.98678 0.79615 0.52924 -0.36900
O 	O 	0.90709 0.73003 0.57866 -0.33100
C 	C 	0.88932 0.91094 0.78782 -0.02500
C 	C 	0.89685 0.90163 0.75644 0.01300
C 	C 	0.96381 0.96360 0.85255 0.06000
C 	C 	0.90380 0.88552 0.87819 -0.04300
C 	C 	0.90257 0.89197 0.91245 0.03100
C 	C 	0.97162 0.97389 0.92513 -0.01000
C 	C 	0.83234 0.81343 0.93540 0.12000
C 	C 	0.79995 0.88148 0.78693 0.10900
N 	N 	0.77596 0.75053 0.95374 -0.08500
N 	N 	0.72832 0.85784 0.78616 -0.08500
H 	H 	0.83451 0.86599 0.73403 0.07200
H 	H 	0.85887 0.81970 0.87174 0.07500
C 	C 	0.89080 0.89071 0.30311 -0.05300
C 	C 	0.98293 0.95742 0.32005 0.09400
C 	C 	0.87038 0.87537 0.26630 0.04000
C 	C 	0.81669 0.83797 0.32327 0.13100
N 	N 	0.75739 0.79575 0.33946 -0.08100
H 	H 	0.79884 0.82590 0.25272 0.06800
C 	C 	0.57674 0.67361 0.70499 -0.11500
C 	C 	0.59189 0.79655 0.62772 -0.06800
C 	C 	0.65931 0.77929 0.65011 -0.13500
C 	C 	0.64884 0.71439 0.68803 0.36200
F 	F 	0.71290 0.69608 0.70992 -0.43100
H 	H 	0.56981 0.62413 0.73445 0.12200
H 	H 	0.59923 0.84652 0.59839 0.10300
C 	C 	0.57030 0.70758 0.17556 -0.11100
C 	C 	0.56223 0.81272 0.09453 -0.07200
C 	C 	0.63680 0.80549 0.11573 -0.12700
C 	C 	0.63773 0.74862 0.15561 0.35500
F 	F 	0.70756 0.73817 0.17604 -0.43800
H 	H 	0.57236 0.66510 0.20662 0.12000
H 	H 	0.55970 0.85476 0.06338 0.13200
C 	C 	0.72069 0.11652 0.49565 -0.07000
C 	C 	0.81706 0.15838 0.51105 -0.12300
C 	C 	0.87701 0.25070 0.51091 0.35500
C 	C 	0.84025 0.29502 0.50326 -0.10900
C 	C 	0.74298 0.24839 0.49383 -0.05600
C 	C 	0.68365 0.16151 0.48660 0.32100
F 	F 	0.59014 0.11962 0.47198 -0.41300
H 	H 	0.67385 0.04665 0.49363 0.10500
H 	H 	0.88743 0.36384 0.50665 0.12500
F 	F 	0.97089 0.29515 0.52170 -0.39200
C 	C 	0.81473 0.63800 0.49573 -0.07000
C 	C 	0.85842 0.63962 0.53733 -0.12300
C 	C 	0.86514 0.56803 0.56527 0.35800
C 	C 	0.83043 0.49685 0.55155 -0.10600
C 	C 	0.78565 0.49465 0.51008 -0.06300
C 	C 	0.77890 0.56618 0.48214 0.32800
F 	F 	0.73480 0.56452 0.44201 -0.40900
H 	H 	0.81127 0.69405 0.47368 0.10700
H 	H 	0.83427 0.44099 0.57355 0.11500
F 	F 	0.90872 0.56931 0.60545 -0.40000
C 	C 	0.87773 0.28920 0.99174 -0.05100
C 	C 	0.82618 0.19400 0.00489 -0.13000
C 	C 	0.72980 0.14296 0.00039 0.34800
C 	C 	0.69086 0.18550 0.99252 -0.10300
C 	C 	0.74714 0.28025 0.98689 -0.05500
C 	C 	0.83909 0.33247 0.98334 0.32800
F 	F 	0.89172 0.42461 0.97276 -0.40400
H 	H 	0.95099 0.32980 0.99263 0.13000
H 	H 	0.61829 0.14418 0.99289 0.11700
F 	F 	0.67645 0.05093 0.00919 -0.43400
C 	C 	0.87152 0.60352 0.99933 -0.08600
C 	C 	0.79610 0.51920 0.01466 -0.07100
C 	C 	0.76660 0.51035 0.04435 0.32800
C 	C 	0.81129 0.58597 0.05774 -0.06200
C 	C 	0.88778 0.67028 0.04283 -0.12700
C 	C 	0.91757 0.67857 0.01333 0.34700
F 	F 	0.99389 0.75852 0.99963 -0.43900
H 	H 	0.89386 0.61137 0.97607 0.12500
H 	H 	0.78928 0.57789 0.08119 0.11500
F 	F 	0.69459 0.42823 0.06024 -0.41900
