data_crystal

_cell_length_a 43.09783
_cell_length_b 43.12333
_cell_length_c 28.24243
_cell_angle_alpha 89.84541
_cell_angle_beta  89.99998
_cell_angle_gamma 90.00003

_symmetry_space_group_name_	'P 1'
_symmetry_space_group_name_H-M	'P 1'

loop_
_symmetry_equiv_pos_as_xyz
  x,y,z

loop_
_atom_site_label
_atom_site_type_symbol
_atom_site_fract_x
_atom_site_fract_y
_atom_site_fract_z
_atom_site_charge
C 	C 	0.54031 0.53615 0.03414 0.09800
N 	N 	0.53435 0.50853 0.01409 -0.16500
C 	C 	0.55349 0.48791 0.03481 0.09800
C 	C 	0.55972 0.45689 0.01454 -0.06400
C 	C 	0.53433 0.43931 0.99160 0.07400
C 	C 	0.59131 0.44370 0.01628 0.04700
C 	C 	0.61460 0.45557 0.98669 -0.06400
C 	C 	0.64363 0.44115 0.98485 -0.05100
C 	C 	0.64961 0.41495 0.01294 0.02500
C 	C 	0.59758 0.41806 0.04537 -0.05400
N 	N 	0.50430 0.44795 0.99396 -0.13100
C 	C 	0.53860 0.41623 0.95838 -0.05900
C 	C 	0.48938 0.43005 0.96225 0.08600
C 	C 	0.45538 0.42607 0.96279 -0.07600
C 	C 	0.44182 0.39462 0.96538 0.03400
C 	C 	0.43352 0.34665 0.00868 -0.01000
C 	C 	0.42103 0.38463 0.93037 -0.06200
C 	C 	0.40626 0.35591 0.93477 -0.02000
C 	C 	0.41209 0.33700 0.97430 -0.03500
N 	N 	0.44359 0.48192 0.94773 -0.17600
C 	C 	0.42137 0.50174 0.96220 0.09900
C 	C 	0.39816 0.48602 0.98622 -0.07400
C 	C 	0.40668 0.45511 0.98633 -0.07400
C 	C 	0.42521 0.53587 0.96270 -0.07600
C 	C 	0.39762 0.55608 0.96556 0.03600
C 	C 	0.36664 0.59354 0.00864 -0.00900
C 	C 	0.34392 0.59253 0.97305 -0.03300
C 	C 	0.34839 0.57350 0.93338 -0.02000
C 	C 	0.37509 0.55527 0.92974 -0.06200
N 	N 	0.47669 0.54604 0.99801 -0.13000
C 	C 	0.49201 0.58591 0.95192 -0.05900
C 	C 	0.49862 0.56799 0.99140 0.07400
C 	C 	0.52984 0.56584 0.01305 -0.06400
C 	C 	0.55063 0.59314 0.01261 0.05000
C 	C 	0.54092 0.62112 0.03310 -0.05600
C 	C 	0.55947 0.64760 0.02936 -0.03200
C 	C 	0.58789 0.64626 0.00530 0.01100
C 	C 	0.59796 0.61812 0.98582 -0.04300
C 	C 	0.57936 0.59166 0.98936 -0.06800
C 	C 	0.56355 0.53336 0.06779 -0.06300
C 	C 	0.57203 0.50242 0.06819 -0.06200
C 	C 	0.62664 0.40374 0.04373 -0.04000
C 	C 	0.50970 0.40993 0.94004 -0.06500
C 	C 	0.43467 0.45351 0.96238 0.10000
C 	C 	0.46463 0.57458 0.93387 -0.06500
C 	C 	0.45638 0.54983 0.96224 0.08700
C 	C 	0.39342 0.57548 0.00481 -0.05000
H 	H 	0.52509 0.50591 0.98012 0.08800
H 	H 	0.46598 0.48811 0.93712 0.09200
H 	H 	0.55156 0.66926 0.04452 0.04200
H 	H 	0.61988 0.61692 0.96714 0.03600
H 	H 	0.51882 0.62244 0.05126 0.04800
H 	H 	0.58698 0.57019 0.97329 0.04300
H 	H 	0.66123 0.44992 0.96091 0.04000
H 	H 	0.57972 0.40885 0.06846 0.04600
H 	H 	0.63108 0.38350 0.06551 0.04200
H 	H 	0.60995 0.47545 0.96425 0.04200
H 	H 	0.38996 0.34855 0.90784 0.03300
H 	H 	0.41602 0.39929 0.90011 0.04600
C 	C 	0.44836 0.37533 0.00418 -0.05100
H 	H 	0.43815 0.33224 0.03935 0.03500
H 	H 	0.36334 0.60804 0.03951 0.03500
H 	H 	0.41068 0.57618 0.03268 0.05100
H 	H 	0.37825 0.54045 0.89919 0.04500
H 	H 	0.33112 0.57274 0.90552 0.03400
H 	H 	0.57812 0.55215 0.08000 0.04900
H 	H 	0.59416 0.49378 0.08065 0.04800
H 	H 	0.55869 0.40128 0.95574 0.04200
H 	H 	0.50325 0.38848 0.92284 0.04600
H 	H 	0.38258 0.49646 0.01167 0.05900
H 	H 	0.39862 0.43817 0.01186 0.05900
H 	H 	0.50889 0.59904 0.93176 0.04300
H 	H 	0.45560 0.57927 0.89882 0.04600
H 	H 	0.46438 0.38287 0.03138 0.05000
Co	Co	0.33269 0.16019 0.99672 1.17400
Co	Co	0.29008 0.20056 0.06145 1.09700
O 	O 	0.35949 0.13057 0.95881 -0.38600
O 	O 	0.32379 0.15054 0.91610 -0.32400
O 	O 	0.35154 0.16073 0.06035 -0.42000
O 	O 	0.33065 0.22163 0.05128 -0.46700
C 	C 	0.33510 0.15532 0.09870 0.31900
C 	C 	0.34685 0.13150 0.91762 0.30300
O 	O 	0.30595 0.16410 0.10105 -0.43700
O 	O 	0.34198 0.20235 0.97807 -0.45500
C 	C 	0.34311 0.22495 0.00911 0.35000
O 	O 	0.29700 0.13496 0.01037 -0.42300
O 	O 	0.26708 0.17807 0.01145 -0.47200
C 	C 	0.26953 0.14782 0.00815 0.29700
C 	C 	0.49662 0.00355 0.53622 0.01100
C 	C 	0.51897 0.97924 0.53433 0.01100
C 	C 	0.48545 0.01686 0.49404 -0.05400
C 	C 	0.49602 0.00593 0.45004 0.01100
C 	C 	0.52984 0.96861 0.49038 -0.05400
C 	C 	0.51837 0.98159 0.44824 0.01100
H 	H 	0.54798 0.95126 0.48904 0.05000
H 	H 	0.46961 0.03634 0.49547 0.05100
C 	C 	0.52982 0.97221 0.40362 -0.01400
C 	C 	0.51731 0.98385 0.36149 0.00800
C 	C 	0.52242 0.96426 0.32187 -0.05700
C 	C 	0.53844 0.93700 0.33355 0.00800
S 	S 	0.54609 0.93803 0.39156 -0.00800
H 	H 	0.51669 0.97066 0.28583 0.04600
C 	C 	0.48624 0.01969 0.40706 -0.01300
C 	C 	0.49534 0.00767 0.36321 0.00800
C 	C 	0.47500 0.01573 0.32558 -0.05700
C 	C 	0.44976 0.03376 0.34045 0.00800
S 	S 	0.45327 0.03932 0.39883 -0.00900
H 	H 	0.47909 0.00970 0.28893 0.04500
C 	C 	0.49742 0.00076 0.62306 0.00900
C 	C 	0.48742 0.01490 0.58101 -0.01300
S 	S 	0.45416 0.03324 0.59257 -0.00900
C 	C 	0.45154 0.02442 0.65010 0.00800
C 	C 	0.47747 0.00644 0.66215 -0.05700
C 	C 	0.53104 0.96741 0.57722 -0.01300
C 	C 	0.51938 0.97689 0.62114 0.00800
C 	C 	0.52497 0.95516 0.65815 -0.05600
C 	C 	0.54031 0.92845 0.64249 0.00800
S 	S 	0.54695 0.93244 0.58441 -0.01100
H 	H 	0.51953 0.95943 0.69497 0.04600
H 	H 	0.48239 0.99896 0.69798 0.04600
Co	Co	0.67411 0.81903 0.98627 1.17500
Co	Co	0.71473 0.77614 0.92229 1.09400
O 	O 	0.64469 0.84657 0.02327 -0.37500
O 	O 	0.66479 0.81167 0.06739 -0.31600
O 	O 	0.67408 0.83635 0.92165 -0.42600
O 	O 	0.73530 0.81709 0.93060 -0.45300
C 	C 	0.66735 0.81912 0.88470 0.31800
C 	C 	0.64576 0.83470 0.06503 0.30400
O 	O 	0.67843 0.79078 0.88128 -0.44200
O 	O 	0.71630 0.82913 0.00371 -0.41900
C 	C 	0.73868 0.83028 0.97218 0.28100
O 	O 	0.64865 0.78329 0.97459 -0.44200
O 	O 	0.69190 0.75355 0.97261 -0.49100
C 	C 	0.66159 0.75585 0.97524 0.33400
Co	Co	0.16725 0.67317 0.99854 1.17600
Co	Co	0.21034 0.71325 0.06384 1.09700
O 	O 	0.13538 0.64838 0.96171 -0.38500
O 	O 	0.15589 0.68374 0.91882 -0.32200
O 	O 	0.16838 0.65363 0.06164 -0.41600
O 	O 	0.22932 0.67227 0.04972 -0.46300
C 	C 	0.16306 0.66973 0.10026 0.31700
C 	C 	0.13586 0.66157 0.92087 0.30400
O 	O 	0.17388 0.69813 0.10424 -0.43500
O 	O 	0.20837 0.66192 0.97733 -0.44800
C 	C 	0.23225 0.66194 0.00624 0.34900
O 	O 	0.14411 0.70977 0.01462 -0.42500
O 	O 	0.18830 0.73816 0.01530 -0.47200
C 	C 	0.15796 0.73674 0.01193 0.29700
C 	C 	0.97978 0.54418 0.53861 0.01100
C 	C 	0.95463 0.52282 0.53635 0.01100
C 	C 	0.99290 0.55589 0.49668 -0.05400
C 	C 	0.98172 0.54597 0.45247 0.01100
C 	C 	0.94302 0.51341 0.49219 -0.05400
C 	C 	0.95685 0.52426 0.45022 0.01100
H 	H 	0.92287 0.49843 0.49047 0.05000
H 	H 	0.01178 0.57242 0.49843 0.05100
C 	C 	0.94614 0.51451 0.40533 -0.01300
C 	C 	0.96142 0.52347 0.36355 0.00900
C 	C 	0.95685 0.50245 0.32545 -0.05600
C 	C 	0.93877 0.47685 0.33815 0.00900
S 	S 	0.92812 0.48090 0.39467 -0.01000
H 	H 	0.96576 0.50609 0.29004 0.04700
C 	C 	0.99442 0.55737 0.40969 -0.01300
C 	C 	0.98559 0.54511 0.36578 0.00900
C 	C 	0.00821 0.54956 0.32973 -0.05600
C 	C 	0.03489 0.56455 0.34613 0.00900
S 	S 	0.02985 0.57257 0.40349 -0.01000
H 	H 	0.00470 0.54341 0.29300 0.04700
C 	C 	0.97869 0.54087 0.62531 0.00800
C 	C 	0.99219 0.55162 0.58344 -0.01300
S 	S 	0.01374 0.58255 0.59654 -0.00900
C 	C 	0.00712 0.58317 0.65495 0.00700
C 	C 	0.98730 0.55832 0.66574 -0.05700
C 	C 	0.94089 0.51261 0.57913 -0.01300
C 	C 	0.95306 0.52115 0.62336 0.00800
C 	C 	0.94480 0.50042 0.66040 -0.05800
C 	C 	0.92724 0.47527 0.64438 0.00800
S 	S 	0.92134 0.47946 0.58630 -0.01000
H 	H 	0.95294 0.50260 0.69651 0.04500
H 	H 	0.97986 0.55279 0.70139 0.04600
Co	Co	0.82620 0.33582 0.99083 1.17500
Co	Co	0.78375 0.29589 0.92486 1.09400
O 	O 	0.85272 0.36533 0.02934 -0.37600
O 	O 	0.81880 0.34273 0.07251 -0.31700
O 	O 	0.84354 0.33808 0.92627 -0.42600
O 	O 	0.82536 0.27640 0.93171 -0.46200
C 	C 	0.82602 0.34436 0.88933 0.31900
C 	C 	0.84117 0.36257 0.07106 0.30200
O 	O 	0.79726 0.33426 0.88747 -0.43900
O 	O 	0.83755 0.29352 0.00583 -0.42600
C 	C 	0.83849 0.27192 0.97314 0.31100
O 	O 	0.78927 0.35998 0.98084 -0.43600
O 	O 	0.76112 0.31576 0.97774 -0.48200
C 	C 	0.76238 0.34595 0.98309 0.30800
C 	C 	0.04838 0.95951 0.93866 0.09900
N 	N 	0.04102 0.98847 0.95244 -0.17300
C 	C 	0.06257 0.00739 0.93350 0.10000
C 	C 	0.06800 0.03925 0.95110 -0.08200
C 	C 	0.04142 0.05980 0.96181 0.09900
C 	C 	0.09996 0.05123 0.95591 0.04000
C 	C 	0.11961 0.03941 0.99119 -0.06500
C 	C 	0.14878 0.05273 0.99864 -0.05600
C 	C 	0.15855 0.07780 0.97059 0.02600
C 	C 	0.11008 0.07574 0.92705 -0.05300
N 	N 	0.01233 0.05439 0.94623 -0.12800
C 	C 	0.04181 0.08270 0.99604 -0.10200
C 	C 	0.99428 0.07441 0.97037 0.06600
C 	C 	0.96001 0.07442 0.96795 -0.06900
C 	C 	0.94317 0.10405 0.97279 0.03000
C 	C 	0.92912 0.15447 0.94122 -0.02200
C 	C 	0.92487 0.10967 0.01291 -0.05100
C 	C 	0.90868 0.13764 0.01716 -0.01100
C 	C 	0.91063 0.16011 0.98120 -0.03300
N 	N 	0.95243 0.01727 0.96802 -0.17100
C 	C 	0.92793 0.99827 0.96190 0.09500
C 	C 	0.90261 0.01463 0.94486 -0.06400
C 	C 	0.91225 0.04506 0.94030 -0.06300
C 	C 	0.92691 0.96598 0.98028 -0.07000
C 	C 	0.89729 0.94878 0.98119 0.02500
C 	C 	0.85779 0.91921 0.94003 -0.03900
C 	C 	0.84333 0.91244 0.98333 0.00400
C 	C 	0.85577 0.92421 0.02556 -0.02900
C 	C 	0.88244 0.94268 0.02440 -0.04300
N 	N 	0.98159 0.95332 0.96108 -0.12600
C 	C 	0.98948 0.91311 0.01063 -0.05100
C 	C 	0.00173 0.93114 0.97463 0.07700
C 	C 	0.03479 0.93138 0.96072 -0.07800
C 	C 	0.05354 0.90292 0.96583 0.05100
C 	C 	0.04663 0.87673 0.93845 -0.06500
C 	C 	0.06382 0.84951 0.94417 -0.03100
C 	C 	0.08801 0.84830 0.97733 -0.00300
C 	C 	0.09489 0.87449 0.00477 -0.00200
C 	C 	0.07779 0.90177 0.99887 -0.09500
C 	C 	0.07484 0.95978 0.91084 -0.06400
C 	C 	0.08396 0.99045 0.90756 -0.06500
C 	C 	0.13928 0.08896 0.93435 -0.04600
C 	C 	0.01151 0.09214 0.00140 -0.02100
C 	C 	0.94301 0.04578 0.95482 0.09500
C 	C 	0.96010 0.92437 0.01900 -0.05000
C 	C 	0.95625 0.94908 0.98824 0.07400
C 	C 	0.88478 0.93714 0.93900 -0.05100
H 	H 	0.02822 0.99364 0.98285 0.09200
H 	H 	0.97064 0.01299 0.99158 0.09200
H 	H 	0.05835 0.82935 0.92293 0.03800
H 	H 	0.11349 0.87369 0.03054 0.03300
H 	H 	0.02792 0.87747 0.91286 0.04700
H 	H 	0.08322 0.92190 0.02018 0.06000
H 	H 	0.16353 0.04400 0.02673 0.05100
H 	H 	0.09510 0.08488 0.89957 0.04500
H 	H 	0.14667 0.10830 0.91255 0.04100
H 	H 	0.11198 0.02042 0.01354 0.05300
H 	H 	0.89457 0.14180 0.04824 0.03500
H 	H 	0.92314 0.09237 0.04067 0.04500
C 	C 	0.94540 0.12660 0.93713 -0.05900
H 	H 	0.93060 0.17156 0.91311 0.03400
H 	H 	0.84838 0.91016 0.90729 0.03900
H 	H 	0.89616 0.94173 0.90550 0.04500
H 	H 	0.89195 0.95164 0.05713 0.04200
H 	H 	0.84484 0.91894 0.05918 0.04100
H 	H 	0.09006 0.94014 0.90537 0.04600
H 	H 	0.10731 0.99798 0.89932 0.04700
H 	H 	0.05980 0.08558 0.02242 0.06400
H 	H 	0.00237 0.10371 0.03238 0.03900
H 	H 	0.87865 0.00747 0.94843 0.04500
H 	H 	0.89678 0.06483 0.93962 0.04500
H 	H 	0.99846 0.89104 0.02278 0.04800
H 	H 	0.94171 0.91186 0.03681 0.04600
H 	H 	0.95951 0.12240 0.90605 0.04700
C 	C 	0.89254 0.18909 0.98457 0.06200
C 	C 	0.86009 0.18795 0.98677 -0.09700
C 	C 	0.84273 0.21525 0.98499 0.04500
C 	C 	0.85754 0.24408 0.98071 -0.14800
C 	C 	0.89044 0.24551 0.97972 0.15300
C 	C 	0.90766 0.21787 0.98231 -0.13000
H 	H 	0.81763 0.21396 0.98576 0.00100
H 	H 	0.93280 0.21872 0.98127 0.06200
H 	H 	0.84826 0.16580 0.98858 0.04800
N 	N 	0.90554 0.27308 0.97516 -0.20800
H 	H 	0.89354 0.29396 0.97155 0.09400
H 	H 	0.92978 0.27381 0.97467 0.08500
C 	C 	0.87859 0.41582 0.73871 0.05000
N 	N 	0.87727 0.44718 0.74402 -0.10900
C 	C 	0.89202 0.46666 0.71341 0.02100
C 	C 	0.90892 0.45464 0.67516 -0.01200
C 	C 	0.90939 0.42258 0.66793 -0.02000
C 	C 	0.89421 0.40304 0.69979 -0.05800
H 	H 	0.89080 0.49146 0.71900 0.03200
H 	H 	0.92210 0.41280 0.63844 0.03600
H 	H 	0.89495 0.37815 0.69474 0.04300
C 	C 	0.83931 0.36119 0.84872 -0.11900
C 	C 	0.87017 0.35617 0.83531 0.03800
C 	C 	0.88293 0.37335 0.79829 -0.08500
C 	C 	0.86472 0.39558 0.77494 0.06600
N 	N 	0.83469 0.40009 0.78838 -0.12000
C 	C 	0.82164 0.38327 0.82409 0.07000
H 	H 	0.88425 0.33913 0.85364 0.02900
H 	H 	0.90699 0.36993 0.78846 0.05100
H 	H 	0.79778 0.38761 0.83409 0.02500
C 	C 	0.89444 0.42238 0.23279 0.05100
N 	N 	0.92596 0.42311 0.23651 -0.10700
C 	C 	0.94041 0.43964 0.27105 0.02200
C 	C 	0.92297 0.45671 0.30373 -0.01200
C 	C 	0.89053 0.45600 0.30095 -0.01900
C 	C 	0.87617 0.43885 0.26532 -0.05700
H 	H 	0.96551 0.43992 0.27265 0.03400
H 	H 	0.87654 0.46942 0.32529 0.03700
H 	H 	0.85113 0.43917 0.26205 0.04400
C 	C 	0.85462 0.37744 0.11339 -0.10600
C 	C 	0.84155 0.37266 0.15825 0.03400
C 	C 	0.85439 0.38733 0.19765 -0.08100
C 	C 	0.88009 0.40696 0.19178 0.06700
N 	N 	0.89265 0.41104 0.14796 -0.11600
C 	C 	0.88052 0.39697 0.10907 0.06900
H 	H 	0.82161 0.35765 0.16265 0.03500
H 	H 	0.84463 0.38327 0.23247 0.05100
H 	H 	0.89104 0.40099 0.07479 0.03700
C 	C 	0.13989 0.76494 0.00148 -0.04900
C 	C 	0.10961 0.76806 0.01896 -0.01600
C 	C 	0.09277 0.79514 0.01035 -0.01900
C 	C 	0.10584 0.81940 0.98386 -0.04200
C 	C 	0.13612 0.81608 0.96488 0.08300
C 	C 	0.15304 0.78892 0.97441 -0.06600
H 	H 	0.06958 0.79745 0.02474 0.03900
H 	H 	0.17625 0.78630 0.96017 0.05000
H 	H 	0.09929 0.74971 0.03996 0.04600
N 	N 	0.14884 0.83857 0.93711 -0.19700
H 	H 	0.13633 0.85830 0.92731 0.08500
H 	H 	0.17141 0.83614 0.92408 0.08000
C 	C 	0.08727 0.62704 0.80089 0.06600
N 	N 	0.10052 0.65572 0.79994 -0.11800
C 	C 	0.11671 0.66690 0.83766 0.06900
C 	C 	0.11968 0.64905 0.87904 -0.10900
C 	C 	0.10607 0.61958 0.88070 0.03500
C 	C 	0.08979 0.60853 0.84163 -0.08200
H 	H 	0.12681 0.68986 0.83574 0.03200
H 	H 	0.10792 0.60534 0.91223 0.03300
H 	H 	0.07876 0.58598 0.84324 0.05100
C 	C 	0.02993 0.59513 0.68891 -0.01200
C 	C 	0.05372 0.57600 0.70576 -0.02000
C 	C 	0.07333 0.58667 0.74139 -0.05800
C 	C 	0.06877 0.61640 0.76023 0.05100
N 	N 	0.04626 0.63515 0.74196 -0.10800
C 	C 	0.02693 0.62518 0.70700 0.02100
H 	H 	0.05665 0.55279 0.69187 0.03700
H 	H 	0.09162 0.57182 0.75481 0.04400
H 	H 	0.00883 0.64040 0.69399 0.03300
C 	C 	0.11121 0.62793 0.21177 0.06800
N 	N 	0.10787 0.61826 0.16619 -0.11700
C 	C 	0.12404 0.63159 0.13012 0.07300
C 	C 	0.14503 0.65572 0.13928 -0.11500
C 	C 	0.14888 0.66594 0.18597 0.03800
C 	C 	0.13204 0.65195 0.22240 -0.08500
H 	H 	0.12048 0.62348 0.09428 0.03200
H 	H 	0.16518 0.68429 0.19413 0.02100
H 	H 	0.13547 0.65936 0.25864 0.05000
C 	C 	0.05656 0.58127 0.31489 -0.01200
C 	C 	0.05865 0.61366 0.31626 -0.01900
C 	C 	0.07731 0.62916 0.28351 -0.05700
C 	C 	0.09386 0.61206 0.24965 0.05100
N 	N 	0.09169 0.58053 0.24922 -0.10700
C 	C 	0.07368 0.56497 0.28093 0.02200
H 	H 	0.04517 0.62683 0.34157 0.03700
H 	H 	0.07816 0.65426 0.28349 0.04400
H 	H 	0.07228 0.53992 0.27926 0.03400
C 	C 	0.76535 0.85078 0.98019 -0.06600
C 	C 	0.79549 0.83964 0.97311 -0.00700
C 	C 	0.82079 0.85975 0.97580 -0.04300
C 	C 	0.81627 0.89144 0.98460 -0.02400
C 	C 	0.78580 0.90285 0.99240 0.06500
C 	C 	0.76060 0.88215 0.99096 -0.04000
H 	H 	0.84399 0.85082 0.97002 0.03700
H 	H 	0.73721 0.89073 0.99632 0.04500
H 	H 	0.79930 0.81540 0.96498 0.01600
N 	N 	0.78052 0.93355 0.00001 -0.18200
H 	H 	0.79845 0.94979 0.99897 0.07800
H 	H 	0.75802 0.94160 0.00630 0.08700
C 	C 	0.59368 0.87405 0.73828 0.05000
N 	N 	0.56247 0.87730 0.74412 -0.10800
C 	C 	0.54496 0.89385 0.71291 0.02100
C 	C 	0.55892 0.90846 0.67397 -0.01200
C 	C 	0.59097 0.90524 0.66719 -0.01900
C 	C 	0.60842 0.88798 0.69937 -0.05700
H 	H 	0.52022 0.89605 0.71874 0.03200
H 	H 	0.60247 0.91681 0.63799 0.03700
H 	H 	0.63333 0.88624 0.69497 0.04400
C 	C 	0.64779 0.83194 0.84659 -0.11900
C 	C 	0.65211 0.82272 0.79954 0.03900
C 	C 	0.63419 0.83611 0.76380 -0.08700
C 	C 	0.61209 0.85873 0.77545 0.06700
N 	N 	0.60760 0.86671 0.82157 -0.11900
C 	C 	0.62488 0.85401 0.85697 0.07300
H 	H 	0.66956 0.80563 0.79059 0.01900
H 	H 	0.63751 0.82907 0.72735 0.05000
H 	H 	0.62073 0.86101 0.89321 0.02600
C 	C 	0.59178 0.89248 0.22759 0.05200
N 	N 	0.56759 0.87751 0.24875 -0.10700
C 	C 	0.55095 0.89103 0.28412 0.02200
C 	C 	0.55853 0.92090 0.29961 -0.01200
C 	C 	0.58417 0.93605 0.27987 -0.01900
C 	C 	0.60097 0.92179 0.24386 -0.05800
H 	H 	0.53138 0.87885 0.29940 0.03400
H 	H 	0.59065 0.95903 0.29174 0.03700
H 	H 	0.62061 0.93361 0.22808 0.04500
C 	C 	0.63304 0.85034 0.10714 -0.10600
C 	C 	0.62299 0.88117 0.10435 0.03600
C 	C 	0.60996 0.89529 0.14392 -0.08100
C 	C 	0.60705 0.87846 0.18625 0.06700
N 	N 	0.61679 0.84842 0.18831 -0.11700
C 	C 	0.62981 0.83423 0.15012 0.06900
H 	H 	0.62514 0.89413 0.07160 0.03600
H 	H 	0.60168 0.91896 0.14153 0.05200
H 	H 	0.63717 0.81029 0.15295 0.03300
C 	C 	0.24170 0.12872 0.00008 -0.04800
C 	C 	0.21334 0.13732 0.02048 -0.01700
C 	C 	0.18659 0.12012 0.01151 -0.01700
C 	C 	0.18769 0.09413 0.98183 -0.05200
C 	C 	0.21638 0.08490 0.96168 0.08800
C 	C 	0.24325 0.10234 0.97117 -0.06300
H 	H 	0.16478 0.12722 0.02721 0.03500
H 	H 	0.26518 0.09568 0.95536 0.05700
H 	H 	0.21201 0.15742 0.04332 0.02300
N 	N 	0.21825 0.05958 0.93316 -0.19800
H 	H 	0.19880 0.04603 0.92563 0.08600
H 	H 	0.23947 0.05310 0.91827 0.08400
C 	C 	0.38874 0.09072 0.79620 0.06600
N 	N 	0.40159 0.08728 0.83996 -0.11800
C 	C 	0.38852 0.10018 0.87907 0.06800
C 	C 	0.36129 0.11785 0.87507 -0.10900
C 	C 	0.34786 0.12194 0.83029 0.03400
C 	C 	0.36168 0.10848 0.79066 -0.08200
H 	H 	0.39930 0.09668 0.91328 0.03200
H 	H 	0.32686 0.13548 0.82615 0.03400
H 	H 	0.35162 0.11203 0.75592 0.05100
C 	C 	0.43476 0.04384 0.68436 -0.01200
C 	C 	0.40239 0.04264 0.68688 -0.02000
C 	C 	0.38691 0.05887 0.72244 -0.05800
C 	C 	0.40405 0.07651 0.75497 0.05000
N 	N 	0.43553 0.07800 0.75109 -0.10800
C 	C 	0.45105 0.06240 0.71662 0.02100
H 	H 	0.38934 0.02848 0.66229 0.03600
H 	H 	0.36194 0.05695 0.72564 0.04400
H 	H 	0.47609 0.06403 0.71473 0.03300
C 	C 	0.38206 0.11173 0.21272 0.06700
N 	N 	0.35444 0.10039 0.19678 -0.11800
C 	C 	0.33836 0.11484 0.16154 0.07200
C 	C 	0.35021 0.14180 0.14048 -0.11800
C 	C 	0.37776 0.15458 0.15781 0.03900
C 	C 	0.39353 0.13981 0.19453 -0.08500
H 	H 	0.31686 0.10482 0.14891 0.02600
H 	H 	0.38705 0.17573 0.14259 0.02700
H 	H 	0.41475 0.14982 0.20825 0.05100
C 	C 	0.43311 0.05546 0.30901 -0.01200
C 	C 	0.44881 0.07099 0.27257 -0.01900
C 	C 	0.43236 0.08980 0.24132 -0.05700
C 	C 	0.40026 0.09366 0.24737 0.05100
N 	N 	0.38544 0.07873 0.28349 -0.10800
C 	C 	0.40110 0.06006 0.31428 0.02200
H 	H 	0.47364 0.06827 0.26820 0.03600
H 	H 	0.44433 0.10076 0.21200 0.04500
H 	H 	0.38856 0.04832 0.34230 0.03400
C 	C 	0.39459 0.30789 0.98097 0.06600
C 	C 	0.36224 0.30869 0.98565 -0.10200
C 	C 	0.34569 0.28145 0.99424 0.05500
C 	C 	0.36123 0.25301 0.99846 -0.17000
C 	C 	0.39402 0.25199 0.99395 0.16200
C 	C 	0.41037 0.27953 0.98447 -0.13500
H 	H 	0.32068 0.28245 0.99793 -0.00300
H 	H 	0.43541 0.27896 0.98075 0.06300
H 	H 	0.34993 0.33055 0.98322 0.05100
N 	N 	0.40993 0.22499 0.99989 -0.21600
H 	H 	0.39881 0.20453 0.01003 0.10600
H 	H 	0.43401 0.22444 0.99556 0.08500
C 	C 	0.31518 0.61088 0.97787 0.06400
C 	C 	0.28627 0.59600 0.97841 -0.09800
C 	C 	0.25918 0.61307 0.98566 0.05800
C 	C 	0.26062 0.64520 0.99286 -0.16200
C 	C 	0.28965 0.66060 0.99052 0.14500
C 	C 	0.31679 0.64317 0.98331 -0.13000
H 	H 	0.23706 0.60115 0.98711 0.02200
H 	H 	0.33911 0.65473 0.98189 0.06000
H 	H 	0.28486 0.57107 0.97419 0.05400
N 	N 	0.29156 0.69199 0.99433 -0.20800
H 	H 	0.27171 0.70579 0.99655 0.05000
H 	H 	0.31314 0.70304 0.99372 0.07400
C 	C 	0.73374 0.36381 0.99130 -0.09100
C 	C 	0.70562 0.35366 0.97179 0.00700
C 	C 	0.67839 0.37038 0.97936 -0.06100
C 	C 	0.67876 0.39746 0.00672 -0.01300
C 	C 	0.70701 0.40775 0.02711 0.07000
C 	C 	0.73441 0.39089 0.01877 -0.02000
H 	H 	0.65690 0.36239 0.96366 0.03900
H 	H 	0.75608 0.39857 0.03432 0.05300
H 	H 	0.70491 0.33292 0.95024 0.01400
N 	N 	0.70792 0.43339 0.05505 -0.19400
H 	H 	0.68784 0.44572 0.06348 0.08800
H 	H 	0.72894 0.44100 0.06938 0.08600
C 	C 	0.60619 0.67466 0.99798 0.02900
C 	C 	0.63144 0.68119 0.02747 -0.07500
C 	C 	0.64940 0.70767 0.01969 0.05700
C 	C 	0.64247 0.72786 0.98207 -0.16400
C 	C 	0.61723 0.72101 0.95149 0.14800
C 	C 	0.59888 0.69471 0.96051 -0.12000
H 	H 	0.66868 0.71261 0.04311 0.02500
H 	H 	0.57944 0.68940 0.93753 0.05900
H 	H 	0.63716 0.66571 0.05647 0.05100
N 	N 	0.61119 0.73881 0.91271 -0.21000
H 	H 	0.62624 0.75638 0.90189 0.09900
H 	H 	0.59183 0.73422 0.89156 0.08600
