data_crystal

_cell_length_a 23.27117
_cell_length_b 23.35931
_cell_length_c 26.63141
_cell_angle_alpha 95.49715
_cell_angle_beta  95.49911
_cell_angle_gamma 125.95860

_symmetry_space_group_name_	'P 1'
_symmetry_space_group_name_H-M	'P 1'

loop_
_symmetry_equiv_pos_as_xyz
  x,y,z

loop_
_atom_site_label
_atom_site_type_symbol
_atom_site_fract_x
_atom_site_fract_y
_atom_site_fract_z
_atom_site_charge
C 	C 	0.96427 0.03423 0.99171 0.11000
C 	C 	0.06437 0.03619 0.97971 0.10900
N 	N 	0.03491 0.07161 0.98720 -0.12900
C 	C 	0.04080 0.01509 0.45940 0.12600
N 	N 	0.00465 0.04380 0.45394 -0.12800
Cu	Cu	0.63165 0.23029 0.00661 0.93000
Cu	Cu	0.68800 0.23304 0.89810 0.87100
Cu	Cu	0.66830 0.34130 0.93876 0.89900
Cu	Cu	0.63918 0.36714 0.04153 0.89800
C 	C 	0.65577 0.28575 0.11386 0.30400
O 	O 	0.52719 0.19186 0.00700 -0.34400
C 	C 	0.65292 0.29716 0.82754 0.30000
O 	O 	0.69262 0.34233 0.00998 -0.63800
O 	O 	0.62031 0.23607 0.93313 -0.64100
O 	O 	0.67508 0.17766 0.00297 -0.36000
O 	O 	0.75527 0.25288 0.95598 -0.43700
O 	O 	0.62470 0.31586 0.10040 -0.37400
O 	O 	0.72219 0.44464 0.94720 -0.37300
C 	C 	0.72035 0.48690 0.98272 0.29300
C 	C 	0.50112 0.22415 0.98832 0.29600
O 	O 	0.54536 0.29092 0.98203 -0.39400
O 	O 	0.68501 0.46274 0.02093 -0.38700
O 	O 	0.65811 0.24275 0.07954 -0.34600
C 	C 	0.73616 0.20588 0.98627 0.28400
O 	O 	0.65156 0.33855 0.86428 -0.36000
O 	O 	0.64516 0.23839 0.83562 -0.41400
H 	H 	0.74509 0.37315 0.02430 0.17000
H 	H 	0.57007 0.20519 0.91352 0.17700
Cu	Cu	0.73851 0.33572 0.43778 0.92900
Cu	Cu	0.73694 0.28160 0.54710 0.87100
Cu	Cu	0.62964 0.30356 0.50711 0.89900
Cu	Cu	0.60332 0.33215 0.40420 0.89700
C 	C 	0.68165 0.31143 0.33065 0.30400
O 	O 	0.77990 0.44030 0.43644 -0.34900
C 	C 	0.67543 0.31977 0.61813 0.30000
O 	O 	0.62655 0.27769 0.43572 -0.64000
O 	O 	0.73470 0.34912 0.51155 -0.63900
O 	O 	0.78930 0.29035 0.44106 -0.36500
O 	O 	0.71461 0.21280 0.48958 -0.43700
O 	O 	0.65245 0.34343 0.34430 -0.37500
O 	O 	0.52626 0.25191 0.49980 -0.37100
C 	C 	0.48383 0.25252 0.46343 0.29400
C 	C 	0.74917 0.46846 0.45474 0.28200
O 	O 	0.68270 0.42591 0.46259 -0.39200
O 	O 	0.50929 0.29093 0.42694 -0.39000
O 	O 	0.72386 0.30769 0.36483 -0.34800
C 	C 	0.76068 0.23004 0.45860 0.28800
O 	O 	0.63438 0.32222 0.58171 -0.36000
O 	O 	0.73366 0.32622 0.60959 -0.41400
H 	H 	0.59441 0.22529 0.42173 0.16900
H 	H 	0.76677 0.39948 0.53063 0.17700
C 	C 	0.59446 0.25672 0.73541 -0.03600
C 	C 	0.65187 0.31065 0.77467 -0.08500
C 	C 	0.71239 0.37273 0.76203 0.11900
C 	C 	0.71745 0.37759 0.71041 -0.03600
C 	C 	0.66241 0.32114 0.67113 -0.08500
C 	C 	0.59934 0.26174 0.68379 0.11900
Br	Br	0.52123 0.18468 0.63124 -0.25700
H 	H 	0.54713 0.20950 0.74495 0.06400
H 	H 	0.76545 0.42410 0.70086 0.06400
Br	Br	0.79078 0.44948 0.81459 -0.25800
C 	C 	0.62320 0.23492 0.24383 -0.04000
C 	C 	0.68320 0.29799 0.27593 -0.08100
C 	C 	0.73905 0.35242 0.25421 0.12800
C 	C 	0.73214 0.34536 0.20073 -0.04100
C 	C 	0.66976 0.28452 0.16861 -0.08000
C 	C 	0.61614 0.22798 0.19034 0.12700
Br	Br	0.53086 0.14278 0.14765 -0.22500
H 	H 	0.58042 0.19258 0.26039 0.05600
H 	H 	0.77387 0.38869 0.18419 0.05600
Br	Br	0.82319 0.43867 0.29693 -0.23500
C 	C 	0.78430 0.54618 0.45836 -0.08200
H 	H 	0.84552 0.55859 0.39857 0.05600
H 	H 	0.73016 0.55200 0.51819 0.03700
C 	C 	0.83642 0.10230 0.43952 0.03600
C 	C 	0.87970 0.17405 0.43274 -0.06600
C 	C 	0.85375 0.21499 0.43634 0.01600
C 	C 	0.89433 0.03309 0.44527 -0.02800
C 	C 	0.73975 0.11139 0.45115 0.01500
C 	C 	0.76590 0.07065 0.44765 -0.06700
C 	C 	0.86652 0.06323 0.44218 -0.00700
C 	C 	0.78426 0.18443 0.44694 -0.09100
H 	H 	0.93418 0.19877 0.42612 0.05200
H 	H 	0.88863 0.27105 0.43275 0.03900
H 	H 	0.68551 0.08662 0.45830 0.03300
H 	H 	0.73188 0.01504 0.45247 0.05100
C 	C 	0.25865 0.13722 0.46729 0.03800
C 	C 	0.29733 0.11437 0.48929 -0.06100
C 	C 	0.37110 0.15254 0.48871 0.02000
C 	C 	0.11752 0.05930 0.46261 -0.02700
C 	C 	0.36792 0.23743 0.44487 0.01800
C 	C 	0.29416 0.19910 0.44548 -0.06300
C 	C 	0.18192 0.09531 0.46499 0.00100
C 	C 	0.40670 0.21391 0.46600 -0.08100
H 	H 	0.27009 0.06650 0.50623 0.05700
H 	H 	0.40022 0.13370 0.50508 0.04700
H 	H 	0.39484 0.28529 0.42795 0.03900
H 	H 	0.26453 0.21715 0.42856 0.05500
C 	C 	0.86171 0.12755 0.00424 0.02900
C 	C 	0.89533 0.19962 0.00028 -0.05500
C 	C 	0.85510 0.22640 0.99739 0.00800
C 	C 	0.93146 0.07030 0.99704 -0.03800
C 	C 	0.74792 0.10980 0.00466 0.01800
C 	C 	0.78833 0.08317 0.00762 -0.06300
C 	C 	0.90082 0.09753 0.00083 0.00300
C 	C 	0.78065 0.18105 0.99807 -0.09200
H 	H 	0.95218 0.23446 0.99815 0.04400
H 	H 	0.88141 0.28187 0.99331 0.03400
H 	H 	0.69070 0.07425 0.00547 0.03900
H 	H 	0.76207 0.02746 0.01105 0.05200
C 	C 	0.28753 0.13744 0.97734 -0.00500
C 	C 	0.23417 0.07711 0.93991 -0.02700
C 	C 	0.16121 0.04649 0.93881 -0.03900
C 	C 	0.42540 0.19147 0.98362 -0.09900
C 	C 	0.19478 0.13819 0.01144 -0.02200
C 	C 	0.26781 0.16877 0.01249 -0.02800
C 	C 	0.36241 0.16631 0.98046 0.04900
C 	C 	0.14102 0.07587 0.97533 -0.00800
H 	H 	0.24904 0.05315 0.91222 0.04300
H 	H 	0.17997 0.16131 0.03987 0.04900
H 	H 	0.30888 0.21591 0.04124 0.04600
C 	C 	0.75837 0.56346 0.97945 -0.08800
C 	C 	0.83092 0.58443 0.42480 0.01400
C 	C 	0.76557 0.58060 0.49180 0.01300
H 	H 	0.68745 0.57538 0.01843 0.03600
H 	H 	0.83804 0.56974 0.93934 0.04700
C 	C 	0.93173 0.00150 0.44971 0.11000
H 	H 	0.12027 0.99889 0.91037 0.06200
N 	N 	0.92349 0.96191 0.98899 -0.12900
C 	C 	0.95291 0.92676 0.98161 0.12300
N 	N 	0.02312 0.96379 0.97691 -0.12200
N 	N 	0.89481 0.93008 0.45084 -0.12700
C 	C 	0.93134 0.90148 0.45626 0.12400
N 	N 	0.00418 0.94409 0.46053 -0.12100
C 	C 	0.83686 0.68913 0.45641 0.03500
C 	C 	0.85695 0.65555 0.42382 -0.06000
C 	C 	0.89337 0.82596 0.45634 -0.02700
C 	C 	0.79175 0.65178 0.49076 -0.06200
C 	C 	0.86594 0.76325 0.45645 -0.00000
H 	H 	0.89256 0.68444 0.39759 0.05600
H 	H 	0.77687 0.67774 0.51663 0.05300
C 	C 	0.83402 0.71051 0.97695 0.04300
C 	C 	0.77269 0.67532 0.99963 -0.07600
C 	C 	0.73488 0.60206 0.00084 0.03100
C 	C 	0.91019 0.85061 0.97963 -0.02700
C 	C 	0.81919 0.59872 0.95591 0.02300
C 	C 	0.85685 0.67200 0.95473 -0.06600
C 	C 	0.87511 0.78668 0.97821 -0.00300
H 	H 	0.75463 0.70481 0.01670 0.06000
H 	H 	0.90426 0.69898 0.93709 0.05700
