data_crystal

_cell_length_a 24.60971
_cell_length_b 21.72261
_cell_length_c 47.43447
_cell_angle_alpha 90.54811
_cell_angle_beta  91.22538
_cell_angle_gamma 110.69688

_symmetry_space_group_name_	'P 1'
_symmetry_space_group_name_H-M	'P 1'

loop_
_symmetry_equiv_pos_as_xyz
  x,y,z

loop_
_atom_site_label
_atom_site_type_symbol
_atom_site_fract_x
_atom_site_fract_y
_atom_site_fract_z
_atom_site_charge
H 	H 	0.01292 0.70999 0.55139 0.05000
C 	C 	0.01608 0.67710 0.56786 -0.05300
Ni	Ni	0.01218 0.93366 0.73440 1.09700
H 	H 	0.02121 0.02044 0.69728 0.15500
S 	S 	0.00761 0.15987 0.78922 -0.01300
C 	C 	0.00582 0.08270 0.79333 -0.06400
H 	H 	0.00396 0.84928 0.11945 0.04700
C 	C 	0.01730 0.58410 0.94385 0.00100
O 	O 	0.03643 0.87911 0.70550 -0.70900
C 	C 	0.02411 0.04729 0.77111 0.27300
O 	O 	0.01632 0.16945 0.18912 -0.40100
H 	H 	0.01463 0.74121 0.30002 0.04600
O 	O 	0.01573 0.94679 0.64989 -0.36600
H 	H 	0.00953 0.27015 0.30101 0.02700
H 	H 	0.00430 0.52112 0.90660 0.06200
C 	C 	0.01950 0.02909 0.19811 0.27500
C 	C 	0.03255 0.34530 0.14207 0.01200
C 	C 	0.01973 0.29467 0.12157 0.01000
C 	C 	0.02039 0.94257 0.16247 -0.02700
C 	C 	0.01977 0.76984 0.31938 -0.06000
C 	C 	0.02925 0.42780 0.48541 -0.09000
C 	C 	0.04770 0.65976 0.61519 0.01200
O 	O 	0.03133 0.61496 0.99127 -0.18700
Ni	Ni	0.02977 0.15022 0.23048 1.06500
C 	C 	0.02736 0.15068 0.29389 0.27000
C 	C 	0.04952 0.70177 0.59255 0.01300
O 	O 	0.04991 0.00337 0.70583 -0.69900
C 	C 	0.03643 0.49829 0.44527 0.11400
C 	C 	0.06344 0.82982 0.64498 0.27400
S 	S 	0.06738 0.70661 0.64410 -0.02400
H 	H 	0.06139 0.85647 0.71378 0.15400
O 	O 	0.04379 0.06501 0.22055 -0.41000
C 	C 	0.04512 0.98339 0.18605 -0.07200
C 	C 	0.04385 0.26332 0.31385 -0.02900
H 	H 	0.04975 0.41580 0.50394 0.06700
C 	C 	0.06824 0.76936 0.60077 -0.01700
H 	H 	0.06234 0.80644 0.58718 0.04900
C 	C 	0.04841 0.87586 0.12641 -0.05500
C 	C 	0.05414 0.20385 0.31444 -0.07200
O 	O 	0.05710 0.14384 0.27199 -0.41000
C 	C 	0.08075 0.40345 0.13989 -0.06100
C 	C 	0.05278 0.30345 0.09720 -0.05000
H 	H 	0.09128 0.44136 0.15622 0.04500
H 	H 	0.04257 0.26542 0.08094 0.04700
C 	C 	0.04530 0.86245 0.36493 -0.05600
C 	C 	0.06214 0.47113 0.46524 0.01000
C 	C 	0.07988 0.78033 0.62989 -0.06700
Ni	Ni	0.08014 0.94853 0.67861 1.09900
O 	O 	0.07979 0.06429 0.76576 -0.40500
C 	C 	0.06199 0.92730 0.14651 0.01900
C 	C 	0.07308 0.59383 0.95028 -0.05500
O 	O 	0.08559 0.94487 0.75905 -0.36900
C 	C 	0.06671 0.77835 0.33803 0.00300
H 	H 	0.05875 0.90378 0.37969 0.04900
O 	O 	0.07351 0.55701 0.43454 -0.18400
C 	C 	0.08094 0.61203 0.97845 0.04300
H 	H 	0.06380 0.39755 0.31360 0.04400
O 	O 	0.10325 0.88679 0.65259 -0.36900
S 	S 	0.08834 0.79023 0.09874 0.03300
C 	C 	0.08118 0.82612 0.35966 0.01700
C 	C 	0.09439 0.85872 0.11648 -0.00100
C 	C 	0.08999 0.31639 0.32641 0.01500
H 	H 	0.09950 0.57176 0.93889 0.05200
H 	H 	0.00584 0.06048 0.62945 0.05000
Ni	Ni	0.11114 0.07530 0.72582 1.06800
O 	O 	0.00780 0.82081 0.64704 -0.40300
C 	C 	0.10129 0.36123 0.09523 -0.00300
C 	C 	0.11399 0.41185 0.11565 0.01800
C 	C 	0.09897 0.38262 0.32126 -0.05500
S 	S 	0.12014 0.21879 0.32915 0.01700
C 	C 	0.11897 0.95680 0.15730 0.00000
S 	S 	0.11695 0.99893 0.18644 0.01700
C 	C 	0.11690 0.51279 0.46917 -0.05800
S 	S 	0.12597 0.76258 0.33050 0.02100
C 	C 	0.12415 0.56240 0.44999 0.04200
C 	C 	0.13233 0.61344 0.99514 0.25600
C 	C 	0.00749 0.59511 0.61504 -0.06800
O 	O 	0.13870 0.02660 0.65838 -0.36500
C 	C 	0.13901 0.96489 0.74943 0.27800
O 	O 	0.13390 0.62530 0.02272 -0.35200
C 	C 	0.13558 0.29795 0.33694 0.00000
S 	S 	0.13090 0.39397 0.06525 0.03000
O 	O 	0.15423 0.11249 0.68908 -0.40100
C 	C 	0.14910 0.47419 0.10557 -0.02000
H 	H 	0.15644 0.51986 0.11708 0.04500
C 	C 	0.14963 0.88312 0.12944 0.01700
C 	C 	0.13983 0.84510 0.36931 -0.02100
H 	H 	0.15139 0.50129 0.47985 0.04900
O 	O 	0.15703 0.01503 0.73232 -0.42700
C 	C 	0.15549 0.79005 0.10575 -0.07600
H 	H 	0.16242 0.95830 0.80688 0.05000
C 	C 	0.16233 0.93148 0.15087 -0.05700
C 	C 	0.15503 0.42887 0.32568 -0.00500
O 	O 	0.16461 0.70555 0.07496 -0.36100
C 	C 	0.16340 0.47150 0.07720 -0.07700
H 	H 	0.15758 0.87844 0.38706 0.04500
C 	C 	0.17476 0.07801 0.67226 0.28500
O 	O 	0.17447 0.51953 0.03136 -0.39100
O 	O 	0.17353 0.59765 0.98258 -0.40400
C 	C 	0.17134 0.81252 0.35480 -0.07500
S 	S 	0.16897 0.50715 0.33443 0.03400
C 	C 	0.18242 0.94272 0.76333 -0.07500
S 	S 	0.00612 0.31136 0.17236 -0.01800
C 	C 	0.18158 0.60233 0.43969 0.26200
C 	C 	0.18138 0.52884 0.05874 0.29900
O 	O 	0.18425 0.63483 0.41588 -0.35300
C 	C 	0.18415 0.84484 0.12347 -0.02500
C 	C 	0.18723 0.76642 0.08503 0.27200
C 	C 	0.19158 0.34402 0.34146 -0.05700
C 	C 	0.19279 0.94951 0.79259 -0.01800
O 	O 	0.19477 0.58810 0.06984 -0.39000
C 	C 	0.20016 0.41056 0.33714 0.01600
H 	H 	0.20341 0.94726 0.16254 0.04200
O 	O 	0.20894 0.73199 0.37175 -0.36600
Ni	Ni	0.20902 0.67077 0.04633 1.10000
C 	C 	0.21735 0.79494 0.36882 0.27300
H 	H 	0.22659 0.32905 0.34930 0.04400
O 	O 	0.22900 0.60224 0.45347 -0.40900
H 	H 	0.22934 0.85888 0.13016 0.01900
C 	C 	0.99335 0.84656 0.34903 -0.00000
H 	H 	0.98161 0.18640 0.12068 0.04800
C 	C 	0.98702 0.23178 0.13205 -0.01400
Ni	Ni	0.70185 0.30005 0.87559 1.10000
O 	O 	0.62594 0.24408 0.85520 -0.70400
Ni	Ni	0.56772 0.26976 0.87633 1.10000
O 	O 	0.74893 0.26129 0.85018 -0.36400
O 	O 	0.69275 0.15690 0.86230 -0.40500
O 	O 	0.70547 0.36888 0.84562 -0.38400
Ni	Ni	0.60612 0.14992 0.85910 1.06500
O 	O 	0.73488 0.39908 0.93081 -0.41000
O 	O 	0.60829 0.15440 0.90210 -0.39400
O 	O 	0.49763 0.21900 0.85150 -0.37800
O 	O 	0.64162 0.31388 0.90031 -0.70100
O 	O 	0.77804 0.36261 0.89451 -0.35000
O 	O 	0.52059 0.31931 0.89540 -0.36700
O 	O 	0.59362 0.41780 0.88951 -0.39800
Ni	Ni	0.66503 0.40715 0.91008 1.07100
H 	H 	0.62504 0.25538 0.83507 0.15400
H 	H 	0.64042 0.28949 0.91792 0.15800
C 	C 	0.56551 0.16143 0.91604 0.25800
O 	O 	0.71739 0.45132 0.87780 -0.39700
C 	C 	0.73422 0.19696 0.84705 0.27100
C 	C 	0.48757 0.15673 0.84459 0.27500
C 	C 	0.70809 0.42899 0.85172 0.29600
C 	C 	0.54059 0.38400 0.89730 0.24000
C 	C 	0.78170 0.39920 0.91759 0.26300
O 	O 	0.53674 0.19753 0.90594 -0.36500
O 	O 	0.51713 0.12359 0.85731 -0.40400
Ni	Ni	0.64117 0.33460 0.57148 1.09900
O 	O 	0.70001 0.33641 0.54148 -0.70200
Ni	Ni	0.76539 0.32673 0.56474 1.09900
O 	O 	0.59300 0.37216 0.54563 -0.35700
O 	O 	0.67387 0.45912 0.53487 -0.40500
O 	O 	0.58874 0.24156 0.55788 -0.36200
Ni	Ni	0.72828 0.41437 0.51802 1.06900
O 	O 	0.58621 0.22408 0.61387 -0.40300
O 	O 	0.79751 0.48277 0.53928 -0.39500
O 	O 	0.82799 0.34131 0.53475 -0.35700
O 	O 	0.70344 0.31736 0.59435 -0.70200
O 	O 	0.58513 0.32670 0.60334 -0.38000
O 	O 	0.81864 0.30449 0.59362 -0.36500
O 	O 	0.74714 0.20906 0.60590 -0.40600
Ni	Ni	0.66978 0.22761 0.60811 1.06400
H 	H 	0.68449 0.29763 0.52866 0.15500
H 	H 	0.71758 0.34966 0.61013 0.15500
C 	C 	0.82805 0.46930 0.55974 0.30200
O 	O 	0.64974 0.18631 0.56881 -0.39300
C 	C 	0.61705 0.42974 0.53397 0.24000
C 	C 	0.82959 0.37184 0.51048 0.25700
C 	C 	0.60767 0.19288 0.55314 0.25300
C 	C 	0.79894 0.25426 0.61060 0.27700
C 	C 	0.57088 0.27531 0.62001 0.27600
O 	O 	0.80296 0.42283 0.57758 -0.39500
O 	O 	0.78188 0.37584 0.49845 -0.40900
O 	O 	0.96871 0.85162 0.75723 -0.36400
O 	O 	0.91393 0.79860 0.71888 -0.40800
Ni	Ni	0.96903 0.81717 0.68481 1.06700
O 	O 	0.93443 0.88617 0.67306 -0.40400
O 	O 	0.98722 0.99052 0.76176 -0.37700
C 	C 	0.96221 0.93667 0.65749 0.28500
C 	C 	0.93163 0.79783 0.74520 0.27600
Ni	Ni	0.25851 0.70047 0.39905 1.10000
O 	O 	0.33211 0.75955 0.38033 -0.70600
Ni	Ni	0.39275 0.73895 0.40271 1.10100
O 	O 	0.25790 0.84020 0.38416 -0.40600
O 	O 	0.25991 0.63219 0.36926 -0.39100
Ni	Ni	0.34644 0.85285 0.38428 1.06600
O 	O 	0.34552 0.85113 0.42735 -0.39300
O 	O 	0.46099 0.79187 0.37925 -0.37200
O 	O 	0.32024 0.69211 0.42523 -0.70400
O 	O 	0.44272 0.69276 0.42236 -0.35300
O 	O 	0.37210 0.59277 0.41342 -0.41100
Ni	Ni	0.30020 0.59909 0.43362 1.06900
H 	H 	0.33331 0.74750 0.36023 0.15700
H 	H 	0.32023 0.71645 0.44296 0.15900
C 	C 	0.38939 0.84689 0.44236 0.25600
O 	O 	0.24681 0.55002 0.40077 -0.39900
C 	C 	0.46629 0.85207 0.37159 0.27300
C 	C 	0.25161 0.57054 0.37473 0.30500
C 	C 	0.42500 0.62808 0.42246 0.24000
O 	O 	0.42081 0.81350 0.43276 -0.36200
O 	O 	0.43576 0.88389 0.38407 -0.40000
Ni	Ni	0.33902 0.68297 0.04614 1.10000
O 	O 	0.26728 0.65912 0.02004 -0.70600
O 	O 	0.37993 0.63385 0.02236 -0.36800
O 	O 	0.29900 0.54038 0.02074 -0.39600
O 	O 	0.37977 0.76572 0.02291 -0.36400
Ni	Ni	0.23499 0.57129 0.00309 1.07100
O 	O 	0.40109 0.81721 0.07561 -0.40600
O 	O 	0.28442 0.70896 0.06994 -0.70400
O 	O 	0.40789 0.71432 0.07370 -0.37700
O 	O 	0.23153 0.80975 0.07255 -0.40500
Ni	Ni	0.31431 0.80438 0.07338 1.06600
H 	H 	0.27310 0.69137 0.00479 0.15800
H 	H 	0.28153 0.68883 0.08874 0.15500
O 	O 	0.31576 0.81798 0.03105 -0.39400
C 	C 	0.35429 0.57120 0.01543 0.23900
C 	C 	0.35618 0.80927 0.01574 0.25600
C 	C 	0.42277 0.77351 0.08557 0.27600
Ni	Ni	0.93256 0.03674 0.26923 1.09600
O 	O 	0.94831 0.10731 0.23919 -0.70600
Ni	Ni	0.90800 0.05265 0.20568 1.09700
O 	O 	0.97689 0.10529 0.29938 -0.36400
O 	O 	0.85891 0.05729 0.27674 -0.38500
O 	O 	0.87289 0.87063 0.26989 -0.40900
O 	O 	0.91790 0.12889 0.17933 -0.37400
O 	O 	0.90564 0.98152 0.23410 -0.70100
O 	O 	0.90951 0.96386 0.29856 -0.36800
O 	O 	0.85002 0.98852 0.17766 -0.36900
O 	O 	0.78577 0.94519 0.21258 -0.41500
Ni	Ni	0.83231 0.91108 0.24166 1.07000
H 	H 	0.93048 0.14047 0.24364 0.15700
H 	H 	0.93441 0.96072 0.22985 0.15200
O 	O 	0.80069 0.94972 0.27398 -0.38600
C 	C 	0.96858 0.17784 0.17913 0.27200
C 	C 	0.80685 0.01202 0.27528 0.28800
C 	C 	0.79844 0.94996 0.18568 0.27200
C 	C 	0.90327 0.90206 0.29252 0.28400
O 	O 	0.97477 0.03690 0.18511 -0.37200
C 	C 	0.97493 0.23349 0.16078 -0.06500
C 	C 	0.65851 0.91687 0.14035 -0.00200
C 	C 	0.62009 0.91794 0.11842 -0.05400
C 	C 	0.57397 0.85933 0.11182 0.01500
C 	C 	0.57050 0.80028 0.12492 0.00300
C 	C 	0.60912 0.79942 0.14688 -0.05800
C 	C 	0.65458 0.85839 0.15381 0.01700
S 	S 	0.72585 0.96993 0.14490 0.03000
C 	C 	0.75194 0.92239 0.16452 -0.07500
C 	C 	0.70681 0.86179 0.16791 -0.02400
S 	S 	0.50236 0.74813 0.12144 0.01500
C 	C 	0.47546 0.79737 0.10347 -0.07700
C 	C 	0.52066 0.85731 0.09934 -0.01900
H 	H 	0.62417 0.96330 0.10786 0.04700
H 	H 	0.60488 0.75425 0.15764 0.04400
H 	H 	0.71126 0.82224 0.18038 0.02400
H 	H 	0.51519 0.89807 0.08815 0.04400
H 	H 	0.97458 0.92599 0.15671 0.04700
C 	C 	0.60221 0.98972 0.34224 0.00800
C 	C 	0.66142 0.02603 0.33953 -0.06500
C 	C 	0.68461 0.03294 0.31249 0.02200
C 	C 	0.64913 0.00209 0.28902 -0.01900
C 	C 	0.59215 0.95859 0.29238 -0.04100
C 	C 	0.56853 0.95327 0.31926 0.01000
S 	S 	0.57325 0.95241 0.37166 0.03600
C 	C 	0.51847 0.89048 0.35674 -0.06900
C 	C 	0.52048 0.89818 0.32753 -0.02800
S 	S 	0.69227 0.99326 0.26411 0.03200
C 	C 	0.75620 0.03020 0.28087 -0.08300
C 	C 	0.74486 0.04891 0.30785 -0.01800
H 	H 	0.68938 0.04397 0.35805 0.05000
H 	H 	0.56874 0.92610 0.27521 0.04000
H 	H 	0.49008 0.86411 0.31278 0.02800
H 	H 	0.77729 0.06257 0.32483 0.04700
C 	C 	0.23235 0.52183 0.35170 -0.07900
C 	C 	0.24366 0.46284 0.35181 -0.02000
H 	H 	0.27609 0.45510 0.36571 0.03800
C 	C 	0.98163 0.80283 0.32569 0.02000
S 	S 	0.95783 0.89785 0.34361 0.03600
C 	C 	0.92399 0.86491 0.31313 -0.07300
C 	C 	0.94248 0.81309 0.30550 -0.02500
H 	H 	0.93554 0.79104 0.28453 0.04000
C 	C 	0.43505 0.97636 0.49238 0.12600
C 	C 	0.45138 0.04477 0.49602 -0.10000
C 	C 	0.50940 0.08093 0.50369 0.01600
C 	C 	0.54856 0.05045 0.50986 0.10500
C 	C 	0.53199 0.98201 0.50690 -0.07600
C 	C 	0.47419 0.94569 0.49876 0.00600
O 	O 	0.39104 0.94097 0.47340 -0.19300
C 	C 	0.40860 0.88742 0.46821 0.04200
C 	C 	0.45762 0.88947 0.48352 -0.05800
O 	O 	0.59478 0.08749 0.52734 -0.19000
C 	C 	0.57882 0.14258 0.53144 0.04000
C 	C 	0.52795 0.13914 0.51749 -0.06400
H 	H 	0.42083 0.06926 0.49147 0.06700
H 	H 	0.56274 0.95770 0.51133 0.06600
H 	H 	0.48665 0.86430 0.47741 0.06400
H 	H 	0.50037 0.16611 0.52363 0.06400
C 	C 	0.97580 0.47943 0.44340 -0.08400
C 	C 	0.94279 0.42809 0.46055 0.00800
C 	C 	0.96851 0.40431 0.48192 0.11900
O 	O 	0.93170 0.37657 0.50384 -0.18500
C 	C 	0.88181 0.38650 0.49359 0.04300
C 	C 	0.88801 0.41749 0.46799 -0.05700
H 	H 	0.95534 0.50571 0.43011 0.06500
H 	H 	0.86166 0.44499 0.46041 0.04800
C 	C 	0.51533 0.48008 0.49647 0.11300
C 	C 	0.47725 0.46885 0.47304 -0.09200
C 	C 	0.48712 0.51890 0.45321 0.00700
C 	C 	0.53045 0.57952 0.45739 0.11300
C 	C 	0.56916 0.59040 0.48059 -0.09100
C 	C 	0.55937 0.54026 0.50037 0.00900
O 	O 	0.52510 0.42895 0.51047 -0.19200
C 	C 	0.58002 0.46385 0.52229 0.04100
C 	C 	0.60079 0.53016 0.51645 -0.06300
O 	O 	0.51928 0.63072 0.44411 -0.18600
C 	C 	0.46469 0.59514 0.43206 0.03800
C 	C 	0.44542 0.52852 0.43722 -0.06300
H 	H 	0.44229 0.42193 0.46988 0.06200
H 	H 	0.60410 0.63733 0.48376 0.06600
H 	H 	0.64630 0.56124 0.51683 0.05400
H 	H 	0.40015 0.49659 0.43685 0.04000
C 	C 	0.91752 0.19234 0.64214 -0.00400
C 	C 	0.95456 0.15737 0.63688 -0.05600
C 	C 	0.94337 0.09703 0.65028 0.01500
C 	C 	0.89464 0.07146 0.66716 -0.01300
C 	C 	0.85333 0.10177 0.66907 -0.05200
C 	C 	0.86599 0.16381 0.65704 0.01300
S 	S 	0.90726 0.24679 0.62028 0.03600
C 	C 	0.84013 0.23937 0.62969 -0.07900
C 	C 	0.82260 0.19047 0.65011 -0.02300
S 	S 	0.88021 0.99129 0.66998 0.01900
C 	C 	0.93535 0.98578 0.65128 -0.06900
C 	C 	0.96696 0.04914 0.64169 -0.03600
H 	H 	0.98840 0.17437 0.62153 0.04900
H 	H 	0.81133 0.07629 0.67804 0.04100
H 	H 	0.77787 0.16802 0.65635 0.02600
C 	C 	0.32657 0.20754 0.65908 -0.00400
C 	C 	0.37317 0.25540 0.64630 -0.05200
C 	C 	0.42938 0.25566 0.65234 0.01400
C 	C 	0.43730 0.20609 0.66898 0.00500
C 	C 	0.38978 0.15227 0.67765 -0.05800
C 	C 	0.33401 0.15469 0.67325 0.01900
S 	S 	0.25733 0.18488 0.64858 0.02700
C 	C 	0.23385 0.10900 0.66198 -0.06900
C 	C 	0.28185 0.09949 0.67520 -0.02900
S 	S 	0.50267 0.20366 0.66260 -0.00000
C 	C 	0.52472 0.26688 0.64046 -0.07100
C 	C 	0.47857 0.28992 0.63620 -0.01900
H 	H 	0.36586 0.28938 0.63141 0.04700
H 	H 	0.39579 0.10902 0.68624 0.04400
H 	H 	0.27879 0.05575 0.68683 0.03600
H 	H 	0.47725 0.32267 0.61933 0.05100
C 	C 	0.97507 0.57015 0.59015 0.02200
C 	C 	0.98217 0.61008 0.56631 0.00100
S 	S 	0.92316 0.57855 0.54556 0.03000
C 	C 	0.88859 0.51320 0.56494 -0.07500
C 	C 	0.92206 0.51525 0.58941 -0.01800
H 	H 	0.99846 0.56716 0.63428 0.04700
H 	H 	0.90624 0.48355 0.60720 0.04600
C 	C 	0.99269 0.59604 0.96829 0.12400
C 	C 	0.93248 0.56755 0.97165 -0.09000
C 	C 	0.89851 0.53092 0.94896 0.01200
C 	C 	0.92338 0.51501 0.92556 0.11200
C 	C 	0.98388 0.53938 0.92309 -0.07800
O 	O 	0.88773 0.45883 0.91104 -0.18200
C 	C 	0.83922 0.44239 0.92814 0.04300
C 	C 	0.84622 0.48392 0.95120 -0.06000
H 	H 	0.91351 0.56981 0.99186 0.06800
H 	H 	0.81270 0.48494 0.96544 0.05100
C 	C 	0.40608 0.94524 0.97143 0.12700
C 	C 	0.41696 0.01274 0.96894 -0.10100
C 	C 	0.47453 0.05502 0.96556 0.01600
C 	C 	0.51924 0.03106 0.96313 0.10400
C 	C 	0.50835 0.96357 0.96584 -0.07700
C 	C 	0.45070 0.92127 0.96888 0.00200
O 	O 	0.35904 0.90425 0.98598 -0.19300
C 	C 	0.38038 0.85431 0.99261 0.03800
C 	C 	0.43480 0.86385 0.98234 -0.05600
O 	O 	0.56575 0.07136 0.94805 -0.19200
C 	C 	0.54379 0.12038 0.94067 0.04000
C 	C 	0.48981 0.11148 0.95138 -0.06200
H 	H 	0.38202 0.03190 0.97045 0.06700
H 	H 	0.54325 0.94435 0.96430 0.06400
H 	H 	0.46502 0.84275 0.99132 0.06100
H 	H 	0.45910 0.13171 0.94227 0.06200
C 	C 	0.40721 0.46449 0.97760 0.11300
C 	C 	0.39763 0.41692 0.95604 -0.09200
C 	C 	0.43570 0.43141 0.93338 0.00700
C 	C 	0.48303 0.48923 0.93275 0.11500
C 	C 	0.49274 0.53646 0.95443 -0.09400
C 	C 	0.45537 0.52146 0.97731 0.00800
O 	O 	0.36250 0.46922 0.99391 -0.19900
C 	C 	0.38840 0.53477 0.00304 0.04000
C 	C 	0.44365 0.56615 0.99329 -0.06000
O 	O 	0.52787 0.48524 0.91643 -0.20400
C 	C 	0.50387 0.41895 0.90821 0.03900
C 	C 	0.44884 0.38650 0.91810 -0.05900
H 	H 	0.36073 0.37126 0.95641 0.06400
H 	H 	0.52965 0.58212 0.95408 0.06300
H 	H 	0.46399 0.61896 0.99116 0.05900
H 	H 	0.42988 0.33379 0.92094 0.06000
C 	C 	0.83496 0.10381 0.82128 -0.00000
C 	C 	0.86922 0.06560 0.82634 -0.05500
C 	C 	0.92777 0.09131 0.81898 0.01600
C 	C 	0.95191 0.15617 0.80924 0.01000
C 	C 	0.91787 0.19570 0.80564 -0.06000
C 	C 	0.85920 0.16922 0.81275 0.01700
S 	S 	0.77238 0.09366 0.83641 0.01100
C 	C 	0.77200 0.16976 0.83156 -0.07500
C 	C 	0.82401 0.20714 0.81874 -0.02300
C 	C 	0.95875 0.05059 0.81050 -0.02700
H 	H 	0.85018 0.01589 0.83397 0.04600
H 	H 	0.93638 0.24507 0.79760 0.04700
H 	H 	0.83872 0.26014 0.81684 0.05000
H 	H 	0.94149 0.99757 0.81259 0.05800
C 	C 	0.28682 0.96148 0.77753 -0.00000
C 	C 	0.34652 0.99812 0.77865 -0.04400
C 	C 	0.37170 0.02767 0.80445 0.00900
C 	C 	0.33713 0.02214 0.82816 -0.00700
C 	C 	0.27663 0.99255 0.82608 -0.04700
C 	C 	0.25154 0.96091 0.80059 0.01500
S 	S 	0.24565 0.95127 0.74845 0.01000
S 	S 	0.37196 0.08413 0.85019 0.03200
C 	C 	0.43131 0.11898 0.83136 -0.07100
C 	C 	0.42545 0.08114 0.80663 -0.02700
H 	H 	0.37145 0.00791 0.75959 0.03600
H 	H 	0.24971 0.99848 0.84292 0.04800
H 	H 	0.45809 0.09231 0.79062 0.02400
C 	C 	0.75381 0.54442 0.78668 -0.00100
C 	C 	0.79508 0.57422 0.76642 -0.05500
C 	C 	0.82022 0.64311 0.76701 0.01700
C 	C 	0.80675 0.68007 0.78833 -0.00200
C 	C 	0.77269 0.64961 0.81100 -0.05300
C 	C 	0.74434 0.58107 0.80946 0.01600
S 	S 	0.73616 0.46671 0.79665 0.02300
C 	C 	0.71276 0.47548 0.82879 -0.07700
C 	C 	0.72121 0.54224 0.83320 -0.01700
S 	S 	0.85834 0.75425 0.78961 0.03200
C 	C 	0.89816 0.74354 0.76306 -0.07400
C 	C 	0.87112 0.67896 0.75250 -0.02300
H 	H 	0.80934 0.54484 0.75177 0.04200
H 	H 	0.77048 0.67764 0.82969 0.04700
H 	H 	0.71833 0.56318 0.85369 0.04400
H 	H 	0.88678 0.65917 0.73466 0.02400
