data_crystal

_cell_length_a 19.47690
_cell_length_b 18.17795
_cell_length_c 28.52385
_cell_angle_alpha 95.43139
_cell_angle_beta  95.43311
_cell_angle_gamma 126.37515

_symmetry_space_group_name_	'P 1'
_symmetry_space_group_name_H-M	'P 1'

loop_
_symmetry_equiv_pos_as_xyz
  x,y,z

loop_
_atom_site_label
_atom_site_type_symbol
_atom_site_fract_x
_atom_site_fract_y
_atom_site_fract_z
_atom_site_charge
C 	C 	0.93138 0.01815 0.96891 0.01800
C 	C 	0.02236 0.07874 0.97435 -0.06100
C 	C 	0.07043 0.04459 0.98068 0.01600
H 	H 	0.05558 0.15213 0.97422 0.04900
C 	C 	0.93192 0.02015 0.47243 0.01400
C 	C 	0.02124 0.06947 0.47267 -0.06300
C 	C 	0.06145 0.02728 0.48095 0.01700
H 	H 	0.05928 0.14037 0.46649 0.04700
Cu	Cu	0.72382 0.31610 0.94917 0.92900
Cu	Cu	0.71840 0.22991 0.04628 0.86800
Cu	Cu	0.60006 0.27716 0.01915 0.89100
Cu	Cu	0.57977 0.34400 0.93037 0.89500
C 	C 	0.65379 0.30605 0.85295 0.30100
C 	C 	0.66494 0.28898 0.12071 0.30400
O 	O 	0.59282 0.25670 0.95100 -0.63500
O 	O 	0.72346 0.32617 0.01920 -0.64400
O 	O 	0.77407 0.24662 0.94310 -0.36500
O 	O 	0.68503 0.14753 0.98866 -0.43600
O 	O 	0.47791 0.22292 0.01386 -0.39200
C 	C 	0.43531 0.24085 0.98414 0.29900
O 	O 	0.47585 0.30639 0.95832 -0.39500
O 	O 	0.70024 0.28951 0.88029 -0.36100
C 	C 	0.74245 0.17090 0.96117 0.29100
O 	O 	0.60278 0.27568 0.08876 -0.38800
O 	O 	0.72771 0.28851 0.10779 -0.42400
H 	H 	0.54788 0.19150 0.93436 0.16400
Cu	Cu	0.72743 0.32378 0.45146 0.92700
Cu	Cu	0.71583 0.21932 0.54142 0.87100
Cu	Cu	0.59315 0.26054 0.51690 0.89500
Cu	Cu	0.57331 0.33608 0.43194 0.89400
C 	C 	0.66200 0.32184 0.35604 0.30100
C 	C 	0.65337 0.26292 0.61738 0.30400
O 	O 	0.59309 0.25170 0.44928 -0.63900
O 	O 	0.71927 0.31923 0.52009 -0.64000
O 	O 	0.78713 0.26510 0.44372 -0.36500
O 	O 	0.69382 0.14956 0.48103 -0.44300
O 	O 	0.46893 0.19702 0.50882 -0.38200
C 	C 	0.42432 0.21385 0.47999 0.29100
O 	O 	0.46290 0.28255 0.45583 -0.39600
O 	O 	0.71200 0.30902 0.38282 -0.36000
C 	C 	0.75555 0.18416 0.45583 0.29300
O 	O 	0.59100 0.24874 0.58521 -0.38600
O 	O 	0.71709 0.26380 0.60479 -0.42100
H 	H 	0.55265 0.18772 0.43025 0.16200
C 	C 	0.64806 0.27006 0.66726 -0.10100
C 	C 	0.64658 0.27610 0.70956 0.03400
C 	C 	0.64751 0.28412 0.75939 0.03000
C 	C 	0.64985 0.29272 0.80208 -0.09300
C 	C 	0.66036 0.29673 0.17068 -0.10300
C 	C 	0.65887 0.30208 0.21298 0.03300
C 	C 	0.65909 0.30794 0.26273 0.02900
C 	C 	0.66024 0.31353 0.30531 -0.09300
C 	C 	0.92596 0.15302 0.49304 -0.06700
C 	C 	0.89002 0.06581 0.46519 0.02100
C 	C 	0.81329 0.02159 0.43109 -0.06900
C 	C 	0.77112 0.06235 0.42641 0.01900
C 	C 	0.80632 0.14858 0.45493 -0.10200
C 	C 	0.88474 0.19452 0.48757 0.01100
H 	H 	0.98478 0.18770 0.51963 0.04300
H 	H 	0.71038 0.02616 0.40126 0.02500
H 	H 	0.91196 0.26073 0.51007 0.01100
C 	C 	0.18782 0.10581 0.43944 -0.06400
C 	C 	0.15508 0.07882 0.48140 0.02000
C 	C 	0.21068 0.09494 0.52283 -0.06300
C 	C 	0.29828 0.13731 0.52221 0.01300
C 	C 	0.33111 0.16428 0.48016 -0.08700
C 	C 	0.27537 0.14828 0.43879 0.01200
H 	H 	0.14515 0.09264 0.40714 0.04500
H 	H 	0.18586 0.07413 0.55539 0.04500
H 	H 	0.34075 0.15028 0.55455 0.03800
H 	H 	0.29982 0.16838 0.40606 0.02600
C 	C 	0.82851 0.04162 0.99948 -0.05600
C 	C 	0.88095 0.05493 0.96572 0.01800
C 	C 	0.88530 0.10338 0.92912 -0.06500
C 	C 	0.83857 0.13942 0.92682 0.01700
C 	C 	0.78693 0.12715 0.96108 -0.10300
C 	C 	0.78149 0.07698 0.99708 0.02000
H 	H 	0.82491 0.00468 0.02796 0.03100
H 	H 	0.92488 0.11322 0.90255 0.04500
H 	H 	0.84281 0.17703 0.89857 0.03800
H 	H 	0.74231 0.06705 0.02389 -0.00100
C 	C 	0.20063 0.14125 0.94384 -0.06600
C 	C 	0.16540 0.10654 0.98416 0.03100
C 	C 	0.21983 0.12013 0.02547 -0.07500
C 	C 	0.30808 0.16461 0.02575 0.00300
C 	C 	0.34278 0.19629 0.98472 -0.07800
C 	C 	0.28880 0.18575 0.94405 0.01100
H 	H 	0.15907 0.13070 0.91171 0.04500
H 	H 	0.19322 0.09385 0.05687 0.04500
H 	H 	0.34920 0.17396 0.05773 0.03900
H 	H 	0.31468 0.21006 0.91220 0.02700
O 	O 	0.63018 0.35568 0.87120 -0.38600
C 	C 	0.02764 0.95015 0.98177 -0.06000
C 	C 	0.93703 0.88923 0.97586 0.01500
C 	C 	0.88885 0.92312 0.96922 -0.06200
H 	H 	0.06483 0.92384 0.98664 0.04900
H 	H 	0.81862 0.87587 0.96442 0.04900
C 	C 	0.01207 0.93498 0.48765 -0.06200
C 	C 	0.92284 0.88482 0.48688 0.01700
C 	C 	0.88298 0.92785 0.47998 -0.06400
H 	H 	0.04275 0.90150 0.49237 0.04900
H 	H 	0.81422 0.88962 0.48029 0.04500
O 	O 	0.79064 0.45568 0.95429 -0.36000
C 	C 	0.76487 0.50034 0.97567 0.28200
O 	O 	0.68686 0.45296 0.98590 -0.38800
H 	H 	0.76654 0.38936 0.03871 0.17200
O 	O 	0.78534 0.46246 0.46298 -0.35900
O 	O 	0.63177 0.36375 0.37525 -0.38700
C 	C 	0.75118 0.49705 0.48486 0.28600
O 	O 	0.67152 0.44077 0.49197 -0.39400
H 	H 	0.75846 0.37977 0.54250 0.17400
C 	C 	0.85333 0.66188 0.52715 0.01500
C 	C 	0.79044 0.59568 0.48745 -0.08900
C 	C 	0.76522 0.62399 0.44976 0.01500
C 	C 	0.80508 0.71832 0.45083 -0.06300
C 	C 	0.87036 0.78517 0.48971 0.02000
C 	C 	0.89286 0.75635 0.52844 -0.06400
H 	H 	0.87235 0.64037 0.55666 0.02400
H 	H 	0.71600 0.57298 0.41916 0.02400
H 	H 	0.78742 0.73969 0.42069 0.04500
H 	H 	0.94275 0.80734 0.55881 0.04400
H 	H 	0.78570 0.95513 0.40875 0.04600
C 	C 	0.84479 0.74802 0.01159 -0.07400
C 	C 	0.89272 0.78951 0.97588 0.03000
C 	C 	0.90245 0.73704 0.94172 -0.06400
C 	C 	0.86401 0.64369 0.94297 0.01000
C 	C 	0.81471 0.60150 0.97818 -0.07700
C 	C 	0.80594 0.65444 0.01275 -0.00200
H 	H 	0.83799 0.78836 0.03854 0.04300
H 	H 	0.93960 0.76859 0.91411 0.04600
H 	H 	0.87058 0.60354 0.91576 0.04000
H 	H 	0.76844 0.62289 0.04023 0.03100
