data_crystal

_cell_length_a 26.14323
_cell_length_b 26.24653
_cell_length_c 35.05299
_cell_angle_alpha 95.54071
_cell_angle_beta  95.54037
_cell_angle_gamma 125.67785

_symmetry_space_group_name_	'P 1'
_symmetry_space_group_name_H-M	'P 1'

loop_
_symmetry_equiv_pos_as_xyz
  x,y,z

loop_
_atom_site_label
_atom_site_type_symbol
_atom_site_fract_x
_atom_site_fract_y
_atom_site_fract_z
_atom_site_charge
C 	C 	0.97317 0.03208 0.00231 0.10900
N 	N 	0.03669 0.06216 0.00211 -0.13800
C 	C 	0.05950 0.02734 0.99661 0.11000
N 	N 	0.01870 0.96265 0.99097 -0.13500
C 	C 	0.95548 0.93257 0.99124 0.11600
N 	N 	0.93279 0.96729 0.99695 -0.13500
C 	C 	0.93347 0.00005 0.45649 0.10700
N 	N 	0.90037 0.93751 0.45979 -0.13600
C 	C 	0.93193 0.91130 0.46542 0.11400
N 	N 	0.99625 0.94734 0.46717 -0.13600
C 	C 	0.02939 0.00954 0.46377 0.11000
N 	N 	0.99801 0.03588 0.45861 -0.13900
Cu	Cu	0.64262 0.24114 0.00120 0.92700
Cu	Cu	0.69265 0.24095 0.91887 0.87000
Cu	Cu	0.67434 0.33821 0.94822 0.89700
Cu	Cu	0.63483 0.35502 0.02350 0.89300
C 	C 	0.65763 0.29065 0.08200 0.29100
O 	O 	0.54768 0.19761 0.99985 -0.36100
C 	C 	0.65549 0.29108 0.86371 0.29200
O 	O 	0.68914 0.33925 0.00298 -0.64100
O 	O 	0.63309 0.24498 0.94500 -0.64000
O 	O 	0.68867 0.20142 0.00134 -0.37300
O 	O 	0.75540 0.26632 0.96324 -0.44100
O 	O 	0.62770 0.31495 0.07038 -0.38800
O 	O 	0.71893 0.42955 0.95554 -0.38100
C 	C 	0.71076 0.46295 0.98158 0.28500
C 	C 	0.51924 0.22189 0.98616 0.27800
O 	O 	0.55414 0.28005 0.97901 -0.39000
O 	O 	0.66540 0.43460 0.00264 -0.39500
O 	O 	0.66387 0.25440 0.05690 -0.36000
C 	C 	0.74264 0.22800 0.98815 0.28400
O 	O 	0.67567 0.33971 0.89193 -0.38500
O 	O 	0.64999 0.24012 0.87139 -0.42000
H 	H 	0.73477 0.36883 0.01603 0.16300
H 	H 	0.58844 0.21720 0.93021 0.17300
Cu	Cu	0.73081 0.33697 0.45138 0.92800
Cu	Cu	0.72725 0.28959 0.53496 0.87000
Cu	Cu	0.62487 0.29643 0.49841 0.89700
Cu	Cu	0.60893 0.32844 0.42058 0.89400
C 	C 	0.69098 0.32154 0.36886 0.29500
O 	O 	0.76484 0.42911 0.45129 -0.36000
C 	C 	0.66511 0.32020 0.58446 0.29300
O 	O 	0.63061 0.28119 0.44500 -0.64100
O 	O 	0.72000 0.34485 0.50617 -0.64200
O 	O 	0.77847 0.29932 0.45640 -0.37200
O 	O 	0.71143 0.22894 0.49231 -0.44100
O 	O 	0.65796 0.34337 0.37725 -0.38800
O 	O 	0.53241 0.24449 0.48744 -0.38300
C 	C 	0.49696 0.24772 0.45964 0.28700
C 	C 	0.73373 0.45100 0.46324 0.28000
O 	O 	0.67366 0.41094 0.46659 -0.39300
O 	O 	0.52277 0.28775 0.43515 -0.39500
O 	O 	0.72471 0.31595 0.39646 -0.36300
C 	C 	0.75298 0.24526 0.46907 0.28300
O 	O 	0.61824 0.29730 0.55418 -0.38600
O 	O 	0.71905 0.32876 0.58027 -0.41700
H 	H 	0.60535 0.23551 0.43273 0.16500
H 	H 	0.74377 0.38913 0.52079 0.17300
C 	C 	0.69141 0.37806 0.69233 -0.07500
C 	C 	0.64210 0.32180 0.70314 0.01300
C 	C 	0.59413 0.26911 0.67398 -0.00600
C 	C 	0.59933 0.27104 0.63469 -0.00500
C 	C 	0.65228 0.32497 0.62419 -0.09500
C 	C 	0.69679 0.37991 0.65303 0.05800
C 	C 	0.64647 0.31519 0.74453 0.01200
S 	S 	0.52915 0.19937 0.68647 -0.04300
H 	H 	0.56400 0.22928 0.61249 0.03800
S 	S 	0.75874 0.45139 0.64027 -0.05800
H 	H 	0.72725 0.41937 0.71465 0.05200
C 	C 	0.68220 0.29485 0.75985 -0.00700
C 	C 	0.68468 0.28726 0.79875 -0.00400
C 	C 	0.65140 0.29920 0.82271 -0.09500
C 	C 	0.61513 0.31908 0.80730 0.05700
C 	C 	0.61342 0.32755 0.76842 -0.07400
S 	S 	0.72368 0.27829 0.73049 -0.05100
H 	H 	0.71284 0.27228 0.81049 0.02700
S 	S 	0.56914 0.33029 0.83558 -0.05100
H 	H 	0.58544 0.34263 0.75655 0.05300
H 	H 	0.73732 0.48681 0.63257 0.03600
H 	H 	0.78351 0.33346 0.73179 0.03300
H 	H 	0.50952 0.27353 0.83158 0.03400
H 	H 	0.54631 0.16029 0.69347 0.03400
C 	C 	0.72872 0.36310 0.27026 -0.07400
C 	C 	0.70005 0.30241 0.24795 0.01300
C 	C 	0.67732 0.24973 0.26669 -0.00500
C 	C 	0.67783 0.25715 0.30688 -0.00600
C 	C 	0.70157 0.31688 0.32860 -0.08900
C 	C 	0.73007 0.37072 0.31049 0.05700
C 	C 	0.68706 0.29335 0.20488 0.01200
S 	S 	0.64675 0.17414 0.23999 -0.03900
H 	H 	0.65772 0.21604 0.32097 0.03500
S 	S 	0.76844 0.44792 0.33797 -0.03900
H 	H 	0.74802 0.40404 0.25608 0.05100
C 	C 	0.62763 0.27480 0.18480 -0.00600
C 	C 	0.61806 0.27216 0.14451 -0.00400
C 	C 	0.66760 0.28899 0.12389 -0.08800
C 	C 	0.72677 0.30645 0.14385 0.05200
C 	C 	0.73603 0.30828 0.18418 -0.07200
S 	S 	0.56542 0.25652 0.20998 -0.04600
H 	H 	0.57220 0.25777 0.12922 0.04200
S 	S 	0.79048 0.32886 0.11916 -0.04700
H 	H 	0.78182 0.32272 0.19961 0.05300
H 	H 	0.72479 0.46075 0.33982 0.03700
H 	H 	0.57293 0.31161 0.22372 0.03400
H 	H 	0.82590 0.39304 0.11909 0.03000
H 	H 	0.58248 0.14144 0.22601 0.03600
C 	C 	0.89696 0.84414 0.46997 -0.00700
C 	C 	0.92461 0.82752 0.49760 -0.03000
C 	C 	0.89807 0.76354 0.49796 -0.03400
C 	C 	0.84101 0.71443 0.47167 -0.00900
C 	C 	0.81373 0.73141 0.44328 0.02600
C 	C 	0.84077 0.79606 0.44344 -0.05200
C 	C 	0.76228 0.68401 0.41362 -0.05000
C 	C 	0.73912 0.62039 0.41084 -0.03500
C 	C 	0.76429 0.60228 0.43903 0.00200
C 	C 	0.81298 0.64859 0.47098 0.01300
C 	C 	0.83072 0.62769 0.50189 -0.05700
C 	C 	0.80652 0.56353 0.49856 0.00700
C 	C 	0.76178 0.51877 0.46562 -0.07600
C 	C 	0.74005 0.53793 0.43618 -0.01200
H 	H 	0.96858 0.86446 0.51784 0.04200
H 	H 	0.92451 0.75297 0.51687 0.03800
H 	H 	0.82012 0.80895 0.42156 0.04900
H 	H 	0.74146 0.69680 0.39182 0.04100
H 	H 	0.70087 0.58485 0.38686 0.03500
H 	H 	0.85989 0.65968 0.52932 0.04200
H 	H 	0.82102 0.54827 0.52226 0.02400
H 	H 	0.70377 0.50262 0.41130 0.02800
C 	C 	0.90004 0.02988 0.45217 -0.00300
C 	C 	0.84427 0.00677 0.46758 -0.04000
C 	C 	0.81625 0.03869 0.46711 -0.03200
C 	C 	0.84277 0.09377 0.45015 -0.01100
C 	C 	0.90047 0.11841 0.43601 0.02700
C 	C 	0.92711 0.08491 0.43560 -0.05400
C 	C 	0.93301 0.17807 0.42457 -0.05000
C 	C 	0.91067 0.21491 0.42880 -0.03600
C 	C 	0.85302 0.19091 0.44197 0.00300
C 	C 	0.81622 0.12820 0.44998 0.01100
C 	C 	0.75340 0.10100 0.45637 -0.05800
C 	C 	0.73212 0.13879 0.46116 0.00300
C 	C 	0.77202 0.20350 0.45821 -0.08100
C 	C 	0.83141 0.22875 0.44702 -0.01700
H 	H 	0.82400 0.96550 0.48147 0.04900
H 	H 	0.77675 0.02276 0.48223 0.03400
H 	H 	0.97016 0.10292 0.42358 0.04900
H 	H 	0.97720 0.19712 0.41378 0.04100
H 	H 	0.93808 0.26212 0.42149 0.03800
H 	H 	0.72000 0.05039 0.45596 0.04100
H 	H 	0.68439 0.11761 0.46714 0.03100
H 	H 	0.86127 0.27795 0.44304 0.04400
C 	C 	0.09932 0.04832 0.46592 -0.00700
C 	C 	0.13628 0.03715 0.49026 -0.03100
C 	C 	0.20173 0.07030 0.49036 -0.03500
C 	C 	0.23088 0.11362 0.46481 -0.00800
C 	C 	0.19498 0.12955 0.44327 0.02500
C 	C 	0.12907 0.09567 0.44317 -0.05200
C 	C 	0.22559 0.18004 0.42284 -0.04900
C 	C 	0.29138 0.21495 0.42368 -0.03600
C 	C 	0.32692 0.19733 0.44280 0.00300
C 	C 	0.29615 0.14420 0.46174 0.01200
C 	C 	0.33011 0.12077 0.47500 -0.05600
C 	C 	0.39532 0.15444 0.47405 0.00600
C 	C 	0.42727 0.21057 0.45859 -0.07400
C 	C 	0.39264 0.23122 0.44228 -0.01600
H 	H 	0.11441 0.00329 0.50959 0.04100
H 	H 	0.22984 0.06441 0.51162 0.03700
H 	H 	0.10093 0.10574 0.42520 0.04800
H 	H 	0.19856 0.19315 0.40687 0.04000
H 	H 	0.31451 0.25498 0.40863 0.03600
H 	H 	0.30581 0.07512 0.48416 0.04200
H 	H 	0.42081 0.13617 0.48475 0.03400
H 	H 	0.41675 0.27359 0.42930 0.04200
C 	C 	0.91215 0.86258 0.98659 -0.00500
C 	C 	0.86813 0.83383 0.01151 -0.03200
C 	C 	0.83165 0.76792 0.00988 -0.03600
C 	C 	0.84064 0.73007 0.98413 -0.00700
C 	C 	0.87977 0.75822 0.95615 0.02600
C 	C 	0.91653 0.82453 0.95820 -0.05100
C 	C 	0.88094 0.71977 0.92610 -0.04900
C 	C 	0.84425 0.65382 0.92380 -0.03600
C 	C 	0.80915 0.62565 0.95294 0.00500
C 	C 	0.80944 0.66405 0.98443 0.01200
C 	C 	0.78282 0.63667 0.01657 -0.05700
C 	C 	0.75058 0.57129 0.01537 0.00200
C 	C 	0.74590 0.53231 0.98277 -0.07200
C 	C 	0.77576 0.55978 0.95172 -0.01700
H 	H 	0.86253 0.86265 0.03243 0.04200
H 	H 	0.79483 0.74647 0.02737 0.03800
H 	H 	0.94848 0.84652 0.93775 0.04900
H 	H 	0.90966 0.74092 0.90410 0.04200
H 	H 	0.84465 0.62472 0.89985 0.03800
H 	H 	0.78995 0.66605 0.04333 0.04200
H 	H 	0.73045 0.55117 0.04031 0.03000
H 	H 	0.77355 0.53016 0.92683 0.04800
C 	C 	0.94763 0.06931 0.00761 -0.00700
C 	C 	0.89537 0.04708 0.02656 -0.03100
C 	C 	0.86492 0.07655 0.02704 -0.03500
C 	C 	0.88808 0.13103 0.00989 -0.01000
C 	C 	0.94061 0.15306 0.99042 0.02600
C 	C 	0.97107 0.12318 0.99039 -0.05100
C 	C 	0.95958 0.20196 0.96910 -0.04900
C 	C 	0.92492 0.22668 0.96491 -0.03800
C 	C 	0.87284 0.20562 0.98380 0.00400
C 	C 	0.85677 0.16094 0.00867 0.00900
C 	C 	0.81083 0.14830 0.03203 -0.05500
C 	C 	0.77450 0.17116 0.02588 0.00300
C 	C 	0.78546 0.20945 0.99780 -0.07900
C 	C 	0.83657 0.22882 0.97807 -0.02100
H 	H 	0.87676 0.00532 0.03982 0.04100
H 	H 	0.82125 0.05431 0.03859 0.03700
H 	H 	0.01084 0.13984 0.97520 0.04800
H 	H 	0.99991 0.21920 0.95440 0.04000
H 	H 	0.93867 0.26244 0.94686 0.03400
H 	H 	0.80512 0.12367 0.05607 0.04300
H 	H 	0.73825 0.15952 0.04328 0.04300
H 	H 	0.84750 0.26109 0.95781 0.03300
C 	C 	0.12859 0.05935 0.99821 -0.00200
C 	C 	0.15840 0.03623 0.01757 -0.04000
C 	C 	0.22139 0.06010 0.01511 -0.03300
C 	C 	0.25729 0.11050 0.99486 -0.00900
C 	C 	0.22627 0.13201 0.97394 0.02600
C 	C 	0.16274 0.10761 0.97669 -0.05400
C 	C 	0.25782 0.17516 0.94901 -0.04900
C 	C 	0.31927 0.19645 0.94413 -0.03700
C 	C 	0.35201 0.17821 0.96593 0.00400
C 	C 	0.32247 0.13748 0.99294 0.01200
C 	C 	0.35968 0.12757 0.01867 -0.05700
C 	C 	0.42234 0.15198 0.01474 0.00200
C 	C 	0.45049 0.18962 0.98665 -0.07500
C 	C 	0.41512 0.20248 0.96220 -0.01900
H 	H 	0.13181 0.99785 0.03346 0.04800
H 	H 	0.24025 0.03642 0.02684 0.03600
H 	H 	0.13907 0.12416 0.96074 0.04700
H 	H 	0.23402 0.19110 0.93257 0.04000
H 	H 	0.34206 0.22840 0.92390 0.03700
H 	H 	0.34219 0.10487 0.04329 0.04200
H 	H 	0.45018 0.14427 0.03499 0.04000
H 	H 	0.43723 0.23266 0.94098 0.03900
