data_crystal

_cell_length_a 37.40114
_cell_length_b 39.88266
_cell_length_c 29.26305
_cell_angle_alpha 89.50374
_cell_angle_beta  89.99994
_cell_angle_gamma 89.99995

_symmetry_space_group_name_	'P 1'
_symmetry_space_group_name_H-M	'P 1'

loop_
_symmetry_equiv_pos_as_xyz
  x,y,z

loop_
_atom_site_label
_atom_site_type_symbol
_atom_site_fract_x
_atom_site_fract_y
_atom_site_fract_z
_atom_site_charge
C 	C 	0.47290 0.57254 0.97366 0.10600
N 	N 	0.45727 0.54489 0.99124 -0.18600
C 	C 	0.42409 0.54385 0.97345 0.10700
C 	C 	0.39609 0.52017 0.98957 -0.09500
C 	C 	0.40599 0.48560 0.00398 0.12900
C 	C 	0.35840 0.53111 0.99169 0.03100
C 	C 	0.34319 0.53995 0.03367 -0.03800
C 	C 	0.30724 0.54938 0.03594 -0.00300
C 	C 	0.28631 0.55036 0.99609 -0.02300
C 	C 	0.33747 0.53175 0.95195 -0.05700
N 	N 	0.43934 0.47340 0.99923 -0.15400
C 	C 	0.38174 0.45991 0.01161 -0.06300
C 	C 	0.43663 0.43996 0.00510 0.12600
C 	C 	0.46559 0.41656 0.99176 -0.08700
C 	C 	0.46001 0.37999 0.99517 0.00900
C 	C 	0.44150 0.32765 0.96081 -0.07700
C 	C 	0.46750 0.36295 0.03616 -0.00900
C 	C 	0.46180 0.32837 0.03958 -0.05900
C 	C 	0.44856 0.31065 0.00200 0.06800
N 	N 	0.51593 0.45744 0.99245 -0.18500
C 	C 	0.54915 0.45851 0.97479 0.10900
C 	C 	0.55498 0.43146 0.94632 -0.06200
C 	C 	0.52361 0.41308 0.94660 -0.06000
C 	C 	0.57706 0.48226 0.99033 -0.09600
C 	C 	0.61502 0.47214 0.98962 0.03400
C 	C 	0.67124 0.46702 0.94901 -0.01200
C 	C 	0.68738 0.45367 0.98848 -0.03900
C 	C 	0.66702 0.44924 0.02839 0.00500
C 	C 	0.63093 0.45841 0.02890 -0.04100
N 	N 	0.53374 0.52893 0.99865 -0.15400
C 	C 	0.57144 0.57153 0.01278 -0.06200
C 	C 	0.53637 0.56231 0.00434 0.12800
C 	C 	0.50760 0.58582 0.99007 -0.09300
C 	C 	0.51352 0.62240 0.99145 0.02300
C 	C 	0.52956 0.63893 0.95426 -0.05000
C 	C 	0.53296 0.67384 0.95419 -0.03800
C 	C 	0.52024 0.69243 0.99126 0.00900
C 	C 	0.50478 0.67584 0.02883 -0.02000
C 	C 	0.50131 0.64093 0.02884 -0.03000
C 	C 	0.44964 0.58947 0.94474 -0.06100
C 	C 	0.41828 0.57108 0.94462 -0.06200
C 	C 	0.30168 0.54169 0.95403 -0.02000
C 	C 	0.40139 0.43063 0.01233 -0.06000
C 	C 	0.50030 0.42990 0.97520 0.10600
C 	C 	0.59107 0.54223 0.01293 -0.06200
C 	C 	0.56695 0.51663 0.00461 0.12900
C 	C 	0.63525 0.47637 0.94967 -0.06200
H 	H 	0.46456 0.53371 0.02230 0.11800
H 	H 	0.50858 0.46853 0.02329 0.11800
H 	H 	0.54505 0.68647 0.92514 0.05200
H 	H 	0.49501 0.69003 0.05766 0.05600
H 	H 	0.53896 0.62476 0.92521 0.05100
H 	H 	0.48878 0.62833 0.05761 0.05400
H 	H 	0.29558 0.55567 0.06865 0.04700
H 	H 	0.34898 0.52466 0.91946 0.05500
H 	H 	0.28586 0.54253 0.92302 0.04900
H 	H 	0.35915 0.53924 0.06457 0.05500
H 	H 	0.46739 0.31540 0.07147 0.06800
H 	H 	0.47759 0.37652 0.06537 0.05000
C 	C 	0.44704 0.36224 0.95748 -0.03000
H 	H 	0.43136 0.31411 0.93160 0.06300
H 	H 	0.68667 0.47037 0.91797 0.04600
H 	H 	0.62307 0.48690 0.91918 0.05500
H 	H 	0.61541 0.45505 0.05987 0.05800
H 	H 	0.67925 0.43911 0.05909 0.04900
H 	H 	0.45163 0.61573 0.93540 0.05400
H 	H 	0.39235 0.58100 0.93527 0.05500
H 	H 	0.35344 0.46124 0.00400 0.06600
H 	H 	0.39046 0.40607 0.00539 0.06300
H 	H 	0.58094 0.42165 0.93706 0.05700
H 	H 	0.52165 0.38688 0.93762 0.05700
H 	H 	0.58256 0.59617 0.00623 0.06400
H 	H 	0.61953 0.54097 0.00646 0.06400
H 	H 	0.44124 0.37526 0.92569 0.04800
Co	Co	0.40414 0.10616 0.98838 1.18300
Co	Co	0.41780 0.02875 0.98615 1.12600
O 	O 	0.39214 0.15549 0.99546 -0.36300
O 	O 	0.44754 0.14610 0.00757 -0.27900
O 	O 	0.35882 0.08496 0.96983 -0.37700
O 	O 	0.40994 0.04686 0.92342 -0.41700
C 	C 	0.34584 0.05873 0.99169 0.30600
C 	C 	0.42243 0.16825 0.00660 0.31500
O 	O 	0.36738 0.03666 0.01084 -0.35500
O 	O 	0.43088 0.10013 0.93245 -0.37900
C 	C 	0.42747 0.07303 0.90765 0.32200
O 	O 	0.40525 0.09127 0.05106 -0.39900
O 	O 	0.44647 0.05200 0.03320 -0.37300
C 	C 	0.43044 0.07045 0.06391 0.32300
S 	S 	0.54948 0.99734 0.42953 0.04200
C 	C 	0.54717 0.01238 0.37463 -0.01700
C 	C 	0.53522 0.04590 0.37323 -0.01300
S 	S 	0.52653 0.06067 0.42690 0.03400
C 	C 	0.53536 0.02876 0.46321 -0.01000
C 	C 	0.54903 0.03424 0.50960 -0.00400
S 	S 	0.52935 0.06073 0.54637 0.02900
C 	C 	0.53813 0.04522 0.59994 -0.01300
C 	C 	0.55755 0.01497 0.59798 -0.01100
S 	S 	0.56616 0.00345 0.54276 0.03400
C 	C 	0.48494 0.06595 0.72524 0.02200
C 	C 	0.47023 0.04270 0.69485 0.00100
C 	C 	0.48652 0.03713 0.65260 -0.03200
C 	C 	0.51724 0.05523 0.64017 0.03600
C 	C 	0.53022 0.08034 0.66901 -0.03400
C 	C 	0.51407 0.08574 0.71143 0.00000
H 	H 	0.44724 0.02784 0.70487 0.07500
H 	H 	0.47615 0.01787 0.63033 0.06100
H 	H 	0.55373 0.09463 0.65946 0.06300
H 	H 	0.52506 0.10431 0.73428 0.07400
C 	C 	0.56789 0.95398 0.71828 0.04900
C 	C 	0.58169 0.98671 0.71738 0.02000
C 	C 	0.58038 0.00582 0.67718 -0.01700
C 	C 	0.56405 0.99289 0.63791 0.03900
C 	C 	0.55128 0.95980 0.63830 -0.02600
C 	C 	0.55340 0.94036 0.67824 -0.00600
H 	H 	0.59224 0.99775 0.74824 0.12500
H 	H 	0.59092 0.03112 0.67701 0.07400
H 	H 	0.53859 0.94954 0.60823 0.06100
H 	H 	0.54264 0.91514 0.67855 0.07100
C 	C 	0.54128 0.96252 0.24705 0.02900
C 	C 	0.51002 0.96825 0.27226 -0.00500
C 	C 	0.51218 0.98137 0.31631 -0.03000
C 	C 	0.54552 0.99017 0.33475 0.03800
C 	C 	0.57681 0.98333 0.31018 -0.03300
C 	C 	0.57470 0.96973 0.26637 -0.00300
H 	H 	0.48408 0.96312 0.25740 0.08900
H 	H 	0.48784 0.98662 0.33502 0.06200
H 	H 	0.60264 0.99017 0.32402 0.06400
H 	H 	0.59896 0.96554 0.24702 0.07400
C 	C 	0.49107 0.07371 0.24481 0.03200
C 	C 	0.52821 0.07065 0.24973 -0.00600
C 	C 	0.54314 0.06549 0.29298 -0.03000
C 	C 	0.52094 0.06181 0.33139 0.03400
C 	C 	0.48397 0.06684 0.32680 -0.03300
C 	C 	0.46909 0.07268 0.28365 -0.00600
H 	H 	0.54535 0.07104 0.21988 0.08800
H 	H 	0.57175 0.06194 0.29622 0.06200
H 	H 	0.46653 0.06402 0.35614 0.06100
H 	H 	0.44036 0.07498 0.28012 0.07400
Co	Co	0.58262 0.89198 0.98778 1.17600
Co	Co	0.50109 0.90420 0.97649 1.13500
O 	O 	0.63574 0.88150 0.99083 -0.36800
O 	O 	0.62626 0.93130 0.96660 -0.28000
O 	O 	0.55836 0.85130 0.01083 -0.38100
O 	O 	0.51374 0.90281 0.04254 -0.40400
C 	C 	0.53279 0.83669 0.98735 0.27500
C 	C 	0.65001 0.90883 0.97590 0.29000
O 	O 	0.51060 0.85482 0.96244 -0.37200
O 	O 	0.57094 0.92214 0.03708 -0.37400
C 	C 	0.54055 0.92000 0.05938 0.32500
O 	O 	0.57303 0.88636 0.92374 -0.41100
O 	O 	0.53018 0.92612 0.92804 -0.38500
C 	C 	0.55203 0.90802 0.90333 0.32600
Co	Co	0.07577 0.60951 0.96701 1.18300
Co	Co	0.99446 0.60017 0.94710 1.11500
O 	O 	0.12785 0.61704 0.98403 -0.35700
O 	O 	0.11186 0.56654 0.99644 -0.27500
O 	O 	0.05786 0.65293 0.94349 -0.40000
O 	O 	0.02163 0.60624 0.88927 -0.42200
C 	C 	0.02831 0.66653 0.95946 0.29700
C 	C 	0.13749 0.58803 0.99925 0.28200
O 	O 	0.00107 0.64753 0.97158 -0.39000
O 	O 	0.07522 0.58424 0.91095 -0.37800
C 	C 	0.05021 0.58847 0.88004 0.32600
O 	O 	0.05309 0.61064 0.02582 -0.35600
O 	O 	0.01137 0.57408 0.00083 -0.42300
C 	C 	0.02729 0.58944 0.03474 0.31700
S 	S 	0.96230 0.46933 0.41337 0.03500
C 	C 	0.98177 0.47601 0.36119 -0.01300
C 	C 	0.99585 0.50881 0.35735 -0.01700
S 	S 	0.98890 0.53125 0.40621 0.02700
C 	C 	0.96632 0.50559 0.44165 -0.00600
C 	C 	0.96761 0.50786 0.49161 -0.00900
S 	S 	0.00126 0.52587 0.52048 0.04100
C 	C 	0.00231 0.50633 0.57279 -0.01300
C 	C 	0.97598 0.48102 0.57611 -0.01700
S 	S 	0.95146 0.47812 0.52690 0.02900
C 	C 	0.04452 0.54880 0.69491 0.04000
C 	C 	0.00907 0.55531 0.68186 0.03200
C 	C 	0.99583 0.54280 0.64082 -0.02900
C 	C 	0.01757 0.52281 0.61309 0.04500
C 	C 	0.05315 0.51667 0.62568 -0.03100
C 	C 	0.06661 0.52964 0.66648 0.00100
H 	H 	0.99153 0.56933 0.70413 0.10600
H 	H 	0.96831 0.54767 0.63129 0.07400
H 	H 	0.07008 0.50122 0.60445 0.06200
H 	H 	0.09392 0.52424 0.67646 0.06900
C 	C 	0.94285 0.45174 0.70990 0.02200
C 	C 	0.97556 0.44027 0.69260 0.00300
C 	C 	0.98571 0.44848 0.64795 -0.03700
C 	C 	0.96295 0.46774 0.62012 0.03800
C 	C 	0.92923 0.47732 0.63653 -0.03500
C 	C 	0.91914 0.46915 0.68120 0.00100
H 	H 	0.99370 0.42620 0.71435 0.07600
H 	H 	0.01173 0.44086 0.63549 0.06400
H 	H 	0.91150 0.49229 0.61536 0.06200
H 	H 	0.89350 0.47748 0.69408 0.07300
C 	C 	0.95695 0.42131 0.24052 0.04200
C 	C 	0.93669 0.44956 0.25235 0.01900
C 	C 	0.94356 0.46631 0.29305 -0.02000
C 	C 	0.97185 0.45597 0.32126 0.03800
C 	C 	0.99178 0.42748 0.30996 -0.03000
C 	C 	0.98424 0.41007 0.26982 -0.00700
H 	H 	0.91626 0.45903 0.22941 0.10800
H 	H 	0.92769 0.48802 0.30194 0.06700
H 	H 	0.01353 0.41922 0.33177 0.06400
H 	H 	0.00007 0.38832 0.26097 0.07500
C 	C 	0.00841 0.54819 0.22243 0.02900
C 	C 	0.03504 0.52757 0.24139 -0.00200
C 	C 	0.03173 0.51575 0.28630 -0.03200
C 	C 	0.00233 0.52530 0.31294 0.04100
C 	C 	0.97686 0.54756 0.29482 -0.03900
C 	C 	0.97980 0.55884 0.24968 -0.00900
H 	H 	0.05781 0.52009 0.22101 0.08300
H 	H 	0.05152 0.49858 0.30004 0.06400
H 	H 	0.95394 0.55490 0.31506 0.06000
H 	H 	0.95942 0.57520 0.23550 0.06800
Co	Co	0.89906 0.37998 0.97100 1.18900
Co	Co	0.90714 0.45553 0.99235 1.10800
O 	O 	0.89658 0.33071 0.95387 -0.32100
O 	O 	0.94845 0.34426 0.97741 -0.25500
O 	O 	0.85065 0.39858 0.96164 -0.36500
O 	O 	0.93917 0.42661 0.03003 -0.37300
C 	C 	0.83759 0.42172 0.98877 0.29600
C 	C 	0.92871 0.32055 0.96165 0.28300
O 	O 	0.85891 0.43868 0.01576 -0.39400
O 	O 	0.90123 0.38273 0.03640 -0.40100
C 	C 	0.92580 0.40181 0.05436 0.32300
O 	O 	0.92250 0.39930 0.91833 -0.37300
O 	O 	0.89803 0.45144 0.92573 -0.43700
C 	C 	0.91240 0.42800 0.90033 0.33000
C 	C 	0.98105 0.92415 0.05237 0.10900
N 	N 	0.96607 0.95368 0.04064 -0.17300
C 	C 	0.93199 0.95255 0.05543 0.10900
C 	C 	0.90399 0.97543 0.03758 -0.07700
C 	C 	0.91197 0.01139 0.03071 0.11300
C 	C 	0.86744 0.96292 0.02884 0.05800
C 	C 	0.86139 0.93937 0.99434 -0.06100
C 	C 	0.82651 0.92927 0.98405 -0.07200
C 	C 	0.79751 0.94273 0.00811 0.08100
C 	C 	0.83845 0.97583 0.05351 -0.04100
N 	N 	0.93979 0.02682 0.05098 -0.13100
C 	C 	0.89860 0.03046 0.99489 -0.07700
C 	C 	0.94350 0.05621 0.02844 0.11800
C 	C 	0.97465 0.07855 0.03432 -0.08900
C 	C 	0.97110 0.11458 0.02316 0.08100
C 	C 	0.94050 0.16759 0.03349 0.00500
C 	C 	0.99135 0.12882 0.98763 -0.09200
C 	C 	0.98588 0.16227 0.97470 -0.01800
C 	C 	0.96011 0.18162 0.99723 -0.01200
N 	N 	0.02300 0.03630 0.04230 -0.17300
C 	C 	0.05719 0.03707 0.05679 0.10400
C 	C 	0.06420 0.06689 0.07903 -0.05400
C 	C 	0.03275 0.08508 0.07790 -0.06000
C 	C 	0.08506 0.01420 0.03896 -0.06700
C 	C 	0.12268 0.02525 0.03556 0.02500
C 	C 	0.18506 0.01686 0.05539 -0.03300
C 	C 	0.19520 0.04001 0.02146 0.02200
C 	C 	0.16889 0.05663 0.99565 -0.08500
C 	C 	0.13272 0.04923 0.00264 0.01200
N 	N 	0.04928 0.96229 0.04954 -0.12900
C 	C 	0.06901 0.93278 0.98919 -0.08000
C 	C 	0.04538 0.93384 0.02552 0.11600
C 	C 	0.01406 0.91157 0.03049 -0.08100
C 	C 	0.01672 0.87617 0.01643 0.07900
C 	C 	0.04268 0.85518 0.03616 -0.06400
C 	C 	0.04509 0.82165 0.02313 -0.00400
C 	C 	0.02166 0.80890 0.99015 0.00800
C 	C 	0.99591 0.82994 0.97011 -0.02800
C 	C 	0.99349 0.86350 0.98315 -0.08700
C 	C 	0.95649 0.90395 0.07495 -0.05700
C 	C 	0.92508 0.92212 0.07691 -0.05700
C 	C 	0.80363 0.96571 0.04326 -0.05200
C 	C 	0.91883 0.05927 0.99348 -0.08000
C 	C 	0.00804 0.06547 0.05505 0.11600
C 	C 	0.08881 0.96181 0.99138 -0.07600
C 	C 	0.07615 0.97900 0.02884 0.11100
C 	C 	0.14895 0.00954 0.06245 -0.03600
H 	H 	0.97498 0.96889 0.01369 0.09900
H 	H 	0.01390 0.02176 0.01512 0.10000
H 	H 	0.06488 0.80548 0.03897 0.05800
H 	H 	0.97760 0.82021 0.94478 0.04600
H 	H 	0.06072 0.86477 0.06189 0.06400
H 	H 	0.97349 0.87960 0.96759 0.05300
H 	H 	0.82200 0.91137 0.95702 0.05900
H 	H 	0.84291 0.99393 0.08031 0.05800
H 	H 	0.78136 0.97604 0.06218 0.06600
H 	H 	0.88363 0.92929 0.97512 0.04700
H 	H 	0.00133 0.17303 0.94691 0.04900
H 	H 	0.01087 0.11384 0.96960 0.05800
C 	C 	0.94591 0.13418 0.04633 -0.06900
H 	H 	0.92081 0.18250 0.05133 0.05400
H 	H 	0.20520 0.00409 0.07567 0.05900
H 	H 	0.14140 0.99111 0.08810 0.05700
H 	H 	0.11261 0.06147 0.98172 0.02300
H 	H 	0.17650 0.07464 0.96948 0.06000
H 	H 	0.95800 0.87689 0.07743 0.06100
H 	H 	0.89881 0.91114 0.08116 0.06000
H 	H 	0.88393 0.02052 0.96613 0.05500
H 	H 	0.92204 0.07514 0.96356 0.05500
H 	H 	0.09047 0.07776 0.08347 0.06000
H 	H 	0.03124 0.11205 0.08121 0.06300
H 	H 	0.06504 0.91833 0.95845 0.05600
H 	H 	0.10262 0.97319 0.96268 0.05500
H 	H 	0.93028 0.12339 0.07395 0.06600
C 	C 	0.93791 0.28478 0.96742 -0.02000
C 	C 	0.96940 0.27545 0.99030 -0.02400
C 	C 	0.97715 0.24167 0.99817 -0.04300
C 	C 	0.95371 0.21669 0.98306 -0.01600
C 	C 	0.92284 0.22578 0.95772 0.09200
C 	C 	0.91503 0.25990 0.95050 -0.04900
H 	H 	0.00101 0.23489 0.01712 0.08000
H 	H 	0.89121 0.26701 0.93163 0.08500
H 	H 	0.98758 0.29440 0.00286 0.10700
N 	N 	0.90091 0.20201 0.93992 -0.19500
H 	H 	0.90710 0.17653 0.94228 0.09700
H 	H 	0.87773 0.20896 0.92229 0.10600
C 	C 	0.91509 0.41772 0.77161 0.00100
C 	C 	0.93397 0.44657 0.75855 0.08900
C 	C 	0.94423 0.47027 0.79182 -0.13700
C 	C 	0.93676 0.46365 0.83810 0.08200
C 	C 	0.91824 0.43457 0.85127 -0.02200
C 	C 	0.90548 0.41224 0.81750 -0.06600
C 	C 	0.88216 0.38236 0.83011 0.77000
H 	H 	0.90764 0.39968 0.74581 0.09000
H 	H 	0.94564 0.48093 0.86413 0.07200
C 	C 	0.96273 0.50269 0.77792 0.79400
F 	F 	0.86486 0.36971 0.79214 -0.43600
F 	F 	0.85617 0.39155 0.86123 -0.44900
F 	F 	0.90312 0.35722 0.84883 -0.44000
F 	F 	0.94046 0.52138 0.74988 -0.46400
F 	F 	0.99387 0.49551 0.75464 -0.46500
F 	F 	0.97150 0.52206 0.81531 -0.44700
C 	C 	0.97936 0.40776 0.16298 0.01800
C 	C 	0.95183 0.40558 0.19542 0.09900
C 	C 	0.91808 0.39290 0.18219 -0.14100
C 	C 	0.90997 0.39083 0.13546 0.08400
C 	C 	0.93647 0.39699 0.10250 -0.01500
C 	C 	0.97237 0.40143 0.11669 -0.05200
C 	C 	0.00316 0.39964 0.08305 0.78200
H 	H 	0.00589 0.41537 0.17356 0.12100
H 	H 	0.88282 0.38549 0.12476 0.07900
C 	C 	0.89028 0.38264 0.21733 0.79200
F 	F 	0.03439 0.39014 0.10504 -0.42000
F 	F 	0.00844 0.43073 0.06294 -0.39400
F 	F 	0.99631 0.37627 0.04948 -0.43100
F 	F 	0.86913 0.40991 0.22794 -0.44500
F 	F 	0.90628 0.37051 0.25678 -0.44000
F 	F 	0.86862 0.35752 0.20030 -0.43200
C 	C 	0.02602 0.70325 0.96533 -0.00500
C 	C 	0.99946 0.71693 0.99347 -0.07100
C 	C 	0.99773 0.75144 0.00026 0.04800
C 	C 	0.02242 0.77291 0.97907 -0.06100
C 	C 	0.04875 0.75952 0.94952 0.11000
C 	C 	0.05047 0.72464 0.94317 -0.06500
H 	H 	0.97746 0.76153 0.02276 0.04600
H 	H 	0.07061 0.71428 0.92070 0.07700
H 	H 	0.98036 0.70078 0.01066 0.11900
N 	N 	0.07208 0.77991 0.92690 -0.19900
H 	H 	0.07048 0.80598 0.92921 0.09800
H 	H 	0.09181 0.76975 0.90585 0.10400
C 	C 	0.05806 0.60256 0.79811 0.08700
C 	C 	0.05684 0.57801 0.83270 -0.02000
C 	C 	0.05944 0.54363 0.82124 -0.05400
C 	C 	0.06073 0.53464 0.77489 0.02000
C 	C 	0.05717 0.55910 0.74052 0.10100
C 	C 	0.05974 0.59337 0.75195 -0.14200
C 	C 	0.06255 0.62028 0.71520 0.79300
H 	H 	0.05691 0.62884 0.80719 0.07300
H 	H 	0.06217 0.50848 0.76541 0.11500
C 	C 	0.06022 0.51662 0.85819 0.77900
F 	F 	0.07899 0.64871 0.73205 -0.43600
F 	F 	0.02872 0.62883 0.70007 -0.44200
F 	F 	0.08263 0.60910 0.67864 -0.44100
F 	F 	0.03096 0.51987 0.88674 -0.44600
F 	F 	0.09123 0.51959 0.88357 -0.43500
F 	F 	0.05933 0.48473 0.83989 -0.42000
C 	C 	0.01865 0.59247 0.16389 0.00400
C 	C 	0.01053 0.55894 0.17407 0.08100
C 	C 	0.00372 0.53624 0.13814 -0.13300
C 	C 	0.01046 0.54646 0.09287 0.07100
C 	C 	0.01892 0.57999 0.08259 -0.01800
C 	C 	0.01996 0.60385 0.11835 -0.07500
C 	C 	0.02197 0.64126 0.10852 0.77500
H 	H 	0.02323 0.60985 0.19156 0.08700
H 	H 	0.00933 0.52829 0.06558 0.09100
C 	C 	0.99039 0.50094 0.14782 0.78600
F 	F 	0.00995 0.65954 0.14550 -0.44200
F 	F 	0.00074 0.64977 0.07150 -0.45600
F 	F 	0.05698 0.65034 0.09970 -0.43800
F 	F 	0.96376 0.50126 0.18057 -0.47100
F 	F 	0.01845 0.48127 0.16306 -0.44700
F 	F 	0.97620 0.48657 0.10893 -0.44400
C 	C 	0.68826 0.91681 0.98189 -0.04900
C 	C 	0.71055 0.89508 0.00687 0.00800
C 	C 	0.74640 0.90326 0.01403 0.01100
C 	C 	0.76059 0.93314 0.99611 -0.08200
C 	C 	0.73867 0.95457 0.96921 0.11300
C 	C 	0.70250 0.94628 0.96266 -0.04800
H 	H 	0.76308 0.88663 0.03430 0.04600
H 	H 	0.68556 0.96271 0.94239 0.08700
H 	H 	0.69999 0.87207 0.02143 0.06400
N 	N 	0.75218 0.98282 0.94933 -0.19900
H 	H 	0.77928 0.98883 0.95159 0.09900
H 	H 	0.73561 0.99881 0.93035 0.11300
C 	C 	0.59017 0.91838 0.83512 0.09000
C 	C 	0.55580 0.91462 0.85377 -0.00800
C 	C 	0.52546 0.91774 0.82494 -0.05800
C 	C 	0.53003 0.92980 0.78005 0.02900
C 	C 	0.56434 0.93571 0.76237 0.10100
C 	C 	0.59471 0.92683 0.78873 -0.13600
C 	C 	0.63197 0.92709 0.76821 0.79100
H 	H 	0.61339 0.91510 0.85690 0.07600
H 	H 	0.50685 0.93550 0.75916 0.11100
C 	C 	0.48813 0.90947 0.84206 0.77200
F 	F 	0.65430 0.90536 0.79188 -0.43700
F 	F 	0.64614 0.95903 0.77047 -0.44100
F 	F 	0.63123 0.91694 0.72311 -0.44100
F 	F 	0.47504 0.93605 0.86704 -0.45400
F 	F 	0.48852 0.88085 0.86913 -0.47400
F 	F 	0.46503 0.90367 0.80600 -0.43600
C 	C 	0.53794 0.97542 0.16406 0.01000
C 	C 	0.53893 0.95127 0.19916 0.08500
C 	C 	0.53889 0.91674 0.18836 -0.13200
C 	C 	0.53886 0.90712 0.14222 0.07800
C 	C 	0.53885 0.93126 0.10712 -0.01300
C 	C 	0.53742 0.96579 0.11791 -0.06300
C 	C 	0.53778 0.99239 0.08043 0.78000
H 	H 	0.53815 0.00177 0.17285 0.08000
H 	H 	0.53942 0.88080 0.13338 0.07900
C 	C 	0.53934 0.89021 0.22595 0.79100
F 	F 	0.52904 0.02370 0.09724 -0.43100
F 	F 	0.51329 0.98468 0.04668 -0.44500
F 	F 	0.57156 0.99410 0.06137 -0.42900
F 	F 	0.50973 0.89396 0.25373 -0.43600
F 	F 	0.56999 0.89351 0.25195 -0.44100
F 	F 	0.53870 0.85806 0.20849 -0.43500
C 	C 	0.23334 0.04540 0.01131 0.08800
C 	C 	0.25007 0.07528 0.02410 -0.09100
C 	C 	0.28661 0.07978 0.01641 0.09000
C 	C 	0.30686 0.05449 0.99566 -0.14300
C 	C 	0.28971 0.02484 0.98065 0.17700
C 	C 	0.25310 0.02028 0.98958 -0.14700
H 	H 	0.29941 0.10270 0.02748 0.04200
H 	H 	0.23991 0.99741 0.97903 0.07700
H 	H 	0.23486 0.09482 0.04071 0.07500
N 	N 	0.30784 0.00130 0.95650 -0.20700
H 	H 	0.33389 0.00552 0.94502 0.10600
H 	H 	0.29529 0.97898 0.94711 0.10500
C 	C 	0.47130 0.05099 0.85238 0.07800
C 	C 	0.44235 0.07226 0.86113 -0.02200
C 	C 	0.42716 0.09154 0.82518 -0.06500
C 	C 	0.44234 0.08991 0.78123 -0.00000
C 	C 	0.47101 0.06828 0.77237 0.08800
C 	C 	0.48563 0.04843 0.80815 -0.13500
C 	C 	0.51686 0.02502 0.79935 0.79200
H 	H 	0.48258 0.03638 0.88025 0.06800
H 	H 	0.43173 0.10524 0.75365 0.09000
C 	C 	0.39525 0.11422 0.83374 0.77100
F 	F 	0.52563 0.00614 0.83767 -0.43700
F 	F 	0.54655 0.04354 0.78670 -0.45900
F 	F 	0.50824 0.00312 0.76474 -0.46800
F 	F 	0.40562 0.14082 0.86069 -0.44000
F 	F 	0.36837 0.09652 0.85570 -0.43800
F 	F 	0.38130 0.12701 0.79337 -0.43600
C 	C 	0.45740 0.10168 0.12813 0.08200
C 	C 	0.44417 0.07136 0.11107 -0.00300
C 	C 	0.44470 0.04214 0.13892 -0.06000
C 	C 	0.46189 0.04319 0.18158 0.01200
C 	C 	0.47485 0.07353 0.19883 0.08500
C 	C 	0.47176 0.10334 0.17250 -0.12900
C 	C 	0.48468 0.13666 0.19109 0.79100
H 	H 	0.45675 0.12390 0.10656 0.08100
H 	H 	0.46486 0.02046 0.20182 0.07800
C 	C 	0.42672 0.01000 0.12355 0.76700
F 	F 	0.47543 0.16318 0.16262 -0.43700
F 	F 	0.52150 0.13611 0.19529 -0.43600
F 	F 	0.46960 0.14241 0.23347 -0.44100
F 	F 	0.44675 0.99532 0.08948 -0.44100
F 	F 	0.39279 0.01682 0.10710 -0.45300
F 	F 	0.42334 0.98719 0.15924 -0.43700
C 	C 	0.42910 0.20472 0.00715 -0.03400
C 	C 	0.46401 0.21723 0.00289 0.02000
C 	C 	0.47014 0.25177 0.00212 0.00800
C 	C 	0.44153 0.27432 0.00598 -0.04300
C 	C 	0.40630 0.26189 0.01189 0.10700
C 	C 	0.40039 0.22709 0.01192 -0.04000
H 	H 	0.49717 0.26109 0.99794 0.03700
H 	H 	0.37347 0.21746 0.01613 0.07900
H 	H 	0.48641 0.20021 0.99950 0.05500
N 	N 	0.37824 0.28309 0.01807 -0.19600
H 	H 	0.38191 0.30895 0.02062 0.10400
H 	H 	0.35228 0.27369 0.02146 0.10900
C 	C 	0.24812 0.55979 0.99852 0.03200
C 	C 	0.22192 0.53808 0.98159 -0.05500
C 	C 	0.18590 0.54713 0.98292 0.00700
C 	C 	0.17540 0.57780 0.00200 -0.06600
C 	C 	0.20162 0.59903 0.02156 0.14000
C 	C 	0.23795 0.59032 0.01815 -0.08300
H 	H 	0.16613 0.53049 0.96834 0.08100
H 	H 	0.25821 0.60698 0.03163 0.06800
H 	H 	0.22951 0.51423 0.96701 0.06300
N 	N 	0.19209 0.62688 0.04515 -0.20100
H 	H 	0.16551 0.63149 0.05399 0.13100
H 	H 	0.21163 0.64323 0.05741 0.10900
C 	C 	0.72591 0.44565 0.98851 0.07600
C 	C 	0.73747 0.41274 0.99693 -0.10100
C 	C 	0.77392 0.40505 0.99619 0.03900
C 	C 	0.79926 0.43012 0.98676 -0.11200
C 	C 	0.78761 0.46326 0.97673 0.15400
C 	C 	0.75100 0.47086 0.97899 -0.12300
H 	H 	0.78252 0.37961 0.00343 0.06700
H 	H 	0.74197 0.49628 0.97230 0.07000
H 	H 	0.71820 0.39310 0.00401 0.08800
N 	N 	0.81115 0.48746 0.96341 -0.20300
H 	H 	0.83776 0.48186 0.95610 0.08000
H 	H 	0.80245 0.51208 0.95798 0.09300
C 	C 	0.52904 0.79974 0.98888 -0.05400
C 	C 	0.55745 0.77966 0.00440 0.01400
C 	C 	0.55421 0.74478 0.00522 -0.00400
C 	C 	0.52263 0.72937 0.99043 -0.04600
C 	C 	0.49374 0.74940 0.97467 0.09500
C 	C 	0.49719 0.78451 0.97427 -0.04400
H 	H 	0.57641 0.72963 0.01723 0.05300
H 	H 	0.47505 0.79990 0.96260 0.07200
H 	H 	0.58225 0.79103 0.01548 0.06000
N 	N 	0.46285 0.73517 0.95974 -0.19600
H 	H 	0.45954 0.70919 0.95898 0.09500
H 	H 	0.44168 0.75018 0.94837 0.10200
