data_crystal

_cell_length_a 18.69421
_cell_length_b 18.83242
_cell_length_c 26.58925
_cell_angle_alpha 95.44559
_cell_angle_beta  95.44726
_cell_angle_gamma 126.42576

_symmetry_space_group_name_	'P 1'
_symmetry_space_group_name_H-M	'P 1'

loop_
_symmetry_equiv_pos_as_xyz
  x,y,z

loop_
_atom_site_label
_atom_site_type_symbol
_atom_site_fract_x
_atom_site_fract_y
_atom_site_fract_z
_atom_site_charge
C 	C 	0.94402 0.03419 0.98411 0.04900
C 	C 	0.03658 0.07785 0.98451 -0.09200
C 	C 	0.06958 0.02753 0.98084 0.05000
C 	C 	0.01038 0.93434 0.97745 -0.09200
C 	C 	0.91865 0.89127 0.97794 0.04900
C 	C 	0.88498 0.94060 0.97953 -0.09200
H 	H 	0.08266 0.15031 0.98834 0.05700
H 	H 	0.03627 0.89583 0.97618 0.06300
H 	H 	0.81357 0.90673 0.97941 0.06000
C 	C 	0.91629 0.00093 0.45649 0.04600
C 	C 	0.87348 0.90946 0.45755 -0.09000
C 	C 	0.92476 0.87710 0.45993 0.04800
C 	C 	0.01824 0.93625 0.46152 -0.08800
C 	C 	0.06025 0.02657 0.45909 0.05000
C 	C 	0.00940 0.05883 0.45666 -0.08600
H 	H 	0.80136 0.86428 0.45715 0.05800
H 	H 	0.05800 0.91164 0.46378 0.06400
H 	H 	0.04242 0.12918 0.45557 0.06000
Cu	Cu	0.61748 0.20602 0.01424 0.93000
Cu	Cu	0.65069 0.17731 0.89261 0.88100
Cu	Cu	0.66915 0.34653 0.94700 0.90200
Cu	Cu	0.61057 0.36759 0.04634 0.90200
C 	C 	0.64485 0.27823 0.12175 0.32800
O 	O 	0.48343 0.14366 0.01374 -0.34400
C 	C 	0.64349 0.29294 0.83397 0.32500
O 	O 	0.68422 0.34381 0.01840 -0.64100
O 	O 	0.60017 0.21277 0.93976 -0.63700
O 	O 	0.69383 0.16361 0.01690 -0.34500
O 	O 	0.66185 0.10537 0.93199 -0.41000
O 	O 	0.60348 0.31311 0.10837 -0.37700
O 	O 	0.73730 0.47475 0.96068 -0.37400
C 	C 	0.71490 0.51806 0.98856 0.29900
C 	C 	0.44502 0.17994 0.99810 0.28700
O 	O 	0.49487 0.26184 0.98893 -0.38800
O 	O 	0.65285 0.47828 0.01763 -0.38400
O 	O 	0.64707 0.22356 0.08788 -0.34100
C 	C 	0.71665 0.14078 0.97666 0.28300
O 	O 	0.67986 0.35782 0.87459 -0.36900
O 	O 	0.60588 0.20938 0.83877 -0.40000
H 	H 	0.74828 0.38393 0.03631 0.17800
H 	H 	0.53586 0.18180 0.92464 0.17600
Cu	Cu	0.75981 0.34090 0.44674 0.93000
Cu	Cu	0.73252 0.25335 0.55061 0.87200
Cu	Cu	0.62068 0.30201 0.51337 0.89800
Cu	Cu	0.60104 0.35194 0.41297 0.89900
C 	C 	0.69621 0.32234 0.33998 0.33100
O 	O 	0.82138 0.47496 0.45011 -0.34600
C 	C 	0.66889 0.31559 0.62431 0.32400
O 	O 	0.61996 0.27551 0.44170 -0.64000
O 	O 	0.74993 0.35097 0.52011 -0.64000
O 	O 	0.81272 0.27429 0.44831 -0.36100
O 	O 	0.70514 0.17405 0.48984 -0.43400
O 	O 	0.66616 0.36764 0.35466 -0.37500
O 	O 	0.49248 0.24449 0.50425 -0.37300
C 	C 	0.44458 0.24925 0.46675 0.30400
C 	C 	0.78545 0.51238 0.46835 0.29000
O 	O 	0.70142 0.46112 0.47503 -0.39300
O 	O 	0.48279 0.30391 0.43390 -0.38900
O 	O 	0.74574 0.31304 0.37346 -0.34800
C 	C 	0.76851 0.19606 0.46307 0.30100
O 	O 	0.62691 0.32845 0.58755 -0.36400
O 	O 	0.73049 0.30466 0.61566 -0.40200
H 	H 	0.57678 0.21106 0.42558 0.17800
H 	H 	0.79269 0.41140 0.54212 0.18500
C 	C 	0.56679 0.26427 0.74396 0.10200
C 	C 	0.64647 0.31481 0.78185 -0.11500
C 	C 	0.73012 0.38013 0.76827 0.09700
C 	C 	0.73412 0.38965 0.71656 0.10300
C 	C 	0.65743 0.32770 0.67786 -0.11100
C 	C 	0.57254 0.26802 0.69171 0.09600
Br	Br	0.46510 0.18844 0.63926 -0.21300
Br	Br	0.45006 0.19279 0.76387 -0.21300
Br	Br	0.84358 0.48898 0.69869 -0.21300
Br	Br	0.84030 0.45124 0.81930 -0.21800
C 	C 	0.60934 0.20962 0.20045 0.10300
C 	C 	0.66866 0.28245 0.17694 -0.10800
C 	C 	0.74606 0.36284 0.20726 0.09800
C 	C 	0.75952 0.37350 0.26125 0.10600
C 	C 	0.69534 0.30382 0.28482 -0.11100
C 	C 	0.62325 0.22026 0.25446 0.09700
Br	Br	0.54275 0.12120 0.28709 -0.22900
Br	Br	0.50732 0.09667 0.15883 -0.19700
Br	Br	0.86499 0.48378 0.30305 -0.20100
Br	Br	0.83270 0.45859 0.17469 -0.23000
C 	C 	0.86361 0.75043 0.50712 -0.08300
C 	C 	0.88103 0.78098 0.46043 -0.02100
C 	C 	0.87125 0.72416 0.41696 0.07600
C 	C 	0.84747 0.63923 0.42163 -0.03100
C 	C 	0.82975 0.60848 0.46825 -0.09900
C 	C 	0.83952 0.66527 0.51174 0.12400
N 	N 	0.82847 0.63958 0.55827 -0.20100
H 	H 	0.87249 0.79452 0.54058 0.05600
H 	H 	0.83836 0.59515 0.38811 0.06700
N 	N 	0.88306 0.75009 0.37050 -0.19500
H 	H 	0.83309 0.68060 0.58983 0.09500
H 	H 	0.81853 0.58044 0.56405 0.09900
H 	H 	0.89396 0.80966 0.36476 0.09000
H 	H 	0.87854 0.70905 0.33900 0.09900
C 	C 	0.83340 0.12999 0.50636 -0.02100
C 	C 	0.80331 0.14315 0.46032 -0.11600
C 	C 	0.80091 0.10054 0.41261 0.13500
C 	C 	0.83251 0.04874 0.41212 -0.08900
C 	C 	0.86525 0.03800 0.45827 -0.01500
C 	C 	0.86341 0.07704 0.50585 0.06500
N 	N 	0.89074 0.06436 0.55116 -0.19300
H 	H 	0.83333 0.16103 0.54285 0.01700
H 	H 	0.83381 0.01866 0.37570 0.05800
N 	N 	0.76782 0.10823 0.36731 -0.20400
H 	H 	0.89141 0.09534 0.58615 0.08300
H 	H 	0.90948 0.02212 0.55218 0.09000
H 	H 	0.74093 0.14342 0.36623 0.11700
H 	H 	0.76739 0.07741 0.33233 0.10000
C 	C 	0.21685 0.14806 0.50502 -0.08700
C 	C 	0.15818 0.08785 0.45949 -0.01600
C 	C 	0.19366 0.08520 0.41523 0.07100
C 	C 	0.28772 0.13963 0.41831 -0.02400
C 	C 	0.34652 0.19832 0.46419 -0.10600
C 	C 	0.31076 0.20547 0.50737 0.13700
N 	N 	0.36568 0.26909 0.55035 -0.20000
H 	H 	0.18921 0.15113 0.53851 0.06100
H 	H 	0.31532 0.13577 0.38496 0.04500
N 	N 	0.13794 0.03117 0.36972 -0.19200
H 	H 	0.33916 0.27068 0.58295 0.10300
H 	H 	0.43390 0.32030 0.55096 0.11100
H 	H 	0.06772 0.99353 0.36528 0.08800
H 	H 	0.16490 0.02810 0.33762 0.09100
C 	C 	0.81105 0.73125 0.93603 -0.08600
C 	C 	0.85945 0.79578 0.98141 -0.02200
C 	C 	0.85340 0.76849 0.02963 0.07500
C 	C 	0.80268 0.67675 0.03120 -0.01900
C 	C 	0.75740 0.61230 0.98569 -0.10900
C 	C 	0.75797 0.63941 0.93775 0.13500
N 	N 	0.70583 0.57786 0.89364 -0.20000
H 	H 	0.81422 0.75260 0.89929 0.06000
H 	H 	0.80027 0.65553 0.06794 0.04600
N 	N 	0.89647 0.82991 0.07440 -0.19300
H 	H 	0.71031 0.59835 0.85815 0.10000
H 	H 	0.65708 0.50997 0.89435 0.10500
H 	H 	0.93312 0.89868 0.07476 0.08900
H 	H 	0.89253 0.80898 0.10974 0.08900
C 	C 	0.90172 0.12446 0.94874 -0.08000
C 	C 	0.90850 0.08614 0.98986 -0.02600
C 	C 	0.86619 0.08322 0.03185 0.07800
C 	C 	0.80581 0.10455 0.02801 -0.02100
C 	C 	0.79195 0.13439 0.98436 -0.10500
C 	C 	0.84643 0.15201 0.94665 0.11300
N 	N 	0.84798 0.19755 0.90948 -0.19800
H 	H 	0.93768 0.13079 0.91770 0.05300
H 	H 	0.76808 0.09580 0.05846 0.06100
N 	N 	0.88293 0.05950 0.07565 -0.19400
H 	H 	0.88439 0.20588 0.88017 0.08300
H 	H 	0.81838 0.23019 0.91130 0.03900
H 	H 	0.93279 0.05028 0.08110 0.08900
H 	H 	0.84863 0.05375 0.10570 0.09200
C 	C 	0.22134 0.10231 0.03338 -0.08000
C 	C 	0.16726 0.07267 0.98456 -0.02400
C 	C 	0.20350 0.07322 0.94008 0.07500
C 	C 	0.29290 0.10195 0.94548 -0.02500
C 	C 	0.34710 0.13182 0.99434 -0.10700
C 	C 	0.31059 0.13083 0.03882 0.13100
N 	N 	0.36069 0.15701 0.08677 -0.20600
H 	H 	0.19287 0.10048 0.06737 0.05600
H 	H 	0.32141 0.10406 0.91147 0.04700
N 	N 	0.15338 0.04759 0.89220 -0.19400
H 	H 	0.33390 0.15816 0.11934 0.09800
H 	H 	0.42553 0.17422 0.09232 0.11800
H 	H 	0.08866 0.03090 0.88683 0.09200
H 	H 	0.17995 0.04628 0.85956 0.09500
