data_crystal

_cell_length_a 16.13738
_cell_length_b 16.07022
_cell_length_c 34.27535
_cell_angle_alpha 90.98616
_cell_angle_beta  91.09012
_cell_angle_gamma 113.24772

_symmetry_space_group_name_	'P 1'
_symmetry_space_group_name_H-M	'P 1'

loop_
_symmetry_equiv_pos_as_xyz
  x,y,z

loop_
_atom_site_label
_atom_site_type_symbol
_atom_site_fract_x
_atom_site_fract_y
_atom_site_fract_z
_atom_site_charge
Ni	Ni	0.77268 0.40236 0.88502 1.09600
O 	O 	0.67069 0.29220 0.85912 -0.69900
Ni	Ni	0.55994 0.30173 0.88095 1.09500
O 	O 	0.87277 0.36446 0.86490 -0.37000
O 	O 	0.80323 0.22915 0.89269 -0.41300
O 	O 	0.78963 0.47610 0.83488 -0.37400
Ni	Ni	0.67138 0.17319 0.87179 1.07500
O 	O 	0.78842 0.60455 0.91925 -0.41200
O 	O 	0.63970 0.16786 0.92907 -0.40500
O 	O 	0.46969 0.18988 0.85323 -0.38900
O 	O 	0.66053 0.41128 0.90798 -0.69200
O 	O 	0.86645 0.51411 0.91215 -0.38000
O 	O 	0.45426 0.33406 0.89807 -0.36800
O 	O 	0.52431 0.48157 0.88380 -0.41200
Ni	Ni	0.65903 0.53256 0.90051 1.07200
H 	H 	0.66978 0.29847 0.83045 0.16000
H 	H 	0.65820 0.40034 0.93628 0.15400
C 	C 	0.56180 0.16446 0.94020 0.29600
O 	O 	0.69268 0.54440 0.84359 -0.40600
C 	C 	0.86645 0.28175 0.87062 0.29400
C 	C 	0.47006 0.10971 0.85993 0.29800
C 	C 	0.77195 0.54902 0.83310 0.29500
C 	C 	0.46582 0.41856 0.90437 0.29400
C 	C 	0.83811 0.56435 0.93435 0.28900
O 	O 	0.53712 0.23158 0.93266 -0.38100
O 	O 	0.54253 0.09257 0.85342 -0.40800
Ni	Ni	0.66668 0.25039 0.64390 1.10200
O 	O 	0.73799 0.37749 0.66683 -0.69900
Ni	Ni	0.71562 0.45490 0.62637 1.09900
O 	O 	0.74137 0.19133 0.67307 -0.37400
O 	O 	0.86863 0.30112 0.65112 -0.41000
O 	O 	0.58047 0.22299 0.69057 -0.36800
Ni	Ni	0.86800 0.41933 0.67533 1.07900
O 	O 	0.46307 0.16542 0.61931 -0.41500
O 	O 	0.93110 0.48901 0.62703 -0.39100
O 	O 	0.80854 0.58096 0.64296 -0.38300
O 	O 	0.62879 0.32747 0.60825 -0.69700
O 	O 	0.58596 0.12894 0.61884 -0.37400
O 	O 	0.66419 0.51269 0.58497 -0.37100
O 	O 	0.52089 0.43600 0.60581 -0.41400
Ni	Ni	0.50069 0.30135 0.61420 1.06700
H 	H 	0.71052 0.38593 0.69137 0.16300
H 	H 	0.64016 0.31557 0.58089 0.15200
C 	C 	0.89358 0.48653 0.59235 0.30800
O 	O 	0.51068 0.31661 0.67327 -0.41600
C 	C 	0.82969 0.22591 0.66985 0.28500
C 	C 	0.85971 0.59870 0.67509 0.30100
C 	C 	0.51376 0.25035 0.69446 0.29300
C 	C 	0.57651 0.48417 0.57920 0.28200
C 	C 	0.50853 0.12259 0.60280 0.29100
O 	O 	0.80554 0.44480 0.58681 -0.39600
O 	O 	0.86065 0.53318 0.69756 -0.41400
C 	C 	0.10181 0.02741 0.74225 -0.02900
H 	H 	0.12293 0.04458 0.71173 0.04100
C 	C 	0.05169 0.98764 0.81556 -0.05300
H 	H 	0.02873 0.97065 0.84573 0.04500
C 	C 	0.03851 0.07004 0.75781 -0.01000
C 	C 	0.05147 0.92581 0.74935 -0.01000
C 	C 	0.17999 0.05657 0.77274 -0.00700
C 	C 	0.01767 0.05503 0.79615 0.00400
C 	C 	0.02136 0.90505 0.78685 -0.00200
C 	C 	0.15484 0.02976 0.81058 0.01700
Ni	Ni	0.28739 0.63409 0.41135 1.09900
O 	O 	0.35737 0.75950 0.43676 -0.70500
Ni	Ni	0.33526 0.84069 0.39819 1.09600
O 	O 	0.35543 0.56920 0.44077 -0.36600
O 	O 	0.48948 0.67960 0.42575 -0.41900
O 	O 	0.19556 0.59610 0.45630 -0.36500
Ni	Ni	0.48781 0.80129 0.44530 1.07500
O 	O 	0.08341 0.54648 0.38104 -0.41600
O 	O 	0.54853 0.87323 0.39728 -0.39100
O 	O 	0.42482 0.96229 0.42112 -0.38500
O 	O 	0.25234 0.71484 0.37664 -0.70400
O 	O 	0.21105 0.51541 0.38385 -0.38100
O 	O 	0.27543 0.90570 0.36308 -0.37300
O 	O 	0.14045 0.81878 0.38834 -0.41700
Ni	Ni	0.12402 0.68468 0.38217 1.06400
H 	H 	0.32918 0.76542 0.46149 0.15500
H 	H 	0.26542 0.70563 0.34917 0.15000
C 	C 	0.51340 0.86706 0.36187 0.29700
O 	O 	0.12612 0.69043 0.44130 -0.41700
C 	C 	0.44361 0.60608 0.44481 0.28900
C 	C 	0.45665 0.97030 0.45745 0.28800
C 	C 	0.13020 0.62448 0.46172 0.30200
C 	C 	0.18737 0.88244 0.36457 0.27400
C 	C 	0.13102 0.50099 0.36823 0.28700
O 	O 	0.42559 0.84261 0.35571 -0.39100
O 	O 	0.49689 0.91851 0.47089 -0.40700
Ni	Ni	0.37283 0.71119 0.08907 1.10000
O 	O 	0.24080 0.65875 0.07017 -0.70400
Ni	Ni	0.18032 0.68170 0.11726 1.09700
O 	O 	0.41332 0.63588 0.05063 -0.37400
O 	O 	0.29500 0.50618 0.06604 -0.41800
O 	O 	0.40814 0.81087 0.04734 -0.36800
Ni	Ni	0.18023 0.53125 0.05503 1.07200
O 	O 	0.48261 0.90861 0.11679 -0.41100
O 	O 	0.11599 0.46776 0.10402 -0.39200
O 	O 	0.04942 0.60538 0.10086 -0.38300
O 	O 	0.31344 0.75229 0.13184 -0.70500
O 	O 	0.50066 0.77414 0.11085 -0.37100
O 	O 	0.13998 0.74307 0.16214 -0.37600
O 	O 	0.22113 0.87786 0.13491 -0.41100
Ni	Ni	0.35050 0.88268 0.12787 1.06500
H 	H 	0.23242 0.69531 0.04869 0.15400
H 	H 	0.32997 0.73621 0.15775 0.15400
C 	C 	0.14479 0.49097 0.14026 0.29800
O 	O 	0.31948 0.87973 0.07016 -0.42000
C 	C 	0.36804 0.54780 0.04599 0.28000
C 	C 	0.02469 0.58579 0.06383 0.29200
C 	C 	0.37468 0.87321 0.04417 0.30200
C 	C 	0.16867 0.83234 0.16268 0.27000
C 	C 	0.52446 0.85566 0.12729 0.27500
O 	O 	0.18163 0.57739 0.15163 -0.38900
O 	O 	0.06785 0.55155 0.03995 -0.41000
C 	C 	0.93228 0.07724 0.21471 -0.04600
H 	H 	0.93991 0.07456 0.18261 0.05000
C 	C 	0.91423 0.08197 0.29172 -0.04000
H 	H 	0.90615 0.08564 0.32369 0.04900
C 	C 	0.97624 0.02344 0.23835 0.01100
C 	C 	0.97126 0.17362 0.23366 0.00400
C 	C 	0.83429 0.03750 0.22809 0.00700
C 	C 	0.96934 0.02781 0.27821 -0.00300
C 	C 	0.96448 0.17500 0.27359 0.00100
C 	C 	0.82418 0.03971 0.26777 0.00200
C 	C 	0.11453 0.41888 0.16980 -0.08600
C 	C 	0.04673 0.41591 0.19550 -0.01200
C 	C 	0.99496 0.33522 0.21424 0.00600
C 	C 	0.01638 0.25782 0.21006 0.00800
C 	C 	0.08408 0.26120 0.18422 -0.07100
C 	C 	0.13490 0.34155 0.16528 0.05000
S 	S 	0.89774 0.32958 0.23846 -0.04200
S 	S 	0.22493 0.34476 0.13629 -0.05500
H 	H 	0.19393 0.31884 0.09868 0.03900
H 	H 	0.83635 0.33706 0.21213 0.03500
H 	H 	0.02891 0.47406 0.19837 0.04200
H 	H 	0.09903 0.20200 0.17954 0.04900
C 	C 	0.61130 0.89695 0.14891 -0.08600
C 	C 	0.66481 0.98894 0.14386 -0.02400
C 	C 	0.73574 0.03597 0.17012 0.00900
C 	C 	0.75835 0.98926 0.20017 0.00300
C 	C 	0.71240 0.89500 0.20188 -0.06800
C 	C 	0.63593 0.84949 0.17814 0.04900
S 	S 	0.79212 0.15375 0.16609 -0.03900
S 	S 	0.56883 0.73521 0.18721 -0.05700
H 	H 	0.50656 0.73126 0.21453 0.02500
H 	H 	0.73948 0.19391 0.18203 0.03400
H 	H 	0.64819 0.02515 0.12062 0.05200
H 	H 	0.73472 0.85730 0.22225 0.05300
C 	C 	0.02418 0.97221 0.21903 -0.01200
C 	C 	0.10929 0.02029 0.20392 -0.05300
C 	C 	0.16241 0.97497 0.19135 0.04400
C 	C 	0.12448 0.87921 0.18723 -0.08500
C 	C 	0.03859 0.83053 0.20200 -0.02100
C 	C 	0.98957 0.87645 0.21897 0.01300
S 	S 	0.27828 0.03844 0.18449 -0.08800
S 	S 	0.88620 0.81330 0.24040 -0.05100
H 	H 	0.90201 0.79576 0.27814 0.03000
H 	H 	0.32711 0.03698 0.21737 0.03000
H 	H 	0.13812 0.09353 0.20581 0.04500
H 	H 	0.00944 0.75715 0.20005 0.04700
C 	C 	0.57647 0.90080 0.32912 -0.08300
C 	C 	0.59716 0.98886 0.31570 -0.02400
C 	C 	0.67570 0.03354 0.29435 0.01000
C 	C 	0.73527 0.99054 0.28684 0.00300
C 	C 	0.71060 0.90015 0.29755 -0.06800
C 	C 	0.63157 0.85506 0.31820 0.04800
S 	S 	0.69728 0.14200 0.27667 -0.04800
S 	S 	0.60238 0.74115 0.33024 -0.05800
H 	H 	0.54983 0.68613 0.30060 0.03300
H 	H 	0.73599 0.20592 0.30576 0.03500
H 	H 	0.55448 0.02420 0.32331 0.04900
H 	H 	0.75279 0.86461 0.28977 0.04900
C 	C 	0.08623 0.41832 0.34385 -0.10000
C 	C 	0.13819 0.39429 0.31710 -0.00400
C 	C 	0.10215 0.31117 0.29689 -0.00400
C 	C 	0.00894 0.25737 0.29870 0.01400
C 	C 	0.95737 0.27980 0.32612 -0.07300
C 	C 	0.99608 0.35779 0.34978 0.06300
S 	S 	0.17650 0.26963 0.27511 -0.04300
S 	S 	0.93436 0.37243 0.38919 -0.04800
H 	H 	0.95428 0.33503 0.42182 0.04600
H 	H 	0.21721 0.32202 0.24433 0.03600
H 	H 	0.20861 0.43815 0.31377 0.03400
H 	H 	0.88738 0.23523 0.32967 0.05100
C 	C 	0.03170 0.00686 0.30587 0.01800
C 	C 	0.12430 0.03705 0.29804 -0.07400
C 	C 	0.17906 0.00050 0.31745 0.06000
C 	C 	0.14379 0.94167 0.34872 -0.09600
C 	C 	0.05735 0.92838 0.36174 -0.01500
C 	C 	0.99936 0.95485 0.33929 -0.00700
S 	S 	0.29184 0.03370 0.30357 -0.04300
S 	S 	0.88644 0.91893 0.35298 -0.04500
H 	H 	0.84072 0.82968 0.34210 0.03100
H 	H 	0.34522 0.10960 0.32484 0.04300
H 	H 	0.15323 0.08688 0.27617 0.05600
H 	H 	0.03244 0.89104 0.38802 0.04100
C 	C 	0.38241 0.01899 0.50843 -0.04500
C 	C 	0.45443 0.04217 0.48305 -0.09700
C 	C 	0.53714 0.11159 0.49463 0.11000
C 	C 	0.55553 0.13435 0.53433 -0.05000
C 	C 	0.48855 0.09454 0.56170 -0.12000
C 	C 	0.39964 0.03898 0.54848 0.10500
N 	N 	0.33254 0.00020 0.57408 -0.19900
H 	H 	0.31594 0.97220 0.49829 0.03000
H 	H 	0.62198 0.18199 0.54394 0.02500
N 	N 	0.60137 0.15118 0.46806 -0.20100
H 	H 	0.26668 0.96190 0.56388 0.07700
H 	H 	0.34562 0.00381 0.60414 0.09800
H 	H 	0.58805 0.13512 0.43829 0.09900
H 	H 	0.66429 0.20034 0.47685 0.08200
C 	C 	0.91861 0.50457 0.52030 -0.04600
C 	C 	0.95233 0.52929 0.55874 -0.08400
C 	C 	0.04341 0.59184 0.56475 0.10100
C 	C 	0.10224 0.61349 0.53316 -0.03900
C 	C 	0.06824 0.59025 0.49478 -0.09600
C 	C 	0.97399 0.54036 0.48830 0.11000
N 	N 	0.93568 0.52955 0.45190 -0.19700
H 	H 	0.84841 0.46001 0.51510 0.05200
H 	H 	0.17321 0.65562 0.53824 0.04200
N 	N 	0.07186 0.63822 0.59928 -0.19700
H 	H 	0.86688 0.49014 0.44737 0.08200
H 	H 	0.97186 0.56439 0.42831 0.07600
H 	H 	0.02592 0.64650 0.61837 0.09900
H 	H 	0.14051 0.67641 0.60493 0.08300
C 	C 	0.49333 0.56846 0.54959 -0.03900
C 	C 	0.54106 0.51309 0.54457 -0.10100
C 	C 	0.56112 0.49219 0.50645 0.09900
C 	C 	0.53447 0.52912 0.47412 -0.03800
C 	C 	0.48568 0.58353 0.47916 -0.10700
C 	C 	0.46706 0.60560 0.51732 0.09400
N 	N 	0.42563 0.66368 0.52316 -0.19400
H 	H 	0.47915 0.58524 0.57882 0.04700
H 	H 	0.54836 0.51218 0.44488 0.04300
N 	N 	0.60309 0.43448 0.50063 -0.19800
H 	H 	0.40843 0.67635 0.55124 0.07900
H 	H 	0.41379 0.69979 0.50029 0.02800
H 	H 	0.61586 0.39888 0.52353 0.07000
H 	H 	0.62036 0.42197 0.47254 0.08100
C 	C 	0.98912 0.10835 0.73138 0.03400
C 	C 	0.02042 0.20260 0.72879 -0.09400
C 	C 	0.96645 0.24213 0.71119 0.08100
C 	C 	0.88544 0.18661 0.69100 -0.10600
C 	C 	0.85716 0.09257 0.69132 0.00700
C 	C 	0.90415 0.05309 0.71382 -0.01300
S 	S 	0.99513 0.35898 0.71915 -0.13800
S 	S 	0.84760 0.93871 0.72554 -0.03900
H 	H 	0.76863 0.92638 0.74349 0.03400
H 	H 	0.04801 0.40623 0.68961 0.02900
H 	H 	0.08310 0.24538 0.74360 0.06300
H 	H 	0.79451 0.04976 0.67639 0.04300
C 	C 	0.27597 0.10723 0.76089 0.02200
C 	C 	0.32005 0.05940 0.74156 -0.06700
C 	C 	0.40010 0.10463 0.72176 0.05300
C 	C 	0.43730 0.20058 0.72041 -0.09000
C 	C 	0.39502 0.24880 0.74076 -0.00900
C 	C 	0.31435 0.20308 0.76034 -0.00400
S 	S 	0.44866 0.03903 0.69678 -0.02600
S 	S 	0.26005 0.26700 0.78179 -0.03900
H 	H 	0.30356 0.30389 0.81653 0.04100
H 	H 	0.51725 0.03324 0.71921 0.04500
H 	H 	0.28941 0.98660 0.73989 0.04800
H 	H 	0.42319 0.32220 0.74031 0.03900
C 	C 	0.92686 0.69080 0.68315 -0.09200
C 	C 	0.00626 0.70139 0.70392 -0.00700
C 	C 	0.06190 0.78576 0.71966 -0.00600
C 	C 	0.03329 0.85749 0.71712 0.01400
C 	C 	0.97201 0.85348 0.68721 -0.07000
C 	C 	0.91288 0.76915 0.67224 0.05700
S 	S 	0.17500 0.80661 0.72993 -0.05500
S 	S 	0.82175 0.76331 0.64159 -0.03600
H 	H 	0.84701 0.76837 0.60347 0.04400
H 	H 	0.18203 0.76079 0.76231 0.03200
H 	H 	0.02530 0.64423 0.70726 0.03000
H 	H 	0.96839 0.91503 0.67664 0.05300
C 	C 	0.90834 0.66091 0.99264 -0.03700
C 	C 	0.86020 0.57408 0.97622 -0.10500
C 	C 	0.83753 0.49736 0.00033 0.08900
C 	C 	0.87127 0.51021 0.03879 -0.03700
C 	C 	0.94203 0.59169 0.04951 -0.09300
C 	C 	0.94899 0.67016 0.02986 0.10100
N 	N 	0.00085 0.75359 0.04506 -0.20300
H 	H 	0.91942 0.72038 0.97557 0.04800
H 	H 	0.85725 0.45193 0.05702 0.04800
N 	N 	0.78998 0.41176 0.98612 -0.19200
H 	H 	0.00946 0.81180 0.02960 0.08300
H 	H 	0.03101 0.76109 0.07288 0.08300
H 	H 	0.78822 0.39561 0.95652 0.03500
H 	H 	0.76353 0.35819 0.00524 0.07900
C 	C 	0.47605 0.00122 0.95274 -0.03500
C 	C 	0.50825 0.09158 0.96660 -0.09200
C 	C 	0.49375 0.11023 0.00588 0.10400
C 	C 	0.44560 0.03796 0.03010 -0.03100
C 	C 	0.41396 0.94753 0.01621 -0.10400
C 	C 	0.42595 0.92933 0.97664 0.10700
N 	N 	0.38717 0.84378 0.96103 -0.19700
H 	H 	0.48913 0.98671 0.92304 0.03600
H 	H 	0.43618 0.05208 0.06037 0.03400
N 	N 	0.52881 0.19637 0.02105 -0.19800
H 	H 	0.39903 0.83046 0.93217 0.08500
H 	H 	0.34114 0.79084 0.97653 0.08700
H 	H 	0.57236 0.25045 0.00532 0.09400
H 	H 	0.51532 0.20957 0.04968 0.08300
C 	C 	0.50274 0.48152 0.97192 -0.03900
C 	C 	0.43776 0.44419 0.94178 -0.11800
C 	C 	0.34680 0.43013 0.94806 0.11100
C 	C 	0.32350 0.45742 0.98397 -0.04300
C 	C 	0.38964 0.49957 0.01328 -0.10500
C 	C 	0.47913 0.50746 0.00796 0.10300
N 	N 	0.54202 0.53793 0.03756 -0.19800
H 	H 	0.57184 0.48961 0.96746 -0.01400
H 	H 	0.25457 0.45001 0.98833 0.00700
N 	N 	0.28213 0.39294 0.91952 -0.20200
H 	H 	0.60879 0.54663 0.03301 0.08100
H 	H 	0.52447 0.54934 0.06571 0.09600
H 	H 	0.29764 0.37467 0.89210 0.09500
H 	H 	0.21509 0.38255 0.92449 0.08000
C 	C 	0.97811 0.11114 0.81855 0.03000
C 	C 	0.89081 0.10355 0.80809 -0.08000
C 	C 	0.86183 0.17182 0.81828 0.05400
C 	C 	0.91280 0.24062 0.84523 -0.11100
C 	C 	0.99998 0.24967 0.85587 0.01900
C 	C 	0.03286 0.18534 0.84309 -0.02400
S 	S 	0.76352 0.17287 0.79563 -0.10800
S 	S 	0.13824 0.19469 0.86125 -0.03300
H 	H 	0.13827 0.20015 0.90114 0.03200
H 	H 	0.68942 0.10706 0.81106 -0.01700
H 	H 	0.84734 0.04745 0.78998 0.05900
H 	H 	0.04007 0.30315 0.87643 0.02600
C 	C 	0.21241 0.99956 0.83645 0.00300
C 	C 	0.26017 0.95181 0.82041 -0.07100
C 	C 	0.34745 0.97035 0.83444 0.05400
C 	C 	0.38329 0.03491 0.86491 -0.08900
C 	C 	0.32223 0.05136 0.88931 -0.00600
C 	C 	0.23472 0.03285 0.87516 0.00900
S 	S 	0.41191 0.91679 0.81283 -0.05500
S 	S 	0.14953 0.01556 0.90899 -0.04200
H 	H 	0.17273 0.08947 0.93378 0.03700
H 	H 	0.46152 0.96946 0.78378 0.04000
H 	H 	0.23243 0.90644 0.79590 0.05000
H 	H 	0.34529 0.08682 0.91716 0.04500
C 	C 	0.95769 0.81225 0.79843 0.02000
C 	C 	0.98970 0.74368 0.80407 -0.06500
C 	C 	0.92968 0.65439 0.81163 0.05500
C 	C 	0.83571 0.63375 0.81465 -0.08400
C 	C 	0.80494 0.70272 0.80743 -0.00900
C 	C 	0.86589 0.79270 0.80482 -0.00200
S 	S 	0.97309 0.56981 0.81433 -0.03300
S 	S 	0.83085 0.87781 0.82040 -0.05200
H 	H 	0.84747 0.89349 0.85976 0.03300
H 	H 	0.99999 0.56472 0.85205 0.05200
H 	H 	0.06135 0.75980 0.80308 0.04700
H 	H 	0.73358 0.68838 0.80889 0.04200
