data_crystal

_cell_length_a 18.52311
_cell_length_b 18.74487
_cell_length_c 38.84807
_cell_angle_alpha 95.42258
_cell_angle_beta  95.42266
_cell_angle_gamma 126.42751

_symmetry_space_group_name_	'P 1'
_symmetry_space_group_name_H-M	'P 1'

loop_
_symmetry_equiv_pos_as_xyz
  x,y,z

loop_
_atom_site_label
_atom_site_type_symbol
_atom_site_fract_x
_atom_site_fract_y
_atom_site_fract_z
_atom_site_charge
C 	C 	0.90570 0.99657 0.97773 0.20100
N 	N 	0.99718 0.05027 0.97888 -0.13100
C 	C 	0.04132 0.01349 0.97513 0.18300
N 	N 	0.99424 0.92278 0.97124 -0.12000
C 	C 	0.90344 0.86891 0.97172 0.18800
N 	N 	0.85863 0.90564 0.97455 -0.12100
C 	C 	0.96083 0.04126 0.49699 0.17600
N 	N 	0.90634 0.95325 0.50014 -0.11600
C 	C 	0.94024 0.90608 0.50066 0.18500
N 	N 	0.02900 0.94725 0.49857 -0.11600
C 	C 	0.08418 0.03572 0.49624 0.18000
N 	N 	0.05006 0.08282 0.49525 -0.11700
Cu	Cu	0.74719 0.33448 0.96243 0.93300
Cu	Cu	0.71706 0.26385 0.03717 0.88900
Cu	Cu	0.61006 0.31595 0.00483 0.90600
Cu	Cu	0.56963 0.31152 0.92759 0.91300
C 	C 	0.68172 0.28464 0.88760 0.29600
O 	O 	0.79152 0.46196 0.95720 -0.33200
C 	C 	0.65345 0.33943 0.08175 0.29000
O 	O 	0.60517 0.26170 0.95839 -0.63300
O 	O 	0.73730 0.35623 0.01162 -0.64000
O 	O 	0.81122 0.27975 0.97134 -0.33900
O 	O 	0.70207 0.17994 0.00010 -0.40700
O 	O 	0.64472 0.32603 0.89178 -0.35800
O 	O 	0.48871 0.28681 0.99702 -0.35000
C 	C 	0.42441 0.23410 0.96895 0.33100
C 	C 	0.74536 0.49324 0.96440 0.31600
O 	O 	0.65764 0.43724 0.96539 -0.37200
O 	O 	0.44446 0.23608 0.93726 -0.36200
O 	O 	0.73770 0.29234 0.91391 -0.33500
C 	C 	0.76952 0.20387 0.98350 0.33100
O 	O 	0.61740 0.35365 0.05467 -0.34500
O 	O 	0.71460 0.32515 0.07885 -0.38800
H 	H 	0.56662 0.19494 0.95407 0.17800
H 	H 	0.78299 0.41897 0.02465 0.20100
Cu	Cu	0.62731 0.20274 0.50403 0.93400
Cu	Cu	0.69012 0.22323 0.42729 0.89100
Cu	Cu	0.67361 0.35443 0.46497 0.90600
Cu	Cu	0.63724 0.36803 0.53770 0.90900
C 	C 	0.67002 0.26081 0.57925 0.29500
O 	O 	0.49591 0.14876 0.50750 -0.33800
C 	C 	0.63361 0.30688 0.38672 0.29400
O 	O 	0.70367 0.34413 0.51175 -0.63900
O 	O 	0.60919 0.22157 0.45571 -0.63900
O 	O 	0.68284 0.14067 0.49467 -0.34900
O 	O 	0.77997 0.24427 0.46368 -0.41200
O 	O 	0.62966 0.29942 0.57529 -0.35300
O 	O 	0.74470 0.48372 0.47666 -0.36300
C 	C 	0.73781 0.52878 0.50268 0.33900
C 	C 	0.46134 0.19073 0.49960 0.32700
O 	O 	0.51572 0.27638 0.49765 -0.37100
O 	O 	0.68592 0.48868 0.52606 -0.36000
O 	O 	0.66401 0.20725 0.55250 -0.33600
C 	C 	0.75912 0.18189 0.48234 0.33600
O 	O 	0.65998 0.36717 0.41537 -0.35900
O 	O 	0.62833 0.23400 0.38844 -0.39200
H 	H 	0.76999 0.38149 0.52133 0.18700
H 	H 	0.54503 0.18578 0.44331 0.20100
C 	C 	0.68232 0.25372 0.85154 -0.06800
C 	C 	0.76474 0.29720 0.83900 0.03800
C 	C 	0.76363 0.28565 0.80278 -0.06300
C 	C 	0.67995 0.22959 0.77888 0.06000
C 	C 	0.59815 0.18024 0.79173 -0.06300
C 	C 	0.59932 0.19226 0.82788 0.02900
C 	C 	0.67635 0.23554 0.74117 -0.04400
C 	C 	0.73185 0.23151 0.72262 -0.04500
C 	C 	0.73080 0.24428 0.68572 0.06000
C 	C 	0.70160 0.17297 0.65847 -0.06200
C 	C 	0.68614 0.17979 0.62337 0.03500
C 	C 	0.70044 0.25842 0.61535 -0.06500
C 	C 	0.73632 0.33217 0.64257 0.02900
C 	C 	0.75141 0.32512 0.67758 -0.06300
H 	H 	0.82932 0.34445 0.85708 0.06000
H 	H 	0.82738 0.32445 0.79326 0.06900
H 	H 	0.53329 0.13616 0.77358 0.06800
H 	H 	0.53536 0.15744 0.83735 0.03900
H 	H 	0.62670 0.24250 0.72821 0.06200
H 	H 	0.77599 0.21649 0.73430 0.06200
H 	H 	0.68703 0.11087 0.66451 0.07100
H 	H 	0.65966 0.12274 0.60262 0.06300
H 	H 	0.75000 0.39405 0.63668 0.04700
H 	H 	0.77620 0.38140 0.69845 0.06900
C 	C 	0.63609 0.35383 0.11708 -0.06800
C 	C 	0.54898 0.32617 0.12132 0.02600
C 	C 	0.52819 0.32608 0.15505 -0.06100
C 	C 	0.59435 0.35411 0.18485 0.05600
C 	C 	0.68271 0.38540 0.18059 -0.06400
C 	C 	0.70364 0.38626 0.14696 0.02600
C 	C 	0.56716 0.33834 0.21968 -0.04400
C 	C 	0.62563 0.39484 0.24958 -0.04400
C 	C 	0.61067 0.36724 0.28434 0.05600
C 	C 	0.57697 0.27904 0.28803 -0.06400
C 	C 	0.57886 0.25792 0.32149 0.02500
C 	C 	0.61689 0.32521 0.35173 -0.07100
C 	C 	0.64637 0.41218 0.34804 0.02500
C 	C 	0.64325 0.43294 0.31454 -0.06100
H 	H 	0.49624 0.30112 0.09849 0.06200
H 	H 	0.45978 0.30151 0.15795 0.07100
H 	H 	0.73408 0.40539 0.20319 0.06200
H 	H 	0.77163 0.40933 0.14411 0.05400
H 	H 	0.49990 0.27801 0.22094 0.05800
H 	H 	0.68722 0.46095 0.24833 0.05800
H 	H 	0.55313 0.22783 0.26506 0.06200
H 	H 	0.55375 0.18997 0.32381 0.05200
H 	H 	0.67498 0.46471 0.37102 0.06800
H 	H 	0.66934 0.50111 0.31206 0.07200
C 	C 	0.81137 0.74608 0.47425 0.08000
C 	C 	0.88076 0.81021 0.50299 -0.04500
C 	C 	0.89726 0.78177 0.53301 0.08100
C 	C 	0.85095 0.68931 0.53289 0.11700
C 	C 	0.78281 0.62518 0.50385 -0.11400
C 	C 	0.75980 0.65371 0.47539 0.11800
Br	Br	0.65510 0.56648 0.43885 -0.17600
Br	Br	0.79053 0.78441 0.43253 -0.13800
Br	Br	0.88433 0.65068 0.57157 -0.18800
Br	Br	0.98115 0.86951 0.57462 -0.13200
C 	C 	0.91739 0.13453 0.52261 0.07900
C 	C 	0.92127 0.08903 0.49275 -0.04300
C 	C 	0.87718 0.07961 0.45923 0.08000
C 	C 	0.82194 0.10781 0.45591 0.12000
C 	C 	0.81587 0.15120 0.48592 -0.12000
C 	C 	0.86575 0.16686 0.51914 0.12000
Br	Br	0.86513 0.23446 0.55960 -0.18500
Br	Br	0.98210 0.15146 0.56825 -0.14600
Br	Br	0.75042 0.08229 0.41063 -0.23500
Br	Br	0.89336 0.02873 0.41789 -0.13800
C 	C 	0.24081 0.11088 0.52943 0.08100
C 	C 	0.18181 0.08142 0.49701 -0.04500
C 	C 	0.21413 0.08624 0.46531 0.08100
C 	C 	0.30530 0.11943 0.46603 0.11600
C 	C 	0.36363 0.14632 0.49847 -0.11300
C 	C 	0.33079 0.14070 0.53015 0.11400
Br	Br	0.40902 0.17363 0.57455 -0.18000
Br	Br	0.19871 0.11255 0.57286 -0.13400
Br	Br	0.35019 0.12747 0.42264 -0.19800
Br	Br	0.13312 0.04685 0.42095 -0.14300
C 	C 	0.80044 0.62626 0.93543 0.11300
C 	C 	0.78868 0.59026 0.96651 -0.10500
C 	C 	0.80867 0.64448 0.99902 0.11200
C 	C 	0.84192 0.73488 0.00053 0.08600
C 	C 	0.85432 0.77095 0.96949 -0.04500
C 	C 	0.83196 0.71605 0.93689 0.08400
Br	Br	0.84391 0.76402 0.89420 -0.13800
Br	Br	0.77247 0.55226 0.89079 -0.17400
Br	Br	0.87236 0.81005 0.04518 -0.13200
Br	Br	0.79147 0.59513 0.04152 -0.19200
C 	C 	0.86873 0.08626 0.01209 0.08500
C 	C 	0.85816 0.03754 0.97969 -0.05400
C 	C 	0.81693 0.04221 0.94846 0.07800
C 	C 	0.78897 0.09775 0.94954 0.11900
C 	C 	0.80397 0.15014 0.98179 -0.11600
C 	C 	0.84433 0.14457 0.01305 0.11700
Br	Br	0.87024 0.22015 0.05692 -0.23400
Br	Br	0.91690 0.07293 0.05517 -0.14700
Br	Br	0.72882 0.10092 0.90703 -0.17900
Br	Br	0.80095 0.97420 0.90412 -0.12500
C 	C 	0.17326 0.12911 0.94954 0.08200
C 	C 	0.13976 0.07182 0.97438 -0.04500
C 	C 	0.20094 0.07168 0.99886 0.08100
C 	C 	0.29389 0.12280 0.99648 0.11700
C 	C 	0.32773 0.18258 0.97248 -0.11100
C 	C 	0.26772 0.18963 0.95066 0.11800
Br	Br	0.31518 0.28737 0.92496 -0.16600
Br	Br	0.08978 0.11981 0.91228 -0.14000
Br	Br	0.37331 0.10694 0.02468 -0.22100
Br	Br	0.15865 0.00597 0.03686 -0.14900
