data_crystal

_cell_length_a 24.78933
_cell_length_b 25.38835
_cell_length_c 38.99150
_cell_angle_alpha 60.85520
_cell_angle_beta  118.85395
_cell_angle_gamma 133.20026

_symmetry_space_group_name_	'P 1'
_symmetry_space_group_name_H-M	'P 1'

loop_
_symmetry_equiv_pos_as_xyz
  x,y,z

loop_
_atom_site_label
_atom_site_type_symbol
_atom_site_fract_x
_atom_site_fract_y
_atom_site_fract_z
_atom_site_charge
C 	C 	0.72328 0.30544 0.02428 0.02600
C 	C 	0.77038 0.37545 0.03320 -0.06600
C 	C 	0.73938 0.39754 0.04117 0.02800
C 	C 	0.66359 0.34705 0.04422 -0.06700
C 	C 	0.61669 0.27709 0.03632 0.02600
C 	C 	0.64543 0.25781 0.02445 -0.06600
H 	H 	0.83051 0.41249 0.03396 0.05400
H 	H 	0.64055 0.36280 0.05200 0.05200
H 	H 	0.60724 0.20619 0.01528 0.04600
C 	C 	0.72438 0.27478 0.54048 0.02500
C 	C 	0.77861 0.34736 0.54697 -0.06700
C 	C 	0.75399 0.38651 0.54357 0.02600
C 	C 	0.67591 0.35213 0.53485 -0.06900
C 	C 	0.62232 0.27950 0.52990 0.02500
C 	C 	0.64628 0.24321 0.52973 -0.06900
H 	H 	0.83885 0.37208 0.55564 0.05300
H 	H 	0.65692 0.38061 0.53409 0.05200
H 	H 	0.60429 0.18762 0.52466 0.04600
C 	C 	0.29468 0.67971 0.18626 0.02600
C 	C 	0.24082 0.60736 0.17956 -0.06700
C 	C 	0.26442 0.57554 0.17383 0.02600
C 	C 	0.33977 0.61816 0.17169 -0.06800
C 	C 	0.39287 0.68976 0.17813 0.02800
C 	C 	0.37187 0.71679 0.18963 -0.06800
H 	H 	0.18122 0.57725 0.17760 0.04700
H 	H 	0.35614 0.59671 0.16322 0.05200
H 	H 	0.41429 0.77078 0.19673 0.05600
C 	C 	0.31568 0.65629 0.69540 0.02700
C 	C 	0.25683 0.58598 0.68632 -0.06800
C 	C 	0.27471 0.54407 0.68614 0.02600
C 	C 	0.35091 0.57215 0.69528 -0.06900
C 	C 	0.40931 0.64328 0.70213 0.02800
C 	C 	0.39208 0.68414 0.70388 -0.06800
H 	H 	0.19786 0.56507 0.67836 0.04700
H 	H 	0.36476 0.53968 0.69546 0.05400
H 	H 	0.43780 0.73856 0.71031 0.05800
Co	Co	0.06087 0.03157 0.06083 1.16100
Co	Co	0.93579 0.94241 0.14857 1.20200
Co	Co	0.00640 0.08773 0.09028 1.16600
C 	C 	0.21084 0.06065 0.07050 0.22900
Co	Co	0.07021 0.91066 0.06091 1.16700
Co	Co	0.91579 0.06234 0.14097 1.16700
C 	C 	0.91011 0.78566 0.06347 0.29200
O 	O 	0.92990 0.14633 0.08864 -0.39900
O 	O 	0.96058 0.02983 0.12796 -0.78200
C 	C 	0.90232 0.13183 0.05380 0.29600
O 	O 	0.06021 0.11718 0.05132 -0.47700
O 	O 	0.93498 0.85612 0.15760 -0.45300
C 	C 	0.78295 0.91407 0.12539 0.29100
C 	C 	0.07753 0.19129 0.14321 0.28200
C 	C 	0.08668 0.83410 0.14863 0.30100
O 	O 	0.91654 0.09464 0.04891 -0.38900
O 	O 	0.07916 0.99014 0.00642 -0.38500
O 	O 	0.80924 0.98480 0.11325 -0.36000
O 	O 	0.81952 0.89343 0.12503 -0.38100
O 	O 	0.02838 0.13549 0.16607 -0.36700
O 	O 	0.08363 0.18158 0.11470 -0.38000
O 	O 	0.06005 0.82518 0.11219 -0.41500
O 	O 	0.06532 0.85869 0.15911 -0.38700
O 	O 	0.04194 0.94671 0.08367 -0.75100
O 	O 	0.89514 0.98062 0.19451 -0.36200
O 	O 	0.18048 0.98872 0.08536 -0.34200
O 	O 	0.17625 0.08871 0.06485 -0.37500
O 	O 	0.95563 0.83816 0.03861 -0.37700
O 	O 	0.90071 0.80321 0.08639 -0.37500
Co	Co	0.07069 0.01126 0.57010 1.15700
Co	Co	0.95842 0.91011 0.66774 1.19500
Co	Co	0.00169 0.04889 0.60244 1.15200
C 	C 	0.22592 0.05577 0.57552 0.22800
Co	Co	0.09269 0.90217 0.56703 1.17000
Co	Co	0.91601 0.00873 0.66328 1.14900
C 	C 	0.93558 0.76904 0.57301 0.28900
O 	O 	0.83681 0.99131 0.60948 -0.33200
O 	O 	0.96658 0.99025 0.64448 -0.70800
C 	C 	0.85778 0.04044 0.57594 0.23100
O 	O 	0.05654 0.08715 0.56134 -0.48600
O 	O 	0.96638 0.83131 0.67400 -0.44400
C 	C 	0.80772 0.84529 0.67231 0.30300
C 	C 	0.05096 0.16309 0.63655 0.27400
C 	C 	0.12019 0.82753 0.65430 0.30100
O 	O 	0.90661 0.05052 0.56360 -0.37400
O 	O 	0.09398 0.97969 0.51275 -0.39200
O 	O 	0.84659 0.89736 0.69085 -0.39000
O 	O 	0.84110 0.84672 0.65365 -0.39200
O 	O 	0.97890 0.12234 0.63627 -0.38300
O 	O 	0.07518 0.14124 0.62606 -0.39200
O 	O 	0.09180 0.81912 0.61765 -0.41600
O 	O 	0.09795 0.84895 0.66656 -0.38100
O 	O 	0.06030 0.93025 0.59244 -0.74800
O 	O 	0.00175 0.02160 0.71478 -0.44700
O 	O 	0.20134 0.98529 0.58954 -0.33900
O 	O 	0.18656 0.07742 0.57168 -0.38000
O 	O 	0.97881 0.82363 0.54715 -0.34700
O 	O 	0.92646 0.78315 0.59792 -0.36900
C 	C 	0.01838 0.03856 0.87974 -0.22900
C 	C 	0.93682 0.90504 0.90669 0.29100
C 	C 	0.93851 0.91766 0.93854 -0.08100
C 	C 	0.02316 0.05072 0.91291 0.29300
F 	F 	0.89871 0.83406 0.90570 -0.41400
H 	H 	0.90754 0.87046 0.96120 0.09900
F 	F 	0.06818 0.12141 0.91662 -0.45400
H 	H 	0.04846 0.08585 0.85672 0.11000
C 	C 	0.91911 0.90844 0.82015 0.31600
C 	C 	0.92557 0.90117 0.78915 -0.08000
C 	C 	0.06297 0.98384 0.80948 0.36900
C 	C 	0.05680 0.98819 0.84185 -0.09800
F 	F 	0.84905 0.87564 0.82311 -0.41400
H 	H 	0.87444 0.86801 0.76869 0.09300
F 	F 	0.13282 0.02333 0.80352 -0.48600
H 	H 	0.10798 0.02106 0.86251 0.05700
C 	C 	0.94066 0.92855 0.39665 -0.15800
C 	C 	0.05965 0.05214 0.39030 0.20000
C 	C 	0.06396 0.05587 0.42627 -0.09800
C 	C 	0.94680 0.93132 0.43360 0.39300
F 	F 	0.11642 0.10998 0.37057 -0.44000
H 	H 	0.11311 0.10455 0.43807 0.08000
F 	F 	0.89366 0.87117 0.45523 -0.44500
H 	H 	0.89167 0.87988 0.38485 0.13000
C 	C 	0.98547 0.92763 0.33333 0.28800
C 	C 	0.97719 0.92529 0.29559 -0.06500
C 	C 	0.98863 0.04087 0.26467 0.31900
C 	C 	0.99444 0.04188 0.30179 -0.17700
F 	F 	0.98601 0.87368 0.36669 -0.42400
H 	H 	0.96791 0.87871 0.29323 0.09400
F 	F 	0.98877 0.09550 0.23169 -0.46100
H 	H 	0.99937 0.08636 0.30357 0.13000
C 	C 	0.10147 0.23903 0.64208 -0.07200
C 	C 	0.15059 0.29961 0.61630 0.01100
C 	C 	0.18877 0.37266 0.61704 -0.06800
C 	C 	0.17856 0.38586 0.64378 0.03800
C 	C 	0.13022 0.32513 0.67024 -0.00600
C 	C 	0.09226 0.25203 0.66942 -0.01000
C 	C 	0.12110 0.33833 0.69748 -0.03200
C 	C 	0.16330 0.41115 0.70015 -0.04500
C 	C 	0.21427 0.47152 0.67529 0.01300
C 	C 	0.21825 0.45890 0.64546 -0.07000
H 	H 	0.15735 0.29023 0.59478 0.03600
H 	H 	0.22607 0.41891 0.59674 0.04800
H 	H 	0.05458 0.20524 0.68951 0.03300
H 	H 	0.08321 0.29212 0.71750 0.03700
H 	H 	0.15936 0.42031 0.72300 0.04300
H 	H 	0.25635 0.50570 0.62559 0.04900
C 	C 	0.72748 0.78523 0.67355 -0.07600
C 	C 	0.67155 0.77128 0.63731 0.01700
C 	C 	0.59662 0.73760 0.63599 -0.06400
C 	C 	0.57747 0.71859 0.67084 0.04000
C 	C 	0.63232 0.72732 0.70797 0.00300
C 	C 	0.70606 0.75732 0.70939 -0.00500
C 	C 	0.61408 0.71037 0.74263 -0.02800
C 	C 	0.54222 0.68596 0.74031 -0.03700
C 	C 	0.48764 0.67738 0.70350 0.01400
C 	C 	0.50523 0.69345 0.66880 -0.06600
H 	H 	0.68721 0.79140 0.60961 0.04500
H 	H 	0.55451 0.72957 0.60752 0.05300
H 	H 	0.74870 0.76535 0.73772 0.05300
H 	H 	0.65584 0.71696 0.77125 0.06300
H 	H 	0.52851 0.67251 0.76727 0.05300
H 	H 	0.46264 0.68609 0.64043 0.05100
C 	C 	0.16934 0.80306 0.68278 -0.07400
C 	C 	0.13744 0.73193 0.70936 0.01400
C 	C 	0.16518 0.69110 0.72094 -0.06700
C 	C 	0.22434 0.72084 0.70550 0.03800
C 	C 	0.26120 0.79511 0.68201 0.00100
C 	C 	0.23624 0.83718 0.67293 -0.00900
C 	C 	0.31757 0.82402 0.66475 -0.03000
C 	C 	0.33452 0.77857 0.66887 -0.04000
C 	C 	0.29774 0.70430 0.69183 0.01500
C 	C 	0.24384 0.67602 0.71100 -0.06700
H 	H 	0.08692 0.70560 0.71808 0.03100
H 	H 	0.13761 0.63487 0.73986 0.04700
H 	H 	0.26270 0.89325 0.65361 0.04800
H 	H 	0.34620 0.88095 0.64670 0.04900
H 	H 	0.37552 0.80080 0.65367 0.04800
H 	H 	0.21605 0.61912 0.72921 0.04900
C 	C 	0.21034 0.49903 0.16802 0.01400
C 	C 	0.14920 0.48221 0.13386 -0.04500
C 	C 	0.11231 0.41935 0.12114 -0.03200
C 	C 	0.13707 0.37336 0.14210 -0.00300
C 	C 	0.19649 0.38840 0.17737 0.04200
C 	C 	0.23067 0.44938 0.19103 -0.06800
C 	C 	0.22248 0.34355 0.19787 -0.06300
C 	C 	0.18811 0.28276 0.18419 0.02100
C 	C 	0.12726 0.26586 0.15000 -0.06700
C 	C 	0.10299 0.31232 0.12841 -0.01100
H 	H 	0.13289 0.51991 0.11594 0.04100
H 	H 	0.06607 0.40780 0.09432 0.03500
H 	H 	0.27698 0.46153 0.21785 0.05300
H 	H 	0.26866 0.35514 0.22471 0.05300
H 	H 	0.20653 0.24672 0.20126 0.03600
H 	H 	0.05550 0.29893 0.10215 0.03700
C 	C 	0.70661 0.85701 0.13359 -0.07000
C 	C 	0.69039 0.79034 0.16321 0.01500
C 	C 	0.62551 0.74406 0.17812 -0.06300
C 	C 	0.57651 0.76429 0.16370 0.04100
C 	C 	0.59081 0.82956 0.13256 0.00100
C 	C 	0.65472 0.87452 0.11700 -0.00700
C 	C 	0.54222 0.85015 0.11821 -0.02800
C 	C 	0.47959 0.80615 0.13444 -0.03900
C 	C 	0.46475 0.74100 0.16526 0.01500
C 	C 	0.51376 0.72055 0.18016 -0.06600
H 	H 	0.72988 0.77613 0.17606 0.03800
H 	H 	0.61453 0.69358 0.20159 0.05200
H 	H 	0.66594 0.92487 0.09326 0.05500
H 	H 	0.55279 0.90017 0.09436 0.04900
H 	H 	0.44131 0.82161 0.12233 0.04600
H 	H 	0.50228 0.67021 0.20395 0.05200
C 	C 	0.13687 0.81152 0.17810 -0.07600
C 	C 	0.10483 0.73901 0.20333 0.01500
C 	C 	0.13460 0.70039 0.21406 -0.06600
C 	C 	0.19514 0.73347 0.19856 0.03800
C 	C 	0.23132 0.80870 0.17626 0.00100
C 	C 	0.20597 0.84894 0.16954 -0.01100
C 	C 	0.28620 0.84005 0.15714 -0.03200
C 	C 	0.30298 0.79653 0.15861 -0.04000
C 	C 	0.26994 0.72245 0.18208 0.01400
C 	C 	0.21647 0.69116 0.20255 -0.06600
H 	H 	0.05279 0.71012 0.21142 0.02900
H 	H 	0.10726 0.64330 0.23198 0.04600
H 	H 	0.23314 0.90636 0.15193 0.04900
H 	H 	0.31332 0.89735 0.13942 0.04800
H 	H 	0.34214 0.82057 0.14156 0.04500
H 	H 	0.19081 0.63423 0.22077 0.04800
C 	C 	0.83225 0.08957 0.55485 -0.06200
C 	C 	0.87947 0.16419 0.53451 0.00700
C 	C 	0.86685 0.21623 0.52590 -0.06100
C 	C 	0.80982 0.19501 0.53970 0.03500
C 	C 	0.76318 0.12033 0.56036 -0.00300
C 	C 	0.77010 0.06719 0.56430 -0.02600
C 	C 	0.71361 0.10053 0.57911 -0.03700
C 	C 	0.70843 0.15380 0.57639 -0.04500
C 	C 	0.74730 0.22620 0.55177 0.01300
C 	C 	0.79978 0.24755 0.53409 -0.06600
H 	H 	0.92762 0.18268 0.52689 0.04400
H 	H 	0.90355 0.27344 0.51022 0.05300
H 	H 	0.73154 0.00921 0.57851 0.03100
H 	H 	0.67997 0.04397 0.59651 0.02800
H 	H 	0.67092 0.13775 0.59181 0.03800
H 	H 	0.83153 0.30377 0.51587 0.05200
C 	C 	0.80889 0.46177 0.55156 0.01500
C 	C 	0.86023 0.47236 0.58944 -0.04000
C 	C 	0.89362 0.53379 0.60243 -0.03100
C 	C 	0.87395 0.58383 0.57823 0.00300
C 	C 	0.82387 0.57431 0.53981 0.03900
C 	C 	0.79589 0.51643 0.52565 -0.06400
C 	C 	0.80025 0.62113 0.51662 -0.05600
C 	C 	0.82920 0.67945 0.53053 0.01700
C 	C 	0.88400 0.69336 0.56714 -0.06000
C 	C 	0.90409 0.64362 0.59176 -0.01500
H 	H 	0.87117 0.43104 0.60970 0.04500
H 	H 	0.93253 0.54081 0.63186 0.04500
H 	H 	0.75820 0.50980 0.49587 0.05500
H 	H 	0.76020 0.61303 0.48754 0.05900
H 	H 	0.94623 0.65398 0.62015 0.04700
C 	C 	0.30253 0.11232 0.56823 -0.06100
C 	C 	0.36320 0.15346 0.59686 0.00400
C 	C 	0.43821 0.19584 0.59451 -0.06600
C 	C 	0.45309 0.19751 0.56338 0.03400
C 	C 	0.39200 0.15915 0.53331 -0.00100
C 	C 	0.31687 0.11679 0.53587 -0.02500
C 	C 	0.40695 0.16186 0.50181 -0.03600
C 	C 	0.48203 0.20139 0.50054 -0.04300
C 	C 	0.54283 0.23791 0.53095 0.01100
C 	C 	0.52809 0.23571 0.56240 -0.06900
H 	H 	0.35233 0.15021 0.62186 0.03200
H 	H 	0.48468 0.22600 0.61738 0.04700
H 	H 	0.26970 0.08515 0.51364 0.03500
H 	H 	0.36051 0.13316 0.47840 0.04100
H 	H 	0.49295 0.20361 0.47593 0.04200
H 	H 	0.57500 0.26328 0.58615 0.04800
C 	C 	0.75564 0.28172 0.01513 0.01500
C 	C 	0.81709 0.33520 0.99611 -0.04300
C 	C 	0.85372 0.31460 0.99242 -0.03300
C 	C 	0.82640 0.23957 0.00518 0.00100
C 	C 	0.75894 0.18448 0.01918 0.03400
C 	C 	0.72581 0.20568 0.02599 -0.06700
C 	C 	0.72790 0.10898 0.02823 -0.06800
C 	C 	0.76919 0.08937 0.02865 0.00400
C 	C 	0.84451 0.14474 0.02418 -0.07600
C 	C 	0.86846 0.21918 0.00694 -0.00900
H 	H 	0.83705 0.39285 0.98449 0.04500
H 	H 	0.90359 0.35715 0.97989 0.04600
H 	H 	0.67923 0.16361 0.04104 0.04200
H 	H 	0.67352 0.06564 0.03649 0.03400
H 	H 	0.74670 0.03115 0.03793 0.02700
H 	H 	0.92432 0.26212 0.00032 0.04600
C 	C 	0.78340 0.47595 0.04212 0.01200
C 	C 	0.80861 0.53379 0.00783 -0.03400
C 	C 	0.83413 0.60490 0.00436 -0.03100
C 	C 	0.83526 0.61937 0.03527 0.00800
C 	C 	0.81306 0.56258 0.07060 0.03600
C 	C 	0.78783 0.49114 0.07408 -0.06400
C 	C 	0.81559 0.57771 0.10179 -0.06100
C 	C 	0.84226 0.64943 0.09841 0.01200
C 	C 	0.86575 0.70662 0.06358 -0.06600
C 	C 	0.85940 0.69036 0.03145 -0.01300
H 	H 	0.80521 0.52280 0.98301 0.04800
H 	H 	0.85199 0.64844 0.97732 0.06300
H 	H 	0.76912 0.44685 0.10081 0.05000
H 	H 	0.79831 0.53444 0.12899 0.05000
H 	H 	0.84723 0.66104 0.12349 0.04000
H 	H 	0.87596 0.73372 0.00412 0.06500
C 	C 	0.28662 0.11161 0.06149 -0.06100
C 	C 	0.30871 0.18066 0.03317 0.00500
C 	C 	0.37578 0.22482 0.02067 -0.06000
C 	C 	0.42177 0.20064 0.03637 0.03600
C 	C 	0.40055 0.13181 0.06524 -0.00600
C 	C 	0.33338 0.08784 0.07788 -0.02400
C 	C 	0.44697 0.10799 0.08123 -0.03600
C 	C 	0.51548 0.15351 0.06986 -0.04700
C 	C 	0.53802 0.22302 0.04206 0.01300
C 	C 	0.48960 0.24517 0.02425 -0.06800
H 	H 	0.27294 0.19932 0.02001 0.05100
H 	H 	0.39171 0.27769 0.99862 0.05100
H 	H 	0.31716 0.03501 0.10008 0.02500
H 	H 	0.43085 0.05492 0.10311 0.02400
H 	H 	0.55238 0.13594 0.08376 0.03600
H 	H 	0.50628 0.29828 0.00225 0.05300
Co	Co	0.98940 0.88585 0.11884 1.19700
O 	O 	0.02267 0.99678 0.11517 -0.56000
C 	C 	0.02480 0.99901 0.98588 0.34300
O 	O 	0.99889 0.00767 0.00404 -0.40100
C 	C 	0.94620 0.96868 0.21995 0.33800
O 	O 	0.97199 0.94978 0.20834 -0.36100
Co	Co	0.01374 0.86643 0.62996 1.17600
O 	O 	0.03535 0.97130 0.62655 -0.56300
C 	C 	0.03638 0.98369 0.49377 0.35200
O 	O 	0.00810 0.98675 0.51352 -0.36600
C 	C 	0.00148 0.96342 0.74020 0.35600
O 	O 	0.99658 0.91884 0.72799 -0.34000
C 	C 	0.97878 0.96565 0.87764 0.09400
C 	C 	0.98794 0.99002 0.94415 -0.04700
C 	C 	0.98486 0.95315 0.84636 -0.00500
C 	C 	0.99719 0.94300 0.78179 -0.10200
C 	C 	0.99863 0.98774 0.37560 0.09000
C 	C 	0.01072 0.99365 0.44964 -0.12500
C 	C 	0.99230 0.98529 0.33630 0.04600
C 	C 	0.97692 0.98104 0.26081 -0.08700
H 	H 	0.81308 0.71720 0.51146 0.07100
