data_crystal

_cell_length_a 18.48160
_cell_length_b 18.81779
_cell_length_c 26.44277
_cell_angle_alpha 95.42173
_cell_angle_beta  95.42144
_cell_angle_gamma 126.41916

_symmetry_space_group_name_	'P 1'
_symmetry_space_group_name_H-M	'P 1'

loop_
_symmetry_equiv_pos_as_xyz
  x,y,z

loop_
_atom_site_label
_atom_site_type_symbol
_atom_site_fract_x
_atom_site_fract_y
_atom_site_fract_z
_atom_site_charge
C 	C 	0.95372 0.04092 0.00610 0.13300
N 	N 	0.89717 0.95157 0.00681 -0.12700
C 	C 	0.93046 0.90391 0.00653 0.14400
N 	N 	0.02016 0.94543 0.00578 -0.13300
C 	C 	0.07695 0.03451 0.00497 0.13700
N 	N 	0.04362 0.08235 0.00455 -0.13600
C 	C 	0.90363 0.99011 0.44428 0.15200
N 	N 	0.85988 0.90121 0.44567 -0.14100
C 	C 	0.90761 0.86710 0.44518 0.14200
N 	N 	0.99847 0.92208 0.44455 -0.13500
C 	C 	0.04196 0.01042 0.44385 0.14300
N 	N 	0.99467 0.04437 0.44372 -0.13800
Cu	Cu	0.62263 0.20881 0.00899 0.92900
Cu	Cu	0.69633 0.22911 0.89951 0.87200
Cu	Cu	0.65488 0.34778 0.94404 0.89600
Cu	Cu	0.61922 0.36896 0.05002 0.90000
C 	C 	0.65677 0.27349 0.11793 0.29300
O 	O 	0.48888 0.15113 0.01109 -0.35800
C 	C 	0.63854 0.30293 0.83160 0.28700
O 	O 	0.69123 0.34841 0.01497 -0.63500
O 	O 	0.60500 0.21897 0.93582 -0.64200
O 	O 	0.68334 0.15036 0.00162 -0.36500
O 	O 	0.78246 0.25317 0.95674 -0.43400
O 	O 	0.60952 0.30367 0.10724 -0.38000
O 	O 	0.71254 0.47522 0.95443 -0.38900
C 	C 	0.71887 0.52413 0.99640 0.30900
C 	C 	0.45074 0.18802 0.99512 0.30300
O 	O 	0.50271 0.27216 0.98964 -0.39900
O 	O 	0.66724 0.48710 0.03123 -0.37700
O 	O 	0.65872 0.22140 0.08188 -0.35900
C 	C 	0.76043 0.19081 0.98414 0.30600
O 	O 	0.62784 0.34500 0.86970 -0.37400
O 	O 	0.63870 0.23427 0.83753 -0.41400
H 	H 	0.75798 0.39035 0.02859 0.16400
H 	H 	0.54148 0.17678 0.91605 0.18100
Cu	Cu	0.75682 0.33865 0.44437 0.92600
Cu	Cu	0.73615 0.26578 0.55396 0.87100
Cu	Cu	0.61304 0.30195 0.50848 0.89800
Cu	Cu	0.58866 0.33419 0.40237 0.89800
C 	C 	0.69576 0.31007 0.33502 0.29400
O 	O 	0.81048 0.47026 0.44262 -0.35900
C 	C 	0.65921 0.32141 0.62116 0.28700
O 	O 	0.61415 0.26703 0.43777 -0.63800
O 	O 	0.74509 0.35453 0.51733 -0.64100
O 	O 	0.81565 0.27712 0.45151 -0.36700
O 	O 	0.71040 0.18080 0.49664 -0.42600
O 	O 	0.65973 0.35128 0.34628 -0.38300
O 	O 	0.48256 0.24151 0.49809 -0.38400
C 	C 	0.43053 0.23117 0.45580 0.31800
C 	C 	0.76856 0.50395 0.45755 0.29800
O 	O 	0.68310 0.44944 0.46309 -0.38400
O 	O 	0.46542 0.27882 0.41931 -0.38700
O 	O 	0.74532 0.30464 0.37151 -0.36200
C 	C 	0.77368 0.20132 0.46929 0.30100
O 	O 	0.61572 0.33031 0.58256 -0.37000
O 	O 	0.72967 0.32192 0.61567 -0.41500
H 	H 	0.57339 0.20137 0.42443 0.16300
H 	H 	0.78643 0.41696 0.53716 0.17800
C 	C 	0.71048 0.40190 0.71196 -0.03900
C 	C 	0.64058 0.32873 0.67366 -0.08900
C 	C 	0.56053 0.25594 0.68799 0.10200
C 	C 	0.55717 0.25276 0.74067 -0.04000
C 	C 	0.63190 0.32105 0.77897 -0.09000
C 	C 	0.70682 0.39899 0.76463 0.10200
N 	N 	0.77637 0.47010 0.80107 -0.20100
H 	H 	0.77010 0.45937 0.70085 0.04900
H 	H 	0.49810 0.19474 0.75179 0.05000
N 	N 	0.48779 0.18803 0.65155 -0.20100
H 	H 	0.83273 0.52619 0.79011 0.08600
H 	H 	0.77421 0.47158 0.84042 0.08900
H 	H 	0.48660 0.18983 0.61218 0.08800
H 	H 	0.43010 0.13331 0.66252 0.08500
C 	C 	0.63152 0.20112 0.19474 -0.03800
C 	C 	0.68558 0.27747 0.17264 -0.08800
C 	C 	0.75635 0.36082 0.20491 0.10400
C 	C 	0.76415 0.36867 0.25884 -0.03700
C 	C 	0.70333 0.29442 0.28083 -0.08800
C 	C 	0.64012 0.20875 0.24876 0.10400
N 	N 	0.58668 0.13408 0.26948 -0.20000
H 	H 	0.57939 0.13652 0.16989 0.05400
H 	H 	0.81501 0.43368 0.28365 0.05300
N 	N 	0.81629 0.43355 0.18435 -0.19900
H 	H 	0.53810 0.07141 0.24551 0.08800
H 	H 	0.59473 0.13704 0.30943 0.08600
H 	H 	0.81559 0.42831 0.14460 0.07800
H 	H 	0.86648 0.49578 0.20834 0.08900
C 	C 	0.86172 0.77072 0.44518 -0.04300
C 	C 	0.82411 0.73404 0.48798 -0.08700
C 	C 	0.79848 0.64893 0.49381 0.17700
C 	C 	0.80901 0.59898 0.45613 -0.11300
C 	C 	0.84567 0.63534 0.41304 -0.04800
C 	C 	0.87093 0.72017 0.40715 0.14000
H 	H 	0.81776 0.77277 0.51774 0.07000
O 	O 	0.76219 0.61428 0.53605 -0.28200
H 	H 	0.85224 0.59679 0.38328 0.06300
O 	O 	0.90719 0.75480 0.36490 -0.27600
H 	H 	0.85407 0.73515 0.33833 0.15100
H 	H 	0.81535 0.63443 0.56276 0.14500
C 	C 	0.85429 0.02938 0.44627 -0.05000
C 	C 	0.82381 0.03653 0.49166 -0.08700
C 	C 	0.79894 0.09352 0.49979 0.17700
C 	C 	0.80112 0.14175 0.46129 -0.11700
C 	C 	0.82773 0.13135 0.41486 -0.04400
C 	C 	0.85388 0.07526 0.40718 0.14200
H 	H 	0.82430 0.00185 0.52201 0.06600
O 	O 	0.77411 0.10318 0.54575 -0.30300
H 	H 	0.82832 0.16678 0.38469 0.06800
O 	O 	0.88268 0.06830 0.36229 -0.27100
H 	H 	0.82676 0.01653 0.33829 0.14900
H 	H 	0.83192 0.15377 0.56903 0.12900
C 	C 	0.14085 0.06981 0.44560 -0.03700
C 	C 	0.19901 0.13748 0.48909 -0.09100
C 	C 	0.29400 0.18963 0.49316 0.18700
C 	C 	0.33121 0.17551 0.45285 -0.12000
C 	C 	0.27290 0.10926 0.40881 -0.04100
C 	C 	0.17801 0.05568 0.40535 0.13400
H 	H 	0.17056 0.14858 0.52017 0.07100
O 	O 	0.35024 0.25667 0.53553 -0.28100
H 	H 	0.30124 0.09873 0.37746 0.05100
O 	O 	0.12157 0.99144 0.36190 -0.26300
H 	H 	0.11292 0.93625 0.36896 0.15800
H 	H 	0.36091 0.22748 0.56144 0.15400
C 	C 	0.86948 0.80727 0.00585 -0.03000
C 	C 	0.88287 0.77356 0.04781 -0.09500
C 	C 	0.83419 0.68095 0.04477 0.19200
C 	C 	0.77121 0.62133 0.99951 -0.12700
C 	C 	0.75670 0.65500 0.95782 -0.03600
C 	C 	0.80500 0.74768 0.96105 0.13000
H 	H 	0.93261 0.81937 0.08239 0.07600
O 	O 	0.84806 0.64870 0.08606 -0.29400
H 	H 	0.70772 0.60930 0.92301 0.06200
O 	O 	0.79255 0.78012 0.91943 -0.27500
H 	H 	0.74262 0.78423 0.92471 0.15100
H 	H 	0.89832 0.64537 0.08031 0.14100
C 	C 	0.81893 0.16190 0.99232 -0.13300
C 	C 	0.82214 0.12876 0.03720 -0.03100
C 	C 	0.87076 0.09380 0.04333 0.13300
C 	C 	0.91636 0.09134 0.00428 -0.02900
C 	C 	0.91703 0.12835 0.96064 -0.10500
C 	C 	0.86848 0.16334 0.95435 0.18700
H 	H 	0.78599 0.12905 0.06710 0.06500
O 	O 	0.87093 0.05914 0.08667 -0.27200
H 	H 	0.95207 0.12661 0.93047 0.07000
O 	O 	0.86462 0.19330 0.90958 -0.31600
H 	H 	0.91871 0.25757 0.91624 0.14600
H 	H 	0.92520 0.11019 0.11196 0.15000
C 	C 	0.35316 0.14312 0.99544 -0.12800
C 	C 	0.31609 0.10379 0.03772 -0.03500
C 	C 	0.22698 0.07147 0.04209 0.13500
C 	C 	0.17399 0.07835 0.00395 -0.03100
C 	C 	0.21077 0.11733 0.96156 -0.10300
C 	C 	0.30002 0.14977 0.95717 0.18700
H 	H 	0.35726 0.10044 0.06799 0.06200
O 	O 	0.19292 0.03619 0.08467 -0.28000
H 	H 	0.16952 0.12083 0.93143 0.07100
O 	O 	0.33397 0.18478 0.91452 -0.29500
H 	H 	0.36099 0.24936 0.92326 0.15400
H 	H 	0.16539 0.97150 0.07570 0.15700
