data_crystal

_cell_length_a 26.16639
_cell_length_b 26.41367
_cell_length_c 26.45854
_cell_angle_alpha 95.46356
_cell_angle_beta  95.46283
_cell_angle_gamma 125.78080

_symmetry_space_group_name_	'P 1'
_symmetry_space_group_name_H-M	'P 1'

loop_
_symmetry_equiv_pos_as_xyz
  x,y,z

loop_
_atom_site_label
_atom_site_type_symbol
_atom_site_fract_x
_atom_site_fract_y
_atom_site_fract_z
_atom_site_charge
C 	C 	0.97891 0.03682 0.99473 0.06700
C 	C 	0.04112 0.06737 0.98419 -0.08900
C 	C 	0.07000 0.03631 0.98436 0.07400
C 	C 	0.03657 0.97470 0.99519 -0.08600
C 	C 	0.97362 0.94322 0.00377 0.08900
C 	C 	0.94557 0.97498 0.00514 -0.06000
H 	H 	0.06683 0.11499 0.97579 0.07600
H 	H 	0.05877 0.95058 0.99533 0.08600
H 	H 	0.89726 0.95101 0.01275 0.08600
C 	C 	0.92744 0.99509 0.44743 0.09100
C 	C 	0.99437 0.03181 0.45311 -0.07200
C 	C 	0.02537 0.00324 0.45828 0.05800
C 	C 	0.98966 0.93819 0.45927 -0.05500
C 	C 	0.92270 0.90120 0.45344 0.07400
C 	C 	0.89160 0.92975 0.44781 -0.08000
H 	H 	0.02210 0.08227 0.45268 0.07800
H 	H 	0.01373 0.91614 0.46342 0.07500
H 	H 	0.83982 0.90124 0.44333 0.08200
Cu	Cu	0.65172 0.24910 0.99971 0.92700
Cu	Cu	0.71792 0.27104 0.89756 0.87600
Cu	Cu	0.68581 0.35436 0.93891 0.90000
Cu	Cu	0.63948 0.35749 0.03773 0.90500
C 	C 	0.65841 0.28550 0.10734 0.28800
O 	O 	0.55601 0.20448 0.99272 -0.36200
C 	C 	0.67555 0.31976 0.82649 0.29300
O 	O 	0.69738 0.34754 0.01001 -0.63200
O 	O 	0.64929 0.26248 0.92758 -0.64100
O 	O 	0.69812 0.21045 0.99689 -0.35700
O 	O 	0.77323 0.28801 0.95904 -0.43200
O 	O 	0.62583 0.30721 0.09346 -0.37300
O 	O 	0.72689 0.44464 0.95432 -0.36700
C 	C 	0.71929 0.47430 0.99255 0.30500
C 	C 	0.52885 0.22958 0.97408 0.30000
O 	O 	0.56433 0.29044 0.97241 -0.37000
O 	O 	0.67497 0.44308 0.02088 -0.35400
O 	O 	0.66686 0.25276 0.07278 -0.33900
C 	C 	0.75584 0.24271 0.98566 0.31200
O 	O 	0.68891 0.36328 0.86572 -0.36800
O 	O 	0.68093 0.27418 0.83344 -0.41100
H 	H 	0.74232 0.37654 0.02886 0.17400
H 	H 	0.60667 0.23456 0.90461 0.18400
Cu	Cu	0.72697 0.33315 0.43303 0.93300
Cu	Cu	0.73408 0.29193 0.54494 0.88000
Cu	Cu	0.62561 0.29162 0.50041 0.90200
Cu	Cu	0.59809 0.31367 0.39544 0.90200
C 	C 	0.67697 0.30677 0.32481 0.29300
O 	O 	0.75232 0.42156 0.43009 -0.34500
C 	C 	0.67379 0.32190 0.61363 0.29200
O 	O 	0.62720 0.27287 0.42894 -0.63800
O 	O 	0.72055 0.34295 0.50650 -0.64000
O 	O 	0.78102 0.30293 0.43924 -0.36000
O 	O 	0.72020 0.23195 0.48910 -0.41500
O 	O 	0.64574 0.32994 0.33698 -0.37400
O 	O 	0.53312 0.23776 0.49007 -0.37200
C 	C 	0.49520 0.24285 0.45789 0.31600
C 	C 	0.72018 0.44062 0.44897 0.30100
O 	O 	0.66083 0.39842 0.45457 -0.38100
O 	O 	0.51143 0.26493 0.41472 -0.36700
O 	O 	0.71764 0.30898 0.36027 -0.35300
C 	C 	0.75968 0.25001 0.45630 0.31300
O 	O 	0.62454 0.29699 0.57525 -0.37200
O 	O 	0.72743 0.33105 0.60581 -0.40700
H 	H 	0.60374 0.22712 0.41472 0.18300
H 	H 	0.74363 0.38726 0.52489 0.19000
C 	C 	0.71291 0.38302 0.75695 -0.03600
C 	C 	0.66462 0.32809 0.77326 -0.08200
C 	C 	0.61132 0.27732 0.73652 0.09100
C 	C 	0.61234 0.27793 0.68363 -0.03700
C 	C 	0.66476 0.32961 0.66727 -0.08400
C 	C 	0.71263 0.38469 0.70403 0.09000
C 	C 	0.76512 0.44408 0.68727 -0.20400
H 	H 	0.75252 0.42316 0.78529 0.05900
H 	H 	0.57406 0.23669 0.65534 0.05800
C 	C 	0.55524 0.22068 0.75332 -0.20600
H 	H 	0.78549 0.48671 0.71742 0.09200
H 	H 	0.74633 0.45126 0.65138 0.09200
H 	H 	0.80415 0.44045 0.68037 0.09100
H 	H 	0.54466 0.23572 0.78902 0.09700
H 	H 	0.56624 0.18703 0.76067 0.08500
H 	H 	0.51128 0.19556 0.72307 0.09200
C 	C 	0.62467 0.24016 0.23739 -0.03600
C 	C 	0.67914 0.29418 0.26998 -0.08000
C 	C 	0.73139 0.34012 0.24860 0.09600
C 	C 	0.72600 0.33372 0.19466 -0.03700
C 	C 	0.66931 0.28244 0.16211 -0.07600
C 	C 	0.61958 0.23356 0.18349 0.09700
C 	C 	0.55940 0.17637 0.14903 -0.20800
H 	H 	0.58508 0.20450 0.25395 0.05000
H 	H 	0.76471 0.37032 0.17800 0.04900
C 	C 	0.79165 0.39735 0.28298 -0.20700
H 	H 	0.52955 0.13850 0.17106 0.09100
H 	H 	0.57181 0.15593 0.11821 0.10400
H 	H 	0.53043 0.19040 0.13100 0.09700
H 	H 	0.81322 0.38184 0.30961 0.10300
H 	H 	0.78034 0.42595 0.30587 0.09600
H 	H 	0.82810 0.42848 0.26024 0.08800
C 	C 	0.88524 0.83232 0.45257 -0.01900
C 	C 	0.87618 0.79104 0.40893 0.11000
C 	C 	0.84721 0.72711 0.41089 -0.06000
C 	C 	0.82588 0.70351 0.45571 0.01000
C 	C 	0.83276 0.74423 0.49868 0.10300
C 	C 	0.86256 0.80842 0.49698 -0.05300
H 	H 	0.84119 0.69568 0.37752 0.08400
C 	C 	0.79713 0.63631 0.45749 0.03100
H 	H 	0.86901 0.83996 0.53048 0.07800
C 	C 	0.83502 0.62028 0.48084 -0.08400
C 	C 	0.80962 0.55655 0.48026 0.15000
C 	C 	0.74614 0.50809 0.45475 -0.09800
C 	C 	0.70778 0.52433 0.43269 -0.00700
C 	C 	0.73287 0.58805 0.43415 0.08200
H 	H 	0.88420 0.65743 0.49964 0.09100
H 	H 	0.65871 0.48735 0.41355 0.06400
Br	Br	0.80148 0.71295 0.55982 -0.18800
Br	Br	0.90227 0.82101 0.34614 -0.17500
Br	Br	0.86104 0.53704 0.51726 -0.23700
Br	Br	0.67859 0.60831 0.40419 -0.18700
C 	C 	0.78321 0.21302 0.44155 -0.10200
C 	C 	0.73974 0.14749 0.42106 0.15300
C 	C 	0.76166 0.11025 0.41730 -0.08500
C 	C 	0.82680 0.13798 0.43330 0.03000
C 	C 	0.87094 0.20427 0.44980 0.08400
C 	C 	0.84897 0.24146 0.45388 -0.00900
H 	H 	0.72784 0.05951 0.40307 0.08900
C 	C 	0.84778 0.09703 0.43588 0.01100
H 	H 	0.88277 0.29207 0.46869 0.06400
C 	C 	0.86428 0.07943 0.39220 -0.06300
C 	C 	0.88772 0.04362 0.39494 0.11300
C 	C 	0.89513 0.02547 0.44187 -0.03100
C 	C 	0.87621 0.04093 0.48494 -0.05000
C 	C 	0.85241 0.07638 0.48211 0.10300
H 	H 	0.85965 0.09425 0.35631 0.08600
H 	H 	0.88130 0.02654 0.52096 0.07400
Br	Br	0.96109 0.24445 0.46850 -0.19100
Br	Br	0.65064 0.10839 0.39681 -0.22800
Br	Br	0.90904 0.01958 0.33420 -0.18000
Br	Br	0.82734 0.09700 0.54198 -0.20600
C 	C 	0.09505 0.04092 0.46049 -0.01600
C 	C 	0.12010 0.04688 0.41481 0.10800
C 	C 	0.18634 0.08162 0.41759 -0.06000
C 	C 	0.22794 0.11034 0.46567 0.01000
C 	C 	0.20296 0.10505 0.51134 0.10500
C 	C 	0.13668 0.07033 0.50855 -0.05600
H 	H 	0.20550 0.08586 0.38239 0.08500
C 	C 	0.29746 0.14517 0.46779 0.03100
H 	H 	0.11749 0.06592 0.54375 0.07600
C 	C 	0.33540 0.21020 0.46624 -0.08200
C 	C 	0.40066 0.24312 0.46476 0.14900
C 	C 	0.42827 0.21060 0.46425 -0.09500
C 	C 	0.39067 0.14594 0.46734 -0.00700
C 	C 	0.32548 0.11313 0.46899 0.08300
H 	H 	0.31406 0.23512 0.46594 0.09100
H 	H 	0.41179 0.12082 0.46729 0.06800
Br	Br	0.25861 0.14437 0.57777 -0.19500
Br	Br	0.06449 0.00749 0.34832 -0.17600
Br	Br	0.45174 0.33284 0.46529 -0.21100
Br	Br	0.27524 0.02439 0.47226 -0.19700
C 	C 	0.75519 0.54356 0.99909 -0.10800
C 	C 	0.72325 0.57120 0.99079 0.15800
C 	C 	0.75873 0.63713 0.99543 -0.09800
C 	C 	0.82591 0.67572 0.00692 0.04500
C 	C 	0.85776 0.64821 0.01579 0.07700
C 	C 	0.82232 0.58239 0.01187 0.00700
H 	H 	0.73415 0.65822 0.98838 0.09300
C 	C 	0.86256 0.74414 0.00592 0.01700
H 	H 	0.84703 0.56131 0.01829 0.05900
C 	C 	0.88480 0.78764 0.05211 -0.05800
C 	C 	0.92115 0.85286 0.05191 0.11000
C 	C 	0.93463 0.87481 0.00498 -0.00900
C 	C 	0.91165 0.83120 0.95876 -0.05900
C 	C 	0.87597 0.76615 0.95903 0.09800
H 	H 	0.87456 0.77079 0.08826 0.08900
H 	H 	0.92198 0.84800 0.92260 0.09100
Br	Br	0.94969 0.69965 0.03195 -0.18300
Br	Br	0.63172 0.51960 0.96954 -0.20000
Br	Br	0.95337 0.91127 0.11613 -0.18000
Br	Br	0.84684 0.70806 0.89511 -0.18900
C 	C 	0.79502 0.21929 0.99235 -0.11800
C 	C 	0.79405 0.18946 0.03424 0.16200
C 	C 	0.82511 0.16068 0.03571 -0.07500
C 	C 	0.86082 0.16500 0.99779 0.02200
C 	C 	0.86598 0.19907 0.95837 0.07800
C 	C 	0.83233 0.22498 0.95528 -0.00900
H 	H 	0.82239 0.13584 0.06687 0.09200
C 	C 	0.89039 0.13148 0.99825 0.00100
H 	H 	0.83463 0.24895 0.92358 0.04600
C 	C 	0.86384 0.07670 0.96105 -0.05900
C 	C 	0.89369 0.04688 0.95833 0.10600
C 	C 	0.94871 0.06972 0.99508 -0.03100
C 	C 	0.97469 0.12392 0.03282 -0.03400
C 	C 	0.94639 0.15538 0.03410 0.10800
H 	H 	0.82111 0.05854 0.93311 0.08100
H 	H 	0.01721 0.14190 0.06095 0.07300
Br	Br	0.91971 0.21168 0.90886 -0.20300
Br	Br	0.75652 0.19291 0.09226 -0.20100
Br	Br	0.86115 0.97781 0.90211 -0.19300
Br	Br	0.98615 0.23209 0.08387 -0.18500
C 	C 	0.45835 0.19291 0.96533 -0.09700
C 	C 	0.42574 0.20358 0.92727 0.14900
C 	C 	0.36153 0.17872 0.92693 -0.08700
C 	C 	0.32867 0.14104 0.96280 0.03200
C 	C 	0.35926 0.12492 0.99717 0.07800
C 	C 	0.42404 0.15158 0.99884 -0.02300
H 	H 	0.33722 0.18883 0.89885 0.08900
C 	C 	0.26272 0.11955 0.96480 -0.00200
H 	H 	0.44818 0.14169 0.02731 0.07600
C 	C 	0.21147 0.06891 0.92738 -0.06000
C 	C 	0.14825 0.04410 0.93148 0.10500
C 	C 	0.13593 0.06875 0.97436 -0.03100
C 	C 	0.18733 0.12182 0.01007 -0.04200
C 	C 	0.25056 0.14795 0.00498 0.11500
H 	H 	0.22075 0.04840 0.89539 0.08000
H 	H 	0.17814 0.14199 0.04238 0.07800
Br	Br	0.31341 0.06680 0.04228 -0.19000
Br	Br	0.46635 0.24778 0.87324 -0.23100
Br	Br	0.07954 0.97810 0.87739 -0.19500
Br	Br	0.31969 0.22232 0.05321 -0.19100
