data_crystal

_cell_length_a 30.65270
_cell_length_b 31.08743
_cell_length_c 34.85977
_cell_angle_alpha 95.52219
_cell_angle_beta  95.52035
_cell_angle_gamma 125.53286

_symmetry_space_group_name_	'P 1'
_symmetry_space_group_name_H-M	'P 1'

loop_
_symmetry_equiv_pos_as_xyz
  x,y,z

loop_
_atom_site_label
_atom_site_type_symbol
_atom_site_fract_x
_atom_site_fract_y
_atom_site_fract_z
_atom_site_charge
N 	N 	0.00864 0.95232 0.45463 -0.13400
N 	N 	0.01274 0.02986 0.45277 -0.13700
N 	N 	0.00958 0.97209 0.97810 -0.13400
N 	N 	0.01645 0.05192 0.98570 -0.13600
C 	C 	0.03819 0.00603 0.45564 0.13300
C 	C 	0.96250 0.02324 0.98747 0.11600
N 	N 	0.93228 0.96896 0.98453 -0.13700
C 	C 	0.95580 0.94346 0.97977 0.13100
C 	C 	0.04009 0.02636 0.98111 0.11900
C 	C 	0.95758 0.99998 0.44908 0.12200
N 	N 	0.92799 0.94608 0.44838 -0.13800
C 	C 	0.95355 0.92220 0.45099 0.11800
Cu	Cu	0.63552 0.25314 0.99906 0.92800
Cu	Cu	0.67604 0.25542 0.91521 0.87800
Cu	Cu	0.67104 0.34230 0.95170 0.89800
Cu	Cu	0.64735 0.35825 0.03106 0.90600
C 	C 	0.65682 0.29149 0.08179 0.34100
O 	O 	0.55819 0.22857 0.00007 -0.34900
C 	C 	0.65303 0.30989 0.86509 0.33900
O 	O 	0.68544 0.33755 0.00526 -0.63500
O 	O 	0.62904 0.26239 0.94403 -0.64200
O 	O 	0.66284 0.20879 0.99296 -0.36600
O 	O 	0.72552 0.26385 0.95777 -0.43300
O 	O 	0.63451 0.31612 0.07386 -0.35800
O 	O 	0.71575 0.41999 0.96246 -0.37700
C 	C 	0.70979 0.44977 0.98791 0.28900
C 	C 	0.54076 0.25544 0.98713 0.29700
O 	O 	0.57582 0.30626 0.98494 -0.39000
O 	O 	0.68653 0.43215 0.01859 -0.37200
O 	O 	0.65405 0.25740 0.05410 -0.35700
C 	C 	0.70850 0.22754 0.98012 0.31200
O 	O 	0.66773 0.34754 0.89558 -0.38500
O 	O 	0.64428 0.26400 0.86960 -0.38500
H 	H 	0.72463 0.35783 0.01681 0.18100
H 	H 	0.59127 0.24274 0.92930 0.18500
Cu	Cu	0.74081 0.33851 0.45070 0.93000
Cu	Cu	0.74850 0.30517 0.53635 0.87600
Cu	Cu	0.65659 0.30752 0.50375 0.90200
Cu	Cu	0.63548 0.33178 0.42554 0.90500
C 	C 	0.69399 0.31526 0.36910 0.34100
O 	O 	0.76935 0.41568 0.44871 -0.35600
C 	C 	0.69934 0.33177 0.58934 0.33500
O 	O 	0.65613 0.29269 0.44906 -0.63800
O 	O 	0.73732 0.34855 0.50699 -0.63900
O 	O 	0.78291 0.30801 0.45369 -0.36500
O 	O 	0.73237 0.25201 0.49402 -0.43500
O 	O 	0.67080 0.33863 0.37893 -0.35900
O 	O 	0.57779 0.26399 0.49659 -0.36500
C 	C 	0.54576 0.26523 0.46917 0.29300
C 	C 	0.74506 0.43579 0.46249 0.30200
O 	O 	0.69531 0.40349 0.46900 -0.38100
O 	O 	0.56598 0.30075 0.44565 -0.37600
O 	O 	0.72991 0.31733 0.39508 -0.35900
C 	C 	0.76514 0.26470 0.46877 0.31100
O 	O 	0.65658 0.30979 0.56070 -0.35500
O 	O 	0.74523 0.34084 0.58231 -0.41600
H 	H 	0.63378 0.25391 0.43737 0.17700
H 	H 	0.75818 0.38648 0.52052 0.18100
C 	C 	0.61760 0.28758 0.75499 -0.14800
C 	C 	0.66131 0.33689 0.74760 0.00800
C 	C 	0.69697 0.37987 0.77904 0.29700
C 	C 	0.69164 0.37213 0.81767 -0.06200
C 	C 	0.65083 0.32131 0.82514 -0.14600
C 	C 	0.61224 0.27975 0.79359 0.36800
C 	C 	0.67433 0.34079 0.70790 0.01200
F 	F 	0.73847 0.42828 0.77218 -0.42200
H 	H 	0.72101 0.40479 0.84174 0.09000
F 	F 	0.57052 0.23136 0.80032 -0.44600
H 	H 	0.58927 0.25455 0.73083 0.11000
C 	C 	0.71489 0.33571 0.69875 0.29300
C 	C 	0.72414 0.33458 0.66034 -0.06400
C 	C 	0.69286 0.33839 0.63055 -0.14500
C 	C 	0.65354 0.34553 0.64009 0.36600
C 	C 	0.64416 0.34634 0.67860 -0.14800
F 	F 	0.74432 0.33031 0.72692 -0.42600
H 	H 	0.75459 0.32917 0.65354 0.08400
F 	F 	0.62465 0.35188 0.61220 -0.44400
H 	H 	0.61312 0.35077 0.68557 0.11300
C 	C 	0.70880 0.33810 0.19097 -0.14100
C 	C 	0.68688 0.28898 0.20353 0.01400
C 	C 	0.65970 0.24119 0.17565 0.28600
C 	C 	0.65219 0.24232 0.13562 -0.05500
C 	C 	0.67165 0.29118 0.12318 -0.14400
C 	C 	0.70134 0.33927 0.15100 0.36600
C 	C 	0.68761 0.28718 0.24572 0.01400
F 	F 	0.63926 0.19354 0.18742 -0.42300
H 	H 	0.62954 0.20502 0.11441 0.09700
F 	F 	0.72207 0.38703 0.13933 -0.45700
H 	H 	0.73017 0.37519 0.21229 0.12000
C 	C 	0.73731 0.31226 0.27182 0.28600
C 	C 	0.73896 0.31857 0.31235 -0.05600
C 	C 	0.69099 0.30000 0.32706 -0.14400
C 	C 	0.64083 0.27183 0.30089 0.36600
C 	C 	0.63923 0.26558 0.26042 -0.14100
F 	F 	0.78422 0.33214 0.25792 -0.42400
H 	H 	0.77782 0.33992 0.33225 0.09600
F 	F 	0.59383 0.25179 0.31470 -0.45700
H 	H 	0.60064 0.24568 0.24046 0.12100
C 	C 	0.92179 0.86369 0.44923 -0.01800
C 	C 	0.88198 0.83829 0.47261 -0.01700
C 	C 	0.85650 0.78399 0.47436 -0.04600
C 	C 	0.87043 0.75467 0.45256 0.01600
C 	C 	0.90892 0.77964 0.42826 -0.04600
C 	C 	0.93445 0.83384 0.42659 -0.01700
C 	C 	0.84583 0.69827 0.45586 0.01000
C 	C 	0.81325 0.65706 0.42288 -0.03900
C 	C 	0.79357 0.60417 0.42510 -0.02700
C 	C 	0.80628 0.59210 0.46029 -0.00300
C 	C 	0.83809 0.63301 0.49346 -0.02800
C 	C 	0.85783 0.68598 0.49128 -0.03900
C 	C 	0.78622 0.53758 0.46230 0.05200
C 	C 	0.76830 0.49142 0.46299 -0.09900
H 	H 	0.87193 0.86093 0.49026 0.04300
H 	H 	0.82649 0.76491 0.49298 0.04800
H 	H 	0.91973 0.75726 0.41120 0.04800
H 	H 	0.96470 0.85289 0.40814 0.04500
H 	H 	0.80370 0.66614 0.39545 0.04700
H 	H 	0.76870 0.57266 0.39941 0.04700
H 	H 	0.84783 0.62390 0.52082 0.04600
H 	H 	0.88316 0.71756 0.51685 0.04600
C 	C 	0.93008 0.02612 0.44598 -0.02100
C 	C 	0.88670 0.01102 0.46569 -0.02000
C 	C 	0.86388 0.03906 0.46551 -0.04500
C 	C 	0.88414 0.08233 0.44556 0.01500
C 	C 	0.92622 0.09626 0.42478 -0.04600
C 	C 	0.94908 0.06831 0.42496 -0.01700
C 	C 	0.86368 0.11512 0.44846 0.01000
C 	C 	0.83645 0.11734 0.41480 -0.04000
C 	C 	0.81776 0.14908 0.41762 -0.02600
C 	C 	0.82634 0.17885 0.45405 -0.00700
C 	C 	0.85379 0.17689 0.48761 -0.02800
C 	C 	0.87241 0.14517 0.48485 -0.04100
C 	C 	0.80502 0.20963 0.45747 0.05400
C 	C 	0.78700 0.23509 0.46176 -0.11000
H 	H 	0.87164 0.97857 0.48200 0.04600
H 	H 	0.83116 0.02781 0.48144 0.04600
H 	H 	0.94199 0.12949 0.40919 0.04800
H 	H 	0.98195 0.07982 0.40913 0.04400
H 	H 	0.82959 0.09436 0.38656 0.04800
H 	H 	0.79639 0.15024 0.39157 0.05000
H 	H 	0.86045 0.19970 0.51589 0.04000
H 	H 	0.89375 0.14406 0.51093 0.04400
C 	C 	0.48663 0.23250 0.46895 -0.07500
C 	C 	0.46690 0.22072 0.50412 0.01700
C 	C 	0.41104 0.19270 0.50407 -0.05900
C 	C 	0.37447 0.17615 0.46890 0.02900
C 	C 	0.39401 0.18693 0.43367 -0.06000
C 	C 	0.44979 0.21496 0.43367 0.01500
C 	C 	0.31581 0.14805 0.46897 0.00300
C 	C 	0.29011 0.17147 0.45754 -0.03200
C 	C 	0.23399 0.14376 0.45592 -0.03800
C 	C 	0.20328 0.09258 0.46579 0.01600
C 	C 	0.22899 0.06948 0.47779 -0.03800
C 	C 	0.28510 0.09712 0.47938 -0.03200
C 	C 	0.14513 0.06298 0.46239 0.00900
C 	C 	0.09634 0.03747 0.45936 -0.03600
H 	H 	0.49486 0.23425 0.53158 0.05800
H 	H 	0.39628 0.18449 0.53141 0.05600
H 	H 	0.36597 0.17376 0.40631 0.05400
H 	H 	0.46441 0.22321 0.40629 0.04200
H 	H 	0.31356 0.21091 0.44966 0.04600
H 	H 	0.21437 0.16188 0.44669 0.04800
H 	H 	0.20545 0.02991 0.48548 0.04800
H 	H 	0.30456 0.07869 0.48819 0.04500
C 	C 	0.73600 0.50657 0.98489 -0.08300
C 	C 	0.75559 0.54565 0.01883 0.02100
C 	C 	0.78043 0.59941 0.01592 -0.05600
C 	C 	0.78591 0.61469 0.97910 0.02400
C 	C 	0.76624 0.57574 0.94516 -0.06000
C 	C 	0.74140 0.52192 0.94801 0.01700
C 	C 	0.81326 0.67164 0.97622 0.00300
C 	C 	0.86250 0.69998 0.96226 -0.03300
C 	C 	0.89001 0.75475 0.96157 -0.03800
C 	C 	0.86849 0.78151 0.97483 0.01600
C 	C 	0.81885 0.75310 0.98813 -0.03800
C 	C 	0.79126 0.69830 0.98880 -0.03400
C 	C 	0.89848 0.83854 0.97627 0.00800
C 	C 	0.92426 0.88640 0.97775 -0.03700
H 	H 	0.75218 0.53452 0.04749 0.04500
H 	H 	0.79586 0.62930 0.04231 0.05300
H 	H 	0.77014 0.58717 0.91659 0.05600
H 	H 	0.72603 0.49215 0.92157 0.04700
H 	H 	0.87986 0.67977 0.95256 0.04600
H 	H 	0.92838 0.77650 0.95123 0.04800
H 	H 	0.80194 0.77354 0.99836 0.04700
H 	H 	0.75311 0.67668 0.99942 0.04400
C 	C 	0.93675 0.05082 0.99271 -0.02300
C 	C 	0.89658 0.03320 0.01608 -0.01200
C 	C 	0.86937 0.05676 0.01888 -0.04200
C 	C 	0.88197 0.09811 0.99833 0.01100
C 	C 	0.92310 0.11674 0.97580 -0.04700
C 	C 	0.95045 0.09327 0.97305 -0.01700
C 	C 	0.85035 0.12009 0.99888 0.00600
C 	C 	0.87660 0.17489 0.01353 -0.03500
C 	C 	0.84696 0.19611 0.01233 -0.02100
C 	C 	0.79093 0.16268 0.99657 -0.01100
C 	C 	0.76445 0.10775 0.98269 -0.02600
C 	C 	0.79403 0.08650 0.98382 -0.04000
C 	C 	0.76149 0.18541 0.99198 0.05600
C 	C 	0.73706 0.20452 0.98716 -0.10900
H 	H 	0.88623 0.00107 0.03188 0.04500
H 	H 	0.83808 0.04250 0.03666 0.04900
H 	H 	0.93307 0.14861 0.95979 0.04500
H 	H 	0.98126 0.10717 0.95487 0.04200
H 	H 	0.91997 0.20107 0.02546 0.04700
H 	H 	0.86771 0.23865 0.02307 0.04700
H 	H 	0.72117 0.08171 0.97038 0.04400
H 	H 	0.77340 0.04416 0.97240 0.04500
C 	C 	0.09896 0.05740 0.98051 -0.01700
C 	C 	0.12415 0.10098 0.96072 -0.01700
C 	C 	0.17924 0.12811 0.95813 -0.04600
C 	C 	0.20953 0.11190 0.97534 0.01600
C 	C 	0.18466 0.06911 0.99577 -0.05000
C 	C 	0.12971 0.04201 0.99836 -0.02100
C 	C 	0.26726 0.13957 0.97197 0.01000
C 	C 	0.28372 0.11103 0.95254 -0.03900
C 	C 	0.33914 0.13550 0.95297 -0.02800
C 	C 	0.37840 0.18866 0.97272 -0.00200
C 	C 	0.36192 0.21784 0.99096 -0.03200
C 	C 	0.30651 0.19339 0.99058 -0.04300
C 	C 	0.43557 0.21196 0.97669 0.04900
C 	C 	0.48353 0.23160 0.98092 -0.09900
H 	H 	0.10086 0.11315 0.94670 0.04400
H 	H 	0.19818 0.16124 0.94240 0.04700
H 	H 	0.20794 0.05679 0.00958 0.05300
H 	H 	0.11099 0.00898 0.01421 0.05100
H 	H 	0.25368 0.06958 0.93783 0.04600
H 	H 	0.35157 0.11277 0.93868 0.04700
H 	H 	0.39207 0.25901 0.00620 0.05000
H 	H 	0.29421 0.21577 0.00563 0.05100
