data_crystal

_cell_length_a 17.21078
_cell_length_b 17.87279
_cell_length_c 36.99639
_cell_angle_alpha 60.64848
_cell_angle_beta  119.04409
_cell_angle_gamma 133.39040

_symmetry_space_group_name_	'P 1'
_symmetry_space_group_name_H-M	'P 1'

loop_
_symmetry_equiv_pos_as_xyz
  x,y,z

loop_
_atom_site_label
_atom_site_type_symbol
_atom_site_fract_x
_atom_site_fract_y
_atom_site_fract_z
_atom_site_charge
C 	C 	0.64201 0.28046 0.97613 0.00200
C 	C 	0.53547 0.21014 0.98304 -0.05400
C 	C 	0.48845 0.24949 0.98379 0.03800
C 	C 	0.53985 0.35826 0.97119 -0.05900
C 	C 	0.64974 0.42800 0.96949 0.02400
C 	C 	0.69950 0.39017 0.96956 -0.04900
H 	H 	0.49481 0.12509 0.99252 0.05200
H 	H 	0.50141 0.38810 0.97056 0.06700
H 	H 	0.78562 0.44415 0.96882 0.05100
C 	C 	0.79675 0.34156 0.50401 -0.00900
C 	C 	0.69453 0.26258 0.51513 -0.04800
C 	C 	0.63595 0.29115 0.51484 0.00800
C 	C 	0.67441 0.39717 0.50007 -0.05100
C 	C 	0.77857 0.47666 0.49150 0.01000
C 	C 	0.83849 0.44902 0.49201 -0.04900
H 	H 	0.66511 0.18009 0.52719 0.04300
H 	H 	0.62880 0.41878 0.50001 0.05500
H 	H 	0.92093 0.51077 0.48667 0.03900
C 	C 	0.21824 0.59174 0.16994 0.01800
C 	C 	0.32754 0.66126 0.16606 -0.04900
C 	C 	0.37525 0.62177 0.16602 0.01200
C 	C 	0.32158 0.51284 0.17713 -0.04600
C 	C 	0.20946 0.44483 0.17481 0.01100
C 	C 	0.15801 0.48287 0.17327 -0.04400
H 	H 	0.37045 0.74644 0.15820 0.05600
H 	H 	0.36134 0.48277 0.17911 0.05600
H 	H 	0.07023 0.43043 0.17100 0.06500
C 	C 	0.32653 0.65400 0.66674 0.01600
C 	C 	0.28018 0.54694 0.67309 -0.04700
C 	C 	0.33969 0.52195 0.67104 0.01300
C 	C 	0.44432 0.60269 0.66331 -0.04400
C 	C 	0.48734 0.70849 0.65432 0.01000
C 	C 	0.43153 0.73440 0.65810 -0.04800
H 	H 	0.19650 0.48468 0.67701 0.05800
H 	H 	0.48838 0.58343 0.66038 0.06000
H 	H 	0.46515 0.81717 0.65061 0.05800
Co	Co	0.92151 0.80263 0.07660 1.16700
Co	Co	0.94908 0.07766 0.06796 1.14900
Co	Co	0.82729 0.85237 0.11511 1.18500
Co	Co	0.05117 0.02928 0.03229 1.17500
C 	C 	0.83555 0.69954 0.00577 0.27300
Co	Co	0.07213 0.87031 0.02325 1.18400
Co	Co	0.79293 0.00018 0.12281 1.14600
C 	C 	0.26409 0.05746 0.05530 0.26300
O 	O 	0.76238 0.86573 0.17219 -0.40200
O 	O 	0.85545 0.97435 0.09719 -0.73100
C 	C 	0.84581 0.86204 0.19670 0.32100
O 	O 	0.83071 0.73917 0.11683 -0.47200
O 	O 	0.05454 0.14454 0.03335 -0.44300
C 	C 	0.02826 0.17327 0.13890 0.39000
O 	O 	0.90848 0.93355 0.06141 -0.58300
C 	C 	0.60381 0.80446 0.09767 0.31600
C 	C 	0.05602 0.72444 0.10918 0.32100
C 	C 	0.05007 0.03345 0.94988 0.30200
O 	O 	0.89560 0.86082 0.17902 -0.39000
O 	O 	0.03114 0.72922 0.06919 -0.39000
O 	O 	0.03424 0.76738 0.12023 -0.36100
O 	O 	0.94796 0.08980 0.15777 -0.46800
O 	O 	0.05843 0.16479 0.11478 -0.38300
O 	O 	0.64803 0.90618 0.08480 -0.37300
O 	O 	0.65562 0.76905 0.10147 -0.36800
O 	O 	0.11834 0.00796 0.97447 -0.40300
O 	O 	0.01145 0.04964 0.96658 -0.36400
O 	O 	0.00544 0.90219 0.04370 -0.71900
C 	C 	0.80758 0.15104 0.03697 0.32900
O 	O 	0.82675 0.14028 0.07727 -0.43400
O 	O 	0.85094 0.13120 0.02445 -0.41000
O 	O 	0.91681 0.78609 0.98744 -0.39300
O 	O 	0.81407 0.69701 0.03682 -0.38200
O 	O 	0.21776 0.95627 0.06378 -0.35000
O 	O 	0.21725 0.08877 0.05876 -0.38400
Co	Co	0.02658 0.85839 0.58104 1.21000
Co	Co	0.10769 0.14934 0.58615 1.18800
Co	Co	0.94820 0.92109 0.62109 1.18400
Co	Co	0.18708 0.08578 0.54670 1.17700
C 	C 	0.93561 0.76629 0.50613 0.26000
Co	Co	0.17532 0.91284 0.53022 1.18000
Co	Co	0.96050 0.08768 0.64099 1.13400
C 	C 	0.37986 0.08064 0.57232 0.26900
O 	O 	0.89686 0.94171 0.68401 -0.40300
O 	O 	0.00613 0.05047 0.61228 -0.74000
C 	C 	0.95328 0.90257 0.70651 0.31900
O 	O 	0.92707 0.79886 0.61664 -0.47800
O 	O 	0.21227 0.20874 0.55284 -0.45600
C 	C 	0.19902 0.22873 0.66430 0.31400
O 	O 	0.04194 0.00292 0.57168 -0.58300
C 	C 	0.75074 0.91706 0.60211 0.37000
C 	C 	0.13557 0.75448 0.61266 0.32200
C 	C 	0.18873 0.09872 0.46287 0.30500
O 	O 	0.99607 0.89655 0.68736 -0.40500
O 	O 	0.11168 0.76399 0.57215 -0.39300
O 	O 	0.12103 0.80134 0.62503 -0.37200
O 	O 	0.11398 0.14687 0.68095 -0.38800
O 	O 	0.22288 0.22067 0.63763 -0.38500
O 	O 	0.81182 0.01983 0.59799 -0.44900
O 	O 	0.78605 0.87376 0.59912 -0.38200
O 	O 	0.24354 0.05804 0.48664 -0.42300
O 	O 	0.16178 0.12449 0.48066 -0.37600
O 	O 	0.12111 0.95563 0.55203 -0.72700
C 	C 	0.00032 0.25354 0.55979 0.39000
O 	O 	0.02238 0.23872 0.60075 -0.40100
O 	O 	0.02897 0.22363 0.54490 -0.37800
O 	O 	0.02190 0.84991 0.49007 -0.33400
O 	O 	0.91284 0.76758 0.53550 -0.37800
O 	O 	0.32181 0.97953 0.57463 -0.35000
O 	O 	0.34147 0.11592 0.57876 -0.39000
C 	C 	0.90131 0.87595 0.87501 -0.03300
C 	C 	0.97424 0.94260 0.84771 0.00800
C 	C 	0.04983 0.05227 0.84581 -0.04400
C 	C 	0.06664 0.09075 0.87610 0.01900
C 	C 	0.00021 0.02114 0.90579 -0.06400
C 	C 	0.90651 0.92040 0.89925 -0.00800
C 	C 	0.97003 0.89934 0.82015 -0.01200
C 	C 	0.86840 0.83054 0.79588 -0.05900
C 	C 	0.86564 0.80066 0.76648 0.04000
C 	C 	0.96142 0.86043 0.75279 -0.14200
C 	C 	0.06318 0.91718 0.78026 0.07600
C 	C 	0.06764 0.93356 0.81502 -0.01900
C 	C 	0.76208 0.71845 0.74626 0.07100
C 	C 	0.17103 0.98252 0.84553 0.15000
C 	C 	0.83075 0.76179 0.88214 0.08700
C 	C 	0.15577 0.19990 0.87806 0.08400
N 	N 	0.67914 0.65220 0.73016 -0.11000
N 	N 	0.25388 0.02175 0.86999 -0.15000
N 	N 	0.22733 0.28737 0.87968 -0.10400
N 	N 	0.77424 0.67037 0.88773 -0.11600
H 	H 	0.84539 0.87167 0.91747 0.05600
H 	H 	0.09898 0.10650 0.82225 0.05000
H 	H 	0.79229 0.80401 0.79847 0.05800
H 	H 	0.13868 0.95613 0.77257 0.04700
C 	C 	0.94401 0.01191 0.27205 -0.24500
C 	C 	0.01143 0.98502 0.30757 0.20500
C 	C 	0.02802 0.91897 0.30666 -0.07200
C 	C 	0.97684 0.87943 0.27048 0.04300
C 	C 	0.90584 0.90371 0.23552 -0.12900
C 	C 	0.88639 0.96589 0.23792 0.14100
C 	C 	0.05859 0.02030 0.34683 -0.04700
C 	C 	0.98710 0.98348 0.36921 -0.04500
C 	C 	0.02751 0.02597 0.40279 0.04000
C 	C 	0.14184 0.09754 0.41740 -0.08400
C 	C 	0.21230 0.14023 0.39309 0.00500
C 	C 	0.17134 0.10215 0.35793 -0.01500
C 	C 	0.95118 0.99493 0.42235 0.07400
C 	C 	0.24552 0.14745 0.33349 0.07600
C 	C 	0.93440 0.08810 0.27014 0.11500
C 	C 	0.99367 0.81057 0.27057 0.01300
N 	N 	0.88997 0.97003 0.43801 -0.10500
N 	N 	0.30487 0.18372 0.31388 -0.11300
N 	N 	0.00719 0.75534 0.27068 -0.04800
N 	N 	0.92680 0.14914 0.26862 -0.14900
H 	H 	0.82839 0.98140 0.21230 0.00300
H 	H 	0.07975 0.89773 0.33411 0.08100
H 	H 	0.89947 0.92428 0.35949 0.05400
H 	H 	0.30013 0.19808 0.40328 0.04200
C 	C 	0.24993 0.33155 0.66755 -0.10500
C 	C 	0.28837 0.41677 0.66991 0.05400
C 	C 	0.57936 0.78852 0.63499 0.06600
C 	C 	0.65641 0.84902 0.61902 -0.11700
C 	C 	0.20036 0.71467 0.64098 -0.08900
C 	C 	0.25662 0.68358 0.65632 0.05100
C 	C 	0.09511 0.26996 0.15113 -0.11100
C 	C 	0.14540 0.34850 0.16244 0.07000
C 	C 	0.45700 0.68755 0.14228 0.05300
C 	C 	0.52259 0.73893 0.12142 -0.10500
C 	C 	0.16018 0.63609 0.15682 0.05200
C 	C 	0.11237 0.67663 0.13957 -0.08400
C 	C 	0.93077 0.28825 0.53251 -0.18400
C 	C 	0.87001 0.31439 0.51655 0.07000
C 	C 	0.87801 0.66694 0.49793 -0.09600
C 	C 	0.83330 0.58198 0.49334 0.03300
C 	C 	0.54694 0.21543 0.53596 0.03800
C 	C 	0.47219 0.15479 0.55338 -0.10500
C 	C 	0.75211 0.19982 0.00694 -0.14800
C 	C 	0.70260 0.23863 0.98953 0.07500
C 	C 	0.71646 0.52636 0.98058 0.03800
C 	C 	0.76918 0.60544 0.99186 -0.07300
C 	C 	0.40845 0.18377 0.00849 0.01400
C 	C 	0.34385 0.12963 0.03021 -0.09600
