data_crystal

_cell_length_a 18.21083
_cell_length_b 16.86458
_cell_length_c 62.53406
_cell_angle_alpha 89.55643
_cell_angle_beta  89.55958
_cell_angle_gamma 119.47941

_symmetry_space_group_name_	'P 1'
_symmetry_space_group_name_H-M	'P 1'

loop_
_symmetry_equiv_pos_as_xyz
  x,y,z

loop_
_atom_site_label
_atom_site_type_symbol
_atom_site_fract_x
_atom_site_fract_y
_atom_site_fract_z
_atom_site_charge
O 	O 	0.37316 0.72572 0.00408 -0.71700
H 	H 	0.32963 0.32805 0.00108 0.08000
C 	C 	0.57635 0.80575 0.00642 0.30400
O 	O 	0.37542 0.56499 0.00085 -0.37600
Ni	Ni	0.30963 0.77959 0.01424 1.12000
O 	O 	0.21325 0.65175 0.02043 -0.37900
O 	O 	0.40253 0.91070 0.01214 -0.39400
O 	O 	0.53045 0.71870 0.01064 -0.37600
C 	C 	0.64702 0.86154 0.02057 -0.08900
H 	H 	0.70583 0.77796 0.01712 0.03300
C 	C 	0.22012 0.59043 0.03256 0.28800
H 	H 	0.17805 0.41319 0.03781 0.02600
Ni	Ni	0.41015 0.66756 0.02332 1.11200
C 	C 	0.64547 0.93107 0.03242 0.01600
C 	C 	0.70295 0.83049 0.02635 0.01900
H 	H 	0.60241 0.95542 0.02820 0.03900
C 	C 	0.41451 0.81080 0.05216 0.31300
O 	O 	0.29422 0.60481 0.03985 -0.37100
O 	O 	0.45801 0.77241 0.04547 -0.37900
O 	O 	0.33729 0.78132 0.04557 -0.38400
C 	C 	0.14360 0.51738 0.04287 -0.08200
C 	C 	0.13752 0.43212 0.04656 0.01600
H 	H 	0.08977 0.60320 0.05042 0.03600
C 	C 	0.74868 0.86010 0.04525 -0.06900
H 	H 	0.78603 0.82973 0.05043 0.04700
H 	H 	0.50872 0.99452 0.05115 0.02800
C 	C 	0.08774 0.53889 0.05359 0.01600
C 	C 	0.74019 0.92266 0.05832 0.03800
C 	C 	0.69142 0.96104 0.05128 -0.04600
H 	H 	0.68486 0.00987 0.06112 0.02900
C 	C 	0.03589 0.48215 0.07012 -0.06000
C 	C 	0.08566 0.37539 0.06307 -0.06900
H 	H 	0.08645 0.31306 0.06692 0.04500
C 	C 	0.48331 0.96620 0.06684 0.05600
C 	C 	0.44401 0.87187 0.07044 -0.10900
H 	H 	0.88855 0.95045 0.07381 0.04600
C 	C 	0.03993 0.40382 0.07599 0.03800
H 	H 	0.99733 0.50238 0.07933 0.03900
C 	C 	0.48173 0.02307 0.08279 -0.12800
H 	H 	0.50693 0.09496 0.07933 0.05800
C 	C 	0.76853 0.93521 0.08079 -0.04300
C 	C 	0.41304 0.83642 0.09092 0.04100
H 	H 	0.38390 0.76375 0.09396 0.02700
C 	C 	0.84344 0.94394 0.08613 -0.06100
H 	H 	0.72721 0.93703 0.09320 0.04600
C 	C 	0.00892 0.36058 0.09725 -0.03500
H 	H 	0.97727 0.28668 0.09856 0.03100
C 	C 	0.44052 0.98588 0.10239 0.09200
C 	C 	0.41031 0.89278 0.10680 -0.09500
H 	H 	0.39604 0.08529 0.10796 0.04700
H 	H 	0.96369 0.08941 0.10700 0.04700
C 	C 	0.03513 0.41098 0.11503 -0.06100
H 	H 	0.07057 0.48486 0.11362 0.04800
C 	C 	0.41305 0.03892 0.11580 -0.07500
C 	C 	0.86648 0.94812 0.10881 0.06600
C 	C 	0.92914 0.03011 0.11729 -0.09500
H 	H 	0.77511 0.80736 0.11576 0.05100
H 	H 	0.24957 0.00469 0.12466 0.04800
H 	H 	0.37868 0.86261 0.12184 0.05700
C 	C 	0.82285 0.87136 0.12224 -0.08100
C 	C 	0.03336 0.36861 0.13590 0.06000
H 	H 	0.16629 0.45709 0.14135 0.05100
H 	H 	0.89948 0.27274 0.13563 0.04900
C 	C 	0.26719 0.03151 0.14062 -0.07700
C 	C 	0.40086 0.02428 0.13702 -0.06000
C 	C 	0.94473 0.03692 0.13924 0.01100
C 	C 	0.10795 0.40090 0.14755 -0.08000
C 	C 	0.95781 0.29695 0.14429 -0.08600
C 	C 	0.34562 0.05033 0.14896 0.04800
H 	H 	0.42841 0.98889 0.14547 0.05200
C 	C 	0.83888 0.87794 0.14419 0.02400
H 	H 	0.99137 0.10146 0.14576 0.03300
H 	H 	0.14892 0.02703 0.14672 0.03400
C 	C 	0.20957 0.04304 0.15325 0.02100
C 	C 	0.89826 0.96145 0.15285 -0.08200
H 	H 	0.80280 0.81925 0.15454 0.03400
C 	C 	0.10807 0.35919 0.16692 0.02600
C 	C 	0.95767 0.25591 0.16383 0.01700
C 	C 	0.03319 0.28575 0.17503 -0.08700
H 	H 	0.16653 0.38341 0.17553 0.03200
H 	H 	0.89940 0.19945 0.16995 0.03100
C 	C 	0.22906 0.07220 0.17444 -0.09500
C 	C 	0.36635 0.08283 0.16985 -0.07900
H 	H 	0.42634 0.09703 0.17648 0.04600
C 	C 	0.90467 0.97346 0.17614 0.31900
C 	C 	0.30863 0.09417 0.18250 0.02200
C 	C 	0.16407 0.07224 0.18867 0.31000
O 	O 	0.08434 0.01238 0.18564 -0.40100
O 	O 	0.89406 0.03829 0.18450 -0.39300
O 	O 	0.90879 0.91233 0.18851 -0.38100
C 	C 	0.03522 0.23551 0.19416 0.31000
O 	O 	0.09906 0.22051 0.19685 -0.38300
H 	H 	0.32459 0.11673 0.19883 0.03400
O 	O 	0.18760 0.12511 0.20555 -0.38800
O 	O 	0.97253 0.20422 0.20810 -0.38000
Ni	Ni	0.00317 0.94717 0.20985 1.12500
Ni	Ni	0.90754 0.06728 0.21685 1.10800
Ni	Ni	0.11200 0.15670 0.22305 1.12000
O 	O 	0.82529 0.92965 0.22411 -0.36600
O 	O 	0.00271 0.05183 0.22037 -0.70400
O 	O 	0.09608 0.96166 0.23018 -0.36700
O 	O 	0.91242 0.86923 0.23178 -0.37700
H 	H 	0.99230 0.03217 0.23545 0.13000
H 	H 	0.67548 0.77663 0.23185 0.03600
C 	C 	0.84522 0.87808 0.23620 0.28800
O 	O 	0.06142 0.21442 0.24253 -0.36900
C 	C 	0.11491 0.00970 0.24812 0.26400
O 	O 	0.13566 0.09702 0.24793 -0.38300
O 	O 	0.92174 0.11043 0.24848 -0.37300
C 	C 	0.69692 0.76986 0.24752 0.02000
C 	C 	0.78333 0.81620 0.25218 -0.08500
C 	C 	0.99818 0.16503 0.25598 0.27100
H 	H 	0.23297 0.95998 0.25560 0.03700
H 	H 	0.57158 0.67768 0.25917 0.04800
C 	C 	0.63794 0.71417 0.26306 -0.07400
C 	C 	0.12711 0.97081 0.26790 -0.07000
C 	C 	0.19516 0.95436 0.26960 0.01800
H 	H 	0.15218 0.22953 0.27411 0.03200
C 	C 	0.81033 0.80477 0.27235 0.01900
H 	H 	0.87688 0.83980 0.27607 0.02900
C 	C 	0.10049 0.03908 0.74366 0.24500
C 	C 	0.06487 0.91734 0.69041 0.30800
Ni	Ni	0.94112 0.88424 0.72651 1.11000
Ni	Ni	0.05025 0.07906 0.70104 1.11100
O 	O 	0.03232 0.96065 0.74883 -0.33900
O 	O 	0.12339 0.06199 0.72329 -0.38400
O 	O 	0.04050 0.88337 0.70983 -0.36300
O 	O 	0.04769 0.97906 0.68278 -0.37200
O 	O 	0.95034 0.99411 0.71602 -0.66900
H 	H 	0.96220 0.02606 0.72970 0.10600
C 	C 	0.18157 0.38298 0.42399 0.29000
C 	C 	0.10205 0.53485 0.44920 0.30900
C 	C 	0.26598 0.75942 0.40644 0.30900
Ni	Ni	0.26471 0.53412 0.45539 1.11200
Ni	Ni	0.19826 0.56021 0.40898 1.11900
O 	O 	0.23246 0.41066 0.44070 -0.37200
O 	O 	0.14069 0.42618 0.41799 -0.38200
O 	O 	0.28148 0.64944 0.47136 -0.37800
O 	O 	0.26619 0.54476 0.38527 -0.38200
O 	O 	0.13578 0.48724 0.45666 -0.37100
O 	O 	0.13236 0.58540 0.43176 -0.38800
O 	O 	0.23176 0.68272 0.39584 -0.38900
O 	O 	0.28859 0.58795 0.42785 -0.71400
H 	H 	0.31018 0.55050 0.42129 0.14400
C 	C 	0.44752 0.94678 0.99455 0.32900
C 	C 	0.25777 0.72352 0.96943 0.28800
O 	O 	0.26453 0.78101 0.98472 -0.37900
O 	O 	0.32545 0.72140 0.96196 -0.38000
H 	H 	0.32635 0.67038 0.99808 0.14300
C 	C 	0.16220 0.29762 0.41335 -0.08700
C 	C 	0.22839 0.28580 0.40553 0.01500
C 	C 	0.21714 0.23485 0.38707 -0.07400
C 	C 	0.13917 0.19453 0.37667 0.04400
C 	C 	0.06905 0.19108 0.38717 -0.07400
C 	C 	0.08058 0.24196 0.40560 0.01900
C 	C 	0.13786 0.18279 0.35324 -0.05200
C 	C 	0.06987 0.11663 0.34346 -0.05600
C 	C 	0.05185 0.12696 0.32078 0.04900
C 	C 	0.96811 0.09434 0.31446 -0.08300
C 	C 	0.95041 0.10916 0.29352 0.00600
C 	C 	0.01648 0.15767 0.27872 -0.07700
C 	C 	0.10032 0.19132 0.28520 0.01700
C 	C 	0.11758 0.17216 0.30570 -0.07300
H 	H 	0.29031 0.32304 0.41242 0.03100
H 	H 	0.27095 0.23424 0.37973 0.04500
H 	H 	0.00746 0.15713 0.37989 0.04700
H 	H 	0.02763 0.24595 0.41242 0.03400
H 	H 	0.18910 0.23569 0.34382 0.04300
H 	H 	0.02133 0.06099 0.35297 0.03900
H 	H 	0.18188 0.19134 0.30970 0.04800
C 	C 	0.25404 0.83395 0.39828 -0.08800
C 	C 	0.17172 0.81950 0.39608 0.01700
C 	C 	0.15453 0.86794 0.38053 -0.06600
C 	C 	0.21962 0.93106 0.36718 0.03400
C 	C 	0.30340 0.95501 0.37156 -0.04900
C 	C 	0.32064 0.90698 0.38723 0.01500
C 	C 	0.19890 0.95703 0.34650 -0.02800
C 	C 	0.19380 0.90935 0.32891 -0.06100
C 	C 	0.17109 0.93182 0.30797 0.05100
C 	C 	0.21684 0.93452 0.28955 -0.07300
C 	C 	0.07868 0.96347 0.28612 0.01500
C 	C 	0.10040 0.94392 0.30608 -0.07100
H 	H 	0.08983 0.85101 0.37769 0.04900
H 	H 	0.35444 0.00570 0.36173 0.03000
H 	H 	0.38482 0.92051 0.38923 0.03500
H 	H 	0.18551 0.01308 0.34575 0.02800
H 	H 	0.21013 0.85544 0.32979 0.05000
H 	H 	0.27014 0.92292 0.29076 0.05000
H 	H 	0.02544 0.97515 0.28489 0.03400
H 	H 	0.06244 0.93831 0.32004 0.05200
C 	C 	0.02312 0.55955 0.47830 -0.03900
C 	C 	0.02213 0.52012 0.45854 -0.08600
H 	H 	0.08276 0.61029 0.48484 0.05000
H 	H 	0.99475 0.44321 0.42031 0.08400
H 	H 	0.00680 0.62590 0.51440 0.09200
C 	C 	0.24332 0.88820 0.65194 0.07200
C 	C 	0.25662 0.90265 0.67398 -0.08200
C 	C 	0.19501 0.90513 0.68700 0.02900
C 	C 	0.12017 0.89402 0.67801 -0.09300
C 	C 	0.10429 0.87249 0.65631 0.03000
C 	C 	0.16532 0.86860 0.64337 -0.08400
H 	H 	0.38494 0.04500 0.64617 -0.00400
H 	H 	0.31620 0.91642 0.68080 0.05900
H 	H 	0.20752 0.92090 0.70379 0.04100
H 	H 	0.04612 0.86240 0.64929 0.03500
H 	H 	0.15409 0.85604 0.62643 0.05500
C 	C 	0.03988 0.53579 0.95469 -0.02900
C 	C 	0.14594 0.72269 0.94710 -0.04400
C 	C 	0.17680 0.67311 0.95824 -0.08400
C 	C 	0.12397 0.57813 0.96163 0.10100
N 	N 	0.15327 0.52734 0.97157 -0.19700
H 	H 	0.18656 0.79531 0.94449 0.05600
H 	H 	0.11303 0.45805 0.97471 0.08700
H 	H 	0.21646 0.55523 0.97575 0.08700
H 	H 	0.35352 0.02051 0.99850 0.08700
H 	H 	0.28446 0.40036 0.99685 0.09500
H 	H 	0.09583 0.24579 0.75449 0.03400
C 	C 	0.15926 0.09334 0.76069 -0.06200
C 	C 	0.22289 0.18344 0.75650 0.00200
C 	C 	0.27842 0.23472 0.77261 -0.06600
C 	C 	0.27179 0.19592 0.79300 0.03300
C 	C 	0.20657 0.10722 0.79739 -0.05500
C 	C 	0.15071 0.05608 0.78135 -0.03700
H 	H 	0.22868 0.21418 0.74086 0.03400
H 	H 	0.32629 0.30456 0.76928 0.04600
H 	H 	0.19989 0.07736 0.81319 0.03600
H 	H 	0.10127 0.98727 0.78498 0.07200
H 	H 	0.95678 0.02592 0.78200 -0.00400
C 	C 	0.78681 0.63716 0.91332 0.28600
C 	C 	0.67364 0.30385 0.96720 0.30800
C 	C 	0.91915 0.53919 0.93715 0.30100
C 	C 	0.55791 0.41853 0.94615 0.29100
C 	C 	0.75789 0.28562 0.89975 0.30900
C 	C 	0.62524 0.37755 0.87966 0.29000
Ni	Ni	0.74524 0.49675 0.94982 1.11100
Ni	Ni	0.62804 0.31143 0.92327 1.12000
Ni	Ni	0.79468 0.47148 0.90139 1.12100
O 	O 	0.80375 0.62345 0.93334 -0.37300
O 	O 	0.78465 0.58446 0.89736 -0.38000
O 	O 	0.67675 0.25213 0.90399 -0.38400
O 	O 	0.68950 0.38686 0.97179 -0.36800
O 	O 	0.68410 0.28457 0.94767 -0.38800
O 	O 	0.70723 0.40365 0.87845 -0.38600
O 	O 	0.85791 0.49399 0.95107 -0.37900
O 	O 	0.90244 0.55393 0.91754 -0.38100
O 	O 	0.57948 0.33751 0.89716 -0.39100
O 	O 	0.62970 0.49222 0.95101 -0.37100
O 	O 	0.55366 0.33780 0.94376 -0.38200
O 	O 	0.81254 0.36574 0.90697 -0.39600
O 	O 	0.71210 0.43669 0.92348 -0.71300
H 	H 	0.67860 0.46330 0.91781 0.15200
C 	C 	0.72488 0.18371 0.51421 0.27800
C 	C 	0.54094 0.35194 0.47606 0.31200
C 	C 	0.79232 0.42134 0.49469 0.31400
C 	C 	0.46675 0.09011 0.48986 0.27000
C 	C 	0.59841 0.42473 0.53894 0.30600
C 	C 	0.53134 0.17820 0.55675 0.27400
Ni	Ni	0.63756 0.25483 0.48370 1.11000
Ni	Ni	0.49644 0.24861 0.51725 1.12100
Ni	Ni	0.68555 0.32026 0.53282 1.12000
O 	O 	0.72775 0.22047 0.49498 -0.37000
O 	O 	0.71441 0.21928 0.53210 -0.37900
O 	O 	0.52746 0.34614 0.53942 -0.38500
O 	O 	0.55560 0.28867 0.46843 -0.38000
O 	O 	0.50978 0.34434 0.49545 -0.38400
O 	O 	0.60204 0.25868 0.55760 -0.37900
O 	O 	0.72153 0.39235 0.48471 -0.39600
O 	O 	0.79194 0.39069 0.51413 -0.37900
O 	O 	0.47587 0.16037 0.54126 -0.38800
O 	O 	0.54293 0.12055 0.48133 -0.37600
O 	O 	0.43902 0.14686 0.49543 -0.37800
O 	O 	0.66881 0.42912 0.53209 -0.39800
O 	O 	0.60232 0.25473 0.51187 -0.71400
H 	H 	0.58661 0.19194 0.51607 0.14800
C 	C 	0.79220 0.81028 0.69760 0.30500
C 	C 	0.83188 0.93381 0.75396 0.29300
C 	C 	0.93194 0.05133 0.66628 0.27400
C 	C 	0.98144 0.18275 0.72218 0.27900
Ni	Ni	0.85111 0.00000 0.70904 1.09700
O 	O 	0.86222 0.99725 0.67702 -0.35800
O 	O 	0.85816 0.80301 0.70313 -0.37800
O 	O 	0.77216 0.86385 0.70822 -0.37600
O 	O 	0.05272 0.18337 0.71723 -0.37500
O 	O 	0.91425 0.13807 0.71000 -0.39000
O 	O 	0.84097 0.86532 0.74666 -0.36700
O 	O 	0.82176 0.98957 0.74072 -0.35900
O 	O 	0.99966 0.11183 0.67626 -0.39200
C 	C 	0.34507 0.73069 0.46704 0.30900
C 	C 	0.44476 0.58568 0.44294 0.29000
C 	C 	0.34649 0.60662 0.38114 0.28400
Ni	Ni	0.38501 0.70398 0.42300 1.12100
O 	O 	0.32501 0.77697 0.42060 -0.39200
O 	O 	0.40623 0.74061 0.45412 -0.37800
O 	O 	0.38338 0.68687 0.39085 -0.37900
O 	O 	0.39219 0.57307 0.45911 -0.36900
O 	O 	0.45884 0.64612 0.42743 -0.37900
C 	C 	0.40049 0.58193 0.98045 0.28800
Ni	Ni	0.43502 0.77741 0.97820 1.12000
O 	O 	0.43495 0.89702 0.97742 -0.38400
O 	O 	0.54927 0.84530 0.99281 -0.38000
O 	O 	0.45150 0.66700 0.97348 -0.37100
C 	C 	0.38910 0.59580 0.36223 -0.08500
C 	C 	0.34874 0.57488 0.34239 0.02000
C 	C 	0.39589 0.59014 0.32350 -0.07500
C 	C 	0.48354 0.62546 0.32431 0.04600
C 	C 	0.52259 0.63917 0.34430 -0.07200
C 	C 	0.47541 0.62366 0.36313 0.01500
C 	C 	0.53523 0.66264 0.30456 -0.05200
C 	C 	0.60270 0.65210 0.30064 -0.05300
C 	C 	0.66473 0.70600 0.28358 0.04600
C 	C 	0.75129 0.74984 0.28797 -0.07400
H 	H 	0.28198 0.55251 0.34148 0.03400
H 	H 	0.36494 0.57867 0.30820 0.04800
H 	H 	0.59023 0.66709 0.34523 0.04800
H 	H 	0.50699 0.63881 0.37839 0.03100
H 	H 	0.51985 0.70236 0.29355 0.04400
H 	H 	0.61695 0.61080 0.31144 0.04200
H 	H 	0.77273 0.74288 0.30362 0.04700
H 	H 	0.91672 0.05827 0.32582 0.04200
H 	H 	0.88542 0.08270 0.28885 0.03400
H 	H 	0.12006 0.76509 0.40502 0.03200
C 	C 	0.42754 0.93549 0.50232 -0.05000
C 	C 	0.40802 0.99158 0.48970 -0.07000
C 	C 	0.34825 0.95228 0.47320 0.12700
C 	C 	0.31897 0.86105 0.46778 -0.04700
C 	C 	0.35116 0.81050 0.47792 -0.09400
C 	C 	0.40099 0.84544 0.49631 0.11700
N 	N 	0.42467 0.79364 0.50801 -0.20100
H 	H 	0.46956 0.96436 0.51575 0.05300
H 	H 	0.27491 0.83119 0.45480 0.05900
N 	N 	0.32087 0.00226 0.46210 -0.22400
H 	H 	0.46403 0.82104 0.52116 0.08900
H 	H 	0.40237 0.72513 0.50453 0.09800
H 	H 	0.33795 0.06868 0.46640 0.10300
H 	H 	0.27975 0.97371 0.44931 0.10500
C 	C 	0.86976 0.42691 0.46151 -0.03400
C 	C 	0.87101 0.46233 0.48183 -0.10200
C 	C 	0.94779 0.53279 0.48984 0.10800
C 	C 	0.94438 0.45586 0.44967 0.09900
N 	N 	0.94106 0.42032 0.43000 -0.19700
H 	H 	0.81063 0.37443 0.45512 0.03000
N 	N 	0.94940 0.57660 0.50815 -0.20400
H 	H 	0.88353 0.37053 0.42391 0.08000
H 	H 	0.89385 0.56568 0.51573 0.09400
C 	C 	0.50978 0.40868 0.44249 -0.03900
C 	C 	0.55079 0.42776 0.46222 -0.09900
C 	C 	0.58310 0.51600 0.47080 0.11600
C 	C 	0.55686 0.57504 0.46234 -0.04400
C 	C 	0.50207 0.54824 0.44499 -0.08800
C 	C 	0.48725 0.47018 0.43344 0.10000
N 	N 	0.45186 0.45422 0.41378 -0.20000
H 	H 	0.49043 0.34380 0.43494 0.04800
H 	H 	0.57405 0.63881 0.47022 0.05400
N 	N 	0.63731 0.54310 0.48745 -0.20100
H 	H 	0.44287 0.39748 0.40510 0.08200
H 	H 	0.43588 0.49973 0.40663 0.08900
H 	H 	0.66265 0.50322 0.49295 0.10900
H 	H 	0.65738 0.60641 0.49449 0.09100
C 	C 	0.92863 0.05656 0.64284 -0.11600
C 	C 	0.95261 0.14029 0.63267 0.01900
C 	C 	0.94579 0.14482 0.61050 -0.06800
C 	C 	0.91544 0.06578 0.59819 0.00500
C 	C 	0.89472 0.98228 0.60831 -0.04100
C 	C 	0.89964 0.97750 0.63060 0.04400
C 	C 	0.90776 0.07277 0.57467 -0.03700
C 	C 	0.84286 0.00712 0.56375 -0.08200
C 	C 	0.81219 0.02917 0.54378 0.00500
C 	C 	0.72509 0.98988 0.54059 0.00300
C 	C 	0.69436 0.03172 0.52666 -0.03600
C 	C 	0.75057 0.11430 0.51642 -0.06500
C 	C 	0.83695 0.14188 0.51610 0.00100
C 	C 	0.86785 0.09878 0.52965 -0.05500
H 	H 	0.97509 0.20168 0.64198 0.03300
H 	H 	0.96322 0.20977 0.60290 0.04400
H 	H 	0.87577 0.92154 0.59900 0.04200
H 	H 	0.88186 0.91262 0.63830 0.03100
H 	H 	0.94765 0.13851 0.56702 0.03700
H 	H 	0.80279 0.94141 0.57140 0.06400
H 	H 	0.68116 0.93214 0.55031 0.03600
H 	H 	0.62702 0.00660 0.52602 0.02800
H 	H 	0.88088 0.20251 0.50721 0.03800
H 	H 	0.93504 0.12323 0.53013 0.04000
C 	C 	0.50342 0.11832 0.57599 -0.05000
C 	C 	0.42855 0.03404 0.57551 -0.06100
C 	C 	0.38963 0.98846 0.59457 0.04200
C 	C 	0.42718 0.02464 0.61434 -0.07300
C 	C 	0.50719 0.10276 0.61457 -0.02300
C 	C 	0.54512 0.14961 0.59551 -0.02000
C 	C 	0.37667 0.99394 0.63446 0.06100
C 	C 	0.31436 0.90761 0.63739 -0.10000
H 	H 	0.39779 0.00643 0.56047 0.04500
H 	H 	0.32789 0.92844 0.59395 0.02400
H 	H 	0.53765 0.13037 0.62965 0.02800
H 	H 	0.60473 0.21249 0.59611 0.04300
H 	H 	0.30885 0.85454 0.62669 0.05800
C 	C 	0.60271 0.50300 0.55052 -0.09200
C 	C 	0.68029 0.58386 0.55244 0.01900
C 	C 	0.69048 0.64632 0.56829 -0.07700
C 	C 	0.62330 0.62849 0.58222 0.04700
C 	C 	0.54267 0.55546 0.57808 -0.07700
C 	C 	0.53237 0.49276 0.56230 0.02300
C 	C 	0.64061 0.67645 0.60277 -0.05200
C 	C 	0.61947 0.62887 0.62129 -0.05300
C 	C 	0.65943 0.67292 0.64148 0.04900
C 	C 	0.69932 0.63618 0.65396 -0.07800
C 	C 	0.74059 0.67941 0.67265 0.02400
C 	C 	0.74132 0.75923 0.67919 -0.09300
C 	C 	0.69792 0.79359 0.66719 0.02600
C 	C 	0.65737 0.75075 0.64838 -0.07600
H 	H 	0.73391 0.59580 0.54253 0.03300
H 	H 	0.75211 0.70501 0.57073 0.04700
H 	H 	0.48922 0.54402 0.58800 0.05000
H 	H 	0.47083 0.43366 0.56012 0.03500
H 	H 	0.68220 0.74984 0.60285 0.04300
H 	H 	0.58227 0.55493 0.62107 0.04400
H 	H 	0.69987 0.57514 0.64892 0.04800
H 	H 	0.77257 0.65129 0.68193 0.03300
H 	H 	0.69718 0.85458 0.67215 0.03500
H 	H 	0.62487 0.77834 0.63912 0.05300
C 	C 	0.00775 0.58647 0.94450 -0.09000
C 	C 	0.06107 0.68151 0.94104 0.11200
H 	H 	0.99946 0.46309 0.95719 0.04100
N 	N 	0.03026 0.73439 0.93308 -0.19600
H 	H 	0.96569 0.71063 0.93239 0.10100
H 	H 	0.07106 0.80275 0.92910 0.09100
C 	C 	0.59508 0.07379 0.99159 -0.04400
C 	C 	0.50883 0.04557 0.99348 -0.11700
C 	C 	0.48204 0.11150 0.99219 0.11100
C 	C 	0.54148 0.20269 0.98710 -0.04900
C 	C 	0.62572 0.22776 0.98242 -0.09800
C 	C 	0.65402 0.16496 0.98669 0.10700
N 	N 	0.73755 0.19143 0.98557 -0.20000
H 	H 	0.61619 0.02423 0.99313 0.04500
H 	H 	0.52048 0.25217 0.98491 0.05400
N 	N 	0.39948 0.08755 0.99502 -0.20200
H 	H 	0.75820 0.14420 0.98800 0.08300
H 	H 	0.78281 0.25976 0.98309 0.09500
H 	H 	0.38041 0.13659 0.99379 0.08100
C 	C 	0.43283 0.38706 0.96815 -0.04200
C 	C 	0.47962 0.42241 0.94913 -0.09100
C 	C 	0.46637 0.48451 0.93671 0.10800
C 	C 	0.42242 0.52528 0.94575 -0.04300
C 	C 	0.39435 0.50614 0.96712 -0.08800
C 	C 	0.38662 0.42616 0.97677 0.10700
N 	N 	0.33128 0.38375 0.99318 -0.19800
H 	H 	0.43594 0.33282 0.97678 0.04600
H 	H 	0.41831 0.57873 0.93702 0.05000
N 	N 	0.49953 0.50865 0.91662 -0.20000
H 	H 	0.53172 0.47846 0.90957 0.08600
H 	H 	0.49191 0.55672 0.90771 0.08400
C 	C 	0.97004 0.20904 0.74398 -0.10600
C 	C 	0.03367 0.23309 0.75926 0.02700
C 	C 	0.01610 0.23681 0.78092 -0.06400
C 	C 	0.93525 0.21780 0.78754 0.03200
C 	C 	0.87251 0.19689 0.77218 -0.07200
C 	C 	0.89075 0.19578 0.75051 0.02000
C 	C 	0.91503 0.21326 0.81067 -0.04900
C 	C 	0.86267 0.24183 0.81803 -0.05800
C 	C 	0.83594 0.22918 0.84067 0.04600
C 	C 	0.74978 0.18698 0.84581 -0.08100
C 	C 	0.72342 0.19542 0.86627 0.02200
C 	C 	0.78326 0.24820 0.88164 -0.09800
C 	C 	0.86931 0.28068 0.87724 0.01700
C 	C 	0.89561 0.27198 0.85675 -0.07900
H 	H 	0.06485 0.25251 0.79261 0.04700
H 	H 	0.80883 0.17843 0.77705 0.04400
H 	H 	0.84149 0.17921 0.73894 0.02700
H 	H 	0.94417 0.18755 0.82180 0.03600
H 	H 	0.83610 0.27116 0.80711 0.04300
H 	H 	0.70323 0.15191 0.83361 0.04400
H 	H 	0.65663 0.16687 0.86961 0.03300
H 	H 	0.91612 0.31810 0.88922 0.03100
H 	H 	0.96241 0.30336 0.85304 0.04600
C 	C 	0.33191 0.24800 0.81000 -0.04800
C 	C 	0.41557 0.29386 0.80608 -0.05500
C 	C 	0.47618 0.32703 0.82386 0.04700
C 	C 	0.54440 0.31035 0.82375 -0.07700
C 	C 	0.59615 0.33142 0.84160 0.02000
C 	C 	0.58030 0.36979 0.85968 -0.08800
C 	C 	0.51552 0.39200 0.85925 0.01900
C 	C 	0.46429 0.37177 0.84131 -0.07600
H 	H 	0.30837 0.23942 0.82637 0.04000
H 	H 	0.43942 0.29674 0.78994 0.04200
H 	H 	0.55530 0.27777 0.81017 0.04500
H 	H 	0.64627 0.31434 0.84171 0.03300
H 	H 	0.50384 0.42332 0.87294 0.02600
H 	H 	0.41427 0.38894 0.84117 0.04900
C 	C 	0.78978 0.72325 0.90758 -0.08600
C 	C 	0.86772 0.80407 0.90742 0.02300
C 	C 	0.88414 0.87251 0.89225 -0.07400
C 	C 	0.82223 0.86090 0.87742 0.05000
C 	C 	0.73976 0.78766 0.88031 -0.07200
C 	C 	0.72349 0.71978 0.89559 0.02100
C 	C 	0.84901 0.90887 0.85643 -0.05100
C 	C 	0.79895 0.93175 0.84533 -0.04300
C 	C 	0.80732 0.94292 0.82173 0.04100
C 	C 	0.73507 0.89900 0.80908 -0.07100
C 	C 	0.74289 0.89792 0.78682 0.02700
C 	C 	0.82292 0.94146 0.77705 -0.09200
C 	C 	0.89486 0.99007 0.78951 0.04900
C 	C 	0.88715 0.99165 0.81176 -0.04200
H 	H 	0.91832 0.80984 0.91742 0.02800
H 	H 	0.94717 0.93045 0.89077 0.05200
H 	H 	0.69032 0.77855 0.86942 0.04900
H 	H 	0.66186 0.65928 0.89624 0.02600
H 	H 	0.90653 0.91685 0.84905 0.04800
H 	H 	0.74389 0.92835 0.85313 0.04600
H 	H 	0.67310 0.86276 0.81655 0.05000
H 	H 	0.68691 0.86151 0.77724 0.03400
H 	H 	0.94315 0.02969 0.82122 0.01600
