data_crystal

_cell_length_a 23.28460
_cell_length_b 23.53306
_cell_length_c 40.15863
_cell_angle_alpha 95.48875
_cell_angle_beta  95.48907
_cell_angle_gamma 126.13480

_symmetry_space_group_name_	'P 1'
_symmetry_space_group_name_H-M	'P 1'

loop_
_symmetry_equiv_pos_as_xyz
  x,y,z

loop_
_atom_site_label
_atom_site_type_symbol
_atom_site_fract_x
_atom_site_fract_y
_atom_site_fract_z
_atom_site_charge
C 	C 	0.94898 0.01591 0.99653 0.03600
C 	C 	0.05467 0.02122 0.98999 0.02700
C 	C 	0.02217 0.05563 0.99374 -0.07500
C 	C 	0.92658 0.00756 0.46286 0.02500
C 	C 	0.00118 0.05181 0.46269 -0.07100
C 	C 	0.04026 0.02396 0.46462 0.02700
H 	H 	0.02876 0.10782 0.46125 0.05000
C 	C 	0.85650 0.10866 0.43539 -0.03200
C 	C 	0.88414 0.06953 0.43407 -0.04100
C 	C 	0.85773 0.04348 0.49005 -0.04200
C 	C 	0.82995 0.08244 0.49129 -0.03300
C 	C 	0.88633 0.03806 0.46173 0.00100
H 	H 	0.85659 0.13411 0.41427 0.03900
H 	H 	0.90576 0.06541 0.41201 0.03900
H 	H 	0.85927 0.01960 0.51156 0.03800
C 	C 	0.14535 0.05681 0.43762 -0.04000
C 	C 	0.21999 0.09611 0.43919 -0.03300
C 	C 	0.11853 0.07034 0.46466 0.00100
H 	H 	0.24028 0.08479 0.41837 0.03700
C 	C 	0.77225 0.06466 0.00504 -0.07300
C 	C 	0.73272 0.09185 0.00248 0.01800
C 	C 	0.91459 0.05029 0.99929 -0.02500
C 	C 	0.88391 0.07723 0.00118 -0.02200
H 	H 	0.74528 0.00947 0.00789 0.04800
H 	H 	0.67544 0.05726 0.00318 0.03300
C 	C 	0.22524 0.07735 0.95861 -0.03200
C 	C 	0.15250 0.04715 0.95861 -0.04000
C 	C 	0.13191 0.06255 0.98787 -0.00000
H 	H 	0.24049 0.06404 0.93617 0.03800
H 	H 	0.11188 0.01017 0.93627 0.03900
C 	C 	0.90846 0.94204 0.99567 -0.07400
C 	C 	0.94085 0.90766 0.99196 0.02800
C 	C 	0.01389 0.94730 0.98917 -0.07000
H 	H 	0.85177 0.91127 0.99766 0.05100
H 	H 	0.03919 0.92083 0.98674 0.05100
H 	H 	0.05358 0.11283 0.99435 0.05100
C 	C 	0.00492 0.95189 0.46687 -0.07200
C 	C 	0.93068 0.90743 0.46715 0.03800
C 	C 	0.89124 0.93510 0.46515 -0.07300
H 	H 	0.03535 0.93051 0.46852 0.05200
H 	H 	0.83367 0.90070 0.46536 0.05100
Cu	Cu	0.62014 0.21360 0.00380 0.92800
Cu	Cu	0.67600 0.21734 0.93170 0.86800
Cu	Cu	0.66003 0.32687 0.96010 0.89700
Cu	Cu	0.62881 0.34944 0.02847 0.89500
C 	C 	0.64589 0.26732 0.07528 0.30500
O 	O 	0.51591 0.17522 0.00424 -0.36200
C 	C 	0.64294 0.28355 0.88582 0.30300
O 	O 	0.68230 0.32540 0.00715 -0.64000
O 	O 	0.60957 0.22156 0.95535 -0.64100
O 	O 	0.66162 0.16002 0.00044 -0.37200
O 	O 	0.74300 0.23521 0.96975 -0.44300
O 	O 	0.61511 0.29784 0.06720 -0.38600
O 	O 	0.71579 0.43004 0.96713 -0.38500
C 	C 	0.71572 0.47097 0.99200 0.31100
C 	C 	0.49026 0.20788 0.99241 0.30100
O 	O 	0.53491 0.27460 0.98877 -0.39600
O 	O 	0.67345 0.44416 0.01469 -0.39500
O 	O 	0.64609 0.22386 0.05201 -0.36100
C 	C 	0.72293 0.18796 0.98961 0.29000
O 	O 	0.64730 0.32764 0.91085 -0.37900
O 	O 	0.63343 0.22426 0.89080 -0.42200
H 	H 	0.73465 0.35535 0.01702 0.16400
H 	H 	0.55930 0.19196 0.94234 0.17500
Cu	Cu	0.74289 0.34759 0.46164 0.92700
Cu	Cu	0.73977 0.29379 0.53445 0.87000
Cu	Cu	0.62811 0.30864 0.50531 0.89700
Cu	Cu	0.61064 0.34782 0.43803 0.89400
C 	C 	0.69253 0.32976 0.39021 0.28700
O 	O 	0.78748 0.45276 0.46204 -0.36200
C 	C 	0.67798 0.33398 0.57996 0.28700
O 	O 	0.63050 0.29068 0.45801 -0.64000
O 	O 	0.73461 0.35795 0.51010 -0.64100
O 	O 	0.79177 0.30056 0.46420 -0.37400
O 	O 	0.71659 0.22437 0.49669 -0.44400
O 	O 	0.66233 0.36068 0.39908 -0.38700
O 	O 	0.52394 0.25567 0.49732 -0.38300
C 	C 	0.48555 0.25992 0.47265 0.30800
C 	C 	0.75663 0.48097 0.47353 0.28200
O 	O 	0.68950 0.43872 0.47799 -0.39400
O 	O 	0.51650 0.30805 0.45296 -0.39600
O 	O 	0.73157 0.32288 0.41327 -0.36200
C 	C 	0.76228 0.24074 0.47603 0.30700
O 	O 	0.62397 0.31004 0.55442 -0.38500
O 	O 	0.73661 0.34071 0.57482 -0.42100
H 	H 	0.59887 0.23939 0.44708 0.16400
H 	H 	0.76449 0.40791 0.52285 0.17200
C 	C 	0.66840 0.34388 0.61529 -0.08900
C 	C 	0.60185 0.29418 0.62476 0.01200
C 	C 	0.59664 0.29519 0.65921 -0.06600
C 	C 	0.65775 0.34623 0.68446 0.02500
C 	C 	0.72280 0.39910 0.67487 -0.06700
C 	C 	0.72817 0.39779 0.64047 0.01300
C 	C 	0.65604 0.33938 0.72062 0.00100
C 	C 	0.70173 0.32720 0.73828 -0.04100
C 	C 	0.69855 0.31805 0.77210 -0.03400
C 	C 	0.64955 0.32073 0.78854 -0.00800
C 	C 	0.60413 0.33337 0.77110 -0.03200
C 	C 	0.60737 0.34272 0.73721 -0.04100
C 	C 	0.64493 0.30864 0.82304 0.04300
C 	C 	0.64295 0.29766 0.85180 -0.11000
H 	H 	0.55516 0.25257 0.60558 0.03400
H 	H 	0.54601 0.25443 0.66631 0.04500
H 	H 	0.76993 0.43956 0.69414 0.04500
H 	H 	0.77942 0.43729 0.63345 0.02800
H 	H 	0.73907 0.32396 0.72566 0.03700
H 	H 	0.73374 0.30821 0.78541 0.03500
H 	H 	0.56610 0.33552 0.78365 0.04000
H 	H 	0.57195 0.35222 0.72385 0.03900
C 	C 	0.69727 0.31880 0.35406 -0.08400
C 	C 	0.70292 0.36623 0.33343 0.01400
C 	C 	0.70457 0.35453 0.29890 -0.06500
C 	C 	0.70073 0.29538 0.28456 0.02600
C 	C 	0.69626 0.24849 0.30520 -0.06500
C 	C 	0.69478 0.26029 0.33987 0.01200
C 	C 	0.69822 0.28108 0.24763 0.00200
C 	C 	0.75629 0.33153 0.23304 -0.04000
C 	C 	0.74920 0.32430 0.19760 -0.03300
C 	C 	0.68417 0.26651 0.17652 -0.00600
C 	C 	0.62762 0.21399 0.19102 -0.03200
C 	C 	0.63461 0.22119 0.22647 -0.04000
C 	C 	0.67234 0.26562 0.14051 0.04400
C 	C 	0.66110 0.26591 0.11058 -0.10300
H 	H 	0.70600 0.41220 0.34415 0.03500
H 	H 	0.70789 0.39093 0.28316 0.04600
H 	H 	0.69337 0.20272 0.29436 0.04600
H 	H 	0.69048 0.22335 0.35550 0.03300
H 	H 	0.80588 0.37761 0.24915 0.04000
H 	H 	0.79331 0.36493 0.18658 0.03800
H 	H 	0.57728 0.16899 0.17490 0.04100
H 	H 	0.58956 0.18183 0.23745 0.03900
C 	C 	0.84355 0.69942 0.47250 0.03800
C 	C 	0.86565 0.66636 0.45222 -0.07000
C 	C 	0.84021 0.59614 0.45377 0.01500
C 	C 	0.89554 0.83327 0.46926 -0.02200
C 	C 	0.77193 0.59247 0.49668 0.01300
C 	C 	0.79746 0.66272 0.49507 -0.07000
C 	C 	0.87032 0.77196 0.47089 -0.02200
C 	C 	0.79218 0.55829 0.47560 -0.09100
H 	H 	0.90205 0.69479 0.43502 0.04800
H 	H 	0.85612 0.57054 0.43726 0.03700
H 	H 	0.73555 0.56425 0.51390 0.03000
H 	H 	0.78104 0.68832 0.51121 0.04700
C 	C 	0.83054 0.11626 0.46426 -0.01100
C 	C 	0.78712 0.19798 0.47022 -0.12000
C 	C 	0.80703 0.16095 0.46685 0.04500
H 	H 	0.80945 0.08764 0.51360 0.03300
C 	C 	0.26821 0.14916 0.46776 -0.00800
C 	C 	0.24157 0.16392 0.49444 -0.03200
C 	C 	0.16690 0.12464 0.49291 -0.04000
C 	C 	0.40919 0.22057 0.47127 -0.10900
C 	C 	0.34496 0.18799 0.46980 0.04500
H 	H 	0.27862 0.20520 0.51652 0.04000
H 	H 	0.14666 0.13531 0.51394 0.04000
H 	H 	0.10836 0.01509 0.41568 0.03900
C 	C 	0.82435 0.68365 0.99119 -0.00900
C 	C 	0.83563 0.72943 0.02031 -0.03100
C 	C 	0.87263 0.80251 0.02038 -0.03900
C 	C 	0.75468 0.54573 0.99147 -0.10900
C 	C 	0.88647 0.78408 0.96204 -0.04000
C 	C 	0.84949 0.71101 0.96201 -0.03200
C 	C 	0.78668 0.60860 0.99125 0.04700
C 	C 	0.89852 0.83016 0.99130 -0.00000
H 	H 	0.81608 0.70849 0.04291 0.03900
H 	H 	0.88196 0.83776 0.04311 0.04000
H 	H 	0.90614 0.80499 0.93945 0.03900
H 	H 	0.84063 0.67578 0.93938 0.04000
C 	C 	0.84568 0.10781 0.00271 0.04000
C 	C 	0.84091 0.20657 0.99678 0.01700
C 	C 	0.88026 0.17922 0.99932 -0.07500
C 	C 	0.76642 0.16243 0.99741 -0.09900
H 	H 	0.86795 0.26154 0.99356 0.02700
H 	H 	0.93719 0.21308 0.99782 0.04700
C 	C 	0.27780 0.12326 0.98778 -0.00900
C 	C 	0.41482 0.17590 0.98986 -0.11100
C 	C 	0.18503 0.11075 0.01657 -0.03900
C 	C 	0.25775 0.14098 0.01652 -0.03100
C 	C 	0.35211 0.15125 0.98854 0.04600
H 	H 	0.16968 0.12286 0.03929 0.04000
H 	H 	0.29828 0.17704 0.03905 0.03900
