data_crystal

_cell_length_a 18.63411
_cell_length_b 18.78657
_cell_length_c 34.88084
_cell_angle_alpha 95.47096
_cell_angle_beta  95.47110
_cell_angle_gamma 126.39679

_symmetry_space_group_name_	'P 1'
_symmetry_space_group_name_H-M	'P 1'

loop_
_symmetry_equiv_pos_as_xyz
  x,y,z

loop_
_atom_site_label
_atom_site_type_symbol
_atom_site_fract_x
_atom_site_fract_y
_atom_site_fract_z
_atom_site_charge
C 	C 	0.92764 0.00942 0.97086 0.10600
N 	N 	0.01904 0.06413 0.97401 -0.11600
C 	C 	0.06587 0.03029 0.97695 0.11900
N 	N 	0.02146 0.94142 0.97686 -0.10900
C 	C 	0.92992 0.88565 0.97293 0.12100
N 	N 	0.88238 0.91944 0.96992 -0.11300
C 	C 	0.93146 0.01823 0.48813 0.10500
N 	N 	0.87659 0.92762 0.48540 -0.11600
C 	C 	0.91265 0.88289 0.48789 0.12200
N 	N 	0.00376 0.92867 0.49192 -0.10900
C 	C 	0.05859 0.01874 0.49284 0.12100
N 	N 	0.02262 0.06395 0.49139 -0.11500
Cu	Cu	0.75474 0.34097 0.95762 0.92600
Cu	Cu	0.78356 0.29815 0.04587 0.88900
Cu	Cu	0.63075 0.32176 0.01328 0.91600
Cu	Cu	0.59514 0.35432 0.93383 0.90700
C 	C 	0.68073 0.31400 0.87589 0.31400
O 	O 	0.81877 0.47493 0.95601 -0.34300
C 	C 	0.67147 0.31340 0.09174 0.30700
O 	O 	0.61767 0.28270 0.95832 -0.63700
O 	O 	0.75813 0.36490 0.01480 -0.63000
O 	O 	0.78939 0.25733 0.95477 -0.34900
O 	O 	0.86757 0.30438 0.01755 -0.40000
O 	O 	0.64964 0.35888 0.88659 -0.35700
O 	O 	0.50521 0.27094 0.01145 -0.36300
C 	C 	0.45083 0.26045 0.98061 0.29400
C 	C 	0.78564 0.51623 0.96930 0.28200
O 	O 	0.70350 0.46900 0.97702 -0.38400
O 	O 	0.48255 0.31225 0.95413 -0.36700
O 	O 	0.72927 0.30407 0.90175 -0.35100
C 	C 	0.83790 0.25263 0.98298 0.28700
O 	O 	0.65004 0.35308 0.06955 -0.35100
O 	O 	0.68686 0.25862 0.07550 -0.40700
H 	H 	0.57207 0.21693 0.94884 0.17700
H 	H 	0.80156 0.42992 0.02631 0.17500
Cu	Cu	0.60316 0.19018 0.50605 0.93100
Cu	Cu	0.67139 0.20639 0.42207 0.88300
Cu	Cu	0.62067 0.32030 0.45511 0.90100
Cu	Cu	0.61598 0.36158 0.53986 0.91100
C 	C 	0.64686 0.25931 0.58880 0.31500
O 	O 	0.47366 0.14246 0.51050 -0.34500
C 	C 	0.60966 0.27645 0.37091 0.29900
O 	O 	0.67229 0.32915 0.50832 -0.63200
O 	O 	0.58105 0.19486 0.45023 -0.63800
O 	O 	0.65972 0.12781 0.49937 -0.35200
O 	O 	0.75727 0.22975 0.46494 -0.42000
O 	O 	0.60199 0.29170 0.58152 -0.36400
O 	O 	0.64884 0.43939 0.46107 -0.35900
C 	C 	0.69493 0.50331 0.49271 0.29100
C 	C 	0.43871 0.18332 0.49979 0.27900
O 	O 	0.49216 0.26878 0.49680 -0.38100
O 	O 	0.68799 0.48404 0.52814 -0.36700
O 	O 	0.64553 0.20580 0.56093 -0.34800
C 	C 	0.73504 0.16665 0.48529 0.29500
O 	O 	0.58912 0.31126 0.39852 -0.34600
O 	O 	0.61177 0.20882 0.37514 -0.38800
H 	H 	0.73952 0.36926 0.51444 0.17800
H 	H 	0.51755 0.14904 0.43622 0.18800
C 	C 	0.74119 0.34683 0.69684 -0.06700
C 	C 	0.69142 0.26655 0.71135 0.03000
C 	C 	0.63925 0.18313 0.68506 0.06100
C 	C 	0.63147 0.18116 0.64450 0.00400
C 	C 	0.67542 0.26164 0.62999 -0.08200
C 	C 	0.73415 0.34480 0.65633 0.12000
C 	C 	0.68650 0.27049 0.75353 0.02900
N 	N 	0.59189 0.10037 0.69943 -0.01600
H 	H 	0.58786 0.11701 0.62432 0.07300
N 	N 	0.78515 0.42746 0.64195 -0.02700
H 	H 	0.78348 0.41100 0.71703 0.09000
C 	C 	0.76329 0.30306 0.78209 0.06300
C 	C 	0.76016 0.31541 0.82201 0.00100
C 	C 	0.68060 0.29434 0.83381 -0.08100
C 	C 	0.60270 0.25832 0.80519 0.12200
C 	C 	0.60647 0.24770 0.76529 -0.06800
N 	N 	0.84487 0.32452 0.77066 -0.01700
H 	H 	0.82010 0.34251 0.84383 0.07700
N 	N 	0.51906 0.23039 0.81652 -0.02500
H 	H 	0.54703 0.22176 0.74338 0.08900
O 	O 	0.83436 0.43729 0.61587 -0.10200
O 	O 	0.78551 0.49428 0.65617 -0.09200
O 	O 	0.50564 0.03802 0.68602 -0.08400
O 	O 	0.63587 0.08557 0.72447 -0.07500
O 	O 	0.48003 0.16712 0.83707 -0.09600
O 	O 	0.47828 0.26292 0.80363 -0.08700
O 	O 	0.92183 0.40340 0.78428 -0.08400
O 	O 	0.84315 0.26345 0.74861 -0.07400
C 	C 	0.67691 0.39513 0.19643 -0.06900
C 	C 	0.63424 0.31521 0.21132 0.02800
C 	C 	0.60193 0.23412 0.18659 0.06000
C 	C 	0.61323 0.23400 0.14745 -0.00100
C 	C 	0.65872 0.31452 0.13290 -0.08900
C 	C 	0.69143 0.39568 0.15773 0.12400
C 	C 	0.62954 0.31792 0.25352 0.02900
N 	N 	0.55910 0.15204 0.20135 -0.01700
H 	H 	0.58747 0.17130 0.12849 0.06800
N 	N 	0.74481 0.47952 0.14463 -0.02300
H 	H 	0.70254 0.45771 0.21546 0.08900
C 	C 	0.70871 0.35837 0.28203 0.06100
C 	C 	0.70205 0.35218 0.32139 -0.00400
C 	C 	0.61701 0.30399 0.33255 -0.08500
C 	C 	0.53848 0.26843 0.30453 0.13000
C 	C 	0.54514 0.27574 0.26515 -0.07000
N 	N 	0.79558 0.40253 0.27086 -0.01700
H 	H 	0.76270 0.38031 0.34295 0.05300
N 	N 	0.45163 0.22285 0.31574 -0.02500
H 	H 	0.48438 0.24653 0.24347 0.08900
O 	O 	0.82494 0.51058 0.13765 -0.09400
O 	O 	0.71720 0.52877 0.14338 -0.07600
O 	O 	0.47634 0.08326 0.18543 -0.08600
O 	O 	0.60503 0.14390 0.22868 -0.08200
O 	O 	0.43461 0.26733 0.33900 -0.07100
O 	O 	0.38716 0.13893 0.30001 -0.07500
O 	O 	0.85997 0.48711 0.28551 -0.08600
O 	O 	0.81256 0.35650 0.24864 -0.08500
C 	C 	0.85295 0.78477 0.48731 0.00300
C 	C 	0.85752 0.72641 0.46080 -0.02100
C 	C 	0.80620 0.63415 0.46259 0.01700
C 	C 	0.74395 0.59855 0.48843 -0.06500
C 	C 	0.73226 0.65549 0.51171 0.02100
C 	C 	0.79103 0.74907 0.51324 -0.02100
C 	C 	0.91323 0.76084 0.43109 0.10800
C 	C 	0.65740 0.61748 0.53272 0.09900
C 	C 	0.79028 0.80878 0.54255 0.11200
C 	C 	0.81897 0.57647 0.43852 0.08800
N 	N 	0.78972 0.85644 0.56592 -0.09200
N 	N 	0.82912 0.53046 0.41931 -0.11600
N 	N 	0.59768 0.58721 0.54947 -0.09700
N 	N 	0.95769 0.78837 0.40741 -0.09600
C 	C 	0.89140 0.06642 0.48732 0.00500
C 	C 	0.88484 0.10332 0.52280 -0.02600
C 	C 	0.83242 0.13495 0.52227 0.02300
C 	C 	0.78593 0.12901 0.48625 -0.07900
C 	C 	0.79296 0.09237 0.45077 0.02100
C 	C 	0.84779 0.06368 0.45131 -0.02700
C 	C 	0.93110 0.10760 0.55984 0.10700
C 	C 	0.74127 0.08129 0.41383 0.05700
C 	C 	0.85898 0.03070 0.41477 0.10400
C 	C 	0.82686 0.17413 0.55871 0.09500
N 	N 	0.86798 0.00438 0.38565 -0.10000
N 	N 	0.82241 0.20538 0.58777 -0.08900
N 	N 	0.70005 0.07238 0.38434 -0.12500
N 	N 	0.96803 0.11093 0.58936 -0.09700
C 	C 	0.15703 0.06687 0.49485 0.00300
C 	C 	0.21393 0.09248 0.53122 -0.02200
C 	C 	0.30526 0.12678 0.53269 0.01700
C 	C 	0.34062 0.13798 0.49781 -0.06700
C 	C 	0.28383 0.11298 0.46144 0.01800
C 	C 	0.19219 0.07779 0.45997 -0.02100
C 	C 	0.17839 0.08363 0.56716 0.10800
C 	C 	0.31918 0.12150 0.42548 0.08600
C 	C 	0.13374 0.05193 0.42257 0.11200
C 	C 	0.36278 0.15039 0.57008 0.09200
N 	N 	0.08699 0.03124 0.39276 -0.09000
N 	N 	0.40841 0.16902 0.59995 -0.09200
N 	N 	0.34741 0.12821 0.39680 -0.09100
N 	N 	0.14993 0.07653 0.59580 -0.09200
C 	C 	0.88293 0.78833 0.97151 0.00200
C 	C 	0.87882 0.75648 0.00685 -0.02100
C 	C 	0.85703 0.67047 0.00646 0.02000
C 	C 	0.83487 0.61400 0.97056 -0.07000
C 	C 	0.84014 0.64634 0.93520 0.01500
C 	C 	0.86176 0.73238 0.93561 -0.02200
C 	C 	0.89787 0.81274 0.04371 0.11100
C 	C 	0.82299 0.59103 0.89840 0.09300
C 	C 	0.86225 0.76347 0.89907 0.10800
C 	C 	0.85798 0.64013 0.04306 0.08700
N 	N 	0.86260 0.78834 0.86994 -0.09200
N 	N 	0.85878 0.61597 0.07227 -0.09200
N 	N 	0.80950 0.54709 0.86899 -0.09300
N 	N 	0.91312 0.85769 0.07310 -0.09100
C 	C 	0.84828 0.17975 0.97702 -0.07700
C 	C 	0.87736 0.16546 0.94311 0.02100
C 	C 	0.88818 0.09709 0.93792 -0.02500
C 	C 	0.87842 0.04870 0.96810 0.00100
C 	C 	0.84168 0.05715 0.00018 -0.01800
C 	C 	0.82451 0.12110 0.00419 0.01700
C 	C 	0.89911 0.22283 0.91426 0.09800
C 	C 	0.82397 0.00193 0.02964 0.08700
C 	C 	0.77962 0.12419 0.03534 0.05500
C 	C 	0.91154 0.07781 0.90191 0.10500
N 	N 	0.74371 0.12633 0.06023 -0.12800
N 	N 	0.93022 0.06235 0.87320 -0.09900
N 	N 	0.80984 0.95786 0.05315 -0.07900
N 	N 	0.91641 0.26855 0.89123 -0.09300
C 	C 	0.35255 0.20223 0.97971 -0.07400
C 	C 	0.29428 0.12652 0.94933 0.02600
C 	C 	0.19997 0.07200 0.94767 -0.04200
C 	C 	0.16430 0.08914 0.97803 0.00800
C 	C 	0.22287 0.16326 0.00914 -0.02500
C 	C 	0.31668 0.22133 0.00937 0.02600
C 	C 	0.33174 0.10287 0.92062 0.07500
C 	C 	0.18671 0.17862 0.04128 0.11100
C 	C 	0.37613 0.30146 0.03969 0.10000
C 	C 	0.13942 0.99965 0.91425 0.13800
N 	N 	0.42356 0.36535 0.06388 -0.08900
N 	N 	0.09117 0.94197 0.88759 -0.09100
N 	N 	0.15780 0.19080 0.06688 -0.09500
N 	N 	0.36154 0.08377 0.89777 -0.09800
