data_crystal

_cell_length_a 25.59907
_cell_length_b 26.05228
_cell_length_c 35.01882
_cell_angle_alpha 95.54013
_cell_angle_beta  95.54192
_cell_angle_gamma 125.67970

_symmetry_space_group_name_	'P 1'
_symmetry_space_group_name_H-M	'P 1'

loop_
_symmetry_equiv_pos_as_xyz
  x,y,z

loop_
_atom_site_label
_atom_site_type_symbol
_atom_site_fract_x
_atom_site_fract_y
_atom_site_fract_z
_atom_site_charge
C 	C 	0.97747 0.05396 0.99619 0.04500
C 	C 	0.94007 0.98744 0.99563 -0.07400
C 	C 	0.97101 0.95765 0.00029 0.03800
C 	C 	0.03950 0.99456 0.00568 -0.07900
C 	C 	0.07727 0.06130 0.00712 0.04200
C 	C 	0.04606 0.09078 0.00225 -0.08200
H 	H 	0.88715 0.95895 0.99138 0.05500
H 	H 	0.06322 0.97130 0.00866 0.05400
H 	H 	0.07507 0.14220 0.00295 0.05400
C 	C 	0.93277 0.99036 0.48543 0.03200
C 	C 	0.99982 0.02613 0.48402 -0.06500
C 	C 	0.03166 0.99712 0.48554 0.02700
C 	C 	0.99601 0.93144 0.48661 -0.06600
C 	C 	0.92899 0.89514 0.48806 0.03400
C 	C 	0.89760 0.92490 0.48778 -0.07100
H 	H 	0.02718 0.07634 0.48151 0.04800
H 	H 	0.02002 0.90831 0.48531 0.05000
H 	H 	0.84603 0.89720 0.48928 0.05400
Cu	Cu	0.65871 0.27371 0.99845 0.92300
Cu	Cu	0.68482 0.24597 0.91304 0.87900
Cu	Cu	0.66955 0.35896 0.94104 0.90900
Cu	Cu	0.64861 0.38790 0.02110 0.89400
C 	C 	0.66933 0.31944 0.07855 0.29400
O 	O 	0.56339 0.22673 0.00358 -0.36600
C 	C 	0.67375 0.32195 0.86391 0.29200
O 	O 	0.69929 0.37021 0.99549 -0.63900
O 	O 	0.63625 0.26773 0.94162 -0.63500
O 	O 	0.71278 0.24059 0.99840 -0.37500
O 	O 	0.66722 0.17742 0.93769 -0.41100
O 	O 	0.66554 0.36664 0.07220 -0.37900
O 	O 	0.70874 0.44895 0.94202 -0.37300
C 	C 	0.70797 0.48610 0.97006 0.28600
C 	C 	0.52909 0.24670 0.99137 0.28600
O 	O 	0.55888 0.30491 0.98368 -0.38600
O 	O 	0.66815 0.46117 0.99523 -0.38700
O 	O 	0.68928 0.29604 0.05357 -0.36700
C 	C 	0.69580 0.18931 0.97393 0.28400
O 	O 	0.64830 0.34365 0.88479 -0.37700
O 	O 	0.71402 0.31206 0.88161 -0.42100
H 	H 	0.74723 0.40236 0.00428 0.16100
H 	H 	0.58867 0.23692 0.93108 0.16700
Cu	Cu	0.72964 0.32623 0.44407 0.93000
Cu	Cu	0.72343 0.26245 0.52113 0.87200
Cu	Cu	0.62290 0.27799 0.49288 0.89700
Cu	Cu	0.60326 0.31746 0.41885 0.89500
C 	C 	0.68455 0.31680 0.36349 0.29000
O 	O 	0.76152 0.41891 0.44975 -0.35400
C 	C 	0.66868 0.29580 0.57729 0.29100
O 	O 	0.62722 0.26783 0.43857 -0.64100
O 	O 	0.71966 0.32593 0.49930 -0.64200
O 	O 	0.78203 0.29230 0.44414 -0.36300
O 	O 	0.71198 0.21152 0.47411 -0.43800
O 	O 	0.65384 0.34028 0.37552 -0.38100
O 	O 	0.52841 0.22567 0.48369 -0.38300
C 	C 	0.49046 0.22717 0.45612 0.29200
C 	C 	0.72969 0.43792 0.46583 0.28400
O 	O 	0.66803 0.39563 0.46794 -0.39100
O 	O 	0.51475 0.27009 0.43302 -0.39000
O 	O 	0.72303 0.31222 0.38853 -0.35600
C 	C 	0.75833 0.23587 0.45334 0.28900
O 	O 	0.61947 0.27622 0.54875 -0.38500
O 	O 	0.71769 0.29420 0.57080 -0.41100
H 	H 	0.60158 0.22264 0.42465 0.16600
H 	H 	0.74505 0.36865 0.51668 0.17900
C 	C 	0.66338 0.36769 0.76565 -0.04300
C 	C 	0.65777 0.31851 0.74035 0.02200
C 	C 	0.65483 0.26918 0.75552 -0.06000
C 	C 	0.65793 0.26868 0.79560 0.02600
C 	C 	0.66632 0.31936 0.82121 -0.08800
C 	C 	0.66810 0.36815 0.80590 0.01400
C 	C 	0.65741 0.31939 0.69806 0.02100
C 	C 	0.71597 0.36337 0.68568 -0.05900
C 	C 	0.71893 0.35930 0.64588 0.02500
C 	C 	0.66329 0.30924 0.61812 -0.08300
C 	C 	0.60358 0.26804 0.63032 0.00900
C 	C 	0.60030 0.27316 0.67008 -0.04200
C 	C 	0.77872 0.40745 0.63371 0.07000
C 	C 	0.53832 0.23052 0.68198 0.08800
C 	C 	0.66382 0.41755 0.75049 0.09000
C 	C 	0.65008 0.21483 0.80995 0.04700
N 	N 	0.82660 0.44603 0.62395 -0.11700
N 	N 	0.48869 0.19638 0.69155 -0.11800
N 	N 	0.64377 0.17167 0.82142 -0.13500
N 	N 	0.66417 0.45747 0.73831 -0.11600
H 	H 	0.67385 0.40683 0.82538 0.04500
H 	H 	0.64985 0.23098 0.73600 0.05200
H 	H 	0.75951 0.40011 0.70712 0.05300
H 	H 	0.56022 0.23057 0.60902 0.04100
C 	C 	0.72860 0.30955 0.17858 -0.04100
C 	C 	0.67808 0.29798 0.19812 0.02100
C 	C 	0.62184 0.28699 0.17723 -0.05900
C 	C 	0.61703 0.29072 0.13756 0.02400
C 	C 	0.66930 0.30616 0.11855 -0.07900
C 	C 	0.72398 0.31357 0.13893 0.01200
C 	C 	0.68600 0.30275 0.24104 0.02100
C 	C 	0.72033 0.36341 0.26523 -0.05900
C 	C 	0.72287 0.36878 0.30563 0.02700
C 	C 	0.69032 0.31282 0.32210 -0.07800
C 	C 	0.65880 0.25236 0.29818 0.00800
C 	C 	0.65637 0.24702 0.25772 -0.04000
C 	C 	0.75894 0.43185 0.33002 0.07900
C 	C 	0.62301 0.18426 0.23349 0.08800
C 	C 	0.78562 0.31809 0.19914 0.09100
C 	C 	0.55816 0.27828 0.11651 0.06700
N 	N 	0.78778 0.48232 0.34960 -0.10800
N 	N 	0.59630 0.13400 0.21405 -0.11700
N 	N 	0.51104 0.26835 0.09966 -0.11800
N 	N 	0.83129 0.32492 0.21565 -0.11500
H 	H 	0.76383 0.32445 0.12425 0.04300
H 	H 	0.58241 0.27688 0.19211 0.05200
H 	H 	0.74409 0.40636 0.25245 0.05300
H 	H 	0.63466 0.20938 0.31092 0.03200
C 	C 	0.83333 0.71116 0.45286 0.00400
C 	C 	0.78217 0.64559 0.44058 -0.05400
C 	C 	0.79197 0.60159 0.45276 0.01800
C 	C 	0.85007 0.62340 0.47785 0.00600
C 	C 	0.89547 0.68833 0.49546 -0.06000
C 	C 	0.88715 0.73243 0.48180 0.02900
S 	S 	0.82607 0.77044 0.45261 -0.00800
C 	C 	0.89094 0.82537 0.48780 -0.00300
C 	C 	0.91965 0.79650 0.50150 -0.06100
S 	S 	0.83699 0.56210 0.49734 0.02500
C 	C 	0.75904 0.50647 0.47488 -0.07400
C 	C 	0.74093 0.53568 0.45078 -0.01600
H 	H 	0.73569 0.62951 0.42375 0.04800
H 	H 	0.93391 0.70353 0.51988 0.05000
H 	H 	0.96292 0.82117 0.52423 0.04800
H 	H 	0.69365 0.50998 0.43165 0.03700
C 	C 	0.83755 0.05787 0.45136 0.00400
C 	C 	0.78603 0.06243 0.44234 -0.05500
C 	C 	0.79771 0.12143 0.45568 0.01200
C 	C 	0.85742 0.17205 0.47944 0.00400
C 	C 	0.90868 0.16744 0.48875 -0.06200
C 	C 	0.89677 0.10826 0.47594 0.02800
S 	S 	0.82892 0.98980 0.45305 -0.01200
C 	C 	0.89915 0.02110 0.48402 -0.00100
C 	C 	0.93180 0.08786 0.49407 -0.06200
S 	S 	0.86560 0.23977 0.47806 0.00200
C 	C 	0.79372 0.20814 0.44892 -0.07600
C 	C 	0.76114 0.14135 0.43902 -0.02000
H 	H 	0.73953 0.02245 0.42462 0.04700
H 	H 	0.95502 0.20736 0.50667 0.04800
H 	H 	0.97770 0.11995 0.51465 0.04700
H 	H 	0.71232 0.10836 0.42154 0.04000
C 	C 	0.21328 0.06092 0.48697 0.00300
C 	C 	0.27936 0.09074 0.50190 -0.05600
C 	C 	0.32600 0.13727 0.48288 0.01600
C 	C 	0.30681 0.15663 0.45183 0.00200
C 	C 	0.24078 0.12658 0.43668 -0.06000
C 	C 	0.19402 0.08018 0.45577 0.02800
S 	S 	0.15405 0.02792 0.51289 -0.01100
C 	C 	0.10235 0.03566 0.48570 -0.00100
C 	C 	0.13080 0.06466 0.45457 -0.06100
S 	S 	0.36712 0.19209 0.42681 0.02200
C 	C 	0.41944 0.18548 0.45442 -0.07600
C 	C 	0.38993 0.15448 0.48483 -0.01900
H 	H 	0.29382 0.07688 0.52667 0.04900
H 	H 	0.22644 0.14076 0.41205 0.04800
H 	H 	0.10770 0.07555 0.43258 0.04800
H 	H 	0.41309 0.14392 0.50702 0.04700
C 	C 	0.83582 0.66943 0.96948 -0.00100
C 	C 	0.87545 0.72650 0.95543 -0.05700
C 	C 	0.87749 0.77950 0.97085 0.02500
C 	C 	0.83644 0.77319 0.99693 0.01000
C 	C 	0.79679 0.71604 0.01092 -0.06300
C 	C 	0.79511 0.66320 0.99568 0.02000
S 	S 	0.80567 0.59626 0.94594 0.02400
C 	C 	0.74172 0.55454 0.96829 -0.07100
C 	C 	0.74277 0.59835 0.99568 -0.02200
S 	S 	0.86728 0.84629 0.02106 -0.01500
C 	C 	0.93193 0.88774 0.99925 0.00000
C 	C 	0.93074 0.84431 0.97157 -0.06000
H 	H 	0.90553 0.73030 0.93451 0.04800
H 	H 	0.76685 0.71224 0.03194 0.04900
H 	H 	0.70649 0.58428 0.01402 0.04200
H 	H 	0.96780 0.85851 0.95380 0.04800
C 	C 	0.76371 0.08831 0.97620 0.00400
C 	C 	0.79187 0.06320 0.95684 -0.06200
C 	C 	0.85734 0.08943 0.97126 0.03000
C 	C 	0.89415 0.14169 0.00267 -0.00100
C 	C 	0.86610 0.16659 0.02227 -0.05500
C 	C 	0.80081 0.14109 0.00751 0.01400
S 	S 	0.70233 0.08774 0.95518 0.02200
C 	C 	0.71750 0.15070 0.98549 -0.07100
C 	C 	0.77475 0.17621 0.01284 -0.02400
S 	S 	0.95892 0.14592 0.02185 -0.00800
C 	C 	0.94513 0.08523 0.98984 -0.00400
C 	C 	0.88589 0.05728 0.96388 -0.06000
H 	H 	0.76354 0.02405 0.93187 0.04900
H 	H 	0.89479 0.20626 0.04694 0.04800
H 	H 	0.80188 0.22323 0.03146 0.04700
H 	H 	0.86123 0.01219 0.94351 0.04700
C 	C 	0.26313 0.13016 0.02479 0.00100
C 	C 	0.31275 0.12200 0.02757 -0.05300
C 	C 	0.35406 0.14384 0.00005 0.01400
C 	C 	0.34205 0.16821 0.96901 0.00500
C 	C 	0.29224 0.17609 0.96619 -0.06100
C 	C 	0.25128 0.15467 0.99383 0.03000
S 	S 	0.19467 0.08674 0.04245 -0.00800
C 	C 	0.14952 0.10063 0.01365 -0.00800
C 	C 	0.18716 0.13808 0.98744 -0.05800
S 	S 	0.41124 0.21369 0.95253 0.02000
C 	C 	0.45727 0.20136 0.98169 -0.07300
C 	C 	0.41899 0.16232 0.00719 -0.02100
H 	H 	0.32050 0.10171 0.05110 0.05000
H 	H 	0.28470 0.19676 0.94281 0.04900
H 	H 	0.16664 0.14531 0.96182 0.04700
H 	H 	0.43957 0.15601 0.03323 0.05000
