data_crystal

_cell_length_a 20.11581
_cell_length_b 20.56291
_cell_length_c 35.06816
_cell_angle_alpha 95.45858
_cell_angle_beta  95.45920
_cell_angle_gamma 126.11510

_symmetry_space_group_name_	'P 1'
_symmetry_space_group_name_H-M	'P 1'

loop_
_symmetry_equiv_pos_as_xyz
  x,y,z

loop_
_atom_site_label
_atom_site_type_symbol
_atom_site_fract_x
_atom_site_fract_y
_atom_site_fract_z
_atom_site_charge
N 	N 	0.05156 0.10989 0.99459 -0.13200
C 	C 	0.08788 0.07134 0.99277 0.13700
N 	N 	0.04149 0.98971 0.99238 -0.13300
N 	N 	0.96726 0.88469 0.46017 -0.13500
C 	C 	0.01086 0.96603 0.46095 0.14100
N 	N 	0.97056 0.00037 0.45928 -0.13600
Cu	Cu	0.64080 0.25128 0.00622 0.93000
Cu	Cu	0.69823 0.25861 0.92155 0.87600
Cu	Cu	0.68654 0.38480 0.95931 0.90000
Cu	Cu	0.65974 0.40909 0.04016 0.90000
C 	C 	0.67042 0.30274 0.08918 0.29500
O 	O 	0.52260 0.21217 0.00957 -0.35300
C 	C 	0.65499 0.33668 0.87300 0.29100
O 	O 	0.71593 0.37927 0.01207 -0.63900
O 	O 	0.62547 0.26395 0.95169 -0.64100
O 	O 	0.68672 0.18871 0.99836 -0.36400
O 	O 	0.77843 0.27674 0.96290 -0.43200
O 	O 	0.64044 0.34377 0.08221 -0.37300
O 	O 	0.75305 0.50275 0.96933 -0.37500
C 	C 	0.74856 0.54793 0.99674 0.31800
C 	C 	0.49485 0.25267 0.99813 0.30500
O 	O 	0.54802 0.32997 0.99552 -0.39000
O 	O 	0.71948 0.52180 0.02863 -0.38400
O 	O 	0.67391 0.25893 0.06051 -0.35100
C 	C 	0.75668 0.22176 0.98494 0.31400
O 	O 	0.67053 0.39019 0.90348 -0.36700
O 	O 	0.64498 0.26851 0.87701 -0.40500
H 	H 	0.77684 0.41130 0.02204 0.17700
H 	H 	0.56669 0.23203 0.93780 0.18200
Cu	Cu	0.72225 0.29905 0.45266 0.92700
Cu	Cu	0.72855 0.25114 0.53876 0.87800
Cu	Cu	0.59236 0.25625 0.50433 0.90100
Cu	Cu	0.55663 0.27817 0.42219 0.90200
C 	C 	0.66967 0.28050 0.37073 0.29400
O 	O 	0.76693 0.41674 0.44877 -0.35700
C 	C 	0.65633 0.29753 0.58998 0.29200
O 	O 	0.59178 0.22713 0.45055 -0.63600
O 	O 	0.71586 0.31765 0.50812 -0.64000
O 	O 	0.78131 0.24736 0.45742 -0.36000
O 	O 	0.69927 0.16625 0.49790 -0.43000
O 	O 	0.59831 0.26873 0.37387 -0.37100
O 	O 	0.47161 0.18939 0.49728 -0.37200
C 	C 	0.42278 0.18667 0.46824 0.31400
C 	C 	0.72345 0.44386 0.45619 0.30500
O 	O 	0.64698 0.39335 0.46201 -0.38500
O 	O 	0.45373 0.23832 0.44391 -0.38300
O 	O 	0.70783 0.26646 0.39779 -0.35500
C 	C 	0.74875 0.18104 0.47286 0.30800
O 	O 	0.59296 0.26939 0.56111 -0.36900
O 	O 	0.72559 0.30878 0.58354 -0.40400
H 	H 	0.55946 0.16744 0.44105 0.17400
H 	H 	0.74837 0.37592 0.52080 0.18100
C 	C 	0.63221 0.38136 0.68479 -0.03700
C 	C 	0.63662 0.33398 0.71003 0.02200
C 	C 	0.64236 0.27152 0.69528 -0.03800
C 	C 	0.64544 0.25756 0.65559 0.02300
C 	C 	0.64559 0.30780 0.63076 -0.07600
C 	C 	0.63761 0.36890 0.64524 0.02400
C 	C 	0.63774 0.35117 0.75254 0.02200
C 	C 	0.64582 0.22211 0.72112 0.09900
C 	C 	0.63659 0.41988 0.61968 0.08500
C 	C 	0.56361 0.30239 0.76747 -0.03700
C 	C 	0.56812 0.30272 0.80789 0.02400
C 	C 	0.64666 0.35264 0.83328 -0.07500
C 	C 	0.71903 0.40973 0.81890 0.02000
C 	C 	0.71468 0.40864 0.77844 -0.03800
C 	C 	0.48324 0.25032 0.74112 0.10200
C 	C 	0.49234 0.25119 0.82334 0.08500
C 	C 	0.62257 0.44309 0.69958 0.10300
C 	C 	0.64700 0.19057 0.64011 0.07100
N 	N 	0.43188 0.21007 0.83569 -0.10600
N 	N 	0.41912 0.20877 0.72004 -0.10700
N 	N 	0.64857 0.18277 0.74179 -0.11200
N 	N 	0.64825 0.13714 0.62775 -0.11800
N 	N 	0.63579 0.46055 0.59927 -0.10500
N 	N 	0.61489 0.49235 0.71144 -0.10600
C 	C 	0.61631 0.24245 0.18670 -0.03700
C 	C 	0.69674 0.28185 0.20929 0.02200
C 	C 	0.76738 0.31877 0.19116 -0.03600
C 	C 	0.75842 0.32238 0.15116 0.02000
C 	C 	0.67867 0.28813 0.12925 -0.07200
C 	C 	0.60718 0.24455 0.14660 0.02400
C 	C 	0.70733 0.28881 0.25259 0.02200
C 	C 	0.52425 0.20154 0.12307 0.09200
C 	C 	0.69319 0.22312 0.26950 -0.03600
C 	C 	0.68530 0.22199 0.30904 0.02300
C 	C 	0.69409 0.28794 0.33195 -0.07000
C 	C 	0.71744 0.35756 0.31602 0.02000
C 	C 	0.72325 0.35768 0.27628 -0.03600
C 	C 	0.68498 0.15601 0.24596 0.10300
C 	C 	0.73482 0.42878 0.34049 0.08100
C 	C 	0.66541 0.15192 0.32573 0.09400
C 	C 	0.74359 0.42775 0.25947 0.10000
C 	C 	0.54320 0.20106 0.20495 0.10100
N 	N 	0.64956 0.09602 0.33905 -0.10200
N 	N 	0.67844 0.10248 0.22712 -0.10600
N 	N 	0.74871 0.48568 0.35994 -0.10600
N 	N 	0.75982 0.48360 0.24601 -0.10800
N 	N 	0.45815 0.16727 0.10427 -0.10000
N 	N 	0.48495 0.16807 0.21957 -0.10800
C 	C 	0.75792 0.52842 0.45658 -0.09500
C 	C 	0.09959 0.01552 0.46356 -0.02000
C 	C 	0.17406 0.05532 0.46553 0.00300
C 	C 	0.26092 0.10070 0.46732 0.06600
C 	C 	0.33500 0.13951 0.46819 -0.09800
C 	C 	0.79055 0.63270 0.99540 -0.09600
C 	C 	0.80419 0.19089 0.99022 -0.10700
C 	C 	0.17577 0.11676 0.99255 -0.01700
C 	C 	0.24921 0.15071 0.99275 0.00300
C 	C 	0.33475 0.18710 0.99363 0.06600
C 	C 	0.40773 0.21694 0.99516 -0.09700
C 	C 	0.96868 0.06622 0.99610 0.13500
C 	C 	0.95900 0.94637 0.99385 0.13800
N 	N 	0.92259 0.98454 0.99573 -0.13400
C 	C 	0.88636 0.95343 0.45708 0.13500
N 	N 	0.84210 0.87121 0.45652 -0.13200
C 	C 	0.88322 0.83700 0.45790 0.13600
C 	C 	0.79833 0.46762 0.84559 0.07800
C 	C 	0.78963 0.46463 0.76332 0.10000
N 	N 	0.86159 0.51381 0.86691 -0.10700
N 	N 	0.84940 0.50927 0.75120 -0.10800
C 	C 	0.84919 0.35384 0.21379 0.10200
C 	C 	0.83126 0.36245 0.13271 0.08200
N 	N 	0.91446 0.38182 0.23190 -0.10600
N 	N 	0.88935 0.39439 0.11796 -0.10700
C 	C 	0.83907 0.75056 0.45724 -0.01700
C 	C 	0.81056 0.67971 0.45694 0.00400
C 	C 	0.78233 0.59812 0.45675 0.06500
C 	C 	0.77355 0.12856 0.46554 -0.10100
C 	C 	0.79364 0.08354 0.46153 0.06400
C 	C 	0.81923 0.03222 0.45871 -0.00100
C 	C 	0.84576 0.99247 0.45748 -0.01500
C 	C 	0.91069 0.86046 0.99391 -0.01800
C 	C 	0.87144 0.78838 0.99412 0.00300
C 	C 	0.82712 0.70430 0.99464 0.06800
C 	C 	0.92843 0.10505 0.99598 -0.01700
C 	C 	0.89103 0.13406 0.99519 -0.00200
C 	C 	0.84462 0.16522 0.99318 0.06700
