data_crystal

_cell_length_a 35.29203
_cell_length_b 35.71793
_cell_length_c 35.18103
_cell_angle_alpha 95.52287
_cell_angle_beta  95.52151
_cell_angle_gamma 125.36633

_symmetry_space_group_name_	'P 1'
_symmetry_space_group_name_H-M	'P 1'

loop_
_symmetry_equiv_pos_as_xyz
  x,y,z

loop_
_atom_site_label
_atom_site_type_symbol
_atom_site_fract_x
_atom_site_fract_y
_atom_site_fract_z
_atom_site_charge
C 	C 	0.98487 0.03316 0.99769 0.12100
N 	N 	0.95971 0.98684 0.99891 -0.14200
C 	C 	0.97977 0.96414 0.99432 0.12000
N 	N 	0.02501 0.98784 0.98842 -0.14200
C 	C 	0.05031 0.03409 0.98718 0.12000
N 	N 	0.03024 0.05675 0.99192 -0.14100
C 	C 	0.94937 0.99255 0.44056 0.11800
N 	N 	0.92426 0.94645 0.44281 -0.14000
C 	C 	0.94652 0.92572 0.44585 0.11900
N 	N 	0.99378 0.95108 0.44650 -0.14100
C 	C 	0.01891 0.99698 0.44407 0.11800
N 	N 	0.99664 0.01763 0.44104 -0.14000
Cu	Cu	0.65898 0.27476 0.99603 0.92800
Cu	Cu	0.69896 0.27780 0.91517 0.86900
Cu	Cu	0.68387 0.34778 0.94498 0.89700
Cu	Cu	0.65486 0.35907 0.01976 0.89300
C 	C 	0.66937 0.30946 0.07644 0.29200
O 	O 	0.58929 0.24508 0.99396 -0.36300
C 	C 	0.67379 0.31726 0.86053 0.29300
O 	O 	0.69495 0.34713 0.99917 -0.63900
O 	O 	0.65347 0.27934 0.94035 -0.64100
O 	O 	0.68993 0.24249 0.99537 -0.37100
O 	O 	0.74232 0.29132 0.95992 -0.44100
O 	O 	0.64676 0.32687 0.06495 -0.38700
O 	O 	0.71734 0.41487 0.95316 -0.38200
C 	C 	0.71145 0.43955 0.97912 0.29400
C 	C 	0.56942 0.26335 0.97869 0.28400
O 	O 	0.59605 0.30688 0.97376 -0.39300
O 	O 	0.67994 0.41949 0.00192 -0.39800
O 	O 	0.67379 0.28276 0.05139 -0.36000
C 	C 	0.72983 0.26050 0.98263 0.29100
O 	O 	0.68197 0.34964 0.88894 -0.38100
O 	O 	0.67015 0.27983 0.86752 -0.42100
H 	H 	0.72859 0.36823 0.01221 0.16300
H 	H 	0.62095 0.25928 0.92486 0.17400
Cu	Cu	0.71670 0.32571 0.44022 0.92700
Cu	Cu	0.72440 0.29707 0.52458 0.86900
Cu	Cu	0.64693 0.30377 0.49509 0.89700
Cu	Cu	0.62318 0.31682 0.41471 0.89500
C 	C 	0.68312 0.31589 0.36003 0.29600
O 	O 	0.74294 0.39269 0.43648 -0.37100
C 	C 	0.68215 0.31842 0.57884 0.29000
O 	O 	0.64357 0.28625 0.44104 -0.63900
O 	O 	0.71630 0.33674 0.49631 -0.64000
O 	O 	0.75287 0.29884 0.44214 -0.37400
O 	O 	0.70962 0.25057 0.48242 -0.44100
O 	O 	0.64300 0.30927 0.36484 -0.38300
O 	O 	0.57894 0.26717 0.49073 -0.38300
C 	C 	0.55054 0.26862 0.46459 0.29300
C 	C 	0.72006 0.41015 0.44489 0.28800
O 	O 	0.67753 0.38304 0.45269 -0.39300
O 	O 	0.56713 0.29695 0.43929 -0.39500
O 	O 	0.70514 0.30637 0.38533 -0.36600
C 	C 	0.73746 0.26110 0.45690 0.29100
O 	O 	0.65117 0.31539 0.55183 -0.37900
O 	O 	0.72196 0.32696 0.57114 -0.41500
H 	H 	0.62449 0.25209 0.43158 0.16500
H 	H 	0.73579 0.36999 0.50924 0.17500
C 	C 	0.67284 0.29015 0.67990 -0.07600
C 	C 	0.66701 0.32267 0.69819 0.01400
C 	C 	0.66387 0.35239 0.67668 -0.00700
C 	C 	0.66792 0.35015 0.63742 0.00100
C 	C 	0.67501 0.31842 0.61940 -0.09500
C 	C 	0.67632 0.28749 0.64063 0.06000
C 	C 	0.66605 0.32638 0.74026 0.01300
S 	S 	0.65435 0.39208 0.69841 -0.03600
H 	H 	0.66624 0.37354 0.62107 0.04100
S 	S 	0.68037 0.24405 0.61799 -0.09200
H 	H 	0.67459 0.26683 0.69631 0.05100
C 	C 	0.62515 0.29311 0.75397 -0.00700
C 	C 	0.62746 0.29181 0.79373 -0.00200
C 	C 	0.67009 0.32384 0.82007 -0.09400
C 	C 	0.71020 0.35897 0.80661 0.05500
C 	C 	0.70795 0.36000 0.76682 -0.07300
S 	S 	0.57110 0.25265 0.72158 -0.04000
H 	H 	0.59637 0.26522 0.80408 0.03500
S 	S 	0.76408 0.40036 0.83896 -0.05300
H 	H 	0.73930 0.38594 0.75635 0.05300
H 	H 	0.63581 0.20451 0.60267 0.03300
H 	H 	0.56875 0.21402 0.70777 0.03400
H 	H 	0.78977 0.38291 0.84304 0.02600
H 	H 	0.60671 0.37018 0.69536 0.03800
C 	C 	0.70651 0.35705 0.26449 -0.07300
C 	C 	0.69959 0.31843 0.24165 0.01300
C 	C 	0.69443 0.28235 0.25935 -0.00500
C 	C 	0.69212 0.28329 0.29889 -0.00100
C 	C 	0.69492 0.31996 0.32097 -0.08900
C 	C 	0.70408 0.35794 0.30401 0.05500
C 	C 	0.69138 0.31311 0.19886 0.01200
S 	S 	0.68888 0.23497 0.23194 -0.03600
H 	H 	0.68610 0.25449 0.31207 0.04400
S 	S 	0.71239 0.40667 0.33193 -0.06000
H 	H 	0.71168 0.38541 0.25110 0.05100
C 	C 	0.64544 0.29108 0.17752 -0.00600
C 	C 	0.63856 0.28886 0.13734 -0.00200
C 	C 	0.67708 0.30840 0.11804 -0.08900
C 	C 	0.72288 0.32919 0.13917 0.05300
C 	C 	0.72980 0.33159 0.17949 -0.07200
S 	S 	0.59634 0.26667 0.20089 -0.04000
H 	H 	0.60324 0.27236 0.12108 0.04200
S 	S 	0.77191 0.35351 0.11574 -0.05300
H 	H 	0.76510 0.34826 0.19584 0.05300
H 	H 	0.75889 0.43784 0.34972 0.04200
H 	H 	0.59101 0.30052 0.21382 0.03500
H 	H 	0.79020 0.39917 0.11462 0.02900
H 	H 	0.64222 0.20115 0.21585 0.03800
C 	C 	0.91993 0.87619 0.44943 -0.02400
C 	C 	0.87659 0.84229 0.42440 -0.01500
C 	C 	0.85448 0.79476 0.42457 -0.05500
C 	C 	0.87545 0.78091 0.44987 0.03200
C 	C 	0.91773 0.81472 0.47587 -0.05500
C 	C 	0.93988 0.86216 0.47570 -0.01500
C 	C 	0.85473 0.73206 0.44813 -0.02500
C 	C 	0.83795 0.69137 0.44712 -0.00400
C 	C 	0.81872 0.64384 0.44616 0.00100
C 	C 	0.80217 0.60325 0.44546 -0.03200
C 	C 	0.78173 0.55460 0.44469 0.04600
C 	C 	0.73252 0.52164 0.43803 -0.07400
C 	C 	0.71248 0.47456 0.43803 0.01900
C 	C 	0.74156 0.45998 0.44479 -0.09500
C 	C 	0.79096 0.49307 0.45108 0.01900
C 	C 	0.81095 0.54024 0.45108 -0.07400
H 	H 	0.86083 0.85266 0.40400 0.03900
H 	H 	0.82160 0.76877 0.40455 0.04600
H 	H 	0.93390 0.80427 0.49575 0.04600
H 	H 	0.97299 0.88801 0.49551 0.04000
H 	H 	0.70974 0.53248 0.43291 0.05000
H 	H 	0.67433 0.44938 0.43251 0.02600
H 	H 	0.81385 0.48240 0.45633 0.03100
H 	H 	0.84907 0.56558 0.45621 0.05000
C 	C 	0.92591 0.01590 0.43931 -0.02100
C 	C 	0.95055 0.06274 0.45780 -0.01600
C 	C 	0.92897 0.08538 0.45578 -0.05400
C 	C 	0.88261 0.06150 0.43538 0.03100
C 	C 	0.85774 0.01469 0.41707 -0.05200
C 	C 	0.87928 0.99192 0.41901 -0.01800
C 	C 	0.86051 0.08502 0.43364 -0.02400
C 	C 	0.84291 0.10558 0.43268 -0.00500
C 	C 	0.82302 0.13035 0.43239 0.00100
C 	C 	0.80645 0.15190 0.43292 -0.03300
C 	C 	0.78697 0.17793 0.43457 0.04600
C 	C 	0.81439 0.22471 0.43000 -0.07400
C 	C 	0.79747 0.25149 0.43573 0.01900
C 	C 	0.75304 0.23165 0.44628 -0.09800
C 	C 	0.72490 0.18421 0.44931 0.01800
C 	C 	0.74188 0.15753 0.44353 -0.07500
H 	H 	0.98633 0.08154 0.47390 0.04000
H 	H 	0.94832 0.12150 0.47016 0.04600
H 	H 	0.82183 0.99599 0.40127 0.04500
H 	H 	0.85996 0.95591 0.40438 0.04000
H 	H 	0.84924 0.24067 0.42293 0.05000
H 	H 	0.81953 0.28797 0.43318 0.03300
H 	H 	0.69023 0.16820 0.45675 0.02800
H 	H 	0.72035 0.12128 0.44685 0.04900
C 	C 	0.50060 0.24451 0.46804 -0.09100
C 	C 	0.47431 0.19887 0.47564 0.01900
C 	C 	0.42592 0.17472 0.47574 -0.07300
C 	C 	0.40363 0.19612 0.46845 0.04700
C 	C 	0.43009 0.24217 0.46208 -0.07400
C 	C 	0.47838 0.26630 0.46187 0.02100
C 	C 	0.35326 0.17014 0.46565 -0.03200
C 	C 	0.31108 0.14835 0.46331 0.00100
C 	C 	0.26166 0.12292 0.46007 -0.00400
C 	C 	0.21940 0.10128 0.45694 -0.02500
C 	C 	0.16890 0.07544 0.45291 0.03200
C 	C 	0.13924 0.02903 0.43299 -0.05500
C 	C 	0.09021 0.00367 0.42945 -0.01400
C 	C 	0.07046 0.02457 0.44590 -0.02400
C 	C 	0.10032 0.07136 0.46538 -0.01500
C 	C 	0.14936 0.09666 0.46886 -0.05500
H 	H 	0.49106 0.18171 0.48048 0.02800
H 	H 	0.40564 0.13913 0.48080 0.05000
H 	H 	0.41313 0.25903 0.45669 0.05000
H 	H 	0.49844 0.30179 0.45660 0.03300
H 	H 	0.15414 0.01253 0.42035 0.04600
H 	H 	0.06759 0.96779 0.41396 0.04000
H 	H 	0.08562 0.08785 0.47842 0.03900
H 	H 	0.17214 0.13261 0.48419 0.04600
C 	C 	0.73611 0.48988 0.97919 -0.09000
C 	C 	0.78128 0.51650 0.96948 0.02000
C 	C 	0.80508 0.56445 0.97055 -0.07300
C 	C 	0.78391 0.58609 0.98122 0.04700
C 	C 	0.73867 0.55958 0.99048 -0.07300
C 	C 	0.71482 0.51167 0.98947 0.02000
C 	C 	0.80897 0.63566 0.98333 -0.03100
C 	C 	0.83001 0.67716 0.98508 0.00100
C 	C 	0.85478 0.72579 0.98736 -0.00300
C 	C 	0.87600 0.76736 0.98943 -0.02500
C 	C 	0.90159 0.81704 0.99199 0.03400
C 	C 	0.94958 0.84705 0.00920 -0.05700
C 	C 	0.97487 0.89520 0.01075 -0.01600
C 	C 	0.95230 0.91371 0.99497 -0.02300
C 	C 	0.90394 0.88358 0.97832 -0.01500
C 	C 	0.87872 0.83540 0.97681 -0.05500
H 	H 	0.79820 0.50023 0.96163 0.03100
H 	H 	0.84006 0.58479 0.96333 0.05000
H 	H 	0.72203 0.57608 0.99860 0.05100
H 	H 	0.67975 0.49150 0.99652 0.03300
H 	H 	0.96740 0.83309 0.02119 0.04600
H 	H 	0.01201 0.91808 0.02409 0.04000
H 	H 	0.88614 0.89732 0.96585 0.04000
H 	H 	0.84155 0.81236 0.96353 0.04700
C 	C 	0.75724 0.24167 0.98943 -0.09800
C 	C 	0.78740 0.24592 0.96402 0.01800
C 	C 	0.81129 0.22585 0.96900 -0.07700
C 	C 	0.80541 0.20142 0.99938 0.05100
C 	C 	0.77611 0.19778 0.02527 -0.07700
C 	C 	0.75213 0.21789 0.02038 0.02100
C 	C 	0.82854 0.17907 0.00319 -0.03600
C 	C 	0.84851 0.16089 0.00533 0.00200
C 	C 	0.87223 0.13986 0.00657 -0.00600
C 	C 	0.89269 0.12211 0.00668 -0.02400
C 	C 	0.91733 0.10112 0.00580 0.03000
C 	C 	0.95076 0.11395 0.98170 -0.05300
C 	C 	0.97327 0.09221 0.97940 -0.01300
C 	C 	0.96245 0.05737 0.00123 -0.02800
C 	C 	0.92933 0.04501 0.02577 -0.01400
C 	C 	0.90686 0.06682 0.02800 -0.05500
H 	H 	0.79166 0.26398 0.93995 0.01500
H 	H 	0.83396 0.22885 0.94892 0.04900
H 	H 	0.77160 0.17912 0.04896 0.05200
H 	H 	0.72952 0.21482 0.04053 0.03900
H 	H 	0.95896 0.14039 0.96440 0.04600
H 	H 	0.99846 0.10187 0.96016 0.04000
H 	H 	0.92102 0.01857 0.04309 0.04000
H 	H 	0.88111 0.05682 0.04677 0.04600
C 	C 	0.51755 0.23750 0.97252 -0.09200
C 	C 	0.49085 0.20257 0.99406 0.01900
C 	C 	0.44267 0.18201 0.99172 -0.07100
C 	C 	0.42074 0.19603 0.96781 0.04500
C 	C 	0.44677 0.22956 0.94520 -0.07300
C 	C 	0.49499 0.25018 0.94745 0.01600
C 	C 	0.37202 0.17735 0.96776 -0.03100
C 	C 	0.33121 0.16131 0.96810 0.00100
C 	C 	0.28347 0.14218 0.96907 -0.00500
C 	C 	0.24263 0.12529 0.97025 -0.02300
C 	C 	0.19375 0.10421 0.97196 0.02900
C 	C 	0.18165 0.12695 0.99718 -0.04800
C 	C 	0.13452 0.10467 0.00132 -0.02200
C 	C 	0.09924 0.05938 0.98034 -0.02000
C 	C 	0.11135 0.03731 0.95424 -0.01700
C 	C 	0.15843 0.05966 0.95012 -0.05300
H 	H 	0.50766 0.19237 0.01351 0.03600
H 	H 	0.42264 0.15587 0.00910 0.04900
H 	H 	0.42989 0.24022 0.92635 0.05000
H 	H 	0.51492 0.27651 0.93020 0.03100
H 	H 	0.20881 0.16146 0.01413 0.04300
H 	H 	0.12567 0.12207 0.02157 0.04100
H 	H 	0.08437 0.00266 0.93746 0.04100
H 	H 	0.16753 0.04199 0.93043 0.04600
