data_crystal

_cell_length_a 18.33249
_cell_length_b 18.98183
_cell_length_c 22.13366
_cell_angle_alpha 95.46675
_cell_angle_beta  95.46760
_cell_angle_gamma 126.33837

_symmetry_space_group_name_	'P 1'
_symmetry_space_group_name_H-M	'P 1'

loop_
_symmetry_equiv_pos_as_xyz
  x,y,z

loop_
_atom_site_label
_atom_site_type_symbol
_atom_site_fract_x
_atom_site_fract_y
_atom_site_fract_z
_atom_site_charge
C 	C 	0.10785 0.10607 0.03100 -0.13200
C 	C 	0.13867 0.05373 0.02484 0.23400
H 	H 	0.15649 0.17787 0.03637 0.14800
Cu	Cu	0.70270 0.26672 0.02779 0.93300
Cu	Cu	0.75072 0.22978 0.89434 0.91200
Cu	Cu	0.71083 0.37457 0.92967 0.92300
Cu	Cu	0.66337 0.40851 0.05215 0.92500
C 	C 	0.69664 0.32676 0.14992 0.33100
O 	O 	0.56522 0.18736 0.02973 -0.32600
C 	C 	0.74103 0.33359 0.81355 0.32200
O 	O 	0.74602 0.39535 0.01811 -0.62700
O 	O 	0.67620 0.25386 0.93601 -0.62300
O 	O 	0.74089 0.15083 0.94418 -0.37200
O 	O 	0.69137 0.39029 0.13620 -0.32700
O 	O 	0.75370 0.49489 0.92807 -0.33100
C 	C 	0.74337 0.53937 0.97137 0.39400
C 	C 	0.51320 0.20996 0.00982 0.38900
O 	O 	0.55043 0.28610 0.99189 -0.36500
O 	O 	0.67774 0.49726 0.00364 -0.33400
O 	O 	0.73537 0.30044 0.11655 -0.31800
C 	C 	0.79317 0.18335 0.99917 0.39400
O 	O 	0.69140 0.35178 0.83991 -0.33600
H 	H 	0.61008 0.20691 0.91832 0.19400
Cu	Cu	0.69033 0.31363 0.41637 0.93300
Cu	Cu	0.71109 0.25130 0.54665 0.90800
Cu	Cu	0.57533 0.28077 0.51871 0.90900
Cu	Cu	0.51579 0.31261 0.39700 0.92500
C 	C 	0.60576 0.30016 0.29433 0.33000
C 	C 	0.66831 0.31616 0.64799 0.32400
O 	O 	0.55294 0.24820 0.42993 -0.62800
O 	O 	0.70522 0.33581 0.50848 -0.63000
O 	O 	0.65962 0.16201 0.47559 -0.39600
O 	O 	0.53375 0.29052 0.31193 -0.32500
O 	O 	0.44557 0.21822 0.52219 -0.33500
C 	C 	0.38933 0.21801 0.48022 0.40600
C 	C 	0.71221 0.48232 0.43475 0.38500
O 	O 	0.63473 0.43429 0.45457 -0.35400
O 	O 	0.42119 0.28170 0.44786 -0.34400
O 	O 	0.65315 0.27994 0.32732 -0.31800
C 	C 	0.71058 0.17495 0.43412 0.39000
O 	O 	0.60039 0.30598 0.61054 -0.33500
O 	O 	0.73233 0.31547 0.62604 -0.37700
H 	H 	0.50981 0.18313 0.41412 0.21000
C 	C 	0.67364 0.33053 0.70957 -0.09000
C 	C 	0.74242 0.33214 0.75290 -0.09900
H 	H 	0.62324 0.33526 0.72758 0.12800
C 	C 	0.61836 0.31428 0.23666 -0.06100
C 	C 	0.67830 0.30119 0.20456 -0.07600
H 	H 	0.57825 0.33053 0.21085 0.12500
H 	H 	0.69726 0.26097 0.22116 0.13900
F 	F 	0.72488 0.10545 0.31928 -0.35900
C 	C 	0.14685 0.10011 0.50751 0.25000
C 	C 	0.09652 0.04683 0.44888 -0.11200
C 	C 	0.14284 0.04391 0.40298 0.25100
C 	C 	0.23883 0.09541 0.41503 0.29900
C 	C 	0.28951 0.15102 0.47287 -0.20900
C 	C 	0.24318 0.15216 0.51946 0.31000
F 	F 	0.29161 0.20599 0.57548 -0.35500
F 	F 	0.10234 0.10149 0.55272 -0.33600
F 	F 	0.28316 0.09342 0.36988 -0.38400
C 	C 	0.26276 0.10479 0.96377 0.25900
C 	C 	0.23546 0.09463 0.02136 -0.14500
C 	C 	0.29663 0.11046 0.07360 0.25400
C 	C 	0.38571 0.13961 0.06866 0.29100
C 	C 	0.41444 0.15375 0.01151 -0.20500
C 	C 	0.35148 0.13340 0.95876 0.29700
F 	F 	0.37775 0.14483 0.90297 -0.37200
F 	F 	0.20285 0.08620 0.91253 -0.34000
F 	F 	0.44564 0.15851 0.11997 -0.38600
F 	F 	0.26968 0.09769 0.12912 -0.35300
O 	O 	0.79613 0.24263 0.03778 -0.32600
O 	O 	0.74259 0.24474 0.40736 -0.31900
H 	H 	0.74993 0.39871 0.52992 0.21000
F 	F 	0.74590 0.60344 0.53884 -0.36900
F 	F 	0.78217 0.63381 0.87236 -0.35900
O 	O 	0.74972 0.44530 0.41454 -0.32400
C 	C 	0.74952 0.12499 0.42978 -0.20500
C 	C 	0.75122 0.08859 0.37198 0.30200
O 	O 	0.79702 0.32536 0.84813 -0.38600
H 	H 	0.79126 0.32543 0.73431 0.11000
C 	C 	0.75397 0.57661 0.43258 -0.20100
C 	C 	0.76089 0.63135 0.48398 0.29400
H 	H 	0.72735 0.83631 0.41185 0.13800
F 	F 	0.75989 0.55342 0.32543 -0.38000
C 	C 	0.76938 0.60651 0.37611 0.29100
C 	C 	0.77921 0.03361 0.36846 0.25300
C 	C 	0.77579 0.10545 0.48384 0.29200
F 	F 	0.78328 0.00110 0.31258 -0.34400
C 	C 	0.01340 0.06485 0.02833 0.27200
C 	C 	0.78298 0.71478 0.47903 0.25300
F 	F 	0.02049 0.15439 0.93111 -0.33200
F 	F 	0.77773 0.14228 0.54024 -0.42200
F 	F 	0.79188 0.76766 0.52959 -0.35000
C 	C 	0.79212 0.69037 0.37131 0.25300
C 	C 	0.80158 0.63673 0.98144 -0.20600
C 	C 	0.80014 0.74548 0.42298 -0.13600
C 	C 	0.80185 0.87874 0.41740 -0.11000
C 	C 	0.80163 0.04920 0.48013 0.25200
C 	C 	0.80462 0.01376 0.42264 -0.13200
F 	F 	0.80933 0.71937 0.31694 -0.34700
H 	H 	0.98696 0.09748 0.43296 0.12900
C 	C 	0.94828 0.02610 0.42966 -0.10700
H 	H 	0.81193 0.44513 0.03423 0.19900
F 	F 	0.82759 0.03204 0.53284 -0.34900
C 	C 	0.87719 0.77391 0.94149 0.25400
C 	C 	0.82015 0.68093 0.93112 0.30100
C 	C 	0.83927 0.68618 0.04208 0.29400
F 	F 	0.82300 0.64414 0.09105 -0.38300
C 	C 	0.97393 0.15162 0.97614 0.24100
C 	C 	0.97833 0.11758 0.02882 -0.16100
C 	C 	0.93178 0.11743 0.07585 0.26000
C 	C 	0.87403 0.14258 0.06742 0.29900
C 	C 	0.86319 0.16882 0.01217 -0.20400
C 	C 	0.91674 0.17726 0.96787 0.29500
F 	F 	0.91176 0.20850 0.91615 -0.40900
F 	F 	0.82522 0.13722 0.11157 -0.35500
F 	F 	0.93822 0.08773 0.12805 -0.35000
C 	C 	0.89583 0.77892 0.05230 0.25800
F 	F 	0.89600 0.81648 0.89272 -0.35200
C 	C 	0.91570 0.82302 0.00212 -0.14600
F 	F 	0.93311 0.82625 0.11103 -0.34400
C 	C 	0.84953 0.84171 0.42303 0.21800
H 	H 	0.98264 0.86930 0.43836 0.12800
C 	C 	0.94586 0.89741 0.43281 -0.11400
F 	F 	0.09464 0.99166 0.34645 -0.33300
C 	C 	0.07545 0.96106 0.01645 -0.10900
H 	H 	0.09908 0.92062 0.01114 0.13800
C 	C 	0.99520 0.98925 0.43687 0.19600
C 	C 	0.85167 0.97155 0.42058 0.21300
C 	C 	0.98161 0.92020 0.01296 0.22300
C 	C 	0.95063 0.97184 0.01940 -0.15700
H 	H 	0.87754 0.93966 0.01611 0.14800
