data_crystal

_cell_length_a 14.76496
_cell_length_b 12.71127
_cell_length_c 49.31532
_cell_angle_alpha 89.58696
_cell_angle_beta  89.59015
_cell_angle_gamma 119.48613

_symmetry_space_group_name_	'P 1'
_symmetry_space_group_name_H-M	'P 1'

loop_
_symmetry_equiv_pos_as_xyz
  x,y,z

loop_
_atom_site_label
_atom_site_type_symbol
_atom_site_fract_x
_atom_site_fract_y
_atom_site_fract_z
_atom_site_charge
Ni	Ni	0.04436 0.11370 0.69960 1.11600
O 	O 	0.01389 0.22162 0.72350 -0.37200
Ni	Ni	0.07342 0.26063 0.21021 1.11400
C 	C 	0.02552 0.48654 0.95149 -0.10100
H 	H 	0.04596 0.64753 0.97411 0.09000
H 	H 	0.01872 0.19485 0.77744 0.03500
H 	H 	0.07278 0.33224 0.36602 0.03600
O 	O 	0.08895 0.99529 0.27381 -0.33200
O 	O 	0.07247 0.00876 0.67402 -0.41100
C 	C 	0.08390 0.63301 0.43690 0.35400
C 	C 	0.08597 0.90189 0.21220 0.30700
O 	O 	0.10396 0.15362 0.22968 -0.71300
C 	C 	0.02440 0.06019 0.07777 -0.05100
C 	C 	0.02135 0.08030 0.04982 0.01600
H 	H 	0.09716 0.29897 0.31791 0.05500
C 	C 	0.06488 0.57503 0.97384 -0.12100
C 	C 	0.08449 0.70585 0.14228 0.01800
C 	C 	0.08596 0.83091 0.18885 -0.07500
H 	H 	0.08108 0.48449 0.93722 0.07700
H 	H 	0.12460 0.20069 0.24633 0.13800
O 	O 	0.10099 0.99284 0.75620 -0.34400
O 	O 	0.11639 0.64704 0.41175 -0.39100
C 	C 	0.08875 0.63538 0.12039 0.05100
H 	H 	0.13004 0.08606 0.38072 0.04600
O 	O 	0.11674 0.90673 0.70478 -0.36100
C 	C 	0.10464 0.58327 0.10244 -0.10900
C 	C 	0.13043 0.96143 0.68110 0.33700
O 	O 	0.14685 0.64469 0.45643 -0.38700
C 	C 	0.15022 0.35897 0.35839 0.01300
C 	C 	0.16420 0.34253 0.33095 -0.05200
C 	C 	0.17877 0.08710 0.28182 0.26600
O 	O 	0.17043 0.28230 0.17730 -0.36400
C 	C 	0.11899 0.08337 0.08942 0.00400
C 	C 	0.13965 0.12004 0.11748 0.03200
C 	C 	0.13888 0.53155 0.08212 0.33400
C 	C 	0.13502 0.57657 0.99107 0.34600
O 	O 	0.13905 0.56337 0.05693 -0.38200
O 	O 	0.17393 0.97340 0.22436 -0.36600
O 	O 	0.19956 0.41092 0.22704 -0.36000
C 	C 	0.15842 0.15386 0.14070 -0.10100
H 	H 	0.19265 0.05059 0.42427 0.03300
H 	H 	0.16528 0.19071 0.79771 0.02700
C 	C 	0.16761 0.10484 0.74789 0.25900
O 	O 	0.17002 0.14054 0.72228 -0.37700
C 	C 	0.18143 0.19163 0.16854 0.31300
C 	C 	0.11578 0.13956 0.03518 -0.09200
C 	C 	0.17614 0.80827 0.15010 -0.05000
C 	C 	0.17736 0.86962 0.17343 0.01900
C 	C 	0.20332 0.10061 0.31003 -0.08900
O 	O 	0.14863 0.33538 0.04477 -0.38000
C 	C 	0.21066 0.10856 0.38260 -0.06000
O 	O 	0.19937 0.49618 0.41714 -0.36000
C 	C 	0.14769 0.26375 0.02628 0.31200
O 	O 	0.14762 0.48207 0.99303 -0.38900
C 	C 	0.23310 0.11935 0.33306 0.02900
Ni	Ni	0.23290 0.15337 0.22443 1.11400
O 	O 	0.20287 0.49352 0.08949 -0.37000
O 	O 	0.23009 0.14917 0.18330 -0.39300
O 	O 	0.19299 0.67449 0.00516 -0.38600
C 	C 	0.24651 0.08948 0.40731 0.00500
C 	C 	0.22090 0.98778 0.66495 -0.06400
H 	H 	0.24928 0.94784 0.17942 0.04800
C 	C 	0.23359 0.52179 0.39132 0.27900
O 	O 	0.25529 0.15045 0.26434 -0.38100
C 	C 	0.20112 0.09939 0.07216 -0.06400
H 	H 	0.24728 0.83880 0.13837 0.05400
C 	C 	0.23712 0.42992 0.37439 -0.07600
C 	C 	0.19526 0.11843 0.04428 0.00400
C 	C 	0.24204 0.20965 0.79115 0.00600
O 	O 	0.25367 0.62488 0.37916 -0.37100
C 	C 	0.26506 0.39089 0.32004 0.01400
Ni	Ni	0.26440 0.76722 0.39922 1.12300
C 	C 	0.27665 0.40002 0.23745 0.30600
C 	C 	0.27635 0.14430 0.35976 0.01600
H 	H 	0.25245 0.82092 0.51254 0.09300
C 	C 	0.25759 0.17802 0.76507 -0.07100
O 	O 	0.27148 0.89412 0.42384 -0.37100
O 	O 	0.20751 0.31146 0.00467 -0.37000
C 	C 	0.28047 0.40043 0.29100 0.05200
Ni	Ni	0.27027 0.61294 0.45045 1.11300
C 	C 	0.28499 0.40450 0.26653 -0.11300
Ni	Ni	0.27475 0.68017 0.03859 1.12300
O 	O 	0.31235 0.33790 0.22399 -0.37000
H 	H 	0.27192 0.10725 0.08045 0.04300
H 	H 	0.28969 0.00277 0.47580 0.04200
C 	C 	0.29844 0.01471 0.65161 0.01000
H 	H 	0.31022 0.27888 0.82987 0.04900
H 	H 	0.26060 0.13786 0.03114 0.03600
Ni	Ni	0.28789 0.45150 0.06215 1.11600
O 	O 	0.32660 0.70896 0.48611 -0.37500
H 	H 	0.31847 0.91072 0.60613 0.04000
C 	C 	0.32427 0.25939 0.80940 -0.05400
C 	C 	0.32042 0.87771 0.50005 -0.15200
Ni	Ni	0.28727 0.49629 0.99721 1.12000
C 	C 	0.33548 0.45335 0.36496 0.00900
C 	C 	0.34494 0.09764 0.40834 -0.08300
O 	O 	0.31282 0.55878 0.03305 -0.71500
C 	C 	0.33833 0.99876 0.49170 -0.02300
C 	C 	0.35407 0.00165 0.42275 0.27100
O 	O 	0.34525 0.73805 0.42539 -0.71200
C 	C 	0.35030 0.43862 0.33744 -0.04900
O 	O 	0.35036 0.72321 0.07521 -0.37000
C 	C 	0.35751 0.20216 0.75694 0.00900
C 	C 	0.36670 0.82677 0.48618 0.35100
C 	C 	0.38240 0.18314 0.36298 -0.05800
H 	H 	0.37042 0.17821 0.73680 0.03800
H 	H 	0.37567 0.69966 0.41409 0.14700
H 	H 	0.33375 0.18998 0.98152 0.08000
O 	O 	0.38612 0.88954 0.37583 -0.37500
H 	H 	0.38997 0.76760 0.13192 0.04100
C 	C 	0.38705 0.99533 0.61097 0.01700
O 	O 	0.39022 0.57383 0.45270 -0.37400
C 	C 	0.39177 0.05290 0.63548 -0.02200
O 	O 	0.37495 0.37944 0.04349 -0.37900
O 	O 	0.36898 0.66920 0.98073 -0.38000
H 	H 	0.40270 0.49980 0.37784 0.03100
H 	H 	0.38955 0.60602 0.03272 0.16800
C 	C 	0.41743 0.16264 0.38764 0.01200
H 	H 	0.42226 0.40247 0.44242 0.08800
O 	O 	0.40376 0.79511 0.01838 -0.38500
C 	C 	0.42189 0.27430 0.80205 0.01500
O 	O 	0.41649 0.59184 0.07966 -0.36800
H 	H 	0.43547 0.21853 0.34577 0.05000
H 	H 	0.42816 0.46985 0.32952 0.05000
C 	C 	0.42875 0.09797 0.49665 0.27000
C 	C 	0.42543 0.69996 0.08285 0.29100
O 	O 	0.43792 0.15268 0.52009 -0.37800
C 	C 	0.41327 0.39573 0.01817 0.32300
O 	O 	0.41404 0.47834 0.00148 -0.37800
C 	C 	0.41416 0.26145 0.98307 -0.13000
C 	C 	0.43926 0.24916 0.77549 -0.05400
O 	O 	0.44776 0.01358 0.42606 -0.39100
C 	C 	0.42701 0.77512 0.99355 0.32500
H 	H 	0.44999 0.89032 0.32103 0.03700
O 	O 	0.45482 0.89518 0.47362 -0.37100
H 	H 	0.45848 0.01214 0.57183 0.04200
C 	C 	0.46699 0.05239 0.59161 -0.04500
C 	C 	0.47117 0.79663 0.12783 0.02000
C 	C 	0.44939 0.32400 0.00936 -0.11100
O 	O 	0.45560 0.18267 0.94630 -0.39300
O 	O 	0.47764 0.35122 0.48740 -0.38600
Ni	Ni	0.47587 0.87474 0.43411 1.12700
C 	C 	0.48360 0.91023 0.37521 0.29500
C 	C 	0.48262 0.15996 0.64187 -0.04000
C 	C 	0.48900 0.64418 0.44514 0.31000
H 	H 	0.48834 0.20352 0.66109 0.04300
O 	O 	0.49268 0.15537 0.47566 -0.35600
H 	H 	0.49707 0.18105 0.38913 0.03500
H 	H 	0.47697 0.28319 0.02425 0.07000
C 	C 	0.49487 0.29061 0.82306 0.03700
C 	C 	0.48333 0.26996 0.96435 0.34000
C 	C 	0.50309 0.78089 0.10199 -0.07600
C 	C 	0.50264 0.46002 0.44840 -0.12400
H 	H 	0.50600 0.51740 0.57889 0.02900
C 	C 	0.50134 0.86929 0.97934 -0.13400
H 	H 	0.51719 0.85091 0.16898 0.05800
H 	H 	0.51436 0.26026 0.76960 0.04700
O 	O 	0.52427 0.88124 0.39580 -0.38300
Ni	Ni	0.52768 0.33341 0.52474 1.12200
C 	C 	0.52494 0.96560 0.32634 0.05100
H 	H 	0.51980 0.85433 0.95884 0.10200
O 	O 	0.52661 0.24352 0.88895 -0.38400
O 	O 	0.53527 0.76510 0.44586 -0.36400
C 	C 	0.54019 0.41834 0.46761 0.34500
C 	C 	0.54274 0.84158 0.14893 -0.05600
H 	H 	0.53963 0.54719 0.62805 0.04800
C 	C 	0.54593 0.29555 0.84248 -0.09000
C 	C 	0.54926 0.59243 0.44370 -0.10600
Ni	Ni	0.54647 0.15114 0.91912 1.12000
O 	O 	0.54945 0.31039 0.56443 -0.38100
C 	C 	0.55034 0.16860 0.59640 -0.05800
C 	C 	0.55363 0.98919 0.35360 -0.05200
C 	C 	0.55266 0.99616 0.99018 -0.02600
H 	H 	0.55430 0.01027 0.01192 0.04500
C 	C 	0.56225 0.21713 0.62245 -0.00400
O 	O 	0.57142 0.37058 0.96207 -0.38300
H 	H 	0.57552 0.01119 0.28478 0.05100
O 	O 	0.58147 0.06488 0.88966 -0.39200
C 	C 	0.58150 0.58653 0.58573 0.01900
H 	H 	0.99217 0.94857 0.81055 0.03700
H 	H 	0.95201 0.07583 0.04140 0.03000
Ni	Ni	0.99089 0.86189 0.73119 1.11200
C 	C 	0.99302 0.66607 0.15758 -0.05800
C 	C 	0.99344 0.72883 0.18077 0.01300
H 	H 	0.95718 0.03849 0.09050 0.03800
C 	C 	0.80401 0.56362 0.91563 0.29600
C 	C 	0.59271 0.09248 0.97320 0.26400
C 	C 	0.92357 0.41491 0.94761 0.32900
C 	C 	0.67575 0.08597 0.88463 0.34300
C 	C 	0.59103 0.28922 0.86768 0.29800
Ni	Ni	0.70936 0.36975 0.96066 1.11200
Ni	Ni	0.78269 0.32780 0.90089 1.12000
O 	O 	0.77685 0.54336 0.94188 -0.35400
O 	O 	0.84858 0.50883 0.90348 -0.38800
O 	O 	0.63829 0.20441 0.98322 -0.35800
O 	O 	0.59393 0.07406 0.94712 -0.37700
O 	O 	0.69167 0.31608 0.86807 -0.37600
O 	O 	0.85781 0.39733 0.96735 -0.37200
O 	O 	0.89318 0.34168 0.92698 -0.37800
O 	O 	0.74797 0.15654 0.90062 -0.39900
O 	O 	0.67492 0.29927 0.92601 -0.70300
H 	H 	0.65343 0.35563 0.91876 0.14700
C 	C 	0.76929 0.19328 0.51135 0.31100
C 	C 	0.86102 0.51179 0.48140 0.33200
C 	C 	0.67718 0.56337 0.54785 0.31400
C 	C 	0.59727 0.25164 0.57326 0.27900
Ni	Ni	0.65385 0.28145 0.47714 1.11100
Ni	Ni	0.76496 0.40344 0.53419 1.12300
O 	O 	0.69810 0.15822 0.49211 -0.37200
O 	O 	0.82681 0.30883 0.51657 -0.38600
O 	O 	0.60923 0.51356 0.52832 -0.38400
O 	O 	0.62804 0.41911 0.46303 -0.37900
O 	O 	0.69376 0.28309 0.56504 -0.37400
O 	O 	0.81248 0.40345 0.47037 -0.36700
O 	O 	0.82913 0.53159 0.50475 -0.38500
O 	O 	0.73780 0.51956 0.55516 -0.38300
O 	O 	0.64197 0.31539 0.51359 -0.71200
H 	H 	0.61788 0.23417 0.52124 0.15300
C 	C 	0.79789 0.70780 0.70038 0.32200
C 	C 	0.83793 0.86002 0.77363 0.28100
C 	C 	0.86670 0.01832 0.66162 0.28400
C 	C 	0.91688 0.18776 0.73128 0.28400
Ni	Ni	0.80773 0.93021 0.71803 1.12600
O 	O 	0.80172 0.92787 0.67736 -0.36700
O 	O 	0.89279 0.72823 0.70454 -0.36900
O 	O 	0.75652 0.75067 0.71747 -0.38200
O 	O 	0.83764 0.10328 0.71791 -0.39200
O 	O 	0.87487 0.79501 0.76167 -0.36000
O 	O 	0.79565 0.91365 0.75923 -0.36200
O 	O 	0.94481 0.11627 0.67195 -0.38100
O 	O 	0.95181 0.97720 0.72096 -0.68300
H 	H 	0.96494 0.01878 0.73842 0.11600
C 	C 	0.93494 0.19252 0.26255 0.31100
C 	C 	0.87921 0.02796 0.19828 0.27900
Ni	Ni	0.99419 0.01238 0.24639 1.10700
O 	O 	0.96311 0.25376 0.23899 -0.36600
O 	O 	0.97521 0.12590 0.27101 -0.40000
O 	O 	0.95695 0.12620 0.18786 -0.38100
O 	O 	0.87379 0.00368 0.22444 -0.38700
O 	O 	0.99792 0.89208 0.22106 -0.37500
C 	C 	0.64637 0.87146 0.14422 0.03000
C 	C 	0.67955 0.86318 0.11805 -0.05500
C 	C 	0.60826 0.81840 0.09699 0.01800
C 	C 	0.78952 0.96317 0.18187 -0.04700
C 	C 	0.72076 0.91796 0.16564 0.03000
H 	H 	0.76034 0.88952 0.11411 0.05700
H 	H 	0.63370 0.80708 0.07710 0.03900
H 	H 	0.92233 0.69766 0.19251 0.04400
H 	H 	0.92213 0.58596 0.15175 0.04900
C 	C 	0.69482 0.12895 0.31244 0.02000
C 	C 	0.71892 0.16026 0.33967 -0.05300
C 	C 	0.64897 0.09010 0.36021 -0.02200
C 	C 	0.85022 0.18651 0.27807 -0.10000
C 	C 	0.59546 0.03531 0.30579 -0.09500
C 	C 	0.77848 0.16650 0.29300 0.03600
H 	H 	0.79489 0.23357 0.34502 0.04600
H 	H 	0.66990 0.11251 0.38123 0.03000
C 	C 	0.94782 0.60085 0.46993 -0.11100
C 	C 	0.98275 0.59099 0.44235 -0.13000
H 	H 	0.99263 0.68468 0.48087 0.08400
H 	H 	0.92727 0.56114 0.42589 0.08600
H 	H 	0.63305 0.64815 0.44118 0.08600
C 	C 	0.78993 0.02435 0.57819 -0.01800
C 	C 	0.71117 0.97834 0.59812 -0.02400
C 	C 	0.73598 0.97552 0.62537 0.03500
C 	C 	0.76353 0.11007 0.53192 -0.11600
C 	C 	0.91838 0.06286 0.61289 0.00900
C 	C 	0.89316 0.06341 0.58563 -0.05200
C 	C 	0.77056 0.06142 0.55222 0.05200
C 	C 	0.84007 0.01964 0.63292 -0.10100
H 	H 	0.63139 0.94944 0.59268 0.05300
H 	H 	0.67466 0.94137 0.64064 0.03900
H 	H 	0.99865 0.09529 0.61840 0.03200
H 	H 	0.95471 0.09991 0.57041 0.04300
H 	H 	0.62762 0.30544 0.62667 0.04200
C 	C 	0.70271 0.67768 0.62244 0.01600
C 	C 	0.60119 0.60095 0.61359 -0.05400
C 	C 	0.75872 0.68378 0.67333 -0.10500
C 	C 	0.75718 0.74125 0.57604 0.02100
C 	C 	0.77951 0.75254 0.60366 -0.04900
C 	C 	0.73002 0.67618 0.65028 0.05400
C 	C 	0.66515 0.64177 0.56719 -0.08600
H 	H 	0.81905 0.79389 0.56156 0.04000
H 	H 	0.85782 0.81381 0.61027 0.05900
C 	C 	0.79480 0.14249 0.80889 0.00500
C 	C 	0.89468 0.15718 0.80561 -0.04900
C 	C 	0.94584 0.19426 0.78054 -0.00200
C 	C 	0.70609 0.08652 0.85714 -0.13300
C 	C 	0.80443 0.21945 0.76338 0.01000
C 	C 	0.75236 0.18021 0.78827 -0.05100
C 	C 	0.74302 0.10574 0.83469 0.05300
C 	C 	0.89646 0.21514 0.75863 -0.08400
H 	H 	0.93156 0.13712 0.82224 0.04000
H 	H 	0.76799 0.24125 0.74693 0.03600
H 	H 	0.67830 0.17714 0.79132 0.04800
C 	C 	0.80663 0.79643 0.85920 0.02000
C 	C 	0.90521 0.87104 0.84751 -0.04900
C 	C 	0.91531 0.89765 0.81967 0.00700
C 	C 	0.79800 0.65705 0.90043 -0.08800
C 	C 	0.72761 0.79200 0.81573 0.01600
C 	C 	0.71764 0.76310 0.84353 -0.05000
C 	C 	0.79905 0.72562 0.88312 0.04500
C 	C 	0.82665 0.85383 0.80346 -0.07000
H 	H 	0.97455 0.89947 0.85948 0.05400
H 	H 	0.65848 0.75994 0.80352 0.04200
H 	H 	0.64091 0.70689 0.85234 0.05400
