data_crystal

_cell_length_a 48.68660
_cell_length_b 47.14316
_cell_length_c 31.28271
_cell_angle_alpha 89.96224
_cell_angle_beta  89.95643
_cell_angle_gamma 90.40826

_symmetry_space_group_name_	'P 1'
_symmetry_space_group_name_H-M	'P 1'

loop_
_symmetry_equiv_pos_as_xyz
  x,y,z

loop_
_atom_site_label
_atom_site_type_symbol
_atom_site_fract_x
_atom_site_fract_y
_atom_site_fract_z
_atom_site_charge
Zn	Zn	0.49903 0.49439 0.02047 1.22200
C 	C 	0.51052 0.55421 0.01161 0.34100
O 	O 	0.52878 0.48080 0.05759 -0.46700
O 	O 	0.49615 0.55717 0.04692 -0.45000
O 	O 	0.53859 0.52268 0.08987 -0.49300
C 	C 	0.44925 0.51187 0.06059 0.34900
O 	O 	0.46223 0.50993 0.02405 -0.45200
O 	O 	0.46312 0.51301 0.09647 -0.50500
C 	C 	0.54668 0.49831 0.07457 0.34000
O 	O 	0.47784 0.44956 0.02551 -0.32300
Zn	Zn	0.49974 0.53016 0.09841 1.17100
O 	O 	0.51696 0.52880 0.99744 -0.43400
C 	C 	0.48682 0.44547 0.98703 0.29600
O 	O 	0.50084 0.46628 0.97064 -0.37600
Zn	Zn	0.42049 0.08738 0.99472 1.22200
C 	C 	0.36768 0.05853 0.99839 0.33800
O 	O 	0.43955 0.07944 0.04921 -0.44200
O 	O 	0.37997 0.03589 0.98364 -0.45100
O 	O 	0.41325 0.04057 0.06295 -0.48600
C 	C 	0.43294 0.04859 0.92700 0.30000
O 	O 	0.41878 0.07121 0.93717 -0.43900
O 	O 	0.43971 0.03012 0.95645 -0.50000
C 	C 	0.43105 0.05969 0.07592 0.28600
O 	O 	0.45957 0.11322 0.97077 -0.31700
Zn	Zn	0.41752 0.02371 0.00701 1.17300
O 	O 	0.38220 0.08018 0.01249 -0.43000
C 	C 	0.44444 0.13534 0.97718 0.29900
O 	O 	0.41993 0.13043 0.99131 -0.38000
C 	C 	0.51372 0.99600 0.27412 0.15000
C 	C 	0.49680 0.01466 0.25134 -0.12500
H 	H 	0.48359 0.02915 0.26848 0.08600
C 	C 	0.49694 0.01446 0.20654 0.13200
C 	C 	0.51398 0.99556 0.18459 -0.08800
C 	C 	0.53091 0.97688 0.20718 0.03200
C 	C 	0.53076 0.97711 0.25201 -0.09600
H 	H 	0.54387 0.96279 0.26968 0.07300
N 	N 	0.51367 0.99633 0.32007 -0.18200
C 	C 	0.49367 0.98165 0.34188 0.19900
C 	C 	0.49326 0.98178 0.38690 -0.07900
C 	C 	0.51400 0.99638 0.40926 0.06200
C 	C 	0.53364 0.01226 0.38643 -0.07800
C 	C 	0.53334 0.01172 0.34142 0.19900
C 	C 	0.47187 0.96855 0.40966 0.01200
C 	C 	0.47167 0.96891 0.45425 -0.05700
C 	C 	0.49413 0.98046 0.47723 0.01700
C 	C 	0.51462 0.99576 0.45455 -0.02700
C 	C 	0.53498 0.01147 0.47679 0.01700
C 	C 	0.55250 0.02935 0.40872 0.01200
C 	C 	0.55240 0.02992 0.45331 -0.05500
C 	C 	0.49584 0.97828 0.52252 0.01700
C 	C 	0.51615 0.99403 0.54479 -0.02700
C 	C 	0.53657 0.00945 0.52213 0.01800
O 	O 	0.55208 0.02602 0.31968 -0.18900
O 	O 	0.47484 0.96722 0.32060 -0.20300
H 	H 	0.56667 0.04307 0.39158 0.05000
H 	H 	0.56481 0.04581 0.46915 0.05000
H 	H 	0.45479 0.95879 0.39289 0.04400
H 	H 	0.45338 0.96158 0.47052 0.04700
C 	C 	0.55885 0.02130 0.54521 -0.05500
C 	C 	0.55850 0.02181 0.58980 0.01300
C 	C 	0.53724 0.00831 0.61248 -0.07700
C 	C 	0.51678 0.99334 0.59008 0.06300
C 	C 	0.47863 0.95956 0.54589 -0.05700
C 	C 	0.47871 0.95982 0.59048 0.01200
C 	C 	0.49744 0.97702 0.61285 -0.07900
C 	C 	0.53673 0.00853 0.65749 0.19900
N 	N 	0.51713 0.99324 0.67927 -0.18100
C 	C 	0.49788 0.97731 0.65787 0.19900
C 	C 	0.51696 0.99368 0.72525 0.15000
C 	C 	0.53645 0.97803 0.74825 -0.09600
C 	C 	0.53631 0.97852 0.79303 0.03400
C 	C 	0.51657 0.99447 0.81478 -0.09100
C 	C 	0.49702 0.01002 0.79199 0.13500
C 	C 	0.49726 0.00971 0.74720 -0.12100
O 	O 	0.55498 0.02371 0.67879 -0.18800
O 	O 	0.47972 0.96219 0.67956 -0.20200
H 	H 	0.55169 0.96572 0.73129 0.07300
H 	H 	0.48214 0.02168 0.72944 0.08900
H 	H 	0.57714 0.02875 0.52907 0.05000
H 	H 	0.57541 0.03183 0.60663 0.04900
H 	H 	0.46625 0.94371 0.52990 0.04700
H 	H 	0.46474 0.94586 0.60754 0.04500
H 	H 	0.51641 0.99477 0.84946 0.07000
H 	H 	0.51409 0.99543 0.14991 0.06500
Zn	Zn	0.61293 0.90462 0.99945 1.22200
C 	C 	0.66385 0.93683 0.00383 0.34300
O 	O 	0.59256 0.91152 0.05315 -0.46500
O 	O 	0.65050 0.95878 0.98894 -0.42300
O 	O 	0.61623 0.95207 0.06715 -0.46600
C 	C 	0.59907 0.94212 0.93072 0.40700
O 	O 	0.61446 0.92055 0.94170 -0.45400
O 	O 	0.59080 0.96029 0.95963 -0.50500
C 	C 	0.59945 0.93190 0.07984 0.38200
O 	O 	0.57610 0.87582 0.97455 -0.32500
Zn	Zn	0.61182 0.96836 0.01084 1.18200
O 	O 	0.65037 0.91458 0.01834 -0.42400
C 	C 	0.59267 0.85494 0.98181 0.29900
O 	O 	0.61653 0.86176 0.99680 -0.37800
Zn	Zn	0.09623 0.59302 0.99550 1.22200
C 	C 	0.06071 0.64031 0.97672 0.34000
O 	O 	0.08699 0.57860 0.05315 -0.44200
O 	O 	0.04165 0.62219 0.96467 -0.44700
O 	O 	0.04495 0.59883 0.05300 -0.48500
C 	C 	0.06693 0.56630 0.92701 0.30000
O 	O 	0.08574 0.58541 0.93618 -0.43800
O 	O 	0.04908 0.55830 0.95608 -0.50200
C 	C 	0.06451 0.58573 0.07365 0.28600
O 	O 	0.12840 0.55593 0.98834 -0.32000
Zn	Zn	0.03440 0.58491 0.99731 1.17200
O 	O 	0.08177 0.63183 0.99957 -0.43300
C 	C 	0.14675 0.57568 0.99369 0.29600
O 	O 	0.13731 0.60097 0.99945 -0.37900
C 	C 	0.00137 0.49432 0.72157 0.14900
C 	C 	0.02102 0.51007 0.74448 -0.11300
H 	H 	0.03632 0.52251 0.72746 0.09500
C 	C 	0.02075 0.50978 0.78928 0.13100
C 	C 	0.00069 0.49396 0.81108 -0.09700
C 	C 	0.98089 0.47844 0.78835 0.03300
C 	C 	0.98133 0.47848 0.74358 -0.09500
H 	H 	0.96608 0.46646 0.72585 0.07400
N 	N 	0.00152 0.49471 0.67560 -0.18100
C 	C 	0.02040 0.47877 0.65385 0.19900
C 	C 	0.02053 0.47847 0.60882 -0.07800
C 	C 	0.00137 0.49493 0.58640 0.06300
C 	C 	0.98148 0.51019 0.60919 -0.07700
C 	C 	0.98232 0.51042 0.65417 0.20100
C 	C 	0.03866 0.46103 0.58613 0.01200
C 	C 	0.03827 0.46056 0.54155 -0.05600
C 	C 	0.02124 0.47932 0.51845 0.01700
C 	C 	0.00155 0.49541 0.54110 -0.02700
C 	C 	0.98125 0.51092 0.51883 0.01800
C 	C 	0.96036 0.52389 0.58694 0.01300
C 	C 	0.95952 0.52315 0.54239 -0.05500
C 	C 	0.02248 0.48122 0.47309 0.01700
C 	C 	0.00210 0.49658 0.45081 -0.02700
C 	C 	0.98237 0.51264 0.47343 0.01800
O 	O 	0.96466 0.52589 0.67581 -0.18700
O 	O 	0.03841 0.46356 0.67520 -0.20000
H 	H 	0.94388 0.53418 0.60411 0.04900
H 	H 	0.94124 0.53072 0.52669 0.04900
H 	H 	0.05249 0.44701 0.60296 0.04600
H 	H 	0.05011 0.44450 0.52542 0.04900
C 	C 	0.96511 0.53113 0.45021 -0.05600
C 	C 	0.96448 0.53028 0.40565 0.01200
C 	C 	0.98271 0.51292 0.38305 -0.07800
C 	C 	0.00223 0.49694 0.40550 0.06200
C 	C 	0.04440 0.46929 0.44962 -0.05600
C 	C 	0.04370 0.46868 0.40505 0.01200
C 	C 	0.02240 0.48204 0.38274 -0.07700
C 	C 	0.98263 0.51229 0.33804 0.19900
N 	N 	0.00195 0.49692 0.31632 -0.18100
C 	C 	0.02163 0.48187 0.33774 0.19900
C 	C 	0.00226 0.49753 0.27039 0.15000
C 	C 	0.98528 0.47897 0.24707 -0.09500
C 	C 	0.98537 0.47986 0.20227 0.03300
C 	C 	0.00251 0.49923 0.18091 -0.09100
C 	C 	0.01928 0.51793 0.20408 0.13400
C 	C 	0.01916 0.51708 0.24883 -0.12200
O 	O 	0.96397 0.52664 0.31666 -0.19900
O 	O 	0.03993 0.46720 0.31609 -0.18800
H 	H 	0.97195 0.46415 0.26378 0.07400
H 	H 	0.03199 0.53163 0.26689 0.08700
H 	H 	0.95328 0.54725 0.46619 0.04900
H 	H 	0.95044 0.54404 0.38876 0.04600
H 	H 	0.06271 0.46187 0.46543 0.04900
H 	H 	0.06036 0.45865 0.38792 0.04900
H 	H 	0.00232 0.50020 0.14626 0.06300
H 	H 	0.00019 0.49413 0.84576 0.05900
Zn	Zn	0.89874 0.40897 0.99723 1.22300
C 	C 	0.85219 0.44598 0.00874 0.34400
O 	O 	0.91488 0.41649 0.94044 -0.46600
O 	O 	0.86917 0.46614 0.02096 -0.42300
O 	O 	0.89602 0.46013 0.93526 -0.46700
C 	C 	0.92256 0.44099 0.06585 0.40700
O 	O 	0.90411 0.42156 0.05630 -0.44700
O 	O 	0.93077 0.45930 0.03688 -0.51800
C 	C 	0.90928 0.43909 0.91756 0.38100
O 	O 	0.93420 0.37596 0.00970 -0.32100
Zn	Zn	0.90670 0.47255 0.99179 1.17700
O 	O 	0.86137 0.42357 0.98844 -0.42700
C 	C 	0.91528 0.35688 0.00371 0.30200
O 	O 	0.89106 0.36652 0.99544 -0.37600
Zn	Zn	0.01149 0.00478 0.03090 1.22100
C 	C 	0.02264 0.94559 0.01708 0.33900
O 	O 	0.97942 0.00436 0.06903 -0.46900
O 	O 	0.03752 0.94728 0.05207 -0.44900
O 	O 	0.98589 0.96071 0.09751 -0.49300
C 	C 	0.06416 0.00721 0.07017 0.35000
O 	O 	0.05126 0.00465 0.03367 -0.45400
O 	O 	0.05219 0.99915 0.10576 -0.50500
C 	C 	0.96934 0.98054 0.08405 0.34100
O 	O 	0.01489 0.05419 0.03964 -0.32500
Zn	Zn	0.02474 0.96871 0.10589 1.17100
O 	O 	0.00716 0.96695 0.00505 -0.43200
C 	C 	0.00486 0.05574 0.00138 0.30000
O 	O 	0.99921 0.03168 0.98330 -0.37800
C 	C 	0.93461 0.27444 0.97909 -0.00400
C 	C 	0.92764 0.25321 0.00857 -0.02700
C 	C 	0.93486 0.22506 0.00069 -0.03900
C 	C 	0.94908 0.21794 0.96317 0.01000
C 	C 	0.95565 0.23918 0.93332 -0.04000
C 	C 	0.94843 0.26736 0.94128 -0.02800
C 	C 	0.95872 0.18865 0.95671 0.01100
C 	C 	0.93982 0.16603 0.95610 -0.04100
C 	C 	0.94910 0.13806 0.95816 -0.02800
C 	C 	0.97731 0.13257 0.96076 -0.00300
C 	C 	0.99622 0.15503 0.95786 -0.02800
C 	C 	0.98698 0.18300 0.95592 -0.04000
C 	C 	0.98655 0.10499 0.97392 0.04800
C 	C 	0.99476 0.08207 0.98496 -0.09100
C 	C 	0.92784 0.30353 0.98790 0.05000
C 	C 	0.92213 0.32787 0.99536 -0.09000
H 	H 	0.91688 0.25854 0.03778 0.04600
H 	H 	0.92986 0.20886 0.02408 0.04600
H 	H 	0.96659 0.23390 0.90425 0.04500
H 	H 	0.95378 0.28367 0.91826 0.04500
H 	H 	0.91795 0.17016 0.95590 0.04600
H 	H 	0.93434 0.12078 0.95995 0.04500
H 	H 	0.01808 0.15094 0.95946 0.04400
H 	H 	0.00175 0.20030 0.95594 0.04400
C 	C 	0.95924 0.46301 0.81181 0.08700
C 	C 	0.96608 0.43906 0.83603 -0.11900
C 	C 	0.94837 0.42936 0.86810 0.08800
C 	C 	0.92370 0.44370 0.87643 -0.23400
C 	C 	0.91536 0.46544 0.84852 0.40600
C 	C 	0.93321 0.47516 0.81652 -0.21200
H 	H 	0.95470 0.41189 0.88823 0.02300
H 	H 	0.92744 0.49318 0.79704 0.12300
H 	H 	0.98591 0.42912 0.83189 0.06500
F 	F 	0.89047 0.47784 0.85339 -0.45500
C 	C 	0.96629 0.46196 0.17740 0.09100
C 	C 	0.97680 0.44131 0.14970 -0.11900
C 	C 	0.96096 0.43149 0.11543 0.09900
C 	C 	0.93451 0.44220 0.10878 -0.23500
C 	C 	0.92274 0.45992 0.13974 0.41300
C 	C 	0.93862 0.46976 0.17401 -0.21300
H 	H 	0.97003 0.41732 0.09219 0.01600
H 	H 	0.93010 0.48519 0.19589 0.11900
H 	H 	0.99796 0.43461 0.15266 0.07400
F 	F 	0.89676 0.46960 0.13453 -0.46200
C 	C 	0.02406 0.86981 0.95471 -0.01000
C 	C 	0.04760 0.86163 0.93217 -0.02800
C 	C 	0.05207 0.83298 0.92316 -0.04300
C 	C 	0.03301 0.81237 0.93676 0.01100
C 	C 	0.00819 0.82095 0.95543 -0.04300
C 	C 	0.00372 0.84960 0.96428 -0.02800
C 	C 	0.04074 0.78216 0.93756 0.01000
C 	C 	0.02409 0.76176 0.91740 -0.04200
C 	C 	0.02927 0.73287 0.92329 -0.02800
C 	C 	0.05114 0.72423 0.94925 -0.00900
C 	C 	0.06844 0.74457 0.96795 -0.02800
C 	C 	0.06327 0.77343 0.96218 -0.04200
C 	C 	0.05473 0.69464 0.95891 0.05700
C 	C 	0.05767 0.66984 0.96694 -0.11100
C 	C 	0.02344 0.89703 0.97544 0.05500
C 	C 	0.02265 0.91974 0.99302 -0.11400
H 	H 	0.06324 0.87720 0.92404 0.04200
H 	H 	0.07101 0.82664 0.90781 0.04400
H 	H 	0.99314 0.80527 0.96548 0.04300
H 	H 	0.98527 0.85582 0.98113 0.04100
H 	H 	0.00676 0.76826 0.89813 0.04400
H 	H 	0.01591 0.71723 0.90850 0.04300
H 	H 	0.08546 0.73804 0.98789 0.04300
H 	H 	0.07619 0.78900 0.97802 0.04300
C 	C 	0.06414 0.55553 0.88335 -0.01500
C 	C 	0.07166 0.52752 0.87441 -0.04400
C 	C 	0.06003 0.51330 0.83957 0.02100
C 	C 	0.04059 0.52697 0.81380 -0.13400
C 	C 	0.03599 0.55611 0.81937 0.34900
C 	C 	0.04783 0.57037 0.85406 -0.14400
H 	H 	0.06429 0.49100 0.83484 0.03100
H 	H 	0.04243 0.59225 0.86021 0.10000
H 	H 	0.08476 0.51607 0.89634 0.05000
F 	F 	0.01802 0.56991 0.79367 -0.44900
C 	C 	0.05840 0.57289 0.11576 -0.02100
C 	C 	0.03617 0.58282 0.14007 -0.05200
C 	C 	0.02495 0.56594 0.17253 0.02000
C 	C 	0.03599 0.53916 0.18115 -0.13700
C 	C 	0.06030 0.53087 0.16067 0.35000
C 	C 	0.07155 0.54774 0.12821 -0.14800
H 	H 	0.00656 0.57282 0.18894 0.02900
H 	H 	0.08937 0.54030 0.11089 0.11000
H 	H 	0.02654 0.60279 0.13211 0.05000
F 	F 	0.07185 0.50549 0.17005 -0.44900
C 	C 	0.88760 0.96373 0.06954 -0.01100
C 	C 	0.87946 0.94181 0.04198 -0.02600
C 	C 	0.85160 0.93719 0.03347 -0.04300
C 	C 	0.83171 0.95449 0.05250 0.01200
C 	C 	0.83987 0.97606 0.08080 -0.04200
C 	C 	0.86774 0.98066 0.08926 -0.02600
C 	C 	0.80243 0.95057 0.04189 0.01200
C 	C 	0.78877 0.92529 0.05292 -0.04000
C 	C 	0.76083 0.92188 0.04368 -0.02500
C 	C 	0.74643 0.94370 0.02337 -0.00500
C 	C 	0.76013 0.96878 0.01177 -0.02400
C 	C 	0.78804 0.97222 0.02097 -0.04000
C 	C 	0.71732 0.94095 0.01627 0.06200
C 	C 	0.69296 0.93885 0.01018 -0.09700
C 	C 	0.91634 0.96989 0.07554 0.05900
C 	C 	0.94050 0.97473 0.08018 -0.11800
H 	H 	0.89472 0.92865 0.02661 0.04300
H 	H 	0.84550 0.92049 0.01160 0.04600
H 	H 	0.82464 0.98939 0.09588 0.04700
H 	H 	0.87389 0.99764 0.11063 0.04200
H 	H 	0.79970 0.90845 0.06903 0.04600
H 	H 	0.75035 0.90243 0.05277 0.04800
H 	H 	0.74911 0.98573 0.99604 0.04700
H 	H 	0.79847 0.99172 0.01201 0.04700
C 	C 	0.55736 0.96328 0.81754 0.09100
C 	C 	0.55020 0.93826 0.83930 -0.11900
C 	C 	0.56611 0.92901 0.87374 0.09700
C 	C 	0.58912 0.94485 0.88673 -0.23300
C 	C 	0.59815 0.96777 0.86159 0.41800
C 	C 	0.58232 0.97690 0.82699 -0.21000
H 	H 	0.55927 0.91094 0.89245 0.01700
H 	H 	0.58833 0.99587 0.80968 0.12800
H 	H 	0.53122 0.92725 0.83167 0.06400
F 	F 	0.62103 0.98259 0.87281 -0.46000
C 	C 	0.54969 0.95812 0.18354 0.08800
C 	C 	0.53904 0.93885 0.15355 -0.12000
C 	C 	0.55607 0.92766 0.12185 0.08700
C 	C 	0.58391 0.93563 0.11999 -0.23200
C 	C 	0.59523 0.95176 0.15358 0.41100
C 	C 	0.57810 0.96315 0.18502 -0.20900
H 	H 	0.54718 0.91447 0.09704 0.01800
H 	H 	0.58666 0.97729 0.20892 0.12400
H 	H 	0.51723 0.93413 0.15297 0.06000
F 	F 	0.62256 0.95761 0.15446 -0.45000
C 	C 	0.28517 0.05412 0.01976 -0.01000
C 	C 	0.27185 0.07450 0.04479 -0.02700
C 	C 	0.24403 0.07111 0.05496 -0.04300
C 	C 	0.22944 0.04729 0.04020 0.01100
C 	C 	0.24268 0.02723 0.01442 -0.04400
C 	C 	0.27046 0.03065 0.00426 -0.02600
C 	C 	0.20042 0.04309 0.05209 0.01100
C 	C 	0.18021 0.06102 0.03540 -0.04300
C 	C 	0.15242 0.05511 0.04276 -0.02600
C 	C 	0.14470 0.03128 0.06686 -0.01200
C 	C 	0.16490 0.01407 0.08512 -0.02700
C 	C 	0.19268 0.01995 0.07778 -0.04400
C 	C 	0.11628 0.02280 0.06890 0.05900
C 	C 	0.09243 0.01588 0.07042 -0.12000
C 	C 	0.31426 0.05631 0.01220 0.05600
C 	C 	0.33860 0.05774 0.00551 -0.11200
H 	H 	0.28311 0.09270 0.05690 0.04400
H 	H 	0.23393 0.08676 0.07474 0.04500
H 	H 	0.23150 0.00891 0.00257 0.04400
H 	H 	0.28063 0.01484 0.98486 0.03800
H 	H 	0.18599 0.07901 0.01570 0.04500
H 	H 	0.13690 0.06855 0.02862 0.04400
H 	H 	0.15908 0.99566 0.10391 0.03800
H 	H 	0.20817 0.00614 0.09113 0.04200
C 	C 	0.44329 0.04494 0.88338 -0.01400
C 	C 	0.43485 0.02123 0.85960 -0.04500
C 	C 	0.45091 0.01161 0.82559 0.02100
C 	C 	0.47563 0.02551 0.81545 -0.13400
C 	C 	0.48224 0.05122 0.83578 0.35200
C 	C 	0.46601 0.06095 0.86961 -0.14100
H 	H 	0.44533 0.99207 0.80947 0.03000
H 	H 	0.47236 0.07966 0.88724 0.10900
H 	H 	0.41698 0.00904 0.86946 0.04000
F 	F 	0.50561 0.06545 0.82520 -0.44400
C 	C 	0.44553 0.05536 0.11687 -0.02000
C 	C 	0.43379 0.03781 0.14841 -0.05100
C 	C 	0.45017 0.02655 0.18085 0.01900
C 	C 	0.47832 0.03298 0.18226 -0.13500
C 	C 	0.48921 0.05347 0.15422 0.34900
C 	C 	0.47286 0.06462 0.12162 -0.14800
H 	H 	0.44140 0.01135 0.20307 0.02900
H 	H 	0.48196 0.07899 0.09849 0.11000
H 	H 	0.41240 0.03149 0.14628 0.05100
F 	F 	0.51612 0.06102 0.15672 -0.44900
C 	C 	0.47026 0.21628 0.95258 0.00000
C 	C 	0.46465 0.22873 0.91286 -0.02800
C 	C 	0.47031 0.25753 0.90611 -0.03900
C 	C 	0.48154 0.27407 0.93916 0.01200
C 	C 	0.48806 0.26128 0.97839 -0.04000
C 	C 	0.48248 0.23248 0.98502 -0.02900
C 	C 	0.48419 0.30514 0.93418 0.01100
C 	C 	0.46069 0.32163 0.92732 -0.04000
C 	C 	0.46217 0.35116 0.93102 -0.02900
C 	C 	0.48710 0.36437 0.94178 -0.00200
C 	C 	0.51100 0.34813 0.94529 -0.02900
C 	C 	0.50958 0.31860 0.94142 -0.04000
C 	C 	0.48718 0.39330 0.95658 0.04700
C 	C 	0.48727 0.41751 0.96898 -0.08800
C 	C 	0.46145 0.18760 0.96118 0.05000
C 	C 	0.45405 0.16359 0.96831 -0.08500
H 	H 	0.45531 0.21629 0.88756 0.04800
H 	H 	0.46539 0.26712 0.87560 0.04600
H 	H 	0.49665 0.27385 0.00417 0.04700
H 	H 	0.48694 0.22299 0.01578 0.04900
H 	H 	0.44103 0.31149 0.92130 0.04500
H 	H 	0.44365 0.36359 0.92785 0.04400
H 	H 	0.53041 0.35822 0.95320 0.04500
H 	H 	0.52794 0.30612 0.94598 0.04600
C 	C 	0.36652 0.52506 0.05803 -0.01200
C 	C 	0.35580 0.55110 0.07143 -0.02600
C 	C 	0.32793 0.55696 0.06554 -0.04400
C 	C 	0.31063 0.53680 0.04617 0.01300
C 	C 	0.32124 0.51040 0.03396 -0.04300
C 	C 	0.34911 0.50457 0.03987 -0.02500
C 	C 	0.28174 0.54378 0.03696 0.00800
C 	C 	0.27549 0.56576 0.00834 -0.03500
C 	C 	0.24812 0.57219 0.99921 -0.03500
C 	C 	0.22683 0.55669 0.01859 0.00200
C 	C 	0.23301 0.53474 0.04718 -0.03100
C 	C 	0.26038 0.52828 0.05634 -0.03800
C 	C 	0.19862 0.56348 0.00949 0.04600
C 	C 	0.17497 0.56905 0.00202 -0.08500
C 	C 	0.39570 0.52029 0.05958 0.05900
C 	C 	0.42011 0.51623 0.06082 -0.11900
H 	H 	0.36913 0.56703 0.08555 0.03800
H 	H 	0.31988 0.57730 0.07541 0.04400
H 	H 	0.30804 0.49468 0.01905 0.04600
H 	H 	0.35726 0.48440 0.02944 0.04400
H 	H 	0.29183 0.57774 0.99304 0.04200
H 	H 	0.24349 0.58919 0.97710 0.04500
H 	H 	0.21664 0.52270 0.06234 0.04800
H 	H 	0.26499 0.51132 0.07853 0.04500
C 	C 	0.77013 0.45502 0.03132 -0.00400
C 	C 	0.76138 0.46940 0.06804 -0.02700
C 	C 	0.73337 0.47388 0.07509 -0.04000
C 	C 	0.71393 0.46398 0.04542 0.01100
C 	C 	0.72271 0.44915 0.00904 -0.03900
C 	C 	0.75073 0.44471 0.00202 -0.02500
C 	C 	0.68449 0.47008 0.05159 0.01200
C 	C 	0.67035 0.45895 0.08703 -0.04200
C 	C 	0.64243 0.46474 0.09274 -0.02700
C 	C 	0.62852 0.48169 0.06308 -0.01000
C 	C 	0.64265 0.49290 0.02780 -0.02700
C 	C 	0.67054 0.48714 0.02206 -0.04100
C 	C 	0.59963 0.48720 0.06832 0.05800
C 	C 	0.57547 0.49218 0.07184 -0.11700
C 	C 	0.79904 0.45163 0.02310 0.06100
C 	C 	0.82329 0.44888 0.01648 -0.09600
H 	H 	0.77627 0.47740 0.09086 0.05000
H 	H 	0.72680 0.48538 0.10323 0.04600
H 	H 	0.70785 0.44129 0.98607 0.04500
H 	H 	0.75734 0.43350 0.97363 0.04700
H 	H 	0.68093 0.44573 0.10998 0.04600
H 	H 	0.63162 0.45597 0.12007 0.04100
H 	H 	0.63202 0.50602 0.00475 0.04400
H 	H 	0.68131 0.49597 0.99475 0.04400
C 	C 	0.53548 0.62790 0.95506 -0.01000
C 	C 	0.51579 0.64913 0.94938 -0.02800
C 	C 	0.52407 0.67730 0.94332 -0.04300
C 	C 	0.55212 0.68438 0.94271 0.01100
C 	C 	0.57174 0.66271 0.94413 -0.04300
C 	C 	0.56342 0.63454 0.95037 -0.02800
C 	C 	0.56081 0.71431 0.94708 0.01000
C 	C 	0.55315 0.73445 0.91628 -0.04100
C 	C 	0.55945 0.76318 0.92245 -0.03000
C 	C 	0.57344 0.77190 0.95939 -0.00200
C 	C 	0.58144 0.75179 0.98981 -0.03100
C 	C 	0.57513 0.72312 0.98374 -0.04200
C 	C 	0.57969 0.80147 0.96621 0.04700
C 	C 	0.58526 0.82602 0.97297 -0.09000
C 	C 	0.52739 0.60121 0.97380 0.05500
C 	C 	0.51994 0.57910 0.98950 -0.11400
H 	H 	0.49412 0.64410 0.95237 0.04100
H 	H 	0.50873 0.69380 0.94165 0.04300
H 	H 	0.59344 0.66787 0.94273 0.04400
H 	H 	0.57877 0.61819 0.95412 0.04200
H 	H 	0.54209 0.72789 0.88788 0.04400
H 	H 	0.55332 0.77862 0.89868 0.04400
H 	H 	0.59233 0.75838 0.01836 0.04600
H 	H 	0.58090 0.70781 0.00791 0.04400
