data_crystal

_cell_length_a 25.48799
_cell_length_b 25.77862
_cell_length_c 40.16660
_cell_angle_alpha 95.51019
_cell_angle_beta  95.50769
_cell_angle_gamma 125.68283

_symmetry_space_group_name_	'P 1'
_symmetry_space_group_name_H-M	'P 1'

loop_
_symmetry_equiv_pos_as_xyz
  x,y,z

loop_
_atom_site_label
_atom_site_type_symbol
_atom_site_fract_x
_atom_site_fract_y
_atom_site_fract_z
_atom_site_charge
C 	C 	0.96558 0.03545 0.01782 0.11500
C 	C 	0.04442 0.02218 0.00235 0.12400
N 	N 	0.02815 0.06155 0.01357 -0.13400
C 	C 	0.93954 0.99795 0.44348 0.12800
N 	N 	0.00634 0.03924 0.44940 -0.13900
C 	C 	0.04205 0.01643 0.45559 0.11900
Cu	Cu	0.62109 0.23049 0.00215 0.92800
Cu	Cu	0.68457 0.23458 0.93435 0.87000
Cu	Cu	0.66824 0.33596 0.95903 0.89800
Cu	Cu	0.62119 0.35136 0.02236 0.89500
C 	C 	0.63254 0.27840 0.07205 0.30400
O 	O 	0.52455 0.19264 0.99672 -0.36200
C 	C 	0.65550 0.29221 0.88571 0.28800
O 	O 	0.67606 0.33204 0.00642 -0.64100
O 	O 	0.62121 0.23998 0.95396 -0.64200
O 	O 	0.66092 0.18332 0.00318 -0.37100
O 	O 	0.74097 0.25129 0.97500 -0.43900
O 	O 	0.60391 0.30470 0.06154 -0.38500
O 	O 	0.71832 0.42959 0.96737 -0.38100
C 	C 	0.70915 0.46431 0.98906 0.29100
C 	C 	0.50180 0.22158 0.98275 0.28300
O 	O 	0.54261 0.28258 0.97986 -0.39000
O 	O 	0.66265 0.43696 0.00761 -0.39300
O 	O 	0.63489 0.23790 0.05063 -0.36000
C 	C 	0.71956 0.20968 0.99580 0.28700
O 	O 	0.67609 0.34097 0.91080 -0.38700
O 	O 	0.64987 0.23987 0.89163 -0.41900
H 	H 	0.72186 0.35924 0.01927 0.16400
H 	H 	0.57722 0.21418 0.93912 0.17300
Cu	Cu	0.74823 0.34989 0.45958 0.92700
Cu	Cu	0.75058 0.29211 0.52865 0.87100
Cu	Cu	0.64585 0.30651 0.50540 0.89700
Cu	Cu	0.62584 0.35111 0.44202 0.89300
C 	C 	0.69393 0.33510 0.39011 0.28600
O 	O 	0.78773 0.44567 0.46373 -0.36100
C 	C 	0.69435 0.32077 0.57835 0.30700
O 	O 	0.64629 0.29725 0.45766 -0.64100
O 	O 	0.74272 0.35293 0.50845 -0.64100
O 	O 	0.79527 0.30938 0.45749 -0.37000
O 	O 	0.73052 0.23387 0.48843 -0.43900
O 	O 	0.66862 0.36449 0.40126 -0.38300
O 	O 	0.55112 0.25683 0.49877 -0.37800
C 	C 	0.51483 0.26484 0.47727 0.28800
C 	C 	0.76073 0.47038 0.47816 0.28100
O 	O 	0.69969 0.43177 0.48257 -0.38600
O 	O 	0.54166 0.31217 0.45950 -0.39300
O 	O 	0.73619 0.33331 0.41089 -0.36100
C 	C 	0.77086 0.25307 0.46676 0.28600
O 	O 	0.64399 0.30019 0.55398 -0.38700
O 	O 	0.74770 0.32850 0.57144 -0.42100
H 	H 	0.61782 0.25166 0.44521 0.16300
H 	H 	0.76950 0.39712 0.52260 0.17300
C 	C 	0.64798 0.30039 0.85015 -0.08900
C 	C 	0.69078 0.36140 0.84120 0.01300
C 	C 	0.69095 0.36692 0.80689 -0.06600
C 	C 	0.64819 0.31160 0.78129 0.02600
C 	C 	0.60249 0.25151 0.79025 -0.06700
C 	C 	0.60240 0.24591 0.82451 0.01400
C 	C 	0.65622 0.31501 0.74552 0.00200
C 	C 	0.67745 0.28163 0.72914 -0.04100
C 	C 	0.68530 0.28474 0.69529 -0.03300
C 	C 	0.67212 0.32129 0.67753 -0.00800
C 	C 	0.65118 0.35498 0.69383 -0.03200
C 	C 	0.64332 0.35193 0.72778 -0.04000
C 	C 	0.67943 0.32335 0.64248 0.04600
C 	C 	0.68603 0.32323 0.61315 -0.11100
H 	H 	0.72588 0.40396 0.86072 0.03600
H 	H 	0.72612 0.41362 0.80022 0.04600
H 	H 	0.56858 0.20873 0.77065 0.04600
H 	H 	0.56817 0.19885 0.83110 0.02900
H 	H 	0.68802 0.25343 0.74270 0.03800
H 	H 	0.70156 0.25864 0.68285 0.03600
H 	H 	0.64088 0.38334 0.68024 0.04000
H 	H 	0.62698 0.37794 0.74023 0.04100
C 	C 	0.68785 0.31902 0.35300 -0.08400
C 	C 	0.74033 0.32670 0.33944 0.01600
C 	C 	0.73614 0.31621 0.30416 -0.06500
C 	C 	0.67949 0.29786 0.28213 0.02600
C 	C 	0.62636 0.28835 0.29564 -0.06500
C 	C 	0.63045 0.29877 0.33088 0.01300
C 	C 	0.67707 0.29196 0.24502 0.00300
C 	C 	0.72061 0.34681 0.23131 -0.03900
C 	C 	0.71442 0.34274 0.19601 -0.03200
C 	C 	0.66473 0.28386 0.17422 -0.00600
C 	C 	0.62244 0.22855 0.18784 -0.03100
C 	C 	0.62861 0.23253 0.22314 -0.04000
C 	C 	0.65425 0.28139 0.13805 0.04500
C 	C 	0.64475 0.27979 0.10786 -0.10300
H 	H 	0.78493 0.34228 0.35616 0.04100
H 	H 	0.77726 0.32328 0.29395 0.04800
H 	H 	0.58238 0.27410 0.27883 0.04700
H 	H 	0.58929 0.29178 0.34100 0.02400
H 	H 	0.75813 0.39292 0.24798 0.04100
H 	H 	0.74733 0.38568 0.18565 0.03800
H 	H 	0.58401 0.18283 0.17112 0.04200
H 	H 	0.59505 0.18981 0.23347 0.04100
C 	C 	0.89383 0.73426 0.44702 0.00100
C 	C 	0.90685 0.69134 0.45631 -0.05500
C 	C 	0.86650 0.64689 0.47620 0.01400
C 	C 	0.81842 0.64977 0.48872 0.00200
C 	C 	0.80598 0.69338 0.47970 -0.06000
C 	C 	0.84589 0.73726 0.45946 0.02400
C 	C 	0.85533 0.79695 0.45794 -0.04800
S 	S 	0.76235 0.57739 0.49752 0.01500
C 	C 	0.79790 0.54136 0.48799 -0.07600
C 	C 	0.85519 0.58599 0.47591 -0.02200
H 	H 	0.94507 0.69061 0.44716 0.04600
H 	H 	0.76746 0.69389 0.48861 0.04700
H 	H 	0.82880 0.81136 0.47053 0.04900
H 	H 	0.88147 0.57210 0.46262 0.04600
C 	C 	0.82518 0.05383 0.44002 -0.00500
C 	C 	0.78727 0.06884 0.45527 -0.05400
C 	C 	0.80748 0.13297 0.45849 0.01100
C 	C 	0.86664 0.18117 0.44924 -0.00100
C 	C 	0.90472 0.16632 0.43409 -0.05900
C 	C 	0.88449 0.10213 0.43076 0.02400
S 	S 	0.82763 0.99218 0.44587 0.01300
C 	C 	0.90085 0.02213 0.43505 -0.02900
C 	C 	0.92746 0.08448 0.42805 -0.04600
S 	S 	0.86458 0.24322 0.44394 0.01700
C 	C 	0.79041 0.21251 0.45379 -0.07900
C 	C 	0.76494 0.15096 0.46172 -0.02500
H 	H 	0.74263 0.03162 0.46324 0.04300
H 	H 	0.94951 0.20367 0.42628 0.04600
H 	H 	0.97811 0.11837 0.42525 0.04800
H 	H 	0.71754 0.12021 0.46912 0.03800
C 	C 	0.23059 0.16236 0.47791 0.00000
C 	C 	0.29192 0.21243 0.47152 -0.05500
C 	C 	0.34622 0.21327 0.48298 0.01500
C 	C 	0.33806 0.16351 0.49904 0.00100
C 	C 	0.27536 0.10842 0.50045 -0.05900
C 	C 	0.22144 0.10893 0.49040 0.02400
S 	S 	0.15859 0.13801 0.45601 0.00500
C 	C 	0.11429 0.06095 0.46184 -0.01800
C 	C 	0.15559 0.05195 0.48174 -0.04800
S 	S 	0.40315 0.16382 0.49711 0.02300
C 	C 	0.44371 0.22629 0.47677 -0.07600
C 	C 	0.40627 0.24937 0.47090 -0.02000
H 	H 	0.29650 0.24705 0.45642 0.04600
H 	H 	0.26839 0.06532 0.50713 0.04700
H 	H 	0.13956 0.00585 0.48861 0.04900
H 	H 	0.42102 0.28963 0.45798 0.04200
C 	C 	0.82573 0.74999 0.00841 0.00100
C 	C 	0.77403 0.68954 0.01420 -0.05500
C 	C 	0.76169 0.63387 0.99499 0.01400
C 	C 	0.79621 0.63931 0.96855 0.00000
C 	C 	0.84741 0.70007 0.96263 -0.05900
C 	C 	0.86024 0.75549 0.98229 0.02400
S 	S 	0.79202 0.57233 0.96088 0.02400
C 	C 	0.74657 0.53444 0.98978 -0.07800
C 	C 	0.73254 0.57412 0.00646 -0.01900
H 	H 	0.74697 0.68597 0.03417 0.04600
H 	H 	0.87544 0.70399 0.94312 0.04700
H 	H 	0.70511 0.56181 0.02702 0.04100
C 	C 	0.92053 0.15666 0.02691 0.00100
C 	C 	0.90545 0.19351 0.01085 -0.05600
C 	C 	0.84091 0.17419 0.00759 0.01300
C 	C 	0.79235 0.11726 0.01802 -0.00200
C 	C 	0.80720 0.08065 0.03436 -0.05800
C 	C 	0.87159 0.09932 0.03731 0.02400
S 	S 	0.97976 0.15042 0.01939 -0.00000
C 	C 	0.94836 0.07812 0.03047 -0.01800
C 	C 	0.88729 0.05510 0.03937 -0.04900
S 	S 	0.72976 0.11999 0.02223 0.02300
C 	C 	0.76072 0.19174 0.01031 -0.08000
C 	C 	0.82283 0.21579 0.00260 -0.02500
H 	H 	0.94286 0.23628 0.00181 0.04400
H 	H 	0.76938 0.03736 0.04288 0.04700
H 	H 	0.85181 0.00531 0.04228 0.04900
H 	H 	0.85372 0.26138 0.99395 0.03800
C 	C 	0.32732 0.17457 0.98358 0.00300
C 	C 	0.26992 0.17040 0.97771 -0.06000
C 	C 	0.21060 0.11136 0.97959 0.02500
C 	C 	0.20895 0.05676 0.98373 -0.00000
C 	C 	0.26669 0.06126 0.98926 -0.05500
C 	C 	0.32592 0.12074 0.98814 0.01500
S 	S 	0.39816 0.22944 0.97262 0.01400
C 	C 	0.43065 0.18853 0.97434 -0.07700
C 	C 	0.38432 0.12862 0.98344 -0.02000
S 	S 	0.14214 0.00588 0.99914 0.00600
C 	C 	0.11302 0.04964 0.00077 -0.01900
C 	C 	0.15566 0.10665 0.98853 -0.04800
H 	H 	0.27178 0.21244 0.97388 0.04700
H 	H 	0.26540 0.01985 0.99388 0.04600
H 	H 	0.39304 0.09304 0.98732 0.04500
H 	H 	0.14868 0.14407 0.98721 0.04900
N 	N 	0.91931 0.96985 0.01072 -0.13600
C 	C 	0.93530 0.93058 0.99892 0.12300
N 	N 	0.99787 0.95685 0.99489 -0.13900
N 	N 	0.01084 0.95194 0.45494 -0.13300
C 	C 	0.94413 0.91031 0.44867 0.11900
N 	N 	0.90850 0.93348 0.44327 -0.13800
S 	S 	0.94786 0.80487 0.43593 0.00500
C 	C 	0.91080 0.83983 0.44417 -0.01800
S 	S 	0.83614 0.81971 0.01896 0.00500
C 	C 	0.88581 0.85979 0.99179 -0.02000
C 	C 	0.89483 0.81744 0.97311 -0.04700
H 	H 	0.92609 0.83124 0.95423 0.04900
