data_crystal

_cell_length_a 20.47401
_cell_length_b 21.28978
_cell_length_c 39.09335
_cell_angle_alpha 60.94165
_cell_angle_beta  118.77815
_cell_angle_gamma 133.35333

_symmetry_space_group_name_	'P 1'
_symmetry_space_group_name_H-M	'P 1'

loop_
_symmetry_equiv_pos_as_xyz
  x,y,z

loop_
_atom_site_label
_atom_site_type_symbol
_atom_site_fract_x
_atom_site_fract_y
_atom_site_fract_z
_atom_site_charge
N 	N 	0.23460 0.55885 0.16580 -0.13000
N 	N 	0.21238 0.58141 0.63220 -0.12900
Co	Co	0.09722 0.02306 0.05067 1.17200
Co	Co	0.10712 0.87252 0.05667 1.17700
C 	C 	0.27753 0.04303 0.07481 0.25600
O 	O 	0.09809 0.12824 0.03864 -0.46200
C 	C 	0.09170 0.23573 0.10322 0.30600
C 	C 	0.11252 0.77779 0.14226 0.30000
O 	O 	0.08017 0.76586 0.10639 -0.40200
O 	O 	0.10075 0.82424 0.14922 -0.37300
O 	O 	0.11576 0.19386 0.10127 -0.39100
O 	O 	0.06329 0.91703 0.07217 -0.74900
O 	O 	0.23763 0.95662 0.08697 -0.35200
O 	O 	0.23879 0.07728 0.07188 -0.37700
Co	Co	0.00155 0.08981 0.57324 1.18200
Co	Co	0.05570 0.01378 0.54225 1.17400
Co	Co	0.03647 0.85445 0.53567 1.17400
C 	C 	0.22046 0.01967 0.55622 0.26000
O 	O 	0.02193 0.07572 0.68390 -0.37800
C 	C 	0.01690 0.00278 0.70661 0.21300
O 	O 	0.07107 0.12324 0.53688 -0.46000
C 	C 	0.09452 0.23392 0.61006 0.30900
C 	C 	0.05715 0.76191 0.62171 0.30100
O 	O 	0.01114 0.95422 0.69152 -0.34000
O 	O 	0.01519 0.74840 0.58563 -0.40800
O 	O 	0.05526 0.81164 0.63163 -0.38300
O 	O 	0.01042 0.20159 0.60661 -0.41600
O 	O 	0.10969 0.18965 0.60382 -0.39000
O 	O 	0.00893 0.90433 0.55772 -0.75100
O 	O 	0.17380 0.93289 0.56305 -0.35200
O 	O 	0.19122 0.05359 0.56158 -0.38800
C 	C 	0.06949 0.86926 0.89492 0.11000
C 	C 	0.10637 0.05089 0.80643 -0.05300
C 	C 	0.10932 0.05210 0.77075 -0.02400
C 	C 	0.03265 0.98362 0.75061 0.00100
C 	C 	0.18445 0.12237 0.82657 0.09700
C 	C 	0.19130 0.12347 0.75476 0.09900
N 	N 	0.25674 0.18041 0.74201 -0.10800
N 	N 	0.24669 0.17937 0.84267 -0.10600
N 	N 	0.08704 0.83007 0.89281 -0.10200
C 	C 	0.06965 0.06475 0.36635 -0.10600
C 	C 	0.07580 0.07491 0.40112 0.07600
C 	C 	0.16116 0.14711 0.41935 0.06700
C 	C 	0.01541 0.94771 0.31169 -0.03100
C 	C 	0.01804 0.95111 0.27518 -0.00500
C 	C 	0.06335 0.91953 0.27635 0.10600
C 	C 	0.14853 0.12717 0.34845 0.11400
N 	N 	0.09959 0.89427 0.27736 -0.10000
N 	N 	0.22931 0.20464 0.43397 -0.09700
N 	N 	0.21145 0.17689 0.33414 -0.11200
C 	C 	0.16748 0.32626 0.61340 -0.07800
C 	C 	0.19682 0.34271 0.65066 0.00700
C 	C 	0.21253 0.48203 0.61661 0.00300
C 	C 	0.19419 0.47047 0.57978 -0.04000
C 	C 	0.17528 0.39475 0.57830 0.02400
H 	H 	0.19696 0.52165 0.55238 0.06100
C 	C 	0.15689 0.38451 0.54006 0.07700
N 	N 	0.14202 0.37621 0.50942 -0.10200
C 	C 	0.21230 0.67775 0.65146 0.00100
C 	C 	0.25902 0.76379 0.65483 -0.03800
C 	C 	0.21009 0.78828 0.65452 0.02100
C 	C 	0.11350 0.72837 0.64882 -0.07200
C 	C 	0.07131 0.63812 0.65469 -0.00200
C 	C 	0.11981 0.61215 0.65585 -0.02000
C 	C 	0.07617 0.51845 0.66424 0.10300
C 	C 	0.25917 0.87529 0.65938 0.09600
N 	N 	0.04106 0.44329 0.67099 -0.10400
N 	N 	0.29854 0.94490 0.66349 -0.09600
C 	C 	0.21444 0.44941 0.14735 0.00100
C 	C 	0.18033 0.39826 0.09301 0.02200
C 	C 	0.15972 0.31539 0.11952 -0.07700
C 	C 	0.17391 0.30308 0.16056 0.00400
C 	C 	0.19785 0.36804 0.17427 -0.02200
H 	H 	0.16019 0.24036 0.18143 0.05000
C 	C 	0.20505 0.35054 0.21610 0.09800
N 	N 	0.21074 0.33653 0.24960 -0.10100
C 	C 	0.25113 0.67268 0.18008 0.00300
C 	C 	0.30309 0.76445 0.17656 -0.03900
C 	C 	0.26265 0.79895 0.17525 0.01800
C 	C 	0.16749 0.74398 0.17308 -0.07000
C 	C 	0.12165 0.65124 0.18479 0.00600
C 	C 	0.16236 0.61502 0.18801 -0.02300
H 	H 	0.05122 0.60725 0.18783 0.04900
C 	C 	0.11479 0.51973 0.20160 0.10100
C 	C 	0.31897 0.89089 0.17572 0.09600
C 	C 	0.27296 0.03036 0.49538 0.03200
N 	N 	0.21829 0.99598 0.46914 -0.07000
H 	H 	0.30868 0.04760 0.01433 0.03800
C 	C 	0.29078 0.63893 0.17529 0.12100
C 	C 	0.27251 0.52853 0.16302 0.12500
C 	C 	0.25814 0.66134 0.63927 0.12300
C 	C 	0.25302 0.57062 0.61829 0.12600
C 	C 	0.21625 0.41855 0.65242 -0.02300
H 	H 	0.19441 0.29165 0.67805 0.04900
H 	H 	0.33256 0.81246 0.65639 0.06400
C 	C 	0.20406 0.46315 0.10662 -0.03800
H 	H 	0.22011 0.52681 0.08597 0.06000
C 	C 	0.17647 0.41692 0.05156 0.07800
N 	N 	0.07655 0.44333 0.21253 -0.10500
C 	C 	0.31777 0.07496 0.55569 -0.06900
C 	C 	0.34218 0.07349 0.52799 0.02900
C 	C 	0.36696 0.10196 0.06448 -0.06400
C 	C 	0.37156 0.09151 0.03305 -0.00600
N 	N 	0.36484 0.57873 0.16861 -0.13300
N 	N 	0.34518 0.72870 0.63323 -0.13500
N 	N 	0.33707 0.63977 0.61031 -0.13300
C 	C 	0.08193 0.99026 0.97984 0.34100
O 	O 	0.14212 0.97526 0.00593 -0.40400
O 	O 	0.04727 0.00868 0.99168 -0.40500
C 	C 	0.01875 0.98918 0.46357 0.40100
O 	O 	0.06626 0.95680 0.48441 -0.40700
O 	O 	0.00158 0.01420 0.48132 -0.42300
C 	C 	0.00018 0.01237 0.41934 -0.19100
C 	C 	0.05196 0.90696 0.34991 0.10400
N 	N 	0.08115 0.87450 0.38046 -0.10300
C 	C 	0.23972 0.43056 0.69108 0.10100
N 	N 	0.25851 0.44022 0.72203 -0.10200
N 	N 	0.17341 0.43191 0.01834 -0.10300
C 	C 	0.02770 0.97970 0.82272 0.03400
C 	C 	0.04742 0.91848 0.89751 -0.04400
C 	C 	0.04764 0.91202 0.93507 0.02900
C 	C 	0.05456 0.84473 0.96951 0.06900
N 	N 	0.06082 0.79094 0.99654 -0.13200
Co	Co	0.00185 0.84827 0.10750 1.18600
C 	C 	0.04412 0.97251 0.93926 -0.05600
C 	C 	0.02828 0.97417 0.86262 0.06000
H 	H 	0.36792 0.11592 0.60912 0.05000
C 	C 	0.02288 0.02733 0.90401 0.00200
C 	C 	0.01187 0.02571 0.86564 -0.07900
C 	C 	0.01438 0.08658 0.90701 0.08800
H 	H 	0.37432 0.80918 0.17439 0.06500
Co	Co	0.01841 0.09316 0.07044 1.17800
N 	N 	0.36435 0.96458 0.17631 -0.08900
O 	O 	0.00874 0.08148 0.17201 -0.39000
O 	O 	0.00472 0.20230 0.09364 -0.41300
N 	N 	0.00758 0.13397 0.90934 -0.10200
N 	N 	0.00028 0.44833 0.04662 -0.11700
N 	N 	0.38300 0.69185 0.17726 -0.13200
H 	H 	0.99841 0.58945 0.65454 0.05400
O 	O 	0.97039 0.79727 0.02907 -0.37200
C 	C 	0.99663 0.00884 0.19911 0.22800
O 	O 	0.99520 0.95296 0.19139 -0.33500
C 	C 	0.98679 0.99315 0.34923 0.08700
C 	C 	0.97853 0.98527 0.31101 0.04100
C 	C 	0.97927 0.98810 0.23780 0.00600
C 	C 	0.93458 0.01800 0.23772 -0.02100
C 	C 	0.93803 0.01994 0.27403 -0.05200
C 	C 	0.88736 0.04972 0.20026 0.07600
C 	C 	0.90202 0.06035 0.27327 0.09800
C 	C 	0.38661 0.11697 0.58707 0.00600
C 	C 	0.44909 0.15549 0.08997 0.01600
C 	C 	0.44655 0.16924 0.12191 0.08700
N 	N 	0.44454 0.18034 0.14748 -0.10500
N 	N 	0.84992 0.07580 0.17067 -0.14500
C 	C 	0.74458 0.29580 0.01854 0.12100
N 	N 	0.79140 0.38285 0.01702 -0.12800
C 	C 	0.75554 0.40599 0.02651 0.12700
N 	N 	0.67217 0.34370 0.03559 -0.13500
C 	C 	0.62635 0.25733 0.03810 0.12500
N 	N 	0.66272 0.23285 0.02997 -0.13500
C 	C 	0.71549 0.27796 0.53157 0.12000
N 	N 	0.75700 0.36329 0.53012 -0.13100
C 	C 	0.72247 0.37980 0.54438 0.12700
N 	N 	0.64396 0.31243 0.55757 -0.13200
C 	C 	0.59946 0.22816 0.55706 0.12500
N 	N 	0.63601 0.21058 0.54468 -0.13800
C 	C 	0.41945 0.66200 0.17316 0.12600
C 	C 	0.38470 0.71773 0.61888 0.12700
Co	Co	0.94080 0.92608 0.13426 1.19200
C 	C 	0.90888 0.73018 0.05080 0.29300
Co	Co	0.91118 0.07139 0.11891 1.17400
O 	O 	0.95554 0.02436 0.10540 -0.76700
O 	O 	0.94320 0.82226 0.14694 -0.44600
O 	O 	0.99244 0.96301 0.08306 -0.55500
C 	C 	0.76287 0.87369 0.13433 0.30800
O 	O 	0.81487 0.94475 0.14748 -0.37500
O 	O 	0.79915 0.85565 0.12339 -0.37200
C 	C 	0.85919 0.11507 0.03089 0.29100
O 	O 	0.82394 0.05827 0.06272 -0.38600
O 	O 	0.92648 0.12569 0.02545 -0.35900
O 	O 	0.90127 0.74086 0.07955 -0.35900
Co	Co	0.95687 0.83751 0.59616 1.19400
Co	Co	0.92737 0.92138 0.63558 1.19600
C 	C 	0.84177 0.71728 0.53795 0.29600
Co	Co	0.91975 0.07151 0.63333 1.16900
O 	O 	0.94734 0.02217 0.61107 -0.77200
O 	O 	0.91516 0.81327 0.64167 -0.45000
O 	O 	0.95902 0.95660 0.57834 -0.55700
C 	C 	0.76510 0.88024 0.64629 0.31200
O 	O 	0.82751 0.94630 0.66358 -0.38700
O 	O 	0.78985 0.85697 0.63157 -0.37300
C 	C 	0.84982 0.11536 0.54514 0.29500
O 	O 	0.82314 0.06101 0.57922 -0.39300
O 	O 	0.91018 0.12505 0.53470 -0.36500
O 	O 	0.89636 0.78241 0.51288 -0.37500
O 	O 	0.84321 0.73304 0.56764 -0.36600
C 	C 	0.95986 0.90733 0.76966 0.00600
C 	C 	0.95504 0.90692 0.80463 -0.01800
C 	C 	0.89033 0.82925 0.75338 0.10300
C 	C 	0.87628 0.83120 0.82241 0.11000
C 	C 	0.98500 0.07783 0.82943 0.11700
N 	N 	0.83486 0.76689 0.74040 -0.10400
N 	N 	0.81357 0.77078 0.83668 -0.09800
N 	N 	0.96357 0.11943 0.80049 -0.11100
C 	C 	0.90805 0.93719 0.36495 -0.07200
C 	C 	0.91382 0.95159 0.39825 0.10400
C 	C 	0.82207 0.86434 0.34732 0.12200
C 	C 	0.83123 0.90509 0.41059 0.08000
N 	N 	0.87337 0.09255 0.27272 -0.10800
N 	N 	0.75347 0.80620 0.33321 -0.10300
N 	N 	0.76539 0.86849 0.42045 -0.08300
C 	C 	0.48462 0.78004 0.62192 0.00100
C 	C 	0.54379 0.79760 0.65940 -0.03800
C 	C 	0.63389 0.82568 0.66846 0.02400
C 	C 	0.66700 0.83968 0.63909 -0.07600
C 	C 	0.61006 0.82932 0.60043 0.01300
C 	C 	0.51992 0.80154 0.59148 -0.02100
H 	H 	0.51748 0.78307 0.68261 0.06200
H 	H 	0.63679 0.84530 0.57701 0.05600
C 	C 	0.46380 0.79517 0.55100 0.10400
C 	C 	0.69134 0.83901 0.70816 0.09300
N 	N 	0.41879 0.79002 0.51858 -0.10000
N 	N 	0.73683 0.84996 0.73998 -0.09800
C 	C 	0.51113 0.72439 0.16454 0.00100
C 	C 	0.51743 0.76696 0.12423 -0.03700
C 	C 	0.59514 0.80448 0.11280 0.02300
C 	C 	0.67016 0.80439 0.14213 -0.07200
C 	C 	0.66287 0.75971 0.18228 0.01300
C 	C 	0.58471 0.72122 0.19370 -0.02100
H 	H 	0.45949 0.76660 0.10142 0.05800
H 	H 	0.72085 0.76017 0.20510 0.04800
C 	C 	0.58072 0.67901 0.23551 0.10200
C 	C 	0.59747 0.84303 0.07082 0.08900
N 	N 	0.57751 0.64520 0.26900 -0.09900
N 	N 	0.59927 0.87371 0.03716 -0.08700
C 	C 	0.82286 0.17603 0.52163 -0.07900
C 	C 	0.88488 0.26175 0.52809 0.00600
C 	C 	0.85203 0.30102 0.52879 -0.02500
C 	C 	0.75549 0.25755 0.51871 0.00100
C 	C 	0.69574 0.18269 0.50275 -0.04800
C 	C 	0.72881 0.14078 0.50492 0.03500
H 	H 	0.95843 0.29294 0.53742 0.05300
H 	H 	0.62244 0.15304 0.49170 0.05600
C 	C 	0.66494 0.05830 0.49265 0.04000
C 	C 	0.91745 0.38209 0.54240 0.10000
N 	N 	0.61378 0.99216 0.48285 -0.06700
N 	N 	0.97015 0.44697 0.55338 -0.10500
C 	C 	0.76483 0.47086 0.54260 0.00100
C 	C 	0.74865 0.52431 0.50554 -0.04000
C 	C 	0.76220 0.59952 0.50394 0.02100
C 	C 	0.79838 0.62537 0.53968 -0.07600
C 	C 	0.81316 0.57091 0.57685 0.01000
C 	C 	0.79849 0.49514 0.57841 -0.02200
H 	H 	0.71976 0.50404 0.47806 0.06000
H 	H 	0.84072 0.59009 0.60448 0.04700
C 	C 	0.81715 0.44176 0.61699 0.09800
C 	C 	0.73430 0.64706 0.46575 0.08900
N 	N 	0.83194 0.39890 0.64787 -0.10200
N 	N 	0.71149 0.68451 0.43501 -0.09400
C 	C 	0.47890 0.15693 0.59114 -0.02400
C 	C 	0.50391 0.16096 0.56181 -0.00300
C 	C 	0.43476 0.11588 0.53141 -0.04600
H 	H 	0.45352 0.11808 0.50898 0.05600
C 	C 	0.54749 0.19234 0.62586 0.09600
N 	N 	0.60242 0.22070 0.65367 -0.10400
C 	C 	0.83955 0.18191 0.00697 -0.07100
C 	C 	0.90506 0.26641 0.01508 0.00500
C 	C 	0.87654 0.30757 0.01787 -0.02600
C 	C 	0.78101 0.26889 0.00715 0.00100
C 	C 	0.71814 0.19590 0.98956 -0.03900
C 	C 	0.74735 0.15276 0.98923 0.02200
H 	H 	0.97783 0.29548 0.02346 0.05900
H 	H 	0.64596 0.17035 0.97779 0.06300
C 	C 	0.68248 0.07861 0.97080 0.08600
C 	C 	0.94513 0.38573 0.03381 0.11300
N 	N 	0.63048 0.01941 0.95582 -0.10300
C 	C 	0.81052 0.49507 0.03215 -0.00100
C 	C 	0.83868 0.50261 0.07140 -0.03500
C 	C 	0.85542 0.57216 0.07794 0.01900
C 	C 	0.85380 0.64073 0.04505 -0.06700
C 	C 	0.82539 0.63299 0.00576 0.00500
C 	C 	0.80671 0.56236 0.99925 -0.01600
H 	H 	0.83960 0.44982 0.09685 0.05700
H 	H 	0.82361 0.68529 0.98023 0.05800
C 	C 	0.78264 0.55887 0.95858 0.10300
C 	C 	0.86904 0.56990 0.11824 0.08900
N 	N 	0.76341 0.55610 0.92600 -0.09800
N 	N 	0.87936 0.56785 0.15049 -0.10600
C 	C 	0.45673 0.13600 0.02605 -0.02300
C 	C 	0.53903 0.19075 0.05114 -0.00500
C 	C 	0.53445 0.19720 0.08398 -0.03700
H 	H 	0.59772 0.23896 0.10352 0.05600
C 	C 	0.45878 0.12690 0.99233 0.09300
N 	N 	0.46028 0.11957 0.96531 -0.11100
