data_crystal

_cell_length_a 20.27804
_cell_length_b 21.48877
_cell_length_c 31.38843
_cell_angle_alpha 60.92810
_cell_angle_beta  118.79429
_cell_angle_gamma 133.24101

_symmetry_space_group_name_	'P 1'
_symmetry_space_group_name_H-M	'P 1'

loop_
_symmetry_equiv_pos_as_xyz
  x,y,z

loop_
_atom_site_label
_atom_site_type_symbol
_atom_site_fract_x
_atom_site_fract_y
_atom_site_fract_z
_atom_site_charge
H 	H 	0.00302 0.68864 0.69254 0.07600
O 	O 	0.01129 0.00748 0.47510 -0.39200
O 	O 	0.00250 0.94655 0.74788 -0.26200
O 	O 	0.01998 0.76321 0.59101 -0.35300
C 	C 	0.00873 0.97833 0.81701 0.12100
C 	C 	0.01037 0.97389 0.40942 0.01100
O 	O 	0.03154 0.10497 0.03691 -0.44500
C 	C 	0.04051 0.01046 0.27065 0.18800
O 	O 	0.03518 0.10907 0.53720 -0.44700
O 	O 	0.04520 0.92382 0.58103 -0.70400
C 	C 	0.03347 0.04040 0.87615 0.16900
C 	C 	0.02326 0.64594 0.70234 -0.11700
H 	H 	0.02504 0.61146 0.74264 0.07400
Co	Co	0.04486 0.87735 0.13913 1.19700
O 	O 	0.02873 0.07130 0.23752 -0.34500
O 	O 	0.04646 0.96485 0.25651 -0.29100
C 	C 	0.04181 0.99027 0.32389 0.08700
O 	O 	0.01039 0.88363 0.99585 -0.31600
C 	C 	0.00763 0.95433 0.46165 0.33500
Co	Co	0.05708 0.02106 0.04767 1.17700
C 	C 	0.05784 0.21514 0.13447 0.37000
O 	O 	0.06732 0.93727 0.08084 -0.71800
Co	Co	0.05372 0.01852 0.54983 1.17500
C 	C 	0.04676 0.20969 0.63346 0.37400
C 	C 	0.04935 0.05150 0.83307 -0.15100
O 	O 	0.07059 0.79062 0.09550 -0.35100
C 	C 	0.05171 0.35226 0.54490 -0.12500
H 	H 	0.06225 0.34095 0.03632 0.09000
H 	H 	0.08405 0.72928 0.20924 0.09000
O 	O 	0.08516 0.18608 0.12197 -0.38900
O 	O 	0.07301 0.17907 0.62158 -0.38800
Br	Br	0.06677 0.14056 0.88664 -0.25000
H 	H 	0.07327 0.41651 0.51688 0.06600
H 	H 	0.07207 0.32194 0.53799 0.07100
H 	H 	0.08769 0.11740 0.80985 0.09400
O 	O 	0.00419 0.84528 0.19940 -0.42800
C 	C 	0.09123 0.04973 0.39200 -0.08100
Co	Co	0.10443 0.89615 0.55916 1.18000
C 	C 	0.10702 0.05824 0.34963 0.06000
H 	H 	0.08605 0.58804 0.68054 0.06700
C 	C 	0.09711 0.36448 0.59756 0.09200
O 	O 	0.00259 0.88419 0.49410 -0.35800
H 	H 	0.11512 0.65682 0.25610 0.08200
C 	C 	0.99661 0.99175 0.76256 0.19200
Co	Co	0.99944 0.85533 0.63263 1.15400
O 	O 	0.99091 0.05663 0.73021 -0.43100
O 	O 	0.99469 0.99226 0.97560 -0.34700
Co	Co	0.98758 0.07074 0.09622 1.15000
H 	H 	0.97492 0.30930 0.53907 0.02700
Co	Co	0.12825 0.92012 0.05287 1.17700
C 	C 	0.22596 0.90533 0.15717 0.29700
O 	O 	0.97221 0.16533 0.13859 -0.47000
O 	O 	0.23860 0.95935 0.11300 -0.38500
O 	O 	0.17289 0.89246 0.17831 -0.37500
O 	O 	0.19256 0.04869 0.00961 -0.43000
O 	O 	0.19841 0.11181 0.05331 -0.41400
Co	Co	0.97368 0.07118 0.58957 1.15200
C 	C 	0.16648 0.85183 0.66799 0.29300
O 	O 	0.95932 0.16510 0.63235 -0.46200
O 	O 	0.19812 0.90763 0.62743 -0.38100
O 	O 	0.11476 0.85320 0.68149 -0.36000
O 	O 	0.19314 0.02717 0.52627 -0.43300
O 	O 	0.19741 0.09450 0.56672 -0.41200
H 	H 	0.14370 0.10091 0.41236 0.06700
Br	Br	0.21929 0.16257 0.32813 -0.25900
C 	C 	0.17905 0.38832 0.69546 0.05300
C 	C 	0.15419 0.31593 0.68611 -0.01500
C 	C 	0.10964 0.30128 0.63779 -0.10900
H 	H 	0.16354 0.26749 0.71719 0.04400
C 	C 	0.22501 0.40115 0.74800 -0.18500
H 	H 	0.19645 0.42220 0.75644 0.08200
H 	H 	0.30124 0.45224 0.75183 0.07200
H 	H 	0.21267 0.33909 0.77627 0.07400
C 	C 	0.14052 0.65161 0.68960 -0.05600
C 	C 	0.18675 0.78540 0.69720 -0.08800
C 	C 	0.11683 0.69703 0.69307 0.07700
C 	C 	0.13659 0.30514 0.19333 -0.01200
C 	C 	0.12282 0.30280 0.14562 -0.11400
C 	C 	0.16455 0.38005 0.20132 0.05400
C 	C 	0.17591 0.37886 0.25279 -0.18500
H 	H 	0.11976 0.24636 0.22373 0.05800
H 	H 	0.13285 0.31044 0.27473 0.07900
H 	H 	0.15345 0.41583 0.24995 0.07900
H 	H 	0.25006 0.40944 0.27337 0.07700
C 	C 	0.21417 0.69810 0.20351 -0.06700
C 	C 	0.25763 0.84778 0.17767 -0.09800
C 	C 	0.20396 0.75755 0.20314 0.10200
C 	C 	0.14354 0.72605 0.23398 -0.20600
H 	H 	0.17417 0.62957 0.22346 0.05800
H 	H 	0.18487 0.76777 0.26069 0.09000
H 	H 	0.26992 0.25705 0.94308 0.09900
C 	C 	0.72671 0.27926 0.04683 0.11200
N 	N 	0.63663 0.24909 0.03476 -0.14700
C 	C 	0.61564 0.29296 0.03943 0.11800
N 	N 	0.68443 0.36970 0.05335 -0.14300
C 	C 	0.77442 0.40129 0.06512 0.11200
N 	N 	0.79617 0.35509 0.06317 -0.14700
C 	C 	0.70875 0.30166 0.51070 0.11200
N 	N 	0.61533 0.25601 0.50304 -0.14100
C 	C 	0.58030 0.29504 0.49899 0.11800
N 	N 	0.63797 0.38098 0.49898 -0.14200
C 	C 	0.73107 0.42364 0.51253 0.11800
N 	N 	0.76714 0.38458 0.51771 -0.14700
C 	C 	0.30091 0.66844 0.18835 0.11600
N 	N 	0.39148 0.69793 0.20436 -0.14200
C 	C 	0.41573 0.65338 0.20355 0.11900
N 	N 	0.34913 0.57595 0.19027 -0.14100
C 	C 	0.25847 0.54388 0.17559 0.11700
N 	N 	0.23349 0.59049 0.17392 -0.13400
C 	C 	0.26072 0.65379 0.68236 0.12000
N 	N 	0.34579 0.70805 0.67231 -0.14200
C 	C 	0.37207 0.67868 0.65828 0.12200
N 	N 	0.31055 0.59748 0.64990 -0.14200
C 	C 	0.22548 0.54221 0.65948 0.12100
N 	N 	0.19995 0.56969 0.67623 -0.13600
Co	Co	0.97192 0.92508 0.18730 1.17000
C 	C 	0.23793 0.11447 0.02875 0.32100
Co	Co	0.90949 0.03611 0.18125 1.13900
C 	C 	0.98552 0.73637 0.10183 0.23100
O 	O 	0.79847 0.99973 0.12097 -0.35300
O 	O 	0.95787 0.00690 0.15255 -0.80000
C 	C 	0.81099 0.05287 0.07638 0.23800
C 	C 	0.79471 0.84081 0.20915 0.31200
O 	O 	0.98929 0.95696 0.11132 -0.60300
C 	C 	0.99766 0.94371 0.96199 0.24100
O 	O 	0.86789 0.06958 0.05615 -0.39500
O 	O 	0.84292 0.90977 0.22606 -0.40800
O 	O 	0.83471 0.83050 0.19264 -0.40400
O 	O 	0.95722 0.75830 0.11919 -0.41000
Co	Co	0.93401 0.91463 0.67633 1.18500
C 	C 	0.24003 0.08986 0.54832 0.31000
Co	Co	0.88133 0.03322 0.66872 1.15700
C 	C 	0.93153 0.72201 0.58561 0.23400
O 	O 	0.78054 0.00762 0.60332 -0.41500
O 	O 	0.93256 0.00348 0.64277 -0.79300
C 	C 	0.80360 0.06924 0.56210 0.29600
O 	O 	0.94799 0.82208 0.68808 -0.48100
C 	C 	0.75389 0.83861 0.69025 0.32200
O 	O 	0.96496 0.95195 0.60344 -0.58700
O 	O 	0.86540 0.08780 0.54468 -0.40100
O 	O 	0.80329 0.90532 0.70927 -0.39600
O 	O 	0.79269 0.83015 0.67178 -0.38700
O 	O 	0.90463 0.74497 0.60306 -0.39300
C 	C 	0.94703 0.88239 0.89254 -0.00600
C 	C 	0.98594 0.95566 0.90787 -0.11500
C 	C 	0.95872 0.89321 0.84793 0.01100
Br	Br	0.91016 0.79081 0.83211 -0.27200
H 	H 	0.91032 0.81672 0.91630 0.05000
C 	C 	0.96259 0.91336 0.34237 -0.13800
C 	C 	0.94481 0.90645 0.38332 0.07900
Br	Br	0.82773 0.80657 0.40107 -0.27100
H 	H 	0.91166 0.86071 0.32315 0.07800
C 	C 	0.12065 0.43601 0.60701 -0.06000
C 	C 	0.16522 0.45078 0.65527 -0.02300
H 	H 	0.11017 0.48383 0.57600 0.05900
C 	C 	0.59824 0.78577 0.63365 -0.01600
C 	C 	0.65279 0.78160 0.68271 -0.11000
C 	C 	0.61332 0.74106 0.72353 0.10200
C 	C 	0.52412 0.71555 0.71460 -0.07300
C 	C 	0.47088 0.72312 0.66555 -0.02800
C 	C 	0.50785 0.75814 0.62465 0.05200
C 	C 	0.45104 0.76561 0.57154 -0.18600
H 	H 	0.62823 0.81554 0.60234 0.05300
H 	H 	0.49438 0.68625 0.74594 0.05000
C 	C 	0.66683 0.72636 0.77665 -0.21200
H 	H 	0.49476 0.80790 0.54392 0.07600
H 	H 	0.41847 0.79549 0.56578 0.08000
H 	H 	0.39569 0.69919 0.56391 0.07700
H 	H 	0.71972 0.78915 0.78859 0.09400
H 	H 	0.70177 0.70101 0.77933 0.09300
H 	H 	0.62004 0.67695 0.80301 0.07500
C 	C 	0.23443 0.68761 0.69905 -0.02900
C 	C 	0.30353 0.76383 0.71855 0.05500
C 	C 	0.27993 0.81540 0.71396 -0.02600
H 	H 	0.33439 0.88023 0.72146 0.05000
C 	C 	0.40076 0.78900 0.74557 -0.18400
H 	H 	0.96913 0.59592 0.67987 0.01400
H 	H 	0.44644 0.83575 0.71871 0.07900
H 	H 	0.40096 0.72998 0.76432 0.07400
H 	H 	0.43028 0.82152 0.77522 0.07200
C 	C 	0.14456 0.37977 0.10616 0.10800
C 	C 	0.17446 0.45563 0.11446 -0.07000
C 	C 	0.18853 0.45773 0.16237 -0.02000
H 	H 	0.19326 0.51516 0.08444 0.05500
C 	C 	0.13656 0.38170 0.05533 -0.21100
H 	H 	0.17179 0.35566 0.05929 0.08500
H 	H 	0.16970 0.44977 0.03109 0.07600
C 	C 	0.67067 0.74592 0.25426 -0.02300
C 	C 	0.69603 0.77365 0.21047 -0.11000
C 	C 	0.62685 0.75436 0.16555 0.09700
C 	C 	0.53648 0.71875 0.16353 -0.07300
C 	C 	0.51283 0.69688 0.20645 -0.03000
C 	C 	0.57933 0.70744 0.25261 0.05200
C 	C 	0.55392 0.67988 0.29981 -0.18800
H 	H 	0.72338 0.75858 0.28907 0.05200
H 	H 	0.48402 0.70727 0.12854 0.05100
C 	C 	0.64899 0.77190 0.11972 -0.20700
H 	H 	0.61166 0.68603 0.33339 0.08300
H 	H 	0.49232 0.60995 0.30578 0.07400
H 	H 	0.53768 0.72211 0.29667 0.08000
H 	H 	0.67851 0.73717 0.12902 0.07900
H 	H 	0.69966 0.84356 0.10580 0.08500
H 	H 	0.58576 0.74799 0.08876 0.07000
C 	C 	0.27871 0.72779 0.18011 -0.02200
C 	C 	0.33342 0.81829 0.15596 0.05100
C 	C 	0.32855 0.87783 0.15938 -0.03000
H 	H 	0.37438 0.94757 0.14298 0.05200
C 	C 	0.39713 0.85230 0.12619 -0.18400
H 	H 	0.36656 0.80319 0.10677 0.07400
H 	H 	0.46575 0.86800 0.15144 0.07500
H 	H 	0.40854 0.91321 0.09679 0.07000
C 	C 	0.74834 0.23853 0.48537 -0.07700
C 	C 	0.74679 0.25374 0.52365 -0.02600
C 	C 	0.76904 0.21269 0.57400 0.03200
C 	C 	0.78614 0.15258 0.58531 -0.01100
C 	C 	0.78783 0.13654 0.54740 -0.11400
C 	C 	0.76882 0.18017 0.49682 0.08500
C 	C 	0.76957 0.16486 0.45507 -0.19500
H 	H 	0.73149 0.27039 0.44663 0.04500
H 	H 	0.79765 0.11753 0.62397 -0.00200
C 	C 	0.77080 0.22994 0.61592 -0.17100
H 	H 	0.74119 0.19426 0.41769 0.05800
H 	H 	0.72601 0.09316 0.45834 0.06500
H 	H 	0.84211 0.19545 0.45675 0.06400
H 	H 	0.70002 0.20557 0.61301 0.06100
H 	H 	0.81981 0.30165 0.61380 0.06100
H 	H 	0.79420 0.19639 0.65336 0.04800
C 	C 	0.77022 0.48900 0.57506 -0.06700
C 	C 	0.78896 0.50036 0.53309 -0.03600
C 	C 	0.84349 0.58601 0.50440 0.05100
C 	C 	0.87965 0.65881 0.51848 -0.03400
C 	C 	0.86377 0.64772 0.56144 -0.08300
C 	C 	0.80305 0.56189 0.58776 0.07900
C 	C 	0.76779 0.54750 0.62673 -0.19300
H 	H 	0.72506 0.42290 0.59593 0.04500
H 	H 	0.92549 0.72458 0.49785 0.04200
C 	C 	0.86144 0.60014 0.45799 -0.18200
H 	H 	0.71554 0.47643 0.64125 0.06400
H 	H 	0.73388 0.58110 0.60995 0.08200
H 	H 	0.82578 0.57393 0.65898 0.06400
H 	H 	0.79526 0.57426 0.42894 0.07300
H 	H 	0.89102 0.56551 0.46716 0.06100
H 	H 	0.91164 0.67109 0.44199 0.06400
C 	C 	0.48311 0.19182 0.56058 -0.07000
C 	C 	0.49038 0.24069 0.51100 -0.03000
C 	C 	0.42205 0.25549 0.47791 0.05300
C 	C 	0.34700 0.21976 0.49483 -0.01900
C 	C 	0.33518 0.16349 0.54275 -0.10800
C 	C 	0.40837 0.15694 0.57729 0.08700
C 	C 	0.40400 0.10708 0.63117 -0.20100
H 	H 	0.53799 0.18430 0.58683 0.04400
H 	H 	0.29255 0.22808 0.46892 0.04200
C 	C 	0.42943 0.31002 0.42481 -0.18700
H 	H 	0.47419 0.14106 0.65626 0.06100
H 	H 	0.37950 0.03970 0.63648 0.06500
H 	H 	0.35670 0.10274 0.64261 0.07300
H 	H 	0.44764 0.29052 0.40750 0.08200
H 	H 	0.48385 0.38088 0.42468 0.07600
H 	H 	0.36256 0.30083 0.40115 0.08000
C 	C 	0.68142 0.13005 0.06249 -0.05600
C 	C 	0.74652 0.22213 0.04905 -0.04200
C 	C 	0.82369 0.25730 0.03345 0.05100
C 	C 	0.83915 0.19985 0.03701 -0.03900
C 	C 	0.77731 0.10818 0.05418 -0.08300
C 	C 	0.69333 0.07338 0.06196 0.02500
C 	C 	0.61784 0.97544 0.07221 -0.14100
H 	H 	0.62065 0.10221 0.07303 0.03200
H 	H 	0.90140 0.22678 0.02856 0.02900
C 	C 	0.89046 0.35507 0.01393 -0.21000
H 	H 	0.54814 0.96191 0.05759 0.06500
H 	H 	0.62809 0.94582 0.11323 0.07000
H 	H 	0.61800 0.94296 0.05351 0.07200
H 	H 	0.93724 0.38748 0.04561 0.06400
H 	H 	0.85191 0.38390 0.98649 0.08000
H 	H 	0.93437 0.36952 0.99427 0.06200
C 	C 	0.84782 0.48990 0.12351 -0.07100
C 	C 	0.84713 0.48556 0.08002 -0.03000
C 	C 	0.89107 0.56416 0.04379 0.02800
C 	C 	0.92645 0.64423 0.04907 -0.03100
C 	C 	0.92425 0.64844 0.09167 -0.09000
C 	C 	0.88187 0.56980 0.12859 0.07600
C 	C 	0.86704 0.56912 0.17153 -0.19000
H 	H 	0.81396 0.42942 0.15137 0.04100
H 	H 	0.95872 0.70427 0.02062 0.02500
C 	C 	0.89587 0.56232 0.99798 -0.15000
H 	H 	0.82556 0.50115 0.19436 0.05700
H 	H 	0.82838 0.59743 0.15702 0.07500
H 	H 	0.93472 0.60733 0.19667 0.05100
H 	H 	0.82530 0.53028 0.97290 0.07000
H 	H 	0.92372 0.52516 0.00927 0.04700
H 	H 	0.94247 0.62975 0.97653 0.06000
C 	C 	0.46255 0.26455 0.99117 -0.06600
C 	C 	0.51971 0.25117 0.03722 -0.03900
C 	C 	0.48830 0.20653 0.08172 0.04000
C 	C 	0.39861 0.17355 0.07906 -0.01700
C 	C 	0.33828 0.17952 0.03248 -0.13100
C 	C 	0.37261 0.23077 0.98859 0.11500
C 	C 	0.31215 0.24599 0.93869 -0.21600
H 	H 	0.48825 0.30166 0.95733 0.05100
H 	H 	0.37324 0.13724 0.11296 0.03800
C 	C 	0.54958 0.19268 0.13188 -0.17600
H 	H 	0.35485 0.30521 0.91173 0.07600
H 	H 	0.26558 0.18793 0.92284 0.09400
H 	H 	0.61034 0.25700 0.14147 0.06500
H 	H 	0.57457 0.16116 0.13059 0.05900
H 	H 	0.51155 0.14922 0.16230 0.05500
