data_crystal

_cell_length_a 19.44721
_cell_length_b 18.09633
_cell_length_c 28.55903
_cell_angle_alpha 95.43139
_cell_angle_beta  95.43311
_cell_angle_gamma 126.37515

_symmetry_space_group_name_	'P 1'
_symmetry_space_group_name_H-M	'P 1'

loop_
_symmetry_equiv_pos_as_xyz
  x,y,z

loop_
_atom_site_label
_atom_site_type_symbol
_atom_site_fract_x
_atom_site_fract_y
_atom_site_fract_z
_atom_site_charge
C 	C 	0.93185 0.01581 0.97002 0.09400
N 	N 	0.02033 0.07462 0.97691 -0.12400
C 	C 	0.06666 0.04219 0.98703 0.10500
C 	C 	0.93182 0.01575 0.47002 0.09100
N 	N 	0.02029 0.07456 0.47690 -0.12600
C 	C 	0.06663 0.04213 0.48702 0.10500
Cu	Cu	0.72250 0.31596 0.94839 0.92900
Cu	Cu	0.71766 0.22445 0.04335 0.86600
Cu	Cu	0.59484 0.26756 0.01690 0.89200
Cu	Cu	0.57463 0.33865 0.93004 0.89600
C 	C 	0.65418 0.30981 0.85275 0.30100
C 	C 	0.65855 0.27600 0.11789 0.30400
O 	O 	0.59000 0.25165 0.94904 -0.63500
O 	O 	0.71962 0.32076 0.01786 -0.64600
O 	O 	0.77665 0.25027 0.94135 -0.36300
O 	O 	0.68826 0.14478 0.98513 -0.43600
O 	O 	0.47174 0.21005 0.01067 -0.39300
C 	C 	0.42928 0.23206 0.98387 0.29900
O 	O 	0.46816 0.29587 0.95672 -0.39400
O 	O 	0.70148 0.29363 0.87964 -0.36000
C 	C 	0.74597 0.17233 0.95739 0.28000
O 	O 	0.59534 0.26035 0.08578 -0.38800
O 	O 	0.72310 0.27849 0.10527 -0.42400
H 	H 	0.54644 0.18657 0.93147 0.16400
Cu	Cu	0.72246 0.31590 0.44839 0.92600
Cu	Cu	0.71762 0.22439 0.54334 0.87100
Cu	Cu	0.59481 0.26750 0.51689 0.89500
Cu	Cu	0.57460 0.33859 0.43004 0.89500
C 	C 	0.65415 0.30976 0.35275 0.30100
C 	C 	0.65852 0.27595 0.61789 0.30400
O 	O 	0.58996 0.25159 0.44904 -0.64000
O 	O 	0.71958 0.32069 0.51786 -0.64000
O 	O 	0.77661 0.25021 0.44134 -0.36500
O 	O 	0.68822 0.14472 0.48512 -0.44200
O 	O 	0.47170 0.20999 0.51067 -0.38100
C 	C 	0.42924 0.23201 0.48387 0.28800
O 	O 	0.46812 0.29581 0.45672 -0.39400
O 	O 	0.70144 0.29357 0.37964 -0.36100
C 	C 	0.74593 0.17227 0.45739 0.28000
O 	O 	0.59531 0.26028 0.58578 -0.38600
O 	O 	0.72307 0.27843 0.60527 -0.42200
H 	H 	0.54640 0.18652 0.43147 0.16300
C 	C 	0.65303 0.28243 0.66770 -0.10100
C 	C 	0.65092 0.28726 0.70987 0.03500
C 	C 	0.65070 0.29322 0.75952 0.03100
C 	C 	0.65184 0.29960 0.80204 -0.09100
C 	C 	0.65305 0.28246 0.16770 -0.10300
C 	C 	0.65092 0.28727 0.20987 0.03400
C 	C 	0.65069 0.29321 0.25952 0.03000
C 	C 	0.65182 0.29957 0.30204 -0.09200
C 	C 	0.92086 0.14100 0.44934 -0.03900
C 	C 	0.88109 0.05203 0.46127 -0.02300
C 	C 	0.74781 0.03615 0.46203 -0.04000
C 	C 	0.78917 0.12720 0.45305 -0.07600
C 	C 	0.87524 0.17837 0.44535 -0.00800
H 	H 	0.98746 0.18194 0.44388 0.04000
H 	H 	0.90787 0.24822 0.43781 0.03800
C 	C 	0.19903 0.15520 0.45508 -0.04600
C 	C 	0.16170 0.10320 0.49081 0.00100
C 	C 	0.21385 0.09889 0.52624 -0.04600
C 	C 	0.30141 0.14223 0.52459 0.00500
C 	C 	0.33788 0.19044 0.48742 -0.07900
C 	C 	0.28647 0.19823 0.45322 0.00500
H 	H 	0.15942 0.15887 0.42749 0.04800
H 	H 	0.18590 0.05979 0.55434 0.04800
H 	H 	0.34043 0.13733 0.55190 0.04300
H 	H 	0.31355 0.23561 0.42447 0.03500
C 	C 	0.88113 0.05209 0.96127 -0.02200
C 	C 	0.92090 0.14106 0.94934 -0.03900
C 	C 	0.87528 0.17842 0.94535 -0.00700
C 	C 	0.78921 0.12726 0.95306 -0.07500
C 	C 	0.74785 0.03620 0.96204 -0.03800
H 	H 	0.98750 0.18200 0.94388 0.04200
H 	H 	0.90791 0.24828 0.93782 0.03900
C 	C 	0.19906 0.15526 0.95508 -0.04800
C 	C 	0.16173 0.10326 0.99081 0.01500
C 	C 	0.21388 0.09895 0.02624 -0.05900
C 	C 	0.30144 0.14229 0.02459 -0.00500
C 	C 	0.33791 0.19050 0.98742 -0.06900
C 	C 	0.28651 0.19829 0.95322 0.00500
H 	H 	0.15946 0.15893 0.92749 0.05000
H 	H 	0.18593 0.05985 0.05434 0.04700
H 	H 	0.34046 0.13739 0.05191 0.04200
H 	H 	0.31358 0.23567 0.92448 0.03600
O 	O 	0.62795 0.35656 0.87163 -0.38300
O 	O 	0.62791 0.35651 0.37163 -0.38400
C 	C 	0.79351 0.99907 0.96640 -0.00900
C 	C 	0.79347 0.99901 0.46639 -0.00900
H 	H 	0.68092 0.99501 0.96699 0.05100
N 	N 	0.02463 0.95121 0.99035 -0.11700
C 	C 	0.93657 0.89171 0.98264 0.10300
N 	N 	0.89016 0.92404 0.97246 -0.13000
N 	N 	0.02459 0.95115 0.49035 -0.11900
C 	C 	0.93653 0.89165 0.48264 0.09900
N 	N 	0.89012 0.92398 0.47246 -0.13000
O 	O 	0.78629 0.45621 0.95592 -0.36000
C 	C 	0.75790 0.49775 0.97790 0.28400
O 	O 	0.67900 0.44687 0.98706 -0.38900
H 	H 	0.76118 0.38364 0.03819 0.17100
O 	O 	0.78626 0.45615 0.45592 -0.36200
C 	C 	0.75786 0.49769 0.47790 0.28200
O 	O 	0.67897 0.44681 0.48706 -0.39300
H 	H 	0.76114 0.38357 0.53819 0.17300
C 	C 	0.88807 0.65435 0.46892 0.00600
C 	C 	0.80724 0.60029 0.48337 -0.08200
C 	C 	0.77041 0.64337 0.49923 0.00200
C 	C 	0.81227 0.73825 0.49883 -0.04600
C 	C 	0.89169 0.79134 0.48294 0.00100
C 	C 	0.92970 0.74899 0.46842 -0.04800
H 	H 	0.91802 0.62279 0.45717 0.03900
H 	H 	0.70875 0.60320 0.51116 0.03500
H 	H 	0.78307 0.77040 0.51104 0.04700
H 	H 	0.99104 0.78911 0.45613 0.04600
H 	H 	0.76113 0.92988 0.47488 0.03900
H 	H 	0.68088 0.99495 0.46698 0.05000
C 	C 	0.81231 0.73831 0.99883 -0.03500
C 	C 	0.89173 0.79140 0.98294 -0.00100
C 	C 	0.92973 0.74904 0.96842 -0.04600
C 	C 	0.88811 0.65441 0.96892 0.00700
C 	C 	0.80728 0.60035 0.98337 -0.08400
C 	C 	0.77045 0.64343 0.99923 0.01400
H 	H 	0.78312 0.77046 0.01104 0.03400
H 	H 	0.99107 0.78917 0.95613 0.04800
H 	H 	0.91805 0.62285 0.95717 0.04000
H 	H 	0.70878 0.60326 0.01116 0.02300
H 	H 	0.76117 0.92993 0.97489 0.04100
