data_crystal

_cell_length_a 21.07403
_cell_length_b 21.94345
_cell_length_c 34.79501
_cell_angle_alpha 91.23319
_cell_angle_beta  91.50105
_cell_angle_gamma 116.11473

_symmetry_space_group_name_	'P 1'
_symmetry_space_group_name_H-M	'P 1'

loop_
_symmetry_equiv_pos_as_xyz
  x,y,z

loop_
_atom_site_label
_atom_site_type_symbol
_atom_site_fract_x
_atom_site_fract_y
_atom_site_fract_z
_atom_site_charge
Ni	Ni	0.08026 0.09005 0.29783 1.11200
O 	O 	0.02130 0.98748 0.30358 -0.75400
Ni	Ni	0.03889 0.97697 0.35986 1.07400
O 	O 	0.05855 0.08497 0.23958 -0.37400
O 	O 	0.08384 0.99619 0.22670 -0.49600
O 	O 	0.98855 0.09936 0.30282 -0.33700
Ni	Ni	0.05903 0.93495 0.27403 1.05800
O 	O 	0.15357 0.22141 0.35898 -0.41300
O 	O 	0.15741 0.99292 0.29785 -0.44300
O 	O 	0.97884 0.87460 0.36088 -0.38000
O 	O 	0.10103 0.07832 0.35372 -0.67100
O 	O 	0.13507 0.19351 0.29536 -0.36900
O 	O 	0.05030 0.98128 0.41930 -0.45300
O 	O 	0.01900 0.06765 0.42319 -0.43000
Ni	Ni	0.08567 0.14198 0.38848 1.07000
H 	H 	0.97029 0.97195 0.29740 0.15800
H 	H 	0.15155 0.08844 0.35663 0.17200
C 	C 	0.17463 0.98053 0.33225 0.27300
O 	O 	0.99640 0.14124 0.36363 -0.36100
C 	C 	0.05015 0.03222 0.21770 0.38100
C 	C 	0.98824 0.83566 0.33452 0.30200
C 	C 	0.95959 0.09796 0.33573 0.26700
C 	C 	0.03970 0.02654 0.44000 0.36400
C 	C 	0.13455 0.23213 0.32464 0.28600
O 	O 	0.12785 0.96048 0.35920 -0.38100
O 	O 	0.04288 0.86140 0.31234 -0.43200
Ni	Ni	0.94029 0.51843 0.30377 1.10100
O 	O 	0.93310 0.42292 0.30762 -0.69700
Ni	Ni	0.98276 0.42974 0.35907 1.10500
O 	O 	0.91563 0.51030 0.24564 -0.36400
O 	O 	0.99890 0.47410 0.23286 -0.40100
O 	O 	0.83353 0.48341 0.31088 -0.36500
Ni	Ni	0.97518 0.39121 0.26688 1.07700
O 	O 	0.88617 0.59244 0.36181 -0.40000
O 	O 	0.08153 0.42966 0.28157 -0.39900
O 	O 	0.98767 0.33823 0.35849 -0.37200
O 	O 	0.98035 0.52188 0.35713 -0.68000
O 	O 	0.94639 0.61307 0.30578 -0.37100
O 	O 	0.02341 0.44986 0.41496 -0.39600
O 	O 	0.93198 0.47057 0.43424 -0.41200
Ni	Ni	0.91431 0.52961 0.39313 1.06800
H 	H 	0.88304 0.38941 0.30927 0.15500
H 	H 	0.02793 0.56050 0.36076 0.13500
C 	C 	0.11016 0.44837 0.31646 0.29000
O 	O 	0.82959 0.44504 0.37152 -0.40900
C 	C 	0.94933 0.49056 0.22088 0.26800
C 	C 	0.99080 0.30683 0.32632 0.32200
C 	C 	0.79763 0.44592 0.33884 0.28500
C 	C 	0.99453 0.47247 0.44134 0.32600
C 	C 	0.92751 0.63527 0.33691 0.27500
O 	O 	0.08437 0.47709 0.34096 -0.39700
O 	O 	0.95331 0.30560 0.29533 -0.41000
Ni	Ni	0.49442 0.98230 0.36519 1.06400
O 	O 	0.59974 0.01027 0.35933 -0.64000
Ni	Ni	0.60093 0.97225 0.30649 1.06800
O 	O 	0.51364 0.02724 0.41914 -0.34900
O 	O 	0.56932 0.96440 0.44007 -0.48900
O 	O 	0.51272 0.07477 0.34429 -0.35900
Ni	Ni	0.63631 0.96663 0.39615 1.04200
O 	O 	0.35299 0.90886 0.30886 -0.43300
O 	O 	0.56357 0.87000 0.38010 -0.42200
O 	O 	0.70784 0.00875 0.30423 -0.34400
O 	O 	0.49477 0.93652 0.31450 -0.72300
O 	O 	0.38899 0.95899 0.36925 -0.40600
O 	O 	0.58923 0.94596 0.24825 -0.36500
O 	O 	0.51994 0.00026 0.23961 -0.31500
Ni	Ni	0.43718 0.95581 0.27600 1.04300
H 	H 	0.62833 0.06019 0.36076 0.15900
H 	H 	0.47274 0.88688 0.31781 0.15700
C 	C 	0.56364 0.84128 0.34664 0.28100
O 	O 	0.44200 0.04950 0.28987 -0.35200
C 	C 	0.54765 0.01162 0.44642 0.35900
C 	C 	0.74401 0.00697 0.33543 0.35600
C 	C 	0.46566 0.08364 0.32287 0.30000
C 	C 	0.55090 0.96497 0.22542 0.17700
C 	C 	0.34367 0.93989 0.33937 0.28600
O 	O 	0.59610 0.87814 0.31753 -0.37800
O 	O 	0.71243 0.96264 0.36215 -0.47900
Ni	Ni	0.45762 0.50033 0.30816 1.10100
O 	O 	0.42244 0.39746 0.31271 -0.69900
Ni	Ni	0.46012 0.39230 0.36549 1.09900
O 	O 	0.45137 0.49725 0.24912 -0.36700
O 	O 	0.51565 0.43690 0.24720 -0.41000
O 	O 	0.35538 0.49096 0.30768 -0.36200
Ni	Ni	0.45670 0.35015 0.27664 1.07300
O 	O 	0.42667 0.59915 0.36175 -0.40300
O 	O 	0.54775 0.35195 0.30149 -0.38800
O 	O 	0.44717 0.29245 0.36591 -0.36400
O 	O 	0.48055 0.49297 0.36333 -0.69800
O 	O 	0.49234 0.60307 0.30934 -0.36800
O 	O 	0.49023 0.40512 0.42288 -0.35800
O 	O 	0.41347 0.45011 0.43540 -0.40700
Ni	Ni	0.42234 0.52099 0.39471 1.06700
H 	H 	0.37013 0.37408 0.31236 0.16200
H 	H 	0.53111 0.52343 0.36928 0.15600
C 	C 	0.58728 0.39340 0.32961 0.30500
O 	O 	0.32993 0.45314 0.36867 -0.40900
C 	C 	0.48399 0.46864 0.22943 0.27000
C 	C 	0.42612 0.24946 0.33549 0.28900
C 	C 	0.30952 0.46426 0.33476 0.28600
C 	C 	0.46794 0.43929 0.44599 0.26400
C 	C 	0.47908 0.63383 0.33898 0.26600
O 	O 	0.56347 0.42692 0.35183 -0.39400
O 	O 	0.40042 0.26367 0.30391 -0.40800
Ni	Ni	0.98868 0.07792 0.96793 1.11500
O 	O 	0.89118 0.00257 0.97959 -0.65100
Ni	Ni	0.91047 0.97210 0.03089 1.07100
O 	O 	0.97030 0.07301 0.90935 -0.37100
O 	O 	0.93390 0.95887 0.90803 -0.48500
O 	O 	0.95282 0.15256 0.97108 -0.34900
Ni	Ni	0.84893 0.92391 0.94375 1.05200
O 	O 	0.08716 0.20639 0.01956 -0.41200
O 	O 	0.88011 0.85154 0.96118 -0.38900
O 	O 	0.81804 0.88571 0.03832 -0.38800
O 	O 	0.00323 0.05664 0.02213 -0.69800
O 	O 	0.08788 0.15330 0.96216 -0.37600
O 	O 	0.94319 0.96774 0.08661 -0.43300
O 	O 	0.96018 0.07666 0.09873 -0.39700
Ni	Ni	0.02131 0.13593 0.05554 1.06100
H 	H 	0.85735 0.02218 0.98304 0.16600
H 	H 	0.04407 0.04575 0.02386 0.16700
C 	C 	0.92520 0.85640 0.98940 0.29300
O 	O 	0.93802 0.15153 0.03597 -0.39000
C 	C 	0.95176 0.01539 0.88988 0.35200
C 	C 	0.77262 0.85169 0.00981 0.29300
C 	C 	0.93995 0.17905 0.00269 0.28900
C 	C 	0.96607 0.02231 0.10962 0.33600
C 	C 	0.12196 0.19202 0.99258 0.27200
O 	O 	0.95782 0.91266 0.01122 -0.39900
O 	O 	0.76692 0.88246 0.97877 -0.43400
Ni	Ni	0.00980 0.58147 0.97015 1.08900
O 	O 	0.90581 0.51170 0.97051 -0.69400
Ni	Ni	0.89938 0.47457 0.02348 1.10000
O 	O 	0.01464 0.58529 0.91081 -0.40200
O 	O 	0.96936 0.47016 0.90591 -0.40900
O 	O 	0.98439 0.66365 0.96997 -0.34800
Ni	Ni	0.87309 0.43631 0.93211 1.07200
O 	O 	0.09958 0.69872 0.03139 -0.41900
O 	O 	0.89325 0.35924 0.95356 -0.37600
O 	O 	0.79797 0.39806 0.02040 -0.37800
O 	O 	0.00045 0.55116 0.02462 -0.71400
O 	O 	0.11322 0.64942 0.97551 -0.37800
O 	O 	0.90545 0.46030 0.08147 -0.36200
O 	O 	0.93546 0.57194 0.09499 -0.40200
Ni	Ni	0.01640 0.62836 0.05925 1.05600
H 	H 	0.87494 0.53498 0.96867 0.15600
H 	H 	0.03552 0.53376 0.03067 0.14900
C 	C 	0.91393 0.35355 0.98882 0.28900
O 	O 	0.94670 0.65449 0.03146 -0.39900
C 	C 	0.99764 0.52918 0.88983 0.32400
C 	C 	0.76812 0.36315 0.98824 0.29300
C 	C 	0.96312 0.68768 0.99967 0.28500
C 	C 	0.92621 0.51209 0.10631 0.27300
C 	C 	0.13992 0.68358 0.00837 0.26800
O 	O 	0.94144 0.40659 0.01320 -0.37500
O 	O 	0.77685 0.39357 0.95526 -0.41100
Ni	Ni	0.57472 0.03505 0.96891 1.11500
O 	O 	0.47844 0.95600 0.97715 -0.73200
Ni	Ni	0.49117 0.92053 0.02770 1.07900
O 	O 	0.55368 0.04144 0.91140 -0.30500
O 	O 	0.52189 0.92848 0.90148 -0.42300
O 	O 	0.53137 0.10109 0.98141 -0.35900
Ni	Ni	0.44021 0.88210 0.93857 1.06800
O 	O 	0.70377 0.13901 0.02948 -0.39900
O 	O 	0.47141 0.80829 0.95363 -0.39500
O 	O 	0.39451 0.83617 0.03029 -0.38400
O 	O 	0.58741 0.00253 0.02082 -0.59900
O 	O 	0.67053 0.11717 0.96540 -0.36800
O 	O 	0.51569 0.90903 0.08436 -0.35800
O 	O 	0.54376 0.02011 0.09758 -0.32800
Ni	Ni	0.61913 0.07700 0.05946 1.07700
H 	H 	0.44328 0.97409 0.98033 0.13800
H 	H 	0.62468 0.98679 0.01909 0.07400
C 	C 	0.50172 0.80494 0.98661 0.29500
O 	O 	0.55735 0.12433 0.04569 -0.38400
C 	C 	0.53382 0.98786 0.88793 0.22400
C 	C 	0.34539 0.81206 0.00181 0.28700
C 	C 	0.55046 0.14441 0.01124 0.28000
C 	C 	0.53898 0.96172 0.10888 0.17400
C 	C 	0.69762 0.16022 0.99505 0.28200
O 	O 	0.53594 0.85960 0.00888 -0.39600
O 	O 	0.35215 0.84311 0.96905 -0.42500
Ni	Ni	0.55812 0.52333 0.97625 1.09700
O 	O 	0.46231 0.43927 0.97826 -0.70000
Ni	Ni	0.46186 0.41330 0.03321 1.09900
O 	O 	0.54339 0.53176 0.91832 -0.36700
O 	O 	0.52699 0.42314 0.90759 -0.40700
O 	O 	0.50578 0.58141 0.98796 -0.38600
Ni	Ni	0.45168 0.36252 0.94483 1.06800
O 	O 	0.68227 0.61534 0.04046 -0.41300
O 	O 	0.53093 0.34798 0.97135 -0.40500
O 	O 	0.36208 0.33678 0.03160 -0.37000
O 	O 	0.56158 0.49074 0.02959 -0.69900
O 	O 	0.65207 0.61055 0.97620 -0.37700
O 	O 	0.46487 0.41214 0.09228 -0.36900
O 	O 	0.49655 0.52531 0.09588 -0.40800
Ni	Ni	0.58981 0.56753 0.06684 1.07200
H 	H 	0.42271 0.45104 0.97301 0.15400
H 	H 	0.59699 0.47252 0.03071 0.15800
C 	C 	0.52117 0.31742 0.00393 0.29300
O 	O 	0.55665 0.63588 0.04558 -0.38500
C 	C 	0.52784 0.47915 0.89466 0.26800
C 	C 	0.33524 0.30063 0.99940 0.26900
C 	C 	0.53261 0.63678 0.01039 0.29100
C 	C 	0.47779 0.46754 0.11273 0.27200
C 	C 	0.68511 0.64567 0.00793 0.28900
O 	O 	0.49913 0.33973 0.03382 -0.36000
O 	O 	0.37632 0.28863 0.97536 -0.40100
Ni	Ni	0.93923 0.97611 0.69278 1.08900
O 	O 	0.00861 0.07626 0.68819 -0.70100
Ni	Ni	0.05071 0.07445 0.63699 1.10300
O 	O 	0.92617 0.98269 0.75086 -0.45000
O 	O 	0.04503 0.03433 0.76284 -0.43100
O 	O 	0.85339 0.99666 0.68542 -0.44300
Ni	Ni	0.08354 0.11757 0.72837 1.07300
O 	O 	0.81601 0.88887 0.63583 -0.42000
O 	O 	0.16347 0.09225 0.71393 -0.37800
O 	O 	0.13352 0.17060 0.63674 -0.38100
O 	O 	0.97236 0.97733 0.63929 -0.73300
O 	O 	0.86950 0.87646 0.69136 -0.38000
O 	O 	0.06953 0.05666 0.58095 -0.34700
O 	O 	0.95412 0.02455 0.56318 -0.35500
Ni	Ni	0.89216 0.95905 0.60382 1.03800
H 	H 	0.98280 0.10443 0.68615 0.18100
H 	H 	0.99026 0.94286 0.63561 0.15100
C 	C 	0.17227 0.06965 0.68010 0.29400
O 	O 	0.87382 0.03675 0.62494 -0.39700
C 	C 	0.98074 0.01079 0.77513 0.38900
C 	C 	0.16398 0.20639 0.66869 0.29000
C 	C 	0.84516 0.03335 0.65822 0.37600
C 	C 	0.01683 0.02984 0.55509 0.23600
C 	C 	0.82863 0.84976 0.66021 0.27500
O 	O 	0.11820 0.03628 0.65608 -0.37100
O 	O 	0.12651 0.20335 0.69873 -0.42100
Ni	Ni	0.00354 0.45406 0.69920 1.08600
O 	O 	0.07864 0.54929 0.68824 -0.70500
Ni	Ni	0.10288 0.53670 0.63425 1.09800
O 	O 	0.99144 0.48724 0.75304 -0.33500
O 	O 	0.10908 0.52576 0.76909 -0.40100
O 	O 	0.93183 0.48491 0.67700 -0.38100
Ni	Ni	0.16331 0.57678 0.72130 1.06400
O 	O 	0.92404 0.31021 0.65062 -0.40600
O 	O 	0.17829 0.49405 0.70515 -0.41300
O 	O 	0.17128 0.63563 0.62687 -0.37600
O 	O 	0.03697 0.43900 0.64769 -0.70700
O 	O 	0.92375 0.35950 0.70909 -0.36700
O 	O 	0.10036 0.51635 0.57554 -0.36200
O 	O 	0.98039 0.46329 0.57497 -0.37900
Ni	Ni	0.95603 0.38554 0.61275 1.07900
H 	H 	0.06010 0.58361 0.68963 0.15100
H 	H 	0.06428 0.41259 0.65159 0.15200
C 	C 	0.20442 0.49058 0.67178 0.28200
O 	O 	0.87416 0.40594 0.62831 -0.38200
C 	C 	0.04568 0.51919 0.77750 0.22900
C 	C 	0.21647 0.66879 0.65564 0.26700
C 	C 	0.87349 0.44454 0.65757 0.29800
C 	C 	0.03901 0.48582 0.55640 0.22600
C 	C 	0.89032 0.31404 0.68115 0.29100
O 	O 	0.18958 0.51697 0.64118 -0.36500
O 	O 	0.23279 0.63526 0.68215 -0.40400
Ni	Ni	0.45634 0.99471 0.69370 1.06100
O 	O 	0.52515 0.09552 0.69184 -0.68200
Ni	Ni	0.56172 0.10033 0.63865 1.09900
O 	O 	0.45637 0.99230 0.75305 -0.45000
O 	O 	0.57650 0.04026 0.75543 -0.39400
O 	O 	0.37105 0.01761 0.69410 -0.32100
Ni	Ni	0.60485 0.13214 0.72952 1.07500
O 	O 	0.32782 0.91295 0.63766 -0.43600
O 	O 	0.68720 0.11920 0.70615 -0.37600
O 	O 	0.64472 0.19654 0.63983 -0.37300
O 	O 	0.48338 0.00266 0.63866 -0.60000
O 	O 	0.38593 0.89501 0.68966 -0.39400
O 	O 	0.57722 0.08951 0.58138 -0.35300
O 	O 	0.46038 0.05581 0.56573 -0.38100
Ni	Ni	0.40073 0.98716 0.60609 1.02200
H 	H 	0.49922 0.12366 0.69324 0.15800
H 	H 	0.50111 0.96899 0.63193 0.07800
C 	C 	0.68577 0.08697 0.67358 0.29600
O 	O 	0.38515 0.06124 0.63414 -0.39200
C 	C 	0.51662 0.01134 0.77277 0.31000
C 	C 	0.67596 0.23074 0.67206 0.29200
C 	C 	0.35404 0.04972 0.66712 0.28400
C 	C 	0.52316 0.06211 0.55656 0.27000
C 	C 	0.34252 0.87139 0.65907 0.26900
O 	O 	0.62793 0.05745 0.65178 -0.37200
O 	O 	0.64015 0.22175 0.70350 -0.41400
Ni	Ni	0.49251 0.43125 0.70071 1.10000
O 	O 	0.56993 0.52633 0.69107 -0.70000
Ni	Ni	0.58914 0.51686 0.63576 1.10200
O 	O 	0.48708 0.46011 0.75654 -0.36600
O 	O 	0.60473 0.49167 0.76736 -0.40800
O 	O 	0.42425 0.46991 0.68353 -0.39200
Ni	Ni	0.65654 0.55028 0.72165 1.06700
O 	O 	0.41190 0.29266 0.64972 -0.41500
O 	O 	0.66800 0.46863 0.70065 -0.41300
O 	O 	0.65858 0.61551 0.62949 -0.37400
O 	O 	0.52200 0.41894 0.64775 -0.69700
O 	O 	0.40953 0.33740 0.70915 -0.37200
O 	O 	0.58056 0.50009 0.57695 -0.36900
O 	O 	0.46136 0.45370 0.58058 -0.41300
Ni	Ni	0.43745 0.37080 0.61433 1.07400
H 	H 	0.55323 0.56173 0.69446 0.15700
H 	H 	0.54817 0.39104 0.64945 0.16000
C 	C 	0.69502 0.47037 0.66711 0.29000
O 	O 	0.35815 0.38894 0.63710 -0.38900
C 	C 	0.54424 0.48732 0.77933 0.26700
C 	C 	0.70521 0.64705 0.65787 0.26900
C 	C 	0.36504 0.43590 0.66324 0.30200
C 	C 	0.51746 0.47498 0.55991 0.27000
C 	C 	0.37789 0.29185 0.68088 0.29200
O 	O 	0.67445 0.49407 0.63730 -0.36200
O 	O 	0.72349 0.61219 0.68263 -0.40400
C 	C 	0.81477 0.28420 0.67868 -0.04500
C 	C 	0.75142 0.26087 0.67564 -0.04400
C 	C 	0.29677 0.80032 0.65563 -0.06200
C 	C 	0.25908 0.74028 0.65414 -0.05700
C 	C 	0.75762 0.46057 0.66480 -0.04100
C 	C 	0.81097 0.45372 0.66228 -0.03600
C 	C 	0.30784 0.45397 0.66748 -0.04300
C 	C 	0.25997 0.46968 0.67008 -0.04200
C 	C 	0.78412 0.77859 0.65807 -0.05900
C 	C 	0.74738 0.71849 0.65705 -0.05300
C 	C 	0.23920 0.23599 0.67363 -0.05000
C 	C 	0.30241 0.26017 0.67790 -0.04500
C 	C 	0.79095 0.05547 0.66185 -0.05200
C 	C 	0.74341 0.07090 0.66646 -0.01100
C 	C 	0.23690 0.06420 0.67452 -0.02900
C 	C 	0.29105 0.05891 0.67083 -0.02600
C 	C 	0.53165 0.48822 0.85416 -0.05000
C 	C 	0.53611 0.48999 0.81983 -0.04800
C 	C 	0.51184 0.74478 0.99366 -0.04100
C 	C 	0.52038 0.69467 0.00028 -0.03500
C 	C 	0.54058 0.20560 0.00848 -0.02700
C 	C 	0.53235 0.25693 0.00672 -0.03900
C 	C 	0.52405 0.99404 0.84739 -0.18600
C 	C 	0.51789 0.00045 0.81331 0.07900
C 	C 	0.74067 0.29108 0.98813 -0.05000
C 	C 	0.72092 0.23101 0.99005 -0.03900
C 	C 	0.27594 0.76327 0.00987 -0.05100
C 	C 	0.21427 0.72530 0.01125 -0.05100
C 	C 	0.01781 0.53201 0.85034 -0.09800
C 	C 	0.03173 0.52829 0.81709 -0.02400
C 	C 	0.74089 0.77914 0.00911 -0.04700
C 	C 	0.71597 0.71818 0.00825 -0.04500
C 	C 	0.26041 0.26112 0.99526 -0.04800
C 	C 	0.19717 0.22914 0.99297 -0.05200
C 	C 	0.94286 0.79960 0.99405 -0.04000
C 	C 	0.95311 0.74917 0.99632 -0.03600
C 	C 	0.92326 0.29283 0.99680 -0.02900
C 	C 	0.93020 0.24085 0.00052 -0.02900
C 	C 	0.97013 0.01341 0.81543 -0.05000
C 	C 	0.96188 0.01546 0.84942 -0.02800
C 	C 	0.49298 0.45272 0.48531 -0.05000
C 	C 	0.50846 0.46419 0.51908 -0.05800
C 	C 	0.47840 0.46660 0.15377 -0.05300
C 	C 	0.48061 0.46758 0.18835 -0.05200
C 	C 	0.54172 0.03058 0.48542 -0.05200
C 	C 	0.53422 0.04574 0.51792 -0.02100
C 	C 	0.50905 0.70696 0.34069 -0.04500
C 	C 	0.53400 0.76828 0.34297 -0.05500
C 	C 	0.44090 0.19110 0.33455 -0.03400
C 	C 	0.45301 0.14230 0.33043 -0.02400
C 	C 	0.54481 0.95316 0.14953 -0.05300
C 	C 	0.54939 0.95495 0.18429 -0.05700
C 	C 	0.03439 0.48492 0.51500 -0.02800
C 	C 	0.02024 0.48023 0.48082 -0.09600
C 	C 	0.72241 0.42197 0.33713 -0.03700
C 	C 	0.66016 0.40690 0.33400 -0.04100
C 	C 	0.18018 0.45396 0.32384 -0.04000
C 	C 	0.23888 0.45800 0.32910 -0.04000
C 	C 	0.93206 0.50210 0.14654 -0.05000
C 	C 	0.93913 0.49634 0.18051 -0.04600
C 	C 	0.03150 0.02532 0.51539 -0.01300
C 	C 	0.03765 0.02335 0.48110 -0.07400
C 	C 	0.95782 0.76435 0.33909 -0.05300
C 	C 	0.94042 0.70455 0.33951 -0.04400
C 	C 	0.08610 0.26100 0.32265 -0.04600
C 	C 	0.04245 0.28195 0.32369 -0.07500
C 	C 	0.81995 0.04019 0.33579 -0.05500
C 	C 	0.88375 0.06735 0.33622 -0.01200
C 	C 	0.23553 0.96871 0.33682 -0.05800
C 	C 	0.28518 0.95590 0.33920 -0.07200
C 	C 	0.99484 0.02206 0.14746 0.01100
C 	C 	0.02014 0.02555 0.17941 -0.09800
