data_crystal

_cell_length_a 24.79300
_cell_length_b 21.79674
_cell_length_c 19.71329
_cell_angle_alpha 92.70246
_cell_angle_beta  85.31733
_cell_angle_gamma 124.79347

_symmetry_space_group_name_	'P 1'
_symmetry_space_group_name_H-M	'P 1'

loop_
_symmetry_equiv_pos_as_xyz
  x,y,z

loop_
_atom_site_label
_atom_site_type_symbol
_atom_site_fract_x
_atom_site_fract_y
_atom_site_fract_z
_atom_site_charge
C 	C 	0.90169 0.07740 0.95935 0.00900
C 	C 	0.92070 0.03787 0.91785 -0.03100
C 	C 	0.94739 0.00401 0.94644 -0.07200
C 	C 	0.95670 0.01105 0.01669 0.08200
C 	C 	0.94073 0.05380 0.05716 -0.07000
C 	C 	0.91316 0.08663 0.02875 -0.02600
N 	N 	0.97787 0.97063 0.04861 -0.14400
C 	C 	0.18408 0.07979 0.06031 0.01700
C 	C 	0.14046 0.04223 0.11692 -0.03600
C 	C 	0.07280 0.00648 0.11255 -0.06400
C 	C 	0.04801 0.00780 0.05161 0.07900
C 	C 	0.09196 0.04572 0.99474 -0.07100
C 	C 	0.15964 0.08146 0.99923 -0.03800
C 	C 	0.86567 0.73609 0.01390 0.01400
C 	C 	0.92460 0.78323 0.97460 -0.03700
C 	C 	0.96143 0.86056 0.98496 -0.07300
C 	C 	0.93975 0.89127 0.03538 0.08000
C 	C 	0.88031 0.84394 0.07376 -0.06800
C 	C 	0.84349 0.76674 0.06320 -0.03300
H 	H 	0.91249 0.03102 0.86406 0.03600
H 	H 	0.95970 0.97139 0.91444 0.04500
H 	H 	0.94792 0.05966 0.11114 0.05000
H 	H 	0.89909 0.11759 0.06102 0.03900
H 	H 	0.15895 0.04027 0.16413 0.03800
H 	H 	0.03943 0.97752 0.15651 0.04600
H 	H 	0.07383 0.04610 0.94688 0.04600
H 	H 	0.19301 0.10964 0.95503 0.03800
H 	H 	0.94195 0.75994 0.93627 0.03600
H 	H 	0.00632 0.89638 0.95370 0.04600
H 	H 	0.86307 0.86712 0.11232 0.04800
H 	H 	0.79806 0.73066 0.09380 0.03800
C 	C 	0.93571 0.14826 0.49407 -0.02500
C 	C 	0.98394 0.14473 0.45543 -0.01600
C 	C 	0.00798 0.10629 0.48037 -0.07600
C 	C 	0.98380 0.07096 0.54445 0.08200
C 	C 	0.93545 0.07443 0.58263 -0.07400
C 	C 	0.91133 0.11259 0.55757 -0.01500
N 	N 	0.00739 0.03049 0.57129 -0.14400
C 	C 	0.21435 0.13745 0.56640 -0.02600
C 	C 	0.18173 0.15121 0.61998 -0.01500
C 	C 	0.11387 0.11710 0.62045 -0.07500
C 	C 	0.07801 0.06892 0.56753 0.08300
C 	C 	0.11109 0.05615 0.51320 -0.07700
C 	C 	0.17878 0.09002 0.51293 -0.01500
C 	C 	0.90257 0.79821 0.52721 -0.02800
C 	C 	0.91786 0.84873 0.47535 -0.01500
C 	C 	0.95120 0.92499 0.48952 -0.07700
C 	C 	0.97050 0.95165 0.55581 0.08200
C 	C 	0.95502 0.90096 0.60745 -0.07500
C 	C 	0.92101 0.82463 0.59339 -0.01500
H 	H 	0.00306 0.17213 0.40635 0.03200
H 	H 	0.04475 0.10345 0.44982 0.04800
H 	H 	0.91648 0.04726 0.63179 0.05100
H 	H 	0.87382 0.11472 0.58759 0.03600
H 	H 	0.20893 0.18827 0.66121 0.03200
H 	H 	0.08887 0.12730 0.66236 0.05100
H 	H 	0.08460 0.02067 0.47107 0.04900
H 	H 	0.20366 0.07938 0.47118 0.03300
H 	H 	0.90416 0.82890 0.42401 0.03000
H 	H 	0.96360 0.96325 0.44873 0.04800
H 	H 	0.96953 0.92096 0.65854 0.04900
H 	H 	0.90874 0.78595 0.63395 0.03000
Co	Co	0.71517 0.27668 0.96706 1.18100
O 	O 	0.78767 0.27303 0.90824 -0.37900
Co	Co	0.58418 0.28019 0.01242 1.18300
O 	O 	0.63206 0.24875 0.92332 -0.47100
O 	O 	0.66523 0.37711 0.03546 -0.42100
O 	O 	0.70377 0.17238 0.94867 -0.35200
C 	C 	0.71928 0.41569 0.99458 0.31500
O 	O 	0.58999 0.31007 0.90886 -0.37400
C 	C 	0.46144 0.20618 0.05329 0.27200
C 	C 	0.66620 0.25427 0.09676 0.31100
O 	O 	0.50648 0.27342 0.07136 -0.37200
O 	O 	0.48576 0.18044 0.01013 -0.35400
O 	O 	0.72533 0.27748 0.07392 -0.36300
O 	O 	0.62635 0.23173 0.04829 -0.46500
O 	O 	0.74799 0.38472 0.96282 -0.51900
C 	C 	0.75875 0.20168 0.91258 0.27900
C 	C 	0.62621 0.28881 0.88219 0.30700
H 	H 	0.79072 0.41777 0.93426 0.16200
Co	Co	0.74735 0.34534 0.46648 1.18100
O 	O 	0.82217 0.34436 0.41020 -0.38900
Co	Co	0.61179 0.34000 0.50685 1.18200
O 	O 	0.65913 0.29988 0.42523 -0.46100
O 	O 	0.68702 0.44611 0.51746 -0.42800
O 	O 	0.74800 0.24754 0.46473 -0.35500
C 	C 	0.74787 0.47965 0.48908 0.35000
O 	O 	0.60821 0.34775 0.39965 -0.36700
C 	C 	0.49156 0.26503 0.55748 0.30800
C 	C 	0.70544 0.34375 0.59687 0.30300
O 	O 	0.53540 0.33538 0.56554 -0.38000
O 	O 	0.51600 0.23591 0.51898 -0.35400
O 	O 	0.76409 0.36604 0.57261 -0.37400
O 	O 	0.66298 0.30766 0.55127 -0.46600
O 	O 	0.76562 0.44441 0.44623 -0.54300
C 	C 	0.80169 0.27725 0.42629 0.31100
C 	C 	0.64678 0.32793 0.37719 0.30200
H 	H 	0.80097 0.47401 0.40874 0.16800
C 	C 	0.68621 0.32980 0.67036 -0.09500
C 	C 	0.72314 0.38545 0.71951 0.05600
C 	C 	0.70520 0.36839 0.78890 -0.03000
C 	C 	0.64905 0.29914 0.81001 -0.10900
C 	C 	0.61124 0.24414 0.76119 0.06400
C 	C 	0.63063 0.25977 0.69178 -0.03300
H 	H 	0.73287 0.41099 0.82660 0.03000
H 	H 	0.60180 0.21750 0.65431 0.04900
C 	C 	0.77741 0.46534 0.69910 -0.11700
C 	C 	0.54735 0.17083 0.78194 -0.11800
C 	C 	0.75002 0.51075 0.68370 -0.01700
H 	H 	0.71051 0.47986 0.64770 0.03800
H 	H 	0.79031 0.56393 0.65879 0.03200
C 	C 	0.48908 0.17781 0.78299 -0.01500
H 	H 	0.48476 0.19195 0.73114 0.03100
H 	H 	0.49720 0.22328 0.81819 0.04400
H 	H 	0.81218 0.49360 0.74017 0.05000
H 	H 	0.54974 0.15219 0.83242 0.06700
C 	C 	0.72321 0.52963 0.74789 -0.16100
C 	C 	0.42451 0.10524 0.80600 -0.16200
H 	H 	0.67866 0.47826 0.77078 0.06600
H 	H 	0.76115 0.55807 0.78583 0.05800
H 	H 	0.70943 0.56768 0.73454 0.05900
H 	H 	0.80826 0.46704 0.65440 0.06400
H 	H 	0.41443 0.05875 0.77117 0.06000
H 	H 	0.38345 0.11205 0.80535 0.06000
H 	H 	0.42671 0.09105 0.85865 0.06800
H 	H 	0.53921 0.12637 0.74521 0.05400
C 	C 	0.65137 0.27010 0.16664 -0.10800
C 	C 	0.62248 0.21423 0.21762 0.06000
C 	C 	0.62273 0.23461 0.28636 -0.02900
C 	C 	0.65083 0.30938 0.30500 -0.09700
C 	C 	0.67935 0.36515 0.25404 0.05700
C 	C 	0.67926 0.34475 0.18554 -0.02900
H 	H 	0.60062 0.19192 0.32544 0.04800
H 	H 	0.70551 0.38810 0.14737 0.05000
C 	C 	0.59167 0.13251 0.19990 -0.11900
C 	C 	0.71459 0.44755 0.27163 -0.12000
C 	C 	0.51618 0.08551 0.20951 -0.01200
H 	H 	0.50029 0.09183 0.26223 0.03100
H 	H 	0.49708 0.02566 0.20215 0.02800
C 	C 	0.78957 0.48827 0.26046 -0.01500
H 	H 	0.80327 0.48523 0.20593 0.03000
H 	H 	0.80621 0.46092 0.29064 0.02400
H 	H 	0.60657 0.12423 0.14752 0.06400
H 	H 	0.70195 0.45702 0.32456 0.06200
C 	C 	0.48560 0.10622 0.15891 -0.16500
C 	C 	0.82570 0.57049 0.28073 -0.16500
H 	H 	0.50141 0.10082 0.10590 0.07300
H 	H 	0.43111 0.06808 0.16545 0.06300
H 	H 	0.50022 0.16432 0.16796 0.06900
H 	H 	0.60986 0.10993 0.23417 0.05500
H 	H 	0.81160 0.59947 0.24912 0.06000
H 	H 	0.87963 0.59793 0.27260 0.05800
H 	H 	0.81388 0.57598 0.33528 0.06000
H 	H 	0.69834 0.47292 0.23810 0.05700
C 	C 	0.86577 0.71747 0.51267 0.06200
C 	C 	0.80362 0.68028 0.48665 -0.10000
C 	C 	0.76693 0.60325 0.47660 0.05400
C 	C 	0.79136 0.56192 0.49327 -0.16900
C 	C 	0.85518 0.59950 0.51779 0.14500
C 	C 	0.89200 0.67735 0.52685 -0.13200
H 	H 	0.71872 0.57522 0.45680 0.01900
H 	H 	0.94063 0.70652 0.54592 0.06100
H 	H 	0.78320 0.71099 0.47529 0.05300
N 	N 	0.88073 0.56141 0.53407 -0.21100
H 	H 	0.85479 0.50365 0.52863 0.07900
H 	H 	0.92746 0.58979 0.55285 0.08200
C 	C 	0.91192 0.19102 0.46924 0.06200
C 	C 	0.87536 0.16704 0.41148 -0.09100
C 	C 	0.84391 0.20016 0.39427 0.04500
C 	C 	0.84822 0.25723 0.43488 -0.14000
C 	C 	0.88893 0.28513 0.49079 0.15100
C 	C 	0.92079 0.25184 0.50702 -0.12700
H 	H 	0.81336 0.17884 0.35126 0.02000
H 	H 	0.95068 0.27163 0.55057 0.06300
H 	H 	0.86904 0.12064 0.38153 0.05300
N 	N 	0.89644 0.34243 0.52981 -0.20600
H 	H 	0.87508 0.36998 0.51850 0.08900
H 	H 	0.92514 0.36100 0.57185 0.08700
C 	C 	0.28588 0.17343 0.56563 0.06200
C 	C 	0.31213 0.15685 0.61637 -0.09300
C 	C 	0.37940 0.18737 0.61341 0.04500
C 	C 	0.42121 0.23463 0.55962 -0.14100
C 	C 	0.39499 0.25188 0.50816 0.15300
C 	C 	0.32741 0.22160 0.51224 -0.12800
H 	H 	0.39902 0.17381 0.65279 0.01600
H 	H 	0.30695 0.23458 0.47324 0.06300
H 	H 	0.28021 0.11946 0.65765 0.05100
N 	N 	0.43400 0.29637 0.45452 -0.20700
H 	H 	0.48398 0.31787 0.44849 0.09400
H 	H 	0.41412 0.30915 0.41735 0.08800
C 	C 	0.75712 0.49763 0.99787 -0.08900
C 	C 	0.80577 0.53663 0.04447 0.00500
C 	C 	0.84139 0.61433 0.04865 -0.04600
C 	C 	0.82896 0.65417 0.00613 -0.02200
C 	C 	0.77999 0.61504 0.95841 0.06700
C 	C 	0.74443 0.53665 0.95474 -0.04200
H 	H 	0.87849 0.64374 0.08542 0.03900
H 	H 	0.70695 0.50618 0.91842 0.03800
H 	H 	0.81589 0.50660 0.07764 0.02800
N 	N 	0.76668 0.65205 0.91656 -0.19500
H 	H 	0.79263 0.71019 0.91742 0.08400
H 	H 	0.72980 0.62257 0.88237 0.07900
C 	C 	0.79570 0.16713 0.90901 -0.05700
C 	C 	0.86479 0.21174 0.90395 -0.01100
C 	C 	0.89941 0.18063 0.91513 -0.03700
C 	C 	0.86547 0.10466 0.93149 -0.02900
C 	C 	0.79592 0.05802 0.93045 0.08000
C 	C 	0.76170 0.08980 0.91854 -0.05000
H 	H 	0.95265 0.21640 0.91451 0.03800
H 	H 	0.70839 0.05469 0.91942 0.05400
H 	H 	0.89172 0.27115 0.89447 0.04200
N 	N 	0.76175 0.98330 0.94215 -0.19700
H 	H 	0.78561 0.95759 0.94994 0.08600
H 	H 	0.71039 0.94972 0.94259 0.08200
C 	C 	0.39040 0.17413 0.06088 -0.05700
C 	C 	0.34479 0.09751 0.04992 -0.01300
C 	C 	0.27770 0.06723 0.05114 -0.03500
C 	C 	0.25500 0.11294 0.06355 -0.03200
C 	C 	0.30046 0.19010 0.07713 0.08000
C 	C 	0.36810 0.22009 0.07560 -0.05100
H 	H 	0.24320 0.00811 0.04145 0.03800
H 	H 	0.40320 0.27923 0.08476 0.05500
H 	H 	0.36147 0.06140 0.03961 0.03800
N 	N 	0.27968 0.23538 0.09163 -0.19600
H 	H 	0.22979 0.21459 0.09478 0.08700
H 	H 	0.31366 0.29230 0.10080 0.08400
