data_crystal

_cell_length_a 32.36962
_cell_length_b 28.27066
_cell_length_c 32.01698
_cell_angle_alpha 103.62737
_cell_angle_beta  115.75293
_cell_angle_gamma 112.40894

_symmetry_space_group_name_	'P 1'
_symmetry_space_group_name_H-M	'P 1'

loop_
_symmetry_equiv_pos_as_xyz
  x,y,z

loop_
_atom_site_label
_atom_site_type_symbol
_atom_site_fract_x
_atom_site_fract_y
_atom_site_fract_z
_atom_site_charge
C 	C 	0.72572 0.47242 0.96779 -0.00400
C 	C 	0.76561 0.47521 0.01212 -0.02000
C 	C 	0.75145 0.42911 0.02341 -0.05800
C 	C 	0.69747 0.37962 0.99032 0.07000
C 	C 	0.65675 0.37826 0.94745 -0.06800
C 	C 	0.67098 0.42449 0.93625 -0.02700
N 	N 	0.68569 0.32914 0.99818 -0.13900
C 	C 	0.54302 0.24947 0.99564 -0.00600
C 	C 	0.54020 0.22641 0.94990 -0.02700
C 	C 	0.58670 0.25265 0.95012 -0.06800
C 	C 	0.63668 0.30219 0.99643 0.06900
C 	C 	0.63923 0.32508 0.04198 -0.05900
C 	C 	0.59268 0.29889 0.04165 -0.02000
C 	C 	0.72991 0.22656 0.93078 0.01800
C 	C 	0.74147 0.23802 0.98100 -0.05800
C 	C 	0.72459 0.26957 0.00191 -0.03600
C 	C 	0.69588 0.28981 0.97289 0.06000
C 	C 	0.68106 0.27487 0.92101 -0.05900
C 	C 	0.69843 0.24380 0.90033 -0.03800
H 	H 	0.80788 0.51242 0.03700 0.03800
H 	H 	0.78287 0.43077 0.05676 0.05000
H 	H 	0.61481 0.34052 0.92164 0.04700
H 	H 	0.63985 0.42222 0.90214 0.03600
H 	H 	0.50182 0.18862 0.91403 0.03800
H 	H 	0.58364 0.23514 0.91426 0.04800
H 	H 	0.67748 0.36310 0.07773 0.05000
H 	H 	0.59515 0.31703 0.07711 0.03800
H 	H 	0.76482 0.22383 0.00439 0.05300
H 	H 	0.73538 0.28001 0.04145 0.04600
H 	H 	0.65644 0.28742 0.89690 0.04600
H 	H 	0.68852 0.23431 0.86116 0.04000
C 	C 	0.69871 0.46343 0.43989 0.00500
C 	C 	0.73691 0.47124 0.48865 -0.02900
C 	C 	0.72542 0.42492 0.49988 -0.06800
C 	C 	0.67582 0.37036 0.46252 0.07800
C 	C 	0.63584 0.36372 0.41515 -0.07000
C 	C 	0.64754 0.41000 0.40376 -0.02900
N 	N 	0.66863 0.32091 0.47129 -0.14300
C 	C 	0.51865 0.21415 0.44969 0.00600
C 	C 	0.52473 0.19698 0.40900 -0.02800
C 	C 	0.57337 0.23240 0.41520 -0.06800
C 	C 	0.61682 0.28516 0.46265 0.07800
C 	C 	0.61033 0.30239 0.50294 -0.06700
C 	C 	0.56153 0.26721 0.49652 -0.02900
C 	C 	0.73925 0.24064 0.42363 0.00600
C 	C 	0.74724 0.25222 0.47255 -0.02800
C 	C 	0.72247 0.27694 0.48718 -0.06600
C 	C 	0.68947 0.29032 0.45317 0.07800
C 	C 	0.67973 0.27655 0.40314 -0.06900
C 	C 	0.70476 0.25210 0.38867 -0.02800
H 	H 	0.77638 0.51251 0.51694 0.03600
H 	H 	0.75603 0.43061 0.53673 0.05000
H 	H 	0.59694 0.32213 0.38624 0.04800
H 	H 	0.61757 0.40379 0.36622 0.03800
H 	H 	0.49171 0.15629 0.37254 0.03900
H 	H 	0.57700 0.21913 0.38309 0.04900
H 	H 	0.64341 0.34298 0.53943 0.05000
H 	H 	0.55692 0.28130 0.52785 0.03800
H 	H 	0.77318 0.24268 0.49947 0.03900
H 	H 	0.72979 0.28688 0.52547 0.05100
H 	H 	0.65256 0.28422 0.37541 0.04800
H 	H 	0.69780 0.24260 0.35054 0.03800
C 	C 	0.35770 0.59162 0.99119 -0.01100
C 	C 	0.38483 0.63616 0.04224 -0.01300
C 	C 	0.41742 0.69455 0.05613 -0.07600
C 	C 	0.42307 0.70910 0.01917 0.09200
C 	C 	0.39710 0.66424 0.96836 -0.08600
C 	C 	0.36455 0.60582 0.95453 -0.02000
N 	N 	0.45323 0.76992 0.03305 -0.14700
C 	C 	0.56968 0.82156 0.99664 -0.01000
C 	C 	0.51669 0.80793 0.96160 -0.02200
C 	C 	0.47788 0.79009 0.97281 -0.08600
C 	C 	0.49189 0.78605 0.01954 0.09100
C 	C 	0.54470 0.79916 0.05415 -0.07700
C 	C 	0.58342 0.81681 0.04281 -0.01500
C 	C 	0.35996 0.84642 0.01024 0.00900
C 	C 	0.41376 0.87686 0.05608 -0.02800
C 	C 	0.44444 0.85180 0.06283 -0.07000
C 	C 	0.42176 0.79618 0.02391 0.08700
C 	C 	0.36817 0.76624 0.97734 -0.07900
C 	C 	0.33744 0.79114 0.97081 -0.03500
H 	H 	0.38019 0.62556 0.07097 0.03700
H 	H 	0.43746 0.72870 0.09534 0.05300
H 	H 	0.40081 0.67463 0.93924 0.04900
H 	H 	0.34383 0.57171 0.91504 0.03300
H 	H 	0.50560 0.81121 0.92573 0.03200
H 	H 	0.43695 0.77881 0.94498 0.04900
H 	H 	0.55578 0.79599 0.09005 0.05100
H 	H 	0.62406 0.82671 0.06986 0.03100
H 	H 	0.43169 0.91976 0.08656 0.03500
H 	H 	0.48570 0.87530 0.09860 0.05000
H 	H 	0.35058 0.72423 0.94604 0.04900
H 	H 	0.29598 0.76732 0.93521 0.03700
C 	C 	0.36893 0.59047 0.49330 0.00500
C 	C 	0.39416 0.63541 0.54349 -0.03000
C 	C 	0.42343 0.69378 0.55582 -0.06800
C 	C 	0.42756 0.70799 0.51814 0.07700
C 	C 	0.40275 0.66292 0.46791 -0.06900
C 	C 	0.37356 0.60447 0.45563 -0.02900
N 	N 	0.45578 0.76861 0.53102 -0.14300
C 	C 	0.57517 0.82849 0.49911 0.00400
C 	C 	0.52109 0.81074 0.46200 -0.02900
C 	C 	0.48123 0.78976 0.47157 -0.06900
C 	C 	0.49523 0.78655 0.51863 0.07700
C 	C 	0.54901 0.80321 0.55506 -0.06900
C 	C 	0.58881 0.82412 0.54544 -0.03000
C 	C 	0.35761 0.83920 0.50595 0.00400
C 	C 	0.41145 0.87119 0.55197 -0.03000
C 	C 	0.44384 0.84817 0.55938 -0.06800
C 	C 	0.42278 0.79304 0.52092 0.07700
C 	C 	0.36919 0.76170 0.47400 -0.06900
C 	C 	0.33680 0.78466 0.46679 -0.02900
H 	H 	0.39065 0.62507 0.57278 0.03500
H 	H 	0.44237 0.72814 0.59451 0.04800
H 	H 	0.40524 0.67309 0.43823 0.04800
H 	H 	0.35441 0.57011 0.41684 0.03700
H 	H 	0.51008 0.81359 0.42595 0.03700
H 	H 	0.43961 0.77580 0.44242 0.04700
H 	H 	0.56007 0.80066 0.59122 0.04600
H 	H 	0.63030 0.83717 0.57408 0.03200
H 	H 	0.42793 0.91351 0.58227 0.03500
H 	H 	0.48509 0.87274 0.59540 0.04700
H 	H 	0.35288 0.72011 0.44302 0.04800
H 	H 	0.29549 0.76005 0.43079 0.03700
Zn	Zn	0.12253 0.11901 0.98119 1.18600
Zn	Zn	0.03773 0.06325 0.86050 1.19700
O 	O 	0.02999 0.96586 0.77800 -0.48700
O 	O 	0.01174 0.03688 0.78406 -0.42900
O 	O 	0.03323 0.90076 0.85560 -0.50700
C 	C 	0.19554 0.09996 0.96524 0.30300
C 	C 	0.12869 0.19183 0.92860 0.32200
O 	O 	0.19196 0.12616 0.00206 -0.45600
O 	O 	0.15139 0.06551 0.91615 -0.33000
O 	O 	0.04897 0.07468 0.93083 -0.78300
O 	O 	0.09749 0.14313 0.88302 -0.45300
O 	O 	0.13922 0.19043 0.97284 -0.46300
Zn	Zn	0.88436 0.88721 0.86376 1.17400
Zn	Zn	0.98167 0.92663 0.96551 1.18700
C 	C 	0.88558 0.80570 0.90909 0.32800
C 	C 	0.85469 0.93072 0.92633 0.32200
O 	O 	0.92896 0.01168 0.88750 -0.45700
Zn	Zn	0.98452 0.03291 0.99740 1.20100
O 	O 	0.93884 0.84383 0.94621 -0.46400
O 	O 	0.85840 0.81304 0.86903 -0.46600
O 	O 	0.83873 0.90762 0.87716 -0.48500
O 	O 	0.90411 0.94717 0.96452 -0.48600
O 	O 	0.95600 0.91468 0.89055 -0.79600
C 	C 	0.92687 0.05138 0.91636 0.33200
O 	O 	0.00836 0.95203 0.04347 -0.43500
O 	O 	0.01410 0.03914 0.06731 -0.45100
O 	O 	0.95047 0.06828 0.96691 -0.49300
O 	O 	0.02147 0.00616 0.97903 -0.89400
Zn	Zn	0.00339 0.93428 0.81669 1.17900
C 	C 	0.07311 0.93437 0.90627 0.31400
H 	H 	0.06143 0.02822 0.00711 0.16500
H 	H 	0.94559 0.97036 0.81570 0.15100
Zn	Zn	0.13270 0.10693 0.47621 1.18600
Zn	Zn	0.04393 0.06620 0.36341 1.19700
O 	O 	0.03343 0.96691 0.27954 -0.49600
O 	O 	0.01800 0.04010 0.28687 -0.44200
O 	O 	0.03081 0.89714 0.35239 -0.50700
C 	C 	0.18525 0.06986 0.43815 0.31400
C 	C 	0.14436 0.19077 0.43433 0.32400
O 	O 	0.19162 0.09778 0.48182 -0.45900
O 	O 	0.13800 0.04463 0.39232 -0.34900
O 	O 	0.05936 0.07584 0.43490 -0.78000
O 	O 	0.10350 0.14623 0.38605 -0.45500
O 	O 	0.15995 0.18341 0.47653 -0.46400
Zn	Zn	0.88668 0.89650 0.36652 1.17400
Zn	Zn	0.98155 0.92725 0.46523 1.18800
C 	C 	0.88034 0.80910 0.40574 0.32900
C 	C 	0.86275 0.94432 0.43317 0.32300
O 	O 	0.93997 0.02227 0.39358 -0.45800
Zn	Zn	0.99430 0.03924 0.50212 1.20300
O 	O 	0.93383 0.84432 0.44324 -0.46000
O 	O 	0.85512 0.82092 0.36857 -0.46500
O 	O 	0.84562 0.92250 0.38356 -0.48500
O 	O 	0.91129 0.95728 0.46967 -0.48400
O 	O 	0.95663 0.91754 0.39099 -0.79500
C 	C 	0.94059 0.06342 0.42417 0.32800
O 	O 	0.00606 0.95074 0.54271 -0.43300
O 	O 	0.02324 0.04333 0.57098 -0.45300
O 	O 	0.96449 0.07903 0.47453 -0.49100
O 	O 	0.02652 0.00692 0.48101 -0.88500
Zn	Zn	0.00430 0.93429 0.31614 1.18200
C 	C 	0.07216 0.92949 0.40260 0.32700
H 	H 	0.06620 0.02597 0.50842 0.16200
H 	H 	0.95108 0.97504 0.31917 0.14800
C 	C 	0.03716 0.96916 0.69273 -0.01200
C 	C 	0.03637 0.96855 0.64854 -0.00800
H 	H 	0.05399 0.94798 0.71218 0.03600
H 	H 	0.97875 0.04625 0.69991 0.03800
H 	H 	0.97796 0.04560 0.62271 0.03400
H 	H 	0.05254 0.94692 0.63435 0.03500
C 	C 	0.04585 0.05173 0.16954 0.02400
C 	C 	0.00041 0.94641 0.12895 0.00000
C 	C 	0.00150 0.94761 0.17333 -0.04900
C 	C 	0.04656 0.05282 0.21372 -0.02400
H 	H 	0.06339 0.09229 0.16859 0.03200
H 	H 	0.98149 0.90491 0.09595 0.04500
H 	H 	0.98398 0.90711 0.17440 0.03600
H 	H 	0.06497 0.09421 0.24657 0.04700
C 	C 	0.27421 0.41643 0.46163 0.04900
N 	N 	0.25056 0.43736 0.43113 -0.10900
C 	C 	0.28063 0.49235 0.43957 0.02000
C 	C 	0.33725 0.52882 0.48018 -0.01500
C 	C 	0.36261 0.50717 0.51043 -0.02100
C 	C 	0.33110 0.45081 0.50116 -0.05900
H 	H 	0.26030 0.50823 0.41558 0.03100
H 	H 	0.40639 0.53428 0.54159 0.03300
H 	H 	0.35050 0.43424 0.52503 0.04400
C 	C 	0.17558 0.24956 0.44105 -0.11800
C 	C 	0.20819 0.29920 0.49056 0.03700
C 	C 	0.24023 0.35397 0.49741 -0.08600
C 	C 	0.23953 0.35898 0.45462 0.06600
N 	N 	0.20634 0.31060 0.40629 -0.12000
C 	C 	0.17482 0.25650 0.39871 0.07000
H 	H 	0.20883 0.29539 0.52368 0.02300
H 	H 	0.26551 0.39233 0.53571 0.04900
H 	H 	0.14992 0.21889 0.36004 0.03000
C 	C 	0.69927 0.89301 0.47350 0.04900
N 	N 	0.65309 0.83792 0.43922 -0.10800
C 	C 	0.61266 0.81684 0.44645 0.01900
C 	C 	0.61764 0.85199 0.48969 -0.01500
C 	C 	0.66406 0.90922 0.52455 -0.02300
C 	C 	0.70495 0.92998 0.51640 -0.06000
H 	H 	0.57695 0.77253 0.41894 0.03200
H 	H 	0.66846 0.93741 0.55787 0.03100
H 	H 	0.74076 0.97436 0.54316 0.03900
C 	C 	0.82251 0.93823 0.44560 -0.12300
C 	C 	0.83778 0.95200 0.49722 0.03700
C 	C 	0.79794 0.93907 0.50704 -0.08600
C 	C 	0.74294 0.91306 0.46525 0.06600
N 	N 	0.72913 0.90179 0.41568 -0.12000
C 	C 	0.76739 0.91431 0.40521 0.07200
H 	H 	0.75468 0.90443 0.36523 0.02500
C 	C 	0.24985 0.89747 0.47719 0.04800
N 	N 	0.24321 0.85487 0.49153 -0.11000
C 	C 	0.27830 0.83683 0.50233 0.01900
C 	C 	0.32262 0.86226 0.49908 -0.01500
C 	C 	0.33155 0.90779 0.48667 -0.02200
C 	C 	0.29515 0.92567 0.47580 -0.05900
H 	H 	0.27124 0.80205 0.51258 0.03100
H 	H 	0.36581 0.92835 0.48434 0.03400
H 	H 	0.30137 0.96028 0.46529 0.04300
C 	C 	0.11870 0.92256 0.42195 -0.13700
C 	C 	0.13663 0.91173 0.39029 0.04400
C 	C 	0.18110 0.90589 0.40907 -0.09000
C 	C 	0.20718 0.91038 0.45940 0.06600
N 	N 	0.18935 0.92124 0.48983 -0.12500
C 	C 	0.14656 0.92823 0.47258 0.07300
H 	H 	0.11642 0.90828 0.35140 0.01200
H 	H 	0.19447 0.89664 0.38425 0.04900
H 	H 	0.13363 0.93717 0.49786 0.00100
C 	C 	0.25260 0.41640 0.95107 0.04800
N 	N 	0.24067 0.45692 0.96249 -0.10900
C 	C 	0.27326 0.51283 0.97434 0.01700
C 	C 	0.32078 0.53030 0.97568 -0.01000
C 	C 	0.33363 0.48933 0.96373 -0.02400
C 	C 	0.29963 0.43223 0.95159 -0.05800
H 	H 	0.26255 0.54389 0.98324 0.03100
H 	H 	0.37033 0.50196 0.96484 0.03400
H 	H 	0.31047 0.40095 0.94399 0.04300
C 	C 	0.15719 0.24871 0.93121 -0.11700
C 	C 	0.17107 0.25285 0.89581 0.03800
C 	C 	0.20176 0.30756 0.90157 -0.08400
C 	C 	0.21879 0.35792 0.94309 0.06600
N 	N 	0.20336 0.35285 0.97602 -0.12000
C 	C 	0.17336 0.29993 0.97107 0.07000
H 	H 	0.15904 0.21405 0.86460 0.03400
H 	H 	0.21235 0.31082 0.87414 0.05000
H 	H 	0.16227 0.29772 0.99828 0.02100
C 	C 	0.73210 0.89519 0.95485 0.06500
N 	N 	0.78491 0.91731 0.99476 -0.12300
C 	C 	0.82525 0.93132 0.98704 0.05600
C 	C 	0.81304 0.92300 0.93703 -0.12000
C 	C 	0.75955 0.90329 0.89638 0.03500
C 	C 	0.71903 0.88953 0.90530 -0.08800
H 	H 	0.74910 0.89761 0.85772 0.02300
H 	H 	0.67761 0.87388 0.87377 0.04700
C 	C 	0.61062 0.84023 0.98470 -0.02100
C 	C 	0.60031 0.80315 0.93870 -0.02300
C 	C 	0.63958 0.82113 0.92825 -0.05900
C 	C 	0.68897 0.87645 0.96389 0.04000
N 	N 	0.69845 0.91176 0.00870 -0.10700
C 	C 	0.66053 0.89509 0.01955 0.02700
H 	H 	0.56231 0.76035 0.91149 0.03200
H 	H 	0.63214 0.79199 0.89321 0.04000
H 	H 	0.66920 0.92443 0.05529 0.02800
C 	C 	0.25235 0.90485 0.98315 0.03500
N 	N 	0.26654 0.89414 0.94936 -0.10900
C 	C 	0.30333 0.87857 0.95898 0.00700
C 	C 	0.32668 0.87178 0.00381 -0.00300
C 	C 	0.31419 0.88469 0.04002 -0.02900
C 	C 	0.27703 0.90150 0.02980 -0.04400
H 	H 	0.31319 0.86975 0.93097 0.03000
H 	H 	0.33167 0.87973 0.07493 0.03600
H 	H 	0.26570 0.90942 0.05672 0.03900
C 	C 	0.11816 0.92524 0.93028 -0.12100
C 	C 	0.16915 0.96980 0.97821 0.00000
C 	C 	0.21324 0.96307 0.99643 -0.08800
C 	C 	0.20585 0.91156 0.96677 0.06400
N 	N 	0.15566 0.86810 0.92117 -0.12200
C 	C 	0.11204 0.87352 0.90281 0.06500
H 	H 	0.07284 0.83798 0.86629 0.02200
C 	C 	0.82074 0.16770 0.38915 0.05000
N 	N 	0.76482 0.13861 0.35724 -0.10600
C 	C 	0.73810 0.16237 0.36633 0.02200
C 	C 	0.76798 0.21770 0.40963 -0.01300
C 	C 	0.82546 0.24935 0.44146 -0.02000
C 	C 	0.85202 0.22433 0.43149 -0.05700
H 	H 	0.69357 0.13746 0.34095 0.03500
H 	H 	0.84938 0.29243 0.47485 0.03500
H 	H 	0.89638 0.24754 0.45806 0.04300
C 	C 	0.90518 0.08318 0.40021 -0.13000
C 	C 	0.92823 0.13773 0.40271 0.04000
C 	C 	0.89872 0.16394 0.39435 -0.08800
C 	C 	0.84685 0.13577 0.38497 0.06900
N 	N 	0.82317 0.08036 0.37778 -0.11700
C 	C 	0.85091 0.05364 0.38482 0.07400
H 	H 	0.96986 0.16101 0.41378 0.00900
H 	H 	0.91701 0.20690 0.39766 0.05000
C 	C 	0.76061 0.60149 0.40818 0.05000
N 	N 	0.74684 0.60786 0.44280 -0.11000
C 	C 	0.72441 0.56311 0.45163 0.02000
C 	C 	0.71465 0.50890 0.42464 -0.01500
C 	C 	0.72603 0.50072 0.38705 -0.02000
C 	C 	0.74903 0.54709 0.37867 -0.05800
H 	H 	0.71548 0.57008 0.48058 0.02900
H 	H 	0.71877 0.45916 0.36572 0.03500
H 	H 	0.75897 0.54128 0.35039 0.04400
C 	C 	0.84878 0.75374 0.40343 -0.12000
C 	C 	0.87132 0.72098 0.41424 0.04100
C 	C 	0.84198 0.67013 0.41451 -0.08600
C 	C 	0.79023 0.65251 0.40415 0.06600
N 	N 	0.76894 0.68499 0.39375 -0.12000
C 	C 	0.79665 0.73443 0.39266 0.07200
H 	H 	0.91149 0.73497 0.42260 0.02500
H 	H 	0.85971 0.64516 0.42369 0.05100
H 	H 	0.77875 0.75951 0.38471 0.02600
C 	C 	0.32388 0.09738 0.43904 0.06800
N 	N 	0.33049 0.12538 0.48459 -0.11900
C 	C 	0.28651 0.11416 0.48608 0.07100
C 	C 	0.23278 0.07336 0.43996 -0.10800
C 	C 	0.22543 0.04044 0.39406 0.03700
C 	C 	0.27110 0.05227 0.39362 -0.08300
H 	H 	0.29335 0.13874 0.52257 0.03000
H 	H 	0.18451 0.00720 0.35837 0.03600
H 	H 	0.26547 0.02823 0.35768 0.05400
C 	C 	0.46668 0.17768 0.44259 -0.01400
C 	C 	0.41701 0.16475 0.40094 -0.02000
C 	C 	0.36918 0.13528 0.39773 -0.05700
C 	C 	0.37138 0.11899 0.43644 0.05100
N 	N 	0.41990 0.13069 0.47598 -0.10800
C 	C 	0.46697 0.15880 0.47944 0.02200
H 	H 	0.41583 0.17916 0.37217 0.03500
H 	H 	0.33117 0.12739 0.36674 0.04500
H 	H 	0.50488 0.16771 0.51155 0.03300
C 	C 	0.80098 0.14670 0.88374 0.05000
N 	N 	0.83326 0.20031 0.92707 -0.10800
C 	C 	0.81121 0.22743 0.94151 0.02300
C 	C 	0.75403 0.20025 0.91185 -0.01900
C 	C 	0.72025 0.14682 0.86538 -0.01700
C 	C 	0.74378 0.12016 0.85082 -0.05800
H 	H 	0.83808 0.26961 0.97671 0.03100
H 	H 	0.67598 0.12551 0.84132 0.03500
H 	H 	0.71777 0.07874 0.81496 0.04400
C 	C 	0.88901 0.06779 0.89033 -0.13900
C 	C 	0.83364 0.03275 0.87026 0.06600
C 	C 	0.80216 0.05662 0.86284 -0.09500
C 	C 	0.82630 0.11546 0.87473 0.07000
N 	N 	0.87860 0.14684 0.88881 -0.12200
C 	C 	0.91004 0.12432 0.89662 0.07700
H 	H 	0.81620 0.98855 0.86414 0.00500
H 	H 	0.76084 0.03100 0.85197 0.05600
H 	H 	0.95256 0.15172 0.91107 0.00800
C 	C 	0.78032 0.60615 0.92878 0.04800
N 	N 	0.79116 0.56411 0.92049 -0.10900
C 	C 	0.77262 0.52007 0.93141 0.01800
C 	C 	0.74214 0.51742 0.95223 -0.01300
C 	C 	0.72988 0.55962 0.96040 -0.02400
C 	C 	0.74918 0.60437 0.94888 -0.05900
H 	H 	0.78231 0.48759 0.92469 0.03200
H 	H 	0.70658 0.55850 0.97670 0.03100
H 	H 	0.74140 0.63830 0.95692 0.04000
C 	C 	0.85677 0.75184 0.91041 -0.12100
C 	C 	0.80086 0.72456 0.88971 0.03700
C 	C 	0.77523 0.67635 0.89500 -0.08700
C 	C 	0.80595 0.65607 0.92150 0.06500
N 	N 	0.85988 0.68213 0.94001 -0.12100
C 	C 	0.88568 0.72917 0.93521 0.07200
H 	H 	0.77762 0.74130 0.87053 0.02500
H 	H 	0.73193 0.65502 0.87880 0.04900
H 	H 	0.92872 0.74902 0.95081 0.02600
C 	C 	0.39963 0.17563 0.99271 0.05100
N 	N 	0.42334 0.23015 0.99797 -0.10800
C 	C 	0.46920 0.25434 0.99892 0.00800
C 	C 	0.49347 0.22338 0.99476 -0.00900
C 	C 	0.47030 0.16766 0.99009 -0.02300
C 	C 	0.42337 0.14371 0.98938 -0.05800
H 	H 	0.48673 0.29760 0.00273 0.04100
H 	H 	0.48876 0.14322 0.98737 0.03700
H 	H 	0.40582 0.10097 0.98662 0.04600
C 	C 	0.24970 0.11458 0.97755 -0.11700
C 	C 	0.25370 0.07622 0.94518 0.03900
C 	C 	0.30369 0.09464 0.95177 -0.08000
C 	C 	0.34965 0.15128 0.99129 0.06000
N 	N 	0.34561 0.18672 0.02424 -0.11400
C 	C 	0.29727 0.16955 0.01858 0.07900
H 	H 	0.21786 0.03298 0.91401 0.03700
H 	H 	0.30608 0.06614 0.92492 0.05500
H 	H 	0.29531 0.19966 0.04451 0.02800
O 	O 	0.98429 0.98392 0.84119 -0.88000
O 	O 	0.07708 0.98093 0.93348 -0.46400
Zn	Zn	0.00269 0.99467 0.91021 1.20900
C 	C 	0.01432 0.99638 0.07700 0.29400
C 	C 	0.01835 0.99924 0.75917 0.28300
O 	O 	0.98946 0.98704 0.34367 -0.87900
O 	O 	0.07757 0.97559 0.43248 -0.47300
Zn	Zn	0.00797 0.99672 0.41245 1.20800
C 	C 	0.01520 0.99701 0.57731 0.29200
C 	C 	0.02368 0.00164 0.26166 0.31800
C 	C 	0.01684 0.99763 0.71198 -0.09700
C 	C 	0.99533 0.02490 0.68616 0.00700
C 	C 	0.99489 0.02455 0.64231 0.01100
C 	C 	0.01564 0.99667 0.62342 -0.09500
C 	C 	0.02184 0.99837 0.12643 -0.10300
C 	C 	0.02377 0.00070 0.21554 -0.04600
H 	H 	0.88004 0.97116 0.52936 0.02300
H 	H 	0.80941 0.94750 0.54650 0.04500
H 	H 	0.86648 0.94768 0.01948 0.03400
H 	H 	0.17502 0.00992 0.00067 0.04600
H 	H 	0.25308 0.99801 0.03268 0.05000
H 	H 	0.83189 0.01079 0.38138 0.02900
