data_crystal

_cell_length_a 24.32011
_cell_length_b 24.88763
_cell_length_c 26.48462
_cell_angle_alpha 95.50725
_cell_angle_beta  95.50633
_cell_angle_gamma 125.81000

_symmetry_space_group_name_	'P 1'
_symmetry_space_group_name_H-M	'P 1'

loop_
_symmetry_equiv_pos_as_xyz
  x,y,z

loop_
_atom_site_label
_atom_site_type_symbol
_atom_site_fract_x
_atom_site_fract_y
_atom_site_fract_z
_atom_site_charge
C 	C 	0.09167 0.06945 0.02033 -0.01600
C 	C 	0.07698 0.03481 0.43366 0.13500
C 	C 	0.11936 0.03339 0.47118 -0.10400
H 	H 	0.19241 0.07469 0.08846 0.06300
C 	C 	0.75714 0.03725 0.45163 -0.10000
H 	H 	0.24297 0.05535 0.50979 0.07000
H 	H 	0.77090 0.04811 0.03983 0.06400
C 	C 	0.20947 0.11142 0.06339 -0.10500
C 	C 	0.05016 0.09129 0.01386 -0.02500
C 	C 	0.24013 0.07856 0.47808 -0.09300
C 	C 	0.18396 0.08033 0.46505 0.02800
O 	O 	0.11180 0.08255 0.40254 -0.21500
C 	C 	0.78201 0.01596 0.41511 0.03600
C 	C 	0.79387 0.06928 0.00717 -0.05700
H 	H 	0.33552 0.14190 0.10796 0.06800
C 	C 	0.16764 0.11867 0.03019 0.13000
C 	C 	0.77691 0.10311 0.45617 0.12100
C 	C 	0.27019 0.14446 0.04805 0.02000
O 	O 	0.73786 0.12161 0.47523 -0.19700
C 	C 	0.17908 0.10855 0.42402 0.11300
C 	C 	0.29401 0.11034 0.45037 0.11900
C 	C 	0.82781 0.05948 0.38625 0.11000
C 	C 	0.78040 0.10955 0.98349 0.08900
C 	C 	0.84075 0.06027 0.98868 -0.01100
C 	C 	0.84625 0.12496 0.39000 -0.08200
C 	C 	0.33334 0.16694 0.07741 -0.08800
H 	H 	0.07393 0.14457 0.01628 0.05900
O 	O 	0.36123 0.13571 0.47138 -0.18700
H 	H 	0.86461 0.02203 0.05036 0.05700
C 	C 	0.23314 0.14057 0.39648 -0.08500
C 	C 	0.28911 0.13854 0.40941 0.00900
O 	O 	0.74756 0.13435 0.00500 -0.16900
C 	C 	0.82201 0.14625 0.42702 0.00500
O 	O 	0.20162 0.16075 0.99503 -0.22500
C 	C 	0.87428 0.04059 0.01444 -0.06900
H 	H 	0.72245 0.00329 0.47495 0.06900
O 	O 	0.87018 0.04338 0.37051 -0.21100
C 	C 	0.81779 0.14415 0.94726 0.01800
C 	C 	0.87264 0.14387 0.93542 -0.09700
C 	C 	0.26615 0.17502 0.00895 0.13500
H 	H 	0.88133 0.15920 0.36702 0.06800
C 	C 	0.88136 0.09848 0.95510 0.12700
H 	H 	0.23029 0.16369 0.36469 0.06700
C 	C 	0.76302 0.17921 0.45362 0.03500
H 	H 	0.52148 0.17315 0.75121 0.14700
C 	C 	0.39594 0.18268 0.43967 0.04300
H 	H 	0.90916 0.17978 0.91403 0.06800
C 	C 	0.35357 0.18469 0.40260 -0.06000
C 	C 	0.76963 0.18759 0.97835 0.03100
C 	C 	0.93433 0.06692 0.99526 0.09900
O 	O 	0.94220 0.10464 0.95697 -0.21200
C 	C 	0.81332 0.19455 0.42498 -0.05500
C 	C 	0.81343 0.19502 0.94547 -0.06400
C 	C 	0.06062 0.00027 0.01566 -0.01800
H 	H 	0.98570 0.06183 0.41429 0.05600
C 	C 	0.96081 0.00854 0.41322 0.00200
C 	C 	0.97785 0.04428 0.00470 0.00200
C 	C 	0.84656 0.98707 0.39360 0.12600
C 	C 	0.00106 0.98605 0.42338 -0.04000
H 	H 	0.10377 0.99145 0.49057 0.05900
H 	H 	0.09238 0.98285 0.01817 0.03800
Cu	Cu	0.66260 0.26888 0.01511 0.93000
Cu	Cu	0.70708 0.41585 0.05490 0.89800
O 	O 	0.57457 0.24881 0.03442 -0.34000
O 	O 	0.63240 0.26738 0.94250 -0.64400
C 	C 	0.55614 0.28825 0.02813 0.24900
O 	O 	0.59930 0.34746 0.01604 -0.37500
H 	H 	0.58240 0.24520 0.93204 0.17700
Cu	Cu	0.60706 0.28150 0.50360 0.89800
Cu	Cu	0.59330 0.31912 0.40078 0.89600
O 	O 	0.61286 0.26621 0.43254 -0.64000
O 	O 	0.64445 0.33108 0.34286 -0.38100
O 	O 	0.50748 0.22941 0.48915 -0.35400
C 	C 	0.47165 0.22990 0.44867 0.25500
O 	O 	0.50147 0.27831 0.42127 -0.38000
O 	O 	0.60016 0.28138 0.57745 -0.38200
H 	H 	0.58415 0.21807 0.41572 0.16800
C 	C 	0.63187 0.31393 0.77502 -0.10700
C 	C 	0.57924 0.26280 0.68456 -0.06200
C 	C 	0.57545 0.26167 0.73695 0.16800
H 	H 	0.53693 0.22093 0.65555 0.06600
O 	O 	0.51645 0.20990 0.75083 -0.28100
C 	C 	0.62919 0.25467 0.23821 -0.05600
C 	C 	0.63569 0.25993 0.18660 0.16500
H 	H 	0.57879 0.21898 0.24739 0.05400
O 	O 	0.57861 0.21858 0.14808 -0.27700
H 	H 	0.55754 0.24249 0.14447 0.15800
H 	H 	0.36941 0.22728 0.38395 0.05700
C 	C 	0.39391 0.22019 0.06380 0.11300
C 	C 	0.32649 0.22953 0.99603 -0.10900
C 	C 	0.39023 0.25258 0.02542 0.02100
O 	O 	0.45547 0.22769 0.07306 -0.19200
C 	C 	0.48780 0.26691 0.03630 0.04000
C 	C 	0.44979 0.28225 0.00788 -0.05300
H 	H 	0.32395 0.25351 0.96478 0.07200
H 	H 	0.45709 0.29632 0.97027 0.04800
O 	O 	0.61883 0.24710 0.83933 -0.41800
C 	C 	0.70019 0.30880 0.17459 -0.09600
C 	C 	0.63955 0.31516 0.66991 -0.10600
O 	O 	0.72614 0.38699 0.11800 -0.38000
Cu	Cu	0.67064 0.24089 0.89386 0.86900
Cu	Cu	0.69135 0.36606 0.94074 0.89400
C 	C 	0.70452 0.32537 0.12268 0.30600
C 	C 	0.63664 0.30552 0.82924 0.30400
O 	O 	0.73010 0.37159 0.00967 -0.63200
O 	O 	0.68800 0.20609 0.00315 -0.33600
O 	O 	0.75546 0.46197 0.94190 -0.37000
C 	C 	0.77885 0.50866 0.98333 0.25000
O 	O 	0.74447 0.49615 0.02153 -0.36100
O 	O 	0.70400 0.28579 0.08543 -0.35200
C 	C 	0.73397 0.21900 0.97437 0.24800
O 	O 	0.66014 0.35725 0.86674 -0.37900
Cu	Cu	0.72021 0.32089 0.44058 0.92900
Cu	Cu	0.71514 0.27083 0.55144 0.87400
C 	C 	0.67645 0.30432 0.33145 0.30900
C 	C 	0.65133 0.30665 0.61715 0.30400
O 	O 	0.70920 0.33007 0.51329 -0.64100
O 	O 	0.69609 0.20586 0.49500 -0.41600
C 	C 	0.73162 0.44569 0.45742 0.24900
O 	O 	0.66633 0.40634 0.46139 -0.36500
O 	O 	0.71270 0.29822 0.36783 -0.35900
C 	C 	0.74074 0.22199 0.46443 0.25600
O 	O 	0.70849 0.31408 0.61133 -0.40700
H 	H 	0.73608 0.37701 0.53254 0.17900
C 	C 	0.68864 0.37006 0.76003 -0.06300
C 	C 	0.69264 0.37084 0.70769 0.16800
C 	C 	0.75868 0.34858 0.21412 -0.05600
C 	C 	0.75225 0.34316 0.26571 0.17300
C 	C 	0.68671 0.29814 0.27802 -0.10300
O 	O 	0.73768 0.54853 0.48320 -0.19200
H 	H 	0.72111 0.64777 0.47668 0.06800
O 	O 	0.74557 0.25734 0.94004 -0.43200
H 	H 	0.77993 0.39190 0.01493 0.17100
O 	O 	0.76151 0.41913 0.44061 -0.34800
O 	O 	0.76877 0.27851 0.44675 -0.36200
H 	H 	0.73152 0.41138 0.78904 0.06100
O 	O 	0.75015 0.42440 0.69372 -0.28700
H 	H 	0.73931 0.45636 0.68822 0.14800
H 	H 	0.80870 0.38576 0.20506 0.06700
O 	O 	0.80912 0.38563 0.30422 -0.28100
C 	C 	0.76369 0.65340 0.46155 -0.09600
C 	C 	0.76972 0.51934 0.46835 0.04300
O 	O 	0.88021 0.62368 0.02853 -0.19300
C 	C 	0.83658 0.57846 0.98288 0.03400
H 	H 	0.82915 0.36116 0.31016 0.15500
C 	C 	0.78353 0.61216 0.47184 0.11800
H 	H 	0.78248 0.94267 0.45149 0.06200
C 	C 	0.79389 0.97026 0.42000 -0.11400
C 	C 	0.79745 0.69886 0.42838 0.02700
H 	H 	0.78312 0.77388 0.45396 0.06100
H 	H 	0.80066 0.85804 0.39244 0.04000
C 	C 	0.83010 0.56212 0.45066 -0.05900
C 	C 	0.80433 0.75644 0.42869 -0.10800
C 	C 	0.83876 0.62080 0.45312 0.00900
H 	H 	0.85144 0.54557 0.42472 0.06400
H 	H 	0.82727 0.22587 0.39584 0.06000
H 	H 	0.80426 0.58625 0.90574 0.05600
C 	C 	0.84405 0.60767 0.93991 -0.04700
C 	C 	0.85220 0.70716 0.40936 0.11300
H 	H 	0.83037 0.22742 0.91705 0.04800
C 	C 	0.85648 0.89375 0.40178 -0.02400
C 	C 	0.87291 0.66685 0.42034 -0.08600
C 	C 	0.86311 0.79804 0.40880 0.12600
C 	C 	0.91495 0.68295 0.00906 0.13600
H 	H 	0.89150 0.93851 0.99272 0.04000
C 	C 	0.88855 0.96269 0.40293 -0.02900
O 	O 	0.89629 0.76948 0.39549 -0.21600
C 	C 	0.89408 0.67388 0.95658 -0.01000
C 	C 	0.89656 0.87079 0.41160 -0.02400
H 	H 	0.87225 0.71506 0.89567 0.06500
H 	H 	0.91532 0.67238 0.40498 0.06800
C 	C 	0.89929 0.72542 0.93442 -0.07500
O 	O 	0.93199 0.83997 0.95237 -0.21600
C 	C 	0.93690 0.78990 0.96525 0.09800
H 	H 	0.00235 0.88404 0.07818 0.06000
C 	C 	0.94749 0.74621 0.04059 -0.10400
C 	C 	0.94726 0.97517 0.00096 -0.02200
H 	H 	0.99990 0.89926 0.42839 0.04800
C 	C 	0.96885 0.91702 0.42195 -0.01200
C 	C 	0.98864 0.95331 0.00671 -0.02100
C 	C 	0.96226 0.79999 0.01674 0.04200
C 	C 	0.95676 0.88098 0.00128 0.13400
C 	C 	0.97202 0.85580 0.04001 -0.11000
H 	H 	0.95665 0.75212 0.08228 0.07300
