data_crystal

_cell_length_a 18.43496
_cell_length_b 18.81115
_cell_length_c 17.77113
_cell_angle_alpha 95.42295
_cell_angle_beta  95.42403
_cell_angle_gamma 126.43136

_symmetry_space_group_name_	'P 1'
_symmetry_space_group_name_H-M	'P 1'

loop_
_symmetry_equiv_pos_as_xyz
  x,y,z

loop_
_atom_site_label
_atom_site_type_symbol
_atom_site_fract_x
_atom_site_fract_y
_atom_site_fract_z
_atom_site_charge
C 	C 	0.89384 0.94598 0.98458 -0.07800
C 	C 	0.92673 0.89716 0.96637 0.03800
C 	C 	0.01760 0.94199 0.95655 -0.08400
C 	C 	0.07657 0.03588 0.96629 0.03700
C 	C 	0.04341 0.08503 0.98359 -0.07900
H 	H 	0.82329 0.91101 0.99220 0.04700
H 	H 	0.04344 0.90408 0.94421 0.05100
H 	H 	0.08877 0.15777 0.99079 0.04300
C 	C 	0.90675 0.99558 0.42446 0.04500
C 	C 	0.86185 0.90401 0.42780 -0.08800
C 	C 	0.91383 0.87272 0.44305 0.04200
C 	C 	0.00963 0.93257 0.45412 -0.08500
C 	C 	0.05397 0.02306 0.45008 0.04200
C 	C 	0.00271 0.05432 0.43436 -0.08900
H 	H 	0.78768 0.85826 0.42050 0.05300
H 	H 	0.04972 0.90855 0.46551 0.05500
H 	H 	0.03752 0.12475 0.43178 0.05500
Cu	Cu	0.63650 0.22863 0.03245 0.93000
Cu	Cu	0.76586 0.27682 0.90422 0.85700
Cu	Cu	0.66646 0.34348 0.91041 0.88200
Cu	Cu	0.60239 0.37574 0.05047 0.89900
C 	C 	0.63518 0.30470 0.18062 0.19300
O 	O 	0.49677 0.15510 0.01056 -0.34700
C 	C 	0.69397 0.29086 0.76053 0.19100
O 	O 	0.69067 0.36237 0.02233 -0.63000
O 	O 	0.64250 0.22755 0.92171 -0.64900
O 	O 	0.70546 0.17940 0.05386 -0.35600
O 	O 	0.82167 0.28929 0.00420 -0.43000
O 	O 	0.58311 0.32221 0.14462 -0.36000
O 	O 	0.70038 0.46171 0.90358 -0.38700
C 	C 	0.70788 0.51682 0.96106 0.27800
C 	C 	0.45438 0.18397 0.97693 0.27800
O 	O 	0.50242 0.26424 0.95937 -0.40700
O 	O 	0.64925 0.48622 0.00848 -0.37400
O 	O 	0.65275 0.25391 0.14324 -0.32400
C 	C 	0.78657 0.21789 0.03549 0.30600
O 	O 	0.65716 0.32311 0.79756 -0.34400
O 	O 	0.72742 0.25465 0.79578 -0.39100
H 	H 	0.75518 0.41148 0.04704 0.15500
H 	H 	0.59034 0.17472 0.88387 0.17800
Cu	Cu	0.74132 0.33181 0.40616 0.92400
Cu	Cu	0.71904 0.22436 0.54625 0.86600
Cu	Cu	0.62510 0.29937 0.53125 0.88900
Cu	Cu	0.58701 0.35962 0.39066 0.89500
C 	C 	0.65465 0.32396 0.25758 0.19300
O 	O 	0.81391 0.46905 0.42038 -0.36300
C 	C 	0.69235 0.28891 0.68485 0.19300
O 	O 	0.60550 0.27652 0.41971 -0.63600
O 	O 	0.74882 0.33559 0.51922 -0.63800
O 	O 	0.78682 0.25844 0.38546 -0.36600
O 	O 	0.68098 0.15580 0.44691 -0.44500
O 	O 	0.63473 0.37357 0.29310 -0.36100
O 	O 	0.49999 0.25381 0.53641 -0.38400
C 	C 	0.44645 0.25350 0.48137 0.29900
C 	C 	0.78370 0.51066 0.45260 0.29200
O 	O 	0.70500 0.46371 0.47563 -0.39700
O 	O 	0.48065 0.31843 0.44127 -0.39400
O 	O 	0.70843 0.30883 0.29516 -0.32600
C 	C 	0.74405 0.17912 0.40546 0.30400
O 	O 	0.64709 0.31192 0.64491 -0.34300
O 	O 	0.74190 0.26994 0.65261 -0.39200
H 	H 	0.55661 0.21293 0.39515 0.15900
H 	H 	0.80073 0.39212 0.55379 0.17600
C 	C 	0.84065 0.71685 0.37723 -0.08900
C 	C 	0.86872 0.77679 0.44608 -0.01900
C 	C 	0.87324 0.75015 0.51720 0.06400
C 	C 	0.85440 0.66597 0.51795 -0.02700
C 	C 	0.82783 0.60636 0.44906 -0.11000
C 	C 	0.82300 0.63317 0.37773 0.11800
N 	N 	0.80300 0.57990 0.30969 -0.20600
H 	H 	0.83821 0.73773 0.32279 0.05200
H 	H 	0.85647 0.64516 0.57248 0.03800
N 	N 	0.89431 0.80452 0.58489 -0.19300
H 	H 	0.79155 0.59646 0.25765 0.08000
H 	H 	0.80539 0.52584 0.30729 0.10300
H 	H 	0.90224 0.86442 0.58610 0.08200
H 	H 	0.90005 0.78571 0.63732 0.08000
C 	C 	0.82678 0.04195 0.34677 -0.09300
C 	C 	0.85488 0.03271 0.41917 -0.01700
C 	C 	0.84847 0.07365 0.48659 0.05700
C 	C 	0.81752 0.12575 0.48049 -0.01900
C 	C 	0.78879 0.13473 0.40832 -0.12900
C 	C 	0.79344 0.09241 0.34056 0.13100
N 	N 	0.76650 0.09995 0.26971 -0.20700
H 	H 	0.83308 0.01179 0.29518 0.05400
H 	H 	0.81391 0.15802 0.53236 -0.00900
N 	N 	0.87212 0.06339 0.55740 -0.19200
H 	H 	0.77003 0.06833 0.22011 0.09100
H 	H 	0.74221 0.13734 0.26300 0.10800
H 	H 	0.89089 0.02145 0.56397 0.08100
H 	H 	0.86963 0.09589 0.60702 0.07200
C 	C 	0.19391 0.08994 0.39425 -0.08800
C 	C 	0.15448 0.08436 0.45909 -0.01900
C 	C 	0.21125 0.13145 0.53254 0.06400
C 	C 	0.30695 0.18421 0.53926 -0.02400
C 	C 	0.34635 0.19000 0.47417 -0.11100
C 	C 	0.28919 0.14002 0.40130 0.11700
N 	N 	0.32520 0.13759 0.33853 -0.20200
H 	H 	0.14994 0.05248 0.33836 0.05100
H 	H 	0.35086 0.22227 0.59505 0.04800
N 	N 	0.17447 0.12663 0.59653 -0.19400
H 	H 	0.28268 0.10310 0.28452 0.07800
H 	H 	0.39459 0.16596 0.34317 0.06400
H 	H 	0.10371 0.08962 0.59339 0.08200
H 	H 	0.21697 0.16076 0.65059 0.08000
C 	C 	0.87356 0.76836 0.03140 -0.06700
C 	C 	0.86844 0.79964 0.96418 -0.03900
C 	C 	0.81297 0.73776 0.89464 0.06700
C 	C 	0.76278 0.64525 0.89415 -0.02500
C 	C 	0.76792 0.61396 0.96155 -0.12600
C 	C 	0.82609 0.67621 0.03033 0.13200
N 	N 	0.83886 0.64810 0.09467 -0.20300
H 	H 	0.91729 0.81625 0.08422 0.05100
H 	H 	0.71835 0.59745 0.84149 0.04800
N 	N 	0.80735 0.76660 0.82845 -0.19500
H 	H 	0.87862 0.69421 0.14609 0.08000
H 	H 	0.81339 0.58139 0.09352 0.07200
H 	H 	0.84256 0.83485 0.82703 0.08300
H 	H 	0.76686 0.72033 0.77725 0.08100
C 	C 	0.87821 0.17100 0.08890 -0.02200
C 	C 	0.82239 0.16610 0.02608 -0.10000
C 	C 	0.80920 0.11950 0.95258 0.09300
C 	C 	0.85843 0.08557 0.94199 -0.11600
C 	C 	0.91379 0.08970 0.00465 0.02800
C 	C 	0.92285 0.13165 0.07927 0.05500
H 	H 	0.88761 0.20609 0.14530 0.04200
H 	H 	0.84995 0.05163 0.88531 0.05400
N 	N 	0.74721 0.10459 0.89270 -0.20800
H 	H 	0.70011 0.11698 0.90111 0.04100
H 	H 	0.74174 0.07490 0.83758 0.07300
C 	C 	0.29778 0.10785 0.90339 -0.02600
C 	C 	0.35527 0.13592 0.97484 -0.12800
C 	C 	0.32155 0.13565 0.04350 0.13400
C 	C 	0.23334 0.11239 0.03901 -0.07000
C 	C 	0.17538 0.08255 0.96774 -0.03800
C 	C 	0.20832 0.08184 0.89910 0.06500
N 	N 	0.15518 0.05808 0.82911 -0.19400
H 	H 	0.32392 0.10945 0.85089 0.03700
H 	H 	0.20751 0.11198 0.09148 0.04900
N 	N 	0.37277 0.15633 0.11372 -0.20800
H 	H 	0.17912 0.05575 0.77860 0.07900
H 	H 	0.09090 0.04432 0.82414 0.08200
H 	H 	0.42958 0.15647 0.11961 0.10700
H 	H 	0.35146 0.16517 0.16388 0.08000
C 	C 	0.95172 0.03986 0.99264 0.00700
N 	N 	0.97358 0.13398 0.14166 -0.19000
H 	H 	0.97857 0.16380 0.19655 0.08300
H 	H 	0.00827 0.10620 0.13654 0.08700
