data_crystal

_cell_length_a 30.41434
_cell_length_b 30.06117
_cell_length_c 34.41326
_cell_angle_alpha 95.51556
_cell_angle_beta  95.51369
_cell_angle_gamma 125.59210

_symmetry_space_group_name_	'P 1'
_symmetry_space_group_name_H-M	'P 1'

loop_
_symmetry_equiv_pos_as_xyz
  x,y,z

loop_
_atom_site_label
_atom_site_type_symbol
_atom_site_fract_x
_atom_site_fract_y
_atom_site_fract_z
_atom_site_charge
C 	C 	0.97631 0.03052 0.98252 0.12200
N 	N 	0.94607 0.97597 0.98570 -0.13700
C 	C 	0.96878 0.94820 0.98416 0.12500
N 	N 	0.02199 0.97527 0.97960 -0.13300
C 	C 	0.05233 0.02977 0.97623 0.12200
N 	N 	0.02933 0.05725 0.97762 -0.13600
C 	C 	0.96177 0.01531 0.47297 0.11800
N 	N 	0.93277 0.95917 0.47020 -0.13500
C 	C 	0.95925 0.93511 0.46919 0.12400
N 	N 	0.01455 0.96719 0.47106 -0.13100
C 	C 	0.04357 0.02312 0.47420 0.12700
N 	N 	0.01718 0.04709 0.47514 -0.13400
Cu	Cu	0.64028 0.24630 0.99632 0.93000
Cu	Cu	0.67556 0.25263 0.90902 0.89100
Cu	Cu	0.66514 0.33677 0.94926 0.90600
Cu	Cu	0.65110 0.35308 0.03273 0.92100
C 	C 	0.67017 0.28680 0.08040 0.30600
O 	O 	0.56310 0.21876 0.00237 -0.34100
C 	C 	0.64727 0.30940 0.86236 0.30800
O 	O 	0.68783 0.33356 0.00224 -0.63100
O 	O 	0.62742 0.25477 0.94112 -0.63700
O 	O 	0.66728 0.20077 0.98600 -0.36000
O 	O 	0.72744 0.25946 0.94946 -0.40600
O 	O 	0.64472 0.30997 0.07529 -0.32100
O 	O 	0.70743 0.41713 0.95849 -0.34100
C 	C 	0.71580 0.44944 0.99159 0.28900
C 	C 	0.54244 0.24467 0.99110 0.27700
O 	O 	0.57547 0.29773 0.98908 -0.38100
O 	O 	0.68625 0.42882 0.01961 -0.34500
O 	O 	0.66543 0.25180 0.05099 -0.33500
C 	C 	0.71182 0.22045 0.97078 0.29600
O 	O 	0.64539 0.33728 0.89349 -0.33500
O 	O 	0.64209 0.26299 0.86422 -0.36900
H 	H 	0.72817 0.35594 0.01130 0.21100
H 	H 	0.58844 0.23227 0.92754 0.18300
Cu	Cu	0.72822 0.33506 0.45155 0.93300
Cu	Cu	0.70883 0.28789 0.53472 0.89400
Cu	Cu	0.63418 0.30831 0.49362 0.90700
Cu	Cu	0.62632 0.32826 0.41103 0.92200
C 	C 	0.69682 0.31354 0.36701 0.30800
O 	O 	0.75732 0.41517 0.44953 -0.34900
C 	C 	0.65211 0.31681 0.58027 0.30900
O 	O 	0.64158 0.28800 0.44115 -0.63100
O 	O 	0.71429 0.34263 0.50566 -0.63700
O 	O 	0.76881 0.30281 0.46210 -0.35100
O 	O 	0.70276 0.23807 0.49244 -0.40300
O 	O 	0.67507 0.34034 0.37219 -0.32700
O 	O 	0.55534 0.26971 0.48078 -0.34100
C 	C 	0.52844 0.27374 0.45049 0.29000
C 	C 	0.72986 0.43464 0.45953 0.28500
O 	O 	0.67667 0.40003 0.45880 -0.38900
O 	O 	0.54834 0.28789 0.41762 -0.34400
O 	O 	0.72847 0.31514 0.39697 -0.33400
C 	C 	0.74392 0.25462 0.47374 0.29400
O 	O 	0.62888 0.32340 0.54906 -0.34100
O 	O 	0.69673 0.31919 0.57980 -0.36600
H 	H 	0.61910 0.24739 0.43097 0.21600
H 	H 	0.73695 0.38101 0.52134 0.18400
C 	C 	0.60405 0.27506 0.67596 0.03100
C 	C 	0.62538 0.32698 0.69893 0.09500
C 	C 	0.64702 0.37419 0.68055 -0.11400
C 	C 	0.65325 0.36962 0.64070 0.07800
C 	C 	0.63487 0.31828 0.61855 -0.00700
C 	C 	0.60619 0.26981 0.63532 -0.07200
C 	C 	0.63212 0.33275 0.74279 0.09500
C 	C 	0.66824 0.43057 0.70406 0.79000
H 	H 	0.67461 0.40649 0.62742 0.07500
C 	C 	0.58123 0.21300 0.61067 0.77400
H 	H 	0.58794 0.23923 0.69022 0.11300
C 	C 	0.58600 0.30971 0.76189 -0.11300
C 	C 	0.59204 0.30376 0.80170 0.07800
C 	C 	0.64366 0.32386 0.82317 -0.00500
C 	C 	0.69074 0.35303 0.80551 -0.07200
C 	C 	0.68413 0.35505 0.76492 0.03100
C 	C 	0.52941 0.28690 0.73921 0.79000
H 	H 	0.55624 0.28178 0.81562 0.07700
C 	C 	0.74760 0.37901 0.82930 0.77400
H 	H 	0.71903 0.37204 0.75002 0.11200
F 	F 	0.54410 0.17059 0.62906 -0.41700
F 	F 	0.62255 0.20765 0.60534 -0.46000
F 	F 	0.55338 0.20677 0.57392 -0.44400
F 	F 	0.72118 0.45639 0.72446 -0.43000
F 	F 	0.63505 0.42511 0.73088 -0.40000
F 	F 	0.66913 0.46441 0.67905 -0.42600
F 	F 	0.75269 0.33747 0.83611 -0.46400
F 	F 	0.75550 0.40973 0.86536 -0.44800
F 	F 	0.78862 0.41441 0.80938 -0.42100
F 	F 	0.49605 0.28446 0.76494 -0.42400
F 	F 	0.50485 0.23375 0.71841 -0.42900
F 	F 	0.53292 0.32032 0.71284 -0.40100
C 	C 	0.72737 0.33516 0.19040 0.03300
C 	C 	0.70683 0.28429 0.20263 0.09500
C 	C 	0.68308 0.23550 0.17372 -0.11400
C 	C 	0.67288 0.23726 0.13336 0.07600
C 	C 	0.69064 0.28772 0.12141 -0.00300
C 	C 	0.72308 0.33788 0.14985 -0.07100
C 	C 	0.70367 0.28139 0.24515 0.09400
C 	C 	0.66430 0.18050 0.18568 0.79000
H 	H 	0.64914 0.19900 0.11144 0.08400
C 	C 	0.75128 0.39419 0.13745 0.77500
H 	H 	0.74539 0.37240 0.21254 0.11300
C 	C 	0.75185 0.30715 0.27453 -0.11300
C 	C 	0.74872 0.31580 0.31478 0.07700
C 	C 	0.69787 0.29484 0.32610 -0.00400
C 	C 	0.64892 0.26115 0.29712 -0.07100
C 	C 	0.65263 0.25808 0.25675 0.03300
C 	C 	0.80732 0.32954 0.26321 0.79000
H 	H 	0.78610 0.34078 0.33713 0.08400
C 	C 	0.59273 0.23056 0.30885 0.77500
H 	H 	0.61593 0.23871 0.23425 0.11200
F 	F 	0.79637 0.43532 0.16618 -0.41300
F 	F 	0.71475 0.40740 0.13240 -0.45600
F 	F 	0.76987 0.39383 0.10233 -0.45700
F 	F 	0.61229 0.15450 0.19469 -0.42400
F 	F 	0.70006 0.18847 0.21834 -0.39900
F 	F 	0.66226 0.14562 0.15500 -0.42400
F 	F 	0.57841 0.26636 0.31486 -0.46100
F 	F 	0.59299 0.21032 0.34327 -0.45700
F 	F 	0.55304 0.18563 0.27930 -0.41300
F 	F 	0.84287 0.33387 0.29429 -0.42100
F 	F 	0.83039 0.38181 0.25415 -0.42500
F 	F 	0.80207 0.29470 0.23078 -0.39900
C 	C 	0.75696 0.49512 0.46630 -0.08100
C 	C 	0.73815 0.51807 0.49113 0.02500
C 	C 	0.75835 0.57378 0.49332 -0.06600
C 	C 	0.79793 0.60727 0.47104 0.05600
C 	C 	0.81769 0.58467 0.44686 -0.06600
C 	C 	0.79769 0.52906 0.44481 0.02600
C 	C 	0.81499 0.66445 0.47054 -0.04700
C 	C 	0.86819 0.70719 0.47328 -0.04200
C 	C 	0.88470 0.76298 0.46837 0.04300
C 	C 	0.91945 0.79033 0.44160 -0.05300
C 	C 	0.94085 0.84557 0.44001 -0.00600
C 	C 	0.92833 0.87437 0.46560 -0.01900
C 	C 	0.89163 0.84631 0.49123 -0.00700
C 	C 	0.87008 0.79087 0.49276 -0.05200
H 	H 	0.70708 0.49247 0.50813 0.04600
H 	H 	0.74269 0.59070 0.51194 0.06600
H 	H 	0.84724 0.60964 0.42872 0.06400
H 	H 	0.81222 0.51180 0.42527 0.05500
H 	H 	0.78382 0.67170 0.46835 0.05500
H 	H 	0.89944 0.70007 0.47617 0.05500
H 	H 	0.93079 0.76911 0.42256 0.05900
H 	H 	0.96860 0.86659 0.41975 0.04900
H 	H 	0.88176 0.86811 0.51119 0.05000
H 	H 	0.84365 0.77032 0.51383 0.05800
C 	C 	0.76346 0.22017 0.46748 -0.07700
C 	C 	0.72554 0.16186 0.45879 0.03200
C 	C 	0.74402 0.12877 0.45789 -0.06300
C 	C 	0.80056 0.15355 0.46549 0.05800
C 	C 	0.83860 0.21200 0.47341 -0.06400
C 	C 	0.82008 0.24508 0.47391 0.02800
C 	C 	0.81939 0.11818 0.46917 -0.04700
C 	C 	0.86296 0.12859 0.45411 -0.04200
C 	C 	0.88543 0.09753 0.46223 0.04200
C 	C 	0.93777 0.12532 0.48571 -0.05000
C 	C 	0.96133 0.09747 0.49106 -0.01400
C 	C 	0.93324 0.04173 0.47217 -0.01500
C 	C 	0.87998 0.01337 0.44960 -0.01400
C 	C 	0.85617 0.04120 0.44470 -0.05000
H 	H 	0.68172 0.14216 0.45348 0.05800
H 	H 	0.71434 0.08382 0.45195 0.06900
H 	H 	0.88236 0.23179 0.48050 0.06200
H 	H 	0.84973 0.29001 0.48096 0.04700
H 	H 	0.79693 0.08278 0.48396 0.05600
H 	H 	0.88471 0.16294 0.43832 0.05900
H 	H 	0.96046 0.16872 0.49954 0.05600
H 	H 	0.00194 0.11958 0.50921 0.05400
H 	H 	0.85779 0.97045 0.43480 0.05500
H 	H 	0.81565 0.01941 0.42648 0.06000
C 	C 	0.10329 0.05748 0.47556 -0.02000
C 	C 	0.13875 0.10614 0.50448 -0.00400
C 	C 	0.19566 0.13804 0.50632 -0.05300
C 	C 	0.21741 0.12213 0.47880 0.04800
C 	C 	0.18196 0.07355 0.44984 -0.05400
C 	C 	0.12515 0.04132 0.44827 -0.00400
C 	C 	0.27744 0.15498 0.48144 -0.04300
C 	C 	0.30057 0.17804 0.45078 -0.04400
C 	C 	0.35942 0.20419 0.45067 0.05600
C 	C 	0.37517 0.19308 0.41622 -0.06000
C 	C 	0.43045 0.21635 0.41596 0.02700
C 	C 	0.47058 0.25117 0.45017 -0.06300
C 	C 	0.45508 0.26354 0.48432 0.02800
C 	C 	0.39985 0.24076 0.48444 -0.05800
H 	H 	0.12229 0.11878 0.52585 0.05000
H 	H 	0.22281 0.17520 0.52901 0.06400
H 	H 	0.19849 0.06056 0.42879 0.06000
H 	H 	0.09811 0.00391 0.42577 0.04900
H 	H 	0.30268 0.15958 0.50834 0.06500
H 	H 	0.27476 0.17291 0.42398 0.05500
H 	H 	0.34443 0.16566 0.38983 0.06700
H 	H 	0.44193 0.20650 0.38941 0.06900
H 	H 	0.48586 0.29107 0.51067 0.06200
H 	H 	0.38853 0.25160 0.51067 0.07100
C 	C 	0.93547 0.88858 0.98676 -0.02600
C 	C 	0.89419 0.86696 0.00990 0.00000
C 	C 	0.86197 0.81030 0.01172 -0.04500
C 	C 	0.87107 0.77480 0.99086 0.03600
C 	C 	0.91208 0.79626 0.96750 -0.05100
C 	C 	0.94428 0.85289 0.96562 -0.00600
C 	C 	0.83512 0.71455 0.99154 -0.03600
C 	C 	0.85652 0.68696 0.99861 -0.05400
C 	C 	0.82049 0.62617 0.99726 0.05400
C 	C 	0.83056 0.59217 0.97543 -0.05700
C 	C 	0.79665 0.53461 0.97379 0.03100
C 	C 	0.75250 0.51047 0.99431 -0.06600
C 	C 	0.74329 0.54477 0.01704 0.03500
C 	C 	0.77730 0.60235 0.01868 -0.05500
H 	H 	0.88716 0.89404 0.02657 0.05000
H 	H 	0.83003 0.79401 0.02946 0.05800
H 	H 	0.91840 0.76893 0.95032 0.06000
H 	H 	0.97539 0.86878 0.94718 0.04900
H 	H 	0.79085 0.69292 0.98733 0.05400
H 	H 	0.90082 0.70869 0.00293 0.06600
H 	H 	0.86438 0.61030 0.95938 0.07300
H 	H 	0.80480 0.50882 0.95666 0.07500
H 	H 	0.70954 0.52686 0.03312 0.05700
H 	H 	0.77017 0.62841 0.03665 0.06400
C 	C 	0.95157 0.06055 0.98420 -0.02700
C 	C 	0.96382 0.09932 0.95940 -0.00700
C 	C 	0.93992 0.12737 0.96069 -0.05300
C 	C 	0.90325 0.11668 0.98652 0.03700
C 	C 	0.89201 0.07892 0.01206 -0.04600
C 	C 	0.91570 0.05065 0.01065 -0.00000
C 	C 	0.87827 0.14665 0.98755 -0.04000
C 	C 	0.82398 0.11931 0.98660 -0.04700
C 	C 	0.79830 0.14847 0.98418 0.05100
C 	C 	0.76244 0.14128 0.00986 -0.05700
C 	C 	0.73522 0.16583 0.00614 0.03900
C 	C 	0.74297 0.19716 0.97623 -0.08700
C 	C 	0.77916 0.20454 0.95064 0.02600
C 	C 	0.80646 0.18012 0.95448 -0.06500
H 	H 	0.99138 0.10729 0.93883 0.04800
H 	H 	0.94943 0.15697 0.94127 0.05600
H 	H 	0.86532 0.07179 0.03316 0.06000
H 	H 	0.90670 0.02159 0.03045 0.04900
H 	H 	0.90375 0.19073 0.98616 0.05600
H 	H 	0.79836 0.07530 0.98812 0.05400
H 	H 	0.75558 0.11658 0.03266 0.07500
H 	H 	0.70792 0.16022 0.02638 0.06600
H 	H 	0.78529 0.22817 0.92723 0.04600
H 	H 	0.83305 0.18484 0.93386 0.06100
C 	C 	0.48236 0.21525 0.98367 -0.07500
C 	C 	0.44675 0.15771 0.96867 0.02500
C 	C 	0.38980 0.12893 0.96472 -0.06500
C 	C 	0.36783 0.15739 0.97544 0.05500
C 	C 	0.40344 0.21512 0.99003 -0.06200
C 	C 	0.46035 0.24395 0.99375 0.01700
C 	C 	0.30806 0.12563 0.97499 -0.04800
C 	C 	0.27952 0.14383 0.96101 -0.04100
C 	C 	0.22102 0.11454 0.96404 0.04000
C 	C 	0.20357 0.14431 0.98173 -0.04800
C 	C 	0.14858 0.11676 0.98565 -0.01900
C 	C 	0.11025 0.05914 0.97135 -0.01400
C 	C 	0.12753 0.02963 0.95262 -0.01500
C 	C 	0.18261 0.05723 0.94890 -0.04900
H 	H 	0.46319 0.13517 0.96047 0.04300
H 	H 	0.36276 0.08438 0.95372 0.06300
H 	H 	0.38717 0.23735 0.99957 0.05900
H 	H 	0.48737 0.28824 0.00571 0.05200
H 	H 	0.28699 0.08645 0.98567 0.05600
H 	H 	0.30033 0.18266 0.94990 0.05500
H 	H 	0.23283 0.18866 0.99308 0.05500
H 	H 	0.13597 0.14008 0.00024 0.06000
H 	H 	0.09829 0.98544 0.94073 0.05400
H 	H 	0.19539 0.03413 0.93419 0.05600
