data_crystal

_cell_length_a 12.04619
_cell_length_b 16.23652
_cell_length_c 39.07999
_cell_angle_alpha 90.40177
_cell_angle_beta  90.40116
_cell_angle_gamma 119.36591

_symmetry_space_group_name_	'P 1'
_symmetry_space_group_name_H-M	'P 1'

loop_
_symmetry_equiv_pos_as_xyz
  x,y,z

loop_
_atom_site_label
_atom_site_type_symbol
_atom_site_fract_x
_atom_site_fract_y
_atom_site_fract_z
_atom_site_charge
C 	C 	0.08933 0.98232 0.74591 0.25500
C 	C 	0.02184 0.91117 0.83286 0.29800
Ni	Ni	0.88820 0.98558 0.78529 1.10600
Ni	Ni	0.89182 0.79300 0.77119 1.11900
O 	O 	0.00019 0.00637 0.74501 -0.33400
O 	O 	0.97147 0.82547 0.81841 -0.38000
O 	O 	0.02125 0.98473 0.81766 -0.37400
O 	O 	0.06105 0.89520 0.75293 -0.33600
C 	C 	0.20530 0.72457 0.42975 0.29900
O 	O 	0.55299 0.93516 0.41052 -0.37800
O 	O 	0.23808 0.74267 0.46235 -0.37200
O 	O 	0.28937 0.76700 0.40467 -0.36000
C 	C 	0.51272 0.90368 0.22983 0.28600
C 	C 	0.39549 0.63055 0.22114 0.30500
Ni	Ni	0.40900 0.77041 0.16864 1.11500
O 	O 	0.41022 0.83010 0.21646 -0.35200
O 	O 	0.36788 0.70432 0.12086 -0.35600
O 	O 	0.35213 0.63732 0.19083 -0.33500
O 	O 	0.45630 0.89685 0.14255 -0.35000
C 	C 	0.43113 0.11224 0.25832 0.27900
C 	C 	0.41269 0.37574 0.36267 0.30800
C 	C 	0.44064 0.12967 0.35065 0.31000
C 	C 	0.36981 0.39988 0.26911 0.28300
Ni	Ni	0.47869 0.28652 0.30321 1.11500
O 	O 	0.51411 0.20038 0.26854 -0.33400
O 	O 	0.30673 0.07970 0.25966 -0.35800
O 	O 	0.49206 0.38998 0.33750 -0.34800
O 	O 	0.29742 0.30176 0.36218 -0.35000
O 	O 	0.50984 0.22090 0.34526 -0.34400
O 	O 	0.37397 0.07283 0.32569 -0.37600
O 	O 	0.45502 0.37012 0.26564 -0.33400
O 	O 	0.30652 0.38559 0.29783 -0.36000
O 	O 	0.29968 0.20923 0.30192 -0.71000
H 	H 	0.29048 0.21397 0.27708 0.15500
C 	C 	0.37639 0.47411 0.24753 0.00000
C 	C 	0.37986 0.54158 0.23334 -0.01900
C 	C 	0.50165 0.98522 0.24089 -0.05700
C 	C 	0.47652 0.04694 0.24881 0.01900
C 	C 	0.46124 0.52756 0.39859 0.00200
C 	C 	0.43761 0.45518 0.38398 -0.01400
C 	C 	0.47723 0.04101 0.40144 0.01000
C 	C 	0.46515 0.08862 0.37991 -0.02500
C 	C 	0.92026 0.51300 0.44077 -0.08200
C 	C 	0.88016 0.55186 0.46698 0.02800
C 	C 	0.99346 0.70412 0.43910 -0.03200
C 	C 	0.06771 0.67172 0.42217 -0.06300
C 	C 	0.01183 0.57329 0.41720 0.12200
N 	N 	0.04798 0.53473 0.38886 -0.01800
H 	H 	0.88296 0.43748 0.43921 0.10500
O 	O 	0.97676 0.44660 0.37978 -0.09100
O 	O 	0.14475 0.58959 0.37009 -0.08800
C 	C 	0.24712 0.58313 0.01665 0.03900
N 	N 	0.22197 0.50741 0.94818 -0.02100
C 	C 	0.24381 0.66462 0.02806 0.06100
C 	C 	0.33743 0.72599 0.05127 0.00800
C 	C 	0.43036 0.70421 0.06271 -0.09600
C 	C 	0.45876 0.64721 0.04148 0.12100
C 	C 	0.35940 0.57805 0.02142 -0.07200
N 	N 	0.14522 0.68382 0.01665 -0.01400
H 	H 	0.32912 0.78297 0.06337 0.06800
H 	H 	0.37107 0.52326 0.00874 0.08800
O 	O 	0.26135 0.45416 0.93371 -0.08200
O 	O 	0.27164 0.59571 0.93967 -0.06600
C 	C 	0.83430 0.50076 0.49996 0.03500
C 	C 	0.91157 0.53498 0.52959 -0.08800
H 	H 	0.00075 0.60092 0.52875 0.10500
H 	H 	0.16835 0.56650 0.47904 0.05900
O 	O 	0.10369 0.66508 0.98517 -0.06000
H 	H 	0.42209 0.99086 0.07778 0.05700
H 	H 	0.02088 0.77836 0.43808 0.08600
C 	C 	0.90477 0.64590 0.46362 0.07000
O 	O 	0.91600 0.31286 0.47538 -0.08700
O 	O 	0.32957 0.47155 0.15836 -0.07300
C 	C 	0.48783 0.97343 0.42240 0.28800
O 	O 	0.47645 0.70695 0.23720 -0.37500
N 	N 	0.03220 0.37985 0.47046 -0.01500
O 	O 	0.07915 0.39482 0.43982 -0.07200
C 	C 	0.10539 0.93253 0.86186 -0.00300
O 	O 	0.61761 0.69106 0.99942 -0.07600
N 	N 	0.58797 0.67975 0.03166 -0.02800
C 	C 	0.45417 0.70736 0.09975 0.32100
O 	O 	0.55461 0.11456 0.51824 -0.09000
O 	O 	0.42528 0.65766 0.39817 -0.35000
O 	O 	0.40673 0.93303 0.44735 -0.35400
O 	O 	0.67801 0.70875 0.05473 -0.10600
C 	C 	0.26829 0.04059 0.90837 0.33300
O 	O 	0.35502 0.02976 0.92527 -0.33600
C 	C 	0.22984 0.05215 0.62903 0.32500
O 	O 	0.21215 0.11647 0.64498 -0.33600
C 	C 	0.38861 0.66353 0.51410 0.30000
C 	C 	0.48791 0.61766 0.41214 0.28000
Ni	Ni	0.61878 0.76250 0.47079 1.12600
Ni	Ni	0.47625 0.79529 0.40481 1.12300
Ni	Ni	0.41082 0.83599 0.47892 1.12900
O 	O 	0.48649 0.65809 0.50140 -0.33500
O 	O 	0.39173 0.74625 0.51819 -0.35600
O 	O 	0.65583 0.82223 0.39376 -0.36700
O 	O 	0.58881 0.93079 0.49257 -0.37500
O 	O 	0.59488 0.66791 0.43042 -0.33000
O 	O 	0.48054 0.77469 0.45224 -0.71100
H 	H 	0.41023 0.70916 0.45299 0.16000
C 	C 	0.55959 0.94156 0.12309 0.28000
C 	C 	0.70419 0.67781 0.16750 0.31000
Ni	Ni	0.69247 0.83150 0.13495 1.12700
Ni	Ni	0.64555 0.79160 0.21600 1.12000
O 	O 	0.62026 0.90000 0.23547 -0.35500
O 	O 	0.55950 0.71258 0.11157 -0.37000
O 	O 	0.61245 0.89571 0.10890 -0.38100
O 	O 	0.64695 0.67473 0.19669 -0.35900
O 	O 	0.58545 0.81367 0.17332 -0.70200
H 	H 	0.61423 0.88115 0.17662 0.14500
C 	C 	0.18602 0.84075 0.62701 -0.06500
C 	C 	0.22645 0.85610 0.59267 0.03300
C 	C 	0.15952 0.88560 0.57037 0.05400
C 	C 	0.10732 0.93938 0.58437 -0.00800
C 	C 	0.12293 0.95893 0.61967 -0.09000
C 	C 	0.11790 0.88496 0.63913 0.13000
N 	N 	0.16378 0.87505 0.53406 -0.01300
H 	H 	0.07819 0.97820 0.56771 0.07100
N 	N 	0.05279 0.85997 0.67102 -0.01400
H 	H 	0.21784 0.80504 0.64449 0.09900
C 	C 	0.55370 0.99738 0.55443 0.08700
C 	C 	0.43731 0.97510 0.56938 -0.10700
N 	N 	0.61898 0.08196 0.53467 -0.01600
H 	H 	0.40114 0.02394 0.56715 0.04300
O 	O 	0.05940 0.79778 0.69049 -0.08700
O 	O 	0.97462 0.89090 0.67860 -0.09300
O 	O 	0.16029 0.79962 0.52133 -0.10800
O 	O 	0.74143 0.12166 0.53074 -0.07400
C 	C 	0.13685 0.37891 0.52438 0.03200
C 	C 	0.11278 0.42894 0.49908 0.06700
C 	C 	0.18001 0.52795 0.49993 -0.01000
C 	C 	0.27711 0.57620 0.52450 -0.07900
C 	C 	0.28764 0.52559 0.55244 0.13700
C 	C 	0.10500 0.28020 0.51861 0.03000
C 	C 	0.08033 0.16363 0.55990 0.11400
C 	C 	0.03182 0.21562 0.54354 -0.04700
N 	N 	0.02544 0.11879 0.59147 -0.01900
H 	H 	0.95730 0.22347 0.55588 0.08500
O 	O 	0.04589 0.17085 0.61876 -0.09400
O 	O 	0.92965 0.03317 0.59081 -0.08300
C 	C 	0.31771 0.11209 0.72488 -0.04300
C 	C 	0.21657 0.04920 0.73485 0.02400
C 	C 	0.58962 0.04622 0.04647 0.06800
C 	C 	0.52529 0.02674 0.07775 0.02300
C 	C 	0.59172 0.03194 0.10779 -0.06200
C 	C 	0.72200 0.09922 0.10856 0.12000
N 	N 	0.51955 0.03313 0.01536 -0.00900
N 	N 	0.78769 0.13456 0.14079 -0.02100
O 	O 	0.72329 0.12104 0.16878 -0.08100
O 	O 	0.46903 0.95154 0.99973 -0.10800
O 	O 	0.47544 0.09014 0.00883 -0.13600
N 	N 	0.40556 0.30262 0.07781 -0.01800
C 	C 	0.66592 0.59099 0.14673 -0.08600
C 	C 	0.53739 0.53378 0.13709 0.13000
C 	C 	0.50761 0.50380 0.10293 -0.06300
N 	N 	0.44444 0.48475 0.16254 -0.02400
H 	H 	0.40955 0.47208 0.09411 0.08900
O 	O 	0.28545 0.26474 0.08524 -0.06800
O 	O 	0.46443 0.43309 0.18431 -0.07400
C 	C 	0.18109 0.97048 0.88487 -0.05600
C 	C 	0.36286 0.88708 0.58484 0.02500
C 	C 	0.21292 0.42749 0.55282 -0.07100
C 	C 	0.19219 0.26247 0.50051 0.07000
C 	C 	0.19916 0.17467 0.54919 -0.07900
O 	O 	0.22152 0.26962 0.44070 -0.06500
O 	O 	0.10589 0.72830 0.03671 -0.07300
C 	C 	0.45258 0.35634 0.04720 0.06700
H 	H 	0.31432 0.24505 0.01505 0.09100
O 	O 	0.35100 0.55233 0.61063 -0.06700
C 	C 	0.72421 0.08270 0.04655 0.02000
O 	O 	0.48170 0.28799 0.09744 -0.06500
O 	O 	0.59215 0.29130 0.46213 -0.07400
C 	C 	0.73400 0.12994 0.92430 0.31400
C 	C 	0.61281 0.41961 0.86344 0.31900
C 	C 	0.76545 0.31374 0.96427 0.31300
C 	C 	0.55524 0.16634 0.83324 0.27300
C 	C 	0.44184 0.29093 0.95580 0.30300
Ni	Ni	0.72078 0.29830 0.89013 1.11100
Ni	Ni	0.42035 0.23002 0.88309 1.12300
Ni	Ni	0.51240 0.14374 0.94566 1.13700
O 	O 	0.78994 0.20393 0.90338 -0.36700
O 	O 	0.60994 0.08249 0.92736 -0.35400
O 	O 	0.43672 0.31574 0.92352 -0.33900
O 	O 	0.70896 0.42030 0.87941 -0.34200
O 	O 	0.52020 0.34013 0.85219 -0.37500
O 	O 	0.75020 0.35583 0.93824 -0.36300
O 	O 	0.67124 0.23241 0.97475 -0.34200
O 	O 	0.27695 0.12321 0.90716 -0.37900
O 	O 	0.65896 0.24883 0.83983 -0.34900
O 	O 	0.43965 0.15109 0.84362 -0.33800
O 	O 	0.41155 0.20310 0.96302 -0.34900
O 	O 	0.55347 0.21442 0.90404 -0.70100
H 	H 	0.54175 0.15762 0.89249 0.14900
C 	C 	0.58086 0.44873 0.66745 0.29500
C 	C 	0.42108 0.19711 0.71097 0.30200
C 	C 	0.29971 0.19897 0.57514 0.29500
C 	C 	0.65237 0.11932 0.65529 0.32900
C 	C 	0.72773 0.33312 0.59165 0.28600
Ni	Ni	0.35811 0.25909 0.64771 1.11800
Ni	Ni	0.49217 0.14910 0.60500 1.12400
Ni	Ni	0.64800 0.29457 0.66521 1.12000
O 	O 	0.47281 0.40645 0.64970 -0.33800
O 	O 	0.61899 0.39806 0.68486 -0.36600
O 	O 	0.56363 0.07988 0.63200 -0.35400
O 	O 	0.34034 0.05752 0.63098 -0.37800
O 	O 	0.74815 0.37053 0.62355 -0.34200
O 	O 	0.39225 0.25906 0.69928 -0.35900
O 	O 	0.53009 0.20139 0.70192 -0.35100
O 	O 	0.66756 0.23976 0.58638 -0.34900
O 	O 	0.31907 0.26678 0.59697 -0.36100
O 	O 	0.39243 0.17909 0.56880 -0.36800
O 	O 	0.72300 0.21058 0.65657 -0.38100
O 	O 	0.50169 0.24585 0.63519 -0.69700
H 	H 	0.52827 0.29691 0.61853 0.14700
C 	C 	0.67162 0.65405 0.81203 0.28400
C 	C 	0.70925 0.96484 0.72824 0.24600
C 	C 	0.69406 0.69653 0.71736 0.30400
C 	C 	0.65285 0.95927 0.81713 0.26700
Ni	Ni	0.61668 0.79000 0.77286 1.11600
O 	O 	0.59568 0.69220 0.81089 -0.33500
O 	O 	0.74930 0.66627 0.78662 -0.36400
O 	O 	0.63066 0.87301 0.73062 -0.34100
O 	O 	0.77487 0.01492 0.75497 -0.34500
O 	O 	0.60554 0.68696 0.73895 -0.34800
O 	O 	0.81467 0.75982 0.72310 -0.34800
O 	O 	0.57203 0.87314 0.80556 -0.34200
O 	O 	0.77417 0.98514 0.82339 -0.36400
O 	O 	0.79342 0.85268 0.78291 -0.71900
H 	H 	0.78626 0.84226 0.80780 0.15300
C 	C 	0.75601 0.88354 0.41147 0.31200
C 	C 	0.63491 0.91140 0.51937 0.31800
O 	O 	0.76056 0.87623 0.44477 -0.34600
O 	O 	0.66593 0.84482 0.51612 -0.33600
C 	C 	0.86605 0.95520 0.18783 0.26600
O 	O 	0.77473 0.75938 0.15298 -0.37600
O 	O 	0.82896 0.87589 0.20425 -0.37600
O 	O 	0.83078 0.95431 0.15565 -0.35700
C 	C 	0.06249 0.08044 0.35912 0.30900
C 	C 	0.05580 0.12273 0.26290 0.30200
Ni	Ni	0.19236 0.25722 0.31832 1.12600
Ni	Ni	0.22340 0.07610 0.30473 1.12500
O 	O 	0.05087 0.14701 0.34321 -0.35400
O 	O 	0.06054 0.05879 0.28286 -0.36900
O 	O 	0.08760 0.20830 0.27480 -0.35400
O 	O 	0.15674 0.06478 0.35228 -0.37200
C 	C 	0.99545 0.09144 0.23032 -0.04000
C 	C 	0.93868 0.04055 0.20664 0.01300
C 	C 	0.86614 0.95343 0.39388 -0.05700
C 	C 	0.95702 0.01196 0.37855 0.00600
C 	C 	0.41817 0.82935 0.59103 0.06600
C 	C 	0.53663 0.85301 0.57634 -0.00100
C 	C 	0.59163 0.92782 0.55294 -0.08600
N 	N 	0.35336 0.74567 0.61082 -0.01700
H 	H 	0.57485 0.80532 0.57903 0.08700
O 	O 	0.17526 0.94194 0.51378 -0.09900
O 	O 	0.24346 0.67743 0.60054 -0.06700
O 	O 	0.40467 0.73737 0.63905 -0.07800
N 	N 	0.84127 0.68212 0.48488 -0.02000
C 	C 	0.71856 0.41482 0.50132 0.06800
C 	C 	0.68324 0.36318 0.53180 -0.00300
C 	C 	0.76261 0.39530 0.56109 -0.07700
C 	C 	0.87666 0.48261 0.56002 0.12600
N 	N 	0.63707 0.37895 0.47171 -0.01700
H 	H 	0.59380 0.29760 0.53259 0.07500
N 	N 	0.95790 0.51812 0.58950 -0.02900
O 	O 	0.89862 0.77097 0.49382 -0.10500
O 	O 	0.72336 0.62764 0.49352 -0.10600
O 	O 	0.02255 0.47781 0.59967 -0.06500
O 	O 	0.96624 0.59023 0.60643 -0.08100
O 	O 	0.60213 0.43227 0.45545 -0.07300
N 	N 	0.38247 0.57222 0.57875 -0.02300
H 	H 	0.22577 0.38834 0.57338 0.09100
C 	C 	0.23791 0.20707 0.51589 -0.00100
N 	N 	0.25037 0.31339 0.47014 -0.01400
H 	H 	0.31865 0.20456 0.50493 0.08300
O 	O 	0.50243 0.61692 0.57083 -0.07400
O 	O 	0.34182 0.40056 0.47231 -0.07800
C 	C 	0.67395 0.06149 0.67922 -0.04300
C 	C 	0.68997 0.01497 0.70067 0.02800
C 	C 	0.66311 0.61838 0.69443 -0.01500
C 	C 	0.62669 0.54407 0.67944 -0.01000
C 	C 	0.02740 0.45369 0.02755 -0.03500
C 	C 	0.12953 0.49911 0.00494 0.01500
C 	C 	0.11634 0.46675 0.97098 0.09200
C 	C 	0.99814 0.39604 0.95908 -0.02700
C 	C 	0.89170 0.35740 0.98061 -0.08200
C 	C 	0.90811 0.38283 0.01556 0.11200
H 	H 	0.98678 0.37507 0.93231 0.04500
N 	N 	0.80603 0.33505 0.03913 -0.01800
H 	H 	0.04025 0.47464 0.05429 0.09600
O 	O 	0.82717 0.30546 0.06796 -0.07700
O 	O 	0.69831 0.33367 0.03419 -0.07200
C 	C 	0.79074 0.11610 0.07793 -0.05700
C 	C 	0.79146 0.07570 0.01535 0.06400
H 	H 	0.89336 0.15238 0.07877 0.09800
C 	C 	0.89909 0.15603 0.00233 0.03300
C 	C 	0.90593 0.16876 0.96658 0.01000
C 	C 	0.80990 0.10035 0.94558 -0.10200
C 	C 	0.74622 0.00733 0.95832 0.17900
C 	C 	0.73241 0.99542 0.99398 -0.12700
N 	N 	0.01378 0.20239 0.02244 -0.00700
H 	H 	0.98769 0.22764 0.95528 0.05700
N 	N 	0.68003 0.92804 0.93540 -0.03500
H 	H 	0.66934 0.92674 0.00463 0.10400
O 	O 	0.91148 0.18385 0.14201 -0.07400
O 	O 	0.72085 0.93174 0.90440 -0.08400
O 	O 	0.57929 0.85208 0.94546 -0.06500
O 	O 	0.08800 0.29304 0.01992 -0.09500
O 	O 	0.05536 0.15208 0.03803 -0.07800
C 	C 	0.61157 0.49469 0.01768 -0.06900
C 	C 	0.55856 0.44829 0.04854 0.03200
C 	C 	0.39740 0.31492 0.01560 -0.00500
C 	C 	0.45977 0.35566 0.98491 -0.07000
C 	C 	0.56394 0.44855 0.98594 0.12700
C 	C 	0.59968 0.50083 0.08193 0.03400
N 	N 	0.61978 0.49726 0.95496 -0.02300
H 	H 	0.68913 0.56666 0.01819 0.10700
C 	C 	0.72569 0.53804 0.09494 0.06600
C 	C 	0.75889 0.58665 0.12657 0.00400
N 	N 	0.81570 0.51839 0.07842 -0.01400
H 	H 	0.85790 0.62415 0.13475 0.06400
O 	O 	0.74203 0.53509 0.95068 -0.06700
O 	O 	0.55221 0.51624 0.93365 -0.06600
O 	O 	0.86476 0.55851 0.04956 -0.08500
O 	O 	0.86976 0.47951 0.09586 -0.08200
C 	C 	0.60740 0.02647 0.82270 0.01100
C 	C 	0.57544 0.08629 0.82687 -0.03800
C 	C 	0.64215 0.57556 0.83415 -0.00800
C 	C 	0.62761 0.50602 0.84910 -0.02100
