data_crystal

_cell_length_a 15.42989
_cell_length_b 15.85431
_cell_length_c 34.95580
_cell_angle_alpha 95.38939
_cell_angle_beta  95.39060
_cell_angle_gamma 126.68756

_symmetry_space_group_name_	'P 1'
_symmetry_space_group_name_H-M	'P 1'

loop_
_symmetry_equiv_pos_as_xyz
  x,y,z

loop_
_atom_site_label
_atom_site_type_symbol
_atom_site_fract_x
_atom_site_fract_y
_atom_site_fract_z
_atom_site_charge
C 	C 	0.04019 0.00398 0.96121 0.12100
N 	N 	0.03219 0.93968 0.49262 -0.11400
N 	N 	0.05598 0.10091 0.49388 -0.12000
C 	C 	0.09799 0.04592 0.49241 0.10800
C 	C 	0.15458 0.07279 0.96067 0.03400
C 	C 	0.21324 0.10054 0.49356 0.03300
N 	N 	0.99069 0.90145 0.96517 -0.12400
N 	N 	0.98363 0.04390 0.96110 -0.13800
C 	C 	0.87740 0.98243 0.96550 0.14400
N 	N 	0.82617 0.87800 0.96955 -0.12600
C 	C 	0.88397 0.83760 0.96898 0.12300
C 	C 	0.94760 0.04820 0.49554 0.09900
N 	N 	0.88257 0.94190 0.49596 -0.11500
C 	C 	0.92487 0.88786 0.49445 0.11700
Cu	Cu	0.75653 0.33290 0.96188 0.92800
Cu	Cu	0.70557 0.22370 0.04035 0.87100
Cu	Cu	0.57936 0.29068 0.00626 0.89500
Cu	Cu	0.55435 0.32356 0.92306 0.90800
C 	C 	0.69919 0.30910 0.87879 0.29400
O 	O 	0.81438 0.49142 0.96356 -0.33600
C 	C 	0.61858 0.29608 0.09139 0.28700
O 	O 	0.58523 0.24813 0.95294 -0.62800
O 	O 	0.73301 0.34044 0.01601 -0.64900
O 	O 	0.81957 0.25203 0.96765 -0.34700
O 	O 	0.67966 0.12814 0.99577 -0.42000
O 	O 	0.65859 0.36031 0.88667 -0.37200
O 	O 	0.43361 0.25332 0.99516 -0.36300
C 	C 	0.36603 0.20262 0.96118 0.30300
C 	C 	0.75562 0.52473 0.97222 0.28300
O 	O 	0.65026 0.45444 0.97200 -0.38300
O 	O 	0.39932 0.23306 0.92841 -0.37200
O 	O 	0.75425 0.30000 0.90710 -0.35100
C 	C 	0.75946 0.15550 0.97678 0.28900
O 	O 	0.57231 0.31232 0.06206 -0.36500
O 	O 	0.69721 0.28719 0.08767 -0.40400
H 	H 	0.53810 0.16967 0.94363 0.17000
H 	H 	0.78465 0.41228 0.03287 0.18000
Cu	Cu	0.62389 0.20204 0.50901 0.93000
Cu	Cu	0.72189 0.23694 0.42801 0.87400
Cu	Cu	0.65272 0.36172 0.46032 0.90000
Cu	Cu	0.63188 0.39884 0.54410 0.90700
C 	C 	0.65904 0.26940 0.59186 0.29600
O 	O 	0.46454 0.14344 0.51030 -0.34800
C 	C 	0.63936 0.31288 0.37544 0.28600
O 	O 	0.70783 0.36756 0.51384 -0.63300
O 	O 	0.60531 0.21350 0.45379 -0.64300
O 	O 	0.69549 0.13190 0.50268 -0.35900
O 	O 	0.82119 0.25979 0.47166 -0.42700
O 	O 	0.60452 0.30694 0.58366 -0.37100
O 	O 	0.68672 0.50219 0.46797 -0.36800
C 	C 	0.73889 0.57373 0.50065 0.30500
C 	C 	0.42468 0.19305 0.49851 0.28900
O 	O 	0.49139 0.29554 0.49753 -0.38900
O 	O 	0.71690 0.54653 0.53487 -0.37300
O 	O 	0.66880 0.21543 0.56388 -0.35200
C 	C 	0.79103 0.18292 0.49136 0.30500
O 	O 	0.61880 0.35596 0.40403 -0.36200
O 	O 	0.65256 0.23936 0.38017 -0.40300
H 	H 	0.78903 0.41597 0.52159 0.17000
H 	H 	0.53011 0.15967 0.43826 0.18100
C 	C 	0.60577 0.21679 0.76910 -0.03600
C 	C 	0.70677 0.26077 0.75662 0.02200
C 	C 	0.80283 0.30544 0.78446 -0.03700
C 	C 	0.80101 0.31926 0.82481 0.02500
C 	C 	0.70060 0.27991 0.83732 -0.07400
C 	C 	0.60212 0.22212 0.80933 0.02200
C 	C 	0.71320 0.26683 0.71438 0.02400
C 	C 	0.90370 0.33853 0.77155 0.10300
C 	C 	0.49704 0.16780 0.82200 0.06900
C 	C 	0.75423 0.36392 0.70152 -0.03700
C 	C 	0.74737 0.36639 0.66119 0.02300
C 	C 	0.69057 0.27026 0.63350 -0.07600
C 	C 	0.65450 0.17396 0.64643 0.03100
C 	C 	0.67052 0.17376 0.68685 -0.04000
C 	C 	0.80079 0.46055 0.72973 0.10400
C 	C 	0.59679 0.07452 0.61847 0.08100
C 	C 	0.79929 0.46785 0.64813 0.07300
C 	C 	0.64147 0.07750 0.70017 0.10300
C 	C 	0.50623 0.16863 0.74058 0.10200
C 	C 	0.90281 0.37765 0.85314 0.09700
N 	N 	0.84069 0.54875 0.63768 -0.11000
N 	N 	0.83793 0.53759 0.75227 -0.10300
N 	N 	0.55070 0.99509 0.59620 -0.08100
N 	N 	0.61829 0.00072 0.71085 -0.10700
N 	N 	0.98415 0.36493 0.76119 -0.10500
N 	N 	0.98413 0.42429 0.87571 -0.09800
N 	N 	0.41325 0.12449 0.83214 -0.11300
N 	N 	0.42688 0.13024 0.71779 -0.10500
C 	C 	0.61917 0.40896 0.19208 -0.03700
C 	C 	0.58574 0.32236 0.21125 0.02200
C 	C 	0.54434 0.22211 0.18926 -0.03700
C 	C 	0.54562 0.21119 0.14887 0.02000
C 	C 	0.59167 0.30123 0.13068 -0.07400
C 	C 	0.62393 0.39904 0.15189 0.02400
C 	C 	0.60454 0.33933 0.25495 0.02200
C 	C 	0.50328 0.13108 0.20844 0.09900
C 	C 	0.66523 0.49017 0.13276 0.09000
C 	C 	0.51619 0.30527 0.27466 -0.03700
C 	C 	0.52841 0.30101 0.31483 0.02400
C 	C 	0.63047 0.33481 0.33557 -0.07200
C 	C 	0.72185 0.37997 0.31673 0.02000
C 	C 	0.70853 0.38056 0.27633 -0.03700
C 	C 	0.41240 0.27287 0.25343 0.10300
C 	C 	0.82950 0.42540 0.33896 0.07000
C 	C 	0.43528 0.25865 0.33441 0.09100
C 	C 	0.80104 0.42110 0.25652 0.10000
C 	C 	0.65069 0.50864 0.21390 0.10300
C 	C 	0.50042 0.10754 0.12602 0.06800
N 	N 	0.36095 0.22483 0.35004 -0.10300
N 	N 	0.32959 0.24701 0.23643 -0.10700
N 	N 	0.91537 0.46163 0.35670 -0.11600
N 	N 	0.87476 0.45341 0.24066 -0.10900
N 	N 	0.47056 0.05854 0.22381 -0.11000
N 	N 	0.46436 0.02486 0.10778 -0.11900
N 	N 	0.69821 0.56290 0.11748 -0.10300
N 	N 	0.67586 0.58817 0.23136 -0.10500
C 	C 	0.80273 0.68406 0.49827 -0.07400
C 	C 	0.85761 0.77715 0.49641 0.03700
C 	C 	0.89970 0.10281 0.49502 0.03600
C 	C 	0.85215 0.14156 0.49391 -0.08800
C 	C 	0.30951 0.14205 0.49530 -0.07200
C 	C 	0.83300 0.72654 0.97128 0.02900
C 	C 	0.79915 0.63519 0.97227 -0.06100
C 	C 	0.82380 0.03242 0.96883 0.00900
C 	C 	0.79220 0.08664 0.97185 -0.06600
C 	C 	0.25123 0.13187 0.96075 -0.07200
