data_crystal

_cell_length_a 26.08995
_cell_length_b 26.45454
_cell_length_c 45.17674
_cell_angle_alpha 95.49705
_cell_angle_beta  95.49651
_cell_angle_gamma 125.83630

_symmetry_space_group_name_	'P 1'
_symmetry_space_group_name_H-M	'P 1'

loop_
_symmetry_equiv_pos_as_xyz
  x,y,z

loop_
_atom_site_label
_atom_site_type_symbol
_atom_site_fract_x
_atom_site_fract_y
_atom_site_fract_z
_atom_site_charge
C 	C 	0.95582 0.02515 0.99216 0.26000
C 	C 	0.04305 0.02601 0.98187 0.26900
N 	N 	0.01599 0.05652 0.98573 -0.09300
N 	N 	0.00855 0.03601 0.47217 -0.09900
C 	C 	0.91342 0.05868 0.44500 0.30100
C 	C 	0.91053 0.02942 0.46982 -0.13600
C 	C 	0.87954 0.03232 0.49299 0.29900
F 	F 	0.72617 0.04388 0.45363 -0.32400
F 	F 	0.94195 0.05499 0.42213 -0.32900
C 	C 	0.21844 0.09258 0.50069 0.25200
C 	C 	0.15261 0.05805 0.50104 0.30200
C 	C 	0.11017 0.04913 0.47590 -0.14000
F 	F 	0.25916 0.10141 0.52519 -0.32600
F 	F 	0.30103 0.05664 0.46789 -0.32400
C 	C 	0.92127 0.08771 0.97258 0.30200
C 	C 	0.92591 0.05775 0.99563 -0.13700
C 	C 	0.89998 0.05729 0.02157 0.30400
F 	F 	0.90543 0.02971 0.04430 -0.33900
F 	F 	0.72691 0.03561 0.98951 -0.32500
F 	F 	0.94556 0.08790 0.94728 -0.34300
C 	C 	0.11004 0.06105 0.97718 -0.13000
C 	C 	0.12632 0.03378 0.95533 0.29100
C 	C 	0.85379 0.06613 0.49189 0.25000
C 	C 	0.85847 0.09699 0.46753 -0.00500
C 	C 	0.88738 0.09221 0.44384 0.25300
F 	F 	0.89099 0.12081 0.41990 -0.32300
C 	C 	0.76946 0.10800 0.46151 0.23400
F 	F 	0.68353 0.11710 0.45856 -0.36500
F 	F 	0.82577 0.07034 0.51487 -0.33100
C 	C 	0.33869 0.12089 0.47130 0.23500
C 	C 	0.24228 0.11804 0.47512 -0.00400
F 	F 	0.43041 0.12267 0.46820 -0.36600
C 	C 	0.13416 0.07546 0.45051 0.30300
C 	C 	0.19995 0.10957 0.45007 0.25300
F 	F 	0.09348 0.06670 0.42600 -0.32500
C 	C 	0.86865 0.08554 0.02415 0.25300
C 	C 	0.86291 0.11431 0.00082 -0.00300
C 	C 	0.88982 0.11579 0.97515 0.24800
C 	C 	0.82625 0.14037 0.00256 0.00700
F 	F 	0.88425 0.14332 0.95243 -0.33400
C 	C 	0.72401 0.12435 0.99372 0.31600
C 	C 	0.75873 0.09947 0.99558 0.23100
F 	F 	0.65886 0.08431 0.98556 -0.36500
F 	F 	0.84341 0.08457 0.04920 -0.32500
C 	C 	0.19096 0.06215 0.95403 0.25600
C 	C 	0.23975 0.11828 0.97432 -0.00500
C 	C 	0.22346 0.14775 0.99481 0.25300
C 	C 	0.15891 0.11915 0.99636 0.30200
F 	F 	0.30229 0.09621 0.01993 -0.32400
F 	F 	0.20629 0.03399 0.93373 -0.32600
F 	F 	0.14400 0.14622 0.01752 -0.33300
C 	C 	0.83567 0.13663 0.46754 0.00600
C 	C 	0.74772 0.14537 0.46408 0.31800
C 	C 	0.31155 0.15341 0.47456 0.00700
C 	C 	0.40467 0.15457 0.47148 0.31900
C 	C 	0.30745 0.14255 0.97630 0.00800
F 	F 	0.27041 0.20286 0.01405 -0.32500
C 	C 	0.33687 0.13153 0.99983 0.23000
F 	F 	0.43064 0.14955 0.02689 -0.36200
F 	F 	0.22256 0.13382 0.42520 -0.32000
C 	C 	0.40217 0.15794 0.00308 0.32200
C 	C 	0.75664 0.19044 0.99875 -0.21600
C 	C 	0.85874 0.20629 0.00906 0.23300
C 	C 	0.88010 0.20308 0.47497 0.23300
C 	C 	0.79209 0.21175 0.47263 -0.21100
O 	O 	0.66611 0.19286 0.00137 -0.31900
C 	C 	0.35074 0.21979 0.47776 0.23600
C 	C 	0.43861 0.19511 0.98255 -0.20700
C 	C 	0.44387 0.22096 0.47463 -0.20600
O 	O 	0.72775 0.23351 0.49772 -0.38800
C 	C 	0.34320 0.17822 0.95532 0.23600
O 	O 	0.53291 0.20073 0.99911 -0.31200
F 	F 	0.94426 0.23122 0.48069 -0.32600
C 	C 	0.72107 0.21665 0.99232 0.39500
H 	H 	0.57063 0.21088 0.84925 0.07000
H 	H 	0.58525 0.27969 0.16036 0.09200
C 	C 	0.85843 0.24053 0.47741 0.31600
C 	C 	0.82409 0.23127 0.00715 0.31900
H 	H 	0.58013 0.22397 0.94674 0.20700
H 	H 	0.61873 0.24183 0.45240 0.20400
H 	H 	0.56643 0.22476 0.79607 0.08700
C 	C 	0.76916 0.25015 0.47951 0.39600
F 	F 	0.32503 0.25168 0.48126 -0.31900
C 	C 	0.40849 0.20420 0.95833 0.31700
C 	C 	0.50873 0.22802 0.98769 0.38500
O 	O 	0.54825 0.25140 0.49595 -0.33700
C 	C 	0.41661 0.25344 0.47771 0.32200
F 	F 	0.92399 0.24613 0.01654 -0.32500
F 	F 	0.31485 0.18840 0.93227 -0.32300
F 	F 	0.13005 0.03363 0.52588 -0.32800
C 	C 	0.51326 0.25638 0.47499 0.40500
H 	H 	0.57206 0.26738 0.59104 0.07800
H 	H 	0.58664 0.22852 0.30356 0.08900
Cu	Cu	0.62729 0.23903 0.00210 0.94100
Cu	Cu	0.68349 0.24308 0.93956 0.90000
O 	O 	0.64723 0.24966 0.90271 -0.37500
H 	H 	0.55914 0.27603 0.64422 0.09200
O 	O 	0.62390 0.24864 0.95919 -0.63300
H 	H 	0.59047 0.24700 0.35856 0.05900
O 	O 	0.64394 0.24659 0.04514 -0.32100
C 	C 	0.60093 0.25810 0.84410 0.03400
C 	C 	0.63223 0.25317 0.31905 -0.04700
C 	C 	0.59829 0.26597 0.81397 -0.04700
O 	O 	0.74059 0.25857 0.97456 -0.39100
C 	C 	0.63443 0.26376 0.35020 0.03400
F 	F 	0.44252 0.23826 0.93778 -0.37100
C 	C 	0.61612 0.27838 0.14638 -0.04400
O 	O 	0.64516 0.28722 0.46208 -0.63800
C 	C 	0.68527 0.27364 0.24899 0.04200
C 	C 	0.68787 0.27457 0.27584 0.01000
C 	C 	0.68029 0.27341 0.21759 0.04200
C 	C 	0.68904 0.27670 0.30788 0.06700
C 	C 	0.67431 0.27387 0.19085 0.01100
C 	C 	0.66467 0.27461 0.15901 0.06600
H 	H 	0.74192 0.26981 0.15041 0.09200
Cu	Cu	0.74397 0.29378 0.53094 0.90000
C 	C 	0.70424 0.27269 0.14077 -0.04400
C 	C 	0.04068 0.01051 0.47579 0.27600
C 	C 	0.69549 0.27493 0.10998 0.03400
C 	C 	0.60730 0.28066 0.11570 0.03800
H 	H 	0.72665 0.27398 0.09609 0.07500
C 	C 	0.64712 0.27925 0.09731 -0.05100
H 	H 	0.56921 0.28306 0.10618 0.08400
O 	O 	0.53979 0.29821 0.45694 -0.33300
C 	C 	0.63817 0.28239 0.06497 0.29800
C 	C 	0.69349 0.29780 0.37044 -0.05400
Cu	Cu	0.64114 0.30184 0.50376 0.91400
O 	O 	0.79346 0.30325 0.46925 -0.32100
C 	C 	0.61390 0.30168 0.60847 0.03500
O 	O 	0.54735 0.28758 0.98478 -0.34800
O 	O 	0.63620 0.30205 0.54710 -0.34500
F 	F 	0.90185 0.30456 0.48575 -0.36500
F 	F 	0.85605 0.29516 0.01306 -0.36700
C 	C 	0.60654 0.30649 0.63863 -0.04700
C 	C 	0.65339 0.30153 0.89863 0.29700
F 	F 	0.87665 0.00449 0.51716 -0.34300
C 	C 	0.94462 0.00076 0.47279 0.26100
C 	C 	0.74772 0.30810 0.32808 -0.04500
F 	F 	0.07949 0.97918 0.93574 -0.32200
N 	N 	0.92273 0.96318 0.99471 -0.09400
C 	C 	0.94934 0.93232 0.99048 0.26800
N 	N 	0.00945 0.96383 0.98403 -0.08800
N 	N 	0.00878 0.94957 0.47980 -0.09200
C 	C 	0.94487 0.91401 0.48037 0.27200
N 	N 	0.91275 0.93970 0.47694 -0.09300
Cu	Cu	0.67067 0.34258 0.96445 0.91300
Cu	Cu	0.62666 0.35569 0.02162 0.91900
O 	O 	0.68008 0.33786 0.00630 -0.63900
O 	O 	0.61125 0.30948 0.05619 -0.33700
O 	O 	0.72047 0.43390 0.97268 -0.33200
C 	C 	0.71058 0.46691 0.99193 0.39500
O 	O 	0.66494 0.43907 0.00832 -0.32600
O 	O 	0.67648 0.34890 0.92156 -0.33700
H 	H 	0.72518 0.36465 0.01739 0.20100
Cu	Cu	0.74577 0.34072 0.46606 0.93900
Cu	Cu	0.62437 0.33559 0.44385 0.91700
C 	C 	0.69680 0.31725 0.40260 0.29500
O 	O 	0.78212 0.43285 0.46614 -0.31100
C 	C 	0.68469 0.32702 0.57011 0.30000
O 	O 	0.73652 0.34886 0.50884 -0.63200
O 	O 	0.67020 0.34566 0.40939 -0.33700
C 	C 	0.75289 0.45635 0.47597 0.38300
O 	O 	0.69265 0.41788 0.47906 -0.34400
O 	O 	0.73801 0.31958 0.42325 -0.32000
O 	O 	0.73767 0.33346 0.56651 -0.37600
H 	H 	0.76119 0.39299 0.52013 0.20700
C 	C 	0.64393 0.31083 0.86743 -0.05500
C 	C 	0.63838 0.32653 0.80691 0.06400
C 	C 	0.67883 0.37964 0.83020 -0.04300
C 	C 	0.68155 0.37192 0.86038 0.03300
C 	C 	0.64245 0.33339 0.77581 0.00800
C 	C 	0.64538 0.33845 0.74968 0.03900
C 	C 	0.64981 0.34327 0.71905 0.04000
C 	C 	0.65433 0.34631 0.69287 0.00700
C 	C 	0.66054 0.34854 0.66160 0.06600
C 	C 	0.67553 0.33876 0.60109 -0.05900
C 	C 	0.72909 0.38331 0.62401 0.03500
C 	C 	0.72157 0.38804 0.65415 -0.04900
H 	H 	0.70966 0.42668 0.82491 0.09400
H 	H 	0.71462 0.41313 0.87811 0.09300
H 	H 	0.77671 0.41316 0.61859 0.07000
H 	H 	0.76348 0.42104 0.67178 0.08700
C 	C 	0.74997 0.31844 0.35930 0.04100
H 	H 	0.79184 0.32626 0.31961 0.09400
H 	H 	0.79586 0.34472 0.37470 0.08400
C 	C 	0.79802 0.61869 0.50549 0.23700
C 	C 	0.83362 0.65326 0.48419 0.00600
C 	C 	0.84659 0.62432 0.46150 0.23500
C 	C 	0.82226 0.56062 0.45944 0.31800
C 	C 	0.78513 0.52536 0.48028 -0.20300
C 	C 	0.77419 0.55514 0.50368 0.31600
C 	C 	0.85721 0.71976 0.48554 -0.00400
F 	F 	0.88207 0.65779 0.44116 -0.32600
F 	F 	0.74028 0.52238 0.52458 -0.37000
C 	C 	0.91077 0.76835 0.50740 0.25300
C 	C 	0.93709 0.83187 0.50683 0.30100
C 	C 	0.91050 0.84741 0.48414 -0.13500
C 	C 	0.85503 0.79860 0.46314 0.30300
C 	C 	0.82840 0.73502 0.46390 0.25200
F 	F 	0.93836 0.75402 0.52869 -0.32300
F 	F 	0.82869 0.81282 0.44115 -0.33400
F 	F 	0.98919 0.87848 0.52798 -0.32600
F 	F 	0.77564 0.68824 0.44311 -0.32300
F 	F 	0.78591 0.64651 0.52775 -0.32100
F 	F 	0.83267 0.53252 0.43650 -0.36100
F 	F 	0.45425 0.31773 0.48132 -0.35200
C 	C 	0.79640 0.64212 0.02035 0.23800
C 	C 	0.81120 0.66619 0.99355 0.00600
C 	C 	0.79348 0.62489 0.96625 0.23400
C 	C 	0.76044 0.55984 0.96563 0.32100
C 	C 	0.74597 0.53563 0.99252 -0.20100
C 	C 	0.76450 0.57726 0.01992 0.32000
C 	C 	0.84568 0.73476 0.99408 -0.00700
F 	F 	0.80820 0.64787 0.94027 -0.32700
F 	F 	0.75239 0.55495 0.04619 -0.36700
C 	C 	0.91084 0.77785 0.00789 0.25700
C 	C 	0.94419 0.84258 0.00749 0.29100
C 	C 	0.91298 0.86468 0.99269 -0.13200
C 	C 	0.84749 0.82150 0.97915 0.30200
C 	C 	0.81390 0.75694 0.98011 0.25500
F 	F 	0.94198 0.75682 0.02145 -0.32400
F 	F 	0.81689 0.84183 0.96433 -0.33400
F 	F 	0.00673 0.88394 0.02165 -0.31900
F 	F 	0.75060 0.71572 0.96713 -0.32000
F 	F 	0.81302 0.68168 0.04683 -0.31900
F 	F 	0.74122 0.52018 0.93881 -0.36800
