data_crystal

_cell_length_a 20.45367
_cell_length_b 21.31233
_cell_length_c 31.55674
_cell_angle_alpha 60.89522
_cell_angle_beta  118.83899
_cell_angle_gamma 133.27993

_symmetry_space_group_name_	'P 1'
_symmetry_space_group_name_H-M	'P 1'

loop_
_symmetry_equiv_pos_as_xyz
  x,y,z

loop_
_atom_site_label
_atom_site_type_symbol
_atom_site_fract_x
_atom_site_fract_y
_atom_site_fract_z
_atom_site_charge
Co	Co	0.03317 0.01145 0.04201 1.15100
O 	O 	0.00587 0.09457 0.03140 -0.44100
O 	O 	0.04291 0.92667 0.07495 -0.73400
Co	Co	0.06709 0.02686 0.54813 1.17100
Co	Co	0.01810 0.09963 0.59429 1.18200
Co	Co	0.10021 0.89253 0.55536 1.21300
O 	O 	0.06697 0.12846 0.53916 -0.41400
O 	O 	0.05634 0.15310 0.69409 -0.38900
O 	O 	0.05632 0.93074 0.57997 -0.72300
C 	C 	0.03020 0.02118 0.87618 -0.07000
C 	C 	0.03486 0.02206 0.83246 -0.06700
C 	C 	0.08604 0.05716 0.34226 -0.03900
C 	C 	0.07220 0.04857 0.38519 -0.08500
C 	C 	0.04319 0.20624 0.13191 0.38400
Co	Co	0.02013 0.86516 0.13311 1.18600
O 	O 	0.02377 0.95143 0.25294 -0.27700
O 	O 	0.04227 0.77885 0.08835 -0.37200
O 	O 	0.03151 0.98896 0.61927 -0.53200
C 	C 	0.02383 0.00196 0.26717 0.17200
O 	O 	0.06645 0.17606 0.11748 -0.36200
O 	O 	0.01309 0.06375 0.23401 -0.33200
C 	C 	0.02792 0.98457 0.32049 0.06400
Co	Co	0.10307 0.90981 0.04696 1.20700
O 	O 	0.10639 0.83215 0.67705 -0.31200
H 	H 	0.08100 0.08062 0.89009 0.11100
H 	H 	0.08505 0.08390 0.81170 0.10300
O 	O 	0.00604 0.00341 0.47441 -0.36600
F 	F 	0.11451 0.36633 0.59441 -0.34400
C 	C 	0.11572 0.21955 0.66555 0.39700
O 	O 	0.11829 0.20921 0.62757 -0.33000
F 	F 	0.03645 0.35126 0.06406 -0.36200
Co	Co	0.00832 0.86193 0.63055 1.18800
O 	O 	0.01342 0.76045 0.58974 -0.37000
C 	C 	0.09409 0.36049 0.11005 0.29700
H 	H 	0.11967 0.10441 0.40199 0.11900
C 	C 	0.10978 0.29527 0.14164 -0.18700
F 	F 	0.12133 0.49718 0.09488 -0.33700
O 	O 	0.14348 0.87239 0.17200 -0.31000
H 	H 	0.14056 0.12112 0.32515 0.12200
C 	C 	0.13467 0.43343 0.12649 0.26900
C 	C 	0.00126 0.94961 0.46010 0.27500
O 	O 	0.97646 0.98666 0.96891 -0.25500
O 	O 	0.98458 0.93538 0.74317 -0.29000
Co	Co	0.96498 0.06089 0.09144 1.17600
F 	F 	0.18460 0.24328 0.22030 -0.37900
C 	C 	0.97199 0.94485 0.81423 0.06600
O 	O 	0.98668 0.87295 0.99011 -0.27900
O 	O 	0.95873 0.15821 0.13618 -0.34300
O 	O 	0.99657 0.87874 0.49207 -0.29600
C 	C 	0.95251 0.95469 0.75976 0.29500
C 	C 	0.69369 0.27231 0.03003 0.27400
N 	N 	0.60262 0.23463 0.02118 -0.12200
C 	C 	0.57756 0.27804 0.02299 0.28500
N 	N 	0.64293 0.35846 0.03349 -0.12600
C 	C 	0.73328 0.39500 0.04402 0.27600
N 	N 	0.75912 0.35268 0.04177 -0.10600
C 	C 	0.72281 0.30749 0.50710 0.25900
N 	N 	0.77910 0.38882 0.51726 -0.09500
C 	C 	0.74095 0.42285 0.51643 0.27300
N 	N 	0.64832 0.37561 0.50632 -0.12200
C 	C 	0.59300 0.29215 0.50112 0.27600
N 	N 	0.62976 0.25867 0.50030 -0.10100
C 	C 	0.28437 0.65185 0.19492 0.27700
N 	N 	0.37672 0.69391 0.20410 -0.11100
C 	C 	0.40757 0.65358 0.20478 0.28600
N 	N 	0.34674 0.57103 0.19726 -0.11800
C 	C 	0.25490 0.52895 0.18705 0.27700
N 	N 	0.22303 0.56954 0.18534 -0.10900
C 	C 	0.30138 0.64472 0.72241 0.28000
N 	N 	0.39331 0.70215 0.72369 -0.10800
C 	C 	0.43660 0.67476 0.72331 0.27900
N 	N 	0.38940 0.58859 0.72522 -0.11700
C 	C 	0.29715 0.53221 0.72090 0.27900
N 	N 	0.25274 0.56013 0.71950 -0.11000
Co	Co	0.95064 0.91414 0.18249 1.20100
C 	C 	0.21172 0.10509 0.02234 0.41900
Co	Co	0.89422 0.02764 0.17879 1.17600
C 	C 	0.95674 0.72647 0.09203 0.42000
O 	O 	0.78255 0.98718 0.11974 -0.25300
O 	O 	0.93973 0.99824 0.14883 -0.69200
C 	C 	0.79308 0.04456 0.07654 0.31800
O 	O 	0.97988 0.83214 0.19338 -0.37700
C 	C 	0.77948 0.83106 0.20850 0.40700
O 	O 	0.96648 0.94637 0.10609 -0.51600
C 	C 	0.97462 0.93343 0.95599 0.26800
C 	C 	0.19870 0.89121 0.14999 0.39200
O 	O 	0.84942 0.06627 0.05404 -0.31500
O 	O 	0.83066 0.90158 0.22503 -0.35000
O 	O 	0.81353 0.82176 0.18724 -0.33600
O 	O 	0.21153 0.94980 0.10735 -0.29900
O 	O 	0.16552 0.03846 0.00342 -0.42900
O 	O 	0.17392 0.10324 0.04733 -0.38200
O 	O 	0.93035 0.74643 0.11183 -0.33100
Co	Co	0.93706 0.92594 0.66802 1.21600
C 	C 	0.24072 0.08800 0.53591 0.42200
Co	Co	0.91864 0.07018 0.66339 1.16600
C 	C 	0.92691 0.72293 0.58414 0.42800
O 	O 	0.93741 0.17409 0.60097 -0.37000
O 	O 	0.96572 0.02996 0.64253 -0.77800
C 	C 	0.90175 0.16108 0.55660 0.41400
O 	O 	0.94195 0.82600 0.67907 -0.37500
C 	C 	0.75387 0.89481 0.64536 0.39000
C 	C 	0.16977 0.84977 0.66194 0.39400
O 	O 	0.91207 0.11482 0.54698 -0.35000
O 	O 	0.78781 0.97984 0.62924 -0.29700
O 	O 	0.79444 0.86587 0.64492 -0.32400
O 	O 	0.19667 0.91223 0.62176 -0.29700
O 	O 	0.89314 0.97220 0.72908 -0.33500
O 	O 	0.18716 0.01964 0.51711 -0.41400
O 	O 	0.20768 0.10085 0.55556 -0.36500
O 	O 	0.90461 0.75832 0.59477 -0.33900
C 	C 	0.90012 0.86600 0.88445 0.01100
C 	C 	0.96232 0.94319 0.90252 0.07100
C 	C 	0.90575 0.86654 0.84136 0.00800
H 	H 	0.84895 0.80440 0.90475 0.11400
H 	H 	0.85536 0.80680 0.82777 0.12500
C 	C 	0.95628 0.90322 0.34293 0.02800
C 	C 	0.99965 0.96746 0.40718 0.09800
C 	C 	0.94141 0.89508 0.38525 -0.00900
H 	H 	0.90970 0.84690 0.32664 0.11200
H 	H 	0.88608 0.83138 0.40191 0.13800
C 	C 	0.19573 0.44243 0.65808 0.26800
C 	C 	0.24465 0.44878 0.70764 -0.13100
C 	C 	0.26269 0.38577 0.74057 0.26500
C 	C 	0.23102 0.31654 0.72444 0.29600
C 	C 	0.17842 0.30772 0.67557 -0.19200
C 	C 	0.16387 0.37295 0.64199 0.29300
F 	F 	0.18145 0.50516 0.62511 -0.32300
F 	F 	0.24703 0.25488 0.75718 -0.36300
F 	F 	0.31244 0.39260 0.78811 -0.33100
C 	C 	0.59575 0.73107 0.73336 0.26700
C 	C 	0.52328 0.74020 0.70675 -0.12900
C 	C 	0.52444 0.79591 0.65840 0.27500
C 	C 	0.59573 0.83999 0.63644 0.30300
C 	C 	0.66846 0.83130 0.66310 -0.18400
C 	C 	0.66738 0.77555 0.71144 0.29100
F 	F 	0.73701 0.76626 0.73767 -0.38500
F 	F 	0.59521 0.67691 0.78000 -0.34500
F 	F 	0.59404 0.89110 0.58905 -0.30000
F 	F 	0.45344 0.80320 0.63154 -0.31800
C 	C 	0.25229 0.70297 0.74505 0.27600
C 	C 	0.25121 0.68109 0.70903 -0.11900
C 	C 	0.21386 0.70601 0.65872 0.27700
C 	C 	0.18560 0.75904 0.64363 0.30700
C 	C 	0.18680 0.78221 0.67928 -0.17600
C 	C 	0.21859 0.75211 0.73025 0.31200
F 	F 	0.22200 0.77460 0.76517 -0.33400
F 	F 	0.28811 0.67889 0.79406 -0.33200
F 	F 	0.16435 0.79404 0.59413 -0.41300
F 	F 	0.21243 0.68524 0.62369 -0.31700
C 	C 	0.16819 0.30516 0.18937 0.29100
C 	C 	0.20603 0.37614 0.20643 0.26300
C 	C 	0.19117 0.44190 0.17481 -0.12500
F 	F 	0.26010 0.38288 0.25333 -0.34300
C 	C 	0.61566 0.76380 0.16287 0.30200
C 	C 	0.68107 0.76870 0.20848 -0.19300
C 	C 	0.65551 0.73542 0.25298 0.30500
C 	C 	0.56797 0.70374 0.25151 0.27500
C 	C 	0.50448 0.70345 0.20568 -0.12700
C 	C 	0.52838 0.73274 0.16139 0.27200
F 	F 	0.46620 0.72964 0.11692 -0.33400
F 	F 	0.63848 0.79378 0.11965 -0.35800
F 	F 	0.54422 0.67183 0.29475 -0.32900
F 	F 	0.71725 0.73758 0.29752 -0.35900
C 	C 	0.24481 0.75754 0.13513 0.27300
C 	C 	0.25156 0.70408 0.18326 -0.12300
C 	C 	0.24003 0.71054 0.22128 0.27400
C 	C 	0.22190 0.77053 0.21086 0.30400
C 	C 	0.21731 0.82592 0.16256 -0.17800
C 	C 	0.23002 0.81911 0.12491 0.29500
F 	F 	0.22660 0.87133 0.07791 -0.40400
F 	F 	0.25598 0.75217 0.09822 -0.33000
F 	F 	0.21165 0.77628 0.24797 -0.33900
F 	F 	0.24783 0.66005 0.26836 -0.33300
C 	C 	0.75255 0.14069 0.51823 0.29100
C 	C 	0.84677 0.19523 0.51945 -0.18500
C 	C 	0.89279 0.28797 0.50368 0.30900
C 	C 	0.85180 0.32509 0.49795 0.27100
C 	C 	0.76276 0.26941 0.50633 -0.11300
C 	C 	0.71150 0.17661 0.51388 0.26300
F 	F 	0.62356 0.12070 0.51924 -0.33900
F 	F 	0.70340 0.05142 0.52713 -0.35300
F 	F 	0.89902 0.41479 0.48466 -0.32300
F 	F 	0.98089 0.34238 0.49890 -0.31700
C 	C 	0.83351 0.50034 0.58444 0.27100
C 	C 	0.79822 0.50445 0.53311 -0.11600
C 	C 	0.79069 0.57457 0.50055 0.26700
C 	C 	0.81715 0.63883 0.51909 0.30000
C 	C 	0.85734 0.63757 0.56998 -0.19000
C 	C 	0.86080 0.56521 0.60284 0.30700
F 	F 	0.89779 0.56173 0.65237 -0.34800
F 	F 	0.83775 0.43130 0.61682 -0.33800
F 	F 	0.80976 0.70611 0.48694 -0.36600
F 	F 	0.75400 0.57829 0.45099 -0.33400
C 	C 	0.48115 0.17442 0.55446 0.26700
C 	C 	0.49907 0.23332 0.50780 -0.12700
C 	C 	0.43587 0.25294 0.47336 0.26400
C 	C 	0.35550 0.21376 0.48537 0.30200
C 	C 	0.33645 0.15306 0.53150 -0.20700
C 	C 	0.40121 0.13593 0.56659 0.29900
F 	F 	0.38424 0.07827 0.61164 -0.37300
F 	F 	0.54332 0.15741 0.58887 -0.34300
F 	F 	0.29362 0.23124 0.45115 -0.37200
F 	F 	0.45356 0.31170 0.42862 -0.33600
C 	C 	0.74293 0.17473 0.09035 0.27200
C 	C 	0.72100 0.21644 0.04086 -0.12300
C 	C 	0.72406 0.20358 0.00225 0.25700
C 	C 	0.74895 0.14873 0.01349 0.28000
C 	C 	0.77015 0.10605 0.06339 -0.16500
C 	C 	0.76675 0.11979 0.10172 0.28400
F 	F 	0.78746 0.08037 0.15031 -0.44000
F 	F 	0.74015 0.18676 0.12780 -0.34400
F 	F 	0.75034 0.13575 0.97595 -0.31900
F 	F 	0.70276 0.24377 0.95404 -0.30800
C 	C 	0.80002 0.47974 0.10383 0.26500
C 	C 	0.80204 0.47751 0.06063 -0.11700
C 	C 	0.85273 0.55716 0.02755 0.24100
C 	C 	0.89750 0.63829 0.03608 0.30900
C 	C 	0.89401 0.64096 0.07868 -0.20500
C 	C 	0.84556 0.56111 0.11273 0.30900
F 	F 	0.84472 0.56232 0.15509 -0.34800
F 	F 	0.75148 0.40272 0.13638 -0.32700
F 	F 	0.94615 0.71476 0.00342 -0.38600
F 	F 	0.85478 0.55583 0.98562 -0.30400
C 	C 	0.42172 0.24197 0.97762 0.29700
C 	C 	0.48235 0.23248 0.02266 -0.16600
C 	C 	0.45928 0.19869 0.06802 0.27000
C 	C 	0.37448 0.17077 0.06818 0.30300
C 	C 	0.31003 0.17201 0.02303 -0.23900
C 	C 	0.33663 0.21333 0.97783 0.33200
F 	F 	0.27661 0.21906 0.93387 -0.36200
F 	F 	0.44574 0.27981 0.93363 -0.33100
F 	F 	0.35217 0.13640 0.11227 -0.37600
F 	F 	0.51990 0.19425 0.11198 -0.33700
