data_crystal

_cell_length_a 19.94838
_cell_length_b 21.54752
_cell_length_c 31.53216
_cell_angle_alpha 60.94891
_cell_angle_beta  118.78908
_cell_angle_gamma 133.28556

_symmetry_space_group_name_	'P 1'
_symmetry_space_group_name_H-M	'P 1'

loop_
_symmetry_equiv_pos_as_xyz
  x,y,z

loop_
_atom_site_label
_atom_site_type_symbol
_atom_site_fract_x
_atom_site_fract_y
_atom_site_fract_z
_atom_site_charge
O 	O 	0.00429 0.00101 0.47405 -0.37800
C 	C 	0.00629 0.93153 0.89564 -0.07500
Co	Co	0.00933 0.09737 0.58910 1.17300
O 	O 	0.00865 0.20765 0.62498 -0.40500
O 	O 	0.01940 0.90611 0.57805 -0.74800
Co	Co	0.02334 0.87635 0.12407 1.18200
H 	H 	0.02402 0.88964 0.92790 0.08400
O 	O 	0.01566 0.88716 0.84290 -0.24900
C 	C 	0.00088 0.93672 0.84766 0.15800
O 	O 	0.99749 0.08205 0.72115 -0.35500
Co	Co	0.07378 0.04006 0.04514 1.17400
Co	Co	0.98993 0.08052 0.09069 1.19300
Co	Co	0.12651 0.92796 0.04550 1.18000
O 	O 	0.04807 0.12349 0.03515 -0.44700
C 	C 	0.04485 0.20811 0.13657 0.31300
C 	C 	0.16546 0.84197 0.15370 0.34400
O 	O 	0.12161 0.01500 0.97764 -0.37300
O 	O 	0.95464 0.15692 0.13574 -0.36200
O 	O 	0.07752 0.19095 0.11872 -0.35700
O 	O 	0.13264 0.83351 0.10828 -0.39700
O 	O 	0.13660 0.86709 0.16812 -0.35000
O 	O 	0.07557 0.95227 0.07570 -0.75300
C 	C 	0.99125 0.97846 0.26468 0.33500
O 	O 	0.25542 0.03211 0.07182 -0.38200
O 	O 	0.21737 0.12933 0.04322 -0.35500
Co	Co	0.05362 0.01060 0.54992 1.17600
Co	Co	0.05756 0.85869 0.55548 1.17400
O 	O 	0.07296 0.12159 0.54231 -0.43200
C 	C 	0.09639 0.23506 0.63778 0.33300
C 	C 	0.12388 0.81392 0.66439 0.32100
O 	O 	0.96117 0.86229 0.48938 -0.36200
O 	O 	0.11714 0.19700 0.62800 -0.36400
O 	O 	0.15274 0.86483 0.62295 -0.36200
O 	O 	0.07947 0.82374 0.67889 -0.35600
C 	C 	0.98505 0.00935 0.75359 0.24700
O 	O 	0.16048 0.98269 0.52400 -0.37200
O 	O 	0.19413 0.05867 0.57038 -0.37800
C 	C 	0.96203 0.03982 0.81189 -0.06900
C 	C 	0.97183 0.03759 0.86003 0.14900
H 	H 	0.94320 0.08104 0.77974 0.08700
O 	O 	0.96252 0.09088 0.86515 -0.23500
H 	H 	0.89470 0.05484 0.86461 0.17100
C 	C 	0.06902 0.98378 0.40034 -0.04400
C 	C 	0.06862 0.98238 0.35571 0.18400
H 	H 	0.13307 0.00436 0.42977 0.06400
O 	O 	0.15070 0.01228 0.34935 -0.29200
H 	H 	0.14995 0.95971 0.36230 0.19400
C 	C 	0.17054 0.31289 0.65943 -0.10200
C 	C 	0.16940 0.30404 0.70629 0.10600
C 	C 	0.16905 0.36439 0.71260 0.08000
Br	Br	0.14071 0.33910 0.77175 -0.14000
Br	Br	0.19768 0.22816 0.76376 -0.16400
C 	C 	0.13913 0.62587 0.71652 0.08500
C 	C 	0.10470 0.67110 0.70939 0.09100
C 	C 	0.16387 0.76337 0.69995 -0.09400
Br	Br	0.98319 0.60710 0.72049 -0.10600
Br	Br	0.06264 0.49930 0.73786 -0.13200
C 	C 	0.14188 0.29840 0.19753 0.10700
C 	C 	0.10379 0.29406 0.14738 -0.09800
C 	C 	0.15716 0.36091 0.21132 0.08500
Br	Br	0.18847 0.35483 0.28066 -0.12500
Br	Br	0.18316 0.22573 0.24608 -0.15900
C 	C 	0.22663 0.81293 0.18937 -0.10000
C 	C 	0.18554 0.72793 0.22101 0.11800
Br	Br	0.11569 0.69348 0.26340 -0.13000
C 	C 	0.76498 0.32431 0.02266 0.18800
N 	N 	0.67138 0.27790 0.01938 -0.12800
C 	C 	0.63857 0.31575 0.01965 0.19100
N 	N 	0.69810 0.40062 0.02127 -0.13100
C 	C 	0.79158 0.44713 0.02600 0.19000
N 	N 	0.82609 0.40919 0.02700 -0.11200
C 	C 	0.74482 0.31138 0.53120 0.17500
N 	N 	0.79164 0.39009 0.54065 -0.11000
C 	C 	0.75006 0.39749 0.56052 0.18400
N 	N 	0.66400 0.32809 0.56995 -0.12600
C 	C 	0.61338 0.25582 0.55424 0.19000
N 	N 	0.65476 0.24572 0.53689 -0.12100
C 	C 	0.28543 0.64594 0.20048 0.18200
N 	N 	0.21270 0.56694 0.18793 -0.11400
C 	C 	0.23257 0.51920 0.18591 0.18700
N 	N 	0.32334 0.55141 0.19456 -0.12600
C 	C 	0.39497 0.63113 0.20430 0.19100
N 	N 	0.37652 0.67663 0.20967 -0.11800
C 	C 	0.26941 0.62791 0.71691 0.17900
N 	N 	0.21342 0.55868 0.69526 -0.11200
C 	C 	0.25276 0.52414 0.69678 0.18300
N 	N 	0.34663 0.56317 0.71529 -0.12600
C 	C 	0.40234 0.63774 0.72996 0.19100
N 	N 	0.36223 0.66116 0.73794 -0.11600
Co	Co	0.95174 0.92138 0.17483 1.20000
C 	C 	0.27722 0.11232 0.05285 0.33600
Co	Co	0.88023 0.02288 0.16865 1.17500
C 	C 	0.93727 0.76195 0.05487 0.32000
O 	O 	0.78255 0.99803 0.10214 -0.32500
O 	O 	0.95175 0.01091 0.14488 -0.75500
C 	C 	0.80703 0.06120 0.06219 0.29500
O 	O 	0.96853 0.83369 0.18114 -0.40900
C 	C 	0.76015 0.83025 0.18243 0.35100
O 	O 	0.03861 0.99512 0.11819 -0.56100
C 	C 	0.04243 0.00629 0.95279 0.24000
O 	O 	0.86927 0.07953 0.04483 -0.34300
O 	O 	0.99930 0.00470 0.97542 -0.31900
O 	O 	0.80112 0.89130 0.20379 -0.38400
O 	O 	0.80612 0.83797 0.15916 -0.37300
O 	O 	0.98607 0.04358 0.23263 -0.37300
O 	O 	0.99467 0.93119 0.25010 -0.32900
O 	O 	0.98852 0.82902 0.02231 -0.36600
O 	O 	0.92182 0.77373 0.08656 -0.34300
Co	Co	0.93272 0.93523 0.66960 1.19700
Co	Co	0.97606 0.84761 0.63056 1.19700
C 	C 	0.22249 0.04231 0.54945 0.32200
Co	Co	0.90399 0.07907 0.65296 1.17600
C 	C 	0.87616 0.70008 0.58494 0.33500
O 	O 	0.81894 0.07455 0.58205 -0.36700
O 	O 	0.94919 0.03217 0.63524 -0.75000
C 	C 	0.85834 0.13346 0.54404 0.32900
O 	O 	0.93110 0.83083 0.68412 -0.41500
C 	C 	0.75591 0.88060 0.67782 0.35100
O 	O 	0.96911 0.96331 0.60120 -0.54000
C 	C 	0.98182 0.93890 0.45865 0.34900
O 	O 	0.92220 0.13906 0.53568 -0.32800
O 	O 	0.79821 0.95616 0.68562 -0.36900
O 	O 	0.79060 0.87192 0.65633 -0.36400
O 	O 	0.98684 0.95768 0.74236 -0.30700
O 	O 	0.96150 0.73083 0.58813 -0.37900
O 	O 	0.86323 0.73496 0.60289 -0.34200
C 	C 	0.99746 0.98576 0.90258 0.01900
C 	C 	0.98072 0.99275 0.80522 0.00100
H 	H 	0.08495 0.92399 0.84665 0.17400
C 	C 	0.98708 0.95778 0.40714 -0.06200
C 	C 	0.98569 0.95438 0.31702 -0.06000
C 	C 	0.90365 0.92759 0.32414 -0.04600
C 	C 	0.90435 0.93002 0.36842 0.18800
H 	H 	0.84008 0.90863 0.29433 0.08800
O 	O 	0.82506 0.90891 0.37257 -0.25100
H 	H 	0.78524 0.84416 0.38521 0.18900
C 	C 	0.20677 0.39637 0.62662 0.12100
C 	C 	0.19633 0.44601 0.67745 -0.03500
C 	C 	0.21020 0.45941 0.63280 0.08400
Br	Br	0.23621 0.56453 0.58087 -0.11200
Br	Br	0.26847 0.42938 0.58016 -0.11900
C 	C 	0.58383 0.80267 0.65374 0.12000
C 	C 	0.66359 0.80753 0.68902 -0.11200
C 	C 	0.65790 0.75727 0.73849 0.11700
C 	C 	0.57384 0.70654 0.75332 0.08600
C 	C 	0.49540 0.70541 0.71848 -0.04300
C 	C 	0.50147 0.75552 0.66882 0.08800
Br	Br	0.39715 0.76027 0.62141 -0.11400
Br	Br	0.58898 0.86333 0.58468 -0.11500
Br	Br	0.56584 0.63888 0.82129 -0.11300
Br	Br	0.76568 0.75852 0.78572 -0.14100
C 	C 	0.29546 0.76642 0.71089 0.08500
C 	C 	0.23299 0.67417 0.71292 -0.03400
C 	C 	0.26117 0.80730 0.70915 0.12000
Br	Br	0.34696 0.92642 0.71592 -0.11900
Br	Br	0.42577 0.83999 0.70738 -0.10900
C 	C 	0.09426 0.36075 0.11053 0.11200
C 	C 	0.11822 0.42825 0.12438 0.08700
C 	C 	0.15744 0.43239 0.17468 -0.04000
Br	Br	0.10108 0.51701 0.07447 -0.14000
Br	Br	0.05278 0.36160 0.04117 -0.16700
C 	C 	0.55752 0.67006 0.24016 0.08300
C 	C 	0.48802 0.67484 0.19828 -0.04300
C 	C 	0.50190 0.70795 0.14991 0.08700
C 	C 	0.58931 0.74520 0.14394 0.12100
C 	C 	0.66358 0.75276 0.18607 -0.11300
C 	C 	0.64414 0.70624 0.23373 0.11900
Br	Br	0.73949 0.69825 0.29035 -0.14700
Br	Br	0.53431 0.61497 0.30608 -0.11800
Br	Br	0.60937 0.79036 0.07816 -0.14100
Br	Br	0.40118 0.70205 0.09200 -0.12400
C 	C 	0.30608 0.84942 0.17524 0.11100
C 	C 	0.20385 0.67204 0.22488 0.08500
C 	C 	0.26640 0.70371 0.19822 -0.03800
C 	C 	0.31818 0.79393 0.17331 0.08300
Br	Br	0.39289 0.83880 0.13000 -0.12700
Br	Br	0.39300 0.97470 0.15447 -0.12100
Br	Br	0.14680 0.55509 0.26774 -0.11500
C 	C 	0.88361 0.32582 0.53228 0.07800
C 	C 	0.78808 0.29657 0.51235 -0.03200
C 	C 	0.72693 0.23269 0.48419 0.08400
C 	C 	0.75066 0.17987 0.49026 0.12000
C 	C 	0.84262 0.20303 0.51568 -0.10300
C 	C 	0.91169 0.28567 0.52684 0.12700
Br	Br	0.03424 0.35526 0.51562 -0.15700
Br	Br	0.97515 0.41672 0.56799 -0.12100
Br	Br	0.65828 0.07691 0.46423 -0.13100
Br	Br	0.61562 0.22228 0.43541 -0.12100
C 	C 	0.78415 0.54030 0.61356 0.12100
C 	C 	0.79919 0.61344 0.57372 -0.10000
C 	C 	0.78259 0.60735 0.52682 0.11400
C 	C 	0.78626 0.54661 0.52353 0.08400
C 	C 	0.79069 0.48215 0.56661 -0.03600
C 	C 	0.79341 0.48197 0.61245 0.08400
Br	Br	0.80184 0.39709 0.67253 -0.11000
Br	Br	0.73962 0.51493 0.66593 -0.11600
Br	Br	0.78108 0.54951 0.46000 -0.11700
Br	Br	0.75417 0.68142 0.46772 -0.15400
C 	C 	0.46451 0.10882 0.57049 0.09300
C 	C 	0.51104 0.19851 0.54680 -0.04900
C 	C 	0.46037 0.23525 0.52034 0.08700
C 	C 	0.36824 0.18598 0.52499 0.11500
C 	C 	0.32225 0.09637 0.54979 -0.10700
C 	C 	0.36765 0.05619 0.56708 0.10200
Br	Br	0.29596 0.93197 0.57517 -0.15600
Br	Br	0.53349 0.05808 0.60847 -0.14400
Br	Br	0.30264 0.23934 0.49400 -0.14800
Br	Br	0.51438 0.34986 0.47461 -0.11900
C 	C 	0.80416 0.21953 0.08060 0.10000
C 	C 	0.80143 0.27584 0.03333 -0.06000
C 	C 	0.80208 0.26290 0.99366 0.13000
C 	C 	0.80094 0.19118 0.00169 0.08500
C 	C 	0.79206 0.12910 0.04859 -0.08200
C 	C 	0.77973 0.13872 0.08526 0.09000
Br	Br	0.70672 0.03823 0.13343 -0.21600
Br	Br	0.83550 0.25040 0.13860 -0.12400
Br	Br	0.79741 0.17187 0.94681 -0.10400
Br	Br	0.80501 0.34316 0.92897 -0.10000
C 	C 	0.89285 0.54927 0.08056 0.09400
C 	C 	0.85405 0.53718 0.03194 -0.06300
C 	C 	0.84013 0.59889 0.99196 0.12100
C 	C 	0.84556 0.65999 0.00124 0.08000
C 	C 	0.88477 0.67280 0.04974 -0.08800
C 	C 	0.90234 0.61316 0.08982 0.10300
Br	Br	0.92963 0.61298 0.15716 -0.13200
Br	Br	0.93052 0.47669 0.13456 -0.10100
Br	Br	0.79580 0.72384 0.94807 -0.11600
Br	Br	0.80515 0.59399 0.92450 -0.10600
C 	C 	0.45050 0.20271 0.08354 0.12300
C 	C 	0.37149 0.18490 0.04320 -0.12400
C 	C 	0.38283 0.21788 0.99438 0.12600
C 	C 	0.46829 0.25340 0.98685 0.09800
C 	C 	0.54448 0.26182 0.02802 -0.06300
C 	C 	0.53576 0.23723 0.07647 0.08500
Br	Br	0.64081 0.25100 0.13299 -0.11400
Br	Br	0.44168 0.18164 0.14805 -0.14300
Br	Br	0.48155 0.29104 0.92028 -0.12300
Br	Br	0.28326 0.21845 0.93812 -0.14200
