data_crystal

_cell_length_a 18.67758
_cell_length_b 18.88081
_cell_length_c 26.48117
_cell_angle_alpha 95.42893
_cell_angle_beta  95.42891
_cell_angle_gamma 126.40315

_symmetry_space_group_name_	'P 1'
_symmetry_space_group_name_H-M	'P 1'

loop_
_symmetry_equiv_pos_as_xyz
  x,y,z

loop_
_atom_site_label
_atom_site_type_symbol
_atom_site_fract_x
_atom_site_fract_y
_atom_site_fract_z
_atom_site_charge
C 	C 	0.95141 0.04286 0.00263 0.07400
C 	C 	0.04331 0.08864 0.99956 -0.09300
C 	C 	0.08105 0.04266 0.99886 0.09300
C 	C 	0.02716 0.95162 0.00168 -0.12600
C 	C 	0.93561 0.90590 0.00428 0.08800
C 	C 	0.89783 0.95146 0.00492 -0.10800
H 	H 	0.08476 0.15909 0.99717 0.06600
H 	H 	0.05625 0.91612 0.00127 0.05600
H 	H 	0.82648 0.91552 0.00616 0.06100
C 	C 	0.90774 0.99692 0.44897 0.04500
C 	C 	0.86163 0.90489 0.44935 -0.08500
C 	C 	0.90961 0.86886 0.45016 0.07100
C 	C 	0.00304 0.92499 0.45120 -0.11500
C 	C 	0.04865 0.01615 0.45067 0.07900
C 	C 	0.00117 0.05203 0.44950 -0.07700
H 	H 	0.78947 0.86197 0.44919 0.06100
H 	H 	0.04029 0.89764 0.45243 0.05800
H 	H 	0.03707 0.12300 0.44973 0.06400
Cu	Cu	0.61767 0.20597 0.00854 0.92400
Cu	Cu	0.68335 0.21858 0.89709 0.87400
Cu	Cu	0.65910 0.34898 0.94510 0.89900
Cu	Cu	0.62599 0.37200 0.05113 0.89900
C 	C 	0.65059 0.26672 0.11797 0.28800
O 	O 	0.48693 0.15514 0.01188 -0.37200
C 	C 	0.63626 0.30140 0.83179 0.28300
O 	O 	0.69246 0.34584 0.01538 -0.64200
O 	O 	0.60012 0.21799 0.93581 -0.63700
O 	O 	0.67365 0.14339 0.99991 -0.36800
O 	O 	0.77007 0.24216 0.95291 -0.43700
O 	O 	0.61046 0.30368 0.10764 -0.37900
O 	O 	0.72535 0.47752 0.95715 -0.38600
C 	C 	0.72765 0.52711 0.99699 0.32300
C 	C 	0.45326 0.19596 0.99667 0.31300
O 	O 	0.50802 0.27973 0.99144 -0.38700
O 	O 	0.67979 0.49194 0.03338 -0.39600
O 	O 	0.65375 0.21703 0.08101 -0.36400
C 	C 	0.74838 0.18092 0.98093 0.31200
O 	O 	0.63733 0.35139 0.87095 -0.37300
O 	O 	0.62616 0.22751 0.83721 -0.41500
H 	H 	0.75846 0.38452 0.02898 0.16300
H 	H 	0.53660 0.17973 0.91699 0.17600
Cu	Cu	0.75513 0.33890 0.44377 0.92500
Cu	Cu	0.74352 0.27451 0.55549 0.87200
Cu	Cu	0.61423 0.30175 0.50940 0.89700
Cu	Cu	0.58702 0.33230 0.40325 0.89500
C 	C 	0.68870 0.30351 0.33476 0.29200
O 	O 	0.80745 0.46907 0.43998 -0.35400
C 	C 	0.66603 0.32769 0.62242 0.28500
O 	O 	0.61416 0.26678 0.43875 -0.63900
O 	O 	0.74595 0.35801 0.51696 -0.64000
O 	O 	0.81558 0.27985 0.45133 -0.37100
O 	O 	0.71625 0.18702 0.49951 -0.42800
O 	O 	0.65313 0.34486 0.34557 -0.38600
O 	O 	0.48452 0.23771 0.49943 -0.37900
C 	C 	0.43286 0.23192 0.45897 0.31300
C 	C 	0.76685 0.50333 0.45523 0.30000
O 	O 	0.68298 0.44988 0.46199 -0.39800
O 	O 	0.46734 0.28074 0.42303 -0.39600
O 	O 	0.74084 0.30165 0.37109 -0.36400
C 	C 	0.77690 0.20624 0.47088 0.30600
O 	O 	0.61657 0.32875 0.58364 -0.37500
O 	O 	0.73822 0.33315 0.61617 -0.41700
H 	H 	0.57418 0.20130 0.42565 0.16500
H 	H 	0.78586 0.42100 0.53558 0.17500
C 	C 	0.56001 0.25848 0.74034 -0.03700
C 	C 	0.63463 0.32214 0.77956 -0.08600
C 	C 	0.71308 0.39750 0.76675 0.07000
C 	C 	0.71935 0.40259 0.71457 -0.03400
C 	C 	0.64831 0.33389 0.67523 -0.08900
C 	C 	0.56602 0.26388 0.68814 0.07600
C 	C 	0.48618 0.19251 0.64655 -0.20000
H 	H 	0.49877 0.20222 0.75038 0.04700
H 	H 	0.78140 0.45781 0.70458 0.04400
C 	C 	0.79272 0.46911 0.80834 -0.19100
H 	H 	0.42654 0.14346 0.66308 0.07300
H 	H 	0.50415 0.15526 0.62300 0.06500
H 	H 	0.46589 0.22373 0.62126 0.09900
H 	H 	0.82365 0.44109 0.82765 0.05500
H 	H 	0.77038 0.49478 0.83738 0.07700
H 	H 	0.84560 0.52694 0.79232 0.06500
C 	C 	0.75251 0.33130 0.20336 -0.04300
C 	C 	0.66937 0.26089 0.17205 -0.08500
C 	C 	0.59951 0.19388 0.19470 0.08300
C 	C 	0.60948 0.20502 0.24876 -0.04000
C 	C 	0.68939 0.28032 0.28019 -0.08900
C 	C 	0.76359 0.34087 0.25743 0.08800
C 	C 	0.85299 0.41804 0.29054 -0.20600
H 	H 	0.80710 0.38113 0.18577 0.03800
H 	H 	0.55343 0.15725 0.26631 0.03500
C 	C 	0.51217 0.11355 0.16153 -0.19700
H 	H 	0.90587 0.45518 0.26696 0.07400
H 	H 	0.87726 0.39285 0.31833 0.09000
H 	H 	0.84503 0.46556 0.31210 0.09600
H 	H 	0.52645 0.08349 0.12976 0.08400
H 	H 	0.47178 0.13409 0.14485 0.07800
H 	H 	0.47093 0.06088 0.18422 0.06900
C 	C 	0.86281 0.77225 0.44968 -0.03400
C 	C 	0.85753 0.71884 0.40658 -0.10300
C 	C 	0.83020 0.63236 0.40891 0.18200
C 	C 	0.80796 0.59838 0.45473 -0.12100
C 	C 	0.81119 0.65097 0.49746 -0.04300
C 	C 	0.83929 0.73783 0.49526 0.12700
H 	H 	0.87675 0.74527 0.37157 0.06800
O 	O 	0.82559 0.58135 0.36638 -0.29100
H 	H 	0.79172 0.62444 0.53241 0.05300
O 	O 	0.84347 0.78881 0.53765 -0.28200
H 	H 	0.90564 0.82187 0.55790 0.14300
H 	H 	0.76315 0.54790 0.34645 0.14500
C 	C 	0.86019 0.03759 0.45170 -0.01400
C 	C 	0.84033 0.05454 0.49903 -0.11000
C 	C 	0.81508 0.11095 0.50584 0.18800
C 	C 	0.80661 0.14898 0.46441 -0.12700
C 	C 	0.82358 0.12962 0.41648 -0.03500
C 	C 	0.84972 0.07376 0.40992 0.12100
H 	H 	0.84876 0.02747 0.53143 0.07400
O 	O 	0.79988 0.12974 0.55320 -0.30900
H 	H 	0.81631 0.15757 0.38423 0.06200
O 	O 	0.86872 0.05766 0.36331 -0.27100
H 	H 	0.81070 0.00249 0.34352 0.14800
H 	H 	0.85953 0.18384 0.57224 0.12900
C 	C 	0.14683 0.07440 0.45215 -0.03200
C 	C 	0.20621 0.13090 0.49848 -0.10500
C 	C 	0.29990 0.18326 0.50098 0.18800
C 	C 	0.33468 0.17804 0.45701 -0.12400
C 	C 	0.27510 0.12261 0.41045 -0.03900
C 	C 	0.18148 0.07050 0.40797 0.12600
H 	H 	0.17967 0.13397 0.53260 0.06700
O 	O 	0.35729 0.23912 0.54641 -0.29000
H 	H 	0.30143 0.11922 0.37629 0.05000
O 	O 	0.12388 0.01736 0.36206 -0.26400
H 	H 	0.11263 0.95894 0.36180 0.13000
H 	H 	0.36821 0.29702 0.54484 0.14900
C 	C 	0.87827 0.80906 0.00357 -0.04800
C 	C 	0.81801 0.74935 0.95819 -0.09200
C 	C 	0.76879 0.65696 0.95559 0.18200
C 	C 	0.77931 0.62383 0.99887 -0.11400
C 	C 	0.83779 0.68361 0.04470 -0.05100
C 	C 	0.88769 0.77598 0.04707 0.13200
H 	H 	0.81018 0.77467 0.92470 0.06500
O 	O 	0.70743 0.59912 0.91163 -0.28400
H 	H 	0.84525 0.65842 0.07835 0.05100
O 	O 	0.94397 0.83383 0.09228 -0.27500
H 	H 	0.00321 0.84629 0.09058 0.13400
H 	H 	0.74272 0.59161 0.88899 0.15000
C 	C 	0.90894 0.08817 0.99889 -0.01600
C 	C 	0.88897 0.10403 0.95084 -0.10800
C 	C 	0.83654 0.13419 0.94470 0.18900
C 	C 	0.80354 0.14892 0.98705 -0.12200
C 	C 	0.82516 0.13490 0.03544 -0.04200
C 	C 	0.87748 0.10444 0.04146 0.12000
H 	H 	0.91173 0.09023 0.91775 0.07300
O 	O 	0.81323 0.14418 0.89665 -0.31800
H 	H 	0.80152 0.14766 0.06842 0.06200
O 	O 	0.89908 0.09202 0.08912 -0.27300
H 	H 	0.84844 0.02952 0.09094 0.15000
H 	H 	0.86364 0.20610 0.89370 0.14100
C 	C 	0.17743 0.08966 0.99604 -0.02700
C 	C 	0.24391 0.14690 0.04007 -0.10900
C 	C 	0.33381 0.17967 0.04095 0.18200
C 	C 	0.35794 0.15581 0.99734 -0.11800
C 	C 	0.29213 0.10070 0.95277 -0.03800
C 	C 	0.20201 0.06739 0.95198 0.12600
H 	H 	0.22544 0.16411 0.07414 0.07100
O 	O 	0.39851 0.23693 0.08396 -0.30400
H 	H 	0.31085 0.08410 0.91862 0.04800
O 	O 	0.13840 0.01467 0.90783 -0.26700
H 	H 	0.11514 0.95253 0.91025 0.12800
H 	H 	0.39894 0.19777 0.10622 0.14900
