data_crystal

_cell_length_a 25.89806
_cell_length_b 27.11695
_cell_length_c 29.74674
_cell_angle_alpha 61.04020
_cell_angle_beta  118.65763
_cell_angle_gamma 133.13630

_symmetry_space_group_name_	'P 1'
_symmetry_space_group_name_H-M	'P 1'

loop_
_symmetry_equiv_pos_as_xyz
  x,y,z

loop_
_atom_site_label
_atom_site_type_symbol
_atom_site_fract_x
_atom_site_fract_y
_atom_site_fract_z
_atom_site_charge
O 	O 	0.00851 0.87506 0.04036 -0.38700
O 	O 	0.01878 0.79642 0.64888 -0.36900
O 	O 	0.01371 0.97858 0.76896 -0.42100
O 	O 	0.03077 0.88492 0.54381 -0.39000
Co	Co	0.02453 0.02846 0.19410 1.20100
O 	O 	0.04021 0.93507 0.12107 -0.76500
O 	O 	0.03753 0.00344 0.63896 -0.55000
H 	H 	0.99913 0.25390 0.11996 0.05000
O 	O 	0.00484 0.79751 0.14877 -0.34700
C 	C 	0.03912 0.16299 0.16774 0.27800
Co	Co	0.06576 0.03996 0.70717 1.19100
O 	O 	0.06772 0.17859 0.67881 -0.36500
O 	O 	0.06587 0.93736 0.63137 -0.77200
C 	C 	0.03519 0.93508 0.93647 -0.00300
C 	C 	0.03487 0.95211 0.88377 0.02100
C 	C 	0.04676 0.96750 0.38328 0.01500
C 	C 	0.05519 0.95478 0.43716 -0.01900
H 	H 	0.06325 0.72912 0.74608 0.06000
C 	C 	0.05612 0.27559 0.13858 -0.03600
H 	H 	0.03954 0.37070 0.13121 0.06700
H 	H 	0.05452 0.64500 0.26124 0.07900
Co	Co	0.08183 0.89604 0.11259 1.16800
Co	Co	0.08938 0.97872 0.16755 1.18100
O 	O 	0.07182 0.13224 0.18646 -0.35200
O 	O 	0.09183 0.89781 0.22649 -0.38500
Co	Co	0.11511 0.97342 0.68232 1.17800
Co	Co	0.10114 0.89574 0.61833 1.16800
O 	O 	0.10711 0.88505 0.73510 -0.38700
H 	H 	0.07376 0.92504 0.96781 0.04100
H 	H 	0.07382 0.95599 0.87508 0.03500
H 	H 	0.08741 0.63731 0.77307 0.07000
C 	C 	0.08440 0.23757 0.16512 0.04100
O 	O 	0.08488 0.75978 0.26665 -0.17700
C 	C 	0.01288 0.92799 0.51128 0.30400
C 	C 	0.08328 0.36748 0.16099 -0.07900
O 	O 	0.11354 0.03363 0.21093 -0.44600
C 	C 	0.12712 0.18320 0.71009 0.26700
O 	O 	0.13812 0.01853 0.73327 -0.45100
H 	H 	0.08623 0.97680 0.37065 0.03800
H 	H 	0.10043 0.95318 0.46564 0.04200
C 	C 	0.11073 0.75006 0.77775 -0.05600
C 	C 	0.10273 0.33173 0.15848 0.00200
C 	C 	0.10849 0.67862 0.28336 -0.09400
O 	O 	0.14145 0.14408 0.71127 -0.36400
C 	C 	0.13222 0.88397 0.22750 0.27100
O 	O 	0.15419 0.99872 0.07674 -0.38800
C 	C 	0.14565 0.87000 0.73482 0.27000
C 	C 	0.13875 0.67178 0.79664 -0.08500
C 	C 	0.15019 0.72460 0.80672 0.01000
C 	C 	0.15710 0.81920 0.77911 0.04400
C 	C 	0.12371 0.40108 0.20207 0.11100
O 	O 	0.13030 0.45860 0.19750 -0.21100
C 	C 	0.12716 0.73509 0.29369 0.12300
C 	C 	0.13833 0.82917 0.27012 0.04000
H 	H 	0.11668 0.60704 0.24752 0.06500
C 	C 	0.00590 0.94504 0.45413 -0.04300
O 	O 	0.15525 0.90929 0.18539 -0.39200
O 	O 	0.18027 0.99928 0.58906 -0.38700
O 	O 	0.17024 0.89733 0.69301 -0.38600
C 	C 	0.15756 0.32631 0.19664 0.12400
O 	O 	0.15020 0.26797 0.20215 -0.18200
O 	O 	0.99963 0.97323 0.26753 -0.40700
O 	O 	0.99805 0.99092 0.12746 -0.60500
C 	C 	0.98914 0.97082 0.34583 -0.08200
O 	O 	0.97176 0.04122 0.25912 -0.37300
C 	C 	0.70619 0.30492 0.01600 -0.01400
C 	C 	0.63669 0.26786 0.02323 -0.02400
C 	C 	0.61849 0.30188 0.02982 -0.01700
C 	C 	0.66916 0.37286 0.02867 -0.01900
C 	C 	0.73826 0.41016 0.02152 -0.01600
C 	C 	0.75655 0.37674 0.01426 -0.03100
H 	H 	0.59752 0.21261 0.02480 0.05800
H 	H 	0.65525 0.39887 0.03435 0.05800
H 	H 	0.80943 0.40652 0.00710 0.04100
C 	C 	0.72806 0.30960 0.51762 -0.01500
C 	C 	0.78306 0.37796 0.52450 -0.01900
C 	C 	0.76668 0.41207 0.53323 -0.01700
C 	C 	0.69612 0.37730 0.53639 -0.01900
C 	C 	0.64139 0.30963 0.52938 -0.01800
C 	C 	0.65645 0.27721 0.51737 -0.02700
H 	H 	0.83850 0.40350 0.52478 0.05600
H 	H 	0.68444 0.40220 0.54597 0.05200
H 	H 	0.61328 0.22537 0.51063 0.04400
C 	C 	0.25703 0.64740 0.26037 -0.01700
C 	C 	0.32505 0.69659 0.24717 -0.02300
C 	C 	0.34883 0.67772 0.22867 -0.01800
C 	C 	0.30460 0.60982 0.22312 -0.02300
C 	C 	0.23784 0.55983 0.23783 -0.01600
C 	C 	0.21362 0.57874 0.25579 -0.02500
H 	H 	0.35946 0.74925 0.25143 0.05200
H 	H 	0.32305 0.59533 0.20883 0.05000
H 	H 	0.16243 0.53963 0.26782 0.04700
C 	C 	0.30683 0.65497 0.78675 -0.01500
C 	C 	0.26822 0.58772 0.78152 -0.02200
C 	C 	0.29639 0.57457 0.76179 -0.01800
C 	C 	0.36410 0.62803 0.74881 -0.01700
C 	C 	0.40275 0.69525 0.75341 -0.01800
C 	C 	0.37404 0.70895 0.77206 -0.02900
H 	H 	0.21565 0.54629 0.79145 0.05600
H 	H 	0.38606 0.61762 0.73401 0.06000
H 	H 	0.40239 0.76178 0.77302 0.03900
Co	Co	0.88582 0.95336 0.12067 1.17400
Co	Co	0.95305 0.90664 0.09256 1.18100
Co	Co	0.89535 0.02715 0.18734 1.17400
C 	C 	0.98908 0.91607 0.00464 0.27800
O 	O 	0.96759 0.12898 0.15135 -0.38300
O 	O 	0.93960 0.00526 0.16244 -0.75000
O 	O 	0.86353 0.90055 0.07623 -0.47200
C 	C 	0.82595 0.03590 0.07268 0.27100
C 	C 	0.98657 0.99564 0.28878 0.27200
C 	C 	0.18936 0.05269 0.09538 0.29000
C 	C 	0.93517 0.77081 0.13060 0.24700
O 	O 	0.18509 0.04433 0.14171 -0.36300
O 	O 	0.81322 0.01237 0.11905 -0.38500
O 	O 	0.85218 0.01515 0.06284 -0.36000
O 	O 	0.91016 0.80165 0.12800 -0.38000
C 	C 	0.78524 0.87478 0.19355 0.25800
O 	O 	0.82889 0.92197 0.22110 -0.38200
O 	O 	0.81127 0.86964 0.16812 -0.38500
O 	O 	0.96261 0.93471 0.01699 -0.39100
Co	Co	0.93254 0.98302 0.62901 1.16800
Co	Co	0.98076 0.91465 0.60387 1.17700
Co	Co	0.96540 0.08600 0.68064 1.17100
O 	O 	0.99650 0.04412 0.66349 -0.75800
O 	O 	0.89664 0.91391 0.59310 -0.47500
C 	C 	0.88496 0.07957 0.56929 0.26900
C 	C 	0.99752 0.00060 0.78810 0.34000
C 	C 	0.21694 0.04989 0.61212 0.28800
C 	C 	0.95079 0.77521 0.63197 0.25000
O 	O 	0.21254 0.03621 0.66003 -0.36300
O 	O 	0.93681 0.12188 0.60061 -0.37500
O 	O 	0.88843 0.03475 0.56630 -0.35400
O 	O 	0.00036 0.05760 0.76232 -0.38600
O 	O 	0.93246 0.80820 0.63548 -0.37800
C 	C 	0.84074 0.93177 0.69659 0.26700
O 	O 	0.85880 0.99548 0.68033 -0.40400
O 	O 	0.87187 0.91690 0.68560 -0.40300
O 	O 	0.98659 0.94386 0.52687 -0.40200
C 	C 	0.98742 0.93304 0.94866 -0.07000
C 	C 	0.93772 0.94601 0.90741 -0.01600
C 	C 	0.93757 0.96318 0.85472 0.00800
C 	C 	0.98725 0.96785 0.84260 -0.11500
H 	H 	0.89946 0.94316 0.91602 0.04500
H 	H 	0.90025 0.97487 0.82330 0.03600
C 	C 	0.93899 0.95951 0.36294 0.00300
C 	C 	0.94745 0.94697 0.41668 -0.03100
H 	H 	0.89396 0.96148 0.33444 0.03200
H 	H 	0.90810 0.93808 0.42915 0.04900
C 	C 	0.22415 0.31900 0.76678 0.12300
C 	C 	0.21523 0.34320 0.79310 -0.09400
C 	C 	0.21310 0.40111 0.76530 0.03100
C 	C 	0.22526 0.43717 0.71527 0.11500
C 	C 	0.23733 0.41490 0.68982 -0.08300
C 	C 	0.23836 0.35629 0.71712 0.00900
O 	O 	0.19310 0.24884 0.77768 -0.18900
C 	C 	0.18710 0.24670 0.72924 0.04900
C 	C 	0.21576 0.31093 0.69359 -0.05200
O 	O 	0.24896 0.50540 0.70158 -0.21000
C 	C 	0.25181 0.50749 0.74886 0.12700
C 	C 	0.23064 0.44547 0.78722 -0.10500
H 	H 	0.20564 0.31523 0.83253 0.07500
H 	H 	0.24654 0.44283 0.65028 0.07000
H 	H 	0.19923 0.31787 0.65111 0.06100
H 	H 	0.24822 0.44129 0.82932 0.06600
C 	C 	0.55300 0.79478 0.70046 0.11200
C 	C 	0.58885 0.79088 0.68024 -0.08500
C 	C 	0.65876 0.80800 0.70846 0.00800
C 	C 	0.69430 0.83358 0.75255 0.12200
C 	C 	0.65812 0.83648 0.77332 -0.09800
C 	C 	0.58778 0.81851 0.74543 0.02600
O 	O 	0.47771 0.75347 0.69028 -0.21400
C 	C 	0.47037 0.75219 0.73454 0.12400
C 	C 	0.53575 0.79118 0.76750 -0.10800
O 	O 	0.76963 0.87643 0.76137 -0.19900
C 	C 	0.77587 0.87478 0.71801 0.04100
C 	C 	0.71007 0.83379 0.68653 -0.05300
H 	H 	0.56203 0.77253 0.64483 0.06800
H 	H 	0.68498 0.85487 0.80872 0.06500
H 	H 	0.54316 0.78161 0.80927 0.06100
H 	H 	0.70167 0.84123 0.64498 0.05300
C 	C 	0.21939 0.77867 0.82517 0.12100
C 	C 	0.27904 0.77804 0.83914 -0.09400
C 	C 	0.26559 0.71956 0.83669 0.02700
C 	C 	0.19760 0.66892 0.81363 0.11400
O 	O 	0.22732 0.84042 0.80973 -0.19200
O 	O 	0.19882 0.63393 0.79243 -0.21200
C 	C 	0.27408 0.66927 0.80421 0.12400
C 	C 	0.31420 0.71998 0.83083 -0.10500
H 	H 	0.33414 0.82362 0.84774 0.06700
H 	H 	0.37154 0.76237 0.83387 0.05900
C 	C 	0.19821 0.36032 0.23752 -0.09500
C 	C 	0.17797 0.39507 0.24046 0.03100
C 	C 	0.19447 0.48705 0.23622 0.12500
C 	C 	0.22319 0.44956 0.26200 -0.10600
H 	H 	0.24184 0.35700 0.26740 0.07300
H 	H 	0.27994 0.47113 0.28165 0.06400
C 	C 	0.50424 0.76757 0.18516 0.11000
C 	C 	0.53597 0.76844 0.15732 -0.08700
C 	C 	0.59712 0.76734 0.18506 0.00800
C 	C 	0.62735 0.76822 0.23774 0.11900
C 	C 	0.59508 0.76681 0.26550 -0.09700
C 	C 	0.53545 0.77004 0.23738 0.02600
O 	O 	0.43131 0.74133 0.16966 -0.21400
C 	C 	0.42172 0.72784 0.21786 0.12400
C 	C 	0.48349 0.74468 0.25840 -0.10700
O 	O 	0.70083 0.79668 0.25311 -0.18800
C 	C 	0.71295 0.81593 0.20432 0.04500
C 	C 	0.65110 0.79765 0.16369 -0.05900
H 	H 	0.51285 0.76829 0.11586 0.06500
H 	H 	0.61824 0.76718 0.30693 0.06900
H 	H 	0.48315 0.72070 0.29996 0.06400
H 	H 	0.65161 0.82408 0.12233 0.04700
C 	C 	0.23539 0.72201 0.31527 0.11300
C 	C 	0.25478 0.78133 0.32149 -0.08400
C 	C 	0.19883 0.78417 0.31392 0.00800
C 	C 	0.16324 0.67071 0.29828 0.03000
O 	O 	0.28390 0.72225 0.30672 -0.21700
C 	C 	0.23385 0.66677 0.28237 0.12500
C 	C 	0.16190 0.63610 0.27678 -0.10600
C 	C 	0.20606 0.84365 0.29902 -0.05500
H 	H 	0.31127 0.82570 0.32828 0.06500
H 	H 	0.25684 0.89513 0.29408 0.05100
C 	C 	0.80222 0.24340 0.50855 0.11100
C 	C 	0.83408 0.23922 0.48472 -0.08300
C 	C 	0.81168 0.17279 0.49004 0.00900
C 	C 	0.75898 0.11297 0.51747 0.12500
C 	C 	0.72473 0.11769 0.53870 -0.09500
C 	C 	0.75129 0.18410 0.53662 0.03100
O 	O 	0.80335 0.30119 0.49433 -0.21300
C 	C 	0.74653 0.26951 0.51602 0.12500
C 	C 	0.71552 0.19980 0.54139 -0.10500
O 	O 	0.76653 0.05920 0.54038 -0.18700
C 	C 	0.83229 0.09380 0.52910 0.04800
C 	C 	0.85728 0.16025 0.49670 -0.05200
H 	H 	0.87606 0.28596 0.46391 0.06700
H 	H 	0.68357 0.07135 0.56035 0.07700
H 	H 	0.66413 0.16273 0.55288 0.06700
H 	H 	0.91383 0.20094 0.49465 0.05800
C 	C 	0.84363 0.63847 0.57343 0.12300
C 	C 	0.83512 0.62310 0.53054 -0.09700
C 	C 	0.85344 0.57974 0.54088 0.02800
C 	C 	0.87475 0.54905 0.59179 0.11100
C 	C 	0.88336 0.56451 0.63466 -0.08400
C 	C 	0.86497 0.60779 0.62435 0.00700
O 	O 	0.85823 0.70037 0.56859 -0.19500
C 	C 	0.89389 0.70606 0.62090 0.04500
C 	C 	0.89658 0.65013 0.65452 -0.05400
O 	O 	0.85993 0.48706 0.59665 -0.21000
C 	C 	0.82435 0.48141 0.54432 0.12500
C 	C 	0.82186 0.53744 0.51066 -0.10500
H 	H 	0.81741 0.64622 0.49037 0.07200
H 	H 	0.90120 0.54149 0.67482 0.06700
H 	H 	0.93697 0.65248 0.69134 0.05200
H 	H 	0.78110 0.53481 0.47402 0.06500
C 	C 	0.49551 0.22300 0.58394 0.11500
C 	C 	0.46335 0.21793 0.61405 -0.08300
C 	C 	0.39173 0.19822 0.59283 0.01000
C 	C 	0.35350 0.18388 0.54347 0.12200
C 	C 	0.38761 0.19267 0.51244 -0.09300
C 	C 	0.45713 0.20785 0.53530 0.03100
O 	O 	0.57027 0.26208 0.59211 -0.21100
C 	C 	0.57247 0.26902 0.54322 0.12700
C 	C 	0.50557 0.23723 0.50897 -0.10800
O 	O 	0.27887 0.13602 0.53832 -0.18000
C 	C 	0.27596 0.11926 0.58985 0.03900
C 	C 	0.34265 0.15777 0.62200 -0.05200
H 	H 	0.49271 0.22816 0.65296 0.07200
H 	H 	0.35838 0.18188 0.47371 0.07400
H 	H 	0.49633 0.25099 0.46640 0.06700
H 	H 	0.35526 0.14072 0.66475 0.06500
C 	C 	0.82357 0.18028 0.01389 0.11700
C 	C 	0.84488 0.23562 0.02779 -0.09300
C 	C 	0.79034 0.23380 0.02927 0.02400
C 	C 	0.71801 0.18379 0.01305 0.11600
C 	C 	0.69611 0.12932 0.99787 -0.08500
C 	C 	0.75049 0.12911 0.99813 0.01500
O 	O 	0.86751 0.15840 0.03428 -0.19100
C 	C 	0.81409 0.08837 0.03261 0.04400
C 	C 	0.74443 0.07100 0.01005 -0.05500
O 	O 	0.67270 0.20173 0.00028 -0.21200
C 	C 	0.72577 0.26820 0.01042 0.12200
C 	C 	0.79639 0.28841 0.02614 -0.10300
H 	H 	0.90188 0.27592 0.04032 0.06400
H 	H 	0.63898 0.08833 0.98665 0.07400
H 	H 	0.69569 0.01869 0.01819 0.06000
H 	H 	0.84389 0.33079 0.04484 0.05900
C 	C 	0.81709 0.57397 0.02851 0.11300
C 	C 	0.79833 0.61194 0.02824 -0.08900
C 	C 	0.81934 0.62722 0.07554 0.01200
C 	C 	0.86208 0.61039 0.12032 0.11800
C 	C 	0.88137 0.57294 0.12052 -0.09400
C 	C 	0.85985 0.55706 0.07335 0.02500
O 	O 	0.77440 0.53027 0.99484 -0.21200
C 	C 	0.79246 0.48321 0.02486 0.12200
C 	C 	0.84471 0.49993 0.07109 -0.10500
O 	O 	0.90362 0.65317 0.15451 -0.18800
C 	C 	0.88402 0.69910 0.12511 0.05000
C 	C 	0.83287 0.68323 0.07835 -0.06100
H 	H 	0.76557 0.62625 0.99298 0.07000
H 	H 	0.91416 0.55868 0.15581 0.06600
H 	H 	0.85091 0.46220 0.10561 0.06300
H 	H 	0.82650 0.72111 0.04415 0.05200
C 	C 	0.47546 0.25818 0.06016 0.11600
C 	C 	0.43534 0.23963 0.09149 -0.08500
C 	C 	0.36052 0.20876 0.07063 0.01100
C 	C 	0.32514 0.18753 0.02422 0.11800
C 	C 	0.36498 0.20168 0.99487 -0.08700
C 	C 	0.44098 0.24160 0.01215 0.02600
O 	O 	0.54390 0.27217 0.08084 -0.21300
C 	C 	0.54762 0.26307 0.04024 0.12700
C 	C 	0.48492 0.24157 0.00045 -0.10400
O 	O 	0.25206 0.13211 0.02124 -0.17800
C 	C 	0.24728 0.12070 0.07067 0.04000
C 	C 	0.31143 0.16650 0.10011 -0.05200
H 	H 	0.46055 0.24503 0.13179 0.07100
H 	H 	0.33745 0.17818 0.96219 0.07600
H 	H 	0.48079 0.24430 0.96141 0.07000
H 	H 	0.32517 0.15526 0.14286 0.06400
