data_crystal

_cell_length_a 26.01256
_cell_length_b 26.52452
_cell_length_c 33.74429
_cell_angle_alpha 95.48696
_cell_angle_beta  95.48359
_cell_angle_gamma 125.84225

_symmetry_space_group_name_	'P 1'
_symmetry_space_group_name_H-M	'P 1'

loop_
_symmetry_equiv_pos_as_xyz
  x,y,z

loop_
_atom_site_label
_atom_site_type_symbol
_atom_site_fract_x
_atom_site_fract_y
_atom_site_fract_z
_atom_site_charge
C 	C 	0.99183 0.04443 0.01513 0.15000
N 	N 	0.05566 0.08124 0.01308 -0.11100
C 	C 	0.08710 0.05485 0.00947 0.16400
N 	N 	0.05417 0.99138 0.00620 -0.12100
C 	C 	0.99009 0.95425 0.00673 0.15200
N 	N 	0.95925 0.98085 0.01207 -0.13100
C 	C 	0.90921 0.97934 0.44882 0.15700
N 	N 	0.87583 0.91840 0.45464 -0.12400
C 	C 	0.90315 0.88767 0.45224 0.15600
N 	N 	0.96452 0.91875 0.44558 -0.13400
C 	C 	0.99844 0.97988 0.44077 0.15100
N 	N 	0.97016 0.00957 0.44137 -0.12000
Cu	Cu	0.66858 0.26544 0.00807 0.93000
Cu	Cu	0.69635 0.24725 0.91703 0.88900
Cu	Cu	0.69924 0.35701 0.94911 0.90100
Cu	Cu	0.68746 0.39431 0.03438 0.91000
C 	C 	0.68818 0.31544 0.09148 0.26000
O 	O 	0.57787 0.23252 0.01445 -0.35700
C 	C 	0.65952 0.29932 0.86141 0.26200
O 	O 	0.72458 0.36288 0.00553 -0.63500
O 	O 	0.64912 0.26411 0.94953 -0.63700
O 	O 	0.70315 0.21516 0.00499 -0.35500
O 	O 	0.76331 0.26805 0.95892 -0.40900
O 	O 	0.70364 0.37127 0.08628 -0.35200
O 	O 	0.75322 0.44797 0.95280 -0.36000
C 	C 	0.75433 0.48736 0.98054 0.31300
C 	C 	0.55550 0.26494 0.00818 0.30800
O 	O 	0.59252 0.32072 0.99836 -0.36900
O 	O 	0.71368 0.46631 0.00600 -0.36900
O 	O 	0.69772 0.28254 0.06542 -0.34100
C 	C 	0.75001 0.23054 0.98514 0.30800
O 	O 	0.68744 0.35088 0.88952 -0.36300
O 	O 	0.64893 0.24711 0.87037 -0.39200
H 	H 	0.77182 0.38721 0.01447 0.18400
H 	H 	0.60264 0.24001 0.93788 0.18200
Cu	Cu	0.70735 0.31857 0.44569 0.93100
Cu	Cu	0.70495 0.26762 0.53055 0.87900
Cu	Cu	0.60622 0.28308 0.49934 0.90100
Cu	Cu	0.58787 0.31882 0.41998 0.90200
C 	C 	0.65823 0.30196 0.36126 0.26500
O 	O 	0.74771 0.41195 0.44767 -0.33500
C 	C 	0.65347 0.30364 0.58744 0.26200
O 	O 	0.60716 0.26842 0.44265 -0.63800
O 	O 	0.70107 0.32659 0.50369 -0.63800
O 	O 	0.75059 0.27602 0.44692 -0.34600
O 	O 	0.68170 0.20773 0.48399 -0.42900
O 	O 	0.63161 0.32949 0.37267 -0.35800
O 	O 	0.51328 0.23593 0.49101 -0.36200
C 	C 	0.47826 0.23927 0.46186 0.31100
C 	C 	0.71921 0.43665 0.46026 0.30000
O 	O 	0.65993 0.39952 0.46663 -0.37900
O 	O 	0.50514 0.28367 0.43959 -0.36900
O 	O 	0.69640 0.29842 0.38781 -0.33000
C 	C 	0.72347 0.22228 0.46010 0.31000
O 	O 	0.60435 0.28332 0.55804 -0.35800
O 	O 	0.70486 0.30875 0.57979 -0.39900
H 	H 	0.57904 0.22320 0.42944 0.17500
H 	H 	0.72803 0.37045 0.51936 0.18300
C 	C 	0.69115 0.32590 0.76429 0.08400
C 	C 	0.71767 0.36201 0.73418 -0.07600
C 	C 	0.69172 0.32981 0.69381 0.01800
C 	C 	0.63548 0.26859 0.68385 0.08500
C 	C 	0.60360 0.23557 0.71399 -0.07600
C 	C 	0.63618 0.26372 0.75430 0.01900
N 	N 	0.69860 0.35066 0.80289 -0.15100
C 	C 	0.65003 0.30357 0.81851 0.01500
C 	C 	0.60836 0.24972 0.78827 -0.04100
N 	N 	0.60645 0.25657 0.64544 -0.15100
C 	C 	0.64576 0.30913 0.62981 0.01600
C 	C 	0.69754 0.35696 0.66008 -0.04000
H 	H 	0.75473 0.41274 0.74175 0.06900
H 	H 	0.55521 0.19154 0.70656 0.07000
H 	H 	0.57327 0.20229 0.79342 0.06300
H 	H 	0.74231 0.39831 0.65475 0.06000
H 	H 	0.74213 0.39073 0.81997 0.10200
H 	H 	0.57238 0.21109 0.62825 0.09800
C 	C 	0.64454 0.31141 0.25890 0.09300
C 	C 	0.61236 0.29704 0.21906 -0.07800
C 	C 	0.64987 0.31471 0.18877 0.02900
C 	C 	0.71318 0.33529 0.19656 0.08800
C 	C 	0.74248 0.34075 0.23554 -0.07200
C 	C 	0.70845 0.33383 0.26702 0.02300
N 	N 	0.61477 0.28446 0.28921 -0.15200
C 	C 	0.66003 0.29190 0.31795 0.02600
C 	C 	0.71827 0.31959 0.30403 -0.03200
N 	N 	0.73045 0.32481 0.16221 -0.15000
C 	C 	0.67909 0.29977 0.13192 0.02700
C 	C 	0.62702 0.28989 0.14792 -0.04600
H 	H 	0.56042 0.27095 0.21183 0.07500
H 	H 	0.78801 0.34743 0.24076 0.07400
H 	H 	0.76512 0.34273 0.32304 0.07800
H 	H 	0.58531 0.28299 0.13075 0.07100
H 	H 	0.57119 0.27529 0.29414 0.09900
H 	H 	0.77821 0.34811 0.15821 0.10600
C 	C 	0.86945 0.82316 0.46118 -0.03200
C 	C 	0.80930 0.77208 0.43757 0.12400
C 	C 	0.78419 0.70984 0.44150 -0.06800
C 	C 	0.81932 0.69780 0.46789 0.01600
C 	C 	0.87854 0.74883 0.49218 0.10100
C 	C 	0.90240 0.81103 0.48946 -0.03700
H 	H 	0.73848 0.67067 0.42285 0.08600
C 	C 	0.79660 0.63183 0.46720 0.02800
H 	H 	0.94838 0.85006 0.50795 0.07900
C 	C 	0.80396 0.60075 0.43477 -0.08400
C 	C 	0.78026 0.53742 0.43245 0.14700
C 	C 	0.75134 0.50531 0.46399 -0.09500
C 	C 	0.74555 0.53716 0.49694 -0.01100
C 	C 	0.76657 0.59953 0.49820 0.08700
H 	H 	0.82651 0.62533 0.41068 0.08900
H 	H 	0.72270 0.51267 0.52100 0.06700
Br	Br	0.92956 0.73455 0.52739 -0.18700
Br	Br	0.76288 0.78569 0.39772 -0.19000
Br	Br	0.78255 0.49452 0.38414 -0.21000
Br	Br	0.75133 0.63882 0.54156 -0.18100
C 	C 	0.87977 0.01296 0.45099 -0.02700
C 	C 	0.91454 0.07494 0.47374 0.12400
C 	C 	0.88908 0.10889 0.47152 -0.06300
C 	C 	0.82717 0.08031 0.44915 0.01400
C 	C 	0.79131 0.01758 0.42766 0.10100
C 	C 	0.81801 0.98453 0.42829 -0.03700
H 	H 	0.91631 0.15671 0.48868 0.08600
C 	C 	0.79839 0.11468 0.45120 0.03100
H 	H 	0.79085 0.93686 0.41091 0.09200
C 	C 	0.79401 0.14138 0.41823 -0.08300
C 	C 	0.76870 0.17577 0.42030 0.15300
C 	C 	0.75056 0.18639 0.45655 -0.10500
C 	C 	0.75562 0.15995 0.48953 -0.00800
C 	C 	0.77798 0.12324 0.48670 0.07900
H 	H 	0.80920 0.13446 0.39072 0.09400
H 	H 	0.74157 0.16750 0.51741 0.04300
Br	Br	0.70528 0.97574 0.39814 -0.18200
Br	Br	0.99375 0.11188 0.51105 -0.19400
Br	Br	0.75483 0.20318 0.37240 -0.20000
Br	Br	0.77848 0.08355 0.53132 -0.19600
C 	C 	0.40813 0.20080 0.45936 -0.09500
C 	C 	0.37899 0.22825 0.47354 0.15300
C 	C 	0.31177 0.19151 0.46901 -0.08300
C 	C 	0.27328 0.12730 0.45084 0.03000
C 	C 	0.30244 0.09979 0.43682 0.08500
C 	C 	0.36967 0.13657 0.44127 -0.00900
H 	H 	0.28944 0.21264 0.48012 0.09300
C 	C 	0.20275 0.08871 0.44802 0.01500
H 	H 	0.39199 0.11535 0.43031 0.06000
C 	C 	0.16391 0.08337 0.41359 -0.06300
C 	C 	0.09691 0.04741 0.41066 0.12300
C 	C 	0.06846 0.01686 0.44261 -0.02000
C 	C 	0.10740 0.02217 0.47697 -0.03700
C 	C 	0.17425 0.05794 0.47984 0.10200
H 	H 	0.18578 0.10688 0.38900 0.08700
H 	H 	0.08568 0.99884 0.50166 0.08400
Br	Br	0.25118 0.01205 0.41166 -0.18500
Br	Br	0.43026 0.31524 0.50038 -0.19800
Br	Br	0.04499 0.03865 0.36223 -0.17700
Br	Br	0.22594 0.06429 0.52745 -0.18200
C 	C 	0.95367 0.88518 0.99973 -0.03400
C 	C 	0.94459 0.85142 0.96163 0.12400
C 	C 	0.91314 0.78610 0.95615 -0.06600
C 	C 	0.88983 0.75391 0.98822 0.01500
C 	C 	0.89816 0.78754 0.02616 0.10100
C 	C 	0.92985 0.85291 0.03170 -0.03700
H 	H 	0.90621 0.76020 0.92682 0.08700
C 	C 	0.85567 0.68488 0.98167 0.02900
H 	H 	0.93666 0.87876 0.06101 0.08000
C 	C 	0.89033 0.66075 0.99020 -0.08100
C 	C 	0.85783 0.59561 0.98797 0.14700
C 	C 	0.79007 0.55413 0.97690 -0.09300
C 	C 	0.75580 0.57804 0.96639 -0.00500
C 	C 	0.78825 0.64310 0.96869 0.08500
H 	H 	0.94237 0.69280 0.99965 0.08900
H 	H 	0.70368 0.54613 0.95740 0.07200
Br	Br	0.86653 0.74490 0.07070 -0.18600
Br	Br	0.97279 0.89334 0.91638 -0.18500
Br	Br	0.90646 0.56453 0.00201 -0.22400
Br	Br	0.73954 0.67429 0.95517 -0.18200
C 	C 	0.78671 0.20460 0.99181 -0.10100
C 	C 	0.80860 0.18849 0.95959 0.15500
C 	C 	0.84580 0.16700 0.96725 -0.08400
C 	C 	0.85616 0.15514 0.00568 0.03100
C 	C 	0.83247 0.16896 0.03753 0.08200
C 	C 	0.79919 0.19483 0.03068 -0.00400
H 	H 	0.86356 0.15594 0.94263 0.09400
C 	C 	0.88855 0.12479 0.01153 0.01500
H 	H 	0.78228 0.20659 0.05553 0.07500
C 	C 	0.95156 0.16023 0.03403 -0.06100
C 	C 	0.98439 0.13333 0.03767 0.11600
C 	C 	0.95599 0.07193 0.01574 -0.02400
C 	C 	0.89247 0.03632 0.99376 -0.04000
C 	C 	0.85822 0.06176 0.99253 0.09800
H 	H 	0.97460 0.20833 0.04939 0.08700
H 	H 	0.86962 0.98875 0.97747 0.08600
Br	Br	0.84259 0.15035 0.09008 -0.18600
Br	Br	0.78156 0.18717 0.90418 -0.26700
Br	Br	0.06407 0.17848 0.07610 -0.17400
Br	Br	0.76941 0.00907 0.96562 -0.18500
C 	C 	0.15742 0.09506 0.01202 -0.02700
C 	C 	0.18543 0.12849 0.98093 0.12600
C 	C 	0.25125 0.15910 0.98104 -0.06400
C 	C 	0.28913 0.15559 0.01150 0.01600
C 	C 	0.26152 0.12376 0.04318 0.10100
C 	C 	0.19607 0.09409 0.04343 -0.03600
H 	H 	0.27256 0.18414 0.95684 0.08800
C 	C 	0.35722 0.18409 0.00956 0.03100
H 	H 	0.17474 0.06860 0.06748 0.08300
C 	C 	0.40609 0.24383 0.03305 -0.08300
C 	C 	0.47103 0.26988 0.03365 0.15200
C 	C 	0.48751 0.23690 0.00939 -0.10000
C 	C 	0.43859 0.17720 0.98577 -0.00600
C 	C 	0.37363 0.15060 0.98585 0.08100
H 	H 	0.39358 0.26930 0.05173 0.09300
H 	H 	0.45102 0.15156 0.96719 0.06400
Br	Br	0.31191 0.11822 0.08551 -0.19200
Br	Br	0.13402 0.12988 0.93688 -0.17500
Br	Br	0.53631 0.34829 0.07000 -0.24800
Br	Br	0.30799 0.06805 0.95398 -0.18500
