data_crystal

_cell_length_a 13.79089
_cell_length_b 12.31757
_cell_length_c 69.67883
_cell_angle_alpha 90.06499
_cell_angle_beta  89.94517
_cell_angle_gamma 119.86388

_symmetry_space_group_name_	'P 1'
_symmetry_space_group_name_H-M	'P 1'

loop_
_symmetry_equiv_pos_as_xyz
  x,y,z

loop_
_atom_site_label
_atom_site_type_symbol
_atom_site_fract_x
_atom_site_fract_y
_atom_site_fract_z
_atom_site_charge
O 	O 	0.03632 0.15014 0.00660 -0.37000
C 	C 	0.14005 0.17483 0.00222 0.31800
H 	H 	0.29737 0.09841 0.00023 0.07900
C 	C 	0.20953 0.18047 0.01613 -0.10500
C 	C 	0.30823 0.16769 0.01099 -0.10100
H 	H 	0.18538 0.17529 0.03110 0.11000
F 	F 	0.18976 0.00133 0.07345 -0.42900
C 	C 	0.25672 0.02373 0.08896 0.32700
H 	H 	0.12073 0.95853 0.10910 0.12700
C 	C 	0.21006 0.99734 0.10736 -0.04000
C 	C 	0.28008 0.03374 0.12351 -0.02500
F 	F 	0.19853 0.20233 0.12861 -0.40300
C 	C 	0.20839 0.14296 0.14426 0.32000
C 	C 	0.23864 0.05019 0.14215 -0.03700
C 	C 	0.24788 0.98928 0.15842 -0.01400
H 	H 	0.26993 0.91667 0.15689 0.13200
H 	H 	0.17212 0.25205 0.16395 0.12700
C 	C 	0.19396 0.17923 0.16253 -0.06400
C 	C 	0.21022 0.12390 0.17891 -0.08400
C 	C 	0.23627 0.02747 0.17673 0.29500
F 	F 	0.07220 0.72333 0.19181 -0.39300
F 	F 	0.25289 0.97273 0.19230 -0.37100
O 	O 	0.13564 0.22109 0.20009 -0.34800
C 	C 	0.19352 0.16164 0.19820 0.32400
H 	H 	0.01925 0.03185 0.21740 0.15400
O 	O 	0.24033 0.14043 0.21328 -0.33100
Ni	Ni	0.06588 0.23001 0.22534 1.13000
O 	O 	0.06954 0.86866 0.21950 -0.27000
O 	O 	0.03209 0.06298 0.23065 -0.71900
Ni	Ni	0.14753 0.02936 0.23648 1.11200
O 	O 	0.22711 0.33311 0.23502 -0.36100
O 	O 	0.01141 0.25455 0.25095 -0.37200
C 	C 	0.28160 0.30038 0.24721 0.33800
O 	O 	0.07622 0.91097 0.26022 -0.34200
O 	O 	0.23694 0.18514 0.25386 -0.36900
H 	H 	0.02180 0.79943 0.29213 0.10200
H 	H 	0.06612 0.63083 0.32560 0.09400
H 	H 	0.23622 0.28186 0.32337 0.08800
C 	C 	0.06018 0.55567 0.36515 0.31900
O 	O 	0.11949 0.67986 0.36627 -0.35100
O 	O 	0.21648 0.42507 0.36220 -0.37300
O 	O 	0.05809 0.48578 0.37974 -0.36000
Ni	Ni	0.19519 0.47793 0.38851 1.12400
O 	O 	0.11999 0.65741 0.40744 -0.34000
O 	O 	0.16834 0.51136 0.41591 -0.37800
C 	C 	0.13984 0.59507 0.42065 0.35900
C 	C 	0.12851 0.61699 0.44095 -0.15000
C 	C 	0.02373 0.58630 0.44856 0.38200
C 	C 	0.01000 0.58784 0.46842 -0.14100
C 	C 	0.10135 0.62216 0.48074 0.02500
F 	F 	0.01662 0.74576 0.50406 -0.39800
C 	C 	0.08234 0.59924 0.50153 0.03400
C 	C 	0.10370 0.51098 0.51036 -0.13600
H 	H 	0.14382 0.46855 0.50239 0.16200
C 	C 	0.03293 0.65590 0.51215 0.28000
C 	C 	0.06870 0.47287 0.52918 0.40900
C 	C 	0.00871 0.51997 0.53914 -0.16200
F 	F 	0.09022 0.38754 0.53752 -0.41700
O 	O 	0.07774 0.47788 0.62957 -0.35900
C 	C 	0.00993 0.40766 0.64313 0.32300
C 	C 	0.02342 0.03156 0.65845 -0.13000
O 	O 	0.04666 0.36426 0.65679 -0.37900
C 	C 	0.00542 0.03669 0.67725 0.33100
H 	H 	0.11752 0.62906 0.70593 0.08900
O 	O 	0.09001 0.09813 0.68904 -0.36700
C 	C 	0.13754 0.71992 0.70015 -0.11500
C 	C 	0.01438 0.33178 0.90778 -0.10800
C 	C 	0.02298 0.34349 0.77384 0.26800
C 	C 	0.01775 0.21377 0.90946 -0.12300
O 	O 	0.00276 0.71696 0.71947 -0.38700
H 	H 	0.03064 0.17272 0.89659 0.10600
O 	O 	0.05262 0.91281 0.94705 -0.35100
C 	C 	0.07059 0.21971 0.72793 0.32200
F 	F 	0.11877 0.25938 0.80871 -0.41900
C 	C 	0.07708 0.77161 0.70568 0.34500
H 	H 	0.04367 0.80449 0.78729 0.11200
C 	C 	0.08752 0.31242 0.74291 -0.15800
O 	O 	0.09841 0.52854 0.89510 -0.37000
Ni	Ni	0.08627 0.20158 0.96264 1.12500
H 	H 	0.02632 0.00657 0.97510 0.15600
O 	O 	0.04062 0.31063 0.97771 -0.37400
C 	C 	0.10706 0.44318 0.90511 0.33900
O 	O 	0.09195 0.87473 0.69749 -0.39300
C 	C 	0.10304 0.92356 0.75298 0.33000
Ni	Ni	0.10984 0.01909 0.71320 1.12700
C 	C 	0.13410 0.42610 0.77931 0.03400
C 	C 	0.15196 0.37950 0.81365 0.30800
H 	H 	0.16752 0.34866 0.84357 0.10400
C 	C 	0.13346 0.11347 0.64942 -0.09000
O 	O 	0.14114 0.27720 0.63269 -0.36300
O 	O 	0.14338 0.17929 0.72672 -0.31600
C 	C 	0.12185 0.89237 0.78784 -0.05600
H 	H 	0.15704 0.07168 0.63792 0.07500
C 	C 	0.15184 0.01647 0.94704 0.30300
C 	C 	0.16166 0.46599 0.79958 0.01000
C 	C 	0.17810 0.41717 0.83281 -0.06100
O 	O 	0.16105 0.12935 0.94505 -0.36500
F 	F 	0.13614 0.85960 0.82109 -0.39400
H 	H 	0.16583 0.80499 0.95353 0.09200
O 	O 	0.15946 0.95976 0.73651 -0.34500
C 	C 	0.16507 0.96594 0.77127 -0.11100
C 	C 	0.99977 0.28834 0.75557 -0.00200
O 	O 	0.18009 0.61039 0.66966 -0.39100
C 	C 	0.16990 0.23571 0.64824 0.30900
C 	C 	0.17965 0.93122 0.80517 0.30700
O 	O 	0.18104 0.20966 0.98470 -0.38200
O 	O 	0.19937 0.73749 0.92081 -0.38100
C 	C 	0.19689 0.40626 0.74760 0.39100
C 	C 	0.20780 0.66194 0.47297 0.29600
O 	O 	0.20427 0.46462 0.91183 -0.37200
C 	C 	0.20235 0.59151 0.80469 -0.12900
Ni	Ni	0.21556 0.46225 0.62211 1.11900
Ni	Ni	0.20262 0.46323 0.66845 1.12600
Ni	Ni	0.21262 0.71433 0.89253 1.12800
O 	O 	0.21842 0.67132 0.86455 -0.32700
C 	C 	0.21656 0.54241 0.83808 -0.11900
O 	O 	0.20780 0.30411 0.66417 -0.35900
C 	C 	0.22074 0.65704 0.45318 -0.04500
C 	C 	0.23066 0.87815 0.94476 -0.10100
C 	C 	0.22008 0.46197 0.76579 -0.15400
H 	H 	0.21252 0.65946 0.79385 0.12600
C 	C 	0.23095 0.63003 0.82378 0.38400
Ni	Ni	0.24172 0.76824 0.38756 1.11800
C 	C 	0.23675 0.78638 0.68758 -0.11200
C 	C 	0.23747 0.58047 0.85858 0.32900
C 	C 	0.24306 0.00495 0.94553 -0.11500
O 	O 	0.25444 0.50830 0.87092 -0.35600
H 	H 	0.25400 0.15073 0.83792 0.13100
C 	C 	0.26580 0.08123 0.77243 0.37700
O 	O 	0.27220 0.62309 0.60518 -0.35400
C 	C 	0.26021 0.72089 0.67503 0.34400
C 	C 	0.26707 0.84381 0.92950 0.33900
H 	H 	0.27344 0.64677 0.36905 0.13200
C 	C 	0.28268 0.04292 0.80608 0.02300
F 	F 	0.27454 0.75266 0.82829 -0.40500
O 	O 	0.29079 0.65189 0.38277 -0.70900
O 	O 	0.28817 0.90067 0.88675 -0.34200
F 	F 	0.28177 0.43763 0.73496 -0.43600
O 	O 	0.28964 0.52338 0.64576 -0.71500
F 	F 	0.29328 0.12256 0.87376 -0.43700
H 	H 	0.28745 0.46561 0.44279 0.09700
H 	H 	0.30163 0.68003 0.44740 0.08800
F 	F 	0.29764 0.69996 0.48467 -0.37500
H 	H 	0.29866 0.88302 0.69073 0.08800
F 	F 	0.30537 0.15788 0.75693 -0.42200
C 	C 	0.30663 0.47796 0.33327 -0.10500
C 	C 	0.30904 0.49332 0.35216 0.31400
O 	O 	0.30774 0.43425 0.39888 -0.36900
C 	C 	0.31127 0.11535 0.83985 -0.13100
H 	H 	0.30561 0.52864 0.76967 0.13000
C 	C 	0.31279 0.37020 0.32568 -0.10800
H 	H 	0.32477 0.08738 0.94351 0.09500
C 	C 	0.32490 0.11852 0.78975 -0.12500
C 	C 	0.33368 0.73742 0.61175 0.34800
H 	H 	0.33165 0.47836 0.64676 0.15500
O 	O 	0.33890 0.75859 0.63016 -0.39000
C 	C 	0.33713 0.09438 0.85837 0.37800
O 	O 	0.33554 0.53990 0.68710 -0.36200
H 	H 	0.34296 0.56167 0.32442 0.08200
C 	C 	0.34826 0.07639 0.82391 0.02100
O 	O 	0.35147 0.85419 0.41029 -0.36400
O 	O 	0.35500 0.90981 0.36905 -0.36000
Ni	Ni	0.35115 0.56644 0.89627 1.11900
O 	O 	0.35146 0.71867 0.89558 -0.71700
O 	O 	0.35643 0.46177 0.61222 -0.35700
F 	F 	0.35192 0.45227 0.47757 -0.38900
C 	C 	0.36470 0.46308 0.44345 -0.05800
O 	O 	0.36490 0.76198 0.66973 -0.38300
O 	O 	0.36559 0.92149 0.92216 -0.36800
C 	C 	0.37334 0.08551 0.08675 -0.10900
C 	C 	0.40706 0.23103 0.02000 0.32700
C 	C 	0.76500 0.29359 0.01301 0.30900
O 	O 	0.68572 0.18210 0.01953 -0.37800
O 	O 	0.48464 0.20094 0.01623 -0.39000
C 	C 	0.84583 0.66844 0.01972 -0.11200
O 	O 	0.83235 0.38373 0.02498 -0.37500
O 	O 	0.43037 0.33142 0.03056 -0.34800
H 	H 	0.93565 0.71398 0.02206 0.09800
C 	C 	0.99660 0.61667 0.53090 -0.01800
C 	C 	0.77741 0.60083 0.03395 0.32200
Ni	Ni	0.55839 0.15614 0.03740 1.12100
O 	O 	0.66850 0.56075 0.03322 -0.35500
H 	H 	0.64799 0.35958 0.03121 0.13700
Ni	Ni	0.55845 0.41488 0.05135 1.11800
Ni	Ni	0.78700 0.39275 0.05207 1.12600
O 	O 	0.81936 0.57075 0.04859 -0.37200
O 	O 	0.63432 0.32786 0.04442 -0.70600
O 	O 	0.60584 0.08428 0.05912 -0.35100
O 	O 	0.41958 0.10991 0.05328 -0.35700
O 	O 	0.78872 0.23359 0.05675 -0.38600
C 	C 	0.42460 0.16329 0.06988 0.34600
C 	C 	0.70791 0.14064 0.06611 0.33800
O 	O 	0.45152 0.28167 0.07073 -0.35000
O 	O 	0.66256 0.51193 0.07456 -0.35400
O 	O 	0.74731 0.39495 0.07999 -0.35100
C 	C 	0.70258 0.46058 0.08654 0.34300
C 	C 	0.83999 0.17123 0.09278 -0.06700
C 	C 	0.73227 0.10173 0.08481 -0.10000
H 	H 	0.90799 0.24278 0.08442 0.10700
F 	F 	0.54430 0.92982 0.08798 -0.39300
C 	C 	0.64651 0.00555 0.09576 0.29100
C 	C 	0.44093 0.10266 0.10272 -0.06300
H 	H 	0.53074 0.14773 0.10105 0.12900
H 	H 	0.69733 0.65720 0.10362 0.10900
C 	C 	0.66595 0.98855 0.11494 -0.01500
C 	C 	0.85914 0.15364 0.11189 0.33000
C 	C 	0.71365 0.60088 0.11362 -0.05500
C 	C 	0.71300 0.49205 0.10730 -0.13500
F 	F 	0.72398 0.30881 0.11533 -0.42300
C 	C 	0.77131 0.06508 0.12321 -0.03900
F 	F 	0.96206 0.22647 0.11964 -0.40900
H 	H 	0.59857 0.91748 0.12349 0.13200
C 	C 	0.39487 0.07787 0.12109 0.31200
C 	C 	0.73106 0.41833 0.12073 0.38700
F 	F 	0.46329 0.10952 0.13658 -0.39200
C 	C 	0.73944 0.63993 0.13275 0.30500
F 	F 	0.73975 0.74504 0.13861 -0.40800
C 	C 	0.78826 0.05688 0.14392 0.05900
H 	H 	0.90037 0.98358 0.13994 0.17800
C 	C 	0.75856 0.45868 0.13973 -0.14000
C 	C 	0.76657 0.57159 0.14569 0.02100
H 	H 	0.77658 0.40372 0.14973 0.14600
C 	C 	0.73886 0.09973 0.15736 0.27900
C 	C 	0.85956 0.01363 0.15024 -0.16300
F 	F 	0.67122 0.14373 0.15141 -0.38300
H 	H 	0.97383 0.63979 0.15879 0.11800
C 	C 	0.87908 0.01006 0.16983 0.36500
C 	C 	0.81345 0.62357 0.16484 0.01500
C 	C 	0.92337 0.65405 0.16932 -0.13300
C 	C 	0.76145 0.10004 0.17692 -0.04300
C 	C 	0.83161 0.05532 0.18321 -0.13900
F 	F 	0.94606 0.96520 0.17579 -0.43500
C 	C 	0.74779 0.63906 0.17881 0.31600
F 	F 	0.63988 0.60521 0.17497 -0.39600
H 	H 	0.72469 0.13529 0.18718 0.09900
C 	C 	0.96837 0.70212 0.18740 0.35900
C 	C 	0.85927 0.06067 0.20359 0.31200
C 	C 	0.79342 0.68960 0.19679 -0.05700
C 	C 	0.90524 0.72533 0.20102 -0.10900
O 	O 	0.82241 0.95508 0.21334 -0.33400
O 	O 	0.91597 0.17108 0.21223 -0.37200
H 	H 	0.74245 0.70327 0.20727 0.09900
C 	C 	0.95910 0.79898 0.21864 0.30700
Ni	Ni	0.88333 0.95413 0.23949 1.13100
O 	O 	0.89634 0.80022 0.23298 -0.37500
H 	H 	0.53296 0.42128 0.23903 0.09500
O 	O 	0.83882 0.07995 0.24768 -0.39100
C 	C 	0.48342 0.38223 0.25194 -0.10900
C 	C 	0.90729 0.18380 0.25683 0.32400
C 	C 	0.37989 0.39035 0.25415 -0.10700
H 	H 	0.39196 0.48428 0.25528 0.08800
C 	C 	0.99667 0.90631 0.27142 0.32700
O 	O 	0.93945 0.96085 0.26645 -0.37200
C 	C 	0.53093 0.36185 0.26721 0.31700
O 	O 	0.64070 0.39893 0.26675 -0.37500
C 	C 	0.74744 0.16185 0.27601 -0.12300
C 	C 	0.86927 0.22321 0.27139 -0.11200
H 	H 	0.68994 0.07023 0.27007 0.09200
C 	C 	0.70674 0.22358 0.28594 0.34700
Ni	Ni	0.75167 0.47780 0.28930 1.12200
O 	O 	0.75177 0.64070 0.28834 -0.38400
O 	O 	0.59798 0.17843 0.28707 -0.38700
O 	O 	0.46495 0.28924 0.28112 -0.37700
C 	C 	0.97368 0.84364 0.28801 -0.13400
H 	H 	0.92800 0.30715 0.27915 0.08800
O 	O 	0.77538 0.33297 0.29317 -0.40100
H 	H 	0.59172 0.46221 0.30106 0.16100
C 	C 	0.88243 0.83060 0.30085 -0.10100
C 	C 	0.79052 0.71845 0.30310 0.32100
Ni	Ni	0.52439 0.24916 0.30450 1.12300
O 	O 	0.88565 0.57247 0.30743 -0.39000
O 	O 	0.63207 0.42338 0.30692 -0.71400
H 	H 	0.90351 0.90129 0.31188 0.08900
C 	C 	0.89025 0.54013 0.32531 0.34500
C 	C 	0.41197 0.37668 0.32399 0.32500
O 	O 	0.74717 0.68270 0.32065 -0.36100
O 	O 	0.59013 0.20862 0.32729 -0.38600
O 	O 	0.41484 0.27106 0.32172 -0.37600
Ni	Ni	0.65835 0.49722 0.33143 1.12100
O 	O 	0.79997 0.48365 0.33588 -0.36900
O 	O 	0.50348 0.48337 0.32857 -0.35600
C 	C 	0.98888 0.56900 0.33313 -0.12600
C 	C 	0.56988 0.23172 0.34474 0.34000
O 	O 	0.57368 0.33810 0.34866 -0.34900
C 	C 	0.99192 0.49950 0.35026 -0.10400
H 	H 	0.93663 0.39857 0.35065 0.09300
C 	C 	0.52483 0.02010 0.35352 -0.13600
H 	H 	0.59074 0.01923 0.34504 0.09400
C 	C 	0.44203 0.91248 0.36032 0.35300
O 	O 	0.44516 0.80918 0.35711 -0.39600
O 	O 	0.40746 0.55863 0.36088 -0.36000
C 	C 	0.53209 0.14130 0.35792 -0.10700
Ni	Ni	0.44417 0.70297 0.37902 1.12900
H 	H 	0.50540 0.15628 0.37188 0.10700
O 	O 	0.50230 0.85638 0.39628 -0.34200
O 	O 	0.47256 0.61842 0.40100 -0.33100
F 	F 	0.58012 0.47317 0.41136 -0.42000
C 	C 	0.44850 0.85808 0.41184 0.33100
C 	C 	0.39570 0.51396 0.40882 0.34700
C 	C 	0.42392 0.47243 0.42659 -0.13400
C 	C 	0.52327 0.46712 0.42762 0.39000
C 	C 	0.50747 0.89294 0.43062 -0.13100
F 	F 	0.63575 0.82500 0.42067 -0.42900
F 	F 	0.93402 0.54823 0.43682 -0.42200
C 	C 	0.56590 0.45951 0.44543 -0.14100
H 	H 	0.64317 0.45681 0.44612 0.14100
C 	C 	0.46953 0.94145 0.44526 -0.05900
C 	C 	0.59482 0.86796 0.43462 0.36500
H 	H 	0.40327 0.96232 0.44246 0.12000
C 	C 	0.50961 0.45680 0.46232 0.02400
C 	C 	0.40796 0.45682 0.46128 0.30600
C 	C 	0.64070 0.88820 0.45312 -0.13700
H 	H 	0.70773 0.86882 0.45607 0.12700
F 	F 	0.45605 0.22333 0.47826 -0.38600
C 	C 	0.60066 0.93409 0.46770 0.01800
C 	C 	0.51463 0.96009 0.46371 0.31400
C 	C 	0.55369 0.44645 0.48100 0.02000
C 	C 	0.52254 0.32816 0.48855 0.30500
H 	H 	0.64890 0.64626 0.48575 0.14100
C 	C 	0.65346 0.96338 0.48685 0.02000
H 	H 	0.78162 0.15012 0.47908 0.12600
F 	F 	0.47434 0.00300 0.47780 -0.38300
H 	H 	0.92751 0.55713 0.47428 0.14100
O 	O 	0.99620 0.83335 0.75346 -0.35000
C 	C 	0.62320 0.55448 0.49165 -0.12600
C 	C 	0.73954 0.08542 0.49076 -0.13700
F 	F 	0.52272 0.75899 0.49852 -0.38100
C 	C 	0.55639 0.31753 0.50698 -0.04400
C 	C 	0.65673 0.54398 0.51019 0.38800
H 	H 	0.52949 0.22545 0.51286 0.11400
C 	C 	0.60235 0.87925 0.50210 0.30900
C 	C 	0.76301 0.12835 0.50971 0.38400
F 	F 	0.83772 0.25059 0.51319 -0.43300
C 	C 	0.62075 0.42498 0.51812 -0.13500
F 	F 	0.71954 0.64886 0.52072 -0.41800
C 	C 	0.62637 0.92208 0.52109 -0.04100
C 	C 	0.70057 0.04913 0.52488 -0.13200
C 	C 	0.63790 0.41108 0.53858 0.36600
H 	H 	0.57977 0.85926 0.53273 0.11000
C 	C 	0.68704 0.10505 0.54258 0.36200
O 	O 	0.55285 0.33081 0.54895 -0.37000
O 	O 	0.63075 0.16520 0.54174 -0.37000
O 	O 	0.73642 0.48131 0.54652 -0.35500
H 	H 	0.95452 0.65744 0.53870 0.10400
C 	C 	0.94564 0.45697 0.55664 0.37100
O 	O 	0.72555 0.08904 0.55904 -0.34900
O 	O 	0.91573 0.33926 0.55973 -0.32300
Ni	Ni	0.56009 0.19889 0.56475 1.12700
Ni	Ni	0.76172 0.47349 0.57485 1.12700
O 	O 	0.92159 0.51932 0.56920 -0.37500
Ni	Ni	0.79661 0.22934 0.58001 1.11900
O 	O 	0.61264 0.45703 0.58223 -0.35900
O 	O 	0.49133 0.24506 0.58654 -0.37300
O 	O 	0.53485 0.03774 0.57745 -0.37100
O 	O 	0.70249 0.29700 0.57659 -0.71100
H 	H 	0.38497 0.81411 0.58436 0.11000
C 	C 	0.57201 0.03136 0.59472 0.32100
C 	C 	0.53810 0.36244 0.59285 0.32100
O 	O 	0.67947 0.10095 0.59915 -0.37300
H 	H 	0.67682 0.28546 0.58997 0.14000
C 	C 	0.39894 0.82982 0.59972 -0.12500
C 	C 	0.84513 0.42496 0.61157 0.31800
O 	O 	0.88490 0.36245 0.60165 -0.35100
O 	O 	0.80612 0.49123 0.60281 -0.37400
C 	C 	0.45894 0.54239 0.61826 0.31800
C 	C 	0.50902 0.38508 0.60998 -0.11200
C 	C 	0.53927 0.51367 0.61575 -0.10800
H 	H 	0.44998 0.30704 0.61877 0.08300
H 	H 	0.62612 0.58275 0.61852 0.08600
C 	C 	0.50470 0.93940 0.60667 -0.10300
O 	O 	0.48529 0.65624 0.62450 -0.37600
H 	H 	0.53424 0.93757 0.62107 0.06700
H 	H 	0.95345 0.97160 0.64922 0.09700
C 	C 	0.85935 0.43772 0.63063 -0.10600
H 	H 	0.83083 0.49330 0.63837 0.08500
Ni	Ni	0.41101 0.69002 0.64758 1.12200
C 	C 	0.90059 0.36762 0.64188 -0.09800
O 	O 	0.48618 0.63092 0.66600 -0.38900
H 	H 	0.84397 0.29881 0.65214 0.08000
C 	C 	0.44378 0.58484 0.68310 0.33100
O 	O 	0.90210 0.98815 0.68347 -0.36900
H 	H 	0.63852 0.55370 0.68637 0.08800
C 	C 	0.78431 0.88923 0.75101 0.34700
C 	C 	0.71755 0.71883 0.70263 0.33300
Ni	Ni	0.86113 0.99440 0.71201 1.11500
Ni	Ni	0.89812 0.77285 0.73001 1.13000
O 	O 	0.80195 0.98354 0.73972 -0.35800
O 	O 	0.77206 0.78359 0.74375 -0.36700
O 	O 	0.71567 0.82031 0.70811 -0.35700
O 	O 	0.80665 0.70865 0.70562 -0.37700
O 	O 	0.98699 0.18274 0.71540 -0.35000
O 	O 	0.95917 0.94185 0.72176 -0.71200
H 	H 	0.97385 0.98274 0.73437 0.16900
C 	C 	0.48023 0.68064 0.93370 0.33700
C 	C 	0.57971 0.76849 0.88370 0.33100
C 	C 	0.38827 0.96475 0.87867 0.34500
Ni	Ni	0.46151 0.86138 0.90934 1.12900
O 	O 	0.44993 0.59106 0.92070 -0.36300
O 	O 	0.44160 0.75839 0.93300 -0.38200
O 	O 	0.47770 0.97161 0.88690 -0.33800
O 	O 	0.50102 0.64981 0.88124 -0.35700
O 	O 	0.58572 0.83003 0.89973 -0.35100
H 	H 	0.38266 0.74607 0.88263 0.15800
C 	C 	0.98214 0.14592 0.92553 0.35500
Ni	Ni	0.90502 0.91422 0.95030 1.12000
O 	O 	0.75946 0.92166 0.95141 -0.36900
O 	O 	0.95693 0.02771 0.92556 -0.36000
O 	O 	0.98742 0.20165 0.94163 -0.38600
C 	C 	0.55470 0.69453 0.94726 -0.12000
H 	H 	0.59270 0.63558 0.94686 0.08400
H 	H 	0.93362 0.32388 0.90495 0.10500
C 	C 	0.42801 0.03846 0.82652 0.31700
C 	C 	0.45381 0.01726 0.84505 -0.04000
C 	C 	0.40039 0.03460 0.86093 -0.12500
F 	F 	0.46996 0.00782 0.81112 -0.39700
H 	H 	0.50607 0.97534 0.84690 0.12200
H 	H 	0.40347 0.20592 0.79046 0.13500
F 	F 	0.93826 0.31190 0.78651 -0.39000
H 	H 	0.91460 0.21983 0.75187 0.09500
C 	C 	0.86859 0.97419 0.80252 -0.14000
C 	C 	0.76617 0.90139 0.81184 0.02700
C 	C 	0.66817 0.83201 0.80103 0.30300
C 	C 	0.67374 0.83084 0.78104 -0.04000
C 	C 	0.77662 0.90089 0.77173 -0.14800
C 	C 	0.87378 0.97504 0.78250 0.38600
C 	C 	0.76189 0.89126 0.83283 0.01700
F 	F 	0.56811 0.76341 0.80997 -0.40500
H 	H 	0.59840 0.77418 0.77280 0.10200
F 	F 	0.97361 0.04450 0.77358 -0.43400
H 	H 	0.94440 0.02745 0.81079 0.16200
C 	C 	0.74955 0.78240 0.84151 0.30400
C 	C 	0.70424 0.74980 0.85992 -0.05200
C 	C 	0.67086 0.82573 0.86962 -0.13600
C 	C 	0.70377 0.94562 0.86240 0.37000
C 	C 	0.74723 0.97735 0.84383 -0.14000
F 	F 	0.77130 0.70259 0.83142 -0.40300
H 	H 	0.68601 0.66049 0.86593 0.10400
F 	F 	0.68589 0.02737 0.87274 -0.44500
H 	H 	0.76188 0.06462 0.83752 0.13600
C 	C 	0.51386 0.60111 0.69755 -0.10800
C 	C 	0.62880 0.62537 0.69379 -0.10500
H 	H 	0.48294 0.58417 0.71222 0.12400
C 	C 	0.69231 0.87415 0.96611 0.33300
C 	C 	0.58509 0.78649 0.96320 -0.11100
O 	O 	0.83786 0.76489 0.97050 -0.36800
O 	O 	0.97678 0.03495 0.96970 -0.71700
H 	H 	0.52578 0.76295 0.97489 0.09100
C 	C 	0.93547 0.27388 0.98184 0.34600
O 	O 	0.86076 0.15542 0.98146 -0.39500
C 	C 	0.78824 0.30755 0.99431 -0.10800
C 	C 	0.90499 0.35558 0.98781 -0.12100
H 	H 	0.72181 0.24925 0.98434 0.08700
H 	H 	0.96665 0.45408 0.98944 0.09300
Ni	Ni	0.89351 0.02747 0.99179 1.11900
C 	C 	0.85307 0.77137 0.98958 0.32200
O 	O 	0.73218 0.89880 0.98383 -0.36200
H 	H 	0.74690 0.57767 0.99336 0.08300
O 	O 	0.90962 0.87948 0.99869 -0.37300
C 	C 	0.80562 0.66640 0.99998 -0.10700
