data_crystal

_cell_length_a 30.19696
_cell_length_b 30.57285
_cell_length_c 30.96445
_cell_angle_alpha 61.34380
_cell_angle_beta  118.31780
_cell_angle_gamma 133.19443

_symmetry_space_group_name_	'P 1'
_symmetry_space_group_name_H-M	'P 1'

loop_
_symmetry_equiv_pos_as_xyz
  x,y,z

loop_
_atom_site_label
_atom_site_type_symbol
_atom_site_fract_x
_atom_site_fract_y
_atom_site_fract_z
_atom_site_charge
C 	C 	0.71608 0.29044 0.04997 0.13100
N 	N 	0.65673 0.25326 0.05570 -0.13800
C 	C 	0.63629 0.27628 0.06372 0.13500
N 	N 	0.67476 0.33592 0.06593 -0.14100
C 	C 	0.73394 0.37301 0.06086 0.13400
N 	N 	0.75507 0.35042 0.05301 -0.13900
C 	C 	0.71597 0.29819 0.56685 0.13200
N 	N 	0.75087 0.35678 0.57161 -0.13800
C 	C 	0.72600 0.37276 0.58314 0.13500
N 	N 	0.66703 0.33073 0.58969 -0.14000
C 	C 	0.63206 0.27288 0.58454 0.13600
N 	N 	0.65634 0.25628 0.57315 -0.13700
C 	C 	0.29502 0.66182 0.27216 0.13000
N 	N 	0.35482 0.70062 0.26651 -0.13900
C 	C 	0.37744 0.67874 0.25967 0.13400
N 	N 	0.34066 0.61901 0.25831 -0.14000
C 	C 	0.28128 0.58055 0.26325 0.13500
N 	N 	0.25810 0.60170 0.27022 -0.13700
C 	C 	0.28897 0.67982 0.76282 0.13100
N 	N 	0.34774 0.71666 0.75580 -0.13900
C 	C 	0.36710 0.69282 0.74738 0.13400
N 	N 	0.32819 0.63274 0.74618 -0.14000
C 	C 	0.26990 0.59586 0.75314 0.13500
N 	N 	0.24987 0.61923 0.76136 -0.13700
Co	Co	0.09251 0.98023 0.18710 1.18000
Co	Co	0.92377 0.97223 0.14275 1.17400
Co	Co	0.03684 0.01506 0.22649 1.19100
Co	Co	0.97613 0.92841 0.10922 1.17800
C 	C 	0.13296 0.90100 0.22543 0.32200
Co	Co	0.08495 0.92480 0.11574 1.16700
Co	Co	0.93524 0.03212 0.21369 1.17700
C 	C 	0.00594 0.94957 0.01693 0.33300
O 	O 	0.02277 0.09277 0.25226 -0.40000
O 	O 	0.96877 0.00647 0.19165 -0.74400
C 	C 	0.07192 0.13052 0.23348 0.32600
O 	O 	0.10807 0.01186 0.24118 -0.44900
O 	O 	0.90226 0.92680 0.09677 -0.46900
C 	C 	0.91302 0.07993 0.10337 0.31100
O 	O 	0.01551 0.99140 0.15654 -0.58700
C 	C 	0.97609 0.96785 0.31134 0.30100
C 	C 	0.18830 0.05449 0.12183 0.31100
C 	C 	0.95958 0.80959 0.12920 0.29600
O 	O 	0.08778 0.10925 0.21933 -0.38100
O 	O 	0.14487 0.01885 0.08969 -0.37900
O 	O 	0.17559 0.05037 0.16024 -0.36100
O 	O 	0.94982 0.09674 0.14608 -0.39500
O 	O 	0.90300 0.03623 0.09203 -0.36300
O 	O 	0.92599 0.96375 0.27914 -0.40300
O 	O 	0.01233 0.96798 0.29776 -0.37500
O 	O 	0.01961 0.83422 0.14591 -0.37900
O 	O 	0.93621 0.83346 0.13036 -0.38600
O 	O 	0.05004 0.95030 0.13632 -0.76100
C 	C 	0.81989 0.91454 0.18529 0.32300
O 	O 	0.84387 0.97205 0.17863 -0.42200
O 	O 	0.84947 0.90151 0.17851 -0.39700
O 	O 	0.15075 0.93208 0.18302 -0.41900
O 	O 	0.09780 0.90624 0.23357 -0.39500
O 	O 	0.02169 0.91216 0.04652 -0.40600
O 	O 	0.98752 0.96539 0.03483 -0.40000
Co	Co	0.07380 0.98098 0.68161 1.17500
Co	Co	0.91096 0.97896 0.63795 1.17100
Co	Co	0.02823 0.02994 0.71631 1.19100
Co	Co	0.96243 0.94287 0.59639 1.17600
C 	C 	0.07145 0.86605 0.72097 0.31400
Co	Co	0.05338 0.91293 0.61121 1.17200
Co	Co	0.92077 0.03065 0.71522 1.17500
C 	C 	0.01684 0.97790 0.51101 0.31900
O 	O 	0.98630 0.12200 0.68672 -0.39700
O 	O 	0.95647 0.01312 0.68678 -0.75400
C 	C 	0.04670 0.14828 0.70533 0.31900
O 	O 	0.09851 0.02596 0.72966 -0.44800
O 	O 	0.89184 0.94593 0.58326 -0.47300
C 	C 	0.86610 0.05425 0.60576 0.32400
O 	O 	0.00395 0.00277 0.64739 -0.56100
C 	C 	0.99600 0.99762 0.81032 0.26600
C 	C 	0.17694 0.02552 0.64399 0.34800
C 	C 	0.91679 0.82122 0.59586 0.32800
O 	O 	0.07311 0.12299 0.71219 -0.36800
O 	O 	0.14644 0.96701 0.64737 -0.42500
O 	O 	0.15515 0.04352 0.65510 -0.37800
O 	O 	0.85241 0.02442 0.64988 -0.40300
O 	O 	0.89432 0.04550 0.59212 -0.37600
O 	O 	0.98450 0.03853 0.78417 -0.37800
O 	O 	0.00667 0.97899 0.78775 -0.38000
O 	O 	0.96284 0.85487 0.57430 -0.41900
O 	O 	0.91169 0.84706 0.61553 -0.40200
O 	O 	0.03048 0.95190 0.62964 -0.75700
C 	C 	0.81973 0.90203 0.70668 0.31000
O 	O 	0.86117 0.93619 0.73986 -0.40500
O 	O 	0.83683 0.90145 0.67440 -0.39000
O 	O 	0.03490 0.84875 0.67863 -0.39300
O 	O 	0.07573 0.90528 0.73330 -0.38800
O 	O 	0.06574 0.98061 0.54497 -0.39600
O 	O 	0.97699 0.97450 0.52306 -0.38600
C 	C 	0.00216 0.97742 0.86585 -0.08600
C 	C 	0.94772 0.93015 0.88466 -0.08200
C 	C 	0.94666 0.92495 0.93201 0.16600
C 	C 	0.00078 0.96649 0.96186 -0.11800
C 	C 	0.05551 0.01297 0.94348 -0.03500
C 	C 	0.05662 0.01800 0.89626 0.17500
H 	H 	0.90514 0.89918 0.86147 0.06600
O 	O 	0.89333 0.87755 0.94988 -0.28700
H 	H 	0.09806 0.04401 0.96664 0.06200
O 	O 	0.11018 0.06504 0.87865 -0.28000
H 	H 	0.13322 0.04758 0.89040 0.15400
H 	H 	0.86967 0.89441 0.93794 0.14700
C 	C 	0.00412 0.97408 0.45951 -0.10800
C 	C 	0.01211 0.93630 0.45472 -0.06200
C 	C 	0.00645 0.93628 0.40681 0.18800
C 	C 	0.99224 0.97396 0.36287 -0.14500
C 	C 	0.98475 0.01206 0.36777 -0.02300
C 	C 	0.99027 0.01197 0.41562 0.17300
H 	H 	0.02277 0.90685 0.48822 0.05400
O 	O 	0.01196 0.89728 0.40317 -0.28200
H 	H 	0.97356 0.04113 0.33430 0.04900
O 	O 	0.98452 0.05081 0.41924 -0.28100
H 	H 	0.93943 0.02687 0.41662 0.15900
H 	H 	0.05695 0.92126 0.40542 0.15100
C 	C 	0.17339 0.42175 0.74134 0.01800
C 	C 	0.18387 0.37989 0.78251 -0.04000
C 	C 	0.16546 0.32706 0.77532 -0.02700
C 	C 	0.13685 0.31600 0.72689 -0.00400
C 	C 	0.12593 0.35760 0.68585 -0.02700
C 	C 	0.14415 0.41026 0.69304 -0.04100
C 	C 	0.20174 0.48103 0.74703 0.00800
C 	C 	0.22967 0.53248 0.75058 -0.03500
C 	C 	0.11115 0.25816 0.72030 0.05200
C 	C 	0.08514 0.20866 0.71388 -0.09500
H 	H 	0.20724 0.38877 0.81986 0.04800
H 	H 	0.17309 0.29464 0.80744 0.04700
H 	H 	0.10284 0.34889 0.64843 0.04500
H 	H 	0.13662 0.44272 0.66088 0.04800
C 	C 	0.64288 0.81470 0.71167 -0.00900
C 	C 	0.62554 0.77626 0.75798 -0.02800
C 	C 	0.57317 0.75898 0.76626 -0.04200
C 	C 	0.53760 0.77988 0.72826 0.01700
C 	C 	0.55446 0.81780 0.68170 -0.04300
C 	C 	0.60713 0.83539 0.67350 -0.02900
C 	C 	0.70261 0.84105 0.70668 0.04900
C 	C 	0.75484 0.86634 0.70501 -0.10900
C 	C 	0.47932 0.75537 0.73472 0.00500
C 	C 	0.42902 0.73018 0.74055 -0.03700
H 	H 	0.65335 0.76078 0.78796 0.04300
H 	H 	0.55989 0.72881 0.80205 0.04700
H 	H 	0.52664 0.83330 0.65177 0.04400
H 	H 	0.62068 0.86589 0.63785 0.03900
C 	C 	0.17844 0.80498 0.78270 -0.00800
C 	C 	0.14853 0.74085 0.79946 -0.02800
C 	C 	0.17343 0.71542 0.79945 -0.04200
C 	C 	0.22855 0.75392 0.78286 0.01800
C 	C 	0.26050 0.81825 0.76909 -0.04400
C 	C 	0.23559 0.84369 0.76908 -0.02900
C 	C 	0.14393 0.82894 0.76809 0.04800
C 	C 	0.11242 0.84740 0.75051 -0.10700
C 	C 	0.24998 0.72729 0.77659 0.00400
C 	C 	0.26767 0.70539 0.77059 -0.03400
H 	H 	0.10431 0.71041 0.80993 0.04400
H 	H 	0.14869 0.66570 0.81068 0.04800
H 	H 	0.30345 0.84849 0.75672 0.04400
H 	H 	0.25906 0.89322 0.75588 0.03900
C 	C 	0.19399 0.40929 0.25142 0.01900
C 	C 	0.16322 0.39563 0.20386 -0.04100
C 	C 	0.14795 0.34394 0.19752 -0.02600
C 	C 	0.16363 0.30574 0.23865 -0.00600
C 	C 	0.19488 0.31976 0.28608 -0.02500
C 	C 	0.20999 0.37131 0.29245 -0.04000
C 	C 	0.21819 0.46737 0.25623 0.00800
C 	C 	0.24336 0.51792 0.25991 -0.03500
C 	C 	0.13751 0.24656 0.23458 0.05500
C 	C 	0.11100 0.19475 0.23287 -0.10300
H 	H 	0.15174 0.42537 0.17168 0.04800
H 	H 	0.12287 0.33295 0.16090 0.04400
H 	H 	0.20630 0.28999 0.31830 0.04600
H 	H 	0.23484 0.38214 0.32912 0.04900
C 	C 	0.54621 0.77062 0.23431 0.01700
C 	C 	0.54901 0.78617 0.18463 -0.04300
C 	C 	0.60057 0.80301 0.17522 -0.02800
C 	C 	0.64982 0.80450 0.21542 -0.00800
C 	C 	0.64654 0.78799 0.26520 -0.02800
C 	C 	0.59487 0.77099 0.27461 -0.04300
C 	C 	0.48923 0.74491 0.24425 0.00500
C 	C 	0.43941 0.71853 0.25183 -0.03700
C 	C 	0.70845 0.83534 0.20507 0.05100
C 	C 	0.75892 0.86721 0.19605 -0.10900
H 	H 	0.51104 0.78471 0.15328 0.04500
H 	H 	0.60298 0.81656 0.13658 0.04000
H 	H 	0.68472 0.78990 0.29651 0.04200
H 	H 	0.59255 0.75771 0.31322 0.04600
C 	C 	0.22268 0.72553 0.29068 0.01800
C 	C 	0.15884 0.69956 0.27158 -0.04200
C 	C 	0.13489 0.72592 0.27163 -0.02800
C 	C 	0.17462 0.77865 0.29058 -0.00700
C 	C 	0.23767 0.80197 0.31278 -0.02800
C 	C 	0.26163 0.77564 0.31269 -0.04300
C 	C 	0.24886 0.70321 0.28480 0.00400
C 	C 	0.27030 0.68462 0.27923 -0.03300
C 	C 	0.15532 0.81738 0.27537 0.05000
C 	C 	0.14230 0.85343 0.25681 -0.10700
H 	H 	0.12812 0.66036 0.25507 0.04800
H 	H 	0.08621 0.70749 0.25425 0.04500
H 	H 	0.26895 0.84270 0.32744 0.04000
H 	H 	0.31086 0.79561 0.32815 0.04500
C 	C 	0.78738 0.23953 0.54075 0.01900
C 	C 	0.85044 0.26261 0.56026 -0.04300
C 	C 	0.87121 0.23321 0.56036 -0.02800
C 	C 	0.82894 0.18023 0.54130 -0.00700
C 	C 	0.76695 0.16020 0.51821 -0.02600
C 	C 	0.74621 0.18965 0.51804 -0.04100
C 	C 	0.76356 0.26241 0.54894 0.00600
C 	C 	0.74260 0.27976 0.55674 -0.03300
C 	C 	0.84456 0.13849 0.55697 0.05200
C 	C 	0.85584 0.10118 0.57547 -0.10400
H 	H 	0.88283 0.30157 0.57736 0.04500
H 	H 	0.91923 0.24926 0.57820 0.04100
H 	H 	0.73387 0.11947 0.50325 0.04600
H 	H 	0.69754 0.17190 0.50229 0.04900
C 	C 	0.82637 0.64141 0.60622 -0.00900
C 	C 	0.78445 0.61888 0.56278 -0.02600
C 	C 	0.77174 0.56858 0.55651 -0.04200
C 	C 	0.80057 0.54014 0.59374 0.01800
C 	C 	0.84096 0.56131 0.63795 -0.04300
C 	C 	0.85393 0.61188 0.64412 -0.02700
C 	C 	0.85185 0.70206 0.60630 0.05400
C 	C 	0.87804 0.75540 0.60345 -0.11200
C 	C 	0.78152 0.48396 0.58969 0.00600
C 	C 	0.76017 0.43464 0.58632 -0.03600
H 	H 	0.76345 0.64174 0.53300 0.04300
H 	H 	0.73925 0.55158 0.52277 0.04800
H 	H 	0.86226 0.53867 0.66752 0.04500
H 	H 	0.88700 0.62935 0.67757 0.04100
C 	C 	0.34974 0.12755 0.62183 -0.00800
C 	C 	0.35836 0.15368 0.57244 -0.02500
C 	C 	0.41223 0.17451 0.56372 -0.04100
C 	C 	0.45772 0.16917 0.60432 0.01900
C 	C 	0.44899 0.14285 0.65368 -0.04100
C 	C 	0.39517 0.12208 0.66240 -0.02400
C 	C 	0.29031 0.09736 0.62997 0.06000
C 	C 	0.23920 0.06770 0.63662 -0.10800
C 	C 	0.51749 0.20006 0.59637 0.00900
C 	C 	0.56907 0.23024 0.59043 -0.03500
H 	H 	0.32299 0.15709 0.54075 0.04600
H 	H 	0.41904 0.19572 0.52552 0.04900
H 	H 	0.48436 0.13946 0.68538 0.04900
H 	H 	0.38839 0.10093 0.70061 0.04600
C 	C 	0.77508 0.21470 0.03086 0.01800
C 	C 	0.73696 0.15036 0.03792 -0.04100
C 	C 	0.75957 0.12185 0.03960 -0.02700
C 	C 	0.82054 0.15745 0.03438 -0.00500
C 	C 	0.85697 0.22218 0.02377 -0.02800
C 	C 	0.83440 0.25069 0.02218 -0.04200
C 	C 	0.75526 0.24306 0.03662 0.00600
C 	C 	0.73808 0.26555 0.04238 -0.03300
C 	C 	0.85034 0.12792 0.05193 0.04900
C 	C 	0.87755 0.10460 0.07180 -0.09900
H 	H 	0.69074 0.12218 0.04405 0.05000
H 	H 	0.73097 0.07187 0.04783 0.04700
H 	H 	0.90412 0.25021 0.01966 0.04100
H 	H 	0.86395 0.30049 0.01608 0.04500
C 	C 	0.86382 0.64385 0.10152 -0.00500
C 	C 	0.86983 0.59863 0.14153 -0.02900
C 	C 	0.85279 0.54800 0.13184 -0.04200
C 	C 	0.82956 0.54215 0.08207 0.01600
C 	C 	0.82357 0.58739 0.04202 -0.04100
C 	C 	0.84082 0.63817 0.05170 -0.02900
C 	C 	0.89088 0.70064 0.11093 0.04600
C 	C 	0.91856 0.74960 0.11922 -0.09600
C 	C 	0.80204 0.48497 0.07306 0.00600
C 	C 	0.77440 0.43499 0.06668 -0.03600
H 	H 	0.88863 0.60317 0.18008 0.04100
H 	H 	0.85662 0.51279 0.16312 0.04500
H 	H 	0.80466 0.58276 0.00349 0.04600
H 	H 	0.83707 0.67344 0.02044 0.04500
C 	C 	0.46649 0.18378 0.08700 0.01800
C 	C 	0.45454 0.15019 0.13548 -0.04000
C 	C 	0.40230 0.13122 0.14548 -0.02600
C 	C 	0.36199 0.14609 0.10713 -0.00500
C 	C 	0.37419 0.17996 0.05877 -0.02700
C 	C 	0.42623 0.19869 0.04873 -0.04000
C 	C 	0.52457 0.21081 0.07851 0.00900
C 	C 	0.57470 0.23771 0.07145 -0.03500
C 	C 	0.30325 0.11830 0.11493 0.05100
C 	C 	0.25193 0.09166 0.11944 -0.09800
H 	H 	0.48600 0.13936 0.16552 0.04900
H 	H 	0.39269 0.10422 0.18276 0.04700
H 	H 	0.34276 0.19083 0.02871 0.04500
H 	H 	0.43568 0.22552 0.01139 0.04800
