data_crystal

_cell_length_a 41.19477
_cell_length_b 41.23864
_cell_length_c 20.31910
_cell_angle_alpha 90.34907
_cell_angle_beta  90.34923
_cell_angle_gamma 120.00284

_symmetry_space_group_name_	'P 1'
_symmetry_space_group_name_H-M	'P 1'

loop_
_symmetry_equiv_pos_as_xyz
  x,y,z

loop_
_atom_site_label
_atom_site_type_symbol
_atom_site_fract_x
_atom_site_fract_y
_atom_site_fract_z
_atom_site_charge
H 	H 	0.00423 0.66030 0.04718 0.04500
H 	H 	0.00935 0.76697 0.03238 0.04600
C 	C 	0.01075 0.71564 0.04414 -0.00300
C 	C 	0.01394 0.30512 0.46066 0.00000
C 	C 	0.01402 0.70614 0.46699 -0.00300
C 	C 	0.01694 0.31815 0.97333 -0.03200
C 	C 	0.01647 0.31258 0.52846 -0.03200
C 	C 	0.01858 0.30455 0.03559 0.00000
C 	C 	0.01640 0.70898 0.53584 -0.03000
H 	H 	0.04171 0.34156 0.95268 0.04600
C 	C 	0.04538 0.73314 0.08121 0.05200
C 	C 	0.04752 0.31722 0.42306 0.04700
H 	H 	0.04361 0.32912 0.55216 0.04500
C 	C 	0.04748 0.72505 0.42829 0.05200
H 	H 	0.04351 0.72339 0.56036 0.04500
C 	C 	0.05367 0.32034 0.07106 0.04600
C 	C 	0.07439 0.74829 0.11217 -0.10100
C 	C 	0.07569 0.32741 0.39176 -0.09500
C 	C 	0.07535 0.74079 0.39552 -0.10200
C 	C 	0.08280 0.33321 0.10144 -0.09400
C 	C 	0.10903 0.76684 0.14859 0.32600
O 	O 	0.10535 0.77351 0.29896 -0.39000
O 	O 	0.10683 0.32059 0.29932 -0.37600
C 	C 	0.51972 0.80867 0.25062 0.30400
C 	C 	0.62660 0.76793 0.14348 0.32500
C 	C 	0.51997 0.71653 0.24715 0.32600
C 	C 	0.63238 0.86520 0.14486 0.30500
C 	C 	0.62681 0.76570 0.35126 0.32900
C 	C 	0.62751 0.86019 0.36291 0.30300
Ni	Ni	0.56607 0.78630 0.16847 1.11400
Ni	Ni	0.64437 0.82299 0.25133 1.12200
Ni	Ni	0.56687 0.78412 0.32824 1.12100
O 	O 	0.53647 0.81322 0.19298 -0.37100
O 	O 	0.52042 0.78577 0.29590 -0.37300
O 	O 	0.64132 0.77755 0.29294 -0.39000
O 	O 	0.59019 0.75382 0.14613 -0.37500
O 	O 	0.64948 0.80247 0.16314 -0.37800
O 	O 	0.59092 0.83615 0.36738 -0.38000
O 	O 	0.51881 0.73818 0.20119 -0.37100
O 	O 	0.54473 0.73051 0.29534 -0.38400
O 	O 	0.65099 0.84970 0.33929 -0.37700
O 	O 	0.60835 0.83217 0.11783 -0.36600
O 	O 	0.65123 0.86790 0.19993 -0.37600
O 	O 	0.60529 0.77704 0.37855 -0.38400
O 	O 	0.59206 0.80484 0.24830 -0.72000
H 	H 	0.59252 0.82892 0.25026 0.15300
C 	C 	0.20149 0.86339 0.15400 0.30400
C 	C 	0.16447 0.71242 0.24543 0.32600
C 	C 	0.25717 0.80444 0.25189 0.30400
C 	C 	0.10824 0.76047 0.35615 0.32800
C 	C 	0.20287 0.85422 0.37093 0.30300
Ni	Ni	0.18780 0.78371 0.17129 1.11400
Ni	Ni	0.18623 0.77855 0.33086 1.12100
Ni	Ni	0.14772 0.81960 0.25923 1.12200
O 	O 	0.19158 0.83078 0.12454 -0.36600
O 	O 	0.18576 0.86532 0.20976 -0.37600
O 	O 	0.14126 0.77084 0.38274 -0.38400
O 	O 	0.18671 0.73474 0.19980 -0.37100
O 	O 	0.15409 0.72567 0.29493 -0.38400
O 	O 	0.16875 0.84449 0.34832 -0.37700
O 	O 	0.13090 0.75220 0.14922 -0.37500
O 	O 	0.12132 0.80105 0.17065 -0.37800
O 	O 	0.21496 0.82976 0.37307 -0.38000
O 	O 	0.24458 0.80970 0.19490 -0.37000
O 	O 	0.23388 0.78055 0.29619 -0.37300
O 	O 	0.18136 0.80095 0.25298 -0.71900
H 	H 	0.20519 0.82485 0.25578 0.15300
C 	C 	0.16877 0.45288 0.25674 0.30400
C 	C 	0.20563 0.34227 0.35839 0.32600
C 	C 	0.26009 0.45151 0.26084 0.32600
C 	C 	0.10924 0.33891 0.35491 0.30400
C 	C 	0.21051 0.34587 0.15061 0.32800
C 	C 	0.11733 0.34748 0.13767 0.30400
Ni	Ni	0.18916 0.40426 0.33648 1.11400
Ni	Ni	0.15222 0.32762 0.24898 1.12200
Ni	Ni	0.19337 0.40651 0.17684 1.12100
O 	O 	0.16339 0.43512 0.31346 -0.37100
O 	O 	0.19205 0.45268 0.21164 -0.37400
O 	O 	0.19797 0.33074 0.20830 -0.39000
O 	O 	0.22050 0.37877 0.35771 -0.37500
O 	O 	0.17119 0.32036 0.33713 -0.37800
O 	O 	0.14190 0.38399 0.13558 -0.38000
O 	O 	0.23823 0.45176 0.30736 -0.37100
O 	O 	0.24640 0.42717 0.21204 -0.38400
O 	O 	0.12693 0.32316 0.16029 -0.37800
O 	O 	0.14210 0.36155 0.38393 -0.36600
O 	O 	0.20046 0.36870 0.12449 -0.38300
O 	O 	0.17124 0.37998 0.25504 -0.71900
H 	H 	0.14741 0.38007 0.25268 0.15300
C 	C 	0.85332 0.64294 0.64752 0.30400
C 	C 	0.70350 0.52953 0.74358 0.32600
C 	C 	0.75601 0.63767 0.64374 0.32600
C 	C 	0.79557 0.52947 0.74800 0.30500
C 	C 	0.75180 0.63552 0.85161 0.32800
C 	C 	0.84597 0.63601 0.86516 0.30400
Ni	Ni	0.77402 0.57687 0.66727 1.11400
Ni	Ni	0.77030 0.57571 0.82689 1.12100
Ni	Ni	0.81002 0.65409 0.75297 1.12200
O 	O 	0.82051 0.61974 0.61891 -0.36600
O 	O 	0.85557 0.66164 0.70253 -0.37500
O 	O 	0.76256 0.61339 0.87831 -0.38300
O 	O 	0.72556 0.52915 0.69760 -0.37200
O 	O 	0.71699 0.55393 0.79232 -0.38400
O 	O 	0.83575 0.65970 0.84165 -0.37800
O 	O 	0.74175 0.60128 0.64551 -0.37600
O 	O 	0.79040 0.66026 0.66462 -0.37800
O 	O 	0.82197 0.59936 0.86767 -0.38000
O 	O 	0.80079 0.54710 0.69118 -0.37100
O 	O 	0.77239 0.52972 0.79327 -0.37300
O 	O 	0.76400 0.65036 0.79362 -0.39000
O 	O 	0.79188 0.60186 0.74813 -0.72000
H 	H 	0.81596 0.60228 0.75058 0.15300
C 	C 	0.70546 0.17634 0.75106 0.30400
C 	C 	0.85399 0.21669 0.85636 0.32600
C 	C 	0.79773 0.26899 0.75655 0.32600
C 	C 	0.76234 0.11935 0.85207 0.30400
C 	C 	0.85507 0.22139 0.64852 0.32800
C 	C 	0.76138 0.12684 0.63464 0.30300
Ni	Ni	0.77490 0.19842 0.83238 1.11400
Ni	Ni	0.81611 0.16289 0.74669 1.12200
Ni	Ni	0.77670 0.20236 0.67272 1.12100
O 	O 	0.71816 0.17151 0.80830 -0.37100
O 	O 	0.72864 0.19993 0.70631 -0.37300
O 	O 	0.85812 0.20898 0.70628 -0.39000
O 	O 	0.83169 0.23080 0.85456 -0.37500
O 	O 	0.84228 0.18241 0.83520 -0.37700
O 	O 	0.74865 0.15077 0.63176 -0.38000
O 	O 	0.77525 0.24672 0.80198 -0.37200
O 	O 	0.80819 0.25567 0.70727 -0.38400
O 	O 	0.79553 0.13721 0.65796 -0.37800
O 	O 	0.77181 0.15206 0.88068 -0.36700
O 	O 	0.77845 0.11728 0.79691 -0.37500
O 	O 	0.82199 0.21032 0.62158 -0.38300
O 	O 	0.78184 0.18083 0.75149 -0.71900
H 	H 	0.75823 0.15671 0.74896 0.15300
C 	C 	0.33127 0.11696 0.85943 0.30500
C 	C 	0.44272 0.26569 0.75558 0.32600
C 	C 	0.33556 0.21340 0.85812 0.32600
C 	C 	0.44399 0.17400 0.75417 0.30400
C 	C 	0.33574 0.21448 0.65003 0.32900
C 	C 	0.33697 0.12100 0.64089 0.30300
Ni	Ni	0.39698 0.19611 0.83493 1.11400
Ni	Ni	0.39665 0.19762 0.67511 1.12200
Ni	Ni	0.31891 0.15801 0.75125 1.12200
O 	O 	0.35493 0.15027 0.88593 -0.36600
O 	O 	0.31266 0.11365 0.80374 -0.37600
O 	O 	0.35802 0.20381 0.62362 -0.38300
O 	O 	0.44400 0.24440 0.80212 -0.37100
O 	O 	0.41805 0.25127 0.70730 -0.38400
O 	O 	0.31297 0.13098 0.66383 -0.37700
O 	O 	0.37204 0.22802 0.85566 -0.37500
O 	O 	0.31312 0.17869 0.83877 -0.37800
O 	O 	0.37345 0.14552 0.63661 -0.38000
O 	O 	0.42733 0.16975 0.81184 -0.37000
O 	O 	0.44331 0.19676 0.70860 -0.37300
O 	O 	0.32146 0.20297 0.70858 -0.39000
O 	O 	0.37134 0.17692 0.75498 -0.72000
H 	H 	0.37128 0.15303 0.75359 0.15300
C 	C 	0.52737 0.14830 0.74197 -0.00100
C 	C 	0.54093 0.14038 0.79951 -0.03300
C 	C 	0.57505 0.14073 0.79891 -0.03200
C 	C 	0.59574 0.14902 0.74078 -0.00100
C 	C 	0.58074 0.15399 0.68213 -0.03300
C 	C 	0.54660 0.15363 0.68272 -0.03200
C 	C 	0.63431 0.15802 0.74348 0.04600
C 	C 	0.66657 0.16549 0.74630 -0.09300
C 	C 	0.49742 0.15665 0.74585 0.04600
C 	C 	0.47233 0.16362 0.74930 -0.09300
H 	H 	0.52603 0.13584 0.84538 0.04400
H 	H 	0.58626 0.13645 0.84433 0.04400
H 	H 	0.59638 0.16001 0.63681 0.04400
H 	H 	0.53610 0.15937 0.63785 0.04400
C 	C 	0.59608 0.44213 0.74734 -0.00300
C 	C 	0.57842 0.42426 0.68806 -0.03200
C 	C 	0.54468 0.39015 0.68893 -0.03200
C 	C 	0.52848 0.37378 0.74908 -0.00300
C 	C 	0.54499 0.39276 0.80823 -0.03200
C 	C 	0.57873 0.42687 0.80736 -0.03200
C 	C 	0.49780 0.33580 0.75047 0.05200
C 	C 	0.47212 0.30401 0.75231 -0.10200
C 	C 	0.63380 0.47337 0.74678 0.05200
C 	C 	0.66538 0.49951 0.74568 -0.10200
H 	H 	0.59154 0.43603 0.64144 0.04400
H 	H 	0.53195 0.37578 0.64298 0.04400
H 	H 	0.53249 0.38040 0.85493 0.04400
H 	H 	0.59208 0.44064 0.85339 0.04400
C 	C 	0.81968 0.44493 0.75422 -0.00100
C 	C 	0.82099 0.42811 0.69489 -0.03300
C 	C 	0.82102 0.39422 0.69551 -0.03100
C 	C 	0.81983 0.37705 0.75544 -0.00400
C 	C 	0.82100 0.39510 0.81486 -0.03100
C 	C 	0.82092 0.42899 0.81424 -0.03300
C 	C 	0.81263 0.33911 0.75579 0.05200
C 	C 	0.80659 0.30733 0.75592 -0.10200
C 	C 	0.81188 0.47528 0.75331 0.04600
C 	C 	0.80534 0.50067 0.75158 -0.09300
H 	H 	0.82037 0.44043 0.64828 0.04500
H 	H 	0.82043 0.38059 0.64938 0.04400
H 	H 	0.82039 0.38216 0.86144 0.04400
H 	H 	0.82020 0.44196 0.86033 0.04400
C 	C 	0.95137 0.27039 0.96295 -0.00300
C 	C 	0.98338 0.30110 0.93706 -0.03100
C 	C 	0.98640 0.27426 0.06190 -0.03300
C 	C 	0.95288 0.25722 0.02567 -0.03200
C 	C 	0.91723 0.25180 0.92464 0.05100
C 	C 	0.88844 0.23593 0.89318 -0.10100
H 	H 	0.98239 0.31150 0.88867 0.04400
H 	H 	0.98747 0.26360 0.11001 0.04400
H 	H 	0.92821 0.23356 0.04605 0.04400
C 	C 	0.94877 0.27545 0.53627 -0.00400
C 	C 	0.94618 0.26904 0.46811 -0.03200
C 	C 	0.97871 0.28384 0.43037 -0.03300
C 	C 	0.98394 0.29777 0.56620 -0.03100
C 	C 	0.91572 0.25676 0.57603 0.05200
C 	C 	0.88796 0.24106 0.60911 -0.10200
H 	H 	0.91908 0.25188 0.44461 0.04500
H 	H 	0.97653 0.27808 0.37793 0.04400
H 	H 	0.98616 0.30293 0.61885 0.04400
C 	C 	0.25719 0.29575 0.46117 -0.00300
C 	C 	0.29550 0.31656 0.47691 -0.03200
C 	C 	0.31231 0.30043 0.51425 -0.03200
C 	C 	0.29085 0.26346 0.53592 -0.00300
C 	C 	0.25264 0.24257 0.51961 -0.03100
C 	C 	0.23585 0.25868 0.48232 -0.03200
C 	C 	0.30774 0.24711 0.57601 0.05200
C 	C 	0.32106 0.23263 0.60963 -0.10200
C 	C 	0.23952 0.31262 0.42466 0.05200
C 	C 	0.22426 0.32631 0.39415 -0.10100
H 	H 	0.31217 0.34523 0.46067 0.04500
H 	H 	0.34189 0.31673 0.52663 0.04400
H 	H 	0.23590 0.21397 0.53617 0.04400
H 	H 	0.20623 0.24243 0.47030 0.04500
C 	C 	0.29256 0.26855 0.96046 -0.00300
C 	C 	0.31175 0.29011 0.01605 -0.03200
C 	C 	0.29617 0.30741 0.05353 -0.03200
C 	C 	0.26136 0.30322 0.03552 -0.00300
C 	C 	0.24253 0.28225 0.97921 -0.03200
C 	C 	0.25810 0.26495 0.94175 -0.03200
C 	C 	0.24405 0.31878 0.07656 0.05200
C 	C 	0.22916 0.33161 0.11037 -0.10200
C 	C 	0.30763 0.24910 0.92398 0.05200
C 	C 	0.32037 0.23288 0.89362 -0.10000
H 	H 	0.33845 0.29309 0.03071 0.04400
H 	H 	0.31091 0.32360 0.09697 0.04500
H 	H 	0.21562 0.27890 0.96498 0.04500
H 	H 	0.24315 0.24839 0.89875 0.04500
C 	C 	0.29378 0.02468 0.97451 -0.00100
C 	C 	0.28096 0.02554 0.03787 -0.03200
C 	C 	0.26428 0.99307 0.07565 -0.03300
C 	C 	0.26034 0.95961 0.05024 -0.00200
C 	C 	0.27423 0.95902 0.98770 -0.03300
C 	C 	0.29092 0.99152 0.94988 -0.03300
C 	C 	0.23989 0.92546 0.08649 0.04700
C 	C 	0.22270 0.89707 0.11737 -0.09500
C 	C 	0.30742 0.05705 0.93327 0.04700
C 	C 	0.31876 0.08442 0.89941 -0.09500
H 	H 	0.28317 0.05111 0.05728 0.04500
H 	H 	0.25370 0.99374 0.12405 0.04400
H 	H 	0.27139 0.93327 0.96783 0.04400
H 	H 	0.30087 0.99069 0.90100 0.04300
C 	C 	0.26007 0.95294 0.47285 -0.00100
C 	C 	0.25724 0.95332 0.54154 -0.03200
C 	C 	0.27424 0.98737 0.57623 -0.03300
C 	C 	0.29415 0.02118 0.54236 -0.00100
C 	C 	0.29770 0.02075 0.47384 -0.03200
C 	C 	0.28069 0.98671 0.43915 -0.03300
C 	C 	0.30940 0.05633 0.57746 0.04600
C 	C 	0.32223 0.08583 0.60658 -0.09400
C 	C 	0.24016 0.91812 0.43673 0.04600
C 	C 	0.22345 0.88891 0.40667 -0.09400
H 	H 	0.24138 0.92732 0.56793 0.04500
H 	H 	0.27144 0.98746 0.62922 0.04400
H 	H 	0.31311 0.04678 0.44734 0.04500
H 	H 	0.28306 0.98664 0.38606 0.04400
C 	C 	0.94854 0.67650 0.54171 -0.00100
C 	C 	0.98370 0.69418 0.57315 -0.03300
C 	C 	0.97884 0.68735 0.43574 -0.03100
C 	C 	0.94616 0.67256 0.47302 -0.03300
C 	C 	0.91504 0.66452 0.57947 0.04700
C 	C 	0.88687 0.65441 0.61074 -0.09500
H 	H 	0.98575 0.69719 0.62627 0.04500
H 	H 	0.97679 0.68497 0.38254 0.04500
H 	H 	0.91906 0.65878 0.44842 0.04500
C 	C 	0.94369 0.68191 0.97102 -0.00100
C 	C 	0.95901 0.66029 0.99350 -0.03400
C 	C 	0.99250 0.67714 0.03001 -0.03100
C 	C 	0.99539 0.73720 0.02168 -0.03100
C 	C 	0.96194 0.72038 0.98521 -0.03300
C 	C 	0.90915 0.66470 0.93368 0.04600
C 	C 	0.88029 0.65111 0.90232 -0.09400
H 	H 	0.94504 0.63053 0.98275 0.04400
H 	H 	0.95024 0.73725 0.96803 0.04500
C 	C 	0.14368 0.60479 0.24569 -0.00400
C 	C 	0.13785 0.58541 0.30486 -0.03100
C 	C 	0.13820 0.55166 0.30583 -0.03300
C 	C 	0.14440 0.53721 0.24764 -0.00100
C 	C 	0.14783 0.55538 0.18786 -0.03300
C 	C 	0.14747 0.58910 0.18689 -0.03100
C 	C 	0.15231 0.50696 0.25059 0.04600
C 	C 	0.15894 0.48164 0.25300 -0.09300
C 	C 	0.15038 0.64257 0.24647 0.05200
C 	C 	0.15606 0.67422 0.24630 -0.10300
H 	H 	0.13458 0.59721 0.35045 0.04400
H 	H 	0.13524 0.53764 0.35219 0.04500
H 	H 	0.15239 0.54425 0.14260 0.04400
H 	H 	0.15169 0.60376 0.14086 0.04400
C 	C 	0.67418 0.96031 0.46125 -0.00100
C 	C 	0.71335 0.98166 0.46590 -0.03300
C 	C 	0.73040 0.01568 0.50057 -0.03200
C 	C 	0.70838 0.02852 0.53078 -0.00100
C 	C 	0.66919 0.00732 0.52578 -0.03300
C 	C 	0.65211 0.97325 0.49106 -0.03300
C 	C 	0.72609 0.06316 0.56775 0.04600
C 	C 	0.74176 0.09225 0.59834 -0.09400
C 	C 	0.65675 0.92485 0.42678 0.04600
C 	C 	0.64296 0.89530 0.39762 -0.09400
H 	H 	0.73058 0.97184 0.44297 0.04500
H 	H 	0.76070 0.03193 0.50421 0.04500
H 	H 	0.65198 0.01708 0.54899 0.04400
H 	H 	0.62181 0.95689 0.48764 0.04400
C 	C 	0.66959 0.95918 0.03438 -0.00100
C 	C 	0.66982 0.95657 0.96560 -0.03200
C 	C 	0.68661 0.98908 0.92788 -0.03300
C 	C 	0.70323 0.02432 0.95882 -0.00100
C 	C 	0.70187 0.02690 0.02745 -0.03200
C 	C 	0.68509 0.99438 0.06517 -0.03300
C 	C 	0.72380 0.05773 0.92071 0.04700
C 	C 	0.74109 0.08585 0.88914 -0.09500
C 	C 	0.65611 0.92599 0.07344 0.04700
C 	C 	0.64480 0.89816 0.10605 -0.09500
H 	H 	0.65780 0.92943 0.94146 0.04500
H 	H 	0.68743 0.98688 0.87481 0.04500
H 	H 	0.71455 0.05405 0.05168 0.04500
H 	H 	0.68492 0.99661 0.11832 0.04400
C 	C 	0.69924 0.67705 0.96496 -0.00300
C 	C 	0.67032 0.68165 0.93848 -0.03200
C 	C 	0.65479 0.69901 0.97587 -0.03200
C 	C 	0.66811 0.71183 0.03988 -0.00300
C 	C 	0.69647 0.70650 0.06687 -0.03200
C 	C 	0.71201 0.68914 0.02948 -0.03200
C 	C 	0.65358 0.73158 0.07692 0.05100
C 	C 	0.64126 0.74809 0.10759 -0.10000
C 	C 	0.71734 0.66200 0.92472 0.05200
C 	C 	0.73266 0.64943 0.89139 -0.10200
H 	H 	0.66030 0.67236 0.88865 0.04500
H 	H 	0.63279 0.70293 0.95476 0.04400
H 	H 	0.70683 0.71623 0.11639 0.04400
H 	H 	0.73435 0.68566 0.05028 0.04500
C 	C 	0.70144 0.68001 0.53808 -0.00300
C 	C 	0.69606 0.67286 0.47021 -0.03200
C 	C 	0.67911 0.68872 0.43263 -0.03200
C 	C 	0.66746 0.71178 0.46281 -0.00300
C 	C 	0.67213 0.71831 0.53091 -0.03200
C 	C 	0.68909 0.70244 0.56849 -0.03200
C 	C 	0.65277 0.73050 0.42342 0.05200
C 	C 	0.64047 0.74620 0.39054 -0.10200
C 	C 	0.72061 0.66523 0.57607 0.05200
C 	C 	0.73671 0.65269 0.60731 -0.10100
H 	H 	0.70544 0.65543 0.44643 0.04400
H 	H 	0.67558 0.68355 0.38000 0.04500
H 	H 	0.66317 0.73610 0.55456 0.04500
H 	H 	0.69303 0.70798 0.62099 0.04400
C 	C 	0.43558 0.83324 0.26403 -0.00100
C 	C 	0.41451 0.82440 0.32178 -0.03200
C 	C 	0.38021 0.82369 0.32198 -0.03200
C 	C 	0.36687 0.83185 0.26444 -0.00100
C 	C 	0.38931 0.84353 0.20823 -0.03300
C 	C 	0.42362 0.84423 0.20803 -0.03300
C 	C 	0.32834 0.82288 0.26014 0.04600
C 	C 	0.29607 0.81533 0.25680 -0.09300
C 	C 	0.46586 0.82542 0.25919 0.04600
C 	C 	0.49118 0.81878 0.25560 -0.09300
H 	H 	0.42374 0.81623 0.36550 0.04400
H 	H 	0.36321 0.81501 0.36586 0.04400
H 	H 	0.37938 0.85028 0.16373 0.04400
H 	H 	0.43994 0.85148 0.16336 0.04400
C 	C 	0.43422 0.60838 0.25247 -0.00300
C 	C 	0.41689 0.58996 0.19337 -0.03200
C 	C 	0.38336 0.55565 0.19455 -0.03200
C 	C 	0.36705 0.53965 0.25485 -0.00300
C 	C 	0.38553 0.55701 0.31390 -0.03200
C 	C 	0.41905 0.59132 0.31272 -0.03200
C 	C 	0.32949 0.50814 0.25628 0.05200
C 	C 	0.29807 0.48176 0.25801 -0.10300
C 	C 	0.46486 0.64639 0.25132 0.05200
C 	C 	0.49050 0.67821 0.24976 -0.10200
H 	H 	0.42859 0.60286 0.14658 0.04400
H 	H 	0.36937 0.54228 0.14867 0.04400
H 	H 	0.37321 0.54468 0.36072 0.04400
H 	H 	0.43243 0.60526 0.35862 0.04400
