data_crystal

_cell_length_a 19.95917
_cell_length_b 21.62008
_cell_length_c 30.77030
_cell_angle_alpha 60.78651
_cell_angle_beta  118.96234
_cell_angle_gamma 133.29288

_symmetry_space_group_name_	'P 1'
_symmetry_space_group_name_H-M	'P 1'

loop_
_symmetry_equiv_pos_as_xyz
  x,y,z

loop_
_atom_site_label
_atom_site_type_symbol
_atom_site_fract_x
_atom_site_fract_y
_atom_site_fract_z
_atom_site_charge
Co	Co	0.00226 0.09258 0.59699 1.16900
C 	C 	0.04596 0.74247 0.53419 0.03200
N 	N 	0.04217 0.47099 0.07783 -0.13500
H 	H 	0.03535 0.33980 0.04025 0.01600
Co	Co	0.02694 0.09024 0.10683 1.16800
O 	O 	0.02201 0.11156 0.20715 -0.40900
O 	O 	0.02992 0.97482 0.13029 -0.56700
O 	O 	0.04183 0.01981 0.98856 -0.39500
O 	O 	0.03286 0.99499 0.62167 -0.56600
C 	C 	0.03011 0.99772 0.45301 0.32200
C 	C 	0.04588 0.00450 0.91419 -0.14100
N 	N 	0.00613 0.46319 0.16943 -0.11700
Co	Co	0.01156 0.87333 0.62794 1.17700
O 	O 	0.06836 0.77032 0.12220 -0.41300
O 	O 	0.06698 0.80204 0.18220 -0.38200
O 	O 	0.06068 0.92233 0.08963 -0.75300
Co	Co	0.06825 0.03880 0.54711 1.16600
O 	O 	0.05478 0.12981 0.53891 -0.47400
O 	O 	0.02911 0.13530 0.69905 -0.40700
O 	O 	0.06555 0.94832 0.57854 -0.74600
H 	H 	0.07957 0.67666 0.73064 0.03700
C 	C 	0.07735 0.00610 0.96964 0.27400
C 	C 	0.05266 0.52198 0.18705 0.08200
Co	Co	0.09620 0.02671 0.06647 1.16700
C 	C 	0.09045 0.76940 0.16991 0.30200
C 	C 	0.08274 0.00373 0.84841 -0.03400
H 	H 	0.05209 0.18571 0.34552 0.02900
C 	C 	0.07784 0.28384 0.19475 -0.00400
H 	H 	0.07582 0.37633 0.20190 0.05500
C 	C 	0.06725 0.62820 0.20661 -0.01600
N 	N 	0.08418 0.49389 0.78548 -0.11700
C 	C 	0.08080 0.20639 0.66690 0.29000
H 	H 	0.07940 0.33889 0.58792 0.03700
Co	Co	0.10257 0.88263 0.06354 1.17000
O 	O 	0.10670 0.13041 0.06245 -0.47100
C 	C 	0.09120 0.18359 0.18505 0.28800
Co	Co	0.11594 0.92129 0.54929 1.18400
O 	O 	0.10905 0.00544 0.47814 -0.44100
O 	O 	0.09248 0.20186 0.62912 -0.37800
C 	C 	0.11216 0.03027 0.89213 0.01300
N 	N 	0.11850 0.80333 0.52445 -0.12900
C 	C 	0.10287 0.34966 0.62515 0.00800
N 	N 	0.10093 0.53325 0.54543 -0.11600
C 	C 	0.11016 0.59561 0.20867 -0.02800
O 	O 	0.12513 0.83050 0.61617 -0.39700
O 	O 	0.11598 0.18309 0.15162 -0.37700
O 	O 	0.12423 0.86544 0.67501 -0.38100
C 	C 	0.11678 0.29137 0.66996 -0.08300
C 	C 	0.12001 0.36196 0.20431 -0.04800
H 	H 	0.12397 0.54129 0.68432 0.05600
C 	C 	0.11713 0.42082 0.62848 -0.04200
C 	C 	0.10798 0.48304 0.58232 0.08200
C 	C 	0.12397 0.56610 0.76223 0.08600
C 	C 	0.12256 0.71463 0.20970 -0.07300
O 	O 	0.13844 0.98860 0.00071 -0.37500
C 	C 	0.13996 0.30289 0.71805 0.02000
C 	C 	0.13487 0.26716 0.19393 -0.07500
C 	C 	0.14191 0.36703 0.72040 -0.06000
C 	C 	0.14689 0.70782 0.72446 0.01000
C 	C 	0.14584 0.43404 0.67689 0.01300
H 	H 	0.99100 0.59281 0.19341 0.06200
S 	S 	0.96697 0.10749 0.35419 0.00200
C 	C 	0.90284 0.91998 0.25861 0.29200
C 	C 	0.15359 0.83817 0.66268 0.30800
C 	C 	0.95229 0.94730 0.76947 0.28200
H 	H 	0.19013 0.09955 0.78554 0.04500
H 	H 	0.18690 0.06735 0.91067 0.04200
C 	C 	0.94389 0.00848 0.31007 -0.04200
C 	C 	0.96293 0.02209 0.35650 0.01200
H 	H 	0.93094 0.05024 0.27419 0.04400
C 	C 	0.17016 0.25469 0.76496 0.07500
N 	N 	0.19500 0.21693 0.80283 -0.11300
C 	C 	0.97614 0.22073 0.18699 0.09400
N 	N 	0.78308 0.73570 0.91154 -0.10900
C 	C 	0.78097 0.32205 0.03111 0.03000
C 	C 	0.69929 0.24954 0.05054 -0.06400
C 	C 	0.64835 0.26255 0.06026 0.03200
C 	C 	0.68259 0.34704 0.05504 -0.06600
C 	C 	0.76916 0.41911 0.04213 0.03400
C 	C 	0.81506 0.40788 0.02608 -0.06200
H 	H 	0.67371 0.18339 0.05636 0.05200
H 	H 	0.64247 0.35666 0.06222 0.05900
H 	H 	0.87478 0.46478 0.00911 0.06100
C 	C 	0.73597 0.32948 0.49845 0.03100
C 	C 	0.64158 0.30203 0.47610 -0.06500
C 	C 	0.60911 0.33434 0.48491 0.03000
C 	C 	0.67495 0.41322 0.49933 -0.06300
C 	C 	0.76796 0.43985 0.52464 0.03000
C 	C 	0.79926 0.39771 0.52432 -0.06000
H 	H 	0.59079 0.24691 0.45870 0.05300
H 	H 	0.65037 0.44536 0.49891 0.05700
H 	H 	0.87016 0.41565 0.54506 0.06200
C 	C 	0.26069 0.62307 0.21592 0.03300
C 	C 	0.23178 0.53644 0.22995 -0.06600
C 	C 	0.25916 0.51542 0.20752 0.03500
C 	C 	0.31825 0.58179 0.17363 -0.06600
C 	C 	0.36527 0.66918 0.17044 0.03400
C 	C 	0.33281 0.69041 0.18885 -0.06700
H 	H 	0.18506 0.48550 0.25591 0.05500
H 	H 	0.33561 0.56596 0.15387 0.06000
H 	H 	0.36351 0.75845 0.18233 0.05800
C 	C 	0.27162 0.64159 0.71302 0.03300
C 	C 	0.36577 0.67360 0.72204 -0.06700
C 	C 	0.38504 0.63857 0.70534 0.03500
C 	C 	0.31184 0.56117 0.68953 -0.07000
C 	C 	0.21811 0.52383 0.68397 0.03400
C 	C 	0.19696 0.56593 0.69330 -0.06600
H 	H 	0.42401 0.72936 0.73876 0.05900
H 	H 	0.32781 0.53057 0.68033 0.05900
Co	Co	0.91334 0.90812 0.16752 1.19500
Co	Co	0.98402 0.84633 0.12842 1.19300
C 	C 	0.27999 0.04450 0.09342 0.25700
Co	Co	0.88850 0.04426 0.16237 1.17000
C 	C 	0.89712 0.74785 0.04820 0.29200
O 	O 	0.92891 0.15772 0.10504 -0.39800
O 	O 	0.94870 0.01200 0.14486 -0.76600
C 	C 	0.91382 0.16123 0.05805 0.31000
O 	O 	0.90708 0.80596 0.17423 -0.44900
C 	C 	0.72470 0.88619 0.12570 0.29500
O 	O 	0.93679 0.12462 0.04889 -0.38100
O 	O 	0.76382 0.97010 0.11521 -0.37200
O 	O 	0.77105 0.85890 0.12979 -0.37600
O 	O 	0.84252 0.93574 0.22307 -0.38800
O 	O 	0.94565 0.90672 0.24516 -0.35100
O 	O 	0.23367 0.95876 0.10675 -0.35600
O 	O 	0.24114 0.08261 0.08421 -0.37100
O 	O 	0.96449 0.81280 0.02325 -0.37700
O 	O 	0.88000 0.76171 0.07850 -0.37700
Co	Co	0.93766 0.92261 0.67468 1.19400
C 	C 	0.26753 0.10549 0.55205 0.29700
Co	Co	0.89042 0.04247 0.67136 1.16600
C 	C 	0.93302 0.75474 0.56267 0.29700
O 	O 	0.89365 0.13989 0.60668 -0.40200
O 	O 	0.95238 0.01914 0.64777 -0.76200
C 	C 	0.86319 0.13062 0.56067 0.30700
O 	O 	0.94920 0.83089 0.68250 -0.44900
C 	C 	0.73957 0.86515 0.65574 0.29800
O 	O 	0.88475 0.09435 0.55016 -0.38500
O 	O 	0.99132 0.00229 0.47567 -0.38400
O 	O 	0.76043 0.94417 0.64017 -0.36800
O 	O 	0.79080 0.85123 0.65112 -0.38400
O 	O 	0.88018 0.94955 0.73994 -0.39500
O 	O 	0.98968 0.93419 0.75159 -0.34900
O 	O 	0.24619 0.02586 0.57424 -0.40500
O 	O 	0.21224 0.12490 0.54599 -0.37700
O 	O 	0.97684 0.82223 0.52714 -0.37800
O 	O 	0.91577 0.76414 0.59530 -0.37100
C 	C 	0.98557 0.95387 0.82409 0.00900
C 	C 	0.91950 0.92884 0.84597 -0.05900
C 	C 	0.94904 0.95616 0.88930 0.11100
S 	S 	0.86428 0.93494 0.90904 -0.00400
S 	S 	0.16834 0.02902 0.82712 -0.03100
H 	H 	0.83785 0.86302 0.94967 0.05600
H 	H 	0.84470 0.89160 0.82758 0.06800
C 	C 	0.93888 0.94021 0.30951 -0.03300
C 	C 	0.97825 0.96774 0.40392 -0.03000
C 	C 	0.97029 0.89774 0.40328 -0.02100
C 	C 	0.95021 0.88348 0.35678 0.03400
S 	S 	0.93841 0.79364 0.35892 -0.00000
H 	H 	0.84589 0.72173 0.35702 0.04600
H 	H 	0.98419 0.85659 0.43906 0.05600
H 	H 	0.15856 0.37438 0.75754 0.05500
C 	C 	0.47703 0.69142 0.69396 0.01600
C 	C 	0.48006 0.71540 0.64317 -0.05600
C 	C 	0.56532 0.76164 0.63137 0.03300
C 	C 	0.64959 0.79060 0.66970 -0.08200
C 	C 	0.64615 0.76179 0.72093 0.00800
C 	C 	0.56006 0.71171 0.73336 -0.03700
H 	H 	0.41554 0.69697 0.61301 0.05800
H 	H 	0.71111 0.78167 0.75079 0.04200
C 	C 	0.55748 0.68132 0.78641 0.09000
C 	C 	0.56590 0.77837 0.57995 0.08800
N 	N 	0.55542 0.65701 0.82891 -0.11000
N 	N 	0.56638 0.79171 0.53878 -0.10000
C 	C 	0.25317 0.69528 0.71687 0.01500
C 	C 	0.31529 0.78759 0.70276 -0.04600
C 	C 	0.29371 0.83828 0.70092 0.01100
C 	C 	0.20239 0.79846 0.70262 -0.07400
C 	C 	0.17362 0.65620 0.73327 -0.03700
H 	H 	0.37863 0.81997 0.69173 0.05400
C 	C 	0.36332 0.93183 0.69373 0.12000
N 	N 	0.41958 0.00680 0.68837 -0.13800
C 	C 	0.21833 0.42318 0.21482 0.01300
C 	C 	0.23363 0.32521 0.20852 0.00700
C 	C 	0.27542 0.40085 0.22143 -0.03800
H 	H 	0.27776 0.31001 0.21165 0.04200
C 	C 	0.37619 0.45358 0.24301 0.08600
N 	N 	0.45692 0.49576 0.26031 -0.11500
N 	N 	0.89468 0.17070 0.18106 -0.15000
C 	C 	0.62822 0.82202 0.13358 -0.08000
C 	C 	0.55859 0.83552 0.09862 0.01300
C 	C 	0.47442 0.79089 0.11161 -0.03800
C 	C 	0.46030 0.73341 0.16035 0.01600
C 	C 	0.53110 0.72199 0.19559 -0.05500
C 	C 	0.61161 0.76127 0.18133 0.02700
H 	H 	0.57117 0.88252 0.06187 0.05200
H 	H 	0.51989 0.67711 0.23300 0.06000
C 	C 	0.67564 0.73715 0.21544 0.07700
C 	C 	0.40311 0.80461 0.07483 0.09300
N 	N 	0.72657 0.71742 0.24279 -0.11100
N 	N 	0.34594 0.81558 0.04538 -0.11300
C 	C 	0.21013 0.64249 0.22513 0.01100
C 	C 	0.26282 0.71780 0.24228 -0.05200
C 	C 	0.21963 0.75509 0.23355 0.02000
H 	H 	0.33839 0.75091 0.25865 0.05500
C 	C 	0.27632 0.83739 0.24606 0.08400
N 	N 	0.32176 0.90336 0.25614 -0.09300
C 	C 	0.76204 0.27544 0.50298 0.02100
C 	C 	0.70041 0.18344 0.51816 -0.06200
C 	C 	0.72305 0.13143 0.52285 0.03700
C 	C 	0.81410 0.17056 0.52055 -0.08700
C 	C 	0.87014 0.26136 0.49869 0.01600
C 	C 	0.84398 0.31392 0.48932 -0.03900
H 	H 	0.63521 0.15227 0.52682 0.05300
H 	H 	0.93802 0.29214 0.49339 0.04300
C 	C 	0.89886 0.40562 0.46376 0.09700
C 	C 	0.65601 0.03731 0.53551 0.03400
N 	N 	0.94262 0.47908 0.44311 -0.10400
N 	N 	0.60179 0.96189 0.54559 -0.07200
C 	C 	0.83088 0.51063 0.55207 0.02400
C 	C 	0.91438 0.58769 0.53707 -0.06700
C 	C 	0.95535 0.66619 0.54617 0.05500
C 	C 	0.90871 0.66911 0.56778 -0.08500
C 	C 	0.83287 0.58985 0.58909 0.01500
C 	C 	0.79661 0.51025 0.58335 -0.04200
H 	H 	0.94498 0.58771 0.51598 0.06800
H 	H 	0.80059 0.58998 0.60898 0.04600
C 	C 	0.72412 0.42877 0.60928 0.09400
N 	N 	0.66606 0.36370 0.63019 -0.11200
C 	C 	0.51893 0.27211 0.50046 0.01500
C 	C 	0.44206 0.27581 0.46809 -0.05800
C 	C 	0.36119 0.22704 0.48573 0.02300
C 	C 	0.35812 0.17542 0.53670 -0.08100
C 	C 	0.43775 0.17702 0.56974 0.01100
C 	C 	0.51555 0.22076 0.55137 -0.03700
H 	H 	0.44557 0.31724 0.42942 0.05400
H 	H 	0.43697 0.14021 0.60931 0.05200
C 	C 	0.59204 0.21273 0.58508 0.09300
C 	C 	0.28186 0.23009 0.45132 0.07800
N 	N 	0.65323 0.20627 0.61210 -0.11600
N 	N 	0.21839 0.23270 0.42374 -0.11600
C 	C 	0.82670 0.30660 0.01389 0.02100
C 	C 	0.76847 0.23889 0.98864 -0.05700
C 	C 	0.80299 0.19754 0.99148 0.03200
C 	C 	0.89706 0.22662 0.01771 -0.09600
C 	C 	0.96021 0.31100 0.02617 0.05400
C 	C 	0.92543 0.34596 0.03060 -0.05600
H 	H 	0.69452 0.21331 0.97100 0.05700
C 	C 	0.98993 0.41533 0.05681 0.12700
C 	C 	0.73883 0.11947 0.97298 0.07400
N 	N 	0.68734 0.05676 0.95821 -0.11100
C 	C 	0.80963 0.50645 0.04466 0.01500
C 	C 	0.80776 0.56858 0.99887 -0.05100
C 	C 	0.82102 0.64132 0.99881 0.02900
C 	C 	0.84608 0.65759 0.04560 -0.08300
C 	C 	0.84526 0.59434 0.09129 0.01200
C 	C 	0.82667 0.51891 0.09118 -0.03600
H 	H 	0.78927 0.55709 0.96278 0.05600
H 	H 	0.86191 0.60503 0.12725 0.04100
C 	C 	0.81974 0.45222 0.13846 0.09400
C 	C 	0.80054 0.69430 0.95054 0.08200
N 	N 	0.81361 0.39863 0.17629 -0.11000
C 	C 	0.37543 0.09904 0.08588 -0.07300
C 	C 	0.38483 0.10966 0.03995 -0.00000
C 	C 	0.47401 0.15346 0.03338 -0.04400
C 	C 	0.55538 0.18845 0.07286 0.01400
C 	C 	0.54493 0.17124 0.12035 -0.05800
C 	C 	0.45581 0.12871 0.12663 0.02000
H 	H 	0.32256 0.08371 0.00926 0.03300
H 	H 	0.60733 0.19729 0.15103 0.05800
C 	C 	0.44816 0.11929 0.17414 0.07600
C 	C 	0.48191 0.16523 0.98524 0.09200
N 	N 	0.44217 0.11202 0.21219 -0.10900
N 	N 	0.48829 0.17467 0.94669 -0.11800
