data_crystal

_cell_length_a 22.60860
_cell_length_b 22.89487
_cell_length_c 27.02547
_cell_angle_alpha 90.00167
_cell_angle_beta  90.00571
_cell_angle_gamma 92.71281

_symmetry_space_group_name_	'P 1'
_symmetry_space_group_name_H-M	'P 1'

loop_
_symmetry_equiv_pos_as_xyz
  x,y,z

loop_
_atom_site_label
_atom_site_type_symbol
_atom_site_fract_x
_atom_site_fract_y
_atom_site_fract_z
_atom_site_charge
C 	C 	0.11498 0.02665 0.01779 -0.02600
C 	C 	0.10767 0.96681 0.02673 -0.02200
C 	C 	0.06562 0.06029 0.00845 0.00900
C 	C 	0.00799 0.03311 0.01011 0.00000
C 	C 	0.00065 0.97217 0.01869 0.00500
C 	C 	0.05088 0.93861 0.02567 0.01500
C 	C 	0.95779 0.06674 0.00307 0.01100
C 	C 	0.90080 0.03882 0.00389 -0.04300
C 	C 	0.94310 0.94479 0.01980 0.01200
C 	C 	0.04341 0.87731 0.03160 0.00300
C 	C 	0.98651 0.85080 0.03412 -0.03800
C 	C 	0.93640 0.88362 0.02794 0.00700
C 	C 	0.07264 0.12088 0.99803 0.01400
C 	C 	0.02268 0.15392 0.99186 -0.04600
C 	C 	0.96558 0.12776 0.99499 0.01500
C 	C 	0.09461 0.83984 0.03056 0.02100
C 	C 	0.12353 0.82971 0.98570 -0.01500
C 	C 	0.17338 0.79611 0.98486 0.00900
C 	C 	0.19453 0.77224 0.02885 0.02700
C 	C 	0.16440 0.78063 0.07345 0.00300
C 	C 	0.11483 0.81477 0.07438 -0.02100
C 	C 	0.87752 0.85259 0.02775 0.01900
C 	C 	0.84803 0.84059 0.07255 -0.02300
C 	C 	0.79707 0.80346 0.07333 0.00200
C 	C 	0.85469 0.82857 0.98355 -0.01500
C 	C 	0.80380 0.79141 0.98435 0.01000
C 	C 	0.77582 0.77737 0.02942 0.02200
C 	C 	0.13203 0.15032 0.99282 0.03300
C 	C 	0.15729 0.18196 0.03259 -0.02800
C 	C 	0.21139 0.21338 0.02663 -0.00800
C 	C 	0.24089 0.21304 0.98094 0.04800
C 	C 	0.21583 0.18099 0.94126 -0.00200
C 	C 	0.16167 0.14961 0.94722 -0.02200
C 	C 	0.91439 0.16506 0.99071 0.03400
C 	C 	0.89523 0.18290 0.94399 -0.02300
C 	C 	0.84675 0.21823 0.93996 -0.00100
C 	C 	0.81753 0.23638 0.98266 0.04100
C 	C 	0.83616 0.21780 0.02934 -0.00800
C 	C 	0.88490 0.18283 0.03339 -0.02900
C 	C 	0.89357 0.97882 0.01250 -0.02100
H 	H 	0.10771 0.84847 0.95164 0.06900
H 	H 	0.19578 0.78877 0.95013 0.08500
H 	H 	0.17968 0.76107 0.10735 0.08900
H 	H 	0.09231 0.82198 0.10907 0.07100
H 	H 	0.23795 0.18102 0.90570 0.08900
H 	H 	0.14233 0.12546 0.91627 0.07000
H 	H 	0.22994 0.23874 0.05723 0.09200
H 	H 	0.13455 0.18295 0.06785 0.07400
H 	H 	0.91777 0.16921 0.91088 0.07000
H 	H 	0.83208 0.23178 0.90374 0.08600
H 	H 	0.89942 0.16908 0.06959 0.07200
H 	H 	0.81306 0.23071 0.06241 0.09000
H 	H 	0.86539 0.85892 0.10685 0.06800
H 	H 	0.77489 0.79394 0.10814 0.08200
H 	H 	0.87720 0.83760 0.94880 0.07000
H 	H 	0.78678 0.77263 0.95010 0.08500
H 	H 	0.15927 0.04675 0.01871 0.08100
H 	H 	0.14647 0.94260 0.03494 0.08500
H 	H 	0.98119 0.80382 0.03916 0.07900
H 	H 	0.84914 0.95902 0.01323 0.05800
H 	H 	0.86174 0.06333 0.99753 0.06800
H 	H 	0.02827 0.20051 0.98475 0.08000
C 	C 	0.88546 0.98025 0.52133 -0.02500
C 	C 	0.89312 0.03997 0.51171 -0.02900
C 	C 	0.93360 0.94365 0.51787 0.01700
C 	C 	0.99091 0.96874 0.50806 0.00700
C 	C 	0.99844 0.02918 0.49737 0.00500
C 	C 	0.94869 0.06435 0.49659 0.01300
C 	C 	0.04061 0.93355 0.50905 0.01600
C 	C 	0.09765 0.95975 0.50135 -0.02500
C 	C 	0.05579 0.05454 0.48819 0.01000
C 	C 	0.95584 0.12359 0.48149 0.01200
C 	C 	0.01246 0.14771 0.47080 -0.04500
C 	C 	0.06255 0.11482 0.47641 0.00900
C 	C 	0.92590 0.88247 0.52527 0.00100
C 	C 	0.97536 0.84795 0.52596 -0.03600
C 	C 	0.03234 0.87272 0.51793 -0.00100
C 	C 	0.90492 0.16165 0.47839 0.02600
C 	C 	0.85891 0.14917 0.44455 -0.01900
C 	C 	0.80961 0.18369 0.44364 -0.00000
C 	C 	0.80826 0.23372 0.47354 0.04000
C 	C 	0.85565 0.24773 0.50558 -0.00600
C 	C 	0.90329 0.21137 0.50857 -0.01900
C 	C 	0.12159 0.14540 0.47362 0.02700
C 	C 	0.14744 0.16974 0.51657 -0.02100
C 	C 	0.19756 0.20773 0.51318 0.00100
C 	C 	0.14758 0.15768 0.42738 -0.02100
C 	C 	0.19795 0.19547 0.42402 0.00200
C 	C 	0.22196 0.22206 0.46678 0.03400
C 	C 	0.86617 0.85323 0.52896 0.02700
C 	C 	0.84632 0.82967 0.57428 -0.02600
C 	C 	0.79373 0.79497 0.57645 -0.00100
C 	C 	0.76028 0.78401 0.53341 0.03500
C 	C 	0.77938 0.80881 0.48833 -0.00200
C 	C 	0.83204 0.84337 0.48613 -0.02700
C 	C 	0.08266 0.83404 0.51708 0.02800
C 	C 	0.10604 0.81623 0.47175 -0.02700
C 	C 	0.15578 0.78238 0.47091 -0.00000
C 	C 	0.18230 0.76594 0.51538 0.03100
C 	C 	0.15720 0.78136 0.56071 0.00200
C 	C 	0.10782 0.81579 0.56156 -0.02500
C 	C 	0.10504 0.01926 0.49062 -0.02700
H 	H 	0.86036 0.11148 0.42042 0.07000
H 	H 	0.77225 0.17122 0.42021 0.10200
H 	H 	0.85486 0.28613 0.52895 0.08900
H 	H 	0.93890 0.22171 0.53441 0.07400
H 	H 	0.75421 0.80006 0.45481 0.08500
H 	H 	0.84717 0.86110 0.45093 0.06700
H 	H 	0.77965 0.77556 0.61132 0.08500
H 	H 	0.87249 0.83686 0.60749 0.06800
H 	H 	0.08631 0.82959 0.43727 0.06700
H 	H 	0.17426 0.76960 0.43576 0.08000
H 	H 	0.08947 0.82877 0.59670 0.07000
H 	H 	0.17649 0.76743 0.59519 0.08900
H 	H 	0.12763 0.16058 0.55241 0.07000
H 	H 	0.21678 0.22687 0.54650 0.08800
H 	H 	0.12788 0.13916 0.39400 0.07100
H 	H 	0.21746 0.20511 0.38815 0.08700
H 	H 	0.84213 0.96287 0.53249 0.07500
H 	H 	0.85582 0.06721 0.51694 0.06400
H 	H 	0.01781 0.19329 0.45992 0.08600
H 	H 	0.14931 0.03761 0.48387 0.06900
H 	H 	0.13664 0.93422 0.50367 0.08400
H 	H 	0.96932 0.80114 0.53170 0.06400
Ni	Ni	0.47347 0.53576 0.03983 1.10900
O 	O 	0.54244 0.48303 0.02787 -0.70500
Ni	Ni	0.53403 0.46727 0.95453 1.10800
O 	O 	0.48568 0.53830 0.11512 -0.33200
O 	O 	0.48527 0.43921 0.12314 -0.37100
O 	O 	0.52914 0.61005 0.04043 -0.31800
Ni	Ni	0.52875 0.40755 0.06157 1.07900
O 	O 	0.43943 0.64692 0.98448 -0.31100
O 	O 	0.44593 0.39415 0.03236 -0.38400
O 	O 	0.60392 0.41520 0.94827 -0.33100
O 	O 	0.46491 0.51997 0.96644 -0.69900
O 	O 	0.40359 0.58778 0.04651 -0.30100
O 	O 	0.52391 0.46545 0.87892 -0.31000
O 	O 	0.51846 0.56391 0.87013 -0.36600
Ni	Ni	0.47720 0.59564 0.93258 1.10100
H 	H 	0.58155 0.50172 0.03622 0.17000
H 	H 	0.42588 0.50122 0.95838 0.25500
C 	C 	0.43774 0.37896 0.98617 0.32000
O 	O 	0.56014 0.61030 0.96021 -0.36300
C 	C 	0.49505 0.49168 0.14182 0.28700
C 	C 	0.61136 0.37385 0.98112 0.30100
C 	C 	0.56949 0.62340 0.00674 0.28600
C 	C 	0.50881 0.51082 0.85276 0.30000
C 	C 	0.39532 0.62852 0.01331 0.29100
O 	O 	0.47838 0.39275 0.95283 -0.29500
O 	O 	0.56708 0.35586 0.01010 -0.35100
Ni	Ni	0.46295 0.53339 0.54012 1.11000
O 	O 	0.53128 0.47942 0.52930 -0.70000
Ni	Ni	0.52510 0.46513 0.45559 1.11300
O 	O 	0.47040 0.53399 0.61594 -0.33000
O 	O 	0.47534 0.43532 0.62427 -0.34300
O 	O 	0.52070 0.60625 0.54311 -0.34000
Ni	Ni	0.51724 0.40346 0.56201 1.12000
O 	O 	0.43471 0.64615 0.48457 -0.37300
O 	O 	0.43466 0.39117 0.53239 -0.35800
O 	O 	0.59468 0.41264 0.44994 -0.31600
O 	O 	0.45689 0.51897 0.46634 -0.69700
O 	O 	0.39446 0.58740 0.54508 -0.31200
O 	O 	0.51581 0.46385 0.37997 -0.32900
O 	O 	0.51803 0.56307 0.37239 -0.36800
Ni	Ni	0.47399 0.59474 0.43361 1.08700
H 	H 	0.57024 0.49744 0.53851 0.24400
H 	H 	0.41782 0.50116 0.45672 0.20600
C 	C 	0.42669 0.37806 0.48570 0.29800
O 	O 	0.55591 0.60610 0.46427 -0.36400
C 	C 	0.48499 0.48834 0.64199 0.29200
C 	C 	0.60093 0.37103 0.48274 0.30400
C 	C 	0.56370 0.61775 0.51127 0.30400
C 	C 	0.50768 0.51085 0.35340 0.29000
C 	C 	0.38855 0.62792 0.51124 0.30100
O 	O 	0.46787 0.39187 0.45274 -0.31400
O 	O 	0.55508 0.35268 0.50966 -0.27400
C 	C 	0.50175 0.50362 0.79912 -0.04600
C 	C 	0.44833 0.51662 0.77570 0.07000
C 	C 	0.44344 0.51200 0.72419 -0.00500
C 	C 	0.49171 0.49523 0.69574 -0.04500
C 	C 	0.54547 0.48349 0.71914 0.06000
C 	C 	0.54996 0.48690 0.77067 0.00100
H 	H 	0.40198 0.52113 0.70629 0.08700
H 	H 	0.59149 0.47799 0.78856 0.08500
I 	I 	0.37416 0.54253 0.81719 0.04800
I 	I 	0.62183 0.46492 0.67751 0.07600
C 	C 	0.49823 0.49774 0.19579 -0.05700
C 	C 	0.44812 0.51241 0.22337 0.07600
C 	C 	0.45177 0.51642 0.27494 -0.01900
C 	C 	0.50467 0.50517 0.29940 -0.05400
C 	C 	0.55473 0.49032 0.27185 0.07200
C 	C 	0.55114 0.48650 0.22025 -0.01600
H 	H 	0.41328 0.52792 0.29608 0.06600
H 	H 	0.58961 0.47492 0.19912 0.06000
I 	I 	0.36571 0.52652 0.18846 0.02800
I 	I 	0.63678 0.47495 0.30692 0.04700
C 	C 	0.22889 0.67087 0.50605 0.00900
C 	C 	0.23555 0.73123 0.51436 0.08500
C 	C 	0.29280 0.75811 0.52046 -0.12900
C 	C 	0.34217 0.72304 0.52082 0.07500
C 	C 	0.33557 0.66276 0.51188 -0.00900
C 	C 	0.27863 0.63655 0.50260 -0.07500
C 	C 	0.27066 0.57200 0.48975 0.77600
H 	H 	0.18477 0.65087 0.50179 0.10000
H 	H 	0.38593 0.74248 0.52812 0.09800
C 	C 	0.30119 0.82379 0.52797 0.79000
F 	F 	0.21405 0.55791 0.47262 -0.40200
F 	F 	0.28049 0.53869 0.53135 -0.42600
F 	F 	0.31004 0.55763 0.45300 -0.47000
F 	F 	0.27872 0.83886 0.57355 -0.43000
F 	F 	0.27213 0.85321 0.49122 -0.43500
F 	F 	0.36039 0.84219 0.52638 -0.40600
C 	C 	0.71995 0.68145 0.52911 0.00900
C 	C 	0.70934 0.74094 0.53434 0.08400
C 	C 	0.65053 0.75894 0.53873 -0.12800
C 	C 	0.60317 0.71714 0.53352 0.07400
C 	C 	0.61377 0.65794 0.52572 -0.00500
C 	C 	0.67268 0.63939 0.52552 -0.07400
C 	C 	0.68506 0.57479 0.52561 0.77500
H 	H 	0.76526 0.66815 0.52738 0.09600
H 	H 	0.55793 0.73082 0.53372 0.09100
C 	C 	0.63818 0.82284 0.54692 0.79100
F 	F 	0.74517 0.56572 0.52500 -0.41800
F 	F 	0.66008 0.54750 0.48446 -0.46100
F 	F 	0.66144 0.54929 0.56800 -0.45200
F 	F 	0.65426 0.85479 0.50522 -0.42800
F 	F 	0.67024 0.84452 0.58704 -0.42600
F 	F 	0.57883 0.83043 0.55629 -0.40700
C 	C 	0.68563 0.33247 0.43623 0.08500
C 	C 	0.65441 0.33623 0.48102 0.01800
C 	C 	0.67593 0.30826 0.52386 -0.06400
C 	C 	0.72239 0.27023 0.51885 0.01800
C 	C 	0.75508 0.26866 0.47486 0.08700
C 	C 	0.73871 0.30307 0.43395 -0.12200
C 	C 	0.77664 0.30783 0.38755 0.79000
H 	H 	0.66906 0.35328 0.40334 0.10200
H 	H 	0.73497 0.24358 0.54995 0.09800
C 	C 	0.65091 0.31953 0.57495 0.77300
F 	F 	0.76262 0.35580 0.35942 -0.41300
F 	F 	0.76723 0.25814 0.35906 -0.43000
F 	F 	0.83608 0.31443 0.39958 -0.42000
F 	F 	0.59899 0.28607 0.58160 -0.42000
F 	F 	0.63997 0.37805 0.58067 -0.47900
F 	F 	0.69041 0.30507 0.61164 -0.41700
C 	C 	0.33099 0.23983 0.46548 0.00800
C 	C 	0.27468 0.26270 0.46333 0.08600
C 	C 	0.26905 0.32405 0.46180 -0.12200
C 	C 	0.32006 0.36132 0.46689 0.07000
C 	C 	0.37615 0.33837 0.47177 -0.00100
C 	C 	0.38213 0.27704 0.46937 -0.06600
C 	C 	0.44248 0.25107 0.47404 0.77500
H 	H 	0.33463 0.19281 0.46593 0.10300
H 	H 	0.31607 0.40827 0.46875 0.09700
C 	C 	0.20860 0.34975 0.45708 0.78900
F 	F 	0.43940 0.19113 0.46685 -0.40800
F 	F 	0.46508 0.26219 0.52082 -0.41700
F 	F 	0.48081 0.27536 0.43899 -0.41400
F 	F 	0.17638 0.33880 0.49985 -0.42300
F 	F 	0.17829 0.32493 0.41728 -0.42600
F 	F 	0.21311 0.40964 0.44963 -0.39000
C 	C 	0.35223 0.72320 0.03241 0.06700
C 	C 	0.34364 0.66457 0.01812 0.01400
C 	C 	0.28594 0.64112 0.00779 -0.09300
C 	C 	0.23747 0.67646 0.01430 0.01600
C 	C 	0.24610 0.73540 0.02751 0.08200
C 	C 	0.30397 0.75939 0.03649 -0.11900
C 	C 	0.31416 0.82332 0.05070 0.78900
H 	H 	0.39668 0.74050 0.04021 0.13400
H 	H 	0.19282 0.65862 0.00815 0.09700
C 	C 	0.27607 0.57857 0.98985 0.79600
F 	F 	0.37377 0.83871 0.05617 -0.39000
F 	F 	0.28621 0.83384 0.09510 -0.42700
F 	F 	0.29164 0.85865 0.01443 -0.42400
F 	F 	0.28857 0.54047 0.02773 -0.41600
F 	F 	0.31259 0.56866 0.94994 -0.43600
F 	F 	0.21818 0.56681 0.97482 -0.40400
C 	C 	0.67646 0.63905 0.02465 0.07200
C 	C 	0.62068 0.66264 0.01979 -0.00900
C 	C 	0.61527 0.72400 0.02269 -0.06600
C 	C 	0.66667 0.76067 0.02750 0.00300
C 	C 	0.72266 0.73716 0.03028 0.08900
C 	C 	0.72767 0.67571 0.03103 -0.13300
C 	C 	0.78769 0.64928 0.03649 0.78500
H 	H 	0.67999 0.59209 0.02227 0.06400
H 	H 	0.66350 0.80774 0.02778 0.10000
C 	C 	0.55508 0.75048 0.01880 0.77000
F 	F 	0.78232 0.58936 0.04356 -0.41500
F 	F 	0.81744 0.67340 0.07687 -0.43100
F 	F 	0.82091 0.66020 0.99426 -0.42000
F 	F 	0.51780 0.72745 0.05515 -0.42000
F 	F 	0.53076 0.73829 0.97279 -0.43100
F 	F 	0.55892 0.81061 0.02474 -0.40600
C 	C 	0.71054 0.24611 0.96676 0.00700
C 	C 	0.76582 0.27293 0.97834 0.08500
C 	C 	0.77105 0.33399 0.98677 -0.12700
C 	C 	0.71956 0.36600 0.98801 0.07200
C 	C 	0.66409 0.33893 0.97756 -0.01200
C 	C 	0.65982 0.27912 0.96384 -0.06100
C 	C 	0.60123 0.24980 0.94775 0.77500
H 	H 	0.70714 0.19935 0.96026 0.09900
H 	H 	0.72235 0.41198 0.99774 0.08100
C 	C 	0.83104 0.36464 0.99640 0.79500
F 	F 	0.60983 0.19793 0.92300 -0.40400
F 	F 	0.57144 0.28563 0.91599 -0.40800
F 	F 	0.56647 0.23753 0.98888 -0.40800
F 	F 	0.87141 0.34892 0.96091 -0.42300
F 	F 	0.85128 0.34917 0.04263 -0.43100
F 	F 	0.82792 0.42487 0.99488 -0.40000
C 	C 	0.39803 0.27653 0.99308 0.09000
C 	C 	0.39154 0.33317 0.97467 0.00600
C 	C 	0.33827 0.34689 0.95068 -0.06700
C 	C 	0.28978 0.30603 0.95170 0.01700
C 	C 	0.29501 0.25088 0.97333 0.08300
C 	C 	0.35070 0.23438 0.99109 -0.11300
C 	C 	0.35892 0.17306 0.01044 0.77900
H 	H 	0.43938 0.26602 0.01051 0.10100
H 	H 	0.24720 0.31780 0.93734 0.10200
C 	C 	0.33129 0.40648 0.92769 0.77400
F 	F 	0.41831 0.16184 0.01508 -0.39100
F 	F 	0.33361 0.13200 0.97831 -0.40900
F 	F 	0.33247 0.16675 0.05636 -0.42600
F 	F 	0.37953 0.42141 0.89808 -0.44600
F 	F 	0.32675 0.44736 0.96489 -0.41300
F 	F 	0.28105 0.40746 0.89845 -0.40600
