data_crystal

_cell_length_a 26.67642
_cell_length_b 26.89779
_cell_length_c 26.79590
_cell_angle_alpha 95.42390
_cell_angle_beta  95.42728
_cell_angle_gamma 125.67327

_symmetry_space_group_name_	'P 1'
_symmetry_space_group_name_H-M	'P 1'

loop_
_symmetry_equiv_pos_as_xyz
  x,y,z

loop_
_atom_site_label
_atom_site_type_symbol
_atom_site_fract_x
_atom_site_fract_y
_atom_site_fract_z
_atom_site_charge
C 	C 	0.09003 0.05561 0.02877 0.06300
C 	C 	0.06765 0.09117 0.02311 -0.09700
H 	H 	0.10005 0.14013 0.02130 0.05400
C 	C 	0.98640 0.02214 0.44185 -0.07300
H 	H 	0.01308 0.07168 0.44182 0.04400
C 	C 	0.22931 0.13576 0.47263 -0.05100
C 	C 	0.18605 0.09680 0.42755 0.02600
C 	C 	0.20770 0.08865 0.38409 -0.05100
C 	C 	0.27192 0.11914 0.38548 -0.03600
C 	C 	0.11837 0.06744 0.42448 -0.04800
C 	C 	0.08715 0.03414 0.45936 -0.05200
H 	H 	0.21327 0.14354 0.50611 0.04000
H 	H 	0.17476 0.05906 0.34905 0.03900
H 	H 	0.09261 0.06779 0.39070 0.04000
H 	H 	0.11205 0.02973 0.49109 0.04100
C 	C 	0.25067 0.13166 0.99191 0.02500
C 	C 	0.32577 0.10813 0.99210 -0.03800
C 	C 	0.26447 0.08865 0.99223 -0.05100
C 	C 	0.18638 0.11163 0.99333 -0.05100
C 	C 	0.15713 0.08375 0.03103 -0.05600
H 	H 	0.33619 0.07483 0.99326 0.03500
H 	H 	0.22777 0.04027 0.99291 0.03800
H 	H 	0.16298 0.12008 0.96359 0.03900
H 	H 	0.18103 0.07592 0.06089 0.04400
C 	C 	0.00346 0.06351 0.01972 0.05200
C 	C 	0.81668 0.03976 0.43991 0.02200
C 	C 	0.75145 0.00810 0.43203 -0.04600
C 	C 	0.72612 0.04132 0.43188 -0.03800
C 	C 	0.85646 0.10514 0.44681 -0.04900
C 	C 	0.84313 0.00475 0.44657 -0.04100
C 	C 	0.88825 0.01357 0.42144 -0.05600
H 	H 	0.67569 0.01631 0.42696 0.03600
H 	H 	0.90554 0.04665 0.39559 0.04300
C 	C 	0.91049 0.13054 0.02317 0.03200
C 	C 	0.90185 0.16104 0.06299 -0.04900
C 	C 	0.86457 0.16051 0.96153 -0.04700
C 	C 	0.89109 0.12985 0.97231 -0.05500
C 	C 	0.93649 0.09632 0.03490 -0.04900
C 	C 	0.97988 0.10029 0.01011 -0.04700
H 	H 	0.91619 0.16142 0.10232 0.04100
H 	H 	0.84994 0.15987 0.92220 0.03200
H 	H 	0.89581 0.10494 0.94118 0.03900
H 	H 	0.92155 0.06928 0.06521 0.04200
H 	H 	0.99972 0.13251 0.98372 0.03600
H 	H 	0.28812 0.11318 0.35139 0.03400
C 	C 	0.76573 0.10666 0.43995 0.00100
H 	H 	0.90697 0.13027 0.45404 0.03900
C 	C 	0.31527 0.15830 0.43030 0.00100
H 	H 	0.70169 0.12333 0.47132 0.02800
H 	H 	0.40870 0.17785 0.49782 0.07600
H 	H 	0.45589 0.17455 0.02298 0.04400
C 	C 	0.87500 0.19146 0.05217 -0.04000
C 	C 	0.85561 0.19068 0.00132 0.01800
S 	S 	0.55342 0.20151 0.63994 -0.06600
S 	S 	0.55532 0.19354 0.13178 -0.03600
H 	H 	0.51379 0.20684 0.11965 0.03800
C 	C 	0.29366 0.16641 0.47400 -0.03500
C 	C 	0.38320 0.19668 0.42900 0.00800
C 	C 	0.42482 0.20254 0.46629 -0.15000
H 	H 	0.32672 0.19791 0.50842 0.03800
C 	C 	0.29813 0.19373 0.98973 -0.05100
C 	C 	0.37362 0.17050 0.99093 0.00400
C 	C 	0.43925 0.19177 0.99587 -0.00200
C 	C 	0.83114 0.13843 0.44692 -0.03700
C 	C 	0.73886 0.14120 0.44902 0.00500
C 	C 	0.77691 0.20959 0.00888 -0.13600
H 	H 	0.86937 0.21565 0.08322 0.04100
H 	H 	0.75927 0.17819 0.03605 0.07600
C 	C 	0.82700 0.22239 0.98936 -0.01500
H 	H 	0.51008 0.21257 0.62795 0.04500
O 	O 	0.68907 0.21403 0.00611 -0.37200
C 	C 	0.74229 0.23379 0.99138 0.29400
H 	H 	0.58592 0.22160 0.41586 0.16400
H 	H 	0.58322 0.22849 0.74887 0.04100
H 	H 	0.57642 0.21429 0.24077 0.04200
H 	H 	0.39887 0.21779 0.39572 0.03100
C 	C 	0.35956 0.21337 0.98999 -0.03700
H 	H 	0.28775 0.22710 0.98914 0.03800
O 	O 	0.69963 0.21609 0.47728 -0.44700
C 	C 	0.75833 0.19274 0.42938 -0.15800
H 	H 	0.86244 0.18886 0.45459 0.03400
H 	H 	0.79238 0.20827 0.40421 0.07800
C 	C 	0.47822 0.23203 0.96787 -0.14800
H 	H 	0.84324 0.25172 0.96065 0.03000
Cu	Cu	0.70855 0.25843 0.89995 0.86500
O 	O 	0.56675 0.23405 0.00185 -0.36500
O 	O 	0.67459 0.26182 0.83535 -0.42100
H 	H 	0.60747 0.24130 0.91039 0.17400
O 	O 	0.53104 0.24098 0.49899 -0.38800
C 	C 	0.49248 0.24101 0.46428 0.30800
H 	H 	0.46094 0.24747 0.93944 0.07200
C 	C 	0.73539 0.22998 0.44277 0.30800
Cu	Cu	0.65664 0.26427 0.00457 0.93000
O 	O 	0.65045 0.26654 0.93092 -0.64500
C 	C 	0.54592 0.26170 0.97935 0.29600
O 	O 	0.61285 0.26697 0.42932 -0.64000
C 	C 	0.62165 0.26745 0.73513 -0.02400
C 	C 	0.61913 0.26648 0.68260 0.03400
C 	C 	0.61731 0.25358 0.22950 -0.02100
C 	C 	0.61953 0.25528 0.17771 0.03900
H 	H 	0.39640 0.26209 0.99066 0.03600
O 	O 	0.76317 0.27311 0.95965 -0.44500
O 	O 	0.67668 0.27775 0.07722 -0.36100
Cu	Cu	0.72259 0.27774 0.53402 0.86700
O 	O 	0.51423 0.28274 0.43421 -0.39900
O 	O 	0.75455 0.27975 0.42285 -0.37800
Cu	Cu	0.62095 0.28876 0.50135 0.89600
O 	O 	0.68913 0.29250 0.35219 -0.36500
C 	C 	0.65850 0.30497 0.32040 0.29300
O 	O 	0.61060 0.30408 0.33155 -0.38600
O 	O 	0.63109 0.30559 0.57619 -0.37800
C 	C 	0.66644 0.30342 0.26686 -0.07400
C 	C 	0.67180 0.30714 0.16290 -0.07300
C 	C 	0.68121 0.31180 0.82401 0.28600
Cu	Cu	0.58703 0.31089 0.39931 0.89400
C 	C 	0.67408 0.31066 0.61007 0.28400
C 	C 	0.67096 0.31398 0.10916 0.29000
C 	C 	0.67006 0.31604 0.66453 -0.07900
H 	H 	0.82522 0.97126 0.47204 0.03600
H 	H 	0.72036 0.95777 0.42704 0.03500
C 	C 	0.01786 0.99555 0.45107 0.03500
C 	C 	0.92055 0.98496 0.43297 0.04400
C 	C 	0.04833 0.99276 0.03209 -0.10700
H 	H 	0.06591 0.96570 0.03764 0.05500
C 	C 	0.98340 0.93183 0.45207 -0.08000
H 	H 	0.00785 0.91171 0.46052 0.04500
Cu	Cu	0.69728 0.35793 0.93339 0.89500
Cu	Cu	0.66619 0.38536 0.03118 0.89500
O 	O 	0.71296 0.36048 0.00519 -0.64000
O 	O 	0.65023 0.34492 0.09275 -0.38500
O 	O 	0.74839 0.44752 0.93968 -0.39200
C 	C 	0.74793 0.48591 0.97390 0.30700
O 	O 	0.58580 0.31851 0.97158 -0.40100
O 	O 	0.70720 0.46522 0.00528 -0.39500
O 	O 	0.68566 0.35306 0.85906 -0.37900
Cu	Cu	0.70867 0.31784 0.42466 0.92600
O 	O 	0.71208 0.33185 0.49919 -0.64100
C 	C 	0.71773 0.43280 0.43865 0.30500
O 	O 	0.66184 0.39726 0.45014 -0.39800
O 	O 	0.72436 0.31851 0.59708 -0.42100
C 	C 	0.72108 0.36773 0.69949 -0.02400
C 	C 	0.72380 0.36847 0.75202 0.03500
C 	C 	0.67466 0.31712 0.76997 -0.07900
H 	H 	0.77969 0.47527 0.80952 0.04500
H 	H 	0.75976 0.40643 0.68575 0.04200
C 	C 	0.72231 0.35561 0.20024 -0.02500
C 	C 	0.71992 0.35404 0.25213 0.03600
S 	S 	0.78306 0.41667 0.29813 -0.04900
H 	H 	0.82458 0.40397 0.31250 0.04000
H 	H 	0.76272 0.39535 0.18892 0.03400
H 	H 	0.72933 0.58597 0.41006 0.03600
H 	H 	0.73606 0.52145 0.47251 0.07400
H 	H 	0.82002 0.56939 0.94516 0.07600
C 	C 	0.96145 0.99976 0.02118 -0.09700
C 	C 	0.98377 0.96425 0.02677 0.06500
H 	H 	0.91145 0.97750 0.01646 0.05400
C 	C 	0.88603 0.92043 0.43216 -0.08900
C 	C 	0.91747 0.89366 0.44092 0.05000
H 	H 	0.83514 0.89110 0.42364 0.05100
H 	H 	0.75786 0.38595 0.02137 0.16500
O 	O 	0.74459 0.40795 0.42179 -0.37400
H 	H 	0.73910 0.37599 0.51663 0.17400
S 	S 	0.79035 0.43252 0.79467 -0.06500
C 	C 	0.81973 0.60250 0.42110 0.00200
C 	C 	0.88463 0.64729 0.42559 -0.03600
C 	C 	0.90954 0.70949 0.42455 -0.05000
C 	C 	0.86979 0.72758 0.41876 0.02400
C 	C 	0.80463 0.68266 0.41386 -0.04900
C 	C 	0.77973 0.62044 0.41510 -0.03600
C 	C 	0.89650 0.79242 0.41298 -0.04400
C 	C 	0.88132 0.82563 0.43927 -0.05900
C 	C 	0.79349 0.53604 0.41831 0.00700
C 	C 	0.75079 0.50079 0.44652 -0.15200
H 	H 	0.91580 0.63386 0.42951 0.03600
H 	H 	0.95976 0.74357 0.42768 0.03900
H 	H 	0.77321 0.69554 0.40771 0.03900
H 	H 	0.93361 0.81523 0.39077 0.04000
H 	H 	0.84333 0.80306 0.46063 0.04200
H 	H 	0.80981 0.51614 0.39341 0.03800
C 	C 	0.89888 0.78845 0.99847 0.01600
C 	C 	0.86704 0.74479 0.95282 -0.04600
C 	C 	0.82971 0.68111 0.95389 -0.04500
C 	C 	0.82513 0.66054 0.00069 0.01000
C 	C 	0.85662 0.70421 0.04634 -0.04100
C 	C 	0.89380 0.76788 0.04527 -0.04000
C 	C 	0.78471 0.59341 0.00241 0.01400
C 	C 	0.78771 0.55289 0.97185 -0.15700
C 	C 	0.94112 0.85545 0.99681 -0.04800
C 	C 	0.93930 0.89703 0.02695 -0.05800
H 	H 	0.87097 0.76023 0.91653 0.03800
H 	H 	0.80408 0.64782 0.91844 0.04000
H 	H 	0.85285 0.68879 0.08263 0.03600
H 	H 	0.91931 0.80117 0.08073 0.03900
H 	H 	0.75481 0.57764 0.03091 0.03400
H 	H 	0.97272 0.87079 0.96954 0.03900
H 	H 	0.90351 0.88125 0.05050 0.04400
