data_crystal

_cell_length_a 16.67627
_cell_length_b 16.08918
_cell_length_c 35.76161
_cell_angle_alpha 90.92851
_cell_angle_beta  91.03976
_cell_angle_gamma 112.87038

_symmetry_space_group_name_	'P 1'
_symmetry_space_group_name_H-M	'P 1'

loop_
_symmetry_equiv_pos_as_xyz
  x,y,z

loop_
_atom_site_label
_atom_site_type_symbol
_atom_site_fract_x
_atom_site_fract_y
_atom_site_fract_z
_atom_site_charge
Ni	Ni	0.81814 0.37618 0.90655 1.10400
O 	O 	0.69907 0.31003 0.88098 -0.70000
Ni	Ni	0.61905 0.32898 0.91809 1.10000
O 	O 	0.88030 0.30965 0.87717 -0.36300
O 	O 	0.77533 0.17456 0.89172 -0.40900
O 	O 	0.85286 0.47220 0.86555 -0.36200
Ni	Ni	0.66077 0.18030 0.87092 1.07600
O 	O 	0.89955 0.57469 0.94164 -0.40700
O 	O 	0.59119 0.11171 0.91610 -0.38500
O 	O 	0.49929 0.24075 0.89724 -0.37700
O 	O 	0.73921 0.40881 0.94029 -0.69600
O 	O 	0.93179 0.45004 0.93378 -0.36800
O 	O 	0.55766 0.37651 0.95724 -0.36300
O 	O 	0.63783 0.52285 0.94243 -0.40400
Ni	Ni	0.76786 0.53867 0.94042 1.07100
H 	H 	0.69490 0.34032 0.85758 0.16100
H 	H 	0.74633 0.39075 0.96607 0.15700
C 	C 	0.58290 0.14819 0.94826 0.32100
O 	O 	0.76649 0.54529 0.88384 -0.40900
C 	C 	0.84993 0.22114 0.87622 0.27400
C 	C 	0.48597 0.18431 0.86801 0.29700
C 	C 	0.83285 0.54373 0.86510 0.29600
C 	C 	0.58244 0.46360 0.96430 0.28800
C 	C 	0.93599 0.52050 0.95404 0.31000
O 	O 	0.62278 0.23494 0.95503 -0.39600
O 	O 	0.55098 0.18358 0.84768 -0.41000
Ni	Ni	0.64757 0.21199 0.65294 1.10200
O 	O 	0.71545 0.34020 0.67281 -0.70100
Ni	Ni	0.69397 0.41473 0.63257 1.10100
O 	O 	0.71852 0.15577 0.68323 -0.37600
O 	O 	0.84307 0.25838 0.66019 -0.40700
O 	O 	0.55847 0.18647 0.69569 -0.36500
Ni	Ni	0.84107 0.37874 0.68062 1.07300
O 	O 	0.45296 0.12386 0.62416 -0.41200
O 	O 	0.90241 0.44476 0.63344 -0.38700
O 	O 	0.78234 0.54206 0.64828 -0.36800
O 	O 	0.61299 0.28611 0.61600 -0.69400
O 	O 	0.57189 0.08873 0.63123 -0.37200
O 	O 	0.64319 0.46971 0.59176 -0.36100
O 	O 	0.50538 0.39364 0.61216 -0.40500
Ni	Ni	0.48883 0.25995 0.61913 1.07000
H 	H 	0.68936 0.35062 0.69617 0.16300
H 	H 	0.62616 0.27190 0.59036 0.15900
C 	C 	0.86534 0.44342 0.60049 0.32200
O 	O 	0.49689 0.28195 0.67527 -0.41100
C 	C 	0.80272 0.18302 0.67778 0.27300
C 	C 	0.83897 0.55915 0.67681 0.30000
C 	C 	0.49633 0.21815 0.69754 0.29400
C 	C 	0.55845 0.44440 0.58732 0.29200
C 	C 	0.50191 0.08194 0.61189 0.30800
O 	O 	0.78080 0.40241 0.59523 -0.39100
O 	O 	0.83710 0.49526 0.69979 -0.41600
C 	C 	0.07070 0.98434 0.73793 -0.03900
H 	H 	0.07639 0.99501 0.70732 0.04500
C 	C 	0.05778 0.95881 0.81143 -0.03800
H 	H 	0.05463 0.94776 0.84200 0.05100
C 	C 	0.00914 0.02127 0.75760 -0.00700
C 	C 	0.03478 0.88533 0.74921 -0.00300
C 	C 	0.15745 0.02592 0.76037 -0.00400
C 	C 	0.00550 0.01158 0.79582 0.00100
C 	C 	0.02470 0.87162 0.78699 -0.00300
C 	C 	0.15039 0.01252 0.79815 -0.00500
Ni	Ni	0.26190 0.67251 0.41620 1.10000
O 	O 	0.35938 0.79566 0.42912 -0.69300
Ni	Ni	0.32883 0.87645 0.39389 1.10400
O 	O 	0.31111 0.60817 0.45368 -0.36500
O 	O 	0.44395 0.66581 0.42672 -0.40700
O 	O 	0.19326 0.69966 0.45837 -0.39200
Ni	Ni	0.47738 0.80344 0.42080 1.07000
O 	O 	0.09652 0.60433 0.35570 -0.40400
O 	O 	0.45252 0.78193 0.36486 -0.41100
O 	O 	0.42227 0.99543 0.41173 -0.36700
O 	O 	0.24190 0.75075 0.37741 -0.69900
O 	O 	0.15753 0.55310 0.40446 -0.37600
O 	O 	0.26364 0.94409 0.36704 -0.36700
O 	O 	0.14573 0.85738 0.39855 -0.41200
Ni	Ni	0.11788 0.72830 0.37740 1.07600
H 	H 	0.35500 0.81422 0.45528 0.15800
H 	H 	0.25741 0.73363 0.35269 0.16500
C 	C 	0.46137 0.85112 0.34437 0.29700
O 	O 	0.06460 0.67021 0.42674 -0.38600
C 	C 	0.39407 0.62169 0.45381 0.29400
C 	C 	0.49015 0.99180 0.42970 0.30700
C 	C 	0.10794 0.66767 0.45746 0.32300
C 	C 	0.18298 0.92556 0.37655 0.28000
C 	C 	0.10131 0.53785 0.37578 0.29500
O 	O 	0.40278 0.88685 0.34680 -0.36100
O 	O 	0.52899 0.94077 0.41595 -0.40600
Ni	Ni	0.35481 0.75866 0.13654 1.09800
O 	O 	0.23282 0.65904 0.12862 -0.69300
Ni	Ni	0.16447 0.69936 0.16564 1.10100
O 	O 	0.40860 0.70037 0.09829 -0.36500
O 	O 	0.35138 0.56330 0.12616 -0.40300
O 	O 	0.32352 0.82415 0.09365 -0.39600
Ni	Ni	0.22038 0.53444 0.13607 1.07100
O 	O 	0.43692 0.94995 0.19012 -0.39700
O 	O 	0.24412 0.55130 0.19231 -0.39900
O 	O 	0.04512 0.60231 0.15327 -0.37400
O 	O 	0.28886 0.78936 0.17662 -0.70400
O 	O 	0.47206 0.86658 0.14391 -0.37700
O 	O 	0.10853 0.77492 0.19367 -0.37100
O 	O 	0.18386 0.89457 0.15799 -0.41100
Ni	Ni	0.31180 0.91805 0.17297 1.07600
H 	H 	0.21052 0.66282 0.10313 0.15400
H 	H 	0.31001 0.77779 0.20126 0.16100
C 	C 	0.18353 0.55629 0.21401 0.29300
O 	O 	0.35426 0.96285 0.12057 -0.38600
C 	C 	0.39189 0.61340 0.09808 0.28800
C 	C 	0.04168 0.53111 0.13372 0.30800
C 	C 	0.35751 0.91220 0.09196 0.32500
C 	C 	0.12127 0.85598 0.18158 0.27200
C 	C 	0.49371 0.92366 0.17318 0.29200
O 	O 	0.16555 0.62932 0.21378 -0.36700
O 	O 	0.08942 0.48641 0.14442 -0.40800
C 	C 	0.90991 0.12347 0.24214 -0.03400
H 	H 	0.91458 0.13538 0.21159 0.04800
C 	C 	0.89765 0.09637 0.31551 -0.03800
H 	H 	0.89683 0.08855 0.34601 0.05700
C 	C 	0.96034 0.06843 0.25713 -0.00800
C 	C 	0.94415 0.21053 0.26713 -0.00600
C 	C 	0.81657 0.06985 0.25561 -0.00800
C 	C 	0.95433 0.05486 0.29485 -0.00500
C 	C 	0.93652 0.19541 0.30470 -0.00500
C 	C 	0.80945 0.05770 0.29377 0.00100
C 	C 	0.12277 0.47274 0.23201 -0.08100
C 	C 	0.03230 0.44843 0.22819 0.01500
C 	C 	0.97369 0.36217 0.23812 -0.04200
C 	C 	0.00532 0.29945 0.25288 0.03100
C 	C 	0.09539 0.32641 0.25951 -0.05600
C 	C 	0.15408 0.41211 0.24904 0.02400
H 	H 	0.00736 0.49594 0.21677 0.05700
H 	H 	0.11982 0.28065 0.27296 0.05400
C 	C 	0.24587 0.43841 0.25726 0.07600
C 	C 	0.88137 0.34098 0.23514 0.09100
N 	N 	0.31942 0.45945 0.26387 -0.10500
N 	N 	0.80749 0.32486 0.23291 -0.11500
C 	C 	0.74204 0.02898 0.22846 0.03400
C 	C 	0.71619 0.08603 0.20644 -0.06900
C 	C 	0.63633 0.05193 0.18661 0.03500
C 	C 	0.58376 0.95909 0.18746 -0.08500
C 	C 	0.61421 0.90085 0.20573 0.01600
C 	C 	0.69268 0.93469 0.22624 -0.04700
H 	H 	0.75654 0.15732 0.20592 0.06200
H 	H 	0.57476 0.82894 0.20529 0.03100
C 	C 	0.72082 0.87151 0.24452 0.09400
C 	C 	0.60893 0.11239 0.16542 0.07800
N 	N 	0.74003 0.81755 0.25856 -0.11200
N 	N 	0.58693 0.16080 0.14844 -0.10400
C 	C 	0.99159 0.01315 0.23187 0.03300
C 	C 	0.95615 0.91887 0.23463 -0.06900
C 	C 	0.99402 0.86587 0.21660 0.02800
C 	C 	0.07165 0.90790 0.19685 -0.08700
C 	C 	0.10365 0.00185 0.19201 0.00800
C 	C 	0.06258 0.05398 0.20844 -0.04800
H 	H 	0.90112 0.88710 0.25205 0.06600
H 	H 	0.16070 0.03460 0.17541 0.03200
C 	C 	0.09087 0.14783 0.19921 0.08500
C 	C 	0.95045 0.76880 0.21730 0.08300
N 	N 	0.11395 0.22272 0.19114 -0.12300
N 	N 	0.91535 0.69106 0.21792 -0.09900
C 	C 	0.55004 0.90614 0.33032 -0.08600
C 	C 	0.62164 0.89021 0.34476 0.01700
C 	C 	0.70644 0.95321 0.34049 -0.04000
C 	C 	0.72276 0.01962 0.31303 0.03200
C 	C 	0.65208 0.03912 0.29965 -0.05900
C 	C 	0.56581 0.98139 0.30717 0.03000
H 	H 	0.61106 0.83459 0.36338 0.01800
H 	H 	0.66397 0.09717 0.28231 0.05900
C 	C 	0.49485 0.99699 0.28921 0.08600
C 	C 	0.76844 0.96346 0.37060 0.09000
N 	N 	0.43805 0.00967 0.27482 -0.11300
N 	N 	0.81703 0.97093 0.39521 -0.11600
C 	C 	0.04762 0.44366 0.36429 -0.07900
C 	C 	0.07956 0.37629 0.37092 0.01300
C 	C 	0.03386 0.28839 0.35721 -0.04500
C 	C 	0.96111 0.27007 0.33300 0.03100
C 	C 	0.92244 0.33318 0.33073 -0.06200
C 	C 	0.96501 0.41995 0.34641 0.03000
H 	H 	0.13932 0.39194 0.38726 0.04800
H 	H 	0.86123 0.31592 0.31535 0.06000
C 	C 	0.92209 0.48250 0.34533 0.07700
C 	C 	0.05308 0.21620 0.37302 0.09100
N 	N 	0.88761 0.53253 0.34445 -0.11300
N 	N 	0.06843 0.15905 0.38657 -0.11200
C 	C 	0.01323 0.02095 0.31527 0.03700
C 	C 	0.10333 0.07244 0.31623 -0.06300
C 	C 	0.16008 0.04364 0.33659 0.03500
C 	C 	0.12684 0.95934 0.35426 -0.09600
C 	C 	0.03752 0.90595 0.35118 0.01600
C 	C 	0.98076 0.93638 0.33242 -0.04900
H 	H 	0.12873 0.13671 0.30239 0.05400
H 	H 	0.01184 0.83976 0.36345 0.01000
C 	C 	0.89001 0.87777 0.32981 0.09300
C 	C 	0.25085 0.10284 0.34063 0.08300
N 	N 	0.81781 0.82843 0.32847 -0.11100
N 	N 	0.32355 0.15040 0.34383 -0.09800
C 	C 	0.49787 0.05910 0.57312 -0.13300
C 	C 	0.49830 0.04331 0.54028 0.03300
C 	C 	0.49977 0.02678 0.50179 0.03200
C 	C 	0.49838 0.01209 0.46878 -0.13200
C 	C 	0.06003 0.62193 0.48954 -0.08300
C 	C 	0.01681 0.58122 0.51531 0.04500
C 	C 	0.96407 0.53225 0.54486 0.04400
C 	C 	0.91874 0.49089 0.56998 -0.08200
C 	C 	0.52455 0.48326 0.55854 -0.09300
C 	C 	0.49472 0.51458 0.53431 0.03800
C 	C 	0.45911 0.55072 0.50604 0.04000
C 	C 	0.42889 0.58227 0.48204 -0.09800
C 	C 	0.85310 0.13388 0.69471 -0.08400
C 	C 	0.81440 0.07056 0.72213 0.00700
C 	C 	0.86273 0.03152 0.74226 -0.04300
C 	C 	0.95314 0.05800 0.73578 0.02700
C 	C 	0.99104 0.11897 0.70737 -0.06700
C 	C 	0.94107 0.15394 0.68579 0.02100
H 	H 	0.74641 0.05270 0.72844 0.04800
H 	H 	0.05968 0.13889 0.70184 0.05100
C 	C 	0.97911 0.20494 0.65319 0.07400
C 	C 	0.81864 0.96727 0.77020 0.09200
N 	N 	0.00975 0.24571 0.62709 -0.10600
N 	N 	0.78116 0.91673 0.79262 -0.11300
C 	C 	0.41540 0.16710 0.71776 -0.08300
C 	C 	0.36749 0.07646 0.70758 0.00800
C 	C 	0.28027 0.03316 0.71766 -0.04200
C 	C 	0.24303 0.07696 0.74238 0.02600
C 	C 	0.29202 0.16711 0.75362 -0.06200
C 	C 	0.37778 0.21211 0.74158 0.02500
H 	H 	0.39598 0.04144 0.68933 0.05500
H 	H 	0.26390 0.20174 0.77226 0.05400
C 	C 	0.42761 0.30332 0.75483 0.07300
C 	C 	0.22759 0.94948 0.69870 0.08900
N 	N 	0.46757 0.37642 0.76547 -0.11100
N 	N 	0.18667 0.88311 0.68258 -0.11400
C 	C 	0.90771 0.64993 0.68270 -0.08400
C 	C 	0.98323 0.65816 0.70321 0.02000
C 	C 	0.03113 0.73809 0.72296 -0.04300
C 	C 	0.00518 0.81133 0.72076 0.03600
C 	C 	0.94420 0.81004 0.69300 -0.06000
C 	C 	0.89320 0.72874 0.67457 0.03300
H 	H 	0.00073 0.60022 0.70598 0.03100
H 	H 	0.93008 0.86962 0.68866 0.05900
C 	C 	0.82528 0.72669 0.64850 0.08800
C 	C 	0.10738 0.74508 0.74478 0.09700
N 	N 	0.77090 0.72527 0.62761 -0.10000
N 	N 	0.16855 0.75078 0.76219 -0.11600
C 	C 	0.95953 0.52452 0.99249 -0.12500
C 	C 	0.97690 0.52461 0.02505 0.02900
C 	C 	0.99657 0.52366 0.06307 0.03500
C 	C 	0.01523 0.52477 0.09554 -0.13800
C 	C 	0.40185 0.95502 0.05882 -0.08500
C 	C 	0.44192 0.99496 0.03229 0.04500
C 	C 	0.49084 0.04549 0.00228 0.04300
C 	C 	0.53303 0.09107 0.97739 -0.08300
C 	C 	0.43140 0.57691 0.07035 -0.09200
C 	C 	0.46520 0.54926 0.04626 0.03800
C 	C 	0.50544 0.51907 0.01757 0.03500
C 	C 	0.54029 0.49397 0.99307 -0.09100
C 	C 	0.90107 0.17355 0.85925 -0.08100
C 	C 	0.88762 0.08638 0.87101 0.01000
C 	C 	0.92337 0.03350 0.85153 -0.03700
C 	C 	0.97684 0.06956 0.82069 0.03100
C 	C 	0.99946 0.16070 0.81219 -0.05900
C 	C 	0.95853 0.21124 0.82970 0.02400
H 	H 	0.84647 0.05835 0.89458 0.04600
H 	H 	0.04647 0.19115 0.79077 0.05300
C 	C 	0.97255 0.29949 0.81575 0.07500
C 	C 	0.90077 0.94106 0.86221 0.09300
N 	N 	0.98389 0.37011 0.80447 -0.11200
N 	N 	0.88236 0.86708 0.87092 -0.11800
C 	C 	0.39567 0.13036 0.85502 -0.08100
C 	C 	0.33025 0.16185 0.86286 0.01400
C 	C 	0.24544 0.11521 0.84906 -0.04600
C 	C 	0.22723 0.04109 0.82403 0.03000
C 	C 	0.28999 0.00418 0.81912 -0.06100
C 	C 	0.37377 0.04753 0.83494 0.02900
H 	H 	0.34515 0.22243 0.88007 0.04900
H 	H 	0.27458 0.94385 0.80168 0.06000
C 	C 	0.43524 0.00478 0.83173 0.07400
C 	C 	0.17699 0.13879 0.86372 0.09000
N 	N 	0.48440 0.97043 0.82915 -0.12000
N 	N 	0.12376 0.15895 0.87654 -0.11400
C 	C 	0.88335 0.62149 0.84195 -0.08100
C 	C 	0.83906 0.65669 0.81738 0.01600
C 	C 	0.88442 0.73421 0.79717 -0.04000
C 	C 	0.97554 0.78126 0.80337 0.03300
C 	C 	0.01970 0.74573 0.82799 -0.06100
C 	C 	0.97502 0.66441 0.84600 0.02800
H 	H 	0.76904 0.62265 0.81342 0.04300
H 	H 	0.08935 0.78095 0.83278 0.05900
C 	C 	0.02427 0.62483 0.86774 0.08800
C 	C 	0.83736 0.76008 0.76859 0.09900
N 	N 	0.06449 0.59349 0.88490 -0.09500
N 	N 	0.79771 0.77808 0.74553 -0.11300
