data_crystal

_cell_length_a 26.40214
_cell_length_b 25.29321
_cell_length_c 7.31755
_cell_angle_alpha 90.00000
_cell_angle_beta  90.00000
_cell_angle_gamma 120.56629

_symmetry_space_group_name_	'P 1'
_symmetry_space_group_name_H-M	'P 1'

loop_
_symmetry_equiv_pos_as_xyz
  x,y,z

loop_
_atom_site_label
_atom_site_type_symbol
_atom_site_fract_x
_atom_site_fract_y
_atom_site_fract_z
_atom_site_charge
C 	C 	0.39454 0.58277 0.86332 0.25400
C 	C 	0.20370 0.61026 0.53831 0.25900
C 	C 	0.39743 0.61044 0.47321 0.26000
C 	C 	0.19919 0.58387 0.92995 0.25300
C 	C 	0.39897 0.80668 0.62703 0.26100
C 	C 	0.39700 0.78134 0.02096 0.25600
Ni	Ni	0.28775 0.57507 0.68915 1.11100
Ni	Ni	0.29188 0.70561 0.78927 1.11900
Ni	Ni	0.41555 0.70562 0.74884 1.11500
O 	O 	0.33649 0.55126 0.85820 -0.33900
O 	O 	0.42346 0.64235 0.89830 -0.36500
O 	O 	0.34129 0.77654 0.62197 -0.34800
O 	O 	0.23214 0.58151 0.50239 -0.35000
O 	O 	0.23285 0.66887 0.58049 -0.34600
O 	O 	0.42592 0.75259 0.98282 -0.36900
O 	O 	0.33976 0.57977 0.46980 -0.33900
O 	O 	0.42614 0.66934 0.51328 -0.36300
O 	O 	0.33901 0.75252 0.01039 -0.34700
O 	O 	0.22344 0.55065 0.89012 -0.34400
O 	O 	0.23208 0.64312 0.96513 -0.35600
O 	O 	0.42795 0.77787 0.59772 -0.36900
O 	O 	0.33070 0.65881 0.76314 -0.69900
H 	H 	0.32957 0.64957 0.89486 0.14300
C 	C 	0.05015 0.53895 0.01731 0.01700
C 	C 	0.04853 0.48376 0.02410 0.11500
C 	C 	0.99509 0.42848 0.00239 -0.08700
O 	O 	0.10306 0.48874 0.00147 -0.18500
C 	C 	0.13712 0.55261 0.98196 0.05000
C 	C 	0.10589 0.58273 0.98914 -0.05400
H 	H 	0.99292 0.38465 0.01183 0.06900
H 	H 	0.11983 0.62717 0.92851 0.06100
C 	C 	0.05608 0.56702 0.44651 0.11400
C 	C 	0.00651 0.57310 0.47040 -0.08500
C 	C 	0.05075 0.51005 0.45438 0.01600
O 	O 	0.11349 0.61565 0.46513 -0.18400
C 	C 	0.14178 0.58170 0.48347 0.04900
C 	C 	0.10462 0.51879 0.47969 -0.05300
H 	H 	0.00983 0.61747 0.46084 0.06900
H 	H 	0.11408 0.48574 0.54097 0.06100
C 	C 	0.44765 0.96222 0.71405 0.11700
C 	C 	0.44765 0.01751 0.69811 -0.08600
C 	C 	0.50148 0.07258 0.71964 0.00800
C 	C 	0.50000 0.96302 0.73183 0.01100
O 	O 	0.40113 0.90636 0.65385 -0.18200
C 	C 	0.43095 0.87407 0.63496 0.04700
C 	C 	0.49012 0.90819 0.67581 -0.06000
C 	C 	0.51346 0.12785 0.65902 -0.05200
H 	H 	0.40793 0.01759 0.66168 0.06700
H 	H 	0.48228 0.13682 0.58996 0.05300
C 	C 	0.49901 0.92657 0.21568 0.00900
C 	C 	0.44645 0.92574 0.22434 0.12500
C 	C 	0.44603 0.98088 0.22738 -0.08500
C 	C 	0.50025 0.03577 0.23799 0.01200
C 	C 	0.50988 0.09072 0.18540 -0.06100
O 	O 	0.39816 0.87075 0.16878 -0.17700
C 	C 	0.42697 0.83900 0.12384 0.05400
C 	C 	0.48713 0.87201 0.14951 -0.05300
H 	H 	0.40532 0.98106 0.21207 0.07200
H 	H 	0.48073 0.10836 0.21037 0.05200
C 	C 	0.44347 0.47866 0.79640 0.11700
C 	C 	0.44382 0.42378 0.81872 -0.08600
C 	C 	0.49782 0.42608 0.80024 0.00800
C 	C 	0.49566 0.53342 0.77600 0.01200
O 	O 	0.39679 0.48533 0.85303 -0.18100
C 	C 	0.42643 0.54939 0.86695 0.05100
C 	C 	0.48563 0.57793 0.82751 -0.06100
H 	H 	0.40426 0.38177 0.85779 0.06700
H 	H 	0.47921 0.34320 0.93995 0.05300
C 	C 	0.44912 0.51740 0.28772 0.12400
C 	C 	0.44919 0.46199 0.29019 -0.08500
C 	C 	0.50148 0.57266 0.29552 0.00800
O 	O 	0.40035 0.52107 0.33883 -0.17900
C 	C 	0.42859 0.58371 0.37999 0.05100
C 	C 	0.48891 0.61476 0.35677 -0.05300
C 	C 	0.51018 0.38461 0.86762 -0.05300
C 	C 	0.50372 0.46509 0.28354 0.01100
H 	H 	0.40862 0.41851 0.30633 0.07100
C 	C 	0.99765 0.45721 0.50145 -0.09000
C 	C 	0.51373 0.42081 0.33888 -0.06000
H 	H 	0.48469 0.37204 0.31697 0.05100
C 	C 	0.00052 0.54269 0.97339 -0.09100
H 	H 	0.00271 0.58654 0.96436 0.07100
H 	H 	0.51969 0.65682 0.42663 0.05300
C 	C 	0.55583 0.51995 0.30223 0.11700
C 	C 	0.55543 0.57503 0.31878 -0.08600
H 	H 	0.51458 0.62651 0.80197 0.05200
H 	H 	0.59491 0.61733 0.35644 0.06700
H 	H 	0.51955 0.89059 0.69486 0.05200
C 	C 	0.79739 0.39183 0.05724 0.25400
C 	C 	0.60509 0.41630 0.38373 0.26100
C 	C 	0.79929 0.41667 0.44914 0.26100
C 	C 	0.60125 0.39029 0.99164 0.25500
C 	C 	0.60388 0.22026 0.53681 0.26000
C 	C 	0.60074 0.19237 0.14484 0.25500
Ni	Ni	0.71158 0.42555 0.20975 1.11200
Ni	Ni	0.58414 0.29431 0.26547 1.11500
Ni	Ni	0.70825 0.29524 0.30645 1.11900
O 	O 	0.76950 0.42182 0.02549 -0.34200
O 	O 	0.76809 0.33276 0.10003 -0.35700
O 	O 	0.57512 0.24893 0.50084 -0.36800
O 	O 	0.66274 0.44735 0.38365 -0.33900
O 	O 	0.57653 0.35712 0.41851 -0.36300
O 	O 	0.65883 0.22246 0.14356 -0.34900
O 	O 	0.77473 0.44944 0.41307 -0.35200
O 	O 	0.76641 0.35798 0.48535 -0.34600
O 	O 	0.57141 0.22124 0.11645 -0.36900
O 	O 	0.65933 0.42226 0.99207 -0.33800
O 	O 	0.57232 0.33106 0.03292 -0.36500
O 	O 	0.66158 0.24995 0.52901 -0.34900
O 	O 	0.66865 0.33861 0.23751 -0.69900
H 	H 	0.66774 0.32978 0.10554 0.14300
C 	C 	0.94725 0.48764 0.95005 0.12100
C 	C 	0.94515 0.43218 0.95987 0.01200
O 	O 	0.89315 0.48337 0.97029 -0.18900
C 	C 	0.85859 0.42000 0.99727 0.05600
C 	C 	0.88921 0.38902 0.99317 -0.04800
H 	H 	0.87530 0.34534 0.05890 0.06300
C 	C 	0.95327 0.52003 0.51616 0.01000
C 	C 	0.94834 0.46336 0.52705 0.12100
O 	O 	0.89106 0.41442 0.51576 -0.18900
C 	C 	0.86218 0.44761 0.49452 0.05100
C 	C 	0.89900 0.51077 0.49219 -0.04700
H 	H 	0.99437 0.41288 0.51220 0.07100
H 	H 	0.88885 0.54308 0.42938 0.06200
C 	C 	0.55401 0.07330 0.72564 0.12500
C 	C 	0.55432 0.01802 0.72314 -0.08500
O 	O 	0.60241 0.12888 0.67350 -0.17800
C 	C 	0.57370 0.16121 0.63409 0.05100
H 	H 	0.59499 0.01790 0.70560 0.07100
C 	C 	0.55264 0.03680 0.21748 0.11700
C 	C 	0.55276 0.98177 0.19666 -0.08600
O 	O 	0.59893 0.09295 0.15902 -0.18200
C 	C 	0.56897 0.12517 0.14444 0.05000
H 	H 	0.59248 0.98204 0.15796 0.06700
H 	H 	0.51835 0.86382 0.07738 0.05300
C 	C 	0.55016 0.48130 0.79063 0.12500
C 	C 	0.55009 0.53659 0.78685 -0.08600
O 	O 	0.59875 0.47818 0.84659 -0.17900
C 	C 	0.57037 0.41600 0.89296 0.05400
H 	H 	0.59062 0.58020 0.80170 0.07200
O 	O 	0.60251 0.51367 0.36216 -0.18200
C 	C 	0.57295 0.44965 0.37964 0.04800
