data_crystal

_cell_length_a 27.78904
_cell_length_b 28.31130
_cell_length_c 19.48826
_cell_angle_alpha 90.00091
_cell_angle_beta  90.00019
_cell_angle_gamma 119.99824

_symmetry_space_group_name_	'P 1'
_symmetry_space_group_name_H-M	'P 1'

loop_
_symmetry_equiv_pos_as_xyz
  x,y,z

loop_
_atom_site_label
_atom_site_type_symbol
_atom_site_fract_x
_atom_site_fract_y
_atom_site_fract_z
_atom_site_charge
Zn	Zn	0.66955 0.50549 0.77127 1.22100
Zn	Zn	0.61744 0.59113 0.76099 1.19400
C 	C 	0.76156 0.56630 0.56499 0.32800
Zn	Zn	0.67447 0.57344 0.63868 1.22300
Zn	Zn	0.70673 0.46923 0.64105 1.20200
H 	H 	0.71682 0.61323 0.75058 0.17600
C 	C 	0.56484 0.55026 0.60912 0.30000
O 	O 	0.66311 0.39478 0.67619 -0.43700
O 	O 	0.65733 0.42409 0.78429 -0.37500
O 	O 	0.68079 0.58127 0.73745 -0.79800
O 	O 	0.56593 0.52028 0.80606 -0.46200
O 	O 	0.74918 0.54166 0.79626 -0.44400
O 	O 	0.62028 0.48896 0.85259 -0.42800
O 	O 	0.75886 0.48167 0.73003 -0.38200
O 	O 	0.64474 0.66416 0.72396 -0.46000
H 	H 	0.61582 0.46591 0.66475 0.17000
O 	O 	0.68178 0.65351 0.62226 -0.38300
O 	O 	0.65512 0.49405 0.67256 -0.77500
O 	O 	0.76678 0.54384 0.62059 -0.47800
O 	O 	0.60362 0.53903 0.59390 -0.45800
O 	O 	0.73398 0.59287 0.56790 -0.42000
O 	O 	0.55802 0.56149 0.67285 -0.39300
C 	C 	0.63754 0.38616 0.73580 0.27400
C 	C 	0.58156 0.50261 0.85939 0.26900
C 	C 	0.78146 0.52727 0.76477 0.34200
C 	C 	0.66324 0.68005 0.66084 0.28800
Zn	Zn	0.36167 0.53613 0.27634 1.22600
Zn	Zn	0.40702 0.44672 0.25082 1.19500
C 	C 	0.35128 0.54740 0.02161 0.30300
Zn	Zn	0.38369 0.49983 0.13334 1.22500
Zn	Zn	0.36156 0.60252 0.15237 1.20500
H 	H 	0.31544 0.43804 0.21615 0.18600
C 	C 	0.48671 0.50831 0.12034 0.34800
O 	O 	0.33919 0.63116 0.22929 -0.45900
O 	O 	0.37780 0.61266 0.31965 -0.38800
O 	O 	0.35362 0.46929 0.22084 -0.80400
O 	O 	0.45713 0.50863 0.31302 -0.46400
O 	O 	0.28061 0.50930 0.26864 -0.41700
O 	O 	0.39141 0.52443 0.36293 -0.44500
O 	O 	0.28139 0.52578 0.15300 -0.41100
O 	O 	0.37353 0.38056 0.19653 -0.46100
H 	H 	0.44203 0.59531 0.20090 0.18900
O 	O 	0.37288 0.42173 0.09396 -0.38000
O 	O 	0.40216 0.56986 0.19209 -0.79300
O 	O 	0.37380 0.59382 0.05499 -0.46100
O 	O 	0.46202 0.53668 0.11767 -0.47200
O 	O 	0.34019 0.50163 0.05269 -0.42700
O 	O 	0.47720 0.47581 0.17339 -0.38300
C 	C 	0.37284 0.64854 0.28197 0.33400
C 	C 	0.43813 0.52296 0.36674 0.32200
C 	C 	0.25498 0.49807 0.20856 0.32200
C 	C 	0.37265 0.38086 0.12877 0.28800
Zn	Zn	0.50633 0.17982 0.06920 1.22400
Zn	Zn	0.41026 0.04537 0.04784 1.19500
C 	C 	0.45598 0.22198 0.85962 0.33100
Zn	Zn	0.44093 0.12597 0.93099 1.22800
Zn	Zn	0.54928 0.25992 0.94561 1.20800
H 	H 	0.39747 0.12696 0.04049 0.17600
C 	C 	0.46027 0.03982 0.89803 0.30000
O 	O 	0.62321 0.28821 0.98591 -0.43200
O 	O 	0.59025 0.24553 0.08995 -0.37000
O 	O 	0.42858 0.12075 0.02898 -0.79800
O 	O 	0.47974 0.05725 0.09166 -0.46400
O 	O 	0.47203 0.22243 0.10010 -0.44600
O 	O 	0.51801 0.14008 0.14537 -0.42700
O 	O 	0.53182 0.29417 0.03560 -0.38000
O 	O 	0.33615 0.01084 0.00918 -0.46900
H 	H 	0.54913 0.17242 0.96263 0.17700
O 	O 	0.35968 0.05511 0.90497 -0.38000
O 	O 	0.52063 0.18300 0.97097 -0.77200
O 	O 	0.47605 0.24817 0.91700 -0.47100
O 	O 	0.47794 0.09151 0.89013 -0.44900
O 	O 	0.42581 0.16848 0.86108 -0.41900
O 	O 	0.43553 0.01484 0.95564 -0.38800
C 	C 	0.63091 0.26886 0.04412 0.26900
C 	C 	0.49821 0.08695 0.14764 0.26900
C 	C 	0.48481 0.26820 0.06904 0.33800
C 	C 	0.32816 0.01093 0.94267 0.28900
Zn	Zn	0.51388 0.86681 0.57708 1.22500
Zn	Zn	0.56751 0.00234 0.54406 1.19400
C 	C 	0.55652 0.83620 0.35854 0.27300
Zn	Zn	0.55448 0.92320 0.43182 1.22500
Zn	Zn	0.47880 0.78088 0.46043 1.20700
H 	H 	0.61409 0.94546 0.53387 0.17800
C 	C 	0.50148 0.98267 0.40013 0.36100
O 	O 	0.40931 0.73793 0.51126 -0.42200
O 	O 	0.44501 0.78866 0.60899 -0.37200
O 	O 	0.57552 0.93775 0.52704 -0.79700
O 	O 	0.49600 0.96897 0.59633 -0.46800
O 	O 	0.56994 0.84561 0.59981 -0.43200
O 	O 	0.49309 0.89752 0.65517 -0.43200
O 	O 	0.51881 0.76441 0.54581 -0.39500
O 	O 	0.63364 0.05657 0.49515 -0.46700
H 	H 	0.45324 0.85305 0.47918 0.17400
O 	O 	0.61970 0.00491 0.39675 -0.38200
O 	O 	0.48919 0.85385 0.48224 -0.77500
O 	O 	0.55183 0.81003 0.41556 -0.44900
O 	O 	0.49696 0.93486 0.39663 -0.47300
O 	O 	0.57979 0.88967 0.36083 -0.40800
O 	O 	0.52112 0.01212 0.45635 -0.39400
C 	C 	0.40198 0.75765 0.56911 0.27100
C 	C 	0.48914 0.94204 0.65420 0.31800
C 	C 	0.56514 0.80020 0.57562 0.34400
C 	C 	0.64554 0.05234 0.43054 0.33400
Zn	Zn	0.20792 0.68291 0.91408 1.22700
Zn	Zn	0.06762 0.61387 0.90090 1.19500
C 	C 	0.22373 0.75615 0.69253 0.32700
Zn	Zn	0.14007 0.67079 0.77764 1.22700
Zn	Zn	0.28485 0.73148 0.78424 1.20800
H 	H 	0.13386 0.71455 0.88407 0.17700
C 	C 	0.06647 0.56010 0.75415 0.29800
O 	O 	0.33076 0.70521 0.82734 -0.44200
O 	O 	0.28677 0.68742 0.93154 -0.37400
O 	O 	0.13617 0.68132 0.87502 -0.79500
O 	O 	0.09962 0.57056 0.93893 -0.46000
O 	O 	0.23643 0.75908 0.94072 -0.44500
O 	O 	0.17907 0.63199 0.99378 -0.41800
O 	O 	0.30945 0.78938 0.86843 -0.38000
O 	O 	0.01678 0.63572 0.86464 -0.46300
H 	H 	0.21027 0.63584 0.80866 0.18100
O 	O 	0.05686 0.65965 0.75667 -0.37900
O 	O 	0.21200 0.67126 0.81581 -0.76700
O 	O 	0.25368 0.77515 0.74778 -0.47100
O 	O 	0.11755 0.59863 0.74665 -0.44700
O 	O 	0.16975 0.72360 0.69915 -0.41500
O 	O 	0.03996 0.55631 0.81170 -0.38800
C 	C 	0.31213 0.67505 0.88316 0.32200
C 	C 	0.13005 0.58712 0.99496 0.28100
C 	C 	0.27370 0.79793 0.90205 0.33300
C 	C 	0.01386 0.64522 0.79893 0.27800
Zn	Zn	0.87491 0.37882 0.41766 1.22600
Zn	Zn	0.00559 0.40866 0.38177 1.19200
C 	C 	0.83046 0.35022 0.17200 0.35500
Zn	Zn	0.92415 0.38829 0.26968 1.22500
Zn	Zn	0.80501 0.38549 0.29971 1.20300
H 	H 	0.91533 0.32139 0.35646 0.18200
C 	C 	0.02205 0.48686 0.25032 0.33200
O 	O 	0.76035 0.37850 0.38081 -0.45400
O 	O 	0.82502 0.40756 0.46570 -0.38000
O 	O 	0.92638 0.36048 0.35843 -0.80000
O 	O 	0.00339 0.46248 0.44711 -0.47300
O 	O 	0.81365 0.30240 0.42042 -0.42900
O 	O 	0.92088 0.40449 0.50049 -0.45500
O 	O 	0.78617 0.30020 0.30869 -0.39200
O 	O 	0.03239 0.37080 0.32420 -0.45900
H 	H 	0.89875 0.45628 0.33961 0.18200
O 	O 	0.98750 0.37117 0.22436 -0.36400
O 	O 	0.88069 0.41643 0.33192 -0.79100
O 	O 	0.82014 0.38605 0.20068 -0.47500
O 	O 	0.96840 0.46368 0.24720 -0.46100
O 	O 	0.86994 0.34171 0.19629 -0.42500
O 	O 	0.04531 0.47639 0.30290 -0.38300
C 	C 	0.78495 0.41044 0.43350 0.27300
C 	C 	0.97136 0.44716 0.50226 0.34000
C 	C 	0.78701 0.27472 0.36523 0.27900
C 	C 	0.03044 0.37187 0.25662 0.27400
C 	C 	0.03545 0.53123 0.69240 -0.02400
C 	C 	0.00344 0.47426 0.69142 -0.06900
C 	C 	0.98221 0.44687 0.62924 0.05400
C 	C 	0.99298 0.47637 0.56756 -0.15300
C 	C 	0.02317 0.53366 0.56910 0.19600
C 	C 	0.04399 0.56079 0.63131 -0.10400
H 	H 	0.95842 0.40271 0.62876 0.02400
H 	H 	0.06769 0.60499 0.63200 0.07200
H 	H 	0.99657 0.45110 0.73825 0.06200
O 	O 	0.03054 0.56323 0.51033 -0.29500
H 	H 	0.06694 0.57084 0.49165 0.15500
C 	C 	0.10643 0.55814 0.06070 -0.04600
C 	C 	0.05287 0.51247 0.06130 -0.04900
C 	C 	0.02634 0.48972 0.12307 0.01400
C 	C 	0.05352 0.51053 0.18603 -0.14900
C 	C 	0.10837 0.55487 0.18613 0.19100
C 	C 	0.13478 0.57856 0.12343 -0.09800
H 	H 	0.98466 0.45480 0.12198 0.03500
H 	H 	0.17665 0.61314 0.12383 0.07500
H 	H 	0.03099 0.49520 0.01367 0.03800
O 	O 	0.13629 0.57497 0.24677 -0.28200
H 	H 	0.12801 0.60384 0.26081 0.14700
C 	C 	0.34828 0.75425 0.58237 -0.03900
C 	C 	0.34452 0.80181 0.58216 -0.05500
C 	C 	0.29584 0.80005 0.60444 0.03500
C 	C 	0.25218 0.75159 0.63161 -0.18700
C 	C 	0.25240 0.70243 0.62054 0.16600
C 	C 	0.30098 0.70403 0.59713 -0.11000
H 	H 	0.29508 0.83780 0.60933 0.02400
H 	H 	0.30266 0.66666 0.59393 0.07100
H 	H 	0.38012 0.84054 0.56786 0.02800
O 	O 	0.20798 0.65371 0.64080 -0.33100
H 	H 	0.18357 0.63973 0.59990 0.16200
C 	C 	0.75626 0.21438 0.36757 -0.01900
C 	C 	0.77574 0.18655 0.40836 -0.04500
C 	C 	0.74163 0.13076 0.42165 0.03500
C 	C 	0.68739 0.10234 0.39519 -0.14600
C 	C 	0.67001 0.12915 0.34895 0.20200
C 	C 	0.70466 0.18481 0.33477 -0.09600
H 	H 	0.75590 0.11058 0.45659 0.02200
H 	H 	0.68954 0.20564 0.30222 0.08400
H 	H 	0.81638 0.20852 0.43208 0.04100
O 	O 	0.61762 0.10228 0.32186 -0.28900
H 	H 	0.59520 0.11138 0.35297 0.15900
C 	C 	0.49930 0.06102 0.21269 -0.03100
C 	C 	0.51268 0.01951 0.21252 -0.04800
C 	C 	0.51152 0.99310 0.27337 0.05400
C 	C 	0.49704 0.00788 0.33572 -0.16400
C 	C 	0.48147 0.04822 0.33576 0.20100
C 	C 	0.48354 0.07529 0.27444 -0.10700
H 	H 	0.52358 0.96215 0.27241 0.03100
H 	H 	0.47208 0.10669 0.27474 0.06400
H 	H 	0.52466 0.00804 0.16521 0.05500
O 	O 	0.46582 0.06232 0.39558 -0.29300
H 	H 	0.42498 0.03798 0.39832 0.14400
C 	C 	0.45992 0.00836 0.83747 -0.03100
C 	C 	0.45062 0.02351 0.77231 -0.04600
C 	C 	0.45654 0.99913 0.71329 0.03400
C 	C 	0.47380 0.96041 0.71788 -0.15300
C 	C 	0.48063 0.94302 0.78368 0.20000
C 	C 	0.47373 0.96724 0.84308 -0.08700
H 	H 	0.44911 0.01156 0.66370 0.02700
H 	H 	0.48066 0.95504 0.89313 0.07600
H 	H 	0.43884 0.05453 0.76745 0.04800
O 	O 	0.49614 0.90423 0.79007 -0.28800
H 	H 	0.46081 0.86901 0.79373 0.16200
C 	C 	0.68747 0.28080 0.06268 -0.02000
C 	C 	0.73430 0.32559 0.03354 -0.05300
C 	C 	0.78722 0.34206 0.05978 0.04100
C 	C 	0.79307 0.31576 0.11754 -0.16300
C 	C 	0.74846 0.26432 0.13566 0.20100
C 	C 	0.69512 0.24788 0.11034 -0.10900
H 	H 	0.82236 0.37972 0.04164 0.02400
H 	H 	0.65981 0.21060 0.12911 0.07600
H 	H 	0.72954 0.34956 0.99362 0.06000
O 	O 	0.75562 0.23316 0.18391 -0.28900
H 	H 	0.76509 0.20898 0.15748 0.15300
C 	C 	0.29429 0.95789 0.90896 -0.02700
C 	C 	0.25150 0.91556 0.94678 -0.04600
C 	C 	0.24323 0.86274 0.94249 0.02900
C 	C 	0.27632 0.85159 0.89825 -0.15100
C 	C 	0.31116 0.89201 0.85044 0.20500
C 	C 	0.31736 0.94421 0.85404 -0.10200
H 	H 	0.21323 0.83137 0.97611 0.02600
H 	H 	0.34426 0.97526 0.81807 0.07500
H 	H 	0.22953 0.92483 0.98559 0.04500
O 	O 	0.34159 0.88186 0.80340 -0.29400
H 	H 	0.32236 0.87706 0.75892 0.15400
C 	C 	0.08135 0.38350 0.21851 -0.02300
C 	C 	0.10145 0.42304 0.16651 -0.04300
C 	C 	0.15879 0.45940 0.16042 0.03700
C 	C 	0.19623 0.45367 0.20339 -0.14400
C 	C 	0.17629 0.40649 0.24430 0.19700
C 	C 	0.11891 0.37083 0.25030 -0.10100
H 	H 	0.17372 0.49305 0.12455 0.03900
H 	H 	0.10372 0.33692 0.28586 0.06800
H 	H 	0.07283 0.42745 0.13346 0.05400
O 	O 	0.21242 0.39649 0.28088 -0.30400
H 	H 	0.21968 0.37230 0.25116 0.12900
C 	C 	0.33252 0.54697 0.95175 -0.03300
C 	C 	0.37258 0.58416 0.90593 -0.04100
C 	C 	0.36502 0.62543 0.87755 0.03700
C 	C 	0.31468 0.62449 0.88861 -0.16000
C 	C 	0.26897 0.57635 0.91413 0.19900
C 	C 	0.27793 0.53643 0.94411 -0.09900
H 	H 	0.39946 0.66004 0.85267 0.03400
H 	H 	0.24445 0.50288 0.97176 0.07500
H 	H 	0.41334 0.58796 0.90390 0.04100
O 	O 	0.21667 0.56978 0.91336 -0.31300
H 	H 	0.19984 0.55069 0.86965 0.14100
C 	C 	0.51393 0.80619 0.30661 -0.05800
C 	C 	0.51856 0.76689 0.26814 -0.04400
C 	C 	0.47160 0.71595 0.25657 0.02300
C 	C 	0.41948 0.70505 0.28082 -0.19200
C 	C 	0.41337 0.74807 0.30669 0.19000
C 	C 	0.46072 0.79936 0.31718 -0.16200
H 	H 	0.47632 0.68415 0.23244 -0.01000
H 	H 	0.45644 0.83114 0.34243 0.04500
H 	H 	0.55926 0.77301 0.25548 0.04600
O 	O 	0.36220 0.73911 0.32689 -0.30900
H 	H 	0.34655 0.74740 0.28593 0.15500
C 	C 	0.38232 0.34064 0.09258 -0.02600
C 	C 	0.36797 0.29127 0.12567 -0.04500
C 	C 	0.40046 0.26682 0.11646 0.03100
C 	C 	0.44643 0.29044 0.07201 -0.14700
C 	C 	0.45448 0.33457 0.02981 0.20300
C 	C 	0.42090 0.35805 0.03889 -0.09900
H 	H 	0.39127 0.23093 0.14614 0.02700
H 	H 	0.42710 0.39164 0.00673 0.07700
H 	H 	0.33520 0.27490 0.16380 0.04400
O 	O 	0.49636 0.35628 0.98207 -0.28500
H 	H 	0.47823 0.34041 0.93753 0.15100
C 	C 	0.77773 0.45785 0.44559 -0.05100
C 	C 	0.72454 0.45125 0.45284 -0.05800
C 	C 	0.71854 0.49438 0.47801 -0.00500
C 	C 	0.76558 0.54281 0.49989 -0.17500
C 	C 	0.81836 0.55274 0.47939 0.20200
C 	C 	0.82449 0.50992 0.45344 -0.10900
H 	H 	0.67735 0.48730 0.48984 -0.00200
H 	H 	0.86569 0.51651 0.44279 0.06200
H 	H 	0.68798 0.41196 0.44331 0.03900
O 	O 	0.86448 0.60278 0.49080 -0.29100
H 	H 	0.87832 0.60030 0.53684 0.15200
C 	C 	0.95899 0.62998 0.77084 -0.01100
C 	C 	0.92478 0.64445 0.80740 -0.04800
C 	C 	0.86699 0.61173 0.80406 0.03600
C 	C 	0.84265 0.56470 0.76284 -0.15000
C 	C 	0.87715 0.55441 0.71908 0.20600
C 	C 	0.93498 0.58769 0.72269 -0.10400
H 	H 	0.84133 0.62186 0.83561 0.02900
H 	H 	0.96108 0.57756 0.69219 0.08500
H 	H 	0.94300 0.67834 0.84307 0.04700
O 	O 	0.85484 0.51027 0.67580 -0.28800
H 	H 	0.85172 0.52460 0.63061 0.14700
C 	C 	0.55359 0.49581 0.92663 -0.03200
C 	C 	0.50440 0.49802 0.92992 -0.05400
C 	C 	0.48233 0.50046 0.99311 0.03900
C 	C 	0.50793 0.49902 0.05481 -0.16000
C 	C 	0.55581 0.49399 0.05217 0.20100
C 	C 	0.57850 0.49228 0.98809 -0.09400
H 	H 	0.44480 0.50318 0.99418 0.02100
H 	H 	0.61611 0.48976 0.98641 0.07700
H 	H 	0.48374 0.49912 0.88331 0.04900
O 	O 	0.58065 0.49099 0.11154 -0.28300
H 	H 	0.60839 0.52927 0.12306 0.14400
C 	C 	0.53070 0.55285 0.55307 -0.03100
C 	C 	0.47275 0.51921 0.55371 -0.04200
C 	C 	0.44207 0.51136 0.49336 0.03000
C 	C 	0.46925 0.53697 0.43198 -0.15300
C 	C 	0.52683 0.57352 0.43263 0.20100
C 	C 	0.55721 0.58137 0.49295 -0.10000
H 	H 	0.39759 0.48368 0.49369 0.02500
H 	H 	0.60199 0.60709 0.49187 0.07000
H 	H 	0.45181 0.49700 0.59976 0.04600
O 	O 	0.55341 0.60219 0.37460 -0.29700
H 	H 	0.56724 0.58006 0.35147 0.15600
C 	C 	0.58339 0.33703 0.74547 -0.04000
C 	C 	0.53588 0.34168 0.75403 -0.05500
C 	C 	0.48664 0.29713 0.77763 0.03600
C 	C 	0.48588 0.24904 0.79688 -0.18500
C 	C 	0.52997 0.24129 0.77567 0.16700
C 	C 	0.57928 0.28584 0.75135 -0.11100
H 	H 	0.45169 0.30255 0.79007 0.02300
H 	H 	0.61513 0.28132 0.74131 0.06700
H 	H 	0.53802 0.38061 0.74636 0.03000
O 	O 	0.52797 0.19266 0.78813 -0.33500
H 	H 	0.51190 0.17071 0.74596 0.15800
C 	C 	0.66001 0.72665 0.63205 -0.02500
C 	C 	0.64472 0.72559 0.56329 -0.04200
C 	C 	0.61819 0.75426 0.54302 0.03500
C 	C 	0.60760 0.78493 0.59118 -0.15000
C 	C 	0.63107 0.79304 0.65718 0.20100
C 	C 	0.65790 0.76446 0.67703 -0.09900
H 	H 	0.60277 0.74989 0.49098 0.03500
H 	H 	0.67284 0.76823 0.72924 0.07100
H 	H 	0.64973 0.69965 0.52670 0.05400
O 	O 	0.62372 0.82496 0.70416 -0.28500
H 	H 	0.65664 0.86188 0.69885 0.14900
