data_crystal

_cell_length_a 17.14081
_cell_length_b 15.16519
_cell_length_c 37.58820
_cell_angle_alpha 89.88564
_cell_angle_beta  89.88808
_cell_angle_gamma 119.43316

_symmetry_space_group_name_	'P 1'
_symmetry_space_group_name_H-M	'P 1'

loop_
_symmetry_equiv_pos_as_xyz
  x,y,z

loop_
_atom_site_label
_atom_site_type_symbol
_atom_site_fract_x
_atom_site_fract_y
_atom_site_fract_z
_atom_site_charge
Ni	Ni	0.11919 0.97581 0.75163 1.12200
Ni	Ni	0.12114 0.18955 0.74137 1.12600
O 	O 	0.06152 0.05325 0.75613 -0.72400
H 	H 	0.06745 0.06683 0.78185 0.15900
H 	H 	0.03537 0.49907 0.32339 0.15500
C 	C 	0.09238 0.65576 0.49441 0.01200
C 	C 	0.05499 0.63901 0.52888 -0.09400
C 	C 	0.02678 0.44056 0.04455 0.05100
C 	C 	0.04120 0.36503 0.99023 -0.09700
H 	H 	0.05722 0.48467 0.06828 0.05800
F 	F 	0.04285 0.24889 0.94776 -0.43500
H 	H 	0.16672 0.91152 0.84758 0.16500
O 	O 	0.16432 0.15762 0.69585 -0.37400
C 	C 	0.03473 0.17148 0.21471 0.32100
C 	C 	0.01950 0.11708 0.31613 0.29400
C 	C 	0.02392 0.89323 0.19384 0.32700
C 	C 	0.03013 0.83271 0.29423 0.29900
Ni	Ni	0.06754 0.02574 0.25619 1.11900
O 	O 	0.06533 0.98809 0.20468 -0.36500
O 	O 	0.08406 0.16151 0.23940 -0.37200
O 	O 	0.08504 0.90909 0.27317 -0.35300
O 	O 	0.07309 0.08083 0.30613 -0.35300
C 	C 	0.07356 0.26543 0.19325 -0.09700
C 	C 	0.09127 0.35106 0.13663 -0.04600
C 	C 	0.04567 0.26459 0.15799 0.18200
H 	H 	0.07123 0.34853 0.10915 0.09500
C 	C 	0.02830 0.74016 0.11546 -0.07100
C 	C 	0.04273 0.86860 0.15775 -0.10500
C 	C 	0.01655 0.14422 0.35391 -0.10400
C 	C 	0.06994 0.78439 0.31671 -0.07300
C 	C 	0.02536 0.67857 0.32129 -0.04400
C 	C 	0.06809 0.63168 0.33859 0.19000
O 	O 	0.02225 0.52909 0.34442 -0.24100
H 	H 	0.07175 0.67965 0.43956 0.08600
C 	C 	0.08188 0.43437 0.01827 0.01100
O 	O 	0.06765 0.22407 0.78326 -0.36700
C 	C 	0.04498 0.24980 0.41796 -0.07700
C 	C 	0.11268 0.65739 0.56143 0.78400
F 	F 	0.07547 0.67868 0.59062 -0.42600
H 	H 	0.07851 0.35027 0.66863 0.16800
H 	H 	0.04904 0.30391 0.84581 0.10900
O 	O 	0.11535 0.84640 0.83978 -0.27200
O 	O 	0.09039 0.30642 0.65252 -0.25900
C 	C 	0.09648 0.33801 0.96581 0.78100
F 	F 	0.15835 0.32478 0.98533 -0.40300
O 	O 	0.19963 0.06170 0.79288 -0.37300
C 	C 	0.25045 0.16139 0.79155 0.31000
C 	C 	0.22687 0.13231 0.69529 0.33500
O 	O 	0.23767 0.21900 0.76761 -0.34100
O 	O 	0.22755 0.06804 0.71866 -0.35800
C 	C 	0.09709 0.35072 0.43414 0.32000
C 	C 	0.19493 0.64609 0.37551 0.33700
C 	C 	0.16510 0.63372 0.48719 0.31400
O 	O 	0.14760 0.53911 0.48787 -0.33900
O 	O 	0.12387 0.42795 0.41305 -0.36300
O 	O 	0.14240 0.36114 0.46358 -0.30800
O 	O 	0.20414 0.67131 0.40902 -0.38000
O 	O 	0.24601 0.70775 0.47979 -0.34200
C 	C 	0.16929 0.52479 0.01262 0.28600
C 	C 	0.16819 0.76993 0.08619 0.30500
O 	O 	0.17168 0.61283 0.00810 -0.33200
O 	O 	0.20388 0.79828 0.05354 -0.33600
O 	O 	0.19432 0.72229 0.10871 -0.37400
H 	H 	0.22443 0.62854 0.06871 0.15800
C 	C 	0.14279 0.35557 0.20748 -0.04900
C 	C 	0.18893 0.44176 0.18607 0.17000
C 	C 	0.16593 0.43836 0.14988 -0.08100
H 	H 	0.16238 0.35822 0.23503 0.07700
C 	C 	0.11122 0.80901 0.10042 -0.06200
C 	C 	0.11597 0.94158 0.13818 -0.01700
C 	C 	0.15048 0.91200 0.10966 0.16600
H 	H 	0.14991 0.02011 0.14641 0.07400
C 	C 	0.08782 0.19256 0.41175 -0.06900
C 	C 	0.07519 0.14125 0.37952 0.18900
O 	O 	0.12263 0.09208 0.37272 -0.27200
H 	H 	0.08418 0.02201 0.38158 0.17100
C 	C 	0.15607 0.69049 0.35132 -0.10100
C 	C 	0.20050 0.79570 0.34663 -0.04200
C 	C 	0.15747 0.84294 0.33022 0.17600
F 	F 	0.19755 0.73883 0.55592 -0.41500
F 	F 	0.11949 0.57199 0.56866 -0.44400
F 	F 	0.20301 0.23103 0.48636 -0.45200
H 	H 	0.24163 0.04888 0.63423 0.10800
F 	F 	0.14121 0.41495 0.94130 -0.42900
H 	H 	0.26547 0.15208 0.86264 0.09200
C 	C 	0.22644 0.51775 0.12458 0.30200
H 	H 	0.13853 0.19742 0.42973 0.13600
F 	F 	0.23864 0.12139 0.51016 -0.44200
H 	H 	0.06513 0.74263 0.89955 0.08700
O 	O 	0.24437 0.51986 0.01603 -0.30100
Ni	Ni	0.24205 0.49895 0.48186 1.13800
O 	O 	0.22785 0.59021 0.36301 -0.36500
Ni	Ni	0.28043 0.74674 0.02464 1.12200
O 	O 	0.23747 0.48833 0.09260 -0.35600
O 	O 	0.28122 0.61128 0.13648 -0.35500
O 	O 	0.28836 0.67585 0.06440 -0.71400
H 	H 	0.23286 0.56693 0.20994 0.15800
O 	O 	0.22545 0.98300 0.09220 -0.23900
O 	O 	0.20154 0.94643 0.32704 -0.26600
H 	H 	0.18839 0.97115 0.34942 0.17800
F 	F 	0.38362 0.83040 0.62430 -0.41300
C 	C 	0.27280 0.22167 0.50026 0.78200
F 	F 	0.30418 0.28150 0.53028 -0.44600
C 	C 	0.29856 0.17889 0.66888 -0.09500
C 	C 	0.29722 0.12432 0.63870 -0.03100
H 	H 	0.33651 0.13928 0.56573 0.21200
C 	C 	0.33388 0.20637 0.81229 -0.08000
C 	C 	0.32969 0.18824 0.84908 -0.03000
C 	C 	0.04104 0.65669 0.46559 0.05400
Ni	Ni	0.25385 0.49489 0.39538 1.11600
Ni	Ni	0.31551 0.70413 0.43698 1.12700
O 	O 	0.33320 0.61628 0.51277 -0.31900
O 	O 	0.27512 0.38070 0.41829 -0.34600
O 	O 	0.29105 0.56820 0.43790 -0.72100
Ni	Ni	0.31955 0.74277 0.10884 1.12800
Ni	Ni	0.33058 0.58192 0.05806 1.13400
O 	O 	0.25951 0.52701 0.20010 -0.25800
H 	H 	0.27653 0.99344 0.10738 0.17100
H 	H 	0.26763 0.84158 0.35699 0.07300
H 	H 	0.36683 0.74533 0.56716 0.12600
C 	C 	0.36773 0.16723 0.61418 0.20400
C 	C 	0.36708 0.27977 0.67293 0.18300
O 	O 	0.36421 0.11570 0.58378 -0.21400
H 	H 	0.33202 0.37196 0.69055 0.16700
H 	H 	0.33502 0.04104 0.03997 0.07800
F 	F 	0.32464 0.19944 0.03040 -0.41800
F 	F 	0.38271 0.45760 0.89594 -0.41300
H 	H 	0.41629 0.19765 0.74862 0.16500
H 	H 	0.39632 0.12841 0.90696 0.16800
O 	O 	0.04655 0.89332 0.70777 -0.35400
F 	F 	0.41651 0.97840 0.59850 -0.41700
H 	H 	0.37423 0.56338 0.94199 0.11500
C 	C 	0.32510 0.38990 0.44687 0.29300
O 	O 	0.32367 0.43907 0.47594 -0.30200
H 	H 	0.35238 0.57874 0.43976 0.17800
O 	O 	0.34963 0.71108 0.98654 -0.32300
C 	C 	0.45079 0.91638 0.60805 0.78400
C 	C 	0.34967 0.25255 0.47408 -0.09600
H 	H 	0.39481 0.15896 0.50011 0.08500
O 	O 	0.36398 0.33770 0.70029 -0.26400
F 	F 	0.38938 0.21090 0.97726 -0.41100
C 	C 	0.40797 0.21427 0.86836 0.18400
C 	C 	0.41716 0.24823 0.79471 0.18300
O 	O 	0.40286 0.19681 0.90429 -0.18600
O 	O 	0.42219 0.26123 0.75851 -0.25500
C 	C 	0.40753 0.70037 0.50225 0.30000
O 	O 	0.35835 0.88763 0.09305 -0.34900
C 	C 	0.43554 0.79476 0.55895 0.05100
C 	C 	0.40960 0.21577 0.47972 0.05500
C 	C 	0.37249 0.33093 0.44843 0.00900
C 	C 	0.40566 0.23268 0.01300 0.78900
F 	F 	0.47904 0.41936 0.92304 -0.42100
C 	C 	0.04464 0.83342 0.86059 0.17500
O 	O 	0.39170 0.73121 0.39165 -0.35800
O 	O 	0.41833 0.73570 0.46923 -0.33100
C 	C 	0.40631 0.93014 0.06435 0.33900
C 	C 	0.41954 0.70078 0.99411 0.31900
O 	O 	0.39910 0.87564 0.03643 -0.31700
F 	F 	0.51871 0.96592 0.63252 -0.43400
C 	C 	0.44305 0.26178 0.62129 -0.08300
C 	C 	0.44041 0.32009 0.64967 -0.04400
C 	C 	0.40686 0.08474 0.04351 0.06700
C 	C 	0.44579 0.61426 0.94385 0.05600
C 	C 	0.47160 0.49454 0.90508 0.77900
O 	O 	0.38428 0.57844 0.37788 -0.35500
O 	O 	0.43242 0.67898 0.02649 -0.32600
O 	O 	0.42184 0.61838 0.09746 -0.34900
C 	C 	0.48637 0.88992 0.57530 -0.08100
C 	C 	0.47025 0.76829 0.52950 0.02400
F 	F 	0.45572 0.33653 0.01730 -0.41700
C 	C 	0.49158 0.26177 0.85112 -0.06900
C 	C 	0.43090 0.67798 0.38137 0.31700
C 	C 	0.45500 0.18101 0.02782 -0.10100
C 	C 	0.45221 0.04047 0.06040 -0.01800
C 	C 	0.49545 0.27643 0.81416 -0.04400
O 	O 	0.44848 0.77977 0.10595 -0.32900
C 	C 	0.44969 0.36259 0.42747 0.05400
C 	C 	0.47763 0.70029 0.96540 0.01200
C 	C 	0.50607 0.58769 0.92826 -0.08400
F 	F 	0.52127 0.51872 0.87401 -0.44500
C 	C 	0.47391 0.71162 0.10864 0.33500
O 	O 	0.45832 0.62450 0.17706 -0.26300
C 	C 	0.49681 0.26895 0.46610 0.01100
H 	H 	0.46441 0.41788 0.40653 0.08800
H 	H 	0.49679 0.39466 0.65463 0.08400
O 	O 	0.02497 0.86952 0.78696 -0.34300
H 	H 	0.48407 0.82131 0.33038 0.08300
C 	C 	0.02755 0.78060 0.89284 -0.04900
C 	C 	0.52868 0.28930 0.60398 0.32900
H 	H 	0.45687 0.55933 0.17245 0.17500
H 	H 	0.01316 0.70385 0.68967 0.08900
C 	C 	0.51223 0.33096 0.43590 -0.09300
O 	O 	0.55745 0.22360 0.60422 -0.34000
C 	C 	0.56864 0.96128 0.55963 0.01200
F 	F 	0.54737 0.90829 0.98174 -0.42900
H 	H 	0.55969 0.31267 0.80063 0.07800
C 	C 	0.57388 0.31785 0.87196 0.32300
O 	O 	0.56259 0.31596 0.52382 -0.35500
C 	C 	0.51893 0.73053 0.36406 -0.08400
C 	C 	0.56217 0.82898 0.52112 -0.10000
C 	C 	0.54873 0.22516 0.02430 0.03400
C 	C 	0.53296 0.79743 0.33592 -0.04400
C 	C 	0.54598 0.09712 0.06423 -0.06300
C 	C 	0.57036 0.77042 0.96577 -0.09300
C 	C 	0.57043 0.29166 0.49119 0.30900
O 	O 	0.58113 0.38308 0.59330 -0.36500
C 	C 	0.54098 0.69790 0.16548 0.17200
F 	F 	0.56762 0.68787 0.49551 -0.44000
C 	C 	0.60259 0.07122 0.56322 0.31200
C 	C 	0.55251 0.73492 0.13039 -0.06900
F 	F 	0.54833 0.01622 0.11822 -0.44500
C 	C 	0.59848 0.64635 0.93593 0.01500
O 	O 	0.58640 0.26659 0.96280 -0.32700
O 	O 	0.60240 0.12195 0.53508 -0.35100
C 	C 	0.59733 0.29941 0.99612 0.30300
C 	C 	0.60887 0.92804 0.53444 0.06400
O 	O 	0.02483 0.19066 0.71110 -0.37600
O 	O 	0.61564 0.41779 0.86944 -0.30900
O 	O 	0.56895 0.63242 0.39797 -0.25400
H 	H 	0.58770 0.84731 0.26510 0.16500
F 	F 	0.58871 0.40198 0.38110 -0.42500
C 	C 	0.59400 0.18508 0.04370 0.05300
C 	C 	0.60622 0.87083 0.98472 0.78300
O 	O 	0.61506 0.26879 0.88460 -0.35600
C 	C 	0.60862 0.79254 0.49560 0.78300
C 	C 	0.59789 0.37020 0.41461 0.78500
C 	C 	0.59555 0.05865 0.08714 0.76400
C 	C 	0.58220 0.69862 0.37068 0.20100
F 	F 	0.60659 0.82650 0.46163 -0.44900
F 	F 	0.60580 0.98636 0.06868 -0.39300
H 	H 	0.60248 0.71461 0.21675 0.06900
C 	C 	0.63044 0.74104 0.95212 0.06000
C 	C 	0.60701 0.82868 0.31345 0.17700
O 	O 	0.65154 0.11950 0.59102 -0.32000
C 	C 	0.61242 0.74120 0.18944 -0.04000
F 	F 	0.61851 0.85772 0.02025 -0.40800
H 	H 	0.60000 0.67557 0.41875 0.23200
O 	O 	0.61881 0.89240 0.28548 -0.26600
O 	O 	0.63765 0.27742 0.48214 -0.29000
H 	H 	0.64416 0.42031 0.93159 0.20200
F 	F 	0.62035 0.29480 0.41039 -0.41800
H 	H 	0.01260 0.34623 0.59948 0.10600
C 	C 	0.65572 0.59905 0.93627 0.30000
C 	C 	0.63737 0.81010 0.11893 -0.04500
O 	O 	0.66339 0.55935 0.96680 -0.31500
H 	H 	0.64689 0.83825 0.09185 0.15300
C 	C 	0.00877 0.23950 0.63829 0.18100
O 	O 	0.66355 0.39059 0.00571 -0.29700
Ni	Ni	0.66736 0.41867 0.55208 1.13300
F 	F 	0.66610 0.45106 0.43221 -0.38400
C 	C 	0.65694 0.73092 0.34841 -0.04600
H 	H 	0.66557 0.21727 0.04049 0.12900
H 	H 	0.67421 0.98094 0.52367 0.07200
C 	C 	0.66970 0.79597 0.31983 -0.08500
Ni	Ni	0.68785 0.26599 0.60414 1.12900
Ni	Ni	0.69102 0.30323 0.93041 1.12800
F 	F 	0.67940 0.13670 0.09632 -0.41500
F 	F 	0.68749 0.94170 0.97020 -0.42800
F 	F 	0.69704 0.83000 0.50554 -0.43100
C 	C 	0.69594 0.81991 0.17842 -0.10000
H 	H 	0.70144 0.78759 0.95706 0.09200
O 	O 	0.70711 0.43601 0.93035 -0.72600
O 	O 	0.71229 0.61685 0.90925 -0.32600
O 	O 	0.71193 0.32718 0.55841 -0.71700
H 	H 	0.70563 0.70660 0.35373 0.11200
C 	C 	0.70897 0.85296 0.14285 0.20500
Ni	Ni	0.71642 0.25266 0.51924 1.12000
C 	C 	0.99395 0.76928 0.14420 0.20700
H 	H 	0.99475 0.66171 0.10715 0.13300
O 	O 	0.97907 0.81953 0.21676 -0.37100
O 	O 	0.97407 0.13776 0.29208 -0.35800
C 	C 	0.97143 0.23147 0.39652 0.17100
C 	C 	0.95844 0.18058 0.36413 -0.04100
O 	O 	0.94816 0.10864 0.21371 -0.36000
H 	H 	0.95820 0.63242 0.31106 0.10100
O 	O 	0.94153 0.78566 0.28975 -0.35500
O 	O 	0.92046 0.27569 0.40460 -0.24100
H 	H 	0.90645 0.17430 0.34626 0.08000
O 	O 	0.97790 0.17756 0.14360 -0.25300
C 	C 	0.96148 0.59233 0.53246 0.06100
H 	H 	0.93062 0.56395 0.55822 0.07100
O 	O 	0.94074 0.95419 0.26225 -0.71100
C 	C 	0.89612 0.66040 0.92754 0.32800
C 	C 	0.81715 0.37117 0.86960 0.33100
C 	C 	0.83380 0.38103 0.98544 0.30800
Ni	Ni	0.74374 0.50953 0.88773 1.12100
Ni	Ni	0.75097 0.50778 0.97403 1.13800
O 	O 	0.84932 0.47390 0.98005 -0.33400
O 	O 	0.87350 0.58530 0.90580 -0.37200
O 	O 	0.84584 0.64736 0.95566 -0.33700
O 	O 	0.77662 0.41850 0.85672 -0.36700
O 	O 	0.80534 0.34139 0.90289 -0.37200
O 	O 	0.75940 0.30231 0.97422 -0.34800
C 	C 	0.82136 0.47398 0.50246 0.29800
C 	C 	0.83843 0.24096 0.57915 0.31600
C 	C 	0.77431 0.49305 0.61722 0.31200
O 	O 	0.82115 0.38670 0.49943 -0.31900
O 	O 	0.74582 0.47665 0.50763 -0.29100
O 	O 	0.76435 0.51616 0.58411 -0.36300
O 	O 	0.72507 0.39936 0.63032 -0.36900
O 	O 	0.80065 0.20986 0.54703 -0.34400
O 	O 	0.81449 0.29155 0.60121 -0.37000
H 	H 	0.77607 0.37633 0.56093 0.16200
C 	C 	0.95901 0.83774 0.70895 0.32800
C 	C 	0.98287 0.89424 0.81138 0.29700
C 	C 	0.97612 0.11679 0.68897 0.32400
C 	C 	0.97964 0.18671 0.78707 0.30600
Ni	Ni	0.93437 0.98594 0.75195 1.13000
O 	O 	0.93233 0.02259 0.70056 -0.37100
O 	O 	0.91379 0.84871 0.73516 -0.36800
O 	O 	0.92000 0.10388 0.76986 -0.35700
O 	O 	0.92980 0.93126 0.80175 -0.35700
C 	C 	0.75384 0.84109 0.29977 0.31300
C 	C 	0.76922 0.86707 0.20407 0.32900
Ni	Ni	0.87918 0.02736 0.25854 1.11300
Ni	Ni	0.88343 0.81708 0.24853 1.12600
O 	O 	0.80467 0.94071 0.30106 -0.35100
O 	O 	0.76824 0.78329 0.27662 -0.36000
O 	O 	0.76892 0.93081 0.22762 -0.35300
O 	O 	0.83281 0.84306 0.20366 -0.36400
H 	H 	0.93744 0.94162 0.28804 0.16500
H 	H 	0.92269 0.18210 0.14738 0.18300
O 	O 	0.79141 0.92743 0.13146 -0.24900
H 	H 	0.79087 0.99189 0.13512 0.19800
O 	O 	0.91242 0.70139 0.15853 -0.25700
H 	H 	0.92500 0.65933 0.17529 0.17200
H 	H 	0.87002 0.22474 0.41915 0.17600
C 	C 	0.90754 0.56837 0.50207 0.01100
C 	C 	0.94780 0.61395 0.46932 -0.08000
C 	C 	0.89119 0.60795 0.43764 0.78400
F 	F 	0.94165 0.67990 0.41220 -0.43400
F 	F 	0.82266 0.62534 0.44832 -0.38600
F 	F 	0.85523 0.51294 0.42248 -0.39500
C 	C 	0.89391 0.20050 0.59374 -0.08700
C 	C 	0.97693 0.26838 0.60867 -0.04500
C 	C 	0.95734 0.14130 0.65280 -0.08400
C 	C 	0.88321 0.06880 0.63366 -0.05700
C 	C 	0.85263 0.09785 0.60374 0.19000
H 	H 	0.84658 0.99109 0.64288 0.10600
O 	O 	0.77690 0.02775 0.58667 -0.27300
H 	H 	0.79858 0.99989 0.56762 0.19800
C 	C 	0.81961 0.57718 0.64234 -0.08300
C 	C 	0.78354 0.64096 0.64886 -0.04800
C 	C 	0.82957 0.72709 0.67003 0.18300
C 	C 	0.91294 0.75055 0.68482 -0.09400
C 	C 	0.94930 0.68680 0.67820 -0.03200
C 	C 	0.90256 0.59989 0.65722 0.17800
H 	H 	0.72007 0.62434 0.63709 0.08500
O 	O 	0.79493 0.79078 0.67491 -0.26900
O 	O 	0.93972 0.53965 0.65019 -0.23400
H 	H 	0.91765 0.48801 0.66941 0.15200
H 	H 	0.75487 0.76358 0.69593 0.16400
C 	C 	0.95004 0.32993 0.98302 0.05900
C 	C 	0.90235 0.36533 0.00329 0.01700
C 	C 	0.93721 0.41070 0.03669 -0.09000
H 	H 	0.91890 0.28353 0.95988 0.07700
C 	C 	0.88486 0.44125 0.06147 0.78400
F 	F 	0.79419 0.37407 0.05950 -0.43500
F 	F 	0.90042 0.53694 0.05237 -0.45800
F 	F 	0.91112 0.44268 0.09637 -0.44500
C 	C 	0.86769 0.34051 0.84554 -0.10100
C 	C 	0.83039 0.29518 0.81289 -0.04700
C 	C 	0.87060 0.25151 0.79235 0.17100
C 	C 	0.94667 0.24863 0.80528 -0.08300
C 	C 	0.98812 0.30126 0.83650 -0.05200
C 	C 	0.94971 0.34865 0.85632 0.18900
H 	H 	0.76896 0.29163 0.80377 0.07600
O 	O 	0.83468 0.21028 0.75993 -0.26300
O 	O 	0.99440 0.40674 0.88512 -0.24900
H 	H 	0.97692 0.35858 0.90528 0.19600
H 	H 	0.86627 0.26596 0.74247 0.15700
C 	C 	0.95265 0.76289 0.91326 -0.09700
C 	C 	0.98666 0.86929 0.84927 -0.08900
C 	C 	0.92721 0.87338 0.87414 -0.05400
C 	C 	0.91346 0.82400 0.90695 0.18600
H 	H 	0.88900 0.91066 0.86756 0.09400
O 	O 	0.85437 0.82639 0.93097 -0.26500
H 	H 	0.89127 0.88435 0.94679 0.19600
