data_crystal

_cell_length_a 18.57618
_cell_length_b 16.30683
_cell_length_c 49.16556
_cell_angle_alpha 89.63541
_cell_angle_beta  89.64064
_cell_angle_gamma 119.44116

_symmetry_space_group_name_	'P 1'
_symmetry_space_group_name_H-M	'P 1'

loop_
_symmetry_equiv_pos_as_xyz
  x,y,z

loop_
_atom_site_label
_atom_site_type_symbol
_atom_site_fract_x
_atom_site_fract_y
_atom_site_fract_z
_atom_site_charge
C 	C 	0.02696 0.16815 0.67325 0.30200
C 	C 	0.01975 0.24267 0.74945 0.22000
O 	O 	0.03390 0.83083 0.20677 -0.37600
C 	C 	0.06600 0.19308 0.62373 0.17100
O 	O 	0.04118 0.07818 0.73387 -0.73100
H 	H 	0.03755 0.09603 0.75263 0.16000
O 	O 	0.09283 0.92177 0.26014 -0.35400
O 	O 	0.07933 0.02775 0.21562 -0.72100
H 	H 	0.09128 0.06748 0.23182 0.14900
H 	H 	0.03377 0.08488 0.04533 0.09100
Br	Br	0.99763 0.21185 0.01134 -0.05000
Br	Br	0.03746 0.87453 0.11983 -0.16700
Br	Br	0.08972 0.25765 0.31685 -0.17000
C 	C 	0.02475 0.64868 0.44917 0.02800
H 	H 	0.06922 0.71966 0.45480 0.14400
Ni	Ni	0.05576 0.97423 0.74168 1.11300
O 	O 	0.12510 0.21814 0.20935 -0.35500
C 	C 	0.07140 0.59107 0.20540 0.09400
C 	C 	0.07077 0.67304 0.21330 0.00000
H 	H 	0.01158 0.39589 0.11076 0.07600
Br	Br	0.07918 0.38185 0.55347 -0.17700
C 	C 	0.97968 0.47515 0.01605 0.05300
C 	C 	0.00344 0.45419 0.96555 0.72200
O 	O 	0.08448 0.22890 0.68961 -0.36100
C 	C 	0.10795 0.83973 0.20514 0.33500
C 	C 	0.04078 0.46048 0.15011 0.04600
Br	Br	0.16542 0.18829 0.63022 -0.18300
O 	O 	0.09857 0.26618 0.74608 -0.35100
C 	C 	0.16104 0.00112 0.26700 0.30700
O 	O 	0.11884 0.12377 0.16113 -0.35300
C 	C 	0.08853 0.12565 0.03287 -0.06000
C 	C 	0.11646 0.99547 0.10517 0.13400
H 	H 	0.08452 0.95160 0.06366 0.10800
C 	C 	0.11615 0.75716 0.19836 -0.08500
C 	C 	0.05604 0.42125 0.12709 0.00100
H 	H 	0.19433 0.39541 0.22591 0.07900
C 	C 	0.04692 0.60264 0.42961 -0.02200
F 	F 	0.03186 0.39015 0.96581 -0.43000
O 	O 	0.12011 0.04691 0.77598 -0.33800
C 	C 	0.09190 0.19441 0.01487 0.12000
C 	C 	0.12394 0.00906 0.07686 -0.05200
C 	C 	0.11589 0.59262 0.18199 0.01500
C 	C 	0.10343 0.50484 0.16954 0.04000
Br	Br	0.19528 0.83412 0.28356 -0.17100
F 	F 	0.06987 0.54488 0.96553 -0.41800
C 	C 	0.01877 0.19815 0.64554 -0.13600
Ni	Ni	0.13303 0.19282 0.72150 1.12300
C 	C 	0.06886 0.51466 0.02215 0.27700
C 	C 	0.14342 0.06648 0.15154 0.32100
H 	H 	0.12814 0.37934 0.36556 0.13700
Br	Br	0.19877 0.49771 0.27614 -0.15500
C 	C 	0.19398 0.00884 0.29471 -0.07500
Br	Br	0.16628 0.00767 0.39830 -0.10300
C 	C 	0.20131 0.23608 0.21430 0.30600
Ni	Ni	0.18764 0.04708 0.20830 1.13200
O 	O 	0.17316 0.91689 0.21331 -0.35400
O 	O 	0.20966 0.06388 0.24841 -0.35700
C 	C 	0.16365 0.07157 0.12243 -0.07000
C 	C 	0.22612 0.37571 0.24077 -0.00300
C 	C 	0.21466 0.94176 0.30468 0.14800
H 	H 	0.19831 0.14133 0.30253 0.07100
O 	O 	0.16526 0.01896 0.16805 -0.34200
O 	O 	0.17334 0.02084 0.72541 -0.34700
O 	O 	0.16987 0.12532 0.69509 -0.36200
O 	O 	0.10657 0.58874 0.03800 -0.33000
C 	C 	0.16652 0.76027 0.17640 0.15300
C 	C 	0.16605 0.67816 0.16835 -0.07500
C 	C 	0.13454 0.43032 0.12314 -0.10000
C 	C 	0.18949 0.36016 0.33083 0.11200
C 	C 	0.23342 0.40760 0.26745 0.08600
C 	C 	0.21425 0.08974 0.31000 -0.00900
Ni	Ni	0.03777 0.08994 0.19398 1.11200
C 	C 	0.17797 0.13746 0.77502 0.30800
C 	C 	0.13559 0.63336 0.42596 0.33600
O 	O 	0.14030 0.48801 0.07754 -0.37800
O 	O 	0.11000 0.47724 0.01100 -0.31000
C 	C 	0.16070 0.12058 0.03767 0.03300
C 	C 	0.17636 0.09885 0.06567 0.02600
C 	C 	0.16973 0.48657 0.16930 -0.09400
F 	F 	0.04117 0.53440 0.37496 -0.41900
O 	O 	0.17084 0.65900 0.40204 -0.31600
C 	C 	0.20152 0.07312 0.70336 0.33200
C 	C 	0.18703 0.40074 0.35563 -0.00100
C 	C 	0.25100 0.30967 0.23409 -0.08300
F 	F 	0.05135 0.43131 0.40338 -0.43700
Br	Br	0.17956 0.97401 0.64615 -0.17100
H 	H 	0.18873 0.29205 0.79891 0.07400
O 	O 	0.20576 0.18355 0.75140 -0.36100
C 	C 	0.17224 0.45591 0.09559 0.32200
O 	O 	0.23223 0.18803 0.20194 -0.34000
C 	C 	0.16926 0.26255 0.00449 -0.06000
C 	C 	0.22334 0.15758 0.11126 -0.01200
C 	C 	0.18499 0.44778 0.14615 0.14800
C 	C 	0.25408 0.95568 0.32977 -0.07600
Br	Br	0.14032 0.05695 0.89444 -0.13700
Br	Br	0.19228 0.35910 0.85500 -0.17100
C 	C 	0.22944 0.17244 0.08316 0.10500
H 	H 	0.20213 0.67990 0.15071 0.08200
H 	H 	0.21387 0.51137 0.18572 0.09400
C 	C 	0.26676 0.37383 0.28740 0.02800
C 	C 	0.25670 0.10532 0.33462 0.09000
H 	H 	0.26940 0.90367 0.33740 0.08100
C 	C 	0.22178 0.18246 0.80021 -0.08100
C 	C 	0.21291 0.25608 0.81129 -0.00800
C 	C 	0.27608 0.03756 0.34471 0.02800
Br	Br	0.00973 0.14386 0.80695 -0.22800
C 	C 	0.00190 0.25447 0.79944 0.05700
O 	O 	0.17823 0.63574 0.44694 -0.31500
C 	C 	0.19726 0.36020 0.01214 0.32000
O 	O 	0.20268 0.37980 0.03795 -0.35500
H 	H 	0.26201 0.21511 0.12457 0.09600
Br	Br	0.23381 0.87471 0.15635 -0.18000
C 	C 	0.26492 0.39581 0.31635 0.02500
C 	C 	0.22661 0.27649 0.83904 0.08800
C 	C 	0.22591 0.16358 0.01855 0.10800
C 	C 	0.30265 0.29608 0.25227 0.14400
C 	C 	0.27707 0.02813 0.39573 0.09800
Br	Br	0.28968 0.22043 0.35379 -0.14200
F 	F 	0.17392 0.78563 0.97007 -0.39500
O 	O 	0.22137 0.52041 0.40890 -0.26000
Ni	Ni	0.20766 0.61762 0.06046 1.12500
C 	C 	0.25972 0.47481 0.36623 -0.02600
C 	C 	0.30698 0.32420 0.27929 -0.08300
F 	F 	0.17553 0.83997 0.01226 -0.42400
C 	C 	0.25443 0.54468 0.38359 0.30600
O 	O 	0.27898 0.62971 0.37276 -0.33800
C 	C 	0.23017 0.23580 0.00170 -0.01800
Br	Br	0.26962 0.41276 0.14718 -0.17900
H 	H 	0.27766 0.98840 0.43749 0.11600
C 	C 	0.27880 0.08716 0.69104 -0.09400
C 	C 	0.26062 0.14243 0.81555 0.15200
O 	O 	0.24532 0.46463 0.09108 -0.33600
C 	C 	0.28029 0.05635 0.66453 0.16300
C 	C 	0.99579 0.28090 0.77255 0.01700
O 	O 	0.22679 0.42845 0.99386 -0.32000
C 	C 	0.32052 0.05180 0.37069 0.02700
F 	F 	0.19607 0.93247 0.97593 -0.43200
C 	C 	0.25938 0.23085 0.85509 0.02600
Br	Br	0.28921 0.05521 0.79944 -0.17300
Ni	Ni	0.29497 0.74096 0.39469 1.12800
Ni	Ni	0.22973 0.55390 0.00064 1.14400
Br	Br	0.30695 0.29598 0.06963 -0.21200
H 	H 	0.34236 0.30868 0.29383 0.09600
F 	F 	0.19033 0.86962 0.50536 -0.40700
C 	C 	0.21123 0.86365 0.98658 0.77800
C 	C 	0.23594 0.17367 0.90370 0.08900
C 	C 	0.31249 0.01079 0.41861 -0.00800
F 	F 	0.21380 0.83465 0.46335 -0.45800
C 	C 	0.28078 0.16817 0.84273 -0.07300
O 	O 	0.22918 0.67833 0.99858 -0.27800
O 	O 	0.26595 0.57603 0.03761 -0.71500
C 	C 	0.33844 0.45946 0.32890 -0.06500
F 	F 	0.19039 0.73414 0.49817 -0.42200
C 	C 	0.27271 0.24874 0.88470 0.03000
H 	H 	0.24871 0.12322 0.94304 0.10100
O 	O 	0.30662 0.83566 0.42199 -0.34800
O 	O 	0.26682 0.74398 0.04142 -0.33100
H 	H 	0.28682 0.28110 0.99065 0.08500
C 	C 	0.27070 0.18387 0.92957 -0.00600
Ni	Ni	0.30298 0.49801 0.05299 1.12700
O 	O 	0.29662 0.65659 0.09023 -0.36100
C 	C 	0.33634 0.49758 0.35398 0.15300
Br	Br	0.37834 0.25620 0.23960 -0.17500
C 	C 	0.22730 0.82812 0.49057 0.79000
C 	C 	0.35614 0.08282 0.65173 -0.07900
C 	C 	0.35238 0.13371 0.70574 -0.00200
H 	H 	0.35748 0.06433 0.63067 0.11700
H 	H 	0.31075 0.13725 0.85449 0.09500
Ni	Ni	0.27044 0.60044 0.44510 1.13100
C 	C 	0.27498 0.75119 0.01447 0.28900
Br	Br	0.31386 0.13427 0.01812 -0.14300
H 	H 	0.35093 0.15337 0.72668 0.08200
C 	C 	0.33249 0.33781 0.89376 -0.07200
O 	O 	0.40196 0.83484 0.37538 -0.38100
O 	O 	0.34335 0.69760 0.42182 -0.71400
H 	H 	0.31837 0.63557 0.03562 0.16200
H 	H 	0.39714 0.48288 0.31855 0.09700
C 	C 	0.38358 0.00208 0.41535 -0.08100
C 	C 	0.40311 0.07124 0.37026 -0.07700
F 	F 	0.29383 0.41631 0.41724 -0.45500
C 	C 	0.30324 0.89727 0.98822 -0.07200
H 	H 	0.35764 0.39807 0.88006 0.10100
C 	C 	0.37804 0.91275 0.42474 0.30600
O 	O 	0.30109 0.67479 0.48178 -0.28200
H 	H 	0.36317 0.66311 0.41067 0.16200
H 	H 	0.36197 0.66410 0.14248 0.07500
F 	F 	0.27804 0.37195 0.46145 -0.43200
C 	C 	0.34168 0.26842 0.93632 -0.09300
C 	C 	0.36129 0.34823 0.92043 0.15000
C 	C 	0.37400 0.67155 0.08731 0.31000
H 	H 	0.44030 0.09868 0.35192 0.09800
C 	C 	0.33248 0.84307 0.00196 0.01800
H 	H 	0.33919 0.02540 0.96525 0.09900
O 	O 	0.37472 0.51934 0.01779 -0.33600
O 	O 	0.35047 0.61630 0.98947 -0.29100
H 	H 	0.44185 0.84366 0.32202 0.07600
F 	F 	0.28201 0.27841 0.42889 -0.42200
C 	C 	0.43052 0.13694 0.66562 0.03500
H 	H 	0.07583 0.18552 0.58016 0.11800
C 	C 	0.42805 0.15742 0.69326 0.08200
C 	C 	0.43590 0.05016 0.39317 0.14400
C 	C 	0.31895 0.87837 0.49583 -0.11200
H 	H 	0.33923 0.01865 0.48704 0.07900
C 	C 	0.31424 0.37114 0.43687 0.79100
F 	F 	0.98273 0.74485 0.48591 -0.37000
C 	C 	0.04101 0.19290 0.59681 -0.12900
O 	O 	0.35592 0.55617 0.45346 -0.28600
O 	O 	0.39179 0.61782 0.07165 -0.34600
C 	C 	0.36064 0.98349 0.97605 0.03900
C 	C 	0.36298 0.76137 0.48361 0.28400
Br	Br	0.43871 0.58667 0.37000 -0.18300
C 	C 	0.36305 0.97750 0.49696 0.06200
C 	C 	0.35961 0.82795 0.50327 0.02800
O 	O 	0.44664 0.90794 0.42934 -0.34100
Br	Br	0.41859 0.46946 0.93586 -0.16100
H 	H 	0.95765 0.36124 0.74726 0.09700
C 	C 	0.47338 0.83523 0.37501 0.33200
C 	C 	0.40265 0.59628 0.00224 0.27100
C 	C 	0.42409 0.70954 0.13475 -0.00100
C 	C 	0.40718 0.41802 0.43983 -0.09900
H 	H 	0.94964 0.49862 0.05663 0.10800
H 	H 	0.40388 0.28767 0.45103 0.08300
C 	C 	0.95174 0.21253 0.64000 0.05100
C 	C 	0.96255 0.34052 0.76785 -0.04300
C 	C 	0.40939 0.26222 0.94987 0.32000
C 	C 	0.42778 0.58650 0.44085 0.27700
Ni	Ni	0.45248 0.78551 0.43278 1.13100
C 	C 	0.43728 0.73209 0.10685 -0.07900
O 	O 	0.43457 0.78197 0.47313 -0.34900
O 	O 	0.49439 0.79680 0.39471 -0.35300
C 	C 	0.50728 0.88247 0.32649 -0.00300
F 	F 	0.96132 0.44342 0.94152 -0.39000
C 	C 	0.98261 0.29514 0.82104 -0.00000
C 	C 	0.00220 0.46887 0.39559 0.71400
C 	C 	0.98568 0.51415 0.41991 -0.00500
F 	F 	0.92933 0.39719 0.38526 -0.38300
H 	H 	0.98893 0.27589 0.84168 0.10600
H 	H 	0.03447 0.67121 0.23087 0.08000
C 	C 	0.94740 0.43718 0.99011 -0.03900
Br	Br	0.01147 0.47798 0.22673 -0.16400
C 	C 	0.72655 0.32124 0.90462 0.32300
C 	C 	0.59413 0.42468 0.89248 0.32700
C 	C 	0.50234 0.11864 0.97231 0.30200
C 	C 	0.62188 0.53147 0.97302 0.31000
C 	C 	0.73688 0.40029 0.99480 0.29100
Ni	Ni	0.54398 0.24427 0.92325 1.12200
Ni	Ni	0.55901 0.32728 0.98438 1.13500
Ni	Ni	0.69857 0.44714 0.94001 1.13500
O 	O 	0.64645 0.26278 0.90014 -0.33600
O 	O 	0.75271 0.37339 0.92675 -0.33800
O 	O 	0.60746 0.46642 0.99162 -0.30400
O 	O 	0.42936 0.20134 0.94065 -0.37000
O 	O 	0.45794 0.32677 0.96737 -0.34800
O 	O 	0.75022 0.46893 0.97736 -0.30900
O 	O 	0.53104 0.34267 0.89948 -0.36100
O 	O 	0.66878 0.44816 0.90054 -0.35700
O 	O 	0.66049 0.33696 0.00281 -0.27500
O 	O 	0.54102 0.13992 0.94835 -0.30400
O 	O 	0.49588 0.18271 0.98742 -0.31600
O 	O 	0.64437 0.52425 0.94820 -0.36100
O 	O 	0.60820 0.32865 0.95019 -0.72500
H 	H 	0.63892 0.29657 0.95581 0.17300
C 	C 	0.78512 0.23246 0.51537 0.32000
C 	C 	0.56308 0.36024 0.46541 0.31400
C 	C 	0.82313 0.44478 0.47483 0.32800
C 	C 	0.50113 0.11992 0.50319 0.28700
C 	C 	0.69139 0.51311 0.53583 0.34600
C 	C 	0.62831 0.29464 0.57601 0.32500
Ni	Ni	0.66314 0.26411 0.47835 1.12600
Ni	Ni	0.56419 0.31799 0.52376 1.13100
Ni	Ni	0.75552 0.38710 0.53090 1.13400
O 	O 	0.75719 0.23195 0.49012 -0.32100
O 	O 	0.77020 0.27411 0.53592 -0.34100
O 	O 	0.61726 0.44448 0.54261 -0.34400
O 	O 	0.57340 0.28779 0.45945 -0.31900
O 	O 	0.57629 0.39425 0.48993 -0.33700
O 	O 	0.70063 0.36774 0.56833 -0.35200
O 	O 	0.75003 0.39656 0.46400 -0.29900
O 	O 	0.83688 0.42248 0.49918 -0.33300
O 	O 	0.56298 0.25962 0.55985 -0.33100
O 	O 	0.56605 0.13170 0.48861 -0.31600
O 	O 	0.48472 0.19045 0.50632 -0.33900
O 	O 	0.73843 0.49421 0.52044 -0.32200
O 	O 	0.65584 0.30177 0.51377 -0.72200
H 	H 	0.64084 0.24313 0.52384 0.20100
C 	C 	0.93214 0.89275 0.69744 0.36900
C 	C 	0.89164 0.93315 0.77060 0.31500
Ni	Ni	0.93691 0.05788 0.72196 1.13700
O 	O 	0.96751 0.08710 0.68251 -0.35600
O 	O 	0.00477 0.90716 0.70531 -0.38500
O 	O 	0.89008 0.92099 0.71232 -0.36300
O 	O 	0.96336 0.19089 0.73124 -0.32200
O 	O 	0.94000 0.89983 0.76145 -0.32600
O 	O 	0.89329 0.00908 0.75986 -0.32800
O 	O 	0.48116 0.67913 0.43845 -0.32000
C 	C 	0.92173 0.01460 0.24479 0.30500
C 	C 	0.89049 0.90465 0.18814 0.31900
Ni	Ni	0.00710 0.90863 0.23191 1.11400
O 	O 	0.94954 0.07477 0.22374 -0.32200
O 	O 	0.96554 0.97826 0.25520 -0.33000
O 	O 	0.95439 0.96884 0.17476 -0.32700
O 	O 	0.90021 0.86411 0.21005 -0.32700
C 	C 	0.80630 0.87467 0.17812 -0.08000
C 	C 	0.78036 0.94129 0.17246 0.15000
C 	C 	0.69911 0.91071 0.16444 -0.07700
C 	C 	0.64570 0.81563 0.15886 0.03500
C 	C 	0.67151 0.74896 0.16425 0.09300
C 	C 	0.75048 0.77847 0.17472 0.00500
H 	H 	0.67971 0.96222 0.16019 0.10300
C 	C 	0.57277 0.79087 0.14172 0.03100
H 	H 	0.76960 0.72683 0.17910 0.09900
C 	C 	0.58512 0.82107 0.11454 -0.06700
C 	C 	0.51789 0.79414 0.09737 0.15100
C 	C 	0.49159 0.73979 0.15231 0.09300
H 	H 	0.64734 0.86452 0.10662 0.11400
Br	Br	0.60225 0.61846 0.15568 -0.11300
Br	Br	0.85586 0.07440 0.17282 -0.20100
Br	Br	0.53757 0.83998 0.06068 -0.11900
Br	Br	0.47176 0.71069 0.19044 -0.16200
Br	Br	0.94065 0.46717 0.15238 -0.06300
C 	C 	0.84734 0.00088 0.25954 -0.07400
C 	C 	0.78697 0.91055 0.26887 0.14900
C 	C 	0.71798 0.89987 0.28325 -0.07200
C 	C 	0.70948 0.97827 0.28948 0.02800
C 	C 	0.76734 0.06762 0.27922 0.09300
C 	C 	0.83568 0.07852 0.26416 -0.00100
H 	H 	0.67295 0.83087 0.29098 0.10100
C 	C 	0.64981 0.96837 0.31076 0.03600
H 	H 	0.88085 0.14779 0.25667 0.10000
C 	C 	0.67625 0.98417 0.33776 -0.07500
C 	C 	0.61945 0.94334 0.35911 0.16300
C 	C 	0.53418 0.88846 0.35340 -0.08800
C 	C 	0.56476 0.92201 0.30518 0.08500
H 	H 	0.74180 0.02251 0.34208 0.11500
Br	Br	0.75442 0.17551 0.28591 -0.11700
Br	Br	0.79768 0.80066 0.26308 -0.18000
Br	Br	0.66068 0.96358 0.39569 -0.15100
Br	Br	0.52639 0.90849 0.26847 -0.15900
Br	Br	0.55218 0.09637 0.39520 -0.16300
C 	C 	0.43813 0.02264 0.51097 0.01800
C 	C 	0.46074 0.96713 0.52719 -0.09600
C 	C 	0.42353 0.86962 0.52226 0.06200
H 	H 	0.44941 0.82869 0.53097 0.09900
C 	C 	0.51673 0.00976 0.55130 0.78600
F 	F 	0.48521 0.05388 0.56750 -0.44800
F 	F 	0.59529 0.07509 0.54258 -0.46100
F 	F 	0.52206 0.94199 0.56690 -0.43100
C 	C 	0.91045 0.46483 0.43433 0.05200
C 	C 	0.89410 0.50508 0.45700 0.02100
C 	C 	0.94918 0.60027 0.46343 -0.02700
H 	H 	0.86644 0.39311 0.42887 0.10300
C 	C 	0.93055 0.64832 0.48659 0.77400
F 	F 	0.94059 0.61378 0.51118 -0.42200
F 	F 	0.85047 0.63216 0.48484 -0.38700
C 	C 	0.54492 0.55261 0.43306 0.05500
C 	C 	0.45971 0.51792 0.43720 0.03300
C 	C 	0.44291 0.36073 0.44501 0.06200
C 	C 	0.52869 0.39926 0.44543 0.00800
C 	C 	0.57878 0.49212 0.43545 -0.08000
C 	C 	0.66999 0.52995 0.43022 0.77900
H 	H 	0.58527 0.62680 0.42875 0.10600
F 	F 	0.71230 0.56307 0.45424 -0.39300
F 	F 	0.70008 0.60279 0.41129 -0.40500
F 	F 	0.68398 0.45982 0.42022 -0.41800
C 	C 	0.97071 0.20112 0.59139 0.09000
C 	C 	0.92792 0.21473 0.61313 0.06200
C 	C 	0.94094 0.19373 0.56304 0.01000
H 	H 	0.91598 0.21825 0.65665 0.06600
C 	C 	0.86861 0.11245 0.55511 -0.04900
C 	C 	0.82288 0.11673 0.53305 0.15100
C 	C 	0.84761 0.20345 0.51986 -0.06000
C 	C 	0.92954 0.27563 0.52322 -0.01500
C 	C 	0.97508 0.27311 0.54558 0.13200
H 	H 	0.84468 0.04857 0.56727 0.10300
H 	H 	0.95264 0.33992 0.51128 0.10300
Br	Br	0.83637 0.23579 0.60656 -0.16500
Br	Br	0.72265 0.00669 0.52305 -0.10400
C 	C 	0.61334 0.27024 0.60499 -0.07100
C 	C 	0.59465 0.32562 0.62237 0.15300
C 	C 	0.54154 0.28359 0.64458 -0.07300
C 	C 	0.50839 0.18704 0.64987 0.02800
C 	C 	0.53986 0.13664 0.63563 0.10100
C 	C 	0.59322 0.17903 0.61338 0.00800
H 	H 	0.52093 0.32420 0.65642 0.09600
H 	H 	0.61334 0.13848 0.60131 0.12400
Br	Br	0.50744 0.00901 0.64545 -0.12000
Br	Br	0.63480 0.45648 0.61469 -0.19700
Br	Br	0.52752 0.21859 0.71410 -0.16200
C 	C 	0.73225 0.59496 0.55361 -0.07300
C 	C 	0.69221 0.64462 0.56222 0.16600
C 	C 	0.72634 0.70997 0.58321 -0.07200
C 	C 	0.80019 0.72612 0.59545 0.03600
C 	C 	0.84321 0.68190 0.58524 0.09700
C 	C 	0.80978 0.61790 0.56422 0.01900
H 	H 	0.69405 0.74562 0.59066 0.10200
C 	C 	0.82502 0.77628 0.62130 0.02900
H 	H 	0.84157 0.58097 0.55738 0.09000
C 	C 	0.78852 0.72647 0.64543 -0.08100
C 	C 	0.82555 0.76197 0.67040 0.16200
C 	C 	0.89915 0.84886 0.67137 -0.09900
C 	C 	0.93374 0.90062 0.64736 0.00800
C 	C 	0.89570 0.86588 0.62244 0.09100
H 	H 	0.73367 0.65776 0.64461 0.10300
H 	H 	0.98946 0.96859 0.64811 0.09300
Br	Br	0.94420 0.70132 0.60152 -0.10400
Br	Br	0.59261 0.62605 0.54523 -0.13900
Br	Br	0.77679 0.68884 0.70290 -0.16800
Br	Br	0.94268 0.93974 0.58999 -0.13800
C 	C 	0.92530 0.47096 0.03675 0.05900
C 	C 	0.86137 0.38747 0.98676 0.04500
C 	C 	0.80925 0.39686 0.00561 0.03800
C 	C 	0.83995 0.43233 0.03173 -0.07200
C 	C 	0.78255 0.43140 0.05393 0.78100
H 	H 	0.83578 0.35168 0.96782 0.10300
F 	F 	0.82015 0.45144 0.07910 -0.40400
F 	F 	0.71284 0.34343 0.05567 -0.39500
F 	F 	0.75927 0.49798 0.04802 -0.36700
C 	C 	0.44594 0.01881 0.97894 0.03900
C 	C 	0.47506 0.96279 0.99150 -0.07700
C 	C 	0.41773 0.87615 0.00355 0.07800
H 	H 	0.43904 0.83290 0.01357 0.09500
C 	C 	0.56706 0.99630 0.99263 0.78000
F 	F 	0.60420 0.07057 0.01048 -0.40800
F 	F 	0.60259 0.02580 0.96710 -0.39300
F 	F 	0.58257 0.92552 0.00117 -0.39400
C 	C 	0.54569 0.65073 0.01649 0.06800
C 	C 	0.49226 0.65304 0.99686 0.02600
C 	C 	0.52230 0.67531 0.96981 -0.08300
C 	C 	0.58258 0.65222 0.96137 0.07200
C 	C 	0.61444 0.61457 0.98050 0.01800
C 	C 	0.60948 0.63377 0.00823 -0.08500
C 	C 	0.66806 0.63147 0.02898 0.79000
H 	H 	0.53101 0.64913 0.03793 0.08600
H 	H 	0.59791 0.65444 0.93998 0.09000
C 	C 	0.49322 0.72547 0.95055 0.79600
F 	F 	0.69178 0.70549 0.04681 -0.40200
F 	F 	0.73848 0.63978 0.01657 -0.38500
F 	F 	0.62885 0.54774 0.04356 -0.39400
F 	F 	0.47077 0.78225 0.96473 -0.41500
F 	F 	0.42606 0.66097 0.93599 -0.41700
F 	F 	0.55591 0.78206 0.93251 -0.40200
C 	C 	0.93777 0.34187 0.81635 0.00200
C 	C 	0.93115 0.36882 0.78962 0.11600
C 	C 	0.88138 0.33900 0.83788 0.04500
C 	C 	0.90171 0.41991 0.85295 -0.06900
C 	C 	0.85327 0.41554 0.87539 0.16800
C 	C 	0.78678 0.32749 0.88401 -0.06700
C 	C 	0.76907 0.24627 0.86939 0.00400
C 	C 	0.81304 0.25238 0.84574 0.08900
H 	H 	0.95455 0.48659 0.84698 0.11600
H 	H 	0.71801 0.17865 0.87569 0.10000
Br	Br	0.87496 0.43868 0.78239 -0.16300
Br	Br	0.87607 0.53149 0.89249 -0.12400
Br	Br	0.77709 0.14200 0.82383 -0.14300
C 	C 	0.82507 0.87451 0.78991 -0.07200
C 	C 	0.74203 0.82601 0.78137 0.15500
C 	C 	0.68262 0.75114 0.79709 -0.07400
C 	C 	0.70521 0.72393 0.82120 0.02900
C 	C 	0.78677 0.77679 0.83071 0.09300
C 	C 	0.84591 0.85227 0.81517 -0.00200
H 	H 	0.61960 0.71163 0.78998 0.09600
C 	C 	0.64660 0.63428 0.83466 0.02800
H 	H 	0.90933 0.89026 0.82202 0.09400
C 	C 	0.64404 0.55088 0.82629 -0.07900
C 	C 	0.61329 0.47306 0.84393 0.15400
C 	C 	0.58564 0.47913 0.87018 -0.09200
C 	C 	0.57576 0.55675 0.87657 -0.00300
C 	C 	0.60555 0.63410 0.85878 0.08600
H 	H 	0.67204 0.54914 0.80705 0.09800
H 	H 	0.55319 0.56135 0.89649 0.08600
Br	Br	0.81989 0.74294 0.86397 -0.13200
Br	Br	0.70937 0.85661 0.74751 -0.18200
Br	Br	0.61941 0.36357 0.83327 -0.18100
Br	Br	0.59649 0.74214 0.86884 -0.09400
