data_crystal

_cell_length_a 17.88561
_cell_length_b 16.99073
_cell_length_c 49.06326
_cell_angle_alpha 90.75498
_cell_angle_beta  91.03432
_cell_angle_gamma 110.76172

_symmetry_space_group_name_	'P 1'
_symmetry_space_group_name_H-M	'P 1'

loop_
_symmetry_equiv_pos_as_xyz
  x,y,z

loop_
_atom_site_label
_atom_site_type_symbol
_atom_site_fract_x
_atom_site_fract_y
_atom_site_fract_z
_atom_site_charge
O 	O 	0.10767 0.89086 0.76653 -0.70500
Ni	Ni	0.14004 0.99816 0.78903 1.08800
O 	O 	0.13733 0.78541 0.72367 -0.39500
Ni	Ni	0.20398 0.88368 0.75027 1.07000
O 	O 	0.20255 0.98089 0.72657 -0.43500
O 	O 	0.22981 0.98223 0.81189 -0.38500
O 	O 	0.05326 0.01347 0.76473 -0.69300
O 	O 	0.14307 0.10017 0.81274 -0.35300
H 	H 	0.07978 0.84068 0.77731 0.16200
H 	H 	0.07179 0.06854 0.75566 0.16500
C 	C 	0.22873 0.05918 0.73642 0.29400
C 	C 	0.06723 0.77686 0.71244 0.29300
C 	C 	0.29376 0.97745 0.80026 0.24900
C 	C 	0.07566 0.10100 0.82291 0.27100
O 	O 	0.22288 0.07515 0.76280 -0.36100
O 	O 	0.29409 0.96668 0.77360 -0.40700
Ni	Ni	0.34195 0.75198 0.40455 1.10000
O 	O 	0.31323 0.66174 0.37450 -0.70500
Ni	Ni	0.20060 0.65258 0.36541 1.10100
O 	O 	0.42889 0.71477 0.42185 -0.38000
O 	O 	0.34430 0.57834 0.42449 -0.41500
O 	O 	0.42732 0.83499 0.38081 -0.36500
Ni	Ni	0.31360 0.55022 0.38329 1.06900
O 	O 	0.34453 0.93501 0.39974 -0.40500
O 	O 	0.19857 0.48896 0.39512 -0.39800
O 	O 	0.16012 0.54209 0.34286 -0.36900
O 	O 	0.23854 0.75686 0.39042 -0.70500
O 	O 	0.36399 0.84727 0.43227 -0.37800
O 	O 	0.09831 0.67446 0.35525 -0.36300
O 	O 	0.17085 0.80816 0.34211 -0.41000
Ni	Ni	0.25926 0.86274 0.37214 1.06600
H 	H 	0.34631 0.68212 0.35832 0.15900
H 	H 	0.20182 0.75232 0.40567 0.15400
C 	C 	0.16049 0.52752 0.40949 0.29700
O 	O 	0.34243 0.84699 0.34699 -0.41000
C 	C 	0.40859 0.64087 0.43331 0.27200
C 	C 	0.20398 0.49819 0.33444 0.29100
C 	C 	0.41479 0.85641 0.35592 0.28000
C 	C 	0.10134 0.74910 0.34722 0.27300
C 	C 	0.34912 0.91563 0.42572 0.27500
O 	O 	0.14569 0.59158 0.39936 -0.38700
O 	O 	0.27754 0.51253 0.34416 -0.40800
Ni	Ni	0.32762 0.65797 0.12519 1.10100
O 	O 	0.22386 0.62391 0.10184 -0.69700
Ni	Ni	0.16564 0.68984 0.12036 1.10000
O 	O 	0.37109 0.58364 0.10186 -0.36200
O 	O 	0.25632 0.46904 0.10472 -0.40600
O 	O 	0.36901 0.75077 0.09721 -0.39600
Ni	Ni	0.15695 0.50527 0.10140 1.06700
O 	O 	0.39656 0.77854 0.17905 -0.41000
O 	O 	0.14615 0.50424 0.14277 -0.40800
O 	O 	0.07352 0.66325 0.09284 -0.38000
O 	O 	0.26056 0.70814 0.14665 -0.70200
O 	O 	0.43553 0.70150 0.14676 -0.36700
O 	O 	0.13257 0.78271 0.13761 -0.37700
O 	O 	0.25868 0.87637 0.13298 -0.41200
Ni	Ni	0.32696 0.82446 0.15620 1.07300
H 	H 	0.23457 0.64294 0.08285 0.15200
H 	H 	0.24333 0.67580 0.16348 0.16500
C 	C 	0.09605 0.53410 0.15444 0.29100
O 	O 	0.41602 0.85991 0.12822 -0.39600
C 	C 	0.32288 0.51034 0.09214 0.28400
C 	C 	0.04363 0.58719 0.08163 0.26700
C 	C 	0.41003 0.83009 0.10314 0.29600
C 	C 	0.18354 0.86058 0.13891 0.26600
C 	C 	0.45200 0.75462 0.16801 0.29400
O 	O 	0.08839 0.60431 0.14600 -0.36800
O 	O 	0.05005 0.52166 0.09453 -0.40800
O 	O 	0.03137 0.20483 0.24057 -0.37700
O 	O 	0.09031 0.08269 0.22469 -0.40200
O 	O 	0.99935 0.09601 0.19342 -0.34800
Ni	Ni	0.02957 0.02471 0.25798 1.06800
O 	O 	0.04790 0.13488 0.27837 -0.40500
C 	C 	0.05346 0.20504 0.26634 0.28200
C 	C 	0.05797 0.06929 0.19983 0.26200
C 	C 	0.03666 0.48009 0.17320 -0.08000
C 	C 	0.95587 0.44621 0.16480 0.00600
C 	C 	0.00649 0.38880 0.21241 -0.03000
C 	C 	0.06108 0.45405 0.19788 0.01700
H 	H 	0.93620 0.46822 0.14631 0.05100
H 	H 	0.02637 0.36631 0.23075 0.04700
C 	C 	0.14234 0.49274 0.20815 0.07200
N 	N 	0.20750 0.52383 0.21631 -0.11200
C 	C 	0.09265 0.03115 0.17867 -0.05400
C 	C 	0.17545 0.04902 0.17912 0.00300
C 	C 	0.20782 0.99765 0.16466 -0.03600
C 	C 	0.15681 0.92895 0.14862 -0.06800
C 	C 	0.07584 0.91891 0.14522 -0.00800
C 	C 	0.04295 0.96765 0.16072 -0.03200
H 	H 	0.21425 0.10028 0.19196 0.04400
H 	H 	0.03722 0.86918 0.13183 0.04600
C 	C 	0.29271 0.01438 0.16727 0.07800
N 	N 	0.36072 0.02797 0.16941 -0.13600
C 	C 	0.08551 0.28482 0.28212 -0.07100
C 	C 	0.15273 0.35015 0.27283 -0.01100
C 	C 	0.19337 0.41961 0.28996 0.00400
C 	C 	0.16553 0.42452 0.31642 -0.06600
C 	C 	0.09667 0.36098 0.32523 -0.00700
C 	C 	0.05664 0.29138 0.30836 -0.00800
H 	H 	0.17498 0.34552 0.25267 0.05100
H 	H 	0.07451 0.36554 0.34542 0.04800
C 	C 	0.26359 0.48513 0.28031 0.08200
N 	N 	0.31990 0.53768 0.27262 -0.10600
C 	C 	0.94956 0.77039 0.29706 -0.01300
C 	C 	0.00161 0.73582 0.30952 -0.00100
C 	C 	0.02783 0.75877 0.33672 -0.08200
C 	C 	0.99097 0.80354 0.35238 0.01000
H 	H 	0.93520 0.75926 0.27544 0.03100
H 	H 	0.00704 0.81662 0.37383 0.01100
C 	C 	0.03134 0.68096 0.29390 0.07500
N 	N 	0.05519 0.63699 0.28140 -0.11500
H 	H 	0.35068 0.16836 0.52985 0.04900
C 	C 	0.34607 0.01422 0.49412 -0.01300
C 	C 	0.32140 0.95955 0.47158 -0.01900
C 	C 	0.36080 0.98085 0.44683 -0.09500
C 	C 	0.41995 0.06063 0.44405 0.02900
H 	H 	0.31850 0.99499 0.51359 0.02300
H 	H 	0.27453 0.89870 0.47374 0.02700
H 	H 	0.44996 0.07816 0.42487 0.04200
C 	C 	0.06208 0.43491 0.48667 0.02200
C 	C 	0.09209 0.52175 0.48196 -0.06600
C 	C 	0.12543 0.55179 0.45695 0.01700
C 	C 	0.12903 0.49539 0.43630 -0.09200
C 	C 	0.10220 0.40872 0.44137 0.01800
C 	C 	0.06878 0.37860 0.46646 -0.06500
H 	H 	0.14775 0.61895 0.45352 0.01800
H 	H 	0.10534 0.36457 0.42569 0.03500
H 	H 	0.04623 0.31147 0.46993 0.04700
C 	C 	0.50392 0.61288 0.51158 0.01800
C 	C 	0.42136 0.59324 0.50765 -0.06100
C 	C 	0.39052 0.60394 0.48221 0.01100
C 	C 	0.44200 0.63528 0.46049 -0.08300
C 	C 	0.52494 0.65917 0.46476 0.01000
H 	H 	0.38092 0.56732 0.52411 0.04700
H 	H 	0.32647 0.58701 0.47928 0.03200
H 	H 	0.56523 0.68433 0.44820 0.03300
C 	C 	0.41451 0.21819 0.68814 -0.05500
C 	C 	0.34070 0.17142 0.67555 -0.00800
C 	C 	0.27595 0.12465 0.69123 0.00800
C 	C 	0.28458 0.12603 0.71992 -0.06100
C 	C 	0.35453 0.18304 0.73247 -0.00400
C 	C 	0.42014 0.22755 0.71674 0.00100
H 	H 	0.33525 0.16732 0.65346 0.05400
H 	H 	0.36037 0.18741 0.75453 0.05600
C 	C 	0.49486 0.27708 0.73018 0.07700
C 	C 	0.20171 0.07394 0.67770 0.08900
N 	N 	0.14234 0.03320 0.66684 -0.10200
H 	H 	0.92235 0.67092 0.72645 0.04700
C 	C 	0.99398 0.57372 0.05640 -0.07700
C 	C 	0.97061 0.63888 0.04631 0.01100
H 	H 	0.93214 0.43583 0.00247 0.04200
H 	H 	0.98106 0.69577 0.05838 0.04400
C 	C 	0.58349 0.01839 0.01374 0.10200
C 	C 	0.56407 0.97662 0.98827 -0.14700
C 	C 	0.59300 0.01986 0.96442 0.09500
C 	C 	0.54657 0.97482 0.03865 -0.05400
H 	H 	0.52463 0.91135 0.98691 0.06500
H 	H 	0.57548 0.98752 0.94487 0.00800
C 	C 	0.55282 0.89716 0.04517 -0.02800
C 	C 	0.50981 0.85089 0.06673 -0.00700
C 	C 	0.46098 0.88234 0.08222 -0.06500
C 	C 	0.45779 0.96181 0.07661 -0.03100
C 	C 	0.49997 0.00767 0.05479 0.01000
H 	H 	0.51366 0.79013 0.07120 0.04500
H 	H 	0.42059 0.98679 0.08856 0.04200
H 	H 	0.49465 0.06752 0.04995 0.03600
C 	C 	0.39391 0.35762 0.97349 -0.06000
C 	C 	0.38750 0.44373 0.01441 0.02100
H 	H 	0.33862 0.30932 0.97930 0.04800
C 	C 	0.38198 0.39067 0.03660 -0.06500
C 	C 	0.35639 0.40975 0.06181 0.01900
C 	C 	0.33676 0.48218 0.06498 -0.10300
C 	C 	0.33831 0.53263 0.04245 0.01000
C 	C 	0.36312 0.51323 0.01724 -0.06600
H 	H 	0.35491 0.37019 0.07908 0.03400
H 	H 	0.32244 0.58826 0.04469 0.01400
H 	H 	0.36609 0.55387 0.00014 0.04300
C 	C 	0.08341 0.14635 0.88142 0.07900
N 	N 	0.10927 0.11473 0.89801 -0.11300
C 	C 	0.37102 0.00723 0.81597 0.00200
C 	C 	0.37044 0.99399 0.84417 -0.08900
C 	C 	0.43901 0.03379 0.86048 0.05200
C 	C 	0.50900 0.08918 0.84862 -0.08900
C 	C 	0.51154 0.09793 0.82029 0.00500
C 	C 	0.44393 0.05631 0.80381 -0.02300
H 	H 	0.31610 0.95350 0.85350 0.05900
C 	C 	0.45130 0.06225 0.77456 0.09900
C 	C 	0.43765 0.01541 0.88918 0.08000
N 	N 	0.45776 0.06689 0.75115 -0.11600
N 	N 	0.43650 0.00067 0.91217 -0.10200
Ni	Ni	0.64711 0.28697 0.90473 1.09700
O 	O 	0.65549 0.34406 0.86804 -0.70300
Ni	Ni	0.76632 0.35263 0.85682 1.09800
O 	O 	0.54787 0.31237 0.91567 -0.37800
O 	O 	0.60833 0.45312 0.90929 -0.41900
O 	O 	0.56831 0.17523 0.88844 -0.36700
Ni	Ni	0.64322 0.45469 0.86886 1.06700
O 	O 	0.66467 0.11617 0.91749 -0.40500
O 	O 	0.75389 0.53137 0.88281 -0.39200
O 	O 	0.77917 0.42617 0.82310 -0.36600
O 	O 	0.75293 0.28644 0.89221 -0.70500
O 	O 	0.64616 0.22668 0.94024 -0.38500
O 	O 	0.87198 0.33593 0.84833 -0.35800
O 	O 	0.81978 0.19394 0.85421 -0.40600
Ni	Ni	0.74189 0.16866 0.88667 1.06600
H 	H 	0.61595 0.30722 0.85470 0.15500
H 	H 	0.79552 0.31446 0.90600 0.15200
C 	C 	0.80446 0.50080 0.89400 0.27100
O 	O 	0.65084 0.14408 0.85865 -0.41300
C 	C 	0.55149 0.38988 0.92019 0.27800
C 	C 	0.75083 0.48817 0.82186 0.29200
C 	C 	0.57905 0.13970 0.86560 0.29100
C 	C 	0.88220 0.26399 0.85252 0.27300
C 	C 	0.65908 0.15491 0.94064 0.29500
O 	O 	0.83515 0.45599 0.87913 -0.37900
O 	O 	0.67735 0.47701 0.82956 -0.40600
Ni	Ni	0.60860 0.35591 0.63735 1.10300
O 	O 	0.69523 0.37550 0.60848 -0.69900
Ni	Ni	0.76973 0.32816 0.62718 1.09800
O 	O 	0.56504 0.44553 0.62361 -0.36200
O 	O 	0.68983 0.53955 0.61767 -0.41200
O 	O 	0.52839 0.26902 0.61143 -0.37400
Ni	Ni	0.75784 0.48677 0.59550 1.07300
O 	O 	0.49962 0.18308 0.65677 -0.39200
O 	O 	0.85617 0.52631 0.62144 -0.39300
O 	O 	0.86684 0.37172 0.60215 -0.37500
O 	O 	0.67420 0.29283 0.65264 -0.70200
O 	O 	0.52313 0.32313 0.66614 -0.36500
O 	O 	0.82122 0.25597 0.64833 -0.36100
O 	O 	0.70803 0.13956 0.64270 -0.39300
Ni	Ni	0.60895 0.17359 0.64969 1.07500
H 	H 	0.67362 0.34041 0.59196 0.14900
H 	H 	0.69002 0.31015 0.67186 0.16900
C 	C 	0.85676 0.50486 0.64705 0.30000
O 	O 	0.59183 0.17408 0.60859 -0.41000
C 	C 	0.61265 0.51384 0.61207 0.28400
C 	C 	0.86156 0.39375 0.57654 0.29000
C 	C 	0.54622 0.21157 0.59758 0.28900
C 	C 	0.77751 0.17860 0.65518 0.26900
C 	C 	0.48706 0.24266 0.67178 0.27500
O 	O 	0.82085 0.42640 0.65430 -0.38100
O 	O 	0.81456 0.43543 0.56916 -0.41500
O 	O 	0.93644 0.82579 0.75120 -0.37300
O 	O 	0.88267 0.96085 0.74814 -0.40300
O 	O 	0.96283 0.95527 0.71267 -0.35500
Ni	Ni	0.95256 0.99503 0.78295 1.06200
O 	O 	0.93393 0.87492 0.79453 -0.40600
C 	C 	0.92075 0.81200 0.77712 0.28500
C 	C 	0.91081 0.98475 0.72356 0.25400
O 	O 	0.86547 0.12744 0.25650 -0.69900
Ni	Ni	0.84551 0.01488 0.27335 1.10600
O 	O 	0.81500 0.23987 0.22168 -0.38600
Ni	Ni	0.76177 0.13306 0.24544 1.07000
O 	O 	0.75491 0.04372 0.21622 -0.39700
O 	O 	0.76486 0.02045 0.30145 -0.37500
O 	O 	0.85206 0.90764 0.29052 -0.35800
H 	H 	0.89473 0.17461 0.26909 0.16500
H 	H 	0.90123 0.96054 0.23193 0.15100
C 	C 	0.73597 0.96357 0.22272 0.25400
C 	C 	0.88557 0.25982 0.21029 0.28600
C 	C 	0.69520 0.02325 0.29365 0.30800
O 	O 	0.75339 0.94268 0.24746 -0.36700
O 	O 	0.68300 0.04132 0.26824 -0.40400
N 	N 	0.75459 0.31236 0.16105 -0.11000
C 	C 	0.67527 0.89753 0.20564 -0.05400
C 	C 	0.62497 0.82420 0.21817 -0.01700
C 	C 	0.55471 0.77180 0.20491 0.00900
C 	C 	0.53471 0.79150 0.17868 -0.06600
C 	C 	0.58994 0.85779 0.16471 -0.01200
C 	C 	0.66036 0.91075 0.17796 0.00300
H 	H 	0.63831 0.81019 0.23879 0.06200
H 	H 	0.57631 0.87055 0.14396 0.05000
C 	C 	0.71722 0.97696 0.16287 0.06900
C 	C 	0.50250 0.69878 0.21862 0.08200
N 	N 	0.76265 0.03005 0.15075 -0.09100
N 	N 	0.46068 0.64027 0.22959 -0.10500
N 	N 	0.88881 0.93115 0.15873 -0.12000
C 	C 	0.62477 0.98067 0.31026 -0.10200
C 	C 	0.57799 0.02609 0.31958 0.03600
C 	C 	0.50797 0.98572 0.33391 -0.03900
C 	C 	0.48400 0.89866 0.33886 -0.04900
C 	C 	0.53038 0.85317 0.32940 -0.02300
C 	C 	0.60006 0.89327 0.31494 0.02400
H 	H 	0.59611 0.09290 0.31567 0.02100
H 	H 	0.51213 0.78631 0.33327 0.03700
C 	C 	0.64439 0.84367 0.30435 0.07900
C 	C 	0.46201 0.03438 0.34393 0.09800
N 	N 	0.67946 0.80338 0.29593 -0.10200
N 	N 	0.42522 0.07340 0.35197 -0.13000
N 	N 	0.93006 0.17445 0.32629 -0.12700
C 	C 	0.40924 0.16745 0.53545 -0.06600
C 	C 	0.45103 0.13540 0.51709 0.02800
C 	C 	0.52717 0.13536 0.52445 -0.06500
C 	C 	0.55919 0.16234 0.55051 0.01400
C 	C 	0.51534 0.18964 0.56947 -0.09200
C 	C 	0.44130 0.19459 0.56155 0.01600
C 	C 	0.41070 0.09036 0.49210 0.00600
H 	H 	0.56004 0.11106 0.51034 0.05200
H 	H 	0.61750 0.16073 0.55611 0.03000
H 	H 	0.40746 0.21687 0.57586 0.04100
C 	C 	0.44491 0.11527 0.46665 -0.05800
H 	H 	0.49391 0.17470 0.46479 0.04600
C 	C 	0.88399 0.34313 0.53093 0.01500
C 	C 	0.91561 0.38072 0.55625 -0.09000
C 	C 	0.99856 0.42136 0.55971 0.04100
H 	H 	0.82017 0.31013 0.52819 0.02700
H 	H 	0.02380 0.44957 0.57927 0.02600
C 	C 	0.58584 0.64933 0.55488 -0.06600
C 	C 	0.53457 0.58806 0.53691 0.01900
C 	C 	0.50989 0.50279 0.54359 -0.06500
C 	C 	0.53481 0.47890 0.56821 0.00800
C 	C 	0.58509 0.54005 0.58646 -0.11100
C 	C 	0.61130 0.62535 0.57956 0.00900
H 	H 	0.47108 0.45501 0.52969 0.04600
H 	H 	0.51584 0.41268 0.57296 0.03100
H 	H 	0.65070 0.67297 0.59336 0.03000
H 	H 	0.60526 0.71537 0.54988 0.04600
C 	C 	0.55584 0.64762 0.49021 -0.06100
H 	H 	0.61971 0.66316 0.49307 0.04400
C 	C 	0.81145 0.13117 0.67384 -0.06000
C 	C 	0.89466 0.15167 0.67575 -0.01200
C 	C 	0.92775 0.10683 0.69295 0.01200
C 	C 	0.87714 0.03674 0.70703 -0.05800
C 	C 	0.79422 0.01753 0.70576 0.01500
C 	C 	0.76126 0.06588 0.69001 -0.00600
H 	H 	0.93381 0.20335 0.66415 0.05900
H 	H 	0.75533 0.96558 0.71733 0.02800
C 	C 	0.67690 0.05145 0.69194 0.06000
N 	N 	0.60935 0.03989 0.69353 -0.14400
N 	N 	0.08174 0.16237 0.70180 -0.11800
N 	N 	0.55481 0.31650 0.74095 -0.11000
C 	C 	0.91435 0.56439 0.66631 -0.07000
C 	C 	0.99375 0.60472 0.65846 0.01800
C 	C 	0.04646 0.67083 0.67440 -0.00800
C 	C 	0.88937 0.58651 0.69146 0.00800
H 	H 	0.01378 0.58621 0.63948 0.03600
C 	C 	0.12670 0.71390 0.66519 0.08700
N 	N 	0.19098 0.74840 0.65780 -0.11800
C 	C 	0.94709 0.54777 0.95441 -0.04900
C 	C 	0.89797 0.55704 0.97523 0.01100
C 	C 	0.82254 0.56036 0.96861 -0.05700
C 	C 	0.79451 0.54924 0.94153 -0.00300
C 	C 	0.84105 0.53303 0.92095 -0.08400
C 	C 	0.91883 0.53582 0.92741 0.00200
H 	H 	0.78478 0.56912 0.98451 0.04500
H 	H 	0.73550 0.54996 0.93675 0.03600
H 	H 	0.95648 0.52614 0.91163 0.04300
C 	C 	0.63477 0.10293 0.01518 -0.09900
C 	C 	0.64077 0.10569 0.96575 -0.11700
C 	C 	0.66307 0.14647 0.99129 0.04300
H 	H 	0.70074 0.21239 0.99260 0.02300
H 	H 	0.65129 0.13535 0.03476 0.06200
H 	H 	0.58957 0.87183 0.03313 0.03600
C 	C 	0.49757 0.49449 0.98131 -0.06100
C 	C 	0.42657 0.43186 0.98927 0.01800
C 	C 	0.43305 0.34524 0.95028 0.01200
C 	C 	0.50538 0.40697 0.94272 -0.08400
C 	C 	0.53661 0.48233 0.95813 0.00900
H 	H 	0.40770 0.28729 0.93840 0.04400
H 	H 	0.59230 0.53051 0.95263 0.03300
H 	H 	0.52324 0.55202 0.99339 0.04600
H 	H 	0.40033 0.33661 0.03459 0.05100
C 	C 	0.96092 0.25768 0.84760 -0.07500
C 	C 	0.99600 0.22358 0.86784 -0.00400
C 	C 	0.04808 0.23022 0.81425 -0.04200
C 	C 	0.99256 0.26787 0.82118 0.01600
H 	H 	0.97583 0.22068 0.88865 0.01800
H 	H 	0.06670 0.23103 0.79330 0.03100
C 	C 	0.96443 0.31153 0.80064 0.07700
N 	N 	0.94190 0.34652 0.78417 -0.10700
H 	H 	0.56616 0.13813 0.81103 0.03400
C 	C 	0.79760 0.56648 0.80821 -0.06400
C 	C 	0.87239 0.61605 0.81941 -0.01100
C 	C 	0.91427 0.69549 0.80900 -0.00000
C 	C 	0.88223 0.72503 0.78649 -0.07100
C 	C 	0.80967 0.67326 0.77422 -0.01200
C 	C 	0.76658 0.59477 0.78519 0.00400
H 	H 	0.89672 0.59393 0.83690 0.05300
H 	H 	0.78544 0.69529 0.75670 0.04900
C 	C 	0.69041 0.54428 0.77288 0.08800
N 	N 	0.62928 0.50407 0.76303 -0.10600
O 	O 	0.04867 0.84313 0.70732 -0.37000
O 	O 	0.90801 0.20100 0.19980 -0.36100
C 	C 	0.92209 0.90185 0.29633 0.27100
H 	H 	0.11163 0.46829 0.53977 0.05000
N 	N 	0.87540 0.92642 0.36859 -0.11300
H 	H 	0.92145 0.68400 0.01219 0.04700
C 	C 	0.93639 0.63211 0.02016 -0.06100
C 	C 	0.90349 0.88678 0.35581 0.08500
C 	C 	0.97748 0.49942 0.04073 0.00500
C 	C 	0.90172 0.37972 0.17903 -0.00100
O 	O 	0.92285 0.01131 0.24390 -0.69200
C 	C 	0.93352 0.35429 0.50851 -0.05200
H 	H 	0.90746 0.32998 0.48865 0.04900
N 	N 	0.04993 0.78741 0.83204 -0.14000
Ni	Ni	0.03640 0.92026 0.73781 1.09700
C 	C 	0.82004 0.34233 0.16905 0.09200
C 	C 	0.80858 0.54467 0.70037 0.07800
C 	C 	0.98964 0.74658 0.82176 0.07500
C 	C 	0.93849 0.83737 0.33983 -0.00300
C 	C 	0.94270 0.49254 0.01467 -0.06200
C 	C 	0.01328 0.13743 0.69781 0.06300
C 	C 	0.92443 0.55994 0.00396 0.02100
O 	O 	0.98780 0.96822 0.29466 -0.40700
C 	C 	0.95738 0.94754 0.15961 0.08600
C 	C 	0.92637 0.82966 0.31133 -0.05900
H 	H 	0.99432 0.44827 0.04828 0.02100
C 	C 	0.04828 0.43242 0.53727 -0.07700
C 	C 	0.92840 0.34724 0.20205 -0.04700
O 	O 	0.01047 0.03371 0.82052 -0.39800
Ni	Ni	0.93044 0.11430 0.22356 1.10600
C 	C 	0.98628 0.22643 0.31827 0.07500
C 	C 	0.01518 0.40297 0.51126 0.01400
H 	H 	0.08716 0.56579 0.49738 0.04400
C 	C 	0.01991 0.69662 0.69867 -0.07000
C 	C 	0.94238 0.65221 0.70754 -0.00300
N 	N 	0.74384 0.51110 0.70746 -0.11500
H 	H 	0.00639 0.54764 0.95926 0.03200
C 	C 	0.05116 0.18578 0.86072 -0.01000
C 	C 	0.06884 0.17961 0.83311 -0.06200
