data_crystal

_cell_length_a 35.06006
_cell_length_b 35.78795
_cell_length_c 35.04671
_cell_angle_alpha 95.55315
_cell_angle_beta  95.55173
_cell_angle_gamma 125.36983

_symmetry_space_group_name_	'P 1'
_symmetry_space_group_name_H-M	'P 1'

loop_
_symmetry_equiv_pos_as_xyz
  x,y,z

loop_
_atom_site_label
_atom_site_type_symbol
_atom_site_fract_x
_atom_site_fract_y
_atom_site_fract_z
_atom_site_charge
C 	C 	0.97404 0.02206 0.99347 0.12700
N 	N 	0.02008 0.04758 0.98864 -0.14000
C 	C 	0.04176 0.02655 0.98321 0.13100
N 	N 	0.01745 0.98012 0.98264 -0.14000
C 	C 	0.97148 0.95462 0.98745 0.13100
N 	N 	0.94974 0.97557 0.99284 -0.13900
C 	C 	0.95284 0.99766 0.44584 0.13400
N 	N 	0.00036 0.02291 0.44619 -0.14100
C 	C 	0.02300 0.00260 0.44973 0.13300
N 	N 	0.99816 0.95706 0.45292 -0.14100
C 	C 	0.95069 0.93175 0.45260 0.13300
N 	N 	0.92795 0.95203 0.44907 -0.14100
Cu	Cu	0.65125 0.26676 0.99519 0.92900
Cu	Cu	0.69552 0.27189 0.91611 0.86700
Cu	Cu	0.67981 0.34124 0.94533 0.89600
Cu	Cu	0.65279 0.35422 0.02081 0.89300
C 	C 	0.66286 0.30106 0.07622 0.29700
O 	O 	0.58182 0.24070 0.99203 -0.36300
C 	C 	0.67607 0.31602 0.86168 0.29400
O 	O 	0.69101 0.33965 0.99957 -0.63900
O 	O 	0.64819 0.27280 0.93973 -0.64200
O 	O 	0.67904 0.23156 0.99406 -0.37400
O 	O 	0.73612 0.28121 0.96178 -0.44500
O 	O 	0.64195 0.32038 0.06529 -0.38900
O 	O 	0.71509 0.40840 0.95336 -0.38700
C 	C 	0.71234 0.43446 0.98066 0.31400
C 	C 	0.56453 0.26134 0.97690 0.30200
O 	O 	0.59339 0.30514 0.97351 -0.39400
O 	O 	0.68254 0.41629 0.00518 -0.39800
O 	O 	0.66439 0.27251 0.05065 -0.36300
C 	C 	0.72048 0.24948 0.98380 0.31200
O 	O 	0.67231 0.34134 0.88905 -0.38100
O 	O 	0.67136 0.27781 0.86757 -0.41900
H 	H 	0.72497 0.35941 0.01245 0.15900
H 	H 	0.61597 0.25332 0.92322 0.17500
Cu	Cu	0.72911 0.33854 0.44626 0.92800
Cu	Cu	0.72443 0.29999 0.52797 0.86700
Cu	Cu	0.65184 0.31101 0.49458 0.89600
Cu	Cu	0.63896 0.33401 0.41714 0.89400
C 	C 	0.69797 0.32726 0.36418 0.30000
O 	O 	0.75445 0.40599 0.44678 -0.36700
C 	C 	0.67879 0.32153 0.57983 0.29600
O 	O 	0.65471 0.29849 0.44090 -0.64200
O 	O 	0.72208 0.34378 0.50137 -0.64200
O 	O 	0.76574 0.31202 0.45025 -0.37400
O 	O 	0.71542 0.25815 0.48424 -0.44500
O 	O 	0.67490 0.34478 0.37344 -0.38900
O 	O 	0.58309 0.27484 0.48531 -0.38700
C 	C 	0.55637 0.27571 0.45667 0.31000
C 	C 	0.73236 0.42264 0.46022 0.30100
O 	O 	0.68761 0.39398 0.46345 -0.39500
O 	O 	0.57493 0.30432 0.43171 -0.39500
O 	O 	0.72378 0.32329 0.39121 -0.36500
C 	C 	0.74771 0.27230 0.46218 0.30900
O 	O 	0.65010 0.31919 0.55060 -0.38200
O 	O 	0.71808 0.32630 0.57483 -0.42200
H 	H 	0.63529 0.26499 0.42885 0.16400
H 	H 	0.74102 0.37587 0.51683 0.17500
C 	C 	0.67711 0.32594 0.82180 -0.10800
C 	C 	0.71314 0.33235 0.80183 0.11900
C 	C 	0.70940 0.33498 0.76212 -0.09500
C 	C 	0.67157 0.33340 0.74251 -0.00000
C 	C 	0.63733 0.33030 0.76315 0.05800
C 	C 	0.64019 0.32609 0.80260 -0.02100
N 	N 	0.75178 0.33689 0.82076 -0.20200
H 	H 	0.73607 0.33829 0.74639 0.05400
C 	C 	0.66679 0.33225 0.69988 0.00000
N 	N 	0.60194 0.33158 0.74541 -0.19200
H 	H 	0.61314 0.32211 0.81817 0.04400
C 	C 	0.63588 0.28907 0.67443 -0.09600
C 	C 	0.63698 0.28528 0.63437 0.12100
C 	C 	0.67021 0.32546 0.61978 -0.11000
C 	C 	0.69889 0.36910 0.64479 -0.02000
C 	C 	0.69699 0.37301 0.68470 0.05700
H 	H 	0.61194 0.25807 0.68604 0.05500
N 	N 	0.60667 0.24295 0.61028 -0.20400
H 	H 	0.72342 0.40000 0.63331 0.03900
N 	N 	0.72411 0.41584 0.70824 -0.19200
H 	H 	0.58298 0.21332 0.62149 0.08200
H 	H 	0.60560 0.23911 0.58020 0.08000
H 	H 	0.74740 0.44565 0.69705 0.08200
H 	H 	0.72124 0.42016 0.73746 0.08800
H 	H 	0.57623 0.32825 0.76064 0.08300
H 	H 	0.60020 0.33701 0.71675 0.08800
H 	H 	0.75790 0.33938 0.85096 0.06500
H 	H 	0.77733 0.33994 0.80546 0.07800
C 	C 	0.67142 0.30021 0.11805 -0.10700
C 	C 	0.71632 0.31427 0.13763 0.12300
C 	C 	0.72329 0.31446 0.17784 -0.09700
C 	C 	0.68700 0.30266 0.19897 -0.00000
C 	C 	0.64198 0.28814 0.17930 0.05900
C 	C 	0.63450 0.28641 0.13893 -0.02200
N 	N 	0.75321 0.32891 0.11840 -0.20300
H 	H 	0.75767 0.32548 0.19301 0.05600
C 	C 	0.69792 0.30985 0.24208 0.00200
N 	N 	0.60602 0.27635 0.19901 -0.19200
H 	H 	0.59994 0.27496 0.12377 0.04700
C 	C 	0.72048 0.35470 0.26392 -0.09900
C 	C 	0.72492 0.36178 0.30464 0.13100
C 	C 	0.70431 0.32287 0.32349 -0.11000
C 	C 	0.68529 0.27862 0.30211 -0.02500
C 	C 	0.68257 0.27182 0.26148 0.05800
H 	H 	0.73393 0.38408 0.24910 0.05600
N 	N 	0.74959 0.40593 0.32551 -0.20400
H 	H 	0.67120 0.24914 0.31687 0.03800
N 	N 	0.66458 0.22877 0.24128 -0.19200
H 	H 	0.76298 0.43430 0.31126 0.08500
H 	H 	0.75767 0.41272 0.35597 0.10300
H 	H 	0.65203 0.20060 0.25567 0.08200
H 	H 	0.66399 0.22309 0.21137 0.08900
H 	H 	0.57293 0.26561 0.18416 0.08200
H 	H 	0.61041 0.27785 0.22913 0.08700
H 	H 	0.75043 0.33238 0.08924 0.08600
H 	H 	0.78583 0.33825 0.13298 0.08400
C 	C 	0.79185 0.56128 0.46920 -0.01000
C 	C 	0.77309 0.58069 0.48991 -0.03100
C 	C 	0.79010 0.62695 0.48965 -0.04400
C 	C 	0.82592 0.65402 0.46859 0.01000
C 	C 	0.84540 0.63484 0.44861 -0.04400
C 	C 	0.82840 0.58861 0.44892 -0.03000
C 	C 	0.84235 0.70207 0.46673 0.00500
C 	C 	0.86778 0.73713 0.50030 -0.03800
C 	C 	0.88663 0.78338 0.49782 -0.04000
C 	C 	0.88009 0.79484 0.46182 0.01300
C 	C 	0.85333 0.75962 0.42853 -0.04000
C 	C 	0.83450 0.71337 0.43096 -0.03800
C 	C 	0.90429 0.84304 0.45839 0.00500
C 	C 	0.92465 0.88347 0.45574 -0.03900
C 	C 	0.77128 0.51248 0.46647 0.04500
C 	C 	0.75404 0.47162 0.46420 -0.11200
H 	H 	0.74480 0.55974 0.50563 0.03900
H 	H 	0.77494 0.64149 0.50526 0.04100
H 	H 	0.87335 0.65560 0.43255 0.04100
H 	H 	0.84309 0.57386 0.43286 0.03800
H 	H 	0.87387 0.72872 0.52806 0.04000
H 	H 	0.90725 0.81043 0.52368 0.04300
H 	H 	0.84804 0.76819 0.40062 0.04300
H 	H 	0.81453 0.68646 0.40497 0.04000
C 	C 	0.79894 0.19637 0.44119 -0.01200
C 	C 	0.84799 0.21775 0.44953 -0.03000
C 	C 	0.86484 0.19065 0.44647 -0.04500
C 	C 	0.83270 0.14195 0.43500 0.01100
C 	C 	0.78367 0.12075 0.42563 -0.04500
C 	C 	0.76687 0.14789 0.42874 -0.03000
C 	C 	0.85024 0.11308 0.43450 0.00500
C 	C 	0.88169 0.11866 0.40977 -0.03800
C 	C 	0.90059 0.09338 0.41107 -0.04000
C 	C 	0.88816 0.06234 0.43705 0.01200
C 	C 	0.85597 0.05595 0.46117 -0.04000
C 	C 	0.83706 0.08124 0.45993 -0.03800
C 	C 	0.91034 0.03891 0.44034 0.00600
C 	C 	0.92919 0.01954 0.44278 -0.04100
C 	C 	0.78131 0.22365 0.44822 0.04700
C 	C 	0.76620 0.24617 0.45402 -0.12000
H 	H 	0.87300 0.25521 0.45917 0.03700
H 	H 	0.90275 0.20736 0.45378 0.04100
H 	H 	0.75860 0.08324 0.41646 0.04100
H 	H 	0.72890 0.13113 0.42220 0.03700
H 	H 	0.89185 0.14293 0.38988 0.04000
H 	H 	0.92539 0.09842 0.39228 0.04300
H 	H 	0.84617 0.03199 0.48131 0.04200
H 	H 	0.81288 0.07673 0.47918 0.03900
C 	C 	0.16605 0.07789 0.45224 0.01300
C 	C 	0.18490 0.09796 0.42020 -0.04000
C 	C 	0.23378 0.12284 0.42065 -0.03800
C 	C 	0.26410 0.12777 0.45319 0.00500
C 	C 	0.24515 0.10774 0.48529 -0.03800
C 	C 	0.19627 0.08289 0.48480 -0.04000
C 	C 	0.31565 0.15396 0.45370 0.01100
C 	C 	0.33239 0.13793 0.42657 -0.04500
C 	C 	0.38131 0.16254 0.42735 -0.03000
C 	C 	0.41376 0.20328 0.45522 -0.00900
C 	C 	0.39712 0.21938 0.48233 -0.03000
C 	C 	0.34822 0.19481 0.48157 -0.04400
C 	C 	0.46409 0.22876 0.45579 0.04600
C 	C 	0.50622 0.25005 0.45621 -0.10900
C 	C 	0.11558 0.05148 0.45139 0.00500
C 	C 	0.07333 0.02938 0.45064 -0.03900
H 	H 	0.16171 0.09420 0.39493 0.04300
H 	H 	0.24810 0.13834 0.39580 0.04000
H 	H 	0.26825 0.11125 0.51048 0.04000
H 	H 	0.18191 0.06739 0.50965 0.04300
H 	H 	0.30755 0.10634 0.40504 0.04100
H 	H 	0.39395 0.14993 0.40630 0.03700
H 	H 	0.42202 0.25091 0.50391 0.04000
H 	H 	0.33562 0.20754 0.50255 0.04200
C 	C 	0.78262 0.57325 0.97966 -0.00700
C 	C 	0.82898 0.60555 0.00110 -0.03300
C 	C 	0.85239 0.65326 0.00187 -0.04800
C 	C 	0.82952 0.66893 0.98116 0.01400
C 	C 	0.78321 0.63650 0.95950 -0.04500
C 	C 	0.75984 0.58880 0.95876 -0.03000
C 	C 	0.85403 0.71925 0.98223 0.00400
C 	C 	0.89560 0.74482 0.96659 -0.03700
C 	C 	0.91886 0.79255 0.96765 -0.04000
C 	C 	0.90073 0.81500 0.98432 0.01200
C 	C 	0.85919 0.78955 0.99990 -0.03800
C 	C 	0.83589 0.74180 0.99887 -0.03500
C 	C 	0.92503 0.86424 0.98569 0.00600
C 	C 	0.94586 0.90549 0.98657 -0.03900
C 	C 	0.75799 0.52427 0.97991 0.04700
C 	C 	0.73739 0.48326 0.98014 -0.10900
H 	H 	0.84676 0.59375 0.01736 0.03600
H 	H 	0.88812 0.67805 0.01872 0.04100
H 	H 	0.76538 0.64826 0.94326 0.04200
H 	H 	0.72398 0.56399 0.94211 0.04000
H 	H 	0.90976 0.72768 0.95356 0.04000
H 	H 	0.95097 0.81205 0.95555 0.04300
H 	H 	0.84502 0.80672 0.01287 0.04100
H 	H 	0.80390 0.72237 0.01113 0.03700
C 	C 	0.90732 0.08416 0.00626 0.01200
C 	C 	0.85983 0.06084 0.98788 -0.03900
C 	C 	0.83776 0.08309 0.99053 -0.03500
C 	C 	0.86305 0.12881 0.01167 0.00200
C 	C 	0.91030 0.15173 0.03077 -0.03800
C 	C 	0.93235 0.12945 0.02804 -0.04100
C 	C 	0.84094 0.15352 0.01188 0.00900
C 	C 	0.79899 0.13569 0.02683 -0.04600
C 	C 	0.77557 0.15661 0.02361 -0.02700
C 	C 	0.79400 0.19549 0.00553 -0.02000
C 	C 	0.83671 0.21425 0.99177 -0.02600
C 	C 	0.86010 0.19335 0.99489 -0.04400
C 	C 	0.76750 0.21412 0.99859 0.05300
C 	C 	0.74593 0.23030 0.99245 -0.12400
C 	C 	0.93084 0.06221 0.00178 -0.00100
C 	C 	0.95062 0.04392 0.99808 -0.03400
H 	H 	0.84023 0.02577 0.97107 0.04300
H 	H 	0.80135 0.06517 0.97556 0.03900
H 	H 	0.93007 0.18695 0.04728 0.03900
H 	H 	0.96904 0.14761 0.04242 0.04200
H 	H 	0.78411 0.10518 0.04026 0.04100
H 	H 	0.74265 0.14202 0.03444 0.03800
H 	H 	0.85120 0.24438 0.97784 0.03400
H 	H 	0.89242 0.20736 0.98324 0.04100
C 	C 	0.18043 0.10030 0.97013 0.01200
C 	C 	0.19210 0.08521 0.93787 -0.04000
C 	C 	0.23983 0.10633 0.93542 -0.03800
C 	C 	0.27615 0.14264 0.96528 0.00500
C 	C 	0.26439 0.15890 0.99681 -0.03600
C 	C 	0.21666 0.13776 0.99921 -0.03700
C 	C 	0.32616 0.16130 0.96501 0.01000
C 	C 	0.34953 0.18705 0.93664 -0.04400
C 	C 	0.39745 0.20585 0.93722 -0.03000
C 	C 	0.42215 0.19889 0.96610 -0.01000
C 	C 	0.39858 0.17243 0.99396 -0.02700
C 	C 	0.35076 0.15368 0.99344 -0.04200
C 	C 	0.47232 0.22109 0.96865 0.04700
C 	C 	0.51432 0.23920 0.97163 -0.11100
C 	C 	0.13159 0.07493 0.97494 0.00600
C 	C 	0.09057 0.05341 0.97866 -0.03900
H 	H 	0.16425 0.05636 0.91521 0.04300
H 	H 	0.24857 0.09365 0.91092 0.04000
H 	H 	0.29222 0.18717 0.01983 0.03700
H 	H 	0.20789 0.14974 0.02415 0.04000
H 	H 	0.33076 0.19296 0.91450 0.04100
H 	H 	0.41548 0.22631 0.91560 0.03800
H 	H 	0.41747 0.16690 0.01635 0.03700
H 	H 	0.33288 0.13350 0.01524 0.03900
