data_crystal

_cell_length_a 13.94714
_cell_length_b 12.12451
_cell_length_c 18.21689
_cell_angle_alpha 90.01064
_cell_angle_beta  90.00173
_cell_angle_gamma 100.37391

_symmetry_space_group_name_	'P 1'
_symmetry_space_group_name_H-M	'P 1'

loop_
_symmetry_equiv_pos_as_xyz
  x,y,z

loop_
_atom_site_label
_atom_site_type_symbol
_atom_site_fract_x
_atom_site_fract_y
_atom_site_fract_z
_atom_site_charge
Ni	Ni	0.36772 0.67963 0.83614 1.10400
O 	O 	0.33110 0.79107 0.76242 -0.70300
Ni	Ni	0.28150 0.69230 0.67792 1.10500
O 	O 	0.45392 0.80142 0.89608 -0.35500
O 	O 	0.54465 0.86899 0.79597 -0.39600
O 	O 	0.25384 0.70357 0.90259 -0.35500
Ni	Ni	0.43510 0.90987 0.72817 1.07400
O 	O 	0.25695 0.42685 0.88529 -0.37400
O 	O 	0.49743 0.85250 0.63562 -0.38800
O 	O 	0.26841 0.80946 0.59708 -0.34200
O 	O 	0.30595 0.57864 0.75583 -0.69700
O 	O 	0.39454 0.55912 0.90690 -0.34500
O 	O 	0.21249 0.56605 0.61127 -0.34200
O 	O 	0.10566 0.49768 0.70264 -0.37700
Ni	Ni	0.19350 0.47300 0.79120 1.07800
H 	H 	0.27687 0.82507 0.78190 0.17000
H 	H 	0.35453 0.53469 0.73789 0.15900
C 	C 	0.47568 0.75136 0.60661 0.31900
O 	O 	0.13080 0.58737 0.84539 -0.38900
C 	C 	0.53411 0.85948 0.86788 0.28400
C 	C 	0.30343 0.91896 0.60189 0.29800
C 	C 	0.16963 0.63508 0.90529 0.31200
C 	C 	0.13343 0.49762 0.63346 0.28200
C 	C 	0.35130 0.45292 0.90103 0.27900
O 	O 	0.41404 0.67176 0.63861 -0.38400
O 	O 	0.33411 0.96586 0.66526 -0.40800
Ni	Ni	0.66644 0.31180 0.33877 1.10500
O 	O 	0.70481 0.20330 0.26418 -0.70300
Ni	Ni	0.75545 0.30568 0.18127 1.10400
O 	O 	0.57832 0.18834 0.39613 -0.36100
O 	O 	0.48799 0.12348 0.29529 -0.39200
O 	O 	0.77702 0.28698 0.40865 -0.36100
Ni	Ni	0.60022 0.08592 0.22831 1.07500
O 	O 	0.78417 0.54958 0.39699 -0.37800
O 	O 	0.53951 0.14609 0.13598 -0.38500
O 	O 	0.76850 0.19153 0.09874 -0.34500
O 	O 	0.73086 0.41655 0.26073 -0.69600
O 	O 	0.63748 0.42960 0.41003 -0.35300
O 	O 	0.82590 0.43436 0.11627 -0.33200
O 	O 	0.93309 0.49826 0.20835 -0.38900
Ni	Ni	0.84603 0.51365 0.29932 1.07900
H 	H 	0.75867 0.16867 0.28367 0.17400
H 	H 	0.68438 0.46373 0.24344 0.16800
C 	C 	0.56274 0.24800 0.10844 0.31500
O 	O 	0.90108 0.38357 0.34102 -0.39600
C 	C 	0.49700 0.13421 0.36730 0.28500
C 	C 	0.73210 0.08235 0.10194 0.29800
C 	C 	0.86839 0.33679 0.40260 0.31900
C 	C 	0.90445 0.50302 0.13964 0.29000
C 	C 	0.68878 0.53235 0.40969 0.27900
O 	O 	0.62234 0.32630 0.14326 -0.37900
O 	O 	0.70239 0.03345 0.16488 -0.40500
C 	C 	0.01429 0.64985 0.96769 -0.01700
C 	C 	0.11000 0.62962 0.97220 -0.08200
C 	C 	0.14202 0.58580 0.03753 0.11300
C 	C 	0.07444 0.54599 0.09245 -0.02500
C 	C 	0.97641 0.55733 0.08527 -0.06400
C 	C 	0.94827 0.61817 0.02536 0.10500
N 	N 	0.85626 0.65517 0.02538 -0.01300
H 	H 	0.99122 0.69031 0.91940 0.07500
H 	H 	0.09814 0.50545 0.14048 0.08200
N 	N 	0.24314 0.58249 0.04861 -0.02300
O 	O 	0.82612 0.69849 0.08454 -0.10400
O 	O 	0.81004 0.66097 0.96387 -0.07500
O 	O 	0.30647 0.67542 0.04973 -0.07100
O 	O 	0.26946 0.48953 0.06891 -0.07500
C 	C 	0.89785 0.40980 0.52858 -0.01800
C 	C 	0.93014 0.35488 0.46826 -0.08500
C 	C 	0.02746 0.33763 0.46583 0.11200
C 	C 	0.09310 0.38348 0.52076 -0.03100
C 	C 	0.06241 0.44577 0.57821 -0.05900
C 	C 	0.96364 0.45802 0.58247 0.09800
N 	N 	0.93089 0.52387 0.63945 -0.01600
H 	H 	0.82295 0.42270 0.53073 0.08000
H 	H 	0.16781 0.36999 0.51897 0.08100
N 	N 	0.05963 0.27304 0.40788 -0.02200
O 	O 	0.97134 0.62852 0.64777 -0.08100
O 	O 	0.85552 0.48183 0.67903 -0.08500
O 	O 	0.14162 0.30961 0.37445 -0.07900
O 	O 	0.01024 0.17442 0.39185 -0.08700
C 	C 	0.35208 0.99289 0.40611 -0.02800
C 	C 	0.41203 0.09813 0.41586 -0.06600
C 	C 	0.40127 0.15957 0.48016 0.10000
C 	C 	0.35254 0.10457 0.54076 -0.02900
C 	C 	0.30877 0.99113 0.53530 -0.06800
C 	C 	0.29278 0.94372 0.46447 0.10700
N 	N 	0.20653 0.86217 0.44928 -0.01500
H 	H 	0.35122 0.94996 0.35390 0.06800
H 	H 	0.35217 0.14852 0.59253 0.06200
N 	N 	0.43761 0.27783 0.48312 -0.01800
O 	O 	0.13073 0.85492 0.49190 -0.07000
O 	O 	0.19901 0.80635 0.38788 -0.08400
O 	O 	0.42415 0.34119 0.42784 -0.09100
O 	O 	0.48106 0.32274 0.54194 -0.09500
C 	C 	0.67117 0.01008 0.90662 -0.02900
C 	C 	0.61666 0.90209 0.91705 -0.06900
C 	C 	0.63178 0.84210 0.98106 0.10000
C 	C 	0.68440 0.89813 0.03958 -0.01900
C 	C 	0.72323 0.01301 0.03411 -0.06300
C 	C 	0.73008 0.06329 0.96379 0.09400
N 	N 	0.80612 0.15688 0.94764 -0.01600
H 	H 	0.66754 0.05260 0.85466 0.06100
H 	H 	0.68997 0.85399 0.09069 0.07400
N 	N 	0.59254 0.72485 0.98702 -0.01700
O 	O 	0.88994 0.16620 0.98068 -0.07800
O 	O 	0.79748 0.22111 0.89171 -0.08800
O 	O 	0.60377 0.65727 0.93353 -0.08500
O 	O 	0.54570 0.68560 0.04591 -0.07200
C 	C 	0.50340 0.38658 0.93202 -0.02800
C 	C 	0.40149 0.36743 0.93452 -0.06700
C 	C 	0.35310 0.28648 0.98426 0.09500
C 	C 	0.40722 0.24219 0.03854 -0.01500
C 	C 	0.50840 0.27990 0.04426 -0.07000
C 	C 	0.55637 0.35399 0.99064 0.09800
N 	N 	0.65329 0.41244 0.00288 -0.01600
H 	H 	0.54125 0.44189 0.89043 0.07000
H 	H 	0.37006 0.18183 0.07762 0.07400
N 	N 	0.25068 0.24516 0.97776 -0.01900
O 	O 	0.72389 0.39146 0.96171 -0.07300
O 	O 	0.66719 0.50075 0.04470 -0.05800
O 	O 	0.21614 0.19321 0.91831 -0.11000
O 	O 	0.19407 0.24707 0.03432 -0.07400
C 	C 	0.54203 0.61399 0.43246 -0.02900
C 	C 	0.64277 0.62238 0.44153 -0.07100
C 	C 	0.69093 0.69745 0.49471 0.09700
C 	C 	0.63568 0.74640 0.54600 -0.02100
C 	C 	0.53330 0.72142 0.54397 -0.07900
C 	C 	0.48663 0.65609 0.48588 0.10600
N 	N 	0.38299 0.62496 0.48413 -0.02400
H 	H 	0.50524 0.56350 0.38817 0.06900
H 	H 	0.67236 0.80065 0.58857 0.07200
N 	N 	0.79481 0.72894 0.49445 -0.01900
O 	O 	0.33025 0.69807 0.46515 -0.08200
O 	O 	0.34224 0.52072 0.49328 -0.07400
O 	O 	0.83887 0.77789 0.43704 -0.10100
O 	O 	0.84354 0.72348 0.55475 -0.07600
