data_crystal

_cell_length_a 48.33437
_cell_length_b 45.59469
_cell_length_c 22.68474
_cell_angle_alpha 89.98590
_cell_angle_beta  89.94857
_cell_angle_gamma 87.21118

_symmetry_space_group_name_	'P 1'
_symmetry_space_group_name_H-M	'P 1'

loop_
_symmetry_equiv_pos_as_xyz
  x,y,z

loop_
_atom_site_label
_atom_site_type_symbol
_atom_site_fract_x
_atom_site_fract_y
_atom_site_fract_z
_atom_site_charge
C 	C 	0.45499 0.53957 0.98315 -0.03900
C 	C 	0.47819 0.55659 0.98406 -0.03900
C 	C 	0.45799 0.50866 0.98298 0.00800
C 	C 	0.48484 0.49489 0.98553 -0.00500
C 	C 	0.50842 0.51216 0.98533 -0.00500
C 	C 	0.50508 0.54322 0.98458 0.00800
C 	C 	0.48816 0.46385 0.98797 0.00800
C 	C 	0.51504 0.45045 0.98827 -0.03900
C 	C 	0.53529 0.49835 0.98555 0.00800
C 	C 	0.52880 0.56030 0.98442 -0.00700
C 	C 	0.55524 0.54643 0.98431 -0.04600
C 	C 	0.55873 0.51581 0.98426 -0.00700
C 	C 	0.43459 0.49119 0.98079 -0.00700
C 	C 	0.43799 0.46063 0.98507 -0.04600
C 	C 	0.46440 0.44681 0.98928 -0.00700
C 	C 	0.52645 0.59276 0.98379 0.01200
C 	C 	0.52551 0.60786 0.92988 -0.04100
C 	C 	0.52822 0.63825 0.92857 -0.04300
C 	C 	0.53205 0.65376 0.98118 0.01700
C 	C 	0.53170 0.63882 0.03529 -0.04400
C 	C 	0.52890 0.60844 0.03656 -0.04200
C 	C 	0.58711 0.50244 0.98111 0.01200
C 	C 	0.60172 0.49559 0.03308 -0.04200
C 	C 	0.62975 0.48661 0.03048 -0.04400
C 	C 	0.60046 0.49938 0.92642 -0.04100
C 	C 	0.62853 0.49060 0.92378 -0.04300
C 	C 	0.64343 0.48472 0.97589 0.01700
C 	C 	0.40646 0.50445 0.97172 0.01200
C 	C 	0.38819 0.50786 0.01953 -0.04200
C 	C 	0.36086 0.51818 0.01028 -0.04400
C 	C 	0.35159 0.52508 0.95310 0.01800
C 	C 	0.37005 0.52227 0.90545 -0.04300
C 	C 	0.39738 0.51191 0.91472 -0.04000
C 	C 	0.46667 0.41449 0.99571 0.01300
C 	C 	0.46215 0.39652 0.94682 -0.04200
C 	C 	0.45965 0.36632 0.95433 -0.04000
C 	C 	0.46173 0.35382 0.01083 0.01500
C 	C 	0.46747 0.37164 0.05938 -0.04200
C 	C 	0.46982 0.40187 0.05186 -0.04300
C 	C 	0.53826 0.46744 0.98693 -0.04000
H 	H 	0.52359 0.59591 0.88893 0.04100
H 	H 	0.52813 0.64962 0.88663 0.04200
H 	H 	0.53456 0.65058 0.07616 0.04200
H 	H 	0.52964 0.59694 0.07837 0.04100
H 	H 	0.36306 0.52757 0.86116 0.04300
H 	H 	0.41139 0.50928 0.87758 0.04200
H 	H 	0.34677 0.52046 0.04737 0.04300
H 	H 	0.39509 0.50214 0.06367 0.04100
H 	H 	0.45966 0.40610 0.90332 0.04200
H 	H 	0.45526 0.35279 0.91654 0.04200
H 	H 	0.47331 0.41560 0.08985 0.04200
H 	H 	0.46947 0.36217 0.10307 0.04200
H 	H 	0.59150 0.49786 0.07548 0.04100
H 	H 	0.64100 0.48179 0.07090 0.04200
H 	H 	0.58928 0.50465 0.88611 0.04100
H 	H 	0.63888 0.48920 0.88143 0.04200
H 	H 	0.43465 0.55061 0.98319 0.04300
H 	H 	0.47506 0.58026 0.98436 0.04300
H 	H 	0.57333 0.55963 0.98367 0.04600
H 	H 	0.55858 0.45637 0.98704 0.04200
H 	H 	0.51812 0.42678 0.98893 0.04200
H 	H 	0.41990 0.44744 0.98471 0.04600
Zn	Zn	0.38500 0.09564 0.04183 1.22100
C 	C 	0.33459 0.06566 0.01911 0.32500
O 	O 	0.39934 0.07891 0.11682 -0.46500
O 	O 	0.35045 0.04579 0.99164 -0.44300
O 	O 	0.37670 0.03657 0.10862 -0.48800
C 	C 	0.40624 0.06798 0.93721 0.34900
O 	O 	0.38879 0.08853 0.95731 -0.45400
O 	O 	0.41309 0.04516 0.97013 -0.50600
C 	C 	0.38901 0.05571 0.14132 0.33200
O 	O 	0.42492 0.12337 0.03371 -0.33100
Zn	Zn	0.38748 0.03017 0.02740 1.17300
O 	O 	0.34578 0.08640 0.05015 -0.43500
C 	C 	0.40849 0.14572 0.04737 0.28700
O 	O 	0.38287 0.13986 0.05641 -0.38400
C 	C 	0.51125 0.01365 0.58284 0.01100
C 	C 	0.48709 0.03268 0.58229 0.01100
C 	C 	0.51441 0.99102 0.54095 -0.05300
C 	C 	0.49355 0.98688 0.49908 0.01000
C 	C 	0.46642 0.02883 0.53979 -0.05400
C 	C 	0.46936 0.00586 0.49860 0.01400
H 	H 	0.44807 0.04343 0.53914 0.05200
H 	H 	0.53288 0.97658 0.54121 0.05100
C 	C 	0.44822 0.00058 0.45766 -0.01500
C 	C 	0.45131 0.97826 0.41522 0.01000
C 	C 	0.43372 0.98313 0.36543 -0.05500
C 	C 	0.41786 0.00959 0.36831 0.01200
S 	S 	0.42584 0.02627 0.43103 0.00800
H 	H 	0.43480 0.96977 0.32606 0.04300
C 	C 	0.49593 0.96368 0.45788 -0.01200
C 	C 	0.47563 0.96001 0.41458 0.00800
C 	C 	0.48624 0.94531 0.36318 -0.05600
C 	C 	0.51477 0.93827 0.36579 0.01800
S 	S 	0.52593 0.95025 0.43053 -0.00800
H 	H 	0.47472 0.94393 0.32253 0.04600
C 	C 	0.52795 0.03915 0.67021 0.01000
C 	C 	0.53180 0.01798 0.62569 -0.01200
S 	S 	0.55349 0.99153 0.65182 -0.00800
C 	C 	0.56016 0.00625 0.71722 0.01900
C 	C 	0.54432 0.03271 0.72130 -0.05600
C 	C 	0.48423 0.05515 0.62505 -0.01200
C 	C 	0.50378 0.05766 0.67036 0.00800
C 	C 	0.49240 0.07142 0.72209 -0.05400
C 	C 	0.46402 0.07881 0.71776 0.01700
S 	S 	0.45388 0.06847 0.65098 -0.00800
H 	H 	0.50329 0.07207 0.76363 0.04900
H 	H 	0.54216 0.04479 0.76218 0.04800
Zn	Zn	0.59494 0.91598 0.03698 1.22100
C 	C 	0.64166 0.95312 0.04876 0.32800
O 	O 	0.57299 0.91990 0.11035 -0.45900
O 	O 	0.62533 0.97512 0.03029 -0.45000
O 	O 	0.59088 0.96326 0.13525 -0.48000
C 	C 	0.57812 0.95577 0.94471 0.35000
O 	O 	0.59588 0.93429 0.95917 -0.45200
O 	O 	0.56603 0.97201 0.98582 -0.50900
C 	C 	0.57704 0.94035 0.14973 0.33400
O 	O 	0.56122 0.88532 0.99830 -0.31800
Zn	Zn	0.58497 0.98092 0.05861 1.17600
O 	O 	0.63113 0.92834 0.06552 -0.43600
C 	C 	0.57956 0.86406 0.00759 0.28200
O 	O 	0.60277 0.87179 0.02990 -0.38500
Zn	Zn	0.09836 0.58835 0.95032 1.22300
C 	C 	0.05636 0.63530 0.96121 0.32900
O 	O 	0.09751 0.56477 0.02258 -0.45400
O 	O 	0.03822 0.61695 0.94216 -0.45500
O 	O 	0.05384 0.58020 0.04771 -0.49600
C 	C 	0.06607 0.56702 0.85611 0.34500
O 	O 	0.08209 0.58807 0.87184 -0.45400
O 	O 	0.05064 0.55450 0.89559 -0.51000
C 	C 	0.07813 0.56844 0.06276 0.33100
O 	O 	0.13325 0.55503 0.91384 -0.31100
Zn	Zn	0.03942 0.57375 0.96905 1.17000
O 	O 	0.08088 0.62532 0.97923 -0.44300
C 	C 	0.14988 0.57598 0.92386 0.28800
O 	O 	0.13838 0.59983 0.94549 -0.38700
C 	C 	0.02026 0.44660 0.39985 0.01200
C 	C 	0.04405 0.46374 0.40159 0.01300
C 	C 	0.00725 0.43884 0.45263 -0.05400
C 	C 	0.01904 0.44591 0.50710 0.01200
C 	C 	0.05415 0.47328 0.45601 -0.05400
C 	C 	0.04256 0.46344 0.50880 0.01100
H 	H 	0.07264 0.48579 0.45737 0.05100
H 	H 	0.98972 0.42490 0.45134 0.05200
C 	C 	0.05617 0.46723 0.56301 -0.01100
C 	C 	0.04742 0.45367 0.61492 0.00900
C 	C 	0.05611 0.46818 0.66683 -0.04800
C 	C 	0.07004 0.49376 0.65530 0.01400
S 	S 	0.07178 0.49761 0.58229 -0.00800
H 	H 	0.04945 0.46255 0.71073 0.05100
C 	C 	0.01038 0.43254 0.55954 -0.01300
C 	C 	0.02436 0.43604 0.61306 0.01200
C 	C 	0.00765 0.43026 0.66305 -0.05500
C 	C 	0.98052 0.42368 0.64850 0.02000
S 	S 	0.97769 0.42525 0.57525 -0.00500
H 	H 	0.01390 0.43421 0.70799 0.05100
C 	C 	0.02763 0.43843 0.29380 0.01000
C 	C 	0.01246 0.43426 0.34568 -0.01500
S 	S 	0.97993 0.42823 0.32636 0.00200
C 	C 	0.98417 0.42839 0.25338 0.01500
C 	C 	0.01167 0.43472 0.24179 -0.06000
C 	C 	0.05938 0.46724 0.34938 -0.01400
C 	C 	0.05161 0.45461 0.29594 0.00900
C 	C 	0.06336 0.46823 0.24599 -0.05500
C 	C 	0.07892 0.49224 0.26055 0.01200
S 	S 	0.07796 0.49614 0.33373 0.00600
H 	H 	0.05806 0.46314 0.20095 0.04400
H 	H 	0.01873 0.44013 0.19806 0.04500
Zn	Zn	0.89775 0.42048 0.96246 1.22200
C 	C 	0.84906 0.45863 0.95066 0.32900
O 	O 	0.92068 0.42482 0.89192 -0.46700
O 	O 	0.86349 0.48025 0.97064 -0.44700
O 	O 	0.90187 0.46983 0.86756 -0.47900
C 	C 	0.91253 0.45539 0.05923 0.34200
O 	O 	0.89399 0.43760 0.04044 -0.46400
O 	O 	0.92260 0.47449 0.02263 -0.49700
C 	C 	0.91529 0.44528 0.85232 0.33400
O 	O 	0.93270 0.38848 0.00284 -0.33200
Zn	Zn	0.90447 0.48473 0.94778 1.17100
O 	O 	0.86175 0.43439 0.93120 -0.44300
C 	C 	0.91578 0.36796 0.99162 0.28800
O 	O 	0.89256 0.37657 0.96732 -0.38800
C 	C 	0.93976 0.02250 0.06136 -0.04000
C 	C 	0.95627 0.04671 0.06324 -0.04000
C 	C 	0.95185 0.99382 0.05744 0.00700
C 	C 	0.98110 0.98970 0.05608 -0.00600
C 	C 	0.99787 0.01431 0.05809 -0.00600
C 	C 	0.98538 0.04300 0.06066 0.00700
C 	C 	0.99358 0.96104 0.05237 0.00700
C 	C 	0.02270 0.95723 0.05327 -0.04000
C 	C 	0.02712 0.01018 0.05721 0.00700
C 	C 	0.00229 0.06750 0.06080 -0.00700
C 	C 	0.03113 0.06323 0.06047 -0.04700
C 	C 	0.04370 0.03497 0.05819 -0.00700
C 	C 	0.93526 0.96908 0.05476 -0.00700
C 	C 	0.94780 0.94088 0.05033 -0.04700
C 	C 	0.97664 0.93664 0.04826 -0.00700
C 	C 	0.99015 0.09779 0.05781 0.01200
C 	C 	0.98194 0.10983 0.00333 -0.04200
C 	C 	0.97211 0.13908 0.99980 -0.04100
C 	C 	0.97061 0.15658 0.05069 0.01500
C 	C 	0.97843 0.14439 0.10536 -0.04200
C 	C 	0.98819 0.11508 0.10888 -0.04100
C 	C 	0.07424 0.03188 0.05455 0.01000
C 	C 	0.09024 0.03432 0.10570 -0.04000
C 	C 	0.11901 0.03577 0.10153 -0.04300
C 	C 	0.08728 0.02993 0.99933 -0.04000
C 	C 	0.11606 0.03134 0.99512 -0.04200
C 	C 	0.13198 0.03483 0.04612 0.01600
C 	C 	0.90468 0.97228 0.05496 0.01100
C 	C 	0.89017 0.97293 0.10855 -0.04100
C 	C 	0.86123 0.97293 0.10879 -0.04300
C 	C 	0.84661 0.97203 0.05541 0.01600
C 	C 	0.86115 0.97192 0.00179 -0.04400
C 	C 	0.89007 0.97208 0.00160 -0.04100
C 	C 	0.98867 0.90662 0.03912 0.01000
C 	C 	0.99629 0.89719 0.98229 -0.04000
C 	C 	0.00489 0.86790 0.97247 -0.04300
C 	C 	0.00576 0.84782 0.01937 0.01600
C 	C 	0.99883 0.85745 0.07648 -0.04300
C 	C 	0.99030 0.88675 0.08631 -0.04100
C 	C 	0.03922 0.98145 0.05567 -0.04000
H 	H 	0.98342 0.09657 0.96372 0.04300
H 	H 	0.96593 0.14826 0.95748 0.04200
H 	H 	0.97738 0.15775 0.14486 0.04200
H 	H 	0.99455 0.10592 0.15109 0.04100
H 	H 	0.85008 0.97118 0.96035 0.04300
H 	H 	0.90115 0.97145 0.96005 0.04200
H 	H 	0.85020 0.97330 0.15040 0.04200
H 	H 	0.90132 0.97302 0.14994 0.04100
H 	H 	0.99502 0.91242 0.94562 0.04100
H 	H 	0.01025 0.86065 0.92825 0.04200
H 	H 	0.98443 0.89390 0.13031 0.04100
H 	H 	0.99961 0.84211 0.11301 0.04200
H 	H 	0.08032 0.03587 0.14850 0.04100
H 	H 	0.13116 0.03819 0.14119 0.04300
H 	H 	0.07506 0.02812 0.95961 0.04200
H 	H 	0.12588 0.03051 0.95217 0.04200
H 	H 	0.91749 0.02624 0.06303 0.04200
H 	H 	0.94625 0.06838 0.06704 0.04200
H 	H 	0.04393 0.08213 0.06056 0.04600
H 	H 	0.06150 0.97767 0.05659 0.04200
H 	H 	0.03272 0.93549 0.05260 0.04200
H 	H 	0.93497 0.92205 0.04750 0.04500
C 	C 	0.93695 0.27803 0.02720 0.06600
N 	N 	0.95642 0.29859 0.03031 -0.11700
C 	C 	0.94994 0.32749 0.01981 0.06500
C 	C 	0.92275 0.33679 0.00478 -0.10000
C 	C 	0.90243 0.31598 0.00151 0.03200
C 	C 	0.90953 0.28650 0.01245 -0.08000
H 	H 	0.96604 0.34315 0.02226 0.03200
H 	H 	0.88127 0.32254 0.99011 0.03700
H 	H 	0.89400 0.27028 0.00835 0.05100
C 	C 	0.96188 0.18791 0.04633 -0.01700
C 	C 	0.93807 0.19888 0.07555 -0.01800
C 	C 	0.92982 0.22847 0.06996 -0.05900
C 	C 	0.94539 0.24682 0.03454 0.05200
N 	N 	0.96882 0.23581 0.00744 -0.10700
C 	C 	0.97725 0.20702 0.01245 0.02300
H 	H 	0.92596 0.18453 0.10223 0.03500
H 	H 	0.91157 0.23712 0.09305 0.04500
H 	H 	0.99592 0.19898 0.99012 0.03400
C 	C 	0.92646 0.44153 0.79207 -0.12600
C 	C 	0.93910 0.46484 0.76317 0.17100
C 	C 	0.95322 0.45959 0.70992 -0.10600
C 	C 	0.95717 0.43085 0.68837 -0.00300
C 	C 	0.94269 0.40815 0.71420 0.09400
C 	C 	0.92758 0.41351 0.76620 -0.02000
H 	H 	0.96325 0.47744 0.68830 0.07100
H 	H 	0.91763 0.39556 0.78765 0.05600
O 	O 	0.93707 0.49295 0.78614 -0.21600
O 	O 	0.94600 0.37984 0.69275 -0.18700
C 	C 	0.96113 0.49761 0.81939 -0.01700
H 	H 	0.97996 0.49697 0.79099 0.04000
H 	H 	0.96376 0.48158 0.85625 0.00900
H 	H 	0.95905 0.51983 0.83927 0.01300
C 	C 	0.92441 0.37523 0.65255 -0.02700
H 	H 	0.90382 0.37677 0.67472 0.04100
H 	H 	0.92732 0.35269 0.63444 0.04700
H 	H 	0.92481 0.39074 0.61465 0.04200
C 	C 	0.96153 0.43628 0.21221 -0.00200
C 	C 	0.94632 0.41418 0.18617 0.09400
C 	C 	0.92785 0.42130 0.14014 -0.02100
C 	C 	0.92598 0.44992 0.11702 -0.13000
C 	C 	0.93940 0.47249 0.14644 0.17100
C 	C 	0.95740 0.46548 0.19333 -0.10900
H 	H 	0.91626 0.40413 0.12024 0.05900
H 	H 	0.96873 0.48265 0.21396 0.06200
O 	O 	0.94847 0.38579 0.20766 -0.18700
O 	O 	0.93666 0.50112 0.12649 -0.21600
C 	C 	0.96778 0.36931 0.17283 -0.02900
H 	H 	0.96052 0.36756 0.12647 0.04700
H 	H 	0.96987 0.34670 0.19087 0.04900
H 	H 	0.98868 0.37854 0.17421 0.04300
C 	C 	0.91453 0.51554 0.15705 -0.01800
H 	H 	0.89458 0.50504 0.14855 0.03700
H 	H 	0.91221 0.53848 0.14080 0.03100
H 	H 	0.91874 0.51654 0.20527 0.03500
C 	C 	0.03374 0.72632 0.97806 0.06700
N 	N 	0.05696 0.71458 0.00470 -0.11900
C 	C 	0.06464 0.68560 0.99934 0.07300
C 	C 	0.04868 0.66699 0.96540 -0.11800
C 	C 	0.02512 0.67887 0.93637 0.03700
C 	C 	0.01765 0.70861 0.94256 -0.08600
H 	H 	0.08298 0.67699 0.02202 0.03400
H 	H 	0.01268 0.66517 0.90905 0.02600
H 	H 	0.99954 0.71788 0.91990 0.05000
C 	C 	0.01250 0.81649 0.00820 -0.01900
C 	C 	0.99221 0.79590 0.01480 -0.01800
C 	C 	0.99887 0.76632 0.00411 -0.05900
C 	C 	0.02586 0.75757 0.98652 0.05100
N 	N 	0.04540 0.77796 0.98071 -0.10800
C 	C 	0.03926 0.80698 0.99071 0.02300
H 	H 	0.97139 0.80280 0.02830 0.03400
H 	H 	0.98334 0.75025 0.01026 0.04300
H 	H 	0.05524 0.82264 0.98553 0.03200
C 	C 	0.06850 0.51905 0.69576 -0.00200
C 	C 	0.04275 0.52948 0.71889 0.09000
C 	C 	0.04204 0.54742 0.76902 -0.02200
C 	C 	0.06673 0.55582 0.79510 -0.13000
C 	C 	0.09222 0.54891 0.76666 0.16900
C 	C 	0.09299 0.53000 0.71782 -0.10600
H 	H 	0.02230 0.55344 0.78951 0.03900
H 	H 	0.11279 0.52265 0.69918 0.06900
O 	O 	0.01838 0.51894 0.69748 -0.19600
O 	O 	0.11674 0.55745 0.79100 -0.19500
C 	C 	0.00768 0.53855 0.65421 -0.02300
H 	H 	0.00203 0.56050 0.67345 0.03600
H 	H 	0.98848 0.52968 0.63611 0.04200
H 	H 	0.02237 0.54064 0.61676 0.04100
C 	C 	0.12442 0.58331 0.76247 -0.02400
H 	H 	0.12926 0.57918 0.71510 0.03900
H 	H 	0.14352 0.59081 0.78362 0.04900
H 	H 	0.10821 0.60139 0.76711 0.04900
C 	C 	0.08183 0.51697 0.21983 -0.00100
C 	C 	0.05966 0.53777 0.21109 0.09100
C 	C 	0.06038 0.55737 0.16349 -0.02900
C 	C 	0.08191 0.55477 0.12187 -0.12900
C 	C 	0.10554 0.53631 0.13475 0.16600
C 	C 	0.10503 0.51709 0.18290 -0.10700
H 	H 	0.04342 0.57349 0.15728 0.05100
H 	H 	0.12232 0.50146 0.19012 0.06900
O 	O 	0.03827 0.54034 0.25164 -0.18900
O 	O 	0.12817 0.53505 0.09740 -0.19100
C 	C 	0.01479 0.52720 0.22835 -0.02400
H 	H 	0.00510 0.54107 0.19293 0.03200
H 	H 	0.99928 0.52547 0.26411 0.04300
H 	H 	0.01952 0.50458 0.21158 0.03500
C 	C 	0.14717 0.55538 0.11721 -0.02300
H 	H 	0.13793 0.57825 0.11675 0.04600
H 	H 	0.16511 0.55474 0.08660 0.05100
H 	H 	0.15521 0.54954 0.16190 0.03900
C 	C 	0.72871 0.96310 0.05455 0.06800
N 	N 	0.71832 0.93629 0.04448 -0.11800
C 	C 	0.69052 0.93259 0.04316 0.07400
C 	C 	0.67178 0.95663 0.05244 -0.11600
C 	C 	0.68208 0.98421 0.06417 0.04100
C 	C 	0.71058 0.98745 0.06569 -0.08600
H 	H 	0.68301 0.91107 0.03406 0.03100
H 	H 	0.66806 0.00301 0.07255 0.02000
H 	H 	0.71854 0.00867 0.07583 0.05100
C 	C 	0.81615 0.97044 0.05564 -0.01800
C 	C 	0.79946 0.99183 0.02667 -0.01800
C 	C 	0.77081 0.98959 0.02598 -0.05900
C 	C 	0.75895 0.96610 0.05516 0.05100
N 	N 	0.77558 0.94533 0.08265 -0.10800
C 	C 	0.80362 0.94704 0.08360 0.02300
H 	H 	0.80868 0.01003 0.00455 0.03400
H 	H 	0.75793 0.00579 0.00245 0.04400
H 	H 	0.81622 0.93008 0.10561 0.03200
C 	C 	0.56637 0.98805 0.76946 -0.00400
C 	C 	0.59273 0.98802 0.79566 0.09300
C 	C 	0.59671 0.97626 0.85231 -0.02300
C 	C 	0.57462 0.96426 0.88264 -0.13000
C 	C 	0.54857 0.96306 0.85521 0.17100
C 	C 	0.54495 0.97382 0.79766 -0.10500
H 	H 	0.61672 0.97744 0.87347 0.05100
H 	H 	0.52495 0.97270 0.77640 0.06700
O 	O 	0.61392 0.00218 0.76848 -0.19000
O 	O 	0.52723 0.94935 0.88295 -0.20300
C 	C 	0.62949 0.98145 0.73439 -0.02600
H 	H 	0.63938 0.96386 0.76247 0.04200
H 	H 	0.64636 0.99283 0.71209 0.04500
H 	H 	0.61665 0.97176 0.69933 0.04200
C 	C 	0.50840 0.97101 0.90615 -0.01800
H 	H 	0.51863 0.98647 0.93616 0.03700
H 	H 	0.49257 0.95996 0.93240 0.03600
H 	H 	0.49734 0.98339 0.87027 0.03100
C 	C 	0.53221 0.93897 0.31273 -0.00300
C 	C 	0.54583 0.91313 0.29137 0.09200
C 	C 	0.56029 0.91369 0.23771 -0.01900
C 	C 	0.56204 0.94008 0.20633 -0.13100
C 	C 	0.54820 0.96589 0.22779 0.17300
C 	C 	0.53429 0.96540 0.28187 -0.10800
H 	H 	0.57023 0.89361 0.22069 0.05500
H 	H 	0.52430 0.98544 0.29888 0.06500
O 	O 	0.54294 0.88674 0.32017 -0.18800
O 	O 	0.54921 0.99200 0.19704 -0.23100
C 	C 	0.56588 0.88169 0.35784 -0.02700
H 	H 	0.58553 0.87891 0.33237 0.04100
H 	H 	0.56314 0.86095 0.38225 0.04600
H 	H 	0.56737 0.89947 0.39117 0.04200
C 	C 	0.52595 0.99466 0.15952 -0.01700
H 	H 	0.52631 0.97685 0.12592 0.00200
H 	H 	0.52658 0.01581 0.13547 0.01000
H 	H 	0.50620 0.99511 0.18489 0.02800
C 	C 	0.24792 0.05369 0.02520 0.06600
N 	N 	0.26099 0.06648 0.07103 -0.11800
C 	C 	0.28856 0.07129 0.06915 0.07300
C 	C 	0.30428 0.06317 0.01918 -0.11600
C 	C 	0.29104 0.05081 0.97094 0.03900
C 	C 	0.26277 0.04620 0.97372 -0.08200
H 	H 	0.29839 0.08076 0.10706 0.03100
H 	H 	0.30262 0.04472 0.93153 0.03100
H 	H 	0.25246 0.03692 0.93619 0.05100
C 	C 	0.16198 0.03904 0.04126 -0.01800
C 	C 	0.17982 0.01670 0.01869 -0.01800
C 	C 	0.20801 0.02130 0.01313 -0.06100
C 	C 	0.21813 0.04846 0.02968 0.05200
N 	N 	0.20047 0.06978 0.05237 -0.10700
C 	C 	0.17288 0.06571 0.05821 0.02300
H 	H 	0.17188 0.99583 0.00576 0.03400
H 	H 	0.22193 0.00384 0.99668 0.04500
H 	H 	0.15938 0.08326 0.07570 0.03300
C 	C 	0.44577 0.07744 0.76954 -0.00300
C 	C 	0.44257 0.10162 0.80789 0.09300
C 	C 	0.42946 0.09839 0.86255 -0.02100
C 	C 	0.41927 0.07126 0.87897 -0.12900
C 	C 	0.42209 0.04718 0.84002 0.17200
C 	C 	0.43431 0.05078 0.78460 -0.10700
H 	H 	0.42776 0.11686 0.89265 0.05700
H 	H 	0.43617 0.03230 0.75457 0.06700
O 	O 	0.45444 0.12774 0.79431 -0.18900
O 	O 	0.41091 0.02074 0.85428 -0.21400
C 	C 	0.43458 0.14599 0.76471 -0.02600
H 	H 	0.42794 0.13593 0.72259 0.04300
H 	H 	0.44415 0.16690 0.75343 0.04600
H 	H 	0.41632 0.15153 0.79331 0.04300
C 	C 	0.43253 0.00070 0.87188 -0.01700
H 	H 	0.44536 0.99339 0.83338 0.03400
H 	H 	0.42322 0.98097 0.89060 0.02500
H 	H 	0.44589 0.00980 0.90674 0.03200
C 	C 	0.39412 0.04925 0.20422 -0.13200
C 	C 	0.37479 0.03386 0.23731 0.16800
C 	C 	0.38250 0.02174 0.29198 -0.10900
C 	C 	0.40890 0.02580 0.31505 -0.00100
C 	C 	0.42751 0.04307 0.28403 0.09100
C 	C 	0.41961 0.05553 0.22965 -0.02600
H 	H 	0.36811 0.00859 0.31582 0.06700
H 	H 	0.43399 0.06870 0.20586 0.05200
O 	O 	0.34916 0.02838 0.21389 -0.20100
O 	O 	0.45255 0.04963 0.30906 -0.18700
C 	C 	0.33030 0.05154 0.23016 -0.02200
H 	H 	0.32786 0.05298 0.27892 0.03900
H 	H 	0.30972 0.04711 0.21143 0.04700
H 	H 	0.33646 0.07291 0.21174 0.04500
C 	C 	0.47382 0.03150 0.28358 -0.02500
H 	H 	0.46951 0.00777 0.28596 0.03500
H 	H 	0.49322 0.03448 0.30847 0.04500
H 	H 	0.47759 0.03798 0.23710 0.03400
C 	C 	0.44302 0.26411 0.03255 0.05100
N 	N 	0.42825 0.28581 0.06175 -0.10700
C 	C 	0.43436 0.31452 0.05628 0.02300
C 	C 	0.45614 0.32252 0.01963 -0.01900
C 	C 	0.47161 0.30057 0.98933 -0.01700
C 	C 	0.46496 0.27129 0.99542 -0.05700
H 	H 	0.42196 0.33121 0.07959 0.03300
H 	H 	0.48847 0.30622 0.96063 0.03500
H 	H 	0.47639 0.25440 0.97060 0.04500
C 	C 	0.41773 0.17613 0.04570 -0.09700
C 	C 	0.44599 0.18156 0.04825 0.03100
C 	C 	0.45447 0.21030 0.04444 -0.08000
C 	C 	0.43459 0.23351 0.03726 0.06600
N 	N 	0.40716 0.22786 0.03617 -0.11500
C 	C 	0.39842 0.19998 0.04014 0.06600
H 	H 	0.46132 0.16362 0.05345 0.03400
H 	H 	0.47628 0.21453 0.04743 0.05000
H 	H 	0.37646 0.19636 0.03823 0.03800
C 	C 	0.26674 0.55045 0.92720 0.05200
N 	N 	0.27446 0.52277 0.94536 -0.10700
C 	C 	0.30155 0.51426 0.95352 0.02400
C 	C 	0.32231 0.53401 0.94286 -0.01800
C 	C 	0.31489 0.56231 0.92276 -0.01800
C 	C 	0.28701 0.57059 0.91467 -0.05900
H 	H 	0.30697 0.49215 0.96837 0.03400
H 	H 	0.33062 0.57785 0.91386 0.03500
H 	H 	0.28117 0.59245 0.89892 0.04500
C 	C 	0.18023 0.57113 0.92062 -0.09600
C 	C 	0.19764 0.59072 0.94788 0.03000
C 	C 	0.22615 0.58461 0.94847 -0.08000
C 	C 	0.23715 0.55898 0.92134 0.06600
N 	N 	0.21996 0.54047 0.89404 -0.11500
C 	C 	0.19206 0.54609 0.89265 0.06600
H 	H 	0.18909 0.61022 0.96983 0.03700
H 	H 	0.23953 0.59921 0.97137 0.05100
H 	H 	0.17905 0.53088 0.87046 0.04000
C 	C 	0.73081 0.46972 0.96526 0.05100
N 	N 	0.71947 0.49258 0.99722 -0.10800
C 	C 	0.69155 0.49732 0.00203 0.02200
C 	C 	0.67366 0.47862 0.97353 -0.01700
C 	C 	0.68487 0.45502 0.94046 -0.01900
C 	C 	0.71353 0.45063 0.93588 -0.05800
H 	H 	0.68325 0.51591 0.02721 0.03200
H 	H 	0.67144 0.44037 0.91785 0.03500
H 	H 	0.72224 0.43285 0.90897 0.04500
C 	C 	0.81858 0.46095 0.95300 -0.11600
C 	C 	0.80350 0.43587 0.96188 0.04200
C 	C 	0.77471 0.43848 0.96556 -0.08400
C 	C 	0.76113 0.46622 0.95947 0.06800
N 	N 	0.77617 0.49039 0.95112 -0.11900
C 	C 	0.80431 0.48834 0.94766 0.07400
H 	H 	0.81405 0.41451 0.96708 0.03100
H 	H 	0.76308 0.41921 0.97410 0.05200
H 	H 	0.81557 0.50799 0.94056 0.02100
C 	C 	0.56024 0.77434 0.98778 0.06700
N 	N 	0.54054 0.79629 0.97896 -0.11500
C 	C 	0.54643 0.82509 0.98420 0.06400
C 	C 	0.57323 0.83287 0.99980 -0.09100
C 	C 	0.59374 0.81057 0.00920 0.02800
C 	C 	0.58724 0.78125 0.00350 -0.08000
H 	H 	0.53021 0.84189 0.97679 0.03900
H 	H 	0.61458 0.81588 0.02131 0.03900
H 	H 	0.60294 0.76401 0.01203 0.05100
C 	C 	0.53868 0.68505 0.97934 -0.01700
C 	C 	0.56248 0.69368 0.95012 -0.01800
C 	C 	0.56946 0.72297 0.95182 -0.05900
C 	C 	0.55270 0.74346 0.98347 0.05300
N 	N 	0.52920 0.73480 0.01031 -0.10800
C 	C 	0.52197 0.70629 0.00903 0.02100
H 	H 	0.57571 0.67767 0.92686 0.03500
H 	H 	0.58779 0.72970 0.92896 0.04600
H 	H 	0.50334 0.70010 0.03143 0.03300
