data_crystal

_cell_length_a 26.06385
_cell_length_b 26.42739
_cell_length_c 35.11665
_cell_angle_alpha 95.49224
_cell_angle_beta  95.49104
_cell_angle_gamma 125.84029

_symmetry_space_group_name_	'P 1'
_symmetry_space_group_name_H-M	'P 1'

loop_
_symmetry_equiv_pos_as_xyz
  x,y,z

loop_
_atom_site_label
_atom_site_type_symbol
_atom_site_fract_x
_atom_site_fract_y
_atom_site_fract_z
_atom_site_charge
C 	C 	0.95447 0.99994 0.00641 0.17500
N 	N 	0.01706 0.03768 0.00202 -0.12600
C 	C 	0.05073 0.01346 0.00001 0.15700
N 	N 	0.02084 0.95079 0.99995 -0.11800
C 	C 	0.95787 0.91257 0.00288 0.16000
N 	N 	0.92507 0.93733 0.00685 -0.13200
C 	C 	0.94443 0.02110 0.45502 0.14000
N 	N 	0.00774 0.05221 0.45309 -0.12400
C 	C 	0.03481 0.02139 0.45423 0.15700
N 	N 	0.99830 0.95886 0.45617 -0.12700
C 	C 	0.93488 0.92714 0.45763 0.16100
N 	N 	0.90809 0.95850 0.45773 -0.10900
Cu	Cu	0.62213 0.21113 0.99610 0.93200
Cu	Cu	0.66586 0.20930 0.91194 0.89100
Cu	Cu	0.66441 0.31435 0.94683 0.90100
Cu	Cu	0.63914 0.33667 0.02568 0.90200
C 	C 	0.65052 0.25992 0.07827 0.33100
O 	O 	0.53147 0.18286 0.99849 -0.33900
C 	C 	0.64019 0.27221 0.86091 0.32900
O 	O 	0.68257 0.31060 0.00030 -0.63800
O 	O 	0.61237 0.21977 0.94093 -0.63600
O 	O 	0.65280 0.15745 0.99064 -0.35300
O 	O 	0.72465 0.22075 0.95422 -0.41000
O 	O 	0.62682 0.29116 0.07017 -0.38100
O 	O 	0.71989 0.40632 0.95605 -0.36300
C 	C 	0.72019 0.44367 0.98409 0.31500
C 	C 	0.51125 0.21463 0.98565 0.30600
O 	O 	0.55341 0.27325 0.98119 -0.38600
O 	O 	0.68111 0.42069 0.00940 -0.37500
O 	O 	0.64587 0.21869 0.05092 -0.35800
C 	C 	0.70446 0.17701 0.97574 0.31000
O 	O 	0.65805 0.31784 0.89054 -0.37800
O 	O 	0.62729 0.21765 0.86661 -0.40500
H 	H 	0.72892 0.33445 0.01146 0.18200
H 	H 	0.56752 0.19681 0.92685 0.19500
Cu	Cu	0.74804 0.36275 0.45987 0.93100
Cu	Cu	0.74874 0.32939 0.54735 0.88900
Cu	Cu	0.64119 0.32458 0.50677 0.90200
Cu	Cu	0.61993 0.34155 0.42506 0.90900
C 	C 	0.70065 0.32681 0.37688 0.32900
O 	O 	0.77683 0.45110 0.45335 -0.34600
C 	C 	0.68310 0.36019 0.59312 0.33000
O 	O 	0.64699 0.30275 0.45451 -0.63900
O 	O 	0.73729 0.37728 0.51399 -0.63700
O 	O 	0.80184 0.33244 0.46988 -0.35600
O 	O 	0.73684 0.26687 0.50836 -0.41000
O 	O 	0.66727 0.34930 0.38179 -0.36900
O 	O 	0.54798 0.26841 0.49650 -0.35900
C 	C 	0.51048 0.26513 0.46669 0.31400
C 	C 	0.74219 0.47066 0.46148 0.30400
O 	O 	0.68318 0.42970 0.46680 -0.37200
O 	O 	0.53432 0.30203 0.44057 -0.37000
O 	O 	0.74226 0.33481 0.40608 -0.35900
C 	C 	0.78086 0.28320 0.48694 0.30800
O 	O 	0.63572 0.33414 0.56260 -0.37900
O 	O 	0.73887 0.37190 0.58960 -0.40900
H 	H 	0.62374 0.25666 0.44506 0.18100
H 	H 	0.75931 0.42226 0.52607 0.18300
C 	C 	0.70363 0.38350 0.70214 0.01500
C 	C 	0.73177 0.36155 0.72447 -0.03300
C 	C 	0.71691 0.34817 0.76107 -0.03200
C 	C 	0.67391 0.35691 0.77587 0.01500
C 	C 	0.64738 0.38096 0.75417 -0.03200
C 	C 	0.66198 0.39401 0.71732 -0.03100
C 	C 	0.65736 0.34154 0.81430 0.01600
C 	C 	0.63667 0.28220 0.82268 -0.16000
C 	C 	0.71990 0.39726 0.66345 0.01600
C 	C 	0.67131 0.36969 0.63022 -0.16000
H 	H 	0.76479 0.35432 0.71328 0.05200
H 	H 	0.73891 0.33111 0.77800 0.05200
H 	H 	0.61500 0.38889 0.76562 0.05600
H 	H 	0.64135 0.41264 0.70079 0.05400
H 	H 	0.66285 0.37717 0.83620 0.05400
H 	H 	0.62324 0.24456 0.79899 0.09500
H 	H 	0.76974 0.42093 0.66020 0.04800
H 	H 	0.62257 0.35145 0.63352 0.09600
C 	C 	0.66930 0.29096 0.26694 0.01700
C 	C 	0.62049 0.23987 0.23774 -0.03200
C 	C 	0.62543 0.24212 0.19852 -0.03000
C 	C 	0.67883 0.29599 0.18816 0.01600
C 	C 	0.72901 0.34577 0.21743 -0.03100
C 	C 	0.72453 0.34309 0.25667 -0.03000
C 	C 	0.67737 0.30496 0.14734 0.01900
C 	C 	0.66671 0.25919 0.11723 -0.15900
C 	C 	0.65774 0.29442 0.30711 0.01900
C 	C 	0.70337 0.30802 0.33900 -0.15600
H 	H 	0.57764 0.19946 0.24534 0.05500
H 	H 	0.58621 0.20352 0.17616 0.05800
H 	H 	0.77039 0.38759 0.20976 0.05600
H 	H 	0.76239 0.38300 0.27896 0.06000
H 	H 	0.68439 0.34779 0.14082 0.04300
H 	H 	0.67088 0.22240 0.12424 0.10000
H 	H 	0.61326 0.28688 0.31176 0.04600
H 	H 	0.74182 0.30445 0.33419 0.10000
C 	C 	0.89467 0.85802 0.45608 -0.02800
C 	C 	0.86678 0.83186 0.48810 0.12500
C 	C 	0.83895 0.76788 0.48900 -0.06300
C 	C 	0.84011 0.73012 0.45866 0.01600
C 	C 	0.86622 0.75578 0.42616 0.09900
C 	C 	0.89251 0.81915 0.42481 -0.03600
H 	H 	0.81805 0.74800 0.51380 0.08800
C 	C 	0.81411 0.66384 0.46110 0.03000
H 	H 	0.91372 0.83899 0.40007 0.08300
C 	C 	0.75321 0.61391 0.43945 -0.08200
C 	C 	0.73026 0.55079 0.43825 0.15400
C 	C 	0.76706 0.53698 0.46070 -0.09700
C 	C 	0.82770 0.58696 0.48277 -0.00700
C 	C 	0.85154 0.65021 0.48286 0.08300
H 	H 	0.72473 0.62428 0.42225 0.09500
H 	H 	0.85636 0.57670 0.49987 0.06400
Br	Br	0.86921 0.70588 0.38418 -0.18600
Br	Br	0.86944 0.88342 0.53181 -0.17600
Br	Br	0.65161 0.48483 0.40293 -0.23800
Br	Br	0.93591 0.71732 0.51207 -0.18800
C 	C 	0.91790 0.05748 0.45906 -0.01800
C 	C 	0.85648 0.03373 0.43833 0.11100
C 	C 	0.83360 0.07017 0.44246 -0.05800
C 	C 	0.87285 0.13175 0.46501 0.01200
C 	C 	0.93503 0.15636 0.48436 0.10300
C 	C 	0.95644 0.11869 0.48220 -0.05200
H 	H 	0.78581 0.05116 0.42737 0.08600
C 	C 	0.84744 0.16904 0.46989 0.03100
H 	H 	0.00375 0.13751 0.49805 0.09700
C 	C 	0.83351 0.17971 0.50606 -0.08300
C 	C 	0.81598 0.22022 0.51273 0.15400
C 	C 	0.80628 0.24598 0.48178 -0.09900
C 	C 	0.81913 0.23435 0.44531 -0.00600
C 	C 	0.84071 0.19703 0.43945 0.08200
H 	H 	0.83956 0.15904 0.52969 0.09300
H 	H 	0.81240 0.25432 0.42148 0.07300
Br	Br	0.99252 0.24233 0.51266 -0.18900
Br	Br	0.80539 0.95462 0.40175 -0.17100
Br	Br	0.81343 0.24556 0.56527 -0.26300
Br	Br	0.86276 0.18663 0.39016 -0.19000
C 	C 	0.10445 0.05677 0.45661 -0.03300
C 	C 	0.14584 0.08037 0.49299 0.12400
C 	C 	0.21208 0.11292 0.49478 -0.06600
C 	C 	0.23750 0.12257 0.46052 0.01500
C 	C 	0.19603 0.09867 0.42412 0.10000
C 	C 	0.12975 0.06599 0.42234 -0.03600
H 	H 	0.24393 0.13137 0.52283 0.08700
C 	C 	0.30769 0.15940 0.46308 0.02900
H 	H 	0.09789 0.04763 0.39430 0.08100
C 	C 	0.33611 0.12787 0.46211 -0.08200
C 	C 	0.40253 0.16202 0.46364 0.15000
C 	C 	0.44109 0.22848 0.46655 -0.09300
C 	C 	0.41268 0.26001 0.46803 -0.00600
C 	C 	0.34633 0.22586 0.46637 0.08500
H 	H 	0.30641 0.07669 0.45962 0.09100
H 	H 	0.44224 0.31117 0.47039 0.07300
Br	Br	0.22918 0.11064 0.37661 -0.18300
Br	Br	0.11279 0.06928 0.54053 -0.18400
Br	Br	0.43912 0.11675 0.45989 -0.22200
Br	Br	0.30913 0.27066 0.46823 -0.17900
C 	C 	0.92415 0.84388 0.99894 -0.03600
C 	C 	0.90880 0.80625 0.96244 0.12500
C 	C 	0.87765 0.74096 0.95929 -0.06600
C 	C 	0.86089 0.71265 0.99217 0.01300
C 	C 	0.87644 0.75031 0.02869 0.10200
C 	C 	0.90783 0.81567 0.03188 -0.03300
H 	H 	0.86544 0.71200 0.93113 0.08500
C 	C 	0.82474 0.64326 0.98785 0.02900
H 	H 	0.91974 0.84458 0.06001 0.08500
C 	C 	0.85820 0.61713 0.99277 -0.08300
C 	C 	0.82447 0.55158 0.99057 0.15000
C 	C 	0.75661 0.51166 0.98308 -0.09600
C 	C 	0.72326 0.53770 0.97711 -0.00600
C 	C 	0.75695 0.60316 0.97941 0.08300
H 	H 	0.91042 0.64792 0.99901 0.09000
H 	H 	0.67103 0.50705 0.97113 0.06900
Br	Br	0.85465 0.71315 0.07440 -0.18200
Br	Br	0.92799 0.84284 0.91638 -0.19600
Br	Br	0.87187 0.51788 0.99963 -0.22500
Br	Br	0.70959 0.63718 0.97163 -0.18300
C 	C 	0.91618 0.02474 0.00607 -0.06000
C 	C 	0.94187 0.08572 0.02692 0.12800
C 	C 	0.90610 0.10957 0.02346 -0.07400
C 	C 	0.84322 0.07170 0.00160 0.03200
C 	C 	0.81588 0.00920 0.98324 0.06600
C 	C 	0.85278 0.98662 0.98477 -0.00200
H 	H 	0.92690 0.15732 0.03821 0.09100
C 	C 	0.80816 0.09933 0.99548 0.01900
H 	H 	0.83213 0.93931 0.96928 0.07800
C 	C 	0.79885 0.11224 0.95871 -0.08000
C 	C 	0.76189 0.13395 0.95129 0.15300
C 	C 	0.73823 0.14817 0.98190 -0.10200
C 	C 	0.74811 0.13582 0.01886 -0.00400
C 	C 	0.78203 0.11059 0.02560 0.08600
H 	H 	0.81808 0.10274 0.93534 0.09000
H 	H 	0.72946 0.14584 0.04238 0.07300
Br	Br	0.72764 0.95344 0.95664 -0.16600
Br	Br	0.02255 0.13471 0.06304 -0.16800
Br	Br	0.73839 0.13670 0.89836 -0.26900
Br	Br	0.79035 0.08994 0.07567 -0.18900
C 	C 	0.11972 0.05501 0.99877 -0.03200
C 	C 	0.16535 0.06679 0.03023 0.12700
C 	C 	0.22921 0.09589 0.02603 -0.06300
C 	C 	0.24843 0.11465 0.99088 0.01400
C 	C 	0.20364 0.10611 0.96013 0.10000
C 	C 	0.13948 0.07625 0.96419 -0.03500
H 	H 	0.26391 0.10362 0.05004 0.08700
C 	C 	0.31519 0.14200 0.98634 0.02900
H 	H 	0.10460 0.06781 0.94003 0.08300
C 	C 	0.32884 0.10290 0.96769 -0.08300
C 	C 	0.39256 0.12667 0.96599 0.15100
C 	C 	0.44344 0.18977 0.98405 -0.10000
C 	C 	0.42945 0.22929 0.00168 -0.00400
C 	C 	0.36573 0.20582 0.00270 0.08300
H 	H 	0.28988 0.05398 0.95453 0.09100
H 	H 	0.46825 0.27808 0.01520 0.06000
Br	Br	0.22914 0.13457 0.91241 -0.18500
Br	Br	0.14134 0.04398 0.07930 -0.18200
Br	Br	0.40858 0.07344 0.93693 -0.22000
Br	Br	0.34857 0.26169 0.02652 -0.18100
