data_crystal

_cell_length_a 18.84592
_cell_length_b 16.30718
_cell_length_c 40.04075
_cell_angle_alpha 90.90621
_cell_angle_beta  91.29476
_cell_angle_gamma 111.05912

_symmetry_space_group_name_	'P 1'
_symmetry_space_group_name_H-M	'P 1'

loop_
_symmetry_equiv_pos_as_xyz
  x,y,z

loop_
_atom_site_label
_atom_site_type_symbol
_atom_site_fract_x
_atom_site_fract_y
_atom_site_fract_z
_atom_site_charge
Ni	Ni	0.71213 0.31513 0.88675 1.10200
O 	O 	0.62467 0.22321 0.86024 -0.70300
Ni	Ni	0.53536 0.23829 0.88124 1.10500
O 	O 	0.78976 0.28211 0.86018 -0.35400
O 	O 	0.73456 0.13757 0.87380 -0.39300
O 	O 	0.70635 0.39898 0.85008 -0.38900
Ni	Ni	0.61718 0.10265 0.86627 1.07400
O 	O 	0.72672 0.45183 0.95041 -0.41300
O 	O 	0.61066 0.11089 0.91685 -0.41000
O 	O 	0.45579 0.15400 0.84982 -0.36700
O 	O 	0.62247 0.31634 0.91208 -0.70100
O 	O 	0.79933 0.41488 0.91103 -0.37100
O 	O 	0.45539 0.28534 0.89897 -0.35900
O 	O 	0.53726 0.42497 0.89308 -0.40600
Ni	Ni	0.63561 0.43939 0.92038 1.07500
H 	H 	0.62509 0.23617 0.83615 0.16900
H 	H 	0.62256 0.28809 0.93377 0.16100
C 	C 	0.54666 0.10478 0.93053 0.29500
O 	O 	0.70672 0.51207 0.88482 -0.38900
C 	C 	0.78534 0.19990 0.85720 0.27700
C 	C 	0.45287 0.07246 0.84478 0.27900
C 	C 	0.71967 0.48280 0.85563 0.30400
C 	C 	0.47227 0.37028 0.90362 0.28000
C 	C 	0.79338 0.45710 0.93887 0.29600
O 	O 	0.50267 0.14314 0.91707 -0.36100
O 	O 	0.50063 0.04232 0.86101 -0.39400
Ni	Ni	0.61528 0.34739 0.56792 1.10000
O 	O 	0.70108 0.36163 0.53524 -0.69900
Ni	Ni	0.77564 0.32814 0.56335 1.10000
O 	O 	0.56401 0.41679 0.54002 -0.36500
O 	O 	0.67705 0.52930 0.53655 -0.40600
O 	O 	0.54536 0.23640 0.54187 -0.36400
Ni	Ni	0.75207 0.47715 0.51630 1.07500
O 	O 	0.52320 0.17871 0.60441 -0.39300
O 	O 	0.83305 0.54995 0.55097 -0.38600
O 	O 	0.86764 0.35879 0.53256 -0.36700
O 	O 	0.68566 0.30414 0.59450 -0.70000
O 	O 	0.53265 0.32310 0.60230 -0.37200
O 	O 	0.83017 0.27334 0.59617 -0.35600
O 	O 	0.72781 0.14477 0.59593 -0.39700
Ni	Ni	0.63174 0.17845 0.60029 1.07200
H 	H 	0.68295 0.31852 0.51642 0.15700
H 	H 	0.70037 0.33603 0.61630 0.16500
C 	C 	0.86611 0.51791 0.57386 0.29300
O 	O 	0.61756 0.15257 0.55037 -0.41300
C 	C 	0.60444 0.49417 0.52865 0.28300
C 	C 	0.88219 0.41688 0.50841 0.28700
C 	C 	0.56643 0.17109 0.53265 0.29400
C 	C 	0.79612 0.19374 0.60743 0.28000
C 	C 	0.50509 0.24509 0.61602 0.28000
O 	O 	0.82627 0.44536 0.58873 -0.38600
O 	O 	0.82646 0.43376 0.49284 -0.41100
Ni	Ni	0.01261 0.93888 0.76245 1.09900
O 	O 	0.01663 0.86074 0.72279 -0.70500
Ni	Ni	0.08312 0.95112 0.69238 1.10000
O 	O 	0.94352 0.83293 0.78793 -0.34900
O 	O 	0.85769 0.78679 0.74380 -0.38800
O 	O 	0.10637 0.91618 0.78045 -0.37300
Ni	Ni	0.91890 0.80188 0.70006 1.07300
O 	O 	0.07467 0.15943 0.77935 -0.39300
O 	O 	0.90177 0.91668 0.69209 -0.39900
O 	O 	0.09164 0.86409 0.65699 -0.35800
O 	O 	0.06339 0.02923 0.72867 -0.69600
O 	O 	0.01847 0.02237 0.80205 -0.35700
O 	O 	0.17095 0.05173 0.67166 -0.35200
O 	O 	0.22901 0.09797 0.72278 -0.39900
Ni	Ni	0.14763 0.12383 0.75080 1.07500
H 	H 	0.04068 0.81788 0.72884 0.17100
H 	H 	0.02607 0.05483 0.72064 0.16000
C 	C 	0.93670 0.97019 0.66858 0.28400
O 	O 	0.17278 0.06123 0.79044 -0.37300
C 	C 	0.88409 0.77223 0.77306 0.27300
C 	C 	0.02876 0.79740 0.64837 0.27300
C 	C 	0.17063 0.98022 0.78805 0.28700
C 	C 	0.22990 0.10322 0.68999 0.26800
C 	C 	0.02128 0.10362 0.79752 0.28400
O 	O 	0.00657 0.97828 0.66080 -0.36400
O 	O 	0.96139 0.80250 0.65357 -0.39300
Ni	Ni	0.25382 0.70612 0.38962 1.10200
O 	O 	0.34374 0.77464 0.36138 -0.70400
Ni	Ni	0.42990 0.76307 0.38798 1.10400
O 	O 	0.18155 0.72964 0.35581 -0.36000
O 	O 	0.24320 0.87948 0.36006 -0.39000
O 	O 	0.25338 0.60353 0.35967 -0.39300
Ni	Ni	0.35967 0.89814 0.35764 1.07100
O 	O 	0.23064 0.59880 0.45953 -0.41400
O 	O 	0.36713 0.92056 0.40821 -0.40600
O 	O 	0.51182 0.82229 0.35506 -0.36900
O 	O 	0.34134 0.70975 0.41934 -0.70100
O 	O 	0.16151 0.62791 0.41592 -0.37000
O 	O 	0.50323 0.71812 0.41417 -0.36200
O 	O 	0.41338 0.58152 0.41115 -0.40800
Ni	Ni	0.32047 0.59058 0.43515 1.07500
H 	H 	0.34097 0.74779 0.33880 0.16900
H 	H 	0.34406 0.74933 0.43865 0.16300
C 	C 	0.42641 0.92167 0.42631 0.29000
O 	O 	0.24542 0.50626 0.40110 -0.39200
C 	C 	0.18571 0.80941 0.34846 0.27700
C 	C 	0.51897 0.89961 0.34275 0.27800
C 	C 	0.23682 0.52307 0.36962 0.30900
C 	C 	0.48147 0.63428 0.42103 0.28100
C 	C 	0.16492 0.58662 0.44398 0.29600
O 	O 	0.46905 0.87782 0.41642 -0.36400
O 	O 	0.47690 0.94447 0.35389 -0.39200
Ni	Ni	0.36056 0.66262 0.05639 1.10100
O 	O 	0.26451 0.64904 0.02849 -0.70300
Ni	Ni	0.20069 0.68067 0.06208 1.10000
O 	O 	0.40040 0.59279 0.02331 -0.36800
O 	O 	0.28617 0.47988 0.02174 -0.40500
O 	O 	0.42250 0.77358 0.03079 -0.36400
Ni	Ni	0.20627 0.53436 0.00809 1.07400
O 	O 	0.46475 0.83018 0.09389 -0.39800
O 	O 	0.13302 0.46060 0.04296 -0.38300
O 	O 	0.09839 0.64956 0.03611 -0.37100
O 	O 	0.30085 0.70558 0.08850 -0.70200
O 	O 	0.45404 0.68614 0.08664 -0.37300
O 	O 	0.15942 0.73621 0.09965 -0.35800
O 	O 	0.26029 0.86562 0.09717 -0.40200
Ni	Ni	0.35638 0.83136 0.09564 1.07000
H 	H 	0.27628 0.69294 0.01069 0.15900
H 	H 	0.29413 0.67378 0.10975 0.16700
C 	C 	0.11281 0.49013 0.07058 0.29200
O 	O 	0.35460 0.85744 0.04633 -0.41300
C 	C 	0.35630 0.51486 0.01177 0.27600
C 	C 	0.07809 0.59995 0.00843 0.28700
C 	C 	0.40110 0.84095 0.02587 0.29300
C 	C 	0.19560 0.81779 0.11028 0.28100
C 	C 	0.48556 0.76345 0.10208 0.28100
O 	O 	0.15960 0.56247 0.08547 -0.38400
O 	O 	0.12892 0.58325 0.98999 -0.40800
Ni	Ni	0.96704 0.05717 0.26235 1.10000
O 	O 	0.96419 0.13928 0.22520 -0.71200
Ni	Ni	0.90924 0.05393 0.18903 1.10100
O 	O 	0.02414 0.16266 0.29289 -0.35400
O 	O 	0.11961 0.21002 0.25565 -0.40100
O 	O 	0.86460 0.05702 0.28063 -0.35900
Ni	Ni	0.06589 0.20447 0.20918 1.07000
O 	O 	0.87141 0.86225 0.28636 -0.40100
O 	O 	0.09316 0.09676 0.19765 -0.40000
O 	O 	0.90314 0.14741 0.15655 -0.35500
O 	O 	0.92792 0.96949 0.22362 -0.69000
O 	O 	0.97719 0.98026 0.29978 -0.36700
O 	O 	0.82824 0.96153 0.15895 -0.35000
O 	O 	0.80305 0.83664 0.18833 -0.38600
Ni	Ni	0.84177 0.86769 0.23735 1.07900
H 	H 	0.93669 0.17866 0.23129 0.17300
H 	H 	0.96885 0.94842 0.21722 0.16000
C 	C 	0.05892 0.04210 0.17287 0.29000
O 	O 	0.78348 0.94881 0.24555 -0.40900
C 	C 	0.08871 0.22102 0.28370 0.28200
C 	C 	0.96644 0.21592 0.15171 0.27400
C 	C 	0.79557 0.99971 0.27252 0.28300
C 	C 	0.77892 0.88779 0.17004 0.28700
C 	C 	0.94253 0.89545 0.29745 0.28700
O 	O 	0.99328 0.04018 0.16046 -0.36200
O 	O 	0.03338 0.21301 0.16079 -0.39200
C 	C 	0.04775 0.42795 0.08951 -0.06000
C 	C 	0.03587 0.44512 0.12333 0.00100
C 	C 	0.99413 0.37468 0.14350 -0.00400
C 	C 	0.96553 0.28817 0.13007 -0.06100
C 	C 	0.96157 0.27555 0.09512 0.00600
C 	C 	0.00057 0.34647 0.07460 0.00300
C 	C 	0.05883 0.53451 0.13639 0.09200
C 	C 	0.91980 0.18936 0.08044 0.10300
C 	C 	0.98624 0.33837 0.03875 0.09200
C 	C 	0.98362 0.39040 0.17843 0.06000
N 	N 	0.97468 0.33196 0.01014 -0.11100
N 	N 	0.97524 0.40307 0.20632 -0.11600
N 	N 	0.88639 0.12048 0.06874 -0.09600
N 	N 	0.07669 0.60555 0.14717 -0.10000
C 	C 	0.56028 0.78392 0.11906 -0.06200
C 	C 	0.62705 0.81350 0.10043 0.00500
C 	C 	0.69893 0.84423 0.11697 0.00500
C 	C 	0.70399 0.84789 0.15230 -0.06100
C 	C 	0.63716 0.81121 0.17073 0.00200
C 	C 	0.56538 0.78127 0.15412 -0.00100
C 	C 	0.62162 0.81363 0.06421 0.09900
C 	C 	0.64216 0.80120 0.20654 0.07400
C 	C 	0.49661 0.74889 0.17317 0.06900
C 	C 	0.76740 0.86789 0.09770 0.10300
N 	N 	0.44175 0.72314 0.18835 -0.11900
N 	N 	0.82201 0.88675 0.08232 -0.09600
N 	N 	0.64545 0.79238 0.23509 -0.12300
N 	N 	0.61718 0.81375 0.03533 -0.10400
C 	C 	0.15215 0.86449 0.12705 -0.06000
C 	C 	0.11324 0.90689 0.10756 0.00600
C 	C 	0.09122 0.97267 0.12208 0.00100
C 	C 	0.09639 0.98600 0.15717 -0.06900
C 	C 	0.13128 0.93927 0.17712 0.00100
C 	C 	0.16132 0.88075 0.16184 -0.00000
C 	C 	0.09719 0.88381 0.07232 0.09200
C 	C 	0.13686 0.95176 0.21317 0.07800
C 	C 	0.20423 0.83985 0.18164 0.07600
C 	C 	0.06809 0.03045 0.10081 0.10900
N 	N 	0.23883 0.80731 0.19727 -0.11300
N 	N 	0.04972 0.07656 0.08384 -0.09700
N 	N 	0.14152 0.96197 0.24192 -0.11900
N 	N 	0.08438 0.86529 0.04423 -0.10700
C 	C 	0.59081 0.94843 0.32594 -0.05800
C 	C 	0.66089 0.97297 0.34399 0.00700
C 	C 	0.72981 0.99783 0.32678 -0.00200
C 	C 	0.72871 0.00108 0.29151 -0.05500
C 	C 	0.65970 0.99174 0.27428 0.00200
C 	C 	0.59041 0.96199 0.29127 -0.00100
C 	C 	0.66191 0.97193 0.38022 0.09900
C 	C 	0.66028 0.01456 0.23940 0.09000
C 	C 	0.51884 0.94291 0.27293 0.07100
C 	C 	0.80136 0.01892 0.34534 0.10300
N 	N 	0.46171 0.92762 0.25828 -0.12200
N 	N 	0.85849 0.03600 0.36016 -0.09300
N 	N 	0.66074 0.03268 0.21156 -0.11500
N 	N 	0.66262 0.97107 0.40912 -0.10000
C 	C 	0.20310 0.44939 0.34534 -0.06900
C 	C 	0.13741 0.44293 0.32604 0.00600
C 	C 	0.09705 0.36494 0.30807 -0.00200
C 	C 	0.12757 0.29825 0.30532 -0.06700
C 	C 	0.19616 0.30691 0.32245 0.00400
C 	C 	0.23382 0.38234 0.34263 0.00500
C 	C 	0.11266 0.51709 0.32352 0.09000
C 	C 	0.22680 0.23722 0.32001 0.09300
C 	C 	0.30549 0.39247 0.35955 0.08300
C 	C 	0.02304 0.35242 0.29292 0.07500
N 	N 	0.36265 0.40033 0.37300 -0.11100
N 	N 	0.96390 0.34227 0.28097 -0.11200
N 	N 	0.25119 0.18159 0.31805 -0.10900
N 	N 	0.09171 0.57531 0.32106 -0.10000
C 	C 	0.11523 0.82026 0.33593 -0.05600
C 	C 	0.08883 0.79468 0.30270 0.00400
C 	C 	0.02023 0.80233 0.29111 -0.00200
C 	C 	0.98019 0.83909 0.31222 -0.07100
C 	C 	0.99896 0.84873 0.34665 0.01500
C 	C 	0.06788 0.84238 0.35844 -0.00000
C 	C 	0.13194 0.76028 0.28062 0.09000
C 	C 	0.94812 0.86712 0.36972 0.09800
C 	C 	0.08942 0.85718 0.39365 0.09300
C 	C 	0.99295 0.77695 0.25697 0.06100
N 	N 	0.10662 0.86893 0.42175 -0.10700
N 	N 	0.97121 0.75679 0.22970 -0.12900
N 	N 	0.90749 0.88160 0.38819 -0.09800
N 	N 	0.16631 0.73246 0.26311 -0.10600
C 	C 	0.45312 0.98440 0.45470 -0.07500
C 	C 	0.47181 0.07447 0.44928 -0.01300
C 	C 	0.50756 0.13661 0.47469 0.04500
C 	C 	0.52250 0.10816 0.50631 -0.07600
C 	C 	0.49970 0.01789 0.51218 -0.00600
C 	C 	0.46640 0.95611 0.48652 0.04000
S 	S 	0.53736 0.24936 0.46587 -0.05900
S 	S 	0.44241 0.84367 0.49455 -0.06700
H 	H 	0.50286 0.81935 0.48721 0.04900
H 	H 	0.48185 0.28110 0.47437 0.05600
H 	H 	0.46163 0.09638 0.42482 0.04600
H 	H 	0.50958 0.99574 0.53665 0.04100
C 	C 	0.09339 0.53259 0.46004 -0.06900
C 	C 	0.09307 0.52362 0.49491 -0.01700
C 	C 	0.02583 0.47581 0.51083 0.03200
C 	C 	0.95650 0.44281 0.49209 -0.06100
C 	C 	0.95804 0.44505 0.45711 -0.01900
C 	C 	0.02618 0.48689 0.44096 0.04000
S 	S 	0.03098 0.45139 0.55327 -0.00400
S 	S 	0.02735 0.47387 0.39734 -0.01000
H 	H 	0.00836 0.53862 0.38252 0.05300
H 	H 	0.06302 0.52773 0.57177 0.03800
H 	H 	0.14520 0.55351 0.50972 0.04900
H 	H 	0.90595 0.41394 0.44237 0.05400
C 	C 	0.57338 0.53118 0.50133 -0.08700
C 	C 	0.59411 0.52178 0.46846 -0.02300
C 	C 	0.56737 0.55903 0.44205 0.03900
C 	C 	0.51984 0.60678 0.44852 -0.08400
C 	C 	0.49995 0.61712 0.48146 -0.03200
C 	C 	0.52634 0.57948 0.50785 0.04200
S 	S 	0.59313 0.54470 0.40098 -0.03200
S 	S 	0.49945 0.59249 0.54885 -0.03700
H 	H 	0.43428 0.52361 0.55565 0.04400
H 	H 	0.54035 0.46994 0.38684 0.04700
H 	H 	0.63079 0.48507 0.46345 0.00600
H 	H 	0.46182 0.65198 0.48639 0.01100
C 	C 	0.84137 0.15010 0.62548 -0.06000
C 	C 	0.81305 0.10637 0.65504 -0.00100
C 	C 	0.83355 0.03554 0.66497 0.00400
C 	C 	0.89784 0.02388 0.65105 -0.06200
C 	C 	0.92775 0.06874 0.62147 0.00200
C 	C 	0.90082 0.13340 0.60930 0.00500
C 	C 	0.75994 0.13179 0.67448 0.06800
C 	C 	0.97835 0.04084 0.60129 0.10500
C 	C 	0.93250 0.18041 0.57944 0.09800
C 	C 	0.77990 0.96599 0.68356 0.09000
N 	N 	0.95778 0.21776 0.55561 -0.10000
N 	N 	0.73644 0.91036 0.69816 -0.10300
N 	N 	0.01863 0.01862 0.58511 -0.08900
N 	N 	0.71757 0.15208 0.69000 -0.11900
C 	C 	0.30196 0.15716 0.67329 -0.06000
C 	C 	0.37432 0.17636 0.68945 0.00100
C 	C 	0.44092 0.20604 0.67065 -0.00100
C 	C 	0.43661 0.22436 0.63657 -0.06000
C 	C 	0.36583 0.21661 0.62160 0.00600
C 	C 	0.29891 0.18560 0.64022 0.00100
C 	C 	0.38137 0.17454 0.72554 0.09000
C 	C 	0.36155 0.23851 0.58682 0.10000
C 	C 	0.22842 0.18917 0.62626 0.09400
C 	C 	0.51411 0.21802 0.68648 0.06800
N 	N 	0.17222 0.19215 0.61512 -0.10300
N 	N 	0.57248 0.22758 0.69911 -0.11900
N 	N 	0.35823 0.25600 0.55907 -0.10200
N 	N 	0.38740 0.17384 0.75435 -0.11200
C 	C 	0.93947 0.57799 0.58967 -0.06900
C 	C 	0.98315 0.65580 0.57348 0.00600
C 	C 	0.02936 0.72934 0.59286 0.00100
C 	C 	0.03206 0.72367 0.62780 -0.06200
C 	C 	0.00828 0.63993 0.64185 -0.01300
C 	C 	0.96105 0.56619 0.62283 0.00300
C 	C 	0.98306 0.65876 0.53732 0.08500
C 	C 	0.02809 0.63101 0.67641 0.05900
C 	C 	0.94178 0.47890 0.63602 0.08900
C 	C 	0.07017 0.81182 0.57723 0.10000
N 	N 	0.92675 0.40939 0.64674 -0.10400
N 	N 	0.10285 0.87772 0.56475 -0.09800
N 	N 	0.04399 0.62392 0.70401 -0.11500
N 	N 	0.98304 0.66135 0.50845 -0.11100
C 	C 	0.00228 0.58333 0.99329 -0.06400
C 	C 	0.99626 0.60262 0.95959 -0.01500
C 	C 	0.92674 0.56684 0.94202 0.04200
C 	C 	0.86291 0.50887 0.95805 -0.07400
C 	C 	0.86688 0.49797 0.99262 -0.01000
C 	C 	0.93583 0.53699 0.01050 0.03200
S 	S 	0.91972 0.59819 0.90057 -0.00800
S 	S 	0.93731 0.53060 0.05431 -0.02100
H 	H 	0.92737 0.60290 0.06819 0.05300
H 	H 	0.94777 0.55010 0.87994 0.05400
H 	H 	0.04630 0.64345 0.94680 0.05300
H 	H 	0.81674 0.45773 0.00548 0.04400
C 	C 	0.51531 0.03824 0.95587 -0.06900
C 	C 	0.49407 0.94900 0.94680 -0.01900
C 	C 	0.45548 0.88376 0.96908 0.04800
C 	C 	0.44096 0.90790 0.00153 -0.07200
C 	C 	0.46420 0.99741 0.01083 -0.02800
C 	C 	0.50017 0.06246 0.98805 0.05400
S 	S 	0.42087 0.77302 0.95513 -0.05200
S 	S 	0.52640 0.17396 0.00023 -0.05700
H 	H 	0.59941 0.20413 0.01318 0.03800
H 	H 	0.47396 0.73593 0.96236 0.05300
H 	H 	0.50463 0.93035 0.92181 0.04300
H 	H 	0.45401 0.01645 0.03581 0.04900
C 	C 	0.43339 0.40079 0.92985 -0.08800
C 	C 	0.42481 0.36167 0.96124 -0.03300
C 	C 	0.39896 0.39787 0.98816 0.04100
C 	C 	0.38110 0.47380 0.98371 -0.08300
C 	C 	0.38657 0.51074 0.95206 -0.02800
C 	C 	0.41225 0.47448 0.92509 0.03400
S 	S 	0.39178 0.34930 0.02752 -0.03000
S 	S 	0.41485 0.51980 0.88532 -0.02400
H 	H 	0.34665 0.47833 0.86865 0.04400
H 	H 	0.45945 0.38635 0.04506 0.03800
H 	H 	0.44090 0.30490 0.96502 0.04600
H 	H 	0.37037 0.56742 0.94837 0.02900
C 	C 	0.84679 0.18001 0.84067 -0.05900
C 	C 	0.82834 0.11568 0.81476 0.00300
C 	C 	0.88543 0.08983 0.80116 0.00400
C 	C 	0.96194 0.13160 0.81203 -0.06500
C 	C 	0.98113 0.19865 0.83699 0.00600
C 	C 	0.92348 0.22218 0.85164 0.00600
C 	C 	0.75059 0.07705 0.80172 0.06800
C 	C 	0.05977 0.24164 0.84824 0.09400
C 	C 	0.94280 0.28803 0.87849 0.09800
C 	C 	0.86537 0.01908 0.77637 0.07100
N 	N 	0.95819 0.34059 0.89989 -0.10600
N 	N 	0.84948 0.96233 0.75668 -0.12000
N 	N 	0.12252 0.27593 0.85722 -0.10900
N 	N 	0.68862 0.04628 0.79131 -0.12600
C 	C 	0.38065 0.00815 0.83139 -0.04000
C 	C 	0.31689 0.98093 0.85191 -0.00600
C 	C 	0.24338 0.95744 0.83729 0.01200
C 	C 	0.23458 0.95953 0.80236 -0.06600
C 	C 	0.29616 0.96450 0.78220 0.00900
C 	C 	0.37009 0.99083 0.79672 -0.01500
C 	C 	0.32731 0.98138 0.88790 0.09900
C 	C 	0.28339 0.94327 0.74678 0.07700
C 	C 	0.43515 0.00361 0.77605 0.09100
C 	C 	0.17739 0.93507 0.85804 0.09700
N 	N 	0.48713 0.01392 0.75954 -0.11200
N 	N 	0.12464 0.91720 0.87458 -0.10000
N 	N 	0.27320 0.92615 0.71849 -0.11700
N 	N 	0.33547 0.98167 0.91664 -0.10500
C 	C 	0.83889 0.69432 0.79194 -0.06000
C 	C 	0.86909 0.62879 0.79904 -0.00500
C 	C 	0.82591 0.55353 0.81644 0.00500
C 	C 	0.75497 0.54719 0.82940 -0.06600
C 	C 	0.72299 0.61043 0.82072 0.00400
C 	C 	0.76523 0.68447 0.80236 0.00200
C 	C 	0.94531 0.63952 0.78892 0.07900
C 	C 	0.64601 0.59827 0.83005 0.08300
C 	C 	0.73389 0.75180 0.79521 0.09500
C 	C 	0.85415 0.48241 0.82031 0.08800
N 	N 	0.70878 0.80544 0.78954 -0.10300
N 	N 	0.87773 0.42635 0.82305 -0.09900
N 	N 	0.58458 0.58859 0.83747 -0.10900
N 	N 	0.00618 0.64822 0.78094 -0.11100
