data_crystal

_cell_length_a 18.33198
_cell_length_b 16.18124
_cell_length_c 37.71511
_cell_angle_alpha 90.89746
_cell_angle_beta  91.34053
_cell_angle_gamma 111.30903

_symmetry_space_group_name_	'P 1'
_symmetry_space_group_name_H-M	'P 1'

loop_
_symmetry_equiv_pos_as_xyz
  x,y,z

loop_
_atom_site_label
_atom_site_type_symbol
_atom_site_fract_x
_atom_site_fract_y
_atom_site_fract_z
_atom_site_charge
Ni	Ni	0.74115 0.33390 0.89817 1.10200
O 	O 	0.64075 0.25274 0.87254 -0.70500
Ni	Ni	0.56013 0.27069 0.90303 1.10400
O 	O 	0.80761 0.30118 0.86178 -0.35300
O 	O 	0.74686 0.15375 0.87324 -0.38500
O 	O 	0.73327 0.43143 0.86582 -0.36800
Ni	Ni	0.62640 0.12799 0.87026 1.07600
O 	O 	0.78637 0.45496 0.97317 -0.39400
O 	O 	0.62139 0.11230 0.92378 -0.39200
O 	O 	0.46583 0.19946 0.87158 -0.36200
O 	O 	0.66044 0.33402 0.93278 -0.70200
O 	O 	0.84061 0.42364 0.92211 -0.35900
O 	O 	0.49301 0.32592 0.93084 -0.35500
O 	O 	0.58587 0.46417 0.92528 -0.39800
Ni	Ni	0.68641 0.45667 0.94910 1.07700
H 	H 	0.63585 0.27351 0.84836 0.18000
H 	H 	0.66395 0.29757 0.95313 0.16700
C 	C 	0.55701 0.10484 0.94005 0.28700
O 	O 	0.75421 0.53378 0.91088 -0.38800
C 	C 	0.79867 0.21774 0.85568 0.29200
C 	C 	0.46246 0.12468 0.85537 0.29900
C 	C 	0.74822 0.51369 0.87676 0.31500
C 	C 	0.51623 0.41261 0.93531 0.27000
C 	C 	0.84732 0.45242 0.95551 0.28900
O 	O 	0.52715 0.16728 0.93787 -0.35800
O 	O 	0.50633 0.08031 0.86685 -0.39200
Ni	Ni	0.59716 0.30265 0.52171 1.10100
O 	O 	0.69660 0.32773 0.49332 -0.69900
Ni	Ni	0.76811 0.29934 0.52857 1.10100
O 	O 	0.54960 0.37108 0.48891 -0.36200
O 	O 	0.66048 0.49512 0.49245 -0.39200
O 	O 	0.53471 0.19213 0.49017 -0.35600
Ni	Ni	0.74755 0.44920 0.47683 1.07500
O 	O 	0.49977 0.12861 0.55921 -0.38200
O 	O 	0.81534 0.52263 0.51878 -0.38400
O 	O 	0.87455 0.34634 0.50364 -0.35700
O 	O 	0.66407 0.26154 0.55451 -0.69400
O 	O 	0.50207 0.27035 0.55292 -0.36700
O 	O 	0.81689 0.24461 0.56703 -0.34300
O 	O 	0.71738 0.11150 0.55877 -0.37800
Ni	Ni	0.61298 0.13337 0.55872 1.08900
H 	H 	0.68609 0.28582 0.47276 0.16300
H 	H 	0.66999 0.29155 0.57806 0.17800
C 	C 	0.84304 0.49102 0.54570 0.30600
O 	O 	0.60889 0.11189 0.50567 -0.40000
C 	C 	0.58673 0.45515 0.48234 0.27300
C 	C 	0.89364 0.41154 0.48066 0.28300
C 	C 	0.55312 0.12134 0.48614 0.29000
C 	C 	0.77883 0.16306 0.57731 0.29600
C 	C 	0.47922 0.19504 0.57013 0.29800
O 	O 	0.80098 0.41403 0.55841 -0.37200
O 	O 	0.84013 0.42190 0.45899 -0.39800
Ni	Ni	0.01718 0.95355 0.75351 1.10200
O 	O 	0.00846 0.86032 0.71514 -0.70900
Ni	Ni	0.06432 0.93779 0.67608 1.10200
O 	O 	0.95884 0.85633 0.78796 -0.33700
O 	O 	0.85452 0.80071 0.74844 -0.39600
O 	O 	0.12219 0.94431 0.76843 -0.37600
Ni	Ni	0.90109 0.79699 0.69851 1.06900
O 	O 	0.07637 0.17877 0.75650 -0.37000
O 	O 	0.87854 0.90863 0.68594 -0.39900
O 	O 	0.06170 0.83772 0.64232 -0.35300
O 	O 	0.05523 0.02964 0.71165 -0.69600
O 	O 	0.03334 0.05295 0.79039 -0.34700
O 	O 	0.14495 0.02934 0.64568 -0.32800
O 	O 	0.22132 0.09712 0.69443 -0.40100
Ni	Ni	0.14531 0.13477 0.72548 1.08600
H 	H 	0.03463 0.81898 0.72215 0.16700
H 	H 	0.01279 0.05082 0.70524 0.18400
C 	C 	0.91283 0.95928 0.65964 0.29200
O 	O 	0.18449 0.09424 0.77036 -0.38200
C 	C 	0.89041 0.79492 0.77863 0.28400
C 	C 	0.99467 0.76958 0.63786 0.28700
C 	C 	0.18626 0.01465 0.77371 0.31900
C 	C 	0.21157 0.08561 0.65960 0.28700
C 	C 	0.03015 0.13004 0.78108 0.29700
O 	O 	0.97517 0.95191 0.64567 -0.34000
O 	O 	0.92787 0.77693 0.64734 -0.38900
Ni	Ni	0.22633 0.66571 0.39913 1.10200
O 	O 	0.32515 0.72332 0.37103 -0.70500
Ni	Ni	0.40701 0.71405 0.40449 1.10600
O 	O 	0.16087 0.68520 0.35799 -0.35800
O 	O 	0.23021 0.83516 0.35991 -0.38900
O 	O 	0.22115 0.55086 0.37376 -0.36800
Ni	Ni	0.34839 0.84704 0.36078 1.07400
O 	O 	0.18130 0.57540 0.47741 -0.39600
O 	O 	0.35639 0.88612 0.41291 -0.40100
O 	O 	0.49796 0.76043 0.37082 -0.34700
O 	O 	0.31043 0.67501 0.43566 -0.69900
O 	O 	0.12438 0.59921 0.42501 -0.36100
O 	O 	0.47353 0.66849 0.43801 -0.34900
O 	O 	0.37428 0.53374 0.44032 -0.39500
Ni	Ni	0.28071 0.56201 0.45989 1.07500
H 	H 	0.32421 0.68963 0.34877 0.18100
H 	H 	0.31340 0.72252 0.45311 0.16100
C 	C 	0.41920 0.89532 0.43234 0.29200
O 	O 	0.20921 0.47157 0.42405 -0.39300
C 	C 	0.17082 0.76523 0.34719 0.29700
C 	C 	0.50921 0.83367 0.35271 0.29000
C 	C 	0.21617 0.47746 0.38964 0.31800
C 	C 	0.44724 0.58524 0.44771 0.26700
C 	C 	0.11896 0.56118 0.45622 0.29100
O 	O 	0.45196 0.83527 0.43101 -0.35500
O 	O 	0.46871 0.88550 0.35962 -0.39100
Ni	Ni	0.38181 0.69913 0.01889 1.10300
O 	O 	0.27259 0.66164 0.99547 -0.70000
Ni	Ni	0.21088 0.69306 0.03336 1.10100
O 	O 	0.42161 0.62654 0.98455 -0.35800
O 	O 	0.31689 0.49993 0.99366 -0.38800
O 	O 	0.42819 0.80246 0.98429 -0.35600
Ni	Ni	0.22119 0.53619 0.98194 1.07600
O 	O 	0.48281 0.88212 0.05524 -0.40400
O 	O 	0.16634 0.46917 0.02577 -0.38000
O 	O 	0.09782 0.63601 0.01295 -0.36500
O 	O 	0.32298 0.74210 0.05461 -0.69700
O 	O 	0.48748 0.74440 0.04511 -0.35000
O 	O 	0.17092 0.75358 0.07297 -0.34100
O 	O 	0.26189 0.88711 0.05953 -0.40400
Ni	Ni	0.36872 0.87143 0.05783 1.07500
H 	H 	0.27377 0.69822 0.97454 0.16400
H 	H 	0.32638 0.71680 0.07805 0.17900
C 	C 	0.15105 0.50385 0.05524 0.30900
O 	O 	0.36114 0.88565 0.00491 -0.40700
C 	C 	0.38548 0.54062 0.97983 0.27200
C 	C 	0.07420 0.57079 0.98873 0.29100
C 	C 	0.41448 0.87672 0.98468 0.30100
C 	C 	0.20571 0.83933 0.07979 0.29000
C 	C 	0.50836 0.81858 0.06441 0.29300
O 	O 	0.19257 0.58623 0.06503 -0.36500
O 	O 	0.12355 0.55805 0.96628 -0.39900
Ni	Ni	0.95869 0.03353 0.26058 1.09800
O 	O 	0.97316 0.12944 0.22443 -0.71600
Ni	Ni	0.92429 0.05757 0.18125 1.10400
O 	O 	0.01350 0.13016 0.29810 -0.34200
O 	O 	0.12276 0.17268 0.26489 -0.40100
O 	O 	0.84904 0.03134 0.27448 -0.35600
Ni	Ni	0.08356 0.19037 0.21424 1.07100
O 	O 	0.85875 0.82005 0.27172 -0.39900
O 	O 	0.10567 0.08009 0.19830 -0.40200
O 	O 	0.93347 0.16416 0.15059 -0.33100
O 	O 	0.92777 0.95861 0.21507 -0.68800
O 	O 	0.95093 0.94194 0.29743 -0.36400
O 	O 	0.84778 0.97659 0.14359 -0.33400
O 	O 	0.80130 0.84202 0.16850 -0.39200
Ni	Ni	0.83582 0.85000 0.22135 1.07600
H 	H 	0.94709 0.17125 0.23087 0.17200
H 	H 	0.97153 0.93914 0.20956 0.14600
C 	C 	0.07711 0.03900 0.16797 0.31600
O 	O 	0.77046 0.92156 0.23626 -0.39100
C 	C 	0.08690 0.18160 0.29376 0.28900
C 	C 	0.00286 0.23004 0.14970 0.28800
C 	C 	0.78242 0.96384 0.26717 0.29900
C 	C 	0.78796 0.90646 0.15237 0.30300
C 	C 	0.92748 0.85853 0.28783 0.29900
O 	O 	0.01419 0.04549 0.15325 -0.35000
O 	O 	0.06669 0.21933 0.16270 -0.37800
C 	C 	0.06496 0.39089 0.14097 -0.04000
C 	C 	0.01404 0.30811 0.12750 -0.06300
C 	C 	0.99699 0.29767 0.09067 0.12300
C 	C 	0.03724 0.36603 0.06788 -0.02600
C 	C 	0.09867 0.44246 0.08102 -0.07400
C 	C 	0.11228 0.45470 0.11825 0.13200
Br	Br	0.20232 0.54786 0.13897 -0.20000
H 	H 	0.07614 0.40059 0.16938 0.05400
H 	H 	0.02362 0.35746 0.03962 0.07400
Br	Br	0.92235 0.18937 0.07055 -0.17300
C 	C 	0.62348 0.93016 0.09618 -0.03300
C 	C 	0.57619 0.84074 0.08940 -0.08200
C 	C 	0.59341 0.77380 0.10729 0.12600
C 	C 	0.66302 0.79584 0.12735 -0.03300
C 	C 	0.71249 0.88510 0.13267 -0.07600
C 	C 	0.68884 0.95258 0.11921 0.13000
Br	Br	0.73716 0.07381 0.13573 -0.21000
H 	H 	0.60835 0.98255 0.08429 0.07300
H 	H 	0.67774 0.74342 0.13946 0.07100
Br	Br	0.51893 0.65410 0.10854 -0.23400
C 	C 	0.15929 0.96285 0.08970 -0.05100
C 	C 	0.16800 0.88589 0.10244 -0.07100
C 	C 	0.15375 0.86426 0.13835 0.11000
C 	C 	0.12944 0.91872 0.16072 -0.02600
C 	C 	0.12092 0.99560 0.14774 -0.10500
C 	C 	0.13935 0.01938 0.11243 0.14800
Br	Br	0.13985 0.13057 0.09496 -0.19300
H 	H 	0.17118 0.98066 0.06227 0.08100
H 	H 	0.11513 0.89993 0.18788 0.05700
Br	Br	0.16882 0.76239 0.15760 -0.20100
C 	C 	0.57430 0.90041 0.29734 -0.03900
C 	C 	0.58074 0.87074 0.33162 -0.07400
C 	C 	0.65593 0.88435 0.34646 0.12900
C 	C 	0.72253 0.92075 0.32590 -0.03800
C 	C 	0.71547 0.94615 0.29094 -0.07400
C 	C 	0.64108 0.93922 0.27724 0.12400
Br	Br	0.62983 0.98648 0.23188 -0.21900
H 	H 	0.51729 0.89405 0.28635 0.05700
H 	H 	0.77958 0.92713 0.33685 0.08900
Br	Br	0.66989 0.85894 0.39520 -0.18600
C 	C 	0.19296 0.32449 0.31071 -0.04200
C 	C 	0.12992 0.24945 0.32097 -0.08000
C 	C 	0.10684 0.24306 0.35660 0.12400
C 	C 	0.13762 0.31706 0.37952 -0.02900
C 	C 	0.19537 0.39523 0.36803 -0.08400
C 	C 	0.22728 0.39594 0.33443 0.13100
Br	Br	0.32072 0.49095 0.32129 -0.24900
H 	H 	0.21467 0.32788 0.28409 0.05800
H 	H 	0.11608 0.31395 0.40617 0.07900
Br	Br	0.04206 0.13197 0.37585 -0.18100
C 	C 	0.04055 0.77701 0.35197 -0.03200
C 	C 	0.10301 0.77900 0.33081 -0.07600
C 	C 	0.09683 0.78624 0.29387 0.12000
C 	C 	0.03100 0.79823 0.27879 -0.03700
C 	C 	0.97247 0.80598 0.30047 -0.09600
C 	C 	0.97516 0.78977 0.33691 0.13400
Br	Br	0.89199 0.79039 0.36678 -0.19900
H 	H 	0.04338 0.76692 0.38024 0.07200
H 	H 	0.02858 0.80911 0.25057 0.04100
Br	Br	0.17895 0.78339 0.26379 -0.24000
C 	C 	0.50146 0.04582 0.46604 -0.02100
C 	C 	0.46118 0.97844 0.45043 -0.03900
C 	C 	0.97530 0.46165 0.47459 -0.03300
C 	C 	0.04210 0.50656 0.46770 -0.02400
C 	C 	0.50121 0.54553 0.45994 -0.02800
C 	C 	0.54238 0.50671 0.47017 -0.03400
C 	C 	0.89447 0.15187 0.60966 -0.02400
C 	C 	0.81299 0.12392 0.60512 -0.07500
C 	C 	0.76476 0.05167 0.62462 0.13800
C 	C 	0.79797 0.99936 0.64321 -0.04000
C 	C 	0.87944 0.02242 0.64489 -0.06500
C 	C 	0.92782 0.10378 0.63070 0.13700
Br	Br	0.03654 0.15777 0.64416 -0.24600
H 	H 	0.93209 0.21100 0.59686 0.09100
H 	H 	0.76030 0.94042 0.65610 0.07700
Br	Br	0.65466 0.02755 0.62857 -0.27000
C 	C 	0.34015 0.17248 0.58043 -0.02700
C 	C 	0.41290 0.17550 0.59393 -0.08000
C 	C 	0.42041 0.15355 0.62943 0.12200
C 	C 	0.35469 0.12566 0.65070 -0.03800
C 	C 	0.28093 0.11984 0.63698 -0.07200
C 	C 	0.27427 0.14516 0.60162 0.12100
Br	Br	0.17727 0.14621 0.58177 -0.17700
H 	H 	0.33439 0.19011 0.55318 0.07700
H 	H 	0.36086 0.10726 0.67780 0.07700
Br	Br	0.52040 0.16334 0.64963 -0.24200
C 	C 	0.95195 0.63743 0.55358 -0.03400
C 	C 	0.90990 0.55363 0.56722 -0.07800
C 	C 	0.92398 0.53793 0.60308 0.12500
C 	C 	0.96275 0.61007 0.62610 -0.04300
C 	C 	0.99017 0.69664 0.61342 -0.07800
C 	C 	0.99108 0.70927 0.57661 0.12800
Br	Br	0.03884 0.82534 0.55756 -0.18800
H 	H 	0.94930 0.64825 0.52537 0.07300
H 	H 	0.96781 0.59926 0.65419 0.05100
Br	Br	0.90274 0.42034 0.61998 -0.21000
C 	C 	0.92463 0.49490 0.97061 -0.02400
C 	C 	0.99216 0.53024 0.98021 -0.03000
C 	C 	0.51089 0.02172 0.95531 -0.02000
C 	C 	0.46794 0.95397 0.96811 -0.04600
C 	C 	0.42687 0.48981 0.96421 -0.03200
C 	C 	0.46553 0.45184 0.95095 -0.03800
C 	C 	0.98248 0.17370 0.83653 -0.03500
C 	C 	0.97662 0.16376 0.79945 -0.07900
C 	C 	0.91274 0.17358 0.78087 0.12200
C 	C 	0.85484 0.19128 0.79957 -0.03500
C 	C 	0.85960 0.19850 0.83666 -0.07900
C 	C 	0.92445 0.19121 0.85518 0.13300
Br	Br	0.93482 0.20515 0.90593 -0.21100
H 	H 	0.03137 0.16596 0.85093 0.08700
H 	H 	0.80555 0.19830 0.78524 0.06600
Br	Br	0.90114 0.15823 0.73018 -0.23600
C 	C 	0.32568 0.03533 0.77635 -0.04000
C 	C 	0.25324 0.00645 0.79289 -0.07200
C 	C 	0.25143 0.99934 0.83004 0.11100
C 	C 	0.32094 0.03477 0.85038 -0.01700
C 	C 	0.39228 0.07574 0.83381 -0.08300
C 	C 	0.39525 0.07141 0.79667 0.12400
Br	Br	0.49303 0.11998 0.77320 -0.24800
H 	H 	0.32751 0.03784 0.74766 0.06600
H 	H 	0.31912 0.03375 0.87908 0.07500
Br	Br	0.15377 0.94990 0.85357 -0.19400
C 	C 	0.82264 0.67338 0.86424 -0.03400
C 	C 	0.77735 0.58738 0.85125 -0.07700
C 	C 	0.76249 0.57299 0.81422 0.12600
C 	C 	0.80087 0.64081 0.79094 -0.03900
C 	C 	0.84858 0.72558 0.80401 -0.07700
C 	C 	0.85542 0.74290 0.84099 0.12700
Br	Br	0.90051 0.86188 0.86050 -0.18900
H 	H 	0.83150 0.68683 0.89256 0.08000
H 	H 	0.79221 0.62794 0.76257 0.05100
Br	Br	0.68288 0.46695 0.79486 -0.22800
