data_crystal

_cell_length_a 22.54864
_cell_length_b 19.98374
_cell_length_c 48.70870
_cell_angle_alpha 90.64380
_cell_angle_beta  91.15985
_cell_angle_gamma 110.71053

_symmetry_space_group_name_	'P 1'
_symmetry_space_group_name_H-M	'P 1'

loop_
_symmetry_equiv_pos_as_xyz
  x,y,z

loop_
_atom_site_label
_atom_site_type_symbol
_atom_site_fract_x
_atom_site_fract_y
_atom_site_fract_z
_atom_site_charge
Ni	Ni	0.58030 0.24923 0.89212 1.10700
O 	O 	0.62767 0.34521 0.87452 -0.70100
Ni	Ni	0.70145 0.32621 0.85871 1.10300
O 	O 	0.51217 0.28658 0.90590 -0.34200
O 	O 	0.58748 0.38037 0.92831 -0.36000
O 	O 	0.53267 0.22146 0.85541 -0.39700
Ni	Ni	0.65990 0.42432 0.90079 1.09500
O 	O 	0.60123 0.09193 0.89695 -0.37200
O 	O 	0.70950 0.37428 0.92251 -0.37900
O 	O 	0.73937 0.42136 0.83965 -0.36600
O 	O 	0.65943 0.23506 0.88036 -0.70100
O 	O 	0.53002 0.14926 0.90662 -0.34300
O 	O 	0.76046 0.28667 0.83789 -0.35200
O 	O 	0.67818 0.18496 0.82513 -0.40200
Ni	Ni	0.63456 0.14176 0.86133 1.08300
H 	H 	0.60212 0.35673 0.85980 0.16900
H 	H 	0.68536 0.23439 0.89692 0.19300
C 	C 	0.76474 0.37574 0.91436 0.40500
O 	O 	0.54395 0.11552 0.84472 -0.37600
C 	C 	0.52783 0.34601 0.92079 0.38800
C 	C 	0.74323 0.48144 0.85254 0.26900
C 	C 	0.50798 0.15457 0.84730 0.31200
C 	C 	0.73921 0.22383 0.82523 0.27500
C 	C 	0.55204 0.09644 0.91037 0.40300
O 	O 	0.77328 0.36427 0.88832 -0.34800
O 	O 	0.73852 0.48335 0.87964 -0.35900
Ni	Ni	0.61697 0.32749 0.58988 1.10600
O 	O 	0.68975 0.34570 0.56322 -0.70000
Ni	Ni	0.74926 0.31161 0.58494 1.10800
O 	O 	0.58274 0.40057 0.57265 -0.32700
O 	O 	0.68199 0.48361 0.57549 -0.37900
O 	O 	0.55824 0.24939 0.56345 -0.33400
Ni	Ni	0.73679 0.44270 0.55170 1.10900
O 	O 	0.53422 0.18073 0.61155 -0.37700
O 	O 	0.81392 0.48067 0.57831 -0.35000
O 	O 	0.83005 0.35077 0.56205 -0.34400
O 	O 	0.67038 0.27987 0.60865 -0.70200
O 	O 	0.54583 0.29937 0.61716 -0.34900
O 	O 	0.79140 0.25681 0.60905 -0.34200
O 	O 	0.70581 0.15287 0.60374 -0.37700
Ni	Ni	0.62364 0.17747 0.60723 1.07400
H 	H 	0.67560 0.31489 0.54657 0.19700
H 	H 	0.68001 0.29734 0.62792 0.15800
C 	C 	0.81440 0.46264 0.60413 0.30700
O 	O 	0.61409 0.17380 0.56558 -0.38500
C 	C 	0.62160 0.46649 0.56887 0.37100
C 	C 	0.83256 0.37919 0.53738 0.40800
C 	C 	0.57218 0.19561 0.55317 0.39400
C 	C 	0.75984 0.19067 0.61638 0.27000
C 	C 	0.52009 0.23186 0.62454 0.27300
O 	O 	0.78242 0.39719 0.61175 -0.38500
O 	O 	0.78686 0.40006 0.52764 -0.36200
Ni	Ni	0.02616 0.98284 0.76829 1.08800
O 	O 	0.01682 0.89916 0.74195 -0.71500
Ni	Ni	0.06447 0.95139 0.70992 1.09100
O 	O 	0.89353 0.87042 0.76595 -0.40900
O 	O 	0.10933 0.97315 0.78282 -0.39400
Ni	Ni	0.92976 0.84919 0.72927 1.06900
O 	O 	0.08100 0.16477 0.76283 -0.39000
O 	O 	0.91663 0.93819 0.71427 -0.40700
O 	O 	0.05992 0.86270 0.68760 -0.36700
O 	O 	0.05946 0.03425 0.73364 -0.68900
O 	O 	0.03972 0.07135 0.79263 -0.35100
O 	O 	0.13287 0.01641 0.68509 -0.35800
O 	O 	0.19363 0.07460 0.72228 -0.40600
Ni	Ni	0.13481 0.11802 0.74247 1.07500
H 	H 	0.03627 0.86563 0.74941 0.16100
H 	H 	0.02698 0.05220 0.72615 0.15400
C 	C 	0.94247 0.96728 0.69143 0.25000
O 	O 	0.16343 0.09250 0.77953 -0.38300
C 	C 	0.91983 0.86511 0.78980 0.27400
C 	C 	0.16287 0.02825 0.78469 0.30300
C 	C 	0.18722 0.06042 0.69564 0.26900
C 	C 	0.03943 0.13156 0.78167 0.26100
O 	O 	0.95139 0.82028 0.69134 -0.38400
Ni	Ni	0.25498 0.70172 0.37020 1.10500
O 	O 	0.33456 0.74676 0.34711 -0.69700
Ni	Ni	0.40156 0.74371 0.37460 1.10400
O 	O 	0.19350 0.73714 0.34799 -0.34000
O 	O 	0.26183 0.82613 0.32312 -0.39600
O 	O 	0.22686 0.61048 0.34540 -0.35300
Ni	Ni	0.35242 0.84826 0.33981 1.07500
O 	O 	0.21108 0.55354 0.39698 -0.37400
O 	O 	0.32840 0.86332 0.37903 -0.39900
O 	O 	0.47843 0.79802 0.35236 -0.37600
O 	O 	0.32190 0.69077 0.39556 -0.70600
O 	O 	0.18137 0.65172 0.39502 -0.33600
O 	O 	0.45906 0.72206 0.40374 -0.32900
O 	O 	0.40344 0.60228 0.40022 -0.36800
Ni	Ni	0.30779 0.58867 0.39792 1.09700
H 	H 	0.33489 0.71911 0.33017 0.16400
H 	H 	0.32127 0.71223 0.41391 0.21800
C 	C 	0.36640 0.86306 0.39995 0.37700
O 	O 	0.31117 0.57780 0.35664 -0.40400
C 	C 	0.20952 0.80095 0.33712 0.29000
C 	C 	0.48998 0.86492 0.34588 0.28600
C 	C 	0.26101 0.56988 0.34114 0.28800
C 	C 	0.44530 0.65718 0.41328 0.39200
C 	C 	0.17867 0.59164 0.40684 0.38900
O 	O 	0.41134 0.83545 0.39708 -0.34100
O 	O 	0.44700 0.89459 0.34996 -0.37900
Ni	Ni	0.34272 0.65708 0.10173 1.10200
O 	O 	0.26474 0.61871 0.07615 -0.70400
Ni	Ni	0.21023 0.66898 0.09145 1.10800
O 	O 	0.38637 0.59728 0.08151 -0.32500
O 	O 	0.30150 0.49572 0.08802 -0.37600
O 	O 	0.38074 0.73873 0.07424 -0.34000
Ni	Ni	0.21902 0.51626 0.07958 1.10700
O 	O 	0.42073 0.81212 0.11988 -0.38700
O 	O 	0.20816 0.52431 0.12084 -0.40000
O 	O 	0.14074 0.63281 0.06172 -0.33800
O 	O 	0.28316 0.69660 0.12072 -0.69600
O 	O 	0.42015 0.69954 0.12742 -0.36700
O 	O 	0.16775 0.74113 0.10226 -0.34600
O 	O 	0.24266 0.81322 0.13224 -0.39900
Ni	Ni	0.32732 0.80002 0.12363 1.07700
H 	H 	0.27448 0.63131 0.05674 0.22100
H 	H 	0.27076 0.67478 0.13883 0.16300
C 	C 	0.16426 0.54654 0.13028 0.28800
O 	O 	0.31634 0.80358 0.08229 -0.39900
C 	C 	0.35404 0.52983 0.07521 0.39600
C 	C 	0.11834 0.56412 0.05469 0.39100
C 	C 	0.35232 0.78291 0.06569 0.37800
C 	C 	0.19707 0.80455 0.11381 0.30300
C 	C 	0.44766 0.76918 0.13051 0.28100
O 	O 	0.15054 0.59723 0.11771 -0.35500
O 	O 	0.13006 0.51649 0.07052 -0.36500
Ni	Ni	0.88426 0.01812 0.24109 1.10400
O 	O 	0.94649 0.02552 0.21079 -0.68700
Ni	Ni	0.02199 0.10674 0.22509 1.09800
O 	O 	0.81623 0.93529 0.22049 -0.36700
O 	O 	0.82275 0.00469 0.18267 -0.37600
O 	O 	0.92171 0.94826 0.25826 -0.37600
Ni	Ni	0.92014 0.05012 0.17535 1.07700
O 	O 	0.87820 0.10937 0.29955 -0.38700
O 	O 	0.91500 0.14613 0.18800 -0.40100
O 	O 	0.08216 0.09745 0.19624 -0.36100
O 	O 	0.95350 0.11133 0.25148 -0.69700
O 	O 	0.82641 0.00665 0.27377 -0.36400
O 	O 	0.09679 0.18006 0.24661 -0.36000
O 	O 	0.06302 0.12829 0.28759 -0.40600
Ni	Ni	0.96783 0.11336 0.29140 1.07900
H 	H 	0.93861 0.15084 0.24672 0.15500
O 	O 	0.94668 0.00756 0.29932 -0.36100
C 	C 	0.79516 0.94425 0.19581 0.24500
C 	C 	0.06022 0.08023 0.17074 0.26300
C 	C 	0.95587 0.96363 0.28114 0.27000
C 	C 	0.09988 0.18233 0.27360 0.27700
C 	C 	0.82526 0.06049 0.28941 0.28200
O 	O 	0.01090 0.09588 0.16132 -0.38100
C 	C 	0.11991 0.50266 0.15013 -0.05800
C 	C 	0.14044 0.49939 0.17725 0.00900
C 	C 	0.10331 0.44659 0.19461 -0.05000
C 	C 	0.04656 0.39491 0.18457 0.02300
C 	C 	0.02376 0.40093 0.15782 0.02000
C 	C 	0.05983 0.45632 0.14100 -0.01600
C 	C 	0.96903 0.34693 0.14723 -0.03400
C 	C 	0.97042 0.27365 0.18651 -0.05500
C 	C 	0.01686 0.33286 0.19945 -0.02300
H 	H 	0.18628 0.53598 0.18455 0.03100
H 	H 	0.12074 0.44305 0.21522 0.04600
H 	H 	0.04369 0.45976 0.12010 0.09100
H 	H 	0.90473 0.23895 0.15179 0.05500
H 	H 	0.03540 0.32710 0.21967 0.04200
C 	C 	0.51602 0.79889 0.13745 -0.05200
C 	C 	0.55820 0.84241 0.11861 0.02000
C 	C 	0.62252 0.87514 0.12562 -0.04400
C 	C 	0.64541 0.86541 0.15170 0.02600
C 	C 	0.60357 0.82021 0.17053 0.02000
C 	C 	0.53896 0.78644 0.16319 -0.01700
C 	C 	0.62649 0.81112 0.19670 -0.04700
C 	C 	0.68971 0.84906 0.20458 0.00200
C 	C 	0.73100 0.89636 0.18629 -0.05300
C 	C 	0.70912 0.90225 0.15950 -0.02300
H 	H 	0.54097 0.85133 0.09856 0.07600
H 	H 	0.65430 0.90913 0.11092 0.07000
H 	H 	0.50645 0.75242 0.17768 0.04300
H 	H 	0.59507 0.77591 0.21121 0.05200
H 	H 	0.70602 0.84301 0.22514 0.05500
H 	H 	0.74111 0.93701 0.14503 0.04800
C 	C 	0.09555 0.05175 0.15179 -0.02500
C 	C 	0.16211 0.07973 0.15253 -0.00600
C 	C 	0.19641 0.04091 0.14094 -0.00200
C 	C 	0.16434 0.97315 0.12900 -0.01700
C 	C 	0.09749 0.94784 0.12604 0.04600
C 	C 	0.06351 0.98840 0.13684 -0.06100
C 	C 	0.06533 0.87955 0.11457 -0.05900
C 	C 	0.09846 0.83402 0.10869 0.02400
C 	C 	0.16429 0.85675 0.11391 -0.06400
C 	C 	0.19755 0.92797 0.12223 0.00500
H 	H 	0.18721 0.12987 0.16329 0.06300
H 	H 	0.24775 0.06179 0.14260 0.06000
H 	H 	0.01205 0.96765 0.13577 0.02900
H 	H 	0.01427 0.86037 0.11147 0.06100
H 	H 	0.07246 0.78003 0.10129 0.06500
H 	H 	0.24872 0.94669 0.12506 0.04600
C 	C 	0.76476 0.05506 0.30131 -0.05700
C 	C 	0.71793 0.06660 0.28465 0.00700
C 	C 	0.65421 0.03828 0.29178 -0.01900
C 	C 	0.63676 0.99695 0.31539 0.00300
C 	C 	0.68437 0.99007 0.33330 0.00900
C 	C 	0.74835 0.02117 0.32652 0.01800
C 	C 	0.66712 0.94729 0.35651 -0.03500
C 	C 	0.60341 0.90780 0.36093 0.02100
C 	C 	0.55616 0.91158 0.34244 -0.05400
C 	C 	0.57263 0.95839 0.32033 -0.00900
H 	H 	0.73048 0.09368 0.26531 0.03900
H 	H 	0.61827 0.04532 0.27821 0.05500
H 	H 	0.78480 0.01325 0.33957 0.06300
H 	H 	0.70317 0.94264 0.37064 0.07000
H 	H 	0.59075 0.87339 0.37854 0.07600
H 	H 	0.53594 0.96222 0.30634 0.03300
C 	C 	0.23469 0.50526 0.32349 -0.06000
C 	C 	0.20261 0.50762 0.29873 0.01100
C 	C 	0.17230 0.44491 0.28328 -0.04900
C 	C 	0.17318 0.37898 0.29257 0.01600
C 	C 	0.20592 0.37639 0.31734 0.02700
C 	C 	0.23718 0.43969 0.33251 -0.01100
C 	C 	0.20531 0.31024 0.32705 -0.04900
C 	C 	0.17135 0.24696 0.31258 0.01400
C 	C 	0.13852 0.24919 0.28803 -0.07900
C 	C 	0.14027 0.31539 0.27784 -0.01700
H 	H 	0.20059 0.55795 0.29160 0.04100
H 	H 	0.14709 0.44745 0.26439 0.04500
H 	H 	0.26139 0.43762 0.35178 0.05600
H 	H 	0.23036 0.30768 0.34601 0.07200
H 	H 	0.17051 0.19617 0.32047 0.05300
H 	H 	0.11460 0.31714 0.25894 0.04200
C 	C 	0.15874 0.82944 0.33125 -0.05600
C 	C 	0.12570 0.84586 0.35287 0.01800
C 	C 	0.07817 0.87419 0.34742 -0.04500
C 	C 	0.06276 0.88566 0.32021 0.02700
C 	C 	0.09493 0.86758 0.29835 0.01800
C 	C 	0.14296 0.83982 0.30399 -0.01200
C 	C 	0.07896 0.87791 0.27116 -0.05200
C 	C 	0.03233 0.90730 0.26564 0.00500
C 	C 	0.01601 0.91551 0.31456 -0.02800
H 	H 	0.13733 0.83745 0.37394 0.06200
H 	H 	0.05356 0.88739 0.36434 0.06800
H 	H 	0.16779 0.82602 0.28725 0.04700
H 	H 	0.10310 0.86385 0.25424 0.04600
H 	H 	0.02155 0.91639 0.24454 0.01900
C 	C 	0.52627 0.08682 0.48715 0.23600
C 	C 	0.45978 0.06206 0.48802 -0.00200
C 	C 	0.43029 0.08416 0.50960 0.23500
C 	C 	0.46702 0.12937 0.53055 0.31500
C 	C 	0.53364 0.15288 0.53002 -0.20900
C 	C 	0.56306 0.13203 0.50806 0.31400
C 	C 	0.42131 0.01001 0.46709 0.01700
F 	F 	0.36605 0.06067 0.51055 -0.34100
F 	F 	0.62731 0.15549 0.50703 -0.37200
C 	C 	0.40288 0.93641 0.47185 0.21300
C 	C 	0.37775 0.88701 0.45028 0.31400
C 	C 	0.37128 0.91089 0.42375 -0.20100
C 	C 	0.38387 0.98419 0.41969 0.27100
C 	C 	0.40902 0.03357 0.44129 0.25600
F 	F 	0.41256 0.91301 0.49702 -0.34000
F 	F 	0.37646 0.00805 0.39432 -0.36900
F 	F 	0.36333 0.81613 0.45475 -0.37700
F 	F 	0.42463 0.10459 0.43678 -0.34400
F 	F 	0.55516 0.06601 0.46623 -0.33700
F 	F 	0.43792 0.14821 0.55187 -0.37800
C 	C 	0.99572 0.48056 0.51320 0.23600
C 	C 	0.88762 0.36635 0.49524 0.31800
C 	C 	0.89054 0.39572 0.52175 -0.21100
C 	C 	0.94590 0.45081 0.53107 0.31300
C 	C 	0.03952 0.49144 0.46624 -0.01100
F 	F 	0.93409 0.36765 0.45166 -0.34000
F 	F 	0.94961 0.47868 0.55688 -0.38800
C 	C 	0.10022 0.48735 0.46839 0.23300
C 	C 	0.14624 0.52227 0.44952 0.31000
C 	C 	0.13154 0.56041 0.42794 -0.21500
C 	C 	0.07085 0.56514 0.42597 0.31700
C 	C 	0.02522 0.53124 0.44519 0.21900
F 	F 	0.11445 0.44913 0.48871 -0.34000
F 	F 	0.05553 0.60079 0.40503 -0.37800
F 	F 	0.20531 0.51927 0.45221 -0.40100
F 	F 	0.04742 0.53688 0.52183 -0.35300
F 	F 	0.83493 0.31170 0.48632 -0.36200
C 	C 	0.53095 0.56864 0.45911 0.23000
C 	C 	0.53467 0.60635 0.48396 -0.00300
C 	C 	0.51457 0.66523 0.48482 0.23700
C 	C 	0.48845 0.68448 0.46122 0.31000
C 	C 	0.48218 0.64477 0.43663 -0.21100
C 	C 	0.50513 0.58798 0.43552 0.31300
C 	C 	0.55841 0.58296 0.50911 -0.00200
F 	F 	0.51921 0.70286 0.50865 -0.33700
F 	F 	0.50173 0.55103 0.41161 -0.37400
C 	C 	0.62338 0.59589 0.51261 0.23000
C 	C 	0.64488 0.56150 0.53327 0.30000
C 	C 	0.60128 0.51398 0.55084 -0.21500
C 	C 	0.53690 0.50657 0.54887 0.31500
C 	C 	0.51551 0.54040 0.52792 0.22900
F 	F 	0.66542 0.63918 0.49510 -0.34600
F 	F 	0.49487 0.46529 0.56686 -0.36900
F 	F 	0.70763 0.57170 0.53532 -0.42500
F 	F 	0.45272 0.52951 0.52518 -0.33700
F 	F 	0.55127 0.51232 0.45801 -0.34400
F 	F 	0.46672 0.73970 0.46254 -0.35300
C 	C 	0.79163 0.15428 0.63409 -0.06300
C 	C 	0.80137 0.17238 0.66213 0.00900
C 	C 	0.83217 0.13841 0.67915 -0.05800
C 	C 	0.85440 0.08673 0.66816 0.03900
C 	C 	0.84544 0.06910 0.63979 0.00400
C 	C 	0.81344 0.10251 0.62294 -0.00000
C 	C 	0.86909 0.01879 0.62866 0.00200
C 	C 	0.90131 0.98613 0.64553 -0.05700
C 	C 	0.90950 0.00270 0.67375 -0.00300
C 	C 	0.88590 0.05285 0.68506 -0.04300
H 	H 	0.78478 0.21259 0.67078 0.02700
H 	H 	0.83900 0.15257 0.70084 0.05000
H 	H 	0.80622 0.08903 0.60118 0.06900
H 	H 	0.86270 0.00506 0.60694 0.06600
H 	H 	0.89273 0.06602 0.70685 0.04900
C 	C 	0.46159 0.21088 0.64029 -0.04300
C 	C 	0.45801 0.25050 0.66376 0.00300
C 	C 	0.40271 0.22984 0.67898 -0.04300
C 	C 	0.35036 0.16939 0.67082 0.01500
C 	C 	0.35343 0.13009 0.64694 0.03600
C 	C 	0.40898 0.15111 0.63177 -0.01700
C 	C 	0.30108 0.06992 0.63867 -0.04800
C 	C 	0.24646 0.04795 0.65427 0.01900
C 	C 	0.24348 0.08598 0.67833 -0.06500
C 	C 	0.29527 0.14731 0.68635 -0.01400
H 	H 	0.49832 0.29685 0.67037 0.04200
H 	H 	0.40077 0.26057 0.69720 0.05000
H 	H 	0.41124 0.12129 0.61331 0.09500
H 	H 	0.30287 0.03965 0.62030 0.08300
H 	H 	0.20690 0.00057 0.64791 0.06200
H 	H 	0.29277 0.17744 0.70468 0.03600
C 	C 	0.85726 0.51425 0.62421 -0.05300
C 	C 	0.84609 0.50587 0.65246 0.01200
C 	C 	0.88255 0.55817 0.67132 -0.05500
C 	C 	0.92991 0.62009 0.66213 0.03300
C 	C 	0.94387 0.62703 0.63394 0.01400
C 	C 	0.90801 0.57356 0.61512 0.00000
C 	C 	0.99910 0.74359 0.67033 -0.02200
C 	C 	0.95953 0.67767 0.68035 -0.03600
H 	H 	0.80792 0.45984 0.65977 0.04000
H 	H 	0.87224 0.55181 0.69298 0.04700
H 	H 	0.91819 0.57921 0.59342 0.09700
H 	H 	0.04942 0.79817 0.63508 0.06500
H 	H 	0.94675 0.67368 0.70179 0.03000
C 	C 	0.91318 0.39464 0.95606 0.23200
C 	C 	0.92285 0.45880 0.97069 -0.00000
C 	C 	0.88195 0.49672 0.96601 0.22900
C 	C 	0.83092 0.47005 0.94730 0.31600
C 	C 	0.82014 0.40492 0.93315 -0.21500
C 	C 	0.86204 0.36786 0.93728 0.31800
F 	F 	0.89124 0.55903 0.97992 -0.34400
F 	F 	0.85237 0.30518 0.92359 -0.38200
C 	C 	0.03090 0.53955 0.98621 0.22400
C 	C 	0.07767 0.56671 0.00688 0.31300
C 	C 	0.06761 0.53876 0.03342 -0.20300
C 	C 	0.01006 0.48396 0.03919 0.29500
F 	F 	0.04106 0.56680 0.96060 -0.34500
F 	F 	0.99895 0.45784 0.06494 -0.37900
F 	F 	0.13324 0.61919 0.00100 -0.37000
F 	F 	0.90782 0.40441 0.02436 -0.34700
F 	F 	0.95283 0.35787 0.96034 -0.33800
F 	F 	0.79209 0.50772 0.94274 -0.39800
C 	C 	0.40900 0.82524 0.99327 0.23600
C 	C 	0.42536 0.89984 0.99332 -0.00000
C 	C 	0.41392 0.93530 0.01649 0.21000
C 	C 	0.38829 0.89691 0.03985 0.31700
C 	C 	0.37328 0.82229 0.04016 -0.21000
C 	C 	0.38291 0.78651 0.01659 0.31500
C 	C 	0.45749 0.94153 0.96973 0.01500
F 	F 	0.42936 0.00744 0.01660 -0.31900
F 	F 	0.36734 0.71435 0.01637 -0.37500
C 	C 	0.42212 0.96109 0.94938 0.19900
C 	C 	0.45304 0.00993 0.92938 0.35300
C 	C 	0.51965 0.03982 0.92968 -0.22300
C 	C 	0.55500 0.01765 0.94931 0.34800
C 	C 	0.52399 0.96860 0.96923 0.19800
F 	F 	0.35776 0.93423 0.94948 -0.34100
F 	F 	0.61935 0.04593 0.94980 -0.37300
F 	F 	0.41835 0.02855 0.90979 -0.38200
F 	F 	0.55852 0.94941 0.98872 -0.34500
F 	F 	0.41927 0.79049 0.97078 -0.33500
F 	F 	0.38062 0.93261 0.06260 -0.39800
C 	C 	0.41477 0.33654 0.97674 0.23200
C 	C 	0.41929 0.40834 0.97815 0.00100
C 	C 	0.44738 0.45440 0.95679 0.23200
C 	C 	0.47689 0.43097 0.93573 0.31000
C 	C 	0.47867 0.36147 0.93601 -0.21000
C 	C 	0.44411 0.31299 0.95561 0.31800
C 	C 	0.40205 0.43732 0.00339 0.00300
F 	F 	0.44937 0.52311 0.95737 -0.33500
F 	F 	0.44356 0.24482 0.95552 -0.36100
C 	C 	0.44871 0.47019 0.02371 0.22900
C 	C 	0.43297 0.49988 0.04735 0.32700
C 	C 	0.37039 0.49656 0.05088 -0.22100
C 	C 	0.32363 0.46319 0.03058 0.31900
C 	C 	0.33947 0.43359 0.00696 0.23300
F 	F 	0.50936 0.47357 0.02044 -0.34100
F 	F 	0.26329 0.46137 0.03340 -0.44000
F 	F 	0.47835 0.53134 0.06693 -0.37100
F 	F 	0.29421 0.40214 0.98733 -0.33700
F 	F 	0.38538 0.29084 0.99677 -0.33600
F 	F 	0.50775 0.47731 0.91614 -0.40300
C 	C 	0.78492 0.19516 0.81293 -0.06800
C 	C 	0.77034 0.12089 0.81033 0.01100
C 	C 	0.81736 0.09357 0.80333 -0.05500
C 	C 	0.87958 0.14019 0.79902 0.03400
C 	C 	0.89390 0.21490 0.80056 0.01100
C 	C 	0.84626 0.24199 0.80702 -0.00500
C 	C 	0.95610 0.26159 0.79630 -0.02300
C 	C 	0.92779 0.11312 0.79348 -0.03100
H 	H 	0.72319 0.08421 0.81465 0.03000
H 	H 	0.80567 0.03615 0.80186 0.06100
H 	H 	0.85734 0.29939 0.80830 0.06100
H 	H 	0.05168 0.27096 0.78753 0.05800
H 	H 	0.91680 0.05575 0.79196 0.04800
C 	C 	0.21981 0.02064 0.79746 -0.01600
C 	C 	0.25896 0.99542 0.78149 -0.07100
C 	C 	0.32271 0.01105 0.78931 0.03400
C 	C 	0.34793 0.05241 0.81316 -0.01000
C 	C 	0.30735 0.07298 0.83037 0.05500
C 	C 	0.24317 0.05565 0.82268 -0.03000
C 	C 	0.33231 0.11464 0.85410 -0.04500
C 	C 	0.39750 0.13933 0.85989 0.04100
C 	C 	0.43870 0.12224 0.84218 -0.06200
C 	C 	0.41364 0.07672 0.81927 0.01200
H 	H 	0.24121 0.96787 0.76208 0.04700
H 	H 	0.35296 0.99362 0.77621 0.01700
H 	H 	0.21269 0.07430 0.83523 0.07500
H 	H 	0.30144 0.12958 0.86772 0.08700
H 	H 	0.41615 0.17250 0.87804 0.08200
H 	H 	0.44521 0.06262 0.80576 0.05000
C 	C 	0.76864 0.54921 0.83777 -0.05000
C 	C 	0.74964 0.55230 0.81036 0.00100
C 	C 	0.77469 0.61547 0.79583 -0.04700
C 	C 	0.81933 0.67640 0.80849 0.01000
C 	C 	0.83845 0.67407 0.83614 0.03300
C 	C 	0.81279 0.61040 0.85075 -0.01900
C 	C 	0.88350 0.73518 0.84867 -0.05100
C 	C 	0.90978 0.79791 0.83373 0.02000
C 	C 	0.89113 0.80016 0.80615 -0.07700
C 	C 	0.84556 0.73928 0.79371 -0.01600
H 	H 	0.71527 0.50560 0.80031 0.03800
H 	H 	0.75959 0.61689 0.77464 0.04300
H 	H 	0.82790 0.60804 0.87189 0.08300
H 	H 	0.89840 0.73410 0.86990 0.07900
H 	H 	0.94449 0.84458 0.84362 0.06100
C 	C 	0.00108 0.92698 0.28724 -0.07200
H 	H 	0.91926 0.94724 0.63672 0.07100
C 	C 	0.96344 0.45686 0.01852 0.24000
H 	H 	0.96756 0.31901 0.79741 0.05800
H 	H 	0.83129 0.74048 0.77237 0.01800
C 	C 	0.99047 0.68972 0.62476 -0.00300
O 	O 	0.99573 0.96137 0.68339 -0.35600
C 	C 	0.97370 0.48444 0.99196 0.00800
F 	F 	0.96689 0.53656 0.44329 -0.33600
C 	C 	0.00458 0.80913 0.68574 0.23800
H 	H 	0.94972 0.35211 0.12715 0.08800
H 	H 	0.99160 0.92998 0.33130 0.07000
H 	H 	0.95704 0.98162 0.20901 0.14600
O 	O 	0.01790 0.19194 0.20312 -0.37500
C 	C 	0.01771 0.74798 0.64288 -0.02800
H 	H 	0.00296 0.69489 0.60332 0.06200
C 	C 	0.00387 0.23434 0.79075 -0.02000
C 	C 	0.99094 0.45439 0.48607 0.00700
O 	O 	0.97459 0.91413 0.79744 -0.35600
C 	C 	0.96586 0.20132 0.19472 0.29600
C 	C 	0.94281 0.28306 0.16141 0.01400
C 	C 	0.93786 0.39529 0.47750 0.23100
C 	C 	0.99006 0.16015 0.78938 -0.03200
