data_crystal

_cell_length_a 16.62664
_cell_length_b 16.01430
_cell_length_c 38.09104
_cell_angle_alpha 89.87928
_cell_angle_beta  89.88185
_cell_angle_gamma 119.41471

_symmetry_space_group_name_	'P 1'
_symmetry_space_group_name_H-M	'P 1'

loop_
_symmetry_equiv_pos_as_xyz
  x,y,z

loop_
_atom_site_label
_atom_site_type_symbol
_atom_site_fract_x
_atom_site_fract_y
_atom_site_fract_z
_atom_site_charge
Ni	Ni	0.09466 0.93068 0.75316 1.11900
Ni	Ni	0.09090 0.13332 0.74767 1.12400
O 	O 	0.03860 0.00455 0.76446 -0.71800
H 	H 	0.05860 0.02035 0.78901 0.15600
O 	O 	0.00991 0.82542 0.20486 -0.38300
C 	C 	0.10795 0.84763 0.41159 0.12500
N 	N 	0.08122 0.84446 0.43991 -0.08900
C 	C 	0.01661 0.42691 0.47105 -0.10700
C 	C 	0.03818 0.76345 0.67728 0.08200
N 	N 	0.01893 0.64824 0.59472 -0.10200
C 	C 	0.03412 0.37513 0.02773 -0.11100
H 	H 	0.06010 0.38451 0.05430 0.10200
N 	N 	0.13862 0.35654 0.83547 -0.07800
N 	N 	0.12516 0.72474 0.81161 -0.09900
C 	C 	0.04569 0.17735 0.20522 0.27700
C 	C 	0.08435 0.16559 0.28503 0.27000
C 	C 	0.04304 0.88499 0.17840 0.30900
C 	C 	0.07780 0.88225 0.28296 0.27000
C 	C 	0.02669 0.30280 0.17056 -0.00800
C 	C 	0.01504 0.41429 0.12819 0.08200
C 	C 	0.04696 0.32390 0.27880 0.07900
C 	C 	0.10302 0.87798 0.34787 0.01500
C 	C 	0.04545 0.92087 0.35469 0.08800
C 	C 	0.09360 0.44976 0.49217 -0.10400
C 	C 	0.08002 0.41462 0.52678 0.33000
H 	H 	0.02625 0.45204 0.44411 0.10400
N 	N 	0.05910 0.94331 0.60887 -0.09400
N 	N 	0.11594 0.79709 0.68372 -0.10700
C 	C 	0.09479 0.42303 0.99985 -0.10400
C 	C 	0.06127 0.40165 0.96543 0.33100
N 	N 	0.13530 0.14590 0.86523 -0.09500
O 	O 	0.02804 0.17573 0.78414 -0.37100
O 	O 	0.10113 0.97039 0.70136 -0.36800
O 	O 	0.07672 0.88983 0.80532 -0.36900
Ni	Ni	0.09953 0.03465 0.23200 1.11800
O 	O 	0.09416 0.97685 0.18455 -0.35900
C 	C 	0.07016 0.38577 0.14906 0.01600
C 	C 	0.08132 0.27755 0.19199 -0.04600
C 	C 	0.03015 0.84753 0.14165 -0.07300
C 	C 	0.05875 0.31572 0.83459 0.10800
N 	N 	0.11541 0.61947 0.90995 -0.07600
N 	N 	0.01267 0.33035 0.74460 -0.11100
C 	C 	0.11638 0.33034 0.30334 0.00700
N 	N 	0.12173 0.54983 0.32029 -0.09800
C 	C 	0.08256 0.73469 0.83362 0.10800
C 	C 	0.14134 0.85162 0.37614 0.01100
C 	C 	0.23755 0.11410 0.78526 0.28700
C 	C 	0.16497 0.05532 0.69146 0.30300
O 	O 	0.22381 0.04738 0.76213 -0.36900
O 	O 	0.19995 0.16998 0.78062 -0.34800
O 	O 	0.17514 0.13205 0.70823 -0.34900
C 	C 	0.22851 0.76643 0.39411 0.29200
C 	C 	0.18317 0.53050 0.48164 0.32200
O 	O 	0.24853 0.79108 0.42805 -0.31700
O 	O 	0.24538 0.70218 0.37993 -0.37400
O 	O 	0.26482 0.47770 0.40787 -0.37300
O 	O 	0.18934 0.61608 0.47833 -0.35400
O 	O 	0.25848 0.52058 0.48209 -0.34500
H 	H 	0.25842 0.61661 0.42394 0.16700
C 	C 	0.17558 0.51605 0.00679 0.32700
C 	C 	0.13028 0.73460 0.07253 0.29400
C 	C 	0.21365 0.51725 0.12119 0.28900
O 	O 	0.16888 0.59456 0.00175 -0.34900
O 	O 	0.25575 0.52099 0.01454 -0.35900
O 	O 	0.23255 0.49387 0.09003 -0.37100
O 	O 	0.17509 0.76458 0.04187 -0.35300
O 	O 	0.15667 0.69441 0.09720 -0.37100
H 	H 	0.21145 0.61644 0.06224 0.15800
O 	O 	0.10225 0.14229 0.20312 -0.36100
O 	O 	0.12855 0.94071 0.25711 -0.35600
O 	O 	0.12609 0.11610 0.27579 -0.37000
C 	C 	0.16742 0.43957 0.14734 -0.05600
C 	C 	0.17716 0.34268 0.19446 0.00300
C 	C 	0.22071 0.41473 0.16906 0.01400
C 	C 	0.23194 0.33291 0.22205 0.09400
C 	C 	0.06499 0.76763 0.08279 -0.06800
C 	C 	0.09588 0.86638 0.08296 0.00400
C 	C 	0.08151 0.90801 0.11327 0.02000
C 	C 	0.13704 0.25443 0.30624 -0.04700
C 	C 	0.16209 0.41199 0.32485 0.00700
C 	C 	0.22933 0.41905 0.34885 -0.05300
C 	C 	0.20620 0.26317 0.33012 0.00700
C 	C 	0.22378 0.18400 0.33600 0.11000
C 	C 	0.13961 0.48866 0.32233 0.09700
N 	N 	0.23845 0.12133 0.34078 -0.09600
C 	C 	0.21166 0.82842 0.36945 -0.03000
C 	C 	0.24883 0.84224 0.33500 0.01200
C 	C 	0.19919 0.84954 0.30667 0.01000
C 	C 	0.12625 0.86831 0.31292 -0.04700
C 	C 	0.21984 0.83215 0.27125 0.11000
F 	F 	0.15342 0.43249 0.54721 -0.42500
C 	C 	0.24181 0.06261 0.66937 -0.05700
C 	C 	0.22438 0.02030 0.63555 0.00900
C 	C 	0.13252 0.97758 0.62069 0.11100
F 	F 	0.12036 0.43794 0.93780 -0.42300
C 	C 	0.20633 0.15517 0.85707 0.10300
N 	N 	0.23629 0.81821 0.24304 -0.09700
C 	C 	0.07092 0.65412 0.90249 0.10000
C 	C 	0.25578 0.34787 0.34961 0.01100
C 	C 	0.27024 0.49912 0.37400 0.29400
Ni	Ni	0.31113 0.73701 0.46418 1.12100
Ni	Ni	0.26962 0.72835 0.01880 1.12000
N 	N 	0.27686 0.32589 0.24377 -0.10300
C 	C 	0.13038 0.92117 0.05086 0.10600
C 	C 	0.11066 0.00942 0.11367 0.09900
C 	C 	0.28509 0.99053 0.57990 0.11100
N 	N 	0.27464 0.96492 0.55104 -0.09400
C 	C 	0.30722 0.13657 0.81330 -0.05600
C 	C 	0.29526 0.16655 0.84685 0.01000
O 	O 	0.25641 0.60767 0.13265 -0.36400
O 	O 	0.27645 0.66674 0.05999 -0.71700
N 	N 	0.15738 0.96470 0.02508 -0.08900
O 	O 	0.32939 0.58627 0.36169 -0.36800
O 	O 	0.32374 0.65976 0.42957 -0.71200
Ni	Ni	0.28981 0.72811 0.10369 1.12600
Ni	Ni	0.33215 0.58820 0.05812 1.12600
C 	C 	0.31846 0.45348 0.16214 0.10600
N 	N 	0.13392 0.09043 0.11392 -0.08500
C 	C 	0.33576 0.36292 0.36978 0.10200
C 	C 	0.33616 0.84524 0.32841 0.09400
H 	H 	0.32899 0.53673 0.55050 0.14500
C 	C 	0.33012 0.09638 0.68425 0.00800
C 	C 	0.29827 0.02261 0.61598 0.00200
H 	H 	0.31975 0.03382 0.06087 0.09800
H 	H 	0.35781 0.53166 0.95667 0.12500
C 	C 	0.35355 0.21992 0.90726 0.12000
N 	N 	0.34161 0.23472 0.93598 -0.06000
Ni	Ni	0.35680 0.56588 0.44274 1.12500
Ni	Ni	0.37070 0.71559 0.38524 1.12600
O 	O 	0.36710 0.70223 0.50782 -0.34200
O 	O 	0.32108 0.86070 0.08596 -0.37800
O 	O 	0.35503 0.70491 0.98452 -0.34600
F 	F 	0.36538 0.00853 0.42184 -0.43900
F 	F 	0.37014 0.40982 0.57552 -0.42100
C 	C 	0.36497 0.17342 0.70955 0.10600
C 	C 	0.38722 0.12927 0.80668 0.00900
C 	C 	0.36836 0.20078 0.87134 0.01000
C 	C 	0.38495 0.05886 0.78231 0.10300
N 	N 	0.38290 0.00194 0.76312 -0.10200
N 	N 	0.39377 0.23597 0.72943 -0.09900
F 	F 	0.39790 0.20603 0.03337 -0.42400
C 	C 	0.38174 0.90542 0.06094 0.36900
O 	O 	0.38119 0.85984 0.03227 -0.35100
N 	N 	0.38410 0.65963 0.20015 -0.09800
N 	N 	0.40828 0.59144 0.29631 -0.09400
N 	N 	0.39954 0.37473 0.38581 -0.09500
N 	N 	0.40554 0.84748 0.32251 -0.11800
C 	C 	0.40211 0.56046 0.55098 -0.09700
C 	C 	0.38668 0.06227 0.63115 -0.04800
C 	C 	0.39234 0.07426 0.66758 0.00100
C 	C 	0.39314 0.06523 0.05648 -0.07700
O 	O 	0.41865 0.85798 0.39634 -0.35700
C 	C 	0.42517 0.69483 0.99474 0.36500
N 	N 	0.39630 0.48334 0.15656 -0.09500
C 	C 	0.43195 0.57700 0.95456 -0.08600
F 	F 	0.44388 0.44709 0.92974 -0.43000
C 	C 	0.43391 0.68090 0.50455 0.35500
O 	O 	0.41790 0.63409 0.09989 -0.36700
C 	C 	0.43243 0.49799 0.56329 0.35400
C 	C 	0.02919 0.74703 0.86125 -0.00500
C 	C 	0.45493 0.21244 0.86107 -0.04900
O 	O 	0.44105 0.85182 0.45484 -0.35900
O 	O 	0.43716 0.68495 0.02812 -0.37000
O 	O 	0.42622 0.77953 0.10819 -0.35900
H 	H 	0.44922 0.17075 0.45593 0.10500
C 	C 	0.46466 0.17916 0.82799 0.00700
C 	C 	0.45533 0.05269 0.43169 0.34800
C 	C 	0.45989 0.90065 0.42562 0.36400
O 	O 	0.45846 0.58441 0.40823 -0.35800
O 	O 	0.45548 0.66422 0.47352 -0.36700
C 	C 	0.43676 0.01025 0.06148 -0.14000
C 	C 	0.44286 0.15786 0.04256 0.34100
C 	C 	0.45373 0.69044 0.18528 0.10200
C 	C 	0.46552 0.13467 0.61095 0.29100
C 	C 	0.46488 0.64776 0.53497 -0.11700
C 	C 	0.47499 0.66959 0.96880 -0.12300
C 	C 	0.48540 0.53953 0.94060 0.34900
C 	C 	0.46339 0.72397 0.11028 0.31100
C 	C 	0.47026 0.08031 0.68650 0.10500
C 	C 	0.47517 0.63891 0.31187 0.09400
O 	O 	0.48034 0.22307 0.61337 -0.35600
C 	C 	0.01535 0.69764 0.89327 0.00100
C 	C 	0.49299 0.14037 0.44949 -0.09100
O 	O 	0.49641 0.73766 0.39575 -0.37800
C 	C 	0.50748 0.00586 0.42768 -0.13400
C 	C 	0.51314 0.66678 0.39262 0.31200
C 	C 	0.52624 0.52470 0.56088 -0.12100
N 	N 	0.99967 0.95538 0.36009 -0.08300
O 	O 	0.53194 0.11582 0.60052 -0.35300
N 	N 	0.53226 0.08491 0.70188 -0.09600
C 	C 	0.53324 0.05471 0.05928 0.36000
C 	C 	0.53661 0.26685 0.88322 0.29300
C 	C 	0.99019 0.70878 0.10453 0.01700
C 	C 	0.97325 0.74830 0.13484 0.02200
N 	N 	0.97098 0.43699 0.11148 -0.06800
C 	C 	0.92538 0.61259 0.09334 0.10100
O 	O 	0.98869 0.81970 0.27833 -0.34900
C 	C 	0.96612 0.35535 0.95965 -0.06400
H 	H 	0.94064 0.35061 0.93319 0.10200
O 	O 	0.95616 0.11929 0.20898 -0.34800
O 	O 	0.99293 0.12683 0.28436 -0.34500
N 	N 	0.99130 0.31913 0.25945 -0.09200
C 	C 	0.99104 0.36832 0.54132 -0.05900
H 	H 	0.98171 0.34717 0.56872 0.10300
O 	O 	0.97306 0.96418 0.24535 -0.70600
H 	H 	0.98284 0.96361 0.27080 0.14800
C 	C 	0.88040 0.59440 0.93035 0.30600
C 	C 	0.77505 0.30065 0.87694 0.30900
C 	C 	0.63744 0.54659 0.94141 0.33700
C 	C 	0.82458 0.34305 0.98504 0.36000
C 	C 	0.57838 0.26642 0.00646 0.34800
Ni	Ni	0.71647 0.44810 0.89429 1.11700
Ni	Ni	0.73341 0.45974 0.97990 1.12900
Ni	Ni	0.66145 0.25828 0.94024 1.12600
O 	O 	0.58003 0.36151 0.88021 -0.34600
O 	O 	0.57779 0.22052 0.89679 -0.35900
O 	O 	0.83515 0.42946 0.98859 -0.37000
O 	O 	0.85280 0.52121 0.90936 -0.36900
O 	O 	0.83126 0.58717 0.95850 -0.35700
O 	O 	0.55997 0.23393 0.97394 -0.37000
O 	O 	0.74382 0.35543 0.86389 -0.35500
O 	O 	0.77194 0.28490 0.91061 -0.38200
O 	O 	0.64453 0.35556 0.01396 -0.35000
O 	O 	0.69220 0.55679 0.91419 -0.36000
O 	O 	0.64514 0.51063 0.97195 -0.35400
O 	O 	0.74218 0.26829 0.98110 -0.37400
O 	O 	0.68419 0.38587 0.93796 -0.72000
H 	H 	0.62019 0.37349 0.93995 0.17500
C 	C 	0.55749 0.45459 0.56742 0.34500
C 	C 	0.70798 0.22723 0.64119 0.30700
C 	C 	0.77100 0.52745 0.61011 0.30200
C 	C 	0.82913 0.33601 0.53895 0.36000
C 	C 	0.60036 0.22996 0.49750 0.33300
Ni	Ni	0.61022 0.33804 0.62013 1.11800
Ni	Ni	0.64477 0.19930 0.56859 1.12800
Ni	Ni	0.70228 0.41198 0.54305 1.12800
O 	O 	0.56866 0.43505 0.60074 -0.34600
O 	O 	0.58896 0.42712 0.54029 -0.37000
O 	O 	0.75700 0.24929 0.53671 -0.33800
O 	O 	0.64322 0.24821 0.65021 -0.35600
O 	O 	0.73440 0.23447 0.60857 -0.37400
O 	O 	0.66379 0.32356 0.49949 -0.32300
O 	O 	0.74362 0.44626 0.62623 -0.36800
O 	O 	0.75324 0.52905 0.57636 -0.35500
O 	O 	0.56790 0.17498 0.52575 -0.37400
O 	O 	0.81969 0.40820 0.55007 -0.37100
O 	O 	0.63280 0.31013 0.57490 -0.72200
H 	H 	0.57121 0.28691 0.56464 0.17400
C 	C 	0.91407 0.79702 0.72274 0.30600
C 	C 	0.99556 0.85242 0.82131 0.29400
C 	C 	0.90645 0.08003 0.72072 0.29600
C 	C 	0.95816 0.12141 0.80582 0.30300
Ni	Ni	0.90917 0.93813 0.77243 1.12700
O 	O 	0.86211 0.01453 0.74522 -0.36700
O 	O 	0.97918 0.80041 0.74273 -0.35900
O 	O 	0.88012 0.85462 0.72877 -0.35700
O 	O 	0.93271 0.03011 0.81199 -0.36800
O 	O 	0.91998 0.83905 0.80414 -0.35600
O 	O 	0.99230 0.10597 0.71186 -0.36100
C 	C 	0.79922 0.84202 0.29450 0.29500
C 	C 	0.78745 0.86724 0.19614 0.30400
Ni	Ni	0.89982 0.02191 0.25026 1.11400
Ni	Ni	0.91711 0.82944 0.23727 1.12800
O 	O 	0.83483 0.93629 0.29399 -0.34600
O 	O 	0.80291 0.79596 0.26642 -0.37000
O 	O 	0.78660 0.92546 0.22048 -0.34800
O 	O 	0.85369 0.84501 0.19441 -0.37000
C 	C 	0.92681 0.24633 0.17126 0.13400
N 	N 	0.84703 0.20146 0.17174 -0.09100
C 	C 	0.70808 0.81971 0.17225 -0.05700
C 	C 	0.62159 0.75115 0.18561 0.01100
C 	C 	0.54127 0.72970 0.16690 0.01100
C 	C 	0.54790 0.75637 0.13128 -0.05200
C 	C 	0.63565 0.81507 0.11605 0.01500
C 	C 	0.71578 0.84959 0.13696 0.01200
C 	C 	0.61608 0.69433 0.21605 0.10100
C 	C 	0.64336 0.84087 0.07923 0.12700
C 	C 	0.80566 0.91507 0.12221 0.11100
N 	N 	0.87746 0.96729 0.11049 -0.08400
N 	N 	0.64969 0.86159 0.04984 -0.04600
N 	N 	0.61127 0.64794 0.24014 -0.09800
C 	C 	0.89345 0.69007 0.15669 0.09600
N 	N 	0.87291 0.53602 0.08417 -0.08800
N 	N 	0.82961 0.64337 0.17407 -0.10600
C 	C 	0.57457 0.67128 0.36388 -0.06000
C 	C 	0.55997 0.69842 0.33043 0.00000
C 	C 	0.63489 0.77029 0.31221 0.01400
C 	C 	0.72432 0.78693 0.31973 -0.05100
C 	C 	0.73654 0.73600 0.34779 0.00700
C 	C 	0.66300 0.68486 0.37171 0.01200
C 	C 	0.81791 0.72522 0.34930 0.10100
C 	C 	0.67837 0.64740 0.40410 0.11100
C 	C 	0.61980 0.82655 0.28588 0.10100
N 	N 	0.69059 0.61744 0.43000 -0.08900
N 	N 	0.60746 0.87143 0.26491 -0.09600
N 	N 	0.88203 0.71495 0.35053 -0.09400
C 	C 	0.58235 0.18086 0.46348 -0.10100
C 	C 	0.63970 0.14372 0.45295 0.34300
C 	C 	0.60187 0.05567 0.43550 -0.07500
H 	H 	0.64389 0.02207 0.43114 0.10600
F 	F 	0.72825 0.18510 0.46424 -0.40200
C 	C 	0.91550 0.35669 0.52135 -0.12300
C 	C 	0.92811 0.38277 0.48573 0.37700
F 	F 	0.85622 0.37461 0.46634 -0.40900
C 	C 	0.59030 0.61800 0.55015 -0.08100
C 	C 	0.55985 0.68043 0.53832 0.34600
F 	F 	0.62215 0.76813 0.52569 -0.42200
H 	H 	0.66343 0.64097 0.54983 0.10400
C 	C 	0.74536 0.18581 0.66711 -0.05900
C 	C 	0.81893 0.24725 0.68909 0.01200
C 	C 	0.87402 0.21386 0.70567 0.00100
C 	C 	0.85467 0.11823 0.70071 -0.04900
C 	C 	0.77877 0.05583 0.67985 0.00300
C 	C 	0.72294 0.08883 0.66386 0.01500
C 	C 	0.83948 0.34561 0.69391 0.10100
C 	C 	0.75968 0.95827 0.67395 0.11500
C 	C 	0.64288 0.02307 0.64367 0.09000
C 	C 	0.95112 0.27835 0.72738 0.10500
N 	N 	0.57904 0.97010 0.62764 -0.08800
N 	N 	0.74446 0.88050 0.66921 -0.09200
N 	N 	0.85585 0.42409 0.69773 -0.09600
C 	C 	0.87911 0.72932 0.69267 -0.06100
C 	C 	0.94079 0.72053 0.66906 0.02700
C 	C 	0.90636 0.66480 0.63825 0.00200
C 	C 	0.81084 0.61650 0.63129 -0.05200
C 	C 	0.75206 0.63430 0.65312 -0.00100
C 	C 	0.78403 0.68020 0.68551 0.01600
C 	C 	0.66243 0.61532 0.64110 0.10000
C 	C 	0.71834 0.67384 0.71200 0.10100
C 	C 	0.96899 0.65562 0.61405 0.12300
N 	N 	0.66595 0.66877 0.73311 -0.09700
N 	N 	0.59045 0.60257 0.63275 -0.08700
C 	C 	0.90545 0.33034 0.98835 -0.13100
C 	C 	0.93881 0.32893 0.02201 0.37100
F 	F 	0.87982 0.29522 0.04974 -0.42700
C 	C 	0.58359 0.14880 0.04682 -0.09500
C 	C 	0.53718 0.19678 0.03502 -0.11200
H 	H 	0.65742 0.18053 0.04290 0.13100
F 	F 	0.57734 0.00454 0.06669 -0.42600
C 	C 	0.57014 0.72951 0.96378 0.34900
C 	C 	0.62338 0.69233 0.94932 -0.08400
C 	C 	0.58198 0.59488 0.94060 -0.12000
H 	H 	0.69733 0.73739 0.94719 0.10600
F 	F 	0.61151 0.82225 0.97432 -0.41900
C 	C 	0.81623 0.25761 0.85372 -0.05800
C 	C 	0.90985 0.31154 0.84416 0.00500
C 	C 	0.95869 0.26467 0.83355 0.02400
C 	C 	0.90990 0.16629 0.82454 -0.05500
C 	C 	0.81314 0.11390 0.83031 0.01000
C 	C 	0.76822 0.15792 0.84735 0.01000
C 	C 	0.95497 0.41512 0.84394 0.11300
C 	C 	0.75917 0.01618 0.81787 0.09600
C 	C 	0.67333 0.10012 0.85901 0.09700
N 	N 	0.59765 0.05358 0.86828 -0.09700
N 	N 	0.71588 0.93819 0.80799 -0.10400
N 	N 	0.99088 0.49790 0.84348 -0.09200
C 	C 	0.55509 0.20312 0.81453 0.10500
N 	N 	0.62696 0.22240 0.80337 -0.09900
C 	C 	0.94663 0.69021 0.91637 -0.05600
C 	C 	0.92078 0.76146 0.91492 0.00800
C 	C 	0.93537 0.81460 0.88362 0.00100
C 	C 	0.98506 0.80280 0.85555 -0.04400
C 	C 	0.89172 0.78861 0.94669 0.10800
C 	C 	0.90051 0.88129 0.88066 0.10100
N 	N 	0.87216 0.93423 0.87873 -0.08900
N 	N 	0.86931 0.81067 0.97223 -0.08900
