data_crystal

_cell_length_a 39.93597
_cell_length_b 38.71432
_cell_length_c 21.91550
_cell_angle_alpha 89.96271
_cell_angle_beta  89.94163
_cell_angle_gamma 89.99870

_symmetry_space_group_name_	'P 1'
_symmetry_space_group_name_H-M	'P 1'

loop_
_symmetry_equiv_pos_as_xyz
  x,y,z

loop_
_atom_site_label
_atom_site_type_symbol
_atom_site_fract_x
_atom_site_fract_y
_atom_site_fract_z
_atom_site_charge
C 	C 	0.55036 0.44775 0.03697 0.13800
N 	N 	0.51680 0.44785 0.03066 -0.15700
C 	C 	0.50511 0.42253 0.06696 0.09800
C 	C 	0.47069 0.40863 0.06163 -0.05800
C 	C 	0.44209 0.43255 0.05383 0.08000
C 	C 	0.46457 0.37097 0.06566 0.03800
C 	C 	0.48006 0.34840 0.02430 -0.02600
C 	C 	0.47231 0.31317 0.02513 0.02200
C 	C 	0.44876 0.30028 0.06702 -0.02300
C 	C 	0.44182 0.35793 0.10873 -0.05400
N 	N 	0.44344 0.46631 0.06889 -0.12000
C 	C 	0.41396 0.42529 0.01940 -0.02300
C 	C 	0.41546 0.48033 0.04495 0.08600
C 	C 	0.40938 0.51799 0.04232 -0.07200
C 	C 	0.37463 0.53126 0.03930 0.08400
C 	C 	0.31740 0.53091 0.07678 -0.01400
C 	C 	0.36534 0.55457 0.99325 -0.09500
C 	C 	0.33221 0.56601 0.98900 -0.04700
C 	C 	0.30802 0.55397 0.03041 0.02200
N 	N 	0.46393 0.53999 0.00486 -0.15600
C 	C 	0.47923 0.57100 0.00546 0.13400
C 	C 	0.46375 0.59291 0.04657 -0.06600
C 	C 	0.43699 0.57471 0.07056 -0.05400
C 	C 	0.51209 0.57763 0.97600 -0.08800
C 	C 	0.52455 0.61341 0.96963 -0.02300
C 	C 	0.56405 0.65825 0.99795 -0.13700
C 	C 	0.54830 0.68141 0.95775 0.03100
C 	C 	0.52060 0.67027 0.92345 -0.04900
C 	C 	0.50877 0.63642 0.92947 -0.02800
N 	N 	0.53376 0.51815 0.98926 -0.13800
C 	C 	0.57776 0.51944 0.92502 -0.06400
C 	C 	0.56030 0.50039 0.96810 0.09200
C 	C 	0.57324 0.46910 0.99902 -0.10400
C 	C 	0.60960 0.46223 0.99951 0.02000
C 	C 	0.63070 0.48189 0.03690 -0.03200
C 	C 	0.66538 0.47746 0.03390 0.02600
C 	C 	0.67929 0.45333 0.99325 -0.05700
C 	C 	0.65802 0.43300 0.95695 -0.00600
C 	C 	0.62330 0.43745 0.96014 -0.06500
C 	C 	0.56030 0.42229 0.07751 -0.07100
C 	C 	0.53127 0.40602 0.09662 -0.05100
C 	C 	0.43386 0.32278 0.10927 -0.00800
C 	C 	0.39685 0.45599 0.01372 -0.02700
C 	C 	0.43799 0.54224 0.04389 0.10700
C 	C 	0.56063 0.55017 0.91879 -0.06100
C 	C 	0.53370 0.54820 0.95843 0.08600
C 	C 	0.55219 0.62445 0.00386 0.06500
H 	H 	0.50411 0.45733 0.99247 0.07300
H 	H 	0.46592 0.52190 0.96966 0.07200
H 	H 	0.68142 0.49291 0.06289 0.04900
H 	H 	0.66838 0.41435 0.92531 0.04300
H 	H 	0.62024 0.50098 0.06762 0.05600
H 	H 	0.60711 0.42214 0.93118 0.04700
H 	H 	0.48390 0.29609 0.99216 0.01400
H 	H 	0.42997 0.37512 0.14123 0.05400
H 	H 	0.41595 0.31307 0.14227 0.05000
H 	H 	0.49760 0.35824 0.99078 0.01800
H 	H 	0.32523 0.58372 0.95289 0.04600
H 	H 	0.38368 0.56348 0.96035 0.04900
C 	C 	0.35058 0.51975 0.08139 -0.06200
H 	H 	0.29902 0.52174 0.10939 0.05200
H 	H 	0.58516 0.66655 0.02524 0.10500
H 	H 	0.56441 0.60685 0.03521 0.03400
H 	H 	0.48742 0.62807 0.90284 0.03800
H 	H 	0.50835 0.68774 0.89194 0.05400
H 	H 	0.58509 0.41105 0.07965 0.06600
H 	H 	0.53020 0.38021 0.11553 0.05500
H 	H 	0.41156 0.40361 0.98853 0.01900
H 	H 	0.37908 0.46175 0.97785 0.02100
H 	H 	0.46675 0.62068 0.04822 0.06700
H 	H 	0.41509 0.58637 0.09115 0.05800
H 	H 	0.60381 0.51570 0.91302 0.05000
H 	H 	0.57133 0.57383 0.90104 0.04900
H 	H 	0.35757 0.50204 0.11749 0.05700
Zn	Zn	0.38329 0.10528 0.99473 1.21000
C 	C 	0.32236 0.06585 0.98192 0.29000
O 	O 	0.38409 0.07717 0.06965 -0.40700
O 	O 	0.34026 0.03778 0.99021 -0.43800
O 	O 	0.41300 0.03369 0.02382 -0.46600
C 	C 	0.39553 0.08771 0.86825 0.29200
O 	O 	0.40533 0.10645 0.91485 -0.45400
O 	O 	0.37811 0.05955 0.87760 -0.47400
C 	C 	0.40203 0.04884 0.07351 0.29800
O 	O 	0.42986 0.13709 0.03058 -0.28400
Zn	Zn	0.38635 0.03191 0.94968 1.16800
O 	O 	0.33714 0.09527 0.96843 -0.42200
C 	C 	0.40839 0.16171 0.03989 0.25300
O 	O 	0.37772 0.15452 0.02572 -0.33800
C 	C 	0.52229 0.99765 0.54348 0.01700
C 	C 	0.49557 0.02117 0.53326 0.01400
C 	C 	0.52520 0.96786 0.50725 -0.05400
C 	C 	0.50179 0.96130 0.46085 0.01600
C 	C 	0.47217 0.01463 0.48680 -0.05400
C 	C 	0.47511 0.98486 0.45050 0.01600
H 	H 	0.45182 0.03259 0.47895 0.05600
H 	H 	0.54554 0.94990 0.51511 0.05600
C 	C 	0.45168 0.97757 0.40408 -0.01600
C 	C 	0.45554 0.94892 0.36540 0.01100
C 	C 	0.43916 0.95318 0.30809 -0.03700
C 	C 	0.42324 0.98525 0.30188 -0.01400
S 	S 	0.43008 0.00747 0.36584 0.02700
H 	H 	0.44144 0.93511 0.27073 0.05500
C 	C 	0.50407 0.93134 0.42438 -0.01600
C 	C 	0.48198 0.92560 0.37561 0.01000
C 	C 	0.49569 0.90369 0.32960 -0.03600
C 	C 	0.52868 0.89336 0.34152 -0.01600
S 	S 	0.53984 0.91124 0.40769 0.02600
H 	H 	0.48398 0.89953 0.28577 0.05400
C 	C 	0.54191 0.03354 0.62857 0.01000
C 	C 	0.54579 0.00496 0.58977 -0.01800
S 	S 	0.56741 0.97504 0.62788 0.02600
C 	C 	0.57419 0.99710 0.69201 -0.01700
C 	C 	0.55826 0.02918 0.68590 -0.03800
C 	C 	0.49328 0.05110 0.56983 -0.01500
C 	C 	0.51547 0.05686 0.61845 0.00900
C 	C 	0.50187 0.07886 0.66443 -0.03700
C 	C 	0.46888 0.08920 0.65268 -0.01700
S 	S 	0.45753 0.07119 0.58669 0.02500
H 	H 	0.51372 0.08316 0.70811 0.05000
H 	H 	0.55585 0.04712 0.72343 0.05000
Zn	Zn	0.61526 0.87832 0.99956 1.21200
C 	C 	0.67375 0.92175 0.01337 0.28800
O 	O 	0.59263 0.87662 0.07955 -0.42100
O 	O 	0.65415 0.94856 0.00476 -0.40700
O 	O 	0.61751 0.92513 0.11552 -0.46300
C 	C 	0.59349 0.93252 0.91998 0.29800
O 	O 	0.61356 0.90579 0.92475 -0.43700
O 	O 	0.58076 0.94666 0.96917 -0.50400
C 	C 	0.60160 0.89611 0.12569 0.28900
O 	O 	0.57108 0.84504 0.95844 -0.30500
Zn	Zn	0.60717 0.95160 0.04297 1.18300
O 	O 	0.66085 0.89122 0.02557 -0.39500
C 	C 	0.59239 0.81972 0.95924 0.25400
O 	O 	0.62193 0.82742 0.97938 -0.36800
Zn	Zn	0.11443 0.62380 0.99819 1.21000
C 	C 	0.07690 0.68323 0.95568 0.29300
O 	O 	0.09851 0.61486 0.08235 -0.42200
O 	O 	0.05392 0.66123 0.93753 -0.43300
O 	O 	0.04924 0.64313 0.06873 -0.45200
C 	C 	0.08077 0.58614 0.90438 0.29800
O 	O 	0.10408 0.60927 0.91485 -0.43700
O 	O 	0.05606 0.58216 0.94318 -0.49800
C 	C 	0.07220 0.63062 0.10522 0.28900
O 	O 	0.14899 0.57428 0.00474 -0.28000
Zn	Zn	0.03954 0.62047 0.99201 1.16500
O 	O 	0.10174 0.67274 0.99048 -0.42600
C 	C 	0.17339 0.59627 0.00924 0.25300
O 	O 	0.16493 0.62851 0.00764 -0.33800
C 	C 	0.97983 0.50970 0.44618 0.01600
C 	C 	0.00617 0.53399 0.45388 0.01600
C 	C 	0.97854 0.48007 0.48311 -0.05400
C 	C 	0.00216 0.47530 0.52989 0.01600
C 	C 	0.03067 0.52846 0.49885 -0.05300
C 	C 	0.02836 0.49972 0.53797 0.01500
H 	H 	0.05090 0.54683 0.50435 0.05600
H 	H 	0.95879 0.46128 0.47647 0.05600
C 	C 	0.05147 0.49475 0.58597 -0.01500
C 	C 	0.04772 0.46760 0.62804 0.01000
C 	C 	0.06330 0.47451 0.68532 -0.03700
C 	C 	0.07821 0.50724 0.68846 -0.01700
S 	S 	0.07179 0.52662 0.62147 0.02400
H 	H 	0.06089 0.45790 0.72475 0.05100
C 	C 	0.00001 0.44683 0.57001 -0.01500
C 	C 	0.02171 0.44349 0.62009 0.01000
C 	C 	0.00779 0.42336 0.66852 -0.03700
C 	C 	0.97510 0.41201 0.65695 -0.01700
S 	S 	0.96435 0.42691 0.58828 0.02400
H 	H 	0.01914 0.42115 0.71312 0.05000
C 	C 	0.95454 0.54708 0.36818 0.01000
C 	C 	0.95412 0.51697 0.40392 -0.01700
S 	S 	0.93269 0.48701 0.36556 0.02900
C 	C 	0.92157 0.51089 0.30548 -0.01700
C 	C 	0.93574 0.54373 0.31322 -0.03600
C 	C 	0.00570 0.56467 0.41909 -0.01600
C 	C 	0.98034 0.57136 0.37642 0.01000
C 	C 	0.98995 0.59609 0.33153 -0.03600
C 	C 	0.02301 0.60749 0.33793 -0.01600
S 	S 	0.03965 0.58673 0.39749 0.02700
H 	H 	0.97499 0.60225 0.29189 0.05100
H 	H 	0.93544 0.56307 0.27761 0.05200
Zn	Zn	0.87829 0.39929 0.99189 1.21000
C 	C 	0.81981 0.44208 0.97260 0.29300
O 	O 	0.90380 0.39728 0.91475 -0.44900
O 	O 	0.83853 0.46961 0.98059 -0.43900
O 	O 	0.87946 0.44518 0.87500 -0.47300
C 	C 	0.89746 0.45389 0.07278 0.29800
O 	O 	0.87769 0.42703 0.06639 -0.41200
O 	O 	0.91084 0.46860 0.02462 -0.47000
C 	C 	0.89643 0.41656 0.86733 0.28900
O 	O 	0.92034 0.36533 0.03889 -0.28200
Zn	Zn	0.88677 0.47243 0.94789 1.16700
O 	O 	0.83370 0.41203 0.96069 -0.42300
C 	C 	0.89861 0.34047 0.03556 0.25300
O 	O 	0.87014 0.34867 0.01145 -0.33800
C 	C 	0.98793 0.93574 0.00034 0.17400
N 	N 	0.96980 0.96498 0.99782 -0.21600
C 	C 	0.94289 0.95979 0.03369 0.13500
C 	C 	0.91316 0.98260 0.03278 -0.08800
C 	C 	0.91750 0.02060 0.02992 0.10300
C 	C 	0.87941 0.96749 0.02678 0.09000
C 	C 	0.86405 0.96593 0.96939 -0.09900
C 	C 	0.83087 0.95488 0.96426 -0.04000
C 	C 	0.81286 0.94509 0.01652 0.01100
C 	C 	0.86177 0.95686 0.07885 -0.07100
N 	N 	0.94777 0.03596 0.02895 -0.12400
C 	C 	0.89229 0.04444 0.04021 -0.05800
C 	C 	0.94173 0.06989 0.03696 0.09900
C 	C 	0.96860 0.09534 0.04936 -0.07900
C 	C 	0.96067 0.13258 0.04982 0.08500
C 	C 	0.94825 0.18513 0.10580 -0.01500
C 	C 	0.95383 0.14971 0.99486 -0.09600
C 	C 	0.94373 0.18426 0.99538 -0.04600
C 	C 	0.94073 0.20205 0.05087 0.02000
N 	N 	0.01777 0.06265 0.01055 -0.15700
C 	C 	0.05113 0.06471 0.01846 0.13900
C 	C 	0.05875 0.08661 0.06637 -0.06800
C 	C 	0.02851 0.09929 0.08753 -0.05600
C 	C 	0.07550 0.04204 0.98668 -0.10200
C 	C 	0.11171 0.04894 0.99209 0.01800
C 	C 	0.16591 0.03379 0.03400 0.02100
C 	C 	0.18143 0.05788 0.99520 -0.04900
C 	C 	0.16166 0.07832 0.95631 -0.01000
C 	C 	0.12692 0.07387 0.95488 -0.06300
N 	N 	0.03788 0.99152 0.97640 -0.13800
C 	C 	0.06759 0.95955 0.90979 -0.06800
C 	C 	0.03991 0.96082 0.94774 0.10200
C 	C 	0.01962 0.93053 0.96628 -0.12700
C 	C 	0.03214 0.89520 0.95536 0.06900
C 	C 	0.05727 0.88145 0.99275 -0.10300
C 	C 	0.06722 0.84707 0.98589 -0.04100
C 	C 	0.05212 0.82609 0.94131 -0.01400
C 	C 	0.02772 0.84036 0.90253 -0.01200
C 	C 	0.01768 0.87471 0.90980 -0.07500
C 	C 	0.97287 0.91171 0.03826 -0.07900
C 	C 	0.94377 0.92704 0.05930 -0.06100
C 	C 	0.82867 0.94547 0.07371 -0.01000
C 	C 	0.90787 0.07611 0.04476 -0.05500
C 	C 	0.00393 0.08385 0.05224 0.10800
C 	C 	0.08300 0.99128 0.91482 -0.05900
C 	C 	0.06386 0.01028 0.95553 0.08900
C 	C 	0.13123 0.02929 0.03227 -0.02900
H 	H 	0.97073 0.98266 0.96179 0.09600
H 	H 	0.00612 0.05469 0.97025 0.07500
H 	H 	0.08599 0.83652 0.01628 0.08200
H 	H 	0.01627 0.82476 0.86723 0.04400
H 	H 	0.06858 0.89721 0.02800 0.08800
H 	H 	0.99836 0.88526 0.88055 0.05000
H 	H 	0.81898 0.95445 0.91985 0.04600
H 	H 	0.87347 0.95809 0.12337 0.05500
H 	H 	0.81497 0.93810 0.11438 0.04800
H 	H 	0.87758 0.97403 0.92896 0.05200
H 	H 	0.93812 0.19717 0.95272 0.04600
H 	H 	0.95583 0.13608 0.95184 0.05100
C 	C 	0.95787 0.15039 0.10531 -0.06700
H 	H 	0.94591 0.19864 0.14887 0.04900
H 	H 	0.18075 0.01829 0.06503 0.04800
H 	H 	0.11957 0.01016 0.06148 0.05600
H 	H 	0.11193 0.08923 0.92388 0.04700
H 	H 	0.17326 0.09697 0.92607 0.04500
H 	H 	0.97772 0.88421 0.03793 0.07000
H 	H 	0.92228 0.91313 0.07674 0.05700
H 	H 	0.86793 0.03845 0.05917 0.05800
H 	H 	0.89738 0.09834 0.06785 0.05700
H 	H 	0.08303 0.09799 0.07512 0.06600
H 	H 	0.02556 0.12287 0.11343 0.05500
H 	H 	0.07988 0.93616 0.89457 0.05300
H 	H 	0.10907 0.99612 0.90422 0.05000
H 	H 	0.96274 0.13721 0.14801 0.05400
C 	C 	0.92858 0.23785 0.05145 0.11200
N 	N 	0.89877 0.24585 0.02539 -0.07200
N 	N 	0.88866 0.27859 0.02230 -0.05100
C 	C 	0.90825 0.30430 0.04456 0.06400
N 	N 	0.93793 0.29628 0.07125 -0.05500
N 	N 	0.94788 0.26346 0.07495 -0.07500
C 	C 	0.91266 0.40979 0.80846 0.02700
N 	N 	0.90393 0.42846 0.75849 -0.06200
N 	N 	0.92257 0.42716 0.70807 -0.08300
C 	C 	0.95064 0.40738 0.70635 0.11600
N 	N 	0.95852 0.38754 0.75537 -0.08300
N 	N 	0.93969 0.38858 0.80558 -0.06000
C 	C 	0.91513 0.49589 0.24493 0.12000
N 	N 	0.89914 0.46507 0.23956 -0.07700
N 	N 	0.89350 0.45152 0.18455 -0.05100
C 	C 	0.90393 0.46832 0.13351 0.04000
N 	N 	0.91995 0.49905 0.13898 -0.06300
N 	N 	0.92537 0.51269 0.19383 -0.08400
C 	C 	0.07247 0.72023 0.94377 0.03500
N 	N 	0.09605 0.74318 0.96231 -0.05900
N 	N 	0.09015 0.77701 0.95909 -0.08600
C 	C 	0.06036 0.78888 0.93773 0.10700
N 	N 	0.03719 0.76590 0.91750 -0.08600
N 	N 	0.04319 0.73209 0.92038 -0.06500
C 	C 	0.08236 0.56440 0.84967 0.03100
N 	N 	0.06469 0.53451 0.84733 -0.06500
N 	N 	0.06415 0.51580 0.79639 -0.08700
C 	C 	0.08094 0.52663 0.74599 0.11600
N 	N 	0.09890 0.55640 0.74845 -0.08000
N 	N 	0.09973 0.57495 0.79971 -0.05600
C 	C 	0.06607 0.63019 0.17121 0.03700
N 	N 	0.04278 0.65168 0.19553 -0.05700
N 	N 	0.03128 0.64638 0.25182 -0.08100
C 	C 	0.04268 0.61941 0.28547 0.11800
N 	N 	0.06758 0.59928 0.26266 -0.07900
N 	N 	0.07917 0.60464 0.20633 -0.05600
C 	C 	0.71013 0.92615 0.01020 0.07100
N 	N 	0.73079 0.90375 0.03941 -0.05400
N 	N 	0.76372 0.90944 0.04061 -0.07800
C 	C 	0.77687 0.93748 0.01205 0.13700
N 	N 	0.75625 0.95949 0.98191 -0.10400
N 	N 	0.72333 0.95401 0.98130 -0.08300
C 	C 	0.58739 0.94843 0.86029 0.03000
N 	N 	0.60004 0.93403 0.80869 -0.05400
N 	N 	0.59585 0.94957 0.75490 -0.08000
C 	C 	0.57915 0.98007 0.75135 0.11600
N 	N 	0.56658 0.99444 0.80300 -0.08800
N 	N 	0.57058 0.97882 0.85664 -0.06800
C 	C 	0.55270 0.88748 0.29191 0.11800
N 	N 	0.58011 0.90803 0.28665 -0.08100
N 	N 	0.59739 0.90897 0.23464 -0.06000
C 	C 	0.58790 0.88920 0.18655 0.03500
N 	N 	0.56190 0.86693 0.19325 -0.05300
N 	N 	0.54445 0.86619 0.24509 -0.07900
C 	C 	0.28578 0.06408 0.98640 0.03600
N 	N 	0.26683 0.09275 0.97748 -0.05900
N 	N 	0.23354 0.09088 0.98075 -0.08200
C 	C 	0.21829 0.06027 0.99300 0.09200
N 	N 	0.23731 0.03166 0.00207 -0.04800
N 	N 	0.27056 0.03355 0.99888 -0.07700
C 	C 	0.44498 0.09547 0.70238 0.11600
N 	N 	0.41703 0.07569 0.70727 -0.08300
N 	N 	0.39964 0.07508 0.75918 -0.06200
C 	C 	0.40957 0.09441 0.80754 0.02700
N 	N 	0.43618 0.11593 0.80124 -0.05900
N 	N 	0.45372 0.11636 0.74948 -0.08300
C 	C 	0.41773 0.00198 0.24240 0.11800
N 	N 	0.40274 0.03342 0.23915 -0.07700
N 	N 	0.39804 0.04865 0.18523 -0.05200
C 	C 	0.40842 0.03295 0.13314 0.04000
N 	N 	0.42343 0.00157 0.13644 -0.06100
N 	N 	0.42796 0.98627 0.19024 -0.08200
C 	C 	0.41912 0.19722 0.05241 0.06200
N 	N 	0.45209 0.20571 0.05006 -0.05400
N 	N 	0.46163 0.23853 0.05589 -0.07600
C 	C 	0.43848 0.26376 0.06459 0.12400
N 	N 	0.40557 0.25515 0.06816 -0.07700
N 	N 	0.39602 0.22236 0.06193 -0.05300
C 	C 	0.27289 0.56502 0.02467 0.11300
N 	N 	0.24775 0.54154 0.02924 -0.07400
N 	N 	0.21594 0.55152 0.02409 -0.05400
C 	C 	0.20837 0.58528 0.01468 0.06400
N 	N 	0.23349 0.60878 0.01029 -0.05200
N 	N 	0.26532 0.59877 0.01500 -0.07200
C 	C 	0.71600 0.45035 0.98717 0.11800
N 	N 	0.73042 0.41926 0.97545 -0.08600
N 	N 	0.76359 0.41664 0.97033 -0.05800
C 	C 	0.78326 0.44502 0.97672 0.03400
N 	N 	0.76884 0.47608 0.98824 -0.06400
N 	N 	0.73570 0.47872 0.99331 -0.09100
C 	C 	0.58155 0.78373 0.95240 0.05200
N 	N 	0.54875 0.77627 0.94290 -0.06100
N 	N 	0.53827 0.74358 0.94306 -0.08100
C 	C 	0.56030 0.71741 0.95270 0.09500
N 	N 	0.59324 0.72487 0.96077 -0.08300
N 	N 	0.60369 0.75756 0.96074 -0.06100
