data_crystal

_cell_length_a 20.19438
_cell_length_b 21.36131
_cell_length_c 44.78875
_cell_angle_alpha 60.63621
_cell_angle_beta  119.14803
_cell_angle_gamma 133.33439

_symmetry_space_group_name_	'P 1'
_symmetry_space_group_name_H-M	'P 1'

loop_
_symmetry_equiv_pos_as_xyz
  x,y,z

loop_
_atom_site_label
_atom_site_type_symbol
_atom_site_fract_x
_atom_site_fract_y
_atom_site_fract_z
_atom_site_charge
C 	C 	0.29385 0.64315 0.14904 0.06600
C 	C 	0.22838 0.55942 0.14082 -0.00700
C 	C 	0.26085 0.51597 0.14274 0.07100
C 	C 	0.35602 0.55250 0.15533 -0.02900
C 	C 	0.38985 0.68009 0.16014 -0.01600
H 	H 	0.15430 0.53100 0.13143 0.13400
H 	H 	0.38077 0.51906 0.15675 0.11900
C 	C 	0.25370 0.65046 0.61921 0.08200
C 	C 	0.34498 0.68113 0.62353 -0.03700
C 	C 	0.28272 0.56999 0.59704 -0.02400
C 	C 	0.19299 0.52765 0.59916 0.08000
C 	C 	0.17660 0.57194 0.60711 -0.02500
H 	H 	0.29462 0.53881 0.58889 0.12100
H 	H 	0.10556 0.54632 0.60347 0.13400
Co	Co	0.00162 0.07643 0.06827 1.17900
Co	Co	0.07791 0.03082 0.03657 1.18800
Co	Co	0.15033 0.92800 0.04331 1.18400
C 	C 	0.26771 0.12311 0.03224 0.32200
O 	O 	0.01670 0.04922 0.16741 -0.35300
O 	O 	0.05649 0.11807 0.02901 -0.40800
C 	C 	0.08456 0.20894 0.10512 0.28600
C 	C 	0.22302 0.89276 0.11873 0.31400
O 	O 	0.02202 0.93652 0.17750 -0.33700
O 	O 	0.24646 0.95628 0.09026 -0.36000
O 	O 	0.15689 0.86981 0.12974 -0.28500
O 	O 	0.10622 0.17963 0.09366 -0.33800
O 	O 	0.07897 0.94088 0.05884 -0.75000
O 	O 	0.22781 0.06094 0.01765 -0.36900
O 	O 	0.22171 0.11569 0.04810 -0.35700
Co	Co	0.02423 0.00621 0.53033 1.17600
Co	Co	0.08869 0.90091 0.53194 1.18100
C 	C 	0.20464 0.09757 0.51708 0.31600
O 	O 	0.00459 0.09298 0.52523 -0.40800
C 	C 	0.06988 0.18705 0.61321 0.30200
C 	C 	0.18477 0.88140 0.60630 0.31500
O 	O 	0.02414 0.94135 0.67432 -0.37000
O 	O 	0.19880 0.93567 0.57520 -0.29600
O 	O 	0.12892 0.86683 0.62026 -0.31900
O 	O 	0.03431 0.12278 0.64025 -0.34200
O 	O 	0.07350 0.17113 0.58879 -0.33200
O 	O 	0.02954 0.91831 0.55216 -0.74800
O 	O 	0.15784 0.03202 0.50305 -0.39400
O 	O 	0.16655 0.09450 0.53508 -0.33100
C 	C 	0.10813 0.02654 0.74038 0.03000
C 	C 	0.11599 0.03669 0.77100 -0.04400
C 	C 	0.03452 0.03038 0.81861 -0.03600
H 	H 	0.15116 0.08422 0.72222 0.11700
H 	H 	0.16623 0.10175 0.77637 0.10900
H 	H 	0.02026 0.06748 0.79218 0.08900
C 	C 	0.03821 0.02818 0.38593 -0.07700
C 	C 	0.02746 0.02626 0.41522 -0.01900
C 	C 	0.00628 0.02562 0.31114 -0.07900
C 	C 	0.01889 0.02535 0.28302 0.00200
H 	H 	0.09953 0.08594 0.37554 0.10200
H 	H 	0.08153 0.08186 0.42735 0.07300
H 	H 	0.01105 0.08104 0.30931 0.09300
H 	H 	0.03347 0.08072 0.25993 0.09400
C 	C 	0.13906 0.37689 0.63598 0.01400
C 	C 	0.12658 0.43061 0.60269 0.08500
C 	C 	0.08342 0.39775 0.57270 -0.12000
C 	C 	0.07358 0.32251 0.57603 0.06400
C 	C 	0.10091 0.27682 0.60918 0.00400
C 	C 	0.13947 0.30817 0.63933 -0.07300
C 	C 	0.18280 0.27056 0.67492 0.77600
H 	H 	0.16386 0.39783 0.65923 0.12100
H 	H 	0.04320 0.29871 0.55297 0.10900
C 	C 	0.05541 0.44698 0.53672 0.77300
F 	F 	0.25408 0.33485 0.69387 -0.40600
F 	F 	0.22122 0.24123 0.67123 -0.41600
F 	F 	0.11493 0.20106 0.69391 -0.45000
F 	F 	0.13075 0.51101 0.52118 -0.37900
F 	F 	0.02775 0.48747 0.53956 -0.42200
F 	F 	0.35656 0.69549 0.53245 -0.39000
C 	C 	0.30124 0.80175 0.60873 0.02100
C 	C 	0.24120 0.70928 0.62197 0.08200
C 	C 	0.17761 0.67690 0.64022 -0.11100
C 	C 	0.16234 0.73539 0.63753 0.07300
C 	C 	0.22073 0.82701 0.62280 0.01000
C 	C 	0.29994 0.85998 0.61425 -0.06800
C 	C 	0.38204 0.95718 0.61003 0.79900
H 	H 	0.35160 0.82868 0.59538 0.13200
H 	H 	0.10544 0.70960 0.64685 0.11900
C 	C 	0.12912 0.58341 0.66355 0.79000
F 	F 	0.46498 0.96601 0.62233 -0.35700
F 	F 	0.38715 0.99584 0.62914 -0.36100
F 	F 	0.37293 0.00161 0.57481 -0.41700
F 	F 	0.18233 0.55181 0.67827 -0.41900
F 	F 	0.04288 0.52724 0.64412 -0.41600
F 	F 	0.11467 0.58228 0.69108 -0.38000
C 	C 	0.18572 0.35658 0.15687 0.03400
C 	C 	0.19763 0.43338 0.13080 0.09300
C 	C 	0.18335 0.43871 0.09545 -0.10500
C 	C 	0.16402 0.36987 0.08793 0.07300
C 	C 	0.15500 0.29480 0.11460 0.02000
C 	C 	0.17953 0.29531 0.14987 -0.08300
C 	C 	0.20957 0.23824 0.18017 0.78200
H 	H 	0.19778 0.35250 0.18397 0.10500
H 	H 	0.14908 0.37151 0.06091 0.09400
C 	C 	0.19472 0.51995 0.06620 0.79800
F 	F 	0.29969 0.29229 0.19861 -0.39600
F 	F 	0.20930 0.18842 0.16877 -0.42600
F 	F 	0.15034 0.18204 0.20275 -0.43600
F 	F 	0.28879 0.58992 0.06954 -0.38700
F 	F 	0.14755 0.54287 0.06798 -0.37700
F 	F 	0.15875 0.50472 0.03322 -0.39400
C 	C 	0.28375 0.83985 0.10674 0.07800
C 	C 	0.24570 0.82938 0.12951 0.00200
C 	C 	0.22623 0.75740 0.16011 -0.03800
C 	C 	0.23382 0.69202 0.16427 0.03800
C 	C 	0.26506 0.70003 0.13966 0.09900
C 	C 	0.28689 0.77342 0.10984 -0.12000
C 	C 	0.32276 0.78655 0.08280 0.79000
H 	H 	0.30893 0.89954 0.08566 0.07400
H 	H 	0.21768 0.63602 0.18713 0.12400
C 	C 	0.20133 0.75100 0.18893 0.77700
F 	F 	0.30677 0.84025 0.05083 -0.41000
F 	F 	0.27801 0.70685 0.07660 -0.38200
F 	F 	0.41812 0.82655 0.09471 -0.41600
F 	F 	0.25564 0.83377 0.19487 -0.39400
F 	F 	0.21711 0.69625 0.22047 -0.38700
C 	C 	0.39959 0.24454 0.47376 -0.12200
C 	C 	0.31310 0.20730 0.47785 0.08500
C 	C 	0.29884 0.17474 0.51162 -0.00500
C 	C 	0.37665 0.19555 0.54078 -0.05100
C 	C 	0.37161 0.18902 0.57498 0.78100
H 	H 	0.25432 0.19644 0.45516 0.08000
C 	C 	0.41372 0.27743 0.43722 0.79000
F 	F 	0.45999 0.23273 0.59673 -0.37800
F 	F 	0.31956 0.10107 0.59276 -0.40000
F 	F 	0.42731 0.22619 0.43383 -0.41300
F 	F 	0.49128 0.36503 0.43209 -0.39300
F 	F 	0.33708 0.27274 0.41098 -0.41400
C 	C 	0.46519 0.28664 0.99091 0.02200
C 	C 	0.43604 0.20321 0.05916 0.07800
C 	C 	0.36331 0.20106 0.03005 -0.01000
C 	C 	0.38270 0.25369 0.99651 -0.06000
C 	C 	0.31085 0.26593 0.96572 0.77600
H 	H 	0.47654 0.31913 0.96447 0.11100
H 	H 	0.42194 0.16603 0.08517 0.09400
F 	F 	0.35457 0.34607 0.94163 -0.39300
F 	F 	0.25816 0.26582 0.97711 -0.41200
F 	F 	0.25192 0.19777 0.94910 -0.42900
C 	C 	0.56458 0.28939 0.50148 0.08300
H 	H 	0.52827 0.17388 0.49570 0.14100
C 	C 	0.42072 0.63788 0.16036 0.08500
H 	H 	0.44072 0.74600 0.16483 0.12800
C 	C 	0.35877 0.64554 0.60971 0.07200
H 	H 	0.40517 0.73652 0.63545 0.11200
C 	C 	0.45388 0.68373 0.61075 0.08200
C 	C 	0.49043 0.74073 0.58032 -0.11400
C 	C 	0.43447 0.76837 0.54617 0.78700
F 	F 	0.48680 0.83253 0.52107 -0.39900
F 	F 	0.40584 0.80310 0.55244 -0.41000
C 	C 	0.52226 0.72177 0.12026 0.01900
C 	C 	0.51409 0.69049 0.15496 0.09600
H 	H 	0.46430 0.71895 0.09846 0.16700
F 	F 	0.51348 0.73190 0.05492 -0.35900
C 	C 	0.45999 0.22445 0.53747 0.03100
C 	C 	0.47157 0.24791 0.50422 0.09200
H 	H 	0.51720 0.23141 0.56053 0.13500
F 	F 	0.33006 0.22755 0.56789 -0.40600
C 	C 	0.53376 0.27865 0.01934 0.07500
C 	C 	0.52269 0.24334 0.05424 -0.12100
C 	C 	0.60080 0.24423 0.08599 0.79100
F 	F 	0.58086 0.21908 0.11718 -0.39300
C 	C 	0.05698 0.97518 0.82426 0.05200
F 	F 	0.51236 0.56341 0.22764 -0.40000
F 	F 	0.61232 0.18581 0.08759 -0.40800
C 	C 	0.01642 0.98008 0.18864 0.34900
C 	C 	0.03807 0.94426 0.73140 -0.08300
C 	C 	0.05667 0.96348 0.79382 0.03700
C 	C 	0.01069 0.95324 0.28431 0.00500
C 	C 	0.01568 0.95096 0.25339 0.10800
C 	C 	0.01799 0.95784 0.22519 -0.03700
H 	H 	0.47549 0.61120 0.66441 0.11800
Co	Co	0.03829 0.87048 0.09588 1.19000
O 	O 	0.02815 0.76951 0.56017 -0.40200
C 	C 	0.50591 0.65790 0.64177 0.01900
F 	F 	0.10754 0.71620 0.17925 -0.38600
C 	C 	0.07447 0.92712 0.85873 -0.01700
C 	C 	0.06844 0.93306 0.88707 -0.00100
H 	H 	0.09206 0.88457 0.86359 0.09200
H 	H 	0.08146 0.89497 0.91344 0.10200
F 	F 	0.55237 0.69204 0.22676 -0.41300
F 	F 	0.51812 0.05387 0.55138 -0.40100
C 	C 	0.62262 0.32092 0.01268 0.06800
H 	H 	0.59659 0.19789 0.02092 0.10700
C 	C 	0.58487 0.23738 0.50240 -0.01300
C 	C 	0.58082 0.77381 0.58235 0.07300
C 	C 	0.58822 0.69162 0.18361 -0.12300
C 	C 	0.60157 0.75047 0.11376 -0.05200
C 	C 	0.57917 0.65443 0.22134 0.79200
C 	C 	0.02862 0.03638 0.84711 -0.02300
O 	O 	0.07753 0.79323 0.06732 -0.37700
H 	H 	0.01069 0.07857 0.84236 0.09500
C 	C 	0.04510 0.98730 0.88145 0.05400
O 	O 	0.03414 0.01764 0.98450 -0.32900
H 	H 	0.66887 0.45176 0.00525 0.11700
C 	C 	0.60268 0.76760 0.07687 0.77700
H 	H 	0.62153 0.41548 0.50520 0.11200
C 	C 	0.64605 0.26964 0.01525 -0.02500
C 	C 	0.59721 0.69329 0.64382 -0.06000
H 	H 	0.61099 0.81942 0.55961 0.09200
F 	F 	0.59461 0.58713 0.69938 -0.38900
C 	C 	0.61106 0.09100 0.56923 0.79300
C 	C 	0.03792 0.99123 0.91136 0.10000
C 	C 	0.03504 0.98674 0.93895 -0.01800
F 	F 	0.65841 0.85786 0.06263 -0.37900
F 	F 	0.61592 0.02735 0.59907 -0.40200
F 	F 	0.68404 0.32861 0.08360 -0.39900
C 	C 	0.63753 0.37428 0.50706 -0.02300
C 	C 	0.63812 0.75971 0.61492 0.00900
F 	F 	0.64531 0.16039 0.58048 -0.41400
H 	H 	0.63764 0.17363 0.98409 0.10900
F 	F 	0.59406 0.06007 0.96388 -0.39300
F 	F 	0.61294 0.97774 0.01878 -0.34400
C 	C 	0.03723 0.96884 0.97509 0.34200
O 	O 	0.04518 0.90480 0.99831 -0.37000
C 	C 	0.68653 0.41300 0.00604 -0.02900
C 	C 	0.65200 0.66305 0.67727 0.77800
C 	C 	0.67047 0.72702 0.17670 0.08700
C 	C 	0.68020 0.76368 0.14193 -0.00100
F 	F 	0.63812 0.72920 0.07805 -0.39400
F 	F 	0.66293 0.67193 0.24549 -0.40400
C 	C 	0.66690 0.12224 0.54526 -0.12400
H 	H 	0.66251 0.00421 0.56743 0.08500
F 	F 	0.03773 0.61514 0.12398 -0.44100
C 	C 	0.67785 0.26454 0.51451 0.07400
C 	C 	0.68838 0.06846 0.54866 0.08700
F 	F 	0.69303 0.64381 0.66893 -0.39100
C 	C 	0.69857 0.20481 0.51952 0.09000
C 	C 	0.65939 0.05146 0.99337 0.76600
Co	Co	0.00113 0.85272 0.59156 1.18600
C 	C 	0.70435 0.18691 0.00156 0.01500
F 	F 	0.70406 0.03882 0.98357 -0.38400
O 	O 	0.99697 0.16984 0.10248 -0.34500
F 	F 	0.98124 0.38932 0.51521 -0.37900
C 	C 	0.98620 0.95408 0.34122 0.09200
Co	Co	0.96682 0.05679 0.56875 1.19900
C 	C 	0.97202 0.95429 0.37112 0.08400
O 	O 	0.91552 0.93762 0.68009 -0.34100
C 	C 	0.99290 0.94356 0.69363 0.37600
C 	C 	0.73527 0.31111 0.01218 0.07100
C 	C 	0.79948 0.40446 0.00587 -0.02500
C 	C 	0.77807 0.45366 0.00677 0.08700
H 	H 	0.86713 0.43797 0.00210 0.14500
C 	C 	0.72994 0.40151 0.51988 0.07400
C 	C 	0.75060 0.34658 0.52381 -0.01800
H 	H 	0.82208 0.36666 0.53450 0.13300
Co	Co	0.95518 0.91279 0.12631 1.20900
C 	C 	0.98724 0.74307 0.06468 0.34700
Co	Co	0.90937 0.03661 0.12372 1.18600
O 	O 	0.95436 0.00393 0.10362 -0.73800
O 	O 	0.97662 0.82540 0.13356 -0.35800
O 	O 	0.98875 0.95625 0.07507 -0.51500
C 	C 	0.77377 0.83762 0.13578 0.31900
O 	O 	0.82268 0.90509 0.14906 -0.35400
O 	O 	0.81348 0.82790 0.12372 -0.30400
C 	C 	0.83827 0.08641 0.04716 0.31600
O 	O 	0.81042 0.02778 0.07636 -0.30900
O 	O 	0.89406 0.09368 0.03605 -0.30000
O 	O 	0.95263 0.76115 0.07544 -0.30000
Co	Co	0.93417 0.89879 0.62761 1.20500
C 	C 	0.94138 0.71582 0.56290 0.34300
Co	Co	0.89554 0.01814 0.63164 1.17900
O 	O 	0.93174 0.98776 0.60654 -0.73400
O 	O 	0.95264 0.81107 0.63290 -0.36900
O 	O 	0.95004 0.93579 0.57354 -0.53200
C 	C 	0.73799 0.83295 0.62120 0.28800
C 	C 	0.96078 0.93316 0.46836 0.28400
O 	O 	0.76029 0.90926 0.61926 -0.32900
O 	O 	0.80084 0.81539 0.63645 -0.29300
O 	O 	0.97131 0.87035 0.49124 -0.35100
O 	O 	0.96380 0.98450 0.47881 -0.30000
C 	C 	0.82699 0.08500 0.55518 0.30400
O 	O 	0.87278 0.10385 0.58598 -0.36800
O 	O 	0.84770 0.05549 0.54353 -0.31700
O 	O 	0.91154 0.73722 0.57445 -0.30700
C 	C 	0.99565 0.87899 0.78727 -0.00800
C 	C 	0.98749 0.86933 0.75653 0.07500
H 	H 	0.95135 0.82135 0.80509 0.10300
H 	H 	0.93476 0.80484 0.75055 0.09800
C 	C 	0.95177 0.94976 0.43067 0.00500
C 	C 	0.88251 0.87838 0.41439 0.03000
C 	C 	0.89248 0.88062 0.38484 -0.03000
C 	C 	0.99093 0.88164 0.31430 0.05100
C 	C 	0.97932 0.88224 0.34275 -0.03500
H 	H 	0.82373 0.81881 0.42591 0.08800
H 	H 	0.83942 0.82415 0.37321 0.10600
H 	H 	0.98389 0.82537 0.31561 0.10000
H 	H 	0.96488 0.82693 0.36584 0.11400
F 	F 	0.72087 0.72927 0.69530 -0.41600
H 	H 	0.72991 0.73273 0.19828 0.09600
C 	C 	0.75664 0.10352 0.53305 0.00100
C 	C 	0.77823 0.17909 0.50437 -0.05200
C 	C 	0.75133 0.23098 0.49848 0.02800
H 	H 	0.77289 0.29246 0.47809 0.14400
C 	C 	0.82984 0.20439 0.48027 0.78400
F 	F 	0.79164 0.12970 0.47165 -0.40100
F 	F 	0.92341 0.24151 0.49704 -0.40200
F 	F 	0.82326 0.26499 0.44924 -0.37300
C 	C 	0.81084 0.47584 0.56742 0.01600
C 	C 	0.80213 0.48262 0.53307 0.09600
C 	C 	0.83859 0.56649 0.50882 -0.12000
C 	C 	0.86984 0.63909 0.51758 0.08400
C 	C 	0.87749 0.63261 0.55170 -0.01500
C 	C 	0.84541 0.54951 0.57673 -0.04700
C 	C 	0.84197 0.53789 0.61234 0.78000
H 	H 	0.78359 0.41131 0.58596 0.13000
H 	H 	0.89291 0.70240 0.49832 0.07700
C 	C 	0.83765 0.57731 0.47254 0.79000
F 	F 	0.80446 0.45115 0.63237 -0.36900
F 	F 	0.78687 0.56043 0.60745 -0.39300
F 	F 	0.93123 0.59183 0.63110 -0.39600
F 	F 	0.74881 0.54820 0.45087 -0.40100
F 	F 	0.86251 0.52847 0.47484 -0.38500
F 	F 	0.90054 0.66526 0.45738 -0.41600
C 	C 	0.76400 0.25616 0.01866 0.09200
C 	C 	0.85037 0.27180 0.04183 -0.12000
C 	C 	0.88275 0.23234 0.04091 0.07800
C 	C 	0.81883 0.15375 0.02968 -0.00000
C 	C 	0.72946 0.13281 0.00807 -0.05500
H 	H 	0.95605 0.25914 0.05123 0.08300
C 	C 	0.90103 0.31857 0.07084 0.78300
F 	F 	0.83839 0.30386 0.08257 -0.40100
F 	F 	0.96387 0.40857 0.05863 -0.40400
F 	F 	0.95032 0.28712 0.09952 -0.42400
C 	C 	0.89575 0.67796 0.01348 0.07400
C 	C 	0.92554 0.66524 0.05025 0.00000
C 	C 	0.91732 0.58593 0.07187 -0.05200
C 	C 	0.88847 0.52529 0.05613 0.03200
C 	C 	0.85307 0.53525 0.01956 0.10000
C 	C 	0.86449 0.61588 0.99786 -0.11400
C 	C 	0.83756 0.63339 0.95805 0.79100
H 	H 	0.89995 0.73780 0.99697 0.09700
H 	H 	0.88419 0.46537 0.07254 0.16300
C 	C 	0.94168 0.56691 0.11169 0.80200
F 	F 	0.88748 0.72369 0.94259 -0.41700
F 	F 	0.74290 0.59655 0.94587 -0.41100
F 	F 	0.85664 0.59662 0.94781 -0.40700
F 	F 	0.90761 0.59031 0.12168 -0.38200
F 	F 	0.90335 0.47766 0.12732 -0.36800
