data_crystal

_cell_length_a 26.16701
_cell_length_b 26.39249
_cell_length_c 34.93067
_cell_angle_alpha 95.53477
_cell_angle_beta  95.53668
_cell_angle_gamma 125.68692

_symmetry_space_group_name_	'P 1'
_symmetry_space_group_name_H-M	'P 1'

loop_
_symmetry_equiv_pos_as_xyz
  x,y,z

loop_
_atom_site_label
_atom_site_type_symbol
_atom_site_fract_x
_atom_site_fract_y
_atom_site_fract_z
_atom_site_charge
C 	C 	0.97216 0.02611 0.00117 0.02800
C 	C 	0.93253 0.96008 0.99926 -0.07300
C 	C 	0.95855 0.92637 0.99794 0.02800
C 	C 	0.02403 0.95838 0.99805 -0.07200
C 	C 	0.06392 0.02426 0.99993 0.02100
C 	C 	0.03800 0.05819 0.00165 -0.06900
H 	H 	0.88160 0.93502 0.99857 0.05200
H 	H 	0.04395 0.93207 0.99668 0.05200
H 	H 	0.06887 0.10923 0.00340 0.05200
C 	C 	0.93258 0.01092 0.44777 0.02100
C 	C 	0.89890 0.94545 0.44726 -0.06500
C 	C 	0.93177 0.91829 0.44847 0.02200
C 	C 	0.99815 0.95659 0.44995 -0.06000
C 	C 	0.03177 0.02176 0.45043 0.01600
C 	C 	0.99910 0.04894 0.44949 -0.06000
H 	H 	0.84754 0.91592 0.44606 0.05100
H 	H 	0.02371 0.93581 0.45119 0.05000
H 	H 	0.02542 0.09961 0.45045 0.04900
Cu	Cu	0.64558 0.23776 0.00308 0.93100
Cu	Cu	0.69290 0.24088 0.91914 0.87400
Cu	Cu	0.67296 0.33529 0.95148 0.90100
Cu	Cu	0.63608 0.34892 0.02858 0.89800
C 	C 	0.66384 0.28557 0.08479 0.33400
O 	O 	0.55109 0.19366 0.00335 -0.34600
C 	C 	0.65377 0.29192 0.86587 0.33500
O 	O 	0.69054 0.33536 0.00601 -0.64000
O 	O 	0.63369 0.24274 0.94703 -0.64000
O 	O 	0.69121 0.19813 0.00068 -0.35600
O 	O 	0.75652 0.26431 0.96258 -0.43500
O 	O 	0.63123 0.30755 0.07455 -0.37800
O 	O 	0.71586 0.42598 0.95988 -0.36800
C 	C 	0.70843 0.45818 0.98730 0.28500
C 	C 	0.52140 0.21653 0.98957 0.27600
O 	O 	0.55500 0.27524 0.98378 -0.38100
O 	O 	0.66503 0.42910 0.00955 -0.38200
O 	O 	0.66941 0.25004 0.05871 -0.33400
C 	C 	0.74431 0.22484 0.98655 0.28200
O 	O 	0.67099 0.33824 0.89493 -0.35600
O 	O 	0.64865 0.24103 0.87266 -0.41700
H 	H 	0.73640 0.36524 0.01850 0.16800
H 	H 	0.58881 0.21460 0.93263 0.18100
Cu	Cu	0.73412 0.34866 0.45383 0.93100
Cu	Cu	0.73554 0.31198 0.54075 0.87800
Cu	Cu	0.63331 0.31887 0.50382 0.89900
Cu	Cu	0.61279 0.34115 0.42309 0.89700
C 	C 	0.68536 0.31970 0.37103 0.33500
O 	O 	0.76936 0.43928 0.44909 -0.34500
C 	C 	0.67682 0.34681 0.59032 0.33700
O 	O 	0.63450 0.29610 0.45026 -0.64100
O 	O 	0.72789 0.36423 0.50921 -0.63900
O 	O 	0.78143 0.31118 0.46067 -0.35500
O 	O 	0.71718 0.24745 0.50020 -0.43200
O 	O 	0.65737 0.34719 0.37844 -0.37900
O 	O 	0.54092 0.26927 0.49528 -0.37600
C 	C 	0.50439 0.26742 0.46540 0.28700
C 	C 	0.74087 0.46436 0.46045 0.27800
O 	O 	0.68158 0.42724 0.46586 -0.38600
O 	O 	0.52920 0.30592 0.44008 -0.38600
O 	O 	0.72353 0.32025 0.39908 -0.33500
C 	C 	0.75760 0.26040 0.47655 0.28400
O 	O 	0.63113 0.32936 0.56038 -0.38300
O 	O 	0.73060 0.35604 0.58495 -0.38500
H 	H 	0.60778 0.24980 0.44002 0.16800
H 	H 	0.75345 0.40946 0.52202 0.18500
C 	C 	0.70839 0.39029 0.70032 -0.14400
C 	C 	0.65023 0.33989 0.70861 0.00800
C 	C 	0.59780 0.29824 0.67791 0.29300
C 	C 	0.60514 0.30382 0.63904 -0.06200
C 	C 	0.66506 0.35074 0.63059 -0.14600
C 	C 	0.71585 0.39587 0.66149 0.36700
C 	C 	0.64750 0.32500 0.74827 0.01200
F 	F 	0.54080 0.25020 0.68564 -0.42600
H 	H 	0.56528 0.26943 0.61550 0.08900
F 	F 	0.77298 0.44387 0.65386 -0.44500
H 	H 	0.74871 0.42337 0.72394 0.11100
C 	C 	0.66456 0.28600 0.75863 0.28900
C 	C 	0.66504 0.27412 0.79671 -0.06300
C 	C 	0.64845 0.30108 0.82495 -0.14600
C 	C 	0.62968 0.33890 0.81423 0.36600
C 	C 	0.62952 0.35094 0.77604 -0.14500
F 	F 	0.68166 0.26038 0.73186 -0.43000
H 	H 	0.67973 0.24507 0.80450 0.08100
F 	F 	0.61108 0.36341 0.84060 -0.44500
H 	H 	0.61571 0.38062 0.76809 0.11400
C 	C 	0.66620 0.23244 0.18110 -0.13900
C 	C 	0.69240 0.28884 0.20769 0.01000
C 	C 	0.71564 0.34539 0.19377 0.28700
C 	C 	0.70960 0.34477 0.15350 -0.06100
C 	C 	0.68022 0.28774 0.12676 -0.14200
C 	C 	0.65996 0.23173 0.14076 0.36900
C 	C 	0.68949 0.28747 0.24959 0.01000
F 	F 	0.74149 0.40036 0.21922 -0.43000
H 	H 	0.72590 0.38828 0.14301 0.07700
F 	F 	0.63119 0.17605 0.11535 -0.43900
H 	H 	0.64858 0.18872 0.19165 0.11700
C 	C 	0.63077 0.26090 0.26203 0.28600
C 	C 	0.62924 0.26826 0.30198 -0.06100
C 	C 	0.68626 0.30230 0.32986 -0.14300
C 	C 	0.74469 0.32591 0.31747 0.36900
C 	C 	0.74613 0.31834 0.27747 -0.13900
F 	F 	0.57556 0.23047 0.23534 -0.43000
H 	H 	0.58391 0.24930 0.31123 0.07700
F 	F 	0.80038 0.35911 0.34399 -0.43800
H 	H 	0.79156 0.33853 0.26809 0.11800
C 	C 	0.77151 0.53241 0.46120 -0.06600
C 	C 	0.75679 0.56486 0.48647 0.00400
C 	C 	0.77943 0.62708 0.48421 -0.05100
C 	C 	0.81982 0.65911 0.45753 0.01400
C 	C 	0.83189 0.62505 0.43071 0.01100
C 	C 	0.80952 0.56282 0.43360 -0.01600
C 	C 	0.86340 0.65227 0.40012 -0.03200
C 	C 	0.88250 0.71251 0.39553 -0.04700
C 	C 	0.87438 0.74853 0.42295 0.03400
C 	C 	0.84555 0.72332 0.45528 -0.01000
C 	C 	0.84681 0.76394 0.48557 -0.02600
C 	C 	0.87128 0.82622 0.48200 -0.04500
C 	C 	0.89722 0.85000 0.44917 0.01600
C 	C 	0.89787 0.81084 0.41946 -0.06600
H 	H 	0.72598 0.54111 0.50714 0.04100
H 	H 	0.76202 0.64827 0.50142 0.04700
H 	H 	0.81920 0.53706 0.41318 0.06200
H 	H 	0.87183 0.62599 0.37920 0.05200
H 	H 	0.90529 0.73196 0.37107 0.04800
H 	H 	0.83317 0.74932 0.51293 0.04000
H 	H 	0.87284 0.85703 0.50573 0.04500
H 	H 	0.91918 0.82980 0.39444 0.05100
C 	C 	0.89884 0.04037 0.44820 0.01700
C 	C 	0.90347 0.07625 0.41983 -0.04600
C 	C 	0.87934 0.11147 0.42298 -0.02500
C 	C 	0.84703 0.10883 0.45382 -0.01200
C 	C 	0.84370 0.07350 0.48293 0.03500
C 	C 	0.86817 0.03834 0.47936 -0.06700
C 	C 	0.81920 0.07638 0.51636 -0.05000
C 	C 	0.80014 0.11557 0.52205 -0.03200
C 	C 	0.80168 0.14988 0.49339 0.00500
C 	C 	0.82178 0.14418 0.45801 0.01600
C 	C 	0.81406 0.17200 0.42742 -0.05100
C 	C 	0.79460 0.21100 0.43386 0.00900
C 	C 	0.77922 0.22018 0.46997 -0.07300
C 	C 	0.78197 0.18888 0.49944 -0.01500
H 	H 	0.92824 0.07898 0.39608 0.04500
H 	H 	0.88964 0.14352 0.40290 0.04100
H 	H 	0.86589 0.01167 0.50176 0.05000
H 	H 	0.81673 0.04957 0.53867 0.04600
H 	H 	0.78341 0.11872 0.54875 0.04100
H 	H 	0.81932 0.16087 0.39817 0.05000
H 	H 	0.78953 0.23245 0.41026 0.05700
H 	H 	0.76872 0.19484 0.52710 0.03200
C 	C 	0.10150 0.06170 0.45246 0.01800
C 	C 	0.14288 0.10168 0.48769 -0.04700
C 	C 	0.20916 0.13696 0.49044 -0.02500
C 	C 	0.23490 0.13064 0.45811 -0.01300
C 	C 	0.19306 0.09468 0.42161 0.03500
C 	C 	0.12653 0.05908 0.41929 -0.06900
C 	C 	0.21815 0.09605 0.38771 -0.05100
C 	C 	0.28423 0.13292 0.38957 -0.03200
C 	C 	0.32633 0.16576 0.42573 0.00500
C 	C 	0.30185 0.16211 0.46064 0.01600
C 	C 	0.34419 0.18656 0.49705 -0.05300
C 	C 	0.41011 0.22070 0.49849 0.00900
C 	C 	0.43470 0.22900 0.46382 -0.07000
C 	C 	0.39270 0.20065 0.42751 -0.01400
H 	H 	0.12365 0.10573 0.51296 0.04600
H 	H 	0.23992 0.17115 0.51696 0.04100
H 	H 	0.09427 0.02965 0.39172 0.05000
H 	H 	0.18635 0.06947 0.35963 0.04500
H 	H 	0.30272 0.13480 0.36286 0.04200
H 	H 	0.32637 0.17674 0.52409 0.05100
H 	H 	0.44208 0.24063 0.52668 0.04900
H 	H 	0.41158 0.20494 0.40071 0.03900
C 	C 	0.74202 0.52695 0.98904 -0.06700
C 	C 	0.75457 0.56610 0.02422 0.00600
C 	C 	0.78610 0.63118 0.02616 -0.05100
C 	C 	0.80870 0.65888 0.99323 0.01300
C 	C 	0.79145 0.61858 0.95697 0.01000
C 	C 	0.75964 0.55316 0.95531 -0.01500
C 	C 	0.80448 0.64371 0.92261 -0.03200
C 	C 	0.83468 0.70835 0.92382 -0.04800
C 	C 	0.85604 0.74974 0.95972 0.03400
C 	C 	0.84566 0.72574 0.99504 -0.01200
C 	C 	0.87593 0.76919 0.03113 -0.02500
C 	C 	0.91027 0.83434 0.03184 -0.04300
C 	C 	0.91741 0.85751 0.99685 0.01200
C 	C 	0.89036 0.81533 0.96087 -0.06500
H 	H 	0.73913 0.54595 0.05007 0.03600
H 	H 	0.78968 0.65887 0.05257 0.04700
H 	H 	0.74748 0.52256 0.92765 0.06300
H 	H 	0.79021 0.61285 0.89470 0.04900
H 	H 	0.84308 0.72659 0.89680 0.04800
H 	H 	0.87655 0.75342 0.05847 0.03900
H 	H 	0.93331 0.86710 0.05970 0.04500
H 	H 	0.89772 0.83374 0.93386 0.05100
C 	C 	0.78637 0.20494 0.99380 -0.07600
C 	C 	0.83762 0.22637 0.97387 0.00200
C 	C 	0.87319 0.20258 0.97722 -0.05500
C 	C 	0.85637 0.15484 0.99943 0.01300
C 	C 	0.81006 0.13910 0.02323 0.01000
C 	C 	0.77434 0.16315 0.01967 -0.01400
C 	C 	0.80055 0.10028 0.05065 -0.03200
C 	C 	0.83561 0.07599 0.05412 -0.04900
C 	C 	0.87764 0.08655 0.02850 0.03600
C 	C 	0.88642 0.12401 0.99975 -0.01400
C 	C 	0.92062 0.12561 0.97035 -0.02500
C 	C 	0.94998 0.09528 0.97167 -0.04800
C 	C 	0.94430 0.06131 0.00146 0.01700
C 	C 	0.90850 0.05737 0.03000 -0.06700
H 	H 	0.85008 0.26160 0.95572 0.03200
H 	H 	0.91522 0.22345 0.96395 0.04500
H 	H 	0.73722 0.14917 0.03685 0.06300
H 	H 	0.76639 0.08943 0.06966 0.04900
H 	H 	0.82844 0.04705 0.07599 0.04700
H 	H 	0.92137 0.14671 0.94519 0.03700
H 	H 	0.97551 0.09647 0.94871 0.04400
H 	H 	0.90324 0.03014 0.05266 0.05000
C 	C 	0.13290 0.05754 0.00019 0.01900
C 	C 	0.17099 0.05610 0.03049 -0.04700
C 	C 	0.23452 0.08113 0.02877 -0.02300
C 	C 	0.26029 0.10612 0.99578 -0.01300
C 	C 	0.22377 0.11334 0.96723 0.03500
C 	C 	0.15974 0.08754 0.96908 -0.07000
C 	C 	0.25204 0.14745 0.93774 -0.04900
C 	C 	0.31627 0.17507 0.93657 -0.03300
C 	C 	0.35219 0.16560 0.96331 0.00900
C 	C 	0.32322 0.12769 0.99164 0.01300
C 	C 	0.35653 0.10981 0.01365 -0.04800
C 	C 	0.42050 0.13696 0.01177 0.00700
C 	C 	0.45153 0.18042 0.98694 -0.06800
C 	C 	0.41662 0.19288 0.96171 -0.01800
H 	H 	0.15126 0.03550 0.05546 0.04600
H 	H 	0.26400 0.08351 0.05384 0.04200
H 	H 	0.13070 0.09026 0.94623 0.05000
H 	H 	0.22458 0.15386 0.91616 0.04600
H 	H 	0.33786 0.20304 0.91435 0.04600
H 	H 	0.33267 0.07331 0.03099 0.05000
H 	H 	0.44621 0.12484 0.03014 0.05700
H 	H 	0.43965 0.22406 0.94112 0.05000
