data_crystal

_cell_length_a 33.58978
_cell_length_b 33.99813
_cell_length_c 34.91209
_cell_angle_alpha 95.53125
_cell_angle_beta  95.53003
_cell_angle_gamma 125.45423

_symmetry_space_group_name_	'P 1'
_symmetry_space_group_name_H-M	'P 1'

loop_
_symmetry_equiv_pos_as_xyz
  x,y,z

loop_
_atom_site_label
_atom_site_type_symbol
_atom_site_fract_x
_atom_site_fract_y
_atom_site_fract_z
_atom_site_charge
C 	C 	0.96114 0.01125 0.98194 0.11200
N 	N 	0.93262 0.96162 0.97878 -0.13900
C 	C 	0.95261 0.93700 0.97259 0.11600
N 	N 	0.00119 0.96213 0.96934 -0.13800
C 	C 	0.02979 0.01169 0.97211 0.11700
N 	N 	0.00976 0.03628 0.97863 -0.13800
C 	C 	0.96497 0.00799 0.46096 0.11300
N 	N 	0.94171 0.96064 0.46582 -0.13900
C 	C 	0.96718 0.94089 0.46746 0.11400
N 	N 	0.01582 0.96858 0.46405 -0.13800
C 	C 	0.03917 0.01585 0.45924 0.11700
N 	N 	0.01367 0.03548 0.45769 -0.13900
Cu	Cu	0.63884 0.25094 0.99591 0.92900
Cu	Cu	0.68745 0.26113 0.91732 0.86400
Cu	Cu	0.66044 0.32495 0.94350 0.89500
Cu	Cu	0.63762 0.34166 0.02045 0.89200
C 	C 	0.65160 0.28861 0.07682 0.29200
O 	O 	0.56581 0.22201 0.99318 -0.36200
C 	C 	0.65665 0.29895 0.86027 0.28500
O 	O 	0.67762 0.32725 0.99823 -0.63800
O 	O 	0.63369 0.25474 0.93981 -0.64300
O 	O 	0.67098 0.21677 0.99551 -0.36900
O 	O 	0.72937 0.27198 0.96377 -0.44100
O 	O 	0.62764 0.30663 0.06531 -0.38900
O 	O 	0.69192 0.39461 0.94782 -0.39000
C 	C 	0.69059 0.42338 0.97517 0.29900
C 	C 	0.54638 0.24239 0.97737 0.28100
O 	O 	0.57564 0.28860 0.97347 -0.39800
O 	O 	0.66923 0.40752 0.00576 -0.40000
O 	O 	0.65429 0.25903 0.05166 -0.36100
C 	C 	0.71414 0.23717 0.98448 0.29100
O 	O 	0.64466 0.31885 0.88688 -0.37600
O 	O 	0.66166 0.26433 0.86711 -0.42100
H 	H 	0.71367 0.34973 0.00942 0.16000
H 	H 	0.60026 0.23147 0.92314 0.17600
Cu	Cu	0.73779 0.34164 0.44898 0.92800
Cu	Cu	0.72189 0.29149 0.52672 0.86400
Cu	Cu	0.65941 0.31818 0.49843 0.89400
Cu	Cu	0.64900 0.34648 0.42229 0.89400
C 	C 	0.70545 0.33378 0.36748 0.29300
O 	O 	0.76979 0.41449 0.45247 -0.36300
C 	C 	0.68825 0.32878 0.58350 0.29200
O 	O 	0.66052 0.30465 0.44405 -0.64300
O 	O 	0.73092 0.34558 0.50446 -0.64400
O 	O 	0.77040 0.30797 0.45056 -0.37200
O 	O 	0.71171 0.24998 0.48054 -0.44300
O 	O 	0.68617 0.35669 0.37840 -0.38500
O 	O 	0.58850 0.28630 0.49078 -0.38800
C 	C 	0.56167 0.28825 0.46175 0.29200
C 	C 	0.74936 0.43444 0.46721 0.28300
O 	O 	0.70231 0.40622 0.47032 -0.39600
O 	O 	0.58250 0.31816 0.43668 -0.39500
O 	O 	0.73176 0.32756 0.39339 -0.36300
C 	C 	0.74762 0.26455 0.46057 0.28900
O 	O 	0.66132 0.33114 0.55474 -0.38400
O 	O 	0.71927 0.31798 0.57671 -0.41800
H 	H 	0.63773 0.26949 0.43145 0.16200
H 	H 	0.75364 0.37828 0.52176 0.17600
C 	C 	0.71527 0.35682 0.69420 -0.07700
C 	C 	0.66700 0.33330 0.70198 0.01300
C 	C 	0.62726 0.31681 0.67124 -0.00500
C 	C 	0.63499 0.31783 0.63252 -0.00700
C 	C 	0.68262 0.33731 0.62436 -0.09300
C 	C 	0.72352 0.36032 0.65574 0.05800
C 	C 	0.65810 0.32313 0.74180 0.01100
S 	S 	0.56795 0.29515 0.68089 -0.03800
H 	H 	0.60370 0.30210 0.60871 0.04300
S 	S 	0.78512 0.39678 0.64765 -0.06000
H 	H 	0.74636 0.37199 0.71808 0.04900
C 	C 	0.63719 0.27564 0.74984 -0.00500
C 	C 	0.63348 0.26772 0.78831 -0.00700
C 	C 	0.65342 0.30724 0.81953 -0.08900
C 	C 	0.67438 0.35492 0.81143 0.04900
C 	C 	0.67545 0.36220 0.77260 -0.07200
S 	S 	0.61836 0.22638 0.71238 -0.05000
H 	H 	0.61672 0.23096 0.79415 0.04000
S 	S 	0.70245 0.40632 0.84946 -0.03900
H 	H 	0.69180 0.39879 0.76648 0.05100
H 	H 	0.80044 0.44405 0.64844 0.03500
H 	H 	0.65837 0.22621 0.70801 0.03200
H 	H 	0.75133 0.42513 0.86141 0.02700
H 	H 	0.53987 0.24531 0.67893 0.03600
C 	C 	0.72435 0.35634 0.26473 -0.07500
C 	C 	0.69744 0.30801 0.24393 0.01300
C 	C 	0.67948 0.26888 0.26454 -0.00500
C 	C 	0.68447 0.27800 0.30535 -0.00600
C 	C 	0.70786 0.32594 0.32582 -0.09100
C 	C 	0.73006 0.36556 0.30555 0.05800
C 	C 	0.68380 0.29843 0.20075 0.01200
S 	S 	0.64988 0.20836 0.23951 -0.04000
H 	H 	0.66879 0.24763 0.32101 0.03400
S 	S 	0.76613 0.42683 0.33101 -0.04500
H 	H 	0.73961 0.38664 0.24902 0.05000
C 	C 	0.63760 0.28611 0.18271 -0.00600
C 	C 	0.62694 0.28134 0.14211 -0.00400
C 	C 	0.66232 0.28980 0.11912 -0.09000
C 	C 	0.70836 0.30146 0.13712 0.05300
C 	C 	0.71866 0.30542 0.17775 -0.07200
S 	S 	0.59337 0.27798 0.21081 -0.04600
H 	H 	0.59126 0.27169 0.12840 0.04300
S 	S 	0.75429 0.31351 0.10953 -0.05000
H 	H 	0.75428 0.31508 0.19162 0.05200
H 	H 	0.81441 0.44316 0.34184 0.03800
H 	H 	0.60292 0.32259 0.22345 0.03400
H 	H 	0.78319 0.36234 0.10718 0.02800
H 	H 	0.59997 0.18610 0.22871 0.03600
C 	C 	0.77690 0.48844 0.47489 -0.08900
C 	C 	0.81711 0.51786 0.45624 0.01200
C 	C 	0.83857 0.56792 0.45909 -0.06600
C 	C 	0.81994 0.58904 0.48045 0.02600
C 	C 	0.78128 0.56021 0.50050 -0.06600
C 	C 	0.76007 0.51026 0.49795 0.01100
C 	C 	0.83926 0.64068 0.48024 -0.00100
C 	C 	0.85900 0.67448 0.51563 -0.03700
C 	C 	0.87695 0.72324 0.51538 -0.04100
C 	C 	0.87576 0.73877 0.47971 0.00500
C 	C 	0.85567 0.70486 0.44435 -0.04100
C 	C 	0.83730 0.65602 0.44462 -0.03700
C 	C 	0.89798 0.79105 0.47925 0.01200
C 	C 	0.94823 0.82743 0.49591 -0.04700
C 	C 	0.97028 0.87651 0.49323 -0.02500
C 	C 	0.94247 0.88975 0.47345 -0.02000
C 	C 	0.89177 0.85350 0.45769 -0.02100
C 	C 	0.86962 0.80439 0.46067 -0.04800
H 	H 	0.83071 0.50172 0.43850 0.03700
H 	H 	0.86896 0.59006 0.44403 0.04500
H 	H 	0.76685 0.57621 0.51730 0.04500
H 	H 	0.72977 0.48829 0.51314 0.03300
H 	H 	0.86066 0.66304 0.54329 0.03700
H 	H 	0.89218 0.74905 0.54285 0.03900
H 	H 	0.85485 0.71650 0.41665 0.03900
H 	H 	0.82162 0.63011 0.41717 0.03800
H 	H 	0.97044 0.81756 0.51035 0.04000
H 	H 	0.00917 0.90417 0.50615 0.04400
H 	H 	0.86983 0.86311 0.44236 0.04000
H 	H 	0.83065 0.77663 0.44803 0.04100
C 	C 	0.93788 0.02996 0.46010 -0.02100
C 	C 	0.88909 0.00326 0.43875 -0.02300
C 	C 	0.86462 0.02530 0.43612 -0.04800
C 	C 	0.88860 0.07404 0.45503 0.01200
C 	C 	0.93700 0.10045 0.47685 -0.04900
C 	C 	0.96156 0.07857 0.47934 -0.02100
C 	C 	0.86322 0.09760 0.45190 0.00500
C 	C 	0.85809 0.11306 0.41710 -0.04100
C 	C 	0.83722 0.13860 0.41508 -0.03700
C 	C 	0.82118 0.14865 0.44780 -0.00300
C 	C 	0.82555 0.13243 0.48236 -0.03700
C 	C 	0.84655 0.10707 0.48442 -0.04200
C 	C 	0.80082 0.17709 0.44626 0.02700
C 	C 	0.75095 0.15489 0.44911 -0.06900
C 	C 	0.73295 0.18303 0.45194 0.01200
C 	C 	0.76479 0.23379 0.45218 -0.09700
C 	C 	0.81415 0.25552 0.44750 0.01400
C 	C 	0.83207 0.22727 0.44459 -0.06800
H 	H 	0.87050 0.96582 0.42362 0.04000
H 	H 	0.82716 0.00461 0.41930 0.04100
H 	H 	0.95570 0.13805 0.49165 0.04100
H 	H 	0.99903 0.09941 0.49618 0.03800
H 	H 	0.87097 0.10598 0.39188 0.04000
H 	H 	0.83383 0.15083 0.38824 0.03900
H 	H 	0.81328 0.14006 0.50777 0.03500
H 	H 	0.85039 0.09528 0.51139 0.03900
H 	H 	0.72640 0.11604 0.44994 0.04400
H 	H 	0.69453 0.16553 0.45471 0.02700
H 	H 	0.83912 0.29453 0.44743 0.03300
H 	H 	0.87059 0.24466 0.44219 0.04600
C 	C 	0.09238 0.04609 0.45667 -0.02100
C 	C 	0.11251 0.02441 0.43848 -0.02200
C 	C 	0.16340 0.05243 0.43783 -0.04800
C 	C 	0.19465 0.10240 0.45527 0.01300
C 	C 	0.17450 0.12436 0.47282 -0.04900
C 	C 	0.12360 0.09635 0.47352 -0.02000
C 	C 	0.24867 0.13135 0.45615 0.00500
C 	C 	0.28188 0.15074 0.49207 -0.04100
C 	C 	0.33296 0.17676 0.49286 -0.03700
C 	C 	0.35125 0.18352 0.45774 -0.00200
C 	C 	0.31808 0.16446 0.42183 -0.03700
C 	C 	0.26699 0.13850 0.42104 -0.04100
C 	C 	0.40506 0.21021 0.45856 0.02700
C 	C 	0.42991 0.19149 0.47342 -0.06800
C 	C 	0.48098 0.21690 0.47439 0.01500
C 	C 	0.50769 0.26131 0.46049 -0.08900
C 	C 	0.48268 0.27993 0.44553 0.01500
C 	C 	0.43162 0.25448 0.44459 -0.06800
H 	H 	0.08877 0.98583 0.42495 0.04200
H 	H 	0.17865 0.03520 0.42419 0.04100
H 	H 	0.19834 0.16299 0.48619 0.04200
H 	H 	0.10863 0.11350 0.48780 0.04000
H 	H 	0.26805 0.14526 0.51931 0.04000
H 	H 	0.35833 0.19156 0.52073 0.03900
H 	H 	0.33187 0.16947 0.39457 0.03700
H 	H 	0.24163 0.12377 0.39318 0.03900
H 	H 	0.40962 0.15716 0.48406 0.04500
H 	H 	0.49967 0.20187 0.48567 0.02800
H 	H 	0.50284 0.31435 0.43504 0.03300
H 	H 	0.41275 0.26932 0.43324 0.04600
C 	C 	0.71462 0.47528 0.97192 -0.09100
C 	C 	0.69927 0.50167 0.99039 0.01800
C 	C 	0.72317 0.55125 0.98843 -0.06500
C 	C 	0.76245 0.57488 0.96784 0.02700
C 	C 	0.77723 0.54839 0.94877 -0.06800
C 	C 	0.75355 0.49888 0.95087 0.01700
C 	C 	0.78914 0.62774 0.96730 -0.00100
C 	C 	0.76369 0.64521 0.95093 -0.03700
C 	C 	0.78897 0.69541 0.95081 -0.04100
C 	C 	0.83989 0.72846 0.96693 0.00600
C 	C 	0.86533 0.71100 0.98327 -0.04100
C 	C 	0.84006 0.66087 0.98351 -0.03700
C 	C 	0.86667 0.78131 0.96664 0.01200
C 	C 	0.85658 0.80921 0.99019 -0.04600
C 	C 	0.88401 0.85992 0.99165 -0.01700
C 	C 	0.92177 0.88314 0.96949 -0.02300
C 	C 	0.93100 0.85488 0.94524 -0.02000
C 	C 	0.90362 0.80424 0.94390 -0.04900
H 	H 	0.66888 0.48384 0.00628 0.02800
H 	H 	0.71152 0.57143 0.00326 0.04300
H 	H 	0.80735 0.56628 0.93262 0.04500
H 	H 	0.76602 0.47915 0.93667 0.03000
H 	H 	0.72442 0.61990 0.93824 0.03900
H 	H 	0.76909 0.70859 0.93805 0.04000
H 	H 	0.90462 0.73632 0.99592 0.04000
H 	H 	0.85994 0.64777 0.99646 0.03700
H 	H 	0.82809 0.79176 0.00786 0.03900
H 	H 	0.87661 0.88124 0.01060 0.03800
H 	H 	0.95945 0.87215 0.92752 0.03800
H 	H 	0.91136 0.78285 0.92541 0.04100
C 	C 	0.93896 0.03757 0.98791 -0.01500
C 	C 	0.89241 0.01900 0.96574 -0.02600
C 	C 	0.87064 0.04318 0.97198 -0.04200
C 	C 	0.89494 0.08592 0.00074 0.00700
C 	C 	0.94150 0.10451 0.02297 -0.04600
C 	C 	0.96354 0.08058 0.01643 -0.02700
C 	C 	0.87219 0.11190 0.00671 0.00700
C 	C 	0.89775 0.16110 0.00220 -0.04500
C 	C 	0.87403 0.18391 0.00321 -0.04000
C 	C 	0.82431 0.15754 0.00820 -0.00000
C 	C 	0.79956 0.10911 0.01460 -0.03800
C 	C 	0.82349 0.08649 0.01408 -0.04200
C 	C 	0.79677 0.17880 0.00267 0.02300
C 	C 	0.79324 0.19401 0.96734 -0.06500
C 	C 	0.76644 0.21319 0.96156 0.01300
C 	C 	0.74242 0.21698 0.99090 -0.09400
C 	C 	0.74570 0.20159 0.02622 0.01400
C 	C 	0.77294 0.18272 0.03215 -0.06600
H 	H 	0.87327 0.98604 0.94347 0.04200
H 	H 	0.83503 0.02890 0.95428 0.04000
H 	H 	0.96053 0.13739 0.04532 0.03900
H 	H 	0.99934 0.09505 0.03388 0.03800
H 	H 	0.93541 0.18116 0.99669 0.04100
H 	H 	0.89373 0.22155 0.99882 0.03900
H 	H 	0.76127 0.08848 0.01865 0.03700
H 	H 	0.80371 0.04878 0.01828 0.03900
H 	H 	0.81092 0.19054 0.94421 0.04300
H 	H 	0.76378 0.22451 0.93404 0.00800
H 	H 	0.72762 0.20468 0.04919 0.03900
H 	H 	0.77555 0.17122 0.05958 0.04600
C 	C 	0.08224 0.03846 0.96753 -0.02100
C 	C 	0.11865 0.08571 0.98971 -0.01700
C 	C 	0.16883 0.10930 0.98756 -0.04600
C 	C 	0.18305 0.08583 0.96330 0.01300
C 	C 	0.14657 0.03923 0.94036 -0.04800
C 	C 	0.09644 0.01574 0.94234 -0.02100
C 	C 	0.23623 0.10902 0.96322 0.00500
C 	C 	0.25452 0.11859 0.92816 -0.04100
C 	C 	0.30432 0.13820 0.92774 -0.03700
C 	C 	0.33631 0.14864 0.96242 -0.00200
C 	C 	0.31813 0.13950 0.99754 -0.03400
C 	C 	0.26829 0.11965 0.99791 -0.03800
C 	C 	0.38913 0.17018 0.96220 0.02600
C 	C 	0.42011 0.21606 0.95133 -0.06600
C 	C 	0.47103 0.23855 0.95444 0.01000
C 	C 	0.49168 0.21561 0.96890 -0.08700
C 	C 	0.46012 0.16855 0.97799 0.01200
C 	C 	0.40914 0.14602 0.97467 -0.06600
H 	H 	0.10826 0.10367 0.00927 0.03700
H 	H 	0.19670 0.14547 0.00514 0.03900
H 	H 	0.15716 0.02085 0.92150 0.04100
H 	H 	0.06868 0.97965 0.92459 0.04100
H 	H 	0.23010 0.11061 0.90124 0.03900
H 	H 	0.31800 0.14514 0.90049 0.03800
H 	H 	0.34264 0.14785 0.02453 0.03600
H 	H 	0.25447 0.11209 0.02507 0.03700
H 	H 	0.40494 0.23483 0.94137 0.04600
H 	H 	0.49455 0.27433 0.94650 0.03400
H 	H 	0.47515 0.14987 0.98845 0.03700
H 	H 	0.38533 0.11018 0.98247 0.04600
