data_crystal

_cell_length_a 18.01454
_cell_length_b 19.55317
_cell_length_c 26.60016
_cell_angle_alpha 95.42337
_cell_angle_beta  95.42527
_cell_angle_gamma 126.43748

_symmetry_space_group_name_	'P 1'
_symmetry_space_group_name_H-M	'P 1'

loop_
_symmetry_equiv_pos_as_xyz
  x,y,z

loop_
_atom_site_label
_atom_site_type_symbol
_atom_site_fract_x
_atom_site_fract_y
_atom_site_fract_z
_atom_site_charge
C 	C 	0.94614 0.03368 0.99124 0.11300
N 	N 	0.89465 0.94602 0.98126 -0.02900
C 	C 	0.93779 0.90860 0.97498 0.17400
N 	N 	0.03221 0.95876 0.97860 -0.03700
C 	C 	0.08375 0.04606 0.98795 0.13800
N 	N 	0.04093 0.08374 0.99464 -0.06500
C 	C 	0.91390 0.99783 0.47602 0.26000
N 	N 	0.00604 0.04791 0.47210 -0.09900
C 	C 	0.05130 0.01220 0.46799 0.14300
N 	N 	0.00386 0.92611 0.46640 -0.03600
C 	C 	0.91165 0.87571 0.46964 0.17500
N 	N 	0.86712 0.91187 0.47570 -0.08100
Cu	Cu	0.66365 0.26441 0.00954 0.93500
Cu	Cu	0.68307 0.20645 0.89400 0.93400
Cu	Cu	0.68191 0.37249 0.92817 0.92600
Cu	Cu	0.65501 0.42204 0.03345 0.94200
C 	C 	0.68435 0.33893 0.11370 0.30500
O 	O 	0.52734 0.20107 0.01681 -0.30900
C 	C 	0.67997 0.31121 0.82714 0.28200
O 	O 	0.72315 0.39254 0.00074 -0.62800
O 	O 	0.62873 0.25017 0.93377 -0.61300
O 	O 	0.74476 0.22492 0.01291 -0.30500
O 	O 	0.66890 0.12954 0.93680 -0.34400
O 	O 	0.68944 0.40595 0.10231 -0.29100
O 	O 	0.74135 0.49317 0.92624 -0.31600
C 	C 	0.74002 0.54348 0.96223 0.30300
C 	C 	0.48145 0.23197 0.00504 0.30000
O 	O 	0.52420 0.30615 0.98959 -0.34200
O 	O 	0.67699 0.51006 0.99208 -0.30300
O 	O 	0.70683 0.29931 0.08281 -0.31900
C 	C 	0.72836 0.16035 0.98027 0.30000
O 	O 	0.64894 0.34613 0.85395 -0.33600
O 	O 	0.73230 0.29354 0.85111 -0.33800
H 	H 	0.79215 0.43481 0.01195 0.24100
H 	H 	0.55972 0.21173 0.92210 0.17600
Cu	Cu	0.62026 0.21421 0.50350 0.93900
Cu	Cu	0.71172 0.21533 0.40134 0.89700
Cu	Cu	0.68525 0.34848 0.43362 0.91300
Cu	Cu	0.61011 0.36899 0.52519 0.92500
C 	C 	0.62645 0.28091 0.60664 0.29100
O 	O 	0.48097 0.15751 0.49415 -0.31600
C 	C 	0.67585 0.28892 0.32428 0.30200
O 	O 	0.69369 0.34777 0.50579 -0.63400
O 	O 	0.62003 0.22128 0.42928 -0.63200
O 	O 	0.67770 0.15299 0.51004 -0.30600
O 	O 	0.78781 0.23865 0.46421 -0.38300
O 	O 	0.58445 0.31174 0.58641 -0.33600
O 	O 	0.75368 0.47282 0.44372 -0.33400
C 	C 	0.73599 0.51701 0.47417 0.30900
C 	C 	0.44473 0.19042 0.47078 0.30500
O 	O 	0.50048 0.26955 0.46240 -0.33200
O 	O 	0.66316 0.47761 0.49753 -0.30100
O 	O 	0.63951 0.23151 0.57739 -0.30900
C 	C 	0.75518 0.17960 0.49302 0.31700
O 	O 	0.69994 0.35305 0.36102 -0.34600
O 	O 	0.66392 0.21912 0.33541 -0.36500
H 	H 	0.75838 0.38747 0.52615 0.22200
H 	H 	0.55722 0.18474 0.40676 0.23400
C 	C 	0.72657 0.29823 0.74294 0.01500
C 	C 	0.66536 0.30136 0.77047 -0.03800
C 	C 	0.58937 0.29419 0.74366 0.01300
C 	C 	0.57557 0.28556 0.69019 0.01000
C 	C 	0.63776 0.28421 0.66274 -0.02400
C 	C 	0.71275 0.28966 0.68932 0.00900
H 	H 	0.78549 0.30359 0.76302 0.10200
H 	H 	0.54057 0.29481 0.76420 0.08900
H 	H 	0.51636 0.27978 0.67009 0.09800
H 	H 	0.76133 0.28888 0.66864 0.11300
C 	C 	0.71358 0.39486 0.20752 0.01700
C 	C 	0.68139 0.32574 0.16751 -0.00900
C 	C 	0.64414 0.24364 0.17892 0.02300
C 	C 	0.63989 0.23095 0.22981 0.02100
C 	C 	0.67365 0.30052 0.26998 -0.03200
C 	C 	0.70959 0.38233 0.25832 0.02100
H 	H 	0.74282 0.45868 0.19939 0.11000
H 	H 	0.61773 0.18948 0.14838 0.09800
H 	H 	0.61067 0.16713 0.23794 0.09100
H 	H 	0.73589 0.43672 0.28865 0.09300
C 	C 	0.78990 0.63651 0.42604 0.07600
C 	C 	0.78617 0.60991 0.47351 0.00800
C 	C 	0.82509 0.67141 0.51980 -0.06300
C 	C 	0.85821 0.75650 0.51745 0.03800
C 	C 	0.86205 0.78311 0.47007 0.08100
C 	C 	0.82769 0.72285 0.42376 -0.09800
C 	C 	0.83356 0.75104 0.37205 0.78700
H 	H 	0.76185 0.58935 0.39089 0.09800
H 	H 	0.88389 0.80310 0.55260 0.13200
C 	C 	0.83013 0.64655 0.57174 0.77600
F 	F 	0.78634 0.68126 0.33152 -0.39200
F 	F 	0.92661 0.80631 0.36709 -0.39200
F 	F 	0.79393 0.79342 0.36837 -0.35600
F 	F 	0.85666 0.59301 0.56971 -0.43100
F 	F 	0.74322 0.60425 0.58596 -0.41100
F 	F 	0.89538 0.71892 0.60931 -0.38300
C 	C 	0.89586 0.09860 0.52679 0.04400
C 	C 	0.86584 0.03749 0.48217 0.01900
C 	C 	0.79447 0.01895 0.44264 -0.14900
C 	C 	0.75430 0.06196 0.44898 0.07800
C 	C 	0.78736 0.12578 0.49245 -0.01600
C 	C 	0.85668 0.14271 0.53255 -0.06300
C 	C 	0.89092 0.20967 0.58062 0.77500
H 	H 	0.95082 0.11253 0.55662 0.12400
H 	H 	0.69890 0.04775 0.41937 0.04900
C 	C 	0.75955 0.95217 0.39426 0.83300
F 	F 	0.95178 0.21099 0.61736 -0.39200
F 	F 	0.81529 0.19126 0.60206 -0.41900
F 	F 	0.93751 0.29095 0.56798 -0.41000
F 	F 	0.70915 0.87041 0.40633 -0.37200
F 	F 	0.83445 0.96799 0.37308 -0.37200
F 	F 	0.70152 0.95389 0.35724 -0.38200
C 	C 	0.18318 0.06150 0.42208 0.02800
C 	C 	0.15266 0.06703 0.46785 0.08400
C 	C 	0.21886 0.11657 0.51420 -0.11200
C 	C 	0.31461 0.15819 0.51382 0.07600
C 	C 	0.34463 0.14994 0.46849 -0.00400
C 	C 	0.27901 0.10254 0.42189 -0.06000
C 	C 	0.31087 0.09387 0.37242 0.77400
H 	H 	0.13164 0.02317 0.38694 0.13400
H 	H 	0.36620 0.19636 0.54896 0.08200
C 	C 	0.18751 0.12514 0.56397 0.79000
F 	F 	0.23667 0.04573 0.33101 -0.38800
F 	F 	0.35234 0.05331 0.37791 -0.42900
F 	F 	0.37541 0.17503 0.36152 -0.41700
F 	F 	0.12241 0.04409 0.57486 -0.41400
F 	F 	0.14732 0.16690 0.55915 -0.40000
F 	F 	0.26196 0.17237 0.60528 -0.40600
C 	C 	0.77701 0.66726 0.92232 0.07800
C 	C 	0.79744 0.63697 0.96307 0.01400
C 	C 	0.86562 0.69628 0.00699 -0.06600
C 	C 	0.90481 0.78410 0.01159 0.04300
C 	C 	0.88471 0.81471 0.97100 0.08500
C 	C 	0.82219 0.75636 0.92519 -0.09200
C 	C 	0.80151 0.78854 0.88013 0.78700
H 	H 	0.72441 0.62111 0.88895 0.10600
H 	H 	0.95277 0.82943 0.04644 0.12900
C 	C 	0.89529 0.66581 0.04944 0.77700
F 	F 	0.74740 0.72322 0.83727 -0.38300
F 	F 	0.88449 0.85395 0.86669 -0.36600
F 	F 	0.75323 0.81991 0.89363 -0.37800
F 	F 	0.91207 0.60970 0.02855 -0.43700
F 	F 	0.82500 0.62379 0.07784 -0.43000
F 	F 	0.97692 0.73441 0.08229 -0.38800
C 	C 	0.91096 0.12769 0.95817 0.03100
C 	C 	0.89854 0.07436 0.99342 0.08800
C 	C 	0.83806 0.05784 0.02885 -0.10600
C 	C 	0.78207 0.08593 0.02357 0.07600
C 	C 	0.79222 0.13674 0.98705 0.00200
C 	C 	0.86173 0.16268 0.95630 -0.06800
C 	C 	0.88007 0.22360 0.91937 0.77100
H 	H 	0.95778 0.14053 0.93145 0.12900
H 	H 	0.72977 0.06746 0.04748 0.09100
C 	C 	0.83037 0.00799 0.07106 0.74900
F 	F 	0.96589 0.25923 0.90459 -0.39500
F 	F 	0.88174 0.29121 0.94220 -0.46200
F 	F 	0.81036 0.17842 0.87587 -0.46800
F 	F 	0.91798 0.03332 0.09282 -0.41500
F 	F 	0.77263 0.92034 0.05080 -0.35000
F 	F 	0.79278 0.02265 0.10995 -0.40500
C 	C 	0.24299 0.13026 0.04079 0.02800
C 	C 	0.18614 0.09945 0.99201 0.07900
C 	C 	0.22616 0.10972 0.94743 -0.10300
C 	C 	0.32188 0.14630 0.95266 0.07300
C 	C 	0.37907 0.17794 0.00140 -0.00200
C 	C 	0.33957 0.16971 0.04607 -0.06500
C 	C 	0.40037 0.20307 0.09923 0.77500
H 	H 	0.21124 0.12164 0.07456 0.12300
H 	H 	0.35287 0.15237 0.91877 0.08000
C 	C 	0.16624 0.07903 0.89424 0.74900
F 	F 	0.34868 0.18750 0.13783 -0.39600
F 	F 	0.46974 0.29142 0.10590 -0.43800
F 	F 	0.44172 0.16240 0.10447 -0.43200
F 	F 	0.11112 0.10669 0.89279 -0.38600
F 	F 	0.10885 0.98962 0.88235 -0.32600
F 	F 	0.22095 0.11112 0.85694 -0.39700
