data_crystal

_cell_length_a 18.61738
_cell_length_b 16.15101
_cell_length_c 40.98664
_cell_angle_alpha 90.83209
_cell_angle_beta  91.23825
_cell_angle_gamma 111.11026

_symmetry_space_group_name_	'P 1'
_symmetry_space_group_name_H-M	'P 1'

loop_
_symmetry_equiv_pos_as_xyz
  x,y,z

loop_
_atom_site_label
_atom_site_type_symbol
_atom_site_fract_x
_atom_site_fract_y
_atom_site_fract_z
_atom_site_charge
Ni	Ni	0.71626 0.32330 0.88576 1.10300
O 	O 	0.62655 0.24602 0.85634 -0.70400
Ni	Ni	0.53809 0.25697 0.87954 1.10600
O 	O 	0.79230 0.29985 0.85507 -0.35100
O 	O 	0.73221 0.14873 0.85883 -0.38600
O 	O 	0.71075 0.41999 0.85557 -0.39400
Ni	Ni	0.61317 0.12194 0.85300 1.07800
O 	O 	0.73526 0.43773 0.95481 -0.39900
O 	O 	0.60451 0.10401 0.90221 -0.39800
O 	O 	0.45781 0.19140 0.84506 -0.37400
O 	O 	0.62632 0.31763 0.91259 -0.70000
O 	O 	0.80724 0.41119 0.91319 -0.36600
O 	O 	0.45987 0.30017 0.90200 -0.35300
O 	O 	0.54694 0.44078 0.90260 -0.39400
Ni	Ni	0.64405 0.43931 0.92760 1.08000
H 	H 	0.62825 0.26987 0.83414 0.17600
H 	H 	0.62431 0.27992 0.93162 0.17200
C 	C 	0.54213 0.09988 0.91747 0.29000
O 	O 	0.71763 0.52255 0.89546 -0.37600
C 	C 	0.78765 0.21868 0.84717 0.28800
C 	C 	0.44633 0.10849 0.83619 0.30200
C 	C 	0.72467 0.50207 0.86486 0.32500
C 	C 	0.47944 0.38425 0.91059 0.28000
C 	C 	0.80235 0.44651 0.94223 0.29600
O 	O 	0.49952 0.14449 0.90718 -0.36000
O 	O 	0.49421 0.06816 0.84616 -0.37300
Ni	Ni	0.60342 0.32614 0.56542 1.10400
O 	O 	0.69258 0.34650 0.53442 -0.69700
Ni	Ni	0.76562 0.30639 0.56070 1.10400
O 	O 	0.55593 0.40532 0.54096 -0.34600
O 	O 	0.67263 0.51551 0.54169 -0.39800
O 	O 	0.53451 0.22103 0.53601 -0.35100
Ni	Ni	0.74589 0.46550 0.51836 1.08600
O 	O 	0.50375 0.14839 0.59496 -0.38900
O 	O 	0.83335 0.53031 0.55185 -0.37900
O 	O 	0.86232 0.34696 0.53208 -0.35300
O 	O 	0.67122 0.27486 0.58985 -0.69900
O 	O 	0.51727 0.29561 0.59787 -0.35900
O 	O 	0.81690 0.24243 0.59110 -0.33600
O 	O 	0.71124 0.11432 0.58787 -0.38700
Ni	Ni	0.61362 0.14741 0.59176 1.07200
H 	H 	0.67493 0.30599 0.51526 0.17500
H 	H 	0.68440 0.30205 0.61203 0.16900
C 	C 	0.85888 0.49462 0.57607 0.30500
O 	O 	0.60282 0.12981 0.54250 -0.39800
C 	C 	0.59983 0.48547 0.53267 0.28500
C 	C 	0.87186 0.40225 0.50742 0.29200
C 	C 	0.55569 0.15635 0.52515 0.28600
C 	C 	0.77874 0.16163 0.60125 0.28800
C 	C 	0.48462 0.21334 0.60776 0.29300
O 	O 	0.81387 0.41993 0.58850 -0.37100
O 	O 	0.81253 0.41417 0.49322 -0.38900
Ni	Ni	0.98668 0.94509 0.75434 1.09800
O 	O 	0.00510 0.85587 0.72349 -0.70300
Ni	Ni	0.06266 0.93515 0.68841 1.10300
O 	O 	0.92781 0.84669 0.78521 -0.34600
O 	O 	0.84216 0.77273 0.74464 -0.38300
O 	O 	0.08520 0.96139 0.78269 -0.33800
Ni	Ni	0.90667 0.77799 0.70337 1.07700
O 	O 	0.08187 0.13492 0.78131 -0.38600
O 	O 	0.87251 0.87821 0.68728 -0.38500
O 	O 	0.07868 0.83639 0.66102 -0.34000
O 	O 	0.03503 0.02528 0.71711 -0.67700
O 	O 	0.96056 0.03168 0.78313 -0.37000
O 	O 	0.14104 0.02752 0.66044 -0.33500
O 	O 	0.17602 0.15598 0.69075 -0.38000
Ni	Ni	0.12111 0.12691 0.73521 1.07700
H 	H 	0.03473 0.82244 0.73365 0.18000
H 	H 	0.99729 0.04752 0.70678 0.15900
C 	C 	0.91027 0.93294 0.66484 0.29500
O 	O 	0.17609 0.04326 0.74721 -0.40200
C 	C 	0.87094 0.77589 0.77436 0.29800
C 	C 	0.01797 0.76333 0.65460 0.29400
C 	C 	0.15724 0.99247 0.77271 0.28600
C 	C 	0.19518 0.09867 0.67312 0.29900
C 	C 	0.00807 0.11324 0.78779 0.33200
O 	O 	0.97725 0.93290 0.65561 -0.36700
O 	O 	0.94794 0.76339 0.65893 -0.39500
Ni	Ni	0.24737 0.68392 0.39302 1.10600
O 	O 	0.33415 0.74261 0.36172 -0.70400
Ni	Ni	0.42497 0.74232 0.38792 1.10500
O 	O 	0.16825 0.69341 0.35937 -0.34100
O 	O 	0.23163 0.84374 0.35511 -0.37700
O 	O 	0.24377 0.56948 0.37000 -0.38700
Ni	Ni	0.34926 0.86433 0.35164 1.07700
O 	O 	0.23657 0.60821 0.46758 -0.39500
O 	O 	0.36290 0.90678 0.39944 -0.39200
O 	O 	0.50276 0.78881 0.35260 -0.36900
O 	O 	0.34016 0.70106 0.42150 -0.70000
O 	O 	0.15952 0.61472 0.42321 -0.34400
O 	O 	0.50333 0.70797 0.41513 -0.35600
O 	O 	0.41294 0.57070 0.41961 -0.40600
Ni	Ni	0.32335 0.58940 0.44362 1.08100
H 	H 	0.32894 0.70725 0.34127 0.17200
H 	H 	0.34537 0.74818 0.43806 0.17200
C 	C 	0.42508 0.91461 0.41688 0.28700
O 	O 	0.24297 0.49108 0.41603 -0.38100
C 	C 	0.17418 0.76951 0.34627 0.28700
C 	C 	0.51006 0.86306 0.33751 0.29900
C 	C 	0.22962 0.49399 0.38460 0.32400
C 	C 	0.48315 0.62666 0.42570 0.28200
C 	C 	0.16799 0.59170 0.45367 0.29600
O 	O 	0.46729 0.86717 0.40953 -0.36100
O 	O 	0.46713 0.91073 0.34544 -0.37900
Ni	Ni	0.37661 0.68896 0.05675 1.10500
O 	O 	0.27776 0.67165 0.03002 -0.70000
Ni	Ni	0.21385 0.70231 0.06329 1.10400
O 	O 	0.41320 0.61048 0.02648 -0.35800
O 	O 	0.29540 0.50055 0.02794 -0.39900
O 	O 	0.43730 0.79663 0.02921 -0.35900
Ni	Ni	0.21765 0.55569 0.01073 1.08100
O 	O 	0.48274 0.86348 0.09043 -0.38300
O 	O 	0.13612 0.49018 0.04398 -0.38800
O 	O 	0.10647 0.66019 0.03995 -0.34400
O 	O 	0.31831 0.73637 0.08743 -0.70100
O 	O 	0.47335 0.71782 0.08544 -0.36300
O 	O 	0.17372 0.75810 0.10064 -0.33200
O 	O 	0.27179 0.89118 0.09440 -0.39100
Ni	Ni	0.37276 0.86389 0.09189 1.07800
H 	H 	0.28836 0.71574 0.01264 0.17400
H 	H 	0.31432 0.70789 0.10889 0.17900
C 	C 	0.13747 0.50920 0.07540 0.31700
O 	O 	0.37055 0.88536 0.04320 -0.40100
C 	C 	0.36621 0.53042 0.01752 0.27900
C 	C 	0.09038 0.62348 0.01014 0.27200
C 	C 	0.41601 0.86451 0.02339 0.28800
C 	C 	0.21094 0.84131 0.11016 0.28800
C 	C 	0.50443 0.79737 0.09963 0.29600
O 	O 	0.18482 0.58540 0.08766 -0.37300
O 	O 	0.14371 0.61008 0.99233 -0.38500
Ni	Ni	0.96833 0.04243 0.26523 1.09900
O 	O 	0.97316 0.13753 0.23257 -0.71900
Ni	Ni	0.92825 0.06428 0.19265 1.09800
O 	O 	0.01643 0.13852 0.30060 -0.33700
O 	O 	0.12229 0.20238 0.26983 -0.38000
O 	O 	0.86011 0.03447 0.27984 -0.35400
Ni	Ni	0.07972 0.20870 0.22282 1.07400
O 	O 	0.87069 0.83446 0.27696 -0.38800
O 	O 	0.11033 0.10297 0.20947 -0.37900
O 	O 	0.92959 0.16856 0.16480 -0.34500
O 	O 	0.93871 0.96766 0.22333 -0.69000
O 	O 	0.97042 0.95137 0.29820 -0.36000
O 	O 	0.85612 0.98073 0.15763 -0.34000
O 	O 	0.81675 0.84571 0.18087 -0.37700
Ni	Ni	0.84934 0.85875 0.22979 1.08400
H 	H 	0.94331 0.17463 0.23907 0.16600
H 	H 	0.98202 0.94907 0.21772 0.16700
C 	C 	0.08293 0.05741 0.18227 0.30400
O 	O 	0.78581 0.93351 0.24115 -0.41800
C 	C 	0.08291 0.20252 0.29615 0.28800
C 	C 	0.99486 0.23805 0.16325 0.25700
C 	C 	0.79323 0.97422 0.26973 0.30200
C 	C 	0.80030 0.90719 0.16539 0.29600
C 	C 	0.94018 0.86714 0.29046 0.30200
O 	O 	0.02194 0.06339 0.16757 -0.34900
O 	O 	0.06015 0.23385 0.17531 -0.37200
C 	C 	0.04749 0.35418 0.08515 -0.02400
C 	C 	0.08564 0.44159 0.09718 -0.07000
C 	C 	0.07291 0.46312 0.12962 0.10800
C 	C 	0.03008 0.39578 0.15026 -0.03600
C 	C 	0.00119 0.30691 0.13931 -0.04900
C 	C 	0.00446 0.28734 0.10592 0.11200
N 	N 	0.96865 0.19823 0.09349 -0.03100
H 	H 	0.05261 0.33738 0.05984 0.07700
H 	H 	0.02475 0.41183 0.17566 0.05700
N 	N 	0.10273 0.55284 0.14170 -0.02100
O 	O 	0.89430 0.15873 0.09448 -0.06800
O 	O 	0.00983 0.15841 0.07954 -0.06400
O 	O 	0.06402 0.60447 0.13664 -0.06400
O 	O 	0.16332 0.57936 0.16110 -0.09900
C 	C 	0.65853 0.86196 0.16638 -0.02600
C 	C 	0.72527 0.88171 0.14814 -0.07600
C 	C 	0.71897 0.86961 0.11392 0.11100
C 	C 	0.64606 0.83919 0.09836 -0.02300
C 	C 	0.57941 0.82038 0.11662 -0.06500
C 	C 	0.58575 0.83230 0.15080 0.09100
N 	N 	0.51835 0.81384 0.16981 -0.02200
H 	H 	0.66316 0.86996 0.19274 0.05800
H 	H 	0.64129 0.83075 0.07201 0.07800
N 	N 	0.78630 0.88699 0.09494 -0.02000
O 	O 	0.50435 0.75553 0.19266 -0.09400
O 	O 	0.47535 0.86144 0.16649 -0.12900
O 	O 	0.82989 0.84036 0.09906 -0.07200
O 	O 	0.80041 0.94427 0.07173 -0.07100
C 	C 	0.06537 0.91699 0.15206 -0.01900
C 	C 	0.11455 0.99172 0.16981 -0.07600
C 	C 	0.19411 0.00774 0.17188 0.11400
C 	C 	0.22386 0.95270 0.15443 -0.02900
C 	C 	0.17570 0.88462 0.13354 -0.06500
C 	C 	0.09553 0.86607 0.13272 0.11200
N 	N 	0.04538 0.80100 0.11029 -0.01100
H 	H 	0.00371 0.90213 0.15141 0.07800
H 	H 	0.28524 0.96595 0.15578 0.05500
N 	N 	0.24537 0.08195 0.19040 -0.02100
O 	O 	0.98819 0.73483 0.12122 -0.07900
O 	O 	0.04958 0.81535 0.07911 -0.07300
O 	O 	0.27386 0.06963 0.21836 -0.08200
O 	O 	0.26845 0.16074 0.17812 -0.09200
C 	C 	0.65347 0.95191 0.27091 -0.02100
C 	C 	0.72302 0.96404 0.28802 -0.07700
C 	C 	0.72262 0.95432 0.32215 0.10400
C 	C 	0.65278 0.92676 0.33835 -0.02200
C 	C 	0.58280 0.90765 0.32087 -0.06300
C 	C 	0.58331 0.92272 0.28710 0.09300
N 	N 	0.51269 0.90547 0.26891 -0.02300
H 	H 	0.65346 0.96149 0.24479 0.06700
H 	H 	0.65272 0.91672 0.36445 0.07900
N 	N 	0.79252 0.96710 0.34016 -0.02100
O 	O 	0.50271 0.96798 0.25187 -0.09400
O 	O 	0.46182 0.82526 0.26675 -0.11000
O 	O 	0.83235 0.04468 0.35299 -0.07500
O 	O 	0.81321 0.89975 0.34585 -0.08400
C 	C 	0.07563 0.31768 0.33507 -0.03100
C 	C 	0.11761 0.26842 0.32249 -0.06800
C 	C 	0.19423 0.28695 0.33362 0.10100
C 	C 	0.22962 0.35890 0.35526 -0.02100
C 	C 	0.18885 0.41128 0.36625 -0.07900
C 	C 	0.11082 0.38882 0.35693 0.10900
N 	N 	0.06734 0.43874 0.36944 -0.02300
H 	H 	0.01617 0.30227 0.32718 0.07200
H 	H 	0.28918 0.37483 0.36311 0.06700
N 	N 	0.23573 0.23215 0.32340 -0.01900
O 	O 	0.04354 0.48705 0.35000 -0.08100
O 	O 	0.04645 0.43045 0.39965 -0.07700
O 	O 	0.30374 0.26804 0.31129 -0.08900
O 	O 	0.20785 0.14715 0.32825 -0.07900
C 	C 	0.97873 0.78814 0.33448 -0.02800
C 	C 	0.97997 0.80848 0.30131 -0.08400
C 	C 	0.03849 0.79945 0.28187 0.09900
C 	C 	0.10146 0.78507 0.29674 -0.02300
C 	C 	0.10488 0.77636 0.33060 -0.06700
C 	C 	0.04147 0.77351 0.34936 0.12000
N 	N 	0.04253 0.76083 0.38382 -0.01700
H 	H 	0.93273 0.79243 0.34938 0.08300
H 	H 	0.14821 0.78220 0.28201 0.05900
N 	N 	0.03659 0.81083 0.24728 -0.02200
O 	O 	0.09142 0.82121 0.40278 -0.07800
O 	O 	0.99071 0.69238 0.39646 -0.08900
O 	O 	0.09851 0.85943 0.23272 -0.10800
O 	O 	0.97387 0.76946 0.23014 -0.15800
C 	C 	0.51806 0.10490 0.49538 -0.05700
C 	C 	0.56175 0.10698 0.46746 0.00600
C 	C 	0.52803 0.05077 0.44034 0.01200
C 	C 	0.45369 0.98553 0.44238 -0.06100
C 	C 	0.40930 0.98446 0.46996 0.00300
C 	C 	0.44075 0.04582 0.49605 0.01200
C 	C 	0.64240 0.16369 0.46716 0.08700
C 	C 	0.33264 0.91797 0.47211 0.09000
C 	C 	0.39461 0.04571 0.52414 0.10700
C 	C 	0.56920 0.06131 0.41012 0.10400
N 	N 	0.35771 0.04546 0.54653 -0.08400
N 	N 	0.60215 0.07001 0.38602 -0.09500
N 	N 	0.27152 0.86480 0.47383 -0.10200
N 	N 	0.70687 0.20844 0.46677 -0.10500
C 	C 	0.95030 0.45198 0.49559 -0.07200
C 	C 	0.97219 0.54337 0.48836 -0.00200
C 	C 	0.04767 0.59155 0.47895 0.02300
C 	C 	0.09859 0.54729 0.47255 -0.05100
C 	C 	0.07800 0.45693 0.48032 0.00400
C 	C 	0.00321 0.40862 0.49095 0.04100
C 	C 	0.91615 0.58674 0.48851 0.08400
C 	C 	0.13357 0.41352 0.47727 0.10500
C 	C 	0.97872 0.31319 0.49420 0.09500
C 	C 	0.07349 0.68729 0.47651 0.10800
N 	N 	0.95919 0.23701 0.49665 -0.07700
N 	N 	0.09377 0.76368 0.47468 -0.08000
N 	N 	0.17775 0.37861 0.47495 -0.10200
N 	N 	0.87178 0.62182 0.48840 -0.12500
C 	C 	0.57535 0.52716 0.50501 -0.07500
C 	C 	0.58345 0.50080 0.47270 0.00300
C 	C 	0.56197 0.54216 0.44623 0.00700
C 	C 	0.52894 0.60661 0.45193 -0.07100
C 	C 	0.52598 0.63753 0.48408 -0.00600
C 	C 	0.54896 0.59752 0.51065 0.00900
C 	C 	0.61240 0.42997 0.46665 0.04000
C 	C 	0.49708 0.70865 0.48980 0.06100
C 	C 	0.54416 0.62756 0.54378 0.09300
C 	C 	0.57266 0.51747 0.41302 0.09600
N 	N 	0.54033 0.65152 0.57021 -0.09900
N 	N 	0.58117 0.49778 0.38652 -0.09700
N 	N 	0.47402 0.76537 0.49431 -0.11500
N 	N 	0.63530 0.37348 0.46145 -0.12500
C 	C 	0.89968 0.02318 0.61759 -0.01800
C 	C 	0.87723 0.99369 0.64917 -0.08500
C 	C 	0.82825 0.02777 0.66618 0.09700
C 	C 	0.79966 0.08699 0.65085 -0.03000
C 	C 	0.82074 0.11440 0.61904 -0.06800
C 	C 	0.87231 0.08374 0.60264 0.10300
N 	N 	0.89630 0.11311 0.57054 -0.02000
H 	H 	0.93797 0.99839 0.60444 0.07900
H 	H 	0.76006 0.11068 0.66357 0.05300
N 	N 	0.80859 0.00393 0.69914 -0.01800
O 	O 	0.96856 0.15784 0.56547 -0.07900
O 	O 	0.84742 0.08788 0.54594 -0.08000
O 	O 	0.85393 0.04804 0.72305 -0.13000
O 	O 	0.74163 0.94496 0.70533 -0.09600
C 	C 	0.28297 0.19157 0.63202 -0.02200
C 	C 	0.27021 0.13068 0.65728 -0.06400
C 	C 	0.32879 0.09942 0.66688 0.09500
C 	C 	0.39948 0.12933 0.65122 -0.02200
C 	C 	0.41206 0.18910 0.62562 -0.07000
C 	C 	0.35301 0.21994 0.61579 0.10900
N 	N 	0.36266 0.27708 0.58858 -0.01900
H 	H 	0.23776 0.21517 0.62438 0.07900
H 	H 	0.44434 0.10498 0.65872 0.05500
N 	N 	0.31745 0.03880 0.69304 -0.02100
O 	O 	0.36681 0.24738 0.55928 -0.07100
O 	O 	0.36049 0.35613 0.59273 -0.08500
O 	O 	0.26389 0.96036 0.69046 -0.11600
O 	O 	0.36622 0.05821 0.71768 -0.09400
C 	C 	0.97872 0.63025 0.58015 -0.03600
C 	C 	0.93090 0.55087 0.59406 -0.07100
C 	C 	0.94609 0.53480 0.62682 0.10800
C 	C 	0.99471 0.60513 0.64668 -0.06400
C 	C 	0.02499 0.69114 0.63435 -0.05200
C 	C 	0.02674 0.70036 0.60026 0.11500
N 	N 	0.07066 0.78365 0.58633 -0.02100
H 	H 	0.97508 0.63962 0.55416 0.07200
H 	H 	0.00075 0.59519 0.67255 0.07700
N 	N 	0.91525 0.44747 0.63958 -0.02100
O 	O 	0.14180 0.82555 0.59598 -0.07000
O 	O 	0.04042 0.81618 0.56324 -0.07400
O 	O 	0.93783 0.38542 0.62834 -0.08500
O 	O 	0.87105 0.43245 0.66465 -0.09900
C 	C 	0.01087 0.59624 0.99636 -0.00700
C 	C 	0.99851 0.62104 0.96454 -0.03400
C 	C 	0.93091 0.57127 0.94655 0.02200
C 	C 	0.87406 0.49841 0.96092 -0.07200
C 	C 	0.88330 0.47974 0.99402 0.02500
C 	C 	0.94992 0.53190 0.01213 -0.03100
C 	C 	0.05368 0.70016 0.95089 0.12900
C 	C 	0.82559 0.40542 0.00921 0.08700
C 	C 	0.95351 0.52304 0.04718 0.11300
C 	C 	0.91987 0.59572 0.91346 0.09800
N 	N 	0.95563 0.51608 0.07520 -0.09600
N 	N 	0.91188 0.61590 0.88706 -0.09300
N 	N 	0.77963 0.34626 0.02142 -0.09500
N 	N 	0.09734 0.76343 0.93989 -0.09300
C 	C 	0.51332 0.03493 0.94359 -0.05500
C 	C 	0.44082 0.96585 0.93970 0.00500
C 	C 	0.40721 0.91374 0.96644 0.00700
C 	C 	0.44970 0.92294 0.99599 -0.05800
C 	C 	0.52482 0.98747 0.99917 0.00900
C 	C 	0.55600 0.04459 0.97317 0.00700
C 	C 	0.40297 0.94439 0.90777 0.10100
C 	C 	0.56967 0.99587 0.02924 0.09100
C 	C 	0.63174 0.11341 0.97689 0.09200
C 	C 	0.32827 0.85207 0.96368 0.08700
N 	N 	0.69220 0.16827 0.97979 -0.10600
N 	N 	0.26517 0.80317 0.96128 -0.10500
N 	N 	0.60581 0.00295 0.05315 -0.09100
N 	N 	0.37217 0.92598 0.88243 -0.09500
C 	C 	0.43781 0.40956 0.93685 -0.07200
C 	C 	0.43999 0.37806 0.96874 -0.00600
C 	C 	0.41391 0.41562 0.99512 0.01100
C 	C 	0.38608 0.48475 0.98968 -0.07300
C 	C 	0.37885 0.51178 0.95757 0.00400
C 	C 	0.40464 0.47408 0.93117 0.00700
C 	C 	0.47138 0.30916 0.97455 0.06800
C 	C 	0.34526 0.57873 0.95177 0.05100
C 	C 	0.39760 0.50208 0.89817 0.10100
C 	C 	0.41688 0.38416 0.02790 0.08800
N 	N 	0.39202 0.52442 0.87184 -0.09400
N 	N 	0.41923 0.35908 0.05407 -0.09800
N 	N 	0.31845 0.63211 0.94713 -0.12300
N 	N 	0.49638 0.25420 0.97920 -0.11200
C 	C 	0.89468 0.16164 0.85261 -0.03200
C 	C 	0.85684 0.20688 0.83425 -0.06300
C 	C 	0.88848 0.24565 0.80471 0.09400
C 	C 	0.95209 0.22959 0.79217 -0.01700
C 	C 	0.98188 0.17205 0.80811 -0.09500
C 	C 	0.95802 0.14583 0.84002 0.11700
N 	N 	0.99324 0.09558 0.85846 -0.02800
H 	H 	0.87405 0.13705 0.87642 0.07400
H 	H 	0.97223 0.25338 0.76821 0.04900
N 	N 	0.85418 0.29775 0.78662 -0.02000
O 	O 	0.04046 0.13367 0.88267 -0.06100
O 	O 	0.96760 0.00958 0.85499 -0.06500
O 	O 	0.89565 0.37840 0.77888 -0.08500
O 	O 	0.78330 0.26230 0.77570 -0.10800
C 	C 	0.28053 0.96749 0.78102 -0.02900
C 	C 	0.22014 0.98839 0.79451 -0.06900
C 	C 	0.23101 0.02849 0.82588 0.10900
C 	C 	0.30460 0.06063 0.84070 -0.02100
C 	C 	0.36775 0.05310 0.82457 -0.06400
C 	C 	0.35484 0.00092 0.79564 0.11300
N 	N 	0.41668 0.98272 0.78080 -0.02400
H 	H 	0.27120 0.93094 0.75797 0.07900
H 	H 	0.31331 0.09543 0.86412 0.08000
N 	N 	0.16878 0.04287 0.84168 -0.01800
O 	O 	0.41001 0.90110 0.77446 -0.08900
O 	O 	0.47660 0.04763 0.77104 -0.10600
O 	O 	0.11456 0.97641 0.85417 -0.05900
O 	O 	0.17107 0.12338 0.84694 -0.07200
C 	C 	0.81288 0.56132 0.81931 -0.01600
C 	C 	0.76100 0.57292 0.84170 -0.07400
C 	C 	0.74402 0.65131 0.84137 0.10400
C 	C 	0.78068 0.71784 0.81930 -0.01800
C 	C 	0.83221 0.70562 0.79698 -0.07000
C 	C 	0.84811 0.62692 0.79692 0.09600
N 	N 	0.90154 0.61426 0.77459 -0.02100
H 	H 	0.82651 0.50146 0.81952 0.08400
H 	H 	0.76808 0.77835 0.81917 0.07400
N 	N 	0.68758 0.66214 0.86243 -0.02200
O 	O 	0.96346 0.60327 0.78561 -0.09400
O 	O 	0.88533 0.60673 0.74340 -0.15100
O 	O 	0.70663 0.72907 0.88304 -0.09000
O 	O 	0.61587 0.60981 0.85900 -0.09300
