data_crystal

_cell_length_a 22.81623
_cell_length_b 21.96295
_cell_length_c 50.62421
_cell_angle_alpha 89.95204
_cell_angle_beta  89.95443
_cell_angle_gamma 119.39243

_symmetry_space_group_name_	'P 1'
_symmetry_space_group_name_H-M	'P 1'

loop_
_symmetry_equiv_pos_as_xyz
  x,y,z

loop_
_atom_site_label
_atom_site_type_symbol
_atom_site_fract_x
_atom_site_fract_y
_atom_site_fract_z
_atom_site_charge
C 	C 	0.55498 0.27704 0.88534 0.31100
C 	C 	0.77674 0.52868 0.92918 0.32700
C 	C 	0.74002 0.36015 0.86899 0.33300
C 	C 	0.59444 0.44507 0.94654 0.34700
C 	C 	0.78601 0.34540 0.95403 0.35300
C 	C 	0.60929 0.23877 0.96837 0.33500
Ni	Ni	0.66497 0.42092 0.89803 1.11500
Ni	Ni	0.69174 0.39711 0.95906 1.12300
Ni	Ni	0.67142 0.28235 0.91614 1.12100
O 	O 	0.57147 0.34393 0.88593 -0.37400
O 	O 	0.60190 0.25734 0.88618 -0.37800
O 	O 	0.77997 0.40158 0.95354 -0.40200
O 	O 	0.76311 0.49191 0.90754 -0.37600
O 	O 	0.73932 0.50155 0.95035 -0.37000
O 	O 	0.59996 0.22692 0.94263 -0.39600
O 	O 	0.69978 0.38656 0.86603 -0.36300
O 	O 	0.74971 0.34221 0.89240 -0.39400
O 	O 	0.64993 0.30251 0.97819 -0.39000
O 	O 	0.62668 0.46974 0.92354 -0.38200
O 	O 	0.60714 0.40387 0.96199 -0.39000
O 	O 	0.74094 0.28730 0.94247 -0.39600
O 	O 	0.65914 0.35922 0.92511 -0.71500
H 	H 	0.61047 0.33457 0.92872 0.16700
C 	C 	0.78104 0.41478 0.55252 0.32600
C 	C 	0.54919 0.14999 0.58060 0.35100
C 	C 	0.59581 0.35763 0.54352 0.35200
C 	C 	0.73186 0.21335 0.59241 0.30500
C 	C 	0.55819 0.31985 0.62763 0.33700
C 	C 	0.74317 0.39990 0.64110 0.31600
Ni	Ni	0.66204 0.27130 0.55598 1.11500
Ni	Ni	0.64195 0.25517 0.61965 1.12300
Ni	Ni	0.67471 0.39879 0.59206 1.12100
O 	O 	0.75809 0.34814 0.54643 -0.38000
O 	O 	0.73931 0.43778 0.56023 -0.38200
O 	O 	0.55769 0.26142 0.62198 -0.38600
O 	O 	0.56310 0.20298 0.56520 -0.38600
O 	O 	0.58513 0.15963 0.60209 -0.38300
O 	O 	0.75050 0.42966 0.61765 -0.38400
O 	O 	0.63088 0.33038 0.53351 -0.37900
O 	O 	0.59234 0.36293 0.56908 -0.39400
O 	O 	0.69358 0.33483 0.64617 -0.38000
O 	O 	0.69418 0.20263 0.57086 -0.36300
O 	O 	0.71928 0.23608 0.61494 -0.38000
O 	O 	0.61203 0.38080 0.62313 -0.38900
O 	O 	0.67641 0.31367 0.58935 -0.71500
H 	H 	0.72483 0.33077 0.59174 0.16200
C 	C 	0.94004 0.84496 0.73715 0.31700
C 	C 	0.11653 0.09858 0.79668 0.33300
C 	C 	0.93585 0.89967 0.80878 0.33600
C 	C 	0.13552 0.08165 0.72825 0.31800
C 	C 	0.91008 0.07639 0.78342 0.33100
C 	C 	0.91662 0.02888 0.71194 0.30400
Ni	Ni	0.04590 0.96422 0.76853 1.11500
Ni	Ni	0.02620 0.09636 0.75303 1.11900
Ni	Ni	0.89709 0.94575 0.76011 1.12500
O 	O 	0.00582 0.88736 0.73972 -0.37500
O 	O 	0.89554 0.85341 0.75157 -0.36400
O 	O 	0.97536 0.10162 0.78441 -0.38100
O 	O 	0.07409 0.03236 0.79990 -0.38400
O 	O 	0.11004 0.13290 0.77654 -0.37300
O 	O 	0.88545 0.96472 0.72217 -0.36700
O 	O 	0.97633 0.88830 0.79372 -0.37300
O 	O 	0.90472 0.93196 0.79939 -0.37600
O 	O 	0.95324 0.08499 0.72694 -0.38000
O 	O 	0.13088 0.03435 0.74609 -0.35700
O 	O 	0.08572 0.09507 0.72388 -0.38700
O 	O 	0.87188 0.01961 0.76966 -0.38700
O 	O 	0.99188 0.99833 0.75471 -0.71300
H 	H 	0.99421 0.98809 0.73592 0.16600
C 	C 	0.27046 0.79381 0.41506 0.31100
C 	C 	0.41258 0.65996 0.46752 0.37500
C 	C 	0.45485 0.86110 0.42524 0.35100
C 	C 	0.22754 0.59791 0.45850 0.34300
C 	C 	0.45205 0.69374 0.38479 0.33700
C 	C 	0.26720 0.60080 0.36872 0.31800
Ni	Ni	0.34438 0.74263 0.45240 1.11500
Ni	Ni	0.33432 0.61255 0.41905 1.12100
Ni	Ni	0.35971 0.75062 0.38830 1.12500
O 	O 	0.31009 0.80813 0.43618 -0.36900
O 	O 	0.28054 0.76664 0.39320 -0.37800
O 	O 	0.39891 0.63188 0.38868 -0.38300
O 	O 	0.37748 0.68812 0.47662 -0.38400
O 	O 	0.41675 0.65326 0.44209 -0.40500
O 	O 	0.30841 0.66825 0.36283 -0.37000
O 	O 	0.44249 0.81091 0.44195 -0.38300
O 	O 	0.41586 0.84815 0.40443 -0.37900
O 	O 	0.25864 0.57660 0.39316 -0.39300
O 	O 	0.24926 0.66538 0.46276 -0.38200
O 	O 	0.26993 0.57535 0.45107 -0.38700
O 	O 	0.44653 0.75040 0.38385 -0.37800
O 	O 	0.32991 0.69615 0.41985 -0.71500
H 	H 	0.28109 0.67690 0.41773 0.16100
C 	C 	0.44920 0.57726 0.08870 0.32500
C 	C 	0.22836 0.63147 0.12197 0.33300
C 	C 	0.25905 0.46270 0.07788 0.32500
C 	C 	0.41302 0.73105 0.13063 0.30900
C 	C 	0.24768 0.61990 0.03618 0.35000
C 	C 	0.43765 0.75213 0.04191 0.33000
Ni	Ni	0.32924 0.58047 0.11518 1.11400
Ni	Ni	0.32868 0.70572 0.08136 1.12200
Ni	Ni	0.35805 0.59507 0.05186 1.12300
O 	O 	0.39591 0.54405 0.10454 -0.38000
O 	O 	0.44443 0.60177 0.06519 -0.38400
O 	O 	0.28460 0.68398 0.04533 -0.39500
O 	O 	0.26246 0.60595 0.13415 -0.36500
O 	O 	0.23642 0.64413 0.09664 -0.39400
O 	O 	0.40617 0.68774 0.03172 -0.38800
O 	O 	0.24915 0.49821 0.09639 -0.38100
O 	O 	0.31383 0.49280 0.06330 -0.37000
O 	O 	0.41763 0.76784 0.06428 -0.38800
O 	O 	0.40231 0.66677 0.13487 -0.37400
O 	O 	0.36772 0.74279 0.11832 -0.36200
O 	O 	0.26772 0.57334 0.03840 -0.39900
O 	O 	0.35375 0.63592 0.08447 -0.71700
H 	H 	0.40229 0.66605 0.08747 0.15400
C 	C 	0.05783 0.11100 0.20272 0.30200
C 	C 	0.87771 0.94769 0.29147 0.32800
C 	C 	0.08522 0.14621 0.27637 0.33400
C 	C 	0.84344 0.92970 0.22344 0.31600
C 	C 	0.06052 0.94156 0.28916 0.34200
C 	C 	0.03736 0.89599 0.21474 0.31000
Ni	Ni	0.95739 0.05422 0.24903 1.11100
Ni	Ni	0.94472 0.90111 0.25414 1.12400
Ni	Ni	0.08868 0.03445 0.24376 1.12000
O 	O 	0.02662 0.12627 0.22179 -0.35800
O 	O 	0.08991 0.07538 0.20780 -0.37700
O 	O 	0.01764 0.89253 0.27332 -0.39200
O 	O 	0.87915 0.99622 0.27577 -0.36100
O 	O 	0.92346 0.92876 0.28923 -0.37900
O 	O 	0.08737 0.94790 0.22815 -0.37500
O 	O 	0.02107 0.10429 0.28043 -0.37000
O 	O 	0.11658 0.13252 0.25744 -0.37900
O 	O 	0.97313 0.87271 0.22091 -0.38000
O 	O 	0.88861 0.99637 0.22020 -0.37200
O 	O 	0.85523 0.88586 0.23806 -0.37400
O 	O 	0.09419 0.00680 0.28111 -0.38400
O 	O 	0.99327 0.99502 0.24273 -0.71300
H 	H 	0.98540 0.98682 0.22361 0.16500
C 	C 	0.20721 0.28254 0.10002 -0.11600
C 	C 	0.13878 0.25948 0.10447 0.00600
C 	C 	0.10794 0.29232 0.09101 0.11800
C 	C 	0.14782 0.35591 0.07803 -0.03100
C 	C 	0.21813 0.38624 0.07833 -0.12500
C 	C 	0.24712 0.34606 0.08701 0.19300
C 	C 	0.10611 0.21683 0.12813 0.00600
O 	O 	0.03989 0.26668 0.09312 -0.27200
H 	H 	0.12465 0.38486 0.07008 0.05900
O 	O 	0.31499 0.37095 0.08439 -0.28700
H 	H 	0.23080 0.25523 0.10904 0.07000
C 	C 	0.09244 0.14717 0.12976 0.11900
C 	C 	0.07301 0.11156 0.15395 -0.03600
C 	C 	0.06848 0.14558 0.17674 -0.11400
C 	C 	0.07934 0.21442 0.17473 0.19000
C 	C 	0.09697 0.24911 0.15043 -0.11000
O 	O 	0.09717 0.11354 0.10772 -0.27100
H 	H 	0.06310 0.05804 0.15513 0.06600
O 	O 	0.07443 0.24854 0.19658 -0.28000
H 	H 	0.10714 0.30272 0.14923 0.07900
H 	H 	0.33526 0.39623 0.10107 0.15300
H 	H 	0.14361 0.12070 0.10794 0.14700
H 	H 	0.12088 0.27521 0.20358 0.15100
H 	H 	0.02007 0.23437 0.07796 0.15000
C 	C 	0.59132 0.85805 0.14549 -0.10900
C 	C 	0.59032 0.84977 0.17298 0.00500
C 	C 	0.52844 0.81832 0.18648 0.12300
C 	C 	0.46821 0.78928 0.17219 -0.03100
C 	C 	0.46939 0.78834 0.14448 -0.11100
C 	C 	0.53110 0.82674 0.13118 0.18800
C 	C 	0.65325 0.86765 0.18715 0.00500
O 	O 	0.52670 0.81399 0.21353 -0.27200
H 	H 	0.42070 0.76151 0.18261 0.06800
O 	O 	0.53290 0.83021 0.10412 -0.29000
H 	H 	0.63890 0.88487 0.13507 0.07200
C 	C 	0.68504 0.82706 0.18365 0.11600
C 	C 	0.74587 0.84571 0.19653 -0.03200
C 	C 	0.77559 0.90505 0.21270 -0.11700
C 	C 	0.74231 0.94391 0.21703 0.19300
C 	C 	0.68149 0.92515 0.20422 -0.10900
O 	O 	0.65583 0.76823 0.16820 -0.27400
H 	H 	0.77070 0.81503 0.19340 0.06000
O 	O 	0.76808 0.99878 0.23445 -0.28100
H 	H 	0.65647 0.95561 0.20743 0.08400
H 	H 	0.53782 0.78989 0.09819 0.14700
H 	H 	0.67509 0.78408 0.15030 0.14500
H 	H 	0.79518 0.04101 0.22353 0.14200
H 	H 	0.52540 0.76918 0.21767 0.15000
C 	C 	0.18520 0.73017 0.17242 -0.11700
C 	C 	0.12785 0.72698 0.16097 0.00600
C 	C 	0.09918 0.68565 0.13841 0.12200
C 	C 	0.12996 0.65070 0.12667 -0.03200
C 	C 	0.18924 0.65639 0.13739 -0.12800
C 	C 	0.21585 0.69495 0.16083 0.19600
C 	C 	0.09906 0.76854 0.17231 0.00600
O 	O 	0.04294 0.68198 0.12708 -0.27100
H 	H 	0.10883 0.62084 0.10877 0.06000
O 	O 	0.27435 0.70236 0.17139 -0.28300
H 	H 	0.20697 0.76129 0.19000 0.07500
C 	C 	0.04523 0.73793 0.19030 0.12100
C 	C 	0.02235 0.77918 0.20286 -0.03600
C 	C 	0.05390 0.85145 0.19804 -0.11200
C 	C 	0.10628 0.88162 0.17935 0.19200
C 	C 	0.12835 0.84003 0.16645 -0.10900
O 	O 	0.01492 0.66770 0.19564 -0.27600
H 	H 	0.98190 0.75544 0.21717 0.06300
O 	O 	0.13482 0.95128 0.17318 -0.28700
H 	H 	0.16919 0.86365 0.15230 0.07800
H 	H 	0.25999 0.66405 0.18450 0.15400
H 	H 	0.04014 0.66334 0.21080 0.14700
H 	H 	0.17446 0.97519 0.18496 0.15400
H 	H 	0.00438 0.64119 0.13551 0.15600
C 	C 	0.63680 0.78253 0.37880 -0.11000
C 	C 	0.64226 0.76638 0.35246 0.00800
C 	C 	0.58741 0.70908 0.34036 0.12100
C 	C 	0.52487 0.67566 0.35319 -0.03200
C 	C 	0.51709 0.69977 0.37788 -0.12100
C 	C 	0.57466 0.74823 0.39174 0.19500
C 	C 	0.70267 0.81359 0.33700 0.00700
O 	O 	0.59497 0.68540 0.31621 -0.27200
H 	H 	0.48151 0.63517 0.34302 0.06900
O 	O 	0.56869 0.76801 0.41685 -0.27900
H 	H 	0.67976 0.82434 0.38873 0.07800
C 	C 	0.70000 0.85962 0.31825 0.12000
C 	C 	0.75807 0.90590 0.30430 -0.03200
C 	C 	0.81952 0.90779 0.30929 -0.12000
C 	C 	0.82293 0.86537 0.32959 0.19200
C 	C 	0.76434 0.81732 0.34276 -0.11300
O 	O 	0.64151 0.86182 0.31448 -0.26700
H 	H 	0.75489 0.93931 0.28928 0.07600
O 	O 	0.88334 0.87044 0.33645 -0.28500
H 	H 	0.76712 0.78379 0.35785 0.07600
H 	H 	0.57499 0.73571 0.42870 0.15200
H 	H 	0.61981 0.83186 0.29889 0.14600
H 	H 	0.90138 0.90586 0.35072 0.15100
H 	H 	0.57978 0.70812 0.30306 0.14600
C 	C 	0.25649 0.47337 0.31737 -0.11200
C 	C 	0.18800 0.42343 0.31900 0.00600
C 	C 	0.14376 0.43962 0.33276 0.11900
C 	C 	0.16923 0.50220 0.34699 -0.03200
C 	C 	0.23857 0.54959 0.34715 -0.12100
C 	C 	0.28157 0.53691 0.33092 0.19200
C 	C 	0.16374 0.35247 0.30805 0.00700
O 	O 	0.07616 0.39271 0.33350 -0.27200
H 	H 	0.13554 0.51212 0.35906 0.05700
O 	O 	0.34914 0.58375 0.33014 -0.28800
H 	H 	0.29077 0.46183 0.30648 0.07200
C 	C 	0.16593 0.34260 0.28067 0.11500
C 	C 	0.14297 0.27527 0.27059 -0.03000
C 	C 	0.11670 0.21724 0.28757 -0.12500
C 	C 	0.11559 0.22718 0.31498 0.19600
C 	C 	0.13930 0.29463 0.32512 -0.10900
O 	O 	0.18737 0.39814 0.26364 -0.27300
H 	H 	0.14399 0.26800 0.24949 0.06100
O 	O 	0.09016 0.17100 0.33183 -0.28000
H 	H 	0.13837 0.30193 0.34626 0.08200
H 	H 	0.35504 0.61550 0.31520 0.15400
H 	H 	0.23590 0.41472 0.26078 0.14200
H 	H 	0.12922 0.16530 0.33684 0.16000
H 	H 	0.05682 0.40485 0.31817 0.15100
C 	C 	0.12015 0.80770 0.39684 -0.10900
C 	C 	0.15274 0.87315 0.38431 0.00500
C 	C 	0.22066 0.91963 0.39021 0.12300
C 	C 	0.25763 0.89640 0.40504 -0.03100
C 	C 	0.22792 0.82624 0.41289 -0.11600
C 	C 	0.15786 0.78352 0.41067 0.19400
C 	C 	0.12164 0.88564 0.36086 0.00600
O 	O 	0.25192 0.98629 0.38018 -0.27200
H 	H 	0.31113 0.93069 0.40785 0.06100
O 	O 	0.12678 0.71698 0.42081 -0.29700
H 	H 	0.06692 0.77299 0.39361 0.07100
C 	C 	0.11379 0.84753 0.33751 0.11300
C 	C 	0.09270 0.86539 0.31429 -0.02700
C 	C 	0.07973 0.92148 0.31402 -0.12700
C 	C 	0.08569 0.95842 0.33751 0.20700
C 	C 	0.10642 0.94025 0.36085 -0.11400
O 	O 	0.13073 0.79560 0.33698 -0.27200
H 	H 	0.08823 0.83676 0.29628 0.06100
O 	O 	0.07334 0.01359 0.33751 -0.29300
H 	H 	0.11234 0.96977 0.37875 0.08400
H 	H 	0.12681 0.68672 0.40628 0.15200
H 	H 	0.08838 0.75186 0.34089 0.14400
H 	H 	0.02479 0.99298 0.34163 0.16700
H 	H 	0.27069 0.98306 0.36288 0.15300
C 	C 	0.51918 0.98119 0.47886 0.01200
C 	C 	0.56813 0.01361 0.49851 -0.04300
C 	C 	0.55399 0.04062 0.52112 -0.04100
C 	C 	0.49025 0.03496 0.52447 0.01300
C 	C 	0.44131 0.00258 0.50482 -0.05700
C 	C 	0.45542 0.97552 0.48222 -0.02700
C 	C 	0.47792 0.07211 0.54630 0.01200
C 	C 	0.51067 0.08255 0.57064 -0.17200
C 	C 	0.53176 0.94435 0.45694 0.01600
C 	C 	0.49592 0.93008 0.43321 -0.17000
H 	H 	0.61712 0.01754 0.49634 0.04600
H 	H 	0.59308 0.06732 0.53571 0.05300
H 	H 	0.39236 0.99875 0.50699 0.05300
H 	H 	0.41630 0.94893 0.46763 0.04400
H 	H 	0.45232 0.10158 0.54182 0.04300
H 	H 	0.51528 0.03998 0.57947 0.09000
H 	H 	0.55957 0.91704 0.46121 0.04700
H 	H 	0.49086 0.97146 0.42354 0.09300
C 	C 	0.95292 0.47664 0.52466 0.01800
C 	C 	0.01263 0.47574 0.53039 -0.04500
C 	C 	0.06568 0.50248 0.51225 -0.02900
C 	C 	0.05933 0.52990 0.48801 -0.00100
C 	C 	0.99910 0.52954 0.48208 -0.02800
C 	C 	0.94611 0.50292 0.50024 -0.03900
C 	C 	0.11923 0.57193 0.47148 0.03300
C 	C 	0.16507 0.55134 0.46641 -0.18900
C 	C 	0.89438 0.43973 0.54236 0.01400
C 	C 	0.84736 0.46270 0.54601 -0.16000
H 	H 	0.01792 0.45427 0.54894 0.04600
H 	H 	0.11244 0.50397 0.51741 0.04500
H 	H 	0.99389 0.55127 0.46358 0.04600
H 	H 	0.89944 0.50166 0.49512 0.04900
H 	H 	0.12736 0.62219 0.46424 0.04600
H 	H 	0.15171 0.49691 0.46915 0.09400
H 	H 	0.88546 0.39094 0.55141 0.04200
H 	H 	0.86221 0.51744 0.54319 0.08900
C 	C 	0.48622 0.55417 0.49195 -0.00200
C 	C 	0.51497 0.57408 0.51715 -0.03200
C 	C 	0.52960 0.52926 0.53183 -0.03900
C 	C 	0.51681 0.46483 0.52126 0.00900
C 	C 	0.48760 0.44472 0.49616 -0.03800
C 	C 	0.47292 0.48947 0.48150 -0.03300
C 	C 	0.53062 0.41721 0.53730 0.01500
C 	C 	0.56680 0.38619 0.52685 -0.17200
C 	C 	0.47503 0.60282 0.47539 0.03700
C 	C 	0.43876 0.63219 0.48433 -0.20800
H 	H 	0.52690 0.62457 0.52518 0.04300
H 	H 	0.55158 0.54493 0.55131 0.04200
H 	H 	0.47574 0.39428 0.48810 0.04400
H 	H 	0.45107 0.47384 0.46200 0.04000
H 	H 	0.51914 0.41289 0.55829 0.04100
H 	H 	0.57579 0.38800 0.50571 0.08900
H 	H 	0.49007 0.60813 0.45473 0.03300
H 	H 	0.42743 0.63013 0.50529 0.10000
C 	C 	0.92013 0.08879 0.64181 -0.10800
C 	C 	0.85568 0.08169 0.63985 0.00200
C 	C 	0.80906 0.04934 0.66053 0.11700
C 	C 	0.82807 0.02743 0.68331 -0.03200
C 	C 	0.89405 0.03976 0.68613 -0.11500
C 	C 	0.93990 0.06932 0.66510 0.19200
C 	C 	0.84052 0.11767 0.61843 0.00300
O 	O 	0.74547 0.04089 0.65879 -0.27500
H 	H 	0.79242 0.00416 0.69938 0.06000
O 	O 	0.00378 0.07875 0.66720 -0.29300
H 	H 	0.95594 0.11260 0.62583 0.08300
C 	C 	0.87156 0.19112 0.61838 0.11800
C 	C 	0.84082 0.22422 0.60534 -0.03400
C 	C 	0.77768 0.18434 0.59350 -0.11700
C 	C 	0.75229 0.11207 0.58999 0.19500
C 	C 	0.78469 0.07917 0.60203 -0.10800
O 	O 	0.92969 0.23030 0.63237 -0.27500
H 	H 	0.86254 0.28044 0.60688 0.05600
O 	O 	0.69395 0.07300 0.57610 -0.28900
H 	H 	0.76258 0.02289 0.60079 0.08000
H 	H 	0.03142 0.12664 0.67433 0.15700
H 	H 	0.91491 0.23531 0.65028 0.14800
H 	H 	0.65725 0.05674 0.58936 0.15600
H 	H 	0.74886 0.08414 0.66637 0.14600
C 	C 	0.29818 0.13953 0.69075 -0.11300
C 	C 	0.32159 0.21149 0.68820 0.00400
C 	C 	0.28516 0.24095 0.69961 0.12400
C 	C 	0.22471 0.19822 0.71283 -0.02700
C 	C 	0.20050 0.12597 0.71504 -0.11200
C 	C 	0.23763 0.09664 0.70398 0.19500
C 	C 	0.38321 0.25533 0.67285 0.00900
O 	O 	0.30749 0.31118 0.69718 -0.27300
H 	H 	0.19672 0.22133 0.72147 0.05800
O 	O 	0.21485 0.02624 0.70599 -0.28400
H 	H 	0.32644 0.11671 0.68213 0.07500
C 	C 	0.44627 0.28863 0.68540 0.11700
C 	C 	0.50521 0.31991 0.67019 -0.02900
C 	C 	0.50146 0.31609 0.64254 -0.12800
C 	C 	0.43848 0.28953 0.63013 0.19700
C 	C 	0.37955 0.25882 0.64531 -0.11200
O 	O 	0.45041 0.28940 0.71244 -0.27300
H 	H 	0.55369 0.34193 0.67990 0.05600
O 	O 	0.43423 0.28794 0.60309 -0.28300
H 	H 	0.33102 0.23487 0.63558 0.07900
H 	H 	0.18662 0.00530 0.69010 0.15200
H 	H 	0.45249 0.24667 0.71719 0.14800
H 	H 	0.43611 0.33252 0.59806 0.15000
H 	H 	0.33623 0.33291 0.71289 0.15700
C 	C 	0.83838 0.68242 0.69628 -0.11000
C 	C 	0.86536 0.64021 0.70453 0.00500
C 	C 	0.91895 0.66669 0.72264 0.12200
C 	C 	0.94513 0.73485 0.73234 -0.03000
C 	C 	0.91725 0.77658 0.72450 -0.11400
C 	C 	0.86398 0.75028 0.70625 0.19200
C 	C 	0.83911 0.56936 0.69329 0.00800
O 	O 	0.94633 0.62635 0.73064 -0.27200
H 	H 	0.98591 0.75458 0.74652 0.06400
O 	O 	0.83600 0.79027 0.69851 -0.28700
H 	H 	0.79760 0.66262 0.68210 0.07200
C 	C 	0.77291 0.51658 0.69879 0.11600
C 	C 	0.74394 0.45465 0.68402 -0.03100
C 	C 	0.78017 0.44588 0.66334 -0.12000
C 	C 	0.84901 0.49454 0.66034 0.19400
C 	C 	0.87796 0.55653 0.67501 -0.10900
O 	O 	0.73632 0.52571 0.71836 -0.26800
H 	H 	0.69156 0.41627 0.68715 0.06100
O 	O 	0.88646 0.48442 0.64142 -0.28600
H 	H 	0.92966 0.59602 0.67127 0.08400
H 	H 	0.86217 0.81649 0.68277 0.15600
H 	H 	0.71093 0.54574 0.70943 0.14800
H 	H 	0.90607 0.45854 0.65050 0.15300
H 	H 	0.92018 0.60093 0.74650 0.15600
C 	C 	0.94549 0.42542 0.99285 0.00400
C 	C 	0.96956 0.45319 0.01800 -0.02900
C 	C 	0.03861 0.49284 0.02260 -0.04100
C 	C 	0.08445 0.50505 0.00207 0.01300
C 	C 	0.06064 0.47525 0.97717 -0.04400
C 	C 	0.99151 0.43610 0.97248 -0.02600
C 	C 	0.15718 0.54055 0.00749 0.01800
C 	C 	0.18852 0.60220 0.02245 -0.17000
C 	C 	0.87359 0.39803 0.98689 0.02400
C 	C 	0.84013 0.34723 0.96741 -0.17800
H 	H 	0.93459 0.44553 0.03383 0.04200
H 	H 	0.05646 0.51337 0.04219 0.05000
H 	H 	0.09571 0.48298 0.96137 0.04500
H 	H 	0.97384 0.41621 0.95281 0.04600
H 	H 	0.18615 0.51638 0.00067 0.04100
H 	H 	0.16521 0.63489 0.02422 0.09000
H 	H 	0.84744 0.42205 0.99659 0.03200
H 	H 	0.85626 0.30940 0.96279 0.08900
C 	C 	0.52681 0.93464 0.01840 0.00700
C 	C 	0.58517 0.99957 0.02135 -0.01700
C 	C 	0.59169 0.05828 0.00795 -0.04900
C 	C 	0.53899 0.05291 0.99194 0.00500
C 	C 	0.48097 0.98779 0.98879 -0.03000
C 	C 	0.47475 0.92902 0.00199 -0.03500
C 	C 	0.54725 0.11304 0.97597 0.01300
C 	C 	0.58245 0.18175 0.98564 -0.16200
C 	C 	0.51622 0.87566 0.03552 0.01400
C 	C 	0.48348 0.80688 0.02604 -0.16000
H 	H 	0.62538 0.00463 0.03414 0.03400
H 	H 	0.63798 0.10754 0.00972 0.04700
H 	H 	0.44052 0.98276 0.97615 0.04600
H 	H 	0.42872 0.87955 0.00001 0.04900
H 	H 	0.52624 0.10333 0.95616 0.04300
H 	H 	0.59391 0.19064 0.00658 0.08700
H 	H 	0.52737 0.88532 0.05646 0.05500
H 	H 	0.48794 0.79721 0.00528 0.08700
C 	C 	0.51984 0.49136 0.00018 0.00100
C 	C 	0.47189 0.46035 0.02035 -0.03200
C 	C 	0.48256 0.49226 0.04507 -0.03800
C 	C 	0.53934 0.55800 0.04945 0.02300
C 	C 	0.58393 0.59217 0.02854 -0.04100
C 	C 	0.57453 0.55911 0.00405 -0.03000
C 	C 	0.55756 0.58680 0.07663 0.01500
C 	C 	0.50880 0.57790 0.09552 -0.16300
C 	C 	0.52135 0.44606 0.97872 0.03400
C 	C 	0.55814 0.47273 0.95656 -0.19200
H 	H 	0.42911 0.40864 0.01758 0.04700
H 	H 	0.44835 0.46438 0.06111 0.06300
H 	H 	0.62770 0.64299 0.03162 0.04800
H 	H 	0.61205 0.58439 0.98876 0.05000
H 	H 	0.60902 0.60626 0.08317 0.03200
H 	H 	0.51897 0.57395 0.11622 0.08500
H 	H 	0.50066 0.39064 0.98301 0.03900
H 	H 	0.56287 0.52034 0.94798 0.09100
C 	C 	0.86187 0.18381 0.82749 -0.11600
C 	C 	0.83376 0.21008 0.80911 0.00300
C 	C 	0.82952 0.19107 0.78235 0.12400
C 	C 	0.85323 0.14607 0.77419 -0.03300
C 	C 	0.88171 0.12018 0.79255 -0.12400
C 	C 	0.88582 0.13904 0.81930 0.19400
C 	C 	0.80860 0.25722 0.81810 0.00800
O 	O 	0.80503 0.21882 0.76399 -0.27100
H 	H 	0.85068 0.13239 0.75349 0.06200
O 	O 	0.91435 0.11488 0.83738 -0.28200
H 	H 	0.86517 0.19816 0.84813 0.07200
C 	C 	0.73905 0.23212 0.82084 0.11700
C 	C 	0.71602 0.27246 0.83405 -0.03400
C 	C 	0.76193 0.33590 0.84593 -0.12600
C 	C 	0.83118 0.36373 0.84108 0.19800
C 	C 	0.85422 0.32467 0.82697 -0.11400
O 	O 	0.69359 0.16727 0.81145 -0.27600
H 	H 	0.66249 0.25136 0.83715 0.06100
O 	O 	0.87656 0.42810 0.85090 -0.28700
H 	H 	0.90778 0.34524 0.82422 0.08000
H 	H 	0.87669 0.07044 0.84414 0.15100
H 	H 	0.68591 0.13453 0.82625 0.14300
H 	H 	0.88981 0.41878 0.86846 0.15700
H 	H 	0.75650 0.18435 0.76234 0.15800
C 	C 	0.29984 0.19274 0.81615 -0.11000
C 	C 	0.29619 0.16005 0.84044 0.00300
C 	C 	0.23290 0.11599 0.85182 0.12100
C 	C 	0.17434 0.10473 0.83888 -0.03600
C 	C 	0.17757 0.13111 0.81332 -0.12300
C 	C 	0.24099 0.17747 0.80231 0.19400
C 	C 	0.35874 0.17550 0.85469 0.00900
O 	O 	0.22818 0.08376 0.87558 -0.27300
H 	H 	0.12598 0.07193 0.84809 0.07700
O 	O 	0.24577 0.20481 0.77753 -0.28300
H 	H 	0.34834 0.22923 0.80778 0.07300
C 	C 	0.40838 0.16438 0.84255 0.11500
C 	C 	0.47162 0.18996 0.85449 -0.02900
C 	C 	0.48533 0.22615 0.87852 -0.12000
C 	C 	0.43274 0.22847 0.89220 0.19600
C 	C 	0.37036 0.20487 0.88003 -0.11100
O 	O 	0.39490 0.12784 0.81931 -0.27000
H 	H 	0.51116 0.18573 0.84422 0.06000
O 	O 	0.44313 0.25611 0.91719 -0.29200
H 	H 	0.33189 0.21185 0.88989 0.08500
H 	H 	0.24644 0.24983 0.78034 0.15200
H 	H 	0.41256 0.16376 0.80517 0.14800
H 	H 	0.45624 0.30603 0.91476 0.15400
H 	H 	0.22551 0.03854 0.87105 0.15100
C 	C 	0.82638 0.71630 0.92084 -0.10900
C 	C 	0.87712 0.73425 0.90186 0.00600
C 	C 	0.90808 0.69268 0.89929 0.12300
C 	C 	0.88163 0.62893 0.91272 -0.02900
C 	C 	0.82216 0.60454 0.92743 -0.12100
C 	C 	0.79797 0.65099 0.93335 0.19500
C 	C 	0.88773 0.78657 0.88132 0.00600
O 	O 	0.96180 0.71243 0.88256 -0.27300
H 	H 	0.90297 0.59507 0.90932 0.06500
O 	O 	0.74474 0.63147 0.95032 -0.28500
H 	H 	0.80493 0.75011 0.92410 0.07300
C 	C 	0.83687 0.77245 0.86261 0.11400
C 	C 	0.85193 0.81299 0.83966 -0.02600
C 	C 	0.91763 0.86688 0.83498 -0.12500
C 	C 	0.96737 0.88377 0.85440 0.20400
C 	C 	0.95179 0.84472 0.87777 -0.11200
O 	O 	0.77396 0.71567 0.86571 -0.27500
H 	H 	0.81332 0.80006 0.82485 0.05700
O 	O 	0.03116 0.93836 0.85056 -0.29100
H 	H 	0.99068 0.85699 0.89240 0.08600
H 	H 	0.70416 0.61167 0.93895 0.15500
H 	H 	0.74737 0.73372 0.87503 0.14400
H 	H 	0.05655 0.91749 0.84224 0.15200
H 	H 	0.94195 0.69163 0.86520 0.15400
