data_crystal

_cell_length_a 26.87229
_cell_length_b 23.90092
_cell_length_c 27.12291
_cell_angle_alpha 89.27482
_cell_angle_beta  92.66422
_cell_angle_gamma 100.85700

_symmetry_space_group_name_	'P 1'
_symmetry_space_group_name_H-M	'P 1'

loop_
_symmetry_equiv_pos_as_xyz
  x,y,z

loop_
_atom_site_label
_atom_site_type_symbol
_atom_site_fract_x
_atom_site_fract_y
_atom_site_fract_z
_atom_site_charge
Ni	Ni	0.96113 0.00531 0.03980 1.09900
O 	O 	0.03735 0.01381 0.03010 -0.69300
Ni	Ni	0.03780 0.98952 0.95870 1.09500
O 	O 	0.96968 0.02032 0.11480 -0.35100
O 	O 	0.01932 0.95411 0.12848 -0.40300
O 	O 	0.96495 0.09286 0.03429 -0.37200
Ni	Ni	0.06710 0.95840 0.07038 1.06300
O 	O 	0.87910 0.05023 0.97562 -0.40600
O 	O 	0.01400 0.89242 0.04423 -0.41900
O 	O 	0.11466 0.00057 0.95472 -0.36100
O 	O 	0.96147 0.98025 0.96845 -0.69900
O 	O 	0.88435 0.99468 0.04390 -0.39100
O 	O 	0.02951 0.97454 0.88365 -0.37100
O 	O 	0.97900 0.03985 0.86962 -0.39800
Ni	Ni	0.93124 0.03502 0.92771 1.07100
H 	H 	0.05614 0.05322 0.03533 0.15400
H 	H 	0.94293 0.94068 0.96352 0.15600
C 	C 	0.01772 0.86998 0.00145 0.27700
O 	O 	0.98412 0.10052 0.95348 -0.42300
C 	C 	0.00093 0.99729 0.14389 0.25200
C 	C 	0.14144 0.98254 0.99143 0.27700
C 	C 	0.97955 0.12432 0.99543 0.30400
C 	C 	0.99820 0.99724 0.85432 0.28300
C 	C 	0.85727 0.01209 0.00715 0.29600
O 	O 	0.03497 0.90224 0.96394 -0.36200
O 	O 	0.11936 0.94383 0.02239 -0.41700
Ni	Ni	0.96164 0.00694 0.53916 1.10200
O 	O 	0.03816 0.01489 0.53143 -0.69100
Ni	Ni	0.04037 0.99334 0.45940 1.09300
O 	O 	0.96791 0.01876 0.61467 -0.35200
O 	O 	0.01628 0.95123 0.62756 -0.40600
O 	O 	0.96626 0.09449 0.53595 -0.36600
Ni	Ni	0.06590 0.95746 0.57094 1.06500
O 	O 	0.88406 0.05866 0.47539 -0.40600
O 	O 	0.01246 0.89412 0.54138 -0.42100
O 	O 	0.11719 0.00287 0.45727 -0.36100
O 	O 	0.96389 0.98576 0.46705 -0.70300
O 	O 	0.88484 0.99809 0.54085 -0.38600
O 	O 	0.03399 0.98189 0.38382 -0.38000
O 	O 	0.98582 0.04967 0.37065 -0.41200
Ni	Ni	0.93729 0.04472 0.42817 1.07100
H 	H 	0.05728 0.05386 0.53816 0.15600
H 	H 	0.94450 0.94702 0.45989 0.15900
C 	C 	0.01862 0.87235 0.49899 0.29900
O 	O 	0.99155 0.10729 0.45728 -0.42000
C 	C 	0.99804 0.99411 0.64372 0.26300
C 	C 	0.14266 0.98368 0.49429 0.27200
C 	C 	0.98788 0.12775 0.50091 0.29400
C 	C 	0.00372 0.00637 0.35477 0.32000
C 	C 	0.85995 0.01867 0.50412 0.29200
O 	O 	0.03582 0.90555 0.46202 -0.36700
O 	O 	0.11933 0.94408 0.52377 -0.41000
Ni	Ni	0.96021 0.50384 0.03830 1.09500
O 	O 	0.03671 0.51117 0.03052 -0.70300
Ni	Ni	0.03894 0.49097 0.95831 1.09800
O 	O 	0.96691 0.51471 0.11386 -0.36200
O 	O 	0.01471 0.44638 0.12606 -0.40900
O 	O 	0.96502 0.59160 0.03648 -0.36600
Ni	Ni	0.06387 0.45236 0.06890 1.06400
O 	O 	0.88107 0.55458 0.97461 -0.40400
O 	O 	0.01008 0.38916 0.03925 -0.42600
O 	O 	0.11596 0.49949 0.95630 -0.37700
O 	O 	0.96244 0.48352 0.96606 -0.69500
O 	O 	0.88332 0.49457 0.04038 -0.37400
O 	O 	0.03243 0.48062 0.88262 -0.36100
O 	O 	0.98424 0.54867 0.87038 -0.40700
Ni	Ni	0.93495 0.54196 0.92746 1.06600
H 	H 	0.05608 0.54990 0.03780 0.15100
H 	H 	0.94311 0.44474 0.95889 0.15600
C 	C 	0.01384 0.36907 0.99544 0.29900
O 	O 	0.98804 0.60529 0.95698 -0.41500
C 	C 	0.99671 0.48929 0.14262 0.28000
C 	C 	0.14115 0.47791 0.99233 0.29100
C 	C 	0.98363 0.62559 0.00050 0.28600
C 	C 	0.00268 0.50608 0.85377 0.27800
C 	C 	0.85768 0.51464 0.00388 0.27300
O 	O 	0.03304 0.40317 0.95977 -0.36600
O 	O 	0.11702 0.43844 0.02155 -0.42100
Ni	Ni	0.96128 0.50863 0.53773 1.09800
O 	O 	0.03753 0.51471 0.53005 -0.70100
Ni	Ni	0.03925 0.49063 0.45873 1.09800
O 	O 	0.96840 0.52347 0.61280 -0.36300
O 	O 	0.01486 0.45435 0.62779 -0.40800
O 	O 	0.96677 0.59633 0.53204 -0.36500
Ni	Ni	0.06397 0.45729 0.57086 1.06500
O 	O 	0.88309 0.55709 0.47159 -0.40900
O 	O 	0.00951 0.39336 0.54321 -0.41900
O 	O 	0.11599 0.49897 0.45678 -0.37500
O 	O 	0.96288 0.48381 0.46646 -0.69900
O 	O 	0.88464 0.50066 0.53977 -0.37400
O 	O 	0.03232 0.47532 0.38373 -0.36200
O 	O 	0.98486 0.54336 0.36796 -0.40800
Ni	Ni	0.93603 0.54053 0.42508 1.06600
H 	H 	0.05723 0.55359 0.53598 0.15300
H 	H 	0.94337 0.44477 0.46086 0.15600
C 	C 	0.01322 0.37121 0.50029 0.29500
O 	O 	0.99009 0.60417 0.45249 -0.42300
C 	C 	0.99719 0.49819 0.64285 0.28100
C 	C 	0.14098 0.47981 0.49422 0.28100
C 	C 	0.98479 0.62774 0.49435 0.29700
C 	C 	0.00307 0.49968 0.35343 0.28000
C 	C 	0.85931 0.51918 0.50228 0.28100
O 	O 	0.03442 0.40319 0.46432 -0.36800
O 	O 	0.11703 0.44126 0.52430 -0.41100
Ni	Ni	0.46001 0.00935 0.04127 1.09900
O 	O 	0.53648 0.01514 0.03444 -0.69500
Ni	Ni	0.53908 0.99437 0.96229 1.09600
O 	O 	0.46552 0.02026 0.11696 -0.35100
O 	O 	0.51296 0.95188 0.13050 -0.40400
O 	O 	0.46660 0.09724 0.03880 -0.36600
Ni	Ni	0.56182 0.95553 0.07338 1.06300
O 	O 	0.38432 0.06352 0.97671 -0.39900
O 	O 	0.50628 0.89454 0.04333 -0.42000
O 	O 	0.61583 0.00127 0.96128 -0.36100
O 	O 	0.46261 0.98848 0.96909 -0.70200
O 	O 	0.38330 0.00229 0.04202 -0.37400
O 	O 	0.53340 0.98327 0.88659 -0.37600
O 	O 	0.48657 0.05222 0.87309 -0.40800
Ni	Ni	0.43741 0.04809 0.92993 1.07100
H 	H 	0.55642 0.05356 0.04187 0.15700
H 	H 	0.44268 0.95006 0.96168 0.15800
C 	C 	0.51049 0.87358 0.00003 0.27500
O 	O 	0.49242 0.10863 0.96032 -0.41500
C 	C 	0.49574 0.99577 0.14609 0.25500
C 	C 	0.63980 0.97902 0.99776 0.27700
C 	C 	0.48696 0.13021 0.00300 0.29300
C 	C 	0.50367 0.00833 0.85737 0.31400
C 	C 	0.35927 0.02415 0.00534 0.27400
O 	O 	0.53235 0.90654 0.96493 -0.36000
O 	O 	0.61454 0.93976 0.02635 -0.41800
Ni	Ni	0.46209 0.00983 0.54171 1.10000
O 	O 	0.53852 0.01749 0.53348 -0.69100
Ni	Ni	0.54013 0.99441 0.46173 1.09400
O 	O 	0.46904 0.02319 0.61710 -0.34800
O 	O 	0.51777 0.95615 0.63108 -0.40200
O 	O 	0.46616 0.09744 0.53748 -0.36400
Ni	Ni	0.56609 0.96019 0.57349 1.06600
O 	O 	0.38264 0.05775 0.47676 -0.40600
O 	O 	0.51164 0.89660 0.54552 -0.42300
O 	O 	0.61694 0.00346 0.45923 -0.36500
O 	O 	0.46375 0.98671 0.46998 -0.70600
O 	O 	0.38531 0.00024 0.54407 -0.37000
O 	O 	0.53310 0.98096 0.38633 -0.37700
O 	O 	0.48458 0.04826 0.37238 -0.40900
Ni	Ni	0.43587 0.04358 0.42970 1.07100
H 	H 	0.55776 0.05653 0.53969 0.15700
H 	H 	0.44456 0.94764 0.46388 0.15700
C 	C 	0.51582 0.87445 0.50274 0.29700
O 	O 	0.48898 0.10777 0.45780 -0.41900
C 	C 	0.49974 0.99958 0.64642 0.25300
C 	C 	0.64230 0.98445 0.49647 0.27600
C 	C 	0.48359 0.13005 0.50024 0.29700
C 	C 	0.50267 0.00490 0.35697 0.31100
C 	C 	0.35959 0.01867 0.50684 0.27800
O 	O 	0.53553 0.90683 0.46628 -0.36600
O 	O 	0.61871 0.94517 0.52610 -0.40600
Ni	Ni	0.46131 0.51070 0.04257 1.09600
O 	O 	0.53748 0.51608 0.03383 -0.70100
Ni	Ni	0.53793 0.49382 0.96180 1.10000
O 	O 	0.46901 0.52289 0.11798 -0.36400
O 	O 	0.51596 0.45393 0.13067 -0.40700
O 	O 	0.46805 0.59848 0.03916 -0.36900
Ni	Ni	0.56399 0.45739 0.07291 1.06600
O 	O 	0.38423 0.56476 0.97935 -0.40000
O 	O 	0.50801 0.39590 0.04452 -0.41900
O 	O 	0.61453 0.50051 0.95862 -0.37200
O 	O 	0.46187 0.48866 0.97054 -0.69600
O 	O 	0.38475 0.50436 0.04525 -0.37700
O 	O 	0.52971 0.48131 0.88646 -0.36100
O 	O 	0.48422 0.55176 0.87371 -0.40900
Ni	Ni	0.43626 0.54822 0.93165 1.06600
H 	H 	0.55766 0.55463 0.04024 0.15600
H 	H 	0.44153 0.45026 0.96384 0.15700
C 	C 	0.51202 0.37358 0.00183 0.27400
O 	O 	0.49224 0.60926 0.96011 -0.41700
C 	C 	0.49907 0.49781 0.14674 0.28400
C 	C 	0.63975 0.47974 0.99503 0.29000
C 	C 	0.48905 0.63089 0.00333 0.29000
C 	C 	0.50118 0.50803 0.85737 0.28100
C 	C 	0.35979 0.52632 0.00931 0.27000
O 	O 	0.53113 0.40591 0.96513 -0.35300
O 	O 	0.61566 0.44100 0.02487 -0.41900
Ni	Ni	0.46103 0.51061 0.54161 1.09800
O 	O 	0.53741 0.51859 0.53342 -0.70000
Ni	Ni	0.53908 0.49423 0.46212 1.09800
O 	O 	0.46834 0.52604 0.61653 -0.36400
O 	O 	0.51639 0.45843 0.63152 -0.40500
O 	O 	0.46469 0.59796 0.53588 -0.36600
Ni	Ni	0.56550 0.46262 0.57445 1.06700
O 	O 	0.38167 0.55811 0.47641 -0.41000
O 	O 	0.51225 0.39753 0.54706 -0.41700
O 	O 	0.61588 0.50388 0.45958 -0.37500
O 	O 	0.46266 0.48641 0.47024 -0.69900
O 	O 	0.38426 0.50081 0.54397 -0.37600
O 	O 	0.53209 0.47993 0.38693 -0.36400
O 	O 	0.48356 0.54707 0.37235 -0.40500
Ni	Ni	0.43488 0.54310 0.42957 1.06700
H 	H 	0.55646 0.55783 0.53899 0.15700
H 	H 	0.44353 0.44723 0.46447 0.15500
C 	C 	0.51745 0.37465 0.50484 0.29700
O 	O 	0.48855 0.60744 0.45663 -0.42100
C 	C 	0.49766 0.50152 0.64659 0.28100
C 	C 	0.64175 0.48570 0.49685 0.28300
C 	C 	0.48443 0.62998 0.49925 0.29700
C 	C 	0.50173 0.50362 0.35731 0.28400
C 	C 	0.35856 0.51929 0.50673 0.28200
O 	O 	0.53500 0.40670 0.46733 -0.36600
O 	O 	0.61855 0.44739 0.52756 -0.41100
C 	C 	0.50219 0.50166 0.80371 -0.07300
C 	C 	0.45698 0.47877 0.77737 -0.02900
C 	C 	0.45361 0.48265 0.72583 0.04100
C 	C 	0.49610 0.50938 0.70003 -0.07500
C 	C 	0.54113 0.53282 0.72641 -0.02900
C 	C 	0.54450 0.52895 0.77794 0.04000
S 	S 	0.39612 0.45345 0.69401 -0.03700
S 	S 	0.60167 0.55914 0.80982 -0.03600
H 	H 	0.60008 0.61406 0.82253 0.03800
H 	H 	0.36725 0.49470 0.68718 0.04200
H 	H 	0.42396 0.45910 0.79713 0.02700
H 	H 	0.57411 0.55266 0.70667 0.02600
C 	C 	0.49936 0.50530 0.20037 -0.07400
C 	C 	0.45430 0.48730 0.22486 -0.02000
C 	C 	0.45531 0.48127 0.27625 0.04000
C 	C 	0.50172 0.49474 0.30388 -0.07700
C 	C 	0.54685 0.51235 0.27936 -0.01700
C 	C 	0.54584 0.51834 0.22794 0.03500
S 	S 	0.39834 0.45564 0.30563 -0.10000
S 	S 	0.60287 0.54354 0.19851 -0.07800
H 	H 	0.62380 0.49823 0.18521 0.01500
H 	H 	0.39126 0.39748 0.30933 0.03900
H 	H 	0.41865 0.47573 0.20373 0.05000
H 	H 	0.58250 0.52387 0.30049 0.05000
C 	C 	0.50963 0.81215 0.49929 -0.07800
C 	C 	0.53777 0.78329 0.53247 -0.01900
C 	C 	0.52861 0.72369 0.53419 0.04100
C 	C 	0.49093 0.69233 0.50237 -0.07800
C 	C 	0.46287 0.72118 0.46910 -0.01900
C 	C 	0.47209 0.78080 0.46733 0.04100
S 	S 	0.56524 0.68895 0.57561 -0.06800
S 	S 	0.43579 0.81556 0.42557 -0.06800
H 	H 	0.46066 0.82684 0.38254 0.04600
H 	H 	0.54072 0.67772 0.61883 0.04300
H 	H 	0.56658 0.80736 0.55727 0.03700
H 	H 	0.43406 0.69711 0.44431 0.03700
C 	C 	0.48966 0.19236 0.50389 -0.07600
C 	C 	0.52912 0.22234 0.53412 -0.02300
C 	C 	0.54024 0.28195 0.53294 0.04600
C 	C 	0.51090 0.31225 0.50172 -0.07800
C 	C 	0.47138 0.28228 0.47157 -0.02100
C 	C 	0.46019 0.22267 0.47283 0.04200
S 	S 	0.59224 0.31796 0.56919 -0.07100
S 	S 	0.40807 0.18668 0.43673 -0.06100
H 	H 	0.42413 0.17354 0.39183 0.02600
H 	H 	0.63500 0.32535 0.54240 0.04500
H 	H 	0.55221 0.19923 0.55750 0.03900
H 	H 	0.44835 0.30538 0.44811 0.03700
C 	C 	0.50290 0.81137 0.99514 -0.05700
C 	C 	0.54474 0.78628 0.98608 -0.03300
C 	C 	0.54203 0.72764 0.99277 0.05200
C 	C 	0.49657 0.69316 0.00753 -0.09100
C 	C 	0.45477 0.71826 0.01658 -0.01800
C 	C 	0.45735 0.77680 0.00955 0.02600
S 	S 	0.59639 0.69818 0.98444 -0.05700
S 	S 	0.40273 0.80605 0.01709 -0.06500
H 	H 	0.40202 0.82339 0.06497 0.04100
H 	H 	0.59624 0.68032 0.93661 0.04200
H 	H 	0.58018 0.81281 0.97598 0.05600
H 	H 	0.41947 0.69180 0.02702 0.05100
C 	C 	0.50735 0.31155 0.99900 -0.05000
C 	C 	0.54038 0.28495 0.02869 -0.03900
C 	C 	0.53239 0.22553 0.03265 0.04900
C 	C 	0.49121 0.19213 0.00637 -0.09100
C 	C 	0.45804 0.21873 0.97688 -0.00200
C 	C 	0.46605 0.27814 0.97287 0.02900
S 	S 	0.57432 0.19349 0.07039 -0.06800
S 	S 	0.42392 0.31016 0.93538 -0.05200
H 	H 	0.38615 0.32222 0.96339 0.02900
H 	H 	0.55584 0.18467 0.11666 0.04400
H 	H 	0.57185 0.31066 0.04937 0.04000
H 	H 	0.42652 0.19302 0.95626 0.03500
C 	C 	0.50304 0.99989 0.80374 -0.11100
C 	C 	0.54808 0.01652 0.77891 0.01200
C 	C 	0.54689 0.02154 0.72740 0.01800
C 	C 	0.50028 0.00848 0.70001 -0.03700
C 	C 	0.45521 0.99200 0.72485 -0.04800
C 	C 	0.45640 0.98703 0.77638 0.05500
S 	S 	0.60392 0.04536 0.69761 -0.06000
S 	S 	0.39935 0.96333 0.80622 -0.09700
H 	H 	0.37909 0.00937 0.81888 0.02400
H 	H 	0.62473 0.99932 0.68613 0.01100
H 	H 	0.58391 0.02776 0.79982 0.04600
H 	H 	0.41939 0.98071 0.70396 0.05500
C 	C 	0.49647 0.00440 0.19968 -0.04200
C 	C 	0.45287 0.98262 0.22537 -0.04400
C 	C 	0.45555 0.97767 0.27689 0.05000
C 	C 	0.50205 0.99596 0.30342 -0.10800
C 	C 	0.54566 0.01769 0.27773 0.00900
C 	C 	0.54300 0.02257 0.22619 0.01900
S 	S 	0.40064 0.94740 0.30782 -0.08600
S 	S 	0.59796 0.05262 0.19524 -0.07000
H 	H 	0.62246 0.01021 0.18178 0.01400
H 	H 	0.37600 0.98971 0.32126 0.01100
H 	H 	0.41726 0.96735 0.20510 0.05100
H 	H 	0.58126 0.03300 0.29800 0.04400
C 	C 	0.69731 0.49489 0.49590 -0.08100
C 	C 	0.72128 0.44761 0.49506 -0.02000
C 	C 	0.77419 0.45492 0.49848 0.03000
C 	C 	0.80370 0.51018 0.50253 -0.07900
C 	C 	0.77975 0.55750 0.50307 -0.02300
C 	C 	0.72680 0.55016 0.50003 0.03400
S 	S 	0.80300 0.39468 0.49632 -0.05800
S 	S 	0.69793 0.61030 0.50306 -0.07000
H 	H 	0.68981 0.62995 0.45626 0.04400
H 	H 	0.81291 0.38472 0.44845 0.02400
H 	H 	0.69867 0.40505 0.49189 0.04800
H 	H 	0.80237 0.60008 0.50603 0.05200
C 	C 	0.19662 0.49121 0.49609 -0.08100
C 	C 	0.22297 0.52230 0.53583 -0.03100
C 	C 	0.27590 0.53039 0.54064 0.04000
C 	C 	0.30292 0.50690 0.50541 -0.08100
C 	C 	0.27655 0.47556 0.46581 -0.03000
C 	C 	0.22359 0.46729 0.46111 0.04000
S 	S 	0.30789 0.57104 0.59024 -0.03600
S 	S 	0.19151 0.42567 0.41210 -0.03000
H 	H 	0.17838 0.37023 0.42747 0.04000
H 	H 	0.32071 0.62685 0.57582 0.04100
H 	H 	0.20219 0.54011 0.56310 0.01700
H 	H 	0.29732 0.45776 0.43852 0.02000
C 	C 	0.80191 0.50452 0.00415 -0.09000
C 	C 	0.77749 0.55025 0.01257 -0.01600
C 	C 	0.72459 0.54309 0.00798 0.01900
C 	C 	0.69546 0.48939 0.99541 -0.06900
C 	C 	0.71977 0.44335 0.98772 -0.02500
C 	C 	0.77277 0.45066 0.99192 0.04200
S 	S 	0.69524 0.60132 0.01941 -0.06900
S 	S 	0.80217 0.39236 0.98092 -0.05900
H 	H 	0.81334 0.39200 0.93216 0.02200
H 	H 	0.68331 0.60080 0.06800 0.02200
H 	H 	0.79964 0.59140 0.02281 0.04500
H 	H 	0.69741 0.40181 0.97858 0.05300
C 	C 	0.19725 0.48993 0.99425 -0.09000
C 	C 	0.22301 0.54660 0.99790 -0.01700
C 	C 	0.27592 0.55917 0.00520 0.02300
C 	C 	0.30381 0.51455 0.00729 -0.07400
C 	C 	0.27809 0.45798 0.00384 -0.04600
C 	C 	0.22524 0.44534 0.99700 0.04900
S 	S 	0.30615 0.63044 0.01512 -0.04300
S 	S 	0.19516 0.37374 0.98965 -0.03400
H 	H 	0.18192 0.35067 0.03476 0.03000
H 	H 	0.30975 0.64171 0.06469 0.03700
H 	H 	0.20171 0.58092 0.99672 0.03200
H 	H 	0.29940 0.42366 0.00517 0.03400
C 	C 	0.00335 0.49978 0.80004 -0.07600
C 	C 	0.95855 0.47444 0.77421 -0.02700
C 	C 	0.95454 0.47757 0.72264 0.04000
C 	C 	0.99589 0.50625 0.69630 -0.07300
C 	C 	0.04051 0.53208 0.72216 -0.03100
C 	C 	0.04456 0.52885 0.77372 0.04100
S 	S 	0.89777 0.44485 0.69144 -0.03800
S 	S 	0.10125 0.56185 0.80491 -0.03900
H 	H 	0.09776 0.61647 0.81687 0.03800
H 	H 	0.86641 0.48363 0.68484 0.04200
H 	H 	0.92633 0.45330 0.79437 0.02600
H 	H 	0.07270 0.55330 0.70200 0.02600
C 	C 	0.99656 0.49606 0.19634 -0.07500
C 	C 	0.04217 0.51915 0.22196 -0.02900
C 	C 	0.04619 0.51630 0.27353 0.04000
C 	C 	0.00394 0.49050 0.30010 -0.07500
C 	C 	0.95853 0.46679 0.27444 -0.02900
C 	C 	0.95454 0.46951 0.22287 0.04100
S 	S 	0.10412 0.54582 0.30440 -0.03700
S 	S 	0.89694 0.43889 0.19196 -0.03600
H 	H 	0.89800 0.38347 0.18052 0.03900
H 	H 	0.10401 0.60146 0.31586 0.03900
H 	H 	0.07495 0.53827 0.20162 0.02400
H 	H 	0.92575 0.44765 0.29477 0.02600
C 	C 	0.99170 0.69023 0.49680 -0.07500
C 	C 	0.02888 0.71999 0.52949 -0.02700
C 	C 	0.04014 0.77958 0.52864 0.04800
C 	C 	0.01332 0.81012 0.49504 -0.08200
C 	C 	0.97647 0.78033 0.46202 -0.01800
C 	C 	0.96491 0.72073 0.46317 0.04300
S 	S 	0.08884 0.81530 0.56889 -0.08100
S 	S 	0.91506 0.68504 0.42415 -0.06300
H 	H 	0.93411 0.67183 0.38069 0.02800
H 	H 	0.13441 0.82126 0.54690 0.04200
H 	H 	0.04994 0.69674 0.55488 0.03800
H 	H 	0.95536 0.80357 0.43668 0.04000
C 	C 	0.00522 0.30880 0.49643 -0.07900
C 	C 	0.04681 0.28294 0.48820 -0.02300
C 	C 	0.04285 0.22398 0.49385 0.04100
C 	C 	0.99640 0.18998 0.50663 -0.07900
C 	C 	0.95497 0.21590 0.51531 -0.02300
C 	C 	0.95892 0.27486 0.50970 0.04000
S 	S 	0.09679 0.19342 0.48654 -0.06400
S 	S 	0.90506 0.30540 0.51736 -0.06100
H 	H 	0.90438 0.32235 0.56536 0.04500
H 	H 	0.09796 0.17706 0.43844 0.04300
H 	H 	0.08286 0.30901 0.47923 0.05200
H 	H 	0.91891 0.18984 0.52424 0.05400
C 	C 	0.80422 0.00791 0.50258 -0.06800
C 	C 	0.77900 0.02147 0.54359 -0.02500
C 	C 	0.72618 0.01597 0.54134 0.05300
C 	C 	0.69802 0.99592 0.49780 -0.09200
C 	C 	0.72325 0.98252 0.45676 -0.01300
C 	C 	0.77607 0.98810 0.45898 0.02700
S 	S 	0.69593 0.03644 0.59256 -0.10500
S 	S 	0.80639 0.96886 0.40736 -0.10300
H 	H 	0.81827 0.01565 0.37749 0.02600
H 	H 	0.69179 0.09253 0.58771 0.03600
H 	H 	0.80059 0.03754 0.57688 0.05600
H 	H 	0.70168 0.96654 0.42343 0.05000
C 	C 	0.19815 0.99424 0.49463 -0.09500
C 	C 	0.22575 0.04079 0.52110 -0.01300
C 	C 	0.27854 0.04790 0.52724 0.03100
C 	C 	0.30410 0.00801 0.50673 -0.06000
C 	C 	0.27650 0.96154 0.48016 -0.05200
C 	C 	0.22375 0.95466 0.47369 0.04800
S 	S 	0.31222 0.10673 0.56085 -0.02400
S 	S 	0.19034 0.89734 0.43813 -0.03600
H 	H 	0.17661 0.85080 0.46789 0.03900
H 	H 	0.32740 0.15107 0.52909 0.04400
H 	H 	0.20603 0.07097 0.53760 0.02500
H 	H 	0.29624 0.93146 0.46351 0.02900
C 	C 	0.99377 0.68791 0.00701 -0.08800
C 	C 	0.04085 0.71920 0.99373 -0.01200
C 	C 	0.04833 0.77854 0.98864 0.02800
C 	C 	0.00837 0.80745 0.99737 -0.06100
C 	C 	0.96159 0.77629 0.01139 -0.03800
C 	C 	0.95408 0.71698 0.01641 0.04100
S 	S 	0.10794 0.81590 0.97152 -0.02700
S 	S 	0.89431 0.67978 0.03300 -0.03500
H 	H 	0.86346 0.66974 0.99116 0.04300
H 	H 	0.10782 0.82090 0.92115 0.04200
H 	H 	0.07132 0.69709 0.98596 0.03400
H 	H 	0.93111 0.79841 0.01912 0.03800
C 	C 	0.00019 0.30667 0.98783 -0.07100
C 	C 	0.95994 0.27563 0.01391 -0.03300
C 	C 	0.95370 0.21630 0.01860 0.02700
C 	C 	0.98891 0.18723 0.99795 -0.07100
C 	C 	0.02814 0.21814 0.97060 -0.02600
C 	C 	0.03229 0.27683 0.96316 0.03400
S 	S 	0.90057 0.17922 0.04868 -0.02100
S 	S 	0.07324 0.31035 0.91832 -0.01300
H 	H 	0.12092 0.29954 0.92809 0.03600
H 	H 	0.86131 0.16285 0.01472 0.04000
H 	H 	0.93391 0.29792 0.03141 0.04200
H 	H 	0.05403 0.19586 0.95286 0.04400
C 	C 	0.80160 0.99940 0.00751 -0.11400
C 	C 	0.77410 0.97115 0.96695 -0.01100
C 	C 	0.72121 0.96472 0.96297 0.03200
C 	C 	0.69543 0.98764 0.99956 -0.07400
C 	C 	0.72277 0.01484 0.04064 -0.03700
C 	C 	0.77562 0.02086 0.04486 0.05600
S 	S 	0.68769 0.92636 0.91289 -0.03200
S 	S 	0.80868 0.05587 0.09673 -0.03600
H 	H 	0.81422 0.01661 0.13284 0.04400
H 	H 	0.67342 0.87033 0.92621 0.03900
H 	H 	0.79398 0.95455 0.93822 0.01400
H 	H 	0.70284 0.03132 0.06939 0.02300
C 	C 	0.30355 0.01358 0.00230 -0.07300
C 	C 	0.27795 0.99012 0.95894 -0.03600
C 	C 	0.22499 0.98150 0.95400 0.04200
C 	C 	0.19713 0.99706 0.99275 -0.08700
C 	C 	0.22286 0.02157 0.03572 -0.02200
C 	C 	0.27583 0.03031 0.04057 0.03600
S 	S 	0.19418 0.94977 0.89977 -0.03700
S 	S 	0.30689 0.06388 0.09398 -0.03000
H 	H 	0.31362 0.02336 0.12857 0.04400
H 	H 	0.18936 0.89182 0.90339 0.03700
H 	H 	0.29931 0.97816 0.92912 0.01900
H 	H 	0.20154 0.03355 0.06556 0.01800
C 	C 	0.99871 0.98922 0.80078 -0.09200
C 	C 	0.04415 0.00708 0.77684 0.00100
C 	C 	0.04375 0.01381 0.72551 0.02500
C 	C 	0.99759 0.00109 0.69737 -0.04800
C 	C 	0.95220 0.98288 0.72128 -0.04000
C 	C 	0.95259 0.97623 0.77262 0.04900
S 	S 	0.10117 0.03946 0.69688 -0.06200
S 	S 	0.89522 0.95025 0.80122 -0.10200
H 	H 	0.88796 0.89203 0.80420 0.03900
H 	H 	0.12234 0.99436 0.68349 0.00500
H 	H 	0.07959 0.01823 0.79838 0.04900
H 	H 	0.91678 0.97160 0.69972 0.05400
C 	C 	0.00337 0.99828 0.30112 -0.11800
C 	C 	0.04866 0.01437 0.27656 0.01500
C 	C 	0.04784 0.01890 0.22503 0.01700
C 	C 	0.00136 0.00600 0.19742 -0.03600
C 	C 	0.95609 0.99002 0.22200 -0.04900
C 	C 	0.95690 0.98547 0.27349 0.05900
S 	S 	0.10513 0.04224 0.19549 -0.06400
S 	S 	0.89952 0.96289 0.30295 -0.09300
H 	H 	0.87843 0.00954 0.31150 0.02800
H 	H 	0.12549 0.99604 0.18348 0.00600
H 	H 	0.08437 0.02553 0.29767 0.04500
H 	H 	0.92036 0.97896 0.20091 0.05500
