data_crystal

_cell_length_a 27.77278
_cell_length_b 28.08242
_cell_length_c 28.57835
_cell_angle_alpha 95.52369
_cell_angle_beta  95.51595
_cell_angle_gamma 125.67430

_symmetry_space_group_name_	'P 1'
_symmetry_space_group_name_H-M	'P 1'

loop_
_symmetry_equiv_pos_as_xyz
  x,y,z

loop_
_atom_site_label
_atom_site_type_symbol
_atom_site_fract_x
_atom_site_fract_y
_atom_site_fract_z
_atom_site_charge
N 	N 	0.03443 0.06280 0.99504 -0.13400
C 	C 	0.06048 0.03441 0.99071 0.13100
N 	N 	0.02726 0.97474 0.98921 -0.13300
N 	N 	0.00195 0.03224 0.44485 -0.13900
C 	C 	0.03120 0.00712 0.44925 0.13600
N 	N 	0.99992 0.94840 0.45129 -0.13900
O 	O 	0.55924 0.21673 0.00110 -0.35600
C 	C 	0.53549 0.24069 0.98132 0.30100
O 	O 	0.57083 0.29531 0.97367 -0.39400
H 	H 	0.60133 0.23173 0.91676 0.17600
Cu	Cu	0.63918 0.30164 0.50371 0.89700
Cu	Cu	0.61906 0.33697 0.41225 0.89600
O 	O 	0.63747 0.28817 0.43623 -0.63900
O 	O 	0.65852 0.34862 0.35522 -0.38300
O 	O 	0.55240 0.25774 0.49604 -0.37900
C 	C 	0.51854 0.26195 0.46352 0.30800
O 	O 	0.54240 0.30326 0.43671 -0.39200
O 	O 	0.63975 0.30221 0.57319 -0.38000
H 	H 	0.61053 0.24567 0.42026 0.16600
C 	C 	0.33794 0.16798 0.46212 -0.00800
C 	C 	0.29994 0.10582 0.44735 -0.02800
C 	C 	0.23770 0.07394 0.44489 -0.04300
C 	C 	0.21319 0.10411 0.45717 0.01700
C 	C 	0.25122 0.16624 0.47222 -0.04300
C 	C 	0.31350 0.19814 0.47468 -0.02700
C 	C 	0.14910 0.07115 0.45457 0.00600
C 	C 	0.09530 0.04260 0.45210 -0.03700
C 	C 	0.40172 0.20096 0.46290 0.04900
C 	C 	0.45512 0.22855 0.46354 -0.10500
H 	H 	0.31852 0.08224 0.43752 0.04000
H 	H 	0.20856 0.02588 0.43335 0.04600
H 	H 	0.23259 0.18982 0.48188 0.04600
H 	H 	0.34263 0.24622 0.48607 0.04200
C 	C 	0.23872 0.12204 0.98515 0.01400
C 	C 	0.25848 0.13047 0.94129 -0.04200
C 	C 	0.31841 0.15367 0.93936 -0.02800
C 	C 	0.35871 0.16844 0.98127 -0.01100
C 	C 	0.33916 0.16091 0.02519 -0.02500
C 	C 	0.27932 0.13778 0.02713 -0.04000
C 	C 	0.42058 0.19301 0.97960 0.04800
C 	C 	0.47267 0.21370 0.97949 -0.10900
C 	C 	0.17579 0.09219 0.98650 0.00600
C 	C 	0.12326 0.06725 0.98833 -0.03700
H 	H 	0.22727 0.11818 0.90865 0.04500
H 	H 	0.33336 0.15987 0.90533 0.04000
H 	H 	0.37023 0.17271 0.05779 0.04200
H 	H 	0.26430 0.13115 0.06112 0.04600
C 	C 	0.97506 0.03123 0.99793 0.12000
C 	C 	0.96807 0.94327 0.99203 0.13100
N 	N 	0.94190 0.97145 0.99636 -0.13600
C 	C 	0.94130 0.99856 0.44246 0.13800
C 	C 	0.93938 0.91456 0.44896 0.13400
N 	N 	0.90988 0.93958 0.44461 -0.13900
Cu	Cu	0.64824 0.25363 0.00524 0.92900
Cu	Cu	0.70061 0.25382 0.90717 0.87100
Cu	Cu	0.68274 0.34484 0.93965 0.89700
Cu	Cu	0.64484 0.36274 0.03048 0.89700
C 	C 	0.66038 0.30086 0.10315 0.30200
C 	C 	0.67011 0.30143 0.83670 0.30300
O 	O 	0.69546 0.34590 0.00708 -0.63800
O 	O 	0.64264 0.25753 0.93619 -0.64100
O 	O 	0.68760 0.21267 0.00720 -0.36700
O 	O 	0.75524 0.27377 0.96355 -0.44400
O 	O 	0.63266 0.32322 0.08726 -0.38200
O 	O 	0.72619 0.43053 0.94788 -0.38000
C 	C 	0.72064 0.46315 0.98017 0.30600
O 	O 	0.67838 0.43866 0.00648 -0.38900
O 	O 	0.66588 0.26565 0.07381 -0.35600
C 	C 	0.73894 0.23561 0.99244 0.31000
O 	O 	0.68305 0.34516 0.87037 -0.38100
O 	O 	0.66443 0.25401 0.84727 -0.42000
H 	H 	0.73825 0.37278 0.02351 0.16600
Cu	Cu	0.73073 0.33539 0.43742 0.92800
Cu	Cu	0.73306 0.28645 0.53670 0.87200
C 	C 	0.68158 0.32162 0.33944 0.30200
O 	O 	0.76716 0.42335 0.44057 -0.35900
C 	C 	0.68485 0.31678 0.60681 0.30300
O 	O 	0.72757 0.34216 0.50659 -0.64000
O 	O 	0.77201 0.29597 0.43572 -0.36900
O 	O 	0.71157 0.23077 0.48111 -0.44300
C 	C 	0.74239 0.44662 0.45983 0.30100
O 	O 	0.68751 0.41141 0.46816 -0.39200
O 	O 	0.71771 0.31684 0.36883 -0.35700
C 	C 	0.74900 0.24565 0.45132 0.30900
O 	O 	0.73322 0.32344 0.59610 -0.42000
H 	H 	0.75336 0.38334 0.52543 0.17600
C 	C 	0.67770 0.31766 0.65591 -0.09800
C 	C 	0.67335 0.31658 0.69744 0.03300
C 	C 	0.67021 0.31329 0.74618 0.03300
C 	C 	0.66921 0.30880 0.78767 -0.09800
C 	C 	0.66927 0.30151 0.15360 -0.08900
C 	C 	0.67466 0.30338 0.19625 0.03600
C 	C 	0.67885 0.30741 0.24632 0.03600
C 	C 	0.68085 0.31272 0.28898 -0.08900
C 	C 	0.81145 0.62069 0.45882 -0.00800
C 	C 	0.83836 0.66358 0.50109 -0.02800
C 	C 	0.85987 0.72241 0.49928 -0.04300
C 	C 	0.85451 0.73857 0.45521 0.01700
C 	C 	0.82667 0.69541 0.41305 -0.04300
C 	C 	0.80519 0.63662 0.41486 -0.02800
C 	C 	0.88298 0.80042 0.45272 0.00600
C 	C 	0.90693 0.85227 0.45093 -0.03600
C 	C 	0.78849 0.55985 0.46059 0.04700
C 	C 	0.76881 0.50860 0.46092 -0.10700
H 	H 	0.84288 0.65151 0.53526 0.04000
H 	H 	0.88161 0.75558 0.53200 0.04600
H 	H 	0.82262 0.70758 0.37882 0.04600
H 	H 	0.78397 0.60359 0.38208 0.04200
C 	C 	0.81322 0.14719 0.43705 -0.01100
C 	C 	0.80652 0.11443 0.47317 -0.02900
C 	C 	0.82940 0.08134 0.47255 -0.04400
C 	C 	0.85912 0.08075 0.43582 0.01500
C 	C 	0.86480 0.11253 0.39910 -0.04300
C 	C 	0.84187 0.14571 0.39972 -0.02800
C 	C 	0.88742 0.05102 0.43768 0.00700
C 	C 	0.91097 0.02604 0.43949 -0.04400
C 	C 	0.79183 0.18332 0.43919 0.04800
C 	C 	0.77292 0.21254 0.44323 -0.11900
H 	H 	0.78424 0.11519 0.50205 0.03500
H 	H 	0.82491 0.05700 0.50108 0.04300
H 	H 	0.88775 0.11235 0.37057 0.04500
H 	H 	0.84703 0.17070 0.37156 0.04200
C 	C 	0.87195 0.76403 0.98667 0.01400
C 	C 	0.85141 0.72563 0.94249 -0.04200
C 	C 	0.82134 0.66443 0.94065 -0.02700
C 	C 	0.81176 0.64145 0.98299 -0.01100
C 	C 	0.83208 0.67982 0.02714 -0.02500
C 	C 	0.86212 0.74100 0.02898 -0.04000
C 	C 	0.77991 0.57841 0.98114 0.04900
C 	C 	0.75332 0.52574 0.98029 -0.10600
C 	C 	0.90535 0.82726 0.98874 0.00600
C 	C 	0.93330 0.88021 0.99031 -0.03700
H 	H 	0.85904 0.74321 0.90965 0.04600
H 	H 	0.80555 0.63497 0.90637 0.04200
H 	H 	0.82461 0.66228 0.06000 0.04000
H 	H 	0.87807 0.77047 0.06328 0.04600
C 	C 	0.89014 0.11043 0.00170 0.02300
C 	C 	0.89085 0.13948 0.04481 -0.04600
C 	C 	0.85936 0.16429 0.04488 -0.02500
C 	C 	0.82707 0.16003 0.00185 -0.01200
C 	C 	0.82635 0.13089 0.95883 -0.02900
C 	C 	0.85779 0.10617 0.95876 -0.04900
C 	C 	0.79636 0.18728 0.00129 0.05600
C 	C 	0.76991 0.20924 0.99863 -0.12800
C 	C 	0.92106 0.08341 0.00154 0.00000
C 	C 	0.94651 0.06036 0.00029 -0.03000
H 	H 	0.91561 0.14276 0.07819 0.04600
H 	H 	0.86030 0.18694 0.07826 0.04100
H 	H 	0.80164 0.12761 0.92541 0.03300
H 	H 	0.85687 0.08360 0.92534 0.04400
