data_crystal

_cell_length_a 30.90012
_cell_length_b 30.97491
_cell_length_c 35.17556
_cell_angle_alpha 95.54112
_cell_angle_beta  95.54368
_cell_angle_gamma 125.58220

_symmetry_space_group_name_	'P 1'
_symmetry_space_group_name_H-M	'P 1'

loop_
_symmetry_equiv_pos_as_xyz
  x,y,z

loop_
_atom_site_label
_atom_site_type_symbol
_atom_site_fract_x
_atom_site_fract_y
_atom_site_fract_z
_atom_site_charge
C 	C 	0.01126 0.97598 0.47244 -0.07300
C 	C 	0.01427 0.05454 0.46427 -0.07400
C 	C 	0.97228 0.01401 0.98467 0.03300
C 	C 	0.02658 0.04275 0.98028 -0.08200
C 	C 	0.05092 0.01630 0.97741 0.04500
C 	C 	0.02107 0.96121 0.97886 -0.08400
C 	C 	0.96693 0.93248 0.98324 0.04600
C 	C 	0.94251 0.95881 0.98617 -0.08200
H 	H 	0.04973 0.08547 0.97924 0.05200
H 	H 	0.03999 0.94078 0.97667 0.05500
H 	H 	0.90044 0.93644 0.98934 0.05200
C 	C 	0.95779 0.02354 0.46110 0.02700
C 	C 	0.04106 0.03084 0.46999 0.02800
C 	C 	0.95485 0.94479 0.46936 0.02800
C 	C 	0.92807 0.96853 0.46350 -0.07300
H 	H 	0.03729 0.09700 0.46244 0.04900
H 	H 	0.03189 0.95752 0.47654 0.05000
H 	H 	0.88449 0.94454 0.46128 0.04900
Cu	Cu	0.64236 0.23797 0.99473 0.92800
Cu	Cu	0.68266 0.24212 0.91119 0.87000
Cu	Cu	0.67564 0.32776 0.94848 0.89700
Cu	Cu	0.64611 0.33854 0.02557 0.89400
C 	C 	0.65735 0.27257 0.07682 0.32600
O 	O 	0.56407 0.20807 0.99486 -0.36500
C 	C 	0.65513 0.29466 0.86280 0.32700
O 	O 	0.68812 0.32240 0.00155 -0.64000
O 	O 	0.63561 0.24758 0.94025 -0.64200
O 	O 	0.67301 0.19683 0.98896 -0.37700
O 	O 	0.73330 0.25304 0.95337 -0.44400
O 	O 	0.63432 0.29636 0.06812 -0.39400
O 	O 	0.71830 0.40565 0.96010 -0.38400
C 	C 	0.71393 0.43434 0.98770 0.28900
C 	C 	0.54404 0.23250 0.98161 0.28200
O 	O 	0.57689 0.28367 0.97909 -0.39500
O 	O 	0.67944 0.41137 0.01162 -0.39400
O 	O 	0.66075 0.24291 0.04939 -0.37000
C 	C 	0.71819 0.21702 0.97577 0.31000
O 	O 	0.67585 0.33422 0.89315 -0.39900
O 	O 	0.64919 0.24952 0.86633 -0.42900
H 	H 	0.72679 0.34432 0.01414 0.16400
H 	H 	0.59804 0.22725 0.92564 0.17200
Cu	Cu	0.72873 0.34999 0.44626 0.92700
Cu	Cu	0.73956 0.30655 0.52575 0.87100
Cu	Cu	0.65250 0.31966 0.50493 0.89700
Cu	Cu	0.62940 0.35456 0.43356 0.89400
C 	C 	0.67645 0.33663 0.36917 0.32400
O 	O 	0.76247 0.42988 0.44975 -0.36200
C 	C 	0.70039 0.33274 0.58672 0.32600
O 	O 	0.64632 0.30891 0.44955 -0.64000
O 	O 	0.73111 0.35617 0.50323 -0.64000
O 	O 	0.76544 0.31425 0.44056 -0.37300
O 	O 	0.71703 0.25587 0.47981 -0.44500
O 	O 	0.65895 0.36315 0.38454 -0.39500
O 	O 	0.57506 0.28078 0.50213 -0.38200
C 	C 	0.54369 0.28666 0.47845 0.30600
C 	C 	0.74348 0.45241 0.46848 0.30100
O 	O 	0.69523 0.42197 0.47726 -0.39200
O 	O 	0.56413 0.32566 0.45798 -0.39600
O 	O 	0.71170 0.33307 0.39041 -0.36900
C 	C 	0.74777 0.26938 0.45354 0.30900
O 	O 	0.65720 0.31739 0.56120 -0.39400
O 	O 	0.74330 0.34035 0.57532 -0.43200
H 	H 	0.62094 0.27065 0.43617 0.16200
H 	H 	0.75509 0.39355 0.51840 0.17300
C 	C 	0.63175 0.27845 0.75347 0.00400
C 	C 	0.65224 0.25919 0.72867 -0.04100
C 	C 	0.65877 0.27257 0.69181 -0.04000
C 	C 	0.64485 0.30544 0.67934 0.00500
C 	C 	0.62264 0.32327 0.70362 -0.04000
C 	C 	0.61616 0.30991 0.74060 -0.03900
C 	C 	0.65123 0.31913 0.64017 0.01000
C 	C 	0.69887 0.33595 0.62640 -0.17300
C 	C 	0.62530 0.26402 0.79241 0.01000
C 	C 	0.64589 0.30391 0.82576 -0.17300
H 	H 	0.66341 0.23406 0.73805 0.03300
H 	H 	0.67422 0.25700 0.67282 0.03500
H 	H 	0.61066 0.34765 0.69394 0.03900
H 	H 	0.59865 0.32357 0.75902 0.03800
H 	H 	0.61817 0.31508 0.62189 0.04100
H 	H 	0.73409 0.34690 0.64670 0.07900
H 	H 	0.61073 0.22322 0.79532 0.03200
H 	H 	0.65763 0.34380 0.82271 0.08400
C 	C 	0.67916 0.28941 0.26639 0.00700
C 	C 	0.72338 0.31057 0.24729 -0.03900
C 	C 	0.71579 0.30867 0.20710 -0.03900
C 	C 	0.66385 0.28524 0.18580 0.00600
C 	C 	0.61921 0.26075 0.20449 -0.04000
C 	C 	0.62670 0.26215 0.24452 -0.04000
C 	C 	0.65701 0.29290 0.14556 0.00900
C 	C 	0.66867 0.26995 0.11568 -0.16700
C 	C 	0.68838 0.30011 0.30936 0.00900
C 	C 	0.66587 0.32220 0.32868 -0.16500
H 	H 	0.76389 0.33075 0.26379 0.04100
H 	H 	0.75051 0.32748 0.19287 0.03900
H 	H 	0.57890 0.24202 0.18819 0.03900
H 	H 	0.59199 0.24385 0.25876 0.03800
H 	H 	0.63854 0.31294 0.13888 0.03400
H 	H 	0.68524 0.24825 0.12263 0.08600
H 	H 	0.71649 0.29519 0.32566 0.04400
H 	H 	0.64011 0.32941 0.31165 0.07900
C 	C 	0.92403 0.88718 0.47229 -0.00300
C 	C 	0.88972 0.84696 0.43930 -0.03600
C 	C 	0.86629 0.79269 0.44066 -0.04200
C 	C 	0.87698 0.77823 0.47504 0.00600
C 	C 	0.90969 0.81826 0.50843 -0.04200
C 	C 	0.93309 0.87249 0.50707 -0.03700
C 	C 	0.85585 0.72157 0.47562 0.00900
C 	C 	0.81964 0.69259 0.50017 -0.04400
C 	C 	0.79948 0.63884 0.50052 -0.03200
C 	C 	0.81544 0.61376 0.47639 -0.00900
C 	C 	0.85208 0.64284 0.45220 -0.03100
C 	C 	0.87227 0.69657 0.45182 -0.04400
C 	C 	0.79151 0.55722 0.47456 0.04400
C 	C 	0.77039 0.50958 0.47228 -0.11100
H 	H 	0.88247 0.85789 0.41233 0.03700
H 	H 	0.84063 0.76201 0.41484 0.03900
H 	H 	0.91801 0.80750 0.53515 0.03900
H 	H 	0.95937 0.90325 0.53273 0.03700
H 	H 	0.80678 0.71153 0.51868 0.04000
H 	H 	0.77099 0.61654 0.51917 0.03800
H 	H 	0.86448 0.62369 0.43339 0.03900
H 	H 	0.90057 0.71874 0.43303 0.04000
C 	C 	0.93003 0.04912 0.45610 -0.00300
C 	C 	0.94176 0.09065 0.48528 -0.03700
C 	C 	0.91796 0.11710 0.47972 -0.04200
C 	C 	0.88222 0.10233 0.44491 0.00600
C 	C 	0.86989 0.06029 0.41591 -0.04200
C 	C 	0.89370 0.03377 0.42150 -0.03700
C 	C 	0.85754 0.13075 0.43899 0.00900
C 	C 	0.80124 0.10265 0.43507 -0.04500
C 	C 	0.77844 0.13057 0.43334 -0.03100
C 	C 	0.81171 0.18672 0.43551 -0.01300
C 	C 	0.86770 0.21453 0.43792 -0.03100
C 	C 	0.89055 0.18666 0.43959 -0.04500
C 	C 	0.78932 0.21642 0.43982 0.04500
C 	C 	0.77046 0.24093 0.44504 -0.12400
H 	H 	0.96956 0.10262 0.51216 0.03700
H 	H 	0.92729 0.14910 0.50244 0.03800
H 	H 	0.84229 0.04851 0.38897 0.03900
H 	H 	0.88451 0.00188 0.39876 0.03700
H 	H 	0.77537 0.05950 0.43448 0.03900
H 	H 	0.73513 0.10877 0.43151 0.03600
H 	H 	0.89370 0.25792 0.43959 0.03600
H 	H 	0.93398 0.20865 0.44220 0.03900
C 	C 	0.10043 0.06343 0.47336 -0.00300
C 	C 	0.12440 0.08590 0.44184 -0.03600
C 	C 	0.18038 0.11462 0.44439 -0.04200
C 	C 	0.21284 0.12109 0.47847 0.00600
C 	C 	0.18895 0.09913 0.51014 -0.04200
C 	C 	0.13299 0.07046 0.50761 -0.03700
C 	C 	0.27174 0.15045 0.48085 0.00900
C 	C 	0.29524 0.12320 0.48450 -0.04400
C 	C 	0.35083 0.15069 0.48551 -0.03100
C 	C 	0.38323 0.20552 0.48292 -0.00900
C 	C 	0.35995 0.23294 0.47976 -0.03100
C 	C 	0.30440 0.20552 0.47873 -0.04400
C 	C 	0.43996 0.23324 0.48203 0.04400
C 	C 	0.48739 0.25716 0.48074 -0.10900
H 	H 	0.09959 0.08049 0.41523 0.03800
H 	H 	0.19846 0.13136 0.41978 0.03900
H 	H 	0.21373 0.10421 0.53664 0.03900
H 	H 	0.11487 0.05347 0.53215 0.03700
H 	H 	0.27035 0.08067 0.48610 0.04000
H 	H 	0.36855 0.12923 0.48792 0.03700
H 	H 	0.38477 0.27534 0.47775 0.03800
H 	H 	0.28669 0.22696 0.47611 0.04000
C 	C 	0.74396 0.49298 0.98911 -0.09100
C 	C 	0.79390 0.52226 0.97667 0.01500
C 	C 	0.82147 0.57745 0.97676 -0.06800
C 	C 	0.79942 0.60390 0.98930 0.02600
C 	C 	0.74991 0.57491 0.00218 -0.06600
C 	C 	0.72229 0.51972 0.00211 0.01700
C 	C 	0.82770 0.66170 0.98830 -0.00600
C 	C 	0.84754 0.69927 0.02298 -0.03200
C 	C 	0.87460 0.75416 0.02199 -0.04300
C 	C 	0.88195 0.77176 0.98635 0.01600
C 	C 	0.86190 0.73428 0.95168 -0.04500
C 	C 	0.83482 0.67940 0.95262 -0.03400
C 	C 	0.91134 0.82840 0.98543 -0.01300
C 	C 	0.93639 0.87584 0.98450 -0.03000
H 	H 	0.81139 0.50230 0.96701 0.03100
H 	H 	0.85990 0.59966 0.96703 0.04500
H 	H 	0.73255 0.59502 0.01182 0.04600
H 	H 	0.68365 0.49762 0.01154 0.03200
H 	H 	0.84227 0.68597 0.05066 0.03700
H 	H 	0.89010 0.78298 0.04891 0.04100
H 	H 	0.86749 0.74767 0.92403 0.04100
H 	H 	0.81937 0.65064 0.92569 0.03800
C 	C 	0.94622 0.04139 0.98691 -0.00800
C 	C 	0.92840 0.04702 0.02099 -0.03300
C 	C 	0.90080 0.07013 0.02232 -0.04000
C 	C 	0.89077 0.08768 0.98957 0.00400
C 	C 	0.90955 0.08305 0.95576 -0.04300
C 	C 	0.93719 0.06001 0.95445 -0.03500
C 	C 	0.85883 0.10895 0.99010 0.00700
C 	C 	0.80736 0.07989 0.96639 -0.04600
C 	C 	0.77800 0.10115 0.96552 -0.03000
C 	C 	0.79988 0.15154 0.98833 -0.01600
C 	C 	0.85084 0.18018 0.01260 -0.02700
C 	C 	0.88025 0.15892 0.01354 -0.04300
C 	C 	0.77134 0.17509 0.98509 0.04800
C 	C 	0.74718 0.19445 0.98139 -0.12400
H 	H 	0.93544 0.03297 0.04626 0.03800
H 	H 	0.88649 0.07362 0.04855 0.04000
H 	H 	0.90220 0.09677 0.93041 0.03800
H 	H 	0.95081 0.05581 0.92802 0.03700
H 	H 	0.79038 0.04111 0.94841 0.03900
H 	H 	0.73859 0.07879 0.94671 0.03400
H 	H 	0.86800 0.21920 0.03030 0.03700
H 	H 	0.91993 0.18157 0.03199 0.04000
C 	C 	0.48497 0.20454 0.97407 -0.09100
C 	C 	0.46219 0.22289 0.95005 0.01200
C 	C 	0.40729 0.20075 0.94674 -0.06800
C 	C 	0.37474 0.16009 0.96732 0.02800
C 	C 	0.39681 0.14005 0.98991 -0.07000
C 	C 	0.45164 0.16207 0.99324 0.01100
C 	C 	0.31847 0.14064 0.96706 -0.00700
C 	C 	0.30433 0.15372 0.00070 -0.03200
C 	C 	0.25023 0.13186 0.00157 -0.04400
C 	C 	0.20996 0.09684 0.96883 0.01600
C 	C 	0.22420 0.08504 0.93480 -0.04600
C 	C 	0.27836 0.10696 0.93388 -0.03400
C 	C 	0.15384 0.06956 0.97128 -0.01300
C 	C 	0.10689 0.04582 0.97386 -0.03000
H 	H 	0.48718 0.25491 0.93451 0.03000
H 	H 	0.39037 0.21607 0.92892 0.04500
H 	H 	0.37174 0.10823 0.00558 0.04900
H 	H 	0.46852 0.14732 0.01173 0.04000
H 	H 	0.33515 0.18004 0.02635 0.03700
H 	H 	0.23949 0.14120 0.02795 0.04100
H 	H 	0.19324 0.05799 0.90937 0.04100
H 	H 	0.28899 0.09684 0.90774 0.03700
