data_crystal

_cell_length_a 24.36278
_cell_length_b 25.57542
_cell_length_c 39.25061
_cell_angle_alpha 60.83174
_cell_angle_beta  118.88323
_cell_angle_gamma 133.25160

_symmetry_space_group_name_	'P 1'
_symmetry_space_group_name_H-M	'P 1'

loop_
_symmetry_equiv_pos_as_xyz
  x,y,z

loop_
_atom_site_label
_atom_site_type_symbol
_atom_site_fract_x
_atom_site_fract_y
_atom_site_fract_z
_atom_site_charge
C 	C 	0.73220 0.32335 0.00870 0.02300
C 	C 	0.65148 0.28189 0.00320 -0.06500
C 	C 	0.62254 0.29861 0.01684 0.02700
C 	C 	0.67215 0.36392 0.02928 -0.06800
C 	C 	0.75077 0.41181 0.02917 0.02800
C 	C 	0.78178 0.38998 0.02083 -0.06500
H 	H 	0.61162 0.23461 0.99033 0.04800
H 	H 	0.64994 0.37673 0.04003 0.05300
H 	H 	0.84378 0.42368 0.02461 0.05200
C 	C 	0.73524 0.30349 0.52757 0.02600
C 	C 	0.78191 0.37410 0.53445 -0.06600
C 	C 	0.75115 0.39353 0.54484 0.02800
C 	C 	0.67359 0.34398 0.54689 -0.06800
C 	C 	0.62698 0.27370 0.54058 0.02700
C 	C 	0.65789 0.25284 0.53151 -0.06800
H 	H 	0.84153 0.41351 0.53177 0.05500
H 	H 	0.64974 0.35980 0.55416 0.05500
H 	H 	0.62199 0.19763 0.52749 0.04900
C 	C 	0.27580 0.64796 0.19013 0.02600
C 	C 	0.35119 0.70360 0.18292 -0.06500
C 	C 	0.38839 0.68528 0.17702 0.02700
C 	C 	0.34804 0.61341 0.17468 -0.06700
C 	C 	0.27401 0.55766 0.18200 0.02700
C 	C 	0.23943 0.57393 0.19179 -0.06600
H 	H 	0.38027 0.76062 0.18134 0.05200
H 	H 	0.37514 0.60046 0.16781 0.05300
H 	H 	0.18432 0.52952 0.20014 0.04900
C 	C 	0.25189 0.61035 0.70286 0.02600
C 	C 	0.20939 0.53437 0.70538 -0.06600
C 	C 	0.24421 0.50854 0.70418 0.02700
C 	C 	0.32312 0.55712 0.70435 -0.06600
C 	C 	0.36395 0.63313 0.69852 0.02800
C 	C 	0.32894 0.65958 0.69869 -0.06600
H 	H 	0.14937 0.49619 0.70722 0.04800
H 	H 	0.35081 0.53669 0.70513 0.05400
H 	H 	0.36029 0.71856 0.69369 0.05400
Co	Co	0.07065 0.03257 0.05973 1.17200
Co	Co	0.95757 0.94070 0.15518 1.20200
C 	C 	0.22649 0.06864 0.07221 0.25500
Co	Co	0.09171 0.91801 0.06168 1.17000
Co	Co	0.93602 0.05523 0.15313 1.16700
C 	C 	0.93245 0.78389 0.06811 0.29200
O 	O 	0.85729 0.04778 0.09871 -0.40600
O 	O 	0.96808 0.02163 0.13117 -0.77100
C 	C 	0.87885 0.09481 0.06496 0.29400
O 	O 	0.06720 0.11465 0.05242 -0.46700
O 	O 	0.96259 0.85944 0.16281 -0.44200
C 	C 	0.80998 0.89431 0.16079 0.30900
C 	C 	0.08626 0.19425 0.13364 0.30400
C 	C 	0.11813 0.85101 0.14965 0.30300
O 	O 	0.93334 0.10868 0.05467 -0.37000
O 	O 	0.09936 0.99438 0.00626 -0.36400
O 	O 	0.85533 0.94781 0.17888 -0.37000
O 	O 	0.83970 0.87831 0.14998 -0.37000
O 	O 	0.01443 0.16624 0.12923 -0.41400
O 	O 	0.10117 0.16278 0.12409 -0.39600
O 	O 	0.08959 0.83865 0.11425 -0.41400
O 	O 	0.10248 0.88450 0.15685 -0.38800
O 	O 	0.05004 0.94739 0.07996 -0.75200
O 	O 	0.01879 0.05738 0.20579 -0.41800
O 	O 	0.20174 0.99904 0.08529 -0.35900
O 	O 	0.19086 0.08871 0.07480 -0.38600
O 	O 	0.97616 0.83901 0.04226 -0.35200
O 	O 	0.92686 0.79547 0.09569 -0.36200
Co	Co	0.06308 0.00816 0.56903 1.17400
Co	Co	0.92544 0.91868 0.65169 1.18700
Co	Co	0.99521 0.05861 0.59392 1.17300
C 	C 	0.21237 0.05386 0.56995 0.30600
Co	Co	0.08754 0.89374 0.57603 1.17800
Co	Co	0.86489 0.01595 0.62594 1.15200
C 	C 	0.93888 0.75067 0.59872 0.32600
O 	O 	0.83813 0.05408 0.56495 -0.40100
O 	O 	0.92259 0.99032 0.61824 -0.73000
C 	C 	0.89309 0.11306 0.54654 0.30200
O 	O 	0.07106 0.09521 0.56536 -0.47000
O 	O 	0.95715 0.85035 0.67287 -0.44400
C 	C 	0.75743 0.85245 0.64258 0.29700
C 	C 	0.03721 0.14449 0.64488 0.27800
C 	C 	0.13943 0.85992 0.66402 0.28700
O 	O 	0.94671 0.11288 0.54589 -0.37500
O 	O 	0.76733 0.91371 0.61667 -0.36800
O 	O 	0.80769 0.83858 0.65285 -0.36900
O 	O 	0.06017 0.11724 0.63743 -0.40400
O 	O 	0.16488 0.90202 0.63108 -0.37800
O 	O 	0.09877 0.86646 0.67335 -0.37400
O 	O 	0.04246 0.92336 0.59162 -0.74700
O 	O 	0.88192 0.97224 0.68775 -0.37500
O 	O 	0.16905 0.00184 0.55109 -0.41700
O 	O 	0.18101 0.05777 0.58737 -0.40200
O 	O 	0.92272 0.77498 0.61309 -0.37800
C 	C 	0.92013 0.96481 0.80298 0.03900
C 	C 	0.90334 0.94149 0.77130 0.12700
C 	C 	0.04131 0.01593 0.77637 0.08000
C 	C 	0.05656 0.02275 0.81437 0.00500
Br	Br	0.80007 0.85850 0.75485 -0.19700
Br	Br	0.15836 0.05882 0.84962 -0.18000
Br	Br	0.83964 0.95034 0.81265 -0.14300
Br	Br	0.12640 0.06806 0.75364 -0.21700
C 	C 	0.09075 0.01465 0.29811 0.10100
C 	C 	0.09102 0.01111 0.33544 0.04100
C 	C 	0.95064 0.94220 0.31508 0.07900
C 	C 	0.95066 0.93047 0.28367 0.13500
C 	C 	0.97773 0.90568 0.40805 0.07800
C 	C 	0.96077 0.90110 0.43927 0.13800
C 	C 	0.05273 0.03477 0.42924 0.09500
C 	C 	0.05247 0.03967 0.39151 0.04200
Br	Br	0.85566 0.91215 0.31823 -0.15500
Br	Br	0.18689 0.07332 0.28356 -0.20600
Br	Br	0.86960 0.81151 0.45821 -0.18800
Br	Br	0.09250 0.13341 0.35234 -0.18800
Br	Br	0.86286 0.84255 0.26512 -0.19400
Br	Br	0.18561 0.04538 0.37672 -0.19100
Br	Br	0.94875 0.81789 0.40290 -0.15600
Br	Br	0.12061 0.12352 0.44772 -0.20400
C 	C 	0.19685 0.43346 0.69785 0.01400
C 	C 	0.14632 0.36996 0.72264 -0.03900
C 	C 	0.10824 0.29915 0.71923 -0.02900
C 	C 	0.12213 0.29097 0.69186 0.00100
C 	C 	0.17401 0.35446 0.66750 0.03800
C 	C 	0.20856 0.42523 0.66942 -0.06700
C 	C 	0.19061 0.34644 0.64141 -0.06400
C 	C 	0.15246 0.27601 0.63774 0.01200
C 	C 	0.09588 0.21285 0.65932 -0.06400
C 	C 	0.08324 0.22021 0.68771 -0.00600
H 	H 	0.13747 0.37528 0.74499 0.05100
H 	H 	0.06857 0.25080 0.73813 0.05700
H 	H 	0.24588 0.47394 0.64946 0.05000
H 	H 	0.23178 0.39482 0.62327 0.05100
H 	H 	0.16290 0.27103 0.61594 0.03700
H 	H 	0.04046 0.17140 0.70496 0.04300
C 	C 	0.68255 0.79389 0.65470 -0.06400
C 	C 	0.67730 0.74101 0.69157 0.02100
C 	C 	0.61481 0.70041 0.70843 -0.05500
C 	C 	0.55702 0.71235 0.68848 0.04300
C 	C 	0.55970 0.76201 0.65029 0.00200
C 	C 	0.62071 0.80024 0.63298 -0.00900
C 	C 	0.50240 0.77436 0.63025 -0.02900
C 	C 	0.44165 0.73635 0.64751 -0.04000
C 	C 	0.43715 0.68532 0.68506 0.01700
C 	C 	0.49632 0.67497 0.70605 -0.06300
H 	H 	0.72357 0.73424 0.70825 0.05400
H 	H 	0.61262 0.66133 0.73744 0.06100
H 	H 	0.62231 0.83808 0.60351 0.05500
H 	H 	0.50436 0.81283 0.60102 0.04700
H 	H 	0.39611 0.74415 0.63086 0.04700
H 	H 	0.49348 0.63611 0.73522 0.05700
C 	C 	0.21343 0.63963 0.70067 0.01500
C 	C 	0.13692 0.61332 0.67793 -0.04400
C 	C 	0.10217 0.64324 0.67376 -0.03300
C 	C 	0.14421 0.70234 0.69061 -0.00200
C 	C 	0.22151 0.73068 0.71265 0.03900
C 	C 	0.25499 0.69738 0.71899 -0.06600
C 	C 	0.26567 0.79457 0.72600 -0.06300
C 	C 	0.23518 0.83329 0.71444 0.01700
C 	C 	0.15910 0.80671 0.69105 -0.07000
C 	C 	0.11185 0.73734 0.68287 -0.01800
H 	H 	0.10499 0.57120 0.66238 0.04000
H 	H 	0.04393 0.62318 0.65548 0.03400
H 	H 	0.31353 0.71752 0.73710 0.05500
H 	H 	0.32495 0.81673 0.74329 0.05700
H 	H 	0.27235 0.88623 0.72151 0.04500
H 	H 	0.05184 0.71401 0.66734 0.04000
C 	C 	0.23283 0.48230 0.17874 0.01300
C 	C 	0.20696 0.42111 0.21156 -0.04100
C 	C 	0.18121 0.35264 0.21138 -0.03100
C 	C 	0.18221 0.34491 0.17864 -0.00100
C 	C 	0.20859 0.40629 0.14571 0.03900
C 	C 	0.23121 0.47391 0.14530 -0.06900
C 	C 	0.21126 0.39897 0.11342 -0.06700
C 	C 	0.18153 0.32962 0.11224 0.01600
C 	C 	0.14794 0.26691 0.14300 -0.07600
C 	C 	0.15383 0.27580 0.17755 -0.00700
H 	H 	0.20895 0.42709 0.23770 0.04900
H 	H 	0.16116 0.30586 0.23686 0.05300
H 	H 	0.25016 0.52077 0.11965 0.05000
H 	H 	0.23367 0.44631 0.08853 0.05000
H 	H 	0.17856 0.32360 0.08580 0.03500
H 	H 	0.12973 0.22762 0.20187 0.04900
C 	C 	0.72756 0.84238 0.16115 -0.06600
C 	C 	0.69849 0.77064 0.18613 0.02600
C 	C 	0.63006 0.72952 0.19764 -0.05900
C 	C 	0.58791 0.75829 0.18258 0.04500
C 	C 	0.61267 0.82720 0.15418 0.00200
C 	C 	0.68309 0.86951 0.14395 -0.00600
C 	C 	0.56673 0.85285 0.13653 -0.02800
C 	C 	0.49519 0.80878 0.14587 -0.04000
C 	C 	0.47059 0.74022 0.17426 0.01800
C 	C 	0.51999 0.71792 0.19452 -0.06500
H 	H 	0.73156 0.74868 0.19874 0.05400
H 	H 	0.61013 0.67553 0.21847 0.06000
H 	H 	0.70481 0.92447 0.12398 0.04900
H 	H 	0.58509 0.90564 0.11463 0.04700
H 	H 	0.45774 0.82663 0.12993 0.04700
H 	H 	0.50251 0.66628 0.21748 0.05700
C 	C 	0.15181 0.81208 0.18257 -0.07600
C 	C 	0.23239 0.85318 0.19843 0.01600
C 	C 	0.27223 0.82333 0.21010 -0.06400
C 	C 	0.23195 0.75346 0.20433 0.04100
C 	C 	0.15036 0.70997 0.19178 -0.00500
C 	C 	0.11071 0.73690 0.18528 -0.00500
C 	C 	0.11033 0.64494 0.18096 -0.03000
C 	C 	0.15101 0.62628 0.17933 -0.04500
C 	C 	0.23245 0.66764 0.19297 0.01600
C 	C 	0.27234 0.72949 0.20747 -0.06700
H 	H 	0.26498 0.91046 0.19809 0.04500
H 	H 	0.33479 0.85684 0.22056 0.05700
H 	H 	0.04794 0.70347 0.17545 0.03600
H 	H 	0.04767 0.61135 0.17115 0.03300
H 	H 	0.11914 0.58096 0.16627 0.03900
H 	H 	0.33428 0.75976 0.22012 0.05400
C 	C 	0.89728 0.18113 0.52918 -0.08800
C 	C 	0.95410 0.23812 0.54943 0.03700
C 	C 	0.93695 0.27927 0.55083 -0.07500
C 	C 	0.86452 0.26673 0.52982 0.04500
C 	C 	0.81347 0.21953 0.50343 -0.00900
C 	C 	0.83066 0.17751 0.50283 -0.00000
C 	C 	0.74315 0.21043 0.48048 -0.02800
C 	C 	0.72060 0.24271 0.48623 -0.04400
C 	C 	0.76675 0.28231 0.51604 0.01700
C 	C 	0.84038 0.29681 0.53671 -0.07000
H 	H 	0.97854 0.31830 0.56958 0.05800
H 	H 	0.78838 0.13628 0.48536 0.04100
H 	H 	0.70488 0.17671 0.45895 0.04000
H 	H 	0.66586 0.23473 0.46848 0.04600
H 	H 	0.87701 0.32823 0.55930 0.05100
C 	C 	0.80118 0.46243 0.55759 0.01700
C 	C 	0.85145 0.46657 0.59586 -0.04300
C 	C 	0.87941 0.51801 0.61440 -0.02800
C 	C 	0.86011 0.56814 0.59417 -0.00500
C 	C 	0.81187 0.56617 0.55505 0.04600
C 	C 	0.78361 0.51406 0.53666 -0.06600
C 	C 	0.79180 0.61579 0.53514 -0.06000
C 	C 	0.82491 0.67098 0.55261 0.02400
C 	C 	0.87909 0.67767 0.58966 -0.08000
C 	C 	0.89063 0.62195 0.61194 0.00100
H 	H 	0.86448 0.42643 0.61239 0.04500
H 	H 	0.91449 0.51757 0.64486 0.04100
H 	H 	0.74448 0.51073 0.50713 0.06000
H 	H 	0.75261 0.61319 0.50568 0.06700
H 	H 	0.81240 0.71146 0.53616 0.05500
H 	H 	0.92763 0.62362 0.64193 0.04100
C 	C 	0.54452 0.22378 0.54149 0.01300
C 	C 	0.48721 0.20619 0.50594 -0.04000
C 	C 	0.41148 0.17563 0.50353 -0.03100
C 	C 	0.39206 0.16177 0.53680 0.00000
C 	C 	0.44858 0.17645 0.57319 0.03800
C 	C 	0.52441 0.20647 0.57555 -0.06800
C 	C 	0.42846 0.16113 0.60666 -0.06700
C 	C 	0.35168 0.12753 0.60459 0.01400
C 	C 	0.29469 0.10984 0.56895 -0.07700
C 	C 	0.31623 0.13126 0.53449 -0.00700
H 	H 	0.50224 0.21950 0.47956 0.04900
H 	H 	0.36816 0.16358 0.47563 0.05600
H 	H 	0.56856 0.21947 0.60316 0.05000
H 	H 	0.47164 0.17312 0.63460 0.04900
H 	H 	0.33576 0.11153 0.63130 0.03600
H 	H 	0.27254 0.11917 0.50664 0.06100
C 	C 	0.76479 0.29241 0.00644 0.02000
C 	C 	0.83742 0.33964 0.99704 -0.04900
C 	C 	0.87371 0.31044 0.00211 -0.02300
C 	C 	0.83526 0.23349 0.01349 -0.00600
C 	C 	0.75811 0.18593 0.01709 0.04000
C 	C 	0.72488 0.21506 0.01588 -0.07000
C 	C 	0.71668 0.10936 0.02415 -0.07100
C 	C 	0.75443 0.07976 0.03248 0.01300
C 	C 	0.83492 0.12587 0.03643 -0.07700
C 	C 	0.87405 0.20320 0.02366 -0.00800
H 	H 	0.86623 0.39886 0.98628 0.04800
H 	H 	0.93159 0.34768 0.99724 0.04200
H 	H 	0.66995 0.17754 0.02414 0.04600
H 	H 	0.65606 0.07249 0.02478 0.04300
H 	H 	0.72284 0.02016 0.04020 0.02800
H 	H 	0.93561 0.23932 0.02507 0.04700
C 	C 	0.79994 0.48467 0.03799 0.01600
C 	C 	0.86867 0.50603 0.06834 -0.04000
C 	C 	0.90742 0.56807 0.08165 -0.03000
C 	C 	0.87632 0.60776 0.06578 0.00300
C 	C 	0.80729 0.58645 0.03529 0.04100
C 	C 	0.77158 0.52730 0.02029 -0.06100
C 	C 	0.77425 0.62392 0.02064 -0.05400
C 	C 	0.81133 0.68425 0.03489 0.02200
C 	C 	0.88260 0.70880 0.06317 -0.06200
C 	C 	0.91379 0.66905 0.07956 -0.01300
H 	H 	0.89078 0.47334 0.08247 0.04400
H 	H 	0.96068 0.58427 0.10482 0.04300
H 	H 	0.71953 0.51200 0.99620 0.05300
H 	H 	0.72040 0.60700 0.99784 0.05700
H 	H 	0.78667 0.71431 0.02240 0.05500
H 	H 	0.96884 0.68794 0.10155 0.04600
C 	C 	0.54447 0.24227 0.02494 0.01400
C 	C 	0.52714 0.17479 0.05306 -0.04300
C 	C 	0.46379 0.12984 0.06977 -0.03400
C 	C 	0.41636 0.15139 0.05820 -0.00200
C 	C 	0.43043 0.21683 0.02810 0.03700
C 	C 	0.49409 0.26170 0.01123 -0.06300
C 	C 	0.38138 0.23707 0.01580 -0.05600
C 	C 	0.31739 0.19128 0.03241 0.01000
C 	C 	0.30260 0.12552 0.06190 -0.06400
C 	C 	0.35445 0.10773 0.07597 -0.01700
H 	H 	0.56544 0.15923 0.06368 0.03900
H 	H 	0.45247 0.07891 0.09230 0.03300
H 	H 	0.50676 0.31332 0.98904 0.05200
H 	H 	0.39178 0.28735 0.99284 0.05600
H 	H 	0.27768 0.20543 0.02117 0.05000
H 	H 	0.34452 0.05808 0.09956 0.03800
C 	C 	0.01549 0.99707 0.22796 0.36000
C 	C 	0.94415 0.97480 0.71185 0.32200
Co	Co	0.00841 0.88885 0.11947 1.17900
C 	C 	0.04613 0.00606 0.98454 0.30500
O 	O 	0.02340 0.02237 0.00025 -0.37300
Co	Co	0.00482 0.87157 0.63282 1.17500
O 	O 	0.97235 0.95176 0.60125 -0.54400
O 	O 	0.02750 0.00229 0.50879 -0.38300
C 	C 	0.01805 0.00816 0.94106 -0.15500
C 	C 	0.00938 0.00410 0.86751 -0.10300
C 	C 	0.97215 0.93826 0.89652 0.12800
C 	C 	0.96730 0.94106 0.92977 0.15100
Br	Br	0.93045 0.84478 0.89169 -0.16900
Br	Br	0.08703 0.16265 0.83323 -0.20200
C 	C 	0.01963 0.97498 0.27151 -0.11000
C 	C 	0.02072 0.97866 0.34296 0.02800
C 	C 	0.01911 0.97494 0.38199 0.02700
H 	H 	0.00836 0.24532 0.56746 0.02000
O 	O 	0.98904 0.97591 0.09818 -0.54600
O 	O 	0.01091 0.78231 0.60069 -0.41900
C 	C 	0.01653 0.95384 0.49698 0.35300
C 	C 	0.05844 0.07477 0.91311 0.11500
Br	Br	0.12712 0.16801 0.92710 -0.21000
Co	Co	0.01241 0.08163 0.09238 1.17400
O 	O 	0.01852 0.96216 0.21304 -0.36900
O 	O 	0.97884 0.96409 0.70063 -0.35400
C 	C 	0.99593 0.99991 0.82699 0.13500
Br	Br	0.88242 0.85723 0.95483 -0.18500
C 	C 	0.96360 0.97356 0.75475 -0.06700
O 	O 	0.00762 0.89205 0.52245 -0.38300
O 	O 	0.96459 0.12278 0.63124 -0.39600
C 	C 	0.04927 0.07274 0.87510 0.09100
C 	C 	0.00569 0.96437 0.45356 -0.10500
