data_crystal

_cell_length_a 26.18279
_cell_length_b 26.56621
_cell_length_c 36.58423
_cell_angle_alpha 95.48030
_cell_angle_beta  95.47889
_cell_angle_gamma 125.84822

_symmetry_space_group_name_	'P 1'
_symmetry_space_group_name_H-M	'P 1'

loop_
_symmetry_equiv_pos_as_xyz
  x,y,z

loop_
_atom_site_label
_atom_site_type_symbol
_atom_site_fract_x
_atom_site_fract_y
_atom_site_fract_z
_atom_site_charge
C 	C 	0.94225 0.99961 0.99695 0.09400
C 	C 	0.90630 0.93499 0.99831 -0.08000
C 	C 	0.93369 0.90316 0.99412 0.08700
C 	C 	0.03538 0.00181 0.99144 0.08300
C 	C 	0.00718 0.03323 0.99398 -0.08900
H 	H 	0.85658 0.90917 0.00146 0.08600
H 	H 	0.01938 0.91186 0.98758 0.08900
H 	H 	0.03549 0.08343 0.99359 0.08500
C 	C 	0.95529 0.02837 0.46539 0.06200
C 	C 	0.92093 0.96490 0.46954 -0.06400
C 	C 	0.95199 0.93623 0.47161 0.06600
C 	C 	0.01777 0.97178 0.47109 -0.05800
C 	C 	0.05142 0.03416 0.46511 0.06400
C 	C 	0.02007 0.06238 0.46235 -0.06800
H 	H 	0.87039 0.93796 0.47087 0.07900
H 	H 	0.04226 0.95031 0.47423 0.08000
H 	H 	0.04623 0.11100 0.45841 0.08000
Cu	Cu	0.61587 0.21354 0.00093 0.93300
Cu	Cu	0.67869 0.22529 0.92672 0.87600
Cu	Cu	0.64924 0.31119 0.95151 0.90100
Cu	Cu	0.61601 0.33082 0.02410 0.90200
C 	C 	0.63150 0.26201 0.07778 0.30700
O 	O 	0.52176 0.17708 0.99788 -0.33400
C 	C 	0.64353 0.27416 0.87155 0.30700
O 	O 	0.66763 0.31201 0.00379 -0.63800
O 	O 	0.61059 0.21975 0.94751 -0.63800
O 	O 	0.65823 0.17086 0.00066 -0.34300
O 	O 	0.73357 0.24447 0.97188 -0.43000
O 	O 	0.60061 0.28453 0.06642 -0.37100
O 	O 	0.69347 0.40144 0.95747 -0.37400
C 	C 	0.68679 0.43653 0.98167 0.32100
C 	C 	0.49829 0.20447 0.98298 0.30400
O 	O 	0.53767 0.26324 0.97847 -0.38500
O 	O 	0.65874 0.41600 0.01067 -0.37000
O 	O 	0.63476 0.22359 0.05424 -0.33700
C 	C 	0.71558 0.20058 0.99210 0.30900
O 	O 	0.63869 0.30905 0.89724 -0.36300
O 	O 	0.64373 0.22674 0.87898 -0.40300
H 	H 	0.71376 0.34031 0.01533 0.17700
H 	H 	0.56751 0.19094 0.93141 0.19600
Cu	Cu	0.75484 0.36595 0.45767 0.93100
Cu	Cu	0.77670 0.33032 0.53991 0.88900
Cu	Cu	0.65136 0.32034 0.50548 0.91600
Cu	Cu	0.63395 0.36516 0.43630 0.90500
C 	C 	0.70127 0.34869 0.38076 0.30500
O 	O 	0.79377 0.45938 0.46151 -0.33300
C 	C 	0.68090 0.31539 0.58029 0.30700
O 	O 	0.65491 0.31393 0.45366 -0.63800
O 	O 	0.74674 0.36975 0.51142 -0.62600
O 	O 	0.79303 0.31874 0.45368 -0.34100
O 	O 	0.84412 0.35214 0.51444 -0.40200
O 	O 	0.67497 0.37623 0.39142 -0.36400
O 	O 	0.55909 0.26897 0.49706 -0.36600
C 	C 	0.52507 0.27662 0.47236 0.30700
C 	C 	0.76470 0.48208 0.47487 0.30300
O 	O 	0.70613 0.44291 0.48076 -0.37700
O 	O 	0.55322 0.32760 0.45702 -0.35900
O 	O 	0.74503 0.35158 0.40418 -0.34100
C 	C 	0.83090 0.32034 0.48095 0.31300
O 	O 	0.65431 0.33363 0.55851 -0.36400
O 	O 	0.70445 0.28758 0.56570 -0.40400
H 	H 	0.62808 0.26985 0.43964 0.17900
H 	H 	0.76833 0.41350 0.52480 0.17500
C 	C 	0.65455 0.30768 0.68833 0.00300
C 	C 	0.60254 0.25198 0.69718 -0.02500
C 	C 	0.59663 0.24740 0.73454 -0.02600
C 	C 	0.64269 0.29850 0.76319 0.00500
C 	C 	0.69359 0.35489 0.75426 -0.02700
C 	C 	0.69951 0.35947 0.71690 -0.02600
C 	C 	0.66354 0.31059 0.65015 0.05800
C 	C 	0.67139 0.31282 0.61824 -0.09500
C 	C 	0.64143 0.29086 0.80161 0.05700
C 	C 	0.64162 0.28370 0.83365 -0.08800
H 	H 	0.56745 0.21184 0.67523 0.05700
H 	H 	0.55718 0.20362 0.74122 0.05700
H 	H 	0.72944 0.39457 0.77625 0.05600
H 	H 	0.73969 0.40279 0.71025 0.05300
C 	C 	0.68560 0.30117 0.26871 0.00700
C 	C 	0.73574 0.34216 0.25080 -0.02500
C 	C 	0.72763 0.33009 0.21182 -0.02600
C 	C 	0.66935 0.27697 0.19059 0.00700
C 	C 	0.62015 0.23464 0.20861 -0.02500
C 	C 	0.62826 0.24672 0.24759 -0.02600
C 	C 	0.69132 0.31726 0.30835 0.05700
C 	C 	0.69588 0.33134 0.34145 -0.08100
C 	C 	0.65726 0.27008 0.15054 0.05900
C 	C 	0.64612 0.26562 0.11717 -0.08000
H 	H 	0.78033 0.38419 0.26695 0.05800
H 	H 	0.76589 0.36304 0.19810 0.05500
H 	H 	0.57495 0.19347 0.19240 0.05900
H 	H 	0.58940 0.21465 0.26126 0.05600
C 	C 	0.91529 0.86810 0.47223 -0.01700
C 	C 	0.89641 0.82471 0.43924 0.11100
C 	C 	0.87287 0.76246 0.44110 -0.05900
C 	C 	0.86542 0.74215 0.47550 0.01000
C 	C 	0.88121 0.78468 0.50830 0.10300
C 	C 	0.90656 0.84753 0.50656 -0.05400
H 	H 	0.85964 0.72958 0.41571 0.08700
C 	C 	0.83934 0.67579 0.47672 0.03100
H 	H 	0.92065 0.88067 0.53199 0.07800
C 	C 	0.88075 0.66124 0.48950 -0.08200
C 	C 	0.85700 0.59834 0.48977 0.15100
C 	C 	0.79152 0.54909 0.47563 -0.09500
C 	C 	0.75035 0.56396 0.46281 -0.00700
C 	C 	0.77369 0.62682 0.46384 0.08200
H 	H 	0.93126 0.69892 0.49975 0.09200
H 	H 	0.69994 0.52649 0.45208 0.05800
Br	Br	0.86786 0.75766 0.55556 -0.19200
Br	Br	0.90146 0.84949 0.39133 -0.17100
Br	Br	0.91375 0.58152 0.51209 -0.21400
Br	Br	0.71476 0.64496 0.44836 -0.18800
C 	C 	0.92472 0.06057 0.46616 -0.01900
C 	C 	0.90479 0.07199 0.43285 0.10900
C 	C 	0.88729 0.11276 0.43444 -0.06100
C 	C 	0.88938 0.14223 0.46906 0.00800
C 	C 	0.90615 0.12827 0.50229 0.10400
C 	C 	0.92369 0.08757 0.50069 -0.05600
H 	H 	0.87305 0.12233 0.40878 0.08500
C 	C 	0.87434 0.18792 0.47033 0.03200
H 	H 	0.93867 0.07863 0.52638 0.07500
C 	C 	0.81099 0.16647 0.46997 -0.08500
C 	C 	0.79630 0.20938 0.47314 0.14900
C 	C 	0.84527 0.27452 0.47615 -0.10800
C 	C 	0.90853 0.29593 0.47605 -0.00200
C 	C 	0.92325 0.25295 0.47302 0.07900
H 	H 	0.77330 0.11650 0.46797 0.09000
H 	H 	0.94635 0.34597 0.47848 0.06900
Br	Br	0.90702 0.16570 0.55014 -0.20200
Br	Br	0.90185 0.03278 0.38502 -0.18800
Br	Br	0.70958 0.17840 0.47511 -0.27400
Br	Br	0.01041 0.28392 0.47304 -0.18100
C 	C 	0.12039 0.07098 0.46343 -0.01400
C 	C 	0.14222 0.04968 0.43660 0.10200
C 	C 	0.20804 0.08138 0.43823 -0.06100
C 	C 	0.25248 0.13678 0.46473 0.01000
C 	C 	0.23052 0.16145 0.48914 0.10700
C 	C 	0.16488 0.12735 0.48930 -0.05500
H 	H 	0.22470 0.06362 0.41842 0.08100
C 	C 	0.32179 0.16948 0.46598 0.03000
H 	H 	0.14837 0.14492 0.50936 0.07800
C 	C 	0.34913 0.19721 0.43578 -0.08400
C 	C 	0.41453 0.22788 0.43622 0.15000
C 	C 	0.45441 0.23589 0.46867 -0.09000
C 	C 	0.42639 0.20595 0.49829 -0.00900
C 	C 	0.36017 0.17103 0.49644 0.08700
H 	H 	0.31912 0.19334 0.41145 0.09000
H 	H 	0.45601 0.20970 0.52278 0.07800
Br	Br	0.28910 0.24283 0.52120 -0.18400
Br	Br	0.08332 0.98093 0.39573 -0.17200
Br	Br	0.44619 0.25089 0.39071 -0.23300
Br	Br	0.32272 0.12365 0.53499 -0.19100
C 	C 	0.89401 0.83425 0.99146 -0.02300
C 	C 	0.88991 0.80784 0.02360 0.11100
C 	C 	0.85375 0.74223 0.02033 -0.06200
C 	C 	0.82210 0.70270 0.98513 0.01200
C 	C 	0.82548 0.72909 0.95305 0.10300
C 	C 	0.86126 0.79466 0.95637 -0.05000
H 	H 	0.85095 0.72196 0.04507 0.08500
C 	C 	0.78684 0.63392 0.98203 0.03100
H 	H 	0.86420 0.81495 0.93161 0.08300
C 	C 	0.72087 0.59586 0.98222 -0.08200
C 	C 	0.68705 0.53074 0.98054 0.15100
C 	C 	0.71977 0.50349 0.97945 -0.09600
C 	C 	0.78545 0.54141 0.97825 -0.00600
C 	C 	0.81904 0.60636 0.97952 0.08300
H 	H 	0.69580 0.61687 0.98351 0.09200
H 	H 	0.81071 0.52058 0.97712 0.06500
Br	Br	0.78256 0.67633 0.90445 -0.18800
Br	Br	0.93396 0.86074 0.07209 -0.18600
Br	Br	0.59583 0.47948 0.97786 -0.20300
Br	Br	0.90895 0.65681 0.97792 -0.19400
C 	C 	0.91148 0.03174 0.99806 -0.03000
C 	C 	0.86020 0.01302 0.96956 0.10800
C 	C 	0.82819 0.04028 0.97263 -0.05900
C 	C 	0.84955 0.08937 0.00254 0.00900
C 	C 	0.90193 0.10937 0.03054 0.10200
C 	C 	0.93194 0.07984 0.02847 -0.04900
H 	H 	0.78837 0.02526 0.95084 0.08200
C 	C 	0.82017 0.12286 0.00256 0.02900
H 	H 	0.97144 0.09454 0.05040 0.08000
C 	C 	0.77853 0.11270 0.02729 -0.08300
C 	C 	0.74724 0.14110 0.02599 0.14900
C 	C 	0.75362 0.17602 0.99758 -0.10200
C 	C 	0.79675 0.18728 0.97356 -0.01300
C 	C 	0.83091 0.16222 0.97654 0.08000
H 	H 	0.77152 0.08378 0.04807 0.09200
H 	H 	0.80359 0.21540 0.95234 0.05200
Br	Br	0.93455 0.17831 0.07103 -0.19100
Br	Br	0.83627 0.95382 0.92492 -0.19900
Br	Br	0.70299 0.13772 0.06577 -0.19300
Br	Br	0.89313 0.18337 0.94520 -0.19900
C 	C 	0.10406 0.03711 0.98972 -0.02300
C 	C 	0.14836 0.04901 0.02075 0.11100
C 	C 	0.21183 0.07572 0.01736 -0.06200
C 	C 	0.23208 0.09210 0.98347 0.01200
C 	C 	0.18827 0.08184 0.95274 0.10200
C 	C 	0.12449 0.05424 0.95596 -0.05100
H 	H 	0.24567 0.08438 0.04122 0.08600
C 	C 	0.29975 0.12183 0.98084 0.03100
H 	H 	0.09057 0.04526 0.93204 0.08000
C 	C 	0.31721 0.08460 0.96564 -0.08200
C 	C 	0.38171 0.11145 0.96488 0.15100
C 	C 	0.42956 0.17589 0.98045 -0.09400
C 	C 	0.41170 0.21326 0.99486 -0.00600
C 	C 	0.34723 0.18667 0.99491 0.08300
H 	H 	0.28059 0.03483 0.95425 0.09100
H 	H 	0.44812 0.26293 0.00661 0.06100
Br	Br	0.21481 0.10564 0.90629 -0.18800
Br	Br	0.12325 0.03017 0.06815 -0.18900
Br	Br	0.40281 0.06035 0.94043 -0.21700
Br	Br	0.32485 0.23975 0.01423 -0.18500
C 	C 	0.99812 0.93653 0.99063 -0.08200
