data_crystal

_cell_length_a 27.71404
_cell_length_b 28.20789
_cell_length_c 26.44453
_cell_angle_alpha 95.56500
_cell_angle_beta  95.56749
_cell_angle_gamma 125.63416

_symmetry_space_group_name_	'P 1'
_symmetry_space_group_name_H-M	'P 1'

loop_
_symmetry_equiv_pos_as_xyz
  x,y,z

loop_
_atom_site_label
_atom_site_type_symbol
_atom_site_fract_x
_atom_site_fract_y
_atom_site_fract_z
_atom_site_charge
C 	C 	0.04966 0.02251 0.97002 0.05100
C 	C 	0.02423 0.05291 0.97739 -0.08200
H 	H 	0.05165 0.10063 0.97955 0.05900
C 	C 	0.00794 0.03979 0.44425 -0.08200
C 	C 	0.03865 0.01444 0.44927 0.05200
H 	H 	0.03264 0.08641 0.44185 0.05900
Cu	Cu	0.64023 0.24504 0.00296 0.93200
Cu	Cu	0.69254 0.25314 0.89590 0.87400
Cu	Cu	0.67120 0.33838 0.93709 0.90100
Cu	Cu	0.64656 0.35822 0.04084 0.90200
C 	C 	0.66039 0.28932 0.11091 0.33200
O 	O 	0.55319 0.21449 0.00232 -0.34700
C 	C 	0.66103 0.30641 0.82547 0.32500
O 	O 	0.69141 0.33780 0.00849 -0.63900
O 	O 	0.63269 0.25184 0.92952 -0.64000
O 	O 	0.67469 0.19986 0.99824 -0.35900
O 	O 	0.74540 0.26426 0.95481 -0.43100
O 	O 	0.63283 0.31307 0.09807 -0.37000
O 	O 	0.71463 0.42353 0.94648 -0.36700
C 	C 	0.70959 0.45667 0.98109 0.31500
C 	C 	0.53177 0.24149 0.98309 0.30300
O 	O 	0.56883 0.29757 0.97932 -0.39000
O 	O 	0.68901 0.43922 0.02381 -0.38200
O 	O 	0.66100 0.25295 0.07611 -0.34100
C 	C 	0.72646 0.22300 0.98295 0.31300
O 	O 	0.65463 0.33604 0.86279 -0.35700
O 	O 	0.65965 0.25992 0.83225 -0.40000
H 	H 	0.73530 0.36289 0.02294 0.18400
H 	H 	0.59122 0.22621 0.90860 0.18700
Cu	Cu	0.74151 0.34424 0.43773 0.93200
Cu	Cu	0.73497 0.29545 0.54624 0.87400
Cu	Cu	0.64739 0.31537 0.50466 0.90100
Cu	Cu	0.62797 0.34098 0.40120 0.90100
C 	C 	0.69497 0.32346 0.32975 0.33100
O 	O 	0.77548 0.43057 0.43749 -0.34500
C 	C 	0.68172 0.32755 0.61644 0.32500
O 	O 	0.64728 0.29569 0.43310 -0.63900
O 	O 	0.73553 0.35319 0.51141 -0.63900
O 	O 	0.78516 0.30776 0.44211 -0.35900
O 	O 	0.72030 0.24103 0.48783 -0.43200
O 	O 	0.67130 0.35113 0.34248 -0.37000
O 	O 	0.56063 0.27249 0.49567 -0.36500
C 	C 	0.52562 0.27047 0.45656 0.31300
C 	C 	0.74872 0.45299 0.45548 0.30200
O 	O 	0.69252 0.41745 0.46155 -0.38800
O 	O 	0.54802 0.30521 0.42217 -0.38200
O 	O 	0.73198 0.32270 0.36450 -0.34100
C 	C 	0.76079 0.25729 0.45838 0.31100
O 	O 	0.65047 0.33255 0.57905 -0.35600
O 	O 	0.72946 0.32981 0.60942 -0.40000
H 	H 	0.62107 0.25262 0.41836 0.18100
H 	H 	0.76177 0.39426 0.53168 0.18700
C 	C 	0.70874 0.37137 0.76114 0.09700
C 	C 	0.65892 0.31885 0.77282 -0.10900
C 	C 	0.61055 0.27517 0.73279 0.10500
C 	C 	0.61607 0.27977 0.68084 0.09700
C 	C 	0.66911 0.32923 0.66914 -0.10900
C 	C 	0.71327 0.37694 0.70918 0.10500
Br	Br	0.77917 0.45004 0.69268 -0.20100
Br	Br	0.77197 0.43435 0.81617 -0.21200
Br	Br	0.55248 0.21707 0.62584 -0.21200
Br	Br	0.53659 0.20978 0.74931 -0.20100
C 	C 	0.73060 0.34102 0.19595 0.09900
C 	C 	0.67589 0.29077 0.16606 -0.10700
C 	C 	0.63264 0.24608 0.19035 0.10700
C 	C 	0.64159 0.25454 0.24471 0.09900
C 	C 	0.69324 0.30792 0.27460 -0.10700
C 	C 	0.73916 0.34989 0.25030 0.10600
Br	Br	0.81242 0.42070 0.29148 -0.18300
Br	Br	0.79297 0.39830 0.16222 -0.22100
Br	Br	0.58253 0.19388 0.27844 -0.22200
Br	Br	0.56008 0.17460 0.14916 -0.18300
C 	C 	0.80025 0.64132 0.41508 -0.02400
C 	C 	0.81887 0.62698 0.45849 -0.00400
C 	C 	0.79643 0.56633 0.45878 0.05400
C 	C 	0.77596 0.51497 0.45796 -0.09500
H 	H 	0.76953 0.60707 0.38152 0.04600
C 	C 	0.78708 0.09941 0.44932 -0.02600
C 	C 	0.81949 0.15509 0.43461 -0.00700
C 	C 	0.87368 0.17654 0.41718 -0.02500
C 	C 	0.79936 0.19192 0.44107 0.05400
C 	C 	0.78216 0.22227 0.44800 -0.10600
H 	H 	0.74513 0.08251 0.46283 0.04300
H 	H 	0.89899 0.21950 0.40574 0.04700
C 	C 	0.22067 0.11327 0.45427 0.02300
C 	C 	0.25650 0.10704 0.49003 -0.04200
C 	C 	0.31856 0.13899 0.49079 -0.02400
C 	C 	0.34499 0.17726 0.45577 -0.00300
C 	C 	0.30922 0.18372 0.42019 -0.02500
C 	C 	0.24716 0.15177 0.41944 -0.04300
C 	C 	0.15657 0.07911 0.45255 -0.00700
C 	C 	0.10284 0.04999 0.45105 -0.02500
C 	C 	0.40875 0.20982 0.45627 0.05600
C 	C 	0.46213 0.23731 0.45650 -0.09100
H 	H 	0.23628 0.07729 0.51704 0.05000
H 	H 	0.34599 0.13387 0.51845 0.05400
H 	H 	0.32940 0.21331 0.39305 0.04500
H 	H 	0.21970 0.15674 0.39165 0.04800
C 	C 	0.79021 0.62981 0.97029 -0.00200
C 	C 	0.76101 0.56847 0.97359 0.05600
C 	C 	0.73719 0.51729 0.97680 -0.09100
H 	H 	0.83476 0.62772 0.90833 0.05500
C 	C 	0.88136 0.18881 0.99601 -0.02400
C 	C 	0.82101 0.15489 0.00256 -0.01000
C 	C 	0.79231 0.09615 0.00952 -0.02500
C 	C 	0.78714 0.17863 0.99756 0.05600
C 	C 	0.75908 0.19867 0.99182 -0.10800
H 	H 	0.90385 0.23426 0.99060 0.04400
H 	H 	0.74567 0.06965 0.01460 0.04600
C 	C 	0.22770 0.10878 0.96094 0.02400
C 	C 	0.24661 0.07530 0.94151 -0.04300
C 	C 	0.30811 0.10239 0.94279 -0.02300
C 	C 	0.35094 0.16309 0.96348 -0.00400
C 	C 	0.33189 0.19687 0.98173 -0.02400
C 	C 	0.27039 0.16977 0.98048 -0.04300
C 	C 	0.16501 0.07982 0.96368 -0.00700
C 	C 	0.11248 0.05448 0.96641 -0.02400
C 	C 	0.41451 0.18994 0.96894 0.05400
C 	C 	0.46793 0.21298 0.97468 -0.09500
H 	H 	0.21383 0.02812 0.92629 0.04900
H 	H 	0.32249 0.07601 0.92858 0.04800
H 	H 	0.36476 0.24385 0.99774 0.04400
H 	H 	0.25610 0.19594 0.99552 0.04800
C 	C 	0.96333 0.02155 0.98209 0.05100
H 	H 	0.87248 0.66068 0.53572 0.04700
C 	C 	0.86463 0.08824 0.43184 0.02300
C 	C 	0.80963 0.06607 0.44797 -0.04400
C 	C 	0.89619 0.14316 0.41577 -0.04400
C 	C 	0.89080 0.05670 0.43505 -0.00900
C 	C 	0.91445 0.03199 0.43825 -0.02500
H 	H 	0.78494 0.02364 0.46041 0.04700
H 	H 	0.93872 0.16057 0.40320 0.04700
C 	C 	0.88298 0.10425 0.00031 0.02100
C 	C 	0.91228 0.16353 0.99487 -0.04300
C 	C 	0.82324 0.07089 0.00843 -0.04400
C 	C 	0.91283 0.07656 0.99451 -0.00700
C 	C 	0.93664 0.05224 0.98906 -0.02600
H 	H 	0.95851 0.18964 0.98872 0.04700
H 	H 	0.80037 0.02507 0.01282 0.04700
C 	C 	0.82859 0.65488 0.93470 -0.02400
H 	H 	0.75282 0.64612 0.03182 0.04500
C 	C 	0.85820 0.67148 0.50189 -0.02500
C 	C 	0.78246 0.66524 0.00422 -0.02600
C 	C 	0.94537 0.00509 0.44249 0.05000
C 	C 	0.82157 0.70004 0.41475 -0.04300
C 	C 	0.01420 0.96091 0.96728 -0.08100
H 	H 	0.03393 0.93743 0.96178 0.06000
C 	C 	0.00692 0.95438 0.45248 -0.08100
H 	H 	0.03081 0.93480 0.45630 0.06100
H 	H 	0.80770 0.71090 0.38073 0.04800
C 	C 	0.92804 0.95995 0.97943 -0.08200
C 	C 	0.95347 0.92967 0.97206 0.05300
H 	H 	0.88096 0.93569 0.98314 0.05900
C 	C 	0.94439 0.91944 0.45064 0.05200
C 	C 	0.91345 0.94476 0.44566 -0.08200
H 	H 	0.86503 0.91780 0.44430 0.05900
C 	C 	0.86153 0.74470 0.45785 0.02300
C 	C 	0.87955 0.73024 0.50155 -0.04300
C 	C 	0.88814 0.80594 0.45554 -0.00700
C 	C 	0.91234 0.85749 0.45336 -0.02400
H 	H 	0.91070 0.76459 0.53492 0.04900
C 	C 	0.85298 0.75103 0.96822 0.02400
C 	C 	0.81378 0.72574 0.00319 -0.04400
C 	C 	0.85992 0.71539 0.93367 -0.04100
C 	C 	0.88786 0.81388 0.96920 -0.00700
C 	C 	0.91754 0.86662 0.97035 -0.02400
H 	H 	0.80816 0.75305 0.02997 0.04700
H 	H 	0.89012 0.73465 0.90649 0.05000
