data_crystal

_cell_length_a 26.14589
_cell_length_b 26.31598
_cell_length_c 34.91559
_cell_angle_alpha 95.53604
_cell_angle_beta  95.53632
_cell_angle_gamma 125.68045

_symmetry_space_group_name_	'P 1'
_symmetry_space_group_name_H-M	'P 1'

loop_
_symmetry_equiv_pos_as_xyz
  x,y,z

loop_
_atom_site_label
_atom_site_type_symbol
_atom_site_fract_x
_atom_site_fract_y
_atom_site_fract_z
_atom_site_charge
C 	C 	0.95947 0.04933 0.99527 0.12700
N 	N 	0.02353 0.08229 0.99598 -0.13400
C 	C 	0.04992 0.05073 0.99250 0.12600
N 	N 	0.01227 0.98634 0.98818 -0.13600
C 	C 	0.94837 0.95325 0.98726 0.12500
N 	N 	0.92201 0.98477 0.99078 -0.13600
C 	C 	0.93376 0.96800 0.44713 0.12200
N 	N 	0.99893 0.00684 0.45352 -0.12900
C 	C 	0.03208 0.98217 0.45754 0.11700
N 	N 	0.99997 0.91855 0.45545 -0.13300
C 	C 	0.93494 0.87930 0.44908 0.12300
N 	N 	0.90171 0.90404 0.44490 -0.13400
Cu	Cu	0.63024 0.25966 0.00087 0.93600
Cu	Cu	0.67898 0.26272 0.91755 0.89000
Cu	Cu	0.66731 0.36219 0.95172 0.90600
Cu	Cu	0.63458 0.37910 0.02969 0.90500
C 	C 	0.65223 0.30631 0.08342 0.30500
O 	O 	0.53726 0.22278 0.00093 -0.34600
C 	C 	0.64558 0.32032 0.86568 0.30700
O 	O 	0.68356 0.35900 0.00576 -0.63800
O 	O 	0.62145 0.26817 0.94539 -0.63600
O 	O 	0.66927 0.21370 0.99694 -0.33500
O 	O 	0.74003 0.28018 0.96098 -0.41300
O 	O 	0.62525 0.33446 0.07463 -0.36100
O 	O 	0.71696 0.45387 0.96146 -0.36300
C 	C 	0.71212 0.48867 0.98866 0.29400
C 	C 	0.51279 0.25156 0.98902 0.28600
O 	O 	0.55115 0.31090 0.98446 -0.37500
O 	O 	0.67118 0.46257 0.01278 -0.37500
O 	O 	0.65171 0.26730 0.05622 -0.29800
C 	C 	0.72388 0.23948 0.98469 0.30100
O 	O 	0.66561 0.36684 0.89547 -0.35400
O 	O 	0.63906 0.26807 0.87105 -0.33900
H 	H 	0.72955 0.38542 0.01802 0.20600
H 	H 	0.57689 0.24301 0.93061 0.20900
Cu	Cu	0.72948 0.30355 0.44820 0.93400
Cu	Cu	0.73652 0.26531 0.53444 0.88300
Cu	Cu	0.63251 0.27315 0.50150 0.91100
Cu	Cu	0.60847 0.29960 0.42174 0.91200
C 	C 	0.68869 0.29403 0.36670 0.31100
O 	O 	0.76929 0.39634 0.44601 -0.31300
C 	C 	0.68395 0.30451 0.58673 0.30700
O 	O 	0.63048 0.25326 0.44695 -0.63700
O 	O 	0.72669 0.31787 0.50444 -0.63700
O 	O 	0.77324 0.26146 0.45076 -0.34800
O 	O 	0.71284 0.19980 0.49252 -0.42400
O 	O 	0.63845 0.29293 0.37192 -0.32400
O 	O 	0.54042 0.22515 0.49467 -0.35000
C 	C 	0.50487 0.23111 0.46869 0.29300
C 	C 	0.74161 0.42268 0.45663 0.29200
O 	O 	0.68266 0.38682 0.46270 -0.35500
O 	O 	0.53064 0.27194 0.44464 -0.36300
O 	O 	0.71536 0.27865 0.39264 -0.33300
C 	C 	0.75058 0.21107 0.46719 0.28300
O 	O 	0.63315 0.27724 0.55844 -0.32800
O 	O 	0.73599 0.31079 0.58015 -0.37800
H 	H 	0.60307 0.20704 0.43594 0.17900
H 	H 	0.75273 0.36318 0.51744 0.20100
C 	C 	0.59221 0.28776 0.75640 0.03700
C 	C 	0.64963 0.33605 0.74606 0.08900
C 	C 	0.69940 0.38806 0.77529 -0.10500
C 	C 	0.69530 0.38452 0.81496 0.07700
C 	C 	0.64114 0.33175 0.82537 0.00100
C 	C 	0.58671 0.28623 0.79600 -0.06600
C 	C 	0.65952 0.32852 0.70536 0.09500
C 	C 	0.75753 0.44609 0.76430 0.78800
H 	H 	0.73560 0.42087 0.83775 0.08200
C 	C 	0.52393 0.23412 0.80657 0.77800
H 	H 	0.55306 0.24966 0.73367 0.10700
C 	C 	0.68207 0.29289 0.69370 -0.11200
C 	C 	0.69002 0.28618 0.65473 0.07700
C 	C 	0.67751 0.31547 0.62770 -0.00600
C 	C 	0.65714 0.35294 0.63975 -0.06300
C 	C 	0.64493 0.35600 0.67798 0.03200
C 	C 	0.69348 0.25840 0.72194 0.78900
H 	H 	0.70473 0.25695 0.64502 0.07100
C 	C 	0.64662 0.38821 0.61183 0.77600
H 	H 	0.62498 0.38066 0.68675 0.11500
F 	F 	0.52570 0.18411 0.81303 -0.42200
F 	F 	0.47286 0.21158 0.77659 -0.42600
F 	F 	0.51325 0.25684 0.83994 -0.44700
F 	F 	0.73799 0.47129 0.73885 -0.42400
F 	F 	0.79174 0.42913 0.74635 -0.40500
F 	F 	0.79814 0.49333 0.79682 -0.42800
F 	F 	0.58917 0.34565 0.58586 -0.44100
F 	F 	0.69606 0.41790 0.59113 -0.44500
F 	F 	0.64443 0.43476 0.63186 -0.41700
F 	F 	0.72158 0.23208 0.70626 -0.43200
F 	F 	0.63565 0.20977 0.73035 -0.43200
F 	F 	0.73383 0.30008 0.75635 -0.41500
C 	C 	0.73192 0.30707 0.18087 0.03100
C 	C 	0.68737 0.29678 0.20444 0.09500
C 	C 	0.63229 0.29178 0.18861 -0.11100
C 	C 	0.62103 0.29308 0.14866 0.07400
C 	C 	0.66568 0.30369 0.12504 -0.00200
C 	C 	0.72298 0.31305 0.14159 -0.07100
C 	C 	0.70156 0.29665 0.24658 0.08900
C 	C 	0.58789 0.28946 0.21476 0.78900
H 	H 	0.57766 0.28644 0.13581 0.08400
C 	C 	0.77393 0.32788 0.11744 0.77700
H 	H 	0.77410 0.31132 0.19343 0.11400
C 	C 	0.67643 0.23899 0.26035 -0.10500
C 	C 	0.67529 0.23898 0.30060 0.08100
C 	C 	0.70388 0.29624 0.32708 0.00400
C 	C 	0.73947 0.35477 0.31389 -0.06900
C 	C 	0.73639 0.35438 0.27344 0.03700
C 	C 	0.65028 0.17778 0.23227 0.78900
H 	H 	0.65012 0.19443 0.31117 0.08200
C 	C 	0.77954 0.41733 0.34285 0.77500
H 	H 	0.75844 0.39866 0.26267 0.10500
F 	F 	0.75384 0.27301 0.09232 -0.43200
F 	F 	0.83157 0.35095 0.14110 -0.43000
F 	F 	0.78522 0.37376 0.09586 -0.46000
F 	F 	0.62091 0.34583 0.24172 -0.43400
F 	F 	0.56510 0.23929 0.23449 -0.41100
F 	F 	0.53546 0.28152 0.19342 -0.43200
F 	F 	0.81966 0.46811 0.32515 -0.44000
F 	F 	0.81733 0.41495 0.37210 -0.45600
F 	F 	0.73971 0.42792 0.35923 -0.45100
F 	F 	0.63583 0.12909 0.25203 -0.42900
F 	F 	0.69540 0.18755 0.21019 -0.43200
F 	F 	0.59508 0.15853 0.20746 -0.40500
C 	C 	0.90093 0.80989 0.44603 -0.00000
C 	C 	0.84439 0.77326 0.46091 -0.02100
C 	C 	0.81704 0.70947 0.46265 -0.02800
C 	C 	0.84789 0.68224 0.45123 0.00700
C 	C 	0.90149 0.71760 0.43287 0.03200
C 	C 	0.92788 0.78118 0.43069 -0.04300
C 	C 	0.92786 0.68901 0.41652 -0.03100
C 	C 	0.90189 0.62580 0.41824 -0.02400
C 	C 	0.85098 0.59080 0.43797 0.03800
C 	C 	0.82510 0.61945 0.45610 0.01400
C 	C 	0.77979 0.58600 0.48009 -0.03100
C 	C 	0.75427 0.52253 0.48127 0.00600
C 	C 	0.77558 0.49225 0.46018 -0.03200
C 	C 	0.82615 0.52752 0.44022 -0.00500
H 	H 	0.82177 0.79425 0.47144 0.05500
H 	H 	0.77092 0.68117 0.47132 0.05500
H 	H 	0.96983 0.80857 0.41742 0.06000
H 	H 	0.96826 0.71567 0.40194 0.06000
H 	H 	0.92210 0.60420 0.40462 0.08200
H 	H 	0.76620 0.60935 0.49912 0.06200
H 	H 	0.71810 0.49700 0.49887 0.07700
H 	H 	0.84565 0.50565 0.42602 0.11300
C 	C 	0.89814 0.99553 0.44288 -0.00400
C 	C 	0.83949 0.96759 0.45561 -0.02100
C 	C 	0.80935 0.99741 0.45549 -0.03400
C 	C 	0.83946 0.05777 0.44463 0.00500
C 	C 	0.89490 0.08232 0.42787 0.02900
C 	C 	0.92434 0.05156 0.42756 -0.04000
C 	C 	0.92021 0.13712 0.41144 -0.03700
C 	C 	0.89239 0.16899 0.41255 -0.02900
C 	C 	0.84096 0.14884 0.43205 0.01800
C 	C 	0.81491 0.09384 0.44923 0.01400
C 	C 	0.76892 0.07930 0.47297 -0.04400
C 	C 	0.74615 0.11573 0.47709 0.00600
C 	C 	0.77075 0.16928 0.45930 -0.06400
C 	C 	0.81753 0.18513 0.43632 -0.01300
H 	H 	0.81723 0.92282 0.46578 0.05400
H 	H 	0.76173 0.97210 0.46217 0.05100
H 	H 	0.96784 0.07145 0.41570 0.05700
H 	H 	0.96156 0.15504 0.39759 0.05600
H 	H 	0.91238 0.21090 0.39932 0.06000
H 	H 	0.75337 0.04247 0.49019 0.05400
H 	H 	0.71069 0.10337 0.49533 0.04600
H 	H 	0.83726 0.22678 0.42283 0.06700
C 	C 	0.10267 0.02387 0.46259 0.00200
C 	C 	0.13360 0.07539 0.44302 -0.02400
C 	C 	0.19978 0.11139 0.44470 -0.02800
C 	C 	0.23675 0.09781 0.46740 0.00100
C 	C 	0.20491 0.04393 0.48565 0.03100
C 	C 	0.13859 0.00881 0.48429 -0.04200
C 	C 	0.23900 0.02375 0.50335 -0.03300
C 	C 	0.30375 0.05506 0.50202 -0.02900
C 	C 	0.33670 0.10971 0.48531 0.01900
C 	C 	0.30437 0.13387 0.47003 0.01700
C 	C 	0.34072 0.19443 0.45943 -0.04200
C 	C 	0.40583 0.22574 0.45890 0.01500
C 	C 	0.43651 0.19876 0.47055 -0.05000
C 	C 	0.40212 0.14138 0.48449 -0.00900
H 	H 	0.10596 0.08595 0.42503 0.05300
H 	H 	0.22100 0.14676 0.42634 0.05000
H 	H 	0.11466 0.96865 0.49921 0.05800
H 	H 	0.21471 0.98231 0.51711 0.05400
H 	H 	0.32864 0.03726 0.51458 0.05800
H 	H 	0.31994 0.21899 0.45365 0.05800
H 	H 	0.43279 0.27184 0.45027 0.06100
H 	H 	0.42614 0.12133 0.49461 0.05800
C 	C 	0.90810 0.88342 0.98310 -0.00100
C 	C 	0.92123 0.84793 0.95919 -0.02100
C 	C 	0.88777 0.78266 0.95819 -0.02800
C 	C 	0.84228 0.75229 0.98253 0.00100
C 	C 	0.82416 0.78669 0.00325 0.03100
C 	C 	0.85818 0.85239 0.00415 -0.04600
C 	C 	0.77174 0.75494 0.02229 -0.04000
C 	C 	0.73739 0.68956 0.02115 -0.02900
C 	C 	0.75741 0.65560 0.00316 0.01400
C 	C 	0.81212 0.68745 0.98538 0.01900
C 	C 	0.83761 0.65508 0.97330 -0.04300
C 	C 	0.80491 0.59048 0.97447 0.01500
C 	C 	0.74764 0.55755 0.98898 -0.05800
C 	C 	0.72451 0.59048 0.00386 -0.01100
H 	H 	0.95712 0.87090 0.94105 0.05800
H 	H 	0.89535 0.75572 0.93724 0.05800
H 	H 	0.84654 0.87943 0.02165 0.05600
H 	H 	0.75685 0.78078 0.03750 0.05400
H 	H 	0.69602 0.66555 0.03520 0.05200
H 	H 	0.88413 0.68021 0.96497 0.06000
H 	H 	0.82490 0.56628 0.96478 0.05800
H 	H 	0.68109 0.56556 0.01599 0.05600
C 	C 	0.93044 0.08330 0.99899 0.00100
C 	C 	0.95413 0.13805 0.98274 -0.02200
C 	C 	0.92384 0.16762 0.98354 -0.02600
C 	C 	0.87007 0.14384 0.00183 0.00100
C 	C 	0.84469 0.08698 0.01676 0.03400
C 	C 	0.87631 0.05849 0.01650 -0.04400
C 	C 	0.78613 0.05726 0.02979 -0.03600
C 	C 	0.75095 0.08148 0.02637 -0.02400
C 	C 	0.77564 0.13817 0.01228 0.02400
C 	C 	0.83753 0.17228 0.00264 0.01900
C 	C 	0.86577 0.23431 0.99513 -0.03800
C 	C 	0.82922 0.25702 0.99067 0.01700
C 	C 	0.76491 0.21946 0.99517 -0.04400
C 	C 	0.73918 0.16134 0.00774 -0.00000
H 	H 	0.99462 0.15638 0.96805 0.05600
H 	H 	0.93992 0.20621 0.96774 0.05200
H 	H 	0.85777 0.01599 0.02897 0.05900
H 	H 	0.76657 0.01378 0.04123 0.05800
H 	H 	0.70445 0.05621 0.03493 0.06500
H 	H 	0.91632 0.26604 0.99439 0.06100
H 	H 	0.85102 0.30399 0.98375 0.06100
H 	H 	0.69051 0.13353 0.01312 0.07400
C 	C 	0.44358 0.22081 0.98678 -0.05500
C 	C 	0.41566 0.24737 0.96966 0.01100
C 	C 	0.35228 0.22311 0.97152 -0.04100
C 	C 	0.31431 0.16929 0.98886 0.01800
C 	C 	0.34343 0.14418 0.00746 0.01900
C 	C 	0.40699 0.16871 0.00520 -0.01200
C 	C 	0.30985 0.09686 0.02965 -0.02700
C 	C 	0.24809 0.07462 0.03404 -0.03600
C 	C 	0.21702 0.09620 0.01430 0.03300
C 	C 	0.24878 0.14185 0.99013 0.00300
C 	C 	0.21329 0.15594 0.96629 -0.02800
C 	C 	0.14960 0.12927 0.96905 -0.02200
C 	C 	0.11927 0.08596 0.99405 0.00000
C 	C 	0.15330 0.07023 0.01699 -0.04500
H 	H 	0.44376 0.28835 0.95598 0.05900
H 	H 	0.33468 0.24883 0.96168 0.05700
H 	H 	0.42872 0.14886 0.01921 0.06700
H 	H 	0.33231 0.07822 0.04434 0.06300
H 	H 	0.22362 0.03916 0.05215 0.06000
H 	H 	0.23291 0.18374 0.94380 0.05400
H 	H 	0.12282 0.13985 0.95021 0.05400
H 	H 	0.12941 0.03600 0.03595 0.06000
