data_crystal

_cell_length_a 21.38822
_cell_length_b 19.30446
_cell_length_c 46.07362
_cell_angle_alpha 88.54263
_cell_angle_beta  88.70174
_cell_angle_gamma 107.08753

_symmetry_space_group_name_	'P 1'
_symmetry_space_group_name_H-M	'P 1'

loop_
_symmetry_equiv_pos_as_xyz
  x,y,z

loop_
_atom_site_label
_atom_site_type_symbol
_atom_site_fract_x
_atom_site_fract_y
_atom_site_fract_z
_atom_site_charge
C 	C 	0.01944 0.03517 0.76106 0.31700
O 	O 	0.01359 0.90497 0.64088 -0.37400
O 	O 	0.01445 0.13113 0.12400 -0.45300
C 	C 	0.01007 0.21204 0.24402 0.37500
C 	C 	0.01531 0.84489 0.32413 0.04200
C 	C 	0.01972 0.50327 0.95361 0.09100
O 	O 	0.05171 0.92090 0.70512 -0.76700
O 	O 	0.05906 0.07237 0.74011 -0.43200
O 	O 	0.02584 0.17035 0.22463 -0.42000
C 	C 	0.02224 0.34973 0.07466 0.02400
C 	C 	0.03796 0.57943 0.95763 -0.05500
Zn	Zn	0.06054 0.89655 0.74625 1.20400
C 	C 	0.05210 0.52805 0.44642 0.34200
C 	C 	0.04879 0.81535 0.34477 0.04900
H 	H 	0.07616 0.89942 0.69125 0.19300
C 	C 	0.05591 0.39036 0.05641 -0.03200
C 	C 	0.05800 0.25323 0.26311 -0.12300
Zn	Zn	0.08126 0.02801 0.70448 1.21900
O 	O 	0.07856 0.04914 0.63329 -0.46200
O 	O 	0.06756 0.59706 0.43866 -0.39200
O 	O 	0.06636 0.14421 0.16696 -0.37300
C 	C 	0.06609 0.13181 0.13886 0.32700
C 	C 	0.08076 0.79351 0.36195 -0.09600
I 	I 	0.08821 0.44578 0.94339 -0.11900
C 	C 	0.09726 0.44125 0.03668 0.08400
C 	C 	0.09122 0.29054 0.28090 0.07700
O 	O 	0.09839 0.49651 0.45028 -0.44800
O 	O 	0.09963 0.71319 0.39825 -0.40500
C 	C 	0.10789 0.62457 0.95515 0.29500
C 	C 	0.10949 0.09561 0.12670 -0.15500
C 	C 	0.12593 0.09783 0.64579 0.33100
C 	C 	0.12320 0.77175 0.38145 0.30900
O 	O 	0.12967 0.10105 0.67433 -0.43600
C 	C 	0.12194 0.33637 0.30304 -0.02100
O 	O 	0.12956 0.68265 0.97115 -0.37600
H 	H 	0.00135 0.66997 0.96711 0.07600
C 	C 	0.13258 0.48883 0.02138 -0.11600
O 	O 	0.13715 0.96708 0.76273 -0.42400
O 	O 	0.13320 0.55903 0.38824 -0.43200
C 	C 	0.13662 0.05950 0.11331 0.09000
O 	O 	0.00194 0.96381 0.76226 -0.37700
C 	C 	0.14161 0.37671 0.32255 -0.01100
H 	H 	0.99926 0.44169 0.49316 0.01800
Zn	Zn	0.59609 0.30523 0.91961 1.22200
Zn	Zn	0.69137 0.43017 0.96066 1.19200
C 	C 	0.78459 0.21782 0.89469 0.31100
Zn	Zn	0.74909 0.33929 0.92072 1.22100
Zn	Zn	0.64549 0.19365 0.88826 1.19500
H 	H 	0.67417 0.29169 0.96492 0.17900
C 	C 	0.73869 0.47591 0.89653 0.32400
O 	O 	0.55340 0.16583 0.87681 -0.47400
O 	O 	0.52922 0.27223 0.88507 -0.39000
O 	O 	0.67554 0.32738 0.94892 -0.78300
O 	O 	0.59885 0.43369 0.96541 -0.46000
O 	O 	0.54213 0.22029 0.94328 -0.42800
O 	O 	0.56516 0.39196 0.92055 -0.42800
O 	O 	0.61184 0.15506 0.93245 -0.41100
O 	O 	0.78787 0.48334 0.96141 -0.45100
H 	H 	0.67014 0.32673 0.87585 0.17200
O 	O 	0.82043 0.38376 0.95192 -0.40800
O 	O 	0.66857 0.29879 0.89431 -0.79600
O 	O 	0.72653 0.17109 0.89930 -0.45800
O 	O 	0.77555 0.43220 0.89835 -0.44500
O 	O 	0.80409 0.27524 0.91080 -0.42300
O 	O 	0.69240 0.47283 0.91625 -0.41400
C 	C 	0.52038 0.21193 0.87073 0.32400
C 	C 	0.55739 0.42622 0.94413 0.31100
C 	C 	0.55606 0.15849 0.94384 0.29300
C 	C 	0.83477 0.45212 0.95891 0.29600
Zn	Zn	0.64913 0.38547 0.48633 1.21900
Zn	Zn	0.52636 0.26819 0.45174 1.19300
C 	C 	0.67651 0.17305 0.54216 0.32800
Zn	Zn	0.59309 0.21670 0.50129 1.22200
Zn	Zn	0.72541 0.33051 0.53253 1.19600
H 	H 	0.64571 0.26813 0.45306 0.17800
C 	C 	0.47417 0.25096 0.51654 0.32800
O 	O 	0.77333 0.43428 0.52875 -0.47200
O 	O 	0.69095 0.47760 0.51274 -0.39200
O 	O 	0.61525 0.28163 0.46676 -0.78600
O 	O 	0.53807 0.36919 0.43772 -0.46700
O 	O 	0.73546 0.40884 0.46444 -0.42000
O 	O 	0.58493 0.43929 0.47536 -0.41800
O 	O 	0.76233 0.31870 0.48922 -0.41400
O 	O 	0.47002 0.16522 0.45684 -0.45400
H 	H 	0.60738 0.33136 0.53567 0.17100
O 	O 	0.54856 0.12272 0.47708 -0.41000
O 	O 	0.63462 0.31801 0.52040 -0.78800
O 	O 	0.72786 0.23062 0.54204 -0.46200
O 	O 	0.50886 0.20600 0.52106 -0.44700
O 	O 	0.64330 0.15633 0.51844 -0.43400
O 	O 	0.48384 0.29275 0.49278 -0.41800
C 	C 	0.74559 0.48638 0.52686 0.32800
C 	C 	0.53954 0.42146 0.45558 0.31200
C 	C 	0.77895 0.37491 0.47087 0.28600
C 	C 	0.49040 0.11064 0.46600 0.32400
Zn	Zn	0.94893 0.90422 0.69990 1.22500
Zn	Zn	0.98572 0.00360 0.64682 1.17800
O 	O 	0.89566 0.94347 0.63965 -0.45200
O 	O 	0.85486 0.90825 0.68600 -0.37400
O 	O 	0.98236 0.81049 0.75197 -0.47800
O 	O 	0.94386 0.82674 0.67246 -0.43200
O 	O 	0.90543 0.86428 0.73771 -0.42500
H 	H 	0.96031 0.03713 0.69772 0.16900
O 	O 	0.17524 0.03399 0.72094 -0.40400
O 	O 	0.98660 0.00728 0.68959 -0.82900
C 	C 	0.84697 0.92847 0.65904 0.31400
C 	C 	0.92207 0.81432 0.75307 0.34600
C 	C 	0.97214 0.84095 0.64672 0.30600
C 	C 	0.18370 0.01553 0.74788 0.29500
Zn	Zn	0.30355 0.68347 0.41723 1.22100
Zn	Zn	0.19453 0.54917 0.45360 1.19400
Zn	Zn	0.15076 0.64740 0.41095 1.22300
Zn	Zn	0.26401 0.79942 0.38263 1.19800
H 	H 	0.20812 0.68579 0.45823 0.18700
C 	C 	0.17146 0.51670 0.38808 0.32100
O 	O 	0.36035 0.83256 0.37805 -0.46300
O 	O 	0.38275 0.72463 0.38615 -0.39000
O 	O 	0.21348 0.65412 0.44238 -0.78300
O 	O 	0.28457 0.54480 0.46344 -0.45000
O 	O 	0.34577 0.76597 0.44219 -0.42600
O 	O 	0.33695 0.59819 0.42099 -0.42700
O 	O 	0.27350 0.82486 0.42826 -0.40800
H 	H 	0.24638 0.66880 0.37008 0.17500
O 	O 	0.24049 0.69296 0.38820 -0.79200
O 	O 	0.17888 0.81932 0.38731 -0.44400
O 	O 	0.21077 0.51633 0.40962 -0.40600
C 	C 	0.39621 0.78899 0.37296 0.32300
C 	C 	0.33517 0.55901 0.44501 0.33000
C 	C 	0.32624 0.82440 0.44211 0.29800
Zn	Zn	0.22082 0.70318 0.99373 1.22300
Zn	Zn	0.34409 0.77859 0.03560 1.20200
C 	C 	0.37300 0.59115 0.94768 0.31800
Zn	Zn	0.36876 0.72226 0.97634 1.22200
Zn	Zn	0.23911 0.61209 0.94262 1.19800
H 	H 	0.31074 0.64931 0.01982 0.17800
C 	C 	0.38782 0.87840 0.98072 0.30300
O 	O 	0.14716 0.60849 0.93573 -0.44000
O 	O 	0.31063 0.69638 0.01080 -0.79300
O 	O 	0.26049 0.78539 0.05211 -0.46700
O 	O 	0.17791 0.61491 0.01537 -0.45000
O 	O 	0.20385 0.79054 0.01097 -0.41800
O 	O 	0.20871 0.54325 0.98281 -0.40800
O 	O 	0.43961 0.80981 0.03108 -0.45800
H 	H 	0.27365 0.74939 0.94532 0.17900
O 	O 	0.45439 0.72468 0.00039 -0.39400
O 	O 	0.27626 0.70945 0.95870 -0.79200
O 	O 	0.31095 0.56375 0.94122 -0.43500
O 	O 	0.40344 0.82739 0.96628 -0.42700
O 	O 	0.39945 0.66145 0.94934 -0.44000
O 	O 	0.34325 0.86079 0.00202 -0.39700
C 	C 	0.22136 0.81270 0.03731 0.34200
C 	C 	0.17242 0.55104 0.00526 0.34300
C 	C 	0.47302 0.76665 0.02255 0.32700
Zn	Zn	0.97503 0.14080 0.18891 1.21600
Zn	Zn	0.87194 0.12829 0.24397 1.19500
C 	C 	0.80119 0.95152 0.14059 0.36200
Zn	Zn	0.84509 0.01160 0.19810 1.21100
Zn	Zn	0.92912 0.06101 0.13453 1.18800
H 	H 	0.84541 0.14285 0.19150 0.18200
C 	C 	0.91558 0.98804 0.24907 0.37700
O 	O 	0.87344 0.11809 0.20172 -0.79200
O 	O 	0.94956 0.21417 0.24722 -0.49500
O 	O 	0.97159 0.22611 0.16526 -0.43900
O 	O 	0.89344 0.15464 0.13843 -0.42300
O 	O 	0.79953 0.05035 0.26278 -0.46100
H 	H 	0.96527 0.00972 0.18072 0.16200
O 	O 	0.75432 0.99762 0.22132 -0.35500
O 	O 	0.93687 0.04084 0.17658 -0.80000
O 	O 	0.83594 0.01247 0.12771 -0.49900
O 	O 	0.87401 0.95689 0.22929 -0.43400
O 	O 	0.79171 0.94677 0.16906 -0.42200
O 	O 	0.93439 0.05890 0.25138 -0.46000
C 	C 	0.93535 0.21803 0.14244 0.32500
C 	C 	0.75015 0.00772 0.24931 0.24600
C 	C 	0.95991 0.26533 0.11770 -0.10700
C 	C 	0.98629 0.30413 0.09739 0.02700
C 	C 	0.53232 0.76947 0.03672 -0.11700
C 	C 	0.57984 0.77920 0.05125 0.06700
C 	C 	0.63202 0.79951 0.07029 -0.01600
C 	C 	0.67372 0.82445 0.08733 -0.02100
C 	C 	0.71951 0.86184 0.10718 0.07600
C 	C 	0.75709 0.89997 0.12325 -0.12700
C 	C 	0.20085 0.86990 0.04976 -0.09300
C 	C 	0.18762 0.91705 0.06292 0.04400
C 	C 	0.17350 0.96996 0.08027 0.06200
C 	C 	0.15921 0.01275 0.09568 -0.10300
C 	C 	0.69355 0.96672 0.26601 -0.05000
C 	C 	0.64754 0.93369 0.28130 0.03800
C 	C 	0.59491 0.89719 0.30025 0.00200
C 	C 	0.55032 0.86825 0.31699 -0.02700
C 	C 	0.49787 0.83728 0.33683 0.07100
C 	C 	0.45216 0.81358 0.35362 -0.11900
C 	C 	0.15766 0.42487 0.34562 0.06500
C 	C 	0.16630 0.46655 0.36519 -0.10200
C 	C 	0.94036 0.94438 0.26864 -0.13300
C 	C 	0.96216 0.91018 0.28579 0.09700
C 	C 	0.98957 0.87335 0.30639 -0.07100
C 	C 	0.36967 0.89326 0.45247 -0.05600
C 	C 	0.43694 0.91381 0.44537 -0.02400
C 	C 	0.47622 0.98428 0.45034 0.05000
C 	C 	0.44884 0.03507 0.46261 -0.13000
C 	C 	0.38184 0.01313 0.47131 0.04900
C 	C 	0.34264 0.94280 0.46584 -0.00300
H 	H 	0.52765 0.99995 0.44394 0.04000
H 	H 	0.29094 0.92689 0.47180 0.06000
H 	H 	0.45835 0.87621 0.43486 0.05600
I 	I 	0.33892 0.08233 0.49446 -0.11200
C 	C 	0.84927 0.40988 0.46331 -0.04800
C 	C 	0.89727 0.40614 0.48315 -0.02400
C 	C 	0.96318 0.44395 0.47732 0.01400
C 	C 	0.98235 0.48579 0.45150 -0.12100
C 	C 	0.93454 0.48736 0.43092 0.08500
C 	C 	0.86826 0.45041 0.43717 -0.04400
H 	H 	0.83177 0.45259 0.42153 0.05800
H 	H 	0.88338 0.37546 0.50349 0.03100
I 	I 	0.96080 0.53917 0.38928 -0.12600
C 	C 	0.48672 0.45650 0.45481 -0.05900
C 	C 	0.50066 0.53173 0.45740 -0.01400
C 	C 	0.45079 0.56485 0.45455 0.00900
C 	C 	0.38641 0.52297 0.44943 -0.09700
C 	C 	0.37218 0.44716 0.44735 0.07900
C 	C 	0.42222 0.41443 0.45018 -0.03400
H 	H 	0.46230 0.62315 0.45610 0.03700
H 	H 	0.41102 0.35619 0.44846 0.04300
H 	H 	0.55022 0.56475 0.46098 0.05100
I 	I 	0.27656 0.38081 0.43842 -0.12200
C 	C 	0.78745 0.94169 0.65085 -0.09500
C 	C 	0.74548 0.96136 0.63935 0.03400
C 	C 	0.70828 0.99349 0.62170 0.06200
C 	C 	0.68731 0.02761 0.60427 -0.10700
C 	C 	0.67475 0.07372 0.58251 0.09200
C 	C 	0.67226 0.11725 0.56378 -0.14700
C 	C 	0.42062 0.24806 0.53627 -0.11000
C 	C 	0.37568 0.23893 0.55361 0.06700
C 	C 	0.32324 0.22100 0.57427 -0.01600
C 	C 	0.27851 0.20008 0.59179 -0.02000
C 	C 	0.22598 0.16962 0.61175 0.06600
C 	C 	0.18068 0.13908 0.62794 -0.11800
C 	C 	0.94366 0.79556 0.62340 -0.10600
C 	C 	0.91504 0.75599 0.60507 0.06100
C 	C 	0.87804 0.70721 0.58516 -0.01600
C 	C 	0.84522 0.66262 0.56951 -0.02100
C 	C 	0.80710 0.60618 0.55282 0.06500
C 	C 	0.77675 0.55379 0.54004 -0.11800
C 	C 	0.90468 0.49565 0.96077 -0.05600
C 	C 	0.92243 0.57073 0.96517 -0.00300
C 	C 	0.98864 0.61216 0.96389 -0.05600
C 	C 	0.95388 0.46238 0.95593 -0.06200
H 	H 	0.94091 0.40440 0.95309 0.06700
H 	H 	0.88514 0.59731 0.96921 0.04000
C 	C 	0.50587 0.09122 0.95372 -0.04900
C 	C 	0.47280 0.04217 0.93331 -0.06100
C 	C 	0.42958 0.97520 0.94243 0.04500
C 	C 	0.41956 0.95562 0.97213 -0.05500
C 	C 	0.44990 0.00706 0.99284 0.01900
C 	C 	0.49284 0.07450 0.98342 -0.02800
H 	H 	0.40592 0.93711 0.92631 0.03500
H 	H 	0.51723 0.11303 0.99926 0.04200
H 	H 	0.48158 0.05519 0.91031 0.04900
I 	I 	0.43374 0.98531 0.03831 -0.08700
C 	C 	0.50704 0.46479 0.94503 -0.05500
C 	C 	0.48594 0.48519 0.97169 -0.02000
C 	C 	0.44098 0.52506 0.97240 0.01000
C 	C 	0.41621 0.54459 0.94655 -0.09700
C 	C 	0.43635 0.52324 0.91975 0.08400
C 	C 	0.48138 0.48326 0.91911 -0.03700
H 	H 	0.42588 0.54149 0.99309 0.02500
H 	H 	0.49747 0.46804 0.89841 0.07000
H 	H 	0.50462 0.47056 0.99187 0.04200
I 	I 	0.40199 0.55327 0.87983 -0.11400
C 	C 	0.83098 0.19850 0.87600 -0.12900
C 	C 	0.86656 0.17980 0.85925 0.05600
C 	C 	0.90459 0.15505 0.83879 -0.02600
C 	C 	0.93431 0.13150 0.82093 -0.03100
C 	C 	0.96627 0.10102 0.79982 0.06200
C 	C 	0.99151 0.07243 0.78192 -0.14100
C 	C 	0.46977 0.19251 0.85003 -0.12100
C 	C 	0.42799 0.17286 0.83245 0.06300
C 	C 	0.37925 0.14613 0.81211 -0.02400
C 	C 	0.33697 0.12022 0.79538 -0.01800
C 	C 	0.28600 0.08653 0.77697 0.05600
C 	C 	0.24054 0.05523 0.76269 -0.10600
C 	C 	0.87607 0.76730 0.77325 -0.11700
C 	C 	0.84277 0.72535 0.79120 0.07100
C 	C 	0.81012 0.67422 0.81300 -0.01900
C 	C 	0.78735 0.62942 0.83202 -0.01700
C 	C 	0.76616 0.57621 0.85449 0.06500
C 	C 	0.75193 0.53046 0.87373 -0.11400
