data_crystal

_cell_length_a 26.16573
_cell_length_b 26.52087
_cell_length_c 35.08052
_cell_angle_alpha 95.49963
_cell_angle_beta  95.49679
_cell_angle_gamma 125.84137

_symmetry_space_group_name_	'P 1'
_symmetry_space_group_name_H-M	'P 1'

loop_
_symmetry_equiv_pos_as_xyz
  x,y,z

loop_
_atom_site_label
_atom_site_type_symbol
_atom_site_fract_x
_atom_site_fract_y
_atom_site_fract_z
_atom_site_charge
C 	C 	0.99268 0.06369 0.99849 0.04600
C 	C 	0.96345 0.99957 0.99927 0.00100
C 	C 	0.99997 0.97662 0.99975 0.04600
C 	C 	0.06554 0.01762 0.99872 0.02700
C 	C 	0.09428 0.08107 0.99616 0.06400
C 	C 	0.05845 0.10468 0.99773 0.02400
H 	H 	0.91238 0.96758 0.99916 0.11800
H 	H 	0.09372 0.99977 0.99882 0.14000
H 	H 	0.08123 0.15435 0.99734 0.12800
C 	C 	0.90506 0.96047 0.45123 0.11000
C 	C 	0.86936 0.89514 0.45069 -0.04100
C 	C 	0.90074 0.86699 0.45500 0.10800
C 	C 	0.96789 0.90454 0.46092 -0.07100
C 	C 	0.00372 0.96995 0.46223 0.15800
C 	C 	0.97227 0.99787 0.45743 -0.07200
H 	H 	0.81744 0.86630 0.44664 0.13100
H 	H 	0.99221 0.88288 0.46443 0.13600
H 	H 	0.99999 0.04850 0.45839 0.14900
Cu	Cu	0.66833 0.28208 0.01009 0.94200
Cu	Cu	0.70015 0.27014 0.92304 0.91100
Cu	Cu	0.70326 0.37895 0.95768 0.92200
Cu	Cu	0.69445 0.41224 0.04053 0.92500
C 	C 	0.68824 0.32509 0.09196 0.33100
O 	O 	0.58035 0.25569 0.01576 -0.31900
C 	C 	0.67350 0.33311 0.87246 0.32600
O 	O 	0.72921 0.38016 0.01088 -0.63500
O 	O 	0.65209 0.28540 0.95454 -0.62900
O 	O 	0.69596 0.22644 0.00478 -0.27300
O 	O 	0.76166 0.28117 0.96315 -0.38400
O 	O 	0.70195 0.38098 0.08892 -0.32900
O 	O 	0.75931 0.46999 0.96322 -0.30800
C 	C 	0.76320 0.51038 0.99071 0.30600
C 	C 	0.55919 0.28742 0.00499 0.29100
O 	O 	0.59992 0.34753 0.00320 -0.28300
O 	O 	0.73030 0.49178 0.01927 -0.29200
O 	O 	0.69564 0.29320 0.06464 -0.31800
C 	C 	0.74365 0.24104 0.98708 0.30300
O 	O 	0.68410 0.37592 0.90141 -0.28800
O 	O 	0.66000 0.27851 0.87831 -0.35000
H 	H 	0.77592 0.40240 0.01906 0.20100
H 	H 	0.60636 0.26190 0.94240 0.24000
Cu	Cu	0.70761 0.30177 0.45133 0.94600
Cu	Cu	0.71729 0.25506 0.53335 0.91400
Cu	Cu	0.60851 0.25829 0.50418 0.91900
Cu	Cu	0.58316 0.29206 0.42916 0.92300
C 	C 	0.65913 0.28832 0.37075 0.33800
O 	O 	0.74018 0.39298 0.45297 -0.28700
C 	C 	0.66085 0.28468 0.58821 0.33500
O 	O 	0.60807 0.24504 0.44945 -0.63500
O 	O 	0.70336 0.30809 0.50728 -0.63100
O 	O 	0.75785 0.26727 0.45132 -0.30700
O 	O 	0.69907 0.19590 0.48917 -0.33500
O 	O 	0.62493 0.30696 0.38226 -0.33000
O 	O 	0.51585 0.20604 0.49737 -0.29600
C 	C 	0.47782 0.20922 0.47174 0.31100
C 	C 	0.71053 0.41405 0.46814 0.30200
O 	O 	0.65239 0.37348 0.47454 -0.34500
O 	O 	0.50094 0.25187 0.44893 -0.31500
O 	O 	0.69511 0.28185 0.39583 -0.30900
C 	C 	0.73636 0.21374 0.46315 0.30400
O 	O 	0.60952 0.25730 0.56043 -0.32900
O 	O 	0.71354 0.29278 0.58111 -0.34400
H 	H 	0.58231 0.20003 0.43649 0.25000
H 	H 	0.72751 0.35180 0.52220 0.24000
C 	C 	0.66961 0.34355 0.83220 -0.08400
C 	C 	0.60933 0.31343 0.80806 0.13100
C 	C 	0.60486 0.31086 0.76752 0.07500
C 	C 	0.66062 0.33759 0.75121 0.02400
C 	C 	0.72136 0.37342 0.77581 0.07400
C 	C 	0.72581 0.37678 0.81637 0.12600
C 	C 	0.65502 0.32140 0.70864 0.02400
C 	C 	0.64746 0.26597 0.69298 0.07200
C 	C 	0.64651 0.25258 0.65306 0.13000
C 	C 	0.65512 0.29552 0.62897 -0.09400
C 	C 	0.66078 0.34998 0.64431 0.12900
C 	C 	0.65987 0.36251 0.68407 0.07300
Br	Br	0.79811 0.41522 0.75369 -0.05900
Br	Br	0.53305 0.27485 0.83052 -0.00900
Br	Br	0.63257 0.17497 0.63114 -0.08000
Br	Br	0.66583 0.43608 0.70505 -0.03100
Br	Br	0.80871 0.42485 0.85024 -0.10100
Br	Br	0.52243 0.26874 0.73411 -0.04500
Br	Br	0.63983 0.20917 0.72651 -0.07500
Br	Br	0.67152 0.40815 0.61103 -0.06500
C 	C 	0.68110 0.30670 0.13053 -0.09200
C 	C 	0.62686 0.29115 0.14603 0.13100
C 	C 	0.62403 0.28281 0.18496 0.07300
C 	C 	0.67485 0.28872 0.20824 0.02500
C 	C 	0.72684 0.29956 0.19192 0.07200
C 	C 	0.73078 0.30998 0.15336 0.13500
C 	C 	0.67617 0.28890 0.25059 0.02400
C 	C 	0.70661 0.34653 0.27690 0.07200
C 	C 	0.70367 0.34645 0.31670 0.13300
C 	C 	0.66841 0.28863 0.33004 -0.09100
C 	C 	0.63972 0.23115 0.30401 0.12500
C 	C 	0.64447 0.23137 0.26438 0.07400
Br	Br	0.79324 0.30145 0.22279 -0.04700
Br	Br	0.55672 0.28194 0.11394 -0.08400
Br	Br	0.74874 0.42558 0.35317 -0.08700
Br	Br	0.60707 0.15302 0.22881 -0.03500
Br	Br	0.80602 0.33272 0.13277 -0.06600
Br	Br	0.55150 0.26523 0.20689 -0.04000
Br	Br	0.75096 0.42540 0.25812 -0.06200
Br	Br	0.59202 0.15210 0.32240 -0.02400
C 	C 	0.83041 0.69373 0.42779 0.05600
C 	C 	0.80738 0.67173 0.46157 0.08500
C 	C 	0.81120 0.71316 0.49243 -0.07500
C 	C 	0.84108 0.77683 0.48935 0.04700
C 	C 	0.86344 0.79850 0.45537 0.06900
C 	C 	0.85481 0.75574 0.42337 -0.08400
C 	C 	0.78078 0.60551 0.46465 0.10400
C 	C 	0.78781 0.69103 0.52973 0.78500
H 	H 	0.84847 0.81015 0.51377 0.12200
C 	C 	0.87398 0.77666 0.38511 0.78400
H 	H 	0.82890 0.66221 0.40484 0.12800
C 	C 	0.71792 0.55420 0.44517 -0.09800
C 	C 	0.69660 0.49196 0.44626 0.08700
C 	C 	0.73491 0.48027 0.46844 0.00600
C 	C 	0.79616 0.53165 0.48982 -0.05000
C 	C 	0.81981 0.59373 0.48590 0.03600
C 	C 	0.67515 0.56530 0.42093 0.79100
H 	H 	0.65036 0.45227 0.42936 0.08700
C 	C 	0.83664 0.52057 0.51641 0.77800
H 	H 	0.86851 0.63318 0.49960 0.13400
F 	F 	0.85356 0.81198 0.37459 -0.36600
F 	F 	0.84670 0.72515 0.35519 -0.36600
F 	F 	0.93998 0.81285 0.38899 -0.40200
F 	F 	0.83037 0.68507 0.55143 -0.38600
F 	F 	0.72762 0.63328 0.52139 -0.36900
F 	F 	0.78333 0.73367 0.55222 -0.36800
F 	F 	0.88771 0.57626 0.54057 -0.37600
F 	F 	0.86080 0.49602 0.49417 -0.40500
F 	F 	0.79990 0.47863 0.53988 -0.42100
F 	F 	0.61209 0.51141 0.41187 -0.37800
F 	F 	0.69669 0.58183 0.38651 -0.39000
F 	F 	0.67568 0.61314 0.44102 -0.36800
C 	C 	0.83886 0.04313 0.41076 0.05500
C 	C 	0.82419 0.06142 0.44435 0.08900
C 	C 	0.82880 0.03994 0.47908 -0.07800
C 	C 	0.85412 0.00559 0.48040 0.05300
C 	C 	0.87224 0.99044 0.44741 0.06500
C 	C 	0.86182 0.00668 0.41169 -0.07800
C 	C 	0.80288 0.10223 0.44261 0.10100
C 	C 	0.80462 0.05155 0.51415 0.78600
H 	H 	0.86059 0.99116 0.50720 0.12200
C 	C 	0.87715 0.98708 0.37494 0.78200
H 	H 	0.83333 0.05834 0.38409 0.13500
C 	C 	0.84763 0.16913 0.45168 -0.09400
C 	C 	0.82484 0.20561 0.45625 0.08200
C 	C 	0.75872 0.17647 0.44995 0.01000
C 	C 	0.71465 0.11063 0.43483 -0.05200
C 	C 	0.73714 0.07379 0.43262 0.04100
C 	C 	0.91928 0.20145 0.45622 0.79000
H 	H 	0.85832 0.25642 0.46621 0.10600
C 	C 	0.64342 0.07887 0.42283 0.78000
H 	H 	0.70339 0.02269 0.42420 0.13600
F 	F 	0.94293 0.02147 0.37820 -0.38400
F 	F 	0.85336 0.99764 0.34216 -0.36500
F 	F 	0.84995 0.92319 0.36947 -0.36900
F 	F 	0.73939 0.02170 0.50422 -0.39300
F 	F 	0.83591 0.11573 0.52628 -0.38200
F 	F 	0.81484 0.02826 0.54533 -0.37400
F 	F 	0.61385 0.02293 0.39634 -0.37300
F 	F 	0.63335 0.11769 0.40533 -0.41400
F 	F 	0.61503 0.06529 0.45535 -0.38000
F 	F 	0.95457 0.26679 0.46379 -0.38000
F 	F 	0.93246 0.18414 0.42221 -0.39100
F 	F 	0.93936 0.18385 0.48669 -0.37400
C 	C 	0.30114 0.07549 0.46345 0.03900
C 	C 	0.27740 0.10969 0.47319 0.10200
C 	C 	0.32040 0.17631 0.48564 -0.09200
C 	C 	0.38633 0.20745 0.48650 0.08600
C 	C 	0.40946 0.17370 0.47417 0.01400
C 	C 	0.36667 0.10703 0.46243 -0.04900
C 	C 	0.20723 0.07515 0.47010 0.08800
C 	C 	0.29654 0.21383 0.49964 0.79000
H 	H 	0.41996 0.25826 0.49643 0.11000
C 	C 	0.39081 0.06952 0.44915 0.77900
H 	H 	0.26803 0.02430 0.45573 0.13700
C 	C 	0.16693 0.05796 0.43379 -0.07100
C 	C 	0.10037 0.02355 0.43201 0.05800
C 	C 	0.07410 0.00860 0.46582 0.06500
C 	C 	0.11471 0.02821 0.50233 -0.07700
C 	C 	0.18060 0.05846 0.50368 0.05700
C 	C 	0.19412 0.07256 0.39657 0.78600
H 	H 	0.06857 0.00747 0.40421 0.14900
C 	C 	0.08769 0.01509 0.53962 0.78500
H 	H 	0.21158 0.06979 0.53096 0.13300
F 	F 	0.34082 0.00636 0.43474 -0.36500
F 	F 	0.42989 0.07276 0.48030 -0.39200
F 	F 	0.42537 0.09405 0.41985 -0.39900
F 	F 	0.27577 0.19850 0.53441 -0.38500
F 	F 	0.24633 0.20024 0.47232 -0.36200
F 	F 	0.34440 0.27848 0.50581 -0.37000
F 	F 	0.13596 0.04862 0.57238 -0.36200
F 	F 	0.05354 0.95121 0.54047 -0.39300
F 	F 	0.04750 0.03274 0.54158 -0.38200
F 	F 	0.14914 0.06110 0.36581 -0.35000
F 	F 	0.21296 0.03484 0.38653 -0.38000
F 	F 	0.24642 0.13552 0.40170 -0.36600
C 	C 	0.92287 0.81506 0.02718 0.06100
C 	C 	0.90641 0.77738 0.99070 0.08000
C 	C 	0.92085 0.80525 0.95703 -0.06900
C 	C 	0.95047 0.87045 0.96072 0.03700
C 	C 	0.96831 0.90829 0.99732 0.08900
C 	C 	0.95588 0.88086 0.03112 -0.09100
C 	C 	0.87085 0.70813 0.98787 0.10400
C 	C 	0.90075 0.76506 0.91685 0.78300
H 	H 	0.95945 0.89201 0.93506 0.14400
C 	C 	0.97613 0.92134 0.07116 0.77200
H 	H 	0.90977 0.79280 0.05246 0.13100
C 	C 	0.90304 0.68177 0.99831 -0.09400
C 	C 	0.86667 0.61649 0.99858 0.07900
C 	C 	0.79975 0.57729 0.98711 0.01200
C 	C 	0.76811 0.60298 0.97421 -0.04800
C 	C 	0.80385 0.66877 0.97654 0.03700
C 	C 	0.97541 0.72361 0.01208 0.77500
H 	H 	0.89019 0.59621 0.00862 0.09900
C 	C 	0.69602 0.56075 0.95947 0.77900
H 	H 	0.77966 0.68970 0.96968 0.13700
F 	F 	0.04071 0.97152 0.07752 -0.36500
F 	F 	0.96642 0.88709 0.10061 -0.36600
F 	F 	0.94082 0.94458 0.07349 -0.39900
F 	F 	0.83509 0.73034 0.90488 -0.38400
F 	F 	0.91711 0.72408 0.91756 -0.37200
F 	F 	0.93051 0.80220 0.88958 -0.36100
F 	F 	0.66464 0.54092 0.99051 -0.37600
F 	F 	0.67775 0.50834 0.93295 -0.37900
F 	F 	0.67677 0.59239 0.94094 -0.36200
F 	F 	0.99842 0.68808 0.01284 -0.37900
F 	F 	0.99091 0.75698 0.04932 -0.39000
F 	F 	0.00623 0.76587 0.98746 -0.34200
C 	C 	0.90431 0.13091 0.96783 0.05600
C 	C 	0.88648 0.13975 0.00285 0.08300
C 	C 	0.90020 0.12011 0.03600 -0.06900
C 	C 	0.93523 0.09545 0.03386 0.03700
C 	C 	0.95434 0.08801 0.99905 0.08600
C 	C 	0.93596 0.10282 0.96508 -0.09400
C 	C 	0.85023 0.16650 0.00366 0.10900
C 	C 	0.87392 0.12137 0.07263 0.78400
H 	H 	0.94739 0.08150 0.05918 0.13300
C 	C 	0.95174 0.09076 0.92621 0.77300
H 	H 	0.89298 0.14563 0.94261 0.12600
C 	C 	0.88233 0.23281 0.00963 -0.10100
C 	C 	0.84598 0.25596 0.00562 0.08700
C 	C 	0.77884 0.21440 0.99510 0.00100
C 	C 	0.74680 0.14802 0.98890 -0.05300
C 	C 	0.78305 0.12497 0.99440 0.03000
C 	C 	0.95522 0.27871 0.01666 0.79200
H 	H 	0.86995 0.30654 0.00955 0.09900
C 	C 	0.67418 0.10164 0.97664 0.77700
H 	H 	0.75924 0.07442 0.99024 0.14000
F 	F 	0.01620 0.13605 0.92646 -0.35300
F 	F 	0.91650 0.09361 0.89559 -0.37400
F 	F 	0.93767 0.03125 0.91935 -0.38500
F 	F 	0.80792 0.07680 0.06492 -0.38700
F 	F 	0.88912 0.18053 0.08487 -0.36900
F 	F 	0.89894 0.10766 0.10302 -0.36600
F 	F 	0.65331 0.11697 0.94514 -0.42700
F 	F 	0.64573 0.10343 0.00747 -0.37900
F 	F 	0.65387 0.04012 0.96568 -0.37600
F 	F 	0.97709 0.34054 0.02872 -0.38400
F 	F 	0.97621 0.27529 0.98248 -0.40100
F 	F 	0.98227 0.26421 0.04526 -0.37400
C 	C 	0.39868 0.25476 0.97040 0.04100
C 	C 	0.35907 0.20609 0.99014 0.10400
C 	C 	0.38253 0.17699 0.00939 -0.09300
C 	C 	0.44828 0.20433 0.01393 0.08500
C 	C 	0.48899 0.25535 0.99581 0.01300
C 	C 	0.46211 0.27616 0.97039 -0.05600
C 	C 	0.29199 0.18358 0.98862 0.08300
C 	C 	0.33726 0.11557 0.02359 0.79100
H 	H 	0.46802 0.18629 0.03178 0.11500
C 	C 	0.49931 0.31919 0.94242 0.78100
H 	H 	0.37958 0.27508 0.95439 0.13800
C 	C 	0.27419 0.20454 0.01974 -0.06700
C 	C 	0.20874 0.17102 0.02162 0.04800
C 	C 	0.16161 0.12237 0.99080 0.09200
C 	C 	0.17992 0.11065 0.95624 -0.08700
C 	C 	0.24512 0.13909 0.95632 0.06400
C 	C 	0.32460 0.26273 0.05044 0.78500
H 	H 	0.19434 0.18165 0.04732 0.12900
C 	C 	0.13032 0.06586 0.91994 0.78600
H 	H 	0.25939 0.12542 0.93173 0.13000
F 	F 	0.53699 0.38169 0.96140 -0.36900
F 	F 	0.45791 0.31184 0.91087 -0.37700
F 	F 	0.53765 0.30496 0.92790 -0.43900
F 	F 	0.28940 0.06992 0.99284 -0.39000
F 	F 	0.30958 0.12509 0.05232 -0.36900
F 	F 	0.36889 0.09250 0.03885 -0.37400
F 	F 	0.15769 0.07901 0.88695 -0.36000
F 	F 	0.08108 0.07178 0.91500 -0.36000
F 	F 	0.10526 0.00414 0.92297 -0.38000
F 	F 	0.29696 0.28075 0.07464 -0.36700
F 	F 	0.36450 0.31294 0.03257 -0.38600
F 	F 	0.36099 0.25054 0.07315 -0.36800
