data_crystal

_cell_length_a 28.37157
_cell_length_b 37.54509
_cell_length_c 29.78538
_cell_angle_alpha 89.51524
_cell_angle_beta  89.99996
_cell_angle_gamma 90.00010

_symmetry_space_group_name_	'P 1'
_symmetry_space_group_name_H-M	'P 1'

loop_
_symmetry_equiv_pos_as_xyz
  x,y,z

loop_
_atom_site_label
_atom_site_type_symbol
_atom_site_fract_x
_atom_site_fract_y
_atom_site_fract_z
_atom_site_charge
C 	C 	0.46534 0.57875 0.84889 0.10100
N 	N 	0.45958 0.54480 0.86269 -0.17200
C 	C 	0.41580 0.53509 0.85045 0.10200
C 	C 	0.39049 0.50569 0.87313 -0.07600
C 	C 	0.41074 0.46940 0.87279 0.08900
C 	C 	0.34722 0.51317 0.89903 0.04400
C 	C 	0.34886 0.53643 0.93559 -0.05800
C 	C 	0.30792 0.54384 0.95986 -0.02700
C 	C 	0.26487 0.52830 0.94748 -0.01000
C 	C 	0.30438 0.49727 0.88696 -0.05900
N 	N 	0.44885 0.46118 0.84788 -0.12800
C 	C 	0.40447 0.44483 0.90719 -0.06200
C 	C 	0.46623 0.43089 0.86589 0.08900
C 	C 	0.51473 0.41844 0.85706 -0.07600
C 	C 	0.52626 0.38040 0.86353 0.04300
C 	C 	0.50931 0.31840 0.84801 -0.02700
C 	C 	0.55791 0.36989 0.89731 -0.05900
C 	C 	0.56443 0.33374 0.90709 -0.02800
C 	C 	0.53942 0.30788 0.88305 -0.00700
N 	N 	0.55713 0.47617 0.85915 -0.17300
C 	C 	0.60090 0.48690 0.84795 0.10000
C 	C 	0.62308 0.46131 0.82222 -0.06300
C 	C 	0.59122 0.43375 0.81764 -0.06300
C 	C 	0.62632 0.51468 0.87326 -0.07600
C 	C 	0.67358 0.50718 0.89212 0.04000
C 	C 	0.75700 0.52101 0.89708 -0.03500
C 	C 	0.76323 0.49285 0.92772 0.00300
C 	C 	0.72448 0.47192 0.94061 -0.03300
C 	C 	0.67982 0.47904 0.92284 -0.05700
N 	N 	0.56727 0.56109 0.85445 -0.12800
C 	C 	0.57528 0.59615 0.91488 -0.06200
C 	C 	0.54967 0.58939 0.87639 0.08800
C 	C 	0.50117 0.60250 0.86894 -0.07600
C 	C 	0.48927 0.63979 0.87964 0.04300
C 	C 	0.51288 0.66780 0.85783 -0.05800
C 	C 	0.50016 0.70304 0.86624 -0.02700
C 	C 	0.46368 0.71058 0.89654 -0.00900
C 	C 	0.44061 0.68259 0.91901 -0.02800
C 	C 	0.45342 0.64730 0.91063 -0.06000
C 	C 	0.42503 0.59082 0.82731 -0.06300
C 	C 	0.39331 0.56292 0.82845 -0.06300
C 	C 	0.26330 0.50490 0.91097 -0.02600
C 	C 	0.44002 0.42015 0.90271 -0.06100
C 	C 	0.55109 0.44379 0.84085 0.10000
C 	C 	0.61073 0.57109 0.91628 -0.06200
C 	C 	0.60496 0.55032 0.87853 0.08700
C 	C 	0.71234 0.52816 0.87934 -0.05700
H 	H 	0.47803 0.53324 0.88947 0.09100
H 	H 	0.53885 0.48517 0.88733 0.09100
H 	H 	0.51846 0.72452 0.84908 0.03900
H 	H 	0.41254 0.68818 0.94258 0.03600
H 	H 	0.54064 0.66223 0.83392 0.04800
H 	H 	0.43518 0.62579 0.92780 0.04400
H 	H 	0.30959 0.56175 0.98814 0.03700
H 	H 	0.30282 0.47932 0.85870 0.04700
H 	H 	0.23021 0.49296 0.90093 0.03600
H 	H 	0.38187 0.54872 0.94521 0.04500
H 	H 	0.58797 0.32585 0.93403 0.03800
H 	H 	0.57637 0.38974 0.91681 0.04500
C 	C 	0.50273 0.35452 0.83832 -0.05800
H 	H 	0.48989 0.29863 0.82924 0.03800
H 	H 	0.78668 0.53732 0.88702 0.03600
H 	H 	0.70789 0.54987 0.85552 0.04600
H 	H 	0.65009 0.46273 0.93295 0.04400
H 	H 	0.72904 0.45006 0.96418 0.04000
H 	H 	0.41515 0.61854 0.82355 0.04800
H 	H 	0.35545 0.56610 0.82633 0.04800
H 	H 	0.38651 0.45028 0.93847 0.04900
H 	H 	0.45335 0.40376 0.92997 0.04800
H 	H 	0.66089 0.45839 0.81907 0.04900
H 	H 	0.60095 0.40654 0.81026 0.04900
H 	H 	0.56151 0.60958 0.94411 0.04700
H 	H 	0.62830 0.56242 0.94674 0.04600
H 	H 	0.47848 0.36243 0.81197 0.04800
Co	Co	0.48948 0.09586 0.93929 1.18100
Co	Co	0.49192 0.01433 0.92331 1.11700
O 	O 	0.49193 0.14853 0.95383 -0.37700
O 	O 	0.54491 0.13437 0.90650 -0.31600
O 	O 	0.43566 0.07680 0.97379 -0.41500
O 	O 	0.51431 0.04296 0.87098 -0.45800
C 	C 	0.40876 0.05122 0.95810 0.30700
C 	C 	0.52686 0.15961 0.93003 0.29600
O 	O 	0.42366 0.03140 0.92482 -0.44100
O 	O 	0.46511 0.08972 0.87968 -0.43200
C 	C 	0.48702 0.06758 0.85319 0.30700
O 	O 	0.53957 0.07705 0.97615 -0.42100
O 	O 	0.50712 0.02228 0.98759 -0.40800
C 	C 	0.53293 0.04894 0.00174 0.27500
S 	S 	0.42287 0.02202 0.35554 -0.00700
C 	C 	0.46022 0.01345 0.31191 -0.01500
C 	C 	0.50516 0.02847 0.31892 -0.01600
S 	S 	0.50762 0.05056 0.36892 -0.00600
C 	C 	0.45378 0.04658 0.39217 -0.00700
C 	C 	0.44733 0.04288 0.44061 -0.00800
S 	S 	0.45572 0.07716 0.47567 -0.00600
C 	C 	0.47874 0.05925 0.52390 -0.01500
C 	C 	0.48461 0.02207 0.52046 -0.01700
S 	S 	0.46654 0.00691 0.46926 -0.00600
C 	C 	0.47680 0.08509 0.66096 -0.00300
C 	C 	0.43456 0.07582 0.63952 -0.03200
C 	C 	0.43325 0.07242 0.59286 -0.04500
C 	C 	0.47455 0.07702 0.56752 0.02200
C 	C 	0.51529 0.08998 0.58840 -0.04600
C 	C 	0.51649 0.09392 0.63502 -0.03300
H 	H 	0.40355 0.06930 0.65915 0.03500
H 	H 	0.40138 0.06289 0.57691 0.04200
H 	H 	0.54716 0.09415 0.56902 0.04200
H 	H 	0.54895 0.10200 0.65116 0.03800
C 	C 	0.48411 0.97548 0.64994 -0.00500
C 	C 	0.52630 0.98908 0.63214 -0.03000
C 	C 	0.52834 0.00020 0.58731 -0.04800
C 	C 	0.48790 0.99872 0.56028 0.02600
C 	C 	0.44713 0.98202 0.57685 -0.04800
C 	C 	0.44522 0.97047 0.62153 -0.03100
H 	H 	0.55683 0.99251 0.65351 0.03600
H 	H 	0.56019 0.01261 0.57462 0.04300
H 	H 	0.41581 0.98044 0.55616 0.04200
H 	H 	0.41291 0.95900 0.63457 0.03600
C 	C 	0.43489 0.98591 0.17613 -0.00400
C 	C 	0.42501 0.02055 0.19062 -0.03400
C 	C 	0.42922 0.02903 0.23609 -0.04500
C 	C 	0.44316 0.00285 0.26731 0.02100
C 	C 	0.44937 0.96763 0.25325 -0.04500
C 	C 	0.44560 0.95923 0.20778 -0.03400
H 	H 	0.41586 0.04116 0.16649 0.03600
H 	H 	0.42432 0.05632 0.24665 0.04200
H 	H 	0.45998 0.94724 0.27714 0.04100
H 	H 	0.45261 0.93227 0.19693 0.03700
C 	C 	0.56328 0.04711 0.19189 -0.00300
C 	C 	0.56742 0.01305 0.21130 -0.03300
C 	C 	0.55574 0.00774 0.25644 -0.04600
C 	C 	0.53787 0.03610 0.28167 0.02200
C 	C 	0.54095 0.07087 0.26432 -0.04700
C 	C 	0.55414 0.07639 0.21961 -0.03300
H 	H 	0.57583 0.99030 0.19065 0.03600
H 	H 	0.55551 0.98095 0.27026 0.04300
H 	H 	0.52886 0.09321 0.28400 0.04200
H 	H 	0.55304 0.10306 0.20547 0.03700
Co	Co	0.50280 0.92117 0.92129 1.16600
Co	Co	0.39461 0.92966 0.90892 1.09300
O 	O 	0.57361 0.91418 0.92774 -0.38700
O 	O 	0.55232 0.96573 0.94868 -0.41200
O 	O 	0.47876 0.87569 0.89834 -0.42000
O 	O 	0.41840 0.95826 0.96008 -0.50400
C 	C 	0.44187 0.86017 0.91650 0.31000
C 	C 	0.58727 0.94441 0.94306 0.32300
O 	O 	0.40737 0.87937 0.93303 -0.43300
O 	O 	0.47572 0.91945 0.98054 -0.44500
C 	C 	0.44440 0.94345 0.99151 0.32400
O 	O 	0.49813 0.94898 0.86678 -0.49500
O 	O 	0.42577 0.92627 0.84937 -0.46700
C 	C 	0.46326 0.94497 0.83825 0.30400
Co	Co	0.99975 0.58064 0.03443 1.17400
Co	Co	0.89199 0.56849 0.05094 1.09500
O 	O 	0.06886 0.59295 0.02521 -0.40200
O 	O 	0.06008 0.53911 0.04590 -0.45900
O 	O 	0.96536 0.62450 0.01849 -0.42800
O 	O 	0.90503 0.57301 0.98536 -0.44400
C 	C 	0.93660 0.63946 0.04729 0.31100
C 	C 	0.08992 0.56345 0.03458 0.33800
O 	O 	0.90591 0.61982 0.06945 -0.43700
O 	O 	0.97981 0.55076 0.98547 -0.44900
C 	C 	0.93883 0.55495 0.96561 0.31200
O 	O 	0.99228 0.58235 0.09852 -0.43600
O 	O 	0.93322 0.54199 0.09344 -0.48000
C 	C 	0.96433 0.55905 0.11788 0.30000
S 	S 	0.91679 0.47653 0.60093 -0.00400
C 	C 	0.95135 0.48470 0.64680 -0.01900
C 	C 	0.99747 0.47133 0.64113 0.00100
S 	S 	0.00383 0.45108 0.59016 -0.02200
C 	C 	0.95093 0.45390 0.56488 0.00100
C 	C 	0.94581 0.45688 0.51615 -0.01000
S 	S 	0.96425 0.42453 0.48162 -0.00100
C 	C 	0.98451 0.44556 0.43429 -0.01500
C 	C 	0.98049 0.48285 0.43749 -0.01600
S 	S 	0.95674 0.49507 0.48795 -0.00200
C 	C 	0.99973 0.41636 0.29867 0.01600
C 	C 	0.95444 0.41939 0.31715 -0.03800
C 	C 	0.94892 0.42442 0.36327 -0.04300
C 	C 	0.98869 0.42736 0.39101 0.02800
C 	C 	0.03359 0.42094 0.37319 -0.05000
C 	C 	0.03913 0.41555 0.32713 -0.04400
H 	H 	0.92375 0.41981 0.29550 0.03800
H 	H 	0.91404 0.42906 0.37684 0.04200
H 	H 	0.06446 0.42280 0.39444 0.04100
H 	H 	0.07420 0.41256 0.31327 0.04000
C 	C 	0.97578 0.53024 0.30807 0.00500
C 	C 	0.01945 0.52363 0.32859 -0.04000
C 	C 	0.02135 0.51200 0.37326 -0.05200
C 	C 	0.97958 0.50623 0.39751 0.02900
C 	C 	0.93618 0.51555 0.37808 -0.04700
C 	C 	0.93426 0.52736 0.33347 -0.03500
H 	H 	0.05173 0.52599 0.30937 0.03600
H 	H 	0.05505 0.50501 0.38801 0.04200
H 	H 	0.90370 0.51122 0.39647 0.04200
H 	H 	0.90041 0.53294 0.31812 0.03600
C 	C 	0.91927 0.51064 0.78177 -0.00400
C 	C 	0.91850 0.47491 0.76830 -0.03100
C 	C 	0.92411 0.46639 0.72301 -0.04500
C 	C 	0.93146 0.49350 0.69100 0.02500
C 	C 	0.92847 0.52922 0.70397 -0.04700
C 	C 	0.92254 0.53779 0.74922 -0.03200
H 	H 	0.91554 0.45376 0.79312 0.03800
H 	H 	0.92596 0.43870 0.71321 0.04500
H 	H 	0.93375 0.55032 0.67945 0.04400
H 	H 	0.92284 0.56546 0.75923 0.03900
C 	C 	0.06456 0.45033 0.76558 -0.00200
C 	C 	0.05887 0.48566 0.75068 -0.03600
C 	C 	0.04258 0.49270 0.70725 -0.04000
C 	C 	0.02964 0.46452 0.67916 0.01000
C 	C 	0.03970 0.42937 0.69241 -0.04300
C 	C 	0.05765 0.42234 0.73527 -0.03600
H 	H 	0.06437 0.50757 0.77354 0.03800
H 	H 	0.03627 0.52000 0.69679 0.04000
H 	H 	0.03068 0.40737 0.67074 0.04100
H 	H 	0.06344 0.39502 0.74587 0.03800
Co	Co	0.01361 0.39966 0.02059 1.16900
Co	Co	0.03454 0.47907 0.03611 1.12400
O 	O 	0.00522 0.34683 0.00840 -0.38900
O 	O 	0.06154 0.35618 0.05409 -0.32200
O 	O 	0.96412 0.42443 0.98608 -0.39500
O 	O 	0.05049 0.44851 0.08868 -0.46300
C 	C 	0.94346 0.45330 0.00126 0.25500
C 	C 	0.03802 0.33252 0.03236 0.28900
O 	O 	0.96309 0.47184 0.03357 -0.42100
O 	O 	0.99116 0.40913 0.08023 -0.42800
C 	C 	0.01808 0.42795 0.10659 0.30600
O 	O 	0.06598 0.41179 0.98218 -0.43300
O 	O 	0.05084 0.47109 0.97229 -0.43400
C 	C 	0.06512 0.44035 0.95648 0.30900
C 	C 	0.95508 0.91746 0.15330 0.10100
N 	N 	0.94767 0.95089 0.13816 -0.17200
C 	C 	0.90388 0.96005 0.15107 0.10100
C 	C 	0.87666 0.98794 0.12733 -0.07500
C 	C 	0.89487 0.02487 0.12530 0.08700
C 	C 	0.83369 0.97825 0.10220 0.04100
C 	C 	0.83655 0.95447 0.06624 -0.05800
C 	C 	0.79681 0.94767 0.03996 -0.03300
C 	C 	0.75382 0.96443 0.04966 -0.00200
C 	C 	0.79046 0.99428 0.11265 -0.05700
N 	N 	0.93364 0.03503 0.14801 -0.12700
C 	C 	0.88522 0.04843 0.09049 -0.06300
C 	C 	0.94818 0.06551 0.12816 0.08400
C 	C 	0.99679 0.07911 0.13319 -0.05900
C 	C 	0.00779 0.11624 0.11999 0.02300
C 	C 	0.99292 0.17961 0.12686 -0.02400
C 	C 	0.03923 0.12317 0.08461 -0.05500
C 	C 	0.04707 0.15819 0.07007 -0.03100
C 	C 	0.02366 0.18651 0.09094 -0.01400
N 	N 	0.04093 0.02218 0.13519 -0.17100
C 	C 	0.08533 0.01285 0.14605 0.09900
C 	C 	0.10730 0.04023 0.16890 -0.06400
C 	C 	0.07465 0.06741 0.17195 -0.06000
C 	C 	0.11133 0.98517 0.12117 -0.07600
C 	C 	0.15505 0.99457 0.09677 0.04200
C 	C 	0.23871 0.98591 0.08384 -0.03200
C 	C 	0.23795 0.01258 0.05057 -0.00600
C 	C 	0.19561 0.03018 0.04045 -0.03300
C 	C 	0.15432 0.02124 0.06350 -0.06100
N 	N 	0.05571 0.93763 0.14457 -0.12900
C 	C 	0.06493 0.90008 0.08675 -0.06200
C 	C 	0.03935 0.90784 0.12497 0.08100
C 	C 	0.99139 0.89394 0.13359 -0.07300
C 	C 	0.97982 0.85671 0.12198 0.05600
C 	C 	0.00566 0.82854 0.14100 -0.08400
C 	C 	0.99631 0.79346 0.12849 -0.00300
C 	C 	0.96107 0.78625 0.09678 -0.01900
C 	C 	0.93464 0.81436 0.07831 -0.02100
C 	C 	0.94405 0.84949 0.09079 -0.06700
C 	C 	0.91584 0.90513 0.17635 -0.06300
C 	C 	0.88307 0.93234 0.17483 -0.06300
C 	C 	0.75064 0.98734 0.08656 -0.03100
C 	C 	0.91933 0.07444 0.09236 -0.06000
C 	C 	0.03430 0.05537 0.15077 0.08900
C 	C 	0.09895 0.92610 0.08306 -0.06500
C 	C 	0.09249 0.94845 0.11926 0.08700
C 	C 	0.19739 0.97692 0.10684 -0.06000
H 	H 	0.96488 0.96199 0.11035 0.09300
H 	H 	0.02232 0.01146 0.10819 0.08700
H 	H 	0.01672 0.77190 0.14309 0.02500
H 	H 	0.90740 0.80905 0.05376 0.03200
H 	H 	0.03318 0.83386 0.16526 0.05100
H 	H 	0.92398 0.87109 0.07585 0.04500
H 	H 	0.79961 0.92991 0.01161 0.03400
H 	H 	0.78790 0.01246 0.14060 0.04500
H 	H 	0.71745 0.00005 0.09466 0.03400
H 	H 	0.86981 0.94191 0.05804 0.04200
H 	H 	0.07100 0.16330 0.04241 0.03400
H 	H 	0.05698 0.10140 0.06796 0.04000
C 	C 	0.98496 0.14461 0.14128 -0.04700
H 	H 	0.97473 0.20132 0.14317 0.03800
H 	H 	0.27128 0.97219 0.09183 0.03200
H 	H 	0.19829 0.95638 0.13259 0.04500
H 	H 	0.12176 0.03499 0.05549 0.04200
H 	H 	0.19478 0.05089 0.01490 0.03300
H 	H 	0.90708 0.87732 0.18135 0.04800
H 	H 	0.84541 0.92840 0.17798 0.04800
H 	H 	0.86596 0.04167 0.06035 0.04600
H 	H 	0.93016 0.09056 0.06386 0.04600
H 	H 	0.14508 0.04411 0.17048 0.04800
H 	H 	0.08369 0.09516 0.17649 0.04600
H 	H 	0.05157 0.88494 0.05872 0.04100
H 	H 	0.11560 0.93386 0.05176 0.04200
H 	H 	0.96071 0.13949 0.16868 0.04500
C 	C 	0.05763 0.28368 0.08680 0.01000
C 	C 	0.03695 0.29466 0.04609 -0.07800
C 	C 	0.01404 0.26950 0.01912 -0.01700
C 	C 	0.01076 0.23397 0.03326 -0.06500
C 	C 	0.03030 0.22329 0.07448 0.02700
C 	C 	0.05415 0.24817 0.10097 -0.06500
H 	H 	0.07562 0.30272 0.10788 0.03900
H 	H 	0.99846 0.27751 0.98739 0.06300
H 	H 	0.99236 0.21489 0.01255 0.04800
H 	H 	0.06948 0.24010 0.13278 0.04500
C 	C 	0.10517 0.46069 0.83892 -0.06900
C 	C 	0.07076 0.44257 0.81400 0.02800
C 	C 	0.03883 0.41993 0.83629 -0.06900
C 	C 	0.03984 0.41680 0.88300 0.01900
C 	C 	0.07203 0.43683 0.90802 -0.09500
C 	C 	0.10537 0.45819 0.88580 0.02100
H 	H 	0.13053 0.47775 0.82210 0.04700
H 	H 	0.01175 0.40612 0.81759 0.04500
H 	H 	0.01370 0.40048 0.89993 0.02800
H 	H 	0.13039 0.47377 0.90490 0.02900
C 	C 	0.99047 0.39524 0.17523 0.02400
C 	C 	0.01417 0.42445 0.15586 -0.10000
C 	C 	0.03411 0.45041 0.18376 0.01600
C 	C 	0.03036 0.44724 0.23035 -0.06300
C 	C 	0.00621 0.41832 0.24962 0.01000
C 	C 	0.98643 0.39226 0.22190 -0.05800
H 	H 	0.97531 0.37480 0.15422 0.03800
H 	H 	0.05184 0.47336 0.16936 0.03000
H 	H 	0.04525 0.46771 0.25149 0.04500
H 	H 	0.96782 0.36978 0.23651 0.04500
C 	C 	0.98304 0.69604 0.04596 0.02600
C 	C 	0.94129 0.67784 0.05718 -0.10000
C 	C 	0.90511 0.69603 0.07969 0.02100
C 	C 	0.91116 0.73168 0.09181 -0.07300
C 	C 	0.95336 0.74944 0.08153 0.03400
C 	C 	0.98898 0.73162 0.05807 -0.06600
H 	H 	0.01131 0.68244 0.02868 0.02500
H 	H 	0.87250 0.68255 0.08810 0.02600
H 	H 	0.88338 0.74530 0.10977 0.04600
H 	H 	0.02154 0.74523 0.04973 0.04000
C 	C 	0.96139 0.50880 0.85513 -0.06600
C 	C 	0.92207 0.51947 0.82988 0.03000
C 	C 	0.88723 0.54067 0.84972 -0.06900
C 	C 	0.89225 0.55186 0.89417 0.01900
C 	C 	0.93228 0.54197 0.91918 -0.09300
C 	C 	0.96652 0.51996 0.89947 0.01800
H 	H 	0.98855 0.49253 0.84005 0.05400
H 	H 	0.85661 0.54888 0.83053 0.04600
H 	H 	0.86528 0.56850 0.90888 0.03200
H 	H 	0.99731 0.51174 0.91830 0.04800
C 	C 	0.99464 0.56807 0.24110 -0.06200
C 	C 	0.97326 0.53753 0.25934 0.02400
C 	C 	0.95014 0.51355 0.23096 -0.06600
C 	C 	0.94820 0.52012 0.18473 0.01300
C 	C 	0.96888 0.55102 0.16641 -0.10100
C 	C 	0.99241 0.57484 0.19488 0.02300
H 	H 	0.01265 0.58670 0.26275 0.04000
H 	H 	0.93423 0.48958 0.24466 0.04700
H 	H 	0.93077 0.50110 0.16320 0.03100
H 	H 	0.00840 0.59884 0.18136 0.03000
C 	C 	0.65114 0.98310 0.97234 0.01200
C 	C 	0.63202 0.94892 0.96724 -0.10000
C 	C 	0.65409 0.91958 0.98792 0.04000
C 	C 	0.69409 0.92460 0.01454 -0.08300
C 	C 	0.71257 0.95892 0.02039 0.00800
C 	C 	0.69131 0.98807 0.99866 -0.02500
H 	H 	0.63445 0.00591 0.95644 0.03200
H 	H 	0.63958 0.89307 0.98438 0.03500
H 	H 	0.71028 0.90192 0.03116 0.04600
H 	H 	0.70560 0.01462 0.00261 0.02600
C 	C 	0.44318 0.98453 0.72325 -0.06800
C 	C 	0.47973 0.96861 0.69868 0.03000
C 	C 	0.51232 0.94647 0.72081 -0.07100
C 	C 	0.50791 0.93982 0.76685 0.02600
C 	C 	0.47050 0.95479 0.79101 -0.10300
C 	C 	0.43841 0.97741 0.76916 0.01800
H 	H 	0.41867 0.00251 0.70680 0.04500
H 	H 	0.54069 0.93411 0.70224 0.04800
H 	H 	0.53284 0.92229 0.78351 0.03200
H 	H 	0.40983 0.98950 0.78774 0.01100
C 	C 	0.48134 0.97070 0.10801 -0.07100
C 	C 	0.43760 0.97812 0.12780 0.03300
C 	C 	0.39635 0.97618 0.10198 -0.07400
C 	C 	0.39864 0.96549 0.05715 0.02900
C 	C 	0.44223 0.95668 0.03786 -0.11900
C 	C 	0.48366 0.95995 0.06328 0.03300
H 	H 	0.51345 0.97278 0.12750 0.05000
H 	H 	0.36248 0.98223 0.11689 0.04600
H 	H 	0.36648 0.96335 0.03775 0.01700
H 	H 	0.51763 0.95417 0.04839 0.03300
C 	C 	0.32858 0.02374 0.95877 -0.00100
C 	C 	0.36450 0.04202 0.98144 -0.06600
C 	C 	0.35870 0.05037 0.02703 -0.01000
C 	C 	0.31745 0.04063 0.04959 -0.05400
C 	C 	0.28161 0.02248 0.02686 0.00200
C 	C 	0.28730 0.01405 0.98140 -0.04700
H 	H 	0.33257 0.01711 0.92365 0.01300
H 	H 	0.38651 0.06375 0.04524 0.03900
H 	H 	0.31343 0.04701 0.08479 0.04100
H 	H 	0.25978 0.99996 0.96366 0.03400
C 	C 	0.45212 0.09625 0.78471 0.01800
C 	C 	0.48494 0.07255 0.80392 -0.09400
C 	C 	0.51573 0.05361 0.77587 0.01800
C 	C 	0.51381 0.05842 0.72936 -0.06600
C 	C 	0.48082 0.08192 0.71025 0.02900
C 	C 	0.45014 0.10092 0.73813 -0.06800
H 	H 	0.42792 0.11090 0.80577 0.03800
H 	H 	0.54100 0.03503 0.79002 0.03800
H 	H 	0.53741 0.04341 0.70811 0.04700
H 	H 	0.42458 0.11914 0.72371 0.04700
C 	C 	0.58477 0.03681 0.06738 0.01400
C 	C 	0.54316 0.05138 0.04970 -0.08400
C 	C 	0.50956 0.06616 0.07846 0.01400
C 	C 	0.51705 0.06597 0.12470 -0.06400
C 	C 	0.55829 0.05090 0.14274 0.02700
C 	C 	0.59245 0.03670 0.11380 -0.06700
H 	H 	0.61078 0.02521 0.04534 0.02500
H 	H 	0.47713 0.07713 0.06502 0.02900
H 	H 	0.49025 0.07672 0.14665 0.04500
H 	H 	0.62444 0.02503 0.12728 0.04400
C 	C 	0.52231 0.25974 0.93864 -0.06600
C 	C 	0.54133 0.27020 0.89712 0.03100
C 	C 	0.55855 0.24434 0.86762 -0.06600
C 	C 	0.55526 0.20819 0.87889 0.01700
C 	C 	0.53442 0.19764 0.91969 -0.08600
C 	C 	0.51889 0.22364 0.94989 0.01700
H 	H 	0.50901 0.27954 0.96166 0.04900
H 	H 	0.57354 0.25221 0.83559 0.04800
H 	H 	0.56776 0.18844 0.85542 0.04000
H 	H 	0.50347 0.21587 0.98178 0.04000
C 	C 	0.20667 0.57305 0.97467 -0.07900
C 	C 	0.22123 0.53742 0.97185 0.03600
C 	C 	0.19382 0.51050 0.99184 -0.06100
C 	C 	0.15174 0.51907 0.01366 0.01900
C 	C 	0.13650 0.55467 0.01548 -0.14000
C 	C 	0.16471 0.58166 0.99660 0.05100
H 	H 	0.22759 0.59403 0.95937 0.05100
H 	H 	0.20499 0.48295 0.99024 0.04900
H 	H 	0.13071 0.49799 0.02855 -0.00900
H 	H 	0.15377 0.60926 0.99826 0.03300
C 	C 	0.82215 0.49411 0.98972 -0.01400
C 	C 	0.81045 0.48475 0.94562 0.00100
C 	C 	0.84310 0.46627 0.91928 -0.04300
C 	C 	0.88663 0.45623 0.93733 -0.01100
C 	C 	0.89803 0.46482 0.98188 -0.02900
C 	C 	0.86577 0.48422 0.00779 -0.07300
H 	H 	0.79723 0.50865 0.01014 -0.00600
H 	H 	0.83462 0.45945 0.88494 0.04300
H 	H 	0.91167 0.44211 0.91656 0.04600
H 	H 	0.87416 0.49118 0.04209 0.01400
C 	C 	0.42558 0.80512 0.87401 0.02200
C 	C 	0.43754 0.82138 0.91464 -0.09700
C 	C 	0.45273 0.80042 0.95104 0.02200
C 	C 	0.45878 0.76370 0.94595 -0.06900
C 	C 	0.44963 0.74778 0.90439 0.03200
C 	C 	0.43145 0.76843 0.86893 -0.07000
H 	H 	0.41367 0.82113 0.84578 0.02500
H 	H 	0.46198 0.81279 0.98258 0.03100
H 	H 	0.47248 0.74792 0.97363 0.04900
H 	H 	0.42367 0.75628 0.83691 0.04700
