data_crystal

_cell_length_a 33.70516
_cell_length_b 34.01697
_cell_length_c 34.77030
_cell_angle_alpha 95.54210
_cell_angle_beta  95.54131
_cell_angle_gamma 125.47694

_symmetry_space_group_name_	'P 1'
_symmetry_space_group_name_H-M	'P 1'

loop_
_symmetry_equiv_pos_as_xyz
  x,y,z

loop_
_atom_site_label
_atom_site_type_symbol
_atom_site_fract_x
_atom_site_fract_y
_atom_site_fract_z
_atom_site_charge
C 	C 	0.97603 0.01837 0.98572 0.11200
N 	N 	0.02524 0.04284 0.98533 -0.14100
C 	C 	0.04511 0.01780 0.98193 0.11500
N 	N 	0.01571 0.96825 0.97913 -0.14000
C 	C 	0.96656 0.94364 0.97956 0.11600
N 	N 	0.94677 0.96874 0.98270 -0.14100
C 	C 	0.95099 0.00279 0.45114 0.11200
N 	N 	0.00047 0.02988 0.45114 -0.14100
C 	C 	0.02502 0.00960 0.45566 0.11800
N 	N 	0.99993 0.96204 0.46012 -0.14100
C 	C 	0.95053 0.93479 0.46038 0.11700
N 	N 	0.92605 0.95522 0.45587 -0.14000
Cu	Cu	0.65127 0.25533 0.99560 0.92700
Cu	Cu	0.68843 0.26102 0.91143 0.86600
Cu	Cu	0.67238 0.33278 0.94658 0.89600
Cu	Cu	0.65371 0.34665 0.02677 0.89300
C 	C 	0.67144 0.29163 0.07834 0.29800
O 	O 	0.57980 0.22757 0.99791 -0.36500
C 	C 	0.66294 0.30769 0.86121 0.29300
O 	O 	0.69107 0.33200 0.00020 -0.64100
O 	O 	0.64178 0.26111 0.94006 -0.64200
O 	O 	0.68039 0.21883 0.98955 -0.37600
O 	O 	0.73506 0.27152 0.95420 -0.44400
O 	O 	0.64713 0.31026 0.07037 -0.38600
O 	O 	0.70725 0.40321 0.95474 -0.38900
C 	C 	0.70531 0.43059 0.98310 0.29300
C 	C 	0.55982 0.24859 0.98479 0.28200
O 	O 	0.58853 0.29505 0.98157 -0.39700
O 	O 	0.68322 0.41287 0.01311 -0.39600
O 	O 	0.67127 0.26199 0.05074 -0.36500
C 	C 	0.72198 0.23823 0.97629 0.29000
O 	O 	0.65864 0.33235 0.89026 -0.38200
O 	O 	0.65866 0.26728 0.86504 -0.42000
H 	H 	0.72725 0.35345 0.01056 0.16300
H 	H 	0.60709 0.23976 0.92547 0.17300
Cu	Cu	0.72607 0.33812 0.44808 0.92700
Cu	Cu	0.71899 0.30240 0.53279 0.86600
Cu	Cu	0.64470 0.31355 0.49462 0.89600
Cu	Cu	0.63178 0.33083 0.41369 0.89300
C 	C 	0.69142 0.31645 0.36480 0.29800
O 	O 	0.75171 0.40836 0.44504 -0.36400
C 	C 	0.66941 0.32680 0.58088 0.29400
O 	O 	0.64822 0.29590 0.44167 -0.64100
O 	O 	0.71775 0.34704 0.50291 -0.64200
O 	O 	0.76455 0.31104 0.45620 -0.37600
O 	O 	0.71068 0.25650 0.49101 -0.44300
O 	O 	0.67056 0.33881 0.37134 -0.38600
O 	O 	0.57317 0.27603 0.48473 -0.38900
C 	C 	0.54524 0.27575 0.45506 0.29300
C 	C 	0.72815 0.42627 0.45656 0.28100
O 	O 	0.68108 0.39612 0.45886 -0.39600
O 	O 	0.56391 0.29929 0.42593 -0.39700
O 	O 	0.72183 0.31864 0.39337 -0.36600
C 	C 	0.74533 0.27008 0.46988 0.28900
O 	O 	0.64265 0.32686 0.55044 -0.38200
O 	O 	0.71080 0.33186 0.57798 -0.42300
H 	H 	0.62804 0.26009 0.43143 0.16200
H 	H 	0.73771 0.38144 0.51731 0.17400
C 	C 	0.65771 0.33001 0.62021 -0.11000
C 	C 	0.62145 0.28713 0.63347 0.11900
C 	C 	0.61928 0.28941 0.67368 -0.09700
C 	C 	0.65189 0.33388 0.70050 -0.00000
C 	C 	0.68422 0.37767 0.68650 0.05700
C 	C 	0.68741 0.37519 0.64648 -0.02100
N 	N 	0.58926 0.24363 0.60794 -0.20500
H 	H 	0.59341 0.25614 0.68433 0.05400
C 	C 	0.65715 0.33285 0.74312 -0.00100
N 	N 	0.71228 0.42203 0.71131 -0.19200
H 	H 	0.71403 0.40830 0.63598 0.03900
C 	C 	0.69713 0.33459 0.76158 -0.09500
C 	C 	0.70130 0.32953 0.80103 0.11700
C 	C 	0.66347 0.32034 0.82182 -0.10900
C 	C 	0.62439 0.32038 0.80384 -0.02100
C 	C 	0.62117 0.32718 0.76473 0.05700
H 	H 	0.72512 0.33987 0.74514 0.05300
N 	N 	0.74206 0.33442 0.81894 -0.20200
H 	H 	0.59599 0.31435 0.82009 0.04300
N 	N 	0.58381 0.32858 0.74829 -0.19200
H 	H 	0.76892 0.33946 0.80297 0.07600
H 	H 	0.74854 0.33530 0.84909 0.06000
H 	H 	0.55677 0.32324 0.76416 0.08100
H 	H 	0.58192 0.33624 0.72009 0.08700
H 	H 	0.73731 0.45406 0.70105 0.08000
H 	H 	0.70827 0.42535 0.74061 0.08600
H 	H 	0.58848 0.24114 0.57768 0.07800
H 	H 	0.56353 0.21186 0.61817 0.07900
C 	C 	0.68695 0.29306 0.11996 -0.10700
C 	C 	0.71308 0.33739 0.14789 0.12100
C 	C 	0.71675 0.33578 0.18817 -0.09500
C 	C 	0.69777 0.29117 0.20093 0.00000
C 	C 	0.67699 0.24779 0.17300 0.05800
C 	C 	0.67087 0.24894 0.13269 -0.02200
N 	N 	0.73551 0.38155 0.13624 -0.20200
H 	H 	0.73417 0.36928 0.20967 0.05600
C 	C 	0.69549 0.28957 0.24317 0.00000
N 	N 	0.66307 0.20514 0.18467 -0.19200
H 	H 	0.65232 0.21519 0.11126 0.04900
C 	C 	0.64976 0.26919 0.25507 -0.09500
C 	C 	0.64716 0.27317 0.29516 0.12100
C 	C 	0.69151 0.30093 0.32368 -0.10800
C 	C 	0.73688 0.31849 0.31188 -0.02200
C 	C 	0.73913 0.31216 0.27182 0.05800
H 	H 	0.61613 0.25043 0.23306 0.05600
N 	N 	0.60210 0.24950 0.30608 -0.20200
H 	H 	0.77071 0.33832 0.33379 0.04800
N 	N 	0.78308 0.32762 0.26110 -0.19200
H 	H 	0.56962 0.23088 0.28487 0.08000
H 	H 	0.59871 0.24716 0.33546 0.07000
H 	H 	0.81545 0.34571 0.28236 0.08200
H 	H 	0.78526 0.32031 0.23182 0.08600
H 	H 	0.64626 0.17288 0.16390 0.08200
H 	H 	0.67039 0.20394 0.21424 0.08600
H 	H 	0.73821 0.38443 0.10683 0.07000
H 	H 	0.75285 0.41393 0.15698 0.08000
C 	C 	0.92374 0.88316 0.46556 -0.02200
C 	C 	0.94819 0.86900 0.48887 -0.02000
C 	C 	0.92478 0.81948 0.49073 -0.04900
C 	C 	0.87652 0.78356 0.46958 0.01300
C 	C 	0.85133 0.79779 0.44740 -0.04900
C 	C 	0.87483 0.84736 0.44536 -0.02000
C 	C 	0.85336 0.73093 0.46918 0.00500
C 	C 	0.83958 0.69899 0.43359 -0.04100
C 	C 	0.82034 0.64984 0.43343 -0.03700
C 	C 	0.81498 0.63221 0.46888 -0.00100
C 	C 	0.82834 0.66403 0.50444 -0.03800
C 	C 	0.84730 0.71313 0.50458 -0.04100
C 	C 	0.79497 0.58032 0.46867 0.02500
C 	C 	0.81868 0.56131 0.45299 -0.06600
C 	C 	0.79788 0.51141 0.45027 0.01100
C 	C 	0.75310 0.47996 0.46329 -0.08800
C 	C 	0.73053 0.49955 0.48045 0.01000
C 	C 	0.75123 0.54938 0.48293 -0.06600
H 	H 	0.98560 0.89629 0.50514 0.03900
H 	H 	0.94451 0.80892 0.50800 0.04100
H 	H 	0.81387 0.77038 0.43125 0.04100
H 	H 	0.85550 0.85771 0.42728 0.04000
H 	H 	0.84437 0.71241 0.40614 0.03900
H 	H 	0.80969 0.62548 0.40578 0.03800
H 	H 	0.82433 0.65080 0.53196 0.03700
H 	H 	0.85765 0.73742 0.53219 0.03800
H 	H 	0.85285 0.58506 0.44240 0.04500
H 	H 	0.81601 0.49708 0.43724 0.03700
H 	H 	0.69652 0.47607 0.49130 0.03200
H 	H 	0.73278 0.56375 0.49528 0.04500
C 	C 	0.92471 0.02531 0.44661 -0.02000
C 	C 	0.93787 0.05923 0.42137 -0.02100
C 	C 	0.91601 0.08372 0.41947 -0.04900
C 	C 	0.88084 0.07464 0.44281 0.01200
C 	C 	0.86663 0.03976 0.46723 -0.04800
C 	C 	0.88839 0.01513 0.46907 -0.02400
C 	C 	0.86048 0.10314 0.44294 0.00500
C 	C 	0.89220 0.15444 0.45514 -0.04200
C 	C 	0.87279 0.18128 0.45674 -0.03700
C 	C 	0.82148 0.15707 0.44626 -0.00300
C 	C 	0.78983 0.10589 0.43337 -0.03700
C 	C 	0.80925 0.07904 0.43170 -0.04200
C 	C 	0.80063 0.18486 0.45117 0.02700
C 	C 	0.81198 0.22107 0.42871 -0.06800
C 	C 	0.79358 0.24858 0.43444 0.01500
C 	C 	0.76380 0.24022 0.46285 -0.09600
C 	C 	0.75217 0.20356 0.48501 0.01100
C 	C 	0.77048 0.17609 0.47917 -0.07000
H 	H 	0.96532 0.06691 0.40346 0.03800
H 	H 	0.92681 0.11016 0.40020 0.04100
H 	H 	0.83952 0.03250 0.48538 0.04000
H 	H 	0.87799 0.98917 0.48874 0.04200
H 	H 	0.93179 0.17339 0.46395 0.03900
H 	H 	0.89749 0.22074 0.46688 0.03700
H 	H 	0.75018 0.08689 0.42508 0.03700
H 	H 	0.78450 0.03951 0.42195 0.03800
H 	H 	0.83509 0.22797 0.40689 0.04600
H 	H 	0.80248 0.27628 0.41680 0.03800
H 	H 	0.72944 0.19671 0.50712 0.02000
H 	H 	0.76172 0.14837 0.49677 0.04300
C 	C 	0.07893 0.03928 0.45621 -0.02200
C 	C 	0.10869 0.03055 0.47931 -0.02000
C 	C 	0.15952 0.05789 0.47920 -0.04900
C 	C 	0.18120 0.09436 0.45616 0.01300
C 	C 	0.15166 0.10344 0.43332 -0.04900
C 	C 	0.10075 0.07602 0.43330 -0.02000
C 	C 	0.23474 0.12262 0.45563 0.00500
C 	C 	0.26965 0.15166 0.49044 -0.04100
C 	C 	0.32031 0.17706 0.49022 -0.03700
C 	C 	0.33649 0.17372 0.45517 -0.00200
C 	C 	0.30164 0.14511 0.42028 -0.03700
C 	C 	0.25096 0.11962 0.42051 -0.04100
C 	C 	0.38987 0.19978 0.45509 0.02700
C 	C 	0.41652 0.18617 0.47592 -0.06800
C 	C 	0.46713 0.21082 0.47584 0.01500
C 	C 	0.49164 0.24945 0.45495 -0.08900
C 	C 	0.46481 0.26300 0.43411 0.01400
C 	C 	0.41418 0.23822 0.43417 -0.06800
H 	H 	0.09249 0.00273 0.49744 0.03800
H 	H 	0.18202 0.05057 0.49688 0.04100
H 	H 	0.16812 0.13164 0.41553 0.04100
H 	H 	0.07824 0.08295 0.41514 0.03900
H 	H 	0.25749 0.15441 0.51765 0.03900
H 	H 	0.34699 0.19928 0.51725 0.03800
H 	H 	0.31381 0.14227 0.39310 0.03700
H 	H 	0.22429 0.09714 0.39352 0.03900
H 	H 	0.39795 0.15634 0.49200 0.04500
H 	H 	0.48715 0.19963 0.49177 0.03000
H 	H 	0.48322 0.29299 0.41818 0.03200
H 	H 	0.39390 0.24909 0.41814 0.04500
C 	C 	0.93501 0.88993 0.97738 -0.02200
C 	C 	0.89540 0.86777 0.99783 -0.02000
C 	C 	0.86699 0.81719 0.99719 -0.05000
C 	C 	0.87792 0.78831 0.97618 0.01400
C 	C 	0.91692 0.81024 0.95521 -0.04900
C 	C 	0.94527 0.86077 0.95573 -0.02000
C 	C 	0.84959 0.73543 0.97713 0.00400
C 	C 	0.85090 0.71985 0.01286 -0.04000
C 	C 	0.82590 0.66984 0.01353 -0.03600
C 	C 	0.79948 0.63502 0.97849 -0.00300
C 	C 	0.79763 0.65052 0.94283 -0.03700
C 	C 	0.82256 0.70053 0.94215 -0.04100
C 	C 	0.77475 0.58248 0.97902 0.02700
C 	C 	0.73481 0.55719 0.99868 -0.06900
C 	C 	0.71201 0.50760 0.99990 0.01400
C 	C 	0.72905 0.48284 0.98150 -0.08900
C 	C 	0.76894 0.50824 0.96167 0.01500
C 	C 	0.79163 0.55780 0.96044 -0.06800
H 	H 	0.88719 0.88982 0.01478 0.04000
H 	H 	0.83677 0.80051 0.01331 0.04200
H 	H 	0.92561 0.78821 0.93890 0.04100
H 	H 	0.97528 0.87724 0.93941 0.03900
H 	H 	0.87184 0.74654 0.03998 0.03900
H 	H 	0.82759 0.65818 0.04118 0.03700
H 	H 	0.77709 0.62384 0.91567 0.03800
H 	H 	0.82112 0.71220 0.91446 0.03900
H 	H 	0.72141 0.57594 0.01296 0.04600
H 	H 	0.68094 0.48838 0.01491 0.03200
H 	H 	0.78276 0.48979 0.94761 0.03100
H 	H 	0.82263 0.57716 0.94536 0.04500
C 	C 	0.75271 0.22087 0.98440 -0.09600
C 	C 	0.73244 0.17577 0.99687 0.01100
C 	C 	0.76006 0.15726 0.00092 -0.06600
C 	C 	0.80811 0.18359 0.99258 0.02500
C 	C 	0.82908 0.22941 0.98156 -0.06900
C 	C 	0.80163 0.24808 0.97762 0.01100
C 	C 	0.83523 0.16185 0.99297 -0.00300
C 	C 	0.85409 0.15744 0.02874 -0.03700
C 	C 	0.87926 0.13617 0.02897 -0.04100
C 	C 	0.88550 0.11892 0.99339 0.00400
C 	C 	0.86676 0.12355 0.95764 -0.04200
C 	C 	0.84184 0.14502 0.95745 -0.03800
C 	C 	0.91041 0.09480 0.99345 0.01100
C 	C 	0.89075 0.05190 0.00914 -0.04700
C 	C 	0.91269 0.02748 0.00727 -0.02300
C 	C 	0.95436 0.04554 0.98942 -0.02100
C 	C 	0.97451 0.08900 0.97432 -0.02400
C 	C 	0.95270 0.11355 0.97644 -0.04800
H 	H 	0.69492 0.15445 0.00245 0.03600
H 	H 	0.74369 0.12190 0.00960 0.04500
H 	H 	0.86637 0.25019 0.97544 0.04300
H 	H 	0.81817 0.28335 0.96876 0.02700
H 	H 	0.84924 0.17048 0.05630 0.03800
H 	H 	0.89377 0.13296 0.05673 0.03900
H 	H 	0.87108 0.11004 0.93002 0.03800
H 	H 	0.82726 0.14819 0.92970 0.03500
H 	H 	0.85809 0.03712 0.02232 0.04000
H 	H 	0.89718 0.99444 0.01959 0.04100
H 	H 	0.00652 0.10332 0.96036 0.04100
H 	H 	0.96833 0.14684 0.96446 0.04000
C 	C 	0.09851 0.04429 0.98168 -0.02300
C 	C 	0.12484 0.02879 0.00006 -0.02000
C 	C 	0.17499 0.05262 0.99861 -0.05100
C 	C 	0.19936 0.09223 0.97882 0.01400
C 	C 	0.17328 0.10806 0.96070 -0.05000
C 	C 	0.12306 0.08425 0.96216 -0.02000
C 	C 	0.25216 0.11698 0.97708 0.00300
C 	C 	0.28807 0.14208 0.01176 -0.04000
C 	C 	0.33772 0.16265 0.01055 -0.03700
C 	C 	0.35187 0.15827 0.97465 -0.00300
C 	C 	0.31614 0.13408 0.93983 -0.03800
C 	C 	0.26644 0.11350 0.94104 -0.04100
C 	C 	0.40390 0.17815 0.97374 0.02600
C 	C 	0.42567 0.15929 0.99371 -0.06800
C 	C 	0.47617 0.18099 0.99598 0.01200
C 	C 	0.50545 0.22191 0.97831 -0.09000
C 	C 	0.48304 0.23932 0.95679 0.01100
C 	C 	0.43252 0.21759 0.95462 -0.06700
H 	H 	0.10647 0.99832 0.01553 0.04200
H 	H 	0.19487 0.04018 0.01269 0.04200
H 	H 	0.19188 0.13873 0.94545 0.04100
H 	H 	0.10312 0.09639 0.94765 0.03800
H 	H 	0.27741 0.14518 0.03967 0.03900
H 	H 	0.36515 0.18168 0.03752 0.03800
H 	H 	0.32675 0.13061 0.91197 0.03700
H 	H 	0.23893 0.09412 0.91412 0.03900
H 	H 	0.40367 0.12842 0.00814 0.04600
H 	H 	0.49274 0.16689 0.01245 0.03800
H 	H 	0.50488 0.27019 0.94233 0.03100
H 	H 	0.41588 0.23211 0.93883 0.04500
