data_crystal

_cell_length_a 26.77612
_cell_length_b 28.01280
_cell_length_c 38.24852
_cell_angle_alpha 60.91449
_cell_angle_beta  118.78526
_cell_angle_gamma 133.20856

_symmetry_space_group_name_	'P 1'
_symmetry_space_group_name_H-M	'P 1'

loop_
_symmetry_equiv_pos_as_xyz
  x,y,z

loop_
_atom_site_label
_atom_site_type_symbol
_atom_site_fract_x
_atom_site_fract_y
_atom_site_fract_z
_atom_site_charge
Co	Co	0.08579 0.02760 0.08179 1.18200
C 	C 	0.23227 0.07748 0.09858 0.30300
Co	Co	0.12734 0.92949 0.10470 1.18000
O 	O 	0.07710 0.10299 0.06311 -0.46100
C 	C 	0.09225 0.18799 0.13587 0.30500
C 	C 	0.15261 0.90017 0.19428 0.29600
O 	O 	0.10240 0.15125 0.13189 -0.39600
O 	O 	0.18509 0.93750 0.16416 -0.37900
O 	O 	0.10936 0.90727 0.19535 -0.37500
O 	O 	0.07142 0.95282 0.10941 -0.74900
O 	O 	0.20359 0.02984 0.08198 -0.39700
O 	O 	0.19248 0.08001 0.10741 -0.40300
Co	Co	0.04149 0.99060 0.58349 1.20200
C 	C 	0.18905 0.04080 0.60276 0.27200
Co	Co	0.08406 0.89418 0.60380 1.17700
O 	O 	0.03337 0.06536 0.56803 -0.46100
C 	C 	0.04876 0.12749 0.66001 0.29600
C 	C 	0.10301 0.85713 0.69356 0.29500
O 	O 	0.00186 0.08389 0.68263 -0.38400
O 	O 	0.05820 0.10648 0.64071 -0.38500
O 	O 	0.13771 0.89659 0.66436 -0.37800
O 	O 	0.05838 0.86292 0.69420 -0.37400
O 	O 	0.02602 0.91497 0.60883 -0.75400
O 	O 	0.16284 0.99572 0.58479 -0.34900
O 	O 	0.14714 0.04044 0.61174 -0.40100
C 	C 	0.08723 0.97047 0.92892 -0.14300
C 	C 	0.10107 0.97527 0.96773 0.38100
F 	F 	0.15304 0.97118 0.99847 -0.44900
H 	H 	0.11744 0.96261 0.92389 0.12800
C 	C 	0.05785 0.00864 0.83008 0.19400
C 	C 	0.03657 0.99797 0.79166 0.05800
F 	F 	0.12038 0.06652 0.83992 -0.42200
H 	H 	0.06974 0.03650 0.76986 0.04600
C 	C 	0.08446 0.05073 0.33464 0.24600
C 	C 	0.08166 0.05874 0.29483 -0.03900
F 	F 	0.13502 0.10385 0.35233 -0.42700
H 	H 	0.11959 0.10749 0.27834 0.08000
C 	C 	0.08298 0.96304 0.47071 0.36400
C 	C 	0.08249 0.97101 0.43155 -0.13300
F 	F 	0.12964 0.95363 0.50399 -0.45200
H 	H 	0.11901 0.96919 0.42812 0.12100
C 	C 	0.14194 0.27496 0.69695 0.02400
C 	C 	0.13930 0.31169 0.65560 0.00200
C 	C 	0.12867 0.36143 0.64090 -0.05400
C 	C 	0.12473 0.37647 0.66914 0.02700
C 	C 	0.14006 0.43916 0.66308 -0.04300
S 	S 	0.11041 0.26314 0.62774 0.03000
C 	C 	0.10343 0.19629 0.66597 -0.06700
C 	C 	0.12279 0.21061 0.70286 -0.01800
H 	H 	0.12477 0.38825 0.60874 0.05300
H 	H 	0.15192 0.47862 0.63493 0.05300
H 	H 	0.11157 0.17203 0.73142 0.06400
C 	C 	0.13651 0.64067 0.75593 0.00300
C 	C 	0.08898 0.65397 0.74642 -0.05200
C 	C 	0.11616 0.71516 0.75133 0.02300
C 	C 	0.18936 0.76295 0.76282 -0.00000
S 	S 	0.11992 0.58535 0.73894 0.02100
S 	S 	0.20489 0.83769 0.74780 0.04900
C 	C 	0.12152 0.81320 0.72862 -0.06900
C 	C 	0.07801 0.74326 0.73244 -0.02100
H 	H 	0.03345 0.61983 0.73352 0.05500
H 	H 	0.02335 0.71654 0.71574 0.04900
C 	C 	0.22698 0.40299 0.21332 0.00300
C 	C 	0.20608 0.33795 0.22113 -0.05200
C 	C 	0.20236 0.32206 0.18987 0.02200
C 	C 	0.21432 0.36876 0.15153 0.00200
S 	S 	0.22526 0.43150 0.24162 0.02400
S 	S 	0.17912 0.32673 0.11749 0.03300
C 	C 	0.15243 0.25015 0.14970 -0.07300
C 	C 	0.16734 0.25527 0.18887 -0.01800
H 	H 	0.19205 0.30100 0.24976 0.06300
H 	H 	0.14432 0.21160 0.21356 0.05200
C 	C 	0.23583 0.80356 0.25826 0.00000
C 	C 	0.19196 0.70248 0.23063 0.00100
C 	C 	0.14056 0.70445 0.22977 -0.05200
C 	C 	0.16361 0.75786 0.24215 0.02200
S 	S 	0.24985 0.87546 0.24986 0.04700
C 	C 	0.16713 0.85233 0.22777 -0.07000
C 	C 	0.12497 0.78482 0.22597 -0.02300
H 	H 	0.08533 0.66912 0.21710 0.05300
H 	H 	0.07156 0.76043 0.20736 0.05100
C 	C 	0.06706 0.97630 0.01747 0.37900
O 	O 	0.06570 0.01763 0.02447 -0.40200
O 	O 	0.02254 0.98595 0.21823 -0.34500
O 	O 	0.02579 0.98691 0.52517 -0.36400
C 	C 	0.03312 0.97366 0.89704 0.02500
C 	C 	0.06048 0.98292 0.97508 -0.16200
C 	C 	0.01336 0.96080 0.85762 0.08200
C 	C 	0.03408 0.98854 0.35573 0.06600
C 	C 	0.02841 0.00476 0.27570 -0.16700
C 	C 	0.03477 0.98091 0.39691 0.01500
C 	C 	0.12667 0.33933 0.71025 0.00400
C 	C 	0.13889 0.29077 0.72521 -0.05200
S 	S 	0.17942 0.63763 0.22734 0.02000
C 	C 	0.01628 0.01736 0.23122 0.33000
C 	C 	0.03151 0.94962 0.51723 0.34000
O 	O 	0.01199 0.79027 0.62404 -0.38300
C 	C 	0.03546 0.96477 0.47560 -0.12400
C 	C 	0.15384 0.45054 0.69973 -0.01900
O 	O 	0.06321 0.92315 0.04611 -0.37100
C 	C 	0.23261 0.44673 0.17435 0.02700
N 	N 	0.18004 0.53830 0.71909 -0.13400
C 	C 	0.22392 0.42931 0.14211 -0.05500
O 	O 	0.02448 0.89407 0.54396 -0.36400
Co	Co	0.02574 0.90337 0.14635 1.19400
O 	O 	0.05683 0.82703 0.12834 -0.38700
H 	H 	0.14237 0.26378 0.75734 0.06500
C 	C 	0.20965 0.69095 0.76365 0.02800
C 	C 	0.23510 0.50224 0.20648 -0.01900
S 	S 	0.14947 0.38476 0.73810 0.02400
C 	C 	0.20354 0.62032 0.74312 -0.01800
H 	H 	0.25684 0.16995 0.55105 0.04900
H 	H 	0.22294 0.46052 0.11096 0.05200
N 	N 	0.25139 0.58429 0.22626 -0.13400
C 	C 	0.20136 0.51852 0.70619 0.12800
C 	C 	0.23693 0.50254 0.17008 -0.04400
O 	O 	0.02812 0.16929 0.12732 -0.39300
C 	C 	0.26407 0.09654 0.60788 -0.06200
Co	Co	0.02262 0.07906 0.09849 1.19400
O 	O 	0.01799 0.07134 0.20687 -0.38900
H 	H 	0.01352 0.70559 0.12959 0.06300
C 	C 	0.26319 0.74709 0.24705 0.02800
C 	C 	0.22524 0.60057 0.72660 0.12700
C 	C 	0.23677 0.75381 0.76582 -0.05300
C 	C 	0.26398 0.66450 0.24594 -0.01700
C 	C 	0.29034 0.15616 0.57669 -0.01800
C 	C 	0.24767 0.67971 0.75628 -0.04400
H 	H 	0.24877 0.54493 0.14332 0.05200
C 	C 	0.27989 0.56537 0.21882 0.12700
C 	C 	0.28664 0.79976 0.26000 -0.05400
C 	C 	0.30721 0.13288 0.10152 -0.07500
N 	N 	0.26812 0.56049 0.70144 -0.13800
C 	C 	0.29381 0.64362 0.23717 0.12600
H 	H 	0.29215 0.79524 0.76752 0.05500
C 	C 	0.30443 0.72664 0.25534 -0.04500
N 	N 	0.29200 0.64267 0.72146 -0.13700
H 	H 	0.30323 0.71650 0.75643 0.05600
S 	S 	0.32613 0.08293 0.63318 0.02100
S 	S 	0.33382 0.20624 0.06588 0.04000
C 	C 	0.31351 0.62250 0.70906 0.12800
C 	C 	0.00867 0.98953 0.94262 -0.00200
H 	H 	0.34511 0.07064 0.12994 0.03900
H 	H 	0.34231 0.83684 0.27068 0.05500
N 	N 	0.35044 0.60521 0.22273 -0.13900
C 	C 	0.35610 0.12004 0.11301 -0.01500
H 	H 	0.36111 0.75626 0.26689 0.05700
C 	C 	0.36004 0.18724 0.57671 0.02100
N 	N 	0.36440 0.68335 0.24073 -0.13700
H 	H 	0.36406 0.25582 0.51597 0.05600
C 	C 	0.97054 0.93985 0.78035 -0.21100
C 	C 	0.94930 0.90083 0.84727 -0.19100
C 	C 	0.92783 0.89045 0.80877 0.40700
H 	H 	0.91537 0.86302 0.86870 0.12800
O 	O 	0.96532 0.93063 0.71881 -0.40200
Co	Co	0.97708 0.86180 0.64417 1.18000
Co	Co	0.97774 0.03710 0.60449 1.16800
C 	C 	0.94033 0.93774 0.73691 0.38300
C 	C 	0.72143 0.33824 0.98865 0.12500
N 	N 	0.65265 0.29669 0.98995 -0.13800
C 	C 	0.62565 0.31864 0.99567 0.13000
N 	N 	0.66742 0.38243 0.99986 -0.14000
C 	C 	0.73649 0.42382 0.99935 0.12800
N 	N 	0.76344 0.40174 0.99361 -0.13600
C 	C 	0.67921 0.29970 0.49709 0.12400
N 	N 	0.61488 0.26171 0.50467 -0.13800
C 	C 	0.59350 0.29191 0.50720 0.12600
N 	N 	0.63666 0.35972 0.50260 -0.13800
C 	C 	0.70143 0.39750 0.49605 0.12600
N 	N 	0.72245 0.36751 0.49303 -0.13600
C 	C 	0.39274 0.66421 0.23356 0.12800
Co	Co	0.96308 0.95538 0.16315 1.19700
Co	Co	0.94840 0.07016 0.15001 1.15500
C 	C 	0.98858 0.79632 0.11916 0.28200
O 	O 	0.88357 0.06649 0.09160 -0.40100
O 	O 	0.97461 0.02889 0.13400 -0.79300
C 	C 	0.90905 0.10488 0.05833 0.29300
O 	O 	0.96673 0.87732 0.17955 -0.45500
C 	C 	0.82860 0.92257 0.16079 0.31400
O 	O 	0.99915 0.97865 0.11065 -0.57500
O 	O 	0.95758 0.10858 0.05331 -0.38700
O 	O 	0.86888 0.97522 0.17597 -0.37600
O 	O 	0.85635 0.90231 0.15562 -0.36900
O 	O 	0.96307 0.81712 0.12607 -0.38400
Co	Co	0.90829 0.90574 0.66251 1.19200
Co	Co	0.89661 0.01548 0.65883 1.15100
C 	C 	0.94350 0.75904 0.61454 0.28500
O 	O 	0.90365 0.08995 0.60482 -0.41400
O 	O 	0.92501 0.98187 0.63793 -0.74900
C 	C 	0.88232 0.07973 0.56867 0.30000
O 	O 	0.91211 0.82905 0.67580 -0.45800
C 	C 	0.76709 0.87808 0.64833 0.30000
O 	O 	0.95165 0.93786 0.61084 -0.57700
O 	O 	0.90984 0.06247 0.56037 -0.39400
O 	O 	0.79569 0.94333 0.63340 -0.37600
O 	O 	0.80117 0.85285 0.65765 -0.36500
O 	O 	0.88995 0.94594 0.71569 -0.38800
O 	O 	0.91698 0.78020 0.62004 -0.38500
C 	C 	0.99495 0.98488 0.90372 0.24700
F 	F 	0.94354 0.98970 0.87281 -0.42000
H 	H 	0.97733 0.99580 0.94787 0.07300
F 	F 	0.86418 0.83366 0.79839 -0.45000
C 	C 	0.98287 0.93365 0.33744 -0.17700
C 	C 	0.98009 0.94163 0.29758 0.38900
F 	F 	0.92829 0.88901 0.27948 -0.45400
H 	H 	0.94445 0.88521 0.35379 0.12100
C 	C 	0.98824 0.98413 0.40157 0.28400
C 	C 	0.98874 0.97624 0.44080 -0.07400
F 	F 	0.94238 0.99453 0.36815 -0.42400
H 	H 	0.95181 0.97753 0.44422 0.09500
C 	C 	0.59473 0.74782 0.68732 0.00200
C 	C 	0.53265 0.68741 0.69912 -0.05100
C 	C 	0.47603 0.68916 0.68907 0.02700
C 	C 	0.48019 0.74836 0.66495 0.00300
C 	C 	0.54212 0.80851 0.65282 -0.05100
C 	C 	0.59857 0.80661 0.66293 0.02300
S 	S 	0.65764 0.75430 0.68232 0.05900
C 	C 	0.69268 0.83151 0.65010 -0.06900
C 	C 	0.65401 0.85413 0.64228 -0.01800
S 	S 	0.42024 0.74349 0.67221 0.02100
C 	C 	0.38615 0.66693 0.70485 -0.01900
C 	C 	0.42210 0.64263 0.71088 -0.04200
H 	H 	0.52961 0.64171 0.71706 0.05500
H 	H 	0.54552 0.85444 0.63519 0.05500
H 	H 	0.66598 0.90316 0.62295 0.05300
H 	H 	0.41021 0.59372 0.73042 0.05400
C 	C 	0.58023 0.80289 0.21138 0.00600
C 	C 	0.62156 0.85626 0.18291 -0.05000
C 	C 	0.65429 0.84661 0.16987 0.02300
C 	C 	0.64115 0.78333 0.18275 -0.00200
C 	C 	0.59969 0.72991 0.21116 -0.04900
C 	C 	0.56688 0.73953 0.22415 0.02800
S 	S 	0.51417 0.79133 0.21650 0.02200
C 	C 	0.46887 0.70784 0.23683 -0.01900
C 	C 	0.50425 0.68592 0.23858 -0.04300
S 	S 	0.70745 0.79509 0.17778 0.05900
C 	C 	0.75243 0.87853 0.15723 -0.07200
C 	C 	0.71680 0.90026 0.15534 -0.01200
H 	H 	0.62987 0.90434 0.17233 0.05600
H 	H 	0.59137 0.68182 0.22174 0.05400
H 	H 	0.48075 0.63319 0.24411 0.05400
H 	H 	0.74021 0.95298 0.14978 0.04900
C 	C 	0.74548 0.11880 0.51395 0.00500
C 	C 	0.70088 0.12186 0.52091 -0.06200
C 	C 	0.72084 0.18573 0.51536 0.02600
C 	C 	0.78517 0.24407 0.50545 -0.00200
C 	C 	0.82928 0.24155 0.49781 -0.05200
C 	C 	0.81049 0.17769 0.50426 0.01300
S 	S 	0.75317 0.05568 0.53790 0.00700
C 	C 	0.83578 0.09796 0.53557 -0.07500
C 	C 	0.86094 0.16582 0.51613 -0.01600
S 	S 	0.78325 0.30998 0.48792 0.01200
C 	C 	0.70229 0.26781 0.49325 -0.01800
C 	C 	0.67423 0.19883 0.50933 -0.04800
H 	H 	0.65240 0.07621 0.53010 0.04600
H 	H 	0.87856 0.28735 0.48965 0.04700
H 	H 	0.91649 0.20637 0.51751 0.03900
H 	H 	0.62276 0.15999 0.51630 0.05100
C 	C 	0.80880 0.60906 0.56166 0.00100
C 	C 	0.76556 0.58472 0.52616 -0.05400
C 	C 	0.78185 0.55746 0.51421 0.02800
C 	C 	0.84406 0.56136 0.53507 0.00300
C 	C 	0.88785 0.58679 0.57024 -0.05300
C 	C 	0.87044 0.61236 0.58273 0.01800
S 	S 	0.81723 0.66557 0.57219 0.03700
C 	C 	0.89608 0.69287 0.60536 -0.07200
C 	C 	0.91978 0.65951 0.60745 -0.02100
S 	S 	0.83250 0.50047 0.52757 0.01100
C 	C 	0.75141 0.46901 0.49691 -0.01800
C 	C 	0.73002 0.50598 0.49246 -0.04400
H 	H 	0.71879 0.58366 0.50968 0.05300
H 	H 	0.93433 0.58739 0.58702 0.04800
H 	H 	0.97352 0.67503 0.62151 0.04200
H 	H 	0.67579 0.48928 0.48008 0.05400
C 	C 	0.38819 0.15196 0.60808 0.00500
C 	C 	0.44137 0.15730 0.60409 -0.05600
C 	C 	0.47336 0.20673 0.57105 0.02700
C 	C 	0.44938 0.24604 0.54184 0.00200
C 	C 	0.38912 0.23322 0.54221 -0.05000
S 	S 	0.47950 0.28107 0.50053 0.02200
C 	C 	0.52658 0.25115 0.51824 -0.01900
C 	C 	0.51717 0.20976 0.55806 -0.04500
H 	H 	0.45474 0.12217 0.62464 0.04900
H 	H 	0.54440 0.18638 0.57781 0.04800
C 	C 	0.79346 0.16994 0.99377 0.00400
C 	C 	0.74159 0.17030 0.99412 -0.06100
C 	C 	0.76226 0.22945 0.99762 0.02900
C 	C 	0.83308 0.28469 0.00310 -0.00600
C 	C 	0.88492 0.28549 0.00178 -0.05600
C 	C 	0.86491 0.22589 0.99905 0.01900
S 	S 	0.79077 0.10134 0.01136 0.01600
C 	C 	0.87741 0.13848 0.02410 -0.07200
C 	C 	0.91198 0.20816 0.01569 -0.02600
S 	S 	0.83784 0.35196 0.99394 0.01500
C 	C 	0.75096 0.31342 0.98370 -0.01800
C 	C 	0.71565 0.24496 0.98726 -0.04800
H 	H 	0.68721 0.12617 0.99169 0.04900
H 	H 	0.93951 0.32915 0.00546 0.04600
H 	H 	0.96780 0.24237 0.02808 0.04100
H 	H 	0.65904 0.20793 0.98296 0.05300
C 	C 	0.86249 0.66176 0.05603 0.00000
C 	C 	0.80157 0.61052 0.03614 -0.05400
C 	C 	0.80311 0.56024 0.03802 0.02700
C 	C 	0.86170 0.55889 0.06187 0.00300
C 	C 	0.92240 0.60991 0.08187 -0.05800
C 	C 	0.92077 0.65999 0.08011 0.02700
S 	S 	0.86558 0.71013 0.07141 0.03500
C 	C 	0.94065 0.73165 0.10803 -0.06500
C 	C 	0.96515 0.69969 0.10909 -0.04400
S 	S 	0.85909 0.51121 0.04625 0.01100
C 	C 	0.78352 0.48875 0.01004 -0.01900
C 	C 	0.75843 0.52004 0.00923 -0.04600
H 	H 	0.75592 0.61117 0.01862 0.05300
H 	H 	0.96804 0.60925 0.09941 0.04800
H 	H 	0.70944 0.51313 0.98921 0.05600
C 	C 	0.40565 0.22396 0.06383 0.00100
C 	C 	0.43234 0.26170 0.02844 -0.05100
C 	C 	0.46563 0.24562 0.02150 0.02400
C 	C 	0.46867 0.19108 0.04820 0.00600
C 	C 	0.44556 0.15566 0.08458 -0.05200
C 	C 	0.41023 0.17005 0.09115 0.01900
S 	S 	0.53157 0.20033 0.04113 0.01000
C 	C 	0.55474 0.27081 0.00303 -0.02400
C 	C 	0.51416 0.29087 0.99601 -0.03500
H 	H 	0.42709 0.30201 0.00699 0.05300
H 	H 	0.45040 0.11498 0.10568 0.04700
H 	H 	0.52634 0.34043 0.97806 0.05200
