data_crystal

_cell_length_a 16.37381
_cell_length_b 13.91865
_cell_length_c 39.46231
_cell_angle_alpha 90.92635
_cell_angle_beta  91.19237
_cell_angle_gamma 111.14041

_symmetry_space_group_name_	'P 1'
_symmetry_space_group_name_H-M	'P 1'

loop_
_symmetry_equiv_pos_as_xyz
  x,y,z

loop_
_atom_site_label
_atom_site_type_symbol
_atom_site_fract_x
_atom_site_fract_y
_atom_site_fract_z
_atom_site_charge
Ni	Ni	0.55209 0.23419 0.89848 1.10300
O 	O 	0.62165 0.37742 0.88025 -0.69400
Ni	Ni	0.73539 0.35874 0.87081 1.09900
O 	O 	0.45701 0.27610 0.91872 -0.36100
O 	O 	0.52063 0.44597 0.93202 -0.38000
O 	O 	0.48572 0.20897 0.85315 -0.38100
Ni	Ni	0.64443 0.49623 0.91134 1.07900
O 	O 	0.55616 0.99356 0.88556 -0.36100
O 	O 	0.69157 0.42601 0.94738 -0.39200
O 	O 	0.80151 0.49948 0.85203 -0.37800
O 	O 	0.66350 0.21616 0.88745 -0.71100
O 	O 	0.48444 0.08698 0.91234 -0.35400
O 	O 	0.83341 0.31101 0.85605 -0.36100
O 	O 	0.73909 0.18199 0.82184 -0.40800
Ni	Ni	0.63913 0.09959 0.85468 1.06000
H 	H 	0.59588 0.39015 0.85865 0.15500
H 	H 	0.69062 0.20188 0.90850 0.15700
C 	C 	0.77189 0.42757 0.94596 0.30500
O 	O 	0.53485 0.10039 0.82358 -0.39300
C 	C 	0.47845 0.35092 0.94134 0.30500
C 	C 	0.79307 0.58197 0.86533 0.27700
C 	C 	0.46897 0.12621 0.83418 0.29400
C 	C 	0.81989 0.23728 0.83315 0.26300
C 	C 	0.52121 0.01686 0.91307 0.24400
O 	O 	0.80271 0.40403 0.91734 -0.35600
O 	O 	0.76751 0.58195 0.89667 -0.38100
Ni	Ni	0.56895 0.32810 0.57919 1.10400
O 	O 	0.67939 0.34292 0.55331 -0.69900
Ni	Ni	0.75177 0.30406 0.58797 1.10400
O 	O 	0.52775 0.41760 0.54686 -0.35000
O 	O 	0.66386 0.54028 0.54920 -0.40500
O 	O 	0.49904 0.20141 0.54917 -0.35600
Ni	Ni	0.74979 0.47217 0.53353 1.09100
O 	O 	0.44614 0.12852 0.60921 -0.39700
O 	O 	0.84720 0.54453 0.56942 -0.37200
O 	O 	0.87006 0.34578 0.56391 -0.35100
O 	O 	0.63477 0.27116 0.61154 -0.70100
O 	O 	0.45981 0.29852 0.60680 -0.37000
O 	O 	0.79831 0.23783 0.62636 -0.35300
O 	O 	0.68146 0.08602 0.61985 -0.39500
Ni	Ni	0.56951 0.12332 0.61367 1.06500
H 	H 	0.66529 0.29031 0.53495 0.19200
H 	H 	0.64145 0.30507 0.63421 0.15600
C 	C 	0.84206 0.53040 0.60230 0.30500
O 	O 	0.57238 0.09503 0.56292 -0.39500
C 	C 	0.58425 0.50444 0.53585 0.29500
C 	C 	0.88046 0.37372 0.53179 0.31100
C 	C 	0.52818 0.12803 0.54078 0.30200
C 	C 	0.75284 0.14453 0.63683 0.25700
C 	C 	0.42427 0.20647 0.61992 0.27100
O 	O 	0.79344 0.44157 0.61481 -0.38600
O 	O 	0.81879 0.39193 0.51416 -0.39000
Ni	Ni	0.03529 0.00470 0.77897 1.08700
O 	O 	0.00433 0.88727 0.74364 -0.70500
Ni	Ni	0.05251 0.96609 0.70235 1.10900
O 	O 	0.97940 0.90384 0.81620 -0.34600
O 	O 	0.85079 0.85008 0.78517 -0.40800
O 	O 	0.15855 0.99675 0.78769 -0.33500
Ni	Ni	0.87842 0.82384 0.73519 1.06500
O 	O 	0.09165 0.26302 0.77542 -0.39000
O 	O 	0.85671 0.95536 0.72224 -0.40600
O 	O 	0.02852 0.84042 0.67056 -0.35000
O 	O 	0.06173 0.08293 0.73619 -0.70800
O 	O 	0.06232 0.12784 0.81131 -0.37100
O 	O 	0.13615 0.06340 0.66893 -0.36700
O 	O 	0.23282 0.14611 0.71214 -0.41200
Ni	Ni	0.16420 0.20771 0.74405 1.07300
H 	H 	0.03177 0.83607 0.74864 0.16400
H 	H 	0.01284 0.10719 0.73198 0.14800
C 	C 	0.88293 0.99999 0.69328 0.31500
O 	O 	0.22427 0.17115 0.78520 -0.37300
C 	C 	0.89839 0.83949 0.81118 0.27200
C 	C 	0.94839 0.76806 0.67028 0.26400
C 	C 	0.23053 0.08043 0.78873 0.25700
C 	C 	0.21333 0.12986 0.67950 0.26400
C 	C 	0.04578 0.20792 0.80046 0.27700
O 	O 	0.94893 0.98826 0.67783 -0.35500
O 	O 	0.88316 0.78656 0.68499 -0.39500
Ni	Ni	0.21548 0.69012 0.38075 1.10400
O 	O 	0.31022 0.76275 0.34684 -0.70200
Ni	Ni	0.41699 0.75441 0.36964 1.10400
O 	O 	0.12052 0.71701 0.35106 -0.34200
O 	O 	0.20172 0.88941 0.34912 -0.38100
O 	O 	0.19780 0.55812 0.35248 -0.37100
Ni	Ni	0.33214 0.90876 0.34089 1.06900
O 	O 	0.22347 0.60023 0.45539 -0.40400
O 	O 	0.35416 0.95070 0.39113 -0.37600
O 	O 	0.49857 0.81480 0.33167 -0.37700
O 	O 	0.32640 0.70062 0.40620 -0.69600
O 	O 	0.12259 0.60724 0.41467 -0.34400
O 	O 	0.51258 0.71354 0.39376 -0.33900
O 	O 	0.41274 0.55470 0.40034 -0.41500
Ni	Ni	0.31210 0.57018 0.42730 1.08500
H 	H 	0.29972 0.72596 0.32457 0.15800
H 	H 	0.33619 0.75252 0.42469 0.18400
C 	C 	0.41994 0.94150 0.40850 0.29600
O 	O 	0.21700 0.46663 0.39728 -0.37900
C 	C 	0.13415 0.80873 0.33824 0.26000
C 	C 	0.51316 0.90934 0.32176 0.28900
C 	C 	0.20935 0.47621 0.36455 0.28500
C 	C 	0.49095 0.62221 0.40713 0.29400
C 	C 	0.14211 0.57630 0.44453 0.31400
O 	O 	0.46840 0.89462 0.39490 -0.35200
O 	O 	0.46518 0.96271 0.33260 -0.39000
Ni	Ni	0.38385 0.65995 0.09143 1.10200
O 	O 	0.27162 0.63097 0.06218 -0.69000
Ni	Ni	0.20512 0.69964 0.08960 1.09900
O 	O 	0.41821 0.54469 0.07003 -0.35000
O 	O 	0.27959 0.43040 0.07369 -0.40100
O 	O 	0.45693 0.75514 0.05476 -0.34700
Ni	Ni	0.19484 0.49027 0.05085 1.10600
O 	O 	0.52066 0.87371 0.11096 -0.37800
O 	O 	0.10945 0.45689 0.08993 -0.37000
O 	O 	0.08060 0.64219 0.06573 -0.35500
O 	O 	0.32579 0.74609 0.11450 -0.69900
O 	O 	0.49459 0.70347 0.12156 -0.36200
O 	O 	0.16986 0.80298 0.11809 -0.35300
O 	O 	0.29362 0.93532 0.10374 -0.38500
Ni	Ni	0.40044 0.88922 0.10794 1.07200
H 	H 	0.28560 0.66890 0.04084 0.17700
H 	H 	0.32068 0.73115 0.13898 0.15600
C 	C 	0.13000 0.49345 0.12091 0.28500
O 	O 	0.39466 0.87752 0.05647 -0.39600
C 	C 	0.35828 0.45502 0.06163 0.30200
C 	C 	0.05925 0.57612 0.03920 0.30000
C 	C 	0.43474 0.82623 0.03981 0.30700
C 	C 	0.22541 0.89850 0.12301 0.24500
C 	C 	0.53885 0.80235 0.12816 0.27000
O 	O 	0.16369 0.59331 0.12704 -0.37700
O 	O 	0.11871 0.54907 0.02428 -0.37300
Ni	Ni	0.87809 0.99155 0.23886 1.10600
O 	O 	0.98232 0.01986 0.20884 -0.72500
Ni	Ni	0.07417 0.13042 0.23643 1.09900
O 	O 	0.79950 0.88430 0.20431 -0.36300
O 	O 	0.82965 0.00633 0.16333 -0.41000
O 	O 	0.92365 0.88813 0.26208 -0.37000
Ni	Ni	0.96699 0.06941 0.16437 1.07200
O 	O 	0.82400 0.09842 0.30755 -0.38700
O 	O 	0.95759 0.20169 0.18350 -0.40400
O 	O 	0.17554 0.13213 0.20730 -0.37500
O 	O 	0.96254 0.12181 0.26116 -0.70200
O 	O 	0.77755 0.95598 0.27159 -0.34900
O 	O 	0.16119 0.22005 0.27314 -0.36100
O 	O 	0.08245 0.13012 0.31654 -0.40600
Ni	Ni	0.95100 0.10728 0.31032 1.07500
H 	H 	0.99909 0.95854 0.20644 0.17900
H 	H 	0.94414 0.17924 0.25436 0.16000
C 	C 	0.02873 0.27931 0.19218 0.29600
O 	O 	0.91464 0.95153 0.31473 -0.36600
C 	C 	0.78154 0.91441 0.17440 0.28800
C 	C 	0.15728 0.11130 0.17457 0.29300
C 	C 	0.94453 0.89681 0.29466 0.28900
C 	C 	0.14140 0.21438 0.30532 0.27800
C 	C 	0.76068 0.02471 0.29060 0.23900
O 	O 	0.08221 0.26847 0.21569 -0.36100
O 	O 	0.09910 0.14231 0.15902 -0.39900
C 	C 	0.09360 0.42564 0.14809 -0.02800
C 	C 	0.06247 0.36167 0.16904 -0.04300
C 	C 	0.69494 0.86499 0.15936 -0.03400
C 	C 	0.62297 0.83223 0.14567 -0.02300
C 	C 	0.20050 0.96981 0.14279 0.00200
C 	C 	0.18202 0.03409 0.15816 -0.12000
C 	C 	0.67266 0.99944 0.30083 0.00300
C 	C 	0.59825 0.96457 0.30966 -0.04300
C 	C 	0.16759 0.30743 0.32587 -0.06200
C 	C 	0.18743 0.38526 0.34317 -0.02800
C 	C 	0.00676 0.85439 0.30813 -0.04800
C 	C 	0.06258 0.82783 0.32125 -0.02400
C 	C 	0.53580 0.04204 0.45024 -0.04700
C 	C 	0.44623 0.99396 0.44187 -0.05300
C 	C 	0.38381 0.98564 0.46692 0.14500
C 	C 	0.41162 0.02824 0.49937 -0.05000
C 	C 	0.50115 0.07407 0.50783 -0.07500
C 	C 	0.56348 0.07740 0.48339 0.13900
Br	Br	0.68625 0.12346 0.49508 -0.24300
H 	H 	0.58420 0.04738 0.43132 0.08600
H 	H 	0.36345 0.02447 0.51824 0.07700
Br	Br	0.26096 0.91044 0.45833 -0.23800
C 	C 	0.96523 0.35745 0.48360 -0.03400
C 	C 	0.96506 0.39800 0.51634 -0.07900
C 	C 	0.03202 0.49077 0.52610 0.12300
C 	C 	0.08154 0.55474 0.50141 -0.03500
C 	C 	0.07297 0.52067 0.46737 -0.08300
C 	C 	0.01550 0.42006 0.45863 0.12600
Br	Br	0.00262 0.36765 0.41273 -0.23100
H 	H 	0.91744 0.28239 0.47642 0.07900
H 	H 	0.12996 0.62914 0.50886 0.07900
Br	Br	0.05374 0.53348 0.57291 -0.21300
C 	C 	0.56016 0.52244 0.44071 -0.03600
C 	C 	0.53665 0.60950 0.43841 -0.09700
C 	C 	0.53550 0.66627 0.46838 0.10500
C 	C 	0.55251 0.63193 0.49995 -0.03200
C 	C 	0.56873 0.54034 0.50228 -0.10200
C 	C 	0.57443 0.48641 0.47236 0.11200
Br	Br	0.59802 0.36129 0.47399 -0.29800
H 	H 	0.56160 0.47858 0.41792 0.06900
H 	H 	0.55079 0.67537 0.52280 0.06700
Br	Br	0.50616 0.78731 0.46729 -0.25600
C 	C 	0.79560 0.09533 0.65905 -0.02300
C 	C 	0.83341 0.05215 0.67603 -0.07800
C 	C 	0.28382 0.16027 0.65655 -0.04400
C 	C 	0.34703 0.18391 0.63915 -0.04300
C 	C 	0.92373 0.68575 0.64512 -0.02200
C 	C 	0.89008 0.61475 0.62517 -0.03400
C 	C 	0.86482 0.39236 0.99091 -0.02900
C 	C 	0.83062 0.46103 0.97631 -0.07400
C 	C 	0.85812 0.56352 0.98928 0.13200
C 	C 	0.92749 0.59904 0.01342 -0.03300
C 	C 	0.96807 0.53256 0.02541 -0.07000
C 	C 	0.93135 0.42666 0.01596 0.13000
Br	Br	0.97248 0.32762 0.03624 -0.25600
H 	H 	0.84088 0.31235 0.98236 0.06700
H 	H 	0.95287 0.67961 0.02130 0.07700
Br	Br	0.80276 0.65633 0.97444 -0.23800
C 	C 	0.39556 0.83538 0.97929 -0.03000
C 	C 	0.46063 0.85410 0.00484 -0.07500
C 	C 	0.54840 0.91208 0.99768 0.12500
C 	C 	0.56902 0.95753 0.96606 -0.01700
C 	C 	0.50268 0.94642 0.94161 -0.05600
C 	C 	0.41624 0.88092 0.94770 0.12700
Br	Br	0.32549 0.85412 0.91334 -0.18900
H 	H 	0.32827 0.78850 0.98439 0.06700
H 	H 	0.63594 0.00644 0.96124 0.03300
Br	Br	0.64011 0.93594 0.03149 -0.19000
C 	C 	0.35446 0.36721 0.97060 -0.02900
C 	C 	0.42624 0.33632 0.97144 -0.08000
C 	C 	0.46035 0.31949 0.00281 0.12000
C 	C 	0.43112 0.34965 0.03281 -0.02200
C 	C 	0.37091 0.40018 0.03130 -0.10100
C 	C 	0.33330 0.41014 0.99953 0.12500
Br	Br	0.27566 0.50569 0.99291 -0.36400
H 	H 	0.32555 0.37521 0.94633 0.07900
H 	H 	0.45922 0.33983 0.05702 0.06500
Br	Br	0.54892 0.25938 0.00493 -0.25300
C 	C 	0.89557 0.22373 0.81866 -0.03800
C 	C 	0.96384 0.21777 0.80945 -0.05400
C 	C 	0.31315 0.07715 0.80246 -0.02500
C 	C 	0.38509 0.09080 0.81539 -0.03900
C 	C 	0.83166 0.67731 0.84872 -0.04200
C 	C 	0.86314 0.75370 0.83263 -0.04800
