data_crystal

_cell_length_a 16.50202
_cell_length_b 16.46253
_cell_length_c 37.09471
_cell_angle_alpha 89.85725
_cell_angle_beta  89.86021
_cell_angle_gamma 119.42022

_symmetry_space_group_name_	'P 1'
_symmetry_space_group_name_H-M	'P 1'

loop_
_symmetry_equiv_pos_as_xyz
  x,y,z

loop_
_atom_site_label
_atom_site_type_symbol
_atom_site_fract_x
_atom_site_fract_y
_atom_site_fract_z
_atom_site_charge
Ni	Ni	0.06327 0.92581 0.75927 1.08500
Ni	Ni	0.07069 0.12432 0.74941 1.11500
H 	H 	0.01790 0.01363 0.79251 0.16200
O 	O 	0.07070 0.22373 0.24684 -0.39000
C 	C 	0.05362 0.27643 0.31798 -0.04400
H 	H 	0.01600 0.35218 0.35515 0.03600
C 	C 	0.07166 0.61778 0.51475 -0.03100
C 	C 	0.07601 0.63799 0.47754 -0.04700
C 	C 	0.06480 0.50484 0.02350 -0.10900
C 	C 	0.08385 0.45414 0.99608 0.02800
C 	C 	0.20906 0.09591 0.79696 0.28400
C 	C 	0.16947 0.06673 0.70061 0.30900
O 	O 	0.15488 0.00442 0.79914 -0.36500
O 	O 	0.19427 0.14890 0.77318 -0.37500
O 	O 	0.17254 0.00706 0.72341 -0.36200
O 	O 	0.10199 0.08559 0.70251 -0.39800
C 	C 	0.15562 0.65016 0.45573 0.30500
O 	O 	0.16198 0.57674 0.44668 -0.38600
C 	C 	0.13338 0.60569 0.03104 0.31400
O 	O 	0.12983 0.64726 0.06085 -0.36000
C 	C 	0.06955 0.16002 0.16698 0.25900
C 	C 	0.12107 0.21507 0.27217 0.28500
C 	C 	0.04928 0.88699 0.19196 0.25200
C 	C 	0.06981 0.89615 0.27042 0.24000
Ni	Ni	0.11904 0.06776 0.22671 1.12500
O 	O 	0.10300 0.97737 0.18734 -0.39900
O 	O 	0.13469 0.16704 0.18967 -0.36100
O 	O 	0.13016 0.98561 0.26467 -0.39000
O 	O 	0.16386 0.16688 0.26580 -0.36100
C 	C 	0.06774 0.29576 0.08494 0.01300
C 	C 	0.16378 0.35359 0.07967 -0.06200
C 	C 	0.09845 0.21073 0.13185 -0.03300
C 	C 	0.03503 0.22543 0.11135 -0.05000
H 	H 	0.01918 0.31244 0.07190 0.03600
C 	C 	0.07071 0.66653 0.19174 0.01300
C 	C 	0.03239 0.72607 0.19376 -0.05300
C 	C 	0.08997 0.82326 0.19051 -0.04800
H 	H 	0.02459 0.59180 0.19118 0.03500
C 	C 	0.13932 0.34924 0.37237 -0.07700
C 	C 	0.06243 0.32449 0.34999 0.01000
C 	C 	0.11977 0.24944 0.30890 -0.05500
C 	C 	0.18592 0.25864 0.33469 -0.01100
C 	C 	0.09269 0.69991 0.31498 0.01600
C 	C 	0.10814 0.83529 0.28242 -0.03600
C 	C 	0.05209 0.74974 0.29990 -0.05400
H 	H 	0.04972 0.63674 0.33020 0.04100
C 	C 	0.01132 0.68070 0.42530 0.09500
C 	C 	0.15098 0.62199 0.53317 0.08400
N 	N 	0.01980 0.71320 0.39690 -0.11600
C 	C 	0.16898 0.49663 0.97486 0.07100
N 	N 	0.23666 0.52985 0.95783 -0.12100
H 	H 	0.02406 0.19477 0.65325 0.01100
C 	C 	0.18119 0.44042 0.39009 0.30700
O 	O 	0.16366 0.64467 0.12677 -0.38800
C 	C 	0.19417 0.30680 0.36681 -0.00000
N 	N 	0.20466 0.83744 0.50446 -0.11000
H 	H 	0.17117 0.09536 0.62892 0.04900
C 	C 	0.01420 0.36361 0.98720 -0.03900
C 	C 	0.03312 0.30554 0.96330 0.10400
N 	N 	0.04824 0.25909 0.94418 -0.10800
H 	H 	0.06403 0.82931 0.85624 0.01500
C 	C 	0.16629 0.70300 0.18488 -0.08300
C 	C 	0.18959 0.73551 0.31293 -0.07600
C 	C 	0.19235 0.25571 0.12120 -0.01500
C 	C 	0.20357 0.86559 0.27737 -0.02300
N 	N 	0.21349 0.62491 0.54837 -0.11300
O 	O 	0.20446 0.51307 0.36984 -0.38100
H 	H 	0.04647 0.31835 0.81468 0.02200
C 	C 	0.19892 0.45395 0.07389 0.28700
O 	O 	0.20878 0.64449 0.01265 -0.39400
C 	C 	0.22466 0.32628 0.09500 -0.00200
H 	H 	0.29868 0.36699 0.08992 0.05100
H 	H 	0.24153 0.24079 0.13486 0.05500
H 	H 	0.24494 0.16434 0.86461 0.04800
C 	C 	0.23557 0.70631 0.34003 0.30400
Ni	Ni	0.28245 0.57610 0.44905 1.12300
Ni	Ni	0.32339 0.76674 0.41058 1.12100
O 	O 	0.21902 0.45115 0.42213 -0.36900
O 	O 	0.30064 0.68629 0.33053 -0.36700
O 	O 	0.21992 0.71293 0.37402 -0.37900
O 	O 	0.33788 0.67748 0.48825 -0.36100
O 	O 	0.22121 0.73485 0.44718 -0.37700
O 	O 	0.34035 0.66065 0.40998 -0.71600
C 	C 	0.19343 0.65224 0.15895 0.31300
Ni	Ni	0.24693 0.73445 0.08949 1.11800
O 	O 	0.26643 0.64250 0.16398 -0.36700
O 	O 	0.20148 0.50200 0.10221 -0.37400
O 	O 	0.24604 0.49623 0.04369 -0.36000
O 	O 	0.30224 0.82531 0.04843 -0.38500
O 	O 	0.31643 0.67423 0.08072 -0.71300
C 	C 	0.22483 0.79962 0.18865 -0.01000
C 	C 	0.18709 0.85982 0.18937 -0.02400
H 	H 	0.29950 0.82874 0.18822 0.04400
H 	H 	0.23342 0.93449 0.18959 0.03600
H 	H 	0.24909 0.31899 0.38556 0.05400
H 	H 	0.23335 0.23237 0.32928 0.06200
C 	C 	0.24351 0.81525 0.29208 0.00000
H 	H 	0.31790 0.84252 0.28966 0.03900
H 	H 	0.24757 0.92980 0.26294 0.04100
C 	C 	0.27723 0.85380 0.51474 0.09100
N 	N 	0.32178 0.02879 0.58115 -0.07100
C 	C 	0.23821 0.13795 0.64147 -0.00100
C 	C 	0.25052 0.12666 0.67818 -0.07200
C 	C 	0.33575 0.18672 0.69453 -0.00700
C 	C 	0.31273 0.20343 0.62073 -0.00300
H 	H 	0.30409 0.20725 0.59194 0.05100
N 	N 	0.23717 0.94622 0.00256 -0.10000
N 	N 	0.27110 0.34273 0.01406 -0.09900
N 	N 	0.39639 0.42418 0.91739 -0.10800
C 	C 	0.29842 0.13639 0.81583 -0.05800
C 	C 	0.30412 0.16475 0.85170 -0.00400
Ni	Ni	0.34255 0.61138 0.36452 1.11300
H 	H 	0.34417 0.18330 0.72331 0.04300
Ni	Ni	0.31689 0.63950 0.03209 1.12600
C 	C 	0.31508 0.97249 0.00823 0.04200
C 	C 	0.38427 0.77063 0.48429 0.28700
O 	O 	0.38847 0.52309 0.38800 -0.36000
O 	O 	0.39498 0.55863 0.44929 -0.36700
Ni	Ni	0.32624 0.60571 0.12047 1.11400
O 	O 	0.35566 0.81488 0.12648 -0.36200
C 	C 	0.36834 0.87804 0.52834 -0.01800
C 	C 	0.36276 0.99638 0.56788 0.03300
C 	C 	0.34598 0.40522 0.01273 0.09200
C 	C 	0.38643 0.19405 0.87104 -0.00500
C 	C 	0.37366 0.13179 0.80019 -0.00800
H 	H 	0.39143 0.21984 0.89827 0.05200
H 	H 	0.36773 0.10391 0.77332 0.04200
H 	H 	0.40604 0.68857 0.41729 0.16600
C 	C 	0.40058 0.25686 0.63637 -0.06600
H 	H 	0.04011 0.72448 0.90766 0.02400
C 	C 	0.43687 0.45667 0.94370 0.08800
C 	C 	0.42520 0.53158 0.42091 0.28300
O 	O 	0.42723 0.83088 0.37238 -0.37400
O 	O 	0.41039 0.81152 0.45231 -0.38300
C 	C 	0.37902 0.84309 0.03086 0.29500
O 	O 	0.40003 0.55088 0.09100 -0.36600
H 	H 	0.37913 0.72777 0.07855 0.16200
C 	C 	0.41540 0.83016 0.51675 -0.04400
C 	C 	0.41392 0.95554 0.55126 0.03900
N 	N 	0.41734 0.35093 0.35294 -0.11200
C 	C 	0.40999 0.25256 0.67381 -0.01100
O 	O 	0.38903 0.77481 0.01597 -0.35800
O 	O 	0.43793 0.73060 0.13332 -0.35900
C 	C 	0.44400 0.37784 0.38167 0.09300
C 	C 	0.41280 0.00558 0.01528 0.08300
C 	C 	0.43990 0.48180 0.00963 0.00100
C 	C 	0.46468 0.19748 0.85439 -0.05600
C 	C 	0.45667 0.16271 0.81932 -0.00600
C 	C 	0.43368 0.80922 0.13526 0.26400
N 	N 	0.41841 0.22268 0.01105 -0.10500
C 	C 	0.44160 0.58166 0.05921 0.30700
O 	O 	0.43862 0.64938 0.04278 -0.38700
O 	O 	0.47494 0.72342 0.35865 -0.36800
C 	C 	0.47845 0.41183 0.41741 0.00100
N 	N 	0.47496 0.19523 0.42236 -0.10000
H 	H 	0.47707 0.29499 0.68637 0.04000
O 	O 	0.02214 0.16071 0.79227 -0.40800
H 	H 	0.45973 0.85049 0.20704 0.03900
C 	C 	0.48293 0.28599 0.61382 0.30700
C 	C 	0.44544 0.94147 0.02131 -0.10300
C 	C 	0.44419 0.16878 0.01166 0.10400
C 	C 	0.48760 0.49729 0.97665 0.00500
C 	C 	0.49462 0.81004 0.36581 0.28500
C 	C 	0.49537 0.50137 0.42770 -0.05700
C 	C 	0.48999 0.26933 0.43022 0.09500
C 	C 	0.48658 0.53641 0.04003 -0.06900
C 	C 	0.50406 0.85734 0.53070 -0.01500
C 	C 	0.47668 0.10136 0.01238 -0.01700
O 	O 	0.00722 0.00026 0.76654 -0.71000
C 	C 	0.50880 0.36206 0.44006 0.00700
O 	O 	0.51004 0.22527 0.60767 -0.38300
C 	C 	0.51032 0.99642 0.55639 -0.12900
C 	C 	0.00063 0.64031 0.46095 -0.03200
H 	H 	0.00109 0.03002 0.26454 0.13100
H 	H 	0.51617 0.16433 0.80618 0.04400
C 	C 	0.51334 0.88717 0.15282 -0.05600
C 	C 	0.52140 0.87909 0.19017 -0.01100
C 	C 	0.97877 0.45684 0.04243 0.04400
C 	C 	0.96238 0.49407 0.07528 0.09700
N 	N 	0.94888 0.52341 0.10156 -0.09100
H 	H 	0.95788 0.69627 0.19688 0.07600
O 	O 	0.98297 0.12778 0.17814 -0.33800
H 	H 	0.99815 0.26436 0.29949 0.06600
O 	O 	0.97839 0.86594 0.27310 -0.35300
O 	O 	0.99128 0.02655 0.23826 -0.66800
H 	H 	0.97809 0.72347 0.30307 0.07900
O 	O 	0.95905 0.85242 0.19697 -0.35200
H 	H 	0.96128 0.18696 0.11738 0.08400
C 	C 	0.55707 0.26162 0.86882 0.28100
C 	C 	0.86329 0.59588 0.92719 0.30900
C 	C 	0.81741 0.37274 0.85045 0.30000
C 	C 	0.62743 0.49484 0.95728 0.29500
C 	C 	0.86756 0.34128 0.96577 0.30200
C 	C 	0.62368 0.21008 0.98241 0.29300
Ni	Ni	0.70917 0.45095 0.88782 1.11300
Ni	Ni	0.75144 0.42094 0.97036 1.12400
Ni	Ni	0.71506 0.26465 0.91246 1.12300
O 	O 	0.57911 0.35015 0.87194 -0.36600
O 	O 	0.62225 0.23551 0.87044 -0.36800
O 	O 	0.86717 0.41861 0.95996 -0.38300
O 	O 	0.84564 0.53938 0.90051 -0.37500
O 	O 	0.82145 0.56201 0.95833 -0.36200
O 	O 	0.61393 0.19205 0.94750 -0.38200
O 	O 	0.75817 0.40316 0.84490 -0.36000
O 	O 	0.82733 0.34878 0.88279 -0.37400
O 	O 	0.68804 0.29258 0.99574 -0.36600
O 	O 	0.65787 0.51834 0.92308 -0.36300
O 	O 	0.63834 0.43280 0.97575 -0.38200
O 	O 	0.80530 0.26442 0.94996 -0.36000
O 	O 	0.69922 0.36829 0.92492 -0.71100
H 	H 	0.63200 0.33701 0.93017 0.17300
C 	C 	0.82123 0.48414 0.52558 0.29400
C 	C 	0.56424 0.09725 0.56369 0.35600
C 	C 	0.57563 0.34655 0.49958 0.30300
C 	C 	0.79528 0.22750 0.59585 0.27600
C 	C 	0.72733 0.45880 0.64182 0.28600
Ni	Ni	0.70143 0.27727 0.53170 1.11700
Ni	Ni	0.64094 0.25642 0.61612 1.12100
Ni	Ni	0.64418 0.41997 0.56990 1.12700
O 	O 	0.81945 0.40315 0.52230 -0.36100
O 	O 	0.74373 0.48906 0.53059 -0.36100
O 	O 	0.57647 0.15600 0.53775 -0.37100
O 	O 	0.60276 0.12706 0.59545 -0.38200
O 	O 	0.73288 0.49271 0.60897 -0.37400
O 	O 	0.64050 0.32403 0.49222 -0.34500
O 	O 	0.54894 0.34281 0.53283 -0.37500
O 	O 	0.67247 0.36806 0.64946 -0.37700
O 	O 	0.77392 0.21980 0.56054 -0.34100
O 	O 	0.76956 0.27276 0.61835 -0.37600
O 	O 	0.53828 0.37490 0.60635 -0.37400
O 	O 	0.68537 0.33106 0.57398 -0.71600
H 	H 	0.75069 0.37266 0.58071 0.16700
C 	C 	0.88854 0.79517 0.72225 0.30000
C 	C 	0.92833 0.85027 0.82290 0.28000
C 	C 	0.91021 0.06176 0.70115 0.35800
C 	C 	0.93314 0.13803 0.79366 0.32300
Ni	Ni	0.87430 0.94172 0.76573 1.11200
O 	O 	0.86137 0.97633 0.71439 -0.41700
O 	O 	0.97717 0.85313 0.71676 -0.37300
O 	O 	0.84295 0.81217 0.74762 -0.37400
O 	O 	0.86501 0.05065 0.78801 -0.36100
O 	O 	0.96977 0.82881 0.79668 -0.36000
O 	O 	0.87583 0.88910 0.81539 -0.37200
O 	O 	0.96946 0.13008 0.72154 -0.38900
C 	C 	0.83118 0.98408 0.29318 0.23900
C 	C 	0.77522 0.95147 0.19983 0.26300
Ni	Ni	0.94502 0.11047 0.23231 1.11800
Ni	Ni	0.90486 0.89667 0.23645 1.11000
O 	O 	0.89504 0.07096 0.28451 -0.33300
O 	O 	0.82349 0.90836 0.27627 -0.36100
O 	O 	0.80675 0.02418 0.22050 -0.35000
O 	O 	0.81864 0.90209 0.19736 -0.36200
C 	C 	0.59598 0.93351 0.13256 -0.01100
C 	C 	0.68009 0.94549 0.14679 -0.00800
C 	C 	0.68392 0.91974 0.18262 -0.05300
C 	C 	0.60488 0.89058 0.20468 -0.01200
H 	H 	0.59301 0.94958 0.10448 0.04100
H 	H 	0.74229 0.97631 0.13019 0.04400
H 	H 	0.60840 0.87792 0.23317 0.04100
C 	C 	0.60138 0.94419 0.32739 0.01500
C 	C 	0.58864 0.88511 0.35676 -0.07100
C 	C 	0.66549 0.88022 0.37036 0.00200
C 	C 	0.74983 0.92162 0.35143 -0.02200
C 	C 	0.75856 0.97026 0.31932 -0.02900
C 	C 	0.68629 0.98681 0.30873 -0.06900
H 	H 	0.54319 0.95011 0.31699 0.03300
H 	H 	0.65722 0.83691 0.39364 0.04800
H 	H 	0.80596 0.91022 0.36033 0.05200
H 	H 	0.69300 0.02590 0.28430 0.08300
C 	C 	0.55584 0.94595 0.54643 0.03500
C 	C 	0.65624 0.98954 0.54715 0.02400
C 	C 	0.54068 0.79356 0.52979 0.09800
N 	N 	0.56973 0.74234 0.52942 -0.10300
N 	N 	0.73646 0.02325 0.54712 -0.06400
C 	C 	0.90680 0.56796 0.51457 -0.07600
C 	C 	0.98830 0.59012 0.53372 0.04200
C 	C 	0.91457 0.60234 0.47910 0.04300
C 	C 	0.98371 0.57430 0.57229 0.08400
C 	C 	0.83306 0.59075 0.46016 0.09400
N 	N 	0.76871 0.58182 0.44451 -0.10200
N 	N 	0.98015 0.56152 0.60308 -0.10800
C 	C 	0.55435 0.40211 0.47298 -0.06200
C 	C 	0.57595 0.49497 0.48101 0.01500
C 	C 	0.56049 0.54734 0.45485 0.00700
C 	C 	0.59902 0.53124 0.51729 0.07300
C 	C 	0.60942 0.64816 0.45627 0.10100
N 	N 	0.64890 0.72881 0.45716 -0.10800
N 	N 	0.61682 0.56090 0.54623 -0.13700
C 	C 	0.92283 0.20346 0.61940 -0.03600
C 	C 	0.82806 0.16673 0.61182 -0.02300
C 	C 	0.76299 0.08289 0.62862 -0.04400
C 	C 	0.79107 0.04242 0.65551 0.07200
C 	C 	0.88447 0.08550 0.66607 -0.10600
C 	C 	0.95107 0.16274 0.64627 0.05700
H 	H 	0.97398 0.26737 0.60642 0.06000
H 	H 	0.68973 0.05263 0.62273 0.07000
H 	H 	0.73912 0.98151 0.66984 0.00200
C 	C 	0.70705 0.56288 0.68440 -0.01000
C 	C 	0.76258 0.52640 0.67144 -0.05400
C 	C 	0.85824 0.57367 0.67877 -0.01000
C 	C 	0.89949 0.66116 0.69543 -0.00100
C 	C 	0.84493 0.70142 0.70559 -0.06500
C 	C 	0.74800 0.65019 0.70116 -0.00300
H 	H 	0.63293 0.52669 0.67917 0.04500
H 	H 	0.90141 0.54486 0.66994 0.05100
H 	H 	0.97384 0.69785 0.70007 0.04300
H 	H 	0.70464 0.67920 0.70961 0.04200
C 	C 	0.92324 0.33823 0.99583 -0.02100
C 	C 	0.90957 0.36951 0.02935 -0.02900
C 	C 	0.82716 0.31176 0.05045 0.09700
N 	N 	0.76159 0.26594 0.06765 -0.10400
C 	C 	0.57137 0.13124 0.00700 -0.05300
C 	C 	0.60497 0.06847 0.01380 0.03400
C 	C 	0.54222 0.97426 0.02193 -0.02400
C 	C 	0.70320 0.09889 0.00993 0.09700
C 	C 	0.57743 0.91110 0.03032 0.08300
N 	N 	0.60567 0.86089 0.03700 -0.10400
N 	N 	0.78133 0.12172 0.00692 -0.09200
C 	C 	0.58444 0.58455 0.03958 0.00900
C 	C 	0.63267 0.59567 0.00680 0.00500
C 	C 	0.58480 0.54190 0.97648 -0.06700
C 	C 	0.63493 0.62987 0.07205 0.09300
C 	C 	0.73188 0.65903 0.00473 0.08800
N 	N 	0.81115 0.71006 0.00335 -0.09900
N 	N 	0.67518 0.66611 0.09799 -0.10200
C 	C 	0.94726 0.36631 0.82073 -0.02000
C 	C 	0.85260 0.34105 0.82046 -0.05900
C 	C 	0.78984 0.25951 0.80239 -0.01800
C 	C 	0.81690 0.19439 0.79234 0.00300
C 	C 	0.90806 0.21220 0.79920 -0.07800
C 	C 	0.97465 0.30112 0.81115 0.03600
H 	H 	0.99763 0.43166 0.83278 0.05700
H 	H 	0.71742 0.24135 0.80011 0.04800
H 	H 	0.76606 0.12881 0.78060 0.04700
C 	C 	0.98682 0.74243 0.90118 0.02000
C 	C 	0.89952 0.69495 0.91820 -0.06700
C 	C 	0.83510 0.72580 0.91159 -0.01200
C 	C 	0.84702 0.78305 0.88171 -0.00700
C 	C 	0.92639 0.81428 0.85977 -0.06600
C 	C 	0.99964 0.80039 0.87148 0.01500
H 	H 	0.77057 0.69634 0.92663 0.05400
H 	H 	0.79192 0.79759 0.87435 0.04600
