data_crystal

_cell_length_a 20.60280
_cell_length_b 21.23147
_cell_length_c 30.60836
_cell_angle_alpha 60.92902
_cell_angle_beta  118.78418
_cell_angle_gamma 133.23532

_symmetry_space_group_name_	'P 1'
_symmetry_space_group_name_H-M	'P 1'

loop_
_symmetry_equiv_pos_as_xyz
  x,y,z

loop_
_atom_site_label
_atom_site_type_symbol
_atom_site_fract_x
_atom_site_fract_y
_atom_site_fract_z
_atom_site_charge
N 	N 	0.55886 0.20017 0.50972 -0.13200
C 	C 	0.52516 0.23735 0.50976 0.12200
C 	C 	0.35012 0.72353 0.17756 0.11100
N 	N 	0.29504 0.65033 0.15863 -0.14000
C 	C 	0.33114 0.63413 0.14132 0.11200
N 	N 	0.42149 0.69219 0.14198 -0.13800
C 	C 	0.47762 0.76250 0.16304 0.11600
N 	N 	0.44194 0.77865 0.18062 -0.13600
C 	C 	0.20946 0.60911 0.69894 0.11400
N 	N 	0.15185 0.52491 0.69185 -0.14200
C 	C 	0.17839 0.50076 0.67304 0.11200
N 	N 	0.26127 0.55997 0.66168 -0.13600
C 	C 	0.32041 0.64110 0.67151 0.11500
N 	N 	0.29477 0.66603 0.68999 -0.13900
Co	Co	0.11057 0.05117 0.05229 1.18800
Co	Co	0.08185 0.13267 0.10510 1.16800
C 	C 	0.29332 0.08609 0.07139 0.28800
Co	Co	0.12184 0.91075 0.04894 1.14900
O 	O 	0.10401 0.14930 0.04102 -0.48000
C 	C 	0.20244 0.29290 0.14985 0.29700
C 	C 	0.14848 0.81854 0.15927 0.30100
O 	O 	0.13099 0.00653 0.98062 -0.39700
O 	O 	0.18743 0.24006 0.19509 -0.37300
O 	O 	0.18829 0.26334 0.11448 -0.38100
O 	O 	0.11022 0.80733 0.11269 -0.43800
O 	O 	0.12518 0.84518 0.17688 -0.40400
O 	O 	0.09471 0.95379 0.08255 -0.80000
O 	O 	0.25652 0.00131 0.07923 -0.37700
O 	O 	0.24303 0.11751 0.04717 -0.37000
Co	Co	0.00807 0.97757 0.55497 1.13400
C 	C 	0.18701 0.03502 0.55685 0.33400
Co	Co	0.04312 0.84186 0.56646 1.13200
O 	O 	0.00705 0.07949 0.54451 -0.49500
C 	C 	0.04137 0.16174 0.67021 0.21500
C 	C 	0.10085 0.79924 0.67861 0.27000
O 	O 	0.05197 0.14563 0.63771 -0.39300
O 	O 	0.13276 0.85487 0.63719 -0.40900
O 	O 	0.04491 0.79745 0.69028 -0.42300
O 	O 	0.13651 0.97168 0.53352 -0.45200
O 	O 	0.14893 0.04405 0.57585 -0.40700
C 	C 	0.03423 0.01143 0.82556 -0.21900
C 	C 	0.06511 0.04510 0.86665 0.42600
F 	F 	0.14773 0.12488 0.87189 -0.46500
H 	H 	0.07516 0.05114 0.79762 0.11100
C 	C 	0.06994 0.00611 0.41021 -0.22000
C 	C 	0.10004 0.01592 0.37337 0.41700
F 	F 	0.18931 0.08022 0.37102 -0.45500
H 	H 	0.11811 0.05068 0.43563 0.11500
C 	C 	0.13903 0.34955 0.71854 -0.03500
C 	C 	0.12581 0.40758 0.67290 -0.01200
C 	C 	0.09007 0.38649 0.62576 -0.04200
C 	C 	0.07170 0.31054 0.62422 -0.01000
C 	C 	0.08702 0.25365 0.66989 -0.05900
C 	C 	0.12193 0.27444 0.71700 -0.01000
H 	H 	0.16804 0.36563 0.75512 0.05400
H 	H 	0.08066 0.43129 0.59008 0.03300
H 	H 	0.04236 0.29425 0.58768 0.02400
H 	H 	0.13268 0.23042 0.75270 0.05800
C 	C 	0.41480 0.69681 0.66770 -0.00200
C 	C 	0.43618 0.74864 0.61957 -0.04300
C 	C 	0.52052 0.78731 0.61318 0.00700
H 	H 	0.38674 0.75762 0.58687 0.04300
H 	H 	0.53743 0.82939 0.57615 0.03400
C 	C 	0.08454 0.60149 0.70304 -0.00400
C 	C 	0.17831 0.64129 0.71332 -0.02300
C 	C 	0.24304 0.72025 0.73054 -0.03000
C 	C 	0.21534 0.76644 0.72857 -0.01300
C 	C 	0.12282 0.73406 0.70966 -0.04800
C 	C 	0.05716 0.64655 0.70317 -0.11500
H 	H 	0.03304 0.53839 0.69231 0.01900
H 	H 	0.31535 0.74906 0.74215 0.04800
H 	H 	0.26682 0.83184 0.73650 0.03800
C 	C 	0.30570 0.53870 0.10088 -0.04800
C 	C 	0.27683 0.54714 0.13001 -0.00200
C 	C 	0.20905 0.46986 0.15664 -0.05200
C 	C 	0.17967 0.38614 0.15977 0.01400
C 	C 	0.21714 0.37846 0.13593 -0.08700
C 	C 	0.27670 0.45468 0.10432 0.01000
H 	H 	0.35501 0.59760 0.07818 0.04800
H 	H 	0.18379 0.47467 0.17798 0.04300
H 	H 	0.13152 0.32755 0.18318 0.01100
H 	H 	0.30429 0.44968 0.08461 0.03900
C 	C 	0.57765 0.81487 0.17137 -0.00100
H 	H 	0.60668 0.93979 0.16103 0.04500
C 	C 	0.35254 0.83448 0.18946 -0.04800
C 	C 	0.30948 0.74550 0.19231 0.00000
C 	C 	0.22304 0.67898 0.20423 -0.05100
C 	C 	0.17505 0.70274 0.20542 0.01000
C 	C 	0.21137 0.79307 0.19254 -0.09200
C 	C 	0.30420 0.85763 0.19092 0.00800
H 	H 	0.42090 0.88649 0.18273 0.04900
H 	H 	0.19086 0.60940 0.20978 0.04100
H 	H 	0.10498 0.65149 0.20956 0.01400
H 	H 	0.33510 0.92731 0.18390 0.03000
C 	C 	0.41923 0.11809 0.56799 -0.04400
C 	C 	0.43534 0.18143 0.52082 0.00900
C 	C 	0.37695 0.20807 0.49143 -0.03700
C 	C 	0.30261 0.17069 0.50853 0.02300
C 	C 	0.28274 0.10283 0.55384 -0.09300
C 	C 	0.34434 0.08026 0.58484 0.01700
H 	H 	0.46596 0.09974 0.59221 0.05300
H 	H 	0.39038 0.25923 0.45578 0.06300
H 	H 	0.25591 0.18908 0.48428 0.03200
H 	H 	0.33016 0.02825 0.62014 0.03900
C 	C 	0.53964 0.17571 0.12368 -0.04000
C 	C 	0.57064 0.22647 0.07824 0.00200
C 	C 	0.51360 0.24197 0.03213 -0.04600
C 	C 	0.42497 0.20434 0.03109 -0.00000
C 	C 	0.39196 0.14923 0.07594 -0.06900
C 	C 	0.45067 0.13742 0.12258 0.00700
H 	H 	0.58455 0.16621 0.15984 0.05200
H 	H 	0.53834 0.28389 0.99718 0.06300
H 	H 	0.38012 0.21368 0.99483 0.06600
H 	H 	0.42601 0.09550 0.15753 0.03800
O 	O 	0.06568 0.07866 0.16586 -0.75800
O 	O 	0.09446 0.02062 0.13011 -0.57400
C 	C 	0.06230 0.01192 0.95593 0.40400
O 	O 	0.02855 0.01562 0.98149 -0.41000
O 	O 	0.11152 0.08008 0.26912 -0.36100
C 	C 	0.01359 0.99476 0.90382 -0.31200
C 	C 	0.47787 0.68271 0.70923 -0.03600
H 	H 	0.46077 0.64052 0.74622 0.05600
H 	H 	0.57277 0.70220 0.18395 0.05500
C 	C 	0.06203 0.99464 0.28855 0.34100
H 	H 	0.56883 0.07452 0.52517 0.05500
Co	Co	0.03690 0.88335 0.12965 1.15000
C 	C 	0.03792 0.96215 0.33776 -0.28400
C 	C 	0.56214 0.72110 0.70283 0.00800
H 	H 	0.00991 0.33828 0.03447 -0.04200
N 	N 	0.58060 0.32469 0.50871 -0.13500
Co	Co	0.05514 0.13398 0.20114 1.15700
O 	O 	0.03123 0.93877 0.26360 -0.41400
C 	C 	0.58468 0.77513 0.65503 -0.07300
Co	Co	0.00893 0.96716 0.18254 1.14300
O 	O 	0.00926 0.19979 0.13254 -0.48000
H 	H 	0.61159 0.71224 0.73560 0.06100
C 	C 	0.61527 0.77359 0.17909 -0.03600
O 	O 	0.98876 0.87711 0.58595 -0.70500
O 	O 	0.98695 0.09636 0.70173 -0.31900
H 	H 	0.98497 0.61701 0.69324 0.11900
C 	C 	0.63461 0.90698 0.16699 -0.03500
C 	C 	0.66708 0.27736 0.08057 0.11800
O 	O 	0.96685 0.96645 0.47869 -0.32800
Co	Co	0.94623 0.04533 0.59658 1.20800
N 	N 	0.69408 0.25053 0.06458 -0.13500
O 	O 	0.94693 0.83507 0.49804 -0.34500
C 	C 	0.90312 0.90926 0.76781 0.31700
C 	C 	0.72763 0.95737 0.16898 -0.00800
H 	H 	0.77130 0.02831 0.16587 0.05000
C 	C 	0.78032 0.30599 0.05739 0.10900
N 	N 	0.83693 0.39136 0.06244 -0.12900
C 	C 	0.80899 0.41783 0.07837 0.11800
N 	N 	0.72596 0.35921 0.08950 -0.13400
C 	C 	0.64905 0.25095 0.50994 0.11700
C 	C 	0.67155 0.37276 0.51463 0.12100
N 	N 	0.70620 0.33628 0.51491 -0.13100
C 	C 	0.93188 0.76517 0.05627 0.29400
C 	C 	0.95481 0.16967 0.09087 0.38900
O 	O 	0.97440 0.85328 0.17926 -0.40800
C 	C 	0.86132 0.96864 0.17668 0.28300
O 	O 	0.96325 0.12621 0.07645 -0.37800
O 	O 	0.92238 0.02109 0.20898 -0.35400
O 	O 	0.88598 0.94981 0.15445 -0.37800
O 	O 	0.98266 0.82742 0.02266 -0.35100
O 	O 	0.92496 0.78650 0.08756 -0.35200
Co	Co	0.86725 0.87324 0.67312 1.19000
Co	Co	0.93825 0.80957 0.63663 1.19700
Co	Co	0.84962 0.01261 0.67204 1.17900
C 	C 	0.86919 0.66964 0.59216 0.30000
O 	O 	0.86371 0.11679 0.60827 -0.38600
O 	O 	0.88587 0.97236 0.64280 -0.76200
C 	C 	0.82936 0.10653 0.56170 0.30000
O 	O 	0.87313 0.77353 0.68652 -0.44500
C 	C 	0.68065 0.83637 0.65238 0.29300
O 	O 	0.91250 0.91446 0.60355 -0.56100
C 	C 	0.95845 0.90924 0.46510 0.30700
O 	O 	0.85150 0.07496 0.54722 -0.36200
O 	O 	0.71871 0.92264 0.63814 -0.39500
O 	O 	0.72862 0.80387 0.66984 -0.36800
O 	O 	0.83508 0.91531 0.74030 -0.38200
O 	O 	0.94012 0.90428 0.74528 -0.36300
O 	O 	0.95581 0.70844 0.59898 -0.37000
O 	O 	0.84361 0.69934 0.60540 -0.37400
C 	C 	0.94918 0.92909 0.81919 -0.01300
C 	C 	0.89654 0.87963 0.85565 0.26500
C 	C 	0.92814 0.91270 0.89724 0.06300
H 	H 	0.88788 0.87240 0.92561 0.07200
F 	F 	0.81344 0.80039 0.85002 -0.43000
C 	C 	0.97991 0.93647 0.41614 -0.00700
C 	C 	0.91849 0.87945 0.38235 0.26700
C 	C 	0.94690 0.89342 0.34276 0.05700
H 	H 	0.89745 0.85247 0.31527 0.07200
F 	F 	0.83143 0.81049 0.38784 -0.43000
C 	C 	0.70723 0.82420 0.17964 0.00800
C 	C 	0.76361 0.91640 0.17392 -0.06500
H 	H 	0.73499 0.79146 0.18524 0.04600
C 	C 	0.63750 0.11876 0.51946 -0.04000
C 	C 	0.68630 0.21180 0.50817 0.00500
C 	C 	0.77343 0.26728 0.49823 -0.03800
C 	C 	0.81555 0.23038 0.50611 0.01500
C 	C 	0.77211 0.13799 0.52511 -0.07000
C 	C 	0.67975 0.08226 0.52687 0.00600
H 	H 	0.81032 0.33905 0.48663 0.06300
H 	H 	0.88580 0.27434 0.50284 0.05200
H 	H 	0.64400 0.01061 0.53972 0.04200
C 	C 	0.72712 0.52583 0.50134 -0.03200
C 	C 	0.73197 0.45362 0.53286 0.00400
C 	C 	0.77129 0.44820 0.58562 -0.03700
C 	C 	0.80399 0.51326 0.60672 0.01500
C 	C 	0.80214 0.58711 0.57498 -0.07400
C 	C 	0.76124 0.59172 0.52236 0.01000
H 	H 	0.69447 0.52951 0.46077 0.06300
H 	H 	0.77269 0.39131 0.61071 0.05800
H 	H 	0.83524 0.50870 0.64744 0.04300
H 	H 	0.76042 0.64892 0.49724 0.06200
C 	C 	0.90016 0.32861 0.03618 -0.08800
C 	C 	0.81425 0.27114 0.04786 0.03000
C 	C 	0.76398 0.17866 0.05485 -0.06400
C 	C 	0.80487 0.14403 0.05783 0.03900
C 	C 	0.89697 0.20077 0.05588 -0.13300
C 	C 	0.94025 0.29336 0.03893 0.13800
H 	H 	0.93790 0.40019 0.02751 0.08200
H 	H 	0.69542 0.13312 0.06096 0.05800
H 	H 	0.76826 0.07249 0.06740 0.03100
C 	C 	0.88916 0.54070 0.11690 -0.03400
C 	C 	0.85806 0.51266 0.07323 0.00800
C 	C 	0.84683 0.56633 0.02430 -0.04200
C 	C 	0.86137 0.64418 0.01897 0.00200
C 	C 	0.89157 0.67195 0.06256 -0.06700
C 	C 	0.90520 0.61952 0.11162 0.01700
H 	H 	0.89711 0.49941 0.15499 0.06100
H 	H 	0.82133 0.54486 0.99028 0.06800
H 	H 	0.85167 0.68447 0.98080 0.06800
H 	H 	0.93103 0.64116 0.14563 0.05400
