data_crystal

_cell_length_a 27.06967
_cell_length_b 28.68611
_cell_length_c 30.25955
_cell_angle_alpha 61.07387
_cell_angle_beta  118.65798
_cell_angle_gamma 133.11030

_symmetry_space_group_name_	'P 1'
_symmetry_space_group_name_H-M	'P 1'

loop_
_symmetry_equiv_pos_as_xyz
  x,y,z

loop_
_atom_site_label
_atom_site_type_symbol
_atom_site_fract_x
_atom_site_fract_y
_atom_site_fract_z
_atom_site_charge
C 	C 	0.75024 0.32745 0.02819 0.05100
C 	C 	0.67972 0.29946 0.01909 -0.08800
C 	C 	0.66132 0.32783 0.02972 0.04700
C 	C 	0.71340 0.38371 0.04981 -0.08800
C 	C 	0.78358 0.41253 0.05819 0.05400
C 	C 	0.80227 0.38396 0.04811 -0.09200
H 	H 	0.63947 0.25559 0.00426 0.05800
H 	H 	0.69925 0.40477 0.05916 0.05800
H 	H 	0.85671 0.40567 0.05539 0.05600
C 	C 	0.69884 0.31791 0.48765 0.05200
C 	C 	0.72799 0.37850 0.49392 -0.09500
C 	C 	0.68579 0.38762 0.49838 0.05100
C 	C 	0.61477 0.33650 0.49525 -0.09200
C 	C 	0.58935 0.27329 0.49869 0.05300
C 	C 	0.62976 0.26489 0.49119 -0.09300
H 	H 	0.78315 0.41744 0.49665 0.05500
H 	H 	0.58209 0.34331 0.49874 0.05700
H 	H 	0.60935 0.21633 0.49192 0.05700
C 	C 	0.31340 0.64264 0.30906 0.04700
C 	C 	0.38466 0.69254 0.31024 -0.09100
C 	C 	0.42848 0.67609 0.32154 0.04900
C 	C 	0.40345 0.60991 0.34118 -0.08900
C 	C 	0.33151 0.56105 0.32941 0.04700
C 	C 	0.28588 0.57736 0.31468 -0.09200
H 	H 	0.40461 0.74380 0.29877 0.05200
H 	H 	0.43921 0.59745 0.35525 0.05300
H 	H 	0.23004 0.54066 0.30593 0.05300
C 	C 	0.25904 0.62893 0.78196 0.05000
C 	C 	0.21637 0.57081 0.76555 -0.09500
C 	C 	0.24649 0.54813 0.76204 0.05100
C 	C 	0.31898 0.58494 0.77291 -0.09300
C 	C 	0.36190 0.64394 0.78780 0.05000
C 	C 	0.33176 0.66472 0.79398 -0.09400
H 	H 	0.16026 0.54392 0.75506 0.05300
H 	H 	0.34193 0.56913 0.76741 0.05600
H 	H 	0.36466 0.71000 0.80593 0.05100
Co	Co	0.12076 0.99667 0.16930 1.16400
Co	Co	0.94028 0.99473 0.12404 1.16100
Co	Co	0.06484 0.04531 0.20301 1.18700
Co	Co	0.99650 0.94526 0.09162 1.17800
C 	C 	0.13544 0.88848 0.20248 0.30800
Co	Co	0.12166 0.95617 0.08683 1.16100
Co	Co	0.96764 0.08811 0.17627 1.17200
C 	C 	0.02377 0.97390 0.99060 0.27800
O 	O 	0.06617 0.17432 0.17749 -0.39400
O 	O 	0.99956 0.05066 0.15963 -0.74300
C 	C 	0.12132 0.17762 0.21125 0.30700
O 	O 	0.13045 0.02062 0.22762 -0.45100
O 	O 	0.91038 0.92989 0.09030 -0.48600
C 	C 	0.89708 0.08881 0.06510 0.30000
O 	O 	0.04423 0.02235 0.13131 -0.55200
C 	C 	0.99687 0.00548 0.28196 0.40800
C 	C 	0.23690 0.08819 0.11312 0.30500
C 	C 	0.98586 0.82720 0.10841 0.31400
O 	O 	0.13683 0.14067 0.21487 -0.38200
O 	O 	0.21777 0.04609 0.09158 -0.36400
O 	O 	0.22128 0.06738 0.15738 -0.37600
O 	O 	0.94710 0.12600 0.09776 -0.38700
O 	O 	0.89381 0.04114 0.06362 -0.36700
O 	O 	0.99629 0.05761 0.25669 -0.41300
O 	O 	0.01101 0.98477 0.26166 -0.46300
O 	O 	0.02671 0.86626 0.07604 -0.40500
O 	O 	0.97246 0.85099 0.12602 -0.40800
O 	O 	0.08208 0.97974 0.11152 -0.79000
C 	C 	0.84738 0.94298 0.18684 0.26200
O 	O 	0.86510 0.00332 0.17146 -0.37000
O 	O 	0.88090 0.93044 0.17897 -0.40700
O 	O 	0.16019 0.91674 0.16125 -0.41400
O 	O 	0.10437 0.90592 0.20769 -0.41700
O 	O 	0.09002 0.99977 0.01253 -0.39200
O 	O 	0.98406 0.96508 0.01194 -0.37900
Co	Co	0.05400 0.95163 0.66522 1.17000
Co	Co	0.88232 0.96701 0.60652 1.16900
Co	Co	0.00705 0.01310 0.69206 1.19000
Co	Co	0.93510 0.91547 0.57518 1.18600
C 	C 	0.04074 0.82388 0.71180 0.30700
Co	Co	0.02945 0.87164 0.59890 1.16400
Co	Co	0.89111 0.03065 0.67643 1.18300
C 	C 	0.99832 0.94699 0.49312 0.30300
O 	O 	0.98962 0.10164 0.71106 -0.37400
O 	O 	0.93254 0.00629 0.65451 -0.73300
C 	C 	0.04439 0.13921 0.69197 0.29500
O 	O 	0.08130 0.00065 0.71277 -0.44600
O 	O 	0.85893 0.92449 0.55564 -0.48200
C 	C 	0.86109 0.07613 0.56146 0.30800
O 	O 	0.98442 0.98570 0.62233 -0.60300
C 	C 	0.94332 0.96655 0.77768 0.31900
C 	C 	0.16803 0.98950 0.63228 0.23600
C 	C 	0.87592 0.78147 0.57892 0.32000
O 	O 	0.06583 0.11302 0.68621 -0.38600
O 	O 	0.13255 0.92633 0.63783 -0.40500
O 	O 	0.14895 0.01123 0.64629 -0.34200
O 	O 	0.89947 0.09572 0.60485 -0.39700
O 	O 	0.85498 0.03112 0.55253 -0.36700
O 	O 	0.88710 0.96314 0.74686 -0.41600
O 	O 	0.97569 0.95917 0.76238 -0.41100
O 	O 	0.92815 0.81195 0.55965 -0.40600
O 	O 	0.87430 0.81359 0.59719 -0.40500
O 	O 	0.00840 0.92147 0.61201 -0.77600
C 	C 	0.76954 0.89836 0.65579 0.31500
O 	O 	0.78938 0.95831 0.64580 -0.43300
O 	O 	0.80496 0.88909 0.64681 -0.41400
O 	O 	0.00593 0.80463 0.66837 -0.40600
O 	O 	0.03896 0.86465 0.71924 -0.40600
O 	O 	0.04863 0.94348 0.53046 -0.41400
O 	O 	0.95438 0.94640 0.50274 -0.38000
C 	C 	0.99744 0.96702 0.93689 -0.11400
C 	C 	0.96915 0.00042 0.89690 -0.03300
C 	C 	0.95180 0.00064 0.84505 0.21300
C 	C 	0.96237 0.96674 0.83267 -0.15900
C 	C 	0.98959 0.93232 0.87287 -0.03300
C 	C 	0.00742 0.93260 0.92473 0.13600
H 	H 	0.96240 0.02790 0.90574 0.06600
O 	O 	0.92782 0.03676 0.80636 -0.29800
H 	H 	0.99672 0.90507 0.86412 0.05600
O 	O 	0.03269 0.89764 0.96358 -0.29000
H 	H 	0.08381 0.92839 0.96726 0.12600
H 	H 	0.87672 0.00690 0.80263 0.15400
C 	C 	0.99667 0.96016 0.43853 -0.08000
C 	C 	0.05785 0.98980 0.42581 -0.12300
C 	C 	0.05646 0.99762 0.37581 0.15000
C 	C 	0.99414 0.97802 0.33713 -0.15500
C 	C 	0.93278 0.94752 0.34990 -0.04100
C 	C 	0.93351 0.93765 0.40039 0.14700
H 	H 	0.10683 0.00730 0.45461 0.10200
O 	O 	0.11726 0.02904 0.36381 -0.24300
H 	H 	0.88509 0.93441 0.32004 0.04000
O 	O 	0.87217 0.90422 0.41260 -0.28200
H 	H 	0.86551 0.93815 0.40324 0.14100
H 	H 	0.12064 0.99354 0.37114 0.10800
C 	C 	0.09035 0.21029 0.68854 -0.10700
C 	C 	0.06866 0.25021 0.64983 0.12200
C 	C 	0.09164 0.30627 0.65938 -0.09900
C 	C 	0.14419 0.32859 0.70335 0.00500
C 	C 	0.17487 0.29469 0.73756 0.05700
C 	C 	0.14577 0.23434 0.73090 -0.01900
N 	N 	0.02766 0.23599 0.60295 -0.20400
H 	H 	0.06982 0.33339 0.63199 0.05400
C 	C 	0.16311 0.38442 0.71520 -0.01300
N 	N 	0.23213 0.31988 0.77641 -0.19200
H 	H 	0.16458 0.20503 0.75970 0.04600
C 	C 	0.14893 0.37292 0.75982 -0.08000
C 	C 	0.17049 0.42525 0.77424 0.08500
C 	C 	0.20289 0.48960 0.74153 -0.03800
C 	C 	0.20820 0.49907 0.69351 -0.06700
C 	C 	0.19323 0.44835 0.68163 0.07200
H 	H 	0.12337 0.32348 0.78443 0.05300
N 	N 	0.16099 0.41353 0.81977 -0.19800
H 	H 	0.23128 0.54803 0.66786 0.04500
N 	N 	0.21105 0.46214 0.63954 -0.19600
H 	H 	0.13828 0.36610 0.84409 0.07900
H 	H 	0.17508 0.45088 0.83123 0.08300
H 	H 	0.23045 0.50869 0.61384 0.07900
H 	H 	0.20935 0.42826 0.63334 0.08500
H 	H 	0.25258 0.29323 0.80280 0.08200
H 	H 	0.25876 0.36726 0.77929 0.08500
H 	H 	0.02009 0.20181 0.59193 0.09400
H 	H 	0.00761 0.26275 0.57559 0.08300
C 	C 	0.71305 0.84294 0.68297 -0.11900
C 	C 	0.64307 0.81696 0.65558 0.12600
C 	C 	0.59289 0.78453 0.68246 -0.10000
C 	C 	0.61228 0.78005 0.73578 0.00400
C 	C 	0.68142 0.80140 0.76380 0.05500
C 	C 	0.72966 0.82829 0.73733 -0.02400
N 	N 	0.62391 0.82328 0.60357 -0.20600
H 	H 	0.53920 0.76513 0.66149 0.05400
C 	C 	0.55999 0.75424 0.76123 -0.01400
N 	N 	0.70267 0.79930 0.81520 -0.19300
H 	H 	0.78201 0.84303 0.75873 0.05100
C 	C 	0.53474 0.69313 0.79758 -0.08200
C 	C 	0.47644 0.66203 0.81473 0.08400
C 	C 	0.43745 0.68795 0.78985 -0.03900
C 	C 	0.46643 0.75189 0.75743 -0.06800
C 	C 	0.52905 0.78634 0.74459 0.07000
H 	H 	0.56019 0.66966 0.81228 0.05100
N 	N 	0.45784 0.60737 0.85474 -0.19800
H 	H 	0.43867 0.77363 0.74020 0.04200
N 	N 	0.55900 0.84985 0.71622 -0.19500
H 	H 	0.48504 0.58681 0.87161 0.07900
H 	H 	0.41834 0.58675 0.87094 0.08300
H 	H 	0.53434 0.87232 0.70214 0.07200
H 	H 	0.60842 0.87838 0.71000 0.07900
H 	H 	0.75333 0.81368 0.83563 0.08200
H 	H 	0.67058 0.78640 0.83485 0.08300
H 	H 	0.65941 0.84374 0.58329 0.08600
H 	H 	0.57247 0.80584 0.58315 0.07900
C 	C 	0.22781 0.65516 0.78284 -0.03800
C 	C 	0.21276 0.69686 0.73787 0.08300
C 	C 	0.18644 0.72353 0.74081 -0.08000
C 	C 	0.17574 0.71014 0.78780 -0.01500
C 	C 	0.19154 0.66908 0.83293 0.07000
C 	C 	0.21671 0.64138 0.82980 -0.06800
N 	N 	0.22359 0.71162 0.69188 -0.19800
H 	H 	0.17410 0.75483 0.70630 0.04700
C 	C 	0.14486 0.73711 0.78837 0.00400
N 	N 	0.18384 0.65699 0.87941 -0.19600
H 	H 	0.22886 0.60992 0.86426 0.04300
C 	C 	0.07320 0.69670 0.78488 -0.10200
C 	C 	0.03853 0.72459 0.76903 0.12200
C 	C 	0.07573 0.79383 0.75425 -0.12000
C 	C 	0.14867 0.83305 0.76655 -0.02400
C 	C 	0.18379 0.80527 0.78325 0.05200
H 	H 	0.04381 0.64393 0.79176 0.05200
N 	N 	0.96917 0.68497 0.76614 -0.20000
H 	H 	0.17776 0.88601 0.75822 0.03400
N 	N 	0.25442 0.84430 0.79310 -0.19200
H 	H 	0.94102 0.63385 0.77468 0.08300
H 	H 	0.94319 0.70461 0.75693 0.09600
H 	H 	0.28273 0.89506 0.78704 0.07300
H 	H 	0.28191 0.82434 0.80844 0.08000
H 	H 	0.19458 0.62580 0.91232 0.07600
H 	H 	0.16855 0.67930 0.88364 0.08200
H 	H 	0.24318 0.69283 0.68820 0.08300
H 	H 	0.21241 0.74252 0.65897 0.07600
C 	C 	0.30651 0.50123 0.31874 -0.03300
C 	C 	0.25008 0.43698 0.33720 0.08300
C 	C 	0.22621 0.38350 0.32259 -0.07900
C 	C 	0.26404 0.39148 0.29682 -0.01500
C 	C 	0.32549 0.45409 0.28458 0.07600
C 	C 	0.34228 0.50887 0.29121 -0.07100
N 	N 	0.22108 0.42571 0.37072 -0.19800
H 	H 	0.17950 0.33536 0.33271 0.05100
C 	C 	0.23408 0.33698 0.27608 0.00600
N 	N 	0.36903 0.46172 0.26708 -0.19600
H 	H 	0.38548 0.55748 0.27692 0.05000
C 	C 	0.21815 0.34694 0.22218 -0.10100
C 	C 	0.19391 0.29864 0.20118 0.13100
C 	C 	0.17533 0.23562 0.23358 -0.11000
C 	C 	0.19372 0.22611 0.28764 -0.02500
C 	C 	0.22517 0.27709 0.30940 0.05900
H 	H 	0.22703 0.39343 0.19665 0.05700
N 	N 	0.18846 0.31283 0.14988 -0.20300
H 	H 	0.18124 0.17833 0.31276 0.05300
N 	N 	0.24721 0.26845 0.36186 -0.19200
H 	H 	0.19933 0.35849 0.12554 0.08400
H 	H 	0.17680 0.27992 0.13435 0.09900
H 	H 	0.23803 0.22330 0.38607 0.08600
H 	H 	0.27608 0.30700 0.37903 0.08600
H 	H 	0.41249 0.50863 0.25553 0.08100
H 	H 	0.36246 0.42110 0.26764 0.08700
H 	H 	0.24450 0.46169 0.38887 0.08300
H 	H 	0.17719 0.37894 0.38180 0.08000
C 	C 	0.48757 0.72198 0.29643 -0.03800
C 	C 	0.47996 0.71300 0.25093 0.08500
C 	C 	0.53916 0.74037 0.23727 -0.08300
C 	C 	0.60582 0.78516 0.26302 -0.01300
C 	C 	0.61304 0.80154 0.30424 0.07200
C 	C 	0.55396 0.76704 0.32228 -0.06900
N 	N 	0.41596 0.67883 0.21996 -0.19900
H 	H 	0.53322 0.72915 0.20483 0.04900
C 	C 	0.66633 0.81925 0.24260 0.00100
N 	N 	0.67581 0.85029 0.32616 -0.19500
H 	H 	0.55977 0.77527 0.35640 0.04400
C 	C 	0.66594 0.85506 0.19057 -0.10000
C 	C 	0.71990 0.88493 0.16899 0.11900
C 	C 	0.78023 0.88815 0.20160 -0.10400
C 	C 	0.77897 0.84847 0.25243 -0.03200
C 	C 	0.72119 0.81199 0.27283 0.05900
H 	H 	0.62234 0.85777 0.16638 0.05000
N 	N 	0.71285 0.90871 0.11679 -0.20400
H 	H 	0.82350 0.84727 0.27654 0.04400
N 	N 	0.71876 0.77049 0.32096 -0.19200
H 	H 	0.66908 0.90821 0.09279 0.07100
H 	H 	0.74879 0.92424 0.09944 0.07900
H 	H 	0.76090 0.76796 0.34381 0.08700
H 	H 	0.67430 0.73868 0.33538 0.08800
H 	H 	0.68102 0.85999 0.35786 0.08000
H 	H 	0.71923 0.88072 0.31079 0.08600
H 	H 	0.37145 0.66314 0.22631 0.08500
H 	H 	0.41052 0.66990 0.18770 0.07900
C 	C 	0.15449 0.84547 0.24698 -0.11900
C 	C 	0.10411 0.77650 0.25866 0.12500
C 	C 	0.12360 0.73476 0.27539 -0.10400
C 	C 	0.19372 0.76114 0.28537 0.00500
C 	C 	0.24537 0.82895 0.28430 0.05200
C 	C 	0.22516 0.87055 0.26529 -0.02000
N 	N 	0.03727 0.75022 0.25349 -0.21100
H 	H 	0.08411 0.68222 0.27923 0.05400
C 	C 	0.21180 0.71976 0.29019 -0.01500
N 	N 	0.31414 0.85453 0.30047 -0.19100
H 	H 	0.26445 0.92328 0.26021 0.03200
C 	C 	0.22273 0.72521 0.24650 -0.07900
C 	C 	0.24945 0.69451 0.25091 0.08200
C 	C 	0.26772 0.65949 0.30029 -0.03700
C 	C 	0.25229 0.65018 0.34330 -0.06800
C 	C 	0.22435 0.67991 0.33877 0.07200
H 	H 	0.21226 0.75497 0.20918 0.04600
N 	N 	0.25756 0.69897 0.20770 -0.19800
H 	H 	0.26492 0.62217 0.38093 0.04500
N 	N 	0.21126 0.67115 0.38133 -0.19600
H 	H 	0.24622 0.72674 0.17161 0.07800
H 	H 	0.27275 0.67308 0.20916 0.08200
H 	H 	0.22183 0.64264 0.41721 0.07800
H 	H 	0.18970 0.69171 0.37919 0.08300
H 	H 	0.35200 0.90501 0.29793 0.07300
H 	H 	0.33065 0.82441 0.31722 0.08200
H 	H 	0.02257 0.78014 0.24364 0.09800
H 	H 	0.99962 0.69924 0.26050 0.09100
C 	C 	0.74229 0.30732 0.48308 -0.03800
C 	C 	0.73252 0.30077 0.43554 0.08600
C 	C 	0.75488 0.26864 0.43564 -0.08100
C 	C 	0.78756 0.24405 0.48229 -0.01300
C 	C 	0.80571 0.25871 0.52857 0.07700
C 	C 	0.78256 0.29009 0.52851 -0.06700
N 	N 	0.70098 0.32443 0.38997 -0.19800
H 	H 	0.74393 0.26006 0.39978 0.05200
C 	C 	0.79455 0.19640 0.48370 0.00500
N 	N 	0.84418 0.24181 0.57322 -0.19600
H 	H 	0.79236 0.29754 0.56455 0.04700
C 	C 	0.85621 0.21954 0.47657 -0.10100
C 	C 	0.87412 0.17659 0.49391 0.13000
C 	C 	0.83051 0.11049 0.51991 -0.10900
C 	C 	0.76359 0.08527 0.51816 -0.02500
C 	C 	0.74515 0.12785 0.50047 0.06200
H 	H 	0.89220 0.27154 0.46062 0.05600
N 	N 	0.93383 0.19926 0.48676 -0.20500
H 	H 	0.72827 0.03349 0.53517 0.05100
N 	N 	0.68105 0.10303 0.50115 -0.19200
H 	H 	0.96738 0.24878 0.46932 0.08400
H 	H 	0.94640 0.16743 0.49720 0.09400
H 	H 	0.64579 0.05262 0.51537 0.09000
H 	H 	0.66485 0.13310 0.48618 0.08900
H 	H 	0.85547 0.25098 0.60756 0.08400
H 	H 	0.86497 0.22130 0.57400 0.09000
H 	H 	0.68763 0.35189 0.38843 0.08500
H 	H 	0.69166 0.31742 0.35518 0.08200
C 	C 	0.82528 0.70983 0.58623 -0.11700
C 	C 	0.76592 0.68374 0.54590 0.13100
C 	C 	0.74013 0.62602 0.53695 -0.10100
C 	C 	0.77356 0.59491 0.56742 0.00600
C 	C 	0.82800 0.61711 0.61156 0.05700
C 	C 	0.84891 0.67122 0.62272 -0.02500
N 	N 	0.73512 0.71513 0.51462 -0.20500
H 	H 	0.69608 0.60704 0.50482 0.05600
C 	C 	0.75366 0.54189 0.55099 -0.01400
N 	N 	0.86241 0.58895 0.64175 -0.19200
H 	H 	0.89068 0.68854 0.65621 0.04900
C 	C 	0.76779 0.55771 0.50472 -0.07900
C 	C 	0.74743 0.50848 0.48689 0.08600
C 	C 	0.71745 0.44315 0.51819 -0.03600
C 	C 	0.70808 0.42865 0.56624 -0.06800
C 	C 	0.72080 0.47604 0.58094 0.07500
H 	H 	0.79287 0.60820 0.48175 0.05200
N 	N 	0.75544 0.52406 0.43945 -0.19800
H 	H 	0.68591 0.37885 0.59049 0.04800
N 	N 	0.70045 0.45785 0.62325 -0.19600
H 	H 	0.77860 0.57264 0.41713 0.08200
H 	H 	0.73755 0.48828 0.42370 0.08500
H 	H 	0.67849 0.40958 0.64615 0.08100
H 	H 	0.70360 0.49045 0.63267 0.08700
H 	H 	0.90078 0.60440 0.67513 0.08200
H 	H 	0.85378 0.55369 0.63144 0.08700
H 	H 	0.75161 0.75645 0.52200 0.09500
H 	H 	0.69293 0.69724 0.48341 0.08500
C 	C 	0.23623 0.03407 0.61991 -0.08100
C 	C 	0.24999 0.08594 0.57421 0.12300
C 	C 	0.30852 0.11748 0.55716 -0.09900
C 	C 	0.35014 0.09486 0.58238 0.01000
C 	C 	0.33582 0.04256 0.62763 0.04600
C 	C 	0.28182 0.01577 0.64771 0.02200
N 	N 	0.20645 0.10448 0.54581 -0.20100
H 	H 	0.32064 0.15864 0.52324 0.05800
C 	C 	0.41211 0.13015 0.56372 -0.01400
N 	N 	0.37176 0.01615 0.65066 -0.16600
H 	H 	0.27152 0.97641 0.68290 0.00800
C 	C 	0.47836 0.16574 0.59511 -0.08000
C 	C 	0.53794 0.20590 0.57636 0.08800
C 	C 	0.53073 0.21612 0.52356 -0.03700
C 	C 	0.46500 0.17788 0.49295 -0.06700
C 	C 	0.40559 0.13308 0.51323 0.07800
H 	H 	0.48349 0.16210 0.63427 0.05400
N 	N 	0.60192 0.23480 0.60899 -0.19800
H 	H 	0.45986 0.18393 0.45305 0.04900
N 	N 	0.34287 0.09282 0.48443 -0.19600
H 	H 	0.60692 0.22979 0.64721 0.08200
H 	H 	0.64696 0.25989 0.59750 0.08700
H 	H 	0.33803 0.09717 0.44645 0.09000
H 	H 	0.29914 0.05505 0.50015 0.09400
H 	H 	0.36270 0.97934 0.68523 0.05000
H 	H 	0.40626 0.02932 0.63325 0.09000
H 	H 	0.16172 0.08150 0.55659 0.10300
H 	H 	0.21686 0.14230 0.51187 0.08700
C 	C 	0.85309 0.10976 0.02335 -0.09000
C 	C 	0.88594 0.17565 0.99365 0.11300
C 	C 	0.86169 0.21125 0.98323 -0.08500
C 	C 	0.80275 0.18019 0.99948 -0.02700
C 	C 	0.76067 0.11074 0.01711 0.08300
C 	C 	0.78603 0.07580 0.02818 -0.03900
N 	N 	0.94333 0.20593 0.97823 -0.20000
H 	H 	0.89123 0.26374 0.96579 0.05200
C 	C 	0.79295 0.22090 0.00685 0.01400
N 	N 	0.69741 0.07788 0.02502 -0.19500
H 	H 	0.75690 0.02357 0.04572 0.05500
C 	C 	0.76490 0.25284 0.96355 -0.09600
C 	C 	0.75465 0.29141 0.96927 0.07900
C 	C 	0.76945 0.29518 0.01968 -0.02700
C 	C 	0.79874 0.26427 0.06282 -0.06600
C 	C 	0.81235 0.22857 0.05683 0.07100
H 	H 	0.75174 0.24833 0.92521 0.05400
N 	N 	0.73217 0.32572 0.92632 -0.19700
H 	H 	0.81094 0.26792 0.10128 0.04900
N 	N 	0.84465 0.20251 0.09903 -0.19300
H 	H 	0.71908 0.32088 0.88945 0.08100
H 	H 	0.73014 0.35940 0.92882 0.08200
H 	H 	0.85668 0.20661 0.13592 0.08300
H 	H 	0.86030 0.18000 0.09556 0.08800
H 	H 	0.66783 0.02689 0.04007 0.09300
H 	H 	0.67616 0.10237 0.01476 0.09300
H 	H 	0.96101 0.17972 0.98471 0.09400
H 	H 	0.96947 0.25549 0.95819 0.08500
C 	C 	0.83700 0.47250 0.07822 -0.04000
C 	C 	0.86125 0.53532 0.04325 0.09700
C 	C 	0.88801 0.58836 0.05979 -0.08300
C 	C 	0.89166 0.57986 0.11070 -0.00700
C 	C 	0.87369 0.51869 0.14705 0.07100
C 	C 	0.84798 0.46596 0.13060 -0.06400
N 	N 	0.85749 0.54462 0.99350 -0.20400
H 	H 	0.90464 0.63607 0.03262 0.05900
C 	C 	0.91419 0.63554 0.12516 -0.00300
N 	N 	0.88023 0.51003 0.19742 -0.19500
H 	H 	0.83123 0.41822 0.15775 0.04700
C 	C 	0.86528 0.64619 0.11344 -0.09300
C 	C 	0.88697 0.70653 0.11441 0.12400
C 	C 	0.95912 0.75713 0.12697 -0.10000
C 	C 	0.00716 0.74352 0.14338 -0.04300
C 	C 	0.98536 0.68298 0.14339 0.07700
H 	H 	0.81037 0.60864 0.10123 0.05500
N 	N 	0.83844 0.71596 0.10182 -0.20400
H 	H 	0.06236 0.78229 0.15214 0.04400
N 	N 	0.03331 0.67153 0.15956 -0.19900
H 	H 	0.78557 0.67931 0.09050 0.08500
H 	H 	0.85220 0.75842 0.10484 0.09700
H 	H 	0.08618 0.70792 0.17112 0.08200
H 	H 	0.01860 0.62599 0.16224 0.08500
H 	H 	0.86626 0.46451 0.22384 0.08100
H 	H 	0.89972 0.54831 0.21100 0.08500
H 	H 	0.84099 0.50702 0.98076 0.08300
H 	H 	0.87316 0.59056 0.96733 0.08200
C 	C 	0.29592 0.15668 0.09830 -0.11000
C 	C 	0.29372 0.18802 0.04496 0.12600
C 	C 	0.35364 0.22656 0.02687 -0.08400
C 	C 	0.41609 0.23760 0.06218 0.00700
C 	C 	0.42178 0.22157 0.11581 0.05900
C 	C 	0.36094 0.18012 0.13371 -0.02100
N 	N 	0.23309 0.17720 0.01081 -0.19500
H 	H 	0.35042 0.24381 0.98549 0.04600
C 	C 	0.46962 0.25418 0.04395 -0.02400
N 	N 	0.48478 0.24390 0.15005 -0.19100
H 	H 	0.36363 0.16090 0.17507 0.04900
C 	C 	0.50499 0.31507 0.00953 -0.04600
C 	C 	0.56167 0.33515 0.99699 0.05400
C 	C 	0.58742 0.29669 0.02342 -0.01500
C 	C 	0.54754 0.23287 0.05327 -0.07700
C 	C 	0.48690 0.21015 0.06184 0.08900
H 	H 	0.48888 0.34708 0.99291 0.03400
N 	N 	0.59147 0.39131 0.95992 -0.19300
H 	H 	0.56505 0.20178 0.07143 0.05300
N 	N 	0.44521 0.14622 0.08655 -0.19700
H 	H 	0.57421 0.42101 0.94204 0.07900
H 	H 	0.62987 0.40434 0.94697 0.08200
H 	H 	0.46025 0.11507 0.10204 0.09100
H 	H 	0.39587 0.12587 0.08790 0.09900
H 	H 	0.48837 0.22954 0.18985 0.08400
H 	H 	0.53079 0.27770 0.13721 0.08700
H 	H 	0.18845 0.14982 0.02383 0.09400
H 	H 	0.23069 0.19788 0.97102 0.08100
