data_crystal

_cell_length_a 15.57517
_cell_length_b 15.94462
_cell_length_c 43.24022
_cell_angle_alpha 95.42773
_cell_angle_beta  95.42250
_cell_angle_gamma 126.71303

_symmetry_space_group_name_	'P 1'
_symmetry_space_group_name_H-M	'P 1'

loop_
_symmetry_equiv_pos_as_xyz
  x,y,z

loop_
_atom_site_label
_atom_site_type_symbol
_atom_site_fract_x
_atom_site_fract_y
_atom_site_fract_z
_atom_site_charge
C 	C 	0.00203 0.05118 0.97265 -0.05600
C 	C 	0.05982 0.01019 0.97394 0.00500
H 	H 	0.04395 0.13432 0.97106 0.05000
C 	C 	0.03978 0.10485 0.49739 -0.05000
C 	C 	0.08608 0.05125 0.49688 0.00400
H 	H 	0.09009 0.18970 0.49745 0.04500
Cu	Cu	0.76716 0.33291 0.96920 0.92400
Cu	Cu	0.72057 0.22379 0.03242 0.86500
Cu	Cu	0.59667 0.29298 0.00704 0.89500
Cu	Cu	0.56475 0.32255 0.93984 0.90100
C 	C 	0.70884 0.31289 0.90208 0.29100
C 	C 	0.64075 0.29834 0.07560 0.28200
O 	O 	0.59783 0.24863 0.96351 -0.63200
O 	O 	0.74847 0.34137 0.01347 -0.64700
O 	O 	0.82979 0.25236 0.97271 -0.36400
O 	O 	0.69249 0.12952 0.99579 -0.43900
O 	O 	0.66426 0.35925 0.90911 -0.38800
O 	O 	0.45230 0.25660 0.99954 -0.38100
C 	C 	0.38253 0.20532 0.97253 0.30900
O 	O 	0.41253 0.23335 0.94558 -0.39300
O 	O 	0.76080 0.29977 0.92459 -0.36300
C 	C 	0.77099 0.15659 0.98023 0.29700
O 	O 	0.59576 0.31760 0.05256 -0.37700
O 	O 	0.71613 0.28653 0.07153 -0.42000
H 	H 	0.55069 0.17043 0.95621 0.16000
Cu	Cu	0.59804 0.18944 0.50685 0.92700
Cu	Cu	0.67136 0.20148 0.43787 0.86900
C 	C 	0.64763 0.26397 0.57405 0.28900
O 	O 	0.44422 0.13923 0.51005 -0.36100
C 	C 	0.60117 0.29053 0.39802 0.28500
O 	O 	0.57498 0.20303 0.46255 -0.64300
O 	O 	0.66468 0.11591 0.50018 -0.37600
O 	O 	0.78040 0.23379 0.47131 -0.44300
O 	O 	0.60213 0.31049 0.56857 -0.38400
C 	C 	0.40917 0.19262 0.50115 0.29700
O 	O 	0.47916 0.29274 0.49885 -0.40100
O 	O 	0.64380 0.20078 0.55094 -0.36200
C 	C 	0.75715 0.16504 0.48975 0.30700
O 	O 	0.59600 0.20646 0.40160 -0.42100
H 	H 	0.49803 0.15921 0.45150 0.17400
C 	C 	0.72521 0.30155 0.86937 -0.08500
C 	C 	0.73694 0.27284 0.80518 0.02600
C 	C 	0.71011 0.19283 0.82259 -0.06500
C 	C 	0.70484 0.20739 0.85464 0.01300
C 	C 	0.73399 0.25470 0.77082 -0.00000
C 	C 	0.72289 0.24555 0.70520 0.00000
C 	C 	0.82401 0.31476 0.72597 -0.03800
C 	C 	0.82950 0.31943 0.75865 -0.03800
C 	C 	0.71453 0.25304 0.67136 0.02700
C 	C 	0.67884 0.26222 0.60719 -0.08500
C 	C 	0.65311 0.16793 0.61587 0.01700
C 	C 	0.67074 0.16336 0.64783 -0.06500
H 	H 	0.69188 0.11897 0.81122 0.04600
H 	H 	0.68211 0.14446 0.86774 0.03100
H 	H 	0.89778 0.36730 0.71687 0.03900
H 	H 	0.90741 0.37577 0.77454 0.03900
H 	H 	0.61632 0.09731 0.59800 0.04000
H 	H 	0.64841 0.08964 0.65433 0.04700
C 	C 	0.58105 0.30570 0.36566 -0.08800
C 	C 	0.51277 0.21693 0.34095 0.01200
C 	C 	0.50792 0.23081 0.30955 -0.06700
C 	C 	0.57073 0.33358 0.30249 0.02500
C 	C 	0.57915 0.34738 0.26926 -0.00100
C 	C 	0.68004 0.39562 0.25966 -0.03900
C 	C 	0.68578 0.39482 0.22757 -0.03900
C 	C 	0.59075 0.34564 0.20476 -0.00100
C 	C 	0.59405 0.32803 0.17092 0.02600
C 	C 	0.60503 0.25079 0.15887 -0.06800
C 	C 	0.61673 0.23906 0.12748 0.01200
C 	C 	0.61768 0.30456 0.10773 -0.08700
H 	H 	0.46587 0.13704 0.34599 0.03000
H 	H 	0.45846 0.16155 0.29065 0.04400
H 	H 	0.75330 0.43005 0.27694 0.03600
H 	H 	0.76344 0.42893 0.22033 0.03700
H 	H 	0.60618 0.20092 0.17401 0.04400
H 	H 	0.62638 0.17984 0.11858 0.02000
C 	C 	0.82322 0.13035 0.49380 -0.11800
C 	C 	0.87535 0.09725 0.49605 0.04200
C 	C 	0.29622 0.14716 0.49907 -0.10700
C 	C 	0.20114 0.10746 0.49786 0.04000
C 	C 	0.83772 0.03661 0.97536 0.03100
C 	C 	0.80533 0.08966 0.97692 -0.10800
C 	C 	0.17376 0.07830 0.97355 0.04400
C 	C 	0.26933 0.13623 0.97318 -0.11100
C 	C 	0.92751 0.04729 0.49771 -0.00000
O 	O 	0.82466 0.49046 0.97075 -0.35200
C 	C 	0.76738 0.52407 0.97831 0.28500
O 	O 	0.66344 0.45459 0.97891 -0.39700
H 	H 	0.80110 0.41268 0.02713 0.17200
Cu	Cu	0.65088 0.35871 0.46816 0.89800
Cu	Cu	0.62493 0.39488 0.53472 0.89700
O 	O 	0.69463 0.35542 0.51095 -0.63800
O 	O 	0.73475 0.51119 0.47536 -0.39000
C 	C 	0.73459 0.57134 0.49846 0.31800
O 	O 	0.70504 0.54027 0.52533 -0.39700
O 	O 	0.62522 0.36208 0.42268 -0.38100
H 	H 	0.77442 0.39802 0.51818 0.16800
C 	C 	0.75499 0.38260 0.85211 0.01500
C 	C 	0.76092 0.36832 0.82022 -0.06600
C 	C 	0.63376 0.18124 0.74997 -0.03800
C 	C 	0.62819 0.17675 0.71730 -0.03800
C 	C 	0.74407 0.34831 0.66259 -0.06500
C 	C 	0.72648 0.35292 0.63070 0.01300
H 	H 	0.77237 0.45621 0.86333 0.03600
H 	H 	0.78189 0.43059 0.80700 0.04700
H 	H 	0.55960 0.13075 0.75913 0.03900
H 	H 	0.54975 0.12282 0.70150 0.04000
H 	H 	0.77806 0.41803 0.68054 0.04600
H 	H 	0.74786 0.42645 0.62430 0.02300
C 	C 	0.63374 0.42257 0.32726 -0.06600
C 	C 	0.63886 0.40873 0.35871 0.01000
C 	C 	0.49073 0.30225 0.21442 -0.03900
C 	C 	0.48493 0.30322 0.24656 -0.03900
C 	C 	0.60306 0.37966 0.11948 0.01500
C 	C 	0.59140 0.39139 0.15102 -0.06700
H 	H 	0.68146 0.50231 0.32210 0.04400
H 	H 	0.69124 0.47799 0.37751 0.03500
H 	H 	0.41698 0.26446 0.19698 0.03800
H 	H 	0.40682 0.26678 0.25373 0.03700
H 	H 	0.60366 0.43076 0.10453 0.03600
H 	H 	0.58253 0.45100 0.16011 0.04500
C 	C 	0.81090 0.63408 0.97853 -0.09600
C 	C 	0.79222 0.68113 0.49748 -0.11100
C 	C 	0.84520 0.72531 0.97809 0.03200
C 	C 	0.89141 0.98693 0.97420 0.01200
C 	C 	0.00757 0.90375 0.97604 -0.05100
C 	C 	0.89650 0.83673 0.97704 0.01000
C 	C 	0.83713 0.87822 0.97636 -0.05600
H 	H 	0.05351 0.87275 0.97681 0.04700
H 	H 	0.75121 0.82740 0.97754 0.04700
C 	C 	0.02047 0.94181 0.49639 -0.04600
C 	C 	0.90968 0.88562 0.49685 0.00200
C 	C 	0.86332 0.93804 0.49769 -0.04800
H 	H 	0.05604 0.90043 0.49597 0.04800
H 	H 	0.77686 0.89358 0.49794 0.04700
C 	C 	0.84418 0.77427 0.49704 0.04600
