data_crystal

_cell_length_a 15.53159
_cell_length_b 15.97488
_cell_length_c 34.79568
_cell_angle_alpha 95.38458
_cell_angle_beta  95.38623
_cell_angle_gamma 126.68007

_symmetry_space_group_name_	'P 1'
_symmetry_space_group_name_H-M	'P 1'

loop_
_symmetry_equiv_pos_as_xyz
  x,y,z

loop_
_atom_site_label
_atom_site_type_symbol
_atom_site_fract_x
_atom_site_fract_y
_atom_site_fract_z
_atom_site_charge
C 	C 	0.02248 0.91246 0.96910 -0.05500
C 	C 	0.07442 0.01842 0.96618 0.02600
C 	C 	0.01646 0.05932 0.96482 -0.04700
H 	H 	0.06860 0.88156 0.96985 0.06500
H 	H 	0.05821 0.14210 0.96259 0.06300
C 	C 	0.01555 0.94277 0.49474 -0.05400
C 	C 	0.08067 0.05175 0.49497 0.02500
C 	C 	0.03411 0.10500 0.49595 -0.05200
H 	H 	0.05141 0.90165 0.49396 0.06400
H 	H 	0.08410 0.18950 0.49573 0.06100
C 	C 	0.90616 0.99574 0.96756 0.01900
C 	C 	0.85214 0.88748 0.97063 -0.04900
C 	C 	0.91161 0.84589 0.97104 0.02800
H 	H 	0.76643 0.83712 0.97273 0.06100
C 	C 	0.92207 0.04771 0.49706 0.02500
C 	C 	0.85823 0.93892 0.49744 -0.05300
C 	C 	0.90487 0.88675 0.49605 0.02500
H 	H 	0.77183 0.89462 0.49824 0.06300
Cu	Cu	0.78490 0.34406 0.96245 0.92900
Cu	Cu	0.73845 0.23549 0.04127 0.88100
Cu	Cu	0.61179 0.30277 0.00871 0.89700
Cu	Cu	0.58199 0.33357 0.92516 0.91000
C 	C 	0.72553 0.32151 0.87902 0.34400
O 	O 	0.84209 0.50135 0.96439 -0.32700
C 	C 	0.65118 0.30337 0.09351 0.33500
O 	O 	0.61488 0.25975 0.95476 -0.62900
O 	O 	0.76432 0.35162 0.01727 -0.64700
O 	O 	0.84731 0.26312 0.96707 -0.34600
O 	O 	0.70970 0.14088 0.99588 -0.41500
O 	O 	0.68261 0.36966 0.88741 -0.35700
O 	O 	0.46696 0.26595 0.99880 -0.36200
C 	C 	0.39807 0.21485 0.96507 0.31000
C 	C 	0.78391 0.53443 0.97335 0.28900
O 	O 	0.67963 0.46476 0.97384 -0.38300
O 	O 	0.42900 0.24399 0.93178 -0.37300
O 	O 	0.78063 0.31209 0.90713 -0.35100
C 	C 	0.78798 0.16745 0.97636 0.30000
O 	O 	0.60817 0.32503 0.06513 -0.37100
O 	O 	0.73089 0.29733 0.08926 -0.38300
H 	H 	0.56801 0.18182 0.94559 0.17200
H 	H 	0.81640 0.42288 0.03417 0.18100
Cu	Cu	0.59409 0.19233 0.50798 0.93200
Cu	Cu	0.66822 0.20286 0.42235 0.88200
Cu	Cu	0.65101 0.36299 0.46022 0.90300
Cu	Cu	0.61785 0.39530 0.54217 0.90500
C 	C 	0.63415 0.26077 0.59147 0.34600
O 	O 	0.43944 0.14117 0.51114 -0.35000
C 	C 	0.60329 0.29565 0.37311 0.33900
O 	O 	0.69056 0.35774 0.51359 -0.63600
O 	O 	0.57308 0.20718 0.45295 -0.64000
O 	O 	0.66045 0.11855 0.50017 -0.35600
O 	O 	0.77690 0.23513 0.46409 -0.42400
O 	O 	0.59061 0.30884 0.58392 -0.37800
O 	O 	0.73574 0.51505 0.47002 -0.36300
C 	C 	0.73124 0.57332 0.49799 0.31600
C 	C 	0.40404 0.19377 0.49951 0.29900
O 	O 	0.47404 0.29376 0.49676 -0.39100
O 	O 	0.69815 0.54093 0.53088 -0.37700
O 	O 	0.63800 0.20326 0.56289 -0.33600
C 	C 	0.75310 0.16684 0.48722 0.31300
O 	O 	0.63305 0.36971 0.40364 -0.35000
O 	O 	0.59363 0.20956 0.37756 -0.40900
H 	H 	0.77017 0.40017 0.52338 0.18800
H 	H 	0.49619 0.16449 0.43913 0.18200
C 	C 	0.77433 0.27977 0.69032 -0.14600
C 	C 	0.69389 0.25236 0.71301 0.01600
C 	C 	0.59070 0.21852 0.69480 0.29800
C 	C 	0.56982 0.21659 0.65464 -0.05600
C 	C 	0.65174 0.24857 0.63226 -0.14000
C 	C 	0.75324 0.27748 0.65002 0.37000
C 	C 	0.72128 0.27043 0.75628 0.01200
F 	F 	0.51218 0.19177 0.71638 -0.41200
H 	H 	0.49075 0.19273 0.64108 0.09900
F 	F 	0.83291 0.30773 0.62866 -0.44000
H 	H 	0.85406 0.30569 0.70411 0.12100
C 	C 	0.67209 0.18399 0.77599 0.30300
C 	C 	0.68037 0.20134 0.81684 -0.05800
C 	C 	0.73742 0.30490 0.83817 -0.14000
C 	C 	0.79335 0.39160 0.81881 0.37600
C 	C 	0.78538 0.37431 0.77805 -0.14700
F 	F 	0.61237 0.08316 0.75538 -0.40900
H 	H 	0.63816 0.13407 0.83161 0.09000
F 	F 	0.85186 0.49242 0.83932 -0.43300
H 	H 	0.82482 0.44150 0.76316 0.11900
C 	C 	0.66968 0.40516 0.28004 -0.14000
C 	C 	0.57925 0.31962 0.25241 0.01600
C 	C 	0.48872 0.23519 0.26554 0.28500
C 	C 	0.49325 0.23147 0.30565 -0.05600
C 	C 	0.58748 0.31270 0.33300 -0.14500
C 	C 	0.67368 0.40204 0.32022 0.36700
C 	C 	0.58703 0.31013 0.21039 0.01400
F 	F 	0.39875 0.15405 0.23926 -0.42000
H 	H 	0.42543 0.16322 0.31530 0.09100
F 	F 	0.76460 0.48220 0.34639 -0.44000
H 	H 	0.73941 0.47127 0.27026 0.12700
C 	C 	0.59652 0.38397 0.18846 0.28700
C 	C 	0.61357 0.37961 0.14968 -0.05400
C 	C 	0.62149 0.30168 0.13265 -0.14300
C 	C 	0.60807 0.22575 0.15420 0.36700
C 	C 	0.59150 0.23038 0.19286 -0.13900
F 	F 	0.59063 0.46055 0.20484 -0.41900
H 	H 	0.62344 0.43836 0.13331 0.09600
F 	F 	0.61194 0.14783 0.13771 -0.45300
H 	H 	0.58411 0.17304 0.20951 0.12400
C 	C 	0.78822 0.68285 0.49694 -0.08400
C 	C 	0.83972 0.77574 0.49641 0.05500
C 	C 	0.81821 0.13114 0.49226 -0.09100
C 	C 	0.86974 0.09741 0.49504 0.05300
C 	C 	0.19570 0.10810 0.49573 0.04900
C 	C 	0.29097 0.14825 0.49699 -0.09000
C 	C 	0.86070 0.73490 0.97270 0.04600
C 	C 	0.82699 0.64408 0.97344 -0.07100
C 	C 	0.82132 0.09970 0.97185 -0.08700
C 	C 	0.85288 0.04592 0.96956 0.05100
C 	C 	0.28447 0.14496 0.96549 -0.08800
C 	C 	0.18860 0.08659 0.96574 0.05500
