data_crystal

_cell_length_a 18.31307
_cell_length_b 18.84538
_cell_length_c 39.29145
_cell_angle_alpha 95.44169
_cell_angle_beta  95.44173
_cell_angle_gamma 126.45493

_symmetry_space_group_name_	'P 1'
_symmetry_space_group_name_H-M	'P 1'

loop_
_symmetry_equiv_pos_as_xyz
  x,y,z

loop_
_atom_site_label
_atom_site_type_symbol
_atom_site_fract_x
_atom_site_fract_y
_atom_site_fract_z
_atom_site_charge
C 	C 	0.89246 0.97973 0.96692 0.11700
N 	N 	0.98312 0.03182 0.96454 -0.14000
C 	C 	0.02926 0.99632 0.96375 0.12200
N 	N 	0.98412 0.90788 0.96410 -0.14000
C 	C 	0.89306 0.85465 0.96571 0.12000
N 	N 	0.84711 0.89078 0.96778 -0.13600
C 	C 	0.94484 0.04361 0.49585 0.11700
N 	N 	0.03579 0.09341 0.49374 -0.13600
C 	C 	0.08043 0.05620 0.49554 0.12100
N 	N 	0.03422 0.96960 0.49962 -0.13600
C 	C 	0.94355 0.92006 0.50185 0.11800
N 	N 	0.89877 0.95690 0.49973 -0.13900
Cu	Cu	0.75728 0.33425 0.96645 0.92700
Cu	Cu	0.74847 0.28289 0.04432 0.87300
Cu	Cu	0.60515 0.28888 0.00709 0.89700
Cu	Cu	0.58122 0.31554 0.93415 0.89600
C 	C 	0.69245 0.28785 0.89244 0.28900
O 	O 	0.80513 0.46201 0.96154 -0.35700
C 	C 	0.66559 0.34251 0.08391 0.28900
O 	O 	0.61235 0.25586 0.96054 -0.63800
O 	O 	0.74176 0.35530 0.01451 -0.64300
O 	O 	0.82242 0.27984 0.97543 -0.36900
O 	O 	0.72333 0.19039 0.00949 -0.43500
O 	O 	0.65234 0.32670 0.89685 -0.38500
O 	O 	0.47193 0.21625 0.99759 -0.38100
C 	C 	0.42064 0.20907 0.96947 0.29600
C 	C 	0.75942 0.49292 0.96998 0.28400
O 	O 	0.67285 0.43663 0.97302 -0.39300
O 	O 	0.45743 0.26121 0.94631 -0.39000
O 	O 	0.74922 0.29517 0.91845 -0.36300
C 	C 	0.78376 0.20771 0.98967 0.29200
O 	O 	0.59735 0.30442 0.05668 -0.38700
O 	O 	0.74023 0.34786 0.08206 -0.41700
H 	H 	0.57536 0.19032 0.95203 0.16500
H 	H 	0.77731 0.41920 0.02566 0.17500
Cu	Cu	0.61592 0.21272 0.50452 0.92800
Cu	Cu	0.66276 0.22250 0.42576 0.87300
Cu	Cu	0.67815 0.37095 0.46825 0.89800
Cu	Cu	0.65775 0.39101 0.54297 0.89600
C 	C 	0.66753 0.26457 0.57894 0.29000
O 	O 	0.49131 0.17891 0.51164 -0.36000
C 	C 	0.62446 0.32575 0.39100 0.28900
O 	O 	0.70871 0.35375 0.51333 -0.63700
O 	O 	0.59752 0.23705 0.45795 -0.64200
O 	O 	0.65315 0.13546 0.49117 -0.37300
O 	O 	0.75157 0.23043 0.45828 -0.43500
O 	O 	0.63549 0.31122 0.57701 -0.38400
O 	O 	0.76117 0.50007 0.48113 -0.38300
C 	C 	0.75637 0.54715 0.50665 0.29600
C 	C 	0.46709 0.23036 0.50525 0.28600
O 	O 	0.53049 0.31578 0.50490 -0.39100
O 	O 	0.73219 0.51777 0.53592 -0.39100
O 	O 	0.65462 0.21018 0.55122 -0.36200
C 	C 	0.72557 0.16678 0.47638 0.29400
O 	O 	0.66646 0.38820 0.41971 -0.38800
O 	O 	0.60407 0.24586 0.39089 -0.41900
H 	H 	0.77523 0.38290 0.52102 0.16700
H 	H 	0.53263 0.20929 0.44760 0.17200
C 	C 	0.69431 0.25465 0.61359 -0.08800
C 	C 	0.64752 0.16918 0.62245 0.02100
C 	C 	0.65722 0.16105 0.65734 -0.07000
C 	C 	0.71414 0.23821 0.68342 0.04000
C 	C 	0.76665 0.32315 0.67426 -0.07000
C 	C 	0.75663 0.33139 0.63948 0.01700
C 	C 	0.70839 0.23135 0.71940 -0.02000
C 	C 	0.70518 0.22808 0.74976 -0.02000
C 	C 	0.69953 0.22725 0.78604 0.04000
C 	C 	0.78038 0.27218 0.81127 -0.07000
C 	C 	0.77738 0.28715 0.84651 0.02000
C 	C 	0.69345 0.25782 0.85664 -0.08700
C 	C 	0.61177 0.20800 0.83150 0.01700
C 	C 	0.61483 0.19267 0.79635 -0.06900
H 	H 	0.59973 0.10938 0.60265 0.03800
H 	H 	0.61709 0.09504 0.66419 0.05000
H 	H 	0.81170 0.38307 0.69425 0.04900
H 	H 	0.79411 0.39762 0.63285 0.02000
H 	H 	0.84610 0.29876 0.80351 0.05000
H 	H 	0.84086 0.32524 0.86567 0.03800
H 	H 	0.54641 0.18383 0.83908 0.02200
H 	H 	0.55191 0.15727 0.77700 0.04900
C 	C 	0.61110 0.34954 0.35754 -0.09200
C 	C 	0.53489 0.28414 0.33130 0.01800
C 	C 	0.53277 0.29902 0.29716 -0.07100
C 	C 	0.60666 0.37930 0.28903 0.03900
C 	C 	0.67887 0.44771 0.31570 -0.07100
C 	C 	0.68105 0.43302 0.34990 0.01500
C 	C 	0.61532 0.38570 0.25321 -0.02300
C 	C 	0.62148 0.38995 0.22308 -0.02200
C 	C 	0.63007 0.39169 0.18706 0.03900
C 	C 	0.55246 0.32992 0.16088 -0.07000
C 	C 	0.56327 0.31779 0.12655 0.01500
C 	C 	0.65206 0.36711 0.11825 -0.09000
C 	C 	0.72891 0.43361 0.14410 0.01600
C 	C 	0.71789 0.44564 0.17839 -0.07100
H 	H 	0.47939 0.22025 0.33703 0.02900
H 	H 	0.47597 0.24632 0.27675 0.04800
H 	H 	0.73573 0.51044 0.30968 0.04700
H 	H 	0.73987 0.48441 0.36995 0.03100
H 	H 	0.48422 0.28843 0.16735 0.04800
H 	H 	0.50316 0.26702 0.10683 0.03600
H 	H 	0.79750 0.47381 0.13788 0.03000
H 	H 	0.77814 0.49423 0.19845 0.04700
C 	C 	0.89256 0.82507 0.50431 -0.01400
C 	C 	0.81945 0.75925 0.47730 -0.05500
C 	C 	0.77299 0.66812 0.47813 0.05000
C 	C 	0.80055 0.64230 0.50612 -0.08700
C 	C 	0.87196 0.70822 0.53362 -0.00700
C 	C 	0.91761 0.79931 0.53298 0.00600
S 	S 	0.67858 0.58720 0.44459 -0.05100
S 	S 	0.00366 0.88029 0.56876 -0.03000
H 	H 	0.96415 0.90002 0.59202 0.03400
H 	H 	0.70992 0.56639 0.41803 0.04700
H 	H 	0.79927 0.77906 0.45548 0.05100
H 	H 	0.89249 0.68856 0.55541 0.04000
C 	C 	0.89441 0.08099 0.49127 -0.01300
C 	C 	0.85849 0.07741 0.45752 -0.05800
C 	C 	0.80052 0.10220 0.45228 0.05700
C 	C 	0.77992 0.13324 0.48120 -0.09500
C 	C 	0.81597 0.13686 0.51500 -0.00600
C 	C 	0.87314 0.11100 0.52017 0.00800
S 	S 	0.74970 0.08880 0.40946 -0.09400
S 	S 	0.91816 0.11703 0.56289 -0.03700
H 	H 	0.85993 0.03593 0.57277 0.03900
H 	H 	0.66670 0.00476 0.40000 0.03300
H 	H 	0.87345 0.05267 0.43528 0.05200
H 	H 	0.80056 0.16098 0.53728 0.04500
C 	C 	0.36938 0.19352 0.50076 -0.08900
C 	C 	0.30648 0.12599 0.47199 -0.00800
C 	C 	0.21196 0.08487 0.46865 0.01000
C 	C 	0.17962 0.11045 0.49468 -0.01300
C 	C 	0.24303 0.18116 0.52251 -0.05600
C 	C 	0.33760 0.22246 0.52583 0.05600
S 	S 	0.13496 0.00250 0.43156 -0.03900
S 	S 	0.41472 0.30670 0.56246 -0.06500
H 	H 	0.42573 0.26823 0.58837 0.04300
H 	H 	0.10267 0.91942 0.43826 0.04000
H 	H 	0.33105 0.10493 0.45234 0.03000
H 	H 	0.21835 0.20132 0.54243 0.05400
C 	C 	0.79894 0.58764 0.96976 -0.08700
C 	C 	0.81515 0.61900 0.93829 -0.01200
C 	C 	0.83686 0.70304 0.93576 0.01100
C 	C 	0.84514 0.75806 0.96525 -0.01500
C 	C 	0.82730 0.72605 0.99657 -0.05100
C 	C 	0.80491 0.64162 0.99906 0.05200
S 	S 	0.85250 0.73836 0.89539 -0.03600
S 	S 	0.78833 0.60591 0.03935 -0.06500
H 	H 	0.69640 0.55658 0.04111 0.04000
H 	H 	0.94419 0.78701 0.89329 0.03800
H 	H 	0.80798 0.57675 0.91543 0.04300
H 	H 	0.83494 0.76851 0.01947 0.04900
C 	C 	0.80889 0.14652 0.98388 -0.09000
C 	C 	0.79746 0.10658 0.94982 -0.00700
C 	C 	0.81621 0.04466 0.94392 0.00800
C 	C 	0.84710 0.02239 0.97231 -0.00900
C 	C 	0.85511 0.05975 0.00632 -0.06100
C 	C 	0.83797 0.12271 0.01230 0.05400
S 	S 	0.80167 0.99613 0.90089 -0.03500
S 	S 	0.86011 0.17618 0.05536 -0.09800
H 	H 	0.94999 0.25231 0.06370 0.03200
H 	H 	0.88353 0.04735 0.88934 0.03900
H 	H 	0.77355 0.12326 0.92790 0.04400
H 	H 	0.88032 0.04402 0.02821 0.05200
C 	C 	0.12906 0.05438 0.96458 -0.01500
C 	C 	0.16324 0.03878 0.93672 -0.05400
C 	C 	0.25848 0.08847 0.93809 0.05200
C 	C 	0.32044 0.15517 0.96756 -0.08800
C 	C 	0.28621 0.17108 0.99534 -0.00400
C 	C 	0.19103 0.12078 0.99412 0.01200
S 	S 	0.29917 0.06364 0.90353 -0.06400
S 	S 	0.15043 0.13922 0.03028 -0.03900
H 	H 	0.13428 0.20022 0.02555 0.03800
H 	H 	0.31016 0.00019 0.91029 0.03400
H 	H 	0.11557 0.98689 0.91420 0.05000
H 	H 	0.33381 0.22250 0.01799 0.04200
