data_crystal

_cell_length_a 26.28166
_cell_length_b 27.35555
_cell_length_c 36.13627
_cell_angle_alpha 61.08443
_cell_angle_beta  118.62593
_cell_angle_gamma 133.22684

_symmetry_space_group_name_	'P 1'
_symmetry_space_group_name_H-M	'P 1'

loop_
_symmetry_equiv_pos_as_xyz
  x,y,z

loop_
_atom_site_label
_atom_site_type_symbol
_atom_site_fract_x
_atom_site_fract_y
_atom_site_fract_z
_atom_site_charge
C 	C 	0.26015 0.56639 0.25521 -0.07500
H 	H 	0.20964 0.54479 0.25956 0.05200
C 	C 	0.21451 0.59596 0.72440 -0.07700
H 	H 	0.16638 0.55443 0.73685 0.05100
Co	Co	0.06786 0.98849 0.08305 1.19100
Co	Co	0.01654 0.04929 0.10378 1.17600
C 	C 	0.18746 0.00304 0.07720 0.29000
Co	Co	0.05399 0.85855 0.08628 1.16300
O 	O 	0.08184 0.07616 0.07252 -0.46800
C 	C 	0.05372 0.15682 0.13474 0.28600
C 	C 	0.11417 0.83857 0.18377 0.29000
O 	O 	0.98462 0.12884 0.12189 -0.39000
O 	O 	0.07971 0.13409 0.12889 -0.38700
O 	O 	0.12518 0.85595 0.14569 -0.38600
O 	O 	0.05271 0.81638 0.18723 -0.38500
O 	O 	0.04280 0.90766 0.10880 -0.78000
O 	O 	0.13598 0.95225 0.05759 -0.40200
O 	O 	0.17218 0.02754 0.09091 -0.38900
Co	Co	0.07199 0.04261 0.57327 1.18300
C 	C 	0.22445 0.09693 0.60152 0.30600
Co	Co	0.12291 0.94673 0.60321 1.16800
O 	O 	0.05771 0.11696 0.55021 -0.47400
C 	C 	0.06409 0.20083 0.62351 0.29000
C 	C 	0.13376 0.91355 0.69662 0.29900
O 	O 	0.07717 0.16376 0.62149 -0.40100
O 	O 	0.17245 0.94934 0.66797 -0.38800
O 	O 	0.08988 0.92505 0.69237 -0.39600
O 	O 	0.05723 0.96612 0.60227 -0.76700
O 	O 	0.20265 0.05130 0.58394 -0.40900
O 	O 	0.17758 0.09649 0.60626 -0.40500
C 	C 	0.01319 0.04431 0.85857 -0.12800
C 	C 	0.02548 0.02996 0.83245 0.01900
C 	C 	0.03044 0.06360 0.79097 -0.05400
O 	O 	0.99071 0.00191 0.93001 -0.20200
H 	H 	0.03235 0.09624 0.85403 0.07100
H 	H 	0.02828 0.10759 0.77329 0.05100
C 	C 	0.96145 0.97558 0.33124 0.11600
C 	C 	0.98224 0.01761 0.35458 -0.07100
C 	C 	0.03285 0.02219 0.39441 -0.02700
O 	O 	0.93807 0.98849 0.28628 -0.18500
C 	C 	0.03852 0.03637 0.42750 -0.03700
H 	H 	0.96206 0.04793 0.34130 0.06300
H 	H 	0.00629 0.04843 0.42665 0.04600
C 	C 	0.13852 0.43754 0.64768 0.00100
C 	C 	0.13419 0.41845 0.61614 -0.05700
C 	C 	0.15257 0.37364 0.63016 0.01500
C 	C 	0.18108 0.35434 0.67444 0.00200
C 	C 	0.18758 0.37550 0.70586 -0.06100
C 	C 	0.16798 0.41935 0.69172 0.02600
S 	S 	0.14739 0.50809 0.63909 -0.01400
C 	C 	0.18460 0.51631 0.69038 -0.00600
C 	C 	0.19417 0.46369 0.71592 -0.06100
S 	S 	0.16347 0.27910 0.68319 0.02200
C 	C 	0.12316 0.26935 0.63225 -0.07300
C 	C 	0.12123 0.32658 0.60638 -0.02100
H 	H 	0.11340 0.43472 0.58202 0.04500
H 	H 	0.20784 0.35895 0.74004 0.04800
H 	H 	0.22855 0.46423 0.74835 0.04800
H 	H 	0.08686 0.32739 0.57400 0.04100
C 	C 	0.12565 0.74771 0.76082 0.00400
C 	C 	0.11273 0.69271 0.75494 -0.06100
C 	C 	0.17075 0.69030 0.76816 0.02600
C 	C 	0.23996 0.74279 0.78600 0.00400
C 	C 	0.25438 0.80306 0.78495 -0.05600
C 	C 	0.19620 0.80490 0.77249 0.01400
S 	S 	0.07504 0.77588 0.73129 0.01500
C 	C 	0.13779 0.85903 0.73280 -0.07900
C 	C 	0.20311 0.86756 0.75645 -0.01600
C 	C 	0.24017 0.67400 0.75831 -0.00500
C 	C 	0.17080 0.65184 0.75230 -0.06000
H 	H 	0.06059 0.65607 0.73771 0.04600
H 	H 	0.25460 0.91789 0.75592 0.04500
H 	H 	0.12392 0.61745 0.73156 0.04400
C 	C 	0.12454 0.37416 0.18906 0.00100
C 	C 	0.10649 0.35481 0.15265 -0.05700
C 	C 	0.12458 0.31363 0.15811 0.01400
C 	C 	0.16248 0.29522 0.19843 0.00300
C 	C 	0.17822 0.31209 0.23520 -0.06100
C 	C 	0.16241 0.35529 0.22967 0.02600
C 	C 	0.20044 0.45884 0.23575 -0.00600
C 	C 	0.20375 0.40205 0.25615 -0.06000
S 	S 	0.15198 0.22773 0.19897 0.02100
C 	C 	0.10353 0.22198 0.14790 -0.07200
C 	C 	0.09108 0.27244 0.12950 -0.02100
H 	H 	0.07937 0.37135 0.12117 0.04300
H 	H 	0.20609 0.29605 0.26647 0.04800
H 	H 	0.24494 0.40186 0.28487 0.04800
H 	H 	0.05138 0.27266 0.09970 0.03900
C 	C 	0.20657 0.75228 0.27586 -0.00100
C 	C 	0.20698 0.69476 0.29060 -0.05900
C 	C 	0.26593 0.70524 0.28858 0.02500
C 	C 	0.32106 0.77138 0.27034 0.00500
C 	C 	0.31538 0.82632 0.25016 -0.05700
C 	C 	0.25816 0.81672 0.25387 0.01800
S 	S 	0.13224 0.74735 0.25748 0.02400
C 	C 	0.16218 0.82566 0.22326 -0.07200
C 	C 	0.23333 0.85804 0.22454 -0.02100
C 	C 	0.31820 0.67572 0.27324 -0.00400
C 	C 	0.26427 0.65111 0.29035 -0.05900
H 	H 	0.16077 0.64309 0.30036 0.04600
H 	H 	0.35117 0.87316 0.22965 0.05000
H 	H 	0.26147 0.90381 0.20026 0.04700
H 	H 	0.22255 0.59685 0.30061 0.04400
S 	S 	0.33611 0.23220 0.57834 0.02600
C 	C 	0.30089 0.15292 0.61137 -0.07700
C 	C 	0.35350 0.14119 0.63077 -0.01700
H 	H 	0.34116 0.09006 0.64734 0.03800
S 	S 	0.33021 0.07113 0.12115 0.02000
C 	C 	0.26238 0.03704 0.07968 -0.07000
C 	C 	0.28119 0.01616 0.06266 -0.03700
H 	H 	0.24673 0.99172 0.03566 0.05300
C 	C 	0.32123 0.63325 0.26098 0.03700
C 	C 	0.26402 0.52815 0.24249 0.03800
C 	C 	0.25863 0.66166 0.73226 0.03700
C 	C 	0.23273 0.58378 0.70063 0.03800
O 	O 	0.03425 0.96599 0.13976 -0.58700
O 	O 	0.96143 0.02230 0.20551 -0.37800
O 	O 	0.06491 0.03786 0.51464 -0.38600
S 	S 	0.14585 0.44838 0.18642 -0.01300
C 	C 	0.00984 0.01700 0.77228 0.01200
C 	C 	0.95293 0.95442 0.27854 0.03900
C 	C 	0.95366 0.96578 0.23463 0.27500
H 	H 	0.30912 0.84875 0.79043 0.04800
C 	C 	0.34969 0.03004 0.08443 0.01900
H 	H 	0.36424 0.01589 0.03710 0.04600
C 	C 	0.32767 0.55754 0.23377 -0.07700
C 	C 	0.32127 0.71486 0.71620 -0.07700
C 	C 	0.29636 0.63645 0.68596 -0.07600
H 	H 	0.31176 0.62602 0.66916 0.05600
S 	S 	0.29851 0.74111 0.78128 -0.01100
S 	S 	0.36384 0.76177 0.25529 -0.01000
C 	C 	0.41779 0.25523 0.58843 0.00300
C 	C 	0.41911 0.19849 0.61780 0.01500
H 	H 	0.32928 0.52936 0.22165 0.05600
Co	Co	0.99616 0.85911 0.14696 1.19600
C 	C 	0.38808 0.62419 0.23877 0.03900
C 	C 	0.38544 0.66115 0.25345 -0.07600
C 	C 	0.34067 0.70204 0.69370 0.03800
H 	H 	0.35516 0.76609 0.72127 0.05500
C 	C 	0.46104 0.30217 0.55828 -0.05900
C 	C 	0.46927 0.19193 0.62038 -0.05500
H 	H 	0.45103 0.33800 0.53092 0.04900
H 	H 	0.46630 0.14530 0.63958 0.04500
C 	C 	0.38906 0.03369 0.06624 -0.06000
C 	C 	0.38400 0.06063 0.11897 -0.00300
O 	O 	0.95960 0.92636 0.22779 -0.37100
H 	H 	0.43294 0.71222 0.25810 0.05500
C 	C 	0.41020 0.75592 0.68139 -0.00500
H 	H 	0.44114 0.73464 0.16580 0.04800
C 	C 	0.51285 0.29691 0.56207 0.02700
C 	C 	0.51910 0.24443 0.59444 0.00300
C 	C 	0.45898 0.10246 0.13259 -0.05900
S 	S 	0.42215 0.77156 0.63423 -0.00900
C 	C 	0.45111 0.65837 0.22382 -0.00500
C 	C 	0.46196 0.70428 0.18288 -0.05900
C 	C 	0.46274 0.06677 0.08432 0.00400
H 	H 	0.48586 0.13596 0.15338 0.04700
C 	C 	0.47587 0.77653 0.71209 -0.05900
H 	H 	0.48036 0.76119 0.74671 0.04900
C 	C 	0.49834 0.10383 0.11569 0.02400
O 	O 	0.97028 0.76046 0.11115 -0.39000
C 	C 	0.54499 0.32628 0.52774 -0.06000
H 	H 	0.54668 0.36833 0.50042 0.04800
S 	S 	0.56133 0.23407 0.57943 -0.01100
S 	S 	0.52152 0.10237 0.05731 -0.01300
C 	C 	0.50956 0.80767 0.65007 0.00400
S 	S 	0.48912 0.62015 0.23707 -0.00900
C 	C 	0.06997 0.99711 0.50853 0.28500
O 	O 	0.06673 0.94327 0.53916 -0.37700
C 	C 	0.53170 0.80529 0.69447 0.02800
C 	C 	0.50102 0.70529 0.16556 0.02800
C 	C 	0.57436 0.29516 0.53278 -0.00500
O 	O 	0.04989 0.84022 0.62434 -0.41200
H 	H 	0.52819 0.81058 0.59656 0.04800
C 	C 	0.54653 0.81015 0.63063 -0.05600
H 	H 	0.52883 0.79986 0.11487 0.04900
C 	C 	0.57228 0.15743 0.11621 -0.05900
C 	C 	0.06767 0.00543 0.46454 0.01600
O 	O 	0.00352 0.96749 0.02192 -0.38000
C 	C 	0.05783 0.98283 0.41208 0.13900
H 	H 	0.58816 0.24403 0.49350 0.05400
C 	C 	0.51924 0.65906 0.19254 0.00300
C 	C 	0.53754 0.76007 0.13297 -0.05900
C 	C 	0.59437 0.80956 0.71996 -0.05800
C 	C 	0.59383 0.16230 0.08495 -0.00500
C 	C 	0.63462 0.33133 0.51425 0.03800
H 	H 	0.61280 0.80928 0.75401 0.05000
H 	H 	0.60625 0.19503 0.13537 0.04500
C 	C 	0.63471 0.29630 0.49609 -0.07500
C 	C 	0.60968 0.81517 0.65608 0.01700
C 	C 	0.63107 0.81159 0.70064 0.00100
S 	S 	0.64233 0.20307 0.47389 -0.01400
H 	H 	0.64472 0.08813 0.49118 0.04600
C 	C 	0.59053 0.76563 0.12728 0.00300
C 	C 	0.57888 0.67057 0.19087 -0.05400
C 	C 	0.65707 0.22550 0.06682 0.03800
H 	H 	0.69389 0.42642 0.53126 0.05500
C 	C 	0.66638 0.84553 0.63851 -0.01800
H 	H 	0.66269 0.86261 0.60387 0.04300
C 	C 	0.69342 0.39959 0.51660 -0.07700
H 	H 	0.66425 0.16970 0.04535 0.05400
C 	C 	0.68547 0.19496 0.45802 0.00400
C 	C 	0.68527 0.13688 0.47434 -0.05700
C 	C 	0.69459 0.32860 0.48128 0.03700
C 	C 	0.99176 0.92570 0.00531 0.28000
O 	O 	0.98097 0.86592 0.02961 -0.38200
C 	C 	0.97885 0.99025 0.89227 0.16200
O 	O 	0.99743 0.99500 0.71065 -0.36400
O 	O 	0.99757 0.17922 0.61369 -0.39000
O 	O 	0.99143 0.08152 0.69915 -0.37900
C 	C 	0.99266 0.02777 0.72506 0.26900
Co	Co	0.99837 0.09018 0.58594 1.19300
C 	C 	0.74088 0.28016 0.02443 0.03800
C 	C 	0.68559 0.22028 0.04564 -0.07500
C 	C 	0.68662 0.29100 0.06857 -0.07600
C 	C 	0.74596 0.35057 0.05072 0.03900
C 	C 	0.77196 0.34523 0.02778 -0.07500
H 	H 	0.66300 0.29594 0.08306 0.05200
H 	H 	0.81606 0.39149 0.01256 0.05500
C 	C 	0.75222 0.43316 0.50069 0.03900
C 	C 	0.75334 0.39777 0.48344 -0.07600
H 	H 	0.79978 0.42406 0.47210 0.05300
Co	Co	0.94457 0.91892 0.16778 1.19000
Co	Co	0.90586 0.02342 0.14114 1.16300
C 	C 	0.90840 0.74701 0.10426 0.30400
O 	O 	0.85621 0.02372 0.07622 -0.39500
O 	O 	0.96386 0.99738 0.13961 -0.75100
C 	C 	0.89491 0.06179 0.04729 0.29800
O 	O 	0.95002 0.83937 0.18843 -0.46200
C 	C 	0.79525 0.87370 0.14086 0.30800
O 	O 	0.93740 0.05033 0.04906 -0.38800
O 	O 	0.82131 0.92060 0.15907 -0.39900
O 	O 	0.83844 0.87013 0.13537 -0.40200
O 	O 	0.90662 0.78938 0.11043 -0.39200
Co	Co	0.93621 0.96318 0.65268 1.19400
Co	Co	0.00571 0.91358 0.63856 1.18100
Co	Co	0.91885 0.07753 0.63943 1.16600
C 	C 	0.97984 0.80743 0.61267 0.31900
O 	O 	0.85063 0.06921 0.57825 -0.39100
O 	O 	0.94842 0.03790 0.62268 -0.77800
C 	C 	0.87304 0.10417 0.54170 0.29200
O 	O 	0.93807 0.88249 0.66971 -0.45600
C 	C 	0.80120 0.92268 0.65809 0.30600
O 	O 	0.97645 0.98859 0.59835 -0.56800
O 	O 	0.93288 0.12145 0.53915 -0.37400
O 	O 	0.84000 0.98058 0.66949 -0.39500
O 	O 	0.82790 0.91139 0.64278 -0.38700
O 	O 	0.94976 0.82635 0.61818 -0.38400
C 	C 	0.00085 0.96397 0.83762 0.08600
C 	C 	0.96558 0.90980 0.87087 -0.05500
C 	C 	0.95304 0.92404 0.89688 -0.01200
O 	O 	0.99094 0.95235 0.80051 -0.15900
C 	C 	0.97067 0.93666 0.95778 0.04900
C 	C 	0.94797 0.89000 0.93823 -0.04800
H 	H 	0.94646 0.85787 0.87541 0.06000
H 	H 	0.94926 0.84547 0.95534 0.05100
C 	C 	0.03702 0.94074 0.38878 -0.11200
C 	C 	0.98662 0.93635 0.34882 0.02700
C 	C 	0.98187 0.92320 0.31554 -0.04200
O 	O 	0.08166 0.97041 0.45703 -0.18900
H 	H 	0.05730 0.91051 0.40206 0.06900
H 	H 	0.01478 0.91194 0.31638 0.04500
S 	S 	0.71830 0.84771 0.71667 0.03400
C 	C 	0.73175 0.86559 0.66955 -0.07600
C 	C 	0.61360 0.72357 0.15708 0.01700
S 	S 	0.65905 0.83951 0.10613 0.02700
C 	C 	0.71793 0.82049 0.13112 -0.07500
C 	C 	0.68520 0.75440 0.15905 -0.01500
H 	H 	0.60040 0.64247 0.21652 0.04900
H 	H 	0.71531 0.73479 0.18488 0.04200
C 	C 	0.74255 0.14510 0.47195 0.01600
C 	C 	0.79969 0.21083 0.45505 -0.00000
C 	C 	0.80450 0.27017 0.44457 -0.05900
C 	C 	0.74582 0.26154 0.44528 0.02600
C 	C 	0.69459 0.28960 0.46328 -0.00300
C 	C 	0.75109 0.31497 0.44814 -0.05900
S 	S 	0.87040 0.20956 0.47462 0.02800
C 	C 	0.83187 0.12700 0.50287 -0.07300
C 	C 	0.76057 0.09796 0.49871 -0.02200
H 	H 	0.85408 0.32123 0.43915 0.04900
H 	H 	0.79698 0.36851 0.44272 0.04600
H 	H 	0.72704 0.04911 0.51943 0.04300
C 	C 	0.90570 0.64018 0.59077 -0.00000
C 	C 	0.91566 0.59883 0.58706 -0.05700
C 	C 	0.88807 0.58459 0.54652 0.02700
C 	C 	0.85938 0.61820 0.50985 0.00500
C 	C 	0.85121 0.66107 0.51362 -0.05400
C 	C 	0.87581 0.67252 0.55460 0.01800
S 	S 	0.95368 0.68313 0.62905 0.03400
C 	C 	0.93417 0.74036 0.60283 -0.07700
C 	C 	0.89170 0.72916 0.56124 -0.01600
S 	S 	0.80271 0.56874 0.47474 -0.00600
C 	C 	0.81303 0.50520 0.50279 -0.00600
C 	C 	0.86272 0.52168 0.54227 -0.05800
H 	H 	0.93970 0.57484 0.61529 0.04900
H 	H 	0.82629 0.68442 0.48564 0.05100
H 	H 	0.88218 0.76613 0.53510 0.04600
H 	H 	0.86929 0.48386 0.56980 0.04900
C 	C 	0.77349 0.21725 0.96585 0.00400
C 	C 	0.76412 0.16142 0.96409 -0.05600
C 	C 	0.82535 0.16480 0.97537 0.01500
C 	C 	0.89380 0.22244 0.98884 0.00300
C 	C 	0.90152 0.27230 0.99741 -0.06000
C 	C 	0.84054 0.26984 0.98511 0.02700
S 	S 	0.71040 0.21108 0.97196 -0.01100
C 	C 	0.76404 0.27506 0.99708 -0.00400
C 	C 	0.83526 0.30215 0.00297 -0.05900
S 	S 	0.94785 0.19811 0.01670 0.02600
C 	C 	0.88943 0.11634 0.01223 -0.07700
C 	C 	0.82284 0.10519 0.98861 -0.01600
H 	H 	0.71080 0.11484 0.95732 0.04600
H 	H 	0.95195 0.30850 0.01583 0.05000
H 	H 	0.88002 0.33574 0.02464 0.04800
H 	H 	0.77284 0.05390 0.98763 0.04300
C 	C 	0.80378 0.52860 0.04578 0.00300
C 	C 	0.79506 0.58081 0.02989 -0.05500
C 	C 	0.79295 0.59822 0.05967 0.01700
C 	C 	0.78964 0.55743 0.10267 0.00100
C 	C 	0.79618 0.50364 0.11794 -0.05800
C 	C 	0.80294 0.48952 0.08876 0.02800
S 	S 	0.78622 0.48516 0.01626 -0.00600
C 	C 	0.78222 0.41823 0.05715 -0.00500
C 	C 	0.79096 0.42717 0.09549 -0.05900
S 	S 	0.82312 0.60741 0.13324 0.03000
C 	C 	0.84218 0.68077 0.09494 -0.07300
C 	C 	0.82110 0.66686 0.05532 -0.02000
H 	H 	0.79570 0.61055 0.99643 0.04800
H 	H 	0.79731 0.47471 0.15160 0.04900
H 	H 	0.78053 0.38698 0.12539 0.04700
H 	H 	0.83901 0.70783 0.02660 0.04300
