data_crystal

_cell_length_a 29.31755
_cell_length_b 26.17130
_cell_length_c 31.82781
_cell_angle_alpha 89.93407
_cell_angle_beta  89.92827
_cell_angle_gamma 90.87562

_symmetry_space_group_name_	'P 1'
_symmetry_space_group_name_H-M	'P 1'

loop_
_symmetry_equiv_pos_as_xyz
  x,y,z

loop_
_atom_site_label
_atom_site_type_symbol
_atom_site_fract_x
_atom_site_fract_y
_atom_site_fract_z
_atom_site_charge
Zn	Zn	0.51049 0.49206 0.99262 1.22800
C 	C 	0.55418 0.58754 0.96963 0.30000
O 	O 	0.54716 0.47077 0.04068 -0.48100
O 	O 	0.52612 0.60740 0.99717 -0.44000
O 	O 	0.57915 0.54683 0.05808 -0.49100
C 	C 	0.43458 0.55170 0.01527 0.29300
O 	O 	0.45707 0.53307 0.98325 -0.43300
O 	O 	0.45460 0.55617 0.05205 -0.50400
C 	C 	0.58318 0.49766 0.05166 0.30100
O 	O 	0.45978 0.42390 0.00681 -0.35000
Zn	Zn	0.51873 0.57693 0.05658 1.16700
O 	O 	0.55538 0.53760 0.96460 -0.42500
C 	C 	0.47847 0.40146 0.97500 0.31900
O 	O 	0.50979 0.42806 0.95575 -0.39200
Zn	Zn	0.38004 0.10199 0.00806 1.21700
C 	C 	0.41954 0.08324 0.08961 0.34600
O 	O 	0.32588 0.07579 0.03859 -0.45200
O 	O 	0.38695 0.10956 0.10720 -0.45600
O 	O 	0.30538 0.15419 0.06268 -0.50600
C 	C 	0.42495 0.20058 0.01079 0.25700
O 	O 	0.40205 0.16809 0.98718 -0.43700
O 	O 	0.42304 0.19661 0.05185 -0.48000
C 	C 	0.29474 0.10653 0.05365 0.30700
O 	O 	0.34179 0.09439 0.94264 -0.32200
Zn	Zn	0.36625 0.17650 0.07927 1.17000
O 	O 	0.42817 0.08911 0.04947 -0.45300
C 	C 	0.36855 0.05597 0.93642 0.29900
O 	O 	0.39548 0.04568 0.96724 -0.38600
C 	C 	0.52573 0.90651 0.28932 0.14800
C 	C 	0.49018 0.92769 0.26596 -0.11900
H 	H 	0.46178 0.94508 0.28210 0.06900
C 	C 	0.49284 0.92954 0.22204 0.07300
C 	C 	0.52981 0.90699 0.20136 -0.10800
C 	C 	0.56550 0.88576 0.22465 0.07800
C 	C 	0.56332 0.88558 0.26863 -0.12000
H 	H 	0.59144 0.87078 0.28682 0.07200
N 	N 	0.52591 0.91110 0.33431 -0.18400
C 	C 	0.50888 0.87180 0.35848 0.19800
C 	C 	0.50800 0.87618 0.40259 -0.08300
C 	C 	0.52359 0.92168 0.42145 0.06300
C 	C 	0.54299 0.96049 0.39634 -0.09100
C 	C 	0.54347 0.95467 0.35239 0.20000
C 	C 	0.49349 0.83515 0.42796 0.01000
C 	C 	0.49297 0.83998 0.47163 -0.05900
C 	C 	0.50314 0.88757 0.49082 0.01600
C 	C 	0.52093 0.92784 0.46560 -0.03000
C 	C 	0.53791 0.97335 0.48431 0.01000
C 	C 	0.56311 0.00354 0.41544 0.01900
C 	C 	0.56227 0.00892 0.45902 -0.05300
C 	C 	0.49802 0.89503 0.53490 0.01500
C 	C 	0.51462 0.94083 0.55349 -0.02800
C 	C 	0.53215 0.98111 0.52817 0.00900
O 	O 	0.56060 0.99141 0.32846 -0.20800
O 	O 	0.49297 0.82993 0.34033 -0.20800
H 	H 	0.58081 0.03221 0.39672 0.04300
H 	H 	0.58256 0.03925 0.47292 0.04600
H 	H 	0.48414 0.79871 0.41405 0.04100
H 	H 	0.48710 0.80595 0.49019 0.04500
C 	C 	0.54128 0.02912 0.54700 -0.05100
C 	C 	0.54014 0.03452 0.59056 0.01700
C 	C 	0.52625 0.99345 0.61616 -0.08700
C 	C 	0.51179 0.94730 0.59761 0.06200
C 	C 	0.47464 0.85894 0.56052 -0.05800
C 	C 	0.47412 0.86446 0.60412 0.01000
C 	C 	0.49331 0.90819 0.62297 -0.08100
C 	C 	0.52484 0.99845 0.66017 0.19100
N 	N 	0.50867 0.95898 0.68465 -0.18200
C 	C 	0.49264 0.91448 0.66693 0.19700
C 	C 	0.50800 0.96472 0.72954 0.14700
C 	C 	0.54718 0.95430 0.75308 -0.11800
C 	C 	0.54802 0.96385 0.79643 0.07800
C 	C 	0.50975 0.98562 0.81583 -0.10300
C 	C 	0.46996 0.99438 0.79253 0.06800
C 	C 	0.46907 0.98350 0.74948 -0.11500
O 	O 	0.53927 0.04119 0.67797 -0.19500
O 	O 	0.47679 0.87735 0.69115 -0.20300
H 	H 	0.57701 0.93923 0.73754 0.07200
H 	H 	0.43861 0.99076 0.73128 0.07100
H 	H 	0.54692 0.06297 0.52813 0.04500
H 	H 	0.54865 0.07135 0.60422 0.04300
H 	H 	0.45473 0.82813 0.54693 0.04500
H 	H 	0.45718 0.83542 0.62305 0.04300
H 	H 	0.51087 0.99588 0.84879 0.05900
H 	H 	0.53189 0.90820 0.16734 0.05800
Zn	Zn	0.70281 0.83809 0.00447 1.21600
C 	C 	0.68458 0.79124 0.08463 0.34100
O 	O 	0.76664 0.86304 0.00436 -0.46300
O 	O 	0.70188 0.74859 0.07033 -0.45800
O 	O 	0.78823 0.80887 0.05644 -0.49100
C 	C 	0.68669 0.73731 0.97202 0.33900
O 	O 	0.66760 0.77693 0.98966 -0.45500
O 	O 	0.73004 0.72882 0.97866 -0.50400
C 	C 	0.79443 0.85152 0.03528 0.29300
O 	O 	0.69216 0.86489 0.93410 -0.33300
Zn	Zn	0.75861 0.74949 0.03132 1.16700
O 	O 	0.69329 0.83471 0.06534 -0.45000
C 	C 	0.66678 0.90014 0.95028 0.30300
O 	O 	0.66502 0.90028 0.99089 -0.38600
Zn	Zn	0.16778 0.65435 0.97462 1.22500
C 	C 	0.15476 0.67415 0.06295 0.34300
O 	O 	0.12465 0.71113 0.97246 -0.44000
O 	O 	0.16512 0.72242 0.05561 -0.46400
O 	O 	0.18255 0.76952 0.96968 -0.50100
C 	C 	0.26175 0.64773 0.99846 0.37100
O 	O 	0.23300 0.64314 0.96703 -0.47600
O 	O 	0.25618 0.68346 0.02677 -0.51900
C 	C 	0.13912 0.75804 0.96534 0.30800
O 	O 	0.15927 0.64240 0.90120 -0.32700
Zn	Zn	0.21830 0.74186 0.01566 1.16700
O 	O 	0.16432 0.63913 0.03492 -0.46000
C 	C 	0.13552 0.60210 0.91184 0.30500
O 	O 	0.13171 0.59377 0.95171 -0.38800
C 	C 	0.97994 0.60530 0.25434 0.15800
C 	C 	0.94875 0.57775 0.22944 -0.12100
H 	H 	0.92632 0.54942 0.24380 0.07400
C 	C 	0.94652 0.58698 0.18610 0.07700
C 	C 	0.97489 0.62437 0.16786 -0.09800
C 	C 	0.00725 0.65062 0.19232 0.06800
C 	C 	0.00958 0.64137 0.23569 -0.12900
H 	H 	0.03443 0.66173 0.25479 0.07100
N 	N 	0.98123 0.59680 0.29895 -0.18000
C 	C 	0.00823 0.55906 0.31484 0.19200
C 	C 	0.00754 0.54781 0.35813 -0.09100
C 	C 	0.98024 0.57685 0.38511 0.07000
C 	C 	0.95204 0.61459 0.36818 -0.08400
C 	C 	0.95366 0.62477 0.32474 0.20000
C 	C 	0.03187 0.50644 0.37433 0.01100
C 	C 	0.03009 0.49498 0.41713 -0.05900
C 	C 	0.00719 0.52748 0.44543 0.00800
C 	C 	0.98001 0.56702 0.42893 -0.02200
C 	C 	0.95101 0.59520 0.45558 0.01600
C 	C 	0.92107 0.63972 0.39436 0.01100
C 	C 	0.91911 0.62852 0.43718 -0.05800
C 	C 	0.00910 0.51979 0.48969 0.00800
C 	C 	0.98030 0.54823 0.51639 -0.02100
C 	C 	0.95300 0.58765 0.49983 0.01600
O 	O 	0.92832 0.66113 0.30872 -0.20600
O 	O 	0.03473 0.53302 0.28941 -0.20800
H 	H 	0.89711 0.66658 0.38136 0.04200
H 	H 	0.89121 0.64367 0.45524 0.04600
H 	H 	0.05082 0.48174 0.35358 0.04000
H 	H 	0.04438 0.45936 0.42754 0.04400
C 	C 	0.93023 0.62034 0.52806 -0.05700
C 	C 	0.92891 0.60939 0.57093 0.01200
C 	C 	0.95356 0.56837 0.58727 -0.08200
C 	C 	0.98050 0.53890 0.56029 0.07000
C 	C 	0.04087 0.48628 0.50807 -0.05800
C 	C 	0.03928 0.47557 0.55100 0.01100
C 	C 	0.00885 0.50134 0.57729 -0.09000
C 	C 	0.95371 0.55805 0.63071 0.20000
N 	N 	0.98134 0.52101 0.64676 -0.18000
C 	C 	0.00808 0.49213 0.62092 0.19200
C 	C 	0.98465 0.51481 0.69154 0.16100
C 	C 	0.01751 0.54292 0.71411 -0.12900
C 	C 	0.01999 0.53846 0.75790 0.07400
C 	C 	0.98858 0.50670 0.77923 -0.09700
C 	C 	0.95539 0.47878 0.75680 0.08100
C 	C 	0.95400 0.48220 0.71285 -0.12000
O 	O 	0.92762 0.58458 0.65616 -0.20100
O 	O 	0.03357 0.45598 0.63705 -0.20400
H 	H 	0.04090 0.56833 0.69754 0.07400
H 	H 	0.92859 0.46059 0.69533 0.07600
H 	H 	0.91569 0.65576 0.51749 0.04600
H 	H 	0.91011 0.63430 0.59163 0.04400
H 	H 	0.06846 0.47063 0.48991 0.04500
H 	H 	0.06320 0.44866 0.56398 0.04200
H 	H 	0.98954 0.50421 0.81323 0.06300
H 	H 	0.97315 0.63147 0.13432 0.05600
Zn	Zn	0.84480 0.38884 0.99924 1.22500
C 	C 	0.83976 0.41371 0.91079 0.34600
O 	O 	0.78360 0.39324 0.02356 -0.47500
O 	O 	0.82534 0.36706 0.90239 -0.45100
O 	O 	0.74654 0.38700 0.96107 -0.47700
C 	C 	0.86785 0.28862 0.97178 0.33800
O 	O 	0.88280 0.33602 0.97489 -0.45300
O 	O 	0.82420 0.27884 0.96626 -0.50300
C 	C 	0.74800 0.40277 0.00018 0.31300
O 	O 	0.87321 0.36464 0.06608 -0.33500
Zn	Zn	0.78209 0.32846 0.94312 1.17300
O 	O 	0.83666 0.43168 0.94913 -0.44900
C 	C 	0.88963 0.41092 0.06731 0.30900
O 	O 	0.88196 0.43855 0.03444 -0.40200
Zn	Zn	0.01663 0.03137 0.02613 1.21500
C 	C 	0.05040 0.93193 0.00477 0.30300
O 	O 	0.96541 0.01446 0.06380 -0.46700
O 	O 	0.07535 0.93659 0.03892 -0.46000
O 	O 	0.98922 0.93709 0.08605 -0.49500
C 	C 	0.10511 0.04622 0.06235 0.34200
O 	O 	0.08205 0.04476 0.02710 -0.46000
O 	O 	0.08711 0.02689 0.09676 -0.51500
C 	C 	0.95617 0.96709 0.07454 0.32800
O 	O 	0.00763 0.11818 0.04249 -0.33000
Zn	Zn	0.05043 0.96423 0.09471 1.16500
O 	O 	0.01950 0.96618 0.99543 -0.42700
C 	C 	0.98789 0.12182 0.00617 0.23500
O 	O 	0.98627 0.07987 0.98449 -0.35300
C 	C 	0.95687 0.16412 0.99726 0.01300
C 	C 	0.95658 0.18728 0.95757 -0.04900
C 	C 	0.92796 0.22850 0.94972 0.03300
C 	C 	0.89872 0.24637 0.98123 -0.12000
C 	C 	0.89840 0.22253 0.02127 0.12800
C 	C 	0.92791 0.18184 0.02898 -0.09700
H 	H 	0.92824 0.24634 0.91897 0.02800
H 	H 	0.92788 0.16355 0.05957 0.06800
H 	H 	0.97889 0.17378 0.93294 0.05700
N 	N 	0.86992 0.23836 0.05230 -0.20100
H 	H 	0.84673 0.26761 0.04743 0.08600
H 	H 	0.87044 0.22090 0.08184 0.09000
C 	C 	0.85608 0.44774 0.87688 -0.16700
C 	C 	0.87389 0.42918 0.84123 0.03400
C 	C 	0.89809 0.46396 0.81170 -0.03900
C 	C 	0.92239 0.44550 0.77948 -0.06500
H 	H 	0.89913 0.50478 0.81822 0.04500
H 	H 	0.85735 0.48867 0.88273 0.08500
H 	H 	0.91936 0.40540 0.77092 0.05000
H 	H 	0.87340 0.38823 0.83537 0.03300
C 	C 	0.90760 0.43345 0.10635 -0.15000
C 	C 	0.89875 0.48219 0.11613 0.02900
C 	C 	0.92211 0.50781 0.15163 -0.03900
C 	C 	0.91480 0.55738 0.15944 -0.06600
H 	H 	0.94796 0.48753 0.16928 0.04700
H 	H 	0.92808 0.41026 0.12721 0.08000
H 	H 	0.88939 0.57780 0.14141 0.04100
H 	H 	0.87576 0.50404 0.09648 0.03100
C 	C 	0.10619 0.79943 0.95924 -0.04900
C 	C 	0.06324 0.79661 0.97868 -0.03600
C 	C 	0.03930 0.84134 0.98672 0.03200
C 	C 	0.05875 0.88903 0.97642 -0.11800
C 	C 	0.09707 0.89093 0.94950 0.12700
C 	C 	0.12084 0.84585 0.94120 -0.07000
H 	H 	0.00846 0.83933 0.00550 0.01000
H 	H 	0.15224 0.84752 0.92317 0.05400
H 	H 	0.05031 0.76054 0.99088 0.05200
N 	N 	0.11237 0.93615 0.93340 -0.20400
H 	H 	0.09426 0.96976 0.93803 0.09800
H 	H 	0.14190 0.93779 0.91499 0.08600
C 	C 	0.05331 0.57011 0.78165 -0.06600
C 	C 	0.07693 0.55029 0.81373 -0.03600
C 	C 	0.10364 0.58377 0.84220 0.02600
C 	C 	0.11471 0.56736 0.88076 -0.14700
H 	H 	0.11179 0.62282 0.83273 0.03800
H 	H 	0.05801 0.61013 0.77324 0.05000
H 	H 	0.10499 0.52891 0.89060 0.08100
H 	H 	0.07414 0.50961 0.82055 0.04200
C 	C 	0.13655 0.65820 0.10408 -0.17500
C 	C 	0.10823 0.68801 0.12589 0.03200
C 	C 	0.08226 0.66645 0.16180 -0.04800
C 	C 	0.04103 0.68440 0.17158 -0.06500
H 	H 	0.09370 0.63118 0.17627 0.04500
H 	H 	0.14241 0.61929 0.11455 0.08200
H 	H 	0.02933 0.71948 0.15712 0.03700
H 	H 	0.10091 0.72635 0.11479 0.02100
C 	C 	0.83195 0.88694 0.04710 -0.04100
C 	C 	0.85243 0.91884 0.01685 -0.05700
C 	C 	0.89123 0.94796 0.02697 0.03000
C 	C 	0.91013 0.94549 0.06743 -0.13600
C 	C 	0.88746 0.91661 0.09902 0.13000
C 	C 	0.84884 0.88692 0.08839 -0.07400
H 	H 	0.90797 0.97055 0.00273 0.02400
H 	H 	0.83193 0.86394 0.11230 0.05800
H 	H 	0.83938 0.91965 0.98503 0.06600
N 	N 	0.90194 0.91811 0.13959 -0.20300
H 	H 	0.92770 0.94349 0.14918 0.07700
H 	H 	0.88606 0.89525 0.16242 0.08100
C 	C 	0.58998 0.95295 0.82081 -0.06600
C 	C 	0.58778 0.93567 0.86056 -0.03700
C 	C 	0.62964 0.92186 0.88352 0.02400
C 	C 	0.63077 0.92489 0.92559 -0.14900
H 	H 	0.65869 0.90721 0.86628 0.03800
H 	H 	0.62293 0.95633 0.80523 0.04900
H 	H 	0.60288 0.94286 0.94226 0.08100
H 	H 	0.55494 0.93058 0.87601 0.04100
C 	C 	0.65223 0.78983 0.12004 -0.16800
C 	C 	0.64824 0.83037 0.14548 0.03000
C 	C 	0.60844 0.83526 0.17369 -0.04100
C 	C 	0.60821 0.87156 0.20341 -0.06800
H 	H 	0.57802 0.81188 0.16824 0.03600
H 	H 	0.62998 0.75659 0.12414 0.07200
H 	H 	0.63943 0.89261 0.21083 0.04900
H 	H 	0.67298 0.86172 0.14346 0.03400
C 	C 	0.24699 0.08853 0.05836 -0.05200
C 	C 	0.22949 0.04986 0.03226 -0.03300
C 	C 	0.18325 0.03635 0.03394 0.01800
C 	C 	0.15370 0.06140 0.06161 -0.13700
C 	C 	0.17113 0.10038 0.08828 0.12600
C 	C 	0.21795 0.11279 0.08702 -0.06900
H 	H 	0.17025 0.00637 0.01354 0.03000
H 	H 	0.23150 0.14228 0.10761 0.04500
H 	H 	0.25150 0.03093 0.00998 0.04400
N 	N 	0.14310 0.12712 0.11400 -0.20500
H 	H 	0.10773 0.12212 0.11305 0.09400
H 	H 	0.15653 0.15479 0.13436 0.08000
C 	C 	0.42863 0.01310 0.81366 -0.04700
C 	C 	0.42945 0.05807 0.83394 -0.03900
C 	C 	0.39349 0.07181 0.86448 0.02300
C 	C 	0.37942 0.03816 0.89390 -0.13400
H 	H 	0.38655 0.11214 0.86882 0.03900
H 	H 	0.39800 0.98918 0.81398 0.04200
H 	H 	0.38647 0.99783 0.88987 0.06900
H 	H 	0.45821 0.08426 0.82959 0.04700
C 	C 	0.45233 0.05579 0.11583 -0.17700
C 	C 	0.43843 0.02591 0.14776 0.04800
C 	C 	0.47212 0.99621 0.17179 -0.06500
C 	C 	0.45876 0.95865 0.19802 -0.05800
H 	H 	0.50832 0.00465 0.16767 0.05400
H 	H 	0.48818 0.05706 0.10702 0.08600
H 	H 	0.42267 0.95142 0.20370 0.04000
H 	H 	0.40231 0.02244 0.15534 0.02500
C 	C 	0.44631 0.24617 0.99167 0.00100
C 	C 	0.42240 0.27448 0.96169 -0.05700
C 	C 	0.43689 0.32406 0.95141 0.03600
C 	C 	0.47549 0.34564 0.97085 -0.13700
C 	C 	0.50346 0.31432 0.99601 0.17100
C 	C 	0.48797 0.26508 0.00716 -0.12500
H 	H 	0.41597 0.34719 0.93105 0.02800
H 	H 	0.50769 0.24213 0.02871 0.06600
H 	H 	0.39080 0.25956 0.94862 0.05200
N 	N 	0.54461 0.33166 0.01006 -0.22600
H 	H 	0.55849 0.36633 0.99953 0.11000
H 	H 	0.56415 0.30933 0.03024 0.08200
C 	C 	0.38781 0.57006 0.00947 -0.06000
C 	C 	0.37468 0.59112 0.97086 -0.02500
C 	C 	0.33197 0.61334 0.96656 0.04500
C 	C 	0.30181 0.61473 0.00074 -0.17500
C 	C 	0.31324 0.58949 0.03863 0.13900
C 	C 	0.35674 0.56840 0.04300 -0.07600
H 	H 	0.32316 0.63167 0.93718 0.02500
H 	H 	0.36617 0.55030 0.07233 0.05200
H 	H 	0.39826 0.59207 0.94462 0.05100
N 	N 	0.28231 0.58425 0.07030 -0.20700
H 	H 	0.24828 0.59436 0.06623 0.09800
H 	H 	0.29161 0.56750 0.09879 0.08100
C 	C 	0.62874 0.47496 0.04769 -0.05600
C 	C 	0.63318 0.42174 0.04988 -0.03500
C 	C 	0.67257 0.39860 0.03496 0.01700
C 	C 	0.70853 0.42839 0.01862 -0.13000
C 	C 	0.70614 0.48243 0.01997 0.12500
C 	C 	0.66626 0.50530 0.03512 -0.06900
H 	H 	0.67477 0.35731 0.03529 0.01200
H 	H 	0.66389 0.54658 0.03554 0.04900
H 	H 	0.60537 0.39812 0.06173 0.04100
N 	N 	0.74152 0.51241 0.00637 -0.21200
H 	H 	0.77184 0.49668 0.99552 0.10600
H 	H 	0.73907 0.55221 0.00688 0.07200
C 	C 	0.58996 0.62039 0.95108 -0.04300
C 	C 	0.63582 0.60721 0.95582 -0.03700
C 	C 	0.66955 0.64549 0.95737 0.02300
C 	C 	0.65762 0.69702 0.95263 -0.13600
C 	C 	0.61346 0.70848 0.93778 0.13700
C 	C 	0.57931 0.67026 0.93865 -0.07300
H 	H 	0.70409 0.63546 0.96568 0.02300
H 	H 	0.54426 0.67982 0.93166 0.05700
H 	H 	0.64484 0.56799 0.96209 0.05300
N 	N 	0.60407 0.75546 0.92208 -0.20300
H 	H 	0.63014 0.78217 0.91622 0.10300
H 	H 	0.57086 0.76451 0.91313 0.08900
