data_crystal

_cell_length_a 18.65465
_cell_length_b 18.91163
_cell_length_c 34.88866
_cell_angle_alpha 95.43671
_cell_angle_beta  95.43682
_cell_angle_gamma 126.41513

_symmetry_space_group_name_	'P 1'
_symmetry_space_group_name_H-M	'P 1'

loop_
_symmetry_equiv_pos_as_xyz
  x,y,z

loop_
_atom_site_label
_atom_site_type_symbol
_atom_site_fract_x
_atom_site_fract_y
_atom_site_fract_z
_atom_site_charge
C 	C 	0.89556 0.98867 0.96189 0.03200
C 	C 	0.84529 0.89658 0.96256 -0.08100
C 	C 	0.88889 0.85615 0.96301 0.03700
C 	C 	0.98182 0.90759 0.96261 -0.07200
C 	C 	0.03144 0.99873 0.96153 0.02800
C 	C 	0.98803 0.03878 0.96028 -0.06900
H 	H 	0.77372 0.85741 0.96373 0.05100
H 	H 	0.01569 0.87676 0.96343 0.04900
H 	H 	0.02696 0.10972 0.95985 0.05000
C 	C 	0.95510 0.04693 0.50552 0.04900
C 	C 	0.90351 0.95536 0.50645 -0.09200
C 	C 	0.94422 0.91259 0.50577 0.05000
C 	C 	0.03716 0.96195 0.50594 -0.09500
C 	C 	0.08965 0.05394 0.50627 0.04800
C 	C 	0.04862 0.09660 0.50589 -0.09600
H 	H 	0.83122 0.91680 0.50594 0.05600
H 	H 	0.06852 0.92863 0.50540 0.05600
H 	H 	0.08870 0.16742 0.50511 0.05400
Cu	Cu	0.74335 0.33191 0.95665 0.92600
Cu	Cu	0.74568 0.27848 0.04334 0.86900
Cu	Cu	0.59800 0.28017 0.00609 0.89500
Cu	Cu	0.56817 0.31292 0.92545 0.89400
C 	C 	0.68049 0.29779 0.87309 0.28100
O 	O 	0.79126 0.45995 0.95300 -0.36500
C 	C 	0.66075 0.32327 0.09260 0.27800
O 	O 	0.60214 0.25283 0.95238 -0.64000
O 	O 	0.73242 0.35021 0.01198 -0.64300
O 	O 	0.80906 0.27846 0.96314 -0.37400
O 	O 	0.71720 0.18746 0.00239 -0.44700
O 	O 	0.63007 0.32383 0.88004 -0.39000
O 	O 	0.46726 0.20494 0.99683 -0.38400
C 	C 	0.41568 0.20235 0.96718 0.30000
C 	C 	0.74641 0.49051 0.96266 0.29200
O 	O 	0.66305 0.43491 0.96816 -0.39300
O 	O 	0.45079 0.26075 0.94351 -0.39500
O 	O 	0.73053 0.29545 0.90171 -0.36700
C 	C 	0.77305 0.20542 0.97816 0.30000
O 	O 	0.59294 0.28881 0.06267 -0.38500
O 	O 	0.73777 0.33902 0.08754 -0.42000
H 	H 	0.56656 0.18811 0.94163 0.16200
H 	H 	0.76614 0.41340 0.02498 0.17200
Cu	Cu	0.62276 0.21281 0.50735 0.92700
Cu	Cu	0.68165 0.21372 0.42153 0.87000
Cu	Cu	0.67351 0.35631 0.45804 0.89700
Cu	Cu	0.63212 0.38062 0.53735 0.89400
C 	C 	0.66044 0.28040 0.59001 0.27700
O 	O 	0.49234 0.16186 0.50979 -0.36500
C 	C 	0.63502 0.29604 0.37168 0.27800
O 	O 	0.69890 0.35222 0.51198 -0.64000
O 	O 	0.60599 0.22398 0.45191 -0.64100
O 	O 	0.67747 0.14918 0.50161 -0.37800
O 	O 	0.77196 0.24112 0.46335 -0.44400
O 	O 	0.62099 0.31810 0.58206 -0.38500
O 	O 	0.74571 0.48513 0.46779 -0.38600
C 	C 	0.74424 0.53357 0.49713 0.29900
C 	C 	0.45831 0.20200 0.49801 0.29300
O 	O 	0.51279 0.28479 0.49290 -0.39500
O 	O 	0.68261 0.49614 0.51957 -0.39600
O 	O 	0.65755 0.22506 0.56254 -0.36400
C 	C 	0.75224 0.18513 0.48729 0.29900
O 	O 	0.66868 0.36254 0.40162 -0.38500
O 	O 	0.62117 0.22094 0.37670 -0.42000
H 	H 	0.76429 0.38942 0.52360 0.16000
H 	H 	0.54216 0.18906 0.43826 0.17000
C 	C 	0.59437 0.12152 0.70060 -0.04300
C 	C 	0.59647 0.12395 0.74097 -0.04400
C 	C 	0.65069 0.20622 0.76734 0.01500
C 	C 	0.70610 0.28640 0.75312 -0.00800
C 	C 	0.70361 0.28399 0.71249 -0.00900
C 	C 	0.64624 0.20135 0.68609 0.01500
C 	C 	0.75508 0.36454 0.69816 0.01500
C 	C 	0.81205 0.44655 0.72462 -0.04400
C 	C 	0.81492 0.44892 0.76498 -0.04300
C 	C 	0.76067 0.36932 0.77937 0.01500
C 	C 	0.75700 0.37190 0.81941 -0.02400
C 	C 	0.69797 0.29263 0.83323 -0.05800
C 	C 	0.64712 0.20974 0.80749 -0.02800
C 	C 	0.63800 0.19996 0.64552 -0.02400
C 	C 	0.68488 0.28056 0.63133 -0.05900
C 	C 	0.74556 0.36237 0.65759 -0.02900
H 	H 	0.55088 0.05762 0.68059 0.03800
H 	H 	0.55457 0.06191 0.75162 0.03600
H 	H 	0.85280 0.50871 0.71393 0.03600
H 	H 	0.85788 0.51287 0.78497 0.03700
H 	H 	0.79703 0.43567 0.83957 0.04000
H 	H 	0.60224 0.14861 0.81841 0.03200
H 	H 	0.59155 0.13682 0.62512 0.04600
H 	H 	0.78240 0.42436 0.64647 0.02900
C 	C 	0.77351 0.47336 0.27024 -0.04500
C 	C 	0.77775 0.47700 0.23055 -0.04400
C 	C 	0.70703 0.40537 0.20138 0.01300
C 	C 	0.62975 0.33117 0.21219 -0.01000
C 	C 	0.62594 0.32704 0.25215 -0.01000
C 	C 	0.69876 0.39779 0.28126 0.01400
C 	C 	0.55124 0.25035 0.26294 0.01300
C 	C 	0.47873 0.18045 0.23378 -0.04400
C 	C 	0.48204 0.18500 0.19410 -0.04500
C 	C 	0.55818 0.25922 0.18308 0.01400
C 	C 	0.56561 0.26041 0.14343 -0.02900
C 	C 	0.64514 0.33152 0.13283 -0.06400
C 	C 	0.71439 0.40518 0.16169 -0.02700
C 	C 	0.69795 0.39018 0.32088 -0.02900
C 	C 	0.62636 0.31137 0.33147 -0.06300
C 	C 	0.55183 0.24284 0.30262 -0.02800
H 	H 	0.82933 0.52852 0.29238 0.03600
H 	H 	0.83683 0.53487 0.22255 0.03500
H 	H 	0.42044 0.12181 0.24179 0.03500
H 	H 	0.42623 0.12983 0.17195 0.03500
H 	H 	0.51189 0.20393 0.12106 0.04100
H 	H 	0.77504 0.46071 0.15335 0.03800
H 	H 	0.75511 0.44331 0.34325 0.04100
H 	H 	0.49594 0.18270 0.31095 0.03700
C 	C 	0.89225 0.78227 0.53735 -0.08700
C 	C 	0.88903 0.81522 0.50344 -0.02100
C 	C 	0.84029 0.75554 0.46702 0.06700
C 	C 	0.79478 0.66368 0.46547 -0.02500
C 	C 	0.79870 0.63079 0.49935 -0.10800
C 	C 	0.85001 0.69087 0.53548 0.11900
N 	N 	0.86177 0.66180 0.56800 -0.20200
H 	H 	0.93094 0.82849 0.56503 0.05100
H 	H 	0.75540 0.61748 0.43784 0.04700
N 	N 	0.83731 0.78593 0.43350 -0.19400
H 	H 	0.89664 0.70606 0.59489 0.07900
H 	H 	0.84052 0.59646 0.56661 0.07300
H 	H 	0.87129 0.85392 0.43340 0.08400
H 	H 	0.80085 0.74114 0.40683 0.08100
C 	C 	0.90137 0.12940 0.53371 -0.09100
C 	C 	0.90939 0.08861 0.50042 -0.01900
C 	C 	0.86693 0.08099 0.46278 0.06100
C 	C 	0.81478 0.11182 0.45935 -0.02300
C 	C 	0.80576 0.15169 0.49262 -0.12000
C 	C 	0.85091 0.16228 0.53019 0.12800
N 	N 	0.84768 0.20528 0.56276 -0.20400
H 	H 	0.93430 0.13536 0.56247 0.05300
H 	H 	0.78114 0.10493 0.43058 0.01700
N 	N 	0.87605 0.04431 0.42989 -0.19300
H 	H 	0.87925 0.21059 0.59043 0.08600
H 	H 	0.81637 0.23608 0.56094 0.09700
H 	H 	0.91737 0.02408 0.43118 0.08300
H 	H 	0.84283 0.03727 0.40231 0.07500
C 	C 	0.21684 0.12233 0.47007 -0.08700
C 	C 	0.18734 0.10461 0.50587 -0.02200
C 	C 	0.24781 0.12037 0.53921 0.06700
C 	C 	0.33441 0.14715 0.53540 -0.02900
C 	C 	0.36311 0.16243 0.49935 -0.11000
C 	C 	0.30386 0.14998 0.46629 0.11900
N 	N 	0.32888 0.16152 0.43065 -0.20200
H 	H 	0.17028 0.11016 0.44456 0.04900
H 	H 	0.38077 0.15900 0.56092 0.04500
N 	N 	0.22338 0.11084 0.57499 -0.19400
H 	H 	0.28554 0.15429 0.40664 0.08000
H 	H 	0.39007 0.17502 0.42608 0.08100
H 	H 	0.16223 0.09772 0.57937 0.08400
H 	H 	0.26720 0.11965 0.59925 0.08100
C 	C 	0.81116 0.64218 0.99814 -0.02100
C 	C 	0.78488 0.58485 0.96241 -0.11100
C 	C 	0.78285 0.61437 0.92672 0.12100
C 	C 	0.80740 0.70069 0.92764 -0.09000
C 	C 	0.83773 0.75944 0.96335 -0.01600
C 	C 	0.83729 0.72915 0.99900 0.06500
N 	N 	0.86164 0.78306 0.03406 -0.19500
H 	H 	0.81014 0.61869 0.02542 0.03000
H 	H 	0.80784 0.72402 0.90037 0.05200
N 	N 	0.75858 0.56084 0.89154 -0.20700
H 	H 	0.86354 0.76121 0.06029 0.07800
H 	H 	0.87659 0.84605 0.03563 0.08100
H 	H 	0.74547 0.49873 0.88971 0.09600
H 	H 	0.75513 0.58237 0.86539 0.08300
C 	C 	0.84766 0.14392 0.00631 -0.02700
C 	C 	0.80573 0.15113 0.97297 -0.11400
C 	C 	0.78609 0.09834 0.93618 0.12700
C 	C 	0.81150 0.04147 0.93348 -0.09300
C 	C 	0.85427 0.03512 0.96685 -0.00900
C 	C 	0.87043 0.08516 0.00379 0.05600
N 	N 	0.90739 0.07679 0.03696 -0.19200
H 	H 	0.86098 0.18294 0.03458 0.01700
H 	H 	0.79940 0.00329 0.90518 0.05400
N 	N 	0.74231 0.10109 0.90354 -0.20500
H 	H 	0.92177 0.11603 0.06395 0.07500
H 	H 	0.91969 0.02961 0.03654 0.08000
H 	H 	0.71989 0.14019 0.90464 0.09800
H 	H 	0.72908 0.06262 0.87650 0.08500
C 	C 	0.16221 0.04788 0.92917 -0.09100
C 	C 	0.12998 0.05297 0.96321 -0.01300
C 	C 	0.19175 0.10477 0.99904 0.06500
C 	C 	0.28497 0.15211 0.99981 -0.01900
C 	C 	0.31724 0.14678 0.96578 -0.11000
C 	C 	0.25514 0.09206 0.93033 0.12100
N 	N 	0.28387 0.07910 0.89782 -0.20200
H 	H 	0.11443 0.00687 0.90196 0.05200
H 	H 	0.33268 0.19385 0.02696 0.04300
N 	N 	0.16209 0.10888 0.03277 -0.19500
H 	H 	0.23795 0.04152 0.87139 0.07900
H 	H 	0.35076 0.10226 0.89887 0.07400
H 	H 	0.09314 0.07281 0.03356 0.08100
H 	H 	0.20843 0.14799 0.05897 0.08000
