data_crystal

_cell_length_a 18.60523
_cell_length_b 18.68602
_cell_length_c 30.71390
_cell_angle_alpha 95.41524
_cell_angle_beta  95.41537
_cell_angle_gamma 126.40701

_symmetry_space_group_name_	'P 1'
_symmetry_space_group_name_H-M	'P 1'

loop_
_symmetry_equiv_pos_as_xyz
  x,y,z

loop_
_atom_site_label
_atom_site_type_symbol
_atom_site_fract_x
_atom_site_fract_y
_atom_site_fract_z
_atom_site_charge
C 	C 	0.86480 0.95564 0.95707 0.12000
N 	N 	0.95620 0.00782 0.96010 -0.14600
C 	C 	0.99891 0.96928 0.95754 0.12800
N 	N 	0.94959 0.87777 0.95077 -0.14200
C 	C 	0.85831 0.82510 0.94910 0.12200
N 	N 	0.81576 0.86413 0.95257 -0.14200
C 	C 	0.00204 0.08662 0.50536 0.12100
N 	N 	0.09201 0.13226 0.50441 -0.14200
C 	C 	0.12980 0.08854 0.50641 0.11600
N 	N 	0.07798 0.99996 0.50967 -0.13500
C 	C 	0.98866 0.95484 0.51120 0.11900
N 	N 	0.95055 0.99796 0.50870 -0.14000
Cu	Cu	0.71285 0.29814 0.94705 0.92800
Cu	Cu	0.71545 0.25620 0.04807 0.86800
Cu	Cu	0.56994 0.25876 0.00240 0.89200
Cu	Cu	0.53119 0.26388 0.90657 0.89400
C 	C 	0.65010 0.25085 0.85213 0.28700
O 	O 	0.74959 0.42145 0.93700 -0.36200
C 	C 	0.62957 0.30693 0.10075 0.28000
O 	O 	0.57169 0.21495 0.94336 -0.63700
O 	O 	0.70384 0.32541 0.00903 -0.64600
O 	O 	0.78484 0.25197 0.95907 -0.37300
O 	O 	0.69293 0.16292 0.00461 -0.44700
O 	O 	0.60166 0.28019 0.85816 -0.38600
O 	O 	0.43891 0.18603 0.99409 -0.38400
C 	C 	0.38374 0.17838 0.96030 0.30100
C 	C 	0.70332 0.45093 0.94832 0.28600
O 	O 	0.61798 0.39285 0.95246 -0.39700
O 	O 	0.40677 0.19322 0.92080 -0.39500
O 	O 	0.70000 0.25190 0.88612 -0.36700
C 	C 	0.75198 0.18172 0.97882 0.30400
O 	O 	0.57008 0.28918 0.06585 -0.38200
O 	O 	0.70643 0.32089 0.09620 -0.42200
H 	H 	0.53752 0.14852 0.93574 0.16800
H 	H 	0.73966 0.39055 0.02201 0.16900
Cu	Cu	0.66262 0.24275 0.50873 0.92600
Cu	Cu	0.71483 0.24886 0.40957 0.86900
Cu	Cu	0.71525 0.39480 0.45723 0.89700
Cu	Cu	0.68890 0.41959 0.55262 0.89500
C 	C 	0.67732 0.28489 0.60233 0.28200
O 	O 	0.53278 0.19104 0.51345 -0.37200
C 	C 	0.67088 0.34079 0.35834 0.28200
O 	O 	0.74404 0.38524 0.51685 -0.63700
O 	O 	0.64380 0.26025 0.44740 -0.64200
O 	O 	0.71601 0.17784 0.49832 -0.37700
O 	O 	0.80777 0.27255 0.45429 -0.44300
O 	O 	0.70275 0.36803 0.60393 -0.38700
O 	O 	0.79195 0.52523 0.47085 -0.38700
C 	C 	0.78813 0.57292 0.50380 0.30200
C 	C 	0.50395 0.24016 0.51145 0.29500
O 	O 	0.55969 0.32492 0.50750 -0.39300
O 	O 	0.73133 0.53403 0.53148 -0.39700
O 	O 	0.69457 0.24736 0.57058 -0.36500
C 	C 	0.78974 0.21514 0.48087 0.29700
O 	O 	0.70608 0.40580 0.39375 -0.38600
O 	O 	0.65329 0.26229 0.36176 -0.42100
H 	H 	0.80993 0.41834 0.52771 0.16400
H 	H 	0.57939 0.22796 0.43339 0.17200
C 	C 	0.65433 0.24575 0.64261 -0.06900
C 	C 	0.56382 0.19415 0.64866 0.00000
C 	C 	0.54319 0.17454 0.69057 -0.05600
C 	C 	0.61317 0.20697 0.72691 0.01300
C 	C 	0.70376 0.25337 0.72024 0.01300
C 	C 	0.72383 0.27198 0.67789 -0.01600
C 	C 	0.77368 0.28564 0.75659 -0.05700
C 	C 	0.75495 0.27837 0.79968 0.00600
C 	C 	0.66609 0.23859 0.80685 -0.07100
C 	C 	0.59468 0.19893 0.77021 -0.02000
H 	H 	0.50979 0.17261 0.62132 0.03100
H 	H 	0.47324 0.13722 0.69510 0.04100
H 	H 	0.79372 0.31104 0.67299 0.03900
H 	H 	0.84310 0.31953 0.75173 0.04200
H 	H 	0.81034 0.30793 0.82768 0.03900
H 	H 	0.52567 0.16618 0.77562 0.03300
C 	C 	0.66412 0.36118 0.31365 -0.07700
C 	C 	0.73819 0.44112 0.30297 0.00100
C 	C 	0.74176 0.45158 0.25856 -0.05900
C 	C 	0.67093 0.38241 0.22441 0.01100
C 	C 	0.59260 0.30546 0.23529 0.01100
C 	C 	0.58954 0.29524 0.27997 -0.02100
C 	C 	0.52085 0.23729 0.20114 -0.06000
C 	C 	0.52993 0.24188 0.15659 0.00100
C 	C 	0.61100 0.31418 0.14580 -0.07600
C 	C 	0.67970 0.38645 0.17961 -0.02000
H 	H 	0.79533 0.49304 0.32885 0.03300
H 	H 	0.80112 0.51198 0.25067 0.03900
H 	H 	0.53130 0.23441 0.28831 0.03600
H 	H 	0.45943 0.17911 0.20906 0.03900
H 	H 	0.47596 0.18664 0.13059 0.02800
H 	H 	0.74148 0.44343 0.17119 0.03700
C 	C 	0.90568 0.73052 0.54256 -0.02900
C 	C 	0.83740 0.67025 0.50556 -0.10800
C 	C 	0.81341 0.70363 0.47213 0.12400
C 	C 	0.86214 0.79734 0.47530 -0.07700
C 	C 	0.93186 0.85766 0.51183 -0.03000
C 	C 	0.95175 0.82400 0.54659 0.07600
N 	N 	0.01310 0.88075 0.58433 -0.19200
H 	H 	0.92192 0.70444 0.56871 0.03400
H 	H 	0.84638 0.82347 0.44899 0.05400
N 	N 	0.74303 0.64634 0.43743 -0.20200
H 	H 	0.02983 0.85561 0.60909 0.08400
H 	H 	0.04172 0.94943 0.59034 0.09400
H 	H 	0.70102 0.57637 0.43564 0.09600
H 	H 	0.72777 0.67190 0.41232 0.08500
C 	C 	0.94967 0.17248 0.53539 -0.07700
C 	C 	0.95824 0.13011 0.49828 -0.03300
C 	C 	0.91424 0.11902 0.45525 0.07500
C 	C 	0.85881 0.14660 0.45046 -0.02900
C 	C 	0.84804 0.18663 0.48768 -0.11300
C 	C 	0.89607 0.20231 0.53049 0.12300
N 	N 	0.89252 0.24725 0.56673 -0.20300
H 	H 	0.98402 0.18140 0.56828 0.05200
H 	H 	0.82371 0.13669 0.41759 0.02100
N 	N 	0.92486 0.08192 0.41847 -0.19500
H 	H 	0.92580 0.25580 0.59836 0.08600
H 	H 	0.85972 0.27692 0.56378 0.09700
H 	H 	0.96890 0.06456 0.42061 0.08600
H 	H 	0.89035 0.07198 0.38692 0.07600
C 	C 	0.29124 0.19634 0.54292 -0.07500
C 	C 	0.22654 0.13643 0.50479 -0.03100
C 	C 	0.25341 0.11056 0.46867 0.07700
C 	C 	0.34357 0.14086 0.47258 -0.02800
C 	C 	0.40781 0.19917 0.51113 -0.10800
C 	C 	0.38146 0.22688 0.54683 0.11500
N 	N 	0.44174 0.28077 0.58531 -0.20200
H 	H 	0.27033 0.21573 0.57059 0.05200
H 	H 	0.36444 0.12135 0.44493 0.03500
N 	N 	0.19346 0.05820 0.42994 -0.19400
H 	H 	0.42210 0.30216 0.61117 0.08100
H 	H 	0.50769 0.29996 0.59045 0.07200
H 	H 	0.12824 0.04092 0.42466 0.08800
H 	H 	0.21291 0.03691 0.40393 0.08000
C 	C 	0.77453 0.68863 0.98365 -0.06500
C 	C 	0.80685 0.72635 0.94611 -0.03600
C 	C 	0.80274 0.67250 0.90883 0.08100
C 	C 	0.77194 0.58387 0.91096 -0.03400
C 	C 	0.74210 0.54690 0.94898 -0.10100
C 	C 	0.74372 0.59992 0.98587 0.11600
N 	N 	0.71933 0.56765 0.02403 -0.20400
H 	H 	0.77782 0.73001 0.01220 0.04500
H 	H 	0.76899 0.54272 0.88241 0.04800
N 	N 	0.82642 0.70477 0.87062 -0.19500
H 	H 	0.71819 0.60620 0.05053 0.08100
H 	H 	0.70460 0.50584 0.02848 0.07900
H 	H 	0.84189 0.76710 0.86660 0.09000
H 	H 	0.82616 0.66586 0.84373 0.08400
C 	C 	0.77113 0.08193 0.93041 -0.02600
C 	C 	0.78311 0.12533 0.97325 -0.10300
C 	C 	0.81463 0.10596 0.01082 0.10900
C 	C 	0.82904 0.04023 0.00481 -0.09000
C 	C 	0.82059 0.99949 0.96200 -0.01300
C 	C 	0.78935 0.01888 0.92439 0.06600
N 	N 	0.77638 0.97707 0.88252 -0.19100
H 	H 	0.74583 0.09580 0.90168 0.04600
H 	H 	0.85371 0.02586 0.03355 0.05100
N 	N 	0.83533 0.15318 0.05243 -0.19900
H 	H 	0.75558 0.99339 0.85484 0.08600
H 	H 	0.78454 0.92647 0.87708 0.09000
H 	H 	0.83806 0.21085 0.05746 0.04700
H 	H 	0.85424 0.13554 0.08017 0.07300
C 	C 	0.14065 0.09824 0.93785 -0.07500
C 	C 	0.09868 0.02706 0.96162 -0.03500
C 	C 	0.15275 0.01291 0.98942 0.07800
C 	C 	0.24569 0.06225 0.98820 -0.02100
C 	C 	0.28746 0.13253 0.96380 -0.10600
C 	C 	0.23531 0.15460 0.94093 0.12000
N 	N 	0.27594 0.23177 0.92384 -0.20100
H 	H 	0.09983 0.11142 0.91787 0.05500
H 	H 	0.28583 0.04688 0.00692 0.03800
N 	N 	0.11707 0.95564 0.01879 -0.19400
H 	H 	0.23667 0.24464 0.90466 0.08400
H 	H 	0.34605 0.28264 0.93221 0.08700
H 	H 	0.05375 0.93113 0.02663 0.09200
H 	H 	0.15584 0.94093 0.03686 0.08300
