data_crystal

_cell_length_a 20.88505
_cell_length_b 21.34036
_cell_length_c 38.66864
_cell_angle_alpha 60.33229
_cell_angle_beta  119.40558
_cell_angle_gamma 133.18401

_symmetry_space_group_name_	'P 1'
_symmetry_space_group_name_H-M	'P 1'

loop_
_symmetry_equiv_pos_as_xyz
  x,y,z

loop_
_atom_site_label
_atom_site_type_symbol
_atom_site_fract_x
_atom_site_fract_y
_atom_site_fract_z
_atom_site_charge
Co	Co	0.12086 0.06658 0.04210 1.19100
Co	Co	0.17256 0.94397 0.05355 1.18200
O 	O 	0.06323 0.11627 0.17902 -0.38400
C 	C 	0.05695 0.04674 0.20737 0.34900
O 	O 	0.10164 0.15870 0.02859 -0.45400
C 	C 	0.11744 0.26829 0.10287 0.32400
C 	C 	0.24950 0.91642 0.14111 0.31400
O 	O 	0.05552 0.99180 0.19918 -0.37800
O 	O 	0.27081 0.97276 0.10637 -0.39100
O 	O 	0.18906 0.90150 0.15321 -0.37200
O 	O 	0.14149 0.23207 0.09636 -0.38400
O 	O 	0.11605 0.97274 0.07031 -0.76700
O 	O 	0.25053 0.07542 0.02247 -0.36700
Co	Co	0.01692 0.99065 0.54186 1.17300
Co	Co	0.04596 0.86393 0.53572 1.16700
O 	O 	0.00942 0.08319 0.53927 -0.44700
C 	C 	0.02909 0.13645 0.64199 0.30600
C 	C 	0.07059 0.76690 0.62324 0.32100
O 	O 	0.03996 0.76001 0.58579 -0.41900
O 	O 	0.04839 0.79935 0.63367 -0.38700
O 	O 	0.04374 0.12567 0.61608 -0.37000
O 	O 	0.17178 0.95530 0.56449 -0.41000
C 	C 	0.00989 0.94391 0.82408 -0.03500
C 	C 	0.06537 0.00246 0.79599 0.11600
C 	C 	0.04851 0.97241 0.76521 0.06000
C 	C 	0.12013 0.98162 0.93054 0.13100
C 	C 	0.10102 0.96435 0.89477 0.06100
Br	Br	0.16467 0.12289 0.80011 -0.16700
Br	Br	0.16177 0.92644 0.89383 -0.15900
Br	Br	0.21478 0.97631 0.97623 -0.25300
C 	C 	0.03112 0.06793 0.39439 0.13000
C 	C 	0.04000 0.06302 0.36211 0.06300
C 	C 	0.07004 0.98526 0.28411 0.11100
C 	C 	0.04971 0.96643 0.31953 0.05400
Br	Br	0.10590 0.17940 0.40775 -0.18700
Br	Br	0.10817 0.92653 0.37325 -0.18200
Br	Br	0.13194 0.16731 0.33274 -0.15700
Br	Br	0.15853 0.97310 0.28999 -0.18100
C 	C 	0.21529 0.78595 0.64651 0.18800
C 	C 	0.12954 0.73730 0.65290 -0.11300
O 	O 	0.26444 0.87654 0.63240 -0.28800
H 	H 	0.25787 0.88875 0.60298 0.14800
C 	C 	0.28488 0.86141 0.16320 -0.11700
C 	C 	0.22484 0.76798 0.17302 -0.03100
H 	H 	0.15948 0.73557 0.17699 0.06300
O 	O 	0.19526 0.62588 0.19156 -0.26300
H 	H 	0.14223 0.60185 0.16866 0.14700
C 	C 	0.31564 0.58788 0.14670 0.06800
C 	C 	0.28737 0.62871 0.15002 -0.07300
H 	H 	0.21660 0.60271 0.13943 0.06300
C 	C 	0.22790 0.60039 0.66645 0.06400
C 	C 	0.16202 0.51725 0.65627 -0.07900
C 	C 	0.18911 0.47715 0.65175 0.06600
H 	H 	0.09072 0.48513 0.65101 0.07700
C 	C 	0.29939 0.13889 0.04037 0.33100
O 	O 	0.26058 0.14554 0.05557 -0.39000
C 	C 	0.19990 0.03786 0.55383 0.34000
O 	O 	0.15741 0.05822 0.55847 -0.37300
Br	Br	0.13722 0.04132 0.73458 -0.16200
C 	C 	0.07213 0.22607 0.64377 -0.10600
C 	C 	0.09568 0.23921 0.68164 -0.04100
C 	C 	0.11994 0.31694 0.68369 0.13800
C 	C 	0.12527 0.38498 0.64796 -0.02900
C 	C 	0.09653 0.36999 0.60977 -0.09900
C 	C 	0.07078 0.29134 0.60755 0.18600
H 	H 	0.09336 0.18807 0.70956 0.09100
O 	O 	0.14205 0.32789 0.72103 -0.26100
H 	H 	0.09962 0.42172 0.58196 0.07200
O 	O 	0.04081 0.27705 0.56997 -0.29300
H 	H 	0.09577 0.30245 0.56317 0.16100
C 	C 	0.20034 0.64898 0.66734 -0.02400
C 	C 	0.24794 0.74163 0.65154 -0.10300
C 	C 	0.08884 0.64729 0.67432 -0.03900
C 	C 	0.12513 0.60346 0.68247 0.12800
H 	H 	0.02562 0.60967 0.68200 0.06100
O 	O 	0.08680 0.51677 0.70485 -0.27500
H 	H 	0.12005 0.51967 0.73377 0.16100
C 	C 	0.25077 0.50135 0.13602 -0.02200
C 	C 	0.25363 0.42967 0.16547 -0.09900
C 	C 	0.22449 0.35961 0.15368 0.19400
C 	C 	0.18396 0.35587 0.11237 -0.11300
C 	C 	0.18078 0.42747 0.08281 -0.03200
C 	C 	0.21271 0.49916 0.09449 0.12800
H 	H 	0.28529 0.43172 0.19740 0.08400
O 	O 	0.23762 0.29583 0.18258 -0.27600
H 	H 	0.15011 0.42592 0.05084 0.05500
O 	O 	0.21167 0.56950 0.06495 -0.27300
H 	H 	0.15383 0.55604 0.06225 0.14600
H 	H 	0.19295 0.25934 0.19908 0.17800
C 	C 	0.32767 0.75809 0.16539 -0.01600
C 	C 	0.24759 0.71602 0.17589 0.12400
C 	C 	0.28627 0.10793 0.54202 -0.11800
C 	C 	0.28615 0.13314 0.50087 -0.03800
H 	H 	0.22439 0.11850 0.47722 0.08400
O 	O 	0.05954 0.96564 0.48345 -0.42800
C 	C 	0.03545 0.97105 0.86020 0.01300
Co	Co	0.07697 0.90846 0.11328 1.18100
H 	H 	0.20754 0.35375 0.73209 0.16200
O 	O 	0.10155 0.81232 0.08503 -0.39800
C 	C 	0.06869 0.99982 0.93314 -0.12500
O 	O 	0.07737 0.04789 0.98285 -0.33100
C 	C 	0.27970 0.52206 0.65428 -0.09400
C 	C 	0.06660 0.98661 0.97443 0.31900
O 	O 	0.06570 0.91942 0.00348 -0.37400
Co	Co	0.04309 0.12314 0.07037 1.18000
H 	H 	0.29975 0.49235 0.64928 0.06600
H 	H 	0.30767 0.77915 0.64102 0.07000
C 	C 	0.03111 0.01999 0.24495 -0.12000
O 	O 	0.03256 0.22747 0.09993 -0.40800
O 	O 	0.03348 0.00032 0.08453 -0.57300
C 	C 	0.32008 0.64218 0.67105 -0.08500
O 	O 	0.01949 0.87361 0.15539 -0.45800
C 	C 	0.00582 0.01087 0.89756 0.13000
H 	H 	0.02135 0.62501 0.12585 0.04300
C 	C 	0.01582 0.76633 0.08309 0.29900
H 	H 	0.00262 0.50730 0.09705 0.13400
H 	H 	0.33998 0.65042 0.57321 0.15000
C 	C 	0.99623 0.97841 0.46230 0.36400
O 	O 	0.99294 0.88819 0.55793 -0.74700
C 	C 	0.35289 0.70603 0.16542 0.06500
O 	O 	0.98071 0.06778 0.66839 -0.36000
C 	C 	0.37122 0.90094 0.16072 0.19200
O 	O 	0.37086 0.26688 0.97056 -0.26300
C 	C 	0.96983 0.88840 0.75912 -0.08200
O 	O 	0.96725 0.99204 0.47979 -0.36500
C 	C 	0.38823 0.85143 0.15727 -0.10500
H 	H 	0.38895 0.32516 0.96848 0.15900
C 	C 	0.96857 0.99067 0.41767 -0.12600
O 	O 	0.94981 0.87568 0.69469 -0.37000
C 	C 	0.39676 0.20070 0.04314 -0.11500
Co	Co	0.94237 0.03152 0.58095 1.19900
C 	C 	0.42571 0.24977 0.00647 0.19200
C 	C 	0.91989 0.87807 0.71686 0.33200
H 	H 	0.35685 0.05070 0.62572 0.17800
O 	O 	0.84907 0.87965 0.70002 -0.39900
C 	C 	0.98710 0.97771 0.31564 0.01700
O 	O 	0.43522 0.99075 0.15612 -0.29200
H 	H 	0.47094 0.99833 0.18433 0.16100
O 	O 	0.37062 0.11088 0.61222 -0.27700
C 	C 	0.45514 0.18651 0.07978 -0.03300
H 	H 	0.43412 0.14980 0.10833 0.08100
C 	C 	0.76848 0.32379 0.02436 0.06700
C 	C 	0.68392 0.26852 0.03410 -0.08200
C 	C 	0.65765 0.30465 0.04224 0.07200
C 	C 	0.71871 0.39185 0.04550 -0.08200
C 	C 	0.80157 0.44727 0.03574 0.06700
C 	C 	0.82354 0.41545 0.02201 -0.07200
H 	H 	0.63911 0.19842 0.03540 0.06900
H 	H 	0.70041 0.41763 0.05451 0.07000
H 	H 	0.88189 0.46173 0.00917 0.07000
C 	C 	0.64213 0.23296 0.50927 0.06900
C 	C 	0.55094 0.19056 0.50669 -0.08500
C 	C 	0.52709 0.23419 0.51041 0.07400
C 	C 	0.59064 0.32328 0.51094 -0.08900
C 	C 	0.68111 0.36568 0.51431 0.07600
C 	C 	0.70769 0.32035 0.51439 -0.08400
H 	H 	0.49969 0.12296 0.50355 0.07300
H 	H 	0.57103 0.35775 0.51219 0.07500
H 	H 	0.77886 0.35173 0.51969 0.07900
C 	C 	0.44539 0.74124 0.17592 -0.08000
C 	C 	0.47188 0.70735 0.16654 0.07000
C 	C 	0.40746 0.62859 0.15437 -0.08700
H 	H 	0.49682 0.79751 0.18943 0.07100
H 	H 	0.42889 0.60053 0.14907 0.06900
C 	C 	0.34446 0.60550 0.66218 0.07000
H 	H 	0.37219 0.70421 0.68013 0.06600
Co	Co	0.99651 0.96352 0.14113 1.18800
Co	Co	0.95481 0.09623 0.12981 1.19400
O 	O 	0.99726 0.05569 0.11123 -0.73800
C 	C 	0.82306 0.89864 0.14823 0.32600
O 	O 	0.87403 0.96770 0.16273 -0.39200
O 	O 	0.85875 0.88174 0.13666 -0.37500
C 	C 	0.87795 0.12873 0.04133 0.31000
O 	O 	0.85504 0.07437 0.07635 -0.37900
O 	O 	0.93802 0.14040 0.03045 -0.35400
O 	O 	0.98737 0.79411 0.09258 -0.35700
Co	Co	0.93960 0.80896 0.59567 1.19200
Co	Co	0.87092 0.85180 0.63697 1.18900
C 	C 	0.86132 0.70253 0.53595 0.31500
Co	Co	0.84708 0.97618 0.64721 1.17000
O 	O 	0.88487 0.95006 0.61750 -0.76100
O 	O 	0.87805 0.75931 0.63927 -0.44200
O 	O 	0.91436 0.90984 0.57892 -0.57400
C 	C 	0.68760 0.79800 0.63420 0.31500
O 	O 	0.71882 0.88199 0.62173 -0.38400
O 	O 	0.73449 0.77180 0.63863 -0.35800
C 	C 	0.81274 0.07286 0.55964 0.33200
O 	O 	0.84577 0.07817 0.59769 -0.38300
O 	O 	0.84373 0.05610 0.54485 -0.36500
O 	O 	0.91346 0.77472 0.51133 -0.37200
O 	O 	0.84833 0.70694 0.56508 -0.35400
C 	C 	0.92277 0.82652 0.79030 0.10300
C 	C 	0.94041 0.85468 0.82203 0.09600
C 	C 	0.99087 0.99842 0.86087 0.06900
Br	Br	0.83520 0.70336 0.78946 -0.16500
Br	Br	0.93605 0.03723 0.89952 -0.14800
Br	Br	0.86992 0.77141 0.86266 -0.16300
Br	Br	0.90838 0.01726 0.81178 -0.14500
C 	C 	0.98234 0.98127 0.35174 0.02100
C 	C 	0.91155 0.90709 0.37163 0.06500
C 	C 	0.90095 0.91472 0.40234 0.12300
C 	C 	0.94015 0.00071 0.27657 0.08400
C 	C 	0.97074 0.03411 0.24219 0.13400
Br	Br	0.83186 0.79490 0.35800 -0.16400
Br	Br	0.94540 0.11529 0.19565 -0.26400
Br	Br	0.79277 0.82380 0.42224 -0.18600
Br	Br	0.83846 0.99431 0.27043 -0.17400
C 	C 	0.59573 0.73204 0.64049 -0.10800
C 	C 	0.52491 0.73295 0.60780 -0.03400
C 	C 	0.44562 0.69839 0.61520 0.13200
C 	C 	0.43460 0.65860 0.65552 -0.02900
C 	C 	0.50288 0.65242 0.68802 -0.09600
C 	C 	0.58346 0.68942 0.68069 0.18600
H 	H 	0.53361 0.76537 0.57672 0.06300
O 	O 	0.37923 0.70462 0.58300 -0.27600
H 	H 	0.49326 0.61837 0.71896 0.08100
O 	O 	0.65099 0.68568 0.71296 -0.26300
H 	H 	0.68614 0.73804 0.72342 0.16700
C 	C 	0.56448 0.76094 0.16264 -0.02400
C 	C 	0.62788 0.74757 0.19569 -0.09800
C 	C 	0.71005 0.78426 0.19012 0.19900
C 	C 	0.72893 0.83399 0.15110 -0.11600
C 	C 	0.66364 0.84370 0.11775 -0.03800
C 	C 	0.58254 0.80894 0.12347 0.13200
H 	H 	0.61304 0.70785 0.22561 0.08700
O 	O 	0.77272 0.77291 0.22302 -0.27400
H 	H 	0.67832 0.88338 0.08778 0.06100
O 	O 	0.52129 0.82298 0.09084 -0.27500
H 	H 	0.48201 0.77288 0.07808 0.15600
H 	H 	0.80930 0.82249 0.23574 0.17300
H 	H 	0.44869 0.88619 0.14801 0.07700
C 	C 	0.74894 0.09714 0.53259 -0.11600
C 	C 	0.78029 0.18149 0.50518 -0.02900
C 	C 	0.73928 0.22279 0.49375 0.13100
C 	C 	0.67042 0.18194 0.51206 -0.02100
C 	C 	0.63307 0.09372 0.53572 -0.10300
C 	C 	0.66884 0.05003 0.54389 0.20500
H 	H 	0.83970 0.21730 0.49475 0.07500
O 	O 	0.76828 0.30370 0.46578 -0.27200
H 	H 	0.57889 0.06004 0.54936 0.07800
O 	O 	0.63083 0.96376 0.56669 -0.30200
H 	H 	0.58580 0.92741 0.54636 0.15800
H 	H 	0.72910 0.28994 0.43874 0.16300
C 	C 	0.74802 0.45549 0.52079 -0.03100
C 	C 	0.77720 0.46543 0.56019 -0.09700
C 	C 	0.81144 0.54484 0.56538 0.18900
C 	C 	0.81706 0.61547 0.53088 -0.10600
C 	C 	0.79359 0.60727 0.49176 -0.04100
C 	C 	0.76078 0.52838 0.48678 0.13900
H 	H 	0.76817 0.40963 0.58662 0.07900
O 	O 	0.83799 0.55267 0.60409 -0.27500
H 	H 	0.80084 0.66219 0.46513 0.09200
O 	O 	0.73434 0.52020 0.44816 -0.26100
H 	H 	0.78853 0.53845 0.44371 0.16400
H 	H 	0.90221 0.57414 0.61417 0.16000
C 	C 	0.44197 0.18375 0.52131 -0.02800
C 	C 	0.44399 0.16411 0.56211 -0.10100
C 	C 	0.36696 0.12750 0.57240 0.20000
C 	C 	0.36346 0.17066 0.49046 0.13800
H 	H 	0.50587 0.17853 0.58577 0.07900
O 	O 	0.36125 0.19204 0.45027 -0.25800
H 	H 	0.38022 0.25419 0.43895 0.16600
C 	C 	0.79972 0.28510 0.01760 -0.01700
C 	C 	0.73583 0.20912 0.00187 -0.10300
C 	C 	0.76153 0.15977 0.00518 0.18700
C 	C 	0.85331 0.19212 0.01933 -0.10400
C 	C 	0.91802 0.27801 0.02524 -0.03800
C 	C 	0.89248 0.31941 0.02954 0.13400
H 	H 	0.66578 0.18600 0.98877 0.08800
O 	O 	0.69680 0.07987 0.99489 -0.26100
H 	H 	0.98900 0.30860 0.03109 0.07100
O 	O 	0.95636 0.38553 0.04989 -0.27000
H 	H 	0.99083 0.43952 0.02964 0.14700
H 	H 	0.67604 0.03517 0.02024 0.16000
C 	C 	0.86783 0.53584 0.04377 -0.01600
C 	C 	0.84997 0.59992 0.01979 -0.10700
C 	C 	0.89137 0.67128 0.03451 0.19400
C 	C 	0.95335 0.68056 0.07298 -0.10800
C 	C 	0.97249 0.61747 0.09650 -0.01100
C 	C 	0.93204 0.54687 0.08160 0.12100
H 	H 	0.80038 0.59184 0.99064 0.09100
O 	O 	0.87447 0.73418 0.01038 -0.26900
O 	O 	0.95092 0.48532 0.10529 -0.24400
H 	H 	0.82234 0.71328 0.01783 0.15800
C 	C 	0.56308 0.25635 0.04193 -0.02500
C 	C 	0.50670 0.27443 0.00571 -0.10100
C 	C 	0.53743 0.21298 0.07922 0.13800
H 	H 	0.52756 0.31091 0.97711 0.08800
O 	O 	0.59413 0.19929 0.11529 -0.26400
H 	H 	0.57831 0.14141 0.11837 0.16700
