data_crystal

_cell_length_a 20.30528
_cell_length_b 21.49234
_cell_length_c 22.58051
_cell_angle_alpha 61.51068
_cell_angle_beta  118.16294
_cell_angle_gamma 133.16287

_symmetry_space_group_name_	'P 1'
_symmetry_space_group_name_H-M	'P 1'

loop_
_symmetry_equiv_pos_as_xyz
  x,y,z

loop_
_atom_site_label
_atom_site_type_symbol
_atom_site_fract_x
_atom_site_fract_y
_atom_site_fract_z
_atom_site_charge
O 	O 	0.03522 0.91275 0.47421 -0.36000
O 	O 	0.01150 0.72595 0.75102 -0.10600
O 	O 	0.04174 0.38817 0.03465 -0.11900
O 	O 	0.07188 0.72367 0.07732 -0.12500
O 	O 	0.00762 0.96222 0.32966 -0.38900
C 	C 	0.03315 0.00379 0.93219 0.14300
C 	C 	0.01029 0.96529 0.43859 0.16500
C 	C 	0.01440 0.01986 0.86212 0.24200
O 	O 	0.02306 0.79096 0.60686 -0.41500
O 	O 	0.04060 0.92736 0.09832 -0.80000
O 	O 	0.07015 0.94605 0.61091 -0.77700
O 	O 	0.02271 0.76857 0.96390 -0.09100
Co	Co	0.03462 0.02369 0.22982 1.18300
C 	C 	0.07912 0.19651 0.22174 0.25400
O 	O 	0.06163 0.79732 0.14220 -0.37700
Co	Co	0.05535 0.05142 0.73037 1.18200
C 	C 	0.07460 0.21395 0.71424 0.24800
O 	O 	0.04107 0.99983 0.83366 -0.40500
N 	N 	0.03831 0.67887 0.76576 -0.04100
O 	O 	0.12502 0.18309 0.41933 -0.08800
O 	O 	0.01164 0.26300 0.04267 -0.12600
N 	N 	0.00552 0.72284 0.02520 -0.06900
O 	O 	0.10646 0.00382 0.97077 -0.28600
Co	Co	0.10341 0.96201 0.17244 1.16600
C 	C 	0.10849 0.80677 0.20578 0.30200
Co	Co	0.09166 0.90185 0.05687 1.14900
O 	O 	0.13569 0.01395 0.24613 -0.41300
O 	O 	0.10838 0.16013 0.21565 -0.35600
O 	O 	0.12536 0.86365 0.23004 -0.37700
Co	Co	0.13803 0.99912 0.67619 1.16300
Co	Co	0.12402 0.92013 0.57223 1.15900
O 	O 	0.11177 0.18535 0.70765 -0.35600
C 	C 	0.13420 0.29871 0.73282 -0.05800
H 	H 	0.12179 0.23683 0.83905 0.06800
C 	C 	0.13069 0.72046 0.76357 0.10700
H 	H 	0.09821 0.60683 0.75201 0.08000
C 	C 	0.14632 0.28035 0.24263 -0.05700
C 	C 	0.15948 0.27929 0.31024 0.09800
N 	N 	0.15567 0.20804 0.36720 -0.02000
C 	C 	0.07563 0.65863 0.24711 0.08300
H 	H 	0.06787 0.55110 0.25136 0.07200
O 	O 	0.13298 0.42568 0.55756 -0.09800
O 	O 	0.12321 0.38496 0.88313 -0.06500
C 	C 	0.13967 0.29641 0.79821 -0.02700
N 	N 	0.16163 0.38487 0.61509 -0.02400
O 	O 	0.16714 0.05898 0.74257 -0.41000
O 	O 	0.16515 0.90671 0.74397 -0.37200
C 	C 	0.16118 0.36798 0.80998 0.08700
C 	C 	0.15524 0.37596 0.67971 0.10300
N 	N 	0.16557 0.36333 0.87709 -0.02000
C 	C 	0.15294 0.66921 0.76639 -0.05600
C 	C 	0.16585 0.35712 0.19044 -0.02100
H 	H 	0.16187 0.36086 0.13945 0.08700
C 	C 	0.11306 0.61547 0.26138 -0.04300
C 	C 	0.13577 0.74681 0.25236 -0.07100
C 	C 	0.17248 0.44573 0.69062 -0.04400
C 	C 	0.17782 0.34909 0.32213 -0.04500
H 	H 	0.19002 0.34886 0.37442 0.08400
O 	O 	0.19124 0.17400 0.37012 -0.08100
C 	C 	0.19151 0.87923 0.72399 0.31500
O 	O 	0.21624 0.05388 0.54042 -0.34300
C 	C 	0.18083 0.44468 0.75654 -0.01400
C 	C 	0.20303 0.80818 0.77045 -0.07900
C 	C 	0.18910 0.42271 0.26817 -0.02000
C 	C 	0.18098 0.42545 0.20146 0.08200
O 	O 	0.14397 0.52634 0.13026 -0.09700
N 	N 	0.20120 0.53607 0.28536 -0.13100
H 	H 	0.18935 0.50501 0.64958 0.07900
O 	O 	0.20478 0.36042 0.61447 -0.07800
N 	N 	0.19316 0.50017 0.14548 -0.01700
O 	O 	0.21781 0.92129 0.66561 -0.42300
O 	O 	0.22551 0.97798 0.11208 -0.45600
O 	O 	0.21674 0.06848 0.12892 -0.37600
O 	O 	0.20835 0.33366 0.93231 -0.06800
N 	N 	0.21303 0.56848 0.77693 -0.12300
C 	C 	0.20883 0.65640 0.28707 -0.01500
C 	C 	0.26233 0.05600 0.11467 0.37400
O 	O 	0.24454 0.10727 0.62352 -0.34200
C 	C 	0.22888 0.78255 0.28670 -0.02100
C 	C 	0.24350 0.50645 0.28593 0.15200
C 	C 	0.24486 0.53031 0.77474 0.15200
C 	C 	0.24546 0.69786 0.78978 -0.00600
O 	O 	0.25172 0.54066 0.10860 -0.08300
C 	C 	0.27455 0.10230 0.58590 0.31100
C 	C 	0.25205 0.62221 0.28547 0.14800
C 	C 	0.27373 0.65508 0.77982 0.14300
C 	C 	0.26492 0.73636 0.30659 0.07800
H 	H 	0.27441 0.84775 0.29537 0.06900
N 	N 	0.97683 0.61306 0.22729 0.00100
O 	O 	0.93900 0.62846 0.24665 -0.07400
C 	C 	0.99240 0.98955 0.36091 0.23400
O 	O 	0.92416 0.55100 0.19505 -0.07900
O 	O 	0.99299 0.17060 0.19462 -0.33300
O 	O 	0.98577 0.17859 0.69013 -0.34200
O 	O 	0.98504 0.59444 0.79068 -0.03700
O 	O 	0.42563 0.85107 0.32981 -0.09100
C 	C 	0.73191 0.29753 0.03725 0.15200
N 	N 	0.77489 0.38488 0.02821 -0.13000
C 	C 	0.74487 0.40784 0.05226 0.14600
N 	N 	0.67772 0.34433 0.08813 -0.12400
C 	C 	0.62744 0.25942 0.08864 0.14700
N 	N 	0.65601 0.23545 0.06515 -0.12400
C 	C 	0.74818 0.31658 0.52299 0.15000
N 	N 	0.65943 0.26486 0.52964 -0.12300
C 	C 	0.62729 0.29994 0.53512 0.15500
N 	N 	0.68250 0.38625 0.53250 -0.13100
C 	C 	0.77153 0.43767 0.52899 0.15100
N 	N 	0.80506 0.40341 0.52367 -0.11600
N 	N 	0.33514 0.56169 0.28846 -0.12400
C 	C 	0.38310 0.64818 0.28147 0.15800
N 	N 	0.34157 0.67873 0.27953 -0.12500
N 	N 	0.36162 0.70354 0.77339 -0.12600
C 	C 	0.39279 0.66447 0.77332 0.15600
N 	N 	0.33551 0.57760 0.77723 -0.12600
Co	Co	0.86719 0.96969 0.11591 1.16100
Co	Co	0.94014 0.91586 0.05448 1.17100
Co	Co	0.88533 0.04310 0.22442 1.19200
O 	O 	0.93029 0.00487 0.18988 -0.69300
O 	O 	0.83776 0.92319 0.03941 -0.47300
C 	C 	0.83326 0.10118 0.07314 0.31800
O 	O 	0.97125 0.94103 0.15589 -0.57800
C 	C 	0.89408 0.76504 0.02419 0.26700
O 	O 	0.79955 0.05266 0.12848 -0.36500
O 	O 	0.87304 0.08316 0.05755 -0.33900
O 	O 	0.96800 0.04265 0.32500 -0.28500
O 	O 	0.96428 0.82845 0.99605 -0.32400
O 	O 	0.86675 0.78406 0.05243 -0.35800
C 	C 	0.72124 0.86594 0.20141 0.30800
O 	O 	0.78558 0.91045 0.24936 -0.40000
O 	O 	0.74059 0.87505 0.14750 -0.36700
O 	O 	0.98605 0.00177 0.96056 -0.23700
Co	Co	0.88488 0.97806 0.62218 1.16400
Co	Co	0.96458 0.92375 0.56913 1.19300
Co	Co	0.88767 0.04774 0.72388 1.19100
O 	O 	0.94457 0.01698 0.69416 -0.69500
O 	O 	0.85893 0.92800 0.55014 -0.45100
C 	C 	0.83250 0.09619 0.57150 0.31700
O 	O 	0.99920 0.96239 0.66450 -0.57100
C 	C 	0.93494 0.75730 0.57767 0.35000
O 	O 	0.79887 0.04707 0.62702 -0.35300
O 	O 	0.88268 0.08613 0.56042 -0.34300
O 	O 	0.97196 0.05756 0.82361 -0.31000
O 	O 	0.89631 0.79109 0.57373 -0.34800
C 	C 	0.73680 0.86600 0.70753 0.30900
O 	O 	0.79857 0.91356 0.75368 -0.40400
O 	O 	0.75827 0.87803 0.65362 -0.36100
O 	O 	0.99710 0.99317 0.47100 -0.32200
C 	C 	0.62224 0.73552 0.77641 -0.01000
C 	C 	0.64091 0.80096 0.71468 -0.08000
C 	C 	0.57609 0.81979 0.67162 0.10800
C 	C 	0.49813 0.77903 0.69369 -0.05000
C 	C 	0.48257 0.71767 0.75742 -0.01600
C 	C 	0.54497 0.69563 0.79899 0.08300
N 	N 	0.53155 0.63476 0.86525 -0.02000
H 	H 	0.67203 0.72097 0.80975 0.07500
H 	H 	0.44826 0.79347 0.66033 0.07500
N 	N 	0.59197 0.88405 0.60710 -0.02400
O 	O 	0.53505 0.57011 0.88168 -0.06300
O 	O 	0.52188 0.64727 0.91074 -0.06200
O 	O 	0.59755 0.87235 0.55864 -0.08000
O 	O 	0.59055 0.94901 0.59410 -0.10800
C 	C 	0.31378 0.77502 0.81534 0.07800
C 	C 	0.29325 0.83175 0.80216 -0.00900
H 	H 	0.34845 0.89581 0.81369 0.06500
N 	N 	0.40299 0.79481 0.85590 -0.01600
O 	O 	0.47788 0.87262 0.84073 -0.08800
O 	O 	0.40922 0.73667 0.91035 -0.05600
C 	C 	0.48564 0.77336 0.20126 -0.04800
C 	C 	0.47342 0.70917 0.26388 -0.01400
C 	C 	0.53852 0.69004 0.30041 0.08300
C 	C 	0.61216 0.73211 0.27244 -0.01000
C 	C 	0.62699 0.79924 0.21173 -0.07900
C 	C 	0.56149 0.81779 0.17467 0.10500
N 	N 	0.57402 0.88446 0.11136 -0.02400
H 	H 	0.43431 0.78642 0.17183 0.07800
H 	H 	0.66285 0.71818 0.30130 0.07900
N 	N 	0.53067 0.62878 0.36666 -0.01700
O 	O 	0.57893 0.87807 0.05933 -0.10300
O 	O 	0.57445 0.94846 0.10424 -0.12500
O 	O 	0.53760 0.56737 0.37970 -0.07700
O 	O 	0.52159 0.63730 0.41512 -0.07100
N 	N 	0.35727 0.76946 0.34807 -0.01700
O 	O 	0.37210 0.71959 0.40634 -0.07500
C 	C 	0.89595 0.25120 0.55000 -0.01900
C 	C 	0.82690 0.17136 0.52975 -0.06700
C 	C 	0.74041 0.15469 0.48875 0.12400
C 	C 	0.71821 0.20786 0.48153 -0.04700
C 	C 	0.78170 0.27754 0.51480 -0.00800
C 	C 	0.87288 0.30162 0.54664 0.09000
N 	N 	0.93993 0.37234 0.58039 -0.01800
H 	H 	0.96589 0.27044 0.57373 0.09600
H 	H 	0.65056 0.19317 0.45196 0.09000
N 	N 	0.67465 0.08339 0.45504 -0.02100
O 	O 	0.95284 0.35621 0.64672 -0.06300
O 	O 	0.99345 0.45173 0.54601 -0.06300
O 	O 	0.58613 0.04290 0.44393 -0.04000
O 	O 	0.70335 0.06267 0.43150 -0.05100
C 	C 	0.83990 0.59575 0.48599 -0.05000
C 	C 	0.83328 0.52534 0.54229 -0.00800
C 	C 	0.85222 0.53029 0.60918 0.08500
C 	C 	0.86669 0.59955 0.61787 -0.00500
C 	C 	0.87615 0.67110 0.56229 -0.07800
C 	C 	0.85861 0.66729 0.49527 0.11300
N 	N 	0.85710 0.73462 0.43621 -0.02200
H 	H 	0.82259 0.59146 0.43408 0.08100
H 	H 	0.87598 0.60013 0.66889 0.09300
N 	N 	0.85029 0.46142 0.66806 -0.01900
O 	O 	0.89413 0.76383 0.38660 -0.08900
O 	O 	0.81104 0.76055 0.42892 -0.08700
O 	O 	0.90000 0.43750 0.67931 -0.05500
O 	O 	0.80096 0.42439 0.71153 -0.06000
C 	C 	0.42717 0.13269 0.62305 -0.01600
C 	C 	0.37269 0.16363 0.58460 -0.07300
C 	C 	0.40366 0.24032 0.53076 0.12400
C 	C 	0.48092 0.27726 0.50964 -0.04900
C 	C 	0.53415 0.24491 0.54671 -0.01300
C 	C 	0.50796 0.17321 0.60477 0.09000
N 	N 	0.56416 0.14250 0.64616 -0.02000
H 	H 	0.40466 0.07472 0.66553 0.08300
H 	H 	0.50326 0.33493 0.46692 0.08700
N 	N 	0.35835 0.28227 0.49872 -0.02000
O 	O 	0.64419 0.18986 0.68511 -0.05900
O 	O 	0.53182 0.06400 0.64956 -0.05900
O 	O 	0.32795 0.28537 0.53597 -0.06900
O 	O 	0.35866 0.32725 0.43465 -0.07400
C 	C 	0.72957 0.14610 0.99440 0.02800
C 	C 	0.82056 0.17179 0.02741 -0.09500
C 	C 	0.88879 0.25762 0.03900 0.11100
C 	C 	0.86059 0.30227 0.03938 -0.03900
C 	C 	0.76655 0.26885 0.01690 -0.05000
C 	C 	0.70276 0.19525 0.98761 0.13000
N 	N 	0.61064 0.16977 0.95157 -0.02100
H 	H 	0.67772 0.08423 0.97913 0.10300
H 	H 	0.91155 0.36187 0.05783 0.09000
N 	N 	0.98462 0.30338 0.04223 0.01800
O 	O 	0.59787 0.22640 0.90036 -0.04800
O 	O 	0.53983 0.08848 0.96651 -0.03400
C 	C 	0.87315 0.56887 0.03451 -0.05300
C 	C 	0.78006 0.50087 0.03600 -0.00700
C 	C 	0.72332 0.52009 0.03222 0.07900
C 	C 	0.76262 0.60448 0.03377 -0.01400
C 	C 	0.85628 0.67260 0.03317 -0.06900
C 	C 	0.91138 0.65446 0.03151 0.13800
H 	H 	0.91702 0.55547 0.03668 0.09300
H 	H 	0.71864 0.61781 0.03150 0.07400
N 	N 	0.62509 0.45543 0.02315 -0.03600
O 	O 	0.58464 0.42781 0.06984 -0.08300
O 	O 	0.57526 0.43127 0.96510 -0.03300
C 	C 	0.37441 0.15556 0.04219 -0.04000
C 	C 	0.35744 0.12674 0.10693 -0.08900
C 	C 	0.43059 0.14114 0.16622 0.13000
C 	C 	0.51738 0.17745 0.16074 -0.05000
C 	C 	0.53224 0.20047 0.09649 -0.00200
C 	C 	0.45946 0.18792 0.03704 0.06800
N 	N 	0.47057 0.20483 0.97170 -0.00200
H 	H 	0.31829 0.14477 0.99639 0.10400
H 	H 	0.57408 0.19012 0.20621 0.08800
N 	N 	0.41563 0.11505 0.23265 -0.02700
O 	O 	0.41610 0.14166 0.94033 -0.05200
O 	O 	0.52692 0.28492 0.93984 -0.05000
O 	O 	0.43866 0.06569 0.28454 -0.06100
O 	O 	0.38347 0.14434 0.24214 -0.07700
