data_crystal

_cell_length_a 18.41842
_cell_length_b 18.89560
_cell_length_c 35.16301
_cell_angle_alpha 95.43742
_cell_angle_beta  95.44044
_cell_angle_gamma 126.10119

_symmetry_space_group_name_	'P 1'
_symmetry_space_group_name_H-M	'P 1'

loop_
_symmetry_equiv_pos_as_xyz
  x,y,z

loop_
_atom_site_label
_atom_site_type_symbol
_atom_site_fract_x
_atom_site_fract_y
_atom_site_fract_z
_atom_site_charge
C 	C 	0.90240 0.96056 0.97138 0.15100
C 	C 	0.85454 0.86803 0.96930 -0.06200
C 	C 	0.90248 0.83124 0.96925 0.12600
C 	C 	0.99694 0.88654 0.97043 -0.11400
C 	C 	0.04342 0.97750 0.97046 0.20200
C 	C 	0.99613 0.01430 0.97062 -0.15600
H 	H 	0.78150 0.82567 0.96883 0.12700
H 	H 	0.03426 0.85865 0.97125 0.15300
H 	H 	0.03277 0.08523 0.97136 0.15500
C 	C 	0.94320 0.05673 0.48683 0.00400
C 	C 	0.03795 0.11302 0.48777 0.05100
C 	C 	0.08810 0.07900 0.49074 0.02800
C 	C 	0.04376 0.98936 0.49351 0.04700
C 	C 	0.94906 0.93276 0.49189 0.02000
C 	C 	0.89845 0.96586 0.48721 0.03700
H 	H 	0.07237 0.18271 0.48621 0.11000
H 	H 	0.08300 0.96382 0.49709 0.10000
H 	H 	0.82473 0.92147 0.48464 0.10500
Cu	Cu	0.75390 0.30612 0.96137 0.93700
Cu	Cu	0.77020 0.26979 0.04992 0.89200
Cu	Cu	0.61848 0.26987 0.01520 0.91500
Cu	Cu	0.57234 0.28344 0.93177 0.92500
C 	C 	0.68712 0.27372 0.87954 0.35300
O 	O 	0.80562 0.43241 0.95399 -0.30700
C 	C 	0.69827 0.33084 0.09983 0.33100
O 	O 	0.61265 0.23171 0.96180 -0.63600
O 	O 	0.75259 0.33590 0.01667 -0.63100
O 	O 	0.81633 0.24852 0.96771 -0.30300
O 	O 	0.73155 0.17072 0.01160 -0.38700
O 	O 	0.60798 0.25768 0.88343 -0.33000
O 	O 	0.48713 0.19747 0.01001 -0.29700
C 	C 	0.43337 0.19564 0.98168 0.29400
C 	C 	0.75962 0.46449 0.95890 0.29500
O 	O 	0.67743 0.41372 0.96674 -0.34200
O 	O 	0.46721 0.25128 0.95717 -0.33000
O 	O 	0.73317 0.26368 0.90688 -0.29700
C 	C 	0.78164 0.18002 0.98559 0.29800
O 	O 	0.62466 0.29126 0.07213 -0.33400
O 	O 	0.77257 0.34105 0.09276 -0.38600
H 	H 	0.57647 0.16622 0.95389 0.20900
H 	H 	0.78853 0.40045 0.02729 0.19700
Cu	Cu	0.61928 0.23348 0.50570 0.93800
Cu	Cu	0.65932 0.23516 0.41709 0.92100
Cu	Cu	0.65249 0.37436 0.45909 0.91300
Cu	Cu	0.66623 0.41626 0.54533 0.92900
C 	C 	0.67976 0.29542 0.58833 0.34000
O 	O 	0.49930 0.20576 0.51696 -0.30200
C 	C 	0.59625 0.31478 0.37291 0.33700
O 	O 	0.70577 0.37227 0.50918 -0.63200
O 	O 	0.58985 0.24380 0.45231 -0.63300
O 	O 	0.65575 0.15504 0.49212 -0.31300
O 	O 	0.74938 0.24488 0.45316 -0.35800
O 	O 	0.64757 0.34152 0.58512 -0.32500
O 	O 	0.70474 0.50103 0.46801 -0.29800
C 	C 	0.75638 0.56064 0.50022 0.30900
C 	C 	0.47358 0.25550 0.50839 0.28900
O 	O 	0.53487 0.33982 0.50644 -0.33900
O 	O 	0.74863 0.53774 0.53473 -0.34100
O 	O 	0.66907 0.24174 0.55784 -0.33900
C 	C 	0.72504 0.18306 0.47415 0.30300
O 	O 	0.61685 0.37342 0.40398 -0.32400
O 	O 	0.58992 0.24233 0.37605 -0.37000
H 	H 	0.77262 0.40331 0.51307 0.20100
H 	H 	0.52357 0.20763 0.44155 0.19900
C 	C 	0.71538 0.31943 0.69734 0.03500
C 	C 	0.63999 0.23543 0.70215 -0.01000
C 	C 	0.62352 0.21840 0.73943 -0.01700
C 	C 	0.68258 0.28468 0.77224 0.04400
C 	C 	0.76081 0.36679 0.76756 -0.01600
C 	C 	0.77690 0.38421 0.73025 -0.01000
C 	C 	0.65468 0.27301 0.81047 0.03800
C 	C 	0.71151 0.28097 0.84282 -0.10900
C 	C 	0.72122 0.34485 0.65865 0.03700
C 	C 	0.70513 0.28689 0.62535 -0.13800
H 	H 	0.59142 0.18509 0.67703 0.08900
H 	H 	0.56289 0.15484 0.74276 0.08800
H 	H 	0.80660 0.41867 0.79271 0.10700
H 	H 	0.83518 0.44928 0.72690 0.08500
H 	H 	0.58711 0.25395 0.81273 0.08700
H 	H 	0.77551 0.29251 0.83932 0.13400
H 	H 	0.73478 0.40833 0.65601 0.07100
H 	H 	0.70976 0.23288 0.62842 0.12400
C 	C 	0.56567 0.28516 0.26477 0.03400
C 	C 	0.60539 0.25188 0.24513 -0.01900
C 	C 	0.62186 0.26721 0.20777 -0.02000
C 	C 	0.59872 0.31613 0.18952 0.04200
C 	C 	0.55804 0.34878 0.20896 -0.01600
C 	C 	0.54199 0.33378 0.24659 -0.01400
C 	C 	0.61244 0.32872 0.14924 0.02300
C 	C 	0.69446 0.35336 0.13821 -0.13200
C 	C 	0.54241 0.26221 0.30296 0.02800
C 	C 	0.57854 0.32902 0.33594 -0.13300
H 	H 	0.62273 0.21328 0.25874 0.07900
H 	H 	0.65105 0.23962 0.19269 0.07200
H 	H 	0.53871 0.38549 0.19493 0.09500
H 	H 	0.50961 0.35830 0.26122 0.08500
H 	H 	0.55666 0.31439 0.12786 0.11300
H 	H 	0.75410 0.38142 0.16071 0.11000
H 	H 	0.51025 0.19371 0.30649 0.07800
H 	H 	0.59808 0.39437 0.33256 0.12800
C 	C 	0.90002 0.78132 0.46544 0.00600
C 	C 	0.90309 0.83852 0.49519 0.10000
C 	C 	0.86482 0.80588 0.52823 -0.13000
C 	C 	0.81255 0.71398 0.52793 0.08200
C 	C 	0.81028 0.65664 0.49848 -0.00200
C 	C 	0.86026 0.69214 0.46830 -0.06200
C 	C 	0.87136 0.63609 0.43905 0.77400
H 	H 	0.93033 0.80696 0.44042 0.12000
H 	H 	0.77389 0.68689 0.55083 0.09700
C 	C 	0.87665 0.86772 0.56330 0.79400
F 	F 	0.94539 0.68957 0.42146 -0.40900
F 	F 	0.79352 0.58325 0.41048 -0.42600
F 	F 	0.88641 0.58266 0.45707 -0.44600
F 	F 	0.81525 0.88654 0.55583 -0.39500
F 	F 	0.96481 0.94638 0.57192 -0.39500
F 	F 	0.86065 0.82861 0.59594 -0.39800
C 	C 	0.83681 0.07396 0.44798 0.00700
C 	C 	0.88968 0.09184 0.48400 0.10100
C 	C 	0.88490 0.13605 0.51749 -0.12300
C 	C 	0.82898 0.16395 0.51370 0.08000
C 	C 	0.77588 0.14559 0.47768 -0.00500
C 	C 	0.77660 0.09674 0.44477 -0.06300
C 	C 	0.71538 0.07105 0.40594 0.77000
H 	H 	0.84154 0.04070 0.42256 0.11100
H 	H 	0.82792 0.20156 0.53861 0.08600
C 	C 	0.94220 0.15699 0.55682 0.77300
F 	F 	0.70847 0.00520 0.38104 -0.41100
F 	F 	0.75124 0.14495 0.38856 -0.45200
F 	F 	0.62797 0.03863 0.41114 -0.44500
F 	F 	0.03385 0.21897 0.55584 -0.39700
F 	F 	0.92748 0.08041 0.56590 -0.38300
F 	F 	0.92055 0.19159 0.58628 -0.40900
C 	C 	0.32155 0.17681 0.46645 0.08100
C 	C 	0.37645 0.21824 0.50356 -0.00700
C 	C 	0.33840 0.22434 0.53572 -0.05600
C 	C 	0.24414 0.18378 0.53029 0.00700
C 	C 	0.18830 0.13828 0.49351 0.10700
C 	C 	0.22792 0.13883 0.46084 -0.13400
C 	C 	0.16963 0.09478 0.42034 0.79300
H 	H 	0.35176 0.17325 0.44204 0.07100
H 	H 	0.21308 0.18399 0.55494 0.13800
C 	C 	0.39759 0.27126 0.57598 0.77400
F 	F 	0.22303 0.11908 0.39193 -0.41300
F 	F 	0.11326 0.11989 0.41364 -0.41800
F 	F 	0.11648 0.00313 0.41687 -0.42000
F 	F 	0.46913 0.35850 0.57506 -0.43400
F 	F 	0.43254 0.22761 0.58799 -0.42100
F 	F 	0.34861 0.27275 0.60316 -0.39400
C 	C 	0.82870 0.61311 0.99769 0.04700
C 	C 	0.80429 0.56035 0.96117 0.00600
C 	C 	0.80537 0.59480 0.92703 -0.07500
C 	C 	0.82927 0.68129 0.93025 0.03200
C 	C 	0.85430 0.73432 0.96682 0.05000
C 	C 	0.85135 0.69905 0.00091 -0.09300
C 	C 	0.87072 0.75240 0.04059 0.78400
H 	H 	0.82681 0.58562 0.02359 0.08900
H 	H 	0.83176 0.70898 0.90437 0.11500
C 	C 	0.77932 0.53868 0.88718 0.77500
F 	F 	0.85605 0.70357 0.06980 -0.40900
F 	F 	0.81357 0.77725 0.04063 -0.38500
F 	F 	0.96073 0.82797 0.04909 -0.40600
F 	F 	0.68806 0.46586 0.88070 -0.45100
F 	F 	0.83224 0.50911 0.88533 -0.43500
F 	F 	0.79258 0.58651 0.85770 -0.41200
C 	C 	0.81231 0.00815 0.94292 0.01000
C 	C 	0.85605 0.00273 0.97621 0.03800
C 	C 	0.87084 0.05224 0.01276 -0.10300
C 	C 	0.85163 0.11412 0.01445 0.07600
C 	C 	0.80973 0.12119 0.98113 -0.01500
C 	C 	0.78633 0.06514 0.94516 -0.06200
C 	C 	0.73794 0.06893 0.90885 0.76400
H 	H 	0.80182 0.97054 0.91504 0.12200
H 	H 	0.86878 0.15680 0.04188 0.06500
C 	C 	0.91260 0.04360 0.04973 0.75400
F 	F 	0.70825 0.99966 0.87874 -0.39600
F 	F 	0.79744 0.14855 0.89677 -0.41800
F 	F 	0.66211 0.06264 0.91637 -0.43600
F 	F 	0.00596 0.09113 0.05188 -0.39400
F 	F 	0.87446 0.95516 0.05022 -0.37000
F 	F 	0.89727 0.07628 0.08245 -0.41200
C 	C 	0.27700 0.08304 0.94462 0.07300
C 	C 	0.33408 0.13869 0.98006 -0.00600
C 	C 	0.29541 0.14509 0.01203 -0.05800
C 	C 	0.19981 0.08972 0.00844 0.04300
C 	C 	0.14308 0.03551 0.97274 0.03100
C 	C 	0.18185 0.03515 0.93995 -0.11600
C 	C 	0.12199 0.98169 0.90027 0.80000
H 	H 	0.30731 0.07852 0.92042 0.08100
H 	H 	0.16909 0.08864 0.03340 0.13200
C 	C 	0.35526 0.20846 0.05025 0.77500
F 	F 	0.17296 0.00687 0.87099 -0.41100
F 	F 	0.05629 0.99497 0.89218 -0.40800
F 	F 	0.07940 0.89201 0.89969 -0.41500
F 	F 	0.42323 0.29219 0.04364 -0.42100
F 	F 	0.39471 0.17534 0.06973 -0.42500
F 	F 	0.30486 0.21831 0.07404 -0.40100
