data_crystal

_cell_length_a 15.07723
_cell_length_b 17.43916
_cell_length_c 25.65731
_cell_angle_alpha 89.99364
_cell_angle_beta  89.99263
_cell_angle_gamma 120.27006

_symmetry_space_group_name_	'P 1'
_symmetry_space_group_name_H-M	'P 1'

loop_
_symmetry_equiv_pos_as_xyz
  x,y,z

loop_
_atom_site_label
_atom_site_type_symbol
_atom_site_fract_x
_atom_site_fract_y
_atom_site_fract_z
_atom_site_charge
C 	C 	0.08471 0.83359 0.00667 0.32500
C 	C 	0.04653 0.13034 0.07985 0.28100
Ni	Ni	0.08715 0.98062 0.06526 1.11500
Ni	Ni	0.08940 0.97458 0.93781 1.11800
O 	O 	0.11501 0.09181 0.90660 -0.36500
O 	O 	0.13804 0.89798 0.03935 -0.36900
O 	O 	0.05469 0.84983 0.96164 -0.38800
O 	O 	0.04221 0.06098 0.10275 -0.35500
O 	O 	0.04621 0.00326 0.00071 -0.68500
H 	H 	0.09350 0.06774 0.99886 0.12700
C 	C 	0.10346 0.08502 0.60238 0.30000
C 	C 	0.13545 0.17028 0.43362 0.30900
C 	C 	0.01229 0.92964 0.39673 0.27700
Ni	Ni	0.08534 0.01077 0.49920 1.12200
O 	O 	0.00590 0.02873 0.61338 -0.34800
O 	O 	0.13243 0.10562 0.55409 -0.37300
O 	O 	0.04667 0.92171 0.44258 -0.37800
O 	O 	0.03567 0.90987 0.55512 -0.36000
O 	O 	0.04819 0.15801 0.44939 -0.39100
C 	C 	0.10637 0.21863 0.10563 -0.05000
C 	C 	0.08800 0.28848 0.09370 0.00700
C 	C 	0.14884 0.37109 0.11719 0.01100
C 	C 	0.16690 0.45064 0.09076 0.10300
C 	C 	0.08087 0.74853 0.01555 -0.07100
C 	C 	0.02821 0.63473 0.08266 -0.00700
C 	C 	0.00398 0.68488 0.04858 0.00200
C 	C 	0.14138 0.23819 0.34873 -0.00100
C 	C 	0.02970 0.88442 0.35266 -0.05700
C 	C 	0.99051 0.73973 0.31792 0.02000
C 	C 	0.12033 0.30474 0.94226 0.08900
N 	N 	0.17404 0.34026 0.97716 -0.10800
N 	N 	0.12447 0.36128 0.51936 -0.09600
N 	N 	0.14350 0.89814 0.64356 -0.09900
C 	C 	0.04205 0.28941 0.29778 0.09500
N 	N 	0.07789 0.07428 0.76744 -0.10000
C 	C 	0.04316 0.11554 0.90702 0.28100
C 	C 	0.12144 0.30687 0.33559 0.01000
C 	C 	0.05568 0.19010 0.87394 -0.05200
C 	C 	0.05529 0.11825 0.79117 0.09900
N 	N 	0.18146 0.51364 0.06863 -0.10100
C 	C 	0.10273 0.16030 0.31599 0.09000
C 	C 	0.05416 0.26167 0.89821 -0.00400
O 	O 	0.09751 0.60692 0.18087 -0.34600
O 	O 	0.09426 0.46190 0.31350 -0.34300
O 	O 	0.11644 0.44720 0.20630 -0.35500
O 	O 	0.16334 0.11125 0.44537 -0.35700
C 	C 	0.19220 0.24267 0.39570 -0.05800
C 	C 	0.09482 0.77536 0.30396 -0.06700
N 	N 	0.13248 0.29311 0.64762 -0.09700
C 	C 	0.13203 0.65995 0.09047 -0.03700
C 	C 	0.12967 0.92233 0.33193 0.00400
C 	C 	0.18359 0.97454 0.64734 0.09600
Ni	Ni	0.11339 0.54594 0.24925 1.11500
O 	O 	0.09958 0.63742 0.29634 -0.35600
C 	C 	0.19863 0.37648 0.16447 -0.05500
C 	C 	0.18169 0.23336 0.14433 0.00700
C 	C 	0.17310 0.74760 0.01045 0.04000
C 	C 	0.18389 0.11681 0.64375 -0.05300
C 	C 	0.17410 0.25351 0.65455 0.10100
C 	C 	0.04049 0.33220 0.53318 0.10200
C 	C 	0.16818 0.65130 0.14364 0.27800
C 	C 	0.13108 0.71843 0.27934 0.30400
C 	C 	0.19577 0.43398 0.20602 0.28000
O 	O 	0.23602 0.08322 0.04667 -0.35100
O 	O 	0.23465 0.02457 0.96542 -0.38700
C 	C 	0.21901 0.17186 0.15113 0.09800
C 	C 	0.20308 0.70962 0.05038 -0.00500
C 	C 	0.16339 0.86791 0.30931 0.01100
C 	C 	0.20163 0.01649 0.33859 0.10500
C 	C 	0.24182 0.79447 0.96754 0.07100
C 	C 	0.17463 0.38977 0.36198 -0.06200
C 	C 	0.23622 0.06999 0.65302 0.00100
C 	C 	0.22670 0.20427 0.66310 0.00700
C 	C 	0.17171 0.47035 0.34196 0.30200
C 	C 	0.22224 0.30980 0.17597 0.00800
N 	N 	0.24914 0.12320 0.15725 -0.10900
N 	N 	0.25987 0.09140 0.34382 -0.09600
O 	O 	0.18995 0.74782 0.23814 -0.37000
C 	C 	0.27900 0.08922 0.00025 0.32300
C 	C 	0.25846 0.32715 0.41610 0.00900
O 	O 	0.25850 0.45578 0.24710 -0.36500
C 	C 	0.02782 0.17357 0.82108 0.00400
C 	C 	0.24618 0.39989 0.40183 0.00300
N 	N 	0.05002 0.49077 0.62691 -0.11100
N 	N 	0.07158 0.09866 0.28921 -0.09800
O 	O 	0.26702 0.70469 0.15561 -0.36000
O 	O 	0.25746 0.61383 0.24137 -0.71800
H 	H 	0.26644 0.59640 0.20622 0.15900
O 	O 	0.25629 0.54612 0.34163 -0.38300
N 	N 	0.29667 0.83197 0.93326 -0.09600
N 	N 	0.26127 0.67240 0.45704 -0.09300
C 	C 	0.29087 0.32075 0.21859 0.10400
C 	C 	0.30400 0.48302 0.42964 0.10300
C 	C 	0.26946 0.90740 0.29254 0.09400
C 	C 	0.99943 0.27326 0.06340 0.11800
C 	C 	0.30568 0.72251 0.05011 0.12200
C 	C 	0.32236 0.24487 0.68953 0.00800
N 	N 	0.33760 0.32520 0.02990 -0.09900
C 	C 	0.33879 0.11545 0.67075 0.00800
Ni	Ni	0.31732 0.73755 0.22981 1.12600
C 	C 	0.33134 0.33720 0.45611 0.10300
O 	O 	0.98968 0.99357 0.38705 -0.34800
N 	N 	0.97823 0.27465 0.26766 -0.09300
N 	N 	0.99812 0.75996 0.75325 -0.10000
C 	C 	0.94689 0.55376 0.10557 0.12200
C 	C 	0.95879 0.79372 0.34358 0.01400
C 	C 	0.91522 0.64913 0.30413 0.09900
N 	N 	0.97869 0.69699 0.48497 -0.09500
N 	N 	0.88185 0.48899 0.12380 -0.09900
C 	C 	0.94558 0.69462 0.52603 0.10100
C 	C 	0.80961 0.54887 0.82722 0.29200
C 	C 	0.78817 0.30015 0.66647 0.30300
C 	C 	0.76778 0.52787 0.68875 0.30300
C 	C 	0.87709 0.29503 0.80617 0.28700
C 	C 	0.48749 0.24774 0.71451 0.30200
C 	C 	0.57020 0.26355 0.85746 0.28100
Ni	Ni	0.85836 0.43731 0.74900 1.11700
Ni	Ni	0.66163 0.23692 0.76258 1.12400
Ni	Ni	0.63044 0.40330 0.77418 1.12400
O 	O 	0.87807 0.54570 0.79524 -0.35400
O 	O 	0.71559 0.48087 0.83337 -0.37300
O 	O 	0.51455 0.20078 0.74386 -0.36800
O 	O 	0.86436 0.34764 0.69841 -0.36100
O 	O 	0.69488 0.24859 0.68509 -0.36400
O 	O 	0.53849 0.30650 0.82626 -0.36100
O 	O 	0.81325 0.48115 0.68497 -0.37100
O 	O 	0.70493 0.51508 0.72815 -0.36500
O 	O 	0.61602 0.22171 0.83753 -0.36500
O 	O 	0.90777 0.38120 0.80526 -0.35700
O 	O 	0.79433 0.23536 0.77973 -0.35600
O 	O 	0.54625 0.33449 0.71227 -0.37300
O 	O 	0.72496 0.36210 0.77245 -0.72100
H 	H 	0.74196 0.36520 0.80972 0.16100
C 	C 	0.40620 0.74976 0.33290 0.31000
C 	C 	0.48831 0.70093 0.20027 0.29700
Ni	Ni	0.34290 0.58147 0.27764 1.12500
O 	O 	0.43712 0.69650 0.31451 -0.37100
O 	O 	0.46212 0.76053 0.21446 -0.36400
O 	O 	0.43977 0.61878 0.21790 -0.38000
O 	O 	0.34435 0.76645 0.30566 -0.37700
C 	C 	0.85941 0.87876 0.08417 0.30600
C 	C 	0.87215 0.85711 0.92296 0.30400
Ni	Ni	0.91948 0.00237 0.99646 1.11100
O 	O 	0.83973 0.87805 0.96541 -0.37100
O 	O 	0.94264 0.87177 0.08312 -0.35200
O 	O 	0.86270 0.95052 0.06700 -0.35900
O 	O 	0.94995 0.06152 0.92573 -0.37100
O 	O 	0.99412 0.12066 0.03584 -0.34400
O 	O 	0.95621 0.91689 0.90004 -0.37500
C 	C 	0.71785 0.91916 0.47086 0.29600
C 	C 	0.88168 0.14555 0.51711 0.31100
C 	C 	0.93826 0.84740 0.56746 0.29500
Ni	Ni	0.88386 0.98940 0.55938 1.12100
Ni	Ni	0.92374 0.04250 0.43771 1.12200
O 	O 	0.74001 0.94442 0.52091 -0.34300
O 	O 	0.78962 0.92895 0.43810 -0.37300
O 	O 	0.92087 0.11993 0.55382 -0.36500
O 	O 	0.85038 0.10075 0.47319 -0.36500
O 	O 	0.86164 0.86353 0.56492 -0.36300
O 	O 	0.95123 0.99398 0.49689 -0.71100
H 	H 	0.91497 0.93116 0.48660 0.17200
N 	N 	0.34556 0.32925 0.25259 -0.10100
N 	N 	0.92872 0.26140 0.03928 -0.09300
C 	C 	0.58538 0.73136 0.17240 -0.05600
C 	C 	0.58404 0.71661 0.11889 0.00700
C 	C 	0.67073 0.77203 0.08939 0.01400
C 	C 	0.76815 0.81514 0.11406 -0.05500
C 	C 	0.77261 0.81433 0.16919 0.00900
C 	C 	0.68062 0.77869 0.19836 0.00900
C 	C 	0.49715 0.64094 0.09496 0.11000
C 	C 	0.87097 0.85410 0.19561 0.10000
C 	C 	0.68401 0.79271 0.25417 0.10000
C 	C 	0.65576 0.80277 0.03957 0.10800
N 	N 	0.68671 0.80418 0.29870 -0.09700
N 	N 	0.64170 0.82705 0.00011 -0.09100
N 	N 	0.94945 0.88581 0.21671 -0.10000
N 	N 	0.42792 0.57999 0.07593 -0.09200
C 	C 	0.90576 0.67990 0.05321 0.11000
N 	N 	0.82695 0.67522 0.05795 -0.09700
N 	N 	0.38820 0.73401 0.04946 -0.09700
N 	N 	0.35116 0.54887 0.45224 -0.09700
N 	N 	0.38946 0.34513 0.48812 -0.09500
C 	C 	0.46623 0.81208 0.37433 -0.05900
C 	C 	0.44721 0.78621 0.42696 0.00900
C 	C 	0.52686 0.83002 0.46377 0.00700
C 	C 	0.62060 0.90387 0.44786 -0.05400
C 	C 	0.62448 0.94373 0.39904 0.01900
C 	C 	0.55026 0.89509 0.36122 0.01100
C 	C 	0.34401 0.72272 0.44372 0.10300
C 	C 	0.70866 0.03147 0.38622 0.08000
C 	C 	0.56382 0.92772 0.30806 0.10200
C 	C 	0.51415 0.79725 0.51667 0.10400
N 	N 	0.57501 0.95383 0.26570 -0.09900
N 	N 	0.50399 0.77103 0.55897 -0.09700
N 	N 	0.77491 0.10135 0.37489 -0.10900
C 	C 	0.85520 0.75462 0.36389 0.09800
N 	N 	0.85505 0.57685 0.29310 -0.10000
N 	N 	0.35404 0.93961 0.27908 -0.10700
N 	N 	0.77267 0.72334 0.38033 -0.09600
C 	C 	0.97320 0.21098 0.79758 0.00700
C 	C 	0.94908 0.26692 0.82724 -0.05100
C 	C 	0.99392 0.29528 0.87711 0.00800
C 	C 	0.97430 0.35508 0.90768 0.10000
C 	C 	0.94232 0.19209 0.74341 0.10600
N 	N 	0.91732 0.17673 0.70022 -0.10000
N 	N 	0.95861 0.40277 0.93213 -0.10000
C 	C 	0.83646 0.63210 0.85489 -0.05700
C 	C 	0.85830 0.70745 0.82538 0.00300
C 	C 	0.82685 0.76552 0.84441 0.00900
C 	C 	0.81247 0.76897 0.89797 -0.06100
C 	C 	0.78318 0.69160 0.92712 0.00300
C 	C 	0.80626 0.62790 0.90754 0.00800
C 	C 	0.93514 0.73671 0.78495 0.09800
C 	C 	0.70134 0.66341 0.96454 0.10400
C 	C 	0.79487 0.55625 0.94073 0.09800
C 	C 	0.81143 0.82328 0.81005 0.10700
N 	N 	0.78572 0.49894 0.96718 -0.10400
N 	N 	0.79711 0.86977 0.78369 -0.09500
N 	N 	0.63421 0.63806 0.99394 -0.10500
C 	C 	0.53267 0.24459 0.91281 -0.05500
C 	C 	0.48164 0.28610 0.93528 0.01300
C 	C 	0.41089 0.24288 0.97629 -0.02200
C 	C 	0.38738 0.15735 0.99146 -0.07000
C 	C 	0.45823 0.12976 0.97968 -0.01400
C 	C 	0.53373 0.17537 0.94117 0.01100
C 	C 	0.50774 0.37483 0.91953 0.09300
C 	C 	0.45021 0.05253 0.00537 0.13300
C 	C 	0.61791 0.15842 0.93522 0.09700
C 	C 	0.36972 0.28856 0.00577 0.12600
N 	N 	0.68524 0.14497 0.93055 -0.10500
N 	N 	0.44372 0.99083 0.02592 -0.09800
N 	N 	0.52841 0.44571 0.90704 -0.10300
C 	C 	0.85728 0.21538 0.52925 -0.06200
C 	C 	0.93542 0.29563 0.55060 0.01600
C 	C 	0.91172 0.33564 0.59184 0.00900
C 	C 	0.80971 0.29464 0.61038 -0.05400
C 	C 	0.73069 0.23485 0.57723 0.00800
C 	C 	0.75404 0.19213 0.53750 0.00500
C 	C 	0.63028 0.22665 0.57958 0.10800
C 	C 	0.67242 0.12379 0.50652 0.10300
C 	C 	0.98862 0.42184 0.61137 0.11200
N 	N 	0.60567 0.06956 0.48221 -0.10200
N 	N 	0.55025 0.22052 0.58123 -0.10000
C 	C 	0.80229 0.60669 0.65349 -0.05800
C 	C 	0.84592 0.60942 0.60389 0.00800
C 	C 	0.90408 0.69179 0.57741 0.00400
C 	C 	0.91939 0.77094 0.60060 -0.04600
C 	C 	0.88046 0.76696 0.65099 0.00800
C 	C 	0.80829 0.68476 0.67258 0.00600
C 	C 	0.82115 0.52746 0.57761 0.10400
C 	C 	0.91173 0.84820 0.67938 0.10100
C 	C 	0.72811 0.67927 0.70609 0.10100
N 	N 	0.66312 0.67417 0.73251 -0.10000
N 	N 	0.93838 0.91387 0.70165 -0.09000
N 	N 	0.80119 0.46214 0.55640 -0.10000
C 	C 	0.38238 0.20301 0.69020 -0.05400
C 	C 	0.40015 0.07295 0.66703 0.10000
C 	C 	0.35556 0.32656 0.71818 0.09300
N 	N 	0.38191 0.39173 0.74108 -0.10900
N 	N 	0.44903 0.03900 0.66400 -0.10500
