data_crystal

_cell_length_a 31.81616
_cell_length_b 28.52157
_cell_length_c 18.81667
_cell_angle_alpha 92.68236
_cell_angle_beta  85.31887
_cell_angle_gamma 124.34153

_symmetry_space_group_name_	'P 1'
_symmetry_space_group_name_H-M	'P 1'

loop_
_symmetry_equiv_pos_as_xyz
  x,y,z

loop_
_atom_site_label
_atom_site_type_symbol
_atom_site_fract_x
_atom_site_fract_y
_atom_site_fract_z
_atom_site_charge
C 	C 	0.92275 0.84449 0.15699 -0.00700
C 	C 	0.92922 0.92890 0.20403 -0.07000
C 	C 	0.90608 0.87024 0.20603 -0.02700
C 	C 	0.93271 0.09346 0.04109 0.01000
C 	C 	0.93164 0.04626 0.01341 -0.05100
C 	C 	0.15725 0.11454 0.13172 -0.00700
C 	C 	0.12974 0.10688 0.07275 -0.02600
C 	C 	0.07667 0.07758 0.08021 -0.07100
C 	C 	0.05044 0.05568 0.14720 0.07400
C 	C 	0.07814 0.06386 0.20616 -0.06900
C 	C 	0.13129 0.09310 0.19853 -0.02700
C 	C 	0.86644 0.16906 0.94759 0.02700
C 	C 	0.83828 0.10992 0.95573 -0.05100
C 	C 	0.86049 0.08475 0.98355 -0.01300
C 	C 	0.91145 0.11847 0.00177 -0.02700
C 	C 	0.94084 0.17702 0.98755 -0.01300
C 	C 	0.91831 0.20224 0.96097 -0.05200
C 	C 	0.84995 0.66577 0.13056 0.01300
C 	C 	0.82208 0.68977 0.12549 -0.04000
C 	C 	0.84511 0.74780 0.13755 -0.04300
C 	C 	0.89603 0.78218 0.15559 0.00800
C 	C 	0.92265 0.75736 0.16596 -0.04200
C 	C 	0.89966 0.69930 0.15341 -0.04100
C 	C 	0.31847 0.19617 0.09576 0.01500
C 	C 	0.28734 0.13919 0.11735 -0.04100
C 	C 	0.23482 0.11290 0.13087 -0.04200
C 	C 	0.21306 0.14343 0.12285 0.00900
C 	C 	0.24437 0.20072 0.10238 -0.04200
C 	C 	0.29691 0.22701 0.08899 -0.04400
H 	H 	0.01564 0.96137 0.06286 0.04200
H 	H 	0.91521 0.94814 0.24083 0.04800
H 	H 	0.87484 0.84475 0.24513 0.03500
H 	H 	0.91603 0.02843 0.96240 0.04900
H 	H 	0.14945 0.12284 0.02084 0.03200
H 	H 	0.05593 0.07050 0.03370 0.04500
H 	H 	0.05835 0.04702 0.25770 0.04600
H 	H 	0.15225 0.09884 0.24441 0.03400
H 	H 	0.79841 0.08386 0.94432 0.04600
H 	H 	0.83754 0.03946 0.99359 0.03700
H 	H 	0.94050 0.24787 0.95404 0.04500
H 	H 	0.78339 0.66395 0.10888 0.04000
H 	H 	0.82403 0.76641 0.13031 0.03800
H 	H 	0.92121 0.68094 0.15837 0.03800
H 	H 	0.30378 0.11518 0.12299 0.04100
H 	H 	0.21092 0.06861 0.14638 0.03800
H 	H 	0.22792 0.22465 0.09615 0.03700
H 	H 	0.32076 0.27108 0.07253 0.03700
C 	C 	0.89373 0.81171 0.41149 -0.00500
C 	C 	0.90354 0.88941 0.48413 -0.07000
C 	C 	0.87448 0.83224 0.46461 -0.02500
C 	C 	0.94196 0.08669 0.38646 -0.00600
C 	C 	0.94993 0.05130 0.34175 -0.02500
C 	C 	0.13405 0.05231 0.52694 -0.00700
C 	C 	0.12518 0.06213 0.45906 -0.02400
C 	C 	0.07534 0.03887 0.44073 -0.07300
C 	C 	0.03390 0.00563 0.49039 0.08000
C 	C 	0.04286 0.99458 0.55731 -0.07500
C 	C 	0.09266 0.01788 0.57562 -0.02200
C 	C 	0.85597 0.15424 0.35151 0.01100
C 	C 	0.83400 0.09596 0.34183 -0.04400
C 	C 	0.86340 0.07411 0.34708 -0.04100
C 	C 	0.91502 0.11053 0.36148 0.00900
C 	C 	0.93817 0.16946 0.36302 -0.04300
C 	C 	0.90874 0.19128 0.35745 -0.04300
C 	C 	0.80954 0.63142 0.38807 0.01500
C 	C 	0.81356 0.66483 0.33208 -0.04100
C 	C 	0.84222 0.72404 0.33878 -0.04000
C 	C 	0.86754 0.75004 0.40103 0.01000
C 	C 	0.86452 0.71656 0.45604 -0.04100
C 	C 	0.83506 0.65755 0.45003 -0.03900
C 	C 	0.28793 0.13368 0.58400 0.01100
C 	C 	0.26894 0.09215 0.53029 -0.04300
C 	C 	0.21847 0.06495 0.51238 -0.04100
C 	C 	0.18666 0.07931 0.54775 0.01000
C 	C 	0.20539 0.12017 0.60230 -0.04200
C 	C 	0.25591 0.14742 0.62012 -0.04300
H 	H 	0.00672 0.93572 0.36628 0.04300
H 	H 	0.88896 0.90459 0.52652 0.05000
H 	H 	0.83774 0.80342 0.49251 0.03600
H 	H 	0.94022 0.04512 0.28680 0.03700
H 	H 	0.15692 0.08837 0.42092 0.03400
H 	H 	0.06894 0.04680 0.38835 0.04600
H 	H 	0.01114 0.96876 0.59561 0.04900
H 	H 	0.09914 0.00963 0.62788 0.03400
H 	H 	0.79353 0.06728 0.33486 0.04100
H 	H 	0.84539 0.02862 0.34436 0.04000
H 	H 	0.92634 0.23661 0.36214 0.03800
H 	H 	0.79361 0.64494 0.28426 0.04100
H 	H 	0.84342 0.74946 0.29678 0.04100
H 	H 	0.88386 0.73629 0.50435 0.04000
H 	H 	0.83112 0.63201 0.49419 0.04100
H 	H 	0.29362 0.08178 0.50155 0.04200
H 	H 	0.20425 0.03322 0.47051 0.03900
H 	H 	0.18108 0.13152 0.62990 0.03900
H 	H 	0.27047 0.17999 0.66096 0.03800
Co	Co	0.72806 0.33571 0.96490 1.18600
O 	O 	0.78689 0.33302 0.91091 -0.37700
Co	Co	0.62940 0.34673 0.00207 1.18000
O 	O 	0.66868 0.32256 0.91135 -0.43600
O 	O 	0.69008 0.41856 0.03700 -0.41500
O 	O 	0.71777 0.25595 0.94050 -0.34100
C 	C 	0.73902 0.43963 0.02048 0.32700
O 	O 	0.64208 0.37503 0.89436 -0.33700
C 	C 	0.53362 0.29527 0.03859 0.28200
C 	C 	0.68030 0.31361 0.09507 0.28100
O 	O 	0.56949 0.34407 0.06141 -0.36400
O 	O 	0.55141 0.27519 0.99165 -0.32700
O 	O 	0.72595 0.32645 0.07813 -0.35600
O 	O 	0.65480 0.30206 0.03965 -0.45700
O 	O 	0.75384 0.41765 0.96859 -0.52100
C 	C 	0.76314 0.27840 0.91084 0.30700
C 	C 	0.66910 0.35654 0.86746 0.26900
H 	H 	0.78614 0.44383 0.93780 0.16900
Co	Co	0.68737 0.29063 0.43683 1.18600
O 	O 	0.73460 0.27896 0.36555 -0.37000
Co	Co	0.58793 0.29269 0.50276 1.18600
O 	O 	0.61131 0.24542 0.42204 -0.44600
O 	O 	0.64563 0.37300 0.48196 -0.40900
O 	O 	0.69274 0.21977 0.44945 -0.34700
C 	C 	0.68303 0.39083 0.43108 0.34300
O 	O 	0.56343 0.27197 0.39648 -0.35600
C 	C 	0.50429 0.24790 0.58300 0.29900
C 	C 	0.67999 0.31886 0.57282 0.27800
O 	O 	0.53811 0.30141 0.57258 -0.35800
O 	O 	0.51899 0.21878 0.54865 -0.34300
O 	O 	0.72101 0.33150 0.53488 -0.34900
O 	O 	0.63902 0.28103 0.54238 -0.44600
O 	O 	0.69081 0.35539 0.39402 -0.53300
C 	C 	0.72391 0.23287 0.39384 0.30300
C 	C 	0.58924 0.25154 0.37188 0.28600
H 	H 	0.70668 0.36583 0.34345 0.17700
C 	C 	0.67407 0.34981 0.79034 0.03900
N 	N 	0.64166 0.34990 0.74785 -0.05700
N 	N 	0.64398 0.34050 0.67814 -0.07100
C 	C 	0.67952 0.33205 0.64868 0.03300
N 	N 	0.71266 0.33300 0.69087 -0.05900
N 	N 	0.70965 0.34123 0.76097 -0.07200
C 	C 	0.60907 0.25995 0.29758 0.01500
N 	N 	0.58908 0.27450 0.24912 -0.06600
N 	N 	0.61151 0.29070 0.18389 -0.07500
C 	C 	0.65505 0.29373 0.16569 0.02500
N 	N 	0.67453 0.27790 0.21348 -0.06200
N 	N 	0.65149 0.26066 0.27843 -0.08000
C 	C 	0.77610 0.56901 0.38418 0.00300
C 	C 	0.79733 0.53702 0.37695 0.03300
C 	C 	0.76639 0.47852 0.39127 -0.01500
C 	C 	0.71422 0.45164 0.41107 -0.12700
C 	C 	0.69199 0.48262 0.41019 0.11100
C 	C 	0.72328 0.54144 0.39776 -0.09500
H 	H 	0.78306 0.45416 0.38744 0.03000
H 	H 	0.70662 0.56582 0.40039 0.05400
N 	N 	0.84979 0.56360 0.35100 -0.13500
N 	N 	0.63746 0.45402 0.42005 -0.14100
C 	C 	0.88096 0.56684 0.40657 -0.09200
H 	H 	0.87649 0.58744 0.45544 0.05200
H 	H 	0.92174 0.59288 0.38689 0.04800
H 	H 	0.87070 0.52387 0.41995 0.04700
C 	C 	0.61445 0.43707 0.35128 -0.09200
H 	H 	0.63046 0.47455 0.31608 0.04500
H 	H 	0.57267 0.41652 0.36004 0.04700
H 	H 	0.62070 0.40568 0.32458 0.05600
H 	H 	0.85218 0.54145 0.30665 0.07100
H 	H 	0.62795 0.47981 0.44786 0.08000
C 	C 	0.82306 0.17544 0.36323 -0.00300
C 	C 	0.80010 0.17349 0.43182 0.04100
C 	C 	0.76728 0.19160 0.44075 -0.01700
C 	C 	0.75777 0.21283 0.38284 -0.10000
C 	C 	0.78087 0.21517 0.31468 0.10000
C 	C 	0.81310 0.19600 0.30521 -0.08800
H 	H 	0.74979 0.18996 0.49331 0.05600
H 	H 	0.83003 0.19674 0.25252 0.05000
N 	N 	0.80981 0.15316 0.49300 -0.13700
N 	N 	0.76941 0.23435 0.25432 -0.13500
C 	C 	0.85330 0.19961 0.52940 -0.09100
H 	H 	0.88871 0.22017 0.49371 0.04800
H 	H 	0.85931 0.18257 0.57655 0.04700
H 	H 	0.84569 0.23179 0.54849 0.05100
C 	C 	0.81260 0.29090 0.23153 -0.08900
H 	H 	0.82321 0.32183 0.27607 0.06200
H 	H 	0.80161 0.30548 0.18726 0.05800
H 	H 	0.84615 0.29010 0.21211 0.04200
H 	H 	0.81416 0.11993 0.48082 0.08000
H 	H 	0.75932 0.20542 0.21223 0.07800
C 	C 	0.34289 0.16778 0.59561 -0.00300
C 	C 	0.36435 0.14593 0.63482 0.04200
C 	C 	0.41750 0.17480 0.63406 -0.01600
C 	C 	0.44954 0.22491 0.59455 -0.09700
C 	C 	0.42807 0.24799 0.55810 0.10100
C 	C 	0.37490 0.21997 0.56059 -0.08700
H 	H 	0.43385 0.15727 0.66269 0.05100
H 	H 	0.35848 0.23729 0.53166 0.05100
N 	N 	0.33255 0.09453 0.67592 -0.13600
N 	N 	0.46030 0.29845 0.51551 -0.13800
C 	C 	0.31743 0.10631 0.74638 -0.09100
H 	H 	0.35169 0.13624 0.77614 0.05100
H 	H 	0.29382 0.06619 0.77725 0.05000
H 	H 	0.29456 0.12431 0.74197 0.04700
C 	C 	0.45963 0.28418 0.43967 -0.09500
H 	H 	0.46926 0.25242 0.43014 0.06100
H 	H 	0.48861 0.32304 0.40901 0.04900
H 	H 	0.42162 0.26729 0.41965 0.04500
H 	H 	0.30076 0.06321 0.64931 0.08000
H 	H 	0.44883 0.32628 0.52450 0.07900
C 	C 	0.77675 0.49672 0.04824 -0.11800
C 	C 	0.78039 0.50617 0.12245 0.10400
C 	C 	0.80748 0.56209 0.14905 -0.09300
C 	C 	0.82976 0.60822 0.10227 0.00300
C 	C 	0.82905 0.59889 0.02816 0.03100
C 	C 	0.80237 0.54319 0.00150 -0.02900
H 	H 	0.80972 0.56943 0.20608 0.05400
H 	H 	0.79951 0.53621 0.94447 0.04300
N 	N 	0.75741 0.45879 0.17064 -0.14300
N 	N 	0.85428 0.64636 0.97990 -0.12900
C 	C 	0.71227 0.45060 0.21058 -0.09500
H 	H 	0.72294 0.48707 0.24682 0.04900
H 	H 	0.69363 0.41157 0.24335 0.05500
H 	H 	0.68419 0.44515 0.17385 0.06300
C 	C 	0.90438 0.65942 0.95389 -0.09100
H 	H 	0.92856 0.66938 0.99918 0.05500
H 	H 	0.92380 0.69732 0.91882 0.05000
H 	H 	0.90058 0.62332 0.92253 0.04800
H 	H 	0.78396 0.46497 0.20583 0.07500
H 	H 	0.83194 0.63813 0.93712 0.07900
C 	C 	0.83981 0.19679 0.93771 -0.00200
C 	C 	0.81795 0.20922 0.99728 0.04700
C 	C 	0.79410 0.23727 0.98786 -0.00400
C 	C 	0.79080 0.25181 0.91934 -0.10300
C 	C 	0.81257 0.23937 0.85963 0.10100
C 	C 	0.83707 0.21182 0.86914 -0.08600
H 	H 	0.77782 0.24740 0.03396 0.03300
H 	H 	0.85381 0.20212 0.82324 0.05100
N 	N 	0.82071 0.19391 0.06774 -0.14100
N 	N 	0.80878 0.25362 0.78913 -0.14100
C 	C 	0.77195 0.14296 0.09278 -0.09300
H 	H 	0.74134 0.15080 0.09794 0.05000
H 	H 	0.77579 0.13085 0.14589 0.04700
H 	H 	0.76088 0.10684 0.05576 0.05000
C 	C 	0.85659 0.30555 0.76383 -0.09100
H 	H 	0.86649 0.34143 0.80083 0.06200
H 	H 	0.85196 0.31685 0.71071 0.05400
H 	H 	0.88824 0.29937 0.75845 0.04500
H 	H 	0.83125 0.22759 0.10325 0.07100
H 	H 	0.79934 0.22010 0.75377 0.08000
C 	C 	0.47871 0.27152 0.05255 -0.08900
C 	C 	0.46037 0.28290 0.11744 0.09700
C 	C 	0.40797 0.25934 0.13003 -0.08700
C 	C 	0.37363 0.22337 0.07962 -0.00100
C 	C 	0.39181 0.21259 0.01452 0.03600
C 	C 	0.44425 0.23648 0.00141 -0.03800
H 	H 	0.39395 0.26835 0.17964 0.05000
H 	H 	0.45809 0.22806 0.95118 0.06200
N 	N 	0.49510 0.31838 0.17069 -0.13500
N 	N 	0.35681 0.17774 0.96126 -0.13100
C 	C 	0.49030 0.28445 0.23069 -0.09300
H 	H 	0.45273 0.26579 0.26100 0.04600
H 	H 	0.52072 0.31215 0.26737 0.06000
H 	H 	0.49486 0.24995 0.21168 0.06800
C 	C 	0.35636 0.21305 0.90777 -0.09200
H 	H 	0.34778 0.24293 0.93345 0.05600
H 	H 	0.32598 0.18540 0.87106 0.04700
H 	H 	0.39360 0.23727 0.87604 0.05100
H 	H 	0.48852 0.34916 0.18857 0.07700
H 	H 	0.36628 0.15082 0.93693 0.07900
C 	C 	0.95362 0.11654 0.10684 -0.03400
C 	C 	0.95125 0.02233 0.05113 -0.05900
H 	H 	0.95118 0.98683 0.02819 0.04200
C 	C 	0.94098 0.84955 0.37491 -0.02600
C 	C 	0.96259 0.87785 0.10575 -0.02800
H 	H 	0.95417 0.15260 0.12911 0.03700
C 	C 	0.96985 0.96261 0.15398 0.07300
H 	H 	0.97493 0.85817 0.06662 0.03400
H 	H 	0.96164 0.78338 0.18136 0.03800
C 	C 	0.95192 0.92676 0.45051 0.07800
C 	C 	0.95419 0.09384 0.45787 -0.02400
C 	C 	0.96789 0.02144 0.36902 -0.07000
H 	H 	0.95576 0.83422 0.33296 0.03700
H 	H 	0.94841 0.12131 0.49277 0.03400
H 	H 	0.97475 0.99510 0.33384 0.04800
C 	C 	0.97414 0.09342 0.14386 -0.06400
C 	C 	0.97264 0.04585 0.11696 0.07200
C 	C 	0.97008 0.90694 0.39427 -0.06600
H 	H 	0.97829 0.19804 0.37231 0.03800
C 	C 	0.98581 0.93648 0.10377 -0.06600
H 	H 	0.98057 0.20327 0.99966 0.03600
C 	C 	0.97073 0.06275 0.48557 -0.07000
C 	C 	0.97546 0.02448 0.44220 0.08100
H 	H 	0.97750 0.06625 0.54165 0.05100
N 	N 	0.99534 0.02365 0.15569 -0.13900
N 	N 	0.98252 0.98480 0.47481 -0.14400
H 	H 	0.99191 0.11293 0.19315 0.04900
