data_crystal

_cell_length_a 42.94061
_cell_length_b 43.31443
_cell_length_c 29.10349
_cell_angle_alpha 89.54515
_cell_angle_beta  89.99976
_cell_angle_gamma 89.99993

_symmetry_space_group_name_	'P 1'
_symmetry_space_group_name_H-M	'P 1'

loop_
_symmetry_equiv_pos_as_xyz
  x,y,z

loop_
_atom_site_label
_atom_site_type_symbol
_atom_site_fract_x
_atom_site_fract_y
_atom_site_fract_z
_atom_site_charge
C 	C 	0.47786 0.55519 0.91735 0.10300
N 	N 	0.46508 0.52699 0.92250 -0.17300
C 	C 	0.43701 0.52815 0.90197 0.10300
C 	C 	0.41206 0.50559 0.91233 -0.07000
C 	C 	0.41893 0.47215 0.91220 0.09200
C 	C 	0.37995 0.51624 0.92135 0.03800
C 	C 	0.37361 0.53468 0.95964 -0.03800
C 	C 	0.34288 0.54249 0.97041 -0.05900
C 	C 	0.31829 0.53178 0.94306 0.01900
C 	C 	0.35546 0.50644 0.89313 -0.04400
N 	N 	0.44447 0.46019 0.89215 -0.12300
C 	C 	0.40503 0.45094 0.94144 -0.05600
C 	C 	0.44635 0.43089 0.90794 0.09300
C 	C 	0.47476 0.41187 0.90327 -0.07200
C 	C 	0.47294 0.37804 0.91002 0.04600
C 	C 	0.44898 0.32889 0.89187 -0.01600
C 	C 	0.49055 0.36362 0.94465 -0.05400
C 	C 	0.48718 0.33198 0.95316 -0.02200
C 	C 	0.46620 0.31451 0.92699 0.00300
N 	N 	0.51568 0.45151 0.91357 -0.17300
C 	C 	0.54648 0.45277 0.90507 0.10600
C 	C 	0.55536 0.42873 0.87681 -0.05800
C 	C 	0.52865 0.41198 0.86802 -0.05600
C 	C 	0.56817 0.47187 0.93249 -0.07800
C 	C 	0.60136 0.46320 0.93706 0.05000
C 	C 	0.65596 0.47620 0.92775 -0.01200
C 	C 	0.66452 0.44819 0.94881 -0.00800
C 	C 	0.64124 0.42748 0.96342 -0.01900
C 	C 	0.60979 0.43520 0.95822 -0.05800
N 	N 	0.53848 0.52069 0.92471 -0.12700
C 	C 	0.54439 0.53935 0.99628 -0.08100
C 	C 	0.53065 0.54345 0.95374 0.09800
C 	C 	0.50528 0.56549 0.94414 -0.07400
C 	C 	0.50995 0.59857 0.95460 0.03800
C 	C 	0.53715 0.61363 0.93995 -0.04400
C 	C 	0.54180 0.64477 0.94990 -0.02800
C 	C 	0.51908 0.66136 0.97406 0.02400
C 	C 	0.49178 0.64628 0.98871 -0.06800
C 	C 	0.48748 0.61489 0.97964 -0.03700
C 	C 	0.45802 0.57455 0.89308 -0.05700
C 	C 	0.43181 0.55727 0.88334 -0.05600
C 	C 	0.32477 0.51424 0.90385 -0.03000
C 	C 	0.42264 0.42447 0.93874 -0.05700
C 	C 	0.50474 0.42668 0.89121 0.10500
C 	C 	0.56202 0.51287 0.99307 -0.08300
C 	C 	0.55796 0.50236 0.94878 0.10000
C 	C 	0.62458 0.48355 0.92164 -0.05500
H 	H 	0.47110 0.51129 0.94849 0.09400
H 	H 	0.50494 0.46135 0.94218 0.09400
H 	H 	0.56299 0.65606 0.93857 0.06000
H 	H 	0.47373 0.65893 0.00649 0.08100
H 	H 	0.55464 0.60125 0.92060 0.05700
H 	H 	0.46653 0.60339 0.99147 0.04300
H 	H 	0.33814 0.55626 0.00053 0.08900
H 	H 	0.36020 0.49247 0.86321 0.05900
H 	H 	0.30600 0.50642 0.88195 0.05800
H 	H 	0.39242 0.54241 0.98154 0.04500
H 	H 	0.50038 0.32118 0.98063 0.05000
H 	H 	0.50640 0.37702 0.96550 0.05100
C 	C 	0.45240 0.36049 0.88334 -0.05200
H 	H 	0.43283 0.31560 0.87137 0.05900
H 	H 	0.67363 0.49239 0.91637 0.05500
H 	H 	0.61830 0.50517 0.90511 0.06000
H 	H 	0.59201 0.41939 0.97041 0.05100
H 	H 	0.64749 0.40542 0.97859 0.04500
H 	H 	0.45874 0.59952 0.89342 0.05900
H 	H 	0.40910 0.56693 0.87582 0.06000
H 	H 	0.39036 0.45684 0.97033 0.05500
H 	H 	0.42365 0.40685 0.96530 0.05700
H 	H 	0.57879 0.41980 0.87360 0.06000
H 	H 	0.52842 0.38802 0.85773 0.06000
H 	H 	0.53566 0.54880 0.02810 0.08400
H 	H 	0.56910 0.49867 0.02200 0.08400
H 	H 	0.43884 0.37142 0.85636 0.06100
Co	Co	0.39463 0.08747 0.97436 1.18400
Co	Co	0.40889 0.01620 0.97944 1.13200
O 	O 	0.38439 0.13320 0.97813 -0.34600
O 	O 	0.43340 0.12548 0.97600 -0.22900
O 	O 	0.35406 0.06616 0.97111 -0.38200
O 	O 	0.39359 0.02889 0.91776 -0.39300
C 	C 	0.34701 0.04299 0.99878 0.24400
C 	C 	0.41154 0.14571 0.97912 0.30200
O 	O 	0.36903 0.02498 0.01548 -0.37600
O 	O 	0.40960 0.07887 0.91303 -0.39400
C 	C 	0.40694 0.05139 0.89470 0.32000
O 	O 	0.40475 0.07801 0.03741 -0.35800
O 	O 	0.43898 0.04176 0.01403 -0.38300
C 	C 	0.42890 0.06045 0.04601 0.31900
S 	S 	0.47242 0.01495 0.52320 0.04000
C 	C 	0.47406 0.00092 0.57825 -0.01600
C 	C 	0.49698 0.97789 0.58320 -0.01300
S 	S 	0.51580 0.97112 0.53241 0.04300
C 	C 	0.49862 0.99430 0.49325 -0.01000
C 	C 	0.51496 0.00636 0.45267 -0.00400
S 	S 	0.53830 0.98402 0.42046 0.03300
C 	C 	0.53496 0.99744 0.36523 -0.01100
C 	C 	0.51361 0.02216 0.36223 -0.00900
S 	S 	0.49797 0.03063 0.41479 0.03100
C 	C 	0.56058 0.94971 0.24327 0.03400
C 	C 	0.52970 0.94862 0.25891 0.00800
C 	C 	0.52152 0.96299 0.29996 -0.01800
C 	C 	0.54417 0.97863 0.32556 0.03600
C 	C 	0.57548 0.97743 0.31198 -0.02400
C 	C 	0.58374 0.96256 0.27126 0.00100
H 	H 	0.51189 0.93748 0.23854 0.10400
H 	H 	0.49744 0.96283 0.31110 0.07500
H 	H 	0.59325 0.98867 0.33229 0.06700
H 	H 	0.60793 0.96190 0.26075 0.08800
C 	C 	0.47530 0.04579 0.23111 0.03000
C 	C 	0.50704 0.05070 0.23982 0.01000
C 	C 	0.51933 0.04434 0.28335 -0.01600
C 	C 	0.49992 0.03322 0.31857 0.03500
C 	C 	0.46779 0.03032 0.31065 -0.02800
C 	C 	0.45548 0.03700 0.26722 0.00100
H 	H 	0.52231 0.05856 0.21251 0.11000
H 	H 	0.54407 0.04714 0.28930 0.08100
H 	H 	0.45254 0.02189 0.33761 0.06400
H 	H 	0.43073 0.03438 0.26124 0.08200
C 	C 	0.43813 0.03548 0.70362 0.03200
C 	C 	0.41958 0.01653 0.67596 -0.00400
C 	C 	0.43023 0.00739 0.63279 -0.03400
C 	C 	0.45969 0.01673 0.61732 0.03600
C 	C 	0.47742 0.03717 0.64376 -0.03200
C 	C 	0.46679 0.04634 0.68692 -0.00400
H 	H 	0.39752 0.00788 0.68872 0.07800
H 	H 	0.41640 0.99160 0.61256 0.06400
H 	H 	0.50022 0.04450 0.63202 0.06200
H 	H 	0.48135 0.06084 0.70816 0.08100
C 	C 	0.53037 0.95116 0.71610 0.02800
C 	C 	0.54989 0.96739 0.68574 -0.00100
C 	C 	0.53932 0.97536 0.64178 -0.03100
C 	C 	0.50905 0.96739 0.62806 0.03800
C 	C 	0.48943 0.95151 0.65869 -0.03000
C 	C 	0.49992 0.94376 0.70273 -0.00100
H 	H 	0.57326 0.97367 0.69613 0.07500
H 	H 	0.55441 0.98822 0.61875 0.06300
H 	H 	0.46592 0.94556 0.64857 0.06300
H 	H 	0.48448 0.93184 0.72637 0.08200
Co	Co	0.59649 0.89216 0.97488 1.18100
Co	Co	0.52397 0.89674 0.98381 1.12300
O 	O 	0.64330 0.88856 0.96612 -0.35300
O 	O 	0.63085 0.93175 0.99565 -0.27100
O 	O 	0.57937 0.85246 0.95372 -0.39400
O 	O 	0.54670 0.92055 0.03123 -0.39600
C 	C 	0.55736 0.83786 0.97665 0.27900
C 	C 	0.65323 0.91470 0.98077 0.29600
O 	O 	0.53785 0.85333 0.00251 -0.33200
O 	O 	0.58762 0.88814 0.03957 -0.35400
C 	C 	0.56715 0.90675 0.05784 0.32000
O 	O 	0.58475 0.91750 0.92274 -0.38000
O 	O 	0.53645 0.89575 0.91826 -0.42200
C 	C 	0.55812 0.91391 0.90119 0.32800
Co	Co	0.09369 0.61182 0.97626 1.18500
Co	Co	0.02264 0.59933 0.96711 1.10600
O 	O 	0.13956 0.62080 0.98732 -0.34100
O 	O 	0.13015 0.57256 0.98906 -0.23300
O 	O 	0.07411 0.65230 0.96447 -0.37200
O 	O 	0.03985 0.61248 0.90656 -0.39700
C 	C 	0.04869 0.66093 0.98611 0.28000
C 	C 	0.15109 0.59364 0.99332 0.30400
O 	O 	0.02851 0.64023 0.00072 -0.36900
O 	O 	0.08943 0.59443 0.91562 -0.39800
C 	C 	0.06534 0.60045 0.88929 0.32100
O 	O 	0.07865 0.60464 0.03774 -0.36200
O 	O 	0.04379 0.57045 0.01012 -0.40900
C 	C 	0.05974 0.58139 0.04481 0.32500
S 	S 	0.00195 0.54899 0.53008 0.02500
C 	C 	0.00541 0.52989 0.58157 -0.01000
C 	C 	0.98571 0.50375 0.58374 -0.01000
S 	S 	0.96457 0.49972 0.53425 0.03000
C 	C 	0.97484 0.52958 0.50023 -0.00400
C 	C 	0.97337 0.52895 0.44977 -0.00600
S 	S 	0.95439 0.50171 0.41992 0.04200
C 	C 	0.97300 0.49962 0.36805 -0.01400
C 	C 	0.99827 0.52041 0.36533 -0.01000
S 	S 	0.00241 0.54089 0.41514 0.02500
C 	C 	0.93842 0.46411 0.24190 0.03900
C 	C 	0.92929 0.49353 0.25653 0.01900
C 	C 	0.93906 0.50449 0.29918 -0.02100
C 	C 	0.95816 0.48616 0.32738 0.04000
C 	C 	0.96617 0.45625 0.31365 -0.03000
C 	C 	0.95660 0.44537 0.27084 -0.00100
H 	H 	0.91552 0.50827 0.23418 0.10700
H 	H 	0.93291 0.52769 0.30946 0.07500
H 	H 	0.98099 0.44200 0.33522 0.06400
H 	H 	0.96395 0.42271 0.25965 0.07800
C 	C 	0.02991 0.54663 0.23154 0.02800
C 	C 	0.03479 0.51645 0.24782 -0.00800
C 	C 	0.02641 0.50844 0.29274 -0.03100
C 	C 	0.01236 0.53032 0.32138 0.03400
C 	C 	0.00882 0.56088 0.30577 -0.03000
C 	C 	0.01805 0.56911 0.26125 -0.00100
H 	H 	0.04447 0.49908 0.22536 0.07700
H 	H 	0.02984 0.48495 0.30477 0.05900
H 	H 	0.99804 0.57800 0.32754 0.06400
H 	H 	0.01519 0.59272 0.24944 0.08200
C 	C 	0.04529 0.56840 0.70278 0.03500
C 	C 	0.01285 0.56742 0.69749 -0.00100
C 	C 	0.99984 0.55638 0.65688 -0.02100
C 	C 	0.01912 0.54459 0.62228 0.03700
C 	C 	0.05155 0.54724 0.62636 -0.02100
C 	C 	0.06461 0.55980 0.66612 0.00200
H 	H 	0.99774 0.57496 0.72503 0.07600
H 	H 	0.97482 0.55675 0.65246 0.05700
H 	H 	0.06661 0.53930 0.59903 0.06800
H 	H 	0.08965 0.56195 0.66899 0.09200
C 	C 	0.96155 0.46347 0.71347 0.02800
C 	C 	0.98781 0.45285 0.68957 0.00900
C 	C 	0.99574 0.46599 0.64706 -0.01900
C 	C 	0.97652 0.48856 0.62709 0.03700
C 	C 	0.94897 0.49734 0.64930 -0.03400
C 	C 	0.94183 0.48533 0.69271 -0.00800
H 	H 	0.00228 0.43480 0.70419 0.09600
H 	H 	0.01677 0.45866 0.62973 0.07500
H 	H 	0.93370 0.51436 0.63369 0.05700
H 	H 	0.92117 0.49322 0.71045 0.06300
Co	Co	0.89873 0.40086 0.97463 1.18600
Co	Co	0.90475 0.47381 0.96842 1.12600
O 	O 	0.89043 0.35478 0.97357 -0.34300
O 	O 	0.93902 0.36444 0.96918 -0.26300
O 	O 	0.85710 0.41947 0.98282 -0.39200
O 	O 	0.89418 0.45938 0.03147 -0.39200
C 	C 	0.84593 0.44013 0.95383 0.31700
C 	C 	0.91787 0.34330 0.96950 0.29000
O 	O 	0.86407 0.46186 0.93690 -0.39500
O 	O 	0.91662 0.41170 0.03338 -0.36500
C 	C 	0.91093 0.43838 0.05282 0.32200
O 	O 	0.90460 0.40971 0.91024 -0.34800
O 	O 	0.93417 0.45085 0.92921 -0.42900
C 	C 	0.92357 0.43193 0.89784 0.30500
C 	C 	0.97641 0.94087 0.10597 0.10600
N 	N 	0.96670 0.96836 0.08944 -0.17200
C 	C 	0.93635 0.97082 0.10055 0.10700
C 	C 	0.91512 0.99305 0.07757 -0.07700
C 	C 	0.92548 0.02503 0.06848 0.10000
C 	C 	0.88239 0.98459 0.06862 0.05700
C 	C 	0.87454 0.96827 0.02888 -0.07100
C 	C 	0.84332 0.96194 0.01898 0.02500
C 	C 	0.81972 0.97181 0.04890 -0.01100
C 	C 	0.85894 0.99391 0.09901 -0.05800
N 	N 	0.94966 0.03815 0.09050 -0.12300
C 	C 	0.91664 0.04231 0.03051 -0.07100
C 	C 	0.95574 0.06431 0.06680 0.08100
C 	C 	0.98402 0.08306 0.07413 -0.06800
C 	C 	0.98310 0.11656 0.06407 0.05600
C 	C 	0.95889 0.16657 0.07493 -0.00600
C 	C 	0.00215 0.12922 0.02959 -0.07000
C 	C 	0.99924 0.16039 0.01733 0.02200
C 	C 	0.97728 0.17910 0.03957 -0.01200
N 	N 	0.02207 0.04054 0.08582 -0.17200
C 	C 	0.05158 0.03874 0.10128 0.10600
C 	C 	0.06027 0.06623 0.12169 -0.05800
C 	C 	0.03479 0.08560 0.11847 -0.05600
C 	C 	0.07390 0.01528 0.08462 -0.07500
C 	C 	0.10638 0.02408 0.07412 0.05500
C 	C 	0.16140 0.02212 0.09284 -0.00700
C 	C 	0.16844 0.03831 0.05216 -0.01300
C 	C 	0.14418 0.04754 0.02265 0.01900
C 	C 	0.11326 0.04065 0.03382 -0.07000
N 	N 	0.03852 0.97133 0.10214 -0.12500
C 	C 	0.05685 0.93665 0.05153 -0.05500
C 	C 	0.03422 0.94315 0.08384 0.09400
C 	C 	0.00498 0.92545 0.08918 -0.07300
C 	C 	0.00511 0.89181 0.08135 0.04600
C 	C 	0.02018 0.87204 0.11258 -0.05200
C 	C 	0.02149 0.84033 0.10422 -0.02000
C 	C 	0.00789 0.82820 0.06440 0.00300
C 	C 	0.99259 0.84797 0.03336 -0.01600
C 	C 	0.99103 0.87966 0.04197 -0.05300
C 	C 	0.95215 0.92560 0.12783 -0.05700
C 	C 	0.92652 0.94475 0.12434 -0.05800
C 	C 	0.82776 0.98732 0.08944 -0.01200
C 	C 	0.93610 0.06757 0.02945 -0.01600
C 	C 	0.01178 0.06903 0.09619 0.10300
C 	C 	0.07629 0.96192 0.05032 -0.05500
C 	C 	0.06451 0.98250 0.08198 0.09400
C 	C 	0.13051 0.01498 0.10369 -0.06000
H 	H 	0.97717 0.98002 0.06190 0.09800
H 	H 	0.01314 0.02710 0.05922 0.09700
H 	H 	0.03351 0.82527 0.12825 0.05300
H 	H 	0.98206 0.83881 0.00250 0.05900
H 	H 	0.03106 0.88127 0.14311 0.05900
H 	H 	0.97931 0.89480 0.01774 0.05700
H 	H 	0.83744 0.94979 0.98775 0.02400
H 	H 	0.86489 0.00633 0.12997 0.06200
H 	H 	0.80987 0.99431 0.11344 0.05200
H 	H 	0.89257 0.96093 0.00533 0.06300
H 	H 	0.01344 0.16978 0.98979 0.01800
H 	H 	0.01868 0.11477 0.01163 0.06200
C 	C 	0.96181 0.13546 0.08715 -0.05700
H 	H 	0.94201 0.18085 0.09248 0.05900
H 	H 	0.17987 0.01496 0.11594 0.05600
H 	H 	0.12534 0.00224 0.13496 0.06100
H 	H 	0.09472 0.04768 0.01076 0.06100
H 	H 	0.14931 0.05955 0.99075 0.01700
H 	H 	0.95089 0.90088 0.13325 0.05900
H 	H 	0.90262 0.93695 0.12668 0.06000
H 	H 	0.90444 0.03328 0.00097 0.06600
H 	H 	0.94122 0.08114 0.99897 0.02600
H 	H 	0.08405 0.07404 0.12587 0.05900
H 	H 	0.03603 0.11053 0.11996 0.05900
H 	H 	0.05416 0.92045 0.02367 0.06100
H 	H 	0.09087 0.96820 0.02137 0.06100
H 	H 	0.94718 0.12591 0.11405 0.06300
C 	C 	0.93634 0.24970 0.99988 0.08700
C 	C 	0.96058 0.27148 0.99934 0.08400
N 	N 	0.95432 0.30147 0.98882 -0.07800
C 	C 	0.92468 0.31058 0.97892 -0.00600
C 	C 	0.90058 0.28860 0.97872 0.04900
N 	N 	0.90690 0.25864 0.98931 -0.10200
N 	N 	0.94235 0.21999 0.01204 -0.09300
N 	N 	0.98998 0.26254 0.01048 -0.07300
H 	H 	0.87696 0.29536 0.97038 0.06300
C 	C 	0.97172 0.21099 0.02359 0.06800
C 	C 	0.99605 0.23271 0.02257 0.01300
H 	H 	0.01947 0.22600 0.03211 0.05800
C 	C 	0.92722 0.43405 0.76655 0.00000
C 	C 	0.95432 0.45160 0.76014 0.08400
C 	C 	0.97256 0.45991 0.79867 -0.13900
C 	C 	0.96410 0.44879 0.84236 0.07000
C 	C 	0.93508 0.43463 0.84970 -0.01400
C 	C 	0.91626 0.42693 0.81104 -0.07500
C 	C 	0.88477 0.41123 0.81654 0.77600
H 	H 	0.91398 0.42709 0.73669 0.09100
H 	H 	0.97943 0.45260 0.87135 0.09000
C 	C 	0.00151 0.47982 0.79345 0.79400
F 	F 	0.86946 0.40846 0.77490 -0.43700
F 	F 	0.86582 0.42831 0.84510 -0.45500
F 	F 	0.88877 0.38184 0.83451 -0.42900
F 	F 	0.99575 0.50481 0.76477 -0.44100
F 	F 	0.02538 0.46223 0.77557 -0.40500
F 	F 	0.01116 0.49137 0.83533 -0.43300
C 	C 	0.95463 0.46081 0.16043 0.01800
C 	C 	0.93221 0.45454 0.19423 0.09400
C 	C 	0.90355 0.44074 0.18194 -0.13400
C 	C 	0.89715 0.43537 0.13527 0.08200
C 	C 	0.91909 0.44283 0.10132 -0.01400
C 	C 	0.94820 0.45555 0.11380 -0.06500
C 	C 	0.97196 0.46432 0.07730 0.77600
H 	H 	0.97688 0.47038 0.17059 0.11400
H 	H 	0.87491 0.42577 0.12512 0.08400
C 	C 	0.87949 0.43260 0.21833 0.79200
F 	F 	0.99899 0.47611 0.09630 -0.41800
F 	F 	0.95951 0.48654 0.04827 -0.46400
F 	F 	0.97977 0.43856 0.05197 -0.43000
F 	F 	0.86773 0.45935 0.23726 -0.43500
F 	F 	0.89302 0.41484 0.25264 -0.43700
F 	F 	0.85493 0.41594 0.20022 -0.42800
C 	C 	0.01926 0.73333 0.03741 0.09700
C 	C 	0.03261 0.75575 0.00834 0.13000
N 	N 	0.02816 0.78618 0.01708 -0.10700
C 	C 	0.01110 0.79517 0.05406 0.05700
C 	C 	0.99760 0.77274 0.08295 0.01000
N 	N 	0.00191 0.74225 0.07400 -0.09200
N 	N 	0.02439 0.70290 0.02936 -0.06700
N 	N 	0.05048 0.74686 0.97232 -0.11500
H 	H 	0.98390 0.77956 0.11241 0.05400
C 	C 	0.04265 0.69393 0.99360 -0.02800
C 	C 	0.05580 0.71642 0.96436 0.05400
H 	H 	0.06999 0.70970 0.93536 0.08600
C 	C 	0.07325 0.56376 0.82556 0.07500
C 	C 	0.06709 0.59399 0.83974 -0.01600
C 	C 	0.06109 0.61726 0.80650 -0.07100
C 	C 	0.05575 0.60866 0.76072 0.00700
C 	C 	0.05877 0.57778 0.74724 0.08300
C 	C 	0.06964 0.55539 0.77926 -0.11600
C 	C 	0.08042 0.52375 0.76350 0.79300
H 	H 	0.08009 0.54661 0.85092 0.09300
H 	H 	0.04799 0.62576 0.73584 0.08700
C 	C 	0.05910 0.65103 0.81978 0.77400
F 	F 	0.08581 0.50406 0.80035 -0.39900
F 	F 	0.10787 0.52690 0.73908 -0.43800
F 	F 	0.05834 0.51003 0.73580 -0.40100
F 	F 	0.08164 0.65818 0.85198 -0.44100
F 	F 	0.02998 0.65711 0.83785 -0.44300
F 	F 	0.06373 0.67008 0.78197 -0.43500
C 	C 	0.02121 0.56936 0.10585 0.09100
C 	C 	0.05249 0.57095 0.09209 -0.01500
C 	C 	0.07630 0.56245 0.12347 -0.06000
C 	C 	0.06841 0.55629 0.16953 0.00500
C 	C 	0.03715 0.55458 0.18321 0.08900
C 	C 	0.01318 0.55949 0.15044 -0.13200
C 	C 	0.97906 0.55596 0.16329 0.79600
H 	H 	0.00310 0.57592 0.08174 0.06100
H 	H 	0.08655 0.55226 0.19476 0.09200
C 	C 	0.10982 0.55889 0.10782 0.77200
F 	F 	0.96062 0.55280 0.12458 -0.43100
F 	F 	0.96932 0.58178 0.18691 -0.45200
F 	F 	0.97449 0.53005 0.19047 -0.46200
F 	F 	0.12279 0.58765 0.09983 -0.43100
F 	F 	0.11097 0.54168 0.06805 -0.41500
F 	F 	0.12770 0.54378 0.14060 -0.42500
C 	C 	0.74757 0.93142 0.01284 0.13000
C 	C 	0.72523 0.95493 0.01691 0.10200
N 	N 	0.69498 0.94904 0.00656 -0.05500
C 	C 	0.68611 0.92058 0.99191 -0.03100
C 	C 	0.70858 0.89716 0.98742 0.05300
N 	N 	0.73883 0.90304 0.99814 -0.12000
N 	N 	0.77780 0.93725 0.02343 -0.10800
N 	N 	0.73406 0.98346 0.03082 -0.08300
H 	H 	0.70200 0.87441 0.97572 0.05700
C 	C 	0.78670 0.96578 0.03782 0.06600
C 	C 	0.76436 0.98942 0.04110 0.01100
H 	H 	0.77114 0.01244 0.05137 0.06000
C 	C 	0.53972 0.96420 0.79780 0.01300
C 	C 	0.54158 0.94250 0.76241 0.08700
C 	C 	0.55242 0.91225 0.77198 -0.13700
C 	C 	0.55819 0.90348 0.81781 0.08200
C 	C 	0.55514 0.92483 0.85344 -0.02000
C 	C 	0.54693 0.95578 0.84339 -0.05800
C 	C 	0.54555 0.97965 0.88129 0.78000
H 	H 	0.53195 0.98743 0.78983 0.09900
H 	H 	0.56451 0.87985 0.82603 0.07500
C 	C 	0.55651 0.88892 0.73375 0.79200
F 	F 	0.53764 0.00862 0.86455 -0.40500
F 	F 	0.57435 0.98184 0.90230 -0.42800
F 	F 	0.52358 0.97099 0.91368 -0.43100
F 	F 	0.57339 0.90178 0.69793 -0.44000
F 	F 	0.52763 0.87987 0.71773 -0.44100
F 	F 	0.57233 0.86290 0.74885 -0.43400
C 	C 	0.56658 0.90678 0.18816 0.00800
C 	C 	0.56818 0.93857 0.19668 0.09000
C 	C 	0.57297 0.95956 0.15965 -0.11800
C 	C 	0.57508 0.94809 0.11471 0.07800
C 	C 	0.57067 0.91665 0.10588 -0.00600
C 	C 	0.56694 0.89555 0.14292 -0.06900
C 	C 	0.56292 0.86121 0.13429 0.77500
H 	H 	0.56370 0.89097 0.21688 0.09300
H 	H 	0.57937 0.96375 0.08617 0.10100
C 	C 	0.57741 0.99390 0.16801 0.79100
F 	F 	0.55738 0.84490 0.17458 -0.42800
F 	F 	0.58966 0.84952 0.11449 -0.42300
F 	F 	0.53795 0.85639 0.10522 -0.43800
F 	F 	0.60599 0.99879 0.18855 -0.44300
F 	F 	0.55416 0.00514 0.19609 -0.43100
F 	F 	0.57652 0.01074 0.12739 -0.41500
C 	C 	0.26248 0.05527 0.01710 0.10300
C 	C 	0.25297 0.02604 0.03294 0.10500
N 	N 	0.22262 0.02102 0.04370 -0.10800
C 	C 	0.20126 0.04413 0.03949 0.06400
C 	C 	0.21091 0.07350 0.02421 0.00900
N 	N 	0.24130 0.07842 0.01312 -0.09000
N 	N 	0.29284 0.06026 0.00624 -0.08100
N 	N 	0.27422 0.00303 0.03763 -0.09900
H 	H 	0.19440 0.09233 0.02167 0.05600
C 	C 	0.31425 0.03724 0.01102 0.01900
C 	C 	0.30467 0.00803 0.02709 0.04200
H 	H 	0.32127 0.98935 0.03069 0.05700
C 	C 	0.44143 0.01895 0.78503 0.00800
C 	C 	0.42993 0.03994 0.75234 0.08200
C 	C 	0.41095 0.06486 0.76626 -0.13400
C 	C 	0.40339 0.06790 0.81306 0.07900
C 	C 	0.41510 0.04704 0.84591 -0.01500
C 	C 	0.43506 0.02274 0.83201 -0.07200
C 	C 	0.44902 0.00037 0.86687 0.77300
H 	H 	0.45555 0.99972 0.77367 0.08000
H 	H 	0.38823 0.08642 0.82410 0.08100
C 	C 	0.39850 0.08794 0.73124 0.79100
F 	F 	0.47233 0.98264 0.84752 -0.42800
F 	F 	0.42613 0.98068 0.88309 -0.48000
F 	F 	0.46191 0.01629 0.90326 -0.45500
F 	F 	0.37929 0.07302 0.70041 -0.44000
F 	F 	0.42299 0.10143 0.70761 -0.43700
F 	F 	0.38152 0.11124 0.75177 -0.43300
C 	C 	0.46010 0.07899 0.16492 0.00400
C 	C 	0.46304 0.04927 0.18386 0.09400
C 	C 	0.45569 0.02314 0.15690 -0.13100
C 	C 	0.44294 0.02759 0.11288 0.08300
C 	C 	0.44085 0.05723 0.09340 -0.01300
C 	C 	0.45085 0.08318 0.11891 -0.05900
C 	C 	0.45260 0.11506 0.09697 0.77200
H 	H 	0.46578 0.09879 0.18585 0.09500
H 	H 	0.43489 0.00793 0.09338 0.05800
C 	C 	0.46100 0.99057 0.17502 0.79100
F 	F 	0.46853 0.13566 0.12450 -0.42200
F 	F 	0.42289 0.12642 0.08988 -0.43000
F 	F 	0.46817 0.11352 0.05546 -0.41200
F 	F 	0.43915 0.98364 0.20841 -0.45300
F 	F 	0.49050 0.98799 0.19357 -0.43300
F 	F 	0.45853 0.96894 0.14045 -0.44000
C 	C 	0.45155 0.21988 0.95525 0.10800
C 	C 	0.42643 0.24064 0.95415 0.10600
N 	N 	0.43166 0.27102 0.94532 -0.10800
C 	C 	0.46109 0.28160 0.93770 0.05700
C 	C 	0.48621 0.26080 0.93886 0.01200
N 	N 	0.48093 0.23035 0.94765 -0.08600
N 	N 	0.44627 0.18943 0.96349 -0.06800
N 	N 	0.39705 0.23016 0.96159 -0.10000
H 	H 	0.50970 0.26878 0.93230 0.05500
C 	C 	0.41680 0.17880 0.97063 0.00500
C 	C 	0.39171 0.19968 0.96992 0.05200
H 	H 	0.36816 0.19170 0.97592 0.06200
C 	C 	0.22456 0.55063 0.97608 0.10700
C 	C 	0.24631 0.57472 0.97206 0.10400
N 	N 	0.27649 0.56820 0.96210 -0.10800
C 	C 	0.28581 0.53846 0.95587 0.04900
C 	C 	0.26413 0.51436 0.96094 0.01400
N 	N 	0.23392 0.52094 0.97079 -0.08700
N 	N 	0.19414 0.55722 0.98393 -0.06900
N 	N 	0.23684 0.60443 0.97689 -0.10100
H 	H 	0.27130 0.49056 0.95687 0.05400
C 	C 	0.18444 0.58701 0.98784 0.00300
C 	C 	0.20636 0.61107 0.98488 0.05100
H 	H 	0.19914 0.63488 0.98842 0.06200
C 	C 	0.74952 0.44473 0.92731 0.11300
C 	C 	0.76065 0.43254 0.96906 0.07700
N 	N 	0.79181 0.43058 0.97653 -0.08000
C 	C 	0.81236 0.44091 0.94424 -0.01200
C 	C 	0.80116 0.45304 0.90247 0.05900
N 	N 	0.76997 0.45455 0.89478 -0.10000
N 	N 	0.71844 0.44819 0.92076 -0.11300
N 	N 	0.74021 0.42435 0.00260 -0.05500
H 	H 	0.81715 0.46136 0.87643 0.08700
C 	C 	0.69785 0.44052 0.95458 0.07500
C 	C 	0.70905 0.42827 0.99636 -0.04800
H 	H 	0.69316 0.42283 0.02414 0.08800
C 	C 	0.54107 0.74320 0.95412 0.11100
C 	C 	0.53381 0.75657 0.99659 0.06300
N 	N 	0.53940 0.78707 0.00335 -0.03800
C 	C 	0.55249 0.80467 0.96951 -0.02700
C 	C 	0.56005 0.79113 0.92720 0.05400
N 	N 	0.55407 0.76070 0.92033 -0.10300
N 	N 	0.53548 0.71275 0.94733 -0.10600
N 	N 	0.52163 0.73882 0.03082 -0.07200
H 	H 	0.57008 0.80487 0.89970 0.06200
C 	C 	0.52326 0.69483 0.98150 0.02100
C 	C 	0.51643 0.70817 0.02429 0.04700
H 	H 	0.50758 0.69414 0.05233 0.05400
