data_crystal

_cell_length_a 20.40428
_cell_length_b 21.39461
_cell_length_c 31.38644
_cell_angle_alpha 60.82375
_cell_angle_beta  118.85602
_cell_angle_gamma 133.26720

_symmetry_space_group_name_	'P 1'
_symmetry_space_group_name_H-M	'P 1'

loop_
_symmetry_equiv_pos_as_xyz
  x,y,z

loop_
_atom_site_label
_atom_site_type_symbol
_atom_site_fract_x
_atom_site_fract_y
_atom_site_fract_z
_atom_site_charge
O 	O 	0.05341 0.92371 0.08060 -0.74800
Co	Co	0.04076 0.02806 0.53587 1.17600
O 	O 	0.04721 0.94142 0.56873 -0.74400
C 	C 	0.01228 0.01188 0.75767 0.25700
C 	C 	0.03952 0.04544 0.36849 -0.08000
C 	C 	0.04431 0.05084 0.32310 0.15000
H 	H 	0.04109 0.21751 0.21842 0.07100
O 	O 	0.06260 0.66477 0.20114 -0.27400
H 	H 	0.06219 0.64999 0.23631 0.16000
C 	C 	0.04729 0.19939 0.14181 0.31200
O 	O 	0.01601 0.11311 0.52466 -0.46300
Co	Co	0.02013 0.86451 0.13628 1.18000
C 	C 	0.00998 0.95389 0.96027 0.32800
O 	O 	0.02455 0.01299 0.97503 -0.37200
O 	O 	0.00299 0.98112 0.22984 -0.38700
O 	O 	0.02282 0.75941 0.09226 -0.40100
Co	Co	0.02180 0.88005 0.62644 1.18200
O 	O 	0.00406 0.07462 0.72348 -0.38300
O 	O 	0.01676 0.96349 0.74477 -0.35000
O 	O 	0.04698 0.79251 0.58221 -0.40900
C 	C 	0.00761 0.99064 0.81019 -0.03800
C 	C 	0.01508 0.97432 0.90817 -0.12000
C 	C 	0.06623 0.97149 0.85256 -0.08000
H 	H 	0.09515 0.72250 0.68423 0.07300
Co	Co	0.07043 0.02237 0.05101 1.17300
C 	C 	0.06969 0.96257 0.90127 0.18900
O 	O 	0.07408 0.12388 0.04513 -0.46500
O 	O 	0.07963 0.17071 0.13309 -0.38600
C 	C 	0.03632 0.22070 0.62146 0.32000
H 	H 	0.09292 0.87956 0.95201 0.14000
H 	H 	0.08916 0.10340 0.38354 0.06800
H 	H 	0.06918 0.59615 0.65514 0.15300
O 	O 	0.06410 0.19243 0.60874 -0.39000
C 	C 	0.09121 0.27987 0.19771 -0.04500
Co	Co	0.10390 0.89097 0.05602 1.17300
Co	Co	0.10878 0.92366 0.54188 1.17300
H 	H 	0.11040 0.96482 0.84799 0.08000
O 	O 	0.10838 0.13044 0.29759 -0.28400
O 	O 	0.11002 0.60620 0.68883 -0.26600
C 	C 	0.11079 0.28067 0.16005 -0.10500
O 	O 	0.11267 0.35634 0.24449 -0.27500
O 	O 	0.08813 0.37580 0.54038 -0.29000
O 	O 	0.13423 0.85712 0.18099 -0.36700
O 	O 	0.12857 0.94501 0.94181 -0.28800
C 	C 	0.09836 0.31060 0.62917 -0.11600
H 	H 	0.10613 0.26239 0.70878 0.06100
C 	C 	0.13218 0.35923 0.20714 0.14400
H 	H 	0.12837 0.58403 0.21381 0.07900
C 	C 	0.11078 0.38297 0.58741 0.18200
H 	H 	0.14447 0.36918 0.06284 0.15000
C 	C 	0.11814 0.31845 0.67656 -0.04400
H 	H 	0.10948 0.38281 0.73211 0.15200
O 	O 	0.14755 0.89405 0.66730 -0.37400
C 	C 	0.15212 0.70590 0.20233 0.17700
C 	C 	0.14244 0.46159 0.59335 -0.09000
C 	C 	0.14778 0.39618 0.68225 0.14100
H 	H 	0.14569 0.39618 0.53600 0.15600
O 	O 	0.00002 0.88088 0.99250 -0.38300
H 	H 	0.15894 0.35247 0.27540 0.15500
O 	O 	0.99403 0.89119 0.48322 -0.38300
O 	O 	0.98707 0.00657 0.46216 -0.38100
Co	Co	0.99456 0.08135 0.08813 1.17600
O 	O 	0.95881 0.16551 0.12646 -0.40700
C 	C 	0.96057 0.98743 0.24802 0.31700
Co	Co	0.96845 0.07716 0.58274 1.18000
O 	O 	0.95077 0.17078 0.62484 -0.40700
C 	C 	0.18162 0.85550 0.16386 0.31000
O 	O 	0.20496 0.90857 0.12109 -0.39300
O 	O 	0.19286 0.02117 0.02158 -0.41200
O 	O 	0.21212 0.08804 0.06900 -0.39300
C 	C 	0.20003 0.90360 0.64788 0.31800
O 	O 	0.21625 0.95759 0.60389 -0.37200
O 	O 	0.17687 0.05409 0.50090 -0.42200
O 	O 	0.18209 0.11661 0.54485 -0.40300
H 	H 	0.16396 0.13133 0.31069 0.14900
O 	O 	0.16766 0.40229 0.72909 -0.26800
C 	C 	0.22878 0.84372 0.67122 -0.11400
C 	C 	0.16162 0.75116 0.68049 -0.04000
C 	C 	0.17728 0.69587 0.68091 0.14200
C 	C 	0.21568 0.79895 0.19414 -0.10900
C 	C 	0.17888 0.65505 0.20903 -0.08700
C 	C 	0.74295 0.29022 0.03938 0.13700
N 	N 	0.79819 0.36983 0.05065 -0.12900
C 	C 	0.76711 0.38531 0.07182 0.13900
N 	N 	0.68213 0.32208 0.08143 -0.14100
C 	C 	0.62396 0.24697 0.06600 0.13800
N 	N 	0.65457 0.23008 0.04563 -0.13800
C 	C 	0.70615 0.27826 0.53966 0.14300
N 	N 	0.77712 0.35419 0.55603 -0.13300
C 	C 	0.75804 0.39452 0.56654 0.14500
N 	N 	0.66939 0.35815 0.56183 -0.13900
C 	C 	0.59916 0.28516 0.54398 0.14800
N 	N 	0.61722 0.24576 0.53230 -0.14200
C 	C 	0.29703 0.64237 0.21302 0.13400
N 	N 	0.23246 0.56609 0.19659 -0.13300
C 	C 	0.25930 0.52081 0.19860 0.14000
N 	N 	0.34926 0.55173 0.21647 -0.13000
C 	C 	0.41426 0.62844 0.23107 0.13900
N 	N 	0.38767 0.67248 0.23063 -0.13000
C 	C 	0.28267 0.67761 0.67356 0.14200
N 	N 	0.37238 0.70998 0.68321 -0.13900
C 	C 	0.39326 0.66977 0.67457 0.15100
N 	N 	0.32492 0.59554 0.65776 -0.13800
C 	C 	0.23531 0.55909 0.65068 0.14400
N 	N 	0.21323 0.60050 0.65791 -0.13300
Co	Co	0.93611 0.92179 0.17006 1.18400
C 	C 	0.24706 0.08248 0.04602 0.31900
Co	Co	0.85405 0.03064 0.14069 1.17000
C 	C 	0.93825 0.71822 0.09387 0.33200
O 	O 	0.79410 0.04258 0.06541 -0.38700
O 	O 	0.92212 0.00179 0.12804 -0.76500
C 	C 	0.84369 0.11277 0.03379 0.32300
O 	O 	0.97759 0.84390 0.19238 -0.45500
C 	C 	0.75278 0.83928 0.18537 0.31000
O 	O 	0.97551 0.95577 0.10081 -0.56200
O 	O 	0.91565 0.12747 0.03017 -0.38000
O 	O 	0.74329 0.90050 0.15049 -0.36600
O 	O 	0.80215 0.82265 0.18248 -0.37900
O 	O 	0.91036 0.01811 0.21805 -0.39700
O 	O 	0.92102 0.74550 0.11469 -0.37500
Co	Co	0.94926 0.92904 0.67367 1.18800
C 	C 	0.22271 0.11841 0.52166 0.33300
Co	Co	0.88666 0.04046 0.66644 1.17000
C 	C 	0.96221 0.73934 0.58788 0.32500
O 	O 	0.77802 0.00567 0.60494 -0.38200
O 	O 	0.93732 0.01249 0.63879 -0.76000
C 	C 	0.79276 0.06018 0.56067 0.31200
O 	O 	0.97950 0.84737 0.68605 -0.45200
C 	C 	0.77183 0.84413 0.69359 0.32900
O 	O 	0.96912 0.96228 0.59800 -0.56800
C 	C 	0.98463 0.95344 0.44906 0.31600
O 	O 	0.85014 0.07666 0.54130 -0.37400
O 	O 	0.81962 0.91287 0.71087 -0.38200
O 	O 	0.81115 0.83567 0.67554 -0.37900
O 	O 	0.93530 0.76071 0.60655 -0.38000
C 	C 	0.95652 0.99332 0.86589 0.01500
C 	C 	0.95215 0.00123 0.81733 0.10700
H 	H 	0.91247 0.00011 0.87048 0.03800
O 	O 	0.89136 0.01651 0.77709 -0.29500
H 	H 	0.92472 0.08168 0.76704 0.13700
C 	C 	0.97364 0.96490 0.39522 -0.07700
C 	C 	0.98194 0.97558 0.30326 -0.07800
C 	C 	0.91917 0.89444 0.33121 -0.06400
C 	C 	0.91290 0.88930 0.37588 0.16100
H 	H 	0.87028 0.83613 0.31652 0.05900
O 	O 	0.84838 0.80954 0.40113 -0.27600
H 	H 	0.79210 0.80787 0.38694 0.15000
C 	C 	0.16448 0.47001 0.64106 -0.04200
H 	H 	0.15517 0.51793 0.56125 0.07100
C 	C 	0.67255 0.78021 0.69132 -0.11800
C 	C 	0.64180 0.75051 0.73333 -0.03800
C 	C 	0.55110 0.71646 0.72788 0.14500
C 	C 	0.48959 0.70917 0.68044 -0.04200
C 	C 	0.51817 0.73236 0.63922 -0.08400
C 	C 	0.60912 0.76722 0.64456 0.19000
H 	H 	0.68995 0.75882 0.76969 0.07000
O 	O 	0.52213 0.68849 0.76914 -0.26800
H 	H 	0.47018 0.72473 0.60278 0.07500
O 	O 	0.63785 0.79529 0.60319 -0.27600
H 	H 	0.62710 0.74336 0.60195 0.15400
H 	H 	0.53635 0.74144 0.77153 0.15700
C 	C 	0.26276 0.73299 0.67436 -0.03700
C 	C 	0.33293 0.82443 0.67063 -0.09100
C 	C 	0.31687 0.87885 0.67018 0.18300
H 	H 	0.39982 0.85417 0.66686 0.07800
O 	O 	0.38553 0.96810 0.66453 -0.27500
H 	H 	0.41926 0.97626 0.69916 0.15900
C 	C 	0.19306 0.44112 0.17860 -0.03800
C 	C 	0.21077 0.44212 0.14001 -0.08200
C 	C 	0.17072 0.36266 0.13099 0.18300
H 	H 	0.25907 0.50470 0.11840 0.07800
O 	O 	0.19072 0.36559 0.09385 -0.27800
C 	C 	0.68853 0.77586 0.21913 -0.11400
C 	C 	0.62782 0.68567 0.22019 -0.03800
C 	C 	0.54175 0.63244 0.23145 0.13900
C 	C 	0.51433 0.67113 0.23917 -0.03400
C 	C 	0.58168 0.75676 0.24689 -0.09100
C 	C 	0.66898 0.80863 0.23775 0.18200
H 	H 	0.64426 0.65808 0.20895 0.06900
O 	O 	0.48386 0.54381 0.23337 -0.26700
H 	H 	0.56498 0.78530 0.25711 0.08500
O 	O 	0.73045 0.89523 0.24051 -0.29300
H 	H 	0.76298 0.89352 0.27638 0.15500
H 	H 	0.49923 0.51475 0.26894 0.15400
C 	C 	0.30859 0.83827 0.19934 -0.04300
C 	C 	0.33534 0.78853 0.20488 0.13800
C 	C 	0.26993 0.69603 0.20890 -0.03600
H 	H 	0.35889 0.90937 0.19442 0.06400
O 	O 	0.42489 0.83122 0.20500 -0.27100
H 	H 	0.42525 0.84986 0.16927 0.15300
C 	C 	0.72439 0.22475 0.53554 -0.04300
C 	C 	0.65551 0.13305 0.54010 -0.08500
C 	C 	0.67312 0.07986 0.54061 0.16000
C 	C 	0.76113 0.11710 0.53820 -0.11000
C 	C 	0.82609 0.20981 0.52745 -0.04500
C 	C 	0.80901 0.26366 0.52711 0.14500
H 	H 	0.58901 0.10217 0.54496 0.06900
O 	O 	0.60637 0.99012 0.54754 -0.26100
H 	H 	0.89245 0.23977 0.52286 0.07600
O 	O 	0.87391 0.35382 0.51734 -0.26800
H 	H 	0.91781 0.36616 0.55018 0.15500
H 	H 	0.57130 0.98039 0.51327 0.15600
C 	C 	0.90406 0.64896 0.58225 -0.11600
C 	C 	0.89089 0.63850 0.53730 -0.04300
C 	C 	0.85669 0.55707 0.53431 0.14300
C 	C 	0.83045 0.48343 0.57567 -0.04300
C 	C 	0.84785 0.49485 0.62139 -0.08900
C 	C 	0.88316 0.57671 0.62462 0.18400
H 	H 	0.90967 0.69451 0.50489 0.06900
O 	O 	0.84170 0.54773 0.48956 -0.26700
H 	H 	0.82850 0.43865 0.65365 0.07200
O 	O 	0.90052 0.58673 0.66971 -0.28500
H 	H 	0.84246 0.57128 0.67001 0.15800
H 	H 	0.89943 0.56062 0.49090 0.15500
C 	C 	0.50387 0.24882 0.53770 -0.04300
C 	C 	0.47312 0.21867 0.57973 -0.08800
C 	C 	0.38305 0.18639 0.57412 0.19100
C 	C 	0.32260 0.18261 0.52623 -0.12800
C 	C 	0.35655 0.22089 0.48385 -0.03900
C 	C 	0.44626 0.25230 0.48949 0.14000
H 	H 	0.51860 0.21884 0.61687 0.07300
O 	O 	0.35187 0.15181 0.61585 -0.28300
H 	H 	0.31104 0.22040 0.44670 0.05800
O 	O 	0.47812 0.28793 0.44783 -0.27100
H 	H 	0.46125 0.23736 0.44087 0.14900
H 	H 	0.36515 0.20206 0.62101 0.15100
C 	C 	0.83095 0.18390 0.01124 -0.13800
C 	C 	0.89871 0.26145 0.02866 -0.03900
C 	C 	0.87231 0.30056 0.03624 0.13800
C 	C 	0.77819 0.26793 0.02065 -0.05200
C 	C 	0.71474 0.20351 0.99267 -0.07600
C 	C 	0.74084 0.16148 0.98801 0.20000
H 	H 	0.97052 0.28560 0.04153 0.06100
O 	O 	0.93796 0.36856 0.05986 -0.27300
H 	H 	0.64367 0.18204 0.97718 0.08200
O 	O 	0.67551 0.09208 0.96552 -0.28000
H 	H 	0.67894 0.11901 0.92982 0.15500
H 	H 	0.94259 0.33956 0.09627 0.15400
C 	C 	0.86983 0.62900 0.08554 -0.11900
C 	C 	0.85157 0.62000 0.03886 -0.03700
C 	C 	0.82847 0.54395 0.03517 0.12400
C 	C 	0.81839 0.47371 0.07793 -0.03300
C 	C 	0.83092 0.48065 0.12396 -0.09000
C 	C 	0.85225 0.55607 0.12726 0.19600
H 	H 	0.86281 0.67515 0.00611 0.05300
O 	O 	0.81124 0.53664 0.98923 -0.25700
H 	H 	0.81958 0.42551 0.15673 0.07600
O 	O 	0.86189 0.56058 0.17225 -0.27600
H 	H 	0.79974 0.53763 0.17172 0.15600
H 	H 	0.87179 0.56125 0.98627 0.15800
C 	C 	0.52482 0.19528 0.06156 -0.04100
C 	C 	0.49507 0.16602 0.10391 -0.09100
C 	C 	0.40715 0.13879 0.09869 0.18400
C 	C 	0.34705 0.13850 0.05088 -0.11200
C 	C 	0.37808 0.17051 0.00848 -0.06000
C 	C 	0.46569 0.19751 0.01368 0.13300
H 	H 	0.54160 0.16755 0.14078 0.07000
O 	O 	0.38099 0.11444 0.14021 -0.28300
H 	H 	0.33222 0.17045 0.97147 0.08400
O 	O 	0.49387 0.22697 0.97175 -0.26100
H 	H 	0.52372 0.29158 0.96068 0.16000
H 	H 	0.35701 0.05130 0.15524 0.15200
