data_crystal

_cell_length_a 18.47262
_cell_length_b 18.88165
_cell_length_c 36.81766
_cell_angle_alpha 95.42364
_cell_angle_beta  95.42869
_cell_angle_gamma 126.55573

_symmetry_space_group_name_	'P 1'
_symmetry_space_group_name_H-M	'P 1'

loop_
_symmetry_equiv_pos_as_xyz
  x,y,z

loop_
_atom_site_label
_atom_site_type_symbol
_atom_site_fract_x
_atom_site_fract_y
_atom_site_fract_z
_atom_site_charge
C 	C 	0.89892 0.98603 0.96256 0.11300
N 	N 	0.85267 0.89616 0.96191 -0.13800
C 	C 	0.89999 0.86163 0.96361 0.11100
N 	N 	0.99237 0.91686 0.96657 -0.14000
C 	C 	0.03829 0.00604 0.96787 0.11300
N 	N 	0.99151 0.04035 0.96569 -0.14100
C 	C 	0.95250 0.04173 0.50176 0.10800
N 	N 	0.04272 0.08663 0.49965 -0.13800
C 	C 	0.07745 0.04062 0.49472 0.11000
N 	N 	0.02181 0.95019 0.49191 -0.13700
C 	C 	0.93188 0.90535 0.49360 0.11300
N 	N 	0.89742 0.95114 0.49863 -0.13800
Cu	Cu	0.75455 0.33609 0.96144 0.92500
Cu	Cu	0.74621 0.27161 0.04158 0.86700
Cu	Cu	0.61311 0.29678 0.00944 0.89700
Cu	Cu	0.58202 0.32599 0.93316 0.89600
C 	C 	0.68751 0.30303 0.88310 0.30700
O 	O 	0.80539 0.46669 0.95925 -0.35600
C 	C 	0.67170 0.32690 0.09093 0.30200
O 	O 	0.61182 0.26196 0.95837 -0.63800
O 	O 	0.74649 0.35435 0.01419 -0.64200
O 	O 	0.81371 0.27473 0.96598 -0.36800
O 	O 	0.71423 0.18213 0.00115 -0.44200
O 	O 	0.64906 0.34154 0.89139 -0.38700
O 	O 	0.48177 0.23173 0.00288 -0.38500
C 	C 	0.42779 0.22487 0.97417 0.29400
C 	C 	0.76235 0.49888 0.97023 0.27700
O 	O 	0.67808 0.44339 0.97559 -0.39600
O 	O 	0.46082 0.27174 0.94755 -0.39500
O 	O 	0.73952 0.29991 0.90903 -0.36500
C 	C 	0.77240 0.19940 0.97908 0.28300
O 	O 	0.61561 0.32033 0.06319 -0.38000
O 	O 	0.74400 0.33197 0.08553 -0.42200
H 	H 	0.57195 0.19634 0.94902 0.16500
H 	H 	0.78670 0.41750 0.02755 0.17500
Cu	Cu	0.62132 0.21061 0.50919 0.92700
Cu	Cu	0.68260 0.21438 0.42842 0.86800
Cu	Cu	0.66345 0.34923 0.46145 0.89700
Cu	Cu	0.64270 0.38484 0.53905 0.89600
C 	C 	0.65971 0.27611 0.58776 0.30800
O 	O 	0.49183 0.16763 0.51248 -0.36000
C 	C 	0.63171 0.29284 0.37998 0.30100
O 	O 	0.70185 0.35013 0.51216 -0.63800
O 	O 	0.60131 0.21828 0.45655 -0.64200
O 	O 	0.67487 0.14549 0.50324 -0.37300
O 	O 	0.77245 0.24105 0.46842 -0.44200
O 	O 	0.62338 0.31675 0.58011 -0.38700
O 	O 	0.73239 0.47771 0.46795 -0.38700
C 	C 	0.73135 0.52985 0.49416 0.29300
C 	C 	0.46119 0.21114 0.50110 0.28100
O 	O 	0.51930 0.29512 0.49745 -0.39900
O 	O 	0.70882 0.50630 0.52639 -0.39400
O 	O 	0.66023 0.22419 0.56134 -0.36300
C 	C 	0.75162 0.18316 0.49033 0.28600
O 	O 	0.63739 0.34675 0.40784 -0.38000
O 	O 	0.62278 0.22004 0.38492 -0.42200
H 	H 	0.76911 0.38675 0.52051 0.16800
H 	H 	0.53649 0.18020 0.44356 0.17400
C 	C 	0.69581 0.25928 0.69689 -0.00400
C 	C 	0.77373 0.33176 0.72207 -0.03400
C 	C 	0.77646 0.33481 0.76035 -0.03400
C 	C 	0.70126 0.26541 0.77362 -0.00400
C 	C 	0.62532 0.19076 0.74844 -0.03400
C 	C 	0.62262 0.18769 0.71016 -0.03400
C 	C 	0.68589 0.26383 0.65801 0.04500
C 	C 	0.67537 0.26882 0.62574 -0.10200
C 	C 	0.69733 0.27595 0.81254 0.04400
C 	C 	0.69321 0.28694 0.84490 -0.10300
H 	H 	0.83070 0.38729 0.71207 0.04000
H 	H 	0.83557 0.39262 0.77962 0.04200
H 	H 	0.56702 0.13669 0.75844 0.04000
H 	H 	0.56221 0.13129 0.69089 0.04200
C 	C 	0.62250 0.33351 0.27318 -0.00600
C 	C 	0.54817 0.26583 0.24532 -0.03500
C 	C 	0.55383 0.27034 0.20786 -0.03600
C 	C 	0.63384 0.34255 0.19808 -0.00600
C 	C 	0.70630 0.41248 0.22594 -0.03500
C 	C 	0.70063 0.40798 0.26340 -0.03600
C 	C 	0.62344 0.32099 0.31123 0.04200
C 	C 	0.62606 0.30900 0.34281 -0.10900
C 	C 	0.64596 0.33945 0.15997 0.04200
C 	C 	0.65716 0.33491 0.12830 -0.10900
H 	H 	0.48743 0.20813 0.25263 0.03900
H 	H 	0.49738 0.21613 0.18651 0.03900
H 	H 	0.76829 0.46868 0.21863 0.03900
H 	H 	0.75832 0.46071 0.28475 0.03800
C 	C 	0.80510 0.76596 0.51234 -0.04500
C 	C 	0.87230 0.80739 0.49026 -0.00200
C 	C 	0.88642 0.75548 0.46670 -0.04500
C 	C 	0.83776 0.66404 0.46683 0.00700
C 	C 	0.77418 0.62343 0.49049 -0.08100
C 	C 	0.75603 0.67432 0.51237 0.00600
H 	H 	0.79293 0.80522 0.53036 0.04700
H 	H 	0.93652 0.78641 0.44883 0.04500
H 	H 	0.85160 0.62546 0.44938 0.03800
H 	H 	0.70537 0.64332 0.52999 0.03400
C 	C 	0.94108 0.16081 0.48603 -0.04800
C 	C 	0.91267 0.08991 0.50503 -0.00200
C 	C 	0.83783 0.05748 0.52319 -0.04600
C 	C 	0.78737 0.09043 0.51979 0.00600
C 	C 	0.81168 0.15674 0.49841 -0.08700
C 	C 	0.89113 0.19427 0.48283 0.00200
H 	H 	0.99934 0.18732 0.47229 0.04500
H 	H 	0.81685 0.00457 0.53892 0.04600
H 	H 	0.72812 0.06266 0.53296 0.04200
H 	H 	0.91258 0.24738 0.46720 0.02900
C 	C 	0.24179 0.17739 0.51150 -0.04800
C 	C 	0.17546 0.08822 0.49284 0.00100
C 	C 	0.20379 0.04162 0.47501 -0.05000
C 	C 	0.29708 0.08192 0.47758 0.00900
C 	C 	0.36309 0.16985 0.49717 -0.08300
C 	C 	0.33514 0.21812 0.51349 0.00900
H 	H 	0.22130 0.21429 0.52538 0.04800
H 	H 	0.15350 0.97358 0.45970 0.04900
H 	H 	0.31798 0.04471 0.46433 0.02700
H 	H 	0.38577 0.28635 0.52858 0.02700
C 	C 	0.87175 0.71929 0.93689 -0.04300
C 	C 	0.85217 0.76447 0.96178 -0.00300
C 	C 	0.80444 0.72249 0.98984 -0.04300
C 	C 	0.77888 0.63751 0.99362 0.00300
C 	C 	0.80057 0.59335 0.96929 -0.07900
C 	C 	0.84666 0.63462 0.94076 0.00300
H 	H 	0.90899 0.75109 0.91520 0.04700
H 	H 	0.79014 0.75697 0.00959 0.04300
H 	H 	0.74224 0.60602 0.01549 0.03300
H 	H 	0.86170 0.60059 0.92116 0.04100
C 	C 	0.87608 0.09261 0.93918 -0.04400
C 	C 	0.84990 0.02581 0.96066 -0.00400
C 	C 	0.79096 0.01062 0.98544 -0.04800
C 	C 	0.76354 0.06540 0.99057 0.00200
C 	C 	0.79486 0.13633 0.97092 -0.08400
C 	C 	0.84908 0.14774 0.94438 0.00400
H 	H 	0.92057 0.10427 0.91953 0.04600
H 	H 	0.77008 0.95945 0.00215 0.04400
H 	H 	0.72027 0.05433 0.01067 0.02500
H 	H 	0.87185 0.20021 0.92825 0.04300
C 	C 	0.28598 0.09843 0.99248 0.00900
C 	C 	0.32875 0.17159 0.97408 -0.08300
C 	C 	0.27616 0.19247 0.95495 0.00800
C 	C 	0.18157 0.13941 0.95348 -0.04700
C 	C 	0.13859 0.06519 0.97125 -0.00100
C 	C 	0.19148 0.04572 0.99118 -0.04800
H 	H 	0.32569 0.08156 0.00732 0.03200
H 	H 	0.30846 0.24957 0.94110 0.03700
H 	H 	0.14151 0.15507 0.93797 0.04700
H 	H 	0.15929 0.98941 0.00550 0.04900
