data_crystal

_cell_length_a 22.44230
_cell_length_b 21.95369
_cell_length_c 14.85979
_cell_angle_alpha 90.00000
_cell_angle_beta  90.00000
_cell_angle_gamma 120.55905

_symmetry_space_group_name_	'P 1'
_symmetry_space_group_name_H-M	'P 1'

loop_
_symmetry_equiv_pos_as_xyz
  x,y,z

loop_
_atom_site_label
_atom_site_type_symbol
_atom_site_fract_x
_atom_site_fract_y
_atom_site_fract_z
_atom_site_charge
C 	C 	0.38438 0.58127 0.87198 0.30100
C 	C 	0.19861 0.60685 0.61621 0.32400
C 	C 	0.38941 0.58599 0.62291 0.30800
C 	C 	0.19283 0.61017 0.87047 0.30300
C 	C 	0.40449 0.79693 0.61622 0.32600
C 	C 	0.41309 0.80173 0.87081 0.28700
Ni	Ni	0.27239 0.56427 0.74482 1.11500
Ni	Ni	0.29162 0.72069 0.74426 1.12200
Ni	Ni	0.42482 0.70480 0.74407 1.12100
O 	O 	0.31632 0.55017 0.86037 -0.37100
O 	O 	0.42877 0.62498 0.81047 -0.37800
O 	O 	0.33716 0.75609 0.62409 -0.38900
O 	O 	0.23735 0.57819 0.62173 -0.37600
O 	O 	0.20296 0.65193 0.67775 -0.37600
O 	O 	0.44137 0.76189 0.85685 -0.38300
O 	O 	0.33997 0.54160 0.67691 -0.37100
O 	O 	0.41062 0.65373 0.62548 -0.38400
O 	O 	0.36968 0.80428 0.81146 -0.37800
O 	O 	0.18909 0.56259 0.81165 -0.36900
O 	O 	0.23471 0.67933 0.85769 -0.37800
O 	O 	0.44658 0.79264 0.67408 -0.38500
O 	O 	0.32857 0.66137 0.76606 -0.72100
H 	H 	0.32881 0.66178 0.83236 0.15900
C 	C 	0.82082 0.42216 0.14518 0.28300
C 	C 	0.59138 0.41044 0.35283 0.31100
C 	C 	0.82057 0.41712 0.34758 0.29400
C 	C 	0.58144 0.40630 0.14921 0.28600
C 	C 	0.59488 0.18528 0.35188 0.29300
C 	C 	0.59737 0.18065 0.14895 0.30100
Ni	Ni	0.71526 0.43948 0.24661 1.11000
Ni	Ni	0.57013 0.28338 0.24736 1.11900
Ni	Ni	0.71870 0.28997 0.24775 1.11700
O 	O 	0.78145 0.45083 0.14270 -0.37400
O 	O 	0.79312 0.35278 0.15607 -0.37300
O 	O 	0.56508 0.22346 0.35174 -0.38400
O 	O 	0.65872 0.44048 0.35531 -0.37600
O 	O 	0.55251 0.34198 0.33872 -0.37500
O 	O 	0.66560 0.22031 0.14923 -0.38200
O 	O 	0.79511 0.45879 0.33535 -0.36900
O 	O 	0.77900 0.34844 0.35137 -0.38000
O 	O 	0.55801 0.20940 0.15575 -0.38000
O 	O 	0.64885 0.45090 0.15810 -0.37100
O 	O 	0.55631 0.33731 0.14728 -0.37900
O 	O 	0.66241 0.21587 0.34152 -0.37800
O 	O 	0.66900 0.33959 0.23435 -0.70300
H 	H 	0.66882 0.33916 0.16782 0.14300
C 	C 	0.02546 0.53754 0.03528 0.02000
C 	C 	0.00754 0.48084 0.09406 -0.05400
C 	C 	0.94121 0.44414 0.13169 0.00900
C 	C 	0.13734 0.58752 0.93378 -0.08900
C 	C 	0.91161 0.52279 0.05481 0.01000
C 	C 	0.97796 0.55953 0.01774 -0.05100
C 	C 	0.08769 0.56578 0.98245 0.03500
C 	C 	0.89216 0.46357 0.11006 -0.07700
H 	H 	0.04419 0.46382 0.10844 0.05100
H 	H 	0.92776 0.40019 0.17673 0.03500
H 	H 	0.87481 0.53918 0.03845 0.04400
H 	H 	0.99154 0.60344 0.97254 0.04600
C 	C 	0.02270 0.51083 0.46470 0.01600
C 	C 	0.00894 0.54701 0.39781 -0.05200
C 	C 	0.94340 0.51566 0.35790 0.01000
C 	C 	0.13895 0.57463 0.55871 -0.09800
C 	C 	0.90594 0.41084 0.44970 0.01300
C 	C 	0.97147 0.44224 0.48931 -0.05600
C 	C 	0.08686 0.54619 0.51403 0.04500
C 	C 	0.89105 0.44799 0.38508 -0.08100
H 	H 	0.04845 0.59990 0.37798 0.05000
H 	H 	0.93314 0.54420 0.30657 0.03400
H 	H 	0.86632 0.35848 0.47103 0.04400
H 	H 	0.98183 0.41389 0.54083 0.05000
C 	C 	0.48617 0.97756 0.46702 0.01300
C 	C 	0.46731 0.02742 0.48963 -0.05300
C 	C 	0.50247 0.09508 0.45188 0.01300
C 	C 	0.43156 0.85787 0.55892 -0.10000
C 	C 	0.57451 0.06275 0.36643 0.01200
C 	C 	0.53932 0.99508 0.40460 -0.05400
C 	C 	0.45593 0.91142 0.51497 0.04600
C 	C 	0.55698 0.11350 0.39094 -0.07900
H 	H 	0.42643 0.01431 0.53810 0.05000
H 	H 	0.48818 0.13350 0.47136 0.04500
H 	H 	0.61541 0.07574 0.31807 0.03400
H 	H 	0.55419 0.95676 0.38676 0.04900
C 	C 	0.50658 0.98205 0.04259 0.01000
C 	C 	0.43457 0.94385 0.03181 -0.04400
C 	C 	0.40320 0.88171 0.98081 0.00300
C 	C 	0.56662 0.11048 0.11288 -0.09500
C 	C 	0.51542 0.89331 0.95610 0.00500
C 	C 	0.54669 0.95552 0.00703 -0.04600
C 	C 	0.53969 0.05166 0.08179 0.04300
C 	C 	0.44376 0.85748 0.93996 -0.07000
H 	H 	0.40313 0.96362 0.06013 0.04800
H 	H 	0.34774 0.85387 0.97025 0.03800
H 	H 	0.54737 0.87506 0.92546 0.04000
H 	H 	0.60235 0.98443 0.01590 0.04800
C 	C 	0.46267 0.49046 0.03627 0.02000
C 	C 	0.51546 0.53047 0.09823 -0.05600
C 	C 	0.55292 0.50220 0.13727 0.01100
C 	C 	0.40965 0.55034 0.93519 -0.09100
C 	C 	0.48296 0.39274 0.05509 0.01100
C 	C 	0.44545 0.42099 0.01656 -0.05000
C 	C 	0.43298 0.52351 0.98363 0.03300
C 	C 	0.53818 0.43388 0.11389 -0.07600
H 	H 	0.52882 0.58412 0.11421 0.04900
H 	H 	0.59401 0.53376 0.18453 0.03300
H 	H 	0.47042 0.33972 0.03700 0.04500
H 	H 	0.40463 0.38971 0.96881 0.04600
C 	C 	0.50171 0.50699 0.48189 0.01600
C 	C 	0.48674 0.49208 0.57340 -0.05500
C 	C 	0.45144 0.51935 0.61978 0.01600
C 	C 	0.56037 0.44593 0.39567 -0.09900
C 	C 	0.44766 0.57868 0.48387 0.01500
C 	C 	0.48281 0.55095 0.43725 -0.05600
C 	C 	0.53392 0.47469 0.43348 0.04200
C 	C 	0.43082 0.56190 0.57497 -0.08700
H 	H 	0.50163 0.45852 0.60836 0.05300
H 	H 	0.43964 0.50704 0.69050 0.04300
H 	H 	0.43221 0.61173 0.44880 0.03900
H 	H 	0.49445 0.56283 0.36643 0.04800
