data_crystal

_cell_length_a 39.59600
_cell_length_b 40.95709
_cell_length_c 22.32074
_cell_angle_alpha 89.82389
_cell_angle_beta  89.99997
_cell_angle_gamma 90.00000

_symmetry_space_group_name_	'P 1'
_symmetry_space_group_name_H-M	'P 1'

loop_
_symmetry_equiv_pos_as_xyz
  x,y,z

loop_
_atom_site_label
_atom_site_type_symbol
_atom_site_fract_x
_atom_site_fract_y
_atom_site_fract_z
_atom_site_charge
C 	C 	0.50045 0.57079 0.96261 0.10500
N 	N 	0.48376 0.55053 0.99974 -0.16900
C 	C 	0.45075 0.55381 0.98692 0.10600
C 	C 	0.42447 0.53157 0.01049 -0.08000
C 	C 	0.43385 0.49796 0.02882 0.08800
C 	C 	0.38924 0.54320 0.01646 0.03200
C 	C 	0.38192 0.57029 0.05257 -0.05400
C 	C 	0.34862 0.58114 0.05860 -0.03600
C 	C 	0.32236 0.56474 0.02916 0.01000
C 	C 	0.36307 0.52746 0.98550 -0.04700
N 	N 	0.46125 0.48247 0.00715 -0.13200
C 	C 	0.41382 0.47701 0.06209 -0.06300
C 	C 	0.45901 0.45161 0.02760 0.09400
C 	C 	0.47901 0.42474 0.00158 -0.09800
C 	C 	0.46218 0.39416 0.98350 0.07100
C 	C 	0.42414 0.36506 0.91729 -0.02700
C 	C 	0.46973 0.36485 0.01322 -0.08700
C 	C 	0.45438 0.33576 0.99527 -0.00000
C 	C 	0.43152 0.33578 0.94728 0.00900
N 	N 	0.53495 0.45082 0.02113 -0.18600
C 	C 	0.56513 0.45084 0.99338 0.11300
C 	C 	0.56559 0.42841 0.94719 -0.06300
C 	C 	0.53399 0.41399 0.94673 -0.06700
C 	C 	0.59136 0.47590 0.00313 -0.08100
C 	C 	0.62734 0.46619 0.00359 0.03400
C 	C 	0.68405 0.47097 0.96313 -0.02500
C 	C 	0.69531 0.44678 0.00303 0.01200
C 	C 	0.67248 0.43234 0.04320 -0.03900
C 	C 	0.63862 0.44196 0.04342 -0.05300
N 	N 	0.55826 0.52550 0.97761 -0.12500
C 	C 	0.58748 0.56304 0.03005 -0.07600
C 	C 	0.56177 0.55766 0.98925 0.10000
C 	C 	0.53530 0.58191 0.97470 -0.08100
C 	C 	0.54364 0.61715 0.97251 0.06000
C 	C 	0.57063 0.62826 0.93717 -0.06400
C 	C 	0.57723 0.66169 0.93232 -0.01900
C 	C 	0.55652 0.68430 0.96190 0.00000
C 	C 	0.53016 0.67314 0.99865 -0.00700
C 	C 	0.52391 0.63970 0.00428 -0.08600
C 	C 	0.47798 0.58671 0.92478 -0.06300
C 	C 	0.44618 0.57537 0.93986 -0.06400
C 	C 	0.32971 0.53803 0.99222 -0.02400
C 	C 	0.42988 0.44717 0.06103 -0.06500
C 	C 	0.51591 0.42839 0.99276 0.11800
C 	C 	0.60064 0.53280 0.04346 -0.05800
C 	C 	0.58183 0.51047 0.01141 0.08100
C 	C 	0.65016 0.48059 0.96332 -0.04600
H 	H 	0.49335 0.54125 0.03998 0.08800
H 	H 	0.52606 0.46899 0.04985 0.09500
H 	H 	0.59795 0.67006 0.90453 0.04500
H 	H 	0.51411 0.69041 0.02183 0.02600
H 	H 	0.58611 0.61106 0.91267 0.05100
H 	H 	0.50335 0.63134 0.03246 0.04800
H 	H 	0.34316 0.60200 0.08672 0.03800
H 	H 	0.36855 0.50687 0.95673 0.04600
H 	H 	0.30959 0.52543 0.96892 0.04300
H 	H 	0.40200 0.58279 0.07618 0.04100
H 	H 	0.46022 0.31323 0.01862 0.03400
H 	H 	0.48743 0.36463 0.05022 0.05300
C 	C 	0.43926 0.39420 0.93558 -0.06700
H 	H 	0.40652 0.36524 0.88015 0.03700
H 	H 	0.70154 0.48233 0.93211 0.04500
H 	H 	0.64162 0.49911 0.93204 0.04800
H 	H 	0.62118 0.43069 0.07464 0.04300
H 	H 	0.68099 0.41364 0.07416 0.03800
H 	H 	0.48298 0.60938 0.90134 0.04900
H 	H 	0.42254 0.58684 0.92757 0.04900
H 	H 	0.38735 0.48062 0.07213 0.04900
H 	H 	0.41754 0.42395 0.06880 0.04900
H 	H 	0.58256 0.42933 0.90920 0.05200
H 	H 	0.52286 0.40211 0.90822 0.05200
H 	H 	0.58980 0.58438 0.05826 0.04800
H 	H 	0.61656 0.52717 0.08153 0.04400
H 	H 	0.43340 0.41675 0.91228 0.05200
Co	Co	0.35049 0.15158 0.90621 1.18100
Co	Co	0.35672 0.07493 0.91200 1.09500
O 	O 	0.34578 0.20094 0.90711 -0.38100
O 	O 	0.39486 0.18638 0.87886 -0.31000
O 	O 	0.30581 0.13484 0.93048 -0.42000
O 	O 	0.38606 0.09562 0.85056 -0.48400
C 	C 	0.29189 0.10940 0.90436 0.32500
C 	C 	0.37492 0.21064 0.88882 0.31200
O 	O 	0.31093 0.08773 0.87719 -0.43300
O 	O 	0.35111 0.13697 0.82414 -0.43600
C 	C 	0.37279 0.11433 0.80900 0.33400
O 	O 	0.37454 0.14401 0.98038 -0.42400
O 	O 	0.35095 0.09362 0.99307 -0.46000
C 	C 	0.37003 0.11750 0.01274 0.30500
C 	C 	0.46253 0.02003 0.46349 0.01100
C 	C 	0.48659 0.99412 0.46417 0.01000
C 	C 	0.45074 0.03247 0.40863 -0.05600
C 	C 	0.46298 0.01974 0.35443 0.01100
C 	C 	0.49812 0.98075 0.40995 -0.05500
C 	C 	0.48667 0.99351 0.35507 0.01000
H 	H 	0.51494 0.95990 0.41050 0.04900
H 	H 	0.43134 0.05112 0.40809 0.04900
C 	C 	0.49696 0.97993 0.29978 -0.01500
C 	C 	0.48763 0.99418 0.24520 0.00300
C 	C 	0.50975 0.98636 0.19727 -0.04700
C 	C 	0.53667 0.96635 0.21485 -0.01900
S 	S 	0.53228 0.95855 0.28807 -0.00500
H 	H 	0.50508 0.99311 0.15108 0.03600
C 	C 	0.45102 0.03133 0.29860 -0.01500
C 	C 	0.46457 0.02003 0.24460 0.00500
C 	C 	0.46011 0.04208 0.19601 -0.04700
C 	C 	0.44354 0.07086 0.21257 -0.01800
S 	S 	0.43460 0.06825 0.28577 -0.00600
H 	H 	0.46667 0.03641 0.15013 0.03500
C 	C 	0.46356 0.02118 0.57330 0.00500
C 	C 	0.44994 0.03169 0.51873 -0.01500
S 	S 	0.43225 0.06818 0.53008 -0.00500
C 	C 	0.44089 0.07168 0.60320 -0.01800
C 	C 	0.45828 0.04350 0.62097 -0.04700
C 	C 	0.49711 0.98134 0.52007 -0.01500
C 	C 	0.48726 0.99589 0.57401 0.00400
C 	C 	0.50946 0.98908 0.62243 -0.04700
C 	C 	0.53699 0.96971 0.60576 -0.01800
S 	S 	0.53307 0.96114 0.53278 -0.00600
H 	H 	0.50466 0.99636 0.66822 0.03600
H 	H 	0.46466 0.03829 0.66718 0.03800
Co	Co	0.61817 0.87649 0.91058 1.18100
Co	Co	0.53922 0.88622 0.90788 1.09500
O 	O 	0.66887 0.86879 0.90968 -0.36800
O 	O 	0.65692 0.91805 0.93171 -0.32700
O 	O 	0.59750 0.83393 0.89201 -0.42100
O 	O 	0.56271 0.91514 0.96576 -0.47600
C 	C 	0.57231 0.82242 0.92408 0.33200
C 	C 	0.68067 0.89715 0.92267 0.31300
O 	O 	0.54982 0.84229 0.94732 -0.43200
O 	O 	0.60412 0.88004 0.99318 -0.42800
C 	C 	0.58208 0.90251 0.00748 0.31900
O 	O 	0.61098 0.89780 0.83428 -0.43300
O 	O 	0.55741 0.87775 0.82670 -0.47000
C 	C 	0.58254 0.89483 0.80444 0.32200
Co	Co	0.11987 0.61523 0.01903 1.17700
Co	Co	0.04190 0.60108 0.00578 1.09000
O 	O 	0.16927 0.62686 0.03187 -0.37400
O 	O 	0.15945 0.57709 0.05343 -0.32400
O 	O 	0.09813 0.65523 0.98778 -0.40100
O 	O 	0.06421 0.60599 0.92667 -0.45300
C 	C 	0.07082 0.66761 0.01270 0.31600
C 	C 	0.18196 0.59976 0.05062 0.31000
O 	O 	0.04699 0.64824 0.03355 -0.44400
O 	O 	0.11735 0.58832 0.94803 -0.42800
C 	C 	0.09091 0.58870 0.91255 0.29300
O 	O 	0.10241 0.61688 0.09938 -0.43900
O 	O 	0.06361 0.57864 0.07439 -0.49300
C 	C 	0.07926 0.59580 0.11545 0.33400
C 	C 	0.04772 0.47824 0.56186 0.00900
C 	C 	0.02570 0.45085 0.56054 0.01000
C 	C 	0.04514 0.50254 0.51747 -0.05500
C 	C 	0.01968 0.50073 0.47380 0.00900
C 	C 	0.00154 0.44809 0.51463 -0.05700
C 	C 	0.99781 0.47324 0.47219 0.01100
H 	H 	0.98513 0.42695 0.51292 0.05000
H 	H 	0.06223 0.52319 0.51788 0.05000
C 	C 	0.97136 0.47266 0.42981 -0.01500
C 	C 	0.96722 0.49787 0.38761 0.00800
C 	C 	0.94936 0.48774 0.33547 -0.06000
C 	C 	0.94064 0.45461 0.33648 0.01300
S 	S 	0.95507 0.43874 0.40040 -0.01300
H 	H 	0.94684 0.50257 0.29557 0.04200
C 	C 	0.01406 0.52669 0.43333 -0.01400
C 	C 	0.98878 0.52510 0.38943 0.00300
C 	C 	0.99503 0.54617 0.33970 -0.04500
C 	C 	0.02532 0.56357 0.34465 -0.02100
S 	S 	0.04388 0.55210 0.40841 -0.00400
H 	H 	0.98047 0.54576 0.29875 0.03700
C 	C 	0.07057 0.45934 0.65817 0.00800
C 	C 	0.07110 0.48110 0.60937 -0.01500
S 	S 	0.08636 0.51653 0.63425 -0.01300
C 	C 	0.09393 0.50577 0.70500 0.01300
C 	C 	0.08385 0.47320 0.71182 -0.06100
C 	C 	0.02782 0.42736 0.60688 -0.01400
C 	C 	0.04866 0.43232 0.65698 0.00400
C 	C 	0.03727 0.41541 0.70917 -0.04600
C 	C 	0.00741 0.39775 0.69998 -0.01800
S 	S 	0.99582 0.40365 0.62881 -0.00600
H 	H 	0.04786 0.41906 0.75328 0.03800
H 	H 	0.08195 0.46168 0.75531 0.04400
Co	Co	0.88931 0.36541 0.01110 1.17800
Co	Co	0.90621 0.44037 0.99078 1.09600
O 	O 	0.87850 0.31725 0.02242 -0.37300
O 	O 	0.92868 0.32845 0.05034 -0.33000
O 	O 	0.84787 0.38632 0.98037 -0.40900
O 	O 	0.93134 0.42052 0.05871 -0.48500
C 	C 	0.83685 0.41412 0.00253 0.31400
C 	C 	0.90603 0.30607 0.04527 0.31700
O 	O 	0.85824 0.43580 0.02379 -0.43000
O 	O 	0.89032 0.38562 0.08905 -0.43300
C 	C 	0.91496 0.40573 0.10210 0.30600
O 	O 	0.91444 0.36380 0.93704 -0.42600
O 	O 	0.90165 0.41652 0.91439 -0.47000
C 	C 	0.91923 0.38999 0.90409 0.31700
C 	C 	0.98810 0.91664 0.07457 0.10000
N 	N 	0.97038 0.94367 0.06050 -0.17300
C 	C 	0.93967 0.94009 0.08561 0.10100
C 	C 	0.90999 0.95927 0.06595 -0.08200
C 	C 	0.91237 0.99518 0.06075 0.09200
C 	C 	0.87761 0.94284 0.05273 0.05300
C 	C 	0.87540 0.92072 0.00503 -0.08500
C 	C 	0.84383 0.90961 0.98577 -0.00600
C 	C 	0.81432 0.92074 0.01386 -0.00700
C 	C 	0.84823 0.95214 0.08340 -0.06400
N 	N 	0.93719 0.01273 0.08648 -0.12900
C 	C 	0.89479 0.01361 0.01913 -0.06900
C 	C 	0.93483 0.04278 0.06201 0.09100
C 	C 	0.96208 0.06726 0.06652 -0.07800
C 	C 	0.95379 0.10237 0.06158 0.04300
C 	C 	0.92234 0.14954 0.09623 -0.02900
C 	C 	0.96911 0.12172 0.01728 -0.06300
C 	C 	0.96132 0.15493 0.01286 -0.04400
C 	C 	0.93807 0.16900 0.05259 0.01700
N 	N 	0.01136 0.03056 0.05337 -0.17300
C 	C 	0.04495 0.03377 0.06055 0.09700
C 	C 	0.05231 0.06202 0.09196 -0.06200
C 	C 	0.02167 0.07666 0.10433 -0.06500
C 	C 	0.06966 0.01556 0.02376 -0.07000
C 	C 	0.10072 0.03175 0.00216 0.02400
C 	C 	0.16179 0.03611 0.00186 -0.04800
C 	C 	0.15979 0.06259 0.96205 0.03500
C 	C 	0.12817 0.07339 0.94177 -0.04700
C 	C 	0.09869 0.05803 0.96184 -0.03800
N 	N 	0.04699 0.96122 0.05218 -0.12700
C 	C 	0.05916 0.93323 0.96812 -0.05500
C 	C 	0.04366 0.93249 0.02358 0.08000
C 	C 	0.01944 0.90712 0.04260 -0.07900
C 	C 	0.02868 0.87231 0.03596 0.05000
C 	C 	0.05897 0.86061 0.06066 -0.06100
C 	C 	0.06764 0.82771 0.05492 -0.03000
C 	C 	0.04591 0.80616 0.02516 0.00300
C 	C 	0.01594 0.81793 0.99943 -0.00400
C 	C 	0.00747 0.85096 0.00443 -0.08400
C 	C 	0.96870 0.89565 0.10917 -0.06400
C 	C 	0.93766 0.91063 0.11608 -0.06400
C 	C 	0.81670 0.94119 0.06394 -0.02000
C 	C 	0.90924 0.04417 0.01992 -0.06900
C 	C 	0.99708 0.05666 0.07979 0.10200
C 	C 	0.07320 0.96386 0.96265 -0.05300
C 	C 	0.06547 0.98009 0.01509 0.07700
C 	C 	0.13239 0.02079 0.02190 -0.04400
H 	H 	0.97536 0.95857 0.02344 0.09100
H 	H 	0.00007 0.01703 0.01915 0.09000
H 	H 	0.09087 0.81880 0.07476 0.03500
H 	H 	0.99909 0.80144 0.97614 0.03900
H 	H 	0.07559 0.87694 0.08483 0.04700
H 	H 	0.98429 0.85987 0.98447 0.05600
H 	H 	0.84220 0.89353 0.94743 0.03300
H 	H 	0.84975 0.96884 0.12084 0.05000
H 	H 	0.79403 0.94954 0.08636 0.03900
H 	H 	0.89798 0.91321 0.98137 0.05600
H 	H 	0.97360 0.16981 0.97907 0.04500
H 	H 	0.98713 0.11104 0.98650 0.05000
C 	C 	0.93024 0.11638 0.10082 -0.05400
H 	H 	0.90424 0.16017 0.12688 0.04700
H 	H 	0.18614 0.02761 0.01763 0.04400
H 	H 	0.13418 0.00055 0.05311 0.04300
H 	H 	0.07432 0.06659 0.94626 0.04100
H 	H 	0.12643 0.09386 0.91107 0.04100
H 	H 	0.97307 0.86970 0.11426 0.05000
H 	H 	0.91443 0.89788 0.12644 0.04800
H 	H 	0.88074 0.00369 0.98176 0.05600
H 	H 	0.90819 0.06140 0.98307 0.05500
H 	H 	0.07627 0.07474 0.09071 0.04800
H 	H 	0.01852 0.10235 0.11414 0.04900
H 	H 	0.05252 0.91769 0.93078 0.04600
H 	H 	0.07913 0.97562 0.92044 0.04600
H 	H 	0.91823 0.10161 0.13506 0.04900
C 	C 	0.91451 0.27109 0.04621 -0.13100
C 	C 	0.90608 0.25073 0.99758 0.18800
C 	C 	0.91335 0.21726 0.00046 -0.12800
C 	C 	0.93092 0.20432 0.04965 -0.00100
C 	C 	0.94145 0.22512 0.09622 0.09000
C 	C 	0.93242 0.25820 0.09501 -0.02200
H 	H 	0.90549 0.20140 0.96426 0.07700
H 	H 	0.93941 0.27383 0.13210 0.05200
O 	O 	0.88899 0.26319 0.94857 -0.19600
O 	O 	0.95829 0.21257 0.14540 -0.19100
C 	C 	0.91291 0.27257 0.90494 -0.02500
H 	H 	0.93036 0.29173 0.92204 0.05200
H 	H 	0.89923 0.28319 0.86614 0.05200
H 	H 	0.92744 0.25116 0.88827 0.03800
C 	C 	0.99332 0.21547 0.13529 -0.02200
H 	H 	0.00144 0.20147 0.09510 0.03600
H 	H 	0.00683 0.20500 0.17441 0.04200
H 	H 	0.00110 0.24152 0.13125 0.03700
C 	C 	0.98325 0.39093 0.74907 0.06000
C 	C 	0.94978 0.40215 0.74573 -0.09400
C 	C 	0.92874 0.40037 0.79579 0.04500
C 	C 	0.94099 0.38826 0.85051 -0.15300
C 	C 	0.97464 0.37633 0.85396 0.14200
C 	C 	0.99489 0.37648 0.80225 -0.12700
H 	H 	0.90303 0.40929 0.79249 0.02500
H 	H 	0.02052 0.36721 0.80452 0.06100
H 	H 	0.94031 0.41327 0.70502 0.05400
N 	N 	0.98818 0.36634 0.90699 -0.20800
H 	H 	0.97617 0.37080 0.94773 0.08600
H 	H 	0.01222 0.35580 0.90822 0.08500
C 	C 	0.92361 0.41255 0.16509 -0.07300
C 	C 	0.89883 0.41034 0.20982 -0.00300
C 	C 	0.90547 0.42185 0.26748 -0.04000
C 	C 	0.93708 0.43525 0.28133 -0.02500
C 	C 	0.96340 0.43406 0.23826 0.07400
C 	C 	0.95617 0.42336 0.17995 -0.04700
H 	H 	0.88549 0.42180 0.30064 0.04100
H 	H 	0.97587 0.42353 0.14620 0.04400
H 	H 	0.87399 0.40091 0.19939 0.04000
N 	N 	0.99552 0.44281 0.25273 -0.19500
H 	H 	0.00247 0.44759 0.29694 0.08900
H 	H 	0.01435 0.44343 0.21993 0.07900
C 	C 	0.06685 0.70349 0.01847 -0.12900
C 	C 	0.08427 0.72535 0.98016 0.17000
C 	C 	0.07665 0.75881 0.98180 -0.09800
C 	C 	0.05362 0.77098 0.02383 -0.01300
C 	C 	0.03808 0.74959 0.06479 0.09300
C 	C 	0.04408 0.71597 0.06098 -0.03000
H 	H 	0.08877 0.77531 0.95039 0.06500
H 	H 	0.03090 0.69959 0.09118 0.04800
O 	O 	0.10650 0.71376 0.93747 -0.19600
O 	O 	0.01449 0.76123 0.10506 -0.19600
C 	C 	0.13970 0.71714 0.95962 -0.01100
H 	H 	0.14688 0.74332 0.96350 0.03600
H 	H 	0.15734 0.70567 0.92731 0.04900
H 	H 	0.14316 0.70443 0.00343 0.03900
C 	C 	0.03068 0.76659 0.16044 -0.02200
H 	H 	0.04004 0.74330 0.18024 0.03400
H 	H 	0.01198 0.77696 0.19212 0.04000
H 	H 	0.05166 0.78456 0.15636 0.03700
C 	C 	0.09128 0.56980 0.85636 -0.07300
C 	C 	0.12201 0.56167 0.82890 -0.00000
C 	C 	0.12244 0.54163 0.77838 -0.04100
C 	C 	0.09224 0.52943 0.75454 -0.02400
C 	C 	0.06091 0.53863 0.78061 0.07200
C 	C 	0.06084 0.55857 0.83167 -0.04600
H 	H 	0.14641 0.53504 0.75835 0.04100
H 	H 	0.03704 0.56494 0.85266 0.02400
H 	H 	0.14563 0.57062 0.84700 0.04000
N 	N 	0.03098 0.52854 0.75699 -0.19500
H 	H 	0.02980 0.51537 0.71717 0.08800
H 	H 	0.00821 0.53468 0.77780 0.07300
C 	C 	0.04458 0.57395 0.29176 0.06300
C 	C 	0.06378 0.55115 0.25982 -0.09600
C 	C 	0.07722 0.55934 0.20395 0.05000
C 	C 	0.07160 0.59041 0.17923 -0.15600
C 	C 	0.05421 0.61432 0.21333 0.14700
C 	C 	0.04057 0.60565 0.26931 -0.13000
H 	H 	0.09081 0.54104 0.17859 0.02100
H 	H 	0.02609 0.62336 0.29461 0.06200
H 	H 	0.06706 0.52661 0.27713 0.05400
N 	N 	0.05004 0.64529 0.19236 -0.21300
H 	H 	0.06146 0.65317 0.15282 0.10000
H 	H 	0.03605 0.66229 0.21685 0.08300
C 	C 	0.71539 0.90233 0.94433 -0.11600
C 	C 	0.73196 0.87841 0.97929 0.16300
C 	C 	0.76509 0.88391 0.99904 -0.09700
C 	C 	0.78105 0.91379 0.98734 0.00300
C 	C 	0.76449 0.93772 0.95271 0.09300
C 	C 	0.73153 0.93211 0.93238 -0.02800
H 	H 	0.77795 0.86532 0.02511 0.05800
H 	H 	0.71857 0.95093 0.90704 0.05500
O 	O 	0.71637 0.84898 0.99192 -0.18900
O 	O 	0.77933 0.96786 0.94350 -0.18800
C 	C 	0.69961 0.85171 0.04747 -0.03000
H 	H 	0.71765 0.85680 0.08457 0.03600
H 	H 	0.68725 0.82804 0.05764 0.04200
H 	H 	0.67942 0.87063 0.04598 0.04200
C 	C 	0.79614 0.96742 0.88782 -0.02500
H 	H 	0.81606 0.94825 0.88632 0.03900
H 	H 	0.80888 0.99129 0.88132 0.04400
H 	H 	0.77803 0.96425 0.85013 0.03900
C 	C 	0.55525 0.94888 0.64877 0.06100
C 	C 	0.57481 0.96340 0.69366 -0.09500
C 	C 	0.58640 0.94486 0.74205 0.04300
C 	C 	0.57847 0.91154 0.74624 -0.15500
C 	C 	0.56210 0.89599 0.69760 0.15100
C 	C 	0.54969 0.91504 0.64992 -0.13100
H 	H 	0.59976 0.95685 0.77819 0.02200
H 	H 	0.53519 0.90360 0.61453 0.06300
H 	H 	0.57963 0.98944 0.69258 0.05300
N 	N 	0.55907 0.86294 0.69570 -0.20900
H 	H 	0.57162 0.84803 0.72652 0.10100
H 	H 	0.54563 0.85176 0.66109 0.08400
C 	C 	0.55316 0.94371 0.17319 0.06200
C 	C 	0.53494 0.91739 0.14960 -0.09500
C 	C 	0.54658 0.90131 0.09852 0.04500
C 	C 	0.57658 0.91134 0.07057 -0.15000
C 	C 	0.59718 0.93501 0.09879 0.15200
C 	C 	0.58491 0.95153 0.14947 -0.12900
H 	H 	0.53110 0.88252 0.07826 0.00800
H 	H 	0.59953 0.97118 0.16905 0.06400
H 	H 	0.51067 0.91078 0.16852 0.05100
N 	N 	0.62850 0.94203 0.07741 -0.21100
H 	H 	0.63946 0.92804 0.04364 0.10300
H 	H 	0.64293 0.96059 0.09673 0.08800
C 	C 	0.25586 0.10222 0.91480 -0.12800
C 	C 	0.23666 0.08542 0.87145 0.16300
C 	C 	0.20454 0.07350 0.88642 -0.10400
C 	C 	0.19083 0.07955 0.94320 -0.01600
C 	C 	0.20850 0.09931 0.98406 0.10100
C 	C 	0.24119 0.10997 0.97023 -0.02100
H 	H 	0.19073 0.05876 0.85446 0.06300
H 	H 	0.25557 0.12322 0.00357 0.04800
O 	O 	0.25041 0.07813 0.81619 -0.20700
O 	O 	0.19526 0.10529 0.04025 -0.20000
C 	C 	0.24205 0.10346 0.77593 -0.01900
H 	H 	0.21420 0.10565 0.77000 0.03500
H 	H 	0.25298 0.09756 0.73150 0.03900
H 	H 	0.25308 0.12721 0.79027 0.04000
C 	C 	0.17737 0.13503 0.03812 -0.02200
H 	H 	0.19440 0.15589 0.02739 0.03500
H 	H 	0.16640 0.13966 0.08302 0.04000
H 	H 	0.15601 0.13398 0.00571 0.03400
C 	C 	0.41965 0.09027 0.64494 0.06100
C 	C 	0.43467 0.11312 0.68311 -0.09300
C 	C 	0.41744 0.12410 0.73378 0.05000
C 	C 	0.38511 0.11213 0.74708 -0.15100
C 	C 	0.36828 0.09215 0.70490 0.14600
C 	C 	0.38592 0.08104 0.65423 -0.12800
H 	H 	0.43017 0.14013 0.76504 0.02900
H 	H 	0.37397 0.06398 0.62382 0.06200
H 	H 	0.46051 0.12080 0.67558 0.05600
N 	N 	0.33558 0.08311 0.71338 -0.21300
H 	H 	0.32135 0.09245 0.74878 0.10000
H 	H 	0.32368 0.06742 0.68316 0.08400
C 	C 	0.42364 0.09031 0.16970 0.06000
C 	C 	0.44020 0.10709 0.12348 -0.09400
C 	C 	0.42195 0.11908 0.07462 0.03900
C 	C 	0.38692 0.11428 0.07130 -0.15000
C 	C 	0.36960 0.10108 0.12136 0.14900
C 	C 	0.38825 0.08830 0.16961 -0.12900
H 	H 	0.43535 0.13010 0.03738 0.02200
H 	H 	0.37527 0.07607 0.20608 0.06300
H 	H 	0.46747 0.10926 0.12380 0.05200
N 	N 	0.33528 0.10119 0.12375 -0.20800
H 	H 	0.32096 0.11373 0.09183 0.09900
H 	H 	0.32265 0.09013 0.15957 0.08500
C 	C 	0.38764 0.24385 0.90054 -0.11300
C 	C 	0.41388 0.25711 0.86537 0.16200
C 	C 	0.42794 0.28738 0.88064 -0.10200
C 	C 	0.41501 0.30518 0.92901 -0.00700
C 	C 	0.38733 0.29297 0.96166 0.10500
C 	C 	0.37422 0.26209 0.94810 -0.03100
H 	H 	0.44915 0.29682 0.85527 0.06600
H 	H 	0.35406 0.25210 0.97539 0.06200
O 	O 	0.42770 0.23929 0.81895 -0.19500
O 	O 	0.37521 0.30981 0.01072 -0.20400
C 	C 	0.41093 0.24792 0.76547 -0.02200
H 	H 	0.38346 0.24215 0.76775 0.04100
H 	H 	0.42175 0.23333 0.72835 0.04600
H 	H 	0.41486 0.27415 0.75416 0.03600
C 	C 	0.34760 0.32909 0.99216 -0.00500
H 	H 	0.35501 0.34705 0.95700 0.03500
H 	H 	0.33840 0.34320 0.03124 0.03500
H 	H 	0.32625 0.31367 0.97630 0.03700
C 	C 	0.21840 0.59227 0.04682 -0.11500
C 	C 	0.23926 0.60787 0.00404 0.15800
C 	C 	0.27370 0.59999 0.00103 -0.11300
C 	C 	0.28708 0.57528 0.03752 -0.00600
C 	C 	0.26635 0.55965 0.08006 0.09400
C 	C 	0.23203 0.56785 0.08384 -0.03000
H 	H 	0.28975 0.61237 0.96885 0.07100
H 	H 	0.21600 0.55514 0.11563 0.05500
O 	O 	0.22638 0.63186 0.96683 -0.18900
O 	O 	0.27888 0.53412 0.11407 -0.19200
C 	C 	0.21626 0.61725 0.91255 -0.02400
H 	H 	0.23822 0.60677 0.88811 0.03800
H 	H 	0.20502 0.63638 0.88344 0.04600
H 	H 	0.19651 0.59827 0.91985 0.04600
C 	C 	0.28902 0.54645 0.17019 -0.02400
H 	H 	0.30884 0.56557 0.16559 0.03700
H 	H 	0.30011 0.52614 0.19666 0.04200
H 	H 	0.26707 0.55601 0.19593 0.03800
C 	C 	0.80024 0.42086 0.00438 -0.12900
C 	C 	0.78575 0.43704 0.05389 0.16400
C 	C 	0.75158 0.44591 0.05249 -0.10500
C 	C 	0.73120 0.43712 0.00383 -0.01600
C 	C 	0.74510 0.41909 0.95617 0.10000
C 	C 	0.77970 0.41175 0.95596 -0.02200
H 	H 	0.74091 0.45959 0.08943 0.06300
H 	H 	0.79060 0.39930 0.91779 0.05600
O 	O 	0.80552 0.44628 0.10196 -0.20400
O 	O 	0.72543 0.41098 0.90728 -0.19200
C 	C 	0.80397 0.42150 0.14587 -0.01900
H 	H 	0.77763 0.41732 0.16167 0.03400
H 	H 	0.81891 0.42945 0.18524 0.04000
H 	H 	0.81529 0.39833 0.12931 0.04300
C 	C 	0.71233 0.37933 0.91640 -0.02500
H 	H 	0.73285 0.36078 0.91876 0.04200
H 	H 	0.69614 0.37303 0.87756 0.04500
H 	H 	0.69616 0.37808 0.95718 0.04200
C 	C 	0.56918 0.78714 0.93367 -0.13600
C 	C 	0.57357 0.77370 0.99128 0.19100
C 	C 	0.56920 0.74007 0.00025 -0.13400
C 	C 	0.56125 0.71966 0.95186 0.01400
C 	C 	0.55667 0.73324 0.89429 0.08400
C 	C 	0.56175 0.76674 0.88519 -0.01700
H 	H 	0.57207 0.72986 0.04481 0.06900
H 	H 	0.55903 0.77697 0.84060 0.04500
O 	O 	0.57955 0.79380 0.03977 -0.21300
O 	O 	0.54934 0.71339 0.84603 -0.19100
C 	C 	0.61476 0.79636 0.04817 -0.01700
H 	H 	0.62614 0.77228 0.05969 0.03400
H 	H 	0.61952 0.81299 0.08638 0.04400
H 	H 	0.62749 0.80715 0.00826 0.03800
C 	C 	0.51397 0.71227 0.83876 -0.02400
H 	H 	0.50122 0.70188 0.87900 0.03700
H 	H 	0.50811 0.69598 0.80055 0.04100
H 	H 	0.50350 0.73682 0.82782 0.03300
