data_crystal

_cell_length_a 26.20635
_cell_length_b 26.48099
_cell_length_c 34.82925
_cell_angle_alpha 95.49822
_cell_angle_beta  95.49684
_cell_angle_gamma 125.82285

_symmetry_space_group_name_	'P 1'
_symmetry_space_group_name_H-M	'P 1'

loop_
_symmetry_equiv_pos_as_xyz
  x,y,z

loop_
_atom_site_label
_atom_site_type_symbol
_atom_site_fract_x
_atom_site_fract_y
_atom_site_fract_z
_atom_site_charge
C 	C 	0.97152 0.04387 0.99592 0.15100
C 	C 	0.03698 0.07976 0.99424 -0.10100
C 	C 	0.06709 0.05020 0.99160 0.15400
C 	C 	0.03176 0.98481 0.99067 -0.12000
C 	C 	0.96646 0.94889 0.99243 0.15700
C 	C 	0.93638 0.97845 0.99506 -0.10700
H 	H 	0.06436 0.13042 0.99517 0.12300
H 	H 	0.05508 0.96197 0.98867 0.11300
H 	H 	0.88584 0.95067 0.99644 0.11800
C 	C 	0.92270 0.97914 0.45128 0.14100
C 	C 	0.98855 0.01287 0.45131 -0.09000
C 	C 	0.01622 0.98089 0.44893 0.13500
C 	C 	0.97773 0.91489 0.44581 -0.09700
C 	C 	0.91209 0.88093 0.44612 0.14300
C 	C 	0.88452 0.91306 0.44897 -0.09400
H 	H 	0.01833 0.06397 0.45379 0.11400
H 	H 	0.99906 0.89008 0.44387 0.11100
H 	H 	0.83390 0.88695 0.44976 0.11900
Cu	Cu	0.64050 0.25223 0.00419 0.94000
Cu	Cu	0.68888 0.25769 0.92048 0.90800
Cu	Cu	0.68034 0.35691 0.95721 0.91300
Cu	Cu	0.66030 0.37811 0.03799 0.92500
C 	C 	0.66668 0.29553 0.08742 0.30800
O 	O 	0.55098 0.22587 0.00640 -0.33300
C 	C 	0.66408 0.32452 0.87144 0.30800
O 	O 	0.70157 0.35170 0.01032 -0.63300
O 	O 	0.63196 0.26309 0.94928 -0.63200
O 	O 	0.67037 0.19868 0.99692 -0.30200
O 	O 	0.74541 0.26531 0.96301 -0.39000
O 	O 	0.64340 0.32709 0.08019 -0.32900
O 	O 	0.73325 0.44849 0.96656 -0.31000
C 	C 	0.73236 0.48533 0.99447 0.34600
C 	C 	0.53236 0.25959 0.99488 0.33100
O 	O 	0.57528 0.31914 0.99242 -0.35000
O 	O 	0.70959 0.46576 0.02660 -0.33900
O 	O 	0.66326 0.25642 0.05896 -0.28800
C 	C 	0.72429 0.22111 0.98442 0.34900
O 	O 	0.66388 0.35913 0.90139 -0.31900
O 	O 	0.65475 0.27057 0.87458 -0.34600
H 	H 	0.74795 0.37499 0.02045 0.23000
H 	H 	0.58756 0.23932 0.93451 0.19700
Cu	Cu	0.72405 0.31706 0.45421 0.93800
Cu	Cu	0.72227 0.28176 0.54177 0.91100
Cu	Cu	0.62119 0.28633 0.50259 0.91400
Cu	Cu	0.59503 0.29398 0.41772 0.92100
C 	C 	0.68819 0.29961 0.37112 0.30800
O 	O 	0.75578 0.40583 0.44771 -0.28400
C 	C 	0.65901 0.31502 0.58876 0.30400
O 	O 	0.62352 0.25896 0.45014 -0.63500
O 	O 	0.71589 0.33366 0.50897 -0.63300
O 	O 	0.77484 0.28377 0.46320 -0.33500
O 	O 	0.70903 0.21913 0.50186 -0.36300
O 	O 	0.63047 0.28480 0.37142 -0.30400
O 	O 	0.52873 0.23360 0.49493 -0.30600
C 	C 	0.49037 0.22560 0.46360 0.34400
C 	C 	0.72055 0.42573 0.45157 0.35200
O 	O 	0.66102 0.38616 0.45594 -0.36400
O 	O 	0.51281 0.26047 0.43626 -0.34800
O 	O 	0.71696 0.29025 0.39971 -0.32500
C 	C 	0.75239 0.23410 0.48007 0.33300
O 	O 	0.62196 0.31051 0.55790 -0.29900
O 	O 	0.71291 0.32290 0.58572 -0.34600
H 	H 	0.60020 0.21257 0.44256 0.19700
H 	H 	0.74032 0.37889 0.52133 0.21200
C 	C 	0.70882 0.36483 0.77325 0.03600
C 	C 	0.65072 0.34715 0.75202 0.09800
C 	C 	0.59934 0.33015 0.77172 -0.10300
C 	C 	0.60527 0.32484 0.81146 0.08200
C 	C 	0.66260 0.34016 0.83214 0.00500
C 	C 	0.71623 0.36442 0.81367 -0.06100
C 	C 	0.64192 0.33917 0.70858 0.09800
C 	C 	0.53625 0.31219 0.74987 0.79000
H 	H 	0.56451 0.30658 0.82596 0.09200
C 	C 	0.78033 0.38635 0.83647 0.77500
H 	H 	0.74754 0.37695 0.75789 0.12500
C 	C 	0.67309 0.39243 0.68983 -0.10100
C 	C 	0.67644 0.38341 0.64993 0.08200
C 	C 	0.64566 0.32232 0.62815 0.01100
C 	C 	0.60826 0.26887 0.64577 -0.06000
C 	C 	0.60883 0.27796 0.68627 0.03700
C 	C 	0.70776 0.45929 0.71283 0.79000
H 	H 	0.70487 0.42407 0.63611 0.09700
C 	C 	0.57104 0.20223 0.62193 0.77500
H 	H 	0.58569 0.23760 0.70090 0.12600
F 	F 	0.82925 0.42102 0.81600 -0.38800
F 	F 	0.77735 0.33419 0.84334 -0.43600
F 	F 	0.79530 0.42463 0.87202 -0.41300
F 	F 	0.49991 0.25017 0.72991 -0.40500
F 	F 	0.54639 0.35149 0.72337 -0.37800
F 	F 	0.50180 0.31737 0.77565 -0.39600
F 	F 	0.61333 0.19024 0.61201 -0.43200
F 	F 	0.53432 0.19616 0.58798 -0.40700
F 	F 	0.53019 0.15700 0.64270 -0.39000
F 	F 	0.71582 0.50037 0.68807 -0.39200
F 	F 	0.76746 0.48055 0.73210 -0.40400
F 	F 	0.67352 0.46113 0.74006 -0.37900
C 	C 	0.74980 0.31417 0.18869 0.03500
C 	C 	0.69889 0.28935 0.20922 0.10100
C 	C 	0.63618 0.26195 0.18886 -0.10200
C 	C 	0.62650 0.26226 0.14851 0.08200
C 	C 	0.67773 0.28891 0.12830 0.01000
C 	C 	0.73979 0.31370 0.14817 -0.06100
C 	C 	0.71308 0.29952 0.25268 0.09100
C 	C 	0.58078 0.23811 0.21069 0.78900
H 	H 	0.57930 0.24364 0.13290 0.10300
C 	C 	0.79544 0.34080 0.12639 0.77700
H 	H 	0.79755 0.33554 0.20468 0.13300
C 	C 	0.71079 0.25380 0.27207 -0.09400
C 	C 	0.70703 0.25657 0.31220 0.08500
C 	C 	0.71017 0.30652 0.33327 0.01400
C 	C 	0.72477 0.35813 0.31536 -0.06100
C 	C 	0.72407 0.35319 0.27476 0.04200
C 	C 	0.71137 0.20188 0.24998 0.79000
H 	H 	0.69855 0.21849 0.32660 0.10000
C 	C 	0.73980 0.41775 0.33930 0.77600
H 	H 	0.72908 0.38960 0.25991 0.11800
F 	F 	0.78287 0.29407 0.09683 -0.41100
F 	F 	0.85223 0.36368 0.15100 -0.39200
F 	F 	0.80390 0.39025 0.11008 -0.43400
F 	F 	0.58852 0.28914 0.23283 -0.41300
F 	F 	0.57823 0.19892 0.23521 -0.39200
F 	F 	0.52247 0.20369 0.18501 -0.39600
F 	F 	0.76593 0.46702 0.31864 -0.40600
F 	F 	0.78371 0.43715 0.37317 -0.42700
F 	F 	0.68433 0.40583 0.34920 -0.43500
F 	F 	0.71415 0.16539 0.27480 -0.39600
F 	F 	0.76440 0.22864 0.23223 -0.40200
F 	F 	0.65655 0.16241 0.22149 -0.37900
C 	C 	0.83430 0.60484 0.46596 -0.12200
C 	C 	0.79448 0.61814 0.44750 0.03100
C 	C 	0.73100 0.56821 0.42983 0.31100
C 	C 	0.70737 0.50553 0.43088 -0.03200
C 	C 	0.74688 0.49204 0.44964 -0.10700
C 	C 	0.81068 0.54206 0.46708 0.39300
C 	C 	0.81951 0.68437 0.44644 0.01400
F 	F 	0.69208 0.58050 0.41187 -0.38100
H 	H 	0.65833 0.46733 0.41701 0.12800
F 	F 	0.84925 0.53004 0.48590 -0.40200
H 	H 	0.88344 0.64317 0.47956 0.14700
C 	C 	0.83102 0.72496 0.48066 0.31700
C 	C 	0.85766 0.78853 0.47992 -0.08500
C 	C 	0.87306 0.81200 0.44505 -0.07100
C 	C 	0.85912 0.77074 0.41048 0.35400
C 	C 	0.83255 0.70721 0.41123 -0.11200
F 	F 	0.81729 0.70303 0.51472 -0.39100
H 	H 	0.86832 0.82006 0.50672 0.11800
F 	F 	0.87320 0.79274 0.37647 -0.39000
H 	H 	0.82313 0.67599 0.38461 0.15600
C 	C 	0.82313 0.03728 0.42845 -0.10900
C 	C 	0.84758 0.08570 0.46117 0.01200
C 	C 	0.89545 0.09780 0.49105 0.31500
C 	C 	0.91828 0.06156 0.48830 -0.08700
C 	C 	0.89449 0.01367 0.45537 -0.06800
C 	C 	0.84676 0.00166 0.42539 0.35200
C 	C 	0.82125 0.12202 0.46495 0.02600
F 	F 	0.92014 0.14502 0.52260 -0.39500
H 	H 	0.95510 0.07120 0.51155 0.11700
F 	F 	0.82416 0.95635 0.39301 -0.39300
H 	H 	0.78590 0.02731 0.40540 0.15100
C 	C 	0.82980 0.16215 0.43852 0.30300
C 	C 	0.80693 0.19830 0.44329 -0.04600
C 	C 	0.77595 0.19526 0.47477 -0.12500
C 	C 	0.76763 0.15497 0.50124 0.37900
C 	C 	0.78944 0.11811 0.49595 -0.12600
F 	F 	0.86104 0.16681 0.40858 -0.38200
H 	H 	0.81336 0.22864 0.42252 0.12700
F 	F 	0.73981 0.15259 0.53263 -0.41300
H 	H 	0.78253 0.08717 0.51640 0.14800
C 	C 	0.33115 0.16629 0.49144 -0.12500
C 	C 	0.28847 0.11778 0.45910 0.02900
C 	C 	0.31245 0.10330 0.42898 0.30200
C 	C 	0.37857 0.13805 0.43085 -0.04600
C 	C 	0.42119 0.18673 0.46307 -0.12100
C 	C 	0.39726 0.20039 0.49358 0.39400
C 	C 	0.21875 0.08285 0.45658 0.01100
F 	F 	0.27167 0.05557 0.39795 -0.38800
H 	H 	0.39671 0.12722 0.40723 0.11200
F 	F 	0.43805 0.24793 0.52469 -0.38600
H 	H 	0.31305 0.17792 0.51472 0.15500
C 	C 	0.18821 0.04581 0.48464 0.31700
C 	C 	0.12230 0.01339 0.48238 -0.08600
C 	C 	0.08612 0.01683 0.45176 -0.06900
C 	C 	0.11661 0.05362 0.42356 0.35000
C 	C 	0.18274 0.08691 0.42620 -0.11000
F 	F 	0.22233 0.04079 0.51384 -0.38800
H 	H 	0.09919 0.98527 0.50431 0.11600
F 	F 	0.08204 0.05637 0.39335 -0.39700
H 	H 	0.20601 0.11564 0.40455 0.14600
C 	C 	0.84919 0.77127 0.95921 -0.11600
C 	C 	0.86257 0.75013 0.99137 0.01300
C 	C 	0.90943 0.79429 0.02409 0.32200
C 	C 	0.94290 0.85920 0.02450 -0.08200
C 	C 	0.92984 0.88043 0.99225 -0.07700
C 	C 	0.88272 0.83621 0.95958 0.35500
C 	C 	0.82798 0.68180 0.99061 0.02700
F 	F 	0.92254 0.77422 0.05540 -0.38600
H 	H 	0.97912 0.89306 0.04982 0.12000
F 	F 	0.87010 0.85623 0.92806 -0.39600
H 	H 	0.81309 0.73736 0.93387 0.14600
C 	C 	0.76897 0.64702 0.00310 0.31100
C 	C 	0.73751 0.58267 0.00389 -0.04600
C 	C 	0.76469 0.55253 0.99212 -0.11800
C 	C 	0.82358 0.58736 0.97924 0.39000
C 	C 	0.85494 0.65171 0.97846 -0.12700
F 	F 	0.74247 0.67578 0.01484 -0.38500
H 	H 	0.69201 0.55620 0.01367 0.12200
F 	F 	0.85134 0.55939 0.96865 -0.38500
H 	H 	0.90061 0.67843 0.96890 0.15000
C 	C 	0.89639 0.12409 0.96791 -0.11500
C 	C 	0.87140 0.12582 0.00146 0.01400
C 	C 	0.88130 0.10266 0.03374 0.32200
C 	C 	0.91533 0.07724 0.03222 -0.08200
C 	C 	0.93953 0.07464 0.99843 -0.07300
C 	C 	0.93027 0.09855 0.96634 0.35400
C 	C 	0.83381 0.15075 0.00232 0.03200
F 	F 	0.85773 0.10456 0.06646 -0.37900
H 	H 	0.92239 0.05900 0.05713 0.12200
F 	F 	0.95285 0.09569 0.93334 -0.39100
H 	H 	0.88887 0.14188 0.94290 0.14200
C 	C 	0.86472 0.21627 0.00700 0.31000
C 	C 	0.82866 0.23937 0.00314 -0.03500
C 	C 	0.76144 0.19723 0.99447 -0.11800
C 	C 	0.73052 0.13179 0.99169 0.38600
C 	C 	0.76668 0.10875 0.99560 -0.12800
F 	F 	0.92968 0.25740 0.01433 -0.37800
H 	H 	0.85296 0.28997 0.00603 0.13600
F 	F 	0.66558 0.09035 0.98329 -0.40300
H 	H 	0.74255 0.05812 0.99220 0.14800
C 	C 	0.22255 0.13452 0.95390 -0.11400
C 	C 	0.26584 0.14867 0.98759 0.01100
C 	C 	0.24428 0.13350 0.02307 0.32000
C 	C 	0.17960 0.10315 0.02460 -0.08400
C 	C 	0.13602 0.08781 0.99074 -0.07600
C 	C 	0.15780 0.10419 0.95544 0.35400
C 	C 	0.33350 0.17837 0.98560 0.02600
F 	F 	0.28585 0.14717 0.05586 -0.38800
H 	H 	0.16308 0.09055 0.05191 0.11900
F 	F 	0.11599 0.08946 0.92249 -0.39100
H 	H 	0.23896 0.14640 0.92648 0.14300
C 	C 	0.35205 0.14114 0.97126 0.30500
C 	C 	0.41700 0.16828 0.97309 -0.04600
C 	C 	0.46392 0.23280 0.98924 -0.12900
C 	C 	0.44505 0.27044 0.00247 0.38400
C 	C 	0.38010 0.24322 0.00053 -0.12900
F 	F 	0.30723 0.07835 0.95652 -0.38800
H 	H 	0.43092 0.13897 0.96246 0.11400
F 	F 	0.48967 0.33267 0.01877 -0.42000
H 	H 	0.36603 0.27219 0.01159 0.14400
