data_crystal

_cell_length_a 18.74618
_cell_length_b 15.50185
_cell_length_c 41.91773
_cell_angle_alpha 90.81699
_cell_angle_beta  91.24419
_cell_angle_gamma 111.06032

_symmetry_space_group_name_	'P 1'
_symmetry_space_group_name_H-M	'P 1'

loop_
_symmetry_equiv_pos_as_xyz
  x,y,z

loop_
_atom_site_label
_atom_site_type_symbol
_atom_site_fract_x
_atom_site_fract_y
_atom_site_fract_z
_atom_site_charge
Ni	Ni	0.73013 0.32716 0.89572 1.09600
O 	O 	0.65109 0.24619 0.86297 -0.70900
Ni	Ni	0.55598 0.25553 0.87952 1.10100
O 	O 	0.81604 0.30546 0.87140 -0.37700
O 	O 	0.75569 0.14792 0.87196 -0.41300
O 	O 	0.73549 0.43254 0.86598 -0.40600
Ni	Ni	0.63878 0.11632 0.86223 1.06300
O 	O 	0.72559 0.44299 0.96181 -0.42200
O 	O 	0.61693 0.09668 0.90994 -0.41000
O 	O 	0.48695 0.18485 0.84283 -0.38700
O 	O 	0.63246 0.31937 0.91581 -0.70300
O 	O 	0.81012 0.41744 0.92658 -0.38900
O 	O 	0.47017 0.29604 0.89590 -0.37400
O 	O 	0.55287 0.44457 0.90066 -0.42000
Ni	Ni	0.64236 0.44350 0.93034 1.07200
H 	H 	0.65995 0.27113 0.84120 0.15500
H 	H 	0.62506 0.27991 0.93469 0.15100
C 	C 	0.55394 0.10077 0.92208 0.28500
O 	O 	0.72321 0.53593 0.90312 -0.40200
C 	C 	0.80964 0.22219 0.86110 0.28200
C 	C 	0.48042 0.09907 0.83547 0.29100
C 	C 	0.74904 0.51768 0.87589 0.31300
C 	C 	0.48419 0.38262 0.90431 0.28200
C 	C 	0.79593 0.45473 0.95326 0.29700
O 	O 	0.51241 0.13877 0.90599 -0.38000
O 	O 	0.52371 0.05872 0.85013 -0.41200
Ni	Ni	0.61503 0.33504 0.56683 1.09600
O 	O 	0.70551 0.36007 0.53702 -0.70200
Ni	Ni	0.76500 0.29097 0.55872 1.09700
O 	O 	0.57093 0.42041 0.54301 -0.37000
O 	O 	0.68425 0.54119 0.54280 -0.41700
O 	O 	0.54477 0.23258 0.53602 -0.37400
Ni	Ni	0.77195 0.49105 0.53739 1.06400
O 	O 	0.50287 0.15015 0.59161 -0.41700
O 	O 	0.78292 0.49309 0.58571 -0.42700
O 	O 	0.85109 0.32160 0.52672 -0.37800
O 	O 	0.67585 0.26840 0.58935 -0.69900
O 	O 	0.52814 0.30515 0.59819 -0.39000
O 	O 	0.80743 0.20032 0.58014 -0.36300
O 	O 	0.69483 0.08474 0.58914 -0.41000
Ni	Ni	0.60786 0.13757 0.59005 1.06300
H 	H 	0.69010 0.33617 0.51499 0.15000
H 	H 	0.69266 0.29458 0.61110 0.14800
C 	C 	0.83508 0.46648 0.59885 0.29800
O 	O 	0.60300 0.12729 0.54167 -0.42100
C 	C 	0.61573 0.49734 0.53051 0.28900
C 	C 	0.88688 0.40766 0.51801 0.28400
C 	C 	0.56085 0.16216 0.52473 0.29300
C 	C 	0.76575 0.13268 0.59792 0.28600
C 	C 	0.48838 0.21908 0.60540 0.29000
O 	O 	0.83974 0.38696 0.59016 -0.37500
O 	O 	0.87532 0.47652 0.53307 -0.41400
Ni	Ni	0.02937 0.97220 0.76716 1.09200
O 	O 	0.02108 0.87288 0.73356 -0.71600
Ni	Ni	0.07580 0.95129 0.69773 1.09300
O 	O 	0.97111 0.87543 0.79924 -0.36200
O 	O 	0.87082 0.81153 0.76358 -0.41600
O 	O 	0.12867 0.95529 0.78114 -0.39600
Ni	Ni	0.91687 0.80295 0.71927 1.06800
O 	O 	0.09450 0.20782 0.77061 -0.40700
O 	O 	0.89454 0.91705 0.70563 -0.41900
O 	O 	0.07452 0.84423 0.66877 -0.38800
O 	O 	0.06667 0.04953 0.72867 -0.70300
O 	O 	0.04741 0.07607 0.80026 -0.37500
O 	O 	0.15196 0.04614 0.66912 -0.37900
O 	O 	0.22952 0.11921 0.71172 -0.41300
Ni	Ni	0.15698 0.15693 0.74130 1.06700
H 	H 	0.04744 0.83084 0.74035 0.15200
H 	H 	0.02630 0.07228 0.72130 0.14500
C 	C 	0.92250 0.96008 0.67942 0.29500
O 	O 	0.19866 0.10852 0.77966 -0.39200
C 	C 	0.90626 0.80881 0.79090 0.27800
C 	C 	0.01025 0.77120 0.66635 0.27500
C 	C 	0.19523 0.02271 0.78104 0.30100
C 	C 	0.21723 0.10670 0.68058 0.27100
C 	C 	0.04634 0.15718 0.79186 0.26200
O 	O 	0.98882 0.96212 0.66911 -0.36400
O 	O 	0.94440 0.77859 0.67398 -0.40400
Ni	Ni	0.24438 0.70361 0.39970 1.09700
O 	O 	0.32468 0.74977 0.36500 -0.70000
Ni	Ni	0.41619 0.73757 0.38816 1.09600
O 	O 	0.16555 0.75176 0.37998 -0.37500
O 	O 	0.23918 0.87763 0.35305 -0.40200
O 	O 	0.19060 0.58266 0.37355 -0.38400
Ni	Ni	0.35154 0.88173 0.35603 1.06400
O 	O 	0.19008 0.51308 0.43241 -0.41100
O 	O 	0.35683 0.91303 0.40366 -0.41800
O 	O 	0.49461 0.79114 0.35382 -0.38900
O 	O 	0.33355 0.68434 0.42107 -0.70800
O 	O 	0.16995 0.65050 0.43540 -0.38700
O 	O 	0.49506 0.70258 0.41452 -0.36900
O 	O 	0.41489 0.55280 0.41825 -0.41300
Ni	Ni	0.30501 0.55038 0.42534 1.06500
H 	H 	0.31152 0.71129 0.34515 0.14800
H 	H 	0.34674 0.71676 0.44208 0.15300
C 	C 	0.41327 0.90979 0.42212 0.28500
O 	O 	0.28664 0.52569 0.37775 -0.42300
C 	C 	0.17738 0.80254 0.35443 0.28900
C 	C 	0.50576 0.87334 0.34235 0.28800
C 	C 	0.22402 0.52617 0.36343 0.29800
C 	C 	0.47584 0.62208 0.42830 0.28400
C 	C 	0.15657 0.56608 0.44561 0.28600
O 	O 	0.45609 0.86292 0.41297 -0.37400
O 	O 	0.46836 0.92389 0.35400 -0.41500
Ni	Ni	0.36446 0.66522 0.04956 1.10000
O 	O 	0.26918 0.66903 0.02579 -0.70400
Ni	Ni	0.21228 0.69822 0.06168 1.09700
O 	O 	0.39269 0.59045 0.01452 -0.37800
O 	O 	0.27103 0.48446 0.01193 -0.42200
O 	O 	0.43197 0.78344 0.02732 -0.37600
Ni	Ni	0.20153 0.55985 0.00245 1.06900
O 	O 	0.48210 0.82659 0.08778 -0.41100
O 	O 	0.12014 0.48387 0.03364 -0.40400
O 	O 	0.10671 0.67693 0.04059 -0.39400
O 	O 	0.31405 0.71159 0.08365 -0.70700
O 	O 	0.45882 0.67314 0.07594 -0.38500
O 	O 	0.18077 0.75102 0.10180 -0.38100
O 	O 	0.28608 0.88393 0.09947 -0.41600
Ni	Ni	0.37781 0.83967 0.09311 1.06300
H 	H 	0.28318 0.72091 0.01091 0.15100
H 	H 	0.30756 0.67369 0.10294 0.15300
C 	C 	0.11962 0.49667 0.06479 0.30500
O 	O 	0.37790 0.88237 0.04741 -0.41800
C 	C 	0.34197 0.51376 0.00234 0.28000
C 	C 	0.08545 0.64436 0.01112 0.31300
C 	C 	0.41603 0.85911 0.02511 0.29300
C 	C 	0.22074 0.83537 0.11256 0.27800
C 	C 	0.49770 0.75036 0.09207 0.28200
O 	O 	0.17183 0.56757 0.07960 -0.40200
O 	O 	0.13445 0.63248 0.99094 -0.42800
Ni	Ni	0.94360 0.03581 0.25846 1.09800
O 	O 	0.95251 0.13057 0.22370 -0.70200
Ni	Ni	0.90506 0.04713 0.18626 1.09700
O 	O 	0.99803 0.13847 0.29185 -0.35500
O 	O 	0.09821 0.19760 0.25886 -0.41800
O 	O 	0.83838 0.04219 0.26874 -0.39500
Ni	Ni	0.05748 0.20050 0.21264 1.05900
O 	O 	0.89121 0.80187 0.25890 -0.40800
O 	O 	0.08534 0.08685 0.20321 -0.41900
O 	O 	0.90918 0.14867 0.15501 -0.38700
O 	O 	0.91215 0.95449 0.21937 -0.70000
O 	O 	0.92890 0.93413 0.29106 -0.37400
O 	O 	0.83251 0.94698 0.15592 -0.37600
O 	O 	0.75477 0.88180 0.19701 -0.41700
Ni	Ni	0.82429 0.84496 0.22902 1.07100
H 	H 	0.92403 0.17178 0.22856 0.15200
H 	H 	0.95435 0.93278 0.21456 0.15600
C 	C 	0.05965 0.03577 0.17732 0.27800
O 	O 	0.77909 0.88528 0.26783 -0.39700
C 	C 	0.06066 0.20694 0.28402 0.25700
C 	C 	0.97491 0.21865 0.15170 0.29100
C 	C 	0.77648 0.96800 0.27203 0.30600
C 	C 	0.76879 0.88546 0.16630 0.27300
C 	C 	0.93372 0.85370 0.28279 0.28600
O 	O 	0.99587 0.03287 0.16292 -0.36500
O 	O 	0.03896 0.21631 0.16510 -0.42900
C 	C 	0.05136 0.32988 0.07541 -0.04100
C 	C 	0.06532 0.42268 0.08372 -0.09900
C 	C 	0.02829 0.44334 0.11029 0.08800
C 	C 	0.98904 0.37217 0.13100 -0.03800
C 	C 	0.98302 0.28063 0.12462 -0.08100
C 	C 	0.00866 0.25850 0.09521 0.08200
N 	N 	0.99482 0.16901 0.08645 -0.18300
H 	H 	0.07569 0.31317 0.05401 0.04400
H 	H 	0.96640 0.38883 0.15287 0.03000
N 	N 	0.02812 0.53005 0.11550 -0.19900
H 	H 	0.01704 0.15310 0.06545 0.07300
H 	H 	0.95994 0.11447 0.09985 0.10700
H 	H 	0.04649 0.58053 0.09822 0.09800
H 	H 	0.00461 0.54593 0.13615 0.07600
C 	C 	0.57888 0.71948 0.13436 -0.04800
C 	C 	0.57346 0.76129 0.10549 -0.09700
C 	C 	0.63981 0.82712 0.09291 0.11400
C 	C 	0.70606 0.86382 0.11231 -0.05100
C 	C 	0.70835 0.83035 0.14310 -0.09100
C 	C 	0.64763 0.75024 0.15249 0.09500
N 	N 	0.65649 0.70030 0.17764 -0.19300
H 	H 	0.52941 0.66432 0.14300 0.03300
H 	H 	0.75479 0.92020 0.10378 0.05800
N 	N 	0.63995 0.85516 0.06232 -0.20100
H 	H 	0.61002 0.64492 0.18567 0.07200
H 	H 	0.71060 0.71098 0.18763 0.04400
H 	H 	0.59407 0.82222 0.04648 0.10600
H 	H 	0.68784 0.90727 0.05362 0.08400
C 	C 	0.11586 0.91361 0.17671 -0.04700
C 	C 	0.10688 0.99009 0.16210 -0.09700
C 	C 	0.13727 0.01688 0.13168 0.10500
C 	C 	0.17188 0.96326 0.11559 -0.04600
C 	C 	0.18063 0.88646 0.12999 -0.09200
C 	C 	0.15300 0.86160 0.16100 0.09400
N 	N 	0.16235 0.78878 0.17589 -0.20000
H 	H 	0.09291 0.89367 0.20014 0.02900
H 	H 	0.19336 0.98234 0.09189 0.04800
N 	N 	0.13488 0.09505 0.11810 -0.20100
H 	H 	0.14042 0.77003 0.19852 0.07100
H 	H 	0.19223 0.75092 0.16546 0.07600
H 	H 	0.11800 0.14233 0.13088 0.10000
H 	H 	0.15376 0.11162 0.09491 0.08100
C 	C 	0.57120 0.91848 0.29093 -0.04700
C 	C 	0.57587 0.91946 0.32436 -0.09600
C 	C 	0.64835 0.95838 0.34019 0.11300
C 	C 	0.71508 0.98601 0.32217 -0.04000
C 	C 	0.71044 0.97583 0.28879 -0.09400
C 	C 	0.63800 0.94847 0.27299 0.09900
N 	N 	0.63232 0.95051 0.24066 -0.20000
H 	H 	0.51562 0.89263 0.27879 0.02400
H 	H 	0.77068 0.00991 0.33430 0.05000
N 	N 	0.65437 0.96855 0.37255 -0.20100
H 	H 	0.57881 0.92593 0.22890 0.07500
H 	H 	0.68074 0.98060 0.22709 0.08400
H 	H 	0.60607 0.95292 0.38649 0.11000
H 	H 	0.70810 0.99496 0.38407 0.09000
C 	C 	0.10244 0.42098 0.33717 -0.03800
C 	C 	0.18257 0.45038 0.34034 -0.10500
C 	C 	0.22102 0.39912 0.32470 0.10500
C 	C 	0.17861 0.31195 0.31135 -0.05500
C 	C 	0.09894 0.28388 0.30690 -0.08700
C 	C 	0.06051 0.34048 0.31932 0.07900
N 	N 	0.98432 0.31968 0.31360 -0.19100
H 	H 	0.07256 0.46137 0.34818 0.04700
H 	H 	0.20841 0.26960 0.30157 0.04900
N 	N 	0.29765 0.43612 0.32029 -0.19800
H 	H 	0.95621 0.35946 0.32424 0.08300
H 	H 	0.95301 0.26743 0.29741 0.08800
H 	H 	0.32762 0.50711 0.32322 0.08100
H 	H 	0.32654 0.39551 0.31088 0.07700
C 	C 	0.04500 0.80221 0.35114 -0.06500
C 	C 	0.10958 0.79970 0.33535 -0.08500
C 	C 	0.11027 0.80037 0.30160 0.09400
C 	C 	0.04926 0.81204 0.28448 -0.06200
C 	C 	0.98732 0.82116 0.30050 -0.08600
C 	C 	0.98316 0.81117 0.33393 0.12900
N 	N 	0.91969 0.80898 0.34956 -0.20200
H 	H 	0.04349 0.79897 0.37695 0.05700
H 	H 	0.05119 0.81705 0.25871 0.03200
N 	N 	0.16869 0.78899 0.28554 -0.19800
H 	H 	0.91816 0.80500 0.37442 0.09100
H 	H 	0.87028 0.80725 0.33714 0.10200
H 	H 	0.21180 0.77308 0.29740 0.05500
H 	H 	0.17002 0.79282 0.26068 0.06900
C 	C 	0.45430 0.02364 0.50431 -0.03900
C 	C 	0.51420 0.10645 0.49787 -0.09300
C 	C 	0.53383 0.12957 0.46591 0.10300
C 	C 	0.49989 0.06421 0.44135 -0.04200
C 	C 	0.44252 0.97954 0.44797 -0.08800
C 	C 	0.41661 0.96105 0.47946 0.09600
N 	N 	0.35531 0.88431 0.48593 -0.19900
H 	H 	0.43741 0.00753 0.52875 0.04000
H 	H 	0.51779 0.07956 0.41698 0.04600
N 	N 	0.58367 0.21471 0.45860 -0.20100
H 	H 	0.33871 0.86906 0.50946 0.07500
H 	H 	0.32129 0.84183 0.46767 0.06500
H 	H 	0.60087 0.26866 0.47552 0.07200
H 	H 	0.60134 0.22948 0.43517 0.07600
C 	C 	0.95120 0.42867 0.46634 -0.03800
C 	C 	0.95708 0.42960 0.49971 -0.08000
C 	C 	0.02970 0.47085 0.51520 0.09600
C 	C 	0.09394 0.51709 0.49711 -0.05000
C 	C 	0.08720 0.52101 0.46388 -0.09200
C 	C 	0.01531 0.47528 0.44820 0.09600
N 	N 	0.00706 0.47753 0.41592 -0.20800
H 	H 	0.89566 0.39634 0.45451 0.03300
H 	H 	0.14943 0.54958 0.50896 0.03100
N 	N 	0.03799 0.46623 0.54739 -0.20700
H 	H 	0.95434 0.44149 0.40451 0.09300
H 	H 	0.05204 0.51663 0.40192 0.10700
H 	H 	0.99262 0.42657 0.56117 0.12000
H 	H 	0.09104 0.50011 0.55885 0.08200
C 	C 	0.53817 0.64992 0.48185 -0.05400
C 	C 	0.52817 0.60537 0.45185 -0.09900
C 	C 	0.55538 0.53230 0.44705 0.10600
C 	C 	0.58301 0.49733 0.47325 -0.04900
C 	C 	0.58742 0.53716 0.50377 -0.10800
C 	C 	0.56676 0.61581 0.50809 0.10900
N 	N 	0.57198 0.65706 0.53737 -0.20200
H 	H 	0.51898 0.70754 0.48525 0.04000
H 	H 	0.60178 0.43939 0.46984 0.02700
N 	N 	0.55613 0.49654 0.41729 -0.19900
H 	H 	0.55699 0.71542 0.54020 0.08000
H 	H 	0.59005 0.63131 0.55763 0.09500
H 	H 	0.54288 0.52702 0.39706 0.09500
H 	H 	0.57340 0.44005 0.41404 0.07900
C 	C 	0.82475 0.01601 0.60708 -0.04200
C 	C 	0.80521 0.08894 0.61917 -0.09000
C 	C 	0.81964 0.11561 0.65181 0.09000
C 	C 	0.85507 0.06959 0.67161 -0.04000
C 	C 	0.87559 0.99742 0.65938 -0.10300
C 	C 	0.85766 0.96801 0.62706 0.11200
N 	N 	0.86962 0.89213 0.61540 -0.20100
H 	H 	0.81222 0.99474 0.58218 0.05200
H 	H 	0.86816 0.09131 0.69641 0.03400
N 	N 	0.79989 0.18520 0.66425 -0.19900
H 	H 	0.86025 0.87405 0.59113 0.08700
H 	H 	0.88379 0.84746 0.63045 0.10700
H 	H 	0.77228 0.21973 0.65034 0.06000
H 	H 	0.81174 0.20520 0.68829 0.07100
C 	C 	0.28323 0.09788 0.63007 -0.05400
C 	C 	0.28237 0.14548 0.65878 -0.08800
C 	C 	0.34588 0.22659 0.66721 0.09500
C 	C 	0.41341 0.24857 0.64991 -0.04600
C 	C 	0.41498 0.19896 0.62184 -0.09900
C 	C 	0.34697 0.12815 0.61044 0.11000
N 	N 	0.34099 0.09299 0.58017 -0.20100
H 	H 	0.23363 0.03852 0.62253 0.05500
H 	H 	0.46406 0.30606 0.65785 0.03900
N 	N 	0.34077 0.28641 0.69030 -0.19300
H 	H 	0.29310 0.03596 0.57281 0.08300
H 	H 	0.38001 0.12683 0.56294 0.10700
H 	H 	0.28778 0.28383 0.69839 0.05500
H 	H 	0.38939 0.34185 0.69812 0.07400
C 	C 	0.98094 0.60465 0.66170 -0.02200
C 	C 	0.00702 0.69068 0.64695 -0.14300
C 	C 	0.99667 0.69312 0.61364 0.15100
C 	C 	0.94248 0.61690 0.59765 -0.05800
C 	C 	0.90246 0.53691 0.61437 -0.08700
C 	C 	0.92583 0.52791 0.64610 0.09100
N 	N 	0.89374 0.44794 0.66205 -0.19900
H 	H 	0.99487 0.60078 0.68676 0.02100
H 	H 	0.92906 0.62139 0.57260 0.04200
N 	N 	0.03514 0.77034 0.59731 -0.21500
H 	H 	0.91122 0.44251 0.68554 0.07500
H 	H 	0.85142 0.39050 0.65139 0.08600
H 	H 	0.07857 0.82587 0.60844 0.10100
H 	H 	0.02416 0.77379 0.57290 0.07700
C 	C 	0.90979 0.59729 0.95895 -0.06300
C 	C 	0.86087 0.51613 0.97262 -0.08100
C 	C 	0.88053 0.48917 0.00269 0.09000
C 	C 	0.95186 0.53996 0.01711 -0.00700
C 	C 	0.00442 0.61427 0.00141 -0.15100
C 	C 	0.98138 0.64715 0.97324 0.15600
N 	N 	0.02757 0.72653 0.95994 -0.21400
H 	H 	0.89325 0.61973 0.93649 0.05800
H 	H 	0.96862 0.51741 0.03949 0.04800
N 	N 	0.83262 0.41319 0.01729 -0.19800
H 	H 	0.01142 0.74861 0.93843 0.08100
H 	H 	0.07837 0.76880 0.97143 0.08900
H 	H 	0.77928 0.37356 0.00723 0.08800
H 	H 	0.84845 0.39319 0.03924 0.08500
C 	C 	0.43985 0.00634 0.95184 -0.04800
C 	C 	0.51998 0.04470 0.95013 -0.09400
C 	C 	0.56571 0.02882 0.97506 0.09900
C 	C 	0.53062 0.96508 0.99869 -0.03900
C 	C 	0.45058 0.92472 0.99975 -0.09600
C 	C 	0.40469 0.94738 0.97651 0.10000
N 	N 	0.32697 0.91241 0.97753 -0.20000
H 	H 	0.40445 0.02269 0.93394 0.05400
H 	H 	0.56560 0.95026 0.01719 0.04500
N 	N 	0.64192 0.07883 0.97779 -0.19600
H 	H 	0.29379 0.92743 0.95963 0.07800
H 	H 	0.29860 0.87197 0.99627 0.07400
H 	H 	0.66652 0.13963 0.96525 0.07900
H 	H 	0.67607 0.06190 0.99478 0.08100
C 	C 	0.40658 0.35149 0.95279 -0.05500
C 	C 	0.43122 0.40455 0.92554 -0.10700
C 	C 	0.41356 0.48501 0.92134 0.10300
C 	C 	0.38008 0.51707 0.94623 -0.04900
C 	C 	0.36209 0.46864 0.97474 -0.10700
C 	C 	0.37228 0.38293 0.97756 0.10700
N 	N 	0.35108 0.33172 0.00420 -0.20400
H 	H 	0.41788 0.28806 0.95551 0.04300
H 	H 	0.36957 0.58107 0.94370 0.02900
N 	N 	0.42760 0.53087 0.89339 -0.20000
H 	H 	0.36020 0.26933 0.00626 0.08000
H 	H 	0.32443 0.35234 0.02287 0.09100
H 	H 	0.44588 0.50403 0.87350 0.09000
H 	H 	0.41705 0.59225 0.89088 0.07800
C 	C 	0.86523 0.19889 0.81014 -0.03400
C 	C 	0.87307 0.21141 0.84336 -0.10900
C 	C 	0.94310 0.21956 0.85895 0.13800
C 	C 	0.00295 0.21156 0.84095 -0.09100
C 	C 	0.99357 0.19381 0.80790 -0.05000
C 	C 	0.92512 0.19109 0.79215 0.07800
N 	N 	0.91623 0.18028 0.75987 -0.19700
H 	H 	0.81238 0.19550 0.79816 0.01900
H 	H 	0.05560 0.21439 0.85296 0.06000
N 	N 	0.95272 0.23284 0.89116 -0.19600
H 	H 	0.86483 0.17613 0.74855 0.07200
H 	H 	0.96071 0.17871 0.74563 0.07300
H 	H 	0.90853 0.23532 0.90543 0.09600
H 	H 	0.00488 0.23968 0.90237 0.07300
C 	C 	0.39976 0.04391 0.78669 -0.04200
C 	C 	0.40845 0.03967 0.81984 -0.09900
C 	C 	0.34269 0.00040 0.83825 0.12100
C 	C 	0.27046 0.98719 0.82464 -0.05100
C 	C 	0.26318 0.00487 0.79234 -0.08900
C 	C 	0.32659 0.02189 0.77260 0.09700
N 	N 	0.31696 0.01288 0.74038 -0.19400
H 	H 	0.44985 0.06762 0.77206 0.03000
H 	H 	0.22064 0.96707 0.83945 0.05300
N 	N 	0.34888 0.97685 0.86899 -0.20300
H 	H 	0.36426 0.03131 0.72572 0.08100
H 	H 	0.26256 0.98070 0.72989 0.07000
H 	H 	0.40046 0.97550 0.87837 0.10400
H 	H 	0.30071 0.95361 0.88314 0.08200
C 	C 	0.75608 0.65579 0.84524 -0.04300
C 	C 	0.79138 0.59477 0.85549 -0.10200
C 	C 	0.86691 0.60852 0.84628 0.11100
C 	C 	0.90341 0.67922 0.82516 -0.05200
C 	C 	0.86749 0.73898 0.81438 -0.09500
C 	C 	0.79434 0.72963 0.82551 0.10400
N 	N 	0.76179 0.79280 0.81832 -0.19900
H 	H 	0.69900 0.64654 0.85298 0.04300
H 	H 	0.96023 0.68804 0.81720 0.04300
N 	N 	0.90534 0.55593 0.85822 -0.20200
H 	H 	0.70643 0.78307 0.82549 0.07700
H 	H 	0.79231 0.85427 0.80709 0.09300
H 	H 	0.88322 0.50933 0.87637 0.10500
H 	H 	0.95990 0.56436 0.85032 0.08800
