data_crystal

_cell_length_a 24.75212
_cell_length_b 22.17176
_cell_length_c 31.78938
_cell_angle_alpha 104.01537
_cell_angle_beta  115.93823
_cell_angle_gamma 111.52233

_symmetry_space_group_name_	'P 1'
_symmetry_space_group_name_H-M	'P 1'

loop_
_symmetry_equiv_pos_as_xyz
  x,y,z

loop_
_atom_site_label
_atom_site_type_symbol
_atom_site_fract_x
_atom_site_fract_y
_atom_site_fract_z
_atom_site_charge
C 	C 	0.77212 0.53607 0.98078 0.02500
C 	C 	0.82378 0.53950 0.02582 -0.00900
C 	C 	0.80685 0.47903 0.03510 -0.04400
C 	C 	0.73843 0.41439 0.99927 0.06700
C 	C 	0.68582 0.41189 0.95495 -0.05400
C 	C 	0.70281 0.47252 0.94581 -0.01900
N 	N 	0.72379 0.35064 0.00745 -0.12900
C 	C 	0.52842 0.25050 0.99170 0.01700
C 	C 	0.53161 0.21832 0.94979 -0.00600
C 	C 	0.59561 0.25054 0.95462 -0.07700
C 	C 	0.65755 0.31476 0.00208 0.10200
C 	C 	0.65444 0.34547 0.04438 -0.06500
C 	C 	0.59016 0.31364 0.03920 -0.00100
C 	C 	0.78013 0.21286 0.94309 0.05500
C 	C 	0.79278 0.22836 0.99312 -0.06100
C 	C 	0.77301 0.27265 0.01351 -0.01400
C 	C 	0.74052 0.30202 0.98424 0.05000
C 	C 	0.72575 0.28445 0.93315 -0.04500
C 	C 	0.74600 0.24045 0.91296 -0.03800
H 	H 	0.87750 0.58844 0.05296 0.05900
H 	H 	0.84737 0.48158 0.06947 0.06000
H 	H 	0.63274 0.36235 0.92681 0.06000
H 	H 	0.66268 0.46948 0.91089 0.06000
H 	H 	0.48405 0.16942 0.91300 0.05500
H 	H 	0.59652 0.22686 0.92112 0.06300
H 	H 	0.70180 0.39469 0.08100 0.06800
H 	H 	0.58803 0.33864 0.07179 0.05700
H 	H 	0.81923 0.20720 0.01662 0.08800
H 	H 	0.78392 0.28523 0.05251 0.05400
H 	H 	0.69804 0.30393 0.90893 0.05100
H 	H 	0.73569 0.22829 0.87414 0.05800
C 	C 	0.72237 0.49913 0.45051 0.03400
C 	C 	0.77165 0.50005 0.49528 -0.02200
C 	C 	0.75048 0.44011 0.50469 -0.05700
C 	C 	0.68006 0.37857 0.46931 0.08200
C 	C 	0.62985 0.37896 0.42544 -0.06000
C 	C 	0.65119 0.43893 0.41602 -0.02000
N 	N 	0.66137 0.31421 0.47675 -0.14100
C 	C 	0.46954 0.22033 0.46655 0.03600
C 	C 	0.46928 0.18859 0.42255 -0.02100
C 	C 	0.53171 0.21967 0.42518 -0.05900
C 	C 	0.59557 0.28243 0.47241 0.08500
C 	C 	0.59560 0.31375 0.51637 -0.05500
C 	C 	0.53283 0.28316 0.51340 -0.01600
C 	C 	0.70648 0.16606 0.40892 0.03200
C 	C 	0.72219 0.18456 0.46004 -0.01600
C 	C 	0.70590 0.23212 0.48153 -0.05600
C 	C 	0.67423 0.26211 0.45243 0.08300
C 	C 	0.65665 0.24188 0.40042 -0.06100
C 	C 	0.67307 0.19429 0.37899 -0.02300
H 	H 	0.82666 0.54665 0.52224 0.05600
H 	H 	0.78922 0.44048 0.53872 0.06000
H 	H 	0.57521 0.33195 0.39779 0.05400
H 	H 	0.61278 0.43806 0.38146 0.05800
H 	H 	0.42029 0.14072 0.38594 0.05600
H 	H 	0.53008 0.19592 0.39033 0.05800
H 	H 	0.64439 0.36204 0.55279 0.06500
H 	H 	0.53316 0.30870 0.54727 0.06400
H 	H 	0.74835 0.16318 0.48351 0.06400
H 	H 	0.71903 0.24685 0.52129 0.06700
H 	H 	0.62962 0.26204 0.37645 0.05500
H 	H 	0.66051 0.17998 0.33939 0.05300
C 	C 	0.35644 0.55100 0.98969 0.01300
C 	C 	0.38506 0.60654 0.03961 0.00300
C 	C 	0.42424 0.68104 0.05377 -0.06700
C 	C 	0.43489 0.70085 0.01813 0.10400
C 	C 	0.40743 0.64498 0.96840 -0.07800
C 	C 	0.36817 0.57043 0.95428 -0.00600
N 	N 	0.47122 0.77813 0.03214 -0.14500
C 	C 	0.63499 0.84968 0.00799 0.05900
C 	C 	0.56662 0.83103 0.96928 -0.03400
C 	C 	0.51240 0.80734 0.97679 -0.06600
C 	C 	0.52629 0.80231 0.02338 0.09200
C 	C 	0.59484 0.82127 0.06202 -0.05400
C 	C 	0.64898 0.84497 0.05444 -0.02400
C 	C 	0.33685 0.86249 0.99720 0.02300
C 	C 	0.40604 0.90512 0.04476 0.00100
C 	C 	0.45045 0.87765 0.05543 -0.06400
C 	C 	0.42650 0.80777 0.01844 0.09900
C 	C 	0.35801 0.76640 0.96970 -0.07700
C 	C 	0.31338 0.79347 0.95948 -0.01600
H 	H 	0.37634 0.59193 0.06722 0.05700
H 	H 	0.44533 0.72355 0.09211 0.06900
H 	H 	0.41480 0.65919 0.94026 0.06300
H 	H 	0.34628 0.52784 0.91566 0.05500
H 	H 	0.55531 0.83414 0.93315 0.06300
H 	H 	0.45954 0.79165 0.94608 0.05600
H 	H 	0.60603 0.81757 0.09794 0.05800
H 	H 	0.70161 0.85912 0.08446 0.05000
H 	H 	0.42513 0.95914 0.07365 0.06900
H 	H 	0.50319 0.91018 0.09278 0.06700
H 	H 	0.33962 0.71394 0.93961 0.05800
H 	H 	0.26054 0.76086 0.92216 0.05200
C 	C 	0.29761 0.53181 0.46924 0.03400
C 	C 	0.33061 0.58976 0.51955 -0.01800
C 	C 	0.37132 0.66316 0.53209 -0.05700
C 	C 	0.37873 0.67961 0.49431 0.08200
C 	C 	0.34606 0.62134 0.44389 -0.06000
C 	C 	0.30565 0.54783 0.43151 -0.02200
N 	N 	0.41631 0.75607 0.50676 -0.14000
C 	C 	0.56860 0.82021 0.47091 0.03600
C 	C 	0.49918 0.80162 0.43471 -0.01800
C 	C 	0.44847 0.77960 0.44579 -0.05600
C 	C 	0.46696 0.77617 0.49348 0.08500
C 	C 	0.53639 0.79466 0.52946 -0.05500
C 	C 	0.58696 0.81648 0.51824 -0.01700
C 	C 	0.28923 0.84880 0.48082 0.03400
C 	C 	0.35842 0.88797 0.52790 -0.01600
C 	C 	0.40056 0.85792 0.53554 -0.05300
C 	C 	0.37382 0.78838 0.49634 0.08400
C 	C 	0.30473 0.74980 0.44860 -0.05900
C 	C 	0.26272 0.77988 0.44109 -0.01800
H 	H 	0.32457 0.57788 0.54889 0.05900
H 	H 	0.39610 0.70753 0.57088 0.06200
H 	H 	0.35065 0.63297 0.41406 0.05600
H 	H 	0.28033 0.50341 0.39255 0.05600
H 	H 	0.48429 0.80337 0.39772 0.06500
H 	H 	0.39481 0.76407 0.41700 0.06200
H 	H 	0.55113 0.79224 0.56620 0.06200
H 	H 	0.64022 0.82992 0.54611 0.05600
H 	H 	0.37943 0.94150 0.55860 0.06500
H 	H 	0.45366 0.88809 0.57228 0.06700
H 	H 	0.28394 0.69721 0.41719 0.05600
H 	H 	0.20957 0.74969 0.40435 0.05800
Zn	Zn	0.18490 0.16767 0.00617 1.19700
Zn	Zn	0.06687 0.09706 0.88662 1.20100
O 	O 	0.05947 0.97496 0.80455 -0.42500
O 	O 	0.02834 0.06035 0.80827 -0.42400
O 	O 	0.07090 0.89273 0.88271 -0.46800
C 	C 	0.26602 0.14200 0.97344 0.33100
O 	O 	0.00301 0.99657 0.87039 -0.85200
C 	C 	0.18725 0.25930 0.95269 0.35500
O 	O 	0.27005 0.17250 0.01642 -0.43200
O 	O 	0.20389 0.10272 0.92667 -0.33900
O 	O 	0.08888 0.11335 0.95982 -0.77400
O 	O 	0.13038 0.99576 0.96135 -0.43200
O 	O 	0.13902 0.19853 0.90568 -0.42100
O 	O 	0.20286 0.25767 0.99755 -0.44200
Zn	Zn	0.88266 0.88063 0.89954 1.18100
Zn	Zn	0.01234 0.92895 0.99992 1.19300
Zn	Zn	0.03257 0.01257 0.94134 1.21100
C 	C 	0.88607 0.78010 0.94689 0.34800
C 	C 	0.84840 0.93639 0.96679 0.34500
O 	O 	0.93611 0.03367 0.92182 -0.46500
Zn	Zn	0.01697 0.06599 0.03322 1.20600
O 	O 	0.95601 0.82516 0.98159 -0.45000
O 	O 	0.85003 0.78737 0.90541 -0.44000
O 	O 	0.82666 0.90970 0.91689 -0.46500
O 	O 	0.91419 0.95942 0.00433 -0.45300
C 	C 	0.05200 0.01735 0.11107 0.31000
O 	O 	0.97456 0.91206 0.92345 -0.78500
C 	C 	0.93656 0.08681 0.95189 0.34700
O 	O 	0.04768 0.96222 0.07880 -0.40200
O 	O 	0.05914 0.07511 0.10395 -0.44100
O 	O 	0.97135 0.11092 0.00338 -0.45100
O 	O 	0.06222 0.02908 0.01210 -0.89600
Zn	Zn	0.02781 0.93368 0.84396 1.19300
C 	C 	0.03730 0.01237 0.78320 0.29500
C 	C 	0.12537 0.93707 0.93288 0.33700
H 	H 	0.11459 0.05672 0.03896 0.16500
H 	H 	0.95174 0.97790 0.84611 0.15700
Zn	Zn	0.12619 0.14439 0.48400 1.19000
Zn	Zn	0.01267 0.07631 0.36570 1.20300
O 	O 	0.01945 0.96025 0.28914 -0.45500
O 	O 	0.98389 0.04218 0.28942 -0.44200
O 	O 	0.02736 0.87699 0.36629 -0.47400
C 	C 	0.20920 0.12123 0.45146 0.33300
O 	O 	0.95199 0.97354 0.34768 -0.86600
C 	C 	0.12803 0.24070 0.43468 0.35800
O 	O 	0.21297 0.15326 0.49404 -0.45400
O 	O 	0.14656 0.07556 0.40521 -0.34900
O 	O 	0.02974 0.08890 0.43730 -0.76300
O 	O 	0.07929 0.97879 0.44319 -0.43600
O 	O 	0.08147 0.18104 0.38696 -0.40400
O 	O 	0.14271 0.23619 0.47852 -0.44100
Zn	Zn	0.82805 0.84141 0.36768 1.18400
Zn	Zn	0.95745 0.89907 0.47368 1.20100
Zn	Zn	0.97615 0.98661 0.41720 1.21900
C 	C 	0.83886 0.74458 0.41797 0.34800
C 	C 	0.77923 0.88460 0.42649 0.34000
O 	O 	0.87306 0.99782 0.39142 -0.43900
Zn	Zn	0.94426 0.02360 0.50206 1.20100
O 	O 	0.90768 0.79412 0.45485 -0.42200
O 	O 	0.80273 0.74858 0.37468 -0.41500
O 	O 	0.76199 0.85860 0.37778 -0.44800
O 	O 	0.84421 0.90944 0.46675 -0.46700
C 	C 	0.99117 0.98075 0.58373 0.33500
O 	O 	0.92293 0.88432 0.39799 -0.77800
C 	C 	0.86411 0.04282 0.41940 0.34100
O 	O 	0.99266 0.93059 0.55235 -0.41400
O 	O 	0.98254 0.03134 0.57251 -0.46300
O 	O 	0.89366 0.06326 0.47014 -0.48400
O 	O 	0.00033 0.00004 0.48647 -0.89700
Zn	Zn	0.98345 0.91566 0.32540 1.19000
C 	C 	0.00032 0.99944 0.26810 0.37200
C 	C 	0.07794 0.92134 0.41736 0.35300
H 	H 	0.05211 0.03184 0.51566 0.16800
H 	H 	0.90046 0.95200 0.32141 0.16400
C 	C 	0.00051 0.98121 0.63272 -0.09700
C 	C 	0.94652 0.97271 0.64004 0.14300
C 	C 	0.96022 0.98612 0.69009 -0.04000
C 	C 	0.02562 0.00297 0.73196 -0.09800
C 	C 	0.07882 0.00871 0.72411 0.11700
C 	C 	0.06553 0.99672 0.67420 0.00300
H 	H 	0.91917 0.98152 0.69592 0.06000
H 	H 	0.10656 0.00153 0.66831 0.04300
O 	O 	0.88142 0.95536 0.59894 -0.18500
O 	O 	0.14185 0.02078 0.76398 -0.16800
C 	C 	0.83427 0.87774 0.57028 -0.03000
H 	H 	0.85330 0.85062 0.55105 0.05400
H 	H 	0.78145 0.86358 0.53808 0.06200
H 	H 	0.82585 0.85505 0.59607 0.05100
C 	C 	0.19328 0.09755 0.79476 -0.03500
H 	H 	0.20460 0.12119 0.77026 0.05400
H 	H 	0.24397 0.10691 0.82630 0.07300
H 	H 	0.17690 0.12740 0.81513 0.06100
C 	C 	0.04327 0.01150 0.15313 -0.10200
C 	C 	0.08314 0.07460 0.20303 0.14800
C 	C 	0.06443 0.07180 0.23855 -0.03000
C 	C 	0.00969 0.00529 0.22645 -0.13200
C 	C 	0.96984 0.94223 0.17668 0.16300
C 	C 	0.98819 0.94502 0.14096 -0.03800
H 	H 	0.09391 0.12093 0.27619 0.08700
H 	H 	0.95735 0.89626 0.10272 0.06700
O 	O 	0.13784 0.14048 0.21587 -0.17800
O 	O 	0.91496 0.87656 0.16392 -0.19800
C 	C 	0.20232 0.14329 0.24273 -0.03400
H 	H 	0.21526 0.14171 0.28054 0.06600
H 	H 	0.24636 0.19646 0.25349 0.05700
H 	H 	0.20093 0.09805 0.21669 0.04900
C 	C 	0.85016 0.87250 0.13490 -0.03100
H 	H 	0.85083 0.91935 0.15851 0.04400
H 	H 	0.80629 0.82075 0.12582 0.06500
H 	H 	0.83740 0.87002 0.09604 0.06100
C 	C 	0.25417 0.45430 0.45607 -0.00200
C 	C 	0.28714 0.42014 0.47932 0.14000
C 	C 	0.24535 0.35010 0.47161 -0.01500
C 	C 	0.17050 0.31253 0.43960 -0.10300
C 	C 	0.13734 0.34539 0.41458 0.20400
C 	C 	0.17927 0.41609 0.42299 -0.09500
H 	H 	0.27113 0.32473 0.49049 0.08000
H 	H 	0.15364 0.44202 0.40481 0.08800
Cl	Cl	0.38079 0.46421 0.51775 -0.30900
Cl	Cl	0.04358 0.30033 0.37473 -0.29700
C 	C 	0.62030 0.83767 0.45721 -0.00100
C 	C 	0.67573 0.91129 0.48004 0.14000
C 	C 	0.72662 0.92621 0.46887 -0.01900
C 	C 	0.72229 0.86826 0.43460 -0.12000
C 	C 	0.66541 0.79474 0.41048 0.20500
C 	C 	0.61511 0.77994 0.42211 -0.09900
H 	H 	0.76973 0.98285 0.48707 0.06900
H 	H 	0.57229 0.72328 0.40425 0.09100
Cl	Cl	0.68175 0.98528 0.52238 -0.29300
Cl	Cl	0.65702 0.72028 0.36646 -0.32500
C 	C 	0.14048 0.91587 0.44243 -0.12900
C 	C 	0.14836 0.88263 0.47537 0.21200
C 	C 	0.20013 0.86462 0.49043 -0.10200
C 	C 	0.24423 0.87974 0.47289 0.00200
C 	C 	0.23959 0.91767 0.44307 0.13400
C 	C 	0.18769 0.93533 0.42785 -0.01900
H 	H 	0.20434 0.83649 0.51415 0.09100
H 	H 	0.18235 0.96181 0.40303 0.07000
Cl	Cl	0.09173 0.86045 0.49614 -0.36300
Cl	Cl	0.29689 0.94106 0.42296 -0.28700
C 	C 	0.31231 0.47250 0.97397 0.00700
C 	C 	0.34459 0.43451 0.99119 0.12600
C 	C 	0.30277 0.36349 0.98215 -0.01600
C 	C 	0.22864 0.32948 0.95547 -0.11800
C 	C 	0.19585 0.36584 0.93568 0.20700
C 	C 	0.23779 0.43716 0.94510 -0.10300
H 	H 	0.32811 0.33525 0.99677 0.06700
H 	H 	0.21265 0.46590 0.93121 0.09000
Cl	Cl	0.43747 0.47560 0.02459 -0.28300
Cl	Cl	0.10271 0.32399 0.90094 -0.30200
C 	C 	0.69138 0.87211 0.99910 -0.02700
C 	C 	0.69946 0.81883 0.97264 0.13800
C 	C 	0.75021 0.84034 0.96160 -0.02300
C 	C 	0.79442 0.91502 0.97786 -0.13100
C 	C 	0.78805 0.96867 0.00590 0.22100
C 	C 	0.73618 0.94696 0.01598 -0.08400
H 	H 	0.75564 0.79899 0.94066 0.06700
H 	H 	0.73056 0.98823 0.03678 0.09000
Cl	Cl	0.64682 0.72502 0.95364 -0.30500
Cl	Cl	0.84431 0.06312 0.02834 -0.34000
C 	C 	0.28952 0.89097 0.98589 -0.00900
C 	C 	0.25588 0.89220 0.01193 0.16600
C 	C 	0.20510 0.91160 0.99641 -0.04200
C 	C 	0.18646 0.92830 0.95432 -0.10600
C 	C 	0.22227 0.92999 0.92979 0.20700
C 	C 	0.27371 0.91172 0.94585 -0.08500
H 	H 	0.17818 0.91086 0.01570 0.06900
H 	H 	0.30042 0.91219 0.92640 0.08800
Cl	Cl	0.27428 0.86621 0.06228 -0.30300
Cl	Cl	0.20364 0.95538 0.87911 -0.32500
C 	C 	0.81070 0.05919 0.39214 -0.12600
C 	C 	0.83305 0.12800 0.39320 0.20200
C 	C 	0.79322 0.15974 0.39175 -0.10100
C 	C 	0.73121 0.12283 0.38916 -0.00100
C 	C 	0.70278 0.04885 0.37871 0.12800
C 	C 	0.74235 0.01700 0.37961 -0.03800
H 	H 	0.81357 0.21548 0.39716 0.08900
H 	H 	0.72286 0.96201 0.37547 0.08100
Cl	Cl	0.91432 0.17788 0.40149 -0.34300
Cl	Cl	0.62044 0.99769 0.36868 -0.28700
C 	C 	0.80394 0.67932 0.42227 -0.10400
C 	C 	0.80280 0.61534 0.40013 0.20900
C 	C 	0.77390 0.55565 0.40814 -0.09700
C 	C 	0.74634 0.55946 0.43830 -0.00200
C 	C 	0.74585 0.62275 0.45925 0.14000
C 	C 	0.77471 0.68235 0.45121 -0.01600
H 	H 	0.77408 0.50683 0.39178 0.08800
H 	H 	0.77493 0.73133 0.46784 0.07000
Cl	Cl	0.83869 0.60989 0.36322 -0.31100
Cl	Cl	0.71008 0.62842 0.49624 -0.32000
C 	C 	0.40201 0.19242 0.46162 -0.00000
C 	C 	0.38890 0.15545 0.48968 0.14100
C 	C 	0.32557 0.13224 0.48609 -0.01800
C 	C 	0.27465 0.14450 0.45399 -0.11700
C 	C 	0.28731 0.18029 0.42521 0.20500
C 	C 	0.35079 0.20409 0.42923 -0.09900
H 	H 	0.31571 0.10412 0.50791 0.06900
H 	H 	0.36073 0.23246 0.40756 0.08500
Cl	Cl	0.45060 0.13655 0.52851 -0.29800
Cl	Cl	0.22526 0.19797 0.38535 -0.34000
C 	C 	0.80807 0.17293 0.92459 -0.01100
C 	C 	0.77635 0.09677 0.90799 0.14500
C 	C 	0.81566 0.06465 0.90853 -0.02000
C 	C 	0.88700 0.10867 0.92705 -0.12300
C 	C 	0.91421 0.18151 0.93522 0.20100
C 	C 	0.87459 0.21346 0.93392 -0.09300
H 	H 	0.79302 0.00728 0.89937 0.07200
H 	H 	0.89789 0.27138 0.94433 0.08800
Cl	Cl	0.68969 0.04251 0.89060 -0.31800
Cl	Cl	0.00035 0.23509 0.95156 -0.33000
C 	C 	0.79260 0.59601 0.96757 0.00200
C 	C 	0.80483 0.66433 0.99666 0.13500
C 	C 	0.83347 0.72378 0.98842 -0.02900
C 	C 	0.84922 0.71536 0.95087 -0.11700
C 	C 	0.83382 0.64615 0.92000 0.21000
C 	C 	0.80554 0.58680 0.92843 -0.10100
H 	H 	0.84448 0.77687 0.01178 0.07100
H 	H 	0.79556 0.53404 0.90563 0.08800
Cl	Cl	0.78464 0.67612 0.04358 -0.29700
Cl	Cl	0.85212 0.63379 0.87198 -0.32600
C 	C 	0.33150 0.16592 0.97615 -0.11700
C 	C 	0.38340 0.15382 0.00758 0.21700
C 	C 	0.44707 0.18038 0.01158 -0.09100
C 	C 	0.45982 0.21993 0.98507 -0.00700
C 	C 	0.40786 0.23204 0.95369 0.13600
C 	C 	0.34376 0.20432 0.94892 -0.02200
H 	H 	0.48698 0.17093 0.03571 0.08500
H 	H 	0.30415 0.21437 0.92515 0.06600
Cl	Cl	0.36933 0.10540 0.04205 -0.33000
Cl	Cl	0.42361 0.28438 0.92185 -0.31000
