data_crystal

_cell_length_a 24.42270
_cell_length_b 24.64540
_cell_length_c 26.46796
_cell_angle_alpha 95.44015
_cell_angle_beta  95.44135
_cell_angle_gamma 125.84001

_symmetry_space_group_name_	'P 1'
_symmetry_space_group_name_H-M	'P 1'

loop_
_symmetry_equiv_pos_as_xyz
  x,y,z

loop_
_atom_site_label
_atom_site_type_symbol
_atom_site_fract_x
_atom_site_fract_y
_atom_site_fract_z
_atom_site_charge
N 	N 	0.04398 0.07165 0.01435 -0.11800
C 	C 	0.06695 0.03529 0.99894 0.07200
C 	C 	0.04772 0.02278 0.49853 0.09100
C 	C 	0.12320 0.06484 0.50921 0.10400
C 	C 	0.15891 0.03747 0.51229 -0.09900
H 	H 	0.26682 0.03344 0.49273 0.06800
O 	O 	0.16954 0.03518 0.01280 -0.20500
H 	H 	0.27071 0.02005 0.00175 0.08300
N 	N 	0.01630 0.05332 0.49631 -0.11500
H 	H 	0.73022 0.01051 0.43559 0.06600
H 	H 	0.77081 0.03939 0.04921 0.06700
C 	C 	0.78065 0.05824 0.43876 -0.08600
C 	C 	0.14084 0.06913 0.00278 0.12400
C 	C 	0.27641 0.06325 0.98888 -0.11700
C 	C 	0.26859 0.07757 0.48796 -0.09500
C 	C 	0.22344 0.08767 0.50816 0.02700
H 	H 	0.70889 0.10248 0.02261 0.05700
C 	C 	0.22496 0.14355 0.50197 0.11300
C 	C 	0.31767 0.12740 0.46297 0.12100
O 	O 	0.16286 0.13305 0.50371 -0.20200
O 	O 	0.37973 0.13809 0.46015 -0.19100
C 	C 	0.23396 0.08144 0.00116 0.14300
C 	C 	0.32513 0.10133 0.95829 0.02300
C 	C 	0.24295 0.13763 0.98589 0.00700
C 	C 	0.18393 0.12999 0.98648 -0.09800
C 	C 	0.38605 0.11204 0.96152 -0.06600
H 	H 	0.16682 0.15338 0.96357 0.06400
H 	H 	0.40256 0.08977 0.98640 0.05900
H 	H 	0.69341 0.09473 0.42510 0.05200
C 	C 	0.81563 0.08528 0.04072 -0.08300
C 	C 	0.76279 0.14204 0.02320 -0.06000
C 	C 	0.78905 0.11214 0.41721 0.00700
C 	C 	0.85310 0.17345 0.42140 0.11900
C 	C 	0.74316 0.12573 0.41377 -0.05800
C 	C 	0.81037 0.13185 0.01864 0.00600
O 	O 	0.84226 0.01351 0.46942 -0.20100
C 	C 	0.83959 0.06756 0.46373 0.11000
C 	C 	0.31785 0.18209 0.45556 0.00900
H 	H 	0.02128 0.17154 0.00567 0.07000
C 	C 	0.33345 0.15706 0.94227 0.11000
C 	C 	0.87995 0.09753 0.04816 0.11300
C 	C 	0.27417 0.19328 0.47694 -0.08400
C 	C 	0.29020 0.17457 0.95410 -0.08500
C 	C 	0.42984 0.17415 0.94694 0.04200
C 	C 	0.78070 0.19513 0.41534 0.03700
C 	C 	0.86646 0.19018 0.00757 0.11900
O 	O 	0.88609 0.04487 0.04700 -0.20200
C 	C 	0.90304 0.12937 0.46921 0.02600
C 	C 	0.91191 0.18215 0.44594 -0.09700
O 	O 	0.53309 0.19001 0.98586 -0.35600
O 	O 	0.68550 0.19641 0.00515 -0.35000
H 	H 	0.63543 0.20569 0.16027 0.05000
C 	C 	0.41688 0.20451 0.45040 0.04200
C 	C 	0.79014 0.20569 0.01130 0.04800
C 	C 	0.91373 0.04946 0.47863 0.10800
O 	O 	0.71239 0.21259 0.46409 -0.42900
H 	H 	0.57098 0.20470 0.73947 0.03700
H 	H 	0.57235 0.20654 0.64655 0.04300
H 	H 	0.65216 0.22267 0.25553 0.04200
O 	O 	0.39889 0.20495 0.93299 -0.19100
O 	O 	0.85128 0.22842 0.41881 -0.19200
C 	C 	0.50500 0.21455 0.96136 0.24900
H 	H 	0.59217 0.21519 0.90033 0.17400
H 	H 	0.29596 0.21790 0.94146 0.06600
C 	C 	0.95024 0.11831 0.47838 -0.09800
C 	C 	0.93689 0.15694 0.03789 0.02700
C 	C 	0.94685 0.01539 0.48290 0.08500
C 	C 	0.93118 0.20368 0.01614 -0.09500
O 	O 	0.52807 0.23557 0.48476 -0.35900
H 	H 	0.59752 0.23579 0.40186 0.16700
C 	C 	0.38062 0.23120 0.44770 -0.05600
H 	H 	0.27590 0.23734 0.47196 0.06800
C 	C 	0.74656 0.22538 0.99286 0.23400
C 	C 	0.75428 0.23324 0.43097 0.25600
H 	H 	0.96239 0.22997 0.44951 0.06900
Cu	Cu	0.63616 0.23809 0.99740 0.92200
O 	O 	0.85745 0.24008 0.00202 -0.19400
C 	C 	0.95133 0.07779 0.03413 0.10400
Cu	Cu	0.70738 0.24268 0.89680 0.87200
O 	O 	0.63771 0.24493 0.92345 -0.64100
O 	O 	0.67023 0.24296 0.83023 -0.41500
C 	C 	0.49147 0.24637 0.45329 0.25700
C 	C 	0.61380 0.24878 0.72741 -0.01000
O 	O 	0.64800 0.25015 0.07145 -0.35200
C 	C 	0.61452 0.24990 0.67475 -0.01100
C 	C 	0.65175 0.25377 0.18224 -0.00600
H 	H 	0.97550 0.24905 0.00663 0.06900
C 	C 	0.66111 0.26333 0.23625 -0.01100
C 	C 	0.97602 0.03925 0.01497 0.09400
C 	C 	0.98204 0.14447 0.02874 -0.09500
O 	O 	0.76638 0.26763 0.96037 -0.41600
Cu	Cu	0.73613 0.27195 0.52688 0.87300
H 	H 	0.00223 0.15073 0.47110 0.07600
O 	O 	0.54361 0.27790 0.95465 -0.36800
O 	O 	0.62492 0.27637 0.56765 -0.38300
O 	O 	0.62772 0.28268 0.42234 -0.64100
H 	H 	0.40369 0.28513 0.45494 0.05700
Cu	Cu	0.62700 0.28772 0.49477 0.89800
C 	C 	0.64153 0.29242 0.10009 0.27900
O 	O 	0.78100 0.29324 0.41847 -0.34800
C 	C 	0.67491 0.29626 0.81882 0.28300
O 	O 	0.52111 0.30028 0.43078 -0.38400
C 	C 	0.67864 0.30003 0.60419 0.28200
C 	C 	0.66958 0.30311 0.76436 -0.06800
C 	C 	0.67154 0.30491 0.65865 -0.06700
C 	C 	0.66044 0.30513 0.15676 -0.06300
O 	O 	0.73423 0.30838 0.59295 -0.41400
N 	N 	0.02182 0.96668 0.98359 -0.09900
Cu	Cu	0.68176 0.34444 0.92761 0.89600
Cu	Cu	0.62139 0.35676 0.01857 0.90100
O 	O 	0.68552 0.34290 0.00000 -0.63200
O 	O 	0.60552 0.31203 0.08007 -0.37500
O 	O 	0.72840 0.44190 0.93763 -0.37000
C 	C 	0.71598 0.47532 0.97082 0.25600
O 	O 	0.66022 0.44297 0.99154 -0.37200
O 	O 	0.69553 0.34843 0.85528 -0.38400
Cu	Cu	0.73394 0.33729 0.42475 0.92800
Cu	Cu	0.60779 0.34151 0.40252 0.89500
C 	C 	0.67975 0.33094 0.32095 0.28100
O 	O 	0.72833 0.33726 0.49890 -0.63900
O 	O 	0.65299 0.35998 0.34067 -0.37900
C 	C 	0.74902 0.46394 0.45581 0.25100
O 	O 	0.68647 0.42268 0.46481 -0.38100
O 	O 	0.72050 0.32311 0.35070 -0.35300
C 	C 	0.72430 0.36029 0.74826 -0.01000
C 	C 	0.72553 0.36095 0.69559 -0.01100
C 	C 	0.67889 0.32409 0.26502 -0.05900
C 	C 	0.69111 0.37664 0.23965 -0.00800
C 	C 	0.68205 0.36725 0.18586 -0.01000
H 	H 	0.69034 0.40776 0.16668 0.03300
H 	H 	0.73130 0.66737 0.47717 0.06900
H 	H 	0.69233 0.53450 0.47416 0.05200
H 	H 	0.13572 0.98362 0.50269 0.07300
H 	H 	0.70642 0.42435 0.26158 0.04700
C 	C 	0.74414 0.56270 0.46634 -0.05900
H 	H 	0.76746 0.40270 0.77648 0.04000
H 	H 	0.76943 0.40401 0.68355 0.03800
H 	H 	0.73235 0.37481 0.02111 0.16700
O 	O 	0.77740 0.43839 0.43397 -0.33600
H 	H 	0.75624 0.38289 0.52131 0.17700
C 	C 	0.82027 0.73525 0.44342 0.11300
C 	C 	0.77000 0.67266 0.45661 -0.08300
C 	C 	0.77442 0.61867 0.44521 0.00600
C 	C 	0.83111 0.62854 0.42939 0.12000
O 	O 	0.83208 0.79605 0.46421 -0.19700
O 	O 	0.83910 0.57848 0.43749 -0.18600
C 	C 	0.78090 0.53698 0.45930 0.04000
C 	C 	0.79080 0.65126 0.99643 0.11500
C 	C 	0.78403 0.70406 0.99875 -0.10500
O 	O 	0.73852 0.58658 0.00365 -0.17600
C 	C 	0.75772 0.54983 0.97768 0.03400
C 	C 	0.81671 0.58883 0.95759 -0.05600
H 	H 	0.74794 0.70347 0.01997 0.08000
N 	N 	0.00950 0.95382 0.48722 -0.12100
C 	C 	0.82329 0.75618 0.97121 0.03300
C 	C 	0.83767 0.65310 0.96993 0.00800
C 	C 	0.84499 0.82056 0.98471 -0.10400
H 	H 	0.83032 0.56997 0.92625 0.05800
H 	H 	0.83193 0.83857 0.01702 0.08000
C 	C 	0.88482 0.69285 0.42125 -0.09300
C 	C 	0.87515 0.74384 0.42438 0.02400
C 	C 	0.89958 0.84138 0.45660 0.10300
C 	C 	0.87071 0.75837 0.94514 0.11100
C 	C 	0.87667 0.70497 0.94216 -0.08200
N 	N 	0.90852 0.94626 0.47208 -0.10300
C 	C 	0.90518 0.86021 0.96611 0.11000
C 	C 	0.92567 0.81091 0.43318 -0.08800
H 	H 	0.91287 0.70559 0.92107 0.06700
N 	N 	0.93114 0.97057 0.99983 -0.11900
C 	C 	0.93995 0.91543 0.47378 0.09500
H 	H 	0.93306 0.70343 0.41469 0.07000
O 	O 	0.92440 0.82357 0.93996 -0.20000
C 	C 	0.95388 0.93429 0.98368 0.09000
H 	H 	0.97981 0.83405 0.43510 0.06400
