data_crystal

_cell_length_a 24.90462
_cell_length_b 22.38546
_cell_length_c 42.61769
_cell_angle_alpha 90.60091
_cell_angle_beta  90.69796
_cell_angle_gamma 113.15821

_symmetry_space_group_name_	'P 1'
_symmetry_space_group_name_H-M	'P 1'

loop_
_symmetry_equiv_pos_as_xyz
  x,y,z

loop_
_atom_site_label
_atom_site_type_symbol
_atom_site_fract_x
_atom_site_fract_y
_atom_site_fract_z
_atom_site_charge
Ni	Ni	0.72294 0.33479 0.88464 1.10500
O 	O 	0.64148 0.29487 0.86460 -0.70500
Ni	Ni	0.59523 0.32008 0.89609 1.10700
O 	O 	0.75550 0.30060 0.84793 -0.36300
O 	O 	0.69195 0.19562 0.85652 -0.38600
O 	O 	0.73089 0.41476 0.85920 -0.39400
Ni	Ni	0.61022 0.20107 0.86105 1.07800
O 	O 	0.77764 0.41209 0.95049 -0.36600
O 	O 	0.61928 0.19033 0.90801 -0.38500
O 	O 	0.51901 0.28634 0.87124 -0.35200
O 	O 	0.67405 0.34754 0.91884 -0.69900
O 	O 	0.80609 0.38202 0.90337 -0.35100
O 	O 	0.56346 0.37061 0.92595 -0.32600
O 	O 	0.64521 0.46248 0.91919 -0.38100
Ni	Ni	0.71250 0.43678 0.93450 1.10600
H 	H 	0.63942 0.31398 0.84400 0.16200
H 	H 	0.67212 0.31745 0.93604 0.19700
C 	C 	0.58142 0.19503 0.92786 0.39800
O 	O 	0.76645 0.48845 0.89963 -0.35900
C 	C 	0.73701 0.23791 0.84154 0.29400
C 	C 	0.49962 0.22789 0.85796 0.29500
C 	C 	0.75856 0.47470 0.86940 0.33700
C 	C 	0.59261 0.43344 0.93064 0.38400
C 	C 	0.81852 0.40860 0.93195 0.40400
O 	O 	0.56009 0.23997 0.92449 -0.33500
O 	O 	0.52345 0.18585 0.86542 -0.37900
Ni	Ni	0.59628 0.33620 0.60521 1.10600
O 	O 	0.66778 0.35920 0.57731 -0.69800
Ni	Ni	0.72440 0.34433 0.60694 1.10800
O 	O 	0.55918 0.38871 0.58000 -0.32900
O 	O 	0.64550 0.47610 0.58291 -0.38900
O 	O 	0.55046 0.25620 0.57706 -0.33500
Ni	Ni	0.70471 0.44661 0.56078 1.10900
O 	O 	0.52823 0.20279 0.63523 -0.38300
O 	O 	0.76649 0.49417 0.59445 -0.35800
O 	O 	0.80216 0.38745 0.58345 -0.33900
O 	O 	0.64869 0.30815 0.63157 -0.70300
O 	O 	0.52758 0.30561 0.63464 -0.35100
O 	O 	0.76486 0.30791 0.63902 -0.35300
O 	O 	0.69483 0.20461 0.63259 -0.38900
Ni	Ni	0.61439 0.21405 0.63353 1.07200
H 	H 	0.65950 0.32776 0.55960 0.19400
H 	H 	0.65325 0.32760 0.65292 0.16000
C 	C 	0.75747 0.48345 0.62444 0.32500
O 	O 	0.60986 0.20209 0.58611 -0.39000
C 	C 	0.59034 0.45021 0.57415 0.38300
C 	C 	0.80788 0.41341 0.55513 0.40400
C 	C 	0.56868 0.21020 0.56950 0.39700
C 	C 	0.74345 0.24595 0.64631 0.29500
C 	C 	0.50873 0.24639 0.64622 0.29900
O 	O 	0.74444 0.42500 0.63535 -0.37900
O 	O 	0.76321 0.41792 0.53977 -0.36000
C 	C 	0.02741 0.96591 0.71169 -0.05200
H 	H 	0.02600 0.96170 0.68563 0.05500
C 	C 	0.03115 0.97600 0.77393 -0.05400
H 	H 	0.03330 0.98104 0.79997 0.05600
C 	C 	0.99538 0.00624 0.72535 0.01300
C 	C 	0.00018 0.90091 0.72870 0.01000
C 	C 	0.08889 0.99833 0.72621 0.00800
C 	C 	0.99647 0.01078 0.75763 0.00600
C 	C 	0.00235 0.90597 0.76106 0.01400
C 	C 	0.09107 0.00281 0.75836 0.01300
Ni	Ni	0.24376 0.71986 0.38561 1.10600
O 	O 	0.31021 0.74646 0.35353 -0.69600
Ni	Ni	0.37422 0.73854 0.38064 1.10400
O 	O 	0.19095 0.75752 0.36308 -0.34300
O 	O 	0.25373 0.83066 0.33031 -0.40100
O 	O 	0.19916 0.63387 0.36104 -0.35600
Ni	Ni	0.33735 0.83832 0.34218 1.07500
O 	O 	0.19206 0.59095 0.42200 -0.37500
O 	O 	0.33132 0.86177 0.38801 -0.39700
O 	O 	0.44057 0.77414 0.34948 -0.36900
O 	O 	0.30573 0.70457 0.41048 -0.70500
O 	O 	0.18207 0.68840 0.41939 -0.33600
O 	O 	0.42693 0.71323 0.41059 -0.32500
O 	O 	0.36082 0.60833 0.41135 -0.37300
Ni	Ni	0.27893 0.61091 0.41636 1.09300
H 	H 	0.30143 0.71739 0.33482 0.16400
H 	H 	0.31370 0.72838 0.43085 0.21100
C 	C 	0.37042 0.86133 0.40902 0.37900
O 	O 	0.26774 0.59230 0.36962 -0.41100
C 	C 	0.21056 0.81505 0.35021 0.32200
C 	C 	0.45502 0.83264 0.33817 0.30400
C 	C 	0.21985 0.58911 0.35548 0.31700
C 	C 	0.40883 0.65460 0.42233 0.39400
C 	C 	0.17110 0.63252 0.43339 0.39000
O 	O 	0.40289 0.82764 0.40377 -0.33700
O 	O 	0.42594 0.86819 0.34651 -0.39200
Ni	Ni	0.37147 0.72444 0.11930 1.10300
O 	O 	0.30849 0.70113 0.08487 -0.70200
Ni	Ni	0.24783 0.72532 0.10615 1.10800
O 	O 	0.42290 0.68877 0.09429 -0.33100
O 	O 	0.34846 0.59087 0.08478 -0.37000
O 	O 	0.41908 0.81131 0.09783 -0.33300
Ni	Ni	0.27296 0.60704 0.07678 1.09300
O 	O 	0.43192 0.85269 0.15695 -0.38700
O 	O 	0.25597 0.58664 0.12297 -0.40600
O 	O 	0.18977 0.70080 0.06937 -0.32500
O 	O 	0.30996 0.74652 0.14123 -0.70100
O 	O 	0.43058 0.74989 0.15535 -0.37300
O 	O 	0.19656 0.76352 0.12951 -0.33300
O 	O 	0.26990 0.85702 0.14699 -0.38700
Ni	Ni	0.34626 0.84039 0.15077 1.07000
H 	H 	0.32215 0.72555 0.06530 0.20300
H 	H 	0.29595 0.72050 0.16033 0.15600
C 	C 	0.21167 0.59353 0.13627 0.31400
O 	O 	0.35780 0.86356 0.10471 -0.39000
C 	C 	0.40070 0.63365 0.07836 0.39400
C 	C 	0.17687 0.64490 0.05442 0.39200
C 	C 	0.39712 0.85278 0.08814 0.39100
C 	C 	0.21678 0.81234 0.14974 0.29900
C 	C 	0.45044 0.80883 0.16776 0.30700
O 	O 	0.19536 0.64011 0.12754 -0.35800
O 	O 	0.18979 0.59880 0.06739 -0.37500
C 	C 	0.92731 0.07730 0.21671 -0.05400
H 	H 	0.92477 0.07292 0.19064 0.05600
C 	C 	0.93238 0.08784 0.27905 -0.05000
H 	H 	0.93361 0.09143 0.30511 0.05400
C 	C 	0.96460 0.04536 0.23287 0.01400
C 	C 	0.95314 0.14767 0.22942 0.00800
C 	C 	0.86828 0.04567 0.23290 0.01500
C 	C 	0.96811 0.05167 0.26519 0.00500
C 	C 	0.95532 0.15290 0.26167 0.01200
C 	C 	0.87091 0.05191 0.26504 0.00800
C 	C 	0.03603 0.31297 0.19210 0.03700
C 	C 	0.02189 0.35673 0.17387 -0.03700
C 	C 	0.06611 0.41253 0.16236 -0.02600
C 	C 	0.12501 0.42568 0.16939 0.01700
C 	C 	0.13919 0.38224 0.18778 -0.03000
C 	C 	0.09504 0.32656 0.19937 -0.04300
C 	C 	0.17213 0.48113 0.15488 0.01400
C 	C 	0.17234 0.54131 0.15611 -0.13600
C 	C 	0.98862 0.25615 0.20580 -0.04800
C 	C 	0.99448 0.19955 0.20985 -0.03300
H 	H 	0.97663 0.34730 0.16845 0.06700
H 	H 	0.05464 0.44495 0.14757 0.07000
H 	H 	0.18447 0.39170 0.19317 0.05500
H 	H 	0.10670 0.29460 0.21436 0.04900
H 	H 	0.20658 0.47233 0.14280 0.05900
H 	H 	0.13920 0.55030 0.16940 0.08800
H 	H 	0.94906 0.26121 0.21338 0.05600
H 	H 	0.03034 0.19133 0.19906 0.05000
C 	C 	0.72277 0.90789 0.21417 0.03700
C 	C 	0.67666 0.87823 0.23480 -0.04400
C 	C 	0.61940 0.84768 0.22320 -0.03000
C 	C 	0.60810 0.84461 0.19076 0.02200
C 	C 	0.65456 0.87105 0.17003 -0.02300
C 	C 	0.71168 0.90264 0.18166 -0.03600
C 	C 	0.54807 0.81111 0.17819 0.01700
C 	C 	0.50596 0.83188 0.18574 -0.12500
C 	C 	0.78257 0.94321 0.22689 -0.04800
C 	C 	0.81790 0.00516 0.21607 -0.03400
H 	H 	0.68506 0.88008 0.25988 0.05300
H 	H 	0.58395 0.82612 0.23937 0.04700
H 	H 	0.64635 0.86746 0.14491 0.08100
H 	H 	0.74724 0.92235 0.16540 0.06400
H 	H 	0.54009 0.77445 0.15980 0.07400
H 	H 	0.51525 0.87162 0.20260 0.07400
H 	H 	0.79664 0.92369 0.24718 0.05400
H 	H 	0.80971 0.01969 0.19287 0.05500
C 	C 	0.04329 0.94185 0.20828 0.03500
C 	C 	0.07083 0.90898 0.22589 -0.04400
C 	C 	0.11314 0.89101 0.21224 -0.03000
C 	C 	0.12684 0.90367 0.18050 0.01800
C 	C 	0.09718 0.93341 0.16243 -0.02500
C 	C 	0.05469 0.95117 0.17603 -0.03800
C 	C 	0.17430 0.88905 0.16643 0.01200
C 	C 	0.17397 0.82892 0.16744 -0.12900
C 	C 	0.00150 0.96452 0.22387 -0.04600
C 	C 	0.99704 0.02077 0.21594 -0.03600
H 	H 	0.05988 0.89795 0.25025 0.05100
H 	H 	0.13574 0.86799 0.22642 0.04400
H 	H 	0.10673 0.94232 0.13777 0.06700
H 	H 	0.03024 0.97118 0.16141 0.05900
H 	H 	0.20693 0.92628 0.15277 0.06000
H 	H 	0.13858 0.79032 0.17888 0.08700
H 	H 	0.97672 0.93675 0.24343 0.05200
H 	H 	0.01397 0.04291 0.19370 0.05000
C 	C 	0.71724 0.02223 0.29227 0.03600
C 	C 	0.66734 0.00274 0.27273 -0.03900
C 	C 	0.61196 0.96938 0.28514 -0.03400
C 	C 	0.60586 0.95723 0.31741 0.02100
C 	C 	0.65547 0.97928 0.33719 -0.02900
C 	C 	0.71099 0.01146 0.32470 -0.03300
C 	C 	0.54726 0.92618 0.33094 0.01100
C 	C 	0.51246 0.86436 0.32350 -0.13100
C 	C 	0.77579 0.05401 0.27852 -0.04500
C 	C 	0.81829 0.03278 0.28483 -0.03000
H 	H 	0.67162 0.01191 0.24778 0.05500
H 	H 	0.57380 0.95355 0.26975 0.04500
H 	H 	0.65101 0.97142 0.36224 0.07400
H 	H 	0.74899 0.02834 0.34020 0.06300
H 	H 	0.53391 0.95280 0.34856 0.07200
H 	H 	0.52785 0.83608 0.30783 0.08000
H 	H 	0.78174 0.08894 0.25998 0.05800
H 	H 	0.81334 0.99883 0.30368 0.04600
C 	C 	0.14044 0.40928 0.33500 0.01800
C 	C 	0.12715 0.39790 0.30283 -0.02700
C 	C 	0.08774 0.33702 0.29212 -0.04200
C 	C 	0.06098 0.28697 0.31351 0.03900
C 	C 	0.07471 0.29829 0.34560 -0.03700
C 	C 	0.11425 0.35914 0.35629 -0.02100
C 	C 	0.02216 0.22121 0.30223 -0.04500
C 	C 	0.98209 0.21294 0.27757 -0.03500
C 	C 	0.18533 0.47166 0.34637 0.01800
C 	C 	0.18254 0.52863 0.33886 -0.13700
H 	H 	0.14837 0.43565 0.28607 0.04800
H 	H 	0.07906 0.32837 0.26719 0.04800
H 	H 	0.05502 0.25983 0.36224 0.06500
H 	H 	0.12485 0.36723 0.38112 0.06700
H 	H 	0.02663 0.17926 0.31263 0.05200
H 	H 	0.97650 0.25523 0.26843 0.05100
H 	H 	0.21733 0.47057 0.36369 0.05100
H 	H 	0.14834 0.52941 0.32299 0.09200
C 	C 	0.14823 0.94211 0.33267 0.01600
C 	C 	0.15413 0.97635 0.30473 -0.02800
C 	C 	0.11168 0.99925 0.29561 -0.04700
C 	C 	0.06294 0.98860 0.31460 0.03300
C 	C 	0.05908 0.95785 0.34350 -0.03800
C 	C 	0.10177 0.93522 0.35265 -0.02400
C 	C 	0.01204 0.00069 0.30248 -0.04200
C 	C 	0.01875 0.04988 0.28310 -0.03600
C 	C 	0.18976 0.91167 0.34023 0.01900
C 	C 	0.17038 0.84871 0.34799 -0.13400
H 	H 	0.19026 0.98271 0.28936 0.04700
H 	H 	0.11511 0.02195 0.27300 0.05200
H 	H 	0.02215 0.94990 0.35849 0.06300
H 	H 	0.09802 0.91107 0.37490 0.06800
H 	H 	0.96828 0.96680 0.30821 0.05000
H 	H 	0.06190 0.08678 0.27884 0.04800
H 	H 	0.23601 0.93891 0.33620 0.05000
H 	H 	0.12418 0.82139 0.35208 0.10500
C 	C 	0.42376 0.02455 0.45045 0.23100
C 	C 	0.44156 0.00943 0.47959 0.00000
C 	C 	0.43037 0.94456 0.48663 0.23000
C 	C 	0.40382 0.89540 0.46414 0.31100
C 	C 	0.38840 0.91082 0.43438 -0.20900
C 	C 	0.39734 0.97555 0.42790 0.30800
C 	C 	0.47406 0.06179 0.50220 -0.00100
F 	F 	0.44643 0.92942 0.51503 -0.34200
F 	F 	0.38317 0.99145 0.39921 -0.39700
C 	C 	0.44391 0.08267 0.52446 0.22900
C 	C 	0.47476 0.13204 0.54609 0.31300
C 	C 	0.53614 0.16108 0.54554 -0.21400
C 	C 	0.56624 0.14051 0.52304 0.31200
C 	C 	0.53529 0.09105 0.50144 0.23000
F 	F 	0.38470 0.05461 0.52530 -0.34800
F 	F 	0.62543 0.16873 0.52200 -0.37900
F 	F 	0.44516 0.15031 0.56820 -0.38100
F 	F 	0.56472 0.07140 0.47980 -0.34700
F 	F 	0.43367 0.08711 0.44367 -0.34700
F 	F 	0.39413 0.83293 0.47100 -0.37200
C 	C 	0.07694 0.53837 0.49926 0.23100
C 	C 	0.02419 0.54475 0.49251 -0.00300
C 	C 	0.02150 0.58542 0.46821 0.22900
C 	C 	0.07032 0.61678 0.44970 0.31400
C 	C 	0.12259 0.60832 0.45563 -0.20700
C 	C 	0.12604 0.57034 0.48105 0.30800
C 	C 	0.97104 0.50656 0.50987 -0.00300
F 	F 	0.97102 0.59315 0.46202 -0.34700
F 	F 	0.17674 0.56341 0.48766 -0.39300
C 	C 	0.96413 0.52441 0.54076 0.22800
C 	C 	0.91185 0.49124 0.55632 0.31100
C 	C 	0.86588 0.44042 0.54098 -0.21000
C 	C 	0.87369 0.42095 0.51053 0.31500
C 	C 	0.92618 0.45368 0.49510 0.23000
F 	F 	0.00744 0.57514 0.55532 -0.34600
F 	F 	0.83003 0.37093 0.49575 -0.36800
F 	F 	0.90477 0.51050 0.58576 -0.38200
F 	F 	0.93313 0.43485 0.46557 -0.34800
F 	F 	0.08017 0.49986 0.52300 -0.34300
F 	F 	0.06600 0.65293 0.42516 -0.37500
C 	C 	0.48781 0.51386 0.53381 0.22800
C 	C 	0.52427 0.55365 0.51091 -0.00100
C 	C 	0.58251 0.56031 0.50921 0.22900
C 	C 	0.60389 0.52619 0.52965 0.30900
C 	C 	0.56741 0.48588 0.55252 -0.21900
C 	C 	0.50934 0.48025 0.55462 0.31900
C 	C 	0.50026 0.58412 0.48713 -0.00400
F 	F 	0.61805 0.59884 0.48720 -0.34500
F 	F 	0.47398 0.44268 0.57695 -0.37200
C 	C 	0.48970 0.63963 0.49483 0.23500
C 	C 	0.46373 0.66610 0.47267 0.30900
C 	C 	0.44804 0.63705 0.44275 -0.20900
C 	C 	0.46199 0.58399 0.43451 0.31300
C 	C 	0.48761 0.55737 0.45667 0.22900
F 	F 	0.50345 0.66698 0.52397 -0.34000
F 	F 	0.44909 0.55708 0.40524 -0.37700
F 	F 	0.45116 0.71795 0.48076 -0.35500
F 	F 	0.49887 0.50455 0.44881 -0.34300
F 	F 	0.43130 0.50705 0.53555 -0.34200
F 	F 	0.65959 0.53073 0.52664 -0.43400
C 	C 	0.81988 0.13743 0.67443 0.01600
C 	C 	0.83977 0.09800 0.65618 -0.02600
C 	C 	0.88521 0.08160 0.66734 -0.03900
C 	C 	0.91043 0.10361 0.69716 0.03600
C 	C 	0.89054 0.14314 0.71532 -0.04500
C 	C 	0.84432 0.15825 0.70449 -0.03000
C 	C 	0.95947 0.08824 0.70912 -0.04600
C 	C 	0.95852 0.02536 0.70644 -0.03400
C 	C 	0.77489 0.15859 0.66144 0.00900
C 	C 	0.78160 0.22114 0.66383 -0.13400
H 	H 	0.82115 0.08155 0.63299 0.06300
H 	H 	0.90172 0.05338 0.65247 0.05900
H 	H 	0.91100 0.16226 0.73785 0.05100
H 	H 	0.82814 0.18697 0.71927 0.04400
H 	H 	0.99326 0.12447 0.72351 0.05300
H 	H 	0.93333 0.99303 0.68763 0.04500
H 	H 	0.73938 0.12436 0.64721 0.05500
H 	H 	0.81904 0.25590 0.67666 0.09000
C 	C 	0.24124 0.10152 0.69801 0.03800
C 	C 	0.26992 0.16657 0.68936 -0.03900
C 	C 	0.32512 0.18784 0.67591 -0.02500
C 	C 	0.35301 0.14459 0.67188 0.02200
C 	C 	0.32403 0.07937 0.68026 -0.02800
C 	C 	0.26852 0.05794 0.69336 -0.04100
C 	C 	0.41042 0.16577 0.65649 0.01500
C 	C 	0.45387 0.22330 0.66376 -0.12200
C 	C 	0.18551 0.08107 0.71484 -0.04900
C 	C 	0.13887 0.02206 0.70745 -0.03000
H 	H 	0.24935 0.20062 0.69296 0.06200
H 	H 	0.34587 0.23767 0.66836 0.06900
H 	H 	0.34472 0.04537 0.67683 0.05900
H 	H 	0.24734 0.00789 0.70055 0.05600
H 	H 	0.41749 0.13332 0.63939 0.08400
H 	H 	0.44729 0.25550 0.68115 0.07900
H 	H 	0.18001 0.11391 0.73228 0.05300
H 	H 	0.13839 0.99809 0.68508 0.05400
C 	C 	0.80137 0.65481 0.65741 0.02300
C 	C 	0.83688 0.71191 0.64244 -0.02300
C 	C 	0.86861 0.76785 0.66013 -0.03800
C 	C 	0.86473 0.76725 0.69294 0.03500
C 	C 	0.82659 0.71140 0.70782 -0.04100
C 	C 	0.79487 0.65530 0.69012 -0.02900
C 	C 	0.90297 0.82374 0.71178 -0.04700
C 	C 	0.96112 0.84221 0.71127 -0.03700
C 	C 	0.77163 0.59474 0.63860 0.01600
C 	C 	0.77620 0.53899 0.64654 -0.12800
H 	H 	0.84113 0.71240 0.61716 0.07100
H 	H 	0.89714 0.81127 0.64842 0.05900
H 	H 	0.82272 0.71091 0.73312 0.04900
H 	H 	0.76586 0.61214 0.70181 0.04900
H 	H 	0.88362 0.84874 0.72706 0.04900
H 	H 	0.98031 0.81677 0.69617 0.05600
H 	H 	0.75171 0.59794 0.61617 0.06200
H 	H 	0.79531 0.53503 0.66908 0.09200
C 	C 	0.95076 0.45948 0.98489 0.22800
C 	C 	0.98760 0.51660 0.97032 -0.00300
C 	C 	0.97216 0.53247 0.94075 0.22700
C 	C 	0.91841 0.49368 0.92678 0.31100
C 	C 	0.87962 0.43923 0.94250 -0.21500
C 	C 	0.89687 0.42105 0.97108 0.31500
C 	C 	0.03991 0.56188 0.98714 -0.00000
F 	F 	0.00821 0.58685 0.92617 -0.35000
F 	F 	0.86040 0.36738 0.98599 -0.37400
C 	C 	0.09424 0.55865 0.98214 0.23300
C 	C 	0.14116 0.59124 0.00265 0.30700
C 	C 	0.13383 0.62672 0.02846 -0.20600
C 	C 	0.08093 0.63471 0.03172 0.31800
C 	C 	0.03420 0.60251 0.01103 0.22700
F 	F 	0.10064 0.52118 0.95841 -0.34500
F 	F 	0.07352 0.66996 0.05616 -0.37000
F 	F 	0.19297 0.58568 0.99842 -0.39500
F 	F 	0.98225 0.60771 0.01528 -0.34800
F 	F 	0.96636 0.44266 0.01303 -0.35300
F 	F 	0.90249 0.51117 0.89888 -0.39400
C 	C 	0.52237 0.11118 0.00408 0.22700
C 	C 	0.50578 0.04563 0.99526 0.00500
C 	C 	0.51470 0.02934 0.96445 0.23000
C 	C 	0.53957 0.07812 0.94250 0.31500
C 	C 	0.55622 0.14384 0.95125 -0.21200
C 	C 	0.54751 0.16014 0.98217 0.31800
C 	C 	0.47817 0.99392 0.01813 -0.00400
F 	F 	0.49874 0.96609 0.95573 -0.34200
F 	F 	0.56399 0.22339 0.99104 -0.37500
C 	C 	0.41723 0.96039 0.01798 0.23200
C 	C 	0.39091 0.91210 0.03999 0.31100
C 	C 	0.42531 0.89711 0.06244 -0.20700
C 	C 	0.48649 0.92962 0.06206 0.31800
C 	C 	0.51275 0.97777 0.03995 0.23000
F 	F 	0.38353 0.97514 0.99667 -0.34500
F 	F 	0.52030 0.91634 0.08386 -0.37400
F 	F 	0.33190 0.88015 0.03969 -0.38800
F 	F 	0.57178 0.00936 0.03997 -0.34200
F 	F 	0.51387 0.12734 0.03386 -0.34300
F 	F 	0.54612 0.06148 0.91248 -0.40000
C 	C 	0.47309 0.52922 0.04398 0.22900
C 	C 	0.49680 0.56324 0.01664 -0.00200
C 	C 	0.49418 0.62383 0.01137 0.23200
C 	C 	0.46564 0.64886 0.03263 0.31100
C 	C 	0.43922 0.61318 0.05915 -0.21200
C 	C 	0.44451 0.55412 0.06519 0.31500
C 	C 	0.52237 0.53419 0.99304 0.00100
F 	F 	0.51803 0.65762 0.98525 -0.34000
F 	F 	0.42115 0.52044 0.09141 -0.37700
C 	C 	0.48666 0.49258 0.96952 0.22900
C 	C 	0.50981 0.46056 0.94871 0.31900
C 	C 	0.56890 0.46995 0.95129 -0.21200
C 	C 	0.60490 0.51281 0.97445 0.31200
C 	C 	0.58167 0.54483 0.99518 0.23300
F 	F 	0.42931 0.48249 0.96716 -0.34400
F 	F 	0.66188 0.52165 0.97754 -0.41400
F 	F 	0.47491 0.42061 0.92597 -0.37500
F 	F 	0.61647 0.58509 0.01785 -0.34400
F 	F 	0.47673 0.47133 0.04961 -0.34200
F 	F 	0.46143 0.70639 0.02677 -0.37200
C 	C 	0.90702 0.09385 0.79755 0.03600
C 	C 	0.91763 0.14228 0.82072 -0.04100
C 	C 	0.87293 0.16123 0.82993 -0.02600
C 	C 	0.81720 0.13234 0.81582 0.01500
C 	C 	0.80606 0.08299 0.79315 -0.03100
C 	C 	0.85079 0.06419 0.78378 -0.04500
C 	C 	0.76984 0.15197 0.82569 0.00900
C 	C 	0.77689 0.21463 0.82491 -0.13500
C 	C 	0.95659 0.08030 0.78526 -0.05100
C 	C 	0.94934 0.02091 0.77473 -0.02900
H 	H 	0.96076 0.16579 0.83134 0.06200
H 	H 	0.88162 0.19847 0.84798 0.06500
H 	H 	0.76312 0.06028 0.78222 0.04800
H 	H 	0.84237 0.02869 0.76492 0.05000
H 	H 	0.72954 0.11515 0.83415 0.05600
H 	H 	0.81574 0.25021 0.81441 0.08800
H 	H 	0.99938 0.11990 0.78411 0.05200
H 	H 	0.90830 0.97971 0.77803 0.04300
C 	C 	0.34934 0.11566 0.82665 0.02000
C 	C 	0.33221 0.08629 0.79700 -0.02900
C 	C 	0.27432 0.06696 0.78661 -0.04200
C 	C 	0.23262 0.07540 0.80621 0.03900
C 	C 	0.24967 0.10357 0.83614 -0.03700
C 	C 	0.30770 0.12331 0.84640 -0.02300
C 	C 	0.17261 0.06095 0.79437 -0.04800
C 	C 	0.14400 0.00834 0.77629 -0.03000
C 	C 	0.41116 0.13990 0.83672 0.01200
C 	C 	0.44097 0.20339 0.84317 -0.12900
H 	H 	0.36408 0.08013 0.78164 0.04600
H 	H 	0.26223 0.04685 0.76314 0.04900
H 	H 	0.21810 0.11079 0.85133 0.06600
H 	H 	0.32049 0.14531 0.86953 0.07500
H 	H 	0.15245 0.09502 0.79955 0.05500
H 	H 	0.16254 0.97241 0.77222 0.05100
H 	H 	0.43230 0.10585 0.83862 0.05700
H 	H 	0.42007 0.23727 0.83939 0.09600
C 	C 	0.92287 0.73772 0.79513 0.03500
C 	C 	0.93881 0.68673 0.80406 -0.03500
C 	C 	0.90205 0.63716 0.82296 -0.02400
C 	C 	0.84872 0.63787 0.83286 0.02300
C 	C 	0.83211 0.68798 0.82337 -0.03100
C 	C 	0.86851 0.73713 0.80416 -0.04000
C 	C 	0.81198 0.58847 0.85475 0.02600
C 	C 	0.78981 0.52515 0.84660 -0.12500
C 	C 	0.96273 0.79085 0.77578 -0.04400
C 	C 	0.96882 0.85526 0.78083 -0.03800
H 	H 	0.98014 0.68610 0.79682 0.06500
H 	H 	0.91541 0.59882 0.83035 0.08400
H 	H 	0.79091 0.68871 0.83077 0.05800
H 	H 	0.85445 0.77461 0.79629 0.04900
H 	H 	0.80227 0.60413 0.87744 0.07000
H 	H 	0.79604 0.51035 0.82301 0.08900
H 	H 	0.99031 0.78010 0.75896 0.05600
H 	H 	0.95257 0.86767 0.80244 0.05200
