data_crystal

_cell_length_a 17.53157
_cell_length_b 17.28909
_cell_length_c 49.44887
_cell_angle_alpha 90.73928
_cell_angle_beta  91.02508
_cell_angle_gamma 110.87560

_symmetry_space_group_name_	'P 1'
_symmetry_space_group_name_H-M	'P 1'

loop_
_symmetry_equiv_pos_as_xyz
  x,y,z

loop_
_atom_site_label
_atom_site_type_symbol
_atom_site_fract_x
_atom_site_fract_y
_atom_site_fract_z
_atom_site_charge
O 	O 	0.08194 0.87993 0.75889 -0.69800
Ni	Ni	0.10324 0.98331 0.78167 1.09700
O 	O 	0.13590 0.78539 0.71813 -0.38400
Ni	Ni	0.18777 0.87683 0.74811 1.07400
O 	O 	0.19829 0.97579 0.72448 -0.42000
O 	O 	0.17973 0.96242 0.80977 -0.38600
O 	O 	0.02501 0.99858 0.75318 -0.71900
O 	O 	0.09647 0.08148 0.80431 -0.34900
H 	H 	0.05103 0.83013 0.76904 0.15800
H 	H 	0.04692 0.05305 0.74442 0.17500
C 	C 	0.21932 0.05111 0.73525 0.27900
C 	C 	0.06337 0.76967 0.70661 0.28800
C 	C 	0.24833 0.95449 0.80253 0.28900
C 	C 	0.02439 0.08381 0.81034 0.27200
O 	O 	0.20072 0.06292 0.76059 -0.35500
O 	O 	0.26462 0.95380 0.77662 -0.40200
Ni	Ni	0.35290 0.75804 0.40593 1.11000
O 	O 	0.33251 0.66978 0.37624 -0.70400
Ni	Ni	0.21815 0.65531 0.36445 1.10300
O 	O 	0.44187 0.72685 0.42526 -0.34300
O 	O 	0.35949 0.59090 0.42724 -0.40400
O 	O 	0.44128 0.84307 0.38355 -0.35600
Ni	Ni	0.33580 0.56208 0.38605 1.07500
O 	O 	0.34859 0.93493 0.39998 -0.40500
O 	O 	0.21692 0.49546 0.39513 -0.39400
O 	O 	0.18562 0.54752 0.34168 -0.36100
O 	O 	0.24785 0.75725 0.38955 -0.70200
O 	O 	0.36661 0.85072 0.43320 -0.31700
O 	O 	0.11263 0.67066 0.35183 -0.34000
O 	O 	0.18256 0.80487 0.34062 -0.40500
Ni	Ni	0.26797 0.86135 0.37140 1.07300
H 	H 	0.36912 0.69106 0.36090 0.16500
H 	H 	0.20714 0.75039 0.40381 0.18700
C 	C 	0.17022 0.52873 0.40740 0.34800
O 	O 	0.35813 0.84966 0.34818 -0.40800
C 	C 	0.42262 0.65418 0.43660 0.32400
C 	C 	0.23323 0.50485 0.33603 0.29100
C 	C 	0.43133 0.86181 0.35831 0.28200
C 	C 	0.11303 0.74425 0.34527 0.27300
C 	C 	0.34931 0.91603 0.42592 0.32900
O 	O 	0.15737 0.59259 0.39706 -0.35300
O 	O 	0.30767 0.52432 0.34685 -0.39900
Ni	Ni	0.36840 0.67106 0.12618 1.10400
O 	O 	0.25968 0.63062 0.10453 -0.69800
Ni	Ni	0.19712 0.69056 0.12384 1.10300
O 	O 	0.41513 0.60181 0.10215 -0.31400
O 	O 	0.30408 0.48484 0.10817 -0.39300
O 	O 	0.40327 0.76221 0.09802 -0.35800
Ni	Ni	0.19801 0.51222 0.10520 1.07900
O 	O 	0.43682 0.78852 0.17992 -0.40500
O 	O 	0.19068 0.51262 0.14634 -0.39800
O 	O 	0.09982 0.65780 0.09771 -0.36800
O 	O 	0.29772 0.71473 0.14873 -0.70100
O 	O 	0.48033 0.72090 0.14625 -0.34000
O 	O 	0.15844 0.77763 0.14169 -0.36500
O 	O 	0.28409 0.87505 0.13657 -0.40300
Ni	Ni	0.36097 0.83023 0.15837 1.07700
H 	H 	0.26723 0.64863 0.08552 0.17100
H 	H 	0.28345 0.68209 0.16541 0.16600
C 	C 	0.13719 0.53765 0.15829 0.28900
O 	O 	0.44682 0.86806 0.12915 -0.39300
C 	C 	0.36896 0.52626 0.09432 0.33300
C 	C 	0.07428 0.58292 0.08657 0.33200
C 	C 	0.43354 0.84173 0.10393 0.34900
C 	C 	0.20797 0.85522 0.14376 0.27200
O 	O 	0.12453 0.60447 0.15014 -0.36000
O 	O 	0.08535 0.52070 0.09936 -0.37100
O 	O 	0.06688 0.20282 0.24721 -0.37300
O 	O 	0.11884 0.07455 0.23357 -0.39900
O 	O 	0.03037 0.09136 0.20156 -0.35100
O 	O 	0.00513 0.97318 0.30327 -0.40600
Ni	Ni	0.05367 0.02473 0.26691 1.07200
O 	O 	0.07885 0.13628 0.28583 -0.39900
C 	C 	0.08697 0.20466 0.27306 0.28400
C 	C 	0.08621 0.06056 0.20885 0.27600
C 	C 	0.07921 0.48149 0.17697 -0.05900
C 	C 	0.99568 0.44964 0.16989 -0.00600
C 	C 	0.97162 0.34867 0.20566 -0.05800
C 	C 	0.05327 0.38661 0.21452 -0.01100
C 	C 	0.10735 0.45213 0.20014 0.00900
H 	H 	0.97339 0.47360 0.15249 0.07600
H 	H 	0.07576 0.36207 0.23172 0.04700
C 	C 	0.19179 0.48810 0.20907 0.08000
N 	N 	0.25947 0.51696 0.21617 -0.10600
C 	C 	0.17991 0.91783 0.15675 -0.06100
C 	C 	0.09628 0.90540 0.15572 -0.00600
C 	C 	0.06492 0.95286 0.17216 -0.00200
C 	C 	0.11835 0.01749 0.18864 -0.06100
C 	C 	0.20266 0.03481 0.18791 0.00200
C 	C 	0.23381 0.98467 0.17261 -0.01500
H 	H 	0.05490 0.85579 0.14311 0.06500
H 	H 	0.24391 0.08547 0.20019 0.05100
C 	C 	0.32045 0.00039 0.17433 0.07000
C 	C 	0.97743 0.93039 0.17358 0.08300
N 	N 	0.38987 0.01317 0.17577 -0.13200
N 	N 	0.40641 0.75022 0.29390 -0.11300
C 	C 	0.12030 0.28433 0.28803 -0.07300
C 	C 	0.18842 0.34802 0.27820 -0.00800
C 	C 	0.22781 0.41962 0.29405 0.00300
C 	C 	0.19807 0.42806 0.31982 -0.05900
C 	C 	0.12917 0.36525 0.32934 -0.01000
C 	C 	0.09005 0.29382 0.31368 0.00800
H 	H 	0.21190 0.34096 0.25853 0.05400
H 	H 	0.10566 0.37235 0.34902 0.06500
C 	C 	0.01837 0.23074 0.32401 0.06900
C 	C 	0.29854 0.48390 0.28378 0.08800
N 	N 	0.96105 0.18029 0.33234 -0.11600
N 	N 	0.35527 0.53543 0.27558 -0.09900
C 	C 	0.93555 0.83378 0.31646 -0.06300
C 	C 	0.94874 0.83417 0.34452 -0.00300
C 	C 	0.00056 0.79584 0.35514 0.00200
C 	C 	0.03601 0.75419 0.33755 -0.05800
C 	C 	0.00714 0.73794 0.31070 -0.00700
C 	C 	0.95539 0.77652 0.30020 -0.00400
H 	H 	0.03011 0.70104 0.29750 0.04700
C 	C 	0.93075 0.76473 0.27197 0.06200
C 	C 	0.02143 0.80422 0.38368 0.07500
N 	N 	0.91101 0.75540 0.24934 -0.11500
N 	N 	0.03823 0.81092 0.40655 -0.09800
C 	C 	0.35328 0.97888 0.44670 -0.14500
C 	C 	0.31732 0.95428 0.47181 0.36600
C 	C 	0.33635 0.01046 0.49362 -0.11500
F 	F 	0.26697 0.87487 0.47539 -0.42600
H 	H 	0.31271 0.98945 0.51338 0.12600
C 	C 	0.00171 0.45545 0.45790 -0.14900
C 	C 	0.04106 0.42965 0.47899 0.01600
C 	C 	0.11989 0.42840 0.47534 0.30600
C 	C 	0.16065 0.45722 0.45134 -0.05500
C 	C 	0.12293 0.48738 0.43082 -0.14300
C 	C 	0.04215 0.48381 0.43388 0.37900
F 	F 	0.15765 0.40116 0.49528 -0.39400
H 	H 	0.22248 0.45864 0.44906 0.09900
F 	F 	0.00305 0.50833 0.41365 -0.42900
H 	H 	0.90438 0.30024 0.49069 0.12800
H 	H 	0.41071 0.55782 0.55750 0.13700
C 	C 	0.49731 0.56469 0.49621 0.30200
C 	C 	0.47212 0.57525 0.46998 -0.05400
C 	C 	0.45857 0.64805 0.46332 -0.13300
C 	C 	0.47195 0.71109 0.48314 0.37500
F 	F 	0.50941 0.49362 0.50245 -0.40600
H 	H 	0.46202 0.52634 0.45491 0.09300
F 	F 	0.45731 0.78112 0.47731 -0.42100
C 	C 	0.40578 0.21728 0.68807 -0.05100
C 	C 	0.42097 0.21059 0.71568 -0.01900
C 	C 	0.35824 0.16243 0.73223 0.00600
C 	C 	0.27913 0.12053 0.72099 -0.05900
C 	C 	0.26217 0.13521 0.69411 -0.00900
C 	C 	0.32492 0.18370 0.67766 0.01000
H 	H 	0.48269 0.23858 0.72394 0.03500
H 	H 	0.20092 0.10561 0.68563 0.04700
C 	C 	0.30642 0.19647 0.64986 0.10800
C 	C 	0.37663 0.15354 0.76037 0.09200
N 	N 	0.29164 0.20672 0.62758 -0.08200
N 	N 	0.39163 0.14671 0.78290 -0.10300
C 	C 	0.12796 0.70364 0.66143 0.10200
N 	N 	0.19317 0.73828 0.65385 -0.09700
C 	C 	0.02313 0.61246 0.01409 0.29000
C 	C 	0.06045 0.62697 0.03976 -0.05400
C 	C 	0.03180 0.56841 0.06008 -0.15300
C 	C 	0.96488 0.49515 0.05455 0.37900
F 	F 	0.05191 0.66926 0.99453 -0.41000
H 	H 	0.11252 0.68324 0.04375 0.08900
F 	F 	0.93519 0.43881 0.07418 -0.42500
C 	C 	0.48262 0.03777 0.99217 -0.12000
C 	C 	0.52203 0.00398 0.03785 0.03200
F 	F 	0.44677 0.05591 0.94670 -0.41300
H 	H 	0.42088 0.99537 0.99519 0.12000
C 	C 	0.47448 0.02298 0.05760 0.30200
C 	C 	0.44813 0.97146 0.07977 -0.06700
C 	C 	0.46840 0.90028 0.08220 -0.14300
C 	C 	0.51863 0.88315 0.06297 0.38000
C 	C 	0.54522 0.93483 0.04090 -0.15100
F 	F 	0.45248 0.09031 0.05500 -0.40900
H 	H 	0.41005 0.98555 0.09464 0.09400
F 	F 	0.54139 0.81628 0.06563 -0.41600
C 	C 	0.32895 0.42724 0.02454 0.29700
C 	C 	0.31616 0.44974 0.05086 -0.05200
C 	C 	0.38295 0.49313 0.06801 -0.14800
F 	F 	0.26393 0.38668 0.00799 -0.40300
H 	H 	0.25432 0.43574 0.05763 0.05700
C 	C 	0.45916 0.05849 0.85377 -0.05600
C 	C 	0.46196 0.00713 0.83188 0.00900
C 	C 	0.39076 0.96380 0.81670 -0.00200
C 	C 	0.31668 0.97484 0.82280 -0.06700
C 	C 	0.31213 0.01633 0.84699 0.01100
C 	C 	0.38277 0.05799 0.86247 0.01500
H 	H 	0.51992 0.00347 0.82600 0.05100
H 	H 	0.25428 0.01971 0.85311 0.06800
C 	C 	0.37634 0.10104 0.88704 0.11800
C 	C 	0.39369 0.90613 0.79571 0.07600
N 	N 	0.37045 0.13534 0.90669 -0.04600
N 	N 	0.39611 0.85993 0.77889 -0.12300
Ni	Ni	0.59699 0.28227 0.89391 1.10400
O 	O 	0.63339 0.36606 0.86340 -0.69500
Ni	Ni	0.74613 0.36498 0.85764 1.10100
O 	O 	0.49451 0.30911 0.90009 -0.33500
O 	O 	0.53143 0.44774 0.89307 -0.38400
O 	O 	0.54195 0.19922 0.86375 -0.38900
Ni	Ni	0.64168 0.47954 0.87251 1.07700
O 	O 	0.66911 0.14447 0.92398 -0.39500
O 	O 	0.70586 0.47871 0.90722 -0.38200
O 	O 	0.77535 0.44523 0.82643 -0.36900
O 	O 	0.71067 0.28764 0.88962 -0.71000
O 	O 	0.55952 0.18998 0.92176 -0.32000
O 	O 	0.84855 0.33620 0.85140 -0.35500
O 	O 	0.76989 0.19877 0.84928 -0.40500
Ni	Ni	0.71021 0.17476 0.88588 1.07800
H 	H 	0.59965 0.34654 0.84668 0.16400
H 	H 	0.74248 0.31265 0.90625 0.15900
C 	C 	0.78030 0.47684 0.90689 0.32800
O 	O 	0.60076 0.10152 0.86795 -0.38100
C 	C 	0.50236 0.38350 0.90898 0.32500
C 	C 	0.76331 0.51594 0.82845 0.27600
C 	C 	0.53542 0.12158 0.86448 0.31100
C 	C 	0.84170 0.25854 0.84765 0.27100
C 	C 	0.60864 0.16098 0.93559 0.33100
O 	O 	0.81090 0.45962 0.88430 -0.36100
O 	O 	0.74555 0.54105 0.85206 -0.38400
Ni	Ni	0.59574 0.35617 0.63474 1.10500
O 	O 	0.68286 0.37778 0.60558 -0.69900
Ni	Ni	0.75830 0.32755 0.62233 1.10800
O 	O 	0.55356 0.44716 0.62223 -0.32600
O 	O 	0.68371 0.53725 0.62054 -0.40900
O 	O 	0.51195 0.27339 0.60875 -0.36000
Ni	Ni	0.74811 0.48939 0.59479 1.08600
O 	O 	0.48482 0.18477 0.65354 -0.39000
O 	O 	0.85096 0.52170 0.61927 -0.38300
O 	O 	0.85612 0.37218 0.59704 -0.35800
O 	O 	0.66245 0.29139 0.64823 -0.70000
O 	O 	0.50968 0.32196 0.66380 -0.35300
O 	O 	0.81055 0.25238 0.64079 -0.34600
O 	O 	0.69320 0.13889 0.63506 -0.38000
Ni	Ni	0.59488 0.17452 0.64463 1.07100
H 	H 	0.65970 0.34616 0.58874 0.19000
H 	H 	0.68004 0.30666 0.66731 0.16300
C 	C 	0.85253 0.49736 0.64421 0.30000
O 	O 	0.57420 0.17845 0.60417 -0.37700
C 	C 	0.60561 0.51957 0.61508 0.32900
C 	C 	0.85099 0.39981 0.57242 0.35300
C 	C 	0.52882 0.21778 0.59412 0.33700
C 	C 	0.76694 0.17464 0.64594 0.27100
C 	C 	0.47498 0.24261 0.66955 0.26900
O 	O 	0.81422 0.41966 0.65048 -0.37900
O 	O 	0.80270 0.44177 0.56665 -0.37900
Ni	Ni	0.01763 0.90686 0.72729 1.10100
O 	O 	0.04042 0.83064 0.69930 -0.36300
O 	O 	0.91359 0.81136 0.73822 -0.36800
O 	O 	0.85500 0.93620 0.73075 -0.38900
O 	O 	0.94908 0.93869 0.69894 -0.35900
O 	O 	0.95803 0.01858 0.80577 -0.38500
Ni	Ni	0.91548 0.97732 0.76682 1.07500
O 	O 	0.89846 0.86146 0.77990 -0.40400
C 	C 	0.88919 0.79897 0.76330 0.28900
C 	C 	0.88924 0.96172 0.70730 0.26900
C 	C 	0.49486 0.76871 0.16840 0.29200
Ni	Ni	0.96151 0.11720 0.23047 1.10500
O 	O 	0.89564 0.13731 0.26221 -0.69900
Ni	Ni	0.86823 0.02746 0.28013 1.10400
O 	O 	0.94573 0.20362 0.20559 -0.35600
O 	O 	0.85297 0.24889 0.22573 -0.38200
Ni	Ni	0.79264 0.14671 0.24973 1.07300
O 	O 	0.78403 0.05663 0.22137 -0.39700
O 	O 	0.78578 0.04012 0.30667 -0.37400
O 	O 	0.94721 0.01672 0.25196 -0.70000
O 	O 	0.86637 0.92051 0.29829 -0.35800
H 	H 	0.92654 0.18413 0.27441 0.16500
H 	H 	0.92348 0.96598 0.24054 0.16000
C 	C 	0.76544 0.97834 0.22835 0.25600
C 	C 	0.92511 0.26438 0.21486 0.28900
C 	C 	0.71597 0.04323 0.29776 0.30000
C 	C 	0.93561 0.91042 0.30431 0.27500
O 	O 	0.77464 0.95950 0.25389 -0.36800
O 	O 	0.70710 0.06048 0.27219 -0.40000
C 	C 	0.94189 0.38305 0.18396 0.01400
C 	C 	0.85730 0.34787 0.17516 0.10800
N 	N 	0.78953 0.31969 0.16809 -0.08900
C 	C 	0.71261 0.91133 0.20986 -0.05300
C 	C 	0.66252 0.83612 0.22093 -0.01100
C 	C 	0.59506 0.78283 0.20617 0.00900
C 	C 	0.57817 0.80364 0.17990 -0.05200
C 	C 	0.63548 0.87122 0.16729 -0.00700
C 	C 	0.70307 0.92502 0.18206 0.01000
H 	H 	0.67301 0.82145 0.24160 0.06000
H 	H 	0.62481 0.88478 0.14650 0.07300
C 	C 	0.76296 0.99224 0.16837 0.09100
C 	C 	0.54142 0.70854 0.21852 0.09100
N 	N 	0.81091 0.04607 0.15739 -0.08000
N 	N 	0.49843 0.64906 0.22843 -0.09800
N 	N 	0.90736 0.91210 0.17477 -0.10900
C 	C 	0.50387 0.90803 0.34261 -0.05600
C 	C 	0.56453 0.97781 0.35446 -0.02200
C 	C 	0.63334 0.02352 0.33985 0.02800
C 	C 	0.64177 0.99958 0.31303 -0.08000
C 	C 	0.58098 0.92996 0.30116 0.00100
C 	C 	0.51261 0.88377 0.31583 -0.00300
H 	H 	0.55774 0.99696 0.37498 0.06500
H 	H 	0.58803 0.91048 0.28069 0.05000
C 	C 	0.45362 0.80963 0.30365 0.07800
C 	C 	0.69419 0.09573 0.35237 0.08600
N 	N 	0.74295 0.15356 0.36240 -0.09300
H 	H 	0.92771 0.87309 0.35753 0.05600
C 	C 	0.51319 0.15764 0.52029 -0.13300
C 	C 	0.43020 0.14178 0.51466 0.02400
C 	C 	0.38258 0.16178 0.53418 0.29400
C 	C 	0.41605 0.19058 0.55987 -0.04900
C 	C 	0.49726 0.19983 0.56614 -0.14400
C 	C 	0.54670 0.18680 0.54587 0.37400
C 	C 	0.39104 0.09171 0.49048 0.01700
F 	F 	0.30300 0.14974 0.52863 -0.40300
H 	H 	0.37799 0.20245 0.57520 0.11300
F 	F 	0.62680 0.20062 0.55116 -0.42200
H 	H 	0.55069 0.14344 0.50524 0.14300
C 	C 	0.41955 0.11875 0.46463 0.29000
C 	C 	0.40104 0.06232 0.44282 -0.04700
F 	F 	0.46927 0.19837 0.46104 -0.41000
H 	H 	0.42745 0.08245 0.42333 0.09600
C 	C 	0.00184 0.41013 0.50547 0.01900
H 	H 	0.94043 0.45546 0.46042 0.12700
C 	C 	0.03210 0.46492 0.52765 0.29900
C 	C 	0.98553 0.45657 0.55084 -0.04500
C 	C 	0.90821 0.39421 0.55192 -0.13800
C 	C 	0.88073 0.33577 0.53063 0.37700
C 	C 	0.92762 0.34351 0.50753 -0.14100
F 	F 	0.10405 0.52935 0.52604 -0.39900
H 	H 	0.00738 0.50156 0.56730 0.09500
F 	F 	0.80662 0.27417 0.53169 -0.41100
C 	C 	0.47496 0.57348 0.56250 -0.14200
C 	C 	0.53417 0.61500 0.54382 0.01800
C 	C 	0.61721 0.63780 0.55084 0.29200
C 	C 	0.64081 0.61313 0.57543 -0.06700
C 	C 	0.58147 0.56433 0.59310 -0.15600
C 	C 	0.49838 0.54888 0.58718 0.38000
C 	C 	0.50920 0.62694 0.51606 0.01700
F 	F 	0.67503 0.68051 0.53326 -0.41600
H 	H 	0.70517 0.62828 0.58006 0.05600
F 	F 	0.44031 0.50824 0.60498 -0.42200
C 	C 	0.49732 0.70041 0.50937 -0.13300
H 	H 	0.50670 0.74878 0.52459 0.12800
C 	C 	0.86264 0.01889 0.69111 -0.06300
C 	C 	0.84093 0.00038 0.66371 0.01200
C 	C 	0.81230 0.05247 0.64835 0.00400
C 	C 	0.80540 0.12396 0.66053 -0.05600
C 	C 	0.83073 0.14439 0.68753 -0.01700
C 	C 	0.85898 0.09233 0.70290 0.00600
H 	H 	0.84533 0.94495 0.65444 0.05100
H 	H 	0.82661 0.20000 0.69677 0.04300
C 	C 	0.88468 0.11510 0.73071 0.04200
C 	C 	0.79197 0.03318 0.62002 0.11100
N 	N 	0.90505 0.13336 0.75300 -0.15700
N 	N 	0.77570 0.01773 0.59731 -0.07800
C 	C 	0.91261 0.55308 0.66365 -0.06100
C 	C 	0.99333 0.59350 0.65557 0.00600
C 	C 	0.04657 0.66039 0.67088 0.00700
C 	C 	0.01917 0.68684 0.69468 -0.06300
C 	C 	0.94138 0.64101 0.70415 -0.00700
C 	C 	0.88785 0.57456 0.68875 0.00800
H 	H 	0.01352 0.57516 0.63673 0.05800
H 	H 	0.92088 0.65998 0.72277 0.04600
C 	C 	0.80637 0.53161 0.69820 0.08300
N 	N 	0.74110 0.49725 0.70578 -0.11800
C 	C 	0.86664 0.57265 0.97482 -0.13800
C 	C 	0.91454 0.52590 0.98195 0.01800
C 	C 	0.92267 0.46683 0.96362 0.29000
C 	C 	0.88135 0.45321 0.93857 -0.05800
C 	C 	0.83127 0.49816 0.93176 -0.14500
C 	C 	0.82551 0.55929 0.94979 0.37700
C 	C 	0.95639 0.53937 0.00856 0.02000
F 	F 	0.97022 0.42239 0.97016 -0.41000
H 	H 	0.88668 0.40637 0.92474 0.08000
F 	F 	0.78034 0.60596 0.94300 -0.43300
H 	H 	0.86108 0.61913 0.98876 0.13300
C 	C 	0.92738 0.48081 0.02885 -0.13800
H 	H 	0.87529 0.42464 0.02476 0.13300
C 	C 	0.54197 0.05215 0.01290 0.01200
C 	C 	0.62198 0.10668 0.00875 0.30100
C 	C 	0.64293 0.14449 0.98373 -0.06000
C 	C 	0.58418 0.12801 0.96268 -0.12100
C 	C 	0.50358 0.07499 0.96710 0.38100
F 	F 	0.67976 0.12161 0.02876 -0.40600
H 	H 	0.70512 0.18551 0.98056 0.09800
H 	H 	0.58240 0.92017 0.02584 0.13300
C 	C 	0.47545 0.48861 0.03253 -0.14100
C 	C 	0.40866 0.44769 0.01518 0.02000
C 	C 	0.46281 0.51121 0.05886 0.38800
C 	C 	0.42249 0.42630 0.98724 0.01900
F 	F 	0.52807 0.55070 0.07544 -0.41300
H 	H 	0.53717 0.50348 0.02553 0.13000
C 	C 	0.42553 0.48103 0.96624 0.30100
C 	C 	0.44690 0.46452 0.94025 -0.05400
C 	C 	0.46605 0.39340 0.93506 -0.13500
C 	C 	0.45881 0.33660 0.95595 0.36900
C 	C 	0.43727 0.35329 0.98186 -0.13900
F 	F 	0.40981 0.55125 0.97118 -0.40600
H 	H 	0.45034 0.50798 0.92432 0.10200
F 	F 	0.47552 0.26685 0.95147 -0.43100
H 	H 	0.43407 0.31035 0.99795 0.13400
C 	C 	0.91440 0.23785 0.84191 -0.06200
C 	C 	0.93727 0.18719 0.85978 -0.00900
C 	C 	0.98980 0.14717 0.85134 0.01800
C 	C 	0.01736 0.15588 0.82458 -0.06100
C 	C 	0.00803 0.21919 0.80896 -0.01900
C 	C 	0.95436 0.25846 0.81707 0.01500
H 	H 	0.91051 0.17520 0.87962 0.03200
H 	H 	0.03454 0.23068 0.78909 0.04500
C 	C 	0.93566 0.31430 0.79888 0.09200
C 	C 	0.01010 0.09224 0.86947 0.09300
N 	N 	0.92058 0.35886 0.78425 -0.10300
N 	N 	0.02640 0.04820 0.88400 -0.08800
C 	C 	0.85158 0.71416 0.77314 -0.06900
C 	C 	0.90205 0.67070 0.78095 -0.00900
C 	C 	0.87321 0.60334 0.79821 0.00800
C 	C 	0.79160 0.57671 0.80680 -0.05800
C 	C 	0.73892 0.61488 0.79664 -0.01400
C 	C 	0.76849 0.68340 0.77988 0.01200
H 	H 	0.96520 0.69227 0.77491 0.02300
H 	H 	0.67560 0.59307 0.80260 0.02900
C 	C 	0.71363 0.72295 0.77011 0.08100
C 	C 	0.92935 0.56604 0.80854 0.09700
N 	N 	0.66972 0.75468 0.76229 -0.10800
N 	N 	0.97441 0.53635 0.81685 -0.09500
