data_crystal

_cell_length_a 22.30822
_cell_length_b 23.30205
_cell_length_c 20.37452
_cell_angle_alpha 90.00300
_cell_angle_beta  90.00898
_cell_angle_gamma 92.71814

_symmetry_space_group_name_	'P 1'
_symmetry_space_group_name_H-M	'P 1'

loop_
_symmetry_equiv_pos_as_xyz
  x,y,z

loop_
_atom_site_label
_atom_site_type_symbol
_atom_site_fract_x
_atom_site_fract_y
_atom_site_fract_z
_atom_site_charge
C 	C 	0.83551 0.97845 0.17027 -0.04100
C 	C 	0.83540 0.03676 0.15456 -0.04200
C 	C 	0.88988 0.95002 0.17412 0.00600
C 	C 	0.94467 0.98171 0.16424 -0.00500
C 	C 	0.94468 0.04113 0.15013 -0.01100
C 	C 	0.88970 0.06876 0.14395 0.00700
C 	C 	0.99949 0.95360 0.16554 0.00700
C 	C 	0.05392 0.98635 0.16196 -0.03800
C 	C 	0.99964 0.07211 0.13875 0.01400
C 	C 	0.89038 0.12744 0.12477 -0.01100
C 	C 	0.94522 0.15668 0.11073 -0.04300
C 	C 	0.99929 0.12906 0.11548 -0.02800
C 	C 	0.89046 0.88996 0.18543 -0.01000
C 	C 	0.94506 0.86259 0.18514 -0.04600
C 	C 	0.99878 0.89309 0.16978 -0.00700
C 	C 	0.83426 0.15773 0.11324 0.00400
C 	C 	0.82200 0.17857 0.05022 -0.03000
C 	C 	0.77705 0.21753 0.04108 -0.08400
C 	C 	0.74256 0.23474 0.09448 0.02000
C 	C 	0.75154 0.21050 0.15662 -0.04900
C 	C 	0.79830 0.17335 0.16636 -0.04100
C 	C 	0.05372 0.15716 0.08714 0.05000
C 	C 	0.08835 0.19701 0.12417 -0.07400
C 	C 	0.14011 0.22335 0.09719 -0.01600
C 	C 	0.07131 0.14344 0.02315 -0.13900
C 	C 	0.12316 0.16967 0.99621 0.05000
C 	C 	0.15775 0.20965 0.03314 -0.04400
C 	C 	0.83445 0.85380 0.18406 0.01200
C 	C 	0.79645 0.85055 0.23897 -0.04800
C 	C 	0.74148 0.81924 0.23532 -0.04000
C 	C 	0.72589 0.78869 0.17798 0.00100
C 	C 	0.76500 0.79034 0.12416 -0.04100
C 	C 	0.81880 0.82307 0.12699 -0.04700
C 	C 	0.05020 0.86084 0.14563 0.01200
C 	C 	0.07116 0.86926 0.08107 -0.04600
C 	C 	0.11574 0.83524 0.05598 -0.04400
C 	C 	0.13884 0.79172 0.09460 0.00500
C 	C 	0.11675 0.78212 0.15826 -0.04200
C 	C 	0.07359 0.81732 0.18424 -0.04500
C 	C 	0.05404 0.04504 0.14902 -0.04400
H 	H 	0.84911 0.16646 0.00880 0.02800
H 	H 	0.76952 0.23495 0.99264 0.06800
H 	H 	0.72276 0.22074 0.19731 0.03600
H 	H 	0.80656 0.15675 0.21500 0.03900
H 	H 	0.75319 0.76682 0.07975 0.03300
H 	H 	0.84819 0.82504 0.08464 0.03600
H 	H 	0.71081 0.81937 0.27644 0.03200
H 	H 	0.80859 0.87377 0.28346 0.03800
H 	H 	0.05223 0.90156 0.05008 0.03600
H 	H 	0.13184 0.84226 0.00633 0.03200
H 	H 	0.05684 0.80953 0.23346 0.04000
H 	H 	0.13257 0.74695 0.18724 0.03500
H 	H 	0.07514 0.20749 0.17375 0.04300
H 	H 	0.16651 0.25451 0.12585 0.02900
H 	H 	0.04472 0.11249 0.99442 0.08200
H 	H 	0.13628 0.15925 0.94658 0.01900
H 	H 	0.79290 0.95541 0.17808 0.03900
H 	H 	0.79271 0.05645 0.14958 0.03800
H 	H 	0.94563 0.20094 0.09411 0.03600
H 	H 	0.09657 0.06940 0.14732 0.04100
H 	H 	0.09626 0.96658 0.17019 0.04100
H 	H 	0.94478 0.81622 0.19000 0.03900
C 	C 	0.95035 0.95036 0.33783 -0.03700
C 	C 	0.95078 0.00905 0.32409 -0.04000
C 	C 	0.00466 0.92274 0.34707 0.00700
C 	C 	0.05959 0.95340 0.33508 -0.00600
C 	C 	0.06001 0.01300 0.32194 -0.00700
C 	C 	0.00541 0.04163 0.32034 0.00900
C 	C 	0.11437 0.92509 0.33859 0.00600
C 	C 	0.16813 0.95547 0.32133 -0.04100
C 	C 	0.11507 0.04419 0.31286 0.00800
C 	C 	0.00679 0.10238 0.31450 -0.00900
C 	C 	0.06194 0.13262 0.30491 -0.04500
C 	C 	0.11599 0.10472 0.30941 -0.01100
C 	C 	0.00496 0.86536 0.36935 -0.01000
C 	C 	0.05924 0.83776 0.37419 -0.04800
C 	C 	0.11406 0.86704 0.35987 -0.00900
C 	C 	0.95281 0.13565 0.32821 0.01400
C 	C 	0.93640 0.17874 0.28442 -0.04500
C 	C 	0.89171 0.21611 0.30140 -0.04100
C 	C 	0.86363 0.21148 0.36280 0.00300
C 	C 	0.87860 0.16752 0.40599 -0.04000
C 	C 	0.92381 0.13049 0.38937 -0.04600
C 	C 	0.16991 0.13884 0.32994 0.01300
C 	C 	0.17898 0.15074 0.39671 -0.04500
C 	C 	0.22848 0.18489 0.41685 -0.03900
C 	C 	0.21107 0.16091 0.28328 -0.04800
C 	C 	0.26155 0.19412 0.30366 -0.03900
C 	C 	0.26972 0.20703 0.37048 0.00100
C 	C 	0.95039 0.83696 0.39730 0.01300
C 	C 	0.93328 0.84936 0.46181 -0.04500
C 	C 	0.88129 0.82300 0.48836 -0.04000
C 	C 	0.84598 0.78430 0.45047 0.00200
C 	C 	0.86288 0.77222 0.38574 -0.04000
C 	C 	0.91500 0.79844 0.35927 -0.04600
C 	C 	0.17067 0.83751 0.37246 0.01100
C 	C 	0.18261 0.78731 0.33770 -0.04700
C 	C 	0.23051 0.75412 0.35607 -0.04200
C 	C 	0.26615 0.77004 0.41042 0.00400
C 	C 	0.25606 0.82155 0.44348 -0.04100
C 	C 	0.20805 0.85480 0.42513 -0.04500
C 	C 	0.16856 0.01450 0.30923 -0.04300
H 	H 	0.96062 0.18534 0.23895 0.04100
H 	H 	0.88003 0.24964 0.26751 0.03500
H 	H 	0.85677 0.16338 0.45335 0.03700
H 	H 	0.93733 0.09879 0.42462 0.04000
H 	H 	0.83580 0.74223 0.35622 0.03500
H 	H 	0.92791 0.78880 0.30940 0.03800
H 	H 	0.86874 0.83219 0.53850 0.03700
H 	H 	0.96038 0.87932 0.49131 0.04000
H 	H 	0.15323 0.77272 0.29832 0.03600
H 	H 	0.23826 0.71470 0.32988 0.03900
H 	H 	0.19892 0.89305 0.45290 0.04000
H 	H 	0.28397 0.83473 0.48481 0.03700
H 	H 	0.14721 0.13387 0.43291 0.04000
H 	H 	0.23478 0.19440 0.46853 0.03700
H 	H 	0.20418 0.15198 0.23155 0.03700
H 	H 	0.29404 0.20994 0.26770 0.03500
H 	H 	0.90766 0.92635 0.34035 0.04000
H 	H 	0.90856 0.02874 0.31508 0.04300
H 	H 	0.06320 0.17915 0.30200 0.03900
H 	H 	0.21060 0.03700 0.29676 0.03900
H 	H 	0.20974 0.93366 0.31721 0.03800
H 	H 	0.05904 0.79389 0.39206 0.04000
Ni	Ni	0.44812 0.44786 0.02399 1.09000
O 	O 	0.38723 0.50808 0.00257 -0.73000
Ni	Ni	0.42918 0.57947 0.03884 1.09600
O 	O 	0.39344 0.38094 0.99029 -0.33100
O 	O 	0.31408 0.40637 0.05201 -0.40000
O 	O 	0.48155 0.45090 0.92935 -0.35100
Ni	Ni	0.31273 0.49536 0.05377 1.06100
O 	O 	0.58456 0.44678 0.99708 -0.37800
O 	O 	0.35399 0.48734 0.14270 -0.39600
O 	O 	0.36405 0.63426 0.01521 -0.39200
O 	O 	0.48978 0.51884 0.06209 -0.71000
O 	O 	0.51147 0.39210 0.04971 -0.38900
O 	O 	0.48272 0.64693 0.07299 -0.37400
O 	O 	0.56985 0.61951 0.02686 -0.41900
Ni	Ni	0.56660 0.53068 0.01621 1.05600
H 	H 	0.37897 0.51161 0.95504 0.17900
H 	H 	0.49777 0.51412 0.10930 0.16700
C 	C 	0.38987 0.52863 0.16520 0.26100
O 	O 	0.52537 0.54139 0.92871 -0.39100
C 	C 	0.33582 0.37657 0.00364 0.21500
C 	C 	0.30801 0.62381 0.03425 0.27800
C 	C 	0.49764 0.49854 0.89787 0.25400
C 	C 	0.54150 0.64577 0.07386 0.28900
C 	C 	0.56839 0.40310 0.03567 0.25400
O 	O 	0.39600 0.57685 0.13268 -0.36100
O 	O 	0.29396 0.57914 0.07244 -0.40600
Ni	Ni	0.57155 0.42003 0.45774 1.10000
O 	O 	0.50721 0.48021 0.45437 -0.70500
Ni	Ni	0.55071 0.54735 0.49609 1.09800
O 	O 	0.51218 0.35110 0.44595 -0.38000
O 	O 	0.45292 0.38525 0.52645 -0.41900
O 	O 	0.58057 0.42555 0.35750 -0.36600
Ni	Ni	0.43076 0.46733 0.49916 1.07300
O 	O 	0.69698 0.42748 0.39026 -0.40900
O 	O 	0.44522 0.50163 0.59107 -0.38300
O 	O 	0.48016 0.60026 0.51111 -0.37500
O 	O 	0.61789 0.49058 0.48658 -0.70100
O 	O 	0.64125 0.36682 0.45879 -0.39100
O 	O 	0.61130 0.61210 0.52298 -0.36900
O 	O 	0.66843 0.59696 0.43215 -0.41500
Ni	Ni	0.67804 0.50927 0.41943 1.06700
H 	H 	0.49729 0.49114 0.40906 0.16000
H 	H 	0.63787 0.48340 0.52899 0.15600
C 	C 	0.49700 0.50317 0.62176 0.27200
O 	O 	0.61990 0.51665 0.34362 -0.39900
C 	C 	0.46267 0.34681 0.48079 0.28700
C 	C 	0.42786 0.59479 0.47995 0.28700
C 	C 	0.58154 0.47500 0.32655 0.25800
C 	C 	0.66152 0.62137 0.48977 0.28300
C 	C 	0.69143 0.38003 0.42643 0.28400
O 	O 	0.54672 0.51955 0.59124 -0.37700
O 	O 	0.40282 0.54358 0.46495 -0.41100
C 	C 	0.49762 0.50054 0.69354 0.04100
N 	N 	0.45409 0.46971 0.72656 -0.07000
N 	N 	0.45434 0.46844 0.79202 -0.07100
C 	C 	0.49746 0.49885 0.82607 0.04200
N 	N 	0.54072 0.52979 0.79298 -0.06600
N 	N 	0.54108 0.53024 0.72767 -0.06300
C 	C 	0.53269 0.48773 0.28202 0.01300
N 	N 	0.52638 0.54260 0.26216 -0.08100
N 	N 	0.47718 0.55694 0.23055 -0.07800
C 	C 	0.43325 0.51661 0.21644 0.01400
N 	N 	0.43906 0.46177 0.23722 -0.07700
N 	N 	0.48777 0.44769 0.27029 -0.07500
C 	C 	0.39144 0.64586 0.47164 -0.08900
C 	C 	0.41055 0.69229 0.43042 0.06000
C 	C 	0.36930 0.73342 0.41229 -0.07700
C 	C 	0.31026 0.73003 0.43625 0.00800
C 	C 	0.29254 0.68589 0.48099 -0.00600
C 	C 	0.33357 0.64465 0.49868 -0.00500
H 	H 	0.38290 0.76748 0.37840 0.04700
H 	H 	0.31973 0.61041 0.53226 0.03400
C 	C 	0.47394 0.69759 0.40356 -0.08100
C 	C 	0.23067 0.68315 0.51197 -0.05200
C 	C 	0.48014 0.66184 0.34145 -0.13600
H 	H 	0.50711 0.68476 0.44069 0.05000
H 	H 	0.48618 0.74323 0.39162 0.04200
H 	H 	0.47072 0.61561 0.35219 0.05800
H 	H 	0.52665 0.66751 0.32230 0.05800
H 	H 	0.44860 0.67581 0.30304 0.06600
C 	C 	0.23097 0.71569 0.57698 -0.14400
H 	H 	0.21598 0.63762 0.52134 0.03400
H 	H 	0.19629 0.70041 0.47896 0.03900
H 	H 	0.26245 0.69656 0.61213 0.05800
H 	H 	0.18524 0.71301 0.59859 0.05300
H 	H 	0.24454 0.76165 0.56940 0.05800
C 	C 	0.70042 0.67167 0.50560 -0.09800
C 	C 	0.75760 0.66422 0.53297 0.06200
C 	C 	0.80441 0.70476 0.51960 -0.08100
C 	C 	0.79425 0.75258 0.48015 0.01000
C 	C 	0.73495 0.76462 0.46215 -0.01100
C 	C 	0.68810 0.72426 0.47639 -0.00200
H 	H 	0.84950 0.69723 0.53643 0.04800
H 	H 	0.64302 0.73145 0.45928 0.03200
C 	C 	0.76995 0.61157 0.57338 -0.09800
C 	C 	0.72097 0.82094 0.42973 -0.05100
C 	C 	0.79782 0.56535 0.53165 -0.10400
H 	H 	0.72807 0.59348 0.59656 0.04900
H 	H 	0.80123 0.62375 0.61409 0.04700
H 	H 	0.76684 0.55087 0.49170 -0.01500
H 	H 	0.80692 0.52772 0.56293 0.03300
H 	H 	0.84087 0.58200 0.50990 0.03900
C 	C 	0.71661 0.86858 0.48062 -0.14400
H 	H 	0.67769 0.81646 0.40269 0.03200
H 	H 	0.75552 0.83390 0.39276 0.03600
H 	H 	0.68076 0.85719 0.51683 0.05800
H 	H 	0.70553 0.90914 0.45576 0.05200
H 	H 	0.76000 0.87580 0.50676 0.05800
C 	C 	0.81912 0.25337 0.38233 0.00800
C 	C 	0.83593 0.30212 0.42090 -0.00800
C 	C 	0.79284 0.34204 0.43644 -0.01100
C 	C 	0.73358 0.33427 0.41420 -0.09700
C 	C 	0.71687 0.28561 0.37523 0.06400
C 	C 	0.75973 0.24521 0.36065 -0.08300
H 	H 	0.80589 0.37999 0.46484 0.01800
H 	H 	0.74701 0.20777 0.33126 0.04600
C 	C 	0.90038 0.31414 0.44231 -0.05400
C 	C 	0.65363 0.27598 0.34881 -0.07900
C 	C 	0.93501 0.35073 0.39158 -0.14100
H 	H 	0.92387 0.27393 0.45109 0.03900
H 	H 	0.90137 0.33751 0.48992 0.03300
H 	H 	0.93629 0.32810 0.34371 0.05400
H 	H 	0.98182 0.35928 0.40875 0.04900
H 	H 	0.91378 0.39250 0.38478 0.04900
C 	C 	0.61545 0.23746 0.39460 -0.13100
H 	H 	0.65505 0.25494 0.29988 0.04100
H 	H 	0.63147 0.31701 0.34066 0.06600
H 	H 	0.63378 0.19402 0.39725 0.05100
H 	H 	0.56880 0.23316 0.37559 0.05800
H 	H 	0.61441 0.25599 0.44475 0.06900
C 	C 	0.41224 0.31051 0.45594 -0.11800
C 	C 	0.41525 0.25009 0.45406 0.07300
C 	C 	0.37000 0.21717 0.42178 -0.08600
C 	C 	0.32151 0.24348 0.39248 0.01400
C 	C 	0.31867 0.30402 0.39419 -0.01500
C 	C 	0.36417 0.33690 0.42602 0.00500
H 	H 	0.37117 0.17069 0.42183 0.04900
H 	H 	0.36299 0.38340 0.42596 -0.01700
C 	C 	0.46318 0.21987 0.49165 -0.08400
C 	C 	0.26912 0.33445 0.35944 -0.04800
C 	C 	0.44576 0.21253 0.56369 -0.13300
H 	H 	0.50729 0.24371 0.48829 0.05200
H 	H 	0.46973 0.17676 0.47012 0.04000
H 	H 	0.44121 0.25508 0.58731 0.06100
H 	H 	0.48111 0.18961 0.58993 0.05100
H 	H 	0.40264 0.18694 0.56812 0.05400
C 	C 	0.28854 0.35287 0.29042 -0.14700
H 	H 	0.25800 0.37337 0.38770 0.02900
H 	H 	0.22685 0.30746 0.35656 0.03700
H 	H 	0.32828 0.38342 0.29270 0.06600
H 	H 	0.25137 0.37456 0.26588 0.05400
H 	H 	0.29984 0.31504 0.26057 0.06100
C 	C 	0.18426 0.75428 0.06734 0.00100
C 	C 	0.24620 0.76600 0.07865 -0.00400
C 	C 	0.28718 0.72441 0.06230 -0.01100
C 	C 	0.26732 0.67183 0.03435 -0.08400
C 	C 	0.20628 0.66294 0.01646 0.02100
C 	C 	0.16519 0.70432 0.03345 -0.06700
H 	H 	0.33425 0.73186 0.07446 0.04300
H 	H 	0.11803 0.69701 0.02169 0.03600
C 	C 	0.26916 0.82184 0.10992 -0.05200
C 	C 	0.18516 0.61113 0.97611 -0.04000
C 	C 	0.27750 0.81503 0.18383 -0.14500
H 	H 	0.23870 0.85722 0.10029 0.03700
H 	H 	0.31310 0.83557 0.08780 0.03200
H 	H 	0.23418 0.80261 0.20767 0.06100
H 	H 	0.29464 0.85646 0.20521 0.05300
H 	H 	0.31030 0.78181 0.19440 0.05900
C 	C 	0.20406 0.61807 0.90445 -0.14900
H 	H 	0.13543 0.60516 0.97806 0.03700
H 	H 	0.20290 0.57103 0.99613 0.02000
H 	H 	0.18538 0.65735 0.88321 0.06200
H 	H 	0.18675 0.58025 0.87586 0.04800
H 	H 	0.25375 0.62102 0.90016 0.05700
C 	C 	0.66782 0.75634 0.17277 0.01100
C 	C 	0.66314 0.69731 0.18885 -0.01200
C 	C 	0.61653 0.66247 0.16162 -0.00700
C 	C 	0.57610 0.68544 0.11722 -0.10600
C 	C 	0.57600 0.74579 0.10838 0.07200
C 	C 	0.62174 0.78074 0.13713 -0.08800
H 	H 	0.61388 0.61674 0.17192 0.01900
H 	H 	0.62434 0.82649 0.12701 0.04600
C 	C 	0.70715 0.67122 0.23557 -0.04900
C 	C 	0.52996 0.77334 0.06534 -0.10700
C 	C 	0.68796 0.67918 0.30669 -0.14800
H 	H 	0.75330 0.69026 0.22867 0.03400
H 	H 	0.70991 0.62447 0.22572 0.02800
H 	H 	0.68255 0.72521 0.31794 0.05800
H 	H 	0.72288 0.66297 0.33981 0.06000
H 	H 	0.64479 0.65487 0.31615 0.06800
C 	C 	0.54948 0.77470 0.99351 -0.10500
H 	H 	0.52408 0.81827 0.08170 0.04100
H 	H 	0.48503 0.75135 0.07012 0.06400
H 	H 	0.59360 0.79843 0.98826 0.05900
H 	H 	0.51583 0.79690 0.96385 0.05600
H 	H 	0.55290 0.73051 0.97400 0.07200
C 	C 	0.61232 0.35947 0.05078 -0.08500
C 	C 	0.60436 0.30213 0.02782 0.03200
C 	C 	0.64532 0.26128 0.04692 -0.07000
C 	C 	0.69608 0.27727 0.08449 -0.00500
C 	C 	0.70548 0.33522 0.10488 -0.00200
C 	C 	0.66258 0.37533 0.08917 -0.01800
H 	H 	0.63924 0.21734 0.02973 0.03700
H 	H 	0.66876 0.41927 0.10636 0.01500
C 	C 	0.55642 0.28518 0.97761 -0.04600
C 	C 	0.76110 0.35530 0.14293 -0.05400
C 	C 	0.57466 0.30548 0.90889 -0.14500
H 	H 	0.51237 0.30197 0.99070 0.06800
H 	H 	0.54894 0.23766 0.97633 0.04400
H 	H 	0.57908 0.35309 0.90676 0.08300
H 	H 	0.53979 0.29058 0.87306 0.06300
H 	H 	0.61801 0.28747 0.89459 0.06300
C 	C 	0.74818 0.35866 0.21638 -0.14500
H 	H 	0.77655 0.39875 0.12551 0.02800
H 	H 	0.79932 0.32738 0.13460 0.03700
H 	H 	0.71333 0.39006 0.22630 0.06100
H 	H 	0.78978 0.37265 0.24302 0.05300
H 	H 	0.73256 0.31605 0.23541 0.06000
C 	C 	0.20998 0.24041 0.00342 -0.02000
C 	C 	0.26869 0.23061 0.02550 0.00500
C 	C 	0.31467 0.27251 0.01390 -0.06000
C 	C 	0.30168 0.32443 0.98355 -0.01600
C 	C 	0.24640 0.32886 0.95077 0.02800
C 	C 	0.20052 0.28670 0.96136 -0.03400
H 	H 	0.35898 0.26721 0.03427 0.04500
H 	H 	0.15636 0.29200 0.94057 0.04100
C 	C 	0.28281 0.17539 0.06033 -0.03900
C 	C 	0.23551 0.37908 0.90587 -0.07400
C 	C 	0.28855 0.12641 0.01137 -0.21600
H 	H 	0.24779 0.16317 0.09712 0.03400
H 	H 	0.32561 0.18102 0.08810 0.03000
H 	H 	0.24559 0.11779 0.98481 0.09100
H 	H 	0.29995 0.08678 0.03795 0.06100
H 	H 	0.32471 0.13728 0.97533 0.09000
C 	C 	0.19874 0.42416 0.93975 -0.12000
H 	H 	0.21093 0.36331 0.86143 0.04100
H 	H 	0.27864 0.39960 0.88851 0.03900
H 	H 	0.15452 0.40505 0.95559 0.05100
H 	H 	0.19092 0.45972 0.90496 0.03700
H 	H 	0.22296 0.44239 0.98310 0.00800
