data_crystal

_cell_length_a 17.01924
_cell_length_b 16.77437
_cell_length_c 36.05132
_cell_angle_alpha 90.02602
_cell_angle_beta  90.02944
_cell_angle_gamma 119.40738

_symmetry_space_group_name_	'P 1'
_symmetry_space_group_name_H-M	'P 1'

loop_
_symmetry_equiv_pos_as_xyz
  x,y,z

loop_
_atom_site_label
_atom_site_type_symbol
_atom_site_fract_x
_atom_site_fract_y
_atom_site_fract_z
_atom_site_charge
C 	C 	0.20879 0.05318 0.78593 0.29600
C 	C 	0.15174 0.05709 0.68084 0.24900
Ni	Ni	0.05875 0.91405 0.73980 1.12400
Ni	Ni	0.09989 0.12560 0.74866 1.11400
O 	O 	0.19020 0.00137 0.75645 -0.38500
O 	O 	0.17242 0.10666 0.79000 -0.36600
O 	O 	0.10390 0.96728 0.68666 -0.32300
O 	O 	0.18098 0.11490 0.70930 -0.36400
C 	C 	0.21483 0.52261 0.48382 0.29900
C 	C 	0.25362 0.68084 0.16990 0.31200
O 	O 	0.22314 0.59579 0.15867 -0.38000
C 	C 	0.16869 0.17306 0.23687 0.29000
C 	C 	0.05551 0.15464 0.32115 0.34300
C 	C 	0.01324 0.87576 0.34460 0.32300
C 	C 	0.09277 0.86054 0.24630 0.28500
Ni	Ni	0.11479 0.02407 0.29187 1.10400
O 	O 	0.08833 0.16933 0.23848 -0.36400
O 	O 	0.18067 0.10393 0.24771 -0.39200
O 	O 	0.13432 0.91782 0.27476 -0.36100
O 	O 	0.12397 0.14141 0.31323 -0.39200
O 	O 	0.05605 0.96480 0.34011 -0.37200
H 	H 	0.03294 0.97928 0.23860 0.17000
C 	C 	0.24710 0.25845 0.22336 -0.07200
C 	C 	0.27745 0.26263 0.18694 -0.02200
H 	H 	0.25831 0.20004 0.17166 0.04200
C 	C 	0.13898 0.81839 0.22686 -0.06300
C 	C 	0.16153 0.76029 0.24654 -0.02100
C 	C 	0.19333 0.70714 0.18855 -0.07400
C 	C 	0.16626 0.76165 0.16891 -0.01600
C 	C 	0.14132 0.81871 0.18776 0.03700
H 	H 	0.17105 0.76472 0.13889 0.05600
C 	C 	0.17382 0.42378 0.36115 -0.07200
C 	C 	0.10482 0.39642 0.33469 -0.03200
C 	C 	0.05656 0.30476 0.32331 0.07900
C 	C 	0.07292 0.23860 0.34069 -0.09900
C 	C 	0.12779 0.26335 0.37197 -0.00800
H 	H 	0.02515 0.29124 0.25339 0.05900
H 	H 	0.09306 0.44717 0.32103 0.05900
H 	H 	0.13629 0.21154 0.38658 0.04300
C 	C 	0.02220 0.83692 0.38073 -0.02900
C 	C 	0.08917 0.76346 0.43378 -0.09400
C 	C 	0.00887 0.70542 0.41469 0.06300
C 	C 	0.11946 0.46922 0.48868 -0.10500
C 	C 	0.03950 0.43285 0.49385 0.07800
S 	S 	0.03676 0.33892 0.71693 -0.00800
H 	H 	0.11911 0.88430 0.60184 0.04600
C 	C 	0.00142 0.45853 0.99441 0.08700
C 	C 	0.08082 0.52419 0.01210 0.03500
C 	C 	0.14573 0.58287 0.02799 -0.09600
H 	H 	0.12131 0.94947 0.87717 0.06800
O 	O 	0.04731 0.17608 0.78676 -0.36100
O 	O 	0.02986 0.87187 0.79488 -0.34200
O 	O 	0.02828 0.14871 0.70962 -0.36600
O 	O 	0.01480 0.99748 0.74367 -0.66700
C 	C 	0.18765 0.70408 0.22761 0.04200
S 	S 	0.11630 0.89295 0.16215 -0.01600
H 	H 	0.19299 0.97594 0.15824 0.05000
H 	H 	0.13921 0.54739 0.25712 0.04400
H 	H 	0.15620 0.75685 0.27653 0.05100
C 	C 	0.08627 0.89459 0.40705 -0.03700
S 	S 	0.17465 0.04144 0.87119 -0.04700
H 	H 	0.03203 0.63704 0.92088 0.06600
H 	H 	0.03928 0.76633 0.84265 0.08300
H 	H 	0.02072 0.37783 0.74721 0.04200
S 	S 	0.21478 0.63125 0.25309 -0.02900
C 	C 	0.11583 0.85700 0.43498 0.04900
H 	H 	0.17265 0.21297 0.64930 0.05300
C 	C 	0.18629 0.35526 0.37952 0.04100
S 	S 	0.19173 0.93436 0.62447 0.01900
O 	O 	0.21596 0.64290 0.08480 -0.39500
O 	O 	0.29284 0.48101 0.13558 -0.37900
C 	C 	0.28008 0.34042 0.24390 0.03500
O 	O 	0.25779 0.60290 0.50176 -0.35500
C 	C 	0.15900 0.73510 0.43567 0.30400
C 	C 	0.23618 0.52284 0.36736 0.30100
Ni	Ni	0.32364 0.73155 0.47535 1.11200
Ni	Ni	0.36369 0.59646 0.42683 1.12300
Ni	Ni	0.28061 0.71235 0.38506 1.12200
O 	O 	0.20728 0.74768 0.46679 -0.36400
O 	O 	0.16358 0.68785 0.40752 -0.38200
O 	O 	0.20949 0.58404 0.36295 -0.37000
O 	O 	0.31934 0.55009 0.37602 -0.39700
O 	O 	0.25328 0.50145 0.45571 -0.36000
O 	O 	0.30348 0.66694 0.43070 -0.70500
H 	H 	0.23992 0.62070 0.43297 0.15900
C 	C 	0.22087 0.64948 0.04897 0.33000
C 	C 	0.33262 0.53468 0.03507 0.30400
C 	C 	0.34562 0.50450 0.16525 0.28700
Ni	Ni	0.25771 0.56333 0.10941 1.12200
O 	O 	0.30051 0.68983 0.03339 -0.36600
O 	O 	0.38208 0.58876 0.18012 -0.37200
O 	O 	0.26281 0.50691 0.05867 -0.36500
O 	O 	0.34010 0.73914 0.17068 -0.38400
O 	O 	0.38023 0.65438 0.10616 -0.71700
H 	H 	0.40720 0.61449 0.10325 0.16700
C 	C 	0.34199 0.42854 0.18753 -0.06800
C 	C 	0.32487 0.42506 0.22569 -0.02400
C 	C 	0.32840 0.34776 0.16953 0.03600
S 	S 	0.27337 0.33826 0.29242 -0.02500
S 	S 	0.37337 0.35258 0.12510 -0.02700
H 	H 	0.45840 0.36380 0.12851 0.03700
H 	H 	0.34720 0.33752 0.30716 0.03400
H 	H 	0.34181 0.48737 0.24078 0.05400
S 	S 	0.28325 0.38168 0.40601 -0.06600
H 	H 	0.34996 0.38735 0.38306 0.03800
S 	S 	0.16585 0.92080 0.47518 0.00800
H 	H 	0.23161 0.00689 0.46541 0.01100
H 	H 	0.11307 0.96798 0.40585 0.06300
C 	C 	0.32321 0.19842 0.59115 -0.07600
C 	C 	0.28938 0.10354 0.59321 -0.01500
C 	C 	0.22505 0.05126 0.62021 0.00300
C 	C 	0.18855 0.09346 0.64325 -0.05000
C 	C 	0.20598 0.18223 0.63408 -0.03200
C 	C 	0.27352 0.23496 0.60827 0.04200
S 	S 	0.30062 0.34896 0.59998 -0.02600
H 	H 	0.25087 0.35173 0.57062 0.04600
H 	H 	0.31933 0.07204 0.57656 0.04600
C 	C 	0.32739 0.47889 0.00428 -0.07300
C 	C 	0.34670 0.44640 0.97856 0.03100
C 	C 	0.28346 0.06357 0.81068 -0.07200
C 	C 	0.35974 0.06533 0.79487 -0.02400
C 	C 	0.34917 0.07419 0.87194 -0.02700
C 	C 	0.27568 0.06162 0.84973 0.04000
H 	H 	0.36376 0.05958 0.76506 0.05000
H 	H 	0.34559 0.07998 0.90176 0.04300
O 	O 	0.00854 0.98058 0.26325 -0.68800
Ni	Ni	0.43419 0.71146 0.15215 1.12100
O 	O 	0.42089 0.61490 0.47685 -0.39600
O 	O 	0.32712 0.84868 0.39874 -0.38100
O 	O 	0.40392 0.82553 0.08978 -0.37200
O 	O 	0.41046 0.61041 0.03998 -0.37500
C 	C 	0.39460 0.42369 0.95294 0.04400
C 	C 	0.42148 0.25800 0.58596 0.29200
C 	C 	0.47632 0.69503 0.48959 0.34200
C 	C 	0.38090 0.88628 0.42718 0.34400
O 	O 	0.44770 0.75265 0.49538 -0.36600
O 	O 	0.41094 0.83980 0.44364 -0.39500
O 	O 	0.39446 0.73507 0.35912 -0.37900
C 	C 	0.46732 0.88104 0.11182 0.29900
Ni	Ni	0.41964 0.72635 0.06299 1.11500
C 	C 	0.37602 0.95309 0.45007 -0.13900
C 	C 	0.38868 0.99806 0.47778 0.08800
C 	C 	0.41919 0.04057 0.51273 -0.02400
C 	C 	0.43183 0.07635 0.81727 0.03700
C 	C 	0.43186 0.09385 0.85551 -0.06900
O 	O 	0.00515 0.82529 0.23992 -0.36600
O 	O 	0.45965 0.25911 0.55308 -0.36200
O 	O 	0.47036 0.29406 0.61609 -0.38200
O 	O 	0.47261 0.70620 0.40541 -0.37400
O 	O 	0.50204 0.84724 0.13575 -0.36200
C 	C 	0.45931 0.07768 0.54079 -0.09700
C 	C 	0.45206 0.41338 0.93805 -0.08600
C 	C 	0.51425 0.17031 0.87162 0.28300
O 	O 	0.49762 0.14753 0.60056 -0.37300
C 	C 	0.47103 0.75214 0.37549 0.29900
C 	C 	0.51792 0.97462 0.09984 -0.03400
H 	H 	0.49248 0.73476 0.30286 0.05300
H 	H 	0.02335 0.30854 0.80862 0.07600
O 	O 	0.52424 0.25246 0.86589 -0.37300
C 	C 	0.52461 0.13292 0.56830 0.31200
S 	S 	0.52534 0.07707 0.79649 -0.04400
C 	C 	0.53118 0.40672 0.93127 0.30000
O 	O 	0.54191 0.70405 0.13412 -0.38300
C 	C 	0.55020 0.04549 0.08264 -0.02800
S 	S 	0.56497 0.57991 0.64751 -0.02900
C 	C 	0.55431 0.78504 0.31616 -0.02300
C 	C 	0.55463 0.80361 0.35416 -0.06900
O 	O 	0.55701 0.78228 0.07895 -0.36100
C 	C 	0.55651 0.70690 0.50730 -0.09700
Ni	Ni	0.57070 0.26913 0.62958 1.12000
O 	O 	0.57331 0.43286 0.89850 -0.35800
O 	O 	0.57254 0.39881 0.96112 -0.37700
S 	S 	0.97964 0.27515 0.28630 -0.11900
O 	O 	0.58346 0.15793 0.88275 -0.37100
O 	O 	0.97693 0.82165 0.31571 -0.40400
H 	H 	0.61272 0.97128 0.41901 0.05000
H 	H 	0.59882 0.58801 0.61242 0.04500
C 	C 	0.97548 0.74164 0.38772 -0.03100
H 	H 	0.97876 0.63188 0.41765 0.01500
H 	H 	0.99787 0.99586 0.71743 0.12900
O 	O 	0.97584 0.10128 0.30754 -0.41900
C 	C 	0.78295 0.55187 0.90126 0.31300
C 	C 	0.76330 0.29485 0.84964 0.30900
C 	C 	0.84565 0.37695 0.96069 0.34700
C 	C 	0.61722 0.22532 0.99798 0.30200
Ni	Ni	0.64281 0.37167 0.87296 1.11400
Ni	Ni	0.69597 0.41179 0.95966 1.12200
Ni	Ni	0.68302 0.23397 0.92230 1.11700
O 	O 	0.82069 0.43587 0.95115 -0.40500
O 	O 	0.76630 0.49028 0.87571 -0.37500
O 	O 	0.73264 0.52994 0.93116 -0.37800
O 	O 	0.59940 0.18223 0.96563 -0.39400
O 	O 	0.69967 0.31203 0.83808 -0.36800
O 	O 	0.78105 0.29837 0.88469 -0.39000
O 	O 	0.66778 0.31631 0.00063 -0.37300
O 	O 	0.78832 0.28813 0.95890 -0.38800
O 	O 	0.65051 0.32648 0.91984 -0.71700
H 	H 	0.58652 0.28924 0.92669 0.16400
C 	C 	0.79297 0.35747 0.53325 0.32100
C 	C 	0.69235 0.51707 0.54215 0.30200
C 	C 	0.74700 0.28475 0.64559 0.30900
C 	C 	0.66103 0.46225 0.66154 0.28900
Ni	Ni	0.60004 0.31349 0.54055 1.11200
Ni	Ni	0.75708 0.43335 0.59977 1.12100
O 	O 	0.77773 0.37349 0.64423 -0.38900
O 	O 	0.72576 0.35766 0.51556 -0.37100
O 	O 	0.79398 0.35657 0.56929 -0.39400
O 	O 	0.62240 0.37224 0.66842 -0.37100
O 	O 	0.59975 0.19608 0.55536 -0.39100
O 	O 	0.71929 0.50131 0.63405 -0.38500
O 	O 	0.62283 0.44287 0.52834 -0.37200
O 	O 	0.76395 0.51504 0.55597 -0.37500
O 	O 	0.66032 0.22763 0.64147 -0.37900
O 	O 	0.63324 0.35263 0.58986 -0.71000
H 	H 	0.60909 0.39506 0.59222 0.16200
C 	C 	0.85630 0.79198 0.72228 0.29800
C 	C 	0.95558 0.85520 0.81273 0.26500
C 	C 	0.96690 0.12789 0.80172 0.27400
C 	C 	0.94123 0.12502 0.71247 0.25600
Ni	Ni	0.89834 0.95949 0.76243 1.12500
O 	O 	0.93839 0.80139 0.72091 -0.37800
O 	O 	0.84458 0.86413 0.72220 -0.38100
O 	O 	0.88047 0.05057 0.73091 -0.38800
O 	O 	0.88828 0.85589 0.79495 -0.37400
O 	O 	0.93453 0.04045 0.80673 -0.40600
C 	C 	0.59169 0.75428 0.10609 0.29100
C 	C 	0.80150 0.91750 0.29512 0.31300
C 	C 	0.88087 0.90896 0.19657 0.28800
Ni	Ni	0.96123 0.05828 0.25334 1.09200
Ni	Ni	0.92581 0.85431 0.27095 1.11300
O 	O 	0.82598 0.97105 0.26592 -0.36100
O 	O 	0.84965 0.88078 0.30632 -0.38700
O 	O 	0.93080 0.99884 0.20115 -0.36800
O 	O 	0.85073 0.85282 0.22583 -0.37200
C 	C 	0.69055 0.79732 0.11016 -0.06400
C 	C 	0.72592 0.74389 0.12487 -0.02800
C 	C 	0.79759 0.78234 0.15027 0.04500
C 	C 	0.83450 0.87508 0.16046 -0.08400
C 	C 	0.81327 0.93182 0.13894 0.02000
C 	C 	0.74277 0.89334 0.11314 0.02200
S 	S 	0.84218 0.71505 0.16796 -0.04700
S 	S 	0.72068 0.96578 0.08506 -0.00400
H 	H 	0.76895 0.98370 0.05279 0.04200
H 	H 	0.91062 0.72330 0.14545 0.03700
H 	H 	0.69172 0.67083 0.11967 0.04800
H 	H 	0.84785 0.00504 0.14371 0.01400
C 	C 	0.63386 0.82817 0.29558 0.04000
C 	C 	0.71508 0.89044 0.31310 -0.07800
C 	C 	0.71443 0.91354 0.35047 -0.01500
C 	C 	0.63459 0.87074 0.37107 0.03400
S 	S 	0.63168 0.80012 0.24832 -0.03300
S 	S 	0.63530 0.90338 0.41758 -0.00900
H 	H 	0.61833 0.86003 0.22699 0.04300
H 	H 	0.77677 0.96265 0.36380 0.05300
S 	S 	0.87110 0.66923 0.36644 -0.02600
H 	H 	0.80318 0.66868 0.38702 0.03800
C 	C 	0.94822 0.39933 0.50274 -0.00100
C 	C 	0.87397 0.37719 0.51414 -0.08800
C 	C 	0.61561 0.69573 0.52006 0.04700
C 	C 	0.66753 0.65621 0.53167 0.03500
C 	C 	0.69154 0.60133 0.53832 -0.09200
C 	C 	0.80793 0.24926 0.65692 -0.07900
C 	C 	0.88334 0.30314 0.67936 -0.01300
C 	C 	0.93453 0.26613 0.69429 0.00800
C 	C 	0.90649 0.17265 0.68893 -0.05800
C 	C 	0.83667 0.12156 0.66381 -0.03200
C 	C 	0.78992 0.16052 0.64655 0.04200
S 	S 	0.71624 0.10138 0.60961 -0.02300
H 	H 	0.76235 0.12890 0.57676 0.04200
H 	H 	0.90168 0.37340 0.68554 0.04300
H 	H 	0.81872 0.05133 0.65768 0.04500
C 	C 	0.77711 0.69952 0.71787 -0.07200
C 	C 	0.70856 0.68559 0.69269 -0.01900
C 	C 	0.64869 0.59694 0.68014 0.03600
C 	C 	0.66219 0.52373 0.69067 -0.06900
C 	C 	0.71462 0.53457 0.72220 -0.02400
C 	C 	0.77400 0.62261 0.73544 0.03900
S 	S 	0.84251 0.63519 0.77401 -0.03700
H 	H 	0.79619 0.62972 0.80584 0.04600
H 	H 	0.70523 0.74358 0.68122 0.05500
H 	H 	0.71825 0.47632 0.73321 0.05000
C 	C 	0.93039 0.41190 0.97917 -0.15000
C 	C 	0.59728 0.17088 0.03116 -0.09600
C 	C 	0.57836 0.11774 0.05665 0.05000
C 	C 	0.80600 0.25802 0.82450 -0.08300
C 	C 	0.76374 0.16295 0.81998 -0.03000
C 	C 	0.81352 0.11932 0.81110 0.04700
C 	C 	0.90934 0.17141 0.80859 -0.06900
C 	C 	0.95075 0.26730 0.81115 -0.05900
C 	C 	0.89913 0.31052 0.81739 0.04700
S 	S 	0.75369 0.00024 0.80320 -0.11300
S 	S 	0.95281 0.43078 0.81845 -0.04200
H 	H 	0.94764 0.46277 0.78408 0.03500
H 	H 	0.72040 0.98317 0.76774 0.06600
H 	H 	0.69329 0.12173 0.82704 0.04600
H 	H 	0.58515 0.16413 0.78513 0.04800
C 	C 	0.84656 0.64843 0.89299 -0.09000
C 	C 	0.81493 0.71137 0.89142 -0.01400
C 	C 	0.86061 0.79078 0.86994 0.02500
C 	C 	0.93523 0.80419 0.84827 -0.05200
C 	C 	0.97652 0.75118 0.85608 -0.07300
C 	C 	0.93254 0.67357 0.87861 0.05700
S 	S 	0.82671 0.87433 0.87170 -0.01600
S 	S 	0.98484 0.60778 0.88830 -0.05300
H 	H 	0.87499 0.93728 0.89861 0.04400
H 	H 	0.75232 0.69610 0.90504 0.05100
