data_crystal

_cell_length_a 28.37808
_cell_length_b 24.74374
_cell_length_c 69.90738
_cell_angle_alpha 90.48165
_cell_angle_beta  91.21317
_cell_angle_gamma 110.38067

_symmetry_space_group_name_	'P 1'
_symmetry_space_group_name_H-M	'P 1'

loop_
_symmetry_equiv_pos_as_xyz
  x,y,z

loop_
_atom_site_label
_atom_site_type_symbol
_atom_site_fract_x
_atom_site_fract_y
_atom_site_fract_z
_atom_site_charge
C 	C 	0.02384 0.76805 0.69115 0.04600
H 	H 	0.01267 0.10777 0.82922 0.03800
H 	H 	0.06109 0.22253 0.32966 0.03200
C 	C 	0.02058 0.09709 0.79127 0.04500
C 	C 	0.00103 0.87193 0.31451 -0.03500
C 	C 	0.03059 0.81603 0.69709 -0.11200
C 	C 	0.03381 0.87177 0.70407 0.30300
H 	H 	0.03661 0.73610 0.65535 0.03700
H 	H 	0.01184 0.84170 0.26747 0.03700
C 	C 	0.01538 0.11828 0.27092 0.29600
C 	C 	0.01937 0.54055 0.47650 -0.00400
C 	C 	0.00286 0.39747 0.16514 -0.04100
H 	H 	0.00462 0.33923 0.20246 0.04700
C 	C 	0.00543 0.05561 0.19798 0.29400
C 	C 	0.01887 0.84461 0.28281 -0.03300
O 	O 	0.01551 0.12609 0.25234 -0.37300
C 	C 	0.00193 0.34045 0.16362 0.00200
C 	C 	0.03448 0.61416 0.02624 -0.07400
C 	C 	0.04451 0.07187 0.78347 -0.11300
H 	H 	0.04777 0.04318 0.72573 0.15600
O 	O 	0.01745 0.06748 0.21631 -0.37300
C 	C 	0.03746 0.57955 0.01065 0.04500
H 	H 	0.04205 0.54109 0.42647 0.05000
O 	O 	0.05484 0.00722 0.72348 -0.70500
H 	H 	0.04416 0.99843 0.13794 0.03400
C 	C 	0.04941 0.16192 0.28313 -0.12100
C 	C 	0.03845 0.85351 0.32237 -0.04000
H 	H 	0.10650 0.31189 0.34800 0.03900
Ni	Ni	0.06285 0.99628 0.69628 1.06300
O 	O 	0.05886 0.92802 0.74612 -0.70200
H 	H 	0.03652 0.48461 0.15540 0.04000
Ni	Ni	0.05765 0.91572 0.77376 1.06800
C 	C 	0.09372 0.25456 0.32363 -0.03300
H 	H 	0.04597 0.85724 0.33767 0.03800
C 	C 	0.04995 0.56182 0.46449 -0.03100
C 	C 	0.03595 0.44071 0.15413 -0.03200
C 	C 	0.03812 0.03825 0.18598 -0.11600
O 	O 	0.07079 0.91743 0.69876 -0.41300
H 	H 	0.06728 0.89651 0.73999 0.15000
C 	C 	0.07100 0.03903 0.77449 0.30700
H 	H 	0.06609 0.65010 0.05374 0.03800
C 	C 	0.05628 0.82603 0.29067 -0.04000
C 	C 	0.07701 0.19988 0.29325 0.04500
C 	C 	0.03413 0.32707 0.15092 -0.03900
C 	C 	0.06939 0.62457 0.04151 0.02400
H 	H 	0.03414 0.28338 0.14978 0.04200
H 	H 	0.07003 0.72352 0.31363 0.04700
O 	O 	0.07947 0.99812 0.78408 -0.40600
C 	C 	0.06669 0.83122 0.31045 0.00100
C 	C 	0.11941 0.30515 0.33400 -0.04100
C 	C 	0.06340 0.02149 0.17547 0.04600
C 	C 	0.07475 0.98609 0.14358 -0.03300
H 	H 	0.08182 0.94337 0.11744 0.03800
C 	C 	0.07821 0.57166 0.43117 -0.07300
C 	C 	0.07630 0.55694 0.01011 -0.07500
H 	H 	0.07775 0.80864 0.28137 0.03900
H 	H 	0.07772 0.82806 0.12749 0.04600
H 	H 	0.07894 0.53038 0.99806 0.04600
C 	C 	0.10864 0.24665 0.30515 -0.01100
O 	O 	0.09451 0.05719 0.75855 -0.38100
C 	C 	0.06830 0.42717 0.14158 -0.00700
C 	C 	0.08739 0.58812 0.45052 0.04300
C 	C 	0.06709 0.37024 0.13995 -0.03200
C 	C 	0.09598 0.95479 0.13198 -0.04200
C 	C 	0.09134 0.99897 0.16267 -0.01300
C 	C 	0.10313 0.75660 0.31970 -0.06700
H 	H 	0.10936 0.57874 0.40313 0.04000
Ni	Ni	0.11347 0.00352 0.74009 1.09900
C 	C 	0.10712 0.59994 0.04130 -0.09500
C 	C 	0.10801 0.81487 0.31866 0.02600
H 	H 	0.10923 0.75363 0.11528 0.04100
C 	C 	0.11091 0.56694 0.02539 0.01700
C 	C 	0.11630 0.59328 0.41792 0.01800
H 	H 	0.21171 0.37180 0.35987 0.04400
C 	C 	0.10240 0.47134 0.13014 0.04500
C 	C 	0.11718 0.83965 0.12429 -0.06600
H 	H 	0.09188 0.35944 0.13025 0.03900
O 	O 	0.13016 0.91951 0.77394 -0.42400
C 	C 	0.16019 0.34815 0.32594 0.00200
H 	H 	0.13574 0.69558 0.33001 0.03800
O 	O 	0.14136 0.03132 0.69748 -0.41000
C 	C 	0.13505 0.79748 0.11732 0.01700
C 	C 	0.13395 0.93625 0.13943 0.00200
C 	C 	0.13410 0.62811 0.45643 -0.07300
C 	C 	0.13107 0.98314 0.16981 -0.03200
C 	C 	0.14030 0.74080 0.32905 0.01600
C 	C 	0.14015 0.60464 0.05817 0.28100
C 	C 	0.15095 0.28821 0.29747 -0.03200
H 	H 	0.00457 0.63188 0.02673 0.05000
C 	C 	0.13122 0.50650 0.12010 -0.10700
H 	H 	0.14128 0.64151 0.47133 0.04800
H 	H 	0.14017 0.54820 0.02501 0.00300
O 	O 	0.14388 0.55705 0.06542 -0.40800
C 	C 	0.01466 0.70098 0.66421 -0.03300
C 	C 	0.20666 0.40930 0.35355 -0.06700
O 	O 	0.16172 0.07483 0.72702 -0.36800
C 	C 	0.15075 0.89564 0.12835 0.02600
H 	H 	0.14419 0.99309 0.18454 0.03900
C 	C 	0.15123 0.85739 0.32641 -0.06800
O 	O 	0.15818 0.65385 0.06785 -0.37700
C 	C 	0.15238 0.95193 0.15823 -0.04100
C 	C 	0.18237 0.40474 0.33563 0.02500
C 	C 	0.16766 0.07587 0.70837 0.29000
H 	H 	0.15547 0.90254 0.32553 0.04400
C 	C 	0.16822 0.96863 0.77269 0.31100
O 	O 	0.15798 0.59383 0.10276 -0.36900
C 	C 	0.16394 0.63134 0.42399 -0.09300
O 	O 	0.17164 0.00385 0.75822 -0.37100
C 	C 	0.17671 0.33883 0.30784 -0.04100
H 	H 	0.16281 0.28224 0.28322 0.04100
C 	C 	0.16546 0.54602 0.10751 0.30700
C 	C 	0.17222 0.64968 0.44323 0.01600
H 	H 	0.24240 0.46497 0.37735 0.01600
C 	C 	0.22378 0.46207 0.36349 0.01000
O 	O 	0.18025 0.71713 0.10283 -0.36700
C 	C 	0.18274 0.78321 0.33747 -0.09100
C 	C 	0.01103 0.71013 0.68384 -0.01100
C 	C 	0.18668 0.81099 0.11442 -0.08600
H 	H 	0.18181 0.93794 0.16409 0.03900
C 	C 	0.17645 0.45366 0.32748 -0.06600
H 	H 	0.15769 0.45047 0.31363 0.04600
C 	C 	0.18848 0.84168 0.33573 0.01000
O 	O 	0.19828 0.65123 0.39239 -0.37100
O 	O 	0.20390 0.71631 0.35797 -0.37600
O 	O 	0.19799 0.52922 0.09844 -0.42100
C 	C 	0.20158 0.91034 0.12389 -0.06600
C 	C 	0.21639 0.51074 0.35565 -0.08700
C 	C 	0.20641 0.64669 0.41083 0.29100
C 	C 	0.21267 0.11649 0.70081 -0.10300
C 	C 	0.21093 0.97972 0.78539 -0.10300
C 	C 	0.20753 0.76465 0.11212 0.29000
C 	C 	0.19340 0.50641 0.33741 0.01400
H 	H 	0.20854 0.67962 0.44805 0.02800
H 	H 	0.20849 0.37154 0.30159 0.03900
Ni	Ni	0.21003 0.66236 0.08935 1.09900
Ni	Ni	0.21090 0.54516 0.07005 1.06400
C 	C 	0.21894 0.76629 0.34928 0.27200
C 	C 	0.21946 0.86820 0.11691 0.01200
H 	H 	0.22099 0.87488 0.34212 0.01100
O 	O 	0.23004 0.61255 0.35825 -0.38000
C 	C 	0.23169 0.56555 0.36671 0.27400
H 	H 	0.18771 0.54353 0.33106 0.03900
O 	O 	0.23504 0.56397 0.38569 -0.40700
H 	H 	0.22761 0.95375 0.12663 0.04500
O 	O 	0.24228 0.76326 0.12461 -0.40900
C 	C 	0.24750 0.99200 0.79587 0.03800
C 	C 	0.25075 0.14857 0.69398 0.04200
O 	O 	0.25078 0.64935 0.41733 -0.41800
Ni	Ni	0.25398 0.68864 0.37302 1.10100
O 	O 	0.25167 0.62597 0.07485 -0.70800
H 	H 	0.25088 0.64025 0.12104 0.15900
H 	H 	0.25923 0.87936 0.11436 0.02000
H 	H 	0.26108 0.75843 0.40129 0.15500
H 	H 	0.26328 0.64607 0.06271 0.15200
H 	H 	0.26517 0.06381 0.82623 0.04200
O 	O 	0.26573 0.80193 0.35160 -0.41600
O 	O 	0.26408 0.66486 0.10990 -0.69800
O 	O 	0.27071 0.51502 0.07278 -0.41100
H 	H 	0.27677 0.14238 0.65759 0.03800
H 	H 	0.27555 0.47052 0.03794 0.01000
O 	O 	0.28140 0.76152 0.38976 -0.70500
C 	C 	0.29169 0.00970 0.80816 0.00600
Ni	Ni	0.29340 0.83692 0.37846 1.06900
Ni	Ni	0.29493 0.61566 0.40212 1.06500
C 	C 	0.29638 0.18460 0.68529 -0.00600
C 	C 	0.29632 0.04974 0.82301 -0.03800
C 	C 	0.30528 0.17472 0.66617 -0.03400
H 	H 	0.30393 0.91463 0.43908 0.02700
Ni	Ni	0.30524 0.74400 0.11767 1.06700
O 	O 	0.30677 0.77006 0.09005 -0.42600
Ni	Ni	0.30877 0.63487 0.09414 1.09700
O 	O 	0.31564 0.67951 0.38465 -0.70600
C 	C 	0.31584 0.48120 0.03959 0.01600
O 	O 	0.31644 0.87556 0.40449 -0.41300
C 	C 	0.31660 0.54495 0.06749 0.27900
H 	H 	0.32035 0.43186 0.01466 0.04700
H 	H 	0.32691 0.23438 0.71108 0.04100
H 	H 	0.32891 0.96102 0.79255 0.04100
C 	C 	0.33205 0.75275 0.07719 0.27300
C 	C 	0.33221 0.99191 0.80404 -0.04600
C 	C 	0.99157 0.86821 0.29470 -0.00700
C 	C 	0.97899 0.29962 0.19603 -0.06500
C 	C 	0.96985 0.29537 0.17617 0.02800
O 	O 	0.99454 0.87707 0.71226 -0.37100
O 	O 	0.98109 0.07381 0.27850 -0.41900
C 	C 	0.95825 0.25130 0.20743 0.01900
H 	H 	0.96795 0.25418 0.22258 0.03100
H 	H 	0.97826 0.40831 0.17491 0.04000
H 	H 	0.98012 0.89019 0.32379 0.04000
C 	C 	0.99867 0.56334 0.99593 -0.03100
Ni	Ni	0.63297 0.24694 0.90058 1.10000
O 	O 	0.64600 0.30084 0.87781 -0.70400
Ni	Ni	0.71086 0.29579 0.86852 1.09900
O 	O 	0.58485 0.28073 0.91341 -0.38000
O 	O 	0.64188 0.37200 0.91170 -0.42300
O 	O 	0.57132 0.18857 0.88653 -0.37500
Ni	Ni	0.65415 0.38145 0.88248 1.06700
O 	O 	0.61706 0.11620 0.89966 -0.40900
O 	O 	0.72986 0.41943 0.88798 -0.40100
O 	O 	0.73322 0.36309 0.84948 -0.37400
O 	O 	0.69135 0.23333 0.88888 -0.70500
O 	O 	0.62301 0.18854 0.92168 -0.38400
O 	O 	0.76769 0.26905 0.85958 -0.36900
O 	O 	0.71406 0.17591 0.85509 -0.41100
Ni	Ni	0.66765 0.15482 0.87875 1.06400
H 	H 	0.61980 0.28523 0.86766 0.15400
H 	H 	0.71846 0.23859 0.89863 0.15400
C 	C 	0.75702 0.39307 0.89654 0.29500
O 	O 	0.61300 0.16657 0.86182 -0.41800
C 	C 	0.59967 0.33566 0.91827 0.27400
C 	C 	0.71147 0.40231 0.84691 0.29500
C 	C 	0.57142 0.16867 0.86902 0.29000
C 	C 	0.76014 0.21441 0.85556 0.27200
C 	C 	0.61797 0.13439 0.91773 0.27900
O 	O 	0.75920 0.34483 0.88934 -0.39000
O 	O 	0.66743 0.39621 0.85432 -0.42200
Ni	Ni	0.64866 0.39133 0.60044 1.09900
O 	O 	0.70637 0.40931 0.58153 -0.70100
Ni	Ni	0.74337 0.35892 0.59104 1.09900
O 	O 	0.62057 0.44787 0.58717 -0.36700
O 	O 	0.69656 0.52119 0.58892 -0.41000
O 	O 	0.60957 0.33015 0.58051 -0.38600
Ni	Ni	0.75295 0.48855 0.58262 1.06500
O 	O 	0.61513 0.31028 0.63823 -0.42300
O 	O 	0.76721 0.48532 0.61125 -0.41700
O 	O 	0.79386 0.37507 0.56962 -0.37800
O 	O 	0.69217 0.35045 0.61210 -0.70000
O 	O 	0.58756 0.36757 0.61813 -0.37500
O 	O 	0.76546 0.29251 0.60035 -0.37500
O 	O 	0.68399 0.23234 0.60176 -0.41900
Ni	Ni	0.64935 0.27352 0.61968 1.06900
H 	H 	0.69405 0.39822 0.56820 0.15300
H 	H 	0.70886 0.37205 0.62379 0.15300
C 	C 	0.79712 0.45897 0.61764 0.28900
O 	O 	0.58917 0.25544 0.60115 -0.40400
C 	C 	0.65082 0.49838 0.58141 0.27800
C 	C 	0.81718 0.42895 0.56443 0.27500
C 	C 	0.59295 0.27453 0.58362 0.29500
C 	C 	0.73228 0.24148 0.60397 0.27700
C 	C 	0.58035 0.33153 0.63267 0.29400
O 	O 	0.79985 0.41350 0.60847 -0.37300
O 	O 	0.81663 0.47239 0.57558 -0.41000
Ni	Ni	0.99808 0.93916 0.73249 1.09800
O 	O 	0.94287 0.95484 0.71698 -0.37500
O 	O 	0.94475 0.87481 0.74686 -0.37000
O 	O 	0.98272 0.90770 0.77582 -0.42100
C 	C 	0.95193 0.97200 0.69914 0.29400
C 	C 	0.94788 0.86888 0.76546 0.29700
O 	O 	0.98745 0.96100 0.68949 -0.40400
Ni	Ni	0.34830 0.75819 0.39771 1.09900
O 	O 	0.40679 0.73518 0.40801 -0.37100
O 	O 	0.35204 0.65576 0.42230 -0.41100
O 	O 	0.38383 0.78189 0.37231 -0.39800
O 	O 	0.38167 0.84033 0.40862 -0.38100
H 	H 	0.33680 0.67229 0.37457 0.15600
O 	O 	0.36673 0.86523 0.37003 -0.39800
C 	C 	0.39839 0.68778 0.41796 0.27400
C 	C 	0.39106 0.83180 0.36433 0.32200
C 	C 	0.35628 0.87326 0.41434 0.28700
O 	O 	0.34231 0.59395 0.07626 -0.37100
O 	O 	0.34970 0.71105 0.08115 -0.36700
O 	O 	0.37630 0.74191 0.11629 -0.41300
O 	O 	0.36520 0.64654 0.11402 -0.39000
C 	C 	0.38878 0.69775 0.12161 0.30600
Ni	Ni	0.85174 0.99214 0.24111 1.09800
O 	O 	0.90783 0.00310 0.22217 -0.70300
Ni	Ni	0.96262 0.06974 0.23426 1.10100
O 	O 	0.80474 0.92421 0.22517 -0.37100
O 	O 	0.81595 0.98045 0.19860 -0.41300
O 	O 	0.88184 0.93781 0.25456 -0.38800
Ni	Ni	0.89336 0.02349 0.19656 1.06500
O 	O 	0.83314 0.06240 0.27955 -0.41700
O 	O 	0.88358 0.09784 0.20519 -0.41700
O 	O 	0.90218 0.06803 0.25014 -0.70000
O 	O 	0.79824 0.97757 0.26173 -0.37700
Ni	Ni	0.90604 0.06701 0.27810 1.06900
H 	H 	0.91846 0.96903 0.22157 0.15400
H 	H 	0.88975 0.09910 0.24621 0.15400
C 	C 	0.92241 0.14433 0.20932 0.29400
O 	O 	0.88528 0.98120 0.28352 -0.40100
C 	C 	0.79606 0.92988 0.20682 0.27200
C 	C 	0.89825 0.94641 0.27237 0.31600
C 	C 	0.79384 0.01691 0.27390 0.29100
O 	O 	0.96055 0.14106 0.21969 -0.36900
O 	O 	0.96698 0.06661 0.19001 -0.41000
C 	C 	0.92870 0.19816 0.19904 -0.09000
C 	C 	0.91490 0.19582 0.17954 0.01800
C 	C 	0.93547 0.24424 0.16815 -0.06700
H 	H 	0.89130 0.15546 0.17292 0.02100
H 	H 	0.92706 0.24097 0.15291 0.04600
C 	C 	0.75392 0.88514 0.19702 -0.08700
C 	C 	0.70810 0.86045 0.20625 0.01700
C 	C 	0.66577 0.82462 0.19603 -0.06600
C 	C 	0.66900 0.81274 0.17653 0.02600
C 	C 	0.71572 0.83412 0.16767 -0.06700
C 	C 	0.75789 0.87062 0.17783 0.01200
C 	C 	0.62268 0.78497 0.16489 0.00200
C 	C 	0.58785 0.73162 0.17023 -0.04100
C 	C 	0.54085 0.70951 0.16084 -0.03300
C 	C 	0.52870 0.74033 0.14596 -0.00800
C 	C 	0.56431 0.79211 0.14002 -0.03300
C 	C 	0.61103 0.81448 0.14947 -0.04000
C 	C 	0.47858 0.72168 0.13779 0.04600
C 	C 	0.43713 0.70909 0.13062 -0.10900
H 	H 	0.70467 0.87117 0.22110 0.03600
H 	H 	0.62995 0.80829 0.20303 0.04600
H 	H 	0.71884 0.82436 0.15272 0.04400
H 	H 	0.79332 0.88875 0.17067 0.01000
H 	H 	0.59666 0.70816 0.18197 0.03900
H 	H 	0.51356 0.66923 0.16543 0.03800
H 	H 	0.55519 0.81600 0.12846 0.04000
H 	H 	0.63751 0.85575 0.14526 0.03900
C 	C 	0.74486 0.00629 0.28288 -0.08200
C 	C 	0.70005 0.97732 0.27250 0.01200
C 	C 	0.65394 0.95957 0.28167 -0.06300
C 	C 	0.65212 0.97054 0.30132 0.02200
C 	C 	0.69658 0.00176 0.31153 -0.06200
C 	C 	0.74274 0.01967 0.30235 0.01400
C 	C 	0.60423 0.94624 0.31142 0.00500
C 	C 	0.58343 0.98286 0.32073 -0.04500
C 	C 	0.53881 0.95962 0.33073 -0.03000
C 	C 	0.51468 0.89967 0.33148 -0.00900
C 	C 	0.53509 0.86309 0.32201 -0.03100
C 	C 	0.57969 0.88624 0.31202 -0.04200
C 	C 	0.47033 0.87564 0.34271 0.04800
C 	C 	0.43376 0.85550 0.35238 -0.10700
H 	H 	0.70105 0.96745 0.25742 0.03200
H 	H 	0.61976 0.93623 0.27360 0.04500
H 	H 	0.69557 0.01064 0.32669 0.04600
H 	H 	0.77697 0.04195 0.31054 0.02800
H 	H 	0.60192 0.02921 0.32029 0.04200
H 	H 	0.52330 0.98818 0.33804 0.03900
H 	H 	0.51674 0.81672 0.32256 0.03900
H 	H 	0.59551 0.85759 0.30495 0.04100
C 	C 	0.95718 0.89338 0.28647 0.04900
C 	C 	0.92948 0.91637 0.27988 -0.11500
C 	C 	0.56772 0.23467 0.56777 -0.09300
C 	C 	0.52613 0.18474 0.57116 0.02300
C 	C 	0.50188 0.14776 0.55595 -0.07400
C 	C 	0.51901 0.16037 0.53730 0.04800
C 	C 	0.56054 0.20993 0.53389 -0.07500
C 	C 	0.58485 0.24693 0.54905 0.02100
C 	C 	0.49452 0.12210 0.52166 -0.03200
C 	C 	0.47466 0.09073 0.50833 0.00000
C 	C 	0.45256 0.05440 0.49252 -0.00400
C 	C 	0.43477 0.02355 0.47885 -0.02600
C 	C 	0.41494 0.98681 0.46239 0.04000
C 	C 	0.44747 0.97061 0.45074 -0.07100
C 	C 	0.42842 0.93420 0.43490 0.01700
C 	C 	0.37654 0.91359 0.43059 -0.08900
C 	C 	0.34405 0.93045 0.44218 0.01400
C 	C 	0.36324 0.96693 0.45804 -0.07100
H 	H 	0.51225 0.17492 0.58550 0.03400
H 	H 	0.46979 0.10941 0.55868 0.05000
H 	H 	0.57410 0.21974 0.51950 0.04900
H 	H 	0.61715 0.28498 0.54626 0.02100
H 	H 	0.48752 0.98609 0.45399 0.04900
H 	H 	0.45401 0.92212 0.42597 0.04000
H 	H 	0.33790 0.97941 0.46699 0.04700
C 	C 	0.98460 0.51638 0.49099 -0.00100
C 	C 	0.95581 0.49683 0.50371 -0.03300
C 	C 	0.92251 0.47526 0.51938 0.04400
C 	C 	0.87505 0.43279 0.51612 -0.07300
C 	C 	0.84133 0.41534 0.53112 0.01200
C 	C 	0.85484 0.44068 0.54940 -0.08800
C 	C 	0.90313 0.48154 0.55275 0.01700
C 	C 	0.93677 0.49872 0.53780 -0.07400
H 	H 	0.86388 0.41414 0.50193 0.04800
H 	H 	0.80423 0.38368 0.52837 0.02300
H 	H 	0.91426 0.50076 0.56687 0.03500
H 	H 	0.97357 0.53114 0.54046 0.04900
C 	C 	0.44014 0.68013 0.42905 -0.08800
C 	C 	0.47229 0.72586 0.44036 0.02100
C 	C 	0.50293 0.71508 0.45468 -0.07200
C 	C 	0.50183 0.65871 0.45765 0.04500
C 	C 	0.47306 0.61401 0.44529 -0.07300
C 	C 	0.44227 0.62465 0.43104 0.01600
C 	C 	0.52470 0.64539 0.47470 -0.03100
C 	C 	0.54342 0.63290 0.48884 -0.00200
C 	C 	0.56354 0.61650 0.50551 -0.00200
C 	C 	0.57955 0.60103 0.51975 -0.03200
C 	C 	0.59763 0.58083 0.53666 0.04600
C 	C 	0.64937 0.59524 0.54011 -0.07600
C 	C 	0.66686 0.57043 0.55533 0.01500
C 	C 	0.63260 0.53074 0.56717 -0.09600
C 	C 	0.58075 0.51839 0.56415 0.02200
C 	C 	0.56339 0.54331 0.54894 -0.07400
H 	H 	0.47127 0.76899 0.43887 0.03600
H 	H 	0.52561 0.75003 0.46403 0.05000
H 	H 	0.47262 0.57046 0.44731 0.04700
H 	H 	0.41816 0.58921 0.42220 0.01000
H 	H 	0.67606 0.62446 0.53072 0.04700
H 	H 	0.70695 0.58047 0.55747 0.00400
H 	H 	0.55388 0.48866 0.57334 0.03900
H 	H 	0.52330 0.53236 0.54644 0.05100
C 	C 	0.74909 0.19675 0.61257 -0.09500
C 	C 	0.71729 0.15559 0.62470 0.01000
C 	C 	0.73546 0.11822 0.63488 -0.06900
C 	C 	0.78548 0.12147 0.63299 0.02600
C 	C 	0.81657 0.16069 0.62022 -0.06700
C 	C 	0.79846 0.19808 0.61003 0.01700
C 	C 	0.80636 0.08681 0.64533 0.00300
C 	C 	0.82529 0.04680 0.63716 -0.04300
C 	C 	0.85018 0.01873 0.64867 -0.02600
C 	C 	0.85625 0.03044 0.66840 -0.01200
C 	C 	0.83558 0.06861 0.67670 -0.03100
C 	C 	0.81067 0.09669 0.66521 -0.04200
C 	C 	0.88822 0.00826 0.67971 0.05000
C 	C 	0.91646 0.99099 0.68884 -0.11700
H 	H 	0.67906 0.15383 0.62676 0.00600
H 	H 	0.71104 0.08768 0.64457 0.04400
H 	H 	0.85517 0.16327 0.61859 0.04700
H 	H 	0.82315 0.22887 0.60048 0.03900
H 	H 	0.82178 0.03852 0.62186 0.04100
H 	H 	0.86599 0.98917 0.64216 0.03500
H 	H 	0.84010 0.07784 0.69194 0.03700
H 	H 	0.79610 0.12743 0.67166 0.03800
C 	C 	0.53308 0.31661 0.64339 -0.08600
C 	C 	0.49103 0.32655 0.63535 0.01400
C 	C 	0.44464 0.30596 0.64430 -0.06500
C 	C 	0.43963 0.27494 0.66131 0.02600
C 	C 	0.48205 0.26728 0.66982 -0.06600
C 	C 	0.52856 0.28819 0.66097 0.01100
C 	C 	0.38932 0.24625 0.66929 0.00200
C 	C 	0.35156 0.20530 0.65819 -0.04000
C 	C 	0.33352 0.22647 0.69628 -0.03300
C 	C 	0.37983 0.25734 0.68830 -0.04000
H 	H 	0.49382 0.34868 0.62189 0.04200
H 	H 	0.41226 0.31276 0.63774 0.04700
H 	H 	0.47866 0.24363 0.68300 0.04500
H 	H 	0.56073 0.28112 0.66759 0.02900
H 	H 	0.35850 0.19621 0.64354 0.04000
H 	H 	0.40855 0.28914 0.69695 0.03900
C 	C 	0.83472 0.48689 0.63282 -0.09000
C 	C 	0.88360 0.48508 0.63194 0.01400
C 	C 	0.92190 0.52050 0.64407 -0.06700
C 	C 	0.91163 0.55785 0.65720 0.02600
C 	C 	0.86198 0.55616 0.65913 -0.06600
C 	C 	0.82371 0.52083 0.64700 0.01200
C 	C 	0.95324 0.60453 0.66668 0.00200
C 	C 	0.98580 0.64830 0.65563 -0.03800
C 	C 	0.98363 0.66394 0.69522 -0.02900
C 	C 	0.95472 0.61121 0.68666 -0.04100
H 	H 	0.89252 0.45853 0.62121 0.04100
H 	H 	0.95996 0.52092 0.64265 0.04600
H 	H 	0.85357 0.58447 0.66936 0.04800
H 	H 	0.78590 0.52153 0.64815 0.03000
H 	H 	0.98580 0.64314 0.64022 0.03900
H 	H 	0.98151 0.67026 0.71049 0.03700
H 	H 	0.93079 0.57708 0.69539 0.03900
C 	C 	0.79465 0.42468 0.91125 -0.09200
C 	C 	0.84277 0.42050 0.91161 0.02000
C 	C 	0.87773 0.44853 0.92604 -0.07400
C 	C 	0.86495 0.48089 0.94024 0.04500
C 	C 	0.81734 0.48613 0.93973 -0.07300
C 	C 	0.78228 0.45819 0.92526 0.01600
C 	C 	0.89984 0.50594 0.95584 -0.03200
C 	C 	0.93026 0.52608 0.96862 -0.00200
C 	C 	0.96678 0.54736 0.98342 -0.00300
H 	H 	0.85307 0.39550 0.90073 0.03600
H 	H 	0.91455 0.44447 0.92632 0.04900
H 	H 	0.80721 0.51107 0.95068 0.04900
H 	H 	0.74525 0.46166 0.92515 0.02800
C 	C 	0.35054 0.78812 0.06017 -0.08800
C 	C 	0.36468 0.84848 0.06132 0.01900
C 	C 	0.39016 0.88249 0.04626 -0.07200
C 	C 	0.40143 0.85646 0.02994 0.04400
C 	C 	0.38516 0.79622 0.02836 -0.07200
C 	C 	0.35977 0.76217 0.04339 0.01600
C 	C 	0.43209 0.89149 0.01529 -0.03100
C 	C 	0.45771 0.92043 0.00297 -0.00300
C 	C 	0.48799 0.95412 0.98854 -0.00100
C 	C 	0.51376 0.98292 0.97623 -0.03500
C 	C 	0.54418 0.01764 0.96146 0.04600
C 	C 	0.58361 0.06888 0.96634 -0.07200
C 	C 	0.60995 0.10541 0.95198 0.01600
C 	C 	0.59686 0.09110 0.93261 -0.08600
C 	C 	0.55891 0.03827 0.92778 0.01500
C 	C 	0.53265 0.00181 0.94217 -0.06900
H 	H 	0.35778 0.86915 0.07415 0.03000
H 	H 	0.40223 0.92905 0.04752 0.04900
H 	H 	0.39323 0.77577 0.01569 0.04800
H 	H 	0.34849 0.71566 0.04220 0.02300
H 	H 	0.59310 0.08111 0.98123 0.05000
H 	H 	0.63953 0.14561 0.95592 0.02900
H 	H 	0.54828 0.02655 0.91293 0.03400
H 	H 	0.50249 0.96202 0.93829 0.04500
C 	C 	0.57184 0.35519 0.93274 -0.09300
C 	C 	0.52028 0.32503 0.93501 0.01600
C 	C 	0.49405 0.34261 0.94901 -0.07300
C 	C 	0.51904 0.39044 0.96082 0.04400
C 	C 	0.57035 0.42095 0.95853 -0.07300
C 	C 	0.59672 0.40346 0.94453 0.01400
C 	C 	0.49202 0.40810 0.97532 -0.03200
C 	C 	0.46926 0.42275 0.98745 -0.00200
C 	C 	0.44263 0.44007 0.00161 -0.00200
C 	C 	0.42006 0.45530 0.01367 -0.03200
C 	C 	0.39352 0.47431 0.02801 0.04600
C 	C 	0.34123 0.45946 0.02636 -0.07500
C 	C 	0.34269 0.51812 0.05454 -0.09200
C 	C 	0.39497 0.53165 0.05643 0.02100
C 	C 	0.42022 0.50982 0.04320 -0.07300
H 	H 	0.50050 0.28811 0.92589 0.03500
H 	H 	0.45431 0.31900 0.95068 0.04900
H 	H 	0.58986 0.45803 0.96762 0.04800
H 	H 	0.63653 0.42695 0.94303 0.03000
H 	H 	0.41608 0.55936 0.06806 0.04100
H 	H 	0.46064 0.52117 0.04461 0.05100
C 	C 	0.80103 0.19956 0.84674 -0.08600
C 	C 	0.78982 0.15343 0.83351 0.00900
C 	C 	0.82858 0.14113 0.82456 -0.06600
C 	C 	0.87892 0.17473 0.82872 0.02400
C 	C 	0.89026 0.22033 0.84210 -0.06500
C 	C 	0.85153 0.23266 0.85109 0.01000
C 	C 	0.91970 0.16156 0.81923 0.00300
C 	C 	0.95301 0.14254 0.83002 -0.04100
C 	C 	0.98819 0.12415 0.82082 -0.03000
C 	C 	0.99030 0.12467 0.80081 -0.00700
C 	C 	0.95851 0.14595 0.79007 -0.03200
C 	C 	0.92336 0.16444 0.79924 -0.04100
H 	H 	0.75113 0.12760 0.82994 0.03200
H 	H 	0.81949 0.10550 0.81437 0.04500
H 	H 	0.92904 0.24633 0.84546 0.04600
H 	H 	0.86077 0.26795 0.86141 0.03500
H 	H 	0.95062 0.14035 0.84546 0.03800
H 	H 	0.95997 0.14657 0.77459 0.03700
H 	H 	0.89817 0.17966 0.79080 0.04000
C 	C 	0.52325 0.14015 0.85870 -0.09100
C 	C 	0.52004 0.14347 0.83871 0.01200
C 	C 	0.47435 0.11566 0.82894 -0.06800
C 	C 	0.43158 0.08399 0.83907 0.02800
C 	C 	0.43494 0.08016 0.85902 -0.06800
C 	C 	0.48049 0.10822 0.86880 0.01600
C 	C 	0.38286 0.05677 0.82887 -0.00300
C 	C 	0.34176 0.07330 0.83331 -0.03600
C 	C 	0.37766 0.01526 0.81440 -0.03100
H 	H 	0.55276 0.16805 0.83078 0.02800
H 	H 	0.47202 0.11922 0.81354 0.04600
H 	H 	0.40222 0.05552 0.86694 0.04700
H 	H 	0.48270 0.10457 0.88420 0.04000
H 	H 	0.34536 0.10525 0.84447 0.03800
H 	H 	0.40900 0.00173 0.81101 0.03700
C 	C 	0.73606 0.45262 0.83481 -0.08600
C 	C 	0.78861 0.47338 0.83312 0.01500
C 	C 	0.81251 0.52442 0.82338 -0.06500
C 	C 	0.78420 0.55527 0.81522 0.02500
C 	C 	0.73164 0.53386 0.81643 -0.06600
C 	C 	0.70765 0.48275 0.82615 0.01100
C 	C 	0.80976 0.61074 0.80583 0.00200
C 	C 	0.80738 0.66220 0.81363 -0.04100
C 	C 	0.83374 0.71507 0.80530 -0.03300
C 	C 	0.86256 0.71681 0.78913 -0.01000
C 	C 	0.86435 0.66540 0.78116 -0.03300
C 	C 	0.83805 0.61254 0.78947 -0.04100
C 	C 	0.89170 0.77139 0.78106 0.04400
C 	C 	0.91686 0.81639 0.77409 -0.12200
H 	H 	0.81108 0.45091 0.83981 0.04100
H 	H 	0.85311 0.54059 0.82250 0.04600
H 	H 	0.70942 0.55705 0.80999 0.04500
H 	H 	0.66707 0.46695 0.82709 0.02900
H 	H 	0.78575 0.66130 0.82629 0.03800
H 	H 	0.83217 0.75462 0.81155 0.03700
H 	H 	0.88649 0.66640 0.76863 0.03700
H 	H 	0.83996 0.57307 0.78329 0.03900
