data_crystal

_cell_length_a 18.58491
_cell_length_b 18.91969
_cell_length_c 34.58403
_cell_angle_alpha 95.46192
_cell_angle_beta  95.46212
_cell_angle_gamma 126.43426

_symmetry_space_group_name_	'P 1'
_symmetry_space_group_name_H-M	'P 1'

loop_
_symmetry_equiv_pos_as_xyz
  x,y,z

loop_
_atom_site_label
_atom_site_type_symbol
_atom_site_fract_x
_atom_site_fract_y
_atom_site_fract_z
_atom_site_charge
C 	C 	0.90346 0.99271 0.95951 0.18200
C 	C 	0.99654 0.04607 0.95815 -0.07700
C 	C 	0.04285 0.00884 0.95787 0.19300
C 	C 	0.99610 0.91773 0.95828 -0.10000
C 	C 	0.90282 0.86313 0.95910 0.20100
C 	C 	0.85618 0.90072 0.95997 -0.10300
H 	H 	0.03340 0.11702 0.95833 0.11400
H 	H 	0.03254 0.88939 0.95836 0.11500
H 	H 	0.78430 0.85916 0.96126 0.13000
C 	C 	0.94887 0.04064 0.50357 0.26200
C 	C 	0.89558 0.94909 0.50463 -0.15900
C 	C 	0.93536 0.90539 0.50542 0.25800
C 	C 	0.02845 0.95310 0.50541 -0.16900
C 	C 	0.08233 0.04475 0.50481 0.25400
C 	C 	0.04255 0.08872 0.50386 -0.15500
H 	H 	0.82307 0.91167 0.50407 0.14100
H 	H 	0.05892 0.91883 0.50564 0.13700
H 	H 	0.08393 0.15953 0.50295 0.14400
Cu	Cu	0.76052 0.34155 0.95973 0.93200
Cu	Cu	0.75183 0.28305 0.04662 0.90200
Cu	Cu	0.60874 0.28935 0.00597 0.91700
Cu	Cu	0.58868 0.32751 0.92519 0.91600
C 	C 	0.70107 0.30761 0.87554 0.30000
O 	O 	0.81008 0.47065 0.95696 -0.32600
C 	C 	0.66294 0.32807 0.09366 0.29800
O 	O 	0.61786 0.26394 0.95249 -0.64100
O 	O 	0.74378 0.35715 0.01470 -0.63100
O 	O 	0.82367 0.28533 0.96749 -0.32800
O 	O 	0.72603 0.19335 0.00536 -0.38400
O 	O 	0.65938 0.34357 0.88234 -0.33600
O 	O 	0.47758 0.21636 0.99411 -0.35100
C 	C 	0.42854 0.21826 0.96454 0.39800
C 	C 	0.76524 0.50149 0.96680 0.38400
O 	O 	0.68033 0.44537 0.97079 -0.36700
O 	O 	0.46632 0.27249 0.93914 -0.34600
O 	O 	0.75329 0.30826 0.90455 -0.31000
C 	C 	0.78520 0.21186 0.98249 0.37500
O 	O 	0.59754 0.29474 0.06238 -0.33200
O 	O 	0.74061 0.34278 0.09035 -0.37900
H 	H 	0.58146 0.19939 0.94109 0.19300
H 	H 	0.77784 0.42003 0.02833 0.20700
Cu	Cu	0.61665 0.20390 0.50591 0.93700
Cu	Cu	0.67349 0.21197 0.41859 0.90100
Cu	Cu	0.66929 0.35374 0.46036 0.91100
Cu	Cu	0.63128 0.37152 0.54146 0.91600
C 	C 	0.65203 0.26017 0.59024 0.29900
O 	O 	0.48692 0.15521 0.50959 -0.32900
C 	C 	0.63090 0.30288 0.37252 0.29800
O 	O 	0.69612 0.34398 0.51355 -0.63700
O 	O 	0.59962 0.22095 0.45116 -0.63600
O 	O 	0.66809 0.13798 0.49673 -0.33300
O 	O 	0.76358 0.23327 0.45925 -0.39600
O 	O 	0.61563 0.30148 0.58396 -0.33600
O 	O 	0.74325 0.48239 0.47293 -0.34600
C 	C 	0.73782 0.52934 0.50169 0.40000
C 	C 	0.45469 0.19813 0.49955 0.39100
O 	O 	0.51097 0.28194 0.49600 -0.36500
O 	O 	0.68584 0.49191 0.52815 -0.34500
O 	O 	0.65211 0.21027 0.56081 -0.30800
C 	C 	0.74248 0.17407 0.48178 0.39100
O 	O 	0.66360 0.36612 0.40411 -0.33300
O 	O 	0.61364 0.22551 0.37550 -0.38100
H 	H 	0.76189 0.37964 0.52481 0.19400
H 	H 	0.53549 0.18780 0.43776 0.20600
C 	C 	0.72890 0.33964 0.76873 0.00200
C 	C 	0.76377 0.36637 0.73435 -0.03000
C 	C 	0.70564 0.31308 0.69804 0.04100
C 	C 	0.61942 0.23323 0.69691 0.00200
C 	C 	0.59077 0.19979 0.73128 -0.02900
C 	C 	0.64571 0.25641 0.76760 0.04100
S 	S 	0.78882 0.37658 0.81433 0.13200
C 	C 	0.71121 0.29177 0.83490 -0.04700
C 	C 	0.63504 0.22951 0.80478 -0.01000
S 	S 	0.58003 0.17436 0.65127 0.13400
C 	C 	0.66756 0.24860 0.63062 -0.04700
C 	C 	0.73284 0.32248 0.66082 -0.01000
H 	H 	0.83327 0.42475 0.73579 0.08100
H 	H 	0.52971 0.13245 0.72985 0.08100
H 	H 	0.57233 0.17044 0.81008 0.07100
H 	H 	0.79405 0.38310 0.65551 0.07000
C 	C 	0.69475 0.35765 0.27131 0.00200
C 	C 	0.73465 0.40028 0.24025 -0.03500
C 	C 	0.68840 0.35254 0.20162 0.03500
C 	C 	0.60273 0.26912 0.19507 0.00100
C 	C 	0.55714 0.23322 0.22612 -0.03400
C 	C 	0.60650 0.27734 0.26476 0.03400
S 	S 	0.72335 0.40519 0.31854 0.09500
C 	C 	0.62790 0.32462 0.33311 -0.05300
C 	C 	0.56869 0.25798 0.29942 -0.00900
S 	S 	0.55545 0.24339 0.14781 0.10100
C 	C 	0.64250 0.33378 0.13327 -0.05400
C 	C 	0.71160 0.38895 0.16692 -0.00900
H 	H 	0.79773 0.46774 0.24582 0.07500
H 	H 	0.48640 0.17471 0.22052 0.07600
H 	H 	0.50387 0.19559 0.30047 0.07400
H 	H 	0.77767 0.44991 0.16589 0.07400
C 	C 	0.82644 0.74796 0.46946 0.25700
C 	C 	0.87920 0.80895 0.50510 -0.15800
C 	C 	0.88400 0.77785 0.53976 0.26000
C 	C 	0.83781 0.68640 0.53865 0.29200
C 	C 	0.78630 0.62536 0.50283 -0.20200
C 	C 	0.78008 0.65645 0.46830 0.29200
F 	F 	0.72832 0.59784 0.43376 -0.37400
F 	F 	0.82152 0.77769 0.43581 -0.36500
F 	F 	0.84478 0.65713 0.57215 -0.38000
F 	F 	0.93483 0.83659 0.57436 -0.35500
C 	C 	0.83279 0.12821 0.45621 0.29000
C 	C 	0.79897 0.14385 0.48796 -0.20600
C 	C 	0.82025 0.13143 0.52559 0.29400
C 	C 	0.87302 0.10164 0.53115 0.25800
C 	C 	0.90500 0.08419 0.49919 -0.15500
C 	C 	0.88579 0.09885 0.46188 0.26000
F 	F 	0.91582 0.08144 0.43075 -0.35300
F 	F 	0.81170 0.13864 0.41956 -0.39800
F 	F 	0.89197 0.08833 0.56744 -0.36000
F 	F 	0.79045 0.14894 0.55678 -0.37500
C 	C 	0.32647 0.13566 0.53593 0.29100
C 	C 	0.35954 0.15942 0.50083 -0.20800
C 	C 	0.30359 0.15292 0.46816 0.29200
C 	C 	0.21407 0.11985 0.47012 0.25600
C 	C 	0.18028 0.09396 0.50491 -0.15500
C 	C 	0.23746 0.10369 0.53804 0.25500
F 	F 	0.20589 0.08028 0.57203 -0.36000
F 	F 	0.38120 0.14494 0.56819 -0.38200
F 	F 	0.15919 0.11022 0.43783 -0.36000
F 	F 	0.33553 0.17716 0.43432 -0.38400
C 	C 	0.82302 0.62651 0.92966 0.29000
C 	C 	0.80296 0.59508 0.96528 -0.20400
C 	C 	0.80669 0.64892 0.99761 0.28400
C 	C 	0.83308 0.73451 0.99475 0.24000
C 	C 	0.85508 0.76673 0.95938 -0.13200
C 	C 	0.84809 0.71147 0.92662 0.24700
F 	F 	0.86816 0.74129 0.89212 -0.35900
F 	F 	0.81625 0.57391 0.89769 -0.38300
F 	F 	0.84035 0.78732 0.02677 -0.34900
F 	F 	0.78560 0.61862 0.03195 -0.37500
C 	C 	0.82418 0.11631 0.00739 0.30300
C 	C 	0.81249 0.15288 0.97596 -0.21400
C 	C 	0.82122 0.12832 0.93803 0.29700
C 	C 	0.84384 0.06983 0.93189 0.24600
C 	C 	0.85810 0.03545 0.96361 -0.13000
C 	C 	0.84623 0.05757 0.00115 0.25900
F 	F 	0.86063 0.02562 0.03211 -0.34900
F 	F 	0.81690 0.13989 0.04432 -0.39700
F 	F 	0.85458 0.04859 0.89537 -0.35700
F 	F 	0.80705 0.16039 0.90707 -0.37600
C 	C 	0.29574 0.16979 0.99671 0.28800
C 	C 	0.32996 0.16653 0.96262 -0.20400
C 	C 	0.26952 0.11396 0.92660 0.29400
C 	C 	0.17562 0.06392 0.92486 0.25000
C 	C 	0.14153 0.06616 0.95907 -0.13300
C 	C 	0.20186 0.11970 0.99493 0.23900
F 	F 	0.16927 0.12219 0.02813 -0.35400
F 	F 	0.35357 0.22235 0.03145 -0.36500
F 	F 	0.11756 0.01240 0.89005 -0.35400
F 	F 	0.30183 0.10993 0.89351 -0.38200
