data_crystal

_cell_length_a 26.07376
_cell_length_b 26.48913
_cell_length_c 34.58155
_cell_angle_alpha 95.49632
_cell_angle_beta  95.49322
_cell_angle_gamma 125.77692

_symmetry_space_group_name_	'P 1'
_symmetry_space_group_name_H-M	'P 1'

loop_
_symmetry_equiv_pos_as_xyz
  x,y,z

loop_
_atom_site_label
_atom_site_type_symbol
_atom_site_fract_x
_atom_site_fract_y
_atom_site_fract_z
_atom_site_charge
C 	C 	0.96882 0.02805 0.98948 0.17200
N 	N 	0.93335 0.96652 0.99371 -0.11200
C 	C 	0.95821 0.93379 0.99050 0.19000
N 	N 	0.01949 0.96320 0.98473 -0.11000
C 	C 	0.05617 0.02548 0.98237 0.18500
N 	N 	0.03039 0.05760 0.98388 -0.11100
C 	C 	0.93857 0.99759 0.46504 0.20800
N 	N 	0.90787 0.93729 0.47169 -0.12000
C 	C 	0.93758 0.90883 0.46999 0.19200
N 	N 	0.99865 0.94147 0.46302 -0.12100
C 	C 	0.02978 0.00200 0.45721 0.19700
N 	N 	0.99930 0.02954 0.45747 -0.13200
Cu	Cu	0.64348 0.24330 0.00051 0.93700
Cu	Cu	0.70414 0.26812 0.92064 0.89200
Cu	Cu	0.67067 0.34518 0.95355 0.90200
Cu	Cu	0.64634 0.35946 0.03412 0.91400
C 	C 	0.66506 0.28435 0.08391 0.30900
O 	O 	0.55015 0.20735 0.00137 -0.33100
C 	C 	0.65071 0.30978 0.86675 0.31200
O 	O 	0.69558 0.34258 0.00717 -0.63900
O 	O 	0.63436 0.25413 0.94536 -0.63900
O 	O 	0.68307 0.19856 0.99337 -0.33400
O 	O 	0.75911 0.27683 0.96519 -0.40200
O 	O 	0.63398 0.30851 0.07603 -0.35600
O 	O 	0.71286 0.43544 0.96242 -0.35900
C 	C 	0.71602 0.47060 0.99373 0.34300
C 	C 	0.52626 0.23636 0.98888 0.32500
O 	O 	0.56529 0.29627 0.98621 -0.37300
O 	O 	0.68822 0.44667 0.02387 -0.35500
O 	O 	0.66684 0.24844 0.05574 -0.32700
C 	C 	0.73928 0.22811 0.98249 0.33300
O 	O 	0.65185 0.34516 0.89715 -0.36000
O 	O 	0.66535 0.27045 0.87168 -0.37600
H 	H 	0.74251 0.37051 0.01757 0.18900
H 	H 	0.59092 0.22545 0.92859 0.20500
Cu	Cu	0.73372 0.33362 0.45601 0.93600
Cu	Cu	0.68832 0.25787 0.52847 0.88800
Cu	Cu	0.62722 0.30928 0.49902 0.90000
Cu	Cu	0.62045 0.33742 0.41773 0.91000
C 	C 	0.70028 0.31927 0.37219 0.31100
O 	O 	0.77485 0.42762 0.46010 -0.32800
C 	C 	0.65176 0.31336 0.58487 0.30800
O 	O 	0.63306 0.28649 0.44553 -0.63900
O 	O 	0.71645 0.33548 0.50979 -0.64100
O 	O 	0.77835 0.29357 0.46343 -0.33000
O 	O 	0.69281 0.21227 0.48458 -0.39900
O 	O 	0.67744 0.35162 0.37917 -0.36200
O 	O 	0.53770 0.27799 0.48797 -0.35000
C 	C 	0.50292 0.26417 0.45287 0.33500
C 	C 	0.74482 0.45251 0.46866 0.31900
O 	O 	0.68214 0.41568 0.46696 -0.36700
O 	O 	0.52934 0.29361 0.42381 -0.35500
O 	O 	0.73530 0.31684 0.40102 -0.32500
C 	C 	0.74755 0.23683 0.47237 0.33300
O 	O 	0.62393 0.32301 0.55533 -0.34200
O 	O 	0.68571 0.29195 0.57890 -0.38900
H 	H 	0.60407 0.24047 0.43455 0.18200
H 	H 	0.74696 0.37553 0.52913 0.20200
C 	C 	0.59594 0.26893 0.75605 -0.10800
C 	C 	0.62627 0.32950 0.74678 0.01100
C 	C 	0.65508 0.38242 0.77739 0.13600
C 	C 	0.65882 0.37515 0.81695 -0.02800
C 	C 	0.63394 0.31523 0.82614 -0.10600
C 	C 	0.59895 0.26153 0.79553 0.20100
C 	C 	0.63555 0.33797 0.70577 0.01300
O 	O 	0.67935 0.44110 0.76869 -0.24700
H 	H 	0.68372 0.41650 0.84036 0.08400
O 	O 	0.56976 0.20201 0.80410 -0.26800
H 	H 	0.57224 0.22778 0.73260 0.08900
C 	C 	0.69582 0.36157 0.69565 0.12900
C 	C 	0.70183 0.35858 0.65591 -0.02600
C 	C 	0.64752 0.32961 0.62585 -0.10000
C 	C 	0.58781 0.30880 0.63593 0.19800
C 	C 	0.58226 0.31376 0.67583 -0.10000
O 	O 	0.74856 0.38600 0.72459 -0.26200
H 	H 	0.74826 0.37605 0.64841 0.07900
O 	O 	0.53459 0.28234 0.60696 -0.25300
H 	H 	0.53582 0.29598 0.68343 0.09700
H 	H 	0.52574 0.18713 0.80702 0.17100
H 	H 	0.74855 0.34945 0.72875 0.16400
H 	H 	0.51399 0.23624 0.60197 0.16400
H 	H 	0.72563 0.46167 0.76872 0.17700
C 	C 	0.75892 0.31410 0.27716 -0.09900
C 	C 	0.70156 0.28352 0.24948 0.01500
C 	C 	0.64301 0.25758 0.26272 0.13100
C 	C 	0.64258 0.26518 0.30324 -0.02700
C 	C 	0.70042 0.30001 0.33085 -0.10200
C 	C 	0.75875 0.32337 0.31773 0.20900
C 	C 	0.70371 0.28567 0.20708 0.01100
O 	O 	0.58626 0.22579 0.23603 -0.25700
H 	H 	0.59744 0.24633 0.31316 0.06500
O 	O 	0.81569 0.35646 0.34436 -0.25200
H 	H 	0.80405 0.33337 0.26715 0.09400
C 	C 	0.72749 0.34271 0.19358 0.12700
C 	C 	0.71785 0.34232 0.15302 -0.02700
C 	C 	0.68441 0.28531 0.12561 -0.10100
C 	C 	0.66364 0.22869 0.13901 0.20600
C 	C 	0.67435 0.22934 0.17961 -0.09700
O 	O 	0.75620 0.39814 0.22008 -0.25700
H 	H 	0.73446 0.38614 0.14293 0.06800
O 	O 	0.63146 0.17252 0.11265 -0.25000
H 	H 	0.65682 0.18542 0.18983 0.10200
H 	H 	0.83237 0.40149 0.34729 0.18000
H 	H 	0.80285 0.41771 0.22457 0.16500
H 	H 	0.58523 0.15430 0.11002 0.17500
H 	H 	0.58082 0.25860 0.23042 0.16800
C 	C 	0.78035 0.52224 0.47599 -0.11000
C 	C 	0.76921 0.55182 0.50671 0.12600
C 	C 	0.79107 0.61489 0.50824 0.06700
C 	C 	0.83239 0.65147 0.48294 0.02200
C 	C 	0.85064 0.62423 0.45583 0.06500
C 	C 	0.82073 0.55875 0.45007 0.12600
C 	C 	0.85320 0.71704 0.48284 0.01300
C 	C 	0.82553 0.72930 0.45159 0.07900
C 	C 	0.85418 0.79206 0.44661 0.10400
C 	C 	0.90412 0.84288 0.47624 -0.05200
C 	C 	0.92663 0.83031 0.50997 0.10300
C 	C 	0.90421 0.76785 0.51201 0.07900
Br	Br	0.91642 0.67672 0.42647 -0.12300
Br	Br	0.72778 0.50744 0.54803 -0.16300
Br	Br	0.83070 0.80797 0.39724 -0.10900
Br	Br	0.94572 0.75229 0.55331 -0.11800
Br	Br	0.82920 0.51862 0.40404 -0.15600
Br	Br	0.76171 0.64996 0.54338 -0.11200
Br	Br	0.74873 0.66004 0.41553 -0.12300
Br	Br	0.98641 0.89824 0.55381 -0.11100
C 	C 	0.77694 0.20291 0.47202 -0.11600
C 	C 	0.80029 0.19520 0.43844 0.12900
C 	C 	0.82997 0.16466 0.43897 0.06600
C 	C 	0.82836 0.13414 0.47058 0.02100
C 	C 	0.80128 0.13838 0.50294 0.06600
C 	C 	0.78065 0.17699 0.50511 0.13000
C 	C 	0.85559 0.09804 0.46996 0.01400
C 	C 	0.82114 0.03748 0.44599 0.07100
C 	C 	0.84930 0.00565 0.44303 0.09900
C 	C 	0.90773 0.02993 0.46839 -0.06200
C 	C 	0.93911 0.08783 0.49514 0.10000
C 	C 	0.91561 0.12392 0.49372 0.07800
Br	Br	0.79086 0.08996 0.54373 -0.12400
Br	Br	0.78711 0.22156 0.39071 -0.13900
Br	Br	0.81122 0.93291 0.40170 -0.10100
Br	Br	0.96653 0.20948 0.52324 -0.12300
Br	Br	0.76430 0.19965 0.55468 -0.22500
Br	Br	0.87408 0.16590 0.39696 -0.12100
Br	Br	0.73500 0.99771 0.41783 -0.10500
Br	Br	0.01126 0.11542 0.53553 -0.10600
C 	C 	0.09827 0.03954 0.45412 -0.05400
C 	C 	0.11606 0.04595 0.41670 0.10500
C 	C 	0.18159 0.08233 0.41383 0.07900
C 	C 	0.22931 0.11153 0.44839 0.01300
C 	C 	0.21140 0.10462 0.48578 0.07800
C 	C 	0.14601 0.06929 0.48866 0.10500
C 	C 	0.29841 0.14996 0.44554 0.02300
C 	C 	0.32972 0.12115 0.44299 0.06600
C 	C 	0.39661 0.15856 0.44436 0.12500
C 	C 	0.43238 0.22484 0.44869 -0.11200
C 	C 	0.40086 0.25352 0.45024 0.13000
C 	C 	0.33377 0.21598 0.44808 0.06600
Br	Br	0.27673 0.14358 0.53303 -0.12600
Br	Br	0.05054 0.00444 0.36947 -0.11600
Br	Br	0.43946 0.11917 0.44021 -0.19400
Br	Br	0.29019 0.25485 0.44914 -0.11200
Br	Br	0.12179 0.06263 0.53993 -0.11000
Br	Br	0.20622 0.09251 0.36268 -0.11600
Br	Br	0.28096 0.03055 0.43837 -0.12400
Br	Br	0.44995 0.34444 0.45696 -0.13200
C 	C 	0.91793 0.86593 0.99143 -0.05300
C 	C 	0.89210 0.82150 0.95598 0.10500
C 	C 	0.85738 0.75666 0.95704 0.07900
C 	C 	0.84732 0.73616 0.99353 0.01200
C 	C 	0.87095 0.78044 0.02885 0.07900
C 	C 	0.90689 0.84542 0.02784 0.10500
C 	C 	0.81369 0.66834 0.99483 0.02300
C 	C 	0.74610 0.62768 0.98994 0.06600
C 	C 	0.71394 0.56257 0.98911 0.12900
C 	C 	0.74949 0.53846 0.99435 -0.11600
C 	C 	0.81714 0.57934 0.00021 0.12900
C 	C 	0.84921 0.64416 0.99999 0.06500
Br	Br	0.85437 0.75183 0.07854 -0.11500
Br	Br	0.90402 0.84968 0.90596 -0.11300
Br	Br	0.62110 0.50597 0.97953 -0.13800
Br	Br	0.94179 0.69998 0.00637 -0.12100
Br	Br	0.94267 0.90661 0.07635 -0.10900
Br	Br	0.82434 0.69576 0.90868 -0.12400
Br	Br	0.69784 0.66143 0.98428 -0.11000
Br	Br	0.86578 0.54659 0.00943 -0.17500
C 	C 	0.77631 0.20217 0.98521 -0.11800
C 	C 	0.80131 0.19499 0.95234 0.13200
C 	C 	0.84157 0.17615 0.95631 0.06500
C 	C 	0.84670 0.15250 0.99004 0.02400
C 	C 	0.81814 0.15547 0.02193 0.06500
C 	C 	0.78747 0.18489 0.02069 0.13100
C 	C 	0.87796 0.12049 0.99065 0.01000
C 	C 	0.84663 0.06001 0.96730 0.08100
C 	C 	0.87956 0.03330 0.96365 0.09300
C 	C 	0.93921 0.06141 0.98876 -0.04500
C 	C 	0.96871 0.12000 0.01434 0.09600
C 	C 	0.94018 0.15151 0.01306 0.08200
Br	Br	0.81869 0.11698 0.06642 -0.12000
Br	Br	0.77385 0.20247 0.90074 -0.22100
Br	Br	0.84614 0.96227 0.92168 -0.10000
Br	Br	0.98699 0.23768 0.04083 -0.12300
Br	Br	0.76625 0.20648 0.06840 -0.14300
Br	Br	0.89002 0.18302 0.91571 -0.12000
Br	Br	0.75810 0.01315 0.94116 -0.12500
Br	Br	0.04493 0.15455 0.05327 -0.10600
C 	C 	0.45683 0.20573 0.98538 -0.11500
C 	C 	0.41152 0.14705 0.95967 0.12800
C 	C 	0.34528 0.11694 0.95769 0.06600
C 	C 	0.32439 0.14802 0.97867 0.02300
C 	C 	0.36978 0.20864 0.00205 0.06500
C 	C 	0.43555 0.23545 0.00758 0.13200
C 	C 	0.25504 0.11509 0.97882 0.01200
C 	C 	0.21588 0.11546 0.94796 0.08000
C 	C 	0.15030 0.08533 0.94877 0.10400
C 	C 	0.12514 0.05924 0.98191 -0.05100
C 	C 	0.16540 0.06228 0.01377 0.10400
C 	C 	0.22912 0.08679 0.01116 0.07900
Br	Br	0.34158 0.25475 0.02656 -0.11200
Br	Br	0.44007 0.10934 0.92598 -0.17300
Br	Br	0.09443 0.07738 0.90387 -0.11400
Br	Br	0.28089 0.08097 0.05159 -0.12500
Br	Br	0.49539 0.30921 0.04839 -0.18600
Br	Br	0.28314 0.03255 0.92719 -0.12000
Br	Br	0.25250 0.15829 0.90511 -0.11800
Br	Br	0.13444 0.03674 0.06200 -0.11500
