data_crystal

_cell_length_a 30.32821
_cell_length_b 27.61146
_cell_length_c 27.74533
_cell_angle_alpha 92.66473
_cell_angle_beta  85.31340
_cell_angle_gamma 124.23072

_symmetry_space_group_name_	'P 1'
_symmetry_space_group_name_H-M	'P 1'

loop_
_symmetry_equiv_pos_as_xyz
  x,y,z

loop_
_atom_site_label
_atom_site_type_symbol
_atom_site_fract_x
_atom_site_fract_y
_atom_site_fract_z
_atom_site_charge
C 	C 	0.01227 0.05514 0.96422 0.03400
C 	C 	0.02689 0.96492 0.97816 -0.03300
C 	C 	0.06952 0.01863 0.95875 0.04600
C 	C 	0.06153 0.06308 0.95088 -0.02900
C 	C 	0.12388 0.04033 0.96374 -0.05300
S 	S 	0.12032 0.12703 0.95240 0.05800
H 	H 	0.02256 0.12926 0.92520 0.06500
C 	C 	0.15788 0.10145 0.95974 0.00700
H 	H 	0.13624 0.01409 0.97782 0.07200
C 	C 	0.30713 0.19804 0.02555 0.04000
C 	C 	0.26053 0.18614 0.05181 -0.00300
C 	C 	0.21178 0.15544 0.03006 -0.01700
C 	C 	0.20931 0.13605 0.98205 0.03000
C 	C 	0.25583 0.14772 0.95595 -0.01800
C 	C 	0.30454 0.17849 0.97762 -0.00500
H 	H 	0.26205 0.20035 0.08905 0.08700
H 	H 	0.17587 0.14601 0.05067 0.06900
H 	H 	0.25415 0.13251 0.91901 0.07500
H 	H 	0.34019 0.18665 0.95739 0.09100
C 	C 	0.83183 0.07448 0.90891 0.00500
H 	H 	0.85028 0.01039 0.89425 0.07300
H 	H 	0.79493 0.04971 0.89072 0.08600
C 	C 	0.85634 0.67068 0.98408 0.03800
C 	C 	0.83293 0.70023 0.97357 0.00100
C 	C 	0.86437 0.76111 0.96843 -0.01700
H 	H 	0.79041 0.67600 0.96908 0.09700
H 	H 	0.84612 0.78299 0.95808 0.07100
C 	C 	0.00324 0.05704 0.48749 0.04100
C 	C 	0.02712 0.01843 0.55018 0.04400
C 	C 	0.03195 0.06608 0.52795 -0.03000
C 	C 	0.07347 0.03386 0.57341 -0.05300
S 	S 	0.09311 0.12482 0.53579 0.06600
H 	H 	0.01077 0.14126 0.48777 0.06800
C 	C 	0.11398 0.09370 0.56951 0.00300
H 	H 	0.07977 0.00202 0.58656 0.06800
C 	C 	0.28009 0.16799 0.58089 0.03200
C 	C 	0.25796 0.14904 0.53583 0.00300
C 	C 	0.20352 0.12423 0.53208 -0.02200
C 	C 	0.17072 0.11748 0.57350 0.03700
C 	C 	0.19244 0.13438 0.61879 -0.02200
C 	C 	0.24693 0.15942 0.62251 0.00200
H 	H 	0.28306 0.15419 0.50370 0.09000
H 	H 	0.18687 0.11042 0.49706 0.07200
H 	H 	0.16725 0.12874 0.65100 0.07100
H 	H 	0.26355 0.17296 0.65756 0.08300
C 	C 	0.83418 0.09262 0.45704 0.00200
H 	H 	0.84404 0.02536 0.47748 0.07300
H 	H 	0.79337 0.06994 0.47247 0.09100
C 	C 	0.84797 0.67371 0.50059 0.03200
C 	C 	0.82687 0.70545 0.51867 0.00500
C 	C 	0.85910 0.76666 0.51866 -0.02100
H 	H 	0.78543 0.68269 0.53234 0.09100
H 	H 	0.84234 0.79086 0.53224 0.07200
Co	Co	0.70703 0.30252 0.99075 1.19500
O 	O 	0.75733 0.28932 0.94444 -0.29600
Co	Co	0.61273 0.32513 0.02928 1.19600
O 	O 	0.64055 0.29018 0.96408 -0.42500
O 	O 	0.68412 0.39562 0.04172 -0.35200
O 	O 	0.68712 0.21560 0.97672 -0.30000
C 	C 	0.72513 0.41973 0.00917 0.34600
O 	O 	0.61460 0.34690 0.95558 -0.31300
C 	C 	0.51667 0.28137 0.06597 0.31000
C 	C 	0.67420 0.29342 0.08444 0.30000
O 	O 	0.55837 0.33241 0.07530 -0.30500
O 	O 	0.52928 0.25477 0.03424 -0.27800
O 	O 	0.71851 0.30158 0.06578 -0.28300
O 	O 	0.64019 0.27831 0.05211 -0.41500
O 	O 	0.74377 0.38965 0.98795 -0.50100
C 	C 	0.72879 0.23300 0.94766 0.31200
C 	C 	0.63841 0.32372 0.93472 0.27700
H 	H 	0.77884 0.41153 0.96750 0.21400
Co	Co	0.70201 0.31088 0.48720 1.20400
O 	O 	0.75587 0.30429 0.44004 -0.29300
Co	Co	0.59868 0.31676 0.52783 1.19500
O 	O 	0.62780 0.27925 0.46550 -0.42300
O 	O 	0.66394 0.39825 0.53185 -0.36100
O 	O 	0.69772 0.23057 0.48230 -0.26500
C 	C 	0.70990 0.42137 0.50532 0.35900
O 	O 	0.58834 0.32171 0.45310 -0.30500
C 	C 	0.50476 0.26420 0.57205 0.30800
C 	C 	0.67867 0.31374 0.58214 0.29100
O 	O 	0.54261 0.31894 0.57552 -0.31500
O 	O 	0.51981 0.23839 0.54194 -0.26600
O 	O 	0.72399 0.32805 0.56055 -0.21700
O 	O 	0.64026 0.28677 0.55328 -0.41100
O 	O 	0.71890 0.39005 0.47334 -0.51300
C 	C 	0.73730 0.25068 0.45021 0.28700
C 	C 	0.61573 0.30207 0.43370 0.27900
H 	H 	0.74317 0.41004 0.44326 0.21000
C 	C 	0.64815 0.30645 0.78504 0.13600
N 	N 	0.67561 0.29445 0.81301 -0.02300
N 	N 	0.67168 0.29886 0.86099 -0.03300
C 	C 	0.64076 0.31615 0.88225 0.06500
N 	N 	0.61341 0.32825 0.85431 -0.02800
N 	N 	0.61674 0.32304 0.80639 -0.04000
C 	C 	0.66892 0.30756 0.63470 0.10300
N 	N 	0.62373 0.29989 0.65655 -0.03300
N 	N 	0.61667 0.29860 0.70464 -0.03300
C 	C 	0.65436 0.30426 0.73216 0.14200
N 	N 	0.69916 0.31098 0.71025 -0.02300
N 	N 	0.70653 0.31306 0.66220 -0.00100
C 	C 	0.62617 0.27602 0.28538 0.13200
N 	N 	0.59385 0.29249 0.30449 -0.03800
N 	N 	0.58947 0.29941 0.35210 -0.02800
C 	C 	0.61686 0.28947 0.38197 0.06100
N 	N 	0.64834 0.27188 0.36300 -0.05200
N 	N 	0.65307 0.26541 0.31535 -0.04600
C 	C 	0.65829 0.28241 0.13607 0.08100
N 	N 	0.68969 0.27907 0.16602 -0.02000
N 	N 	0.67823 0.27478 0.21365 -0.03800
C 	C 	0.63541 0.27446 0.23273 0.13500
N 	N 	0.60355 0.27701 0.20271 -0.02800
N 	N 	0.61475 0.28073 0.15501 -0.02900
C 	C 	0.81533 0.57866 0.53866 0.00300
C 	C 	0.81385 0.60902 0.50040 0.09200
C 	C 	0.77962 0.57765 0.46266 -0.13200
C 	C 	0.74523 0.51626 0.46559 0.08400
C 	C 	0.74669 0.48588 0.50385 -0.03500
C 	C 	0.78256 0.51708 0.54048 -0.05500
C 	C 	0.78711 0.48478 0.58050 0.76900
H 	H 	0.84215 0.60327 0.56698 0.10400
H 	H 	0.71714 0.49180 0.43811 0.08100
C 	C 	0.77870 0.60959 0.42001 0.79200
F 	F 	0.82478 0.52286 0.61231 -0.40300
F 	F 	0.80220 0.44898 0.56051 -0.41100
F 	F 	0.73841 0.45108 0.60657 -0.42500
F 	F 	0.82999 0.64757 0.39970 -0.42600
F 	F 	0.75732 0.64105 0.43541 -0.42600
F 	F 	0.74814 0.57110 0.38424 -0.41200
C 	C 	0.83410 0.21140 0.47746 0.01100
C 	C 	0.82988 0.17691 0.43715 0.08700
C 	C 	0.79726 0.16902 0.39979 -0.12200
C 	C 	0.76782 0.19439 0.40460 0.07300
C 	C 	0.77121 0.22792 0.44539 0.00800
C 	C 	0.80575 0.23798 0.48176 -0.06500
C 	C 	0.81087 0.27500 0.52601 0.77400
H 	H 	0.74157 0.18748 0.37694 0.09500
C 	C 	0.79301 0.13262 0.35540 0.79100
F 	F 	0.76334 0.24647 0.55435 -0.41000
F 	F 	0.77059 0.07529 0.36896 -0.42000
F 	F 	0.84326 0.15497 0.33300 -0.42100
F 	F 	0.76150 0.13267 0.32202 -0.40600
C 	C 	0.35536 0.16154 0.59923 0.01000
C 	C 	0.33790 0.19568 0.58466 0.08700
C 	C 	0.37572 0.25524 0.57216 -0.12600
C 	C 	0.43046 0.27734 0.56903 0.07700
C 	C 	0.44788 0.24235 0.58163 0.00100
C 	C 	0.41023 0.18526 0.60009 -0.06600
C 	C 	0.42819 0.14865 0.61887 0.77500
H 	H 	0.32609 0.11620 0.60930 0.09700
H 	H 	0.45953 0.32120 0.55537 0.09500
C 	C 	0.35783 0.29443 0.55983 0.79100
F 	F 	0.38788 0.10318 0.64770 -0.41400
F 	F 	0.47173 0.18261 0.64650 -0.41400
F 	F 	0.44206 0.12516 0.58031 -0.40600
F 	F 	0.31961 0.28880 0.59432 -0.42600
F 	F 	0.33653 0.27895 0.51510 -0.42700
F 	F 	0.40007 0.35284 0.55828 -0.41100
C 	C 	0.81241 0.58277 0.03643 0.00900
C 	C 	0.82306 0.60633 0.98993 0.08300
C 	C 	0.80251 0.56843 0.94957 -0.12800
C 	C 	0.76731 0.50779 0.95744 0.07400
C 	C 	0.75786 0.48413 0.00372 -0.03100
C 	C 	0.78269 0.52185 0.04344 -0.05700
C 	C 	0.77673 0.49765 0.09343 0.77200
H 	H 	0.82800 0.61215 0.06708 0.10100
H 	H 	0.74802 0.47860 0.92735 0.07800
C 	C 	0.81685 0.59231 0.89831 0.79000
F 	F 	0.81385 0.54041 0.12336 -0.41000
F 	F 	0.78451 0.45276 0.09053 -0.42100
F 	F 	0.72618 0.47682 0.11433 -0.41100
F 	F 	0.78873 0.61634 0.88963 -0.42800
F 	F 	0.80436 0.54855 0.86457 -0.41100
C 	C 	0.74965 0.16596 0.97919 0.07400
C 	C 	0.75282 0.19908 0.94057 -0.00000
C 	C 	0.78175 0.20239 0.89669 -0.06500
C 	C 	0.81277 0.17901 0.89474 0.01000
C 	C 	0.81130 0.14798 0.93410 0.08900
C 	C 	0.77712 0.13845 0.97575 -0.12800
C 	C 	0.77196 0.10149 0.01753 0.79400
H 	H 	0.72704 0.16319 0.01251 0.10200
C 	C 	0.78136 0.23266 0.85257 0.77500
F 	F 	0.72999 0.08908 0.05039 -0.40400
F 	F 	0.81858 0.13129 0.04147 -0.42200
F 	F 	0.76251 0.04873 0.00064 -0.42300
F 	F 	0.81535 0.29268 0.85796 -0.40600
F 	F 	0.73029 0.21793 0.84678 -0.41300
F 	F 	0.79814 0.21631 0.81084 -0.40700
C 	C 	0.45241 0.30539 0.04799 0.07900
C 	C 	0.46244 0.26859 0.07088 0.00200
C 	C 	0.41911 0.21432 0.08995 -0.06600
C 	C 	0.36719 0.19286 0.07733 0.01300
C 	C 	0.35794 0.22687 0.04930 0.08700
C 	C 	0.39994 0.28565 0.03851 -0.12700
C 	C 	0.38969 0.32584 0.01361 0.79400
H 	H 	0.48573 0.34780 0.03477 0.09200
H 	H 	0.33445 0.14855 0.08699 0.09600
C 	C 	0.42851 0.17711 0.12034 0.77500
F 	F 	0.43096 0.38403 0.01910 -0.40900
F 	F 	0.34302 0.31889 0.03321 -0.42300
F 	F 	0.38528 0.31288 0.96479 -0.42900
F 	F 	0.46827 0.21198 0.15153 -0.41200
F 	F 	0.44370 0.14675 0.09041 -0.40900
F 	F 	0.38261 0.13725 0.14797 -0.41200
F 	F 	0.82295 0.32887 0.51212 -0.41300
H 	H 	0.83863 0.18548 0.86282 0.10000
S 	S 	0.91266 0.99209 0.96971 0.05700
C 	C 	0.93361 0.89402 0.98470 -0.05100
H 	H 	0.89185 0.87760 0.99197 0.07100
C 	C 	0.84703 0.12745 0.93200 0.03000
C 	C 	0.89557 0.16002 0.95429 0.00600
C 	C 	0.91018 0.08310 0.93567 0.04100
C 	C 	0.86309 0.05218 0.91103 -0.02100
H 	H 	0.90814 0.20164 0.97125 0.08900
C 	C 	0.91917 0.79348 0.97638 0.03400
C 	C 	0.94228 0.76372 0.98801 -0.01700
C 	C 	0.91105 0.70265 0.99151 -0.00800
H 	H 	0.92929 0.68017 0.00034 0.08800
S 	S 	0.92149 0.99973 0.44164 0.05800
C 	C 	0.93260 0.89443 0.47779 -0.05100
H 	H 	0.90737 0.87884 0.44760 0.08200
C 	C 	0.85844 0.14767 0.43542 0.03600
C 	C 	0.91175 0.17739 0.41670 0.00300
C 	C 	0.91622 0.09687 0.44072 0.03800
C 	C 	0.86288 0.06727 0.45969 -0.02000
H 	H 	0.93107 0.22040 0.40071 0.09200
C 	C 	0.91292 0.79655 0.50127 0.03600
C 	C 	0.93446 0.76480 0.48469 -0.02000
C 	C 	0.90212 0.70356 0.48441 0.00300
H 	H 	0.91895 0.67931 0.47124 0.08700
H 	H 	0.85907 0.21679 0.50581 0.10100
F 	F 	0.85107 0.28511 0.55397 -0.40300
F 	F 	0.87108 0.63475 0.89162 -0.42500
S 	S 	0.01893 0.90090 0.96583 0.04600
C 	C 	0.95205 0.85827 0.97243 0.01200
C 	C 	0.96930 0.00033 0.98235 -0.01400
C 	C 	0.97577 0.95425 0.98684 0.04500
C 	C 	0.93967 0.05632 0.94235 0.00500
C 	C 	0.92686 0.13774 0.95650 -0.02000
H 	H 	0.96314 0.16207 0.97559 0.07500
H 	H 	0.98420 0.78773 0.99486 0.07000
C 	C 	0.96659 0.99945 0.47164 -0.02600
C 	C 	0.95620 0.95140 0.49777 0.04500
C 	C 	0.94754 0.07161 0.44513 0.00800
C 	C 	0.94660 0.86087 0.50024 0.00900
C 	C 	0.94043 0.15195 0.41908 -0.02100
H 	H 	0.98160 0.17528 0.40453 0.07700
H 	H 	0.97609 0.78755 0.47166 0.07600
C 	C 	0.99535 0.08731 0.94282 -0.03900
C 	C 	0.98692 0.96117 0.53685 -0.02700
C 	C 	0.99245 0.09768 0.47254 -0.04000
S 	S 	0.98618 0.90122 0.54448 0.04500
