data_crystal

_cell_length_a 27.76571
_cell_length_b 28.01069
_cell_length_c 26.59880
_cell_angle_alpha 95.53278
_cell_angle_beta  95.53430
_cell_angle_gamma 125.64137

_symmetry_space_group_name_	'P 1'
_symmetry_space_group_name_H-M	'P 1'

loop_
_symmetry_equiv_pos_as_xyz
  x,y,z

loop_
_atom_site_label
_atom_site_type_symbol
_atom_site_fract_x
_atom_site_fract_y
_atom_site_fract_z
_atom_site_charge
N 	N 	0.03321 0.06521 0.98996 -0.13700
C 	C 	0.05851 0.03631 0.98268 0.13200
N 	N 	0.99932 0.02913 0.43564 -0.14200
C 	C 	0.02825 0.00376 0.44173 0.13300
Cu	Cu	0.64506 0.25268 0.00306 0.92800
Cu	Cu	0.69527 0.25103 0.89644 0.87300
Cu	Cu	0.68313 0.34629 0.93438 0.90100
Cu	Cu	0.64507 0.36426 0.03219 0.89600
C 	C 	0.66172 0.30198 0.10860 0.30600
O 	O 	0.55653 0.21763 0.99889 -0.35800
C 	C 	0.66687 0.30267 0.82320 0.30800
O 	O 	0.69420 0.34564 0.00644 -0.64100
O 	O 	0.64007 0.25809 0.92923 -0.63800
O 	O 	0.68251 0.20973 0.00382 -0.37600
O 	O 	0.75050 0.26922 0.95607 -0.44000
O 	O 	0.63337 0.32428 0.09280 -0.38400
O 	O 	0.72889 0.43250 0.94476 -0.37900
C 	C 	0.72300 0.46532 0.97900 0.31500
C 	C 	0.53394 0.24293 0.97813 0.30300
O 	O 	0.57012 0.29807 0.97103 -0.38900
O 	O 	0.68029 0.44094 0.00686 -0.39700
O 	O 	0.66241 0.26325 0.07666 -0.35900
C 	C 	0.73375 0.23182 0.98800 0.31300
O 	O 	0.68653 0.34827 0.86057 -0.38400
O 	O 	0.65954 0.25382 0.83299 -0.41800
H 	H 	0.73687 0.37142 0.02441 0.16900
H 	H 	0.59867 0.23383 0.90860 0.17700
Cu	Cu	0.73039 0.33471 0.43256 0.92800
Cu	Cu	0.73019 0.28367 0.53879 0.87300
Cu	Cu	0.63444 0.29557 0.49963 0.89800
Cu	Cu	0.61808 0.33438 0.40208 0.89700
C 	C 	0.68634 0.32429 0.32651 0.31000
O 	O 	0.76562 0.42267 0.43744 -0.36000
C 	C 	0.67691 0.31129 0.61107 0.30400
O 	O 	0.63655 0.28551 0.42776 -0.63900
O 	O 	0.72357 0.33868 0.50604 -0.64000
O 	O 	0.77340 0.29708 0.43208 -0.37000
O 	O 	0.71225 0.22928 0.47907 -0.44100
O 	O 	0.66107 0.34943 0.34269 -0.38400
O 	O 	0.54741 0.24978 0.48812 -0.38000
C 	C 	0.51456 0.25527 0.45323 0.30900
C 	C 	0.73921 0.44449 0.45748 0.30100
O 	O 	0.68350 0.40796 0.46421 -0.39200
O 	O 	0.53944 0.29787 0.42562 -0.39200
O 	O 	0.72085 0.31839 0.35910 -0.35800
C 	C 	0.75044 0.24596 0.44756 0.30900
O 	O 	0.63121 0.29146 0.57324 -0.38500
O 	O 	0.72641 0.31857 0.60199 -0.40800
H 	H 	0.61092 0.24338 0.40940 0.17000
H 	H 	0.74761 0.37955 0.52694 0.17700
C 	C 	0.66333 0.31065 0.76934 -0.10700
C 	C 	0.71254 0.36125 0.75497 -0.06100
C 	C 	0.71523 0.36384 0.70291 0.16700
C 	C 	0.66844 0.31551 0.66474 -0.10700
C 	C 	0.61672 0.26751 0.67909 -0.06200
C 	C 	0.61429 0.26460 0.73117 0.16700
H 	H 	0.75006 0.39738 0.78413 0.06300
O 	O 	0.76487 0.41239 0.68944 -0.28700
H 	H 	0.57972 0.23089 0.64991 0.06200
O 	O 	0.56377 0.21705 0.74468 -0.28700
H 	H 	0.57017 0.18568 0.74440 0.14600
H 	H 	0.75491 0.44078 0.68589 0.14600
C 	C 	0.67811 0.30797 0.16436 -0.10200
C 	C 	0.65257 0.25670 0.18661 -0.05500
C 	C 	0.65858 0.26194 0.24021 0.16700
C 	C 	0.68996 0.31869 0.27176 -0.10300
C 	C 	0.71926 0.37004 0.24972 -0.05500
C 	C 	0.71322 0.36489 0.19626 0.16600
H 	H 	0.62582 0.21269 0.16235 0.06900
O 	O 	0.63047 0.21140 0.26139 -0.29500
H 	H 	0.74495 0.41398 0.27400 0.06500
O 	O 	0.74199 0.41555 0.17520 -0.29600
H 	H 	0.71367 0.42626 0.17136 0.14100
H 	H 	0.66077 0.20352 0.26824 0.15400
C 	C 	0.80738 0.61947 0.46165 -0.00800
C 	C 	0.78001 0.63231 0.42369 -0.02800
C 	C 	0.78538 0.55845 0.46175 0.04800
C 	C 	0.76549 0.50681 0.46060 -0.10800
H 	H 	0.87765 0.65651 0.52861 0.04100
H 	H 	0.74186 0.59647 0.39483 0.04000
C 	C 	0.80024 0.05431 0.42717 -0.04300
C 	C 	0.77691 0.08714 0.42747 -0.02900
C 	C 	0.81328 0.14715 0.42179 -0.01100
C 	C 	0.79172 0.18292 0.42855 0.04800
C 	C 	0.77328 0.21228 0.43604 -0.11800
H 	H 	0.77223 0.00835 0.43265 0.04400
H 	H 	0.73110 0.06637 0.43335 0.03800
C 	C 	0.20948 0.09976 0.44614 0.01700
C 	C 	0.24899 0.12180 0.49348 -0.04200
C 	C 	0.31095 0.15258 0.49503 -0.02800
C 	C 	0.33359 0.16138 0.44924 -0.00800
C 	C 	0.29408 0.13943 0.40192 -0.02800
C 	C 	0.23213 0.10865 0.40037 -0.04300
C 	C 	0.14557 0.06665 0.44447 0.00600
C 	C 	0.09201 0.03835 0.44315 -0.03700
C 	C 	0.39743 0.19389 0.45086 0.04900
C 	C 	0.45092 0.22157 0.45206 -0.10500
H 	H 	0.23175 0.11495 0.52901 0.04600
H 	H 	0.34127 0.16958 0.53176 0.04300
H 	H 	0.31132 0.14622 0.36638 0.04000
H 	H 	0.20181 0.09160 0.36363 0.04600
C 	C 	0.81408 0.64385 0.98074 -0.00300
C 	C 	0.78282 0.58085 0.97957 0.05000
C 	C 	0.75600 0.52808 0.97903 -0.10400
H 	H 	0.80040 0.63499 0.89802 0.04300
C 	C 	0.82931 0.16514 0.01282 -0.00800
C 	C 	0.80024 0.10541 0.01812 -0.03000
C 	C 	0.83161 0.08045 0.01784 -0.04300
C 	C 	0.79513 0.18854 0.00628 0.04100
C 	C 	0.76679 0.20817 0.99903 -0.11000
H 	H 	0.75302 0.07790 0.02115 0.04000
H 	H 	0.80847 0.03387 0.02087 0.04400
C 	C 	0.23446 0.12156 0.96904 0.01600
C 	C 	0.24927 0.08975 0.93870 -0.04200
C 	C 	0.30977 0.11408 0.93835 -0.02700
C 	C 	0.35567 0.17030 0.96832 -0.00900
C 	C 	0.34083 0.20271 0.99770 -0.02300
C 	C 	0.28035 0.17837 0.99810 -0.03800
C 	C 	0.17257 0.09383 0.97354 0.00700
C 	C 	0.12059 0.06884 0.97764 -0.03600
C 	C 	0.41798 0.19405 0.97031 0.05000
C 	C 	0.47062 0.21529 0.97316 -0.10700
H 	H 	0.21401 0.04575 0.91619 0.04600
H 	H 	0.32090 0.08886 0.91539 0.04100
H 	H 	0.37612 0.24633 0.02082 0.03500
H 	H 	0.26926 0.20317 0.02171 0.04100
C 	C 	0.97465 0.03403 0.99566 0.13400
C 	C 	0.86001 0.08130 0.42114 0.01500
C 	C 	0.87250 0.17361 0.41428 -0.02800
C 	C 	0.89580 0.14075 0.41391 -0.04300
C 	C 	0.88582 0.04932 0.42530 0.00700
C 	C 	0.90898 0.02406 0.42933 -0.04300
H 	H 	0.90093 0.21996 0.40992 0.04100
H 	H 	0.94200 0.16189 0.40907 0.04600
C 	C 	0.89216 0.11510 0.01221 0.01500
C 	C 	0.92177 0.17536 0.00856 -0.04300
C 	C 	0.89042 0.20034 0.00888 -0.03000
C 	C 	0.92265 0.08782 0.00705 0.00600
C 	C 	0.94712 0.06397 0.00209 -0.04300
H 	H 	0.96862 0.20248 0.00437 0.04400
H 	H 	0.91320 0.24655 0.00474 0.03900
C 	C 	0.85644 0.66609 0.49900 -0.02700
C 	C 	0.80241 0.69161 0.42243 -0.04300
H 	H 	0.78173 0.70123 0.39238 0.04600
C 	C 	0.81909 0.66545 0.93469 -0.02800
C 	C 	0.83810 0.68350 0.02799 -0.03200
H 	H 	0.83416 0.66704 0.06374 0.04100
C 	C 	0.87883 0.72541 0.49777 -0.04200
C 	C 	0.84824 0.72654 0.93589 -0.04300
C 	C 	0.85221 0.73834 0.45918 0.01800
H 	H 	0.85228 0.74302 0.90015 0.04700
C 	C 	0.86723 0.74457 0.02920 -0.04700
C 	C 	0.93899 0.99639 0.43455 0.14100
N 	N 	0.02538 0.97651 0.98114 -0.13600
N 	N 	0.99696 0.94570 0.44676 -0.13800
C 	C 	0.96701 0.94543 0.98682 0.13400
N 	N 	0.94160 0.97414 0.99408 -0.13700
C 	C 	0.93671 0.91281 0.44572 0.13400
N 	N 	0.90755 0.93810 0.43963 -0.14000
C 	C 	0.87935 0.79961 0.45463 0.00600
C 	C 	0.90407 0.85114 0.45059 -0.03600
H 	H 	0.91749 0.76131 0.52621 0.04600
C 	C 	0.87239 0.76621 0.98316 0.02300
C 	C 	0.90460 0.82934 0.98443 0.00600
C 	C 	0.93246 0.88231 0.98555 -0.03500
H 	H 	0.88601 0.77504 0.06587 0.04600
