data_crystal

_cell_length_a 17.26558
_cell_length_b 16.01347
_cell_length_c 41.66044
_cell_angle_alpha 90.84887
_cell_angle_beta  90.88788
_cell_angle_gamma 112.47511

_symmetry_space_group_name_	'P 1'
_symmetry_space_group_name_H-M	'P 1'

loop_
_symmetry_equiv_pos_as_xyz
  x,y,z

loop_
_atom_site_label
_atom_site_type_symbol
_atom_site_fract_x
_atom_site_fract_y
_atom_site_fract_z
_atom_site_charge
N 	N 	0.05388 0.68786 0.00513 -0.01600
C 	C 	0.93014 0.44172 0.01747 -0.06500
C 	C 	0.98476 0.53137 0.02347 0.03000
H 	H 	0.92233 0.39123 0.03553 0.09300
H 	H 	0.14681 0.56242 0.03590 0.09700
O 	O 	0.04193 0.73671 0.02828 -0.06400
C 	C 	0.50817 0.16269 0.03564 -0.07000
C 	C 	0.50075 0.07408 0.04125 0.03800
C 	C 	0.51184 0.02097 0.01574 0.05600
C 	C 	0.52440 0.19846 0.00486 0.13000
N 	N 	0.50455 0.93013 0.02099 -0.01200
O 	O 	0.59828 0.35625 0.00669 -0.09100
O 	O 	0.55533 0.91435 0.04116 -0.06300
C 	C 	0.50028 0.53947 0.03778 0.03300
C 	C 	0.42652 0.50271 0.01862 0.06800
C 	C 	0.57835 0.56022 0.02399 -0.06200
N 	N 	0.34610 0.48394 0.03226 -0.01400
H 	H 	0.63511 0.59107 0.03858 0.09700
O 	O 	0.29457 0.51588 0.01917 -0.07700
O 	O 	0.45043 0.86372 0.00420 -0.07600
C 	C 	0.02925 0.55663 0.05475 0.02900
C 	C 	0.11393 0.56893 0.05716 -0.06300
H 	H 	0.50028 0.20390 0.05523 0.09900
H 	H 	0.48934 0.69362 0.05761 0.10000
O 	O 	0.32177 0.42904 0.05609 -0.06800
O 	O 	0.87590 0.60394 0.06232 -0.06600
H 	H 	0.35053 0.96085 0.06253 0.09100
O 	O 	0.29691 0.66713 0.07203 -0.07900
C 	C 	0.48122 0.03748 0.07406 0.01300
O 	O 	0.67082 0.10188 0.07173 -0.06600
C 	C 	0.49744 0.56783 0.07116 0.03100
N 	N 	0.52877 0.28812 0.99994 -0.02900
N 	N 	0.89971 0.55204 0.08032 -0.01700
C 	C 	0.49591 0.65324 0.07736 -0.06900
O 	O 	0.46108 0.36815 0.07563 -0.07300
C 	C 	0.98641 0.56483 0.08240 0.06800
C 	C 	0.39871 0.98115 0.08130 -0.04300
C 	C 	0.15627 0.58894 0.08693 0.12200
N 	N 	0.24349 0.60386 0.08879 -0.02700
N 	N 	0.52137 0.43424 0.09022 -0.01600
N 	N 	0.62680 0.12612 0.09221 -0.01800
C 	C 	0.51280 0.51850 0.09649 0.06400
O 	O 	0.84541 0.49225 0.09796 -0.06900
C 	C 	0.54291 0.06635 0.09883 0.07800
O 	O 	0.25612 0.82008 0.10291 -0.08900
O 	O 	0.45707 0.80577 0.10247 -0.09400
O 	O 	0.58769 0.42209 0.10056 -0.07100
O 	O 	0.26769 0.54702 0.10376 -0.14800
O 	O 	0.66089 0.20243 0.10810 -0.07000
C 	C 	0.50767 0.68909 0.10861 0.11900
C 	C 	0.02882 0.58514 0.11218 0.00500
C 	C 	0.11346 0.59717 0.11460 -0.07900
C 	C 	0.37773 0.95191 0.11285 0.11000
N 	N 	0.51471 0.78020 0.11396 -0.02800
N 	N 	0.29329 0.89434 0.11967 -0.03000
O 	O 	0.58505 0.84066 0.12494 -0.06300
H 	H 	0.99599 0.59198 0.13341 0.08100
C 	C 	0.52216 0.03661 0.13023 -0.01400
C 	C 	0.52100 0.55274 0.12797 -0.00000
C 	C 	0.44040 0.97770 0.13734 -0.05600
O 	O 	0.25042 0.92150 0.13976 -0.09400
C 	C 	0.51398 0.63574 0.13442 -0.09700
C 	C 	0.15784 0.62197 0.14569 0.30000
H 	H 	0.35186 0.74743 0.15185 0.19000
H 	H 	0.57054 0.05698 0.14894 0.08200
H 	H 	0.52814 0.51244 0.14763 0.07700
O 	O 	0.16308 0.69706 0.16069 -0.34100
O 	O 	0.18260 0.56342 0.16028 -0.37300
Ni	Ni	0.30592 0.58944 0.17022 1.09400
C 	C 	0.49002 0.65300 0.16666 0.30300
C 	C 	0.42542 0.93146 0.16849 0.28200
O 	O 	0.34133 0.72059 0.17337 -0.70000
O 	O 	0.51821 0.73555 0.17860 -0.33900
O 	O 	0.42473 0.59135 0.17943 -0.37800
O 	O 	0.47679 0.89253 0.17794 -0.34900
O 	O 	0.37465 0.94634 0.18921 -0.39500
Ni	Ni	0.25226 0.74997 0.19590 1.10700
O 	O 	0.26752 0.40492 0.19881 -0.11200
H 	H 	0.19111 0.03236 0.20256 0.07200
O 	O 	0.06551 0.15434 0.20272 -0.08200
Ni	Ni	0.43978 0.77716 0.20498 1.10400
O 	O 	0.20169 0.20713 0.21690 -0.07600
O 	O 	0.17609 0.81000 0.21486 -0.33500
N 	N 	0.12554 0.14940 0.22083 -0.02200
O 	O 	0.29008 0.58304 0.21831 -0.39600
O 	O 	0.18824 0.63745 0.22284 -0.35300
O 	O 	0.90001 0.99134 0.21731 -0.07600
C 	C 	0.15068 0.01002 0.22299 -0.01600
O 	O 	0.34855 0.79623 0.22968 -0.69700
C 	C 	0.21782 0.57505 0.22941 0.31500
C 	C 	0.20211 0.88779 0.23088 0.31000
N 	N 	0.26367 0.41666 0.22962 -0.01900
H 	H 	0.68914 0.87701 0.22837 0.08400
C 	C 	0.11354 0.06628 0.23615 0.07600
O 	O 	0.51562 0.96976 0.23361 -0.37700
O 	O 	0.53351 0.83665 0.23772 -0.38100
Ni	Ni	0.38796 0.92732 0.23706 1.07700
C 	C 	0.14073 0.92841 0.23728 -0.06800
O 	O 	0.26803 0.91162 0.25029 -0.39000
C 	C 	0.55991 0.92364 0.24386 0.30700
H 	H 	0.97082 0.14358 0.24580 0.08600
C 	C 	0.16158 0.48672 0.24224 -0.08700
C 	C 	0.18667 0.41215 0.24323 0.12900
O 	O 	0.32571 0.41958 0.24832 -0.06200
C 	C 	0.70814 0.93699 0.24375 -0.00800
N 	N 	0.85280 0.94796 0.24048 -0.02000
O 	O 	0.84674 0.86625 0.24646 -0.07000
C 	C 	0.08099 0.47534 0.25258 -0.00100
H 	H 	0.05969 0.53066 0.25108 0.08500
H 	H 	0.33682 0.76230 0.24990 0.17800
C 	C 	0.13522 0.33213 0.25717 -0.07500
H 	H 	0.16044 0.28175 0.26271 0.09600
O 	O 	0.88024 0.30850 0.26053 -0.08400
C 	C 	0.64886 0.97241 0.25326 -0.06900
C 	C 	0.79235 0.97985 0.25323 0.08000
O 	O 	0.03565 0.73707 0.25885 -0.06200
C 	C 	0.05535 0.32064 0.26745 0.02400
C 	C 	0.02674 0.39167 0.26414 0.05900
C 	C 	0.06638 0.04047 0.26454 0.01500
C 	C 	0.08382 0.89665 0.26239 0.12600
C 	C 	0.04493 0.95168 0.27516 -0.05600
C 	C 	0.98044 0.14520 0.27209 -0.04700
N 	N 	0.94247 0.37875 0.27197 -0.01600
C 	C 	0.67575 0.05501 0.27083 0.10800
C 	C 	0.81740 0.05752 0.27336 0.00800
O 	O 	0.62792 0.17506 0.27330 -0.07700
N 	N 	0.06918 0.81079 0.27622 -0.02400
C 	C 	0.04472 0.10698 0.28462 0.02200
C 	C 	0.76059 0.09898 0.27948 -0.06300
N 	N 	0.61693 0.09285 0.28087 -0.02000
O 	O 	0.24488 0.17619 0.28518 -0.09600
C 	C 	0.00944 0.24098 0.28711 0.01600
C 	C 	0.90068 0.09184 0.28997 0.02300
O 	O 	0.92747 0.44238 0.28713 -0.06800
H 	H 	0.78141 0.16308 0.29248 0.09000
H 	H 	0.00212 0.92733 0.29467 0.09500
O 	O 	0.55724 0.04852 0.30010 -0.13100
O 	O 	0.32050 0.55514 0.30198 -0.09500
O 	O 	0.08355 0.80585 0.30674 -0.07800
C 	C 	0.05601 0.11337 0.31773 -0.00100
C 	C 	0.01951 0.24502 0.31996 0.01000
O 	O 	0.85327 0.88736 0.31250 -0.08500
N 	N 	0.29507 0.48566 0.32057 -0.02300
H 	H 	0.18803 0.31468 0.32108 0.09200
N 	N 	0.24021 0.17586 0.31626 -0.02100
C 	C 	0.90989 0.09465 0.32275 0.00800
C 	C 	0.16218 0.36082 0.33097 -0.08100
C 	C 	0.21168 0.45325 0.33270 0.12000
O 	O 	0.34522 0.44501 0.32777 -0.06800
C 	C 	0.19209 0.09400 0.33186 0.05000
O 	O 	0.29372 0.24255 0.33313 -0.08400
C 	C 	0.07610 0.32994 0.33652 0.02200
C 	C 	0.10483 0.06847 0.33576 0.03000
C 	C 	0.99911 0.15270 0.33561 -0.03700
C 	C 	0.83661 0.05710 0.34422 0.01000
N 	N 	0.84182 0.90507 0.34213 -0.02300
C 	C 	0.17925 0.51403 0.34617 -0.09600
C 	C 	0.23396 0.04478 0.34692 -0.00800
H 	H 	0.30042 0.06328 0.34322 0.03900
C 	C 	0.04297 0.38979 0.35013 0.06300
C 	C 	0.79585 0.11313 0.35477 -0.07000
C 	C 	0.79837 0.96305 0.34898 0.07000
H 	H 	0.82457 0.18523 0.35124 0.09500
C 	C 	0.09394 0.48204 0.35404 0.00000
O 	O 	0.90651 0.38952 0.35451 -0.06300
N 	N 	0.96092 0.35570 0.36319 -0.01800
C 	C 	0.06332 0.00057 0.35753 -0.10500
O 	O 	0.21233 0.66576 0.36705 -0.35500
H 	H 	0.37296 0.79373 0.36271 0.16200
C 	C 	0.23821 0.60027 0.36053 0.31800
O 	O 	0.52699 0.95490 0.36312 -0.38900
H 	H 	0.00633 0.15591 0.36221 0.06400
C 	C 	0.71717 0.92572 0.36089 -0.00600
H 	H 	0.68718 0.85307 0.36327 0.07400
O 	O 	0.66667 0.19345 0.35709 -0.07300
H 	H 	0.06870 0.52720 0.36540 0.08900
C 	C 	0.19115 0.97367 0.36729 -0.08300
H 	H 	0.99858 0.98608 0.36287 0.10500
C 	C 	0.10557 0.95256 0.37302 0.15000
O 	O 	0.30433 0.59960 0.37545 -0.40200
C 	C 	0.67370 0.98089 0.36888 -0.07000
C 	C 	0.71429 0.07555 0.36678 0.11500
O 	O 	0.85296 0.85533 0.36473 -0.07400
O 	O 	0.00161 0.81038 0.38515 -0.04800
O 	O 	0.37324 0.82029 0.38434 -0.69700
O 	O 	0.20178 0.83312 0.38291 -0.33600
Ni	Ni	0.41797 0.95224 0.38181 1.07800
C 	C 	0.23651 0.92201 0.38252 0.29500
C 	C 	0.58606 0.93857 0.37943 0.31200
N 	N 	0.67305 0.13373 0.37666 -0.02500
O 	O 	0.94472 0.30024 0.38695 -0.08800
N 	N 	0.06189 0.88426 0.39528 -0.02600
O 	O 	0.30916 0.96540 0.39723 -0.38600
O 	O 	0.56766 0.87046 0.39955 -0.36000
Ni	Ni	0.25915 0.75714 0.40531 1.10800
O 	O 	0.64855 0.13245 0.40608 -0.08600
O 	O 	0.95858 0.54592 0.41787 -0.06100
Ni	Ni	0.45032 0.78618 0.41377 1.10300
O 	O 	0.41978 0.58752 0.42131 -0.37000
N 	N 	0.96970 0.59198 0.44472 -0.02300
O 	O 	0.17229 0.55326 0.42436 -0.38000
O 	O 	0.47282 0.99451 0.42632 -0.36800
O 	O 	0.33367 0.70990 0.43066 -0.69000
O 	O 	0.15150 0.68639 0.42849 -0.33000
O 	O 	0.50761 0.72076 0.44199 -0.34400
Ni	Ni	0.29798 0.57986 0.42296 1.09300
C 	C 	0.14146 0.60622 0.43977 0.29500
O 	O 	0.08154 0.89648 0.42574 -0.05900
O 	O 	0.37249 0.40830 0.44237 -0.08100
H 	H 	0.33003 0.72154 0.45386 0.18100
C 	C 	0.45004 0.94438 0.45175 0.30100
C 	C 	0.47203 0.63258 0.44421 0.29800
O 	O 	0.45974 0.86750 0.45284 -0.36300
O 	O 	0.93816 0.65348 0.44785 -0.05500
N 	N 	0.34118 0.45494 0.45998 -0.04200
O 	O 	0.26085 0.43574 0.45880 -0.16800
C 	C 	0.01088 0.57030 0.47154 0.13500
O 	O 	0.26441 0.86755 0.46653 -0.12800
C 	C 	0.09344 0.57400 0.46907 -0.08500
C 	C 	0.43978 0.98537 0.48235 -0.06500
H 	H 	0.54921 0.10797 0.47717 0.08400
C 	C 	0.46474 0.59189 0.47634 -0.09400
C 	C 	0.39236 0.51602 0.48434 0.09000
C 	C 	0.50301 0.06604 0.49357 -0.01300
N 	N 	0.30566 0.85841 0.49175 -0.02500
C 	C 	0.96802 0.54330 0.50029 -0.06700
C 	C 	0.13173 0.54944 0.49524 0.00200
H 	H 	0.19559 0.55322 0.49352 0.04600
H 	H 	0.90428 0.53981 0.50206 0.09200
C 	C 	0.52439 0.63639 0.50055 0.00200
H 	H 	0.58188 0.69177 0.49457 0.08100
C 	C 	0.37806 0.93318 0.50360 0.11500
O 	O 	0.27739 0.78352 0.50751 -0.10000
C 	C 	0.08920 0.52324 0.52408 0.06500
C 	C 	0.37461 0.49567 0.51651 -0.06800
H 	H 	0.31723 0.44020 0.52256 0.09000
C 	C 	0.00674 0.51992 0.52663 0.03000
C 	C 	0.38805 0.95373 0.53653 -0.04700
C 	C 	0.50970 0.09027 0.52631 0.07000
N 	N 	0.57358 0.17372 0.53729 -0.01800
O 	O 	0.65109 0.19332 0.52943 -0.07800
C 	C 	0.51053 0.60910 0.53248 0.06300
C 	C 	0.45405 0.03156 0.54817 0.01700
H 	H 	0.34402 0.90947 0.55309 0.09700
O 	O 	0.55322 0.23365 0.55246 -0.08000
C 	C 	0.96011 0.49126 0.55671 0.03100
N 	N 	0.13045 0.50149 0.55087 -0.01700
H 	H 	0.94649 0.35203 0.55101 0.09200
O 	O 	0.16181 0.43987 0.54770 -0.08600
C 	C 	0.43360 0.54056 0.54069 0.02800
O 	O 	0.05417 0.69149 0.56766 -0.05900
O 	O 	0.32676 0.11288 0.56389 -0.06900
C 	C 	0.92982 0.39990 0.56509 -0.06700
N 	N 	0.97338 0.64775 0.56843 -0.01600
O 	O 	0.92376 0.69101 0.56460 -0.06900
H 	H 	0.40572 0.37165 0.55955 0.08900
N 	N 	0.57549 0.64932 0.55630 -0.01300
O 	O 	0.60798 0.73669 0.56044 -0.06900
C 	C 	0.93935 0.55342 0.57546 0.06900
O 	O 	0.14245 0.54812 0.57762 -0.06400
C 	C 	0.41067 0.41779 0.57951 -0.07300
C 	C 	0.41916 0.50679 0.57375 0.02700
O 	O 	0.35696 0.65585 0.57505 -0.07400
O 	O 	0.60770 0.59951 0.57156 -0.10800
C 	C 	0.46465 0.05059 0.58327 0.03200
N 	N 	0.32299 0.05399 0.58561 -0.02100
H 	H 	0.58891 0.04816 0.58568 0.09600
O 	O 	0.25039 0.99785 0.59487 -0.05800
C 	C 	0.88341 0.52248 0.60068 -0.00100
C 	C 	0.87464 0.36926 0.59061 0.13200
N 	N 	0.84131 0.27531 0.59786 -0.02400
O 	O 	0.76481 0.22476 0.58913 -0.06600
N 	N 	0.41448 0.65022 0.59444 -0.01400
C 	C 	0.39823 0.05615 0.60128 0.06600
C 	C 	0.53919 0.05694 0.59912 -0.06400
C 	C 	0.84950 0.43046 0.60794 -0.07600
H 	H 	0.86411 0.56968 0.61395 0.07800
O 	O 	0.88955 0.23887 0.61079 -0.06200
C 	C 	0.41989 0.56435 0.59982 0.06800
O 	O 	0.46632 0.27378 0.60718 -0.12200
O 	O 	0.70485 0.39505 0.61923 -0.38200
C 	C 	0.41340 0.38952 0.61086 0.10900
N 	N 	0.40684 0.29919 0.61624 -0.02600
O 	O 	0.46380 0.72181 0.61036 -0.07100
C 	C 	0.77829 0.39758 0.62966 0.31300
C 	C 	0.55060 0.07672 0.63218 0.11600
C 	C 	0.42717 0.53742 0.63124 -0.00000
O 	O 	0.33912 0.24085 0.62834 -0.06900
Ni	Ni	0.63467 0.44587 0.64527 1.08800
O 	O 	0.78720 0.36325 0.65775 -0.32900
H 	H 	0.58170 0.28725 0.65476 0.17900
C 	C 	0.40746 0.06867 0.63460 0.00100
C 	C 	0.48553 0.08700 0.64987 -0.08400
H 	H 	0.35589 0.07233 0.64828 0.08200
N 	N 	0.62776 0.08517 0.64767 -0.01900
O 	O 	0.64314 0.01329 0.65331 -0.07900
O 	O 	0.68583 0.16477 0.65319 -0.12600
C 	C 	0.42966 0.45219 0.63667 -0.09700
H 	H 	0.43505 0.58426 0.65124 0.07500
O 	O 	0.94945 0.70638 0.65856 -0.06600
O 	O 	0.60190 0.33779 0.67062 -0.70000
O 	O 	0.43910 0.36108 0.68040 -0.34200
O 	O 	0.55192 0.48718 0.66993 -0.40400
O 	O 	0.73986 0.53178 0.66936 -0.37900
C 	C 	0.47138 0.43885 0.66594 0.29800
C 	C 	0.50272 0.13544 0.68131 0.28600
N 	N 	0.91933 0.64973 0.68156 -0.02600
O 	O 	0.93441 0.57616 0.68243 -0.06200
Ni	Ni	0.69987 0.32881 0.69396 1.10800
O 	O 	0.46044 0.18649 0.68865 -0.36300
C 	C 	0.75420 0.53039 0.70030 0.31000
O 	O 	0.83770 0.90117 0.70875 -0.08400
O 	O 	0.10283 0.94118 0.69773 -0.07700
C 	C 	0.87960 0.67407 0.70800 0.14400
C 	C 	0.97766 0.94790 0.76299 -0.04500
H 	H 	0.97959 0.95430 0.73652 0.08300
C 	C 	0.97739 0.93423 0.82659 -0.04800
H 	H 	0.97971 0.93399 0.85312 0.07000
O 	O 	0.11494 0.72410 0.98548 -0.07300
Ni	Ni	0.71042 0.32986 0.89527 1.10300
O 	O 	0.59512 0.27648 0.87242 -0.69900
Ni	Ni	0.52656 0.32135 0.90198 1.10200
O 	O 	0.76192 0.25599 0.86920 -0.34600
O 	O 	0.65149 0.12285 0.85924 -0.40400
O 	O 	0.76245 0.42891 0.86124 -0.35100
Ni	Ni	0.54661 0.14365 0.87583 1.06500
O 	O 	0.81226 0.52366 0.92483 -0.36600
O 	O 	0.57993 0.14890 0.92368 -0.40700
O 	O 	0.41380 0.25861 0.87884 -0.35200
O 	O 	0.64251 0.37814 0.92378 -0.69700
O 	O 	0.81960 0.38473 0.92100 -0.33900
O 	O 	0.47351 0.38816 0.93140 -0.33400
O 	O 	0.57497 0.52286 0.92080 -0.35900
Ni	Ni	0.68968 0.51045 0.92278 1.10900
H 	H 	0.59482 0.29691 0.85012 0.16000
H 	H 	0.64334 0.35804 0.94604 0.19100
C 	C 	0.54076 0.17835 0.94539 0.29200
O 	O 	0.68354 0.50708 0.87449 -0.39300
C 	C 	0.73098 0.16742 0.86765 0.30200
C 	C 	0.38515 0.17068 0.87421 0.29900
C 	C 	0.74669 0.50277 0.85930 0.31200
C 	C 	0.51504 0.47347 0.93920 0.30500
C 	C 	0.83634 0.46146 0.93681 0.30100
O 	O 	0.49335 0.22209 0.93623 -0.34300
O 	O 	0.42610 0.12410 0.88677 -0.39800
Ni	Ni	0.51735 0.31699 0.70643 1.10300
O 	O 	0.44360 0.14687 0.74893 -0.40700
O 	O 	0.61321 0.30458 0.73013 -0.69400
O 	O 	0.43470 0.28498 0.74273 -0.37300
O 	O 	0.77926 0.28637 0.72026 -0.33000
O 	O 	0.69272 0.19101 0.75638 -0.38900
Ni	Ni	0.57101 0.18220 0.74716 1.07000
H 	H 	0.63279 0.35024 0.74783 0.16500
O 	O 	0.55864 0.12748 0.70185 -0.39100
C 	C 	0.75237 0.20860 0.73519 0.30600
C 	C 	0.40149 0.20058 0.75184 0.30900
O 	O 	0.75362 0.45641 0.71385 -0.36300
C 	C 	0.92270 0.98971 0.77994 0.02200
C 	C 	0.94322 0.84968 0.77507 0.02400
C 	C 	0.06384 0.99426 0.78001 0.02200
C 	C 	0.92201 0.98242 0.81295 0.02700
C 	C 	0.94777 0.84224 0.80797 0.02700
C 	C 	0.06310 0.98627 0.81264 0.02300
C 	C 	0.77666 0.06699 0.73037 -0.00700
C 	C 	0.80851 0.15940 0.73826 -0.07800
C 	C 	0.88630 0.19847 0.75494 0.12700
C 	C 	0.92720 0.14306 0.76575 -0.07200
C 	C 	0.88791 0.04873 0.76238 0.01100
C 	C 	0.81697 0.01162 0.74154 0.06100
N 	N 	0.79064 0.92102 0.72908 -0.01100
H 	H 	0.71933 0.03758 0.71604 0.07100
H 	H 	0.98811 0.17321 0.77761 0.07300
N 	N 	0.92285 0.29372 0.76165 -0.02100
O 	O 	0.71232 0.86721 0.73108 -0.07500
O 	O 	0.88579 0.33097 0.78076 -0.06600
O 	O 	0.99693 0.34153 0.75117 -0.06200
C 	C 	0.17560 0.14830 0.77431 -0.06800
C 	C 	0.13811 0.05781 0.76334 0.00800
C 	C 	0.18241 0.02387 0.74236 0.06000
C 	C 	0.26769 0.07298 0.73773 -0.00100
C 	C 	0.30928 0.15671 0.75366 -0.08500
C 	C 	0.26212 0.19649 0.77098 0.11700
N 	N 	0.30200 0.28332 0.78644 -0.02200
H 	H 	0.13965 0.17765 0.78835 0.07300
H 	H 	0.30189 0.04546 0.72198 0.07400
N 	N 	0.14058 0.94085 0.72496 -0.01800
O 	O 	0.27409 0.34676 0.78110 -0.07100
O 	O 	0.36054 0.29608 0.80818 -0.10000
O 	O 	0.15266 0.86878 0.73330 -0.06800
C 	C 	0.76086 0.64165 0.74302 0.00300
C 	C 	0.79871 0.61677 0.71720 -0.08900
C 	C 	0.92326 0.75331 0.72583 -0.07100
C 	C 	0.88876 0.77430 0.75352 0.03700
C 	C 	0.80445 0.72097 0.76095 0.05800
N 	N 	0.76388 0.74536 0.78712 -0.01600
H 	H 	0.69740 0.59915 0.74928 0.05300
H 	H 	0.98651 0.79499 0.71946 0.10800
O 	O 	0.76293 0.82593 0.78894 -0.07700
O 	O 	0.71703 0.68328 0.80604 -0.08500
C 	C 	0.99616 0.59658 0.99975 0.06800
C 	C 	0.95021 0.57211 0.97078 0.00300
C 	C 	0.89236 0.48323 0.96536 -0.07800
C 	C 	0.88357 0.41735 0.98869 0.12600
H 	H 	0.95830 0.62273 0.95275 0.08300
N 	N 	0.82540 0.32627 0.98367 -0.02400
O 	O 	0.74601 0.30558 0.98838 -0.10100
O 	O 	0.85265 0.26282 0.97703 -0.07400
C 	C 	0.52896 0.05697 0.98479 0.00300
C 	C 	0.53432 0.14536 0.97896 -0.07800
H 	H 	0.53593 0.01526 0.96521 0.06700
O 	O 	0.45978 0.30177 0.99584 -0.07400
C 	C 	0.43205 0.48495 0.98591 0.01100
C 	C 	0.51059 0.50530 0.97211 -0.08800
C 	C 	0.58426 0.54638 0.99125 0.12400
H 	H 	0.37528 0.45385 0.97136 0.08200
N 	N 	0.66509 0.57808 0.97728 -0.05700
O 	O 	0.69366 0.65713 0.96429 -0.09900
O 	O 	0.71623 0.53817 0.98382 -0.15100
C 	C 	0.75677 0.02591 0.86072 -0.03800
C 	C 	0.78929 0.12060 0.86219 -0.06900
C 	C 	0.87466 0.16843 0.85483 0.11800
C 	C 	0.91961 0.12212 0.84010 -0.06300
C 	C 	0.88167 0.02856 0.83440 -0.01100
C 	C 	0.80508 0.97965 0.84915 0.09800
N 	N 	0.78732 0.89028 0.85987 -0.02200
H 	H 	0.69545 0.98796 0.87023 0.08200
H 	H 	0.98413 0.15863 0.83362 0.06900
N 	N 	0.91801 0.26029 0.86542 -0.02000
O 	O 	0.82631 0.87999 0.88550 -0.08000
O 	O 	0.71687 0.82619 0.85100 -0.06200
O 	O 	0.92486 0.28068 0.89595 -0.06500
O 	O 	0.96007 0.32086 0.84507 -0.06400
C 	C 	0.15546 0.10577 0.85073 -0.06900
C 	C 	0.13987 0.02535 0.83321 -0.00800
C 	C 	0.20183 0.98864 0.83214 0.08500
C 	C 	0.28242 0.03876 0.84433 -0.02600
C 	C 	0.29995 0.12162 0.86050 -0.08100
C 	C 	0.23484 0.15367 0.86477 0.12600
N 	N 	0.24808 0.23272 0.88410 -0.02100
H 	H 	0.10663 0.13223 0.85283 0.07300
H 	H 	0.33089 0.01167 0.84213 0.04800
N 	N 	0.18092 0.89724 0.82162 -0.01900
O 	O 	0.23913 0.30232 0.87142 -0.06700
O 	O 	0.26076 0.23174 0.91493 -0.06600
O 	O 	0.22311 0.87928 0.79879 -0.07500
O 	O 	0.13117 0.83191 0.83868 -0.07600
C 	C 	0.89727 0.74818 0.85664 -0.06800
C 	C 	0.92472 0.75331 0.82517 0.03700
C 	C 	0.91682 0.67094 0.80939 0.05900
C 	C 	0.85773 0.58866 0.82070 0.00500
C 	C 	0.81309 0.58815 0.84873 -0.08600
C 	C 	0.83464 0.66962 0.86710 0.13500
N 	N 	0.79123 0.67420 0.89562 -0.04600
H 	H 	0.92308 0.80503 0.87303 0.09400
H 	H 	0.84728 0.52569 0.80795 0.07600
N 	N 	0.97515 0.66905 0.78536 -0.01800
O 	O 	0.83377 0.70048 0.92247 -0.09100
O 	O 	0.71736 0.67766 0.89302 -0.08900
O 	O 	0.04858 0.73415 0.78414 -0.06200
O 	O 	0.95711 0.59894 0.76618 -0.07000
