data_crystal

_cell_length_a 20.92017
_cell_length_b 21.46436
_cell_length_c 22.90429
_cell_angle_alpha 61.21567
_cell_angle_beta  118.44735
_cell_angle_gamma 133.17450

_symmetry_space_group_name_	'P 1'
_symmetry_space_group_name_H-M	'P 1'

loop_
_symmetry_equiv_pos_as_xyz
  x,y,z

loop_
_atom_site_label
_atom_site_type_symbol
_atom_site_fract_x
_atom_site_fract_y
_atom_site_fract_z
_atom_site_charge
Co	Co	0.03995 0.01618 0.24305 1.19300
Co	Co	0.08911 0.89576 0.06448 1.17200
O 	O 	0.03280 0.13376 0.28449 -0.38300
O 	O 	0.00503 0.94671 0.34037 -0.32500
O 	O 	0.04756 0.93096 0.10400 -0.74100
O 	O 	0.09686 0.99411 0.97711 -0.36500
Co	Co	0.06752 0.04564 0.74278 1.18900
O 	O 	0.05664 0.15828 0.78501 -0.38500
O 	O 	0.04667 0.98702 0.84524 -0.30400
O 	O 	0.06718 0.94809 0.60922 -0.74800
O 	O 	0.01768 0.89205 0.48240 -0.33900
H 	H 	0.05858 0.69352 0.72157 0.06400
H 	H 	0.03881 0.60212 0.67398 0.09600
H 	H 	0.03101 0.65746 0.10238 0.10700
H 	H 	0.02721 0.74816 0.04812 0.08400
O 	O 	0.06635 0.79321 0.15023 -0.38600
H 	H 	0.01686 0.62871 0.23434 0.05700
H 	H 	0.00324 0.52183 0.21128 0.09000
C 	C 	0.02095 0.98445 0.93704 0.30300
O 	O 	0.00398 0.98565 0.14400 -0.57100
O 	O 	0.02626 0.00904 0.64512 -0.55400
O 	O 	0.01362 0.78004 0.61694 -0.36700
C 	C 	0.08922 0.66257 0.25119 -0.02700
N 	N 	0.07315 0.56146 0.21863 -0.19600
C 	C 	0.10140 0.18470 0.25702 0.31100
H 	H 	0.11253 0.29907 0.62279 0.10500
H 	H 	0.09963 0.38510 0.59153 0.09600
H 	H 	0.08670 0.36522 0.09884 0.09100
H 	H 	0.09546 0.27700 0.12695 0.10100
N 	N 	0.10502 0.32472 0.13857 -0.20200
Co	Co	0.10983 0.90741 0.57681 1.16700
Co	Co	0.10402 0.95555 0.18210 1.17800
C 	C 	0.11195 0.80494 0.21214 0.30000
O 	O 	0.13096 0.99638 0.26052 -0.47500
O 	O 	0.12168 0.15070 0.23900 -0.38300
O 	O 	0.10633 0.84476 0.23785 -0.38900
Co	Co	0.13298 0.98900 0.67948 1.17700
C 	C 	0.12261 0.21188 0.75422 0.31300
O 	O 	0.14160 0.18087 0.73161 -0.38400
N 	N 	0.10645 0.62597 0.69493 -0.19600
H 	H 	0.13402 0.61588 0.67546 0.08900
N 	N 	0.11976 0.34665 0.63251 -0.20200
H 	H 	0.09899 0.55593 0.19346 0.08500
C 	C 	0.12668 0.62850 0.24952 0.06700
O 	O 	0.13602 0.88010 0.73960 -0.39700
C 	C 	0.12803 0.71700 0.74407 -0.03500
C 	C 	0.15902 0.67911 0.73869 0.07200
C 	C 	0.14454 0.74903 0.25822 -0.10000
C 	C 	0.15868 0.36160 0.69604 0.12700
C 	C 	0.14448 0.33700 0.20304 0.12400
H 	H 	0.15038 0.45241 0.17361 0.05300
H 	H 	0.16028 0.47541 0.66243 0.05600
O 	O 	0.16530 0.03755 0.75498 -0.46000
C 	C 	0.16343 0.27844 0.25756 -0.10900
H 	H 	0.16500 0.49890 0.30823 0.05800
H 	H 	0.17586 0.53098 0.79148 0.05900
C 	C 	0.18053 0.86795 0.72538 0.30700
C 	C 	0.18062 0.30606 0.75230 -0.11100
C 	C 	0.17735 0.43307 0.70579 -0.08700
C 	C 	0.16603 0.40824 0.21555 -0.08700
N 	N 	0.99464 0.68380 0.07754 -0.23300
H 	H 	0.24849 0.28770 0.85842 0.04400
H 	H 	0.31512 0.38137 0.92829 0.08800
H 	H 	0.23065 0.25534 0.36314 0.04400
H 	H 	0.30397 0.34818 0.43621 0.08400
O 	O 	0.22051 0.97201 0.11638 -0.43400
O 	O 	0.22456 0.05826 0.15128 -0.39200
O 	O 	0.19978 0.04048 0.54280 -0.37900
O 	O 	0.24891 0.08762 0.63849 -0.37400
O 	O 	0.20515 0.91268 0.66745 -0.42100
C 	C 	0.23148 0.33008 0.81507 -0.02100
C 	C 	0.25107 0.40200 0.82481 0.06800
N 	N 	0.29384 0.41917 0.88780 -0.19300
H 	H 	0.30373 0.46829 0.89765 0.09000
C 	C 	0.18958 0.79454 0.76707 -0.10400
C 	C 	0.23912 0.37230 0.33359 0.06700
C 	C 	0.21559 0.29987 0.32121 -0.02200
N 	N 	0.28374 0.38751 0.39726 -0.19300
H 	H 	0.29626 0.43674 0.40919 0.08800
H 	H 	0.26559 0.89447 0.30268 0.08800
C 	C 	0.69872 0.28251 0.01968 0.04400
C 	C 	0.75597 0.37011 0.02713 -0.09300
C 	C 	0.72029 0.40143 0.03620 0.04800
C 	C 	0.63572 0.34172 0.05058 -0.09100
C 	C 	0.57757 0.25863 0.03861 0.04200
C 	C 	0.60667 0.23136 0.01809 -0.09000
H 	H 	0.82657 0.41217 0.02724 0.04600
H 	H 	0.61325 0.36152 0.06806 0.05500
H 	H 	0.55912 0.16824 0.00516 0.05200
C 	C 	0.72606 0.30368 0.52863 0.04200
C 	C 	0.78396 0.38872 0.54020 -0.08800
C 	C 	0.74717 0.42724 0.53556 0.04300
C 	C 	0.65407 0.37986 0.52239 -0.08500
C 	C 	0.59709 0.29370 0.51592 0.04400
C 	C 	0.63218 0.25905 0.51221 -0.08600
H 	H 	0.85635 0.42353 0.55401 0.04500
H 	H 	0.62637 0.40750 0.52314 0.05800
H 	H 	0.58691 0.19395 0.50306 0.05700
C 	C 	0.26616 0.63866 0.27225 0.04100
C 	C 	0.34964 0.70012 0.25309 -0.08700
C 	C 	0.39364 0.67091 0.25461 0.04400
C 	C 	0.35195 0.58126 0.26949 -0.08500
C 	C 	0.26664 0.51958 0.28307 0.04300
C 	C 	0.22675 0.54746 0.29037 -0.08600
H 	H 	0.38028 0.76999 0.23743 0.04900
H 	H 	0.38438 0.55938 0.26717 0.05600
C 	C 	0.28731 0.66960 0.76807 0.04200
C 	C 	0.24070 0.57813 0.77823 -0.08600
C 	C 	0.27778 0.54867 0.76913 0.04400
C 	C 	0.36356 0.60845 0.75654 -0.08500
C 	C 	0.41219 0.69772 0.75027 0.04400
C 	C 	0.37347 0.72914 0.75371 -0.08600
H 	H 	0.39260 0.58527 0.75108 0.05700
H 	H 	0.41032 0.79926 0.74581 0.05000
Co	Co	0.87700 0.96649 0.12864 1.16400
Co	Co	0.94568 0.91201 0.06475 1.15900
Co	Co	0.90345 0.04831 0.23561 1.16900
O 	O 	0.94467 0.01028 0.19840 -0.75700
O 	O 	0.84288 0.91100 0.05685 -0.48700
C 	C 	0.86286 0.11854 0.08629 0.29700
C 	C 	0.96793 0.95700 0.36667 0.16700
C 	C 	0.25742 0.04937 0.12122 0.33800
C 	C 	0.89819 0.75470 0.04469 0.30400
O 	O 	0.91974 0.14138 0.14381 -0.40800
O 	O 	0.84969 0.06091 0.06586 -0.37900
O 	O 	0.89700 0.95734 0.32889 -0.37000
O 	O 	0.96120 0.81606 0.01147 -0.43800
O 	O 	0.87987 0.77689 0.07691 -0.40400
C 	C 	0.73436 0.87991 0.19708 0.31100
O 	O 	0.76941 0.96081 0.19265 -0.42400
O 	O 	0.77268 0.86415 0.17899 -0.41400
O 	O 	0.96618 0.97392 0.96218 -0.38300
Co	Co	0.89808 0.98483 0.63386 1.16600
Co	Co	0.96199 0.92124 0.57526 1.16000
Co	Co	0.92699 0.06994 0.73863 1.16900
C 	C 	0.98934 0.94128 0.44359 0.18000
O 	O 	0.96779 0.03185 0.70174 -0.76000
O 	O 	0.86032 0.92252 0.56601 -0.48300
C 	C 	0.88181 0.13573 0.58947 0.29900
C 	C 	0.99854 0.98669 0.86939 0.09300
C 	C 	0.26473 0.09015 0.58676 0.30100
C 	C 	0.92808 0.74840 0.59626 0.25700
O 	O 	0.94057 0.16051 0.64592 -0.41000
O 	O 	0.86554 0.07519 0.57048 -0.37800
O 	O 	0.92328 0.97807 0.83008 -0.34800
O 	O 	0.89952 0.78481 0.60183 -0.39400
C 	C 	0.75705 0.90067 0.70248 0.31500
O 	O 	0.79250 0.98185 0.69735 -0.42800
O 	O 	0.79667 0.88394 0.68707 -0.40900
O 	O 	0.97072 0.96858 0.47141 -0.36800
C 	C 	0.22629 0.45589 0.76906 -0.01700
C 	C 	0.65208 0.78876 0.77837 -0.02700
C 	C 	0.66452 0.83221 0.71139 -0.11600
C 	C 	0.59348 0.83291 0.65738 0.12400
C 	C 	0.51519 0.79828 0.67217 -0.09200
C 	C 	0.50411 0.75780 0.73953 -0.02000
C 	C 	0.57413 0.75462 0.79339 0.06500
N 	N 	0.56709 0.71953 0.85962 -0.19400
H 	H 	0.70657 0.78823 0.81982 0.04300
H 	H 	0.46057 0.79843 0.63067 0.05100
N 	N 	0.60065 0.86765 0.59123 -0.20400
H 	H 	0.61734 0.71420 0.89895 0.08400
H 	H 	0.51331 0.69997 0.87288 0.08700
H 	H 	0.65567 0.88894 0.57847 0.08700
H 	H 	0.54967 0.87137 0.55158 0.08000
C 	C 	0.27503 0.81442 0.80771 0.11900
C 	C 	0.30253 0.76708 0.81272 -0.08600
C 	C 	0.24791 0.70382 0.77429 -0.02000
H 	H 	0.36823 0.78268 0.84379 0.05100
N 	N 	0.33187 0.88037 0.84032 -0.20400
H 	H 	0.31153 0.91393 0.83922 0.08700
H 	H 	0.39630 0.89726 0.86847 0.08100
C 	C 	0.21542 0.42808 0.27989 -0.01700
C 	C 	0.63985 0.78563 0.27995 -0.02800
C 	C 	0.64535 0.80914 0.21298 -0.11500
C 	C 	0.56703 0.78826 0.15948 0.12200
C 	C 	0.48787 0.75432 0.17249 -0.09100
C 	C 	0.48325 0.73368 0.23915 -0.02100
C 	C 	0.56064 0.75112 0.29322 0.06600
N 	N 	0.55938 0.73534 0.35789 -0.19400
H 	H 	0.69974 0.80097 0.32115 0.04200
H 	H 	0.42782 0.73839 0.13140 0.05000
N 	N 	0.56727 0.79998 0.09570 -0.20500
H 	H 	0.61577 0.74559 0.39808 0.08400
H 	H 	0.50365 0.71552 0.36848 0.08600
H 	H 	0.62291 0.81878 0.08581 0.08500
H 	H 	0.51030 0.78768 0.05565 0.07600
C 	C 	0.27460 0.74743 0.29694 -0.08600
C 	C 	0.22123 0.67085 0.27365 -0.02000
C 	C 	0.23767 0.78864 0.28700 0.11400
N 	N 	0.29201 0.86590 0.30501 -0.20300
H 	H 	0.34547 0.77677 0.32069 0.04800
H 	H 	0.36130 0.89663 0.32393 0.07700
C 	C 	0.82943 0.29963 0.50568 -0.08700
C 	C 	0.76307 0.25787 0.53947 -0.02200
C 	C 	0.72643 0.16945 0.57845 0.06900
C 	C 	0.74939 0.12269 0.57622 -0.03800
C 	C 	0.82508 0.16769 0.55233 -0.10400
C 	C 	0.86238 0.25593 0.51326 0.11500
N 	N 	0.92967 0.29891 0.48308 -0.20400
H 	H 	0.85605 0.36619 0.47403 0.04600
H 	H 	0.71664 0.05359 0.60222 0.05700
N 	N 	0.67585 0.13196 0.62238 -0.19600
H 	H 	0.95909 0.36484 0.45599 0.07200
H 	H 	0.95184 0.26656 0.48500 0.08200
H 	H 	0.67464 0.17024 0.63700 0.08400
H 	H 	0.64385 0.06510 0.64718 0.08700
C 	C 	0.82943 0.51572 0.61904 -0.09100
C 	C 	0.80508 0.51384 0.55095 -0.02500
C 	C 	0.81094 0.58700 0.49761 0.06700
C 	C 	0.83622 0.65815 0.51318 -0.04000
C 	C 	0.86311 0.66113 0.58130 -0.09800
C 	C 	0.85481 0.58702 0.63445 0.11300
N 	N 	0.87094 0.58399 0.70038 -0.20400
H 	H 	0.82272 0.45885 0.65991 0.04800
H 	H 	0.84233 0.71479 0.47227 0.04300
N 	N 	0.79283 0.58943 0.43140 -0.19500
H 	H 	0.86804 0.53070 0.73996 0.07700
H 	H 	0.88416 0.63340 0.71262 0.08800
H 	H 	0.78029 0.54067 0.41879 0.08200
H 	H 	0.79416 0.64208 0.39190 0.08000
C 	C 	0.49438 0.17504 0.59401 -0.08800
C 	C 	0.50702 0.23467 0.52978 -0.01800
C 	C 	0.44260 0.25230 0.48745 0.06600
C 	C 	0.36969 0.21388 0.51186 -0.02300
C 	C 	0.35621 0.15311 0.57558 -0.10800
C 	C 	0.42125 0.13628 0.61826 0.12400
N 	N 	0.41402 0.08320 0.68258 -0.20300
H 	H 	0.54480 0.16303 0.62709 0.05200
H 	H 	0.31949 0.22618 0.47900 0.04200
N 	N 	0.44962 0.30474 0.42294 -0.19300
H 	H 	0.45906 0.06658 0.71208 0.09000
H 	H 	0.36689 0.06165 0.70522 0.10400
H 	H 	0.49857 0.32792 0.40130 0.08700
H 	H 	0.40384 0.32035 0.39283 0.08500
C 	C 	0.69444 0.14817 0.05742 -0.07900
C 	C 	0.73560 0.23857 0.02472 -0.04200
C 	C 	0.80951 0.28422 0.99670 0.09700
C 	C 	0.85057 0.24367 0.01431 -0.05300
C 	C 	0.80816 0.15332 0.04675 -0.10100
C 	C 	0.72327 0.10420 0.05935 0.11100
N 	N 	0.66804 0.01516 0.07105 -0.17500
H 	H 	0.63849 0.11123 0.07982 0.05200
H 	H 	0.91410 0.28193 0.00141 0.03200
N 	N 	0.83546 0.36170 0.94858 -0.19900
H 	H 	0.60723 0.97835 0.08416 0.06800
H 	H 	0.68197 0.98262 0.06206 0.07800
H 	H 	0.79419 0.38274 0.92311 0.08700
H 	H 	0.89316 0.39737 0.93153 0.07800
C 	C 	0.85821 0.54190 0.06943 -0.07900
C 	C 	0.77021 0.49621 0.03102 -0.05000
C 	C 	0.72416 0.53580 0.99845 0.11200
C 	C 	0.76190 0.61224 0.01464 -0.07800
C 	C 	0.85264 0.66142 0.04846 -0.09400
C 	C 	0.90370 0.62920 0.06861 0.10500
H 	H 	0.89443 0.51301 0.09434 0.03500
H 	H 	0.72379 0.63852 0.99396 0.06200
N 	N 	0.64674 0.50347 0.94932 -0.20100
H 	H 	0.62497 0.45608 0.92865 0.09100
H 	H 	0.61081 0.52990 0.92805 0.08600
C 	C 	0.48705 0.14926 0.12444 -0.09500
C 	C 	0.49022 0.19717 0.05623 -0.01300
C 	C 	0.42071 0.20748 0.01315 0.05000
C 	C 	0.35112 0.17210 0.03993 -0.01700
C 	C 	0.34635 0.12112 0.10729 -0.12800
C 	C 	0.41890 0.11640 0.15134 0.13900
N 	N 	0.42219 0.07868 0.21937 -0.20500
H 	H 	0.54193 0.14390 0.15805 0.05600
H 	H 	0.29592 0.17697 0.00637 0.03700
N 	N 	0.42034 0.25074 0.94600 -0.18400
H 	H 	0.47376 0.07143 0.25148 0.08700
H 	H 	0.37554 0.05947 0.24129 0.09700
H 	H 	0.46788 0.27249 0.92359 0.09000
H 	H 	0.37043 0.26066 0.91493 0.08800
