data_crystal

_cell_length_a 33.62499
_cell_length_b 34.01262
_cell_length_c 26.34210
_cell_angle_alpha 95.55398
_cell_angle_beta  95.54264
_cell_angle_gamma 125.47206

_symmetry_space_group_name_	'P 1'
_symmetry_space_group_name_H-M	'P 1'

loop_
_symmetry_equiv_pos_as_xyz
  x,y,z

loop_
_atom_site_label
_atom_site_type_symbol
_atom_site_fract_x
_atom_site_fract_y
_atom_site_fract_z
_atom_site_charge
C 	C 	0.02419 0.00341 0.44141 0.11900
C 	C 	0.10796 0.02273 0.46834 -0.01700
H 	H 	0.12269 0.01910 0.03418 0.04400
C 	C 	0.07773 0.03201 0.43959 -0.01900
C 	C 	0.05534 0.03191 0.99102 0.12100
N 	N 	0.99983 0.02394 0.43520 -0.13900
H 	H 	0.90951 0.01061 0.04677 0.04400
C 	C 	0.88967 0.01229 0.46196 -0.01800
C 	C 	0.92458 0.02047 0.43094 -0.02100
H 	H 	0.84134 0.03070 0.48306 0.04600
C 	C 	0.98577 0.03143 0.99835 0.11900
N 	N 	0.03424 0.05592 0.99360 -0.14100
N 	N 	0.02797 0.98343 0.99354 -0.14000
C 	C 	0.49027 0.24109 0.43298 -0.07300
C 	C 	0.46419 0.19805 0.45396 0.02200
C 	C 	0.41312 0.17239 0.45255 -0.05700
C 	C 	0.38747 0.18922 0.42984 0.03100
C 	C 	0.41321 0.23166 0.40810 -0.06000
C 	C 	0.46432 0.25753 0.40971 0.02000
C 	C 	0.33383 0.16285 0.42963 0.00400
C 	C 	0.29998 0.11339 0.40497 -0.03400
C 	C 	0.24934 0.08805 0.40603 -0.03700
C 	C 	0.23212 0.11201 0.43155 0.00700
C 	C 	0.26581 0.16160 0.45560 -0.03700
C 	C 	0.31649 0.18691 0.45475 -0.03400
C 	C 	0.17909 0.08473 0.43450 0.01600
C 	C 	0.15833 0.04889 0.46567 -0.04700
C 	C 	0.09870 0.06817 0.40857 -0.01700
C 	C 	0.14919 0.09446 0.40615 -0.04800
H 	H 	0.48344 0.18449 0.47142 0.05100
H 	H 	0.39355 0.13965 0.46947 0.05900
H 	H 	0.39364 0.24474 0.39016 0.05200
H 	H 	0.48377 0.29064 0.39341 0.04400
H 	H 	0.31295 0.09460 0.38515 0.04700
H 	H 	0.22352 0.04977 0.38724 0.04500
H 	H 	0.25280 0.18032 0.47548 0.04500
H 	H 	0.34234 0.22502 0.47406 0.04700
H 	H 	0.18129 0.04140 0.48794 0.04900
H 	H 	0.09251 0.99544 0.49295 0.04400
H 	H 	0.07583 0.07549 0.38586 0.04200
H 	H 	0.16498 0.12209 0.38195 0.04600
H 	H 	0.00893 0.91312 0.05233 0.04100
H 	H 	0.01046 0.11075 0.95555 0.04100
C 	C 	0.47815 0.18754 0.98056 0.01700
C 	C 	0.42739 0.16578 0.97584 -0.05700
C 	C 	0.40609 0.18409 0.94736 0.03000
C 	C 	0.43554 0.22301 0.92178 -0.05600
C 	C 	0.48635 0.24481 0.92641 0.02000
C 	C 	0.35380 0.16454 0.94714 0.00500
C 	C 	0.31557 0.11487 0.92653 -0.03400
C 	C 	0.26661 0.09501 0.93154 -0.03600
C 	C 	0.25548 0.12467 0.95721 0.00700
C 	C 	0.29339 0.17477 0.97607 -0.03700
C 	C 	0.34237 0.19463 0.97107 -0.03400
C 	C 	0.20494 0.10256 0.96749 0.01600
C 	C 	0.18561 0.06797 0.00020 -0.04700
C 	C 	0.13724 0.04589 0.00895 -0.01600
C 	C 	0.10764 0.05813 0.98497 -0.02100
C 	C 	0.12743 0.09362 0.95313 -0.01700
C 	C 	0.17591 0.11573 0.94444 -0.04800
H 	H 	0.49434 0.17397 0.00402 0.05300
H 	H 	0.40487 0.13561 0.99557 0.05600
H 	H 	0.41925 0.23695 0.89911 0.05800
H 	H 	0.32398 0.09146 0.90761 0.04900
H 	H 	0.23747 0.05638 0.91645 0.04600
H 	H 	0.28512 0.19796 0.99584 0.04400
H 	H 	0.37164 0.23303 0.98711 0.04500
H 	H 	0.20802 0.05806 0.01869 0.04800
H 	H 	0.10496 0.10327 0.93424 0.04200
H 	H 	0.19064 0.14256 0.91926 0.04700
C 	C 	0.50823 0.22802 0.95696 -0.07400
H 	H 	0.50882 0.27528 0.90704 0.05600
C 	C 	0.97962 0.95882 0.99835 0.12100
N 	N 	0.95849 0.98279 0.00051 -0.13900
C 	C 	0.95071 0.99781 0.43741 0.12100
N 	N 	0.99923 0.95659 0.44979 -0.13900
C 	C 	0.95023 0.93036 0.45242 0.12100
N 	N 	0.92595 0.95101 0.44617 -0.14000
Cu	Cu	0.65582 0.26523 0.99071 0.93400
Cu	Cu	0.69931 0.27119 0.88320 0.88100
Cu	Cu	0.68525 0.34539 0.92662 0.90500
Cu	Cu	0.65308 0.35446 0.02679 0.91200
C 	C 	0.66857 0.30053 0.09878 0.30600
O 	O 	0.58262 0.23460 0.98677 -0.35200
C 	C 	0.67085 0.31363 0.81352 0.30200
O 	O 	0.69474 0.34186 0.99838 -0.63700
O 	O 	0.65193 0.27304 0.91738 -0.63800
O 	O 	0.68770 0.23092 0.98790 -0.35700
O 	O 	0.74443 0.28365 0.94264 -0.42400
O 	O 	0.64441 0.31884 0.08553 -0.34800
O 	O 	0.72141 0.41606 0.94042 -0.36600
C 	C 	0.71608 0.44137 0.97689 0.29800
C 	C 	0.56280 0.25521 0.96777 0.28900
O 	O 	0.59164 0.30169 0.96375 -0.37800
O 	O 	0.68150 0.41939 0.00559 -0.36900
O 	O 	0.66962 0.27037 0.06433 -0.32900
C 	C 	0.73059 0.25095 0.97273 0.29800
O 	O 	0.68758 0.35009 0.85276 -0.36400
O 	O 	0.66975 0.27510 0.82015 -0.36200
H 	H 	0.72990 0.36313 0.01651 0.21400
H 	H 	0.61795 0.25299 0.89621 0.20800
Cu	Cu	0.72585 0.33505 0.42635 0.93500
Cu	Cu	0.71810 0.28923 0.53207 0.88100
Cu	Cu	0.64214 0.30137 0.48770 0.90500
Cu	Cu	0.63375 0.33443 0.38845 0.91000
C 	C 	0.69239 0.32424 0.31809 0.30700
O 	O 	0.75467 0.40719 0.43215 -0.35100
C 	C 	0.67218 0.31411 0.60088 0.30200
O 	O 	0.64786 0.29406 0.41642 -0.63600
O 	O 	0.71572 0.33633 0.49899 -0.63800
O 	O 	0.76222 0.30514 0.42942 -0.35400
O 	O 	0.70787 0.24662 0.47195 -0.42400
O 	O 	0.67204 0.34633 0.33118 -0.35200
O 	O 	0.57048 0.26368 0.47204 -0.36700
C 	C 	0.54465 0.26926 0.43617 0.29900
C 	C 	0.73171 0.42469 0.45050 0.29000
O 	O 	0.68451 0.39433 0.45317 -0.37800
O 	O 	0.56667 0.30335 0.40727 -0.37200
O 	O 	0.72294 0.32364 0.35295 -0.32400
C 	C 	0.74203 0.26210 0.44302 0.30000
O 	O 	0.63575 0.29731 0.56102 -0.36200
O 	O 	0.71179 0.31608 0.59517 -0.36300
H 	H 	0.62757 0.25958 0.39757 0.21300
H 	H 	0.73482 0.36946 0.52102 0.20900
C 	C 	0.62248 0.28233 0.66995 0.05200
C 	C 	0.66405 0.32144 0.65388 -0.00200
C 	C 	0.70114 0.36414 0.69084 -0.10000
C 	C 	0.70141 0.36250 0.74397 0.05200
C 	C 	0.66290 0.32065 0.76012 -0.00200
C 	C 	0.62053 0.28267 0.72304 -0.09900
C 	C 	0.57443 0.24112 0.73963 0.78100
H 	H 	0.59294 0.25051 0.64135 0.07300
H 	H 	0.73286 0.39262 0.77260 0.07300
C 	C 	0.74206 0.41035 0.67411 0.78000
F 	F 	0.53272 0.22082 0.70163 -0.44700
F 	F 	0.56656 0.25795 0.78477 -0.46000
F 	F 	0.57992 0.20486 0.74791 -0.45500
F 	F 	0.72412 0.41687 0.62862 -0.46000
F 	F 	0.78011 0.40691 0.66636 -0.45600
F 	F 	0.76106 0.45143 0.71176 -0.44800
C 	C 	0.72895 0.35094 0.24003 0.05700
C 	C 	0.69262 0.31335 0.26282 0.00100
C 	C 	0.65330 0.26777 0.23141 -0.10200
C 	C 	0.64733 0.26307 0.17706 0.05600
C 	C 	0.68148 0.30219 0.15423 0.00200
C 	C 	0.72453 0.34516 0.18573 -0.10200
C 	C 	0.76411 0.38608 0.16151 0.77800
H 	H 	0.75945 0.38544 0.26456 0.07700
H 	H 	0.61493 0.22990 0.15248 0.07700
C 	C 	0.61584 0.22538 0.25572 0.77800
F 	F 	0.80753 0.41932 0.19748 -0.44700
F 	F 	0.74683 0.41091 0.14193 -0.47600
F 	F 	0.77544 0.36677 0.12161 -0.46100
F 	F 	0.58529 0.23540 0.27532 -0.47400
F 	F 	0.64024 0.21890 0.29564 -0.45900
F 	F 	0.58656 0.18175 0.21985 -0.44700
C 	C 	0.92355 0.87949 0.46167 -0.02000
C 	C 	0.87397 0.84337 0.43679 -0.01700
C 	C 	0.85059 0.79420 0.44121 -0.04700
C 	C 	0.87659 0.78069 0.47044 0.01700
C 	C 	0.92544 0.81703 0.49690 -0.04700
C 	C 	0.94874 0.86616 0.49272 -0.01600
C 	C 	0.85393 0.72830 0.47057 0.00700
C 	C 	0.84905 0.71119 0.51766 -0.03600
C 	C 	0.83088 0.66237 0.51801 -0.03500
C 	C 	0.81720 0.63021 0.47126 0.00500
C 	C 	0.82124 0.64710 0.42413 -0.03500
C 	C 	0.83967 0.69594 0.42380 -0.03600
C 	C 	0.79844 0.57877 0.47152 0.03000
C 	C 	0.75469 0.54715 0.49016 -0.05600
C 	C 	0.73426 0.49730 0.48578 0.02000
C 	C 	0.75712 0.47842 0.46214 -0.07300
C 	C 	0.80230 0.51069 0.44586 0.01900
C 	C 	0.82281 0.56058 0.45056 -0.05700
H 	H 	0.85404 0.85309 0.41282 0.04400
H 	H 	0.81266 0.76647 0.42107 0.04600
H 	H 	0.94578 0.80703 0.51969 0.04800
H 	H 	0.98668 0.89377 0.51291 0.04300
H 	H 	0.85980 0.73583 0.55396 0.04500
H 	H 	0.82781 0.64967 0.55459 0.05100
H 	H 	0.81029 0.62243 0.38779 0.04700
H 	H 	0.84354 0.70883 0.38728 0.04500
H 	H 	0.73584 0.56094 0.50686 0.05600
H 	H 	0.70007 0.47321 0.49968 0.05300
H 	H 	0.82083 0.49698 0.42822 0.05300
H 	H 	0.85709 0.58491 0.43689 0.05700
C 	C 	0.76099 0.23334 0.43028 -0.08100
C 	C 	0.81138 0.25736 0.42738 0.01900
C 	C 	0.83073 0.23053 0.42221 -0.06100
C 	C 	0.79986 0.17947 0.41961 0.03000
C 	C 	0.74908 0.15517 0.42007 -0.06100
C 	C 	0.72971 0.18195 0.42536 0.02200
C 	C 	0.82129 0.15198 0.42003 0.00200
C 	C 	0.80783 0.11614 0.37698 -0.03400
C 	C 	0.82697 0.08902 0.37816 -0.03700
C 	C 	0.85956 0.09742 0.42248 0.00700
C 	C 	0.87309 0.13334 0.46545 -0.03800
C 	C 	0.85406 0.16052 0.46423 -0.03500
C 	C 	0.88015 0.06919 0.42367 0.01600
C 	C 	0.91401 0.07639 0.39171 -0.04800
C 	C 	0.93616 0.05219 0.39532 -0.01700
C 	C 	0.86763 0.03663 0.45839 -0.04700
H 	H 	0.83591 0.29694 0.43094 0.04400
H 	H 	0.86992 0.24954 0.42142 0.05400
H 	H 	0.72490 0.11571 0.41773 0.05400
H 	H 	0.69061 0.16287 0.42667 0.04800
H 	H 	0.78251 0.10927 0.34271 0.04800
H 	H 	0.81638 0.06140 0.34478 0.04400
H 	H 	0.89843 0.14025 0.49972 0.04400
H 	H 	0.86445 0.18794 0.49774 0.04200
H 	H 	0.92378 0.10137 0.36469 0.04600
H 	H 	0.96256 0.05835 0.37071 0.04200
H 	H 	0.88048 0.98803 0.48966 0.04400
C 	C 	0.95017 0.90617 0.00079 -0.02000
C 	C 	0.90146 0.87340 0.97224 -0.01800
C 	C 	0.87504 0.82290 0.97124 -0.04700
C 	C 	0.89700 0.80480 0.99902 0.01600
C 	C 	0.94510 0.83770 0.02883 -0.04700
C 	C 	0.97161 0.88812 0.02961 -0.01500
C 	C 	0.87041 0.75136 0.99542 0.00700
C 	C 	0.82456 0.72325 0.01164 -0.03600
C 	C 	0.79957 0.67266 0.00847 -0.03400
C 	C 	0.82037 0.64981 0.98929 0.00400
C 	C 	0.86622 0.67794 0.97308 -0.03300
C 	C 	0.89105 0.72845 0.97596 -0.03600
C 	C 	0.79415 0.59647 0.98617 0.02900
C 	C 	0.77988 0.56578 0.93809 -0.05700
C 	C 	0.75501 0.51523 0.93510 0.01900
C 	C 	0.74391 0.49486 0.98017 -0.07300
C 	C 	0.75840 0.52564 0.02828 0.01800
C 	C 	0.78350 0.57622 0.03128 -0.05600
H 	H 	0.88456 0.88689 0.94977 0.04300
H 	H 	0.83792 0.79779 0.94811 0.04700
H 	H 	0.96212 0.82412 0.05094 0.04800
H 	H 	0.80840 0.74063 0.02685 0.04400
H 	H 	0.76407 0.65122 0.02083 0.04500
H 	H 	0.88265 0.66067 0.95839 0.04900
H 	H 	0.92630 0.74979 0.96308 0.04600
H 	H 	0.78775 0.58105 0.90302 0.06000
H 	H 	0.74366 0.49185 0.89766 0.05700
H 	H 	0.75043 0.51042 0.06338 0.05400
H 	H 	0.79476 0.59968 0.06864 0.05500
C 	C 	0.76095 0.23337 0.98525 -0.08300
C 	C 	0.81001 0.25964 0.97639 0.01800
C 	C 	0.83685 0.24032 0.98263 -0.06100
C 	C 	0.81517 0.19485 0.99823 0.03000
C 	C 	0.76710 0.16961 0.00937 -0.06000
C 	C 	0.74007 0.18874 0.00296 0.02100
C 	C 	0.84148 0.17221 0.99954 0.00100
C 	C 	0.84482 0.15141 0.95300 -0.03500
C 	C 	0.86949 0.12961 0.95406 -0.03900
C 	C 	0.89127 0.12866 0.00171 0.00800
C 	C 	0.88807 0.14965 0.04829 -0.03800
C 	C 	0.86313 0.17123 0.04719 -0.03300
C 	C 	0.91684 0.10512 0.00276 0.01700
C 	C 	0.95722 0.12180 0.97733 -0.04900
C 	C 	0.97994 0.09804 0.97617 -0.01700
C 	C 	0.96269 0.05747 0.00076 -0.01900
C 	C 	0.92280 0.04138 0.02701 -0.01800
C 	C 	0.89992 0.06499 0.02783 -0.04700
H 	H 	0.82707 0.29458 0.96381 0.04300
H 	H 	0.87417 0.26027 0.97445 0.05300
H 	H 	0.75022 0.13457 0.02172 0.05500
H 	H 	0.70250 0.16819 0.01040 0.05000
H 	H 	0.82806 0.15192 0.91605 0.04200
H 	H 	0.87143 0.11320 0.91792 0.04300
H 	H 	0.90492 0.14928 0.08526 0.04400
H 	H 	0.86076 0.18729 0.08330 0.04800
H 	H 	0.97072 0.15293 0.95810 0.04600
H 	H 	0.86873 0.05180 0.04751 0.04600
