data_crystal

_cell_length_a 25.98409
_cell_length_b 25.51242
_cell_length_c 19.71296
_cell_angle_alpha 95.51202
_cell_angle_beta  95.51248
_cell_angle_gamma 125.82354

_symmetry_space_group_name_	'P 1'
_symmetry_space_group_name_H-M	'P 1'

loop_
_symmetry_equiv_pos_as_xyz
  x,y,z

loop_
_atom_site_label
_atom_site_type_symbol
_atom_site_fract_x
_atom_site_fract_y
_atom_site_fract_z
_atom_site_charge
C 	C 	0.08874 0.07223 0.02859 0.04100
C 	C 	0.05673 0.10030 0.01458 -0.09200
H 	H 	0.08429 0.15193 0.01100 0.06200
C 	C 	0.21932 0.09514 0.40435 -0.00300
C 	C 	0.19447 0.05483 0.45433 0.01100
C 	C 	0.12962 0.02221 0.45996 -0.04700
C 	C 	0.08861 0.02785 0.41481 -0.00100
C 	C 	0.11375 0.06858 0.36498 0.01300
C 	C 	0.17938 0.10366 0.36181 -0.05300
S 	S 	0.24397 0.04446 0.50974 -0.04400
H 	H 	0.19907 0.13626 0.32491 0.04700
C 	C 	0.25002 0.16692 0.97081 -0.00500
C 	C 	0.18447 0.13560 0.97216 -0.07400
C 	C 	0.15930 0.11088 0.03095 0.00900
C 	C 	0.20109 0.11998 0.08988 0.01400
H 	H 	0.15286 0.12982 0.92719 0.04500
S 	S 	0.17380 0.09921 0.16820 -0.04500
H 	H 	0.17743 0.15038 0.20399 0.03600
C 	C 	0.26588 0.14843 0.08723 -0.05300
H 	H 	0.27474 0.09344 0.56743 0.03500
H 	H 	0.27741 0.15553 0.85128 0.03400
S 	S 	0.28095 0.20129 0.89820 -0.05700
C 	C 	0.28647 0.12671 0.39454 0.02000
C 	C 	0.29058 0.17144 0.02774 0.01600
C 	C 	0.30121 0.09408 0.34762 -0.00900
H 	H 	0.29727 0.15303 0.13162 0.05200
H 	H 	0.32496 0.21430 0.46963 0.05200
C 	C 	0.33636 0.18835 0.43493 -0.07600
H 	H 	0.32957 0.11324 0.94937 0.05300
C 	C 	0.36578 0.12126 0.34514 0.00100
C 	C 	0.35808 0.19727 0.02433 0.03900
H 	H 	0.37708 0.09487 0.31096 0.04200
C 	C 	0.36985 0.15969 0.98140 -0.09700
C 	C 	0.40089 0.21575 0.43214 0.05800
H 	H 	0.39450 0.34866 0.07417 0.04000
C 	C 	0.41586 0.18095 0.38883 -0.09300
S 	S 	0.39764 0.30942 0.11452 -0.03900
S 	S 	0.46247 0.29416 0.48204 -0.05800
H 	H 	0.47653 0.34130 0.44334 0.03500
C 	C 	0.41052 0.25837 0.06468 -0.00800
C 	C 	0.43319 0.18260 0.97790 0.03800
C 	C 	0.48289 0.20317 0.39438 0.29400
S 	S 	0.44573 0.13991 0.91411 -0.06700
H 	H 	0.45122 0.16511 0.85463 0.02700
O 	O 	0.50658 0.20688 0.33704 -0.38300
C 	C 	0.47383 0.27968 0.06419 -0.00800
O 	O 	0.51206 0.20441 0.45350 -0.38200
C 	C 	0.48576 0.24174 0.02188 -0.06900
H 	H 	0.02282 0.07545 0.44954 0.04200
H 	H 	0.51387 0.32572 0.09705 0.03700
H 	H 	0.54710 0.33731 0.66402 0.07400
C 	C 	0.55305 0.26406 0.02502 0.27900
O 	O 	0.56571 0.22104 0.02113 -0.34700
O 	O 	0.57820 0.28838 0.57408 -0.39700
Cu	Cu	0.60026 0.25452 0.33060 0.89600
H 	H 	0.58644 0.26131 0.89580 0.16900
O 	O 	0.60066 0.32736 0.03556 -0.38400
Cu	Cu	0.60260 0.26972 0.48862 0.89800
C 	C 	0.59444 0.34863 0.67868 -0.12200
S 	S 	0.06312 0.07296 0.30360 -0.05300
H 	H 	0.61258 0.19374 0.41256 0.16800
O 	O 	0.62703 0.23946 0.41427 -0.63600
C 	C 	0.61716 0.32825 0.63306 0.32300
H 	H 	0.64091 0.05117 0.79231 0.03000
O 	O 	0.63111 0.27530 0.90863 -0.64900
O 	O 	0.64511 0.35632 0.37861 -0.39200
O 	O 	0.62801 0.30066 0.78043 -0.42600
C 	C 	0.63302 0.38773 0.74850 -0.12200
Cu	Cu	0.64605 0.24166 0.98818 0.91800
O 	O 	0.65768 0.24563 0.27749 -0.37300
H 	H 	0.64659 0.10808 0.40140 0.03700
H 	H 	0.66044 0.46628 0.43730 0.03500
S 	S 	0.65668 0.10344 0.46937 -0.06400
O 	O 	0.66010 0.18228 0.93540 -0.38000
C 	C 	0.64766 0.36198 0.79606 0.32300
H 	H 	0.64714 0.43732 0.76215 0.07400
O 	O 	0.67585 0.22216 0.06708 -0.35800
H 	H 	0.62864 0.50502 0.97446 0.03000
Cu	Cu	0.66666 0.26740 0.82976 0.86500
O 	O 	0.68531 0.29918 0.14932 -0.38300
S 	S 	0.67998 0.52079 0.94391 -0.07600
O 	O 	0.67629 0.34527 0.64935 -0.42500
S 	S 	0.68760 0.59338 0.45307 -0.04100
S 	S 	0.64727 0.05908 0.86308 -0.05400
C 	C 	0.69907 0.25816 0.13016 0.32200
Cu	Cu	0.69437 0.36732 0.09773 0.89500
O 	O 	0.68458 0.40000 0.85658 -0.39800
C 	C 	0.70052 0.49686 0.41160 -0.00500
O 	O 	0.69766 0.33436 0.51996 -0.64700
C 	C 	0.70710 0.40387 0.38461 0.28700
Cu	Cu	0.69530 0.37182 0.94320 0.89200
Cu	Cu	0.70652 0.30199 0.60193 0.86400
H 	H 	0.71224 0.38038 0.52933 0.17100
C 	C 	0.71007 0.20731 0.90446 0.29300
C 	C 	0.72007 0.27395 0.29759 0.32400
O 	O 	0.71480 0.23649 0.56208 -0.43900
H 	H 	0.71613 0.61878 0.52172 0.03600
C 	C 	0.72618 0.24322 0.17821 -0.11400
O 	O 	0.71847 0.34362 0.01974 -0.62500
C 	C 	0.72501 0.56265 0.41310 -0.00800
Cu	Cu	0.72752 0.31346 0.44124 0.92900
C 	C 	0.72876 0.47091 0.37885 -0.09700
H 	H 	0.73314 0.20607 0.16259 0.08100
H 	H 	0.72768 0.05038 0.46967 0.05600
C 	C 	0.73935 0.14096 0.49784 0.06300
O 	O 	0.72824 0.25783 0.87435 -0.44700
O 	O 	0.74400 0.28013 0.36247 -0.37400
O 	O 	0.75023 0.39428 0.40467 -0.37000
C 	C 	0.72879 0.12112 0.90145 0.05900
O 	O 	0.74867 0.46399 0.09738 -0.39200
C 	C 	0.75257 0.57967 0.00320 0.07300
H 	H 	0.76278 0.66155 0.96648 0.03300
C 	C 	0.75312 0.18786 0.91569 -0.10300
C 	C 	0.75610 0.28233 0.24955 -0.11900
O 	O 	0.75799 0.46371 0.98278 -0.40500
C 	C 	0.75635 0.49117 0.04178 0.32100
C 	C 	0.76169 0.10276 0.49026 -0.07800
C 	C 	0.76206 0.25143 0.52907 0.29400
H 	H 	0.76385 0.35897 0.02704 0.16900
H 	H 	0.77085 0.44560 0.22962 0.01300
H 	H 	0.77022 0.67028 0.29050 0.04900
H 	H 	0.00125 0.89540 0.39259 0.04100
C 	C 	0.77955 0.51045 0.34356 0.05400
C 	C 	0.77925 0.60352 0.38292 0.01800
C 	C 	0.78255 0.64657 0.00427 -0.04500
H 	H 	0.75152 0.05254 0.90529 0.05300
C 	C 	0.77998 0.56019 0.05026 -0.09900
C 	C 	0.78364 0.20932 0.52416 -0.10000
C 	C 	0.77034 0.10387 0.91560 -0.08000
O 	O 	0.78608 0.30021 0.49502 -0.37800
S 	S 	0.23930 0.01851 0.29308 -0.02800
C 	C 	0.05284 0.00581 0.03509 -0.06500
H 	H 	0.04775 0.03216 0.24247 0.03800
H 	H 	0.03926 0.14345 0.85742 0.02800
C 	C 	0.80252 0.70226 0.33891 -0.05500
C 	C 	0.81925 0.23659 0.94188 -0.00200
H 	H 	0.83820 0.28796 0.95260 0.02800
H 	H 	0.93578 0.09312 0.09284 0.04100
H 	H 	0.90971 0.74614 0.22530 0.03400
H 	H 	0.89478 0.19898 0.12670 0.04000
C 	C 	0.98903 0.06120 0.00328 0.08100
C 	C 	0.99293 0.02210 0.43929 -0.04000
C 	C 	0.85675 0.07841 0.42246 -0.05200
C 	C 	0.85082 0.09197 0.49071 -0.00400
C 	C 	0.86677 0.06730 0.54327 0.01600
C 	C 	0.89108 0.03190 0.52758 -0.05500
C 	C 	0.89850 0.01978 0.45962 0.00000
C 	C 	0.87991 0.04201 0.40653 0.01200
C 	C 	0.82793 0.13214 0.50642 0.02100
H 	H 	0.90460 0.01411 0.56828 0.04900
H 	H 	0.84350 0.09643 0.38179 0.04900
C 	C 	0.90698 0.12321 0.90805 -0.05700
C 	C 	0.87853 0.13294 0.95994 -0.02100
C 	C 	0.88947 0.12255 0.02709 0.02700
C 	C 	0.92803 0.10185 0.04138 -0.01400
C 	C 	0.95513 0.09044 0.98906 -0.06700
C 	C 	0.94494 0.10174 0.92212 0.02700
C 	C 	0.83613 0.15254 0.94307 0.02100
H 	H 	0.89885 0.13155 0.85649 0.04700
H 	H 	0.97578 0.29959 0.93313 0.03300
S 	S 	0.85633 0.08020 0.62865 -0.04600
C 	C 	0.87221 0.20043 0.53221 -0.00900
H 	H 	0.98099 0.25653 0.49217 0.03700
C 	C 	0.86082 0.21932 0.95530 -0.01300
S 	S 	0.94364 0.28165 0.98755 -0.05800
S 	S 	0.95589 0.23916 0.55109 -0.04400
H 	H 	0.91172 0.13767 0.66572 0.03600
S 	S 	0.85451 0.13452 0.09337 -0.02900
C 	C 	0.84981 0.23844 0.54152 -0.00100
H 	H 	0.88401 0.29095 0.56124 0.03400
H 	H 	0.80738 0.30653 0.26654 0.07500
H 	H 	0.94263 0.07411 0.30658 0.03800
S 	S 	0.81015 0.47717 0.29354 -0.04300
C 	C 	0.80482 0.57659 0.34636 -0.07600
H 	H 	0.84512 0.60743 0.32104 0.05300
H 	H 	0.85373 0.59310 0.13962 0.04100
S 	S 	0.88440 0.02364 0.31983 -0.03700
C 	C 	0.83370 0.60794 0.10196 0.00200
C 	C 	0.81215 0.67531 0.39307 -0.00200
H 	H 	0.92031 0.68154 0.51218 0.03600
C 	C 	0.86328 0.67489 0.10340 -0.00400
S 	S 	0.87118 0.68531 0.52303 -0.05000
C 	C 	0.83931 0.69433 0.05225 0.00700
H 	H 	0.97854 0.73625 0.98582 0.03200
S 	S 	0.93161 0.73671 0.94835 -0.04900
C 	C 	0.85517 0.71716 0.45551 0.01300
S 	S 	0.93057 0.73383 0.16887 -0.03700
C 	C 	0.87612 0.76396 0.04489 0.02600
C 	C 	0.83523 0.77038 0.34656 0.01500
C 	C 	0.91960 0.78836 0.99849 -0.00800
C 	C 	0.88704 0.78510 0.46349 -0.05200
S 	S 	0.82497 0.80317 0.27644 -0.04600
C 	C 	0.87775 0.81210 0.40919 -0.01100
H 	H 	0.83314 0.78687 0.11900 0.05000
H 	H 	0.92027 0.81721 0.51141 0.04500
H 	H 	0.87666 0.82639 0.24390 0.03500
C 	C 	0.86774 0.80607 0.08461 -0.05900
C 	C 	0.95420 0.85450 0.99237 -0.07300
H 	H 	0.98654 0.87275 0.95550 0.04500
C 	C 	0.91644 0.88428 0.41657 0.02800
C 	C 	0.90492 0.87307 0.08146 0.01500
H 	H 	0.83948 0.88863 0.44040 0.05100
C 	C 	0.94764 0.89742 0.03389 0.01300
C 	C 	0.88966 0.91679 0.43469 -0.06500
C 	C 	0.98084 0.92066 0.40752 -0.05500
S 	S 	0.89982 0.92613 0.13963 -0.04500
H 	H 	0.93492 0.93951 0.20367 0.03500
S 	S 	0.97814 0.08771 0.85522 -0.05300
H 	H 	0.11072 0.99155 0.49877 0.03800
H 	H 	0.07738 0.98396 0.04599 0.04900
H 	H 	0.22291 0.96817 0.32760 0.03100
C 	C 	0.01935 0.98963 0.41920 0.00300
C 	C 	0.98526 0.96735 0.02660 0.03200
C 	C 	0.95340 0.99441 0.00736 -0.06600
H 	H 	0.90101 0.96385 0.99669 0.03600
C 	C 	0.92760 0.98568 0.44490 0.01400
