data_crystal

_cell_length_a 25.73422
_cell_length_b 27.33740
_cell_length_c 38.50744
_cell_angle_alpha 61.09543
_cell_angle_beta  118.60701
_cell_angle_gamma 133.31973

_symmetry_space_group_name_	'P 1'
_symmetry_space_group_name_H-M	'P 1'

loop_
_symmetry_equiv_pos_as_xyz
  x,y,z

loop_
_atom_site_label
_atom_site_type_symbol
_atom_site_fract_x
_atom_site_fract_y
_atom_site_fract_z
_atom_site_charge
C 	C 	0.72005 0.33204 0.00688 0.10200
N 	N 	0.76488 0.39935 0.00851 -0.11500
C 	C 	0.73654 0.42794 0.00722 0.10400
N 	N 	0.66362 0.38917 0.00428 -0.10900
C 	C 	0.61930 0.32153 0.00391 0.10300
N 	N 	0.64741 0.29336 0.00467 -0.13000
C 	C 	0.70687 0.30446 0.50440 0.10300
N 	N 	0.63399 0.26116 0.50344 -0.11900
C 	C 	0.60343 0.28156 0.50879 0.10300
N 	N 	0.64593 0.34517 0.51542 -0.12100
C 	C 	0.71869 0.38836 0.51680 0.10300
N 	N 	0.74935 0.36806 0.51133 -0.11300
C 	C 	0.25748 0.64492 0.19248 0.10300
N 	N 	0.21032 0.57747 0.19033 -0.12400
C 	C 	0.23269 0.55114 0.18288 0.10200
N 	N 	0.30174 0.59187 0.17790 -0.12400
C 	C 	0.34839 0.65894 0.17983 0.10400
N 	N 	0.32612 0.68545 0.18686 -0.10800
C 	C 	0.26107 0.62338 0.72032 0.10200
N 	N 	0.33234 0.66540 0.71814 -0.11800
C 	C 	0.35753 0.64313 0.70950 0.10400
N 	N 	0.31117 0.57935 0.70225 -0.12500
C 	C 	0.23976 0.53765 0.70356 0.10400
N 	N 	0.21464 0.55938 0.71289 -0.11200
Co	Co	0.05790 0.01196 0.07476 1.17200
Co	Co	0.94837 0.94223 0.16487 1.19800
Co	Co	0.00511 0.06828 0.09936 1.17400
C 	C 	0.20840 0.06567 0.08440 0.27400
Co	Co	0.10115 0.91327 0.09443 1.17700
Co	Co	0.93961 0.05820 0.15941 1.16500
C 	C 	0.96209 0.77433 0.11628 0.29000
O 	O 	0.93940 0.12988 0.10425 -0.39000
O 	O 	0.96253 0.01844 0.13812 -0.77600
C 	C 	0.91217 0.11712 0.06835 0.26800
O 	O 	0.04852 0.08848 0.05793 -0.47200
O 	O 	0.94735 0.86054 0.17802 -0.44700
C 	C 	0.80306 0.91752 0.14433 0.26000
C 	C 	0.09120 0.17408 0.14801 0.26600
C 	C 	0.13947 0.88902 0.18337 0.26700
O 	O 	0.92714 0.08656 0.06044 -0.37200
O 	O 	0.02639 0.89985 0.03888 -0.37200
O 	O 	0.82990 0.98178 0.14030 -0.35700
O 	O 	0.84304 0.89355 0.16768 -0.35200
O 	O 	0.05152 0.13123 0.17549 -0.36700
O 	O 	0.09544 0.15035 0.12714 -0.37800
O 	O 	0.16851 0.92785 0.15148 -0.36200
O 	O 	0.09437 0.89296 0.18757 -0.36500
O 	O 	0.04634 0.93692 0.10277 -0.75400
O 	O 	0.17552 0.01570 0.06795 -0.40200
O 	O 	0.17015 0.06890 0.09558 -0.39800
O 	O 	0.03290 0.80855 0.12160 -0.37800
O 	O 	0.93679 0.79778 0.12225 -0.36700
Co	Co	0.08437 0.01574 0.58622 1.17600
Co	Co	0.93242 0.92878 0.65573 1.19500
Co	Co	0.01472 0.06624 0.60238 1.17700
C 	C 	0.22744 0.03153 0.62148 0.23000
Co	Co	0.10014 0.90084 0.59572 1.17100
Co	Co	0.91585 0.04413 0.64507 1.16900
C 	C 	0.93904 0.78908 0.57833 0.26600
O 	O 	0.86371 0.05242 0.58411 -0.37500
O 	O 	0.95230 0.00817 0.63115 -0.77000
C 	C 	0.90111 0.09902 0.55548 0.26400
O 	O 	0.08736 0.09777 0.57535 -0.46300
O 	O 	0.93145 0.84739 0.66740 -0.45000
C 	C 	0.78733 0.89576 0.64365 0.27600
C 	C 	0.07214 0.16557 0.64491 0.27300
C 	C 	0.08524 0.82430 0.68102 0.27500
O 	O 	0.95771 0.10653 0.55491 -0.35300
O 	O 	0.13482 0.98187 0.54490 -0.36900
O 	O 	0.82525 0.94492 0.66207 -0.36300
O 	O 	0.82003 0.87867 0.63872 -0.35500
O 	O 	0.00482 0.14719 0.63121 -0.39800
O 	O 	0.08730 0.13042 0.64219 -0.38900
O 	O 	0.07229 0.81723 0.64591 -0.39600
O 	O 	0.06927 0.85975 0.68258 -0.37900
O 	O 	0.05204 0.93216 0.60323 -0.75600
O 	O 	0.19819 0.96516 0.63105 -0.34600
O 	O 	0.19153 0.05172 0.61956 -0.37100
O 	O 	0.99618 0.84114 0.56170 -0.34500
O 	O 	0.92602 0.79392 0.60591 -0.35800
C 	C 	0.99418 0.95153 0.89014 0.07200
C 	C 	0.03250 0.01439 0.89962 0.01800
C 	C 	0.03851 0.01357 0.93813 -0.02900
C 	C 	0.98386 0.95087 0.84902 0.03000
N 	N 	0.06339 0.07891 0.86985 -0.01400
H 	H 	0.07122 0.06211 0.94603 0.06600
N 	N 	0.91547 0.82280 0.98139 -0.02100
C 	C 	0.03074 0.94905 0.84116 0.05900
C 	C 	0.02127 0.95118 0.80142 -0.00900
C 	C 	0.91303 0.94736 0.77904 0.12000
N 	N 	0.08683 0.94356 0.87346 -0.01700
H 	H 	0.06000 0.95410 0.79489 0.07000
N 	N 	0.84922 0.94011 0.74872 -0.02600
H 	H 	0.88604 0.94623 0.82452 0.08500
O 	O 	0.92019 0.77252 0.99276 -0.09400
O 	O 	0.86607 0.81249 0.99101 -0.09600
O 	O 	0.04481 0.11883 0.85950 -0.10500
O 	O 	0.11362 0.09987 0.85513 -0.10100
O 	O 	0.79155 0.87934 0.74209 -0.09100
O 	O 	0.84556 0.99226 0.73145 -0.10000
O 	O 	0.08873 0.89301 0.88088 -0.09200
O 	O 	0.13898 0.99171 0.89344 -0.07300
C 	C 	0.09575 0.05664 0.32991 -0.12700
C 	C 	0.05744 0.99638 0.35867 0.11400
C 	C 	0.00877 0.93137 0.34920 0.01100
C 	C 	0.08412 0.05295 0.29149 0.11100
C 	C 	0.06772 0.00194 0.39840 -0.05100
N 	N 	0.97368 0.86864 0.37923 0.00100
N 	N 	0.12744 0.11444 0.26367 -0.02500
H 	H 	0.13485 0.10651 0.33742 0.09600
C 	C 	0.13762 0.03132 0.42528 0.07100
C 	C 	0.14694 0.03881 0.46179 -0.01200
C 	C 	0.01677 0.98471 0.44619 0.13400
C 	C 	0.00807 0.98054 0.40859 -0.03500
N 	N 	0.19870 0.05103 0.41641 -0.02100
H 	H 	0.20075 0.06098 0.48240 0.06200
N 	N 	0.95415 0.95736 0.45737 -0.02000
H 	H 	0.95455 0.95938 0.38768 0.08500
O 	O 	0.16207 0.11513 0.24733 -0.08800
O 	O 	0.01298 0.85490 0.41395 -0.09000
O 	O 	0.94116 0.99872 0.45281 -0.07400
O 	O 	0.90744 0.89073 0.46944 -0.07700
O 	O 	0.25959 0.11321 0.41676 -0.10200
O 	O 	0.19550 0.00523 0.41133 -0.10000
C 	C 	0.17140 0.33293 0.65177 0.12100
C 	C 	0.16691 0.38871 0.63486 -0.09000
C 	C 	0.15605 0.40477 0.65926 0.02300
C 	C 	0.15616 0.37127 0.69977 0.11700
C 	C 	0.16106 0.31571 0.71687 -0.08400
C 	C 	0.17042 0.29856 0.69222 0.01500
O 	O 	0.14937 0.29376 0.62793 -0.18800
C 	C 	0.13132 0.23125 0.65727 0.04400
C 	C 	0.14496 0.23423 0.69585 -0.05500
O 	O 	0.17619 0.41009 0.72322 -0.19400
C 	C 	0.18933 0.47072 0.69290 0.10300
C 	C 	0.17723 0.46772 0.65469 -0.08400
H 	H 	0.16810 0.41634 0.60317 0.07200
H 	H 	0.15952 0.28795 0.74850 0.08000
H 	H 	0.11672 0.18941 0.71919 0.06100
H 	H 	0.20324 0.51269 0.63074 0.06800
C 	C 	0.60924 0.76393 0.65885 0.12400
C 	C 	0.56910 0.70900 0.68849 -0.08600
C 	C 	0.53167 0.71555 0.70117 0.02900
C 	C 	0.52912 0.77154 0.68314 0.12000
C 	C 	0.56808 0.82589 0.65298 -0.07900
C 	C 	0.60632 0.81986 0.64054 0.01700
O 	O 	0.67164 0.77843 0.65733 -0.17600
C 	C 	0.70723 0.84893 0.63780 0.05500
C 	C 	0.66814 0.87365 0.62723 -0.05000
O 	O 	0.46875 0.75828 0.68648 -0.19500
C 	C 	0.43456 0.68842 0.70737 0.10300
C 	C 	0.47166 0.66254 0.71623 -0.08300
H 	H 	0.57011 0.66437 0.70265 0.07800
H 	H 	0.56728 0.87062 0.63901 0.07900
H 	H 	0.69272 0.92749 0.62263 0.06700
H 	H 	0.44665 0.60828 0.72180 0.07200
C 	C 	0.16840 0.64874 0.74795 0.11400
C 	C 	0.10765 0.64480 0.74244 -0.08000
C 	C 	0.12068 0.70182 0.74566 0.01000
C 	C 	0.18974 0.76393 0.74773 0.12400
C 	C 	0.24969 0.76945 0.74994 -0.09000
C 	C 	0.23813 0.70923 0.75327 0.02800
O 	O 	0.16227 0.60528 0.73473 -0.19500
C 	C 	0.23493 0.64625 0.73212 0.10500
C 	C 	0.28036 0.70817 0.74298 -0.08500
O 	O 	0.18908 0.82131 0.73201 -0.18100
C 	C 	0.11328 0.78862 0.71832 0.04400
C 	C 	0.07234 0.71714 0.72741 -0.05100
H 	H 	0.05230 0.60093 0.73338 0.07000
H 	H 	0.30211 0.81957 0.74655 0.07900
H 	H 	0.33182 0.75328 0.73417 0.07400
H 	H 	0.01705 0.68459 0.71047 0.05300
C 	C 	0.13900 0.40203 0.15352 0.11500
C 	C 	0.12791 0.37876 0.12346 -0.08500
C 	C 	0.15634 0.34264 0.13450 0.01200
C 	C 	0.19098 0.32702 0.17416 0.12000
C 	C 	0.20187 0.35023 0.20416 -0.08600
C 	C 	0.17244 0.38533 0.19327 0.02200
O 	O 	0.14266 0.46013 0.14410 -0.20000
C 	C 	0.18374 0.47826 0.18161 0.09900
C 	C 	0.20062 0.43313 0.21119 -0.08400
O 	O 	0.18706 0.26873 0.18391 -0.16500
C 	C 	0.14293 0.24803 0.14726 0.04700
C 	C 	0.12610 0.29303 0.11731 -0.06000
H 	H 	0.10001 0.39016 0.09230 0.06700
H 	H 	0.22942 0.33854 0.23537 0.08000
H 	H 	0.24731 0.44729 0.23710 0.06600
H 	H 	0.07823 0.27796 0.09212 0.04800
C 	C 	0.52091 0.78475 0.15417 0.11900
C 	C 	0.56383 0.83692 0.12547 -0.08200
C 	C 	0.61211 0.83243 0.12177 0.01600
C 	C 	0.61922 0.77926 0.14661 0.12100
C 	C 	0.57326 0.72520 0.17376 -0.08700
C 	C 	0.52709 0.73122 0.17826 0.02700
O 	O 	0.45594 0.77047 0.15132 -0.19300
C 	C 	0.42328 0.70244 0.17517 0.10500
C 	C 	0.46498 0.67845 0.19129 -0.08500
O 	O 	0.68829 0.79746 0.15387 -0.18000
C 	C 	0.72298 0.86718 0.13277 0.05200
C 	C 	0.67734 0.88774 0.11264 -0.05400
H 	H 	0.55985 0.87962 0.10666 0.07700
H 	H 	0.57740 0.68266 0.19287 0.07700
H 	H 	0.44378 0.62437 0.20146 0.06900
H 	H 	0.69617 0.94089 0.10386 0.07300
C 	C 	0.24458 0.75088 0.21038 0.11900
C 	C 	0.26707 0.79905 0.22784 -0.08300
C 	C 	0.21270 0.79523 0.23176 0.01400
C 	C 	0.13881 0.74579 0.21843 0.12200
C 	C 	0.11678 0.69558 0.20259 -0.08700
C 	C 	0.17153 0.70221 0.19697 0.02200
O 	O 	0.29023 0.73661 0.21499 -0.19200
C 	C 	0.23683 0.67360 0.20333 0.10100
C 	C 	0.16565 0.65256 0.19264 -0.08300
O 	O 	0.09516 0.76658 0.20679 -0.18300
C 	C 	0.14974 0.83465 0.21140 0.04300
C 	C 	0.21953 0.85104 0.22761 -0.05000
H 	H 	0.32483 0.83885 0.23742 0.07800
H 	H 	0.05918 0.65668 0.19194 0.07800
H 	H 	0.11591 0.60131 0.18933 0.06600
H 	H 	0.26924 0.90351 0.22337 0.06900
C 	C 	0.80239 0.16720 0.49574 0.12000
C 	C 	0.73987 0.15681 0.49424 -0.09000
C 	C 	0.75043 0.20405 0.50660 0.02300
C 	C 	0.81848 0.26327 0.51542 0.11700
C 	C 	0.88102 0.27606 0.51494 -0.08400
C 	C 	0.87145 0.22697 0.50463 0.01600
O 	O 	0.80290 0.11167 0.50518 -0.18700
C 	C 	0.87764 0.14187 0.52267 0.05100
C 	C 	0.91903 0.21106 0.52136 -0.05700
O 	O 	0.81715 0.31458 0.51350 -0.19300
C 	C 	0.74089 0.27986 0.50203 0.10300
C 	C 	0.70091 0.21401 0.49775 -0.08300
H 	H 	0.68555 0.11042 0.48720 0.07100
H 	H 	0.93523 0.32184 0.52294 0.07700
H 	H 	0.97128 0.23765 0.54238 0.06900
H 	H 	0.64387 0.18385 0.48194 0.07000
C 	C 	0.86325 0.65926 0.53644 0.12500
C 	C 	0.83429 0.62589 0.50663 -0.08600
C 	C 	0.79276 0.55334 0.51769 0.02700
C 	C 	0.78303 0.51583 0.55673 0.11800
C 	C 	0.81175 0.54937 0.58643 -0.07900
C 	C 	0.85366 0.62188 0.57537 0.01200
O 	O 	0.88443 0.72563 0.52725 -0.16900
C 	C 	0.88747 0.72468 0.56493 0.05200
C 	C 	0.86542 0.66144 0.59308 -0.05300
O 	O 	0.76494 0.45053 0.56645 -0.19400
C 	C 	0.76501 0.45257 0.52939 0.10500
C 	C 	0.78450 0.51489 0.50082 -0.08300
H 	H 	0.84294 0.65511 0.47604 0.08700
H 	H 	0.80382 0.52034 0.61716 0.07400
H 	H 	0.87760 0.65332 0.62570 0.06200
H 	H 	0.77434 0.52309 0.46840 0.07200
C 	C 	0.38338 0.16468 0.58175 0.12200
C 	C 	0.40585 0.21026 0.54518 -0.09000
C 	C 	0.43655 0.20069 0.52928 0.02800
C 	C 	0.44874 0.15064 0.54996 0.11700
C 	C 	0.42687 0.10551 0.58669 -0.08500
C 	C 	0.39647 0.11522 0.60272 0.01200
O 	O 	0.32611 0.14869 0.59056 -0.18900
C 	C 	0.30374 0.08349 0.61729 0.05300
C 	C 	0.34655 0.06402 0.62535 -0.06000
O 	O 	0.50506 0.16572 0.54076 -0.19800
C 	C 	0.52800 0.23110 0.51421 0.10400
C 	C 	0.48662 0.25178 0.50668 -0.08200
H 	H 	0.39700 0.25007 0.52883 0.07600
H 	H 	0.43563 0.06563 0.60300 0.06800
H 	H 	0.32833 0.01084 0.63569 0.05400
H 	H 	0.50595 0.30528 0.49673 0.07100
C 	C 	0.82546 0.28153 0.02074 0.11500
C 	C 	0.87939 0.28948 0.01328 -0.08300
C 	C 	0.86304 0.23097 0.00977 0.01200
C 	C 	0.79625 0.16689 0.01430 0.12100
C 	C 	0.74142 0.16014 0.01993 -0.09300
C 	C 	0.75934 0.21774 0.02529 0.02300
O 	O 	0.82477 0.33680 0.01212 -0.19400
C 	C 	0.75087 0.29926 0.01112 0.10100
C 	C 	0.71162 0.22839 0.01894 -0.08700
O 	O 	0.79963 0.11147 0.02890 -0.19600
C 	C 	0.87504 0.14771 0.03505 0.04500
C 	C 	0.91270 0.21889 0.02259 -0.05200
H 	H 	0.93239 0.33918 0.01064 0.07400
H 	H 	0.68873 0.11035 0.02326 0.06700
H 	H 	0.65235 0.19201 0.01111 0.06500
H 	H 	0.97079 0.25519 0.03430 0.05700
C 	C 	0.88802 0.62105 0.09881 0.12300
C 	C 	0.90339 0.59051 0.08808 -0.08800
C 	C 	0.86472 0.57280 0.05037 0.03100
C 	C 	0.80935 0.58042 0.02550 0.11500
C 	C 	0.79393 0.61095 0.03623 -0.07200
C 	C 	0.83265 0.62872 0.07396 0.01600
O 	O 	0.94042 0.66623 0.12426 -0.17800
C 	C 	0.91282 0.70350 0.11140 0.05000
C 	C 	0.84810 0.68088 0.08182 -0.04900
O 	O 	0.75712 0.53533 0.99995 -0.18100
C 	C 	0.78513 0.49843 0.01269 0.10000
C 	C 	0.84968 0.52093 0.04247 -0.08100
H 	H 	0.94619 0.58349 0.10769 0.07500
H 	H 	0.75143 0.61833 0.01651 0.07900
H 	H 	0.82912 0.71259 0.06046 0.07500
H 	H 	0.86814 0.48884 0.06411 0.07100
C 	C 	0.45242 0.24875 0.01943 0.11000
C 	C 	0.41392 0.25557 0.03089 -0.07900
C 	C 	0.38260 0.20647 0.06468 0.00900
C 	C 	0.38847 0.15219 0.08590 0.12500
C 	C 	0.42794 0.14632 0.07456 -0.09300
C 	C 	0.45543 0.19300 0.03953 0.02700
O 	O 	0.50743 0.30475 0.99838 -0.18200
C 	C 	0.54373 0.27696 0.00801 0.09600
C 	C 	0.51303 0.21043 0.03245 -0.08500
O 	O 	0.33159 0.09434 0.10507 -0.19400
C 	C 	0.28804 0.11650 0.09099 0.04100
C 	C 	0.31906 0.18401 0.06787 -0.05000
H 	H 	0.40918 0.29803 0.01438 0.07300
H 	H 	0.43260 0.10380 0.09089 0.06900
H 	H 	0.54276 0.18802 0.05237 0.06400
H 	H 	0.28763 0.20389 0.04542 0.05600
Co	Co	0.00409 0.88729 0.14184 1.18300
O 	O 	0.97634 0.96407 0.10929 -0.55700
C 	C 	0.02296 0.95030 0.00972 0.29900
O 	O 	0.02992 0.99746 0.01756 -0.35400
C 	C 	0.99673 0.98790 0.23695 0.34600
O 	O 	0.94249 0.99377 0.21775 -0.38000
O 	O 	0.01712 0.97567 0.21827 -0.38700
Co	Co	0.99393 0.87545 0.63430 1.19400
O 	O 	0.98498 0.96423 0.60726 -0.55300
C 	C 	0.09361 0.00163 0.51666 0.28900
O 	O 	0.06783 0.02066 0.52629 -0.37300
C 	C 	0.96575 0.97431 0.72688 0.33200
O 	O 	0.97473 0.03337 0.70464 -0.39500
O 	O 	0.97643 0.94439 0.71462 -0.37700
C 	C 	0.95802 0.88855 0.91814 -0.08400
C 	C 	0.00436 0.95046 0.96675 -0.06300
C 	C 	0.96052 0.88754 0.95563 0.13300
H 	H 	0.92536 0.84011 0.91010 0.08700
C 	C 	0.96402 0.95286 0.76989 -0.07800
C 	C 	0.92424 0.94823 0.81812 -0.06500
C 	C 	0.99425 0.92816 0.30992 0.04300
C 	C 	0.02964 0.98897 0.28043 -0.09800
H 	H 	0.95345 0.87859 0.30194 0.05600
C 	C 	0.08635 0.01270 0.47343 -0.11000
O 	O 	0.13911 0.17176 0.25839 -0.09700
O 	O 	0.90268 0.82344 0.37095 -0.09300
