data_crystal

_cell_length_a 16.16917
_cell_length_b 17.35741
_cell_length_c 38.73515
_cell_angle_alpha 60.66237
_cell_angle_beta  119.11861
_cell_angle_gamma 133.28221

_symmetry_space_group_name_	'P 1'
_symmetry_space_group_name_H-M	'P 1'

loop_
_symmetry_equiv_pos_as_xyz
  x,y,z

loop_
_atom_site_label
_atom_site_type_symbol
_atom_site_fract_x
_atom_site_fract_y
_atom_site_fract_z
_atom_site_charge
C 	C 	0.65167 0.27309 0.04446 0.14300
N 	N 	0.65220 0.36877 0.50262 -0.11900
C 	C 	0.57007 0.27393 0.49026 0.15300
N 	N 	0.60030 0.21142 0.49649 -0.12200
C 	C 	0.24334 0.65934 0.15643 0.14700
N 	N 	0.34565 0.74081 0.14428 -0.12400
C 	C 	0.38064 0.72272 0.12513 0.14200
N 	N 	0.31388 0.62243 0.11863 -0.13300
C 	C 	0.21263 0.54059 0.13117 0.14200
N 	N 	0.17737 0.55951 0.14980 -0.13000
C 	C 	0.26176 0.58781 0.66669 0.15200
N 	N 	0.17936 0.49035 0.65660 -0.13000
C 	C 	0.21166 0.44032 0.65326 0.16000
N 	N 	0.32692 0.48646 0.66114 -0.12200
C 	C 	0.40946 0.58180 0.67283 0.16000
N 	N 	0.37674 0.63154 0.67609 -0.12500
Co	Co	0.12820 0.07906 0.03557 1.19100
Co	Co	0.18297 0.91235 0.05359 1.17500
C 	C 	0.36658 0.14537 0.05357 0.36800
O 	O 	0.11882 0.20199 0.02245 -0.44600
C 	C 	0.09551 0.29003 0.10552 0.31600
C 	C 	0.22625 0.85866 0.14289 0.32300
O 	O 	0.27892 0.92210 0.11280 -0.38400
O 	O 	0.15112 0.86427 0.14504 -0.36800
O 	O 	0.00981 0.21346 0.12449 -0.37400
O 	O 	0.12797 0.26394 0.08971 -0.37400
O 	O 	0.09679 0.07126 0.97718 -0.33100
O 	O 	0.09753 0.95341 0.06046 -0.77600
O 	O 	0.31113 0.07353 0.03345 -0.34700
O 	O 	0.30651 0.15829 0.06144 -0.37900
Co	Co	0.05813 0.99885 0.52901 1.18600
Co	Co	0.13761 0.86460 0.53360 1.16800
C 	C 	0.28681 0.11513 0.51167 0.35800
C 	C 	0.04135 0.21953 0.59890 0.27300
O 	O 	0.03324 0.95694 0.59013 -0.60300
C 	C 	0.23799 0.81971 0.62212 0.31700
O 	O 	0.26533 0.89024 0.58737 -0.39000
O 	O 	0.15959 0.79732 0.63506 -0.36900
O 	O 	0.06258 0.19870 0.57684 -0.37700
O 	O 	0.07790 0.90039 0.55732 -0.77500
O 	O 	0.23983 0.02773 0.50136 -0.36800
O 	O 	0.22976 0.11748 0.52597 -0.36100
C 	C 	0.06887 0.98733 0.81882 0.11700
C 	C 	0.13466 0.07865 0.78979 -0.13400
C 	C 	0.13508 0.06079 0.75823 0.11300
C 	C 	0.07683 0.00141 0.85552 0.05700
C 	C 	0.20512 0.19496 0.79233 0.79400
H 	H 	0.18912 0.12963 0.73694 0.07300
C 	C 	0.19710 0.06175 0.91842 -0.06700
C 	C 	0.18137 0.03585 0.88567 0.04300
C 	C 	0.31895 0.12518 0.94433 0.77800
H 	H 	0.25245 0.04692 0.88270 0.11200
F 	F 	0.31005 0.22240 0.82087 -0.41000
F 	F 	0.14427 0.20593 0.80312 -0.41100
F 	F 	0.22908 0.26849 0.75513 -0.43300
F 	F 	0.33162 0.19491 0.95728 -0.42900
F 	F 	0.40206 0.18843 0.92226 -0.40500
C 	C 	0.01057 0.98884 0.24988 -0.11200
C 	C 	0.01296 0.98059 0.28848 -0.03200
C 	C 	0.12352 0.04447 0.24011 0.80300
H 	H 	0.09405 0.00910 0.31174 0.12800
F 	F 	0.03788 0.20017 0.36343 -0.41600
F 	F 	0.11806 0.14094 0.42681 -0.45200
F 	F 	0.21979 0.08678 0.27167 -0.41200
F 	F 	0.14013 0.12983 0.20566 -0.44200
F 	F 	0.11859 0.96978 0.23356 -0.43800
C 	C 	0.12161 0.33789 0.64013 -0.01500
C 	C 	0.13338 0.32080 0.61301 -0.10700
H 	H 	0.04164 0.27869 0.65082 0.06700
H 	H 	0.21276 0.38091 0.60191 0.09300
C 	C 	0.53387 0.63592 0.67903 -0.00800
C 	C 	0.57417 0.66011 0.64935 -0.09900
H 	H 	0.59498 0.67461 0.70435 0.12100
H 	H 	0.51454 0.61793 0.62496 0.09200
C 	C 	0.29282 0.76213 0.64624 -0.11600
C 	C 	0.22660 0.65320 0.66083 -0.00800
H 	H 	0.38145 0.80464 0.64506 0.09500
H 	H 	0.13733 0.61093 0.66132 0.06700
C 	C 	0.17399 0.40094 0.11156 -0.10500
C 	C 	0.13537 0.43393 0.12167 -0.01200
H 	H 	0.26263 0.45544 0.10776 0.10100
H 	H 	0.04545 0.37946 0.12428 0.05400
C 	C 	0.49100 0.81238 0.11147 -0.01300
C 	C 	0.52555 0.79921 0.09061 -0.11100
H 	H 	0.54713 0.88899 0.11995 0.06300
H 	H 	0.47125 0.72235 0.08263 0.09600
C 	C 	0.19262 0.68425 0.16917 -0.00100
C 	C 	0.25451 0.78310 0.17475 -0.11400
H 	H 	0.09786 0.63422 0.16304 0.06000
H 	H 	0.34479 0.81916 0.19218 0.13500
C 	C 	0.44548 0.22686 0.47852 0.00700
C 	C 	0.39644 0.21028 0.50494 -0.12500
H 	H 	0.38871 0.18092 0.45532 0.09300
H 	H 	0.44598 0.27130 0.52157 0.10600
C 	C 	0.54439 0.18848 0.05952 0.02700
C 	C 	0.48389 0.21366 0.06135 -0.14600
H 	H 	0.50302 0.10414 0.06181 0.07100
H 	H 	0.52951 0.29119 0.06721 0.11700
C 	C 	0.09836 0.00640 0.96853 0.32300
C 	C 	0.09842 0.02775 0.92652 -0.02900
O 	O 	0.08234 0.91439 0.99467 -0.37700
O 	O 	0.06429 0.74661 0.07490 -0.45000
F 	F 	0.33975 0.05310 0.97747 -0.46100
Co	Co	0.01786 0.86928 0.09562 1.17300
Co	Co	0.01263 0.15106 0.05408 1.17200
N 	N 	0.66992 0.25433 0.01945 -0.11200
C 	C 	0.64472 0.88107 0.08423 0.31100
F 	F 	0.61401 0.86173 0.23524 -0.43600
C 	C 	0.69494 0.75471 0.64615 0.33600
F 	F 	0.65469 0.78872 0.30214 -0.39600
H 	H 	0.00110 0.60546 0.04756 0.01200
C 	C 	0.70742 0.23562 0.51897 0.13900
O 	O 	0.70938 0.96229 0.58000 -0.40900
H 	H 	0.71859 0.11310 0.57376 0.04400
C 	C 	0.71957 0.14629 0.54166 0.03000
C 	C 	0.72801 0.10376 0.52329 -0.19100
C 	C 	0.73411 0.01839 0.54406 0.38200
O 	O 	0.68389 0.98478 0.06776 -0.37800
C 	C 	0.70159 0.87920 0.27083 0.79200
H 	H 	0.73990 0.14454 0.49231 0.13600
C 	C 	0.05305 0.95737 0.75001 -0.07400
O 	O 	0.70528 0.84710 0.09085 -0.36500
H 	H 	0.71494 0.85029 0.21070 0.08600
F 	F 	0.73787 0.96909 0.27878 -0.42600
O 	O 	0.03170 0.69796 0.56049 -0.44000
Co	Co	0.02211 0.81228 0.59843 1.17800
C 	C 	0.01475 0.11211 0.39714 0.70500
O 	O 	0.01245 0.09433 0.51662 -0.42500
N 	N 	0.73048 0.37061 0.05425 -0.12500
C 	C 	0.00383 0.88142 0.81489 -0.11400
C 	C 	0.00348 0.95334 0.70669 0.21100
H 	H 	0.73819 0.36101 0.93849 0.09800
O 	O 	0.00175 0.83649 0.48261 -0.42800
H 	H 	0.74276 0.50844 0.54537 0.11000
O 	O 	0.74588 0.76173 0.62566 -0.38200
O 	O 	0.75035 0.83391 0.66282 -0.36000
C 	C 	0.99241 0.99142 0.89677 0.10900
O 	O 	0.97935 0.99438 0.06240 -0.54800
C 	C 	0.76376 0.39922 0.52161 0.14700
C 	C 	0.98250 0.98386 0.86006 -0.07600
F 	F 	0.89236 0.01509 0.78905 -0.38400
H 	H 	0.91676 0.96554 0.90281 0.08600
F 	F 	0.82298 0.72831 0.74566 -0.42700
H 	H 	0.99042 0.09581 0.32532 0.13200
C 	C 	0.95924 0.01849 0.34795 0.03900
C 	C 	0.96472 0.01131 0.38686 0.00000
F 	F 	0.93565 0.09102 0.41127 -0.37800
C 	C 	0.97156 0.90359 0.46029 0.36600
C 	C 	0.91553 0.92639 0.33829 0.07700
O 	O 	0.94845 0.93506 0.47750 -0.32000
Co	Co	0.95559 0.04897 0.56398 1.21700
C 	C 	0.91099 0.93655 0.29714 0.14500
O 	O 	0.94940 0.96149 0.16531 -0.30300
O 	O 	0.98733 0.02896 0.68024 -0.29800
O 	O 	0.93435 0.16165 0.60226 -0.35000
O 	O 	0.99828 0.88972 0.69460 -0.25900
C 	C 	0.76629 0.33334 0.00390 0.14100
C 	C 	0.82730 0.44962 0.03902 0.12200
N 	N 	0.84534 0.43078 0.01401 -0.11700
N 	N 	0.79043 0.33152 0.53032 -0.12100
Co	Co	0.88717 0.93429 0.10827 1.19400
C 	C 	0.95154 0.69847 0.06604 0.41100
Co	Co	0.84354 0.10462 0.09558 1.18700
O 	O 	0.81472 0.98797 0.15030 -0.38900
O 	O 	0.91498 0.05841 0.08303 -0.72700
C 	C 	0.89421 0.97200 0.17713 0.30600
O 	O 	0.90845 0.81698 0.12584 -0.40800
C 	C 	0.85523 0.22548 0.00732 0.34900
O 	O 	0.86659 0.22995 0.04240 -0.38700
O 	O 	0.89776 0.18422 0.00580 -0.36200
O 	O 	0.91190 0.73711 0.07107 -0.37900
Co	Co	0.92535 0.86518 0.63548 1.20100
C 	C 	0.92113 0.64768 0.55827 0.39200
Co	Co	0.84517 0.99716 0.63157 1.17000
O 	O 	0.92512 0.97623 0.61041 -0.75100
O 	O 	0.95042 0.75772 0.64325 -0.40200
O 	O 	0.78733 0.00535 0.53255 -0.37100
O 	O 	0.89387 0.68752 0.56919 -0.38700
C 	C 	0.99465 0.86527 0.78048 0.05600
C 	C 	0.92314 0.75050 0.77646 0.75000
H 	H 	0.95935 0.81190 0.83840 0.17700
C 	C 	0.86942 0.95112 0.82719 0.77500
F 	F 	0.89040 0.67302 0.81219 -0.40300
F 	F 	0.98824 0.74078 0.76750 -0.40400
F 	F 	0.80179 0.96398 0.83297 -0.41400
F 	F 	0.80570 0.84277 0.82820 -0.41900
C 	C 	0.87431 0.82493 0.36751 -0.10300
C 	C 	0.86496 0.81547 0.40379 0.10000
C 	C 	0.92365 0.90928 0.41601 -0.03800
C 	C 	0.85268 0.73083 0.36210 0.79000
H 	H 	0.82479 0.73628 0.42500 0.09000
C 	C 	0.80485 0.89946 0.26707 -0.11400
C 	C 	0.79882 0.89007 0.23182 0.07900
C 	C 	0.90147 0.94316 0.22102 0.04500
F 	F 	0.95043 0.76620 0.35439 -0.41100
F 	F 	0.75796 0.69147 0.32992 -0.39100
F 	F 	0.83031 0.64528 0.39671 -0.42000
C 	C 	0.83234 0.54997 0.54554 -0.14900
C 	C 	0.85649 0.50533 0.53278 0.01500
H 	H 	0.94621 0.54457 0.53399 0.08100
C 	C 	0.80879 0.27139 0.97184 -0.14000
C 	C 	0.76978 0.32390 0.96877 0.03900
H 	H 	0.80440 0.26824 0.94360 0.13300
C 	C 	0.91054 0.55666 0.04842 0.07200
C 	C 	0.87271 0.59833 0.05598 -0.18000
H 	H 	0.78009 0.55336 0.05295 0.12000
