data_crystal

_cell_length_a 15.76915
_cell_length_b 15.87080
_cell_length_c 62.16289
_cell_angle_alpha 89.47514
_cell_angle_beta  89.47641
_cell_angle_gamma 119.49651

_symmetry_space_group_name_	'P 1'
_symmetry_space_group_name_H-M	'P 1'

loop_
_symmetry_equiv_pos_as_xyz
  x,y,z

loop_
_atom_site_label
_atom_site_type_symbol
_atom_site_fract_x
_atom_site_fract_y
_atom_site_fract_z
_atom_site_charge
C 	C 	0.10314 0.60200 0.39964 0.30800
O 	O 	0.08397 0.51579 0.40741 -0.37500
O 	O 	0.04299 0.11077 0.21745 -0.38900
C 	C 	0.03898 0.29577 0.08253 -0.04300
C 	C 	0.07590 0.35092 0.06369 -0.02900
C 	C 	0.05455 0.42465 0.05875 -0.00800
C 	C 	0.10880 0.49272 0.04169 0.04700
H 	H 	0.05922 0.24151 0.08655 0.04000
H 	H 	0.12454 0.33895 0.05334 0.04200
C 	C 	0.06247 0.70179 0.10723 0.00200
C 	C 	0.05196 0.69595 0.08485 -0.04400
C 	C 	0.12221 0.69143 0.07184 -0.03100
H 	H 	0.03875 0.85946 0.10389 0.04800
H 	H 	0.11542 0.69098 0.05450 0.04300
C 	C 	0.26271 0.48004 0.29442 -0.03800
C 	C 	0.19892 0.41046 0.28027 -0.03000
C 	C 	0.21884 0.33932 0.27263 -0.00700
C 	C 	0.14699 0.26073 0.26035 0.04700
C 	C 	0.08577 0.19671 0.24984 -0.10500
H 	H 	0.24314 0.53064 0.30135 0.04400
H 	H 	0.13198 0.40945 0.27597 0.04200
C 	C 	0.02988 0.60686 0.38726 -0.08900
H 	H 	0.06524 0.88791 0.26198 0.04200
H 	H 	0.04530 0.83014 0.29955 0.05200
O 	O 	0.19315 0.67775 0.39836 -0.36600
C 	C 	0.23594 0.60444 0.01203 0.30200
O 	O 	0.28589 0.56695 0.00312 -0.37100
O 	O 	0.24004 0.68489 0.00423 -0.37600
C 	C 	0.16256 0.54639 0.02778 -0.09800
C 	C 	0.20293 0.69130 0.08108 -0.00900
C 	C 	0.21102 0.69181 0.10350 -0.03000
C 	C 	0.14083 0.69684 0.11658 -0.04000
C 	C 	0.28300 0.70507 0.06736 0.05400
H 	H 	0.14954 0.70103 0.13387 0.04300
C 	C 	0.34685 0.47856 0.30117 0.00400
C 	C 	0.30703 0.34301 0.27766 -0.03200
C 	C 	0.37152 0.41322 0.29172 -0.04000
H 	H 	0.32412 0.28968 0.27130 0.03800
O 	O 	0.24451 0.54138 0.38459 -0.38800
C 	C 	0.41524 0.62349 0.32452 -0.06500
C 	C 	0.39386 0.52751 0.32126 0.02700
C 	C 	0.33780 0.60045 0.38183 0.30900
O 	O 	0.38146 0.68001 0.39297 -0.37800
C 	C 	0.41112 0.74800 0.03589 0.32000
C 	C 	0.34533 0.72146 0.05399 -0.12000
H 	H 	0.27330 0.69202 0.11078 0.04100
C 	C 	0.38613 0.58929 0.36276 -0.09000
C 	C 	0.39011 0.47094 0.33913 -0.06300
C 	C 	0.38530 0.50147 0.35984 0.01300
H 	H 	0.37925 0.39868 0.33691 0.04600
H 	H 	0.37218 0.45313 0.37343 0.03400
H 	H 	0.42510 0.67051 0.31086 0.05100
C 	C 	0.40963 0.65383 0.34528 0.02300
H 	H 	0.41468 0.72378 0.34749 0.03400
H 	H 	0.43742 0.41286 0.29635 0.03800
O 	O 	0.42575 0.82216 0.02408 -0.38700
H 	H 	0.00821 0.38988 0.13661 0.04500
C 	C 	0.01398 0.12420 0.23648 0.31100
O 	O 	0.44745 0.69293 0.02994 -0.38000
H 	H 	0.55168 0.96045 0.08693 0.04600
H 	H 	0.56960 0.96589 0.04739 0.06000
H 	H 	0.57282 0.60154 0.37863 0.05000
C 	C 	0.58878 0.66059 0.38938 -0.05600
C 	C 	0.61031 0.95300 0.07966 -0.03600
C 	C 	0.62058 0.95624 0.05724 -0.02600
H 	H 	0.61745 0.89111 0.35963 0.04400
H 	H 	0.63473 0.92326 0.32048 0.04400
H 	H 	0.63452 0.76440 0.15623 0.03900
C 	C 	0.64061 0.85093 0.34946 -0.03700
C 	C 	0.64065 0.82888 0.14865 0.01800
C 	C 	0.64471 0.83702 0.12619 -0.06200
H 	H 	0.64187 0.77887 0.11667 0.05000
C 	C 	0.64372 0.75706 0.38204 0.02900
C 	C 	0.64947 0.90590 0.16120 -0.09000
C 	C 	0.64885 0.86815 0.32717 -0.03300
C 	C 	0.65454 0.99401 0.12854 -0.04900
C 	C 	0.65098 0.98616 0.15097 0.03200
H 	H 	0.65444 0.04482 0.16039 0.02500
O 	O 	0.65525 0.83181 0.19515 -0.37600
C 	C 	0.65564 0.92139 0.11607 0.02200
C 	C 	0.65923 0.77991 0.35847 0.00600
H 	H 	0.66123 0.05868 0.12089 0.03400
C 	C 	0.66078 0.86776 0.00845 -0.11400
C 	C 	0.67120 0.83169 0.39698 -0.06000
C 	C 	0.67273 0.93550 0.09257 0.00700
C 	C 	0.99851 0.72443 0.12058 0.02900
C 	C 	0.99815 0.81193 0.11727 -0.06200
O 	O 	0.99883 0.90765 0.22588 -0.37600
H 	H 	0.95627 0.91172 0.13011 0.03300
C 	C 	0.95078 0.84124 0.13204 0.01700
H 	H 	0.99116 0.69835 0.07748 0.04300
C 	C 	0.99120 0.43931 0.07218 -0.02700
H 	H 	0.97182 0.49409 0.06814 0.04100
C 	C 	0.93251 0.11237 0.17641 0.29600
C 	C 	0.89009 0.82927 0.16935 0.31300
C 	C 	0.92833 0.81798 0.23072 0.28400
Ni	Ni	0.98385 0.98347 0.20135 1.12700
O 	O 	0.96311 0.87278 0.18254 -0.38400
O 	O 	0.96401 0.04929 0.17527 -0.38900
C 	C 	0.92943 0.16228 0.15660 -0.08700
C 	C 	0.96522 0.26268 0.15633 0.01400
C 	C 	0.97519 0.31170 0.13681 -0.06200
C 	C 	0.94818 0.26043 0.11747 0.02400
C 	C 	0.90507 0.15910 0.11806 -0.06600
C 	C 	0.89744 0.11052 0.13744 0.01400
C 	C 	0.97937 0.31316 0.09660 0.00700
C 	C 	0.95407 0.38408 0.09116 -0.04100
H 	H 	0.98955 0.30334 0.17104 0.03800
H 	H 	0.88196 0.11857 0.10331 0.04400
H 	H 	0.86825 0.03278 0.13751 0.02900
H 	H 	0.90701 0.39729 0.10174 0.04000
C 	C 	0.90422 0.78381 0.15030 -0.09000
C 	C 	0.89620 0.69199 0.15241 0.02100
C 	C 	0.94366 0.66258 0.13766 -0.06600
H 	H 	0.85944 0.64657 0.16634 0.03100
H 	H 	0.94132 0.59374 0.14004 0.04700
C 	C 	0.92112 0.77794 0.25259 -0.08500
C 	C 	0.99731 0.82562 0.26714 0.01600
C 	C 	0.98571 0.79341 0.28851 -0.06500
C 	C 	0.89768 0.71352 0.29557 0.02700
C 	C 	0.82243 0.66458 0.28095 -0.06500
C 	C 	0.83410 0.69626 0.25959 0.01600
C 	C 	0.88675 0.67788 0.31797 0.00100
C 	C 	0.91002 0.74234 0.33508 -0.03900
C 	C 	0.92427 0.71524 0.35558 -0.03300
C 	C 	0.91634 0.62420 0.35894 -0.00200
C 	C 	0.87813 0.55507 0.34273 -0.03300
C 	C 	0.86453 0.58210 0.32218 -0.03900
C 	C 	0.97416 0.61337 0.37522 0.04500
H 	H 	0.92245 0.81504 0.33222 0.04400
H 	H 	0.95024 0.76805 0.36829 0.04500
H 	H 	0.86861 0.48333 0.34543 0.04200
H 	H 	0.84362 0.53071 0.30924 0.03900
C 	C 	0.70893 0.86336 0.24833 0.29500
C 	C 	0.67399 0.91072 0.18426 0.30200
Ni	Ni	0.81473 0.03467 0.21717 1.10400
Ni	Ni	0.76384 0.81026 0.20627 1.11800
O 	O 	0.70863 0.93979 0.23943 -0.35700
O 	O 	0.70433 0.79224 0.23636 -0.37500
O 	O 	0.91234 0.13729 0.19516 -0.37400
O 	O 	0.85860 0.76740 0.21675 -0.38000
O 	O 	0.70801 0.99328 0.19419 -0.36700
O 	O 	0.92128 0.09647 0.24045 -0.38500
O 	O 	0.80147 0.80805 0.17530 -0.39400
O 	O 	0.85438 0.94272 0.21165 -0.70300
H 	H 	0.86611 0.93561 0.22686 0.13700
C 	C 	0.69139 0.93926 0.04758 -0.00300
C 	C 	0.75903 0.93030 0.06050 -0.02800
C 	C 	0.74984 0.92849 0.08292 -0.04000
C 	C 	0.67831 0.90570 0.02578 0.06800
H 	H 	0.81496 0.91857 0.05320 0.04400
H 	H 	0.80067 0.91851 0.09277 0.04200
C 	C 	0.68501 0.72583 0.34476 -0.03800
C 	C 	0.69049 0.74144 0.32243 -0.03200
C 	C 	0.67392 0.81358 0.31360 -0.00300
C 	C 	0.68439 0.83261 0.29058 0.04200
C 	C 	0.69452 0.84762 0.27132 -0.09200
H 	H 	0.71988 0.90621 0.39216 0.05200
H 	H 	0.70006 0.67122 0.35134 0.04300
H 	H 	0.70714 0.69712 0.31204 0.04100
H 	H 	0.75459 0.60228 0.28618 0.04500
H 	H 	0.77463 0.65841 0.24859 0.03500
C 	C 	0.54557 0.64012 0.40996 0.01700
Ni	Ni	0.18548 0.47541 0.41309 1.12000
H 	H 	0.49384 0.56639 0.41429 0.04200
O 	O 	0.28916 0.43595 0.41573 -0.38700
Ni	Ni	0.31212 0.70935 0.41809 1.11300
C 	C 	0.62914 0.81091 0.41768 0.01800
C 	C 	0.55763 0.71586 0.42336 -0.08200
O 	O 	0.24731 0.58576 0.43107 -0.71400
H 	H 	0.18951 0.58868 0.43617 0.15400
C 	C 	0.31580 0.42039 0.43471 0.29800
O 	O 	0.43911 0.75832 0.43504 -0.38000
O 	O 	0.10286 0.38590 0.43735 -0.37100
C 	C 	0.39608 0.40192 0.43667 -0.04100
C 	C 	0.47643 0.70195 0.43783 0.30100
O 	O 	0.56189 0.31385 0.43947 -0.37000
O 	O 	0.26558 0.75511 0.44450 -0.36700
C 	C 	0.46448 0.39048 0.44080 -0.04400
C 	C 	0.07505 0.41682 0.45424 0.28500
O 	O 	0.27716 0.43280 0.45227 -0.38000
O 	O 	0.43085 0.62394 0.45036 -0.37100
C 	C 	0.54419 0.37880 0.44835 0.29800
Ni	Ni	0.28476 0.56013 0.45862 1.11800
Ni	Ni	0.57277 0.20684 0.45583 1.11700
O 	O 	0.57625 0.08497 0.46214 -0.38800
O 	O 	0.14073 0.48284 0.46723 -0.36000
C 	C 	0.30710 0.76139 0.46323 0.29500
O 	O 	0.42518 0.13081 0.46173 -0.37500
O 	O 	0.30020 0.68326 0.47302 -0.36100
C 	C 	0.38139 0.85522 0.47010 -0.04000
C 	C 	0.44750 0.93412 0.47463 -0.01300
O 	O 	0.58497 0.41865 0.46649 -0.37000
C 	C 	0.38272 0.15653 0.47675 0.31800
C 	C 	0.52769 0.02950 0.47841 0.28500
O 	O 	0.40945 0.24794 0.47915 -0.37800
C 	C 	0.32929 0.09098 0.49419 -0.11800
Ni	Ni	0.53868 0.33661 0.49444 1.11000
O 	O 	0.55199 0.06057 0.49798 -0.37200
C 	C 	0.24162 0.01190 0.53133 -0.02600
H 	H 	0.15203 0.07971 0.52946 0.04400
C 	C 	0.28757 0.04866 0.51056 0.06800
O 	O 	0.48153 0.27397 0.52455 -0.37800
C 	C 	0.18096 0.04512 0.53988 -0.02400
H 	H 	0.32227 0.93788 0.53852 0.05100
C 	C 	0.27639 0.96504 0.54495 -0.00600
H 	H 	0.12505 0.07578 0.56867 0.04300
C 	C 	0.21025 0.00673 0.57598 -0.01200
C 	C 	0.16602 0.04335 0.56213 -0.03800
C 	C 	0.26004 0.96177 0.56726 -0.02100
H 	H 	0.29245 0.93105 0.57779 0.04400
C 	C 	0.15573 0.98217 0.63582 0.03400
C 	C 	0.15710 0.95768 0.61426 -0.04600
H 	H 	0.10702 0.92723 0.64723 0.03800
H 	H 	0.10942 0.88410 0.60920 0.04900
C 	C 	0.21377 0.07833 0.64236 -0.10500
C 	C 	0.21722 0.02900 0.59915 0.01100
C 	C 	0.27681 0.14863 0.62742 0.02300
Ni	Ni	0.14092 0.01991 0.70823 1.10600
Ni	Ni	0.15583 0.22765 0.69383 1.12100
O 	O 	0.04605 0.24193 0.68087 -0.37800
O 	O 	0.08859 0.10390 0.70829 -0.71100
H 	H 	0.10849 0.12633 0.72301 0.13500
C 	C 	0.01622 0.97820 0.74938 0.32600
C 	C 	0.05567 0.24889 0.73154 0.29000
O 	O 	0.03945 0.91596 0.68844 -0.36800
O 	O 	0.13956 0.29026 0.72055 -0.37700
O 	O 	0.05536 0.94364 0.73534 -0.36100
C 	C 	0.05690 0.25188 0.75513 -0.08800
C 	C 	0.02226 0.19663 0.79873 0.02900
C 	C 	0.10386 0.20286 0.78802 -0.06400
C 	C 	0.12152 0.23110 0.76635 0.01500
H 	H 	0.15195 0.18321 0.79627 0.04300
C 	C 	0.00453 0.93315 0.79081 0.05700
C 	C 	0.01210 0.95293 0.77182 -0.09900
C 	C 	0.06881 0.21180 0.83730 -0.04000
H 	H 	0.14358 0.26336 0.83293 0.04000
H 	H 	0.08960 0.24705 0.87079 0.04300
C 	C 	0.04690 0.98080 0.82856 -0.00600
H 	H 	0.09538 0.92570 0.88829 0.05400
H 	H 	0.10518 0.05071 0.82316 0.02200
C 	C 	0.19768 0.66842 0.94983 -0.03700
C 	C 	0.11812 0.59723 0.94980 -0.04100
H 	H 	0.07904 0.84732 0.92347 0.04300
C 	C 	0.00033 0.16248 0.82132 0.00100
C 	C 	0.03826 0.20187 0.85879 -0.03400
C 	C 	0.02603 0.96231 0.85061 -0.02200
H 	H 	0.06667 0.01921 0.86194 0.02600
O 	O 	0.16735 0.16983 0.66561 -0.37800
C 	C 	0.19962 0.10758 0.66393 0.30000
O 	O 	0.25732 0.11895 0.72624 -0.38000
O 	O 	0.28723 0.24629 0.70348 -0.37800
O 	O 	0.22943 0.08009 0.68098 -0.37400
H 	H 	0.18128 0.23008 0.75794 0.02900
C 	C 	0.29166 0.75382 0.95080 0.27600
O 	O 	0.30714 0.81646 0.96635 -0.36300
C 	C 	0.02341 0.87426 0.89438 -0.06000
C 	C 	0.29939 0.21305 0.72212 0.30800
C 	C 	0.27872 0.12404 0.60593 -0.06500
H 	H 	0.32579 0.17949 0.59441 0.05400
H 	H 	0.32243 0.22285 0.63232 0.03200
C 	C 	0.36270 0.27966 0.73770 -0.10800
H 	H 	0.36132 0.30401 0.79325 0.03700
O 	O 	0.36640 0.75449 0.94057 -0.35900
Ni	Ni	0.36492 0.80937 0.99498 1.11700
H 	H 	0.36279 0.68761 0.97562 0.14000
C 	C 	0.02057 0.51667 0.94986 0.29900
C 	C 	0.43302 0.36566 0.79017 -0.03000
C 	C 	0.41229 0.33326 0.75157 0.04900
O 	O 	0.41846 0.56663 0.97067 -0.37200
O 	O 	0.42172 0.73818 0.98236 -0.69700
C 	C 	0.01407 0.82959 0.91443 0.01800
Ni	Ni	0.43593 0.64364 0.99841 1.11000
O 	O 	0.47723 0.94654 0.99181 -0.37100
C 	C 	0.46783 0.39310 0.76904 -0.00700
H 	H 	0.46682 0.38863 0.82368 0.04200
C 	C 	0.51850 0.23165 0.53650 0.29600
C 	C 	0.50597 0.22853 0.56008 -0.08700
C 	C 	0.48914 0.14488 0.57157 0.01500
C 	C 	0.53530 0.31462 0.57133 0.01200
H 	H 	0.46474 0.07734 0.56329 0.03400
H 	H 	0.54341 0.37850 0.56301 0.03100
C 	C 	0.51724 0.15128 0.59295 -0.06600
H 	H 	0.52957 0.15977 0.64283 0.04300
C 	C 	0.49245 0.41431 0.80742 -0.03900
C 	C 	0.53159 0.97954 0.97438 0.32800
Ni	Ni	0.49388 0.79658 0.95570 1.12100
O 	O 	0.50598 0.92767 0.95710 -0.38400
O 	O 	0.50187 0.68067 0.94435 -0.37200
C 	C 	0.48368 0.60156 0.95509 0.30400
C 	C 	0.52680 0.54627 0.94773 -0.04400
H 	H 	0.51202 0.08798 0.60098 0.04500
O 	O 	0.54116 0.17028 0.52789 -0.38500
C 	C 	0.55971 0.47412 0.76517 -0.02900
C 	C 	0.56595 0.32151 0.59266 -0.06600
H 	H 	0.56520 0.55747 0.84257 0.04900
C 	C 	0.56563 0.24178 0.60275 0.02600
C 	C 	0.56847 0.50315 0.94274 -0.03500
C 	C 	0.58717 0.49171 0.80367 0.00500
H 	H 	0.58643 0.49670 0.74883 0.04300
C 	C 	0.59599 0.08198 0.97173 -0.06200
O 	O 	0.58459 0.71548 0.99223 -0.38000
O 	O 	0.59534 0.26228 0.48445 -0.69900
H 	H 	0.59767 0.39060 0.60062 0.05000
C 	C 	0.60634 0.20039 0.63855 -0.04100
C 	C 	0.61896 0.52399 0.78245 -0.03900
O 	O 	0.62375 0.84800 0.97114 -0.36800
O 	O 	0.62226 0.41724 0.92019 -0.37000
C 	C 	0.62431 0.45612 0.93920 0.28000
C 	C 	0.62882 0.54839 0.84142 -0.06400
C 	C 	0.63073 0.80969 0.98955 0.31800
C 	C 	0.63689 0.25740 0.61964 0.00400
Ni	Ni	0.64208 0.20171 0.50433 1.11700
O 	O 	0.64037 0.27671 0.94172 -0.37000
C 	C 	0.64457 0.16610 0.96644 -0.02300
H 	H 	0.64390 0.86995 0.42838 0.04400
H 	H 	0.64894 0.14056 0.66479 0.03900
H 	H 	0.64929 0.55500 0.87566 0.03200
H 	H 	0.65838 0.32005 0.48106 0.14400
C 	C 	0.65703 0.52770 0.82153 0.02600
H 	H 	0.66369 0.57667 0.57247 0.04100
O 	O 	0.66892 0.42916 0.50924 -0.37200
O 	O 	0.66695 0.44168 0.95597 -0.36100
O 	O 	0.72019 0.27250 0.45144 -0.36000
C 	C 	0.97206 0.37012 0.45961 -0.03800
C 	C 	0.78020 0.27297 0.46663 0.27200
C 	C 	0.88458 0.32718 0.46282 -0.02600
O 	O 	0.74666 0.21178 0.48337 -0.36600
C 	C 	0.71094 0.39824 0.52309 0.30100
O 	O 	0.73509 0.33180 0.51780 -0.38000
C 	C 	0.97975 0.25284 0.76629 0.01800
C 	C 	0.99149 0.90995 0.81356 -0.01300
C 	C 	0.76746 0.49543 0.55896 0.04600
C 	C 	0.74623 0.45028 0.54259 -0.10400
O 	O 	0.96183 0.01630 0.74308 -0.39900
O 	O 	0.97406 0.18569 0.72213 -0.38500
C 	C 	0.73689 0.31099 0.61455 -0.04000
C 	C 	0.80429 0.30001 0.62698 -0.03100
C 	C 	0.77236 0.23560 0.64459 -0.00900
C 	C 	0.67386 0.18888 0.65089 -0.03000
H 	H 	0.76138 0.35462 0.59994 0.04300
H 	H 	0.88065 0.33791 0.62226 0.04000
C 	C 	0.82545 0.71026 0.63561 0.02800
C 	C 	0.85713 0.80932 0.63316 -0.06300
C 	C 	0.80750 0.65029 0.61650 0.00300
C 	C 	0.73323 0.63672 0.60239 -0.04000
C 	C 	0.72149 0.58705 0.58329 -0.03200
C 	C 	0.78330 0.54982 0.57824 -0.00700
C 	C 	0.85718 0.56254 0.59237 -0.03200
C 	C 	0.86921 0.61257 0.61150 -0.04000
H 	H 	0.86312 0.84075 0.61729 0.05200
H 	H 	0.68530 0.66555 0.60613 0.04300
H 	H 	0.90490 0.53350 0.58860 0.04000
H 	H 	0.92726 0.62335 0.62227 0.04200
C 	C 	0.83910 0.21183 0.65509 0.04900
C 	C 	0.94811 0.89496 0.68804 0.30300
C 	C 	0.96176 0.16988 0.67475 0.32300
Ni	Ni	0.95278 0.05507 0.71237 1.11600
O 	O 	0.93037 0.08128 0.68197 -0.40600
O 	O 	0.90899 0.91618 0.70435 -0.36900
C 	C 	0.89513 0.19201 0.66384 -0.11000
C 	C 	0.88601 0.83031 0.67145 -0.08600
C 	C 	0.84686 0.73006 0.67414 0.02100
C 	C 	0.81685 0.67014 0.65624 -0.06500
C 	C 	0.88679 0.86901 0.65105 0.01500
H 	H 	0.84563 0.69950 0.68987 0.03600
H 	H 	0.79058 0.59329 0.65830 0.05000
H 	H 	0.91720 0.94644 0.64883 0.04300
C 	C 	0.96260 0.22556 0.78800 -0.06400
H 	H 	0.93023 0.27012 0.75788 0.03400
H 	H 	0.90171 0.22493 0.79637 0.04900
H 	H 	0.85376 0.04753 0.81538 0.04000
C 	C 	0.74291 0.52176 0.82016 -0.06500
H 	H 	0.76715 0.50834 0.80486 0.04900
H 	H 	0.69104 0.58487 0.77934 0.04300
H 	H 	0.87431 0.76383 0.80928 0.04200
C 	C 	0.85092 0.30245 0.89946 0.32700
C 	C 	0.78387 0.49685 0.87823 0.29000
Ni	Ni	0.70136 0.35008 0.91400 1.12100
Ni	Ni	0.92769 0.50849 0.90966 1.12200
O 	O 	0.76790 0.27031 0.91019 -0.38500
O 	O 	0.87155 0.55360 0.88617 -0.38300
O 	O 	0.73376 0.40340 0.88344 -0.38200
O 	O 	0.89859 0.39213 0.89211 -0.38900
C 	C 	0.93865 0.14817 0.86403 -0.00700
C 	C 	0.87507 0.08343 0.84892 -0.03300
C 	C 	0.90562 0.09113 0.82745 -0.04000
C 	C 	0.90044 0.18849 0.87932 0.05200
C 	C 	0.87386 0.23450 0.88988 -0.10300
H 	H 	0.79903 0.03624 0.85315 0.03800
C 	C 	0.75512 0.52944 0.85900 -0.08300
C 	C 	0.79192 0.52294 0.83885 0.01800
C 	C 	0.67659 0.54730 0.86017 0.00900
H 	H 	0.85399 0.51129 0.83780 0.03700
C 	C 	0.94121 0.84531 0.88143 0.03300
C 	C 	0.84841 0.78104 0.89022 -0.05800
C 	C 	0.84006 0.73336 0.90990 0.01500
C 	C 	0.95365 0.87026 0.85796 0.00400
C 	C 	0.91773 0.81905 0.82075 -0.02500
C 	C 	0.89967 0.79884 0.84279 -0.03900
H 	H 	0.78344 0.76293 0.88116 0.05000
H 	H 	0.76939 0.67560 0.91524 0.03300
H 	H 	0.84470 0.72744 0.84805 0.04800
H 	H 	0.79265 0.50672 0.92147 0.14000
O 	O 	0.98138 0.63718 0.92493 -0.37800
C 	C 	0.92425 0.75086 0.92099 -0.07900
C 	C 	0.92510 0.67014 0.93258 0.28700
C 	C 	0.68936 0.26072 0.95653 0.29200
Ni	Ni	0.81335 0.47759 0.95621 1.11200
O 	O 	0.86282 0.62458 0.94885 -0.36000
O 	O 	0.76885 0.33314 0.96450 -0.35600
O 	O 	0.95744 0.51728 0.96373 -0.35300
O 	O 	0.98918 0.46581 0.93237 -0.37900
O 	O 	0.81043 0.45828 0.92613 -0.70700
