data_crystal

_cell_length_a 21.51162
_cell_length_b 20.01965
_cell_length_c 49.14607
_cell_angle_alpha 89.87943
_cell_angle_beta  89.88192
_cell_angle_gamma 119.74594

_symmetry_space_group_name_	'P 1'
_symmetry_space_group_name_H-M	'P 1'

loop_
_symmetry_equiv_pos_as_xyz
  x,y,z

loop_
_atom_site_label
_atom_site_type_symbol
_atom_site_fract_x
_atom_site_fract_y
_atom_site_fract_z
_atom_site_charge
C 	C 	0.85711 0.43321 0.91837 0.32700
C 	C 	0.55438 0.30349 0.88039 0.28200
C 	C 	0.74255 0.52326 0.91155 0.27800
C 	C 	0.66679 0.20809 0.88673 0.25900
C 	C 	0.58923 0.35776 0.97201 0.33700
C 	C 	0.68255 0.24450 0.97449 0.30800
Ni	Ni	0.71469 0.37606 0.88704 1.11400
Ni	Ni	0.59650 0.25486 0.92967 1.12200
Ni	Ni	0.73224 0.40592 0.95218 1.12400
O 	O 	0.82420 0.44184 0.89678 -0.37700
O 	O 	0.82400 0.40757 0.94212 -0.37100
O 	O 	0.56454 0.28636 0.96381 -0.38500
O 	O 	0.61488 0.32064 0.86814 -0.36400
O 	O 	0.55085 0.30324 0.90700 -0.37400
O 	O 	0.70491 0.31860 0.97986 -0.35600
O 	O 	0.69852 0.46719 0.89576 -0.37100
O 	O 	0.77406 0.50935 0.93205 -0.36200
O 	O 	0.64001 0.20817 0.95363 -0.38700
O 	O 	0.71776 0.27644 0.87806 -0.36000
O 	O 	0.60507 0.19850 0.89635 -0.36500
O 	O 	0.64571 0.41471 0.96055 -0.39300
O 	O 	0.69033 0.33759 0.92272 -0.71700
H 	H 	0.71762 0.31024 0.92414 0.15900
C 	C 	0.57783 0.37459 0.54915 0.30900
C 	C 	0.73456 0.39617 0.65267 0.27800
C 	C 	0.74342 0.53379 0.58004 0.28200
C 	C 	0.56415 0.23197 0.63047 0.26000
C 	C 	0.85017 0.40464 0.57817 0.33000
C 	C 	0.68655 0.22248 0.55458 0.31800
Ni	Ni	0.63404 0.39343 0.60919 1.11300
Ni	Ni	0.71811 0.29626 0.60813 1.12100
Ni	Ni	0.71940 0.38827 0.55554 1.12100
O 	O 	0.58207 0.40432 0.57405 -0.35300
O 	O 	0.61929 0.34631 0.54158 -0.39000
O 	O 	0.81348 0.33501 0.58868 -0.36800
O 	O 	0.67217 0.39194 0.64870 -0.35700
O 	O 	0.76830 0.38942 0.63189 -0.38200
O 	O 	0.72454 0.29304 0.54395 -0.38400
O 	O 	0.72018 0.50319 0.60409 -0.36600
O 	O 	0.72201 0.49118 0.55809 -0.37700
O 	O 	0.67566 0.21068 0.58117 -0.38700
O 	O 	0.55255 0.28414 0.61850 -0.36400
O 	O 	0.63052 0.24312 0.63414 -0.36800
O 	O 	0.81774 0.44232 0.57106 -0.40000
O 	O 	0.67388 0.34383 0.58902 -0.71700
H 	H 	0.63022 0.29779 0.58271 0.16700
C 	C 	0.92881 0.13536 0.71711 0.26300
C 	C 	0.92602 0.87331 0.77639 0.27800
C 	C 	0.93801 0.09564 0.78959 0.28100
C 	C 	0.91725 0.90176 0.69853 0.26100
C 	C 	0.13941 0.09197 0.77757 0.28200
C 	C 	0.14366 0.10735 0.70626 0.26400
Ni	Ni	0.89565 0.98281 0.74550 1.10200
Ni	Ni	0.04049 0.97471 0.73795 1.09700
Ni	Ni	0.05134 0.13880 0.74680 1.10500
O 	O 	0.88509 0.07735 0.73330 -0.36500
O 	O 	0.99968 0.16444 0.71745 -0.35400
O 	O 	0.13140 0.04097 0.75900 -0.38300
O 	O 	0.88120 0.87803 0.75957 -0.36900
O 	O 	0.99529 0.91951 0.77356 -0.36800
O 	O 	0.13555 0.15831 0.72147 -0.37400
O 	O 	0.91921 0.02410 0.78472 -0.36300
O 	O 	0.98329 0.15033 0.77316 -0.35500
O 	O 	0.09367 0.03386 0.70484 -0.38800
O 	O 	0.87916 0.93333 0.70720 -0.37000
O 	O 	0.95951 0.89047 0.71544 -0.36000
O 	O 	0.09402 0.11746 0.77957 -0.39500
O 	O 	0.99348 0.03392 0.73690 -0.69500
H 	H 	0.99167 0.04139 0.71716 0.16900
C 	C 	0.47184 0.82246 0.37157 0.25500
C 	C 	0.24671 0.50362 0.38231 0.28200
C 	C 	0.27259 0.72048 0.35050 0.27600
C 	C 	0.43381 0.58238 0.40342 0.32200
C 	C 	0.21959 0.65322 0.44078 0.33800
C 	C 	0.41577 0.76457 0.45354 0.30900
Ni	Ni	0.36841 0.65500 0.36466 1.11200
Ni	Ni	0.32471 0.60987 0.42810 1.12200
Ni	Ni	0.33729 0.76572 0.40476 1.12100
O 	O 	0.46542 0.75713 0.36225 -0.36000
O 	O 	0.41434 0.82957 0.37621 -0.36500
O 	O 	0.22848 0.60098 0.42846 -0.39800
O 	O 	0.26604 0.56115 0.36532 -0.37000
O 	O 	0.28239 0.51245 0.40499 -0.37600
O 	O 	0.40918 0.80855 0.43482 -0.38700
O 	O 	0.32804 0.71448 0.34250 -0.36100
O 	O 	0.25889 0.72141 0.37646 -0.37100
O 	O 	0.36456 0.69200 0.45764 -0.37700
O 	O 	0.41332 0.58721 0.37814 -0.37000
O 	O 	0.41930 0.61346 0.42435 -0.38700
O 	O 	0.25986 0.72636 0.43410 -0.37800
O 	O 	0.35895 0.68461 0.40008 -0.71100
H 	H 	0.40980 0.71241 0.40512 0.15400
C 	C 	0.38894 0.53963 0.10179 0.31700
C 	C 	0.15946 0.62173 0.12225 0.28100
C 	C 	0.19963 0.44564 0.07984 0.28000
C 	C 	0.34894 0.72070 0.14681 0.25800
C 	C 	0.23685 0.65118 0.03571 0.33700
C 	C 	0.42576 0.76811 0.06127 0.31100
Ni	Ni	0.26409 0.56198 0.12370 1.11300
Ni	Ni	0.28965 0.71556 0.09081 1.12000
Ni	Ni	0.32339 0.59537 0.06171 1.12500
O 	O 	0.33094 0.51340 0.11778 -0.37000
O 	O 	0.40189 0.58978 0.08193 -0.38900
O 	O 	0.26709 0.71391 0.05069 -0.38400
O 	O 	0.18990 0.59257 0.13774 -0.36300
O 	O 	0.18393 0.64640 0.09771 -0.37800
O 	O 	0.39199 0.70307 0.04690 -0.37100
O 	O 	0.18475 0.47986 0.09935 -0.37000
O 	O 	0.26356 0.47937 0.06847 -0.36900
O 	O 	0.39340 0.78350 0.08138 -0.38900
O 	O 	0.33427 0.64824 0.14944 -0.36000
O 	O 	0.30856 0.73919 0.13156 -0.36700
O 	O 	0.23835 0.58919 0.04316 -0.38500
O 	O 	0.30762 0.63231 0.09490 -0.71600
H 	H 	0.35713 0.66086 0.10164 0.15900
C 	C 	0.94087 0.83567 0.21545 0.28100
C 	C 	0.05994 0.15765 0.25152 0.25200
C 	C 	0.01775 0.93003 0.28384 0.24800
C 	C 	0.99717 0.06705 0.18082 0.28200
C 	C 	0.85494 0.00498 0.28719 0.29000
C 	C 	0.78312 0.91233 0.21704 0.26200
Ni	Ni	0.03578 0.00577 0.23000 1.11000
Ni	Ni	0.91319 0.05558 0.23166 1.12500
Ni	Ni	0.87947 0.89411 0.25700 1.12100
O 	O 	0.00531 0.88951 0.22389 -0.39000
O 	O 	0.88127 0.82320 0.22807 -0.37000
O 	O 	0.84481 0.02816 0.26335 -0.37500
O 	O 	0.08427 0.12478 0.23475 -0.36100
O 	O 	0.99160 0.12496 0.25754 -0.35200
O 	O 	0.78857 0.88678 0.24150 -0.37600
O 	O 	0.04954 0.99655 0.27126 -0.37600
O 	O 	0.95389 0.87568 0.27616 -0.34700
O 	O 	0.82852 0.98388 0.20900 -0.38300
O 	O 	0.02788 0.02713 0.18909 -0.38600
O 	O 	0.97848 0.10439 0.19849 -0.36600
O 	O 	0.88111 0.95799 0.28882 -0.38200
O 	O 	0.93930 0.97801 0.23378 -0.71300
H 	H 	0.92164 0.95389 0.21592 0.15400
C 	C 	0.05493 0.25629 0.08525 0.05300
C 	C 	0.99769 0.21256 0.10309 -0.05800
C 	C 	0.99405 0.14732 0.11531 0.04100
C 	C 	0.05047 0.13236 0.11294 0.05000
C 	C 	0.11157 0.18137 0.09755 -0.07800
C 	C 	0.11034 0.23992 0.08216 0.01400
N 	N 	0.07900 0.33138 0.08036 -0.14800
C 	C 	0.14960 0.36382 0.07449 0.00400
C 	C 	0.17087 0.30857 0.07528 -0.04400
N 	N 	0.05296 0.09373 0.13501 -0.16000
C 	C 	0.99891 0.08439 0.15158 0.03000
C 	C 	0.96127 0.11717 0.14009 -0.05500
H 	H 	0.96067 0.23203 0.10886 0.05900
H 	H 	0.16001 0.17767 0.09910 0.05500
H 	H 	0.22506 0.32123 0.07950 0.05000
H 	H 	0.93110 0.13767 0.15162 0.05600
H 	H 	0.05483 0.36169 0.08803 0.09100
H 	H 	0.09915 0.09390 0.14171 0.09100
C 	C 	0.63001 0.85367 0.17595 0.08200
C 	C 	0.59086 0.88272 0.16259 -0.08500
C 	C 	0.52004 0.85654 0.17100 0.01700
C 	C 	0.49005 0.80466 0.19254 0.07800
C 	C 	0.53053 0.77814 0.20648 -0.08100
C 	C 	0.59944 0.80048 0.19692 0.01500
N 	N 	0.70160 0.89395 0.17874 -0.15200
C 	C 	0.71698 0.86682 0.20149 0.00800
C 	C 	0.65475 0.80840 0.21323 -0.04300
N 	N 	0.41936 0.75955 0.18865 -0.15100
C 	C 	0.40386 0.77920 0.16430 0.01100
C 	C 	0.46489 0.84078 0.15314 -0.05100
H 	H 	0.61418 0.92306 0.14585 0.06000
H 	H 	0.50749 0.73790 0.22325 0.05600
H 	H 	0.64887 0.79346 0.23465 0.05500
H 	H 	0.47270 0.85269 0.13151 0.05300
H 	H 	0.73415 0.94896 0.17064 0.09300
H 	H 	0.38899 0.70526 0.19762 0.09400
C 	C 	0.96309 0.69274 0.18282 0.11400
C 	C 	0.00225 0.65431 0.18627 -0.14600
C 	C 	0.05841 0.67137 0.16810 0.02900
C 	C 	0.07198 0.72046 0.14616 0.07600
C 	C 	0.03152 0.75688 0.14205 -0.10800
C 	C 	0.97700 0.74241 0.16082 0.03600
N 	N 	0.93770 0.71465 0.20398 -0.15500
C 	C 	0.93623 0.77840 0.19593 0.01100
C 	C 	0.96016 0.79735 0.16926 -0.05200
N 	N 	0.10306 0.70271 0.12583 -0.15300
C 	C 	0.10828 0.64146 0.13437 -0.00000
C 	C 	0.08212 0.62119 0.16079 -0.04700
H 	H 	0.99147 0.61537 0.20323 0.08900
H 	H 	0.04260 0.79581 0.12506 0.05500
H 	H 	0.98451 0.85519 0.16100 0.05800
H 	H 	0.06615 0.56619 0.17035 0.04800
H 	H 	0.94200 0.70182 0.22430 0.09800
H 	H 	0.10624 0.72007 0.10556 0.08500
C 	C 	0.77179 0.99794 0.35046 0.07000
C 	C 	0.72548 0.94493 0.36987 -0.08100
C 	C 	0.66196 0.94530 0.37615 0.02000
C 	C 	0.64016 0.98845 0.36077 0.06400
C 	C 	0.68318 0.03543 0.33939 -0.06900
C 	C 	0.75157 0.04390 0.33596 0.02500
N 	N 	0.81854 0.98628 0.33579 -0.15400
C 	C 	0.82829 0.02420 0.31197 0.01800
C 	C 	0.78756 0.06067 0.31134 -0.04500
N 	N 	0.56810 0.95391 0.36046 -0.15000
C 	C 	0.54363 0.88892 0.37544 0.00800
C 	C 	0.60035 0.88163 0.38547 -0.05000
H 	H 	0.73582 0.90122 0.37818 0.06100
H 	H 	0.66217 0.05972 0.32478 0.05700
H 	H 	0.76893 0.07462 0.29287 0.05700
H 	H 	0.59679 0.82723 0.39074 0.05700
H 	H 	0.82643 0.93916 0.33842 0.09500
H 	H 	0.53872 0.96144 0.34502 0.08800
C 	C 	0.12747 0.35711 0.33990 0.07800
C 	C 	0.10337 0.35401 0.31318 -0.08300
C 	C 	0.12861 0.32453 0.29284 0.01300
C 	C 	0.17233 0.29395 0.29913 0.07900
C 	C 	0.19583 0.29599 0.32588 -0.08200
C 	C 	0.17276 0.32823 0.34614 0.01400
N 	N 	0.13982 0.41509 0.35679 -0.15100
C 	C 	0.19459 0.42614 0.37313 0.00300
C 	C 	0.21546 0.37202 0.36740 -0.04200
N 	N 	0.16102 0.23756 0.28153 -0.15200
C 	C 	0.10972 0.23128 0.26415 0.00900
C 	C 	0.08905 0.28519 0.27042 -0.04800
H 	H 	0.06814 0.37646 0.30824 0.05200
H 	H 	0.23086 0.27327 0.33078 0.05700
H 	H 	0.26895 0.38157 0.37097 0.05000
H 	H 	0.03706 0.27832 0.26557 0.04300
H 	H 	0.12744 0.45814 0.35207 0.09400
H 	H 	0.17049 0.19234 0.28612 0.09200
C 	C 	0.14791 0.89402 0.31373 0.07000
C 	C 	0.20740 0.88684 0.30624 -0.08000
C 	C 	0.20248 0.81459 0.30913 0.00900
C 	C 	0.14152 0.75246 0.32005 0.08000
C 	C 	0.08191 0.75948 0.32741 -0.09200
C 	C 	0.08668 0.83160 0.32439 0.02700
N 	N 	0.13099 0.94265 0.30113 -0.15300
C 	C 	0.05909 0.91128 0.30326 0.01700
C 	C 	0.02971 0.84214 0.31764 -0.08500
N 	N 	0.15884 0.70448 0.33288 -0.15300
C 	C 	0.23061 0.73550 0.33037 0.00300
C 	C 	0.25955 0.80399 0.31567 -0.04300
H 	H 	0.25531 0.93544 0.29803 0.05200
H 	H 	0.03403 0.71088 0.33563 0.05400
H 	H 	0.97505 0.79574 0.31545 0.08000
H 	H 	0.31418 0.85053 0.31785 0.05000
H 	H 	0.16197 0.98086 0.28570 0.08300
H 	H 	0.12838 0.66695 0.34855 0.09400
C 	C 	0.66451 0.03297 0.53187 -0.09400
C 	C 	0.60993 0.01129 0.51268 0.01700
C 	C 	0.58949 0.06467 0.50403 0.11600
C 	C 	0.61904 0.13677 0.51644 -0.03300
C 	C 	0.66919 0.15602 0.53732 -0.11700
C 	C 	0.69432 0.10522 0.54421 0.19300
C 	C 	0.57056 0.93145 0.50304 -0.00900
O 	O 	0.53758 0.04467 0.48459 -0.26900
H 	H 	0.60033 0.17614 0.51077 0.05600
O 	O 	0.74840 0.12648 0.56279 -0.27300
H 	H 	0.68221 0.99297 0.53785 0.06700
C 	C 	0.59207 0.91077 0.47900 0.12400
C 	C 	0.54315 0.84514 0.46482 -0.03300
C 	C 	0.47200 0.80259 0.47385 -0.11600
C 	C 	0.45406 0.81644 0.49995 0.19500
C 	C 	0.50377 0.88060 0.51462 -0.10500
O 	O 	0.65956 0.95668 0.46863 -0.27300
H 	H 	0.55831 0.83224 0.44532 0.05600
O 	O 	0.38667 0.77026 0.51038 -0.28100
H 	H 	0.48816 0.89450 0.53384 0.07200
H 	H 	0.72411 0.10603 0.58052 0.15500
H 	H 	0.65525 0.99321 0.45616 0.14400
H 	H 	0.35806 0.79415 0.50445 0.15700
H 	H 	0.56372 0.05973 0.46699 0.14800
C 	C 	0.07136 0.59821 0.49206 -0.12400
C 	C 	0.09176 0.56300 0.51219 0.01900
C 	C 	0.15834 0.56635 0.51030 0.11400
C 	C 	0.20251 0.60135 0.48774 -0.02500
C 	C 	0.18043 0.63267 0.46679 -0.13400
C 	C 	0.11571 0.63339 0.46944 0.20000
C 	C 	0.04087 0.51747 0.53397 -0.03400
O 	O 	0.18030 0.53526 0.53045 -0.26300
H 	H 	0.25244 0.60088 0.48595 0.05100
O 	O 	0.09353 0.66396 0.44919 -0.29600
H 	H 	0.02023 0.59630 0.49356 0.06700
C 	C 	0.03109 0.55419 0.55655 0.10000
C 	C 	0.97410 0.51225 0.57453 -0.00400
C 	C 	0.92454 0.43473 0.56925 -0.12000
C 	C 	0.93982 0.39603 0.54870 0.17500
C 	C 	0.99796 0.43756 0.53112 -0.04100
O 	O 	0.07630 0.63124 0.56081 -0.26900
H 	H 	0.96434 0.54183 0.59100 0.05600
O 	O 	0.89609 0.31845 0.54496 -0.26300
H 	H 	0.00734 0.40835 0.51442 0.03900
H 	H 	0.11265 0.71862 0.45426 0.15200
H 	H 	0.05392 0.65765 0.55125 0.13700
H 	H 	0.86037 0.31366 0.53124 0.16000
H 	H 	0.16315 0.48134 0.52482 0.14400
C 	C 	0.54362 0.51702 0.43873 -0.11500
C 	C 	0.48774 0.45047 0.45074 0.00400
C 	C 	0.41934 0.41554 0.43882 0.12300
C 	C 	0.40560 0.45264 0.41742 -0.04000
C 	C 	0.45777 0.52710 0.40948 -0.12200
C 	C 	0.52881 0.55522 0.41798 0.19300
C 	C 	0.49841 0.42483 0.47776 0.00600
O 	O 	0.36414 0.34985 0.44992 -0.27000
H 	H 	0.35150 0.42843 0.40981 0.06000
O 	O 	0.58202 0.62501 0.40866 -0.29200
H 	H 	0.59737 0.54223 0.44685 0.07400
C 	C 	0.49385 0.35274 0.48098 0.12300
C 	C 	0.50854 0.33149 0.50628 -0.03500
C 	C 	0.53474 0.38455 0.52781 -0.11500
C 	C 	0.53565 0.45518 0.52500 0.19400
C 	C 	0.51606 0.47421 0.50022 -0.11300
O 	O 	0.47687 0.30376 0.45928 -0.27500
H 	H 	0.50564 0.27610 0.50844 0.06300
O 	O 	0.55745 0.50653 0.54613 -0.28300
H 	H 	0.51758 0.52891 0.49811 0.08000
H 	H 	0.60242 0.61288 0.39255 0.15000
H 	H 	0.52329 0.31747 0.45051 0.14500
H 	H 	0.60967 0.54070 0.54339 0.15500
H 	H 	0.36142 0.30710 0.43887 0.15700
C 	C 	0.76546 0.29120 0.70084 0.07400
C 	C 	0.75676 0.21678 0.69907 -0.08400
C 	C 	0.81697 0.20994 0.69281 0.01100
C 	C 	0.88477 0.27361 0.69211 0.08200
C 	C 	0.89489 0.34772 0.69614 -0.08300
C 	C 	0.83375 0.35573 0.69947 0.01500
N 	N 	0.71719 0.30793 0.69009 -0.15300
C 	C 	0.75360 0.38020 0.67978 -0.00100
C 	C 	0.82583 0.41277 0.68666 -0.04300
N 	N 	0.93460 0.25338 0.69777 -0.15000
C 	C 	0.89845 0.17619 0.70185 0.01400
C 	C 	0.82493 0.14735 0.69913 -0.04500
H 	H 	0.70398 0.16634 0.70013 0.05500
H 	H 	0.94794 0.39774 0.69519 0.06100
H 	H 	0.86860 0.45952 0.67528 0.05500
H 	H 	0.78402 0.09525 0.70881 0.05200
H 	H 	0.66689 0.26610 0.68320 0.09400
H 	H 	0.98503 0.29069 0.70590 0.09800
C 	C 	0.31299 0.12915 0.69524 0.07600
C 	C 	0.38691 0.15958 0.69895 -0.08200
C 	C 	0.42376 0.14050 0.67949 0.01300
C 	C 	0.39113 0.10521 0.65516 0.08000
C 	C 	0.31953 0.08507 0.64998 -0.08100
C 	C 	0.28005 0.09158 0.67156 0.01300
N 	N 	0.27370 0.15538 0.70786 -0.15200
C 	C 	0.21330 0.13145 0.69292 0.00700
C 	C 	0.21783 0.09524 0.66927 -0.04500
N 	N 	0.44067 0.12473 0.63537 -0.15200
C 	C 	0.50514 0.17234 0.64671 0.01100
C 	C 	0.49649 0.18366 0.67416 -0.04600
H 	H 	0.41494 0.19874 0.71548 0.05500
H 	H 	0.29683 0.06848 0.62982 0.05800
H 	H 	0.17300 0.05789 0.65648 0.05200
H 	H 	0.53282 0.23484 0.68539 0.05000
H 	H 	0.27883 0.17076 0.72838 0.09100
H 	H 	0.42977 0.12440 0.61462 0.09200
C 	C 	0.80794 0.72426 0.59671 0.08000
C 	C 	0.78856 0.75945 0.61724 -0.08000
C 	C 	0.82827 0.78016 0.64127 0.01300
C 	C 	0.89021 0.77597 0.64361 0.08400
C 	C 	0.91470 0.74950 0.62207 -0.08200
C 	C 	0.87121 0.72094 0.59887 0.01800
N 	N 	0.75838 0.66234 0.58318 -0.15000
C 	C 	0.78736 0.61739 0.57771 0.00300
C 	C 	0.85824 0.65369 0.58620 -0.04100
N 	N 	0.93311 0.82506 0.66270 -0.15100
C 	C 	0.89929 0.86195 0.67225 0.00900
C 	C 	0.83333 0.83481 0.65958 -0.04200
H 	H 	0.74024 0.76332 0.61556 0.05600
H 	H 	0.96333 0.74632 0.62396 0.06100
H 	H 	0.88626 0.62288 0.59135 0.05600
H 	H 	0.80246 0.86413 0.65900 0.05100
H 	H 	0.70327 0.64081 0.58535 0.08900
H 	H 	0.98781 0.84444 0.66475 0.09200
C 	C 	0.19050 0.61098 0.96193 -0.11600
C 	C 	0.12452 0.60902 0.96156 -0.00200
C 	C 	0.10440 0.63829 0.98390 0.12300
C 	C 	0.14591 0.66009 0.00755 -0.03100
C 	C 	0.20713 0.65259 0.00905 -0.12600
C 	C 	0.23189 0.63266 0.98559 0.19900
C 	C 	0.07059 0.56149 0.94115 0.03000
O 	O 	0.04063 0.63829 0.98363 -0.27700
H 	H 	0.12758 0.67734 0.02535 0.05500
O 	O 	0.29373 0.62874 0.98642 -0.30100
H 	H 	0.20726 0.59052 0.94454 0.07000
C 	C 	0.04308 0.59498 0.92315 0.07300
C 	C 	0.97555 0.54932 0.91153 0.01800
C 	C 	0.93551 0.47081 0.91815 -0.14500
C 	C 	0.96928 0.43556 0.93167 0.24100
C 	C 	0.03661 0.48110 0.94334 -0.16200
O 	O 	0.07886 0.67303 0.91895 -0.27500
H 	H 	0.95173 0.57619 0.89953 0.04900
O 	O 	0.93333 0.35756 0.93602 -0.29200
H 	H 	0.05947 0.45449 0.95604 0.08500
H 	H 	0.33194 0.67995 0.98017 0.16000
H 	H 	0.11016 0.68156 0.90295 0.13500
H 	H 	0.94573 0.33559 0.92023 0.15300
H 	H 	0.05254 0.68987 0.97671 0.15000
C 	C 	0.62721 0.11237 0.03418 -0.11200
C 	C 	0.64608 0.05894 0.02450 0.02000
C 	C 	0.69589 0.08020 0.00307 0.11600
C 	C 	0.71711 0.14891 0.98878 -0.03100
C 	C 	0.68875 0.19642 0.99577 -0.10900
C 	C 	0.64783 0.18069 0.01976 0.19400
C 	C 	0.60212 0.97710 0.03246 -0.00500
O 	O 	0.71879 0.03081 0.99452 -0.26900
H 	H 	0.75048 0.16173 0.97080 0.06000
O 	O 	0.62375 0.22924 0.02808 -0.26800
H 	H 	0.59121 0.09785 0.05142 0.08600
C 	C 	0.60103 0.95401 0.05960 0.10400
C 	C 	0.54658 0.88180 0.06845 -0.03100
C 	C 	0.49297 0.83237 0.05036 -0.12000
C 	C 	0.49860 0.85249 0.02260 0.19300
C 	C 	0.55295 0.92461 0.01381 -0.11000
O 	O 	0.65044 0.00363 0.07785 -0.25500
H 	H 	0.54419 0.86571 0.08965 0.05100
O 	O 	0.44759 0.80465 0.00446 -0.28800
H 	H 	0.55418 0.94155 0.99276 0.07600
H 	H 	0.57653 0.21003 0.01921 0.15800
H 	H 	0.69075 0.99294 0.07697 0.13400
H 	H 	0.46643 0.77248 0.99670 0.15200
H 	H 	0.76267 0.04500 0.00520 0.15100
C 	C 	0.57266 0.39632 0.04606 -0.11300
C 	C 	0.50873 0.39890 0.04603 0.00800
C 	C 	0.47087 0.38728 0.02145 0.11500
C 	C 	0.49663 0.37198 0.99742 -0.02700
C 	C 	0.56158 0.37178 0.99740 -0.12900
C 	C 	0.60058 0.38597 0.02172 0.19700
C 	C 	0.48876 0.42745 0.07034 0.00900
O 	O 	0.41234 0.39744 0.02044 -0.27500
H 	H 	0.46717 0.36274 0.97864 0.05400
O 	O 	0.66633 0.39056 0.02168 -0.27600
H 	H 	0.60277 0.40662 0.06473 0.08100
C 	C 	0.42185 0.38251 0.08306 0.12100
C 	C 	0.39276 0.41843 0.09896 -0.03100
C 	C 	0.42992 0.49885 0.10158 -0.11900
C 	C 	0.50285 0.53978 0.09431 0.19800
C 	C 	0.53181 0.50433 0.07822 -0.11400
O 	O 	0.38556 0.30399 0.08030 -0.27300
H 	H 	0.33873 0.38492 0.10682 0.05800
O 	O 	0.54449 0.61555 0.10153 -0.29000
H 	H 	0.58570 0.53805 0.07022 0.07500
H 	H 	0.70138 0.44560 0.01834 0.14300
H 	H 	0.34968 0.29279 0.06584 0.14200
H 	H 	0.54357 0.64584 0.08569 0.15800
H 	H 	0.37018 0.34494 0.02128 0.14100
C 	C 	0.69424 0.07526 0.85016 0.07900
C 	C 	0.71584 0.06924 0.82374 -0.08000
C 	C 	0.77910 0.06634 0.82079 0.01200
C 	C 	0.82353 0.07751 0.84271 0.08400
C 	C 	0.80608 0.09210 0.86867 -0.08200
C 	C 	0.73857 0.08582 0.87234 0.02000
N 	N 	0.65355 0.10762 0.85515 -0.15100
C 	C 	0.67225 0.14026 0.87997 0.01200
C 	C 	0.72466 0.12762 0.89131 -0.04600
N 	N 	0.89138 0.10531 0.83410 -0.15200
C 	C 	0.89064 0.11066 0.80666 0.00600
C 	C 	0.82195 0.09007 0.79793 -0.04400
H 	H 	0.68789 0.07366 0.80612 0.05500
H 	H 	0.84557 0.11366 0.88477 0.06200
H 	H 	0.76320 0.16517 0.90622 0.05300
H 	H 	0.80258 0.07457 0.77730 0.04700
H 	H 	0.63171 0.12624 0.83991 0.09100
H 	H 	0.93133 0.10257 0.84529 0.09500
C 	C 	0.37561 0.21614 0.85537 0.07700
C 	C 	0.31536 0.22317 0.84931 -0.08200
C 	C 	0.28754 0.20502 0.82287 0.01000
C 	C 	0.31712 0.17823 0.80346 0.07600
C 	C 	0.37725 0.17129 0.80948 -0.08300
C 	C 	0.40531 0.18974 0.83582 0.01200
N 	N 	0.42610 0.26204 0.87327 -0.15100
C 	C 	0.48795 0.26724 0.86463 -0.00100
C 	C 	0.47709 0.22200 0.84188 -0.04000
N 	N 	0.26682 0.13232 0.78559 -0.15200
C 	C 	0.20511 0.12814 0.79380 -0.00400
C 	C 	0.21582 0.17372 0.81651 -0.04300
H 	H 	0.29188 0.24331 0.86445 0.05300
H 	H 	0.40075 0.15123 0.79432 0.05400
H 	H 	0.51850 0.22886 0.82769 0.05300
H 	H 	0.17422 0.16682 0.83059 0.04800
H 	H 	0.42274 0.30222 0.88584 0.09100
H 	H 	0.27025 0.09215 0.77305 0.08900
C 	C 	0.84540 0.70107 0.87860 0.08000
C 	C 	0.90447 0.73468 0.86072 -0.08300
C 	C 	0.89167 0.74340 0.83333 0.01400
C 	C 	0.82377 0.72414 0.82434 0.07700
C 	C 	0.76568 0.69542 0.84246 -0.08300
C 	C 	0.77756 0.68389 0.86974 0.01300
N 	N 	0.83968 0.65247 0.89874 -0.15100
C 	C 	0.76890 0.60320 0.90257 0.00600
C 	C 	0.72886 0.62215 0.88521 -0.04500
N 	N 	0.82807 0.76443 0.80179 -0.15000
C 	C 	0.89864 0.80995 0.79642 0.00400
C 	C 	0.94023 0.79918 0.81572 -0.04300
H 	H 	0.95754 0.74930 0.86759 0.06100
H 	H 	0.71269 0.68071 0.83545 0.05400
H 	H 	0.67520 0.58151 0.87846 0.05500
H 	H 	0.99463 0.84162 0.82097 0.05700
H 	H 	0.87972 0.63924 0.90346 0.09800
H 	H 	0.78794 0.77565 0.79521 0.08800
