data_crystal

_cell_length_a 39.79752
_cell_length_b 39.64433
_cell_length_c 22.82661
_cell_angle_alpha 89.96504
_cell_angle_beta  89.94762
_cell_angle_gamma 89.99903

_symmetry_space_group_name_	'P 1'
_symmetry_space_group_name_H-M	'P 1'

loop_
_symmetry_equiv_pos_as_xyz
  x,y,z

loop_
_atom_site_label
_atom_site_type_symbol
_atom_site_fract_x
_atom_site_fract_y
_atom_site_fract_z
_atom_site_charge
C 	C 	0.55249 0.45461 0.04037 0.10100
N 	N 	0.52032 0.45644 0.02244 -0.17000
C 	C 	0.50525 0.42796 0.04097 0.10100
C 	C 	0.47197 0.41671 0.01913 -0.07600
C 	C 	0.44634 0.44196 0.00237 0.09500
C 	C 	0.46323 0.38050 0.01893 0.04800
C 	C 	0.47811 0.35870 0.97810 -0.06300
C 	C 	0.46947 0.32451 0.97744 -0.03200
C 	C 	0.44592 0.31190 0.01771 -0.00300
C 	C 	0.43978 0.36792 0.05925 -0.05900
N 	N 	0.44632 0.47396 0.02230 -0.12600
C 	C 	0.42139 0.43695 0.96116 -0.06900
C 	C 	0.42075 0.48920 0.99403 0.07800
C 	C 	0.41191 0.52514 0.00236 -0.06400
C 	C 	0.37696 0.53654 0.99272 0.03200
C 	C 	0.31767 0.53347 0.01702 -0.02500
C 	C 	0.36987 0.56072 0.94956 -0.05700
C 	C 	0.33677 0.57129 0.94023 -0.02900
C 	C 	0.31054 0.55762 0.97382 -0.01100
N 	N 	0.47038 0.54683 0.01040 -0.17000
C 	C 	0.48464 0.57597 0.02772 0.10100
C 	C 	0.46089 0.59704 0.05293 -0.06400
C 	C 	0.43072 0.57975 0.05091 -0.06100
C 	C 	0.51892 0.58644 0.00974 -0.07800
C 	C 	0.52743 0.62260 0.00502 0.05000
C 	C 	0.55647 0.67183 0.04255 -0.02100
C 	C 	0.54501 0.69089 0.99471 -0.01400
C 	C 	0.52448 0.67567 0.95227 -0.02400
C 	C 	0.51566 0.64165 0.95752 -0.06700
N 	N 	0.54322 0.52918 0.02363 -0.13000
C 	C 	0.58962 0.53364 0.96731 -0.06600
C 	C 	0.57020 0.51277 0.00220 0.09300
C 	C 	0.57906 0.47788 0.01928 -0.07700
C 	C 	0.61463 0.46737 0.02009 0.04700
C 	C 	0.63556 0.47746 0.06623 -0.06000
C 	C 	0.66983 0.46984 0.06484 -0.02800
C 	C 	0.68349 0.45230 0.01700 -0.00500
C 	C 	0.66234 0.44143 0.97156 -0.03100
C 	C 	0.62800 0.44888 0.97322 -0.06400
C 	C 	0.55820 0.42477 0.07039 -0.06400
C 	C 	0.52791 0.40767 0.07078 -0.06300
C 	C 	0.43121 0.33374 0.05876 -0.02900
C 	C 	0.40490 0.46732 0.95584 -0.05700
C 	C 	0.43760 0.54904 0.02451 0.09700
C 	C 	0.57361 0.56443 0.96698 -0.06600
C 	C 	0.54557 0.56077 0.00223 0.09300
C 	C 	0.54780 0.63780 0.04755 -0.06300
H 	H 	0.51216 0.47083 0.98679 0.09200
H 	H 	0.47997 0.53127 0.97742 0.09200
H 	H 	0.68587 0.47804 0.10040 0.03600
H 	H 	0.67262 0.42792 0.93441 0.03600
H 	H 	0.62534 0.49163 0.10269 0.04700
H 	H 	0.61193 0.44095 0.93750 0.04500
H 	H 	0.48087 0.30789 0.94543 0.03600
H 	H 	0.42823 0.38462 0.09098 0.04800
H 	H 	0.41316 0.32422 0.09025 0.03800
H 	H 	0.49623 0.36827 0.94679 0.04500
H 	H 	0.33149 0.58992 0.90675 0.03700
H 	H 	0.38997 0.57125 0.92324 0.04300
C 	C 	0.35075 0.52301 0.02648 -0.05200
H 	H 	0.29759 0.52290 0.04331 0.03700
H 	H 	0.57208 0.68341 0.07580 0.03700
H 	H 	0.55690 0.62324 0.08445 0.04800
H 	H 	0.49991 0.63005 0.92450 0.04600
H 	H 	0.51557 0.69013 0.91510 0.03600
H 	H 	0.58253 0.41305 0.07633 0.04800
H 	H 	0.52531 0.38074 0.07720 0.04900
H 	H 	0.41230 0.41280 0.94575 0.04800
H 	H 	0.38052 0.47104 0.93588 0.04500
H 	H 	0.46321 0.62414 0.05707 0.04900
H 	H 	0.40619 0.59145 0.05343 0.04900
H 	H 	0.61560 0.52939 0.95534 0.04700
H 	H 	0.58465 0.58811 0.95323 0.04700
H 	H 	0.35603 0.50441 0.06002 0.04600
Zn	Zn	0.38165 0.11179 0.01324 1.22200
C 	C 	0.32171 0.07298 0.98862 0.31700
O 	O 	0.39835 0.09507 0.08922 -0.46000
O 	O 	0.34170 0.05070 0.96395 -0.45000
O 	O 	0.37219 0.04428 0.08228 -0.49700
C 	C 	0.40964 0.08087 0.91141 0.35000
O 	O 	0.38763 0.10304 0.92987 -0.45700
O 	O 	0.41775 0.05516 0.94468 -0.51500
C 	C 	0.38596 0.06797 0.11429 0.33600
O 	O 	0.42896 0.14772 0.00635 -0.31800
Zn	Zn	0.38656 0.03694 0.00216 1.17200
O 	O 	0.33444 0.09774 0.01989 -0.43600
C 	C 	0.40781 0.17173 0.01812 0.27800
O 	O 	0.37697 0.16235 0.02577 -0.38600
C 	C 	0.52181 0.00625 0.55173 0.00900
C 	C 	0.49584 0.03079 0.55382 0.01300
C 	C 	0.52085 0.98061 0.50925 -0.05400
C 	C 	0.49416 0.97905 0.46907 0.01000
C 	C 	0.46929 0.02940 0.51330 -0.05500
C 	C 	0.46820 0.00359 0.47113 0.01100
H 	H 	0.44954 0.04818 0.51475 0.05100
H 	H 	0.54067 0.96191 0.50759 0.05000
C 	C 	0.44123 0.00107 0.43134 -0.01200
C 	C 	0.44044 0.97602 0.38791 0.01000
C 	C 	0.41990 0.98498 0.33915 -0.05300
C 	C 	0.40576 0.01717 0.34382 0.01900
S 	S 	0.41895 0.03380 0.40677 -0.01200
H 	H 	0.41863 0.97049 0.29912 0.05000
C 	C 	0.49247 0.95313 0.42679 -0.01200
C 	C 	0.46647 0.95203 0.38517 0.00900
C 	C 	0.47592 0.93500 0.33261 -0.04800
C 	C 	0.50958 0.92466 0.33188 0.01200
S 	S 	0.52614 0.93535 0.39623 -0.01100
H 	H 	0.46057 0.93461 0.29359 0.05000
C 	C 	0.54855 0.03259 0.63711 0.00700
C 	C 	0.54841 0.00829 0.59238 -0.01200
S 	S 	0.57048 0.97523 0.61617 -0.01200
C 	C 	0.58253 0.99069 0.68075 0.01700
C 	C 	0.56824 0.02277 0.68643 -0.05400
C 	C 	0.49727 0.05635 0.59682 -0.01600
C 	C 	0.52268 0.05677 0.63954 0.01000
C 	C 	0.51282 0.07366 0.69202 -0.05500
C 	C 	0.47947 0.08484 0.69134 0.01100
S 	S 	0.46351 0.07463 0.62619 0.00600
H 	H 	0.52755 0.07340 0.73177 0.04400
H 	H 	0.56867 0.03646 0.72735 0.04700
Zn	Zn	0.60429 0.89167 0.00785 1.22300
C 	C 	0.66322 0.93375 0.01821 0.32300
O 	O 	0.57570 0.90063 0.07673 -0.45500
O 	O 	0.64576 0.95858 0.99514 -0.45500
O 	O 	0.59930 0.95147 0.09670 -0.49800
C 	C 	0.59112 0.93252 0.90728 0.35100
O 	O 	0.60988 0.90802 0.92773 -0.45300
O 	O 	0.57541 0.95272 0.94352 -0.51900
C 	C 	0.58209 0.92508 0.11385 0.33500
O 	O 	0.56244 0.85491 0.97121 -0.32000
Zn	Zn	0.59610 0.96681 0.01645 1.17200
O 	O 	0.64787 0.90682 0.03870 -0.43900
C 	C 	0.58288 0.83098 0.98668 0.27700
O 	O 	0.61078 0.84079 0.01028 -0.37900
Zn	Zn	0.11051 0.61495 0.97301 1.22100
C 	C 	0.06407 0.67042 0.98816 0.31800
O 	O 	0.10439 0.58474 0.04068 -0.46100
O 	O 	0.04096 0.65117 0.96421 -0.45300
O 	O 	0.05259 0.60423 0.06389 -0.49700
C 	C 	0.07071 0.59860 0.87337 0.34700
O 	O 	0.09304 0.61989 0.89373 -0.45800
O 	O 	0.05152 0.58157 0.90958 -0.50900
C 	C 	0.08034 0.58884 0.07931 0.33900
O 	O 	0.14912 0.57569 0.93399 -0.33000
Zn	Zn	0.03688 0.60064 0.98387 1.16800
O 	O 	0.09275 0.65731 0.00568 -0.43100
C 	C 	0.17202 0.59707 0.95007 0.27800
O 	O 	0.16084 0.62433 0.97457 -0.38500
C 	C 	0.01023 0.46319 0.43134 0.01200
C 	C 	0.03556 0.48845 0.43034 0.01100
C 	C 	0.98531 0.46386 0.47512 -0.05500
C 	C 	0.98442 0.49038 0.51592 0.01000
C 	C 	0.03572 0.51388 0.47324 -0.05500
C 	C 	0.00986 0.51553 0.51502 0.01000
H 	H 	0.05536 0.53280 0.47313 0.05000
H 	H 	0.96624 0.44438 0.47645 0.05000
C 	C 	0.00746 0.54299 0.55416 -0.01200
C 	C 	0.98147 0.54514 0.59557 0.00800
C 	C 	0.98997 0.56551 0.64482 -0.05500
C 	C 	0.02266 0.57850 0.64222 0.01800
S 	S 	0.04025 0.56422 0.58070 -0.01200
H 	H 	0.97488 0.56695 0.68414 0.04600
C 	C 	0.95743 0.49385 0.55562 -0.01300
C 	C 	0.95612 0.52046 0.59604 0.00800
C 	C 	0.93523 0.51334 0.64523 -0.05500
C 	C 	0.92096 0.48110 0.64345 0.01800
S 	S 	0.93499 0.46197 0.58306 -0.01100
H 	H 	0.93372 0.52923 0.68361 0.04600
C 	C 	0.03219 0.44017 0.33909 0.01200
C 	C 	0.00985 0.43848 0.38676 -0.01100
S 	S 	0.97503 0.41955 0.36294 -0.00600
C 	C 	0.98656 0.41205 0.29398 0.01300
C 	C 	0.01918 0.42468 0.28738 -0.04800
C 	C 	0.05962 0.48814 0.38486 -0.01200
C 	C 	0.05751 0.46499 0.33843 0.01100
C 	C 	0.07316 0.47690 0.28608 -0.04800
C 	C 	0.08559 0.50985 0.29052 0.01200
S 	S 	0.07834 0.52268 0.35881 -0.00700
H 	H 	0.07146 0.46402 0.24447 0.04900
H 	H 	0.03093 0.42683 0.24485 0.05000
Zn	Zn	0.88553 0.39226 0.97639 1.22000
C 	C 	0.82660 0.43274 0.99962 0.31100
O 	O 	0.90344 0.40816 0.90054 -0.45300
O 	O 	0.84710 0.45456 0.02423 -0.44700
O 	O 	0.87920 0.45992 0.90699 -0.50300
C 	C 	0.91365 0.42205 0.07888 0.34900
O 	O 	0.89069 0.40108 0.05982 -0.45500
O 	O 	0.92283 0.44771 0.04631 -0.51200
C 	C 	0.89272 0.43593 0.87534 0.33500
O 	O 	0.93222 0.35594 0.98565 -0.31700
Zn	Zn	0.89288 0.46671 0.98755 1.16700
O 	O 	0.83867 0.40745 0.96873 -0.43700
C 	C 	0.91107 0.33195 0.97392 0.27700
O 	O 	0.88040 0.34156 0.96485 -0.38500
C 	C 	0.98364 0.92875 0.06421 0.10000
N 	N 	0.96852 0.95760 0.04762 -0.17300
C 	C 	0.93670 0.95592 0.06749 0.09900
C 	C 	0.90980 0.97891 0.04692 -0.07500
C 	C 	0.91813 0.01396 0.03016 0.09200
C 	C 	0.87445 0.96764 0.04613 0.03800
C 	C 	0.86341 0.94502 0.00306 -0.04800
C 	C 	0.82936 0.93666 0.99912 -0.04000
C 	C 	0.80616 0.95082 0.03838 -0.00300
C 	C 	0.85140 0.98114 0.08626 -0.05600
N 	N 	0.94394 0.03135 0.05358 -0.13000
C 	C 	0.89993 0.03359 0.99148 -0.06600
C 	C 	0.94183 0.06249 0.03000 0.09200
C 	C 	0.96891 0.08789 0.03520 -0.07700
C 	C 	0.96122 0.12398 0.02576 0.04500
C 	C 	0.92931 0.17405 0.05116 -0.03200
C 	C 	0.97717 0.14188 0.98059 -0.06100
C 	C 	0.96928 0.17579 0.97082 -0.03500
C 	C 	0.94524 0.19196 0.00597 0.00500
N 	N 	0.01711 0.04798 0.03524 -0.17300
C 	C 	0.05015 0.05027 0.04723 0.10000
C 	C 	0.05755 0.08115 0.07255 -0.06300
C 	C 	0.02742 0.09846 0.07609 -0.06400
C 	C 	0.07534 0.02605 0.02436 -0.07700
C 	C 	0.11097 0.03597 0.01877 0.04700
C 	C 	0.16911 0.02912 0.04812 -0.03000
C 	C 	0.17925 0.05098 0.00309 0.00000
C 	C 	0.15503 0.06587 0.96666 -0.03300
C 	C 	0.12098 0.05835 0.97445 -0.06300
N 	N 	0.04162 0.97455 0.04406 -0.13000
C 	C 	0.06653 0.93818 0.98192 -0.06600
C 	C 	0.04265 0.94231 0.02540 0.09200
C 	C 	0.01626 0.91734 0.03968 -0.07700
C 	C 	0.02324 0.88099 0.03263 0.04700
C 	C 	0.04672 0.86502 0.06906 -0.06000
C 	C 	0.05365 0.83070 0.06197 -0.02700
C 	C 	0.03727 0.81213 0.01812 -0.00700
C 	C 	0.01387 0.82820 0.98151 -0.03000
C 	C 	0.00682 0.86248 0.98888 -0.06400
C 	C 	0.96138 0.90835 0.09470 -0.06400
C 	C 	0.93128 0.92576 0.09679 -0.06300
C 	C 	0.81738 0.97272 0.08247 -0.03100
C 	C 	0.91529 0.06466 0.99111 -0.06600
C 	C 	0.00319 0.07724 0.05276 0.10100
C 	C 	0.08136 0.96922 0.97417 -0.06600
C 	C 	0.06535 0.99078 0.01273 0.09200
C 	C 	0.13511 0.02164 0.05591 -0.05800
H 	H 	0.97612 0.97225 0.01190 0.09500
H 	H 	0.00690 0.03219 0.00322 0.09500
H 	H 	0.07158 0.81850 0.09071 0.03800
H 	H 	0.00122 0.81414 0.94734 0.03500
H 	H 	0.05950 0.87919 0.10295 0.04700
H 	H 	0.98873 0.87469 0.96046 0.04400
H 	H 	0.82092 0.91963 0.96507 0.03800
H 	H 	0.85977 0.99859 0.11971 0.04600
H 	H 	0.79964 0.98378 0.11294 0.03700
H 	H 	0.88110 0.93446 0.97196 0.03900
H 	H 	0.98168 0.18943 0.93581 0.03900
H 	H 	0.99555 0.12949 0.95296 0.04400
C 	C 	0.93730 0.14020 0.06106 -0.05700
H 	H 	0.91084 0.18639 0.07868 0.03900
H 	H 	0.18762 0.01773 0.07674 0.03800
H 	H 	0.12755 0.00440 0.09033 0.04800
H 	H 	0.10245 0.06950 0.94559 0.04500
H 	H 	0.16262 0.08283 0.93186 0.03700
H 	H 	0.96380 0.88132 0.09984 0.04800
H 	H 	0.90698 0.91417 0.10375 0.04800
H 	H 	0.87517 0.02799 0.97444 0.04700
H 	H 	0.90559 0.08742 0.97112 0.04700
H 	H 	0.08211 0.09287 0.07315 0.04900
H 	H 	0.02522 0.12558 0.07985 0.04900
H 	H 	0.07599 0.91438 0.96555 0.04700
H 	H 	0.10533 0.97369 0.95312 0.04700
H 	H 	0.92489 0.12657 0.09608 0.04600
C 	C 	0.89652 0.27067 0.96769 0.00500
C 	C 	0.92022 0.29598 0.97994 -0.06900
C 	C 	0.95248 0.28683 0.99941 -0.00400
C 	C 	0.96073 0.25285 0.00724 -0.04700
C 	C 	0.93688 0.22770 0.99574 0.01300
C 	C 	0.90481 0.23671 0.97567 -0.05700
H 	H 	0.87163 0.27726 0.95229 0.04200
H 	H 	0.97105 0.30600 0.00909 0.05300
H 	H 	0.98554 0.24610 0.02285 0.04400
H 	H 	0.88629 0.21740 0.96645 0.04400
C 	C 	0.91194 0.46266 0.69708 -0.00600
C 	C 	0.87926 0.46540 0.72008 0.09200
C 	C 	0.87283 0.45525 0.77783 -0.02500
C 	C 	0.89861 0.44161 0.81241 -0.12900
C 	C 	0.93093 0.43718 0.78817 0.16600
C 	C 	0.93712 0.44676 0.73000 -0.10500
H 	H 	0.84796 0.45882 0.79623 0.05200
H 	H 	0.96211 0.44380 0.71180 0.06700
O 	O 	0.85435 0.48128 0.68822 -0.19300
O 	O 	0.95625 0.42239 0.82071 -0.20000
C 	C 	0.83675 0.45658 0.65611 -0.02400
H 	H 	0.85350 0.44335 0.62447 0.04000
H 	H 	0.81683 0.46930 0.63029 0.04200
H 	H 	0.82413 0.43811 0.68563 0.03800
C 	C 	0.97551 0.44812 0.84707 -0.01200
H 	H 	0.98843 0.46394 0.81359 0.03200
H 	H 	0.99528 0.43617 0.87431 0.03800
H 	H 	0.96002 0.46416 0.87667 0.00600
C 	C 	0.96231 0.41331 0.24532 -0.00000
C 	C 	0.94851 0.44444 0.22750 0.09000
C 	C 	0.93206 0.44686 0.17342 -0.02000
C 	C 	0.92760 0.41820 0.13833 -0.13200
C 	C 	0.93896 0.38652 0.15845 0.17000
C 	C 	0.95705 0.38445 0.21114 -0.10800
H 	H 	0.92325 0.47124 0.15834 0.03700
H 	H 	0.96794 0.36057 0.22434 0.06600
O 	O 	0.95473 0.47334 0.25956 -0.18700
O 	O 	0.93627 0.35835 0.12308 -0.19700
C 	C 	0.92587 0.48108 0.29289 -0.02500
H 	H 	0.90528 0.49045 0.26422 0.03300
H 	H 	0.93230 0.50160 0.32394 0.04100
H 	H 	0.91697 0.45926 0.31948 0.03800
C 	C 	0.90870 0.33893 0.14243 -0.02300
H 	H 	0.91352 0.32802 0.18657 0.03700
H 	H 	0.90522 0.31756 0.11167 0.04900
H 	H 	0.88489 0.35369 0.14261 0.04900
C 	C 	0.08365 0.73019 0.99246 0.02700
C 	C 	0.05740 0.70664 0.99674 -0.10300
C 	C 	0.02461 0.71784 0.00860 0.02900
C 	C 	0.01811 0.75222 0.01590 -0.07400
C 	C 	0.04427 0.77578 0.01105 0.03900
C 	C 	0.07708 0.76462 0.99937 -0.07700
H 	H 	0.10901 0.72189 0.98296 0.03300
H 	H 	0.00421 0.69989 0.01262 0.02100
H 	H 	0.99276 0.76054 0.02548 0.04700
H 	H 	0.09743 0.78263 0.99526 0.04900
C 	C 	0.04228 0.58488 0.69555 -0.00500
C 	C 	0.04415 0.61768 0.71886 0.09100
C 	C 	0.05560 0.62242 0.77635 -0.02400
C 	C 	0.06607 0.59474 0.80994 -0.13400
C 	C 	0.06780 0.56253 0.78416 0.17000
C 	C 	0.05527 0.55761 0.72749 -0.10900
H 	H 	0.05474 0.64737 0.79571 0.05100
H 	H 	0.05432 0.53236 0.70937 0.06700
O 	O 	0.03126 0.64469 0.68790 -0.19200
O 	O 	0.07871 0.53517 0.81647 -0.20800
C 	C 	0.05756 0.65936 0.65523 -0.02500
H 	H 	0.07763 0.66947 0.68432 0.03900
H 	H 	0.04723 0.68092 0.63003 0.04300
H 	H 	0.06830 0.64123 0.62299 0.04000
C 	C 	0.11348 0.53112 0.80677 -0.02300
H 	H 	0.11886 0.52481 0.76015 0.03800
H 	H 	0.12248 0.50972 0.83388 0.04500
H 	H 	0.12790 0.55388 0.82040 0.04900
C 	C 	0.08172 0.57058 0.13572 -0.13300
C 	C 	0.11255 0.56577 0.16531 0.17100
C 	C 	0.11311 0.54802 0.21862 -0.10800
C 	C 	0.08369 0.53338 0.24069 -0.00000
C 	C 	0.05275 0.53938 0.21250 0.08800
C 	C 	0.05206 0.55713 0.15952 -0.02200
H 	H 	0.13667 0.54473 0.24170 0.06600
H 	H 	0.02841 0.56011 0.13659 0.03100
O 	O 	0.14155 0.58105 0.14496 -0.19800
O 	O 	0.02352 0.52503 0.23385 -0.18600
C 	C 	0.16170 0.55655 0.11696 -0.02300
H 	H 	0.17320 0.53923 0.14963 0.03700
H 	H 	0.18247 0.56963 0.09379 0.05100
H 	H 	0.14758 0.54180 0.08351 0.05000
C 	C 	0.00626 0.54937 0.26741 -0.02400
H 	H 	0.02222 0.56017 0.30278 0.04100
H 	H 	0.98456 0.53697 0.28898 0.04900
H 	H 	0.99621 0.56983 0.23901 0.03400
C 	C 	0.71743 0.92221 0.06931 0.02100
C 	C 	0.70008 0.93633 0.02167 -0.09500
C 	C 	0.71799 0.95381 0.97817 0.01700
C 	C 	0.75276 0.95777 0.98292 -0.07300
C 	C 	0.76995 0.94436 0.03122 0.03300
C 	C 	0.75222 0.92630 0.07412 -0.07000
H 	H 	0.70390 0.90871 0.10321 0.03500
H 	H 	0.70495 0.96443 0.94080 0.03200
H 	H 	0.76628 0.97174 0.94957 0.04700
H 	H 	0.76533 0.91581 0.11151 0.04700
C 	C 	0.58880 0.96911 0.73205 -0.00500
C 	C 	0.61719 0.97494 0.76729 0.09200
C 	C 	0.61866 0.96118 0.82378 -0.02500
C 	C 	0.59233 0.94107 0.84486 -0.13300
C 	C 	0.56511 0.93315 0.80803 0.17000
C 	C 	0.56391 0.94653 0.75115 -0.10600
H 	H 	0.63967 0.96730 0.85206 0.04400
H 	H 	0.54258 0.94096 0.72332 0.06600
O 	O 	0.64187 0.99710 0.74902 -0.19500
O 	O 	0.54098 0.91031 0.82608 -0.20300
C 	C 	0.66696 0.97852 0.71968 -0.02400
H 	H 	0.67915 0.95988 0.74939 0.03800
H 	H 	0.68675 0.99628 0.70479 0.04100
H 	H 	0.65681 0.96576 0.67999 0.04000
C 	C 	0.51242 0.92824 0.84539 -0.01900
H 	H 	0.51860 0.94684 0.88029 0.03500
H 	H 	0.49432 0.90999 0.86441 0.04000
H 	H 	0.49966 0.94097 0.80812 0.03000
C 	C 	0.56541 0.92550 0.17136 -0.13400
C 	C 	0.56618 0.89689 0.20804 0.17200
C 	C 	0.54784 0.89685 0.26057 -0.10800
C 	C 	0.52971 0.92552 0.27769 -0.00100
C 	C 	0.53059 0.95485 0.24255 0.08900
C 	C 	0.54784 0.95439 0.18909 -0.02200
H 	H 	0.54746 0.87439 0.28765 0.06800
H 	H 	0.54695 0.97635 0.16082 0.02700
O 	O 	0.58274 0.86798 0.19043 -0.19900
O 	O 	0.51139 0.98268 0.25724 -0.19500
C 	C 	0.61581 0.86901 0.21252 -0.02300
H 	H 	0.63004 0.89100 0.19494 0.04200
H 	H 	0.62915 0.84589 0.19806 0.04700
H 	H 	0.61602 0.86915 0.26131 0.03700
C 	C 	0.53204 0.00635 0.28596 -0.02200
H 	H 	0.54438 0.99547 0.32541 0.04000
H 	H 	0.51604 0.02755 0.30110 0.04100
H 	H 	0.55119 0.01694 0.25552 0.03400
C 	C 	0.27130 0.03650 0.97289 0.01900
C 	C 	0.28490 0.06834 0.98596 -0.09900
C 	C 	0.26324 0.09512 0.00026 0.02400
C 	C 	0.22858 0.08972 0.00402 -0.06400
C 	C 	0.21525 0.05757 0.99332 0.02300
C 	C 	0.23666 0.03117 0.97659 -0.06800
H 	H 	0.28759 0.01562 0.96150 0.02400
H 	H 	0.27326 0.11997 0.00939 0.03800
H 	H 	0.21219 0.11031 0.01655 0.04800
H 	H 	0.22651 0.00634 0.96766 0.04500
C 	C 	0.42369 0.08344 0.85188 -0.13300
C 	C 	0.43902 0.11354 0.83254 0.17000
C 	C 	0.45709 0.11376 0.77965 -0.10800
C 	C 	0.45887 0.08466 0.74496 -0.00000
C 	C 	0.44317 0.05470 0.76409 0.09000
C 	C 	0.42458 0.05469 0.81621 -0.02000
H 	H 	0.47006 0.13650 0.76604 0.06500
H 	H 	0.41189 0.03182 0.83004 0.03700
O 	O 	0.43972 0.14159 0.86846 -0.20000
O 	O 	0.44420 0.02597 0.72979 -0.19000
C 	C 	0.41449 0.16420 0.84996 -0.02200
H 	H 	0.42029 0.17469 0.80585 0.03700
H 	H 	0.41369 0.18568 0.88106 0.04700
H 	H 	0.38913 0.15233 0.85013 0.04900
C 	C 	0.46927 0.00419 0.75177 -0.02300
H 	H 	0.49415 0.01680 0.75574 0.03700
H 	H 	0.47243 0.98294 0.72066 0.04200
H 	H 	0.46161 0.99335 0.79472 0.03000
C 	C 	0.38916 0.06306 0.17801 -0.13100
C 	C 	0.42056 0.06692 0.20581 0.16500
C 	C 	0.42547 0.05343 0.26197 -0.10600
C 	C 	0.39882 0.03784 0.29177 -0.00500
C 	C 	0.36653 0.03775 0.26683 0.09200
C 	C 	0.36196 0.04977 0.20965 -0.02300
H 	H 	0.45037 0.05374 0.28119 0.06700
H 	H 	0.33753 0.04750 0.18907 0.05300
O 	O 	0.44760 0.08007 0.17539 -0.21000
O 	O 	0.34014 0.02237 0.29573 -0.19100
C 	C 	0.45086 0.11445 0.19023 -0.01800
H 	H 	0.42761 0.12899 0.18017 0.04900
H 	H 	0.47143 0.12546 0.16354 0.04300
H 	H 	0.45786 0.11755 0.23713 0.03500
C 	C 	0.32320 0.04704 0.32899 -0.02500
H 	H 	0.33993 0.05840 0.36274 0.04000
H 	H 	0.30209 0.03472 0.35247 0.04400
H 	H 	0.31223 0.06701 0.30047 0.03800
C 	C 	0.46061 0.25086 0.02606 -0.06400
C 	C 	0.43634 0.27594 0.01648 0.02600
C 	C 	0.40277 0.26670 0.00673 -0.06100
C 	C 	0.39347 0.23271 0.00724 0.01400
C 	C 	0.41768 0.20758 0.01725 -0.07800
C 	C 	0.45135 0.21683 0.02631 0.01200
H 	H 	0.48657 0.25775 0.03385 0.04600
H 	H 	0.38391 0.28586 0.99879 0.04300
H 	H 	0.36748 0.22593 0.99947 0.03600
H 	H 	0.47027 0.19772 0.03422 0.03900
C 	C 	0.25191 0.54559 0.94181 -0.06600
C 	C 	0.27560 0.56850 0.96376 0.02800
C 	C 	0.26561 0.60137 0.97827 -0.06600
C 	C 	0.23198 0.61102 0.97234 0.01100
C 	C 	0.20799 0.58781 0.95192 -0.08000
C 	C 	0.21830 0.55519 0.93573 0.01000
H 	H 	0.25948 0.52023 0.93005 0.04600
H 	H 	0.28378 0.61927 0.99506 0.04700
H 	H 	0.22455 0.63638 0.98433 0.04100
H 	H 	0.20022 0.53709 0.91933 0.03800
C 	C 	0.76823 0.40966 0.00441 0.02100
C 	C 	0.78997 0.43758 0.00449 -0.09100
C 	C 	0.77658 0.47027 0.00869 0.02000
C 	C 	0.74188 0.47501 0.01265 -0.07000
C 	C 	0.72016 0.44713 0.01283 0.03100
C 	C 	0.73347 0.41442 0.00871 -0.06800
H 	H 	0.77823 0.38430 0.00155 0.03600
H 	H 	0.79304 0.49204 0.00814 0.02200
H 	H 	0.73183 0.50037 0.01523 0.04600
H 	H 	0.71692 0.39273 0.00906 0.04800
C 	C 	0.52983 0.75188 0.98770 -0.06500
C 	C 	0.55463 0.72673 0.98903 0.03100
C 	C 	0.58868 0.73587 0.98691 -0.06500
C 	C 	0.59787 0.76988 0.98507 0.01300
C 	C 	0.57310 0.79510 0.98496 -0.07500
C 	C 	0.53900 0.78591 0.98544 0.01300
H 	H 	0.50347 0.74509 0.98941 0.04700
H 	H 	0.60801 0.71662 0.98720 0.04600
H 	H 	0.62425 0.77660 0.98395 0.03900
H 	H 	0.51962 0.80509 0.98542 0.04000
