data_crystal

_cell_length_a 26.16438
_cell_length_b 26.38772
_cell_length_c 26.51649
_cell_angle_alpha 95.48766
_cell_angle_beta  95.48701
_cell_angle_gamma 125.83225

_symmetry_space_group_name_	'P 1'
_symmetry_space_group_name_H-M	'P 1'

loop_
_symmetry_equiv_pos_as_xyz
  x,y,z

loop_
_atom_site_label
_atom_site_type_symbol
_atom_site_fract_x
_atom_site_fract_y
_atom_site_fract_z
_atom_site_charge
C 	C 	0.97119 0.03145 0.98680 0.12100
N 	N 	0.03496 0.06618 0.98577 -0.13900
C 	C 	0.06319 0.03662 0.98023 0.12200
N 	N 	0.02787 0.97264 0.97702 -0.13900
C 	C 	0.96444 0.93810 0.97881 0.12400
N 	N 	0.93611 0.96749 0.98363 -0.13800
C 	C 	0.93659 0.99787 0.43696 0.12800
N 	N 	0.90169 0.93489 0.43913 -0.14000
C 	C 	0.93042 0.90550 0.43947 0.12400
N 	N 	0.99372 0.93901 0.43749 -0.14100
C 	C 	0.02820 0.00141 0.43427 0.12500
N 	N 	0.99939 0.03051 0.43312 -0.13900
Cu	Cu	0.64070 0.24326 0.01002 0.92900
Cu	Cu	0.68270 0.23800 0.89807 0.87000
Cu	Cu	0.68503 0.34640 0.94496 0.89700
Cu	Cu	0.66198 0.37156 0.05011 0.89700
C 	C 	0.66542 0.28983 0.11856 0.30800
O 	O 	0.55145 0.21839 0.01241 -0.35400
C 	C 	0.65833 0.30298 0.83139 0.30800
O 	O 	0.70271 0.34258 0.01596 -0.63800
O 	O 	0.63201 0.25182 0.93711 -0.64300
O 	O 	0.66933 0.18794 0.00305 -0.36600
O 	O 	0.74130 0.24817 0.95345 -0.44100
O 	O 	0.64330 0.32203 0.10695 -0.37800
O 	O 	0.73984 0.43831 0.95711 -0.38300
C 	C 	0.73345 0.47482 0.98930 0.29500
C 	C 	0.53334 0.25211 0.99590 0.28700
O 	O 	0.57664 0.31096 0.99057 -0.39000
O 	O 	0.71294 0.45853 0.03289 -0.38700
O 	O 	0.66360 0.25036 0.08255 -0.36000
C 	C 	0.72108 0.20651 0.98406 0.29200
O 	O 	0.68095 0.35010 0.87072 -0.38400
O 	O 	0.64510 0.24795 0.83832 -0.42000
H 	H 	0.74876 0.36519 0.03040 0.16600
H 	H 	0.58739 0.22979 0.91876 0.17500
Cu	Cu	0.73519 0.33623 0.44274 0.92800
Cu	Cu	0.73113 0.28761 0.55194 0.87100
Cu	Cu	0.63199 0.29913 0.50805 0.89800
Cu	Cu	0.61318 0.32923 0.40515 0.89700
C 	C 	0.68582 0.31172 0.33470 0.30600
O 	O 	0.77076 0.42840 0.44173 -0.35400
C 	C 	0.67470 0.32092 0.62121 0.30400
O 	O 	0.63478 0.28187 0.43692 -0.63900
O 	O 	0.72684 0.34555 0.51584 -0.64000
O 	O 	0.78116 0.29709 0.44840 -0.37300
O 	O 	0.71129 0.22704 0.49408 -0.44200
O 	O 	0.65878 0.33959 0.34637 -0.37800
O 	O 	0.53948 0.24868 0.49591 -0.38100
C 	C 	0.50382 0.25178 0.45946 0.29900
C 	C 	0.73985 0.45072 0.45666 0.29100
O 	O 	0.68137 0.41130 0.46488 -0.39200
O 	O 	0.52918 0.29194 0.42731 -0.39400
O 	O 	0.72662 0.31372 0.36989 -0.35700
C 	C 	0.75336 0.24241 0.46404 0.29400
O 	O 	0.62833 0.30331 0.58240 -0.38400
O 	O 	0.72724 0.32787 0.61330 -0.41100
H 	H 	0.60836 0.23609 0.42131 0.16500
H 	H 	0.75233 0.38976 0.53532 0.17800
C 	C 	0.65580 0.31502 0.77843 -0.10800
C 	C 	0.70971 0.36912 0.76563 -0.06200
C 	C 	0.71392 0.37421 0.71388 0.16700
C 	C 	0.66395 0.32487 0.67449 -0.10800
C 	C 	0.60719 0.27425 0.68742 -0.06300
C 	C 	0.60321 0.26879 0.73917 0.16700
H 	H 	0.74983 0.40569 0.79568 0.06100
O 	O 	0.76827 0.42585 0.70184 -0.28800
H 	H 	0.56758 0.23713 0.65731 0.06200
O 	O 	0.54780 0.21857 0.75131 -0.28600
H 	H 	0.55197 0.18344 0.74923 0.14500
H 	H 	0.75961 0.45753 0.69945 0.14600
C 	C 	0.67355 0.28347 0.17251 -0.10300
C 	C 	0.73390 0.32555 0.20473 -0.06200
C 	C 	0.73945 0.33075 0.25839 0.17100
C 	C 	0.68408 0.29422 0.27995 -0.10300
C 	C 	0.62472 0.24818 0.24746 -0.06200
C 	C 	0.61935 0.24246 0.19387 0.17100
H 	H 	0.77601 0.35656 0.18839 0.05300
O 	O 	0.79810 0.37518 0.28968 -0.28000
H 	H 	0.58209 0.21908 0.26381 0.05000
O 	O 	0.56025 0.20006 0.16260 -0.28200
H 	H 	0.55620 0.16029 0.15405 0.15100
H 	H 	0.81729 0.35258 0.29540 0.15100
C 	C 	0.75301 0.59469 0.42557 -0.07700
C 	C 	0.81468 0.64434 0.45271 0.01900
C 	C 	0.85194 0.63035 0.48115 -0.00700
C 	C 	0.82709 0.56690 0.48208 0.00100
C 	C 	0.76559 0.51713 0.45445 -0.09400
C 	C 	0.72892 0.53132 0.42506 0.06600
C 	C 	0.84146 0.71057 0.44801 0.00300
S 	S 	0.93012 0.69173 0.51479 -0.03700
H 	H 	0.85559 0.55625 0.50433 0.03700
S 	S 	0.65511 0.47059 0.38446 -0.08000
H 	H 	0.72473 0.60544 0.40314 0.05500
C 	C 	0.86702 0.73452 0.40427 0.00600
C 	C 	0.89180 0.79714 0.40032 -0.03300
C 	C 	0.89294 0.83697 0.44018 -0.03000
C 	C 	0.86626 0.81266 0.48357 0.02900
C 	C 	0.84008 0.74944 0.48695 -0.05900
S 	S 	0.87004 0.68713 0.35495 -0.03700
H 	H 	0.91228 0.81568 0.36695 0.04700
S 	S 	0.86786 0.86147 0.53485 -0.03800
H 	H 	0.81976 0.73082 0.52034 0.05100
H 	H 	0.60626 0.45073 0.41135 0.03400
H 	H 	0.81376 0.65297 0.31967 0.03800
H 	H 	0.92457 0.89244 0.56916 0.03800
H 	H 	0.97270 0.70686 0.48219 0.03900
C 	C 	0.82316 0.16303 0.40601 -0.07600
C 	C 	0.82425 0.13165 0.44548 0.01800
C 	C 	0.80017 0.13506 0.48994 -0.00900
C 	C 	0.77862 0.17239 0.49579 -0.00400
C 	C 	0.77765 0.20422 0.45655 -0.10200
C 	C 	0.79801 0.19746 0.41046 0.05900
C 	C 	0.85372 0.09803 0.44127 0.00200
S 	S 	0.79511 0.09136 0.53796 -0.04700
H 	H 	0.76226 0.17647 0.53096 0.02000
S 	S 	0.78767 0.22713 0.35671 -0.03700
H 	H 	0.84077 0.15963 0.37141 0.05300
C 	C 	0.82087 0.03785 0.40913 0.00800
C 	C 	0.84815 0.00532 0.40826 -0.03700
C 	C 	0.90704 0.03130 0.44039 -0.03100
C 	C 	0.93843 0.09033 0.47418 0.02900
C 	C 	0.91298 0.12436 0.47278 -0.05800
S 	S 	0.74508 0.00216 0.37073 -0.04300
H 	H 	0.82359 0.95984 0.38253 0.05100
S 	S 	0.00614 0.11935 0.52158 -0.03500
H 	H 	0.93776 0.17015 0.49814 0.05000
H 	H 	0.84129 0.28800 0.35913 0.04400
H 	H 	0.75302 0.02139 0.32407 0.03600
H 	H 	0.98632 0.09476 0.56498 0.03600
H 	H 	0.73795 0.03160 0.52546 0.03600
C 	C 	0.19353 0.09838 0.40069 -0.06000
C 	C 	0.23141 0.10887 0.44729 0.00300
C 	C 	0.20241 0.08476 0.48976 0.00700
C 	C 	0.13590 0.04984 0.48502 -0.03300
C 	C 	0.09794 0.03902 0.43836 -0.03100
C 	C 	0.12695 0.06350 0.39597 0.02900
C 	C 	0.30137 0.14507 0.45122 0.01800
S 	S 	0.24887 0.09753 0.54885 -0.03600
H 	H 	0.11357 0.03110 0.51768 0.04600
S 	S 	0.08035 0.04930 0.33646 -0.04100
H 	H 	0.21588 0.11693 0.36800 0.04900
C 	C 	0.32889 0.11375 0.43967 -0.00800
C 	C 	0.39541 0.14907 0.44369 -0.00200
C 	C 	0.43473 0.21543 0.45878 -0.09400
C 	C 	0.40727 0.24664 0.47121 0.06100
C 	C 	0.34076 0.21134 0.46702 -0.07500
S 	S 	0.28053 0.03049 0.41990 -0.04100
H 	H 	0.41652 0.12502 0.43434 0.03200
S 	S 	0.45575 0.32952 0.49349 -0.04400
H 	H 	0.31960 0.23532 0.47640 0.05600
H 	H 	0.06131 0.99323 0.30738 0.03900
H 	H 	0.26049 0.01528 0.36745 0.03500
H 	H 	0.46488 0.35960 0.45224 0.03900
H 	H 	0.25612 0.05010 0.54818 0.03800
C 	C 	0.89660 0.78241 0.02397 -0.05800
C 	C 	0.85992 0.73864 0.97772 0.00200
C 	C 	0.85639 0.76055 0.93200 0.00800
C 	C 	0.89010 0.82592 0.93294 -0.03300
C 	C 	0.92755 0.86969 0.97904 -0.03200
C 	C 	0.93055 0.84775 0.02484 0.03100
C 	C 	0.82651 0.67006 0.97740 0.01800
S 	S 	0.81103 0.70674 0.87329 -0.03800
H 	H 	0.88773 0.84278 0.89770 0.04600
S 	S 	0.97674 0.90162 0.08343 -0.04100
H 	H 	0.89923 0.76558 0.05917 0.05000
C 	C 	0.85894 0.64261 0.97224 -0.00800
C 	C 	0.82764 0.57843 0.97511 -0.00000
C 	C 	0.76396 0.54104 0.98280 -0.09100
C 	C 	0.73077 0.56798 0.98604 0.05700
C 	C 	0.76244 0.63242 0.98389 -0.07400
S 	S 	0.93875 0.68820 0.96234 -0.04000
H 	H 	0.85319 0.55783 0.97224 0.04000
S 	S 	0.64904 0.52109 0.99080 -0.05300
H 	H 	0.73720 0.65332 0.98715 0.05500
H 	H 	0.03854 0.92090 0.08752 0.03900
H 	H 	0.97966 0.71756 0.00914 0.03700
H 	H 	0.64380 0.52179 0.04174 0.04000
H 	H 	0.84835 0.69489 0.84975 0.03900
C 	C 	0.89356 0.11159 0.95607 -0.06300
C 	C 	0.87020 0.11225 0.00138 0.00400
C 	C 	0.88299 0.08926 0.04288 0.00700
C 	C 	0.91804 0.06496 0.03832 -0.03100
C 	C 	0.94028 0.06310 0.99260 -0.03200
C 	C 	0.92824 0.08694 0.95136 0.03000
C 	C 	0.83065 0.13526 0.00423 0.01900
S 	S 	0.85522 0.09045 0.10057 -0.03700
H 	H 	0.92722 0.04663 0.07007 0.04700
S 	S 	0.95388 0.08372 0.89291 -0.04600
H 	H 	0.88386 0.12941 0.92417 0.04700
C 	C 	0.85948 0.20024 0.02125 -0.01000
C 	C 	0.82224 0.22238 0.01745 0.00200
C 	C 	0.75637 0.18036 0.99656 -0.10100
C 	C 	0.72700 0.11479 0.98175 0.05500
C 	C 	0.76425 0.09267 0.98590 -0.07800
S 	S 	0.94235 0.25449 0.04627 -0.04000
H 	H 	0.84487 0.27268 0.02935 0.03500
S 	S 	0.64449 0.06047 0.95529 -0.05500
H 	H 	0.74193 0.04255 0.97329 0.05400
H 	H 	0.90807 0.02609 0.86146 0.03700
H 	H 	0.97476 0.27669 0.00658 0.03500
H 	H 	0.63558 0.05702 0.90296 0.02200
H 	H 	0.89981 0.14778 0.13285 0.03800
C 	C 	0.37951 0.22919 0.01362 -0.07500
C 	C 	0.33358 0.16962 0.98192 0.01700
C 	C 	0.35360 0.13909 0.95241 -0.00700
C 	C 	0.41914 0.16756 0.95603 0.00000
C 	C 	0.46512 0.22621 0.98901 -0.09400
C 	C 	0.44502 0.25723 0.01797 0.06600
C 	C 	0.26472 0.13753 0.98279 0.00200
S 	S 	0.29704 0.06443 0.91198 -0.03600
H 	H 	0.43438 0.14359 0.93378 0.03400
S 	S 	0.50087 0.32884 0.06237 -0.07000
H 	H 	0.36412 0.25262 0.03640 0.05500
C 	C 	0.23610 0.10146 0.02098 0.00700
C 	C 	0.17064 0.07040 0.02062 -0.03200
C 	C 	0.13297 0.07426 0.98213 -0.03100
C 	C 	0.16168 0.11059 0.94399 0.02900
C 	C 	0.22747 0.14257 0.94493 -0.05900
S 	S 	0.28153 0.09397 0.06892 -0.03900
H 	H 	0.14873 0.04246 0.04992 0.04500
S 	S 	0.11548 0.11417 0.89366 -0.03900
H 	H 	0.24946 0.17037 0.91557 0.05100
H 	H 	0.51218 0.31522 0.10889 0.04500
H 	H 	0.30907 0.14355 0.10971 0.03700
H 	H 	0.11366 0.16418 0.90853 0.04000
H 	H 	0.27950 0.01740 0.94000 0.03800
