data_crystal

_cell_length_a 16.17406
_cell_length_b 17.02704
_cell_length_c 79.16929
_cell_angle_alpha 90.10064
_cell_angle_beta  89.91585
_cell_angle_gamma 120.12472

_symmetry_space_group_name_	'P 1'
_symmetry_space_group_name_H-M	'P 1'

loop_
_symmetry_equiv_pos_as_xyz
  x,y,z

loop_
_atom_site_label
_atom_site_type_symbol
_atom_site_fract_x
_atom_site_fract_y
_atom_site_fract_z
_atom_site_charge
C 	C 	0.10726 0.11080 0.00426 0.30300
C 	C 	0.95400 0.85632 0.00349 0.27700
H 	H 	0.26190 0.27869 0.00129 0.04000
C 	C 	0.76045 0.23140 0.00603 -0.06800
H 	H 	0.63184 0.09982 0.00517 0.04600
C 	C 	0.89708 0.69308 0.00115 -0.01500
O 	O 	0.02094 0.05932 0.01040 -0.34900
O 	O 	0.88592 0.87748 0.00494 -0.37600
C 	C 	0.83382 0.60831 0.00817 -0.00700
C 	C 	0.93598 0.77140 0.01124 -0.06400
C 	C 	0.35906 0.26652 0.01810 -0.01100
C 	C 	0.26918 0.23795 0.01104 -0.00700
C 	C 	0.19037 0.15387 0.01559 -0.07000
H 	H 	0.41988 0.32980 0.01394 0.04700
C 	C 	0.73999 0.25519 0.02282 0.30100
C 	C 	0.74839 0.51127 0.03291 0.30300
O 	O 	0.81077 0.30355 0.03328 -0.36900
O 	O 	0.65081 0.21885 0.02788 -0.37700
O 	O 	0.76900 0.44780 0.03020 -0.38600
C 	C 	0.81058 0.60106 0.02540 -0.07300
C 	C 	0.92238 0.76216 0.02880 -0.00900
C 	C 	0.37093 0.21187 0.02999 -0.06500
C 	C 	0.20065 0.10245 0.02838 -0.00700
H 	H 	0.14038 0.03762 0.03207 0.05400
C 	C 	0.46680 0.24002 0.03690 0.30000
O 	O 	0.48157 0.17968 0.04470 -0.37600
O 	O 	0.68904 0.50232 0.04519 -0.37200
O 	O 	0.53194 0.32650 0.03719 -0.38900
C 	C 	0.85820 0.67776 0.03582 -0.00900
H 	H 	0.95429 0.82189 0.03681 0.03500
C 	C 	0.29050 0.13109 0.03551 -0.00700
H 	H 	0.29774 0.08970 0.04512 0.05200
Ni	Ni	0.80810 0.39628 0.05010 1.11200
Ni	Ni	0.61073 0.20126 0.05252 1.12200
Ni	Ni	0.60485 0.38435 0.05832 1.12100
O 	O 	0.72530 0.18920 0.06007 -0.37100
O 	O 	0.68093 0.32812 0.05746 -0.71300
H 	H 	0.84523 0.67216 0.04931 0.04700
C 	C 	0.78974 0.24425 0.07127 0.30500
O 	O 	0.82968 0.50386 0.06626 -0.37400
O 	O 	0.50560 0.28363 0.07347 -0.37900
O 	O 	0.84488 0.33190 0.06820 -0.37200
H 	H 	0.69210 0.32584 0.06962 0.15200
C 	C 	0.77544 0.49539 0.07964 0.30400
C 	C 	0.52168 0.22727 0.08276 0.30200
O 	O 	0.68094 0.45444 0.07863 -0.38100
O 	O 	0.55729 0.17909 0.07601 -0.38000
C 	C 	0.80407 0.20836 0.08663 -0.09700
C 	C 	0.81945 0.18584 0.10014 0.04800
C 	C 	0.48018 0.20235 0.09929 -0.09300
C 	C 	0.81889 0.54714 0.09458 -0.10000
C 	C 	0.84017 0.16572 0.11671 0.00600
H 	H 	0.96712 0.16372 0.10884 0.05200
C 	C 	0.44623 0.17819 0.11317 0.04200
C 	C 	0.84367 0.58652 0.10789 0.04600
H 	H 	0.86648 0.75048 0.11493 0.04000
C 	C 	0.92296 0.16057 0.11942 -0.04300
C 	C 	0.78446 0.16319 0.13050 -0.03700
H 	H 	0.72106 0.16835 0.12853 0.04600
C 	C 	0.40587 0.14692 0.12970 0.00800
C 	C 	0.31903 0.06534 0.13145 -0.05000
H 	H 	0.28220 0.02536 0.12041 0.05200
C 	C 	0.86441 0.71217 0.12600 -0.03400
C 	C 	0.86221 0.62922 0.12421 -0.00300
C 	C 	0.94975 0.15275 0.13585 -0.00100
C 	C 	0.81139 0.15566 0.14691 -0.02400
H 	H 	0.01311 0.14753 0.13783 0.02500
C 	C 	0.45391 0.19725 0.14407 -0.04200
H 	H 	0.52184 0.25968 0.14283 0.04400
C 	C 	0.86002 0.74413 0.14207 -0.03300
C 	C 	0.85813 0.57963 0.13862 -0.03300
H 	H 	0.86203 0.80846 0.14333 0.04100
H 	H 	0.85530 0.51493 0.13736 0.04300
C 	C 	0.89416 0.15058 0.14964 -0.01500
H 	H 	0.76732 0.15275 0.15749 0.04300
C 	C 	0.27833 0.03617 0.14744 0.00800
H 	H 	0.20942 0.97475 0.14862 0.01100
C 	C 	0.85345 0.69336 0.15644 -0.00500
C 	C 	0.85378 0.61162 0.15469 -0.03200
C 	C 	0.91501 0.13161 0.16630 0.06500
C 	C 	0.32427 0.08847 0.16176 -0.02300
C 	C 	0.41317 0.16810 0.16007 -0.02200
H 	H 	0.44900 0.20915 0.17106 0.03900
H 	H 	0.85091 0.57298 0.16576 0.04400
C 	C 	0.92777 0.11030 0.18013 -0.10600
C 	C 	0.27279 0.06983 0.17746 0.06600
C 	C 	0.85947 0.73107 0.17297 0.05200
C 	C 	0.93562 0.07610 0.19621 0.35100
O 	O 	0.88134 0.98908 0.19907 -0.39900
C 	C 	0.22702 0.05811 0.19017 -0.11600
C 	C 	0.87153 0.76629 0.18664 -0.10600
C 	C 	0.89806 0.81393 0.20241 0.32700
C 	C 	0.16939 0.05028 0.20453 0.35100
O 	O 	0.13505 0.10545 0.20558 -0.40200
O 	O 	0.98117 0.13285 0.20867 -0.37400
O 	O 	0.83301 0.81464 0.21227 -0.37300
O 	O 	0.98884 0.86080 0.20624 -0.38200
O 	O 	0.16346 0.99855 0.21735 -0.41900
Ni	Ni	0.85115 0.93430 0.22308 1.11000
Ni	Ni	0.06421 0.11338 0.22566 1.11400
Ni	Ni	0.03884 0.91520 0.22921 1.10900
O 	O 	0.98034 0.98776 0.22924 -0.71400
C 	C 	0.89857 0.11243 0.24227 0.28300
O 	O 	0.92273 0.81280 0.24124 -0.36400
O 	O 	0.16726 0.12559 0.24243 -0.37900
O 	O 	0.83868 0.04462 0.23214 -0.35700
O 	O 	0.99023 0.13636 0.24377 -0.36600
H 	H 	0.97279 0.99153 0.24150 0.15500
H 	H 	0.35161 0.14128 0.24024 0.04400
C 	C 	0.77142 0.15332 0.24759 -0.01200
H 	H 	0.72446 0.10073 0.23887 0.04800
C 	C 	0.86573 0.82604 0.25154 0.28000
C 	C 	0.16933 0.05993 0.25149 0.30800
O 	O 	0.81756 0.86510 0.24596 -0.37100
O 	O 	0.09984 0.97453 0.25095 -0.42000
C 	C 	0.34442 0.12181 0.25342 -0.00700
C 	C 	0.25480 0.08138 0.26132 -0.07000
C 	C 	0.42530 0.13834 0.26262 -0.01000
H 	H 	0.49512 0.17546 0.25675 0.03600
C 	C 	0.86435 0.16922 0.25064 -0.05400
C 	C 	0.73767 0.20364 0.25620 -0.00600
H 	H 	0.66429 0.18719 0.25442 0.04400
O 	O 	0.68614 0.32158 0.27618 -0.37700
C 	C 	0.24548 0.04935 0.27793 -0.00600
C 	C 	0.41780 0.11986 0.28001 -0.07000
C 	C 	0.74264 0.73024 0.27277 -0.00700
C 	C 	0.83880 0.77834 0.26787 -0.06000
H 	H 	0.68894 0.73508 0.26542 0.04300
C 	C 	0.92480 0.24008 0.26159 -0.01300
C 	C 	0.89093 0.29036 0.27014 -0.00600
C 	C 	0.79597 0.26990 0.26803 -0.06300
H 	H 	0.99727 0.25490 0.26384 0.05200
O 	O 	0.04230 0.91717 0.99827 -0.38300
C 	C 	0.49436 0.18484 0.29086 0.30700
C 	C 	0.75212 0.30015 0.28093 0.28800
Ni	Ni	0.62289 0.37792 0.29067 1.12100
O 	O 	0.49988 0.26282 0.29344 -0.39000
O 	O 	0.74039 0.50112 0.29091 -0.38100
O 	O 	0.56528 0.17214 0.29533 -0.38000
C 	C 	0.32676 0.06735 0.28716 -0.00600
H 	H 	0.17571 0.01302 0.28385 0.04000
C 	C 	0.90768 0.77308 0.27781 -0.01000
C 	C 	0.71402 0.66818 0.28605 -0.01500
H 	H 	0.98275 0.81264 0.27453 0.04500
H 	H 	0.63846 0.62237 0.28801 0.04300
H 	H 	0.93699 0.34198 0.27911 0.04400
C 	C 	0.75031 0.56439 0.30176 0.28400
O 	O 	0.55130 0.44284 0.29877 -0.37600
O 	O 	0.76455 0.28637 0.29694 -0.38900
H 	H 	0.31966 0.04934 0.30042 0.04100
C 	C 	0.87911 0.71233 0.29139 -0.00800
C 	C 	0.78155 0.65470 0.29478 -0.06100
H 	H 	0.93218 0.70375 0.29817 0.04100
C 	C 	0.50349 0.42358 0.31309 0.30100
Ni	Ni	0.65967 0.24628 0.31387 1.12000
O 	O 	0.51867 0.37747 0.32446 -0.37700
O 	O 	0.54362 0.20406 0.32854 -0.38600
O 	O 	0.71194 0.54384 0.31736 -0.36300
O 	O 	0.67271 0.36274 0.31139 -0.71500
H 	H 	0.74211 0.39968 0.30945 0.17000
C 	C 	0.52822 0.57348 0.32184 -0.01600
C 	C 	0.46464 0.48067 0.31892 -0.07200
C 	C 	0.37577 0.43873 0.32717 -0.00900
H 	H 	0.59608 0.60768 0.31542 0.04700
H 	H 	0.32410 0.36824 0.32458 0.04000
H 	H 	0.98965 0.44141 0.32328 0.03700
C 	C 	0.81627 0.38165 0.33765 0.28300
Ni	Ni	0.65775 0.41858 0.33072 1.11300
O 	O 	0.75344 0.29431 0.33417 -0.37200
C 	C 	0.35898 0.48340 0.34043 -0.00700
C 	C 	0.51148 0.61834 0.33503 -0.00800
H 	H 	0.56539 0.68740 0.33813 0.04400
C 	C 	0.99081 0.45128 0.33682 0.00900
H 	H 	0.13930 0.55488 0.33706 0.04200
C 	C 	0.55264 0.22691 0.34436 0.30300
O 	O 	0.79121 0.44457 0.33763 -0.37100
O 	O 	0.60768 0.31266 0.34863 -0.36400
C 	C 	0.43033 0.57102 0.34525 -0.06700
H 	H 	0.29322 0.44785 0.34762 0.03800
C 	C 	0.07478 0.51794 0.34453 -0.02600
C 	C 	0.90589 0.40552 0.34617 -0.06300
C 	C 	0.39960 0.99563 0.36190 -0.02300
C 	C 	0.51936 0.15416 0.35706 -0.07200
C 	C 	0.42409 0.08268 0.35629 0.00400
H 	H 	0.32684 0.94041 0.36037 0.04200
H 	H 	0.37064 0.09273 0.35000 0.04000
C 	C 	0.42601 0.60735 0.36196 0.30000
C 	C 	0.44631 0.88581 0.37345 0.29800
C 	C 	0.16610 0.59890 0.37015 0.30600
O 	O 	0.23428 0.57968 0.36920 -0.40200
O 	O 	0.47499 0.69528 0.36476 -0.37000
O 	O 	0.38516 0.55108 0.37460 -0.37800
O 	O 	0.35734 0.81884 0.37300 -0.38500
C 	C 	0.07512 0.53774 0.36175 -0.08600
C 	C 	0.99313 0.48461 0.37148 0.01100
C 	C 	0.90970 0.41696 0.36379 -0.01000
C 	C 	0.46982 0.97950 0.36875 -0.07300
C 	C 	0.56268 0.05352 0.37133 0.00100
C 	C 	0.58696 0.14043 0.36563 -0.01200
H 	H 	0.66037 0.19523 0.36661 0.04700
Ni	Ni	0.49417 0.74938 0.38900 1.11300
Ni	Ni	0.28992 0.55987 0.38997 1.12000
O 	O 	0.51469 0.87151 0.37884 -0.36700
O 	O 	0.17339 0.66363 0.38039 -0.38000
H 	H 	0.99412 0.49527 0.38499 0.04600
H 	H 	0.84523 0.37996 0.37126 0.04400
H 	H 	0.61690 0.04344 0.37728 0.04800
Ni	Ni	0.29224 0.74836 0.39414 1.11900
O 	O 	0.17975 0.54073 0.40534 -0.38900
O 	O 	0.50900 0.64351 0.39948 -0.36600
O 	O 	0.36276 0.68632 0.39462 -0.71100
O 	O 	0.51804 0.81644 0.41192 -0.37200
O 	O 	0.39716 0.85096 0.40845 -0.37700
O 	O 	0.22063 0.68417 0.41511 -0.38600
O 	O 	0.35800 0.53766 0.40905 -0.38000
H 	H 	0.36696 0.68198 0.40694 0.14600
C 	C 	0.45154 0.58753 0.41137 0.30600
C 	C 	0.18786 0.59665 0.41784 0.30400
C 	C 	0.45968 0.84279 0.41820 0.30200
C 	C 	0.51752 0.55413 0.43914 0.04800
C 	C 	0.49154 0.57122 0.42613 -0.10000
C 	C 	0.47974 0.88214 0.43473 -0.10200
C 	C 	0.14186 0.55949 0.43373 -0.10000
C 	C 	0.54127 0.53119 0.45517 -0.00300
H 	H 	0.50604 0.39605 0.44744 0.04500
C 	C 	0.50031 0.91382 0.44873 0.05000
C 	C 	0.10555 0.53468 0.44746 0.04600
C 	C 	0.52556 0.44336 0.45788 -0.03200
C 	C 	0.56542 0.59151 0.46877 -0.03300
H 	H 	0.57684 0.65923 0.46680 0.04300
C 	C 	0.52761 0.95084 0.46546 -0.02000
C 	C 	0.61034 0.03529 0.46785 -0.01500
H 	H 	0.65336 0.07343 0.45712 0.04200
C 	C 	0.06409 0.51060 0.46412 -0.00800
C 	C 	0.97020 0.49179 0.46681 -0.02600
H 	H 	0.92609 0.48836 0.45623 0.04400
C 	C 	0.53196 0.41543 0.47419 -0.03300
C 	C 	0.55376 0.47511 0.48784 -0.00200
C 	C 	0.57164 0.56355 0.48506 -0.03300
H 	H 	0.51958 0.34741 0.47620 0.04400
C 	C 	0.47356 0.90109 0.47943 -0.02300
C 	C 	0.63682 0.07151 0.48410 -0.04300
H 	H 	0.41038 0.83502 0.47769 0.03900
H 	H 	0.69899 0.13831 0.48580 0.04700
C 	C 	0.12092 0.51597 0.47793 -0.03100
C 	C 	0.93352 0.47903 0.48324 -0.03500
H 	H 	0.19388 0.53135 0.47598 0.04200
H 	H 	0.86076 0.46423 0.48520 0.04400
C 	C 	0.56487 0.44825 0.50449 0.04600
H 	H 	0.59003 0.61051 0.49553 0.04300
C 	C 	0.50002 0.93732 0.49568 -0.05200
C 	C 	0.58067 0.02342 0.49803 0.01500
C 	C 	0.08421 0.50315 0.49436 -0.03400
C 	C 	0.99062 0.48524 0.49706 -0.00100
C 	C 	0.57884 0.42970 0.51846 -0.09700
C 	C 	0.59526 0.06884 0.51399 0.04300
H 	H 	0.45596 0.89990 0.50638 0.04500
C 	C 	0.95080 0.46680 0.51387 0.04600
H 	H 	0.12846 0.50707 0.50496 0.04500
C 	C 	0.60356 0.41383 0.53494 0.30300
C 	C 	0.60316 0.10909 0.52694 -0.09400
C 	C 	0.91494 0.44775 0.52773 -0.09900
C 	C 	0.60607 0.15955 0.54161 0.30100
C 	C 	0.86816 0.41864 0.54382 0.30400
O 	O 	0.53414 0.35984 0.54559 -0.36600
O 	O 	0.69282 0.46741 0.54012 -0.37900
O 	O 	0.83684 0.33386 0.54863 -0.38300
O 	O 	0.54180 0.18587 0.54281 -0.37100
H 	H 	0.68296 0.32973 0.54870 0.14900
Ni	Ni	0.54090 0.26674 0.56229 1.11300
Ni	Ni	0.74696 0.27893 0.56820 1.12100
Ni	Ni	0.73863 0.46199 0.56355 1.12100
O 	O 	0.86383 0.47834 0.55412 -0.37900
O 	O 	0.65883 0.16305 0.55481 -0.37800
O 	O 	0.67507 0.33314 0.56095 -0.71300
C 	C 	0.55922 0.42391 0.58181 0.29700
O 	O 	0.84397 0.37869 0.58301 -0.38400
O 	O 	0.51690 0.15724 0.57782 -0.36100
O 	O 	0.53492 0.33813 0.58305 -0.37500
O 	O 	0.62748 0.47816 0.57132 -0.37400
C 	C 	0.49817 0.53307 0.58369 -0.00900
H 	H 	0.45212 0.63015 0.58780 0.04500
H 	H 	0.53874 0.56739 0.57249 0.04800
C 	C 	0.52409 0.99239 0.58725 -0.02400
H 	H 	0.50467 0.99069 0.57411 0.04800
H 	H 	0.47221 0.84899 0.58822 0.03500
C 	C 	0.58117 0.15804 0.58814 0.30100
C 	C 	0.82051 0.42446 0.59348 0.30000
O 	O 	0.66624 0.22927 0.58905 -0.39300
O 	O 	0.77545 0.46565 0.58790 -0.38500
C 	C 	0.44728 0.56772 0.59218 -0.00900
C 	C 	0.49882 0.45603 0.58994 -0.06400
C 	C 	0.56337 0.07374 0.59644 -0.05900
C 	C 	0.50827 0.91254 0.59512 -0.00600
C 	C 	0.46474 0.83134 0.62220 0.30400
C 	C 	0.37334 0.57832 0.61903 0.28700
O 	O 	0.33695 0.62853 0.61314 -0.37600
O 	O 	0.37619 0.81102 0.62438 -0.38900
C 	C 	0.39077 0.44471 0.61241 -0.00800
C 	C 	0.39694 0.52614 0.60704 -0.06100
C 	C 	0.44198 0.41021 0.60400 -0.01000
H 	H 	0.43996 0.34970 0.60878 0.04800
C 	C 	0.86151 0.44479 0.61063 -0.06300
C 	C 	0.88844 0.52893 0.61813 -0.01100
H 	H 	0.85993 0.31778 0.61367 0.04100
H 	H 	0.86711 0.57407 0.61254 0.04400
C 	C 	0.59474 0.07608 0.61306 0.00900
C 	C 	0.52738 0.91257 0.61242 -0.06700
C 	C 	0.09039 0.55316 0.64297 0.30500
C 	C 	0.46146 0.81611 0.67671 0.30500
C 	C 	0.21205 0.79718 0.64702 0.30000
C 	C 	0.33130 0.55801 0.67578 0.27800
Ni	Ni	0.25612 0.68150 0.66765 1.11400
Ni	Ni	0.44186 0.69827 0.64858 1.12000
Ni	Ni	0.26987 0.68381 0.62677 1.12200
O 	O 	0.11622 0.60247 0.65728 -0.36400
O 	O 	0.15353 0.56292 0.63133 -0.38200
O 	O 	0.49481 0.77654 0.62754 -0.38300
O 	O 	0.37702 0.75782 0.68295 -0.36600
O 	O 	0.47748 0.81508 0.66064 -0.39100
O 	O 	0.27222 0.80085 0.65827 -0.37700
O 	O 	0.18819 0.73933 0.63438 -0.37100
O 	O 	0.40836 0.58900 0.63451 -0.39000
O 	O 	0.25783 0.57113 0.67773 -0.36600
O 	O 	0.41699 0.62515 0.67073 -0.37000
O 	O 	0.31106 0.66435 0.64804 -0.71500
H 	H 	0.28186 0.59783 0.64795 0.16500
C 	C 	0.15621 0.18762 0.74994 0.30200
C 	C 	0.06816 0.93558 0.69307 0.32100
C 	C 	0.12948 0.21374 0.70388 0.30000
C 	C 	0.11901 0.91485 0.74098 0.27700
C 	C 	0.81776 0.96110 0.70975 0.26800
C 	C 	0.88146 0.94657 0.75481 0.26800
Ni	Ni	0.16186 0.07666 0.72015 1.11700
Ni	Ni	0.94803 0.89993 0.72370 1.10800
Ni	Ni	0.97721 0.09854 0.72956 1.11100
O 	O 	0.20403 0.18886 0.73618 -0.37400
O 	O 	0.06458 0.16434 0.74931 -0.36300
O 	O 	0.82520 0.89604 0.71734 -0.38000
O 	O 	0.14247 0.97562 0.70317 -0.38500
O 	O 	0.98142 0.90925 0.69872 -0.40300
O 	O 	0.87439 0.00835 0.74558 -0.35600
O 	O 	0.13782 0.14287 0.70071 -0.37600
O 	O 	0.06947 0.21044 0.71559 -0.35900
O 	O 	0.90367 0.88836 0.74783 -0.38800
O 	O 	0.18388 0.00086 0.73826 -0.34400
O 	O 	0.05048 0.86823 0.72984 -0.36500
O 	O 	0.89003 0.04527 0.70953 -0.36900
O 	O 	0.03532 0.02560 0.72775 -0.69100
H 	H 	0.04738 0.02206 0.73981 0.15500
C 	C 	0.13950 0.79172 0.78356 -0.00000
C 	C 	0.06990 0.76790 0.79615 -0.03400
C 	C 	0.08231 0.73865 0.81194 -0.03200
C 	C 	0.16435 0.73309 0.81519 -0.00200
C 	C 	0.23200 0.75331 0.80238 -0.03300
C 	C 	0.21961 0.78260 0.78659 -0.03500
C 	C 	0.13297 0.83317 0.76819 0.04200
C 	C 	0.12717 0.86969 0.75559 -0.09300
C 	C 	0.18406 0.71614 0.83209 0.04600
C 	C 	0.20277 0.70480 0.84628 -0.09600
H 	H 	0.00764 0.77459 0.79387 0.04700
H 	H 	0.02965 0.72301 0.82178 0.04600
H 	H 	0.29555 0.74903 0.80480 0.04200
H 	H 	0.27357 0.80065 0.77690 0.04200
C 	C 	0.30994 0.36651 0.82772 -0.00100
C 	C 	0.26972 0.27283 0.82528 -0.02900
C 	C 	0.25704 0.23756 0.80891 -0.03000
C 	C 	0.28414 0.29585 0.79494 0.00000
C 	C 	0.33241 0.39002 0.79747 -0.03200
C 	C 	0.34537 0.42531 0.81383 -0.03100
C 	C 	0.29951 0.40041 0.84376 0.05000
C 	C 	0.28752 0.42973 0.85682 -0.09700
C 	C 	0.24564 0.25927 0.77856 0.05000
C 	C 	0.20781 0.22745 0.76522 -0.09300
H 	H 	0.24326 0.22696 0.83596 0.05000
H 	H 	0.22068 0.16466 0.80708 0.05200
H 	H 	0.35460 0.43564 0.78675 0.04400
H 	H 	0.37776 0.49798 0.81563 0.04300
C 	C 	0.76661 0.89348 0.80220 -0.00400
C 	C 	0.70333 0.92348 0.80682 -0.03700
C 	C 	0.65661 0.89863 0.82243 -0.03600
C 	C 	0.67302 0.84372 0.83350 -0.00600
C 	C 	0.73826 0.81575 0.82907 -0.03600
C 	C 	0.78499 0.84060 0.81345 -0.03700
C 	C 	0.80862 0.91288 0.78558 0.03300
C 	C 	0.84249 0.92846 0.77157 -0.09600
C 	C 	0.61725 0.81000 0.84872 0.04400
H 	H 	0.68896 0.96457 0.79820 0.03800
H 	H 	0.60621 0.92043 0.82576 0.03800
H 	H 	0.75128 0.77325 0.83756 0.04000
H 	H 	0.83402 0.81737 0.80999 0.03600
C 	C 	0.62408 0.94909 0.68150 0.00400
C 	C 	0.54342 0.87122 0.68798 -0.08000
C 	C 	0.55064 0.83592 0.70354 -0.00200
C 	C 	0.63963 0.87083 0.71143 -0.02100
C 	C 	0.72248 0.94076 0.70373 -0.05000
C 	C 	0.71349 0.98294 0.68923 -0.05000
H 	H 	0.61881 0.97931 0.66981 0.03400
H 	H 	0.48885 0.77752 0.70895 0.04500
H 	H 	0.64490 0.84045 0.72309 0.04900
H 	H 	0.77619 0.03858 0.68341 0.06700
C 	C 	0.28241 0.39677 0.67247 -0.01400
C 	C 	0.32157 0.47430 0.68281 -0.05900
C 	C 	0.31330 0.46297 0.70042 -0.00700
C 	C 	0.25100 0.37765 0.70734 -0.00600
C 	C 	0.20050 0.30221 0.69672 -0.06700
C 	C 	0.22106 0.31096 0.67938 -0.00500
H 	H 	0.29099 0.40407 0.65888 0.03900
H 	H 	0.34636 0.52189 0.70862 0.04200
H 	H 	0.24003 0.37077 0.72088 0.05000
H 	H 	0.18616 0.25230 0.67114 0.04500
C 	C 	0.18856 0.92657 0.65338 -0.00200
C 	C 	0.14903 0.83226 0.65189 -0.06500
C 	C 	0.06476 0.77463 0.66082 -0.02600
C 	C 	0.02970 0.81030 0.67292 0.02600
C 	C 	0.07992 0.90337 0.67651 -0.07300
C 	C 	0.15523 0.96212 0.66588 -0.02800
H 	H 	0.25199 0.97205 0.64624 0.03600
H 	H 	0.03455 0.70198 0.66022 0.05100
H 	H 	0.96981 0.76443 0.68077 0.01700
H 	H 	0.19246 0.03472 0.66812 0.06000
H 	H 	0.35103 0.41119 0.62373 0.04100
C 	C 	0.88517 0.38529 0.61869 -0.01000
C 	C 	0.95221 0.55954 0.63168 -0.00700
C 	C 	0.98995 0.50650 0.63773 -0.08400
C 	C 	0.94798 0.41570 0.63245 -0.00300
H 	H 	0.98279 0.62928 0.63566 0.03600
H 	H 	0.97301 0.37236 0.63756 0.03300
C 	C 	0.57743 0.99578 0.62097 -0.02600
H 	H 	0.62950 0.13944 0.62002 0.04100
H 	H 	0.59474 0.99712 0.63423 0.04100
C 	C 	0.22805 0.69472 0.86314 0.30200
C 	C 	0.27059 0.46654 0.87185 0.30200
O 	O 	0.15958 0.63647 0.87347 -0.36400
O 	O 	0.31391 0.75623 0.86887 -0.37900
O 	O 	0.19510 0.47778 0.87236 -0.36600
C 	C 	0.56885 0.77974 0.86123 -0.10300
C 	C 	0.50911 0.74092 0.87579 0.30600
Ni	Ni	0.17569 0.55277 0.89115 1.11300
O 	O 	0.49039 0.79326 0.88565 -0.38500
O 	O 	0.48502 0.65730 0.88036 -0.38400
O 	O 	0.32165 0.47570 0.88560 -0.38000
O 	O 	0.30876 0.63245 0.89110 -0.71300
H 	H 	0.32138 0.63040 0.87901 0.14600
Ni	Ni	0.39249 0.59328 0.89931 1.12100
Ni	Ni	0.35605 0.75964 0.89307 1.12000
O 	O 	0.23281 0.75875 0.89881 -0.37800
H 	H 	0.17351 0.29390 0.90216 0.05200
H 	H 	0.12271 0.82740 0.89763 0.04600
C 	C 	0.22865 0.45514 0.91762 0.30100
C 	C 	0.16693 0.70267 0.90941 0.29600
O 	O 	0.47508 0.69816 0.91457 -0.38400
O 	O 	0.16113 0.44919 0.90746 -0.36100
O 	O 	0.30839 0.53204 0.91940 -0.39300
O 	O 	0.14820 0.61819 0.91082 -0.37000
O 	O 	0.38646 0.76772 0.91789 -0.38600
C 	C 	0.18849 0.29354 0.91549 -0.00400
C 	C 	0.17306 0.21308 0.92308 -0.00700
H 	H 	0.14193 0.15108 0.91570 0.04800
C 	C 	0.10212 0.73057 0.91725 -0.06200
C 	C 	0.09202 0.80065 0.90992 -0.01000
C 	C 	0.04663 0.83971 0.91880 -0.01300
H 	H 	0.04559 0.89780 0.91350 0.04200
C 	C 	0.44043 0.73749 0.92431 0.30000
O 	O 	0.96536 0.92367 0.94066 -0.38700
H 	H 	0.51566 0.90700 0.93723 0.03500
C 	C 	0.21975 0.37229 0.92526 -0.06900
C 	C 	0.18315 0.20953 0.94064 -0.06100
C 	C 	0.05701 0.69347 0.93272 -0.01300
C 	C 	0.01028 0.80886 0.93506 -0.05400
C 	C 	0.01026 0.73169 0.94147 -0.00200
H 	H 	0.06189 0.63800 0.93835 0.04800
C 	C 	0.11238 0.12780 0.94950 0.30400
C 	C 	0.99534 0.86855 0.94678 0.26800
Ni	Ni	0.91127 0.99223 0.95403 1.10600
O 	O 	0.13361 0.06664 0.95490 -0.36000
O 	O 	0.84473 0.06295 0.96152 -0.35200
O 	O 	0.02573 0.11420 0.95079 -0.37000
C 	C 	0.60145 0.89801 0.95692 -0.01700
C 	C 	0.49747 0.71064 0.95160 -0.00700
C 	C 	0.48273 0.76886 0.94111 -0.06700
C 	C 	0.52849 0.86161 0.94492 -0.00700
H 	H 	0.64678 0.97087 0.95761 0.03200
H 	H 	0.45949 0.63815 0.94923 0.04000
C 	C 	0.24605 0.37245 0.94215 -0.00600
C 	C 	0.22901 0.29137 0.94975 -0.00800
H 	H 	0.27513 0.43406 0.94961 0.04100
H 	H 	0.97980 0.70526 0.95380 0.03300
H 	H 	0.94537 0.30308 0.97833 0.04100
C 	C 	0.72696 0.87870 0.97057 0.28400
C 	C 	0.87663 0.12236 0.97401 0.29800
O 	O 	0.78605 0.87963 0.95890 -0.38700
O 	O 	0.03047 0.87817 0.96223 -0.38700
O 	O 	0.94779 0.96866 0.97539 -0.73200
C 	C 	0.62689 0.84130 0.96560 -0.06600
C 	C 	0.56881 0.74687 0.96398 -0.01000
H 	H 	0.24104 0.29041 0.96320 0.04300
C 	C 	0.87570 0.25923 0.98385 -0.01000
Ni	Ni	0.07451 0.99044 0.97599 1.10700
O 	O 	0.75872 0.92928 0.98466 -0.37900
O 	O 	0.12212 0.10923 0.98816 -0.37700
O 	O 	0.93351 0.11873 0.98511 -0.36700
H 	H 	0.91208 0.90180 0.97537 0.16800
H 	H 	0.90877 0.69895 0.98762 0.03600
C 	C 	0.73093 0.11330 0.98578 -0.01500
C 	C 	0.82336 0.16726 0.97917 -0.06300
H 	H 	0.68917 0.04265 0.98233 0.05900
H 	H 	0.58588 0.70208 0.97093 0.03700
C 	C 	0.84556 0.29073 0.99755 -0.00400
C 	C 	0.69968 0.14517 0.99919 -0.00300
H 	H 	0.89077 0.35942 0.00212 0.03900
H 	H 	0.80117 0.54869 0.00014 0.04100
Ni	Ni	0.89933 0.99454 0.99494 1.10000
