data_crystal

_cell_length_a 26.79072
_cell_length_b 29.11928
_cell_length_c 38.67728
_cell_angle_alpha 61.06379
_cell_angle_beta  118.62778
_cell_angle_gamma 133.15315

_symmetry_space_group_name_	'P 1'
_symmetry_space_group_name_H-M	'P 1'

loop_
_symmetry_equiv_pos_as_xyz
  x,y,z

loop_
_atom_site_label
_atom_site_type_symbol
_atom_site_fract_x
_atom_site_fract_y
_atom_site_fract_z
_atom_site_charge
C 	C 	0.27408 0.60227 0.24596 0.20700
N 	N 	0.34150 0.63445 0.24529 -0.07900
C 	C 	0.36300 0.60165 0.24816 0.20800
N 	N 	0.31704 0.53649 0.25274 -0.10900
C 	C 	0.24778 0.50608 0.24739 0.18800
N 	N 	0.22652 0.53844 0.24549 -0.06300
C 	C 	0.28215 0.62884 0.72879 0.20200
N 	N 	0.22974 0.56620 0.72558 -0.06800
C 	C 	0.24593 0.52897 0.72840 0.19800
N 	N 	0.31419 0.55352 0.73664 -0.08300
C 	C 	0.36489 0.61792 0.73353 0.20000
N 	N 	0.34922 0.65564 0.73055 -0.09300
Co	Co	0.05205 0.01254 0.06981 1.18900
C 	C 	0.18735 0.04648 0.07217 0.31200
Co	Co	0.06477 0.90909 0.06853 1.19900
O 	O 	0.05087 0.08500 0.06378 -0.37900
C 	C 	0.05378 0.13602 0.15775 0.31100
C 	C 	0.09076 0.85263 0.15722 0.30900
O 	O 	0.00803 0.08497 0.18009 -0.34900
O 	O 	0.06517 0.13076 0.13028 -0.29500
O 	O 	0.12233 0.89788 0.12719 -0.31400
O 	O 	0.04463 0.84871 0.16509 -0.29200
O 	O 	0.03480 0.93837 0.09067 -0.71900
O 	O 	0.14823 0.00393 0.05054 -0.37400
O 	O 	0.15918 0.06053 0.08212 -0.30700
Co	Co	0.07084 0.03895 0.56413 1.19800
Co	Co	0.99807 0.06663 0.59302 1.18200
C 	C 	0.21899 0.09249 0.57175 0.30500
Co	Co	0.11208 0.95446 0.56728 1.20500
O 	O 	0.05617 0.10376 0.55510 -0.37400
C 	C 	0.03674 0.16274 0.62705 0.34300
C 	C 	0.14724 0.90454 0.65809 0.32200
O 	O 	0.10283 0.01167 0.50937 -0.33900
O 	O 	0.96851 0.12809 0.62106 -0.40600
O 	O 	0.06359 0.14336 0.62073 -0.30300
O 	O 	0.12641 0.89423 0.62263 -0.33700
O 	O 	0.12559 0.92927 0.66389 -0.31700
O 	O 	0.06402 0.96961 0.58642 -0.72000
O 	O 	0.20960 0.03672 0.58329 -0.31500
O 	O 	0.17990 0.09639 0.58034 -0.32000
C 	C 	0.03724 0.04297 0.38184 0.03800
C 	C 	0.07619 0.09481 0.35252 0.00900
C 	C 	0.07108 0.08308 0.31942 -0.00600
C 	C 	0.02603 0.01943 0.31481 0.05500
C 	C 	0.01820 0.00771 0.28065 -0.04000
C 	C 	0.04541 0.05405 0.41643 0.01600
H 	H 	0.11120 0.14417 0.35561 0.14000
H 	H 	0.10170 0.12361 0.29718 0.13000
H 	H 	0.04821 0.04793 0.25814 0.11300
H 	H 	0.08049 0.10316 0.41999 0.13600
C 	C 	0.16737 0.30377 0.67724 0.03600
C 	C 	0.12446 0.32304 0.66583 0.11500
C 	C 	0.06044 0.29677 0.63638 -0.11000
C 	C 	0.04601 0.25915 0.61564 0.10500
C 	C 	0.07987 0.22920 0.63246 0.00300
C 	C 	0.14329 0.25347 0.66296 -0.04600
C 	C 	0.14856 0.37330 0.68306 0.09600
C 	C 	0.00578 0.30579 0.62810 0.82000
H 	H 	0.00125 0.24505 0.58997 0.11400
C 	C 	0.18531 0.22672 0.67997 0.77900
H 	H 	0.21842 0.32682 0.69779 0.15200
C 	C 	0.15369 0.36045 0.72468 -0.07300
C 	C 	0.17982 0.41078 0.73956 0.07300
C 	C 	0.19156 0.46981 0.71289 0.08200
C 	C 	0.17107 0.47593 0.67069 -0.05200
C 	C 	0.15925 0.43211 0.65663 0.06800
C 	C 	0.13460 0.29484 0.75367 0.78400
H 	H 	0.19440 0.40530 0.77201 0.13200
C 	C 	0.15868 0.52700 0.64095 0.78800
H 	H 	0.15527 0.44230 0.62487 0.15000
F 	F 	0.24735 0.25964 0.70731 -0.37800
F 	F 	0.20232 0.23277 0.64871 -0.39200
F 	F 	0.14620 0.16199 0.69996 -0.42500
F 	F 	0.01982 0.36287 0.59904 -0.34900
F 	F 	0.00487 0.30729 0.66300 -0.36400
F 	F 	0.12451 0.51607 0.60238 -0.33600
F 	F 	0.22190 0.58802 0.63881 -0.36500
F 	F 	0.11709 0.52545 0.65359 -0.35600
F 	F 	0.12350 0.28683 0.78827 -0.37900
F 	F 	0.18880 0.29030 0.76520 -0.40100
F 	F 	0.07343 0.24481 0.73569 -0.39300
C 	C 	0.51127 0.64590 0.71382 0.04500
C 	C 	0.56991 0.70379 0.72554 0.10200
C 	C 	0.56252 0.73097 0.74337 -0.08400
C 	C 	0.49517 0.70130 0.74641 0.06300
C 	C 	0.43518 0.64778 0.72984 0.06800
C 	C 	0.44337 0.62268 0.71061 -0.07000
H 	H 	0.48913 0.72102 0.76060 0.13700
C 	C 	0.38143 0.57598 0.68368 0.77900
H 	H 	0.51801 0.62384 0.70202 0.14500
F 	F 	0.34750 0.51310 0.70726 -0.40400
F 	F 	0.40353 0.57834 0.65663 -0.37500
F 	F 	0.33483 0.59216 0.66086 -0.38300
F 	F 	0.62867 0.62292 0.75716 -0.38700
C 	C 	0.26665 0.72469 0.75922 0.05600
C 	C 	0.23721 0.75069 0.72143 0.09700
C 	C 	0.22459 0.73820 0.68579 -0.07200
C 	C 	0.23768 0.69654 0.68917 0.07000
C 	C 	0.26538 0.66930 0.72700 0.07500
C 	C 	0.27943 0.68277 0.76256 -0.06500
C 	C 	0.22071 0.79203 0.71932 0.09900
C 	C 	0.19963 0.77088 0.64413 0.79200
H 	H 	0.22740 0.68601 0.66224 0.15500
C 	C 	0.30935 0.65370 0.80389 0.78500
H 	H 	0.27899 0.73673 0.78604 0.14500
C 	C 	0.15377 0.76451 0.72222 -0.08500
C 	C 	0.13355 0.80539 0.70900 0.08200
C 	C 	0.17898 0.87240 0.69307 0.02500
C 	C 	0.25039 0.90042 0.69903 -0.05400
C 	C 	0.27032 0.85980 0.71106 0.05100
C 	C 	0.10331 0.69188 0.73806 0.78800
H 	H 	0.07994 0.78438 0.70674 0.11200
C 	C 	0.30345 0.97333 0.68755 0.80800
H 	H 	0.32305 0.88095 0.71141 0.14000
F 	F 	0.31112 0.66580 0.83510 -0.35300
F 	F 	0.37720 0.68011 0.80589 -0.38400
F 	F 	0.26838 0.58712 0.80994 -0.37000
F 	F 	0.24887 0.83750 0.63743 -0.38400
F 	F 	0.13625 0.75480 0.64160 -0.38000
F 	F 	0.19021 0.75201 0.61358 -0.33500
F 	F 	0.37038 0.99157 0.71063 -0.35000
F 	F 	0.28746 0.00427 0.69416 -0.43000
F 	F 	0.30306 0.99332 0.64697 -0.36900
F 	F 	0.04346 0.67547 0.74160 -0.35600
F 	F 	0.13580 0.67133 0.77607 -0.37000
F 	F 	0.08297 0.65930 0.71194 -0.34100
C 	C 	0.16747 0.40547 0.17887 0.05800
C 	C 	0.15034 0.34564 0.20648 0.08800
C 	C 	0.15137 0.33490 0.24669 -0.07600
C 	C 	0.17812 0.38738 0.25947 0.06600
C 	C 	0.19670 0.44755 0.23180 0.07400
C 	C 	0.18324 0.45383 0.19024 -0.07000
C 	C 	0.12767 0.29366 0.19213 0.11100
C 	C 	0.12848 0.26927 0.27672 0.78100
H 	H 	0.18797 0.38250 0.29128 0.13400
C 	C 	0.18873 0.51330 0.15830 0.78800
H 	H 	0.16701 0.41369 0.14826 0.14500
C 	C 	0.06363 0.26485 0.16308 -0.11400
C 	C 	0.04974 0.22439 0.14507 0.08800
C 	C 	0.08935 0.20044 0.16181 0.00200
C 	C 	0.15391 0.22931 0.19044 -0.05300
C 	C 	0.17334 0.27714 0.20466 0.02900
C 	C 	0.01076 0.27823 0.15012 0.81800
H 	H 	0.00381 0.20640 0.12045 0.09300
C 	C 	0.20056 0.20757 0.20685 0.77800
H 	H 	0.22340 0.30098 0.22577 0.14000
F 	F 	0.15512 0.52796 0.16496 -0.35600
F 	F 	0.15727 0.50293 0.11965 -0.33300
F 	F 	0.25861 0.56566 0.15983 -0.40200
F 	F 	0.18059 0.26099 0.29068 -0.42600
F 	F 	0.06671 0.21960 0.25866 -0.40800
F 	F 	0.11647 0.26458 0.30973 -0.38900
F 	F 	0.20815 0.20442 0.17526 -0.38300
F 	F 	0.17051 0.14688 0.23330 -0.41800
F 	F 	0.26698 0.25014 0.22742 -0.37400
F 	F 	0.02883 0.33428 0.11925 -0.35800
F 	F 	0.00822 0.28510 0.18210 -0.35500
C 	C 	0.53797 0.71418 0.19665 0.09300
C 	C 	0.47778 0.65309 0.18828 -0.07700
C 	C 	0.42280 0.61543 0.20737 0.07200
C 	C 	0.42705 0.63738 0.23468 0.06600
C 	C 	0.49063 0.69491 0.24649 -0.07000
C 	C 	0.54424 0.73430 0.22583 0.05200
C 	C 	0.47367 0.62633 0.16083 0.78800
H 	H 	0.37575 0.56938 0.20038 0.12800
C 	C 	0.50183 0.71493 0.28069 0.78400
F 	F 	0.48220 0.76705 0.11802 -0.35200
F 	F 	0.47084 0.66126 0.31139 -0.37400
F 	F 	0.47326 0.74828 0.26570 -0.36600
F 	F 	0.40711 0.57081 0.15199 -0.36600
F 	F 	0.52091 0.61088 0.17995 -0.38100
F 	F 	0.48944 0.67153 0.12439 -0.35500
C 	C 	0.19984 0.79013 0.22793 0.04400
C 	C 	0.16153 0.73408 0.21509 0.10600
C 	C 	0.09193 0.70890 0.19112 -0.09500
C 	C 	0.06706 0.74671 0.17450 0.09200
C 	C 	0.10899 0.80673 0.18346 0.01300
C 	C 	0.17293 0.82574 0.21327 -0.03900
C 	C 	0.19633 0.70465 0.22460 0.09400
C 	C 	0.04487 0.64258 0.18272 0.81000
H 	H 	0.01649 0.73106 0.15309 0.10000
C 	C 	0.21345 0.88487 0.22845 0.78200
H 	H 	0.25178 0.80739 0.24789 0.15000
C 	C 	0.23266 0.72397 0.19764 -0.06900
C 	C 	0.25709 0.68923 0.20511 0.07600
C 	C 	0.25018 0.63900 0.24022 0.08200
C 	C 	0.22114 0.62482 0.26947 -0.05900
C 	C 	0.19245 0.65660 0.26068 0.06000
C 	C 	0.24740 0.78276 0.16177 0.78800
H 	H 	0.28122 0.70084 0.18352 0.14700
C 	C 	0.21853 0.57454 0.30937 0.78400
H 	H 	0.16599 0.64331 0.28154 0.14500
F 	F 	0.24781 0.94054 0.19969 -0.37000
F 	F 	0.26282 0.88507 0.26439 -0.35100
F 	F 	0.16801 0.88540 0.23565 -0.38000
F 	F 	0.04066 0.59623 0.21896 -0.36500
F 	F 	0.07189 0.64316 0.15962 -0.35100
F 	F 	0.97729 0.62465 0.16190 -0.39000
F 	F 	0.20482 0.57950 0.33721 -0.35400
F 	F 	0.28227 0.58297 0.32641 -0.36700
F 	F 	0.16593 0.51302 0.30259 -0.35900
F 	F 	0.28495 0.79445 0.13984 -0.34600
F 	F 	0.28656 0.83729 0.17557 -0.36200
F 	F 	0.18499 0.77330 0.13573 -0.37300
C 	C 	0.51593 0.33100 0.50810 0.05200
C 	C 	0.47624 0.26477 0.52703 0.09500
C 	C 	0.49071 0.22464 0.52931 -0.08200
C 	C 	0.55343 0.25404 0.52043 0.06600
C 	C 	0.59533 0.32113 0.50351 0.06700
C 	C 	0.57098 0.35794 0.49257 -0.07600
C 	C 	0.41407 0.23671 0.53912 0.09700
C 	C 	0.43765 0.15114 0.53848 0.78700
H 	H 	0.57037 0.22513 0.52740 0.12800
C 	C 	0.60148 0.42462 0.46351 0.78600
H 	H 	0.50194 0.36089 0.50394 0.13000
C 	C 	0.41347 0.21640 0.58037 -0.08400
C 	C 	0.34830 0.17085 0.59117 0.09500
C 	C 	0.28559 0.15263 0.56091 0.02600
C 	C 	0.28887 0.18629 0.51968 -0.06300
C 	C 	0.35307 0.22598 0.50911 0.05000
C 	C 	0.48153 0.24362 0.61247 0.79200
H 	H 	0.34607 0.14769 0.62285 0.13300
C 	C 	0.22387 0.17507 0.48612 0.78000
H 	H 	0.35484 0.24551 0.47736 0.12500
F 	F 	0.65682 0.47159 0.48511 -0.38200
F 	F 	0.55094 0.43627 0.44160 -0.37600
F 	F 	0.62474 0.42941 0.43597 -0.36600
F 	F 	0.37296 0.13408 0.51200 -0.40100
F 	F 	0.43049 0.12681 0.57785 -0.36400
F 	F 	0.45811 0.12201 0.53403 -0.37600
F 	F 	0.24058 0.23170 0.45580 -0.38800
F 	F 	0.17171 0.15617 0.49980 -0.44500
F 	F 	0.19904 0.12818 0.46965 -0.42900
F 	F 	0.46954 0.23143 0.64804 -0.36200
F 	F 	0.52684 0.31015 0.59874 -0.38500
F 	F 	0.51348 0.21588 0.62106 -0.35500
C 	C 	0.37420 0.17483 0.06068 0.04100
C 	C 	0.40088 0.13803 0.08301 0.09400
C 	C 	0.36235 0.07630 0.10873 -0.07800
C 	C 	0.29386 0.04944 0.10757 0.07800
C 	C 	0.26410 0.08328 0.08166 0.01300
C 	C 	0.30568 0.14794 0.05956 -0.05100
C 	C 	0.46799 0.16382 0.07791 0.09900
C 	C 	0.39433 0.03945 0.13760 0.75900
H 	H 	0.26192 0.00058 0.12501 0.11100
C 	C 	0.27663 0.18766 0.03424 0.78100
H 	H 	0.40596 0.22341 0.04281 0.13400
C 	C 	0.47072 0.16135 0.04314 -0.08600
C 	C 	0.53631 0.20005 0.03416 0.06200
C 	C 	0.59841 0.23810 0.06020 0.05800
C 	C 	0.59588 0.23155 0.09814 -0.06400
C 	C 	0.53050 0.19789 0.10541 0.04900
C 	C 	0.40385 0.12336 0.01329 0.77800
H 	H 	0.53879 0.20416 0.00554 0.11100
C 	C 	0.66260 0.26350 0.12994 0.78300
H 	H 	0.52818 0.19984 0.13186 0.14700
F 	F 	0.32602 0.25005 0.01595 -0.37100
F 	F 	0.25655 0.19217 0.05876 -0.38300
F 	F 	0.21899 0.15831 0.00402 -0.42000
F 	F 	0.45134 0.07367 0.16613 -0.37400
F 	F 	0.41633 0.03137 0.11642 -0.36200
F 	F 	0.34661 0.97850 0.15805 -0.31200
F 	F 	0.64952 0.23096 0.16842 -0.34700
F 	F 	0.41747 0.11328 0.98825 -0.37700
F 	F 	0.37520 0.15757 0.98935 -0.40400
F 	F 	0.35508 0.06314 0.03352 -0.38800
C 	C 	0.00358 0.98749 0.76988 0.16300
C 	C 	0.55037 0.82216 0.12424 0.78800
F 	F 	0.55873 0.84702 0.15085 -0.37900
F 	F 	0.57282 0.75498 0.29760 -0.37900
O 	O 	0.01213 0.97571 0.12423 -0.50600
C 	C 	0.01076 0.97706 0.99290 0.33200
O 	O 	0.00518 0.00399 0.00927 -0.35600
Co	Co	0.03139 0.91792 0.62844 1.21100
C 	C 	0.04643 0.01017 0.48992 0.31000
C 	C 	0.99720 0.00172 0.72641 0.11700
O 	O 	0.98663 0.04628 0.70114 -0.31400
O 	O 	0.01512 0.97959 0.71457 -0.24100
C 	C 	0.00503 0.99764 0.87593 0.06900
C 	C 	0.00507 0.99248 0.84144 0.04500
C 	C 	0.06840 0.03240 0.82924 0.05300
C 	C 	0.13150 0.07612 0.85218 -0.01200
C 	C 	0.13175 0.07985 0.88712 -0.00300
C 	C 	0.06876 0.04050 0.89931 0.03400
C 	C 	0.06921 0.04102 0.93571 -0.06000
C 	C 	0.00654 0.99870 0.94893 0.07000
C 	C 	0.06739 0.02979 0.79343 -0.09400
H 	H 	0.18046 0.10717 0.84307 0.11500
H 	H 	0.18104 0.11314 0.90476 0.11800
H 	H 	0.11879 0.07027 0.95530 0.12200
H 	H 	0.11519 0.06323 0.78260 0.13700
F 	F 	0.10688 0.78956 0.55200 -0.35700
O 	O 	0.02584 0.02531 0.50517 -0.31500
F 	F 	0.61256 0.80344 0.78201 -0.37400
H 	H 	0.59135 0.78053 0.23266 0.12600
H 	H 	0.06421 0.81377 0.57718 0.07700
F 	F 	0.56002 0.86763 0.08728 -0.34100
C 	C 	0.66197 0.29269 0.04429 0.19600
C 	C 	0.66797 0.35335 0.50323 0.20200
F 	F 	0.68820 0.32703 0.12237 -0.35700
N 	N 	0.68911 0.35420 0.04067 -0.09100
N 	N 	0.69076 0.28190 0.03084 -0.09800
N 	N 	0.68314 0.32226 0.49711 -0.10200
N 	N 	0.72092 0.41037 0.51422 -0.08200
C 	C 	0.63186 0.74357 0.70877 0.09900
C 	C 	0.62451 0.79516 0.75505 0.78800
C 	C 	0.68715 0.73629 0.72928 -0.09600
C 	C 	0.63218 0.78529 0.67004 0.04200
C 	C 	0.68138 0.68213 0.76722 0.78900
H 	H 	0.58820 0.78851 0.65375 0.13700
F 	F 	0.63492 0.84554 0.72058 -0.39500
F 	F 	0.68514 0.79818 0.77348 -0.40100
F 	F 	0.61975 0.84224 0.58722 -0.34500
F 	F 	0.74349 0.68754 0.78485 -0.38900
F 	F 	0.66569 0.68350 0.79581 -0.37100
C 	C 	0.64748 0.74359 0.19386 0.04400
C 	C 	0.59697 0.75555 0.17707 0.09300
C 	C 	0.60275 0.80630 0.14184 -0.07800
C 	C 	0.66119 0.84579 0.12517 0.07500
H 	H 	0.66750 0.88607 0.09904 0.16200
H 	H 	0.64232 0.70458 0.22083 0.13200
H 	H 	0.73102 0.32196 0.43782 0.13400
F 	F 	0.67014 0.97425 0.53670 -0.30400
F 	F 	0.71950 0.28035 0.39224 -0.35700
F 	F 	0.67122 0.17635 0.42734 -0.38000
H 	H 	0.72626 0.31251 0.94710 0.11800
F 	F 	0.70127 0.19449 0.93093 -0.38400
F 	F 	0.73892 0.29703 0.89585 -0.36300
F 	F 	0.68269 0.02146 0.99963 -0.36000
C 	C 	0.66928 0.54045 0.98485 0.79800
H 	H 	0.67522 0.45735 0.97561 0.11400
F 	F 	0.68727 0.59428 0.95235 -0.38100
F 	F 	0.65693 0.54801 0.01196 -0.36400
F 	F 	0.60692 0.48680 0.97057 -0.36900
F 	F 	0.71330 0.26261 0.12956 -0.34300
Co	Co	0.99663 0.05345 0.10251 1.17000
F 	F 	0.93925 0.25478 0.61400 -0.41200
O 	O 	0.95896 0.92270 0.21730 -0.29500
F 	F 	0.76595 0.53777 0.43950 -0.35700
C 	C 	0.94143 0.95889 0.88751 0.04800
C 	C 	0.94168 0.94788 0.81897 0.06700
C 	C 	0.94225 0.96187 0.92305 -0.02200
C 	C 	0.94163 0.94436 0.78393 -0.09100
C 	C 	0.01334 0.00149 0.44813 -0.02800
C 	C 	0.87856 0.90921 0.83083 -0.01800
C 	C 	0.87836 0.91503 0.86468 0.01000
H 	H 	0.82949 0.87490 0.81370 0.13300
H 	H 	0.82924 0.88470 0.87344 0.13400
H 	H 	0.89359 0.93114 0.93243 0.14100
H 	H 	0.89249 0.91149 0.76591 0.10400
F 	F 	0.94390 0.22727 0.13607 -0.42400
O 	O 	0.00188 0.92125 0.01242 -0.30000
C 	C 	0.93785 0.93899 0.23133 0.30100
C 	C 	0.74855 0.33260 0.01526 0.18600
N 	N 	0.77566 0.39465 0.01144 -0.07600
C 	C 	0.74580 0.40527 0.02442 0.20000
C 	C 	0.75108 0.34779 0.50251 0.19300
C 	C 	0.78850 0.43767 0.51767 0.19800
N 	N 	0.80392 0.40605 0.51236 -0.06900
C 	C 	0.78523 0.89194 0.13574 0.29100
O 	O 	0.80545 0.95155 0.12695 -0.29000
O 	O 	0.82127 0.88179 0.12973 -0.29100
C 	C 	0.81885 0.88344 0.66787 0.31900
O 	O 	0.84672 0.93431 0.67883 -0.33600
O 	O 	0.85668 0.87980 0.65790 -0.31800
C 	C 	0.90843 0.86299 0.40237 -0.00200
C 	C 	0.90074 0.85156 0.36821 -0.01600
H 	H 	0.87895 0.82232 0.42505 0.09500
H 	H 	0.86479 0.80232 0.36476 0.10900
H 	H 	0.93903 0.89752 0.46657 0.08100
C 	C 	0.74640 0.77806 0.71267 0.08100
C 	C 	0.74949 0.82469 0.67578 0.01200
C 	C 	0.68897 0.82347 0.65245 -0.05600
H 	H 	0.79175 0.77703 0.72947 0.09700
C 	C 	0.68785 0.86858 0.61080 0.78400
F 	F 	0.72741 0.87938 0.59079 -0.37500
F 	F 	0.71463 0.92679 0.61508 -0.38400
C 	C 	0.71445 0.83671 0.14379 0.03500
C 	C 	0.70390 0.78107 0.17598 -0.06900
C 	C 	0.75108 0.76040 0.19054 0.78400
F 	F 	0.75385 0.75490 0.15802 -0.39000
F 	F 	0.72625 0.70072 0.21841 -0.37300
F 	F 	0.81799 0.80545 0.20898 -0.45900
C 	C 	0.75234 0.12040 0.50504 0.02100
C 	C 	0.80485 0.18705 0.50248 0.11900
C 	C 	0.87549 0.21283 0.50843 -0.11200
C 	C 	0.84175 0.10262 0.53120 -0.01100
C 	C 	0.76999 0.07849 0.51656 -0.03000
C 	C 	0.78797 0.22653 0.50173 0.08200
C 	C 	0.71216 0.01075 0.50967 0.71600
H 	H 	0.69776 0.10096 0.49858 0.14300
C 	C 	0.76087 0.25680 0.46481 -0.06900
C 	C 	0.75191 0.29853 0.46573 0.06300
C 	C 	0.76732 0.30856 0.50266 0.07000
C 	C 	0.78975 0.27467 0.53969 -0.06600
C 	C 	0.79975 0.23389 0.53871 0.05700
C 	C 	0.73312 0.23844 0.42547 0.78600
C 	C 	0.80448 0.28297 0.58022 0.78600
H 	H 	0.81685 0.20762 0.56673 0.13700
F 	F 	0.67108 0.01442 0.47063 -0.35400
F 	F 	0.73776 0.97962 0.51402 -0.32000
F 	F 	0.90971 0.31673 0.46310 -0.35400
F 	F 	0.81742 0.24004 0.61269 -0.36000
F 	F 	0.74730 0.27184 0.58312 -0.40000
F 	F 	0.86291 0.34538 0.58356 -0.36600
F 	F 	0.78118 0.24035 0.41915 -0.35400
C 	C 	0.87716 0.60747 0.51343 0.06800
C 	C 	0.90159 0.60565 0.55491 0.07400
C 	C 	0.90286 0.55245 0.58383 -0.06600
C 	C 	0.87268 0.49914 0.57054 0.06100
C 	C 	0.84465 0.49988 0.52912 0.08400
C 	C 	0.85482 0.55754 0.50029 -0.07100
C 	C 	0.92472 0.65934 0.56762 0.13200
C 	C 	0.93054 0.54981 0.62894 0.78500
H 	H 	0.86604 0.45514 0.59251 0.14800
C 	C 	0.83664 0.56402 0.45534 0.78700
H 	H 	0.87563 0.64790 0.49139 0.11900
C 	C 	0.89401 0.70520 0.58634 -0.02800
C 	C 	0.87673 0.65249 0.57873 0.01400
C 	C 	0.84015 0.69770 0.59641 0.77200
H 	H 	0.82515 0.60662 0.58012 0.14800
F 	F 	0.87531 0.62863 0.43490 -0.37300
F 	F 	0.85156 0.53214 0.44881 -0.37200
F 	F 	0.88371 0.53904 0.64290 -0.37400
F 	F 	0.99533 0.60750 0.63608 -0.35100
F 	F 	0.93888 0.50040 0.65098 -0.35300
F 	F 	0.77638 0.63707 0.59495 -0.36800
F 	F 	0.82816 0.74375 0.56890 -0.39800
F 	F 	0.86474 0.70545 0.63520 -0.38100
C 	C 	0.85739 0.27896 0.03704 0.04500
C 	C 	0.83083 0.25998 0.00142 0.08800
C 	C 	0.78696 0.27634 0.96749 -0.07600
C 	C 	0.76438 0.30479 0.97172 0.06700
C 	C 	0.78712 0.31956 0.00837 0.06000
C 	C 	0.83590 0.30851 0.04100 -0.06100
C 	C 	0.84269 0.21645 0.00193 0.10700
C 	C 	0.75909 0.25872 0.92789 0.78600
C 	C 	0.86919 0.33264 0.07879 0.78600
H 	H 	0.89317 0.26873 0.06215 0.15100
C 	C 	0.91050 0.23941 0.00371 -0.10400
C 	C 	0.87408 0.12764 0.03055 -0.00500
C 	C 	0.80342 0.10500 0.02015 -0.04900
C 	C 	0.78880 0.14957 0.00773 0.03300
C 	C 	0.74469 0.03312 0.02786 0.73800
H 	H 	0.73647 0.13189 0.00542 0.13700
F 	F 	0.91608 0.39947 0.06926 -0.32500
F 	F 	0.90511 0.30755 0.10961 -0.33900
F 	F 	0.81897 0.31457 0.09379 -0.34900
F 	F 	0.80984 0.26781 0.91887 -0.35700
F 	F 	0.73499 0.01138 0.06626 -0.42700
F 	F 	0.76007 0.99858 0.02493 -0.36200
F 	F 	0.94363 0.34626 0.96381 -0.35300
C 	C 	0.84429 0.56294 0.04864 0.04400
C 	C 	0.79034 0.57082 0.03158 0.09800
C 	C 	0.72814 0.53212 0.00504 -0.09900
C 	C 	0.72173 0.48618 0.99658 0.08000
C 	C 	0.77083 0.47172 0.01841 0.05500
C 	C 	0.83475 0.51287 0.04297 -0.05500
C 	C 	0.80145 0.62216 0.04021 0.10300
C 	C 	0.89229 0.50306 0.06343 0.78400
H 	H 	0.89301 0.59495 0.06722 0.14200
C 	C 	0.80410 0.61670 0.07946 -0.09200
C 	C 	0.83549 0.67305 0.08988 0.08600
C 	C 	0.81744 0.68001 0.01035 0.03700
C 	C 	0.77800 0.55235 0.11101 0.79100
H 	H 	0.84729 0.67166 0.12124 0.10700
H 	H 	0.81446 0.68423 0.98010 0.13700
F 	F 	0.86880 0.44370 0.09147 -0.32600
F 	F 	0.91034 0.50494 0.03450 -0.35800
F 	F 	0.76357 0.55239 0.14090 -0.35700
F 	F 	0.82878 0.54139 0.12900 -0.35800
F 	F 	0.71679 0.50193 0.09337 -0.35600
Co	Co	0.92729 0.92258 0.15607 1.20900
Co	Co	0.98301 0.88219 0.12408 1.18800
Co	Co	0.90440 0.02046 0.15411 1.15800
C 	C 	0.91710 0.79290 0.07464 0.31100
O 	O 	0.91323 0.09408 0.10197 -0.38200
O 	O 	0.94997 0.99831 0.13857 -0.72600
C 	C 	0.89730 0.08880 0.06571 0.31700
O 	O 	0.92626 0.84940 0.16146 -0.37000
O 	O 	0.91572 0.06097 0.06041 -0.35800
O 	O 	0.88984 0.94912 0.20806 -0.34300
O 	O 	0.98141 0.81165 0.08273 -0.37800
O 	O 	0.90547 0.82150 0.08496 -0.32900
Co	Co	0.96345 0.94933 0.66027 1.20400
Co	Co	0.90890 0.03005 0.64802 1.17700
C 	C 	0.97815 0.82596 0.58158 0.29300
O 	O 	0.84012 0.01832 0.59150 -0.29600
O 	O 	0.95616 0.01110 0.63126 -0.77100
C 	C 	0.86396 0.05944 0.55815 0.31200
O 	O 	0.98964 0.89034 0.67322 -0.40300
O 	O 	0.99551 0.98164 0.60375 -0.53600
O 	O 	0.91280 0.06726 0.55031 -0.33100
O 	O 	0.00928 0.87659 0.55274 -0.33300
O 	O 	0.97072 0.83188 0.61069 -0.29800
C 	C 	0.93935 0.90345 0.33874 0.06200
C 	C 	0.98606 0.96725 0.34376 0.01600
C 	C 	0.99217 0.97896 0.37752 0.03800
C 	C 	0.95412 0.92657 0.40726 0.04000
C 	C 	0.96697 0.94517 0.27355 0.01500
C 	C 	0.92976 0.89268 0.30351 -0.01500
C 	C 	0.96470 0.93810 0.44243 0.01100
H 	H 	0.89038 0.84433 0.29821 0.11200
C 	C 	0.89366 0.16996 0.52421 0.08600
C 	C 	0.93209 0.28565 0.50040 0.78900
H 	H 	0.94848 0.18866 0.53315 0.07600
F 	F 	0.94701 0.30915 0.53022 -0.39100
F 	F 	0.99350 0.30096 0.50008 -0.39300
C 	C 	0.99241 0.71874 0.56580 -0.16100
C 	C 	0.01180 0.76876 0.57737 0.17100
C 	C 	0.96206 0.76454 0.58466 -0.04600
C 	C 	0.04093 0.73157 0.54721 0.82800
F 	F 	0.01275 0.73529 0.50604 -0.39200
F 	F 	0.04929 0.68236 0.56524 -0.33700
C 	C 	0.92555 0.19436 0.01830 0.08200
C 	C 	0.96915 0.31150 0.99469 0.76200
H 	H 	0.97927 0.21166 0.02457 0.08600
F 	F 	0.01877 0.32337 0.98259 -0.33900
F 	F 	0.00175 0.33354 0.02930 -0.35900
C 	C 	0.85779 0.73255 0.06070 0.01400
C 	C 	0.83939 0.73327 0.01959 -0.06300
C 	C 	0.84636 0.79134 0.98547 0.77800
F 	F 	0.95235 0.55088 0.08355 -0.34600
F 	F 	0.90629 0.82583 0.97264 -0.44700
F 	F 	0.84951 0.83130 0.99731 -0.42400
F 	F 	0.78876 0.77074 0.95314 -0.38300
