data_crystal

_cell_length_a 16.45105
_cell_length_b 15.19164
_cell_length_c 38.83389
_cell_angle_alpha 89.89020
_cell_angle_beta  89.89280
_cell_angle_gamma 119.49460

_symmetry_space_group_name_	'P 1'
_symmetry_space_group_name_H-M	'P 1'

loop_
_symmetry_equiv_pos_as_xyz
  x,y,z

loop_
_atom_site_label
_atom_site_type_symbol
_atom_site_fract_x
_atom_site_fract_y
_atom_site_fract_z
_atom_site_charge
O 	O 	0.04863 0.03800 0.76368 -0.71200
H 	H 	0.04927 0.04414 0.78897 0.18200
C 	C 	0.01195 0.61188 0.44366 0.35000
F 	F 	0.02041 0.57853 0.96142 -0.42000
F 	F 	0.01984 0.60269 0.40921 -0.40700
O 	O 	0.07654 0.21730 0.79174 -0.34700
H 	H 	0.01353 0.03248 0.27036 0.15100
O 	O 	0.05908 0.22104 0.24020 -0.34300
Ni	Ni	0.13494 0.17555 0.75385 1.13000
C 	C 	0.08278 0.66901 0.49966 -0.08300
Br	Br	0.16794 0.32408 0.65329 -0.13100
Br	Br	0.06596 0.86853 0.86349 -0.15300
C 	C 	0.24175 0.09224 0.79797 0.32200
C 	C 	0.23127 0.09900 0.70998 0.34700
Ni	Ni	0.08368 0.93886 0.75749 1.11400
O 	O 	0.16819 0.00157 0.79907 -0.33400
O 	O 	0.23752 0.17260 0.78507 -0.32500
O 	O 	0.20672 0.01524 0.72768 -0.31800
O 	O 	0.17966 0.14151 0.71044 -0.36200
C 	C 	0.21288 0.44400 0.38418 0.34000
C 	C 	0.30344 0.75537 0.35261 0.34800
C 	C 	0.17922 0.66210 0.45152 0.35800
Ni	Ni	0.39087 0.63095 0.37435 1.12300
Ni	Ni	0.29149 0.56143 0.44929 1.13300
Ni	Ni	0.37021 0.78900 0.42418 1.12900
O 	O 	0.17991 0.57965 0.44179 -0.35300
O 	O 	0.25067 0.53120 0.36874 -0.35400
O 	O 	0.23226 0.43852 0.41675 -0.32300
O 	O 	0.36900 0.73293 0.34484 -0.33500
O 	O 	0.28091 0.75835 0.38467 -0.35800
O 	O 	0.33726 0.65623 0.49103 -0.35400
O 	O 	0.25800 0.74771 0.45512 -0.36900
O 	O 	0.37244 0.66606 0.41860 -0.72100
C 	C 	0.17644 0.60281 0.16876 0.33800
C 	C 	0.14083 0.40670 0.07992 0.34300
C 	C 	0.07602 0.64464 0.07476 0.37100
Ni	Ni	0.29551 0.56392 0.11843 1.12400
Ni	Ni	0.24745 0.74678 0.11528 1.12900
Ni	Ni	0.22045 0.61422 0.04921 1.12800
O 	O 	0.13664 0.73338 0.08728 -0.35500
O 	O 	0.24540 0.58218 0.16725 -0.32100
O 	O 	0.15147 0.62699 0.14072 -0.37200
O 	O 	0.25880 0.76216 0.03542 -0.35500
O 	O 	0.16229 0.45139 0.10948 -0.36200
O 	O 	0.17447 0.46023 0.05137 -0.35000
O 	O 	0.33060 0.85809 0.08421 -0.36000
O 	O 	0.10080 0.57699 0.07220 -0.38500
O 	O 	0.28292 0.66023 0.09184 -0.71700
C 	C 	0.02290 0.11485 0.16989 0.32500
C 	C 	0.12625 0.22908 0.26040 0.31600
C 	C 	0.03227 0.83194 0.21097 0.31200
C 	C 	0.09356 0.90528 0.28439 0.30600
Ni	Ni	0.10616 0.04561 0.22610 1.13700
O 	O 	0.06848 0.92242 0.19675 -0.35300
O 	O 	0.09997 0.12842 0.18526 -0.33700
O 	O 	0.14621 0.98463 0.26429 -0.34900
O 	O 	0.16854 0.17633 0.25347 -0.32700
C 	C 	0.02900 0.15866 0.13479 -0.09100
C 	C 	0.09778 0.16626 0.11112 0.10800
C 	C 	0.12590 0.23749 0.08390 0.10400
C 	C 	0.08162 0.29593 0.07969 -0.10500
Br	Br	0.23076 0.26315 0.05543 -0.12200
Br	Br	0.14681 0.07449 0.11410 -0.12600
C 	C 	0.20580 0.73430 0.21139 0.09500
C 	C 	0.14940 0.63357 0.20094 -0.09300
C 	C 	0.05307 0.59385 0.20531 0.10900
C 	C 	0.01486 0.65886 0.20189 0.10200
C 	C 	0.07414 0.76523 0.20451 -0.08900
C 	C 	0.17143 0.80278 0.20880 0.08600
Br	Br	0.25911 0.94550 0.20731 -0.19000
C 	C 	0.22808 0.32022 0.34810 0.09900
C 	C 	0.16955 0.35270 0.36259 -0.08900
C 	C 	0.08745 0.33076 0.34497 0.10700
C 	C 	0.07811 0.30448 0.30973 0.09800
C 	C 	0.14626 0.28596 0.29358 -0.09000
C 	C 	0.22598 0.30413 0.31261 0.10700
Br	Br	0.33958 0.33070 0.28953 -0.11900
Br	Br	0.29849 0.28126 0.37711 -0.11100
C 	C 	0.17040 0.72110 0.31458 0.12200
C 	C 	0.26146 0.78860 0.32588 -0.09600
C 	C 	0.29613 0.89237 0.32177 0.11200
C 	C 	0.23456 0.92922 0.31566 0.09500
C 	C 	0.14289 0.86301 0.30435 -0.07600
C 	C 	0.11018 0.75785 0.30440 0.09400
Br	Br	0.13083 0.57977 0.31121 -0.12000
Br	Br	0.27236 0.06762 0.32641 -0.09500
H 	H 	0.34137 0.77206 0.55183 0.11800
C 	C 	0.09170 0.65375 0.46454 -0.11600
H 	H 	0.14423 0.70502 0.51583 0.11400
F 	F 	0.31630 0.31529 0.46197 -0.41400
Br	Br	0.08073 0.38109 0.58313 -0.13600
C 	C 	0.35775 0.14655 0.62505 0.11200
C 	C 	0.29538 0.09374 0.65224 0.13200
C 	C 	0.30963 0.13794 0.68515 -0.09300
C 	C 	0.38720 0.23485 0.69058 0.11200
Br	Br	0.40308 0.30142 0.73432 -0.15900
Br	Br	0.18887 0.96217 0.64416 -0.14000
Br	Br	0.33111 0.09289 0.57895 -0.09200
C 	C 	0.02734 0.64891 0.01677 -0.09700
H 	H 	0.09036 0.71673 0.00900 0.11500
H 	H 	0.28558 0.98412 0.02291 0.09300
H 	H 	0.27142 0.41530 0.99952 0.12300
F 	F 	0.31247 0.36895 0.93949 -0.39800
C 	C 	0.32177 0.10809 0.81962 -0.07900
C 	C 	0.31223 0.10869 0.85574 0.11200
Br	Br	0.22342 0.14173 0.87584 -0.08800
Br	Br	0.35153 0.07283 0.92558 -0.10800
O 	O 	0.06097 0.21012 0.71999 -0.33500
C 	C 	0.32645 0.84648 0.05048 0.34800
Br	Br	0.42816 0.98319 0.32327 -0.13200
F 	F 	0.42376 0.93655 0.58910 -0.41900
C 	C 	0.37261 0.09188 0.87691 0.10600
Br	Br	0.39538 0.06201 0.75788 -0.13200
C 	C 	0.42961 0.50066 0.42764 0.33800
C 	C 	0.41672 0.74480 0.49261 0.33700
O 	O 	0.48736 0.86479 0.39353 -0.34400
O 	O 	0.44484 0.81124 0.46689 -0.36400
O 	O 	0.41741 0.51765 0.39460 -0.33700
O 	O 	0.39728 0.53119 0.45369 -0.33700
H 	H 	0.43382 0.68518 0.42869 0.17600
C 	C 	0.37077 0.56949 0.04268 0.34800
O 	O 	0.35076 0.52507 0.07416 -0.32400
O 	O 	0.34235 0.63278 0.03326 -0.35400
O 	O 	0.35319 0.78039 0.15150 -0.33200
H 	H 	0.34760 0.70856 0.08492 0.20300
Br	Br	0.40820 0.61860 0.21280 -0.14500
Br	Br	0.31817 0.77211 0.23632 -0.13600
C 	C 	0.46860 0.90177 0.56859 0.36100
C 	C 	0.41695 0.81128 0.55039 -0.08200
C 	C 	0.46191 0.78192 0.52592 -0.10700
C 	C 	0.46305 0.42905 0.43554 -0.10100
C 	C 	0.40664 0.34217 0.45524 0.35500
C 	C 	0.44450 0.28607 0.46960 -0.07900
H 	H 	0.40147 0.22241 0.48623 0.12300
C 	C 	0.45158 0.28528 0.66385 0.10700
C 	C 	0.43918 0.23959 0.63128 -0.09000
C 	C 	0.42482 0.10711 0.01335 0.33700
C 	C 	0.35903 0.00640 0.02158 -0.01400
C 	C 	0.38836 0.93615 0.02980 -0.13700
F 	F 	0.39504 0.17317 0.00473 -0.39800
C 	C 	0.37332 0.44586 0.95977 0.35500
C 	C 	0.34449 0.45895 0.99253 -0.07500
C 	C 	0.40818 0.53338 0.01511 -0.10400
C 	C 	0.45773 0.10852 0.86320 -0.08300
C 	C 	0.45825 0.08570 0.82836 0.11200
C 	C 	0.39191 0.08876 0.80599 0.10400
C 	C 	0.42388 0.75900 0.15027 0.33100
O 	O 	0.41985 0.68464 0.13173 -0.34300
O 	O 	0.52843 0.74472 0.37800 -0.34200
C 	C 	0.48435 0.96856 0.02995 0.33800
C 	C 	0.46746 0.50294 0.94997 -0.09400
C 	C 	0.03598 0.25184 0.64377 0.10500
C 	C 	0.52057 0.27136 0.60807 0.34000
O 	O 	0.00636 0.88066 0.29320 -0.34800
O 	O 	0.01229 0.88083 0.71210 -0.35700
C 	C 	0.53924 0.19976 0.87543 0.31100
C 	C 	0.51129 0.44706 0.93568 0.34300
O 	O 	0.53974 0.28515 0.86863 -0.34700
O 	O 	0.53219 0.39829 0.95846 -0.35600
O 	O 	0.55436 0.21040 0.60428 -0.35500
C 	C 	0.55224 0.83744 0.38837 0.32400
C 	C 	0.50309 0.80843 0.17387 -0.08300
C 	C 	0.50870 0.75236 0.20230 0.11000
C 	C 	0.54024 0.31958 0.46635 -0.11500
Br	Br	0.55616 0.41719 0.67216 -0.13400
C 	C 	0.52057 0.13796 0.01226 -0.09800
F 	F 	0.51458 0.90286 0.03859 -0.40600
C 	C 	0.52526 0.58878 0.96976 -0.09500
C 	C 	0.49888 0.59891 0.00316 0.35600
C 	C 	0.56472 0.96200 0.56215 -0.13900
O 	O 	0.55447 0.47209 0.90460 -0.32000
O 	O 	0.56622 0.30290 0.52586 -0.36900
O 	O 	0.56373 0.36312 0.59422 -0.34000
C 	C 	0.55941 0.82775 0.52689 0.34700
C 	C 	0.55534 0.45395 0.42801 -0.07900
C 	C 	0.54972 0.06976 0.02320 -0.05300
Br	Br	0.55978 0.07037 0.81059 -0.11200
C 	C 	0.58087 0.21689 0.98752 0.33800
H 	H 	0.57921 0.30754 0.92786 0.18700
C 	C 	0.58654 0.29427 0.49403 0.34700
Br	Br	0.58257 0.97481 0.12513 -0.11900
C 	C 	0.59388 0.39895 0.44322 0.35500
H 	H 	0.59881 0.51931 0.41214 0.12100
F 	F 	0.55965 0.67698 0.02309 -0.40400
O 	O 	0.60360 0.18497 0.95951 -0.35900
C 	C 	0.60855 0.07222 0.56526 0.38900
O 	O 	0.61435 0.12417 0.53764 -0.36100
C 	C 	0.58642 0.88808 0.16053 0.10700
C 	C 	0.61065 0.92155 0.54278 -0.06500
H 	H 	0.59569 0.63996 0.96140 0.12900
F 	F 	0.60414 0.79254 0.50648 -0.41600
O 	O 	0.61701 0.19827 0.88549 -0.31700
C 	C 	0.59481 0.78441 0.21848 0.11700
Br	Br	0.62880 0.09197 0.37724 -0.10600
Br	Br	0.61872 0.70800 0.89093 -0.14600
O 	O 	0.62897 0.31434 0.99728 -0.34800
Br	Br	0.59915 0.73299 0.26349 -0.15200
H 	H 	0.62344 0.09283 0.02313 0.12500
C 	C 	0.65151 0.91646 0.38424 -0.11000
O 	O 	0.64507 0.35988 0.92532 -0.71700
Ni	Ni	0.64601 0.42172 0.88304 1.12300
O 	O 	0.65946 0.11805 0.59249 -0.34500
Br	Br	0.67162 0.62698 0.61351 -0.13100
Ni	Ni	0.66506 0.43813 0.96554 1.12900
O 	O 	0.66002 0.28436 0.48732 -0.31800
C 	C 	0.67380 0.00193 0.36403 0.13200
Ni	Ni	0.66395 0.40813 0.55651 1.13100
F 	F 	0.68489 0.42756 0.43751 -0.41900
C 	C 	0.67206 0.89711 0.17047 0.11200
H 	H 	0.68408 0.96784 0.53662 0.10800
C 	C 	0.67745 0.85237 0.20141 -0.09900
Ni	Ni	0.69070 0.26069 0.60731 1.13200
Br	Br	0.70784 0.79834 0.42631 -0.12500
Br	Br	0.69813 0.74854 0.80904 -0.14200
Ni	Ni	0.70186 0.27744 0.92724 1.13900
O 	O 	0.70232 0.57777 0.94388 -0.35300
C 	C 	0.72160 0.89039 0.38971 0.11000
O 	O 	0.71832 0.32500 0.56374 -0.72000
O 	O 	0.71796 0.38909 0.63394 -0.34200
O 	O 	0.72778 0.37937 0.85180 -0.32100
C 	C 	0.74379 0.03184 0.33875 0.12400
Br	Br	0.74523 0.11520 0.30112 -0.11000
C 	C 	0.74246 0.73464 0.88018 0.10000
Ni	Ni	0.73444 0.25736 0.52599 1.12400
C 	C 	0.00490 0.14466 0.69699 0.32200
Br	Br	0.74656 0.80771 0.67215 -0.13000
O 	O 	0.75412 0.47630 0.51536 -0.33000
C 	C 	0.75863 0.61332 0.91692 0.34500
O 	O 	0.75818 0.50627 0.58933 -0.34200
C 	C 	0.76418 0.63900 0.64670 0.11500
C 	C 	0.76074 0.48454 0.62217 0.33400
O 	O 	0.76513 0.55075 0.89608 -0.35700
C 	C 	0.00229 0.63285 0.05158 -0.12700
C 	C 	0.76653 0.89474 0.21956 0.34700
Br	Br	0.77103 0.99326 0.60322 -0.16200
Br	Br	0.77149 0.94138 0.13742 -0.13000
Br	Br	0.78187 0.06085 0.69220 -0.14500
C 	C 	0.78040 0.77041 0.84737 0.10500
H 	H 	0.78341 0.37782 0.56757 0.18100
Br	Br	0.78456 0.16856 0.89965 -0.21700
C 	C 	0.00159 0.26878 0.61241 0.10600
O 	O 	0.79247 0.33684 0.96805 -0.34100
O 	O 	0.79368 0.97720 0.23718 -0.36000
Br	Br	0.97339 0.44997 0.20560 -0.09200
C 	C 	0.99313 0.25816 0.09459 0.12400
C 	C 	0.97332 0.20294 0.12556 0.11900
O 	O 	0.98852 0.00842 0.24714 -0.69300
C 	C 	0.98564 0.56771 0.99385 0.35300
O 	O 	0.94272 0.07135 0.18629 -0.32400
Br	Br	0.90948 0.30126 0.07708 -0.11800
C 	C 	0.99392 0.62761 0.51469 0.35400
F 	F 	0.98594 0.63231 0.54936 -0.41500
Br	Br	0.99038 0.34217 0.36880 -0.08800
O 	O 	0.95165 0.79362 0.22723 -0.33400
Br	Br	0.99452 0.67542 0.72760 -0.15000
C 	C 	0.79635 0.36795 0.86470 0.33900
C 	C 	0.83341 0.43452 0.97501 0.36600
O 	O 	0.79971 0.48773 0.96249 -0.37900
O 	O 	0.80813 0.37455 0.89762 -0.34700
C 	C 	0.83623 0.47944 0.51048 0.34100
C 	C 	0.85602 0.24869 0.58645 0.33000
O 	O 	0.84353 0.39629 0.51152 -0.34100
O 	O 	0.81964 0.21558 0.55513 -0.33100
O 	O 	0.82561 0.29629 0.60663 -0.35200
C 	C 	0.92166 0.82959 0.71251 0.35200
C 	C 	0.91971 0.86994 0.80982 0.31400
C 	C 	0.98658 0.19202 0.79091 0.33400
Ni	Ni	0.92244 0.99726 0.75179 1.12300
O 	O 	0.96219 0.04755 0.70384 -0.33500
O 	O 	0.87560 0.85285 0.73486 -0.34700
O 	O 	0.92866 0.12812 0.76760 -0.33900
O 	O 	0.96795 0.84096 0.78913 -0.32000
O 	O 	0.89238 0.93456 0.79909 -0.34700
C 	C 	0.85748 0.99263 0.30821 0.30600
Ni	Ni	0.93173 0.08777 0.23884 1.13300
Ni	Ni	0.90971 0.86969 0.25860 1.12800
O 	O 	0.90921 0.07976 0.29180 -0.31600
O 	O 	0.83586 0.90359 0.29402 -0.33500
O 	O 	0.81146 0.84328 0.22185 -0.34000
Br	Br	0.88491 0.20734 0.15732 -0.12100
Br	Br	0.88720 0.60396 0.18697 -0.07700
C 	C 	0.80002 0.92984 0.36763 0.10500
C 	C 	0.80526 0.99144 0.33952 -0.10000
Br	Br	0.89807 0.89739 0.37498 -0.13800
Br	Br	0.98592 0.31773 0.28305 -0.12000
Br	Br	0.98212 0.66405 0.29306 -0.12300
C 	C 	0.92333 0.57180 0.45870 -0.07400
C 	C 	0.91408 0.56923 0.49470 -0.09800
H 	H 	0.86207 0.53147 0.44276 0.15300
C 	C 	0.87850 0.12168 0.65794 0.10700
C 	C 	0.97240 0.17916 0.66738 -0.07100
C 	C 	0.90732 0.20469 0.60329 -0.08500
C 	C 	0.85455 0.11952 0.62372 0.12300
C 	C 	0.79708 0.56862 0.64716 -0.08000
C 	C 	0.86691 0.58100 0.67075 0.11000
C 	C 	0.90390 0.66327 0.69369 0.12000
C 	C 	0.87278 0.73494 0.69250 -0.09700
C 	C 	0.79953 0.71945 0.67025 0.11500
Br	Br	0.91687 0.48956 0.66998 -0.11700
C 	C 	0.91253 0.55399 0.05963 0.36500
C 	C 	0.86528 0.47460 0.03615 -0.08400
C 	C 	0.90096 0.48094 0.00269 -0.11400
H 	H 	0.79741 0.41200 0.04303 0.11800
F 	F 	0.87898 0.54461 0.09217 -0.40300
C 	C 	0.85485 0.24232 0.85958 0.12100
C 	C 	0.84106 0.31937 0.84426 -0.09300
C 	C 	0.88394 0.36051 0.81223 0.11400
C 	C 	0.93878 0.32461 0.79571 0.10800
C 	C 	0.95345 0.24982 0.81161 -0.08400
C 	C 	0.91601 0.21377 0.84434 0.10600
Br	Br	0.94538 0.12057 0.86773 -0.11000
Br	Br	0.99440 0.37822 0.75139 -0.11500
Br	Br	0.86944 0.46697 0.79121 -0.12400
C 	C 	0.89300 0.77609 0.90224 0.11400
C 	C 	0.79552 0.71773 0.90485 -0.09900
C 	C 	0.87753 0.81318 0.84205 -0.08400
C 	C 	0.93449 0.81752 0.87002 0.10900
Br	Br	0.96845 0.78347 0.94107 -0.11500
