data_crystal

_cell_length_a 15.43166
_cell_length_b 15.87934
_cell_length_c 53.31707
_cell_angle_alpha 90.18417
_cell_angle_beta  90.18633
_cell_angle_gamma 119.40970

_symmetry_space_group_name_	'P 1'
_symmetry_space_group_name_H-M	'P 1'

loop_
_symmetry_equiv_pos_as_xyz
  x,y,z

loop_
_atom_site_label
_atom_site_type_symbol
_atom_site_fract_x
_atom_site_fract_y
_atom_site_fract_z
_atom_site_charge
F 	F 	0.15539 0.40467 0.00364 -0.38900
C 	C 	0.82172 0.25724 0.00280 0.37800
F 	F 	0.75027 0.28078 0.00816 -0.42500
C 	C 	0.29536 0.12152 0.01106 -0.11200
C 	C 	0.27269 0.02418 0.01203 0.00700
C 	C 	0.77720 0.72621 0.01456 0.02200
C 	C 	0.84607 0.69220 0.01327 0.28600
C 	C 	0.05259 0.28323 0.03316 0.03600
C 	C 	0.13942 0.36989 0.02740 0.30600
C 	C 	0.20400 0.42605 0.04662 -0.05300
H 	H 	0.26581 0.49680 0.04234 0.10700
C 	C 	0.24940 0.97283 0.03643 0.02800
H 	H 	0.27543 0.15296 0.02653 0.14400
C 	C 	0.17226 0.87629 0.03797 -0.12500
H 	H 	0.11706 0.84556 0.02314 0.16300
C 	C 	0.74755 0.74748 0.03928 0.02000
C 	C 	0.72353 0.82213 0.04166 0.28400
F 	F 	0.75639 0.89413 0.02449 -0.41800
F 	F 	0.91017 0.70861 0.03256 -0.41100
C 	C 	0.88663 0.26142 0.02170 -0.13600
H 	H 	0.87974 0.28422 0.04041 0.11900
C 	C 	0.96645 0.24599 0.01591 -0.00300
C 	C 	0.03978 0.24640 0.05758 -0.11700
C 	C 	0.31645 0.01312 0.05665 0.28000
C 	C 	0.17240 0.81670 0.05733 0.38900
F 	F 	0.38984 0.10682 0.05604 -0.41100
F 	F 	0.10453 0.72103 0.05705 -0.40100
C 	C 	0.66048 0.81906 0.06097 -0.05400
C 	C 	0.72279 0.68058 0.05886 -0.14200
H 	H 	0.63494 0.87156 0.06139 0.09900
H 	H 	0.74293 0.62424 0.05780 0.14700
H 	H 	0.97493 0.17799 0.06207 0.10200
C 	C 	0.18215 0.39625 0.07160 -0.12600
C 	C 	0.10447 0.30281 0.07681 0.36800
C 	C 	0.31379 0.95460 0.07644 -0.04300
C 	C 	0.24710 0.85482 0.07584 -0.13800
C 	C 	0.62552 0.74436 0.07865 -0.13900
C 	C 	0.66400 0.68045 0.07871 0.37500
C 	C 	0.26791 0.79052 0.09154 0.34600
C 	C 	0.21909 0.46963 0.09151 0.33500
H 	H 	0.36881 0.98550 0.09132 0.09100
C 	C 	0.53816 0.72272 0.09417 0.34100
O 	O 	0.36203 0.81121 0.09389 -0.37500
O 	O 	0.46934 0.63060 0.09677 -0.35400
O 	O 	0.17511 0.52302 0.09406 -0.34200
F 	F 	0.63910 0.61403 0.09721 -0.43800
O 	O 	0.19489 0.72298 0.10550 -0.32800
H 	H 	0.33385 0.65654 0.10203 0.16900
F 	F 	0.08534 0.27104 0.10084 -0.43100
O 	O 	0.53781 0.79384 0.10777 -0.37000
O 	O 	0.27528 0.46396 0.10978 -0.34200
O 	O 	0.33265 0.65831 0.12049 -0.72300
Ni	Ni	0.19577 0.60804 0.12545 1.12300
Ni	Ni	0.38985 0.57960 0.12807 1.12900
Ni	Ni	0.41930 0.79179 0.12595 1.12400
O 	O 	0.16296 0.48346 0.14584 -0.34300
O 	O 	0.32295 0.82508 0.14393 -0.37300
O 	O 	0.51412 0.67037 0.14759 -0.36300
C 	C 	0.22365 0.48143 0.16293 0.30200
C 	C 	0.26228 0.77128 0.16176 0.30400
C 	C 	0.51866 0.73592 0.16356 0.30100
O 	O 	0.31962 0.53955 0.16134 -0.37900
O 	O 	0.21309 0.67717 0.15948 -0.36900
O 	O 	0.46523 0.77831 0.16001 -0.38900
H 	H 	0.06860 0.29768 0.16089 0.08300
H 	H 	0.70495 0.75920 0.16197 0.06400
H 	H 	0.23769 0.92938 0.15976 0.05800
C 	C 	0.22157 0.89523 0.17800 -0.00100
C 	C 	0.18495 0.41034 0.18337 -0.05300
C 	C 	0.10622 0.31655 0.17891 -0.00700
C 	C 	0.68837 0.78264 0.17954 -0.00700
C 	C 	0.23677 0.81640 0.18250 -0.06300
C 	C 	0.59360 0.77155 0.18373 -0.06100
C 	C 	0.07792 0.24591 0.19748 0.00600
H 	H 	0.01739 0.17357 0.19380 0.05700
C 	C 	0.76297 0.82676 0.19773 -0.00700
C 	C 	0.18184 0.92787 0.19677 -0.00600
H 	H 	0.16982 0.98841 0.19306 0.05300
H 	H 	0.83604 0.83538 0.19425 0.04500
C 	C 	0.09364 0.19597 0.24078 0.31600
C 	C 	0.12810 0.26845 0.22067 -0.06800
C 	C 	0.20595 0.36255 0.22521 -0.00100
C 	C 	0.23392 0.43317 0.20671 -0.01000
H 	H 	0.29428 0.50555 0.21046 0.04900
C 	C 	0.57384 0.80394 0.20640 -0.00800
C 	C 	0.64834 0.84801 0.22457 -0.00800
C 	C 	0.74337 0.85978 0.22033 -0.06100
H 	H 	0.50079 0.79536 0.20988 0.04600
C 	C 	0.21414 0.77213 0.20615 -0.00400
C 	C 	0.17405 0.80440 0.22485 -0.00800
C 	C 	0.15701 0.88198 0.22022 -0.05400
H 	H 	0.22618 0.71160 0.20990 0.04700
C 	C 	0.81917 0.89820 0.24032 0.28200
C 	C 	0.12248 0.92114 0.24053 0.28500
O 	O 	0.17152 0.01601 0.24438 -0.37200
H 	H 	0.01593 0.00706 0.25153 0.16600
H 	H 	0.24376 0.38148 0.24321 0.04500
H 	H 	0.63160 0.87134 0.24213 0.04700
H 	H 	0.15765 0.76996 0.24305 0.04900
O 	O 	0.99618 0.14332 0.24454 -0.41400
O 	O 	0.87201 0.85395 0.24438 -0.39200
O 	O 	0.06104 0.86060 0.25783 -0.36200
O 	O 	0.15983 0.19883 0.25751 -0.37100
O 	O 	0.81714 0.96047 0.25697 -0.37900
O 	O 	0.01596 0.00730 0.27001 -0.70500
Ni	Ni	0.15283 0.07907 0.27643 1.11400
O 	O 	0.03770 0.18726 0.29483 -0.36000
O 	O 	0.82749 0.85107 0.29516 -0.38900
Ni	Ni	0.93671 0.06608 0.27600 1.11000
Ni	Ni	0.94983 0.87249 0.27601 1.10600
O 	O 	0.17602 0.97742 0.29584 -0.36500
C 	C 	0.09659 0.18636 0.31262 0.30300
C 	C 	0.11121 0.91564 0.31178 0.30100
O 	O 	0.13536 0.12961 0.31074 -0.37400
O 	O 	0.01666 0.88883 0.30966 -0.36900
H 	H 	0.64041 0.75880 0.30969 0.04400
H 	H 	0.12209 0.36815 0.31016 0.05000
H 	H 	0.26605 0.87964 0.31034 0.04600
C 	C 	0.82759 0.91219 0.31199 0.30800
O 	O 	0.88625 0.00554 0.30948 -0.40500
C 	C 	0.65770 0.79647 0.32755 -0.00200
C 	C 	0.14387 0.35207 0.32807 -0.00400
C 	C 	0.22532 0.85823 0.32780 -0.00200
C 	C 	0.74867 0.20935 0.58979 0.34300
C 	C 	0.74961 0.22912 0.65994 0.29800
C 	C 	0.48190 0.24516 0.66004 0.30500
C 	C 	0.46259 0.25140 0.59029 0.35000
Ni	Ni	0.60383 0.40275 0.62436 1.12500
Ni	Ni	0.58998 0.19653 0.62330 1.13200
O 	O 	0.65210 0.17983 0.59180 -0.33400
O 	O 	0.48205 0.30790 0.64384 -0.37900
O 	O 	0.67246 0.45047 0.65783 -0.38300
O 	O 	0.46793 0.18444 0.60445 -0.34200
O 	O 	0.78984 0.32295 0.65809 -0.37300
O 	O 	0.69143 0.17235 0.64196 -0.35000
O 	O 	0.52584 0.34526 0.59291 -0.36800
O 	O 	0.71391 0.52051 0.60580 -0.36200
O 	O 	0.54088 0.20850 0.65702 -0.38400
O 	O 	0.66938 0.33088 0.61774 -0.72500
H 	H 	0.66893 0.33133 0.59927 0.18000
C 	C 	0.24876 0.47753 0.38989 0.28200
C 	C 	0.53791 0.77657 0.46037 0.36300
C 	C 	0.25992 0.47965 0.46002 0.36600
C 	C 	0.53685 0.76825 0.39047 0.27200
C 	C 	0.23606 0.74424 0.46219 0.35800
C 	C 	0.24379 0.75888 0.39034 0.28000
Ni	Ni	0.42134 0.60557 0.42611 1.11500
Ni	Ni	0.40347 0.80057 0.42664 1.13400
Ni	Ni	0.20604 0.59544 0.42568 1.12900
O 	O 	0.31531 0.48123 0.40661 -0.36300
O 	O 	0.19606 0.52196 0.39388 -0.36700
O 	O 	0.29612 0.81036 0.44626 -0.34400
O 	O 	0.54394 0.71267 0.44585 -0.36300
O 	O 	0.45857 0.78611 0.45964 -0.36000
O 	O 	0.18196 0.69466 0.40696 -0.34800
O 	O 	0.35036 0.55258 0.45977 -0.37400
O 	O 	0.19350 0.47633 0.44389 -0.34100
O 	O 	0.34011 0.81403 0.39526 -0.36600
O 	O 	0.50080 0.67437 0.39433 -0.36400
O 	O 	0.53072 0.82544 0.40803 -0.34100
O 	O 	0.21301 0.65360 0.45945 -0.36700
O 	O 	0.34538 0.66622 0.41972 -0.71500
H 	H 	0.34577 0.66707 0.40124 0.15700
C 	C 	0.69936 0.89478 0.37358 -0.01300
C 	C 	0.60627 0.81252 0.36951 -0.04700
C 	C 	0.58526 0.76462 0.34624 -0.01600
C 	C 	0.75184 0.87698 0.33188 -0.07300
C 	C 	0.77185 0.92676 0.35488 0.00000
H 	H 	0.71688 0.93187 0.39153 0.06800
H 	H 	0.51339 0.70144 0.34283 0.04300
C 	C 	0.18557 0.42429 0.34646 -0.00900
C 	C 	0.21605 0.40528 0.36959 -0.05400
C 	C 	0.20499 0.31353 0.37411 -0.00500
C 	C 	0.16300 0.24124 0.35578 -0.00200
C 	C 	0.13236 0.26012 0.33264 -0.06300
H 	H 	0.19373 0.49490 0.34278 0.04500
H 	H 	0.22656 0.29742 0.39205 0.06000
H 	H 	0.15415 0.17045 0.35958 0.05600
C 	C 	0.11884 0.79896 0.37277 -0.00800
C 	C 	0.20198 0.78670 0.36919 -0.04500
C 	C 	0.25403 0.81504 0.34644 -0.01300
C 	C 	0.14394 0.87311 0.33168 -0.06500
C 	C 	0.09013 0.84220 0.35415 0.00400
H 	H 	0.07871 0.77839 0.39033 0.08500
H 	H 	0.31808 0.80545 0.34343 0.04400
C 	C 	0.72952 0.99371 0.55649 -0.12400
C 	C 	0.78158 0.03677 0.53438 0.00400
C 	C 	0.77814 0.15218 0.57385 -0.13000
C 	C 	0.72864 0.05120 0.57624 0.36800
C 	C 	0.75095 0.98054 0.51060 0.03700
F 	F 	0.67327 0.00865 0.59690 -0.43700
H 	H 	0.68298 0.91595 0.55755 0.13700
C 	C 	0.73796 0.88631 0.50962 0.27500
C 	C 	0.67410 0.82021 0.49162 -0.04400
C 	C 	0.62623 0.84915 0.47403 -0.15600
C 	C 	0.65271 0.94714 0.47250 0.38700
C 	C 	0.71362 0.01219 0.49088 -0.15900
F 	F 	0.78171 0.85711 0.52708 -0.41700
H 	H 	0.65751 0.74557 0.49227 0.09600
F 	F 	0.61369 0.97788 0.45417 -0.45400
H 	H 	0.72526 0.08524 0.49089 0.14900
C 	C 	0.02972 0.77139 0.49051 -0.11500
C 	C 	0.03477 0.74531 0.51539 0.03600
C 	C 	0.11971 0.74181 0.52356 0.30500
C 	C 	0.19310 0.75371 0.50639 -0.04700
C 	C 	0.18220 0.76855 0.48094 -0.13100
C 	C 	0.10330 0.78312 0.47331 0.36700
F 	F 	0.12682 0.71843 0.54766 -0.39300
H 	H 	0.25468 0.74407 0.51252 0.11300
F 	F 	0.09327 0.80027 0.44884 -0.43300
F 	F 	0.01990 0.83300 0.56093 -0.38100
F 	F 	0.72457 0.46396 0.53723 -0.42400
C 	C 	0.15973 0.28101 0.50791 -0.12600
C 	C 	0.24169 0.26543 0.51022 0.01900
C 	C 	0.31584 0.30212 0.49168 0.28600
C 	C 	0.31431 0.36334 0.47320 -0.04500
C 	C 	0.24143 0.39174 0.47355 -0.14800
C 	C 	0.16068 0.34593 0.48999 0.39300
C 	C 	0.26096 0.23047 0.53429 0.01600
F 	F 	0.39427 0.28584 0.49294 -0.41200
H 	H 	0.37433 0.39475 0.45973 0.08000
F 	F 	0.08701 0.36923 0.48981 -0.40100
H 	H 	0.09959 0.24927 0.52131 0.16700
C 	C 	0.26817 0.28085 0.55667 0.29300
C 	C 	0.32270 0.27532 0.57691 -0.05000
C 	C 	0.37379 0.22308 0.57464 -0.13000
C 	C 	0.35374 0.16100 0.55400 0.38500
C 	C 	0.29489 0.16277 0.53413 -0.11900
F 	F 	0.23144 0.34285 0.55789 -0.41500
H 	H 	0.33337 0.31934 0.59344 0.09300
F 	F 	0.39782 0.10538 0.55219 -0.41300
H 	H 	0.28398 0.11856 0.51763 0.14400
C 	C 	0.78485 0.18917 0.67981 -0.05600
C 	C 	0.40593 0.20563 0.67985 -0.06200
C 	C 	0.30964 0.19029 0.67527 -0.00300
H 	H 	0.29208 0.21285 0.65772 0.05800
H 	H 	0.66031 0.58833 0.68136 0.04600
H 	H 	0.02694 0.85296 0.35736 0.06100
C 	C 	0.76706 0.51398 0.65964 0.30400
H 	H 	0.78255 0.07658 0.65638 0.07400
C 	C 	0.80159 0.11166 0.67460 -0.01000
O 	O 	0.81696 0.27771 0.60477 -0.35300
C 	C 	0.84473 0.13772 0.53390 0.29200
C 	C 	0.84159 0.19538 0.55344 -0.05500
C 	C 	0.77432 0.51763 0.58830 0.34600
Ni	Ni	0.80661 0.38949 0.62385 1.11900
C 	C 	0.80086 0.58913 0.67931 -0.06600
O 	O 	0.83079 0.51371 0.64337 -0.36100
O 	O 	0.82384 0.47000 0.59198 -0.35000
H 	H 	0.84406 0.98930 0.35841 0.04700
H 	H 	0.88332 0.27342 0.55191 0.10900
C 	C 	0.80847 0.58857 0.56794 -0.13000
C 	C 	0.79597 0.55543 0.54304 0.37400
F 	F 	0.90234 0.18024 0.51358 -0.41600
C 	C 	0.86404 0.61249 0.52471 -0.13400
H 	H 	0.85927 0.58285 0.50610 0.11700
C 	C 	0.87855 0.68523 0.57330 -0.04600
H 	H 	0.88656 0.71281 0.59228 0.10000
H 	H 	0.94878 0.60694 0.68209 0.04500
H 	H 	0.96564 0.77631 0.48412 0.10100
C 	C 	0.94669 0.74254 0.55495 0.30400
C 	C 	0.94451 0.70314 0.53116 -0.00100
C 	C 	0.23490 0.14333 0.69309 -0.00300
H 	H 	0.16081 0.13181 0.68931 0.05700
C 	C 	0.73504 0.61854 0.68888 -0.00200
C 	C 	0.84582 0.08112 0.69265 -0.00200
H 	H 	0.85883 0.02149 0.68838 0.05200
C 	C 	0.89768 0.62976 0.68908 0.00400
C 	C 	0.42674 0.17383 0.70249 -0.00500
H 	H 	0.50082 0.18528 0.70626 0.04900
H 	H 	0.79877 0.29469 0.70762 0.04800
C 	C 	0.76575 0.68773 0.70803 -0.00700
C 	C 	0.81172 0.23502 0.70336 -0.01100
C 	C 	0.92839 0.69893 0.70824 -0.02500
C 	C 	0.25576 0.11171 0.71576 -0.06300
C 	C 	0.35202 0.12691 0.72032 -0.00600
H 	H 	0.71467 0.71059 0.71501 0.04800
C 	C 	0.85606 0.20457 0.72139 -0.00500
C 	C 	0.87336 0.12747 0.71613 -0.06900
C 	C 	0.86262 0.72846 0.71779 -0.05800
H 	H 	0.00313 0.72915 0.71576 0.06000
C 	C 	0.17993 0.07271 0.73563 0.30500
O 	O 	0.11991 0.10839 0.73829 -0.38400
O 	O 	0.87356 0.99594 0.73785 -0.37300
C 	C 	0.89669 0.80415 0.73732 0.30000
C 	C 	0.91153 0.08947 0.73581 0.29900
H 	H 	0.36962 0.10435 0.73787 0.04900
H 	H 	0.87526 0.23977 0.73959 0.04700
O 	O 	0.99134 0.86779 0.73899 -0.38900
O 	O 	0.18131 0.01213 0.75233 -0.37800
O 	O 	0.83289 0.80570 0.75337 -0.36800
O 	O 	0.97091 0.14764 0.75342 -0.38200
Ni	Ni	0.07312 0.12436 0.77194 1.12600
Ni	Ni	0.06055 0.91821 0.77230 1.12700
Ni	Ni	0.85757 0.93110 0.77233 1.11400
O 	O 	0.99464 0.99031 0.77843 -0.72500
O 	O 	0.14135 0.97612 0.80348 -0.37500
O 	O 	0.19351 0.13366 0.79057 -0.37500
O 	O 	0.01543 0.14694 0.80350 -0.36200
O 	O 	0.84106 0.85297 0.80460 -0.37100
O 	O 	0.85131 0.04529 0.79107 -0.36300
O 	O 	0.95084 0.80135 0.79124 -0.37400
H 	H 	0.99577 0.99128 0.79690 0.15900
C 	C 	0.19081 0.07097 0.80766 0.28000
C 	C 	0.88870 0.80356 0.80840 0.28200
C 	C 	0.91816 0.10641 0.80760 0.26300
C 	C 	0.26155 0.10789 0.82882 -0.05300
H 	H 	0.28851 0.98624 0.82922 0.05300
H 	H 	0.01415 0.28741 0.82778 0.06500
C 	C 	0.85314 0.73150 0.82879 -0.05600
C 	C 	0.88387 0.14489 0.82817 -0.04400
C 	C 	0.74670 0.51880 0.88704 0.29900
C 	C 	0.48239 0.22539 0.88679 0.30700
O 	O 	0.78316 0.45998 0.88865 -0.38000
O 	O 	0.53532 0.31944 0.88863 -0.37300
O 	O 	0.68159 0.22132 0.88840 -0.38900
C 	C 	0.35655 0.23431 0.85921 0.00100
C 	C 	0.40337 0.18275 0.86764 -0.06300
C 	C 	0.37707 0.09240 0.85700 0.00000
C 	C 	0.30654 0.05511 0.83767 -0.01200
C 	C 	0.28609 0.19707 0.83991 -0.00900
H 	H 	0.37491 0.30339 0.86759 0.05000
H 	H 	0.41283 0.05210 0.86329 0.04600
H 	H 	0.25066 0.23763 0.83356 0.04800
C 	C 	0.72264 0.62805 0.85776 -0.00200
C 	C 	0.78412 0.59398 0.86750 -0.05700
C 	C 	0.75674 0.69616 0.83850 -0.00600
H 	H 	0.64778 0.60056 0.86477 0.05500
H 	H 	0.70764 0.72048 0.83091 0.05000
H 	H 	0.68679 0.07672 0.86720 0.04300
C 	C 	0.77788 0.25962 0.88576 0.30700
C 	C 	0.75809 0.12312 0.85858 0.00300
H 	H 	0.74613 0.01153 0.83357 0.04600
C 	C 	0.79167 0.08608 0.83949 -0.01600
C 	C 	0.81630 0.21963 0.86656 -0.07000
C 	C 	0.88076 0.62975 0.85795 -0.00400
C 	C 	0.90930 0.27808 0.85555 0.00800
C 	C 	0.91506 0.69818 0.83872 -0.00900
H 	H 	0.92946 0.60487 0.86550 0.04400
C 	C 	0.94297 0.24097 0.83644 -0.03400
H 	H 	0.95466 0.35269 0.86143 0.04200
H 	H 	0.98988 0.72562 0.83168 0.04200
O 	O 	0.68043 0.51386 0.90335 -0.34100
O 	O 	0.48984 0.16993 0.90398 -0.37300
O 	O 	0.83954 0.32437 0.90202 -0.37400
Ni	Ni	0.58516 0.38773 0.92288 1.12400
Ni	Ni	0.61957 0.20290 0.92215 1.12500
Ni	Ni	0.80744 0.41473 0.92193 1.12400
O 	O 	0.46638 0.27236 0.94219 -0.32700
O 	O 	0.66957 0.33635 0.92844 -0.72400
O 	O 	0.73559 0.20182 0.94054 -0.37000
O 	O 	0.81230 0.53151 0.94057 -0.36000
C 	C 	0.47028 0.20477 0.95639 0.34700
C 	C 	0.74594 0.53131 0.95677 0.34300
O 	O 	0.54179 0.18183 0.95397 -0.36200
O 	O 	0.64936 0.46899 0.95481 -0.32700
H 	H 	0.67146 0.33693 0.94691 0.18000
H 	H 	0.36624 0.00984 0.95542 0.09500
F 	F 	0.66224 0.65463 0.95229 -0.43200
C 	C 	0.79490 0.26753 0.95738 0.34900
O 	O 	0.83567 0.36186 0.95310 -0.36200
H 	H 	0.91680 0.19037 0.95391 0.09800
C 	C 	0.34657 0.04139 0.97092 -0.05600
F 	F 	0.04578 0.19248 0.98631 -0.38200
C 	C 	0.38434 0.14172 0.97207 -0.12500
F 	F 	0.26838 0.88841 0.99095 -0.41500
C 	C 	0.77581 0.61597 0.97315 -0.13200
C 	C 	0.72128 0.66536 0.97235 0.37700
C 	C 	0.83578 0.23685 0.97801 -0.13500
C 	C 	0.90703 0.20855 0.97291 -0.04500
C 	C 	0.29273 0.98301 0.99097 0.30300
C 	C 	0.35320 0.18084 0.99141 0.38200
F 	F 	0.38493 0.27710 0.99218 -0.40900
C 	C 	0.72034 0.71853 0.99315 -0.13900
H 	H 	0.66924 0.74687 0.99338 0.14400
C 	C 	0.84345 0.63499 0.99286 -0.05200
H 	H 	0.88933 0.60079 0.99315 0.10800
C 	C 	0.97232 0.21303 0.99183 0.29800
