data_crystal

_cell_length_a 14.77140
_cell_length_b 16.02656
_cell_length_c 40.34063
_cell_angle_alpha 90.36572
_cell_angle_beta  90.36375
_cell_angle_gamma 119.35876

_symmetry_space_group_name_	'P 1'
_symmetry_space_group_name_H-M	'P 1'

loop_
_symmetry_equiv_pos_as_xyz
  x,y,z

loop_
_atom_site_label
_atom_site_type_symbol
_atom_site_fract_x
_atom_site_fract_y
_atom_site_fract_z
_atom_site_charge
Ni	Ni	0.03816 0.14422 0.80820 1.11200
Ni	Ni	0.03900 0.94664 0.80253 1.09500
O 	O 	0.08888 0.81574 0.25111 -0.37000
O 	O 	0.08950 0.10512 0.32584 -0.35800
O 	O 	0.13344 0.87317 0.32133 -0.36200
O 	O 	0.07576 0.15132 0.25740 -0.37000
O 	O 	0.07509 0.97720 0.27476 -0.72100
H 	H 	0.05625 0.96331 0.25106 0.14300
C 	C 	0.01411 0.41676 0.46794 -0.07300
C 	C 	0.07200 0.42568 0.43943 0.04200
C 	C 	0.06045 0.47121 0.41146 -0.11200
C 	C 	0.04843 0.39895 0.49954 0.10900
N 	N 	0.07612 0.38430 0.52463 -0.10900
C 	C 	0.14179 0.69152 0.03134 0.03100
C 	C 	0.10246 0.63073 0.05834 -0.02600
C 	C 	0.08007 0.48067 0.08108 0.06400
N 	N 	0.02666 0.40636 0.09242 -0.09700
N 	N 	0.16893 0.54744 0.96685 -0.11100
O 	O 	0.17531 0.16686 0.78922 -0.37500
O 	O 	0.14560 0.03079 0.83720 -0.36900
O 	O 	0.08580 0.13245 0.85417 -0.36500
O 	O 	0.12734 0.02175 0.76435 -0.36900
C 	C 	0.06703 0.68359 0.00502 -0.01100
C 	C 	0.11645 0.58117 0.97151 0.10400
C 	C 	0.11901 0.15375 0.22867 0.28300
C 	C 	0.14621 0.57402 0.06695 0.00400
C 	C 	0.18962 0.86162 0.24571 0.27800
C 	C 	0.18959 0.16519 0.32266 0.30000
C 	C 	0.23344 0.92388 0.31606 0.26800
C 	C 	0.13084 0.23008 0.20646 -0.01200
C 	C 	0.24669 0.72656 0.02314 -0.04200
C 	C 	0.29557 0.80442 0.99990 0.10200
N 	N 	0.33405 0.86659 0.98130 -0.11000
C 	C 	0.45469 0.42570 0.91589 0.30700
C 	C 	0.39432 0.19077 0.91527 0.29700
Ni	Ni	0.53795 0.32885 0.87140 1.12000
Ni	Ni	0.57530 0.36632 0.95031 1.12600
O 	O 	0.43011 0.36419 0.89071 -0.36000
O 	O 	0.42740 0.24859 0.94220 -0.35500
O 	O 	0.45902 0.20083 0.89177 -0.38100
C 	C 	0.51643 0.44624 0.67834 0.28900
C 	C 	0.44931 0.24456 0.71023 0.29100
Ni	Ni	0.57075 0.31244 0.64596 1.12000
O 	O 	0.55023 0.42604 0.65095 -0.37200
O 	O 	0.53302 0.27671 0.72847 -0.37900
O 	O 	0.45249 0.23065 0.67790 -0.36000
O 	O 	0.56954 0.46354 0.70672 -0.37200
C 	C 	0.18381 0.11571 0.76481 0.29800
C 	C 	0.13473 0.08364 0.86053 0.29000
C 	C 	0.35877 0.58439 0.48207 0.27400
C 	C 	0.57811 0.67843 0.36099 0.28800
C 	C 	0.54889 0.75552 0.45855 0.29700
C 	C 	0.34502 0.41119 0.37427 0.29600
C 	C 	0.35892 0.77812 0.35765 0.31600
C 	C 	0.15506 0.53983 0.39387 0.29200
Ni	Ni	0.47369 0.56893 0.42231 1.11600
Ni	Ni	0.34704 0.58912 0.35691 1.12300
Ni	Ni	0.35180 0.69781 0.42322 1.12300
O 	O 	0.38666 0.52852 0.46577 -0.35100
O 	O 	0.30791 0.62249 0.46657 -0.36700
O 	O 	0.31014 0.69063 0.34601 -0.38100
O 	O 	0.56392 0.60599 0.37980 -0.34400
O 	O 	0.49864 0.68153 0.34682 -0.35600
O 	O 	0.20413 0.63063 0.40440 -0.36900
O 	O 	0.57761 0.69575 0.44661 -0.35800
O 	O 	0.49804 0.78460 0.43980 -0.36400
O 	O 	0.19626 0.50850 0.37071 -0.36800
O 	O 	0.38713 0.42859 0.40413 -0.34200
O 	O 	0.37691 0.47997 0.35275 -0.37600
O 	O 	0.40199 0.79584 0.38707 -0.36600
O 	O 	0.38055 0.60559 0.40357 -0.70400
H 	H 	0.32027 0.54807 0.41208 0.14300
C 	C 	0.27363 0.66801 0.21288 0.26500
C 	C 	0.31259 0.57208 0.07958 0.31200
C 	C 	0.16140 0.40026 0.18682 0.31100
C 	C 	0.40842 0.78055 0.11706 0.29300
C 	C 	0.39949 0.44777 0.13821 0.28400
C 	C 	0.58665 0.69380 0.19604 0.30000
Ni	Ni	0.23857 0.57624 0.14374 1.10800
Ni	Ni	0.48639 0.65259 0.12990 1.13100
Ni	Ni	0.36949 0.54120 0.19990 1.11800
O 	O 	0.20391 0.61613 0.18955 -0.34800
O 	O 	0.34543 0.64468 0.22384 -0.34700
O 	O 	0.48419 0.52732 0.13046 -0.35800
O 	O 	0.26435 0.51547 0.10319 -0.38900
O 	O 	0.41245 0.62758 0.08387 -0.36300
O 	O 	0.52381 0.60771 0.20692 -0.37700
O 	O 	0.15518 0.42818 0.15676 -0.34100
O 	O 	0.21751 0.46498 0.20796 -0.38800
O 	O 	0.60020 0.70805 0.16412 -0.35400
O 	O 	0.30571 0.71606 0.12002 -0.35000
O 	O 	0.47704 0.77220 0.13474 -0.37800
O 	O 	0.36511 0.43370 0.16962 -0.34700
O 	O 	0.37033 0.60708 0.16044 -0.71000
H 	H 	0.39030 0.66807 0.17117 0.16400
Ni	Ni	0.21904 0.05641 0.26668 1.11700
O 	O 	0.23708 0.95424 0.23853 -0.36000
O 	O 	0.23580 0.17306 0.29421 -0.35800
O 	O 	0.27525 0.01379 0.30688 -0.33900
O 	O 	0.18231 0.11683 0.22584 -0.34100
C 	C 	0.14031 0.30308 0.19386 -0.03900
C 	C 	0.23762 0.80396 0.23673 -0.03100
C 	C 	0.26349 0.74581 0.22792 -0.02200
C 	C 	0.24005 0.24220 0.34609 -0.02300
C 	C 	0.28703 0.31528 0.36186 -0.02400
C 	C 	0.29724 0.88983 0.33060 -0.02100
C 	C 	0.33418 0.84563 0.34325 -0.03800
C 	C 	0.54949 0.84545 0.54518 -0.04900
C 	C 	0.51712 0.81221 0.51287 0.02200
C 	C 	0.47427 0.84042 0.56913 0.10200
C 	C 	0.57885 0.16319 0.57101 0.09100
C 	C 	0.42640 0.81361 0.49957 0.07500
N 	N 	0.52418 0.19314 0.56409 -0.10300
N 	N 	0.41372 0.83702 0.58792 -0.10800
N 	N 	0.35480 0.81625 0.48903 -0.11400
C 	C 	0.13766 0.38232 0.43816 0.07400
N 	N 	0.18900 0.34634 0.43745 -0.09200
C 	C 	0.30990 0.45853 0.63307 -0.03600
C 	C 	0.36815 0.55635 0.62532 0.02300
C 	C 	0.44238 0.61889 0.64876 -0.03800
C 	C 	0.47885 0.58070 0.67365 0.02400
C 	C 	0.44119 0.48123 0.67437 -0.07100
C 	C 	0.34575 0.42102 0.65823 0.01700
C 	C 	0.37711 0.58482 0.58973 0.02200
C 	C 	0.28897 0.31995 0.66553 0.07700
C 	C 	0.29786 0.59571 0.57427 -0.03400
C 	C 	0.29225 0.59819 0.53928 0.01800
C 	C 	0.36587 0.58771 0.51945 -0.06400
C 	C 	0.44970 0.58383 0.53552 0.01700
C 	C 	0.45581 0.58429 0.57039 -0.03500
C 	C 	0.22122 0.60342 0.59440 0.10400
C 	C 	0.53083 0.58061 0.51636 0.08800
C 	C 	0.21233 0.61353 0.52416 0.09900
C 	C 	0.54134 0.58014 0.58660 0.10600
C 	C 	0.22072 0.39519 0.61281 0.10100
N 	N 	0.14847 0.62613 0.51234 -0.10600
N 	N 	0.16004 0.60950 0.61047 -0.11500
N 	N 	0.60898 0.57675 0.59992 -0.09200
N 	N 	0.24195 0.23887 0.67087 -0.09700
N 	N 	0.14968 0.34443 0.59659 -0.10100
C 	C 	0.35114 0.19717 0.72709 -0.02400
C 	C 	0.27323 0.15995 0.74361 -0.02500
C 	C 	0.05030 0.62318 0.97730 -0.06300
C 	C 	0.25133 0.60433 0.05850 -0.08500
C 	C 	0.30067 0.68029 0.03549 0.02900
C 	C 	0.40218 0.70650 0.02273 0.09100
N 	N 	0.48378 0.72947 0.01238 -0.09200
C 	C 	0.62957 0.09043 0.02543 -0.00000
C 	C 	0.65223 0.07504 0.99257 0.00700
C 	C 	0.56649 0.00659 0.04696 0.08600
C 	C 	0.60096 0.97984 0.97794 0.07500
C 	C 	0.46419 0.98208 0.05635 -0.09500
C 	C 	0.40768 0.90387 0.07794 0.04100
C 	C 	0.45082 0.84633 0.08803 -0.08700
C 	C 	0.55129 0.86861 0.07591 0.04400
C 	C 	0.61094 0.95265 0.05839 -0.06700
C 	C 	0.41816 0.03808 0.04439 0.14500
C 	C 	0.59587 0.80706 0.08240 0.07200
C 	C 	0.30744 0.88470 0.09021 0.08000
N 	N 	0.22737 0.86933 0.10007 -0.09700
N 	N 	0.38149 0.08287 0.03483 -0.10800
N 	N 	0.56050 0.90405 0.96609 -0.09000
C 	C 	0.25864 0.34191 0.06233 -0.03000
C 	C 	0.34351 0.35280 0.04328 0.02100
C 	C 	0.42735 0.35062 0.05977 -0.03200
C 	C 	0.43365 0.35522 0.09496 0.02200
C 	C 	0.35938 0.36684 0.11322 -0.05800
C 	C 	0.26258 0.33687 0.09734 0.02200
C 	C 	0.34993 0.37766 0.00681 0.01500
C 	C 	0.16813 0.27466 0.11445 0.10700
C 	C 	0.41232 0.47353 0.99668 -0.04500
C 	C 	0.41100 0.49702 0.96292 0.02300
C 	C 	0.37434 0.42323 0.93892 -0.08700
C 	C 	0.29256 0.33452 0.94880 0.02600
C 	C 	0.28764 0.30773 0.98256 -0.04000
C 	C 	0.49080 0.54184 0.01908 0.10800
C 	C 	0.19977 0.28980 0.92855 0.09500
C 	C 	0.46699 0.59550 0.95227 0.10000
C 	C 	0.22193 0.20903 0.99188 0.11100
C 	C 	0.16568 0.33083 0.04603 0.11000
N 	N 	0.12462 0.25476 0.91257 -0.09700
N 	N 	0.16942 0.13006 0.99933 -0.09800
N 	N 	0.09075 0.22278 0.12707 -0.09500
N 	N 	0.09157 0.32164 0.03277 -0.10600
C 	C 	0.21025 0.11680 0.88727 -0.01800
C 	C 	0.28753 0.14833 0.90457 -0.03500
O 	O 	0.54623 0.45999 0.92854 -0.38900
C 	C 	0.48610 0.72136 0.64590 0.10400
N 	N 	0.51192 0.67397 0.94344 -0.09000
C 	C 	0.58631 0.80136 0.49150 -0.08100
C 	C 	0.55913 0.64341 0.69683 0.09400
N 	N 	0.52194 0.80353 0.64408 -0.10900
C 	C 	0.50803 0.34692 0.04091 0.09800
N 	N 	0.55408 0.59521 0.03717 -0.09500
O 	O 	0.62833 0.28341 0.96877 -0.36400
O 	O 	0.60782 0.20706 0.64148 -0.36100
N 	N 	0.58214 0.04215 0.49695 -0.09100
N 	N 	0.04987 0.86339 0.05110 -0.09300
N 	N 	0.93085 0.65619 0.47596 -0.09100
O 	O 	0.93468 0.85729 0.83552 -0.35500
C 	C 	0.96830 0.47645 0.40780 0.06800
C 	C 	0.72534 0.30197 0.96548 0.29100
C 	C 	0.71172 0.51386 0.84905 0.30500
C 	C 	0.77595 0.55125 0.95374 0.31500
C 	C 	0.69309 0.25786 0.85584 0.28400
Ni	Ni	0.77127 0.42510 0.90269 1.12300
O 	O 	0.79603 0.37892 0.94939 -0.34900
O 	O 	0.77126 0.47700 0.85582 -0.35200
O 	O 	0.61103 0.46339 0.85281 -0.36500
O 	O 	0.76841 0.54238 0.92196 -0.37000
O 	O 	0.70563 0.48052 0.97139 -0.35100
O 	O 	0.76340 0.30880 0.87871 -0.34900
O 	O 	0.62661 0.28523 0.84363 -0.34600
O 	O 	0.62857 0.35241 0.90875 -0.71000
H 	H 	0.62274 0.28903 0.91142 0.17200
C 	C 	0.82045 0.34719 0.73047 0.28400
C 	C 	0.74431 0.40531 0.59484 0.29900
C 	C 	0.82447 0.58963 0.70005 0.29700
C 	C 	0.69970 0.22057 0.63170 0.27100
Ni	Ni	0.82381 0.42523 0.66324 1.11600
Ni	Ni	0.65710 0.40285 0.72059 1.12300
O 	O 	0.87897 0.41331 0.70937 -0.35200
O 	O 	0.73830 0.34657 0.74365 -0.34500
O 	O 	0.81170 0.46441 0.61595 -0.36000
O 	O 	0.64439 0.36722 0.60126 -0.35400
O 	O 	0.86202 0.56655 0.67436 -0.33500
O 	O 	0.78668 0.53046 0.72468 -0.36700
O 	O 	0.78970 0.28795 0.64546 -0.34900
O 	O 	0.68427 0.36809 0.67761 -0.70200
H 	H 	0.67792 0.30783 0.68581 0.14600
C 	C 	0.83712 0.79619 0.82656 0.28600
C 	C 	0.90639 0.14947 0.75485 0.33000
C 	C 	0.91644 0.84426 0.74222 0.31400
C 	C 	0.81547 0.10080 0.82114 0.27200
Ni	Ni	0.82874 0.94940 0.78042 1.10400
O 	O 	0.78126 0.82056 0.80650 -0.34900
O 	O 	0.84018 0.05850 0.74975 -0.34500
O 	O 	0.00250 0.17699 0.76349 -0.40400
O 	O 	0.87399 0.89899 0.73943 -0.35700
O 	O 	0.95498 0.83778 0.77061 -0.37000
O 	O 	0.77103 0.00721 0.81539 -0.33600
O 	O 	0.91616 0.15224 0.82915 -0.33400
O 	O 	0.95755 0.00928 0.80304 -0.67100
H 	H 	0.93132 0.99696 0.82593 0.14000
C 	C 	0.86688 0.86542 0.32777 0.30800
C 	C 	0.84322 0.85639 0.25124 0.27400
Ni	Ni	0.99276 0.03601 0.28681 1.14000
Ni	Ni	0.01908 0.84807 0.28829 1.11300
O 	O 	0.88684 0.95168 0.32024 -0.36900
O 	O 	0.89076 0.80640 0.25941 -0.34800
O 	O 	0.89211 0.95222 0.25100 -0.36100
O 	O 	0.94132 0.84456 0.32888 -0.35800
C 	C 	0.67135 0.75621 0.21701 -0.02800
C 	C 	0.74792 0.80556 0.23323 -0.01300
C 	C 	0.68108 0.74391 0.35018 -0.01600
C 	C 	0.76677 0.79928 0.34052 -0.03200
C 	C 	0.72771 0.89707 0.53047 -0.04500
C 	C 	0.65596 0.90575 0.55120 0.04400
C 	C 	0.69183 0.84037 0.50126 0.03100
C 	C 	0.68799 0.99727 0.56928 -0.03800
C 	C 	0.76422 0.82820 0.48043 0.10300
C 	C 	0.65253 0.05908 0.55753 0.00800
C 	C 	0.64629 0.12414 0.57930 -0.00100
C 	C 	0.69987 0.14600 0.61000 -0.04600
C 	C 	0.74756 0.09231 0.62032 0.00300
C 	C 	0.73538 0.01382 0.60090 0.03400
C 	C 	0.61346 0.04948 0.52380 0.10100
C 	C 	0.80885 0.11744 0.65058 0.12000
C 	C 	0.76649 0.94762 0.61412 0.07400
C 	C 	0.83798 0.95199 0.53771 0.11400
N 	N 	0.85845 0.13743 0.67462 -0.08900
N 	N 	0.79116 0.89468 0.62467 -0.08800
N 	N 	0.82209 0.81849 0.46384 -0.08600
N 	N 	0.92608 0.99594 0.54350 -0.09600
C 	C 	0.85091 0.49555 0.50824 -0.02600
C 	C 	0.86011 0.41708 0.49572 0.01400
C 	C 	0.82324 0.33438 0.51521 -0.02500
C 	C 	0.81006 0.34213 0.54922 0.01200
C 	C 	0.77895 0.40810 0.55987 -0.06300
C 	C 	0.80457 0.48872 0.53963 0.02400
C 	C 	0.92469 0.42788 0.46554 0.06700
C 	C 	0.81965 0.24867 0.50190 0.10700
C 	C 	0.79877 0.57023 0.55277 0.10900
C 	C 	0.89674 0.44825 0.43419 -0.05500
C 	C 	0.94832 0.51233 0.37735 0.09400
C 	C 	0.79461 0.43796 0.42893 0.11600
C 	C 	0.89535 0.58488 0.49028 0.11300
C 	C 	0.86966 0.31762 0.57170 0.08800
N 	N 	0.93242 0.54107 0.35303 -0.09000
N 	N 	0.71305 0.42976 0.42475 -0.10600
N 	N 	0.81882 0.18129 0.49103 -0.09500
N 	N 	0.91944 0.29919 0.58926 -0.08800
N 	N 	0.79601 0.63655 0.56297 -0.08900
N 	N 	0.59578 0.57776 0.50133 -0.10600
N 	N 	0.62321 0.69358 0.71538 -0.10500
C 	C 	0.87617 0.21977 0.74717 -0.03700
C 	C 	0.84987 0.27798 0.74043 -0.01500
C 	C 	0.85890 0.68829 0.70721 -0.01300
C 	C 	0.88551 0.76519 0.71982 -0.02300
C 	C 	0.99761 0.71907 0.01068 0.03500
C 	C 	0.96437 0.59757 0.95663 0.06500
C 	C 	0.88166 0.61057 0.96793 -0.08200
C 	C 	0.90091 0.67716 0.99369 0.01700
C 	C 	0.82548 0.70743 0.00101 0.10700
C 	C 	0.01601 0.62514 0.07679 0.06600
C 	C 	0.02669 0.79924 0.03317 0.05900
C 	C 	0.96679 0.56802 0.92277 0.04200
N 	N 	0.94703 0.62080 0.09162 -0.06700
N 	N 	0.97015 0.54503 0.89576 -0.12400
N 	N 	0.76556 0.73211 0.00678 -0.08900
C 	C 	0.68861 0.18260 0.03996 -0.01700
C 	C 	0.72571 0.15323 0.97424 0.01000
C 	C 	0.75716 0.24597 0.98577 -0.05700
C 	C 	0.75771 0.25975 0.02016 0.02200
C 	C 	0.81187 0.35594 0.03369 0.11200
C 	C 	0.72008 0.98468 0.05232 0.09900
C 	C 	0.67911 0.19739 0.07497 0.11000
C 	C 	0.75632 0.13915 0.94159 0.10600
N 	N 	0.63353 0.75975 0.08746 -0.12200
N 	N 	0.80689 0.01023 0.04747 -0.07400
N 	N 	0.78090 0.12788 0.91549 -0.08700
N 	N 	0.85464 0.43311 0.04432 -0.09000
N 	N 	0.67148 0.20901 0.10293 -0.09200
C 	C 	0.52070 0.35652 0.11212 0.10500
N 	N 	0.57330 0.34427 0.02612 -0.12200
N 	N 	0.59033 0.35771 0.12587 -0.08900
C 	C 	0.75071 0.14269 0.82859 -0.01200
C 	C 	0.71204 0.18967 0.83822 -0.01600
C 	C 	0.75753 0.61362 0.84145 -0.02900
C 	C 	0.79431 0.69740 0.83520 -0.01400
