data_crystal

_cell_length_a 18.24804
_cell_length_b 18.85898
_cell_length_c 17.93899
_cell_angle_alpha 95.41529
_cell_angle_beta  95.41664
_cell_angle_gamma 126.43520

_symmetry_space_group_name_	'P 1'
_symmetry_space_group_name_H-M	'P 1'

loop_
_symmetry_equiv_pos_as_xyz
  x,y,z

loop_
_atom_site_label
_atom_site_type_symbol
_atom_site_fract_x
_atom_site_fract_y
_atom_site_fract_z
_atom_site_charge
C 	C 	0.05417 0.08991 0.95517 0.07600
C 	C 	0.08694 0.03876 0.94905 -0.06400
C 	C 	0.02534 0.94579 0.94548 0.15600
H 	H 	0.10259 0.16249 0.96397 0.09000
H 	H 	0.05227 0.90825 0.95173 0.09900
H 	H 	0.82357 0.92053 0.93866 0.09300
C 	C 	0.85037 0.88962 0.42575 -0.07200
C 	C 	0.04446 0.00194 0.44884 0.11200
H 	H 	0.77531 0.84616 0.41739 0.14700
H 	H 	0.03362 0.88481 0.46607 0.15700
H 	H 	0.03424 0.10770 0.43219 0.17600
Cu	Cu	0.66341 0.24878 0.04532 0.94600
Cu	Cu	0.79693 0.30613 0.92034 0.87000
Cu	Cu	0.68485 0.35973 0.92519 0.88600
Cu	Cu	0.64287 0.40498 0.07254 0.96000
C 	C 	0.65259 0.31134 0.19487 0.24700
O 	O 	0.52211 0.18286 0.02476 -0.24500
C 	C 	0.71836 0.31551 0.77731 0.20500
O 	O 	0.72077 0.38188 0.03627 -0.61700
O 	O 	0.66978 0.24852 0.93570 -0.65600
O 	O 	0.73139 0.19655 0.06213 -0.26700
O 	O 	0.84982 0.31107 0.01792 -0.35100
O 	O 	0.61272 0.34204 0.16028 -0.22400
O 	O 	0.68933 0.46508 0.91468 -0.32100
C 	C 	0.71910 0.53294 0.96990 0.24400
C 	C 	0.48175 0.21657 0.99588 0.24600
O 	O 	0.53235 0.29896 0.98233 -0.34500
O 	O 	0.71345 0.52222 0.04104 -0.23100
O 	O 	0.68292 0.27361 0.15587 -0.25100
C 	C 	0.81325 0.23605 0.04307 0.30600
O 	O 	0.67204 0.33715 0.81334 -0.29800
O 	O 	0.76164 0.28806 0.81260 -0.34400
H 	H 	0.78796 0.42871 0.05584 0.20700
H 	H 	0.61915 0.19457 0.89806 0.20400
Cu	Cu	0.73311 0.31875 0.41631 0.93700
Cu	Cu	0.75137 0.24951 0.57186 0.89300
Cu	Cu	0.62589 0.29388 0.54760 0.90600
Cu	Cu	0.56090 0.32240 0.39717 0.93100
C 	C 	0.64347 0.30157 0.26715 0.24000
O 	O 	0.79695 0.45148 0.41333 -0.28400
C 	C 	0.71607 0.31406 0.70237 0.20600
O 	O 	0.59727 0.25702 0.43805 -0.63000
O 	O 	0.75319 0.34172 0.53006 -0.62900
O 	O 	0.78351 0.24943 0.40232 -0.28900
O 	O 	0.69626 0.16196 0.48221 -0.39900
O 	O 	0.57373 0.29556 0.29124 -0.24200
O 	O 	0.49818 0.23687 0.55718 -0.30700
C 	C 	0.44085 0.23730 0.50716 0.30500
C 	C 	0.75986 0.49028 0.43506 0.29600
O 	O 	0.68423 0.44530 0.46306 -0.33900
O 	O 	0.47211 0.29910 0.46472 -0.31200
O 	O 	0.69111 0.28120 0.30722 -0.25300
C 	C 	0.74685 0.17572 0.43045 0.32000
O 	O 	0.65686 0.32053 0.66086 -0.28600
O 	O 	0.77741 0.31126 0.67190 -0.33800
H 	H 	0.55225 0.19124 0.42029 0.20100
H 	H 	0.80241 0.40429 0.55665 0.20800
C 	C 	0.83171 0.70362 0.36731 0.02800
C 	C 	0.84963 0.75736 0.43637 0.07500
C 	C 	0.84018 0.72326 0.50449 -0.11100
C 	C 	0.82723 0.64193 0.50390 0.07800
C 	C 	0.80669 0.58652 0.43486 0.00400
C 	C 	0.80845 0.61752 0.36538 -0.06000
C 	C 	0.77705 0.55625 0.28918 0.76900
H 	H 	0.83788 0.72995 0.31520 0.13100
H 	H 	0.82657 0.61848 0.55693 0.10200
C 	C 	0.84619 0.77428 0.57831 0.79300
F 	F 	0.79242 0.60139 0.22897 -0.40600
F 	F 	0.68311 0.48783 0.27946 -0.44500
F 	F 	0.80354 0.81395 0.56513 -0.36200
F 	F 	0.80187 0.71716 0.62851 -0.35900
C 	C 	0.79547 0.01235 0.36433 -0.06400
C 	C 	0.85186 0.02401 0.43064 0.00400
C 	C 	0.87093 0.08372 0.49698 -0.10300
C 	C 	0.84547 0.14039 0.49190 0.08200
C 	C 	0.78842 0.12852 0.42624 -0.03000
C 	C 	0.76117 0.06253 0.36208 -0.00700
C 	C 	0.68961 0.04008 0.29441 0.65200
H 	H 	0.77885 0.96458 0.31455 0.18400
H 	H 	0.86648 0.19142 0.54060 0.05000
F 	F 	0.68110 0.98270 0.23400 -0.31700
F 	F 	0.71439 0.11729 0.26915 -0.37400
F 	F 	0.60431 0.99906 0.31607 -0.32300
F 	F 	0.89534 0.00631 0.58238 -0.39500
F 	F 	0.89948 0.12162 0.63298 -0.38500
C 	C 	0.19401 0.11745 0.53561 0.02500
C 	C 	0.14631 0.06131 0.46401 0.06400
C 	C 	0.19592 0.05882 0.40917 -0.10800
C 	C 	0.29244 0.10908 0.42909 0.06900
C 	C 	0.34066 0.16920 0.49875 -0.00600
C 	C 	0.29140 0.17347 0.55308 -0.04900
C 	C 	0.34245 0.23721 0.62948 0.77700
H 	H 	0.15486 0.11735 0.57747 0.15500
H 	H 	0.33115 0.10509 0.38882 0.08000
C 	C 	0.14613 0.00154 0.32993 0.72900
F 	F 	0.28210 0.23342 0.67333 -0.36200
F 	F 	0.40268 0.32452 0.61829 -0.39300
F 	F 	0.39229 0.21489 0.66968 -0.40000
F 	F 	0.08229 0.01338 0.29961 -0.42200
F 	F 	0.10077 0.91211 0.33394 -0.35600
F 	F 	0.20751 0.02422 0.28043 -0.39600
C 	C 	0.81341 0.65184 0.89563 0.08100
C 	C 	0.75737 0.62222 0.95114 0.01900
C 	C 	0.74586 0.68163 0.99286 -0.08000
C 	C 	0.80664 0.77345 0.99094 -0.03900
C 	C 	0.86464 0.80400 0.93673 0.13800
C 	C 	0.86113 0.74061 0.88367 -0.13300
H 	H 	0.82055 0.60602 0.86210 0.08300
H 	H 	0.80793 0.82113 0.03102 0.15600
C 	C 	0.66891 0.64831 0.03853 0.80600
F 	F 	0.86333 0.69168 0.75708 -0.38600
F 	F 	0.99889 0.79849 0.83438 -0.40500
F 	F 	0.69946 0.64723 0.11163 -0.38400
F 	F 	0.59083 0.56307 0.00455 -0.38500
F 	F 	0.64329 0.70430 0.04312 -0.37400
C 	C 	0.86988 0.10680 0.92080 -0.10300
C 	C 	0.82555 0.14276 0.94604 -0.00100
C 	C 	0.84566 0.18245 0.02272 0.04800
H 	H 	0.77776 0.14300 0.90548 0.05100
C 	C 	0.85476 0.07342 0.83624 0.73000
F 	F 	0.85590 0.20034 0.18826 -0.38700
F 	F 	0.79086 0.98095 0.81976 -0.33000
F 	F 	0.82172 0.10890 0.79245 -0.41300
C 	C 	0.23768 0.11001 0.03386 0.04400
C 	C 	0.18790 0.08398 0.95979 0.07000
C 	C 	0.23330 0.09720 0.89689 -0.10700
C 	C 	0.32877 0.13671 0.91006 0.07200
C 	C 	0.37931 0.16435 0.98453 -0.02700
C 	C 	0.33304 0.15048 0.04747 -0.02800
C 	C 	0.38618 0.18764 0.12896 0.76800
H 	H 	0.20181 0.09975 0.08125 0.11400
H 	H 	0.36452 0.14782 0.86250 0.09800
C 	C 	0.18052 0.07058 0.81606 0.73400
F 	F 	0.32731 0.15779 0.18112 -0.39700
F 	F 	0.43987 0.28012 0.14158 -0.41600
F 	F 	0.44132 0.16085 0.14239 -0.42000
F 	F 	0.14274 0.11563 0.80884 -0.36200
F 	F 	0.11002 0.97923 0.79962 -0.29300
F 	F 	0.23726 0.09101 0.76280 -0.38300
F 	F 	0.82480 0.52060 0.28653 -0.43000
C 	C 	0.92093 0.08968 0.57282 0.76300
C 	C 	0.90719 0.18176 0.07635 -0.08100
C 	C 	0.92964 0.90214 0.93777 -0.03700
C 	C 	0.89693 0.95342 0.94122 0.12600
C 	C 	0.89963 0.98231 0.42750 0.26500
C 	C 	0.89912 0.85437 0.43911 0.11600
F 	F 	0.93821 0.83982 0.61174 -0.35400
C 	C 	0.90767 0.76609 0.81481 0.79800
F 	F 	0.90435 0.83009 0.78651 -0.34100
C 	C 	0.94642 0.13993 0.05199 0.06100
C 	C 	0.92695 0.10112 0.97508 0.05200
C 	C 	0.93446 0.22918 0.15848 0.77900
F 	F 	0.93718 0.09849 0.81562 -0.37400
F 	F 	0.01566 0.14764 0.57617 -0.39100
C 	C 	0.99628 0.03701 0.43434 -0.19400
C 	C 	0.95935 0.04738 0.95367 -0.07300
C 	C 	0.99597 0.91135 0.45305 -0.02200
H 	H 	0.99162 0.13675 0.09284 0.09500
F 	F 	0.98617 0.21230 0.20392 -0.41200
F 	F 	0.98668 0.32076 0.16133 -0.39900
