data_crystal

_cell_length_a 23.23144
_cell_length_b 23.58004
_cell_length_c 26.41344
_cell_angle_alpha 95.49817
_cell_angle_beta  95.49816
_cell_angle_gamma 125.92872

_symmetry_space_group_name_	'P 1'
_symmetry_space_group_name_H-M	'P 1'

loop_
_symmetry_equiv_pos_as_xyz
  x,y,z

loop_
_atom_site_label
_atom_site_type_symbol
_atom_site_fract_x
_atom_site_fract_y
_atom_site_fract_z
_atom_site_charge
C 	C 	0.03879 0.07659 0.98968 -0.08800
C 	C 	0.07255 0.04323 0.98502 0.04800
C 	C 	0.03349 0.97032 0.98624 -0.08900
H 	H 	0.06882 0.13297 0.98869 0.06200
H 	H 	0.05964 0.94457 0.98309 0.06500
C 	C 	0.03036 0.00430 0.44433 0.03600
H 	H 	0.02088 0.08940 0.43980 0.05400
H 	H 	0.02371 0.91001 0.44936 0.05900
C 	C 	0.24801 0.12382 0.44842 0.04900
C 	C 	0.28462 0.09693 0.46630 -0.05900
C 	C 	0.10707 0.04848 0.44542 -0.00800
C 	C 	0.28597 0.18933 0.43184 -0.06100
C 	C 	0.17134 0.08365 0.44664 -0.01100
H 	H 	0.25545 0.04614 0.47901 0.06600
H 	H 	0.25792 0.21040 0.41799 0.05900
C 	C 	0.29549 0.14805 0.97834 0.00800
C 	C 	0.24206 0.09820 0.93560 -0.02700
C 	C 	0.16918 0.06674 0.93655 -0.02900
C 	C 	0.20322 0.13685 0.02228 -0.03200
C 	C 	0.27606 0.16837 0.02123 -0.03000
C 	C 	0.14936 0.08476 0.98042 0.00200
H 	H 	0.25677 0.08273 0.90212 0.06300
H 	H 	0.12799 0.02687 0.90390 0.05300
H 	H 	0.18848 0.15109 0.05631 0.04900
H 	H 	0.31721 0.20734 0.05425 0.05300
C 	C 	0.35899 0.13538 0.46766 0.02900
C 	C 	0.36040 0.22796 0.43318 0.02600
C 	C 	0.99238 0.03332 0.44139 -0.05800
C 	C 	0.99403 0.93230 0.44707 -0.06200
C 	C 	0.96616 0.03688 0.99540 0.06200
C 	C 	0.96109 0.93082 0.99194 0.06400
C 	C 	0.92742 0.96403 0.99656 -0.08400
H 	H 	0.87116 0.93325 0.00080 0.06300
C 	C 	0.91766 0.99024 0.44124 0.03100
C 	C 	0.91967 0.88890 0.44705 0.04600
C 	C 	0.88119 0.91772 0.44415 -0.07000
H 	H 	0.82355 0.88421 0.44418 0.06000
Cu	Cu	0.63684 0.23532 0.00420 0.93400
Cu	Cu	0.69654 0.24366 0.89552 0.88300
Cu	Cu	0.68499 0.35463 0.94280 0.90600
Cu	Cu	0.64530 0.37012 0.04500 0.91100
C 	C 	0.65854 0.28339 0.11327 0.30800
O 	O 	0.53222 0.19719 0.00251 -0.34900
C 	C 	0.66061 0.31117 0.82889 0.30100
O 	O 	0.70025 0.34720 0.01363 -0.63600
O 	O 	0.63088 0.24893 0.93167 -0.63700
O 	O 	0.67814 0.18158 0.99801 -0.35100
O 	O 	0.76180 0.25841 0.95344 -0.42200
O 	O 	0.62840 0.31487 0.10184 -0.34800
O 	O 	0.74313 0.45741 0.95813 -0.36600
C 	C 	0.73669 0.49576 0.99375 0.30400
C 	C 	0.50795 0.23160 0.98581 0.31200
O 	O 	0.55369 0.29876 0.98237 -0.37600
O 	O 	0.69227 0.46658 0.02682 -0.36900
O 	O 	0.65796 0.24011 0.07717 -0.32300
C 	C 	0.74025 0.20994 0.98259 0.29900
O 	O 	0.68574 0.36300 0.86906 -0.35700
O 	O 	0.65473 0.25303 0.83416 -0.35900
H 	H 	0.75173 0.37545 0.03065 0.21100
H 	H 	0.58131 0.22215 0.91113 0.21000
Cu	Cu	0.73672 0.33277 0.43958 0.93400
Cu	Cu	0.73024 0.27831 0.55016 0.88400
Cu	Cu	0.61930 0.29253 0.50361 0.90500
Cu	Cu	0.60197 0.32904 0.40038 0.91200
C 	C 	0.68439 0.30863 0.33065 0.30700
O 	O 	0.77910 0.43690 0.43955 -0.34600
C 	C 	0.66670 0.31922 0.61749 0.30000
O 	O 	0.62364 0.27414 0.43236 -0.63500
O 	O 	0.72605 0.34264 0.51268 -0.63700
O 	O 	0.78716 0.28731 0.44535 -0.34900
O 	O 	0.71007 0.21007 0.49314 -0.42200
O 	O 	0.65484 0.34079 0.34219 -0.34600
O 	O 	0.51506 0.23791 0.49028 -0.36500
C 	C 	0.47601 0.24202 0.45307 0.30100
C 	C 	0.74612 0.46370 0.45531 0.28900
O 	O 	0.67861 0.42063 0.46104 -0.37900
O 	O 	0.50632 0.28766 0.42134 -0.36700
O 	O 	0.72840 0.30876 0.36640 -0.32600
C 	C 	0.75725 0.22735 0.46283 0.31600
O 	O 	0.61353 0.29515 0.57793 -0.35800
O 	O 	0.72483 0.32383 0.61120 -0.35800
H 	H 	0.59316 0.22295 0.41621 0.21000
H 	H 	0.75500 0.39224 0.53218 0.20800
C 	C 	0.70954 0.38456 0.76122 0.05300
C 	C 	0.65127 0.32402 0.77617 0.00000
C 	C 	0.58909 0.27134 0.73843 -0.09700
C 	C 	0.59288 0.27256 0.68570 0.05200
C 	C 	0.65510 0.32888 0.67066 0.00000
C 	C 	0.71033 0.38899 0.70855 -0.09700
C 	C 	0.77202 0.45629 0.69329 0.78100
H 	H 	0.75586 0.42652 0.79037 0.07600
H 	H 	0.54906 0.22792 0.65650 0.07600
C 	C 	0.52019 0.21170 0.75387 0.78100
F 	F 	0.80054 0.51506 0.73179 -0.44100
F 	F 	0.74836 0.46830 0.64830 -0.45300
F 	F 	0.82618 0.44989 0.68569 -0.44900
F 	F 	0.50975 0.23582 0.79941 -0.45200
F 	F 	0.52435 0.15669 0.76056 -0.45000
F 	F 	0.46056 0.18558 0.71591 -0.44200
C 	C 	0.74406 0.34244 0.25467 0.05700
C 	C 	0.68533 0.29159 0.27583 0.00400
C 	C 	0.62354 0.22995 0.24295 -0.10000
C 	C 	0.61716 0.22581 0.18899 0.05700
C 	C 	0.67328 0.28006 0.16788 0.00400
C 	C 	0.73936 0.33611 0.20065 -0.10000
C 	C 	0.80290 0.39199 0.17822 0.77800
H 	H 	0.79185 0.38882 0.28025 0.07900
H 	H 	0.56721 0.18224 0.16346 0.08000
C 	C 	0.56222 0.17112 0.26529 0.77900
F 	F 	0.86633 0.43215 0.21482 -0.44100
F 	F 	0.78926 0.43718 0.16070 -0.46800
F 	F 	0.81323 0.35958 0.13732 -0.45500
F 	F 	0.52264 0.19288 0.28281 -0.46800
F 	F 	0.58953 0.15567 0.30615 -0.45500
F 	F 	0.51633 0.10909 0.22856 -0.44100
C 	C 	0.83093 0.68096 0.45383 0.04500
C 	C 	0.85533 0.64913 0.42430 -0.05800
C 	C 	0.83033 0.57926 0.42657 0.02100
C 	C 	0.88352 0.81472 0.44975 -0.01100
C 	C 	0.75764 0.57334 0.48903 0.02200
C 	C 	0.78275 0.64326 0.48667 -0.05700
C 	C 	0.85784 0.75342 0.45183 -0.00800
C 	C 	0.78044 0.54049 0.45837 -0.07400
H 	H 	0.89331 0.67831 0.39929 0.06500
H 	H 	0.84819 0.55470 0.40251 0.05600
H 	H 	0.71977 0.54442 0.51415 0.05700
H 	H 	0.76450 0.66790 0.51023 0.06300
C 	C 	0.82480 0.10218 0.44451 0.00100
C 	C 	0.82312 0.06745 0.48521 -0.02600
C 	C 	0.84986 0.02751 0.48292 -0.03500
C 	C 	0.78212 0.18457 0.45395 -0.09200
C 	C 	0.87753 0.05458 0.39825 -0.03400
C 	C 	0.85091 0.09465 0.40064 -0.02500
C 	C 	0.80180 0.14732 0.44870 0.05900
C 	C 	0.87852 0.02203 0.43988 0.00800
H 	H 	0.80249 0.07256 0.51909 0.04700
H 	H 	0.85052 0.00285 0.51532 0.05000
H 	H 	0.89923 0.05046 0.36473 0.05100
H 	H 	0.85183 0.12081 0.36883 0.05800
C 	C 	0.39737 0.20117 0.45115 -0.07300
H 	H 	0.38663 0.11379 0.48118 0.05200
H 	H 	0.38935 0.27892 0.42075 0.04700
C 	C 	0.85092 0.71872 0.99397 0.04900
C 	C 	0.78458 0.68061 0.01071 -0.06200
C 	C 	0.74739 0.60787 0.01093 0.02400
C 	C 	0.92138 0.85604 0.99286 -0.01600
C 	C 	0.84317 0.61128 0.97782 0.02900
C 	C 	0.88021 0.68401 0.97764 -0.05800
C 	C 	0.88894 0.79343 0.99345 -0.00400
C 	C 	0.77642 0.57273 0.99437 -0.07200
H 	H 	0.76166 0.70721 0.02336 0.05900
H 	H 	0.69567 0.57873 0.02338 0.04600
H 	H 	0.86651 0.58505 0.96539 0.05300
H 	H 	0.93166 0.71334 0.96478 0.06700
C 	C 	0.86125 0.12757 0.00253 0.04200
C 	C 	0.89667 0.19926 0.99874 -0.05800
C 	C 	0.85777 0.22716 0.99473 0.02400
C 	C 	0.93062 0.07026 0.99869 -0.01400
C 	C 	0.74822 0.11233 0.00040 0.01900
C 	C 	0.78730 0.08456 0.00442 -0.05900
C 	C 	0.89952 0.09688 0.00089 -0.01000
C 	C 	0.78291 0.18335 0.99421 -0.07600
H 	H 	0.95400 0.23298 0.99773 0.06100
H 	H 	0.88552 0.28240 0.99097 0.05100
H 	H 	0.69062 0.07795 0.00027 0.04900
H 	H 	0.75967 0.02915 0.00768 0.05900
C 	C 	0.43260 0.20059 0.98140 -0.08400
C 	C 	0.36988 0.17619 0.97926 0.06100
