data_crystal

_cell_length_a 19.03760
_cell_length_b 15.93349
_cell_length_c 41.65398
_cell_angle_alpha 90.80673
_cell_angle_beta  91.18169
_cell_angle_gamma 110.87536

_symmetry_space_group_name_	'P 1'
_symmetry_space_group_name_H-M	'P 1'

loop_
_symmetry_equiv_pos_as_xyz
  x,y,z

loop_
_atom_site_label
_atom_site_type_symbol
_atom_site_fract_x
_atom_site_fract_y
_atom_site_fract_z
_atom_site_charge
Ni	Ni	0.13892 0.06144 0.75032 1.09700
O 	O 	0.05931 0.06066 0.71707 -0.70600
O 	O 	0.21747 0.16928 0.72937 -0.36900
O 	O 	0.19903 0.09197 0.68123 -0.40800
O 	O 	0.09845 0.14443 0.77599 -0.37700
Ni	Ni	0.08239 0.04161 0.67307 1.06600
O 	O 	0.15662 0.93199 0.81215 -0.41000
O 	O 	0.08477 0.91643 0.68064 -0.41600
O 	O 	0.05747 0.94239 0.75887 -0.70000
O 	O 	0.21389 0.06635 0.78682 -0.37500
Ni	Ni	0.04905 0.92921 0.80566 1.06800
H 	H 	0.04737 0.11617 0.71860 0.15700
H 	H 	0.07295 0.89400 0.74989 0.15000
C 	C 	0.02240 0.84703 0.68294 0.29100
O 	O 	0.07597 0.05960 0.82037 -0.39200
C 	C 	0.23574 0.16405 0.69920 0.26400
C 	C 	0.06018 0.11678 0.80199 0.28400
C 	C 	0.21754 0.99403 0.80074 0.27600
O 	O 	0.32864 0.68422 0.38815 -0.70500
Ni	Ni	0.23848 0.68977 0.36405 1.10000
O 	O 	0.37180 0.67067 0.45563 -0.41200
Ni	Ni	0.29458 0.59428 0.42091 1.06600
O 	O 	0.22431 0.65109 0.44007 -0.41900
O 	O 	0.20541 0.56369 0.34444 -0.37500
O 	O 	0.27784 0.81347 0.38716 -0.70100
O 	O 	0.16267 0.71775 0.33422 -0.36400
O 	O 	0.24740 0.85397 0.32117 -0.41200
Ni	Ni	0.30070 0.92404 0.36244 1.07000
H 	H 	0.36244 0.66879 0.37334 0.15600
H 	H 	0.24469 0.81532 0.40493 0.15200
C 	C 	0.15852 0.63733 0.42679 0.31000
C 	C 	0.20699 0.49602 0.36214 0.26900
C 	C 	0.17747 0.79763 0.32209 0.27500
O 	O 	0.15088 0.64143 0.39548 -0.36800
O 	O 	0.20900 0.50326 0.39399 -0.40700
Ni	Ni	0.35015 0.59182 0.08238 1.10100
O 	O 	0.26217 0.57489 0.05087 -0.70100
Ni	Ni	0.19713 0.62327 0.07687 1.10000
O 	O 	0.26726 0.39650 0.05892 -0.42200
Ni	Ni	0.20074 0.45489 0.03513 1.07200
O 	O 	0.11403 0.41054 0.06686 -0.39800
O 	O 	0.09858 0.58061 0.04929 -0.37600
O 	O 	0.29243 0.65614 0.10541 -0.70200
O 	O 	0.15454 0.69782 0.10595 -0.36700
O 	O 	0.26028 0.82326 0.10168 -0.40500
Ni	Ni	0.35288 0.78344 0.10664 1.06600
H 	H 	0.27921 0.61352 0.03208 0.15900
H 	H 	0.28172 0.63359 0.12748 0.15500
C 	C 	0.11882 0.43407 0.09746 0.29500
O 	O 	0.36073 0.78971 0.05815 -0.41700
C 	C 	0.09050 0.54008 0.02065 0.31300
C 	C 	0.19532 0.78104 0.11505 0.26700
O 	O 	0.15574 0.51748 0.10697 -0.39200
O 	O 	0.14328 0.51464 0.00860 -0.42500
Ni	Ni	0.00614 0.05618 0.23904 1.10000
O 	O 	0.08453 0.03852 0.20977 -0.37100
O 	O 	0.09117 0.14372 0.26754 -0.36700
O 	O 	0.03548 0.08462 0.31388 -0.41600
C 	C 	0.06281 0.00557 0.18035 0.27500
C 	C 	0.08490 0.15037 0.29875 0.27300
O 	O 	0.01087 0.02662 0.16425 -0.40500
C 	C 	0.08117 0.39147 0.15396 -0.01200
C 	C 	0.07274 0.36944 0.12093 -0.06400
C 	C 	0.02092 0.28533 0.11054 -0.01300
C 	C 	0.98109 0.22265 0.13298 -0.00300
C 	C 	0.99288 0.24306 0.16603 -0.07100
C 	C 	0.04126 0.32885 0.17630 -0.00500
H 	H 	0.11999 0.45631 0.16244 0.04200
H 	H 	0.01244 0.26770 0.08519 0.04300
H 	H 	0.94389 0.15672 0.12470 0.02300
H 	H 	0.05020 0.34585 0.20171 0.04000
C 	C 	0.08323 0.81798 0.12980 -0.01400
C 	C 	0.16031 0.83398 0.13378 -0.06500
C 	C 	0.20489 0.90451 0.15428 -0.01500
C 	C 	0.17299 0.95985 0.17001 -0.01000
C 	C 	0.09641 0.94549 0.16516 -0.08200
C 	C 	0.05152 0.87355 0.14535 -0.01100
H 	H 	0.04821 0.76391 0.11405 0.04600
H 	H 	0.26434 0.91695 0.15778 0.01900
H 	H 	0.20808 0.01480 0.18540 0.04600
H 	H 	0.99202 0.86089 0.14190 0.00300
C 	C 	0.19716 0.39647 0.31420 -0.01600
C 	C 	0.18452 0.40575 0.34691 -0.06800
C 	C 	0.14730 0.32880 0.36459 -0.01700
C 	C 	0.11879 0.24442 0.34925 -0.02200
C 	C 	0.12668 0.23601 0.31601 -0.08200
C 	C 	0.16847 0.31217 0.29883 -0.01200
H 	H 	0.22790 0.45485 0.30050 0.03800
H 	H 	0.13833 0.33454 0.38999 0.03700
H 	H 	0.08860 0.18608 0.36307 0.02400
H 	H 	0.17678 0.30666 0.27335 0.04700
C 	C 	0.07156 0.80102 0.28694 -0.00100
C 	C 	0.11503 0.82903 0.31532 -0.08400
C 	C 	0.09104 0.87386 0.33954 -0.01000
C 	C 	0.02343 0.88922 0.33567 -0.01000
C 	C 	0.97958 0.86121 0.30722 -0.07500
C 	C 	0.00436 0.81718 0.28282 -0.02400
H 	H 	0.08904 0.76512 0.26830 0.03400
H 	H 	0.12364 0.89439 0.36179 0.00000
H 	H 	0.00537 0.92305 0.35477 0.03700
C 	C 	0.03857 0.56575 0.46182 0.03200
C 	C 	0.09287 0.59937 0.44564 -0.09900
C 	C 	0.38443 0.31653 0.64725 -0.00700
C 	C 	0.31566 0.27816 0.66240 -0.01500
C 	C 	0.31015 0.22299 0.68888 -0.06200
C 	C 	0.37512 0.21178 0.70149 -0.00800
H 	H 	0.38715 0.35526 0.62583 0.04600
H 	H 	0.26595 0.28767 0.65257 0.02400
H 	H 	0.37160 0.16976 0.72206 0.03500
C 	C 	0.02125 0.51773 0.00292 -0.10200
H 	H 	0.02955 0.19014 0.85668 0.03600
C 	C 	0.35212 0.02650 0.78853 -0.01000
C 	C 	0.29245 0.99227 0.80964 -0.06700
C 	C 	0.30717 0.96850 0.84071 -0.00600
H 	H 	0.34131 0.04275 0.76419 0.03000
H 	H 	0.26165 0.94073 0.85711 0.04000
Ni	Ni	0.58626 0.20955 0.89773 1.09900
O 	O 	0.62945 0.32887 0.87498 -0.70400
Ni	Ni	0.72466 0.32128 0.85813 1.09900
O 	O 	0.49616 0.24102 0.91264 -0.37000
O 	O 	0.57514 0.36986 0.93744 -0.40900
O 	O 	0.53354 0.16159 0.85488 -0.40100
Ni	Ni	0.65500 0.43279 0.90372 1.06600
O 	O 	0.63370 0.02596 0.90865 -0.41700
O 	O 	0.72325 0.39007 0.93200 -0.41800
O 	O 	0.75573 0.43782 0.83336 -0.37600
O 	O 	0.68743 0.20910 0.88593 -0.70200
O 	O 	0.53927 0.08401 0.91661 -0.38800
O 	O 	0.80821 0.28735 0.83717 -0.36500
O 	O 	0.72891 0.14387 0.82552 -0.41000
Ni	Ni	0.67311 0.09031 0.86710 1.06900
H 	H 	0.59632 0.33401 0.85706 0.15700
H 	H 	0.71883 0.21764 0.90579 0.15200
C 	C 	0.79035 0.39734 0.92319 0.31100
O 	O 	0.56865 0.04155 0.84418 -0.39400
C 	C 	0.50671 0.31271 0.93102 0.28800
C 	C 	0.75159 0.51137 0.84714 0.26700
C 	C 	0.51642 0.07781 0.84578 0.30200
C 	C 	0.79742 0.20467 0.82737 0.26500
C 	C 	0.57634 0.03125 0.92511 0.30400
O 	O 	0.80440 0.38916 0.89281 -0.37200
O 	O 	0.74415 0.51515 0.87871 -0.40500
Ni	Ni	0.62000 0.42437 0.59083 1.10100
O 	O 	0.69422 0.43647 0.55460 -0.69800
Ni	Ni	0.76576 0.38460 0.57464 1.10000
O 	O 	0.58054 0.52046 0.57417 -0.37300
O 	O 	0.70000 0.61650 0.56827 -0.42100
O 	O 	0.53729 0.32827 0.56341 -0.37200
Ni	Ni	0.75214 0.55410 0.53815 1.07200
O 	O 	0.51955 0.24765 0.62110 -0.40400
O 	O 	0.85119 0.59609 0.56497 -0.39800
O 	O 	0.85262 0.42108 0.54231 -0.37300
O 	O 	0.68303 0.35762 0.60810 -0.70000
O 	O 	0.54682 0.39973 0.62751 -0.37700
O 	O 	0.81555 0.30785 0.59873 -0.36700
O 	O 	0.70544 0.18686 0.59835 -0.40400
Ni	Ni	0.61883 0.23180 0.60991 1.06600
H 	H 	0.66881 0.39757 0.53598 0.15700
H 	H 	0.70334 0.38117 0.62980 0.15400
C 	C 	0.85896 0.57349 0.59470 0.29700
O 	O 	0.59349 0.22331 0.56221 -0.41700
C 	C 	0.62745 0.59766 0.56431 0.30100
C 	C 	0.85334 0.46548 0.51544 0.31000
C 	C 	0.54646 0.25785 0.54984 0.30600
C 	C 	0.77531 0.22722 0.60888 0.26800
C 	C 	0.51281 0.31672 0.63727 0.27100
O 	O 	0.82290 0.49154 0.60440 -0.39300
O 	O 	0.79692 0.49060 0.50695 -0.42200
Ni	Ni	0.97149 0.95590 0.73124 1.10100
O 	O 	0.89495 0.97683 0.70078 -0.37100
O 	O 	0.88566 0.86080 0.75456 -0.36500
O 	O 	0.93614 0.91287 0.80413 -0.41400
C 	C 	0.91781 0.00955 0.67223 0.27100
C 	C 	0.88857 0.84973 0.78570 0.27200
O 	O 	0.96839 0.85080 0.70135 -0.36900
O 	O 	0.97193 0.99028 0.65780 -0.40200
Ni	Ni	0.37520 0.81264 0.40602 1.09700
O 	O 	0.45949 0.78366 0.42954 -0.37100
O 	O 	0.43506 0.83883 0.36507 -0.39800
O 	O 	0.33952 0.00762 0.40154 -0.41000
O 	O 	0.42442 0.94473 0.41994 -0.38900
O 	O 	0.40674 0.95492 0.34393 -0.39100
C 	C 	0.44249 0.71718 0.44982 0.28800
C 	C 	0.45628 0.91744 0.35167 0.29800
C 	C 	0.38676 0.99916 0.42399 0.29500
O 	O 	0.38610 0.49853 0.06050 -0.37200
O 	O 	0.42080 0.68922 0.05344 -0.36900
O 	O 	0.45596 0.77085 0.11233 -0.40500
O 	O 	0.43615 0.62034 0.11504 -0.37700
C 	C 	0.33792 0.41955 0.05114 0.30100
C 	C 	0.40620 0.75900 0.04283 0.30300
C 	C 	0.46815 0.70312 0.12658 0.27200
Ni	Ni	0.83649 0.95010 0.25114 1.09700
O 	O 	0.91860 0.95531 0.21988 -0.70500
O 	O 	0.76021 0.84652 0.22523 -0.37000
O 	O 	0.78321 0.93156 0.18020 -0.41200
O 	O 	0.87235 0.86058 0.27488 -0.37800
Ni	Ni	0.89965 0.97808 0.17547 1.06600
O 	O 	0.81514 0.06720 0.31626 -0.41200
O 	O 	0.90205 0.10489 0.18457 -0.41100
O 	O 	0.91853 0.06620 0.26522 -0.69600
O 	O 	0.75751 0.93762 0.28535 -0.37800
Ni	Ni	0.92305 0.07026 0.31241 1.06900
H 	H 	0.93003 0.89940 0.22051 0.15200
H 	H 	0.90436 0.11660 0.25748 0.15200
C 	C 	0.96645 0.17071 0.18951 0.29500
O 	O 	0.89495 0.93768 0.32211 -0.39400
C 	C 	0.74516 0.85668 0.19487 0.26700
C 	C 	0.91100 0.88381 0.30194 0.28000
C 	C 	0.75371 0.00383 0.30391 0.28600
O 	O 	0.01197 0.16816 0.21335 -0.37100
C 	C 	0.60165 0.71948 0.13388 -0.00600
C 	C 	0.53567 0.72370 0.14694 -0.06400
C 	C 	0.53762 0.75988 0.17792 -0.01700
C 	C 	0.60600 0.79687 0.19494 -0.00700
C 	C 	0.67288 0.79923 0.18077 -0.06500
C 	C 	0.67019 0.75777 0.15066 -0.01300
H 	H 	0.60040 0.69101 0.11000 0.04600
H 	H 	0.48672 0.76277 0.18824 0.01900
H 	H 	0.60760 0.82841 0.21830 0.03800
H 	H 	0.72157 0.75868 0.13969 0.02200
C 	C 	0.59540 0.98221 0.36033 -0.01600
C 	C 	0.53285 0.95449 0.33900 -0.06200
C 	C 	0.54395 0.95235 0.30585 -0.01100
C 	C 	0.61671 0.97329 0.29422 -0.00900
C 	C 	0.67915 0.99754 0.31565 -0.07100
C 	C 	0.66825 0.00432 0.34870 0.00100
H 	H 	0.58747 0.98412 0.38598 0.04600
H 	H 	0.49613 0.93101 0.28917 0.03600
H 	H 	0.62430 0.96809 0.26866 0.03100
H 	H 	0.71576 0.02266 0.36551 0.03800
H 	H 	0.97164 0.79530 0.26067 0.03400
C 	C 	0.41113 0.06504 0.44954 -0.09400
C 	C 	0.43584 0.11714 0.47175 0.03000
C 	C 	0.46969 0.17308 0.49850 0.03500
C 	C 	0.50270 0.21539 0.52183 -0.10200
C 	C 	0.92017 0.49608 0.49694 -0.09700
C 	C 	0.97509 0.52673 0.48087 0.03500
C 	C 	0.60151 0.64238 0.53980 -0.12800
C 	C 	0.57522 0.67252 0.51833 0.03600
C 	C 	0.53760 0.69832 0.49308 0.02300
C 	C 	0.49831 0.71177 0.47234 -0.09500
C 	C 	0.80664 0.05495 0.66272 -0.00900
C 	C 	0.88065 0.06391 0.65558 -0.07500
C 	C 	0.92074 0.12863 0.63365 -0.01300
C 	C 	0.88709 0.18353 0.61893 -0.01200
C 	C 	0.81290 0.17403 0.62589 -0.06800
C 	C 	0.77294 0.10969 0.64792 -0.01500
H 	H 	0.77510 0.00541 0.67960 0.04500
H 	H 	0.97829 0.13712 0.62829 0.01100
H 	H 	0.91831 0.23244 0.60179 0.04500
H 	H 	0.71568 0.10201 0.65353 0.01600
C 	C 	0.44358 0.24877 0.68599 -0.01700
C 	C 	0.44787 0.29865 0.65814 -0.06100
H 	H 	0.49229 0.23499 0.69473 0.02000
C 	C 	0.92163 0.61781 0.64893 -0.01200
C 	C 	0.91626 0.63780 0.61642 -0.06500
C 	C 	0.96286 0.72169 0.60525 -0.00900
C 	C 	0.00756 0.78790 0.62695 -0.00500
C 	C 	0.00526 0.77130 0.65998 -0.07500
C 	C 	0.96642 0.68410 0.67053 -0.00200
H 	H 	0.88843 0.55242 0.65781 0.04200
H 	H 	0.96212 0.73705 0.58003 0.04300
H 	H 	0.03880 0.85441 0.61840 0.02500
H 	H 	0.96596 0.66980 0.69590 0.03300
C 	C 	0.96551 0.49313 0.98606 0.03600
C 	C 	0.90322 0.46021 0.96480 0.03400
C 	C 	0.85143 0.43095 0.94590 -0.10300
C 	C 	0.54532 0.96688 0.94964 -0.09900
C 	C 	0.51660 0.91447 0.97039 0.03200
C 	C 	0.48029 0.85586 0.99504 0.03100
C 	C 	0.44737 0.80921 0.01654 -0.09700
C 	C 	0.45010 0.31235 0.95313 -0.09000
C 	C 	0.41212 0.32256 0.97450 0.02400
C 	C 	0.37828 0.34606 0.00122 0.03800
C 	C 	0.35677 0.37515 0.02434 -0.12600
C 	C 	0.98561 0.17685 0.83830 0.00000
C 	C 	0.99356 0.14082 0.80827 -0.08400
C 	C 	0.93559 0.12282 0.78480 0.00200
C 	C 	0.87038 0.14104 0.79132 -0.01800
C 	C 	0.86316 0.17877 0.82115 -0.07000
C 	C 	0.92110 0.19663 0.84460 -0.02100
H 	H 	0.94050 0.09346 0.76172 -0.00900
H 	H 	0.82617 0.12712 0.77303 0.03900
H 	H 	0.91610 0.22568 0.86772 0.03300
C 	C 	0.38145 0.98733 0.85155 -0.01200
C 	C 	0.44142 0.03004 0.83144 -0.06600
C 	C 	0.42630 0.04542 0.79941 -0.00700
H 	H 	0.39253 0.97443 0.87626 0.04400
H 	H 	0.47216 0.07753 0.78357 0.03300
C 	C 	0.80370 0.59966 0.79804 -0.01500
C 	C 	0.77789 0.59696 0.82955 -0.06600
C 	C 	0.78107 0.67746 0.84500 -0.01900
C 	C 	0.81465 0.75980 0.83016 -0.01500
C 	C 	0.84411 0.76274 0.79946 -0.08100
C 	C 	0.83657 0.68215 0.78309 -0.01600
H 	H 	0.80008 0.53833 0.78541 0.04400
H 	H 	0.75913 0.67655 0.86883 0.02900
H 	H 	0.81881 0.82142 0.84276 0.03100
H 	H 	0.85867 0.68354 0.75926 0.03800
