data_crystal

_cell_length_a 18.60477
_cell_length_b 18.89227
_cell_length_c 34.06208
_cell_angle_alpha 95.46140
_cell_angle_beta  95.46191
_cell_angle_gamma 126.41084

_symmetry_space_group_name_	'P 1'
_symmetry_space_group_name_H-M	'P 1'

loop_
_symmetry_equiv_pos_as_xyz
  x,y,z

loop_
_atom_site_label
_atom_site_type_symbol
_atom_site_fract_x
_atom_site_fract_y
_atom_site_fract_z
_atom_site_charge
C 	C 	0.86444 0.96171 0.96545 0.02700
C 	C 	0.95616 0.01501 0.96198 -0.07000
C 	C 	0.00242 0.97786 0.95981 0.02900
C 	C 	0.95686 0.88689 0.96072 -0.08000
C 	C 	0.86472 0.83245 0.96347 0.03800
C 	C 	0.81802 0.86975 0.96566 -0.08100
H 	H 	0.99204 0.08582 0.96186 0.05200
H 	H 	0.99311 0.85846 0.95932 0.05400
H 	H 	0.74701 0.82818 0.96832 0.05100
C 	C 	0.97925 0.06251 0.50126 0.05000
C 	C 	0.07341 0.11491 0.50228 -0.09300
C 	C 	0.11714 0.07476 0.50266 0.05100
C 	C 	0.06706 0.98291 0.50226 -0.09500
C 	C 	0.97360 0.93091 0.50172 0.04800
C 	C 	0.92990 0.97090 0.50202 -0.09500
H 	H 	0.11187 0.18583 0.50180 0.05400
H 	H 	0.10081 0.95182 0.50219 0.05600
H 	H 	0.85722 0.93033 0.50130 0.05600
Cu	Cu	0.71959 0.30730 0.95884 0.92600
Cu	Cu	0.70882 0.25545 0.04863 0.86900
Cu	Cu	0.56372 0.25346 0.00265 0.89600
Cu	Cu	0.54385 0.28181 0.91723 0.89400
C 	C 	0.68389 0.29480 0.87415 0.28800
O 	O 	0.76990 0.43566 0.95450 -0.36800
C 	C 	0.61748 0.30692 0.09105 0.28400
O 	O 	0.57659 0.22635 0.94950 -0.63800
O 	O 	0.69887 0.32474 0.01344 -0.64600
O 	O 	0.78346 0.25305 0.96957 -0.37400
O 	O 	0.68622 0.16330 0.00889 -0.44500
O 	O 	0.60285 0.27665 0.87186 -0.38500
O 	O 	0.43312 0.17714 0.98883 -0.38600
C 	C 	0.38579 0.18454 0.96039 0.30300
C 	C 	0.72057 0.46404 0.95780 0.29300
O 	O 	0.63445 0.40756 0.95971 -0.39400
O 	O 	0.42318 0.23278 0.93251 -0.39500
O 	O 	0.71694 0.27520 0.90355 -0.36800
C 	C 	0.74463 0.18032 0.98543 0.29900
O 	O 	0.55032 0.26103 0.05944 -0.39100
O 	O 	0.69400 0.31710 0.09099 -0.41600
H 	H 	0.54363 0.16158 0.93940 0.16600
H 	H 	0.73024 0.38804 0.02602 0.17000
Cu	Cu	0.65122 0.23194 0.51108 0.92700
Cu	Cu	0.68659 0.21933 0.41873 0.87000
Cu	Cu	0.69693 0.37234 0.45937 0.89800
Cu	Cu	0.67750 0.40858 0.54443 0.89300
C 	C 	0.71331 0.30929 0.59550 0.28500
O 	O 	0.52537 0.18868 0.51942 -0.36500
C 	C 	0.63236 0.30197 0.37168 0.28500
O 	O 	0.73237 0.37136 0.51388 -0.64000
O 	O 	0.62393 0.23966 0.45475 -0.64100
O 	O 	0.69882 0.16235 0.50121 -0.37700
O 	O 	0.78400 0.24603 0.45730 -0.44300
O 	O 	0.67630 0.35057 0.59070 -0.39000
O 	O 	0.77462 0.50146 0.46748 -0.38600
C 	C 	0.78127 0.55441 0.49830 0.29900
C 	C 	0.49360 0.23228 0.50971 0.29400
O 	O 	0.54892 0.31428 0.50361 -0.39500
O 	O 	0.72625 0.52196 0.52440 -0.39600
O 	O 	0.69656 0.24663 0.56660 -0.36300
C 	C 	0.76894 0.19377 0.48326 0.29800
O 	O 	0.68103 0.37290 0.40116 -0.38800
O 	O 	0.61879 0.22641 0.37572 -0.41700
H 	H 	0.79881 0.40585 0.52292 0.16000
H 	H 	0.55861 0.20727 0.44365 0.17100
C 	C 	0.73897 0.35902 0.77078 0.00300
C 	C 	0.77920 0.40728 0.74072 -0.05800
C 	C 	0.78156 0.36200 0.70631 0.01600
C 	C 	0.75170 0.27339 0.70425 -0.00400
C 	C 	0.71271 0.22583 0.73485 -0.05300
C 	C 	0.70982 0.27125 0.76894 0.01300
S 	S 	0.75546 0.40296 0.81831 0.00700
C 	C 	0.72484 0.31309 0.83825 -0.06900
C 	C 	0.70027 0.24447 0.80679 -0.01900
S 	S 	0.72449 0.22690 0.65604 0.02700
C 	C 	0.75363 0.31648 0.63633 -0.07800
C 	C 	0.78299 0.38637 0.66811 -0.02400
H 	H 	0.80328 0.47594 0.74298 0.04200
H 	H 	0.68703 0.15667 0.73246 0.04400
H 	H 	0.67408 0.17745 0.81085 0.03900
H 	H 	0.79131 0.44670 0.66364 0.03300
C 	C 	0.56335 0.26847 0.25648 -0.00100
C 	C 	0.51342 0.24142 0.21755 -0.05800
C 	C 	0.55263 0.30033 0.19056 0.01200
C 	C 	0.63587 0.38646 0.20381 0.00100
C 	C 	0.68435 0.41374 0.24322 -0.05900
C 	C 	0.64496 0.35437 0.26982 0.01300
S 	S 	0.52232 0.22527 0.29629 0.00800
C 	C 	0.60665 0.31237 0.33177 -0.07400
C 	C 	0.67033 0.37927 0.31221 -0.02500
S 	S 	0.68382 0.42113 0.16412 0.00600
C 	C 	0.60064 0.33339 0.12891 -0.07600
C 	C 	0.53251 0.27081 0.14833 -0.02300
H 	H 	0.44921 0.17518 0.20790 0.04200
H 	H 	0.74979 0.47892 0.25282 0.04200
H 	H 	0.73394 0.44138 0.32783 0.04000
H 	H 	0.47939 0.20183 0.13385 0.03800
C 	C 	0.82807 0.68070 0.46348 -0.02500
C 	C 	0.83673 0.65110 0.49860 -0.10800
C 	C 	0.89141 0.71401 0.53463 0.11900
C 	C 	0.93032 0.80447 0.53556 -0.08700
C 	C 	0.92156 0.83408 0.50052 -0.02100
C 	C 	0.87106 0.77189 0.46391 0.06600
N 	N 	0.86397 0.79921 0.42914 -0.19400
H 	H 	0.78651 0.63243 0.43584 0.04700
H 	H 	0.97089 0.85269 0.56330 0.05100
N 	N 	0.90954 0.68852 0.56787 -0.20200
H 	H 	0.82589 0.75253 0.40238 0.08000
H 	H 	0.89667 0.86669 0.42810 0.08200
H 	H 	0.89150 0.62433 0.56674 0.07300
H 	H 	0.94657 0.73465 0.59484 0.07900
C 	C 	0.82983 0.11853 0.45453 -0.02400
C 	C 	0.82443 0.16218 0.48848 -0.11700
C 	C 	0.87497 0.17825 0.52651 0.12700
C 	C 	0.92618 0.14598 0.53001 -0.09000
C 	C 	0.93084 0.10169 0.49606 -0.01900
C 	C 	0.88375 0.08942 0.45779 0.06200
N 	N 	0.89048 0.05034 0.42410 -0.19300
H 	H 	0.79230 0.10768 0.42534 0.02000
H 	H 	0.96293 0.15583 0.55922 0.05300
N 	N 	0.87666 0.22641 0.55944 -0.20300
H 	H 	0.85360 0.03952 0.39613 0.07600
H 	H 	0.93389 0.03242 0.42510 0.08200
H 	H 	0.84749 0.25931 0.55719 0.09600
H 	H 	0.91107 0.23468 0.58764 0.08600
C 	C 	0.27449 0.16524 0.54094 -0.08800
C 	C 	0.21571 0.12842 0.50358 -0.02100
C 	C 	0.24923 0.12777 0.46806 0.06600
C 	C 	0.33958 0.15871 0.47085 -0.02500
C 	C 	0.39722 0.19184 0.50833 -0.11200
C 	C 	0.36483 0.19617 0.54378 0.12200
N 	N 	0.41970 0.22916 0.58056 -0.20600
H 	H 	0.24859 0.16592 0.56808 0.05200
H 	H 	0.36548 0.15813 0.44369 0.03300
N 	N 	0.19511 0.09782 0.43129 -0.19300
H 	H 	0.39538 0.23302 0.60648 0.08400
H 	H 	0.48640 0.25028 0.58393 0.09400
H 	H 	0.12939 0.07940 0.42815 0.08300
H 	H 	0.21951 0.09510 0.40523 0.08000
C 	C 	0.77037 0.67475 0.92728 -0.08900
C 	C 	0.81755 0.73603 0.96374 -0.01700
C 	C 	0.83383 0.70771 0.99831 0.06500
C 	C 	0.80662 0.61987 0.99517 -0.02000
C 	C 	0.76103 0.55915 0.95850 -0.11100
C 	C 	0.74272 0.58680 0.92416 0.12000
N 	N 	0.70009 0.52987 0.88800 -0.20400
H 	H 	0.75847 0.69664 0.90079 0.05100
H 	H 	0.81865 0.59800 0.02165 0.02800
N 	N 	0.87447 0.76409 0.03462 -0.19500
H 	H 	0.68583 0.55041 0.86293 0.08100
H 	H 	0.68229 0.46551 0.88418 0.07900
H 	H 	0.88971 0.82745 0.03851 0.08100
H 	H 	0.88871 0.74372 0.05976 0.07800
C 	C 	0.77870 0.01398 0.93764 -0.08800
C 	C 	0.81933 0.00427 0.97145 -0.00600
C 	C 	0.83201 0.04990 0.00998 0.05600
C 	C 	0.80935 0.10885 0.01361 -0.02800
C 	C 	0.77172 0.12111 0.97969 -0.11100
C 	C 	0.75350 0.07106 0.94139 0.12600
N 	N 	0.71086 0.07628 0.90832 -0.20300
H 	H 	0.76854 0.97863 0.90817 0.04900
H 	H 	0.82066 0.14504 0.04306 0.02100
N 	N 	0.86616 0.03763 0.04354 -0.19000
H 	H 	0.70013 0.04108 0.88006 0.08600
H 	H 	0.68544 0.11277 0.91038 0.09700
H 	H 	0.87895 0.99069 0.04213 0.07800
H 	H 	0.87791 0.07355 0.07177 0.07500
C 	C 	0.22599 0.07995 0.92433 -0.02500
C 	C 	0.28822 0.13792 0.95964 -0.11100
C 	C 	0.25625 0.14864 0.99414 0.12900
C 	C 	0.16244 0.09502 0.99364 -0.08700
C 	C 	0.10024 0.03549 0.95861 -0.01200
C 	C 	0.13209 0.02985 0.92321 0.06600
N 	N 	0.07312 0.97739 0.88806 -0.19500
H 	H 	0.25071 0.07344 0.89767 0.03800
H 	H 	0.13763 0.10051 0.02045 0.04900
N 	N 	0.31487 0.21212 0.02720 -0.20400
H 	H 	0.09729 0.97182 0.86237 0.07900
H 	H 	0.00324 0.94389 0.88549 0.08500
H 	H 	0.38349 0.26089 0.02674 0.09200
H 	H 	0.29097 0.21634 0.05321 0.08400
