data_crystal

_cell_length_a 23.97561
_cell_length_b 22.89569
_cell_length_c 62.61868
_cell_angle_alpha 89.69090
_cell_angle_beta  89.70799
_cell_angle_gamma 119.79142

_symmetry_space_group_name_	'P 1'
_symmetry_space_group_name_H-M	'P 1'

loop_
_symmetry_equiv_pos_as_xyz
  x,y,z

loop_
_atom_site_label
_atom_site_type_symbol
_atom_site_fract_x
_atom_site_fract_y
_atom_site_fract_z
_atom_site_charge
C 	C 	0.67423 0.45198 0.95642 0.28300
C 	C 	0.60557 0.17245 0.93938 0.30100
C 	C 	0.73891 0.35183 0.97993 0.30000
C 	C 	0.54241 0.27644 0.91162 0.28700
C 	C 	0.79769 0.31024 0.91642 0.31000
C 	C 	0.74654 0.42623 0.89126 0.29000
Ni	Ni	0.61860 0.30218 0.95359 1.11300
Ni	Ni	0.66871 0.28317 0.90751 1.12100
Ni	Ni	0.76327 0.40563 0.93669 1.12000
O 	O 	0.62056 0.39348 0.95410 -0.37300
O 	O 	0.73231 0.45706 0.95593 -0.37900
O 	O 	0.73691 0.26437 0.91786 -0.39400
O 	O 	0.62572 0.21571 0.95502 -0.37500
O 	O 	0.60257 0.19211 0.91989 -0.37900
O 	O 	0.76291 0.45532 0.91027 -0.38700
O 	O 	0.67909 0.33920 0.98015 -0.36800
O 	O 	0.76626 0.35193 0.96184 -0.38600
O 	O 	0.73059 0.36201 0.88855 -0.38500
O 	O 	0.54131 0.25774 0.93195 -0.36700
O 	O 	0.59237 0.29212 0.89878 -0.38000
O 	O 	0.67711 0.33967 0.93073 -0.71700
H 	H 	0.66220 0.36842 0.92402 0.16100
C 	C 	0.77325 0.45073 0.57039 0.28900
C 	C 	0.50328 0.27694 0.54724 0.30600
C 	C 	0.66131 0.28893 0.59150 0.31400
C 	C 	0.62415 0.44738 0.52251 0.28300
C 	C 	0.60910 0.18810 0.53051 0.29600
C 	C 	0.74877 0.36082 0.50478 0.28200
Ni	Ni	0.63001 0.37818 0.56437 1.11200
Ni	Ni	0.61189 0.31297 0.51711 1.12200
Ni	Ni	0.71499 0.31133 0.54902 1.11900
O 	O 	0.72278 0.45809 0.56634 -0.37900
O 	O 	0.57495 0.21493 0.52381 -0.38400
O 	O 	0.54139 0.29130 0.56364 -0.37700
O 	O 	0.52695 0.30211 0.52823 -0.37400
O 	O 	0.77185 0.35737 0.52368 -0.38200
O 	O 	0.65313 0.34153 0.59182 -0.37200
O 	O 	0.65627 0.25889 0.57344 -0.39400
O 	O 	0.68741 0.31992 0.49984 -0.37700
O 	O 	0.60050 0.42704 0.54223 -0.37000
O 	O 	0.63545 0.40839 0.50962 -0.38200
O 	O 	0.67203 0.22497 0.53219 -0.38200
O 	O 	0.66263 0.34888 0.54204 -0.71600
H 	H 	0.69601 0.39237 0.53615 0.15600
C 	C 	0.16972 0.09819 0.75936 0.28500
C 	C 	0.14980 0.11484 0.69722 0.30900
Ni	Ni	0.08933 0.99646 0.72660 1.10300
Ni	Ni	0.08395 0.13412 0.73451 1.12200
O 	O 	0.14754 0.03504 0.75322 -0.36200
O 	O 	0.16741 0.14315 0.74635 -0.37100
O 	O 	0.16226 0.07745 0.71008 -0.36900
O 	O 	0.11486 0.14097 0.70383 -0.37600
O 	O 	0.04417 0.03850 0.73630 -0.70000
H 	H 	0.04731 0.03329 0.75179 0.15900
C 	C 	0.26664 0.53789 0.40725 0.28900
C 	C 	0.34140 0.74934 0.47428 0.30300
C 	C 	0.16752 0.60470 0.43457 0.30200
C 	C 	0.43659 0.68254 0.45138 0.28400
C 	C 	0.29439 0.80370 0.41113 0.31200
C 	C 	0.40754 0.75037 0.38555 0.29000
Ni	Ni	0.29288 0.62112 0.44876 1.11300
Ni	Ni	0.38914 0.77207 0.43065 1.12000
Ni	Ni	0.27195 0.66935 0.40229 1.12100
O 	O 	0.25091 0.53822 0.42777 -0.36500
O 	O 	0.28256 0.59017 0.39431 -0.38100
O 	O 	0.35587 0.82415 0.41380 -0.38600
O 	O 	0.32836 0.68633 0.47496 -0.36800
O 	O 	0.33937 0.77623 0.45608 -0.38800
O 	O 	0.34625 0.73375 0.38290 -0.38300
O 	O 	0.20836 0.62519 0.45038 -0.37200
O 	O 	0.18623 0.59953 0.41527 -0.37900
O 	O 	0.43646 0.77157 0.40423 -0.38600
O 	O 	0.38126 0.62558 0.44916 -0.37300
O 	O 	0.44086 0.74299 0.44983 -0.38000
O 	O 	0.25167 0.73959 0.41216 -0.39500
O 	O 	0.32689 0.68104 0.42549 -0.71800
H 	H 	0.35481 0.66580 0.41892 0.16000
C 	C 	0.40014 0.59398 0.02313 0.28200
C 	C 	0.24497 0.61564 0.09438 0.31100
C 	C 	0.23057 0.46779 0.04392 0.30700
C 	C 	0.40931 0.73458 0.07792 0.28800
C 	C 	0.16282 0.59889 0.03303 0.31200
C 	C 	0.33550 0.74164 0.01189 0.28400
Ni	Ni	0.33175 0.58939 0.06557 1.11200
Ni	Ni	0.28167 0.69403 0.05490 1.12000
Ni	Ni	0.27683 0.59339 0.01856 1.12200
O 	O 	0.37692 0.56197 0.04176 -0.36800
O 	O 	0.36639 0.61279 0.01098 -0.38100
O 	O 	0.20260 0.66303 0.03676 -0.38500
O 	O 	0.29571 0.60774 0.09385 -0.37400
O 	O 	0.22257 0.62587 0.07668 -0.39300
O 	O 	0.29214 0.68111 0.00489 -0.37800
O 	O 	0.24514 0.50147 0.06178 -0.37900
O 	O 	0.25793 0.49824 0.02584 -0.37500
O 	O 	0.33339 0.76052 0.03177 -0.38200
O 	O 	0.41239 0.68165 0.07097 -0.38000
O 	O 	0.35512 0.73808 0.07690 -0.37600
O 	O 	0.18394 0.56074 0.02483 -0.38800
O 	O 	0.31106 0.63570 0.04520 -0.71700
H 	H 	0.35444 0.66976 0.04040 0.15600
C 	C 	0.07303 0.11661 0.19224 0.31400
C 	C 	0.06942 0.15292 0.25411 0.28500
C 	C 	0.05622 0.92530 0.20810 0.33500
C 	C 	0.05308 0.96158 0.26794 0.26800
Ni	Ni	0.09223 0.05290 0.23074 1.12500
O 	O 	0.09772 0.97183 0.22098 -0.39700
O 	O 	0.04237 0.13641 0.20508 -0.36800
O 	O 	0.09632 0.07916 0.19950 -0.37700
O 	O 	0.01287 0.91330 0.25481 -0.37000
O 	O 	0.09406 0.02314 0.26076 -0.36500
O 	O 	0.00919 0.13348 0.24873 -0.35900
O 	O 	0.10844 0.14502 0.24075 -0.37100
O 	O 	0.99560 0.91002 0.20805 -0.41800
C 	C 	0.19445 0.39428 0.04511 -0.08800
C 	C 	0.22823 0.35959 0.04837 0.02000
C 	C 	0.20056 0.30052 0.06068 -0.06800
C 	C 	0.13896 0.27597 0.06948 0.04200
C 	C 	0.10103 0.30310 0.06255 -0.06700
C 	C 	0.12877 0.36222 0.05026 0.02300
C 	C 	0.12279 0.23850 0.08921 -0.01500
C 	C 	0.10936 0.20710 0.10574 -0.02000
C 	C 	0.09556 0.17419 0.12627 0.05100
C 	C 	0.04002 0.16191 0.13750 -0.08200
C 	C 	0.03243 0.14265 0.15901 0.05800
C 	C 	0.08041 0.13547 0.16945 -0.09800
C 	C 	0.13475 0.14500 0.15792 0.03100
C 	C 	0.14231 0.16443 0.13642 -0.07400
H 	H 	0.27830 0.38245 0.04360 0.03400
H 	H 	0.22939 0.27811 0.06521 0.05100
H 	H 	0.05223 0.28259 0.06847 0.05400
H 	H 	0.10118 0.38684 0.04682 0.03200
H 	H 	0.00367 0.16935 0.12976 0.06000
H 	H 	0.17182 0.13897 0.16573 0.03500
H 	H 	0.18552 0.17410 0.12786 0.05400
C 	C 	0.45981 0.77946 0.09259 -0.08300
C 	C 	0.51744 0.83288 0.08443 0.01500
C 	C 	0.57262 0.86247 0.09714 -0.06900
C 	C 	0.57011 0.83900 0.11806 0.03800
C 	C 	0.51156 0.78914 0.12664 -0.06900
C 	C 	0.45698 0.75878 0.11389 0.01600
C 	C 	0.62826 0.85998 0.12993 -0.02300
C 	C 	0.67480 0.87500 0.14079 -0.02400
C 	C 	0.72826 0.88994 0.15451 0.03800
C 	C 	0.71717 0.85856 0.17458 -0.07100
C 	C 	0.79115 0.93569 0.14791 -0.07200
H 	H 	0.52048 0.84875 0.06793 0.02600
H 	H 	0.61768 0.90145 0.09042 0.04500
H 	H 	0.50925 0.77080 0.14280 0.04800
H 	H 	0.41427 0.71503 0.11996 0.03200
H 	H 	0.66866 0.82263 0.17970 0.04800
H 	H 	0.80016 0.95954 0.13231 0.04300
C 	C 	0.07592 0.88315 0.19604 -0.10800
C 	C 	0.03116 0.81545 0.19182 0.05800
C 	C 	0.05095 0.77433 0.18173 -0.08500
C 	C 	0.11546 0.80047 0.17576 0.05000
C 	C 	0.16003 0.86813 0.17967 -0.07800
C 	C 	0.14040 0.90936 0.18974 0.03200
C 	C 	0.13572 0.75842 0.16510 -0.02300
C 	C 	0.15374 0.72415 0.15615 -0.01800
C 	C 	0.17650 0.68531 0.14483 0.04000
C 	C 	0.24267 0.71028 0.14251 -0.07100
C 	C 	0.26558 0.68203 0.12753 0.02000
C 	C 	0.22242 0.62851 0.11476 -0.09500
C 	C 	0.15609 0.59939 0.11864 0.02200
C 	C 	0.13320 0.62793 0.13357 -0.06900
H 	H 	0.98137 0.79433 0.19670 0.00800
H 	H 	0.01615 0.72216 0.17864 0.05900
H 	H 	0.20989 0.88882 0.17491 0.05000
H 	H 	0.17532 0.96158 0.19270 0.02800
H 	H 	0.27650 0.75423 0.15133 0.04900
H 	H 	0.31660 0.70568 0.12451 0.03400
H 	H 	0.12222 0.55764 0.10905 0.03500
H 	H 	0.08188 0.60763 0.13551 0.05300
C 	C 	0.76203 0.90343 0.30521 -0.07000
C 	C 	0.70388 0.89365 0.29690 0.03700
C 	C 	0.70128 0.91234 0.27576 -0.07000
C 	C 	0.64655 0.86242 0.30989 -0.02300
C 	C 	0.59929 0.83616 0.32113 -0.02300
C 	C 	0.54417 0.80507 0.33513 0.03900
C 	C 	0.49675 0.82376 0.33400 -0.07000
C 	C 	0.44855 0.80148 0.34968 0.01900
C 	C 	0.44793 0.76082 0.36665 -0.08500
C 	C 	0.49311 0.73885 0.36698 0.01800
C 	C 	0.54103 0.76089 0.35126 -0.07000
H 	H 	0.76446 0.88963 0.32162 0.04500
H 	H 	0.65652 0.90525 0.26928 0.04700
H 	H 	0.49857 0.85746 0.32145 0.04800
H 	H 	0.41384 0.81869 0.34925 0.03400
H 	H 	0.49262 0.70691 0.37989 0.02900
H 	H 	0.57715 0.74565 0.35209 0.04800
C 	C 	0.25085 0.47353 0.39733 -0.08200
C 	C 	0.29525 0.47098 0.38320 0.01800
C 	C 	0.27447 0.42014 0.36795 -0.06700
C 	C 	0.20927 0.37144 0.36677 0.04100
C 	C 	0.16616 0.36971 0.38232 -0.06700
C 	C 	0.18697 0.42045 0.39765 0.01900
C 	C 	0.18536 0.33029 0.34800 -0.01800
C 	C 	0.16593 0.29612 0.33222 -0.01800
C 	C 	0.14275 0.25718 0.31298 0.04000
C 	C 	0.07823 0.20671 0.31156 -0.06600
C 	C 	0.05433 0.17274 0.29233 0.01600
C 	C 	0.09483 0.18914 0.27434 -0.08100
C 	C 	0.15979 0.23896 0.27592 0.01700
C 	C 	0.18357 0.27292 0.29518 -0.06700
H 	H 	0.34492 0.51106 0.38304 0.03100
H 	H 	0.30838 0.42104 0.35626 0.05000
H 	H 	0.11585 0.33145 0.38177 0.05300
H 	H 	0.15235 0.42141 0.40862 0.03700
H 	H 	0.04640 0.19424 0.32526 0.05400
H 	H 	0.19163 0.25206 0.26221 0.03800
H 	H 	0.23348 0.31207 0.29614 0.05000
C 	C 	0.06371 0.94283 0.28940 -0.07200
C 	C 	0.06589 0.88323 0.29253 0.01500
C 	C 	0.09109 0.87325 0.31140 -0.06800
C 	C 	0.11401 0.92260 0.32725 0.04400
C 	C 	0.10723 0.97959 0.32487 -0.08300
C 	C 	0.08192 0.98959 0.30604 -0.00100
C 	C 	0.15023 0.91797 0.34476 -0.02400
C 	C 	0.18031 0.91228 0.35919 -0.02000
C 	C 	0.21647 0.90295 0.37579 0.04000
C 	C 	0.18512 0.86780 0.39447 -0.07100
C 	C 	0.21438 0.84186 0.40777 0.02200
C 	C 	0.27488 0.85037 0.40230 -0.09400
C 	C 	0.30923 0.89244 0.38500 0.02000
C 	C 	0.27992 0.91843 0.37172 -0.07200
H 	H 	0.05151 0.84646 0.27991 0.04100
H 	H 	0.09537 0.82856 0.31328 0.05100
H 	H 	0.12390 0.01743 0.33722 0.06700
H 	H 	0.07925 0.03517 0.30397 0.04900
H 	H 	0.13654 0.85689 0.39797 0.05100
H 	H 	0.18810 0.81100 0.42144 0.03500
H 	H 	0.35644 0.90044 0.38081 0.03500
H 	H 	0.30499 0.94680 0.35752 0.04800
C 	C 	0.37584 0.79445 0.49210 -0.08200
C 	C 	0.34904 0.82916 0.50230 0.01500
C 	C 	0.38788 0.88746 0.51391 -0.06900
C 	C 	0.45491 0.91250 0.51527 0.03800
C 	C 	0.48148 0.87643 0.50521 -0.01500
C 	C 	0.44103 0.81535 0.49504 -0.01200
C 	C 	0.54851 0.90533 0.50332 -0.01700
C 	C 	0.58901 0.97211 0.50917 -0.09200
C 	C 	0.56352 0.00908 0.51871 0.08400
C 	C 	0.49718 0.97710 0.52386 -0.07300
C 	C 	0.47505 0.01089 0.53718 0.02500
C 	C 	0.51488 0.07921 0.54142 -0.02700
C 	C 	0.57716 0.11428 0.53266 -0.04400
C 	C 	0.60301 0.07825 0.52263 -0.04900
H 	H 	0.29874 0.81345 0.50009 0.03300
H 	H 	0.36640 0.91565 0.52018 0.04600
H 	H 	0.46160 0.78799 0.48749 0.04400
H 	H 	0.56906 0.87747 0.49596 0.03200
H 	H 	0.64022 0.99522 0.50613 0.04500
H 	H 	0.42814 0.98439 0.54472 0.01200
H 	H 	0.49650 0.10563 0.55081 0.05000
H 	H 	0.65233 0.10446 0.51686 0.05700
C 	C 	0.09861 0.57488 0.43928 -0.07000
C 	C 	0.07536 0.61335 0.44914 -0.00800
C 	C 	0.01105 0.58341 0.45563 0.00300
C 	C 	0.99213 0.47599 0.44175 -0.00700
C 	C 	0.05634 0.50710 0.43466 0.00500
H 	H 	0.10697 0.66676 0.45154 0.04400
H 	H 	0.99283 0.61550 0.46103 0.01500
H 	H 	0.07395 0.47805 0.42625 0.04300
C 	C 	0.48846 0.67826 0.46217 -0.06700
C 	C 	0.53289 0.66878 0.45030 0.00200
C 	C 	0.57208 0.64814 0.46049 -0.05100
C 	C 	0.56394 0.63251 0.48259 0.00500
C 	C 	0.52575 0.65148 0.49481 0.01000
C 	C 	0.48740 0.67312 0.48448 -0.01900
C 	C 	0.52384 0.64546 0.51710 -0.04100
C 	C 	0.55404 0.61454 0.52725 -0.04000
C 	C 	0.58379 0.58600 0.51522 0.00900
C 	C 	0.59030 0.59573 0.49271 0.00500
C 	C 	0.61635 0.56243 0.48082 -0.05100
C 	C 	0.63309 0.51899 0.49097 0.00100
C 	C 	0.62208 0.50566 0.51297 -0.06600
C 	C 	0.60177 0.54285 0.52522 -0.01900
H 	H 	0.53626 0.67615 0.43314 0.03000
H 	H 	0.60974 0.64689 0.45133 0.04000
H 	H 	0.45349 0.68137 0.49367 0.04300
H 	H 	0.49744 0.66329 0.52658 0.04000
H 	H 	0.55091 0.60914 0.54449 0.03800
H 	H 	0.62019 0.56641 0.46365 0.04200
H 	H 	0.65153 0.49288 0.48143 0.04100
H 	H 	0.59604 0.53512 0.54238 0.04300
C 	C 	0.69791 0.27971 0.60868 -0.10100
C 	C 	0.75500 0.27965 0.60360 0.03100
C 	C 	0.78682 0.26389 0.61915 -0.07600
C 	C 	0.76141 0.24654 0.63984 0.04400
C 	C 	0.70552 0.24861 0.64527 -0.07300
C 	C 	0.67399 0.26568 0.62971 0.02600
H 	H 	0.77369 0.28982 0.58741 0.00800
H 	H 	0.68568 0.23547 0.66130 0.05200
H 	H 	0.63006 0.26572 0.63382 0.03100
C 	C 	0.17426 0.12670 0.67508 -0.08600
C 	C 	0.17845 0.07584 0.66398 0.02500
C 	C 	0.20272 0.08744 0.64310 -0.06800
C 	C 	0.22306 0.14989 0.63317 0.04400
C 	C 	0.21701 0.19995 0.64396 -0.06900
C 	C 	0.19256 0.18841 0.66482 0.02400
C 	C 	0.25720 0.16538 0.61311 -0.01800
C 	C 	0.28580 0.17842 0.59630 -0.01700
C 	C 	0.32407 0.19555 0.57709 0.04300
C 	C 	0.35268 0.26146 0.56899 -0.06900
C 	C 	0.40743 0.28620 0.55595 0.02100
C 	C 	0.43405 0.24528 0.55122 -0.08800
C 	C 	0.39955 0.17664 0.55658 0.02300
C 	C 	0.34471 0.15184 0.56957 -0.06800
H 	H 	0.16304 0.02744 0.67153 0.03600
H 	H 	0.20714 0.04843 0.63484 0.05500
H 	H 	0.23281 0.24843 0.63639 0.05200
H 	H 	0.18915 0.22788 0.67316 0.03600
H 	H 	0.33589 0.29516 0.57423 0.05100
H 	H 	0.43273 0.33892 0.55136 0.03300
H 	H 	0.41839 0.14396 0.55234 0.03100
H 	H 	0.32166 0.10016 0.57523 0.05400
C 	C 	0.09298 0.57101 0.03525 -0.09400
C 	C 	0.06350 0.60457 0.02606 0.04600
C 	C 	0.99729 0.57015 0.02229 -0.09300
C 	C 	0.95947 0.50099 0.02769 0.02900
C 	C 	0.98948 0.46813 0.03768 -0.03300
C 	C 	0.05502 0.50467 0.04263 0.02700
H 	H 	0.09244 0.65605 0.02047 0.03300
H 	H 	0.97709 0.59608 0.01362 0.04700
H 	H 	0.07777 0.47961 0.05043 0.03800
H 	H 	0.97799 0.37273 0.04839 0.02700
C 	C 	0.38114 0.79200 0.99672 -0.07400
C 	C 	0.36048 0.80112 0.97672 0.00900
C 	C 	0.40138 0.85616 0.96382 -0.06000
C 	C 	0.46244 0.90474 0.97140 0.02200
C 	C 	0.48603 0.89001 0.99016 -0.01000
C 	C 	0.44490 0.83424 0.00286 -0.00900
C 	C 	0.54988 0.93191 0.99627 -0.01200
C 	C 	0.58918 0.99093 0.98490 -0.10600
C 	C 	0.56424 0.01109 0.96799 0.06900
C 	C 	0.50037 0.96817 0.96100 -0.02800
C 	C 	0.47414 0.99268 0.94550 -0.06400
C 	C 	0.51076 0.05774 0.93717 0.02200
C 	C 	0.57312 0.10026 0.94451 -0.06900
C 	C 	0.60063 0.07597 0.95922 -0.03400
H 	H 	0.31240 0.76624 0.97130 0.03900
H 	H 	0.38638 0.85914 0.94781 0.04400
H 	H 	0.46187 0.82477 0.01781 0.03600
H 	H 	0.56894 0.91919 0.01009 0.02800
H 	H 	0.63833 0.02296 0.98998 0.06700
H 	H 	0.42434 0.96387 0.94096 0.04100
H 	H 	0.48901 0.07657 0.92595 0.03900
H 	H 	0.64913 0.10901 0.96477 0.05100
C 	C 	0.66800 0.50646 0.96616 -0.06700
C 	C 	0.64895 0.54415 0.95359 0.00200
C 	C 	0.61855 0.57626 0.96304 -0.05100
C 	C 	0.60341 0.56721 0.98509 0.00500
C 	C 	0.63270 0.53946 0.99806 0.00900
C 	C 	0.66465 0.50886 0.98849 -0.01800
C 	C 	0.62618 0.53868 0.02032 -0.04100
C 	C 	0.58599 0.55926 0.02971 -0.04100
C 	C 	0.54895 0.57737 0.01694 0.00900
C 	C 	0.55738 0.58179 0.99440 0.00500
C 	C 	0.51482 0.59283 0.98174 -0.05100
C 	C 	0.46585 0.59995 0.99126 0.00300
C 	C 	0.45694 0.59456 0.01351 -0.06500
C 	C 	0.50008 0.58586 0.02634 -0.01900
H 	H 	0.65499 0.54596 0.93639 0.03000
H 	H 	0.60823 0.60880 0.95331 0.04100
H 	H 	0.68109 0.48128 0.99827 0.04200
H 	H 	0.65111 0.52052 0.03039 0.03900
H 	H 	0.58087 0.55743 0.04694 0.03900
H 	H 	0.51654 0.59169 0.96452 0.04300
H 	H 	0.43295 0.60675 0.98115 0.04100
H 	H 	0.49409 0.58293 0.04357 0.04200
C 	C 	0.86289 0.20338 0.89497 -0.06900
C 	C 	0.83545 0.22877 0.90930 0.02000
H 	H 	0.05230 0.12424 0.80697 0.02200
H 	H 	0.85434 0.15257 0.89712 0.05000
H 	H 	0.80580 0.19729 0.92238 0.03600
C 	C 	0.48206 0.26358 0.90166 -0.08200
C 	C 	0.42907 0.19804 0.90179 0.01900
C 	C 	0.38039 0.17970 0.88670 -0.06800
C 	C 	0.38422 0.22693 0.87156 0.04100
C 	C 	0.43338 0.29408 0.87295 -0.06800
C 	C 	0.48218 0.31239 0.88796 0.01800
C 	C 	0.34466 0.20451 0.85280 -0.01800
C 	C 	0.31149 0.18562 0.83711 -0.01800
C 	C 	0.27384 0.16223 0.81796 0.04000
C 	C 	0.24090 0.19419 0.81028 -0.06600
C 	C 	0.20740 0.17377 0.79103 0.01500
C 	C 	0.20674 0.12125 0.77930 -0.07900
C 	C 	0.23957 0.08914 0.78714 0.01900
C 	C 	0.27292 0.10959 0.80637 -0.06600
H 	H 	0.42804 0.16005 0.91244 0.03700
H 	H 	0.34190 0.12788 0.88597 0.05300
H 	H 	0.43602 0.33123 0.86157 0.05000
H 	H 	0.52230 0.36344 0.88797 0.03000
H 	H 	0.24146 0.23499 0.81915 0.05000
H 	H 	0.18149 0.19829 0.78535 0.03400
H 	H 	0.23971 0.04874 0.77825 0.04200
H 	H 	0.29856 0.08489 0.81217 0.05300
C 	C 	0.76226 0.46996 0.87235 -0.08500
C 	C 	0.74892 0.52308 0.87238 0.01700
C 	C 	0.77478 0.57269 0.85646 -0.07000
C 	C 	0.81410 0.56950 0.84043 0.03900
C 	C 	0.79827 0.46456 0.85550 0.01800
H 	H 	0.72045 0.52722 0.88516 0.03000
H 	H 	0.76611 0.61482 0.85702 0.04700
H 	H 	0.91236 0.80059 0.82424 0.04500
O 	O 	0.77096 0.39110 0.56890 -0.37700
H 	H 	0.98945 0.13368 0.16756 0.00800
C 	C 	0.75614 0.93867 0.26273 0.01300
H 	H 	0.00445 0.13348 0.29146 0.04000
C 	C 	0.85430 0.57132 0.57408 0.01600
C 	C 	0.88408 0.62591 0.58795 -0.06900
H 	H 	0.84823 0.58021 0.55746 0.02800
H 	H 	0.90150 0.67651 0.58187 0.04500
O 	O 	0.81610 0.37395 0.92007 -0.38400
C 	C 	0.76847 0.87439 0.18831 0.01600
C 	C 	0.83147 0.92197 0.18207 -0.08900
C 	C 	0.84265 0.95157 0.16160 0.01300
H 	H 	0.75893 0.85134 0.20404 0.03600
H 	H 	0.89103 0.98780 0.15646 0.02800
C 	C 	0.81398 0.94632 0.27080 -0.08300
C 	C 	0.81692 0.92969 0.29222 0.01200
H 	H 	0.86140 0.93597 0.29868 0.02700
H 	H 	0.75308 0.95087 0.24619 0.03300
C 	C 	0.79461 0.40238 0.48805 -0.07000
C 	C 	0.81032 0.37173 0.47162 -0.01400
H 	H 	0.82063 0.49551 0.50401 0.02900
H 	H 	0.78047 0.31804 0.46909 0.04400
C 	C 	0.78984 0.22096 0.65469 -0.02200
C 	C 	0.81701 0.20011 0.66587 -0.01900
H 	H 	0.83013 0.26271 0.61489 0.05000
H 	H 	0.88314 0.25094 0.70207 0.04800
C 	C 	0.90241 0.66853 0.62471 -0.02400
C 	C 	0.88684 0.61475 0.60984 0.03800
C 	C 	0.86588 0.54928 0.61742 -0.06900
C 	C 	0.83630 0.49464 0.60352 0.01600
C 	C 	0.82647 0.50521 0.58208 -0.08300
H 	H 	0.86907 0.54029 0.63426 0.04800
H 	H 	0.81596 0.44389 0.60985 0.03800
C 	C 	0.78012 0.38421 0.99840 -0.07300
H 	H 	0.79066 0.29877 0.00683 0.04100
C 	C 	0.84222 0.29265 0.90581 -0.09300
H 	H 	0.84967 0.13308 0.81083 0.05600
H 	H 	0.87654 0.09269 0.77807 0.03400
C 	C 	0.82423 0.51435 0.83960 -0.07100
C 	C 	0.84841 0.62554 0.82607 -0.02300
C 	C 	0.87659 0.67317 0.81424 -0.02300
C 	C 	0.92394 0.79460 0.80793 -0.07000
H 	H 	0.80884 0.42373 0.85528 0.03400
H 	H 	0.96054 0.89876 0.79985 0.02600
O 	O 	0.05001 0.13363 0.76390 -0.37400
C 	C 	0.86909 0.96503 0.25638 0.27100
C 	C 	0.88427 0.94632 0.19765 0.29000
C 	C 	0.83278 0.47161 0.49133 0.00500
C 	C 	0.85144 0.17446 0.67784 0.03900
C 	C 	0.88584 0.20813 0.69604 -0.06900
C 	C 	0.92459 0.18717 0.70636 0.01400
H 	H 	0.95039 0.21315 0.72056 0.03500
C 	C 	0.89563 0.75131 0.67186 -0.06600
C 	C 	0.92683 0.76651 0.65193 0.03100
C 	C 	0.91367 0.71332 0.63706 -0.02200
H 	H 	0.86125 0.69968 0.67612 0.04700
C 	C 	0.80211 0.45257 0.00217 -0.00400
C 	C 	0.80943 0.35235 0.00887 -0.01900
H 	H 	0.77767 0.47684 0.99518 0.04000
C 	C 	0.89363 0.13062 0.81009 -0.08900
C 	C 	0.90870 0.10733 0.79156 0.03800
C 	C 	0.92446 0.18457 0.84521 -0.03600
C 	C 	0.91314 0.21066 0.86001 -0.01500
C 	C 	0.89769 0.24187 0.87719 0.03600
C 	C 	0.88220 0.33349 0.88912 0.01800
C 	C 	0.90991 0.73115 0.80054 0.03700
C 	C 	0.95127 0.85017 0.79413 0.01200
H 	H 	0.85410 0.51127 0.82711 0.04700
O 	O 	0.87824 0.00643 0.23998 -0.36100
O 	O 	0.90010 0.93047 0.25786 -0.38800
O 	O 	0.93022 0.00919 0.19654 -0.37600
O 	O 	0.87842 0.90906 0.21458 -0.38100
C 	C 	0.86807 0.40858 0.46003 0.00500
C 	C 	0.88985 0.50922 0.47980 -0.05700
H 	H 	0.85660 0.32240 0.44241 0.03900
C 	C 	0.85572 0.11958 0.67002 -0.06800
H 	H 	0.82975 0.09378 0.65581 0.05100
C 	C 	0.90964 0.80263 0.68653 0.00900
C 	C 	0.97058 0.83350 0.64645 -0.06000
H 	H 	0.88679 0.78994 0.70215 0.03800
H 	H 	0.99430 0.84573 0.63097 0.03800
C 	C 	0.93636 0.15312 0.82726 0.06900
C 	C 	0.90964 0.30802 0.87481 -0.07000
H 	H 	0.88833 0.38310 0.88633 0.03500
O 	O 	0.01285 0.14879 0.72322 -0.36200
Ni	Ni	0.95352 0.99255 0.73403 1.10600
O 	O 	0.95231 0.04477 0.70846 -0.38400
O 	O 	0.93974 0.91595 0.71408 -0.38100
O 	O 	0.94467 0.05556 0.75508 -0.37700
O 	O 	0.95085 0.93131 0.75789 -0.38800
C 	C 	0.88809 0.37517 0.44589 -0.04100
C 	C 	0.92941 0.13241 0.69845 -0.08300
C 	C 	0.89461 0.09870 0.68023 0.01500
C 	C 	0.95515 0.86965 0.68137 -0.07800
C 	C 	0.98463 0.88490 0.66107 -0.01700
C 	C 	0.86597 0.39068 0.02054 0.01700
C 	C 	0.85863 0.49109 0.01357 -0.04700
H 	H 	0.87217 0.30486 0.03196 0.04100
C 	C 	0.96683 0.10657 0.79007 -0.11900
H 	H 	0.93730 0.33845 0.86126 0.04700
C 	C 	0.92572 0.72392 0.77953 -0.07000
C 	C 	0.96471 0.84261 0.77282 -0.08300
H 	H 	0.92089 0.56081 0.48436 0.04100
C 	C 	0.97788 0.92213 0.69792 0.28100
C 	C 	0.98347 0.89830 0.75754 0.26700
C 	C 	0.90880 0.47823 0.46407 0.01500
H 	H 	0.01945 0.93638 0.65680 0.05100
C 	C 	0.89545 0.35929 0.03114 -0.05100
C 	C 	0.95319 0.77951 0.76570 0.01300
H 	H 	0.91537 0.67502 0.77377 0.04600
C 	C 	0.96824 0.10843 0.70979 0.28500
C 	C 	0.98863 0.09428 0.76939 0.27900
Ni	Ni	0.96516 0.06770 0.22355 1.10300
Ni	Ni	0.95259 0.92249 0.23380 1.11000
H 	H 	0.89800 0.05664 0.67388 0.04100
C 	C 	0.89472 0.46166 0.02079 -0.00800
H 	H 	0.87321 0.54291 0.01704 0.03800
C 	C 	0.99267 0.14899 0.82628 -0.13800
C 	C 	0.00780 0.12561 0.80778 0.08500
C 	C 	0.95007 0.40808 0.43726 -0.03800
H 	H 	0.96312 0.77297 0.74925 0.03200
O 	O 	0.02293 0.90517 0.74143 -0.35800
C 	C 	0.97031 0.51305 0.45382 -0.02400
C 	C 	0.95566 0.39788 0.04038 -0.02400
H 	H 	0.02556 0.16556 0.83960 0.08100
O 	O 	0.03894 0.96746 0.69831 -0.37600
O 	O 	0.00182 0.01756 0.23377 -0.68100
H 	H 	0.99956 0.02472 0.24916 0.13000
H 	H 	0.96576 0.38032 0.42728 0.03300
