data_crystal

_cell_length_a 20.83060
_cell_length_b 21.44669
_cell_length_c 31.48931
_cell_angle_alpha 60.90176
_cell_angle_beta  118.82136
_cell_angle_gamma 133.29945

_symmetry_space_group_name_	'P 1'
_symmetry_space_group_name_H-M	'P 1'

loop_
_symmetry_equiv_pos_as_xyz
  x,y,z

loop_
_atom_site_label
_atom_site_type_symbol
_atom_site_fract_x
_atom_site_fract_y
_atom_site_fract_z
_atom_site_charge
Co	Co	0.04356 0.02076 0.04151 1.17400
Co	Co	0.10589 0.91428 0.04677 1.20900
O 	O 	0.01983 0.10604 0.03013 -0.41200
C 	C 	0.05610 0.21927 0.12829 0.41400
O 	O 	0.07753 0.18562 0.11586 -0.35100
O 	O 	0.04738 0.93297 0.07380 -0.72900
C 	C 	0.02747 0.01055 0.26324 0.29300
Co	Co	0.04355 0.02074 0.54151 1.18000
Co	Co	0.10588 0.91426 0.54677 1.21500
O 	O 	0.01982 0.10602 0.53013 -0.40300
C 	C 	0.05608 0.21925 0.62829 0.41300
O 	O 	0.07752 0.18560 0.61586 -0.34900
O 	O 	0.04737 0.93295 0.57381 -0.72500
C 	C 	0.05703 0.05078 0.87870 0.24900
C 	C 	0.07648 0.06302 0.83688 0.24100
C 	C 	0.07648 0.06302 0.33688 0.23800
C 	C 	0.05703 0.05076 0.37871 0.24800
Co	Co	0.02171 0.87094 0.13129 1.19300
O 	O 	0.02211 0.07502 0.22996 -0.32400
O 	O 	0.04059 0.78213 0.08603 -0.35300
Co	Co	0.02170 0.87092 0.63129 1.19300
O 	O 	0.02210 0.07501 0.72996 -0.32400
O 	O 	0.04057 0.78211 0.58603 -0.35000
O 	O 	0.02537 0.95872 0.74930 -0.26300
C 	C 	0.02718 0.99159 0.31600 -0.08100
C 	C 	0.02747 0.01054 0.76324 0.29600
O 	O 	0.02538 0.95873 0.24929 -0.26400
C 	C 	0.02718 0.99158 0.81600 -0.08200
F 	F 	0.06546 0.37039 0.05718 -0.33300
F 	F 	0.10543 0.12080 0.39761 -0.33600
O 	O 	0.13849 0.87019 0.17185 -0.30500
O 	O 	0.13848 0.87017 0.67185 -0.30400
F 	F 	0.10544 0.12082 0.89760 -0.32800
F 	F 	0.06542 0.37035 0.55719 -0.32800
F 	F 	0.14241 0.14499 0.81606 -0.30700
F 	F 	0.14241 0.14499 0.31607 -0.30900
C 	C 	0.12391 0.30766 0.63839 -0.19200
C 	C 	0.12392 0.30768 0.13839 -0.19400
C 	C 	0.11510 0.37612 0.60478 0.30000
C 	C 	0.11512 0.37615 0.10478 0.29900
H 	H 	0.15956 0.54391 0.17720 0.14400
H 	H 	0.15955 0.54390 0.67720 0.14500
C 	C 	0.15485 0.44925 0.62054 0.26100
F 	F 	0.14780 0.51581 0.58717 -0.33500
C 	C 	0.15487 0.44927 0.12054 0.26000
F 	F 	0.14784 0.51585 0.08717 -0.33900
O 	O 	0.99139 0.00041 0.96764 -0.32200
O 	O 	0.99138 0.00040 0.46764 -0.34300
F 	F 	0.18886 0.25186 0.71965 -0.34200
O 	O 	0.97324 0.17414 0.13180 -0.37400
C 	C 	0.98870 0.94763 0.95408 0.41800
C 	C 	0.98976 0.96650 0.90153 -0.11600
O 	O 	0.99513 0.88387 0.48765 -0.31200
C 	C 	0.98869 0.94762 0.45408 0.41800
C 	C 	0.98975 0.96648 0.40153 -0.12100
O 	O 	0.99514 0.88388 0.98765 -0.29000
F 	F 	0.18884 0.25186 0.21965 -0.34400
Co	Co	0.97595 0.07228 0.08865 1.19200
Co	Co	0.97594 0.07226 0.58865 1.19300
O 	O 	0.97323 0.17412 0.63180 -0.37200
O 	O 	0.20972 0.94974 0.60876 -0.30900
C 	C 	0.19451 0.88983 0.15065 0.39400
O 	O 	0.20973 0.94976 0.10875 -0.30900
O 	O 	0.17475 0.04410 0.00595 -0.39500
O 	O 	0.18280 0.10775 0.05037 -0.36900
C 	C 	0.19449 0.88981 0.65066 0.39500
O 	O 	0.17474 0.04408 0.50596 -0.37400
O 	O 	0.18279 0.10773 0.55037 -0.36100
C 	C 	0.21330 0.38667 0.70360 0.26000
C 	C 	0.17646 0.31541 0.68727 0.29700
F 	F 	0.26129 0.39130 0.75157 -0.32800
C 	C 	0.22561 0.77551 0.71177 0.30900
C 	C 	0.21232 0.82491 0.66263 -0.18200
C 	C 	0.22143 0.81683 0.62400 0.29800
F 	F 	0.21088 0.86433 0.57627 -0.41400
F 	F 	0.21897 0.78275 0.74973 -0.33000
C 	C 	0.17645 0.31541 0.18727 0.29700
C 	C 	0.21329 0.38667 0.20361 0.25900
F 	F 	0.26127 0.39129 0.25157 -0.33100
C 	C 	0.22145 0.81686 0.12399 0.29800
C 	C 	0.21233 0.82493 0.16263 -0.18300
F 	F 	0.21090 0.86436 0.07627 -0.41800
C 	C 	0.69822 0.26283 0.04258 0.21300
C 	C 	0.76861 0.34069 0.06023 -0.12300
C 	C 	0.74739 0.38534 0.06635 0.22400
C 	C 	0.65703 0.34969 0.05811 -0.13700
C 	C 	0.58722 0.27262 0.04137 0.23900
C 	C 	0.60745 0.23201 0.03072 -0.12800
H 	H 	0.83878 0.36575 0.06953 0.15400
H 	H 	0.64094 0.38304 0.06405 0.14100
H 	H 	0.55280 0.17520 0.01475 0.15400
C 	C 	0.69821 0.26281 0.54258 0.22200
C 	C 	0.60745 0.23199 0.53073 -0.12300
C 	C 	0.58721 0.27260 0.54139 0.23500
C 	C 	0.65703 0.34966 0.55813 -0.13200
C 	C 	0.74739 0.38531 0.56637 0.23100
C 	C 	0.76860 0.34066 0.56024 -0.12200
H 	H 	0.55279 0.17519 0.51476 0.16000
H 	H 	0.64093 0.38300 0.56407 0.14400
H 	H 	0.83877 0.36573 0.56954 0.16000
C 	C 	0.29269 0.66414 0.19355 0.22700
C 	C 	0.38658 0.71047 0.20072 -0.11800
C 	C 	0.41907 0.67294 0.19806 0.23600
C 	C 	0.35894 0.58806 0.19063 -0.12600
C 	C 	0.26574 0.54115 0.18311 0.22900
C 	C 	0.23209 0.57885 0.18473 -0.11400
H 	H 	0.43338 0.77727 0.20540 0.15400
H 	H 	0.38460 0.55979 0.18846 0.14600
C 	C 	0.29268 0.66413 0.69356 0.22900
C 	C 	0.23208 0.57884 0.68473 -0.11400
C 	C 	0.26573 0.54114 0.68311 0.23100
C 	C 	0.35893 0.58804 0.69064 -0.12500
C 	C 	0.41907 0.67292 0.69807 0.23800
C 	C 	0.38657 0.71045 0.70073 -0.11700
H 	H 	0.38460 0.55978 0.68846 0.14800
H 	H 	0.43337 0.77724 0.70541 0.15500
Co	Co	0.95314 0.92285 0.17864 1.21100
C 	C 	0.22113 0.10882 0.02651 0.43000
Co	Co	0.90664 0.04447 0.17404 1.17400
C 	C 	0.95697 0.73100 0.09047 0.40200
O 	O 	0.79735 0.00915 0.11453 -0.36100
O 	O 	0.94692 0.00941 0.14484 -0.76400
C 	C 	0.80810 0.06178 0.06988 0.38700
O 	O 	0.97845 0.83818 0.19013 -0.37400
C 	C 	0.78553 0.84875 0.20177 0.42500
O 	O 	0.97286 0.95547 0.10331 -0.52400
O 	O 	0.86480 0.08096 0.04937 -0.31900
O 	O 	0.83836 0.91869 0.21906 -0.34300
O 	O 	0.81771 0.83556 0.18201 -0.32400
O 	O 	0.93188 0.75381 0.10885 -0.33100
Co	Co	0.95313 0.92284 0.67864 1.21200
C 	C 	0.22112 0.10880 0.52652 0.42300
Co	Co	0.90663 0.04446 0.67404 1.17400
C 	C 	0.95695 0.73098 0.59047 0.41200
O 	O 	0.79734 0.00913 0.61453 -0.36000
O 	O 	0.94691 0.00940 0.64484 -0.76300
C 	C 	0.80809 0.06176 0.56988 0.38700
O 	O 	0.97844 0.83817 0.69013 -0.37100
C 	C 	0.78552 0.84874 0.70178 0.42500
O 	O 	0.97285 0.95545 0.60331 -0.52000
O 	O 	0.86479 0.08094 0.54937 -0.31200
O 	O 	0.83835 0.91867 0.71906 -0.34300
O 	O 	0.81770 0.83554 0.68201 -0.32100
O 	O 	0.93187 0.75379 0.60885 -0.32800
C 	C 	0.94052 0.89504 0.88069 0.29600
C 	C 	0.96043 0.90717 0.83909 0.28500
F 	F 	0.91319 0.83683 0.82074 -0.32500
F 	F 	0.87427 0.81315 0.90138 -0.30200
C 	C 	0.96042 0.90717 0.33908 0.28100
C 	C 	0.94051 0.89503 0.38069 0.29500
F 	F 	0.87426 0.81314 0.40137 -0.30800
F 	F 	0.91319 0.83685 0.32072 -0.32700
C 	C 	0.20407 0.45497 0.67015 -0.13600
C 	C 	0.66313 0.75468 0.74597 0.30600
C 	C 	0.68860 0.78934 0.70124 -0.19000
C 	C 	0.62536 0.78783 0.65545 0.30800
C 	C 	0.53980 0.75714 0.65423 0.27000
C 	C 	0.51523 0.72447 0.69893 -0.13700
C 	C 	0.57719 0.72299 0.74478 0.26800
F 	F 	0.55328 0.68882 0.78829 -0.33000
F 	F 	0.72301 0.75453 0.79061 -0.31500
F 	F 	0.47966 0.75697 0.60963 -0.32300
F 	F 	0.64832 0.81986 0.61194 -0.34300
C 	C 	0.24154 0.76007 0.63415 0.26300
C 	C 	0.25746 0.71304 0.68303 -0.13200
C 	C 	0.24908 0.72043 0.72201 0.26700
F 	F 	0.24916 0.75347 0.59628 -0.33000
F 	F 	0.26495 0.67565 0.76972 -0.33100
C 	C 	0.20408 0.45498 0.17015 -0.13600
C 	C 	0.57719 0.72299 0.24477 0.26700
C 	C 	0.51523 0.72449 0.19892 -0.13700
C 	C 	0.53982 0.75716 0.15422 0.27000
C 	C 	0.62538 0.78785 0.15545 0.30700
C 	C 	0.68861 0.78935 0.20124 -0.19100
C 	C 	0.66312 0.75468 0.24597 0.30500
F 	F 	0.72300 0.75452 0.29060 -0.31800
F 	F 	0.55327 0.68881 0.28828 -0.33400
F 	F 	0.64834 0.81989 0.11194 -0.34700
F 	F 	0.47969 0.75701 0.10962 -0.32700
C 	C 	0.24909 0.72045 0.22201 0.26600
C 	C 	0.25749 0.71307 0.18303 -0.13300
C 	C 	0.24156 0.76010 0.13414 0.26200
C 	C 	0.22562 0.77553 0.21176 0.30800
F 	F 	0.21898 0.78277 0.24972 -0.33400
F 	F 	0.26496 0.67567 0.26972 -0.33500
F 	F 	0.24919 0.75350 0.09627 -0.33400
C 	C 	0.68433 0.06638 0.55799 0.25200
C 	C 	0.76475 0.10812 0.54586 -0.17200
C 	C 	0.81504 0.19984 0.52445 0.29300
C 	C 	0.79062 0.24981 0.52073 0.26600
C 	C 	0.71836 0.20910 0.54067 -0.13700
C 	C 	0.66513 0.11653 0.55910 0.26400
F 	F 	0.59807 0.07550 0.58083 -0.37300
F 	F 	0.62971 0.97700 0.57397 -0.29700
F 	F 	0.83725 0.33735 0.49801 -0.33100
F 	F 	0.88901 0.24107 0.50875 -0.33200
C 	C 	0.83475 0.48526 0.62180 0.25900
C 	C 	0.81828 0.47398 0.57626 -0.13700
C 	C 	0.84687 0.54778 0.53567 0.26800
C 	C 	0.88461 0.63021 0.53914 0.30300
C 	C 	0.89760 0.64094 0.58393 -0.19000
C 	C 	0.87364 0.56819 0.62551 0.30200
F 	F 	0.89013 0.57827 0.66986 -0.34700
F 	F 	0.80855 0.41470 0.66165 -0.34200
F 	F 	0.91032 0.70046 0.49913 -0.33500
F 	F 	0.83219 0.53822 0.49159 -0.32400
C 	C 	0.37806 0.16775 0.57764 0.29800
C 	C 	0.31925 0.17178 0.53067 -0.19700
C 	C 	0.35141 0.21474 0.48726 0.30500
C 	C 	0.43748 0.24416 0.49060 0.26400
C 	C 	0.49293 0.23260 0.53742 -0.14100
C 	C 	0.46369 0.19611 0.58102 0.26000
F 	F 	0.51845 0.18814 0.62667 -0.34800
F 	F 	0.34994 0.13102 0.62002 -0.37100
F 	F 	0.46715 0.28413 0.44835 -0.33800
F 	F 	0.29691 0.22319 0.44162 -0.32000
C 	C 	0.79063 0.24983 0.02073 0.22800
C 	C 	0.71837 0.20912 0.04066 -0.12800
C 	C 	0.66514 0.11655 0.05910 0.25700
C 	C 	0.68434 0.06640 0.05798 0.25200
C 	C 	0.76476 0.10814 0.04586 -0.18000
C 	C 	0.81505 0.19986 0.02445 0.30100
F 	F 	0.88902 0.24109 0.00875 -0.34300
F 	F 	0.83727 0.33737 0.99801 -0.29200
F 	F 	0.62972 0.97702 0.07397 -0.30000
F 	F 	0.59807 0.07552 0.08083 -0.37500
C 	C 	0.88464 0.63024 0.03914 0.27600
C 	C 	0.89761 0.64097 0.08393 -0.18600
C 	C 	0.87363 0.56821 0.12550 0.29900
C 	C 	0.83474 0.48528 0.12179 0.25600
C 	C 	0.81828 0.47401 0.07624 -0.13200
C 	C 	0.84691 0.54781 0.03567 0.24100
F 	F 	0.83224 0.53826 0.99158 -0.29200
F 	F 	0.91038 0.70050 0.99913 -0.30500
F 	F 	0.80851 0.41471 0.16163 -0.34500
F 	F 	0.89010 0.57827 0.16984 -0.34900
C 	C 	0.43748 0.24418 0.99059 0.30100
C 	C 	0.49293 0.23262 0.03741 -0.18100
C 	C 	0.46370 0.19613 0.08101 0.26400
C 	C 	0.37807 0.16778 0.07763 0.30200
C 	C 	0.31926 0.17181 0.03066 -0.23900
C 	C 	0.35141 0.21477 0.98725 0.34200
F 	F 	0.29691 0.22321 0.94162 -0.31600
F 	F 	0.46715 0.28415 0.94834 -0.33100
F 	F 	0.34996 0.13104 0.12001 -0.37400
F 	F 	0.51846 0.18817 0.12666 -0.35100
