data_crystal

_cell_length_a 25.42900
_cell_length_b 21.96862
_cell_length_c 51.23155
_cell_angle_alpha 90.57262
_cell_angle_beta  91.29697
_cell_angle_gamma 110.71063

_symmetry_space_group_name_	'P 1'
_symmetry_space_group_name_H-M	'P 1'

loop_
_symmetry_equiv_pos_as_xyz
  x,y,z

loop_
_atom_site_label
_atom_site_type_symbol
_atom_site_fract_x
_atom_site_fract_y
_atom_site_fract_z
_atom_site_charge
Ni	Ni	0.70883 0.31284 0.88729 1.11600
O 	O 	0.64143 0.25171 0.86604 -0.69900
Ni	Ni	0.57773 0.26536 0.88412 1.11700
O 	O 	0.76299 0.28704 0.86434 -0.28900
O 	O 	0.71816 0.17948 0.87337 -0.33200
O 	O 	0.70693 0.38156 0.86098 -0.35200
Ni	Ni	0.63208 0.16047 0.86831 1.10500
O 	O 	0.72559 0.40684 0.93936 -0.34800
O 	O 	0.62757 0.16051 0.90800 -0.35800
O 	O 	0.51594 0.21007 0.85905 -0.31300
O 	O 	0.64437 0.31519 0.90844 -0.69500
O 	O 	0.77638 0.38027 0.90695 -0.31400
O 	O 	0.52292 0.30401 0.90042 -0.29700
O 	O 	0.58714 0.40630 0.89680 -0.34300
Ni	Ni	0.65782 0.40596 0.91765 1.10600
H 	H 	0.64183 0.26447 0.84755 0.20900
H 	H 	0.64366 0.29088 0.92467 0.20500
C 	C 	0.58088 0.15692 0.91924 0.40400
O 	O 	0.71106 0.46216 0.89060 -0.33300
C 	C 	0.75706 0.22537 0.86085 0.38200
C 	C 	0.51438 0.15156 0.85156 0.38100
C 	C 	0.71953 0.44333 0.86711 0.42900
C 	C 	0.53705 0.36740 0.90354 0.38600
C 	C 	0.77395 0.41178 0.92888 0.40800
O 	O 	0.55069 0.19053 0.91036 -0.31600
O 	O 	0.54593 0.12319 0.86392 -0.32800
Ni	Ni	0.63194 0.32649 0.55764 1.11400
O 	O 	0.70020 0.32794 0.53709 -0.70200
Ni	Ni	0.75201 0.31849 0.56524 1.11000
O 	O 	0.59493 0.35542 0.52646 -0.29900
O 	O 	0.67476 0.44347 0.52145 -0.34400
O 	O 	0.59213 0.23039 0.54589 -0.31200
Ni	Ni	0.73749 0.40477 0.51648 1.11500
O 	O 	0.56211 0.22135 0.59414 -0.34900
O 	O 	0.78839 0.47352 0.54246 -0.33000
O 	O 	0.82215 0.32781 0.54390 -0.31400
O 	O 	0.68297 0.31550 0.58627 -0.69100
O 	O 	0.56496 0.32047 0.58002 -0.31700
O 	O 	0.78879 0.28918 0.59599 -0.30000
O 	O 	0.71596 0.22019 0.61840 -0.31900
Ni	Ni	0.64379 0.23094 0.60215 1.10600
H 	H 	0.69037 0.28954 0.52521 0.20800
H 	H 	0.69164 0.35140 0.59935 0.21600
C 	C 	0.81452 0.46126 0.56305 0.39900
O 	O 	0.64731 0.18396 0.56820 -0.35500
C 	C 	0.62222 0.40997 0.51467 0.39200
C 	C 	0.83749 0.36510 0.52319 0.38300
C 	C 	0.61460 0.18462 0.54794 0.38000
C 	C 	0.76390 0.23229 0.60650 0.39000
C 	C 	0.54271 0.26961 0.59478 0.40300
O 	O 	0.78820 0.41272 0.57819 -0.32900
O 	O 	0.79952 0.37172 0.50647 -0.32400
Ni	Ni	0.02902 0.94202 0.74401 1.11200
O 	O 	0.03700 0.88119 0.71513 -0.70700
Ni	Ni	0.07994 0.94587 0.68908 1.11500
O 	O 	0.98466 0.86457 0.76643 -0.27600
O 	O 	0.92157 0.81921 0.73284 -0.32000
O 	O 	0.10292 0.93759 0.75922 -0.34500
Ni	Ni	0.96605 0.82782 0.69849 1.11300
O 	O 	0.06150 0.10524 0.75042 -0.32500
O 	O 	0.94223 0.90494 0.68963 -0.35100
O 	O 	0.09117 0.88045 0.66341 -0.30100
O 	O 	0.06085 0.00473 0.71545 -0.69700
O 	O 	0.02762 0.00780 0.77254 -0.30200
O 	O 	0.13846 0.02194 0.67064 -0.30600
O 	O 	0.18282 0.06425 0.70959 -0.34500
Ni	Ni	0.11974 0.08161 0.73018 1.10400
H 	H 	0.05873 0.85406 0.72102 0.21100
H 	H 	0.03074 0.01931 0.70860 0.19300
C 	C 	0.96710 0.94675 0.67167 0.41800
O 	O 	0.14274 0.04744 0.76367 -0.34200
C 	C 	0.94309 0.81459 0.75609 0.38400
C 	C 	0.04724 0.82858 0.65630 0.36900
C 	C 	0.14672 0.98982 0.76492 0.41500
C 	C 	0.18204 0.06277 0.68384 0.38700
C 	C 	0.02650 0.06634 0.76719 0.36800
O 	O 	0.01777 0.95281 0.66409 -0.33800
O 	O 	0.99557 0.82559 0.66173 -0.32200
Ni	Ni	0.25557 0.71166 0.40594 1.11300
O 	O 	0.30579 0.74894 0.37470 -0.69500
Ni	Ni	0.37123 0.72040 0.38338 1.11300
O 	O 	0.20109 0.76004 0.39898 -0.28700
O 	O 	0.26111 0.85578 0.38399 -0.32300
O 	O 	0.20068 0.63798 0.38254 -0.32300
Ni	Ni	0.33662 0.84479 0.37503 1.10600
O 	O 	0.21003 0.56970 0.42500 -0.33300
O 	O 	0.35673 0.84717 0.41389 -0.36100
O 	O 	0.41934 0.76302 0.35264 -0.31200
O 	O 	0.31977 0.68090 0.41369 -0.70000
O 	O 	0.20999 0.67014 0.43746 -0.30000
O 	O 	0.42775 0.67645 0.39348 -0.28300
O 	O 	0.36040 0.57585 0.39609 -0.33200
Ni	Ni	0.28879 0.58554 0.41127 1.10100
H 	H 	0.28785 0.73078 0.35761 0.21000
H 	H 	0.33745 0.69650 0.43108 0.20500
C 	C 	0.40040 0.83323 0.42209 0.38300
O 	O 	0.26241 0.58737 0.37381 -0.37700
C 	C 	0.21218 0.80809 0.38252 0.39200
C 	C 	0.43560 0.82630 0.34946 0.40200
C 	C 	0.21493 0.59571 0.36870 0.40300
C 	C 	0.41114 0.61662 0.40203 0.38800
C 	C 	0.19709 0.60759 0.44200 0.39500
O 	O 	0.41970 0.79598 0.40770 -0.30900
O 	O 	0.41844 0.86243 0.36550 -0.33900
Ni	Ni	0.33514 0.67039 0.06417 1.11200
O 	O 	0.26896 0.66122 0.03904 -0.69800
Ni	Ni	0.22194 0.69726 0.06138 1.11300
O 	O 	0.37147 0.62302 0.03953 -0.28800
O 	O 	0.29080 0.53635 0.03198 -0.33100
O 	O 	0.38483 0.75296 0.04544 -0.31900
Ni	Ni	0.22388 0.56966 0.03127 1.10800
O 	O 	0.41213 0.79209 0.09441 -0.34100
O 	O 	0.21535 0.54774 0.06982 -0.37200
O 	O 	0.15928 0.68575 0.03419 -0.29800
O 	O 	0.28766 0.70543 0.08675 -0.69600
O 	O 	0.39891 0.68382 0.09084 -0.31100
O 	O 	0.18595 0.74653 0.08525 -0.29200
O 	O 	0.26668 0.83123 0.09563 -0.33400
Ni	Ni	0.33326 0.79734 0.09419 1.10500
H 	H 	0.28030 0.68627 0.02287 0.20700
H 	H 	0.27618 0.68013 0.10285 0.20600
C 	C 	0.17763 0.56090 0.08335 0.40200
O 	O 	0.33705 0.81972 0.05577 -0.37000
C 	C 	0.34167 0.57207 0.02515 0.38700
C 	C 	0.13702 0.63025 0.02110 0.40000
C 	C 	0.37046 0.80366 0.04030 0.39600
C 	C 	0.21473 0.79541 0.10089 0.39400
C 	C 	0.42516 0.74153 0.10169 0.40500
O 	O 	0.16927 0.61621 0.08015 -0.31900
O 	O 	0.14644 0.57797 0.02906 -0.34100
Ni	Ni	0.92479 0.05007 0.26156 1.11900
O 	O 	0.93417 0.11284 0.23134 -0.69400
Ni	Ni	0.90111 0.05025 0.20170 1.11800
O 	O 	0.96015 0.12616 0.28754 -0.26700
O 	O 	0.03809 0.16569 0.26260 -0.33500
O 	O 	0.84652 0.05587 0.26645 -0.32900
Ni	Ni	0.01230 0.16098 0.22347 1.09500
O 	O 	0.88762 0.88623 0.26660 -0.31100
O 	O 	0.03393 0.08029 0.21835 -0.35200
O 	O 	0.90502 0.11859 0.17436 -0.29300
O 	O 	0.90517 0.98859 0.23079 -0.69200
O 	O 	0.91078 0.98262 0.29036 -0.29800
O 	O 	0.84838 0.97726 0.17768 -0.29200
O 	O 	0.79012 0.93528 0.21149 -0.33500
Ni	Ni	0.84051 0.91209 0.23916 1.11800
H 	H 	0.91296 0.14249 0.23376 0.22300
H 	H 	0.93701 0.97344 0.22845 0.20800
C 	C 	0.01550 0.04087 0.19802 0.36600
O 	O 	0.80480 0.94592 0.26845 -0.34000
C 	C 	0.00688 0.17366 0.28161 0.38100
C 	C 	0.95213 0.16998 0.17344 0.38600
C 	C 	0.80101 0.00377 0.26839 0.40900
C 	C 	0.80079 0.93612 0.18645 0.39400
C 	C 	0.91612 0.92564 0.28600 0.37800
O 	O 	0.96993 0.03887 0.18482 -0.29900
O 	O 	0.99944 0.16804 0.18419 -0.33500
C 	C 	0.03776 0.43837 0.10260 0.22400
C 	C 	0.05518 0.39686 0.11839 0.01600
C 	C 	0.11274 0.41182 0.12413 0.23400
C 	C 	0.15271 0.46692 0.11353 0.32600
C 	C 	0.13546 0.50768 0.09716 -0.20100
C 	C 	0.07765 0.49354 0.09200 0.33000
C 	C 	0.01336 0.33718 0.12873 -0.01700
F 	F 	0.12991 0.37254 0.13980 -0.32400
F 	F 	0.06025 0.53176 0.07586 -0.33900
C 	C 	0.00534 0.27643 0.11697 0.22900
C 	C 	0.97644 0.21909 0.13007 0.35200
C 	C 	0.95618 0.22229 0.15515 -0.18100
C 	C 	0.95754 0.28261 0.16516 0.31100
C 	C 	0.98654 0.34000 0.15212 0.27100
F 	F 	0.02864 0.27309 0.09367 -0.31300
F 	F 	0.93570 0.28611 0.18883 -0.35300
F 	F 	0.97302 0.16077 0.11958 -0.32000
F 	F 	0.99177 0.39847 0.16306 -0.30700
F 	F 	0.98222 0.42452 0.09708 -0.28000
F 	F 	0.20822 0.48050 0.11904 -0.35100
C 	C 	0.57871 0.76609 0.11056 0.25100
C 	C 	0.59202 0.80308 0.13385 0.01000
C 	C 	0.54906 0.81292 0.14807 0.24500
C 	C 	0.49353 0.78874 0.13839 0.32500
C 	C 	0.48047 0.75435 0.11445 -0.18500
C 	C 	0.52313 0.74173 0.10087 0.33700
C 	C 	0.65107 0.83353 0.14296 0.01200
F 	F 	0.56146 0.84739 0.17096 -0.30700
F 	F 	0.51119 0.70894 0.07760 -0.31300
C 	C 	0.68135 0.89885 0.13732 0.24800
C 	C 	0.73349 0.93139 0.14979 0.33500
C 	C 	0.75550 0.89877 0.16803 -0.18200
C 	C 	0.72733 0.83198 0.17193 0.32800
C 	C 	0.67523 0.79953 0.15948 0.24900
F 	F 	0.65896 0.93158 0.12073 -0.30400
F 	F 	0.74923 0.79938 0.18882 -0.35900
F 	F 	0.76075 0.99566 0.14548 -0.33100
F 	F 	0.64698 0.73581 0.16442 -0.30600
F 	F 	0.61990 0.75546 0.09691 -0.29600
F 	F 	0.45258 0.80045 0.15185 -0.35500
C 	C 	0.13222 0.99273 0.17096 0.24400
C 	C 	0.10352 0.92643 0.16508 0.00600
C 	C 	0.04753 0.89660 0.17249 0.25000
C 	C 	0.01940 0.93353 0.18428 0.29800
C 	C 	0.04731 0.00048 0.18913 -0.18500
C 	C 	0.10429 0.02956 0.18307 0.32800
C 	C 	0.13024 0.88989 0.14903 0.00700
F 	F 	0.01989 0.83216 0.16752 -0.31600
F 	F 	0.13178 0.09417 0.18772 -0.34100
C 	C 	0.17332 0.87105 0.15978 0.24700
C 	C 	0.19999 0.83858 0.14419 0.32000
C 	C 	0.18335 0.82413 0.11784 -0.18800
C 	C 	0.13951 0.84195 0.10725 0.33200
C 	C 	0.11323 0.87485 0.12275 0.24500
F 	F 	0.18955 0.88461 0.18525 -0.30800
F 	F 	0.12377 0.82942 0.08167 -0.32200
F 	F 	0.24217 0.82142 0.15465 -0.36300
F 	F 	0.07194 0.89334 0.11213 -0.30700
F 	F 	0.18649 0.02196 0.16401 -0.30700
F 	F 	0.96464 0.90457 0.19053 -0.36400
C 	C 	0.54132 0.95224 0.30890 0.25100
C 	C 	0.58728 0.93102 0.31027 0.00700
C 	C 	0.58185 0.87263 0.32280 0.24500
C 	C 	0.53163 0.83691 0.33472 0.33300
C 	C 	0.48582 0.85879 0.33390 -0.18200
C 	C 	0.49071 0.91614 0.32055 0.32400
C 	C 	0.64105 0.96924 0.29829 0.01100
F 	F 	0.62566 0.85092 0.32368 -0.31000
F 	F 	0.44656 0.93719 0.31910 -0.35100
C 	C 	0.68881 0.00117 0.31423 0.24600
C 	C 	0.74243 0.02167 0.30359 0.33500
C 	C 	0.74849 0.01021 0.27700 -0.19100
C 	C 	0.70032 0.98671 0.26055 0.32300
C 	C 	0.64675 0.96563 0.27119 0.24400
F 	F 	0.68352 0.00820 0.34029 -0.30000
F 	F 	0.70556 0.97931 0.23452 -0.35500
F 	F 	0.78863 0.04712 0.31954 -0.32600
F 	F 	0.60067 0.93750 0.25541 -0.30400
F 	F 	0.54590 0.00819 0.29653 -0.30100
F 	F 	0.52828 0.78248 0.34796 -0.32700
C 	C 	0.02301 0.34051 0.30722 0.19500
C 	C 	0.07631 0.35929 0.31962 0.02500
C 	C 	0.10352 0.31395 0.32216 0.22900
C 	C 	0.07910 0.25153 0.31106 0.34300
C 	C 	0.02701 0.23369 0.29761 -0.22500
C 	C 	0.99827 0.27774 0.29639 0.37400
C 	C 	0.10458 0.42689 0.32923 -0.00200
F 	F 	0.15420 0.33097 0.33491 -0.31200
F 	F 	0.94768 0.26078 0.28356 -0.35600
C 	C 	0.08813 0.44773 0.35263 0.24600
C 	C 	0.12128 0.50722 0.36430 0.32300
C 	C 	0.17166 0.54576 0.35282 -0.19800
C 	C 	0.18522 0.52758 0.32823 0.32500
C 	C 	0.15170 0.46844 0.31644 0.24500
F 	F 	0.04171 0.40873 0.36478 -0.30500
F 	F 	0.23248 0.56570 0.31641 -0.35000
F 	F 	0.10664 0.52510 0.38769 -0.34100
F 	F 	0.16645 0.45002 0.29317 -0.31800
F 	F 	0.99600 0.38367 0.30499 -0.27900
F 	F 	0.10663 0.20879 0.31286 -0.32300
C 	C 	0.12233 0.84267 0.32938 0.24000
C 	C 	0.07762 0.84786 0.34370 0.01700
C 	C 	0.07612 0.83759 0.37071 0.24200
C 	C 	0.11963 0.82353 0.38342 0.33700
C 	C 	0.16504 0.81982 0.36916 -0.19200
C 	C 	0.16600 0.82901 0.34209 0.32100
C 	C 	0.03453 0.86834 0.33067 -0.02800
F 	F 	0.03312 0.84272 0.38471 -0.30300
F 	F 	0.20934 0.82473 0.32811 -0.37400
C 	C 	0.98157 0.82222 0.32381 0.28300
C 	C 	0.94203 0.84116 0.30992 0.31400
C 	C 	0.95544 0.90636 0.30262 -0.15200
C 	C 	0.00809 0.95269 0.31008 0.28400
C 	C 	0.04724 0.93376 0.32416 0.26300
F 	F 	0.96875 0.75893 0.33029 -0.30000
F 	F 	0.02210 0.01563 0.30283 -0.36600
F 	F 	0.89070 0.79628 0.30365 -0.32200
F 	F 	0.09813 0.97878 0.33105 -0.31300
F 	F 	0.12377 0.85182 0.30320 -0.31700
F 	F 	0.11855 0.81540 0.40967 -0.31600
C 	C 	0.54820 0.01048 0.52384 0.25000
C 	C 	0.53722 0.01960 0.49748 0.00900
C 	C 	0.55696 0.08246 0.48723 0.24500
C 	C 	0.58552 0.13610 0.50343 0.32400
C 	C 	0.59400 0.12750 0.53014 -0.18800
C 	C 	0.57633 0.06418 0.54016 0.33100
C 	C 	0.50306 0.96386 0.48082 0.00700
F 	F 	0.54710 0.09165 0.46167 -0.31300
F 	F 	0.58405 0.05494 0.56592 -0.33300
C 	C 	0.44447 0.93758 0.48338 0.24500
C 	C 	0.41109 0.89152 0.46511 0.32000
C 	C 	0.43597 0.87219 0.44387 -0.18700
C 	C 	0.49504 0.89583 0.44224 0.32800
C 	C 	0.52831 0.94107 0.46076 0.24900
F 	F 	0.41976 0.95842 0.50306 -0.30700
F 	F 	0.52005 0.87760 0.42197 -0.32400
F 	F 	0.35446 0.86668 0.46774 -0.35000
F 	F 	0.58508 0.96484 0.45860 -0.30200
F 	F 	0.53037 0.94970 0.53377 -0.30300
F 	F 	0.60394 0.19670 0.49331 -0.36700
C 	C 	0.96341 0.41912 0.48029 0.28800
C 	C 	0.00558 0.45503 0.49833 -0.04800
C 	C 	0.99457 0.45126 0.52512 0.31100
C 	C 	0.94050 0.41568 0.53359 0.30800
C 	C 	0.89665 0.38600 0.51523 -0.16000
C 	C 	0.90922 0.38460 0.48867 0.31600
C 	C 	0.05925 0.50084 0.48890 0.02900
F 	F 	0.03559 0.48421 0.54281 -0.32600
F 	F 	0.86866 0.35068 0.47095 -0.32200
C 	C 	0.06127 0.56035 0.47838 0.24100
C 	C 	0.10793 0.59779 0.46441 0.33800
C 	C 	0.15354 0.57640 0.46119 -0.17900
C 	C 	0.15343 0.51968 0.47376 0.32700
C 	C 	0.10626 0.48179 0.48737 0.24100
F 	F 	0.01666 0.58019 0.48056 -0.29700
F 	F 	0.19831 0.50016 0.47202 -0.35900
F 	F 	0.10734 0.65281 0.45277 -0.31700
F 	F 	0.10531 0.42521 0.49814 -0.30600
F 	F 	0.97453 0.41972 0.45447 -0.29900
F 	F 	0.92999 0.41338 0.55950 -0.34300
C 	C 	0.48425 0.50151 0.42158 0.24600
C 	C 	0.51416 0.53316 0.44412 0.00700
C 	C 	0.51607 0.59607 0.45074 0.24600
C 	C 	0.48530 0.62546 0.43583 0.32200
C 	C 	0.45230 0.59200 0.41424 -0.18900
C 	C 	0.45366 0.53094 0.40659 0.32700
C 	C 	0.54068 0.49904 0.46160 0.00800
F 	F 	0.54629 0.62773 0.47213 -0.31000
F 	F 	0.42444 0.49966 0.38491 -0.32700
C 	C 	0.59338 0.49614 0.45583 0.24800
C 	C 	0.61920 0.46516 0.47279 0.32600
C 	C 	0.59261 0.43714 0.49575 -0.19200
C 	C 	0.53925 0.43888 0.50123 0.33200
C 	C 	0.51337 0.46964 0.48417 0.24300
F 	F 	0.61972 0.52386 0.43388 -0.30100
F 	F 	0.51334 0.41264 0.52348 -0.33600
F 	F 	0.67008 0.46224 0.46693 -0.36500
F 	F 	0.46202 0.47161 0.48969 -0.31600
F 	F 	0.48354 0.44139 0.41465 -0.30600
F 	F 	0.48509 0.68495 0.44316 -0.34600
C 	C 	0.88589 0.06046 0.66668 0.24100
C 	C 	0.88605 0.07067 0.63969 0.00800
C 	C 	0.91279 0.04007 0.62318 0.24600
C 	C 	0.93906 0.99922 0.63358 0.33500
C 	C 	0.93891 0.98894 0.66062 -0.20600
C 	C 	0.91239 0.01997 0.67713 0.32100
C 	C 	0.85728 0.11248 0.62874 0.00700
F 	F 	0.91309 0.04979 0.59704 -0.29900
F 	F 	0.91326 0.01184 0.70336 -0.36500
C 	C 	0.88210 0.18040 0.63138 0.24700
C 	C 	0.85227 0.21996 0.62353 0.33100
C 	C 	0.79748 0.19175 0.61273 -0.19000
C 	C 	0.77357 0.12391 0.60923 0.31900
C 	C 	0.80331 0.08443 0.61725 0.24700
F 	F 	0.93459 0.20787 0.64221 -0.30600
F 	F 	0.72119 0.09628 0.59827 -0.34500
F 	F 	0.87571 0.28542 0.62731 -0.31900
F 	F 	0.77923 0.01876 0.61446 -0.30900
F 	F 	0.85996 0.08982 0.68275 -0.31400
F 	F 	0.96380 0.96872 0.61739 -0.31100
C 	C 	0.38830 0.18309 0.60415 0.24400
C 	C 	0.38191 0.20676 0.62898 0.00900
C 	C 	0.42643 0.25860 0.64060 0.24600
C 	C 	0.47829 0.28306 0.62837 0.32200
C 	C 	0.48579 0.25610 0.60441 -0.18900
C 	C 	0.43993 0.20792 0.59186 0.33300
C 	C 	0.33110 0.17273 0.64390 0.00500
F 	F 	0.42009 0.28338 0.66421 -0.31000
F 	F 	0.44632 0.18284 0.56831 -0.33100
C 	C 	0.33416 0.13300 0.66477 0.24500
C 	C 	0.28550 0.09711 0.67780 0.32400
C 	C 	0.23319 0.10015 0.66995 -0.19000
C 	C 	0.23011 0.14001 0.64912 0.32200
C 	C 	0.27893 0.17645 0.63624 0.24900
F 	F 	0.38420 0.12817 0.67204 -0.31200
F 	F 	0.17994 0.14413 0.64161 -0.34200
F 	F 	0.28897 0.05818 0.69769 -0.32200
F 	F 	0.27557 0.21512 0.61624 -0.30300
F 	F 	0.34530 0.13378 0.59252 -0.30400
F 	F 	0.52203 0.33061 0.64041 -0.35200
C 	C 	0.95679 0.59659 0.56715 0.25200
C 	C 	0.96011 0.61560 0.59358 0.03100
C 	C 	0.91614 0.58245 0.61013 0.23700
C 	C 	0.86912 0.53147 0.60031 0.33700
C 	C 	0.86490 0.51381 0.57367 -0.18300
C 	C 	0.90860 0.54744 0.55706 0.33500
C 	C 	0.00541 0.67544 0.60323 -0.01400
F 	F 	0.91785 0.60174 0.63550 -0.31600
F 	F 	0.90394 0.53320 0.53107 -0.35500
C 	C 	0.00657 0.73631 0.59447 0.22700
C 	C 	0.03154 0.79187 0.61023 0.32500
C 	C 	0.05305 0.78616 0.63519 -0.17800
C 	C 	0.06158 0.72829 0.64153 0.31300
C 	C 	0.03826 0.67299 0.62537 0.25300
F 	F 	0.97816 0.74042 0.57219 -0.28400
F 	F 	0.08661 0.72359 0.66473 -0.34700
F 	F 	0.02779 0.84943 0.60285 -0.32300
F 	F 	0.04223 0.61551 0.63270 -0.30600
F 	F 	0.99955 0.62709 0.55110 -0.28100
F 	F 	0.82635 0.50150 0.61644 -0.34200
C 	C 	0.99111 0.61207 0.99788 0.27100
C 	C 	0.98527 0.57151 0.97583 0.02800
C 	C 	0.03256 0.56079 0.96621 0.22300
C 	C 	0.08418 0.58587 0.97978 0.32400
C 	C 	0.08874 0.62108 0.00327 -0.18200
C 	C 	0.04263 0.63658 0.01165 0.31600
C 	C 	0.92893 0.53430 0.96473 0.00700
F 	F 	0.02765 0.52298 0.94450 -0.31100
F 	F 	0.04666 0.67159 0.03408 -0.31300
C 	C 	0.91333 0.54784 0.93961 0.25100
C 	C 	0.86242 0.50792 0.92795 0.33200
C 	C 	0.82647 0.45466 0.94146 -0.19600
C 	C 	0.84118 0.44238 0.96690 0.33200
C 	C 	0.89240 0.48181 0.97844 0.24500
F 	F 	0.94794 0.59912 0.92639 -0.29500
F 	F 	0.80655 0.39113 0.98013 -0.33600
F 	F 	0.84784 0.52108 0.90357 -0.34200
F 	F 	0.90734 0.46802 0.00267 -0.29900
F 	F 	0.94607 0.62486 0.00671 -0.29500
F 	F 	0.12911 0.57285 0.97094 -0.36000
C 	C 	0.40562 0.92835 0.98713 0.24500
C 	C 	0.46467 0.95154 0.98849 0.00800
C 	C 	0.49263 0.92366 0.00593 0.24500
C 	C 	0.46182 0.87368 0.02223 0.32800
C 	C 	0.40268 0.85122 0.02125 -0.19700
C 	C 	0.37473 0.87849 0.00350 0.32400
C 	C 	0.49726 0.00483 0.97155 0.01200
F 	F 	0.54970 0.94578 0.00736 -0.30400
F 	F 	0.31766 0.85673 0.00216 -0.35500
C 	C 	0.50273 0.06936 0.97752 0.24700
C 	C 	0.53204 0.11960 0.96096 0.33200
C 	C 	0.55636 0.10571 0.93836 -0.19200
C 	C 	0.55198 0.04124 0.93276 0.33600
C 	C 	0.52253 0.99109 0.94929 0.24600
F 	F 	0.47923 0.08323 0.99927 -0.30600
F 	F 	0.57421 0.02685 0.91071 -0.35300
F 	F 	0.53651 0.18172 0.96674 -0.33700
F 	F 	0.51749 0.92884 0.94338 -0.30400
F 	F 	0.37825 0.95434 0.97001 -0.30600
F 	F 	0.48943 0.84876 0.03967 -0.33100
C 	C 	0.47034 0.48460 0.92849 0.24500
C 	C 	0.44557 0.45383 0.95132 0.00500
C 	C 	0.44651 0.39194 0.95716 0.24600
C 	C 	0.47421 0.36221 0.94092 0.31700
C 	C 	0.50093 0.39403 0.91853 -0.19600
C 	C 	0.49768 0.45473 0.91209 0.32100
C 	C 	0.42032 0.48731 0.96960 0.00800
F 	F 	0.42164 0.36129 0.97894 -0.30800
F 	F 	0.52159 0.48505 0.89008 -0.32600
C 	C 	0.36676 0.48959 0.96409 0.24800
C 	C 	0.34174 0.51872 0.98198 0.32000
C 	C 	0.36995 0.54548 0.00564 -0.18600
C 	C 	0.42404 0.54407 0.01095 0.33100
C 	C 	0.44915 0.51533 0.99293 0.24600
F 	F 	0.33870 0.46287 0.94152 -0.30700
F 	F 	0.45151 0.56867 0.03388 -0.31600
F 	F 	0.29004 0.52102 0.97634 -0.36700
F 	F 	0.50122 0.51385 0.99829 -0.31000
F 	F 	0.46886 0.54404 0.92249 -0.30600
F 	F 	0.47725 0.30385 0.94758 -0.33300
C 	C 	0.85567 0.20783 0.80980 0.24500
C 	C 	0.88007 0.16767 0.82257 0.01500
C 	C 	0.86687 0.15026 0.84854 0.24500
C 	C 	0.82811 0.17101 0.86138 0.32800
C 	C 	0.80207 0.20925 0.84831 -0.18700
C 	C 	0.81691 0.22873 0.82265 0.32500
C 	C 	0.91770 0.14175 0.80847 -0.00500
F 	F 	0.89117 0.11253 0.86119 -0.30100
F 	F 	0.79241 0.26613 0.80991 -0.34100
C 	C 	0.97507 0.17907 0.80681 0.28500
C 	C 	0.01091 0.15407 0.79370 0.27500
C 	C 	0.98955 0.09151 0.78212 -0.12800
C 	C 	0.93218 0.05400 0.78400 0.31400
C 	C 	0.89641 0.07907 0.79710 0.26200
F 	F 	0.99609 0.23943 0.81802 -0.30200
F 	F 	0.91089 0.99386 0.77259 -0.33800
F 	F 	0.06652 0.19022 0.79257 -0.33000
F 	F 	0.84095 0.04266 0.79865 -0.31300
F 	F 	0.86868 0.22544 0.78476 -0.30500
F 	F 	0.81584 0.15404 0.88655 -0.33000
C 	C 	0.38227 0.01268 0.83074 0.25000
C 	C 	0.36266 0.04082 0.80999 0.00500
C 	C 	0.39656 0.10188 0.80088 0.24300
C 	C 	0.44791 0.13642 0.81355 0.32000
C 	C 	0.46555 0.11052 0.83561 -0.18700
C 	C 	0.43325 0.04752 0.84368 0.32500
C 	C 	0.30386 0.01124 0.80040 0.01100
F 	F 	0.37836 0.12908 0.78053 -0.31400
F 	F 	0.44965 0.02156 0.86493 -0.33000
C 	C 	0.26025 0.01540 0.81582 0.23800
C 	C 	0.20639 0.00127 0.80483 0.33700
C 	C 	0.19588 0.98342 0.77832 -0.20500
C 	C 	0.23791 0.97283 0.76365 0.32800
C 	C 	0.29185 0.98676 0.77466 0.24600
F 	F 	0.27105 0.03732 0.84096 -0.30800
F 	F 	0.22752 0.95337 0.73822 -0.35400
F 	F 	0.16529 0.00917 0.81944 -0.33100
F 	F 	0.33321 0.97998 0.75992 -0.30100
F 	F 	0.35049 0.95286 0.83920 -0.30400
F 	F 	0.47982 0.19597 0.80488 -0.35000
C 	C 	0.76134 0.59342 0.82586 0.24600
C 	C 	0.81490 0.59701 0.81796 0.01200
C 	C 	0.83537 0.54761 0.82488 0.25000
C 	C 	0.80292 0.49556 0.83990 0.34300
C 	C 	0.75007 0.49300 0.84845 -0.19300
C 	C 	0.72925 0.54188 0.84120 0.33200
C 	C 	0.84953 0.65251 0.80243 0.00800
F 	F 	0.88715 0.55071 0.81744 -0.29700
F 	F 	0.67801 0.53955 0.84916 -0.33500
C 	C 	0.87295 0.71494 0.81395 0.25000
C 	C 	0.90422 0.76789 0.79902 0.33200
C 	C 	0.91307 0.75861 0.77247 -0.18300
C 	C 	0.89073 0.69573 0.76118 0.32100
C 	C 	0.85873 0.64312 0.77603 0.24800
F 	F 	0.86496 0.72435 0.83957 -0.29700
F 	F 	0.90020 0.68563 0.73580 -0.36900
F 	F 	0.92444 0.82839 0.81014 -0.31800
F 	F 	0.83623 0.58300 0.76470 -0.30800
F 	F 	0.74058 0.64009 0.81876 -0.30400
F 	F 	0.82372 0.44892 0.84699 -0.32800
