data_crystal

_cell_length_a 20.26181
_cell_length_b 20.80391
_cell_length_c 37.97892
_cell_angle_alpha 60.67110
_cell_angle_beta  119.07436
_cell_angle_gamma 133.32466

_symmetry_space_group_name_	'P 1'
_symmetry_space_group_name_H-M	'P 1'

loop_
_symmetry_equiv_pos_as_xyz
  x,y,z

loop_
_atom_site_label
_atom_site_type_symbol
_atom_site_fract_x
_atom_site_fract_y
_atom_site_fract_z
_atom_site_charge
C 	C 	0.71306 0.33374 0.98200 0.11200
N 	N 	0.62434 0.28096 0.98590 -0.14000
C 	C 	0.59114 0.31863 0.98685 0.12400
N 	N 	0.64439 0.40984 0.98092 -0.13700
C 	C 	0.73512 0.46182 0.98073 0.11200
N 	N 	0.76952 0.42405 0.98078 -0.13800
C 	C 	0.68244 0.26873 0.49189 0.10800
N 	N 	0.73875 0.35401 0.49791 -0.13900
C 	C 	0.70011 0.39041 0.49531 0.11200
N 	N 	0.60633 0.34269 0.48561 -0.13700
C 	C 	0.55131 0.25383 0.48599 0.11300
N 	N 	0.58882 0.21738 0.48772 -0.14000
C 	C 	0.31798 0.66812 0.18713 0.11100
N 	N 	0.41127 0.71930 0.19057 -0.13700
C 	C 	0.44783 0.68225 0.19196 0.11400
N 	N 	0.39227 0.59318 0.19259 -0.13700
C 	C 	0.29862 0.54559 0.18355 0.11300
N 	N 	0.26093 0.58247 0.18141 -0.13700
C 	C 	0.28840 0.60316 0.69757 0.11300
N 	N 	0.37760 0.65637 0.69418 -0.13800
C 	C 	0.41188 0.61922 0.69371 0.11500
N 	N 	0.35929 0.52805 0.69979 -0.13700
C 	C 	0.26814 0.47564 0.69941 0.11500
N 	N 	0.23262 0.51291 0.69882 -0.13700
Co	Co	0.02429 0.12475 0.06887 1.19400
Co	Co	0.11008 0.07170 0.04209 1.17600
Co	Co	0.13720 0.93312 0.04357 1.18000
C 	C 	0.29792 0.10703 0.06619 0.29200
O 	O 	0.03227 0.09936 0.18116 -0.38500
C 	C 	0.03123 0.02655 0.20453 0.26800
O 	O 	0.10200 0.17152 0.03206 -0.46900
C 	C 	0.10399 0.26406 0.10777 0.30600
C 	C 	0.78104 0.89182 0.14279 0.30800
C 	C 	0.14109 0.82917 0.13147 0.30300
O 	O 	0.03338 0.98245 0.18926 -0.35700
O 	O 	0.11488 0.82204 0.09395 -0.40100
O 	O 	0.12237 0.87072 0.13862 -0.38200
O 	O 	0.01666 0.22779 0.10147 -0.40400
O 	O 	0.12583 0.22212 0.10329 -0.39600
O 	O 	0.81238 0.87381 0.12798 -0.38200
O 	O 	0.07974 0.96465 0.06014 -0.75000
O 	O 	0.26382 0.02040 0.07744 -0.41100
O 	O 	0.25327 0.13308 0.06597 -0.39800
Co	Co	0.04735 0.98769 0.54734 1.19600
Co	Co	0.06969 0.84376 0.54944 1.17700
C 	C 	0.21792 0.04418 0.53501 0.27300
O 	O 	0.04807 0.09142 0.54097 -0.46800
C 	C 	0.06780 0.16097 0.64528 0.29200
C 	C 	0.70595 0.83171 0.61480 0.29400
C 	C 	0.13821 0.79639 0.64071 0.29000
O 	O 	0.16613 0.85373 0.60584 -0.38000
O 	O 	0.07190 0.78069 0.65017 -0.36400
O 	O 	0.00330 0.08921 0.66626 -0.39200
O 	O 	0.07730 0.15781 0.61363 -0.37200
O 	O 	0.74988 0.80559 0.61440 -0.38800
O 	O 	0.03469 0.88773 0.57240 -0.75200
O 	O 	0.16037 0.97456 0.51874 -0.38000
O 	O 	0.18746 0.06256 0.55014 -0.39200
C 	C 	0.05672 0.00088 0.80068 -0.05100
C 	C 	0.03077 0.97088 0.76703 0.08600
C 	C 	0.14682 0.07843 0.81079 -0.02500
C 	C 	0.17283 0.10907 0.84391 -0.03300
C 	C 	0.10800 0.06520 0.86637 -0.03600
C 	C 	0.13536 0.09520 0.90027 0.01000
H 	H 	0.07857 0.01068 0.74737 0.00700
H 	H 	0.19753 0.11425 0.79340 0.03200
H 	H 	0.24356 0.16771 0.85190 0.03700
H 	H 	0.20790 0.14902 0.91053 0.03400
C 	C 	0.04041 0.00204 0.24932 -0.10100
C 	C 	0.01179 0.97321 0.32278 0.08600
C 	C 	0.08989 0.05726 0.30735 -0.04700
C 	C 	0.10339 0.07131 0.27057 0.01100
H 	H 	0.15950 0.13767 0.25716 0.03400
C 	C 	0.18289 0.25112 0.69782 0.00900
C 	C 	0.12903 0.24694 0.65692 -0.07800
C 	C 	0.11390 0.31429 0.63165 0.00600
C 	C 	0.15077 0.38412 0.64737 -0.04200
C 	C 	0.20551 0.38887 0.68816 -0.00100
C 	C 	0.22026 0.32121 0.71346 -0.04400
H 	H 	0.19358 0.19850 0.71785 0.03100
H 	H 	0.07041 0.31046 0.60034 0.04200
H 	H 	0.14038 0.43694 0.62724 0.04900
H 	H 	0.26357 0.32486 0.74480 0.04500
C 	C 	0.48657 0.73429 0.63476 -0.04400
C 	C 	0.49028 0.67698 0.67465 -0.00100
C 	C 	0.55844 0.66134 0.69211 -0.04400
C 	C 	0.62385 0.70466 0.67030 0.01100
C 	C 	0.62217 0.76467 0.63105 -0.08400
C 	C 	0.55117 0.77666 0.61284 0.01100
H 	H 	0.43204 0.74411 0.62030 0.05000
H 	H 	0.56038 0.61527 0.72246 0.04700
H 	H 	0.67880 0.69540 0.68485 0.03300
H 	H 	0.54878 0.82233 0.58239 0.04200
C 	C 	0.15141 0.60019 0.68303 -0.04200
C 	C 	0.24869 0.64626 0.69354 -0.00000
C 	C 	0.30803 0.73766 0.69555 -0.04300
C 	C 	0.27104 0.78532 0.68203 0.00800
C 	C 	0.17442 0.74164 0.66745 -0.07400
C 	C 	0.11459 0.64767 0.67035 0.00600
H 	H 	0.10428 0.52901 0.68263 0.05200
H 	H 	0.38303 0.77314 0.70564 0.05200
H 	H 	0.31781 0.85746 0.68074 0.04100
H 	H 	0.03966 0.61287 0.65982 0.04400
C 	C 	0.17617 0.42257 0.10164 0.01200
C 	C 	0.17494 0.34464 0.12468 -0.08500
C 	C 	0.21365 0.33296 0.16767 0.00800
C 	C 	0.24560 0.39413 0.18777 -0.04500
C 	C 	0.24139 0.46904 0.16494 -0.00100
C 	C 	0.20669 0.48289 0.12172 -0.04400
H 	H 	0.14669 0.43263 0.06838 0.03500
H 	H 	0.21339 0.27327 0.18594 0.03900
H 	H 	0.27550 0.38441 0.22098 0.04500
H 	H 	0.20662 0.54241 0.10345 0.04900
C 	C 	0.54960 0.80600 0.14276 -0.04200
C 	C 	0.53742 0.74125 0.18110 -0.00000
C 	C 	0.59931 0.71679 0.20317 -0.04500
C 	C 	0.67291 0.75723 0.18728 0.01300
C 	C 	0.68707 0.82440 0.14971 -0.08300
C 	C 	0.62303 0.84612 0.12686 0.00900
H 	H 	0.50043 0.82314 0.12466 0.05000
H 	H 	0.58918 0.66502 0.23227 0.04700
H 	H 	0.72253 0.74064 0.20549 0.03100
H 	H 	0.63361 0.89841 0.09792 0.03900
C 	C 	0.28835 0.84387 0.17009 0.00700
C 	C 	0.19141 0.79034 0.16473 -0.07700
C 	C 	0.14160 0.69494 0.17727 0.01000
C 	C 	0.18394 0.65434 0.18688 -0.04300
C 	C 	0.27761 0.70898 0.18534 0.00100
C 	C 	0.33114 0.80376 0.17963 -0.04300
H 	H 	0.32867 0.91750 0.16210 0.04500
H 	H 	0.06736 0.65237 0.17495 0.03600
H 	H 	0.14268 0.58084 0.19367 0.05100
H 	H 	0.40459 0.84705 0.18033 0.05300
C 	C 	0.67057 0.13362 0.49977 -0.05000
C 	C 	0.72376 0.22831 0.49420 -0.00100
C 	C 	0.81782 0.28325 0.49316 -0.04900
H 	H 	0.59692 0.09013 0.49874 0.04400
C 	C 	0.75615 0.46673 0.51390 -0.00200
C 	C 	0.78934 0.45261 0.55719 -0.04600
C 	C 	0.81941 0.51326 0.57695 0.01000
H 	H 	0.78881 0.39281 0.57573 0.04300
C 	C 	0.37640 0.09095 0.55106 -0.00100
C 	C 	0.31148 0.11148 0.52766 -0.07700
C 	C 	0.32451 0.17689 0.48954 0.00700
C 	C 	0.39827 0.21708 0.47384 -0.04400
C 	C 	0.46142 0.19419 0.49662 -0.00400
C 	C 	0.44998 0.13083 0.53535 -0.04400
H 	H 	0.36655 0.03983 0.58037 0.02600
H 	H 	0.27412 0.19243 0.47088 0.03100
H 	H 	0.40761 0.26759 0.44435 0.04500
H 	H 	0.49999 0.11479 0.55392 0.04100
C 	C 	0.75164 0.29017 0.98536 -0.00300
C 	C 	0.69157 0.19866 0.98338 -0.05000
C 	C 	0.72787 0.15066 0.99634 0.01300
H 	H 	0.61660 0.16338 0.97378 0.04700
H 	H 	0.68064 0.07845 0.99771 0.02800
C 	C 	0.79880 0.54868 0.99198 0.00600
C 	C 	0.51700 0.20417 0.04601 -0.03900
C 	C 	0.51307 0.26124 0.00607 -0.02400
C 	C 	0.44495 0.27694 0.98865 -0.02100
C 	C 	0.37978 0.23386 0.01054 -0.01200
C 	C 	0.38160 0.17398 0.04984 -0.08000
C 	C 	0.45260 0.16199 0.06801 -0.00000
H 	H 	0.57151 0.19432 0.06043 0.03900
H 	H 	0.44285 0.32283 0.95826 0.04200
H 	H 	0.32487 0.24317 0.99603 0.04300
H 	H 	0.45512 0.11644 0.09849 0.03000
C 	C 	0.10555 0.05768 0.96610 0.31000
O 	O 	0.16726 0.04115 0.99140 -0.41900
O 	O 	0.06798 0.06986 0.98032 -0.39000
O 	O 	0.00487 0.94196 0.60502 -0.56400
O 	O 	0.74001 0.91831 0.60355 -0.37800
C 	C 	0.01515 0.98970 0.85530 0.07200
C 	C 	0.07092 0.05138 0.92295 -0.11000
H 	H 	0.81203 0.77818 0.77638 0.02700
C 	C 	0.71387 0.09384 0.50958 0.00400
H 	H 	0.67370 0.02024 0.51745 0.02800
C 	C 	0.78999 0.61967 0.96499 -0.04900
C 	C 	0.82814 0.69153 0.97960 0.01600
H 	H 	0.75080 0.61755 0.93302 0.04600
H 	H 	0.82276 0.74710 0.95822 0.03400
C 	C 	0.15287 0.12668 0.32847 -0.01600
C 	C 	0.13874 0.11387 0.36453 -0.05800
C 	C 	0.05866 0.03347 0.37881 0.02100
H 	H 	0.21364 0.19051 0.31717 0.03300
H 	H 	0.18962 0.16731 0.38107 0.04400
H 	H 	0.09852 0.07130 0.43346 0.04200
C 	C 	0.81093 0.14759 0.51526 -0.08800
C 	C 	0.82449 0.19405 0.01037 -0.09000
C 	C 	0.04471 0.02111 0.41510 -0.04100
Co	Co	0.01700 0.88651 0.09580 1.19500
C 	C 	0.75233 0.54182 0.49071 -0.04500
C 	C 	0.82181 0.59177 0.55353 -0.08700
C 	C 	0.78389 0.60332 0.51048 0.00800
H 	H 	0.72326 0.55157 0.45744 0.04600
H 	H 	0.78485 0.66334 0.49194 0.04000
H 	H 	0.83040 0.81682 0.41519 0.03900
O 	O 	0.00246 0.85095 0.01302 -0.37400
O 	O 	0.83215 0.08143 0.07181 -0.40400
H 	H 	0.84801 0.50312 0.61026 0.02700
C 	C 	0.84802 0.55141 0.03354 -0.05300
Co	Co	0.98528 0.05148 0.58335 1.16500
H 	H 	0.85378 0.49606 0.05487 0.04400
C 	C 	0.97143 0.91494 0.26787 0.04100
C 	C 	0.95788 0.89991 0.30473 -0.09700
H 	H 	0.92487 0.85996 0.25255 0.02400
H 	H 	0.90728 0.83125 0.31941 0.05400
H 	H 	0.85891 0.35671 0.48654 0.04700
C 	C 	0.87588 0.69339 0.02135 -0.08400
C 	C 	0.88509 0.62265 0.04829 0.00800
H 	H 	0.92409 0.62466 0.08030 0.03200
O 	O 	0.83963 0.89922 0.68930 -0.40600
C 	C 	0.90177 0.88306 0.71416 0.31800
O 	O 	0.93737 0.86931 0.69961 -0.39000
C 	C 	0.94062 0.89360 0.75675 -0.12300
C 	C 	0.99203 0.96410 0.35688 -0.02300
C 	C 	0.90615 0.88993 0.36844 -0.03500
H 	H 	0.84817 0.84315 0.34893 0.03900
Co	Co	0.95326 0.94947 0.13145 1.18900
C 	C 	0.93675 0.77893 0.03336 0.27600
Co	Co	0.92824 0.09224 0.12834 1.15500
O 	O 	0.96485 0.04901 0.10589 -0.79400
O 	O 	0.95297 0.84598 0.13779 -0.47100
O 	O 	0.99652 0.99546 0.07406 -0.57700
O 	O 	0.83803 0.96129 0.15911 -0.39900
C 	C 	0.86039 0.13899 0.03703 0.29000
O 	O 	0.92738 0.15526 0.02783 -0.38900
O 	O 	0.92632 0.78112 0.06504 -0.37900
Co	Co	0.97572 0.81231 0.60958 1.18100
Co	Co	0.89325 0.86665 0.63784 1.18400
C 	C 	0.89366 0.67269 0.57020 0.30700
Co	Co	0.86780 0.00629 0.63664 1.14900
O 	O 	0.92369 0.97394 0.61951 -0.74700
O 	O 	0.89974 0.76628 0.64706 -0.47200
C 	C 	0.96814 0.91148 0.47392 0.28300
O 	O 	0.96581 0.83789 0.49673 -0.39400
O 	O 	0.96596 0.95486 0.48958 -0.38500
C 	C 	0.86119 0.10860 0.54839 0.30100
O 	O 	0.88854 0.11649 0.58590 -0.42100
O 	O 	0.87933 0.06678 0.54107 -0.40700
O 	O 	0.98067 0.70834 0.57622 -0.42400
O 	O 	0.87285 0.71503 0.57511 -0.40000
C 	C 	0.88047 0.84005 0.78319 0.03000
C 	C 	0.90624 0.86818 0.81726 -0.06300
C 	C 	0.99141 0.95300 0.82421 0.01100
C 	C 	0.94816 0.95530 0.87446 -0.09200
C 	C 	0.97646 0.98506 0.90850 0.04700
H 	H 	0.86101 0.82283 0.83851 0.04500
H 	H 	0.87444 0.90760 0.86268 0.05500
H 	H 	0.92553 0.95317 0.92491 0.03300
C 	C 	0.89388 0.87754 0.40502 -0.00400
C 	C 	0.96509 0.94052 0.42962 -0.05100
C 	C 	0.86067 0.24299 0.50301 0.00900
H 	H 	0.93508 0.28574 0.50567 0.02700
C 	C 	0.84875 0.33598 0.99517 -0.04200
C 	C 	0.88485 0.28814 0.00729 -0.00100
H 	H 	0.89639 0.40725 0.99548 0.04700
H 	H 	0.95976 0.32275 0.01735 0.03300
