data_crystal

_cell_length_a 22.67425
_cell_length_b 22.59748
_cell_length_c 33.02651
_cell_angle_alpha 95.48149
_cell_angle_beta  95.48146
_cell_angle_gamma 126.01431

_symmetry_space_group_name_	'P 1'
_symmetry_space_group_name_H-M	'P 1'

loop_
_symmetry_equiv_pos_as_xyz
  x,y,z

loop_
_atom_site_label
_atom_site_type_symbol
_atom_site_fract_x
_atom_site_fract_y
_atom_site_fract_z
_atom_site_charge
C 	C 	0.02879 0.08462 0.00618 0.09600
N 	N 	0.10295 0.12366 0.00771 -0.13600
C 	C 	0.13605 0.08985 0.01185 0.11300
N 	N 	0.09465 0.01650 0.01442 -0.12900
C 	C 	0.02029 0.97718 0.01296 0.08300
N 	N 	0.98754 0.01144 0.00886 -0.12000
C 	C 	0.87458 0.96370 0.47071 0.10600
N 	N 	0.83849 0.89067 0.47291 -0.13900
C 	C 	0.87399 0.85905 0.47005 0.11100
N 	N 	0.94600 0.90087 0.46518 -0.13800
C 	C 	0.98248 0.97412 0.46322 0.10400
N 	N 	0.94655 0.00531 0.46596 -0.12800
Cu	Cu	0.69024 0.27338 0.01089 0.92800
Cu	Cu	0.73427 0.25697 0.92060 0.87100
Cu	Cu	0.73665 0.38668 0.95371 0.89700
Cu	Cu	0.70331 0.41988 0.03708 0.89300
C 	C 	0.69471 0.32141 0.09475 0.26300
O 	O 	0.58379 0.23125 0.01162 -0.37200
C 	C 	0.70076 0.32491 0.86425 0.26000
O 	O 	0.75391 0.38842 0.01185 -0.63800
O 	O 	0.67731 0.27654 0.95118 -0.64100
O 	O 	0.73132 0.21615 0.01034 -0.37400
O 	O 	0.80707 0.27990 0.96581 -0.44000
O 	O 	0.70864 0.38594 0.09030 -0.37500
O 	O 	0.79905 0.49401 0.96066 -0.38000
C 	C 	0.79755 0.53772 0.98942 0.28100
C 	C 	0.55567 0.26528 0.00055 0.28300
O 	O 	0.59910 0.33422 0.99466 -0.38700
O 	O 	0.74332 0.50975 0.01087 -0.39300
O 	O 	0.71472 0.28950 0.06986 -0.35800
C 	C 	0.78916 0.23659 0.99336 0.28500
O 	O 	0.73755 0.38496 0.89381 -0.38300
O 	O 	0.68664 0.26184 0.87151 -0.40900
H 	H 	0.80716 0.41767 0.02444 0.16500
H 	H 	0.62506 0.24924 0.93713 0.17000
Cu	Cu	0.67329 0.28850 0.43796 0.92800
Cu	Cu	0.70145 0.26813 0.53375 0.87000
Cu	Cu	0.57005 0.26130 0.49878 0.89600
Cu	Cu	0.52901 0.27650 0.41275 0.89200
C 	C 	0.59933 0.23987 0.35249 0.26000
O 	O 	0.71064 0.39062 0.42746 -0.36500
C 	C 	0.64154 0.31749 0.58735 0.26100
O 	O 	0.56074 0.22891 0.44135 -0.64200
O 	O 	0.67841 0.31705 0.49753 -0.64100
O 	O 	0.73264 0.24995 0.44363 -0.37500
O 	O 	0.67607 0.18637 0.49396 -0.43900
O 	O 	0.56802 0.27268 0.36137 -0.37900
O 	O 	0.46389 0.20148 0.49598 -0.38000
C 	C 	0.41614 0.19417 0.46574 0.28100
C 	C 	0.68304 0.42433 0.44118 0.27800
O 	O 	0.61670 0.38513 0.45092 -0.38600
O 	O 	0.43894 0.23883 0.43832 -0.39300
O 	O 	0.64900 0.24529 0.38046 -0.35500
C 	C 	0.71524 0.19720 0.46486 0.28500
O 	O 	0.57917 0.27617 0.55955 -0.38300
O 	O 	0.70234 0.32702 0.57977 -0.41100
H 	H 	0.52929 0.17411 0.43241 0.16300
H 	H 	0.70735 0.37127 0.50788 0.17000
C 	C 	0.64269 0.29484 0.75574 0.07400
C 	C 	0.58880 0.27585 0.72173 -0.08500
C 	C 	0.61104 0.32152 0.69183 0.01000
C 	C 	0.68475 0.38313 0.69539 0.07400
C 	C 	0.73803 0.40350 0.73018 -0.08500
C 	C 	0.71584 0.35733 0.75970 0.01000
N 	N 	0.62697 0.27884 0.79327 -0.15200
C 	C 	0.68860 0.33249 0.82126 -0.00000
C 	C 	0.74552 0.38134 0.80159 -0.04900
N 	N 	0.70149 0.39522 0.65756 -0.15200
C 	C 	0.63924 0.34175 0.62976 -0.00200
C 	C 	0.58178 0.29520 0.64993 -0.04500
H 	H 	0.53171 0.22726 0.71860 0.05100
H 	H 	0.79516 0.45206 0.73340 0.05000
H 	H 	0.79443 0.43656 0.81608 0.04700
H 	H 	0.53579 0.23781 0.63668 0.04700
H 	H 	0.57356 0.24517 0.79992 0.08100
H 	H 	0.75526 0.42331 0.65135 0.08400
C 	C 	0.63657 0.21678 0.25291 0.07600
C 	C 	0.69509 0.25249 0.23090 -0.08200
C 	C 	0.68921 0.28690 0.19927 0.01100
C 	C 	0.62611 0.28296 0.18851 0.07800
C 	C 	0.56632 0.24458 0.20919 -0.08400
C 	C 	0.57247 0.21122 0.24143 0.01300
N 	N 	0.64771 0.21672 0.29372 -0.15100
C 	C 	0.59176 0.21199 0.30862 0.00400
C 	C 	0.54364 0.20777 0.27690 -0.04900
N 	N 	0.61799 0.28977 0.14873 -0.15300
C 	C 	0.67391 0.29527 0.13356 0.00600
C 	C 	0.72042 0.29539 0.16423 -0.04300
H 	H 	0.74451 0.25590 0.23925 0.05300
H 	H 	0.51699 0.24131 0.20074 0.05200
H 	H 	0.50866 0.22489 0.28153 0.04700
H 	H 	0.75902 0.28334 0.15879 0.05100
H 	H 	0.69970 0.24024 0.31169 0.09400
H 	H 	0.56881 0.27410 0.13067 0.08200
C 	C 	0.83355 0.77885 0.47049 -0.00700
C 	C 	0.78252 0.74502 0.49707 -0.03000
C 	C 	0.74261 0.66858 0.49672 -0.04100
C 	C 	0.75305 0.62501 0.46966 -0.00100
C 	C 	0.80439 0.65886 0.44291 0.03000
C 	C 	0.84454 0.73562 0.44356 -0.05400
C 	C 	0.81464 0.61546 0.41568 -0.06600
C 	C 	0.77454 0.53911 0.41500 0.00800
C 	C 	0.72372 0.50495 0.44167 -0.07800
C 	C 	0.71287 0.54804 0.46895 -0.01700
H 	H 	0.77400 0.77802 0.51814 0.04000
H 	H 	0.70353 0.64335 0.51744 0.03700
H 	H 	0.88337 0.76146 0.42273 0.04900
H 	H 	0.85362 0.64080 0.39492 0.04500
H 	H 	0.78272 0.50633 0.39350 0.03900
H 	H 	0.67402 0.52204 0.48974 0.03800
C 	C 	0.83556 0.99755 0.47297 -0.01400
C 	C 	0.78909 0.98174 0.50199 -0.04200
C 	C 	0.75411 0.01585 0.50525 -0.02800
C 	C 	0.76506 0.06605 0.47942 -0.00500
C 	C 	0.81048 0.08093 0.44956 0.03000
C 	C 	0.84562 0.04665 0.44651 -0.04300
C 	C 	0.82082 0.13049 0.42346 -0.06600
C 	C 	0.78802 0.16666 0.42766 0.01000
C 	C 	0.74464 0.15402 0.45818 -0.08400
C 	C 	0.73213 0.10245 0.48351 -0.01500
H 	H 	0.78104 0.94391 0.52252 0.04100
H 	H 	0.71906 0.00371 0.52811 0.03400
H 	H 	0.88068 0.05811 0.42368 0.04800
H 	H 	0.85485 0.14162 0.40013 0.04600
H 	H 	0.79714 0.20522 0.40745 0.04000
H 	H 	0.69793 0.09156 0.50675 0.03300
C 	C 	0.06096 0.01980 0.45813 -0.00900
C 	C 	0.08821 0.07945 0.43685 -0.02800
C 	C 	0.16304 0.12484 0.43348 -0.04400
C 	C 	0.21165 0.11110 0.45123 0.00500
C 	C 	0.18442 0.05048 0.47207 0.01800
C 	C 	0.10917 0.00508 0.47542 -0.03700
C 	C 	0.23292 0.03650 0.48964 -0.04600
C 	C 	0.30807 0.08283 0.48706 -0.00000
C 	C 	0.33593 0.14404 0.46703 -0.07100
C 	C 	0.28731 0.15763 0.44879 -0.01900
H 	H 	0.05135 0.09067 0.42286 0.04000
H 	H 	0.18319 0.17084 0.41717 0.03800
H 	H 	0.08854 0.95935 0.49204 0.03600
H 	H 	0.21253 0.98985 0.50543 0.03000
H 	H 	0.34469 0.07105 0.50065 0.03600
H 	H 	0.30838 0.20478 0.43332 0.04200
C 	C 	0.84850 0.61943 0.99182 -0.07300
C 	C 	0.91155 0.65114 0.97326 0.00200
C 	C 	0.95898 0.72800 0.97467 -0.05300
C 	C 	0.94433 0.77432 0.99482 0.02300
C 	C 	0.88193 0.74311 0.01425 0.00200
C 	C 	0.83435 0.66588 0.01270 -0.01800
C 	C 	0.86745 0.78947 0.03458 -0.04100
C 	C 	0.91363 0.86600 0.03493 -0.03300
C 	C 	0.97488 0.89721 0.01494 0.00200
C 	C 	0.99067 0.85133 0.99534 -0.04700
H 	H 	0.92392 0.61626 0.95774 0.03700
H 	H 	0.00700 0.75142 0.95994 0.03400
H 	H 	0.78612 0.64200 0.02730 0.04100
H 	H 	0.82011 0.76622 0.04988 0.03600
H 	H 	0.90162 0.90108 0.05064 0.04000
H 	H 	0.03778 0.87519 0.97976 0.03900
C 	C 	0.99293 0.12106 0.00040 0.02000
C 	C 	0.01459 0.17085 0.97277 -0.05800
C 	C 	0.98050 0.20528 0.96691 -0.02100
C 	C 	0.92429 0.19034 0.98862 -0.01300
C 	C 	0.90283 0.14095 0.01684 0.04100
C 	C 	0.93724 0.10641 0.02255 -0.06600
C 	C 	0.84690 0.12637 0.03869 -0.07100
C 	C 	0.81124 0.15912 0.03190 0.01300
C 	C 	0.83096 0.20679 0.00304 -0.08700
C 	C 	0.88859 0.22331 0.98203 -0.01200
H 	H 	0.05734 0.18221 0.95545 0.04700
H 	H 	0.99749 0.24320 0.94527 0.03200
H 	H 	0.92106 0.06860 0.04426 0.05400
H 	H 	0.83052 0.08915 0.06071 0.04800
H 	H 	0.76770 0.14673 0.04877 0.04000
H 	H 	0.90479 0.26074 0.96013 0.03200
C 	C 	0.21657 0.13267 0.01326 -0.00600
C 	C 	0.26482 0.20717 0.03411 -0.03100
C 	C 	0.34084 0.24931 0.03399 -0.03900
C 	C 	0.36965 0.21738 0.01315 -0.00300
C 	C 	0.32143 0.14237 0.99218 0.03200
C 	C 	0.24503 0.10035 0.99232 -0.05500
C 	C 	0.35042 0.11026 0.97170 -0.06800
C 	C 	0.42686 0.15156 0.97304 0.01300
C 	C 	0.47505 0.22561 0.99447 -0.08400
C 	C 	0.44622 0.25890 0.01376 -0.01100
H 	H 	0.24335 0.23242 0.05053 0.04200
H 	H 	0.37732 0.30668 0.05027 0.03600
H 	H 	0.20777 0.04305 0.97585 0.04900
H 	H 	0.31395 0.05298 0.95527 0.04500
H 	H 	0.44881 0.12568 0.95789 0.02600
H 	H 	0.48356 0.31603 0.03049 0.02900
