data_crystal

_cell_length_a 27.53268
_cell_length_b 28.44431
_cell_length_c 26.12256
_cell_angle_alpha 89.93609
_cell_angle_beta  89.92657
_cell_angle_gamma 90.92467

_symmetry_space_group_name_	'P 1'
_symmetry_space_group_name_H-M	'P 1'

loop_
_symmetry_equiv_pos_as_xyz
  x,y,z

loop_
_atom_site_label
_atom_site_type_symbol
_atom_site_fract_x
_atom_site_fract_y
_atom_site_fract_z
_atom_site_charge
Zn	Zn	0.52263 0.49582 0.98524 1.23100
C 	C 	0.56210 0.58700 0.95995 0.29300
O 	O 	0.58761 0.47653 0.96458 -0.42500
O 	O 	0.59976 0.57186 0.98556 -0.42600
O 	O 	0.61630 0.48459 0.04593 -0.49600
C 	C 	0.48836 0.55413 0.06404 0.30400
O 	O 	0.49087 0.51029 0.04937 -0.46900
O 	O 	0.52881 0.57785 0.07211 -0.48500
C 	C 	0.62080 0.46773 0.99925 0.31900
O 	O 	0.50265 0.41677 0.00252 -0.33500
Zn	Zn	0.59086 0.54746 0.05926 1.17100
O 	O 	0.52320 0.55980 0.95554 -0.40700
C 	C 	0.47405 0.41937 0.96328 0.33100
O 	O 	0.47457 0.45959 0.93986 -0.36700
Zn	Zn	0.32835 0.17901 0.01013 1.21900
C 	C 	0.34283 0.19375 0.11719 0.33500
O 	O 	0.28370 0.13386 0.04291 -0.43700
O 	O 	0.29799 0.20723 0.12479 -0.43200
O 	O 	0.22247 0.18673 0.04594 -0.48300
C 	C 	0.33058 0.27894 0.99915 0.32200
O 	O 	0.32522 0.23905 0.97456 -0.45000
O 	O 	0.31141 0.28387 0.04480 -0.48100
C 	C 	0.23809 0.14366 0.05229 0.30300
O 	O 	0.31456 0.14262 0.92982 -0.30300
Zn	Zn	0.25983 0.24171 0.06871 1.18000
O 	O 	0.36300 0.19960 0.07199 -0.44000
C 	C 	0.35821 0.12678 0.93528 0.29200
O 	O 	0.38016 0.13908 0.97705 -0.36100
C 	C 	0.46916 0.02347 0.32064 0.16100
C 	C 	0.44226 0.05790 0.29543 -0.05600
H 	H 	0.42290 0.08387 0.31750 0.09900
C 	C 	0.44031 0.05865 0.24180 0.05400
C 	C 	0.46658 0.02583 0.21345 -0.00200
C 	C 	0.49503 0.99255 0.23859 0.03800
C 	C 	0.49524 0.99060 0.29220 -0.06700
H 	H 	0.51664 0.96448 0.31178 0.08600
N 	N 	0.47092 0.02250 0.37560 -0.16700
C 	C 	0.43918 0.99375 0.40204 0.18900
C 	C 	0.44176 0.99075 0.45576 -0.06000
C 	C 	0.47672 0.01799 0.48198 0.04400
C 	C 	0.50838 0.04790 0.45445 -0.05000
C 	C 	0.50493 0.04967 0.40072 0.19700
C 	C 	0.41018 0.96077 0.48353 -0.00700
C 	C 	0.41371 0.95782 0.53685 -0.00600
C 	C 	0.44880 0.98490 0.56329 -0.06300
C 	C 	0.48015 0.01516 0.53580 0.04500
C 	C 	0.51502 0.04249 0.56202 -0.05100
C 	C 	0.54314 0.07533 0.48093 -0.00400
C 	C 	0.54641 0.07268 0.53428 -0.00300
C 	C 	0.45318 0.98214 0.61690 0.18800
N 	N 	0.48752 0.00895 0.64198 -0.17200
C 	C 	0.51802 0.03905 0.61568 0.19700
C 	C 	0.49164 0.00544 0.69668 0.16900
C 	C 	0.46159 0.03223 0.72831 -0.08300
C 	C 	0.46676 0.03011 0.78164 0.07700
C 	C 	0.50084 0.99994 0.80328 -0.07500
C 	C 	0.53161 0.97391 0.77177 0.08300
C 	C 	0.52671 0.97633 0.71846 -0.11600
O 	O 	0.53474 0.07723 0.37438 -0.15200
O 	O 	0.40629 0.96868 0.37698 -0.16400
O 	O 	0.42433 0.95353 0.64312 -0.19200
O 	O 	0.55024 0.06487 0.64082 -0.15100
H 	H 	0.55047 0.95628 0.69395 0.08600
H 	H 	0.43505 0.05527 0.71139 0.09300
H 	H 	0.56774 0.09871 0.46035 0.07000
H 	H 	0.57347 0.09406 0.55387 0.07000
H 	H 	0.38296 0.93958 0.46397 0.06300
H 	H 	0.38914 0.93443 0.55742 0.05900
H 	H 	0.50438 0.99776 0.84456 0.09300
H 	H 	0.46578 0.02687 0.17196 0.08800
Zn	Zn	0.65003 0.85617 0.00909 1.22200
C 	C 	0.60510 0.87128 0.10788 0.33600
O 	O 	0.72074 0.85754 0.01998 -0.43600
O 	O 	0.60810 0.82588 0.11627 -0.44800
O 	O 	0.71540 0.84192 0.10519 -0.47400
C 	C 	0.60807 0.76442 0.01119 0.34300
O 	O 	0.59786 0.80909 0.00672 -0.45900
O 	O 	0.64426 0.75137 0.04028 -0.50400
C 	C 	0.73973 0.85936 0.06611 0.29300
O 	O 	0.66163 0.84034 0.92090 -0.28700
Zn	Zn	0.66967 0.78996 0.09583 1.17400
O 	O 	0.62970 0.89087 0.07016 -0.42500
C 	C 	0.64872 0.88361 0.91417 0.28500
O 	O 	0.63887 0.90638 0.95560 -0.31800
Zn	Zn	0.21901 0.65246 0.98148 1.22900
C 	C 	0.18200 0.64823 0.08431 0.33300
O 	O 	0.16395 0.69563 0.97849 -0.43100
O 	O 	0.18640 0.69423 0.08735 -0.44500
O 	O 	0.21268 0.75789 0.99867 -0.49400
C 	C 	0.31217 0.65688 0.03069 0.32000
O 	O 	0.28997 0.65559 0.98613 -0.42300
O 	O 	0.29359 0.68089 0.06862 -0.48600
C 	C 	0.17077 0.74122 0.98247 0.35100
O 	O 	0.22668 0.65651 0.89116 -0.28900
Zn	Zn	0.24594 0.72909 0.05622 1.17200
O 	O 	0.20586 0.62513 0.04906 -0.43800
C 	C 	0.20807 0.61424 0.89177 0.28300
O 	O 	0.19754 0.59777 0.93666 -0.31900
C 	C 	0.02335 0.50060 0.28667 0.14500
C 	C 	0.99420 0.46875 0.25894 -0.09400
H 	H 	0.97247 0.44251 0.27905 0.08600
C 	C 	0.99419 0.47012 0.20526 0.08000
C 	C 	0.02284 0.50379 0.17946 -0.06500
C 	C 	0.05178 0.53578 0.20713 0.06300
C 	C 	0.05218 0.53394 0.26071 -0.07500
H 	H 	0.07543 0.55785 0.28220 0.09000
N 	N 	0.02538 0.49782 0.34157 -0.17800
C 	C 	0.05649 0.46684 0.36422 0.19400
C 	C 	0.06298 0.46715 0.41767 -0.05600
C 	C 	0.03689 0.49913 0.44755 0.03800
C 	C 	0.00426 0.52980 0.42395 -0.06500
C 	C 	0.99856 0.52826 0.37041 0.20500
C 	C 	0.09557 0.43641 0.44153 -0.00600
C 	C 	0.10203 0.43768 0.49461 -0.00800
C 	C 	0.07595 0.46964 0.52474 -0.05400
C 	C 	0.04349 0.50047 0.50111 0.03400
C 	C 	0.01750 0.53254 0.53098 -0.05800
C 	C 	0.97832 0.56189 0.45405 0.00100
C 	C 	0.98496 0.56332 0.50711 -0.00300
C 	C 	0.08124 0.47081 0.57833 0.19300
N 	N 	0.05443 0.50128 0.60715 -0.17800
C 	C 	0.02395 0.53280 0.58444 0.19400
C 	C 	0.05561 0.49780 0.66203 0.15400
C 	C 	0.02113 0.46958 0.68754 -0.11600
C 	C 	0.02228 0.46558 0.74099 0.07600
C 	C 	0.05823 0.48982 0.76893 -0.09400
C 	C 	0.09272 0.51829 0.74356 0.07900
C 	C 	0.09131 0.52233 0.69003 -0.11000
O 	O 	0.96780 0.55662 0.34780 -0.16200
O 	O 	0.08106 0.43727 0.33569 -0.18700
O 	O 	0.11136 0.44189 0.60102 -0.18300
O 	O 	0.00002 0.56290 0.61290 -0.18500
H 	H 	0.11785 0.54426 0.67022 0.08500
H 	H 	0.99343 0.45093 0.66577 0.08700
H 	H 	0.95307 0.58586 0.43651 0.06300
H 	H 	0.96462 0.58828 0.52953 0.06300
H 	H 	0.11600 0.41153 0.41910 0.06100
H 	H 	0.12725 0.41369 0.51216 0.06200
H 	H 	0.05927 0.48668 0.81030 0.08400
H 	H 	0.02350 0.50436 0.13794 0.09000
Zn	Zn	0.88155 0.32311 0.96517 1.23300
C 	C 	0.89489 0.34709 0.85945 0.31500
O 	O 	0.82788 0.36619 0.95289 -0.38600
O 	O 	0.85009 0.33347 0.84950 -0.39500
O 	O 	0.77420 0.30834 0.92989 -0.47700
C 	C 	0.89733 0.22757 0.93426 0.29700
O 	O 	0.89086 0.25573 0.97344 -0.42100
O 	O 	0.87704 0.23672 0.89001 -0.46300
C 	C 	0.78297 0.35081 0.94765 0.35700
O 	O 	0.86587 0.32678 0.05446 -0.27400
Zn	Zn	0.81962 0.27546 0.88568 1.18200
O 	O 	0.91684 0.33204 0.90071 -0.39700
C 	C 	0.90559 0.35195 0.05603 0.27700
O 	O 	0.92674 0.35946 0.01254 -0.31000
Zn	Zn	0.00931 0.97832 0.03556 1.21800
C 	C 	0.04505 0.88426 0.03226 0.30400
O 	O 	0.94837 0.97232 0.07405 -0.46800
O 	O 	0.06443 0.89419 0.07717 -0.43400
O 	O 	0.96585 0.90689 0.11945 -0.48000
C 	C 	0.09434 0.00175 0.09048 0.38900
O 	O 	0.07803 0.98784 0.04601 -0.46900
O 	O 	0.07119 0.98931 0.13242 -0.50400
C 	C 	0.93450 0.93222 0.09438 0.35600
O 	O 	0.00383 0.06032 0.04153 -0.33700
Zn	Zn	0.03046 0.93200 0.13394 1.17500
O 	O 	0.01476 0.91359 0.01036 -0.41900
C 	C 	0.99049 0.05893 0.99399 0.33500
O 	O 	0.98844 0.01736 0.97349 -0.34700
C 	C 	0.92568 0.18465 0.94077 -0.00700
C 	C 	0.96988 0.18658 0.96722 -0.04000
C 	C 	0.99349 0.14517 0.98015 0.08100
C 	C 	0.97257 0.10124 0.96793 -0.14000
C 	C 	0.92977 0.09933 0.93833 0.21300
C 	C 	0.90685 0.14110 0.92430 -0.09200
H 	H 	0.02689 0.14714 0.00201 0.03000
H 	H 	0.87317 0.13943 0.90289 0.08600
H 	H 	0.98529 0.22014 0.97902 0.09600
O 	O 	0.90964 0.05686 0.92423 -0.25900
H 	H 	0.88599 0.04880 0.95167 0.17100
C 	C 	0.98575 0.43606 0.76781 -0.02000
C 	C 	0.98313 0.38760 0.75852 -0.00500
C 	C 	0.95099 0.35907 0.78645 -0.02100
C 	C 	0.92102 0.37862 0.82397 0.01900
C 	C 	0.92128 0.42797 0.83151 -0.10300
C 	C 	0.95441 0.45630 0.80363 0.05100
H 	H 	0.95062 0.32141 0.78024 0.05600
H 	H 	0.95641 0.49388 0.81023 0.08000
H 	H 	0.00701 0.37182 0.73061 0.04800
C 	C 	0.88805 0.45006 0.87083 0.78100
F 	F 	0.90291 0.43770 0.91951 -0.44600
F 	F 	0.88867 0.49864 0.86727 -0.43700
F 	F 	0.84073 0.43450 0.86339 -0.44400
C 	C 	0.96684 0.43445 0.17580 -0.02500
C 	C 	0.92073 0.44473 0.15669 -0.00000
C 	C 	0.89869 0.41513 0.12063 -0.02700
C 	C 	0.92261 0.37502 0.10321 0.04500
C 	C 	0.96685 0.36179 0.12638 -0.11400
C 	C 	0.98934 0.39255 0.16166 0.06300
H 	H 	0.86425 0.42484 0.10401 0.06900
H 	H 	0.02502 0.38483 0.17665 0.06700
H 	H 	0.90298 0.47684 0.16793 0.06300
C 	C 	0.99154 0.31657 0.11124 0.79100
F 	F 	0.01424 0.32261 0.06440 -0.45300
F 	F 	0.02598 0.30385 0.14703 -0.45300
F 	F 	0.95777 0.28016 0.10767 -0.44400
C 	C 	0.06398 0.84449 0.00329 -0.04600
C 	C 	0.05542 0.79872 0.02156 -0.02200
C 	C 	0.08769 0.76290 0.00965 0.01300
C 	C 	0.12899 0.77275 0.97972 -0.12400
C 	C 	0.13388 0.81699 0.95583 0.19400
C 	C 	0.10091 0.85255 0.96718 -0.06200
H 	H 	0.08286 0.72864 0.02729 0.05500
H 	H 	0.10671 0.88748 0.95145 0.08100
H 	H 	0.02619 0.79186 0.04851 0.06000
O 	O 	0.17129 0.82576 0.92221 -0.27700
H 	H 	0.19768 0.84013 0.94308 0.16000
C 	C 	0.12971 0.54444 0.77337 -0.02600
C 	C 	0.12617 0.59320 0.77926 -0.00600
C 	C 	0.15529 0.61685 0.81497 -0.02800
C 	C 	0.18838 0.59199 0.84509 0.03600
C 	C 	0.19639 0.54380 0.83473 -0.10900
C 	C 	0.16550 0.51997 0.80015 0.05500
H 	H 	0.14996 0.65402 0.82151 0.06600
H 	H 	0.16839 0.48231 0.79508 0.07600
H 	H 	0.09908 0.61239 0.75809 0.05300
C 	C 	0.23601 0.51719 0.86211 0.78300
F 	F 	0.24904 0.47771 0.83470 -0.44200
F 	F 	0.27717 0.54526 0.86785 -0.43900
F 	F 	0.21953 0.50312 0.90982 -0.43800
C 	C 	0.15033 0.62236 0.12030 -0.12500
C 	C 	0.16470 0.57871 0.13938 0.06100
C 	C 	0.13282 0.55149 0.16895 -0.09400
C 	C 	0.08603 0.56741 0.17985 0.10500
C 	C 	0.07177 0.61246 0.16272 -0.16700
C 	C 	0.10426 0.63953 0.13255 0.11400
H 	H 	0.14410 0.51736 0.18256 0.07000
H 	H 	0.09333 0.67319 0.11733 0.05600
H 	H 	0.20044 0.56549 0.13057 0.03800
C 	C 	0.02169 0.63092 0.17522 0.79400
F 	F 	0.01628 0.67683 0.15876 -0.45600
F 	F 	0.98665 0.60322 0.15154 -0.44600
F 	F 	0.01418 0.62988 0.22757 -0.45100
C 	C 	0.78916 0.87937 0.07369 -0.00900
C 	C 	0.81199 0.87618 0.12168 -0.04400
C 	C 	0.85926 0.89375 0.12838 0.05100
C 	C 	0.88423 0.91494 0.08739 -0.15300
C 	C 	0.86137 0.91854 0.03933 0.20800
C 	C 	0.81407 0.90084 0.03267 -0.11400
H 	H 	0.87644 0.89093 0.16553 0.03400
H 	H 	0.79699 0.90355 0.99546 0.13100
H 	H 	0.79334 0.85978 0.15373 0.05900
O 	O 	0.88609 0.93708 0.99817 -0.26600
H 	H 	0.87775 0.97086 0.99758 0.17100
C 	C 	0.57049 0.94615 0.79488 -0.01600
C 	C 	0.56219 0.89861 0.80637 -0.01400
C 	C 	0.59246 0.87562 0.84083 -0.02500
C 	C 	0.63100 0.90019 0.86434 0.03100
C 	C 	0.64417 0.94561 0.84632 -0.09700
C 	C 	0.61257 0.96899 0.81295 0.04300
H 	H 	0.58332 0.84006 0.85276 0.05700
H 	H 	0.61934 0.00556 0.80315 0.11300
H 	H 	0.53034 0.88045 0.79148 0.04800
C 	C 	0.68962 0.97058 0.86551 0.77500
F 	F 	0.72661 0.93892 0.87302 -0.43700
F 	F 	0.70580 0.00385 0.83043 -0.42100
F 	F 	0.67964 0.99287 0.91124 -0.42200
C 	C 	0.57867 0.90117 0.14411 -0.12700
C 	C 	0.53412 0.88590 0.16466 0.05900
C 	C 	0.50767 0.91550 0.19649 -0.10100
C 	C 	0.52568 0.96052 0.20868 0.11700
C 	C 	0.57194 0.97535 0.19028 -0.18100
C 	C 	0.59759 0.94568 0.15709 0.12100
H 	H 	0.47262 0.90377 0.21100 0.07600
H 	H 	0.63224 0.95709 0.14132 0.06900
H 	H 	0.51935 0.85153 0.15493 0.02800
C 	C 	0.59323 0.02317 0.20465 0.80800
F 	F 	0.64107 0.02813 0.18889 -0.43500
F 	F 	0.56660 0.05821 0.18177 -0.44800
F 	F 	0.59212 0.02900 0.25719 -0.44300
C 	C 	0.20404 0.10597 0.06870 -0.01700
C 	C 	0.16142 0.11701 0.09546 -0.03600
C 	C 	0.12734 0.08171 0.10739 0.05700
C 	C 	0.13538 0.03515 0.09247 -0.16300
C 	C 	0.17973 0.02346 0.06930 0.23400
C 	C 	0.21380 0.05883 0.05729 -0.09300
H 	H 	0.09343 0.09100 0.12557 0.04500
H 	H 	0.24703 0.04971 0.03767 0.09200
H 	H 	0.15419 0.15304 0.10605 0.06000
O 	O 	0.18852 0.97785 0.05551 -0.30300
H 	H 	0.20481 0.96372 0.08553 0.16200
C 	C 	0.38451 0.10525 0.89251 -0.09600
C 	C 	0.36271 0.06891 0.86414 0.05000
C 	C 	0.38897 0.04609 0.82600 -0.08400
C 	C 	0.43699 0.06002 0.81505 0.09800
C 	C 	0.45767 0.09969 0.84028 -0.15600
C 	C 	0.43179 0.12072 0.88047 0.10900
H 	H 	0.37255 0.01649 0.80607 0.07000
H 	H 	0.44829 0.14912 0.90230 0.07100
H 	H 	0.32597 0.05722 0.87283 0.04400
C 	C 	0.50789 0.11836 0.82605 0.79600
F 	F 	0.51530 0.16368 0.84404 -0.43700
F 	F 	0.54280 0.08984 0.84715 -0.43500
F 	F 	0.51358 0.11944 0.77343 -0.44000
C 	C 	0.36579 0.16261 0.15463 -0.12700
C 	C 	0.41507 0.16848 0.16643 0.06800
C 	C 	0.43848 0.13544 0.19681 -0.09500
C 	C 	0.41314 0.09562 0.21505 0.11800
C 	C 	0.36293 0.08984 0.20426 -0.17200
C 	C 	0.33954 0.12398 0.17443 0.11800
H 	H 	0.47684 0.14003 0.20501 0.10000
H 	H 	0.30144 0.11968 0.16489 0.06000
H 	H 	0.43551 0.19827 0.15130 0.04200
C 	C 	0.33469 0.04700 0.22349 0.79900
F 	F 	0.28659 0.04748 0.20812 -0.45200
F 	F 	0.35526 0.00648 0.20464 -0.45600
F 	F 	0.33562 0.04588 0.27640 -0.44700
C 	C 	0.36314 0.31581 0.97850 -0.02500
C 	C 	0.40808 0.30372 0.95727 -0.02400
C 	C 	0.44312 0.33860 0.94712 0.04400
C 	C 	0.43335 0.38586 0.95755 -0.13100
C 	C 	0.38647 0.39841 0.97370 0.21500
C 	C 	0.35174 0.36333 0.98471 -0.08100
H 	H 	0.47887 0.32862 0.93407 0.05200
H 	H 	0.31660 0.37302 0.99978 0.08900
H 	H 	0.41696 0.26713 0.95149 0.06700
O 	O 	0.37592 0.44459 0.98296 -0.28500
H 	H 	0.36262 0.45662 0.95029 0.19500
C 	C 	0.44232 0.57939 0.05736 -0.04500
C 	C 	0.43440 0.62180 0.08318 -0.03400
C 	C 	0.39240 0.64741 0.07364 0.02500
C 	C 	0.35748 0.63063 0.03859 -0.13400
C 	C 	0.36504 0.58761 0.01330 0.17700
C 	C 	0.40761 0.56268 0.02212 -0.07900
H 	H 	0.38708 0.68041 0.09339 0.02700
H 	H 	0.41397 0.53072 0.00085 0.07600
H 	H 	0.46102 0.63526 0.11017 0.04400
O 	O 	0.33113 0.57004 0.97962 -0.21700
H 	H 	0.30902 0.54992 0.00054 0.15700
C 	C 	0.66247 0.43784 0.98621 -0.00800
C 	C 	0.66028 0.40812 0.94335 -0.03000
C 	C 	0.69983 0.38025 0.93064 0.04800
C 	C 	0.74211 0.38160 0.96061 -0.11300
C 	C 	0.74454 0.41151 0.00357 0.20200
C 	C 	0.70477 0.43935 0.01625 -0.10400
H 	H 	0.69761 0.35761 0.89737 0.04700
H 	H 	0.70699 0.46223 0.04934 0.07400
H 	H 	0.62781 0.40633 0.92001 0.07000
O 	O 	0.78471 0.41190 0.03459 -0.28700
H 	H 	0.80586 0.43773 0.02133 0.18200
C 	C 	0.55894 0.63758 0.94966 -0.01700
C 	C 	0.52612 0.66427 0.97821 -0.05500
C 	C 	0.53907 0.70995 0.99345 0.06100
C 	C 	0.58391 0.72946 0.97828 -0.15100
C 	C 	0.61105 0.70663 0.94031 0.20800
C 	C 	0.59850 0.66056 0.92612 -0.09900
H 	H 	0.51657 0.72818 0.02083 0.01000
H 	H 	0.62253 0.64110 0.90134 0.08900
H 	H 	0.49344 0.64794 0.99348 0.06800
O 	O 	0.65280 0.72715 0.92146 -0.28200
H 	H 	0.64258 0.74442 0.89039 0.16900
