data_crystal

_cell_length_a 26.59740
_cell_length_b 26.93583
_cell_length_c 26.59696
_cell_angle_alpha 95.51100
_cell_angle_beta  95.51337
_cell_angle_gamma 125.75097

_symmetry_space_group_name_	'P 1'
_symmetry_space_group_name_H-M	'P 1'

loop_
_symmetry_equiv_pos_as_xyz
  x,y,z

loop_
_atom_site_label
_atom_site_type_symbol
_atom_site_fract_x
_atom_site_fract_y
_atom_site_fract_z
_atom_site_charge
C 	C 	0.07334 0.03598 0.02007 0.13200
N 	N 	0.05124 0.07017 0.01562 -0.14400
N 	N 	0.98991 0.02369 0.44032 -0.14900
Br	Br	0.53747 0.19907 0.74928 -0.25300
C 	C 	0.19939 0.12807 0.45305 0.02200
C 	C 	0.23591 0.19043 0.44699 -0.04500
C 	C 	0.32716 0.19028 0.44635 0.00600
C 	C 	0.29069 0.12797 0.45298 -0.03400
C 	C 	0.22754 0.09745 0.45727 -0.04500
C 	C 	0.13216 0.09561 0.45669 -0.02800
C 	C 	0.08798 0.03709 0.43111 -0.07600
H 	H 	0.31095 0.10290 0.45406 0.04200
H 	H 	0.20045 0.04994 0.46367 0.04500
H 	H 	0.11881 0.11962 0.48062 0.04300
C 	C 	0.35968 0.15775 0.98340 0.01200
C 	C 	0.30989 0.09468 0.97976 -0.03700
C 	C 	0.24887 0.07621 0.98100 -0.04500
C 	C 	0.23731 0.12093 0.98708 0.02400
C 	C 	0.28672 0.18383 0.98941 -0.04600
C 	C 	0.17330 0.10187 0.99040 -0.04000
C 	C 	0.14083 0.06489 0.02315 -0.06400
C 	C 	0.42498 0.17742 0.98742 -0.00400
H 	H 	0.31856 0.05999 0.97628 0.04300
H 	H 	0.21067 0.02725 0.97765 0.04300
H 	H 	0.15259 0.11792 0.96580 0.04500
H 	H 	0.16240 0.05015 0.04843 0.05600
H 	H 	0.44084 0.15836 0.01335 0.06300
C 	C 	0.98871 0.04282 0.01284 0.13100
C 	C 	0.81114 0.14499 0.43624 0.00400
C 	C 	0.77840 0.08105 0.41773 -0.03600
C 	C 	0.81106 0.05512 0.41502 -0.04500
C 	C 	0.87679 0.09275 0.43193 0.02100
C 	C 	0.90968 0.15689 0.44945 -0.04500
C 	C 	0.87705 0.18284 0.45208 -0.03600
C 	C 	0.91197 0.06589 0.42931 -0.02600
C 	C 	0.89247 0.01347 0.44740 -0.08300
H 	H 	0.72758 0.05136 0.40564 0.03900
H 	H 	0.78532 0.00590 0.39978 0.04300
H 	H 	0.96045 0.18648 0.46193 0.04200
H 	H 	0.95616 0.09135 0.41532 0.04500
C 	C 	0.82878 0.15754 0.97903 -0.00300
C 	C 	0.88939 0.18267 0.96906 -0.03200
C 	C 	0.91493 0.15001 0.97396 -0.05100
C 	C 	0.88048 0.09217 0.98983 0.03000
C 	C 	0.81995 0.06711 0.99996 -0.06000
C 	C 	0.79398 0.09929 0.99423 -0.02800
C 	C 	0.90460 0.05459 0.99107 -0.04300
C 	C 	0.96541 0.08082 0.01038 -0.06200
C 	C 	0.76222 0.19088 0.99700 -0.16700
H 	H 	0.96062 0.16881 0.96395 0.04200
H 	H 	0.79246 0.02203 0.01124 0.05200
H 	H 	0.74614 0.07799 0.99998 0.03700
H 	H 	0.87149 0.00443 0.97802 0.04500
H 	H 	0.99844 0.13083 0.02411 0.05500
H 	H 	0.75355 0.16976 0.03101 0.09300
Br	Br	0.54435 0.17458 0.13477 -0.23200
H 	H 	0.10117 0.01376 0.40613 0.05600
C 	C 	0.77544 0.17054 0.44428 0.00700
H 	H 	0.73342 0.14417 0.46106 0.03200
C 	C 	0.79936 0.18887 0.96717 0.01500
H 	H 	0.41841 0.19021 0.49843 0.08200
C 	C 	0.02365 0.00056 0.44186 0.13500
C 	C 	0.43307 0.21584 0.46709 -0.14600
H 	H 	0.21494 0.21477 0.44448 0.04300
C 	C 	0.34781 0.20234 0.98815 -0.03600
O 	O 	0.67682 0.19932 0.99825 -0.37300
H 	H 	0.80918 0.21149 0.93394 0.02100
C 	C 	0.39293 0.22179 0.43842 0.01000
C 	C 	0.29937 0.22124 0.44323 -0.03500
O 	O 	0.55249 0.21776 0.99194 -0.35700
H 	H 	0.57404 0.22871 0.64838 0.06500
H 	H 	0.58508 0.21411 0.24798 0.05400
C 	C 	0.46463 0.21864 0.96013 -0.14000
H 	H 	0.27814 0.21856 0.99347 0.04200
C 	C 	0.72961 0.21818 0.98248 0.31300
O 	O 	0.72032 0.23016 0.47363 -0.44200
C 	C 	0.79323 0.22451 0.43013 -0.15400
H 	H 	0.90279 0.23201 0.46752 0.03800
H 	H 	0.59912 0.23415 0.90289 0.18200
O 	O 	0.53423 0.23618 0.48667 -0.38600
H 	H 	0.60259 0.22851 0.40755 0.16800
H 	H 	0.91613 0.22687 0.95626 0.03600
C 	C 	0.49734 0.24383 0.45709 0.31200
H 	H 	0.44803 0.23614 0.93308 0.07600
Cu	Cu	0.69759 0.24617 0.89188 0.87300
Cu	Cu	0.64373 0.24943 0.99750 0.92800
C 	C 	0.53247 0.24713 0.97122 0.30300
C 	C 	0.61844 0.24684 0.17904 0.12700
H 	H 	0.83249 0.24849 0.40996 0.08400
O 	O 	0.66447 0.25301 0.82822 -0.40200
H 	H 	0.40906 0.25152 0.40984 0.03700
C 	C 	0.62305 0.25135 0.23239 -0.04100
H 	H 	0.38609 0.25137 0.99210 0.04000
C 	C 	0.76160 0.25320 0.44307 0.30900
O 	O 	0.64180 0.25712 0.92416 -0.64100
O 	O 	0.75145 0.25880 0.95176 -0.44400
O 	O 	0.65938 0.25818 0.07083 -0.34300
H 	H 	0.84891 0.98890 0.46235 0.05900
N 	N 	0.03318 0.97495 0.02286 -0.14300
N 	N 	0.99680 0.94213 0.45086 -0.14500
Cu	Cu	0.65153 0.36963 0.02809 0.89700
C 	C 	0.65767 0.29719 0.10347 0.30200
C 	C 	0.67243 0.30444 0.81984 0.30500
O 	O 	0.63351 0.32540 0.08764 -0.37400
O 	O 	0.57331 0.30465 0.96540 -0.39600
O 	O 	0.69706 0.35256 0.85772 -0.38400
Cu	Cu	0.62534 0.28753 0.49565 0.89700
Cu	Cu	0.59633 0.31462 0.39432 0.89600
C 	C 	0.67344 0.31364 0.32064 0.30400
C 	C 	0.67425 0.30959 0.60708 0.30500
O 	O 	0.62576 0.27291 0.42346 -0.63800
O 	O 	0.64288 0.33539 0.33585 -0.37700
O 	O 	0.65814 0.39461 0.45594 -0.39900
O 	O 	0.51130 0.26394 0.41334 -0.39400
O 	O 	0.62579 0.28915 0.57005 -0.38200
C 	C 	0.66579 0.31288 0.76629 -0.08700
C 	C 	0.61258 0.26544 0.72919 0.12300
C 	C 	0.61374 0.26697 0.67683 -0.04000
C 	C 	0.66726 0.31604 0.66113 -0.08700
C 	C 	0.66655 0.29619 0.15859 -0.08100
C 	C 	0.67501 0.30495 0.26563 -0.08300
H 	H 	0.32687 0.26910 0.43770 0.03900
N 	N 	0.94844 0.98123 0.01473 -0.14300
C 	C 	0.97068 0.94733 0.02000 0.13800
C 	C 	0.92909 0.98810 0.44746 0.14000
N 	N 	0.90249 0.92954 0.45666 -0.14600
C 	C 	0.93642 0.90659 0.45833 0.13700
Cu	Cu	0.69163 0.34968 0.93105 0.89700
O 	O 	0.70029 0.34664 0.00281 -0.63500
O 	O 	0.74406 0.43988 0.94292 -0.38300
C 	C 	0.74090 0.47525 0.97850 0.30400
O 	O 	0.69428 0.45106 0.00458 -0.38900
H 	H 	0.74444 0.37122 0.02150 0.16600
Cu	Cu	0.72395 0.33292 0.42698 0.93000
Cu	Cu	0.73045 0.28257 0.53298 0.87300
O 	O 	0.74845 0.42042 0.42990 -0.35300
O 	O 	0.71854 0.33708 0.50053 -0.64300
O 	O 	0.77924 0.30530 0.42794 -0.36800
C 	C 	0.71611 0.43723 0.45043 0.30200
O 	O 	0.71418 0.31432 0.35379 -0.34700
O 	O 	0.72522 0.31599 0.59718 -0.40200
H 	H 	0.74210 0.37961 0.52115 0.18200
C 	C 	0.71643 0.36509 0.75069 -0.04000
C 	C 	0.71712 0.36712 0.69836 0.12400
Br	Br	0.78563 0.44063 0.67853 -0.25100
H 	H 	0.75643 0.40301 0.77913 0.06600
C 	C 	0.71997 0.34843 0.19184 -0.04100
C 	C 	0.72432 0.35319 0.24519 0.12800
Br	Br	0.79614 0.42757 0.28942 -0.23500
H 	H 	0.75711 0.38644 0.17624 0.05400
C 	C 	0.80224 0.60891 0.44172 0.01000
C 	C 	0.86556 0.65835 0.44341 -0.03500
C 	C 	0.88370 0.71878 0.44437 -0.04300
C 	C 	0.83863 0.73053 0.44398 0.02200
C 	C 	0.77522 0.68105 0.44200 -0.04400
C 	C 	0.75701 0.62050 0.44081 -0.03500
C 	C 	0.85670 0.79350 0.44080 -0.02700
C 	C 	0.90924 0.84453 0.47058 -0.07600
C 	C 	0.78270 0.54432 0.43510 0.00700
C 	C 	0.74202 0.50351 0.46215 -0.14200
H 	H 	0.90059 0.64978 0.44306 0.04500
H 	H 	0.93247 0.75613 0.44407 0.04600
H 	H 	0.73989 0.68932 0.44067 0.04300
H 	H 	0.70761 0.58245 0.43777 0.04100
H 	H 	0.82789 0.79820 0.41273 0.04400
H 	H 	0.93693 0.83966 0.49968 0.05700
H 	H 	0.80222 0.53025 0.40799 0.05400
H 	H 	0.72367 0.51803 0.49011 0.07700
C 	C 	0.90470 0.78025 0.03239 0.02400
C 	C 	0.92778 0.74654 0.01859 -0.04500
C 	C 	0.88968 0.68187 0.01442 -0.03100
C 	C 	0.82777 0.65016 0.02360 0.00300
C 	C 	0.80515 0.68401 0.03851 -0.03200
C 	C 	0.84346 0.74877 0.04310 -0.04500
C 	C 	0.78784 0.58205 0.02130 0.02000
C 	C 	0.78289 0.54332 0.98181 -0.15700
C 	C 	0.94667 0.84892 0.03897 -0.02700
C 	C 	0.92642 0.87992 0.01944 -0.07500
H 	H 	0.97543 0.77053 0.01139 0.04600
H 	H 	0.90862 0.65660 0.00489 0.04200
H 	H 	0.75799 0.66015 0.04684 0.04100
H 	H 	0.82593 0.77449 0.05576 0.04500
H 	H 	0.75970 0.56325 0.05087 0.03400
H 	H 	0.81010 0.56204 0.95171 0.08200
H 	H 	0.99599 0.87388 0.05653 0.04700
H 	H 	0.87712 0.85515 0.00201 0.05800
