data_crystal

_cell_length_a 24.62457
_cell_length_b 24.91903
_cell_length_c 23.27260
_cell_angle_alpha 95.48152
_cell_angle_beta  95.48044
_cell_angle_gamma 125.82299

_symmetry_space_group_name_	'P 1'
_symmetry_space_group_name_H-M	'P 1'

loop_
_symmetry_equiv_pos_as_xyz
  x,y,z

loop_
_atom_site_label
_atom_site_type_symbol
_atom_site_fract_x
_atom_site_fract_y
_atom_site_fract_z
_atom_site_charge
C 	C 	0.05970 0.02802 0.98411 -0.00400
C 	C 	0.03258 0.06446 0.98572 -0.03700
H 	H 	0.06562 0.11836 0.98700 0.05200
C 	C 	0.04000 0.01451 0.43908 -0.01100
C 	C 	0.00356 0.04136 0.43391 -0.02900
H 	H 	0.03091 0.09525 0.43703 0.04000
Cu	Cu	0.63556 0.24181 0.01616 0.93000
Cu	Cu	0.71141 0.25576 0.90448 0.87000
Cu	Cu	0.66598 0.33939 0.93182 0.89400
Cu	Cu	0.61689 0.35642 0.04016 0.89800
C 	C 	0.64058 0.29516 0.13291 0.28200
O 	O 	0.53334 0.19388 0.00518 -0.34200
C 	C 	0.67375 0.30031 0.81056 0.27800
O 	O 	0.68072 0.34436 0.01558 -0.63500
O 	O 	0.63375 0.24471 0.93118 -0.64200
O 	O 	0.68484 0.20071 0.02454 -0.34400
O 	O 	0.76565 0.27668 0.97818 -0.43700
O 	O 	0.60258 0.31167 0.10958 -0.37400
O 	O 	0.70393 0.43364 0.93693 -0.37000
C 	C 	0.70225 0.47067 0.98030 0.25000
C 	C 	0.50339 0.21496 0.97501 0.23900
O 	O 	0.53875 0.27790 0.96797 -0.36800
O 	O 	0.65461 0.44308 0.01272 -0.35800
O 	O 	0.65118 0.25678 0.10060 -0.34800
C 	C 	0.74482 0.22948 0.00962 0.26800
O 	O 	0.66043 0.33426 0.84614 -0.36900
O 	O 	0.67647 0.25252 0.82648 -0.41300
H 	H 	0.72856 0.37839 0.03609 0.16600
H 	H 	0.58946 0.21042 0.90465 0.17900
Cu	Cu	0.73292 0.33830 0.42846 0.92700
Cu	Cu	0.73026 0.27607 0.54720 0.87100
Cu	Cu	0.63819 0.31315 0.51626 0.89700
Cu	Cu	0.61930 0.36013 0.40667 0.89700
C 	C 	0.67442 0.32897 0.31159 0.28100
O 	O 	0.78447 0.43957 0.43463 -0.34900
C 	C 	0.68800 0.31728 0.63960 0.28200
O 	O 	0.63068 0.29704 0.43233 -0.63700
O 	O 	0.73436 0.34651 0.51453 -0.63800
O 	O 	0.76933 0.28439 0.42025 -0.34300
O 	O 	0.69881 0.21403 0.47664 -0.43200
O 	O 	0.65912 0.36800 0.33448 -0.37600
O 	O 	0.54271 0.27504 0.51184 -0.36700
C 	C 	0.50647 0.28021 0.47017 0.25500
C 	C 	0.76549 0.47252 0.46316 0.24900
O 	O 	0.70360 0.43966 0.47449 -0.36600
O 	O 	0.53606 0.32928 0.43994 -0.36500
O 	O 	0.71307 0.31819 0.34393 -0.34800
C 	C 	0.74066 0.22768 0.44010 0.25800
O 	O 	0.64282 0.31559 0.60209 -0.37100
O 	O 	0.73846 0.31922 0.62275 -0.41500
H 	H 	0.59524 0.24964 0.41263 0.16600
H 	H 	0.76896 0.39219 0.53820 0.17800
C 	C 	0.68057 0.31421 0.69989 -0.04600
C 	C 	0.67631 0.30912 0.75056 -0.04200
C 	C 	0.65478 0.30409 0.19576 -0.03700
C 	C 	0.66477 0.31404 0.24874 -0.03600
O 	O 	0.79582 0.58267 0.51323 -0.19000
C 	C 	0.81127 0.54651 0.47768 0.04200
C 	C 	0.86234 0.58491 0.44688 -0.05800
H 	H 	0.86828 0.56547 0.40618 0.06000
C 	C 	0.85559 0.07729 0.46142 0.11200
C 	C 	0.80965 0.08627 0.48308 -0.08500
C 	C 	0.80829 0.13835 0.46674 0.00200
C 	C 	0.84236 0.17280 0.42436 0.11700
C 	C 	0.88195 0.15794 0.39749 -0.09300
C 	C 	0.89157 0.11338 0.42062 0.02600
O 	O 	0.85425 0.02123 0.46551 -0.21400
C 	C 	0.89389 0.02783 0.42336 0.12600
O 	O 	0.81857 0.20595 0.40005 -0.18300
C 	C 	0.76658 0.18755 0.43217 0.03100
C 	C 	0.75830 0.14458 0.46991 -0.05800
H 	H 	0.77523 0.05302 0.50993 0.06400
H 	H 	0.72962 0.13301 0.50519 0.03800
C 	C 	0.32954 0.18042 0.41915 0.11900
C 	C 	0.26695 0.16690 0.39656 -0.09400
C 	C 	0.20787 0.11117 0.41071 0.02700
C 	C 	0.21126 0.07710 0.45240 0.11400
C 	C 	0.27444 0.09460 0.47898 -0.08400
C 	C 	0.33235 0.14320 0.45791 0.00600
O 	O 	0.39176 0.24197 0.42059 -0.19000
C 	C 	0.43201 0.23813 0.46422 0.04500
C 	C 	0.39637 0.18060 0.48800 -0.05700
O 	O 	0.15365 0.04241 0.47760 -0.21400
C 	C 	0.11497 0.05855 0.44659 0.12300
C 	C 	0.14835 0.10194 0.40854 -0.10400
H 	H 	0.26486 0.20044 0.37170 0.07100
H 	H 	0.27868 0.07382 0.51650 0.06800
H 	H 	0.41827 0.16280 0.51578 0.05600
H 	H 	0.12444 0.11104 0.37321 0.06200
O 	O 	0.74715 0.58614 0.03097 -0.18700
C 	C 	0.74646 0.54422 0.98592 0.03800
C 	C 	0.79876 0.57744 0.95515 -0.05500
H 	H 	0.79942 0.55746 0.91198 0.05800
C 	C 	0.80405 0.13825 0.96602 0.12900
C 	C 	0.80221 0.08287 0.94359 -0.10700
C 	C 	0.86418 0.09123 0.94973 0.03500
C 	C 	0.92263 0.14705 0.98554 0.08700
C 	C 	0.92256 0.19998 0.01243 -0.05300
C 	C 	0.86363 0.19620 0.99734 -0.02800
O 	O 	0.74600 0.13326 0.97318 -0.21100
C 	C 	0.77686 0.19506 0.01092 0.03400
C 	C 	0.84675 0.23110 0.02789 -0.03500
C 	C 	0.87024 0.04112 0.94704 -0.10000
H 	H 	0.75432 0.03470 0.92419 0.06900
H 	H 	0.88173 0.28425 0.04710 0.04800
C 	C 	0.21352 0.05561 0.97197 0.11400
C 	C 	0.26869 0.05306 0.98386 -0.09900
C 	C 	0.32344 0.09063 0.95480 0.01800
C 	C 	0.32894 0.13798 0.92419 0.11400
C 	C 	0.27551 0.14406 0.91627 -0.09100
C 	C 	0.21574 0.09748 0.93649 0.02300
O 	O 	0.16343 0.03240 0.00590 -0.20400
C 	C 	0.13322 0.06198 0.98530 0.11200
C 	C 	0.16708 0.10430 0.94641 -0.09900
O 	O 	0.39571 0.19030 0.92144 -0.19100
C 	C 	0.42940 0.16955 0.95319 0.04800
C 	C 	0.38687 0.11060 0.97343 -0.07400
H 	H 	0.27016 0.02524 0.01624 0.07600
H 	H 	0.28167 0.18525 0.89789 0.06900
H 	H 	0.14584 0.12130 0.91681 0.06100
H 	H 	0.40199 0.09663 0.01108 0.07000
C 	C 	0.93267 0.06792 0.98128 0.11200
C 	C 	0.96234 0.03075 0.98463 -0.00100
C 	C 	0.91292 0.08065 0.39416 -0.10400
H 	H 	0.90268 0.17865 0.35952 0.07200
H 	H 	0.95113 0.10096 0.36658 0.06300
O 	O 	0.96943 0.13601 0.00699 -0.19900
H 	H 	0.96526 0.24062 0.04549 0.06100
C 	C 	0.88258 0.64814 0.46238 0.00900
C 	C 	0.84293 0.64645 0.50145 0.11800
C 	C 	0.83546 0.64282 0.97929 -0.00500
C 	C 	0.80437 0.64775 0.02375 0.13000
H 	H 	0.79972 0.69480 0.53653 0.07000
H 	H 	0.93147 0.69241 0.38952 0.06800
H 	H 	0.88814 0.68900 0.90878 0.06500
C 	C 	0.83573 0.69848 0.51071 -0.09300
C 	C 	0.91051 0.69730 0.42681 -0.08700
C 	C 	0.87378 0.69632 0.94974 -0.07900
C 	C 	0.93196 0.99892 0.42647 -0.02000
C 	C 	0.01659 0.95828 0.98170 -0.03500
H 	H 	0.86651 0.93502 0.98574 0.04100
H 	H 	0.03718 0.92992 0.97963 0.06300
C 	C 	0.89724 0.92961 0.42622 -0.02600
H 	H 	0.84218 0.89680 0.42151 0.04800
H 	H 	0.03336 0.92474 0.44201 0.06200
C 	C 	0.87417 0.75338 0.48259 0.02400
C 	C 	0.90812 0.75183 0.44005 0.11600
O 	O 	0.92390 0.79804 0.40366 -0.21400
C 	C 	0.89885 0.83022 0.43062 0.12100
C 	C 	0.86487 0.80043 0.47545 -0.10200
C 	C 	0.81574 0.70913 0.04382 -0.09800
C 	C 	0.86349 0.76525 0.02069 0.03500
C 	C 	0.88995 0.75887 0.97343 0.10300
C 	C 	0.86845 0.82184 0.02191 -0.09700
H 	H 	0.78614 0.71209 0.07379 0.07200
H 	H 	0.86576 0.84837 0.05991 0.06300
H 	H 	0.82893 0.98801 0.93257 0.05700
C 	C 	0.90268 0.85107 0.97723 0.11200
C 	C 	0.92013 0.96101 0.98442 -0.04400
C 	C 	0.00510 0.94544 0.43788 -0.02800
H 	H 	0.85420 0.82427 0.50926 0.06400
O 	O 	0.91502 0.81133 0.94271 -0.21100
C 	C 	0.93397 0.90283 0.43164 -0.01200
C 	C 	0.94710 0.92472 0.98179 -0.00600
