data_crystal

_cell_length_a 16.38527
_cell_length_b 16.82212
_cell_length_c 43.98828
_cell_angle_alpha 89.56267
_cell_angle_beta  82.46127
_cell_angle_gamma 106.35073

_symmetry_space_group_name_	'P 1'
_symmetry_space_group_name_H-M	'P 1'

loop_
_symmetry_equiv_pos_as_xyz
  x,y,z

loop_
_atom_site_label
_atom_site_type_symbol
_atom_site_fract_x
_atom_site_fract_y
_atom_site_fract_z
_atom_site_charge
Zn	Zn	0.55741 0.26222 0.91244 1.21900
P 	P 	0.61994 0.41797 0.94542 0.31700
C 	C 	0.44328 0.21071 0.86849 0.33700
C 	C 	0.59102 0.15103 0.95959 0.31600
O 	O 	0.62814 0.34322 0.96564 -0.43100
O 	O 	0.58238 0.38335 0.91471 -0.41400
O 	O 	0.64101 0.23004 0.88317 -0.39500
O 	O 	0.44922 0.20658 0.89797 -0.40600
O 	O 	0.50931 0.25517 0.84945 -0.24600
O 	O 	0.53901 0.19383 0.95252 -0.41400
O 	O 	0.67420 0.18551 0.95645 -0.42900
Zn	Zn	0.50479 0.09498 0.56830 1.21800
P 	P 	0.56824 0.24833 0.52907 0.31500
C 	C 	0.33496 0.06446 0.59804 0.33300
C 	C 	0.58847 0.99600 0.52530 0.27300
O 	O 	0.65401 0.23379 0.51229 -0.44700
O 	O 	0.58480 0.29121 0.56093 -0.42200
O 	O 	0.56068 0.16547 0.59844 -0.42900
O 	O 	0.49409 0.16172 0.53357 -0.40300
O 	O 	0.38897 0.02850 0.58334 -0.42100
O 	O 	0.35941 0.14498 0.60125 -0.24500
O 	O 	0.55205 0.00052 0.55366 -0.41600
O 	O 	0.64730 0.06038 0.51144 -0.42000
Zn	Zn	0.02983 0.06253 0.76265 1.20800
P 	P 	0.01019 0.04276 0.69708 0.28400
O 	O 	0.98892 0.94618 0.70616 -0.41500
O 	O 	0.06685 0.10079 0.71991 -0.41100
O 	O 	0.20305 0.03829 0.74539 -0.24600
C 	C 	0.20342 0.08092 0.77027 0.30400
O 	O 	0.13323 0.09891 0.78210 -0.42100
Zn	Zn	0.47514 0.48120 0.35861 1.20200
Zn	Zn	0.30187 0.40672 0.39904 1.21700
Zn	Zn	0.50255 0.62202 0.40310 1.22300
P 	P 	0.47056 0.44800 0.42240 0.30400
P 	P 	0.35080 0.57423 0.37220 0.31600
C 	C 	0.52616 0.70213 0.45738 0.29200
C 	C 	0.62400 0.62053 0.34750 0.34900
C 	C 	0.36331 0.32852 0.34280 0.36200
O 	O 	0.48125 0.40415 0.39115 -0.43300
O 	O 	0.42931 0.57122 0.34764 -0.43900
O 	O 	0.37526 0.45600 0.42952 -0.42800
O 	O 	0.37991 0.59213 0.40517 -0.43700
O 	O 	0.54156 0.53587 0.41971 -0.41500
O 	O 	0.27785 0.48827 0.37282 -0.40600
O 	O 	0.54753 0.71355 0.42750 -0.40800
O 	O 	0.18295 0.47553 0.43478 -0.24100
O 	O 	0.47810 0.62938 0.46910 -0.23900
O 	O 	0.57398 0.66174 0.36214 -0.43800
O 	O 	0.33307 0.31769 0.37257 -0.43800
O 	O 	0.59808 0.53881 0.34753 -0.44000
O 	O 	0.41654 0.40000 0.33155 -0.45000
C 	C 	0.14600 0.39562 0.43382 0.28900
O 	O 	0.18772 0.34913 0.41834 -0.41300
Zn	Zn	0.36966 0.58616 0.11593 1.20100
Zn	Zn	0.22871 0.57071 0.07169 1.22500
Zn	Zn	0.47207 0.73733 0.06968 1.21900
P 	P 	0.30179 0.72559 0.10076 0.31500
P 	P 	0.40227 0.56534 0.04982 0.30700
C 	C 	0.55763 0.84095 0.01863 0.26600
C 	C 	0.53612 0.69154 0.12480 0.35300
C 	C 	0.20643 0.46043 0.12517 0.35300
O 	O 	0.29210 0.65466 0.12610 -0.43700
O 	O 	0.43972 0.55533 0.08066 -0.42800
O 	O 	0.27885 0.68856 0.06873 -0.43600
O 	O 	0.41078 0.66047 0.04212 -0.42700
O 	O 	0.39740 0.78595 0.09677 -0.41300
O 	O 	0.30455 0.51040 0.05325 -0.42100
O 	O 	0.55383 0.83323 0.04856 -0.41000
O 	O 	0.19570 0.63609 0.01484 -0.23600
O 	O 	0.54846 0.77462 0.00237 -0.23500
O 	O 	0.54871 0.69670 0.09443 -0.44400
O 	O 	0.18020 0.51979 0.11347 -0.45100
O 	O 	0.46236 0.64492 0.13960 -0.43700
O 	O 	0.28767 0.47513 0.12973 -0.43100
C 	C 	0.13322 0.56891 0.02417 0.25600
O 	O 	0.13061 0.53275 0.05095 -0.41200
Zn	Zn	0.06358 0.04310 0.24862 1.20100
Zn	Zn	0.06176 0.86841 0.26688 1.21200
P 	P 	0.12125 0.93900 0.20380 0.30900
C 	C 	0.03054 0.15191 0.20691 0.36000
C 	C 	0.14994 0.02040 0.29767 0.38100
O 	O 	0.13265 0.03371 0.20981 -0.43200
O 	O 	0.02436 0.89427 0.19865 -0.44900
O 	O 	0.15054 0.89732 0.23179 -0.41300
O 	O 	0.21893 0.85160 0.28956 -0.25200
O 	O 	0.01657 0.09280 0.18669 -0.42900
O 	O 	0.09009 0.94810 0.30140 -0.45200
O 	O 	0.01899 0.13167 0.23633 -0.46300
O 	O 	0.15622 0.06956 0.27357 -0.45200
C 	C 	0.15777 0.78128 0.29510 0.31300
O 	O 	0.08236 0.77423 0.28659 -0.42800
C 	C 	0.15030 0.38515 0.13157 -0.18200
C 	C 	0.15727 0.32980 0.15679 0.01700
C 	C 	0.09394 0.25941 0.16503 0.02100
C 	C 	0.07112 0.23103 0.19773 -0.18600
H 	H 	0.05075 0.23138 0.14880 0.04500
H 	H 	0.09037 0.37086 0.12185 0.09100
H 	H 	0.08942 0.27606 0.21505 0.09500
H 	H 	0.20512 0.35315 0.17199 0.04700
C 	C 	0.59935 0.73098 0.14073 -0.18000
H 	H 	0.58751 0.72682 0.16568 0.09800
C 	C 	0.19340 0.93154 0.17022 -0.08400
C 	C 	0.17529 0.86464 0.15328 -0.00300
C 	C 	0.24477 0.84083 0.13391 0.00000
C 	C 	0.22573 0.78075 0.11401 -0.08500
H 	H 	0.31095 0.86699 0.13790 0.05300
H 	H 	0.25754 0.97463 0.16686 0.07200
H 	H 	0.15994 0.75626 0.10943 0.06200
H 	H 	0.11032 0.82308 0.15592 0.05000
C 	C 	0.19759 0.04762 0.32002 -0.18700
C 	C 	0.27232 0.12217 0.31438 0.02500
C 	C 	0.28385 0.18374 0.33402 0.01700
C 	C 	0.34732 0.26479 0.32426 -0.18100
H 	H 	0.24265 0.17613 0.35597 0.04900
H 	H 	0.18442 0.01235 0.34180 0.10400
H 	H 	0.37933 0.27411 0.30067 0.10000
H 	H 	0.31360 0.13044 0.29240 0.04800
C 	C 	0.17480 0.70934 0.30942 -0.14400
C 	C 	0.23667 0.71977 0.32742 0.02400
C 	C 	0.25813 0.64760 0.33992 -0.01000
C 	C 	0.31164 0.65770 0.36101 -0.07800
H 	H 	0.23231 0.58656 0.33124 0.05600
H 	H 	0.13572 0.64731 0.30560 0.08400
H 	H 	0.33758 0.71865 0.36968 0.06100
H 	H 	0.27235 0.78199 0.33264 0.04300
C 	C 	0.57430 0.91557 0.51121 -0.04300
C 	C 	0.49097 0.86233 0.51259 -0.02000
C 	C 	0.47595 0.79135 0.49555 0.00700
C 	C 	0.54421 0.77288 0.47707 -0.08200
C 	C 	0.62874 0.82363 0.47710 0.07700
C 	C 	0.64335 0.89494 0.49405 -0.03600
H 	H 	0.41085 0.75188 0.49600 0.04600
H 	H 	0.43742 0.87753 0.52595 0.04500
C 	C 	0.06216 0.30490 0.47829 -0.02400
C 	C 	0.06416 0.35797 0.45332 -0.10200
C 	C 	0.99239 0.38688 0.45073 0.10100
H 	H 	0.11716 0.28270 0.48059 0.04600
I 	I 	0.98778 0.45917 0.41149 -0.06000
C 	C 	0.49540 0.39076 0.45274 -0.00300
C 	C 	0.58127 0.39540 0.45433 -0.02100
C 	C 	0.60381 0.36098 0.47971 -0.00400
C 	C 	0.54031 0.31702 0.50316 -0.04400
C 	C 	0.45401 0.31634 0.50257 0.07100
C 	C 	0.43188 0.35204 0.47705 -0.05000
H 	H 	0.67081 0.36602 0.48060 0.05400
H 	H 	0.36584 0.35165 0.47660 0.06300
H 	H 	0.63105 0.42716 0.43604 0.06300
I 	I 	0.35874 0.27509 0.54137 -0.07500
H 	H 	0.59233 0.98672 0.61965 0.03400
C 	C 	0.06842 0.06483 0.65906 -0.08400
C 	C 	0.13371 0.02870 0.64917 -0.00500
C 	C 	0.18998 0.05912 0.62222 0.02200
C 	C 	0.25652 0.01895 0.61049 -0.15900
H 	H 	0.18603 0.11398 0.60991 0.04600
H 	H 	0.05818 0.11338 0.64488 0.06700
H 	H 	0.24016 0.95167 0.61072 0.08300
H 	H 	0.14205 0.97810 0.66280 0.04500
C 	C 	0.07361 0.52885 0.00317 -0.00600
C 	C 	0.04265 0.57702 0.98394 -0.08000
H 	H 	0.06206 0.64402 0.98470 0.06200
C 	C 	0.55436 0.91958 0.00431 -0.03500
C 	C 	0.56409 0.99094 0.02142 -0.03500
C 	C 	0.56391 0.06576 0.00754 0.02900
C 	C 	0.55601 0.07067 0.97627 -0.08000
C 	C 	0.53825 0.99783 0.95984 0.06300
C 	C 	0.53812 0.92274 0.97377 -0.03900
H 	H 	0.52658 0.86731 0.96070 0.07100
H 	H 	0.57415 0.98914 0.04524 0.05900
I 	I 	0.51648 0.00076 0.91334 -0.08200
C 	C 	0.46028 0.52658 0.01850 -0.00200
C 	C 	0.54328 0.57249 0.00613 -0.02200
C 	C 	0.58735 0.54383 0.98121 0.00000
C 	C 	0.55039 0.46680 0.96909 -0.03800
C 	C 	0.46504 0.42210 0.98081 0.07100
C 	C 	0.42098 0.45191 0.00557 -0.04600
H 	H 	0.65200 0.57994 0.97226 0.06200
H 	H 	0.35605 0.41680 0.01466 0.07500
H 	H 	0.57450 0.62971 0.01617 0.05400
I 	I 	0.39782 0.31275 0.96090 -0.12100
C 	C 	0.28496 0.11691 0.78235 -0.12900
C 	C 	0.28707 0.13017 0.81369 0.00600
C 	C 	0.36549 0.16481 0.82455 0.01600
C 	C 	0.37040 0.16950 0.85801 -0.16500
H 	H 	0.42404 0.18593 0.80827 0.05200
H 	H 	0.34473 0.12921 0.76671 0.08400
H 	H 	0.31507 0.13625 0.87422 0.09700
H 	H 	0.22785 0.11209 0.82972 0.04600
Zn	Zn	0.71931 0.30197 0.94525 1.20800
P 	P 	0.73171 0.29927 0.87876 0.31600
O 	O 	0.72022 0.38999 0.87670 -0.43700
O 	O 	0.71181 0.48603 0.93817 -0.41700
O 	O 	0.73540 0.60690 0.88301 -0.24400
Zn	Zn	0.69120 0.15540 0.53504 1.20900
Zn	Zn	0.70533 0.32086 0.56708 1.21600
P 	P 	0.65452 0.15745 0.60047 0.31700
O 	O 	0.68127 0.10178 0.57447 -0.44200
O 	O 	0.72475 0.24640 0.59805 -0.40000
O 	O 	0.68085 0.39021 0.62960 -0.23900
C 	C 	0.68514 0.78050 0.12497 0.01600
C 	C 	0.74265 0.83113 0.14070 0.01100
H 	H 	0.72476 0.83978 0.16487 0.05000
H 	H 	0.85142 0.85456 0.10247 0.09600
H 	H 	0.70273 0.77336 0.10064 0.05100
C 	C 	0.72434 0.74975 0.32478 0.03500
C 	C 	0.70067 0.66335 0.32947 -0.17100
H 	H 	0.68329 0.78549 0.33545 0.04600
H 	H 	0.74116 0.62838 0.31787 0.09900
H 	H 	0.70829 0.93467 0.49373 0.06400
I 	I 	0.73582 0.79209 0.45310 -0.08200
C 	C 	0.65419 0.10279 0.63560 -0.08600
C 	C 	0.62747 0.01941 0.63728 0.01000
C 	C 	0.66822 0.99058 0.68805 -0.18100
H 	H 	0.62745 0.02612 0.69907 0.10400
H 	H 	0.57631 0.12141 0.02051 0.04400
H 	H 	0.76217 0.24476 0.82698 0.07800
C 	C 	0.83238 0.87056 0.12572 -0.16300
H 	H 	0.68867 0.13640 0.65320 0.08000
C 	C 	0.04982 0.44234 0.00146 -0.09500
H 	H 	0.07682 0.40517 0.01524 0.07300
H 	H 	0.77997 0.75761 0.86015 0.04800
O 	O 	0.78253 0.28956 0.90608 -0.43700
C 	C 	0.73099 0.44899 0.61021 0.30200
C 	C 	0.66386 0.97173 0.65737 0.02200
H 	H 	0.78216 0.58588 0.60333 0.08400
C 	C 	0.79463 0.28175 0.84433 -0.07600
Zn	Zn	0.78624 0.46176 0.90394 1.22000
C 	C 	0.88083 0.41296 0.94952 0.33000
O 	O 	0.88138 0.42748 0.91998 -0.43200
O 	O 	0.81208 0.36478 0.96615 -0.43200
C 	C 	0.81880 0.62067 0.87587 0.30800
O 	O 	0.85591 0.56751 0.88552 -0.41600
C 	C 	0.84291 0.28531 0.52169 0.30000
O 	O 	0.79277 0.33407 0.52848 -0.42500
O 	O 	0.81423 0.20579 0.52919 -0.43400
O 	O 	0.75046 0.43215 0.58147 -0.40800
Zn	Zn	0.86205 0.05619 0.73785 1.20700
P 	P 	0.87406 0.92167 0.77572 0.30900
C 	C 	0.73261 0.97667 0.70334 0.34100
O 	O 	0.84570 0.00384 0.77852 -0.42800
O 	O 	0.81917 0.86220 0.75285 -0.40500
O 	O 	0.83725 0.78240 0.69058 -0.41700
O 	O 	0.79112 0.94410 0.68888 -0.43400
O 	O 	0.74495 0.01181 0.72949 -0.43900
C 	C 	0.89319 0.91635 0.14131 0.33300
O 	O 	0.87445 0.95798 0.23617 -0.40800
O 	O 	0.87228 0.94476 0.16812 -0.41200
O 	O 	0.97454 0.93229 0.12979 -0.24400
C 	C 	0.81263 0.86793 0.29134 -0.08000
C 	C 	0.80287 0.79241 0.30389 -0.01700
H 	H 	0.76451 0.90031 0.29754 0.07300
H 	H 	0.85154 0.76056 0.29783 0.04800
H 	H 	0.86621 0.38758 0.47158 0.06600
H 	H 	0.69094 0.92410 0.64755 0.04800
C 	C 	0.80337 0.62997 0.66100 0.02000
C 	C 	0.77322 0.54912 0.65113 0.00300
C 	C 	0.76297 0.53444 0.62032 -0.12400
H 	H 	0.76035 0.49680 0.66748 0.05400
H 	H 	0.81171 0.68299 0.64540 0.04800
C 	C 	0.91517 0.25461 0.78970 -0.17100
C 	C 	0.93208 0.26518 0.81998 0.04000
C 	C 	0.88080 0.30421 0.84199 -0.01800
H 	H 	0.91241 0.34092 0.85957 0.05600
H 	H 	0.87864 0.29135 0.78026 0.09900
C 	C 	0.86784 0.68692 0.85299 -0.13900
C 	C 	0.83706 0.74984 0.84628 0.02700
C 	C 	0.87598 0.80512 0.81876 -0.01000
C 	C 	0.84752 0.87000 0.81295 -0.08000
H 	H 	0.80023 0.88602 0.82960 0.07300
P 	P 	0.90483 0.91652 0.26387 0.31500
C 	C 	0.82979 0.64275 0.69203 -0.16700
Zn	Zn	0.86657 0.88916 0.70993 1.21600
O 	O 	0.89941 0.17209 0.74749 -0.44300
H 	H 	0.98124 0.24173 0.82800 0.05200
O 	O 	0.96788 0.98737 0.27982 -0.42100
O 	O 	0.95141 0.84847 0.25263 -0.43500
C 	C 	0.84993 0.71766 0.70415 0.33500
C 	C 	0.93278 0.18985 0.77297 0.35300
O 	O 	0.92405 0.06723 0.69652 -0.41700
O 	O 	0.97523 0.94364 0.76517 -0.42500
O 	O 	0.88075 0.72608 0.73041 -0.25000
O 	O 	0.96566 0.13646 0.78580 -0.42300
Zn	Zn	0.95309 0.96962 0.19809 1.22200
C 	C 	0.92100 0.31495 0.49929 -0.05300
C 	C 	0.99115 0.28374 0.50120 0.02200
C 	C 	0.92160 0.36597 0.47384 -0.03400
H 	H 	0.99075 0.24324 0.52053 0.05300
H 	H 	0.83612 0.58991 0.70495 0.09700
C 	C 	0.98427 0.53873 0.96444 0.07100
C 	C 	0.95624 0.45204 0.96408 -0.12200
C 	C 	0.99213 0.40380 0.98169 0.13100
H 	H 	0.95765 0.57629 0.95067 0.02900
I 	I 	0.96379 0.27334 0.97765 -0.06900
H 	H 	0.92383 0.78964 0.80215 0.06200
H 	H 	0.92788 0.68218 0.84042 0.09000
