data_crystal

_cell_length_a 30.85669
_cell_length_b 27.11679
_cell_length_c 31.83496
_cell_angle_alpha 103.71088
_cell_angle_beta  115.79395
_cell_angle_gamma 112.16109

_symmetry_space_group_name_	'P 1'
_symmetry_space_group_name_H-M	'P 1'

loop_
_symmetry_equiv_pos_as_xyz
  x,y,z

loop_
_atom_site_label
_atom_site_type_symbol
_atom_site_fract_x
_atom_site_fract_y
_atom_site_fract_z
_atom_site_charge
C 	C 	0.54699 0.24897 0.87816 0.02100
C 	C 	0.54514 0.19450 0.86411 -0.02500
C 	C 	0.58468 0.19160 0.85477 0.02400
C 	C 	0.62190 0.24058 0.85451 -0.02400
C 	C 	0.52791 0.25743 0.91103 -0.06000
S 	S 	0.52184 0.15962 0.89336 -0.00600
C 	C 	0.58114 0.13744 0.83165 -0.06100
S 	S 	0.64847 0.21695 0.82499 -0.00900
C 	C 	0.51250 0.21016 0.92349 -0.00100
H 	H 	0.52585 0.29634 0.92533 0.04600
C 	C 	0.61599 0.14475 0.81318 0.00200
H 	H 	0.55525 0.09521 0.82932 0.04800
C 	C 	0.38980 0.15320 0.95996 0.00100
C 	C 	0.38726 0.18466 0.93067 -0.03600
C 	C 	0.42824 0.20502 0.92010 -0.04400
C 	C 	0.47240 0.19420 0.93886 0.01600
C 	C 	0.47568 0.16397 0.96929 -0.04900
C 	C 	0.43418 0.14299 0.97929 -0.01800
H 	H 	0.35265 0.19205 0.91504 0.03800
H 	H 	0.42450 0.22737 0.89586 0.04000
H 	H 	0.50969 0.15565 0.98424 0.04600
H 	H 	0.43602 0.11802 0.00134 0.02400
C 	C 	0.69708 0.07250 0.86018 -0.03800
C 	C 	0.65869 0.09078 0.85127 -0.03800
C 	C 	0.64362 0.11060 0.81321 0.01100
H 	H 	0.71092 0.06058 0.89157 0.04000
H 	H 	0.64355 0.09305 0.87619 0.04100
C 	C 	0.60591 0.30877 0.42922 0.02200
C 	C 	0.60605 0.25783 0.40565 -0.02300
C 	C 	0.65806 0.26285 0.42043 0.02300
C 	C 	0.71003 0.32003 0.45640 -0.02300
C 	C 	0.55675 0.29307 0.42957 -0.06000
S 	S 	0.54817 0.19620 0.38891 -0.01000
C 	C 	0.66185 0.22123 0.38782 -0.06000
S 	S 	0.75810 0.31871 0.44613 -0.01000
C 	C 	0.51941 0.23019 0.40724 0.00000
H 	H 	0.55268 0.32631 0.45133 0.04500
C 	C 	0.71643 0.24665 0.39759 0.00100
H 	H 	0.62519 0.17626 0.35576 0.04600
C 	C 	0.39180 0.15408 0.43493 0.01500
C 	C 	0.44348 0.21045 0.47438 -0.04100
C 	C 	0.48654 0.23415 0.46671 -0.04000
C 	C 	0.47763 0.20224 0.41883 0.01100
C 	C 	0.42757 0.14395 0.38107 -0.04000
C 	C 	0.38523 0.11960 0.38949 -0.03700
H 	H 	0.44945 0.23681 0.51016 0.03900
H 	H 	0.52637 0.27758 0.49765 0.03800
H 	H 	0.42072 0.11826 0.34453 0.04100
H 	H 	0.34626 0.07507 0.35967 0.04000
C 	C 	0.74620 0.12299 0.38061 -0.04400
C 	C 	0.71653 0.15141 0.37958 -0.04000
C 	C 	0.74021 0.21094 0.38677 0.01000
H 	H 	0.72890 0.07824 0.37740 0.03700
H 	H 	0.67688 0.12834 0.37606 0.03800
Zn	Zn	0.12898 0.11263 0.99007 1.18500
Zn	Zn	0.03437 0.06304 0.87605 1.19200
O 	O 	0.00718 0.03039 0.79904 -0.43400
C 	C 	0.18835 0.07736 0.95563 0.30800
C 	C 	0.13914 0.19188 0.93942 0.32500
O 	O 	0.19087 0.10137 0.99830 -0.45500
O 	O 	0.14154 0.05519 0.90865 -0.35100
O 	O 	0.05148 0.07875 0.94920 -0.78000
O 	O 	0.08980 0.14674 0.89367 -0.46000
O 	O 	0.15691 0.18856 0.98398 -0.46500
O 	O 	0.01745 0.01210 0.99956 -0.88300
H 	H 	0.05890 0.03654 0.02928 0.15600
Zn	Zn	0.16620 0.14707 0.51302 1.18600
Zn	Zn	0.06731 0.09798 0.40067 1.19700
O 	O 	0.03347 0.06860 0.32198 -0.43900
C 	C 	0.21036 0.10795 0.46160 0.32600
C 	C 	0.17105 0.22778 0.46549 0.32900
O 	O 	0.22498 0.13934 0.50911 -0.46000
O 	O 	0.15673 0.07938 0.42032 -0.38000
O 	O 	0.08879 0.11160 0.47503 -0.78000
O 	O 	0.12705 0.17971 0.41848 -0.45000
O 	O 	0.18733 0.22452 0.50992 -0.46600
O 	O 	0.06401 0.07145 0.62019 -0.46400
O 	O 	0.06659 0.04057 0.52640 -0.89100
H 	H 	0.10890 0.06206 0.55162 0.15900
C 	C 	0.98855 0.03158 0.20791 0.07900
C 	C 	0.98687 0.03180 0.16337 -0.00800
H 	H 	0.95732 0.04032 0.13700 0.04500
C 	C 	0.25130 0.39558 0.50976 0.03400
C 	C 	0.21428 0.33887 0.50185 -0.01500
C 	C 	0.20424 0.28569 0.46819 -0.11500
C 	C 	0.22988 0.28893 0.44068 0.10500
C 	C 	0.26697 0.34572 0.44868 -0.09300
H 	H 	0.19403 0.33640 0.52253 0.03100
H 	H 	0.28771 0.34836 0.42846 0.05000
N 	N 	0.22104 0.23480 0.40715 -0.14200
H 	H 	0.34374 0.47613 0.60791 0.04900
C 	C 	0.18033 0.21448 0.35089 -0.09000
H 	H 	0.13863 0.20662 0.34236 0.06300
H 	H 	0.17184 0.17083 0.32620 0.05000
H 	H 	0.19826 0.24833 0.33936 0.04200
H 	H 	0.26032 0.24255 0.41502 0.07300
H 	H 	0.23345 0.99591 0.39343 0.04700
C 	C 	0.20168 0.35619 0.97173 0.03600
C 	C 	0.16932 0.29914 0.96619 -0.01200
C 	C 	0.17116 0.25020 0.94209 -0.11600
C 	C 	0.20525 0.25822 0.92243 0.10500
C 	C 	0.23653 0.31496 0.92712 -0.08600
H 	H 	0.14307 0.29310 0.98103 0.02900
H 	H 	0.26285 0.32116 0.91236 0.05800
N 	N 	0.21077 0.21005 0.90003 -0.14600
C 	C 	0.25998 0.21335 0.94109 -0.09100
H 	H 	0.30056 0.25742 0.95977 0.05000
H 	H 	0.26393 0.17665 0.92252 0.05400
H 	H 	0.25423 0.20775 0.97215 0.05400
H 	H 	0.17325 0.16712 0.87992 0.08500
C 	C 	0.17042 0.01985 0.08257 -0.07800
H 	H 	0.14898 0.03298 0.09904 0.03000
H 	H 	0.18094 0.04883 0.06453 0.03100
C 	C 	0.77691 0.04224 0.28905 -0.09000
H 	H 	0.75941 0.03337 0.24745 0.04700
H 	H 	0.74487 0.04124 0.29682 0.04800
H 	H 	0.82654 0.13608 0.32044 0.07800
C 	C 	0.25508 0.11533 0.45307 -0.11000
C 	C 	0.30100 0.11172 0.48627 0.10500
C 	C 	0.34420 0.12125 0.47821 -0.09300
C 	C 	0.34217 0.13520 0.43793 0.00200
C 	C 	0.29509 0.13650 0.40360 0.03500
C 	C 	0.25154 0.12587 0.41104 -0.01700
H 	H 	0.37954 0.11839 0.50359 0.05300
H 	H 	0.21533 0.12680 0.38452 0.04500
N 	N 	0.30151 0.09410 0.52563 -0.14100
N 	N 	0.29355 0.15250 0.36319 -0.13500
C 	C 	0.34567 0.14577 0.57935 -0.08800
H 	H 	0.38952 0.16095 0.58971 0.04300
H 	H 	0.34177 0.13185 0.60829 0.04600
H 	H 	0.33982 0.18422 0.58299 0.05400
C 	C 	0.24741 0.10059 0.30990 -0.09400
H 	H 	0.24985 0.06009 0.30651 0.05400
H 	H 	0.25204 0.11219 0.28030 0.05200
H 	H 	0.20455 0.08947 0.30023 0.05200
H 	H 	0.30855 0.05896 0.52214 0.08100
H 	H 	0.28843 0.18897 0.36712 0.07200
H 	H 	0.72612 0.98174 0.78475 0.04500
C 	C 	0.24144 0.08654 0.96093 -0.09100
C 	C 	0.23890 0.05433 0.91693 0.09900
C 	C 	0.28980 0.07221 0.92023 -0.09200
C 	C 	0.34204 0.12479 0.96462 0.01500
C 	C 	0.34551 0.15407 0.01016 0.02400
C 	C 	0.29551 0.13312 0.00857 -0.03100
H 	H 	0.28792 0.04753 0.88658 0.05600
H 	H 	0.29835 0.15631 0.04338 0.04500
N 	N 	0.18462 0.00374 0.86878 -0.13100
N 	N 	0.39940 0.20579 0.05802 -0.13700
C 	C 	0.16799 0.01906 0.82558 -0.07300
H 	H 	0.16754 0.06072 0.83769 0.06100
H 	H 	0.12409 0.98104 0.79044 0.04800
H 	H 	0.19780 0.02595 0.81360 0.04700
C 	C 	0.40777 0.26264 0.05807 -0.09000
H 	H 	0.40923 0.26494 0.02430 0.04100
H 	H 	0.44922 0.30147 0.09571 0.04300
H 	H 	0.37271 0.26736 0.05590 0.04200
H 	H 	0.18722 0.96599 0.85763 0.05900
H 	H 	0.43445 0.20305 0.06442 0.07400
C 	C 	0.09095 0.06347 0.71867 0.06600
I 	I 	0.16699 0.14533 0.74732 -0.14800
H 	H 	0.90286 0.23202 0.92542 0.04600
C 	C 	0.05857 0.01436 0.66736 -0.07400
C 	C 	0.66343 0.10660 0.78108 -0.03800
N 	N 	0.83164 0.10142 0.32537 -0.13800
C 	C 	0.72131 0.07451 0.83176 0.01900
C 	C 	0.70244 0.08897 0.79056 -0.04200
H 	H 	0.65113 0.12040 0.75079 0.04000
H 	H 	0.72033 0.08972 0.76785 0.04000
C 	C 	0.80036 0.15423 0.39029 0.01000
C 	C 	0.79094 0.23898 0.38982 -0.04000
C 	C 	0.82145 0.21129 0.39264 -0.04200
H 	H 	0.80841 0.28371 0.39298 0.04000
H 	H 	0.86298 0.23556 0.39954 0.03900
C 	C 	0.90438 0.12669 0.48303 0.11300
C 	C 	0.86229 0.13941 0.46066 -0.09500
C 	C 	0.83978 0.13401 0.40980 0.00200
C 	C 	0.85780 0.11298 0.37966 0.03200
C 	C 	0.90052 0.10113 0.40224 -0.00900
H 	H 	0.84766 0.15443 0.48336 0.05200
H 	H 	0.91490 0.08603 0.37929 0.02800
H 	H 	0.78338 0.00550 0.29304 0.04500
H 	H 	0.89167 0.10995 0.53766 0.07700
C 	C 	0.81336 0.01121 0.84259 0.10600
C 	C 	0.76667 0.01780 0.82242 -0.07400
C 	C 	0.77213 0.07061 0.85047 -0.00400
C 	C 	0.61816 0.29129 0.86009 0.02300
C 	C 	0.58094 0.29579 0.87288 -0.02300
C 	C 	0.71005 0.37190 0.47695 0.02300
C 	C 	0.65834 0.36524 0.46624 -0.02300
C 	C 	0.27822 0.39896 0.48350 0.00200
N 	N 	0.26153 0.45004 0.54445 -0.13600
C 	C 	0.30257 0.46908 0.60026 -0.09000
H 	H 	0.28443 0.43487 0.61141 0.04200
C 	C 	0.23615 0.36429 0.95289 -0.00100
N 	N 	0.19975 0.40629 0.99673 -0.12900
C 	C 	0.14889 0.40332 0.95872 -0.09000
H 	H 	0.14917 0.40418 0.92408 0.04800
H 	H 	0.10870 0.36164 0.94475 0.04000
O 	O 	0.92423 0.01555 0.90106 -0.44500
C 	C 	0.90860 0.04500 0.92440 0.32000
O 	O 	0.96656 0.05094 0.44315 -0.45500
C 	C 	0.96787 0.09292 0.47582 0.35000
C 	C 	0.92426 0.10797 0.45385 -0.12500
N 	N 	0.92581 0.13117 0.53490 -0.14300
C 	C 	0.86545 0.05708 0.89348 -0.11700
C 	C 	0.82567 0.11897 0.89760 0.03800
C 	C 	0.87208 0.11202 0.91879 -0.01400
H 	H 	0.83179 0.20315 0.86778 0.05200
C 	C 	0.66425 0.34846 0.87640 -0.06000
S 	S 	0.60705 0.36935 0.90582 -0.01200
C 	C 	0.66412 0.39712 0.90362 0.00200
H 	H 	0.69802 0.35406 0.87133 0.04700
C 	C 	0.76236 0.57536 0.92744 0.01300
C 	C 	0.75689 0.48649 0.93467 -0.04000
C 	C 	0.69851 0.45992 0.91458 0.00900
C 	C 	0.67256 0.49210 0.90203 -0.03900
C 	C 	0.70443 0.54960 0.90848 -0.04400
H 	H 	0.62744 0.47201 0.88592 0.03900
H 	H 	0.68387 0.57370 0.89791 0.03900
C 	C 	0.75289 0.43174 0.49391 -0.06000
S 	S 	0.66567 0.43169 0.47557 -0.01300
C 	C 	0.73426 0.47142 0.49627 0.00100
H 	H 	0.79229 0.44336 0.49719 0.04800
C 	C 	0.81237 0.63084 0.48487 0.01700
C 	C 	0.76006 0.52735 0.49327 0.01000
C 	C 	0.72852 0.53242 0.44865 -0.04000
C 	C 	0.75455 0.58415 0.44465 -0.04300
H 	H 	0.68436 0.49582 0.41658 0.03900
H 	H 	0.73013 0.58747 0.40988 0.03700
C 	C 	0.42466 0.73715 0.96056 0.01300
C 	C 	0.43308 0.79339 0.98601 -0.00800
C 	C 	0.42042 0.80346 0.02343 0.00400
C 	C 	0.39654 0.75567 0.03322 -0.01500
C 	C 	0.38055 0.69730 0.00231 0.00700
C 	C 	0.39492 0.68842 0.96633 -0.00800
C 	C 	0.46185 0.74123 0.94467 -0.05500
S 	S 	0.48694 0.84656 0.99007 -0.01000
C 	C 	0.40804 0.84801 0.03620 -0.05600
S 	S 	0.36059 0.76900 0.05590 -0.02000
C 	C 	0.36821 0.65024 0.01606 -0.06900
S 	S 	0.39405 0.62470 0.95336 -0.01700
C 	C 	0.49869 0.80077 0.95755 -0.00300
H 	H 	0.46636 0.70429 0.93047 0.04500
C 	C 	0.37467 0.83502 0.05595 -0.00000
H 	H 	0.41418 0.88160 0.02276 0.04100
C 	C 	0.37413 0.60540 0.99137 0.01000
H 	H 	0.35502 0.64867 0.04243 0.04500
C 	C 	0.27358 0.42498 0.96188 0.02800
C 	C 	0.25858 0.43842 0.91972 -0.04600
C 	C 	0.29252 0.49687 0.92886 -0.03900
C 	C 	0.34193 0.54224 0.98025 0.01800
C 	C 	0.35744 0.52838 0.02215 -0.05100
C 	C 	0.32353 0.46994 0.01297 -0.05300
H 	H 	0.22004 0.40397 0.88016 0.03800
H 	H 	0.27956 0.50728 0.89637 0.03800
H 	H 	0.39525 0.56316 0.06198 0.03700
H 	H 	0.33555 0.45983 0.04569 0.03800
C 	C 	0.64926 0.86252 0.95862 0.02700
C 	C 	0.59490 0.81619 0.91159 -0.04200
C 	C 	0.54590 0.79569 0.91149 -0.04200
C 	C 	0.55080 0.82159 0.95836 0.02100
C 	C 	0.60533 0.86784 0.00554 -0.05100
C 	C 	0.65435 0.88815 0.00563 -0.05500
H 	H 	0.59067 0.79594 0.87519 0.04100
H 	H 	0.50407 0.76003 0.87489 0.03900
H 	H 	0.60983 0.88762 0.04217 0.03700
H 	H 	0.69625 0.92367 0.04220 0.03800
C 	C 	0.26200 0.89811 0.03084 0.02300
C 	C 	0.32109 0.93952 0.05721 -0.04600
C 	C 	0.35827 0.91927 0.06753 -0.03800
C 	C 	0.33650 0.85728 0.05096 0.00500
C 	C 	0.27763 0.81640 0.02680 -0.03400
C 	C 	0.24081 0.83694 0.01733 -0.06000
H 	H 	0.33782 0.98693 0.06790 0.03900
H 	H 	0.40367 0.95147 0.08706 0.03500
H 	H 	0.25984 0.76842 0.01347 0.03400
H 	H 	0.19520 0.80468 0.99692 0.04700
C 	C 	0.50421 0.77307 0.51823 0.02100
C 	C 	0.48151 0.80811 0.50553 -0.02300
C 	C 	0.44146 0.80828 0.51541 0.02200
C 	C 	0.42020 0.76944 0.53327 -0.02400
C 	C 	0.44437 0.73707 0.54903 0.02200
C 	C 	0.48658 0.73910 0.54140 -0.02300
C 	C 	0.55892 0.79580 0.52735 -0.06100
S 	S 	0.52982 0.86671 0.50840 -0.01500
C 	C 	0.42918 0.85392 0.52058 -0.06000
S 	S 	0.38933 0.79302 0.55717 -0.01400
C 	C 	0.41434 0.68402 0.55080 -0.06000
S 	S 	0.48299 0.67442 0.53364 -0.01400
C 	C 	0.57933 0.84952 0.52417 0.00200
H 	H 	0.58452 0.77703 0.54038 0.04500
C 	C 	0.39917 0.85098 0.54373 -0.00000
H 	H 	0.43812 0.88476 0.50481 0.04500
C 	C 	0.43221 0.64424 0.54341 0.00000
H 	H 	0.37515 0.67065 0.54836 0.04600
C 	C 	0.31917 0.45840 0.49332 0.01400
C 	C 	0.29881 0.48627 0.46505 -0.04100
C 	C 	0.33653 0.54595 0.47922 -0.04100
C 	C 	0.39482 0.57845 0.52222 0.01000
C 	C 	0.41578 0.54928 0.54836 -0.04100
C 	C 	0.37807 0.48940 0.53391 -0.04200
H 	H 	0.25351 0.46233 0.43318 0.03700
H 	H 	0.32014 0.56758 0.45789 0.03800
H 	H 	0.46077 0.57373 0.58119 0.03800
H 	H 	0.39422 0.46787 0.55553 0.03800
C 	C 	0.71989 0.92863 0.51240 0.01600
C 	C 	0.68055 0.86543 0.48409 -0.04700
C 	C 	0.63464 0.83947 0.48790 -0.03900
C 	C 	0.62789 0.87652 0.52031 0.00500
C 	C 	0.66737 0.93973 0.54873 -0.03500
C 	C 	0.71349 0.96562 0.54515 -0.06100
H 	H 	0.68567 0.83648 0.45926 0.03700
H 	H 	0.60418 0.79068 0.46542 0.03700
H 	H 	0.66271 0.96870 0.57405 0.03400
H 	H 	0.74428 0.01435 0.56789 0.04800
C 	C 	0.28211 0.90859 0.50687 0.00900
C 	C 	0.34154 0.95153 0.53676 -0.04400
C 	C 	0.37983 0.93272 0.54931 -0.04300
C 	C 	0.35888 0.87080 0.53137 0.00900
C 	C 	0.29923 0.82779 0.50015 -0.04200
C 	C 	0.26110 0.84666 0.48800 -0.04400
H 	H 	0.35799 0.99937 0.55036 0.03200
H 	H 	0.42569 0.96618 0.57280 0.03600
H 	H 	0.28235 0.77972 0.48460 0.03700
H 	H 	0.21517 0.81315 0.46378 0.03500
O 	O 	0.04157 0.90114 0.88359 -0.51000
O 	O 	0.07999 0.98331 0.95976 -0.47200
C 	C 	0.01176 0.01036 0.09984 0.34000
O 	O 	0.00020 0.95959 0.06632 -0.44900
C 	C 	0.01965 0.99455 0.77821 0.27600
C 	C 	0.08045 0.93725 0.93498 0.32600
O 	O 	0.06233 0.92702 0.39146 -0.50600
O 	O 	0.11528 0.01268 0.47033 -0.45100
C 	C 	0.06260 0.02410 0.62533 0.33100
O 	O 	0.06192 0.98365 0.59183 -0.45900
C 	C 	0.03346 0.02534 0.29241 0.33300
C 	C 	0.10920 0.96448 0.44007 0.31000
C 	C 	0.03076 0.00119 0.73884 -0.05400
C 	C 	0.00066 0.95094 0.68885 0.03600
C 	C 	0.01492 0.95768 0.65353 -0.06700
H 	H 	0.98973 0.91972 0.61407 0.07400
I 	I 	0.92978 0.86607 0.66337 -0.15100
C 	C 	0.02864 0.02311 0.24367 -0.11000
C 	C 	0.01996 0.01690 0.15053 -0.11400
C 	C 	0.05893 0.00672 0.18542 0.07800
C 	C 	0.06398 0.01129 0.23228 -0.02900
H 	H 	0.09522 0.00522 0.25974 0.05300
I 	I 	0.11202 0.98610 0.16973 -0.18700
H 	H 	0.31206 0.51288 0.62589 0.04500
H 	H 	0.22281 0.44333 0.53747 0.07000
C 	C 	0.82282 0.96862 0.55089 -0.09200
C 	C 	0.76998 0.95546 0.51046 -0.00700
C 	C 	0.76398 0.96217 0.46588 0.03300
C 	C 	0.80821 0.97413 0.45929 -0.01500
H 	H 	0.80271 0.97739 0.42423 0.04300
N 	N 	0.71354 0.95795 0.42746 -0.14300
C 	C 	0.71795 0.01556 0.44599 -0.08300
H 	H 	0.71796 0.02626 0.48191 0.04800
H 	H 	0.68043 0.01223 0.41414 0.04600
H 	H 	0.75774 0.05312 0.45511 0.04800
H 	H 	0.67553 0.92203 0.41752 0.07500
C 	C 	0.24144 0.92795 0.49175 -0.00500
C 	C 	0.22966 0.95096 0.52737 0.03200
C 	C 	0.18773 0.96473 0.51035 -0.01300
C 	C 	0.15803 0.95693 0.45870 -0.12300
C 	C 	0.17479 0.94102 0.42522 0.10100
C 	C 	0.21274 0.92144 0.44053 -0.08800
H 	H 	0.17709 0.97993 0.53699 0.01900
H 	H 	0.22036 0.90158 0.41287 0.05100
N 	N 	0.25941 0.95975 0.58080 -0.14000
N 	N 	0.14941 0.93966 0.37390 -0.14600
C 	C 	0.23025 0.90440 0.58274 -0.09000
H 	H 	0.18495 0.88955 0.56694 0.04200
H 	H 	0.25268 0.91374 0.62474 0.04300
H 	H 	0.23096 0.86725 0.55975 0.04600
C 	C 	0.18927 0.95765 0.35875 -0.09100
H 	H 	0.17405 0.97239 0.32852 0.04400
H 	H 	0.19028 0.91824 0.34030 0.04400
H 	H 	0.30290 0.97608 0.59811 0.07400
H 	H 	0.13554 0.96934 0.37400 0.07100
H 	H 	0.14945 0.44350 0.97837 0.04500
H 	H 	0.19995 0.40664 0.02976 0.06000
C 	C 	0.73548 0.86023 0.97780 -0.08900
C 	C 	0.70112 0.88272 0.95901 -0.00000
C 	C 	0.71533 0.92294 0.93924 0.03800
C 	C 	0.76267 0.93847 0.93659 -0.01600
H 	H 	0.72472 0.82953 0.99330 0.05300
H 	H 	0.77280 0.96834 0.92022 0.03600
N 	N 	0.68146 0.94798 0.92176 -0.14300
C 	C 	0.70909 0.00890 0.96372 -0.06200
H 	H 	0.71493 0.00767 0.00039 0.03800
H 	H 	0.68114 0.02631 0.95016 0.04600
H 	H 	0.75152 0.04062 0.97289 0.04600
H 	H 	0.67533 0.94923 0.88709 0.07300
C 	C 	0.22128 0.91649 0.01000 -0.01600
C 	C 	0.20149 0.91506 0.96047 0.04900
C 	C 	0.15595 0.92288 0.93668 -0.01900
C 	C 	0.13085 0.93345 0.96249 -0.11100
C 	C 	0.15364 0.93955 0.01395 0.08800
C 	C 	0.19808 0.92978 0.03704 -0.08500
H 	H 	0.13969 0.92001 0.89784 0.03400
H 	H 	0.21400 0.93189 0.07564 0.04700
N 	N 	0.22827 0.90612 0.93455 -0.13600
N 	N 	0.13144 0.95549 0.04264 -0.16000
C 	C 	0.19148 0.84463 0.88970 -0.09000
H 	H 	0.18027 0.81021 0.90290 0.05000
H 	H 	0.21512 0.83788 0.87316 0.04500
H 	H 	0.15145 0.83760 0.85765 0.03900
H 	H 	0.21080 0.02856 0.11568 0.04700
H 	H 	0.23811 0.93844 0.92193 0.07300
H 	H 	0.12515 0.92839 0.06065 0.06900
C 	C 	0.83352 0.73194 0.49328 -0.08500
H 	H 	0.80826 0.73025 0.50885 0.05900
N 	N 	0.84885 0.82973 0.49998 -0.14500
C 	C 	0.79630 0.81691 0.45444 -0.09000
H 	H 	0.80134 0.81929 0.42237 0.05200
H 	H 	0.78693 0.85092 0.46735 0.05300
H 	H 	0.75882 0.77138 0.43860 0.04700
C 	C 	0.83315 0.97535 0.78101 -0.10300
H 	H 	0.80875 0.98814 0.75314 0.04700
H 	H 	0.83009 0.93524 0.75730 0.02500
H 	H 	0.87923 0.01342 0.80893 0.04500
H 	H 	0.77146 0.58960 0.85052 0.05200
C 	C 	0.86883 0.67590 0.84284 -0.09200
H 	H 	0.85901 0.63086 0.84006 0.04600
H 	H 	0.82860 0.96671 0.58646 0.05200
C 	C 	0.79643 0.91506 0.95447 -0.11300
H 	H 	0.88436 0.87265 0.51551 0.08300
C 	C 	0.81769 0.57456 0.53383 -0.04000
H 	H 	0.87003 0.67712 0.80874 0.04200
C 	C 	0.78836 0.54348 0.94025 -0.04300
H 	H 	0.83284 0.56268 0.95414 0.04100
H 	H 	0.77763 0.46254 0.94517 0.03900
C 	C 	0.84372 0.62614 0.52966 -0.03900
H 	H 	0.88839 0.66215 0.56093 0.04500
H 	H 	0.84242 0.57100 0.56832 0.04000
Zn	Zn	0.87686 0.88441 0.88514 1.17500
C 	C 	0.84139 0.92592 0.94555 0.32600
O 	O 	0.85236 0.80735 0.89045 -0.45700
O 	O 	0.82609 0.90182 0.89668 -0.48200
Zn	Zn	0.91777 0.91939 0.41342 1.17600
C 	C 	0.89637 0.97456 0.48142 0.32500
O 	O 	0.89128 0.84397 0.42154 -0.46600
O 	O 	0.87443 0.94551 0.43079 -0.48100
C 	C 	0.85854 0.97985 0.49667 -0.11700
C 	C 	0.86783 0.98238 0.54498 0.10000
N 	N 	0.92307 0.99980 0.58831 -0.14300
C 	C 	0.95623 0.06401 0.62711 -0.08700
H 	H 	0.96787 0.09285 0.60940 0.05100
H 	H 	0.93180 0.07425 0.64116 0.05000
H 	H 	0.91791 0.97281 0.60661 0.08500
C 	C 	0.78340 0.87659 0.97607 0.10700
N 	N 	0.81853 0.85336 0.99555 -0.13700
C 	C 	0.85608 0.88554 0.05377 -0.10000
H 	H 	0.83070 0.87305 0.07011 0.04400
C 	C 	0.84051 0.68392 0.47935 0.00200
C 	C 	0.87342 0.68608 0.45931 0.03700
C 	C 	0.89167 0.78432 0.46664 -0.11400
C 	C 	0.85823 0.78188 0.48656 0.10400
N 	N 	0.80834 0.95975 0.80964 -0.14600
H 	H 	0.82416 0.93889 0.83005 0.04100
C 	C 	0.85344 0.74306 0.93130 -0.11400
C 	C 	0.82382 0.68716 0.88602 0.10700
C 	C 	0.79436 0.63262 0.88543 -0.09100
C 	C 	0.79439 0.63342 0.92963 -0.00100
C 	C 	0.82506 0.68963 0.97549 0.04200
C 	C 	0.85506 0.74386 0.97616 0.00300
N 	N 	0.82475 0.68585 0.84096 -0.14500
N 	N 	0.82523 0.69235 0.02133 -0.14400
H 	H 	0.91205 0.71240 0.88013 0.05400
H 	H 	0.78430 0.65211 0.80534 0.07200
H 	H 	0.78602 0.65838 0.01114 0.07100
H 	H 	0.79670 0.57846 0.37310 0.04900
C 	C 	0.88122 0.80082 0.93145 0.33400
O 	O 	0.89399 0.94709 0.98544 -0.46900
C 	C 	0.92120 0.83769 0.46224 0.32400
O 	O 	0.94690 0.98633 0.51715 -0.46800
H 	H 	0.99670 0.07567 0.66219 0.06700
H 	H 	0.87986 0.93539 0.06910 0.06000
H 	H 	0.88821 0.87322 0.06798 0.05800
H 	H 	0.79261 0.80668 0.98127 0.07900
C 	C 	0.89926 0.73657 0.45347 -0.01000
H 	H 	0.92518 0.73853 0.43861 0.03600
N 	N 	0.88099 0.63695 0.44532 -0.13500
C 	C 	0.84230 0.59683 0.38773 -0.09000
H 	H 	0.84709 0.55790 0.37829 0.04700
H 	H 	0.87901 0.78677 0.01147 0.03500
C 	C 	0.87337 0.69145 0.05910 -0.09200
H 	H 	0.91504 0.73051 0.07257 0.05100
H 	H 	0.86965 0.64833 0.04114 0.04400
H 	H 	0.87327 0.69553 0.09458 0.04200
C 	C 	0.07512 0.05737 0.75301 -0.04100
O 	O 	0.93110 0.06415 0.97522 -0.48500
C 	C 	0.96623 0.19474 0.57663 -0.06400
H 	H 	0.00208 0.21805 0.57338 0.03300
H 	H 	0.94397 0.21912 0.57438 0.04100
H 	H 	0.91265 0.14858 0.95623 0.03900
N 	N 	0.83235 0.17484 0.92471 -0.13500
C 	C 	0.85862 0.22018 0.91144 -0.09100
O 	O 	0.93460 0.84472 0.97250 -0.44600
O 	O 	0.95229 0.91465 0.91318 -0.78400
H 	H 	0.94246 0.96373 0.83406 0.15600
O 	O 	0.97797 0.87216 0.49354 -0.45200
O 	O 	0.99162 0.94587 0.43672 -0.79000
H 	H 	0.97243 0.00406 0.36274 0.16800
H 	H 	0.85297 0.62128 0.36664 0.04200
H 	H 	0.92384 0.65380 0.45897 0.07700
Zn	Zn	0.00756 0.93176 0.84075 1.17900
Zn	Zn	0.02623 0.96057 0.35411 1.17800
I 	I 	0.92422 0.03510 0.21509 -0.14900
Zn	Zn	0.97417 0.03680 0.01288 1.19900
O 	O 	0.00829 0.05148 0.08583 -0.48500
Zn	Zn	0.03432 0.07263 0.55242 1.20000
O 	O 	0.00223 0.11491 0.52733 -0.50900
H 	H 	0.09862 0.09588 0.79156 0.05100
H 	H 	0.98504 0.19666 0.61613 0.04300
H 	H 	0.86142 0.26202 0.93127 0.05000
H 	H 	0.85705 0.19143 0.96592 0.07700
O 	O 	0.03265 0.96121 0.79894 -0.47100
Zn	Zn	0.00116 0.99676 0.93065 1.20500
O 	O 	0.04552 0.98924 0.30931 -0.49600
Zn	Zn	0.03991 0.02896 0.45573 1.21400
O 	O 	0.98358 0.98105 0.86113 -0.86700
Zn	Zn	0.97719 0.93036 0.98890 1.19500
O 	O 	0.01312 0.01674 0.38471 -0.88700
Zn	Zn	0.02520 0.95753 0.51250 1.18200
