data_crystal

_cell_length_a 27.63277
_cell_length_b 23.56359
_cell_length_c 35.34490
_cell_angle_alpha 104.11762
_cell_angle_beta  115.97974
_cell_angle_gamma 111.20325

_symmetry_space_group_name_	'P 1'
_symmetry_space_group_name_H-M	'P 1'

loop_
_symmetry_equiv_pos_as_xyz
  x,y,z

loop_
_atom_site_label
_atom_site_type_symbol
_atom_site_fract_x
_atom_site_fract_y
_atom_site_fract_z
_atom_site_charge
N 	N 	0.00626 0.00883 0.20003 -0.08900
C 	C 	0.40679 0.04114 0.57424 0.10800
S 	S 	0.32382 0.01133 0.92424 0.08500
N 	N 	0.58544 0.06441 0.70365 -0.11000
C 	C 	0.62298 0.02788 0.60122 -0.01400
O 	O 	0.07864 0.03651 0.53084 -0.47000
H 	H 	0.84042 0.00450 0.08168 0.02700
C 	C 	0.95855 0.03929 0.60586 0.01600
C 	C 	0.91784 0.00906 0.13896 -0.09500
H 	H 	0.23574 0.00968 0.71496 0.03900
C 	C 	0.14043 0.00342 0.87145 0.00900
C 	C 	0.59557 0.05337 0.66882 0.03200
H 	H 	0.40304 0.00587 0.83422 0.04600
C 	C 	0.23992 0.02165 0.87891 0.02900
C 	C 	0.41944 0.01254 0.81191 -0.02000
H 	H 	0.62491 0.00836 0.92473 0.04800
C 	C 	0.20337 0.02597 0.71378 0.02900
C 	C 	0.18696 0.02783 0.86008 -0.00700
H 	H 	0.86610 0.04464 0.47286 0.05600
C 	C 	0.04838 0.05624 0.58476 -0.11500
C 	C 	0.57020 0.06803 0.63132 -0.00900
C 	C 	0.58490 0.05598 0.59783 -0.04500
C 	C 	0.09679 0.06519 0.57526 0.33100
O 	O 	0.22560 0.07071 0.54993 -0.79100
H 	H 	0.11261 0.02089 0.26272 0.05900
C 	C 	0.28701 0.05003 0.87005 0.06100
N 	N 	0.34034 0.04823 0.89425 -0.11400
Zn	Zn	0.25446 0.07432 0.61525 1.19200
C 	C 	0.08584 0.03348 0.90327 0.09600
C 	C 	0.51986 0.08325 0.62153 0.01700
C 	C 	0.46658 0.03139 0.75712 0.03900
C 	C 	0.64966 0.03032 0.84536 -0.01200
H 	H 	0.92777 0.05352 0.16631 0.06000
O 	O 	0.88726 0.02551 0.81500 -0.46100
H 	H 	0.56530 0.06647 0.56825 0.03900
O 	O 	0.15439 0.08555 0.61026 -0.48000
C 	C 	0.40567 0.04991 0.78748 -0.04300
H 	H 	0.94548 0.07856 0.52292 0.06000
C 	C 	0.11837 0.06628 0.71004 -0.09100
N 	N 	0.04205 0.07304 0.22652 -0.09000
C 	C 	0.13797 0.05298 0.90057 -0.09100
C 	C 	0.18279 0.06603 0.83498 -0.04400
N 	N 	0.34143 0.06966 0.81332 -0.14200
C 	C 	0.60121 0.04441 0.83139 0.02900
H 	H 	0.14305 0.07308 0.82126 0.04000
O 	O 	0.34146 0.10316 0.51932 -0.50400
O 	O 	0.27751 0.09183 0.68279 -0.42300
C 	C 	0.12580 0.06892 0.28912 -0.09500
C 	C 	0.42597 0.05559 0.75774 0.06000
N 	N 	0.48993 0.04627 0.73150 -0.10700
C 	C 	0.91441 0.09241 0.49972 -0.09400
C 	C 	0.01378 0.10529 0.62918 0.03300
C 	C 	0.45580 0.02826 0.58977 -0.09400
C 	C 	0.21269 0.08774 0.71212 -0.10400
H 	H 	0.08651 0.08288 0.70977 0.05800
H 	H 	0.19886 0.07034 0.34760 0.01800
C 	C 	0.42214 0.11039 0.58919 -0.12700
C 	C 	0.28211 0.08757 0.84488 -0.04500
C 	C 	0.05837 0.11347 0.61834 -0.01600
C 	C 	0.09318 0.10211 0.27518 0.10000
C 	C 	0.23079 0.09726 0.82877 -0.01300
H 	H 	0.69819 0.07117 0.87555 0.03200
H 	H 	0.04550 0.11848 0.50915 0.04200
Zn	Zn	0.14019 0.02737 0.52125 1.17900
C 	C 	0.37275 0.12541 0.56577 0.32700
C 	C 	0.17532 0.09750 0.33730 0.02600
H 	H 	0.11411 0.07354 0.99043 0.05200
C 	C 	0.38070 0.09161 0.79980 0.13800
H 	H 	0.58630 0.09155 0.89874 0.05100
N 	N 	0.93926 0.11934 0.47478 -0.13800
Zn	Zn	0.28569 0.13106 0.48846 1.18200
C 	C 	0.17083 0.10863 0.71171 0.03500
C 	C 	0.93514 0.08005 0.85764 0.32900
O 	O 	0.94949 0.07732 0.89778 -0.45500
H 	H 	0.19924 0.13842 0.48659 0.15900
C 	C 	0.26076 0.12589 0.70482 0.31800
N 	N 	0.07986 0.08598 0.92808 -0.14200
C 	C 	0.32719 0.11283 0.83264 0.13800
N 	N 	0.41518 0.09032 0.73234 -0.11700
H 	H 	0.90850 0.12889 0.45074 0.08300
C 	C 	0.90936 0.02983 0.61478 -0.00300
H 	H 	0.97086 0.09042 0.79851 0.04100
H 	H 	0.17465 0.10750 0.91871 0.05600
H 	H 	0.22744 0.12822 0.81073 0.04600
H 	H 	0.55794 0.13647 0.49509 0.05100
S 	S 	0.45729 0.08766 0.71155 0.07200
H 	H 	0.91059 0.13079 0.52172 0.05300
O 	O 	0.27216 0.15589 0.43685 -0.48300
C 	C 	0.53499 0.15228 0.64086 0.03400
O 	O 	0.24593 0.16323 0.51068 -0.89300
H 	H 	0.52669 0.14715 0.52981 0.04700
N 	N 	0.61638 0.11364 0.85519 -0.13200
N 	N 	0.02473 0.16400 0.66416 -0.13500
O 	O 	0.36558 0.16741 0.59220 -0.46200
Zn	Zn	0.27067 0.16888 0.57191 1.21500
C 	C 	0.11274 0.16578 0.30940 -0.09700
C 	C 	0.19311 0.15987 0.37215 -0.11000
C 	C 	0.12287 0.11519 0.98006 -0.08900
C 	C 	0.48593 0.16531 0.62421 -0.01000
H 	H 	0.10076 0.16432 0.63617 0.03100
C 	C 	0.62799 0.13019 0.90219 -0.09100
O 	O 	0.17679 0.17462 0.55282 -0.46500
H 	H 	0.17802 0.15687 0.71155 0.02200
H 	H 	0.08896 0.12519 0.91838 0.08100
H 	H 	0.67149 0.13189 0.92687 0.04300
C 	C 	0.05480 0.17033 0.52286 -0.01000
O 	O 	0.29303 0.17319 0.63297 -0.88000
H 	H 	0.08886 0.19250 0.29872 0.05800
H 	H 	0.95560 0.17358 0.61228 0.05200
C 	C 	0.23934 0.18501 0.42392 0.30800
C 	C 	0.16228 0.19454 0.35766 0.03200
C 	C 	0.56448 0.17467 0.52539 -0.09400
H 	H 	0.62435 0.19503 0.70304 0.08400
C 	C 	0.00344 0.17937 0.50828 0.03600
C 	C 	0.98870 0.14052 0.82583 -0.01700
H 	H 	0.06954 0.12903 0.79679 0.04500
H 	H 	0.17359 0.14421 0.99286 0.04700
N 	N 	0.40485 0.15660 0.80504 -0.13900
H 	H 	0.65616 0.14969 0.85879 0.07600
H 	H 	0.07261 0.19454 0.69385 0.07300
Zn	Zn	0.24476 0.19546 0.65036 1.20100
O 	O 	0.27329 0.18716 0.70862 -0.45700
C 	C 	0.97549 0.14444 0.86019 -0.11300
H 	H 	0.33944 0.20178 0.65874 0.16200
H 	H 	0.11383 0.15168 0.99801 0.04500
N 	N 	0.35203 0.17809 0.83824 -0.13800
N 	N 	0.59949 0.20916 0.67906 -0.13700
H 	H 	0.61218 0.19612 0.55831 0.05700
C 	C 	0.00696 0.20538 0.64289 -0.09000
H 	H 	0.64237 0.20189 0.64208 0.05300
H 	H 	0.88720 0.17934 0.87906 0.04600
C 	C 	0.16968 0.21620 0.57954 0.32900
H 	H 	0.99367 0.15904 0.75599 0.07600
H 	H 	0.49765 0.21826 0.63807 0.04000
H 	H 	0.51626 0.20926 0.48319 0.07600
H 	H 	0.63526 0.18191 0.91813 0.04900
H 	H 	0.17595 0.24317 0.38376 0.03200
H 	H 	0.47378 0.22050 0.53288 0.03600
C 	C 	0.11775 0.22758 0.55629 -0.12800
H 	H 	0.03671 0.22650 0.63055 0.04900
C 	C 	0.39067 0.19994 0.82420 0.14000
O 	O 	0.24646 0.23542 0.45664 -0.43800
O 	O 	0.19937 0.23553 0.62542 -0.49800
N 	N 	0.56045 0.22998 0.51512 -0.13200
H 	H 	0.96848 0.05117 0.68797 0.04300
C 	C 	0.08553 0.18140 0.79955 -0.09100
H 	H 	0.09594 0.18234 0.77266 0.04900
C 	C 	0.63407 0.23894 0.66036 -0.09500
C 	C 	0.02437 0.20120 0.82624 0.03700
N 	N 	0.03588 0.19680 0.78997 -0.13300
H 	H 	0.01459 0.24957 0.67019 0.05100
C 	C 	0.01544 0.24710 0.52635 0.01900
C 	C 	0.99909 0.20981 0.89575 0.10200
N 	N 	0.98386 0.21456 0.93004 -0.14500
H 	H 	0.91750 0.22425 0.94095 0.03900
C 	C 	0.92980 0.22341 0.91491 -0.08900
Zn	Zn	0.29174 0.26124 0.52786 1.19000
O 	O 	0.31590 0.26731 0.59338 -0.78100
H 	H 	0.60743 0.25389 0.63511 0.05800
C 	C 	0.52012 0.26825 0.55937 -0.01400
C 	C 	0.96292 0.25848 0.51568 -0.01300
H 	H 	0.13034 0.22120 0.83576 0.05800
N 	N 	0.94685 0.26050 0.44288 -0.11600
H 	H 	0.97250 0.26618 0.58103 0.03700
O 	O 	0.41908 0.28188 0.55663 -0.38400
H 	H 	0.68110 0.28652 0.69054 0.05300
C 	C 	0.93274 0.26659 0.47560 0.03400
C 	C 	0.94941 0.27198 0.54971 -0.04300
C 	C 	0.92090 0.03301 0.65849 -0.04000
C 	C 	0.56997 0.28111 0.55422 0.03200
H 	H 	0.02357 0.25554 0.96413 0.07700
C 	C 	0.12969 0.29541 0.57084 0.11000
H 	H 	0.22142 0.31816 0.55613 0.01400
N 	N 	0.32616 0.27562 0.81139 -0.10700
C 	C 	0.42135 0.27212 0.83311 -0.04500
S 	S 	0.90710 0.28800 0.41117 0.08300
H 	H 	0.94192 0.27312 0.91377 0.04500
C 	C 	0.04696 0.26621 0.86133 0.01900
C 	C 	0.47384 0.30890 0.59761 0.31700
C 	C 	0.89222 0.29310 0.47115 0.05900
C 	C 	0.07844 0.30461 0.55627 -0.09300
C 	C 	0.90934 0.29738 0.54519 -0.01600
C 	C 	0.03546 0.27032 0.89646 -0.09000
H 	H 	0.51078 0.28195 0.85133 0.04000
Zn	Zn	0.40257 0.32041 0.63276 1.18500
C 	C 	0.52964 0.31709 0.59814 -0.11400
S 	S 	0.79529 0.31830 0.63760 0.07900
H 	H 	0.90247 0.31070 0.57325 0.04400
O 	O 	0.47800 0.32791 0.63758 -0.46300
N 	N 	0.73358 0.32254 0.62838 -0.11800
N 	N 	0.87254 0.30883 0.43462 -0.11200
C 	C 	0.88342 0.31187 0.50729 -0.04400
C 	C 	0.38838 0.30623 0.82680 0.06300
C 	C 	0.48376 0.30656 0.84516 -0.01700
N 	N 	0.19369 0.35537 0.59945 -0.15100
C 	C 	0.21839 0.36325 0.57068 -0.07900
C 	C 	0.62923 0.34433 0.58735 0.01800
H 	H 	0.22441 0.35433 0.62961 0.07900
H 	H 	0.05291 0.32052 0.92345 0.05800
H 	H 	0.18769 0.36932 0.54073 0.04600
H 	H 	0.60796 0.35739 0.70841 0.05600
C 	C 	0.72559 0.34842 0.59702 0.03500
N 	N 	0.81508 0.34660 0.60550 -0.11300
H 	H 	0.08764 0.35666 0.56860 0.06300
H 	H 	0.98937 0.31350 0.80499 0.04000
O 	O 	0.34618 0.36181 0.54739 -0.44800
S 	S 	0.31237 0.33520 0.80359 0.07100
N 	N 	0.82016 0.34926 0.52449 -0.13900
C 	C 	0.07808 0.32991 0.85928 -0.00400
C 	C 	0.67846 0.36332 0.57828 -0.00500
C 	C 	0.76988 0.36141 0.58446 0.06100
C 	C 	0.86121 0.35946 0.51187 0.13800
C 	C 	0.59118 0.37694 0.63414 0.10200
C 	C 	0.04047 0.34976 0.83072 -0.03800
C 	C 	0.64028 0.39106 0.62787 -0.09800
H 	H 	0.26711 0.41051 0.59363 0.03700
N 	N 	0.18349 0.36486 0.92380 -0.11400
C 	C 	0.67618 0.39299 0.54791 -0.04200
C 	C 	0.76661 0.38962 0.55348 -0.04400
O 	O 	0.41600 0.40759 0.62907 -0.46400
C 	C 	0.41672 0.37349 0.83013 0.03100
C 	C 	0.51129 0.37228 0.84834 -0.04900
C 	C 	0.40001 0.41232 0.58948 0.32300
C 	C 	0.14403 0.37712 0.89169 0.03500
C 	C 	0.63698 0.41193 0.71703 -0.09000
H 	H 	0.64000 0.40507 0.53316 0.04200
C 	C 	0.71989 0.40619 0.53573 -0.01400
C 	C 	0.80965 0.40002 0.53839 0.13600
N 	N 	0.60375 0.42336 0.67703 -0.14100
N 	N 	0.37814 0.39877 0.81750 -0.11800
H 	H 	0.68452 0.42391 0.72563 0.04400
H 	H 	0.71653 0.42814 0.51176 0.04300
H 	H 	0.55871 0.39681 0.85650 0.03800
N 	N 	0.89095 0.42012 0.51251 -0.14000
H 	H 	0.64436 0.44659 0.74930 0.04300
H 	H 	0.68669 0.43873 0.65424 0.05300
C 	C 	0.47754 0.40562 0.84012 -0.00700
C 	C 	0.06779 0.41781 0.83728 -0.01500
H 	H 	0.52078 0.45932 0.61877 0.03700
H 	H 	0.46594 0.42236 0.76467 0.02200
H 	H 	0.32642 0.45882 0.54869 0.08800
H 	H 	0.03735 0.43238 0.81593 0.04200
S 	S 	0.24955 0.44147 0.95749 0.08700
H 	H 	0.59076 0.47423 0.58953 0.05200
H 	H 	0.63078 0.47497 0.68557 0.06800
N 	N 	0.84040 0.46115 0.53970 -0.13900
C 	C 	0.44304 0.47566 0.59244 -0.11500
C 	C 	0.17204 0.44673 0.89851 0.06100
C 	C 	0.88120 0.47125 0.52680 0.13600
C 	C 	0.50524 0.49262 0.60870 -0.01300
C 	C 	0.13344 0.46753 0.87250 -0.04300
C 	C 	0.50527 0.47175 0.83989 0.01200
C 	C 	0.49770 0.47101 0.79789 -0.09100
H 	H 	0.31724 0.02301 0.59023 0.00200
S 	S 	0.62572 0.03740 0.73554 0.08000
H 	H 	0.38184 0.51421 0.63680 0.04700
N 	N 	0.36397 0.51082 0.57093 -0.14800
C 	C 	0.63398 0.02433 0.67210 0.06000
H 	H 	0.54103 0.45029 0.73652 0.02400
H 	H 	0.88046 0.01285 0.69760 0.04300
H 	H 	0.32404 0.53490 0.60656 0.04600
C 	C 	0.42374 0.52074 0.58098 0.10900
N 	N 	0.23468 0.49216 0.93639 -0.11200
C 	C 	0.61768 0.52964 0.59901 -0.09600
H 	H 	0.47647 0.50069 0.72678 0.06800
H 	H 	0.61447 0.50277 0.94265 0.05300
C 	C 	0.37000 0.54085 0.61541 -0.08900
H 	H 	0.59913 0.53485 0.56594 0.06100
N 	N 	0.65615 0.01142 0.70982 -0.12300
C 	C 	0.87059 0.01070 0.66387 -0.01600
H 	H 	0.66851 0.54695 0.61533 0.04500
N 	N 	0.54958 0.53647 0.92511 -0.13300
C 	C 	0.92145 0.54031 0.53463 -0.03900
H 	H 	0.00900 0.54191 0.57099 0.04800
C 	C 	0.54813 0.55329 0.61306 0.02600
C 	C 	0.54550 0.53491 0.88281 0.03500
H 	H 	0.60951 0.54159 0.99026 0.05100
H 	H 	0.63253 0.56970 0.66500 0.05600
C 	C 	0.53273 0.53250 0.79887 0.09700
C 	C 	0.60950 0.54482 0.95944 -0.09200
N 	N 	0.52487 0.53115 0.75553 -0.14200
N 	N 	0.83127 0.55163 0.49250 -0.11200
C 	C 	0.15929 0.54100 0.88440 0.13800
N 	N 	0.61325 0.57296 0.63328 -0.14200
H 	H 	0.38847 0.54703 0.84844 0.05700
C 	C 	0.56055 0.50542 0.74462 -0.08800
H 	H 	0.55648 0.50873 0.71266 0.04700
C 	C 	0.98749 0.56915 0.55733 -0.03000
C 	C 	0.46585 0.57971 0.58356 -0.09300
H 	H 	0.54542 0.57653 0.94099 0.07600
C 	C 	0.89507 0.57686 0.51769 0.05600
H 	H 	0.40744 0.59722 0.63725 0.04400
H 	H 	0.74092 0.57444 0.71499 0.03800
C 	C 	0.52825 0.59696 0.60038 0.01500
H 	H 	0.81944 0.58852 0.74185 0.04400
N 	N 	0.12686 0.57076 0.88875 -0.13900
N 	N 	0.21572 0.57922 0.89142 -0.13800
H 	H 	0.45104 0.61424 0.57489 0.06100
C 	C 	0.58045 0.59656 0.88390 -0.01800
H 	H 	0.65108 0.59615 0.97325 0.04900
H 	H 	0.61201 0.53771 0.77508 0.04700
H 	H 	0.46123 0.59225 0.85372 0.05200
N 	N 	0.55524 0.61647 0.53201 -0.11300
C 	C 	0.43063 0.59908 0.86444 -0.09400
C 	C 	0.57549 0.59547 0.84246 -0.11000
S 	S 	0.83014 0.61309 0.47908 0.08100
H 	H 	0.78762 0.58289 0.79484 0.07300
C 	C 	0.79211 0.61202 0.74502 -0.08700
H 	H 	0.38780 0.62112 0.81007 0.07900
C 	C 	0.02613 0.63292 0.56214 -0.02700
H 	H 	0.45731 0.62289 0.90413 0.05300
C 	C 	0.93455 0.64187 0.52257 0.03700
H 	H 	0.90476 0.62267 0.82384 0.05600
N 	N 	0.09231 0.62093 0.95160 -0.11100
H 	H 	0.07657 0.65351 0.57919 0.03800
N 	N 	0.79944 0.62731 0.79061 -0.14100
S 	S 	0.04290 0.61798 0.96588 0.08500
C 	C 	0.15114 0.63887 0.90082 0.13800
S 	S 	0.57812 0.65699 0.50582 0.08600
C 	C 	0.57460 0.66490 0.60990 -0.01100
N 	N 	0.40900 0.64140 0.84695 -0.13200
H 	H 	0.61103 0.64531 0.91691 0.04400
H 	H 	0.80816 0.65981 0.74146 0.04300
C 	C 	0.24001 0.64722 0.90315 0.13800
C 	C 	0.58586 0.67122 0.57575 0.03500
C 	C 	0.99992 0.66993 0.54508 -0.02500
H 	H 	0.35079 0.65533 0.95754 0.04400
N 	N 	0.90378 0.67110 0.50173 -0.11800
C 	C 	0.08572 0.65810 0.92758 0.06100
C 	C 	0.61434 0.66037 0.84486 0.32900
H 	H 	0.00892 0.68661 0.47555 0.06000
N 	N 	0.01174 0.65958 0.94449 -0.11300
C 	C 	0.11453 0.67014 0.90379 -0.04400
N 	N 	0.20768 0.67705 0.90785 -0.13800
O 	O 	0.58837 0.67310 0.80921 -0.45800
C 	C 	0.91366 0.67201 0.84483 -0.09300
C 	C 	0.35321 0.68336 0.93760 -0.01300
C 	C 	0.04190 0.67933 0.92383 0.03200
C 	C 	0.30084 0.68801 0.91006 -0.04300
H 	H 	0.50551 0.69100 0.83849 0.03800
C 	C 	0.86341 0.68327 0.83058 0.10600
H 	H 	0.59596 0.72163 0.67896 -0.00300
H 	H 	0.10013 0.71690 0.46019 0.04600
C 	C 	0.60325 0.72550 0.65174 -0.06800
C 	C 	0.10262 0.70709 0.87859 -0.01300
H 	H 	0.44694 0.70656 0.95854 0.04200
H 	H 	0.12466 0.71734 0.86013 0.04400
C 	C 	0.40810 0.71260 0.93819 -0.04000
C 	C 	0.46099 0.71254 0.87234 0.03400
O 	O 	0.67431 0.70479 0.88293 -0.45500
C 	C 	0.04056 0.73550 0.54897 0.02500
C 	C 	0.03968 0.73487 0.50892 -0.09700
C 	C 	0.02809 0.71303 0.89693 -0.00300
C 	C 	0.30576 0.72588 0.88553 0.06200
C 	C 	0.62351 0.73889 0.58241 0.05600
C 	C 	0.05951 0.72785 0.87491 -0.04600
C 	C 	0.97513 0.72390 0.88587 0.01100
N 	N 	0.25572 0.72781 0.85432 -0.11300
N 	N 	0.62396 0.73998 0.54413 -0.11100
C 	C 	0.50772 0.73091 0.86351 -0.00900
H 	H 	0.63217 0.01752 0.57428 0.04100
O 	O 	0.77766 0.72870 0.79347 -0.48900
C 	C 	0.41156 0.74642 0.91084 -0.00300
H 	H 	0.08398 0.75909 0.63990 0.08000
H 	H 	0.98528 0.75913 0.60467 0.05200
H 	H 	0.03198 0.76284 0.43931 0.07500
H 	H 	0.04918 0.75368 0.85371 0.04500
C 	C 	0.11933 0.77152 0.46708 -0.09100
C 	C 	0.36168 0.75531 0.88592 0.03700
H 	H 	0.12116 0.77433 0.43679 0.04200
C 	C 	0.87537 0.74825 0.85752 -0.12000
S 	S 	0.28589 0.76651 0.83050 0.08800
C 	C 	0.46308 0.76446 0.90408 0.02000
Zn	Zn	0.62645 0.76323 0.80953 1.17700
C 	C 	0.63861 0.79161 0.65759 -0.03000
Zn	Zn	0.75693 0.77427 0.75740 1.19000
C 	C 	0.82728 0.76730 0.83845 0.32000
C 	C 	0.48513 0.00082 0.78536 -0.01100
N 	N 	0.35807 0.78175 0.85511 -0.11200
C 	C 	0.08209 0.79819 0.59290 0.03000
O 	O 	0.70410 0.77834 0.82771 -0.79000
C 	C 	0.07852 0.79631 0.51175 0.11000
N 	N 	0.07850 0.79493 0.47080 -0.14400
C 	C 	0.84798 0.00853 0.57792 0.03200
C 	C 	0.64639 0.01016 0.63773 -0.04800
C 	C 	0.64802 0.79881 0.62263 -0.04000
N 	N 	0.08401 0.80094 0.63476 -0.13600
C 	C 	0.10806 0.00357 0.71013 0.09100
H 	H 	0.16884 0.80556 0.50043 0.05000
C 	C 	0.98562 0.78583 0.91563 0.03100
C 	C 	0.03261 0.80707 0.63365 -0.08900
O 	O 	0.58396 0.79814 0.83066 -0.48300
C 	C 	0.93582 0.79769 0.90113 -0.00800
C 	C 	0.55667 0.80051 0.88630 -0.11700
H 	H 	0.55725 0.80457 0.68840 0.03900
Zn	Zn	0.73582 0.79760 0.89704 1.18600
H 	H 	0.79733 0.80696 0.63428 0.03000
O 	O 	0.80114 0.80197 0.72697 -0.46400
H 	H 	0.03940 0.81564 0.66835 0.05100
H 	H 	0.06738 0.81216 0.97825 0.08500
H 	H 	0.06250 0.81985 0.74930 0.05100
H 	H 	0.58062 0.82511 0.76617 0.02200
C 	C 	0.60397 0.81812 0.87543 0.32800
H 	H 	0.65671 0.83741 0.68856 0.01500
O 	O 	0.84107 0.82955 0.86334 -0.45100
C 	C 	0.51237 0.83405 0.92733 -0.08900
N 	N 	0.04578 0.83562 0.96173 -0.13400
O 	O 	0.66212 0.83590 0.90755 -0.48300
H 	H 	0.70353 0.83698 0.75943 0.16100
O 	O 	0.78154 0.83597 0.97068 -0.42300
H 	H 	0.88034 0.84611 0.61951 0.05900
H 	H 	0.99378 0.84554 0.52491 0.05800
H 	H 	0.94461 0.84596 0.92359 0.03500
N 	N 	0.55829 0.84705 0.74862 -0.13800
O 	O 	0.74720 0.84776 0.78061 -0.86500
C 	C 	0.84606 0.84823 0.66380 0.04000
H 	H 	0.03356 0.85212 0.62872 0.05600
H 	H 	0.88029 0.84803 0.04078 0.02300
H 	H 	0.00490 0.85801 0.83393 0.04900
C 	C 	0.12178 0.85899 0.59581 -0.01000
C 	C 	0.11814 0.85911 0.55499 -0.11600
C 	C 	0.55881 0.85268 0.91827 0.10900
C 	C 	0.57219 0.85565 0.71427 -0.09800
C 	C 	0.81374 0.85613 0.71965 0.32300
C 	C 	0.06848 0.86792 0.77110 -0.09400
H 	H 	0.02072 0.86122 0.75435 0.06000
H 	H 	0.09402 0.86563 0.92986 0.05600
C 	C 	0.67585 0.86780 0.62588 0.13900
H 	H 	0.96358 0.86537 0.55882 0.05100
H 	H 	0.51363 0.87403 0.95148 0.06300
H 	H 	0.54469 0.87469 0.69350 0.06000
Zn	Zn	0.76742 0.86721 0.84388 1.22000
C 	C 	0.89311 0.86998 0.65549 -0.09500
N 	N 	0.09535 0.87893 0.82014 -0.13700
C 	C 	0.86195 0.88041 0.71007 -0.10900
N 	N 	0.83137 0.00183 0.53386 -0.11800
H 	H 	0.47529 0.88440 0.73762 0.06200
H 	H 	0.14122 0.88789 0.83682 0.08700
C 	C 	0.08899 0.88892 0.95823 -0.09500
O 	O 	0.78924 0.88711 0.90653 -0.90700
C 	C 	0.99788 0.88848 0.55039 -0.10000
N 	N 	0.72815 0.89408 0.62546 -0.13500
H 	H 	0.62408 0.89235 0.73293 0.04700
H 	H 	0.93652 0.90087 0.49759 0.07800
O 	O 	0.79394 0.89626 0.73039 -0.44400
C 	C 	0.88998 0.89247 0.06798 0.02700
H 	H 	0.96710 0.89694 0.12570 0.05500
N 	N 	0.65101 0.90675 0.63181 -0.14200
C 	C 	0.80873 0.90034 0.00370 0.30100
O 	O 	0.92262 0.89839 0.83510 -0.34000
H 	H 	0.15296 0.90702 0.62926 0.04500
H 	H 	0.10103 0.91172 0.77052 0.05800
C 	C 	0.57230 0.91118 0.78063 0.10500
O 	O 	0.69486 0.90845 0.82415 -0.45400
H 	H 	0.83517 0.90846 0.93133 0.15800
C 	C 	0.04162 0.91252 0.85206 -0.01800
H 	H 	0.04739 0.92040 0.58371 0.06300
H 	H 	0.07125 0.92299 0.95074 0.06100
C 	C 	0.14982 0.92577 0.55638 0.33000
H 	H 	0.13694 0.92172 0.99301 0.05200
C 	C 	0.52384 0.92491 0.76799 -0.09300
H 	H 	0.57614 0.92403 0.87294 0.05900
C 	C 	0.85469 0.92338 0.05496 -0.10500
C 	C 	0.95641 0.92289 0.69354 0.09600
C 	C 	0.93962 0.92054 0.11610 -0.09700
H 	H 	0.26671 0.93080 0.55020 0.04300
C 	C 	0.09250 0.93210 0.84786 0.04300
N 	N 	0.60624 0.92504 0.94010 -0.14600
H 	H 	0.90669 0.93113 0.55501 0.05900
Zn	Zn	0.75198 0.92800 0.92527 1.19400
N 	N 	0.98355 0.93063 0.52843 -0.14100
H 	H 	0.14669 0.93887 0.71705 0.05900
O 	O 	0.11799 0.93579 0.52069 -0.45600
H 	H 	0.65129 0.93368 0.95128 0.07400
Zn	Zn	0.81439 0.93695 0.79658 1.19800
C 	C 	0.92503 0.93430 0.74790 0.03700
C 	C 	0.97858 0.94178 0.87653 0.30200
C 	C 	0.68063 0.94431 0.84769 0.31500
N 	N 	0.00275 0.94827 0.68436 -0.08900
O 	O 	0.79657 0.94489 0.99153 -0.46300
H 	H 	0.54299 0.95288 0.90204 0.05200
C 	C 	0.58623 0.95364 0.90799 -0.09100
O 	O 	0.83015 0.95680 0.86148 -0.78700
C 	C 	0.97206 0.95528 0.73976 -0.10200
N 	N 	0.05817 0.96372 0.71265 -0.09300
C 	C 	0.03699 0.96279 0.87845 -0.10100
H 	H 	0.47090 0.96248 0.83159 0.03900
N 	N 	0.73761 0.95997 0.54387 -0.11200
C 	C 	0.75518 0.95903 0.63066 0.13900
C 	C 	0.63498 0.96282 0.82246 -0.11800
H 	H 	0.93762 0.96005 0.78360 0.02300
S 	S 	0.75456 0.96837 0.50586 0.08400
H 	H 	0.34528 0.96628 0.60216 0.05100
O 	O 	0.70727 0.96489 0.89371 -0.49700
O 	O 	0.98192 0.97526 0.91404 -0.46200
O 	O 	0.21008 0.97318 0.59242 -0.45600
C 	C 	0.31671 0.97598 0.57367 -0.07300
H 	H 	0.44400 0.97517 0.57677 0.06400
C 	C 	0.67762 0.97135 0.63660 0.13800
C 	C 	0.86803 0.98095 0.09095 0.03000
C 	C 	0.94895 0.98205 0.57268 -0.09100
C 	C 	0.95490 0.97998 0.15154 0.09900
N 	N 	0.25426 0.99666 0.91065 -0.11200
H 	H 	0.02047 0.99731 0.76917 0.06300
Zn	Zn	0.91395 0.99153 0.90302 1.18700
C 	C 	0.53768 0.99054 0.79398 0.02700
C 	C 	0.45850 0.98804 0.81065 -0.03500
C 	C 	0.15198 0.98485 0.71375 -0.08700
N 	N 	0.34154 0.98349 0.54498 -0.15000
H 	H 	0.31205 0.98664 0.51553 0.07500
N 	N 	0.72945 0.99723 0.63570 -0.14100
C 	C 	0.79686 0.98574 0.58338 0.06200
C 	C 	0.80787 0.98504 0.62571 -0.04200
C 	C 	0.99353 0.99006 0.56202 0.10700
