data_crystal

_cell_length_a 27.79657
_cell_length_b 28.14245
_cell_length_c 34.94773
_cell_angle_alpha 95.48083
_cell_angle_beta  95.47699
_cell_angle_gamma 125.64699

_symmetry_space_group_name_	'P 1'
_symmetry_space_group_name_H-M	'P 1'

loop_
_symmetry_equiv_pos_as_xyz
  x,y,z

loop_
_atom_site_label
_atom_site_type_symbol
_atom_site_fract_x
_atom_site_fract_y
_atom_site_fract_z
_atom_site_charge
C 	C 	0.94980 0.02060 0.98759 0.05100
C 	C 	0.91631 0.95891 0.98538 -0.08300
C 	C 	0.94363 0.93046 0.97999 0.05300
C 	C 	0.00447 0.96364 0.97677 -0.08100
C 	C 	0.03815 0.02535 0.97904 0.05300
C 	C 	0.01082 0.05392 0.98443 -0.08200
H 	H 	0.86914 0.93315 0.98784 0.05900
H 	H 	0.02564 0.94157 0.97272 0.06000
H 	H 	0.03683 0.10169 0.98618 0.06000
C 	C 	0.95794 0.00898 0.45525 0.05100
C 	C 	0.02029 0.04226 0.45673 -0.08200
C 	C 	0.04930 0.01528 0.46080 0.05300
C 	C 	0.01607 0.95500 0.46335 -0.08100
C 	C 	0.95377 0.92149 0.46182 0.05200
C 	C 	0.92455 0.94844 0.45778 -0.08200
H 	H 	0.04614 0.08906 0.45484 0.05900
H 	H 	0.03864 0.93415 0.46646 0.06000
H 	H 	0.87630 0.92258 0.45667 0.06000
Cu	Cu	0.62264 0.24020 0.00042 0.93000
Cu	Cu	0.66995 0.24240 0.91785 0.87500
Cu	Cu	0.65894 0.33572 0.95093 0.90100
Cu	Cu	0.63545 0.35688 0.02992 0.89800
C 	C 	0.64429 0.28411 0.08254 0.31100
O 	O 	0.53714 0.21315 0.00081 -0.35800
C 	C 	0.64608 0.30145 0.86585 0.30800
O 	O 	0.67735 0.33330 0.00480 -0.63900
O 	O 	0.61529 0.24791 0.94497 -0.63900
O 	O 	0.65383 0.19198 0.99616 -0.36100
O 	O 	0.72369 0.25328 0.96151 -0.43100
O 	O 	0.62018 0.31131 0.07332 -0.38000
O 	O 	0.70664 0.42155 0.95911 -0.36900
C 	C 	0.70183 0.45545 0.98479 0.31400
C 	C 	0.51787 0.24234 0.98701 0.30200
O 	O 	0.55660 0.29826 0.98404 -0.39200
O 	O 	0.68001 0.43822 0.01687 -0.38700
O 	O 	0.64311 0.24699 0.05564 -0.34200
C 	C 	0.70473 0.21322 0.98389 0.31500
O 	O 	0.64724 0.33657 0.89459 -0.36100
O 	O 	0.63683 0.25112 0.87095 -0.41100
H 	H 	0.72088 0.35649 0.01578 0.18000
H 	H 	0.57364 0.22450 0.92988 0.17800
Cu	Cu	0.75195 0.34719 0.45318 0.93000
Cu	Cu	0.75085 0.30106 0.53600 0.87900
Cu	Cu	0.65646 0.31301 0.50375 0.90000
Cu	Cu	0.63675 0.34001 0.42586 0.89900
C 	C 	0.70793 0.32926 0.37120 0.31000
O 	O 	0.78346 0.43303 0.45305 -0.34800
C 	C 	0.69205 0.32453 0.58854 0.30700
O 	O 	0.65794 0.29577 0.44959 -0.64000
O 	O 	0.74532 0.35515 0.50894 -0.63900
O 	O 	0.79810 0.31331 0.45629 -0.36500
O 	O 	0.73661 0.24633 0.49221 -0.43000
O 	O 	0.68015 0.35264 0.38109 -0.36500
O 	O 	0.56954 0.26653 0.49596 -0.37400
C 	C 	0.53470 0.26642 0.46742 0.31200
C 	C 	0.75551 0.45398 0.46671 0.30300
O 	O 	0.69968 0.41709 0.47140 -0.38900
O 	O 	0.55705 0.30275 0.44217 -0.38600
O 	O 	0.74301 0.32653 0.39775 -0.35200
C 	C 	0.77587 0.26321 0.46898 0.30900
O 	O 	0.65626 0.32392 0.56029 -0.36900
O 	O 	0.74329 0.33478 0.58296 -0.39800
H 	H 	0.63315 0.25287 0.43797 0.17100
H 	H 	0.76961 0.39642 0.52389 0.17900
C 	C 	0.67895 0.32269 0.62846 -0.09900
C 	C 	0.67829 0.28241 0.64990 0.14700
C 	C 	0.66919 0.28340 0.68853 -0.08400
C 	C 	0.65910 0.32314 0.70585 0.02300
C 	C 	0.65788 0.36218 0.68410 0.08300
C 	C 	0.66793 0.36189 0.64557 -0.00900
H 	H 	0.66953 0.25289 0.70508 0.08200
C 	C 	0.65158 0.32454 0.74712 0.02400
H 	H 	0.66780 0.39256 0.62911 0.06500
C 	C 	0.70138 0.36693 0.77656 -0.08300
C 	C 	0.69865 0.36207 0.81591 0.14300
C 	C 	0.64580 0.31407 0.82600 -0.09900
C 	C 	0.59476 0.27393 0.79677 -0.01100
C 	C 	0.59730 0.27920 0.75746 0.08200
H 	H 	0.74299 0.40239 0.76876 0.08300
H 	H 	0.55358 0.23764 0.80448 0.06100
Br	Br	0.64193 0.41562 0.70637 -0.21200
Br	Br	0.68656 0.22359 0.62632 -0.27200
Br	Br	0.76871 0.41943 0.85523 -0.24700
Br	Br	0.52662 0.22352 0.71820 -0.21400
C 	C 	0.65621 0.28173 0.12406 -0.09500
C 	C 	0.71158 0.29479 0.14131 0.14400
C 	C 	0.72400 0.29764 0.18163 -0.08400
C 	C 	0.68189 0.28814 0.20501 0.02300
C 	C 	0.62601 0.27365 0.18758 0.08500
C 	C 	0.61324 0.26991 0.14728 -0.01200
H 	H 	0.76709 0.30895 0.19497 0.08300
C 	C 	0.69883 0.29941 0.24802 0.02100
H 	H 	0.57025 0.25901 0.13410 0.06800
C 	C 	0.73140 0.35775 0.26904 -0.08500
C 	C 	0.73834 0.36840 0.30981 0.14900
C 	C 	0.71187 0.32023 0.32983 -0.09400
C 	C 	0.68367 0.26240 0.30914 -0.01400
C 	C 	0.67738 0.25183 0.26834 0.08800
H 	H 	0.74962 0.39467 0.25357 0.08000
H 	H 	0.66473 0.22539 0.32456 0.05900
Br	Br	0.56749 0.26118 0.21862 -0.21700
Br	Br	0.77222 0.31234 0.11085 -0.23900
Br	Br	0.78455 0.44904 0.33770 -0.22300
Br	Br	0.63786 0.17209 0.24075 -0.21100
C 	C 	0.86657 0.74593 0.46796 0.02300
C 	C 	0.88117 0.73073 0.50197 -0.04300
C 	C 	0.85922 0.67171 0.50252 -0.02500
C 	C 	0.82268 0.62769 0.46906 -0.00400
C 	C 	0.80720 0.64270 0.43530 -0.02400
C 	C 	0.82912 0.70168 0.43475 -0.04300
C 	C 	0.89466 0.80752 0.46595 -0.00700
C 	C 	0.92018 0.85933 0.46409 -0.02400
C 	C 	0.80074 0.56704 0.46930 0.05400
C 	C 	0.78112 0.51576 0.46866 -0.09700
H 	H 	0.91034 0.76474 0.52771 0.04800
H 	H 	0.87108 0.66039 0.52881 0.04400
H 	H 	0.77867 0.60882 0.40939 0.05000
H 	H 	0.81787 0.71311 0.40830 0.04900
C 	C 	0.88146 0.09608 0.44690 0.02300
C 	C 	0.91781 0.15535 0.44163 -0.04400
C 	C 	0.89544 0.18885 0.44261 -0.02500
C 	C 	0.83661 0.16322 0.44882 -0.00800
C 	C 	0.79968 0.10342 0.45294 -0.02500
C 	C 	0.82208 0.06993 0.45200 -0.04400
C 	C 	0.90636 0.06340 0.44936 -0.00800
C 	C 	0.92876 0.03753 0.45188 -0.02400
C 	C 	0.81589 0.19946 0.45437 0.05400
C 	C 	0.79808 0.22917 0.46025 -0.10800
H 	H 	0.96373 0.17583 0.43757 0.04700
H 	H 	0.92428 0.23503 0.43942 0.04500
H 	H 	0.75415 0.08329 0.45777 0.04400
H 	H 	0.79366 0.02412 0.45601 0.04800
C 	C 	0.35474 0.17324 0.46733 -0.00500
C 	C 	0.32767 0.20234 0.46476 -0.02400
C 	C 	0.26572 0.17075 0.46373 -0.04300
C 	C 	0.23064 0.10997 0.46526 0.02400
C 	C 	0.25776 0.08093 0.46801 -0.04300
C 	C 	0.31971 0.11251 0.46904 -0.02400
C 	C 	0.41826 0.20551 0.46762 0.05400
C 	C 	0.47145 0.23299 0.46765 -0.09800
C 	C 	0.16680 0.07727 0.46371 -0.00700
C 	C 	0.11327 0.04938 0.46238 -0.02400
H 	H 	0.35451 0.24929 0.46342 0.04600
H 	H 	0.24503 0.19348 0.46162 0.04800
H 	H 	0.23088 0.03393 0.46923 0.04900
H 	H 	0.34036 0.08974 0.47102 0.04600
C 	C 	0.84769 0.75134 0.97589 0.02300
C 	C 	0.86810 0.72031 0.95931 -0.04200
C 	C 	0.83713 0.65957 0.95973 -0.02400
C 	C 	0.78563 0.62966 0.97674 -0.00500
C 	C 	0.76474 0.66051 0.99283 -0.02400
C 	C 	0.79570 0.72125 0.99240 -0.04200
C 	C 	0.88112 0.81437 0.97707 -0.00600
C 	C 	0.90944 0.86725 0.97830 -0.02500
C 	C 	0.75565 0.56795 0.97907 0.05500
C 	C 	0.73089 0.51646 0.98144 -0.09400
H 	H 	0.90823 0.74330 0.94646 0.04900
H 	H 	0.85352 0.63598 0.94723 0.05000
H 	H 	0.72494 0.63765 0.00602 0.04300
H 	H 	0.77965 0.74496 0.00524 0.04600
C 	C 	0.86361 0.09755 0.00032 0.02200
C 	C 	0.89359 0.15868 0.00160 -0.04400
C 	C 	0.86143 0.18264 0.00214 -0.02400
C 	C 	0.79916 0.14555 0.00138 -0.00900
C 	C 	0.76953 0.08472 0.00130 -0.02300
C 	C 	0.80170 0.06077 0.00080 -0.04600
C 	C 	0.89552 0.07194 0.99634 -0.00600
C 	C 	0.92108 0.04936 0.99253 -0.02500
C 	C 	0.76493 0.16879 0.99680 0.05900
C 	C 	0.73688 0.18867 0.99169 -0.10500
H 	H 	0.94148 0.18742 0.00137 0.04700
H 	H 	0.88465 0.22971 0.00217 0.04500
H 	H 	0.72140 0.05575 0.00068 0.04400
H 	H 	0.77826 0.01349 0.99996 0.04900
C 	C 	0.21632 0.11623 0.97243 0.02300
C 	C 	0.23408 0.08803 0.94876 -0.04400
C 	C 	0.29531 0.11477 0.94962 -0.02400
C 	C 	0.33903 0.16982 0.97413 -0.00700
C 	C 	0.32125 0.19876 0.99700 -0.02300
C 	C 	0.26002 0.17200 0.99617 -0.04200
C 	C 	0.15360 0.08592 0.97450 -0.00700
C 	C 	0.10102 0.05922 0.97649 -0.02400
C 	C 	0.40196 0.19498 0.97758 0.05200
C 	C 	0.45478 0.21629 0.98134 -0.10300
H 	H 	0.20053 0.04490 0.93033 0.04800
H 	H 	0.30869 0.09218 0.93181 0.04400
H 	H 	0.35481 0.24139 0.01597 0.04200
H 	H 	0.24665 0.19407 0.01454 0.04700
