data_crystal

_cell_length_a 26.26845
_cell_length_b 26.43957
_cell_length_c 34.47817
_cell_angle_alpha 95.49067
_cell_angle_beta  95.48775
_cell_angle_gamma 125.83414

_symmetry_space_group_name_	'P 1'
_symmetry_space_group_name_H-M	'P 1'

loop_
_symmetry_equiv_pos_as_xyz
  x,y,z

loop_
_atom_site_label
_atom_site_type_symbol
_atom_site_fract_x
_atom_site_fract_y
_atom_site_fract_z
_atom_site_charge
C 	C 	0.99376 0.05800 0.99360 0.25300
C 	C 	0.95876 0.99215 0.99123 -0.13600
C 	C 	0.98927 0.96310 0.98830 0.25700
C 	C 	0.05476 0.99984 0.98748 -0.14000
C 	C 	0.08999 0.06567 0.98991 0.25100
C 	C 	0.05945 0.09477 0.99289 -0.13800
H 	H 	0.90804 0.96368 0.99184 0.15900
H 	H 	0.07837 0.97734 0.98528 0.15600
H 	H 	0.08667 0.14572 0.99487 0.15900
C 	C 	0.91096 0.97069 0.46099 0.25600
C 	C 	0.97749 0.00665 0.46414 -0.13600
C 	C 	0.00729 0.97674 0.46478 0.25200
C 	C 	0.97064 0.91089 0.46243 -0.13500
C 	C 	0.90413 0.87467 0.45909 0.25100
C 	C 	0.87426 0.90462 0.45848 -0.13500
H 	H 	0.00589 0.05767 0.46597 0.15600
H 	H 	0.99377 0.88780 0.46298 0.15600
H 	H 	0.82280 0.87669 0.45590 0.16000
Cu	Cu	0.66349 0.26794 0.00676 0.94100
Cu	Cu	0.70133 0.25970 0.91927 0.90300
Cu	Cu	0.70703 0.37011 0.95618 0.91200
Cu	Cu	0.68313 0.39520 0.03668 0.92500
C 	C 	0.68926 0.31563 0.09035 0.30100
O 	O 	0.57425 0.24182 0.00913 -0.31300
C 	C 	0.67192 0.32266 0.86949 0.29900
O 	O 	0.72437 0.36697 0.01082 -0.63600
O 	O 	0.65348 0.27571 0.95062 -0.63300
O 	O 	0.69353 0.21406 0.00110 -0.31500
O 	O 	0.76253 0.27277 0.96118 -0.38500
O 	O 	0.66727 0.34790 0.08143 -0.33800
O 	O 	0.76216 0.46181 0.96524 -0.33300
C 	C 	0.75693 0.49907 0.99015 0.40100
C 	C 	0.55510 0.27435 0.99598 0.38100
O 	O 	0.59749 0.33303 0.99154 -0.34500
O 	O 	0.73053 0.48100 0.02180 -0.32200
O 	O 	0.68729 0.27604 0.06263 -0.32000
C 	C 	0.74500 0.23341 0.98615 0.39500
O 	O 	0.70433 0.37235 0.89894 -0.34400
O 	O 	0.66134 0.26842 0.87380 -0.36900
H 	H 	0.77025 0.38995 0.02210 0.21000
H 	H 	0.60880 0.25412 0.93711 0.20900
Cu	Cu	0.70721 0.30443 0.45172 0.94000
Cu	Cu	0.72159 0.28077 0.54280 0.90200
Cu	Cu	0.60787 0.27007 0.50422 0.91300
Cu	Cu	0.57652 0.28091 0.41951 0.92500
C 	C 	0.66499 0.28549 0.36884 0.29600
O 	O 	0.73795 0.39268 0.44439 -0.32300
C 	C 	0.66104 0.31743 0.58998 0.29900
O 	O 	0.60771 0.24617 0.45011 -0.63500
O 	O 	0.70264 0.32266 0.50765 -0.63200
O 	O 	0.75961 0.27284 0.45915 -0.31600
O 	O 	0.70515 0.21385 0.50438 -0.38300
O 	O 	0.60732 0.26951 0.37086 -0.33300
O 	O 	0.51569 0.21437 0.49724 -0.33300
C 	C 	0.47680 0.21416 0.46983 0.40100
C 	C 	0.70372 0.41320 0.44993 0.38700
O 	O 	0.64546 0.37436 0.45644 -0.34300
O 	O 	0.49841 0.25056 0.44278 -0.32400
O 	O 	0.69578 0.27614 0.39629 -0.32000
C 	C 	0.74186 0.22562 0.47799 0.39600
O 	O 	0.60940 0.28032 0.56186 -0.34600
O 	O 	0.71526 0.32680 0.58598 -0.36800
H 	H 	0.58493 0.19993 0.44151 0.21100
H 	H 	0.72435 0.36817 0.51835 0.21100
C 	C 	0.68448 0.37888 0.70257 0.00900
C 	C 	0.71841 0.39543 0.74121 -0.03300
C 	C 	0.68699 0.35542 0.76796 0.04000
C 	C 	0.62573 0.29831 0.75537 0.00400
C 	C 	0.59103 0.28218 0.71717 -0.03100
C 	C 	0.62216 0.32207 0.69014 0.04100
S 	S 	0.71802 0.39881 0.66280 0.11300
C 	C 	0.65506 0.34008 0.62863 -0.05900
C 	C 	0.60544 0.30045 0.64843 -0.00300
S 	S 	0.59476 0.27244 0.79520 0.11200
C 	C 	0.65751 0.33140 0.82963 -0.05700
C 	C 	0.70550 0.37393 0.80977 -0.00600
H 	H 	0.76700 0.43831 0.75022 0.08700
H 	H 	0.54291 0.23858 0.70814 0.08600
H 	H 	0.56376 0.25322 0.63441 0.08200
H 	H 	0.75245 0.41515 0.82482 0.08300
C 	C 	0.68066 0.33142 0.26595 0.01100
C 	C 	0.70063 0.36481 0.23474 -0.03000
C 	C 	0.68540 0.32942 0.19690 0.04600
C 	C 	0.65554 0.26410 0.19162 0.00400
C 	C 	0.64553 0.23308 0.22396 -0.02500
C 	C 	0.65637 0.26744 0.26136 0.04100
S 	S 	0.70691 0.36291 0.31388 0.11800
C 	C 	0.68659 0.29721 0.33094 -0.05000
C 	C 	0.65902 0.24778 0.29785 -0.00100
S 	S 	0.66168 0.24059 0.14704 0.13200
C 	C 	0.69965 0.31092 0.13208 -0.05500
C 	C 	0.70997 0.35595 0.16349 -0.00400
H 	H 	0.72802 0.41607 0.23981 0.09100
H 	H 	0.63145 0.18509 0.22037 0.08800
H 	H 	0.63823 0.19898 0.30019 0.08500
H 	H 	0.73117 0.40495 0.16146 0.07900
C 	C 	0.83084 0.70307 0.41994 0.25100
C 	C 	0.80917 0.67581 0.45331 -0.00500
C 	C 	0.81406 0.71297 0.48749 0.25200
C 	C 	0.84245 0.77750 0.48876 0.29700
C 	C 	0.86596 0.80523 0.45581 -0.16000
C 	C 	0.85893 0.76747 0.42114 0.29600
C 	C 	0.78220 0.60858 0.45262 0.00700
F 	F 	0.79214 0.68671 0.51963 -0.32400
F 	F 	0.88078 0.79368 0.38896 -0.33700
C 	C 	0.81926 0.59263 0.47178 0.23400
C 	C 	0.79393 0.52882 0.47073 0.31900
C 	C 	0.73137 0.48046 0.45033 -0.20800
C 	C 	0.69457 0.49659 0.43091 0.31700
C 	C 	0.71981 0.56035 0.43221 0.23600
F 	F 	0.87982 0.63903 0.49141 -0.32500
F 	F 	0.63464 0.45038 0.41029 -0.37200
F 	F 	0.82963 0.51402 0.49022 -0.36700
F 	F 	0.68372 0.57537 0.41355 -0.32200
F 	F 	0.82574 0.66734 0.38663 -0.32700
F 	F 	0.84891 0.81356 0.52238 -0.33800
C 	C 	0.74150 0.08211 0.46106 0.23600
C 	C 	0.80669 0.11082 0.46219 0.00700
C 	C 	0.84991 0.17702 0.46584 0.23600
C 	C 	0.82839 0.21445 0.46955 0.31800
C 	C 	0.76345 0.18593 0.46978 -0.20800
C 	C 	0.71993 0.11946 0.46484 0.31900
C 	C 	0.83013 0.07189 0.46125 -0.00400
F 	F 	0.91301 0.20516 0.46677 -0.32200
F 	F 	0.65675 0.09112 0.46375 -0.36300
C 	C 	0.84504 0.05627 0.42617 0.25100
C 	C 	0.86990 0.02171 0.42580 0.29800
C 	C 	0.87989 0.00244 0.46050 -0.16300
C 	C 	0.86373 0.01692 0.49535 0.29700
C 	C 	0.83901 0.05159 0.49575 0.25000
F 	F 	0.83595 0.07509 0.39256 -0.32200
F 	F 	0.87326 0.99851 0.52904 -0.33500
F 	F 	0.88499 0.00755 0.39188 -0.33900
F 	F 	0.82462 0.06638 0.52979 -0.32700
F 	F 	0.69919 0.01802 0.45678 -0.32300
F 	F 	0.87102 0.27859 0.47446 -0.35700
C 	C 	0.18436 0.08013 0.50628 0.25100
C 	C 	0.20901 0.07959 0.47199 -0.00400
C 	C 	0.16742 0.04659 0.43520 0.25100
C 	C 	0.10158 0.01395 0.43275 0.29700
C 	C 	0.07686 0.01412 0.46706 -0.16400
C 	C 	0.11847 0.04750 0.50382 0.29700
C 	C 	0.27846 0.11495 0.47437 0.00700
F 	F 	0.19096 0.04633 0.40185 -0.32200
F 	F 	0.09491 0.04764 0.53717 -0.34300
C 	C 	0.30636 0.08312 0.47595 0.23700
C 	C 	0.37162 0.11589 0.47547 0.31900
C 	C 	0.40933 0.18069 0.47331 -0.20200
C 	C 	0.38167 0.21287 0.47295 0.32200
C 	C 	0.31648 0.18006 0.47338 0.23700
F 	F 	0.26996 0.02021 0.47729 -0.32500
F 	F 	0.41809 0.27602 0.47231 -0.35000
F 	F 	0.39782 0.08432 0.47593 -0.36000
F 	F 	0.28997 0.21131 0.47229 -0.32000
F 	F 	0.22430 0.11212 0.54194 -0.32500
F 	F 	0.06165 0.98188 0.39708 -0.33300
C 	C 	0.88386 0.66698 0.97830 0.23600
C 	C 	0.85223 0.69472 0.98289 0.00800
C 	C 	0.78835 0.65739 0.98789 0.23800
C 	C 	0.75671 0.59304 0.98923 0.32000
C 	C 	0.78878 0.56552 0.98565 -0.20000
C 	C 	0.85233 0.60264 0.97972 0.32100
C 	C 	0.88686 0.76341 0.98428 -0.00500
F 	F 	0.75729 0.68380 0.99203 -0.31900
F 	F 	0.88417 0.57688 0.97668 -0.35800
C 	C 	0.88148 0.78605 0.95008 0.25100
C 	C 	0.91442 0.85132 0.95148 0.29900
C 	C 	0.95297 0.89431 0.98708 -0.16400
C 	C 	0.95805 0.87162 0.02131 0.30200
C 	C 	0.92509 0.80639 0.01992 0.25300
F 	F 	0.84454 0.74477 0.91551 -0.32500
F 	F 	0.99501 0.91288 0.05589 -0.33200
F 	F 	0.90942 0.87292 0.91821 -0.34200
F 	F 	0.93019 0.78482 0.05318 -0.32000
F 	F 	0.94556 0.70275 0.97320 -0.32400
F 	F 	0.69485 0.55734 0.99404 -0.35100
C 	C 	0.78712 0.12040 0.99494 0.23300
C 	C 	0.85419 0.16260 0.00234 0.00900
C 	C 	0.88502 0.22832 0.00869 0.23400
C 	C 	0.84911 0.25166 0.00567 0.32200
C 	C 	0.78201 0.20939 0.99617 -0.21100
C 	C 	0.75112 0.14369 0.99194 0.31900
C 	C 	0.89198 0.13795 0.00063 -0.00200
F 	F 	0.94986 0.26949 0.01681 -0.32300
F 	F 	0.68632 0.10231 0.98297 -0.36000
C 	C 	0.91254 0.13246 0.96540 0.24700
C 	C 	0.94713 0.10773 0.96339 0.29900
C 	C 	0.96139 0.08829 0.99660 -0.16300
C 	C 	0.94165 0.09469 0.03203 0.30000
C 	C 	0.90704 0.11943 0.03403 0.25200
F 	F 	0.89832 0.15043 0.93299 -0.32900
F 	F 	0.95567 0.07650 0.06440 -0.33900
F 	F 	0.96579 0.10150 0.92897 -0.33900
F 	F 	0.88783 0.12511 0.06831 -0.32100
F 	F 	0.75692 0.05676 0.98933 -0.32400
F 	F 	0.87949 0.31533 0.01126 -0.36300
C 	C 	0.37486 0.15715 0.97153 0.23500
C 	C 	0.35700 0.19444 0.98717 0.00500
C 	C 	0.40411 0.25888 0.00361 0.23900
C 	C 	0.46880 0.28546 0.00558 0.32000
C 	C 	0.48691 0.24776 0.99090 -0.20400
C 	C 	0.43955 0.18371 0.97330 0.31700
C 	C 	0.28929 0.16510 0.98852 -0.00600
F 	F 	0.38719 0.29538 0.01849 -0.32000
F 	F 	0.45623 0.14723 0.95795 -0.36800
C 	C 	0.26610 0.14676 0.02354 0.25100
C 	C 	0.20135 0.11649 0.02444 0.29800
C 	C 	0.15925 0.10416 0.99028 -0.16300
C 	C 	0.18273 0.12396 0.95554 0.29800
C 	C 	0.24757 0.15436 0.95467 0.25100
F 	F 	0.30621 0.15738 0.05650 -0.32700
F 	F 	0.14239 0.11232 0.92238 -0.33900
F 	F 	0.17916 0.09799 0.05825 -0.33800
F 	F 	0.26976 0.17267 0.92082 -0.32300
F 	F 	0.32952 0.09487 0.95526 -0.32700
F 	F 	0.51393 0.34719 0.02313 -0.36400
