data_crystal

_cell_length_a 27.69492
_cell_length_b 28.11297
_cell_length_c 45.44700
_cell_angle_alpha 95.51184
_cell_angle_beta  95.51042
_cell_angle_gamma 125.65437

_symmetry_space_group_name_	'P 1'
_symmetry_space_group_name_H-M	'P 1'

loop_
_symmetry_equiv_pos_as_xyz
  x,y,z

loop_
_atom_site_label
_atom_site_type_symbol
_atom_site_fract_x
_atom_site_fract_y
_atom_site_fract_z
_atom_site_charge
N 	N 	0.94278 0.97394 0.99940 -0.13900
N 	N 	0.02748 0.97599 0.99428 -0.13900
C 	C 	0.06051 0.03507 0.99377 0.13000
N 	N 	0.03470 0.06378 0.99607 -0.13900
C 	C 	0.93333 0.99419 0.46369 0.13700
C 	C 	0.02268 0.00139 0.46692 0.13300
C 	C 	0.93066 0.90999 0.46812 0.13300
N 	N 	0.90158 0.93554 0.46561 -0.14000
Cu	Cu	0.64824 0.25516 0.00235 0.92800
Cu	Cu	0.70614 0.26267 0.94200 0.86900
Cu	Cu	0.68222 0.34799 0.96256 0.89600
Cu	Cu	0.64483 0.36343 0.01998 0.89500
C 	C 	0.65556 0.29621 0.06431 0.29000
O 	O 	0.55898 0.21867 0.99911 -0.36200
C 	C 	0.67541 0.31107 0.89780 0.28800
O 	O 	0.69596 0.34760 0.00476 -0.64100
O 	O 	0.64422 0.26120 0.95927 -0.64100
O 	O 	0.68745 0.21406 0.00297 -0.37200
O 	O 	0.75818 0.27914 0.97793 -0.44500
O 	O 	0.62971 0.32066 0.05463 -0.38500
O 	O 	0.72460 0.43342 0.96821 -0.38400
C 	C 	0.72060 0.46589 0.98942 0.31100
C 	C 	0.53590 0.24333 0.98671 0.30300
O 	O 	0.57181 0.29873 0.98317 -0.39600
O 	O 	0.68036 0.44149 0.00710 -0.39500
O 	O 	0.66484 0.26489 0.04530 -0.36100
C 	C 	0.74011 0.23862 0.99480 0.31200
O 	O 	0.67704 0.34825 0.91892 -0.38000
O 	O 	0.67263 0.26473 0.90394 -0.42000
H 	H 	0.73890 0.37433 0.01500 0.16500
H 	H 	0.60345 0.23492 0.94640 0.17600
Cu	Cu	0.72780 0.33432 0.46242 0.92700
Cu	Cu	0.73014 0.29198 0.52713 0.87100
Cu	Cu	0.63220 0.29918 0.50169 0.89800
Cu	Cu	0.61248 0.32846 0.44194 0.89500
C 	C 	0.68020 0.31291 0.39950 0.28900
O 	O 	0.76058 0.42062 0.46214 -0.36100
C 	C 	0.67734 0.32490 0.56742 0.28900
O 	O 	0.63356 0.28385 0.45987 -0.64000
O 	O 	0.72163 0.34312 0.50533 -0.64100
O 	O 	0.77274 0.29878 0.46478 -0.37300
O 	O 	0.71293 0.23454 0.49402 -0.44200
O 	O 	0.65429 0.33848 0.40702 -0.38300
O 	O 	0.54482 0.25208 0.49533 -0.38200
C 	C 	0.51048 0.25377 0.47382 0.30800
C 	C 	0.73310 0.44231 0.47258 0.30100
O 	O 	0.67724 0.40600 0.47655 -0.39300
O 	O 	0.53384 0.29295 0.45581 -0.39400
O 	O 	0.71812 0.31322 0.41973 -0.36000
C 	C 	0.75062 0.24936 0.47532 0.30800
O 	O 	0.63057 0.30137 0.54519 -0.38600
O 	O 	0.72659 0.33047 0.56286 -0.41800
H 	H 	0.60864 0.24106 0.45057 0.16400
H 	H 	0.74526 0.38474 0.51635 0.17300
C 	C 	0.67326 0.31961 0.86628 -0.09000
C 	C 	0.64483 0.34426 0.85528 0.02100
C 	C 	0.64197 0.35093 0.82514 -0.07200
C 	C 	0.66764 0.33321 0.80591 0.04600
C 	C 	0.69650 0.30923 0.81692 -0.07400
C 	C 	0.69933 0.30244 0.84694 0.01800
C 	C 	0.66396 0.33887 0.77474 -0.03100
C 	C 	0.66215 0.34263 0.74850 -0.00100
C 	C 	0.66130 0.34579 0.71765 -0.00100
C 	C 	0.66163 0.34751 0.69125 -0.03000
C 	C 	0.66330 0.34843 0.65970 0.04500
C 	C 	0.61129 0.30599 0.63807 -0.07200
C 	C 	0.61505 0.30044 0.60759 0.01700
C 	C 	0.67108 0.33712 0.59859 -0.09100
C 	C 	0.72240 0.38178 0.62017 0.01800
C 	C 	0.71849 0.38732 0.65060 -0.07300
H 	H 	0.62430 0.35747 0.86989 0.03600
H 	H 	0.61958 0.36953 0.81676 0.05200
H 	H 	0.71664 0.29567 0.80220 0.04900
H 	H 	0.72203 0.28407 0.85520 0.02200
H 	H 	0.56838 0.27593 0.64492 0.05100
H 	H 	0.57500 0.26599 0.59120 0.03700
H 	H 	0.76565 0.41111 0.61348 0.03000
H 	H 	0.75882 0.42054 0.66718 0.05000
C 	C 	0.67879 0.29790 0.36729 -0.08600
C 	C 	0.62540 0.27223 0.34629 0.01800
C 	C 	0.62578 0.26547 0.31546 -0.07100
C 	C 	0.67948 0.28432 0.30536 0.04600
C 	C 	0.73225 0.30748 0.32622 -0.07100
C 	C 	0.73194 0.31415 0.35711 0.02100
C 	C 	0.68141 0.28438 0.27379 -0.02900
C 	C 	0.68130 0.28379 0.24722 0.00000
C 	C 	0.67948 0.28378 0.21606 0.00000
C 	C 	0.67630 0.28425 0.18945 -0.02900
C 	C 	0.67035 0.28528 0.15771 0.04500
C 	C 	0.62223 0.28330 0.14302 -0.07100
C 	C 	0.61719 0.28644 0.11251 0.01900
C 	C 	0.66035 0.29159 0.09637 -0.08500
C 	C 	0.70816 0.29276 0.11103 0.01700
C 	C 	0.71321 0.28977 0.14166 -0.07100
H 	H 	0.58395 0.25881 0.35385 0.02300
H 	H 	0.58470 0.24710 0.29945 0.05000
H 	H 	0.77388 0.32188 0.31856 0.05200
H 	H 	0.77347 0.33398 0.37305 0.04100
H 	H 	0.58884 0.27963 0.15527 0.05100
H 	H 	0.57957 0.28457 0.10139 0.03600
H 	H 	0.74176 0.29677 0.09886 0.03400
H 	H 	0.75057 0.29135 0.15290 0.05100
C 	C 	0.80233 0.61711 0.47579 -0.00900
C 	C 	0.76761 0.62997 0.45880 -0.02800
C 	C 	0.79032 0.68922 0.45829 -0.04300
C 	C 	0.84781 0.73584 0.47478 0.01700
C 	C 	0.88191 0.72296 0.49232 -0.04300
C 	C 	0.85923 0.66373 0.49282 -0.02800
C 	C 	0.87401 0.79659 0.47185 0.00500
C 	C 	0.89796 0.84812 0.47012 -0.03700
C 	C 	0.77987 0.55605 0.47530 0.04700
C 	C 	0.75972 0.50447 0.47438 -0.10900
H 	H 	0.72341 0.59415 0.44571 0.03900
H 	H 	0.76371 0.69878 0.44465 0.04500
H 	H 	0.92644 0.75876 0.50511 0.04500
H 	H 	0.88619 0.65417 0.50613 0.03900
C 	C 	0.81157 0.14878 0.46079 -0.01100
C 	C 	0.77402 0.08854 0.46327 -0.02900
C 	C 	0.79631 0.05481 0.46232 -0.04400
C 	C 	0.85621 0.08119 0.45887 0.01600
C 	C 	0.89311 0.14088 0.45542 -0.04400
C 	C 	0.87085 0.17460 0.45638 -0.02900
C 	C 	0.88103 0.04823 0.46056 0.00600
C 	C 	0.90354 0.02225 0.46185 -0.04100
C 	C 	0.79097 0.18524 0.46536 0.04700
C 	C 	0.77287 0.21496 0.46926 -0.11800
H 	H 	0.72810 0.06821 0.46663 0.03800
H 	H 	0.76740 0.00864 0.46487 0.04400
H 	H 	0.93940 0.16153 0.45263 0.04500
H 	H 	0.90014 0.22108 0.45442 0.04000
C 	C 	0.20459 0.09679 0.47035 0.01700
C 	C 	0.23117 0.06700 0.47123 -0.04400
C 	C 	0.29344 0.09851 0.47233 -0.02900
C 	C 	0.32935 0.15993 0.47258 -0.00900
C 	C 	0.30280 0.18977 0.47181 -0.02800
C 	C 	0.24053 0.15826 0.47070 -0.04300
C 	C 	0.39323 0.19222 0.47313 0.04700
C 	C 	0.44679 0.21991 0.47358 -0.10700
C 	C 	0.14048 0.06422 0.46910 0.00500
C 	C 	0.08671 0.03611 0.46805 -0.03800
H 	H 	0.20364 0.01947 0.47099 0.04500
H 	H 	0.31366 0.07516 0.47290 0.03900
H 	H 	0.33031 0.23727 0.47197 0.04100
H 	H 	0.22028 0.18158 0.47006 0.04500
C 	C 	0.81141 0.64387 0.99114 -0.00900
C 	C 	0.78382 0.67101 0.99874 -0.02700
C 	C 	0.81471 0.73225 0.99999 -0.04300
C 	C 	0.87325 0.76651 0.99364 0.01700
C 	C 	0.90072 0.73931 0.98592 -0.04300
C 	C 	0.86985 0.67809 0.98467 -0.02800
C 	C 	0.90536 0.82957 0.99514 0.00500
C 	C 	0.93348 0.88247 0.99619 -0.03800
C 	C 	0.78002 0.58109 0.99036 0.04900
C 	C 	0.75322 0.52846 0.98979 -0.10900
H 	H 	0.73861 0.64476 0.00377 0.04000
H 	H 	0.79320 0.75301 0.00595 0.04500
H 	H 	0.94598 0.76557 0.98096 0.04500
H 	H 	0.89142 0.65737 0.97878 0.03900
C 	C 	0.82859 0.16314 0.99993 -0.01300
C 	C 	0.83024 0.13682 0.97262 -0.02800
C 	C 	0.86139 0.11170 0.97240 -0.04500
C 	C 	0.89116 0.11289 0.99951 0.01800
C 	C 	0.88953 0.13919 0.02685 -0.04500
C 	C 	0.85834 0.16435 0.02707 -0.02700
C 	C 	0.92158 0.08530 0.99937 0.00300
C 	C 	0.94705 0.06222 0.99927 -0.03700
C 	C 	0.79768 0.19024 0.99985 0.04900
C 	C 	0.77116 0.21222 0.99837 -0.12400
H 	H 	0.80755 0.13597 0.95155 0.03300
H 	H 	0.86229 0.09129 0.95118 0.04300
H 	H 	0.91232 0.14011 0.04789 0.04500
H 	H 	0.85752 0.18487 0.04826 0.04000
C 	C 	0.23512 0.11628 0.98346 0.01700
C 	C 	0.25376 0.07975 0.97869 -0.04300
C 	C 	0.31419 0.10504 0.97729 -0.02800
C 	C 	0.35627 0.16695 0.98068 -0.00900
C 	C 	0.33729 0.20340 0.98453 -0.02800
C 	C 	0.27679 0.17809 0.98595 -0.04400
C 	C 	0.41948 0.19331 0.98246 0.04800
C 	C 	0.47240 0.21534 0.98395 -0.11100
C 	C 	0.17396 0.09041 0.98721 0.00400
C 	C 	0.12231 0.06657 0.99019 -0.03800
H 	H 	0.22172 0.03190 0.97666 0.04500
H 	H 	0.32854 0.07662 0.97429 0.04000
H 	H 	0.36959 0.25135 0.98712 0.03900
H 	H 	0.26265 0.20658 0.98954 0.04500
C 	C 	0.96872 0.94543 0.99709 0.13400
C 	C 	0.97577 0.03316 0.99895 0.13000
N 	N 	0.99386 0.02702 0.46438 -0.14200
N 	N 	0.99109 0.94299 0.46878 -0.14000
