data_crystal

_cell_length_a 19.28200
_cell_length_b 20.83117
_cell_length_c 48.84273
_cell_angle_alpha 60.55614
_cell_angle_beta  119.21255
_cell_angle_gamma 133.34159

_symmetry_space_group_name_	'P 1'
_symmetry_space_group_name_H-M	'P 1'

loop_
_symmetry_equiv_pos_as_xyz
  x,y,z

loop_
_atom_site_label
_atom_site_type_symbol
_atom_site_fract_x
_atom_site_fract_y
_atom_site_fract_z
_atom_site_charge
C 	C 	0.00030 0.78844 0.03876 0.33400
O 	O 	0.99668 0.89303 0.54103 -0.71800
O 	O 	0.99338 0.73208 0.55594 -0.31600
C 	C 	0.99559 0.87229 0.71283 0.00700
C 	C 	0.98802 0.02069 0.43082 -0.03700
F 	F 	0.02490 0.37230 0.99391 -0.36400
F 	F 	0.05900 0.79954 0.99279 -0.40200
Co	Co	0.03771 0.88557 0.07897 1.18800
C 	C 	0.75006 0.37079 0.97544 0.24700
N 	N 	0.65161 0.33033 0.96546 -0.09900
C 	C 	0.61472 0.36762 0.96525 0.24800
N 	N 	0.67754 0.45180 0.97049 -0.11000
C 	C 	0.77483 0.49034 0.98246 0.25800
N 	N 	0.81158 0.44976 0.98504 -0.09700
C 	C 	0.70179 0.30304 0.49259 0.27500
N 	N 	0.73928 0.38674 0.49302 -0.11200
C 	C 	0.67784 0.40691 0.48623 0.27200
N 	N 	0.57969 0.34288 0.47973 -0.11700
C 	C 	0.54247 0.25712 0.48231 0.26400
N 	N 	0.60292 0.24007 0.48559 -0.11400
C 	C 	0.31578 0.63343 0.15660 0.26500
N 	N 	0.26706 0.54588 0.15663 -0.11100
C 	C 	0.31295 0.52217 0.15357 0.26900
N 	N 	0.40779 0.58490 0.15181 -0.12000
C 	C 	0.45252 0.67365 0.14787 0.26700
N 	N 	0.40788 0.69767 0.15143 -0.10800
C 	C 	0.23709 0.56951 0.65057 0.27300
N 	N 	0.33615 0.63142 0.65761 -0.11600
C 	C 	0.39484 0.61201 0.66138 0.27700
N 	N 	0.35698 0.52454 0.66648 -0.12400
C 	C 	0.25880 0.46286 0.65792 0.27600
N 	N 	0.19802 0.48554 0.64956 -0.11200
Co	Co	0.03835 0.11925 0.05639 1.18700
Co	Co	0.12894 0.06314 0.03624 1.18100
Co	Co	0.20944 0.94710 0.05454 1.20300
C 	C 	0.33161 0.14553 0.03580 0.38800
O 	O 	0.87496 0.96970 0.13564 -0.35600
C 	C 	0.93328 0.94504 0.15552 0.30500
O 	O 	0.10218 0.15442 0.02370 -0.41700
C 	C 	0.12577 0.22682 0.10516 0.40200
C 	C 	0.74116 0.91006 0.07478 0.39700
C 	C 	0.18098 0.83382 0.12047 0.40000
O 	O 	0.95977 0.91847 0.14496 -0.30600
O 	O 	0.24738 0.90800 0.10436 -0.33200
O 	O 	0.10417 0.82481 0.11887 -0.33700
O 	O 	0.05478 0.15555 0.12027 -0.39900
O 	O 	0.13317 0.22659 0.07923 -0.33300
O 	O 	0.77764 0.99598 0.06818 -0.31500
O 	O 	0.78641 0.88772 0.07160 -0.32900
O 	O 	0.13272 0.97354 0.06160 -0.74000
O 	O 	0.96406 0.81768 0.04315 -0.31200
O 	O 	0.33362 0.07696 0.05723 -0.33400
O 	O 	0.27665 0.16173 0.03590 -0.33500
Co	Co	0.01761 0.07086 0.57256 1.17300
Co	Co	0.05145 0.00529 0.53338 1.17600
C 	C 	0.81635 0.71517 0.51563 0.39300
Co	Co	0.02701 0.85102 0.51972 1.17400
C 	C 	0.22033 0.00974 0.54117 0.35900
O 	O 	0.89920 0.91396 0.66441 -0.33300
C 	C 	0.95569 0.88743 0.67737 0.28900
O 	O 	0.08152 0.11437 0.53828 -0.40900
C 	C 	0.13843 0.16314 0.62873 0.39400
C 	C 	0.73295 0.86738 0.60961 0.39500
C 	C 	0.03467 0.73515 0.58623 0.38100
O 	O 	0.97924 0.87895 0.65858 -0.33900
O 	O 	0.03206 0.77948 0.59744 -0.35800
O 	O 	0.07673 0.09270 0.64692 -0.40300
O 	O 	0.14152 0.15436 0.60412 -0.34900
O 	O 	0.78412 0.95634 0.60369 -0.30700
O 	O 	0.75994 0.82891 0.60555 -0.33700
O 	O 	0.81569 0.71961 0.54194 -0.31800
O 	O 	0.17089 0.92202 0.54507 -0.30400
O 	O 	0.19303 0.04061 0.54923 -0.35400
C 	C 	0.08205 0.94765 0.72547 -0.01200
C 	C 	0.09427 0.95435 0.75502 0.02400
H 	H 	0.13485 0.00519 0.71090 0.08000
H 	H 	0.15746 0.01600 0.76318 0.06600
H 	H 	0.17335 0.09512 0.89067 0.09200
H 	H 	0.19692 0.12084 0.93970 0.06500
C 	C 	0.06210 0.09284 0.41371 -0.00400
C 	C 	0.05401 0.08841 0.38438 -0.05400
C 	C 	0.97003 0.97473 0.29644 0.07300
C 	C 	0.97001 0.96306 0.27434 0.00400
C 	C 	0.96911 0.94922 0.24760 0.12600
C 	C 	0.04812 0.01532 0.23260 -0.09900
C 	C 	0.04188 0.00756 0.20433 -0.03300
C 	C 	0.95612 0.93417 0.19056 0.01200
H 	H 	0.12999 0.14797 0.42462 0.10500
H 	H 	0.11464 0.14141 0.37265 0.08200
H 	H 	0.82588 0.88888 0.37633 0.09200
H 	H 	0.84125 0.89547 0.42832 0.09100
H 	H 	0.11284 0.07443 0.24206 0.09500
H 	H 	0.10085 0.06192 0.19191 0.08900
H 	H 	0.82576 0.82006 0.24698 0.09900
C 	C 	0.18929 0.38039 0.61771 0.27100
C 	C 	0.22219 0.38262 0.65027 -0.13100
C 	C 	0.24711 0.32335 0.67430 0.25600
C 	C 	0.23746 0.26168 0.66604 0.29200
C 	C 	0.19579 0.25344 0.63397 -0.20000
C 	C 	0.17871 0.31773 0.60955 0.29300
F 	F 	0.14717 0.31661 0.57803 -0.37100
F 	F 	0.17098 0.44112 0.59388 -0.33100
F 	F 	0.26079 0.20418 0.68972 -0.38300
F 	F 	0.28332 0.32730 0.70568 -0.36500
C 	C 	0.56454 0.75387 0.66133 0.27200
C 	C 	0.47895 0.68285 0.64674 -0.13300
C 	C 	0.47364 0.67894 0.61778 0.27200
C 	C 	0.55592 0.74130 0.60498 0.30600
C 	C 	0.64334 0.80941 0.62051 -0.19000
C 	C 	0.64646 0.81764 0.64809 0.29900
F 	F 	0.72974 0.88585 0.66253 -0.37300
F 	F 	0.56903 0.75988 0.68868 -0.35100
F 	F 	0.55085 0.73561 0.57745 -0.35100
F 	F 	0.38850 0.61414 0.60221 -0.33200
C 	C 	0.18750 0.66358 0.60301 0.27200
C 	C 	0.17678 0.60372 0.63374 -0.12600
C 	C 	0.12605 0.59322 0.65045 0.26900
C 	C 	0.08487 0.64134 0.63605 0.30200
C 	C 	0.09675 0.70207 0.60528 -0.18100
C 	C 	0.15110 0.71461 0.58941 0.29900
F 	F 	0.16473 0.77363 0.55990 -0.37600
F 	F 	0.23702 0.67490 0.58674 -0.33000
F 	F 	0.03145 0.62701 0.65158 -0.36300
F 	F 	0.11725 0.53717 0.68061 -0.35400
C 	C 	0.24364 0.31186 0.14749 0.29300
C 	C 	0.19044 0.31141 0.11510 -0.19800
C 	C 	0.17412 0.37873 0.09614 0.29200
C 	C 	0.20406 0.44141 0.11001 0.26500
C 	C 	0.25522 0.44051 0.14262 -0.13400
C 	C 	0.27476 0.37532 0.16127 0.26000
F 	F 	0.32662 0.37530 0.19256 -0.36000
F 	F 	0.26069 0.24756 0.16606 -0.38200
F 	F 	0.18764 0.50613 0.09136 -0.33500
F 	F 	0.12375 0.37983 0.06468 -0.35100
C 	C 	0.60853 0.73367 0.14103 0.25800
C 	C 	0.53308 0.74230 0.13131 -0.13300
C 	C 	0.52168 0.80069 0.10130 0.26800
C 	C 	0.58403 0.84871 0.08118 0.30000
C 	C 	0.65989 0.84060 0.09103 -0.19600
C 	C 	0.66957 0.78030 0.12059 0.28800
F 	F 	0.74021 0.76906 0.12999 -0.39600
F 	F 	0.62013 0.67714 0.16988 -0.36400
F 	F 	0.57179 0.90450 0.05217 -0.32100
F 	F 	0.44692 0.80731 0.09090 -0.34100
C 	C 	0.31677 0.73100 0.17255 0.26400
C 	C 	0.26432 0.66182 0.15725 -0.12500
C 	C 	0.16887 0.63255 0.13784 0.26600
C 	C 	0.13290 0.68076 0.13018 0.29100
C 	C 	0.19352 0.76043 0.14069 -0.19300
C 	C 	0.28171 0.78054 0.16412 0.30000
F 	F 	0.33752 0.85313 0.17654 -0.35400
F 	F 	0.40474 0.75416 0.19393 -0.35400
F 	F 	0.04309 0.65537 0.10990 -0.37100
F 	F 	0.11418 0.56222 0.12434 -0.34500
C 	C 	0.81568 0.28118 0.49387 0.27200
C 	C 	0.76401 0.27097 0.51004 -0.12400
C 	C 	0.76198 0.21998 0.54222 0.28100
C 	C 	0.80779 0.17658 0.55785 0.30200
C 	C 	0.86138 0.18771 0.54212 -0.18500
C 	C 	0.86532 0.24053 0.50998 0.31000
F 	F 	0.91839 0.25388 0.49460 -0.34300
F 	F 	0.81753 0.33002 0.46262 -0.34500
F 	F 	0.80005 0.12331 0.58842 -0.37100
F 	F 	0.71350 0.21099 0.55818 -0.32300
C 	C 	0.69800 0.55115 0.46934 0.26600
C 	C 	0.71587 0.48755 0.49374 -0.13200
C 	C 	0.74929 0.49014 0.52621 0.26700
C 	C 	0.76835 0.55790 0.53406 0.29500
C 	C 	0.75833 0.62616 0.50940 -0.19300
C 	C 	0.71793 0.61938 0.47716 0.29400
F 	F 	0.66074 0.54645 0.43802 -0.35300
F 	F 	0.80147 0.55996 0.56554 -0.35900
F 	F 	0.76083 0.42545 0.55023 -0.33700
C 	C 	0.30619 0.14343 0.49866 0.28200
C 	C 	0.30377 0.07372 0.52623 -0.18700
C 	C 	0.37079 0.05504 0.53563 0.27400
C 	C 	0.44174 0.10748 0.51835 0.27400
C 	C 	0.44844 0.18138 0.49194 -0.13300
C 	C 	0.37569 0.19456 0.48091 0.25800
F 	F 	0.37581 0.26045 0.45387 -0.36400
F 	F 	0.24032 0.16088 0.48884 -0.40100
F 	F 	0.50643 0.08871 0.52810 -0.34100
F 	F 	0.36758 0.98622 0.56178 -0.31300
C 	C 	0.88759 0.37150 0.98054 0.25900
C 	C 	0.78853 0.32274 0.97981 -0.11000
C 	C 	0.72745 0.22696 0.98493 0.25800
C 	C 	0.76754 0.18102 0.99417 0.29500
C 	C 	0.86924 0.22887 0.00036 -0.19400
C 	C 	0.92748 0.32462 0.99063 0.33600
F 	F 	0.94573 0.46397 0.97217 -0.31800
F 	F 	0.70886 0.08865 0.00095 -0.35000
F 	F 	0.63061 0.17768 0.98286 -0.32300
C 	C 	0.79981 0.55965 0.01896 0.27700
C 	C 	0.83564 0.56551 0.99803 -0.12100
C 	C 	0.92204 0.64739 0.98880 0.26600
C 	C 	0.97266 0.72234 0.00057 0.30900
C 	C 	0.93614 0.71693 0.02115 -0.15400
C 	C 	0.84897 0.63530 0.03003 0.30100
F 	F 	0.81464 0.62760 0.05081 -0.34100
F 	F 	0.71765 0.48009 0.02884 -0.34200
F 	F 	0.95651 0.65482 0.96814 -0.33400
C 	C 	0.40218 0.15957 0.99994 0.28800
C 	C 	0.38456 0.19949 0.00992 -0.20100
C 	C 	0.41937 0.29122 0.99533 0.29700
C 	C 	0.48136 0.34471 0.97439 0.26400
C 	C 	0.51345 0.30812 0.96950 -0.12000
C 	C 	0.46190 0.21309 0.97837 0.25800
F 	F 	0.47138 0.17285 0.96673 -0.33000
F 	F 	0.36393 0.06965 0.01187 -0.38900
F 	F 	0.51472 0.43324 0.96039 -0.34700
F 	F 	0.39723 0.32966 0.00256 -0.35200
Co	Co	0.93154 0.93335 0.09563 1.21400
Co	Co	0.91269 0.07873 0.09548 1.18000
O 	O 	0.97227 0.04306 0.08412 -0.75300
O 	O 	0.92650 0.83119 0.09664 -0.37100
O 	O 	0.06435 0.01188 0.07704 -0.58200
C 	C 	0.09534 0.99229 0.98625 0.31600
O 	O 	0.17479 0.99447 0.00421 -0.31600
O 	O 	0.05797 0.01064 0.99596 -0.40800
C 	C 	0.91536 0.18429 0.02721 0.42000
O 	O 	0.94144 0.19120 0.05635 -0.35200
O 	O 	0.92948 0.13700 0.02261 -0.34700
O 	O 	0.09051 0.81325 0.05361 -0.33300
Co	Co	0.93425 0.81507 0.57002 1.20600
Co	Co	0.90289 0.88039 0.60986 1.19600
Co	Co	0.92974 0.02921 0.62673 1.18800
O 	O 	0.94789 0.99063 0.59981 -0.72200
O 	O 	0.87566 0.77211 0.60567 -0.39800
O 	O 	0.94806 0.93850 0.56358 -0.53200
C 	C 	0.01658 0.99987 0.46660 0.32900
O 	O 	0.06659 0.96594 0.48179 -0.36800
O 	O 	0.00132 0.02351 0.48279 -0.36500
C 	C 	0.92054 0.15160 0.56075 0.41300
O 	O 	0.95944 0.14956 0.59162 -0.33600
O 	O 	0.93513 0.12271 0.54667 -0.32100
O 	O 	0.88040 0.78677 0.49808 -0.35600
C 	C 	0.02180 0.88422 0.77274 -0.00400
C 	C 	0.94245 0.80360 0.76240 0.02800
C 	C 	0.93024 0.79715 0.73281 0.00300
C 	C 	0.02371 0.89853 0.79957 0.03800
C 	C 	0.02556 0.91073 0.82194 0.03200
C 	C 	0.02777 0.92634 0.84787 0.05200
C 	C 	0.03083 0.94095 0.86984 0.01700
C 	C 	0.03734 0.96051 0.89622 0.06700
C 	C 	0.11827 0.04350 0.90473 -0.06200
C 	C 	0.13098 0.05860 0.93237 0.02800
C 	C 	0.06322 0.99059 0.95200 -0.06000
C 	C 	0.97789 0.91066 0.94190 0.08200
C 	C 	0.96559 0.89511 0.91435 -0.00800
H 	H 	0.88736 0.74779 0.77631 0.08300
H 	H 	0.86434 0.73749 0.72388 0.08200
H 	H 	0.92425 0.85807 0.95647 0.06600
H 	H 	0.90197 0.83120 0.90778 0.09700
C 	C 	0.97073 0.01290 0.37148 0.02400
C 	C 	0.89168 0.94645 0.38645 -0.00000
C 	C 	0.89982 0.95098 0.41577 0.04200
C 	C 	0.97016 0.99940 0.34472 0.06500
C 	C 	0.96986 0.98830 0.32240 0.03100
C 	C 	0.88037 0.86461 0.20708 0.02500
C 	C 	0.88666 0.87229 0.23536 -0.04800
H 	H 	0.81377 0.80762 0.19683 0.10500
F 	F 	0.70323 0.68224 0.45318 -0.37100
