data_crystal

_cell_length_a 18.51391
_cell_length_b 18.82745
_cell_length_c 44.91705
_cell_angle_alpha 95.43057
_cell_angle_beta  95.42967
_cell_angle_gamma 126.40354

_symmetry_space_group_name_	'P 1'
_symmetry_space_group_name_H-M	'P 1'

loop_
_symmetry_equiv_pos_as_xyz
  x,y,z

loop_
_atom_site_label
_atom_site_type_symbol
_atom_site_fract_x
_atom_site_fract_y
_atom_site_fract_z
_atom_site_charge
C 	C 	0.92577 0.00209 0.97825 0.08900
N 	N 	0.88040 0.91363 0.97994 -0.11500
C 	C 	0.92522 0.87662 0.97925 0.10700
N 	N 	0.01463 0.92805 0.97689 -0.11100
C 	C 	0.05971 0.01599 0.97525 0.10900
N 	N 	0.01547 0.05305 0.97627 -0.11700
C 	C 	0.93331 0.02825 0.49695 0.08400
N 	N 	0.02339 0.07764 0.49510 -0.11600
C 	C 	0.06651 0.03916 0.49610 0.10300
N 	N 	0.01980 0.95200 0.49898 -0.10900
C 	C 	0.92995 0.90254 0.50031 0.10900
N 	N 	0.88680 0.94067 0.49945 -0.11700
Cu	Cu	0.77106 0.34556 0.97180 0.92800
Cu	Cu	0.72971 0.25568 0.03285 0.86900
Cu	Cu	0.62481 0.31321 0.00641 0.89800
Cu	Cu	0.60024 0.33298 0.94129 0.90100
C 	C 	0.72361 0.32291 0.90685 0.29400
O 	O 	0.81864 0.47624 0.97195 -0.34800
C 	C 	0.65116 0.31219 0.07167 0.28700
O 	O 	0.62841 0.27278 0.96532 -0.63300
O 	O 	0.75249 0.35421 0.01404 -0.64400
O 	O 	0.83211 0.28687 0.97736 -0.35700
O 	O 	0.71662 0.17986 0.99839 -0.43200
O 	O 	0.68488 0.36176 0.91228 -0.38500
O 	O 	0.50349 0.28313 0.99826 -0.36800
C 	C 	0.44473 0.23782 0.97236 0.28900
C 	C 	0.77064 0.50513 0.97852 0.27600
O 	O 	0.68261 0.44713 0.97825 -0.39200
O 	O 	0.47127 0.25606 0.94610 -0.38700
O 	O 	0.76853 0.31564 0.92937 -0.35500
C 	C 	0.78653 0.20699 0.98500 0.28600
O 	O 	0.62296 0.33717 0.04967 -0.36800
O 	O 	0.71649 0.30379 0.06967 -0.41200
H 	H 	0.58958 0.20665 0.95891 0.16400
H 	H 	0.79587 0.41455 0.02708 0.18100
Cu	Cu	0.60210 0.19766 0.50494 0.92800
Cu	Cu	0.65398 0.19885 0.43708 0.87500
Cu	Cu	0.65427 0.34456 0.46808 0.89900
Cu	Cu	0.62834 0.37334 0.53178 0.90100
C 	C 	0.65106 0.26407 0.56953 0.28800
O 	O 	0.47432 0.15578 0.50897 -0.35600
C 	C 	0.60355 0.28426 0.40072 0.28900
O 	O 	0.68627 0.33840 0.50914 -0.63900
O 	O 	0.58232 0.21132 0.46252 -0.64000
O 	O 	0.64927 0.12729 0.49763 -0.36700
O 	O 	0.74501 0.21952 0.46796 -0.43600
O 	O 	0.61463 0.30580 0.56518 -0.37300
O 	O 	0.73162 0.47416 0.47580 -0.38000
C 	C 	0.73695 0.52611 0.49925 0.29500
C 	C 	0.44545 0.20186 0.50113 0.28700
O 	O 	0.50427 0.28548 0.49817 -0.38800
O 	O 	0.68613 0.49292 0.52026 -0.38200
O 	O 	0.64109 0.20627 0.54716 -0.35800
C 	C 	0.72334 0.16130 0.48590 0.29500
O 	O 	0.64040 0.35079 0.42436 -0.38200
O 	O 	0.59184 0.20910 0.40347 -0.41500
H 	H 	0.75265 0.37242 0.51664 0.16800
H 	H 	0.51766 0.17838 0.45266 0.17500
C 	C 	0.73953 0.31217 0.87590 -0.08300
C 	C 	0.78714 0.38709 0.86178 0.02400
C 	C 	0.79126 0.37579 0.83095 -0.06900
C 	C 	0.74753 0.28954 0.81397 0.04800
C 	C 	0.70350 0.21492 0.82835 -0.06800
C 	C 	0.69969 0.22624 0.85930 0.02100
C 	C 	0.74067 0.27727 0.78138 -0.02600
C 	C 	0.73661 0.27021 0.75419 0.00300
C 	C 	0.73113 0.26514 0.72238 0.00300
C 	C 	0.72574 0.26340 0.69531 -0.02600
C 	C 	0.71837 0.26436 0.66314 0.04700
C 	C 	0.75483 0.34565 0.65311 -0.06800
C 	C 	0.73659 0.34584 0.62221 0.01900
C 	C 	0.68192 0.26468 0.60106 -0.08200
C 	C 	0.64933 0.18363 0.61093 0.02300
C 	C 	0.66726 0.18351 0.64192 -0.06900
H 	H 	0.81883 0.45381 0.87450 0.03900
H 	H 	0.82597 0.43384 0.82005 0.05500
H 	H 	0.66995 0.14803 0.81541 0.05400
H 	H 	0.66314 0.16804 0.87005 0.03200
H 	H 	0.79487 0.40847 0.66936 0.05500
H 	H 	0.76289 0.40885 0.61482 0.02900
H 	H 	0.60711 0.12051 0.59484 0.04200
H 	H 	0.63909 0.12038 0.64949 0.05400
C 	C 	0.58479 0.29819 0.37001 -0.08800
C 	C 	0.64420 0.38243 0.36184 0.01900
C 	C 	0.63696 0.39132 0.33133 -0.07000
C 	C 	0.57005 0.31634 0.30885 0.04700
C 	C 	0.50667 0.23384 0.31725 -0.07100
C 	C 	0.51391 0.22473 0.34770 0.02000
C 	C 	0.57354 0.32097 0.27712 -0.02700
C 	C 	0.57523 0.32334 0.25043 0.00200
C 	C 	0.57857 0.32329 0.21914 0.00300
C 	C 	0.58259 0.32075 0.19245 -0.02700
C 	C 	0.58884 0.31455 0.16069 0.04800
C 	C 	0.61450 0.38669 0.14602 -0.07000
C 	C 	0.63073 0.38438 0.11622 0.02400
C 	C 	0.62211 0.31017 0.10112 -0.08400
C 	C 	0.59321 0.23682 0.11550 0.02000
C 	C 	0.57641 0.23893 0.14511 -0.07000
H 	H 	0.69870 0.43991 0.37884 0.03800
H 	H 	0.68572 0.45557 0.32505 0.05400
H 	H 	0.45405 0.17581 0.30004 0.05300
H 	H 	0.46638 0.15986 0.35378 0.03300
H 	H 	0.62404 0.44534 0.15789 0.05600
H 	H 	0.65302 0.44140 0.10534 0.04000
H 	H 	0.58564 0.17895 0.10394 0.02300
H 	H 	0.55614 0.18274 0.15625 0.05200
C 	C 	0.78915 0.62258 0.49926 -0.07700
C 	C 	0.77040 0.65108 0.47392 0.00900
C 	C 	0.81444 0.74249 0.47430 -0.02700
C 	C 	0.87814 0.80626 0.50027 0.00300
C 	C 	0.89774 0.77791 0.52545 -0.04400
C 	C 	0.85378 0.68650 0.52508 0.02100
H 	H 	0.72058 0.60189 0.45407 0.04500
H 	H 	0.94794 0.82721 0.54522 0.05500
C 	C 	0.87715 0.65895 0.55092 0.07000
C 	C 	0.79518 0.77049 0.44775 0.09500
N 	N 	0.89585 0.63688 0.57161 -0.11800
N 	N 	0.77981 0.79300 0.42651 -0.11200
C 	C 	0.77504 0.12538 0.48935 -0.09400
C 	C 	0.85321 0.17019 0.51221 0.01300
C 	C 	0.90756 0.14111 0.51437 -0.03100
C 	C 	0.88365 0.06653 0.49332 0.01500
C 	C 	0.80586 0.02239 0.47030 -0.08100
C 	C 	0.75144 0.05119 0.46827 0.04100
H 	H 	0.87191 0.22791 0.52825 0.03500
H 	H 	0.78718 0.96488 0.45415 0.08100
C 	C 	0.67142 0.00427 0.44445 0.02400
C 	C 	0.98652 0.18697 0.53856 0.06900
N 	N 	0.60734 0.96670 0.42536 -0.10100
N 	N 	0.04979 0.22368 0.55794 -0.09500
C 	C 	0.34875 0.16348 0.49909 -0.08400
C 	C 	0.28411 0.09548 0.47445 0.01700
C 	C 	0.19201 0.05996 0.47163 -0.05300
C 	C 	0.16372 0.09126 0.49410 0.01300
C 	C 	0.22913 0.16248 0.51789 -0.05000
C 	C 	0.32134 0.19839 0.52063 0.02700
H 	H 	0.30560 0.07061 0.45736 0.02700
H 	H 	0.20762 0.18694 0.53511 0.06200
C 	C 	0.38692 0.26880 0.54620 0.06900
C 	C 	0.12682 0.99158 0.44556 0.12500
N 	N 	0.43945 0.32519 0.56668 -0.11600
N 	N 	0.07453 0.93678 0.42470 -0.10900
C 	C 	0.87773 0.78090 0.98131 0.00700
C 	C 	0.91722 0.75869 0.00318 -0.04500
C 	C 	0.88412 0.66917 0.00220 0.01600
C 	C 	0.81015 0.60059 0.97927 -0.07000
C 	C 	0.76898 0.62238 0.95794 0.00700
C 	C 	0.80236 0.71186 0.95877 -0.02800
H 	H 	0.97518 0.81149 0.02056 0.05400
H 	H 	0.71132 0.56958 0.94047 0.03200
C 	C 	0.76061 0.73237 0.93584 0.09500
C 	C 	0.92585 0.64833 0.02501 0.07100
N 	N 	0.72718 0.74881 0.91746 -0.10900
N 	N 	0.95927 0.63160 0.04327 -0.11800
C 	C 	0.87836 0.04348 0.97855 0.00600
C 	C 	0.87494 0.08239 0.95377 -0.04800
C 	C 	0.84618 0.13669 0.95560 0.02100
C 	C 	0.82085 0.15299 0.98263 -0.08100
C 	C 	0.82215 0.11213 0.00711 -0.00100
C 	C 	0.85042 0.05752 0.00518 -0.02700
H 	H 	0.89649 0.07182 0.93325 0.05600
H 	H 	0.80185 0.12355 0.02783 0.01800
C 	C 	0.85288 0.01817 0.03099 0.06200
C 	C 	0.84148 0.17387 0.92944 0.08000
N 	N 	0.85486 0.98662 0.05165 -0.09600
N 	N 	0.83787 0.20356 0.90844 -0.10400
C 	C 	0.34605 0.17991 0.97295 -0.07600
C 	C 	0.28667 0.18334 0.95236 0.00700
C 	C 	0.19287 0.12912 0.95251 -0.02700
C 	C 	0.15785 0.07219 0.97404 0.00200
C 	C 	0.21702 0.06820 0.99446 -0.04200
C 	C 	0.31050 0.12076 0.99382 0.02000
H 	H 	0.31356 0.22830 0.93618 0.04500
H 	H 	0.19013 0.02392 0.01085 0.05100
C 	C 	0.36887 0.11151 0.01404 0.06600
C 	C 	0.13277 0.13010 0.92983 0.09600
N 	N 	0.41559 0.10413 0.03023 -0.12900
N 	N 	0.08465 0.13089 0.91168 -0.10900
