data_crystal

_cell_length_a 27.01809
_cell_length_b 28.39646
_cell_length_c 30.33637
_cell_angle_alpha 61.07930
_cell_angle_beta  118.59954
_cell_angle_gamma 133.18054

_symmetry_space_group_name_	'P 1'
_symmetry_space_group_name_H-M	'P 1'

loop_
_symmetry_equiv_pos_as_xyz
  x,y,z

loop_
_atom_site_label
_atom_site_type_symbol
_atom_site_fract_x
_atom_site_fract_y
_atom_site_fract_z
_atom_site_charge
C 	C 	0.70593 0.29979 0.99946 0.11900
N 	N 	0.64538 0.25478 0.01570 -0.14100
C 	C 	0.61696 0.27591 0.02154 0.12900
N 	N 	0.64806 0.34194 0.00990 -0.14100
C 	C 	0.70926 0.38714 0.99505 0.12000
N 	N 	0.73826 0.36620 0.98957 -0.14600
C 	C 	0.75107 0.35159 0.51028 0.12500
N 	N 	0.69321 0.30671 0.52978 -0.14500
C 	C 	0.66521 0.32782 0.53611 0.12900
N 	N 	0.69653 0.39374 0.52486 -0.14500
C 	C 	0.75549 0.43894 0.50704 0.12800
N 	N 	0.78232 0.41796 0.49882 -0.14700
C 	C 	0.25223 0.61315 0.26244 0.12600
N 	N 	0.22985 0.54960 0.27338 -0.14500
C 	C 	0.25052 0.53565 0.25105 0.12600
N 	N 	0.29522 0.58547 0.21945 -0.14400
C 	C 	0.31891 0.64904 0.20953 0.12700
N 	N 	0.29731 0.66282 0.23097 -0.14500
C 	C 	0.31756 0.67136 0.80403 0.12400
N 	N 	0.38637 0.69964 0.81319 -0.14500
C 	C 	0.40511 0.67088 0.80529 0.12600
N 	N 	0.35529 0.61496 0.78756 -0.14400
C 	C 	0.28701 0.58567 0.77979 0.12700
N 	N 	0.26781 0.61383 0.78785 -0.14400
Co	Co	0.06648 0.93638 0.18067 1.18100
Co	Co	0.90428 0.96422 0.12145 1.18000
Co	Co	0.01758 0.99540 0.21025 1.17800
Co	Co	0.95240 0.90400 0.09299 1.18100
C 	C 	0.09196 0.82949 0.23712 0.30800
Co	Co	0.03511 0.84370 0.12387 1.16800
Co	Co	0.90084 0.00841 0.19956 1.17800
C 	C 	0.02270 0.93842 0.01907 0.29300
O 	O 	0.99646 0.10124 0.20840 -0.38700
O 	O 	0.93646 0.97496 0.18118 -0.77300
C 	C 	0.05668 0.12363 0.20468 0.30400
O 	O 	0.09911 0.99798 0.21969 -0.47700
O 	O 	0.89787 0.94195 0.06387 -0.46800
C 	C 	0.90528 0.08214 0.08808 0.31400
O 	O 	0.96664 0.92200 0.16501 -0.57300
C 	C 	0.98597 0.97955 0.30291 0.27500
C 	C 	0.16663 0.98465 0.12605 0.27700
C 	C 	0.88338 0.77133 0.07561 0.30400
O 	O 	0.05961 0.09502 0.18324 -0.41000
O 	O 	0.14137 0.92153 0.13809 -0.40200
O 	O 	0.13745 0.00178 0.13423 -0.38500
O 	O 	0.86941 0.04911 0.12307 -0.40600
O 	O 	0.93533 0.06133 0.08617 -0.39600
O 	O 	0.92350 0.96506 0.27734 -0.38600
O 	O 	0.01668 0.97040 0.28730 -0.37800
O 	O 	0.93140 0.76415 0.11222 -0.38800
O 	O 	0.87316 0.81123 0.07484 -0.38400
O 	O 	0.00780 0.88665 0.13964 -0.76600
C 	C 	0.76984 0.90009 0.14742 0.30500
O 	O 	0.80548 0.91717 0.19191 -0.39100
O 	O 	0.79825 0.90257 0.12011 -0.38700
O 	O 	0.04396 0.79642 0.20126 -0.39000
O 	O 	0.09520 0.87573 0.24159 -0.38700
O 	O 	0.02127 0.88449 0.04378 -0.39600
O 	O 	0.01623 0.96348 0.04164 -0.40700
Co	Co	0.10918 0.99677 0.68438 1.17800
Co	Co	0.91846 0.98080 0.63008 1.17500
Co	Co	0.04610 0.04607 0.70883 1.18800
Co	Co	0.99071 0.95077 0.59581 1.18200
C 	C 	0.11369 0.87641 0.73328 0.30200
Co	Co	0.10373 0.92754 0.61985 1.17000
Co	Co	0.91656 0.03979 0.69771 1.17400
C 	C 	0.05851 0.99193 0.51357 0.28600
O 	O 	0.98850 0.13790 0.66732 -0.39300
O 	O 	0.96527 0.02462 0.67471 -0.75600
C 	C 	0.05439 0.16793 0.69247 0.29900
O 	O 	0.12889 0.04501 0.72944 -0.45300
O 	O 	0.90405 0.94346 0.57923 -0.47700
C 	C 	0.86145 0.05925 0.58450 0.31800
O 	O 	0.02772 0.01661 0.64231 -0.57300
C 	C 	0.00033 0.00733 0.79959 0.33100
C 	C 	0.23460 0.05279 0.65448 0.33600
C 	C 	0.94837 0.82476 0.59399 0.31600
O 	O 	0.08991 0.14444 0.70460 -0.37600
O 	O 	0.20551 0.99089 0.65813 -0.42600
O 	O 	0.20288 0.06781 0.66169 -0.39000
O 	O 	0.84312 0.03057 0.62833 -0.40800
O 	O 	0.88961 0.04271 0.57475 -0.38700
O 	O 	0.98469 0.04966 0.77055 -0.40100
O 	O 	0.01517 0.98804 0.77863 -0.41300
O 	O 	0.00698 0.85893 0.58129 -0.39800
O 	O 	0.94160 0.84956 0.61604 -0.40900
O 	O 	0.06801 0.96548 0.63237 -0.76800
C 	C 	0.81476 0.89405 0.69953 0.30400
O 	O 	0.85260 0.93846 0.72657 -0.39800
O 	O 	0.84240 0.89556 0.67194 -0.40100
O 	O 	0.08367 0.85872 0.68947 -0.39400
O 	O 	0.10613 0.91414 0.73984 -0.39800
O 	O 	0.11440 0.99740 0.54933 -0.38500
O 	O 	0.01324 0.98905 0.52366 -0.38200
C 	C 	0.02445 0.96679 0.96305 -0.07500
C 	C 	0.96948 0.97047 0.92557 -0.00700
C 	C 	0.95544 0.97194 0.87391 -0.00100
C 	C 	0.00486 0.98499 0.85653 -0.08100
C 	C 	0.06427 0.98836 0.89310 -0.01600
C 	C 	0.07242 0.97643 0.94646 0.00400
C 	C 	0.92640 0.97156 0.94005 0.06600
C 	C 	0.11769 0.00534 0.87609 0.10300
C 	C 	0.12965 0.97335 0.98419 0.06500
C 	C 	0.88879 0.95722 0.83932 0.06800
N 	N 	0.17517 0.97057 0.01420 -0.12000
N 	N 	0.83543 0.94537 0.81205 -0.12500
N 	N 	0.16041 0.01890 0.86259 -0.11400
N 	N 	0.89180 0.97247 0.95131 -0.11700
C 	C 	0.01210 0.98753 0.35688 -0.07700
C 	C 	0.03184 0.94738 0.39964 -0.00100
C 	C 	0.05192 0.95233 0.45063 -0.00000
C 	C 	0.04921 0.99509 0.45955 -0.08200
C 	C 	0.03258 0.03720 0.41685 0.01500
C 	C 	0.01127 0.03155 0.36599 0.00600
C 	C 	0.02730 0.89790 0.39182 0.09000
C 	C 	0.03970 0.08811 0.42494 0.08500
C 	C 	0.98635 0.06962 0.32336 0.07600
C 	C 	0.07534 0.91333 0.49371 0.07600
N 	N 	0.96639 0.10011 0.28972 -0.12000
N 	N 	0.09417 0.88220 0.52791 -0.13100
N 	N 	0.04542 0.12877 0.43136 -0.11300
N 	N 	0.02368 0.85836 0.38567 -0.11400
C 	C 	0.08869 0.22832 0.70804 -0.10500
C 	C 	0.04903 0.23711 0.71763 0.12600
C 	C 	0.07883 0.29943 0.72153 -0.09800
C 	C 	0.14957 0.35065 0.72301 0.00400
C 	C 	0.19065 0.34147 0.71619 0.05800
C 	C 	0.15948 0.28046 0.70812 -0.02300
N 	N 	0.98364 0.18530 0.72550 -0.19900
H 	H 	0.04783 0.30663 0.72713 0.05700
C 	C 	0.18114 0.41086 0.73704 -0.00800
N 	N 	0.25942 0.39108 0.71651 -0.19200
H 	H 	0.19009 0.27421 0.70089 0.04700
C 	C 	0.20261 0.40961 0.78955 -0.08500
C 	C 	0.22789 0.46354 0.80461 0.10000
C 	C 	0.23480 0.52096 0.76649 -0.05100
C 	C 	0.20814 0.52011 0.71406 -0.05300
C 	C 	0.18192 0.46578 0.69880 0.07000
H 	H 	0.19889 0.36616 0.81879 0.05500
N 	N 	0.24648 0.46043 0.85576 -0.20000
H 	H 	0.21236 0.56378 0.68486 0.04700
N 	N 	0.15914 0.46736 0.64756 -0.19400
H 	H 	0.24391 0.41898 0.88392 0.08300
H 	H 	0.26142 0.49809 0.86791 0.08900
H 	H 	0.15958 0.50796 0.61966 0.08300
H 	H 	0.14139 0.42883 0.63484 0.08800
H 	H 	0.28947 0.38371 0.71190 0.08400
H 	H 	0.28353 0.43757 0.72073 0.08800
H 	H 	0.96645 0.13621 0.73663 0.06700
H 	H 	0.95198 0.19390 0.72599 0.08100
C 	C 	0.75072 0.83115 0.71540 -0.11000
C 	C 	0.68575 0.81922 0.68486 0.12200
C 	C 	0.63332 0.78738 0.70923 -0.09700
C 	C 	0.64598 0.76871 0.76353 0.00400
C 	C 	0.70715 0.77161 0.79338 0.06000
C 	C 	0.75638 0.79821 0.76808 -0.01600
N 	N 	0.67462 0.84079 0.63245 -0.20500
H 	H 	0.58431 0.78066 0.68612 0.05600
C 	C 	0.59627 0.74885 0.78826 -0.00700
N 	N 	0.72083 0.75271 0.84602 -0.19100
H 	H 	0.80449 0.80289 0.79085 0.04400
C 	C 	0.55549 0.68256 0.81530 -0.08600
C 	C 	0.50036 0.66007 0.83149 0.10200
C 	C 	0.47919 0.70137 0.81355 -0.05100
C 	C 	0.52382 0.76926 0.79121 -0.05400
C 	C 	0.58385 0.79391 0.78004 0.07200
H 	H 	0.56666 0.64854 0.82373 0.05200
N 	N 	0.46741 0.59875 0.86378 -0.19800
H 	H 	0.51008 0.80220 0.78003 0.04800
N 	N 	0.62906 0.86042 0.76148 -0.19500
H 	H 	0.48096 0.56711 0.87500 0.08400
H 	H 	0.43063 0.58347 0.88007 0.09100
H 	H 	0.61810 0.89301 0.75350 0.08100
H 	H 	0.67687 0.88067 0.75710 0.09200
H 	H 	0.76450 0.75230 0.86729 0.08300
H 	H 	0.69035 0.74103 0.86643 0.09000
H 	H 	0.71203 0.86242 0.61358 0.08900
H 	H 	0.62743 0.83432 0.60999 0.08200
C 	C 	0.29689 0.70467 0.80920 -0.04900
C 	C 	0.29642 0.75816 0.76927 0.09800
C 	C 	0.27193 0.78567 0.77402 -0.08300
C 	C 	0.24781 0.76070 0.81771 -0.01000
C 	C 	0.25158 0.70949 0.85877 0.06900
C 	C 	0.27520 0.68131 0.85375 -0.05400
N 	N 	0.31823 0.78263 0.72597 -0.19900
H 	H 	0.26968 0.82537 0.74286 0.05200
C 	C 	0.21174 0.78356 0.81720 0.00500
N 	N 	0.23353 0.68782 0.90321 -0.19500
H 	H 	0.27666 0.64106 0.88463 0.04500
C 	C 	0.13857 0.74334 0.80494 -0.10100
C 	C 	0.10291 0.77121 0.78690 0.13300
C 	C 	0.14124 0.84065 0.77856 -0.11400
C 	C 	0.21293 0.87713 0.80112 -0.02300
C 	C 	0.24908 0.84948 0.81964 0.05300
H 	H 	0.10952 0.69142 0.80651 0.05800
N 	N 	0.03206 0.73184 0.77569 -0.20300
H 	H 	0.24139 0.92847 0.80056 0.03300
N 	N 	0.31924 0.88642 0.83901 -0.19200
H 	H 	0.00363 0.68094 0.77979 0.08500
H 	H 	0.00484 0.75118 0.76455 0.09800
H 	H 	0.34688 0.93580 0.83908 0.07500
H 	H 	0.34651 0.86576 0.85567 0.08300
H 	H 	0.23480 0.64889 0.93284 0.07900
H 	H 	0.22021 0.71066 0.90947 0.08500
H 	H 	0.33611 0.76306 0.72084 0.09100
H 	H 	0.31750 0.82201 0.69669 0.08200
C 	C 	0.22866 0.46757 0.26356 -0.05000
C 	C 	0.16009 0.41735 0.24242 0.10000
C 	C 	0.14626 0.35975 0.24252 -0.08300
C 	C 	0.19983 0.35235 0.26194 -0.00700
C 	C 	0.26728 0.40057 0.28585 0.07000
C 	C 	0.28048 0.45694 0.28752 -0.05200
N 	N 	0.10785 0.42473 0.22082 -0.20000
H 	H 	0.09417 0.32177 0.22548 0.05800
C 	C 	0.18564 0.29661 0.25328 0.00500
N 	N 	0.31968 0.39354 0.30666 -0.19500
H 	H 	0.33257 0.49479 0.30470 0.04800
C 	C 	0.18494 0.30207 0.20448 -0.10000
C 	C 	0.15500 0.24524 0.19072 0.13000
C 	C 	0.12119 0.18215 0.22492 -0.11600
C 	C 	0.13496 0.17896 0.27671 -0.01800
C 	C 	0.16460 0.23529 0.29098 0.06200
H 	H 	0.20588 0.35008 0.17680 0.05600
N 	N 	0.16134 0.25178 0.14596 -0.20800
H 	H 	0.11685 0.13140 0.30483 0.04300
N 	N 	0.17156 0.22993 0.34034 -0.19200
H 	H 	0.18453 0.29835 0.12000 0.08400
H 	H 	0.14587 0.21120 0.13758 0.10000
H 	H 	0.15571 0.18436 0.36779 0.09200
H 	H 	0.19387 0.27098 0.35222 0.09200
H 	H 	0.36949 0.42977 0.32379 0.08200
H 	H 	0.31152 0.35200 0.30648 0.08800
H 	H 	0.11589 0.46642 0.22048 0.09100
H 	H 	0.05781 0.38789 0.20447 0.08500
C 	C 	0.37468 0.70353 0.18127 -0.05200
C 	C 	0.36857 0.70093 0.13337 0.10000
C 	C 	0.42910 0.73781 0.11657 -0.08600
C 	C 	0.49485 0.77838 0.14619 -0.00900
C 	C 	0.49965 0.78912 0.18946 0.07100
C 	C 	0.43927 0.75117 0.20681 -0.05400
N 	N 	0.30492 0.66328 0.10355 -0.19900
H 	H 	0.42529 0.73252 0.08176 0.05300
C 	C 	0.55768 0.80103 0.13652 0.00400
N 	N 	0.56212 0.83453 0.21509 -0.19400
H 	H 	0.44335 0.75563 0.24214 0.04800
C 	C 	0.59212 0.86194 0.10125 -0.10000
C 	C 	0.65982 0.89221 0.09998 0.12200
C 	C 	0.69361 0.86135 0.13535 -0.11100
C 	C 	0.65610 0.79704 0.16625 -0.01800
C 	C 	0.58798 0.76617 0.16687 0.05900
H 	H 	0.56743 0.88716 0.07636 0.05400
N 	N 	0.69238 0.95107 0.06529 -0.20500
H 	H 	0.68122 0.77231 0.19179 0.04500
N 	N 	0.55246 0.70374 0.19726 -0.19100
H 	H 	0.66862 0.97537 0.04103 0.08100
H 	H 	0.74008 0.97167 0.06057 0.08900
H 	H 	0.57613 0.67929 0.22088 0.08400
H 	H 	0.50051 0.67813 0.19662 0.08900
H 	H 	0.56558 0.84043 0.24812 0.08100
H 	H 	0.60731 0.86579 0.20160 0.08600
H 	H 	0.25904 0.63980 0.11312 0.09000
H 	H 	0.30081 0.65956 0.06915 0.08300
C 	C 	0.13363 0.80569 0.27818 -0.11500
C 	C 	0.09953 0.73954 0.30845 0.13500
C 	C 	0.12548 0.70350 0.32335 -0.10200
C 	C 	0.18544 0.73351 0.30901 0.00400
C 	C 	0.22708 0.80334 0.28879 0.05600
C 	C 	0.20110 0.83919 0.27444 -0.02400
N 	N 	0.04038 0.70974 0.32124 -0.20400
H 	H 	0.09598 0.65087 0.34224 0.05800
C 	C 	0.19356 0.69079 0.30245 -0.00800
N 	N 	0.29038 0.83559 0.28116 -0.19100
H 	H 	0.23011 0.89164 0.25514 0.03700
C 	C 	0.15645 0.66883 0.25675 -0.08300
C 	C 	0.16962 0.63626 0.24555 0.09900
C 	C 	0.22237 0.62737 0.28003 -0.05000
C 	C 	0.25517 0.64404 0.32780 -0.05400
C 	C 	0.24050 0.67497 0.33972 0.06900
H 	H 	0.11836 0.67858 0.22921 0.05300
N 	N 	0.13196 0.61418 0.20148 -0.19900
H 	H 	0.29428 0.63550 0.35482 0.04600
N 	N 	0.27251 0.69040 0.38633 -0.19500
H 	H 	0.09462 0.62286 0.17533 0.08200
H 	H 	0.13769 0.58637 0.19360 0.08800
H 	H 	0.30840 0.68003 0.41312 0.08100
H 	H 	0.26108 0.71153 0.39686 0.08600
H 	H 	0.31956 0.88671 0.26428 0.07700
H 	H 	0.31209 0.81068 0.29325 0.08600
H 	H 	0.02188 0.73655 0.31218 0.10100
H 	H 	0.01365 0.65995 0.34192 0.08800
C 	C 	0.84792 0.10850 0.54561 -0.11700
C 	C 	0.90387 0.17710 0.53519 0.13200
C 	C 	0.89171 0.22493 0.51733 -0.10000
C 	C 	0.82533 0.20517 0.51092 0.00500
C 	C 	0.76786 0.13734 0.51365 0.05800
C 	C 	0.77975 0.08966 0.53019 -0.01800
N 	N 	0.96952 0.19731 0.54393 -0.20300
H 	H 	0.93504 0.27736 0.51234 0.05800
C 	C 	0.81881 0.25312 0.51057 -0.00900
N 	N 	0.70166 0.11750 0.50205 -0.19100
H 	H 	0.73638 0.03724 0.53542 0.04500
C 	C 	0.79703 0.28704 0.46317 -0.08500
C 	C 	0.77907 0.32403 0.46184 0.09800
C 	C 	0.78513 0.32848 0.50894 -0.05000
C 	C 	0.81395 0.30043 0.55601 -0.05400
C 	C 	0.83005 0.26198 0.55748 0.07300
H 	H 	0.79087 0.28207 0.42728 0.05300
N 	N 	0.75503 0.35401 0.41543 -0.20000
H 	H 	0.82040 0.30559 0.59193 0.04800
N 	N 	0.85502 0.23283 0.60400 -0.19400
H 	H 	0.74937 0.34926 0.38092 0.08400
H 	H 	0.74281 0.38311 0.41302 0.09200
H 	H 	0.86285 0.23956 0.63833 0.08200
H 	H 	0.86728 0.20361 0.60672 0.08900
H 	H 	0.65979 0.06706 0.50571 0.08600
H 	H 	0.69086 0.15186 0.48818 0.09000
H 	H 	0.97969 0.16347 0.55413 0.10100
H 	H 	0.01107 0.24791 0.53883 0.08900
C 	C 	0.88643 0.76780 0.57138 -0.12000
C 	C 	0.87111 0.77583 0.51773 0.13600
C 	C 	0.84424 0.72339 0.49987 -0.10100
C 	C 	0.82469 0.66088 0.53397 0.00700
C 	C 	0.82572 0.64934 0.58529 0.05500
C 	C 	0.85824 0.70353 0.60399 -0.01800
N 	N 	0.88517 0.83480 0.48374 -0.20400
H 	H 	0.84050 0.73175 0.45987 0.06200
C 	C 	0.81447 0.61202 0.51848 -0.00800
N 	N 	0.79647 0.58683 0.61668 -0.19100
H 	H 	0.86614 0.69640 0.64470 0.04000
C 	C 	0.86296 0.59705 0.54376 -0.08300
C 	C 	0.85132 0.54625 0.53398 0.10100
C 	C 	0.79027 0.51030 0.49803 -0.05200
C 	C 	0.74976 0.53430 0.46592 -0.05100
C 	C 	0.75804 0.58153 0.47807 0.07100
H 	H 	0.90876 0.62361 0.57225 0.05600
N 	N 	0.89810 0.53145 0.55986 -0.20000
H 	H 	0.70546 0.50945 0.43602 0.04700
N 	N 	0.70975 0.59449 0.45281 -0.19400
H 	H 	0.94093 0.55559 0.58852 0.08500
H 	H 	0.89449 0.49857 0.55004 0.09500
H 	H 	0.66970 0.57335 0.42195 0.08300
H 	H 	0.70953 0.62313 0.46480 0.08700
H 	H 	0.79993 0.57899 0.65514 0.08100
H 	H 	0.76755 0.54531 0.60257 0.08700
H 	H 	0.89989 0.87252 0.49567 0.09100
H 	H 	0.87847 0.84230 0.44457 0.09200
C 	C 	0.30766 0.10403 0.65023 -0.12300
C 	C 	0.35785 0.09074 0.68072 0.13900
C 	C 	0.41881 0.12812 0.66451 -0.10400
C 	C 	0.43366 0.18277 0.62153 0.00800
C 	C 	0.38815 0.20200 0.59561 0.05600
C 	C 	0.32461 0.16146 0.60957 -0.01400
N 	N 	0.34844 0.04340 0.72611 -0.20400
H 	H 	0.45514 0.11508 0.68565 0.06000
C 	C 	0.49408 0.21634 0.60183 -0.00900
N 	N 	0.40511 0.25903 0.55748 -0.19100
H 	H 	0.28724 0.17319 0.58747 0.04500
C 	C 	0.48220 0.20543 0.55622 -0.08400
C 	C 	0.53805 0.23800 0.53541 0.10100
C 	C 	0.60715 0.28040 0.56193 -0.05100
C 	C 	0.61908 0.28664 0.60980 -0.05200
C 	C 	0.56324 0.25713 0.62911 0.07100
H 	H 	0.42915 0.17267 0.53621 0.05700
N 	N 	0.52490 0.22916 0.48974 -0.20000
H 	H 	0.67217 0.31843 0.63034 0.04800
N 	N 	0.57633 0.26994 0.67277 -0.19500
H 	H 	0.47359 0.19850 0.47015 0.08700
H 	H 	0.56511 0.25192 0.47341 0.09400
H 	H 	0.62762 0.29879 0.69329 0.08200
H 	H 	0.53621 0.25335 0.68591 0.08700
H 	H 	0.37014 0.27163 0.53735 0.08400
H 	H 	0.45398 0.29254 0.54876 0.08800
H 	H 	0.30886 0.02182 0.74259 0.09900
H 	H 	0.38358 0.03101 0.74704 0.08900
C 	C 	0.74120 0.27633 0.99983 -0.05600
C 	C 	0.76732 0.29975 0.95716 0.10100
C 	C 	0.80401 0.27888 0.96074 -0.09300
C 	C 	0.80958 0.23078 0.00402 -0.00300
C 	C 	0.78081 0.20524 0.04568 0.07100
C 	C 	0.74838 0.22943 0.04359 -0.04600
N 	N 	0.75485 0.33966 0.91207 -0.20000
H 	H 	0.82576 0.29810 0.92881 0.05300
C 	C 	0.84628 0.20782 0.00578 0.01400
N 	N 	0.78392 0.15742 0.08768 -0.19400
H 	H 	0.72830 0.21135 0.07617 0.04900
C 	C 	0.91569 0.23500 0.03407 -0.10300
C 	C 	0.94316 0.19900 0.05363 0.13300
C 	C 	0.90003 0.13485 0.04555 -0.12100
C 	C 	0.83724 0.11541 0.00770 0.00000
C 	C 	0.80877 0.15045 0.98866 0.04100
H 	H 	0.94641 0.28148 0.04424 0.05800
N 	N 	0.00971 0.22470 0.08207 -0.20700
H 	H 	0.80698 0.06917 0.99735 0.03400
N 	N 	0.74475 0.12751 0.95571 -0.18900
H 	H 	0.04079 0.27075 0.09040 0.08800
H 	H 	0.03165 0.19998 0.09436 0.10100
H 	H 	0.71615 0.08360 0.94494 0.08400
H 	H 	0.72357 0.15386 0.93949 0.08600
H 	H 	0.76333 0.13958 0.11846 0.08600
H 	H 	0.80562 0.13668 0.08999 0.09500
H 	H 	0.71951 0.34811 0.90526 0.09200
H 	H 	0.77736 0.35941 0.88189 0.08200
C 	C 	0.83041 0.72245 0.04364 -0.10600
C 	C 	0.83960 0.73785 0.99521 0.12100
C 	C 	0.81783 0.68718 0.97788 -0.11000
C 	C 	0.78018 0.62059 0.00555 0.01900
C 	C 	0.75883 0.60428 0.04840 0.05400
C 	C 	0.78530 0.65561 0.06771 -0.01700
N 	N 	0.86985 0.80121 0.96565 -0.20500
H 	H 	0.83125 0.69965 0.94347 0.05700
C 	C 	0.77308 0.57025 0.99477 -0.02400
N 	N 	0.71411 0.53972 0.07153 -0.19100
H 	H 	0.77477 0.64348 0.10346 0.04500
C 	C 	0.81440 0.54771 0.02965 -0.07400
C 	C 	0.80058 0.49178 0.02649 0.10100
C 	C 	0.74494 0.45853 0.98713 -0.05500
C 	C 	0.71070 0.48717 0.94795 -0.05500
C 	C 	0.72271 0.54166 0.95209 0.07300
H 	H 	0.85535 0.57189 0.06082 0.05100
N 	N 	0.83955 0.46925 0.06214 -0.20000
H 	H 	0.66994 0.46318 0.91664 0.04700
N 	N 	0.68423 0.56464 0.91602 -0.19600
H 	H 	0.87865 0.49251 0.09227 0.08300
H 	H 	0.83306 0.42998 0.05946 0.09500
H 	H 	0.64706 0.54299 0.88477 0.08200
H 	H 	0.69052 0.60390 0.91854 0.08500
H 	H 	0.70069 0.52793 0.10436 0.08400
H 	H 	0.69022 0.50091 0.05600 0.09000
H 	H 	0.87815 0.83741 0.97485 0.09300
H 	H 	0.88134 0.81375 0.93156 0.08900
C 	C 	0.55506 0.22764 0.04373 -0.05200
C 	C 	0.55436 0.23704 0.08517 0.10200
C 	C 	0.49069 0.20094 0.09712 -0.08500
C 	C 	0.42904 0.15049 0.07247 -0.00800
C 	C 	0.43076 0.13681 0.03423 0.07300
C 	C 	0.49367 0.17657 0.01949 -0.04500
N 	N 	0.61479 0.27877 0.11470 -0.19900
H 	H 	0.48956 0.21018 0.12727 0.05500
C 	C 	0.36348 0.11105 0.08824 0.00800
N 	N 	0.37260 0.08563 0.01179 -0.19100
H 	H 	0.49449 0.16850 0.98844 0.04500
C 	C 	0.31348 0.12370 0.05604 -0.09600
C 	C 	0.24996 0.08606 0.06915 0.13300
C 	C 	0.23733 0.03597 0.11613 -0.09500
C 	C 	0.29005 0.02764 0.15024 0.00100
C 	C 	0.35178 0.06263 0.13594 0.05500
H 	H 	0.32337 0.16195 0.02010 0.06100
N 	N 	0.20116 0.09741 0.03606 -0.20500
H 	H 	0.28113 0.99064 0.18679 0.02400
N 	N 	0.39853 0.04814 0.16745 -0.19000
H 	H 	0.21007 0.13272 0.00065 0.09400
H 	H 	0.15451 0.07218 0.04519 0.11200
H 	H 	0.39015 0.01348 0.20317 0.08700
H 	H 	0.44233 0.06933 0.15630 0.09000
H 	H 	0.37406 0.07695 0.98279 0.08700
H 	H 	0.32600 0.05302 0.02366 0.10300
H 	H 	0.66326 0.29882 0.11172 0.09200
H 	H 	0.61364 0.28822 0.14337 0.08400
