data_crystal

_cell_length_a 21.19037
_cell_length_b 18.59219
_cell_length_c 56.77946
_cell_angle_alpha 90.62389
_cell_angle_beta  91.52788
_cell_angle_gamma 110.94160

_symmetry_space_group_name_	'P 1'
_symmetry_space_group_name_H-M	'P 1'

loop_
_symmetry_equiv_pos_as_xyz
  x,y,z

loop_
_atom_site_label
_atom_site_type_symbol
_atom_site_fract_x
_atom_site_fract_y
_atom_site_fract_z
_atom_site_charge
Ni	Ni	0.72703 0.30633 0.90299 1.10600
O 	O 	0.63861 0.24713 0.88493 -0.69800
Ni	Ni	0.57116 0.26768 0.90532 1.10800
O 	O 	0.78103 0.27602 0.87789 -0.36100
O 	O 	0.71981 0.14783 0.88203 -0.39300
O 	O 	0.72551 0.39497 0.88253 -0.40600
Ni	Ni	0.61816 0.13712 0.88101 1.07100
O 	O 	0.77234 0.41760 0.95075 -0.37400
O 	O 	0.61314 0.11889 0.91631 -0.38800
O 	O 	0.48877 0.21601 0.88364 -0.33800
O 	O 	0.65836 0.31379 0.92551 -0.69900
O 	O 	0.81717 0.37355 0.91940 -0.35800
O 	O 	0.51641 0.31651 0.92506 -0.33500
O 	O 	0.59823 0.43573 0.92265 -0.38400
Ni	Ni	0.68544 0.42179 0.93601 1.09300
H 	H 	0.63709 0.26923 0.86923 0.15500
H 	H 	0.65795 0.28112 0.93920 0.18100
C 	C 	0.55891 0.11581 0.92746 0.38900
O 	O 	0.74104 0.49056 0.91014 -0.37100
C 	C 	0.76696 0.20359 0.87138 0.29300
C 	C 	0.48582 0.15588 0.87042 0.30400
C 	C 	0.75160 0.46749 0.88911 0.34800
C 	C 	0.53783 0.39128 0.92917 0.37400
C 	C 	0.82446 0.41962 0.93808 0.39100
O 	O 	0.53726 0.17396 0.92697 -0.33800
O 	O 	0.51554 0.10797 0.87776 -0.38400
Ni	Ni	0.62384 0.28884 0.49251 1.10600
O 	O 	0.71266 0.31437 0.47537 -0.69800
Ni	Ni	0.77248 0.29179 0.50001 1.10500
O 	O 	0.58412 0.34789 0.46974 -0.34400
O 	O 	0.67720 0.45742 0.47462 -0.38100
O 	O 	0.57702 0.19155 0.47132 -0.33900
Ni	Ni	0.75554 0.42114 0.46516 1.09200
O 	O 	0.54156 0.13731 0.51785 -0.37600
O 	O 	0.81295 0.48565 0.49323 -0.34600
O 	O 	0.86586 0.33523 0.48480 -0.35300
O 	O 	0.68071 0.25625 0.51585 -0.69600
O 	O 	0.53852 0.25767 0.51160 -0.33800
O 	O 	0.81542 0.24987 0.52690 -0.36000
O 	O 	0.73295 0.13108 0.52308 -0.39200
Ni	Ni	0.64039 0.14518 0.51961 1.07100
H 	H 	0.70683 0.27881 0.46171 0.18100
H 	H 	0.68306 0.28300 0.53120 0.15700
C 	C 	0.83036 0.45759 0.51244 0.33200
O 	O 	0.64199 0.12492 0.48461 -0.39900
C 	C 	0.61457 0.42223 0.46674 0.37800
C 	C 	0.88280 0.39004 0.46886 0.39200
C 	C 	0.59394 0.12983 0.47059 0.39300
C 	C 	0.78406 0.18081 0.53514 0.30200
C 	C 	0.52104 0.19417 0.52395 0.30400
O 	O 	0.79243 0.38993 0.51972 -0.40400
O 	O 	0.83706 0.39903 0.45407 -0.38100
Ni	Ni	0.00785 0.94264 0.72111 1.09200
O 	O 	0.03924 0.86534 0.70374 -0.71600
Ni	Ni	0.07485 0.92386 0.67466 1.09400
O 	O 	0.96964 0.86971 0.74827 -0.36400
O 	O 	0.91109 0.76563 0.72477 -0.41200
O 	O 	0.09709 0.98093 0.74090 -0.37800
Ni	Ni	0.96276 0.77259 0.69365 1.06700
O 	O 	0.08404 0.11338 0.73376 -0.40800
O 	O 	0.90710 0.83284 0.67960 -0.41400
O 	O 	0.10192 0.84072 0.65892 -0.39300
O 	O 	0.04157 0.00098 0.69152 -0.70000
O 	O 	0.97816 0.02353 0.73669 -0.37500
O 	O 	0.12254 0.99983 0.64948 -0.38400
O 	O 	0.16285 0.11706 0.66844 -0.40800
Ni	Ni	0.11506 0.09797 0.70080 1.06600
H 	H 	0.07454 0.85228 0.71252 0.15100
H 	H 	0.00499 0.01193 0.68288 0.15100
C 	C 	0.92880 0.87857 0.66178 0.30200
O 	O 	0.17391 0.04020 0.71323 -0.42600
C 	C 	0.94110 0.79479 0.74513 0.30100
C 	C 	0.05687 0.77136 0.65449 0.29300
C 	C 	0.15746 0.99776 0.73208 0.29600
C 	C 	0.17276 0.06436 0.65480 0.30800
C 	C 	0.02004 0.09501 0.73919 0.29300
O 	O 	0.98885 0.89023 0.65348 -0.36700
O 	O 	0.99352 0.75389 0.66096 -0.39800
Ni	Ni	0.24421 0.66938 0.41724 1.10400
O 	O 	0.31113 0.70191 0.39038 -0.70200
Ni	Ni	0.39208 0.68329 0.40491 1.09900
O 	O 	0.17268 0.70453 0.40114 -0.34600
O 	O 	0.24588 0.82077 0.39005 -0.38800
O 	O 	0.19398 0.56704 0.39990 -0.37300
Ni	Ni	0.33896 0.81197 0.38377 1.06900
O 	O 	0.21115 0.53095 0.45804 -0.35800
O 	O 	0.36374 0.83985 0.41833 -0.39200
O 	O 	0.45400 0.71779 0.37704 -0.35600
O 	O 	0.32458 0.65055 0.43154 -0.70100
O 	O 	0.18036 0.62958 0.44414 -0.34000
O 	O 	0.46088 0.64304 0.42113 -0.32900
O 	O 	0.37988 0.52542 0.42577 -0.38600
Ni	Ni	0.29680 0.54102 0.44025 1.09400
H 	H 	0.29444 0.67017 0.37583 0.14600
H 	H 	0.34160 0.68411 0.44572 0.17900
C 	C 	0.42214 0.84249 0.42715 0.38100
O 	O 	0.24588 0.48469 0.41055 -0.35900
C 	C 	0.18823 0.76300 0.38693 0.30500
C 	C 	0.45843 0.78117 0.36594 0.30600
C 	C 	0.22205 0.51759 0.39403 0.29200
C 	C 	0.44153 0.57383 0.43002 0.37600
C 	C 	0.16376 0.55793 0.45112 0.37700
O 	O 	0.44571 0.78749 0.42204 -0.33200
O 	O 	0.43735 0.83242 0.37604 -0.39100
Ni	Ni	0.36349 0.67941 0.99210 1.10600
O 	O 	0.27229 0.65593 0.97501 -0.70400
Ni	Ni	0.21651 0.67348 0.00097 1.10600
O 	O 	0.39755 0.61992 0.96811 -0.34500
O 	O 	0.30438 0.51070 0.97134 -0.38700
O 	O 	0.40834 0.77583 0.97224 -0.34000
Ni	Ni	0.22736 0.55168 0.96206 1.08700
O 	O 	0.45007 0.82896 0.02096 -0.37800
O 	O 	0.16976 0.49215 0.98904 -0.37600
O 	O 	0.11951 0.62595 0.98651 -0.34600
O 	O 	0.31157 0.71241 0.01626 -0.69900
O 	O 	0.45191 0.70956 0.01107 -0.33400
O 	O 	0.17935 0.71690 0.02858 -0.35500
O 	O 	0.25877 0.83724 0.02447 -0.39400
Ni	Ni	0.35162 0.82319 0.02156 1.07100
H 	H 	0.27569 0.69375 0.96251 0.18400
H 	H 	0.31312 0.68624 0.03124 0.15500
C 	C 	0.18605 0.50684 0.01150 0.32300
O 	O 	0.34874 0.84611 0.98682 -0.39500
C 	C 	0.36731 0.54523 0.96492 0.37200
C 	C 	0.10198 0.58547 0.96641 0.39200
C 	C 	0.39457 0.83944 0.97288 0.39500
C 	C 	0.20824 0.78904 0.03600 0.29300
C 	C 	0.46942 0.76995 0.02554 0.30500
O 	O 	0.20450 0.57723 0.02020 -0.38500
O 	O 	0.14779 0.58111 0.95160 -0.37800
Ni	Ni	0.94581 0.06446 0.23141 1.10300
O 	O 	0.93302 0.11994 0.20193 -0.69900
Ni	Ni	0.90529 0.03367 0.17783 1.09800
O 	O 	0.00059 0.16380 0.24963 -0.38700
O 	O 	0.07632 0.20489 0.22037 -0.41900
O 	O 	0.86140 0.07485 0.24633 -0.37200
Ni	Ni	0.01303 0.20441 0.19147 1.06400
O 	O 	0.84817 0.90688 0.25250 -0.41000
O 	O 	0.06840 0.15730 0.17108 -0.40300
O 	O 	0.90677 0.09281 0.14723 -0.38500
O 	O 	0.91026 0.97683 0.20790 -0.69900
O 	O 	0.95306 0.00068 0.25936 -0.38200
O 	O 	0.86546 0.93127 0.15943 -0.38100
O 	O 	0.77600 0.88734 0.18376 -0.41500
Ni	Ni	0.82303 0.90472 0.21726 1.06700
H 	H 	0.89525 0.13885 0.20380 0.15900
H 	H 	0.94271 0.94975 0.20671 0.15700
C 	C 	0.04603 0.08719 0.16187 0.31200
O 	O 	0.78439 0.98874 0.22162 -0.42200
C 	C 	0.05928 0.20981 0.24232 0.29300
C 	C 	0.94554 0.16568 0.14429 0.31200
C 	C 	0.79858 0.03132 0.24085 0.32000
C 	C 	0.80508 0.88185 0.16386 0.29900
C 	C 	0.91082 0.92899 0.26147 0.29600
O 	O 	0.99923 0.03173 0.17226 -0.39700
O 	O 	0.96136 0.21624 0.16207 -0.41500
C 	C 	0.03725 0.26923 0.09069 -0.01400
C 	C 	0.09795 0.26952 0.08135 -0.02200
C 	C 	0.11891 0.30366 0.05971 -0.05200
C 	C 	0.07993 0.33926 0.04746 0.04200
C 	C 	0.01728 0.33483 0.05610 -0.07500
C 	C 	0.99623 0.30056 0.07772 0.00900
C 	C 	0.10685 0.38684 0.02675 0.00600
C 	C 	0.16810 0.44305 0.02809 -0.12500
C 	C 	0.02080 0.24395 0.11508 0.00500
C 	C 	0.95956 0.19366 0.12019 -0.13700
H 	H 	0.12957 0.24472 0.09110 0.03700
H 	H 	0.16636 0.30454 0.05282 0.05300
H 	H 	0.98637 0.36111 0.04660 0.09500
H 	H 	0.94938 0.30097 0.08480 0.04400
H 	H 	0.07273 0.38379 0.01181 0.08000
H 	H 	0.20057 0.44878 0.04368 0.07400
H 	H 	0.06044 0.26330 0.12878 0.02600
H 	H 	0.92171 0.16868 0.10620 0.08600
C 	C 	0.65271 0.79928 0.12247 0.00900
C 	C 	0.58702 0.74413 0.12219 -0.03600
C 	C 	0.54172 0.74034 0.10346 -0.03800
C 	C 	0.56194 0.79098 0.08470 0.01400
C 	C 	0.62819 0.84463 0.08455 -0.03500
C 	C 	0.67326 0.84921 0.10339 -0.03200
C 	C 	0.51227 0.79118 0.06609 0.00800
C 	C 	0.52285 0.77943 0.04346 -0.13300
C 	C 	0.69491 0.81333 0.14441 0.01000
C 	C 	0.76272 0.83730 0.14389 -0.14700
H 	H 	0.57036 0.70592 0.13687 0.03900
H 	H 	0.49057 0.69879 0.10371 0.04000
H 	H 	0.64399 0.88459 0.07024 0.05900
H 	H 	0.72298 0.89385 0.10366 0.05100
H 	H 	0.46438 0.79508 0.07109 0.01100
H 	H 	0.56826 0.76920 0.03861 0.11100
H 	H 	0.67037 0.80957 0.16117 0.03600
H 	H 	0.78684 0.83364 0.12749 0.08500
C 	C 	0.16968 0.91997 0.08150 0.01100
C 	C 	0.16546 0.99329 0.07949 -0.03200
C 	C 	0.13214 0.02042 0.09644 -0.04100
C 	C 	0.10373 0.97481 0.11575 0.01200
C 	C 	0.10965 0.90246 0.11808 -0.03800
C 	C 	0.14314 0.87551 0.10122 -0.03800
C 	C 	0.06183 0.99868 0.13225 0.01000
C 	C 	0.08611 0.06712 0.14380 -0.14900
C 	C 	0.20353 0.89088 0.06321 0.00500
C 	C 	0.17460 0.81908 0.05402 -0.13800
H 	H 	0.18669 0.02854 0.06455 0.04800
H 	H 	0.12707 0.07595 0.09428 0.04500
H 	H 	0.08788 0.86688 0.13291 0.04000
H 	H 	0.14818 0.81998 0.10341 0.04000
H 	H 	0.01228 0.95745 0.13624 0.04200
H 	H 	0.13565 0.10840 0.13985 0.07800
H 	H 	0.25099 0.92959 0.05655 0.03500
H 	H 	0.12595 0.78154 0.06017 0.08800
C 	C 	0.55148 0.89012 0.31287 0.01600
C 	C 	0.56090 0.83709 0.29681 -0.03900
C 	C 	0.60418 0.86311 0.27806 -0.03300
C 	C 	0.63804 0.94229 0.27503 0.00500
C 	C 	0.62667 0.99543 0.29057 -0.02900
C 	C 	0.58381 0.96938 0.30945 -0.03400
C 	C 	0.68350 0.96873 0.25502 0.01600
C 	C 	0.74566 0.02281 0.25815 -0.15500
C 	C 	0.50381 0.86349 0.33228 0.00900
C 	C 	0.50358 0.80443 0.34585 -0.13300
H 	H 	0.53401 0.77586 0.29863 0.04300
H 	H 	0.61147 0.82169 0.26589 0.03600
H 	H 	0.65042 0.05674 0.28790 0.04400
H 	H 	0.57553 0.01080 0.32137 0.05200
H 	H 	0.66935 0.93669 0.23839 0.02900
H 	H 	0.75996 0.05461 0.27481 0.09100
H 	H 	0.47109 0.89533 0.33630 0.02900
H 	H 	0.53696 0.77320 0.34211 0.09800
C 	C 	0.21422 0.39177 0.33965 0.01900
C 	C 	0.19448 0.42373 0.31972 -0.04100
C 	C 	0.16253 0.37659 0.30031 -0.03500
C 	C 	0.15148 0.29739 0.30044 0.00900
C 	C 	0.17572 0.26686 0.31966 -0.03300
C 	C 	0.20738 0.31396 0.33910 -0.03500
C 	C 	0.10529 0.24438 0.28264 0.00900
C 	C 	0.10983 0.25973 0.25951 -0.14500
C 	C 	0.23845 0.43822 0.36160 0.00200
C 	C 	0.20320 0.47855 0.37082 -0.13200
H 	H 	0.20185 0.48446 0.31958 0.03700
H 	H 	0.14379 0.40095 0.28566 0.03800
H 	H 	0.16779 0.20598 0.31991 0.04600
H 	H 	0.22386 0.28917 0.35416 0.05800
H 	H 	0.06765 0.19127 0.28857 0.04600
H 	H 	0.15123 0.30892 0.25328 0.06900
H 	H 	0.28168 0.43370 0.37136 0.04900
H 	H 	0.15971 0.48263 0.36112 0.08400
C 	C 	0.99912 0.87478 0.31318 0.05300
C 	C 	0.00095 0.88143 0.33782 -0.07600
C 	C 	0.04723 0.85988 0.35124 -0.01300
C 	C 	0.09212 0.83135 0.34008 -0.00300
C 	C 	0.08870 0.82210 0.31551 -0.02400
C 	C 	0.04228 0.84340 0.30210 -0.06600
C 	C 	0.14683 0.81812 0.35380 0.01700
C 	C 	0.13347 0.77490 0.37307 -0.14400
C 	C 	0.96198 0.91387 0.29913 -0.00000
C 	C 	0.92689 0.88119 0.27935 -0.13300
H 	H 	0.96833 0.90617 0.34653 0.07600
H 	H 	0.04997 0.86810 0.37021 0.05500
H 	H 	0.12324 0.80030 0.30676 0.03100
H 	H 	0.04223 0.83918 0.28305 0.04100
H 	H 	0.19816 0.84150 0.34757 0.01600
H 	H 	0.08147 0.74594 0.37813 0.09900
H 	H 	0.96725 0.97243 0.30414 0.05700
H 	H 	0.91467 0.82017 0.27561 0.06600
C 	C 	0.53640 0.94478 0.43440 0.27200
C 	C 	0.46701 0.91436 0.43917 -0.19700
C 	C 	0.43921 0.95735 0.45331 0.26800
C 	C 	0.47989 0.03003 0.46231 0.27300
C 	C 	0.54934 0.05978 0.45786 -0.20400
C 	C 	0.57733 0.01679 0.44386 0.27300
F 	F 	0.64426 0.04504 0.43931 -0.38700
F 	F 	0.56381 0.90567 0.42005 -0.37500
F 	F 	0.45217 0.07053 0.47599 -0.38200
F 	F 	0.37273 0.92838 0.45850 -0.38900
C 	C 	0.98127 0.51316 0.46712 0.28800
C 	C 	0.95494 0.43249 0.46483 -0.21000
C 	C 	0.99770 0.39283 0.45877 0.29900
C 	C 	0.06603 0.43366 0.45461 0.25200
C 	C 	0.09260 0.51457 0.45699 -0.17900
C 	C 	0.04987 0.55390 0.46369 0.25400
F 	F 	0.07492 0.63150 0.46719 -0.38000
F 	F 	0.94038 0.55220 0.47280 -0.40400
F 	F 	0.10591 0.39478 0.44759 -0.38800
F 	F 	0.97265 0.31489 0.45625 -0.38200
C 	C 	0.59376 0.51558 0.43918 0.27300
C 	C 	0.57447 0.46830 0.45884 -0.19600
C 	C 	0.51545 0.46320 0.47046 0.27800
C 	C 	0.47430 0.50198 0.46185 0.27000
C 	C 	0.49139 0.54570 0.44138 -0.19700
C 	C 	0.55222 0.55394 0.43040 0.28000
F 	F 	0.56951 0.59608 0.41063 -0.38100
F 	F 	0.65135 0.52191 0.42803 -0.40600
F 	F 	0.41694 0.49588 0.47312 -0.42200
F 	F 	0.49778 0.42025 0.49007 -0.39100
C 	C 	0.80332 0.06640 0.58823 0.01200
C 	C 	0.84763 0.11538 0.60530 -0.03800
C 	C 	0.87927 0.08515 0.62235 -0.03800
C 	C 	0.86605 0.00569 0.62274 0.01300
C 	C 	0.81882 0.95632 0.60646 -0.03600
C 	C 	0.78716 0.98660 0.58942 -0.03700
C 	C 	0.90948 0.97654 0.63753 0.00300
C 	C 	0.88360 0.91149 0.64968 -0.14900
C 	C 	0.77377 0.09810 0.56902 0.00900
C 	C 	0.81306 0.15500 0.55569 -0.14500
H 	H 	0.85847 0.17690 0.60507 0.04000
H 	H 	0.91544 0.12367 0.63488 0.03500
H 	H 	0.80878 0.89495 0.60637 0.05000
H 	H 	0.75194 0.94826 0.57661 0.05000
H 	H 	0.96362 0.00885 0.63848 0.03800
H 	H 	0.82919 0.88289 0.65068 0.07800
H 	H 	0.72023 0.07041 0.56448 0.01700
H 	H 	0.86659 0.18299 0.56016 0.09100
C 	C 	0.40158 0.11095 0.57412 0.01600
C 	C 	0.37212 0.03468 0.58141 -0.03300
C 	C 	0.31848 0.01442 0.59681 -0.03100
C 	C 	0.29424 0.07038 0.60535 0.00900
C 	C 	0.32371 0.14695 0.59807 -0.03200
C 	C 	0.37788 0.16739 0.58285 -0.03700
C 	C 	0.23449 0.04684 0.62037 0.01300
C 	C 	0.23167 0.08913 0.63946 -0.14500
C 	C 	0.46003 0.13183 0.55852 0.01000
C 	C 	0.46488 0.17844 0.54017 -0.12700
H 	H 	0.39057 0.99093 0.57503 0.04900
H 	H 	0.29567 0.95510 0.60210 0.04400
H 	H 	0.30428 0.19038 0.60398 0.04700
H 	H 	0.40156 0.22699 0.57798 0.05000
H 	H 	0.19409 0.99205 0.61646 0.04800
H 	H 	0.27337 0.14237 0.64389 0.07400
H 	H 	0.49728 0.10459 0.56115 0.02000
H 	H 	0.42785 0.20579 0.53733 0.10600
C 	C 	0.01063 0.61815 0.60799 -0.00100
C 	C 	0.02138 0.55075 0.60137 -0.04800
C 	C 	0.99030 0.51012 0.58076 -0.02200
C 	C 	0.94704 0.53568 0.56682 0.01700
C 	C 	0.93829 0.60490 0.57308 -0.03500
C 	C 	0.97068 0.64632 0.59336 -0.01900
C 	C 	0.90299 0.48333 0.54829 0.01500
C 	C 	0.88160 0.51029 0.52890 -0.13000
C 	C 	0.03045 0.65114 0.63196 0.01100
C 	C 	0.06963 0.72547 0.63516 -0.14700
H 	H 	0.05187 0.52835 0.61261 0.04100
H 	H 	0.99742 0.45686 0.57619 0.04900
H 	H 	0.90360 0.62446 0.56302 0.05500
H 	H 	0.96141 0.69790 0.59848 0.05500
H 	H 	0.88739 0.42151 0.55068 0.04700
H 	H 	0.90236 0.57128 0.52508 0.11400
H 	H 	0.00347 0.61874 0.64672 0.01800
H 	H 	0.10271 0.75529 0.62126 0.08600
C 	C 	0.00600 0.55554 0.93687 0.26500
C 	C 	0.02954 0.54853 0.95978 -0.20900
C 	C 	0.98413 0.50315 0.97610 0.29300
C 	C 	0.91635 0.46326 0.96932 0.27100
C 	C 	0.89343 0.46827 0.94617 -0.19800
C 	C 	0.93832 0.51558 0.93010 0.28400
F 	F 	0.91635 0.52246 0.90785 -0.39900
F 	F 	0.04864 0.60132 0.92118 -0.39000
F 	F 	0.87370 0.41732 0.98497 -0.38900
F 	F 	0.00629 0.49533 0.99825 -0.40900
C 	C 	0.40632 0.94902 0.94633 0.27400
C 	C 	0.43669 0.90694 0.95991 -0.20500
C 	C 	0.50762 0.93252 0.96234 0.27400
C 	C 	0.54766 0.00058 0.95172 0.27000
C 	C 	0.51719 0.04345 0.93847 -0.20200
C 	C 	0.44627 0.01664 0.93555 0.27200
F 	F 	0.41614 0.05552 0.92192 -0.37900
F 	F 	0.33799 0.92403 0.94343 -0.39000
F 	F 	0.61593 0.02591 0.95485 -0.38800
F 	F 	0.53762 0.89283 0.97568 -0.38200
C 	C 	0.38363 0.44370 0.93927 0.27100
C 	C 	0.40753 0.49895 0.95762 -0.19600
C 	C 	0.47286 0.51513 0.96748 0.27500
C 	C 	0.51502 0.47930 0.95833 0.27200
C 	C 	0.49210 0.42622 0.93941 -0.19800
C 	C 	0.42575 0.40742 0.93019 0.27800
F 	F 	0.40293 0.35610 0.91191 -0.38500
F 	F 	0.32064 0.42744 0.92959 -0.40700
F 	F 	0.57811 0.49581 0.96795 -0.41700
F 	F 	0.49553 0.56583 0.98593 -0.38900
C 	C 	0.90694 0.22025 0.82818 0.01300
C 	C 	0.92477 0.26369 0.80773 -0.03500
C 	C 	0.96558 0.24655 0.79129 -0.04000
C 	C 	0.98869 0.18549 0.79514 0.02400
C 	C 	0.97390 0.14480 0.81617 -0.03600
C 	C 	0.93329 0.16212 0.83266 -0.03100
C 	C 	0.02583 0.16145 0.77681 0.00100
C 	C 	0.00076 0.14701 0.75458 -0.15300
C 	C 	0.86406 0.23934 0.84547 0.00900
C 	C 	0.81204 0.18388 0.85520 -0.13700
H 	H 	0.90643 0.31023 0.80447 0.04100
H 	H 	0.97861 0.28012 0.77548 0.04200
H 	H 	0.99268 0.09867 0.81952 0.05700
H 	H 	0.92246 0.13051 0.84888 0.05600
H 	H 	0.06750 0.14360 0.78228 0.04700
H 	H 	0.95700 0.16124 0.74934 0.07500
H 	H 	0.87242 0.29967 0.84905 0.05500
H 	H 	0.80175 0.12365 0.85076 0.07700
C 	C 	0.39864 0.06949 0.81178 0.01200
C 	C 	0.32821 0.04359 0.81380 -0.03600
C 	C 	0.28627 0.03211 0.79366 -0.03300
C 	C 	0.31428 0.04465 0.77121 0.00600
C 	C 	0.38452 0.06803 0.76919 -0.03700
C 	C 	0.42650 0.07964 0.78938 -0.04000
C 	C 	0.27110 0.04263 0.75016 0.01500
C 	C 	0.21082 0.98581 0.74677 -0.15200
C 	C 	0.44354 0.08641 0.83304 0.01000
C 	C 	0.43674 0.13246 0.85044 -0.13400
H 	H 	0.30606 0.03363 0.83100 0.06200
H 	H 	0.23222 0.01563 0.79553 0.05100
H 	H 	0.40666 0.07837 0.75199 0.03800
H 	H 	0.48078 0.09851 0.78764 0.03500
H 	H 	0.28652 0.09100 0.73833 0.03400
H 	H 	0.19715 0.93575 0.75793 0.07300
H 	H 	0.48588 0.06637 0.83358 0.02100
H 	H 	0.39753 0.15731 0.84903 0.09900
C 	C 	0.85483 0.64243 0.78991 0.00800
C 	C 	0.79411 0.63140 0.80117 -0.03400
C 	C 	0.77962 0.58986 0.82195 -0.03700
C 	C 	0.82569 0.55855 0.83159 0.01700
C 	C 	0.88610 0.56897 0.82018 -0.03500
C 	C 	0.90071 0.61079 0.79946 -0.03400
C 	C 	0.80688 0.50619 0.85167 0.02300
C 	C 	0.78154 0.52541 0.87121 -0.12800
C 	C 	0.86971 0.68619 0.76794 0.00900
C 	C 	0.92781 0.74629 0.76606 -0.14900
H 	H 	0.75814 0.65499 0.79380 0.04400
H 	H 	0.73188 0.58028 0.83022 0.04900
H 	H 	0.92129 0.54370 0.82719 0.05900
H 	H 	0.94723 0.61780 0.79066 0.04200
H 	H 	0.81343 0.45088 0.85039 0.05100
H 	H 	0.78110 0.58333 0.87357 0.09900
H 	H 	0.83083 0.67300 0.75400 0.03600
H 	H 	0.96409 0.76305 0.78085 0.08500
