data_crystal

_cell_length_a 17.71087
_cell_length_b 17.75431
_cell_length_c 53.88895
_cell_angle_alpha 90.65788
_cell_angle_beta  90.87182
_cell_angle_gamma 110.71454

_symmetry_space_group_name_	'P 1'
_symmetry_space_group_name_H-M	'P 1'

loop_
_symmetry_equiv_pos_as_xyz
  x,y,z

loop_
_atom_site_label
_atom_site_type_symbol
_atom_site_fract_x
_atom_site_fract_y
_atom_site_fract_z
_atom_site_charge
C 	C 	0.00122 0.52846 0.01398 -0.08500
C 	C 	0.01826 0.60849 0.05323 -0.01100
H 	H 	0.02686 0.48877 0.02314 0.04500
O 	O 	0.03293 0.60041 0.14813 -0.37500
O 	O 	0.19825 0.70644 0.15540 -0.70900
Ni	Ni	0.25718 0.62851 0.15400 1.09600
O 	O 	0.34283 0.69140 0.12979 -0.38400
O 	O 	0.29241 0.53232 0.14871 -0.37800
O 	O 	0.18029 0.42103 0.15240 -0.40500
Ni	Ni	0.09389 0.46486 0.16621 1.06500
H 	H 	0.17851 0.71405 0.13868 0.15000
O 	O 	0.08270 0.50794 0.13213 -0.41700
C 	C 	0.37044 0.77083 0.12970 0.27800
C 	C 	0.05750 0.56857 0.12909 0.27500
C 	C 	0.24161 0.46524 0.13934 0.30800
O 	O 	0.37154 0.81240 0.15036 -0.41500
C 	C 	0.04742 0.59379 0.10385 -0.10400
C 	C 	0.10976 0.60621 0.08687 0.00700
C 	C 	0.09534 0.61387 0.06166 -0.05600
C 	C 	0.95788 0.60270 0.07048 -0.04600
C 	C 	0.97254 0.59564 0.09574 0.02400
C 	C 	0.99733 0.59665 0.02656 0.04400
C 	C 	0.96457 0.64788 0.01441 -0.05900
H 	H 	0.16842 0.60668 0.09309 0.01300
H 	H 	0.14281 0.61997 0.04854 0.04100
H 	H 	0.89834 0.59925 0.06417 0.04300
H 	H 	0.92434 0.58706 0.10877 0.03900
H 	H 	0.96240 0.70130 0.02383 0.04700
C 	C 	0.41970 0.81230 0.10865 -0.09200
C 	C 	0.42578 0.89117 0.10291 0.01500
C 	C 	0.46601 0.92771 0.08164 -0.07400
C 	C 	0.50064 0.88581 0.06592 0.04500
C 	C 	0.49686 0.80803 0.07204 -0.07500
C 	C 	0.45672 0.77144 0.09330 0.02000
C 	C 	0.53697 0.92174 0.04240 -0.03900
C 	C 	0.50125 0.88700 0.01962 -0.00600
C 	C 	0.63363 0.03182 0.02046 -0.13100
C 	C 	0.60453 0.99329 0.04270 0.05000
H 	H 	0.39747 0.92333 0.11454 0.01300
H 	H 	0.46862 0.98784 0.07706 0.05100
H 	H 	0.52411 0.77553 0.06015 0.05000
H 	H 	0.45382 0.71110 0.09769 0.03900
H 	H 	0.44934 0.83153 0.01918 0.03100
H 	H 	0.68394 0.08861 0.02094 0.05800
H 	H 	0.63313 0.02008 0.06017 0.00100
C 	C 	0.41356 0.38505 0.00308 0.02500
C 	C 	0.45855 0.33475 0.00011 -0.06500
C 	C 	0.37940 0.39168 0.02747 0.00100
C 	C 	0.43032 0.41480 0.04856 -0.04200
C 	C 	0.39799 0.41760 0.07187 -0.03300
C 	C 	0.31465 0.39823 0.07430 -0.01100
C 	C 	0.26346 0.37449 0.05331 -0.03400
C 	C 	0.29569 0.37088 0.02996 -0.04200
C 	C 	0.28380 0.41431 0.09753 0.04600
C 	C 	0.26205 0.43361 0.11688 -0.11600
H 	H 	0.46632 0.29898 0.01543 0.04400
H 	H 	0.49499 0.43094 0.04685 0.03900
H 	H 	0.43801 0.43695 0.08796 0.04000
H 	H 	0.19903 0.36032 0.05500 0.03400
H 	H 	0.25574 0.35201 0.01384 0.03600
O 	O 	0.01621 0.58760 0.20161 -0.40000
C 	C 	0.00488 0.84584 0.21174 0.09600
H 	H 	0.00515 0.72938 0.21809 0.09200
C 	C 	0.02100 0.98555 0.22009 -0.06600
C 	C 	0.01408 0.03992 0.23997 0.26000
N 	N 	0.00084 0.22122 0.34734 -0.21100
H 	H 	0.00743 0.63155 0.28982 0.08300
Ni	Ni	0.00933 0.01471 0.29399 1.05900
N 	N 	0.00878 0.32270 0.78217 -0.21500
C 	C 	0.01321 0.49577 0.56881 0.01700
C 	C 	0.01574 0.21258 0.83885 -0.06100
C 	C 	0.01558 0.43133 0.58322 -0.07900
C 	C 	0.01975 0.74270 0.34182 -0.12700
H 	H 	0.01997 0.12011 0.73498 0.00500
C 	C 	0.02159 0.23262 0.81369 -0.11600
N 	N 	0.02426 0.65421 0.30785 -0.20900
H 	H 	0.02402 0.70442 0.83932 0.07400
N 	N 	0.02602 0.51130 0.25215 -0.21100
H 	H 	0.02534 0.79471 0.82455 0.06100
O 	O 	0.03400 0.19702 0.27781 -0.38900
H 	H 	0.03530 0.38533 0.57520 0.04400
C 	C 	0.03510 0.58090 0.74988 -0.05200
H 	H 	0.03574 0.62753 0.79600 0.08300
C 	C 	0.03578 0.50022 0.54244 -0.00800
C 	C 	0.03667 0.56690 0.72429 -0.10400
Ni	Ni	0.27058 0.80980 0.16892 1.06400
H 	H 	0.47902 0.72033 0.17132 0.11000
Ni	Ni	0.10665 0.64914 0.17854 1.09600
O 	O 	0.06579 0.74390 0.17771 -0.37900
O 	O 	0.98878 0.47409 0.17798 -0.40500
O 	O 	0.16822 0.57177 0.17859 -0.69400
H 	H 	0.15808 0.97316 0.17785 0.02800
O 	O 	0.34192 0.66141 0.18258 -0.37500
H 	H 	0.56581 0.70425 0.18387 0.08900
C 	C 	0.11062 0.81524 0.18664 0.28400
N 	N 	0.51344 0.71713 0.18686 -0.20000
C 	C 	0.10845 0.95364 0.19064 -0.01500
H 	H 	0.17186 0.10972 0.18678 0.07400
O 	O 	0.18722 0.83094 0.19240 -0.41400
H 	H 	0.19003 0.56835 0.19539 0.15600
H 	H 	0.82589 0.41706 0.19334 0.05000
C 	C 	0.07186 0.87132 0.19570 -0.09900
O 	O 	0.30192 0.75906 0.19905 -0.42300
C 	C 	0.35490 0.72357 0.19763 0.30500
C 	C 	0.98380 0.50901 0.19924 0.30400
H 	H 	0.71613 0.29298 0.19936 0.07600
N 	N 	0.12321 0.09090 0.19881 -0.19400
C 	C 	0.08466 0.01126 0.20312 0.06100
H 	H 	0.10372 0.13457 0.20677 0.09300
C 	C 	0.85287 0.40738 0.21065 -0.03600
C 	C 	0.49990 0.74334 0.20960 0.11200
C 	C 	0.92906 0.46154 0.21830 -0.10600
N 	N 	0.74391 0.28226 0.21551 -0.19800
C 	C 	0.42322 0.74628 0.21577 -0.10100
N 	N 	0.97285 0.76822 0.21924 -0.18500
C 	C 	0.81590 0.33614 0.22373 0.09300
H 	H 	0.62311 0.77173 0.22203 0.05100
C 	C 	0.97581 0.90334 0.22178 -0.03300
H 	H 	0.71364 0.23072 0.22555 0.05800
C 	C 	0.56487 0.77515 0.22650 -0.04700
H 	H 	0.91902 0.74880 0.22903 0.09000
O 	O 	0.96582 0.08062 0.23712 -0.37500
H 	H 	0.92325 0.88403 0.23343 0.03500
H 	H 	0.99911 0.81597 0.37117 0.02500
O 	O 	0.64563 0.96266 0.24510 -0.40800
H 	H 	0.81539 0.02516 0.23826 0.15100
C 	C 	0.85582 0.32004 0.24477 -0.08900
C 	C 	0.95962 0.45310 0.24215 0.10900
H 	H 	0.05069 0.56759 0.24407 0.08200
C 	C 	0.41473 0.78104 0.23861 -0.04300
H 	H 	0.35560 0.77945 0.24418 0.04800
O 	O 	0.90500 0.21080 0.24600 -0.38200
C 	C 	0.84563 0.23659 0.25083 0.27500
C 	C 	0.55971 0.82523 0.24622 -0.08800
O 	O 	0.81254 0.04137 0.25576 -0.71400
C 	C 	0.63401 0.89036 0.25448 0.28700
C 	C 	0.92226 0.38205 0.25524 -0.04600
C 	C 	0.48306 0.82683 0.25269 0.09900
Ni	Ni	0.92091 0.12252 0.26698 1.10000
O 	O 	0.05893 0.04988 0.26010 -0.39500
O 	O 	0.69507 0.86930 0.26277 -0.38100
O 	O 	0.78635 0.19484 0.26535 -0.41500
Ni	Ni	0.71877 0.07307 0.25824 1.06400
H 	H 	0.94944 0.37196 0.27247 0.05000
H 	H 	0.05096 0.50218 0.26905 0.08000
N 	N 	0.47531 0.87560 0.27135 -0.20100
Ni	Ni	0.80358 0.94694 0.27666 1.10500
O 	O 	0.95297 0.89704 0.28164 -0.40800
H 	H 	0.41812 0.87252 0.27701 0.08600
H 	H 	0.52543 0.92026 0.27932 0.08700
H 	H 	0.18717 0.32363 0.28728 0.04800
H 	H 	0.92761 0.71390 0.28452 0.05100
O 	O 	0.90721 0.03344 0.29075 -0.70100
O 	O 	0.82303 0.85320 0.29459 -0.37000
O 	O 	0.68617 0.05283 0.29454 -0.43000
C 	C 	0.89517 0.84740 0.29476 0.27800
H 	H 	0.27758 0.45988 0.28986 0.08000
C 	C 	0.06292 0.19388 0.30034 0.28700
C 	C 	0.94239 0.73540 0.30354 -0.05500
O 	O 	0.74704 0.96658 0.30750 -0.39100
H 	H 	0.89584 0.05245 0.30712 0.14300
C 	C 	0.68346 0.98773 0.30645 0.32300
O 	O 	0.06926 0.12646 0.30889 -0.41900
H 	H 	0.59610 0.83102 0.30929 0.04900
C 	C 	0.16268 0.33219 0.30497 -0.04300
N 	N 	0.25321 0.46886 0.30670 -0.20000
C 	C 	0.09852 0.26898 0.31488 -0.09900
H 	H 	0.27376 0.52684 0.31452 0.08600
C 	C 	0.91571 0.79564 0.31274 -0.09200
H 	H 	0.06221 0.63210 0.31805 0.09700
C 	C 	0.99535 0.70929 0.31773 0.13800
C 	C 	0.57507 0.86728 0.32182 -0.04000
H 	H 	0.47761 0.71836 0.31731 0.08200
C 	C 	0.19415 0.40702 0.31741 0.10300
C 	C 	0.61730 0.95052 0.32378 -0.11100
N 	N 	0.45577 0.75365 0.32876 -0.20000
C 	C 	0.50152 0.83188 0.33388 0.09900
H 	H 	0.39651 0.72865 0.33476 0.07200
C 	C 	0.59183 0.99744 0.34085 0.13300
H 	H 	0.69740 0.10011 0.33984 0.09300
C 	C 	0.06526 0.28036 0.33775 0.09600
C 	C 	0.16234 0.41752 0.34059 -0.09800
H 	H 	0.97220 0.16671 0.33787 0.07300
C 	C 	0.93103 0.82017 0.33799 0.08100
H 	H 	0.85561 0.88877 0.33876 0.09100
O 	O 	0.16257 0.79404 0.35042 -0.41700
C 	C 	0.47466 0.87909 0.35042 -0.08900
N 	N 	0.63826 0.07542 0.34603 -0.21200
C 	C 	0.09827 0.35442 0.35049 -0.04500
N 	N 	0.89820 0.87143 0.34835 -0.20500
O 	O 	0.15397 0.54029 0.35753 -0.38000
O 	O 	0.33190 0.83424 0.35714 -0.41700
C 	C 	0.19697 0.49268 0.35510 0.30000
C 	C 	0.09203 0.73700 0.35421 0.28600
C 	C 	0.51979 0.96140 0.35369 -0.05200
H 	H 	0.61718 0.11075 0.35772 0.08000
C 	C 	0.98326 0.79346 0.35229 -0.02700
O 	O 	0.08822 0.66814 0.36406 -0.37500
O 	O 	0.27176 0.51310 0.36399 -0.42400
C 	C 	0.40372 0.84219 0.36594 0.29400
H 	H 	0.49997 0.99707 0.36679 0.05600
H 	H 	0.07387 0.36303 0.36820 0.04800
H 	H 	0.97759 0.23004 0.36439 0.08700
H 	H 	0.91296 0.89220 0.36666 0.07900
Ni	Ni	0.19035 0.64956 0.37633 1.09800
Ni	Ni	0.24576 0.85121 0.37879 1.06400
H 	H 	0.33900 0.67773 0.37244 0.15400
O 	O 	0.30353 0.66165 0.38689 -0.70700
O 	O 	0.41480 0.83070 0.38956 -0.37000
Ni	Ni	0.30573 0.55889 0.39868 1.06800
O 	O 	0.22451 0.75302 0.39739 -0.70600
O 	O 	0.32890 0.92737 0.40350 -0.40300
O 	O 	0.12899 0.59633 0.40718 -0.38700
Ni	Ni	0.32897 0.75395 0.41201 1.10000
O 	O 	0.18990 0.50391 0.41024 -0.40400
H 	H 	0.18593 0.75043 0.41074 0.15500
C 	C 	0.15002 0.54531 0.42037 0.31000
O 	O 	0.42017 0.72764 0.42921 -0.38100
O 	O 	0.33918 0.59748 0.43523 -0.41900
O 	O 	0.34683 0.84892 0.43519 -0.37700
C 	C 	0.33447 0.91402 0.42761 0.27900
C 	C 	0.40457 0.65974 0.44102 0.27400
C 	C 	0.35497 0.98050 0.44482 -0.06200
C 	C 	0.12309 0.52980 0.44544 -0.12100
H 	H 	0.55878 0.75470 0.45271 0.04000
C 	C 	0.37610 0.03078 0.46116 -0.00500
C 	C 	0.45055 0.65889 0.46396 -0.08700
H 	H 	0.53043 0.11889 0.47193 0.04000
C 	C 	0.10225 0.51944 0.46673 0.04800
C 	C 	0.52968 0.71406 0.46738 0.01300
C 	C 	0.48897 0.11929 0.48648 -0.04300
C 	C 	0.40548 0.08437 0.48216 0.00900
H 	H 	0.95481 0.49664 0.48445 0.03800
C 	C 	0.41412 0.60601 0.48309 0.01000
H 	H 	0.35294 0.56352 0.48082 0.03300
C 	C 	0.07877 0.50940 0.49233 -0.02300
C 	C 	0.57134 0.71723 0.48981 -0.06400
H 	H 	0.63215 0.76033 0.49232 0.04800
C 	C 	0.35241 0.08543 0.50110 -0.04500
H 	H 	0.28772 0.05881 0.49791 0.03200
C 	C 	0.99955 0.49979 0.49876 -0.02100
C 	C 	0.51934 0.14860 0.51011 -0.03700
C 	C 	0.13632 0.51375 0.51098 -0.03100
H 	H 	0.19781 0.52161 0.50616 0.03600
C 	C 	0.53456 0.66490 0.50895 0.02600
C 	C 	0.45601 0.60895 0.50544 -0.06500
H 	H 	0.58402 0.17167 0.51353 0.03500
H 	H 	0.67516 0.63829 0.51465 0.03900
C 	C 	0.38269 0.11595 0.52471 -0.03800
C 	C 	0.97806 0.49516 0.52373 -0.03300
H 	H 	0.42752 0.56766 0.52003 0.04500
C 	C 	0.46631 0.14506 0.52953 -0.00300
H 	H 	0.91669 0.48776 0.52853 0.03700
C 	C 	0.57927 0.66637 0.53230 0.00300
C 	C 	0.64999 0.64789 0.53210 -0.04100
H 	H 	0.57871 0.28839 0.54333 0.04500
H 	H 	0.34122 0.11506 0.53937 0.03400
C 	C 	0.11492 0.50910 0.53596 -0.04200
H 	H 	0.15991 0.51308 0.55025 0.03900
C 	C 	0.55808 0.24791 0.55871 -0.06700
C 	C 	0.49859 0.17169 0.55486 0.02600
C 	C 	0.54767 0.67940 0.55502 -0.04000
C 	C 	0.68591 0.63762 0.55441 -0.03200
H 	H 	0.49384 0.69503 0.55535 0.04100
H 	H 	0.73861 0.62005 0.55408 0.03800
C 	C 	0.47238 0.11986 0.57502 -0.06900
H 	H 	0.42733 0.06031 0.57218 0.04000
H 	H 	0.98642 0.60548 0.56851 0.04600
C 	C 	0.59115 0.27227 0.58238 0.01300
H 	H 	0.63748 0.33122 0.58501 0.02500
C 	C 	0.98791 0.55517 0.57945 -0.05400
C 	C 	0.58345 0.66866 0.57733 -0.03100
C 	C 	0.65123 0.64543 0.57704 -0.00800
C 	C 	0.56339 0.22180 0.60273 -0.09200
C 	C 	0.50433 0.14500 0.59891 0.01100
C 	C 	0.67769 0.61814 0.59937 0.04600
H 	H 	0.55663 0.67528 0.59478 0.03900
C 	C 	0.99126 0.42536 0.60792 0.02400
C 	C 	0.96364 0.54935 0.60416 0.00900
H 	H 	0.48214 0.10543 0.61440 0.02400
C 	C 	0.96421 0.48387 0.61847 -0.09000
H 	H 	0.99303 0.37502 0.61878 0.03600
H 	H 	0.94292 0.59486 0.61201 0.03500
C 	C 	0.69900 0.59165 0.61752 -0.11000
C 	C 	0.59162 0.25327 0.62796 0.27100
O 	O 	0.60591 0.33031 0.63245 -0.37900
O 	O 	0.80084 0.56761 0.64139 -0.42200
H 	H 	0.76758 0.30350 0.64575 0.14400
C 	C 	0.93199 0.47411 0.64386 0.28500
C 	C 	0.72372 0.55613 0.63832 0.29400
O 	O 	0.90815 0.40253 0.65378 -0.38500
O 	O 	0.66931 0.49635 0.64936 -0.38500
O 	O 	0.58311 0.20240 0.64658 -0.41600
O 	O 	0.74693 0.31322 0.66199 -0.70100
Ni	Ni	0.69314 0.39428 0.65708 1.09900
O 	O 	0.94367 0.53817 0.65790 -0.39800
Ni	Ni	0.67100 0.21079 0.67301 1.06300
Ni	Ni	0.85197 0.55880 0.67580 1.07100
H 	H 	0.43422 0.19540 0.67458 0.04300
H 	H 	0.29795 0.10303 0.67600 0.07200
H 	H 	0.08847 0.54384 0.68039 0.10000
H 	H 	0.15654 0.64543 0.67646 0.08400
Ni	Ni	0.84165 0.37432 0.68539 1.09800
O 	O 	0.87457 0.27469 0.68877 -0.37500
O 	O 	0.77983 0.44989 0.68302 -0.70300
C 	C 	0.57261 0.29918 0.69373 0.30400
O 	O 	0.60626 0.36996 0.68371 -0.37800
H 	H 	0.74511 0.04732 0.69738 0.02400
C 	C 	0.42694 0.21781 0.69287 -0.04400
N 	N 	0.29147 0.12387 0.69377 -0.20200
H 	H 	0.23514 0.10028 0.70204 0.05900
N 	N 	0.11456 0.60281 0.68730 -0.20200
O 	O 	0.74788 0.19865 0.70130 -0.41200
O 	O 	0.61633 0.25571 0.69942 -0.41000
O 	O 	0.94127 0.44296 0.70664 -0.37800
H 	H 	0.75433 0.45073 0.69920 0.15700
C 	C 	0.82415 0.20724 0.69786 0.27200
C 	C 	0.80410 0.06383 0.70636 -0.05100
C 	C 	0.85488 0.14523 0.70768 -0.09000
H 	H 	0.71965 0.91032 0.70782 0.08500
C 	C 	0.35393 0.18285 0.70525 0.09000
C 	C 	0.49204 0.27843 0.70448 -0.09600
H 	H 	0.17522 0.74757 0.70829 0.03300
O 	O 	0.90644 0.55664 0.70881 -0.41600
C 	C 	0.95997 0.52111 0.71165 0.31100
C 	C 	0.93325 0.16590 0.71866 0.09900
C 	C 	0.82830 0.00364 0.71689 0.09700
N 	N 	0.77759 0.92552 0.71566 -0.19000
H 	H 	0.79607 0.87902 0.72175 0.09700
C 	C 	0.09749 0.62268 0.71040 0.10500
C 	C 	0.95975 0.10444 0.72691 -0.01500
C 	C 	0.90556 0.02496 0.72829 -0.13500
N 	N 	0.98047 0.24398 0.72316 -0.18800
H 	H 	0.95509 0.28821 0.72584 0.10100
H 	H 	0.04193 0.25911 0.72735 0.07800
C 	C 	0.13640 0.70111 0.72001 -0.04800
H 	H 	0.13277 0.00582 0.73808 0.12600
C 	C 	0.34672 0.20840 0.72972 -0.08800
C 	C 	0.48094 0.31129 0.72764 0.11000
H 	H 	0.59659 0.40097 0.73016 0.09200
O 	O 	0.06116 0.82416 0.74656 -0.38100
C 	C 	0.92394 0.97032 0.74585 0.32700
C 	C 	0.12595 0.80467 0.74950 0.27800
C 	C 	0.29077 0.15240 0.74672 0.27300
O 	O 	0.98150 0.94228 0.74117 -0.38100
C 	C 	0.40708 0.27711 0.73972 -0.04400
N 	N 	0.54122 0.37380 0.73866 -0.20000
C 	C 	0.11887 0.72108 0.74393 -0.09400
O 	O 	0.14126 0.99600 0.75577 -0.67800
C 	C 	0.59539 0.99913 0.99781 0.08100
Ni	Ni	0.04250 0.90893 0.76919 1.09300
O 	O 	0.31362 0.09535 0.75654 -0.41900
O 	O 	0.88795 0.95626 0.76720 -0.39100
O 	O 	0.23438 0.17426 0.75740 -0.38200
O 	O 	0.18856 0.85125 0.76295 -0.41300
Ni	Ni	0.24206 0.97645 0.75924 1.07200
C 	C 	0.07553 0.65852 0.75989 0.11100
H 	H 	0.99447 0.53484 0.76133 0.05400
O 	O 	0.93700 0.82531 0.78146 -0.37300
H 	H 	0.39901 0.30033 0.75777 0.04700
H 	H 	0.53279 0.39646 0.75597 0.08000
H 	H 	0.04982 0.30848 0.77106 0.09200
H 	H 	0.98386 0.36412 0.77558 0.09300
Ni	Ni	0.14310 0.09191 0.77604 1.09000
O 	O 	0.98176 0.11920 0.78541 -0.41200
N 	N 	0.07050 0.67324 0.78448 -0.20100
O 	O 	0.05612 0.99974 0.79345 -0.69200
O 	O 	0.11610 0.18283 0.79367 -0.37400
Ni	Ni	0.94902 0.00408 0.79954 1.05800
C 	C 	0.04091 0.17903 0.79586 0.27400
C 	C 	0.90962 0.82575 0.80417 0.29000
H 	H 	0.10364 0.72925 0.79252 0.08800
H 	H 	0.74952 0.74799 0.80521 0.04600
O 	O 	0.24916 0.98712 0.79676 -0.39300
C 	C 	0.99209 0.29229 0.80530 0.13100
C 	C 	0.78265 0.71497 0.81444 -0.03900
H 	H 	0.62667 0.64088 0.81412 0.07900
O 	O 	0.22215 0.10063 0.80537 -0.37800
H 	H 	0.07832 0.98705 0.80917 0.15400
C 	C 	0.26945 0.05829 0.80746 0.27100
O 	O 	0.91025 0.89325 0.81527 -0.40300
H 	H 	0.91667 0.36114 0.81411 0.05300
C 	C 	0.86722 0.74800 0.81598 -0.08800
N 	N 	0.65852 0.60790 0.82241 -0.19900
C 	C 	0.94485 0.32021 0.82110 -0.05100
N 	N 	0.39837 0.21336 0.80282 -0.20000
H 	H 	0.34278 0.20897 0.79513 0.10900
H 	H 	0.44853 0.26364 0.79841 0.08000
C 	C 	0.91072 0.70451 0.82767 0.10200
C 	C 	0.74045 0.63920 0.82451 0.09600
N 	N 	0.99243 0.73689 0.83060 -0.18500
H 	H 	0.62585 0.54990 0.82838 0.06500
C 	C 	0.34096 0.08708 0.82431 -0.07900
C 	C 	0.40509 0.16099 0.82017 0.09700
C 	C 	0.86864 0.62798 0.83718 -0.03800
C 	C 	0.78394 0.59602 0.83638 -0.08800
O 	O 	0.74984 0.45616 0.84568 -0.39200
C 	C 	0.47641 0.18108 0.83446 -0.03900
H 	H 	0.52576 0.23698 0.83110 0.02700
C 	C 	0.74231 0.52523 0.85155 0.29200
C 	C 	0.92850 0.29033 0.84518 -0.08700
H 	H 	0.04235 0.17014 0.84564 0.02300
C 	C 	0.34863 0.03713 0.84344 -0.08700
H 	H 	0.30004 0.98045 0.84653 0.07100
H 	H 	0.90184 0.59499 0.84639 0.05700
O 	O 	0.79147 0.22600 0.85718 -0.41400
O 	O 	0.84790 0.36294 0.86156 -0.37000
O 	O 	0.62441 0.16951 0.86358 -0.41800
C 	C 	0.85546 0.29263 0.85735 0.28000
C 	C 	0.96994 0.24174 0.85480 0.10000
C 	C 	0.48279 0.13281 0.85407 -0.10800
C 	C 	0.41904 0.05929 0.85842 0.12200
Ni	Ni	0.74013 0.37192 0.87213 1.09500
H 	H 	0.58626 0.33164 0.86961 0.15500
N 	N 	0.42585 0.00883 0.87643 -0.21700
O 	O 	0.72280 0.53826 0.87431 -0.40700
C 	C 	0.55275 0.16365 0.87116 0.29800
H 	H 	0.37774 0.95565 0.87991 0.10200
H 	H 	0.47953 0.02051 0.88661 0.09700
O 	O 	0.62685 0.35629 0.88294 -0.69800
Ni	Ni	0.71841 0.18385 0.88767 1.06200
N 	N 	0.96463 0.22173 0.87915 -0.20200
O 	O 	0.54232 0.18307 0.89403 -0.37500
Ni	Ni	0.62716 0.46346 0.89347 1.06500
O 	O 	0.80345 0.46183 0.89725 -0.37200
H 	H 	0.99293 0.18338 0.88600 0.07300
H 	H 	0.93486 0.24643 0.89165 0.06100
O 	O 	0.72742 0.29111 0.89973 -0.71000
H 	H 	0.77000 0.31049 0.91282 0.15300
Ni	Ni	0.61996 0.28257 0.91275 1.09900
O 	O 	0.52548 0.41993 0.91568 -0.40300
O 	O 	0.64497 0.11732 0.91481 -0.41300
C 	C 	0.77709 0.47039 0.91954 0.29500
O 	O 	0.51928 0.29526 0.92703 -0.37200
O 	O 	0.70176 0.46453 0.92275 -0.42700
C 	C 	0.51730 0.36604 0.93302 0.28900
C 	C 	0.63982 0.14403 0.93760 0.28700
C 	C 	0.83395 0.50101 0.93960 -0.11400
O 	O 	0.62177 0.20920 0.94113 -0.38400
H 	H 	0.42994 0.46122 0.94478 0.03100
C 	C 	0.87909 0.52684 0.95710 0.05100
C 	C 	0.93063 0.62782 0.99058 -0.01700
C 	C 	0.92948 0.55665 0.97877 -0.02300
C 	C 	0.96739 0.50860 0.99015 -0.00400
H 	H 	0.90197 0.66564 0.98177 0.03800
H 	H 	0.96720 0.45378 0.98105 0.02900
C 	C 	0.53036 0.92564 0.99740 -0.07300
C 	C 	0.61433 0.04688 0.97576 -0.01300
C 	C 	0.62761 0.08953 0.95787 -0.08600
H 	H 	0.50039 0.90001 0.97998 0.05400
C 	C 	0.48364 0.37561 0.95725 -0.08700
C 	C 	0.43869 0.42631 0.96018 0.01400
C 	C 	0.40385 0.43106 0.98305 -0.06600
C 	C 	0.49400 0.33064 0.97746 0.01200
H 	H 	0.36971 0.47063 0.98523 0.04400
H 	H 	0.52934 0.29209 0.97555 0.03600
