data_crystal

_cell_length_a 26.18330
_cell_length_b 26.50062
_cell_length_c 35.00652
_cell_angle_alpha 95.49247
_cell_angle_beta  95.49110
_cell_angle_gamma 125.82217

_symmetry_space_group_name_	'P 1'
_symmetry_space_group_name_H-M	'P 1'

loop_
_symmetry_equiv_pos_as_xyz
  x,y,z

loop_
_atom_site_label
_atom_site_type_symbol
_atom_site_fract_x
_atom_site_fract_y
_atom_site_fract_z
_atom_site_charge
C 	C 	0.99021 0.05940 0.99319 0.14000
C 	C 	0.95454 0.99362 0.99049 -0.09300
C 	C 	0.98409 0.96381 0.98593 0.14200
C 	C 	0.04935 0.99978 0.98394 -0.10900
C 	C 	0.08531 0.06560 0.98688 0.13800
C 	C 	0.05572 0.09545 0.99154 -0.10300
H 	H 	0.90397 0.96575 0.99195 0.10600
H 	H 	0.07228 0.97672 0.98061 0.09900
H 	H 	0.08343 0.14635 0.99371 0.10800
C 	C 	0.90585 0.96600 0.45444 0.14100
C 	C 	0.97278 0.00280 0.45833 -0.10400
C 	C 	0.00385 0.97423 0.46105 0.14200
C 	C 	0.96805 0.90888 0.46004 -0.09800
C 	C 	0.90125 0.87192 0.45615 0.14000
C 	C 	0.87008 0.90048 0.45348 -0.10800
H 	H 	0.00053 0.05345 0.45922 0.10400
H 	H 	0.99213 0.88680 0.46223 0.10700
H 	H 	0.81836 0.87191 0.45055 0.10200
Cu	Cu	0.66549 0.27590 0.01204 0.93600
Cu	Cu	0.70878 0.26749 0.92809 0.88600
Cu	Cu	0.70542 0.37345 0.95919 0.90300
Cu	Cu	0.67870 0.40059 0.03684 0.90600
C 	C 	0.68930 0.32804 0.09318 0.28500
O 	O 	0.57455 0.24691 0.01260 -0.31700
C 	C 	0.67661 0.32307 0.87414 0.28600
O 	O 	0.72337 0.37423 0.01375 -0.63800
O 	O 	0.65578 0.27994 0.95596 -0.63700
O 	O 	0.69903 0.22495 0.00984 -0.32300
O 	O 	0.76931 0.28432 0.97137 -0.42800
O 	O 	0.66390 0.35646 0.08232 -0.36300
O 	O 	0.75757 0.46470 0.96600 -0.37500
C 	C 	0.75031 0.50169 0.98910 0.34600
C 	C 	0.55332 0.27631 0.99719 0.32600
O 	O 	0.59439 0.33464 0.99194 -0.38200
O 	O 	0.72371 0.48467 0.02033 -0.35100
O 	O 	0.68894 0.28778 0.06754 -0.34100
C 	C 	0.75155 0.24513 0.99599 0.33300
O 	O 	0.70176 0.37275 0.90241 -0.36600
O 	O 	0.66835 0.27099 0.88119 -0.39500
H 	H 	0.76954 0.39928 0.02524 0.17900
H 	H 	0.61099 0.25572 0.94177 0.19700
Cu	Cu	0.70266 0.30153 0.44979 0.93400
Cu	Cu	0.71710 0.26663 0.53561 0.88600
Cu	Cu	0.60797 0.26792 0.50525 0.90600
Cu	Cu	0.57501 0.28778 0.42505 0.90500
C 	C 	0.65705 0.29040 0.36983 0.28500
O 	O 	0.73764 0.39217 0.44659 -0.33400
C 	C 	0.66418 0.30208 0.58983 0.28600
O 	O 	0.60363 0.24700 0.45060 -0.63700
O 	O 	0.70220 0.31623 0.50617 -0.63700
O 	O 	0.75082 0.26470 0.45144 -0.35800
O 	O 	0.69475 0.20178 0.49391 -0.39900
O 	O 	0.60183 0.27902 0.37464 -0.36200
O 	O 	0.51573 0.21607 0.50040 -0.36600
C 	C 	0.47719 0.21914 0.47516 0.34200
C 	C 	0.70630 0.41486 0.45553 0.33400
O 	O 	0.64883 0.37736 0.46352 -0.37600
O 	O 	0.49952 0.25907 0.45059 -0.34800
O 	O 	0.68679 0.27656 0.39436 -0.34400
C 	C 	0.73062 0.21454 0.46727 0.34100
O 	O 	0.61229 0.27492 0.56243 -0.36300
O 	O 	0.71668 0.31077 0.58177 -0.39300
H 	H 	0.57823 0.20092 0.44046 0.18700
H 	H 	0.72703 0.36136 0.51873 0.19800
C 	C 	0.66542 0.32886 0.83325 -0.05800
C 	C 	0.70978 0.38494 0.82038 0.01000
C 	C 	0.70571 0.38681 0.78048 -0.04100
C 	C 	0.65850 0.33146 0.75277 0.01300
C 	C 	0.60889 0.27792 0.76614 0.02000
C 	C 	0.61338 0.27641 0.80626 -0.01200
C 	C 	0.55568 0.22642 0.73932 -0.03000
C 	C 	0.55265 0.22619 0.69932 -0.03000
C 	C 	0.60462 0.27545 0.68528 0.02200
C 	C 	0.65894 0.32814 0.71192 0.01300
C 	C 	0.71427 0.37250 0.69739 -0.04000
C 	C 	0.71434 0.36580 0.65731 0.01000
C 	C 	0.66021 0.31426 0.63105 -0.05600
C 	C 	0.60480 0.27027 0.64498 -0.01300
H 	H 	0.74826 0.42678 0.84122 0.05800
H 	H 	0.73762 0.43168 0.77156 0.06200
H 	H 	0.57719 0.23412 0.81640 0.05900
H 	H 	0.51647 0.18632 0.74949 0.06100
H 	H 	0.51087 0.18608 0.67907 0.06200
H 	H 	0.75859 0.40967 0.71695 0.05800
H 	H 	0.75752 0.39965 0.64680 0.05600
H 	H 	0.56323 0.22985 0.62472 0.06200
C 	C 	0.70293 0.32908 0.13527 -0.05300
C 	C 	0.72760 0.38415 0.16247 0.00900
C 	C 	0.73046 0.38280 0.20237 -0.04000
C 	C 	0.70567 0.32521 0.21550 0.01300
C 	C 	0.68902 0.27208 0.18865 0.02400
C 	C 	0.68658 0.27389 0.14853 -0.01100
C 	C 	0.67463 0.21775 0.20210 -0.03000
C 	C 	0.67408 0.21469 0.24165 -0.02800
C 	C 	0.68374 0.26415 0.26802 0.02100
C 	C 	0.69783 0.31933 0.25492 0.01400
C 	C 	0.69761 0.36405 0.28028 -0.03900
C 	C 	0.68743 0.35574 0.31834 0.01100
C 	C 	0.67585 0.30238 0.33161 -0.05300
C 	C 	0.67514 0.25721 0.30672 -0.00900
H 	H 	0.74427 0.42806 0.15264 0.04600
H 	H 	0.75411 0.42687 0.22282 0.06000
H 	H 	0.67003 0.23192 0.12770 0.07100
H 	H 	0.66393 0.17774 0.18187 0.06500
H 	H 	0.66344 0.17250 0.25153 0.06200
H 	H 	0.70098 0.40291 0.27006 0.06000
H 	H 	0.68645 0.38996 0.33720 0.04700
H 	H 	0.66460 0.21512 0.31679 0.06300
C 	C 	0.82345 0.69920 0.41982 -0.11800
C 	C 	0.81091 0.67546 0.45459 0.00400
C 	C 	0.82342 0.71537 0.48926 0.31300
C 	C 	0.84993 0.77902 0.48929 -0.09200
C 	C 	0.86419 0.80320 0.45474 -0.07700
C 	C 	0.85001 0.76284 0.41985 0.34400
C 	C 	0.78443 0.60876 0.45459 0.02200
F 	F 	0.81047 0.69260 0.52295 -0.41000
H 	H 	0.86095 0.80996 0.51633 0.10700
F 	F 	0.86353 0.78575 0.38625 -0.40600
H 	H 	0.81336 0.66850 0.39289 0.12600
C 	C 	0.71934 0.56049 0.43950 0.29300
C 	C 	0.69426 0.49726 0.43953 -0.05400
C 	C 	0.73395 0.48161 0.45464 -0.14400
C 	C 	0.79930 0.52997 0.46953 0.37500
C 	C 	0.82436 0.59331 0.46948 -0.13900
F 	F 	0.68033 0.57493 0.42501 -0.40700
H 	H 	0.64393 0.46032 0.42770 0.09200
F 	F 	0.83810 0.51580 0.48489 -0.43300
H 	H 	0.87471 0.63041 0.48115 0.13000
C 	C 	0.73165 0.07238 0.44995 -0.13800
C 	C 	0.79683 0.10156 0.44989 0.02100
C 	C 	0.83896 0.16733 0.45169 0.29000
C 	C 	0.81647 0.20387 0.45524 -0.05400
C 	C 	0.75190 0.17510 0.45735 -0.14600
C 	C 	0.70919 0.10890 0.45368 0.37500
C 	C 	0.82153 0.06378 0.45025 0.00200
F 	F 	0.90208 0.19606 0.45139 -0.41000
H 	H 	0.84975 0.25481 0.45788 0.10000
F 	F 	0.64609 0.08006 0.45411 -0.43300
H 	H 	0.69866 0.02154 0.44792 0.13200
C 	C 	0.82508 0.03991 0.48376 0.31100
C 	C 	0.85085 0.00627 0.48461 -0.09800
C 	C 	0.87349 0.99644 0.45211 -0.07100
C 	C 	0.86881 0.01922 0.41832 0.34000
C 	C 	0.84284 0.05270 0.41742 -0.11400
F 	F 	0.80482 0.05051 0.51576 -0.41700
H 	H 	0.85442 0.98894 0.51079 0.10800
F 	F 	0.89002 0.00945 0.38656 -0.40900
H 	H 	0.83983 0.07055 0.39137 0.13000
C 	C 	0.16757 0.04055 0.43799 -0.11800
C 	C 	0.20736 0.08007 0.47369 0.00400
C 	C 	0.18028 0.08620 0.50490 0.31100
C 	C 	0.11379 0.05257 0.50045 -0.09200
C 	C 	0.07398 0.01262 0.46484 -0.07900
C 	C 	0.10113 0.00692 0.43355 0.34200
C 	C 	0.27744 0.11669 0.47780 0.02400
F 	F 	0.21838 0.12436 0.53956 -0.41100
H 	H 	0.09311 0.05696 0.52476 0.10500
F 	F 	0.06305 0.96871 0.39889 -0.40400
H 	H 	0.18822 0.03610 0.41367 0.12800
C 	C 	0.30656 0.08600 0.47954 0.29100
C 	C 	0.37241 0.12009 0.48007 -0.05400
C 	C 	0.40947 0.18490 0.47866 -0.14000
C 	C 	0.38065 0.21603 0.47848 0.37800
C 	C 	0.31489 0.18193 0.47793 -0.13900
F 	F 	0.27087 0.02303 0.48009 -0.41000
H 	H 	0.39429 0.09582 0.48053 0.09700
F 	F 	0.41641 0.27929 0.47888 -0.42200
H 	H 	0.29280 0.20599 0.47699 0.13500
C 	C 	0.89824 0.80472 0.01672 -0.12500
C 	C 	0.87934 0.76423 0.98094 0.00100
C 	C 	0.89394 0.78932 0.94665 0.32200
C 	C 	0.92784 0.85456 0.94830 -0.09200
C 	C 	0.94704 0.89504 0.98414 -0.07800
C 	C 	0.93195 0.86988 0.01835 0.34500
C 	C 	0.84446 0.69569 0.97956 0.02400
F 	F 	0.87516 0.75047 0.91179 -0.40300
H 	H 	0.93927 0.87370 0.92179 0.11300
F 	F 	0.95061 0.90872 0.05320 -0.41700
H 	H 	0.88711 0.78565 0.04329 0.12300
C 	C 	0.87544 0.66739 0.97402 0.29900
C 	C 	0.84380 0.60336 0.97581 -0.05300
C 	C 	0.78121 0.56727 0.98348 -0.14100
C 	C 	0.74963 0.59522 0.98790 0.37700
C 	C 	0.78121 0.65916 0.98594 -0.14800
F 	F 	0.93677 0.70239 0.96797 -0.40200
H 	H 	0.86859 0.58229 0.97238 0.10000
F 	F 	0.68840 0.56040 0.99413 -0.43000
H 	H 	0.75686 0.68059 0.98991 0.12800
C 	C 	0.79076 0.13062 0.00774 -0.14700
C 	C 	0.85739 0.17027 0.00982 0.02200
C 	C 	0.88976 0.23566 0.01207 0.29900
C 	C 	0.85529 0.26064 0.01014 -0.05700
C 	C 	0.78816 0.22051 0.00569 -0.14300
C 	C 	0.75616 0.15552 0.00569 0.37100
C 	C 	0.89207 0.14251 0.00568 0.00500
F 	F 	0.95431 0.27458 0.01448 -0.40100
H 	H 	0.88054 0.31094 0.01078 0.09900
F 	F 	0.69131 0.11598 0.00150 -0.42900
H 	H 	0.76553 0.08016 0.00634 0.12600
C 	C 	0.93368 0.14979 0.03789 0.32300
C 	C 	0.96687 0.12380 0.03356 -0.08700
C 	C 	0.95853 0.09025 0.99710 -0.07700
C 	C 	0.91732 0.08343 0.96486 0.34100
C 	C 	0.88425 0.10947 0.96917 -0.13000
F 	F 	0.94151 0.18155 0.07337 -0.39800
H 	H 	0.99841 0.12901 0.05859 0.12400
F 	F 	0.90917 0.05135 0.92942 -0.42700
H 	H 	0.85257 0.10406 0.94414 0.11800
C 	C 	0.37296 0.15390 0.97880 -0.13600
C 	C 	0.35311 0.19255 0.98503 0.02100
C 	C 	0.39876 0.25869 0.99300 0.29300
C 	C 	0.46391 0.28590 0.99592 -0.05900
C 	C 	0.48414 0.24730 0.99085 -0.13600
C 	C 	0.43813 0.18104 0.98149 0.37200
C 	C 	0.28488 0.16365 0.98495 0.00400
F 	F 	0.37999 0.29657 0.99838 -0.40700
H 	H 	0.49879 0.33700 0.00301 0.10400
F 	F 	0.45644 0.14301 0.97479 -0.42900
H 	H 	0.33791 0.10280 0.97231 0.13200
C 	C 	0.23953 0.13033 0.95003 0.31000
C 	C 	0.17446 0.10018 0.95051 -0.09100
C 	C 	0.15428 0.10324 0.98581 -0.07900
C 	C 	0.19979 0.13793 0.02056 0.34400
C 	C 	0.26482 0.16792 0.02010 -0.11500
F 	F 	0.25848 0.12674 0.91575 -0.41200
H 	H 	0.13958 0.07353 0.92358 0.10900
F 	F 	0.18077 0.14102 0.05489 -0.41700
H 	H 	0.29956 0.19364 0.04715 0.12900
