data_crystal

_cell_length_a 36.15965
_cell_length_b 36.89243
_cell_length_c 19.84933
_cell_angle_alpha 91.51500
_cell_angle_beta  90.86786
_cell_angle_gamma 90.06464

_symmetry_space_group_name_	'P 1'
_symmetry_space_group_name_H-M	'P 1'

loop_
_symmetry_equiv_pos_as_xyz
  x,y,z

loop_
_atom_site_label
_atom_site_type_symbol
_atom_site_fract_x
_atom_site_fract_y
_atom_site_fract_z
_atom_site_charge
Cd	Cd	0.03543 0.87391 0.26063 1.23700
Cd	Cd	0.00707 0.92432 0.40638 1.16500
O 	O 	0.06151 0.81431 0.28407 -0.32800
O 	O 	0.04818 0.82969 0.18086 -0.36100
C 	C 	0.05900 0.80424 0.22117 0.28000
O 	O 	0.00670 0.92369 0.21869 -0.38700
O 	O 	0.01781 0.95765 0.31525 -0.43700
C 	C 	0.00152 0.95365 0.25590 0.24500
C 	C 	0.96680 0.85710 0.32147 0.29700
O 	O 	0.06300 0.89897 0.37483 -0.45500
O 	O 	0.96920 0.84186 0.26167 -0.31000
O 	O 	0.99665 0.87297 0.34365 -0.55000
C 	C 	0.08834 0.91554 0.34153 0.29100
O 	O 	0.08944 0.90725 0.27716 -0.36100
Cd	Cd	0.89684 0.87587 0.01225 1.23800
Cd	Cd	0.90187 0.92508 0.86098 1.16700
O 	O 	0.93767 0.82321 0.01373 -0.32200
O 	O 	0.90350 0.83730 0.10090 -0.38000
C 	C 	0.92661 0.81452 0.07291 0.29100
O 	O 	0.86496 0.92783 0.03603 -0.40600
O 	O 	0.85236 0.93720 0.92466 -0.45100
C 	C 	0.85424 0.94952 0.98729 0.22900
C 	C 	0.95823 0.92168 0.99083 0.28300
O 	O 	0.88619 0.86562 0.88170 -0.45800
O 	O 	0.95702 0.91330 0.05438 -0.31000
O 	O 	0.93468 0.90531 0.95132 -0.55500
C 	C 	0.85334 0.85350 0.89447 0.29700
O 	O 	0.84605 0.84976 0.95809 -0.38300
C 	C 	0.93331 0.67397 0.99850 0.09600
N 	N 	0.92125 0.64056 0.01551 -0.12800
C 	C 	0.92144 0.61279 0.96910 0.11600
N 	N 	0.93293 0.61867 0.90547 -0.14200
C 	C 	0.94521 0.65192 0.88854 0.12400
N 	N 	0.94519 0.67959 0.93495 -0.14000
C 	C 	0.03190 0.66634 0.29623 0.12300
N 	N 	0.03764 0.63129 0.27659 -0.14500
C 	C 	0.02972 0.60418 0.31913 0.12600
N 	N 	0.01768 0.61224 0.38221 -0.14400
C 	C 	0.01243 0.64726 0.40228 0.12400
N 	N 	0.01958 0.67430 0.35930 -0.14200
Cd	Cd	0.74019 0.94371 0.70434 1.23800
Cd	Cd	0.75709 0.94678 0.88137 1.16400
O 	O 	0.68074 0.91752 0.66797 -0.32600
O 	O 	0.71604 0.94545 0.59721 -0.35700
C 	C 	0.68430 0.92992 0.60793 0.28200
O 	O 	0.79336 0.97645 0.71709 -0.40000
O 	O 	0.80837 0.95171 0.81869 -0.44400
C 	C 	0.81440 0.97583 0.77241 0.24700
C 	C 	0.70595 0.99832 0.78587 0.29200
O 	O 	0.74401 0.89978 0.80500 -0.45700
O 	O 	0.70334 0.00579 0.72210 -0.31200
O 	O 	0.71910 0.96663 0.79832 -0.55200
C 	C 	0.76878 0.88111 0.77260 0.29200
O 	O 	0.77348 0.89011 0.71003 -0.36200
Cd	Cd	0.81769 0.95278 0.38867 1.23700
Cd	Cd	0.88217 0.94871 0.25548 1.16900
O 	O 	0.76229 0.91476 0.37328 -0.32700
O 	O 	0.77127 0.94820 0.46479 -0.36500
C 	C 	0.74872 0.92748 0.42919 0.28400
O 	O 	0.86768 0.98275 0.43263 -0.39800
O 	O 	0.89052 0.99536 0.32915 -0.45400
C 	C 	0.89558 0.99223 0.39443 0.24000
C 	C 	0.86584 0.89254 0.37517 0.29700
O 	O 	0.82059 0.96573 0.25884 -0.45400
O 	O 	0.85088 0.89316 0.43482 -0.31000
O 	O 	0.85262 0.91547 0.33328 -0.54900
C 	C 	0.80763 0.99792 0.27255 0.28700
O 	O 	0.79733 0.00366 0.33457 -0.37500
C 	C 	0.55084 0.96968 0.63796 0.12300
N 	N 	0.52068 0.99088 0.62748 -0.14700
C 	C 	0.49739 0.99837 0.67917 0.12200
N 	N 	0.50465 0.98520 0.74117 -0.14400
C 	C 	0.53457 0.96383 0.75144 0.12700
N 	N 	0.55758 0.95613 0.69984 -0.14100
C 	C 	0.60041 0.94888 0.35114 0.12100
N 	N 	0.56879 0.95859 0.38311 -0.14300
C 	C 	0.53642 0.96081 0.34754 0.12500
N 	N 	0.53602 0.95350 0.28015 -0.14500
C 	C 	0.56777 0.94517 0.24782 0.12700
N 	N 	0.59996 0.94286 0.28338 -0.14300
Cd	Cd	0.91707 0.12224 0.16117 1.22900
Cd	Cd	0.89818 0.08913 0.32424 1.16800
O 	O 	0.89065 0.18186 0.14092 -0.33000
O 	O 	0.93160 0.15836 0.07298 -0.38100
C 	C 	0.91331 0.18727 0.09227 0.29700
O 	O 	0.95083 0.07021 0.16720 -0.43900
O 	O 	0.91277 0.04632 0.24607 -0.43700
C 	C 	0.94341 0.04484 0.21130 0.25300
C 	C 	0.95944 0.14836 0.27461 0.29900
O 	O 	0.86074 0.10837 0.23642 -0.45700
O 	O 	0.97456 0.15720 0.21819 -0.31900
O 	O 	0.92716 0.13344 0.26835 -0.55100
C 	C 	0.84754 0.08717 0.18860 0.30100
O 	O 	0.86476 0.08851 0.13123 -0.38500
Cd	Cd	0.77536 0.12741 0.99072 1.23700
Cd	Cd	0.80671 0.08289 0.84105 1.16800
O 	O 	0.73503 0.17872 0.96714 -0.33700
O 	O 	0.75039 0.16583 0.07051 -0.36000
C 	C 	0.73629 0.18959 0.02970 0.30300
O 	O 	0.80107 0.07485 0.02768 -0.35300
O 	O 	0.83806 0.06992 0.93557 -0.44400
C 	C 	0.82292 0.05523 0.98795 0.22000
C 	C 	0.72634 0.08202 0.91493 0.29800
O 	O 	0.81418 0.14152 0.88327 -0.45300
O 	O 	0.71276 0.08873 0.97470 -0.31100
O 	O 	0.75594 0.09953 0.90068 -0.55200
C 	C 	0.84047 0.15328 0.92367 0.29700
O 	O 	0.83231 0.15521 0.98734 -0.37000
C 	C 	0.79349 0.30899 0.92741 0.12000
N 	N 	0.80383 0.34303 0.94748 -0.14600
C 	C 	0.82574 0.36305 0.90775 0.11900
N 	N 	0.83632 0.34946 0.84684 -0.14300
C 	C 	0.82615 0.31544 0.82633 0.12400
N 	N 	0.80468 0.29512 0.86670 -0.14100
C 	C 	0.94345 0.29881 0.25279 0.12200
N 	N 	0.96544 0.32860 0.25763 -0.14300
C 	C 	0.97037 0.34645 0.31781 0.12600
N 	N 	0.95283 0.33457 0.37310 -0.14300
C 	C 	0.92963 0.30564 0.36823 0.12600
N 	N 	0.92474 0.28780 0.30776 -0.14200
Cd	Cd	0.98876 0.06951 0.82377 1.23700
Cd	Cd	0.93346 0.05765 0.96854 1.16500
O 	O 	0.04988 0.09517 0.84933 -0.33200
O 	O 	0.03478 0.07626 0.74644 -0.36700
C 	C 	0.05960 0.09079 0.78719 0.28600
O 	O 	0.93848 0.03777 0.78379 -0.39900
O 	O 	0.90156 0.05751 0.87016 -0.44300
C 	C 	0.90718 0.03581 0.81771 0.24300
C 	C 	0.00268 0.01003 0.90891 0.29800
O 	O 	0.96092 0.10802 0.92309 -0.45300
O 	O 	0.01967 0.00581 0.85165 -0.32200
O 	O 	0.98705 0.04117 0.91828 -0.55200
C 	C 	0.94557 0.12875 0.87876 0.29600
O 	O 	0.95611 0.12312 0.81679 -0.36600
Cd	Cd	0.06909 0.07149 0.49865 1.23800
Cd	Cd	0.04756 0.05482 0.32479 1.16800
O 	O 	0.12158 0.11250 0.51754 -0.32400
O 	O 	0.09215 0.08997 0.60244 -0.35800
C 	C 	0.12063 0.10827 0.58206 0.28200
O 	O 	0.01341 0.04257 0.50001 -0.39300
O 	O 	0.02186 0.01638 0.39583 -0.45400
C 	C 	0.99972 0.02639 0.44465 0.24900
C 	C 	0.03085 0.12451 0.42431 0.29800
O 	O 	0.09995 0.04377 0.38935 -0.45600
O 	O 	0.02869 0.13206 0.48888 -0.30700
O 	O 	0.05285 0.09840 0.40769 -0.54900
C 	C 	0.10698 0.01480 0.42328 0.30000
O 	O 	0.10036 0.01737 0.48759 -0.37800
C 	C 	0.20831 0.11828 0.83541 0.12100
N 	N 	0.21009 0.12819 0.90183 -0.14200
C 	C 	0.24346 0.13373 0.93288 0.10900
N 	N 	0.27493 0.12881 0.89736 -0.14500
C 	C 	0.27320 0.11673 0.83218 0.12600
N 	N 	0.23986 0.11197 0.80098 -0.14200
C 	C 	0.26037 0.11673 0.54534 0.12000
N 	N 	0.29299 0.09882 0.55288 -0.14300
C 	C 	0.31660 0.09576 0.50032 0.12500
N 	N 	0.30661 0.10872 0.43937 -0.14500
C 	C 	0.27370 0.12569 0.43115 0.12600
N 	N 	0.25123 0.13084 0.48471 -0.14100
C 	C 	0.26104 0.13534 0.36297 -0.04900
C 	C 	0.23318 0.11485 0.32805 0.09900
C 	C 	0.22679 0.12044 0.25911 -0.08600
C 	C 	0.24880 0.14462 0.22395 -0.00600
C 	C 	0.27467 0.16692 0.25974 0.07000
C 	C 	0.28043 0.16210 0.32908 -0.05400
N 	N 	0.21340 0.08903 0.35958 -0.19900
H 	H 	0.20627 0.10412 0.23178 0.05000
C 	C 	0.24837 0.14245 0.14922 -0.00800
N 	N 	0.29451 0.19246 0.22770 -0.19400
H 	H 	0.30115 0.17827 0.35619 0.04600
C 	C 	0.22539 0.16589 0.11311 -0.08400
C 	C 	0.22490 0.16497 0.04221 0.09500
C 	C 	0.24580 0.13823 0.00711 -0.03100
C 	C 	0.26853 0.11463 0.04342 -0.05900
C 	C 	0.27046 0.11678 0.11403 0.07400
H 	H 	0.20875 0.18571 0.14023 0.05200
N 	N 	0.20555 0.19057 0.00846 -0.18900
H 	H 	0.28462 0.09426 0.01658 0.05400
N 	N 	0.29351 0.09410 0.14766 -0.19500
H 	H 	0.18886 0.20909 0.03465 0.08500
H 	H 	0.20842 0.19368 0.95669 0.08100
H 	H 	0.30938 0.07500 0.12118 0.08500
H 	H 	0.29630 0.09539 0.20007 0.09000
H 	H 	0.31426 0.20815 0.25417 0.08300
H 	H 	0.29005 0.19753 0.17674 0.08800
H 	H 	0.21849 0.08281 0.40981 0.09800
H 	H 	0.19274 0.07440 0.33338 0.08400
C 	C 	0.17372 0.14234 0.62909 -0.03000
C 	C 	0.15584 0.10873 0.62017 -0.09300
C 	C 	0.17789 0.07697 0.61945 0.11800
C 	C 	0.21600 0.07992 0.60771 -0.07100
C 	C 	0.23166 0.11398 0.59693 -0.03300
C 	C 	0.21185 0.14519 0.61734 0.08500
N 	N 	0.22895 0.17793 0.62302 -0.19500
H 	H 	0.15738 0.16670 0.63656 0.04400
H 	H 	0.23229 0.05564 0.59895 0.05300
N 	N 	0.16224 0.04367 0.62430 -0.20300
H 	H 	0.21401 0.20122 0.63629 0.08300
H 	H 	0.25749 0.18020 0.61668 0.08500
H 	H 	0.13417 0.04074 0.63413 0.09800
H 	H 	0.17844 0.02027 0.62065 0.08500
C 	C 	0.11137 0.13189 0.76751 -0.02900
C 	C 	0.09813 0.09616 0.76810 -0.09000
C 	C 	0.12359 0.06740 0.77495 0.12100
C 	C 	0.16055 0.07516 0.79256 -0.07100
C 	C 	0.17229 0.11111 0.80261 -0.03200
C 	C 	0.14815 0.13979 0.78636 0.08100
N 	N 	0.16010 0.17478 0.78830 -0.19600
H 	H 	0.09220 0.15388 0.75848 0.04400
H 	H 	0.17977 0.05316 0.80124 0.05200
N 	N 	0.11236 0.03235 0.76717 -0.20300
H 	H 	0.14184 0.19588 0.77764 0.08100
H 	H 	0.18784 0.18127 0.79784 0.08700
H 	H 	0.08562 0.02590 0.75021 0.09700
H 	H 	0.13092 0.01113 0.77509 0.08300
C 	C 	0.83963 0.30031 0.76118 -0.05000
C 	C 	0.87765 0.30208 0.74533 0.10000
C 	C 	0.88854 0.29826 0.67781 -0.08600
C 	C 	0.86247 0.29020 0.62654 -0.00600
C 	C 	0.82521 0.28338 0.64376 0.06600
C 	C 	0.81396 0.28934 0.71086 -0.05500
N 	N 	0.90380 0.30681 0.79475 -0.19800
H 	H 	0.91735 0.30183 0.66510 0.05500
C 	C 	0.87416 0.29125 0.55481 -0.00700
N 	N 	0.80012 0.27176 0.59623 -0.19400
H 	H 	0.78501 0.28667 0.72330 0.04700
C 	C 	0.89636 0.26316 0.52864 -0.08700
C 	C 	0.91280 0.26589 0.46502 0.09600
C 	C 	0.90617 0.29705 0.42632 -0.04900
C 	C 	0.88147 0.32359 0.45013 -0.05400
C 	C 	0.86622 0.32162 0.51471 0.07000
H 	H 	0.90193 0.23966 0.55884 0.04900
N 	N 	0.93531 0.23885 0.44217 -0.20000
H 	H 	0.87589 0.34711 0.41996 0.04700
N 	N 	0.84490 0.34939 0.53842 -0.19400
H 	H 	0.94049 0.21626 0.47155 0.08100
H 	H 	0.94746 0.23966 0.39490 0.09400
H 	H 	0.83892 0.37145 0.50812 0.08200
H 	H 	0.83453 0.34978 0.58717 0.08900
H 	H 	0.77246 0.26788 0.60886 0.07900
H 	H 	0.80798 0.26550 0.54688 0.08300
H 	H 	0.89700 0.30567 0.84561 0.09100
H 	H 	0.93165 0.30977 0.78259 0.08500
C 	C 	0.87796 0.14889 0.90474 -0.08100
C 	C 	0.90930 0.14181 0.89111 -0.07600
C 	C 	0.71878 0.25220 0.00576 0.00800
C 	C 	0.74127 0.22887 0.04334 -0.11200
C 	C 	0.77674 0.24159 0.06318 0.12200
C 	C 	0.79359 0.26873 0.02578 -0.05900
C 	C 	0.77366 0.28582 0.97451 -0.04200
C 	C 	0.73508 0.27970 0.96813 0.06200
N 	N 	0.71381 0.29958 0.92581 -0.19200
H 	H 	0.68989 0.24537 0.99718 0.02700
H 	H 	0.82215 0.27611 0.03576 0.04900
N 	N 	0.79472 0.22758 0.11707 -0.20200
H 	H 	0.68551 0.29428 0.92031 0.08100
H 	H 	0.72495 0.32096 0.89923 0.08900
H 	H 	0.78100 0.21066 0.14988 0.10400
H 	H 	0.82181 0.23553 0.12925 0.09600
C 	C 	0.98202 0.14269 0.33275 -0.12200
C 	C 	0.00327 0.13593 0.37761 -0.11400
C 	C 	0.90596 0.25313 0.09270 -0.03000
C 	C 	0.93025 0.22352 0.08929 -0.10000
C 	C 	0.96575 0.22842 0.11855 0.12500
C 	C 	0.97049 0.25401 0.17177 -0.07200
C 	C 	0.94140 0.27751 0.18888 -0.03100
C 	C 	0.91018 0.27939 0.14514 0.08100
N 	N 	0.88439 0.30588 0.15333 -0.19600
H 	H 	0.88088 0.25249 0.06225 0.04400
H 	H 	0.99622 0.25504 0.20052 0.05500
N 	N 	0.99470 0.20792 0.09749 -0.19900
H 	H 	0.86104 0.30655 0.12177 0.08300
H 	H 	0.88781 0.32660 0.18975 0.09000
H 	H 	0.99227 0.19109 0.05450 0.10300
H 	H 	0.02046 0.21015 0.12183 0.08700
C 	C 	0.35108 0.07486 0.50689 -0.04800
C 	C 	0.38578 0.09134 0.49587 0.09700
C 	C 	0.41690 0.06945 0.48456 -0.08400
C 	C 	0.41318 0.03171 0.47725 -0.00500
C 	C 	0.37920 0.01513 0.49371 0.07300
C 	C 	0.34880 0.03705 0.51074 -0.05500
N 	N 	0.38918 0.12805 0.49440 -0.20000
H 	H 	0.44343 0.08198 0.47537 0.05400
C 	C 	0.44264 0.01096 0.44205 -0.00100
N 	N 	0.37521 0.97843 0.49136 -0.19600
H 	H 	0.32248 0.02452 0.52162 0.04700
C 	C 	0.46575 0.98797 0.47880 -0.09200
C 	C 	0.49342 0.96771 0.44640 0.10300
C 	C 	0.50292 0.97604 0.37965 -0.05000
C 	C 	0.48041 0.99987 0.34321 -0.06100
C 	C 	0.44912 0.01572 0.37266 0.07400
H 	H 	0.46067 0.98406 0.53151 0.06000
N 	N 	0.50813 0.93844 0.47711 -0.19800
H 	H 	0.48695 0.00575 0.29149 0.05400
N 	N 	0.42523 0.03501 0.33397 -0.19500
H 	H 	0.50097 0.93265 0.52650 0.08500
H 	H 	0.52404 0.91946 0.45056 0.09100
H 	H 	0.43111 0.03969 0.28354 0.08400
H 	H 	0.39986 0.04399 0.35240 0.09000
H 	H 	0.35002 0.96657 0.50366 0.07900
H 	H 	0.39689 0.96129 0.47765 0.08600
H 	H 	0.36691 0.14512 0.50517 0.08600
H 	H 	0.41467 0.13995 0.48427 0.08200
C 	C 	0.30700 0.10425 0.79851 -0.05100
C 	C 	0.32967 0.07721 0.82704 0.09900
C 	C 	0.36342 0.06844 0.79705 -0.08600
C 	C 	0.37323 0.08345 0.73570 -0.00600
C 	C 	0.35053 0.11037 0.70691 0.07200
C 	C 	0.31730 0.12017 0.73822 -0.05200
N 	N 	0.31831 0.05827 0.88093 -0.19900
H 	H 	0.38097 0.04793 0.81908 0.05400
C 	C 	0.40422 0.06684 0.69802 -0.00400
N 	N 	0.36114 0.12786 0.65101 -0.19400
H 	H 	0.29979 0.14075 0.71630 0.04800
C 	C 	0.39925 0.03186 0.67000 -0.08300
C 	C 	0.42969 0.00895 0.65980 0.10000
C 	C 	0.46589 0.02292 0.66985 -0.04900
C 	C 	0.47077 0.05981 0.68628 -0.05200
C 	C 	0.44035 0.08161 0.70348 0.06800
H 	H 	0.37146 0.02115 0.66307 0.05600
N 	N 	0.42397 0.97327 0.64373 -0.20100
H 	H 	0.49855 0.07074 0.69185 0.04700
N 	N 	0.44608 0.11610 0.72735 -0.19500
H 	H 	0.39711 0.96309 0.63750 0.08100
H 	H 	0.44601 0.95540 0.63650 0.08400
H 	H 	0.47289 0.12657 0.73208 0.08100
H 	H 	0.42410 0.13293 0.74096 0.08500
H 	H 	0.34400 0.14734 0.62951 0.08400
H 	H 	0.38713 0.12351 0.63025 0.09000
H 	H 	0.29107 0.05963 0.89742 0.08800
H 	H 	0.33616 0.03998 0.90413 0.08000
C 	C 	0.54439 0.95253 0.82004 -0.04800
C 	C 	0.51822 0.93529 0.86077 0.09500
C 	C 	0.52578 0.93178 0.92981 -0.08100
C 	C 	0.55963 0.94361 0.95791 -0.02500
C 	C 	0.58740 0.95704 0.91567 0.07100
C 	C 	0.57931 0.96182 0.84712 -0.05600
N 	N 	0.48631 0.92134 0.83366 -0.19800
H 	H 	0.50507 0.92027 0.96196 0.04700
C 	C 	0.56427 0.94493 0.03206 0.01400
N 	N 	0.62154 0.96590 0.94077 -0.19600
H 	H 	0.59984 0.97387 0.81528 0.05400
C 	C 	0.57452 0.91329 0.06518 -0.09400
C 	C 	0.57617 0.91271 0.13588 0.10200
C 	C 	0.56821 0.94476 0.17377 -0.05100
C 	C 	0.55904 0.97664 0.14050 -0.05300
C 	C 	0.55660 0.97702 0.07000 0.06600
H 	H 	0.58042 0.88882 0.03585 0.05600
N 	N 	0.58455 0.88121 0.16684 -0.20000
H 	H 	0.55319 0.00117 0.16975 0.05100
N 	N 	0.54657 0.00812 0.03917 -0.18300
H 	H 	0.59081 0.85786 0.13831 0.08300
H 	H 	0.58435 0.87933 0.21919 0.09100
H 	H 	0.54109 0.03165 0.06774 0.08700
H 	H 	0.54394 0.00933 0.98686 0.08200
H 	H 	0.64154 0.97676 0.90958 0.07000
H 	H 	0.62890 0.96126 0.99087 0.07200
H 	H 	0.48179 0.91982 0.78158 0.08800
H 	H 	0.46640 0.91011 0.86457 0.08000
C 	C 	0.81853 0.02785 0.23353 -0.08200
C 	C 	0.83021 0.05444 0.20765 -0.08100
C 	C 	0.93020 0.00509 0.42439 -0.11400
C 	C 	0.96122 0.01542 0.43961 -0.12000
C 	C 	0.69417 0.96778 0.43095 -0.02900
C 	C 	0.70842 0.93244 0.43355 -0.09000
C 	C 	0.68449 0.90259 0.42137 0.11900
C 	C 	0.64811 0.90858 0.39864 -0.07100
C 	C 	0.63498 0.94388 0.38975 -0.03200
C 	C 	0.65767 0.97384 0.40869 0.08000
N 	N 	0.64470 0.00837 0.40558 -0.19400
H 	H 	0.71216 0.99073 0.44233 0.04600
H 	H 	0.63025 0.88565 0.38620 0.05000
N 	N 	0.69646 0.86815 0.43078 -0.20200
H 	H 	0.66182 0.03032 0.41904 0.08300
H 	H 	0.61735 0.01377 0.39176 0.09400
H 	H 	0.72236 0.86311 0.45261 0.09400
H 	H 	0.67917 0.84606 0.41923 0.08400
C 	C 	0.87607 0.01459 0.79122 -0.12600
C 	C 	0.84816 0.99722 0.77782 -0.13700
C 	C 	0.70911 0.02686 0.83523 -0.12100
C 	C 	0.71494 0.05166 0.87414 -0.11300
C 	C 	0.64224 0.97755 0.56817 -0.03100
C 	C 	0.65083 0.94049 0.57056 -0.09200
C 	C 	0.62192 0.91497 0.56100 0.12000
C 	C 	0.58512 0.92663 0.56639 -0.06900
C 	C 	0.57764 0.96287 0.58416 -0.03300
C 	C 	0.60533 0.98893 0.57351 0.08400
N 	N 	0.59695 0.02477 0.57230 -0.19400
H 	H 	0.66431 0.99748 0.56904 0.05000
H 	H 	0.56308 0.90673 0.56746 0.04800
N 	N 	0.62943 0.87909 0.55232 -0.20100
H 	H 	0.61781 0.04412 0.56746 0.08500
H 	H 	0.56950 0.03350 0.57285 0.09400
H 	H 	0.65666 0.86980 0.54984 0.09300
H 	H 	0.60799 0.86018 0.54670 0.08400
C 	C 	0.99009 0.38164 0.32106 -0.04700
C 	C 	0.02166 0.38779 0.28147 0.09700
C 	C 	0.03371 0.42348 0.27215 -0.08500
C 	C 	0.01747 0.45253 0.30772 -0.01000
C 	C 	0.98889 0.44580 0.35379 0.07500
C 	C 	0.97490 0.41054 0.35881 -0.05600
N 	N 	0.04143 0.35961 0.25515 -0.19800
H 	H 	0.05639 0.42857 0.23854 0.05300
C 	C 	0.02870 0.49006 0.29319 -0.00400
N 	N 	0.97461 0.47308 0.39286 -0.19500
H 	H 	0.95144 0.40580 0.39083 0.05000
C 	C 	0.00574 0.51072 0.25163 -0.08900
C 	C 	0.00779 0.54872 0.25413 0.09900
C 	C 	0.03425 0.56605 0.29747 -0.05200
C 	C 	0.06074 0.54509 0.33094 -0.05300
C 	C 	0.05809 0.50713 0.32964 0.06800
H 	H 	0.98436 0.49733 0.22118 0.05700
N 	N 	0.98360 0.56831 0.21660 -0.19900
H 	H 	0.08200 0.55844 0.36176 0.04700
N 	N 	0.08307 0.48737 0.36504 -0.19400
H 	H 	0.96370 0.55520 0.18591 0.08800
H 	H 	0.98463 0.59656 0.21640 0.09400
H 	H 	0.10401 0.50029 0.39354 0.08200
H 	H 	0.08253 0.45908 0.36338 0.08600
H 	H 	0.95276 0.46803 0.42520 0.08300
H 	H 	0.98566 0.49924 0.39313 0.09100
H 	H 	0.03700 0.33310 0.27037 0.09100
H 	H 	0.06336 0.36434 0.22281 0.08400
C 	C 	0.83774 0.39971 0.93013 -0.03800
C 	C 	0.85887 0.40553 0.99025 0.06300
C 	C 	0.86984 0.44093 0.00927 -0.04400
C 	C 	0.86265 0.47004 0.96698 -0.03100
C 	C 	0.84228 0.46405 0.90608 0.07900
C 	C 	0.82921 0.42909 0.88933 -0.06400
N 	N 	0.87005 0.37727 0.02827 -0.18700
H 	H 	0.88563 0.44558 0.05559 0.04600
C 	C 	0.87958 0.50583 0.98379 -0.01300
N 	N 	0.83575 0.49152 0.86300 -0.19600
H 	H 	0.81307 0.42456 0.84335 0.05000
C 	C 	0.91722 0.51104 0.97128 -0.08900
C 	C 	0.93271 0.54592 0.97502 0.10000
C 	C 	0.90960 0.57618 0.98756 -0.06500
C 	C 	0.87295 0.57064 0.00713 -0.04000
C 	C 	0.85786 0.53549 0.00668 0.07900
H 	H 	0.93432 0.48801 0.95720 0.05200
N 	N 	0.96974 0.55022 0.96725 -0.19900
H 	H 	0.85566 0.59377 0.01971 0.04700
N 	N 	0.82249 0.53049 0.02684 -0.19500
H 	H 	0.98643 0.52799 0.95486 0.08100
H 	H 	0.98252 0.57528 0.97681 0.08500
H 	H 	0.80623 0.55266 0.04146 0.08400
H 	H 	0.81118 0.50455 0.03015 0.09200
H 	H 	0.82018 0.48688 0.81881 0.08200
H 	H 	0.84656 0.51746 0.87198 0.08800
H 	H 	0.86670 0.35042 0.01140 0.09500
H 	H 	0.88413 0.38202 0.07404 0.08500
C 	C 	0.95811 0.65804 0.81957 -0.04900
C 	C 	0.98738 0.63733 0.79177 0.09900
C 	C 	0.99493 0.63958 0.72282 -0.08300
C 	C 	0.97527 0.66365 0.68219 -0.00700
C 	C 	0.94788 0.68636 0.71113 0.06900
C 	C 	0.93927 0.68299 0.77950 -0.05400
N 	N 	0.00891 0.61606 0.83124 -0.19900
H 	H 	0.01645 0.62280 0.70082 0.05100
C 	C 	0.98255 0.66363 0.60883 -0.00300
N 	N 	0.92992 0.71146 0.67380 -0.19500
H 	H 	0.91739 0.69941 0.80124 0.04900
C 	C 	0.95900 0.64387 0.56469 -0.08600
C 	C 	0.96671 0.64073 0.49564 0.09900
C 	C 	0.99975 0.65589 0.47120 -0.04500
C 	C 	0.02243 0.67700 0.51475 -0.05600
C 	C 	0.01389 0.68144 0.58331 0.06600
H 	H 	0.93450 0.63104 0.58409 0.05400
N 	N 	0.94192 0.62397 0.45297 -0.19900
H 	H 	0.04724 0.68937 0.49559 0.05000
N 	N 	0.03576 0.70285 0.62414 -0.19400
H 	H 	0.91839 0.61150 0.47177 0.08300
H 	H 	0.94475 0.62472 0.40076 0.09100
H 	H 	0.05932 0.71520 0.60521 0.08000
H 	H 	0.02914 0.70821 0.67443 0.08400
H 	H 	0.90921 0.72758 0.69524 0.08200
H 	H 	0.93684 0.71585 0.62380 0.08600
H 	H 	0.00694 0.61708 0.88367 0.08600
H 	H 	0.02932 0.59957 0.80982 0.08100
C 	C 	0.84160 0.98623 0.00187 -0.11500
C 	C 	0.83192 0.01781 0.00210 -0.07800
C 	C 	0.82397 0.85896 0.84733 -0.08900
C 	C 	0.79899 0.86697 0.81029 -0.08100
C 	C 	0.98994 0.97933 0.94384 -0.13100
C 	C 	0.97681 0.95318 0.96899 -0.11300
C 	C 	0.96487 0.76012 0.08333 -0.03200
C 	C 	0.93048 0.77669 0.09420 -0.09800
C 	C 	0.89879 0.75429 0.09769 0.11900
C 	C 	0.90031 0.71846 0.07170 -0.08000
C 	C 	0.93386 0.70413 0.04868 -0.01700
C 	C 	0.96686 0.72361 0.06209 0.08500
N 	N 	0.00037 0.70763 0.05347 -0.19500
H 	H 	0.98972 0.77664 0.08410 0.05600
H 	H 	0.87519 0.70248 0.06660 0.05700
N 	N 	0.86711 0.76696 0.12554 -0.20300
H 	H 	0.02474 0.72248 0.06155 0.09100
H 	H 	0.00247 0.67993 0.04188 0.09300
H 	H 	0.86701 0.79090 0.15472 0.09900
H 	H 	0.84298 0.75131 0.12316 0.08600
C 	C 	0.98257 0.98476 0.22843 -0.10800
C 	C 	0.96585 0.01235 0.21540 -0.12300
C 	C 	0.90152 0.87740 0.36400 -0.11200
C 	C 	0.93161 0.86715 0.34743 -0.12300
C 	C 	0.10000 0.95049 0.36549 -0.07500
C 	C 	0.10529 0.98010 0.39017 -0.09400
C 	C 	0.01413 0.75442 0.21441 -0.04100
C 	C 	0.05059 0.76606 0.20507 -0.09300
C 	C 	0.07939 0.74023 0.20549 0.11400
C 	C 	0.07234 0.70519 0.22859 -0.07100
C 	C 	0.03661 0.69561 0.24815 -0.03700
C 	C 	0.00682 0.71886 0.23344 0.08700
N 	N 	0.97127 0.70742 0.23897 -0.19400
H 	H 	0.99183 0.77401 0.21354 0.06000
H 	H 	0.09502 0.68639 0.23560 0.05300
N 	N 	0.11404 0.74941 0.18663 -0.20200
H 	H 	0.94929 0.72515 0.23020 0.09100
H 	H 	0.96519 0.68039 0.24873 0.09000
H 	H 	0.11945 0.77483 0.16692 0.09100
H 	H 	0.13565 0.73070 0.18938 0.08600
