data_crystal

_cell_length_a 18.57486
_cell_length_b 18.75865
_cell_length_c 31.70935
_cell_angle_alpha 95.43822
_cell_angle_beta  95.43794
_cell_angle_gamma 126.40636

_symmetry_space_group_name_	'P 1'
_symmetry_space_group_name_H-M	'P 1'

loop_
_symmetry_equiv_pos_as_xyz
  x,y,z

loop_
_atom_site_label
_atom_site_type_symbol
_atom_site_fract_x
_atom_site_fract_y
_atom_site_fract_z
_atom_site_charge
C 	C 	0.90789 0.00243 0.95732 0.10900
N 	N 	0.00026 0.05543 0.96723 -0.10900
C 	C 	0.04360 0.01800 0.97243 0.13600
N 	N 	0.99470 0.92800 0.97073 -0.11800
C 	C 	0.90251 0.87463 0.96237 0.15400
N 	N 	0.85864 0.91149 0.95507 -0.11000
C 	C 	0.96010 0.04012 0.50592 0.11600
N 	N 	0.90552 0.95079 0.50718 -0.10300
C 	C 	0.93962 0.90385 0.50591 0.14600
N 	N 	0.02870 0.94649 0.50426 -0.09700
C 	C 	0.08393 0.03596 0.50362 0.13200
N 	N 	0.04950 0.08287 0.50399 -0.11100
Cu	Cu	0.74729 0.34159 0.94943 0.92900
Cu	Cu	0.76303 0.29272 0.04512 0.87800
Cu	Cu	0.61165 0.29659 0.00918 0.90400
Cu	Cu	0.57222 0.32874 0.92187 0.90300
C 	C 	0.66796 0.30013 0.85949 0.30800
O 	O 	0.79717 0.47147 0.94576 -0.33600
C 	C 	0.68625 0.34218 0.10334 0.28700
O 	O 	0.60679 0.26601 0.94910 -0.64000
O 	O 	0.74524 0.36323 0.01139 -0.63800
O 	O 	0.80977 0.28375 0.95308 -0.36200
O 	O 	0.72747 0.19712 0.00036 -0.41400
O 	O 	0.62858 0.33745 0.87004 -0.36100
O 	O 	0.48088 0.22441 0.00289 -0.36000
C 	C 	0.42689 0.22648 0.97362 0.31100
C 	C 	0.75561 0.50473 0.95889 0.29800
O 	O 	0.67413 0.45081 0.96784 -0.38100
O 	O 	0.45879 0.28070 0.94533 -0.37600
O 	O 	0.72599 0.30254 0.88834 -0.34800
C 	C 	0.77510 0.21052 0.96992 0.29500
O 	O 	0.61521 0.30825 0.07219 -0.36500
O 	O 	0.76178 0.35700 0.09494 -0.40800
H 	H 	0.56831 0.20039 0.93758 0.17400
H 	H 	0.78166 0.42757 0.02518 0.18100
Cu	Cu	0.62321 0.20321 0.50617 0.93100
Cu	Cu	0.70422 0.22317 0.41715 0.87500
Cu	Cu	0.66663 0.34660 0.45254 0.90200
Cu	Cu	0.61699 0.36272 0.53795 0.90400
C 	C 	0.63874 0.25802 0.59661 0.29200
O 	O 	0.48865 0.14411 0.50441 -0.35400
C 	C 	0.65567 0.30078 0.35889 0.30500
O 	O 	0.69260 0.34313 0.51219 -0.63700
O 	O 	0.61240 0.21600 0.44515 -0.63900
O 	O 	0.68570 0.14595 0.50280 -0.35200
O 	O 	0.78754 0.24950 0.46664 -0.43000
O 	O 	0.59794 0.29380 0.58551 -0.37100
O 	O 	0.72792 0.47515 0.46274 -0.37100
C 	C 	0.72684 0.52181 0.49627 0.31500
C 	C 	0.45196 0.18193 0.49058 0.30500
O 	O 	0.50504 0.26612 0.48576 -0.37600
O 	O 	0.66742 0.48193 0.52192 -0.36500
O 	O 	0.65240 0.21443 0.56727 -0.34100
C 	C 	0.76468 0.18803 0.49030 0.31200
O 	O 	0.65306 0.35031 0.39043 -0.36200
O 	O 	0.65036 0.22940 0.36480 -0.40700
H 	H 	0.75795 0.38433 0.52579 0.18200
H 	H 	0.55007 0.17564 0.42762 0.19000
C 	C 	0.65864 0.24816 0.73043 0.02400
C 	C 	0.73801 0.29638 0.71291 -0.04400
C 	C 	0.73173 0.29479 0.66841 0.01900
C 	C 	0.66673 0.27920 0.81456 -0.07600
C 	C 	0.56691 0.19307 0.65865 0.02000
C 	C 	0.57322 0.19421 0.70302 -0.04800
C 	C 	0.66413 0.26399 0.77640 0.05100
C 	C 	0.64607 0.24558 0.64137 -0.06600
H 	H 	0.80437 0.33791 0.73386 0.06600
H 	H 	0.79325 0.33497 0.65529 0.05100
H 	H 	0.50044 0.15414 0.63793 0.04800
H 	H 	0.51157 0.15630 0.71626 0.06000
C 	C 	0.66253 0.34967 0.23611 0.01900
C 	C 	0.74740 0.40996 0.22472 -0.05000
C 	C 	0.75455 0.41190 0.18126 0.01400
C 	C 	0.65569 0.32003 0.31612 -0.08800
C 	C 	0.59087 0.29740 0.16046 0.01400
C 	C 	0.58397 0.29554 0.20396 -0.04700
C 	C 	0.65786 0.33456 0.27983 0.04800
C 	C 	0.67673 0.35308 0.14881 -0.07300
H 	H 	0.80836 0.45278 0.24944 0.05600
H 	H 	0.82091 0.45694 0.17283 0.04400
H 	H 	0.53002 0.25244 0.13587 0.05900
H 	H 	0.51798 0.24928 0.21253 0.06100
C 	C 	0.89266 0.77219 0.53954 -0.06300
C 	C 	0.87971 0.80645 0.50463 -0.01200
C 	C 	0.81528 0.74685 0.46720 0.09800
C 	C 	0.76517 0.65381 0.46489 -0.01400
C 	C 	0.77901 0.61955 0.49958 -0.09100
C 	C 	0.84281 0.67915 0.53718 0.14100
Br	Br	0.86631 0.63493 0.58469 -0.23200
H 	H 	0.94290 0.81802 0.56821 0.09100
H 	H 	0.71576 0.60806 0.43600 0.07400
Br	Br	0.79755 0.79126 0.41820 -0.17800
C 	C 	0.89769 0.11262 0.53949 -0.07100
C 	C 	0.92029 0.08806 0.50271 -0.01000
C 	C 	0.89392 0.09887 0.46220 0.09300
C 	C 	0.84346 0.13187 0.45861 -0.01700
C 	C 	0.81870 0.15429 0.49518 -0.10300
C 	C 	0.84764 0.14626 0.53599 0.14400
Br	Br	0.82293 0.18417 0.58746 -0.21700
H 	H 	0.91802 0.10450 0.57075 0.08000
H 	H 	0.82222 0.13876 0.42720 0.04000
Br	Br	0.92344 0.06588 0.41111 -0.21600
C 	C 	0.21076 0.10558 0.46305 -0.06600
C 	C 	0.18036 0.08113 0.50176 -0.01200
C 	C 	0.23876 0.08757 0.53627 0.09600
C 	C 	0.32581 0.11632 0.53149 -0.02100
C 	C 	0.35613 0.14019 0.49269 -0.09500
C 	C 	0.29806 0.13461 0.45827 0.13900
Br	Br	0.33496 0.16180 0.40381 -0.22400
H 	H 	0.16550 0.09930 0.43616 0.09000
H 	H 	0.37094 0.12255 0.55844 0.06700
Br	Br	0.20163 0.05975 0.59064 -0.21300
C 	C 	0.80292 0.65214 0.99716 -0.02400
C 	C 	0.79603 0.60055 0.95968 -0.08800
C 	C 	0.81431 0.63670 0.92161 0.13600
C 	C 	0.84184 0.72439 0.92187 -0.06000
C 	C 	0.85109 0.77673 0.95967 -0.01800
C 	C 	0.82998 0.73960 0.99725 0.10000
Br	Br	0.83929 0.80810 0.04930 -0.19800
H 	H 	0.78651 0.62398 0.02621 0.06700
H 	H 	0.85882 0.75291 0.89293 0.08900
Br	Br	0.79965 0.56691 0.86856 -0.20600
C 	C 	0.87185 0.17611 0.93786 -0.02300
C 	C 	0.79591 0.14684 0.95715 -0.09200
C 	C 	0.74525 0.05943 0.96748 0.12400
C 	C 	0.78070 0.01103 0.96628 -0.10400
C 	C 	0.86141 0.04439 0.95069 -0.00200
C 	C 	0.90219 0.12347 0.93284 0.09100
Br	Br	0.99231 0.15568 0.89763 -0.20500
H 	H 	0.90755 0.23976 0.92676 0.07500
H 	H 	0.74523 0.94742 0.97744 0.11200
Br	Br	0.62277 0.99945 0.97717 -0.18700
C 	C 	0.20348 0.13117 0.01045 -0.06600
C 	C 	0.14143 0.07192 0.97271 -0.00900
C 	C 	0.17337 0.06352 0.93548 0.07800
C 	C 	0.26683 0.11297 0.93653 -0.01100
C 	C 	0.32916 0.17183 0.97430 -0.09700
C 	C 	0.29723 0.18160 0.01141 0.14600
Br	Br	0.38011 0.26672 0.06285 -0.21400
H 	H 	0.17890 0.13833 0.03901 0.08200
H 	H 	0.29117 0.10622 0.90778 0.05500
Br	Br	0.09027 0.98693 0.88244 -0.14300
