data_crystal

_cell_length_a 22.49095
_cell_length_b 22.68102
_cell_length_c 34.78291
_cell_angle_alpha 95.45576
_cell_angle_beta  95.45563
_cell_angle_gamma 126.02682

_symmetry_space_group_name_	'P 1'
_symmetry_space_group_name_H-M	'P 1'

loop_
_symmetry_equiv_pos_as_xyz
  x,y,z

loop_
_atom_site_label
_atom_site_type_symbol
_atom_site_fract_x
_atom_site_fract_y
_atom_site_fract_z
_atom_site_charge
C 	C 	0.00847 0.08417 0.01182 0.10600
N 	N 	0.08342 0.11938 0.01582 -0.13600
C 	C 	0.11090 0.07981 0.01726 0.11300
N 	N 	0.06352 0.00519 0.01455 -0.13800
C 	C 	0.98861 0.96962 0.00982 0.11000
N 	N 	0.96119 0.00923 0.00851 -0.13500
C 	C 	0.87968 0.94934 0.44521 0.11400
N 	N 	0.95523 0.99581 0.44844 -0.14000
C 	C 	0.99484 0.96828 0.44703 0.11100
N 	N 	0.95866 0.89394 0.44237 -0.13900
C 	C 	0.88337 0.84723 0.43974 0.11300
N 	N 	0.84374 0.87487 0.44125 -0.13900
Cu	Cu	0.66629 0.27149 0.01282 0.92900
Cu	Cu	0.71520 0.25482 0.92872 0.87000
Cu	Cu	0.71356 0.38207 0.95712 0.89600
Cu	Cu	0.67666 0.41491 0.03327 0.89500
C 	C 	0.68962 0.33468 0.09380 0.28800
O 	O 	0.55907 0.23342 0.01283 -0.36100
C 	C 	0.68134 0.31877 0.87246 0.28600
O 	O 	0.73163 0.38575 0.01254 -0.64000
O 	O 	0.65480 0.27276 0.95583 -0.64200
O 	O 	0.70680 0.21348 0.01317 -0.37000
O 	O 	0.78706 0.27835 0.97268 -0.43900
O 	O 	0.66279 0.36967 0.08148 -0.38500
O 	O 	0.77503 0.48893 0.96259 -0.38100
C 	C 	0.77214 0.53364 0.98832 0.28300
C 	C 	0.53223 0.26546 0.99691 0.27700
O 	O 	0.57836 0.33213 0.98926 -0.39300
O 	O 	0.72142 0.50746 0.01118 -0.39200
O 	O 	0.69348 0.28961 0.06891 -0.36100
C 	C 	0.76750 0.23545 0.99902 0.27600
O 	O 	0.71331 0.37866 0.90002 -0.38400
O 	O 	0.66813 0.25712 0.88091 -0.41800
H 	H 	0.78519 0.41643 0.02501 0.16500
H 	H 	0.60247 0.24417 0.94165 0.17200
Cu	Cu	0.70214 0.29907 0.44835 0.92600
Cu	Cu	0.71949 0.25147 0.53264 0.87000
Cu	Cu	0.58903 0.24945 0.50352 0.89700
Cu	Cu	0.55263 0.28220 0.42529 0.89500
C 	C 	0.65105 0.29425 0.36907 0.28700
O 	O 	0.74167 0.40588 0.44855 -0.36800
C 	C 	0.65292 0.28338 0.58823 0.28500
O 	O 	0.58631 0.23253 0.44817 -0.63800
O 	O 	0.69958 0.30982 0.50516 -0.64100
O 	O 	0.75978 0.25770 0.44753 -0.37200
O 	O 	0.69561 0.17948 0.48894 -0.43900
O 	O 	0.58602 0.27892 0.37427 -0.38200
O 	O 	0.48107 0.18601 0.49762 -0.37900
C 	C 	0.43627 0.18896 0.47177 0.28400
C 	C 	0.70462 0.43063 0.45949 0.28100
O 	O 	0.63707 0.38449 0.46656 -0.39000
O 	O 	0.46347 0.24220 0.45081 -0.39400
O 	O 	0.68539 0.27592 0.39228 -0.36300
C 	C 	0.73815 0.19806 0.46225 0.28200
O 	O 	0.59227 0.24923 0.56054 -0.38500
O 	O 	0.71583 0.29773 0.58017 -0.41800
H 	H 	0.55753 0.17945 0.43609 0.16600
H 	H 	0.72696 0.36169 0.51907 0.17200
C 	C 	0.63104 0.24972 0.69449 -0.00200
C 	C 	0.60108 0.22689 0.72831 -0.05700
C 	C 	0.64721 0.27065 0.76475 0.01400
C 	C 	0.71803 0.33745 0.76658 -0.00100
C 	C 	0.74265 0.36579 0.73266 -0.05700
C 	C 	0.69927 0.31927 0.69625 0.01400
S 	S 	0.58236 0.22085 0.64908 0.01400
C 	C 	0.64607 0.29265 0.62952 -0.07500
C 	C 	0.70838 0.34321 0.65966 -0.02300
S 	S 	0.74660 0.38689 0.81163 0.01200
C 	C 	0.67301 0.32519 0.83104 -0.07500
C 	C 	0.62202 0.26309 0.80104 -0.02300
H 	H 	0.54380 0.17855 0.72632 0.04400
H 	H 	0.79208 0.42216 0.73449 0.04300
H 	H 	0.75912 0.39375 0.65504 0.03800
H 	H 	0.57051 0.21335 0.80567 0.03800
C 	C 	0.65025 0.33621 0.26425 0.00400
C 	C 	0.66363 0.37305 0.23242 -0.05800
C 	C 	0.66264 0.33791 0.19670 0.01700
C 	C 	0.65355 0.27096 0.19419 -0.00300
C 	C 	0.65312 0.24112 0.22774 -0.05300
C 	C 	0.64877 0.27340 0.26283 0.01400
S 	S 	0.66955 0.37464 0.31104 0.00800
C 	C 	0.67403 0.31282 0.33134 -0.06800
C 	C 	0.66137 0.25957 0.30054 -0.01900
S 	S 	0.67857 0.25691 0.15287 0.02900
C 	C 	0.69904 0.33277 0.13602 -0.07400
C 	C 	0.68772 0.37263 0.16400 -0.02200
H 	H 	0.67648 0.42760 0.23561 0.04500
H 	H 	0.65812 0.19635 0.22686 0.04600
H 	H 	0.65757 0.21097 0.30513 0.04400
H 	H 	0.69483 0.42318 0.16026 0.03800
C 	C 	0.84526 0.76699 0.43536 -0.00700
C 	C 	0.85116 0.72959 0.40318 -0.02900
C 	C 	0.82545 0.65620 0.40171 -0.04000
C 	C 	0.79406 0.61954 0.43260 -0.00100
C 	C 	0.78653 0.65642 0.46471 0.03000
C 	C 	0.81167 0.72992 0.46575 -0.05400
C 	C 	0.75502 0.61969 0.49557 -0.06700
C 	C 	0.73052 0.54671 0.49443 0.00900
C 	C 	0.73769 0.50977 0.46257 -0.08100
C 	C 	0.77004 0.54649 0.43184 -0.01400
H 	H 	0.87716 0.75800 0.37967 0.04100
H 	H 	0.83095 0.62829 0.37680 0.03900
H 	H 	0.80752 0.75902 0.49072 0.04600
H 	H 	0.74914 0.64744 0.52038 0.04400
H 	H 	0.70545 0.51862 0.51820 0.02900
H 	H 	0.77470 0.51764 0.40697 0.04000
C 	C 	0.83713 0.98002 0.44609 -0.01400
C 	C 	0.77557 0.94900 0.46523 -0.02600
C 	C 	0.74069 0.98314 0.47001 -0.04900
C 	C 	0.76726 0.04899 0.45591 0.00600
C 	C 	0.82741 0.07897 0.43541 0.02600
C 	C 	0.86158 0.04393 0.43025 -0.04600
C 	C 	0.85409 0.14484 0.42138 -0.06400
C 	C 	0.82339 0.18238 0.42900 0.00700
C 	C 	0.76529 0.15437 0.45063 -0.08100
C 	C 	0.73595 0.08641 0.46309 -0.02000
H 	H 	0.75609 0.89965 0.47743 0.04000
H 	H 	0.69407 0.95924 0.48543 0.03600
H 	H 	0.90806 0.06714 0.41470 0.04800
H 	H 	0.89965 0.16784 0.40521 0.04500
H 	H 	0.84593 0.23409 0.41877 0.04000
H 	H 	0.69000 0.06353 0.47900 0.03800
C 	C 	0.35496 0.14096 0.47165 -0.07600
C 	C 	0.32133 0.07370 0.48534 0.00800
C 	C 	0.24405 0.02706 0.48398 -0.06300
C 	C 	0.19935 0.04683 0.46865 0.03600
C 	C 	0.23286 0.11454 0.45504 -0.00300
C 	C 	0.31048 0.16147 0.45683 -0.01400
C 	C 	0.18819 0.13412 0.43943 -0.03800
C 	C 	0.11072 0.08654 0.43695 -0.03300
C 	C 	0.07691 0.01897 0.45031 -0.00000
C 	C 	0.12154 0.99952 0.46645 -0.06500
H 	H 	0.35491 0.05704 0.49659 0.03500
H 	H 	0.21892 0.97525 0.49453 0.04100
H 	H 	0.33616 0.21372 0.44666 0.04200
H 	H 	0.21337 0.18593 0.42889 0.03700
H 	H 	0.07686 0.10186 0.42420 0.04200
H 	H 	0.09582 0.94790 0.47729 0.05100
C 	C 	0.93728 0.88820 0.00601 -0.00500
C 	C 	0.86907 0.85429 0.01932 -0.03000
C 	C 	0.82192 0.77753 0.01729 -0.04100
C 	C 	0.84266 0.73379 0.00222 0.00200
C 	C 	0.91074 0.76740 0.98836 0.02700
C 	C 	0.95742 0.84435 0.99000 -0.05300
C 	C 	0.93175 0.72372 0.97359 -0.06500
C 	C 	0.88619 0.64742 0.97321 0.00900
C 	C 	0.81874 0.61374 0.98730 -0.07900
C 	C 	0.79672 0.65708 0.00134 -0.01200
H 	H 	0.85310 0.88754 0.03186 0.04100
H 	H 	0.76970 0.75225 0.02790 0.03800
H 	H 	0.00940 0.87013 0.97904 0.04600
H 	H 	0.98381 0.74895 0.96282 0.04500
H 	H 	0.90389 0.61466 0.96246 0.03400
H 	H 	0.74416 0.63123 0.01169 0.04100
C 	C 	0.97829 0.12689 0.01085 0.00700
C 	C 	0.01060 0.18823 0.99192 -0.04500
C 	C 	0.97825 0.22491 0.98807 -0.03400
C 	C 	0.91295 0.20040 0.00290 0.00300
C 	C 	0.88157 0.14023 0.02306 0.03100
C 	C 	0.91473 0.10410 0.02720 -0.05800
C 	C 	0.81628 0.11570 0.03787 -0.06500
C 	C 	0.78055 0.14852 0.03129 0.00600
C 	C 	0.80980 0.20651 0.00989 -0.07400
C 	C 	0.87740 0.23381 0.99680 -0.02600
H 	H 	0.05971 0.20636 0.97930 0.04400
H 	H 	0.00317 0.27144 0.97285 0.03100
H 	H 	0.89057 0.05771 0.04256 0.05100
H 	H 	0.79231 0.07022 0.05384 0.04600
H 	H 	0.72922 0.12770 0.04212 0.04100
H 	H 	0.90134 0.27977 0.98114 0.03800
C 	C 	0.45249 0.23269 0.99422 -0.08300
C 	C 	0.41561 0.24304 0.96380 0.00800
C 	C 	0.34171 0.21749 0.96303 -0.06600
C 	C 	0.30396 0.18152 0.99277 0.02800
C 	C 	0.34079 0.17071 0.02336 0.00200
C 	C 	0.41475 0.19604 0.02382 -0.01100
C 	C 	0.30310 0.13465 0.05307 -0.04000
C 	C 	0.22882 0.10781 0.05191 -0.02900
C 	C 	0.19157 0.11720 0.02125 -0.00400
C 	C 	0.22956 0.15522 0.99207 -0.05700
H 	H 	0.44436 0.27122 0.94083 0.03000
H 	H 	0.31396 0.22588 0.93936 0.04400
H 	H 	0.44346 0.18881 0.04761 0.04500
H 	H 	0.33097 0.12652 0.07681 0.04000
H 	H 	0.19970 0.07853 0.07452 0.04200
H 	H 	0.20054 0.16210 0.96827 0.04700
