data_crystal

_cell_length_a 20.14831
_cell_length_b 18.35176
_cell_length_c 31.39826
_cell_angle_alpha 104.23571
_cell_angle_beta  116.03796
_cell_angle_gamma 111.02627

_symmetry_space_group_name_	'P 1'
_symmetry_space_group_name_H-M	'P 1'

loop_
_symmetry_equiv_pos_as_xyz
  x,y,z

loop_
_atom_site_label
_atom_site_type_symbol
_atom_site_fract_x
_atom_site_fract_y
_atom_site_fract_z
_atom_site_charge
C 	C 	0.68615 0.32286 0.01186 0.06100
C 	C 	0.73700 0.41055 0.02382 -0.10600
C 	C 	0.80605 0.43486 0.01843 0.07300
C 	C 	0.82469 0.37148 0.00135 -0.12200
C 	C 	0.77241 0.28278 0.98793 0.07500
C 	C 	0.70367 0.25901 0.99367 -0.09800
H 	H 	0.72225 0.45948 0.03669 0.05300
H 	H 	0.66353 0.19081 0.98369 0.05400
C 	C 	0.47311 0.20914 0.36324 0.05900
C 	C 	0.51816 0.30190 0.38411 -0.10200
C 	C 	0.59902 0.34729 0.39230 0.06100
C 	C 	0.63398 0.29972 0.37883 -0.10100
C 	C 	0.59133 0.20755 0.36061 0.05800
C 	C 	0.50910 0.16198 0.35066 -0.10200
H 	H 	0.49144 0.33874 0.39515 0.05500
H 	H 	0.47546 0.09070 0.33604 0.05000
C 	C 	0.58350 0.79484 0.03790 0.05600
C 	C 	0.53399 0.83067 0.01611 -0.10400
C 	C 	0.45644 0.80735 0.01250 0.04300
C 	C 	0.42615 0.74441 0.02804 -0.09400
C 	C 	0.47449 0.70750 0.04875 0.04800
C 	C 	0.55497 0.73621 0.05616 -0.10000
H 	H 	0.55346 0.87331 0.99994 0.05900
H 	H 	0.36309 0.72085 0.02149 0.04500
H 	H 	0.59199 0.70722 0.07206 0.04300
C 	C 	0.34894 0.71115 0.38290 0.05900
C 	C 	0.34233 0.63730 0.39073 -0.10100
C 	C 	0.27031 0.58215 0.38884 0.05700
C 	C 	0.20497 0.60109 0.37903 -0.10200
C 	C 	0.21090 0.67381 0.37038 0.05800
C 	C 	0.28262 0.72846 0.37215 -0.10200
H 	H 	0.39177 0.62162 0.39694 0.05300
H 	H 	0.14796 0.55726 0.37593 0.04800
H 	H 	0.28631 0.78384 0.36452 0.05200
Zn	Zn	0.27019 0.20144 0.02721 1.18200
Zn	Zn	0.12525 0.11770 0.90694 1.19000
O 	O 	0.08913 0.95557 0.81169 -0.48600
O 	O 	0.07347 0.07552 0.82718 -0.45600
O 	O 	0.14185 0.88657 0.90875 -0.51100
C 	C 	0.36685 0.15548 0.99509 0.35700
O 	O 	0.04234 0.00019 0.89011 -0.92200
C 	C 	0.26498 0.31130 0.97252 0.38400
O 	O 	0.37371 0.20264 0.03751 -0.48700
O 	O 	0.28957 0.10176 0.94855 -0.38300
O 	O 	0.15166 0.14028 0.98125 -0.79000
O 	O 	0.18013 0.98730 0.98813 -0.46000
O 	O 	0.21788 0.23608 0.92699 -0.48100
O 	O 	0.29503 0.31175 0.01952 -0.48300
Zn	Zn	0.06839 0.02201 0.96027 1.21500
C 	C 	0.85064 0.94972 0.99087 0.34500
O 	O 	0.81473 0.86980 0.95297 -0.49500
O 	O 	0.09082 0.04213 0.02986 -0.90100
Zn	Zn	0.08189 0.93095 0.86813 1.18000
C 	C 	0.07214 0.01106 0.79614 0.29200
C 	C 	0.18901 0.92755 0.96183 0.33700
H 	H 	0.15336 0.06843 0.05818 0.14900
Zn	Zn	0.15854 0.15564 0.49242 1.18300
Zn	Zn	0.01350 0.10024 0.37752 1.18300
O 	O 	0.98743 0.94383 0.28825 -0.46100
O 	O 	0.97442 0.06472 0.30001 -0.42400
O 	O 	0.94870 0.81544 0.34600 -0.47200
C 	C 	0.24831 0.12430 0.44873 0.36300
O 	O 	0.91818 0.98294 0.35401 -0.85700
C 	C 	0.17285 0.28616 0.45306 0.35500
O 	O 	0.25494 0.15018 0.49407 -0.48700
O 	O 	0.17236 0.08738 0.40254 -0.35800
O 	O 	0.04127 0.10763 0.45003 -0.80900
O 	O 	0.04084 0.93188 0.43130 -0.46500
O 	O 	0.11732 0.21697 0.40371 -0.47000
O 	O 	0.19400 0.27497 0.49601 -0.47700
Zn	Zn	0.94906 0.99004 0.42323 1.22400
C 	C 	0.73126 0.93392 0.46070 0.37800
O 	O 	0.71130 0.92518 0.41317 -0.50000
O 	O 	0.97844 0.99489 0.49128 -0.86400
Zn	Zn	0.92677 0.89142 0.31828 1.18500
C 	C 	0.98358 0.00497 0.27432 0.27900
C 	C 	0.01454 0.85288 0.39669 0.28800
H 	H 	0.03912 0.01118 0.51632 0.12900
C 	C 	0.09802 0.04476 0.69824 0.02400
H 	H 	0.15675 0.08906 0.70153 0.00800
C 	C 	0.08588 0.96833 0.71278 -0.05800
H 	H 	0.13503 0.95005 0.72898 0.03500
C 	C 	0.04840 0.99923 0.74163 -0.07100
C 	C 	0.99211 0.90592 0.65946 0.06700
H 	H 	0.96360 0.83602 0.63092 0.02200
C 	C 	0.09626 0.05709 0.21688 0.04500
H 	H 	0.16720 0.09074 0.23463 0.01200
C 	C 	0.04129 0.96958 0.21440 -0.10000
H 	H 	0.06691 0.93121 0.23079 0.04500
C 	C 	0.05254 0.09863 0.23523 -0.10400
H 	H 	0.08722 0.16651 0.26877 0.04900
C 	C 	0.99771 0.01122 0.23220 0.01800
C 	C 	0.25811 0.49887 0.39074 -0.06400
C 	C 	0.23925 0.47790 0.42374 -0.05000
C 	C 	0.20935 0.38742 0.41775 0.03100
C 	C 	0.21383 0.37229 0.46028 -0.19600
H 	H 	0.18233 0.33241 0.37972 0.02800
H 	H 	0.26197 0.45315 0.36378 0.03900
H 	H 	0.25101 0.42880 0.50009 0.07900
H 	H 	0.24220 0.52654 0.45366 0.03600
C 	C 	0.42075 0.76572 0.38076 -0.06300
C 	C 	0.50824 0.80858 0.42434 -0.05200
C 	C 	0.57544 0.86698 0.42402 0.03900
C 	C 	0.66824 0.90794 0.46853 -0.21300
H 	H 	0.55951 0.88021 0.39003 0.02400
H 	H 	0.40477 0.77940 0.34694 0.03700
H 	H 	0.68439 0.90990 0.50687 0.09300
H 	H 	0.52412 0.79646 0.45872 0.04300
C 	C 	0.13789 0.68768 0.35412 -0.06700
C 	C 	0.12884 0.72829 0.39112 -0.04900
C 	C 	0.06243 0.75243 0.37538 0.02200
C 	C 	0.06901 0.81501 0.41273 -0.17400
H 	H 	0.01152 0.72357 0.33269 0.01300
H 	H 	0.09518 0.67066 0.31219 0.03400
H 	H 	0.12037 0.84421 0.45534 0.06400
H 	H 	0.17346 0.74775 0.43335 0.03600
C 	C 	0.28953 0.38839 0.97077 -0.22500
C 	C 	0.34051 0.46820 0.01563 0.05000
C 	C 	0.36806 0.55090 0.01140 -0.07100
C 	C 	0.43537 0.62974 0.05518 -0.05600
H 	H 	0.33720 0.54672 0.97170 0.04800
H 	H 	0.26737 0.38596 0.93169 0.09100
H 	H 	0.46863 0.63402 0.09474 0.02800
H 	H 	0.36364 0.47281 0.05528 0.01600
C 	C 	0.65531 0.80422 0.03257 -0.06500
C 	C 	0.71181 0.88201 0.03674 -0.05300
C 	C 	0.77340 0.88426 0.02670 0.03800
C 	C 	0.82624 0.96112 0.02413 -0.21500
H 	H 	0.77945 0.82673 0.01777 0.02400
H 	H 	0.66508 0.74898 0.02615 0.03900
H 	H 	0.84708 0.02769 0.05041 0.08900
H 	H 	0.70684 0.94000 0.04670 0.04000
C 	C 	0.25458 0.90872 0.99278 -0.17500
C 	C 	0.29611 0.88523 0.97389 0.04500
C 	C 	0.35973 0.86370 0.00466 -0.07500
C 	C 	0.40149 0.84022 0.98593 -0.03700
H 	H 	0.37077 0.86458 0.04200 0.04000
H 	H 	0.27158 0.91744 0.03244 0.05900
H 	H 	0.39504 0.84508 0.95064 0.03400
H 	H 	0.28231 0.88085 0.93543 0.02100
C 	C 	0.63595 0.15985 0.35685 -0.06100
H 	H 	0.72090 0.07202 0.37128 0.01100
H 	H 	0.59690 0.09050 0.32602 0.03500
C 	C 	0.62417 0.49151 0.39412 -0.05000
C 	C 	0.65135 0.44530 0.41975 -0.06500
H 	H 	0.56046 0.45525 0.35555 0.03600
H 	H 	0.58612 0.59541 0.35119 0.08600
C 	C 	0.31996 0.14210 0.45016 -0.20400
C 	C 	0.31729 0.12649 0.40069 0.03500
C 	C 	0.39323 0.17508 0.40465 -0.04900
C 	C 	0.39147 0.16203 0.35831 -0.06400
H 	H 	0.45455 0.22354 0.44428 0.04300
H 	H 	0.38254 0.17463 0.48891 0.08800
H 	H 	0.33133 0.11149 0.31858 0.03900
H 	H 	0.25561 0.07856 0.36112 0.03000
C 	C 	0.79450 0.21634 0.97325 -0.06400
C 	C 	0.88153 0.62843 0.99267 0.04400
C 	C 	0.84233 0.54168 0.98478 -0.03900
C 	C 	0.85629 0.52582 0.02831 -0.07700
H 	H 	0.89784 0.58112 0.06912 0.04800
H 	H 	0.92919 0.68435 0.03350 0.02900
C 	C 	0.44138 0.16893 0.99758 -0.18100
C 	C 	0.52539 0.22880 0.04577 0.02200
C 	C 	0.60293 0.25810 0.04491 -0.04200
C 	C 	0.61057 0.29656 0.01468 -0.07600
H 	H 	0.65560 0.25165 0.07079 0.03600
H 	H 	0.43414 0.13569 0.96057 0.08400
H 	H 	0.56169 0.31061 0.99285 0.05400
H 	H 	0.53442 0.25269 0.08434 0.02700
H 	H 	0.88026 0.39145 0.99923 0.06900
H 	H 	0.69557 0.33479 0.38409 0.05400
Zn	Zn	0.87424 0.85786 0.91937 1.17100
Zn	Zn	0.01731 0.92260 0.01495 1.16000
C 	C 	0.88365 0.72671 0.95142 0.38200
O 	O 	0.96821 0.07449 0.93879 -0.43400
Zn	Zn	0.05050 0.11258 0.04900 1.19500
O 	O 	0.94935 0.79661 0.99951 -0.46500
O 	O 	0.84575 0.73740 0.90928 -0.48700
O 	O 	0.90006 0.01864 0.99026 -0.44200
C 	C 	0.03640 0.02683 0.11532 0.31400
O 	O 	0.98560 0.90193 0.93878 -0.75600
C 	C 	0.98969 0.15493 0.96879 0.38300
O 	O 	0.05105 0.96954 0.09234 -0.46500
O 	O 	0.04840 0.09761 0.10862 -0.48800
O 	O 	0.04085 0.19159 0.02165 -0.53900
H 	H 	0.98076 0.97826 0.86238 0.19900
Zn	Zn	0.75582 0.86952 0.38153 1.17300
Zn	Zn	0.89054 0.87643 0.46955 1.18500
C 	C 	0.71121 0.71159 0.39927 0.38000
O 	O 	0.86130 0.05573 0.41827 -0.47900
Zn	Zn	0.94401 0.05755 0.52299 1.20100
O 	O 	0.79403 0.75422 0.44131 -0.46900
O 	O 	0.68405 0.74733 0.36899 -0.48800
O 	O 	0.80820 0.94992 0.49661 -0.48000
C 	C 	0.98068 0.98036 0.59308 0.36300
O 	O 	0.85514 0.87397 0.39662 -0.79300
C 	C 	0.87632 0.12359 0.45623 0.34900
O 	O 	0.93883 0.90337 0.54935 -0.43500
O 	O 	0.99631 0.05472 0.59054 -0.47200
O 	O 	0.91262 0.13628 0.50581 -0.49800
H 	H 	0.85962 0.97372 0.33216 0.14300
C 	C 	0.06089 0.07561 0.72771 -0.06000
H 	H 	0.08934 0.14564 0.75605 0.03900
C 	C 	0.00475 0.98259 0.64580 -0.18000
C 	C 	0.96743 0.01335 0.67480 0.06700
H 	H 	0.91831 0.03175 0.65874 0.01800
C 	C 	0.95512 0.93695 0.68922 -0.02500
H 	H 	0.89642 0.89278 0.68600 0.02800
C 	C 	0.02278 0.02108 0.15768 -0.16300
C 	C 	0.97917 0.06269 0.17545 0.08500
H 	H 	0.95358 0.10106 0.15904 0.01800
C 	C 	0.92424 0.97521 0.17300 -0.07500
H 	H 	0.85335 0.94154 0.15536 0.03900
C 	C 	0.96792 0.93367 0.15463 0.07900
H 	H 	0.93316 0.86582 0.12104 0.01600
C 	C 	0.72092 0.19679 0.39562 -0.05100
C 	C 	0.76077 0.14288 0.39978 0.03900
C 	C 	0.84313 0.17934 0.44203 -0.18500
H 	H 	0.88208 0.24992 0.47079 0.08200
H 	H 	0.75939 0.26536 0.42738 0.04200
C 	C 	0.65362 0.62968 0.38601 -0.21000
C 	C 	0.67999 0.58302 0.41607 0.03500
H 	H 	0.71601 0.48069 0.45749 0.04400
H 	H 	0.74377 0.61943 0.45462 0.03300
C 	C 	0.93593 0.18944 0.94510 -0.18600
C 	C 	0.85628 0.15515 0.93470 0.03900
C 	C 	0.82235 0.21287 0.94142 -0.04500
H 	H 	0.82692 0.25765 0.92425 0.03900
H 	H 	0.96817 0.25435 0.94824 0.08200
H 	H 	0.78790 0.16932 0.98883 0.04700
H 	H 	0.82423 0.09030 0.93173 0.02600
C 	C 	0.85280 0.64438 0.94555 -0.21000
H 	H 	0.79695 0.48584 0.94391 0.04000
H 	H 	0.80103 0.58784 0.90528 0.09000
