data_crystal

_cell_length_a 15.11632
_cell_length_b 15.24050
_cell_length_c 44.44730
_cell_angle_alpha 90.78578
_cell_angle_beta  90.93204
_cell_angle_gamma 110.92882

_symmetry_space_group_name_	'P 1'
_symmetry_space_group_name_H-M	'P 1'

loop_
_symmetry_equiv_pos_as_xyz
  x,y,z

loop_
_atom_site_label
_atom_site_type_symbol
_atom_site_fract_x
_atom_site_fract_y
_atom_site_fract_z
_atom_site_charge
O 	O 	0.08023 0.92389 0.78089 -0.69200
C 	C 	0.06442 0.12910 0.79231 0.27000
C 	C 	0.04924 0.42566 0.48786 0.00600
C 	C 	0.09409 0.52354 0.48557 0.12200
O 	O 	0.01637 0.77880 0.06394 -0.28900
Ni	Ni	0.06909 0.83628 0.74608 1.10100
O 	O 	0.09569 0.75569 0.71344 -0.38900
C 	C 	0.05743 0.36586 0.53915 -0.11300
C 	C 	0.12637 0.55826 0.69308 -0.07900
C 	C 	0.02275 0.35031 0.56837 0.19400
H 	H 	0.17406 0.63712 0.45749 0.04000
O 	O 	0.07963 0.33854 0.59113 -0.27000
C 	C 	0.15317 0.63361 0.70578 -0.04100
Ni	Ni	0.19151 0.04050 0.76765 1.10200
O 	O 	0.15264 0.13199 0.79464 -0.36000
O 	O 	0.18893 0.94446 0.73651 -0.70600
H 	H 	0.10013 0.89665 0.79870 0.15700
H 	H 	0.18114 0.96983 0.71666 0.16500
C 	C 	0.16589 0.72539 0.71726 0.26100
O 	O 	0.09795 0.71457 0.35061 -0.35800
C 	C 	0.09516 0.79823 0.34519 0.26500
Ni	Ni	0.04823 0.69324 0.14670 1.10200
Ni	Ni	0.02382 0.50069 0.11042 1.06700
O 	O 	0.00335 0.47213 0.15481 -0.41200
O 	O 	0.02142 0.79337 0.17239 -0.36600
C 	C 	0.09019 0.87488 0.17661 0.26800
Ni	Ni	0.03506 0.06115 0.29017 1.06700
O 	O 	0.09957 0.10959 0.25063 -0.39600
O 	O 	0.04992 0.26303 0.26492 -0.36900
C 	C 	0.05272 0.08487 0.22518 0.30400
C 	C 	0.08841 0.26999 0.29218 0.28200
O 	O 	0.08633 0.19482 0.30734 -0.40800
C 	C 	0.07410 0.94881 0.19284 -0.03200
C 	C 	0.06462 0.01193 0.20721 -0.06900
C 	C 	0.01819 0.80422 0.32715 -0.05300
C 	C 	0.04938 0.36659 0.46342 -0.11500
C 	C 	0.13928 0.56164 0.45905 -0.03300
C 	C 	0.13961 0.50282 0.43456 -0.12300
H 	H 	0.01429 0.29120 0.46502 0.07100
H 	H 	0.07100 0.75747 0.06258 0.12500
H 	H 	0.12857 0.36812 0.53482 0.08100
H 	H 	0.06508 0.26978 0.59185 0.15500
C 	C 	0.09459 0.40472 0.43680 0.19700
O 	O 	0.23823 0.77090 0.73559 -0.39900
C 	C 	0.18370 0.54491 0.40641 0.30700
O 	O 	0.14926 0.60082 0.39221 -0.37700
O 	O 	0.11202 0.62619 0.12044 -0.69200
H 	H 	0.13100 0.66125 0.10160 0.15300
C 	C 	0.14223 0.36155 0.30433 -0.03700
H 	H 	0.12910 0.48175 0.04527 0.01700
O 	O 	0.19394 0.59255 0.32864 -0.36600
O 	O 	0.17389 0.87278 0.34625 -0.42000
O 	O 	0.13124 0.44525 0.10990 -0.40700
O 	O 	0.17724 0.88338 0.17060 -0.40600
H 	H 	0.12650 0.63862 0.19036 0.16700
C 	C 	0.18605 0.43876 0.31463 -0.03800
H 	H 	0.15729 0.86607 0.48232 0.13700
O 	O 	0.18099 0.46141 0.99027 -0.27300
H 	H 	0.13514 0.39715 0.98583 0.13700
O 	O 	0.27052 0.01707 0.80230 -0.37700
O 	O 	0.31101 0.14731 0.75386 -0.36400
Ni	Ni	0.30474 0.91800 0.73552 1.07100
Ni	Ni	0.22310 0.69662 0.36136 1.09900
O 	O 	0.23936 0.50953 0.39251 -0.39300
H 	H 	0.20403 0.77138 0.41217 0.15900
C 	C 	0.23613 0.53002 0.32765 0.29300
O 	O 	0.15358 0.68520 0.17457 -0.69700
O 	O 	0.21574 0.85510 0.48852 -0.30000
O 	O 	0.09076 0.34652 0.41260 -0.28600
C 	C 	0.19388 0.46672 0.04415 -0.03200
C 	C 	0.07983 0.47749 0.67432 0.29900
H 	H 	0.24607 0.93248 0.54268 0.07400
O 	O 	0.34023 0.92360 0.78027 -0.39900
C 	C 	0.34527 0.99394 0.79842 0.28300
O 	O 	0.25093 0.79270 0.39604 -0.70600
Ni	Ni	0.26296 0.91887 0.38405 1.06500
Ni	Ni	0.22894 0.63555 0.14676 1.10200
Ni	Ni	0.23989 0.80214 0.19317 1.07200
C 	C 	0.21558 0.49301 0.09943 0.30300
H 	H 	0.25198 0.17282 0.57162 0.14500
H 	H 	0.14637 0.32709 0.41527 0.14800
H 	H 	0.23982 0.90261 0.08781 0.15000
C 	C 	0.22864 0.45384 0.01606 0.11000
C 	C 	0.24479 0.46467 0.07064 -0.13200
O 	O 	0.37793 0.05590 0.72644 -0.40500
C 	C 	0.38639 0.13259 0.74274 0.26900
O 	O 	0.32612 0.55292 0.33571 -0.40600
O 	O 	0.27567 0.56346 0.11525 -0.35100
O 	O 	0.29286 0.75500 0.12320 -0.39300
C 	C 	0.29024 0.97575 0.52556 -0.11100
C 	C 	0.28061 0.94245 0.49575 0.18700
O 	O 	0.31797 0.20551 0.56517 -0.26100
O 	O 	0.35786 0.71332 0.37328 -0.70300
O 	O 	0.29940 0.71813 0.21300 -0.41300
O 	O 	0.28303 0.95759 0.09949 -0.29100
C 	C 	0.31477 0.43828 0.01438 0.01000
H 	H 	0.24499 0.29499 0.97385 0.06900
C 	C 	0.31136 0.34718 0.96713 -0.11200
O 	O 	0.31110 0.25258 0.92361 -0.29100
Ni	Ni	0.37133 0.59102 0.37871 1.07100
C 	C 	0.34492 0.83609 0.13537 0.33300
H 	H 	0.32799 0.20175 0.93294 0.16400
C 	C 	0.34228 0.99527 0.47383 -0.12500
C 	C 	0.32901 0.44549 0.06899 0.20200
C 	C 	0.35440 0.42854 0.98489 0.00600
C 	C 	0.35547 0.33119 0.94125 0.19400
Ni	Ni	0.37763 0.79610 0.41104 1.09900
O 	O 	0.34922 0.98853 0.41958 -0.40700
C 	C 	0.35315 0.94890 0.44574 0.30200
O 	O 	0.35256 0.84833 0.16473 -0.40200
C 	C 	0.37057 0.16122 0.57966 0.12100
C 	C 	0.41884 0.02263 0.82123 -0.04200
O 	O 	0.41204 0.60922 0.42415 -0.41500
O 	O 	0.38719 0.88064 0.44738 -0.37200
H 	H 	0.40054 0.74712 0.35722 0.15800
O 	O 	0.37162 0.93862 0.35511 -0.40700
O 	O 	0.35182 0.65784 0.17247 -0.35500
C 	C 	0.36735 0.69953 0.19952 0.29300
C 	C 	0.36091 0.06175 0.53365 0.00300
H 	H 	0.40563 0.25800 0.61749 0.07100
C 	C 	0.37216 0.95548 0.09566 0.20000
H 	H 	0.39490 0.03495 0.05497 0.08000
H 	H 	0.35350 0.37552 0.10082 0.15300
C 	C 	0.36368 0.43244 0.04093 -0.11200
C 	C 	0.02640 0.17433 0.81455 -0.05500
C 	C 	0.38653 0.08511 0.56570 0.00300
C 	C 	0.41390 0.19605 0.60759 -0.03000
O 	O 	0.52265 0.46531 0.54598 -0.26500
C 	C 	0.42524 0.00025 0.07106 -0.12100
C 	C 	0.40935 0.90676 0.11594 -0.12900
O 	O 	0.37890 0.44214 0.09474 -0.27600
H 	H 	0.54993 0.42714 0.53355 0.15300
O 	O 	0.09583 0.58184 0.50955 -0.26900
C 	C 	0.47189 0.21191 0.73825 -0.02800
H 	H 	0.03856 0.59855 0.50681 0.15400
C 	C 	0.40625 0.08553 0.48129 -0.03500
H 	H 	0.48422 0.70762 0.55083 0.15500
O 	O 	0.48516 0.87162 0.01544 -0.27300
C 	C 	0.47999 0.04940 0.84056 -0.05100
C 	C 	0.43866 0.49762 0.97541 0.12200
C 	C 	0.44404 0.39673 0.93312 -0.12000
C 	C 	0.41659 0.11851 0.51118 0.12200
C 	C 	0.43690 0.03789 0.58131 -0.12000
H 	H 	0.42926 0.41892 0.03978 0.08600
H 	H 	0.45258 0.62406 0.98372 0.15400
C 	C 	0.48238 0.68256 0.43503 0.30600
C 	C 	0.45605 0.94157 0.36365 0.28000
H 	H 	0.48122 0.76799 0.48840 0.06300
C 	C 	0.47363 0.15553 0.62162 -0.12700
O 	O 	0.04832 0.49291 0.64817 -0.39500
H 	H 	0.53976 0.50531 0.43787 0.14700
H 	H 	0.44674 0.97719 0.57105 0.07800
O 	O 	0.03453 0.39718 0.68696 -0.36400
O 	O 	0.47070 0.91207 0.39025 -0.36200
O 	O 	0.49270 0.76709 0.42601 -0.38100
C 	C 	0.46253 0.75214 0.20966 -0.04600
C 	C 	0.52021 0.72057 0.48926 -0.03200
C 	C 	0.53030 0.67285 0.46308 -0.12100
O 	O 	0.49953 0.28504 0.90886 -0.37800
C 	C 	0.48092 0.07311 0.60912 0.18600
C 	C 	0.48315 0.48155 0.94963 -0.03400
O 	O 	0.47984 0.57899 0.99208 -0.27000
H 	H 	0.45260 0.12741 0.46437 0.06000
H 	H 	0.52968 0.83878 0.02003 0.15900
C 	C 	0.50100 0.37154 0.91014 0.30300
C 	C 	0.51478 0.99533 0.06623 0.01700
O 	O 	0.54456 0.74979 0.54241 -0.27600
C 	C 	0.50239 0.90921 0.11258 -0.02400
C 	C 	0.59877 0.53229 0.56017 0.11800
H 	H 	0.59999 0.44358 0.59720 0.06000
C 	C 	0.55698 0.70445 0.51684 0.12300
C 	C 	0.54871 0.26507 0.73086 -0.05500
C 	C 	0.54121 0.96418 0.01235 0.12700
O 	O 	0.53512 0.12582 0.88771 -0.36500
H 	H 	0.55251 0.95037 0.96445 0.06600
O 	O 	0.48299 0.20495 0.51857 -0.26900
C 	C 	0.54334 0.21025 0.64461 0.30000
C 	C 	0.58060 0.61112 0.46440 0.19400
O 	O 	0.59349 0.56631 0.43877 -0.30000
C 	C 	0.55231 0.08495 0.86357 0.28300
O 	O 	0.55438 0.17006 0.66992 -0.39700
C 	C 	0.53443 0.97909 0.34368 -0.03700
O 	O 	0.53451 0.02934 0.62338 -0.31400
C 	C 	0.60665 0.64216 0.51822 0.00600
C 	C 	0.56184 0.02646 0.03734 -0.00300
H 	H 	0.53168 0.87211 0.12816 0.06000
C 	C 	0.57310 0.99781 0.98382 -0.03400
H 	H 	0.54978 0.53355 0.94313 0.05900
O 	O 	0.58191 0.30195 0.64186 -0.37800
C 	C 	0.53574 0.80635 0.22044 -0.03200
C 	C 	0.61994 0.59719 0.49184 -0.11100
C 	C 	0.63210 0.51286 0.58788 -0.03500
C 	C 	0.55509 0.95311 0.08775 0.11100
H 	H 	0.54211 0.19314 0.52325 0.14200
O 	O 	0.56745 0.43873 0.89627 -0.41700
H 	H 	0.59414 0.25834 0.84515 0.15500
O 	O 	0.00534 0.89470 0.71515 -0.37600
O 	O 	0.00396 0.06509 0.77471 -0.40500
O 	O 	0.59821 0.95297 0.24627 -0.39900
C 	C 	0.59975 0.00538 0.32656 -0.05100
C 	C 	0.64149 0.62107 0.54742 0.00600
H 	H 	0.59910 0.05834 0.61532 0.12300
C 	C 	0.62053 0.12046 0.03401 -0.11000
Ni	Ni	0.61254 0.42317 0.85294 1.07100
O 	O 	0.61532 0.20561 0.94427 -0.37100
C 	C 	0.61423 0.87854 0.23509 0.26300
C 	C 	0.62626 0.09348 0.98005 -0.11900
Ni	Ni	0.62094 0.25780 0.90232 1.09800
H 	H 	0.65927 0.55010 0.49272 0.07600
O 	O 	0.63568 0.07901 0.85983 -0.40200
C 	C 	0.64075 0.13273 0.94951 0.29800
C 	C 	0.64230 0.30999 0.71929 0.30200
O 	O 	0.64344 0.94948 0.08359 -0.26500
H 	H 	0.63824 0.16829 0.05330 0.06900
O 	O 	0.63587 0.30603 0.85944 -0.70100
O 	O 	0.65117 0.07966 0.92678 -0.40300
C 	C 	0.65369 0.15391 0.00556 0.18600
O 	O 	0.65683 0.37722 0.69978 -0.35400
O 	O 	0.65907 0.42722 0.81032 -0.40300
C 	C 	0.67623 0.02590 0.30569 0.28500
H 	H 	0.68798 0.00708 0.09371 0.13900
O 	O 	0.68573 0.85606 0.24567 -0.35800
Ni	Ni	0.68201 0.16663 0.68485 1.06900
O 	O 	0.69348 0.49546 0.64897 -0.36600
Ni	Ni	0.68700 0.09117 0.24347 1.06500
H 	H 	0.67798 0.64076 0.97363 0.16400
O 	O 	0.69723 0.26129 0.71899 -0.41100
O 	O 	0.69904 0.10185 0.28928 -0.41000
C 	C 	0.70833 0.58146 0.60310 -0.12400
C 	C 	0.71626 0.69043 0.56284 -0.11100
O 	O 	0.70917 0.24666 0.00252 -0.29600
Ni	Ni	0.71516 0.37353 0.65799 1.09900
O 	O 	0.71371 0.96127 0.30082 -0.36200
O 	O 	0.71433 0.49549 0.00866 -0.27200
H 	H 	0.71850 0.61405 0.90999 0.06000
C 	C 	0.00340 0.38531 0.51606 0.00500
H 	H 	0.74869 0.75927 0.55324 0.07900
O 	O 	0.73376 0.68784 0.96436 -0.27800
C 	C 	0.74873 0.67165 0.59082 0.19400
Ni	Ni	0.74215 0.12648 0.89154 1.06600
H 	H 	0.73836 0.44452 0.00368 0.14800
O 	O 	0.74152 0.52008 0.86529 -0.39400
C 	C 	0.74901 0.55594 0.63058 0.30800
O 	O 	0.74943 0.25700 0.89259 -0.70600
C 	C 	0.75009 0.44984 0.80513 0.29300
O 	O 	0.75552 0.23858 0.23816 -0.39600
H 	H 	0.75575 0.23677 0.63745 0.15000
H 	H 	0.75542 0.50936 0.06656 0.06200
O 	O 	0.75989 0.26340 0.65809 -0.70000
Ni	Ni	0.77168 0.31962 0.85167 1.09900
H 	H 	0.77533 0.24902 0.00493 0.13300
C 	C 	0.77362 0.60417 0.92388 -0.04300
H 	H 	0.78746 0.77387 0.61875 0.15500
C 	C 	0.78675 0.63801 0.95363 0.12700
C 	C 	0.78939 0.56524 0.02231 0.11400
O 	O 	0.98287 0.92775 0.27096 -0.41400
O 	O 	0.98054 0.10990 0.21969 -0.37400
C 	C 	0.94363 0.49852 0.17018 0.29200
O 	O 	0.94721 0.58641 0.16964 -0.35400
C 	C 	0.96573 0.82203 0.30962 -0.06500
O 	O 	0.94509 0.69281 0.11685 -0.35700
O 	O 	0.90577 0.53590 0.10660 -0.41200
C 	C 	0.90970 0.62019 0.09830 0.30500
C 	C 	0.88285 0.43247 0.19065 -0.03900
C 	C 	0.84606 0.36492 0.20604 -0.03600
O 	O 	0.85546 0.39531 0.49887 -0.27600
H 	H 	0.82074 0.33266 0.48952 0.14600
C 	C 	0.80325 0.56529 0.05347 -0.03100
C 	C 	0.88187 0.63402 0.06745 -0.13400
C 	C 	0.94153 0.70849 0.05041 0.19000
C 	C 	0.92653 0.70917 0.01932 -0.11400
O 	O 	0.79444 0.39177 0.81196 -0.36400
O 	O 	0.89938 0.30062 0.84805 -0.35700
O 	O 	0.83126 0.14190 0.85494 -0.41000
H 	H 	0.79656 0.29362 0.90804 0.15300
C 	C 	0.79906 0.49979 0.88387 0.29600
C 	C 	0.90590 0.21656 0.84872 0.26700
O 	O 	0.84120 0.44234 0.87511 -0.36800
Ni	Ni	0.89749 0.32614 0.67266 1.09800
O 	O 	0.92009 0.20098 0.67513 -0.36000
O 	O 	0.79416 0.14113 0.70542 -0.40500
O 	O 	0.93923 0.33043 0.62825 -0.35900
O 	O 	0.85224 0.43710 0.67419 -0.69000
O 	O 	0.83857 0.60003 0.63801 -0.38200
Ni	Ni	0.93203 0.53004 0.64580 1.07400
H 	H 	0.85617 0.46336 0.69488 0.17000
O 	O 	0.87585 0.43712 0.61139 -0.43100
C 	C 	0.86334 0.13054 0.69026 0.26800
C 	C 	0.90835 0.36939 0.60588 0.30500
Ni	Ni	0.95402 0.92640 0.78799 1.07100
O 	O 	0.88783 0.88413 0.74707 -0.39100
O 	O 	0.94207 0.73242 0.75474 -0.37400
C 	C 	0.93169 0.91568 0.72228 0.29800
C 	C 	0.90457 0.71808 0.78170 0.28100
O 	O 	0.90794 0.78888 0.80008 -0.40100
Ni	Ni	0.79970 0.95665 0.26582 1.10600
O 	O 	0.90896 0.06863 0.28448 -0.69700
Ni	Ni	0.92110 0.16362 0.25268 1.10200
O 	O 	0.83647 0.85673 0.28853 -0.35900
O 	O 	0.79962 0.06027 0.23882 -0.70700
O 	O 	0.90085 0.24714 0.22063 -0.36800
H 	H 	0.88948 0.09098 0.30337 0.15900
H 	H 	0.80297 0.04107 0.21762 0.16300
C 	C 	0.92445 0.86067 0.28656 0.27700
C 	C 	0.83063 0.27802 0.22106 0.27000
C 	C 	0.91009 0.37926 0.52154 0.11500
C 	C 	0.87519 0.36390 0.55076 -0.03600
C 	C 	0.93316 0.35489 0.57465 -0.12500
H 	H 	0.80512 0.36463 0.55515 0.05100
O 	O 	0.81995 0.74129 0.60601 -0.28800
C 	C 	0.89343 0.05469 0.69806 -0.03300
C 	C 	0.91336 0.99034 0.70748 -0.06000
C 	C 	0.91644 0.58114 0.96017 -0.11500
C 	C 	0.85488 0.62186 0.97227 -0.00200
C 	C 	0.82835 0.55381 0.91256 -0.12100
C 	C 	0.90376 0.54712 0.93046 0.18200
C 	C 	0.85371 0.63520 0.00501 0.00600
O 	O 	0.96657 0.51003 0.91876 -0.27200
H 	H 	0.97168 0.57209 0.97425 0.06900
H 	H 	0.97504 0.76423 0.00611 0.07800
H 	H 	0.94368 0.44355 0.92504 0.13600
C 	C 	0.97813 0.20025 0.83130 -0.04300
C 	C 	0.80425 0.54388 0.79641 -0.04200
C 	C 	0.84977 0.62361 0.78983 -0.03500
