data_crystal

_cell_length_a 44.84775
_cell_length_b 44.38774
_cell_length_c 34.72720
_cell_angle_alpha 89.95748
_cell_angle_beta  89.95634
_cell_angle_gamma 90.48660

_symmetry_space_group_name_	'P 1'
_symmetry_space_group_name_H-M	'P 1'

loop_
_symmetry_equiv_pos_as_xyz
  x,y,z

loop_
_atom_site_label
_atom_site_type_symbol
_atom_site_fract_x
_atom_site_fract_y
_atom_site_fract_z
_atom_site_charge
Zn	Zn	0.48210 0.49942 0.99947 1.22300
C 	C 	0.50626 0.55989 0.00195 0.33000
O 	O 	0.50493 0.47798 0.03887 -0.47600
O 	O 	0.48696 0.56460 0.02975 -0.45200
O 	O 	0.52038 0.51843 0.07330 -0.49300
C 	C 	0.42805 0.52505 0.02594 0.32400
O 	O 	0.44571 0.52253 0.99601 -0.45100
O 	O 	0.43887 0.52208 0.06089 -0.50700
C 	C 	0.52578 0.49187 0.05855 0.31900
O 	O 	0.45163 0.45648 0.99179 -0.32700
Zn	Zn	0.47987 0.53386 0.07336 1.16900
O 	O 	0.51030 0.53258 0.98827 -0.43200
C 	C 	0.46674 0.45172 0.96054 0.27800
O 	O 	0.48700 0.47185 0.95281 -0.38200
Zn	Zn	0.40217 0.13142 0.01331 1.22100
C 	C 	0.42634 0.13124 0.09048 0.34600
O 	O 	0.35899 0.12306 0.01680 -0.46100
O 	O 	0.41798 0.15932 0.09461 -0.45100
O 	O 	0.35597 0.13681 0.07971 -0.49400
C 	C 	0.41790 0.19390 0.01296 0.34200
O 	O 	0.42865 0.16653 0.01181 -0.45400
O 	O 	0.39257 0.19916 0.03042 -0.51200
C 	C 	0.34484 0.12243 0.04996 0.31300
O 	O 	0.39820 0.13664 0.94554 -0.32200
Zn	Zn	0.37801 0.17416 0.07252 1.17100
O 	O 	0.41510 0.11451 0.06283 -0.44000
C 	C 	0.41109 0.11059 0.94439 0.30400
O 	O 	0.41766 0.09905 0.97744 -0.38200
C 	C 	0.55142 0.99728 0.30924 0.14800
C 	C 	0.53199 0.01659 0.28969 -0.11600
H 	H 	0.51644 0.03023 0.30586 0.07500
C 	C 	0.53247 0.01796 0.24939 0.08000
C 	C 	0.55245 0.00009 0.22862 -0.10300
C 	C 	0.57185 0.98075 0.24809 0.08000
C 	C 	0.57139 0.97940 0.28840 -0.11600
H 	H 	0.58627 0.96437 0.30356 0.07500
N 	N 	0.55042 0.99534 0.35055 -0.18300
C 	C 	0.53235 0.97416 0.36772 0.19800
C 	C 	0.53057 0.97236 0.40815 -0.08100
C 	C 	0.54689 0.99295 0.43069 0.06100
C 	C 	0.56638 0.01350 0.41268 -0.08100
C 	C 	0.56763 0.01460 0.37217 0.19800
C 	C 	0.51369 0.94963 0.42619 0.01000
C 	C 	0.51216 0.94808 0.46628 -0.05800
C 	C 	0.52542 0.97083 0.48926 0.01600
C 	C 	0.54432 0.99241 0.47137 -0.02900
C 	C 	0.56167 0.01257 0.49386 0.01600
C 	C 	0.58513 0.03179 0.43524 0.01000
C 	C 	0.58370 0.03043 0.47534 -0.05800
C 	C 	0.52139 0.97159 0.52991 0.01600
C 	C 	0.53870 0.99178 0.55240 -0.02900
C 	C 	0.55764 0.01333 0.53451 0.01600
O 	O 	0.58527 0.03435 0.35494 -0.20200
O 	O 	0.51641 0.95557 0.34627 -0.20300
H 	H 	0.60161 0.04637 0.42182 0.04300
H 	H 	0.60078 0.04202 0.49165 0.04600
H 	H 	0.50254 0.93242 0.40927 0.04300
H 	H 	0.50204 0.92833 0.47913 0.04600
C 	C 	0.57089 0.03610 0.55749 -0.05800
C 	C 	0.56924 0.03463 0.59757 0.01000
C 	C 	0.55228 0.01196 0.61562 -0.08100
C 	C 	0.53606 0.99130 0.59307 0.06100
C 	C 	0.49936 0.95372 0.54841 -0.05800
C 	C 	0.49788 0.95240 0.58850 0.01000
C 	C 	0.51655 0.97075 0.61107 -0.08100
C 	C 	0.55030 0.01032 0.65606 0.19800
N 	N 	0.53219 0.98918 0.67322 -0.18300
C 	C 	0.51519 0.96974 0.65158 0.19800
C 	C 	0.53080 0.98753 0.71452 0.14900
C 	C 	0.55080 0.96923 0.73471 -0.11600
C 	C 	0.54926 0.96741 0.77494 0.08100
C 	C 	0.52776 0.98390 0.79498 -0.10300
C 	C 	0.50774 0.00216 0.77490 0.08100
C 	C 	0.50927 0.00402 0.73467 -0.11600
O 	O 	0.56604 0.02908 0.67752 -0.20200
O 	O 	0.49764 0.94990 0.66878 -0.20100
H 	H 	0.56736 0.95643 0.71908 0.07600
H 	H 	0.49381 0.01811 0.71901 0.07600
H 	H 	0.58109 0.05580 0.54463 0.04600
H 	H 	0.58038 0.05186 0.61448 0.04300
H 	H 	0.48232 0.94209 0.53209 0.04600
H 	H 	0.48140 0.93780 0.60190 0.04400
H 	H 	0.52653 0.98243 0.82614 0.06500
H 	H 	0.55270 0.00103 0.19740 0.06400
Zn	Zn	0.67498 0.85122 0.01209 1.22000
C 	C 	0.66511 0.85303 0.09388 0.34300
O 	O 	0.70735 0.87803 0.02969 -0.44800
O 	O 	0.69266 0.84433 0.09955 -0.45200
O 	O 	0.73971 0.83935 0.03773 -0.51000
C 	C 	0.66557 0.78711 0.01848 0.31500
O 	O 	0.66970 0.80965 0.99445 -0.46300
O 	O 	0.67656 0.78859 0.05343 -0.49400
C 	C 	0.73469 0.86830 0.03417 0.32700
O 	O 	0.68607 0.86396 0.94723 -0.32300
Zn	Zn	0.71192 0.81255 0.06428 1.17100
O 	O 	0.65224 0.84869 0.06038 -0.44200
C 	C 	0.66191 0.87975 0.94920 0.30300
O 	O 	0.64791 0.87889 0.98171 -0.38300
Zn	Zn	0.11034 0.64177 0.97614 1.22200
C 	C 	0.10487 0.63042 0.05778 0.34600
O 	O 	0.10017 0.68423 0.96627 -0.46000
O 	O 	0.13138 0.64237 0.06342 -0.45200
O 	O 	0.10768 0.69872 0.02825 -0.49700
C 	C 	0.17215 0.63050 0.99052 0.34700
O 	O 	0.14578 0.61785 0.98675 -0.45100
O 	O 	0.17453 0.65924 0.99868 -0.51100
C 	C 	0.09553 0.70336 0.99445 0.31800
O 	O 	0.12079 0.63511 0.90968 -0.32300
Zn	Zn	0.14602 0.67912 0.03208 1.17000
O 	O 	0.09015 0.63592 0.02591 -0.44100
C 	C 	0.09571 0.62035 0.90927 0.30400
O 	O 	0.08187 0.61835 0.94180 -0.38300
C 	C 	0.97616 0.49560 0.27402 0.14900
C 	C 	0.95734 0.47658 0.25261 -0.11600
H 	H 	0.94324 0.46028 0.26729 0.07600
C 	C 	0.95660 0.47889 0.21238 0.08100
C 	C 	0.97471 0.50015 0.19357 -0.10300
C 	C 	0.99346 0.51922 0.21490 0.08000
C 	C 	0.99426 0.51689 0.25512 -0.11600
H 	H 	0.00867 0.53167 0.27175 0.07400
N 	N 	0.97648 0.49369 0.31534 -0.18300
C 	C 	0.99516 0.47370 0.33307 0.19800
C 	C 	0.99626 0.47203 0.37355 -0.08100
C 	C 	0.97863 0.49156 0.39557 0.06200
C 	C 	0.95858 0.51085 0.37695 -0.08100
C 	C 	0.95801 0.51183 0.33642 0.19800
C 	C 	0.01380 0.45039 0.39212 0.01000
C 	C 	0.01460 0.44891 0.43224 -0.05900
C 	C 	0.99988 0.47078 0.45481 0.01700
C 	C 	0.98044 0.49119 0.43631 -0.02900
C 	C 	0.96184 0.51030 0.45823 0.01600
C 	C 	0.93866 0.52798 0.39891 0.01100
C 	C 	0.93943 0.52677 0.43904 -0.05800
C 	C 	0.00297 0.47169 0.49559 0.01500
C 	C 	0.98437 0.49082 0.51748 -0.02800
C 	C 	0.96505 0.51131 0.49896 0.01500
O 	O 	0.93979 0.53039 0.31865 -0.20300
O 	O 	0.01233 0.45616 0.31212 -0.20300
H 	H 	0.92181 0.54153 0.38499 0.04300
H 	H 	0.92161 0.53736 0.45484 0.04600
H 	H 	0.02604 0.43392 0.37556 0.04300
H 	H 	0.02534 0.42982 0.44540 0.04600
C 	C 	0.95051 0.53333 0.52147 -0.05800
C 	C 	0.95129 0.53188 0.56159 0.01000
C 	C 	0.96856 0.51005 0.58021 -0.08100
C 	C 	0.98605 0.49036 0.55823 0.06200
C 	C 	0.02521 0.45502 0.51487 -0.05700
C 	C 	0.02573 0.45361 0.55500 0.01000
C 	C 	0.00581 0.47080 0.57690 -0.08100
C 	C 	0.96949 0.50827 0.62068 0.19800
N 	N 	0.98769 0.48785 0.63845 -0.18300
C 	C 	0.00606 0.46957 0.61743 0.19800
C 	C 	0.98744 0.48552 0.67973 0.14900
C 	C 	0.00781 0.50237 0.70173 -0.11600
C 	C 	0.00737 0.50026 0.74199 0.08100
C 	C 	0.98656 0.48135 0.76024 -0.10200
C 	C 	0.96617 0.46454 0.73833 0.08100
C 	C 	0.96664 0.46658 0.69808 -0.11600
O 	O 	0.95261 0.52613 0.64159 -0.20100
O 	O 	0.02380 0.45057 0.63524 -0.20200
H 	H 	0.02381 0.51706 0.68750 0.07600
H 	H 	0.95088 0.45362 0.68102 0.07500
H 	H 	0.93992 0.55249 0.50825 0.04600
H 	H 	0.93918 0.54847 0.57812 0.04400
H 	H 	0.04308 0.44444 0.49918 0.04600
H 	H 	0.04241 0.43990 0.56899 0.04400
H 	H 	0.98618 0.47978 0.79142 0.06500
H 	H 	0.97402 0.50204 0.16242 0.06500
Zn	Zn	0.83242 0.36427 0.97026 1.22200
C 	C 	0.83200 0.37671 0.88882 0.34600
O 	O 	0.79197 0.37022 0.99066 -0.46300
O 	O 	0.82115 0.34964 0.88218 -0.44900
O 	O 	0.76909 0.36554 0.93257 -0.49300
C 	C 	0.84572 0.30417 0.94644 0.32700
O 	O 	0.85642 0.33168 0.94953 -0.45400
O 	O 	0.81687 0.29968 0.94291 -0.50800
C 	C 	0.76928 0.37570 0.96800 0.33800
O 	O 	0.84864 0.34905 0.03226 -0.32600
Zn	Zn	0.79095 0.32938 0.91912 1.17100
O 	O 	0.82994 0.38872 0.92323 -0.43900
C 	C 	0.86159 0.37528 0.03319 0.30400
O 	O 	0.85819 0.39194 0.00303 -0.38600
Zn	Zn	0.01896 0.02918 0.04268 1.22100
C 	C 	0.03449 0.96647 0.03482 0.33700
O 	O 	0.98499 0.02827 0.07847 -0.47100
O 	O 	0.05098 0.97044 0.06572 -0.45200
O 	O 	0.99491 0.98358 0.10701 -0.49600
C 	C 	0.07682 0.03599 0.07585 0.34800
O 	O 	0.06222 0.03209 0.04356 -0.45400
O 	O 	0.06436 0.02876 0.10879 -0.51000
C 	C 	0.97562 0.00290 0.09366 0.34000
O 	O 	0.01877 0.08223 0.04489 -0.32400
Zn	Zn	0.03663 0.99477 0.11269 1.17000
O 	O 	0.01621 0.98763 0.02310 -0.43600
C 	C 	0.00679 0.08069 0.01098 0.28800
O 	O 	0.00256 0.05372 0.99777 -0.37400
C 	C 	0.86604 0.27823 0.94774 -0.10000
C 	C 	0.85598 0.25035 0.96211 0.02200
C 	C 	0.87539 0.22594 0.96410 -0.06900
C 	C 	0.90502 0.22908 0.95159 0.03000
C 	C 	0.91499 0.25679 0.93668 -0.06800
C 	C 	0.89562 0.28127 0.93484 0.02400
C 	C 	0.92595 0.20382 0.95598 0.00200
C 	C 	0.91979 0.17593 0.93851 -0.03800
C 	C 	0.93786 0.15109 0.94615 -0.03200
C 	C 	0.96226 0.15404 0.97109 -0.00200
C 	C 	0.96916 0.18216 0.98725 -0.02700
C 	C 	0.95106 0.20696 0.97978 -0.03900
C 	C 	0.97829 0.12774 0.98330 0.04300
C 	C 	0.99146 0.10603 0.99504 -0.08400
H 	H 	0.83329 0.24772 0.97235 0.03000
H 	H 	0.86755 0.20471 0.97594 0.04900
H 	H 	0.93778 0.25939 0.92677 0.05000
H 	H 	0.90357 0.30254 0.92326 0.03800
H 	H 	0.90064 0.17334 0.91976 0.04000
H 	H 	0.93243 0.12943 0.93348 0.04300
H 	H 	0.98801 0.18460 0.00655 0.04000
H 	H 	0.95603 0.22838 0.99339 0.04400
C 	C 	0.84823 0.39234 0.85921 -0.12700
C 	C 	0.86252 0.40571 0.83515 0.08000
C 	C 	0.88030 0.42200 0.80735 -0.07000
C 	C 	0.90626 0.41078 0.79522 -0.02800
C 	C 	0.92700 0.42948 0.77409 0.01600
C 	C 	0.94469 0.44533 0.75731 -0.04300
H 	H 	0.91295 0.38826 0.80375 0.04300
H 	H 	0.87356 0.44448 0.79875 0.05500
C 	C 	0.87893 0.38522 0.06554 -0.10600
C 	C 	0.89372 0.39444 0.09207 0.07000
C 	C 	0.91167 0.40646 0.12296 -0.06400
C 	C 	0.90056 0.42741 0.14652 -0.03000
C 	C 	0.92017 0.44484 0.17087 0.01700
C 	C 	0.93669 0.46005 0.19030 -0.04400
H 	H 	0.87714 0.43336 0.14494 0.04500
H 	H 	0.93506 0.40041 0.12465 0.05300
C 	C 	0.07917 0.73147 0.98724 -0.09900
C 	C 	0.06461 0.74603 0.01771 0.01600
C 	C 	0.05325 0.77496 0.01264 -0.07400
C 	C 	0.05619 0.78961 0.97698 0.03200
C 	C 	0.06899 0.77431 0.94579 -0.06900
C 	C 	0.08041 0.74534 0.95087 0.01800
C 	C 	0.04918 0.82195 0.97378 -0.00100
C 	C 	0.02067 0.83227 0.98367 -0.03800
C 	C 	0.01588 0.86305 0.98935 -0.03400
C 	C 	0.03949 0.88367 0.98494 -0.00300
C 	C 	0.06723 0.87365 0.97180 -0.03400
C 	C 	0.07209 0.84289 0.96625 -0.03800
C 	C 	0.03688 0.91363 0.00033 0.04600
C 	C 	0.03542 0.93814 0.01507 -0.11300
H 	H 	0.06289 0.73530 0.04567 0.03300
H 	H 	0.04326 0.78649 0.03686 0.04500
H 	H 	0.07103 0.78527 0.91802 0.04800
H 	H 	0.09132 0.73426 0.92699 0.03500
H 	H 	0.00267 0.81635 0.98885 0.04000
H 	H 	0.99426 0.87065 0.99913 0.04200
H 	H 	0.08552 0.88948 0.96797 0.04100
H 	H 	0.09412 0.83522 0.95826 0.03800
C 	C 	0.08435 0.60618 0.87511 -0.10400
C 	C 	0.07391 0.59384 0.84723 0.07100
C 	C 	0.06042 0.57861 0.81491 -0.06300
C 	C 	0.06415 0.54897 0.81018 -0.03000
C 	C 	0.04475 0.53215 0.78488 0.01800
C 	C 	0.02798 0.51777 0.76477 -0.04300
H 	H 	0.07986 0.53684 0.82815 0.04600
H 	H 	0.04484 0.59078 0.79682 0.05400
C 	C 	0.01138 0.54158 0.19543 -0.04400
C 	C 	0.02601 0.56014 0.17829 0.01500
C 	C 	0.04307 0.58211 0.15681 -0.02800
C 	C 	0.06706 0.57368 0.13673 -0.07100
C 	C 	0.08084 0.59412 0.10967 0.07900
C 	C 	0.09201 0.61089 0.08633 -0.12900
H 	H 	0.07511 0.55070 0.13868 0.05400
H 	H 	0.03504 0.60510 0.15494 0.04200
C 	C 	0.75968 0.88991 0.03710 -0.10200
C 	C 	0.75601 0.91730 0.05672 0.02300
C 	C 	0.78059 0.93621 0.06335 -0.06900
C 	C 	0.80895 0.92799 0.05015 0.02900
C 	C 	0.81242 0.90116 0.02936 -0.07000
C 	C 	0.78792 0.88220 0.02290 0.02100
C 	C 	0.83528 0.94658 0.05975 0.00200
C 	C 	0.85150 0.96098 0.03038 -0.04000
C 	C 	0.87869 0.97515 0.03870 -0.03000
C 	C 	0.88984 0.97499 0.07640 -0.01100
C 	C 	0.87305 0.96175 0.10606 -0.03100
C 	C 	0.84581 0.94762 0.09778 -0.04100
C 	C 	0.91970 0.98564 0.08380 0.05600
C 	C 	0.94506 0.99388 0.08899 -0.12100
H 	H 	0.73434 0.92348 0.06789 0.03700
H 	H 	0.77769 0.95696 0.07926 0.04900
H 	H 	0.83423 0.89471 0.01895 0.04700
H 	H 	0.79097 0.86130 0.00735 0.02900
H 	H 	0.84345 0.96045 0.00098 0.04200
H 	H 	0.89152 0.98544 0.01564 0.04200
H 	H 	0.88149 0.96160 0.13529 0.03700
H 	H 	0.83340 0.93661 0.12066 0.03900
C 	C 	0.65035 0.89577 0.91665 -0.10400
C 	C 	0.63981 0.90952 0.89005 0.07100
C 	C 	0.62630 0.92634 0.85921 -0.06300
C 	C 	0.60457 0.91388 0.83800 -0.03000
C 	C 	0.58575 0.93254 0.81445 0.01700
C 	C 	0.56942 0.94832 0.79583 -0.04300
H 	H 	0.59906 0.89012 0.84119 0.04500
H 	H 	0.63190 0.95007 0.85588 0.05400
C 	C 	0.59176 0.96185 0.22654 -0.04300
C 	C 	0.60812 0.94618 0.20781 0.01500
C 	C 	0.62733 0.92770 0.18457 -0.02800
C 	C 	0.61959 0.89924 0.17637 -0.07100
C 	C 	0.63605 0.88246 0.14803 0.07900
C 	C 	0.64948 0.86878 0.12366 -0.12800
H 	H 	0.59973 0.88920 0.18917 0.05400
H 	H 	0.64721 0.93773 0.17182 0.04300
C 	C 	0.31516 0.10797 0.05290 -0.10100
C 	C 	0.30412 0.09877 0.08896 0.01800
C 	C 	0.27483 0.08809 0.09248 -0.07000
C 	C 	0.25633 0.08641 0.06000 0.02800
C 	C 	0.26763 0.09456 0.02374 -0.07200
C 	C 	0.29692 0.10524 0.02017 0.01400
C 	C 	0.22482 0.07721 0.06417 0.00100
C 	C 	0.21421 0.05104 0.04594 -0.04100
C 	C 	0.18418 0.04274 0.04918 -0.03000
C 	C 	0.16457 0.06053 0.07066 -0.01200
C 	C 	0.17515 0.08656 0.08910 -0.03100
C 	C 	0.20518 0.09490 0.08588 -0.04100
C 	C 	0.13351 0.05231 0.07317 0.05600
C 	C 	0.10756 0.04511 0.07476 -0.12300
H 	H 	0.31808 0.10024 0.11434 0.03300
H 	H 	0.26641 0.08146 0.12051 0.04600
H 	H 	0.25352 0.09323 0.99848 0.05200
H 	H 	0.30511 0.11221 0.99217 0.04000
H 	H 	0.22922 0.03719 0.02924 0.04100
H 	H 	0.17613 0.02256 0.03487 0.03900
H 	H 	0.16010 0.10043 0.10573 0.03800
H 	H 	0.21315 0.11521 0.09994 0.03800
C 	C 	0.42416 0.09931 0.90960 -0.10400
C 	C 	0.43608 0.08927 0.88131 0.07100
C 	C 	0.45138 0.07662 0.84866 -0.06300
C 	C 	0.44631 0.04797 0.83844 -0.03000
C 	C 	0.46742 0.03234 0.81452 0.01800
C 	C 	0.48556 0.01882 0.79578 -0.04300
H 	H 	0.42812 0.03528 0.85153 0.04600
H 	H 	0.46943 0.08940 0.83535 0.05400
C 	C 	0.44660 0.11816 0.11760 -0.12800
C 	C 	0.46356 0.10652 0.13992 0.07900
C 	C 	0.48381 0.09189 0.16603 -0.07100
C 	C 	0.47383 0.07048 0.19007 -0.02800
C 	C 	0.49453 0.05246 0.21168 0.01500
C 	C 	0.51182 0.03694 0.22918 -0.04400
H 	H 	0.45014 0.06528 0.19179 0.04300
H 	H 	0.50749 0.09713 0.16433 0.05400
C 	C 	0.46733 0.42157 0.94308 -0.07600
C 	C 	0.49467 0.40703 0.93732 0.01200
C 	C 	0.49538 0.37576 0.93233 -0.06200
C 	C 	0.46876 0.35888 0.93302 0.02500
C 	C 	0.44135 0.37389 0.93451 -0.06200
C 	C 	0.44066 0.40510 0.93946 0.01300
C 	C 	0.46958 0.32593 0.93897 0.00500
C 	C 	0.45267 0.30674 0.91520 -0.04200
C 	C 	0.44669 0.27709 0.92673 -0.02900
C 	C 	0.45780 0.26640 0.96187 -0.01200
C 	C 	0.47712 0.28456 0.98363 -0.02500
C 	C 	0.48300 0.31423 0.97225 -0.04300
C 	C 	0.44511 0.23961 0.97884 0.05600
C 	C 	0.43332 0.21817 0.99404 -0.11500
H 	H 	0.51544 0.41957 0.93943 0.03900
H 	H 	0.51665 0.36448 0.93026 0.04600
H 	H 	0.42063 0.36117 0.93444 0.04700
H 	H 	0.41941 0.41620 0.94298 0.03500
H 	H 	0.44272 0.31531 0.88902 0.04100
H 	H 	0.43206 0.26303 0.90945 0.04100
H 	H 	0.48611 0.27634 0.01058 0.03400
H 	H 	0.49638 0.32870 0.99063 0.04200
C 	C 	0.39612 0.53147 0.02033 -0.10300
C 	C 	0.38010 0.54704 0.04870 0.02100
C 	C 	0.35035 0.55473 0.04236 -0.06800
C 	C 	0.33628 0.54686 0.00767 0.01900
C 	C 	0.35201 0.53064 0.97971 -0.06300
C 	C 	0.38179 0.52296 0.98599 0.02700
C 	C 	0.30566 0.55706 0.99984 0.01200
C 	C 	0.30030 0.57752 0.96984 -0.04300
C 	C 	0.27196 0.58985 0.96511 -0.02900
C 	C 	0.24880 0.58181 0.99030 -0.00800
C 	C 	0.25377 0.56042 0.01926 -0.03300
C 	C 	0.28210 0.54804 0.02399 -0.04700
C 	C 	0.22114 0.59802 0.98931 0.05600
C 	C 	0.19847 0.61240 0.98933 -0.12100
H 	H 	0.39087 0.55380 0.07527 0.02000
H 	H 	0.33841 0.56735 0.06407 0.04300
H 	H 	0.34126 0.52426 0.95296 0.04800
H 	H 	0.39373 0.51052 0.96411 0.03700
H 	H 	0.31832 0.58458 0.95099 0.04300
H 	H 	0.26827 0.60636 0.94265 0.04000
H 	H 	0.23595 0.55406 0.03880 0.03900
H 	H 	0.28593 0.53203 0.04699 0.04100
C 	C 	0.55617 0.47944 0.05957 -0.10200
C 	C 	0.58108 0.49886 0.05958 0.02100
C 	C 	0.60965 0.48738 0.05356 -0.06800
C 	C 	0.61357 0.45640 0.04757 0.02500
C 	C 	0.58892 0.43681 0.04973 -0.06800
C 	C 	0.56037 0.44825 0.05578 0.01900
C 	C 	0.64294 0.44479 0.03585 0.00800
C 	C 	0.65572 0.45403 0.00080 -0.05500
C 	C 	0.68217 0.44101 0.98789 -0.01400
C 	C 	0.69603 0.41867 0.00988 -0.02600
C 	C 	0.68373 0.40993 0.04533 -0.02400
C 	C 	0.65728 0.42296 0.05831 -0.04700
C 	C 	0.72209 0.40376 0.99526 0.06300
C 	C 	0.74372 0.39107 0.98282 -0.12500
H 	H 	0.57821 0.52296 0.06256 0.03300
H 	H 	0.62861 0.50264 0.05239 0.04600
H 	H 	0.59174 0.41283 0.04539 0.04600
H 	H 	0.54140 0.43297 0.05631 0.03300
H 	H 	0.64477 0.47078 0.98318 0.04800
H 	H 	0.69160 0.44791 0.96049 0.03700
H 	H 	0.69440 0.39274 0.06255 0.03700
H 	H 	0.64767 0.41576 0.08547 0.04100
C 	C 	0.64910 0.75982 0.00596 -0.10600
C 	C 	0.65128 0.73298 0.02723 0.02300
C 	C 	0.63466 0.70758 0.01655 -0.07700
C 	C 	0.61581 0.70860 0.98436 0.03500
C 	C 	0.61419 0.73511 0.96244 -0.07200
C 	C 	0.63070 0.76063 0.97320 0.02800
C 	C 	0.59616 0.68266 0.97547 -0.00000
C 	C 	0.60836 0.65397 0.96979 -0.03900
C 	C 	0.58976 0.62853 0.96873 -0.03200
C 	C 	0.55886 0.63165 0.97300 -0.00800
C 	C 	0.54651 0.66046 0.97580 -0.03200
C 	C 	0.56507 0.68589 0.97711 -0.03800
C 	C 	0.54053 0.60556 0.98074 0.05000
C 	C 	0.52498 0.58430 0.98926 -0.11000
H 	H 	0.66566 0.73182 0.05222 0.02100
H 	H 	0.63596 0.68727 0.03378 0.04600
H 	H 	0.59979 0.73609 0.93744 0.05000
H 	H 	0.62879 0.78111 0.95645 0.03700
H 	H 	0.63230 0.65127 0.96783 0.04000
H 	H 	0.59947 0.60634 0.96629 0.04100
H 	H 	0.52262 0.66307 0.97889 0.04000
H 	H 	0.55538 0.70793 0.98124 0.04100
