data_crystal

_cell_length_a 29.92231
_cell_length_b 28.77620
_cell_length_c 22.02647
_cell_angle_alpha 88.42504
_cell_angle_beta  92.29781
_cell_angle_gamma 90.02012

_symmetry_space_group_name_	'P 1'
_symmetry_space_group_name_H-M	'P 1'

loop_
_symmetry_equiv_pos_as_xyz
  x,y,z

loop_
_atom_site_label
_atom_site_type_symbol
_atom_site_fract_x
_atom_site_fract_y
_atom_site_fract_z
_atom_site_charge
C 	C 	0.67687 0.29044 0.00242 0.03700
C 	C 	0.65673 0.24833 0.01958 -0.01400
C 	C 	0.68112 0.20688 0.01985 -0.05400
C 	C 	0.72571 0.20710 0.00263 0.08900
C 	C 	0.74565 0.24939 0.98448 -0.06100
C 	C 	0.72131 0.29078 0.98462 -0.02100
N 	N 	0.75051 0.16394 0.00399 -0.13700
C 	C 	0.81941 0.14201 0.84185 0.03800
C 	C 	0.84260 0.15960 0.89279 -0.01600
C 	C 	0.82033 0.16676 0.94630 -0.05700
C 	C 	0.77449 0.15597 0.94948 0.07900
C 	C 	0.75158 0.13790 0.89859 -0.05300
C 	C 	0.77392 0.13093 0.84501 -0.02100
C 	C 	0.82758 0.12636 0.16453 0.03800
C 	C 	0.80605 0.09221 0.12986 -0.01600
C 	C 	0.77953 0.10499 0.07840 -0.05300
C 	C 	0.77477 0.15195 0.06053 0.08400
C 	C 	0.79554 0.18630 0.09650 -0.05700
C 	C 	0.82157 0.17342 0.14827 -0.02100
H 	H 	0.62226 0.24776 0.03287 0.06500
H 	H 	0.66546 0.17454 0.03357 0.06700
H 	H 	0.78017 0.25033 0.97175 0.06300
H 	H 	0.73703 0.32317 0.97113 0.05900
H 	H 	0.87775 0.16826 0.89064 0.06600
H 	H 	0.83838 0.18161 0.98463 0.05900
H 	H 	0.71638 0.12952 0.90058 0.06300
H 	H 	0.75582 0.11724 0.80585 0.06000
H 	H 	0.81069 0.05574 0.14199 0.07000
H 	H 	0.76360 0.07834 0.05134 0.06800
H 	H 	0.79290 0.22266 0.08351 0.06400
H 	H 	0.83825 0.19999 0.17473 0.06000
C 	C 	0.30651 0.82721 0.97147 0.03500
C 	C 	0.26144 0.83015 0.95168 -0.02400
C 	C 	0.23829 0.87214 0.95474 -0.05900
C 	C 	0.26044 0.91206 0.97638 0.08300
C 	C 	0.30545 0.90890 0.99617 -0.05900
C 	C 	0.32821 0.86658 0.99462 -0.02000
N 	N 	0.23737 0.95602 0.97962 -0.14300
C 	C 	0.17864 0.98911 0.14568 -0.00600
C 	C 	0.20074 0.02335 0.11183 0.00400
C 	C 	0.22120 0.01186 0.05830 -0.04600
C 	C 	0.21964 0.96611 0.03797 0.07200
C 	C 	0.19886 0.93136 0.07337 -0.06400
C 	C 	0.17868 0.94290 0.12706 -0.00800
C 	C 	0.15213 0.99610 0.82800 -0.02600
C 	C 	0.13412 0.97302 0.87825 0.00900
C 	C 	0.16195 0.95894 0.92778 -0.07800
C 	C 	0.20826 0.96810 0.92759 0.09900
C 	C 	0.22619 0.99039 0.87669 -0.09500
C 	C 	0.19827 0.00443 0.82715 0.04100
H 	H 	0.24424 0.79979 0.93450 0.05700
H 	H 	0.20320 0.87347 0.94108 0.06000
H 	H 	0.32261 0.93923 0.01345 0.06200
H 	H 	0.36273 0.86439 0.01125 0.06500
H 	H 	0.20095 0.05910 0.12605 0.05500
H 	H 	0.23731 0.03873 0.03165 0.06500
H 	H 	0.19676 0.89599 0.05823 0.05800
H 	H 	0.16166 0.91626 0.15305 0.05000
H 	H 	0.09852 0.96627 0.87905 0.05100
H 	H 	0.14766 0.94060 0.96587 0.06600
H 	H 	0.26173 0.99738 0.87599 0.07000
H 	H 	0.21239 0.02224 0.78842 0.04900
Zn	Zn	0.47905 0.59517 0.93926 1.22500
Zn	Zn	0.42994 0.57744 0.07311 1.20400
C 	C 	0.58290 0.46478 0.99672 0.35500
Zn	Zn	0.51026 0.52223 0.04037 1.22800
Zn	Zn	0.57253 0.55327 0.92743 1.20500
H 	H 	0.43539 0.52176 0.98597 0.19600
C 	C 	0.52483 0.58668 0.13585 0.34500
O 	O 	0.56229 0.58720 0.84871 -0.44600
O 	O 	0.51357 0.64179 0.88043 -0.37500
O 	O 	0.45468 0.54674 0.00254 -0.79000
O 	O 	0.41818 0.64279 0.04358 -0.41800
O 	O 	0.46600 0.55361 0.87053 -0.42800
O 	O 	0.43435 0.64563 0.94234 -0.42100
O 	O 	0.52271 0.50279 0.89702 -0.37800
O 	O 	0.43428 0.53068 0.14217 -0.42200
H 	H 	0.54723 0.60666 0.00953 0.19700
O 	O 	0.47433 0.47471 0.09532 -0.36300
O 	O 	0.53402 0.57976 0.98825 -0.79100
O 	O 	0.60347 0.50188 0.97558 -0.43800
O 	O 	0.53789 0.54696 0.11511 -0.41100
O 	O 	0.54055 0.46656 0.01042 -0.39300
O 	O 	0.49133 0.60933 0.10868 -0.40200
C 	C 	0.54324 0.62831 0.84212 0.33800
C 	C 	0.40941 0.65809 0.98741 0.33500
C 	C 	0.48596 0.51331 0.86477 0.33400
C 	C 	0.45009 0.48786 0.14042 0.33800
C 	C 	0.42703 0.38802 0.67905 0.03300
C 	C 	0.38307 0.38969 0.65456 -0.01500
C 	C 	0.37080 0.36287 0.60469 -0.06000
C 	C 	0.40251 0.33374 0.57911 0.08300
C 	C 	0.44576 0.33044 0.60575 -0.05600
C 	C 	0.45805 0.35758 0.65536 -0.02000
N 	N 	0.39194 0.30937 0.52378 -0.13900
C 	C 	0.42205 0.37863 0.35722 0.03500
C 	C 	0.43032 0.33090 0.36570 -0.02100
C 	C 	0.42174 0.30868 0.42129 -0.05600
C 	C 	0.40456 0.33388 0.46873 0.08300
C 	C 	0.39723 0.38214 0.46041 -0.05700
C 	C 	0.40639 0.40430 0.40516 -0.01300
C 	C 	0.26310 0.24583 0.52223 0.03300
C 	C 	0.27202 0.28137 0.47961 -0.01300
C 	C 	0.31379 0.30297 0.48030 -0.05800
C 	C 	0.34819 0.28747 0.52182 0.08200
C 	C 	0.33961 0.25045 0.56259 -0.05600
C 	C 	0.29716 0.23017 0.56337 -0.02300
H 	H 	0.35885 0.41290 0.67292 0.06100
H 	H 	0.33731 0.36601 0.58452 0.06600
H 	H 	0.47021 0.30787 0.58674 0.06400
H 	H 	0.49198 0.35585 0.67439 0.06100
H 	H 	0.44278 0.31091 0.32898 0.05900
H 	H 	0.42747 0.27165 0.42715 0.06400
H 	H 	0.38296 0.40212 0.49563 0.06900
H 	H 	0.40027 0.44128 0.39904 0.07000
H 	H 	0.24618 0.29300 0.44681 0.06700
H 	H 	0.31903 0.33192 0.44911 0.07000
H 	H 	0.36575 0.23798 0.59436 0.06100
H 	H 	0.29069 0.20244 0.59612 0.05600
C 	C 	0.60801 0.69752 0.31969 0.03600
C 	C 	0.59555 0.74445 0.31354 -0.01700
C 	C 	0.60670 0.77524 0.35972 -0.05600
C 	C 	0.62995 0.75939 0.41273 0.08400
C 	C 	0.64359 0.71250 0.41811 -0.05600
C 	C 	0.63267 0.68183 0.37171 -0.02000
N 	N 	0.63653 0.79049 0.46266 -0.14100
C 	C 	0.59082 0.73196 0.62815 0.03400
C 	C 	0.63644 0.73032 0.61629 -0.01800
C 	C 	0.65198 0.75035 0.56268 -0.05700
C 	C 	0.62181 0.77234 0.52029 0.08400
C 	C 	0.57641 0.77505 0.53323 -0.05500
C 	C 	0.56095 0.75502 0.58696 -0.01600
C 	C 	0.75836 0.86644 0.47528 0.03500
C 	C 	0.71744 0.88828 0.48470 -0.01600
C 	C 	0.67756 0.86314 0.47986 -0.05600
C 	C 	0.67809 0.81611 0.46495 0.08400
C 	C 	0.71921 0.79447 0.45423 -0.05800
C 	C 	0.75908 0.81958 0.45960 -0.02100
H 	H 	0.57629 0.75681 0.27362 0.06200
H 	H 	0.59612 0.81119 0.35517 0.06200
H 	H 	0.66199 0.69974 0.45842 0.06100
H 	H 	0.64247 0.64564 0.37679 0.06200
H 	H 	0.65968 0.71254 0.64797 0.05900
H 	H 	0.68702 0.74741 0.55326 0.06200
H 	H 	0.55302 0.79203 0.50104 0.06200
H 	H 	0.52566 0.75654 0.59598 0.06200
H 	H 	0.71659 0.92464 0.49612 0.06100
H 	H 	0.64615 0.88010 0.48801 0.06200
H 	H 	0.72050 0.75812 0.44351 0.06000
H 	H 	0.79057 0.80255 0.45197 0.05900
Zn	Zn	0.03171 0.09563 0.44013 1.22200
Zn	Zn	0.00093 0.15522 0.56342 1.19500
C 	C 	0.91998 0.97424 0.49243 0.34200
Zn	Zn	0.96639 0.05878 0.53857 1.22900
Zn	Zn	0.00293 0.99418 0.42938 1.19300
H 	H 	0.95231 0.12984 0.47329 0.18700
C 	C 	0.03595 0.06603 0.63211 0.31800
O 	O 	0.03488 0.00493 0.35365 -0.44500
O 	O 	0.08085 0.06314 0.38685 -0.35400
O 	O 	0.97938 0.11700 0.49497 -0.77300
O 	O 	0.05270 0.18833 0.52874 -0.45000
O 	O 	0.99203 0.10290 0.36657 -0.39400
O 	O 	0.07780 0.14427 0.45221 -0.40300
O 	O 	0.94960 0.03945 0.39152 -0.38000
O 	O 	0.96288 0.14318 0.63431 -0.41700
H 	H 	0.05052 0.02939 0.51362 0.20200
O 	O 	0.91584 0.09080 0.58877 -0.37200
O 	O 	0.02305 0.03914 0.49013 -0.79900
O 	O 	0.95809 0.95750 0.47497 -0.43100
O 	O 	0.99918 0.04363 0.61598 -0.38600
O 	O 	0.91690 0.01715 0.51111 -0.39900
O 	O 	0.04823 0.10341 0.60123 -0.39800
C 	C 	0.07197 0.02907 0.34954 0.33900
C 	C 	0.08589 0.16864 0.50140 0.34400
C 	C 	0.95687 0.07622 0.35617 0.32600
C 	C 	0.92504 0.11986 0.63256 0.33600
C 	C 	0.80041 0.89302 0.48019 -0.00200
C 	C 	0.81868 0.90561 0.53735 0.13900
C 	C 	0.85789 0.93207 0.54092 -0.02000
C 	C 	0.87954 0.94544 0.48794 -0.11000
C 	C 	0.86149 0.93245 0.43082 0.20500
C 	C 	0.82211 0.90634 0.42724 -0.09600
H 	H 	0.87166 0.94205 0.58494 0.08500
H 	H 	0.80809 0.89677 0.38319 0.09200
Cl	Cl	0.79323 0.88770 0.60484 -0.30000
Cl	Cl	0.88700 0.94995 0.36320 -0.32900
C 	C 	0.13148 0.18712 0.51234 -0.10800
C 	C 	0.16929 0.15838 0.50769 0.20500
C 	C 	0.21222 0.17768 0.51166 -0.09400
C 	C 	0.21797 0.22501 0.52363 -0.00100
C 	C 	0.18035 0.25265 0.53418 0.13700
C 	C 	0.13739 0.23400 0.52700 -0.02000
H 	H 	0.24112 0.15587 0.50551 0.09300
H 	H 	0.10859 0.25608 0.53258 0.07800
Cl	Cl	0.16354 0.09777 0.50121 -0.29900
Cl	Cl	0.18660 0.31017 0.55866 -0.30800
C 	C 	0.44338 0.45555 0.19204 -0.09800
C 	C 	0.48014 0.43860 0.22813 0.21300
C 	C 	0.47287 0.41189 0.28083 -0.09200
C 	C 	0.42922 0.40178 0.29789 0.00100
C 	C 	0.39258 0.41687 0.26031 0.14000
C 	C 	0.39979 0.44402 0.20797 -0.01900
H 	H 	0.50115 0.40004 0.30943 0.09600
H 	H 	0.37145 0.45649 0.17994 0.07300
Cl	Cl	0.53543 0.45233 0.20949 -0.28700
Cl	Cl	0.33747 0.40183 0.27822 -0.30500
C 	C 	0.46922 0.48143 0.81813 -0.10400
C 	C 	0.45985 0.43459 0.83309 0.20700
C 	C 	0.44602 0.40431 0.78736 -0.09400
C 	C 	0.44138 0.42036 0.72675 -0.00000
C 	C 	0.45069 0.46718 0.71186 0.13900
C 	C 	0.46422 0.49750 0.75757 -0.01900
H 	H 	0.43873 0.36833 0.79897 0.09000
H 	H 	0.47172 0.53342 0.74581 0.08000
Cl	Cl	0.46378 0.41377 0.90911 -0.30700
Cl	Cl	0.44667 0.48799 0.63585 -0.29500
C 	C 	0.55088 0.60870 0.18494 -0.10900
C 	C 	0.53644 0.60592 0.24493 0.20900
C 	C 	0.55668 0.63358 0.28940 -0.09600
C 	C 	0.59143 0.66403 0.27455 0.00100
C 	C 	0.60777 0.66462 0.21544 0.13600
C 	C 	0.58732 0.63709 0.17086 -0.01700
H 	H 	0.54452 0.63242 0.33512 0.09500
H 	H 	0.59895 0.63879 0.12487 0.06400
Cl	Cl	0.49231 0.56866 0.26469 -0.29800
Cl	Cl	0.65366 0.69978 0.19666 -0.30200
C 	C 	0.57405 0.70717 0.68196 -0.00200
C 	C 	0.55773 0.66146 0.67758 0.13800
C 	C 	0.54624 0.63655 0.73004 -0.01900
C 	C 	0.55104 0.65678 0.78715 -0.11000
C 	C 	0.56604 0.70306 0.79134 0.20300
C 	C 	0.57736 0.72803 0.73874 -0.09600
H 	H 	0.53425 0.60113 0.72653 0.08100
H 	H 	0.58981 0.76328 0.74219 0.09200
Cl	Cl	0.55274 0.63452 0.60676 -0.29500
Cl	Cl	0.57307 0.72939 0.86237 -0.31400
C 	C 	0.10022 0.02223 0.29718 -0.10100
C 	C 	0.14692 0.01635 0.30511 0.20200
C 	C 	0.17248 0.00667 0.25504 -0.10100
C 	C 	0.15184 0.00231 0.19720 0.02100
C 	C 	0.10537 0.00883 0.18916 0.13500
C 	C 	0.07980 0.01817 0.23909 -0.01700
H 	H 	0.20827 0.00152 0.26137 0.09500
H 	H 	0.04384 0.02147 0.23288 0.09500
Cl	Cl	0.17344 0.01767 0.37788 -0.28600
Cl	Cl	0.07871 0.00511 0.11666 -0.29600
C 	C 	0.12233 0.01367 0.77766 0.05900
C 	C 	0.11077 0.98546 0.72823 0.08400
C 	C 	0.08199 0.00262 0.68117 0.03400
C 	C 	0.06477 0.04787 0.68289 -0.12200
C 	C 	0.07592 0.07584 0.73277 0.22200
C 	C 	0.10474 0.05871 0.77968 -0.12200
H 	H 	0.07345 0.98096 0.64291 0.04200
H 	H 	0.11322 0.08030 0.81802 0.09900
Cl	Cl	0.13226 0.92868 0.72464 -0.30100
Cl	Cl	0.05262 0.13173 0.73827 -0.32600
C 	C 	0.33046 0.78232 0.97055 -0.00600
C 	C 	0.36806 0.77714 0.93481 0.13900
C 	C 	0.39300 0.73599 0.93930 -0.02100
C 	C 	0.37999 0.69912 0.97785 -0.11000
C 	C 	0.34025 0.70300 0.00976 0.20500
C 	C 	0.31628 0.74479 0.00693 -0.09400
H 	H 	0.42291 0.73302 0.91353 0.09000
H 	H 	0.28662 0.74813 0.03316 0.08700
Cl	Cl	0.38364 0.82145 0.88305 -0.30100
Cl	Cl	0.31884 0.65515 0.05094 -0.34700
C 	C 	0.86036 0.11279 0.21360 -0.00200
C 	C 	0.84628 0.09626 0.27046 0.14300
C 	C 	0.87804 0.08437 0.31669 -0.02200
C 	C 	0.92394 0.08913 0.30688 -0.09700
C 	C 	0.93792 0.10544 0.24959 0.20200
C 	C 	0.90611 0.11716 0.20354 -0.09200
H 	H 	0.86700 0.07185 0.36047 0.08800
H 	H 	0.91701 0.12960 0.15964 0.09400
Cl	Cl	0.78898 0.09110 0.28476 -0.29400
Cl	Cl	0.99506 0.10998 0.23383 -0.28400
C 	C 	0.84277 0.13564 0.78498 -0.00100
C 	C 	0.85118 0.17390 0.74589 0.14000
C 	C 	0.87694 0.16808 0.69501 -0.02000
C 	C 	0.89415 0.12422 0.68237 -0.10100
C 	C 	0.88459 0.08564 0.72050 0.20800
C 	C 	0.85886 0.09151 0.77144 -0.09200
H 	H 	0.88404 0.19781 0.66567 0.07000
H 	H 	0.85231 0.06197 0.80135 0.09600
Cl	Cl	0.82980 0.22936 0.76036 -0.30200
Cl	Cl	0.90654 0.03023 0.70689 -0.28700
C 	C 	0.60583 0.41969 0.99808 -0.11000
C 	C 	0.61297 0.39649 0.94383 0.21200
C 	C 	0.63553 0.35390 0.94584 -0.10100
C 	C 	0.65111 0.33413 0.00160 0.00400
C 	C 	0.64345 0.35702 0.05594 0.13900
C 	C 	0.62058 0.39950 0.05396 -0.01400
H 	H 	0.64119 0.33625 0.90398 0.09200
H 	H 	0.61478 0.41709 0.09583 0.08700
Cl	Cl	0.59329 0.42006 0.87309 -0.31000
Cl	Cl	0.66325 0.33343 0.12661 -0.29200
