data_crystal

_cell_length_a 25.86459
_cell_length_b 27.86202
_cell_length_c 33.73951
_cell_angle_alpha 61.06304
_cell_angle_beta  118.64113
_cell_angle_gamma 133.21552

_symmetry_space_group_name_	'P 1'
_symmetry_space_group_name_H-M	'P 1'

loop_
_symmetry_equiv_pos_as_xyz
  x,y,z

loop_
_atom_site_label
_atom_site_type_symbol
_atom_site_fract_x
_atom_site_fract_y
_atom_site_fract_z
_atom_site_charge
C 	C 	0.72153 0.31899 0.98650 0.03600
C 	C 	0.76865 0.41954 0.00434 0.04100
C 	C 	0.71219 0.38030 0.02653 -0.07700
C 	C 	0.65824 0.31136 0.02692 0.03900
C 	C 	0.66348 0.28042 0.00768 -0.07300
H 	H 	0.71024 0.40353 0.04345 0.05600
H 	H 	0.62191 0.22688 0.00864 0.05400
C 	C 	0.71620 0.31834 0.49009 0.03800
C 	C 	0.65309 0.28830 0.50252 -0.07600
C 	C 	0.65205 0.32296 0.52107 0.04000
C 	C 	0.71313 0.38861 0.52602 -0.07700
H 	H 	0.60480 0.23813 0.49773 0.05300
H 	H 	0.71232 0.41536 0.54048 0.05700
C 	C 	0.23755 0.60870 0.25437 0.03300
C 	C 	0.30839 0.65757 0.24641 -0.07600
C 	C 	0.33598 0.64174 0.23123 0.03700
C 	C 	0.29115 0.57889 0.22069 -0.07600
C 	C 	0.21984 0.53073 0.22716 0.03500
C 	C 	0.19358 0.54513 0.24477 -0.07600
H 	H 	0.34224 0.70747 0.25230 0.05100
H 	H 	0.31205 0.56707 0.20818 0.05500
H 	H 	0.13939 0.50670 0.25143 0.04800
C 	C 	0.22148 0.60640 0.74957 0.03200
C 	C 	0.17567 0.54101 0.74230 -0.07600
C 	C 	0.19706 0.52440 0.72257 0.03500
C 	C 	0.26525 0.57229 0.71143 -0.07700
C 	C 	0.31210 0.63695 0.71965 0.03600
C 	C 	0.28927 0.65481 0.73716 -0.07500
H 	H 	0.12395 0.50296 0.75243 0.04700
H 	H 	0.28226 0.55887 0.69700 0.05400
H 	H 	0.32435 0.70590 0.74134 0.05200
Co	Co	0.08593 0.01551 0.09030 1.17700
C 	C 	0.23883 0.06425 0.12513 0.30500
Co	Co	0.13385 0.91966 0.12014 1.17000
O 	O 	0.07490 0.09032 0.06747 -0.48500
C 	C 	0.06193 0.14667 0.16003 0.29200
C 	C 	0.13392 0.87852 0.21914 0.29900
O 	O 	0.00643 0.10410 0.17990 -0.42400
O 	O 	0.07819 0.12405 0.14436 -0.40900
O 	O 	0.17711 0.91788 0.19030 -0.38500
O 	O 	0.08637 0.88681 0.21393 -0.40500
O 	O 	0.06604 0.93841 0.11783 -0.77700
O 	O 	0.21758 0.02244 0.10384 -0.40700
O 	O 	0.19022 0.06189 0.13083 -0.40600
Co	Co	0.08279 0.02036 0.58733 1.17700
Co	Co	0.00021 0.06208 0.59734 1.15800
C 	C 	0.23691 0.07315 0.62244 0.30500
Co	Co	0.13574 0.92792 0.61897 1.17000
O 	O 	0.06879 0.09346 0.56323 -0.48500
C 	C 	0.05898 0.15114 0.65654 0.29200
C 	C 	0.13442 0.88640 0.71762 0.29900
O 	O 	0.00589 0.10769 0.67854 -0.42500
O 	O 	0.07533 0.12942 0.64013 -0.40700
O 	O 	0.17805 0.92715 0.68893 -0.38400
O 	O 	0.08478 0.89233 0.71207 -0.40500
O 	O 	0.06533 0.94427 0.61582 -0.77700
O 	O 	0.21781 0.03135 0.60211 -0.40600
O 	O 	0.18673 0.06901 0.62771 -0.40800
C 	C 	0.99207 0.01000 0.84679 -0.01800
C 	C 	0.97116 0.00899 0.80038 -0.00500
C 	C 	0.96979 0.96555 0.78922 -0.06900
H 	H 	0.99239 0.04332 0.85499 0.05000
H 	H 	0.95575 0.04178 0.77310 0.04100
C 	C 	0.96702 0.00587 0.29949 -0.00500
C 	C 	0.98781 0.00815 0.34554 -0.01800
H 	H 	0.95014 0.03730 0.27167 0.04000
H 	H 	0.98652 0.04105 0.35293 0.05000
C 	C 	0.12977 0.34964 0.72362 -0.00200
C 	C 	0.14854 0.30648 0.73671 -0.05800
C 	C 	0.15004 0.29452 0.70151 0.01000
C 	C 	0.13974 0.33021 0.65501 0.00600
C 	C 	0.12176 0.37401 0.64204 -0.06700
C 	C 	0.11918 0.38511 0.67721 0.02300
S 	S 	0.15498 0.39327 0.75749 -0.01900
C 	C 	0.14971 0.45575 0.71572 -0.00800
C 	C 	0.12987 0.44458 0.67263 -0.06500
S 	S 	0.11074 0.28446 0.62135 -0.00300
C 	C 	0.11281 0.22033 0.66295 -0.07400
C 	C 	0.13582 0.23328 0.70600 -0.01900
H 	H 	0.15838 0.28064 0.77285 0.04200
H 	H 	0.11164 0.39970 0.60590 0.04200
H 	H 	0.13545 0.48335 0.64031 0.04200
H 	H 	0.12939 0.19455 0.73843 0.03800
C 	C 	0.47712 0.76070 0.66236 0.00400
C 	C 	0.53665 0.82076 0.64335 -0.05600
C 	C 	0.59916 0.82412 0.65638 0.01700
C 	C 	0.60324 0.77100 0.68998 0.00100
C 	C 	0.54391 0.71106 0.70904 -0.05800
C 	C 	0.48165 0.70787 0.69635 0.02700
S 	S 	0.41176 0.75425 0.66766 -0.01100
C 	C 	0.38631 0.68484 0.71195 -0.00500
C 	C 	0.43004 0.66464 0.72390 -0.06000
C 	C 	0.65255 0.86879 0.62992 -0.02200
H 	H 	0.53357 0.86226 0.61829 0.04900
H 	H 	0.54719 0.66974 0.73427 0.04900
H 	H 	0.42435 0.62026 0.75104 0.04800
H 	H 	0.65896 0.91378 0.60332 0.04600
C 	C 	0.13262 0.64842 0.78443 0.00300
C 	C 	0.08910 0.66885 0.77189 -0.06000
C 	C 	0.12196 0.72971 0.78097 0.01200
C 	C 	0.19748 0.77042 0.79975 -0.00200
C 	C 	0.24218 0.75391 0.80681 -0.06100
C 	C 	0.20875 0.69120 0.80034 0.02500
S 	S 	0.11377 0.59685 0.76015 -0.03500
C 	C 	0.19906 0.62297 0.77150 -0.00100
C 	C 	0.24629 0.67663 0.79337 -0.06200
S 	S 	0.22407 0.84944 0.78471 0.02800
C 	C 	0.14263 0.83539 0.75697 -0.08300
C 	C 	0.09105 0.76605 0.75757 -0.02300
H 	H 	0.03274 0.64070 0.75301 0.03500
H 	H 	0.30099 0.79060 0.81382 0.04800
H 	H 	0.30516 0.70727 0.80068 0.04600
H 	H 	0.03679 0.74552 0.73497 0.02800
C 	C 	0.14414 0.35324 0.22576 -0.00200
C 	C 	0.15451 0.30334 0.24102 -0.05700
C 	C 	0.15835 0.28961 0.20799 0.01100
C 	C 	0.15880 0.32969 0.16201 0.00600
C 	C 	0.14990 0.38062 0.14706 -0.06600
C 	C 	0.14474 0.39336 0.17998 0.02400
S 	S 	0.16684 0.39591 0.25938 -0.01700
C 	C 	0.17372 0.46393 0.21763 -0.00700
C 	C 	0.16148 0.45588 0.17523 -0.06400
S 	S 	0.12934 0.28381 0.12824 -0.00100
C 	C 	0.11851 0.21416 0.16951 -0.07300
C 	C 	0.13644 0.22500 0.21228 -0.01900
H 	H 	0.15576 0.27380 0.27681 0.04200
H 	H 	0.14806 0.40990 0.11122 0.04300
H 	H 	0.17504 0.49715 0.14425 0.04300
H 	H 	0.12192 0.18413 0.24339 0.03800
C 	C 	0.52831 0.72749 0.22022 0.00400
C 	C 	0.57335 0.72317 0.21244 -0.05600
C 	C 	0.59957 0.76495 0.17172 0.01700
C 	C 	0.57601 0.80560 0.13823 0.00000
C 	C 	0.52967 0.80878 0.14566 -0.05900
C 	C 	0.50383 0.76717 0.18650 0.02700
S 	S 	0.46890 0.66634 0.25363 -0.00700
C 	C 	0.41298 0.68953 0.22891 -0.00600
C 	C 	0.43862 0.74577 0.19123 -0.06000
S 	S 	0.63869 0.86930 0.10729 0.02600
C 	C 	0.66603 0.78738 0.16820 -0.02000
H 	H 	0.59000 0.69065 0.23810 0.05000
H 	H 	0.51318 0.84146 0.12014 0.04800
H 	H 	0.40617 0.76352 0.16451 0.04600
C 	C 	0.19551 0.76169 0.30206 -0.00200
C 	C 	0.24242 0.74669 0.31087 -0.06000
C 	C 	0.21189 0.68596 0.30289 0.02500
C 	C 	0.13675 0.64389 0.28376 0.00300
C 	C 	0.09169 0.66332 0.26952 -0.06000
C 	C 	0.12121 0.72174 0.28033 0.01300
S 	S 	0.22092 0.83993 0.28864 0.02800
C 	C 	0.14008 0.82618 0.25809 -0.08300
C 	C 	0.08990 0.75774 0.25634 -0.02400
S 	S 	0.12349 0.59595 0.25908 -0.03100
C 	C 	0.20989 0.62272 0.27420 -0.00100
C 	C 	0.25320 0.67377 0.29784 -0.06200
H 	H 	0.30104 0.78325 0.32041 0.04800
H 	H 	0.03717 0.63674 0.24793 0.03800
H 	H 	0.03708 0.73815 0.23206 0.03000
H 	H 	0.31217 0.70425 0.30792 0.04600
C 	C 	0.70727 0.18855 0.46364 0.00500
C 	C 	0.70747 0.13205 0.47963 -0.05700
S 	S 	0.66471 0.19531 0.48292 -0.01600
C 	C 	0.71676 0.28019 0.47118 -0.00100
H 	H 	0.66729 0.08378 0.49815 0.04300
C 	C 	0.44599 0.19230 0.63779 0.00400
C 	C 	0.50354 0.20001 0.63469 -0.06100
C 	C 	0.53787 0.25025 0.59788 0.02800
C 	C 	0.51330 0.28999 0.56446 0.00300
C 	C 	0.44955 0.27569 0.56394 -0.05400
C 	C 	0.41670 0.22722 0.60171 0.01500
S 	S 	0.37943 0.11998 0.66319 0.01500
C 	C 	0.31331 0.13075 0.63222 -0.07600
C 	C 	0.34228 0.19277 0.59884 -0.01600
S 	S 	0.54278 0.32257 0.51723 -0.00800
C 	C 	0.58800 0.28936 0.53706 -0.00600
C 	C 	0.58088 0.25080 0.58277 -0.06000
H 	H 	0.51732 0.16473 0.65795 0.04700
H 	H 	0.42359 0.29790 0.53377 0.04800
H 	H 	0.30818 0.20627 0.56881 0.04000
H 	H 	0.60636 0.22481 0.60448 0.04700
S 	S 	0.67151 0.20272 0.96914 -0.01600
C 	C 	0.72682 0.28630 0.96556 -0.00100
H 	H 	0.67497 0.09260 0.98215 0.04400
C 	C 	0.53828 0.21617 0.11375 0.00300
C 	C 	0.48812 0.16256 0.14167 -0.05500
C 	C 	0.43648 0.16688 0.14068 0.01500
C 	C 	0.43395 0.22240 0.11076 0.00300
C 	C 	0.47686 0.27021 0.07788 -0.06000
C 	C 	0.53020 0.26719 0.08024 0.02700
S 	S 	0.58361 0.21027 0.09630 -0.01100
C 	C 	0.59571 0.27167 0.04701 -0.00500
C 	C 	0.56301 0.29887 0.04294 -0.06000
S 	S 	0.35084 0.19820 0.10182 0.02400
C 	C 	0.31625 0.11961 0.13612 -0.07800
C 	C 	0.37046 0.10928 0.15505 -0.01700
H 	H 	0.48624 0.11720 0.16112 0.04400
H 	H 	0.46564 0.30534 0.04951 0.04800
H 	H 	0.56356 0.34032 0.01447 0.04700
H 	H 	0.35873 0.05930 0.17157 0.03500
C 	C 	0.07061 0.96568 0.01904 0.32200
O 	O 	0.09308 0.01823 0.02996 -0.40300
O 	O 	0.09090 0.02274 0.52754 -0.40400
O 	O 	0.97159 0.95226 0.72404 -0.38300
C 	C 	0.01195 0.96780 0.88244 -0.01100
C 	C 	0.04894 0.96730 0.97067 -0.11100
C 	C 	0.03184 0.96775 0.93038 0.04000
C 	C 	0.00981 0.96788 0.38187 -0.01100
C 	C 	0.69478 0.84619 0.13247 -0.07000
C 	C 	0.03017 0.96950 0.42944 0.04000
H 	H 	0.69757 0.76879 0.19529 0.04800
C 	C 	0.04779 0.97040 0.46945 -0.11200
C 	C 	0.07023 0.97031 0.51755 0.32100
S 	S 	0.66937 0.77806 0.68539 0.03100
C 	C 	0.72017 0.14243 0.96879 -0.05800
O 	O 	0.08377 0.92065 0.04998 -0.39600
C 	C 	0.77551 0.41984 0.51263 0.04100
C 	C 	0.77268 0.38937 0.98366 -0.07600
C 	C 	0.77776 0.38449 0.49554 -0.07500
C 	C 	0.72201 0.19980 0.95447 0.00500
C 	C 	0.69685 0.84896 0.64223 -0.07100
C 	C 	0.76741 0.25431 0.44905 0.02800
H 	H 	0.75295 0.52389 0.96815 0.04800
O 	O 	0.05731 0.81480 0.13935 -0.44600
C 	C 	0.77276 0.30612 0.45307 -0.05800
O 	O 	0.06109 0.82265 0.63870 -0.44300
C 	C 	0.76479 0.14107 0.47485 0.01700
H 	H 	0.75101 0.04709 0.52465 0.03700
C 	C 	0.82482 0.49193 0.00405 -0.00500
H 	H 	0.88667 0.46743 0.59008 0.05300
C 	C 	0.78690 0.26555 0.94793 0.02800
C 	C 	0.78124 0.15204 0.96917 0.01900
C 	C 	0.79006 0.31426 0.95443 -0.05800
H 	H 	0.75813 0.05283 0.01431 0.03900
C 	C 	0.80619 0.53598 0.98934 -0.06100
H 	H 	0.79015 0.62252 0.99306 0.05000
C 	C 	0.83796 0.49001 0.51599 -0.00400
H 	H 	0.81470 0.42091 0.96485 0.05600
C 	C 	0.77323 0.89495 0.13409 0.29400
C 	C 	0.77242 0.89751 0.63719 0.29400
C 	C 	0.78376 0.09509 0.50187 -0.02200
H 	H 	0.81798 0.35918 0.44593 0.05000
C 	C 	0.79607 0.10304 0.99570 -0.02600
H 	H 	0.83998 0.36432 0.95758 0.05100
C 	C 	0.83376 0.61880 0.01893 -0.05900
C 	C 	0.85468 0.58691 0.01447 0.03400
O 	O 	0.08635 0.92747 0.54894 -0.39600
C 	C 	0.88375 0.50541 0.55931 -0.05600
S 	S 	0.83123 0.55437 0.48259 0.00100
H 	H 	0.82731 0.40827 0.48704 0.05700
O 	O 	0.80171 0.96029 0.11632 -0.38100
O 	O 	0.81173 0.87124 0.14913 -0.37500
O 	O 	0.79932 0.96231 0.61823 -0.38400
C 	C 	0.82198 0.20610 0.45644 -0.00000
C 	C 	0.82656 0.26380 0.44648 -0.05600
H 	H 	0.95352 0.55819 0.63637 0.05700
C 	C 	0.84327 0.21797 0.95727 -0.00000
C 	C 	0.84893 0.27516 0.95015 -0.05600
C 	C 	0.86647 0.64038 0.05962 0.00800
S 	S 	0.87007 0.69853 0.06548 0.04400
Co	Co	0.00637 0.88849 0.65058 1.16500
C 	C 	0.92155 0.62556 0.60404 -0.00200
C 	C 	0.93251 0.58290 0.60411 -0.05300
S 	S 	0.90022 0.51764 0.04695 0.01100
O 	O 	0.80905 0.87403 0.64706 -0.37300
C 	C 	0.90945 0.56838 0.56178 0.03100
C 	C 	0.89528 0.65857 0.56276 0.01900
C 	C 	0.86957 0.13071 0.00441 -0.07000
C 	C 	0.87574 0.64702 0.52006 -0.05200
C 	C 	0.85590 0.12430 0.50502 -0.07400
H 	H 	0.87641 0.31423 0.44021 0.05500
C 	C 	0.88486 0.60292 0.51996 0.00600
S 	S 	0.96470 0.66736 0.64442 0.05900
H 	H 	0.85362 0.67102 0.48805 0.05300
H 	H 	0.90102 0.32474 0.94958 0.05500
C 	C 	0.91262 0.58391 0.04792 0.00000
C 	C 	0.01222 0.92545 0.87142 -0.10500
C 	C 	0.90945 0.71484 0.56732 -0.00900
C 	C 	0.94683 0.72491 0.61251 -0.08800
S 	S 	0.91369 0.21421 0.98067 0.04500
C 	C 	0.92430 0.63781 0.09277 -0.00600
C 	C 	0.90507 0.10311 0.04710 0.29900
S 	S 	0.89402 0.20566 0.47556 0.04600
H 	H 	0.90246 0.75181 0.53784 0.04800
C 	C 	0.94705 0.60797 0.08787 -0.03700
C 	C 	0.94127 0.71928 0.11147 -0.10700
C 	C 	0.99135 0.92441 0.82494 0.06800
Co	Co	0.00450 0.05902 0.10003 1.15900
C 	C 	0.96795 0.96310 0.28938 -0.06900
O 	O 	0.97290 0.95021 0.22540 -0.38200
Co	Co	0.00760 0.88371 0.15290 1.16500
C 	C 	0.94153 0.95778 0.24101 0.30700
C 	C 	0.94222 0.96097 0.74055 0.30800
H 	H 	0.98992 0.60345 0.11423 0.05800
Co	Co	0.92450 0.92601 0.16186 1.19600
Co	Co	0.90167 0.03397 0.14822 1.16800
C 	C 	0.98636 0.78370 0.12381 0.36700
O 	O 	0.91529 0.10961 0.08680 -0.39100
O 	O 	0.94128 0.00195 0.13196 -0.76100
O 	O 	0.93148 0.84945 0.18156 -0.44800
O 	O 	0.98152 0.96013 0.10977 -0.54200
O 	O 	0.94013 0.08694 0.04383 -0.36800
O 	O 	0.88876 0.96416 0.21271 -0.39300
O 	O 	0.95388 0.80270 0.12688 -0.38200
Co	Co	0.92186 0.92871 0.66007 1.19500
Co	Co	0.90033 0.03697 0.64838 1.16800
C 	C 	0.98996 0.79006 0.62306 0.35800
O 	O 	0.91131 0.11129 0.58642 -0.39200
O 	O 	0.93887 0.00503 0.63083 -0.75800
C 	C 	0.89822 0.10292 0.54669 0.30000
O 	O 	0.92863 0.85232 0.67866 -0.44800
O 	O 	0.97845 0.96363 0.60743 -0.54200
O 	O 	0.93366 0.08824 0.54214 -0.36800
O 	O 	0.88963 0.96793 0.71319 -0.39400
O 	O 	0.95565 0.80834 0.62468 -0.38100
H 	H 	0.99050 0.89065 0.81685 0.03900
H 	H 	0.02796 0.89295 0.89882 0.05000
C 	C 	0.01211 0.92605 0.37189 -0.10600
C 	C 	0.99141 0.92376 0.32578 0.06900
H 	H 	0.02943 0.89500 0.39983 0.04900
H 	H 	0.99232 0.89052 0.31850 0.03900
C 	C 	0.96692 0.68242 0.12208 0.06100
H 	H 	0.01872 0.69337 0.14568 -0.00700
