data_crystal

_cell_length_a 26.12566
_cell_length_b 26.23940
_cell_length_c 35.08250
_cell_angle_alpha 95.53675
_cell_angle_beta  95.53628
_cell_angle_gamma 125.69146

_symmetry_space_group_name_	'P 1'
_symmetry_space_group_name_H-M	'P 1'

loop_
_symmetry_equiv_pos_as_xyz
  x,y,z

loop_
_atom_site_label
_atom_site_type_symbol
_atom_site_fract_x
_atom_site_fract_y
_atom_site_fract_z
_atom_site_charge
C 	C 	0.97802 0.03460 0.98929 0.11400
N 	N 	0.04207 0.06639 0.99025 -0.13600
C 	C 	0.06699 0.03332 0.98634 0.11400
N 	N 	0.02784 0.96862 0.98128 -0.13500
C 	C 	0.96392 0.93673 0.98005 0.12000
N 	N 	0.93910 0.96977 0.98405 -0.13400
C 	C 	0.92730 0.00066 0.47634 0.11300
N 	N 	0.99190 0.03818 0.47880 -0.13500
C 	C 	0.02354 0.01172 0.47720 0.11400
N 	N 	0.99049 0.94756 0.47356 -0.13400
C 	C 	0.92600 0.90967 0.47155 0.11800
N 	N 	0.89410 0.93618 0.47260 -0.13300
Cu	Cu	0.65084 0.24838 0.00000 0.93000
Cu	Cu	0.71217 0.26324 0.92122 0.87200
Cu	Cu	0.67310 0.34050 0.94628 0.89900
Cu	Cu	0.64456 0.36289 0.02321 0.90000
C 	C 	0.66419 0.29544 0.08070 0.33700
O 	O 	0.55615 0.20687 0.99847 -0.34400
C 	C 	0.65926 0.30068 0.86295 0.32900
O 	O 	0.69731 0.34644 0.00095 -0.64400
O 	O 	0.64152 0.25059 0.94393 -0.64100
O 	O 	0.69517 0.20729 0.99971 -0.35200
O 	O 	0.76826 0.27938 0.96712 -0.42700
O 	O 	0.63507 0.32046 0.06914 -0.36700
O 	O 	0.71065 0.43009 0.94912 -0.36600
C 	C 	0.71386 0.46832 0.97830 0.29500
C 	C 	0.52834 0.23102 0.98337 0.28200
O 	O 	0.56385 0.29028 0.97787 -0.38600
O 	O 	0.67984 0.44590 0.00606 -0.38600
O 	O 	0.67325 0.26196 0.05548 -0.34700
C 	C 	0.75061 0.23504 0.98827 0.28700
O 	O 	0.64643 0.32789 0.89028 -0.36000
O 	O 	0.67619 0.26349 0.87067 -0.39400
H 	H 	0.74388 0.37713 0.01168 0.17600
H 	H 	0.59832 0.21882 0.92765 0.19000
Cu	Cu	0.71393 0.32567 0.44712 0.92600
Cu	Cu	0.74265 0.31132 0.53715 0.89100
Cu	Cu	0.62069 0.30802 0.50023 0.91400
Cu	Cu	0.58912 0.31615 0.41695 0.90200
C 	C 	0.66850 0.30610 0.36498 0.33400
O 	O 	0.75366 0.41733 0.44038 -0.34800
C 	C 	0.65169 0.30669 0.57864 0.33500
O 	O 	0.61476 0.27677 0.44717 -0.63700
O 	O 	0.71406 0.34821 0.50292 -0.62800
O 	O 	0.75121 0.27671 0.45041 -0.35300
O 	O 	0.80942 0.32710 0.51177 -0.40600
O 	O 	0.61396 0.29719 0.36851 -0.36500
O 	O 	0.52943 0.26222 0.49685 -0.35800
C 	C 	0.49060 0.25780 0.46748 0.28500
C 	C 	0.72324 0.44281 0.44544 0.28600
O 	O 	0.66504 0.40819 0.45284 -0.38500
O 	O 	0.51338 0.29338 0.44056 -0.38200
O 	O 	0.69866 0.29614 0.39223 -0.34500
C 	C 	0.79540 0.28885 0.47920 0.28100
O 	O 	0.63156 0.33081 0.55593 -0.36000
O 	O 	0.66980 0.27318 0.56337 -0.40700
H 	H 	0.58721 0.22956 0.43997 0.17300
H 	H 	0.74020 0.39501 0.51200 0.16900
C 	C 	0.64957 0.31285 0.62068 -0.12700
C 	C 	0.59234 0.29469 0.63335 0.12900
C 	C 	0.59079 0.29951 0.67347 0.06500
C 	C 	0.64326 0.31435 0.70049 0.01800
C 	C 	0.69979 0.33098 0.68775 0.06400
C 	C 	0.70425 0.33420 0.64834 0.12700
C 	C 	0.63831 0.31038 0.74203 0.01700
C 	C 	0.66938 0.36666 0.77026 0.06700
C 	C 	0.67585 0.36394 0.81017 0.12200
C 	C 	0.64531 0.30411 0.82184 -0.11700
C 	C 	0.60620 0.24751 0.79346 0.12500
C 	C 	0.60612 0.25060 0.75369 0.06500
Br	Br	0.77020 0.34701 0.72405 -0.16900
Br	Br	0.51465 0.25781 0.59598 -0.18700
Br	Br	0.73017 0.44209 0.84842 -0.19600
Br	Br	0.56493 0.17335 0.71541 -0.16500
Br	Br	0.78616 0.37166 0.63268 -0.26200
Br	Br	0.51715 0.28624 0.69152 -0.15800
Br	Br	0.70358 0.44730 0.75413 -0.15900
Br	Br	0.54958 0.16638 0.80897 -0.19600
C 	C 	0.67133 0.29076 0.12210 -0.11800
C 	C 	0.73288 0.32220 0.14496 0.12300
C 	C 	0.73979 0.32327 0.18540 0.06700
C 	C 	0.68541 0.29523 0.20316 0.01700
C 	C 	0.62372 0.26164 0.18001 0.06400
C 	C 	0.61661 0.25748 0.13937 0.12700
C 	C 	0.69308 0.30320 0.24622 0.01700
C 	C 	0.68323 0.25364 0.26473 0.06600
C 	C 	0.67675 0.25492 0.30412 0.12700
C 	C 	0.68465 0.30812 0.32573 -0.11500
C 	C 	0.70147 0.36070 0.30818 0.12200
C 	C 	0.70407 0.35761 0.26824 0.06600
Br	Br	0.54918 0.22316 0.20423 -0.16600
Br	Br	0.80766 0.36530 0.12104 -0.20000
Br	Br	0.65256 0.18193 0.32744 -0.18300
Br	Br	0.72000 0.42665 0.24322 -0.16700
Br	Br	0.53201 0.20388 0.10709 -0.19100
Br	Br	0.82352 0.36351 0.21661 -0.15700
Br	Br	0.67699 0.18335 0.23571 -0.16000
Br	Br	0.72091 0.43694 0.33895 -0.21000
C 	C 	0.75511 0.51107 0.44485 -0.06100
C 	C 	0.71964 0.52994 0.42735 0.01600
C 	C 	0.74496 0.59443 0.43180 -0.04800
C 	C 	0.80801 0.64195 0.45259 0.01700
C 	C 	0.84307 0.62265 0.47135 0.01100
C 	C 	0.81718 0.55748 0.46628 -0.01000
C 	C 	0.90179 0.66810 0.49671 -0.03100
C 	C 	0.92548 0.73210 0.50442 -0.04300
C 	C 	0.89308 0.75272 0.48501 0.03000
C 	C 	0.83560 0.70839 0.45746 -0.00300
C 	C 	0.80910 0.73182 0.43421 -0.03000
C 	C 	0.83606 0.79697 0.44081 -0.02600
C 	C 	0.89143 0.84026 0.46921 -0.00200
C 	C 	0.91924 0.81785 0.49162 -0.04800
H 	H 	0.67104 0.49420 0.41149 0.04100
H 	H 	0.71373 0.60646 0.42133 0.05100
H 	H 	0.84396 0.54280 0.48070 0.04700
H 	H 	0.92841 0.65353 0.51140 0.04700
H 	H 	0.97005 0.76610 0.52502 0.04900
H 	H 	0.77075 0.70103 0.40940 0.04700
H 	H 	0.81579 0.81419 0.42234 0.05000
H 	H 	0.96267 0.85152 0.51323 0.05400
C 	C 	0.89431 0.03057 0.47959 -0.00000
C 	C 	0.85230 0.02195 0.44726 -0.03300
C 	C 	0.83301 0.06179 0.44693 -0.02900
C 	C 	0.85778 0.11262 0.47863 -0.00500
C 	C 	0.89396 0.11609 0.51293 0.03000
C 	C 	0.91284 0.07577 0.51294 -0.04900
C 	C 	0.91101 0.15980 0.54679 -0.04400
C 	C 	0.89336 0.20071 0.54692 -0.03300
C 	C 	0.86149 0.20127 0.51261 0.01100
C 	C 	0.84565 0.15900 0.47763 0.01300
C 	C 	0.82223 0.16700 0.44240 -0.04800
C 	C 	0.80774 0.21066 0.44284 0.00700
C 	C 	0.81815 0.24852 0.47809 -0.06900
C 	C 	0.84665 0.24483 0.51274 -0.02000
H 	H 	0.83583 0.98543 0.42193 0.05200
H 	H 	0.79742 0.05146 0.42274 0.04500
H 	H 	0.94365 0.08092 0.53845 0.05400
H 	H 	0.93756 0.16169 0.57330 0.04900
H 	H 	0.90593 0.23326 0.57364 0.04700
H 	H 	0.81797 0.14202 0.41455 0.05400
H 	H 	0.78870 0.21524 0.41562 0.06100
H 	H 	0.85678 0.27538 0.53989 0.04400
C 	C 	0.09357 0.05246 0.47917 -0.00100
C 	C 	0.12336 0.10848 0.46360 -0.02800
C 	C 	0.18902 0.14511 0.46331 -0.03000
C 	C 	0.22542 0.12431 0.47683 -0.00400
C 	C 	0.19661 0.07132 0.49597 0.03200
C 	C 	0.13065 0.03503 0.49635 -0.05300
C 	C 	0.23416 0.05591 0.51510 -0.04300
C 	C 	0.29982 0.09209 0.51514 -0.03000
C 	C 	0.32840 0.14189 0.49405 0.01500
C 	C 	0.29079 0.15665 0.47324 0.01500
C 	C 	0.31814 0.19999 0.44750 -0.04800
C 	C 	0.38321 0.23337 0.44613 0.00600
C 	C 	0.42162 0.22211 0.46893 -0.06000
C 	C 	0.39377 0.17555 0.49237 -0.01200
H 	H 	0.09564 0.12380 0.45170 0.05000
H 	H 	0.21158 0.19074 0.45425 0.04500
H 	H 	0.10829 0.99352 0.51019 0.05800
H 	H 	0.21257 0.01624 0.53049 0.05000
H 	H 	0.32831 0.08030 0.53083 0.05400
H 	H 	0.28886 0.20563 0.42706 0.04900
H 	H 	0.40350 0.26744 0.42680 0.04600
H 	H 	0.42258 0.16459 0.50864 0.06200
C 	C 	0.74935 0.53685 0.97687 -0.06500
C 	C 	0.80429 0.56755 0.96003 0.01400
C 	C 	0.83899 0.63268 0.95923 -0.04700
C 	C 	0.81756 0.66786 0.97391 0.01600
C 	C 	0.76431 0.63763 0.99304 0.01300
C 	C 	0.72956 0.57205 0.99344 -0.00600
C 	C 	0.74789 0.67368 0.01288 -0.03500
C 	C 	0.78466 0.73958 0.01485 -0.04800
C 	C 	0.83611 0.77008 0.99500 0.03200
C 	C 	0.85056 0.73382 0.97238 -0.00300
C 	C 	0.89561 0.76378 0.94777 -0.03100
C 	C 	0.93200 0.82983 0.95011 -0.02500
C 	C 	0.92198 0.86660 0.97547 -0.00500
C 	C 	0.87279 0.83644 0.99704 -0.04300
H 	H 	0.82137 0.54132 0.94856 0.04800
H 	H 	0.88417 0.65595 0.94929 0.05300
H 	H 	0.68757 0.54861 0.00698 0.04600
H 	H 	0.70750 0.65082 0.02778 0.04600
H 	H 	0.77254 0.76691 0.03149 0.04800
H 	H 	0.90050 0.73612 0.92558 0.04900
H 	H 	0.96745 0.85236 0.93171 0.05100
H 	H 	0.86368 0.86463 0.01577 0.04900
C 	C 	0.79068 0.21300 0.99640 -0.06100
C 	C 	0.85416 0.24916 0.99017 -0.00000
C 	C 	0.88959 0.22491 0.99297 -0.03800
C 	C 	0.86100 0.16270 0.00060 -0.00300
C 	C 	0.80007 0.12981 0.01160 0.01900
C 	C 	0.76472 0.15446 0.00865 -0.02400
C 	C 	0.77533 0.07297 0.02566 -0.03800
C 	C 	0.80954 0.04753 0.02792 -0.03800
C 	C 	0.86709 0.07614 0.01380 0.02000
C 	C 	0.89245 0.13303 0.99877 0.01100
C 	C 	0.94511 0.15571 0.97956 -0.03600
C 	C 	0.97440 0.12503 0.97792 -0.02500
C 	C 	0.95067 0.07019 0.99417 0.00000
C 	C 	0.89767 0.04650 0.01262 -0.05000
H 	H 	0.87629 0.29631 0.98328 0.04400
H 	H 	0.93974 0.25573 0.99097 0.04700
H 	H 	0.71677 0.12761 0.01525 0.05700
H 	H 	0.72958 0.04858 0.03517 0.05000
H 	H 	0.78998 0.00401 0.03940 0.04600
H 	H 	0.96101 0.19429 0.96374 0.04500
H 	H 	0.01402 0.14251 0.96255 0.04700
H 	H 	0.87911 0.00393 0.02509 0.05200
C 	C 	0.13646 0.06734 0.98884 0.00200
C 	C 	0.16924 0.05200 0.01338 -0.03000
C 	C 	0.23335 0.07815 0.01262 -0.03700
C 	C 	0.26492 0.11796 0.98574 0.00400
C 	C 	0.23363 0.13817 0.96370 0.02700
C 	C 	0.16917 0.11185 0.96488 -0.04800
C 	C 	0.26735 0.18518 0.94131 -0.04200
C 	C 	0.33184 0.21276 0.94086 -0.03400
C 	C 	0.36275 0.19122 0.96096 0.01400
C 	C 	0.32843 0.14104 0.98178 0.01100
C 	C 	0.35723 0.11332 0.99642 -0.03900
C 	C 	0.42179 0.14132 0.99567 0.01400
C 	C 	0.45796 0.19569 0.97889 -0.06200
C 	C 	0.42753 0.21884 0.96011 -0.01700
H 	H 	0.14501 0.01992 0.03329 0.04900
H 	H 	0.25872 0.06953 0.03405 0.04900
H 	H 	0.14424 0.12508 0.94671 0.05300
H 	H 	0.24390 0.20139 0.92479 0.04900
H 	H 	0.35759 0.25038 0.92432 0.04900
H 	H 	0.32950 0.06888 0.00690 0.04800
H 	H 	0.44372 0.12086 0.00843 0.05500
H 	H 	0.45434 0.25864 0.94521 0.05200
