data_crystal

_cell_length_a 30.66479
_cell_length_b 31.20246
_cell_length_c 32.86749
_cell_angle_alpha 95.52507
_cell_angle_beta  95.52391
_cell_angle_gamma 125.55655

_symmetry_space_group_name_	'P 1'
_symmetry_space_group_name_H-M	'P 1'

loop_
_symmetry_equiv_pos_as_xyz
  x,y,z

loop_
_atom_site_label
_atom_site_type_symbol
_atom_site_fract_x
_atom_site_fract_y
_atom_site_fract_z
_atom_site_charge
C 	C 	0.01616 0.01719 0.45408 0.02400
H 	H 	0.01204 0.08326 0.44891 0.04700
C 	C 	0.04090 0.97610 0.00306 -0.08100
C 	C 	0.04794 0.05806 0.00793 -0.08900
H 	H 	0.05944 0.95542 0.99964 0.05000
C 	C 	0.07180 0.03129 0.00343 0.05300
H 	H 	0.07184 0.10080 0.00802 0.05600
C 	C 	0.07615 0.05025 0.45890 -0.00200
H 	H 	0.07757 0.07281 0.39860 0.03700
H 	H 	0.08850 0.03491 0.52017 0.03700
H 	H 	0.00722 0.94391 0.45808 0.04800
C 	C 	0.10165 0.07599 0.42669 -0.03700
C 	C 	0.10779 0.05442 0.49505 -0.03700
C 	C 	0.99308 0.02954 0.01199 0.05100
C 	C 	0.98600 0.94746 0.00706 0.03800
C 	C 	0.96216 0.97430 0.01167 -0.08300
H 	H 	0.91958 0.95214 0.01448 0.05300
C 	C 	0.93175 0.00897 0.44354 0.02800
C 	C 	0.98888 0.04057 0.44875 -0.07100
C 	C 	0.98621 0.96213 0.45437 -0.07000
C 	C 	0.92918 0.93039 0.44949 0.02900
C 	C 	0.90192 0.95380 0.44392 -0.07300
H 	H 	0.85780 0.92928 0.43998 0.04900
Cu	Cu	0.66759 0.25710 0.99975 0.92700
Cu	Cu	0.71245 0.26344 0.91247 0.87000
Cu	Cu	0.70190 0.34708 0.95087 0.89600
Cu	Cu	0.66859 0.35611 0.03420 0.89500
C 	C 	0.66017 0.27654 0.08378 0.26400
O 	O 	0.58722 0.22242 0.99706 -0.37300
C 	C 	0.68659 0.31554 0.85957 0.26000
O 	O 	0.71135 0.34088 0.00798 -0.63500
O 	O 	0.66310 0.26766 0.94173 -0.64300
O 	O 	0.70237 0.21970 0.99649 -0.37800
O 	O 	0.76324 0.27649 0.95893 -0.44200
O 	O 	0.66701 0.32258 0.08386 -0.37500
O 	O 	0.74311 0.42425 0.96399 -0.38200
C 	C 	0.73675 0.45053 0.99387 0.30100
C 	C 	0.56588 0.24746 0.98831 0.28600
O 	O 	0.59767 0.29839 0.98592 -0.39300
O 	O 	0.69675 0.42523 0.01488 -0.39000
O 	O 	0.68107 0.26107 0.05818 -0.36000
C 	C 	0.74875 0.24118 0.98331 0.29100
O 	O 	0.70622 0.35462 0.89195 -0.37900
O 	O 	0.67961 0.27049 0.86387 -0.41300
H 	H 	0.75003 0.36238 0.02210 0.16600
H 	H 	0.62548 0.24724 0.92559 0.17200
Cu	Cu	0.71132 0.34227 0.43095 0.92600
Cu	Cu	0.73091 0.32004 0.52413 0.87000
Cu	Cu	0.63520 0.31957 0.49345 0.89700
Cu	Cu	0.60331 0.33304 0.40824 0.89400
C 	C 	0.65077 0.30347 0.34751 0.25800
O 	O 	0.73809 0.41751 0.42405 -0.36300
C 	C 	0.68594 0.34763 0.58308 0.26000
O 	O 	0.62795 0.29809 0.43516 -0.63800
O 	O 	0.71482 0.35904 0.49141 -0.64000
O 	O 	0.75445 0.31293 0.43350 -0.37600
O 	O 	0.71116 0.26296 0.48157 -0.44400
O 	O 	0.63005 0.32969 0.35589 -0.37800
O 	O 	0.55696 0.27702 0.49111 -0.38200
C 	C 	0.52199 0.27492 0.46259 0.30700
C 	C 	0.71547 0.43925 0.43883 0.30100
O 	O 	0.66708 0.40902 0.44858 -0.39100
O 	O 	0.53850 0.30696 0.43511 -0.39600
O 	O 	0.69393 0.31456 0.37240 -0.35000
C 	C 	0.73980 0.27229 0.45210 0.30800
O 	O 	0.64216 0.32936 0.55484 -0.37500
O 	O 	0.73140 0.35941 0.57225 -0.41400
H 	H 	0.60516 0.25874 0.42550 0.16100
H 	H 	0.73673 0.39778 0.50338 0.17300
C 	C 	0.66722 0.29741 0.75133 0.07400
C 	C 	0.63724 0.27767 0.71051 -0.08300
C 	C 	0.66510 0.30383 0.67930 0.00600
C 	C 	0.71692 0.35194 0.68900 0.07200
C 	C 	0.74352 0.37591 0.73057 -0.08200
C 	C 	0.71932 0.34524 0.76101 0.00600
N 	N 	0.64441 0.28654 0.78536 -0.15200
C 	C 	0.68240 0.32630 0.81742 -0.00100
C 	C 	0.72857 0.36501 0.80278 -0.04400
N 	N 	0.72642 0.37934 0.65781 -0.15200
C 	C 	0.68153 0.34807 0.62723 -0.00200
C 	C 	0.64139 0.30193 0.64067 -0.04600
H 	H 	0.59394 0.24526 0.70371 0.05200
H 	H 	0.77983 0.41704 0.73889 0.05100
H 	H 	0.76857 0.39458 0.82184 0.04200
H 	H 	0.60676 0.26554 0.62050 0.04300
H 	H 	0.61100 0.24862 0.78842 0.08200
H 	H 	0.76515 0.41074 0.65367 0.08400
C 	C 	0.63485 0.22941 0.25027 0.07500
C 	C 	0.66195 0.22802 0.21864 -0.08200
C 	C 	0.63816 0.22024 0.17738 0.01000
C 	C 	0.59475 0.22326 0.16862 0.07700
C 	C 	0.57227 0.23180 0.20085 -0.08400
C 	C 	0.58995 0.23015 0.24124 0.01200
N 	N 	0.66016 0.25289 0.29014 -0.15200
C 	C 	0.63186 0.26878 0.30646 0.00200
C 	C 	0.58812 0.25558 0.27717 -0.05100
N 	N 	0.59540 0.24023 0.13242 -0.15300
C 	C 	0.63869 0.24782 0.11795 0.00300
C 	C 	0.66657 0.23621 0.14499 -0.04100
H 	H 	0.70144 0.23582 0.22603 0.05300
H 	H 	0.54464 0.24248 0.19508 0.05100
H 	H 	0.56916 0.27597 0.27807 0.04600
H 	H 	0.70943 0.25334 0.14745 0.04900
H 	H 	0.70105 0.26978 0.30153 0.09500
H 	H 	0.57730 0.25881 0.12415 0.08200
C 	C 	0.89817 0.87251 0.45002 -0.00300
C 	C 	0.90569 0.85525 0.48617 -0.03700
C 	C 	0.88168 0.80088 0.48537 -0.04200
C 	C 	0.84993 0.76330 0.44840 0.00700
C 	C 	0.84102 0.78034 0.41257 -0.04200
C 	C 	0.86503 0.83474 0.41339 -0.03600
C 	C 	0.82717 0.70636 0.44693 0.00900
C 	C 	0.77046 0.66680 0.43843 -0.04400
C 	C 	0.74896 0.61288 0.43700 -0.03100
C 	C 	0.78397 0.59812 0.44405 -0.00900
C 	C 	0.84062 0.63753 0.45254 -0.03100
C 	C 	0.86219 0.69150 0.45397 -0.04400
C 	C 	0.76158 0.54248 0.44252 0.04500
C 	C 	0.74149 0.49556 0.44100 -0.11100
H 	H 	0.93104 0.88410 0.51464 0.03700
H 	H 	0.88828 0.78805 0.51331 0.03900
H 	H 	0.81644 0.75162 0.38391 0.04000
H 	H 	0.85910 0.84770 0.38530 0.03800
H 	H 	0.74310 0.67786 0.43309 0.04000
H 	H 	0.70511 0.58261 0.43044 0.03800
H 	H 	0.86793 0.62642 0.45799 0.03800
H 	H 	0.90604 0.72170 0.46037 0.04000
C 	C 	0.90334 0.03396 0.43827 -0.00300
C 	C 	0.87447 0.03512 0.46849 -0.03700
C 	C 	0.85139 0.06263 0.46529 -0.04200
C 	C 	0.85697 0.08920 0.43185 0.00600
C 	C 	0.88473 0.08698 0.40112 -0.04200
C 	C 	0.90778 0.05945 0.40430 -0.03700
C 	C 	0.83557 0.12105 0.42991 0.00900
C 	C 	0.87155 0.17686 0.43276 -0.04500
C 	C 	0.85172 0.20750 0.43372 -0.03100
C 	C 	0.79584 0.18259 0.43180 -0.01200
C 	C 	0.75968 0.12672 0.42788 -0.03100
C 	C 	0.77945 0.09603 0.42690 -0.04500
C 	C 	0.77625 0.21466 0.43739 0.04600
C 	C 	0.75973 0.24122 0.44331 -0.12000
H 	H 	0.87093 0.01571 0.49488 0.03700
H 	H 	0.83010 0.06416 0.48920 0.03800
H 	H 	0.88890 0.10702 0.37503 0.03900
H 	H 	0.92971 0.05853 0.38069 0.03700
H 	H 	0.91494 0.19657 0.43510 0.04000
H 	H 	0.87995 0.25067 0.43684 0.03600
H 	H 	0.71643 0.10717 0.42640 0.03700
H 	H 	0.75129 0.05296 0.42440 0.03900
C 	C 	0.16435 0.08343 0.49870 -0.04200
C 	C 	0.18974 0.10863 0.46629 0.00600
C 	C 	0.15822 0.10508 0.43039 -0.04200
C 	C 	0.24922 0.13817 0.46967 0.00900
C 	C 	0.28247 0.19370 0.47077 -0.04400
C 	C 	0.33844 0.22125 0.47175 -0.03100
C 	C 	0.36155 0.19350 0.47165 -0.00900
C 	C 	0.32861 0.13823 0.47137 -0.03100
C 	C 	0.27259 0.11062 0.47042 -0.04400
C 	C 	0.41838 0.22127 0.46941 0.04500
C 	C 	0.46581 0.24527 0.46677 -0.10800
H 	H 	0.18841 0.08622 0.52662 0.03900
H 	H 	0.17748 0.12436 0.40518 0.03900
H 	H 	0.26484 0.21535 0.47044 0.04000
H 	H 	0.36369 0.26400 0.47199 0.03900
H 	H 	0.34619 0.11651 0.47125 0.03700
H 	H 	0.24724 0.06774 0.46958 0.03900
C 	C 	0.95335 0.88920 0.00574 -0.00200
C 	C 	0.93485 0.86828 0.04143 -0.03500
C 	C 	0.90708 0.81340 0.04097 -0.04300
C 	C 	0.89758 0.77908 0.00481 0.01000
C 	C 	0.91512 0.79988 0.96889 -0.04600
C 	C 	0.94289 0.85472 0.96935 -0.03800
C 	C 	0.87022 0.72160 0.00477 0.01100
C 	C 	0.89823 0.69921 0.99864 -0.04600
C 	C 	0.87179 0.64438 0.99738 -0.03700
C 	C 	0.81727 0.61164 0.00230 0.00100
C 	C 	0.78940 0.63401 0.00888 -0.03300
C 	C 	0.81578 0.68884 0.01012 -0.04200
C 	C 	0.78949 0.55491 0.99960 0.03800
C 	C 	0.76575 0.50730 0.99709 -0.10500
H 	H 	0.94283 0.89465 0.06967 0.03800
H 	H 	0.89363 0.79767 0.06884 0.04000
H 	H 	0.90752 0.77359 0.94073 0.04000
H 	H 	0.95678 0.87052 0.94160 0.03800
H 	H 	0.94037 0.72427 0.99471 0.04000
H 	H 	0.89358 0.62733 0.99234 0.03900
H 	H 	0.74722 0.60888 0.01271 0.04000
H 	H 	0.79382 0.70575 0.01480 0.04000
C 	C 	0.78263 0.22280 0.99342 -0.10300
C 	C 	0.81881 0.22811 0.96757 0.01700
C 	C 	0.84796 0.20727 0.97535 -0.07700
C 	C 	0.84139 0.18103 0.00909 0.03500
C 	C 	0.80651 0.17702 0.03567 -0.07300
C 	C 	0.77729 0.19786 0.02792 0.02400
C 	C 	0.86870 0.15520 0.01514 -0.00600
C 	C 	0.83753 0.09922 0.01099 -0.03300
C 	C 	0.86329 0.07420 0.01275 -0.04600
C 	C 	0.92030 0.10494 0.01867 0.01900
C 	C 	0.95158 0.16094 0.02399 -0.04600
C 	C 	0.92588 0.18604 0.02229 -0.03300
C 	C 	0.94645 0.07882 0.01700 -0.01200
C 	C 	0.96793 0.05657 0.01498 -0.03000
H 	H 	0.82339 0.24720 0.94084 0.01600
H 	H 	0.87473 0.21045 0.95462 0.04500
H 	H 	0.80157 0.15723 0.06202 0.04800
H 	H 	0.75026 0.19425 0.04854 0.03700
H 	H 	0.79337 0.07506 0.00538 0.03700
H 	H 	0.83887 0.03088 0.00871 0.04100
H 	H 	0.99571 0.18496 0.02873 0.04100
H 	H 	0.95030 0.22930 0.02578 0.03700
C 	C 	0.50653 0.21935 0.98389 -0.09700
C 	C 	0.47631 0.17843 0.00639 0.01700
C 	C 	0.42139 0.15603 0.00608 -0.06500
C 	C 	0.39615 0.17427 0.98330 0.02400
C 	C 	0.42567 0.21374 0.95960 -0.06800
C 	C 	0.48063 0.23619 0.95987 0.01300
C 	C 	0.33957 0.15367 0.98572 -0.00600
C 	C 	0.29802 0.12259 0.95047 -0.03500
C 	C 	0.24391 0.10072 0.95342 -0.04500
C 	C 	0.23110 0.10992 0.99156 0.01300
C 	C 	0.27273 0.14200 0.02653 -0.04200
C 	C 	0.32681 0.16386 0.02363 -0.03200
C 	C 	0.17502 0.08342 0.99553 -0.01100
C 	C 	0.12801 0.06027 0.99909 -0.03700
H 	H 	0.49579 0.16518 0.02516 0.03500
H 	H 	0.39871 0.12520 0.02416 0.04600
H 	H 	0.40635 0.22777 0.94168 0.04500
H 	H 	0.50327 0.26722 0.94193 0.03000
H 	H 	0.30752 0.11464 0.92105 0.03700
H 	H 	0.21188 0.07591 0.92626 0.04000
H 	H 	0.26310 0.14928 0.05611 0.04100
H 	H 	0.35872 0.18820 0.05092 0.03700
