data_crystal

_cell_length_a 30.39661
_cell_length_b 31.24018
_cell_length_c 35.14494
_cell_angle_alpha 95.54575
_cell_angle_beta  95.54705
_cell_angle_gamma 125.58424

_symmetry_space_group_name_	'P 1'
_symmetry_space_group_name_H-M	'P 1'

loop_
_symmetry_equiv_pos_as_xyz
  x,y,z

loop_
_atom_site_label
_atom_site_type_symbol
_atom_site_fract_x
_atom_site_fract_y
_atom_site_fract_z
_atom_site_charge
C 	C 	0.96615 0.02405 0.00049 0.11200
N 	N 	0.02023 0.05148 0.99786 -0.13700
C 	C 	0.04351 0.02538 0.99487 0.12000
N 	N 	0.01262 0.97186 0.99429 -0.14100
C 	C 	0.95864 0.94427 0.99674 0.11900
N 	N 	0.93541 0.97039 0.99986 -0.13800
C 	C 	0.94274 0.98969 0.44425 0.11600
N 	N 	0.99753 0.01980 0.44360 -0.13900
C 	C 	0.02463 0.99736 0.44476 0.11600
N 	N 	0.99679 0.94462 0.44644 -0.14100
C 	C 	0.94207 0.91426 0.44710 0.11800
N 	N 	0.91503 0.93687 0.44622 -0.14000
Cu	Cu	0.64627 0.26292 0.00396 0.92500
Cu	Cu	0.70192 0.26268 0.92819 0.87100
Cu	Cu	0.67963 0.34241 0.94847 0.89800
Cu	Cu	0.63316 0.35558 0.01637 0.89100
C 	C 	0.64909 0.30745 0.08052 0.32400
O 	O 	0.56365 0.22474 0.99591 -0.36000
C 	C 	0.67392 0.30103 0.86709 0.32700
O 	O 	0.68507 0.34475 0.00340 -0.64400
O 	O 	0.64586 0.26478 0.94770 -0.63800
O 	O 	0.68539 0.22970 0.01135 -0.37300
O 	O 	0.74918 0.28304 0.97630 -0.43600
O 	O 	0.62091 0.32297 0.06400 -0.39800
O 	O 	0.71556 0.41869 0.95365 -0.38100
C 	C 	0.70285 0.44571 0.97522 0.29000
C 	C 	0.54017 0.24252 0.97636 0.28300
O 	O 	0.57079 0.29135 0.96932 -0.39200
O 	O 	0.66120 0.42143 0.99394 -0.39500
O 	O 	0.65727 0.27578 0.05978 -0.37100
C 	C 	0.73326 0.25000 0.00091 0.28300
O 	O 	0.68829 0.34248 0.89347 -0.39800
O 	O 	0.67116 0.26020 0.87737 -0.43100
H 	H 	0.72285 0.37092 0.01876 0.16100
H 	H 	0.60912 0.24028 0.93062 0.17200
Cu	Cu	0.73888 0.33693 0.45563 0.92800
Cu	Cu	0.73272 0.29695 0.53936 0.87000
Cu	Cu	0.64691 0.30538 0.50123 0.89700
Cu	Cu	0.63746 0.33484 0.42383 0.89400
C 	C 	0.70459 0.32234 0.37325 0.32600
O 	O 	0.77107 0.41505 0.45546 -0.36300
C 	C 	0.68056 0.32705 0.58691 0.32700
O 	O 	0.65282 0.29282 0.44825 -0.64100
O 	O 	0.72850 0.34395 0.50992 -0.64200
O 	O 	0.77853 0.30408 0.46171 -0.37400
O 	O 	0.71987 0.24556 0.49737 -0.44100
O 	O 	0.68069 0.34560 0.38157 -0.39500
O 	O 	0.56751 0.26391 0.48929 -0.38300
C 	C 	0.53893 0.26734 0.46050 0.29000
C 	C 	0.74599 0.43547 0.46725 0.28200
O 	O 	0.69399 0.40328 0.47019 -0.39400
O 	O 	0.56335 0.30295 0.43773 -0.39600
O 	O 	0.73424 0.31865 0.40099 -0.37300
C 	C 	0.75612 0.25889 0.47467 0.28800
O 	O 	0.64007 0.30559 0.55651 -0.39900
O 	O 	0.72577 0.33108 0.58401 -0.42800
H 	H 	0.63016 0.25453 0.43568 0.16300
H 	H 	0.74952 0.38123 0.52440 0.17200
C 	C 	0.69883 0.35977 0.69639 0.00300
C 	C 	0.65079 0.31442 0.70465 -0.03900
C 	C 	0.64232 0.31170 0.74300 -0.04100
C 	C 	0.68231 0.35374 0.77355 0.00600
C 	C 	0.72884 0.40009 0.76511 -0.04100
C 	C 	0.73731 0.40291 0.72674 -0.04000
C 	C 	0.67729 0.34824 0.81449 0.00900
C 	C 	0.66736 0.30278 0.82750 -0.17200
C 	C 	0.71234 0.35957 0.65709 0.01100
C 	C 	0.67184 0.33885 0.62356 -0.17400
H 	H 	0.62103 0.28053 0.68161 0.03800
H 	H 	0.60542 0.27634 0.74908 0.03900
H 	H 	0.75949 0.43310 0.78843 0.03900
H 	H 	0.77444 0.43809 0.72072 0.03600
H 	H 	0.68794 0.38248 0.83525 0.04100
H 	H 	0.65774 0.26927 0.80642 0.08000
H 	H 	0.75451 0.37595 0.65448 0.03200
H 	H 	0.63209 0.32998 0.62621 0.08500
C 	C 	0.69361 0.30436 0.18422 0.00600
C 	C 	0.67328 0.26043 0.20300 -0.03900
C 	C 	0.67336 0.26681 0.24300 -0.04000
C 	C 	0.69418 0.31729 0.26443 0.00600
C 	C 	0.71790 0.36180 0.24612 -0.04000
C 	C 	0.71828 0.35553 0.20630 -0.04000
C 	C 	0.68450 0.32244 0.30433 0.00900
C 	C 	0.70783 0.31122 0.33451 -0.16800
C 	C 	0.68472 0.29597 0.14125 0.00900
C 	C 	0.66034 0.31606 0.12113 -0.16700
H 	H 	0.65509 0.22095 0.18635 0.04000
H 	H 	0.65511 0.23219 0.25693 0.03900
H 	H 	0.73462 0.40102 0.26254 0.03900
H 	H 	0.73594 0.39010 0.19233 0.03700
H 	H 	0.66293 0.33960 0.31063 0.03400
H 	H 	0.73046 0.29528 0.32792 0.08600
H 	H 	0.69314 0.27057 0.12548 0.04300
H 	H 	0.64931 0.33874 0.13757 0.07900
C 	C 	0.91213 0.85670 0.44771 -0.02400
C 	C 	0.87822 0.83374 0.47516 -0.01700
C 	C 	0.85618 0.78104 0.47933 -0.05300
C 	C 	0.86772 0.75102 0.45595 0.02600
C 	C 	0.89971 0.77317 0.42753 -0.05300
C 	C 	0.92183 0.82576 0.42340 -0.01600
C 	C 	0.84844 0.69817 0.46190 -0.01700
C 	C 	0.83304 0.65384 0.46603 -0.02500
C 	C 	0.81517 0.60072 0.46998 0.04000
C 	C 	0.83804 0.57828 0.45149 -0.07100
C 	C 	0.81739 0.52506 0.45223 0.01500
C 	C 	0.77344 0.49373 0.47142 -0.09100
C 	C 	0.75239 0.51722 0.49149 0.01300
C 	C 	0.77307 0.57045 0.49061 -0.07100
H 	H 	0.87045 0.85721 0.49410 0.03800
H 	H 	0.83111 0.76401 0.50118 0.04400
H 	H 	0.90832 0.75000 0.40909 0.04400
H 	H 	0.94745 0.84286 0.40184 0.03800
H 	H 	0.87094 0.60165 0.43575 0.04800
H 	H 	0.83431 0.50775 0.43678 0.03700
H 	H 	0.71924 0.49395 0.50704 0.03000
H 	H 	0.75561 0.58774 0.50535 0.04700
C 	C 	0.91351 0.01430 0.44231 -0.02200
C 	C 	0.92726 0.05253 0.41858 -0.01700
C 	C 	0.90373 0.07989 0.41955 -0.05300
C 	C 	0.86626 0.06929 0.44414 0.02500
C 	C 	0.85105 0.02995 0.46693 -0.05300
C 	C 	0.87452 0.00243 0.46598 -0.01600
C 	C 	0.84558 0.10068 0.44741 -0.01700
C 	C 	0.82852 0.12718 0.44992 -0.02600
C 	C 	0.80882 0.15940 0.45332 0.04000
C 	C 	0.75602 0.13721 0.46120 -0.07300
C 	C 	0.73814 0.16929 0.46696 0.01500
C 	C 	0.77311 0.22400 0.46503 -0.09700
C 	C 	0.82548 0.24575 0.45602 0.01700
C 	C 	0.84324 0.21354 0.45025 -0.07300
H 	H 	0.95667 0.06150 0.39977 0.04000
H 	H 	0.91538 0.10998 0.40165 0.04400
H 	H 	0.82190 0.02138 0.48591 0.04300
H 	H 	0.86357 0.97309 0.48445 0.03700
H 	H 	0.72905 0.09529 0.46336 0.04700
H 	H 	0.69734 0.15172 0.47329 0.02800
H 	H 	0.85294 0.28781 0.45443 0.03300
H 	H 	0.88407 0.23091 0.44402 0.04800
C 	C 	0.47863 0.23594 0.45719 -0.09000
C 	C 	0.44890 0.18588 0.46871 0.01700
C 	C 	0.39191 0.15651 0.46614 -0.07200
C 	C 	0.36421 0.17687 0.45204 0.04100
C 	C 	0.39362 0.22661 0.44034 -0.07200
C 	C 	0.45061 0.25608 0.44287 0.01700
C 	C 	0.30564 0.14683 0.44979 -0.02500
C 	C 	0.25658 0.12151 0.44797 -0.01600
C 	C 	0.19800 0.09097 0.44591 0.02600
C 	C 	0.17583 0.11414 0.46441 -0.05300
C 	C 	0.11909 0.08388 0.46357 -0.01700
C 	C 	0.08414 0.03013 0.44421 -0.02300
C 	C 	0.10649 0.00731 0.42520 -0.01500
C 	C 	0.16321 0.03765 0.42610 -0.05300
H 	H 	0.46984 0.16961 0.47946 0.03000
H 	H 	0.36934 0.11797 0.47514 0.04800
H 	H 	0.37242 0.24258 0.42943 0.04800
H 	H 	0.47299 0.29479 0.43416 0.03200
H 	H 	0.20254 0.15540 0.47976 0.04400
H 	H 	0.10249 0.10192 0.47853 0.04000
H 	H 	0.07996 0.96611 0.40975 0.03700
H 	H 	0.18010 0.01957 0.41160 0.04400
C 	C 	0.92554 0.88615 0.99603 -0.01800
C 	C 	0.87140 0.85178 0.97467 -0.01700
C 	C 	0.84193 0.79623 0.97117 -0.05400
C 	C 	0.86632 0.77477 0.98906 0.03300
C 	C 	0.91974 0.80900 0.01120 -0.05900
C 	C 	0.94925 0.86446 0.01473 -0.02200
C 	C 	0.83695 0.71764 0.98425 -0.01700
C 	C 	0.81292 0.66988 0.98051 -0.02400
C 	C 	0.78445 0.61295 0.97654 0.04100
C 	C 	0.81337 0.59102 0.97292 -0.07200
C 	C 	0.78643 0.53611 0.97150 0.01700
C 	C 	0.73038 0.50282 0.97384 -0.09000
C 	C 	0.70125 0.52482 0.97651 0.01800
C 	C 	0.72826 0.57967 0.97789 -0.07200
H 	H 	0.85268 0.86798 0.96001 0.03900
H 	H 	0.80048 0.76994 0.95417 0.04500
H 	H 	0.93863 0.79264 0.02538 0.04300
H 	H 	0.99072 0.89057 0.03171 0.03800
H 	H 	0.85686 0.61657 0.97179 0.04800
H 	H 	0.80940 0.51971 0.96949 0.02900
H 	H 	0.65779 0.49949 0.97771 0.03200
H 	H 	0.70560 0.59635 0.98047 0.04900
C 	C 	0.94087 0.05242 0.00420 -0.02900
C 	C 	0.88533 0.02636 0.98743 -0.01000
C 	C 	0.86120 0.05296 0.99134 -0.04700
C 	C 	0.89229 0.10577 0.01196 0.01900
C 	C 	0.94767 0.13194 0.02874 -0.05200
C 	C 	0.97193 0.10541 0.02491 -0.01700
C 	C 	0.86763 0.13347 0.01504 -0.01600
C 	C 	0.84626 0.15600 0.01730 -0.02900
C 	C 	0.82011 0.18236 0.01898 0.04000
C 	C 	0.84837 0.23532 0.01319 -0.07500
C 	C 	0.82080 0.25862 0.00955 0.01400
C 	C 	0.76454 0.22890 0.01143 -0.10000
C 	C 	0.73718 0.17682 0.01944 0.01500
C 	C 	0.76488 0.15364 0.02307 -0.07400
H 	H 	0.86100 0.98569 0.97111 0.03700
H 	H 	0.81841 0.03258 0.97815 0.04400
H 	H 	0.97195 0.17281 0.04470 0.04300
H 	H 	0.01463 0.12585 0.03832 0.03800
H 	H 	0.89127 0.25796 0.01042 0.04600
H 	H 	0.84277 0.29921 0.00423 0.02600
H 	H 	0.69395 0.15351 0.02129 0.03200
H 	H 	0.74290 0.11279 0.02787 0.04700
C 	C 	0.10227 0.05491 0.99281 -0.01800
C 	C 	0.12524 0.09183 0.96773 -0.01700
C 	C 	0.17934 0.11509 0.96249 -0.05400
C 	C 	0.21073 0.10174 0.98241 0.03300
C 	C 	0.18846 0.06625 0.00835 -0.05900
C 	C 	0.13449 0.04294 0.01357 -0.02200
C 	C 	0.26555 0.12377 0.97594 -0.01700
C 	C 	0.31157 0.14146 0.97124 -0.02300
C 	C 	0.36690 0.16243 0.96680 0.04000
C 	C 	0.39057 0.13801 0.98012 -0.07000
C 	C 	0.44654 0.16236 0.98094 0.01700
C 	C 	0.47944 0.21173 0.96873 -0.09000
C 	C 	0.45456 0.23412 0.95287 0.01300
C 	C 	0.39859 0.20968 0.95217 -0.07000
H 	H 	0.10077 0.10130 0.95149 0.04000
H 	H 	0.19649 0.14284 0.94259 0.04500
H 	H 	0.21273 0.05620 0.02413 0.04400
H 	H 	0.11742 0.01499 0.03335 0.03800
H 	H 	0.36603 0.10099 0.99095 0.04900
H 	H 	0.46460 0.14372 0.99226 0.03700
H 	H 	0.47887 0.27137 0.94232 0.03100
H 	H 	0.38030 0.22835 0.94129 0.04800
