data_crystal

_cell_length_a 20.66413
_cell_length_b 21.69640
_cell_length_c 39.12302
_cell_angle_alpha 60.72780
_cell_angle_beta  119.01603
_cell_angle_gamma 133.32361

_symmetry_space_group_name_	'P 1'
_symmetry_space_group_name_H-M	'P 1'

loop_
_symmetry_equiv_pos_as_xyz
  x,y,z

loop_
_atom_site_label
_atom_site_type_symbol
_atom_site_fract_x
_atom_site_fract_y
_atom_site_fract_z
_atom_site_charge
Co	Co	0.01597 0.09492 0.07281 1.16800
Co	Co	0.09386 0.03262 0.04822 1.18000
Co	Co	0.12116 0.89690 0.05434 1.18200
O 	O 	0.09036 0.13227 0.03778 -0.43500
C 	C 	0.09639 0.22439 0.11571 0.33900
C 	C 	0.11544 0.78951 0.13852 0.32700
O 	O 	0.09390 0.78848 0.10155 -0.40100
O 	O 	0.09270 0.82457 0.14683 -0.35800
O 	O 	0.01148 0.19702 0.10538 -0.40700
O 	O 	0.11621 0.18639 0.10805 -0.37100
O 	O 	0.06744 0.93070 0.07009 -0.76400
Co	Co	0.07225 0.03261 0.54355 1.18200
Co	Co	0.11167 0.91374 0.53969 1.17400
O 	O 	0.05849 0.12091 0.53922 -0.44100
C 	C 	0.03874 0.18508 0.61964 0.29500
C 	C 	0.13612 0.81857 0.62536 0.33700
O 	O 	0.10518 0.81192 0.58855 -0.40500
O 	O 	0.11327 0.85008 0.63589 -0.35900
O 	O 	0.06800 0.15653 0.61127 -0.37100
O 	O 	0.05236 0.93383 0.56052 -0.76300
C 	C 	0.08864 0.01244 0.80742 0.07300
C 	C 	0.07489 0.99422 0.77336 0.09900
C 	C 	0.06489 0.93256 0.93485 0.13200
C 	C 	0.04156 0.92129 0.89711 0.06200
Br	Br	0.11077 0.86969 0.98162 -0.22400
Br	Br	0.17410 0.11537 0.34162 -0.11700
C 	C 	0.20039 0.79440 0.65329 -0.09800
C 	C 	0.12643 0.62365 0.15619 0.08200
C 	C 	0.14369 0.73184 0.17030 -0.09100
C 	C 	0.08955 0.64722 0.16573 0.08100
Br	Br	0.05364 0.56465 0.11355 -0.18600
Br	Br	0.03038 0.35238 0.01632 -0.17900
H 	H 	0.15651 0.49874 0.17249 0.10500
H 	H 	0.12761 0.53357 0.63496 0.10100
C 	C 	0.10279 0.27038 0.63036 -0.09300
C 	C 	0.16498 0.70901 0.67836 0.11800
Br	Br	0.09960 0.66791 0.71530 -0.13300
C 	C 	0.16922 0.30431 0.13132 -0.10600
C 	C 	0.09297 0.01040 0.97785 0.33600
O 	O 	0.15604 0.00157 0.00489 -0.39100
O 	O 	0.05031 0.02099 0.98882 -0.35400
C 	C 	0.05905 0.02086 0.46601 0.35300
O 	O 	0.12518 0.01214 0.48781 -0.39900
C 	C 	0.06096 0.99353 0.93754 -0.08700
C 	C 	0.17760 0.29976 0.17035 0.11400
C 	C 	0.01311 0.97067 0.82197 -0.02300
C 	C 	0.04169 0.04762 0.90131 0.11600
C 	C 	0.09610 0.27543 0.66311 0.11100
Br	Br	0.17772 0.05184 0.75326 -0.14600
C 	C 	0.07816 0.05122 0.36804 -0.01300
C 	C 	0.09609 0.07637 0.40042 0.16100
Br	Br	0.18360 0.20914 0.21479 -0.15600
C 	C 	0.02828 0.97851 0.86155 0.04100
C 	C 	0.02701 0.04100 0.86347 0.05500
Br	Br	0.04295 0.13566 0.90318 -0.13000
C 	C 	0.12003 0.35377 0.66331 0.07700
Br	Br	0.06669 0.17972 0.71007 -0.16800
Br	Br	0.10267 0.35739 0.70626 -0.12400
C 	C 	0.14681 0.34781 0.60147 0.11300
O 	O 	0.02660 0.03341 0.48219 -0.36900
Br	Br	0.00593 0.11787 0.81433 -0.12200
Br	Br	0.14931 0.54681 0.71757 -0.12400
Br	Br	0.02941 0.82720 0.89414 -0.12800
C 	C 	0.16296 0.42362 0.59977 0.07400
C 	C 	0.02892 0.02596 0.42205 -0.19000
C 	C 	0.15881 0.42991 0.63282 -0.03500
C 	C 	0.18684 0.65823 0.67932 0.07400
Co	Co	0.00023 0.85665 0.10315 1.17100
Br	Br	0.19313 0.51982 0.55282 -0.13300
C 	C 	0.19946 0.56102 0.64314 -0.07900
Br	Br	0.03711 0.86596 0.27906 -0.16700
Br	Br	0.02197 0.84780 0.36528 -0.16600
C 	C 	0.19631 0.36906 0.17773 0.07300
Br	Br	0.19837 0.35417 0.56902 -0.14100
Co	Co	0.00113 0.85710 0.59874 1.17300
O 	O 	0.99902 0.06137 0.17788 -0.35700
Br	Br	0.21019 0.18301 0.41335 -0.12500
Br	Br	0.91300 0.07954 0.27941 -0.09400
Br	Br	0.97263 0.29303 0.51728 -0.11000
Co	Co	0.97877 0.06634 0.57591 1.20100
O 	O 	0.95072 0.14402 0.61325 -0.34900
O 	O 	0.95842 0.01533 0.68601 -0.36200
C 	C 	0.98557 0.93590 0.75314 -0.03900
C 	C 	0.96529 0.95056 0.70894 0.33700
O 	O 	0.98044 0.91768 0.69459 -0.33200
O 	O 	0.23868 0.00770 0.56796 -0.36700
Br	Br	0.21042 0.09527 0.83378 -0.10700
Br	Br	0.37071 0.95463 0.63399 -0.13500
O 	O 	0.21332 0.09899 0.56525 -0.36700
C 	C 	0.92435 0.00044 0.24236 0.12300
C 	C 	0.93575 0.00686 0.27918 0.06700
Br	Br	0.86227 0.04506 0.19387 -0.21700
C 	C 	0.27470 0.83332 0.63924 0.11100
C 	C 	0.97791 0.98558 0.20250 0.35100
O 	O 	0.96845 0.92902 0.19190 -0.32400
O 	O 	0.24654 0.98217 0.08641 -0.34700
O 	O 	0.23524 0.09252 0.07150 -0.35400
C 	C 	0.95852 0.96248 0.24124 -0.08100
C 	C 	0.96794 0.96444 0.31573 0.01700
C 	C 	0.28177 0.78133 0.63201 0.07000
Br	Br	0.33009 0.82683 0.58730 -0.15600
Br	Br	0.29851 0.21178 0.98923 -0.14500
Br	Br	0.97373 0.56130 0.17930 -0.06900
C 	C 	0.28073 0.06601 0.07465 0.31400
C 	C 	0.26483 0.08708 0.56178 0.33200
Br	Br	0.20157 0.35989 0.23043 -0.13700
C 	C 	0.23773 0.76958 0.18738 0.10900
Br	Br	0.33628 0.28036 0.49205 -0.13100
C 	C 	0.74422 0.30756 0.01788 0.10900
C 	C 	0.65968 0.24544 0.02907 -0.08200
C 	C 	0.61680 0.27304 0.03082 0.11400
C 	C 	0.65953 0.36203 0.02300 -0.08800
C 	C 	0.74891 0.42360 0.01790 0.11400
C 	C 	0.78922 0.39752 0.01245 -0.07800
H 	H 	0.62695 0.17620 0.03578 0.09700
H 	H 	0.62644 0.38288 0.02478 0.09700
H 	H 	0.85477 0.44631 0.00445 0.11600
C 	C 	0.72166 0.27984 0.53093 0.11000
C 	C 	0.77726 0.37222 0.52225 -0.07900
C 	C 	0.75999 0.41353 0.53201 0.11400
C 	C 	0.68115 0.36443 0.54501 -0.08900
C 	C 	0.62031 0.27440 0.54940 0.11500
C 	C 	0.64341 0.23105 0.54526 -0.08300
H 	H 	0.83471 0.41124 0.50917 0.11100
H 	H 	0.66566 0.39696 0.55063 0.09800
H 	H 	0.60018 0.16027 0.55245 0.10000
C 	C 	0.26608 0.63889 0.16215 0.10500
C 	C 	0.35234 0.70388 0.15203 -0.07900
C 	C 	0.39833 0.67950 0.15003 0.11200
C 	C 	0.35585 0.59205 0.15468 -0.08700
C 	C 	0.26493 0.52906 0.15727 0.11000
C 	C 	0.22206 0.55025 0.16459 -0.07700
H 	H 	0.38380 0.77244 0.14629 0.10200
H 	H 	0.39142 0.57400 0.15271 0.09600
C 	C 	0.26726 0.64244 0.65388 0.10700
C 	C 	0.36064 0.68048 0.66064 -0.08100
C 	C 	0.38476 0.63830 0.65622 0.11400
C 	C 	0.31860 0.55325 0.65185 -0.08800
C 	C 	0.22610 0.51578 0.64308 0.11100
H 	H 	0.41358 0.74413 0.66731 0.10200
H 	H 	0.33885 0.51871 0.65159 0.09800
Co	Co	0.92823 0.92152 0.13146 1.19600
C 	C 	0.92201 0.75038 0.04444 0.32300
Co	Co	0.90940 0.06663 0.12379 1.19100
O 	O 	0.95080 0.02298 0.10684 -0.74000
O 	O 	0.92978 0.82105 0.14007 -0.39800
O 	O 	0.98874 0.96794 0.08135 -0.52800
C 	C 	0.75226 0.87658 0.12771 0.34200
O 	O 	0.80580 0.93942 0.14591 -0.36000
O 	O 	0.78776 0.85893 0.11635 -0.34900
C 	C 	0.86673 0.12874 0.03586 0.33100
O 	O 	0.82821 0.06920 0.06631 -0.36700
O 	O 	0.93142 0.13739 0.02965 -0.31500
O 	O 	0.98742 0.81714 0.02468 -0.31800
O 	O 	0.90563 0.76099 0.06974 -0.32400
Co	Co	0.91990 0.89644 0.63601 1.19400
C 	C 	0.92476 0.74985 0.54127 0.32500
Co	Co	0.86302 0.00948 0.63240 1.17300
O 	O 	0.91904 0.98615 0.61134 -0.73000
O 	O 	0.94208 0.81211 0.64270 -0.39800
O 	O 	0.96803 0.95149 0.58017 -0.53200
C 	C 	0.73185 0.81647 0.63808 0.34500
O 	O 	0.77313 0.87699 0.65587 -0.37500
O 	O 	0.77905 0.80981 0.62817 -0.35200
C 	C 	0.81326 0.07307 0.54448 0.32500
O 	O 	0.77807 0.00831 0.57518 -0.36700
O 	O 	0.87885 0.08951 0.53511 -0.33000
O 	O 	0.97800 0.82016 0.51652 -0.33000
O 	O 	0.90912 0.75646 0.56842 -0.32200
C 	C 	0.91225 0.88750 0.77064 0.10000
C 	C 	0.92478 0.90858 0.80319 0.13000
Br	Br	0.79497 0.79178 0.75034 -0.12800
Br	Br	0.82083 0.85140 0.82251 -0.08800
C 	C 	0.98995 0.91596 0.31525 0.11100
C 	C 	0.98977 0.91842 0.27824 0.15600
C 	C 	0.98987 0.98071 0.35426 0.10700
C 	C 	0.93818 0.96244 0.40547 0.20300
C 	C 	0.91898 0.93760 0.37241 0.03700
Br	Br	0.79561 0.84738 0.35098 -0.07900
Br	Br	0.83986 0.91835 0.42453 -0.11000
C 	C 	0.57067 0.75884 0.60455 0.11600
C 	C 	0.63455 0.74622 0.63675 -0.10900
C 	C 	0.60853 0.68581 0.67275 0.12600
C 	C 	0.53550 0.66346 0.68160 0.07300
C 	C 	0.47623 0.68568 0.65085 -0.03600
C 	C 	0.49180 0.72989 0.61145 0.07500
Br	Br	0.40179 0.74346 0.56661 -0.11600
Br	Br	0.58808 0.80859 0.55085 -0.12100
Br	Br	0.51572 0.60150 0.73533 -0.11800
Br	Br	0.65888 0.62038 0.70466 -0.11300
C 	C 	0.24141 0.69305 0.65370 -0.03300
C 	C 	0.21008 0.45068 0.10855 0.07300
C 	C 	0.21309 0.44563 0.14672 -0.03300
C 	C 	0.20167 0.38543 0.10343 0.12300
Br	Br	0.25292 0.41289 0.06391 -0.13000
Br	Br	0.21895 0.54746 0.06365 -0.12600
C 	C 	0.50638 0.78262 0.10496 0.07600
C 	C 	0.49282 0.74434 0.14434 -0.03500
C 	C 	0.56364 0.74402 0.17731 0.07400
C 	C 	0.64158 0.77044 0.17081 0.12100
C 	C 	0.65689 0.81147 0.13171 -0.10400
C 	C 	0.58720 0.81384 0.09862 0.11400
Br	Br	0.60260 0.85946 0.04473 -0.12300
Br	Br	0.41424 0.79231 0.05985 -0.12900
Br	Br	0.72942 0.75291 0.21561 -0.13100
Br	Br	0.55178 0.70428 0.23144 -0.11300
C 	C 	0.22201 0.66419 0.16983 -0.03400
C 	C 	0.27589 0.73150 0.19006 0.07300
Br	Br	0.31156 0.86796 0.20931 -0.11500
Br	Br	0.39156 0.75849 0.22726 -0.12000
C 	C 	0.68000 0.16382 0.50709 0.07300
C 	C 	0.74687 0.23417 0.52620 -0.03300
C 	C 	0.83802 0.26031 0.54071 0.07500
C 	C 	0.86075 0.22147 0.53285 0.11100
C 	C 	0.79240 0.13804 0.52564 -0.10000
C 	C 	0.70111 0.11104 0.51021 0.11700
Br	Br	0.60827 0.00873 0.48928 -0.11900
Br	Br	0.56721 0.14871 0.47176 -0.13100
Br	Br	0.92605 0.33275 0.57834 -0.14200
C 	C 	0.89572 0.60275 0.57269 0.11400
C 	C 	0.88129 0.66200 0.53839 -0.09700
C 	C 	0.83782 0.64260 0.50034 0.11700
C 	C 	0.81307 0.56688 0.49662 0.07600
C 	C 	0.82615 0.50753 0.53111 -0.03500
C 	C 	0.87721 0.53130 0.56809 0.07500
Br	Br	0.91366 0.46037 0.61350 -0.11400
Br	Br	0.92339 0.60896 0.62591 -0.12500
Br	Br	0.75608 0.54137 0.44462 -0.11000
Br	Br	0.79917 0.71131 0.45492 -0.11200
C 	C 	0.46531 0.24176 0.52039 0.07300
C 	C 	0.52844 0.22807 0.55387 -0.03700
C 	C 	0.51240 0.19036 0.59281 0.07500
C 	C 	0.42929 0.15837 0.59711 0.12800
C 	C 	0.36181 0.15987 0.56257 -0.10700
C 	C 	0.38723 0.21606 0.52621 0.11600
Br	Br	0.48567 0.29537 0.46691 -0.11800
Br	Br	0.41417 0.12849 0.64908 -0.12800
Br	Br	0.60438 0.18468 0.63975 -0.12300
C 	C 	0.90957 0.27467 0.02393 0.14700
C 	C 	0.84824 0.19566 0.01267 -0.10900
C 	C 	0.75830 0.16976 0.99156 0.12800
C 	C 	0.72865 0.21563 0.98816 0.07600
C 	C 	0.78427 0.27775 0.01134 -0.03200
C 	C 	0.87604 0.30594 0.03019 0.06800
Br	Br	0.94984 0.37096 0.07058 -0.11600
Br	Br	0.61877 0.20085 0.94893 -0.11900
Br	Br	0.67802 0.07483 0.96619 -0.11300
C 	C 	0.83269 0.58688 0.06618 0.11900
C 	C 	0.86005 0.66372 0.03496 -0.09700
C 	C 	0.84428 0.65937 0.99652 0.12800
C 	C 	0.81862 0.58401 0.99177 0.08400
C 	C 	0.80356 0.51102 0.02491 -0.03400
C 	C 	0.81595 0.51518 0.06277 0.08000
Br	Br	0.80285 0.41924 0.10931 -0.10700
Br	Br	0.79111 0.56996 0.10669 -0.12700
Br	Br	0.80121 0.57984 0.93968 -0.10200
Br	Br	0.84020 0.74843 0.94961 -0.10300
C 	C 	0.44708 0.13192 0.09460 0.11600
C 	C 	0.37181 0.13112 0.06546 -0.10300
C 	C 	0.37881 0.17727 0.02527 0.11100
C 	C 	0.45158 0.20760 0.01284 0.06900
C 	C 	0.52750 0.20933 0.04173 -0.03800
C 	C 	0.52432 0.16969 0.08272 0.07400
Br	Br	0.62591 0.16781 0.12256 -0.12900
Br	Br	0.44839 0.09061 0.15090 -0.12700
Br	Br	0.44803 0.24766 0.95623 -0.11700
