data_crystal

_cell_length_a 19.08861
_cell_length_b 17.58334
_cell_length_c 50.50178
_cell_angle_alpha 89.63726
_cell_angle_beta  89.64260
_cell_angle_gamma 119.42273

_symmetry_space_group_name_	'P 1'
_symmetry_space_group_name_H-M	'P 1'

loop_
_symmetry_equiv_pos_as_xyz
  x,y,z

loop_
_atom_site_label
_atom_site_type_symbol
_atom_site_fract_x
_atom_site_fract_y
_atom_site_fract_z
_atom_site_charge
O 	O 	0.04837 0.84649 0.72404 -0.36000
O 	O 	0.03145 0.00732 0.73033 -0.71200
H 	H 	0.04540 0.03452 0.74790 0.16600
O 	O 	0.04360 0.26872 0.20373 -0.35100
O 	O 	0.02127 0.95535 0.24759 -0.37200
O 	O 	0.02535 0.99693 0.19149 -0.35900
F 	F 	0.03865 0.12930 0.14676 -0.42300
H 	H 	0.04645 0.18339 0.09795 0.14200
C 	C 	0.01245 0.16025 0.33706 -0.12200
C 	C 	0.00300 0.16933 0.30998 0.37700
C 	C 	0.04765 0.49116 0.46679 -0.07600
C 	C 	0.02598 0.41269 0.48041 -0.00100
C 	C 	0.00867 0.59386 0.44697 0.08900
N 	N 	0.02599 0.65968 0.43655 -0.08000
C 	C 	0.04025 0.71749 0.65030 0.29500
C 	C 	0.04809 0.76681 0.67281 -0.04200
C 	C 	0.01900 0.46874 0.94014 0.01800
C 	C 	0.01543 0.55734 0.98599 0.02400
C 	C 	0.02052 0.42592 0.91587 0.11500
C 	C 	0.00915 0.61491 0.00511 0.14400
N 	N 	0.00386 0.66074 0.02036 -0.07800
C 	C 	0.04811 0.92771 0.85398 0.32600
C 	C 	0.05853 0.95209 0.82709 -0.08700
H 	H 	0.08593 0.77199 0.89493 0.13400
H 	H 	0.04120 0.30333 0.43090 0.09500
N 	N 	0.02171 0.39174 0.89650 -0.07900
C 	C 	0.12044 0.05326 0.67172 0.36600
Ni	Ni	0.11549 0.98145 0.72616 1.11400
Ni	Ni	0.03672 0.10455 0.71215 1.12500
O 	O 	0.13158 0.18593 0.73474 -0.32000
O 	O 	0.11165 0.98493 0.68517 -0.36500
O 	O 	0.11969 0.11891 0.68397 -0.36900
O 	O 	0.10885 0.96187 0.76707 -0.34900
C 	C 	0.12718 0.53722 0.45344 0.31200
O 	O 	0.13427 0.50878 0.43014 -0.35400
C 	C 	0.08998 0.25698 0.18689 0.35400
C 	C 	0.05560 0.24739 0.26663 0.31500
C 	C 	0.09935 0.01423 0.19595 0.40000
C 	C 	0.07210 0.00814 0.26594 0.38800
Ni	Ni	0.11496 0.15869 0.23046 1.12900
O 	O 	0.14511 0.07595 0.21259 -0.36900
O 	O 	0.13085 0.21874 0.19460 -0.33900
O 	O 	0.10605 0.09453 0.26437 -0.35900
O 	O 	0.11478 0.25962 0.25020 -0.35200
C 	C 	0.06733 0.23470 0.11253 -0.13000
C 	C 	0.09938 0.32215 0.10441 0.01600
C 	C 	0.12488 0.38789 0.12369 0.29200
C 	C 	0.11915 0.36608 0.15067 -0.05000
C 	C 	0.09061 0.27916 0.15863 -0.13500
C 	C 	0.06490 0.21350 0.13941 0.37700
C 	C 	0.11284 0.34578 0.07577 0.01200
H 	H 	0.13929 0.41715 0.16532 0.11100
C 	C 	0.16285 0.32504 0.06041 0.29300
C 	C 	0.12014 0.44573 0.04103 0.36700
C 	C 	0.08557 0.39993 0.06468 -0.12800
F 	F 	0.09888 0.50382 0.03175 -0.43900
H 	H 	0.04226 0.41148 0.07531 0.13200
C 	C 	0.09948 0.80848 0.17498 -0.13900
C 	C 	0.12680 0.95461 0.18609 -0.15600
C 	C 	0.07380 0.86404 0.18553 0.37300
H 	H 	0.05683 0.73958 0.17297 0.13400
C 	C 	0.08295 0.22033 0.34980 0.02800
C 	C 	0.14435 0.28980 0.33514 0.29900
C 	C 	0.13532 0.29829 0.30800 -0.04700
C 	C 	0.06440 0.23892 0.29533 -0.12200
C 	C 	0.08969 0.21591 0.37888 0.02000
C 	C 	0.04212 0.23655 0.39551 0.27900
C 	C 	0.07341 0.27776 0.41963 -0.05100
C 	C 	0.15411 0.30521 0.42536 -0.12700
C 	C 	0.15771 0.21646 0.38961 -0.12400
H 	H 	0.11658 0.73817 0.33112 0.14200
C 	C 	0.13811 0.91963 0.27572 -0.04300
C 	C 	0.10553 0.97093 0.28493 -0.15400
C 	C 	0.11168 0.99278 0.31185 0.36500
C 	C 	0.14864 0.96198 0.32947 -0.13300
H 	H 	0.13539 0.90418 0.25488 0.10800
F 	F 	0.08094 0.04276 0.32099 -0.42300
H 	H 	0.15122 0.97722 0.35032 0.12500
C 	C 	0.08573 0.40206 0.49497 0.09500
N 	N 	0.13317 0.39343 0.50679 -0.09600
C 	C 	0.12227 0.99344 0.62711 0.32600
F 	F 	0.05695 0.91635 0.63404 -0.42800
F 	F 	0.10474 0.74064 0.63408 -0.39500
H 	H 	0.10571 0.82319 0.67709 0.11100
C 	C 	0.09189 0.52760 0.95259 0.02100
C 	C 	0.09080 0.57685 0.97481 -0.01800
C 	C 	0.16665 0.53434 0.94313 0.11000
F 	F 	0.06493 0.98897 0.87278 -0.40100
H 	H 	0.07904 0.01947 0.82155 0.12700
C 	C 	0.03895 0.91165 0.77933 0.31500
F 	F 	0.15785 0.47304 0.11627 -0.42300
C 	C 	0.19508 0.17550 0.73893 0.33300
O 	O 	0.20321 0.11354 0.72679 -0.35500
C 	C 	0.20612 0.39868 0.42947 0.34300
O 	O 	0.21156 0.43121 0.45380 -0.34400
O 	O 	0.22968 0.44893 0.40792 -0.34400
O 	O 	0.19129 0.58461 0.46759 -0.35600
C 	C 	0.16807 0.64536 0.98686 0.31700
O 	O 	0.16878 0.67414 0.01075 -0.31500
O 	O 	0.21412 0.66521 0.05762 -0.33000
O 	O 	0.23365 0.68128 0.97283 -0.37200
C 	C 	0.19490 0.36911 0.03636 -0.05100
C 	C 	0.18399 0.43986 0.02911 -0.13400
F 	F 	0.18662 0.26902 0.06991 -0.40900
H 	H 	0.23902 0.35849 0.02588 0.10500
C 	C 	0.17773 0.84287 0.16469 0.02600
C 	C 	0.20759 0.98747 0.17865 -0.06700
C 	C 	0.19275 0.79526 0.14366 0.01800
C 	C 	0.19619 0.76871 0.09692 0.37900
C 	C 	0.18016 0.81036 0.11740 -0.14500
F 	F 	0.18466 0.78608 0.07158 -0.46700
H 	H 	0.15848 0.85550 0.11286 0.13000
F 	F 	0.21162 0.35065 0.34738 -0.40800
H 	H 	0.18294 0.35197 0.29693 0.11400
C 	C 	0.18902 0.25970 0.41349 0.38200
H 	H 	0.19137 0.19335 0.37804 0.14600
C 	C 	0.16975 0.77816 0.34264 -0.13500
C 	C 	0.21087 0.86909 0.33933 0.03000
C 	C 	0.19696 0.73842 0.36071 0.39800
C 	C 	0.18065 0.91009 0.32028 0.01500
F 	F 	0.15803 0.64997 0.36283 -0.43300
C 	C 	0.17608 0.88993 0.29324 0.29300
F 	F 	0.20812 0.84119 0.28399 -0.39500
C 	C 	0.21545 0.14597 0.63600 -0.06600
C 	C 	0.15079 0.06535 0.64419 -0.10800
C 	C 	0.16183 0.00068 0.60301 -0.07200
H 	H 	0.14112 0.94424 0.59037 0.10900
N 	N 	0.22612 0.53944 0.93548 -0.10200
F 	F 	0.17833 0.27445 0.78060 -0.41100
C 	C 	0.03937 0.88885 0.80745 -0.10900
Ni	Ni	0.23338 0.56500 0.40600 1.14100
O 	O 	0.23418 0.67826 0.40898 -0.35600
C 	C 	0.25604 0.52138 0.02098 0.33600
C 	C 	0.23321 0.93166 0.16826 0.30200
H 	H 	0.24988 0.05667 0.18008 0.13000
C 	C 	0.21970 0.73573 0.14952 0.30000
C 	C 	0.23578 0.69318 0.12891 -0.04400
C 	C 	0.22564 0.71082 0.10244 -0.14800
F 	F 	0.23127 0.72007 0.17502 -0.38900
C 	C 	0.22922 0.08001 0.59557 -0.00600
H 	H 	0.22959 0.15091 0.54769 0.13200
H 	H 	0.23777 0.20198 0.64888 0.11500
C 	C 	0.25278 0.28675 0.77484 0.37300
C 	C 	0.24627 0.67049 0.08038 0.36400
O 	O 	0.26439 0.55006 0.99605 -0.35400
H 	H 	0.25740 0.64806 0.13347 0.13000
F 	F 	0.26100 0.27179 0.42201 -0.41600
C 	C 	0.25457 0.15329 0.61183 0.31000
N 	N 	0.26437 0.96036 0.95724 -0.07600
C 	C 	0.26460 0.24352 0.75339 -0.12500
Ni	Ni	0.28775 0.56124 0.46652 1.12000
Ni	Ni	0.27016 0.75844 0.02992 1.13900
C 	C 	0.28016 0.92035 0.35426 0.27300
C 	C 	0.26491 0.78956 0.37626 -0.13400
C 	C 	0.27509 0.13135 0.54936 -0.13800
C 	C 	0.28979 0.74746 0.39666 0.36100
C 	C 	0.27689 0.08510 0.57183 0.02900
H 	H 	0.30622 0.36727 0.80881 0.13200
C 	C 	0.02930 0.76503 0.90195 -0.19200
O 	O 	0.30647 0.60323 0.37311 -0.31000
O 	O 	0.31682 0.59907 0.43113 -0.71700
H 	H 	0.33975 0.56203 0.42584 0.17000
Ni	Ni	0.33235 0.67957 0.98474 1.12400
O 	O 	0.30725 0.65643 0.08197 -0.35200
O 	O 	0.31915 0.54817 0.03619 -0.36500
O 	O 	0.31023 0.84437 0.99905 -0.34700
O 	O 	0.34184 0.71552 0.02133 -0.70200
F 	F 	0.31015 0.96512 0.15938 -0.40400
C 	C 	0.30705 0.88058 0.37267 -0.03600
F 	F 	0.32132 0.00839 0.35091 -0.38300
N 	N 	0.31747 0.75908 0.54287 -0.07900
C 	C 	0.33624 0.15919 0.53018 0.38500
F 	F 	0.33786 0.21047 0.50971 -0.41900
F 	F 	0.31927 0.23067 0.60471 -0.41200
C 	C 	0.32897 0.98700 0.96513 0.09200
C 	C 	0.34267 0.25900 0.74748 -0.05700
C 	C 	0.31687 0.33813 0.79150 -0.14100
H 	H 	0.35344 0.22928 0.73034 0.11600
C 	C 	0.33425 0.05718 0.57325 0.29300
O 	O 	0.36605 0.76732 0.39812 -0.36000
O 	O 	0.36053 0.67644 0.48780 -0.34000
O 	O 	0.35135 0.84930 0.05594 -0.33100
F 	F 	0.33821 0.70891 0.33071 -0.41100
H 	H 	0.35980 0.92053 0.38436 0.09800
F 	F 	0.33501 0.00966 0.59443 -0.40000
H 	H 	0.36596 0.25764 0.83362 0.13100
O 	O 	0.37679 0.76462 0.45288 -0.37300
O 	O 	0.38662 0.54335 0.46855 -0.34000
C 	C 	0.37872 0.86757 0.98597 0.28100
C 	C 	0.37637 0.80190 0.53109 0.11200
F 	F 	0.01270 0.64947 0.93077 -0.45700
C 	C 	0.39288 0.75540 0.47723 0.30500
C 	C 	0.38537 0.63144 0.37164 0.34600
Ni	Ni	0.38273 0.67459 0.04930 1.12100
H 	H 	0.37988 0.84379 0.12158 0.11000
C 	C 	0.39246 0.34451 0.78742 0.02200
C 	C 	0.01857 0.83980 0.86132 -0.01200
O 	O 	0.39209 0.80807 0.97406 -0.34400
H 	H 	0.39212 0.77093 0.01900 0.15400
C 	C 	0.39521 0.08485 0.55400 -0.04900
C 	C 	0.39990 0.14152 0.53355 -0.14000
N 	N 	0.40366 0.21608 0.96968 -0.08400
C 	C 	0.40616 0.30864 0.76453 0.30900
Ni	Ni	0.40799 0.70940 0.42385 1.12800
C 	C 	0.40575 0.70261 0.32726 0.38000
N 	N 	0.41163 0.43786 0.40375 -0.06500
C 	C 	0.41000 0.02042 0.97500 0.05200
C 	C 	0.41242 0.84873 0.06881 0.32000
C 	C 	0.01385 0.80196 0.81488 0.36000
N 	N 	0.43202 0.49618 0.05776 -0.08400
C 	C 	0.42527 0.31473 0.83240 -0.14200
O 	O 	0.43114 0.65482 0.39289 -0.37900
C 	C 	0.42543 0.65537 0.34553 -0.12500
C 	C 	0.43061 0.17027 0.97240 0.10900
O 	O 	0.43563 0.67444 0.98346 -0.36100
C 	C 	0.43744 0.96219 0.98247 -0.06400
C 	C 	0.43965 0.89238 0.11540 -0.06500
N 	N 	0.44549 0.26819 0.45006 -0.06400
H 	H 	0.44335 0.06977 0.55655 0.09300
O 	O 	0.44654 0.80334 0.06055 -0.34500
H 	H 	0.44578 0.78956 0.29354 0.14100
C 	C 	0.45014 0.85558 0.51634 0.01400
C 	C 	0.45097 0.46083 0.42250 0.11700
C 	C 	0.44862 0.36836 0.80978 0.02300
C 	C 	0.45646 0.59669 0.45692 0.28300
C 	C 	0.45832 0.50921 0.03645 0.10500
C 	C 	0.45636 0.91586 0.08857 -0.10200
C 	C 	0.46061 0.83106 0.49061 -0.06300
F 	F 	0.45463 0.27926 0.87477 -0.44200
C 	C 	0.46469 0.64922 0.00298 0.30000
C 	C 	0.45906 0.74925 0.30660 -0.14300
C 	C 	0.46244 0.11120 0.97583 0.00400
C 	C 	0.00345 0.77766 0.84164 -0.14200
O 	O 	0.47499 0.67731 0.44911 -0.35200
O 	O 	0.47745 0.68788 0.02594 -0.34300
C 	C 	0.47833 0.33327 0.85328 0.39300
F 	F 	0.47941 0.31606 0.75991 -0.38400
C 	C 	0.47891 0.20155 0.52192 0.35700
C 	C 	0.48112 0.34259 0.45378 0.14100
N 	N 	0.48056 0.32239 0.02352 -0.07900
O 	O 	0.99959 0.09919 0.22980 -0.69800
F 	F 	0.99737 0.83000 0.19496 -0.43100
C 	C 	0.84285 0.58979 0.92817 0.34000
C 	C 	0.60280 0.22679 0.96578 0.30400
C 	C 	0.86929 0.40583 0.93604 0.30800
C 	C 	0.59465 0.43819 0.96556 0.28600
C 	C 	0.65459 0.24885 0.88185 0.35500
C 	C 	0.61171 0.42472 0.87409 0.35000
Ni	Ni	0.73812 0.41523 0.96057 1.12000
Ni	Ni	0.58645 0.32036 0.92098 1.13600
Ni	Ni	0.76341 0.42888 0.89627 1.12900
O 	O 	0.83493 0.54143 0.94994 -0.34100
O 	O 	0.80667 0.55489 0.90554 -0.36800
O 	O 	0.59349 0.26111 0.88761 -0.32700
O 	O 	0.65121 0.29764 0.97904 -0.33300
O 	O 	0.60141 0.22927 0.94012 -0.37100
O 	O 	0.68428 0.43292 0.86931 -0.34300
O 	O 	0.80224 0.35624 0.94845 -0.35900
O 	O 	0.86677 0.44175 0.91333 -0.33400
O 	O 	0.58079 0.40989 0.89820 -0.35600
O 	O 	0.66842 0.46639 0.97407 -0.35200
O 	O 	0.55272 0.35981 0.95467 -0.35100
O 	O 	0.72701 0.30268 0.89040 -0.37300
O 	O 	0.69506 0.40600 0.92661 -0.71400
H 	H 	0.68933 0.45862 0.92659 0.16600
C 	C 	0.80892 0.43324 0.55929 0.35300
C 	C 	0.63847 0.23211 0.58719 0.35600
C 	C 	0.61550 0.41463 0.49089 0.29400
C 	C 	0.61676 0.08739 0.51462 0.31200
C 	C 	0.79916 0.30411 0.48445 0.28500
Ni	Ni	0.62729 0.34580 0.54457 1.12300
Ni	Ni	0.62672 0.24537 0.48991 1.12700
Ni	Ni	0.73593 0.25195 0.53878 1.12800
O 	O 	0.73581 0.42274 0.56449 -0.32800
O 	O 	0.82058 0.37807 0.54442 -0.36700
O 	O 	0.63342 0.13495 0.49281 -0.36400
O 	O 	0.51377 0.28371 0.52843 -0.35700
O 	O 	0.51085 0.17422 0.50369 -0.36200
O 	O 	0.78698 0.24854 0.50404 -0.35900
O 	O 	0.58857 0.25103 0.57469 -0.35700
O 	O 	0.71015 0.25665 0.57741 -0.36000
O 	O 	0.73688 0.30239 0.47229 -0.34500
O 	O 	0.65029 0.43676 0.51448 -0.34100
O 	O 	0.60984 0.34646 0.47753 -0.34500
O 	O 	0.65012 0.12464 0.53721 -0.36200
O 	O 	0.67402 0.29760 0.52280 -0.72500
H 	H 	0.71736 0.35282 0.51535 0.16100
C 	C 	0.98503 0.80871 0.70895 0.38300
C 	C 	0.87432 0.99107 0.69407 0.29400
C 	C 	0.90955 0.06111 0.75563 0.37400
Ni	Ni	0.92608 0.91290 0.73767 1.13100
O 	O 	0.85156 0.93248 0.71340 -0.31900
O 	O 	0.93091 0.83430 0.70929 -0.33500
O 	O 	0.95867 0.11794 0.73721 -0.32200
O 	O 	0.91564 0.99255 0.76349 -0.38400
O 	O 	0.97214 0.86448 0.76557 -0.31200
O 	O 	0.94989 0.03458 0.68641 -0.34800
C 	C 	0.81699 0.98818 0.24835 0.32300
C 	C 	0.86016 0.02705 0.18237 0.38100
Ni	Ni	0.94630 0.16228 0.22164 1.13900
Ni	Ni	0.95097 0.97864 0.22182 1.13700
O 	O 	0.83500 0.06537 0.23750 -0.27600
O 	O 	0.87024 0.96081 0.25051 -0.34300
O 	O 	0.91728 0.10733 0.18480 -0.32600
O 	O 	0.86294 0.96359 0.19555 -0.36700
O 	O 	0.98439 0.22802 0.25722 -0.28600
H 	H 	0.98879 0.09293 0.24898 0.18700
C 	C 	0.59561 0.01487 0.09949 -0.07300
C 	C 	0.58181 0.97755 0.12493 -0.01700
C 	C 	0.50262 0.92137 0.13350 0.32500
C 	C 	0.53234 0.98553 0.08149 0.32700
C 	C 	0.65003 0.98700 0.14084 0.00100
F 	F 	0.48757 0.88956 0.15869 -0.39300
F 	F 	0.54748 0.01603 0.05616 -0.41200
H 	H 	0.65608 0.06185 0.09310 0.11700
C 	C 	0.67865 0.92746 0.13797 0.30900
C 	C 	0.74599 0.93900 0.15214 -0.07700
C 	C 	0.78535 0.01027 0.16911 -0.11200
C 	C 	0.75491 0.06820 0.17255 0.36800
C 	C 	0.68779 0.05659 0.15837 -0.10700
F 	F 	0.64192 0.85927 0.12118 -0.41000
H 	H 	0.76854 0.89375 0.14946 0.11900
F 	F 	0.79031 0.13560 0.18968 -0.44100
H 	H 	0.66546 0.10211 0.16089 0.13600
C 	C 	0.53189 0.74869 0.30392 0.02600
C 	C 	0.54756 0.69435 0.32045 0.30400
C 	C 	0.49418 0.64744 0.34106 -0.05200
C 	C 	0.59596 0.81347 0.28656 0.01100
F 	F 	0.61707 0.69163 0.31763 -0.39400
H 	H 	0.50886 0.60936 0.35459 0.11300
C 	C 	0.62154 0.78638 0.26421 0.32200
C 	C 	0.69136 0.84559 0.25056 -0.06000
C 	C 	0.73589 0.93223 0.25909 -0.10700
C 	C 	0.70705 0.96088 0.28023 0.36100
C 	C 	0.63729 0.90159 0.29393 -0.12700
F 	F 	0.58052 0.70193 0.25639 -0.38900
H 	H 	0.71253 0.82345 0.23393 0.11200
F 	F 	0.74906 0.04483 0.28845 -0.37400
H 	H 	0.61731 0.92318 0.31099 0.12400
F 	F 	0.93498 0.10950 0.29787 -0.39700
H 	H 	0.96488 0.10656 0.34815 0.17100
F 	F 	0.97144 0.22784 0.38681 -0.39300
C 	C 	0.51048 0.93471 0.52724 0.00500
C 	C 	0.57859 0.99090 0.51187 -0.06300
C 	C 	0.59613 0.95744 0.48918 -0.01200
C 	C 	0.53487 0.88299 0.47700 0.02100
C 	C 	0.67673 0.00122 0.47796 0.14800
C 	C 	0.54576 0.86575 0.44968 0.07300
C 	C 	0.50868 0.95052 0.55514 0.10500
N 	N 	0.55532 0.85337 0.42781 -0.12700
N 	N 	0.50689 0.96154 0.57760 -0.07600
N 	N 	0.74101 0.03609 0.46895 -0.08100
C 	C 	0.98707 0.51143 0.45999 0.05100
C 	C 	0.90540 0.45148 0.46608 0.00000
C 	C 	0.88359 0.36638 0.47569 -0.04300
C 	C 	0.94540 0.34614 0.48098 0.02100
C 	C 	0.92694 0.25641 0.48482 0.11800
C 	C 	0.84545 0.47886 0.46346 0.12100
N 	N 	0.79786 0.50111 0.46135 -0.08900
N 	N 	0.91259 0.18489 0.48789 -0.07600
C 	C 	0.58741 0.47153 0.47761 -0.03800
C 	C 	0.62122 0.56133 0.48397 0.00900
C 	C 	0.58330 0.60878 0.47518 0.01100
C 	C 	0.51905 0.57038 0.45720 -0.04800
C 	C 	0.50045 0.49004 0.44594 0.01400
C 	C 	0.52546 0.43585 0.45843 0.01300
C 	C 	0.69693 0.60616 0.49784 0.11800
C 	C 	0.60925 0.69578 0.48500 0.11300
N 	N 	0.63001 0.76525 0.49287 -0.09300
N 	N 	0.75743 0.64209 0.50888 -0.06500
C 	C 	0.69663 0.02943 0.68517 -0.09100
C 	C 	0.71610 0.07400 0.66080 0.00600
C 	C 	0.78202 0.08199 0.64599 0.31400
C 	C 	0.83087 0.05032 0.65623 -0.07800
C 	C 	0.81436 0.00997 0.68135 -0.06800
C 	C 	0.74484 0.99662 0.69533 0.31700
C 	C 	0.67109 0.11746 0.65144 0.01700
F 	F 	0.79990 0.12246 0.62194 -0.41500
H 	H 	0.88261 0.05890 0.64485 0.12300
F 	F 	0.72467 0.95334 0.71889 -0.42200
H 	H 	0.64506 0.02160 0.69650 0.13500
C 	C 	0.59861 0.06987 0.63769 0.32200
C 	C 	0.57287 0.11376 0.62036 -0.05900
C 	C 	0.62331 0.20273 0.61501 -0.12300
C 	C 	0.68327 0.25177 0.63349 0.38200
C 	C 	0.70860 0.20899 0.65128 -0.13000
F 	F 	0.55677 0.98145 0.63958 -0.41500
H 	H 	0.51801 0.07757 0.60936 0.12700
F 	F 	0.72603 0.34007 0.63108 -0.42100
H 	H 	0.76174 0.24674 0.66306 0.13800
C 	C 	0.93314 0.63785 0.59626 -0.13500
C 	C 	0.95289 0.60342 0.61828 0.02400
C 	C 	0.94431 0.51960 0.61698 0.30800
C 	C 	0.90656 0.46674 0.59525 -0.04200
C 	C 	0.87594 0.49689 0.57504 -0.13000
C 	C 	0.89442 0.58460 0.57470 0.37800
C 	C 	0.96517 0.64656 0.64399 0.04200
F 	F 	0.96628 0.48683 0.63775 -0.39100
H 	H 	0.89421 0.39963 0.59536 0.11600
F 	F 	0.86870 0.61591 0.55457 -0.42600
H 	H 	0.94190 0.70357 0.59679 0.14200
C 	C 	0.98050 0.74677 0.68876 -0.12000
C 	C 	0.90659 0.67260 0.68328 0.39200
C 	C 	0.89914 0.62254 0.66104 -0.13800
F 	F 	0.84156 0.65032 0.69917 -0.40500
H 	H 	0.84123 0.56701 0.65644 0.14900
C 	C 	0.94480 0.44955 0.95179 -0.03500
C 	C 	0.94477 0.48539 0.97680 0.03600
C 	C 	0.87404 0.44558 0.99380 0.07100
N 	N 	0.81784 0.41399 0.00752 -0.10900
C 	C 	0.51880 0.99598 0.98986 0.00300
C 	C 	0.57282 0.08709 0.98833 0.03900
C 	C 	0.54567 0.14438 0.97956 -0.04900
C 	C 	0.54699 0.93747 0.99901 0.12200
C 	C 	0.65658 0.12162 0.99518 0.12800
N 	N 	0.72347 0.14927 0.00064 -0.07600
N 	N 	0.56964 0.89091 0.00632 -0.08300
C 	C 	0.55370 0.48630 0.97375 -0.04900
C 	C 	0.51241 0.46595 0.99831 0.01200
C 	C 	0.49181 0.52519 0.00985 0.00900
C 	C 	0.50886 0.60269 0.99618 -0.05400
C 	C 	0.55661 0.62642 0.97295 0.01500
C 	C 	0.57439 0.56608 0.96088 0.00600
C 	C 	0.49461 0.38600 0.01230 0.11800
C 	C 	0.59073 0.71449 0.96229 0.11800
C 	C 	0.61631 0.58714 0.93553 0.09700
N 	N 	0.64983 0.60423 0.91533 -0.09100
N 	N 	0.61796 0.78473 0.95380 -0.08000
C 	C 	0.81223 0.17522 0.79045 -0.13600
C 	C 	0.73965 0.10349 0.79914 0.01200
C 	C 	0.71954 0.01920 0.79101 0.32900
C 	C 	0.77436 0.00602 0.77611 -0.01500
C 	C 	0.84908 0.07717 0.76870 -0.12900
C 	C 	0.86692 0.16226 0.77532 0.38600
C 	C 	0.69184 0.11562 0.81990 0.02900
F 	F 	0.64838 0.94965 0.79860 -0.39900
H 	H 	0.75949 0.94023 0.77074 0.11400
F 	F 	0.93892 0.23181 0.76842 -0.40100
H 	H 	0.82797 0.24062 0.79658 0.13100
C 	C 	0.69612 0.09154 0.84616 0.30400
C 	C 	0.67268 0.12637 0.86692 -0.04800
C 	C 	0.64568 0.18591 0.86158 -0.13700
C 	C 	0.63065 0.19994 0.83531 0.38200
C 	C 	0.65416 0.16516 0.81449 -0.14600
F 	F 	0.72987 0.04098 0.85162 -0.38400
H 	H 	0.68209 0.11310 0.88718 0.11100
F 	F 	0.60096 0.25436 0.82990 -0.41900
H 	H 	0.64836 0.18177 0.79423 0.13900
C 	C 	0.52632 0.44135 0.80817 0.31400
C 	C 	0.58017 0.45980 0.82911 -0.04100
C 	C 	0.55622 0.40608 0.85182 -0.12100
F 	F 	0.54950 0.49420 0.78642 -0.38100
H 	H 	0.63996 0.51600 0.82777 0.11600
C 	C 	0.99548 0.81038 0.88916 0.06200
F 	F 	0.99757 0.74065 0.79613 -0.40000
H 	H 	0.98103 0.70981 0.84708 0.13000
C 	C 	0.92547 0.80577 0.90002 0.28800
C 	C 	0.88184 0.74324 0.91968 -0.04300
C 	C 	0.90539 0.68206 0.92712 -0.14700
C 	C 	0.98461 0.70159 0.92128 0.40800
F 	F 	0.89465 0.85397 0.88936 -0.38600
H 	H 	0.82359 0.73361 0.92590 0.10000
