data_crystal

_cell_length_a 29.02535
_cell_length_b 30.41425
_cell_length_c 49.15945
_cell_angle_alpha 60.76037
_cell_angle_beta  118.94803
_cell_angle_gamma 133.28614

_symmetry_space_group_name_	'P 1'
_symmetry_space_group_name_H-M	'P 1'

loop_
_symmetry_equiv_pos_as_xyz
  x,y,z

loop_
_atom_site_label
_atom_site_type_symbol
_atom_site_fract_x
_atom_site_fract_y
_atom_site_fract_z
_atom_site_charge
C 	C 	0.28818 0.62024 0.20229 0.13100
N 	N 	0.25122 0.56065 0.20001 -0.13900
C 	C 	0.28012 0.53941 0.20009 0.13300
N 	N 	0.34491 0.57737 0.20251 -0.14000
C 	C 	0.38058 0.63770 0.20218 0.13600
N 	N 	0.35241 0.65932 0.20222 -0.13800
C 	C 	0.25920 0.62012 0.68990 0.13300
N 	N 	0.22343 0.56295 0.68486 -0.13800
C 	C 	0.25392 0.54464 0.68371 0.13500
N 	N 	0.31921 0.58312 0.68749 -0.14100
C 	C 	0.35441 0.64081 0.69107 0.13600
N 	N 	0.32450 0.65952 0.69225 -0.13800
Co	Co	0.06387 0.01455 0.06753 1.17700
Co	Co	0.00945 0.05334 0.09079 1.18900
C 	C 	0.19373 0.03986 0.08222 0.28200
Co	Co	0.07983 0.91813 0.06796 1.17300
O 	O 	0.06132 0.08386 0.06131 -0.46700
C 	C 	0.06748 0.14680 0.12317 0.32600
C 	C 	0.08952 0.85277 0.13701 0.32400
O 	O 	0.09549 0.98839 0.02588 -0.37500
O 	O 	0.00677 0.12306 0.11826 -0.40700
O 	O 	0.08191 0.11970 0.11757 -0.39800
O 	O 	0.06912 0.84569 0.10829 -0.40600
O 	O 	0.07578 0.88040 0.14271 -0.38800
O 	O 	0.04256 0.94157 0.08166 -0.74900
O 	O 	0.17108 0.98101 0.09093 -0.36700
O 	O 	0.16392 0.05687 0.08413 -0.39400
Co	Co	0.04086 0.00828 0.56412 1.17900
Co	Co	0.99394 0.04880 0.59061 1.17000
C 	C 	0.17362 0.06054 0.56723 0.33000
Co	Co	0.08062 0.92482 0.57304 1.17600
O 	O 	0.03268 0.07487 0.55590 -0.46300
C 	C 	0.06979 0.13140 0.63623 0.31700
C 	C 	0.11669 0.89608 0.64329 0.31600
O 	O 	0.01305 0.91625 0.52959 -0.38800
O 	O 	0.03406 0.08747 0.65729 -0.40100
O 	O 	0.07373 0.11768 0.61590 -0.39000
O 	O 	0.14142 0.93531 0.61801 -0.38200
O 	O 	0.07485 0.89427 0.64876 -0.38100
O 	O 	0.03146 0.94050 0.58331 -0.74700
O 	O 	0.14340 0.01783 0.55270 -0.42900
O 	O 	0.14121 0.06023 0.57899 -0.40900
C 	C 	0.08297 0.05899 0.95497 0.01000
C 	C 	0.07827 0.05542 0.92625 -0.05100
C 	C 	0.02589 0.00138 0.91501 -0.01700
C 	C 	0.02692 0.99289 0.88879 0.02700
C 	C 	0.02761 0.98563 0.86689 -0.01800
C 	C 	0.02845 0.97672 0.84137 0.02700
C 	C 	0.02867 0.96908 0.81946 -0.03700
C 	C 	0.02763 0.96010 0.79275 0.08800
C 	C 	0.06982 0.01091 0.77242 -0.09700
C 	C 	0.05982 0.00544 0.74299 -0.01300
H 	H 	0.12587 0.09916 0.96456 0.03200
H 	H 	0.11692 0.09343 0.91364 0.04200
H 	H 	0.10810 0.05551 0.77856 0.05300
H 	H 	0.08964 0.04626 0.72644 0.04100
C 	C 	0.07814 0.01124 0.27745 -0.10100
C 	C 	0.07775 0.01392 0.24806 -0.00200
C 	C 	0.04680 0.02648 0.45719 0.01600
C 	C 	0.04718 0.02773 0.42838 -0.11000
H 	H 	0.11953 0.04900 0.28910 0.05300
H 	H 	0.11837 0.05427 0.23705 0.03600
H 	H 	0.08526 0.06695 0.46710 0.03200
H 	H 	0.08525 0.06952 0.41604 0.05600
C 	C 	0.17688 0.39170 0.66039 0.01800
C 	C 	0.21237 0.36658 0.67864 -0.04300
C 	C 	0.19972 0.32170 0.66949 -0.02700
C 	C 	0.15112 0.30120 0.64215 -0.00900
C 	C 	0.11652 0.32731 0.62346 -0.02700
C 	C 	0.12957 0.37267 0.63250 -0.04200
C 	C 	0.19544 0.44271 0.66814 0.00700
C 	C 	0.21759 0.48779 0.67519 -0.03600
C 	C 	0.12768 0.24510 0.63739 0.05300
C 	C 	0.10423 0.19493 0.63552 -0.11000
H 	H 	0.25005 0.38206 0.69985 0.04600
H 	H 	0.22620 0.30135 0.68428 0.04100
H 	H 	0.07827 0.31120 0.60250 0.04400
H 	H 	0.10292 0.39286 0.61784 0.04800
C 	C 	0.14250 0.75921 0.68384 -0.00700
C 	C 	0.20098 0.76902 0.70539 -0.02600
C 	C 	0.21946 0.73344 0.70976 -0.04100
C 	C 	0.17958 0.68792 0.69259 0.01900
C 	C 	0.11900 0.67511 0.67280 -0.04100
C 	C 	0.10043 0.71056 0.66851 -0.02700
C 	C 	0.13216 0.80610 0.67255 0.05600
C 	C 	0.12458 0.84668 0.66076 -0.10700
C 	C 	0.20457 0.66062 0.69199 0.00700
C 	C 	0.22790 0.64048 0.69110 -0.03400
H 	H 	0.23375 0.80634 0.71743 0.04600
H 	H 	0.26613 0.74330 0.72534 0.04900
H 	H 	0.08761 0.63969 0.65963 0.04800
H 	H 	0.05503 0.70248 0.65187 0.04600
C 	C 	0.17738 0.30034 0.15492 -0.00900
C 	C 	0.18196 0.35356 0.13222 -0.02600
C 	C 	0.19225 0.39699 0.14152 -0.04200
C 	C 	0.19849 0.38784 0.17363 0.01800
C 	C 	0.19593 0.33565 0.19654 -0.04300
C 	C 	0.18533 0.29201 0.18721 -0.02700
C 	C 	0.14864 0.24813 0.14407 0.05300
C 	C 	0.11684 0.20252 0.13454 -0.11000
C 	C 	0.21888 0.43725 0.18378 0.00600
C 	C 	0.24207 0.48193 0.19167 -0.03600
H 	H 	0.17508 0.36012 0.10715 0.04300
H 	H 	0.19591 0.43803 0.12376 0.04800
H 	H 	0.20248 0.32899 0.22157 0.04500
H 	H 	0.18101 0.25066 0.20491 0.03900
C 	C 	0.21529 0.69434 0.20560 0.01900
C 	C 	0.14894 0.66190 0.20258 -0.04200
C 	C 	0.12542 0.69336 0.19796 -0.02600
C 	C 	0.16798 0.75763 0.19593 -0.00600
C 	C 	0.23505 0.78874 0.20162 -0.02600
C 	C 	0.25862 0.75724 0.20637 -0.04100
C 	C 	0.23816 0.66505 0.20487 0.00600
C 	C 	0.25931 0.64293 0.20377 -0.03300
C 	C 	0.14187 0.79343 0.17972 0.05400
C 	C 	0.11869 0.82213 0.16256 -0.10100
H 	H 	0.11517 0.61306 0.20244 0.04800
H 	H 	0.07353 0.66869 0.19376 0.04400
H 	H 	0.26849 0.83825 0.20026 0.04600
H 	H 	0.31016 0.78250 0.20920 0.05000
C 	C 	0.46006 0.22744 0.53730 0.01700
C 	C 	0.44873 0.18362 0.56680 -0.04500
C 	C 	0.39922 0.16200 0.57842 -0.02800
C 	C 	0.36044 0.18370 0.56044 -0.01200
C 	C 	0.37523 0.23103 0.53216 -0.02600
C 	C 	0.42468 0.25262 0.52053 -0.04400
C 	C 	0.29673 0.14601 0.56562 0.05500
C 	C 	0.24104 0.10968 0.56776 -0.11700
H 	H 	0.47738 0.16545 0.58044 0.04300
H 	H 	0.38837 0.12557 0.60039 0.03800
H 	H 	0.34578 0.24833 0.51814 0.04100
H 	H 	0.43468 0.28810 0.49822 0.04600
C 	C 	0.35625 0.15463 0.04902 -0.00800
C 	C 	0.40913 0.15182 0.06880 -0.03000
C 	C 	0.45793 0.17606 0.05572 -0.04400
C 	C 	0.45428 0.20345 0.02280 0.01500
C 	C 	0.40180 0.20693 0.00304 -0.04300
C 	C 	0.35278 0.18241 0.01611 -0.03000
C 	C 	0.30068 0.11950 0.06135 0.04400
C 	C 	0.25267 0.08585 0.07134 -0.10600
H 	H 	0.41168 0.12960 0.09418 0.03900
H 	H 	0.49895 0.17417 0.07124 0.04300
H 	H 	0.39922 0.22905 0.97765 0.04400
H 	H 	0.31151 0.18388 0.00056 0.04000
C 	C 	0.70835 0.32073 0.99290 0.13100
N 	N 	0.74655 0.38093 0.99431 -0.14000
C 	C 	0.71949 0.40450 0.99352 0.13400
N 	N 	0.65485 0.36804 0.99125 -0.14100
C 	C 	0.61774 0.30698 0.99240 0.13400
N 	N 	0.64435 0.28329 0.99293 -0.14100
C 	C 	0.69618 0.31491 0.50175 0.13100
N 	N 	0.73789 0.37688 0.50054 -0.14000
C 	C 	0.71662 0.40540 0.50024 0.13400
N 	N 	0.65398 0.37216 0.50069 -0.14100
C 	C 	0.61414 0.30972 0.50486 0.13400
N 	N 	0.63499 0.28081 0.50520 -0.14100
Co	Co	0.95817 0.93274 0.13869 1.19200
Co	Co	0.00095 0.88911 0.11063 1.19200
Co	Co	0.94172 0.02973 0.13748 1.15900
C 	C 	0.94149 0.80984 0.06521 0.31200
O 	O 	0.87685 0.02563 0.09341 -0.40200
O 	O 	0.96818 0.00121 0.11996 -0.78500
C 	C 	0.89785 0.06591 0.06702 0.31100
O 	O 	0.95829 0.86236 0.14380 -0.46500
C 	C 	0.83679 0.89337 0.14597 0.32900
O 	O 	0.98800 0.96439 0.09409 -0.57300
C 	C 	0.05313 0.00102 0.00751 0.27500
O 	O 	0.94295 0.07528 0.05950 -0.38500
O 	O 	0.03133 0.01264 0.01949 -0.38300
O 	O 	0.87603 0.93962 0.15953 -0.40400
O 	O 	0.85957 0.88167 0.13475 -0.38400
C 	C 	0.01129 0.98208 0.19656 0.31400
O 	O 	0.01247 0.03214 0.17898 -0.40800
O 	O 	0.01240 0.95240 0.18419 -0.37700
O 	O 	0.98345 0.85861 0.04737 -0.39500
O 	O 	0.93495 0.81445 0.08868 -0.37900
Co	Co	0.93842 0.92687 0.63739 1.18800
Co	Co	0.99369 0.89025 0.61403 1.18200
Co	Co	0.93498 0.02685 0.64188 1.15200
C 	C 	0.95969 0.79864 0.58767 0.31400
O 	O 	0.93818 0.09757 0.60152 -0.41800
O 	O 	0.95421 0.99754 0.62057 -0.74600
C 	C 	0.91189 0.09019 0.57230 0.32200
O 	O 	0.94052 0.85756 0.64342 -0.46400
C 	C 	0.81373 0.90169 0.63518 0.31200
O 	O 	0.96850 0.95829 0.59291 -0.57300
C 	C 	0.01119 0.96366 0.50862 0.33100
O 	O 	0.92605 0.06838 0.56230 -0.39700
O 	O 	0.01419 0.00128 0.51724 -0.39800
O 	O 	0.83934 0.96161 0.62412 -0.38000
O 	O 	0.84125 0.87831 0.63722 -0.37600
C 	C 	0.97742 0.95218 0.69896 0.28800
O 	O 	0.93180 0.96073 0.68500 -0.39400
O 	O 	0.99641 0.94636 0.68213 -0.38700
O 	O 	0.02262 0.83004 0.59300 -0.40000
O 	O 	0.93517 0.81405 0.59514 -0.38700
C 	C 	0.03554 0.00834 0.97277 -0.09300
C 	C 	0.97544 0.95322 0.93115 -0.03300
C 	C 	0.98006 0.95685 0.95983 0.02200
C 	C 	0.00675 0.94952 0.73342 -0.03900
C 	C 	0.96953 0.89683 0.75549 0.00700
C 	C 	0.97958 0.90223 0.78494 -0.08200
H 	H 	0.93414 0.91172 0.92234 0.04400
H 	H 	0.94295 0.91755 0.97322 0.03800
H 	H 	0.92903 0.85310 0.74866 0.03500
H 	H 	0.94765 0.86226 0.80082 0.05500
C 	C 	0.02261 0.96749 0.23157 -0.05300
C 	C 	0.97080 0.91517 0.24642 0.00800
C 	C 	0.97112 0.91258 0.27579 -0.08300
C 	C 	0.02364 0.96191 0.29070 0.08600
C 	C 	0.01900 0.96483 0.31776 -0.02900
C 	C 	0.01508 0.96722 0.34037 0.01100
C 	C 	0.01009 0.97027 0.36668 0.01400
C 	C 	0.00568 0.97254 0.38916 -0.03300
C 	C 	0.00029 0.97422 0.41640 0.09500
C 	C 	0.95070 0.92081 0.43231 -0.09500
C 	C 	0.95041 0.91946 0.46113 0.03400
C 	C 	0.99991 0.97151 0.47437 -0.08800
H 	H 	0.92810 0.87884 0.23407 0.03400
H 	H 	0.92924 0.87367 0.28613 0.05500
H 	H 	0.91371 0.87955 0.42302 0.05800
H 	H 	0.91366 0.87687 0.47400 0.03200
C 	C 	0.64364 0.80096 0.65887 -0.00600
C 	C 	0.59848 0.81389 0.63685 -0.02600
C 	C 	0.54459 0.78979 0.64572 -0.04100
C 	C 	0.53539 0.75243 0.67664 0.01800
C 	C 	0.58120 0.74040 0.69888 -0.04100
C 	C 	0.63532 0.76475 0.69003 -0.02700
C 	C 	0.70236 0.83130 0.65067 0.05200
C 	C 	0.75258 0.86068 0.64356 -0.10100
C 	C 	0.47376 0.71743 0.68341 0.00900
C 	C 	0.42015 0.68472 0.68774 -0.03600
H 	H 	0.60528 0.84287 0.61289 0.04600
H 	H 	0.50903 0.79873 0.62827 0.04900
H 	H 	0.57406 0.71095 0.72273 0.04600
H 	H 	0.67074 0.75559 0.70740 0.04200
C 	C 	0.65701 0.78379 0.16100 -0.00800
C 	C 	0.64837 0.74646 0.19200 -0.02600
C 	C 	0.59661 0.72476 0.20176 -0.04200
C 	C 	0.55295 0.74001 0.18054 0.01800
C 	C 	0.56089 0.77649 0.14936 -0.04100
C 	C 	0.61284 0.79840 0.13962 -0.02500
C 	C 	0.71761 0.81722 0.15362 0.05600
C 	C 	0.77088 0.84930 0.14902 -0.10800
C 	C 	0.49448 0.70978 0.18896 0.00800
C 	C 	0.44357 0.67994 0.19553 -0.03600
H 	H 	0.68282 0.73570 0.20884 0.04100
H 	H 	0.59001 0.69547 0.22569 0.04700
H 	H 	0.52653 0.78738 0.13257 0.04900
H 	H 	0.61969 0.82801 0.11576 0.04600
C 	C 	0.81451 0.16871 0.51761 -0.01100
C 	C 	0.74951 0.13349 0.51841 -0.02900
C 	C 	0.72269 0.16336 0.51154 -0.04500
C 	C 	0.76067 0.22859 0.50372 0.01700
C 	C 	0.82399 0.26377 0.50054 -0.04500
C 	C 	0.85080 0.23390 0.50740 -0.02800
C 	C 	0.84761 0.13954 0.53387 0.04900
C 	C 	0.87642 0.11615 0.54991 -0.11400
C 	C 	0.73731 0.25914 0.50231 0.00300
C 	C 	0.71835 0.28461 0.50184 -0.03800
H 	H 	0.72095 0.08310 0.52615 0.03600
H 	H 	0.67341 0.13578 0.51367 0.04200
H 	H 	0.85343 0.31423 0.49411 0.04500
H 	H 	0.90099 0.26156 0.50659 0.03900
C 	C 	0.82666 0.56492 0.52687 0.01700
C 	C 	0.85837 0.56429 0.55931 -0.04300
C 	C 	0.87657 0.60741 0.57233 -0.02800
C 	C 	0.86346 0.65168 0.55297 -0.00900
C 	C 	0.83317 0.65336 0.52036 -0.02700
C 	C 	0.81471 0.61002 0.50735 -0.04300
C 	C 	0.79434 0.51205 0.51567 0.00600
C 	C 	0.76221 0.46482 0.50765 -0.03800
C 	C 	0.89044 0.70115 0.56537 0.05100
C 	C 	0.91831 0.74447 0.57578 -0.10900
H 	H 	0.86709 0.52913 0.57468 0.04400
H 	H 	0.90141 0.60677 0.59740 0.03900
H 	H 	0.82431 0.68842 0.50504 0.04100
H 	H 	0.78946 0.61038 0.48234 0.04600
C 	C 	0.51169 0.25071 0.52551 0.00400
C 	C 	0.55690 0.27438 0.51572 -0.03900
C 	C 	0.78463 0.24092 0.00017 0.01700
C 	C 	0.85180 0.26945 0.01077 -0.04400
C 	C 	0.87568 0.23614 0.01907 -0.02900
C 	C 	0.83247 0.17408 0.01690 -0.01000
C 	C 	0.76565 0.14685 0.00450 -0.02900
C 	C 	0.74178 0.18020 0.99614 -0.04500
C 	C 	0.75918 0.27110 0.99683 0.00300
C 	C 	0.73679 0.29476 0.99475 -0.03800
C 	C 	0.85517 0.13569 0.03236 0.04700
C 	C 	0.87440 0.10357 0.04708 -0.11000
H 	H 	0.88530 0.31653 0.01374 0.04500
H 	H 	0.92743 0.25762 0.02857 0.04000
H 	H 	0.73190 0.09897 0.00267 0.03700
H 	H 	0.68981 0.15796 0.98773 0.04300
C 	C 	0.84929 0.65015 0.04313 -0.00800
C 	C 	0.80996 0.64299 0.01221 -0.02700
C 	C 	0.79248 0.59842 0.00061 -0.04200
C 	C 	0.81407 0.56057 0.01987 0.01700
C 	C 	0.85313 0.56745 0.05086 -0.04300
C 	C 	0.87083 0.61224 0.06243 -0.02800
C 	C 	0.87658 0.70303 0.05271 0.05000
C 	C 	0.90337 0.75015 0.05937 -0.10600
C 	C 	0.78723 0.50829 0.00990 0.00600
C 	C 	0.75975 0.46227 0.00194 -0.03700
H 	H 	0.79393 0.67275 0.99694 0.04200
H 	H 	0.76127 0.59262 0.97684 0.04600
H 	H 	0.86906 0.53762 0.06613 0.04500
H 	H 	0.90215 0.61815 0.08617 0.04000
C 	C 	0.50880 0.23579 0.01035 0.00500
C 	C 	0.55707 0.26604 0.00123 -0.03900
