data_crystal

_cell_length_a 17.95844
_cell_length_b 15.27543
_cell_length_c 43.58462
_cell_angle_alpha 90.48616
_cell_angle_beta  91.07673
_cell_angle_gamma 111.01903

_symmetry_space_group_name_	'P 1'
_symmetry_space_group_name_H-M	'P 1'

loop_
_symmetry_equiv_pos_as_xyz
  x,y,z

loop_
_atom_site_label
_atom_site_type_symbol
_atom_site_fract_x
_atom_site_fract_y
_atom_site_fract_z
_atom_site_charge
Ni	Ni	0.73215 0.33861 0.89424 1.09700
O 	O 	0.64336 0.27538 0.86226 -0.70500
Ni	Ni	0.55079 0.29795 0.88164 1.09600
O 	O 	0.81487 0.29452 0.87422 -0.35500
O 	O 	0.73386 0.14471 0.86328 -0.39800
O 	O 	0.77910 0.45572 0.86742 -0.36500
Ni	Ni	0.61628 0.13834 0.86132 1.06600
O 	O 	0.79108 0.53938 0.92284 -0.40500
O 	O 	0.61313 0.13006 0.90819 -0.40600
O 	O 	0.46600 0.22655 0.84948 -0.38200
O 	O 	0.64026 0.36217 0.91347 -0.70300
O 	O 	0.81426 0.40209 0.92772 -0.37700
O 	O 	0.46914 0.34197 0.90299 -0.35800
O 	O 	0.55188 0.49197 0.91346 -0.40700
Ni	Ni	0.66960 0.49882 0.91641 1.06400
H 	H 	0.65436 0.30291 0.84160 0.15600
H 	H 	0.62984 0.33443 0.93410 0.15300
C 	C 	0.55781 0.14794 0.92358 0.26000
O 	O 	0.67802 0.51277 0.87011 -0.42600
C 	C 	0.79492 0.21983 0.85641 0.26000
C 	C 	0.45505 0.13866 0.84225 0.31500
C 	C 	0.73883 0.50497 0.85562 0.31100
C 	C 	0.49188 0.41650 0.92108 0.26700
C 	C 	0.82769 0.48882 0.93673 0.27800
O 	O 	0.51029 0.18352 0.90943 -0.36700
O 	O 	0.49462 0.09408 0.85739 -0.40800
Ni	Ni	0.52014 0.43243 0.55026 1.10200
O 	O 	0.61640 0.44013 0.52441 -0.70000
Ni	Ni	0.67964 0.39217 0.55380 1.09900
O 	O 	0.48827 0.52683 0.52493 -0.36600
O 	O 	0.61599 0.62946 0.52696 -0.41700
O 	O 	0.44522 0.32744 0.52175 -0.36500
Ni	Ni	0.68680 0.56087 0.50959 1.07300
O 	O 	0.40015 0.25427 0.57828 -0.40500
O 	O 	0.77394 0.61179 0.54352 -0.39200
O 	O 	0.78815 0.42844 0.53211 -0.36600
O 	O 	0.57511 0.36618 0.57652 -0.70000
O 	O 	0.42567 0.41268 0.57770 -0.37500
O 	O 	0.71661 0.31595 0.58531 -0.35600
O 	O 	0.60264 0.18780 0.57720 -0.39800
Ni	Ni	0.50712 0.23440 0.57748 1.06900
H 	H 	0.59939 0.39602 0.50669 0.15800
H 	H 	0.58426 0.39353 0.59755 0.15800
C 	C 	0.76420 0.59323 0.57292 0.27800
O 	O 	0.50239 0.21852 0.53117 -0.41000
C 	C 	0.54245 0.60594 0.51637 0.27300
C 	C 	0.80304 0.46715 0.50461 0.28500
C 	C 	0.45801 0.25072 0.51389 0.30500
C 	C 	0.66952 0.23073 0.59280 0.24900
C 	C 	0.39039 0.32974 0.58997 0.31100
O 	O 	0.72286 0.50813 0.58213 -0.38800
O 	O 	0.74978 0.49160 0.48932 -0.41600
Ni	Ni	0.98292 0.06853 0.69221 1.11100
O 	O 	0.07052 0.04243 0.71633 -0.70800
Ni	Ni	0.00853 0.96459 0.75033 1.07900
O 	O 	0.06383 0.14932 0.66166 -0.36300
O 	O 	0.13653 0.24465 0.70027 -0.40800
O 	O 	0.96546 0.95548 0.66228 -0.37400
Ni	Ni	0.14470 0.15842 0.73568 1.06500
O 	O 	0.80530 0.95469 0.67367 -0.44000
O 	O 	0.05886 0.19449 0.75698 -0.41200
O 	O 	0.10345 0.94080 0.77040 -0.40300
O 	O 	0.92115 0.00282 0.72907 -0.67600
O 	O 	0.89703 0.10225 0.67024 -0.38200
O 	O 	0.93416 0.86414 0.77816 -0.36200
O 	O 	0.81101 0.82733 0.75536 -0.40500
Ni	Ni	0.82516 0.90060 0.71451 1.06300
H 	H 	0.09822 0.00883 0.70417 0.16200
H 	H 	0.90482 0.04726 0.74134 0.17000
C 	C 	0.01826 0.14485 0.77954 0.30600
O 	O 	0.89506 0.83894 0.69475 -0.43900
C 	C 	0.12933 0.21639 0.67151 0.26200
C 	C 	0.17018 0.01369 0.77573 0.29200
C 	C 	0.92324 0.86596 0.66745 0.31900
C 	C 	0.86487 0.80071 0.76942 0.26500
C 	C 	0.82265 0.04508 0.66926 0.36000
O 	O 	0.01920 0.06099 0.78476 -0.36900
O 	O 	0.16953 0.09978 0.77450 -0.40300
Ni	Ni	0.15955 0.74510 0.38331 1.09800
O 	O 	0.24393 0.83147 0.35538 -0.70600
Ni	Ni	0.34388 0.83479 0.37674 1.10100
O 	O 	0.07051 0.75676 0.35557 -0.36600
O 	O 	0.12249 0.91685 0.36040 -0.41400
O 	O 	0.16711 0.64092 0.35546 -0.40200
Ni	Ni	0.24514 0.95869 0.35347 1.05500
O 	O 	0.16019 0.63491 0.44907 -0.40600
O 	O 	0.26055 0.98137 0.39976 -0.41600
O 	O 	0.41965 0.90924 0.34453 -0.36500
O 	O 	0.25927 0.76531 0.40788 -0.70000
O 	O 	0.07617 0.64841 0.40976 -0.38600
O 	O 	0.43537 0.80534 0.39806 -0.35700
O 	O 	0.35670 0.65187 0.40056 -0.41600
Ni	Ni	0.25291 0.64183 0.42233 1.07700
H 	H 	0.24069 0.80478 0.33440 0.15200
H 	H 	0.25984 0.80603 0.42571 0.16700
C 	C 	0.32984 0.99636 0.41327 0.25000
O 	O 	0.17947 0.54121 0.39238 -0.39200
C 	C 	0.06929 0.83969 0.34822 0.23400
C 	C 	0.41349 0.98689 0.33348 0.20000
C 	C 	0.15444 0.55590 0.36495 0.28800
C 	C 	0.42272 0.72099 0.40857 0.28800
C 	C 	0.08844 0.62641 0.43836 0.30500
O 	O 	0.37838 0.95685 0.40263 -0.36200
O 	O 	0.36541 0.02529 0.34622 -0.36400
Ni	Ni	0.31173 0.78932 0.06473 1.09900
O 	O 	0.22785 0.67481 0.08392 -0.70000
Ni	Ni	0.22692 0.57204 0.05489 1.10100
O 	O 	0.29567 0.87679 0.09815 -0.36500
O 	O 	0.16310 0.82437 0.08540 -0.40300
O 	O 	0.39311 0.75919 0.09238 -0.39000
Ni	Ni	0.12105 0.67904 0.08420 1.07000
O 	O 	0.41233 0.82371 0.00082 -0.42800
O 	O 	0.11549 0.68974 0.03782 -0.41200
O 	O 	0.15271 0.46390 0.07919 -0.36200
O 	O 	0.29662 0.68953 0.03253 -0.69900
O 	O 	0.40218 0.89992 0.04597 -0.37900
O 	O 	0.25845 0.47968 0.02801 -0.36400
O 	O 	0.38824 0.56907 0.03663 -0.41900
Ni	Ni	0.40258 0.69951 0.01933 1.07100
H 	H 	0.24429 0.66280 0.10480 0.15300
H 	H 	0.26666 0.70209 0.01487 0.16000
C 	C 	0.09616 0.61468 0.02048 0.30800
O 	O 	0.48038 0.76968 0.05393 -0.39500
C 	C 	0.22267 0.87292 0.10371 0.25800
C 	C 	0.09117 0.47437 0.09287 0.24400
C 	C 	0.46397 0.76424 0.08324 0.28300
C 	C 	0.33434 0.49532 0.02352 0.29200
C 	C 	0.42640 0.90141 0.01728 0.32700
O 	O 	0.13195 0.55381 0.02452 -0.36800
O 	O 	0.06110 0.53671 0.08277 -0.39300
Ni	Ni	0.87770 0.98297 0.19792 1.08600
O 	O 	0.79041 0.01889 0.21768 -0.69100
Ni	Ni	0.84970 0.09668 0.25349 1.10400
O 	O 	0.79900 0.90628 0.16395 -0.36100
O 	O 	0.71210 0.82061 0.19932 -0.41700
O 	O 	0.90321 0.09876 0.17004 -0.34800
Ni	Ni	0.70494 0.91058 0.23411 1.06100
O 	O 	0.05278 0.10171 0.18428 -0.41900
O 	O 	0.77914 0.86453 0.26023 -0.41000
O 	O 	0.75721 0.13374 0.26775 -0.36800
O 	O 	0.93454 0.04650 0.23719 -0.68600
O 	O 	0.96841 0.94992 0.17944 -0.40200
O 	O 	0.92061 0.19865 0.28391 -0.36000
O 	O 	0.04439 0.20436 0.27008 -0.44200
Ni	Ni	0.03274 0.14695 0.22622 1.06400
H 	H 	0.76881 0.05564 0.20388 0.16200
H 	H 	0.94678 0.00157 0.25070 0.16600
C 	C 	0.82076 0.91415 0.28359 0.28900
O 	O 	0.96350 0.21191 0.20694 -0.43500
C 	C 	0.72682 0.84964 0.17104 0.30800
C 	C 	0.68593 0.06777 0.27028 0.33800
C 	C 	0.93569 0.18838 0.17864 0.31800
C 	C 	0.99808 0.24495 0.28195 0.35800
C 	C 	0.04076 0.01340 0.17804 0.36300
O 	O 	0.82479 0.00076 0.28808 -0.34000
O 	O 	0.67835 0.97839 0.27041 -0.43100
C 	C 	0.04333 0.40098 0.11340 -0.00100
C 	C 	0.02093 0.42531 0.14194 -0.08600
C 	C 	0.98030 0.35541 0.16248 0.06200
C 	C 	0.96111 0.26034 0.15456 -0.15700
C 	C 	0.97764 0.23619 0.12465 0.23300
C 	C 	0.02004 0.30653 0.10458 -0.13100
H 	H 	0.96609 0.37522 0.18493 0.02200
H 	H 	0.03494 0.28746 0.08212 0.09000
H 	H 	0.03716 0.49842 0.14860 0.02800
O 	O 	0.95547 0.14406 0.11547 -0.27500
H 	H 	0.90193 0.12828 0.10561 0.16600
C 	C 	0.53023 0.78149 0.10615 -0.02200
C 	C 	0.52219 0.80857 0.13642 -0.05200
C 	C 	0.58663 0.83127 0.15732 0.03300
C 	C 	0.66009 0.82720 0.14835 -0.16000
C 	C 	0.66815 0.79861 0.11820 0.20300
C 	C 	0.60345 0.77595 0.09724 -0.10200
H 	H 	0.57969 0.85309 0.18048 -0.02000
H 	H 	0.61035 0.75416 0.07407 0.07200
H 	H 	0.46650 0.81360 0.14369 0.04900
O 	O 	0.73916 0.79341 0.10907 -0.28400
H 	H 	0.73534 0.72836 0.11350 0.15200
C 	C 	0.20706 0.92713 0.12893 -0.04900
C 	C 	0.17138 0.87914 0.15525 -0.06300
C 	C 	0.11893 0.90916 0.17190 0.04400
C 	C 	0.10383 0.98927 0.16297 -0.22100
C 	C 	0.14773 0.04427 0.13898 0.24000
C 	C 	0.20042 0.01381 0.12249 -0.07800
H 	H 	0.08778 0.86818 0.19102 -0.00000
H 	H 	0.22974 0.05285 0.10273 0.08200
H 	H 	0.17795 0.81333 0.16096 0.01900
O 	O 	0.13722 0.12578 0.13093 -0.29500
H 	H 	0.09496 0.10722 0.11462 0.17300
C 	C 	0.47888 0.04605 0.31484 0.01000
C 	C 	0.47524 0.03180 0.28300 -0.02600
C 	C 	0.54568 0.05617 0.26654 0.02600
C 	C 	0.61989 0.09227 0.28207 -0.14900
C 	C 	0.62280 0.12230 0.31283 0.21100
C 	C 	0.55207 0.09864 0.32921 -0.10400
H 	H 	0.54270 0.03669 0.24246 0.01500
H 	H 	0.55492 0.11340 0.35367 0.08700
H 	H 	0.41858 0.99426 0.27146 0.00200
O 	O 	0.69487 0.16385 0.32790 -0.27300
H 	H 	0.70841 0.23219 0.32523 0.15700
C 	C 	0.11253 0.47525 0.34425 -0.02700
C 	C 	0.12952 0.39263 0.34601 -0.04900
C 	C 	0.09124 0.31728 0.32594 0.04000
C 	C 	0.03550 0.32354 0.30380 -0.16600
C 	C 	0.01739 0.40568 0.30225 0.18100
C 	C 	0.05560 0.48105 0.32252 -0.09700
H 	H 	0.10501 0.25395 0.32756 0.02300
H 	H 	0.04090 0.54385 0.32132 0.07200
H 	H 	0.17311 0.38708 0.36265 0.05000
O 	O 	0.96190 0.41220 0.28121 -0.27600
H 	H 	0.99252 0.43900 0.26266 0.14200
C 	C 	0.99710 0.84508 0.33358 -0.01200
C 	C 	0.97401 0.80810 0.30392 -0.03300
C 	C 	0.91154 0.82419 0.28836 0.01500
C 	C 	0.87171 0.87753 0.30238 -0.14700
C 	C 	0.89050 0.90753 0.33319 0.20000
C 	C 	0.95321 0.89138 0.34861 -0.10800
H 	H 	0.89713 0.79975 0.26481 0.02400
H 	H 	0.96876 0.91658 0.37205 0.07800
H 	H 	0.00661 0.77032 0.29245 0.01800
O 	O 	0.84672 0.95101 0.34837 -0.30700
H 	H 	0.87723 0.01921 0.34666 0.19100
C 	C 	0.35927 0.06965 0.43719 -0.01000
C 	C 	0.43867 0.13210 0.43709 -0.03000
C 	C 	0.46905 0.19637 0.46124 0.01800
C 	C 	0.42059 0.19877 0.48581 -0.10000
C 	C 	0.33953 0.13937 0.48517 0.08500
C 	C 	0.30927 0.07532 0.46080 -0.05300
H 	H 	0.53126 0.24198 0.46145 0.02500
H 	H 	0.24763 0.02792 0.46077 0.06900
H 	H 	0.47729 0.12968 0.41855 0.06200
I 	I 	0.26225 0.14140 0.52116 -0.09900
C 	C 	0.88284 0.49215 0.49204 -0.04800
C 	C 	0.89183 0.45353 0.46369 -0.02300
C 	C 	0.95965 0.49696 0.44648 0.03200
C 	C 	0.01916 0.57966 0.45740 -0.11000
C 	C 	0.01229 0.61599 0.48664 0.06200
C 	C 	0.94481 0.57091 0.50404 -0.02300
H 	H 	0.96519 0.46741 0.42432 0.04600
H 	H 	0.93787 0.60125 0.52588 0.06200
H 	H 	0.84431 0.39256 0.45427 0.04800
I 	I 	0.09790 0.74423 0.50366 -0.14000
C 	C 	0.52712 0.64997 0.48847 -0.07300
C 	C 	0.53614 0.61400 0.45967 -0.02400
C 	C 	0.50767 0.64351 0.43315 0.00300
C 	C 	0.46990 0.70928 0.43517 -0.10400
C 	C 	0.46601 0.75042 0.46407 0.05900
C 	C 	0.49458 0.72023 0.49049 -0.03300
H 	H 	0.51154 0.61189 0.41117 0.03400
H 	H 	0.48876 0.74908 0.51274 0.04900
H 	H 	0.56205 0.56011 0.45796 0.00400
I 	I 	0.41428 0.85457 0.46923 -0.16500
C 	C 	0.69932 0.17647 0.61412 -0.01000
C 	C 	0.69991 0.08820 0.60523 -0.06400
C 	C 	0.73221 0.03880 0.62499 0.08700
C 	C 	0.76434 0.07743 0.65375 -0.17300
C 	C 	0.75703 0.16196 0.66368 0.21200
C 	C 	0.72521 0.21153 0.64376 -0.11500
H 	H 	0.73693 0.97351 0.61716 0.01400
H 	H 	0.72165 0.27775 0.65123 0.06700
H 	H 	0.67804 0.05945 0.58260 0.06700
O 	O 	0.78211 0.19674 0.69273 -0.31000
H 	H 	0.83800 0.24037 0.69066 0.16100
C 	C 	0.19550 0.25893 0.65053 -0.03200
C 	C 	0.18146 0.25437 0.61866 -0.04100
C 	C 	0.24557 0.28376 0.59878 0.03800
C 	C 	0.32411 0.31683 0.61056 -0.14500
C 	C 	0.33828 0.32628 0.64241 0.18700
C 	C 	0.27408 0.29827 0.66230 -0.10300
H 	H 	0.23424 0.27856 0.57422 0.04300
H 	H 	0.28562 0.30350 0.68687 0.04600
H 	H 	0.12107 0.22652 0.60928 0.06000
O 	O 	0.41490 0.36216 0.65415 -0.30600
H 	H 	0.43112 0.30712 0.65710 0.12400
C 	C 	0.81192 0.66450 0.59583 -0.02300
C 	C 	0.84088 0.63696 0.62283 -0.04500
C 	C 	0.88205 0.70382 0.64527 0.03000
C 	C 	0.89466 0.79915 0.64113 -0.14800
C 	C 	0.86881 0.82743 0.61335 0.19900
C 	C 	0.82754 0.76010 0.59094 -0.10200
H 	H 	0.90226 0.68112 0.66629 0.02900
H 	H 	0.80580 0.78219 0.57014 0.07100
H 	H 	0.83093 0.56365 0.62659 0.05600
O 	O 	0.87910 0.91980 0.60889 -0.28800
H 	H 	0.93044 0.94669 0.59820 0.15800
C 	C 	0.89895 0.53649 0.95606 -0.04900
C 	C 	0.97322 0.53447 0.94747 0.00300
C 	C 	0.03802 0.56323 0.96824 -0.00900
C 	C 	0.02933 0.59398 0.99793 -0.11200
C 	C 	0.95501 0.59933 0.00622 0.10300
C 	C 	0.89091 0.57195 0.98499 -0.04900
H 	H 	0.09464 0.55967 0.96147 0.03600
H 	H 	0.83355 0.57354 0.99165 0.04200
H 	H 	0.98011 0.50796 0.92497 0.05400
I 	I 	0.93398 0.63927 0.05122 -0.15400
C 	C 	0.53721 0.10916 0.95452 -0.02400
C 	C 	0.58173 0.06151 0.96889 -0.06600
C 	C 	0.55006 0.00330 0.99357 0.10400
C 	C 	0.47315 0.99086 0.00359 -0.18000
C 	C 	0.43471 0.05045 0.99263 0.12700
C 	C 	0.46725 0.11010 0.96828 -0.07000
H 	H 	0.58186 0.96085 0.00294 -0.00700
H 	H 	0.43564 0.15276 0.95894 0.07200
H 	H 	0.63853 0.06509 0.95987 0.06100
I 	I 	0.32379 0.04511 0.01033 -0.09400
C 	C 	0.43990 0.42256 0.94594 -0.05600
C 	C 	0.39067 0.47520 0.94233 -0.02200
C 	C 	0.34861 0.49021 0.96726 -0.01000
C 	C 	0.35692 0.45454 0.99620 -0.10600
C 	C 	0.40208 0.39625 0.99929 0.07500
C 	C 	0.44298 0.38001 0.97408 -0.04900
H 	H 	0.31364 0.53470 0.96459 0.01000
H 	H 	0.47937 0.33712 0.97668 0.04200
H 	H 	0.38684 0.50686 0.92049 0.03800
I 	I 	0.41116 0.33416 0.04190 -0.10100
C 	C 	0.85610 0.20866 0.83688 -0.01500
C 	C 	0.91812 0.18510 0.84988 -0.04600
C 	C 	0.97571 0.17234 0.83121 0.06100
C 	C 	0.97160 0.18267 0.79933 -0.14300
C 	C 	0.91244 0.21278 0.78652 0.19800
C 	C 	0.85437 0.22476 0.80533 -0.10900
H 	H 	0.02172 0.15056 0.84135 0.02400
H 	H 	0.80752 0.24536 0.79533 0.05800
H 	H 	0.92079 0.17488 0.87439 0.06300
O 	O 	0.90818 0.22446 0.75544 -0.31300
H 	H 	0.94046 0.29136 0.75201 0.15900
C 	C 	0.23781 0.00120 0.79187 -0.04200
C 	C 	0.23833 0.00088 0.82408 0.00600
C 	C 	0.31004 0.04298 0.84069 0.02100
C 	C 	0.38186 0.08252 0.82518 -0.13700
C 	C 	0.38286 0.06928 0.79328 0.18600
C 	C 	0.31080 0.02723 0.77675 -0.09600
H 	H 	0.30920 0.04896 0.86547 0.04700
H 	H 	0.31126 0.02451 0.75190 0.04900
H 	H 	0.18249 0.97787 0.83611 0.02100
O 	O 	0.45330 0.10312 0.77797 -0.31200
H 	H 	0.47351 0.05063 0.77746 0.13700
C 	C 	0.83531 0.71253 0.78716 -0.02000
C 	C 	0.75362 0.65645 0.78634 -0.04800
C 	C 	0.72289 0.58573 0.80784 0.02800
C 	C 	0.77338 0.56905 0.83012 -0.14700
C 	C 	0.85628 0.62010 0.82944 0.19900
C 	C 	0.88695 0.69003 0.80763 -0.10300
H 	H 	0.65942 0.54550 0.80765 0.02100
H 	H 	0.95057 0.72941 0.80757 0.08200
H 	H 	0.71332 0.66969 0.76979 0.04200
O 	O 	0.90723 0.60318 0.85044 -0.27900
H 	H 	0.91046 0.64598 0.86808 0.15600
