data_crystal

_cell_length_a 26.19430
_cell_length_b 26.48805
_cell_length_c 26.47462
_cell_angle_alpha 95.49153
_cell_angle_beta  95.48944
_cell_angle_gamma 125.81742

_symmetry_space_group_name_	'P 1'
_symmetry_space_group_name_H-M	'P 1'

loop_
_symmetry_equiv_pos_as_xyz
  x,y,z

loop_
_atom_site_label
_atom_site_type_symbol
_atom_site_fract_x
_atom_site_fract_y
_atom_site_fract_z
_atom_site_charge
C 	C 	0.97710 0.03757 0.98392 0.05800
C 	C 	0.04051 0.07066 0.97608 -0.10400
C 	C 	0.06942 0.03990 0.97276 0.05300
C 	C 	0.03560 0.97671 0.97937 -0.10600
C 	C 	0.97176 0.94315 0.98583 0.05800
C 	C 	0.94272 0.97373 0.98859 -0.10300
H 	H 	0.06702 0.11995 0.97215 0.05100
H 	H 	0.05841 0.95329 0.97825 0.05200
H 	H 	0.89332 0.94778 0.99376 0.05300
C 	C 	0.92729 0.99164 0.45407 0.03000
C 	C 	0.99233 0.02775 0.45048 -0.07000
C 	C 	0.02512 0.00089 0.45334 0.03000
C 	C 	0.99272 0.93766 0.45925 -0.07600
C 	C 	0.92864 0.90236 0.46569 0.03700
C 	C 	0.89576 0.92930 0.46264 -0.08300
H 	H 	0.01730 0.07656 0.44550 0.04200
H 	H 	0.01774 0.91645 0.46007 0.04300
H 	H 	0.84591 0.90185 0.46670 0.04800
Cu	Cu	0.65020 0.25304 0.00584 0.93000
Cu	Cu	0.70274 0.25745 0.89698 0.87100
Cu	Cu	0.68620 0.35424 0.94015 0.89600
Cu	Cu	0.64602 0.36709 0.04022 0.89500
C 	C 	0.66365 0.29727 0.11321 0.30300
O 	O 	0.55620 0.21364 0.00244 -0.35300
C 	C 	0.66562 0.31133 0.82760 0.30500
O 	O 	0.69980 0.35133 0.01194 -0.63900
O 	O 	0.64364 0.26116 0.93233 -0.64300
O 	O 	0.69020 0.20818 0.00387 -0.36800
O 	O 	0.76080 0.27260 0.95531 -0.44500
O 	O 	0.63343 0.32112 0.09882 -0.37900
O 	O 	0.73208 0.44524 0.95261 -0.38300
C 	C 	0.72762 0.47828 0.99025 0.29300
C 	C 	0.53030 0.23839 0.98101 0.28600
O 	O 	0.56658 0.29867 0.97786 -0.39500
O 	O 	0.68270 0.45032 0.01856 -0.39500
O 	O 	0.66926 0.26164 0.07925 -0.34900
C 	C 	0.74236 0.22987 0.98466 0.29500
O 	O 	0.68797 0.35891 0.86626 -0.38800
O 	O 	0.66310 0.26139 0.83475 -0.40800
H 	H 	0.74528 0.37940 0.02959 0.16100
H 	H 	0.59952 0.23476 0.91187 0.17600
Cu	Cu	0.72622 0.32931 0.43826 0.92900
Cu	Cu	0.71945 0.27435 0.54534 0.87100
Cu	Cu	0.62220 0.29147 0.50258 0.89600
Cu	Cu	0.61024 0.33247 0.40284 0.89400
C 	C 	0.68270 0.31672 0.33072 0.30200
O 	O 	0.76611 0.42271 0.44268 -0.35400
C 	C 	0.66458 0.31017 0.61502 0.30400
O 	O 	0.62650 0.27951 0.43097 -0.64100
O 	O 	0.71642 0.33406 0.51124 -0.64200
O 	O 	0.77046 0.28847 0.44068 -0.37000
O 	O 	0.70225 0.21632 0.48634 -0.44500
O 	O 	0.65781 0.34594 0.34481 -0.37900
O 	O 	0.53003 0.24551 0.48934 -0.38300
C 	C 	0.49684 0.25005 0.45158 0.29600
C 	C 	0.73958 0.44760 0.46255 0.28900
O 	O 	0.67865 0.41069 0.46570 -0.39400
O 	O 	0.52534 0.29499 0.42373 -0.39700
O 	O 	0.71905 0.31180 0.36493 -0.35000
C 	C 	0.74395 0.23366 0.45559 0.29500
O 	O 	0.61668 0.28846 0.57626 -0.38700
O 	O 	0.71504 0.31253 0.60795 -0.40700
H 	H 	0.59868 0.23469 0.41293 0.15900
H 	H 	0.74274 0.37740 0.53223 0.17800
C 	C 	0.70577 0.37311 0.75757 -0.04100
C 	C 	0.65585 0.31978 0.77429 -0.09100
C 	C 	0.60173 0.27017 0.73783 0.12300
C 	C 	0.60209 0.27010 0.68499 -0.04100
C 	C 	0.65585 0.31968 0.66829 -0.09000
C 	C 	0.70575 0.37340 0.70472 0.12300
Br	Br	0.77409 0.44742 0.68296 -0.27100
H 	H 	0.74626 0.41284 0.78551 0.06200
H 	H 	0.56211 0.22988 0.65704 0.06200
Br	Br	0.52704 0.20231 0.75956 -0.27200
C 	C 	0.72960 0.34921 0.20107 -0.04300
C 	C 	0.67494 0.29578 0.16822 -0.08400
C 	C 	0.62707 0.24543 0.18935 0.12700
C 	C 	0.63242 0.25070 0.24302 -0.04300
C 	C 	0.68495 0.30604 0.27584 -0.08500
C 	C 	0.73475 0.35466 0.25473 0.12700
Br	Br	0.80838 0.43043 0.29855 -0.24700
H 	H 	0.76683 0.38779 0.18493 0.05100
H 	H 	0.59431 0.21292 0.25915 0.05000
Br	Br	0.55221 0.17074 0.14553 -0.24800
C 	C 	0.78603 0.61002 0.51546 -0.09500
C 	C 	0.82596 0.64574 0.48182 0.00700
C 	C 	0.84651 0.61918 0.44813 0.02800
C 	C 	0.81924 0.55449 0.44316 -0.01900
C 	C 	0.77567 0.51736 0.47436 -0.10600
C 	C 	0.76326 0.54682 0.51375 0.09900
C 	C 	0.84555 0.71075 0.48169 -0.01300
C 	C 	0.89647 0.65920 0.41680 -0.17400
H 	H 	0.83086 0.53277 0.41422 0.05800
C 	C 	0.72624 0.51161 0.55402 -0.20500
H 	H 	0.77273 0.63143 0.54303 0.05200
C 	C 	0.81632 0.72320 0.44219 0.04400
C 	C 	0.84332 0.78623 0.43778 -0.06400
C 	C 	0.89564 0.83659 0.47475 -0.02700
C 	C 	0.91868 0.82352 0.51838 0.05100
C 	C 	0.89518 0.76077 0.52036 -0.07200
C 	C 	0.75728 0.66968 0.40424 -0.18100
H 	H 	0.82422 0.79611 0.40522 0.04200
C 	C 	0.96954 0.87611 0.56200 -0.17800
H 	H 	0.91595 0.75091 0.55175 0.04700
H 	H 	0.67403 0.48378 0.53896 0.07800
H 	H 	0.73864 0.54509 0.58986 0.07600
H 	H 	0.73776 0.47939 0.56488 0.08200
H 	H 	0.93738 0.70476 0.44150 0.06600
H 	H 	0.87523 0.66907 0.38452 0.06500
H 	H 	0.91586 0.63490 0.40028 0.06900
H 	H 	0.73333 0.68677 0.38278 0.06100
H 	H 	0.72203 0.63325 0.42480 0.06600
H 	H 	0.77042 0.64747 0.37588 0.06500
H 	H 	0.96657 0.85810 0.59865 0.06100
H 	H 	0.96357 0.91427 0.56874 0.06300
H 	H 	0.01769 0.89617 0.55282 0.05700
C 	C 	0.74867 0.09359 0.42821 -0.09800
C 	C 	0.81480 0.12387 0.43984 0.00900
C 	C 	0.85794 0.19074 0.44957 0.02100
C 	C 	0.83401 0.22631 0.45244 -0.01600
C 	C 	0.76770 0.19595 0.44399 -0.11600
C 	C 	0.72475 0.12919 0.42875 0.10000
C 	C 	0.83850 0.08516 0.44310 -0.01400
C 	C 	0.92936 0.22425 0.45833 -0.17100
H 	H 	0.86700 0.27757 0.46284 0.03600
C 	C 	0.65353 0.09555 0.41405 -0.20200
H 	H 	0.71575 0.04224 0.41932 0.05100
C 	C 	0.85095 0.07114 0.49088 0.04300
C 	C 	0.87882 0.03930 0.49369 -0.06500
C 	C 	0.89233 0.01949 0.44921 -0.02400
C 	C 	0.87535 0.02931 0.40078 0.05000
C 	C 	0.84966 0.06319 0.39829 -0.07200
C 	C 	0.83552 0.09089 0.53896 -0.18000
H 	H 	0.89088 0.03069 0.53064 0.04200
C 	C 	0.88642 0.00561 0.35200 -0.18000
H 	H 	0.83901 0.07312 0.36155 0.04600
H 	H 	0.63254 0.08976 0.44946 0.07000
H 	H 	0.62943 0.04782 0.39009 0.06600
H 	H 	0.64341 0.12263 0.39095 0.07300
H 	H 	0.94193 0.20617 0.42594 0.06500
H 	H 	0.94521 0.21611 0.49506 0.06000
H 	H 	0.95626 0.27619 0.46060 0.06100
H 	H 	0.84366 0.07230 0.57224 0.05800
H 	H 	0.78439 0.07227 0.53218 0.06200
H 	H 	0.86627 0.14338 0.54958 0.06000
H 	H 	0.85994 0.00630 0.31701 0.06100
H 	H 	0.86945 0.95593 0.35064 0.06300
H 	H 	0.93831 0.03613 0.35056 0.06400
C 	C 	0.20572 0.10418 0.49511 -0.07200
C 	C 	0.22520 0.10913 0.44719 -0.01300
C 	C 	0.17892 0.07954 0.40108 0.04300
C 	C 	0.11359 0.04470 0.40372 -0.06500
C 	C 	0.09414 0.03964 0.45166 -0.02700
C 	C 	0.14051 0.07034 0.49775 0.05100
C 	C 	0.29436 0.14531 0.44571 0.00900
C 	C 	0.19894 0.08423 0.34915 -0.18100
H 	H 	0.07778 0.02116 0.36848 0.04100
C 	C 	0.12058 0.06622 0.54970 -0.18400
H 	H 	0.24147 0.12700 0.53037 0.04700
C 	C 	0.33324 0.21185 0.45014 0.02100
C 	C 	0.39935 0.24537 0.45162 -0.01200
C 	C 	0.42687 0.21325 0.44784 -0.10800
C 	C 	0.38746 0.14638 0.44120 0.09700
C 	C 	0.32166 0.11308 0.44134 -0.09400
C 	C 	0.30471 0.24736 0.45467 -0.17000
H 	H 	0.42962 0.29664 0.45646 0.03800
C 	C 	0.41530 0.11039 0.43469 -0.20000
H 	H 	0.29155 0.06197 0.43786 0.05100
H 	H 	0.08918 0.08145 0.55144 0.06300
H 	H 	0.16261 0.09721 0.58171 0.06100
H 	H 	0.09425 0.01670 0.55612 0.06300
H 	H 	0.22158 0.05984 0.34423 0.06400
H 	H 	0.23369 0.13473 0.34617 0.06300
H 	H 	0.15740 0.06192 0.31693 0.06000
H 	H 	0.34022 0.29825 0.45312 0.05800
H 	H 	0.28787 0.24427 0.49196 0.06300
H 	H 	0.26366 0.22683 0.42239 0.06000
H 	H 	0.44251 0.11631 0.47240 0.07300
H 	H 	0.44768 0.12791 0.40617 0.06100
H 	H 	0.37715 0.05893 0.42036 0.06400
C 	C 	0.87036 0.76480 0.94475 -0.07400
C 	C 	0.86697 0.74600 0.99278 -0.01500
C 	C 	0.89734 0.79201 0.03875 0.04400
C 	C 	0.93123 0.85640 0.03584 -0.05700
C 	C 	0.93451 0.87515 0.98779 -0.03900
C 	C 	0.90322 0.82906 0.94187 0.05600
C 	C 	0.83125 0.67784 0.99455 0.01000
C 	C 	0.89435 0.77267 0.09079 -0.18100
H 	H 	0.95532 0.89204 0.07095 0.04100
C 	C 	0.90552 0.84830 0.88982 -0.18600
H 	H 	0.84697 0.72923 0.90961 0.04800
C 	C 	0.76411 0.63898 0.99106 0.02200
C 	C 	0.73096 0.57379 0.98995 -0.01300
C 	C 	0.76408 0.54722 0.99327 -0.10700
C 	C 	0.83161 0.58663 0.99898 0.09400
C 	C 	0.86449 0.65148 0.99836 -0.09700
C 	C 	0.72754 0.66656 0.98720 -0.17300
H 	H 	0.67918 0.54350 0.98581 0.03800
C 	C 	0.86873 0.55980 0.00502 -0.19400
H 	H 	0.91607 0.68161 0.00111 0.05400
H 	H 	0.87477 0.80646 0.85798 0.06200
H 	H 	0.95545 0.87582 0.88288 0.06400
H 	H 	0.88828 0.87784 0.88840 0.06300
H 	H 	0.91958 0.75078 0.09501 0.06500
H 	H 	0.84365 0.73803 0.09462 0.06400
H 	H 	0.91730 0.81390 0.12294 0.06000
H 	H 	0.67637 0.63120 0.98947 0.05900
H 	H 	0.72957 0.68278 0.94979 0.06300
H 	H 	0.74859 0.70735 0.01936 0.06300
H 	H 	0.92080 0.59793 0.01868 0.06400
H 	H 	0.86225 0.53261 0.96729 0.07100
H 	H 	0.85204 0.52820 0.03389 0.06100
C 	C 	0.89711 0.11402 0.94755 -0.07300
C 	C 	0.88487 0.12767 0.99540 -0.01600
C 	C 	0.90366 0.11246 0.03973 0.04500
C 	C 	0.93514 0.08432 0.03550 -0.05700
C 	C 	0.94657 0.06983 0.98749 -0.03900
C 	C 	0.92656 0.08387 0.94295 0.05500
C 	C 	0.84878 0.15437 0.99801 0.00700
C 	C 	0.88824 0.12409 0.09107 -0.18200
H 	H 	0.94994 0.07277 0.06944 0.04200
C 	C 	0.93650 0.06691 0.89060 -0.18600
H 	H 	0.88248 0.12576 0.91366 0.04300
C 	C 	0.88090 0.22054 0.00683 0.02000
C 	C 	0.84513 0.24439 0.00485 -0.00900
C 	C 	0.77790 0.20312 0.99293 -0.12100
C 	C 	0.74581 0.13670 0.98418 0.09800
C 	C 	0.78170 0.11310 0.98813 -0.09800
C 	C 	0.95311 0.26570 0.01595 -0.16600
H 	H 	0.86965 0.29519 0.01134 0.03500
C 	C 	0.67368 0.09079 0.96956 -0.20600
H 	H 	0.75742 0.06233 0.98184 0.05100
H 	H 	0.98826 0.09814 0.88881 0.06400
H 	H 	0.91016 0.07268 0.85907 0.06000
H 	H 	0.91875 0.01666 0.88331 0.06400
H 	H 	0.83547 0.09402 0.08852 0.06800
H 	H 	0.90800 0.17467 0.10193 0.06700
H 	H 	0.90903 0.11261 0.12243 0.06200
H 	H 	0.97099 0.31584 0.02588 0.05800
H 	H 	0.97021 0.26017 0.98052 0.05900
H 	H 	0.97417 0.25587 0.04844 0.06200
H 	H 	0.65587 0.10317 0.93680 0.05900
H 	H 	0.65194 0.09173 0.00329 0.08900
H 	H 	0.65720 0.04141 0.95714 0.06500
C 	C 	0.21286 0.07800 0.91608 -0.07400
C 	C 	0.26312 0.12723 0.95482 -0.01200
C 	C 	0.24993 0.15489 0.99482 0.04100
C 	C 	0.18614 0.12643 0.99989 -0.06400
C 	C 	0.13564 0.07416 0.96311 -0.03400
C 	C 	0.14914 0.05290 0.91882 0.05300
C 	C 	0.32883 0.14677 0.95517 0.00800
C 	C 	0.30357 0.21341 0.03292 -0.17900
H 	H 	0.17579 0.14427 0.03288 0.04400
C 	C 	0.09602 0.00214 0.87537 -0.18100
H 	H 	0.22329 0.05849 0.88428 0.04700
C 	C 	0.35547 0.12666 0.98928 0.02400
C 	C 	0.42139 0.15565 0.99634 -0.02100
C 	C 	0.45980 0.20063 0.96674 -0.10600
C 	C 	0.43053 0.21231 0.92642 0.09900
C 	C 	0.36581 0.18762 0.92263 -0.09600
C 	C 	0.31432 0.07587 0.01932 -0.16800
H 	H 	0.44304 0.14442 0.02581 0.05900
C 	C 	0.46751 0.25054 0.88737 -0.20500
H 	H 	0.34434 0.20049 0.89460 0.05200
H 	H 	0.07698 0.95470 0.88438 0.05800
H 	H 	0.11387 0.00571 0.83847 0.06000
H 	H 	0.05658 0.00689 0.86922 0.06200
H 	H 	0.34040 0.24861 0.01256 0.06600
H 	H 	0.32619 0.20066 0.06138 0.06500
H 	H 	0.28568 0.23658 0.05422 0.06000
H 	H 	0.33886 0.05651 0.03549 0.06700
H 	H 	0.26874 0.03575 0.99384 0.06300
H 	H 	0.30341 0.09568 0.05176 0.06400
H 	H 	0.43476 0.23776 0.85062 0.07700
H 	H 	0.50206 0.24122 0.87800 0.08100
H 	H 	0.49364 0.30182 0.90277 0.07700
