data_crystal

_cell_length_a 24.21654
_cell_length_b 22.66630
_cell_length_c 28.19395
_cell_angle_alpha 90.00000
_cell_angle_beta  90.00000
_cell_angle_gamma 113.84024

_symmetry_space_group_name_	'P 1'
_symmetry_space_group_name_H-M	'P 1'

loop_
_symmetry_equiv_pos_as_xyz
  x,y,z

loop_
_atom_site_label
_atom_site_type_symbol
_atom_site_fract_x
_atom_site_fract_y
_atom_site_fract_z
_atom_site_charge
Zn	Zn	0.94407 0.92920 0.96318 1.21800
Zn	Zn	0.06013 0.99967 0.88402 1.18900
C 	C 	0.02129 0.12968 0.05751 0.28700
Zn	Zn	0.05072 0.06400 0.97606 1.23200
Zn	Zn	0.95561 0.98841 0.06296 1.18100
H 	H 	0.97714 0.03613 0.90916 0.17800
C 	C 	0.14144 0.01286 0.97212 0.29700
O 	O 	0.87780 0.91106 0.06862 -0.46100
O 	O 	0.89785 0.85185 0.01067 -0.40500
O 	O 	0.99867 0.01264 0.92502 -0.78100
O 	O 	0.02264 0.90541 0.86865 -0.41300
O 	O 	0.87203 0.95022 0.96034 -0.42900
O 	O 	0.94284 0.86139 0.91934 -0.41900
O 	O 	0.91025 0.03020 0.01562 -0.39400
O 	O 	0.13283 0.08327 0.87979 -0.43300
H 	H 	0.02807 0.95038 0.02168 0.18200
O 	O 	0.09780 0.14113 0.92872 -0.38500
O 	O 	0.00445 0.97504 0.01154 -0.79400
O 	O 	0.00850 0.07793 0.08393 -0.42800
O 	O 	0.12834 0.05928 0.98978 -0.42200
O 	O 	0.03112 0.12857 0.01162 -0.41300
O 	O 	0.10481 0.97174 0.94154 -0.43600
C 	C 	0.86402 0.85616 0.04582 0.27900
C 	C 	0.99145 0.86022 0.89921 0.21500
C 	C 	0.86589 0.99442 0.98762 0.25400
C 	C 	0.13892 0.13851 0.89927 0.27600
Zn	Zn	0.05150 0.56394 0.02240 1.22700
Zn	Zn	0.95757 0.48994 0.93447 1.19000
C 	C 	0.98934 0.35962 0.09907 0.35400
Zn	Zn	0.94376 0.42988 0.03416 1.21900
Zn	Zn	0.05852 0.49886 0.11481 1.19800
H 	H 	0.02856 0.45013 0.97670 0.18600
C 	C 	0.86716 0.49640 0.00903 0.26900
O 	O 	0.13173 0.58162 0.11956 -0.44900
O 	O 	0.09818 0.64043 0.07029 -0.37300
O 	O 	0.00520 0.47520 0.98654 -0.77500
O 	O 	0.01188 0.57919 0.91424 -0.45700
O 	O 	0.12900 0.55763 0.00962 -0.41500
O 	O 	0.03376 0.62932 0.98673 -0.41600
O 	O 	0.10343 0.46999 0.05806 -0.41700
O 	O 	0.87894 0.41354 0.92830 -0.44900
H 	H 	0.97691 0.53617 0.08859 0.17400
O 	O 	0.89778 0.35332 0.98607 -0.39000
O 	O 	0.99844 0.51246 0.07300 -0.80300
O 	O 	0.01952 0.40459 0.13010 -0.43300
O 	O 	0.87240 0.45172 0.03636 -0.42500
O 	O 	0.94141 0.36090 0.07783 -0.41300
O 	O 	0.91218 0.53209 0.98151 -0.41700
C 	C 	0.13843 0.63719 0.10035 0.27800
C 	C 	0.02436 0.63074 0.94078 0.40400
C 	C 	0.14088 0.51058 0.02766 0.27500
C 	C 	0.86420 0.35856 0.95110 0.27800
Zn	Zn	0.45026 0.93628 0.02371 1.22100
Zn	Zn	0.54418 0.01301 0.93661 1.20800
C 	C 	0.50899 0.13960 0.10128 0.27200
Zn	Zn	0.55650 0.07107 0.03679 1.22800
Zn	Zn	0.44084 0.99983 0.11624 1.18900
H 	H 	0.47180 0.05056 0.97920 0.19500
C 	C 	0.63469 0.00647 0.01161 0.39100
O 	O 	0.36949 0.91569 0.12158 -0.43800
O 	O 	0.40333 0.85866 0.07077 -0.40000
O 	O 	0.49566 0.02590 0.98874 -0.77300
O 	O 	0.49142 0.92361 0.91551 -0.45700
O 	O 	0.37225 0.94050 0.01000 -0.41300
O 	O 	0.47027 0.87272 0.98776 -0.40300
O 	O 	0.39431 0.02673 0.05935 -0.40100
O 	O 	0.62175 0.09071 0.93088 -0.46000
H 	H 	0.52379 0.96434 0.09058 0.18200
O 	O 	0.60235 0.14916 0.98975 -0.38000
O 	O 	0.50203 0.98772 0.07487 -0.80300
O 	O 	0.47731 0.09419 0.13152 -0.41900
O 	O 	0.62837 0.05039 0.03908 -0.44100
O 	O 	0.55775 0.13841 0.08147 -0.40900
O 	O 	0.59074 0.97132 0.98300 -0.42700
C 	C 	0.36265 0.86093 0.10088 0.37800
C 	C 	0.47919 0.87178 0.94170 0.30600
C 	C 	0.35804 0.98566 0.02854 0.36200
C 	C 	0.63545 0.14545 0.95385 0.38000
Zn	Zn	0.55581 0.57137 0.96586 1.22800
Zn	Zn	0.44216 0.50060 0.88489 1.20400
C 	C 	0.47781 0.36971 0.05916 0.40600
Zn	Zn	0.45011 0.43560 0.97721 1.22800
Zn	Zn	0.54290 0.51092 0.06518 1.19900
H 	H 	0.52530 0.46528 0.91136 0.19800
C 	C 	0.35749 0.48369 0.97129 0.36600
O 	O 	0.62066 0.58813 0.07148 -0.47200
O 	O 	0.60058 0.64807 0.01419 -0.38700
O 	O 	0.50291 0.48810 0.92690 -0.78400
O 	O 	0.47843 0.59533 0.87054 -0.41900
O 	O 	0.62847 0.55120 0.96395 -0.40700
O 	O 	0.55709 0.63955 0.92227 -0.42900
O 	O 	0.58901 0.46975 0.01797 -0.43100
O 	O 	0.37066 0.41615 0.87911 -0.44200
H 	H 	0.47023 0.54831 0.02329 0.18900
O 	O 	0.40499 0.35880 0.92915 -0.36300
O 	O 	0.49461 0.52438 0.01338 -0.79300
O 	O 	0.48981 0.42125 0.08564 -0.47000
O 	O 	0.37160 0.43860 0.99007 -0.43900
O 	O 	0.46986 0.37138 0.01304 -0.41400
O 	O 	0.39488 0.52594 0.94179 -0.37000
C 	C 	0.63461 0.64323 0.04898 0.38500
C 	C 	0.50882 0.64057 0.90138 0.37300
C 	C 	0.63386 0.50591 0.99049 0.37500
C 	C 	0.36442 0.36107 0.89897 0.37200
C 	C 	0.48447 0.81507 0.92091 0.01000
C 	C 	0.54157 0.81761 0.90890 -0.05100
C 	C 	0.54921 0.76069 0.90001 0.08200
C 	C 	0.49946 0.70087 0.90203 -0.20000
C 	C 	0.44144 0.69903 0.90986 0.38900
C 	C 	0.43420 0.75587 0.92001 -0.15200
H 	H 	0.59399 0.76295 0.89293 0.04200
H 	H 	0.38981 0.75363 0.92875 0.12000
H 	H 	0.58053 0.86334 0.90883 0.07400
F 	F 	0.39249 0.64196 0.90979 -0.43000
C 	C 	0.49939 0.19960 0.09955 0.01900
C 	C 	0.54883 0.25964 0.10126 -0.06500
C 	C 	0.54077 0.31614 0.09171 0.08600
C 	C 	0.48346 0.31300 0.07964 -0.21700
C 	C 	0.43348 0.25336 0.08040 0.40600
C 	C 	0.44136 0.19697 0.09101 -0.17000
H 	H 	0.57958 0.36201 0.09130 0.01800
H 	H 	0.40277 0.15096 0.09050 0.11400
H 	H 	0.59371 0.26238 0.10864 0.07300
F 	F 	0.37770 0.24978 0.06916 -0.45400
C 	C 	0.80557 0.30539 0.94196 0.01100
C 	C 	0.80179 0.24239 0.93650 -0.06600
C 	C 	0.74552 0.19023 0.93655 0.07200
C 	C 	0.69267 0.20050 0.94345 -0.20700
C 	C 	0.69625 0.26390 0.94605 0.39500
C 	C 	0.75253 0.31612 0.94500 -0.16000
H 	H 	0.74325 0.14165 0.93357 0.02700
H 	H 	0.75505 0.36471 0.94891 0.11600
H 	H 	0.84250 0.23369 0.93373 0.05600
F 	F 	0.64537 0.27479 0.95084 -0.44300
C 	C 	0.19565 0.69393 0.10695 0.01600
C 	C 	0.25072 0.68705 0.10553 -0.06300
C 	C 	0.30536 0.74157 0.10547 0.07300
C 	C 	0.30554 0.80355 0.10718 -0.19900
C 	C 	0.25033 0.81030 0.11072 0.40900
C 	C 	0.19575 0.75569 0.11029 -0.15500
H 	H 	0.34748 0.73564 0.10311 0.03100
H 	H 	0.15350 0.76149 0.11163 0.11600
H 	H 	0.25118 0.63957 0.10265 0.06100
F 	F 	0.24941 0.86975 0.11251 -0.44200
C 	C 	0.80833 0.50111 0.00487 -0.00100
C 	C 	0.76717 0.48210 0.04266 -0.06400
C 	C 	0.70986 0.48231 0.03749 0.06500
C 	C 	0.69289 0.50146 0.99440 -0.19600
C 	C 	0.73398 0.52006 0.95638 0.38900
C 	C 	0.79143 0.52014 0.96172 -0.15600
H 	H 	0.67902 0.46869 0.06732 0.01900
H 	H 	0.82228 0.53349 0.93190 0.09800
H 	H 	0.77960 0.46736 0.07612 0.05800
F 	F 	0.71789 0.53676 0.91399 -0.45100
C 	C 	0.19528 0.50201 0.01281 -0.00100
C 	C 	0.22781 0.48252 0.04593 -0.06300
C 	C 	0.28071 0.47640 0.03234 0.06000
C 	C 	0.30140 0.48938 0.98542 -0.19200
C 	C 	0.26798 0.50735 0.95194 0.39700
C 	C 	0.21548 0.51421 0.96575 -0.15100
H 	H 	0.30599 0.46237 0.05842 0.02600
H 	H 	0.19008 0.52820 0.93974 0.11300
H 	H 	0.21265 0.47314 0.08240 0.05100
F 	F 	0.28548 0.51643 0.90580 -0.43400
C 	C 	0.80663 0.80119 0.05606 0.00300
C 	C 	0.80271 0.73790 0.05200 -0.06900
C 	C 	0.74642 0.68576 0.05308 0.07300
C 	C 	0.69349 0.69649 0.05749 -0.21200
C 	C 	0.69757 0.75953 0.06415 0.39600
C 	C 	0.75402 0.81157 0.06412 -0.16300
H 	H 	0.74377 0.63728 0.04810 0.02500
H 	H 	0.75661 0.86015 0.06817 0.11200
H 	H 	0.84307 0.72922 0.04647 0.05700
F 	F 	0.64677 0.77049 0.06936 -0.44200
C 	C 	0.19635 0.19547 0.89365 0.01100
C 	C 	0.19715 0.25770 0.89445 -0.06400
C 	C 	0.25211 0.31178 0.89420 0.07000
C 	C 	0.30692 0.30421 0.89344 -0.19500
C 	C 	0.30613 0.24193 0.89132 0.39400
C 	C 	0.25109 0.18787 0.89134 -0.16000
H 	H 	0.25211 0.35952 0.89623 0.04600
H 	H 	0.25106 0.14005 0.89108 0.11500
H 	H 	0.15526 0.26420 0.89606 0.06400
F 	F 	0.35862 0.23376 0.88968 -0.44100
C 	C 	0.80670 0.99822 0.99142 -0.03200
C 	C 	0.80324 0.05596 0.00569 -0.02800
C 	C 	0.74715 0.05785 0.01435 0.04900
C 	C 	0.69377 0.00209 0.00858 -0.17100
C 	C 	0.69728 0.94391 0.99521 0.35300
C 	C 	0.75339 0.94232 0.98597 -0.14600
H 	H 	0.74518 0.10307 0.02445 0.04300
H 	H 	0.75551 0.89709 0.97608 0.11100
H 	H 	0.84400 0.09941 0.01015 0.05700
F 	F 	0.64652 0.88864 0.99229 -0.43500
C 	C 	0.19640 0.00574 0.98751 0.04700
C 	C 	0.24931 0.06061 0.99684 -0.07700
C 	C 	0.30230 0.05405 0.00947 0.11800
C 	C 	0.30294 0.99253 0.01294 -0.24200
C 	C 	0.25000 0.93755 0.00328 0.42300
C 	C 	0.19698 0.94423 0.99086 -0.19800
H 	H 	0.34302 0.09680 0.01607 0.03400
H 	H 	0.15621 0.90155 0.98424 0.12800
H 	H 	0.24964 0.10839 0.99355 0.08600
F 	F 	0.24962 0.87765 0.00677 -0.42400
C 	C 	0.00133 0.80037 0.90104 0.07000
C 	C 	0.95204 0.74018 0.89978 -0.10500
C 	C 	0.96052 0.68387 0.90917 0.06400
C 	C 	0.01810 0.68735 0.92070 -0.19900
C 	C 	0.06789 0.74715 0.91958 0.40600
C 	C 	0.05959 0.80333 0.90905 -0.18700
H 	H 	0.92187 0.63789 0.90982 0.01800
H 	H 	0.09806 0.84943 0.90915 0.11500
H 	H 	0.90698 0.73717 0.89280 0.07800
F 	F 	0.12392 0.75106 0.93027 -0.43800
C 	C 	0.01601 0.18670 0.07784 0.04000
C 	C 	0.06519 0.24679 0.07577 -0.08300
C 	C 	0.05719 0.30314 0.08609 0.09900
C 	C 	0.99963 0.29997 0.09745 -0.23900
C 	C 	0.95106 0.23947 0.10215 0.40900
C 	C 	0.95941 0.18307 0.09259 -0.19800
H 	H 	0.09513 0.34944 0.08305 0.01700
H 	H 	0.92121 0.13677 0.09440 0.10800
H 	H 	0.10912 0.25001 0.06455 0.06500
F 	F 	0.89560 0.23542 0.11496 -0.45100
