data_crystal

_cell_length_a 18.56409
_cell_length_b 18.95498
_cell_length_c 34.95355
_cell_angle_alpha 95.45200
_cell_angle_beta  95.45247
_cell_angle_gamma 126.45898

_symmetry_space_group_name_	'P 1'
_symmetry_space_group_name_H-M	'P 1'

loop_
_symmetry_equiv_pos_as_xyz
  x,y,z

loop_
_atom_site_label
_atom_site_type_symbol
_atom_site_fract_x
_atom_site_fract_y
_atom_site_fract_z
_atom_site_charge
C 	C 	0.88624 0.98686 0.97314 0.02400
C 	C 	0.98089 0.04193 0.97539 -0.04800
C 	C 	0.02707 0.00469 0.97283 0.02100
C 	C 	0.97961 0.91274 0.97103 -0.05400
C 	C 	0.88542 0.85719 0.97032 0.03200
C 	C 	0.83822 0.89413 0.97094 -0.06200
H 	H 	0.01825 0.11355 0.97815 0.05200
H 	H 	0.01570 0.88417 0.96970 0.05500
H 	H 	0.76516 0.85135 0.96980 0.06200
C 	C 	0.97261 0.04704 0.48748 0.05600
C 	C 	0.06788 0.09967 0.49107 -0.08700
C 	C 	0.11060 0.05857 0.48951 0.05300
C 	C 	0.05828 0.96559 0.48403 -0.09000
C 	C 	0.96394 0.91348 0.48144 0.05600
C 	C 	0.92075 0.95379 0.48203 -0.08500
H 	H 	0.10840 0.17184 0.49558 0.06700
H 	H 	0.09153 0.93405 0.48352 0.06800
H 	H 	0.84735 0.91304 0.47975 0.06600
Cu	Cu	0.73305 0.32867 0.96038 0.93300
Cu	Cu	0.70345 0.24814 0.04107 0.88400
Cu	Cu	0.59404 0.30247 0.00854 0.90100
Cu	Cu	0.56193 0.31813 0.92484 0.91100
C 	C 	0.67752 0.30247 0.87730 0.41000
O 	O 	0.78164 0.45828 0.95915 -0.32800
C 	C 	0.63153 0.30767 0.09273 0.39500
O 	O 	0.59159 0.25886 0.95517 -0.63100
O 	O 	0.72142 0.34257 0.01554 -0.64100
O 	O 	0.79283 0.26895 0.96635 -0.34400
O 	O 	0.68258 0.16794 0.99693 -0.41500
O 	O 	0.64089 0.34258 0.88541 -0.36800
O 	O 	0.47276 0.27297 0.00029 -0.36200
C 	C 	0.41146 0.22679 0.96772 0.29400
C 	C 	0.73738 0.48985 0.96951 0.27700
O 	O 	0.65013 0.43444 0.97095 -0.38400
O 	O 	0.43500 0.24347 0.93339 -0.37100
O 	O 	0.72324 0.29434 0.90542 -0.34900
C 	C 	0.74879 0.19138 0.97785 0.29100
O 	O 	0.59751 0.32836 0.06483 -0.35400
O 	O 	0.69785 0.30201 0.08859 -0.38800
H 	H 	0.55157 0.19294 0.94748 0.18000
H 	H 	0.76641 0.40364 0.03120 0.19000
Cu	Cu	0.65637 0.23248 0.51255 0.93100
Cu	Cu	0.66418 0.17955 0.41769 0.89100
Cu	Cu	0.71280 0.36466 0.45732 0.90700
Cu	Cu	0.67103 0.40635 0.53550 0.90800
C 	C 	0.67611 0.29975 0.59356 0.39500
O 	O 	0.52542 0.18067 0.51618 -0.34400
C 	C 	0.65605 0.29443 0.37306 0.39400
O 	O 	0.73242 0.36904 0.51218 -0.64200
O 	O 	0.63207 0.23226 0.45565 -0.63500
O 	O 	0.72361 0.18011 0.51326 -0.33100
O 	O 	0.67420 0.10973 0.44958 -0.39600
O 	O 	0.68098 0.37016 0.58672 -0.35200
O 	O 	0.78961 0.49261 0.46385 -0.35900
C 	C 	0.77641 0.54253 0.48630 0.29100
C 	C 	0.49089 0.22092 0.50530 0.29100
O 	O 	0.54370 0.30072 0.49696 -0.37600
O 	O 	0.71121 0.50737 0.50725 -0.37700
O 	O 	0.69340 0.25749 0.56821 -0.33400
C 	C 	0.73580 0.14733 0.48179 0.28000
O 	O 	0.71881 0.36147 0.40145 -0.36800
O 	O 	0.61699 0.21122 0.37700 -0.38100
H 	H 	0.79780 0.40492 0.52425 0.18200
H 	H 	0.56795 0.20753 0.44642 0.17900
C 	C 	0.63395 0.19914 0.77226 0.22500
C 	C 	0.68972 0.27580 0.75623 -0.00300
C 	C 	0.74993 0.35965 0.78106 0.22200
C 	C 	0.75047 0.36753 0.82129 0.31400
C 	C 	0.69074 0.29163 0.83702 -0.22100
C 	C 	0.63464 0.20705 0.81259 0.30600
C 	C 	0.67941 0.26964 0.71337 -0.00500
F 	F 	0.80522 0.43397 0.76593 -0.35600
F 	F 	0.57796 0.13306 0.82766 -0.40300
C 	C 	0.60864 0.26637 0.69257 0.22400
C 	C 	0.60570 0.27281 0.65298 0.30700
C 	C 	0.67354 0.28261 0.63386 -0.21200
C 	C 	0.74234 0.28225 0.65430 0.31000
C 	C 	0.74512 0.27568 0.69390 0.22700
F 	F 	0.54435 0.25978 0.71108 -0.36000
F 	F 	0.80862 0.29206 0.63627 -0.38400
F 	F 	0.53762 0.27080 0.63331 -0.40300
F 	F 	0.81325 0.27794 0.71368 -0.35300
F 	F 	0.57702 0.11748 0.74860 -0.35500
F 	F 	0.80633 0.44943 0.84483 -0.39100
C 	C 	0.56851 0.23477 0.18799 0.22300
C 	C 	0.60269 0.31614 0.21194 -0.00500
C 	C 	0.63279 0.39145 0.19497 0.22600
C 	C 	0.63557 0.38713 0.15493 0.31400
C 	C 	0.60763 0.30732 0.13163 -0.21900
C 	C 	0.57053 0.23034 0.14800 0.30500
C 	C 	0.61711 0.32479 0.25500 -0.00600
F 	F 	0.66301 0.46968 0.21760 -0.35200
F 	F 	0.54069 0.15216 0.12543 -0.41000
C 	C 	0.70575 0.37053 0.27664 0.22100
C 	C 	0.71881 0.36487 0.31599 0.30700
C 	C 	0.64329 0.31264 0.33394 -0.22200
C 	C 	0.55498 0.27121 0.31297 0.30700
C 	C 	0.54198 0.27781 0.27372 0.22600
F 	F 	0.77895 0.41661 0.25895 -0.35300
F 	F 	0.48168 0.22309 0.33042 -0.39800
F 	F 	0.80462 0.40605 0.33603 -0.39100
F 	F 	0.45620 0.23581 0.25345 -0.35200
F 	F 	0.53800 0.16119 0.20390 -0.35500
F 	F 	0.67010 0.46166 0.13927 -0.38900
C 	C 	0.82688 0.63731 0.48426 -0.07600
C 	C 	0.86940 0.70028 0.51925 -0.00200
C 	C 	0.91108 0.79019 0.51872 0.00400
C 	C 	0.91219 0.81819 0.48274 -0.00000
C 	C 	0.86926 0.75543 0.44770 -0.05500
C 	C 	0.82574 0.66499 0.44821 0.05100
S 	S 	0.96019 0.86701 0.56333 -0.01200
S 	S 	0.76692 0.58705 0.40383 0.03300
H 	H 	0.67778 0.55569 0.39751 0.05100
H 	H 	0.89661 0.87442 0.57555 0.04900
H 	H 	0.86890 0.67892 0.54699 0.04800
H 	H 	0.86982 0.77709 0.42004 0.06600
C 	C 	0.92663 0.08906 0.48981 0.00200
C 	C 	0.91660 0.12413 0.45797 -0.05800
C 	C 	0.85783 0.14759 0.45592 0.05700
C 	C 	0.80613 0.13320 0.48552 -0.08100
C 	C 	0.82121 0.10411 0.51871 0.00500
C 	C 	0.88211 0.08331 0.52123 0.00500
S 	S 	0.85289 0.19852 0.41719 -0.06900
S 	S 	0.90280 0.05093 0.56398 -0.00400
H 	H 	0.97700 0.12467 0.58924 0.05900
H 	H 	0.78612 0.13407 0.38652 0.04100
H 	H 	0.95286 0.13113 0.43430 0.06500
H 	H 	0.78435 0.09610 0.54224 0.07200
C 	C 	0.21046 0.11228 0.49479 -0.00000
C 	C 	0.25090 0.12991 0.46160 -0.05500
C 	C 	0.34101 0.16022 0.46420 0.04800
C 	C 	0.39245 0.17540 0.50067 -0.07500
C 	C 	0.35261 0.15958 0.53402 -0.00400
C 	C 	0.26235 0.12898 0.53135 0.00700
S 	S 	0.38708 0.17457 0.42125 0.00800
S 	S 	0.21468 0.11119 0.57391 0.01200
H 	H 	0.17586 0.02541 0.57881 0.05000
H 	H 	0.43067 0.26101 0.41619 0.06100
H 	H 	0.21074 0.11592 0.43336 0.06500
H 	H 	0.39257 0.17308 0.56224 0.08200
C 	C 	0.77920 0.58520 0.97055 -0.06500
C 	C 	0.79695 0.61884 0.93575 -0.00600
C 	C 	0.82437 0.70520 0.93455 0.00300
C 	C 	0.83687 0.76011 0.96879 0.01000
C 	C 	0.81793 0.72605 0.00349 -0.05900
C 	C 	0.78927 0.63912 0.00456 0.04300
S 	S 	0.84161 0.74344 0.88987 0.01300
S 	S 	0.76939 0.59979 0.04896 0.00900
H 	H 	0.67912 0.55537 0.05091 0.06600
H 	H 	0.93135 0.78743 0.88700 0.05400
H 	H 	0.78699 0.57686 0.90928 0.07900
H 	H 	0.82836 0.76820 0.02999 0.06400
C 	C 	0.83825 0.02742 0.97344 0.01700
C 	C 	0.81951 0.05083 0.93895 -0.06300
C 	C 	0.79219 0.10594 0.94000 0.05300
C 	C 	0.78374 0.13852 0.97598 -0.08100
C 	C 	0.80039 0.11323 0.01025 -0.00100
C 	C 	0.82707 0.05780 0.00913 -0.00600
S 	S 	0.76724 0.13200 0.89602 0.02800
S 	S 	0.84805 0.02836 0.05280 -0.00300
H 	H 	0.93868 0.08873 0.06942 0.05000
H 	H 	0.67601 0.07088 0.88057 0.07300
H 	H 	0.82867 0.02820 0.91146 0.06500
H 	H 	0.79262 0.13684 0.03790 0.03200
C 	C 	0.31328 0.17043 0.96980 -0.08000
C 	C 	0.25142 0.16407 0.94041 0.00500
C 	C 	0.15783 0.10781 0.94031 -0.00500
C 	C 	0.12542 0.06203 0.97152 0.01800
C 	C 	0.18693 0.06890 0.00117 -0.07100
C 	C 	0.27996 0.12003 0.99980 0.06200
S 	S 	0.08175 0.09106 0.89975 -0.00500
S 	S 	0.35185 0.11416 0.03384 0.00100
H 	H 	0.35490 0.04681 0.01866 0.04400
H 	H 	0.06465 0.15176 0.90651 0.04500
H 	H 	0.27599 0.20162 0.91708 0.05700
H 	H 	0.16191 0.03232 0.02477 0.06700
