data_crystal

_cell_length_a 38.51421
_cell_length_b 37.91768
_cell_length_c 22.85232
_cell_angle_alpha 89.96030
_cell_angle_beta  89.94365
_cell_angle_gamma 87.40126

_symmetry_space_group_name_	'P 1'
_symmetry_space_group_name_H-M	'P 1'

loop_
_symmetry_equiv_pos_as_xyz
  x,y,z

loop_
_atom_site_label
_atom_site_type_symbol
_atom_site_fract_x
_atom_site_fract_y
_atom_site_fract_z
_atom_site_charge
C 	C 	0.44929 0.53875 0.02280 -0.03500
C 	C 	0.48052 0.55527 0.03101 -0.04700
C 	C 	0.44901 0.50204 0.01318 -0.00400
C 	C 	0.48060 0.48154 0.01603 0.00300
C 	C 	0.51226 0.49819 0.02601 -0.01400
C 	C 	0.51226 0.53534 0.03331 0.01400
C 	C 	0.48062 0.44443 0.00866 -0.00400
C 	C 	0.51254 0.42476 0.00766 -0.02600
C 	C 	0.54394 0.47774 0.02789 0.01400
C 	C 	0.54412 0.55172 0.04324 -0.01600
C 	C 	0.57493 0.53100 0.04808 -0.04100
C 	C 	0.57539 0.49454 0.03866 -0.01400
C 	C 	0.41762 0.48532 0.00121 0.01600
C 	C 	0.41764 0.44849 0.99708 -0.07100
C 	C 	0.44859 0.42782 0.00158 0.00700
C 	C 	0.54636 0.59063 0.04335 0.02900
C 	C 	0.56375 0.60716 0.99759 -0.07000
C 	C 	0.57129 0.64275 0.00183 -0.01600
C 	C 	0.56076 0.66243 0.05120 -0.00500
C 	C 	0.54157 0.64649 0.09542 -0.03200
C 	C 	0.53543 0.61043 0.09247 -0.05500
C 	C 	0.60941 0.47504 0.03575 0.02100
C 	C 	0.62958 0.47081 0.08658 -0.04700
C 	C 	0.66512 0.46208 0.08226 -0.04100
C 	C 	0.62433 0.46698 0.98103 -0.05300
C 	C 	0.65977 0.45780 0.97682 -0.04600
C 	C 	0.68063 0.45762 0.02710 0.00900
C 	C 	0.38458 0.50598 0.99153 -0.00900
C 	C 	0.35644 0.50198 0.02962 -0.03300
C 	C 	0.32460 0.51985 0.01866 -0.03600
C 	C 	0.32107 0.54308 0.97098 -0.00100
C 	C 	0.34913 0.54691 0.93264 -0.04300
C 	C 	0.38058 0.52798 0.94232 -0.03900
C 	C 	0.44672 0.38878 0.00060 0.01400
C 	C 	0.43142 0.37220 0.95278 -0.04900
C 	C 	0.42504 0.33624 0.95511 -0.04700
C 	C 	0.43585 0.31597 0.00376 0.01100
C 	C 	0.45187 0.33235 0.05106 -0.04200
C 	C 	0.45653 0.36871 0.05008 -0.04300
C 	C 	0.54362 0.44099 0.01878 -0.04800
H 	H 	0.57244 0.59207 0.95965 0.04300
H 	H 	0.58562 0.65497 0.96702 0.02600
H 	H 	0.53177 0.66188 0.13223 0.03400
H 	H 	0.52221 0.59789 0.12823 0.04100
H 	H 	0.34644 0.56430 0.89512 0.03600
H 	H 	0.40192 0.53060 0.91193 0.03700
H 	H 	0.30278 0.51601 0.04757 0.03800
H 	H 	0.35913 0.48466 0.06722 0.03700
H 	H 	0.42340 0.38747 0.91463 0.03900
H 	H 	0.41173 0.32409 0.91913 0.03800
H 	H 	0.46754 0.38133 0.08785 0.04000
H 	H 	0.45986 0.31705 0.08918 0.03800
H 	H 	0.61816 0.47648 0.12909 0.03900
H 	H 	0.68093 0.46088 0.12145 0.03600
H 	H 	0.60887 0.46977 0.94158 0.04000
H 	H 	0.67146 0.45332 0.93418 0.03700
H 	H 	0.42530 0.55470 0.02449 0.04000
H 	H 	0.47973 0.58363 0.03619 0.04200
H 	H 	0.59919 0.54365 0.05618 0.04100
H 	H 	0.56746 0.42478 0.02003 0.04300
H 	H 	0.51353 0.39684 0.99773 0.03000
H 	H 	0.39330 0.43578 0.99020 0.04600
Zn	Zn	0.36985 0.11006 0.03376 1.22200
C 	C 	0.30786 0.06979 0.04184 0.32300
O 	O 	0.39561 0.10177 0.10737 -0.46000
O 	O 	0.32673 0.04217 0.02365 -0.44600
O 	O 	0.37021 0.05059 0.12918 -0.50200
C 	C 	0.38741 0.06295 0.93947 0.35000
O 	O 	0.36790 0.09065 0.95487 -0.45400
O 	O 	0.40154 0.04209 0.97947 -0.52000
C 	C 	0.38763 0.07769 0.14575 0.33700
O 	O 	0.41602 0.14451 0.00196 -0.32500
Zn	Zn	0.37694 0.03163 0.05133 1.17200
O 	O 	0.32294 0.09844 0.05905 -0.44300
C 	C 	0.39488 0.17131 0.01318 0.28400
O 	O 	0.36411 0.16354 0.03026 -0.39200
C 	C 	0.49783 0.96873 0.57513 0.01000
C 	C 	0.46997 0.99462 0.57654 0.01100
C 	C 	0.52397 0.97074 0.53247 -0.05500
C 	C 	0.52231 0.99794 0.49057 0.01100
C 	C 	0.46860 0.02209 0.53521 -0.05500
C 	C 	0.49437 0.02371 0.49182 0.00900
H 	H 	0.44748 0.04193 0.53649 0.04900
H 	H 	0.54532 0.95115 0.53163 0.05000
C 	C 	0.49279 0.05042 0.44868 -0.01200
C 	C 	0.51692 0.05054 0.40249 0.00800
C 	C 	0.50332 0.06749 0.35107 -0.04900
C 	C 	0.46841 0.07917 0.35629 0.01200
S 	S 	0.45577 0.06936 0.42382 -0.01300
H 	H 	0.51648 0.06654 0.30926 0.04800
C 	C 	0.54800 0.00018 0.44686 -0.01500
C 	C 	0.54500 0.02545 0.40203 0.01100
C 	C 	0.56401 0.01526 0.35071 -0.05700
C 	C 	0.58082 0.98182 0.35500 0.01600
S 	S 	0.57173 0.96577 0.42086 -0.00500
H 	H 	0.56219 0.02955 0.30980 0.04500
C 	C 	0.47343 0.93999 0.66121 0.00800
C 	C 	0.49825 0.94089 0.61627 -0.01200
S 	S 	0.53415 0.91911 0.63999 -0.01500
C 	C 	0.51951 0.90651 0.70527 0.01600
C 	C 	0.48538 0.92043 0.71111 -0.05200
C 	C 	0.44358 0.99163 0.61892 -0.01300
C 	C 	0.44579 0.96546 0.66236 0.01000
C 	C 	0.42609 0.97459 0.71337 -0.05300
C 	C 	0.40921 0.00798 0.70993 0.01300
S 	S 	0.41927 0.02549 0.64549 -0.00700
H 	H 	0.42746 0.95960 0.75362 0.04500
H 	H 	0.47158 0.92024 0.75231 0.05200
Zn	Zn	0.61362 0.87192 0.03469 1.22200
C 	C 	0.66992 0.91854 0.01826 0.32100
O 	O 	0.61747 0.89124 0.11416 -0.45100
O 	O 	0.64961 0.94280 0.04353 -0.45100
O 	O 	0.57783 0.93581 0.09432 -0.50500
C 	C 	0.58945 0.90273 0.92549 0.33700
O 	O 	0.58431 0.87852 0.96530 -0.48200
O 	O 	0.60228 0.93278 0.94083 -0.49300
C 	C 	0.59562 0.91643 0.13231 0.34600
O 	O 	0.57146 0.83358 0.06903 -0.33000
Zn	Zn	0.59806 0.94973 0.02035 1.17300
O 	O 	0.65741 0.88831 0.00223 -0.43900
C 	C 	0.59539 0.80877 0.06171 0.28400
O 	O 	0.62513 0.81920 0.04379 -0.38900
Zn	Zn	0.11791 0.62126 0.96100 1.22100
C 	C 	0.06921 0.68063 0.97527 0.32500
O 	O 	0.11092 0.58988 0.02830 -0.46100
O 	O 	0.04634 0.66163 0.94858 -0.44900
O 	O 	0.05646 0.61176 0.04803 -0.50100
C 	C 	0.07830 0.60725 0.85881 0.35000
O 	O 	0.10129 0.62786 0.88108 -0.45600
O 	O 	0.05866 0.58911 0.89345 -0.51900
C 	C 	0.08496 0.59458 0.06507 0.33800
O 	O 	0.15857 0.57868 0.92369 -0.33600
Zn	Zn	0.04178 0.60890 0.96717 1.16700
O 	O 	0.09886 0.66599 0.99346 -0.44200
C 	C 	0.18182 0.60061 0.93892 0.28000
O 	O 	0.16974 0.62939 0.96352 -0.38900
C 	C 	0.00509 0.53634 0.50398 0.01300
C 	C 	0.97942 0.51083 0.50924 0.00900
C 	C 	0.03069 0.53263 0.46029 -0.05400
C 	C 	0.03084 0.50381 0.42160 0.01000
C 	C 	0.98050 0.48119 0.47226 -0.05500
C 	C 	0.00595 0.47760 0.42820 0.01300
H 	H 	0.96140 0.46129 0.47719 0.05100
H 	H 	0.05012 0.55227 0.45599 0.05000
C 	C 	0.00658 0.44873 0.38908 -0.01700
C 	C 	0.03027 0.44654 0.34205 0.00900
C 	C 	0.01737 0.42784 0.29304 -0.05600
C 	C 	0.98339 0.41709 0.30038 0.00800
S 	S 	0.97089 0.42898 0.36768 0.00700
H 	H 	0.03002 0.42704 0.25080 0.04400
C 	C 	0.05567 0.50021 0.37637 -0.01300
C 	C 	0.05574 0.47188 0.33685 0.00700
C 	C 	0.07279 0.47936 0.28309 -0.05000
C 	C 	0.08363 0.51401 0.27914 0.01100
S 	S 	0.07305 0.53404 0.34200 -0.00400
H 	H 	0.07534 0.46091 0.24718 0.04300
C 	C 	0.97737 0.57056 0.58402 0.00900
C 	C 	0.00364 0.56590 0.54154 -0.01500
S 	S 	0.03867 0.58516 0.56683 0.00500
C 	C 	0.02209 0.60143 0.62919 0.01000
C 	C 	0.98754 0.59172 0.63210 -0.05600
C 	C 	0.95235 0.51655 0.55024 -0.01100
C 	C 	0.95138 0.54574 0.58806 0.00700
C 	C 	0.93134 0.54026 0.63955 -0.05600
C 	C 	0.91780 0.50670 0.64244 0.01700
S 	S 	0.93099 0.48462 0.58276 -0.01400
H 	H 	0.93012 0.55827 0.67621 0.04500
H 	H 	0.97226 0.59524 0.67153 0.04200
Zn	Zn	0.89047 0.40905 0.96951 1.21900
C 	C 	0.82935 0.45139 0.99918 0.31100
O 	O 	0.91204 0.42955 0.90019 -0.46700
O 	O 	0.84884 0.47385 0.02609 -0.44400
O 	O 	0.88595 0.48394 0.91249 -0.50200
C 	C 	0.91533 0.43188 0.08023 0.35200
O 	O 	0.89328 0.41166 0.05444 -0.46000
O 	O 	0.92596 0.46008 0.05354 -0.51400
C 	C 	0.90052 0.45981 0.87820 0.33600
O 	O 	0.93653 0.36603 0.97462 -0.32900
Zn	Zn	0.89744 0.48529 0.99530 1.16500
O 	O 	0.84310 0.42924 0.96061 -0.44800
C 	C 	0.91411 0.34454 0.95465 0.28100
O 	O 	0.88325 0.35833 0.94561 -0.39700
C 	C 	0.92148 0.02752 0.00116 -0.02700
C 	C 	0.93808 0.05936 0.00554 -0.04900
C 	C 	0.94097 0.99530 0.99590 -0.00700
C 	C 	0.97771 0.99561 0.99313 -0.00000
C 	C 	0.99452 0.02795 0.99731 -0.01800
C 	C 	0.97460 0.06003 0.00285 0.02000
C 	C 	0.99767 0.96367 0.98553 0.00100
C 	C 	0.03388 0.96484 0.97719 -0.04000
C 	C 	0.03125 0.02817 0.99514 0.00500
C 	C 	0.99170 0.09225 0.00604 -0.01600
C 	C 	0.02798 0.09185 0.01003 -0.04200
C 	C 	0.04797 0.06023 0.00479 -0.00600
C 	C 	0.92449 0.96264 0.99325 -0.00400
C 	C 	0.94462 0.93108 0.98907 -0.05100
C 	C 	0.98088 0.93121 0.98520 -0.00600
C 	C 	0.97237 0.12664 0.00023 0.02600
C 	C 	0.95815 0.13687 0.94597 -0.05900
C 	C 	0.94452 0.17128 0.93777 -0.03200
C 	C 	0.94529 0.19582 0.98357 -0.01000
C 	C 	0.95882 0.18539 0.03820 -0.02600
C 	C 	0.97195 0.15082 0.04669 -0.05400
C 	C 	0.08632 0.06121 0.01009 0.01900
C 	C 	0.10387 0.04270 0.05529 -0.04500
C 	C 	0.13997 0.04399 0.06044 -0.04100
C 	C 	0.10496 0.08267 0.97235 -0.05100
C 	C 	0.14078 0.08530 0.97937 -0.04600
C 	C 	0.15863 0.06488 0.02188 0.01000
C 	C 	0.88618 0.96084 0.99416 0.00400
C 	C 	0.86789 0.96520 0.04702 -0.04000
C 	C 	0.83238 0.95907 0.04934 -0.03000
C 	C 	0.81528 0.94699 0.99950 -0.01400
C 	C 	0.83331 0.94364 0.94631 -0.03600
C 	C 	0.86860 0.95060 0.94362 -0.04600
C 	C 	0.00085 0.89701 0.98267 0.00500
C 	C 	0.99732 0.87476 0.93423 -0.04500
C 	C 	0.01232 0.84054 0.93501 -0.04000
C 	C 	0.03188 0.82865 0.98344 -0.00200
C 	C 	0.03628 0.85123 0.03120 -0.03500
C 	C 	0.02053 0.88517 0.03108 -0.03800
C 	C 	0.05043 0.99669 0.98174 -0.04300
H 	H 	0.95858 0.11844 0.90974 0.04200
H 	H 	0.93429 0.17919 0.89536 0.03400
H 	H 	0.95975 0.20427 0.07367 0.03500
H 	H 	0.98294 0.14317 0.08869 0.04200
H 	H 	0.82013 0.93500 0.90735 0.03400
H 	H 	0.88253 0.94710 0.90267 0.03800
H 	H 	0.81842 0.96256 0.09026 0.03600
H 	H 	0.88128 0.97291 0.08633 0.04000
H 	H 	0.98194 0.88358 0.89688 0.03800
H 	H 	0.00789 0.82291 0.89877 0.03600
H 	H 	0.02310 0.90204 0.06893 0.04000
H 	H 	0.05106 0.84211 0.06903 0.03800
H 	H 	0.08960 0.02698 0.08586 0.04100
H 	H 	0.15344 0.02874 0.09425 0.03700
H 	H 	0.09161 0.09756 0.93798 0.03900
H 	H 	0.15484 0.10236 0.95062 0.03800
H 	H 	0.89338 0.02815 0.00207 0.03900
H 	H 	0.92235 0.08346 0.01168 0.04300
H 	H 	0.04082 0.11651 0.01555 0.04300
H 	H 	0.07810 0.99681 0.97350 0.03800
H 	H 	0.04932 0.94121 0.96617 0.03800
H 	H 	0.93190 0.90612 0.98875 0.04200
C 	C 	0.92076 0.30602 0.95666 -0.09300
C 	C 	0.95136 0.28997 0.93228 0.06000
C 	C 	0.95876 0.25383 0.94137 -0.08200
C 	C 	0.93563 0.23330 0.97244 0.01400
C 	C 	0.90403 0.24889 0.99372 -0.01600
C 	C 	0.89689 0.28517 0.98550 -0.01400
H 	H 	0.98268 0.24162 0.92424 0.04800
H 	H 	0.87294 0.29733 0.00258 0.04100
C 	C 	0.97613 0.31080 0.89571 -0.07300
C 	C 	0.87674 0.22681 0.02189 -0.03800
C 	C 	0.00754 0.32106 0.93158 -0.13600
H 	H 	0.96313 0.33483 0.87649 0.04900
H 	H 	0.98547 0.29447 0.85796 0.03900
H 	H 	0.99927 0.33646 0.97087 0.07300
H 	H 	0.02444 0.33747 0.90438 0.05300
H 	H 	0.02292 0.29707 0.94575 0.05400
C 	C 	0.85360 0.21084 0.97566 -0.15200
H 	H 	0.86012 0.24341 0.05182 0.03200
H 	H 	0.88872 0.20545 0.04942 0.03700
H 	H 	0.84030 0.23203 0.94925 0.05700
H 	H 	0.83355 0.19526 0.99744 0.05100
H 	H 	0.86919 0.19302 0.94621 0.05900
C 	C 	0.91169 0.48918 0.69868 -0.00700
C 	C 	0.87921 0.49368 0.72652 0.09100
C 	C 	0.87550 0.48315 0.78490 -0.02500
C 	C 	0.90355 0.46664 0.81492 -0.13300
C 	C 	0.93517 0.45920 0.78521 0.16400
C 	C 	0.93943 0.47158 0.72790 -0.10800
H 	H 	0.85093 0.48838 0.80712 0.05100
H 	H 	0.96460 0.46836 0.70681 0.06200
O 	O 	0.85196 0.51167 0.69862 -0.19400
O 	O 	0.96324 0.44354 0.81445 -0.21400
C 	C 	0.83194 0.48685 0.66958 -0.02300
H 	H 	0.84742 0.47206 0.63564 0.03900
H 	H 	0.81017 0.50126 0.64684 0.04000
H 	H 	0.82033 0.46826 0.70105 0.03600
C 	C 	0.96555 0.40733 0.79997 -0.01500
H 	H 	0.94109 0.39396 0.81012 0.04500
H 	H 	0.98649 0.39430 0.82666 0.03800
H 	H 	0.97269 0.40342 0.75313 0.03200
C 	C 	0.92659 0.42426 0.14051 -0.13600
C 	C 	0.94707 0.39356 0.15345 0.17000
C 	C 	0.96370 0.39035 0.20792 -0.11100
C 	C 	0.95911 0.41690 0.25034 0.00000
C 	C 	0.93631 0.44643 0.23868 0.08800
C 	C 	0.91966 0.44942 0.18427 -0.02000
H 	H 	0.98144 0.36788 0.21618 0.06500
H 	H 	0.90232 0.47210 0.17538 0.03700
O 	O 	0.95437 0.36869 0.11045 -0.20200
O 	O 	0.92788 0.47074 0.28211 -0.19000
C 	C 	0.93181 0.34072 0.11766 -0.02100
H 	H 	0.93562 0.32748 0.16085 0.03500
H 	H 	0.93797 0.32060 0.08357 0.05000
H 	H 	0.90412 0.34978 0.11186 0.04700
C 	C 	0.94815 0.50051 0.27476 -0.02800
H 	H 	0.97629 0.49366 0.28043 0.05200
H 	H 	0.94073 0.52004 0.30919 0.04500
H 	H 	0.94325 0.51354 0.23169 0.03600
C 	C 	0.06200 0.71867 0.98324 -0.11100
C 	C 	0.03388 0.73140 0.01836 0.06900
C 	C 	0.02518 0.76771 0.01940 -0.07400
C 	C 	0.04442 0.79138 0.98693 0.00500
C 	C 	0.07441 0.77895 0.95605 -0.00900
C 	C 	0.08257 0.74252 0.95373 0.00300
H 	H 	0.00316 0.77759 0.04516 0.04700
H 	H 	0.10474 0.73270 0.92826 0.03300
C 	C 	0.01462 0.70690 0.05815 -0.07100
C 	C 	0.09818 0.80412 0.92599 -0.05200
C 	C 	0.03535 0.69854 0.11376 -0.14100
H 	H 	0.00891 0.68197 0.03546 0.03000
H 	H 	0.98896 0.71923 0.07083 0.03500
H 	H 	0.06061 0.68475 0.10307 0.07400
H 	H 	0.02039 0.68107 0.14243 0.05500
H 	H 	0.04018 0.72322 0.13801 0.05800
C 	C 	0.09159 0.80555 0.86016 -0.14300
H 	H 	0.12569 0.79512 0.93356 0.03600
H 	H 	0.09537 0.83120 0.94440 0.03800
H 	H 	0.09669 0.77911 0.84024 0.05400
H 	H 	0.10926 0.82431 0.83960 0.05200
H 	H 	0.06439 0.81468 0.85081 0.05700
C 	C 	0.04316 0.60409 0.68260 -0.00100
C 	C 	0.05802 0.57338 0.70929 0.08900
C 	C 	0.07349 0.57565 0.76459 -0.02100
C 	C 	0.07163 0.60753 0.79557 -0.13700
C 	C 	0.05821 0.63849 0.76806 0.16800
C 	C 	0.04377 0.63653 0.71188 -0.11100
H 	H 	0.08504 0.55208 0.78484 0.04400
H 	H 	0.03169 0.66001 0.69216 0.06400
O 	O 	0.05904 0.54147 0.67987 -0.19000
O 	O 	0.05482 0.66974 0.79911 -0.20700
C 	C 	0.03240 0.52063 0.70154 -0.02500
H 	H 	0.03906 0.51028 0.74586 0.03600
H 	H 	0.02997 0.49764 0.67206 0.04300
H 	H 	0.00657 0.53502 0.70254 0.03700
C 	C 	0.08329 0.69039 0.78555 -0.01700
H 	H 	0.10861 0.67632 0.79555 0.04700
H 	H 	0.08158 0.71450 0.81308 0.04000
H 	H 	0.08250 0.69903 0.73899 0.03300
C 	C 	0.08491 0.57437 0.12031 -0.13600
C 	C 	0.11535 0.56971 0.15434 0.17100
C 	C 	0.11435 0.55062 0.20702 -0.10900
C 	C 	0.08434 0.53338 0.22313 -0.00100
C 	C 	0.05452 0.53649 0.18730 0.08900
C 	C 	0.05438 0.55870 0.13827 -0.02400
H 	H 	0.13707 0.54895 0.23500 0.06500
H 	H 	0.03079 0.56252 0.11279 0.02500
O 	O 	0.14494 0.58706 0.13953 -0.20200
O 	O 	0.02457 0.51992 0.20274 -0.19900
C 	C 	0.16917 0.56261 0.11393 -0.02100
H 	H 	0.18022 0.54395 0.14734 0.03500
H 	H 	0.19096 0.57734 0.09573 0.04600
H 	H 	0.15783 0.54772 0.07709 0.04900
C 	C 	0.02034 0.49110 0.16462 -0.02200
H 	H 	0.01129 0.50046 0.12086 0.02500
H 	H 	0.99996 0.47446 0.18261 0.04000
H 	H 	0.04442 0.47392 0.16000 0.03200
C 	C 	0.70706 0.92477 0.00962 -0.09900
C 	C 	0.71789 0.95458 0.97824 0.06200
C 	C 	0.75332 0.96173 0.97658 -0.09200
C 	C 	0.77819 0.93861 0.00262 0.02700
C 	C 	0.76757 0.90738 0.03020 -0.01000
C 	C 	0.73199 0.90100 0.03391 0.00100
H 	H 	0.76161 0.98513 0.95416 0.04900
H 	H 	0.72370 0.87744 0.05585 0.03700
C 	C 	0.69222 0.97845 0.94485 -0.08100
C 	C 	0.79387 0.87939 0.05177 -0.05500
C 	C 	0.68304 0.01217 0.97907 -0.14100
H 	H 	0.66809 0.96494 0.93389 0.04300
H 	H 	0.70383 0.98580 0.90222 0.04300
H 	H 	0.67205 0.00593 0.02258 0.05200
H 	H 	0.66343 0.02856 0.95436 0.03900
H 	H 	0.70651 0.02774 0.98525 0.05200
C 	C 	0.80544 0.85452 0.00227 -0.12500
H 	H 	0.78230 0.86356 0.08718 0.03800
H 	H 	0.81694 0.89123 0.07138 0.04100
H 	H 	0.78274 0.84131 0.98377 0.04900
H 	H 	0.82420 0.83396 0.01945 0.05000
H 	H 	0.81836 0.86921 0.96698 0.05000
C 	C 	0.54230 0.89949 0.75638 -0.00500
C 	C 	0.53203 0.87616 0.80054 0.09000
C 	C 	0.54840 0.87632 0.85525 -0.02900
C 	C 	0.57625 0.89819 0.86532 -0.13500
C 	C 	0.58962 0.91770 0.81840 0.16800
C 	C 	0.57193 0.91917 0.76485 -0.10800
H 	H 	0.53841 0.86055 0.89048 0.05000
H 	H 	0.58053 0.93672 0.73091 0.06700
O 	O 	0.50326 0.85621 0.79258 -0.19800
O 	O 	0.61809 0.93807 0.82648 -0.20500
C 	C 	0.51436 0.82342 0.76839 -0.02100
H 	H 	0.52693 0.82668 0.72491 0.03600
H 	H 	0.49123 0.80753 0.76152 0.03800
H 	H 	0.53208 0.80827 0.79862 0.03100
C 	C 	0.64836 0.91741 0.81274 -0.01800
H 	H 	0.65165 0.89414 0.84233 0.04000
H 	H 	0.67121 0.93376 0.81929 0.03800
H 	H 	0.64847 0.90890 0.76609 0.03300
C 	C 	0.59295 0.92496 0.19484 -0.13500
C 	C 	0.56009 0.92834 0.22183 0.17200
C 	C 	0.55653 0.94566 0.27574 -0.10900
C 	C 	0.58567 0.95887 0.30360 -0.00200
C 	C 	0.61887 0.95319 0.27863 0.09100
C 	C 	0.62247 0.93518 0.22519 -0.02300
H 	H 	0.53092 0.94993 0.29489 0.07000
H 	H 	0.64800 0.93131 0.20558 0.05100
O 	O 	0.53086 0.91782 0.19282 -0.20800
O 	O 	0.64806 0.96352 0.30802 -0.19100
C 	C 	0.52526 0.88254 0.20840 -0.02100
H 	H 	0.54741 0.86448 0.19472 0.04600
H 	H 	0.50183 0.87403 0.18507 0.04100
H 	H 	0.52020 0.87993 0.25617 0.03500
C 	C 	0.65698 0.99682 0.28657 -0.02400
H 	H 	0.66465 0.99536 0.23961 0.03400
H 	H 	0.67979 0.00551 0.31145 0.04100
H 	H 	0.63560 0.01720 0.29309 0.03600
C 	C 	0.26959 0.06973 0.03715 -0.09800
C 	C 	0.24753 0.08221 0.08319 0.06400
C 	C 	0.21131 0.08142 0.07638 -0.08100
C 	C 	0.19688 0.06591 0.02683 0.01400
C 	C 	0.21901 0.05155 0.98254 -0.01100
C 	C 	0.25498 0.05512 0.98700 -0.01100
H 	H 	0.19431 0.09222 0.11042 0.04800
H 	H 	0.27179 0.04566 0.95183 0.04700
C 	C 	0.26199 0.09584 0.14017 -0.07600
C 	C 	0.20512 0.02914 0.93361 -0.05300
C 	C 	0.26326 0.13605 0.13960 -0.13200
H 	H 	0.28813 0.08382 0.15013 0.05400
H 	H 	0.24511 0.08809 0.17710 0.03900
H 	H 	0.27896 0.14518 0.10224 0.07000
H 	H 	0.27520 0.14510 0.18084 0.05000
H 	H 	0.23657 0.14827 0.13629 0.05300
C 	C 	0.20096 0.99122 0.95397 -0.14200
H 	H 	0.22328 0.02875 0.89571 0.03800
H 	H 	0.17997 0.04013 0.91657 0.03900
H 	H 	0.22633 0.97935 0.96893 0.05200
H 	H 	0.19146 0.97525 0.91707 0.05100
H 	H 	0.18185 0.99038 0.99029 0.05500
C 	C 	0.39145 0.05377 0.87746 -0.13500
C 	C 	0.36408 0.03873 0.84682 0.17200
C 	C 	0.36889 0.02832 0.78842 -0.10900
C 	C 	0.40173 0.02944 0.76236 -0.00200
C 	C 	0.42892 0.04530 0.79244 0.09000
C 	C 	0.42374 0.05693 0.85018 -0.02000
H 	H 	0.34777 0.01670 0.76503 0.06500
H 	H 	0.44511 0.06768 0.87413 0.04300
O 	O 	0.33243 0.03437 0.87387 -0.20900
O 	O 	0.46174 0.04558 0.76796 -0.19200
C 	C 	0.33211 0.99959 0.89595 -0.00900
H 	H 	0.33450 0.97967 0.86021 0.02700
H 	H 	0.30681 0.99596 0.91779 0.03200
H 	H 	0.35281 0.99453 0.92928 0.00900
C 	C 	0.46633 0.07927 0.74369 -0.02400
H 	H 	0.44551 0.08705 0.71179 0.03900
H 	H 	0.49136 0.07852 0.71956 0.04200
H 	H 	0.46787 0.09959 0.77860 0.03600
C 	C 	0.44433 0.07784 0.30640 -0.00100
C 	C 	0.44036 0.04593 0.27588 0.08800
C 	C 	0.42089 0.04599 0.22419 -0.02200
C 	C 	0.40431 0.07728 0.20367 -0.13800
C 	C 	0.40612 0.10860 0.23655 0.17300
C 	C 	0.42653 0.10881 0.28738 -0.11000
H 	H 	0.41976 0.02189 0.19892 0.02700
H 	H 	0.42920 0.13328 0.31110 0.06600
O 	O 	0.45904 0.01559 0.29261 -0.19400
O 	O 	0.39068 0.13982 0.21607 -0.20700
C 	C 	0.43718 0.99437 0.32572 -0.02300
H 	H 	0.42562 0.00872 0.36404 0.03900
H 	H 	0.45302 0.97152 0.34300 0.04100
H 	H 	0.41635 0.98378 0.29793 0.03200
C 	C 	0.35667 0.14331 0.23889 -0.01800
H 	H 	0.34041 0.12150 0.22390 0.03500
H 	H 	0.34428 0.16834 0.22233 0.03400
H 	H 	0.35684 0.14486 0.28756 0.03200
C 	C 	0.42719 0.27836 0.00785 0.01400
C 	C 	0.44201 0.25269 0.96909 -0.01000
C 	C 	0.43060 0.21802 0.97102 -0.01500
C 	C 	0.40670 0.20795 0.01362 -0.08300
C 	C 	0.39522 0.23273 0.05684 0.06300
C 	C 	0.40390 0.26813 0.05122 -0.07900
H 	H 	0.44090 0.19864 0.93991 0.04100
H 	H 	0.39339 0.28758 0.08202 0.04900
C 	C 	0.47246 0.26084 0.92997 -0.05200
C 	C 	0.37596 0.22164 0.11131 -0.07600
C 	C 	0.50648 0.25897 0.96426 -0.14300
H 	H 	0.46889 0.28716 0.90917 0.03700
H 	H 	0.47465 0.24158 0.89333 0.03500
H 	H 	0.50591 0.27905 0.99964 0.05600
H 	H 	0.52841 0.26420 0.93437 0.05100
H 	H 	0.51103 0.23230 0.98375 0.05600
C 	C 	0.33688 0.22970 0.10567 -0.13200
H 	H 	0.38556 0.23633 0.14971 0.04400
H 	H 	0.38119 0.19334 0.12195 0.06400
H 	H 	0.33135 0.25866 0.10299 0.05400
H 	H 	0.32339 0.21946 0.14469 0.05200
H 	H 	0.32632 0.21711 0.06606 0.07100
C 	C 	0.28723 0.56152 0.95891 0.00800
C 	C 	0.27337 0.58803 0.99696 -0.00900
C 	C 	0.23917 0.60141 0.98856 -0.01800
C 	C 	0.21917 0.58981 0.94158 -0.08900
C 	C 	0.23474 0.56663 0.89945 0.05900
C 	C 	0.26817 0.55170 0.90981 -0.07900
H 	H 	0.22800 0.62067 0.01905 0.05100
H 	H 	0.27948 0.53252 0.87929 0.04700
C 	C 	0.29567 0.60446 0.04333 -0.05300
C 	C 	0.21698 0.55896 0.84196 -0.07300
C 	C 	0.31837 0.63226 0.01665 -0.12500
H 	H 	0.31236 0.58427 0.06626 0.04000
H 	H 	0.27899 0.61724 0.07772 0.03800
H 	H 	0.33657 0.62011 0.98392 0.05000
H 	H 	0.33385 0.64439 0.05164 0.05100
H 	H 	0.30195 0.65335 0.99519 0.05000
C 	C 	0.20178 0.52243 0.84240 -0.13400
H 	H 	0.23629 0.55988 0.80585 0.04100
H 	H 	0.19636 0.57930 0.83103 0.05400
H 	H 	0.22290 0.50159 0.84588 0.05300
H 	H 	0.18742 0.51841 0.80101 0.05500
H 	H 	0.18356 0.51970 0.87961 0.06900
C 	C 	0.71880 0.45649 0.02150 0.01300
C 	C 	0.73658 0.48724 0.00710 -0.01500
C 	C 	0.77284 0.48502 0.00088 0.01100
C 	C 	0.79157 0.45288 0.00907 -0.10200
C 	C 	0.77397 0.42251 0.02625 0.06500
C 	C 	0.73760 0.42452 0.03108 -0.08000
H 	H 	0.78652 0.50844 0.98941 0.01900
H 	H 	0.72392 0.40117 0.04294 0.04900
C 	C 	0.71754 0.52300 0.00164 -0.03200
C 	C 	0.79355 0.38800 0.04074 -0.06700
C 	C 	0.71553 0.54191 0.06057 -0.15000
H 	H 	0.69097 0.52086 0.98378 0.03100
H 	H 	0.73139 0.53976 0.97010 0.02500
H 	H 	0.70110 0.52636 0.09292 0.05900
H 	H 	0.70171 0.56805 0.05519 0.05400
H 	H 	0.74206 0.54607 0.07752 0.05600
C 	C 	0.79331 0.36241 0.98919 -0.15400
H 	H 	0.78109 0.37547 0.07893 0.04000
H 	H 	0.82078 0.39210 0.05412 0.04800
H 	H 	0.76631 0.35512 0.97942 0.05600
H 	H 	0.80896 0.33801 0.00032 0.06400
H 	H 	0.80462 0.37434 0.94955 0.07400
C 	C 	0.58671 0.77139 0.05829 -0.09200
C 	C 	0.56340 0.75958 0.01537 0.06800
C 	C 	0.55382 0.72430 0.01621 -0.07400
C 	C 	0.56927 0.70002 0.05570 0.01100
C 	C 	0.59480 0.71127 0.09544 -0.00600
C 	C 	0.60239 0.74715 0.09749 -0.00600
H 	H 	0.53544 0.71531 0.98419 0.04200
H 	H 	0.62108 0.75608 0.12905 0.03500
C 	C 	0.55221 0.78286 0.96412 -0.08700
C 	C 	0.61496 0.68537 0.13466 -0.05300
C 	C 	0.58064 0.78310 0.91751 -0.13100
H 	H 	0.54540 0.81027 0.97823 0.05900
H 	H 	0.52825 0.77307 0.94382 0.04300
H 	H 	0.60470 0.79397 0.93546 0.06200
H 	H 	0.57178 0.79990 0.88022 0.05400
H 	H 	0.58658 0.75592 0.90109 0.05200
C 	C 	0.60158 0.68730 0.19755 -0.14300
H 	H 	0.64284 0.69183 0.13456 0.03700
H 	H 	0.61429 0.65777 0.11876 0.04000
H 	H 	0.60526 0.71391 0.21624 0.05600
H 	H 	0.61629 0.66750 0.22474 0.05200
H 	H 	0.57361 0.68163 0.19948 0.05600
