data_crystal

_cell_length_a 17.83852
_cell_length_b 16.92654
_cell_length_c 46.89710
_cell_angle_alpha 90.72568
_cell_angle_beta  91.02583
_cell_angle_gamma 110.87905

_symmetry_space_group_name_	'P 1'
_symmetry_space_group_name_H-M	'P 1'

loop_
_symmetry_equiv_pos_as_xyz
  x,y,z

loop_
_atom_site_label
_atom_site_type_symbol
_atom_site_fract_x
_atom_site_fract_y
_atom_site_fract_z
_atom_site_charge
O 	O 	0.07731 0.87946 0.75998 -0.69800
Ni	Ni	0.10585 0.99204 0.78045 1.09800
O 	O 	0.11453 0.76658 0.71905 -0.40100
Ni	Ni	0.17646 0.87021 0.74602 1.06900
O 	O 	0.17765 0.96300 0.71856 -0.42600
O 	O 	0.19187 0.98110 0.80762 -0.39400
O 	O 	0.02105 0.99981 0.75226 -0.71200
O 	O 	0.10522 0.09808 0.80230 -0.36100
H 	H 	0.04911 0.83204 0.77248 0.15800
H 	H 	0.04008 0.05241 0.74118 0.18000
C 	C 	0.20723 0.04296 0.72723 0.30200
C 	C 	0.04391 0.75214 0.70649 0.31700
C 	C 	0.25872 0.97670 0.79778 0.30600
C 	C 	0.03633 0.10106 0.81088 0.29500
O 	O 	0.19295 0.06572 0.75327 -0.36600
O 	O 	0.26351 0.95861 0.77056 -0.41800
Ni	Ni	0.33601 0.79978 0.41098 1.10000
O 	O 	0.34543 0.70887 0.38292 -0.69600
Ni	Ni	0.23717 0.67625 0.36300 1.09700
O 	O 	0.42725 0.80170 0.43853 -0.34800
O 	O 	0.44120 0.67545 0.42972 -0.38900
O 	O 	0.41800 0.89441 0.38872 -0.35900
Ni	Ni	0.34814 0.60666 0.40186 1.06800
O 	O 	0.30551 0.96406 0.39624 -0.39600
O 	O 	0.26408 0.61310 0.42976 -0.41300
O 	O 	0.24398 0.57838 0.33894 -0.39500
O 	O 	0.23521 0.77505 0.38783 -0.71000
O 	O 	0.31931 0.89121 0.43573 -0.36700
O 	O 	0.13068 0.66605 0.34305 -0.36300
O 	O 	0.18043 0.80481 0.33082 -0.41800
Ni	Ni	0.24607 0.87546 0.36558 1.06500
H 	H 	0.38923 0.73019 0.36921 0.16100
H 	H 	0.18783 0.76018 0.40012 0.16200
C 	C 	0.19121 0.60495 0.42095 0.24400
O 	O 	0.34945 0.88054 0.34633 -0.41700
C 	C 	0.43450 0.73212 0.44793 0.25900
C 	C 	0.25036 0.51158 0.35102 0.31100
C 	C 	0.41747 0.89850 0.36080 0.30200
C 	C 	0.11899 0.73408 0.33414 0.29600
C 	C 	0.29815 0.95091 0.42401 0.25000
O 	O 	0.17141 0.59517 0.39349 -0.36100
O 	O 	0.26321 0.51187 0.37886 -0.41000
Ni	Ni	0.37503 0.67059 0.13179 1.09800
O 	O 	0.27632 0.62734 0.10436 -0.69700
Ni	Ni	0.20868 0.69070 0.12033 1.09700
O 	O 	0.42600 0.58669 0.11771 -0.35100
O 	O 	0.31402 0.47027 0.10995 -0.39200
O 	O 	0.43884 0.74872 0.10046 -0.36400
Ni	Ni	0.21416 0.50574 0.10683 1.06600
O 	O 	0.48288 0.85470 0.14404 -0.39100
O 	O 	0.21278 0.51724 0.15007 -0.40800
O 	O 	0.11368 0.64444 0.09249 -0.37600
O 	O 	0.30874 0.73643 0.14638 -0.70200
O 	O 	0.47090 0.72318 0.15919 -0.37500
O 	O 	0.15848 0.77280 0.13706 -0.36500
O 	O 	0.27009 0.88990 0.13154 -0.39700
Ni	Ni	0.36984 0.85648 0.13852 1.07200
H 	H 	0.28907 0.64199 0.08423 0.14800
H 	H 	0.29705 0.72677 0.16687 0.15800
C 	C 	0.16155 0.54567 0.16225 0.30400
O 	O 	0.36992 0.83801 0.09556 -0.40400
C 	C 	0.38494 0.52037 0.10196 0.25500
C 	C 	0.08440 0.56356 0.08553 0.25600
C 	C 	0.40770 0.79212 0.08421 0.25700
C 	C 	0.20193 0.85151 0.14403 0.29600
O 	O 	0.14391 0.60815 0.15091 -0.37000
O 	O 	0.10118 0.50845 0.10163 -0.40000
O 	O 	0.07907 0.19892 0.26153 -0.38000
O 	O 	0.12287 0.06214 0.24879 -0.38900
O 	O 	0.04558 0.08831 0.21311 -0.36700
O 	O 	0.99153 0.96095 0.31933 -0.41100
Ni	Ni	0.05091 0.01300 0.28251 1.07700
O 	O 	0.07618 0.12704 0.30258 -0.40100
C 	C 	0.09521 0.19842 0.28897 0.30500
C 	C 	0.09537 0.05144 0.22203 0.29700
C 	C 	0.10842 0.49348 0.18402 -0.10200
C 	C 	0.02482 0.47013 0.18060 -0.06200
C 	C 	0.97300 0.40350 0.19622 0.17500
C 	C 	0.00480 0.35980 0.21548 -0.10700
C 	C 	0.08790 0.38906 0.22104 -0.05900
C 	C 	0.13968 0.45592 0.20553 0.16600
H 	H 	0.00002 0.49983 0.16450 0.07600
O 	O 	0.89183 0.37675 0.19086 -0.27800
O 	O 	0.22101 0.48131 0.21035 -0.28000
H 	H 	0.87179 0.40991 0.20432 0.14900
C 	C 	0.16900 0.90011 0.16296 -0.10600
C 	C 	0.14518 0.87048 0.19032 -0.06600
C 	C 	0.12193 0.92011 0.20980 0.16800
C 	C 	0.12245 0.00034 0.20196 -0.11000
C 	C 	0.14436 0.02917 0.17433 -0.05000
C 	C 	0.16731 0.97927 0.15480 0.16100
H 	H 	0.14622 0.80953 0.19670 0.05800
O 	O 	0.09913 0.89032 0.23655 -0.32200
H 	H 	0.14392 0.09039 0.16802 0.07000
O 	O 	0.18922 0.00848 0.12791 -0.27400
H 	H 	0.13892 0.98782 0.11618 0.14700
H 	H 	0.04045 0.85918 0.23480 0.14300
C 	C 	0.21538 0.42967 0.33577 -0.10700
C 	C 	0.15319 0.36404 0.34821 -0.05600
C 	C 	0.11215 0.28961 0.33271 0.16300
C 	C 	0.13517 0.27876 0.30477 -0.11000
C 	C 	0.19820 0.34387 0.29243 -0.06100
C 	C 	0.23761 0.41960 0.30767 0.16700
H 	H 	0.13460 0.37196 0.36961 0.06900
O 	O 	0.04943 0.22748 0.34489 -0.28300
H 	H 	0.21710 0.33563 0.27111 0.07000
O 	O 	0.29948 0.48252 0.29542 -0.29200
H 	H 	0.27372 0.51672 0.28478 0.15100
C 	C 	0.92490 0.81162 0.32175 -0.11600
C 	C 	0.93961 0.78885 0.34933 -0.05600
C 	C 	0.99748 0.75166 0.35374 0.15400
C 	C 	0.03713 0.73374 0.33024 -0.11100
C 	C 	0.00717 0.73735 0.30263 -0.06400
C 	C 	0.94823 0.77328 0.29848 0.15800
H 	H 	0.91564 0.81126 0.36752 0.05800
O 	O 	0.01921 0.73860 0.38100 -0.28500
H 	H 	0.03407 0.71904 0.28436 0.06000
O 	O 	0.92366 0.78321 0.27134 -0.31900
H 	H 	0.87457 0.73291 0.26749 0.15500
H 	H 	0.06123 0.79278 0.38725 0.10700
C 	C 	0.28986 0.01744 0.44256 0.00500
C 	C 	0.25200 0.99946 0.46857 -0.05200
H 	H 	0.22438 0.93607 0.47658 0.04800
C 	C 	0.07937 0.56367 0.48395 0.07600
C 	C 	0.95663 0.44710 0.47089 -0.08100
C 	C 	0.01780 0.52316 0.46435 0.01000
N 	N 	0.14649 0.60804 0.47031 -0.15400
C 	C 	0.12888 0.59513 0.44207 -0.00300
C 	C 	0.04927 0.54287 0.43752 -0.04000
H 	H 	0.90886 0.41554 0.45554 0.05500
H 	H 	0.02703 0.50304 0.41867 0.05700
H 	H 	0.20435 0.62523 0.47925 0.08500
C 	C 	0.53754 0.71480 0.51138 0.08000
N 	N 	0.53816 0.74807 0.48543 -0.15000
C 	C 	0.46059 0.73089 0.47764 0.00900
C 	C 	0.40956 0.68584 0.49855 -0.05300
H 	H 	0.66011 0.71816 0.51488 0.05400
H 	H 	0.34844 0.64330 0.49443 0.04100
H 	H 	0.58474 0.75899 0.47104 0.09400
C 	C 	0.27704 0.10002 0.71243 -0.09800
C 	C 	0.35216 0.09290 0.71705 -0.06200
C 	C 	0.41840 0.14208 0.70176 0.16700
C 	C 	0.40909 0.19566 0.68046 -0.10700
C 	C 	0.33491 0.20629 0.67679 -0.05100
C 	C 	0.26894 0.15902 0.69292 0.16600
H 	H 	0.35863 0.04686 0.73174 0.06000
O 	O 	0.49108 0.13284 0.70611 -0.31900
H 	H 	0.32725 0.24768 0.66045 0.06900
O 	O 	0.19582 0.16695 0.68833 -0.28900
H 	H 	0.19479 0.21175 0.70199 0.15000
H 	H 	0.51916 0.17540 0.72114 0.14400
C 	C 	0.94936 0.54735 0.02626 0.01100
N 	N 	0.00561 0.46371 0.04776 -0.15200
C 	C 	0.01768 0.53313 0.06446 -0.00100
C 	C 	0.98324 0.58633 0.05179 -0.03600
H 	H 	0.93240 0.65017 0.00328 0.05400
H 	H 	0.00312 0.65397 0.05580 0.05300
C 	C 	0.40728 0.89559 0.99026 -0.08200
C 	C 	0.41160 0.83381 0.00918 0.01200
N 	N 	0.48648 0.79497 0.04121 -0.15200
C 	C 	0.41690 0.79073 0.05321 -0.00700
C 	C 	0.36891 0.81428 0.03401 -0.05300
H 	H 	0.35640 0.91634 0.99011 0.05400
H 	H 	0.32359 0.83976 0.04009 0.04900
H 	H 	0.44954 0.04538 0.96203 0.09400
C 	C 	0.40029 0.35688 0.01911 -0.08500
C 	C 	0.43184 0.41888 0.04054 0.01200
C 	C 	0.42369 0.49611 0.07781 -0.00100
C 	C 	0.40567 0.41302 0.06827 -0.04500
H 	H 	0.37736 0.29037 0.02417 0.05600
H 	H 	0.35843 0.35880 0.07659 0.04900
C 	C 	0.47383 0.10973 0.84645 -0.11100
C 	C 	0.41096 0.04458 0.85894 -0.04700
C 	C 	0.34110 0.99972 0.84303 0.15300
C 	C 	0.33398 0.01930 0.81428 -0.09100
C 	C 	0.39731 0.08389 0.80173 -0.06300
C 	C 	0.46731 0.12839 0.81760 0.17000
H 	H 	0.41620 0.02880 0.88104 0.06800
O 	O 	0.28098 0.93515 0.85537 -0.29100
H 	H 	0.39137 0.10133 0.77992 0.06800
H 	H 	0.24614 0.96230 0.86437 0.15300
Ni	Ni	0.62032 0.27653 0.91403 1.09800
O 	O 	0.64133 0.35947 0.88132 -0.70800
Ni	Ni	0.74278 0.35172 0.86574 1.09900
O 	O 	0.52422 0.30511 0.92805 -0.36100
O 	O 	0.59530 0.44702 0.93084 -0.40400
O 	O 	0.53501 0.18372 0.88975 -0.37200
Ni	Ni	0.66876 0.47615 0.89555 1.06300
O 	O 	0.61022 0.09078 0.91322 -0.40000
O 	O 	0.75404 0.47002 0.92411 -0.40500
O 	O 	0.75535 0.43602 0.83404 -0.37600
O 	O 	0.72326 0.26977 0.89900 -0.70300
O 	O 	0.60533 0.19099 0.94554 -0.37600
O 	O 	0.83809 0.32515 0.85013 -0.36100
O 	O 	0.78337 0.18238 0.85382 -0.41100
Ni	Ni	0.69825 0.15265 0.88551 1.06500
H 	H 	0.59748 0.34402 0.86671 0.16200
H 	H 	0.76675 0.28637 0.91374 0.15600
C 	C 	0.82124 0.46313 0.91608 0.25800
O 	O 	0.61603 0.16043 0.85612 -0.42000
C 	C 	0.52710 0.38296 0.93278 0.25400
C 	C 	0.75678 0.51286 0.83976 0.30100
C 	C 	0.54523 0.15895 0.86385 0.30900
C 	C 	0.84691 0.25226 0.85391 0.30000
C 	C 	0.60559 0.11471 0.93985 0.25500
O 	O 	0.82997 0.44368 0.88951 -0.35500
O 	O 	0.75353 0.53749 0.86649 -0.41000
Ni	Ni	0.58795 0.34101 0.62249 1.10100
O 	O 	0.67625 0.36434 0.59281 -0.70100
Ni	Ni	0.74930 0.31354 0.61157 1.09900
O 	O 	0.54775 0.43460 0.60909 -0.35800
O 	O 	0.67595 0.52783 0.60867 -0.40600
O 	O 	0.50724 0.25806 0.59425 -0.36100
Ni	Ni	0.74115 0.47899 0.58231 1.07300
O 	O 	0.47871 0.16532 0.64097 -0.39500
O 	O 	0.84024 0.51289 0.60930 -0.38400
O 	O 	0.84864 0.36158 0.58661 -0.36700
O 	O 	0.65204 0.27407 0.63737 -0.70200
O 	O 	0.50068 0.30465 0.65209 -0.37600
O 	O 	0.79938 0.23719 0.63201 -0.36700
O 	O 	0.68595 0.12055 0.62375 -0.39600
Ni	Ni	0.58700 0.15478 0.63216 1.07100
H 	H 	0.65507 0.33215 0.57489 0.15300
H 	H 	0.66692 0.28816 0.65774 0.16100
C 	C 	0.84105 0.48595 0.63541 0.31900
O 	O 	0.56982 0.16231 0.58939 -0.40200
C 	C 	0.59925 0.50955 0.60273 0.24900
C 	C 	0.84637 0.39012 0.56054 0.26300
C 	C 	0.52271 0.20002 0.57912 0.25900
C 	C 	0.75635 0.15731 0.63675 0.29000
C 	C 	0.46957 0.22353 0.65834 0.29700
O 	O 	0.79927 0.40734 0.64178 -0.39400
O 	O 	0.79832 0.43154 0.55353 -0.40500
Ni	Ni	0.00699 0.89928 0.72740 1.10500
O 	O 	0.02283 0.81534 0.69868 -0.36900
O 	O 	0.90716 0.80642 0.74300 -0.36000
O 	O 	0.84978 0.93510 0.73358 -0.39600
O 	O 	0.93349 0.92521 0.69827 -0.36100
O 	O 	0.97076 0.03352 0.80872 -0.40700
Ni	Ni	0.91805 0.98405 0.76950 1.07500
O 	O 	0.90285 0.86902 0.78600 -0.41400
C 	C 	0.88916 0.80090 0.77015 0.31400
C 	C 	0.87800 0.95321 0.70760 0.29700
C 	C 	0.50108 0.80611 0.16259 0.29900
Ni	Ni	0.97551 0.11694 0.24214 1.10500
O 	O 	0.90776 0.13840 0.27451 -0.69800
Ni	Ni	0.86869 0.02158 0.29083 1.10000
O 	O 	0.96931 0.21000 0.21597 -0.36800
O 	O 	0.88502 0.26617 0.23719 -0.39300
Ni	Ni	0.81411 0.16015 0.25958 1.07100
O 	O 	0.80756 0.07090 0.22910 -0.42000
O 	O 	0.78515 0.03656 0.31724 -0.39600
O 	O 	0.95178 0.01065 0.26356 -0.70500
O 	O 	0.85776 0.90755 0.30858 -0.36400
H 	H 	0.93832 0.18184 0.28884 0.15800
H 	H 	0.92966 0.96063 0.25063 0.17400
C 	C 	0.77201 0.98991 0.23471 0.29600
C 	C 	0.95455 0.27579 0.22556 0.31500
C 	C 	0.72228 0.05045 0.30678 0.31000
C 	C 	0.92323 0.89659 0.31801 0.30000
O 	O 	0.78082 0.96031 0.26023 -0.36700
O 	O 	0.72108 0.07263 0.27995 -0.40800
H 	H 	0.11269 0.35722 0.23638 0.06600
H 	H 	0.23358 0.52646 0.22528 0.13900
C 	C 	0.56611 0.84557 0.18377 -0.10800
C 	C 	0.63224 0.81908 0.18579 -0.05200
C 	C 	0.69996 0.86571 0.20259 0.16700
C 	C 	0.70225 0.94021 0.21685 -0.09700
C 	C 	0.63517 0.96481 0.21555 -0.05700
C 	C 	0.56690 0.91715 0.19954 0.16800
H 	H 	0.63217 0.76400 0.17374 0.07200
O 	O 	0.76497 0.84051 0.20395 -0.29000
H 	H 	0.63576 0.02083 0.22715 0.05500
O 	O 	0.50172 0.94218 0.19855 -0.31600
H 	H 	0.46757 0.91271 0.21444 0.13400
H 	H 	0.75554 0.80248 0.22048 0.15200
C 	C 	0.64509 0.01507 0.32167 -0.10200
C 	C 	0.63413 0.95015 0.34135 -0.05600
C 	C 	0.55922 0.90998 0.35338 0.16600
C 	C 	0.49429 0.93525 0.34619 -0.10600
C 	C 	0.50516 0.00080 0.32688 -0.05700
C 	C 	0.58008 0.04092 0.31467 0.16700
H 	H 	0.68324 0.92929 0.34687 0.07300
O 	O 	0.54993 0.84680 0.37256 -0.28000
H 	H 	0.45599 0.02203 0.32178 0.05900
O 	O 	0.59052 0.10773 0.29696 -0.29600
H 	H 	0.57293 0.08197 0.27772 0.14800
H 	H 	0.53614 0.79414 0.36083 0.12800
H 	H 	0.00110 0.24100 0.33996 0.12900
C 	C 	0.36478 0.12905 0.52850 0.08400
C 	C 	0.29853 0.06663 0.51538 -0.08300
C 	C 	0.28725 0.07035 0.48581 0.01900
C 	C 	0.34495 0.12883 0.46950 0.07600
C 	C 	0.41431 0.18749 0.48258 -0.07900
C 	C 	0.42068 0.18960 0.51241 0.01100
N 	N 	0.39965 0.11582 0.55271 -0.15100
C 	C 	0.47712 0.16808 0.55262 0.00600
C 	C 	0.49268 0.21350 0.52761 -0.04400
N 	N 	0.34535 0.09650 0.44315 -0.15100
H 	H 	0.26198 0.01240 0.52720 0.05800
H 	H 	0.46468 0.22400 0.46992 0.05300
H 	H 	0.54429 0.27006 0.52406 0.03400
H 	H 	0.36890 0.08590 0.57062 0.09300
H 	H 	0.39515 0.11591 0.43000 0.09500
C 	C 	0.08090 0.53026 0.51108 -0.08100
C 	C 	0.01931 0.45457 0.51774 0.00700
C 	C 	0.95714 0.41464 0.49826 0.08100
N 	N 	0.88930 0.37365 0.51210 -0.15200
C 	C 	0.90703 0.38770 0.54030 0.00400
C 	C 	0.98757 0.43696 0.54459 -0.03600
H 	H 	0.12879 0.56179 0.52639 0.05400
H 	H 	0.01094 0.47763 0.56319 0.05500
H 	H 	0.83169 0.35947 0.50320 0.08600
C 	C 	0.49896 0.57881 0.54802 0.07400
C 	C 	0.43796 0.60675 0.53841 -0.08400
C 	C 	0.45891 0.67601 0.52019 0.01500
C 	C 	0.59872 0.68763 0.52144 -0.08600
C 	C 	0.57750 0.61805 0.53945 0.01500
N 	N 	0.49791 0.54224 0.57340 -0.15000
C 	C 	0.57532 0.56003 0.58161 -0.00300
C 	C 	0.62642 0.60587 0.56078 -0.07300
H 	H 	0.37660 0.57604 0.54498 0.05500
H 	H 	0.68974 0.64225 0.56399 0.03200
H 	H 	0.44930 0.52340 0.58708 0.09400
C 	C 	0.79112 0.10640 0.65406 -0.10800
C 	C 	0.82440 0.13650 0.68113 -0.06000
C 	C 	0.85209 0.08624 0.69880 0.16400
C 	C 	0.84789 0.00558 0.68923 -0.10300
C 	C 	0.81676 0.97630 0.66184 -0.06200
C 	C 	0.78852 0.02641 0.64421 0.17300
H 	H 	0.82749 0.19838 0.68871 0.06000
O 	O 	0.88640 0.11748 0.72495 -0.31300
H 	H 	0.81410 0.91459 0.65425 0.07100
O 	O 	0.75784 0.99684 0.61751 -0.28500
H 	H 	0.80431 0.01645 0.60471 0.15400
H 	H 	0.84135 0.10159 0.73840 0.12500
C 	C 	0.90000 0.54043 0.65644 -0.10600
C 	C 	0.87532 0.55350 0.68376 -0.05500
C 	C 	0.92646 0.61733 0.70186 0.16900
C 	C 	0.00230 0.66938 0.69246 -0.10600
C 	C 	0.02993 0.65060 0.66636 -0.05800
C 	C 	0.97935 0.58599 0.64843 0.17800
H 	H 	0.81524 0.51696 0.69047 0.05700
O 	O 	0.90032 0.63205 0.72801 -0.28600
H 	H 	0.08898 0.68914 0.65925 0.06400
O 	O 	0.00629 0.57017 0.62252 -0.28300
H 	H 	0.02947 0.52586 0.62613 0.15000
H 	H 	0.91758 0.59670 0.74144 0.14700
C 	C 	0.94788 0.55500 0.97506 0.07700
C 	C 	0.94287 0.59104 0.00173 -0.08300
C 	C 	0.96426 0.47228 0.02442 0.07700
C 	C 	0.96922 0.43601 0.99774 -0.08600
C 	C 	0.96146 0.47915 0.97314 0.01200
N 	N 	0.90638 0.56408 0.95192 -0.15100
C 	C 	0.89170 0.49400 0.93534 0.00700
C 	C 	0.92531 0.43980 0.94781 -0.04500
H 	H 	0.97971 0.37690 0.99621 0.05200
H 	H 	0.90294 0.37191 0.94416 0.03600
H 	H 	0.87110 0.60194 0.95153 0.08700
H 	H 	0.04264 0.42774 0.04819 0.06900
C 	C 	0.48393 0.82169 0.01441 0.07400
C 	C 	0.55328 0.86881 0.99984 -0.08700
C 	C 	0.54529 0.92089 0.97787 0.01800
C 	C 	0.47413 0.93568 0.97361 0.07300
N 	N 	0.48948 0.01279 0.96274 -0.14800
C 	C 	0.56982 0.04857 0.96043 0.01600
C 	C 	0.60637 0.99254 0.96905 -0.06800
H 	H 	0.61186 0.86968 0.00676 0.05300
H 	H 	0.66934 0.00999 0.97484 0.04300
H 	H 	0.53951 0.80324 0.05277 0.09400
C 	C 	0.40550 0.38300 0.99064 0.07600
C 	C 	0.46232 0.50408 0.03422 0.07700
C 	C 	0.46079 0.53074 0.00613 -0.08600
C 	C 	0.43240 0.46883 0.98435 0.01200
N 	N 	0.42360 0.33905 0.96940 -0.15100
C 	C 	0.46340 0.39577 0.94977 0.00500
C 	C 	0.46743 0.47653 0.95802 -0.04900
N 	N 	0.45814 0.55101 0.05705 -0.15300
H 	H 	0.48325 0.59741 0.00124 0.05400
H 	H 	0.51282 0.53429 0.95094 0.04300
H 	H 	0.43057 0.28083 0.97224 0.09700
H 	H 	0.45645 0.61203 0.05590 0.08600
C 	C 	0.92469 0.24545 0.84746 -0.10600
C 	C 	0.95841 0.26986 0.82071 -0.05000
C 	C 	0.01386 0.23610 0.81015 0.15300
C 	C 	0.03286 0.17562 0.82604 -0.10400
C 	C 	0.01415 0.16787 0.85504 -0.06100
C 	C 	0.95766 0.20013 0.86557 0.16600
H 	H 	0.93655 0.30873 0.80714 0.06800
O 	O 	0.03925 0.25190 0.78267 -0.29700
H 	H 	0.03416 0.12673 0.86822 0.06000
O 	O 	0.93260 0.18466 0.89311 -0.30000
H 	H 	0.88750 0.12945 0.89226 0.12300
H 	H 	0.09032 0.30106 0.78421 0.15300
O 	O 	0.52735 0.19310 0.80528 -0.30000
H 	H 	0.56281 0.16620 0.79657 0.14900
C 	C 	0.85953 0.71802 0.78363 -0.10800
C 	C 	0.90761 0.69907 0.80444 -0.05800
C 	C 	0.87493 0.62978 0.82204 0.16800
C 	C 	0.79344 0.57860 0.81891 -0.10000
C 	C 	0.74646 0.59415 0.79694 -0.06800
C 	C 	0.77944 0.66349 0.77916 0.17600
H 	H 	0.96952 0.74026 0.80782 0.04100
O 	O 	0.92277 0.61196 0.84231 -0.27600
H 	H 	0.68391 0.55413 0.79417 0.05200
O 	O 	0.73206 0.68067 0.75860 -0.28900
H 	H 	0.73881 0.65036 0.74116 0.16300
H 	H 	0.91967 0.64509 0.85956 0.15400
