data_crystal

_cell_length_a 30.71968
_cell_length_b 30.99603
_cell_length_c 39.97841
_cell_angle_alpha 95.54239
_cell_angle_beta  95.54510
_cell_angle_gamma 125.48390

_symmetry_space_group_name_	'P 1'
_symmetry_space_group_name_H-M	'P 1'

loop_
_symmetry_equiv_pos_as_xyz
  x,y,z

loop_
_atom_site_label
_atom_site_type_symbol
_atom_site_fract_x
_atom_site_fract_y
_atom_site_fract_z
_atom_site_charge
C 	C 	0.04790 0.02600 0.98624 0.12800
N 	N 	0.02473 0.05202 0.98979 -0.13700
C 	C 	0.03345 0.00946 0.45892 0.11500
N 	N 	0.00700 0.03225 0.45521 -0.13700
Cu	Cu	0.64230 0.25206 0.99866 0.92800
Cu	Cu	0.69141 0.25915 0.92827 0.87000
Cu	Cu	0.67749 0.34145 0.95739 0.89700
Cu	Cu	0.63971 0.34978 0.02233 0.89400
C 	C 	0.64884 0.28517 0.06986 0.28800
O 	O 	0.56220 0.21912 0.99511 -0.36400
C 	C 	0.66442 0.30903 0.88276 0.28900
O 	O 	0.68590 0.33612 0.00451 -0.64100
O 	O 	0.63968 0.26177 0.95049 -0.64100
O 	O 	0.67619 0.21343 0.99699 -0.37500
O 	O 	0.73938 0.27136 0.96776 -0.44400
O 	O 	0.62563 0.30815 0.06024 -0.38600
O 	O 	0.71800 0.41901 0.96742 -0.38400
C 	C 	0.71059 0.44642 0.99065 0.28900
C 	C 	0.54140 0.24230 0.98223 0.28200
O 	O 	0.57378 0.29336 0.97983 -0.39400
O 	O 	0.67244 0.42198 0.00936 -0.39500
O 	O 	0.65614 0.25701 0.04716 -0.36100
C 	C 	0.72298 0.23469 0.98700 0.31000
O 	O 	0.68210 0.34826 0.90905 -0.38900
O 	O 	0.66053 0.26528 0.88688 -0.42000
H 	H 	0.72404 0.35900 0.01706 0.16400
H 	H 	0.60277 0.24053 0.93622 0.17200
Cu	Cu	0.73554 0.34036 0.45768 0.92700
Cu	Cu	0.73523 0.30347 0.53201 0.87000
Cu	Cu	0.64815 0.31042 0.50098 0.89700
Cu	Cu	0.63267 0.33632 0.43232 0.89400
C 	C 	0.69251 0.31768 0.38600 0.28800
O 	O 	0.76600 0.41844 0.45641 -0.36300
C 	C 	0.68586 0.33333 0.57613 0.28900
O 	O 	0.65058 0.29577 0.45384 -0.64000
O 	O 	0.72873 0.34955 0.50616 -0.64100
O 	O 	0.77564 0.30780 0.46184 -0.37400
O 	O 	0.72048 0.25092 0.49505 -0.44100
O 	O 	0.67070 0.34289 0.39327 -0.38400
O 	O 	0.56951 0.26823 0.49278 -0.38300
C 	C 	0.53950 0.26986 0.46768 0.30800
C 	C 	0.74170 0.43910 0.46755 0.30100
O 	O 	0.69092 0.40721 0.47133 -0.39300
O 	O 	0.56153 0.30544 0.44737 -0.39500
O 	O 	0.72793 0.32032 0.40936 -0.36100
C 	C 	0.75555 0.26366 0.47464 0.28800
O 	O 	0.64492 0.31304 0.55020 -0.38700
O 	O 	0.73080 0.33901 0.57175 -0.42100
H 	H 	0.62803 0.25692 0.44351 0.16300
H 	H 	0.74995 0.38739 0.51840 0.17300
C 	C 	0.65678 0.31781 0.84771 -0.09200
C 	C 	0.62044 0.27353 0.82106 0.01600
C 	C 	0.61888 0.28091 0.78714 -0.07200
C 	C 	0.65348 0.33253 0.77957 0.03900
C 	C 	0.68760 0.37718 0.80620 -0.07100
C 	C 	0.68921 0.36993 0.84017 0.01600
C 	C 	0.65795 0.33883 0.74458 -0.02300
C 	C 	0.66119 0.34340 0.71515 -0.02300
C 	C 	0.66589 0.34759 0.67993 0.03900
C 	C 	0.62016 0.31258 0.65392 -0.07100
C 	C 	0.62614 0.31009 0.61970 0.01500
C 	C 	0.67810 0.34247 0.61129 -0.09100
C 	C 	0.72336 0.37985 0.63730 0.01600
C 	C 	0.71724 0.38228 0.67148 -0.07100
H 	H 	0.59439 0.23326 0.82655 0.02800
H 	H 	0.59199 0.24625 0.76668 0.04700
H 	H 	0.71422 0.41727 0.80054 0.04800
H 	H 	0.71721 0.40453 0.86045 0.03500
H 	H 	0.58025 0.28586 0.66026 0.04800
H 	H 	0.59077 0.28135 0.59993 0.03600
H 	H 	0.76348 0.40592 0.63114 0.02900
H 	H 	0.75272 0.40982 0.69146 0.04700
C 	C 	0.68839 0.29916 0.34978 -0.08700
C 	C 	0.63741 0.26774 0.32787 0.01600
C 	C 	0.63391 0.25811 0.29250 -0.07000
C 	C 	0.68131 0.28002 0.27876 0.04000
C 	C 	0.73207 0.30869 0.30067 -0.07000
C 	C 	0.73563 0.31811 0.33614 0.02100
C 	C 	0.67819 0.27859 0.24246 -0.02100
C 	C 	0.67351 0.27638 0.21194 -0.02100
C 	C 	0.66570 0.27449 0.17559 0.03900
C 	C 	0.70561 0.28242 0.15716 -0.06900
C 	C 	0.69959 0.28469 0.12233 0.01600
C 	C 	0.65383 0.27951 0.10590 -0.08600
C 	C 	0.61338 0.27029 0.12430 0.01800
C 	C 	0.61932 0.26777 0.15896 -0.07000
H 	H 	0.60066 0.25237 0.33816 0.01900
H 	H 	0.59448 0.23547 0.27572 0.04800
H 	H 	0.76889 0.32545 0.29024 0.04900
H 	H 	0.77521 0.34225 0.35281 0.03700
H 	H 	0.74158 0.28761 0.16986 0.04800
H 	H 	0.73097 0.29162 0.10836 0.03100
H 	H 	0.57742 0.26528 0.11177 0.03400
H 	H 	0.58821 0.26139 0.17303 0.04800
C 	C 	0.87268 0.83165 0.45025 -0.02000
C 	C 	0.84898 0.77770 0.45240 -0.04800
C 	C 	0.87526 0.76478 0.47556 0.01300
C 	C 	0.85318 0.70789 0.47554 0.00700
C 	C 	0.88320 0.68894 0.46668 -0.04300
C 	C 	0.86223 0.63500 0.46647 -0.03100
C 	C 	0.81117 0.59965 0.47512 -0.00900
C 	C 	0.78128 0.61856 0.48420 -0.03100
C 	C 	0.80220 0.67251 0.48442 -0.04300
C 	C 	0.78822 0.54340 0.47308 0.04500
C 	C 	0.76787 0.49600 0.47088 -0.11000
H 	H 	0.81103 0.74594 0.43544 0.04300
H 	H 	0.88547 0.62062 0.45929 0.03900
H 	H 	0.74170 0.59142 0.49083 0.03900
H 	H 	0.77884 0.68679 0.49146 0.04100
C 	C 	0.77549 0.23067 0.46839 -0.09600
C 	C 	0.77090 0.19717 0.49131 0.01300
C 	C 	0.79035 0.16651 0.48587 -0.07000
C 	C 	0.81456 0.16883 0.45745 0.02800
C 	C 	0.81887 0.20192 0.43434 -0.06800
C 	C 	0.79941 0.23271 0.43976 0.01600
C 	C 	0.83712 0.13807 0.45267 -0.00300
C 	C 	0.89329 0.16540 0.45427 -0.03500
C 	C 	0.91548 0.13674 0.45339 -0.04300
C 	C 	0.88173 0.08060 0.45092 0.01400
C 	C 	0.82544 0.05302 0.44836 -0.04300
C 	C 	0.80316 0.08162 0.44917 -0.03500
H 	H 	0.75295 0.19541 0.51364 0.01700
H 	H 	0.78724 0.14145 0.50401 0.04400
H 	H 	0.83736 0.20386 0.41224 0.04700
H 	H 	0.80275 0.25788 0.42166 0.03800
H 	H 	0.91989 0.20893 0.45707 0.03700
H 	H 	0.95903 0.15831 0.45526 0.04200
H 	H 	0.75970 0.06009 0.44772 0.03800
C 	C 	0.09204 0.04081 0.45792 -0.01800
C 	C 	0.12729 0.09603 0.47245 -0.02100
C 	C 	0.18322 0.12500 0.47305 -0.04700
C 	C 	0.20438 0.09906 0.45912 0.01200
C 	C 	0.16912 0.04414 0.44414 -0.04500
C 	C 	0.11323 0.01515 0.44351 -0.02600
C 	C 	0.26352 0.12915 0.46073 0.00800
C 	C 	0.28462 0.13591 0.43047 -0.04300
C 	C 	0.34062 0.16365 0.43202 -0.03100
C 	C 	0.37584 0.18479 0.46378 -0.00900
C 	C 	0.35488 0.17811 0.49403 -0.03100
C 	C 	0.29888 0.15035 0.49253 -0.04300
C 	C 	0.43359 0.21428 0.46535 0.04600
C 	C 	0.48195 0.23936 0.46651 -0.10800
H 	H 	0.11155 0.11627 0.48382 0.04200
H 	H 	0.21014 0.16748 0.48451 0.04300
H 	H 	0.18511 0.02381 0.43328 0.04100
H 	H 	0.08643 0.97273 0.43188 0.04600
H 	H 	0.25765 0.11977 0.40582 0.04100
H 	H 	0.35659 0.16882 0.40854 0.03800
H 	H 	0.38191 0.19444 0.51868 0.04000
H 	H 	0.28294 0.14509 0.51601 0.04100
C 	C 	0.74071 0.50511 0.99255 -0.08900
C 	C 	0.71717 0.53091 0.00218 0.01600
C 	C 	0.74504 0.58619 0.00287 -0.06600
C 	C 	0.79665 0.61621 0.99396 0.02700
C 	C 	0.82052 0.59070 0.98476 -0.06700
C 	C 	0.79272 0.53542 0.98406 0.01500
C 	C 	0.82525 0.67413 0.99365 -0.00300
C 	C 	0.83611 0.69309 0.96280 -0.03500
C 	C 	0.88039 0.78442 0.99305 0.01300
C 	C 	0.86928 0.76555 0.02386 -0.04100
C 	C 	0.84177 0.71055 0.02417 -0.03400
H 	H 	0.67696 0.50804 0.00858 0.03300
H 	H 	0.72626 0.60557 0.00992 0.04700
H 	H 	0.86055 0.61369 0.97809 0.04600
H 	H 	0.81164 0.51621 0.97699 0.03100
H 	H 	0.88222 0.79348 0.04756 0.04300
H 	H 	0.83361 0.69627 0.04811 0.03800
C 	C 	0.89247 0.10067 0.99963 0.01100
C 	C 	0.93104 0.11546 0.97847 -0.04800
C 	C 	0.86100 0.12274 0.99878 0.00700
C 	C 	0.82443 0.10970 0.96896 -0.04500
C 	C 	0.79540 0.13150 0.96782 -0.03000
C 	C 	0.80271 0.16645 0.99645 -0.01400
C 	C 	0.83875 0.17907 0.02642 -0.02800
C 	C 	0.86780 0.15721 0.02762 -0.04300
C 	C 	0.77474 0.19087 0.99450 0.04800
C 	C 	0.75116 0.21103 0.99173 -0.12400
H 	H 	0.93953 0.14494 0.96257 0.04100
H 	H 	0.81868 0.08285 0.94666 0.04000
H 	H 	0.76759 0.12158 0.94457 0.03200
H 	H 	0.84462 0.20612 0.04865 0.03800
H 	H 	0.89591 0.16744 0.05077 0.04100
C 	C 	0.48184 0.21369 0.97556 -0.09000
C 	C 	0.45853 0.23286 0.95562 0.01100
C 	C 	0.40334 0.21050 0.95329 -0.06700
C 	C 	0.37102 0.16873 0.97075 0.02700
C 	C 	0.39352 0.14769 0.98919 -0.06800
C 	C 	0.44860 0.16992 0.99154 0.01200
C 	C 	0.31475 0.14946 0.97168 -0.00300
C 	C 	0.30194 0.16287 0.00186 -0.03400
C 	C 	0.24786 0.14095 0.00380 -0.04100
C 	C 	0.20629 0.10552 0.97560 0.01300
C 	C 	0.21918 0.09336 0.94507 -0.04200
C 	C 	0.27332 0.11536 0.94309 -0.03500
C 	C 	0.15030 0.07845 0.97888 0.00400
C 	C 	0.10351 0.05499 0.98208 -0.03900
H 	H 	0.48335 0.26580 0.94254 0.03100
H 	H 	0.38607 0.22656 0.93868 0.04600
H 	H 	0.36860 0.11499 0.00242 0.04800
H 	H 	0.46579 0.15436 0.00679 0.03900
H 	H 	0.33376 0.18946 0.02398 0.03900
H 	H 	0.23819 0.15058 0.02745 0.04300
H 	H 	0.18722 0.06603 0.92315 0.04200
H 	H 	0.28290 0.10495 0.91965 0.03800
C 	C 	0.97229 0.02463 0.99437 0.11100
C 	C 	0.95323 0.00351 0.45651 0.12200
C 	C 	0.92418 0.80626 0.49753 -0.04800
C 	C 	0.94792 0.86011 0.49534 -0.02000
H 	H 	0.94436 0.79673 0.51584 0.04200
H 	H 	0.92253 0.71589 0.45970 0.04100
C 	C 	0.90527 0.05173 0.45247 0.00100
C 	C 	0.92627 0.02885 0.45416 -0.04000
H 	H 	0.79905 0.00960 0.44627 0.04200
C 	C 	0.86362 0.74808 0.96253 -0.04200
C 	C 	0.91024 0.84121 0.99288 0.00400
H 	H 	0.82323 0.66523 0.93908 0.03900
H 	H 	0.87211 0.76244 0.93863 0.04300
C 	C 	0.94649 0.05242 0.99723 -0.02100
C 	C 	0.90885 0.03866 0.01906 -0.02000
C 	C 	0.88199 0.06270 0.02024 -0.04700
C 	C 	0.95796 0.09149 0.97727 -0.02100
H 	H 	0.90020 0.00914 0.03495 0.04100
H 	H 	0.85235 0.05116 0.03672 0.04200
H 	H 	0.98679 0.10239 0.96027 0.04000
N 	N 	0.01880 0.97268 0.98732 -0.13500
N 	N 	0.00595 0.95787 0.46406 -0.13500
H 	H 	0.85300 0.84110 0.43149 0.04100
N 	N 	0.94325 0.97118 0.99543 -0.13800
C 	C 	0.96653 0.94528 0.99192 0.12800
N 	N 	0.92570 0.95177 0.46153 -0.13700
C 	C 	0.95216 0.92892 0.46536 0.11500
C 	C 	0.92294 0.87303 0.47114 -0.02000
H 	H 	0.98632 0.89175 0.51194 0.04000
C 	C 	0.93567 0.88875 0.99254 -0.03900
