data_crystal

_cell_length_a 28.80934
_cell_length_b 26.06825
_cell_length_c 32.35692
_cell_angle_alpha 103.78132
_cell_angle_beta  115.82545
_cell_angle_gamma 112.10384

_symmetry_space_group_name_	'P 1'
_symmetry_space_group_name_H-M	'P 1'

loop_
_symmetry_equiv_pos_as_xyz
  x,y,z

loop_
_atom_site_label
_atom_site_type_symbol
_atom_site_fract_x
_atom_site_fract_y
_atom_site_fract_z
_atom_site_charge
C 	C 	0.55892 0.24716 0.87718 0.04500
C 	C 	0.57901 0.30315 0.87392 -0.08500
C 	C 	0.62725 0.32582 0.86835 0.04600
C 	C 	0.65458 0.29197 0.86515 -0.08400
C 	C 	0.63529 0.23668 0.86928 0.04600
C 	C 	0.58690 0.21380 0.87462 -0.08600
H 	H 	0.55852 0.32991 0.87732 0.04900
H 	H 	0.69293 0.31036 0.86211 0.05200
H 	H 	0.57263 0.17153 0.87872 0.05100
C 	C 	0.55892 0.24716 0.37718 0.04500
C 	C 	0.57902 0.30315 0.37392 -0.08600
C 	C 	0.62725 0.32582 0.36834 0.04500
C 	C 	0.65458 0.29197 0.36515 -0.08500
C 	C 	0.63529 0.23668 0.36928 0.04600
C 	C 	0.58690 0.21380 0.37462 -0.08500
H 	H 	0.55852 0.32991 0.37732 0.04900
H 	H 	0.69293 0.31036 0.36212 0.05300
H 	H 	0.57263 0.17153 0.37872 0.05100
C 	C 	0.48892 0.77678 0.01245 0.04400
C 	C 	0.45848 0.80825 0.01109 -0.08300
C 	C 	0.40616 0.78262 0.01116 0.03600
C 	C 	0.38486 0.72613 0.01337 -0.08200
C 	C 	0.41463 0.69418 0.01410 0.04000
C 	C 	0.46694 0.71965 0.01393 -0.08500
H 	H 	0.47452 0.85159 0.00866 0.04900
H 	H 	0.34381 0.70587 0.01265 0.04700
H 	H 	0.48960 0.69454 0.01382 0.05000
C 	C 	0.48892 0.77678 0.51245 0.04200
C 	C 	0.45848 0.80825 0.51109 -0.08600
C 	C 	0.40616 0.78262 0.51116 0.04200
C 	C 	0.38486 0.72613 0.51337 -0.08700
C 	C 	0.41463 0.69418 0.51410 0.04200
C 	C 	0.46694 0.71965 0.51393 -0.08600
H 	H 	0.47452 0.85159 0.50866 0.04800
H 	H 	0.34381 0.70587 0.51265 0.04700
H 	H 	0.48960 0.69454 0.51382 0.04800
Zn	Zn	0.16203 0.13306 0.00579 1.18500
Zn	Zn	0.05725 0.09347 0.89816 1.18400
O 	O 	0.04298 0.99484 0.80582 -0.49900
O 	O 	0.02350 0.07195 0.82245 -0.47600
O 	O 	0.04552 0.90775 0.87029 -0.52200
C 	C 	0.21364 0.10077 0.95537 0.31200
O 	O 	0.99817 0.00575 0.87521 -0.80800
C 	C 	0.16859 0.22822 0.97059 0.32000
O 	O 	0.22714 0.13053 0.00182 -0.45600
O 	O 	0.15587 0.06530 0.91436 -0.36800
O 	O 	0.07896 0.09672 0.96843 -0.80500
O 	O 	0.09779 0.98535 0.95351 -0.47700
O 	O 	0.12255 0.18154 0.92241 -0.46500
O 	O 	0.18638 0.21825 0.01122 -0.46000
Zn	Zn	0.88597 0.90020 0.89345 1.17600
Zn	Zn	0.99104 0.92280 0.98602 1.20000
Zn	Zn	0.02132 0.00898 0.94176 1.19900
C 	C 	0.87496 0.79531 0.91967 0.33500
C 	C 	0.85945 0.94141 0.96366 0.32900
O 	O 	0.94596 0.03656 0.93102 -0.44600
Zn	Zn	0.00776 0.04242 0.03383 1.18500
O 	O 	0.93444 0.83157 0.95838 -0.44600
O 	O 	0.84833 0.81344 0.88687 -0.46500
O 	O 	0.84169 0.92600 0.91534 -0.48300
O 	O 	0.91336 0.95268 0.99811 -0.46500
C 	C 	0.03414 0.98588 0.10056 0.37200
O 	O 	0.96337 0.92164 0.91538 -0.77700
C 	C 	0.94583 0.07642 0.96483 0.32600
O 	O 	0.02334 0.93962 0.06218 -0.47400
O 	O 	0.04030 0.03793 0.09861 -0.49500
O 	O 	0.97557 0.08984 0.01401 -0.45600
O 	O 	0.04299 0.01132 0.00770 -0.91000
Zn	Zn	0.01550 0.95346 0.84216 1.17000
C 	C 	0.03176 0.03589 0.79410 0.33600
C 	C 	0.08919 0.93595 0.92049 0.33400
H 	H 	0.08741 0.03011 0.03381 0.16600
H 	H 	0.95474 0.99270 0.85257 0.13400
Zn	Zn	0.16203 0.13306 0.50579 1.18300
Zn	Zn	0.05724 0.09347 0.39816 1.18400
O 	O 	0.04298 0.99484 0.30582 -0.49900
O 	O 	0.02350 0.07195 0.32245 -0.47500
O 	O 	0.04552 0.90775 0.37029 -0.52100
C 	C 	0.21364 0.10077 0.45537 0.32300
O 	O 	0.99817 0.00575 0.37521 -0.80700
C 	C 	0.16859 0.22822 0.47059 0.33000
O 	O 	0.22714 0.13053 0.50182 -0.46700
O 	O 	0.15587 0.06530 0.41436 -0.36900
O 	O 	0.07896 0.09672 0.46843 -0.80000
O 	O 	0.09779 0.98535 0.45351 -0.47400
O 	O 	0.12255 0.18154 0.42241 -0.46600
O 	O 	0.18638 0.21825 0.51122 -0.47100
Zn	Zn	0.88597 0.90020 0.39344 1.17600
Zn	Zn	0.99104 0.92280 0.48602 1.20300
Zn	Zn	0.02132 0.00898 0.44176 1.20000
C 	C 	0.87496 0.79531 0.41967 0.33500
C 	C 	0.85945 0.94140 0.46366 0.32900
O 	O 	0.94596 0.03656 0.43102 -0.44600
Zn	Zn	0.00776 0.04242 0.53383 1.18300
O 	O 	0.93444 0.83157 0.45838 -0.44400
O 	O 	0.84833 0.81344 0.38687 -0.46400
O 	O 	0.84169 0.92600 0.41534 -0.48200
O 	O 	0.91336 0.95268 0.49811 -0.46100
C 	C 	0.03414 0.98589 0.60056 0.37200
O 	O 	0.96337 0.92164 0.41538 -0.77500
C 	C 	0.94583 0.07642 0.46483 0.33700
O 	O 	0.02334 0.93962 0.56218 -0.47800
O 	O 	0.04030 0.03793 0.59861 -0.49700
O 	O 	0.97557 0.08984 0.51401 -0.46500
O 	O 	0.04299 0.01132 0.50770 -0.91600
Zn	Zn	0.01550 0.95346 0.34216 1.17000
C 	C 	0.03176 0.03589 0.29410 0.33600
C 	C 	0.08919 0.93595 0.42049 0.33300
H 	H 	0.08741 0.03011 0.53381 0.16500
H 	H 	0.95474 0.99270 0.35257 0.13300
C 	C 	0.03389 0.04587 0.75182 -0.16800
C 	C 	0.04266 0.01076 0.72184 0.00300
C 	C 	0.04520 0.02262 0.68017 0.03800
C 	C 	0.04004 0.97986 0.64245 -0.23200
H 	H 	0.04847 0.06522 0.67910 0.02100
H 	H 	0.02834 0.08276 0.74512 0.06700
H 	H 	0.03670 0.93754 0.64418 0.08300
H 	H 	0.04704 0.97291 0.72751 0.02200
C 	C 	0.03389 0.04587 0.25182 -0.16800
C 	C 	0.04266 0.01076 0.22184 0.00400
C 	C 	0.04520 0.02262 0.18017 0.03800
C 	C 	0.04004 0.97986 0.14245 -0.23100
H 	H 	0.04847 0.06522 0.17910 0.02100
H 	H 	0.02834 0.08276 0.24512 0.06800
H 	H 	0.03670 0.93754 0.14418 0.08400
H 	H 	0.04704 0.97291 0.22751 0.02200
C 	C 	0.31781 0.41168 0.48150 -0.07200
C 	C 	0.26750 0.40531 0.49034 0.01700
C 	C 	0.33602 0.52413 0.55264 -0.08400
C 	C 	0.32947 0.51828 0.50124 0.04500
C 	C 	0.35426 0.47812 0.48792 -0.08400
H 	H 	0.35033 0.40417 0.51006 0.03900
H 	H 	0.29615 0.37474 0.44155 0.03900
C 	C 	0.23251 0.34217 0.48398 0.02800
H 	H 	0.31841 0.55265 0.56318 0.03900
H 	H 	0.38555 0.54923 0.58555 0.04000
C 	C 	0.36318 0.58135 0.50697 -0.03400
H 	H 	0.40414 0.50233 0.51955 0.04100
H 	H 	0.34995 0.47287 0.45102 0.04000
C 	C 	0.25986 0.48269 0.45643 -0.08400
H 	H 	0.25358 0.47746 0.41886 0.03800
H 	H 	0.24062 0.51031 0.46494 0.03700
C 	C 	0.22350 0.41641 0.45004 -0.07200
H 	H 	0.18697 0.41245 0.45554 0.03200
H 	H 	0.19990 0.37957 0.40944 0.03600
C 	C 	0.29960 0.45775 0.54624 -0.07200
H 	H 	0.26463 0.45462 0.55371 0.03400
H 	H 	0.33174 0.45116 0.57609 0.03700
C 	C 	0.20338 0.29031 0.47817 -0.12100
C 	C 	0.38823 0.63287 0.51076 -0.03000
C 	C 	0.62958 0.78836 0.46438 -0.08300
C 	C 	0.63309 0.84448 0.49883 0.04400
C 	C 	0.74990 0.90903 0.54624 -0.07400
C 	C 	0.72343 0.88616 0.48744 0.02000
C 	C 	0.68258 0.81280 0.45769 -0.07300
H 	H 	0.63279 0.75748 0.48263 0.04100
H 	H 	0.58439 0.75880 0.42512 0.04100
C 	C 	0.58233 0.82084 0.50478 -0.03300
H 	H 	0.77924 0.96161 0.56864 0.04200
H 	H 	0.77979 0.89179 0.56309 0.04300
C 	C 	0.77348 0.90866 0.48056 0.03100
H 	H 	0.71106 0.79355 0.47272 0.04200
H 	H 	0.66266 0.79487 0.41524 0.04000
C 	C 	0.68194 0.91091 0.46550 -0.07300
H 	H 	0.66205 0.89506 0.42323 0.03800
H 	H 	0.70994 0.96353 0.48630 0.03700
C 	C 	0.62887 0.88643 0.47219 -0.08300
H 	H 	0.63153 0.92737 0.49618 0.04000
H 	H 	0.58368 0.85891 0.43310 0.04000
C 	C 	0.69679 0.88452 0.55293 -0.08300
H 	H 	0.70080 0.92542 0.57854 0.04000
H 	H 	0.70135 0.85560 0.57297 0.03900
C 	C 	0.54012 0.80092 0.50873 -0.02900
C 	C 	0.81336 0.92493 0.47360 -0.11300
C 	C 	0.27228 0.93197 0.46467 -0.07100
C 	C 	0.21662 0.88748 0.46298 0.01300
C 	C 	0.23076 0.79820 0.43328 -0.08500
C 	C 	0.29511 0.85189 0.48452 0.04500
C 	C 	0.31846 0.91101 0.47734 -0.08500
H 	H 	0.25589 0.93142 0.42630 0.03700
H 	H 	0.29632 0.98152 0.49491 0.03700
C 	C 	0.17216 0.90650 0.45016 0.03100
H 	H 	0.21265 0.75505 0.43727 0.03700
H 	H 	0.23452 0.78531 0.40001 0.03800
C 	C 	0.33794 0.83079 0.49587 -0.03400
H 	H 	0.32405 0.90041 0.44501 0.03900
H 	H 	0.36455 0.95052 0.51365 0.04000
C 	C 	0.28766 0.86858 0.52967 -0.08500
H 	H 	0.33314 0.90729 0.56701 0.04000
H 	H 	0.27077 0.82692 0.53569 0.03800
C 	C 	0.24149 0.88952 0.51700 -0.07000
H 	H 	0.20259 0.85784 0.51696 0.03100
H 	H 	0.26492 0.93824 0.54826 0.03300
C 	C 	0.18472 0.81907 0.42066 -0.07000
H 	H 	0.14466 0.78590 0.41863 0.03100
H 	H 	0.16652 0.81615 0.38136 0.03400
C 	C 	0.13463 0.92050 0.43770 -0.14100
C 	C 	0.37048 0.81049 0.50361 -0.03000
C 	C 	0.25986 0.48269 0.95643 -0.09700
C 	C 	0.32947 0.51828 0.00124 0.06500
C 	C 	0.29960 0.45775 0.04624 -0.06100
C 	C 	0.26750 0.40531 0.99034 0.00800
C 	C 	0.22350 0.41641 0.95004 -0.06600
H 	H 	0.24062 0.51031 0.96494 0.03700
H 	H 	0.25358 0.47746 0.91886 0.03900
C 	C 	0.36318 0.58135 0.00697 -0.03700
H 	H 	0.33174 0.45116 0.07609 0.03700
H 	H 	0.26463 0.45462 0.05371 0.03500
C 	C 	0.23251 0.34217 0.98398 0.02600
H 	H 	0.18697 0.41245 0.95554 0.02900
H 	H 	0.19990 0.37957 0.90944 0.03400
C 	C 	0.31781 0.41168 0.98150 -0.07500
H 	H 	0.29615 0.37474 0.94155 0.03800
H 	H 	0.35033 0.40417 0.01006 0.04600
C 	C 	0.35426 0.47812 0.98792 -0.10500
H 	H 	0.40414 0.50234 0.01955 0.05000
H 	H 	0.34995 0.47287 0.95102 0.04200
C 	C 	0.33602 0.52413 0.05264 -0.09100
H 	H 	0.38555 0.54923 0.08555 0.04300
H 	H 	0.31841 0.55265 0.06318 0.04200
C 	C 	0.38823 0.63287 0.01076 -0.02400
C 	C 	0.20338 0.29031 0.97817 -0.12100
C 	C 	0.74990 0.90903 0.04624 -0.06900
C 	C 	0.72343 0.88616 0.98744 0.01500
C 	C 	0.62958 0.78836 0.96438 -0.07900
C 	C 	0.63309 0.84448 0.99883 0.02700
C 	C 	0.69679 0.88452 0.05293 -0.07300
H 	H 	0.77979 0.89179 0.06309 0.04500
H 	H 	0.77924 0.96161 0.06864 0.04300
C 	C 	0.77348 0.90866 0.98056 0.03100
H 	H 	0.58439 0.75880 0.92512 0.03900
H 	H 	0.63279 0.75748 0.98262 0.03700
C 	C 	0.58233 0.82084 0.00478 -0.01900
H 	H 	0.70135 0.85560 0.07297 0.03900
H 	H 	0.70080 0.92542 0.07854 0.04000
C 	C 	0.62887 0.88643 0.97219 -0.08000
H 	H 	0.63153 0.92737 0.99618 0.03600
H 	H 	0.58368 0.85891 0.93310 0.03800
C 	C 	0.68194 0.91091 0.96550 -0.07400
H 	H 	0.66205 0.89506 0.92323 0.03800
H 	H 	0.70994 0.96353 0.98630 0.03600
C 	C 	0.68258 0.81280 0.95769 -0.07400
H 	H 	0.66266 0.79487 0.91524 0.04000
H 	H 	0.71106 0.79355 0.97272 0.04000
C 	C 	0.81336 0.92493 0.97360 -0.11600
C 	C 	0.54012 0.80092 0.00873 -0.03300
C 	C 	0.27228 0.93197 0.96467 -0.06600
C 	C 	0.21662 0.88748 0.96298 0.00400
C 	C 	0.23076 0.79820 0.93328 -0.08700
C 	C 	0.29511 0.85189 0.98452 0.04800
C 	C 	0.31846 0.91101 0.97734 -0.09800
H 	H 	0.25589 0.93142 0.92631 0.03600
H 	H 	0.29632 0.98152 0.99491 0.03400
C 	C 	0.17216 0.90650 0.95016 0.03100
H 	H 	0.21265 0.75505 0.93727 0.03500
H 	H 	0.23452 0.78531 0.90001 0.03800
C 	C 	0.33794 0.83079 0.99587 -0.05400
H 	H 	0.32405 0.90041 0.94501 0.04100
H 	H 	0.36455 0.95052 0.01365 0.04900
C 	C 	0.28766 0.86858 0.02967 -0.08200
H 	H 	0.33314 0.90729 0.06701 0.04100
H 	H 	0.27077 0.82693 0.03569 0.04000
C 	C 	0.24149 0.88952 0.01700 -0.06200
H 	H 	0.20259 0.85784 0.01696 0.03200
H 	H 	0.26492 0.93824 0.04826 0.03400
C 	C 	0.18472 0.81907 0.92066 -0.06700
H 	H 	0.14466 0.78590 0.91863 0.02800
H 	H 	0.16652 0.81615 0.88136 0.03200
C 	C 	0.13463 0.92050 0.93770 -0.14400
C 	C 	0.37048 0.81049 0.00361 -0.01100
C 	C 	0.81193 0.22289 0.44225 -0.08400
C 	C 	0.74556 0.16681 0.39534 0.04700
C 	C 	0.79210 0.11833 0.36125 -0.07300
C 	C 	0.82268 0.12961 0.41840 0.02000
C 	C 	0.85722 0.20106 0.45578 -0.07300
H 	H 	0.82760 0.26144 0.43263 0.04700
H 	H 	0.81271 0.24290 0.47721 0.04700
C 	C 	0.70337 0.18860 0.38341 -0.03000
H 	H 	0.76675 0.06727 0.33346 0.04100
H 	H 	0.82809 0.14472 0.35620 0.04300
C 	C 	0.86618 0.10949 0.43223 0.03600
H 	H 	0.89449 0.22913 0.45261 0.04700
H 	H 	0.87958 0.21062 0.49719 0.04800
C 	C 	0.77101 0.09231 0.42381 -0.07300
H 	H 	0.79155 0.09957 0.46454 0.04600
H 	H 	0.74521 0.04073 0.39723 0.04500
C 	C 	0.72565 0.11420 0.41025 -0.08400
H 	H 	0.67817 0.07312 0.37716 0.04400
H 	H 	0.72459 0.13194 0.44451 0.04500
C 	C 	0.74665 0.14025 0.34766 -0.08400
H 	H 	0.69958 0.09967 0.31337 0.04500
H 	H 	0.76095 0.17710 0.33611 0.04600
C 	C 	0.67104 0.20906 0.37584 -0.02500
C 	C 	0.90249 0.09408 0.44591 -0.11600
C 	C 	0.78268 0.53607 0.42552 -0.08300
C 	C 	0.71254 0.50274 0.38344 0.04600
C 	C 	0.72732 0.61097 0.40922 -0.07300
C 	C 	0.77463 0.61686 0.39651 0.02100
C 	C 	0.81913 0.60307 0.43319 -0.07400
H 	H 	0.79143 0.53977 0.46352 0.04600
H 	H 	0.79975 0.50774 0.41356 0.04700
C 	C 	0.67882 0.43911 0.37659 -0.03100
H 	H 	0.69455 0.62045 0.38332 0.04000
H 	H 	0.75158 0.64681 0.45038 0.04200
C 	C 	0.80976 0.68060 0.40410 0.03200
H 	H 	0.84526 0.63874 0.47484 0.04700
H 	H 	0.85356 0.60670 0.42486 0.04800
C 	C 	0.73900 0.56600 0.33902 -0.07300
H 	H 	0.77179 0.56889 0.32876 0.04300
H 	H 	0.70646 0.57459 0.31172 0.04000
C 	C 	0.70247 0.49888 0.33133 -0.08400
H 	H 	0.65249 0.47539 0.30038 0.04300
H 	H 	0.71785 0.46974 0.31741 0.04500
C 	C 	0.69078 0.54380 0.40152 -0.08400
H 	H 	0.64056 0.52118 0.37193 0.04100
H 	H 	0.69762 0.54759 0.43901 0.04300
C 	C 	0.65377 0.38727 0.37215 -0.02600
C 	C 	0.83932 0.73289 0.41093 -0.10900
C 	C 	0.44034 0.24741 0.44787 -0.08400
C 	C 	0.42921 0.18930 0.40794 0.04500
C 	C 	0.38487 0.12328 0.44373 -0.07300
C 	C 	0.34685 0.15323 0.42862 0.02100
C 	C 	0.39194 0.22622 0.46003 -0.07300
H 	H 	0.48753 0.27391 0.48487 0.04300
H 	H 	0.43741 0.28038 0.43193 0.04100
C 	C 	0.47519 0.20963 0.39643 -0.03200
H 	H 	0.35368 0.07079 0.42163 0.04100
H 	H 	0.40876 0.13759 0.48620 0.04100
C 	C 	0.30054 0.13343 0.43980 0.03000
H 	H 	0.41602 0.24259 0.50283 0.04100
H 	H 	0.36593 0.24910 0.44990 0.04100
C 	C 	0.31465 0.13245 0.36933 -0.07300
H 	H 	0.28702 0.15336 0.35729 0.04200
H 	H 	0.28209 0.08013 0.34571 0.04200
C 	C 	0.36306 0.15366 0.35718 -0.08300
H 	H 	0.35363 0.11148 0.32778 0.04200
H 	H 	0.35856 0.18473 0.33940 0.04000
C 	C 	0.43333 0.14451 0.43156 -0.08400
H 	H 	0.42530 0.10214 0.40364 0.04300
H 	H 	0.48038 0.16891 0.46822 0.04400
C 	C 	0.51306 0.22662 0.38733 -0.02700
C 	C 	0.26155 0.11805 0.44775 -0.11000
C 	C 	0.85722 0.20105 0.95578 -0.07400
C 	C 	0.82268 0.12961 0.91840 0.02100
C 	C 	0.72565 0.11420 0.91025 -0.08400
C 	C 	0.74556 0.16681 0.89534 0.04700
C 	C 	0.81193 0.22289 0.94225 -0.08400
H 	H 	0.87958 0.21062 0.99719 0.04700
H 	H 	0.89449 0.22913 0.95261 0.04600
C 	C 	0.86618 0.10949 0.93223 0.03300
H 	H 	0.67817 0.07312 0.87716 0.04400
H 	H 	0.72459 0.13194 0.94451 0.04400
C 	C 	0.70337 0.18860 0.88341 -0.03100
H 	H 	0.81271 0.24290 0.97721 0.04600
H 	H 	0.82760 0.26144 0.93263 0.04600
C 	C 	0.74665 0.14025 0.84766 -0.08400
H 	H 	0.76095 0.17710 0.83611 0.04500
H 	H 	0.69958 0.09967 0.81337 0.04400
C 	C 	0.79210 0.11833 0.86125 -0.07300
H 	H 	0.76675 0.06727 0.83346 0.04100
H 	H 	0.82809 0.14472 0.85620 0.04300
C 	C 	0.77101 0.09231 0.92381 -0.07300
H 	H 	0.74521 0.04073 0.89723 0.04400
H 	H 	0.79155 0.09957 0.96454 0.04500
C 	C 	0.90249 0.09408 0.94591 -0.11500
C 	C 	0.67104 0.20906 0.87584 -0.02600
C 	C 	0.69078 0.54380 0.90152 -0.08400
C 	C 	0.71254 0.50274 0.88345 0.04600
C 	C 	0.73900 0.56600 0.83902 -0.07300
C 	C 	0.77463 0.61686 0.89651 0.02000
C 	C 	0.72732 0.61097 0.90922 -0.07300
H 	H 	0.64056 0.52118 0.87193 0.04100
H 	H 	0.69762 0.54759 0.93901 0.04200
C 	C 	0.67882 0.43911 0.87659 -0.03100
H 	H 	0.77179 0.56889 0.82876 0.04200
H 	H 	0.70646 0.57459 0.81173 0.04000
C 	C 	0.80976 0.68060 0.90410 0.03200
H 	H 	0.69455 0.62045 0.88332 0.03900
H 	H 	0.75158 0.64681 0.95038 0.04100
C 	C 	0.81913 0.60307 0.93319 -0.07300
H 	H 	0.84526 0.63874 0.97484 0.04600
H 	H 	0.85356 0.60670 0.92486 0.04700
C 	C 	0.78268 0.53607 0.92552 -0.08300
H 	H 	0.79975 0.50774 0.91356 0.04600
H 	H 	0.79143 0.53977 0.96353 0.04500
C 	C 	0.70247 0.49888 0.83133 -0.08400
H 	H 	0.71785 0.46974 0.81741 0.04400
H 	H 	0.65249 0.47540 0.80037 0.04200
C 	C 	0.65377 0.38727 0.87214 -0.02700
C 	C 	0.83932 0.73289 0.91093 -0.11000
C 	C 	0.44034 0.24741 0.94787 -0.08000
C 	C 	0.42921 0.18930 0.90794 0.04400
C 	C 	0.38487 0.12328 0.94373 -0.07500
C 	C 	0.34685 0.15323 0.92863 0.02400
C 	C 	0.39194 0.22622 0.96003 -0.08600
H 	H 	0.48753 0.27391 0.98487 0.04000
H 	H 	0.43741 0.28038 0.93193 0.03900
C 	C 	0.47519 0.20963 0.89643 -0.03200
H 	H 	0.35368 0.07079 0.92163 0.04000
H 	H 	0.40876 0.13759 0.98620 0.03900
C 	C 	0.30054 0.13343 0.93980 0.02500
H 	H 	0.41602 0.24259 0.00283 0.05100
H 	H 	0.36593 0.24910 0.94990 0.04200
C 	C 	0.31465 0.13245 0.86933 -0.07500
H 	H 	0.28702 0.15336 0.85729 0.04200
H 	H 	0.28209 0.08013 0.84571 0.04200
C 	C 	0.36306 0.15366 0.85718 -0.08200
H 	H 	0.35363 0.11148 0.82778 0.04100
H 	H 	0.35856 0.18473 0.83940 0.03900
C 	C 	0.43333 0.14451 0.93156 -0.08300
H 	H 	0.42530 0.10214 0.90364 0.04200
H 	H 	0.48038 0.16891 0.96822 0.04200
C 	C 	0.51307 0.22662 0.88733 -0.02800
C 	C 	0.26155 0.11805 0.94775 -0.10700
