data_crystal

_cell_length_a 13.82322
_cell_length_b 13.67274
_cell_length_c 33.43798
_cell_angle_alpha 91.03906
_cell_angle_beta  91.14516
_cell_angle_gamma 113.02743

_symmetry_space_group_name_	'P 1'
_symmetry_space_group_name_H-M	'P 1'

loop_
_symmetry_equiv_pos_as_xyz
  x,y,z

loop_
_atom_site_label
_atom_site_type_symbol
_atom_site_fract_x
_atom_site_fract_y
_atom_site_fract_z
_atom_site_charge
O 	O 	0.47561 0.19753 0.89831 -0.38000
O 	O 	0.54319 0.37421 0.95499 -0.36800
C 	C 	0.45677 0.13710 0.86522 0.31100
C 	C 	0.56811 0.47661 0.96057 0.27500
O 	O 	0.53072 0.11452 0.84759 -0.40900
O 	O 	0.54009 0.14123 0.70820 -0.36500
O 	O 	0.40724 0.07851 0.62995 -0.40100
O 	O 	0.54425 0.02825 0.63636 -0.36200
O 	O 	0.48248 0.39946 0.62269 -0.41100
Ni	Ni	0.45482 0.23972 0.62849 1.07000
O 	O 	0.46979 0.25858 0.68857 -0.42300
C 	C 	0.46517 0.17837 0.71004 0.31400
C 	C 	0.55160 0.45908 0.59750 0.27500
C 	C 	0.46576 0.03180 0.61437 0.28200
C 	C 	0.07862 0.96842 0.73963 -0.07000
H 	H 	0.08430 0.97363 0.70655 0.03600
C 	C 	0.06625 0.95595 0.81925 -0.07100
H 	H 	0.06119 0.95034 0.85234 0.03800
C 	C 	0.01346 0.02497 0.75889 0.00000
C 	C 	0.02791 0.85538 0.75535 -0.01900
C 	C 	0.18458 0.01561 0.76305 0.01000
C 	C 	0.00777 0.01914 0.79976 0.00200
C 	C 	0.02186 0.84864 0.79599 -0.02000
C 	C 	0.17787 0.00975 0.80364 0.01300
Ni	Ni	0.26214 0.67422 0.41284 1.09900
O 	O 	0.36791 0.82092 0.43232 -0.69300
Ni	Ni	0.32724 0.91686 0.39639 1.09500
O 	O 	0.31818 0.59642 0.45280 -0.37100
O 	O 	0.48836 0.68597 0.43535 -0.41200
O 	O 	0.17596 0.69737 0.45752 -0.41400
Ni	Ni	0.51649 0.84586 0.42967 1.06200
O 	O 	0.06037 0.58812 0.34687 -0.41700
O 	O 	0.50153 0.82677 0.36934 -0.43000
O 	O 	0.42751 0.05762 0.42146 -0.35000
O 	O 	0.23336 0.76892 0.37382 -0.70000
O 	O 	0.14488 0.52956 0.39603 -0.38500
O 	O 	0.24566 0.99204 0.36600 -0.38900
O 	O 	0.09451 0.87855 0.39288 -0.43300
Ni	Ni	0.08006 0.72882 0.37329 1.07100
H 	H 	0.35425 0.83527 0.46031 0.14800
H 	H 	0.25607 0.75638 0.34700 0.15900
C 	C 	0.50598 0.90689 0.34785 0.33500
O 	O 	0.01792 0.65591 0.42601 -0.39800
C 	C 	0.41924 0.62640 0.46055 0.27500
C 	C 	0.50597 0.05405 0.44345 0.27700
C 	C 	0.07450 0.64936 0.45715 0.31300
C 	C 	0.14353 0.96043 0.37058 0.31000
C 	C 	0.08000 0.51159 0.36439 0.32000
O 	O 	0.43072 0.94358 0.34959 -0.38100
O 	O 	0.56424 0.00699 0.42790 -0.38700
Ni	Ni	0.35341 0.76850 0.14387 1.09800
O 	O 	0.20848 0.65974 0.12544 -0.69100
Ni	Ni	0.11448 0.70060 0.16165 1.09900
O 	O 	0.42877 0.71204 0.10330 -0.37200
O 	O 	0.34443 0.54106 0.12307 -0.40600
O 	O 	0.32541 0.85425 0.09959 -0.39500
Ni	Ni	0.18534 0.50998 0.12805 1.07000
O 	O 	0.44101 0.97206 0.21048 -0.42700
O 	O 	0.20176 0.52176 0.18855 -0.41700
O 	O 	0.26120 0.79615 0.18378 -0.70200
O 	O 	0.49599 0.88890 0.15979 -0.39400
O 	O 	0.04021 0.78245 0.19216 -0.38300
O 	O 	0.15196 0.93620 0.16556 -0.43500
Ni	Ni	0.30058 0.95104 0.18474 1.06500
H 	H 	0.19291 0.67285 0.09750 0.15200
H 	H 	0.27499 0.77277 0.21038 0.15900
C 	C 	0.12254 0.51879 0.20976 0.31300
O 	O 	0.37195 0.01377 0.13194 -0.34600
C 	C 	0.40304 0.60963 0.09736 0.27400
C 	C 	0.37092 0.95705 0.09962 0.23200
C 	C 	0.07114 0.88570 0.18782 0.31200
C 	C 	0.51486 0.94920 0.19291 0.33000
O 	O 	0.09014 0.59764 0.20879 -0.37000
O 	O 	0.02563 0.46042 0.12923 -0.41100
C 	C 	0.00857 0.33707 0.24314 0.04600
C 	C 	0.05960 0.42096 0.22832 -0.10600
C 	C 	0.03154 0.94623 0.21349 -0.18300
C 	C 	0.03262 0.40662 0.34709 -0.12100
C 	C 	0.02696 0.02737 0.32352 0.10000
C 	C 	0.08235 0.99880 0.34468 -0.18400
C 	C 	0.39005 0.03010 0.54593 -0.02400
C 	C 	0.47352 0.02953 0.57038 -0.09800
C 	C 	0.56918 0.04135 0.55298 -0.01700
C 	C 	0.58176 0.05596 0.51189 -0.02600
C 	C 	0.49829 0.05650 0.48744 -0.09400
C 	C 	0.40264 0.04472 0.50484 -0.01900
H 	H 	0.31571 0.02055 0.55882 0.03100
H 	H 	0.33697 0.04399 0.48644 0.03200
C 	C 	0.03245 0.48210 0.54883 -0.02200
C 	C 	0.07004 0.52736 0.51214 -0.00200
C 	C 	0.02410 0.58956 0.49252 -0.08500
H 	H 	0.06751 0.43307 0.56327 0.04000
H 	H 	0.13518 0.51445 0.49898 0.04500
C 	C 	0.42495 0.52098 0.56340 -0.01400
C 	C 	0.51681 0.50086 0.56244 -0.07700
C 	C 	0.57699 0.52256 0.52786 -0.01300
C 	C 	0.54589 0.56453 0.49465 -0.01400
C 	C 	0.45403 0.58464 0.49562 -0.07800
C 	C 	0.39387 0.56297 0.53020 -0.01300
H 	H 	0.37845 0.50552 0.59003 0.03800
H 	H 	0.59240 0.58000 0.46803 0.03900
H 	H 	0.32354 0.57967 0.53145 0.03800
C 	C 	0.36787 0.11771 0.72888 -0.10600
C 	C 	0.28402 0.06987 0.74379 0.05500
H 	H 	0.00794 0.71695 0.00044 0.01400
C 	C 	0.58784 0.12149 0.03286 0.00300
C 	C 	0.54623 0.07774 0.99481 -0.04500
C 	C 	0.44416 0.99883 0.99137 -0.02700
C 	C 	0.38408 0.96474 0.02546 -0.05500
C 	C 	0.42570 0.00848 0.06350 0.01000
C 	C 	0.52775 0.08741 0.06694 -0.02900
H 	H 	0.41010 0.96613 0.96220 0.04000
H 	H 	0.30560 0.90315 0.02238 0.04700
H 	H 	0.56181 0.12010 0.09611 0.05800
C 	C 	0.38837 0.47639 0.04362 -0.01200
C 	C 	0.44772 0.57288 0.06372 -0.07200
C 	C 	0.54514 0.63952 0.04885 -0.00800
C 	C 	0.58246 0.61016 0.01412 -0.01200
C 	C 	0.52317 0.51362 0.99406 -0.07200
C 	C 	0.42570 0.44703 0.00889 -0.00700
H 	H 	0.31225 0.42528 0.05439 0.01500
H 	H 	0.59185 0.71417 0.06420 0.04400
H 	H 	0.37903 0.37236 0.99355 0.04800
C 	C 	0.35270 0.09285 0.84788 -0.09700
C 	C 	0.26979 0.05442 0.82975 0.05500
O 	O 	0.59912 0.07250 0.92624 -0.38300
C 	C 	0.60106 0.12914 0.95870 0.30500
O 	O 	0.60352 0.26460 0.62567 -0.68900
C 	C 	0.60338 0.96796 0.32913 -0.17500
C 	C 	0.00088 0.00020 0.23455 0.10000
H 	H 	0.61725 0.25046 0.59767 0.15600
Ni	Ni	0.61846 0.31755 0.91444 1.09900
C 	C 	0.61894 0.99338 0.21025 -0.16900
O 	O 	0.62655 0.54491 0.93473 -0.41000
H 	H 	0.63484 0.04207 0.57138 0.02900
C 	C 	0.99833 0.64110 0.01280 -0.01400
H 	H 	0.98892 0.69327 0.07289 0.02600
Ni	Ni	0.85742 0.38566 0.89661 1.10200
O 	O 	0.71065 0.29014 0.87449 -0.70100
O 	O 	0.93195 0.30392 0.86623 -0.37400
O 	O 	0.81961 0.15024 0.89267 -0.41600
O 	O 	0.88190 0.48865 0.84948 -0.36900
Ni	Ni	0.67114 0.13544 0.87326 1.07300
O 	O 	0.94556 0.62624 0.92899 -0.40500
O 	O 	0.76329 0.42657 0.93277 -0.69000
O 	O 	0.99656 0.48872 0.92108 -0.36600
Ni	Ni	0.78570 0.57624 0.92978 1.06900
H 	H 	0.69685 0.31375 0.84794 0.15800
H 	H 	0.77887 0.41381 0.96074 0.15600
O 	O 	0.76972 0.56405 0.86954 -0.42300
C 	C 	0.90064 0.20061 0.87048 0.29400
C 	C 	0.84922 0.56730 0.84844 0.31700
C 	C 	0.99257 0.56666 0.94376 0.28000
O 	O 	0.64664 0.23192 0.95873 -0.40600
Ni	Ni	0.64425 0.16869 0.66162 1.10100
O 	O 	0.73730 0.31672 0.68435 -0.70000
Ni	Ni	0.70875 0.41137 0.64528 1.09900
O 	O 	0.72578 0.09359 0.69205 -0.37000
O 	O 	0.87699 0.20827 0.66561 -0.41900
Ni	Ni	0.89049 0.35750 0.68548 1.07200
O 	O 	0.95343 0.43162 0.63273 -0.39000
O 	O 	0.82483 0.55661 0.66253 -0.38600
O 	O 	0.65268 0.48885 0.60518 -0.37300
H 	H 	0.71391 0.32895 0.71109 0.15900
C 	C 	0.89717 0.43732 0.60135 0.30500
C 	C 	0.82804 0.12592 0.68771 0.29500
C 	C 	0.89049 0.57461 0.69393 0.31500
O 	O 	0.79576 0.38880 0.60079 -0.40800
O 	O 	0.90870 0.49775 0.71181 -0.41600
O 	O 	0.97493 0.59809 0.13718 -0.36400
C 	C 	0.97859 0.52003 0.11450 0.28600
C 	C 	0.90536 0.13024 0.23898 -0.02400
H 	H 	0.91051 0.13585 0.20589 0.04700
C 	C 	0.89274 0.11775 0.31860 -0.01700
H 	H 	0.88696 0.11253 0.35168 0.04500
C 	C 	0.96376 0.06703 0.25850 -0.01700
C 	C 	0.94969 0.23755 0.26225 0.00100
C 	C 	0.79368 0.07644 0.25454 -0.02000
C 	C 	0.95798 0.06120 0.29937 -0.02000
C 	C 	0.94352 0.23081 0.30288 -0.01900
C 	C 	0.78683 0.07057 0.29513 -0.02400
C 	C 	0.70183 0.03179 0.22839 0.11900
C 	C 	0.68732 0.01607 0.31433 0.11900
C 	C 	0.99147 0.32319 0.32896 0.08000
H 	H 	0.65610 0.06550 0.49900 0.03200
C 	C 	0.90190 0.55972 0.54649 -0.01900
C 	C 	0.94782 0.49749 0.56610 -0.05600
C 	C 	0.93951 0.60502 0.50980 0.00800
H 	H 	0.83667 0.57252 0.55962 0.04900
H 	H 	0.90442 0.65401 0.49536 0.03400
H 	H 	0.64736 0.50593 0.52661 0.04000
C 	C 	0.94453 0.05891 0.73476 0.05800
C 	C 	0.88920 0.08754 0.71361 -0.11900
C 	C 	0.97971 0.76304 0.72927 0.06100
C 	C 	0.93829 0.67962 0.71116 -0.11000
C 	C 	0.99652 0.55713 0.98763 -0.10500
C 	C 	0.98473 0.45948 0.00433 -0.01700
C 	C 	0.97263 0.44553 0.04546 -0.02700
C 	C 	0.97448 0.52952 0.07062 -0.09800
C 	C 	0.98625 0.62715 0.05393 -0.02500
H 	H 	0.98207 0.39337 0.98536 0.02500
H 	H 	0.96302 0.36968 0.05781 0.03100
H 	H 	0.66633 0.18306 0.03594 0.04100
H 	H 	0.65859 0.66126 0.00335 0.01200
C 	C 	0.94011 0.13998 0.84481 -0.12000
C 	C 	0.97071 0.08598 0.82373 0.05700
C 	C 	0.91207 0.66520 0.82991 -0.11600
C 	C 	0.96304 0.74912 0.81510 0.06200
