data_crystal

_cell_length_a 26.50937
_cell_length_b 27.00881
_cell_length_c 34.64332
_cell_angle_alpha 95.50602
_cell_angle_beta  95.50342
_cell_angle_gamma 125.74800

_symmetry_space_group_name_	'P 1'
_symmetry_space_group_name_H-M	'P 1'

loop_
_symmetry_equiv_pos_as_xyz
  x,y,z

loop_
_atom_site_label
_atom_site_type_symbol
_atom_site_fract_x
_atom_site_fract_y
_atom_site_fract_z
_atom_site_charge
C 	C 	0.00840 0.03161 0.98593 -0.09200
C 	C 	0.03674 0.00151 0.98106 0.06200
C 	C 	0.00099 0.93719 0.97969 -0.09700
H 	H 	0.03612 0.08140 0.98737 0.05300
H 	H 	0.02308 0.91395 0.97673 0.05400
C 	C 	0.03115 0.06369 0.44859 -0.09800
C 	C 	0.05865 0.03243 0.44624 0.06300
C 	C 	0.02234 0.96889 0.44734 -0.09900
H 	H 	0.05893 0.11260 0.44694 0.05500
H 	H 	0.04307 0.94439 0.44403 0.05400
C 	C 	0.23890 0.14376 0.46504 0.02500
C 	C 	0.17239 0.11251 0.46924 -0.04300
C 	C 	0.12499 0.06568 0.44110 -0.06400
H 	H 	0.23046 0.17879 0.41314 0.04100
H 	H 	0.16221 0.12550 0.49648 0.04000
H 	H 	0.13537 0.04952 0.41523 0.04600
C 	C 	0.12575 0.01918 0.95208 -0.04100
C 	C 	0.10485 0.03807 0.97950 -0.06100
H 	H 	0.09214 0.97946 0.92861 0.03800
H 	H 	0.13810 0.08136 0.00049 0.04300
C 	C 	0.94396 0.99736 0.98801 0.05300
C 	C 	0.93706 0.90292 0.98274 0.05700
C 	C 	0.90858 0.93306 0.98710 -0.09500
H 	H 	0.85910 0.90656 0.98948 0.05300
C 	C 	0.96764 0.03174 0.45250 0.06100
C 	C 	0.95916 0.93691 0.45244 0.05900
C 	C 	0.93152 0.96809 0.45403 -0.10000
H 	H 	0.88192 0.94275 0.45597 0.05300
Cu	Cu	0.63153 0.23507 0.00153 0.92100
Cu	Cu	0.68962 0.25082 0.92244 0.87500
Cu	Cu	0.63794 0.32717 0.95373 0.90900
Cu	Cu	0.59274 0.32161 0.02972 0.89300
C 	C 	0.63354 0.26750 0.08347 0.29200
O 	O 	0.53586 0.17723 0.99666 -0.36600
C 	C 	0.66741 0.32256 0.87831 0.29800
O 	O 	0.65795 0.32631 0.00832 -0.64200
O 	O 	0.62256 0.24473 0.94584 -0.63600
O 	O 	0.69305 0.21413 0.00168 -0.38800
O 	O 	0.67359 0.17766 0.93581 -0.42700
O 	O 	0.59057 0.27595 0.07221 -0.38700
O 	O 	0.65929 0.40958 0.96253 -0.38500
C 	C 	0.65396 0.43557 0.99466 0.31200
C 	C 	0.49976 0.19179 0.98127 0.30100
O 	O 	0.52445 0.25006 0.97968 -0.40100
O 	O 	0.61372 0.40157 0.01723 -0.40200
O 	O 	0.65006 0.24262 0.05769 -0.36100
C 	C 	0.68985 0.17667 0.97256 0.30900
O 	O 	0.62990 0.32733 0.89774 -0.37900
O 	O 	0.71109 0.32029 0.89746 -0.42800
H 	H 	0.70156 0.36118 0.02175 0.15500
H 	H 	0.58047 0.21124 0.92969 0.16600
Cu	Cu	0.76344 0.36483 0.45874 0.92800
Cu	Cu	0.76395 0.32217 0.54407 0.86500
Cu	Cu	0.67732 0.35251 0.51518 0.89600
Cu	Cu	0.64757 0.36718 0.43401 0.89300
C 	C 	0.70838 0.33844 0.37705 0.29400
O 	O 	0.80161 0.45438 0.45473 -0.36900
C 	C 	0.71830 0.36616 0.59931 0.28400
O 	O 	0.66719 0.32096 0.46055 -0.64100
O 	O 	0.76626 0.38219 0.51582 -0.64200
O 	O 	0.80788 0.32572 0.46142 -0.37800
O 	O 	0.74526 0.26150 0.50087 -0.44600
O 	O 	0.68754 0.37087 0.38726 -0.38700
O 	O 	0.58898 0.31740 0.51394 -0.38900
C 	C 	0.54775 0.30607 0.48321 0.31100
C 	C 	0.77957 0.48317 0.46994 0.30100
O 	O 	0.72099 0.45104 0.47600 -0.40000
O 	O 	0.56600 0.33322 0.45231 -0.39800
O 	O 	0.74479 0.33425 0.40314 -0.36200
C 	C 	0.78533 0.27575 0.47684 0.31100
O 	O 	0.69065 0.37851 0.57216 -0.37400
O 	O 	0.76484 0.36329 0.59276 -0.41900
H 	H 	0.63679 0.27523 0.45245 0.16100
H 	H 	0.79827 0.42595 0.52926 0.17200
C 	C 	0.63661 0.32948 0.68748 -0.07200
C 	C 	0.68885 0.36313 0.71865 0.01000
C 	C 	0.75033 0.40274 0.71058 -0.00500
C 	C 	0.75907 0.40629 0.67146 -0.00500
C 	C 	0.70712 0.36966 0.64009 -0.09000
C 	C 	0.64531 0.33201 0.64829 0.05000
C 	C 	0.67926 0.35104 0.75903 0.01500
S 	S 	0.81684 0.44677 0.74915 -0.04500
H 	H 	0.80652 0.43624 0.66538 0.03900
S 	S 	0.57873 0.28497 0.60989 -0.04800
H 	H 	0.58927 0.29936 0.69369 0.05000
C 	C 	0.67624 0.39064 0.78671 -0.00800
C 	C 	0.67076 0.38008 0.82542 0.00200
C 	C 	0.66758 0.32989 0.83669 -0.10300
C 	C 	0.66730 0.28849 0.80836 0.06300
C 	C 	0.67377 0.29966 0.76990 -0.07800
S 	S 	0.67934 0.45346 0.77326 -0.04100
H 	H 	0.67011 0.41153 0.84694 0.04300
S 	S 	0.65601 0.22104 0.82013 -0.11000
H 	H 	0.67463 0.26837 0.74836 0.05200
H 	H 	0.56786 0.22882 0.59950 0.02500
H 	H 	0.61936 0.43361 0.75831 0.03600
H 	H 	0.59252 0.17359 0.81356 0.03400
H 	H 	0.82852 0.50281 0.76175 0.03600
C 	C 	0.65814 0.23272 0.18420 -0.07400
C 	C 	0.68017 0.28861 0.20864 0.01300
C 	C 	0.69167 0.33886 0.19162 -0.00600
C 	C 	0.67935 0.33214 0.15056 -0.00600
C 	C 	0.65425 0.27531 0.12608 -0.09300
C 	C 	0.64377 0.22522 0.14310 0.05800
C 	C 	0.68640 0.29265 0.25195 0.01300
S 	S 	0.71891 0.40955 0.22146 -0.04600
H 	H 	0.68757 0.37070 0.13762 0.02400
S 	S 	0.60865 0.15185 0.11378 -0.03800
H 	H 	0.64944 0.19410 0.19727 0.05100
C 	C 	0.63298 0.26877 0.26991 -0.00600
C 	C 	0.64073 0.28070 0.31107 -0.00600
C 	C 	0.70141 0.31763 0.33466 -0.09100
C 	C 	0.75485 0.33987 0.31670 0.05800
C 	C 	0.74677 0.32590 0.27558 -0.07300
S 	S 	0.55638 0.22606 0.24114 -0.04600
H 	H 	0.59959 0.26313 0.32473 0.02700
S 	S 	0.83218 0.38895 0.34484 -0.03700
H 	H 	0.78783 0.34383 0.26179 0.05200
H 	H 	0.54414 0.11776 0.10916 0.03800
H 	H 	0.53184 0.16451 0.23319 0.03300
H 	H 	0.85302 0.44938 0.34878 0.03900
H 	H 	0.66816 0.40608 0.23115 0.03600
C 	C 	0.90566 0.77822 0.47387 0.02400
C 	C 	0.92656 0.74443 0.45893 -0.05000
C 	C 	0.89083 0.68049 0.45815 -0.03500
C 	C 	0.83479 0.65008 0.47364 0.00200
C 	C 	0.81418 0.68414 0.48881 -0.03600
C 	C 	0.84952 0.74795 0.48903 -0.04900
C 	C 	0.79431 0.58172 0.47071 0.00900
C 	C 	0.81949 0.55153 0.47765 -0.14800
C 	C 	0.94369 0.84568 0.47459 -0.04300
C 	C 	0.92030 0.86965 0.45354 -0.06300
H 	H 	0.96987 0.76748 0.44719 0.03900
H 	H 	0.90603 0.65449 0.44483 0.03800
H 	H 	0.77065 0.66112 0.50031 0.03700
H 	H 	0.83334 0.77384 0.50099 0.04000
H 	H 	0.74323 0.55587 0.46305 0.03100
H 	H 	0.87040 0.57725 0.48623 0.07200
H 	H 	0.99220 0.87541 0.49076 0.03800
H 	H 	0.87134 0.83977 0.43808 0.04400
C 	C 	0.87387 0.09304 0.47838 0.02400
C 	C 	0.80952 0.06160 0.47983 -0.05000
C 	C 	0.78346 0.09407 0.48212 -0.03600
C 	C 	0.82154 0.15833 0.48307 -0.00000
C 	C 	0.88626 0.19002 0.48213 -0.03600
C 	C 	0.91224 0.15751 0.47972 -0.05000
C 	C 	0.79473 0.19298 0.48914 0.00700
C 	C 	0.80736 0.23740 0.46835 -0.15900
C 	C 	0.90170 0.05892 0.47826 -0.04300
C 	C 	0.93808 0.06429 0.45200 -0.06300
H 	H 	0.77973 0.01205 0.47938 0.03900
H 	H 	0.73378 0.06935 0.48352 0.03500
H 	H 	0.91673 0.23996 0.48432 0.03500
H 	H 	0.96242 0.18262 0.47984 0.03900
H 	H 	0.76335 0.18106 0.51028 0.02400
H 	H 	0.83639 0.24723 0.44594 0.08000
H 	H 	0.89070 0.02769 0.49900 0.03900
H 	H 	0.94897 0.09559 0.43131 0.04500
C 	C 	0.36693 0.20748 0.45920 0.00200
C 	C 	0.32553 0.20855 0.43146 -0.03600
C 	C 	0.26183 0.17699 0.43442 -0.05000
C 	C 	0.27999 0.14208 0.49255 -0.05000
C 	C 	0.34346 0.17283 0.48928 -0.03500
C 	C 	0.43412 0.24040 0.45536 0.00800
C 	C 	0.48101 0.27276 0.48721 -0.15000
H 	H 	0.34283 0.23427 0.40780 0.03600
H 	H 	0.26258 0.11631 0.51618 0.04000
H 	H 	0.37413 0.16925 0.50987 0.03600
H 	H 	0.44543 0.24059 0.42599 0.02900
H 	H 	0.47001 0.27345 0.51659 0.07900
C 	C 	0.76382 0.60843 0.99114 0.00000
C 	C 	0.83000 0.64823 0.99632 -0.03300
C 	C 	0.86211 0.71243 0.00167 -0.05200
C 	C 	0.82820 0.73739 0.00122 0.02400
C 	C 	0.76215 0.69782 0.99709 -0.04900
C 	C 	0.72993 0.63350 0.99160 -0.03400
C 	C 	0.86164 0.80481 0.00412 -0.04600
C 	C 	0.89928 0.83477 0.97848 -0.06000
C 	C 	0.73026 0.54056 0.98227 0.01300
C 	C 	0.68374 0.50264 0.00117 -0.15600
H 	H 	0.85652 0.62935 0.99595 0.03400
H 	H 	0.91328 0.74276 0.00565 0.04000
H 	H 	0.73567 0.71676 0.99699 0.04000
H 	H 	0.67871 0.60319 0.98686 0.03900
H 	H 	0.85451 0.82977 0.02676 0.03900
H 	H 	0.90587 0.80928 0.95583 0.04400
H 	H 	0.74704 0.52202 0.96225 0.03500
H 	H 	0.66978 0.52175 0.02309 0.07500
C 	C 	0.77499 0.10219 0.96364 0.00200
C 	C 	0.83727 0.13075 0.95788 -0.03600
C 	C 	0.86512 0.10030 0.96174 -0.04900
C 	C 	0.83075 0.04075 0.97123 0.02400
C 	C 	0.76870 0.01245 0.97746 -0.04700
C 	C 	0.74099 0.04315 0.97388 -0.03500
C 	C 	0.85706 0.00536 0.97057 -0.04300
C 	C 	0.91428 0.02958 0.99193 -0.05700
C 	C 	0.74337 0.13104 0.95429 0.00900
C 	C 	0.71625 0.14277 0.98094 -0.15100
H 	H 	0.86363 0.17603 0.94957 0.03300
H 	H 	0.91266 0.12212 0.95615 0.04000
H 	H 	0.74158 0.96625 0.98440 0.03800
H 	H 	0.69250 0.02027 0.97781 0.03900
H 	H 	0.82956 0.95935 0.95222 0.03800
H 	H 	0.94154 0.07575 0.01010 0.04100
H 	H 	0.74653 0.14710 0.92640 0.02700
H 	H 	0.71723 0.13082 0.00995 0.07700
C 	C 	0.32396 0.11640 0.95253 0.00200
C 	C 	0.30023 0.09889 0.98728 -0.03400
C 	C 	0.23559 0.06695 0.98714 -0.04700
C 	C 	0.19414 0.05304 0.95243 0.02400
C 	C 	0.21756 0.06919 0.91753 -0.04900
C 	C 	0.28231 0.10136 0.91769 -0.03600
C 	C 	0.39293 0.15688 0.95365 0.00700
C 	C 	0.43057 0.14443 0.97159 -0.15200
H 	H 	0.33204 0.11128 0.01457 0.03600
H 	H 	0.21777 0.05327 0.01403 0.03900
H 	H 	0.18577 0.05777 0.89046 0.04000
H 	H 	0.30019 0.11513 0.89083 0.03600
H 	H 	0.41326 0.19808 0.94045 0.03400
H 	H 	0.40982 0.10042 0.98143 0.07800
