data_crystal

_cell_length_a 18.67594
_cell_length_b 18.88915
_cell_length_c 34.96560
_cell_angle_alpha 95.44188
_cell_angle_beta  95.44152
_cell_angle_gamma 126.39787

_symmetry_space_group_name_	'P 1'
_symmetry_space_group_name_H-M	'P 1'

loop_
_symmetry_equiv_pos_as_xyz
  x,y,z

loop_
_atom_site_label
_atom_site_type_symbol
_atom_site_fract_x
_atom_site_fract_y
_atom_site_fract_z
_atom_site_charge
C 	C 	0.91220 0.99478 0.95946 0.04000
C 	C 	0.00532 0.04880 0.95921 -0.06600
C 	C 	0.05219 0.01231 0.96061 0.03700
C 	C 	0.00581 0.92118 0.96110 -0.06400
C 	C 	0.91257 0.86607 0.96069 0.03500
C 	C 	0.86539 0.90289 0.96003 -0.06400
H 	H 	0.04171 0.11972 0.95915 0.06500
H 	H 	0.04250 0.89325 0.96224 0.06300
H 	H 	0.79347 0.86084 0.96045 0.06400
C 	C 	0.94437 0.04522 0.50162 0.02900
C 	C 	0.89081 0.95332 0.50220 -0.05900
C 	C 	0.92941 0.90853 0.50177 0.03200
C 	C 	0.02187 0.95576 0.50158 -0.05900
C 	C 	0.07627 0.04790 0.50192 0.03100
C 	C 	0.03745 0.09278 0.50160 -0.06100
H 	H 	0.81891 0.91642 0.50207 0.06300
H 	H 	0.05157 0.92083 0.50119 0.06200
H 	H 	0.07912 0.16387 0.50113 0.06100
Cu	Cu	0.75849 0.33700 0.95747 0.93000
Cu	Cu	0.75211 0.27273 0.04181 0.88800
Cu	Cu	0.61836 0.29679 0.00856 0.89900
Cu	Cu	0.59016 0.33167 0.92869 0.90800
C 	C 	0.68854 0.30153 0.87506 0.34600
O 	O 	0.81240 0.46750 0.95532 -0.34600
C 	C 	0.67367 0.32010 0.09396 0.33500
O 	O 	0.61775 0.26520 0.95447 -0.63400
O 	O 	0.75061 0.35501 0.01329 -0.63900
O 	O 	0.81934 0.27814 0.96172 -0.35300
O 	O 	0.72268 0.18536 0.99892 -0.41500
O 	O 	0.65205 0.34180 0.88374 -0.35600
O 	O 	0.48843 0.23151 0.00110 -0.37200
C 	C 	0.43777 0.22674 0.97037 0.29600
C 	C 	0.77203 0.50205 0.96660 0.28500
O 	O 	0.68899 0.44920 0.97268 -0.38500
O 	O 	0.47369 0.28355 0.94619 -0.37100
O 	O 	0.74279 0.30121 0.90214 -0.35800
C 	C 	0.78215 0.20483 0.97658 0.29000
O 	O 	0.61940 0.31677 0.06527 -0.37300
O 	O 	0.74787 0.33088 0.08804 -0.37800
H 	H 	0.57790 0.20002 0.94387 0.18100
H 	H 	0.79004 0.41797 0.02741 0.18200
Cu	Cu	0.61271 0.21083 0.50751 0.93000
Cu	Cu	0.66899 0.21419 0.42127 0.88400
Cu	Cu	0.65407 0.35130 0.45771 0.90300
Cu	Cu	0.62173 0.37784 0.53829 0.90800
C 	C 	0.65253 0.27808 0.59019 0.34300
O 	O 	0.48300 0.16026 0.51164 -0.35200
C 	C 	0.61565 0.29180 0.37129 0.33800
O 	O 	0.68720 0.35014 0.51126 -0.63600
O 	O 	0.59147 0.21974 0.45215 -0.63800
O 	O 	0.66750 0.14721 0.50084 -0.35800
O 	O 	0.75949 0.24045 0.46241 -0.42100
O 	O 	0.61184 0.31469 0.58254 -0.35700
O 	O 	0.72279 0.48006 0.46630 -0.35800
C 	C 	0.72577 0.52985 0.49658 0.29400
C 	C 	0.44798 0.19938 0.49953 0.28600
O 	O 	0.50152 0.28234 0.49449 -0.38400
O 	O 	0.67050 0.49391 0.52161 -0.37000
O 	O 	0.65206 0.22521 0.56235 -0.36000
C 	C 	0.73992 0.18192 0.48494 0.29300
O 	O 	0.63694 0.35379 0.40119 -0.34600
O 	O 	0.60604 0.21868 0.37662 -0.40600
H 	H 	0.75323 0.38865 0.52152 0.18200
H 	H 	0.52722 0.18248 0.43889 0.18500
C 	C 	0.73214 0.35259 0.69947 -0.13800
C 	C 	0.69610 0.27052 0.71142 0.01600
C 	C 	0.65515 0.19255 0.68317 0.28800
C 	C 	0.64585 0.19598 0.64331 -0.05400
C 	C 	0.67706 0.27724 0.63141 -0.14200
C 	C 	0.72286 0.35607 0.65968 0.36900
C 	C 	0.69277 0.26505 0.75316 0.01600
F 	F 	0.62184 0.11307 0.69434 -0.41700
H 	H 	0.61102 0.13486 0.62178 0.09800
F 	F 	0.75630 0.43568 0.64859 -0.44500
H 	H 	0.76461 0.41321 0.72108 0.12700
C 	C 	0.77312 0.30789 0.78077 0.28900
C 	C 	0.77101 0.31476 0.82081 -0.05200
C 	C 	0.68870 0.27916 0.83355 -0.14000
C 	C 	0.60780 0.23176 0.80587 0.36900
C 	C 	0.60993 0.22484 0.76589 -0.13800
F 	F 	0.85349 0.34540 0.76881 -0.41600
H 	H 	0.83380 0.35117 0.84188 0.10000
F 	F 	0.52739 0.19468 0.81776 -0.44500
H 	H 	0.54754 0.19099 0.74479 0.12600
C 	C 	0.67216 0.39318 0.28073 -0.14100
C 	C 	0.60717 0.31815 0.25162 0.01700
C 	C 	0.53631 0.23928 0.26237 0.28900
C 	C 	0.53515 0.23308 0.30188 -0.05600
C 	C 	0.60460 0.30562 0.33099 -0.14200
C 	C 	0.67093 0.38715 0.32030 0.36700
C 	C 	0.62175 0.31739 0.21086 0.01400
F 	F 	0.47128 0.16715 0.23446 -0.41700
H 	H 	0.48241 0.17061 0.30983 0.09600
F 	F 	0.73772 0.45854 0.34807 -0.44000
H 	H 	0.72644 0.45466 0.27269 0.12500
C 	C 	0.60638 0.36447 0.18690 0.29000
C 	C 	0.62253 0.36481 0.14854 -0.05400
C 	C 	0.65467 0.31859 0.13403 -0.14300
C 	C 	0.66912 0.27089 0.15802 0.36900
C 	C 	0.65297 0.27062 0.19621 -0.13900
F 	F 	0.57591 0.40979 0.20073 -0.41700
H 	H 	0.61114 0.40180 0.13033 0.09600
F 	F 	0.69747 0.22359 0.14408 -0.45000
H 	H 	0.66487 0.23410 0.21453 0.12100
C 	C 	0.77857 0.62683 0.49804 -0.07100
C 	C 	0.77039 0.65849 0.46445 0.01600
C 	C 	0.81725 0.75034 0.46562 -0.03400
C 	C 	0.87277 0.81142 0.50079 0.01900
C 	C 	0.88053 0.77983 0.53442 -0.05300
C 	C 	0.83442 0.68807 0.53319 0.02900
H 	H 	0.72697 0.61146 0.43747 0.06500
H 	H 	0.92413 0.82702 0.56135 0.06500
C 	C 	0.84731 0.65753 0.56771 0.08000
C 	C 	0.80899 0.78156 0.43052 0.10200
N 	N 	0.85762 0.63306 0.59534 -0.08700
N 	N 	0.80242 0.80667 0.40243 -0.10200
C 	C 	0.79412 0.14877 0.48914 -0.08300
C 	C 	0.83001 0.15044 0.52663 0.01700
C 	C 	0.88350 0.12124 0.53118 -0.03700
C 	C 	0.90109 0.08964 0.49791 0.02000
C 	C 	0.86658 0.08947 0.46051 -0.05700
C 	C 	0.81245 0.11774 0.45587 0.03000
H 	H 	0.81666 0.17487 0.55224 0.05300
H 	H 	0.87920 0.06413 0.43492 0.06100
C 	C 	0.77246 0.11060 0.41687 0.05600
C 	C 	0.91975 0.12349 0.57003 0.10200
N 	N 	0.74044 0.10483 0.38562 -0.12300
N 	N 	0.94885 0.12526 0.60114 -0.09800
C 	C 	0.17411 0.09678 0.50258 0.01800
C 	C 	0.20664 0.11529 0.46749 -0.05500
C 	C 	0.29506 0.14550 0.46573 0.02700
C 	C 	0.35186 0.15763 0.49945 -0.07900
C 	C 	0.31977 0.14046 0.53466 0.01200
C 	C 	0.23180 0.11125 0.53652 -0.03600
H 	H 	0.16209 0.10337 0.44127 0.06000
H 	H 	0.36414 0.15194 0.56086 0.05000
C 	C 	0.20109 0.09637 0.57339 0.09800
C 	C 	0.32621 0.16158 0.42898 0.07500
N 	N 	0.17638 0.08439 0.60289 -0.10100
N 	N 	0.35125 0.17449 0.39956 -0.10300
C 	C 	0.86521 0.76967 0.96113 0.01600
C 	C 	0.85498 0.71431 0.92790 -0.05400
C 	C 	0.82988 0.62872 0.92990 0.02500
C 	C 	0.81265 0.59672 0.96539 -0.07800
C 	C 	0.82052 0.65118 0.99835 0.01500
C 	C 	0.84699 0.73735 0.99647 -0.03200
H 	H 	0.86977 0.73927 0.90078 0.06100
H 	H 	0.80541 0.62616 0.02544 0.04000
C 	C 	0.85667 0.79274 0.03109 0.09200
C 	C 	0.82152 0.57414 0.89529 0.08500
N 	N 	0.86447 0.83720 0.05880 -0.10200
N 	N 	0.81501 0.53066 0.86753 -0.09200
C 	C 	0.81477 0.15012 0.97216 -0.07600
C 	C 	0.81397 0.11556 0.93464 0.01500
C 	C 	0.83946 0.05911 0.92987 -0.03400
C 	C 	0.86633 0.03695 0.96294 0.01900
C 	C 	0.86499 0.06976 0.00032 -0.05800
C 	C 	0.84099 0.12721 0.00522 0.02600
H 	H 	0.79282 0.13196 0.90915 0.05500
H 	H 	0.88692 0.05394 0.02582 0.06500
C 	C 	0.84793 0.16592 0.04436 0.05800
C 	C 	0.83835 0.02456 0.89098 0.09700
N 	N 	0.85352 0.19689 0.07572 -0.11200
N 	N 	0.83750 0.99685 0.85983 -0.09700
C 	C 	0.33909 0.17062 0.96787 -0.06800
C 	C 	0.30379 0.17491 0.00093 0.00200
C 	C 	0.21015 0.12494 0.99868 -0.02200
C 	C 	0.15095 0.07023 0.96295 0.01300
C 	C 	0.18613 0.06590 0.92991 -0.05000
C 	C 	0.27971 0.11518 0.93222 0.02600
H 	H 	0.34934 0.21783 0.02832 0.05900
H 	H 	0.14042 0.02290 0.90257 0.06100
C 	C 	0.31416 0.10629 0.89824 0.07800
C 	C 	0.17519 0.12930 0.03324 0.09200
N 	N 	0.34177 0.09918 0.87104 -0.08700
N 	N 	0.14707 0.13272 0.06089 -0.09900
