data_crystal

_cell_length_a 19.90435
_cell_length_b 20.73490
_cell_length_c 38.63172
_cell_angle_alpha 60.63497
_cell_angle_beta  119.09343
_cell_angle_gamma 133.30648

_symmetry_space_group_name_	'P 1'
_symmetry_space_group_name_H-M	'P 1'

loop_
_symmetry_equiv_pos_as_xyz
  x,y,z

loop_
_atom_site_label
_atom_site_type_symbol
_atom_site_fract_x
_atom_site_fract_y
_atom_site_fract_z
_atom_site_charge
C 	C 	0.26412 0.58721 0.18300 0.11400
N 	N 	0.18874 0.50533 0.17295 -0.13800
C 	C 	0.20272 0.44364 0.17985 0.11400
N 	N 	0.29075 0.46349 0.19745 -0.14100
N 	N 	0.35358 0.60955 0.19635 -0.14300
C 	C 	0.32375 0.71461 0.64852 0.11500
N 	N 	0.25474 0.63354 0.63712 -0.13900
C 	C 	0.27984 0.58486 0.63873 0.11600
N 	N 	0.37223 0.61734 0.65136 -0.14300
N 	N 	0.41599 0.74448 0.66219 -0.14500
Co	Co	0.05029 0.99250 0.04586 1.18000
Co	Co	0.10730 0.87587 0.04912 1.16500
C 	C 	0.24074 0.07387 0.04430 0.31100
O 	O 	0.03622 0.08524 0.04071 -0.45600
C 	C 	0.17974 0.83651 0.13789 0.29600
O 	O 	0.20701 0.89382 0.10379 -0.40300
O 	O 	0.12515 0.83377 0.14987 -0.38100
O 	O 	0.01428 0.10436 0.11173 -0.36100
O 	O 	0.04051 0.89409 0.06843 -0.74900
O 	O 	0.19417 0.01420 0.02354 -0.40300
O 	O 	0.19630 0.06952 0.06266 -0.39700
Co	Co	0.05785 0.05814 0.52454 1.20100
Co	Co	0.14904 0.97162 0.52851 1.16200
C 	C 	0.23819 0.17028 0.50268 0.31500
C 	C 	0.08034 0.06614 0.70399 0.29100
O 	O 	0.01593 0.13312 0.51378 -0.44800
C 	C 	0.06075 0.25760 0.59113 0.34500
C 	C 	0.26255 0.97789 0.61195 0.27200
O 	O 	0.09009 0.02680 0.68974 -0.37100
O 	O 	0.26807 0.02673 0.57421 -0.37500
O 	O 	0.21050 0.96727 0.62892 -0.39200
O 	O 	0.08406 0.22486 0.58026 -0.40000
O 	O 	0.08157 0.98015 0.55253 -0.76100
O 	O 	0.19600 0.10077 0.48904 -0.40300
O 	O 	0.19802 0.16347 0.52416 -0.40400
C 	C 	0.08559 0.04867 0.91475 0.01400
C 	C 	0.10771 0.06632 0.88040 -0.02700
C 	C 	0.13509 0.10405 0.80221 -0.06300
C 	C 	0.14927 0.11771 0.76643 0.01100
C 	C 	0.09303 0.04533 0.74824 -0.06400
H 	H 	0.13367 0.09966 0.93216 0.03700
H 	H 	0.17463 0.12900 0.87362 0.03700
H 	H 	0.17178 0.16357 0.81219 0.04600
H 	H 	0.19883 0.18649 0.75096 0.02900
C 	C 	0.00400 0.04640 0.38604 0.04400
C 	C 	0.00022 0.04269 0.34977 -0.01300
C 	C 	0.02367 0.02808 0.28447 -0.01700
C 	C 	0.01819 0.02024 0.24896 0.05500
H 	H 	0.04514 0.11228 0.39185 0.03200
H 	H 	0.03015 0.10548 0.32650 0.03800
H 	H 	0.07902 0.09294 0.29260 0.03800
H 	H 	0.06404 0.08047 0.22880 0.03000
C 	C 	0.22341 0.42715 0.65295 -0.07400
C 	C 	0.20844 0.49531 0.62807 -0.02300
C 	C 	0.14914 0.48785 0.58819 0.04500
C 	C 	0.10864 0.41395 0.57401 -0.01100
C 	C 	0.13004 0.35004 0.59829 -0.11700
C 	C 	0.19536 0.36279 0.63648 0.10300
C 	C 	0.24646 0.31880 0.65704 -0.20700
H 	H 	0.26883 0.43234 0.68353 0.05400
H 	H 	0.05772 0.40421 0.54473 0.04300
C 	C 	0.12771 0.55714 0.56095 -0.18100
H 	H 	0.31731 0.36883 0.64987 0.07500
H 	H 	0.20795 0.25699 0.64713 0.08900
H 	H 	0.25687 0.29868 0.69068 0.07600
H 	H 	0.09211 0.55760 0.57569 0.08300
H 	H 	0.08000 0.54135 0.53087 0.06900
C 	C 	0.35326 0.93661 0.61157 -0.05900
C 	C 	0.29288 0.91644 0.62993 -0.09100
C 	C 	0.24601 0.82901 0.65713 0.08500
C 	C 	0.24971 0.76046 0.66025 -0.06500
C 	C 	0.30274 0.77920 0.63821 -0.02900
C 	C 	0.35137 0.86719 0.61227 0.05500
C 	C 	0.40395 0.88856 0.58605 -0.18400
H 	H 	0.39543 0.00523 0.59339 0.05900
H 	H 	0.21451 0.69390 0.68107 0.04900
C 	C 	0.19912 0.81040 0.68517 -0.19700
H 	H 	0.41065 0.94648 0.55905 0.05400
H 	H 	0.36575 0.82895 0.57436 0.06700
H 	H 	0.12974 0.79972 0.66786 0.06900
H 	H 	0.24569 0.86831 0.69950 0.07900
H 	H 	0.18585 0.74808 0.71035 0.06800
C 	C 	0.01457 0.20376 0.16601 0.01600
C 	C 	0.03762 0.21069 0.13465 -0.07200
C 	C 	0.10524 0.29792 0.11420 0.08500
C 	C 	0.14914 0.37600 0.12588 -0.07100
C 	C 	0.13092 0.36814 0.15914 -0.01900
C 	C 	0.06115 0.28157 0.17862 0.02500
C 	C 	0.03996 0.27095 0.21436 -0.12800
H 	H 	0.20277 0.44263 0.11091 0.04900
C 	C 	0.13409 0.30816 0.08121 -0.19700
H 	H 	0.03076 0.32367 0.20719 0.06400
H 	H 	0.09942 0.27849 0.24169 0.06000
H 	H 	0.07087 0.27485 0.05705 0.07900
H 	H 	0.17213 0.27665 0.09474 0.07900
H 	H 	0.18223 0.38120 0.06629 0.06800
C 	C 	0.30033 0.81061 0.15872 -0.02500
C 	C 	0.21509 0.77837 0.16327 -0.10300
C 	C 	0.15386 0.68424 0.18129 0.09200
C 	C 	0.17156 0.62292 0.18808 -0.07500
C 	C 	0.24943 0.65427 0.17717 -0.02400
C 	C 	0.31375 0.74958 0.16164 0.04000
C 	C 	0.39381 0.78684 0.14612 -0.17500
H 	H 	0.35137 0.88352 0.14805 0.03700
H 	H 	0.12411 0.55077 0.20146 0.05200
C 	C 	0.07213 0.64921 0.19467 -0.20500
H 	H 	0.09816 0.68919 0.21510 0.08600
C 	C 	0.40430 0.25062 0.54133 -0.01700
C 	C 	0.33888 0.24312 0.50337 -0.11200
C 	C 	0.37054 0.28426 0.46755 0.09700
H 	H 	0.38131 0.22385 0.56863 0.04800
C 	C 	0.30500 0.28816 0.42592 -0.20400
H 	H 	0.25590 0.29684 0.42604 0.07700
H 	H 	0.26281 0.22408 0.41685 0.08000
H 	H 	0.34610 0.34700 0.40268 0.06900
C 	C 	0.40637 0.12831 0.06777 -0.02900
C 	C 	0.34019 0.14861 0.04382 -0.10000
C 	C 	0.30342 0.25949 0.98782 -0.18700
H 	H 	0.39344 0.07523 0.09605 0.04800
H 	H 	0.27938 0.25444 0.01024 0.07200
H 	H 	0.24040 0.22022 0.96526 0.07300
O 	O 	0.01174 0.99086 0.98457 -0.37700
O 	O 	0.05774 0.12325 0.67893 -0.38300
C 	C 	0.00787 0.96266 0.92911 -0.06100
C 	C 	0.04817 0.99945 0.85791 -0.01400
C 	C 	0.06727 0.01560 0.82205 0.04400
H 	H 	0.19447 0.62633 0.55515 0.07000
C 	C 	0.36716 0.54954 0.20090 0.11600
H 	H 	0.03712 0.57619 0.21180 0.07500
Co	Co	0.06861 0.92278 0.60098 1.19000
O 	O 	0.10915 0.84312 0.56677 -0.41900
H 	H 	0.38673 0.49960 0.15566 0.05300
O 	O 	0.02960 0.73779 0.07603 -0.38900
H 	H 	0.01796 0.65521 0.16768 0.08100
C 	C 	0.36146 0.22261 0.00914 0.07700
H 	H 	0.03202 0.65149 0.65256 0.10100
H 	H 	0.36928 0.74370 0.12768 0.06900
O 	O 	0.02170 0.91776 0.48650 -0.37100
C 	C 	0.02891 0.95662 0.76854 -0.00500
H 	H 	0.42079 0.85698 0.12595 0.05400
O 	O 	0.03005 0.88558 0.65116 -0.46000
C 	C 	0.01262 0.94178 0.80427 0.01100
H 	H 	0.34617 0.33274 0.97165 0.06700
C 	C 	0.02507 0.78039 0.57495 0.37600
C 	C 	0.43180 0.25672 0.99233 -0.05000
C 	C 	0.00295 0.93587 0.97145 0.28400
C 	C 	0.44033 0.69718 0.66243 0.11800
O 	O 	0.00143 0.86347 0.99666 -0.38300
H 	H 	0.00153 0.56659 0.12318 0.10700
H 	H 	0.44258 0.30804 0.96347 0.04600
H 	H 	0.46643 0.49821 0.12546 0.06900
C 	C 	0.45413 0.55460 0.16913 -0.07400
C 	C 	0.99283 0.96894 0.45866 0.25400
H 	H 	0.97358 0.20281 0.22179 0.02900
H 	H 	0.54232 0.10624 0.11084 0.06400
C 	C 	0.97629 0.12954 0.11828 0.23500
C 	C 	0.46141 0.31532 0.47086 -0.07400
H 	H 	0.95951 0.13756 0.18043 0.00800
H 	H 	0.48438 0.34231 0.44352 0.05000
Co	Co	0.99977 0.82451 0.11142 1.16800
H 	H 	0.94223 0.31803 0.06379 0.05700
Co	Co	0.93991 0.02303 0.07178 1.17300
O 	O 	0.97783 0.20551 0.59912 -0.44400
O 	O 	0.96003 0.92796 0.18065 -0.42100
Co	Co	0.98298 0.09963 0.56477 1.17400
C 	C 	0.49481 0.28047 0.54492 0.04800
H 	H 	0.52412 0.24201 0.61147 0.06700
O 	O 	0.83225 0.91674 0.17598 -0.41800
C 	C 	0.91680 0.93334 0.19559 0.30100
O 	O 	0.88396 0.08856 0.10703 -0.40000
C 	C 	0.95113 0.93588 0.23864 -0.12900
H 	H 	0.47627 0.90766 0.60427 0.06600
H 	H 	0.45380 0.79024 0.17224 0.06500
C 	C 	0.48235 0.16764 0.05295 0.05400
C 	C 	0.55232 0.14411 0.07915 -0.18300
H 	H 	0.54237 0.10023 0.06602 0.07100
C 	C 	0.69071 0.28136 0.99356 0.11300
N 	N 	0.75174 0.37322 0.99001 -0.14400
C 	C 	0.72469 0.41643 0.99167 0.12600
N 	N 	0.63353 0.37009 0.99147 -0.14500
C 	C 	0.57502 0.27815 0.99854 0.12800
N 	N 	0.60237 0.23349 0.99844 -0.14200
C 	C 	0.71374 0.30770 0.51890 0.11300
N 	N 	0.79143 0.38428 0.53263 -0.14500
C 	C 	0.78114 0.44088 0.53436 0.11400
N 	N 	0.69373 0.41978 0.52370 -0.14200
C 	C 	0.61598 0.34138 0.51222 0.11800
N 	N 	0.62581 0.28580 0.50921 -0.14200
Co	Co	0.88853 0.85873 0.13583 1.17800
C 	C 	0.93952 0.69009 0.07398 0.27200
Co	Co	0.78244 0.94867 0.11273 1.16200
O 	O 	0.86213 0.93298 0.10064 -0.77100
O 	O 	0.94409 0.78933 0.15537 -0.48500
O 	O 	0.93758 0.90460 0.08084 -0.59700
C 	C 	0.68950 0.75096 0.14473 0.30200
O 	O 	0.67578 0.81194 0.11597 -0.39400
O 	O 	0.75317 0.74566 0.14594 -0.39000
C 	C 	0.77976 0.04647 0.02593 0.32100
O 	O 	0.72525 0.97357 0.05062 -0.40900
O 	O 	0.85066 0.05768 0.02278 -0.39700
O 	O 	0.91117 0.70609 0.09166 -0.39700
Co	Co	0.99099 0.96283 0.64128 1.16500
Co	Co	0.92695 0.07659 0.63844 1.16200
O 	O 	0.96510 0.04028 0.61223 -0.76200
O 	O 	0.99161 0.98613 0.57775 -0.61500
C 	C 	0.82278 0.87515 0.66918 0.31400
O 	O 	0.87351 0.95047 0.68019 -0.43000
O 	O 	0.86047 0.86067 0.65609 -0.40600
O 	O 	0.98911 0.01956 0.46871 -0.38100
C 	C 	0.80344 0.07176 0.55542 0.30400
O 	O 	0.80170 0.02827 0.59414 -0.39500
O 	O 	0.85096 0.07850 0.53743 -0.39000
O 	O 	0.99234 0.79727 0.58986 -0.43800
C 	C 	0.96936 0.91241 0.87251 -0.01000
C 	C 	0.94851 0.89556 0.90730 -0.04800
C 	C 	0.91499 0.84156 0.85359 -0.03900
C 	C 	0.93783 0.85545 0.82054 -0.07000
H 	H 	0.88902 0.82857 0.91867 0.03700
H 	H 	0.85548 0.77467 0.86500 0.03000
H 	H 	0.89532 0.79923 0.80677 0.03900
H 	H 	0.98550 0.90040 0.75459 0.01600
C 	C 	0.95979 0.96573 0.41572 -0.11300
C 	C 	0.95527 0.95769 0.34359 -0.03600
C 	C 	0.90131 0.87630 0.37138 0.00800
C 	C 	0.90337 0.88101 0.40698 -0.01800
C 	C 	0.84707 0.79095 0.36375 -0.04700
C 	C 	0.84559 0.78506 0.32896 -0.04400
C 	C 	0.90141 0.86412 0.30190 0.00300
C 	C 	0.95989 0.95114 0.30969 -0.03000
C 	C 	0.89841 0.85715 0.26671 -0.00700
H 	H 	0.86622 0.81849 0.42927 0.03700
H 	H 	0.80518 0.72870 0.38479 0.03400
H 	H 	0.80133 0.71845 0.32318 0.03300
H 	H 	0.85033 0.79103 0.25980 0.03000
C 	C 	0.56177 0.75827 0.63112 -0.07600
C 	C 	0.53911 0.74121 0.66521 -0.02900
C 	C 	0.60683 0.75257 0.70295 0.04000
C 	C 	0.69820 0.78606 0.70529 -0.01900
C 	C 	0.72247 0.80845 0.67046 -0.11800
C 	C 	0.65152 0.78766 0.63399 0.09700
C 	C 	0.67103 0.79646 0.59816 -0.20400
H 	H 	0.50836 0.74645 0.60251 0.04900
H 	H 	0.75223 0.79982 0.73364 0.03500
C 	C 	0.58260 0.73072 0.74047 -0.17900
H 	H 	0.69607 0.75461 0.60794 0.07700
H 	H 	0.72579 0.86889 0.58579 0.07500
H 	H 	0.60617 0.77203 0.57298 0.06700
H 	H 	0.52007 0.65846 0.74693 0.06800
H 	H 	0.56615 0.77651 0.73553 0.06800
H 	H 	0.64239 0.74016 0.76790 0.06000
C 	C 	0.62770 0.69941 0.20211 -0.03100
C 	C 	0.62104 0.67822 0.17063 -0.10700
C 	C 	0.53592 0.59988 0.15699 0.09700
C 	C 	0.45762 0.58420 0.19628 -0.02700
C 	C 	0.54672 0.65167 0.21566 0.04400
C 	C 	0.55588 0.67514 0.24970 -0.18000
H 	H 	0.69426 0.75728 0.21394 0.03900
C 	C 	0.52945 0.56994 0.12630 -0.20400
H 	H 	0.62906 0.70509 0.26955 0.06300
H 	H 	0.50649 0.61302 0.26940 0.06900
H 	H 	0.54015 0.72573 0.23666 0.06600
H 	H 	0.59340 0.57330 0.13450 0.08200
H 	H 	0.52370 0.61503 0.09538 0.07700
C 	C 	0.66039 0.14933 0.53336 -0.08200
C 	C 	0.72386 0.24389 0.51829 -0.02200
C 	C 	0.79936 0.27654 0.50485 0.03800
C 	C 	0.82050 0.21699 0.51390 -0.01500
C 	C 	0.76361 0.12451 0.53371 -0.11500
C 	C 	0.67771 0.08896 0.53933 0.11200
C 	C 	0.60585 0.98736 0.55288 -0.22000
H 	H 	0.59901 0.12295 0.54145 0.05500
H 	H 	0.88405 0.24370 0.50751 0.03300
C 	C 	0.85860 0.37451 0.48172 -0.17300
H 	H 	0.53275 0.96902 0.53897 0.06500
H 	H 	0.61833 0.96623 0.58669 0.07500
H 	H 	0.61018 0.94845 0.54299 0.07600
H 	H 	0.91485 0.41841 0.50355 0.05700
H 	H 	0.81381 0.39912 0.46018 0.06400
H 	H 	0.89325 0.38158 0.46337 0.05500
C 	C 	0.95490 0.69033 0.52746 -0.00300
C 	C 	0.96661 0.69136 0.56610 -0.15900
C 	C 	0.93344 0.60894 0.59699 0.12000
C 	C 	0.88195 0.52614 0.58747 -0.08900
C 	C 	0.86376 0.52488 0.54781 -0.02200
C 	C 	0.90617 0.60795 0.51851 0.02900
C 	C 	0.89319 0.60848 0.47654 -0.17200
H 	H 	0.98406 0.75398 0.50431 0.02400
H 	H 	0.85110 0.46205 0.61025 0.04900
C 	C 	0.95415 0.60882 0.64009 -0.25400
H 	H 	0.94485 0.67761 0.46012 0.05400
H 	H 	0.82022 0.58720 0.45819 0.06500
H 	H 	0.90456 0.56080 0.47895 0.05800
H 	H 	0.92202 0.63566 0.64063 0.08500
H 	H 	0.92466 0.53882 0.66060 0.07100
C 	C 	0.52216 0.31029 0.50937 -0.02700
C 	C 	0.56050 0.27744 0.58670 -0.18100
H 	H 	0.62218 0.34808 0.58997 0.07100
H 	H 	0.58621 0.23982 0.59105 0.07100
C 	C 	0.65756 0.16045 0.97532 -0.08000
C 	C 	0.72209 0.23233 0.99491 -0.01600
C 	C 	0.81351 0.25245 0.01763 0.03000
C 	C 	0.83796 0.20116 0.01954 -0.01400
C 	C 	0.76860 0.12124 0.00558 -0.12600
C 	C 	0.68001 0.10443 0.98067 0.10500
C 	C 	0.60734 0.02422 0.96154 -0.18800
H 	H 	0.58861 0.14620 0.95701 0.05600
H 	H 	0.90827 0.21775 0.03596 0.02800
C 	C 	0.88205 0.32238 0.04268 -0.17100
H 	H 	0.55693 0.03579 0.93410 0.07000
H 	H 	0.56658 0.96152 0.98400 0.06800
H 	H 	0.64241 0.01362 0.95164 0.07800
H 	H 	0.84557 0.31023 0.06190 0.06200
H 	H 	0.91231 0.39243 0.02232 0.06300
C 	C 	0.84576 0.48512 0.04938 -0.07100
C 	C 	0.79598 0.49680 0.00858 -0.04800
C 	C 	0.79032 0.57141 0.99016 0.06500
C 	C 	0.82514 0.62663 0.01406 -0.04800
C 	C 	0.87203 0.61272 0.05530 -0.10000
C 	C 	0.87820 0.53853 0.07349 0.09400
C 	C 	0.92313 0.51849 0.11830 -0.24200
H 	H 	0.85085 0.42836 0.06351 0.04300
H 	H 	0.82088 0.68400 0.99992 0.04700
C 	C 	0.74241 0.58915 0.94559 -0.18800
H 	H 	0.90233 0.44755 0.12985 0.06800
H 	H 	0.89982 0.52556 0.13637 0.07400
H 	H 	0.66431 0.54423 0.94186 0.07100
H 	H 	0.75904 0.57559 0.92735 0.06700
H 	H 	0.76701 0.66143 0.93313 0.06200
C 	C 	0.49110 0.22780 0.01341 -0.04500
H 	H 	0.62634 0.20732 0.08119 0.06900
