data_crystal

_cell_length_a 15.80559
_cell_length_b 11.66750
_cell_length_c 19.21764
_cell_angle_alpha 90.00000
_cell_angle_beta  90.00000
_cell_angle_gamma 90.03595

_symmetry_space_group_name_	'P 1'
_symmetry_space_group_name_H-M	'P 1'

loop_
_symmetry_equiv_pos_as_xyz
  x,y,z

loop_
_atom_site_label
_atom_site_type_symbol
_atom_site_fract_x
_atom_site_fract_y
_atom_site_fract_z
_atom_site_charge
Co	Co	0.92137 0.84335 0.99586 1.09200
Co	Co	0.12695 0.08477 0.99557 1.11100
Co	Co	0.12661 0.84250 0.99542 1.11100
Co	Co	0.92174 0.08532 0.99530 1.09000
C 	C 	0.80539 0.81877 0.11695 0.28800
Co	Co	0.73696 0.96399 0.99848 1.08800
Co	Co	0.31140 0.96373 0.99749 1.08900
C 	C 	0.78522 0.14280 0.89343 0.29800
O 	O 	0.32717 0.84029 0.92091 -0.42800
O 	O 	0.17871 0.96415 0.98005 -0.83200
C 	C 	0.26297 0.78469 0.89308 0.29900
O 	O 	0.02358 0.74112 0.00274 -0.27600
O 	O 	0.02467 0.18679 0.00306 -0.27900
C 	C 	0.26333 0.14377 0.89374 0.29800
O 	O 	0.02429 0.96381 0.95762 -0.60400
C 	C 	0.24310 0.81859 0.11641 0.28500
C 	C 	0.78454 0.78426 0.89366 0.29800
C 	C 	0.80547 0.10991 0.11675 0.28800
O 	O 	0.20292 0.74173 0.93304 -0.44500
O 	O 	0.72070 0.84079 0.92139 -0.42800
O 	O 	0.84462 0.74192 0.93379 -0.45800
O 	O 	0.32736 0.08723 0.92112 -0.43200
O 	O 	0.20356 0.18609 0.93418 -0.44700
O 	O 	0.30637 0.83344 0.07247 -0.29700
O 	O 	0.16451 0.83961 0.09765 -0.32500
O 	O 	0.74183 0.09412 0.07328 -0.29900
O 	O 	0.88395 0.08872 0.09775 -0.34800
O 	O 	0.86950 0.96384 0.98033 -0.84400
C 	C 	0.24353 0.10827 0.11690 0.28400
O 	O 	0.30685 0.09336 0.07300 -0.29900
O 	O 	0.16496 0.08701 0.09813 -0.32600
O 	O 	0.74178 0.83424 0.07342 -0.29700
O 	O 	0.88382 0.84052 0.09804 -0.34700
O 	O 	0.72109 0.08754 0.92164 -0.42900
O 	O 	0.84561 0.18571 0.93309 -0.46100
Co	Co	0.62565 0.58445 0.50454 1.18600
Co	Co	0.41985 0.34322 0.50412 1.18600
Co	Co	0.42030 0.58528 0.50422 1.18500
Co	Co	0.62492 0.34251 0.50442 1.18500
C 	C 	0.76212 0.64292 0.60649 0.28500
Co	Co	0.80993 0.46322 0.50227 1.16100
Co	Co	0.23547 0.46420 0.50205 1.16700
C 	C 	0.74148 0.31727 0.38363 0.30000
O 	O 	0.24027 0.59436 0.42728 -0.39200
O 	O 	0.36812 0.46377 0.51982 -0.78100
C 	C 	0.30344 0.60923 0.38325 0.29900
O 	O 	0.52342 0.68651 0.49686 -0.47200
O 	O 	0.52201 0.24088 0.49726 -0.47300
C 	C 	0.30332 0.31928 0.38335 0.29900
O 	O 	0.52248 0.46400 0.54234 -0.58000
C 	C 	0.28437 0.64309 0.60672 0.28500
C 	C 	0.74207 0.60865 0.38311 0.30000
C 	C 	0.76123 0.28484 0.60709 0.28500
O 	O 	0.38209 0.58838 0.40191 -0.40600
O 	O 	0.80569 0.59267 0.42658 -0.40300
O 	O 	0.66360 0.58702 0.40198 -0.40400
O 	O 	0.24007 0.33423 0.42729 -0.39200
O 	O 	0.38191 0.34057 0.40203 -0.40800
O 	O 	0.22003 0.58780 0.57888 -0.37300
O 	O 	0.34445 0.68594 0.56676 -0.38500
O 	O 	0.82553 0.33976 0.57888 -0.39000
O 	O 	0.70081 0.24200 0.56742 -0.38900
O 	O 	0.67727 0.46370 0.51982 -0.78200
C 	C 	0.28335 0.28432 0.60654 0.28400
O 	O 	0.21943 0.34114 0.57919 -0.37600
O 	O 	0.34303 0.24182 0.56609 -0.38300
O 	O 	0.82606 0.58677 0.57866 -0.39200
O 	O 	0.70202 0.68535 0.56642 -0.38800
O 	O 	0.80497 0.33293 0.42725 -0.40400
O 	O 	0.66294 0.33860 0.40242 -0.40700
C 	C 	0.20623 0.13666 0.24186 -0.01200
C 	C 	0.25983 0.16068 0.18542 -0.04600
C 	C 	0.32711 0.23808 0.19406 -0.01000
C 	C 	0.34050 0.29103 0.25836 0.00100
C 	C 	0.28693 0.26698 0.31481 -0.06900
C 	C 	0.21962 0.18961 0.30617 -0.00100
H 	H 	0.15440 0.07663 0.23601 0.05400
H 	H 	0.36833 0.25851 0.15075 0.07400
H 	H 	0.39234 0.35106 0.26421 0.04900
H 	H 	0.17841 0.16918 0.34947 0.05100
C 	C 	0.34634 0.17700 0.78470 -0.00800
C 	C 	0.26909 0.18300 0.82079 -0.08600
C 	C 	0.19615 0.22018 0.78573 -0.00600
C 	C 	0.20033 0.25115 0.71559 -0.01600
C 	C 	0.27758 0.24515 0.67949 -0.06400
C 	C 	0.35052 0.20797 0.71456 -0.02000
H 	H 	0.40326 0.14864 0.81092 0.03100
H 	H 	0.13589 0.22362 0.81251 0.02900
H 	H 	0.14342 0.27950 0.68936 0.05300
H 	H 	0.41078 0.20453 0.68778 0.03200
C 	C 	0.32683 0.68935 0.19374 -0.01000
C 	C 	0.25946 0.76647 0.18500 -0.04600
C 	C 	0.20593 0.79064 0.24144 -0.01100
C 	C 	0.21949 0.73815 0.30586 -0.00000
C 	C 	0.28690 0.66109 0.31461 -0.06800
C 	C 	0.34039 0.63686 0.25815 0.00200
H 	H 	0.36799 0.66880 0.15044 0.07400
H 	H 	0.15403 0.85046 0.23552 0.05600
H 	H 	0.17833 0.75871 0.34917 0.05300
H 	H 	0.39229 0.57705 0.26408 0.04900
C 	C 	0.84917 0.23683 0.21503 -0.01100
C 	C 	0.78933 0.16234 0.18529 -0.05200
C 	C 	0.71374 0.13908 0.22092 -0.01000
C 	C 	0.69796 0.19000 0.28548 -0.00100
C 	C 	0.75776 0.26455 0.31520 -0.07100
C 	C 	0.83339 0.28776 0.27960 -0.00300
H 	H 	0.90741 0.25641 0.18778 0.04600
H 	H 	0.66750 0.08086 0.19890 0.04800
H 	H 	0.63971 0.17043 0.31273 0.04400
H 	H 	0.87961 0.34601 0.30160 0.03100
C 	C 	0.70080 0.75196 0.78480 -0.00800
C 	C 	0.77814 0.74487 0.82071 -0.08900
C 	C 	0.85059 0.70628 0.78549 -0.01100
C 	C 	0.84582 0.67498 0.71540 -0.02000
C 	C 	0.76849 0.68212 0.67949 -0.06800
C 	C 	0.69604 0.72066 0.71472 -0.02000
H 	H 	0.64426 0.78143 0.81111 0.03200
H 	H 	0.91092 0.70192 0.81211 0.01000
H 	H 	0.90237 0.64550 0.68909 0.03400
H 	H 	0.63570 0.72500 0.68810 0.03300
C 	C 	0.80957 0.28746 0.79953 -0.01100
C 	C 	0.77848 0.18000 0.82033 -0.09100
C 	C 	0.74211 0.10660 0.77068 -0.01000
C 	C 	0.73671 0.14029 0.70102 -0.01700
C 	C 	0.76782 0.24773 0.68022 -0.07000
C 	C 	0.80419 0.32114 0.72987 -0.02400
H 	H 	0.83712 0.34536 0.83735 0.02000
H 	H 	0.71888 0.02289 0.78594 0.03500
H 	H 	0.70918 0.08238 0.66320 0.04600
H 	H 	0.82744 0.40484 0.71460 0.03400
C 	C 	0.30913 0.78785 0.70038 -0.01400
C 	C 	0.27829 0.68015 0.67983 -0.06400
C 	C 	0.24293 0.60634 0.72972 -0.01800
C 	C 	0.23830 0.63987 0.79943 -0.00600
C 	C 	0.26913 0.74757 0.81999 -0.08400
C 	C 	0.30449 0.82138 0.77009 -0.00700
H 	H 	0.33588 0.84604 0.66235 0.05000
H 	H 	0.21994 0.52243 0.71462 0.04200
H 	H 	0.21154 0.58167 0.83746 0.03000
H 	H 	0.32747 0.90530 0.78519 0.03900
C 	C 	0.71377 0.78808 0.22101 -0.00900
C 	C 	0.78938 0.76556 0.18527 -0.05100
C 	C 	0.84938 0.69109 0.21471 -0.01100
C 	C 	0.83378 0.63949 0.27910 -0.00300
C 	C 	0.75816 0.66200 0.31484 -0.07000
C 	C 	0.69817 0.73649 0.28541 -0.00100
H 	H 	0.66740 0.84625 0.19922 0.04900
H 	H 	0.90764 0.67208 0.18735 0.04600
H 	H 	0.88014 0.58129 0.30088 0.03100
H 	H 	0.63992 0.75552 0.31277 0.04500
