data_crystal

_cell_length_a 24.83255
_cell_length_b 22.09035
_cell_length_c 31.88287
_cell_angle_alpha 104.02563
_cell_angle_beta  115.93682
_cell_angle_gamma 111.52395

_symmetry_space_group_name_	'P 1'
_symmetry_space_group_name_H-M	'P 1'

loop_
_symmetry_equiv_pos_as_xyz
  x,y,z

loop_
_atom_site_label
_atom_site_type_symbol
_atom_site_fract_x
_atom_site_fract_y
_atom_site_fract_z
_atom_site_charge
C 	C 	0.70573 0.48959 0.91681 0.03300
C 	C 	0.73816 0.49870 0.96848 -0.03200
C 	C 	0.72061 0.43678 0.97621 -0.06800
C 	C 	0.67050 0.36536 0.93245 0.08500
C 	C 	0.63404 0.35644 0.88076 -0.05900
C 	C 	0.65184 0.41852 0.87304 -0.01800
N 	N 	0.66025 0.30208 0.94087 -0.14200
C 	C 	0.47865 0.21388 0.94278 0.03900
C 	C 	0.47011 0.19229 0.89398 -0.01800
C 	C 	0.52944 0.22206 0.89289 -0.05900
C 	C 	0.59823 0.27013 0.94086 0.08300
C 	C 	0.60656 0.29036 0.98945 -0.06700
C 	C 	0.54711 0.26302 0.99046 -0.03700
C 	C 	0.73208 0.17075 0.89426 0.04000
C 	C 	0.66915 0.13638 0.89062 -0.02500
C 	C 	0.64144 0.17743 0.90204 -0.05700
C 	C 	0.67346 0.25246 0.91335 0.07900
C 	C 	0.73038 0.28262 0.90881 -0.05600
C 	C 	0.75915 0.24186 0.89918 -0.01900
H 	H 	0.77930 0.55359 0.00247 0.06800
H 	H 	0.74792 0.44396 0.01613 0.06900
H 	H 	0.59510 0.30150 0.84665 0.06100
H 	H 	0.62621 0.41119 0.83301 0.05900
H 	H 	0.41750 0.15321 0.85700 0.07100
H 	H 	0.52234 0.20593 0.85509 0.06000
H 	H 	0.65931 0.32816 0.02645 0.06900
H 	H 	0.55416 0.28008 0.02829 0.06800
H 	H 	0.64653 0.08038 0.88509 0.06800
H 	H 	0.59854 0.15229 0.90577 0.05900
H 	H 	0.75636 0.33985 0.91728 0.07200
H 	H 	0.80690 0.26835 0.90080 0.06600
C 	C 	0.73876 0.51070 0.46110 0.03000
C 	C 	0.78620 0.51829 0.51006 -0.01600
C 	C 	0.76723 0.45944 0.52105 -0.05800
C 	C 	0.69969 0.39385 0.48436 0.08400
C 	C 	0.64936 0.38957 0.43806 -0.06200
C 	C 	0.66952 0.44687 0.42577 -0.02400
N 	N 	0.68414 0.33086 0.49365 -0.14200
C 	C 	0.51254 0.24808 0.50751 0.03800
C 	C 	0.49931 0.22209 0.45710 -0.01400
C 	C 	0.55560 0.24842 0.45223 -0.05500
C 	C 	0.62527 0.30334 0.49759 0.08400
C 	C 	0.63825 0.32944 0.54777 -0.05600
C 	C 	0.58234 0.30153 0.55283 -0.02500
C 	C 	0.73309 0.18754 0.42607 0.03400
C 	C 	0.75044 0.20648 0.47749 -0.01300
C 	C 	0.73084 0.25053 0.49845 -0.05200
C 	C 	0.69350 0.27582 0.46822 0.08800
C 	C 	0.67075 0.25134 0.41491 -0.05600
C 	C 	0.69153 0.20833 0.39432 -0.01500
H 	H 	0.83854 0.56887 0.53881 0.06100
H 	H 	0.80546 0.46415 0.55762 0.06100
H 	H 	0.59576 0.34093 0.41071 0.05500
H 	H 	0.63173 0.44124 0.38854 0.05200
H 	H 	0.44543 0.18171 0.42175 0.07400
H 	H 	0.54506 0.22667 0.41336 0.06200
H 	H 	0.69194 0.37106 0.58291 0.05900
H 	H 	0.59309 0.32208 0.59187 0.05500
H 	H 	0.78167 0.18957 0.50197 0.06500
H 	H 	0.74719 0.26765 0.53904 0.06700
H 	H 	0.63749 0.26558 0.38959 0.05900
H 	H 	0.67658 0.19248 0.35412 0.06100
C 	C 	0.35479 0.55703 0.00182 0.06800
C 	C 	0.39485 0.61816 0.05236 -0.03200
C 	C 	0.43215 0.69024 0.06084 -0.05100
C 	C 	0.42962 0.70203 0.01892 0.09100
C 	C 	0.39063 0.64046 0.96843 -0.06500
C 	C 	0.35380 0.56836 0.96011 -0.03600
N 	N 	0.46220 0.77721 0.02714 -0.14100
C 	C 	0.62063 0.85526 0.99781 0.02800
C 	C 	0.58539 0.89180 0.99972 -0.04000
C 	C 	0.53123 0.86437 0.00675 -0.04300
C 	C 	0.51069 0.79899 0.01152 0.07700
C 	C 	0.54797 0.76371 0.01087 -0.05600
C 	C 	0.60040 0.79009 0.00202 -0.00700
C 	C 	0.30789 0.83573 0.98246 0.01300
C 	C 	0.36553 0.87054 0.03601 0.00900
C 	C 	0.41576 0.85068 0.05042 -0.06800
C 	C 	0.41092 0.79857 0.01134 0.10200
C 	C 	0.35573 0.76719 0.95737 -0.07800
C 	C 	0.30353 0.78424 0.94318 -0.01000
H 	H 	0.39632 0.60987 0.08488 0.06100
H 	H 	0.46177 0.73718 0.09972 0.06100
H 	H 	0.38987 0.64845 0.93606 0.05600
H 	H 	0.32397 0.52138 0.92118 0.06700
H 	H 	0.60089 0.94242 0.99678 0.05100
H 	H 	0.50710 0.89552 0.01033 0.05600
H 	H 	0.53790 0.71716 0.01861 0.06000
H 	H 	0.62701 0.76114 0.00023 0.07000
H 	H 	0.37116 0.91260 0.06644 0.06400
H 	H 	0.45883 0.87614 0.09196 0.06700
H 	H 	0.35363 0.73028 0.92657 0.06100
H 	H 	0.26023 0.75826 0.90162 0.05400
C 	C 	0.31317 0.53297 0.47129 0.03400
C 	C 	0.34774 0.58830 0.52308 -0.01500
C 	C 	0.38836 0.66314 0.53791 -0.05400
C 	C 	0.39580 0.68349 0.50149 0.08400
C 	C 	0.36493 0.62764 0.45063 -0.06000
C 	C 	0.32323 0.55282 0.43552 -0.02300
N 	N 	0.43083 0.76115 0.51562 -0.14100
C 	C 	0.60156 0.85099 0.50113 0.03400
C 	C 	0.53081 0.81324 0.45629 -0.01500
C 	C 	0.47444 0.78498 0.46097 -0.05800
C 	C 	0.48800 0.78963 0.50975 0.08300
C 	C 	0.55852 0.82673 0.55428 -0.05800
C 	C 	0.61505 0.85825 0.55026 -0.02500
C 	C 	0.29481 0.84288 0.48226 0.03500
C 	C 	0.36214 0.88395 0.53104 -0.01100
C 	C 	0.40738 0.85767 0.54115 -0.05300
C 	C 	0.38615 0.79063 0.50243 0.08800
C 	C 	0.31999 0.75143 0.45246 -0.05500
C 	C 	0.27439 0.77717 0.44273 -0.01700
H 	H 	0.34170 0.57337 0.55142 0.06500
H 	H 	0.41271 0.70559 0.57733 0.06600
H 	H 	0.37105 0.64201 0.42226 0.05500
H 	H 	0.29776 0.51041 0.39574 0.05600
H 	H 	0.51954 0.80589 0.41790 0.06900
H 	H 	0.42047 0.75908 0.42674 0.05900
H 	H 	0.56947 0.83192 0.59222 0.05800
H 	H 	0.66933 0.88744 0.58518 0.05000
H 	H 	0.37894 0.93560 0.56138 0.06100
H 	H 	0.45850 0.88866 0.57946 0.06500
H 	H 	0.30396 0.70150 0.42122 0.06100
H 	H 	0.22308 0.74596 0.40450 0.06100
Zn	Zn	0.18450 0.15473 0.00980 1.19700
Zn	Zn	0.06852 0.10464 0.89611 1.20300
O 	O 	0.05386 0.98237 0.80577 -0.43400
O 	O 	0.03547 0.07747 0.81967 -0.42200
O 	O 	0.04588 0.88039 0.86955 -0.46300
C 	C 	0.24628 0.11755 0.96181 0.33400
O 	O 	0.99789 0.00246 0.87264 -0.85700
C 	C 	0.19631 0.26333 0.97048 0.33300
O 	O 	0.26090 0.15095 0.00887 -0.41200
O 	O 	0.18010 0.07958 0.91962 -0.33900
O 	O 	0.08885 0.10998 0.96709 -0.77400
O 	O 	0.11195 0.97722 0.95278 -0.44400
O 	O 	0.14625 0.20725 0.92147 -0.43300
O 	O 	0.21177 0.25343 0.01244 -0.41700
Zn	Zn	0.86705 0.88184 0.89046 1.18000
Zn	Zn	0.98687 0.90706 0.98565 1.18100
Zn	Zn	0.02359 0.00696 0.94039 1.22300
C 	C 	0.85099 0.76068 0.91933 0.35800
C 	C 	0.83806 0.94014 0.96109 0.35300
O 	O 	0.93550 0.03935 0.92887 -0.45800
Zn	Zn	0.01266 0.05378 0.03469 1.21700
O 	O 	0.92014 0.80075 0.95734 -0.44900
O 	O 	0.82192 0.78091 0.88434 -0.44100
O 	O 	0.81526 0.91440 0.91105 -0.43800
O 	O 	0.89998 0.95217 0.99636 -0.47200
C 	C 	0.02903 0.98242 0.09945 0.32300
O 	O 	0.95660 0.90486 0.91387 -0.81000
C 	C 	0.93820 0.08935 0.96373 0.33000
O 	O 	0.01860 0.92722 0.06226 -0.38100
O 	O 	0.04500 0.04633 0.09962 -0.43100
O 	O 	0.98280 0.11448 0.01454 -0.45800
O 	O 	0.04927 0.01033 0.00772 -0.87000
Zn	Zn	0.01451 0.93532 0.83959 1.19700
C 	C 	0.04544 0.03225 0.79303 0.34100
C 	C 	0.09989 0.91655 0.91976 0.34500
H 	H 	0.10042 0.03071 0.03364 0.17400
H 	H 	0.94824 0.98909 0.84986 0.13100
Zn	Zn	0.14870 0.16050 0.49845 1.19700
Zn	Zn	0.03811 0.07600 0.37352 1.20900
O 	O 	0.01619 0.93614 0.28969 -0.43200
O 	O 	0.00408 0.03548 0.29598 -0.39100
O 	O 	0.02429 0.86699 0.37428 -0.46200
C 	C 	0.25454 0.14999 0.49160 0.32600
O 	O 	0.96704 0.97885 0.35763 -0.88700
C 	C 	0.15229 0.23974 0.43631 0.34600
O 	O 	0.24299 0.17659 0.52603 -0.42500
O 	O 	0.20087 0.10503 0.44126 -0.26400
O 	O 	0.05448 0.09785 0.44552 -0.75600
O 	O 	0.09049 0.97712 0.44948 -0.43600
O 	O 	0.11694 0.17472 0.39386 -0.39900
O 	O 	0.16409 0.24442 0.48188 -0.41900
Zn	Zn	0.84572 0.87154 0.39239 1.17800
Zn	Zn	0.97335 0.91985 0.49036 1.18100
Zn	Zn	0.99595 0.99863 0.42914 1.20400
C 	C 	0.84774 0.76511 0.43413 0.35800
C 	C 	0.81854 0.93190 0.46391 0.34800
O 	O 	0.90206 0.02398 0.40902 -0.45400
Zn	Zn	0.98454 0.06006 0.52187 1.20200
O 	O 	0.91518 0.81618 0.47423 -0.44400
O 	O 	0.81255 0.77523 0.39423 -0.43400
O 	O 	0.79218 0.90096 0.41317 -0.46400
O 	O 	0.88529 0.95622 0.49938 -0.45700
C 	C 	0.02562 0.02017 0.60423 0.35400
O 	O 	0.93581 0.89972 0.41340 -0.80100
C 	C 	0.90131 0.07663 0.43858 0.35600
O 	O 	0.01208 0.95848 0.57045 -0.40200
O 	O 	0.03180 0.07575 0.59410 -0.43100
O 	O 	0.93652 0.10207 0.49012 -0.47600
O 	O 	0.02635 0.01857 0.50029 -0.87500
Zn	Zn	0.98405 0.90664 0.33238 1.18100
C 	C 	0.00894 0.98233 0.27166 0.32300
C 	C 	0.08141 0.91410 0.42301 0.33800
H 	H 	0.07849 0.04471 0.52668 0.16600
H 	H 	0.91725 0.96443 0.33369 0.16100
C 	C 	0.04494 0.03579 0.74726 -0.07600
C 	C 	0.09393 0.02892 0.73846 0.18400
C 	C 	0.08628 0.02224 0.69107 -0.03800
C 	C 	0.03256 0.02632 0.65355 -0.07300
C 	C 	0.98652 0.03797 0.66396 0.17900
C 	C 	0.99240 0.04175 0.71030 -0.06200
H 	H 	0.12325 0.01572 0.68404 0.08300
H 	H 	0.95518 0.04802 0.71710 0.08000
Cl	Cl	0.16821 0.03441 0.78802 -0.27200
Cl	Cl	0.92056 0.04712 0.61903 -0.30700
C 	C 	0.02837 0.97477 0.14384 -0.07300
C 	C 	0.96685 0.91813 0.13413 0.16000
C 	C 	0.96053 0.92165 0.17609 -0.06600
C 	C 	0.01568 0.98035 0.22789 -0.07000
C 	C 	0.07907 0.03383 0.23816 0.19200
C 	C 	0.08489 0.03129 0.19617 -0.02900
H 	H 	0.91261 0.87886 0.16833 0.07400
H 	H 	0.13294 0.07414 0.20409 0.08200
Cl	Cl	0.89693 0.84292 0.06964 -0.30100
Cl	Cl	0.15244 0.10293 0.30364 -0.26700
C 	C 	0.26588 0.45423 0.45444 -0.00100
C 	C 	0.20208 0.42978 0.45059 0.14200
C 	C 	0.16270 0.35765 0.44137 -0.02200
C 	C 	0.18529 0.30876 0.43451 -0.09800
C 	C 	0.24586 0.33128 0.43398 0.20900
C 	C 	0.28625 0.40402 0.44450 -0.09100
H 	H 	0.11537 0.34016 0.44079 0.08900
H 	H 	0.33432 0.42196 0.44610 0.08800
Cl	Cl	0.17056 0.48871 0.45676 -0.28600
Cl	Cl	0.27271 0.26964 0.42135 -0.27300
C 	C 	0.66131 0.87754 0.49580 0.00200
C 	C 	0.67262 0.92778 0.47573 0.13900
C 	C 	0.72503 0.94626 0.46628 -0.01600
C 	C 	0.76912 0.91851 0.47946 -0.10700
C 	C 	0.76252 0.87442 0.50461 0.22200
C 	C 	0.70726 0.85210 0.51085 -0.09300
H 	H 	0.73222 0.98317 0.44949 0.07500
H 	H 	0.70019 0.81508 0.52763 0.08600
Cl	Cl	0.62479 0.97149 0.46537 -0.29500
Cl	Cl	0.82405 0.84837 0.52999 -0.31400
C 	C 	0.24598 0.86924 0.47199 0.00300
C 	C 	0.20940 0.86324 0.49588 0.13200
C 	C 	0.15809 0.88176 0.48161 -0.01800
C 	C 	0.14175 0.90454 0.44278 -0.12900
C 	C 	0.17955 0.91221 0.41987 0.20200
C 	C 	0.23198 0.89547 0.43506 -0.10300
H 	H 	0.12921 0.87592 0.49939 0.05600
H 	H 	0.26061 0.90104 0.41709 0.09900
Cl	Cl	0.22484 0.82930 0.54178 -0.30000
Cl	Cl	0.16076 0.94126 0.37123 -0.33600
C 	C 	0.31372 0.48106 0.99261 -0.03300
C 	C 	0.23907 0.44255 0.96481 0.14500
C 	C 	0.20115 0.37117 0.95735 -0.02200
C 	C 	0.23715 0.33812 0.97820 -0.11900
C 	C 	0.31185 0.37657 0.00585 0.21100
C 	C 	0.34964 0.44766 0.01286 -0.07500
H 	H 	0.14374 0.34181 0.93596 0.07300
H 	H 	0.40702 0.47697 0.03410 0.08400
Cl	Cl	0.19258 0.48387 0.94036 -0.29900
Cl	Cl	0.35868 0.33577 0.03077 -0.31500
C 	C 	0.67889 0.88536 0.99131 -0.00900
C 	C 	0.74901 0.90954 0.03127 0.15700
C 	C 	0.80201 0.93254 0.02265 0.00300
C 	C 	0.78600 0.93182 0.97432 -0.10600
C 	C 	0.71805 0.91678 0.93738 0.21200
C 	C 	0.66437 0.89102 0.94516 -0.09200
H 	H 	0.85555 0.95048 0.05348 0.08900
H 	H 	0.61153 0.87645 0.91561 0.08400
Cl	Cl	0.77191 0.91365 0.09303 -0.32000
Cl	Cl	0.70142 0.93769 0.88476 -0.32800
C 	C 	0.25461 0.85680 0.96697 0.01400
C 	C 	0.21355 0.84832 0.98735 0.12100
C 	C 	0.16506 0.87067 0.97323 -0.01000
C 	C 	0.15415 0.89760 0.93666 -0.12600
C 	C 	0.19314 0.90330 0.91471 0.21300
C 	C 	0.24404 0.88449 0.93079 -0.09600
H 	H 	0.13419 0.86478 0.98939 0.05000
H 	H 	0.27532 0.89118 0.91495 0.09100
Cl	Cl	0.21851 0.80511 0.02750 -0.28400
Cl	Cl	0.17889 0.93392 0.86698 -0.31500
C 	C 	0.76535 0.15354 0.40826 0.00800
C 	C 	0.73573 0.07669 0.38805 0.12200
C 	C 	0.77851 0.04863 0.39013 0.01000
C 	C 	0.85084 0.09724 0.41320 -0.14100
C 	C 	0.87648 0.17160 0.42462 0.21500
C 	C 	0.83365 0.19960 0.42218 -0.10700
H 	H 	0.75712 0.99021 0.37800 0.04100
H 	H 	0.85546 0.25832 0.43519 0.09500
Cl	Cl	0.64658 0.01589 0.36316 -0.27700
Cl	Cl	0.96405 0.23140 0.44587 -0.35400
C 	C 	0.76161 0.56967 0.44693 -0.00000
C 	C 	0.82255 0.59335 0.44679 0.13400
C 	C 	0.84929 0.65620 0.44106 -0.01900
C 	C 	0.81330 0.69303 0.43200 -0.11300
C 	C 	0.74756 0.66367 0.42552 0.21300
C 	C 	0.72341 0.60394 0.43488 -0.09900
H 	H 	0.89808 0.67636 0.44355 0.07000
H 	H 	0.67506 0.58433 0.43298 0.08600
Cl	Cl	0.86378 0.54277 0.45107 -0.30900
Cl	Cl	0.69388 0.69950 0.40431 -0.31400
C 	C 	0.32771 0.17696 0.50772 -0.09200
C 	C 	0.37741 0.25333 0.53061 0.21100
C 	C 	0.43880 0.27627 0.53183 -0.09000
C 	C 	0.45265 0.22397 0.51240 0.00000
C 	C 	0.40715 0.14864 0.49536 0.14300
C 	C 	0.34456 0.12543 0.49249 -0.01900
H 	H 	0.47484 0.33464 0.54663 0.08700
H 	H 	0.30822 0.06706 0.47731 0.08800
Cl	Cl	0.36266 0.32086 0.55648 -0.30800
Cl	Cl	0.42852 0.08310 0.47844 -0.29200
C 	C 	0.77938 0.14291 0.90895 0.00300
C 	C 	0.80140 0.12243 0.87713 0.14000
C 	C 	0.85345 0.10534 0.89549 -0.01800
C 	C 	0.88305 0.10730 0.94519 -0.11300
C 	C 	0.85814 0.12470 0.97591 0.20300
C 	C 	0.80743 0.14311 0.95782 -0.09000
H 	H 	0.87114 0.09090 0.87121 0.05500
H 	H 	0.79010 0.15841 0.98220 0.08700
Cl	Cl	0.76326 0.11655 0.81379 -0.30600
Cl	Cl	0.88700 0.12092 0.03605 -0.31300
C 	C 	0.80732 0.68747 0.91168 -0.11600
C 	C 	0.75071 0.67147 0.91667 0.21100
C 	C 	0.71458 0.60427 0.91499 -0.09800
C 	C 	0.73463 0.55299 0.90852 -0.00300
C 	C 	0.78895 0.56756 0.90102 0.13600
C 	C 	0.82503 0.63466 0.90268 -0.01800
H 	H 	0.67267 0.59306 0.92067 0.08800
H 	H 	0.86795 0.64645 0.89812 0.06900
Cl	Cl	0.72704 0.73672 0.92789 -0.31500
Cl	Cl	0.81428 0.50340 0.89175 -0.31500
C 	C 	0.41611 0.18475 0.94419 -0.00300
C 	C 	0.36469 0.20239 0.92232 0.15200
C 	C 	0.30789 0.17749 0.92659 -0.00700
C 	C 	0.30383 0.13867 0.95505 -0.08500
C 	C 	0.35575 0.12215 0.97776 0.20100
C 	C 	0.41060 0.14361 0.97112 -0.08700
H 	H 	0.26824 0.19090 0.90953 0.09000
H 	H 	0.45014 0.13011 0.98816 0.08300
Cl	Cl	0.37337 0.25989 0.89275 -0.30100
Cl	Cl	0.35361 0.07604 0.01555 -0.29600
