data_crystal

_cell_length_a 22.28106
_cell_length_b 21.51737
_cell_length_c 21.46320
_cell_angle_alpha 89.91400
_cell_angle_beta  89.90483
_cell_angle_gamma 89.90483

_symmetry_space_group_name_	'P 1'
_symmetry_space_group_name_H-M	'P 1'

loop_
_symmetry_equiv_pos_as_xyz
  x,y,z

loop_
_atom_site_label
_atom_site_type_symbol
_atom_site_fract_x
_atom_site_fract_y
_atom_site_fract_z
_atom_site_charge
Co	Co	0.01606 0.00928 0.40386 1.17700
Co	Co	0.00084 0.00116 0.60320 1.17400
Co	Co	0.94412 0.07885 0.51637 1.19200
Co	Co	0.07371 0.93210 0.49113 1.18600
C 	C 	0.11107 0.04630 0.31081 0.26000
Co	Co	0.11191 0.91118 0.34776 1.16700
Co	Co	0.91268 0.10520 0.66056 1.16800
C 	C 	0.05198 0.81322 0.42622 0.27600
O 	O 	0.83503 0.10435 0.60632 -0.39000
O 	O 	0.96728 0.06822 0.58930 -0.76300
C 	C 	0.82195 0.05896 0.56756 0.27100
O 	O 	0.94919 0.06958 0.42294 -0.44300
O 	O 	0.05415 0.92802 0.58297 -0.46600
C 	C 	0.88798 0.96637 0.66792 0.27400
O 	O 	0.03308 0.02798 0.50641 -0.58500
C 	C 	0.94583 0.20901 0.57057 0.25800
C 	C 	0.97716 0.89931 0.32816 0.30400
C 	C 	0.20446 0.92741 0.45014 0.26000
O 	O 	0.86366 0.03426 0.53185 -0.37800
O 	O 	0.03012 0.90168 0.30040 -0.41200
O 	O 	0.96461 0.93467 0.37651 -0.37500
O 	O 	0.89318 0.01849 0.70004 -0.38400
O 	O 	0.92089 0.95640 0.61792 -0.37100
O 	O 	0.93104 0.19447 0.62850 -0.35800
O 	O 	0.92947 0.17369 0.52324 -0.36200
O 	O 	0.19522 0.92055 0.38965 -0.35900
O 	O 	0.16428 0.90880 0.49166 -0.36500
O 	O 	0.07406 0.96424 0.42060 -0.78400
C 	C 	0.03705 0.08130 0.71305 0.22600
O 	O 	0.98703 0.11387 0.71871 -0.32900
O 	O 	0.03636 0.02484 0.68914 -0.36700
O 	O 	0.13020 0.99025 0.29593 -0.37400
O 	O 	0.05522 0.05497 0.32949 -0.37200
O 	O 	0.10054 0.82681 0.39427 -0.37700
O 	O 	0.02661 0.85522 0.46223 -0.40300
Co	Co	0.00446 0.39526 0.98836 1.17200
Co	Co	0.99160 0.59518 0.99341 1.19900
Co	Co	0.92171 0.50250 0.05328 1.18700
Co	Co	0.07416 0.48728 0.92927 1.18100
C 	C 	0.98053 0.30125 0.88878 0.29900
Co	Co	0.10794 0.34495 0.89465 1.16700
Co	Co	0.88322 0.64466 0.08264 1.17000
C 	C 	0.19209 0.43107 0.96251 0.27200
O 	O 	0.87405 0.58699 0.15953 -0.37600
O 	O 	0.92851 0.57600 0.02908 -0.77300
C 	C 	0.91975 0.55487 0.18052 0.27900
O 	O 	0.93918 0.41031 0.05199 -0.45500
O 	O 	0.06777 0.57965 0.94482 -0.48200
C 	C 	0.01539 0.67260 0.10436 0.23400
O 	O 	0.97840 0.49467 0.96570 -0.55600
C 	C 	0.79672 0.55091 0.02876 0.25600
C 	C 	0.11262 0.32693 0.03494 0.27200
C 	C 	0.08589 0.44246 0.79632 0.25800
O 	O 	0.95286 0.52200 0.14183 -0.38200
O 	O 	0.11327 0.29852 0.98045 -0.37500
O 	O 	0.07557 0.37358 0.04593 -0.40300
O 	O 	0.95974 0.68612 0.12067 -0.34300
O 	O 	0.02825 0.61974 0.07697 -0.41600
O 	O 	0.80383 0.60919 0.04693 -0.35900
O 	O 	0.82859 0.50520 0.05375 -0.36600
O 	O 	0.10472 0.38522 0.80704 -0.37000
O 	O 	0.09808 0.48784 0.83574 -0.37100
O 	O 	0.04963 0.41427 0.92994 -0.78800
C 	C 	0.90204 0.69324 0.95298 0.26600
O 	O 	0.88706 0.70857 0.01019 -0.35800
O 	O 	0.95483 0.66744 0.94146 -0.36400
O 	O 	0.03553 0.29026 0.86927 -0.39000
O 	O 	0.97066 0.31624 0.94742 -0.36700
O 	O 	0.18502 0.39679 0.91238 -0.38800
O 	O 	0.14811 0.46658 0.98324 -0.38700
Co	Co	0.61489 0.99949 0.02947 1.18800
Co	Co	0.42050 0.99928 0.02447 1.18900
Co	Co	0.50211 0.06153 0.10491 1.18700
Co	Co	0.53135 0.93681 0.94807 1.18700
C 	C 	0.69986 0.89140 0.05685 0.25500
Co	Co	0.67474 0.91636 0.92038 1.16900
Co	Co	0.36046 0.08201 0.13467 1.16800
C 	C 	0.58932 0.96564 0.82514 0.26500
O 	O 	0.41377 0.15916 0.15211 -0.38700
O 	O 	0.43280 0.03568 0.09058 -0.77300
C 	C 	0.44540 0.18470 0.10720 0.27200
O 	O 	0.59285 0.06013 0.09778 -0.46100
O 	O 	0.44121 0.94645 0.95001 -0.46300
C 	C 	0.33837 0.10505 0.99643 0.26400
O 	O 	0.51735 0.97613 0.04515 -0.57900
C 	C 	0.44801 0.03792 0.23410 0.26000
C 	C 	0.70214 0.04932 0.94023 0.27100
C 	C 	0.58486 0.81110 0.91665 0.27000
O 	O 	0.48253 0.15028 0.07418 -0.37500
O 	O 	0.72544 0.99340 0.94579 -0.38000
O 	O 	0.65016 0.06169 0.96632 -0.37400
O 	O 	0.32702 0.12386 0.05388 -0.36800
O 	O 	0.39015 0.07893 0.98229 -0.39900
O 	O 	0.39143 0.03875 0.21511 -0.35900
O 	O 	0.49176 0.06416 0.20132 -0.36300
O 	O 	0.62694 0.84098 0.88556 -0.39200
O 	O 	0.53906 0.84103 0.94189 -0.36600
O 	O 	0.60134 0.94704 0.97430 -0.76800
C 	C 	0.30254 0.96529 0.08088 0.26200
O 	O 	0.29806 0.01033 0.12237 -0.37600
O 	O 	0.35533 0.94442 0.06359 -0.36900
O 	O 	0.70037 0.86822 0.99966 -0.35200
O 	O 	0.68666 0.95075 0.06770 -0.36800
O 	O 	0.64557 0.96612 0.84352 -0.37500
O 	O 	0.54612 0.98155 0.86412 -0.37700
C 	C 	0.58763 0.65037 0.94573 0.11800
C 	C 	0.60305 0.60629 0.99112 -0.08100
C 	C 	0.64952 0.56396 0.97817 0.01500
C 	C 	0.68251 0.56811 0.92372 0.12200
C 	C 	0.66730 0.61249 0.87854 -0.08600
C 	C 	0.61807 0.65169 0.88959 0.01400
O 	O 	0.56194 0.70704 0.96203 -0.18400
C 	C 	0.58201 0.74301 0.91207 0.04700
C 	C 	0.61459 0.71032 0.86832 -0.05500
O 	O 	0.74125 0.54746 0.92984 -0.19800
C 	C 	0.74247 0.53582 0.99378 0.05500
C 	C 	0.68719 0.54241 0.02211 -0.05800
H 	H 	0.58442 0.60969 0.03766 0.06900
H 	H 	0.69721 0.62113 0.83962 0.07000
H 	H 	0.64662 0.73103 0.83639 0.06000
H 	H 	0.68152 0.55152 0.07148 0.06300
C 	C 	0.87397 0.20646 0.81630 0.11000
C 	C 	0.85322 0.14508 0.81436 -0.10100
C 	C 	0.79387 0.13314 0.83253 0.01300
C 	C 	0.75809 0.17924 0.85789 0.11800
C 	C 	0.77958 0.24020 0.86190 -0.08500
C 	C 	0.83677 0.25335 0.83780 0.01500
O 	O 	0.93470 0.21959 0.82231 -0.17400
C 	C 	0.93051 0.27704 0.85198 0.04200
C 	C 	0.87262 0.29798 0.86038 -0.05500
O 	O 	0.71449 0.15713 0.89866 -0.17900
C 	C 	0.72892 0.09410 0.89687 0.04800
C 	C 	0.77556 0.07920 0.85746 -0.05700
H 	H 	0.88410 0.10722 0.80517 0.06300
H 	H 	0.75511 0.27477 0.88845 0.07400
H 	H 	0.85921 0.33133 0.89561 0.05500
H 	H 	0.80330 0.03801 0.86180 0.05900
C 	C 	0.20397 0.83969 0.06306 0.11900
C 	C 	0.19726 0.77592 0.07336 -0.08800
C 	C 	0.15128 0.75591 0.11317 0.01400
C 	C 	0.11043 0.79730 0.13812 0.11300
C 	C 	0.11883 0.86145 0.13034 -0.09200
C 	C 	0.16525 0.88137 0.09083 0.01200
O 	O 	0.25876 0.86508 0.04641 -0.18400
C 	C 	0.25071 0.92492 0.07000 0.04300
C 	C 	0.19489 0.93539 0.09621 -0.05600
O 	O 	0.05404 0.77181 0.14865 -0.20200
C 	C 	0.06472 0.71170 0.12659 0.04700
C 	C 	0.12281 0.70168 0.10670 -0.06200
H 	H 	0.22783 0.74293 0.05213 0.07200
H 	H 	0.08836 0.89448 0.15164 0.06500
H 	H 	0.18517 0.97057 0.13084 0.05900
H 	H 	0.13585 0.66619 0.07347 0.05900
C 	C 	0.31751 0.40970 0.05894 0.12100
C 	C 	0.34018 0.37561 0.10944 -0.08500
C 	C 	0.39268 0.34043 0.10041 0.01400
C 	C 	0.41646 0.33158 0.04165 0.11600
C 	C 	0.39166 0.36293 0.99045 -0.07800
C 	C 	0.34483 0.40544 0.00129 0.00800
O 	O 	0.25782 0.42871 0.05647 -0.18700
C 	C 	0.25149 0.43401 0.99195 0.04400
C 	C 	0.30316 0.42073 0.95891 -0.05100
O 	O 	0.44766 0.27586 0.03490 -0.17900
C 	C 	0.43939 0.25167 0.09473 0.04600
C 	C 	0.40710 0.29004 0.13404 -0.05400
H 	H 	0.31511 0.37257 0.15264 0.07000
H 	H 	0.40515 0.35100 0.94343 0.07100
H 	H 	0.30409 0.40581 0.91069 0.06100
H 	H 	0.38223 0.27422 0.17451 0.06000
C 	C 	0.68690 0.97929 0.58873 0.12000
C 	C 	0.66049 0.93345 0.62618 -0.08800
C 	C 	0.61213 0.95017 0.66478 0.01700
C 	C 	0.59444 0.01145 0.67077 0.11600
C 	C 	0.62164 0.05749 0.63417 -0.08400
C 	C 	0.66599 0.03975 0.59117 0.01200
O 	O 	0.74619 0.97431 0.56902 -0.18200
C 	C 	0.75979 0.03727 0.56267 0.04500
C 	C 	0.71206 0.07638 0.57457 -0.05400
O 	O 	0.56997 0.02543 0.72869 -0.18200
C 	C 	0.57770 0.96813 0.75817 0.04800
C 	C 	0.60089 0.92268 0.71977 -0.06100
H 	H 	0.68122 0.88804 0.63028 0.07200
H 	H 	0.61322 0.10617 0.64374 0.07100
H 	H 	0.71655 0.12459 0.58843 0.06100
H 	H 	0.62492 0.88212 0.73663 0.05400
C 	C 	0.17283 0.08750 0.79616 0.11800
C 	C 	0.23510 0.09096 0.80367 -0.08900
C 	C 	0.25746 0.12414 0.85492 0.01200
C 	C 	0.21945 0.15067 0.89847 0.11300
C 	C 	0.15706 0.14924 0.88926 -0.09500
C 	C 	0.13514 0.11475 0.83885 0.01700
O 	O 	0.14596 0.07469 0.73926 -0.19400
C 	C 	0.08867 0.09854 0.75162 0.05700
C 	C 	0.08201 0.12257 0.81089 -0.06700
O 	O 	0.24447 0.15569 0.95756 -0.17900
C 	C 	0.30033 0.12844 0.94562 0.04400
C 	C 	0.30856 0.11001 0.88463 -0.05600
H 	H 	0.26512 0.06886 0.77069 0.07100
H 	H 	0.12677 0.17064 0.92244 0.07400
H 	H 	0.04548 0.15168 0.82705 0.07100
H 	H 	0.33956 0.07400 0.86991 0.05900
C 	C 	0.42594 0.02450 0.39273 0.11900
C 	C 	0.38036 0.03876 0.43552 -0.08700
C 	C 	0.34853 0.98989 0.46357 0.01600
C 	C 	0.35925 0.92880 0.44722 0.11900
C 	C 	0.40456 0.91456 0.40412 -0.08500
C 	C 	0.43858 0.96322 0.37860 0.01600
O 	O 	0.44082 0.06569 0.34535 -0.18600
C 	C 	0.45906 0.02357 0.29970 0.05100
C 	C 	0.45977 0.96274 0.31984 -0.06000
O 	O 	0.30939 0.89075 0.45364 -0.18100
C 	C 	0.26658 0.93506 0.47057 0.05200
C 	C 	0.28998 0.99373 0.47870 -0.05900
H 	H 	0.36525 0.08636 0.44082 0.07000
H 	H 	0.40810 0.86798 0.38532 0.07200
H 	H 	0.45625 0.92310 0.28889 0.05400
H 	H 	0.26370 0.03603 0.47473 0.04800
C 	C 	0.84129 0.83537 0.27456 0.11600
C 	C 	0.78179 0.84915 0.25832 -0.08400
C 	C 	0.76195 0.83307 0.19850 0.01700
C 	C 	0.80125 0.81099 0.15384 0.11000
C 	C 	0.86190 0.80191 0.16869 -0.09500
C 	C 	0.88003 0.81073 0.23066 0.02000
O 	O 	0.87008 0.86642 0.32260 -0.17900
C 	C 	0.92931 0.86035 0.30218 0.03800
C 	C 	0.93583 0.82706 0.24775 -0.04900
O 	O 	0.78287 0.82255 0.09312 -0.18100
C 	C 	0.73027 0.85562 0.10565 0.05300
C 	C 	0.71729 0.86212 0.16807 -0.06200
H 	H 	0.75353 0.87596 0.28943 0.07300
H 	H 	0.89461 0.79372 0.13223 0.07700
H 	H 	0.97318 0.83209 0.21583 0.08400
H 	H 	0.68944 0.89860 0.18760 0.05800
C 	C 	0.00759 0.44408 0.65763 0.08800
C 	C 	0.95649 0.41565 0.63263 -0.05800
C 	C 	0.96394 0.37081 0.58580 0.04700
C 	C 	0.02041 0.35111 0.56783 0.08600
C 	C 	0.07151 0.37984 0.59246 -0.08200
C 	C 	0.06395 0.42814 0.63577 0.01500
O 	O 	0.00768 0.46646 0.71833 -0.20400
C 	C 	0.06828 0.45858 0.73258 0.04900
C 	C 	0.10235 0.43834 0.68284 -0.05500
O 	O 	0.02212 0.28978 0.54756 -0.21600
C 	C 	0.96227 0.27364 0.55756 0.08900
C 	C 	0.92713 0.32196 0.57883 -0.07100
H 	H 	0.91304 0.42270 0.65428 0.06800
H 	H 	0.11556 0.36015 0.58398 0.06700
H 	H 	0.14502 0.41448 0.68774 0.06100
H 	H 	0.88578 0.31573 0.60483 0.06700
C 	C 	0.83654 0.82327 0.72581 0.12300
C 	C 	0.85614 0.76460 0.74588 -0.08900
C 	C 	0.84287 0.74614 0.80707 0.02000
C 	C 	0.81750 0.78695 0.84927 0.10500
C 	C 	0.80099 0.84695 0.83014 -0.07800
C 	C 	0.80782 0.86279 0.76700 -0.00000
O 	O 	0.86404 0.85365 0.67630 -0.17900
C 	C 	0.85171 0.91504 0.69298 0.04900
C 	C 	0.81755 0.92094 0.74635 -0.05100
O 	O 	0.83142 0.77366 0.91100 -0.17600
C 	C 	0.86897 0.72250 0.90150 0.05300
C 	C 	0.87579 0.70541 0.84010 -0.06100
H 	H 	0.88518 0.73667 0.71657 0.07800
H 	H 	0.78805 0.88166 0.86418 0.03300
H 	H 	0.81659 0.96192 0.77559 0.05700
H 	H 	0.91304 0.67855 0.82183 0.06700
C 	C 	0.93172 0.59760 0.33696 0.11800
C 	C 	0.92088 0.64777 0.37715 -0.08500
C 	C 	0.96954 0.67337 0.40955 0.03600
C 	C 	0.02773 0.65513 0.39697 0.09200
C 	C 	0.03889 0.60786 0.35351 -0.10900
C 	C 	0.98973 0.57725 0.32673 0.03400
O 	O 	0.89255 0.58341 0.28891 -0.18000
C 	C 	0.93277 0.55548 0.24747 0.03500
C 	C 	0.99061 0.55094 0.26988 -0.01700
O 	O 	0.07013 0.70052 0.40956 -0.17400
C 	C 	0.03199 0.74842 0.42873 0.00800
C 	C 	0.97203 0.73267 0.42921 -0.02100
H 	H 	0.87698 0.66945 0.37890 0.07400
H 	H 	0.08414 0.59898 0.33721 0.07300
H 	H 	0.03019 0.54811 0.24055 0.03400
H 	H 	0.93561 0.76585 0.42451 0.06300
C 	C 	0.19425 0.23379 0.14011 0.11900
C 	C 	0.20762 0.17267 0.15825 -0.09300
C 	C 	0.19494 0.15479 0.21982 0.00100
C 	C 	0.16230 0.19284 0.25910 0.12000
C 	C 	0.14660 0.25301 0.24003 -0.08700
C 	C 	0.16687 0.27392 0.18166 0.00800
O 	O 	0.18547 0.24963 0.07795 -0.17700
C 	C 	0.14932 0.30207 0.08610 0.04400
C 	C 	0.13850 0.31718 0.14751 -0.05000
O 	O 	0.12923 0.16083 0.30379 -0.19300
C 	C 	0.14471 0.10017 0.28722 0.04500
C 	C 	0.18390 0.09607 0.23757 -0.05800
H 	H 	0.22222 0.13881 0.12412 0.06400
H 	H 	0.11547 0.28054 0.26734 0.06800
H 	H 	0.10015 0.34381 0.16357 0.05700
H 	H 	0.18831 0.05590 0.20754 0.05800
