data_crystal

_cell_length_a 24.08694
_cell_length_b 21.14174
_cell_length_c 57.24523
_cell_angle_alpha 90.49388
_cell_angle_beta  91.16371
_cell_angle_gamma 110.45417

_symmetry_space_group_name_	'P 1'
_symmetry_space_group_name_H-M	'P 1'

loop_
_symmetry_equiv_pos_as_xyz
  x,y,z

loop_
_atom_site_label
_atom_site_type_symbol
_atom_site_fract_x
_atom_site_fract_y
_atom_site_fract_z
_atom_site_charge
Ni	Ni	0.12119 0.00467 0.74156 1.09000
O 	O 	0.06493 0.01486 0.71603 -0.71300
O 	O 	0.18512 0.09408 0.73285 -0.37200
O 	O 	0.18284 0.05868 0.69478 -0.41200
O 	O 	0.08258 0.05632 0.76238 -0.38200
Ni	Ni	0.09358 0.01521 0.68448 1.05900
O 	O 	0.12128 0.88404 0.78056 -0.40300
O 	O 	0.10532 0.92376 0.68603 -0.39700
O 	O 	0.05749 0.91326 0.74158 -0.69600
O 	O 	0.17227 0.99350 0.76915 -0.36700
Ni	Ni	0.03874 0.88714 0.77397 1.07400
H 	H 	0.05333 0.05482 0.71874 0.15700
H 	H 	0.07354 0.88048 0.73466 0.15000
O 	O 	0.06148 0.97814 0.79090 -0.37100
C 	C 	0.20340 0.10593 0.71122 0.26900
C 	C 	0.05398 0.03060 0.78129 0.27000
C 	C 	0.17167 0.93373 0.77610 0.28100
Ni	Ni	0.36358 0.80630 0.40435 1.10000
O 	O 	0.33903 0.72277 0.38312 -0.70700
Ni	Ni	0.27052 0.73361 0.36549 1.10100
O 	O 	0.42973 0.77949 0.41958 -0.37000
O 	O 	0.36345 0.67659 0.42977 -0.41000
O 	O 	0.41875 0.85192 0.37788 -0.38600
Ni	Ni	0.31086 0.63855 0.39974 1.06500
O 	O 	0.31040 0.93033 0.41596 -0.41200
O 	O 	0.24639 0.66247 0.41627 -0.41800
O 	O 	0.25704 0.65439 0.34302 -0.37300
O 	O 	0.28721 0.80809 0.39052 -0.70400
O 	O 	0.39008 0.89524 0.42332 -0.37600
O 	O 	0.21594 0.76862 0.34534 -0.36900
O 	O 	0.28485 0.87525 0.34647 -0.41500
Ni	Ni	0.29953 0.90094 0.38173 1.07100
H 	H 	0.37061 0.72294 0.37228 0.15700
H 	H 	0.25698 0.79511 0.40272 0.15600
C 	C 	0.19741 0.66018 0.40541 0.31200
O 	O 	0.38903 0.94283 0.37761 -0.39400
C 	C 	0.41801 0.72104 0.43000 0.28900
C 	C 	0.25756 0.59625 0.35126 0.27400
C 	C 	0.23354 0.83210 0.33883 0.27200
C 	C 	0.35368 0.92632 0.42992 0.30800
O 	O 	0.19704 0.67422 0.38310 -0.37100
O 	O 	0.25231 0.58419 0.37404 -0.40500
Ni	Ni	0.32191 0.61103 0.10575 1.10100
O 	O 	0.25743 0.59562 0.08031 -0.70300
Ni	Ni	0.19637 0.62015 0.09745 1.10000
O 	O 	0.36070 0.54949 0.09032 -0.37500
O 	O 	0.27063 0.46579 0.08713 -0.41600
O 	O 	0.37661 0.69189 0.08748 -0.37300
Ni	Ni	0.21961 0.50591 0.06656 1.07100
O 	O 	0.39198 0.74666 0.13071 -0.40300
O 	O 	0.14449 0.46049 0.08538 -0.39600
O 	O 	0.12484 0.58486 0.07423 -0.37500
O 	O 	0.26635 0.64837 0.12110 -0.70300
O 	O 	0.38438 0.63504 0.13189 -0.38000
O 	O 	0.15040 0.66438 0.11773 -0.36400
O 	O 	0.22830 0.76474 0.12027 -0.40500
Ni	Ni	0.30706 0.74536 0.12453 1.06500
H 	H 	0.27148 0.62757 0.06739 0.15700
H 	H 	0.25522 0.62760 0.13654 0.15600
C 	C 	0.13689 0.47391 0.10728 0.30700
O 	O 	0.32098 0.75990 0.08968 -0.41500
C 	C 	0.32837 0.48686 0.08451 0.27600
C 	C 	0.12643 0.56080 0.05282 0.31400
C 	C 	0.35981 0.74010 0.07890 0.30400
C 	C 	0.17716 0.72374 0.12793 0.27500
O 	O 	0.16476 0.53393 0.11661 -0.39500
O 	O 	0.17220 0.54576 0.04555 -0.42000
O 	O 	0.02527 0.06443 0.21252 -0.37000
O 	O 	0.03475 0.17098 0.24662 -0.36600
O 	O 	0.01281 0.14213 0.28456 -0.40900
C 	C 	0.00320 0.02939 0.19316 0.27800
C 	C 	0.04686 0.18226 0.26910 0.27100
O 	O 	0.95400 0.03234 0.18310 -0.41700
C 	C 	0.98757 0.34422 0.12877 -0.04500
C 	C 	0.94324 0.31719 0.17336 0.02400
C 	C 	0.99183 0.37644 0.16988 -0.10800
C 	C 	0.01315 0.39031 0.14718 0.06800
S 	S 	0.03668 0.35868 0.10769 0.04900
C 	C 	0.09062 0.42347 0.12046 -0.07500
C 	C 	0.07072 0.43606 0.14228 -0.03200
H 	H 	0.01502 0.40785 0.18459 0.06700
H 	H 	0.09719 0.47503 0.15442 0.04900
C 	C 	0.09593 0.91427 0.18541 0.00100
C 	C 	0.14275 0.89148 0.18103 -0.05700
C 	C 	0.12885 0.82752 0.17047 0.02000
C 	C 	0.07013 0.79032 0.16323 -0.01200
C 	C 	0.02571 0.81876 0.16404 -0.02800
C 	C 	0.03900 0.88079 0.17589 0.00000
S 	S 	0.10276 0.99388 0.19089 0.03700
C 	C 	0.03432 0.98883 0.18223 -0.07300
C 	C 	0.00417 0.92245 0.17415 -0.00600
S 	S 	0.07185 0.73201 0.14385 0.04000
C 	C 	0.14507 0.74889 0.14502 -0.08100
C 	C 	0.17128 0.80443 0.16006 -0.02500
H 	H 	0.18829 0.92320 0.18484 0.04600
H 	H 	0.98352 0.79518 0.15491 0.02600
H 	H 	0.95801 0.90401 0.16848 0.00400
H 	H 	0.21863 0.83148 0.16140 0.02500
C 	C 	0.17311 0.31755 0.30495 -0.00100
C 	C 	0.19025 0.35496 0.32584 -0.05900
C 	C 	0.19917 0.42397 0.32530 0.01600
C 	C 	0.18733 0.45324 0.30490 -0.00200
C 	C 	0.17145 0.41673 0.28385 -0.05700
C 	C 	0.16178 0.34724 0.28428 0.01400
S 	S 	0.13298 0.23580 0.30354 0.01000
C 	C 	0.10312 0.23374 0.27677 -0.07100
C 	C 	0.12261 0.29986 0.26835 -0.02600
S 	S 	0.21832 0.53662 0.30776 0.02800
C 	C 	0.24642 0.53870 0.33499 -0.07800
C 	C 	0.23185 0.47177 0.34244 -0.02200
H 	H 	0.19679 0.33128 0.34186 0.04200
H 	H 	0.16345 0.44043 0.26805 0.04500
H 	H 	0.10187 0.31473 0.25343 0.04400
H 	H 	0.24341 0.45824 0.35959 0.03200
C 	C 	0.10846 0.86209 0.30049 0.00200
C 	C 	0.04853 0.85188 0.29582 -0.06000
C 	C 	0.03123 0.90874 0.29614 0.03100
C 	C 	0.12907 0.98021 0.31096 -0.03600
C 	C 	0.14817 0.92499 0.30859 0.00800
S 	S 	0.13450 0.80270 0.30925 0.03100
C 	C 	0.19804 0.85400 0.32171 -0.07800
C 	C 	0.19876 0.92048 0.32050 -0.02100
C 	C 	0.97152 0.90588 0.29599 -0.04200
H 	H 	0.01637 0.80157 0.29299 0.05100
H 	H 	0.22963 0.96201 0.33058 0.02800
H 	H 	0.93453 0.86212 0.29000 0.04600
C 	C 	0.36744 0.96577 0.45114 -0.11000
H 	H 	0.37036 0.11978 0.47736 0.03400
C 	C 	0.01146 0.51634 0.44017 -0.00200
C 	C 	0.04552 0.58527 0.44194 -0.02500
C 	C 	0.03292 0.62575 0.45903 -0.00200
C 	C 	0.09768 0.61257 0.42823 0.05600
C 	C 	0.14262 0.63492 0.41744 -0.11400
H 	H 	0.02090 0.48475 0.42695 0.03500
H 	H 	0.05906 0.67907 0.46049 0.03400
C 	C 	0.46239 0.24432 0.69050 -0.00100
C 	C 	0.42126 0.20433 0.70614 -0.05500
C 	C 	0.36101 0.18851 0.70030 0.01300
C 	C 	0.34372 0.21542 0.68037 0.00700
C 	C 	0.38489 0.26456 0.66715 -0.05900
C 	C 	0.44510 0.27708 0.67210 0.01800
S 	S 	0.27205 0.20288 0.68197 -0.00600
C 	C 	0.25938 0.16088 0.70724 -0.06600
C 	C 	0.31379 0.15762 0.71545 -0.02000
H 	H 	0.43540 0.18753 0.72228 0.04300
H 	H 	0.37082 0.29268 0.65400 0.04700
H 	H 	0.31807 0.12939 0.73067 0.04000
C 	C 	0.03292 0.53086 0.02440 0.06500
C 	C 	0.07533 0.54591 0.03759 -0.11100
C 	C 	0.44522 0.91085 0.01911 -0.03300
C 	C 	0.44474 0.84519 0.02270 -0.00500
C 	C 	0.41431 0.80742 0.04234 0.04500
C 	C 	0.38915 0.77646 0.05894 -0.10700
H 	H 	0.42194 0.93296 0.03080 0.04300
C 	C 	0.35449 0.44614 0.07042 -0.09600
C 	C 	0.34447 0.36946 0.03749 -0.06900
C 	C 	0.31861 0.39669 0.05464 0.00700
H 	H 	0.31649 0.33450 0.02452 0.04400
H 	H 	0.27081 0.38217 0.05479 0.00900
C 	C 	0.31630 0.93280 0.80802 -0.00000
C 	C 	0.35392 0.95284 0.82776 -0.06100
C 	C 	0.41135 0.99901 0.82474 0.05100
C 	C 	0.42942 0.02574 0.80259 -0.01600
C 	C 	0.38857 0.01414 0.78386 -0.07000
C 	C 	0.33184 0.96578 0.78661 0.03400
S 	S 	0.24273 0.90211 0.80897 0.02900
C 	C 	0.22799 0.92544 0.78242 -0.07100
C 	C 	0.28205 0.96210 0.77224 -0.02600
H 	H 	0.33787 0.93656 0.84503 0.05300
H 	H 	0.39932 0.04433 0.76827 0.04500
H 	H 	0.28518 0.99251 0.75684 0.04500
C 	C 	0.06134 0.86733 0.68963 0.28500
C 	C 	0.42059 0.90940 0.36885 0.30400
C 	C 	0.39225 0.10281 0.49142 -0.03000
S 	S 	0.98129 0.03728 0.81732 -0.01000
H 	H 	0.41247 0.19505 0.51143 0.03900
C 	C 	0.40716 0.69763 0.14018 0.27800
C 	C 	0.07053 0.80261 0.68776 -0.07900
C 	C 	0.38061 0.99915 0.46890 0.06700
C 	C 	0.45870 0.71531 0.44780 -0.10200
C 	C 	0.47601 0.94832 0.00045 -0.03400
H 	H 	0.47602 0.99900 0.99778 0.04500
H 	H 	0.40011 0.26731 0.02016 0.03900
H 	H 	0.48426 0.89357 0.93886 0.05200
C 	C 	0.49052 0.70954 0.46354 0.04300
H 	H 	0.55769 0.63129 0.46479 0.03600
C 	C 	0.49237 0.33155 0.66317 -0.02100
H 	H 	0.48797 0.35909 0.64779 0.05100
C 	C 	0.46376 0.71701 0.15311 -0.07000
C 	C 	0.46748 0.94325 0.35263 -0.08600
C 	C 	0.52077 0.99405 0.35957 0.03100
H 	H 	0.52580 0.02523 0.37514 0.02300
C 	C 	0.44658 0.12494 0.52856 -0.00000
C 	C 	0.39830 0.03934 0.48999 -0.02100
C 	C 	0.41621 0.14547 0.51067 -0.04200
C 	C 	0.58452 0.64138 0.50112 -0.04000
C 	C 	0.55671 0.65625 0.48131 -0.03400
H 	H 	0.60695 0.60516 0.49976 0.03600
S 	S 	0.53428 0.28339 0.69588 0.00900
C 	C 	0.54688 0.34129 0.67478 -0.07100
C 	C 	0.52017 0.94080 0.94251 -0.08200
C 	C 	0.50667 0.92041 0.98525 -0.00500
C 	C 	0.47497 0.81698 0.00747 -0.03400
C 	C 	0.50582 0.85445 0.98877 -0.03600
H 	H 	0.47483 0.76625 0.01015 0.03900
C 	C 	0.41627 0.46255 0.07039 0.01700
C 	C 	0.44208 0.43514 0.05325 -0.06800
C 	C 	0.40634 0.39098 0.03607 0.02600
C 	C 	0.43324 0.37519 0.01497 0.00100
C 	C 	0.42393 0.30785 0.00873 -0.04100
C 	C 	0.44446 0.29274 0.98748 -0.03200
C 	C 	0.46419 0.42728 0.00001 -0.04100
H 	H 	0.44442 0.49873 0.08300 0.03900
H 	H 	0.43672 0.24061 0.98267 0.04000
H 	H 	0.47118 0.47938 0.00459 0.03900
S 	S 	0.48855 0.09582 0.80643 0.00800
C 	C 	0.49303 0.09460 0.83560 -0.06700
C 	C 	0.44769 0.03735 0.84332 -0.04500
H 	H 	0.44061 0.02434 0.86155 0.05000
C 	C 	0.98829 0.59696 0.47496 -0.07000
H 	H 	0.00502 0.60857 0.99263 0.05300
H 	H 	0.98031 0.62825 0.48865 0.04300
S 	S 	0.09135 0.77619 0.66297 0.03300
C 	C 	0.52605 0.70146 0.48303 -0.00500
H 	H 	0.43620 0.72444 0.18899 0.02900
S 	S 	0.47947 0.90623 0.32824 0.01100
S 	S 	0.52519 0.71050 0.14205 0.03300
H 	H 	0.52793 0.96981 0.90647 0.03400
O 	O 	0.54053 0.14705 0.87144 -0.37000
C 	C 	0.54639 0.13106 0.84963 0.28200
O 	O 	0.61281 0.41704 0.64795 -0.37100
C 	C 	0.60311 0.36608 0.66248 0.29600
C 	C 	0.46959 0.71929 0.17749 -0.02800
C 	C 	0.55053 0.95289 0.32547 0.02700
C 	C 	0.56726 0.00019 0.34397 -0.03000
C 	C 	0.55820 0.27512 0.55973 0.01500
C 	C 	0.52488 0.23224 0.54189 -0.06700
C 	C 	0.47830 0.17288 0.54734 0.02700
C 	C 	0.46442 0.15751 0.57079 -0.06700
C 	C 	0.45051 0.06030 0.52752 -0.03500
C 	C 	0.42642 0.01766 0.50829 -0.04800
H 	H 	0.59488 0.32007 0.55530 0.01800
H 	H 	0.53609 0.24436 0.52384 0.04500
H 	H 	0.42824 0.11203 0.57516 0.04500
H 	H 	0.43112 0.96856 0.50731 0.05500
C 	C 	0.56861 0.61575 0.56152 -0.06800
C 	C 	0.60646 0.65135 0.54404 0.02800
C 	C 	0.58169 0.67156 0.52280 0.00100
C 	C 	0.52493 0.73340 0.50450 -0.03200
H 	H 	0.52146 0.60628 0.56009 0.04900
C 	C 	0.58633 0.02124 0.97010 -0.09500
C 	C 	0.53934 0.96033 0.96564 0.05300
C 	C 	0.54514 0.98393 0.92413 0.04500
H 	H 	0.52928 0.83243 0.97713 0.03800
C 	C 	0.47437 0.34484 0.97240 -0.00900
C 	C 	0.48471 0.41211 0.97881 -0.03300
C 	C 	0.49470 0.32943 0.95039 0.04700
C 	C 	0.51246 0.31723 0.93201 -0.11100
H 	H 	0.48992 0.45069 0.05264 0.04700
H 	H 	0.50810 0.45262 0.96728 0.03700
O 	O 	0.53446 0.24196 0.90636 -0.37000
O 	O 	0.53956 0.34440 0.89296 -0.40800
O 	O 	0.60776 0.07978 0.88855 -0.41400
O 	O 	0.60136 0.15799 0.91550 -0.38500
O 	O 	0.59863 0.13604 0.84188 -0.41500
C 	C 	0.53490 0.30316 0.91038 0.31000
C 	C 	0.60555 0.09879 0.91058 0.28900
O 	O 	0.63810 0.50890 0.60927 -0.36400
O 	O 	0.64231 0.33603 0.66556 -0.41900
O 	O 	0.58633 0.27620 0.62236 -0.40200
C 	C 	0.67448 0.56411 0.59989 0.28100
C 	C 	0.58309 0.30218 0.60192 0.28700
C 	C 	0.56155 0.71187 0.16715 -0.00300
C 	C 	0.52548 0.71813 0.18544 0.01800
C 	C 	0.61879 0.05747 0.34276 -0.03900
H 	H 	0.63342 0.09294 0.35732 0.03900
C 	C 	0.54537 0.25898 0.58321 -0.08900
C 	C 	0.49781 0.20033 0.58866 0.01700
H 	H 	0.48679 0.18782 0.60670 0.03500
H 	H 	0.47382 0.04396 0.54124 0.03600
C 	C 	0.65197 0.59985 0.58205 -0.09800
C 	C 	0.59124 0.59021 0.58046 0.02000
C 	C 	0.66748 0.66391 0.54619 -0.07000
C 	C 	0.69019 0.63846 0.56510 0.01100
C 	C 	0.55264 0.71850 0.52433 -0.03900
H 	H 	0.56136 0.56165 0.59359 0.04100
H 	H 	0.69711 0.69201 0.53290 0.04400
H 	H 	0.73717 0.64671 0.56611 0.00100
H 	H 	0.50129 0.76840 0.50596 0.04300
C 	C 	0.58933 0.04707 0.92877 -0.11400
C 	C 	0.61118 0.06443 0.95175 0.02900
H 	H 	0.60215 0.03622 0.98786 0.04800
Ni	Ni	0.60269 0.22453 0.88996 1.09900
H 	H 	0.57905 0.27150 0.85006 0.15700
O 	O 	0.60211 0.36796 0.59955 -0.38200
C 	C 	0.55072 0.74285 0.20747 -0.05600
H 	H 	0.52458 0.75426 0.22096 0.04400
C 	C 	0.58063 0.96454 0.30441 -0.05000
H 	H 	0.56613 0.92872 0.28995 0.04700
H 	H 	0.55061 0.74244 0.54094 0.04300
H 	H 	0.64580 0.11259 0.95551 0.02000
O 	O 	0.60977 0.28941 0.86254 -0.69800
Ni	Ni	0.66847 0.43394 0.61995 1.09900
O 	O 	0.73181 0.58269 0.60431 -0.40700
Ni	Ni	0.66510 0.28753 0.63883 1.06800
C 	C 	0.62339 0.73648 0.16968 -0.05400
C 	C 	0.63200 0.02204 0.30306 0.01200
C 	C 	0.64961 0.06872 0.32181 -0.00700
C 	C 	0.98303 0.51042 0.00824 -0.02000
Ni	Ni	0.66555 0.13552 0.86419 1.06300
H 	H 	0.65112 0.74266 0.15459 0.04300
C 	C 	0.07173 0.97200 0.30295 0.00300
Ni	Ni	0.61525 0.38021 0.87323 1.06700
O 	O 	0.67906 0.22619 0.87677 -0.70900
O 	O 	0.71655 0.37456 0.62712 -0.70000
C 	C 	0.64835 0.75815 0.19197 0.01500
C 	C 	0.61180 0.75776 0.21087 -0.00200
H 	H 	0.69477 0.43438 0.57621 0.15300
H 	H 	0.74598 0.39688 0.63963 0.15200
O 	O 	0.66928 0.37497 0.90051 -0.42400
O 	O 	0.72505 0.17076 0.83732 -0.40900
O 	O 	0.71920 0.44494 0.59082 -0.70100
O 	O 	0.68370 0.23075 0.61234 -0.41600
S 	S 	0.72180 0.11140 0.31969 0.01600
C 	C 	0.67855 0.02655 0.28768 -0.04000
Ni	Ni	0.69108 0.29723 0.85152 1.09600
H 	H 	0.71114 0.23890 0.88889 0.15300
H 	H 	0.67516 0.98868 0.27431 0.05700
O 	O 	0.70094 0.37056 0.82720 -0.38400
C 	C 	0.69533 0.42811 0.83325 0.28600
O 	O 	0.68599 0.43950 0.85519 -0.41100
S 	S 	0.65311 0.81128 0.23118 0.02600
C 	C 	0.70811 0.80105 0.19579 -0.02500
S 	S 	0.72554 0.11423 0.63040 -0.01600
H 	H 	0.70219 0.36654 0.94363 0.02900
C 	C 	0.73826 0.23405 0.60861 0.27100
H 	H 	0.75996 0.02427 0.66299 0.04300
Ni	Ni	0.78222 0.53276 0.58866 1.06600
C 	C 	0.72339 0.37544 0.89709 0.27100
C 	C 	0.77277 0.22538 0.83961 0.27500
Ni	Ni	0.75737 0.37578 0.59597 1.09800
C 	C 	0.73259 0.07626 0.29465 -0.07000
H 	H 	0.05695 0.65997 0.63058 0.04300
O 	O 	0.76792 0.28542 0.84093 -0.36500
O 	O 	0.74101 0.36880 0.87573 -0.36900
O 	O 	0.81898 0.52653 0.62069 -0.41000
O 	O 	0.77858 0.29131 0.60251 -0.37600
C 	C 	0.71804 0.83343 0.21775 -0.07300
H 	H 	0.74013 0.81514 0.18200 0.02500
C 	C 	0.75340 0.17266 0.61011 -0.07100
C 	C 	0.74881 0.38932 0.93983 0.00700
S 	S 	0.87143 0.25004 0.81242 0.02500
S 	S 	0.74781 0.48507 0.79187 0.02600
C 	C 	0.71448 0.48557 0.81731 -0.08100
H 	H 	0.80866 0.57808 0.75371 0.04400
C 	C 	0.77958 0.08246 0.63127 0.00700
C 	C 	0.79359 0.05057 0.65072 -0.06500
C 	C 	0.76752 0.39590 0.91659 -0.08600
C 	C 	0.83113 0.22042 0.83603 -0.07800
C 	C 	0.78088 0.56833 0.78967 -0.00300
C 	C 	0.79886 0.60306 0.76885 -0.05700
C 	C 	0.84815 0.48534 0.62430 0.28600
O 	O 	0.79297 0.01473 0.28104 -0.38200
C 	C 	0.79038 0.07318 0.28828 0.28000
O 	O 	0.79791 0.38610 0.56464 -0.37800
O 	O 	0.83864 0.43200 0.61073 -0.37100
O 	O 	0.78352 0.91332 0.24489 -0.36300
C 	C 	0.76688 0.89699 0.22290 0.27000
H 	H 	0.84108 0.97360 0.67989 0.06400
H 	H 	0.77524 0.40778 0.97609 0.04500
C 	C 	0.80691 0.67219 0.76867 0.01400
C 	C 	0.72911 0.55297 0.82480 -0.02000
H 	H 	0.86769 0.70336 0.73923 0.03800
H 	H 	0.71362 0.56792 0.84084 0.03600
C 	C 	0.80879 0.17028 0.60395 -0.02300
C 	C 	0.79022 0.41247 0.95825 -0.06500
C 	C 	0.76590 0.59938 0.80907 0.01500
C 	C 	0.84544 0.71870 0.75329 -0.02600
H 	H 	0.15698 0.02684 0.31943 0.02800
C 	C 	0.82432 0.44748 0.55661 0.27700
O 	O 	0.84071 0.50034 0.57110 -0.40700
H 	H 	0.80182 0.52118 0.52189 0.00600
C 	C 	0.82353 0.11956 0.61589 0.01200
S 	S 	0.89549 0.52052 0.66860 -0.00000
H 	H 	0.95635 0.22027 0.78052 0.03900
C 	C 	0.79298 0.70349 0.78836 -0.00000
C 	C 	0.85205 0.05232 0.65346 0.01900
C 	C 	0.77427 0.66833 0.80902 -0.05900
C 	C 	0.91408 0.20300 0.81411 -0.00600
O 	O 	0.78361 0.94291 0.20646 -0.40500
C 	C 	0.84843 0.16884 0.84534 -0.02700
C 	C 	0.05905 0.69350 0.66649 -0.01500
C 	C 	0.82832 0.42446 0.91206 0.01000
O 	O 	0.83917 0.12610 0.29303 -0.40900
C 	C 	0.86882 0.00558 0.66686 -0.04600
H 	H 	0.84070 0.20963 0.59418 0.04800
C 	C 	0.89992 0.50627 0.64011 -0.07500
H 	H 	0.84355 0.42991 0.89426 0.04200
C 	C 	0.94352 0.18715 0.79532 -0.04900
C 	C 	0.86160 0.78589 0.76124 -0.07400
H 	H 	0.76507 0.69332 0.82429 0.04400
C 	C 	0.83541 0.49995 0.51765 0.00800
H 	H 	0.82302 0.13379 0.85817 0.01500
C 	C 	0.84862 0.45580 0.53311 -0.08900
S 	S 	0.83031 0.78591 0.78708 0.01300
Ni	Ni	0.84447 0.00589 0.25409 1.09100
C 	C 	0.85077 0.44191 0.95366 0.02400
C 	C 	0.89539 0.15927 0.83302 0.01700
H 	H 	0.95116 0.62018 0.70573 0.04700
H 	H 	0.85841 0.55549 0.48587 0.04200
C 	C 	0.89559 0.08866 0.63797 0.00200
C 	C 	0.88178 0.12027 0.61849 -0.05800
C 	C 	0.86968 0.44730 0.93051 -0.06500
O 	O 	0.88689 0.95935 0.27557 -0.38100
C 	C 	0.86758 0.51955 0.49729 -0.06400
C 	C 	0.91555 0.83969 0.75399 0.27000
O 	O 	0.92657 0.84853 0.73159 -0.37500
C 	C 	0.89161 0.42793 0.52732 0.01800
C 	C 	0.92468 0.00410 0.66098 -0.07100
C 	C 	0.96385 0.57512 0.67318 0.01800
H 	H 	0.87248 0.36817 0.98888 0.03600
C 	C 	0.95825 0.12869 0.79682 -0.00400
H 	H 	0.90192 0.39353 0.53911 0.03600
O 	O 	0.94048 0.95237 0.69664 -0.37100
O 	O 	0.85743 0.08135 0.19832 -0.41700
C 	C 	0.95599 0.54774 0.63294 -0.01000
H 	H 	0.88649 0.13021 0.24679 0.15000
O 	O 	0.90889 0.04081 0.30382 -0.40500
C 	C 	0.97926 0.62480 0.69082 -0.08400
C 	C 	0.89450 0.46621 0.97311 0.00000
H 	H 	0.02463 0.14701 0.76920 0.04100
H 	H 	0.91570 0.14724 0.60643 0.04300
C 	C 	0.90981 0.10064 0.83440 -0.06300
Ni	Ni	0.87195 0.99139 0.19745 1.07000
O 	O 	0.95094 0.88091 0.76976 -0.41800
O 	O 	0.90446 0.10004 0.25448 -0.71000
C 	C 	0.91909 0.99026 0.29376 0.30200
H 	H 	0.88364 0.15751 0.15257 0.03200
C 	C 	0.90083 0.42081 0.98980 -0.04200
H 	H 	0.91642 0.46927 0.92681 0.04500
C 	C 	0.96214 0.98064 0.67668 0.26600
Ni	Ni	0.92359 0.12977 0.28711 1.06500
C 	C 	0.91380 0.49587 0.49241 0.01900
C 	C 	0.92427 0.44807 0.50707 -0.06400
H 	H 	0.96653 0.55788 0.61472 0.03700
H 	H 	0.92655 0.56991 0.96186 0.03700
O 	O 	0.90159 0.99749 0.22952 -0.69800
C 	C 	0.93931 0.08493 0.81566 0.00800
C 	C 	0.00498 0.11861 0.78444 -0.01100
H 	H 	0.94135 0.43385 0.45491 0.04300
S 	S 	0.95212 0.06111 0.64017 -0.02200
C 	C 	0.93149 0.53432 0.97452 -0.03600
C 	C 	0.89368 0.20191 0.16377 -0.01200
H 	H 	0.00738 0.74811 0.71392 0.03600
H 	H 	0.91566 0.95959 0.23272 0.15300
C 	C 	0.99197 0.58685 0.65153 -0.01300
C 	C 	0.89493 0.19841 0.18824 -0.07700
C 	C 	0.90098 0.13976 0.19995 0.28700
S 	S 	0.03396 0.02136 0.30989 0.00500
H 	H 	0.89684 0.06736 0.84916 0.04000
H 	H 	0.95960 0.42910 0.50338 0.04400
Ni	Ni	0.99537 0.93005 0.71997 1.09500
C 	C 	0.96660 0.48745 0.45606 -0.07000
H 	H 	0.93258 0.24167 0.11958 0.03500
C 	C 	0.96564 0.96701 0.30329 -0.07500
C 	C 	0.95577 0.52738 0.47387 0.01800
C 	C 	0.94492 0.44290 0.00731 -0.03000
O 	O 	0.00873 0.86815 0.69459 -0.36200
C 	C 	0.02796 0.68399 0.68748 0.04300
C 	C 	0.92143 0.26838 0.15539 -0.00300
O 	O 	0.01136 0.97467 0.66846 -0.37600
C 	C 	0.03505 0.74527 0.69953 -0.03000
H 	H 	0.95039 0.40714 0.01980 0.03400
C 	C 	0.97571 0.55629 0.99201 -0.04700
C 	C 	0.94449 0.28119 0.13290 -0.03300
C 	C 	0.02366 0.06860 0.79433 -0.05700
S 	S 	0.93021 0.27692 0.19854 -0.00300
O 	O 	0.95349 0.14366 0.20800 -0.37400
Ni	Ni	0.96838 0.08555 0.23431 1.09200
C 	C 	0.03936 0.64710 0.64787 -0.02500
