data_crystal

_cell_length_a 29.86135
_cell_length_b 26.68180
_cell_length_c 30.35488
_cell_angle_alpha 89.92836
_cell_angle_beta  89.92516
_cell_angle_gamma 90.90111

_symmetry_space_group_name_	'P 1'
_symmetry_space_group_name_H-M	'P 1'

loop_
_symmetry_equiv_pos_as_xyz
  x,y,z

loop_
_atom_site_label
_atom_site_type_symbol
_atom_site_fract_x
_atom_site_fract_y
_atom_site_fract_z
_atom_site_charge
Zn	Zn	0.50238 0.47070 0.00563 1.21800
C 	C 	0.54724 0.56077 0.97605 0.30600
O 	O 	0.54358 0.44978 0.05186 -0.47100
O 	O 	0.52315 0.58235 0.00670 -0.44600
O 	O 	0.57921 0.52302 0.06648 -0.47800
C 	C 	0.43370 0.53577 0.03439 0.34300
O 	O 	0.45124 0.51402 0.99984 -0.44200
O 	O 	0.45681 0.53910 0.07117 -0.48800
C 	C 	0.58105 0.47508 0.05756 0.28900
O 	O 	0.45112 0.40822 0.02838 -0.32600
Zn	Zn	0.52096 0.55511 0.07015 1.17500
O 	O 	0.54477 0.51182 0.97057 -0.42300
C 	C 	0.46312 0.38452 0.99317 0.26300
O 	O 	0.49335 0.40679 0.96916 -0.37200
Zn	Zn	0.34998 0.09661 0.01191 1.22100
C 	C 	0.38964 0.08056 0.09742 0.34900
O 	O 	0.28452 0.08731 0.01865 -0.45400
O 	O 	0.38237 0.12789 0.10637 -0.44000
O 	O 	0.28623 0.10089 0.09264 -0.47300
C 	C 	0.38093 0.19764 0.02024 0.36700
O 	O 	0.39391 0.15138 0.01459 -0.44700
O 	O 	0.34468 0.20672 0.04309 -0.51200
C 	C 	0.26569 0.08313 0.05773 0.29200
O 	O 	0.34141 0.11763 0.93654 -0.30400
Zn	Zn	0.32309 0.16106 0.08857 1.17500
O 	O 	0.36982 0.05889 0.06369 -0.43200
C 	C 	0.35959 0.07457 0.92897 0.30200
O 	O 	0.36826 0.04835 0.96372 -0.37800
C 	C 	0.50701 0.98333 0.72350 0.15000
C 	C 	0.54370 0.96225 0.74509 -0.09700
H 	H 	0.57011 0.94526 0.72596 0.07400
C 	C 	0.54608 0.96273 0.79122 0.03800
C 	C 	0.51171 0.98476 0.81570 -0.05600
C 	C 	0.47521 0.00638 0.79423 0.02200
C 	C 	0.47282 0.00559 0.74809 -0.10500
H 	H 	0.44457 0.02205 0.73135 0.07200
N 	N 	0.50429 0.98141 0.67624 -0.17600
C 	C 	0.47965 0.94387 0.65652 0.20300
C 	C 	0.48189 0.93695 0.61058 -0.08400
C 	C 	0.51008 0.96834 0.58533 0.08100
C 	C 	0.53214 0.00907 0.60557 -0.09800
C 	C 	0.52867 0.01519 0.65153 0.19300
C 	C 	0.45568 0.90000 0.58958 0.01500
C 	C 	0.45906 0.89283 0.54416 -0.05700
C 	C 	0.49160 0.91965 0.51922 0.01900
C 	C 	0.51550 0.95960 0.53962 -0.03400
C 	C 	0.54340 0.99207 0.51439 0.02800
C 	C 	0.55650 0.04355 0.57965 0.02100
C 	C 	0.56070 0.03619 0.53433 -0.07500
C 	C 	0.49921 0.90907 0.47387 0.02100
C 	C 	0.52736 0.94142 0.44875 -0.03800
C 	C 	0.55150 0.98105 0.46928 0.03900
O 	O 	0.54978 0.05283 0.67102 -0.20200
O 	O 	0.45480 0.91328 0.68082 -0.19700
H 	H 	0.57130 0.07689 0.59431 0.04200
H 	H 	0.57538 0.06605 0.51477 0.05000
H 	H 	0.43153 0.87775 0.60812 0.04600
H 	H 	0.43477 0.86839 0.52845 0.04900
C 	C 	0.58479 0.00714 0.44474 -0.10000
C 	C 	0.58874 0.99968 0.39941 0.05700
C 	C 	0.56197 0.96346 0.37810 -0.09700
C 	C 	0.53275 0.93288 0.40301 0.07400
C 	C 	0.48106 0.86559 0.45350 -0.05900
C 	C 	0.48467 0.85895 0.40803 0.01500
C 	C 	0.50962 0.89316 0.38239 -0.08500
C 	C 	0.56451 0.95658 0.33218 0.20500
N 	N 	0.53839 0.92064 0.31201 -0.18200
C 	C 	0.51264 0.88775 0.33632 0.20100
C 	C 	0.53557 0.91976 0.26474 0.13400
C 	C 	0.50661 0.95236 0.24301 -0.09300
C 	C 	0.50481 0.95305 0.19691 0.03100
C 	C 	0.53158 0.92051 0.17249 -0.06800
C 	C 	0.56046 0.88757 0.19407 0.03100
C 	C 	0.56252 0.88733 0.24028 -0.09300
O 	O 	0.59121 0.98563 0.30832 -0.19900
O 	O 	0.48965 0.85184 0.31635 -0.20100
H 	H 	0.48596 0.97750 0.26200 0.07100
H 	H 	0.58517 0.86243 0.25713 0.06900
H 	H 	0.60914 0.03126 0.46077 0.05500
H 	H 	0.61354 0.02132 0.38115 0.02400
H 	H 	0.46622 0.83560 0.47276 0.04900
H 	H 	0.46913 0.82620 0.39307 0.04400
H 	H 	0.53032 0.92119 0.13679 0.05800
H 	H 	0.51313 0.98466 0.85141 0.06000
Zn	Zn	0.69453 0.81605 0.97437 1.22500
C 	C 	0.67087 0.79699 0.06530 0.35300
O 	O 	0.75797 0.83689 0.97400 -0.44500
O 	O 	0.68682 0.75158 0.06122 -0.44200
O 	O 	0.77402 0.80133 0.04012 -0.48500
C 	C 	0.67607 0.71119 0.96313 0.35700
O 	O 	0.65812 0.75517 0.96945 -0.42800
O 	O 	0.71792 0.70419 0.97432 -0.49700
C 	C 	0.78197 0.83583 0.01020 0.28700
O 	O 	0.69233 0.82180 0.89643 -0.29900
Zn	Zn	0.74412 0.73860 0.02496 1.17100
O 	O 	0.68064 0.83171 0.03596 -0.44200
C 	C 	0.66843 0.86129 0.90327 0.30300
O 	O 	0.66225 0.87291 0.94416 -0.37600
Zn	Zn	0.18800 0.67661 0.98982 1.22500
C 	C 	0.16649 0.69004 0.08115 0.30900
O 	O 	0.15289 0.73835 0.98879 -0.42900
O 	O 	0.18247 0.73613 0.07900 -0.44400
O 	O 	0.21384 0.78966 0.99590 -0.49000
C 	C 	0.27687 0.65675 0.01998 0.28500
O 	O 	0.25067 0.65713 0.98517 -0.44700
O 	O 	0.26977 0.68772 0.05273 -0.48200
C 	C 	0.17194 0.78275 0.98412 0.30100
O 	O 	0.18245 0.67267 0.91197 -0.31900
Zn	Zn	0.24040 0.75132 0.04360 1.17000
O 	O 	0.17786 0.65709 0.05128 -0.43700
C 	C 	0.15322 0.63703 0.91924 0.30600
O 	O 	0.14708 0.62559 0.96023 -0.36600
C 	C 	0.98823 0.54898 0.72514 0.14600
C 	C 	0.02211 0.56980 0.75170 -0.10200
H 	H 	0.04941 0.59092 0.73666 0.07100
C 	C 	0.02051 0.56354 0.79756 0.02800
C 	C 	0.98483 0.53640 0.81670 -0.06000
C 	C 	0.95037 0.51660 0.79032 0.03400
C 	C 	0.95230 0.52254 0.74448 -0.09400
H 	H 	0.92602 0.50679 0.72388 0.07100
N 	N 	0.99056 0.55433 0.67809 -0.17700
C 	C 	0.01549 0.52138 0.65405 0.19300
C 	C 	0.01776 0.52566 0.60787 -0.08800
C 	C 	0.99313 0.56298 0.58657 0.07000
C 	C 	0.96947 0.59784 0.61183 -0.08000
C 	C 	0.96822 0.59260 0.65799 0.20000
C 	C 	0.04558 0.49453 0.58306 0.01200
C 	C 	0.04749 0.49917 0.53732 -0.05700
C 	C 	0.01856 0.53210 0.51496 0.01000
C 	C 	0.99317 0.56628 0.53999 -0.02100
C 	C 	0.96937 0.60503 0.51892 0.01700
C 	C 	0.94895 0.63838 0.59090 0.01300
C 	C 	0.95049 0.64312 0.54513 -0.05600
C 	C 	0.01607 0.53321 0.46818 0.01000
C 	C 	0.99208 0.57181 0.44707 -0.02100
C 	C 	0.96685 0.60616 0.47211 0.01700
O 	O 	0.94533 0.62446 0.68197 -0.19500
O 	O 	0.03712 0.48531 0.67425 -0.20200
H 	H 	0.93303 0.66733 0.61008 0.04800
H 	H 	0.93914 0.67764 0.53064 0.04900
H 	H 	0.06706 0.46783 0.59922 0.04400
H 	H 	0.07313 0.47909 0.51988 0.04700
C 	C 	0.93785 0.63905 0.44979 -0.05600
C 	C 	0.93913 0.64305 0.40397 0.01300
C 	C 	0.96648 0.61149 0.37908 -0.08100
C 	C 	0.99164 0.57466 0.40046 0.07000
C 	C 	0.03503 0.49512 0.44204 -0.05600
C 	C 	0.03629 0.49958 0.39629 0.01200
C 	C 	0.01528 0.53972 0.37526 -0.08700
C 	C 	0.96763 0.61469 0.33276 0.20100
N 	N 	0.99224 0.58142 0.30876 -0.17800
C 	C 	0.01585 0.54428 0.32908 0.19300
C 	C 	0.99259 0.58475 0.26153 0.15300
C 	C 	0.96254 0.55535 0.23678 -0.09700
C 	C 	0.96627 0.55380 0.19079 0.03800
C 	C 	0.99938 0.58276 0.16949 -0.05900
C 	C 	0.02962 0.61201 0.19416 0.06800
C 	C 	0.02574 0.61358 0.24015 -0.11200
O 	O 	0.94498 0.64983 0.31238 -0.20300
O 	O 	0.03926 0.51277 0.30520 -0.18800
H 	H 	0.93758 0.53226 0.25344 0.07200
H 	H 	0.04964 0.63526 0.25941 0.07900
H 	H 	0.91258 0.65958 0.46734 0.04800
H 	H 	0.91749 0.66961 0.38784 0.04500
H 	H 	0.04663 0.46075 0.45662 0.04700
H 	H 	0.05225 0.47059 0.37717 0.04700
H 	H 	0.00284 0.58085 0.13396 0.05500
H 	H 	0.98380 0.53087 0.85211 0.06300
Zn	Zn	0.84228 0.38757 0.99811 1.22800
C 	C 	0.83944 0.40420 0.90452 0.35100
O 	O 	0.78358 0.41903 0.99169 -0.43000
O 	O 	0.80053 0.38072 0.90275 -0.44000
O 	O 	0.74613 0.34496 0.98212 -0.50800
C 	C 	0.87347 0.28907 0.97631 0.30700
O 	O 	0.86594 0.32075 0.00854 -0.46300
O 	O 	0.84969 0.29132 0.94004 -0.48500
C 	C 	0.74641 0.39226 0.99411 0.36900
O 	O 	0.83736 0.39638 0.07576 -0.32200
Zn	Zn	0.78929 0.31747 0.94068 1.17300
O 	O 	0.86579 0.39805 0.93856 -0.43100
C 	C 	0.86662 0.43232 0.07018 0.31300
O 	O 	0.87966 0.43993 0.03011 -0.37100
Zn	Zn	0.01044 0.02739 0.02346 1.21500
C 	C 	0.04856 0.93593 0.99132 0.35900
O 	O 	0.95483 0.99000 0.01202 -0.43500
O 	O 	0.01969 0.91456 0.01842 -0.46100
O 	O 	0.95423 0.95718 0.08104 -0.50200
C 	C 	0.08444 0.01206 0.08092 0.34200
O 	O 	0.05094 0.04162 0.07220 -0.48000
O 	O 	0.07688 0.96393 0.08639 -0.47700
C 	C 	0.93442 0.96397 0.04295 0.35900
O 	O 	0.96863 0.09526 0.04939 -0.32600
Zn	Zn	0.01639 0.93615 0.08343 1.17300
O 	O 	0.05118 0.98522 0.98866 -0.41800
C 	C 	0.97939 0.11688 0.01252 0.29600
O 	O 	0.00348 0.09054 0.98585 -0.38100
C 	C 	0.90609 0.24838 0.98234 -0.02300
C 	C 	0.90876 0.20933 0.95140 -0.03900
C 	C 	0.93547 0.16782 0.95985 0.02500
C 	C 	0.95955 0.16471 0.99936 -0.11300
C 	C 	0.95929 0.20522 0.02902 0.18800
C 	C 	0.93299 0.24704 0.02025 -0.10200
H 	H 	0.93574 0.13702 0.93663 0.03800
H 	H 	0.93272 0.27779 0.04353 0.09700
H 	H 	0.88912 0.21030 0.92145 0.04600
O 	O 	0.98521 0.20429 0.06630 -0.27900
H 	H 	0.96537 0.19060 0.08978 0.16100
C 	C 	0.91260 0.48913 0.81097 0.04800
C 	C 	0.90861 0.43703 0.80596 -0.07900
C 	C 	0.88013 0.40930 0.83366 0.05000
C 	C 	0.85573 0.43344 0.86674 -0.13600
C 	C 	0.85615 0.48615 0.86863 0.16500
C 	C 	0.88455 0.51382 0.84072 -0.10900
H 	H 	0.87953 0.36876 0.83154 0.02300
H 	H 	0.88652 0.55426 0.84375 0.08300
H 	H 	0.92956 0.41773 0.78250 0.06000
Br	Br	0.82019 0.52067 0.91099 -0.23400
C 	C 	0.93844 0.51836 0.16522 0.04500
C 	C 	0.89375 0.52945 0.15575 -0.07700
C 	C 	0.86907 0.49892 0.12695 0.04000
C 	C 	0.88896 0.45719 0.10735 -0.11900
C 	C 	0.93294 0.44431 0.11901 0.16200
C 	C 	0.95751 0.47497 0.14782 -0.10600
H 	H 	0.83514 0.50892 0.11837 0.03000
H 	H 	0.99178 0.46575 0.15583 0.09200
H 	H 	0.87864 0.56261 0.16951 0.05200
Br	Br	0.96016 0.38544 0.09529 -0.23000
C 	C 	0.14459 0.82624 0.97160 -0.02600
C 	C 	0.10155 0.81880 0.95401 -0.04400
C 	C 	0.07107 0.85800 0.95388 0.04300
C 	C 	0.08341 0.90490 0.97131 -0.15900
C 	C 	0.12880 0.91466 0.98114 0.20300
C 	C 	0.15911 0.87514 0.98205 -0.10200
H 	H 	0.03675 0.85069 0.94393 0.04000
H 	H 	0.19310 0.88214 0.99316 0.07400
H 	H 	0.09093 0.78212 0.94266 0.07600
O 	O 	0.14270 0.96166 0.99373 -0.28600
H 	H 	0.15226 0.97866 0.96613 0.16100
C 	C 	0.05523 0.58684 0.82590 0.04500
C 	C 	0.10056 0.57534 0.81998 -0.07500
C 	C 	0.13279 0.59359 0.84957 0.04000
C 	C 	0.11988 0.62268 0.88575 -0.11700
C 	C 	0.07450 0.63550 0.89094 0.16100
C 	C 	0.04262 0.61813 0.86070 -0.10800
H 	H 	0.16758 0.58379 0.84516 0.03300
H 	H 	0.00780 0.62801 0.86485 0.07900
H 	H 	0.11067 0.55131 0.79312 0.05800
Br	Br	0.05515 0.67617 0.93930 -0.24400
C 	C 	0.13599 0.67492 0.11696 -0.06200
C 	C 	0.09797 0.70331 0.12615 -0.00500
C 	C 	0.06423 0.68381 0.15355 -0.03100
C 	C 	0.06841 0.63595 0.17216 -0.03600
C 	C 	0.10797 0.60894 0.16538 0.10100
C 	C 	0.14153 0.62850 0.13784 -0.03800
H 	H 	0.03407 0.70503 0.15890 0.03500
H 	H 	0.17126 0.60685 0.13150 0.07000
H 	H 	0.09349 0.73931 0.11034 0.03500
Br	Br	0.11583 0.54430 0.19192 -0.22900
C 	C 	0.81809 0.87298 0.01714 -0.04000
C 	C 	0.82495 0.89383 0.05903 -0.04400
C 	C 	0.86177 0.92553 0.06680 0.03600
C 	C 	0.89240 0.93639 0.03285 -0.17000
C 	C 	0.88452 0.91692 0.99022 0.21300
C 	C 	0.84733 0.88555 0.98260 -0.09200
H 	H 	0.86699 0.94084 0.09946 0.03000
H 	H 	0.84219 0.86956 0.95015 0.07800
H 	H 	0.80204 0.88499 0.08575 0.05000
O 	O 	0.91461 0.92569 0.95680 -0.28100
H 	H 	0.90339 0.95560 0.94109 0.16200
C 	C 	0.58363 0.93841 0.81410 0.03700
C 	C 	0.60905 0.96519 0.84520 -0.05400
C 	C 	0.63985 0.94039 0.87169 0.03100
C 	C 	0.64576 0.88849 0.86737 -0.10800
C 	C 	0.62349 0.86254 0.83290 0.15500
C 	C 	0.59204 0.88749 0.80703 -0.10100
H 	H 	0.65772 0.96113 0.89701 0.04100
H 	H 	0.57339 0.86694 0.78213 0.08100
H 	H 	0.60377 0.00490 0.84995 0.04100
Br	Br	0.63564 0.79372 0.81971 -0.22600
C 	C 	0.59040 0.85565 0.16798 0.04600
C 	C 	0.63649 0.86635 0.16684 -0.08200
C 	C 	0.66358 0.84385 0.13520 0.04900
C 	C 	0.64487 0.81035 0.10448 -0.14100
C 	C 	0.59927 0.79653 0.10780 0.16300
C 	C 	0.57222 0.81920 0.13956 -0.11400
H 	H 	0.69873 0.85434 0.13314 0.02400
H 	H 	0.53673 0.81015 0.14086 0.07700
H 	H 	0.65089 0.89408 0.18892 0.05800
Br	Br	0.57286 0.74917 0.06751 -0.26400
C 	C 	0.21998 0.06253 0.06204 -0.03100
C 	C 	0.18580 0.08017 0.03480 -0.04600
C 	C 	0.14140 0.06511 0.04217 0.04100
C 	C 	0.13080 0.03114 0.07618 -0.14900
C 	C 	0.16522 0.01286 0.10322 0.19300
C 	C 	0.20953 0.02905 0.09636 -0.09700
H 	H 	0.11534 0.07885 0.02070 0.02500
H 	H 	0.23572 0.01573 0.11787 0.08400
H 	H 	0.19348 0.10643 0.00851 0.04600
O 	O 	0.15539 0.98094 0.13749 -0.28300
H 	H 	0.15945 0.94676 0.12547 0.15100
C 	C 	0.43968 0.02991 0.82040 0.04800
C 	C 	0.40100 0.00228 0.83156 -0.08800
C 	C 	0.37248 0.01937 0.86470 0.02800
C 	C 	0.38240 0.06422 0.88701 -0.11300
C 	C 	0.41951 0.09391 0.87341 0.15600
C 	C 	0.44775 0.07670 0.84001 -0.11000
H 	H 	0.34396 0.99641 0.87466 0.04400
H 	H 	0.47735 0.09843 0.83103 0.07900
H 	H 	0.39433 0.96628 0.81624 0.07100
Br	Br	0.43451 0.15591 0.90239 -0.23600
C 	C 	0.47493 0.98792 0.17411 0.05500
C 	C 	0.49293 0.02834 0.15000 -0.09400
C 	C 	0.46471 0.05984 0.12637 0.04700
C 	C 	0.41831 0.05096 0.12640 -0.13500
C 	C 	0.40005 0.01132 0.15175 0.14100
C 	C 	0.42844 0.97998 0.17546 -0.09700
H 	H 	0.47901 0.09036 0.10711 0.03100
H 	H 	0.41441 0.94912 0.19449 0.07700
H 	H 	0.52882 0.03495 0.14913 0.05600
Br	Br	0.33649 0.99998 0.15501 -0.23900
C 	C 	0.44837 0.33277 0.98522 0.01000
C 	C 	0.40470 0.32356 0.97016 -0.05800
C 	C 	0.38387 0.27715 0.97789 0.07200
C 	C 	0.40659 0.23958 0.00074 -0.17300
C 	C 	0.45228 0.24659 0.01078 0.22300
C 	C 	0.47302 0.29328 0.00305 -0.12300
H 	H 	0.34912 0.27149 0.96861 0.03000
H 	H 	0.50714 0.29988 0.01399 0.07700
H 	H 	0.38571 0.35357 0.95552 0.05800
O 	O 	0.47549 0.20958 0.03174 -0.29700
H 	H 	0.48918 0.18971 0.00777 0.16400
C 	C 	0.31406 0.62137 0.02258 -0.04000
C 	C 	0.34084 0.61258 0.98552 -0.03500
C 	C 	0.37915 0.58347 0.98922 0.04800
C 	C 	0.39091 0.56238 0.02999 -0.16600
C 	C 	0.36253 0.56878 0.06665 0.20200
C 	C 	0.32462 0.59873 0.06295 -0.09800
H 	H 	0.40041 0.57856 0.96065 0.03900
H 	H 	0.30351 0.60447 0.09152 0.07700
H 	H 	0.33287 0.62972 0.95418 0.05300
O 	O 	0.37208 0.54641 0.10619 -0.29200
H 	H 	0.35664 0.51324 0.10519 0.15300
C 	C 	0.62361 0.45342 0.04244 -0.02000
C 	C 	0.62320 0.41659 0.00943 -0.08400
C 	C 	0.66329 0.39785 0.99310 0.08200
C 	C 	0.70452 0.41517 0.00978 -0.18800
C 	C 	0.70514 0.45218 0.04301 0.21500
C 	C 	0.66473 0.47152 0.05882 -0.11000
H 	H 	0.66228 0.36979 0.96733 0.01700
H 	H 	0.66543 0.50022 0.08405 0.07200
H 	H 	0.59177 0.40305 0.99578 0.06400
O 	O 	0.74500 0.46958 0.05997 -0.29400
H 	H 	0.75118 0.44764 0.08559 0.15300
C 	C 	0.58280 0.59018 0.95452 -0.02900
C 	C 	0.62756 0.58033 0.96487 -0.04000
C 	C 	0.65966 0.61902 0.96349 0.03900
C 	C 	0.64721 0.66767 0.95108 -0.14700
C 	C 	0.60420 0.67493 0.93322 0.21100
C 	C 	0.57211 0.63622 0.93528 -0.09200
H 	H 	0.69325 0.61198 0.97514 0.03600
H 	H 	0.53797 0.64335 0.92523 0.08000
H 	H 	0.63656 0.54417 0.97820 0.06000
O 	O 	0.59277 0.72044 0.91591 -0.27200
H 	H 	0.59862 0.71749 0.88389 0.17000
