data_crystal

_cell_length_a 15.60989
_cell_length_b 17.92874
_cell_length_c 45.73581
_cell_angle_alpha 90.37912
_cell_angle_beta  90.38105
_cell_angle_gamma 119.63626

_symmetry_space_group_name_	'P 1'
_symmetry_space_group_name_H-M	'P 1'

loop_
_symmetry_equiv_pos_as_xyz
  x,y,z

loop_
_atom_site_label
_atom_site_type_symbol
_atom_site_fract_x
_atom_site_fract_y
_atom_site_fract_z
_atom_site_charge
C 	C 	0.61117 0.10058 0.98059 0.30500
C 	C 	0.62386 0.30405 0.97590 0.29400
C 	C 	0.39849 0.24952 0.93730 0.30000
C 	C 	0.30203 0.02834 0.91546 0.28700
Ni	Ni	0.47250 0.17861 0.89193 1.12300
Ni	Ni	0.45455 0.12992 0.96086 1.12100
O 	O 	0.51835 0.06021 0.97194 -0.37500
O 	O 	0.38595 0.22095 0.91008 -0.35900
O 	O 	0.56772 0.30523 0.89042 -0.39000
O 	O 	0.33498 0.02721 0.94230 -0.35700
O 	O 	0.55963 0.22739 0.98572 -0.38500
O 	O 	0.36302 0.05704 0.89321 -0.36800
O 	O 	0.38523 0.19750 0.95878 -0.38100
O 	O 	0.53134 0.16120 0.92589 -0.71100
H 	H 	0.51691 0.10220 0.92149 0.15800
C 	C 	0.63187 0.32408 0.68491 0.29700
C 	C 	0.46834 0.11212 0.57781 0.31200
C 	C 	0.41805 0.08506 0.68158 0.31900
C 	C 	0.67082 0.32138 0.59252 0.28100
Ni	Ni	0.50450 0.21413 0.63369 1.11400
Ni	Ni	0.65047 0.14846 0.60563 1.12100
Ni	Ni	0.63621 0.16199 0.67590 1.12400
O 	O 	0.54175 0.28320 0.67335 -0.35200
O 	O 	0.64819 0.04131 0.62054 -0.36700
O 	O 	0.43982 0.15739 0.59336 -0.35800
O 	O 	0.51128 0.07521 0.59118 -0.37600
O 	O 	0.40457 0.10232 0.65458 -0.34800
O 	O 	0.50460 0.13061 0.69463 -0.35900
O 	O 	0.59968 0.31945 0.60897 -0.36800
O 	O 	0.66414 0.24981 0.58136 -0.37600
O 	O 	0.58251 0.03884 0.66523 -0.37200
O 	O 	0.61044 0.19110 0.63823 -0.70300
H 	H 	0.66617 0.25005 0.63875 0.13600
C 	C 	0.06437 0.91157 0.74934 0.31700
C 	C 	0.01828 0.90946 0.83213 0.29500
O 	O 	0.05157 0.96295 0.76729 -0.35400
O 	O 	0.03880 0.86497 0.81288 -0.34600
O 	O 	0.97706 0.95553 0.82332 -0.35400
O 	O 	0.00500 0.82812 0.75008 -0.36800
C 	C 	0.54562 0.76758 0.49569 0.29100
C 	C 	0.53714 0.78855 0.36789 0.30800
C 	C 	0.65407 0.95128 0.44006 0.31900
C 	C 	0.41164 0.58281 0.41589 0.29100
C 	C 	0.35757 0.88342 0.41017 0.31500
C 	C 	0.25345 0.68583 0.46023 0.28700
Ni	Ni	0.57357 0.76257 0.42938 1.11800
Ni	Ni	0.35692 0.71794 0.40415 1.12500
Ni	Ni	0.44814 0.84340 0.45966 1.12300
O 	O 	0.60884 0.78541 0.47396 -0.36400
O 	O 	0.47115 0.78379 0.49402 -0.37200
O 	O 	0.30460 0.80034 0.40494 -0.37200
O 	O 	0.56107 0.74278 0.38467 -0.35800
O 	O 	0.45593 0.79192 0.37301 -0.34600
O 	O 	0.29991 0.77051 0.46342 -0.37600
O 	O 	0.65527 0.89434 0.42202 -0.36300
O 	O 	0.59492 0.92670 0.46259 -0.37900
O 	O 	0.25512 0.64975 0.43481 -0.36900
O 	O 	0.49352 0.62837 0.43178 -0.34700
O 	O 	0.38459 0.62026 0.39581 -0.35900
O 	O 	0.43553 0.91427 0.42764 -0.36400
O 	O 	0.45410 0.76150 0.43467 -0.71400
H 	H 	0.42475 0.71230 0.44791 0.14600
C 	C 	0.34862 0.81131 0.22844 0.30200
C 	C 	0.29387 0.70546 0.10595 0.30500
C 	C 	0.27764 0.58930 0.19143 0.31300
C 	C 	0.36745 0.92436 0.14547 0.29500
C 	C 	0.52519 0.69758 0.14156 0.30500
C 	C 	0.63014 0.92450 0.18137 0.29900
Ni	Ni	0.27211 0.74362 0.16820 1.11300
Ni	Ni	0.48372 0.83650 0.13360 1.12100
Ni	Ni	0.46790 0.74911 0.19627 1.12400
O 	O 	0.27234 0.75125 0.21370 -0.35500
O 	O 	0.43676 0.81607 0.22712 -0.34200
O 	O 	0.56582 0.77906 0.13508 -0.38200
O 	O 	0.25065 0.73440 0.12343 -0.37300
O 	O 	0.39046 0.73917 0.10630 -0.37900
O 	O 	0.60677 0.84642 0.19018 -0.36700
O 	O 	0.23949 0.61527 0.17068 -0.37000
O 	O 	0.34325 0.64539 0.20966 -0.36500
O 	O 	0.59007 0.93600 0.15718 -0.37600
O 	O 	0.29749 0.86889 0.16299 -0.35700
O 	O 	0.40642 0.89814 0.12496 -0.37300
O 	O 	0.48573 0.67107 0.16757 -0.36100
O 	O 	0.40978 0.78932 0.16822 -0.71200
H 	H 	0.42923 0.84479 0.17772 0.14300
C 	C 	0.23492 0.05702 0.26391 0.29500
C 	C 	0.22237 0.29260 0.35157 0.30900
C 	C 	0.21827 0.06464 0.34105 0.31600
C 	C 	0.20943 0.32491 0.26720 0.29100
Ni	Ni	0.27067 0.21514 0.30044 1.11700
O 	O 	0.29964 0.13617 0.27266 -0.34100
O 	O 	0.14046 0.03251 0.26096 -0.36100
O 	O 	0.28033 0.30994 0.32892 -0.35700
O 	O 	0.12650 0.24113 0.34854 -0.35000
O 	O 	0.27248 0.14820 0.33714 -0.37100
O 	O 	0.15867 0.01351 0.32019 -0.37000
O 	O 	0.27190 0.29462 0.26685 -0.34700
O 	O 	0.16153 0.32044 0.29142 -0.34700
O 	O 	0.13202 0.15351 0.29655 -0.71700
H 	H 	0.13050 0.15999 0.27524 0.14900
C 	C 	0.15338 0.47281 0.22123 -0.01900
C 	C 	0.22701 0.49862 0.20015 -0.07600
C 	C 	0.27536 0.45046 0.19662 0.10000
C 	C 	0.26724 0.39186 0.21809 -0.02600
C 	C 	0.20575 0.37657 0.24220 -0.06200
C 	C 	0.14249 0.41253 0.24238 0.09900
N 	N 	0.06748 0.38841 0.26384 -0.02900
H 	H 	0.11091 0.50555 0.22299 0.06900
H 	H 	0.30878 0.35843 0.21590 0.08200
N 	N 	0.32817 0.45730 0.17054 -0.02400
O 	O 	0.08366 0.43711 0.28677 -0.08500
O 	O 	0.97854 0.32702 0.25799 -0.08100
O 	O 	0.42274 0.48656 0.17197 -0.09300
O 	O 	0.27958 0.41798 0.14690 -0.10800
C 	C 	0.81145 0.99889 0.18665 -0.01300
C 	C 	0.72217 0.99643 0.19317 -0.06600
C 	C 	0.71927 0.04517 0.21712 0.09100
C 	C 	0.80136 0.08806 0.23556 -0.02200
H 	H 	0.81571 0.96447 0.16764 0.07100
H 	H 	0.79669 0.12194 0.25468 0.08000
N 	N 	0.62950 0.04169 0.22526 -0.03200
O 	O 	0.57499 0.98659 0.24480 -0.08200
O 	O 	0.61825 0.10758 0.22016 -0.09600
C 	C 	0.37516 0.95952 0.22766 -0.00100
C 	C 	0.33846 0.88124 0.24232 -0.07200
C 	C 	0.27029 0.86247 0.26504 0.11500
C 	C 	0.23545 0.91953 0.27151 -0.03600
C 	C 	0.26998 0.99647 0.25608 -0.04100
C 	C 	0.34108 0.01687 0.23429 0.08400
N 	N 	0.37449 0.09331 0.21760 -0.01900
H 	H 	0.42524 0.97315 0.20978 0.06300
H 	H 	0.18162 0.90385 0.28857 0.08200
N 	N 	0.23439 0.78445 0.28113 -0.02200
O 	O 	0.46358 0.15692 0.22137 -0.08100
O 	O 	0.31476 0.10044 0.19935 -0.08600
O 	O 	0.29579 0.76182 0.29158 -0.07200
O 	O 	0.14076 0.73804 0.28647 -0.08200
C 	C 	0.67389 0.81873 0.33459 -0.02400
C 	C 	0.60884 0.84410 0.34585 -0.06500
C 	C 	0.63413 0.93088 0.34369 0.10000
C 	C 	0.73324 0.99324 0.33903 -0.01600
C 	C 	0.77172 0.87984 0.32868 0.10500
H 	H 	0.65112 0.75105 0.33301 0.08100
N 	N 	0.55860 0.95436 0.34250 -0.01600
O 	O 	0.57664 0.02916 0.35217 -0.09500
O 	O 	0.47720 0.90633 0.32803 -0.06800
C 	C 	0.36613 0.37648 0.38484 -0.02400
C 	C 	0.26451 0.34094 0.37934 -0.06800
C 	C 	0.21060 0.36786 0.39694 0.10100
C 	C 	0.26125 0.44115 0.41482 -0.03200
C 	C 	0.36471 0.48859 0.41461 -0.06900
C 	C 	0.41656 0.45033 0.40248 0.10100
N 	N 	0.52123 0.49007 0.40604 -0.02000
H 	H 	0.40715 0.35080 0.37368 0.06900
H 	H 	0.22024 0.46647 0.42618 0.06200
N 	N 	0.10518 0.32241 0.39636 -0.02000
O 	O 	0.56005 0.50185 0.43209 -0.09600
O 	O 	0.57728 0.50977 0.38320 -0.08700
O 	O 	0.05744 0.36100 0.38795 -0.10000
C 	C 	0.21684 0.89989 0.39258 -0.03100
C 	C 	0.31711 0.93890 0.40045 -0.05600
C 	C 	0.37877 0.02689 0.39460 0.09100
C 	C 	0.34452 0.06908 0.37613 -0.01500
C 	C 	0.24748 0.02577 0.36492 -0.08500
C 	C 	0.18191 0.94255 0.37486 0.11600
N 	N 	0.07996 0.90064 0.36679 -0.02300
H 	H 	0.16636 0.83487 0.39935 0.07900
H 	H 	0.39359 0.13545 0.37052 0.07300
N 	N 	0.47103 0.07562 0.40965 -0.01500
O 	O 	0.54754 0.13145 0.39540 -0.10300
O 	O 	0.47342 0.07695 0.43808 -0.11300
C 	C 	0.48624 0.12971 0.54614 -0.09400
C 	C 	0.49070 0.20394 0.53429 0.03400
C 	C 	0.54292 0.23903 0.50854 -0.07600
C 	C 	0.59063 0.20024 0.49456 0.06600
C 	C 	0.57424 0.11995 0.50404 -0.07500
C 	C 	0.52138 0.08440 0.52955 0.01800
C 	C 	0.65697 0.24275 0.46981 -0.05400
C 	C 	0.75169 0.26206 0.47168 -0.03900
C 	C 	0.78300 0.20688 0.45618 0.05700
C 	C 	0.81659 0.16084 0.47282 -0.06900
C 	C 	0.79145 0.07746 0.46419 0.03400
C 	C 	0.73281 0.04103 0.43905 -0.09000
C 	C 	0.72488 0.09568 0.41879 0.03600
C 	C 	0.75098 0.17952 0.42730 -0.05700
H 	H 	0.46010 0.23783 0.54605 0.04100
H 	H 	0.55061 0.29864 0.50042 0.06100
H 	H 	0.60473 0.08626 0.49210 0.06100
H 	H 	0.51357 0.02453 0.53745 0.03300
H 	H 	0.62361 0.23618 0.44838 0.07400
H 	H 	0.79291 0.29524 0.49133 0.04900
H 	H 	0.84927 0.18437 0.49425 0.05500
H 	H 	0.80497 0.03750 0.47906 0.03700
H 	H 	0.68775 0.07040 0.39807 0.05700
H 	H 	0.73593 0.21918 0.41277 0.07800
C 	C 	0.16664 0.52102 0.57175 -0.04700
C 	C 	0.17831 0.55747 0.54203 0.05100
C 	C 	0.15809 0.62433 0.53652 -0.07000
C 	C 	0.17306 0.66021 0.50870 0.02400
C 	C 	0.21236 0.63241 0.48635 -0.08500
C 	C 	0.23076 0.56451 0.49168 0.02100
C 	C 	0.21382 0.52729 0.51937 -0.07300
H 	H 	0.11043 0.36313 0.59752 0.05000
H 	H 	0.21856 0.50123 0.57922 0.04900
H 	H 	0.13378 0.65038 0.55395 0.05900
H 	H 	0.15881 0.71271 0.50492 0.04200
H 	H 	0.26331 0.54377 0.47491 0.03200
H 	H 	0.23037 0.47623 0.52338 0.05200
C 	C 	0.57281 0.74872 0.52421 -0.08000
C 	C 	0.51769 0.66624 0.53573 0.02400
C 	C 	0.56136 0.63636 0.55581 -0.07000
C 	C 	0.66036 0.68879 0.56421 0.05600
C 	C 	0.71039 0.77507 0.55590 -0.07000
C 	C 	0.66639 0.80512 0.53607 0.02900
C 	C 	0.71477 0.64965 0.57742 -0.04600
C 	C 	0.78660 0.64620 0.56240 -0.04700
C 	C 	0.80337 0.57297 0.56637 0.05600
C 	C 	0.74578 0.40458 0.58149 -0.08800
C 	C 	0.74207 0.42464 0.55212 0.02600
C 	C 	0.77077 0.50913 0.54452 -0.07500
H 	H 	0.44430 0.62295 0.52730 0.03300
H 	H 	0.52100 0.57037 0.56295 0.05500
H 	H 	0.78557 0.81707 0.56322 0.06400
H 	H 	0.70825 0.87006 0.52801 0.04100
H 	H 	0.68285 0.60844 0.59621 0.05500
H 	H 	0.70800 0.37407 0.53583 0.03500
H 	H 	0.75735 0.52294 0.52247 0.06000
C 	C 	0.33298 0.04832 0.72969 -0.01600
C 	C 	0.33061 0.03048 0.69965 -0.07800
C 	C 	0.24259 0.96447 0.68684 0.11900
C 	C 	0.15605 0.92425 0.70342 -0.02700
C 	C 	0.15755 0.94629 0.73299 -0.05300
C 	C 	0.24781 0.00544 0.74646 0.09400
N 	N 	0.25386 0.02025 0.77737 -0.02300
H 	H 	0.40088 0.09619 0.74009 0.08600
H 	H 	0.08779 0.87613 0.69325 0.08800
N 	N 	0.24163 0.93594 0.65745 -0.02000
O 	O 	0.24705 0.96118 0.79509 -0.07100
O 	O 	0.27639 0.09568 0.78762 -0.08400
O 	O 	0.30174 0.90865 0.64997 -0.06800
O 	O 	0.17577 0.93117 0.63880 -0.08500
C 	C 	0.61076 0.42330 0.71927 0.10300
N 	N 	0.51736 0.35437 0.72814 -0.02000
O 	O 	0.51223 0.28734 0.74065 -0.07600
O 	O 	0.43885 0.36188 0.72599 -0.09100
C 	C 	0.06909 0.57398 0.04542 0.03700
C 	C 	0.15266 0.64952 0.03670 -0.06800
C 	C 	0.23656 0.68722 0.05472 0.02700
C 	C 	0.23620 0.64988 0.08161 -0.08900
C 	C 	0.15874 0.56754 0.08782 0.01700
C 	C 	0.07470 0.53002 0.06994 -0.06700
H 	H 	0.59573 0.30818 0.03514 0.03700
H 	H 	0.15030 0.68197 0.01707 0.05700
H 	H 	0.29754 0.74962 0.04924 0.03800
H 	H 	0.15948 0.53661 0.10803 0.03700
H 	H 	0.01189 0.46942 0.07606 0.04800
C 	C 	0.39768 0.01555 0.14708 -0.09000
C 	C 	0.49096 0.07248 0.15886 0.03000
C 	C 	0.54165 0.15730 0.14957 -0.05700
C 	C 	0.50407 0.18240 0.12601 0.05400
C 	C 	0.40386 0.13148 0.11855 -0.06800
C 	C 	0.35065 0.04761 0.12903 0.03600
C 	C 	0.57230 0.24158 0.10391 -0.04400
C 	C 	0.65034 0.23395 0.09588 -0.05700
C 	C 	0.64783 0.19228 0.06774 0.05300
C 	C 	0.56731 0.11155 0.06046 -0.07600
C 	C 	0.56069 0.07570 0.03279 0.02000
C 	C 	0.63408 0.12054 0.01206 -0.09000
C 	C 	0.72723 0.23142 0.04859 -0.07500
H 	H 	0.52913 0.04835 0.17213 0.04500
H 	H 	0.61573 0.19940 0.15772 0.06700
H 	H 	0.37126 0.15245 0.10182 0.05600
H 	H 	0.27718 0.00499 0.12052 0.03800
H 	H 	0.54190 0.26742 0.08808 0.04600
H 	H 	0.70208 0.23719 0.11250 0.05300
H 	H 	0.50892 0.07749 0.07600 0.05600
H 	H 	0.49591 0.01544 0.02692 0.03500
H 	H 	0.79191 0.29159 0.05462 0.05500
C 	C 	0.39838 0.32971 0.94432 -0.07100
C 	C 	0.48861 0.40699 0.94449 0.01600
C 	C 	0.50692 0.47100 0.96539 -0.06500
C 	C 	0.43465 0.45813 0.98593 0.05100
C 	C 	0.33902 0.38818 0.98218 -0.06700
C 	C 	0.32063 0.32489 0.96108 0.02600
C 	C 	0.46098 0.51490 0.01220 -0.04900
C 	C 	0.43668 0.48157 0.03921 -0.05000
C 	C 	0.46037 0.53740 0.06552 0.05200
C 	C 	0.38456 0.52683 0.08429 -0.06500
C 	C 	0.40638 0.57574 0.11006 0.03800
C 	C 	0.50440 0.63472 0.11769 -0.07800
C 	C 	0.58060 0.64424 0.09917 0.02600
C 	C 	0.55875 0.59549 0.07326 -0.06900
H 	H 	0.54802 0.41358 0.93070 0.04100
H 	H 	0.57918 0.52765 0.96681 0.05900
H 	H 	0.28039 0.38050 0.99656 0.05600
H 	H 	0.24890 0.26756 0.96012 0.05800
H 	H 	0.50504 0.58398 0.00957 0.05300
H 	H 	0.39412 0.41241 0.04184 0.05000
H 	H 	0.30846 0.48176 0.07866 0.05900
H 	H 	0.34674 0.57068 0.12340 0.04800
H 	H 	0.65651 0.69050 0.10454 0.04300
H 	H 	0.61816 0.60277 0.05931 0.05600
N 	N 	0.54987 0.93318 0.89601 -0.02200
O 	O 	0.46587 0.92742 0.90261 -0.09100
O 	O 	0.59670 0.91342 0.91534 -0.08700
C 	C 	0.07773 0.99396 0.87894 0.01000
C 	C 	0.06021 0.92169 0.86222 -0.07300
C 	C 	0.09487 0.86736 0.87304 0.11400
C 	C 	0.16236 0.89524 0.89642 -0.03300
C 	C 	0.19651 0.97689 0.90867 -0.03700
C 	C 	0.14333 0.01990 0.90292 0.06300
N 	N 	0.15871 0.09169 0.92069 -0.01700
H 	H 	0.04347 0.03149 0.87283 0.06300
H 	H 	0.19659 0.85773 0.90267 0.08000
N 	N 	0.06272 0.78464 0.86026 -0.02700
O 	O 	0.16028 0.15807 0.90879 -0.09800
O 	O 	0.16441 0.08821 0.94899 -0.10200
O 	O 	0.12047 0.77367 0.84253 -0.08900
O 	O 	0.98573 0.71812 0.87063 -0.07600
O 	O 	0.55692 0.14698 0.86538 -0.34900
C 	C 	0.63148 0.01552 0.64785 0.31100
C 	C 	0.06589 0.37258 0.61356 -0.05900
C 	C 	0.08788 0.50426 0.58815 -0.04500
C 	C 	0.64924 0.36846 0.02567 0.02400
C 	C 	0.72066 0.19569 0.02083 0.03000
C 	C 	0.06222 0.44949 0.61442 0.05000
O 	O 	0.02316 0.92768 0.37755 -0.08300
C 	C 	0.58931 0.95894 0.86729 0.11200
H 	H 	0.62841 0.85950 0.86285 0.08000
C 	C 	0.66752 0.40942 0.69833 -0.07100
O 	O 	0.86284 0.86318 0.29074 -0.10600
N 	N 	0.83698 0.85166 0.31801 -0.02200
H 	H 	0.82404 0.06009 0.65184 0.07400
C 	C 	0.59971 0.10158 0.87380 0.29700
O 	O 	0.68585 0.31234 0.95496 -0.37500
O 	O 	0.68222 0.28363 0.68987 -0.36400
H 	H 	0.75432 0.06059 0.33928 0.07300
O 	O 	0.47701 0.82592 0.63928 -0.08200
H 	H 	0.60535 0.51430 0.74911 0.06300
C 	C 	0.65320 0.37905 0.99522 -0.08800
C 	C 	0.62615 0.91236 0.85221 -0.03100
C 	C 	0.67288 0.96409 0.65961 -0.06000
C 	C 	0.64785 0.50444 0.73240 -0.02400
H 	H 	0.77986 0.22958 0.00552 0.03900
C 	C 	0.59506 0.03298 0.85460 -0.07100
C 	C 	0.80419 0.96819 0.33322 -0.06400
O 	O 	0.85352 0.79974 0.33367 -0.06800
C 	C 	0.65996 0.33728 0.88382 0.32700
Ni	Ni	0.67190 0.21545 0.92699 1.11600
O 	O 	0.68139 0.14289 0.96145 -0.35700
O 	O 	0.66319 0.12755 0.89602 -0.34600
C 	C 	0.79936 0.47136 0.60161 0.02500
C 	C 	0.77518 0.00283 0.66384 -0.04900
C 	C 	0.61075 0.88538 0.67308 0.10000
N 	N 	0.50729 0.83949 0.66637 -0.01900
C 	C 	0.76028 0.47713 0.69071 -0.02800
H 	H 	0.72905 0.41772 0.06620 0.05400
O 	O 	0.69263 0.67122 0.87705 -0.09200
H 	H 	0.80331 0.46711 0.67437 0.05300
C 	C 	0.71398 0.46140 0.98402 0.02500
C 	C 	0.72417 0.43089 0.04335 -0.07800
H 	H 	0.71234 0.47299 0.96088 0.03600
O 	O 	0.79344 0.21449 0.61637 -0.38300
O 	O 	0.70910 0.29872 0.89152 -0.35700
O 	O 	0.77786 0.19381 0.66642 -0.37100
C 	C 	0.88344 0.07740 0.23192 -0.05700
C 	C 	0.89145 0.03722 0.20637 0.09200
C 	C 	0.82750 0.55575 0.59416 -0.07500
H 	H 	0.80910 0.45683 0.62387 0.02600
C 	C 	0.64965 0.85383 0.69419 -0.01700
H 	H 	0.60094 0.79477 0.70533 0.07200
O 	O 	0.44339 0.80975 0.68734 -0.08000
C 	C 	0.74194 0.57130 0.72540 -0.07900
H 	H 	0.72511 0.49391 0.90698 0.05800
O 	O 	0.62855 0.31159 0.80072 -0.08500
O 	O 	0.71154 0.84140 0.75075 -0.36000
H 	H 	0.00946 0.52182 0.63905 0.06400
H 	H 	0.81679 0.68573 0.54316 0.05400
Ni	Ni	0.72034 0.75372 0.77807 1.11700
O 	O 	0.70053 0.64906 0.80390 -0.35700
O 	O 	0.74857 0.70141 0.74138 -0.37300
O 	O 	0.68924 0.81716 0.81111 -0.35400
C 	C 	0.74956 0.90166 0.70254 -0.07200
C 	C 	0.81421 0.97175 0.68515 0.12000
C 	C 	0.79764 0.55806 0.70401 0.10100
C 	C 	0.66387 0.93638 0.82400 -0.05200
C 	C 	0.62126 0.05034 0.82516 -0.01900
C 	C 	0.72720 0.49370 0.88331 -0.01700
C 	C 	0.70872 0.41874 0.86823 -0.08100
C 	C 	0.70986 0.41820 0.83743 0.10600
C 	C 	0.73883 0.56557 0.86803 0.10200
N 	N 	0.74823 0.63862 0.88390 -0.02000
N 	N 	0.69425 0.34314 0.82163 -0.02500
C 	C 	0.82676 0.23974 0.64336 0.28000
C 	C 	0.78603 0.65042 0.74307 0.32500
C 	C 	0.72404 0.90157 0.81103 0.29800
C 	C 	0.91023 0.03488 0.33041 0.30600
H 	H 	0.85837 0.60581 0.61079 0.06800
N 	N 	0.91879 0.00952 0.68832 -0.02600
C 	C 	0.78790 0.52431 0.00171 -0.07500
C 	C 	0.80016 0.50451 0.03051 0.05500
C 	C 	0.65349 0.00117 0.80958 0.09300
H 	H 	0.62111 0.10440 0.81474 0.08500
C 	C 	0.72303 0.49049 0.82211 -0.02600
C 	C 	0.73702 0.56403 0.83722 -0.06500
H 	H 	0.72459 0.49011 0.79840 0.07300
C 	C 	0.78009 0.88663 0.73175 0.31900
C 	C 	0.76699 0.64306 0.82091 0.30800
C 	C 	0.95124 0.09614 0.25677 0.29500
O 	O 	0.93469 0.11608 0.32828 -0.35700
O 	O 	0.97901 0.01337 0.33089 -0.35000
N 	N 	0.97953 0.03360 0.20069 -0.01500
O 	O 	0.97393 0.96154 0.19269 -0.07700
N 	N 	0.89214 0.62675 0.69569 -0.02400
O 	O 	0.90110 0.69929 0.68710 -0.09000
H 	H 	0.84222 0.58420 0.99215 0.06400
H 	H 	0.90825 0.56921 0.06653 0.05600
O 	O 	0.80516 0.66707 0.90694 -0.09200
O 	O 	0.74956 0.30926 0.82701 -0.07900
C 	C 	0.00869 0.46129 0.63681 -0.07400
C 	C 	0.89918 0.54637 0.04402 -0.05500
O 	O 	0.62352 0.95569 0.76004 -0.07900
O 	O 	0.84942 0.66027 0.76389 -0.36800
O 	O 	0.95369 0.02979 0.26927 -0.34600
N 	N 	0.67422 0.01627 0.77907 -0.02100
Ni	Ni	0.06163 0.03280 0.29566 1.12300
O 	O 	0.87365 0.92795 0.73989 -0.34800
O 	O 	0.80247 0.95455 0.79540 -0.34600
O 	O 	0.96759 0.61456 0.69459 -0.09400
O 	O 	0.85248 0.81997 0.78860 -0.72000
H 	H 	0.84259 0.82010 0.80983 0.16300
O 	O 	0.98409 0.17178 0.27030 -0.35400
C 	C 	0.92862 0.30935 0.64684 -0.06100
H 	H 	0.89491 0.39829 0.66865 0.04000
H 	H 	0.03728 0.52592 0.58105 0.04700
O 	O 	0.86089 0.70337 0.82213 -0.35500
O 	O 	0.73786 0.09254 0.77017 -0.09100
O 	O 	0.04161 0.82910 0.35190 -0.08000
Ni	Ni	0.05787 0.20736 0.30867 1.12100
H 	H 	0.99646 0.24152 0.62752 0.05600
O 	O 	0.06513 0.10298 0.20251 -0.10400
C 	C 	0.94373 0.39125 0.65364 0.02400
C 	C 	0.00125 0.30342 0.63072 0.00200
H 	H 	0.96530 0.52115 0.00791 0.05100
Ni	Ni	0.93553 0.77061 0.78701 1.13100
Ni	Ni	0.91956 0.94070 0.78238 1.12800
C 	C 	0.97425 0.54473 0.03031 -0.03400
O 	O 	0.05714 0.24532 0.40686 -0.09500
O 	O 	0.97254 0.09120 0.69396 -0.09000
O 	O 	0.96103 0.96413 0.68274 -0.07900
