data_crystal

_cell_length_a 26.98553
_cell_length_b 28.80947
_cell_length_c 30.33657
_cell_angle_alpha 60.94990
_cell_angle_beta  118.72123
_cell_angle_gamma 133.13525

_symmetry_space_group_name_	'P 1'
_symmetry_space_group_name_H-M	'P 1'

loop_
_symmetry_equiv_pos_as_xyz
  x,y,z

loop_
_atom_site_label
_atom_site_type_symbol
_atom_site_fract_x
_atom_site_fract_y
_atom_site_fract_z
_atom_site_charge
C 	C 	0.74969 0.33257 0.01716 0.07600
C 	C 	0.78966 0.39111 0.03168 -0.09600
C 	C 	0.75649 0.40851 0.03821 0.07400
C 	C 	0.68366 0.36869 0.02845 -0.10600
C 	C 	0.64405 0.30822 0.01782 0.07800
C 	C 	0.67680 0.29071 0.01086 -0.09400
H 	H 	0.84614 0.42186 0.03920 0.06900
H 	H 	0.65812 0.38239 0.03329 0.06500
H 	H 	0.64621 0.24378 0.00261 0.07100
C 	C 	0.71008 0.31888 0.48445 0.07500
C 	C 	0.75011 0.38425 0.48656 -0.09500
C 	C 	0.72007 0.40535 0.49249 0.07700
C 	C 	0.65104 0.36084 0.49761 -0.09400
C 	C 	0.61006 0.29652 0.49358 0.07400
C 	C 	0.63938 0.27574 0.48632 -0.09000
H 	H 	0.80425 0.41808 0.48419 0.06200
H 	H 	0.62906 0.37645 0.50460 0.06700
H 	H 	0.60793 0.22588 0.48339 0.07600
C 	C 	0.27342 0.61535 0.30688 0.07800
C 	C 	0.24644 0.55018 0.31448 -0.09400
C 	C 	0.28042 0.53742 0.30313 0.07500
C 	C 	0.34162 0.58982 0.28511 -0.09700
C 	C 	0.36868 0.65451 0.27789 0.07900
C 	C 	0.33506 0.66735 0.28917 -0.09600
H 	H 	0.19854 0.50991 0.32777 0.07600
H 	H 	0.36717 0.58024 0.27531 0.06700
H 	H 	0.35547 0.71764 0.28264 0.06800
C 	C 	0.27340 0.61705 0.81091 0.07400
C 	C 	0.34366 0.65154 0.81205 -0.08700
C 	C 	0.36591 0.61958 0.81197 0.07900
C 	C 	0.31970 0.55180 0.81713 -0.09700
C 	C 	0.24791 0.52083 0.80484 0.07500
C 	C 	0.22446 0.55248 0.80415 -0.09400
H 	H 	0.37962 0.70368 0.80997 0.06900
H 	H 	0.33795 0.52645 0.81983 0.06700
H 	H 	0.16905 0.52831 0.79655 0.06900
Co	Co	0.09848 0.97650 0.17895 1.19300
Co	Co	0.92635 0.99210 0.12638 1.19200
Co	Co	0.05126 0.03263 0.21220 1.18300
C 	C 	0.10259 0.85667 0.22192 0.32200
Co	Co	0.08012 0.90893 0.10732 1.17000
Co	Co	0.94844 0.06750 0.19302 1.16700
O 	O 	0.03631 0.15773 0.17079 -0.39700
C 	C 	0.09811 0.16940 0.19458 0.32000
O 	O 	0.12600 0.02184 0.22934 -0.46400
O 	O 	0.89980 0.94896 0.07486 -0.45900
C 	C 	0.91300 0.10091 0.07816 0.32300
C 	C 	0.20980 0.03481 0.13222 0.31300
C 	C 	0.92634 0.80924 0.08856 0.32600
O 	O 	0.11337 0.13510 0.19332 -0.38700
O 	O 	0.18323 0.97298 0.14216 -0.39200
O 	O 	0.17898 0.05001 0.14028 -0.38800
O 	O 	0.88872 0.07612 0.11840 -0.41200
O 	O 	0.94172 0.07938 0.07606 -0.39900
O 	O 	0.02939 0.99416 0.28453 -0.36800
O 	O 	0.90973 0.83623 0.09866 -0.38200
O 	O 	0.04566 0.93897 0.13008 -0.75800
C 	C 	0.81494 0.93820 0.17732 0.32100
O 	O 	0.86394 0.97223 0.21258 -0.38700
O 	O 	0.82995 0.93165 0.14563 -0.37600
O 	O 	0.06413 0.84050 0.17718 -0.39800
O 	O 	0.11924 0.90722 0.23117 -0.37200
O 	O 	0.09077 0.98071 0.03882 -0.38900
Co	Co	0.08740 0.97093 0.67591 1.18900
Co	Co	0.90242 0.96696 0.62403 1.19100
Co	Co	0.03094 0.02646 0.70142 1.18100
C 	C 	0.13787 0.88284 0.73606 0.32400
Co	Co	0.06177 0.87523 0.62731 1.17000
Co	Co	0.90487 0.02721 0.69116 1.16700
C 	C 	0.04432 0.15069 0.67708 0.31800
O 	O 	0.11607 0.03420 0.71036 -0.46300
O 	O 	0.88930 0.93348 0.57122 -0.46300
C 	C 	0.85706 0.05187 0.57710 0.32700
C 	C 	0.17561 0.02282 0.60843 0.30800
C 	C 	0.90904 0.78364 0.59596 0.31800
O 	O 	0.07121 0.12642 0.67544 -0.38400
O 	O 	0.16232 0.96405 0.62661 -0.39200
O 	O 	0.14555 0.03559 0.62034 -0.40000
O 	O 	0.83469 0.02105 0.61959 -0.41200
O 	O 	0.89957 0.04614 0.57385 -0.39600
O 	O 	0.02336 0.99290 0.77794 -0.36500
O 	O 	0.89115 0.81869 0.59181 -0.37400
O 	O 	0.02854 0.91366 0.64140 -0.75500
C 	C 	0.79402 0.88578 0.68916 0.31900
O 	O 	0.83848 0.92729 0.71931 -0.38800
O 	O 	0.80652 0.89734 0.64595 -0.37300
O 	O 	0.08771 0.84290 0.70586 -0.38700
O 	O 	0.13599 0.92695 0.73755 -0.37300
O 	O 	0.02635 0.89702 0.54709 -0.40900
C 	C 	0.07430 0.04877 0.92235 0.08000
C 	C 	0.06909 0.04973 0.87345 -0.05300
C 	C 	0.89916 0.88095 0.85681 -0.19600
H 	H 	0.92887 0.89365 0.95121 0.04800
H 	H 	0.10764 0.09372 0.85146 0.05400
C 	C 	0.13430 0.10854 0.94381 -0.20100
H 	H 	0.87338 0.83601 0.88717 0.07700
H 	H 	0.91524 0.87051 0.83720 0.08800
H 	H 	0.86061 0.89140 0.82826 0.08900
H 	H 	0.17611 0.10218 0.97104 0.09300
H 	H 	0.11683 0.11647 0.96440 0.09000
H 	H 	0.15646 0.15348 0.91234 0.08500
C 	C 	0.05984 0.98131 0.39420 -0.03900
C 	C 	0.06666 0.96769 0.44732 0.08300
C 	C 	0.11108 0.94376 0.48629 -0.19700
H 	H 	0.09042 0.97923 0.38260 0.05900
H 	H 	0.95408 0.99320 0.43628 0.05600
C 	C 	0.91727 0.00791 0.33289 -0.22300
H 	H 	0.15308 0.96306 0.47029 0.08400
H 	H 	0.07794 0.88933 0.49574 0.07900
H 	H 	0.13731 0.96004 0.52246 0.07900
H 	H 	0.88659 0.97777 0.30468 0.09300
H 	H 	0.94108 0.06045 0.31228 0.08000
H 	H 	0.87986 0.99182 0.35207 0.08900
C 	C 	0.09607 0.31115 0.67103 -0.11300
C 	C 	0.13877 0.31938 0.72081 0.01100
C 	C 	0.16186 0.27896 0.75201 0.11700
C 	C 	0.13686 0.22720 0.73503 -0.03400
C 	C 	0.09060 0.21665 0.68640 -0.11800
C 	C 	0.07447 0.26198 0.65310 0.19600
C 	C 	0.15895 0.37037 0.74004 -0.00900
O 	O 	0.20654 0.28825 0.79978 -0.27900
H 	H 	0.15030 0.19315 0.76089 0.05300
O 	O 	0.03529 0.25673 0.60348 -0.28000
H 	H 	0.07779 0.34165 0.64665 0.07100
C 	C 	0.19013 0.43604 0.71068 0.13200
C 	C 	0.20753 0.48323 0.72853 -0.07700
C 	C 	0.20115 0.46749 0.77805 -0.04800
C 	C 	0.16747 0.40154 0.80653 0.15400
C 	C 	0.14471 0.35297 0.78681 -0.09100
O 	O 	0.20886 0.45525 0.66678 -0.27500
H 	H 	0.23272 0.53378 0.70608 0.06200
O 	O 	0.15762 0.38455 0.85391 -0.27900
H 	H 	0.11794 0.30219 0.80863 0.07800
H 	H 	0.98684 0.23266 0.60522 0.14500
H 	H 	0.17143 0.45734 0.63743 0.14700
H 	H 	0.19954 0.38721 0.87956 0.15400
H 	H 	0.25407 0.31952 0.79339 0.15200
C 	C 	0.65274 0.74460 0.76064 -0.12000
C 	C 	0.60290 0.75787 0.73293 0.01200
C 	C 	0.61155 0.80635 0.68587 0.12200
C 	C 	0.67109 0.84276 0.66807 -0.03200
C 	C 	0.72359 0.83316 0.69790 -0.12400
C 	C 	0.71311 0.78220 0.74335 0.19500
C 	C 	0.54251 0.72202 0.75373 -0.01000
O 	O 	0.56468 0.82167 0.65942 -0.27100
H 	H 	0.67901 0.88206 0.63306 0.06200
O 	O 	0.76392 0.77203 0.77272 -0.29900
H 	H 	0.64567 0.70645 0.79639 0.07600
C 	C 	0.47467 0.67925 0.72745 0.14100
C 	C 	0.41737 0.64942 0.74504 -0.07600
C 	C 	0.42714 0.65780 0.79118 -0.04800
C 	C 	0.49513 0.69920 0.81841 0.15400
C 	C 	0.55258 0.73154 0.79941 -0.09200
O 	O 	0.46429 0.66711 0.68417 -0.28000
H 	H 	0.36514 0.61810 0.72358 0.06600
O 	O 	0.50572 0.70594 0.86455 -0.27600
H 	H 	0.60489 0.76391 0.82017 0.07300
H 	H 	0.75252 0.73962 0.75941 0.15200
H 	H 	0.46522 0.62871 0.69729 0.15100
H 	H 	0.50750 0.74507 0.85529 0.15200
H 	H 	0.53193 0.79641 0.63246 0.16200
C 	C 	0.26771 0.71343 0.85760 -0.09200
C 	C 	0.23137 0.73548 0.81219 -0.00800
C 	C 	0.20174 0.71219 0.76812 0.14000
C 	C 	0.21205 0.67019 0.76882 -0.07700
C 	C 	0.25104 0.65038 0.81352 -0.04600
C 	C 	0.27710 0.67061 0.85857 0.15300
C 	C 	0.22565 0.78426 0.81017 0.01000
O 	O 	0.16508 0.73248 0.72368 -0.28000
H 	H 	0.19172 0.65485 0.73404 0.06600
O 	O 	0.31449 0.65097 0.90283 -0.27900
H 	H 	0.28968 0.73028 0.89191 0.07100
C 	C 	0.17420 0.76399 0.82994 0.11500
C 	C 	0.15538 0.80557 0.81471 -0.02800
C 	C 	0.18493 0.86551 0.77758 -0.12000
C 	C 	0.24574 0.89066 0.76686 0.18900
C 	C 	0.26496 0.84944 0.78208 -0.11000
O 	O 	0.13795 0.70170 0.86013 -0.27100
H 	H 	0.11125 0.78729 0.82606 0.06200
O 	O 	0.28051 0.95220 0.73542 -0.29400
H 	H 	0.30733 0.86677 0.76906 0.08000
H 	H 	0.27937 0.60958 0.92251 0.15500
H 	H 	0.16442 0.70540 0.89634 0.14700
H 	H 	0.31776 0.98140 0.75942 0.15200
H 	H 	0.11592 0.69999 0.72693 0.15400
C 	C 	0.20404 0.33642 0.21285 -0.12000
C 	C 	0.20420 0.31964 0.26476 0.00900
C 	C 	0.18580 0.25675 0.29595 0.12300
C 	C 	0.16152 0.20972 0.27381 -0.03600
C 	C 	0.15152 0.22376 0.22020 -0.12500
C 	C 	0.17661 0.28844 0.19027 0.19900
C 	C 	0.21564 0.36524 0.28418 -0.00700
O 	O 	0.18576 0.23941 0.34681 -0.27000
H 	H 	0.14486 0.16063 0.29757 0.05800
O 	O 	0.17224 0.30429 0.13856 -0.28500
H 	H 	0.22101 0.38562 0.18915 0.07600
C 	C 	0.27629 0.39678 0.32168 0.14000
C 	C 	0.29150 0.44698 0.33393 -0.07600
C 	C 	0.24968 0.46977 0.30594 -0.04700
C 	C 	0.18654 0.43516 0.27108 0.15500
C 	C 	0.16911 0.38225 0.26121 -0.09400
O 	O 	0.32183 0.38010 0.34519 -0.27600
H 	H 	0.33929 0.47225 0.36183 0.06700
O 	O 	0.14318 0.45456 0.24511 -0.28400
H 	H 	0.12128 0.35687 0.23339 0.07000
H 	H 	0.12718 0.29877 0.12020 0.15500
H 	H 	0.35528 0.40902 0.32274 0.15000
H 	H 	0.15882 0.48661 0.21265 0.15000
H 	H 	0.23125 0.24635 0.36712 0.16000
C 	C 	0.48436 0.76584 0.18397 -0.09600
C 	C 	0.55037 0.79024 0.21812 -0.00900
C 	C 	0.55684 0.77668 0.27108 0.14200
C 	C 	0.49708 0.73637 0.28991 -0.07600
C 	C 	0.43076 0.70869 0.25629 -0.05100
C 	C 	0.42458 0.72544 0.20283 0.15400
C 	C 	0.61235 0.82750 0.19891 0.01100
O 	O 	0.62152 0.80270 0.30443 -0.27500
H 	H 	0.50211 0.72420 0.33102 0.06900
O 	O 	0.35991 0.69921 0.16950 -0.28600
H 	H 	0.47927 0.77685 0.14303 0.06900
C 	C 	0.63553 0.79507 0.20080 0.11400
C 	C 	0.70029 0.83158 0.19025 -0.02600
C 	C 	0.74181 0.90030 0.17758 -0.12500
C 	C 	0.71605 0.93249 0.17182 0.19400
C 	C 	0.65166 0.89602 0.18279 -0.11400
O 	O 	0.59690 0.72788 0.21592 -0.27300
H 	H 	0.71955 0.80651 0.19423 0.06100
O 	O 	0.75543 0.99974 0.15803 -0.29400
H 	H 	0.63337 0.92111 0.18043 0.08000
H 	H 	0.34922 0.73078 0.15781 0.14700
H 	H 	0.56564 0.71304 0.18341 0.14900
H 	H 	0.74148 0.01176 0.11963 0.14400
H 	H 	0.63099 0.76989 0.31754 0.15600
C 	C 	0.21723 0.80068 0.29387 -0.11800
C 	C 	0.16635 0.73249 0.30344 0.00800
C 	C 	0.09775 0.70680 0.29917 0.12500
C 	C 	0.07863 0.74921 0.27894 -0.03100
C 	C 	0.12753 0.81711 0.26256 -0.12400
C 	C 	0.19813 0.84303 0.27391 0.19300
C 	C 	0.18226 0.68956 0.30913 -0.00800
O 	O 	0.04919 0.64037 0.31396 -0.27100
H 	H 	0.02461 0.72895 0.27227 0.06000
O 	O 	0.24721 0.90951 0.26033 -0.28800
H 	H 	0.27069 0.82089 0.29859 0.07700
C 	C 	0.15745 0.66476 0.26721 0.13700
C 	C 	0.18213 0.63387 0.26917 -0.07600
C 	C 	0.23356 0.62974 0.31181 -0.04900
C 	C 	0.25531 0.65094 0.35499 0.15400
C 	C 	0.22964 0.68077 0.35352 -0.09300
O 	O 	0.11072 0.67249 0.22364 -0.28500
H 	H 	0.16462 0.61697 0.23604 0.06700
O 	O 	0.30494 0.64639 0.39726 -0.28200
H 	H 	0.24875 0.69947 0.38601 0.07500
H 	H 	0.26577 0.92499 0.29134 0.15800
H 	H 	0.13962 0.71517 0.20069 0.14400
H 	H 	0.27838 0.60300 0.42070 0.15300
H 	H 	0.02435 0.62464 0.28196 0.16600
C 	C 	0.81234 0.25124 0.53071 -0.09400
C 	C 	0.78951 0.22880 0.48807 -0.01300
C 	C 	0.74607 0.24209 0.44224 0.13900
C 	C 	0.72276 0.27429 0.44039 -0.07700
C 	C 	0.74314 0.29410 0.48389 -0.04700
C 	C 	0.78963 0.28398 0.52871 0.15200
C 	C 	0.80406 0.18453 0.49397 0.01400
O 	O 	0.72382 0.22108 0.40005 -0.27600
H 	H 	0.68738 0.28229 0.40561 0.06700
O 	O 	0.80936 0.30223 0.57177 -0.28300
H 	H 	0.84567 0.24113 0.56617 0.06200
C 	C 	0.87290 0.20775 0.50181 0.11200
C 	C 	0.88915 0.16299 0.52195 -0.03000
C 	C 	0.83723 0.09529 0.53522 -0.12500
C 	C 	0.76699 0.07251 0.51990 0.19800
C 	C 	0.75071 0.11709 0.49961 -0.11500
O 	O 	0.92406 0.27387 0.48952 -0.26600
H 	H 	0.94285 0.18107 0.53073 0.07100
O 	O 	0.71441 0.00650 0.52645 -0.29300
H 	H 	0.69705 0.09889 0.49135 0.08300
H 	H 	0.85318 0.34733 0.56826 0.14500
H 	H 	0.94409 0.28866 0.52124 0.14600
H 	H 	0.70501 0.99181 0.56038 0.16400
H 	H 	0.75948 0.25778 0.37933 0.15400
C 	C 	0.79697 0.61747 0.57316 -0.11400
C 	C 	0.81807 0.63413 0.53036 0.01000
C 	C 	0.85543 0.70016 0.50266 0.11900
C 	C 	0.87550 0.74912 0.52006 -0.03700
C 	C 	0.86232 0.73319 0.56673 -0.12100
C 	C 	0.81993 0.66677 0.59191 0.19900
C 	C 	0.80340 0.58269 0.51601 -0.00900
O 	O 	0.87359 0.71712 0.45923 -0.27400
H 	H 	0.90629 0.80004 0.49950 0.05700
O 	O 	0.80242 0.65003 0.63560 -0.28700
H 	H 	0.76543 0.56646 0.59331 0.07300
C 	C 	0.83291 0.54821 0.55051 0.13300
C 	C 	0.81159 0.49400 0.53963 -0.07600
C 	C 	0.76070 0.47372 0.49460 -0.05100
C 	C 	0.73724 0.51269 0.45752 0.15300
C 	C 	0.75747 0.56608 0.46878 -0.09200
O 	O 	0.88283 0.56765 0.59463 -0.28000
H 	H 	0.83140 0.46538 0.56774 0.06300
O 	O 	0.69016 0.49544 0.41206 -0.28400
H 	H 	0.73581 0.59332 0.44144 0.08000
H 	H 	0.83922 0.64693 0.66507 0.15700
H 	H 	0.85692 0.54114 0.62221 0.14600
H 	H 	0.71891 0.51886 0.38709 0.15300
H 	H 	0.92001 0.72568 0.47199 0.14700
C 	C 	0.36023 0.15068 0.59276 -0.11900
C 	C 	0.35028 0.15292 0.54204 0.01000
C 	C 	0.28212 0.12242 0.51048 0.12300
C 	C 	0.22497 0.08761 0.53078 -0.04000
C 	C 	0.23465 0.07748 0.58348 -0.11900
C 	C 	0.30262 0.11239 0.61375 0.19900
C 	C 	0.41087 0.18339 0.52361 -0.00900
O 	O 	0.27094 0.12238 0.46134 -0.27500
H 	H 	0.17302 0.06667 0.50594 0.05000
O 	O 	0.31284 0.11017 0.66340 -0.29100
H 	H 	0.41259 0.17655 0.61653 0.07500
C 	C 	0.43173 0.23963 0.48207 0.14100
C 	C 	0.49252 0.27110 0.46799 -0.07800
C 	C 	0.53666 0.25092 0.49817 -0.04600
C 	C 	0.51496 0.19375 0.53900 0.15300
C 	C 	0.45136 0.15928 0.55052 -0.09500
O 	O 	0.39397 0.26502 0.45618 -0.27900
H 	H 	0.50820 0.31441 0.43597 0.07100
O 	O 	0.55662 0.17249 0.56853 -0.28300
H 	H 	0.43513 0.11547 0.58208 0.07100
H 	H 	0.31874 0.07459 0.68583 0.15800
H 	H 	0.41416 0.29645 0.47529 0.15100
H 	H 	0.58694 0.19455 0.59747 0.15100
H 	H 	0.26493 0.15778 0.43788 0.15900
C 	C 	0.84566 0.26179 0.05440 -0.09600
C 	C 	0.84390 0.26615 0.00558 -0.01400
C 	C 	0.81373 0.29507 0.96041 0.14200
C 	C 	0.78384 0.31759 0.96436 -0.07000
C 	C 	0.78464 0.31215 0.01324 -0.05500
C 	C 	0.81667 0.28505 0.05835 0.15400
C 	C 	0.86783 0.23476 0.00227 0.00200
O 	O 	0.81130 0.29935 0.91245 -0.27700
H 	H 	0.75945 0.33864 0.92946 0.06500
O 	O 	0.81670 0.27837 0.10633 -0.28000
H 	H 	0.86816 0.23897 0.08934 0.06500
C 	C 	0.93850 0.25834 0.02200 0.12000
C 	C 	0.95692 0.21658 0.03704 -0.04200
C 	C 	0.90469 0.15063 0.03504 -0.11600
C 	C 	0.83671 0.13161 0.00605 0.17800
C 	C 	0.81831 0.17364 0.98996 -0.09200
O 	O 	0.98909 0.32108 0.02851 -0.27500
O 	O 	0.78676 0.06987 0.99742 -0.27500
H 	H 	0.76434 0.15637 0.97213 0.07800
H 	H 	0.86077 0.31921 0.11669 0.14700
H 	H 	0.99489 0.31741 0.06467 0.14100
H 	H 	0.76385 0.04206 0.02695 0.14300
H 	H 	0.85499 0.34232 0.90335 0.15500
C 	C 	0.85424 0.58118 0.04285 -0.09600
C 	C 	0.83530 0.56886 0.08513 -0.01300
C 	C 	0.80272 0.50517 0.11749 0.14300
C 	C 	0.78600 0.45395 0.10571 -0.08000
C 	C 	0.79737 0.46483 0.05995 -0.04700
C 	C 	0.83426 0.52926 0.02961 0.14600
C 	C 	0.84498 0.62168 0.09290 0.01300
O 	O 	0.78177 0.49180 0.15793 -0.27400
H 	H 	0.75866 0.40455 0.12977 0.06500
O 	O 	0.84895 0.54131 0.98619 -0.27900
H 	H 	0.88140 0.63056 0.01874 0.06400
C 	C 	0.89307 0.64767 0.13653 0.12000
C 	C 	0.90892 0.70360 0.13966 -0.03500
C 	C 	0.88313 0.73797 0.09716 -0.12700
C 	C 	0.83053 0.70895 0.05573 0.19800
C 	C 	0.81069 0.65026 0.05419 -0.11800
O 	O 	0.92665 0.62012 0.17509 -0.27800
O 	O 	0.80080 0.73941 0.01558 -0.29100
H 	H 	0.77169 0.62914 0.02137 0.07600
H 	H 	0.80859 0.53806 0.95737 0.14900
H 	H 	0.82951 0.76750 0.98965 0.15300
H 	H 	0.81914 0.49282 0.18914 0.16100
C 	C 	0.49320 0.17874 0.08163 -0.10300
C 	C 	0.44717 0.19610 0.04863 -0.00400
C 	C 	0.46054 0.24197 0.00070 0.12400
C 	C 	0.52205 0.27327 0.98769 -0.05800
C 	C 	0.57096 0.25978 0.02259 -0.06100
C 	C 	0.55502 0.21049 0.06891 0.15900
C 	C 	0.38257 0.16262 0.06286 0.00800
O 	O 	0.41535 0.25867 0.96773 -0.26800
H 	H 	0.53384 0.31107 0.95192 0.06200
O 	O 	0.60094 0.19481 0.10254 -0.28200
H 	H 	0.48168 0.14146 0.11766 0.07100
C 	C 	0.32010 0.10816 0.04377 0.11500
C 	C 	0.26187 0.06969 0.06375 -0.03600
C 	C 	0.26513 0.08481 0.10313 -0.12300
C 	C 	0.32656 0.14152 0.12028 0.19400
C 	C 	0.38501 0.18043 0.09992 -0.11300
O 	O 	0.31631 0.09157 0.00625 -0.28100
H 	H 	0.21532 0.02579 0.05067 0.04600
O 	O 	0.33028 0.15810 0.15774 -0.28200
H 	H 	0.43296 0.22291 0.11436 0.07900
H 	H 	0.63221 0.22420 0.12641 0.15200
H 	H 	0.32997 0.06113 0.02537 0.14400
H 	H 	0.34811 0.13616 0.19118 0.15200
H 	H 	0.38241 0.22859 0.94430 0.15700
C 	C 	0.03747 0.98279 0.00723 0.28500
C 	C 	0.01238 0.01671 0.30006 0.27800
C 	C 	0.02595 0.94867 0.51875 0.29300
C 	C 	0.99771 0.00586 0.79488 0.26800
O 	O 	0.96438 0.78782 0.63035 -0.38900
C 	C 	0.02399 0.99158 0.95111 -0.06400
C 	C 	0.01230 0.99593 0.85136 -0.05000
C 	C 	0.01398 0.99723 0.35615 -0.06600
C 	C 	0.02832 0.97238 0.46304 -0.07600
C 	C 	0.97346 0.99901 0.37184 0.08700
H 	H 	0.94677 0.72390 0.17298 0.05900
O 	O 	0.01120 0.97169 0.53614 -0.39100
O 	O 	0.97691 0.12349 0.66001 -0.40000
H 	H 	0.01047 0.23309 0.05629 0.06400
H 	H 	0.96978 0.64321 0.16478 0.14900
O 	O 	0.00756 0.06547 0.26919 -0.40000
O 	O 	0.97415 0.04138 0.76324 -0.39900
Co	Co	0.97320 0.93618 0.09331 1.18200
Co	Co	0.96158 0.91640 0.59728 1.17800
C 	C 	0.96742 0.93760 0.92922 -0.04600
C 	C 	0.96152 0.93902 0.87983 0.06700
C 	C 	0.98399 0.99021 0.42479 -0.04700
O 	O 	0.97481 0.02321 0.17861 -0.76800
O 	O 	0.99894 0.96192 0.16500 -0.58200
O 	O 	0.98021 0.84567 0.06884 -0.42000
O 	O 	0.00517 0.98982 0.02315 -0.37800
O 	O 	0.94701 0.99927 0.67489 -0.76500
O 	O 	0.98367 0.94706 0.66503 -0.57400
