data_crystal

_cell_length_a 18.48968
_cell_length_b 18.85068
_cell_length_c 35.01793
_cell_angle_alpha 95.41929
_cell_angle_beta  95.41996
_cell_angle_gamma 126.39145

_symmetry_space_group_name_	'P 1'
_symmetry_space_group_name_H-M	'P 1'

loop_
_symmetry_equiv_pos_as_xyz
  x,y,z

loop_
_atom_site_label
_atom_site_type_symbol
_atom_site_fract_x
_atom_site_fract_y
_atom_site_fract_z
_atom_site_charge
C 	C 	0.89315 0.00119 0.96207 0.15400
N 	N 	0.98450 0.05480 0.96244 -0.12700
C 	C 	0.03203 0.02118 0.96493 0.16500
N 	N 	0.98787 0.93323 0.96636 -0.09200
C 	C 	0.89702 0.87916 0.96672 0.18600
N 	N 	0.84910 0.91303 0.96460 -0.11700
C 	C 	0.95829 0.02391 0.49727 0.14900
N 	N 	0.90573 0.93485 0.49807 -0.09100
C 	C 	0.94444 0.89264 0.50102 0.19300
N 	N 	0.03577 0.93932 0.50342 -0.10200
C 	C 	0.08875 0.02811 0.50238 0.16300
N 	N 	0.05007 0.07071 0.49919 -0.13000
Cu	Cu	0.74663 0.34974 0.95882 0.92500
Cu	Cu	0.73139 0.28315 0.04280 0.88600
Cu	Cu	0.60556 0.31679 0.00784 0.90400
Cu	Cu	0.57612 0.34100 0.92670 0.91500
C 	C 	0.68734 0.32256 0.87637 0.29800
O 	O 	0.79660 0.48025 0.95640 -0.34800
C 	C 	0.65746 0.34213 0.09348 0.29500
O 	O 	0.60450 0.27750 0.95469 -0.64100
O 	O 	0.73730 0.36860 0.01395 -0.63500
O 	O 	0.80613 0.28884 0.96475 -0.36100
O 	O 	0.70328 0.19549 0.00032 -0.38800
O 	O 	0.65045 0.36262 0.88519 -0.34900
O 	O 	0.47539 0.25819 0.00079 -0.36600
C 	C 	0.42018 0.24344 0.96896 0.32500
C 	C 	0.75345 0.51262 0.96777 0.32500
O 	O 	0.66814 0.45732 0.97203 -0.37700
O 	O 	0.45105 0.27915 0.93803 -0.34100
O 	O 	0.73196 0.31161 0.90390 -0.35900
C 	C 	0.76480 0.21405 0.97890 0.31300
O 	O 	0.60807 0.34352 0.06401 -0.36300
O 	O 	0.72806 0.34333 0.08882 -0.40300
H 	H 	0.56411 0.21161 0.94574 0.17300
H 	H 	0.77904 0.43157 0.02815 0.18300
Cu	Cu	0.63307 0.20159 0.50724 0.93100
Cu	Cu	0.69831 0.20149 0.42308 0.87900
Cu	Cu	0.67543 0.33755 0.45461 0.90500
Cu	Cu	0.62690 0.36159 0.53204 0.90800
C 	C 	0.65435 0.26604 0.58844 0.30200
O 	O 	0.49883 0.14400 0.50767 -0.36400
C 	C 	0.64085 0.27054 0.36953 0.30200
O 	O 	0.70159 0.33946 0.50935 -0.63500
O 	O 	0.61624 0.20679 0.45113 -0.63800
O 	O 	0.69468 0.14347 0.50502 -0.36400
O 	O 	0.78861 0.23497 0.46645 -0.42500
O 	O 	0.61132 0.29901 0.57719 -0.37100
O 	O 	0.73825 0.46553 0.46189 -0.37000
C 	C 	0.73611 0.51356 0.49115 0.34700
C 	C 	0.46060 0.17909 0.49343 0.33300
O 	O 	0.51266 0.26090 0.48664 -0.36800
O 	O 	0.67439 0.47564 0.51366 -0.36100
O 	O 	0.66859 0.22128 0.56284 -0.34800
C 	C 	0.76965 0.17928 0.49042 0.35600
O 	O 	0.67291 0.33930 0.39799 -0.37300
O 	O 	0.63461 0.19981 0.37652 -0.40700
H 	H 	0.76733 0.38081 0.52145 0.19100
H 	H 	0.55200 0.16745 0.43699 0.18800
C 	C 	0.68897 0.30118 0.83483 -0.09900
C 	C 	0.77141 0.33086 0.82166 0.14100
C 	C 	0.76901 0.31162 0.78156 -0.09500
C 	C 	0.68951 0.27563 0.75416 0.00600
C 	C 	0.60735 0.24654 0.76725 0.07000
C 	C 	0.60743 0.25656 0.80748 -0.01900
N 	N 	0.85340 0.38252 0.84670 -0.20200
H 	H 	0.83143 0.33261 0.77144 0.07200
C 	C 	0.69513 0.27663 0.71216 0.00500
N 	N 	0.52879 0.21073 0.74148 -0.19100
H 	H 	0.54425 0.23299 0.81752 0.04700
C 	C 	0.65760 0.19584 0.68669 -0.09200
C 	C 	0.64116 0.18960 0.64603 0.13900
C 	C 	0.67486 0.26879 0.63064 -0.09600
C 	C 	0.72146 0.35130 0.65628 -0.02000
C 	C 	0.72908 0.35572 0.69684 0.07400
H 	H 	0.63313 0.13577 0.69856 0.06800
N 	N 	0.58852 0.10733 0.62240 -0.20100
H 	H 	0.74820 0.41194 0.64453 0.05600
N 	N 	0.76713 0.43554 0.72073 -0.19200
H 	H 	0.56986 0.05049 0.63374 0.10200
H 	H 	0.55939 0.09767 0.59359 0.11300
H 	H 	0.79238 0.49347 0.70907 0.10800
H 	H 	0.77119 0.44103 0.75090 0.10600
H 	H 	0.46846 0.18874 0.75151 0.10200
H 	H 	0.52677 0.20553 0.71142 0.10200
H 	H 	0.86140 0.41510 0.87432 0.11700
H 	H 	0.91222 0.39743 0.83730 0.10700
C 	C 	0.62904 0.28050 0.32845 -0.10600
C 	C 	0.58425 0.31689 0.31593 0.14100
C 	C 	0.58510 0.33576 0.27798 -0.09500
C 	C 	0.62319 0.31228 0.25149 0.00600
C 	C 	0.66372 0.27160 0.26339 0.06500
C 	C 	0.66715 0.25716 0.30187 -0.01900
N 	N 	0.53709 0.33005 0.33939 -0.20200
H 	H 	0.55305 0.36579 0.26860 0.07100
C 	C 	0.62022 0.33034 0.21128 0.00400
N 	N 	0.69971 0.24657 0.23811 -0.19100
H 	H 	0.70091 0.22878 0.31133 0.04400
C 	C 	0.69676 0.40902 0.20269 -0.09400
C 	C 	0.70610 0.41855 0.16376 0.13900
C 	C 	0.63823 0.34738 0.13312 -0.10300
C 	C 	0.55702 0.27360 0.14170 -0.02200
C 	C 	0.54725 0.26423 0.18060 0.06900
H 	H 	0.75089 0.46129 0.22630 0.07100
N 	N 	0.77972 0.49615 0.15599 -0.20200
H 	H 	0.50337 0.22082 0.11807 0.05100
N 	N 	0.46882 0.19088 0.18825 -0.19200
H 	H 	0.83129 0.54719 0.17874 0.10500
H 	H 	0.78456 0.50799 0.12746 0.10900
H 	H 	0.41635 0.14117 0.16540 0.10200
H 	H 	0.45821 0.18339 0.21681 0.10000
H 	H 	0.73005 0.21721 0.24730 0.09400
H 	H 	0.69741 0.25512 0.20913 0.09600
H 	H 	0.52357 0.30467 0.36518 0.11400
H 	H 	0.50836 0.36120 0.33070 0.11000
C 	C 	0.89665 0.76129 0.53135 -0.11400
C 	C 	0.88724 0.79581 0.49913 -0.05400
C 	C 	0.82856 0.73739 0.46413 0.32000
C 	C 	0.78046 0.64498 0.46129 -0.06400
C 	C 	0.78994 0.61046 0.49352 -0.13700
C 	C 	0.84769 0.66885 0.52868 0.36100
F 	F 	0.85720 0.63596 0.56005 -0.44400
H 	H 	0.94241 0.80622 0.55835 0.12400
H 	H 	0.73520 0.60012 0.43419 0.10100
F 	F 	0.81977 0.77039 0.43266 -0.40500
C 	C 	0.94871 0.14719 0.51964 -0.13700
C 	C 	0.91506 0.06857 0.49333 -0.04000
C 	C 	0.83408 0.02741 0.46588 0.27700
C 	C 	0.78573 0.06274 0.46571 -0.05700
C 	C 	0.81817 0.13999 0.49253 -0.16000
C 	C 	0.90048 0.18293 0.51921 0.37100
F 	F 	0.93332 0.25877 0.54484 -0.43900
H 	H 	0.01089 0.17928 0.54100 0.12000
H 	H 	0.72330 0.03047 0.44447 0.06400
F 	F 	0.80234 0.95314 0.43935 -0.38400
C 	C 	0.32787 0.09936 0.52710 -0.07400
C 	C 	0.36407 0.13727 0.49478 -0.14100
C 	C 	0.31142 0.14539 0.46646 0.35400
C 	C 	0.22327 0.11524 0.47040 -0.11900
C 	C 	0.18669 0.07610 0.50242 -0.05900
C 	C 	0.23992 0.06940 0.53104 0.31100
F 	F 	0.20583 0.03287 0.56249 -0.43400
H 	H 	0.36868 0.09491 0.54964 0.09500
H 	H 	0.18223 0.11943 0.44787 0.11100
F 	F 	0.34525 0.18142 0.43489 -0.44600
C 	C 	0.78065 0.71538 0.94016 -0.11500
C 	C 	0.85170 0.78440 0.97002 -0.05300
C 	C 	0.89113 0.76361 0.99897 0.31400
C 	C 	0.86186 0.67544 0.99718 -0.08100
C 	C 	0.79231 0.60695 0.96684 -0.12800
C 	C 	0.75107 0.62711 0.93851 0.35600
F 	F 	0.68272 0.56121 0.90923 -0.44600
H 	H 	0.75048 0.73054 0.91744 0.11600
H 	H 	0.89237 0.66025 0.01973 0.10000
F 	F 	0.95877 0.82921 0.02852 -0.39200
C 	C 	0.80383 0.04100 0.99406 -0.13100
C 	C 	0.84424 0.04107 0.96214 -0.05600
C 	C 	0.85376 0.09427 0.93443 0.31000
C 	C 	0.82720 0.14996 0.93971 -0.07400
C 	C 	0.79079 0.15322 0.97269 -0.13300
C 	C 	0.77804 0.09719 0.99963 0.34100
F 	F 	0.74439 0.09991 0.03210 -0.45400
H 	H 	0.79688 0.00101 0.01576 0.11500
H 	H 	0.83554 0.19093 0.91827 0.10000
F 	F 	0.89110 0.09382 0.90293 -0.43100
C 	C 	0.17118 0.14863 0.94498 -0.12100
C 	C 	0.13175 0.08048 0.96716 -0.05300
C 	C 	0.18789 0.06860 0.99110 0.30500
C 	C 	0.28178 0.12195 0.99158 -0.08500
C 	C 	0.32117 0.18907 0.96886 -0.12800
C 	C 	0.26546 0.20326 0.94604 0.35700
F 	F 	0.30272 0.27085 0.92545 -0.42700
H 	H 	0.12867 0.15890 0.92670 0.12500
H 	H 	0.32395 0.11075 0.00950 0.10200
F 	F 	0.15165 0.00626 0.01437 -0.40700
