data_crystal

_cell_length_a 18.40971
_cell_length_b 18.89026
_cell_length_c 45.33946
_cell_angle_alpha 95.43186
_cell_angle_beta  95.43077
_cell_angle_gamma 126.41066

_symmetry_space_group_name_	'P 1'
_symmetry_space_group_name_H-M	'P 1'

loop_
_symmetry_equiv_pos_as_xyz
  x,y,z

loop_
_atom_site_label
_atom_site_type_symbol
_atom_site_fract_x
_atom_site_fract_y
_atom_site_fract_z
_atom_site_charge
C 	C 	0.90911 0.99734 0.97083 0.17000
N 	N 	0.99972 0.04959 0.96930 -0.15000
C 	C 	0.04688 0.01540 0.97030 0.12700
N 	N 	0.00361 0.92874 0.97285 -0.13000
C 	C 	0.91322 0.87572 0.97444 0.14400
N 	N 	0.86538 0.90985 0.97341 -0.13700
C 	C 	0.93635 0.02321 0.49780 0.11800
N 	N 	0.88514 0.93242 0.49189 -0.12300
C 	C 	0.92573 0.89256 0.48710 0.14500
N 	N 	0.01701 0.94337 0.48707 -0.12500
C 	C 	0.06844 0.03373 0.49279 0.12900
N 	N 	0.02854 0.07384 0.49855 -0.13700
Cu	Cu	0.76685 0.34996 0.97093 0.92600
Cu	Cu	0.75590 0.28415 0.03574 0.87100
Cu	Cu	0.61980 0.30519 0.00845 0.89900
Cu	Cu	0.59514 0.34206 0.94683 0.89800
C 	C 	0.69977 0.31507 0.90735 0.28700
O 	O 	0.81944 0.48091 0.96978 -0.35000
C 	C 	0.67948 0.33900 0.07498 0.28800
O 	O 	0.62327 0.27629 0.96703 -0.63800
O 	O 	0.75446 0.36553 0.01340 -0.64100
O 	O 	0.82607 0.28853 0.97503 -0.35700
O 	O 	0.72464 0.19522 0.00293 -0.44200
O 	O 	0.66361 0.35641 0.91354 -0.37200
O 	O 	0.48768 0.23856 0.00143 -0.37500
C 	C 	0.43682 0.23363 0.97752 0.31400
C 	C 	0.77586 0.51310 0.97812 0.30200
O 	O 	0.69073 0.45797 0.98180 -0.39400
O 	O 	0.47339 0.28851 0.95827 -0.39500
O 	O 	0.75545 0.31648 0.92848 -0.35600
C 	C 	0.78386 0.21287 0.98536 0.30100
O 	O 	0.61509 0.31648 0.05194 -0.37700
O 	O 	0.75280 0.34515 0.07086 -0.41800
H 	H 	0.58415 0.21132 0.95862 0.16300
H 	H 	0.79293 0.42831 0.02439 0.17600
Cu	Cu	0.61674 0.21068 0.51011 0.92900
Cu	Cu	0.67428 0.19993 0.44454 0.86700
Cu	Cu	0.64916 0.33434 0.46614 0.90000
Cu	Cu	0.62690 0.38078 0.52723 0.89900
C 	C 	0.65011 0.28602 0.57244 0.29500
O 	O 	0.48641 0.16426 0.51288 -0.36600
C 	C 	0.61366 0.26435 0.40133 0.28500
O 	O 	0.69143 0.34729 0.50819 -0.64000
O 	O 	0.59210 0.20596 0.46634 -0.64100
O 	O 	0.67151 0.14624 0.50874 -0.37400
O 	O 	0.76524 0.23181 0.47772 -0.43800
O 	O 	0.61345 0.32495 0.56366 -0.38300
O 	O 	0.71336 0.46101 0.46709 -0.38500
C 	C 	0.72560 0.51917 0.48953 0.32000
C 	C 	0.45046 0.19966 0.50035 0.30500
O 	O 	0.50432 0.28047 0.49445 -0.39000
O 	O 	0.68000 0.49385 0.51195 -0.38400
O 	O 	0.65974 0.23733 0.55273 -0.36100
C 	C 	0.74548 0.17793 0.49698 0.31200
O 	O 	0.61323 0.31748 0.42246 -0.37300
O 	O 	0.61178 0.19647 0.40755 -0.41900
H 	H 	0.75901 0.38754 0.51492 0.17300
H 	H 	0.52680 0.16442 0.45615 0.17700
C 	C 	0.69747 0.28856 0.87548 -0.08300
C 	C 	0.61609 0.24655 0.85428 0.01800
C 	C 	0.61687 0.23489 0.82345 -0.07000
C 	C 	0.69894 0.26520 0.81356 0.04700
C 	C 	0.77924 0.30258 0.83466 -0.06900
C 	C 	0.77852 0.31399 0.86557 0.02300
C 	C 	0.70246 0.26632 0.78200 -0.02600
C 	C 	0.70215 0.26599 0.75539 0.00300
C 	C 	0.69861 0.26682 0.72420 0.00300
C 	C 	0.69259 0.26840 0.69760 -0.02700
C 	C 	0.68152 0.27118 0.66596 0.04700
C 	C 	0.61337 0.27669 0.65297 -0.07000
C 	C 	0.60300 0.28121 0.62247 0.02100
C 	C 	0.66098 0.28042 0.60461 -0.08400
C 	C 	0.72896 0.27420 0.61763 0.02000
C 	C 	0.73924 0.26973 0.64826 -0.06900
H 	H 	0.55289 0.22552 0.86167 0.02300
H 	H 	0.55433 0.20518 0.80725 0.05200
H 	H 	0.84285 0.32563 0.82717 0.05500
H 	H 	0.84172 0.34611 0.88170 0.04600
H 	H 	0.56840 0.27761 0.66652 0.05400
H 	H 	0.54937 0.28461 0.61267 0.03800
H 	H 	0.77426 0.27372 0.60415 0.04100
H 	H 	0.79218 0.26554 0.65819 0.05500
C 	C 	0.66556 0.35066 0.10604 -0.08800
C 	C 	0.57701 0.29647 0.11285 0.01700
C 	C 	0.56552 0.29598 0.14290 -0.07000
C 	C 	0.64221 0.34996 0.16631 0.04600
C 	C 	0.73005 0.40803 0.15957 -0.07100
C 	C 	0.74174 0.40854 0.12955 0.01900
C 	C 	0.63174 0.33954 0.19703 -0.02900
C 	C 	0.62290 0.33076 0.22273 0.00000
C 	C 	0.61339 0.31904 0.25278 0.00000
C 	C 	0.60648 0.30845 0.27845 -0.02900
C 	C 	0.60001 0.29567 0.30916 0.04500
C 	C 	0.56133 0.21066 0.31605 -0.07200
C 	C 	0.56281 0.19963 0.34611 0.01700
C 	C 	0.60337 0.27382 0.36955 -0.08800
C 	C 	0.63946 0.35844 0.36249 0.01700
C 	C 	0.63786 0.36924 0.33241 -0.07000
H 	H 	0.51755 0.25186 0.09496 0.04000
H 	H 	0.49732 0.25138 0.14796 0.05200
H 	H 	0.78959 0.45073 0.17757 0.05200
H 	H 	0.81023 0.45200 0.12459 0.03300
H 	H 	0.53158 0.15339 0.29816 0.04900
H 	H 	0.53341 0.13370 0.35115 0.03100
H 	H 	0.67112 0.41629 0.38030 0.04000
H 	H 	0.66783 0.43516 0.32722 0.05400
C 	C 	0.77999 0.61350 0.48713 -0.12000
C 	C 	0.74498 0.64185 0.46653 -0.03700
C 	C 	0.79165 0.73327 0.46659 0.13900
C 	C 	0.87482 0.79660 0.48699 -0.03700
C 	C 	0.91052 0.76783 0.50715 -0.08900
C 	C 	0.86360 0.67667 0.50720 0.18600
H 	H 	0.68059 0.59313 0.45094 0.06000
O 	O 	0.75758 0.76041 0.44608 -0.27600
H 	H 	0.97442 0.81638 0.52300 0.08100
O 	O 	0.89807 0.64944 0.52752 -0.29400
H 	H 	0.93785 0.64057 0.51709 0.14700
H 	H 	0.71565 0.76702 0.45601 0.14900
C 	C 	0.79954 0.14431 0.50231 -0.12900
C 	C 	0.75700 0.05837 0.50898 -0.03700
C 	C 	0.80247 0.01970 0.50902 0.11200
C 	C 	0.89152 0.06696 0.50198 -0.02900
C 	C 	0.93671 0.15585 0.49787 -0.10300
C 	C 	0.89155 0.19472 0.49824 0.18400
H 	H 	0.68756 0.02031 0.51335 0.05600
O 	O 	0.76140 0.93761 0.51719 -0.25100
H 	H 	0.00640 0.19450 0.49373 0.07600
O 	O 	0.93850 0.28294 0.49568 -0.28600
H 	H 	0.93398 0.28281 0.47369 0.14100
H 	H 	0.72018 0.89308 0.49854 0.14600
C 	C 	0.16805 0.08725 0.49561 -0.04200
C 	C 	0.20691 0.10812 0.46967 -0.09200
C 	C 	0.29874 0.14244 0.47086 0.18100
C 	C 	0.35237 0.15661 0.49823 -0.12000
C 	C 	0.31393 0.13734 0.52429 -0.04400
C 	C 	0.22234 0.10363 0.52313 0.13800
H 	H 	0.16507 0.09499 0.44836 0.06700
O 	O 	0.33615 0.16258 0.44532 -0.28900
H 	H 	0.35546 0.14968 0.54557 0.06000
O 	O 	0.18470 0.08282 0.54860 -0.27900
H 	H 	0.19457 0.13789 0.55834 0.15000
H 	H 	0.32533 0.10704 0.43554 0.14100
C 	C 	0.81393 0.60667 0.97667 -0.11200
C 	C 	0.87443 0.67486 0.00164 -0.04400
C 	C 	0.90181 0.76203 0.00204 0.14100
C 	C 	0.86807 0.78153 0.97736 -0.04000
C 	C 	0.80568 0.71267 0.95274 -0.08800
C 	C 	0.77845 0.62557 0.95232 0.18100
H 	H 	0.89954 0.66025 0.02091 0.05300
O 	O 	0.96044 0.82781 0.02679 -0.27500
H 	H 	0.78069 0.72723 0.93341 0.07300
O 	O 	0.71920 0.55958 0.92769 -0.28700
H 	H 	0.65677 0.53252 0.93199 0.13400
H 	H 	0.02316 0.85351 0.02307 0.15500
C 	C 	0.81006 0.15237 0.98025 -0.12100
C 	C 	0.80293 0.10133 0.00210 -0.04300
C 	C 	0.82734 0.04394 0.99788 0.12300
C 	C 	0.86083 0.03800 0.97186 -0.06000
C 	C 	0.86442 0.08608 0.94943 -0.08500
C 	C 	0.83844 0.14239 0.95337 0.17800
H 	H 	0.78019 0.10745 0.02272 0.04000
O 	O 	0.82432 0.99850 0.02019 -0.26000
H 	H 	0.88983 0.08173 0.92925 0.06800
O 	O 	0.84261 0.18867 0.93120 -0.27700
H 	H 	0.78120 0.14886 0.91787 0.14800
H 	H 	0.76191 0.94032 0.01530 0.15100
C 	C 	0.14617 0.07380 0.97109 -0.03300
C 	C 	0.20417 0.14917 0.99419 -0.09700
C 	C 	0.29951 0.20163 0.99649 0.19000
C 	C 	0.33729 0.17860 0.97559 -0.12300
C 	C 	0.27935 0.10455 0.95209 -0.03700
C 	C 	0.18404 0.05151 0.94995 0.11600
H 	H 	0.17535 0.16625 0.01065 0.07500
O 	O 	0.35573 0.27445 0.01946 -0.28500
H 	H 	0.30827 0.08764 0.93562 0.04300
O 	O 	0.12786 0.97967 0.92665 -0.25700
H 	H 	0.12077 0.92851 0.93406 0.15200
H 	H 	0.36456 0.32548 0.01133 0.15100
