data_crystal

_cell_length_a 20.39547
_cell_length_b 19.25546
_cell_length_c 25.19779
_cell_angle_alpha 97.24390
_cell_angle_beta  81.51809
_cell_angle_gamma 113.56035

_symmetry_space_group_name_	'P 1'
_symmetry_space_group_name_H-M	'P 1'

loop_
_symmetry_equiv_pos_as_xyz
  x,y,z

loop_
_atom_site_label
_atom_site_type_symbol
_atom_site_fract_x
_atom_site_fract_y
_atom_site_fract_z
_atom_site_charge
Ni	Ni	0.36766 0.63586 0.78913 1.09900
O 	O 	0.33658 0.71342 0.76310 -0.70000
Ni	Ni	0.28912 0.65497 0.69744 1.10000
O 	O 	0.43690 0.71216 0.84051 -0.37600
O 	O 	0.49188 0.79327 0.77466 -0.42500
O 	O 	0.28877 0.61764 0.85345 -0.37600
Ni	Ni	0.41122 0.81235 0.74532 1.06700
O 	O 	0.26952 0.47273 0.82209 -0.40900
O 	O 	0.45160 0.78940 0.66891 -0.39900
O 	O 	0.27176 0.73771 0.66417 -0.37800
O 	O 	0.31315 0.57537 0.72786 -0.70600
O 	O 	0.38998 0.55104 0.81161 -0.39200
O 	O 	0.23276 0.57571 0.64106 -0.37100
O 	O 	0.15961 0.49312 0.70344 -0.41000
Ni	Ni	0.22798 0.49371 0.75836 1.06200
H 	H 	0.29957 0.72288 0.78955 0.15000
H 	H 	0.34327 0.55479 0.70162 0.15300
C 	C 	0.44247 0.72057 0.64859 0.29400
O 	O 	0.19231 0.56799 0.80517 -0.42400
C 	C 	0.48499 0.77728 0.82470 0.29700
C 	C 	0.31381 0.81052 0.66982 0.31300
C 	C 	0.22101 0.60280 0.84910 0.30500
C 	C 	0.17897 0.51160 0.65307 0.28800
C 	C 	0.33803 0.48753 0.82734 0.29600
O 	O 	0.37751 0.66972 0.64295 -0.38200
O 	O 	0.33951 0.84173 0.71590 -0.42500
Ni	Ni	0.66317 0.37024 0.19941 1.10100
O 	O 	0.73414 0.34975 0.23862 -0.70100
Ni	Ni	0.67062 0.30532 0.30483 1.10000
O 	O 	0.73975 0.44914 0.15165 -0.37700
O 	O 	0.79926 0.51238 0.22359 -0.42600
O 	O 	0.66631 0.28778 0.13901 -0.37300
Ni	Ni	0.82007 0.43446 0.26083 1.06800
O 	O 	0.51941 0.25117 0.15957 -0.41100
O 	O 	0.78715 0.47309 0.33569 -0.40400
O 	O 	0.74385 0.30541 0.35384 -0.37700
O 	O 	0.59816 0.31261 0.25983 -0.70300
O 	O 	0.58509 0.38091 0.16388 -0.38600
O 	O 	0.58802 0.24549 0.35900 -0.37200
O 	O 	0.53276 0.15545 0.29363 -0.41400
Ni	Ni	0.53349 0.21576 0.22981 1.06300
H 	H 	0.74900 0.31031 0.21787 0.15400
H 	H 	0.57023 0.34146 0.27957 0.15400
C 	C 	0.72109 0.46708 0.35181 0.31400
O 	O 	0.61693 0.18979 0.19299 -0.42700
C 	C 	0.79543 0.50351 0.17149 0.29900
C 	C 	0.81491 0.33709 0.34356 0.30900
C 	C 	0.64857 0.21589 0.14661 0.30800
C 	C 	0.53498 0.18231 0.34453 0.28700
C 	C 	0.52805 0.32111 0.15016 0.29200
O 	O 	0.66601 0.40304 0.34396 -0.39600
O 	O 	0.84607 0.36150 0.29600 -0.42800
C 	C 	0.93917 0.54578 0.00476 -0.07700
C 	C 	0.97054 0.57277 0.05964 0.01400
C 	C 	0.07878 0.54195 0.01937 -0.07700
C 	C 	0.07477 0.59574 0.98015 0.02200
C 	C 	0.00031 0.55925 0.95812 -0.06800
H 	H 	0.90379 0.48421 0.00385 0.04400
H 	H 	0.90536 0.57694 0.99888 0.04300
C 	C 	0.91101 0.55683 0.10301 0.02700
H 	H 	0.13170 0.56693 0.03602 0.04200
H 	H 	0.07432 0.48644 0.99761 0.04200
C 	C 	0.13147 0.60574 0.93499 0.02600
H 	H 	0.99407 0.50410 0.93502 0.03800
H 	H 	0.99577 0.59686 0.92993 0.03800
C 	C 	0.08105 0.67219 0.01210 -0.07700
H 	H 	0.07817 0.71196 0.98492 0.04000
H 	H 	0.13402 0.69960 0.02856 0.04000
C 	C 	0.01943 0.65861 0.05910 -0.06900
H 	H 	0.04293 0.67951 0.09803 0.03700
H 	H 	0.98710 0.69186 0.05436 0.03800
C 	C 	0.01753 0.52845 0.06609 -0.06800
H 	H 	0.04111 0.54697 0.10513 0.03200
H 	H 	0.98391 0.46651 0.06659 0.03200
C 	C 	0.85933 0.53627 0.13589 -0.13100
C 	C 	0.17432 0.60750 0.89637 -0.10800
C 	C 	0.02597 0.40536 0.43789 -0.07200
C 	C 	0.94692 0.38320 0.46347 0.02000
C 	C 	0.98073 0.34189 0.54448 -0.08500
C 	C 	0.03565 0.42500 0.53900 0.03400
C 	C 	0.07798 0.42985 0.48217 -0.08000
H 	H 	0.03193 0.35641 0.41208 0.03900
H 	H 	0.04099 0.45282 0.41152 0.04000
C 	C 	0.89789 0.36160 0.42102 0.02400
H 	H 	0.94920 0.33662 0.58484 0.04100
H 	H 	0.00962 0.30294 0.54107 0.04200
C 	C 	0.08574 0.45027 0.58092 0.01700
H 	H 	0.10876 0.39260 0.47750 0.04100
H 	H 	0.11775 0.48897 0.47686 0.04500
C 	C 	0.99315 0.47713 0.54356 -0.08500
H 	H 	0.03106 0.53729 0.53958 0.04800
H 	H 	0.96179 0.47457 0.58389 0.04400
C 	C 	0.94120 0.45266 0.49933 -0.07300
H 	H 	0.88505 0.43842 0.51856 0.04300
H 	H 	0.95439 0.50117 0.47430 0.04100
C 	C 	0.92854 0.31730 0.50004 -0.07300
H 	H 	0.87213 0.30032 0.51924 0.04200
H 	H 	0.93253 0.26662 0.47546 0.03900
C 	C 	0.85920 0.34811 0.38585 -0.10400
C 	C 	0.12780 0.47562 0.61440 -0.09800
C 	C 	0.44319 0.93359 0.51133 -0.08000
C 	C 	0.37812 0.94720 0.54395 0.02900
C 	C 	0.43596 0.08491 0.51945 -0.07300
C 	C 	0.43253 0.03783 0.46445 0.01600
C 	C 	0.47511 0.98676 0.46470 -0.06700
H 	H 	0.48559 0.94402 0.53806 0.04600
H 	H 	0.42620 0.87337 0.49464 0.04600
C 	C 	0.34957 0.89701 0.58858 0.02600
H 	H 	0.40550 0.12196 0.52057 0.03900
H 	H 	0.49272 0.12281 0.52512 0.04300
C 	C 	0.46459 0.08879 0.42040 0.02200
H 	H 	0.53271 0.02254 0.46920 0.04000
H 	H 	0.47336 0.95195 0.42573 0.04100
C 	C 	0.35269 0.98574 0.45832 -0.06700
H 	H 	0.34853 0.95099 0.41921 0.03800
H 	H 	0.32066 0.02089 0.45822 0.03400
C 	C 	0.32061 0.93231 0.50518 -0.08000
H 	H 	0.27327 0.94194 0.52747 0.04300
H 	H 	0.30116 0.87206 0.48844 0.04400
C 	C 	0.40400 0.03166 0.56615 -0.08100
H 	H 	0.35826 0.04326 0.58960 0.03900
H 	H 	0.44553 0.04419 0.59407 0.04000
C 	C 	0.33072 0.85692 0.62557 -0.10400
C 	C 	0.49475 0.13121 0.38522 -0.10400
C 	C 	0.57227 0.97660 0.04258 -0.07200
C 	C 	0.61035 0.05554 0.01916 0.02200
C 	C 	0.65131 0.99101 0.93361 -0.07000
C 	C 	0.56840 0.94720 0.94136 0.02400
C 	C 	0.54764 0.91299 0.99689 -0.07800
H 	H 	0.60942 0.96572 0.06555 0.04100
H 	H 	0.52468 0.97519 0.07120 0.04000
C 	C 	0.63144 0.11541 0.06321 0.02500
H 	H 	0.66783 0.01645 0.89405 0.03600
H 	H 	0.67868 0.95122 0.93346 0.04000
C 	C 	0.54316 0.88647 0.89840 0.02400
H 	H 	0.57303 0.87170 0.99800 0.04400
H 	H 	0.48833 0.88131 0.00374 0.04300
C 	C 	0.53241 0.00462 0.94160 -0.08200
H 	H 	0.47277 0.97493 0.94727 0.03800
H 	H 	0.54661 0.03040 0.90221 0.03400
C 	C 	0.55704 0.06821 0.98725 -0.07600
H 	H 	0.58301 0.12438 0.96969 0.04200
H 	H 	0.50911 0.06883 0.01466 0.04000
C 	C 	0.67605 0.05492 0.97950 -0.08100
H 	H 	0.70434 0.11087 0.96186 0.04100
H 	H 	0.71521 0.04565 0.00129 0.04000
C 	C 	0.64269 0.16259 0.10068 -0.10900
C 	C 	0.51849 0.83652 0.86425 -0.12200
C 	C 	0.40704 0.32679 0.93057 -0.07700
C 	C 	0.39194 0.39985 0.94727 0.02700
C 	C 	0.36030 0.36132 0.04421 -0.07600
C 	C 	0.43657 0.36083 0.02809 0.02600
C 	C 	0.43326 0.30386 0.97805 -0.07700
H 	H 	0.35735 0.27940 0.91820 0.03800
H 	H 	0.44866 0.33628 0.89528 0.04000
C 	C 	0.36849 0.42401 0.90244 0.02000
H 	H 	0.36093 0.40198 0.07989 0.03900
H 	H 	0.32176 0.30406 0.05577 0.03800
C 	C 	0.46341 0.34102 0.07311 0.01900
H 	H 	0.39610 0.24549 0.98832 0.03900
H 	H 	0.48735 0.30237 0.96533 0.04200
C 	C 	0.48831 0.44132 0.01185 -0.07500
H 	H 	0.54362 0.44282 0.99980 0.04500
H 	H 	0.49162 0.48376 0.04681 0.04400
C 	C 	0.46224 0.46411 0.96462 -0.07700
H 	H 	0.45316 0.51743 0.97709 0.04700
H 	H 	0.50511 0.47645 0.93007 0.04500
C 	C 	0.33409 0.38423 0.99675 -0.07800
H 	H 	0.32219 0.43578 0.00987 0.04400
H 	H 	0.28299 0.33791 0.98568 0.04000
C 	C 	0.35276 0.44964 0.86708 -0.09600
C 	C 	0.49013 0.32945 0.10908 -0.09700
C 	C 	0.62108 0.64540 0.44062 -0.07600
C 	C 	0.65464 0.60022 0.46663 0.02400
C 	C 	0.66551 0.69188 0.55061 -0.07700
C 	C 	0.58490 0.66167 0.54121 0.02500
C 	C 	0.58007 0.68153 0.48447 -0.07700
H 	H 	0.66399 0.69083 0.41740 0.04100
H 	H 	0.58330 0.60718 0.41179 0.04100
C 	C 	0.68981 0.56227 0.42481 0.02600
H 	H 	0.67066 0.67826 0.59104 0.04100
H 	H 	0.69021 0.75482 0.54964 0.04200
C 	C 	0.54253 0.69253 0.58224 0.02200
H 	H 	0.60329 0.74429 0.48226 0.04200
H 	H 	0.52278 0.66050 0.47648 0.04400
C 	C 	0.55260 0.57402 0.54257 -0.07600
H 	H 	0.49467 0.55044 0.53587 0.04100
H 	H 	0.55564 0.55798 0.58282 0.03800
C 	C 	0.59339 0.53806 0.49894 -0.07600
H 	H 	0.61592 0.50478 0.51833 0.04400
H 	H 	0.55484 0.49737 0.47150 0.04300
C 	C 	0.70677 0.65552 0.50648 -0.07600
H 	H 	0.73160 0.62453 0.52586 0.04200
H 	H 	0.75122 0.70105 0.48440 0.04100
C 	C 	0.70920 0.52272 0.39079 -0.10600
C 	C 	0.50019 0.70955 0.61393 -0.10200
