data_crystal

_cell_length_a 24.87354
_cell_length_b 25.94680
_cell_length_c 32.94318
_cell_angle_alpha 60.97206
_cell_angle_beta  118.75278
_cell_angle_gamma 133.20482

_symmetry_space_group_name_	'P 1'
_symmetry_space_group_name_H-M	'P 1'

loop_
_symmetry_equiv_pos_as_xyz
  x,y,z

loop_
_atom_site_label
_atom_site_type_symbol
_atom_site_fract_x
_atom_site_fract_y
_atom_site_fract_z
_atom_site_charge
C 	C 	0.71290 0.26946 0.06838 0.12700
N 	N 	0.64079 0.23976 0.06604 -0.14400
C 	C 	0.62777 0.27353 0.07755 0.11700
N 	N 	0.68661 0.33586 0.09215 -0.14000
C 	C 	0.75850 0.36569 0.09463 0.11800
N 	N 	0.77191 0.33291 0.08236 -0.14000
C 	C 	0.73128 0.31882 0.51008 0.12600
N 	N 	0.77574 0.38855 0.51422 -0.13700
C 	C 	0.74333 0.41464 0.51436 0.13100
N 	N 	0.66783 0.37157 0.51019 -0.14000
C 	C 	0.62503 0.30083 0.51050 0.13100
N 	N 	0.65647 0.27422 0.51015 -0.14300
C 	C 	0.26953 0.65499 0.20348 0.11700
N 	N 	0.21733 0.58983 0.19098 -0.13800
C 	C 	0.24079 0.56076 0.18404 0.11900
N 	N 	0.31556 0.59588 0.19021 -0.13800
C 	C 	0.36754 0.66006 0.20285 0.12100
N 	N 	0.34473 0.69012 0.20912 -0.13700
C 	C 	0.29647 0.64594 0.74489 0.12000
N 	N 	0.37013 0.69421 0.74134 -0.13600
C 	C 	0.40319 0.67151 0.73806 0.13500
N 	N 	0.36308 0.60121 0.73847 -0.14000
C 	C 	0.28880 0.55418 0.73874 0.13300
N 	N 	0.25506 0.57619 0.74208 -0.13900
Co	Co	0.03282 0.00655 0.06369 1.14900
Co	Co	0.95343 0.92687 0.19151 1.18700
Co	Co	0.96619 0.04432 0.10315 1.15600
Co	Co	0.02176 0.89005 0.15205 1.18500
C 	C 	0.18441 0.08552 0.05180 0.33000
Co	Co	0.09830 0.92630 0.07467 1.18200
Co	Co	0.90336 0.02120 0.18195 1.13300
C 	C 	0.98362 0.77362 0.12202 0.32200
O 	O 	0.81122 0.98636 0.12552 -0.31000
O 	O 	0.94230 0.99412 0.15675 -0.70900
C 	C 	0.81964 0.02630 0.08191 0.19500
O 	O 	0.00513 0.07257 0.04855 -0.48700
O 	O 	0.98182 0.86120 0.20652 -0.45500
C 	C 	0.81155 0.86038 0.21382 0.32200
O 	O 	0.96924 0.95044 0.12042 -0.55200
C 	C 	0.02295 0.16656 0.13522 0.32200
C 	C 	0.99124 0.94091 0.98543 0.30700
C 	C 	0.17388 0.92020 0.17538 0.31600
O 	O 	0.86674 0.03909 0.06393 -0.37800
O 	O 	0.00383 0.89328 0.01919 -0.38400
O 	O 	0.98914 0.98353 0.99587 -0.33000
O 	O 	0.85281 0.91936 0.22813 -0.38500
O 	O 	0.84121 0.85001 0.19692 -0.38100
O 	O 	0.95312 0.12615 0.13868 -0.42300
O 	O 	0.04549 0.14107 0.12531 -0.40800
O 	O 	0.18645 0.96139 0.13293 -0.36700
O 	O 	0.12990 0.91448 0.19149 -0.37300
O 	O 	0.04168 0.93793 0.09705 -0.72900
C 	C 	0.01379 0.00548 0.26707 0.14700
O 	O 	0.00194 0.05406 0.23455 -0.38400
O 	O 	0.01822 0.96630 0.25486 -0.30100
O 	O 	0.14852 0.03211 0.03306 -0.45500
O 	O 	0.14879 0.08360 0.07232 -0.42500
O 	O 	0.05295 0.81990 0.11591 -0.40400
O 	O 	0.95787 0.79029 0.13738 -0.38400
Co	Co	0.06664 0.02074 0.57128 1.14800
Co	Co	0.94359 0.93832 0.67527 1.20100
Co	Co	0.01739 0.08081 0.60693 1.17600
Co	Co	0.00569 0.88346 0.64621 1.18600
C 	C 	0.21340 0.06542 0.56962 0.30800
Co	Co	0.09226 0.90564 0.58381 1.18300
Co	Co	0.93051 0.05970 0.66762 1.14500
C 	C 	0.94313 0.77005 0.60313 0.30500
O 	O 	0.94775 0.14349 0.60667 -0.41900
O 	O 	0.97082 0.02470 0.65125 -0.80800
C 	C 	0.92060 0.13095 0.56489 0.30300
O 	O 	0.06446 0.10443 0.55847 -0.48500
O 	O 	0.94354 0.85354 0.68720 -0.45900
C 	C 	0.79411 0.91709 0.64803 0.29200
O 	O 	0.02964 0.98989 0.63549 -0.54200
C 	C 	0.09344 0.18082 0.67229 0.29300
C 	C 	0.01885 0.95889 0.48965 0.31000
C 	C 	0.13627 0.86729 0.68830 0.31100
O 	O 	0.93149 0.09272 0.55826 -0.41100
O 	O 	0.01412 0.89990 0.51944 -0.38400
O 	O 	0.01567 0.99832 0.50265 -0.34500
O 	O 	0.82370 0.98715 0.63336 -0.35300
O 	O 	0.82749 0.89247 0.64896 -0.37700
O 	O 	0.04313 0.12690 0.69865 -0.40700
O 	O 	0.09721 0.17161 0.63718 -0.38100
O 	O 	0.16376 0.91560 0.65043 -0.37200
O 	O 	0.08099 0.85579 0.69682 -0.36800
O 	O 	0.05498 0.94090 0.60289 -0.73100
C 	C 	0.95325 0.96243 0.76094 0.31700
O 	O 	0.90660 0.97942 0.73060 -0.38200
O 	O 	0.97880 0.94440 0.74648 -0.36200
O 	O 	0.17091 0.00988 0.55122 -0.45100
O 	O 	0.18286 0.08007 0.58212 -0.40800
O 	O 	0.01451 0.79723 0.61293 -0.40500
O 	O 	0.92434 0.80263 0.60882 -0.39100
C 	C 	0.98352 0.94888 0.93628 -0.06900
C 	C 	0.97967 0.95164 0.89697 0.04400
C 	C 	0.97519 0.95319 0.85129 0.04800
C 	C 	0.96847 0.95555 0.81130 -0.07700
C 	C 	0.01938 0.99380 0.31658 0.02700
C 	C 	0.02020 0.98793 0.35593 -0.00300
C 	C 	0.01903 0.98210 0.40121 0.07000
C 	C 	0.01805 0.97470 0.44045 -0.08200
C 	C 	0.18879 0.37017 0.70505 0.03400
C 	C 	0.15389 0.36440 0.65759 -0.06600
C 	C 	0.13133 0.30663 0.64504 0.01700
C 	C 	0.24474 0.48589 0.72779 -0.03400
C 	C 	0.18313 0.26320 0.72665 0.01800
C 	C 	0.20557 0.32083 0.73917 -0.06800
C 	C 	0.21607 0.43182 0.71751 -0.00200
C 	C 	0.14265 0.25378 0.68005 -0.09000
H 	H 	0.14329 0.40398 0.63057 0.05200
H 	H 	0.10032 0.30013 0.60889 0.03500
H 	H 	0.19286 0.22315 0.75391 0.02700
H 	H 	0.23523 0.32659 0.77555 0.05000
C 	C 	0.59773 0.79878 0.69549 0.03800
C 	C 	0.65125 0.78345 0.72277 -0.06100
C 	C 	0.71199 0.81643 0.70493 0.01900
C 	C 	0.47451 0.72313 0.72497 -0.02900
C 	C 	0.66384 0.87747 0.63156 0.02200
C 	C 	0.60320 0.84448 0.64943 -0.06000
C 	C 	0.53194 0.76005 0.71218 0.00500
C 	C 	0.71997 0.86553 0.65986 -0.08100
H 	H 	0.64608 0.74633 0.75789 0.05500
H 	H 	0.75505 0.80700 0.72719 0.03500
H 	H 	0.66908 0.91489 0.59655 0.04900
H 	H 	0.56065 0.85469 0.62749 0.06100
C 	C 	0.19824 0.73154 0.74539 0.00300
C 	C 	0.15267 0.67201 0.72552 -0.03800
C 	C 	0.18364 0.64163 0.72725 -0.02200
C 	C 	0.15536 0.81643 0.71445 -0.09600
C 	C 	0.30446 0.72635 0.77217 -0.01900
C 	C 	0.27340 0.75675 0.77026 -0.03500
C 	C 	0.17389 0.77628 0.73091 0.04900
C 	C 	0.26058 0.67047 0.74906 -0.01400
H 	H 	0.09445 0.65197 0.70631 0.04500
H 	H 	0.14870 0.59800 0.70976 0.04500
H 	H 	0.36323 0.74773 0.79040 0.05100
H 	H 	0.30900 0.80243 0.78597 0.05400
C 	C 	0.13531 0.36479 0.15471 -0.00200
C 	C 	0.14255 0.36407 0.19989 -0.03800
C 	C 	0.16742 0.42637 0.20807 -0.02300
C 	C 	0.07237 0.24009 0.13988 -0.11200
C 	C 	0.17377 0.48914 0.12527 -0.02200
C 	C 	0.14863 0.42671 0.11705 -0.03700
C 	C 	0.10445 0.29863 0.14580 0.04700
C 	C 	0.18638 0.49033 0.17134 -0.01700
H 	H 	0.12965 0.31551 0.22883 0.04000
H 	H 	0.17683 0.42642 0.24377 0.04000
H 	H 	0.18809 0.53810 0.09655 0.04300
H 	H 	0.14045 0.42693 0.08156 0.04400
C 	C 	0.58986 0.75022 0.20593 0.00200
C 	C 	0.55042 0.68489 0.23852 -0.03600
C 	C 	0.47989 0.65821 0.24020 -0.02000
C 	C 	0.73155 0.81366 0.20996 -0.10300
C 	C 	0.48898 0.76336 0.17774 -0.01900
C 	C 	0.55946 0.78991 0.17599 -0.03400
C 	C 	0.66590 0.78181 0.20772 0.05400
C 	C 	0.44822 0.69671 0.20925 -0.01600
H 	H 	0.57439 0.65483 0.26263 0.04600
H 	H 	0.44872 0.60650 0.26455 0.04300
H 	H 	0.46481 0.79318 0.15337 0.04900
H 	H 	0.59053 0.84144 0.15148 0.05100
C 	C 	0.20702 0.76704 0.21335 0.00300
C 	C 	0.15532 0.71530 0.18581 -0.03700
C 	C 	0.17408 0.67628 0.18412 -0.02200
C 	C 	0.18574 0.86429 0.19555 -0.10200
C 	C 	0.29454 0.73721 0.23990 -0.02000
C 	C 	0.27582 0.77645 0.24128 -0.03500
C 	C 	0.19540 0.81898 0.20607 0.05500
C 	C 	0.24484 0.68854 0.21009 -0.01400
H 	H 	0.10197 0.70756 0.16405 0.05000
H 	H 	0.13478 0.63873 0.16123 0.04600
H 	H 	0.34847 0.74604 0.26113 0.05000
H 	H 	0.31613 0.81609 0.26273 0.05300
C 	C 	0.81378 0.22998 0.50376 0.03300
C 	C 	0.88769 0.27150 0.49905 -0.06800
C 	C 	0.91934 0.23674 0.50917 0.02000
C 	C 	0.76343 0.29106 0.50713 -0.03400
C 	C 	0.80081 0.11921 0.52316 0.01200
C 	C 	0.76886 0.15378 0.51285 -0.07200
C 	C 	0.78718 0.26450 0.50499 -0.00800
C 	C 	0.87858 0.16051 0.52641 -0.09800
H 	H 	0.92220 0.33049 0.49039 0.05200
H 	H 	0.97864 0.26949 0.50955 0.02800
H 	H 	0.76754 0.06025 0.53447 0.01500
H 	H 	0.71072 0.12108 0.51490 0.04000
C 	C 	0.84136 0.59189 0.55589 0.03500
C 	C 	0.85337 0.58288 0.60431 -0.06400
C 	C 	0.87433 0.63755 0.61954 0.02000
C 	C 	0.78871 0.48164 0.52778 -0.03200
C 	C 	0.86526 0.70782 0.53765 0.01700
C 	C 	0.84417 0.65307 0.52236 -0.06200
C 	C 	0.81628 0.53376 0.54014 -0.00000
C 	C 	0.88547 0.70259 0.58663 -0.08700
H 	H 	0.84779 0.53416 0.63031 0.05100
H 	H 	0.88848 0.63212 0.65740 0.03300
H 	H 	0.87212 0.75705 0.51169 0.04200
H 	H 	0.83138 0.65895 0.48459 0.05500
C 	C 	0.42490 0.18422 0.54303 0.03400
C 	C 	0.37950 0.20914 0.51494 -0.07100
C 	C 	0.31413 0.17647 0.52752 0.02300
C 	C 	0.55185 0.25265 0.52057 -0.03800
C 	C 	0.34241 0.09760 0.59813 0.01500
C 	C 	0.40778 0.13027 0.58557 -0.07200
C 	C 	0.49289 0.21895 0.53047 -0.00700
C 	C 	0.29328 0.11806 0.56791 -0.10000
H 	H 	0.39398 0.25280 0.48288 0.05100
H 	H 	0.27687 0.19302 0.50403 0.02600
H 	H 	0.32714 0.05285 0.62962 0.01600
H 	H 	0.44419 0.11261 0.60842 0.04200
C 	C 	0.74916 0.15450 0.04586 0.00200
C 	C 	0.81742 0.18758 0.03650 -0.04300
C 	C 	0.83619 0.14452 0.04126 -0.01700
C 	C 	0.72695 0.23128 0.05902 -0.04500
C 	C 	0.71566 0.03542 0.06052 -0.11300
C 	C 	0.69664 0.07843 0.05533 -0.02000
C 	C 	0.73745 0.19732 0.05216 0.00200
C 	C 	0.78774 0.06823 0.05682 -0.03100
H 	H 	0.85771 0.24643 0.02810 0.04500
H 	H 	0.89126 0.17066 0.03708 0.04400
H 	H 	0.67681 0.97658 0.07123 0.11200
H 	H 	0.64292 0.05242 0.06147 0.01900
C 	C 	0.88693 0.57158 0.11721 0.00000
C 	C 	0.88409 0.56666 0.07560 -0.03800
C 	C 	0.85130 0.49914 0.07065 -0.02100
C 	C 	0.94300 0.69961 0.12216 -0.10400
C 	C 	0.83085 0.44269 0.15064 -0.02100
C 	C 	0.86348 0.51018 0.15555 -0.03800
C 	C 	0.91546 0.64007 0.12069 0.04800
C 	C 	0.82021 0.43610 0.10702 -0.01900
H 	H 	0.90480 0.61461 0.04644 0.04600
H 	H 	0.84447 0.49495 0.03708 0.04300
H 	H 	0.80830 0.39451 0.17934 0.04000
H 	H 	0.86813 0.51413 0.18852 0.04500
C 	C 	0.40989 0.19448 0.07551 -0.00800
C 	C 	0.43444 0.14955 0.10169 -0.04100
C 	C 	0.50421 0.17399 0.10047 -0.02700
C 	C 	0.26532 0.13180 0.06189 -0.12900
C 	C 	0.52613 0.28917 0.04781 -0.02300
C 	C 	0.45608 0.26445 0.04875 -0.03700
C 	C 	0.33233 0.16355 0.06887 0.05000
C 	C 	0.55029 0.24385 0.07348 -0.02000
H 	H 	0.39848 0.09491 0.12194 0.03100
H 	H 	0.52298 0.13913 0.12113 0.03200
H 	H 	0.56180 0.34361 0.02728 0.04300
H 	H 	0.43700 0.29905 0.02779 0.04300
