data_crystal

_cell_length_a 15.75882
_cell_length_b 15.93883
_cell_length_c 39.73836
_cell_angle_alpha 95.45420
_cell_angle_beta  95.45315
_cell_angle_gamma 126.75491

_symmetry_space_group_name_	'P 1'
_symmetry_space_group_name_H-M	'P 1'

loop_
_symmetry_equiv_pos_as_xyz
  x,y,z

loop_
_atom_site_label
_atom_site_type_symbol
_atom_site_fract_x
_atom_site_fract_y
_atom_site_fract_z
_atom_site_charge
C 	C 	0.88120 0.98527 0.96756 0.00600
C 	C 	0.98970 0.04701 0.96453 -0.04600
C 	C 	0.04379 0.00269 0.96437 -0.00200
H 	H 	0.03314 0.13086 0.96342 0.04500
C 	C 	0.10983 0.06837 0.50130 0.01100
C 	C 	0.06567 0.12393 0.50208 -0.05900
H 	H 	0.11561 0.20799 0.50083 0.04600
Cu	Cu	0.75446 0.33018 0.96429 0.92300
Cu	Cu	0.73658 0.24361 0.03736 0.86700
Cu	Cu	0.57975 0.27176 0.00631 0.89500
Cu	Cu	0.55321 0.31935 0.93612 0.89800
C 	C 	0.68233 0.29754 0.89132 0.28900
O 	O 	0.81342 0.48773 0.96485 -0.35300
C 	C 	0.64683 0.30742 0.08245 0.28700
O 	O 	0.58580 0.24081 0.95886 -0.63400
O 	O 	0.73730 0.34292 0.01267 -0.64500
O 	O 	0.82041 0.25293 0.96817 -0.36500
O 	O 	0.70007 0.13886 0.99934 -0.43600
O 	O 	0.63808 0.34401 0.89892 -0.38500
O 	O 	0.42531 0.19408 0.99752 -0.38200
C 	C 	0.36650 0.18708 0.96980 0.31400
C 	C 	0.75890 0.52221 0.97425 0.29200
O 	O 	0.65903 0.45323 0.97763 -0.39600
O 	O 	0.40953 0.25233 0.94794 -0.39800
O 	O 	0.74456 0.29558 0.91550 -0.36200
C 	C 	0.76905 0.16105 0.97909 0.29600
O 	O 	0.57132 0.27965 0.05597 -0.38300
O 	O 	0.73233 0.31398 0.07801 -0.42100
H 	H 	0.54066 0.16381 0.94878 0.16300
H 	H 	0.78217 0.41695 0.02587 0.17100
Cu	Cu	0.62031 0.20876 0.50931 0.92400
Cu	Cu	0.71037 0.22293 0.43704 0.86900
Cu	Cu	0.67729 0.37698 0.46549 0.89800
Cu	Cu	0.62410 0.40393 0.53438 0.89800
C 	C 	0.63830 0.27485 0.58161 0.29000
O 	O 	0.46087 0.14667 0.50782 -0.35900
C 	C 	0.64919 0.30947 0.38984 0.28600
O 	O 	0.70796 0.37448 0.51340 -0.63700
O 	O 	0.60762 0.22179 0.46041 -0.64100
O 	O 	0.69653 0.14235 0.50709 -0.36800
O 	O 	0.81347 0.25972 0.47603 -0.44100
O 	O 	0.59558 0.32156 0.57238 -0.38600
O 	O 	0.75333 0.52928 0.47327 -0.38500
C 	C 	0.75472 0.58728 0.49968 0.31400
C 	C 	0.42339 0.19658 0.49676 0.29500
O 	O 	0.49110 0.29485 0.49261 -0.39900
O 	O 	0.68834 0.54424 0.52143 -0.39700
O 	O 	0.65498 0.22350 0.55841 -0.36200
C 	C 	0.78912 0.19105 0.49624 0.30000
O 	O 	0.66977 0.38239 0.41559 -0.38000
O 	O 	0.64118 0.22504 0.39547 -0.42100
H 	H 	0.78562 0.42112 0.52395 0.16400
H 	H 	0.53306 0.17568 0.44690 0.17300
C 	C 	0.64023 0.25621 0.61719 -0.08600
C 	C 	0.54481 0.20433 0.63046 0.02100
C 	C 	0.54836 0.20353 0.66571 -0.07500
C 	C 	0.64721 0.25398 0.68810 0.04600
C 	C 	0.74230 0.30120 0.67460 -0.07300
C 	C 	0.73866 0.30190 0.63921 0.01700
C 	C 	0.65206 0.27068 0.72575 -0.05300
C 	C 	0.69684 0.24063 0.74705 -0.05200
C 	C 	0.69134 0.24809 0.78422 0.04700
C 	C 	0.78424 0.29314 0.80914 -0.07500
C 	C 	0.78064 0.30530 0.84428 0.02200
C 	C 	0.68377 0.27180 0.85475 -0.08700
C 	C 	0.58976 0.22201 0.82981 0.01700
C 	C 	0.59324 0.20935 0.79477 -0.07500
H 	H 	0.46827 0.16797 0.61364 0.03400
H 	H 	0.47458 0.16674 0.67580 0.04800
H 	H 	0.81932 0.34121 0.69163 0.04800
H 	H 	0.81282 0.34205 0.62923 0.02700
H 	H 	0.61141 0.30084 0.73583 0.04300
H 	H 	0.73962 0.21264 0.73726 0.04400
H 	H 	0.85980 0.32120 0.80133 0.04900
H 	H 	0.85376 0.34366 0.86324 0.03800
H 	H 	0.51421 0.19432 0.83757 0.02000
H 	H 	0.51993 0.17034 0.77583 0.04700
C 	C 	0.64199 0.32640 0.35408 -0.09200
C 	C 	0.71914 0.42654 0.34611 0.01600
C 	C 	0.72482 0.43812 0.31171 -0.07600
C 	C 	0.65205 0.35032 0.28495 0.04500
C 	C 	0.57122 0.25149 0.29290 -0.07700
C 	C 	0.56636 0.23954 0.32729 0.01700
C 	C 	0.66997 0.35852 0.24912 -0.05400
C 	C 	0.59212 0.33502 0.22361 -0.05300
C 	C 	0.60547 0.33257 0.18704 0.04400
C 	C 	0.51768 0.25232 0.16114 -0.07600
C 	C 	0.52985 0.24687 0.12673 0.01700
C 	C 	0.63008 0.32158 0.11786 -0.09200
C 	C 	0.71673 0.40459 0.14353 0.01700
C 	C 	0.70410 0.41109 0.17787 -0.07600
H 	H 	0.77795 0.49420 0.36651 0.03100
H 	H 	0.78766 0.51465 0.30588 0.04600
H 	H 	0.51493 0.18296 0.27247 0.04600
H 	H 	0.50582 0.16206 0.33308 0.02700
H 	H 	0.74733 0.38335 0.24362 0.04100
H 	H 	0.51467 0.30927 0.22939 0.04100
H 	H 	0.44055 0.19282 0.16774 0.04500
H 	H 	0.46228 0.18262 0.10715 0.03000
H 	H 	0.79394 0.46381 0.13692 0.02700
H 	H 	0.77088 0.47697 0.19725 0.04600
C 	C 	0.81627 0.69906 0.50126 -0.10900
C 	C 	0.86932 0.79339 0.50264 0.04300
C 	C 	0.85316 0.15399 0.50060 -0.11100
C 	C 	0.90439 0.11996 0.50272 0.03500
C 	C 	0.31354 0.15489 0.49787 -0.10500
C 	C 	0.22178 0.12040 0.49928 0.03400
C 	C 	0.83066 0.72080 0.97131 0.03600
C 	C 	0.79872 0.63065 0.97289 -0.10000
C 	C 	0.83130 0.03808 0.97058 0.03500
C 	C 	0.80113 0.09270 0.97369 -0.10600
C 	C 	0.25301 0.12326 0.96744 -0.11200
C 	C 	0.15742 0.06918 0.96570 0.04800
C 	C 	0.98959 0.89543 0.96579 -0.04400
C 	C 	0.88148 0.83147 0.96884 0.00700
C 	C 	0.82583 0.87613 0.96994 -0.05300
H 	H 	0.03272 0.86201 0.96542 0.04500
H 	H 	0.74214 0.82758 0.97277 0.04600
C 	C 	0.95552 0.06868 0.50420 0.01100
C 	C 	0.89175 0.95986 0.50533 -0.05500
C 	C 	0.93602 0.90581 0.50397 0.01200
C 	C 	0.04449 0.95996 0.50235 -0.05800
H 	H 	0.80694 0.91671 0.50646 0.04900
H 	H 	0.07804 0.91707 0.50146 0.04900
