data_crystal

_cell_length_a 18.52851
_cell_length_b 18.92405
_cell_length_c 34.48760
_cell_angle_alpha 95.42418
_cell_angle_beta  95.42460
_cell_angle_gamma 126.41766

_symmetry_space_group_name_	'P 1'
_symmetry_space_group_name_H-M	'P 1'

loop_
_symmetry_equiv_pos_as_xyz
  x,y,z

loop_
_atom_site_label
_atom_site_type_symbol
_atom_site_fract_x
_atom_site_fract_y
_atom_site_fract_z
_atom_site_charge
C 	C 	0.90594 0.00202 0.96017 0.04100
C 	C 	0.85727 0.91027 0.96127 -0.04600
C 	C 	0.90223 0.87093 0.96017 0.04900
C 	C 	0.99486 0.92308 0.95783 -0.04400
C 	C 	0.04343 0.01430 0.95736 0.03600
C 	C 	0.99879 0.05341 0.95791 -0.05000
H 	H 	0.78578 0.87040 0.96359 0.07100
H 	H 	0.02984 0.89314 0.95754 0.06600
H 	H 	0.03696 0.12441 0.95794 0.07100
C 	C 	0.94739 0.03335 0.49909 0.04800
C 	C 	0.89070 0.94188 0.50007 -0.05300
C 	C 	0.92665 0.89455 0.50042 0.05800
C 	C 	0.01918 0.93838 0.49941 -0.05300
C 	C 	0.07675 0.03039 0.49947 0.04700
C 	C 	0.04071 0.07792 0.49916 -0.06200
H 	H 	0.81865 0.90751 0.50025 0.07000
H 	H 	0.04666 0.90127 0.49922 0.07300
H 	H 	0.08482 0.14894 0.49876 0.07100
Cu	Cu	0.76402 0.35141 0.96032 0.92900
Cu	Cu	0.75959 0.29888 0.04860 0.88700
Cu	Cu	0.61380 0.30186 0.00781 0.90000
Cu	Cu	0.58869 0.33303 0.92552 0.90700
C 	C 	0.69605 0.30514 0.87627 0.28000
O 	O 	0.81199 0.47908 0.95572 -0.34100
C 	C 	0.67156 0.34610 0.09562 0.28000
O 	O 	0.62087 0.27293 0.95424 -0.63800
O 	O 	0.74928 0.37034 0.01553 -0.63900
O 	O 	0.82999 0.29819 0.96892 -0.35700
O 	O 	0.73478 0.20810 0.00821 -0.41600
O 	O 	0.65580 0.34305 0.88189 -0.35300
O 	O 	0.48206 0.22777 0.99711 -0.37400
C 	C 	0.43137 0.22420 0.96619 0.31100
C 	C 	0.76658 0.50974 0.96495 0.29800
O 	O 	0.68174 0.45403 0.96940 -0.38100
O 	O 	0.46789 0.27979 0.94116 -0.36800
O 	O 	0.75509 0.31470 0.90516 -0.34800
C 	C 	0.79392 0.22650 0.98514 0.30400
O 	O 	0.60528 0.31212 0.06451 -0.37400
O 	O 	0.74912 0.36023 0.09205 -0.40000
H 	H 	0.58479 0.20804 0.94381 0.17600
H 	H 	0.78337 0.43366 0.02845 0.18000
Cu	Cu	0.61861 0.19867 0.50508 0.93200
Cu	Cu	0.68164 0.21683 0.41862 0.87700
Cu	Cu	0.66883 0.35071 0.46186 0.90500
Cu	Cu	0.62748 0.36159 0.54300 0.90100
C 	C 	0.64793 0.24733 0.58959 0.28100
O 	O 	0.48746 0.14716 0.50780 -0.35600
C 	C 	0.63189 0.30498 0.37384 0.28300
O 	O 	0.69533 0.33838 0.51473 -0.63800
O 	O 	0.60319 0.21893 0.45083 -0.64200
O 	O 	0.67445 0.13745 0.49506 -0.35800
O 	O 	0.77179 0.23864 0.45968 -0.43000
O 	O 	0.60864 0.28606 0.58350 -0.37300
O 	O 	0.73890 0.47835 0.47601 -0.36700
C 	C 	0.72524 0.52111 0.50319 0.31500
C 	C 	0.45369 0.18894 0.49778 0.30100
O 	O 	0.50912 0.27418 0.49608 -0.37600
O 	O 	0.68644 0.48570 0.53343 -0.38000
O 	O 	0.65231 0.20160 0.55978 -0.33700
C 	C 	0.75145 0.17860 0.48171 0.30900
O 	O 	0.66357 0.36652 0.40605 -0.35900
O 	O 	0.62069 0.22986 0.37557 -0.40500
H 	H 	0.76122 0.37484 0.52625 0.17800
H 	H 	0.53919 0.18462 0.43682 0.19200
C 	C 	0.84905 0.36332 0.76181 -0.03400
C 	C 	0.84224 0.35491 0.72059 -0.03500
C 	C 	0.75712 0.29255 0.69536 0.02700
C 	C 	0.67909 0.23497 0.71165 -0.00300
C 	C 	0.68586 0.24372 0.75312 -0.00400
C 	C 	0.77077 0.30960 0.77829 0.02600
C 	C 	0.60670 0.19025 0.76941 0.02700
C 	C 	0.52239 0.12491 0.74417 -0.03600
C 	C 	0.51574 0.11595 0.70299 -0.03500
C 	C 	0.59327 0.17241 0.68654 0.02500
C 	C 	0.58513 0.17097 0.64558 -0.02000
C 	C 	0.66145 0.23279 0.62974 -0.04000
C 	C 	0.74794 0.29069 0.65429 -0.02300
C 	C 	0.77528 0.32436 0.81942 -0.01800
C 	C 	0.69534 0.27527 0.83532 -0.04200
C 	C 	0.61194 0.20621 0.81050 -0.02600
H 	H 	0.91484 0.41321 0.78089 0.05500
H 	H 	0.90285 0.39845 0.70835 0.05400
H 	H 	0.46148 0.08247 0.75641 0.05400
H 	H 	0.44978 0.06672 0.68391 0.05400
H 	H 	0.51863 0.12554 0.62632 0.05600
H 	H 	0.80692 0.33751 0.64177 0.05200
H 	H 	0.83972 0.37732 0.83877 0.06200
H 	H 	0.55059 0.16782 0.82302 0.04700
C 	C 	0.47481 0.20511 0.23514 -0.03700
C 	C 	0.48061 0.21133 0.19527 -0.03700
C 	C 	0.55990 0.28450 0.18508 0.02300
C 	C 	0.63184 0.35436 0.21520 -0.00500
C 	C 	0.62550 0.34863 0.25534 -0.00500
C 	C 	0.54798 0.27230 0.26529 0.02400
C 	C 	0.69902 0.41669 0.28547 0.02500
C 	C 	0.77659 0.49182 0.27529 -0.03700
C 	C 	0.78332 0.49700 0.23541 -0.03600
C 	C 	0.71226 0.42742 0.20523 0.02300
C 	C 	0.72253 0.42763 0.16542 -0.02300
C 	C 	0.65313 0.35541 0.13564 -0.05200
C 	C 	0.57032 0.28616 0.14532 -0.02500
C 	C 	0.54695 0.26171 0.30502 -0.02300
C 	C 	0.62282 0.32657 0.33470 -0.04600
C 	C 	0.69649 0.40606 0.32518 -0.02300
H 	H 	0.41426 0.14697 0.24250 0.05000
H 	H 	0.42439 0.15797 0.17233 0.05100
H 	H 	0.83284 0.54512 0.29823 0.05200
H 	H 	0.84470 0.55420 0.22804 0.05100
H 	H 	0.78561 0.48201 0.15774 0.05100
H 	H 	0.51635 0.23103 0.12221 0.05300
H 	H 	0.48927 0.20129 0.31263 0.05500
H 	H 	0.75438 0.45667 0.34829 0.05800
C 	C 	0.80900 0.73610 0.46792 -0.07100
C 	C 	0.86758 0.79909 0.50236 0.00300
C 	C 	0.87331 0.77040 0.53796 0.06100
C 	C 	0.82350 0.67896 0.53831 -0.00600
C 	C 	0.76770 0.61585 0.50346 -0.08900
C 	C 	0.75853 0.64458 0.46831 0.11800
N 	N 	0.69772 0.58094 0.43303 -0.02300
H 	H 	0.80335 0.75826 0.44071 0.07900
H 	H 	0.82994 0.65707 0.56549 0.06300
N 	N 	0.93113 0.83411 0.57364 -0.01700
O 	O 	0.61151 0.52129 0.43344 -0.09300
O 	O 	0.72753 0.58589 0.39996 -0.09600
O 	O 	0.91891 0.89178 0.58774 -0.08300
O 	O 	0.99231 0.83093 0.59330 -0.08200
C 	C 	0.87984 0.10120 0.52874 -0.07400
C 	C 	0.90760 0.08099 0.49576 0.00500
C 	C 	0.88975 0.09911 0.45887 0.05300
C 	C 	0.84143 0.13407 0.45497 -0.00400
C 	C 	0.80982 0.15034 0.48749 -0.10000
C 	C 	0.83196 0.13678 0.52492 0.12100
N 	N 	0.80867 0.16185 0.55928 -0.02200
H 	H 	0.89508 0.08885 0.55733 0.08100
H 	H 	0.82570 0.14564 0.42626 0.04200
N 	N 	0.91871 0.07998 0.42506 -0.02300
O 	O 	0.75961 0.10293 0.58065 -0.09100
O 	O 	0.84250 0.24500 0.57093 -0.10300
O 	O 	0.88280 0.99765 0.40992 -0.09200
O 	O 	0.97585 0.14427 0.40763 -0.10100
C 	C 	0.21267 0.11237 0.46740 -0.07200
C 	C 	0.17507 0.07693 0.50038 0.00400
C 	C 	0.22949 0.07857 0.53250 0.05600
C 	C 	0.31929 0.11176 0.53048 -0.00800
C 	C 	0.35663 0.14634 0.49735 -0.09200
C 	C 	0.30312 0.14700 0.46570 0.11500
N 	N 	0.33976 0.18096 0.43140 -0.02400
H 	H 	0.17084 0.11071 0.44257 0.07900
H 	H 	0.36109 0.11337 0.55531 0.06200
N 	N 	0.19387 0.04726 0.56737 -0.02300
O 	O 	0.36743 0.14419 0.40996 -0.11600
O 	O 	0.33894 0.24405 0.41993 -0.09200
O 	O 	0.20022 0.98930 0.58136 -0.08200
O 	O 	0.16013 0.08066 0.58647 -0.09000
C 	C 	0.81651 0.71266 0.92694 -0.07000
C 	C 	0.85364 0.77541 0.96230 0.00600
C 	C 	0.86329 0.75063 0.99867 0.06000
C 	C 	0.83868 0.66477 0.99907 -0.00600
C 	C 	0.80469 0.60328 0.96356 -0.08900
C 	C 	0.79332 0.62742 0.92732 0.11400
N 	N 	0.75885 0.56570 0.89074 -0.02800
H 	H 	0.81010 0.73164 0.89887 0.07900
H 	H 	0.84493 0.64561 0.02712 0.05300
N 	N 	0.90039 0.81338 0.03517 -0.01700
O 	O 	0.68286 0.53857 0.86866 -0.10300
O 	O 	0.80718 0.54255 0.87796 -0.08900
O 	O 	0.86272 0.85078 0.04514 -0.09000
O 	O 	0.96896 0.82964 0.05937 -0.08900
C 	C 	0.82468 0.13957 0.94008 -0.00600
C 	C 	0.82183 0.16800 0.97861 -0.08900
C 	C 	0.83874 0.13479 0.01047 0.11300
C 	C 	0.85701 0.07310 0.00333 -0.07100
C 	C 	0.86262 0.04677 0.96506 0.00800
C 	C 	0.84457 0.07892 0.93310 0.05600
N 	N 	0.84744 0.05089 0.89358 -0.02200
H 	H 	0.80993 0.16329 0.91539 0.06600
H 	H 	0.87242 0.04988 0.02806 0.08400
N 	N 	0.84192 0.16691 0.05036 -0.02500
O 	O 	0.79980 0.96618 0.87864 -0.08600
O 	O 	0.89409 0.10996 0.87184 -0.09600
O 	O 	0.79099 0.11066 0.07232 -0.11000
O 	O 	0.90116 0.25151 0.06576 -0.13400
C 	C 	0.17756 0.06696 0.92556 -0.07200
C 	C 	0.14274 0.07016 0.95947 0.00700
C 	C 	0.20281 0.12295 0.99577 0.05800
C 	C 	0.29707 0.17254 0.99772 -0.00300
C 	C 	0.33207 0.16904 0.96387 -0.08900
C 	C 	0.27184 0.11535 0.92763 0.11500
N 	N 	0.30607 0.10797 0.89315 -0.02400
H 	H 	0.13125 0.02532 0.89776 0.07600
H 	H 	0.34315 0.21400 0.02560 0.06500
N 	N 	0.16814 0.12599 0.03077 -0.01900
O 	O 	0.35420 0.07858 0.89387 -0.11900
O 	O 	0.28332 0.12416 0.86020 -0.09900
O 	O 	0.11849 0.05418 0.04563 -0.09100
O 	O 	0.19147 0.20180 0.04928 -0.09600
