data_crystal

_cell_length_a 26.11641
_cell_length_b 26.54065
_cell_length_c 34.61908
_cell_angle_alpha 95.52014
_cell_angle_beta  95.51869
_cell_angle_gamma 125.80802

_symmetry_space_group_name_	'P 1'
_symmetry_space_group_name_H-M	'P 1'

loop_
_symmetry_equiv_pos_as_xyz
  x,y,z

loop_
_atom_site_label
_atom_site_type_symbol
_atom_site_fract_x
_atom_site_fract_y
_atom_site_fract_z
_atom_site_charge
C 	C 	0.96272 0.02408 0.99850 0.14600
C 	C 	0.02826 0.06215 0.99626 -0.10700
C 	C 	0.06218 0.03627 0.99641 0.15100
C 	C 	0.03036 0.97216 0.99810 -0.12700
C 	C 	0.96491 0.93398 0.00002 0.16600
C 	C 	0.93141 0.96018 0.00084 -0.12500
H 	H 	0.05255 0.11142 0.99407 0.11300
H 	H 	0.05631 0.95189 0.99744 0.11500
H 	H 	0.88080 0.93064 0.00256 0.10300
C 	C 	0.93501 0.00337 0.46165 0.14400
C 	C 	0.00163 0.03834 0.46364 -0.10600
C 	C 	0.03106 0.00792 0.46391 0.14000
C 	C 	0.99382 0.94253 0.46294 -0.10900
C 	C 	0.92746 0.90758 0.46181 0.14000
C 	C 	0.89795 0.93794 0.46097 -0.10100
H 	H 	0.03044 0.08904 0.46490 0.10600
H 	H 	0.01641 0.91886 0.46304 0.09600
H 	H 	0.84650 0.91083 0.45967 0.11300
Cu	Cu	0.63384 0.23496 0.99928 0.92800
Cu	Cu	0.67328 0.23887 0.91195 0.89200
Cu	Cu	0.67830 0.34401 0.95509 0.90200
Cu	Cu	0.65663 0.36046 0.03733 0.91500
C 	C 	0.66209 0.27417 0.08363 0.27700
O 	O 	0.54490 0.20952 0.00365 -0.34400
C 	C 	0.64857 0.30913 0.86720 0.28100
O 	O 	0.69655 0.33426 0.00772 -0.63400
O 	O 	0.62384 0.24961 0.94504 -0.63900
O 	O 	0.66276 0.18093 0.98862 -0.36400
O 	O 	0.73334 0.24688 0.95216 -0.39800
O 	O 	0.63971 0.30701 0.07823 -0.35200
O 	O 	0.73511 0.43520 0.96823 -0.37500
C 	C 	0.73123 0.47019 0.99586 0.34200
C 	C 	0.52686 0.24451 0.99401 0.32200
O 	O 	0.57040 0.30404 0.99209 -0.35100
O 	O 	0.70620 0.44882 0.02729 -0.33700
O 	O 	0.65777 0.23619 0.05373 -0.34100
C 	C 	0.71435 0.20233 0.97312 0.33700
O 	O 	0.67356 0.35382 0.89913 -0.36200
O 	O 	0.63431 0.25310 0.86935 -0.39300
H 	H 	0.74270 0.35582 0.01819 0.18000
H 	H 	0.57905 0.22920 0.93176 0.18400
Cu	Cu	0.73999 0.34403 0.45309 0.93400
Cu	Cu	0.74492 0.31183 0.54178 0.88500
Cu	Cu	0.63535 0.30624 0.50186 0.90400
Cu	Cu	0.61020 0.32036 0.41897 0.90300
C 	C 	0.69084 0.30812 0.36946 0.27900
O 	O 	0.76534 0.43094 0.44677 -0.32000
C 	C 	0.67882 0.34027 0.58938 0.27900
O 	O 	0.63949 0.28326 0.44863 -0.63900
O 	O 	0.73097 0.35836 0.50825 -0.63700
O 	O 	0.79473 0.31503 0.46242 -0.32700
O 	O 	0.73286 0.24911 0.50235 -0.42900
O 	O 	0.65849 0.33118 0.37530 -0.36500
O 	O 	0.54242 0.25048 0.49277 -0.35600
C 	C 	0.50316 0.24766 0.46402 0.35200
C 	C 	0.73131 0.45008 0.45739 0.32900
O 	O 	0.67170 0.40837 0.46154 -0.38200
O 	O 	0.52303 0.27489 0.43309 -0.37700
O 	O 	0.73330 0.31621 0.39838 -0.33700
C 	C 	0.77373 0.26473 0.47833 0.33800
O 	O 	0.63186 0.31740 0.55864 -0.34900
O 	O 	0.73480 0.35339 0.58506 -0.39400
H 	H 	0.61669 0.23734 0.43946 0.17700
H 	H 	0.75315 0.40317 0.52055 0.20000
C 	C 	0.75992 0.44373 0.72947 -0.03200
C 	C 	0.75511 0.43970 0.76915 -0.03200
C 	C 	0.69966 0.38752 0.77909 0.02900
C 	C 	0.64739 0.34064 0.74892 -0.00100
C 	C 	0.65203 0.34498 0.70897 -0.00400
C 	C 	0.70921 0.39579 0.69923 0.03000
C 	C 	0.60077 0.29679 0.67879 0.03200
C 	C 	0.54428 0.24596 0.68875 -0.03300
C 	C 	0.53992 0.24135 0.72842 -0.03100
C 	C 	0.59186 0.28769 0.75862 0.02700
C 	C 	0.59037 0.28006 0.79816 -0.02100
C 	C 	0.64401 0.32470 0.82794 -0.04400
C 	C 	0.69727 0.37980 0.81860 -0.02200
C 	C 	0.71615 0.39639 0.65952 -0.02300
C 	C 	0.66656 0.34646 0.62960 -0.03900
C 	C 	0.60794 0.29827 0.63915 -0.02300
H 	H 	0.80366 0.48349 0.72229 0.06200
H 	H 	0.79518 0.47641 0.79213 0.06300
H 	H 	0.50428 0.20915 0.66578 0.06500
H 	H 	0.49663 0.20101 0.73559 0.06000
H 	H 	0.54876 0.23819 0.80559 0.05800
H 	H 	0.73834 0.41458 0.84172 0.06200
H 	H 	0.76082 0.43435 0.65200 0.06300
H 	H 	0.56940 0.26017 0.61597 0.07000
C 	C 	0.80134 0.36438 0.25663 -0.03000
C 	C 	0.79725 0.35970 0.21565 -0.03100
C 	C 	0.73912 0.31198 0.18995 0.03100
C 	C 	0.68560 0.26678 0.20554 -0.00100
C 	C 	0.68953 0.27186 0.24679 -0.00000
C 	C 	0.74724 0.32162 0.27242 0.03100
C 	C 	0.63469 0.22931 0.26238 0.03100
C 	C 	0.57744 0.17983 0.23668 -0.03100
C 	C 	0.57370 0.17445 0.19571 -0.03000
C 	C 	0.62705 0.21870 0.17994 0.03200
C 	C 	0.62152 0.21773 0.13910 -0.01700
C 	C 	0.67336 0.26536 0.12389 -0.03700
C 	C 	0.73272 0.31095 0.14907 -0.02400
C 	C 	0.74905 0.33004 0.31333 -0.01700
C 	C 	0.69321 0.29025 0.32858 -0.03800
C 	C 	0.63682 0.23877 0.30327 -0.02300
H 	H 	0.84615 0.40226 0.27607 0.06400
H 	H 	0.83893 0.39405 0.20395 0.06000
H 	H 	0.53535 0.14629 0.24838 0.06100
H 	H 	0.52877 0.13681 0.17628 0.06600
H 	H 	0.57589 0.18231 0.11943 0.06700
H 	H 	0.77279 0.34735 0.13711 0.04900
H 	H 	0.79264 0.36954 0.33305 0.06900
H 	H 	0.59400 0.20781 0.31525 0.04800
C 	C 	0.83859 0.73249 0.42631 -0.11700
C 	C 	0.83292 0.71107 0.46228 0.00500
C 	C 	0.85372 0.75355 0.49788 0.31100
C 	C 	0.88173 0.81734 0.49751 -0.09100
C 	C 	0.88917 0.83912 0.46162 -0.07600
C 	C 	0.86660 0.79626 0.42595 0.34200
C 	C 	0.80653 0.64446 0.46262 0.02200
F 	F 	0.84752 0.73317 0.53282 -0.41000
H 	H 	0.89915 0.85017 0.52515 0.11300
F 	F 	0.87346 0.81680 0.39105 -0.41600
H 	H 	0.82229 0.69992 0.39870 0.12800
C 	C 	0.74062 0.59623 0.44937 0.29300
C 	C 	0.71615 0.53297 0.44820 -0.05400
C 	C 	0.75731 0.51722 0.46022 -0.13800
C 	C 	0.82320 0.56569 0.47413 0.37300
C 	C 	0.84762 0.62900 0.47521 -0.13700
F 	F 	0.70033 0.61068 0.43745 -0.40700
H 	H 	0.66533 0.49611 0.43735 0.09600
F 	F 	0.86338 0.55160 0.48707 -0.43100
H 	H 	0.89852 0.66603 0.48564 0.13100
C 	C 	0.85812 0.08113 0.49266 -0.11600
C 	C 	0.85736 0.10755 0.45957 0.00300
C 	C 	0.87895 0.09677 0.42636 0.31400
C 	C 	0.90227 0.06088 0.42661 -0.09000
C 	C 	0.90423 0.03550 0.46000 -0.07400
C 	C 	0.88144 0.04524 0.49291 0.33900
C 	C 	0.83496 0.14737 0.46010 0.02300
F 	F 	0.87766 0.12137 0.39399 -0.40700
H 	H 	0.91973 0.05355 0.40109 0.12400
F 	F 	0.88352 0.02137 0.52550 -0.42400
H 	H 	0.84145 0.08917 0.51838 0.12400
C 	C 	0.76962 0.11999 0.45876 0.28900
C 	C 	0.74935 0.15836 0.46288 -0.05400
C 	C 	0.79413 0.22446 0.46837 -0.14500
C 	C 	0.85920 0.25170 0.46809 0.37300
C 	C 	0.87945 0.21322 0.46402 -0.13800
F 	F 	0.72594 0.05625 0.45412 -0.40900
H 	H 	0.69895 0.13680 0.46252 0.09500
F 	F 	0.90320 0.31549 0.47354 -0.42600
H 	H 	0.92994 0.23467 0.46490 0.13200
C 	C 	0.34841 0.19440 0.49767 -0.13800
C 	C 	0.30273 0.14414 0.46666 0.02300
C 	C 	0.32329 0.12687 0.43538 0.28700
C 	C 	0.38889 0.16059 0.43474 -0.04900
C 	C 	0.43448 0.21097 0.46563 -0.14400
C 	C 	0.41407 0.22736 0.49735 0.37700
C 	C 	0.23341 0.11051 0.46656 0.00300
F 	F 	0.27969 0.07736 0.40571 -0.40900
H 	H 	0.40433 0.14741 0.41030 0.09200
F 	F 	0.45779 0.27622 0.52734 -0.43100
H 	H 	0.33299 0.20820 0.52182 0.13400
C 	C 	0.20572 0.07670 0.49659 0.30800
C 	C 	0.13994 0.04434 0.49608 -0.09200
C 	C 	0.10103 0.04457 0.46524 -0.07700
C 	C 	0.12875 0.07835 0.43518 0.34200
C 	C 	0.19475 0.11172 0.43613 -0.11500
F 	F 	0.24239 0.07445 0.52592 -0.41700
H 	H 	0.11902 0.01859 0.51944 0.10600
F 	F 	0.09153 0.07781 0.40469 -0.41900
H 	H 	0.21580 0.13799 0.41298 0.13300
C 	C 	0.91172 0.77952 0.03006 -0.11700
C 	C 	0.86541 0.73579 0.99683 0.00200
C 	C 	0.85175 0.75719 0.96472 0.31100
C 	C 	0.88428 0.82198 0.96586 -0.08400
C 	C 	0.93059 0.86579 0.99911 -0.09700
C 	C 	0.94422 0.84434 0.03126 0.35400
C 	C 	0.83072 0.66765 0.99592 0.01700
F 	F 	0.80704 0.71517 0.93242 -0.41000
H 	H 	0.87369 0.83823 0.94091 0.10700
F 	F 	0.98851 0.88630 0.06372 -0.42000
H 	H 	0.92230 0.76320 0.05498 0.12700
C 	C 	0.85800 0.63753 0.98427 0.29400
C 	C 	0.82505 0.57281 0.98373 -0.05300
C 	C 	0.76469 0.53777 0.99495 -0.14400
C 	C 	0.73718 0.56793 0.00621 0.38200
C 	C 	0.77019 0.63264 0.00671 -0.13300
F 	F 	0.91649 0.67107 0.97361 -0.41000
H 	H 	0.84682 0.55009 0.97516 0.09800
F 	F 	0.67812 0.53437 0.01613 -0.41900
H 	H 	0.74876 0.65563 0.01548 0.13200
C 	C 	0.90645 0.12442 0.02229 -0.11200
C 	C 	0.85328 0.09676 0.99159 0.00000
C 	C 	0.83597 0.04503 0.96340 0.30600
C 	C 	0.87243 0.02219 0.96539 -0.08500
C 	C 	0.92577 0.04992 0.99598 -0.08600
C 	C 	0.94232 0.10084 0.02469 0.34900
C 	C 	0.81838 0.12455 0.98741 0.01600
F 	F 	0.78394 0.01713 0.93398 -0.41300
H 	H 	0.85920 0.98281 0.94320 0.10400
F 	F 	0.99274 0.12703 0.05504 -0.41900
H 	H 	0.92023 0.16445 0.04409 0.13100
C 	C 	0.78279 0.12292 0.01587 0.29400
C 	C 	0.74872 0.14819 0.01116 -0.04500
C 	C 	0.74949 0.17477 0.97782 -0.15300
C 	C 	0.78470 0.17566 0.94917 0.37400
C 	C 	0.81952 0.15143 0.95430 -0.13800
F 	F 	0.78074 0.09636 0.04785 -0.40800
H 	H 	0.72205 0.14740 0.03351 0.10400
F 	F 	0.78401 0.19867 0.91591 -0.45100
H 	H 	0.84684 0.15280 0.93222 0.13200
C 	C 	0.21575 0.11929 0.95605 -0.11800
C 	C 	0.26098 0.13784 0.99011 -0.00100
C 	C 	0.24136 0.12715 0.02670 0.31700
C 	C 	0.17664 0.09641 0.02895 -0.08000
C 	C 	0.13108 0.07608 0.99472 -0.08500
C 	C 	0.15096 0.08847 0.95831 0.34300
C 	C 	0.32841 0.16646 0.98727 0.01500
F 	F 	0.28477 0.14507 0.05986 -0.40900
H 	H 	0.16159 0.08694 0.05712 0.12100
F 	F 	0.10723 0.06898 0.92500 -0.42400
H 	H 	0.23065 0.12780 0.92777 0.12500
C 	C 	0.34570 0.12844 0.97221 0.29200
C 	C 	0.41047 0.15453 0.97323 -0.05500
C 	C 	0.45851 0.21876 0.98937 -0.14400
C 	C 	0.44090 0.25720 0.00335 0.38000
C 	C 	0.37611 0.23105 0.00214 -0.13000
F 	F 	0.29983 0.06586 0.95759 -0.41100
H 	H 	0.42339 0.12463 0.96199 0.09500
F 	F 	0.48660 0.31918 0.01965 -0.42700
H 	H 	0.36303 0.26065 0.01373 0.13300
