data_crystal

_cell_length_a 17.94533
_cell_length_b 16.97704
_cell_length_c 50.85878
_cell_angle_alpha 89.63997
_cell_angle_beta  89.64552
_cell_angle_gamma 119.45708

_symmetry_space_group_name_	'P 1'
_symmetry_space_group_name_H-M	'P 1'

loop_
_symmetry_equiv_pos_as_xyz
  x,y,z

loop_
_atom_site_label
_atom_site_type_symbol
_atom_site_fract_x
_atom_site_fract_y
_atom_site_fract_z
_atom_site_charge
C 	C 	0.12131 0.18414 0.75972 0.30600
C 	C 	0.17686 0.08706 0.69955 0.32800
Ni	Ni	0.07910 0.99227 0.74869 1.10000
Ni	Ni	0.02281 0.10613 0.70952 1.11500
O 	O 	0.10712 0.10638 0.77059 -0.37200
O 	O 	0.11829 0.19287 0.73376 -0.36400
O 	O 	0.18177 0.08073 0.72517 -0.36700
O 	O 	0.10844 0.08373 0.68888 -0.37600
C 	C 	0.27615 0.53511 0.44854 0.32200
O 	O 	0.27038 0.52156 0.42279 -0.36300
O 	O 	0.13613 0.72020 0.01307 -0.35600
C 	C 	0.00559 0.12041 0.17727 0.31700
C 	C 	0.13783 0.19117 0.24182 0.31200
C 	C 	0.98698 0.89886 0.26856 0.33000
Ni	Ni	0.02838 0.01014 0.21840 1.12400
O 	O 	0.06169 0.10569 0.18964 -0.36300
O 	O 	0.01514 0.91019 0.24371 -0.39900
O 	O 	0.12649 0.10806 0.23898 -0.36900
C 	C 	0.10257 0.24505 0.11350 -0.11000
C 	C 	0.04377 0.18644 0.09506 -0.01100
C 	C 	0.97245 0.10520 0.10376 0.14200
C 	C 	0.01836 0.14348 0.14908 -0.12900
C 	C 	0.09035 0.22365 0.14035 0.19500
C 	C 	0.05444 0.21462 0.06701 0.01900
O 	O 	0.14924 0.28091 0.15802 -0.27400
H 	H 	0.15724 0.30806 0.10700 0.07700
C 	C 	0.00147 0.24594 0.05620 0.11600
C 	C 	0.03378 0.31190 0.03620 -0.03900
C 	C 	0.12117 0.35418 0.02973 -0.11000
H 	H 	0.99580 0.34181 0.02962 0.09200
H 	H 	0.12913 0.32365 0.16316 0.14500
C 	C 	0.93352 0.61029 0.14168 0.02300
C 	C 	0.90542 0.56422 0.11773 0.11300
C 	C 	0.96418 0.55846 0.10068 -0.00800
C 	C 	0.88166 0.64294 0.15566 0.01000
H 	H 	0.94306 0.52666 0.08172 0.08100
C 	C 	0.86587 0.62660 0.18284 0.11800
C 	C 	0.86817 0.70932 0.14357 -0.10800
O 	O 	0.86557 0.55325 0.19445 -0.26600
H 	H 	0.87539 0.71924 0.12244 0.09600
C 	C 	0.28988 0.33854 0.29343 0.11900
C 	C 	0.22400 0.26280 0.28128 -0.03200
C 	C 	0.21676 0.26036 0.25387 -0.11600
O 	O 	0.29354 0.34238 0.32036 -0.26900
H 	H 	0.17592 0.20810 0.29325 0.05600
H 	H 	0.25906 0.37095 0.32561 0.14700
H 	H 	0.24363 0.35913 0.20648 0.16100
C 	C 	0.14616 0.66960 0.32479 -0.10500
C 	C 	0.11682 0.72389 0.33656 0.00800
C 	C 	0.13145 0.74429 0.36341 0.13000
C 	C 	0.18295 0.71872 0.37752 -0.03000
C 	C 	0.22217 0.67532 0.36475 -0.10400
C 	C 	0.08282 0.77018 0.32001 0.00100
H 	H 	0.19777 0.73885 0.39785 0.08500
C 	C 	0.13857 0.85595 0.30908 0.11800
C 	C 	0.10650 0.89849 0.29267 -0.02700
C 	C 	0.01884 0.85647 0.28729 -0.14000
C 	C 	0.99505 0.72837 0.31485 -0.10200
O 	O 	0.22482 0.89679 0.31370 -0.26600
H 	H 	0.14991 0.96398 0.28399 0.05600
H 	H 	0.95190 0.66246 0.32331 0.09100
H 	H 	0.23402 0.93397 0.32958 0.15400
C 	C 	0.08251 0.51094 0.48615 0.11000
C 	C 	0.14242 0.40025 0.46465 0.10300
C 	C 	0.19543 0.49503 0.46401 -0.09200
C 	C 	0.16229 0.55037 0.47301 0.10000
Br	Br	0.21463 0.67499 0.46203 -0.18000
Br	Br	0.04674 0.58624 0.50432 -0.16900
Br	Br	0.18541 0.32268 0.45247 -0.15700
C 	C 	0.25384 0.11061 0.68316 -0.11500
C 	C 	0.24670 0.08477 0.65656 0.19500
O 	O 	0.16784 0.03763 0.64514 -0.27600
H 	H 	0.15768 0.08416 0.63661 0.15900
H 	H 	0.10880 0.19883 0.81261 0.06500
H 	H 	0.04248 0.98645 0.87722 0.11600
O 	O 	0.08732 0.21725 0.23015 -0.37400
C 	C 	0.13180 0.23682 0.05399 -0.11000
H 	H 	0.92440 0.57591 0.20110 0.14600
H 	H 	0.01094 0.01467 0.82326 0.05900
C 	C 	0.16901 0.45315 0.03112 0.33100
O 	O 	0.10866 0.63744 0.06363 -0.37200
C 	C 	0.16519 0.30664 0.03506 0.20000
H 	H 	0.17060 0.20818 0.06077 0.09400
C 	C 	0.01802 0.64096 0.14963 -0.13500
C 	C 	0.05078 0.59752 0.10755 -0.14100
C 	C 	0.05653 0.36223 0.47289 0.10200
O 	O 	0.99534 0.00035 0.87482 -0.20300
C 	C 	0.30046 0.68207 0.37602 0.31200
O 	O 	0.31807 0.61512 0.37214 -0.35900
H 	H 	0.34406 0.56696 0.27903 0.07900
C 	C 	0.27970 0.33127 0.23842 0.19700
C 	C 	0.39282 0.56765 0.29165 -0.11100
C 	C 	0.35097 0.41124 0.27802 0.01000
O 	O 	0.41011 0.70237 0.31203 -0.26400
O 	O 	0.27554 0.32749 0.21149 -0.27100
H 	H 	0.45293 0.75229 0.30079 0.15500
C 	C 	0.41167 0.49676 0.29065 0.00200
C 	C 	0.43137 0.63519 0.31055 0.19600
C 	C 	0.34703 0.40599 0.25054 -0.11100
Ni	Ni	0.37325 0.56891 0.39905 1.12500
O 	O 	0.35974 0.76257 0.38448 -0.35100
O 	O 	0.47819 0.61111 0.37602 -0.37300
O 	O 	0.35069 0.56461 0.46098 -0.34300
O 	O 	0.41456 0.75908 0.46207 -0.34500
O 	O 	0.41506 0.49772 0.42067 -0.35500
O 	O 	0.42146 0.68152 0.41658 -0.71800
H 	H 	0.36923 0.68365 0.42136 0.16700
C 	C 	0.11535 0.61072 0.08733 0.33200
Ni	Ni	0.27122 0.60423 0.06767 1.11800
Ni	Ni	0.20940 0.74307 0.04559 1.12600
O 	O 	0.18619 0.61169 0.09433 -0.36300
O 	O 	0.16740 0.49003 0.05341 -0.38000
O 	O 	0.22233 0.50184 0.01206 -0.34900
O 	O 	0.30545 0.84727 0.02650 -0.36800
O 	O 	0.27082 0.78657 0.08084 -0.36500
O 	O 	0.26675 0.67553 0.03987 -0.71800
H 	H 	0.32655 0.72488 0.03976 0.17200
O 	O 	0.24647 0.33793 0.02538 -0.27800
H 	H 	0.23916 0.30460 0.00880 0.17900
C 	C 	0.07644 0.63427 0.13283 0.20300
O 	O 	0.16022 0.67075 0.14027 -0.28600
H 	H 	0.04009 0.67596 0.16813 0.07300
H 	H 	0.16366 0.62102 0.14951 0.15300
C 	C 	0.48626 0.62940 0.32921 -0.12000
H 	H 	0.39429 0.46136 0.23859 0.08200
C 	C 	0.19790 0.64420 0.33889 0.19600
O 	O 	0.22938 0.59455 0.32677 -0.27100
H 	H 	0.13261 0.65113 0.30431 0.07700
H 	H 	0.18679 0.53045 0.33059 0.15100
Br	Br	0.40038 0.40113 0.47932 -0.14500
C 	C 	0.32040 0.10357 0.64198 -0.10600
C 	C 	0.40127 0.14638 0.65382 0.00800
C 	C 	0.40819 0.17095 0.68040 0.12400
C 	C 	0.33518 0.15482 0.69475 -0.03000
H 	H 	0.34181 0.17603 0.71506 0.07300
H 	H 	0.31464 0.08491 0.62145 0.08500
C 	C 	0.29159 0.41512 0.77968 -0.10600
C 	C 	0.29673 0.39695 0.80633 0.00600
C 	C 	0.22638 0.32284 0.81858 0.12000
C 	C 	0.15994 0.25886 0.80327 -0.03300
C 	C 	0.16507 0.26696 0.77575 -0.11500
C 	C 	0.22606 0.35027 0.76425 0.19400
O 	O 	0.22543 0.30964 0.84526 -0.25800
O 	O 	0.22523 0.36596 0.73780 -0.27600
H 	H 	0.18914 0.39493 0.73595 0.15000
H 	H 	0.25311 0.27200 0.84787 0.15300
C 	C 	0.10553 0.64576 0.99911 0.35400
C 	C 	0.03292 0.61962 0.98157 -0.12100
C 	C 	0.04396 0.60429 0.95509 0.09200
Br	Br	0.15129 0.68194 0.93759 -0.17000
O 	O 	0.13662 0.59133 0.00136 -0.38400
Br	Br	0.22736 0.92363 0.97727 -0.17700
Br	Br	0.34944 0.14926 0.98190 -0.16700
C 	C 	0.33426 0.84109 0.00290 0.32000
Ni	Ni	0.26080 0.63608 0.00492 1.13600
O 	O 	0.29938 0.76309 0.98962 -0.33700
C 	C 	0.38128 0.51071 0.98266 0.10800
Br	Br	0.32461 0.38287 0.93973 -0.18300
Br	Br	0.34233 0.57728 0.96106 -0.22100
C 	C 	0.34952 0.97983 0.98169 0.08000
C 	C 	0.96294 0.77077 0.29835 0.21100
C 	C 	0.85303 0.68712 0.19825 -0.02600
H 	H 	0.84773 0.67832 0.21943 0.06400
H 	H 	0.98873 0.92137 0.57775 0.15300
O 	O 	0.93709 0.92327 0.19444 -0.40000
C 	C 	0.95898 0.08515 0.13078 -0.02300
O 	O 	0.82198 0.53016 0.11020 -0.25000
H 	H 	0.79164 0.46716 0.11710 0.16000
H 	H 	0.87037 0.69201 0.27697 0.15800
C 	C 	0.49094 0.66478 0.35593 0.33200
O 	O 	0.48695 0.73929 0.35926 -0.35500
C 	C 	0.47890 0.50151 0.30585 0.13300
H 	H 	0.47165 0.39014 0.31577 0.17100
O 	O 	0.91829 0.04360 0.08594 -0.25200
C 	C 	0.85595 0.76377 0.18654 -0.12400
C 	C 	0.85612 0.77029 0.15893 0.20200
H 	H 	0.90638 0.88595 0.14274 0.15900
O 	O 	0.87713 0.72819 0.29292 -0.27900
Br	Br	0.92895 0.61520 0.02566 -0.17300
H 	H 	0.93117 0.26326 0.08079 0.15300
C 	C 	0.87671 0.84365 0.20270 0.33300
H 	H 	0.90238 0.02439 0.13746 0.07000
O 	O 	0.92193 0.21903 0.06678 -0.24900
H 	H 	0.86863 0.05396 0.08485 0.17700
O 	O 	0.84721 0.83779 0.14697 -0.28200
O 	O 	0.06421 0.88616 0.72500 -0.39200
O 	O 	0.93477 0.12995 0.72730 -0.37600
O 	O 	0.94977 0.13342 0.19060 -0.36600
O 	O 	0.84718 0.83219 0.22703 -0.38000
C 	C 	0.75827 0.59065 0.92984 0.31000
C 	C 	0.82189 0.42347 0.93706 0.34400
C 	C 	0.61149 0.24320 0.87941 0.33200
C 	C 	0.54543 0.42380 0.87483 0.31500
Ni	Ni	0.51612 0.29389 0.91741 1.12700
Ni	Ni	0.70493 0.42940 0.89633 1.12700
O 	O 	0.75860 0.54106 0.95043 -0.34100
O 	O 	0.73488 0.55616 0.90596 -0.37000
O 	O 	0.53965 0.24461 0.88400 -0.37500
O 	O 	0.53902 0.20427 0.93682 -0.37100
O 	O 	0.61671 0.42033 0.86962 -0.37800
O 	O 	0.81722 0.45780 0.91432 -0.34400
O 	O 	0.49465 0.37806 0.89496 -0.37400
O 	O 	0.46278 0.31718 0.95058 -0.34100
O 	O 	0.68344 0.30422 0.88976 -0.36400
O 	O 	0.62533 0.39250 0.92503 -0.71700
H 	H 	0.61017 0.44091 0.92477 0.16500
C 	C 	0.80143 0.13501 0.52086 0.30400
C 	C 	0.69509 0.38777 0.47298 0.34100
C 	C 	0.94105 0.37561 0.49688 0.35800
C 	C 	0.56884 0.14907 0.49252 0.31500
C 	C 	0.81116 0.46433 0.55375 0.33600
C 	C 	0.65952 0.23738 0.57674 0.32100
Ni	Ni	0.75852 0.25440 0.48386 1.12100
Ni	Ni	0.66209 0.31901 0.52568 1.13800
Ni	Ni	0.82404 0.30505 0.54389 1.12400
O 	O 	0.81104 0.17318 0.49701 -0.33100
O 	O 	0.79751 0.17544 0.54269 -0.36600
O 	O 	0.72705 0.41940 0.55186 -0.35400
O 	O 	0.70514 0.32235 0.46276 -0.33100
O 	O 	0.71907 0.41180 0.49698 -0.35700
O 	O 	0.74529 0.28090 0.57608 -0.37600
O 	O 	0.87834 0.36909 0.48232 -0.34900
O 	O 	0.92466 0.33097 0.51936 -0.35700
O 	O 	0.61382 0.23208 0.55584 -0.36300
O 	O 	0.63614 0.14578 0.48301 -0.35600
O 	O 	0.57406 0.22683 0.49997 -0.33300
O 	O 	0.85711 0.43541 0.54147 -0.37600
O 	O 	0.73560 0.27073 0.51898 -0.71800
H 	H 	0.69752 0.20752 0.52448 0.16900
C 	C 	0.98808 0.81947 0.71922 0.33800
C 	C 	0.92071 0.90194 0.78403 0.30500
C 	C 	0.91165 0.96439 0.67171 0.30700
C 	C 	0.85642 0.06312 0.73327 0.33100
Ni	Ni	0.88299 0.90487 0.72708 1.12200
O 	O 	0.89790 0.89811 0.68806 -0.37900
O 	O 	0.92048 0.81120 0.73172 -0.36500
O 	O 	0.82639 0.98218 0.72249 -0.38700
O 	O 	0.99163 0.90175 0.77646 -0.35900
O 	O 	0.86250 0.89489 0.76667 -0.36100
O 	O 	0.93792 0.04693 0.68031 -0.35600
O 	O 	0.99236 0.00702 0.73288 -0.69200
H 	H 	0.97691 0.03120 0.74821 0.15300
C 	C 	0.62884 0.82137 0.42822 0.33300
C 	C 	0.43376 0.83686 0.45031 0.32000
C 	C 	0.49167 0.53367 0.43125 0.34600
Ni	Ni	0.47964 0.78798 0.39632 1.11700
Ni	Ni	0.46263 0.67926 0.45077 1.12700
O 	O 	0.52761 0.61535 0.44102 -0.37000
O 	O 	0.59579 0.79747 0.40491 -0.37200
O 	O 	0.57871 0.79622 0.44921 -0.36400
O 	O 	0.48517 0.86619 0.42914 -0.35800
C 	C 	0.39056 0.59918 0.02383 0.33000
C 	C 	0.34664 0.79472 0.08661 0.31400
O 	O 	0.36039 0.57574 0.04839 -0.34000
O 	O 	0.36104 0.72541 0.08407 -0.35100
C 	C 	0.88780 0.08392 0.28640 0.31100
C 	C 	0.77302 0.02007 0.21737 0.34700
Ni	Ni	0.95321 0.14522 0.23135 1.11600
Ni	Ni	0.85021 0.93215 0.24925 1.11900
O 	O 	0.94266 0.15469 0.27197 -0.36100
O 	O 	0.82712 0.00968 0.27512 -0.36000
O 	O 	0.91874 0.90582 0.27540 -0.38100
O 	O 	0.82184 0.09320 0.23068 -0.36700
O 	O 	0.77540 0.94493 0.22174 -0.39200
O 	O 	0.95330 0.03623 0.23791 -0.70700
H 	H 	0.98423 0.05172 0.25467 0.15500
C 	C 	0.61942 0.06131 0.17692 -0.11500
C 	C 	0.61065 0.00820 0.15486 0.04400
C 	C 	0.66487 0.97071 0.15182 0.10200
C 	C 	0.72208 0.98042 0.17165 -0.03900
C 	C 	0.72398 0.02486 0.19498 -0.11100
C 	C 	0.67521 0.06897 0.19713 0.20000
C 	C 	0.53554 0.97809 0.13773 -0.01300
O 	O 	0.66010 0.92221 0.12979 -0.26200
H 	H 	0.76259 0.95008 0.16934 0.07100
O 	O 	0.67741 0.11405 0.21966 -0.27300
H 	H 	0.57925 0.09208 0.17911 0.08600
C 	C 	0.45339 0.91729 0.14771 0.12500
C 	C 	0.38798 0.86346 0.13045 -0.03400
C 	C 	0.40417 0.86937 0.10335 -0.11000
C 	C 	0.48247 0.93825 0.09323 0.19800
C 	C 	0.54759 0.99355 0.11048 -0.11600
O 	O 	0.43950 0.90365 0.17431 -0.27300
H 	H 	0.32667 0.81227 0.13828 0.07500
O 	O 	0.49788 0.94672 0.06662 -0.27300
H 	H 	0.60975 0.04283 0.10266 0.10700
H 	H 	0.72200 0.17779 0.21635 0.16000
H 	H 	0.41902 0.94569 0.17987 0.14900
H 	H 	0.47893 0.98949 0.06041 0.16400
H 	H 	0.61711 0.85866 0.13414 0.16300
C 	C 	0.79374 0.06190 0.35413 -0.10500
C 	C 	0.86038 0.06748 0.36979 0.00300
C 	C 	0.94150 0.09658 0.35826 0.13500
C 	C 	0.95234 0.10909 0.33088 -0.02000
C 	C 	0.88291 0.09409 0.31501 -0.11400
C 	C 	0.80477 0.07515 0.32689 0.19800
C 	C 	0.83976 0.02509 0.39639 0.03700
O 	O 	0.00865 0.10710 0.37343 -0.27100
H 	H 	0.01339 0.12576 0.32192 0.04800
O 	O 	0.73887 0.06905 0.31189 -0.27300
H 	H 	0.73138 0.04097 0.36281 0.07500
C 	C 	0.79497 0.04896 0.41464 0.13900
C 	C 	0.73500 0.98266 0.43180 -0.05300
C 	C 	0.71840 0.89306 0.42984 -0.11700
C 	C 	0.78066 0.87781 0.41766 0.20300
C 	C 	0.84025 0.94336 0.40033 -0.12600
O 	O 	0.80643 0.13505 0.41478 -0.26000
H 	H 	0.69315 0.99782 0.44357 0.06600
O 	O 	0.77335 0.79357 0.41881 -0.26700
H 	H 	0.87927 0.92641 0.38780 0.09900
H 	H 	0.70272 0.00376 0.30807 0.16600
H 	H 	0.76031 0.13298 0.40365 0.15400
H 	H 	0.80901 0.79569 0.43389 0.16900
H 	H 	0.03734 0.17112 0.37907 0.16400
C 	C 	0.51710 0.56892 0.32480 -0.03500
O 	O 	0.50544 0.43884 0.30276 -0.26200
H 	H 	0.56524 0.56914 0.33755 0.08700
O 	O 	0.09739 0.79132 0.37569 -0.25800
H 	H 	0.14155 0.85600 0.37388 0.15900
C 	C 	0.45826 0.99424 0.50382 0.06500
C 	C 	0.48472 0.07099 0.48772 -0.07300
C 	C 	0.45102 0.05941 0.46226 0.11900
C 	C 	0.41607 0.97378 0.45052 0.08900
C 	C 	0.41584 0.90194 0.46455 -0.09000
C 	C 	0.42297 0.90847 0.49225 0.11000
Br	Br	0.37593 0.80165 0.51430 -0.16300
Br	Br	0.48164 0.00848 0.54086 -0.17200
Br	Br	0.36724 0.95387 0.41598 -0.19600
Br	Br	0.46360 0.16256 0.44262 -0.15100
C 	C 	0.02826 0.41672 0.48545 -0.11700
Br	Br	0.97519 0.24156 0.46224 -0.17100
C 	C 	0.50686 0.42934 0.46220 0.10600
C 	C 	0.52873 0.47541 0.43798 -0.09900
C 	C 	0.60030 0.48413 0.42381 0.10800
C 	C 	0.65171 0.45038 0.43459 0.11000
C 	C 	0.63588 0.41497 0.46051 -0.10000
C 	C 	0.56481 0.40910 0.47481 0.11700
Br	Br	0.55361 0.39004 0.51245 -0.25600
Br	Br	0.74772 0.45987 0.41470 -0.15900
Br	Br	0.63036 0.54630 0.39037 -0.17300
C 	C 	0.90890 0.02495 0.55122 -0.06400
C 	C 	0.83614 0.95248 0.56285 -0.03000
C 	C 	0.75667 0.92044 0.55037 0.14700
C 	C 	0.74732 0.97384 0.53090 -0.07700
C 	C 	0.81704 0.05843 0.52409 -0.06400
C 	C 	0.89957 0.07700 0.53141 0.17600
C 	C 	0.83874 0.93143 0.59105 0.02500
O 	O 	0.68623 0.84336 0.55941 -0.27000
H 	H 	0.68399 0.95523 0.52381 0.07600
O 	O 	0.96998 0.15447 0.52259 -0.26300
H 	H 	0.97146 0.04747 0.55960 0.07800
C 	C 	0.89643 0.90353 0.59998 0.11100
C 	C 	0.91676 0.90958 0.62677 -0.03200
C 	C 	0.87919 0.94243 0.64472 -0.11900
C 	C 	0.81549 0.96179 0.63616 0.20000
C 	C 	0.79529 0.95590 0.60948 -0.11900
O 	O 	0.93213 0.86953 0.58266 -0.25500
H 	H 	0.96458 0.89287 0.63333 0.07400
O 	O 	0.77261 0.98608 0.65389 -0.30300
H 	H 	0.74943 0.97566 0.60291 0.08600
H 	H 	0.99347 0.13486 0.50792 0.18200
H 	H 	0.80461 0.05318 0.65409 0.18200
H 	H 	0.68468 0.79372 0.54883 0.16500
C 	C 	0.47917 0.16967 0.63795 0.01200
O 	O 	0.48662 0.21239 0.69228 -0.27100
C 	C 	0.49140 0.10133 0.62662 0.12200
C 	C 	0.55969 0.12455 0.60900 -0.02400
C 	C 	0.61518 0.21550 0.60232 -0.11300
C 	C 	0.60870 0.28375 0.61599 0.19600
C 	C 	0.53995 0.26076 0.63334 -0.10600
O 	O 	0.43717 0.01210 0.63285 -0.24200
H 	H 	0.56611 0.07158 0.59925 0.07700
O 	O 	0.66463 0.37314 0.61047 -0.28300
H 	H 	0.53220 0.31384 0.64247 0.08700
H 	H 	0.39283 0.98976 0.61904 0.13700
H 	H 	0.71232 0.39094 0.62298 0.15200
H 	H 	0.49389 0.16243 0.69968 0.15700
C 	C 	0.88461 0.63468 0.66913 -0.11800
C 	C 	0.93553 0.67712 0.64689 0.02400
C 	C 	0.01044 0.76108 0.64933 0.11000
C 	C 	0.03058 0.80515 0.67355 -0.04300
C 	C 	0.97690 0.76509 0.69556 -0.11100
C 	C 	0.90579 0.67754 0.69350 0.19700
C 	C 	0.91152 0.63189 0.62128 0.00100
O 	O 	0.06156 0.80239 0.62776 -0.26600
H 	H 	0.08591 0.87208 0.67492 0.07000
O 	O 	0.85566 0.63483 0.71514 -0.27900
H 	H 	0.82841 0.56846 0.66748 0.07700
C 	C 	0.94546 0.57708 0.61309 0.14000
C 	C 	0.91584 0.52662 0.59014 -0.03100
C 	C 	0.85059 0.52857 0.57548 -0.11000
C 	C 	0.81873 0.58611 0.58320 0.20500
C 	C 	0.84976 0.63798 0.60597 -0.10100
O 	O 	0.00767 0.57269 0.62754 -0.29400
H 	H 	0.94121 0.48304 0.58434 0.06100
O 	O 	0.75919 0.59359 0.56820 -0.26900
H 	H 	0.82448 0.68144 0.61202 0.08800
H 	H 	0.88143 0.60054 0.72317 0.15800
H 	H 	0.97634 0.52211 0.64023 0.15900
H 	H 	0.70291 0.54995 0.57606 0.17300
H 	H 	0.10484 0.78215 0.62772 0.16100
Br	Br	0.00283 0.49301 0.90866 -0.17900
Br	Br	0.52878 0.89361 0.99665 -0.16500
Br	Br	0.65076 0.11024 0.97747 -0.14300
Br	Br	0.49970 0.35558 0.02817 -0.15300
C 	C 	0.69284 0.11800 0.83864 -0.10700
C 	C 	0.66829 0.13028 0.81351 0.01700
C 	C 	0.61055 0.16332 0.81086 0.12000
C 	C 	0.58383 0.19126 0.83315 -0.02700
C 	C 	0.61541 0.18742 0.85804 -0.11800
C 	C 	0.66591 0.14557 0.86089 0.20400
C 	C 	0.70777 0.11429 0.79011 0.00200
O 	O 	0.58001 0.16804 0.78658 -0.26800
H 	H 	0.54301 0.22120 0.83085 0.06300
O 	O 	0.69353 0.13693 0.88528 -0.26200
H 	H 	0.73535 0.09008 0.84083 0.09200
C 	C 	0.77878 0.18681 0.77765 0.12200
C 	C 	0.82440 0.16993 0.75814 -0.03000
C 	C 	0.80023 0.08066 0.75104 -0.12000
C 	C 	0.72619 0.00822 0.76277 0.21300
C 	C 	0.68072 0.02560 0.78217 -0.08600
O 	O 	0.80696 0.27388 0.78568 -0.26400
H 	H 	0.87996 0.22632 0.74906 0.06800
O 	O 	0.70082 0.92029 0.75636 -0.30500
H 	H 	0.62589 0.96961 0.79171 0.06000
H 	H 	0.64882 0.07723 0.89211 0.17200
H 	H 	0.77872 0.29778 0.77390 0.14700
H 	H 	0.65868 0.90538 0.74208 0.15900
H 	H 	0.61914 0.23013 0.77992 0.14900
C 	C 	0.38139 0.43658 0.81879 0.00600
H 	H 	0.34292 0.47515 0.77041 0.08500
C 	C 	0.43900 0.40688 0.81112 0.11800
C 	C 	0.50287 0.41552 0.82833 -0.02900
C 	C 	0.50798 0.45117 0.85346 -0.11400
C 	C 	0.46018 0.49444 0.85924 0.20300
C 	C 	0.39682 0.48702 0.84184 -0.10600
O 	O 	0.42944 0.36427 0.78753 -0.26600
H 	H 	0.54273 0.38634 0.82313 0.06600
O 	O 	0.47549 0.54401 0.88173 -0.28200
H 	H 	0.35574 0.51456 0.84719 0.09300
H 	H 	0.39088 0.29902 0.79131 0.15000
H 	H 	0.43404 0.50184 0.89494 0.18500
C 	C 	0.91912 0.80341 0.90477 -0.10000
C 	C 	0.86185 0.82971 0.89468 0.00200
C 	C 	0.78481 0.80353 0.90853 0.13100
C 	C 	0.75652 0.73374 0.92738 -0.03400
C 	C 	0.80406 0.68945 0.93152 -0.10200
C 	C 	0.89093 0.73518 0.92408 0.19700
C 	C 	0.86931 0.85715 0.86664 0.02600
O 	O 	0.73225 0.83702 0.90122 -0.26700
H 	H 	0.69211 0.70480 0.93534 0.07500
O 	O 	0.94351 0.70220 0.93174 -0.27000
H 	H 	0.98142 0.82785 0.89562 0.08600
C 	C 	0.94057 0.93737 0.85741 0.09000
C 	C 	0.95487 0.95383 0.83027 -0.02900
C 	C 	0.89829 0.89081 0.81224 -0.11700
C 	C 	0.82425 0.81352 0.82148 0.20300
C 	C 	0.81042 0.79660 0.84854 -0.11400
O 	O 	0.76833 0.75128 0.80413 -0.27800
H 	H 	0.75559 0.73444 0.85546 0.09200
H 	H 	0.97151 0.73582 0.94791 0.17700
H 	H 	0.72446 0.76953 0.80087 0.16500
H 	H 	0.74923 0.89078 0.91239 0.16400
Br	Br	0.79043 0.41205 0.00169 -0.22000
C 	C 	0.95059 0.57509 0.99261 0.12300
C 	C 	0.45856 0.42498 0.00928 0.10900
O 	O 	0.75145 0.36242 0.94802 -0.34500
C 	C 	0.89718 0.47901 0.95391 -0.10300
C 	C 	0.53994 0.20131 0.96245 0.34400
C 	C 	0.49519 0.39101 0.96563 0.32600
Ni	Ni	0.66666 0.40430 0.95921 1.12900
O 	O 	0.58250 0.27634 0.97603 -0.32400
O 	O 	0.57806 0.44163 0.96961 -0.35700
O 	O 	0.38065 0.66051 0.01099 -0.35000
C 	C 	0.97850 0.53018 0.94189 0.13700
C 	C 	0.88560 0.49821 0.98037 0.09600
C 	C 	0.40084 0.07377 0.97857 0.12300
C 	C 	0.49036 0.11262 0.97601 -0.10900
C 	C 	0.52840 0.05824 0.98065 0.13000
C 	C 	0.47675 0.96593 0.98772 0.07400
C 	C 	0.38685 0.92675 0.98843 -0.08000
C 	C 	0.45270 0.49548 0.02169 0.10900
C 	C 	0.41241 0.53818 0.00873 -0.09500
C 	C 	0.38719 0.43906 0.97107 0.10100
C 	C 	0.43790 0.40742 0.98259 -0.09300
Br	Br	0.51068 0.54184 0.05454 -0.16200
