data_crystal

_cell_length_a 28.56603
_cell_length_b 26.90804
_cell_length_c 45.57025
_cell_angle_alpha 103.70471
_cell_angle_beta  115.80926
_cell_angle_gamma 112.32256

_symmetry_space_group_name_	'P 1'
_symmetry_space_group_name_H-M	'P 1'

loop_
_symmetry_equiv_pos_as_xyz
  x,y,z

loop_
_atom_site_label
_atom_site_type_symbol
_atom_site_fract_x
_atom_site_fract_y
_atom_site_fract_z
_atom_site_charge
C 	C 	0.38162 0.75692 0.99113 0.05400
C 	C 	0.35663 0.69881 0.98856 -0.08700
H 	H 	0.31533 0.67865 0.98818 0.05700
C 	C 	0.37889 0.75616 0.49022 0.05400
C 	C 	0.35480 0.69843 0.48823 -0.08800
H 	H 	0.31353 0.67799 0.48785 0.05600
Zn	Zn	0.15124 0.12851 0.99204 1.18400
Zn	Zn	0.04762 0.07446 0.90998 1.19200
O 	O 	0.04312 0.97498 0.85366 -0.46100
O 	O 	0.01855 0.04671 0.85612 -0.44600
O 	O 	0.03806 0.89703 0.90229 -0.49700
C 	C 	0.22036 0.10485 0.96807 0.32000
O 	O 	0.98890 0.99047 0.89661 -0.86500
C 	C 	0.15096 0.20901 0.95820 0.33300
O 	O 	0.22563 0.13482 0.99779 -0.46600
O 	O 	0.16475 0.06333 0.93699 -0.35100
O 	O 	0.06661 0.08450 0.96065 -0.78400
O 	O 	0.09227 0.98081 0.95826 -0.44200
O 	O 	0.11324 0.15904 0.92536 -0.45500
O 	O 	0.16773 0.20574 0.98920 -0.46100
Zn	Zn	0.01175 0.00016 0.94514 1.21300
O 	O 	0.03365 0.00879 0.99316 -0.90000
Zn	Zn	0.00834 0.93724 0.87760 1.18600
C 	C 	0.02811 0.00839 0.83961 0.30600
C 	C 	0.08299 0.92951 0.93799 0.33400
H 	H 	0.07885 0.02998 0.01247 0.15500
Zn	Zn	0.15102 0.12802 0.49205 1.18400
Zn	Zn	0.04754 0.07571 0.41019 1.19200
O 	O 	0.04085 0.97518 0.35309 -0.46100
O 	O 	0.01845 0.04849 0.35635 -0.44600
O 	O 	0.03344 0.89596 0.40081 -0.49700
C 	C 	0.21923 0.10312 0.46766 0.32000
O 	O 	0.98742 0.99200 0.39638 -0.86500
C 	C 	0.15243 0.20958 0.45894 0.33300
O 	O 	0.22485 0.13314 0.49751 -0.46700
O 	O 	0.16346 0.06198 0.43660 -0.34900
O 	O 	0.06645 0.08522 0.46077 -0.78500
O 	O 	0.08900 0.97949 0.45712 -0.44200
O 	O 	0.11449 0.15984 0.42599 -0.45600
O 	O 	0.16891 0.20588 0.48980 -0.46200
Zn	Zn	0.01009 0.00105 0.44478 1.21300
O 	O 	0.03170 0.00887 0.49262 -0.90300
Zn	Zn	0.00521 0.93753 0.37672 1.18600
C 	C 	0.02711 0.00954 0.33950 0.30600
C 	C 	0.07865 0.92781 0.43645 0.33300
H 	H 	0.07678 0.02907 0.51180 0.15800
C 	C 	0.08321 0.05176 0.66149 -0.10300
C 	C 	0.04282 0.00127 0.69202 -0.05100
C 	C 	0.02135 0.03495 0.70395 -0.02500
C 	C 	0.01824 0.03729 0.73399 -0.03800
C 	C 	0.03648 0.00596 0.75224 -0.02500
C 	C 	0.03288 0.00792 0.78300 0.04600
C 	C 	0.03032 0.00875 0.80881 -0.12100
H 	H 	0.11383 0.09518 0.68695 0.05200
H 	H 	0.10888 0.09188 0.63108 0.02400
H 	H 	0.00673 0.05894 0.68981 0.03200
H 	H 	0.00150 0.06328 0.74298 0.03800
C 	C 	0.08388 0.05361 0.16200 -0.10300
C 	C 	0.08140 0.05145 0.13038 0.01200
C 	C 	0.04415 0.00304 0.19272 -0.05000
C 	C 	0.06445 0.97370 0.21205 -0.01000
C 	C 	0.06093 0.97612 0.24197 -0.01800
C 	C 	0.03710 0.00783 0.25272 -0.02900
C 	C 	0.03292 0.00963 0.28328 0.04800
C 	C 	0.02988 0.01024 0.30891 -0.12200
H 	H 	0.11342 0.09730 0.18716 0.05200
H 	H 	0.10900 0.09355 0.13136 0.02300
H 	H 	0.08293 0.94910 0.20392 0.03500
H 	H 	0.07662 0.95325 0.25672 0.04100
C 	C 	0.24061 0.37731 0.46666 -0.01400
C 	C 	0.30586 0.41634 0.49074 -0.02700
C 	C 	0.33597 0.47450 0.49414 -0.04900
C 	C 	0.30095 0.49382 0.47346 0.02100
C 	C 	0.23578 0.45447 0.44905 -0.04800
C 	C 	0.20569 0.39636 0.44566 -0.02700
C 	C 	0.33152 0.55484 0.47833 -0.01300
C 	C 	0.35586 0.60566 0.48185 -0.03000
C 	C 	0.20941 0.31810 0.46391 0.05200
C 	C 	0.18321 0.26853 0.46158 -0.11900
H 	H 	0.33320 0.40186 0.50700 0.03700
H 	H 	0.38636 0.50466 0.51307 0.04100
H 	H 	0.20839 0.46909 0.43298 0.04200
H 	H 	0.15527 0.36640 0.42693 0.03600
C 	C 	0.28427 0.83904 0.48697 0.02200
C 	C 	0.29715 0.88844 0.47957 -0.04700
C 	C 	0.25858 0.91060 0.47322 -0.02500
C 	C 	0.20694 0.88340 0.47420 -0.01600
C 	C 	0.19587 0.83598 0.48337 -0.02600
C 	C 	0.23445 0.81384 0.48974 -0.04800
C 	C 	0.16160 0.89918 0.46159 0.05600
C 	C 	0.12407 0.91289 0.45097 -0.13100
C 	C 	0.31849 0.81074 0.48840 -0.01100
C 	C 	0.34678 0.78661 0.48965 -0.02900
H 	H 	0.33581 0.90841 0.47761 0.04500
H 	H 	0.26759 0.94746 0.46629 0.04200
H 	H 	0.15618 0.81487 0.48432 0.03600
H 	H 	0.22443 0.77587 0.49567 0.04300
C 	C 	0.23739 0.37688 0.96565 -0.01400
C 	C 	0.21005 0.41071 0.96349 -0.02700
C 	C 	0.24079 0.46899 0.96723 -0.04800
C 	C 	0.29902 0.49375 0.97315 0.02100
C 	C 	0.32619 0.45974 0.97503 -0.04800
C 	C 	0.29542 0.40140 0.97129 -0.02700
C 	C 	0.33101 0.55433 0.97771 -0.01300
C 	C 	0.35618 0.60518 0.98139 -0.03000
C 	C 	0.20652 0.31756 0.96287 0.05200
C 	C 	0.18082 0.26790 0.96055 -0.11900
H 	H 	0.16522 0.39207 0.95913 0.03600
H 	H 	0.21947 0.49499 0.96570 0.04200
H 	H 	0.37113 0.47851 0.97954 0.04200
H 	H 	0.31684 0.37549 0.97297 0.03800
C 	C 	0.21270 0.88712 0.97705 -0.01600
C 	C 	0.26367 0.91344 0.97538 -0.02500
C 	C 	0.30200 0.89100 0.98159 -0.04700
C 	C 	0.28954 0.84221 0.98955 0.02200
C 	C 	0.24064 0.81815 0.99321 -0.04800
C 	C 	0.20230 0.84057 0.98697 -0.02600
C 	C 	0.32286 0.81304 0.99039 -0.01100
C 	C 	0.35041 0.78820 0.99117 -0.02900
C 	C 	0.16695 0.90231 0.96404 0.05600
C 	C 	0.12904 0.91551 0.95306 -0.13100
H 	H 	0.27221 0.94966 0.96790 0.04200
H 	H 	0.34000 0.91014 0.97898 0.04500
H 	H 	0.23100 0.78071 0.99961 0.04300
H 	H 	0.16317 0.82018 0.98849 0.03600
C 	C 	0.36842 0.16726 0.46281 -0.01300
C 	C 	0.38204 0.12738 0.44793 -0.02800
C 	C 	0.40230 0.22929 0.47263 -0.02700
C 	C 	0.31608 0.14357 0.46477 0.04900
C 	C 	0.27243 0.12467 0.46664 -0.11500
H 	H 	0.35610 0.07938 0.44033 0.03300
H 	H 	0.39206 0.26040 0.48418 0.03800
C 	C 	0.36976 0.16975 0.96347 -0.01300
C 	C 	0.39869 0.22969 0.96892 -0.02700
C 	C 	0.38835 0.13165 0.95296 -0.02800
C 	C 	0.31742 0.14575 0.96541 0.05000
C 	C 	0.27370 0.12670 0.96720 -0.11500
H 	H 	0.38459 0.25942 0.97709 0.03800
H 	H 	0.36625 0.08529 0.94875 0.03300
C 	C 	0.58576 0.26919 0.92519 0.05200
C 	C 	0.60683 0.32502 0.92462 -0.08900
C 	C 	0.65073 0.34525 0.91674 0.05200
C 	C 	0.67320 0.30947 0.90920 -0.08900
C 	C 	0.65238 0.25383 0.90994 0.05100
C 	C 	0.60840 0.23354 0.91773 -0.08900
H 	H 	0.58978 0.35295 0.93076 0.05500
H 	H 	0.70793 0.32559 0.90368 0.05400
H 	H 	0.59276 0.19075 0.91870 0.05300
C 	C 	0.58465 0.27108 0.42508 0.05200
C 	C 	0.60361 0.32625 0.42368 -0.08900
C 	C 	0.64758 0.34764 0.41595 0.05200
C 	C 	0.67223 0.31369 0.40941 -0.08900
C 	C 	0.65352 0.25874 0.41099 0.05100
C 	C 	0.60949 0.23728 0.41863 -0.08900
H 	H 	0.58486 0.35277 0.42904 0.05500
H 	H 	0.70697 0.33072 0.40399 0.05400
H 	H 	0.59545 0.19501 0.42022 0.05300
C 	C 	0.46211 0.75014 0.98834 0.05200
C 	C 	0.43451 0.78270 0.99119 -0.08700
C 	C 	0.38397 0.66604 0.98563 0.05200
C 	C 	0.43686 0.69175 0.98560 -0.08700
H 	H 	0.45349 0.82747 0.99281 0.05700
H 	H 	0.45779 0.66624 0.98303 0.05500
C 	C 	0.46011 0.75035 0.48790 0.05200
C 	C 	0.43172 0.78225 0.49024 -0.08800
C 	C 	0.38294 0.66635 0.48580 0.05200
C 	C 	0.43574 0.69237 0.48573 -0.08800
H 	H 	0.44997 0.82668 0.49137 0.05700
H 	H 	0.45722 0.66732 0.48349 0.05500
Zn	Zn	0.87679 0.89174 0.91297 1.17700
Zn	Zn	0.98549 0.92411 0.98133 1.19000
C 	C 	0.87345 0.79702 0.93739 0.34100
C 	C 	0.84634 0.93181 0.96052 0.33900
O 	O 	0.93184 0.02266 0.93285 -0.48000
Zn	Zn	0.99420 0.03705 0.00867 1.19300
O 	O 	0.93313 0.83616 0.96522 -0.45900
O 	O 	0.84369 0.81019 0.91215 -0.46600
O 	O 	0.82911 0.91486 0.92621 -0.47600
O 	O 	0.90253 0.94816 0.98648 -0.46800
C 	C 	0.03023 0.99469 0.06226 0.33700
O 	O 	0.95611 0.91613 0.92954 -0.79400
C 	C 	0.92893 0.06165 0.95471 0.33900
O 	O 	0.01797 0.94685 0.03618 -0.43300
O 	O 	0.03073 0.04113 0.05723 -0.48800
O 	O 	0.95622 0.07648 0.98993 -0.50200
H 	H 	0.94471 0.97611 0.87952 0.15200
Zn	Zn	0.87430 0.89493 0.41253 1.17700
Zn	Zn	0.98182 0.92412 0.48015 1.19000
C 	C 	0.86769 0.79834 0.43562 0.34100
C 	C 	0.84495 0.93523 0.46066 0.34000
O 	O 	0.93214 0.02618 0.43348 -0.48100
Zn	Zn	0.99356 0.03835 0.50879 1.19500
O 	O 	0.92755 0.83623 0.46338 -0.46000
O 	O 	0.83896 0.81285 0.41090 -0.46600
O 	O 	0.82835 0.91995 0.42656 -0.47600
O 	O 	0.90077 0.95061 0.48649 -0.46800
C 	C 	0.02800 0.99405 0.56149 0.33700
O 	O 	0.95295 0.91720 0.42863 -0.79500
C 	C 	0.93033 0.06566 0.45583 0.34000
O 	O 	0.01448 0.94593 0.53491 -0.43200
O 	O 	0.02973 0.04126 0.55704 -0.48700
O 	O 	0.95737 0.07957 0.49091 -0.50300
H 	H 	0.94350 0.97858 0.37949 0.15200
C 	C 	0.03951 0.99419 0.59632 -0.08800
C 	C 	0.00402 0.93991 0.59541 0.03200
C 	C 	0.00673 0.94189 0.62709 -0.08100
C 	C 	0.04516 0.99807 0.65997 0.08100
C 	C 	0.08043 0.04985 0.62983 0.01200
C 	C 	0.05803 0.97240 0.74041 -0.02000
C 	C 	0.06119 0.97004 0.71039 -0.00900
H 	H 	0.97231 0.89666 0.56976 0.03100
H 	H 	0.97749 0.90011 0.62573 0.05000
H 	H 	0.07224 0.94809 0.75443 0.04100
H 	H 	0.07793 0.94403 0.70143 0.03500
C 	C 	0.04180 0.99539 0.09722 -0.08900
C 	C 	0.00744 0.94106 0.09668 0.03200
C 	C 	0.00988 0.94329 0.12832 -0.08100
C 	C 	0.04690 0.99978 0.16080 0.08100
C 	C 	0.01696 0.03730 0.23352 -0.03000
C 	C 	0.02043 0.03491 0.20359 -0.02900
H 	H 	0.97675 0.89750 0.07131 0.03000
H 	H 	0.98150 0.90141 0.12723 0.04900
H 	H 	0.99844 0.06185 0.24167 0.03000
H 	H 	0.00436 0.05745 0.18871 0.03300
C 	C 	0.60631 0.82260 0.48040 0.02100
C 	C 	0.59539 0.80029 0.44547 -0.04800
C 	C 	0.64446 0.82511 0.44214 -0.02600
C 	C 	0.70473 0.87240 0.47372 -0.01300
C 	C 	0.71569 0.89487 0.50868 -0.02600
C 	C 	0.66655 0.87003 0.51201 -0.04700
C 	C 	0.75553 0.89633 0.47031 0.05600
C 	C 	0.79694 0.91528 0.46645 -0.11800
C 	C 	0.55542 0.79744 0.48363 -0.01200
C 	C 	0.51230 0.77586 0.48583 -0.02900
H 	H 	0.54894 0.76375 0.42090 0.04300
H 	H 	0.63566 0.80738 0.41505 0.03800
H 	H 	0.76219 0.93129 0.53324 0.04000
H 	H 	0.67533 0.88763 0.53910 0.04400
C 	C 	0.61001 0.82451 0.98252 0.02400
C 	C 	0.66491 0.82813 0.00533 -0.05000
C 	C 	0.71442 0.85292 0.00231 -0.02900
C 	C 	0.70920 0.87419 0.97647 -0.01000
C 	C 	0.65465 0.87137 0.95406 -0.02600
C 	C 	0.60519 0.84661 0.95709 -0.04700
C 	C 	0.75812 0.89531 0.97129 0.05600
C 	C 	0.79890 0.91303 0.96683 -0.11700
C 	C 	0.55845 0.79787 0.98503 -0.01200
C 	C 	0.51479 0.77573 0.98670 -0.02900
H 	H 	0.66909 0.81138 0.02516 0.04300
H 	H 	0.75640 0.85484 0.01968 0.03900
H 	H 	0.65022 0.88759 0.93398 0.04000
H 	H 	0.56300 0.84419 0.93947 0.04400
C 	C 	0.74184 0.17217 0.40488 0.02000
C 	C 	0.71595 0.11142 0.39824 -0.05100
C 	C 	0.75182 0.08626 0.40351 -0.02700
C 	C 	0.81369 0.12184 0.41549 -0.02200
C 	C 	0.83801 0.18107 0.41956 -0.02700
C 	C 	0.80215 0.20620 0.41428 -0.05100
C 	C 	0.85465 0.10152 0.42902 0.05200
C 	C 	0.88900 0.08453 0.44036 -0.14200
C 	C 	0.70980 0.20184 0.40652 -0.01500
C 	C 	0.68346 0.22723 0.40798 -0.03200
H 	H 	0.66909 0.08460 0.39058 0.03900
H 	H 	0.73251 0.04023 0.40002 0.03200
H 	H 	0.88565 0.20869 0.42855 0.03100
H 	H 	0.82224 0.25302 0.41909 0.04100
C 	C 	0.71445 0.51335 0.41839 0.02000
C 	C 	0.72178 0.51856 0.39057 -0.04900
C 	C 	0.75064 0.57614 0.39312 -0.02700
C 	C 	0.77226 0.62872 0.42351 -0.01500
C 	C 	0.76343 0.62332 0.45081 -0.02600
C 	C 	0.73457 0.56574 0.44826 -0.04900
C 	C 	0.80577 0.68837 0.42750 0.05400
C 	C 	0.83388 0.73849 0.43103 -0.12100
C 	C 	0.69032 0.45505 0.41762 -0.01300
C 	C 	0.67006 0.40602 0.41673 -0.03100
H 	H 	0.70625 0.47822 0.36737 0.04000
H 	H 	0.75707 0.57995 0.37182 0.03400
H 	H 	0.77980 0.66378 0.47430 0.03800
H 	H 	0.72897 0.56204 0.46985 0.04200
C 	C 	0.42793 0.14902 0.44175 -0.04900
C 	C 	0.46033 0.21062 0.45043 0.02000
C 	C 	0.44816 0.25092 0.46645 -0.04800
C 	C 	0.50413 0.23188 0.44148 -0.01400
C 	C 	0.54084 0.24984 0.43402 -0.03200
H 	H 	0.43741 0.11769 0.42958 0.03900
H 	H 	0.47331 0.29868 0.47344 0.04200
C 	C 	0.80756 0.11214 0.91253 -0.02200
C 	C 	0.82721 0.16670 0.91048 -0.02700
C 	C 	0.79116 0.19164 0.90511 -0.05100
C 	C 	0.73535 0.16206 0.90174 0.02000
C 	C 	0.71342 0.10516 0.90095 -0.05100
C 	C 	0.74947 0.08022 0.90631 -0.02700
C 	C 	0.70529 0.19369 0.90414 -0.01500
C 	C 	0.68041 0.22051 0.90616 -0.03200
C 	C 	0.85068 0.09434 0.92674 0.05300
C 	C 	0.88626 0.07885 0.93861 -0.14200
H 	H 	0.87180 0.19135 0.91491 0.03100
H 	H 	0.80805 0.23533 0.90533 0.04100
H 	H 	0.66995 0.08168 0.89794 0.03900
H 	H 	0.73370 0.03770 0.90752 0.03200
C 	C 	0.78142 0.62800 0.92687 -0.01500
C 	C 	0.75335 0.57482 0.89451 -0.02700
C 	C 	0.72422 0.51720 0.89187 -0.04900
C 	C 	0.72305 0.51257 0.92157 0.02000
C 	C 	0.75011 0.56568 0.95365 -0.04900
C 	C 	0.77925 0.62330 0.95629 -0.02600
C 	C 	0.69713 0.45367 0.91992 -0.01300
C 	C 	0.67535 0.40421 0.91836 -0.03100
C 	C 	0.81377 0.68742 0.93029 0.05400
C 	C 	0.84096 0.73737 0.93339 -0.12100
H 	H 	0.75467 0.57811 0.87161 0.03400
H 	H 	0.70337 0.47630 0.86699 0.04100
H 	H 	0.74936 0.56243 0.97671 0.04200
H 	H 	0.80070 0.66424 0.98134 0.03800
C 	C 	0.44458 0.25078 0.96273 -0.04800
C 	C 	0.46173 0.21203 0.95104 0.02000
C 	C 	0.43427 0.15276 0.94676 -0.04900
C 	C 	0.50545 0.23216 0.94194 -0.01400
C 	C 	0.54209 0.24915 0.93434 -0.03200
H 	H 	0.46589 0.29678 0.96631 0.04200
H 	H 	0.44760 0.12268 0.93795 0.03900
