data_crystal

_cell_length_a 18.76746
_cell_length_b 17.18050
_cell_length_c 45.81456
_cell_angle_alpha 90.49851
_cell_angle_beta  90.91892
_cell_angle_gamma 110.84601

_symmetry_space_group_name_	'P 1'
_symmetry_space_group_name_H-M	'P 1'

loop_
_symmetry_equiv_pos_as_xyz
  x,y,z

loop_
_atom_site_label
_atom_site_type_symbol
_atom_site_fract_x
_atom_site_fract_y
_atom_site_fract_z
_atom_site_charge
Ni	Ni	0.70157 0.35443 0.87816 1.09800
O 	O 	0.61820 0.27037 0.85250 -0.70400
Ni	Ni	0.52458 0.28037 0.86929 1.10100
O 	O 	0.78518 0.32803 0.85645 -0.36000
O 	O 	0.72707 0.18869 0.86449 -0.40300
O 	O 	0.70233 0.43941 0.84686 -0.39000
Ni	Ni	0.61017 0.15513 0.85696 1.06400
O 	O 	0.70429 0.47683 0.93664 -0.40800
O 	O 	0.60117 0.15805 0.90121 -0.41500
O 	O 	0.44902 0.20238 0.84017 -0.37600
O 	O 	0.60740 0.35182 0.89829 -0.70000
O 	O 	0.78174 0.44513 0.90320 -0.37400
O 	O 	0.44079 0.32172 0.88364 -0.37000
O 	O 	0.52355 0.45416 0.88198 -0.42400
Ni	Ni	0.61873 0.46692 0.90755 1.07500
H 	H 	0.62216 0.28570 0.83165 0.15500
H 	H 	0.60505 0.32294 0.91701 0.15500
C 	C 	0.53928 0.15931 0.91363 0.31000
O 	O 	0.69545 0.53975 0.87871 -0.38800
C 	C 	0.77832 0.25022 0.85089 0.25200
C 	C 	0.44820 0.12585 0.83565 0.25600
C 	C 	0.70839 0.51664 0.85254 0.28400
C 	C 	0.45813 0.40076 0.89044 0.30900
C 	C 	0.76867 0.46599 0.93001 0.30700
O 	O 	0.49131 0.18645 0.89954 -0.37200
O 	O 	0.49399 0.09726 0.85114 -0.40000
Ni	Ni	0.66759 0.47926 0.59815 1.10000
O 	O 	0.57859 0.45373 0.62678 -0.69500
Ni	Ni	0.57361 0.33975 0.64052 1.09500
O 	O 	0.64746 0.57123 0.57502 -0.36400
O 	O 	0.52280 0.54702 0.58312 -0.40900
O 	O 	0.74009 0.57378 0.62463 -0.36200
Ni	Ni	0.48146 0.43640 0.60579 1.06600
O 	O 	0.83366 0.47251 0.60666 -0.40800
O 	O 	0.51204 0.37046 0.57422 -0.42700
O 	O 	0.47604 0.31024 0.66438 -0.38100
O 	O 	0.66768 0.37212 0.61498 -0.70400
O 	O 	0.75560 0.49478 0.57115 -0.37600
O 	O 	0.59467 0.23786 0.65672 -0.36300
O 	O 	0.71357 0.32233 0.67167 -0.40500
Ni	Ni	0.76401 0.39368 0.63625 1.06900
H 	H 	0.58848 0.49456 0.64312 0.15800
H 	H 	0.66230 0.33060 0.59919 0.15300
C 	C 	0.51109 0.29455 0.57889 0.29500
O 	O 	0.75506 0.48902 0.66002 -0.41500
C 	C 	0.57949 0.56313 0.56506 0.31400
C 	C 	0.41400 0.31555 0.65212 0.26300
C 	C 	0.77368 0.56281 0.64887 0.27800
C 	C 	0.66196 0.24760 0.66849 0.25300
C 	C 	0.81559 0.47648 0.57877 0.30000
O 	O 	0.51197 0.26712 0.60579 -0.36700
O 	O 	0.41277 0.32936 0.62405 -0.40400
Ni	Ni	0.98788 0.07786 0.72482 1.10600
O 	O 	0.92125 0.98695 0.75233 -0.68500
Ni	Ni	0.00163 0.94103 0.76720 1.09400
O 	O 	0.89921 0.09936 0.70359 -0.35400
O 	O 	0.80838 0.96974 0.70264 -0.40600
O 	O 	0.98658 0.17078 0.75309 -0.37200
Ni	Ni	0.84216 0.89598 0.73127 1.06700
O 	O 	0.13392 0.22494 0.74131 -0.41000
O 	O 	0.92517 0.89837 0.70329 -0.42800
O 	O 	0.93274 0.84620 0.79161 -0.36400
O 	O 	0.06698 0.03968 0.74350 -0.70400
O 	O 	0.06347 0.16773 0.70030 -0.36600
O 	O 	0.09763 0.92319 0.78406 -0.35800
O 	O 	0.14110 0.05548 0.80217 -0.41500
Ni	Ni	0.13214 0.13199 0.76885 1.07000
H 	H 	0.89913 0.00859 0.76855 0.15700
H 	H 	0.09714 0.02356 0.72865 0.16200
C 	C 	0.96425 0.85062 0.70845 0.34200
O 	O 	0.04707 0.14480 0.79303 -0.41800
C 	C 	0.82727 0.05059 0.70558 0.31200
C 	C 	0.86720 0.79512 0.78094 0.31300
C 	C 	0.99257 0.16578 0.78144 0.33700
C 	C 	0.15247 0.98627 0.79648 0.31000
C 	C 	0.12931 0.21332 0.71277 0.31500
O 	O 	0.00055 0.85703 0.73388 -0.38500
O 	O 	0.85107 0.79590 0.75287 -0.42100
Ni	Ni	0.20335 0.75010 0.37652 1.09800
O 	O 	0.27895 0.83862 0.35117 -0.70400
Ni	Ni	0.37796 0.83831 0.36725 1.10100
O 	O 	0.11197 0.76700 0.35565 -0.36300
O 	O 	0.16210 0.90832 0.36295 -0.40300
O 	O 	0.20507 0.66622 0.34458 -0.39100
Ni	Ni	0.27952 0.95124 0.35668 1.06400
O 	O 	0.22139 0.63512 0.43328 -0.41500
O 	O 	0.29454 0.95095 0.40098 -0.41500
O 	O 	0.44468 0.91905 0.33835 -0.38000
O 	O 	0.30274 0.76250 0.39597 -0.70200
O 	O 	0.13230 0.65538 0.40132 -0.38100
O 	O 	0.46984 0.80761 0.38063 -0.36800
O 	O 	0.39578 0.67219 0.37698 -0.42500
Ni	Ni	0.30324 0.65106 0.40348 1.07600
H 	H 	0.27347 0.82273 0.33020 0.15600
H 	H 	0.30556 0.79105 0.41502 0.15700
C 	C 	0.36047 0.95709 0.41279 0.30600
O 	O 	0.22555 0.57108 0.37513 -0.39200
C 	C 	0.11415 0.84252 0.34902 0.26000
C 	C 	0.44315 0.99504 0.33610 0.26300
C 	C 	0.20276 0.59024 0.34985 0.28700
C 	C 	0.45981 0.72950 0.38585 0.30800
C 	C 	0.15203 0.63481 0.42732 0.31400
O 	O 	0.40921 0.93335 0.39817 -0.37200
O 	O 	0.39385 0.01838 0.35118 -0.40100
Ni	Ni	0.19302 0.67582 0.14076 1.10000
O 	O 	0.27540 0.75895 0.11653 -0.70300
Ni	Ni	0.33450 0.68871 0.10347 1.10000
O 	O 	0.14728 0.76408 0.15084 -0.36400
O 	O 	0.26195 0.85277 0.16911 -0.40600
O 	O 	0.12982 0.65091 0.10243 -0.38400
Ni	Ni	0.34259 0.85627 0.13780 1.06700
O 	O 	0.15121 0.48117 0.15907 -0.41700
O 	O 	0.38271 0.78785 0.16525 -0.41200
O 	O 	0.40378 0.77290 0.07602 -0.37500
O 	O 	0.26299 0.61283 0.13280 -0.70300
O 	O 	0.10519 0.58918 0.16243 -0.36800
O 	O 	0.36539 0.59580 0.08578 -0.38200
O 	O 	0.24187 0.51201 0.07722 -0.41700
Ni	Ni	0.20198 0.49956 0.11975 1.06800
H 	H 	0.25310 0.77692 0.09929 0.15600
H 	H 	0.29117 0.61063 0.15104 0.15800
C 	C 	0.43503 0.75882 0.15700 0.27300
O 	O 	0.10485 0.51154 0.10331 -0.40200
C 	C 	0.18917 0.83619 0.16274 0.25500
C 	C 	0.42373 0.85292 0.08239 0.29800
C 	C 	0.10461 0.57754 0.08940 0.31100
C 	C 	0.31459 0.53479 0.07099 0.29400
C 	C 	0.09616 0.50954 0.16529 0.27900
O 	O 	0.42695 0.71671 0.13220 -0.36300
O 	O 	0.43206 0.87953 0.10994 -0.40800
Ni	Ni	0.86812 0.01148 0.23099 1.10100
O 	O 	0.95023 0.09991 0.25647 -0.69100
Ni	Ni	0.88258 0.15186 0.27729 1.09900
O 	O 	0.94112 0.98744 0.20257 -0.35400
O 	O 	0.04160 0.10957 0.20235 -0.39900
O 	O 	0.87799 0.91669 0.25601 -0.37300
Ni	Ni	0.02230 0.18802 0.23336 1.06400
O 	O 	0.72344 0.86956 0.25153 -0.39300
O 	O 	0.92950 0.18943 0.21053 -0.43400
O 	O 	0.96581 0.24539 0.29922 -0.37700
O 	O 	0.80284 0.05525 0.25529 -0.70400
O 	O 	0.77948 0.92488 0.20875 -0.37000
O 	O 	0.79983 0.17832 0.29992 -0.35800
O 	O 	0.75104 0.04552 0.31593 -0.40700
Ni	Ni	0.74513 0.96489 0.28130 1.07700
H 	H 	0.97742 0.07661 0.27058 0.15300
H 	H 	0.76889 0.07388 0.24267 0.17700
C 	C 	0.89599 0.23996 0.21935 0.32800
O 	O 	0.83743 0.94645 0.29982 -0.39500
C 	C 	0.01503 0.02799 0.20353 0.29800
C 	C 	0.02475 0.29603 0.28545 0.30400
C 	C 	0.88350 0.92055 0.28460 0.30900
C 	C 	0.74375 0.11759 0.31149 0.31600
C 	C 	0.71820 0.88065 0.22315 0.30900
O 	O 	0.87169 0.23527 0.24644 -0.36500
O 	O 	0.02722 0.29163 0.25683 -0.42100
C 	C 	0.02507 0.45240 0.17724 -0.03500
C 	C 	0.00758 0.45970 0.20651 -0.05600
C 	C 	0.95045 0.39404 0.21964 0.05400
C 	C 	0.91397 0.31928 0.20392 -0.14900
C 	C 	0.92102 0.31938 0.17336 0.19900
C 	C 	0.97775 0.38536 0.16015 -0.08700
H 	H 	0.94136 0.39745 0.24283 0.04300
H 	H 	0.98751 0.38228 0.13698 0.07200
H 	H 	0.04137 0.51351 0.21954 0.05000
O 	O 	0.87545 0.25304 0.15670 -0.29000
H 	H 	0.90543 0.21628 0.15406 0.15500
C 	C 	0.50592 0.77792 0.17491 -0.02400
C 	C 	0.57507 0.78560 0.16163 -0.04500
C 	C 	0.64391 0.81597 0.17768 0.03600
C 	C 	0.64458 0.83893 0.20724 -0.14800
C 	C 	0.57471 0.82744 0.22094 0.19800
C 	C 	0.50603 0.79706 0.20478 -0.10600
H 	H 	0.69683 0.82310 0.16694 0.04300
H 	H 	0.45300 0.79033 0.21538 0.07100
H 	H 	0.57595 0.77089 0.13863 0.06200
O 	O 	0.57373 0.85067 0.24962 -0.33100
H 	H 	0.56626 0.79949 0.26093 0.15000
C 	C 	0.15083 0.88869 0.17538 -0.02400
C 	C 	0.09412 0.85598 0.19607 -0.04100
C 	C 	0.05174 0.90288 0.20589 0.02600
C 	C 	0.06503 0.98267 0.19487 -0.14800
C 	C 	0.12316 0.01613 0.17436 0.20000
C 	C 	0.16669 0.96952 0.16520 -0.10900
H 	H 	0.00745 0.87653 0.22165 0.03300
H 	H 	0.21071 0.99500 0.14926 0.05000
H 	H 	0.08212 0.79366 0.20421 0.05000
O 	O 	0.13653 0.09342 0.16286 -0.29900
H 	H 	0.10341 0.08337 0.14509 0.14900
C 	C 	0.51267 0.05988 0.32620 -0.02100
C 	C 	0.56563 0.10866 0.34711 -0.04200
C 	C 	0.64331 0.13995 0.34084 0.04000
C 	C 	0.66798 0.12340 0.31356 -0.14900
C 	C 	0.61361 0.08828 0.29107 0.18700
C 	C 	0.53594 0.05656 0.29748 -0.10000
H 	H 	0.68456 0.16957 0.35806 0.03400
H 	H 	0.49478 0.02248 0.28080 0.06200
H 	H 	0.54771 0.11441 0.36914 0.05900
O 	O 	0.63655 0.07992 0.26332 -0.29300
H 	H 	0.63877 0.02314 0.26230 0.10100
C 	C 	0.16274 0.52214 0.32910 -0.02900
C 	C 	0.08913 0.51222 0.31879 -0.03500
C 	C 	0.04415 0.43821 0.30456 0.01600
C 	C 	0.07256 0.37374 0.30027 -0.13900
C 	C 	0.14748 0.38496 0.30936 0.19000
C 	C 	0.19240 0.45911 0.32365 -0.09600
H 	H 	0.98683 0.43053 0.29723 0.05000
H 	H 	0.24943 0.46653 0.33130 0.06700
H 	H 	0.06551 0.56026 0.32294 0.05200
O 	O 	0.17711 0.32389 0.30416 -0.31600
H 	H 	0.16472 0.28806 0.32160 0.14100
C 	C 	0.05312 0.85266 0.33062 -0.05100
C 	C 	0.07199 0.90134 0.30551 -0.03600
C 	C 	0.01600 0.92107 0.29003 -0.00200
C 	C 	0.94059 0.89331 0.29971 -0.12200
C 	C 	0.92082 0.84156 0.32427 0.18700
C 	C 	0.97719 0.82160 0.33967 -0.06800
H 	H 	0.03179 0.96010 0.27102 0.01100
H 	H 	0.96217 0.78388 0.35903 0.07600
H 	H 	0.13045 0.92540 0.29833 0.01300
O 	O 	0.84700 0.81182 0.33359 -0.28200
H 	H 	0.82252 0.75785 0.32310 0.15200
C 	C 	0.49179 0.23595 0.55488 -0.10600
C 	C 	0.47364 0.18865 0.53417 0.05700
C 	C 	0.45070 0.13544 0.50937 -0.01700
C 	C 	0.43023 0.09184 0.48780 -0.01800
C 	C 	0.40569 0.04283 0.46209 0.06000
C 	C 	0.38478 0.00273 0.43978 -0.10900
C 	C 	0.09554 0.60430 0.44903 -0.11800
C 	C 	0.05245 0.57895 0.46878 0.07500
C 	C 	0.00536 0.55076 0.49290 -0.04900
C 	C 	0.96570 0.52878 0.51379 0.01600
C 	C 	0.91775 0.50629 0.53791 0.05200
C 	C 	0.87345 0.49048 0.55755 -0.09900
C 	C 	0.57253 0.59634 0.53699 -0.10700
C 	C 	0.56549 0.62216 0.51316 0.06000
C 	C 	0.55450 0.65003 0.48516 -0.01500
C 	C 	0.54140 0.67178 0.46137 -0.02800
C 	C 	0.52044 0.69471 0.43396 0.06100
C 	C 	0.49654 0.71199 0.41131 -0.14600
C 	C 	0.67704 0.17715 0.68161 -0.02600
C 	C 	0.68308 0.11391 0.66337 -0.05500
C 	C 	0.72896 0.06891 0.67192 0.03300
C 	C 	0.76845 0.08640 0.69891 -0.14700
C 	C 	0.75494 0.14244 0.71862 0.18800
C 	C 	0.70830 0.18663 0.71009 -0.10100
H 	H 	0.73727 0.02398 0.65690 0.03400
H 	H 	0.70200 0.23365 0.72469 0.06700
H 	H 	0.65794 0.10474 0.64157 0.04400
O 	O 	0.79110 0.15815 0.74545 -0.29500
H 	H 	0.75596 0.11779 0.75879 0.12700
C 	C 	0.34143 0.28990 0.66805 -0.02500
C 	C 	0.33111 0.24046 0.69296 -0.05200
C 	C 	0.26092 0.21348 0.70694 0.03700
C 	C 	0.20023 0.23567 0.69621 -0.16800
C 	C 	0.21030 0.28505 0.67127 0.20600
C 	C 	0.28060 0.31199 0.65729 -0.10800
H 	H 	0.25370 0.17544 0.72620 -0.02500
H 	H 	0.28792 0.35048 0.63815 0.05700
H 	H 	0.37701 0.22217 0.70137 0.05200
O 	O 	0.15158 0.30693 0.66044 -0.29000
H 	H 	0.15746 0.36058 0.67028 0.14600
C 	C 	0.83512 0.63364 0.66300 -0.02800
C 	C 	0.85791 0.62801 0.69205 -0.05000
C 	C 	0.91298 0.69649 0.70589 0.03500
C 	C 	0.94324 0.77241 0.69132 -0.15200
C 	C 	0.92905 0.77400 0.66106 0.19700
C 	C 	0.87390 0.70539 0.64713 -0.09800
H 	H 	0.92636 0.69292 0.72879 0.04200
H 	H 	0.86063 0.70864 0.62417 0.08700
H 	H 	0.83111 0.57173 0.70427 0.05000
O 	O 	0.96369 0.84535 0.64573 -0.27500
H 	H 	0.01100 0.83993 0.63822 0.13600
C 	C 	0.05863 0.56625 0.06320 -0.09800
C 	C 	0.01904 0.55424 0.04138 0.04000
C 	C 	0.97111 0.53786 0.01619 0.01000
C 	C 	0.92847 0.52245 0.99518 -0.02200
C 	C 	0.87601 0.50321 0.97131 0.06900
C 	C 	0.82865 0.48628 0.95183 -0.10300
C 	C 	0.44629 0.91181 0.05933 -0.11900
C 	C 	0.46219 0.95783 0.03886 0.06200
C 	C 	0.47833 0.00761 0.01381 -0.02200
C 	C 	0.49113 0.04680 0.99164 -0.01800
C 	C 	0.50611 0.08904 0.96494 0.06100
C 	C 	0.52009 0.12242 0.94166 -0.11300
C 	C 	0.42619 0.42078 0.91631 -0.14800
C 	C 	0.40415 0.43730 0.93924 0.06200
C 	C 	0.38274 0.45652 0.96691 -0.03000
C 	C 	0.36685 0.47319 0.99092 -0.01500
C 	C 	0.34962 0.49339 0.01915 0.05700
C 	C 	0.33452 0.51160 0.04308 -0.10700
C 	C 	0.83831 0.23316 0.83474 -0.02000
C 	C 	0.87191 0.28202 0.81079 -0.05100
C 	C 	0.92340 0.26079 0.79370 0.04900
C 	C 	0.94187 0.19060 0.80043 -0.15900
C 	C 	0.90978 0.14282 0.82492 0.20300
C 	C 	0.85828 0.16423 0.84195 -0.11200
H 	H 	0.94826 0.29831 0.77502 0.04200
H 	H 	0.83316 0.12654 0.86057 0.07500
H 	H 	0.85664 0.33514 0.80497 0.05500
O 	O 	0.92527 0.07245 0.83122 -0.31700
H 	H 	0.96887 0.09095 0.84535 0.16400
C 	C 	0.37980 0.06496 0.82146 -0.01800
C 	C 	0.36069 0.07632 0.79253 -0.05400
C 	C 	0.28650 0.03447 0.78172 0.02600
C 	C 	0.22987 0.98509 0.80033 -0.15100
C 	C 	0.25205 0.96381 0.82771 0.20400
C 	C 	0.32712 0.00367 0.83820 -0.10100
H 	H 	0.27080 0.04880 0.76011 -0.00100
H 	H 	0.34245 0.99174 0.86018 0.08100
H 	H 	0.40172 0.12135 0.77902 0.03500
O 	O 	0.19926 0.90862 0.84507 -0.28700
H 	H 	0.17839 0.94309 0.85730 0.15500
C 	C 	0.74514 0.58155 0.83124 -0.02300
C 	C 	0.71065 0.63863 0.82313 -0.04600
C 	C 	0.75011 0.70743 0.80618 0.02800
C 	C 	0.82493 0.72069 0.79769 -0.14500
C 	C 	0.85897 0.66235 0.80519 0.20200
C 	C 	0.81893 0.59297 0.82186 -0.09700
H 	H 	0.72310 0.75141 0.80021 0.00700
H 	H 	0.84621 0.54956 0.82825 0.08100
H 	H 	0.65378 0.63046 0.83036 0.04200
O 	O 	0.93219 0.67450 0.79712 -0.27300
H 	H 	0.92697 0.64300 0.77849 0.15000
