data_crystal

_cell_length_a 19.91534
_cell_length_b 17.58896
_cell_length_c 49.66025
_cell_angle_alpha 90.71156
_cell_angle_beta  90.80549
_cell_angle_gamma 112.90397

_symmetry_space_group_name_	'P 1'
_symmetry_space_group_name_H-M	'P 1'

loop_
_symmetry_equiv_pos_as_xyz
  x,y,z

loop_
_atom_site_label
_atom_site_type_symbol
_atom_site_fract_x
_atom_site_fract_y
_atom_site_fract_z
_atom_site_charge
C 	C 	0.08519 0.53714 0.01002 -0.00200
F 	F 	0.19738 0.51747 0.00914 -0.31300
F 	F 	0.97342 0.55810 0.01197 -0.33600
C 	C 	0.50068 0.05682 0.00711 0.00300
F 	F 	0.47617 0.88822 0.01355 -0.32400
C 	C 	0.60847 0.55626 0.01356 0.23400
C 	C 	0.55388 0.58816 0.01274 0.00700
C 	C 	0.57666 0.09327 0.00412 0.23800
C 	C 	0.03410 0.55725 0.02457 0.21800
C 	C 	0.14744 0.53595 0.02313 0.23900
C 	C 	0.46939 0.01153 0.03184 0.00700
F 	F 	0.62174 0.08307 0.02321 -0.32800
C 	C 	0.45735 0.92768 0.03394 0.23400
F 	F 	0.40937 0.48083 0.02376 -0.32000
C 	C 	0.51731 0.59566 0.03776 0.00200
C 	C 	0.44535 0.54100 0.04225 0.24400
F 	F 	0.63261 0.53937 0.03756 -0.32900
C 	C 	0.15786 0.55298 0.05076 0.31900
C 	C 	0.04433 0.57398 0.05218 0.32500
C 	C 	0.42556 0.88426 0.05704 0.32000
C 	C 	0.44916 0.05159 0.05293 0.23100
F 	F 	0.41399 0.80312 0.05877 -0.37400
F 	F 	0.46070 0.13268 0.05110 -0.33300
C 	C 	0.55471 0.65621 0.05732 0.24300
F 	F 	0.62457 0.70887 0.05326 -0.32600
C 	C 	0.10549 0.57047 0.06547 -0.23700
F 	F 	0.99391 0.59165 0.06616 -0.35400
F 	F 	0.21921 0.55365 0.06320 -0.44000
C 	C 	0.41009 0.54837 0.06571 0.31900
F 	F 	0.33963 0.49667 0.06916 -0.36400
C 	C 	0.40541 0.92438 0.07823 -0.20700
C 	C 	0.41744 0.00840 0.07603 0.32200
C 	C 	0.52016 0.66285 0.08107 0.32200
C 	C 	0.44689 0.61006 0.08522 -0.19300
O 	O 	0.12075 0.65846 0.10423 -0.34300
H 	H 	0.28915 0.70760 0.09575 0.21800
C 	C 	0.11568 0.58668 0.09452 0.40700
C 	C 	0.37685 0.88024 0.10340 0.38800
F 	F 	0.40050 0.04886 0.09661 -0.38100
F 	F 	0.55811 0.72011 0.10012 -0.36100
O 	O 	0.27936 0.68618 0.11424 -0.69300
O 	O 	0.41184 0.83920 0.11501 -0.33400
Ni	Ni	0.24606 0.56502 0.11450 1.12000
O 	O 	0.32666 0.89563 0.11649 -0.37900
C 	C 	0.40688 0.62392 0.10857 0.38600
O 	O 	0.13809 0.53953 0.10938 -0.37100
Ni	Ni	0.20157 0.71624 0.13189 1.10400
O 	O 	0.43273 0.69467 0.12188 -0.31500
O 	O 	0.34943 0.56312 0.11745 -0.34900
Ni	Ni	0.36521 0.74144 0.14056 1.10200
O 	O 	0.43269 0.92149 0.16138 -0.37900
O 	O 	0.23949 0.56281 0.15547 -0.40600
O 	O 	0.28766 0.77101 0.15818 -0.70400
O 	O 	0.13547 0.76539 0.15047 -0.34100
O 	O 	0.22050 0.89670 0.15416 -0.37200
Ni	Ni	0.32298 0.89232 0.15743 1.07300
O 	O 	0.44518 0.79940 0.16820 -0.36800
C 	C 	0.18393 0.57017 0.16741 0.28400
C 	C 	0.16100 0.83807 0.16275 0.26900
C 	C 	0.46217 0.87741 0.17482 0.28000
O 	O 	0.15338 0.61829 0.15733 -0.35800
H 	H 	0.19099 0.42148 0.17730 0.05700
H 	H 	0.56977 0.82419 0.18589 0.07100
C 	C 	0.03652 0.82029 0.17791 -0.00500
H 	H 	0.01258 0.77087 0.16313 0.07400
H 	H 	0.27798 0.74982 0.17671 0.15400
C 	C 	0.14436 0.50983 0.18809 -0.06300
C 	C 	0.15085 0.43308 0.18935 -0.01300
H 	H 	0.14907 0.28097 0.19440 0.05600
C 	C 	0.52896 0.92071 0.19108 -0.06000
C 	C 	0.58020 0.88474 0.19457 -0.00300
H 	H 	0.68590 0.83030 0.20410 0.05800
C 	C 	0.99088 0.84458 0.19390 -0.02000
C 	C 	0.11268 0.86093 0.18053 -0.05200
H 	H 	0.93227 0.81333 0.19139 0.05900
C 	C 	0.10302 0.36985 0.20514 0.01300
C 	C 	0.10765 0.29232 0.20572 -0.03400
C 	C 	0.69673 0.89155 0.21220 -0.02100
C 	C 	0.64554 0.92741 0.20874 0.00200
C 	C 	0.54290 0.99917 0.20237 0.00900
H 	H 	0.50324 0.02694 0.20013 0.03900
C 	C 	0.14287 0.92471 0.19988 -0.02300
H 	H 	0.20163 0.95522 0.20229 0.02900
H 	H 	0.91981 0.07737 0.22002 0.05900
C 	C 	0.09283 0.52453 0.20414 0.01000
C 	C 	0.05872 0.22893 0.22085 -0.03200
H 	H 	0.08843 0.58400 0.20387 0.04300
H 	H 	0.06312 0.16964 0.22107 0.04700
C 	C 	0.76159 0.93408 0.22649 -0.04700
C 	C 	0.66001 0.00700 0.21962 0.04800
C 	C 	0.60818 0.04219 0.21652 -0.05600
H 	H 	0.79936 0.90455 0.23002 0.04800
C 	C 	0.09725 0.94965 0.21590 0.01200
C 	C 	0.02076 0.90988 0.21268 0.00500
C 	C 	0.04501 0.46171 0.21983 -0.05300
C 	C 	0.04861 0.38363 0.21996 0.02300
C 	C 	0.77627 0.01306 0.23723 0.03400
C 	C 	0.72587 0.04989 0.23358 -0.06800
C 	C 	0.12708 0.01516 0.23463 -0.03800
C 	C 	0.97521 0.93738 0.22776 -0.03500
H 	H 	0.91661 0.90760 0.22514 0.04600
C 	C 	0.91885 0.08541 0.24224 -0.04700
C 	C 	0.00439 0.24200 0.23562 -0.00000
C 	C 	0.99819 0.31889 0.23453 -0.03500
H 	H 	0.00459 0.47358 0.23161 0.05000
H 	H 	0.95471 0.32836 0.24510 0.05100
H 	H 	0.73736 0.11093 0.24208 0.05800
H 	H 	0.61842 0.10284 0.22502 0.05700
C 	C 	0.00537 0.00471 0.24574 -0.00200
C 	C 	0.08139 0.04282 0.24935 -0.03500
H 	H 	0.18566 0.04590 0.23736 0.04200
C 	C 	0.95743 0.04038 0.25875 0.00900
C 	C 	0.95484 0.17519 0.25273 0.01500
C 	C 	0.84209 0.05464 0.25403 -0.00400
H 	H 	0.10511 0.09570 0.26289 0.04000
C 	C 	0.91442 0.10358 0.29552 -0.02800
C 	C 	0.95490 0.04950 0.28617 -0.01600
C 	C 	0.95202 0.18416 0.28015 -0.02200
C 	C 	0.83978 0.06338 0.28136 -0.01000
C 	C 	0.77074 0.03253 0.29649 0.03600
C 	C 	0.72790 0.94744 0.29729 -0.07100
H 	H 	0.63358 0.79005 0.30057 0.05900
H 	H 	0.74655 0.90390 0.28753 0.05700
H 	H 	0.09607 0.27206 0.28858 0.05600
H 	H 	0.94058 0.89152 0.29348 0.05800
C 	C 	0.61673 0.83421 0.31086 -0.05900
C 	C 	0.66075 0.91887 0.31051 0.04700
C 	C 	0.74714 0.08865 0.30948 -0.04500
H 	H 	0.51774 0.74047 0.32478 0.04900
H 	H 	0.77962 0.15418 0.30884 0.05100
C 	C 	0.17045 0.40915 0.31742 -0.06900
C 	C 	0.09470 0.37356 0.31324 0.05400
C 	C 	0.94287 0.30196 0.30576 -0.05700
C 	C 	0.98647 0.26421 0.29445 0.05000
C 	C 	0.06246 0.30097 0.29766 -0.09100
H 	H 	0.20530 0.38425 0.30714 0.05500
H 	H 	0.88441 0.27535 0.30246 0.05300
C 	C 	0.99637 0.01974 0.30532 0.04700
C 	C 	0.98348 0.93542 0.30608 -0.06500
H 	H 	0.97436 0.77996 0.31017 0.06600
H 	H 	0.91254 0.11130 0.31772 0.05500
C 	C 	0.55088 0.80602 0.32465 0.01500
C 	C 	0.63745 0.97582 0.32361 0.00100
C 	C 	0.68099 0.06059 0.32298 -0.01900
C 	C 	0.01712 0.82474 0.32254 -0.07100
C 	C 	0.02738 0.90836 0.32252 0.04200
C 	C 	0.05071 0.07636 0.32202 -0.05900
H 	H 	0.06055 0.14138 0.32163 0.05300
C 	C 	0.52829 0.86208 0.33842 -0.05900
C 	C 	0.57131 0.94728 0.33743 -0.00600
H 	H 	0.66358 0.10486 0.33290 0.05600
C 	C 	0.20120 0.47462 0.33586 0.01500
C 	C 	0.05021 0.40881 0.32594 -0.01700
C 	C 	0.97451 0.37392 0.32145 -0.00600
H 	H 	0.25949 0.49932 0.33982 0.03700
C 	C 	0.06284 0.79880 0.33824 0.01800
C 	C 	0.08325 0.96604 0.33881 -0.00200
H 	H 	0.05522 0.73435 0.33771 0.04400
H 	H 	0.27242 0.71882 0.35862 0.15000
C 	C 	0.46175 0.83139 0.35504 0.27800
H 	H 	0.55416 0.99112 0.34780 0.06100
C 	C 	0.15646 0.50483 0.35039 -0.07400
C 	C 	0.08155 0.47517 0.34420 -0.00200
H 	H 	0.04709 0.49980 0.35490 0.06300
H 	H 	0.94001 0.40147 0.33058 0.05400
C 	C 	0.11915 0.85611 0.35414 -0.06100
C 	C 	0.12852 0.93956 0.35467 -0.00600
C 	C 	0.09389 0.04972 0.33870 -0.01600
H 	H 	0.13630 0.09437 0.35124 0.05400
O 	O 	0.28836 0.74853 0.37610 -0.70200
O 	O 	0.14325 0.75844 0.38207 -0.33200
O 	O 	0.23435 0.88479 0.37651 -0.38100
Ni	Ni	0.33153 0.86880 0.37130 1.06800
O 	O 	0.43973 0.75590 0.36453 -0.36100
C 	C 	0.16965 0.82940 0.36962 0.27400
C 	C 	0.18565 0.55600 0.37478 0.27800
O 	O 	0.43852 0.88582 0.36590 -0.38500
H 	H 	0.17110 0.98379 0.36729 0.06400
Ni	Ni	0.36503 0.71849 0.39437 1.10200
O 	O 	0.15370 0.60401 0.38382 -0.36000
O 	O 	0.23224 0.53965 0.39012 -0.39600
Ni	Ni	0.20802 0.71449 0.40424 1.11100
O 	O 	0.34907 0.89700 0.41150 -0.37400
O 	O 	0.28584 0.68682 0.42328 -0.69400
O 	O 	0.43087 0.67273 0.41495 -0.33100
O 	O 	0.34256 0.55448 0.42934 -0.36900
Ni	Ni	0.24363 0.56743 0.43009 1.10100
C 	C 	0.39118 0.87145 0.42603 0.39300
O 	O 	0.42288 0.82654 0.41498 -0.34000
F 	F 	0.51331 0.55141 0.43241 -0.36700
O 	O 	0.13676 0.55017 0.43426 -0.36800
O 	O 	0.13170 0.67755 0.43374 -0.31700
H 	H 	0.30185 0.71835 0.44043 0.21900
C 	C 	0.40441 0.61748 0.43359 0.40400
F 	F 	0.98125 0.62699 0.44313 -0.36300
C 	C 	0.11599 0.60581 0.44534 0.39600
F 	F 	0.53325 0.93409 0.44926 -0.36100
C 	C 	0.40482 0.89530 0.45459 -0.21500
C 	C 	0.99661 0.59177 0.46529 0.33400
C 	C 	0.49660 0.57694 0.45638 0.33000
C 	C 	0.44909 0.61840 0.45724 -0.21800
C 	C 	0.47613 0.92455 0.46539 0.32900
C 	C 	0.34615 0.88549 0.47148 0.31700
F 	F 	0.27673 0.85462 0.46143 -0.40100
C 	C 	0.06293 0.58106 0.46744 -0.21100
C 	C 	0.07731 0.54305 0.49032 0.32000
C 	C 	0.94503 0.56398 0.48570 0.23000
F 	F 	0.88083 0.57360 0.48322 -0.32500
C 	C 	0.52335 0.55736 0.48035 0.23400
C 	C 	0.43434 0.64731 0.48200 0.31800
F 	F 	0.56697 0.51428 0.47946 -0.32500
F 	F 	0.39117 0.69096 0.48286 -0.39800
C 	C 	0.35890 0.90663 0.49880 0.24000
C 	C 	0.48886 0.94640 0.49267 0.23700
F 	F 	0.55824 0.97769 0.50275 -0.32400
C 	C 	0.95937 0.52549 0.50847 0.01500
F 	F 	0.14142 0.53322 0.49285 -0.38800
C 	C 	0.50141 0.57776 0.50525 0.00700
F 	F 	0.43150 0.40623 0.51304 -0.33300
C 	C 	0.43041 0.93882 0.50937 0.00700
F 	F 	0.30197 0.89774 0.51495 -0.33200
F 	F 	0.87198 0.35563 0.51511 -0.33200
C 	C 	0.02593 0.51567 0.51074 0.22300
C 	C 	0.45977 0.62636 0.50597 0.23500
F 	F 	0.41885 0.08936 0.52245 -0.32700
C 	C 	0.90481 0.49568 0.53006 -0.00100
C 	C 	0.86479 0.41062 0.53309 0.23800
C 	C 	0.51279 0.53867 0.53000 -0.00200
C 	C 	0.47577 0.45327 0.53313 0.23700
C 	C 	0.44482 0.97412 0.53683 0.00300
C 	C 	0.43978 0.05012 0.54224 0.23300
F 	F 	0.04090 0.47975 0.53280 -0.34000
F 	F 	0.44001 0.64858 0.52992 -0.31600
F 	F 	0.47129 0.86015 0.55227 -0.30800
C 	C 	0.89580 0.55200 0.54852 0.23700
C 	C 	0.81806 0.38201 0.55490 0.31400
F 	F 	0.93414 0.63430 0.54583 -0.32900
F 	F 	0.78040 0.29963 0.55772 -0.36700
C 	C 	0.48386 0.41626 0.55698 0.31000
C 	C 	0.55703 0.58709 0.55109 0.24200
F 	F 	0.45037 0.33307 0.55918 -0.36500
F 	F 	0.59310 0.66971 0.54821 -0.31300
C 	C 	0.46717 0.93425 0.55730 0.23400
C 	C 	0.45830 0.08696 0.56775 0.31800
F 	F 	0.45592 0.16211 0.57241 -0.43000
C 	C 	0.84889 0.52351 0.57027 0.31500
C 	C 	0.81059 0.43821 0.57383 -0.20300
C 	C 	0.52757 0.46462 0.57830 -0.20000
C 	C 	0.56357 0.55064 0.57530 0.31900
C 	C 	0.48616 0.97137 0.58287 0.33000
C 	C 	0.48230 0.04818 0.58812 -0.23200
F 	F 	0.84312 0.57867 0.58853 -0.36100
H 	H 	0.61530 0.28822 0.59948 0.20700
C 	C 	0.76821 0.40779 0.59855 0.39600
C 	C 	0.53904 0.42442 0.60287 0.38400
O 	O 	0.72662 0.44457 0.60771 -0.32900
F 	F 	0.50842 0.93292 0.60252 -0.36400
F 	F 	0.60375 0.59907 0.59596 -0.35300
O 	O 	0.78191 0.35433 0.61332 -0.38200
O 	O 	0.59880 0.28892 0.61816 -0.68800
O 	O 	0.59677 0.46266 0.61819 -0.32000
O 	O 	0.48444 0.36153 0.61235 -0.34500
Ni	Ni	0.49157 0.24919 0.61987 1.11500
C 	C 	0.50756 0.09056 0.61415 0.40700
O 	O 	0.46971 0.12778 0.62586 -0.37800
O 	O 	0.57418 0.10606 0.62273 -0.34200
Ni	Ni	0.63010 0.21530 0.64239 1.10500
Ni	Ni	0.65070 0.40089 0.63783 1.10300
O 	O 	0.79403 0.25033 0.65355 -0.37700
O 	O 	0.81372 0.49067 0.65355 -0.37800
O 	O 	0.68602 0.32845 0.65997 -0.70500
O 	O 	0.68263 0.15891 0.66589 -0.34600
O 	O 	0.55133 0.18386 0.67204 -0.35900
Ni	Ni	0.79135 0.36703 0.65430 1.07000
O 	O 	0.70621 0.50672 0.65907 -0.34600
O 	O 	0.49988 0.27434 0.65994 -0.41200
C 	C 	0.75392 0.19120 0.66924 0.27800
C 	C 	0.77477 0.52560 0.66622 0.28300
C 	C 	0.50559 0.22042 0.67682 0.28500
H 	H 	0.70999 0.02713 0.67918 0.06900
H 	H 	0.92045 0.61417 0.67193 0.06400
H 	H 	0.67474 0.33076 0.67925 0.15600
C 	C 	0.76160 0.06460 0.68887 0.02500
C 	C 	0.79006 0.15090 0.68668 -0.06900
H 	H 	0.39901 0.27415 0.69024 0.05600
H 	H 	0.28062 0.26142 0.70746 0.05200
C 	C 	0.81186 0.59835 0.68392 -0.06200
C 	C 	0.88834 0.63697 0.68469 0.00100
H 	H 	0.03237 0.72119 0.69037 0.04500
H 	H 	0.06589 0.00412 0.72083 0.05100
C 	C 	0.89704 0.16073 0.71307 -0.01000
C 	C 	0.86930 0.07375 0.71458 0.05500
C 	C 	0.80102 0.02619 0.70277 -0.06100
C 	C 	0.85699 0.19880 0.69933 -0.00200
H 	H 	0.77891 0.95948 0.70401 0.06500
H 	H 	0.87844 0.26555 0.69799 0.02300
C 	C 	0.44882 0.18649 0.69758 -0.06600
C 	C 	0.33256 0.17651 0.71595 0.00200
C 	C 	0.39448 0.21849 0.70060 -0.01200
C 	C 	0.27597 0.20515 0.71741 -0.02600
C 	C 	0.77067 0.62847 0.70048 0.02000
C 	C 	0.80525 0.69680 0.71748 -0.06500
C 	C 	0.88146 0.73551 0.71833 0.05500
C 	C 	0.92334 0.70525 0.70188 -0.00900
C 	C 	0.99970 0.74377 0.70290 0.00900
H 	H 	0.71173 0.59851 0.70034 0.05000
C 	C 	0.96502 0.20844 0.72501 -0.00600
C 	C 	0.91031 0.03568 0.72782 -0.07900
H 	H 	0.98664 0.27520 0.72405 0.04000
H 	H 	0.88914 0.96900 0.72927 0.05800
C 	C 	0.44360 0.11607 0.71202 0.01400
C 	C 	0.21253 0.16049 0.73133 -0.04500
H 	H 	0.48569 0.09171 0.71049 0.05300
H 	H 	0.16903 0.18286 0.73209 0.04900
C 	C 	0.03415 0.81161 0.72014 -0.07700
C 	C 	0.91644 0.80390 0.73542 -0.08300
H 	H 	0.77271 0.71935 0.73010 0.05600
H 	H 	0.09314 0.84102 0.72084 0.06100
C 	C 	0.06287 0.00102 0.74315 -0.02900
C 	C 	0.97796 0.08393 0.73985 0.05400
C 	C 	0.00519 0.17015 0.73834 -0.07200
C 	C 	0.38261 0.07488 0.72772 -0.06100
C 	C 	0.32597 0.10342 0.72921 0.04300
C 	C 	0.99269 0.84129 0.73655 0.05800
H 	H 	0.88459 0.82788 0.74792 0.05500
C 	C 	0.01741 0.04445 0.75606 -0.01900
C 	C 	0.02930 0.91345 0.75437 -0.02100
H 	H 	0.05691 0.20755 0.74798 0.05200
C 	C 	0.20506 0.08714 0.74416 0.03000
C 	C 	0.26203 0.05885 0.74326 -0.07000
H 	H 	0.37879 0.01976 0.73823 0.05600
C 	C 	0.13661 0.03917 0.75823 -0.01000
H 	H 	0.25620 0.00204 0.75315 0.05600
C 	C 	0.01346 0.04040 0.78351 -0.01700
C 	C 	0.02526 0.90943 0.78191 -0.01700
C 	C 	0.13244 0.03544 0.78571 -0.00600
H 	H 	0.75804 0.02056 0.80124 0.05400
H 	H 	0.86879 0.00139 0.78798 0.05500
C 	C 	0.05533 0.99331 0.79676 -0.03500
C 	C 	0.79151 0.07572 0.81257 -0.06700
C 	C 	0.86772 0.10242 0.81300 0.05400
C 	C 	0.97776 0.08480 0.79952 0.05500
C 	C 	0.90151 0.05729 0.79917 -0.08200
H 	H 	0.69916 0.09754 0.82694 0.02400
H 	H 	0.22204 0.19178 0.79837 0.05400
C 	C 	0.98662 0.83143 0.79624 0.05500
C 	C 	0.92481 0.82171 0.81133 -0.08100
H 	H 	0.06076 0.77546 0.78387 0.05500
H 	H 	0.90425 0.87048 0.81182 0.05900
C 	C 	0.75811 0.11954 0.82708 0.01600
C 	C 	0.02025 0.15650 0.81417 -0.07400
H 	H 	0.07917 0.17794 0.81443 0.05900
C 	C 	0.19707 0.06212 0.80354 0.03000
C 	C 	0.23762 0.14637 0.80835 -0.06900
H 	H 	0.32530 0.30225 0.82074 0.05800
C 	C 	0.89021 0.74951 0.82603 0.05500
C 	C 	0.01295 0.76815 0.79541 -0.07300
H 	H 	0.80859 0.78859 0.84259 0.06300
H 	H 	0.05242 0.99039 0.81909 0.05200
C 	C 	0.80045 0.19092 0.84199 -0.06500
C 	C 	0.91075 0.17499 0.82763 -0.00900
C 	C 	0.87688 0.21925 0.84192 0.00300
C 	C 	0.98700 0.20152 0.82813 0.00800
C 	C 	0.21615 0.00305 0.81659 -0.04100
C 	C 	0.29800 0.17180 0.82603 0.04400
C 	C 	0.33953 0.25599 0.83074 -0.05700
H 	H 	0.18444 0.93783 0.81297 0.05200
C 	C 	0.83020 0.74076 0.84205 -0.06000
C 	C 	0.91736 0.68626 0.82534 -0.00700
C 	C 	0.97821 0.69567 0.80970 -0.00300
H 	H 	0.99939 0.64752 0.80896 0.04800
O 	O 	0.79520 0.31250 0.86311 -0.35600
C 	C 	0.76462 0.23166 0.85940 0.27100
H 	H 	0.90969 0.27405 0.85359 0.06600
H 	H 	0.02054 0.25700 0.83930 0.04600
C 	C 	0.27600 0.02782 0.83433 -0.02200
C 	C 	0.31722 0.11208 0.83918 0.00600
C 	C 	0.40016 0.28084 0.84817 0.01400
H 	H 	0.43263 0.34609 0.85121 0.05300
C 	C 	0.82704 0.60930 0.85798 -0.06200
C 	C 	0.79925 0.67136 0.85811 0.01800
C 	C 	0.88498 0.61587 0.84110 0.00500
H 	H 	0.75471 0.66674 0.87115 0.05100
O 	O 	0.71344 0.18574 0.87574 -0.37700
O 	O 	0.77372 0.46660 0.87001 -0.38400
H 	H 	0.65271 0.33848 0.86251 0.15800
C 	C 	0.41962 0.22172 0.86124 -0.05500
C 	C 	0.37751 0.13733 0.85687 -0.00800
H 	H 	0.29030 0.98154 0.84429 0.05800
H 	H 	0.90676 0.56811 0.84115 0.05900
O 	O 	0.65879 0.31914 0.88067 -0.70500
Ni	Ni	0.61500 0.19959 0.88161 1.07200
C 	C 	0.48595 0.24800 0.87837 0.27500
C 	C 	0.80284 0.54425 0.87819 0.29400
Ni	Ni	0.76434 0.36907 0.89412 1.10700
O 	O 	0.51154 0.32278 0.88949 -0.34300
O 	O 	0.51043 0.19171 0.88671 -0.37000
H 	H 	0.39183 0.09143 0.86710 0.06900
Ni	Ni	0.61070 0.36384 0.90811 1.10700
O 	O 	0.87140 0.42806 0.90629 -0.35600
O 	O 	0.82652 0.56373 0.90314 -0.35200
O 	O 	0.63153 0.19333 0.92215 -0.38100
O 	O 	0.71256 0.39563 0.92495 -0.69800
F 	F 	0.01567 0.60614 0.92517 -0.38300
O 	O 	0.57914 0.43561 0.93390 -0.33500
O 	O 	0.68511 0.54711 0.92813 -0.39100
Ni	Ni	0.76955 0.50928 0.93646 1.11000
H 	H 	0.71147 0.35882 0.93999 0.20600
C 	C 	0.59068 0.21069 0.93966 0.40200
C 	C 	0.89308 0.45506 0.93116 0.40900
O 	O 	0.56653 0.26913 0.93491 -0.33000
C 	C 	0.02023 0.54701 0.94155 0.30900
C 	C 	0.96642 0.46669 0.94011 -0.20500
F 	F 	0.53011 0.60030 0.93977 -0.37400
O 	O 	0.85118 0.47459 0.94809 -0.34800
C 	C 	0.62242 0.51203 0.94021 0.40300
F 	F 	0.43876 0.12572 0.94572 -0.37000
C 	C 	0.07237 0.56882 0.96242 0.23000
C 	C 	0.97610 0.40461 0.95511 0.32700
F 	F 	0.11802 0.64902 0.96624 -0.33500
F 	F 	0.92854 0.32492 0.95196 -0.37100
C 	C 	0.56007 0.15448 0.96218 -0.20700
C 	C 	0.48405 0.11598 0.96483 0.31800
C 	C 	0.55652 0.58686 0.96381 0.32800
C 	C 	0.60796 0.55051 0.96464 -0.22400
C 	C 	0.06942 0.51024 0.98177 0.00700
C 	C 	0.02824 0.42647 0.97598 0.21900
F 	F 	0.03081 0.36787 0.99303 -0.33100
C 	C 	0.45456 0.06741 0.98719 0.23500
C 	C 	0.60627 0.14177 0.98167 0.31800
F 	F 	0.38108 0.03148 0.98970 -0.33300
F 	F 	0.67975 0.17831 0.97928 -0.36300
C 	C 	0.52998 0.60627 0.98778 0.23400
C 	C 	0.63575 0.53806 0.98960 0.31600
F 	F 	0.47910 0.63986 0.98677 -0.31600
F 	F 	0.68616 0.50378 0.99060 -0.41100
