data_crystal

_cell_length_a 26.18293
_cell_length_b 26.28131
_cell_length_c 40.17496
_cell_angle_alpha 95.49850
_cell_angle_beta  95.49353
_cell_angle_gamma 125.84791

_symmetry_space_group_name_	'P 1'
_symmetry_space_group_name_H-M	'P 1'

loop_
_symmetry_equiv_pos_as_xyz
  x,y,z

loop_
_atom_site_label
_atom_site_type_symbol
_atom_site_fract_x
_atom_site_fract_y
_atom_site_fract_z
_atom_site_charge
C 	C 	0.97908 0.03481 0.99033 0.12300
C 	C 	0.07165 0.04104 0.98662 0.12600
N 	N 	0.04323 0.07032 0.99089 -0.13300
N 	N 	0.98201 0.02410 0.47721 -0.13900
Cu	Cu	0.64744 0.24541 0.00714 0.93000
Cu	Cu	0.68883 0.23576 0.93370 0.87600
Cu	Cu	0.69001 0.34465 0.96161 0.89800
Cu	Cu	0.66916 0.37538 0.03029 0.89700
C 	C 	0.67546 0.29855 0.07805 0.29100
O 	O 	0.55876 0.22163 0.00863 -0.35000
C 	C 	0.65931 0.29459 0.88723 0.29000
O 	O 	0.70935 0.34454 0.00888 -0.63900
O 	O 	0.63746 0.25017 0.95845 -0.64100
O 	O 	0.67641 0.19019 0.00409 -0.36000
O 	O 	0.74817 0.24925 0.97098 -0.43400
O 	O 	0.65227 0.32946 0.06933 -0.37900
O 	O 	0.74564 0.43672 0.96741 -0.37900
C 	C 	0.74284 0.47623 0.98866 0.29600
C 	C 	0.54012 0.25359 0.99551 0.28300
O 	O 	0.58307 0.31251 0.99160 -0.39000
O 	O 	0.71951 0.46097 0.01689 -0.38600
O 	O 	0.67159 0.25610 0.05529 -0.35800
C 	C 	0.72862 0.20905 0.99209 0.29000
O 	O 	0.68313 0.34391 0.91217 -0.37900
O 	O 	0.64967 0.24134 0.89311 -0.41200
H 	H 	0.75555 0.36778 0.01818 0.16900
H 	H 	0.59275 0.22708 0.94625 0.18200
Cu	Cu	0.69583 0.30917 0.45514 0.92500
Cu	Cu	0.73963 0.30158 0.53282 0.87700
Cu	Cu	0.61782 0.30403 0.50831 0.91300
Cu	Cu	0.57533 0.31067 0.43684 0.90000
C 	C 	0.64022 0.28941 0.38594 0.29100
O 	O 	0.73928 0.40013 0.44705 -0.36200
C 	C 	0.66149 0.30778 0.57582 0.29100
O 	O 	0.60073 0.26878 0.46114 -0.63600
O 	O 	0.70806 0.33810 0.50473 -0.62900
O 	O 	0.72614 0.25435 0.45506 -0.36000
O 	O 	0.79687 0.30798 0.50532 -0.42000
O 	O 	0.58971 0.28638 0.39191 -0.37200
O 	O 	0.52906 0.26423 0.51078 -0.36700
C 	C 	0.48792 0.25916 0.48644 0.29000
C 	C 	0.71456 0.43070 0.45342 0.28500
O 	O 	0.66010 0.40216 0.46430 -0.38400
O 	O 	0.50794 0.29537 0.46307 -0.38300
O 	O 	0.66816 0.27403 0.40752 -0.35900
C 	C 	0.77410 0.26617 0.47707 0.29200
O 	O 	0.63892 0.33109 0.55707 -0.37700
O 	O 	0.67464 0.27093 0.56098 -0.42000
H 	H 	0.57003 0.22154 0.45577 0.17300
H 	H 	0.73697 0.38528 0.51124 0.16100
C 	C 	0.64915 0.30147 0.85166 -0.08500
C 	C 	0.68843 0.36143 0.84220 0.01900
C 	C 	0.68609 0.36613 0.80777 -0.06600
C 	C 	0.64427 0.31113 0.78264 0.04200
C 	C 	0.60223 0.25195 0.79206 -0.06700
C 	C 	0.60451 0.24710 0.82643 0.01900
C 	C 	0.64872 0.31431 0.74736 -0.01600
C 	C 	0.65193 0.31627 0.71773 -0.01700
C 	C 	0.65644 0.31751 0.68234 0.04400
C 	C 	0.70035 0.31079 0.66933 -0.07000
C 	C 	0.70261 0.30852 0.63464 0.02000
C 	C 	0.66082 0.31291 0.61265 -0.09200
C 	C 	0.61755 0.32076 0.62590 0.02400
C 	C 	0.61537 0.32295 0.66063 -0.06800
H 	H 	0.72264 0.40392 0.86136 0.04300
H 	H 	0.71829 0.41217 0.80066 0.05400
H 	H 	0.56919 0.20935 0.77275 0.05400
H 	H 	0.57282 0.20081 0.83339 0.03700
H 	H 	0.73237 0.30673 0.68602 0.05200
H 	H 	0.73672 0.30323 0.62487 0.01800
H 	H 	0.58485 0.32398 0.60926 0.04500
H 	H 	0.58127 0.32813 0.67054 0.05700
C 	C 	0.68955 0.29894 0.11447 -0.08300
C 	C 	0.66330 0.24118 0.12618 0.02300
C 	C 	0.66607 0.24061 0.16109 -0.06600
C 	C 	0.69533 0.29769 0.18444 0.04400
C 	C 	0.72529 0.35579 0.17294 -0.06600
C 	C 	0.72242 0.35645 0.13809 0.01900
C 	C 	0.68833 0.29602 0.21951 -0.01500
C 	C 	0.68300 0.29566 0.24897 -0.01500
C 	C 	0.67523 0.29607 0.28396 0.04200
C 	C 	0.65889 0.33381 0.29897 -0.06400
C 	C 	0.64809 0.33203 0.33237 0.01700
C 	C 	0.65355 0.29243 0.35106 -0.07800
C 	C 	0.67092 0.25532 0.33612 0.02000
C 	C 	0.68159 0.25711 0.30264 -0.06400
H 	H 	0.63807 0.19648 0.10824 0.04500
H 	H 	0.64328 0.19554 0.16984 0.05700
H 	H 	0.74863 0.40019 0.19090 0.05400
H 	H 	0.74372 0.40140 0.12938 0.02700
H 	H 	0.65403 0.36415 0.28468 0.05500
H 	H 	0.63548 0.36140 0.34372 0.04000
H 	H 	0.67507 0.22434 0.35018 0.04800
H 	H 	0.69414 0.22773 0.29116 0.05600
C 	C 	0.71627 0.51530 0.42847 0.02900
C 	C 	0.74825 0.49758 0.44898 -0.08500
C 	C 	0.80936 0.54506 0.46854 0.01400
C 	C 	0.65496 0.46730 0.40656 0.05800
N 	N 	0.60580 0.42890 0.38905 -0.12300
H 	H 	0.83436 0.53161 0.48405 0.03400
C 	C 	0.83299 0.05477 0.44148 -0.02300
C 	C 	0.84137 0.09244 0.47197 0.01000
C 	C 	0.86759 0.08877 0.50293 -0.04300
C 	C 	0.88851 0.05046 0.50354 -0.00300
C 	C 	0.88320 0.01531 0.47286 -0.01900
C 	C 	0.82375 0.13674 0.47168 0.02700
C 	C 	0.76118 0.11441 0.47448 -0.06200
C 	C 	0.74426 0.15611 0.47590 0.02700
C 	C 	0.79036 0.22104 0.47426 -0.09100
C 	C 	0.85288 0.24331 0.47127 0.01600
C 	C 	0.86976 0.20149 0.46986 -0.04400
C 	C 	0.68012 0.13239 0.48018 0.05600
C 	C 	0.93432 0.22533 0.46657 0.09400
C 	C 	0.80456 0.05654 0.40941 0.09000
C 	C 	0.91579 0.04775 0.53572 0.08400
N 	N 	0.62876 0.11341 0.48362 -0.11800
N 	N 	0.98604 0.24437 0.46394 -0.11100
N 	N 	0.93767 0.04557 0.56149 -0.11000
H 	H 	0.87274 0.11667 0.52648 0.05000
H 	H 	0.72587 0.06468 0.47598 0.05600
H 	H 	0.88841 0.29317 0.47011 0.03900
C 	C 	0.18900 0.10022 0.51595 -0.02500
C 	C 	0.21776 0.11462 0.48693 0.01200
C 	C 	0.17928 0.09163 0.45447 -0.04300
C 	C 	0.11245 0.05408 0.45070 0.00000
C 	C 	0.08365 0.03893 0.47966 -0.02000
C 	C 	0.12209 0.06242 0.51215 -0.01600
C 	C 	0.28818 0.15322 0.49018 0.02700
C 	C 	0.31771 0.12278 0.49093 -0.05900
C 	C 	0.38341 0.15730 0.49067 0.02600
C 	C 	0.42010 0.22314 0.48967 -0.08000
C 	C 	0.39088 0.25398 0.49009 0.01500
C 	C 	0.32522 0.21941 0.49040 -0.04200
C 	C 	0.41230 0.12437 0.49017 0.06900
C 	C 	0.29605 0.25206 0.49077 0.09500
C 	C 	0.22785 0.12420 0.54964 0.09100
N 	N 	0.43545 0.09801 0.48977 -0.11200
N 	N 	0.27264 0.27816 0.49106 -0.11000
N 	N 	0.25903 0.14345 0.57662 -0.11000
H 	H 	0.09986 0.05100 0.53444 0.05100
H 	H 	0.20149 0.10304 0.43218 0.05300
H 	H 	0.28920 0.07189 0.49099 0.05700
H 	H 	0.41923 0.30481 0.48987 0.04500
C 	C 	0.77745 0.54300 0.98424 -0.08200
C 	C 	0.70338 0.50950 0.92964 0.07200
N 	N 	0.66074 0.46994 0.90848 -0.10800
H 	H 	0.84734 0.57934 0.03034 0.03700
C 	C 	0.86608 0.20255 0.01856 -0.04300
C 	C 	0.83862 0.13837 0.00500 0.02700
C 	C 	0.77275 0.09564 0.99150 -0.06200
C 	C 	0.73502 0.11734 0.98926 0.02500
C 	C 	0.76347 0.18257 0.00065 -0.08600
C 	C 	0.82848 0.22437 0.01616 0.01500
C 	C 	0.87915 0.11643 0.00272 0.01200
C 	C 	0.88137 0.08212 0.02672 -0.04400
C 	C 	0.91584 0.05713 0.02363 -0.00100
C 	C 	0.94837 0.06635 0.99614 -0.01800
C 	C 	0.94809 0.10268 0.97286 -0.01900
C 	C 	0.91333 0.12736 0.97584 -0.02600
C 	C 	0.91816 0.02267 0.04895 0.08300
C 	C 	0.91198 0.16289 0.95092 0.08800
C 	C 	0.93308 0.24654 0.03432 0.09400
C 	C 	0.66779 0.07293 0.97398 0.06500
N 	N 	0.91086 0.19137 0.93097 -0.11500
N 	N 	0.61394 0.03735 0.96173 -0.11100
N 	N 	0.98676 0.28174 0.04694 -0.11200
H 	H 	0.85021 0.27434 0.02541 0.03700
H 	H 	0.75136 0.04593 0.98170 0.05600
H 	H 	0.85571 0.07437 0.04761 0.05300
H 	H 	0.97351 0.11023 0.95188 0.05300
C 	C 	0.24477 0.10738 0.01350 -0.02300
C 	C 	0.27263 0.14193 0.98762 0.01100
C 	C 	0.23496 0.14610 0.96242 -0.04200
C 	C 	0.16952 0.11501 0.96243 -0.00200
C 	C 	0.14135 0.07924 0.98790 -0.01600
C 	C 	0.17937 0.07616 0.01346 -0.01700
C 	C 	0.34114 0.17317 0.98651 0.02600
C 	C 	0.35907 0.13764 0.97040 -0.06000
C 	C 	0.42401 0.16419 0.97203 0.02800
C 	C 	0.47170 0.22699 0.99010 -0.08200
C 	C 	0.45362 0.26350 0.00480 0.01600
C 	C 	0.38870 0.23690 0.00316 -0.04100
C 	C 	0.44126 0.12720 0.95454 0.07000
C 	C 	0.37123 0.27483 0.01922 0.09400
C 	C 	0.28300 0.10356 0.04009 0.09100
C 	C 	0.13129 0.11866 0.93573 0.08800
N 	N 	0.45508 0.09756 0.94053 -0.11500
N 	N 	0.35717 0.30517 0.03208 -0.11100
N 	N 	0.10064 0.12156 0.91437 -0.10800
N 	N 	0.31368 0.10054 0.06138 -0.10900
H 	H 	0.15781 0.04886 0.03313 0.05200
H 	H 	0.25653 0.17306 0.94264 0.05300
H 	H 	0.32239 0.08893 0.95710 0.05800
H 	H 	0.49016 0.31203 0.01839 0.03500
C 	C 	0.83695 0.60990 0.46941 -0.04300
C 	C 	0.80315 0.62744 0.45043 0.02700
C 	C 	0.74381 0.58000 0.42938 -0.06100
C 	C 	0.82870 0.69540 0.45313 0.01100
C 	C 	0.86270 0.72955 0.42868 -0.04300
C 	C 	0.88784 0.79399 0.43096 -0.00200
C 	C 	0.84314 0.79007 0.48186 -0.01900
C 	C 	0.81774 0.72550 0.47947 -0.02400
C 	C 	0.92131 0.82771 0.40497 0.08700
C 	C 	0.78115 0.69066 0.50434 0.08900
C 	C 	0.89933 0.65810 0.49026 0.09300
N 	N 	0.75184 0.66268 0.52426 -0.11100
N 	N 	0.94931 0.69677 0.50696 -0.11300
H 	H 	0.71851 0.59351 0.41418 0.05700
H 	H 	0.86978 0.70597 0.40795 0.05200
C 	C 	0.85683 0.77527 0.99936 -0.02400
C 	C 	0.86847 0.73940 0.97739 0.01100
C 	C 	0.90986 0.76861 0.95446 -0.04400
C 	C 	0.83927 0.67176 0.97909 0.02600
C 	C 	0.78736 0.62314 0.95377 -0.06100
C 	C 	0.75667 0.55885 0.95605 0.02700
C 	C 	0.83058 0.59158 0.00899 0.01600
C 	C 	0.86209 0.65573 0.00633 -0.04100
C 	C 	0.91786 0.70490 0.03160 0.09400
C 	C 	0.81120 0.74520 0.02163 0.09200
N 	N 	0.96252 0.74432 0.05183 -0.11200
N 	N 	0.77465 0.72107 0.03947 -0.11000
H 	H 	0.91751 0.74060 0.93695 0.05100
H 	H 	0.77044 0.63545 0.93253 0.05600
C 	C 	0.87953 0.82503 0.45823 -0.01700
N 	N 	0.94812 0.85468 0.38413 -0.10400
H 	H 	0.83633 0.81368 0.50272 0.05100
C 	C 	0.94174 0.83379 0.95422 -0.00200
C 	C 	0.88993 0.84075 0.99979 -0.02000
C 	C 	0.98094 0.86181 0.92891 0.08400
H 	H 	0.88262 0.86867 0.01761 0.05600
C 	C 	0.93354 0.87074 0.97789 -0.01600
C 	C 	0.91521 0.89506 0.46458 0.12800
N 	N 	0.01234 0.88426 0.90864 -0.10500
N 	N 	0.88340 0.92140 0.46570 -0.13700
N 	N 	0.98028 0.93339 0.46995 -0.13700
C 	C 	0.85372 0.01624 0.44211 -0.02100
N 	N 	0.78178 0.05801 0.38372 -0.10900
C 	C 	0.97167 0.94076 0.98077 0.12600
N 	N 	0.94329 0.97008 0.98481 -0.13500
N 	N 	0.03605 0.97643 0.98226 -0.13200
C 	C 	0.07372 0.03166 0.41706 0.08900
N 	N 	0.92003 0.99503 0.06921 -0.10600
C 	C 	0.01362 0.99780 0.47614 0.13800
N 	N 	0.04269 0.01375 0.39012 -0.10300
H 	H 	0.84927 0.98896 0.41851 0.05400
C 	C 	0.91697 0.98608 0.47209 0.13100
