data_crystal

_cell_length_a 27.54932
_cell_length_b 28.38820
_cell_length_c 34.93432
_cell_angle_alpha 95.50930
_cell_angle_beta  95.50421
_cell_angle_gamma 125.65507

_symmetry_space_group_name_	'P 1'
_symmetry_space_group_name_H-M	'P 1'

loop_
_symmetry_equiv_pos_as_xyz
  x,y,z

loop_
_atom_site_label
_atom_site_type_symbol
_atom_site_fract_x
_atom_site_fract_y
_atom_site_fract_z
_atom_site_charge
C 	C 	0.96118 0.01617 0.98983 0.05500
C 	C 	0.02232 0.04833 0.98582 -0.08900
C 	C 	0.04902 0.01928 0.98009 0.05400
C 	C 	0.01465 0.95823 0.97836 -0.09000
C 	C 	0.95367 0.92613 0.98242 0.05500
C 	C 	0.92689 0.95506 0.98817 -0.08800
H 	H 	0.04892 0.09564 0.98711 0.05600
H 	H 	0.03539 0.93579 0.97403 0.05600
H 	H 	0.87957 0.93014 0.99124 0.05600
C 	C 	0.93632 0.00406 0.45563 0.04700
C 	C 	0.90398 0.94359 0.45679 -0.08300
C 	C 	0.93504 0.91820 0.45938 0.04800
C 	C 	0.99796 0.95315 0.46083 -0.07900
C 	C 	0.03006 0.01323 0.45966 0.04400
C 	C 	0.99932 0.03869 0.45703 -0.08000
H 	H 	0.85525 0.91666 0.45574 0.05500
H 	H 	0.02191 0.93352 0.46281 0.05300
H 	H 	0.02434 0.08535 0.45619 0.05200
Cu	Cu	0.64199 0.24458 0.00219 0.92800
Cu	Cu	0.69275 0.24847 0.92086 0.86800
Cu	Cu	0.67533 0.33738 0.95154 0.89700
Cu	Cu	0.64865 0.35724 0.02958 0.89500
C 	C 	0.66200 0.28938 0.08377 0.28900
O 	O 	0.55459 0.21441 0.00153 -0.36500
C 	C 	0.66545 0.30282 0.86688 0.28400
O 	O 	0.69406 0.33670 0.00580 -0.64000
O 	O 	0.63473 0.25092 0.94646 -0.64100
O 	O 	0.67593 0.19902 0.99935 -0.37500
O 	O 	0.74669 0.26107 0.96546 -0.44500
O 	O 	0.63514 0.31370 0.07369 -0.38400
O 	O 	0.72042 0.42222 0.95897 -0.38800
C 	C 	0.71478 0.45532 0.98459 0.31500
C 	C 	0.53315 0.24100 0.98649 0.30300
O 	O 	0.57051 0.29651 0.98320 -0.39800
O 	O 	0.69026 0.43709 0.01574 -0.39700
O 	O 	0.66237 0.25283 0.05763 -0.36100
C 	C 	0.72786 0.22123 0.98770 0.31200
O 	O 	0.66434 0.33695 0.89490 -0.37900
O 	O 	0.65877 0.25440 0.87300 -0.42000
H 	H 	0.73802 0.36139 0.01716 0.16600
H 	H 	0.59287 0.22603 0.93090 0.17500
Cu	Cu	0.73907 0.34828 0.45270 0.92700
Cu	Cu	0.74277 0.31077 0.53826 0.87100
Cu	Cu	0.64372 0.31628 0.50400 0.89700
Cu	Cu	0.62237 0.34072 0.42474 0.89500
C 	C 	0.68996 0.32259 0.37058 0.28800
O 	O 	0.77152 0.43314 0.45017 -0.36200
C 	C 	0.68887 0.34303 0.58988 0.28700
O 	O 	0.64441 0.29833 0.44982 -0.64000
O 	O 	0.73357 0.35977 0.50842 -0.64100
O 	O 	0.78419 0.31310 0.45719 -0.37400
O 	O 	0.72459 0.25184 0.49648 -0.44300
O 	O 	0.66349 0.34789 0.37921 -0.38400
O 	O 	0.55590 0.26935 0.49611 -0.38300
C 	C 	0.52083 0.26916 0.46743 0.30800
C 	C 	0.74373 0.45506 0.46268 0.30100
O 	O 	0.68776 0.41955 0.46829 -0.39400
O 	O 	0.54368 0.30664 0.44310 -0.39500
O 	O 	0.72876 0.32475 0.39749 -0.36100
C 	C 	0.76177 0.26487 0.47183 0.30700
O 	O 	0.64259 0.32165 0.56078 -0.38500
O 	O 	0.73928 0.35072 0.58367 -0.42100
H 	H 	0.61948 0.25562 0.43870 0.16300
H 	H 	0.75735 0.40143 0.52190 0.17300
C 	C 	0.64250 0.35325 0.77481 -0.06300
C 	C 	0.67070 0.33816 0.75027 0.01900
C 	C 	0.69701 0.31161 0.76405 -0.06400
C 	C 	0.69520 0.30016 0.80206 0.01100
C 	C 	0.66707 0.31520 0.82678 -0.08800
C 	C 	0.64084 0.34201 0.81302 0.01500
C 	C 	0.67201 0.34908 0.70987 0.01800
H 	H 	0.71869 0.29965 0.74521 0.04200
H 	H 	0.71605 0.27996 0.81240 0.02000
H 	H 	0.61868 0.35354 0.83169 0.03700
H 	H 	0.62189 0.37361 0.76432 0.04700
C 	C 	0.61991 0.31110 0.68068 -0.06300
C 	C 	0.62435 0.31217 0.64117 0.01000
C 	C 	0.68107 0.35115 0.63061 -0.08800
C 	C 	0.73202 0.39264 0.65995 0.01100
C 	C 	0.72750 0.39152 0.69941 -0.06400
H 	H 	0.57669 0.27860 0.68851 0.04500
H 	H 	0.58444 0.28046 0.61886 0.03700
H 	H 	0.77569 0.42407 0.65221 0.03000
H 	H 	0.76778 0.42169 0.72181 0.04400
C 	C 	0.71401 0.34448 0.19268 -0.06200
C 	C 	0.68992 0.29154 0.20643 0.02000
C 	C 	0.66188 0.23858 0.17967 -0.06300
C 	C 	0.65564 0.23822 0.13940 0.01700
C 	C 	0.67697 0.29080 0.12564 -0.08400
C 	C 	0.70742 0.34410 0.15247 0.01200
C 	C 	0.68869 0.29088 0.24844 0.02000
H 	H 	0.64340 0.19753 0.19005 0.04700
H 	H 	0.63209 0.19679 0.11897 0.04000
H 	H 	0.72456 0.38499 0.14216 0.02200
H 	H 	0.73591 0.38561 0.21314 0.04600
C 	C 	0.74310 0.31895 0.27553 -0.06200
C 	C 	0.74312 0.32641 0.31571 0.01600
C 	C 	0.68874 0.30621 0.32904 -0.08300
C 	C 	0.63393 0.27553 0.30194 0.01200
C 	C 	0.63389 0.26777 0.26182 -0.06200
H 	H 	0.78558 0.33665 0.26545 0.04700
H 	H 	0.78573 0.35006 0.33633 0.04000
H 	H 	0.59162 0.25918 0.31192 0.02200
H 	H 	0.59162 0.24580 0.24110 0.04600
C 	C 	0.85632 0.74424 0.46090 0.02100
C 	C 	0.80455 0.70765 0.47695 -0.04700
C 	C 	0.78321 0.64948 0.47826 -0.02900
C 	C 	0.81361 0.62774 0.46358 -0.01000
C 	C 	0.86532 0.66436 0.44753 -0.02800
C 	C 	0.88662 0.72243 0.44621 -0.04700
C 	C 	0.79022 0.56713 0.46345 0.04600
C 	C 	0.77017 0.51632 0.46351 -0.11000
C 	C 	0.88031 0.80501 0.46106 -0.01300
C 	C 	0.90297 0.85623 0.46029 -0.02800
H 	H 	0.78105 0.72423 0.48854 0.04300
H 	H 	0.74301 0.62135 0.49055 0.03800
H 	H 	0.88889 0.64783 0.43596 0.03900
H 	H 	0.92683 0.75054 0.43392 0.04300
C 	C 	0.85732 0.08910 0.45005 0.02100
C 	C 	0.80541 0.07104 0.46586 -0.04800
C 	C 	0.78465 0.10585 0.46747 -0.02900
C 	C 	0.81575 0.15892 0.45328 -0.01300
C 	C 	0.86649 0.17600 0.43632 -0.02800
C 	C 	0.88722 0.14118 0.43470 -0.04800
C 	C 	0.79811 0.19768 0.45874 0.04600
C 	C 	0.78203 0.22894 0.46383 -0.11900
C 	C 	0.88277 0.05691 0.45230 -0.01400
C 	C 	0.90554 0.03126 0.45365 -0.02800
H 	H 	0.78196 0.03083 0.47772 0.04200
H 	H 	0.74528 0.09224 0.48053 0.03500
H 	H 	0.89069 0.21684 0.42520 0.03900
H 	H 	0.92732 0.15540 0.42235 0.04300
C 	C 	0.33870 0.17435 0.46624 -0.01100
C 	C 	0.30157 0.11253 0.45796 -0.02800
C 	C 	0.23895 0.08054 0.45672 -0.04800
C 	C 	0.21323 0.11026 0.46374 0.02100
C 	C 	0.25037 0.17208 0.47214 -0.04800
C 	C 	0.31301 0.20408 0.47339 -0.02800
C 	C 	0.14878 0.07722 0.46242 -0.01400
C 	C 	0.09470 0.04866 0.46116 -0.02700
C 	C 	0.40295 0.20730 0.46673 0.04700
C 	C 	0.45680 0.23525 0.46719 -0.10900
H 	H 	0.32112 0.08927 0.45237 0.03600
H 	H 	0.21047 0.03272 0.45025 0.04200
H 	H 	0.23079 0.19533 0.47765 0.04200
H 	H 	0.34148 0.25189 0.47978 0.03900
C 	C 	0.79826 0.62818 0.97777 -0.01100
C 	C 	0.85631 0.66169 0.96823 -0.02700
C 	C 	0.88646 0.72188 0.96835 -0.04700
C 	C 	0.85869 0.74878 0.97800 0.02100
C 	C 	0.80027 0.71510 0.98699 -0.04700
C 	C 	0.77010 0.65488 0.98687 -0.02800
C 	C 	0.89090 0.81119 0.97972 -0.01100
C 	C 	0.91884 0.86353 0.98095 -0.03000
C 	C 	0.76875 0.56707 0.97988 0.04900
C 	C 	0.74394 0.51589 0.98167 -0.11000
H 	H 	0.87835 0.64131 0.96119 0.03800
H 	H 	0.93162 0.74768 0.96133 0.04300
H 	H 	0.77850 0.73562 0.99442 0.04300
H 	H 	0.72521 0.62920 0.99429 0.03800
C 	C 	0.82037 0.15110 0.00326 -0.01700
C 	C 	0.88000 0.18266 0.99626 -0.02700
C 	C 	0.91008 0.15653 0.99595 -0.04700
C 	C 	0.88067 0.09875 0.00265 0.01800
C 	C 	0.82188 0.06798 0.01111 -0.04800
C 	C 	0.79178 0.09412 0.01141 -0.02700
C 	C 	0.90920 0.06977 0.99833 -0.01000
C 	C 	0.93317 0.04557 0.99471 -0.03100
C 	C 	0.78679 0.17504 0.99849 0.05100
C 	C 	0.75959 0.19599 0.99433 -0.12400
H 	H 	0.90244 0.22679 0.99002 0.03500
H 	H 	0.95564 0.18068 0.98958 0.04200
H 	H 	0.79899 0.02338 0.01653 0.04200
H 	H 	0.74574 0.06951 0.01696 0.03800
C 	C 	0.35134 0.16291 0.97156 -0.01100
C 	C 	0.30860 0.10275 0.95549 -0.02800
C 	C 	0.24675 0.07518 0.95507 -0.04700
C 	C 	0.22743 0.10767 0.97073 0.02000
C 	C 	0.26994 0.16828 0.98552 -0.04700
C 	C 	0.33180 0.19586 0.98593 -0.02800
C 	C 	0.16475 0.07796 0.97418 -0.01200
C 	C 	0.11202 0.05204 0.97674 -0.03100
C 	C 	0.41531 0.18972 0.97616 0.04700
C 	C 	0.46904 0.21283 0.98024 -0.11200
H 	H 	0.32337 0.07704 0.94423 0.03800
H 	H 	0.21407 0.02833 0.94345 0.04200
H 	H 	0.25530 0.19372 0.99754 0.04200
H 	H 	0.36461 0.24245 0.99828 0.03800
