data_crystal

_cell_length_a 20.17942
_cell_length_b 20.73253
_cell_length_c 37.65452
_cell_angle_alpha 60.66889
_cell_angle_beta  119.09676
_cell_angle_gamma 133.34252

_symmetry_space_group_name_	'P 1'
_symmetry_space_group_name_H-M	'P 1'

loop_
_symmetry_equiv_pos_as_xyz
  x,y,z

loop_
_atom_site_label
_atom_site_type_symbol
_atom_site_fract_x
_atom_site_fract_y
_atom_site_fract_z
_atom_site_charge
C 	C 	0.69474 0.29879 0.98873 0.10600
N 	N 	0.60791 0.23627 0.99690 -0.13900
C 	C 	0.56200 0.26498 0.99473 0.12200
N 	N 	0.60233 0.35558 0.98368 -0.13700
C 	C 	0.69189 0.41766 0.97979 0.11200
N 	N 	0.73666 0.38953 0.98055 -0.13600
C 	C 	0.68231 0.23527 0.54954 0.11500
N 	N 	0.59348 0.21028 0.53696 -0.14300
C 	C 	0.57691 0.26089 0.53968 0.11000
N 	N 	0.64876 0.33571 0.55523 -0.13800
C 	C 	0.73752 0.36132 0.56765 0.11200
N 	N 	0.75457 0.31138 0.56460 -0.14000
C 	C 	0.26722 0.62321 0.18290 0.11200
N 	N 	0.35744 0.68658 0.17871 -0.13700
C 	C 	0.40315 0.66036 0.17844 0.11500
N 	N 	0.35922 0.57119 0.18282 -0.13700
C 	C 	0.26813 0.50877 0.18430 0.11400
N 	N 	0.22185 0.53439 0.18457 -0.13900
C 	C 	0.33462 0.71000 0.63340 0.11300
N 	N 	0.42535 0.73874 0.64773 -0.13600
C 	C 	0.44831 0.69092 0.64741 0.11500
N 	N 	0.38081 0.61423 0.63310 -0.13800
C 	C 	0.29040 0.58506 0.61836 0.11400
N 	N 	0.26678 0.63279 0.61862 -0.13700
Co	Co	0.01872 0.09217 0.08386 1.17700
Co	Co	0.08866 0.03602 0.04766 1.16500
C 	C 	0.88296 0.75079 0.01821 0.29800
Co	Co	0.08773 0.88616 0.03816 1.17600
C 	C 	0.26032 0.04190 0.07343 0.24000
O 	O 	0.10442 0.14219 0.04968 -0.47500
C 	C 	0.10249 0.17485 0.15580 0.29900
C 	C 	0.71985 0.87989 0.11148 0.29400
C 	C 	0.06657 0.76358 0.12332 0.30100
O 	O 	0.04566 0.76448 0.08439 -0.40800
O 	O 	0.05138 0.80624 0.13202 -0.39200
O 	O 	0.03393 0.10661 0.17484 -0.41500
O 	O 	0.12047 0.16225 0.13107 -0.39800
O 	O 	0.76745 0.96905 0.10298 -0.36900
O 	O 	0.75290 0.84211 0.11144 -0.37000
O 	O 	0.03796 0.92414 0.05654 -0.74400
O 	O 	0.86594 0.75309 0.04754 -0.37700
O 	O 	0.21469 0.95408 0.07884 -0.34700
O 	O 	0.22476 0.07239 0.07757 -0.39300
Co	Co	0.02621 0.01707 0.52766 1.16100
Co	Co	0.09317 0.91852 0.52126 1.17600
C 	C 	0.19462 0.11858 0.49935 0.30700
O 	O 	0.06650 0.08981 0.69549 -0.39300
C 	C 	0.09513 0.03716 0.71840 0.25000
C 	C 	0.04442 0.21804 0.60317 0.29600
C 	C 	0.83455 0.83671 0.69075 0.30300
C 	C 	0.22593 0.92846 0.60332 0.29200
O 	O 	0.09937 0.99860 0.70062 -0.34100
O 	O 	0.22158 0.97136 0.56354 -0.37500
O 	O 	0.18581 0.92340 0.62488 -0.37700
O 	O 	0.06650 0.18515 0.59152 -0.40500
O 	O 	0.88908 0.91164 0.70312 -0.39400
O 	O 	0.86777 0.82238 0.67483 -0.38100
O 	O 	0.04756 0.93708 0.55288 -0.74100
O 	O 	0.14069 0.04936 0.48257 -0.43900
O 	O 	0.16163 0.12043 0.52131 -0.41800
C 	C 	0.16790 0.07517 0.82569 -0.03700
C 	C 	0.18414 0.12885 0.84543 -0.05800
C 	C 	0.11580 0.09066 0.86479 0.03400
S 	S 	0.20906 0.11680 0.78483 0.02900
C 	C 	0.12754 0.02571 0.76404 -0.11700
C 	C 	0.13561 0.11872 0.89857 -0.01400
H 	H 	0.24858 0.19707 0.84650 0.04600
H 	H 	0.20472 0.17498 0.91036 0.03800
H 	H 	0.08264 0.06112 0.33569 -0.00600
H 	H 	0.77789 0.74934 0.33345 0.05000
C 	C 	0.24615 0.46983 0.59025 -0.04300
C 	C 	0.21850 0.50018 0.60320 -0.00200
C 	C 	0.12697 0.44192 0.60833 -0.04300
C 	C 	0.06739 0.35177 0.60480 -0.00000
C 	C 	0.09964 0.31803 0.59724 -0.08000
C 	C 	0.18777 0.37881 0.58808 0.00700
H 	H 	0.31501 0.51544 0.58409 0.04900
H 	H 	0.10335 0.46473 0.61707 0.04700
H 	H 	0.21261 0.35515 0.58076 0.03900
C 	C 	0.60563 0.75334 0.69705 -0.04400
C 	C 	0.54680 0.72518 0.65963 0.00100
C 	C 	0.58000 0.72246 0.63549 -0.04300
C 	C 	0.67208 0.75050 0.64790 0.01700
C 	C 	0.73258 0.78300 0.68428 -0.08700
C 	C 	0.69782 0.78126 0.70954 0.00900
H 	H 	0.57997 0.75331 0.71651 0.05100
H 	H 	0.53478 0.69989 0.60672 0.05100
H 	H 	0.69777 0.75166 0.62801 0.03900
H 	H 	0.74342 0.80500 0.73801 0.03600
C 	C 	0.23162 0.72673 0.64229 -0.04300
C 	C 	0.31166 0.76712 0.63061 0.00100
C 	C 	0.37181 0.86292 0.61730 -0.04100
C 	C 	0.34913 0.91720 0.61311 0.00900
C 	C 	0.26595 0.87664 0.62209 -0.07700
C 	C 	0.20992 0.78146 0.63883 0.00900
H 	H 	0.18584 0.65318 0.65367 0.04800
H 	H 	0.43462 0.89527 0.60885 0.05600
H 	H 	0.39356 0.99050 0.60055 0.05200
H 	H 	0.14657 0.74920 0.64677 0.03500
C 	C 	0.19364 0.27418 0.20384 0.01100
C 	C 	0.15962 0.26552 0.16270 -0.09100
C 	C 	0.15726 0.33585 0.12893 0.01000
C 	C 	0.18428 0.41180 0.13624 -0.04500
C 	C 	0.21668 0.41961 0.17739 -0.00200
C 	C 	0.22171 0.35067 0.21113 -0.04900
H 	H 	0.19499 0.21990 0.23023 0.02800
H 	H 	0.13006 0.32952 0.09704 0.03300
H 	H 	0.18272 0.46601 0.10989 0.04700
H 	H 	0.24938 0.35733 0.24298 0.04300
C 	C 	0.56073 0.71188 0.18563 -0.04300
C 	C 	0.49259 0.72860 0.16595 -0.00000
C 	C 	0.50021 0.79619 0.12826 -0.04200
C 	C 	0.57198 0.84260 0.10929 0.00900
C 	C 	0.63679 0.82189 0.12784 -0.08000
C 	C 	0.63126 0.75691 0.16630 0.01000
H 	H 	0.55615 0.66052 0.21497 0.04800
H 	H 	0.44792 0.80956 0.11263 0.05200
H 	H 	0.57716 0.89454 0.08013 0.04400
H 	H 	0.68291 0.74274 0.18170 0.03800
C 	C 	0.26297 0.74335 0.18105 -0.04200
C 	C 	0.21546 0.65274 0.18080 -0.00100
C 	C 	0.11721 0.59334 0.17442 -0.04400
C 	C 	0.06699 0.62745 0.16254 0.00500
C 	C 	0.11411 0.72129 0.15611 -0.07900
C 	C 	0.21231 0.77717 0.16900 0.00800
H 	H 	0.33887 0.78895 0.18839 0.05500
H 	H 	0.07921 0.52208 0.17622 0.04800
H 	H 	0.24967 0.84913 0.16566 0.04900
C 	C 	0.64451 0.08224 0.56692 -0.01400
C 	C 	0.69943 0.17689 0.54944 -0.02200
C 	C 	0.77459 0.21619 0.53446 -0.03100
C 	C 	0.74912 0.06945 0.56064 -0.04500
C 	C 	0.66944 0.02878 0.57262 -0.08000
H 	H 	0.58538 0.05091 0.57799 0.02300
H 	H 	0.62991 0.95680 0.58842 0.08800
C 	C 	0.80184 0.47372 0.60341 -0.04400
C 	C 	0.81516 0.44727 0.58087 -0.00200
C 	C 	0.89376 0.51099 0.56369 -0.04700
H 	H 	0.74340 0.42415 0.61827 0.04600
C 	C 	0.42266 0.21087 0.48852 -0.05000
C 	C 	0.48124 0.23347 0.52707 -0.00200
C 	C 	0.44944 0.23360 0.55288 -0.05000
C 	C 	0.35766 0.20543 0.54153 0.01400
C 	C 	0.29642 0.17566 0.50451 -0.09600
C 	C 	0.33102 0.18334 0.47699 0.00700
H 	H 	0.44780 0.21384 0.46768 0.04300
H 	H 	0.49501 0.25294 0.58233 0.04500
H 	H 	0.33261 0.20140 0.56279 0.03100
H 	H 	0.28531 0.16329 0.44769 0.02700
C 	C 	0.84753 0.33042 0.00060 -0.07000
C 	C 	0.74944 0.26833 0.99535 0.02200
C 	C 	0.70542 0.17583 0.00015 -0.07200
C 	C 	0.75948 0.14440 0.01460 0.01300
C 	C 	0.85777 0.20485 0.02462 -0.09400
H 	H 	0.62976 0.12756 0.99440 0.05200
H 	H 	0.72507 0.07195 0.02092 0.02200
C 	C 	0.77348 0.50705 0.03082 -0.05500
C 	C 	0.74711 0.50504 0.98919 0.01000
C 	C 	0.76029 0.58276 0.95670 -0.05100
C 	C 	0.80048 0.66241 0.96591 0.02100
C 	C 	0.82634 0.66407 0.00765 -0.09300
C 	C 	0.81187 0.58575 0.03996 0.01600
H 	H 	0.76225 0.44667 0.05603 0.04800
H 	H 	0.73848 0.58115 0.92439 0.04900
H 	H 	0.81237 0.72298 0.94075 0.03700
H 	H 	0.83344 0.58694 0.07234 0.03600
C 	C 	0.41298 0.21880 0.99687 -0.02000
C 	C 	0.47935 0.20092 0.01257 -0.02600
C 	C 	0.47686 0.13458 0.05026 -0.03800
C 	C 	0.40966 0.08768 0.07216 -0.01100
C 	C 	0.34413 0.10646 0.05664 -0.06900
C 	C 	0.34741 0.17353 0.01929 -0.01100
H 	H 	0.41387 0.26967 0.96777 0.04300
H 	H 	0.52854 0.12115 0.06324 0.03600
H 	H 	0.40720 0.03526 0.10076 0.02500
H 	H 	0.29632 0.18762 0.00660 0.03600
C 	C 	0.08919 0.03904 0.96688 0.31200
O 	O 	0.13714 0.00502 0.99091 -0.42900
O 	O 	0.06402 0.06119 0.98321 -0.39600
C 	C 	0.79250 0.02178 0.57842 0.22800
O 	O 	0.80063 0.98009 0.61859 -0.33400
C 	C 	0.08406 0.98734 0.82344 0.03600
C 	C 	0.01671 0.99364 0.33530 0.02200
S 	S 	0.03637 0.97268 0.27621 0.05900
C 	C 	0.79851 0.16241 0.53950 -0.01400
O 	O 	0.05447 0.78913 0.55971 -0.40600
S 	S 	0.82318 0.83897 0.39234 0.03300
H 	H 	0.04438 0.05170 0.39739 -0.00700
H 	H 	0.81625 0.28886 0.52010 0.04300
Co	Co	0.04757 0.88400 0.60386 1.18600
O 	O 	0.83493 0.03302 0.55565 -0.37800
H 	H 	0.81235 0.76408 0.26887 0.04100
C 	C 	0.06273 0.95868 0.78957 0.02100
C 	C 	0.06537 0.05386 0.92135 -0.13200
C 	C 	0.84406 0.81661 0.33400 -0.06400
O 	O 	0.88104 0.79264 0.12355 -0.46500
H 	H 	0.85959 0.19445 0.52972 0.04100
O 	O 	0.86214 0.92308 0.18834 -0.39300
C 	C 	0.03059 0.00458 0.86104 -0.11100
C 	C 	0.86467 0.87437 0.35276 0.01600
H 	H 	0.88280 0.40258 0.99557 0.06100
O 	O 	0.02826 0.85311 0.65966 -0.46200
C 	C 	0.88326 0.82004 0.27959 -0.02200
C 	C 	0.01559 0.94973 0.84259 0.01400
C 	C 	0.85900 0.56541 0.60390 0.00900
H 	H 	0.84488 0.58550 0.61961 0.04200
Co	Co	0.89473 0.89802 0.12468 1.19600
H 	H 	0.00988 0.65179 0.54957 0.03600
Co	Co	0.89847 0.04121 0.14018 1.15200
H 	H 	0.90636 0.49094 0.54721 0.04900
H 	H 	0.99753 0.30707 0.60974 0.04100
C 	C 	0.99621 0.93591 0.31650 -0.02400
C 	C 	0.95169 0.60259 0.56453 0.01200
O 	O 	0.99064 0.09293 0.52211 -0.48000
C 	C 	0.97461 0.99367 0.38742 0.05600
H 	H 	0.95098 0.88159 0.84149 0.03300
C 	C 	0.93127 0.63122 0.58253 -0.08300
C 	C 	0.94923 0.88302 0.25463 -0.07500
H 	H 	0.99102 0.58278 0.15408 0.03500
O 	O 	0.95236 0.89410 0.18824 -0.38400
C 	C 	0.95076 0.96061 0.35464 -0.02300
O 	O 	0.95460 0.82246 0.00106 -0.38800
Co	Co	0.96674 0.05845 0.57719 1.17900
S 	S 	0.98363 0.96461 0.89939 0.13300
C 	C 	0.98207 0.72981 0.57686 0.30400
O 	O 	0.96990 0.16280 0.61816 -0.41000
O 	O 	0.96067 0.75607 0.59299 -0.39100
C 	C 	0.90919 0.85030 0.31393 0.03000
C 	C 	0.90122 0.29864 0.01523 0.02300
C 	C 	0.91786 0.89746 0.20889 0.30500
H 	H 	0.97707 0.34614 0.02228 0.03000
Co	Co	0.96197 0.84257 0.08712 1.19000
O 	O 	0.93565 0.00813 0.11156 -0.78800
O 	O 	0.96515 0.96389 0.07286 -0.55400
C 	C 	0.91197 0.16838 0.05512 0.30100
O 	O 	0.93328 0.16333 0.09485 -0.41100
O 	O 	0.94671 0.15004 0.04232 -0.38900
Co	Co	0.99053 0.92738 0.65414 1.19500
Co	Co	0.93130 0.03605 0.65933 1.15100
O 	O 	0.96038 0.00133 0.62727 -0.78600
O 	O 	0.97581 0.94782 0.58670 -0.56000
C 	C 	0.93673 0.92425 0.45701 0.30600
O 	O 	0.96073 0.86850 0.48285 -0.38700
O 	O 	0.94202 0.97628 0.47077 -0.34900
H 	H 	0.99493 0.89875 0.77994 0.04200
C 	C 	0.90777 0.93188 0.41184 -0.08900
