data_crystal

_cell_length_a 40.32426
_cell_length_b 39.92356
_cell_length_c 17.16366
_cell_angle_alpha 92.99966
_cell_angle_beta  91.96008
_cell_angle_gamma 90.10888

_symmetry_space_group_name_	'P 1'
_symmetry_space_group_name_H-M	'P 1'

loop_
_symmetry_equiv_pos_as_xyz
  x,y,z

loop_
_atom_site_label
_atom_site_type_symbol
_atom_site_fract_x
_atom_site_fract_y
_atom_site_fract_z
_atom_site_charge
Cd	Cd	0.85124 0.84773 0.19167 1.23900
Cd	Cd	0.82359 0.89669 0.35518 1.16500
O 	O 	0.82732 0.79151 0.16200 -0.32300
O 	O 	0.86478 0.81232 0.08968 -0.36100
C 	C 	0.84943 0.78555 0.10974 0.29200
O 	O 	0.87504 0.89741 0.17797 -0.39500
O 	O 	0.87054 0.91574 0.30576 -0.43800
C 	C 	0.87357 0.92214 0.23179 0.27300
C 	C 	0.78958 0.88195 0.18082 0.29300
O 	O 	0.84875 0.84424 0.34546 -0.45300
O 	O 	0.79924 0.87217 0.11125 -0.29400
O 	O 	0.80689 0.87077 0.23875 -0.54400
C 	C 	0.88046 0.83778 0.34521 0.28400
O 	O 	0.89342 0.83373 0.27686 -0.38700
Cd	Cd	0.03848 0.94630 0.03762 1.24200
Cd	Cd	0.04377 0.96480 0.83695 1.18100
O 	O 	0.07934 0.90767 0.09253 -0.31900
O 	O 	0.04003 0.92941 0.16250 -0.37800
C 	C 	0.06149 0.90526 0.15360 0.28800
O 	O 	0.00314 0.98900 0.02432 -0.38300
O 	O 	0.99632 0.98001 0.89218 -0.44400
C 	C 	0.99563 0.00032 0.95490 0.25000
C 	C 	0.08738 0.99220 0.99238 0.28600
O 	O 	0.03398 0.91530 0.89725 -0.44600
O 	O 	0.08434 0.99414 0.06821 -0.28700
O 	O 	0.07182 0.96743 0.95544 -0.53600
C 	C 	0.00539 0.90363 0.91733 0.29800
O 	O 	0.99854 0.90887 0.99058 -0.37700
C 	C 	0.01275 0.75606 0.06037 0.13100
N 	N 	0.00316 0.72655 0.08910 -0.14500
C 	C 	0.99620 0.69968 0.03895 0.13600
N 	N 	0.99759 0.70287 0.96082 -0.14800
C 	C 	0.00613 0.73251 0.93232 0.12900
N 	N 	0.01427 0.75891 0.98207 -0.14600
C 	C 	0.94324 0.66954 0.25385 0.12800
N 	N 	0.95300 0.68330 0.32488 -0.14200
C 	C 	0.97168 0.66535 0.37487 0.12800
N 	N 	0.97975 0.63317 0.35458 -0.14400
C 	C 	0.97041 0.61941 0.28310 0.12800
N 	N 	0.95170 0.63749 0.23306 -0.14100
Cd	Cd	0.84413 0.98286 0.72200 1.23900
Cd	Cd	0.90347 0.00061 0.87697 1.17400
O 	O 	0.79121 0.95939 0.75961 -0.32700
O 	O 	0.79853 0.97363 0.63935 -0.36000
C 	C 	0.77892 0.96119 0.68925 0.28900
O 	O 	0.88489 0.01055 0.66646 -0.38500
O 	O 	0.92467 0.99651 0.75784 -0.42600
C 	C 	0.91524 0.01400 0.69802 0.27600
C 	C 	0.83694 0.04238 0.81921 0.29700
O 	O 	0.87694 0.95132 0.83089 -0.45100
O 	O 	0.81771 0.04273 0.75649 -0.31000
O 	O 	0.85198 0.01417 0.83012 -0.53700
C 	C 	0.88700 0.93024 0.77602 0.29100
O 	O 	0.87400 0.93370 0.70635 -0.36400
Cd	Cd	0.75080 0.03649 0.47434 1.24000
Cd	Cd	0.79247 0.04385 0.29682 1.17700
O 	O 	0.69329 0.05622 0.48344 -0.32600
O 	O 	0.71667 0.02719 0.57472 -0.35100
C 	C 	0.68957 0.04052 0.54702 0.29000
O 	O 	0.79805 0.00794 0.48997 -0.38600
O 	O 	0.82716 0.03551 0.39947 -0.41800
C 	C 	0.82533 0.01201 0.45048 0.26600
C 	C 	0.73604 0.98928 0.34677 0.29900
O 	O 	0.77018 0.08341 0.38397 -0.45600
O 	O 	0.72438 0.97968 0.41197 -0.31200
O 	O 	0.74803 0.01963 0.34994 -0.53800
C 	C 	0.78579 0.09767 0.44493 0.29000
O 	O 	0.77901 0.08552 0.51178 -0.36200
C 	C 	0.62056 0.93217 0.72821 0.12700
N 	N 	0.61889 0.91400 0.79273 -0.14100
C 	C 	0.58989 0.91157 0.82993 0.12600
N 	N 	0.56248 0.92714 0.80200 -0.14500
C 	C 	0.56403 0.94549 0.73798 0.13000
N 	N 	0.59311 0.94809 0.70101 -0.14100
C 	C 	0.54726 0.96396 0.48202 0.12700
N 	N 	0.51617 0.97434 0.49918 -0.14100
C 	C 	0.49021 0.96666 0.44856 0.12600
N 	N 	0.49538 0.94775 0.38202 -0.14500
C 	C 	0.52622 0.93645 0.36593 0.12800
N 	N 	0.55200 0.94432 0.41644 -0.14100
Cd	Cd	0.95965 0.11735 0.23991 1.24000
Cd	Cd	0.94252 0.06625 0.39989 1.18100
O 	O 	0.00463 0.15839 0.26410 -0.32300
O 	O 	0.97858 0.15281 0.14998 -0.35600
C 	C 	0.00111 0.16869 0.19388 0.29200
O 	O 	0.92543 0.07720 0.18675 -0.38900
O 	O 	0.90369 0.06641 0.30428 -0.42400
C 	C 	0.90968 0.05690 0.23168 0.28100
C 	C 	0.00168 0.06230 0.27194 0.29800
O 	O 	0.93899 0.12333 0.38446 -0.44600
O 	O 	0.00810 0.07403 0.20435 -0.30000
O 	O 	0.98194 0.08037 0.31479 -0.53100
C 	C 	0.91320 0.13925 0.35692 0.29100
O 	O 	0.91507 0.14774 0.28478 -0.35700
Cd	Cd	0.93124 0.20831 0.97791 1.23900
Cd	Cd	0.90413 0.16518 0.80013 1.16400
O 	O 	0.90296 0.26007 0.02305 -0.32000
O 	O 	0.94378 0.23888 0.09077 -0.35000
C 	C 	0.92500 0.26480 0.07970 0.29000
O 	O 	0.95959 0.16045 0.97812 -0.38700
O 	O 	0.95359 0.14821 0.84676 -0.45700
C 	C 	0.95883 0.13829 0.91819 0.26100
C 	C 	0.87427 0.16615 0.97471 0.28100
O 	O 	0.92507 0.21891 0.82704 -0.45900
O 	O 	0.88436 0.17401 0.04670 -0.29000
O 	O 	0.88807 0.18291 0.92186 -0.54100
C 	C 	0.95611 0.22833 0.83112 0.29400
O 	O 	0.97002 0.23102 0.90083 -0.37800
C 	C 	0.99874 0.40282 0.00010 0.13300
N 	N 	0.01678 0.39256 0.93803 -0.14700
C 	C 	0.02477 0.41442 0.88383 0.12700
N 	N 	0.01551 0.44698 0.89283 -0.14600
C 	C 	0.99824 0.45774 0.95590 0.12200
N 	N 	0.98998 0.43558 0.00984 -0.13900
C 	C 	0.05173 0.32461 0.23896 0.12800
N 	N 	0.07042 0.32578 0.30640 -0.14100
C 	C 	0.07417 0.35500 0.34996 0.12900
N 	N 	0.06075 0.38350 0.32328 -0.14300
C 	C 	0.04258 0.38272 0.25524 0.13000
N 	N 	0.03771 0.35315 0.21345 -0.14000
Cd	Cd	0.09449 0.12718 0.63263 1.23900
Cd	Cd	0.04670 0.13978 0.80309 1.17600
O 	O 	0.15108 0.15003 0.63960 -0.32500
O 	O 	0.13438 0.11566 0.54317 -0.35300
C 	C 	0.15936 0.13104 0.57981 0.29200
O 	O 	0.04883 0.09607 0.60593 -0.38900
O 	O 	0.01678 0.12568 0.69332 -0.42800
C 	C 	0.02165 0.09894 0.64685 0.27600
C 	C 	0.10562 0.08501 0.76024 0.29800
O 	O 	0.07220 0.17634 0.72271 -0.45400
O 	O 	0.11979 0.07316 0.69745 -0.30400
O 	O 	0.09328 0.11492 0.75617 -0.53300
C 	C 	0.05869 0.18921 0.66107 0.28900
O 	O 	0.06607 0.17456 0.59402 -0.35500
Cd	Cd	0.01671 0.91708 0.56675 1.23800
Cd	Cd	0.98227 0.89052 0.37902 1.17300
O 	O 	0.07332 0.89946 0.60206 -0.32800
O 	O 	0.04793 0.93835 0.67086 -0.45500
C 	C 	0.07608 0.92426 0.65400 0.29000
O 	O 	0.96974 0.94638 0.55531 -0.39400
O 	O 	0.94431 0.91041 0.46259 -0.42600
C 	C 	0.94529 0.93930 0.50360 0.28700
C 	C 	0.03592 0.95033 0.43198 0.30900
O 	O 	0.00126 0.86169 0.48601 -0.45600
O 	O 	0.04597 0.96656 0.49636 -0.30600
O 	O 	0.02389 0.92069 0.44116 -0.53900
C 	C 	0.98311 0.85300 0.54314 0.29000
O 	O 	0.98669 0.87178 0.60769 -0.35800
C 	C 	0.28377 0.05327 0.73414 0.12700
N 	N 	0.31582 0.04522 0.72001 -0.14100
C 	C 	0.33492 0.03085 0.77615 0.12500
N 	N 	0.32131 0.02330 0.84458 -0.14600
C 	C 	0.28897 0.03035 0.85733 0.12900
N 	N 	0.27057 0.04605 0.80283 -0.14200
C 	C 	0.19876 0.00812 0.51801 0.12800
N 	N 	0.23039 0.01339 0.54553 -0.14100
C 	C 	0.25428 0.02212 0.49635 0.13000
N 	N 	0.24658 0.02462 0.41939 -0.14500
C 	C 	0.21525 0.01864 0.39128 0.13100
N 	N 	0.19122 0.01067 0.44072 -0.13900
C 	C 	0.20894 0.01542 0.30641 -0.05000
C 	C 	0.21671 0.98514 0.26455 0.10500
C 	C 	0.22482 0.98588 0.18580 -0.08400
C 	C 	0.22445 0.01621 0.14826 -0.00500
C 	C 	0.21127 0.04524 0.18645 0.07400
C 	C 	0.20391 0.04465 0.26580 -0.05200
N 	N 	0.21744 0.95554 0.30035 -0.20000
H 	H 	0.23313 0.96319 0.15497 0.05600
C 	C 	0.24206 0.01829 0.07429 -0.00500
N 	N 	0.20642 0.07382 0.14789 -0.19400
H 	H 	0.19644 0.06755 0.29717 0.05200
C 	C 	0.22639 0.00612 0.00432 -0.08000
C 	C 	0.24269 0.00691 0.93345 0.09500
C 	C 	0.27425 0.02255 0.93195 -0.05700
C 	C 	0.29029 0.03388 0.00222 -0.04500
C 	C 	0.27479 0.03131 0.07369 0.07000
H 	H 	0.20173 0.99528 0.00527 0.05800
N 	N 	0.22855 0.99158 0.86784 -0.19700
H 	H 	0.31469 0.04530 0.00123 0.05000
N 	N 	0.29146 0.04126 0.14129 -0.19400
H 	H 	0.20448 0.98184 0.86836 0.08200
H 	H 	0.24196 0.98733 0.81732 0.09400
H 	H 	0.31526 0.05158 0.13999 0.08500
H 	H 	0.28145 0.03813 0.19572 0.09100
H 	H 	0.19785 0.09554 0.17722 0.08800
H 	H 	0.21005 0.07441 0.08802 0.09300
H 	H 	0.20994 0.95399 0.35767 0.09600
H 	H 	0.22449 0.93346 0.26998 0.08700
C 	C 	0.10490 0.94513 0.65122 -0.13900
C 	C 	0.12824 0.96191 0.63475 0.06000
C 	C 	0.15407 0.97993 0.60238 -0.01200
C 	C 	0.17495 0.99368 0.56677 -0.02000
C 	C 	0.19093 0.11466 0.58464 -0.09100
C 	C 	0.21628 0.10074 0.60303 0.05200
C 	C 	0.24340 0.08440 0.63853 -0.00300
C 	C 	0.26368 0.07022 0.67802 -0.02700
C 	C 	0.03888 0.40184 0.81005 -0.05100
C 	C 	0.01901 0.39861 0.74039 0.10100
C 	C 	0.03349 0.38744 0.67068 -0.08500
C 	C 	0.06697 0.37807 0.66980 -0.00400
C 	C 	0.08664 0.38036 0.73983 0.06800
C 	C 	0.07240 0.39256 0.80930 -0.05300
N 	N 	0.98597 0.40556 0.74029 -0.19900
H 	H 	0.01851 0.38552 0.61692 0.05500
C 	C 	0.08094 0.36615 0.59472 -0.00700
N 	N 	0.11895 0.37057 0.74101 -0.19400
H 	H 	0.08742 0.39469 0.86298 0.04600
C 	C 	0.09798 0.38896 0.55112 -0.08600
C 	C 	0.10132 0.38271 0.47051 0.10200
C 	C 	0.08544 0.35437 0.43282 -0.05000
C 	C 	0.07344 0.32907 0.47842 -0.05400
C 	C 	0.07144 0.33462 0.55957 0.07200
H 	H 	0.10725 0.41226 0.57917 0.05400
N 	N 	0.11967 0.40383 0.42962 -0.19900
H 	H 	0.06343 0.30609 0.45037 0.05500
N 	N 	0.05966 0.31002 0.60313 -0.19400
H 	H 	0.13019 0.42551 0.45702 0.08500
H 	H 	0.12498 0.39802 0.37132 0.09200
H 	H 	0.05152 0.28718 0.57653 0.09000
H 	H 	0.05961 0.31291 0.66397 0.08800
H 	H 	0.13335 0.37269 0.79285 0.08200
H 	H 	0.12997 0.36036 0.69104 0.08700
H 	H 	0.97382 0.41158 0.79186 0.09300
H 	H 	0.97176 0.40395 0.68814 0.08500
C 	C 	0.99783 0.19631 0.65196 -0.03000
C 	C 	0.02931 0.21051 0.66887 -0.08200
C 	C 	0.03177 0.23954 0.71829 -0.02500
C 	C 	0.00521 0.24896 0.76465 -0.00600
C 	C 	0.97625 0.22929 0.76140 -0.10600
C 	C 	0.97142 0.20503 0.69978 -0.00100
H 	H 	0.99487 0.17575 0.60853 0.04500
H 	H 	0.05545 0.25221 0.72799 0.03400
H 	H 	0.00841 0.26930 0.80860 0.03700
H 	H 	0.94846 0.19086 0.69351 -0.03600
C 	C 	0.93948 0.29761 0.09109 -0.09400
C 	C 	0.95268 0.32457 0.08755 0.05300
C 	C 	0.96870 0.35446 0.06920 0.00000
C 	C 	0.98249 0.37792 0.04273 -0.02800
C 	C 	0.04312 0.01750 0.29348 -0.00800
C 	C 	0.00992 0.02776 0.29014 -0.09900
C 	C 	0.98506 0.00612 0.31320 -0.03300
C 	C 	0.99370 0.97618 0.34705 -0.01400
C 	C 	0.02717 0.96892 0.36301 -0.12200
C 	C 	0.05177 0.98813 0.33014 0.01100
H 	H 	0.06243 0.03347 0.27315 0.04700
H 	H 	0.95925 0.01338 0.30913 -0.03100
H 	H 	0.97442 0.96046 0.36808 -0.03000
H 	H 	0.07773 0.98205 0.33945 0.03900
C 	C 	0.01118 0.20214 0.17889 -0.09400
C 	C 	0.02010 0.23092 0.17752 0.05700
C 	C 	0.03091 0.26454 0.18813 -0.00200
C 	C 	0.04037 0.29257 0.20667 -0.02700
C 	C 	0.28932 0.02360 0.52341 -0.05000
C 	C 	0.31113 0.04719 0.49373 0.10500
C 	C 	0.34505 0.03985 0.49080 -0.08500
C 	C 	0.35766 0.01066 0.52275 -0.00600
C 	C 	0.33670 0.99105 0.56715 0.07600
C 	C 	0.30245 0.99716 0.56518 -0.04900
N 	N 	0.29958 0.07677 0.46812 -0.19900
H 	H 	0.36141 0.05625 0.46132 0.05300
C 	C 	0.39155 0.99924 0.50251 -0.00400
N 	N 	0.34915 0.96603 0.60997 -0.19400
H 	H 	0.28592 0.98033 0.59291 0.05100
C 	C 	0.41866 0.02064 0.52077 -0.08800
C 	C 	0.45076 0.01157 0.49870 0.10000
C 	C 	0.45634 0.97894 0.46504 -0.04700
C 	C 	0.42912 0.95772 0.44586 -0.05600
C 	C 	0.39664 0.96843 0.45972 0.06900
H 	H 	0.41445 0.04533 0.54789 0.05300
N 	N 	0.47543 0.03492 0.50510 -0.19800
H 	H 	0.43315 0.93307 0.41832 0.04900
N 	N 	0.37059 0.94974 0.42934 -0.19400
H 	H 	0.47208 0.05755 0.53727 0.08300
H 	H 	0.49661 0.03238 0.47205 0.09500
H 	H 	0.37457 0.92607 0.40238 0.08300
H 	H 	0.34654 0.95934 0.42714 0.09000
H 	H 	0.33338 0.95102 0.64047 0.08400
H 	H 	0.37460 0.96237 0.61655 0.08700
H 	H 	0.27500 0.08404 0.47601 0.09500
H 	H 	0.31558 0.09355 0.44337 0.08500
C 	C 	0.53499 0.96494 0.71375 -0.05100
C 	C 	0.52913 0.99696 0.74964 0.10600
C 	C 	0.49659 0.00934 0.75164 -0.09000
C 	C 	0.47015 0.99070 0.71612 -0.00100
C 	C 	0.47696 0.96103 0.67040 0.07300
C 	C 	0.50934 0.94826 0.67053 -0.04800
N 	N 	0.55449 0.01554 0.78370 -0.20100
H 	H 	0.49168 0.03288 0.78351 0.05300
C 	C 	0.43551 0.00097 0.73278 -0.00900
N 	N 	0.45245 0.94429 0.62836 -0.19300
H 	H 	0.51421 0.92434 0.64021 0.04900
C 	C 	0.42421 0.03234 0.71013 -0.08500
C 	C 	0.39199 0.04333 0.72671 0.09900
C 	C 	0.36979 0.02132 0.76134 -0.04900
C 	C 	0.38129 0.99008 0.78472 -0.05500
C 	C 	0.41442 0.98052 0.77472 0.07000
H 	H 	0.44100 0.04883 0.68214 0.05100
N 	N 	0.38326 0.07545 0.71317 -0.19800
H 	H 	0.36459 0.97342 0.81243 0.04900
N 	N 	0.42600 0.95230 0.80738 -0.19500
H 	H 	0.39850 0.09037 0.68106 0.08200
H 	H 	0.36301 0.08682 0.73991 0.09400
H 	H 	0.40980 0.93643 0.83438 0.08200
H 	H 	0.45129 0.94685 0.81045 0.08800
H 	H 	0.45733 0.92154 0.59806 0.08500
H 	H 	0.42893 0.95460 0.62173 0.08800
H 	H 	0.57911 0.00779 0.77940 0.09500
H 	H 	0.54985 0.03866 0.81266 0.08400
C 	C 	0.58962 0.89800 0.90812 -0.04500
C 	C 	0.56378 0.87634 0.92789 0.09000
C 	C 	0.55534 0.87490 0.00635 -0.07500
C 	C 	0.57278 0.89431 0.06467 -0.01200
C 	C 	0.60229 0.91089 0.04615 0.08300
C 	C 	0.61044 0.91268 0.96761 -0.06500
N 	N 	0.54688 0.85726 0.87183 -0.19700
H 	H 	0.53388 0.86047 0.02134 0.05200
C 	C 	0.55663 0.90260 0.13935 -0.00200
N 	N 	0.62225 0.92594 0.10317 -0.19600
H 	H 	0.63151 0.92768 0.95262 0.05400
C 	C 	0.56247 0.88229 0.20258 -0.08800
C 	C 	0.55042 0.89156 0.27648 0.10100
C 	C 	0.53288 0.92206 0.28720 -0.05000
C 	C 	0.52504 0.94103 0.22268 -0.05200
C 	C 	0.53668 0.93162 0.14871 0.07100
H 	H 	0.57685 0.85952 0.19458 0.05400
N 	N 	0.55517 0.87084 0.33627 -0.19900
H 	H 	0.51093 0.96399 0.23067 0.05100
N 	N 	0.52896 0.95071 0.08724 -0.19400
H 	H 	0.56914 0.84895 0.32865 0.08500
H 	H 	0.54397 0.87550 0.38969 0.09200
H 	H 	0.51477 0.97243 0.09518 0.08600
H 	H 	0.53640 0.94402 0.03092 0.09300
H 	H 	0.64340 0.93917 0.08888 0.08900
H 	H 	0.61758 0.92372 0.16214 0.09100
H 	H 	0.55424 0.85613 0.81397 0.09000
H 	H 	0.52696 0.84227 0.88631 0.08200
C 	C 	0.84561 0.10763 0.48096 -0.01600
C 	C 	0.81727 0.11560 0.43568 -0.08900
C 	C 	0.82037 0.13678 0.37370 -0.02900
C 	C 	0.85174 0.14727 0.35250 -0.01000
C 	C 	0.88041 0.13608 0.39211 -0.08800
C 	C 	0.87705 0.11775 0.45916 -0.02400
H 	H 	0.84354 0.09175 0.52987 0.03500
H 	H 	0.79861 0.14387 0.33971 0.02600
H 	H 	0.85380 0.16264 0.30271 0.04500
H 	H 	0.89882 0.10982 0.49199 -0.01800
C 	C 	0.85500 0.96248 0.50163 -0.04600
C 	C 	0.85617 0.99512 0.47528 -0.06500
C 	C 	0.88713 0.01075 0.46772 -0.02400
C 	C 	0.91651 0.99316 0.48186 -0.01800
C 	C 	0.91523 0.96001 0.50470 -0.06800
C 	C 	0.88441 0.94521 0.51728 -0.01900
H 	H 	0.83139 0.95005 0.50744 -0.00100
H 	H 	0.88844 0.03629 0.44964 -0.02300
H 	H 	0.94019 0.00495 0.47277 -0.03300
H 	H 	0.88323 0.92001 0.53721 0.02800
C 	C 	0.65808 0.02511 0.55870 -0.09000
C 	C 	0.63140 0.01138 0.55703 0.05100
C 	C 	0.60068 0.99486 0.54232 0.00200
C 	C 	0.57547 0.98065 0.51976 -0.02700
C 	C 	0.97319 0.01953 0.65506 -0.02100
C 	C 	0.94073 0.03228 0.65755 -0.07600
C 	C 	0.93475 0.06526 0.63658 -0.04700
C 	C 	0.96144 0.08658 0.62399 -0.04500
C 	C 	0.99422 0.07487 0.63151 -0.08500
C 	C 	0.99979 0.04071 0.64146 -0.03100
H 	H 	0.97812 0.99395 0.67002 0.02800
H 	H 	0.90974 0.07514 0.63604 0.00900
H 	H 	0.95676 0.11273 0.61369 0.01200
H 	H 	0.02490 0.03120 0.64571 0.02300
C 	C 	0.82397 0.10193 0.85740 -0.01200
C 	C 	0.84223 0.07276 0.87134 -0.12700
C 	C 	0.86662 0.07356 0.93192 0.00100
C 	C 	0.87459 0.10389 0.97307 -0.05400
C 	C 	0.85860 0.13364 0.95317 -0.09800
C 	C 	0.83224 0.13219 0.89785 -0.05300
H 	H 	0.80421 0.10149 0.81297 0.03400
H 	H 	0.88002 0.05106 0.94576 -0.07100
H 	H 	0.89445 0.10460 0.01719 0.04400
H 	H 	0.81939 0.15491 0.88292 0.01900
C 	C 	0.65246 0.93969 0.69889 -0.02800
C 	C 	0.68051 0.94563 0.68169 -0.00200
C 	C 	0.71449 0.95194 0.67183 0.05900
C 	C 	0.74402 0.95662 0.67364 -0.09700
C 	C 	0.97920 0.58435 0.26158 -0.04800
C 	C 	0.01217 0.57270 0.27162 0.09800
C 	C 	0.01864 0.53825 0.26251 -0.08800
C 	C 	0.99348 0.51557 0.23681 -0.00200
C 	C 	0.96076 0.52741 0.22339 0.07000
C 	C 	0.95394 0.56168 0.23663 -0.05300
N 	N 	0.03780 0.59450 0.28732 -0.20000
H 	H 	0.04359 0.52912 0.27347 0.05500
C 	C 	0.00136 0.47922 0.22906 -0.00700
N 	N 	0.93591 0.50614 0.19740 -0.19500
H 	H 	0.92878 0.57067 0.22807 0.05000
C 	C 	0.98734 0.45749 0.28062 -0.08500
C 	C 	0.99733 0.42390 0.28167 0.10500
C 	C 	0.02362 0.41256 0.23481 -0.05000
C 	C 	0.03623 0.43352 0.17989 -0.05000
C 	C 	0.02519 0.46678 0.17603 0.07600
H 	H 	0.96881 0.46684 0.32051 0.05500
N 	N 	0.98190 0.40271 0.32842 -0.19900
H 	H 	0.05572 0.42443 0.14234 0.05100
N 	N 	0.03785 0.48668 0.12229 -0.19400
H 	H 	0.96335 0.41153 0.36525 0.08600
H 	H 	0.98723 0.37709 0.32635 0.09600
H 	H 	0.05615 0.47760 0.08511 0.08800
H 	H 	0.02877 0.51079 0.11465 0.09200
H 	H 	0.91156 0.51483 0.19144 0.08100
H 	H 	0.94066 0.48135 0.17896 0.09100
H 	H 	0.03460 0.62035 0.28488 0.09100
H 	H 	0.06181 0.58557 0.29778 0.08200
C 	C 	0.98559 0.66739 0.06779 -0.04800
C 	C 	0.00931 0.64584 0.10104 0.10200
C 	C 	0.00558 0.61097 0.08840 -0.08100
C 	C 	0.97905 0.59758 0.04141 -0.00600
C 	C 	0.95299 0.61906 0.01788 0.07900
C 	C 	0.95565 0.65363 0.03673 -0.04900
N 	N 	0.03617 0.65844 0.14276 -0.20000
H 	H 	0.02458 0.59437 0.11027 0.05500
C 	C 	0.98121 0.56236 0.00936 0.00600
N 	N 	0.92652 0.60716 0.97338 -0.19800
H 	H 	0.93632 0.67027 0.01656 0.05300
C 	C 	0.95823 0.53844 0.03126 -0.09200
C 	C 	0.96095 0.50469 0.00477 0.11000
C 	C 	0.99016 0.49384 0.96759 -0.05900
C 	C 	0.01275 0.51786 0.94418 -0.05200
C 	C 	0.00744 0.55215 0.96081 0.05700
H 	H 	0.93709 0.54646 0.06474 0.05800
N 	N 	0.93451 0.48375 0.00892 -0.19600
H 	H 	0.03451 0.50991 0.91284 0.04800
N 	N 	0.02710 0.57513 0.92882 -0.19300
H 	H 	0.91341 0.49169 0.03831 0.08400
H 	H 	0.93335 0.46078 0.97696 0.08700
H 	H 	0.04746 0.56738 0.89644 0.08100
H 	H 	0.02129 0.60063 0.93181 0.08700
H 	H 	0.90692 0.62307 0.95924 0.08300
H 	H 	0.92572 0.58264 0.94930 0.08500
H 	H 	0.03778 0.68383 0.16023 0.09400
H 	H 	0.05511 0.64255 0.16117 0.08300
C 	C 	0.00758 0.73549 0.84748 -0.05200
C 	C 	0.98067 0.74916 0.80464 0.10300
C 	C 	0.97794 0.74259 0.72347 -0.08400
C 	C 	0.00151 0.72261 0.68506 -0.00700
C 	C 	0.03048 0.71267 0.72646 0.07100
C 	C 	0.03316 0.71912 0.80760 -0.05200
N 	N 	0.95714 0.76799 0.84110 -0.20000
H 	H 	0.95649 0.75147 0.69085 0.05800
C 	C 	0.99323 0.70804 0.60569 -0.00100
N 	N 	0.05538 0.69631 0.68900 -0.19400
H 	H 	0.05440 0.70981 0.84029 0.04700
C 	C 	0.00224 0.72545 0.54076 -0.09000
C 	C 	0.99726 0.71106 0.46481 0.10200
C 	C 	0.98068 0.67973 0.45370 -0.05100
C 	C 	0.97128 0.66256 0.51867 -0.05200
C 	C 	0.97744 0.67632 0.59466 0.07000
H 	H 	0.01439 0.74968 0.54952 0.05600
N 	N 	0.00963 0.72670 0.40344 -0.20000
H 	H 	0.95864 0.63858 0.51005 0.05000
N 	N 	0.96796 0.65909 0.65662 -0.19400
H 	H 	0.02051 0.75046 0.41180 0.08000
H 	H 	0.01032 0.71475 0.34795 0.09100
H 	H 	0.95660 0.63558 0.64779 0.08400
H 	H 	0.97146 0.66883 0.71394 0.09000
H 	H 	0.07620 0.68806 0.72039 0.08300
H 	H 	0.05476 0.69245 0.62833 0.08800
H 	H 	0.95904 0.77428 0.90087 0.09600
H 	H 	0.93697 0.77733 0.80919 0.08900
C 	C 	0.97479 0.05539 0.01029 -0.02100
C 	C 	0.98652 0.03582 0.94671 -0.12300
C 	C 	0.99038 0.05047 0.87486 -0.02900
C 	C 	0.98220 0.08403 0.86627 -0.05100
C 	C 	0.97005 0.10357 0.92939 -0.10500
C 	C 	0.96651 0.08908 0.00161 -0.00900
H 	H 	0.97171 0.04449 0.06604 0.04100
H 	H 	0.00015 0.03593 0.82580 -0.00600
H 	H 	0.98527 0.09480 0.81040 0.00100
H 	H 	0.95656 0.10359 0.05038 0.03300
C 	C 	0.94943 0.88060 0.88298 0.00000
C 	C 	0.97832 0.89629 0.85918 -0.09600
C 	C 	0.97717 0.91282 0.78888 0.00500
C 	C 	0.94648 0.91973 0.75292 -0.02900
C 	C 	0.91712 0.91050 0.78793 -0.07900
C 	C 	0.91874 0.88834 0.84852 -0.02100
H 	H 	0.95033 0.86561 0.93385 0.03800
H 	H 	0.99954 0.92314 0.76651 -0.03400
H 	H 	0.94547 0.93500 0.70257 0.04800
H 	H 	0.89617 0.87955 0.87335 0.03800
C 	C 	0.12859 0.04022 0.84193 -0.00400
C 	C 	0.10554 0.06615 0.83191 -0.12200
C 	C 	0.08054 0.07134 0.88619 0.00600
C 	C 	0.07701 0.04909 0.94577 -0.04700
C 	C 	0.09792 0.02113 0.95029 -0.09700
C 	C 	0.12464 0.01772 0.90053 -0.03700
H 	H 	0.14870 0.03657 0.80208 0.04000
H 	H 	0.06290 0.09148 0.88013 -0.07200
H 	H 	0.05675 0.05237 0.98525 0.04000
H 	H 	0.14124 0.99651 0.90439 0.02800
C 	C 	0.05137 0.87201 0.17028 -0.12500
C 	C 	0.04206 0.84325 0.16665 0.03400
C 	C 	0.03108 0.81046 0.14410 -0.01700
C 	C 	0.02221 0.78426 0.11177 -0.03300
C 	C 	0.85693 0.98186 0.23263 -0.04000
C 	C 	0.87960 0.95684 0.21105 -0.07700
C 	C 	0.90927 0.96574 0.17667 -0.02200
C 	C 	0.91744 0.99971 0.17113 -0.02600
C 	C 	0.89592 0.02474 0.19987 -0.09700
C 	C 	0.86428 0.01546 0.22258 0.00000
H 	H 	0.83455 0.97545 0.26154 -0.02000
H 	H 	0.92688 0.94658 0.15901 0.02500
H 	H 	0.94175 0.00644 0.15182 0.02800
H 	H 	0.84698 0.03459 0.24176 -0.06600
C 	C 	0.77829 0.94295 0.18189 -0.04800
C 	C 	0.76703 0.91033 0.19318 -0.09500
C 	C 	0.73885 0.90597 0.23707 -0.03700
C 	C 	0.72574 0.93318 0.28012 -0.00700
C 	C 	0.74114 0.96480 0.28051 -0.12900
C 	C 	0.76539 0.97023 0.22568 0.00300
H 	H 	0.79898 0.94681 0.14468 0.03300
H 	H 	0.72899 0.88104 0.24350 0.03100
H 	H 	0.70534 0.92907 0.31801 0.03600
H 	H 	0.77553 0.99500 0.21996 -0.08200
C 	C 	0.95208 0.80891 0.46556 -0.02900
C 	C 	0.95198 0.83458 0.52456 -0.08700
C 	C 	0.92167 0.85020 0.54166 -0.01400
C 	C 	0.89520 0.84761 0.48657 -0.00700
C 	C 	0.89903 0.82867 0.41632 -0.09600
C 	C 	0.92585 0.80639 0.41026 -0.01800
H 	H 	0.97437 0.79438 0.45593 0.03100
H 	H 	0.92019 0.86798 0.59133 0.05000
H 	H 	0.87324 0.86275 0.49504 0.00000
H 	H 	0.92783 0.78945 0.35923 0.03900
C 	C 	0.92269 0.68862 0.20274 -0.02900
C 	C 	0.90533 0.70713 0.16611 -0.00700
C 	C 	0.88506 0.73177 0.13287 0.05200
C 	C 	0.86819 0.75525 0.11522 -0.09900
