data_crystal

_cell_length_a 18.54471
_cell_length_b 18.92275
_cell_length_c 26.45650
_cell_angle_alpha 95.43712
_cell_angle_beta  95.43675
_cell_angle_gamma 126.42127

_symmetry_space_group_name_	'P 1'
_symmetry_space_group_name_H-M	'P 1'

loop_
_symmetry_equiv_pos_as_xyz
  x,y,z

loop_
_atom_site_label
_atom_site_type_symbol
_atom_site_fract_x
_atom_site_fract_y
_atom_site_fract_z
_atom_site_charge
C 	C 	0.95317 0.04044 0.00172 0.14100
C 	C 	0.89339 0.94809 0.00045 -0.10800
C 	C 	0.92582 0.89760 0.99824 0.13700
C 	C 	0.01779 0.93898 0.99696 -0.10700
C 	C 	0.07821 0.03132 0.99889 0.13400
C 	C 	0.04590 0.08225 0.00120 -0.09700
H 	H 	0.82173 0.91556 0.00075 0.09500
H 	H 	0.04247 0.89941 0.99475 0.10400
H 	H 	0.09245 0.15375 0.00245 0.10300
C 	C 	0.90397 0.99423 0.44731 0.09700
C 	C 	0.85865 0.90246 0.44768 -0.07300
C 	C 	0.90832 0.86789 0.44888 0.12600
C 	C 	0.00244 0.92506 0.44999 -0.10700
C 	C 	0.04718 0.01587 0.44961 0.12500
C 	C 	0.99817 0.05035 0.44819 -0.07500
H 	H 	0.78587 0.85868 0.44720 0.10500
H 	H 	0.04100 0.89888 0.45143 0.09600
H 	H 	0.03351 0.12111 0.44853 0.08200
Cu	Cu	0.62497 0.20902 0.00991 0.93800
Cu	Cu	0.69963 0.22901 0.90089 0.88200
Cu	Cu	0.65847 0.34671 0.94475 0.90700
Cu	Cu	0.61919 0.36691 0.04910 0.90900
C 	C 	0.65254 0.27017 0.11861 0.32800
O 	O 	0.49136 0.15060 0.01125 -0.33600
C 	C 	0.64082 0.30097 0.83234 0.32200
O 	O 	0.69282 0.34742 0.01574 -0.63500
O 	O 	0.60794 0.21852 0.93662 -0.63900
O 	O 	0.68715 0.15265 0.00353 -0.32200
O 	O 	0.78573 0.25503 0.95867 -0.42400
O 	O 	0.60705 0.30151 0.10666 -0.36000
O 	O 	0.71731 0.47338 0.95507 -0.33600
C 	C 	0.71528 0.52115 0.99393 0.33900
C 	C 	0.45277 0.18608 0.99413 0.33000
O 	O 	0.50402 0.26962 0.98830 -0.36600
O 	O 	0.66682 0.48458 0.03005 -0.36500
O 	O 	0.66017 0.22257 0.08282 -0.31400
C 	C 	0.76470 0.19416 0.98683 0.33700
O 	O 	0.63174 0.34400 0.87055 -0.32400
O 	O 	0.64243 0.23356 0.83855 -0.38700
H 	H 	0.75911 0.38955 0.03001 0.19100
H 	H 	0.54481 0.17674 0.91657 0.20500
Cu	Cu	0.75813 0.34141 0.44501 0.93400
Cu	Cu	0.74166 0.27148 0.55517 0.88200
Cu	Cu	0.61640 0.30478 0.51040 0.90600
Cu	Cu	0.59033 0.33777 0.40481 0.91000
C 	C 	0.69279 0.30984 0.33616 0.32900
O 	O 	0.81228 0.47225 0.44276 -0.31400
C 	C 	0.66627 0.32712 0.62308 0.32200
O 	O 	0.61618 0.27066 0.43947 -0.63700
O 	O 	0.74832 0.35842 0.51825 -0.63700
O 	O 	0.81607 0.27960 0.45162 -0.32300
O 	O 	0.71302 0.18520 0.49800 -0.42300
O 	O 	0.65833 0.35218 0.34760 -0.34400
O 	O 	0.48623 0.24315 0.50064 -0.33500
C 	C 	0.43428 0.23596 0.45955 0.34200
C 	C 	0.77143 0.50645 0.45816 0.32700
O 	O 	0.68688 0.45298 0.46479 -0.38300
O 	O 	0.46919 0.28528 0.42386 -0.37000
O 	O 	0.74446 0.30630 0.37213 -0.31200
C 	C 	0.77386 0.20408 0.46920 0.33700
O 	O 	0.61980 0.33265 0.58457 -0.33300
O 	O 	0.73679 0.32848 0.61692 -0.38900
H 	H 	0.57530 0.20541 0.42596 0.18900
H 	H 	0.78940 0.42075 0.53773 0.19400
C 	C 	0.56075 0.25243 0.74052 0.10800
C 	C 	0.63473 0.31929 0.77981 -0.09200
C 	C 	0.70896 0.39843 0.76714 0.10200
C 	C 	0.71462 0.40530 0.71491 0.11000
C 	C 	0.64723 0.33228 0.67560 -0.09500
C 	C 	0.56739 0.25835 0.68829 0.10300
Br	Br	0.46929 0.16346 0.63423 -0.14900
Br	Br	0.45049 0.15347 0.75844 -0.13600
Br	Br	0.81384 0.51454 0.69701 -0.15400
Br	Br	0.80466 0.49547 0.82123 -0.15100
C 	C 	0.75603 0.34050 0.20458 0.10700
C 	C 	0.67294 0.26777 0.17325 -0.09000
C 	C 	0.60438 0.19948 0.19586 0.11300
C 	C 	0.61469 0.20933 0.25005 0.10500
C 	C 	0.69331 0.28744 0.28145 -0.08600
C 	C 	0.76629 0.35047 0.25879 0.11300
Br	Br	0.87872 0.45188 0.30200 -0.09700
Br	Br	0.85440 0.42763 0.17310 -0.16200
Br	Br	0.52032 0.11730 0.28147 -0.17000
Br	Br	0.49528 0.09415 0.15254 -0.13600
C 	C 	0.86125 0.71908 0.40735 -0.12300
C 	C 	0.86280 0.77195 0.44914 -0.05400
C 	C 	0.83730 0.73816 0.49461 0.31200
C 	C 	0.81181 0.65298 0.49838 -0.06800
C 	C 	0.81213 0.60092 0.45697 -0.13000
C 	C 	0.83655 0.63430 0.41126 0.35900
F 	F 	0.83364 0.58355 0.37006 -0.42000
H 	H 	0.88150 0.74474 0.37224 0.12100
H 	H 	0.79125 0.62719 0.53342 0.10400
F 	F 	0.83975 0.78883 0.53567 -0.41000
C 	C 	0.85152 0.07546 0.40860 -0.13000
C 	C 	0.85461 0.03343 0.44897 -0.03700
C 	C 	0.82686 0.04424 0.49476 0.30300
C 	C 	0.80049 0.09971 0.50105 -0.06300
C 	C 	0.80144 0.14513 0.46167 -0.13900
C 	C 	0.82535 0.13127 0.41491 0.36900
F 	F 	0.82293 0.17134 0.37555 -0.41500
H 	H 	0.87259 0.06743 0.37304 0.12300
H 	H 	0.78133 0.10904 0.53711 0.08400
F 	F 	0.82989 0.00464 0.53424 -0.40900
C 	C 	0.20521 0.12901 0.49871 -0.12200
C 	C 	0.14605 0.07527 0.45166 -0.05700
C 	C 	0.18161 0.07547 0.40714 0.31300
C 	C 	0.27587 0.12836 0.40986 -0.06800
C 	C 	0.33528 0.18118 0.45708 -0.13100
C 	C 	0.29953 0.18192 0.50152 0.36700
F 	F 	0.35610 0.23501 0.54710 -0.41300
H 	H 	0.17798 0.12924 0.53315 0.12100
H 	H 	0.30284 0.12756 0.37539 0.10300
F 	F 	0.12469 0.02386 0.36139 -0.41700
C 	C 	0.81015 0.67741 0.04253 -0.06200
C 	C 	0.76338 0.61713 0.99522 -0.13600
C 	C 	0.76424 0.64932 0.94933 0.36500
C 	C 	0.81452 0.74119 0.95072 -0.12000
C 	C 	0.86383 0.80135 0.99780 -0.06800
C 	C 	0.86027 0.76918 0.04383 0.32200
F 	F 	0.90742 0.82710 0.08962 -0.40900
H 	H 	0.80942 0.65320 0.07814 0.10400
H 	H 	0.81664 0.76580 0.91511 0.11600
F 	F 	0.71597 0.59164 0.90355 -0.41300
C 	C 	0.86440 0.16095 0.95294 -0.06200
C 	C 	0.82153 0.16383 0.99326 -0.14900
C 	C 	0.83076 0.13479 0.03872 0.37700
C 	C 	0.87859 0.09920 0.04262 -0.12700
C 	C 	0.91743 0.09222 0.00122 -0.04800
C 	C 	0.91191 0.12512 0.95682 0.29900
F 	F 	0.94903 0.11862 0.91648 -0.42500
H 	H 	0.85829 0.18369 0.91785 0.08100
H 	H 	0.88340 0.07478 0.07725 0.12600
F 	F 	0.79330 0.14088 0.07900 -0.41500
C 	C 	0.31757 0.10419 0.03608 -0.06400
C 	C 	0.35513 0.14024 0.99323 -0.13800
C 	C 	0.30209 0.14258 0.95280 0.36100
C 	C 	0.21247 0.10954 0.95547 -0.12100
C 	C 	0.17527 0.07424 0.99854 -0.06500
C 	C 	0.22836 0.07201 0.03897 0.32000
F 	F 	0.19342 0.03880 0.08111 -0.40800
H 	H 	0.35848 0.10366 0.06789 0.11600
H 	H 	0.17151 0.11029 0.92378 0.12100
F 	F 	0.33740 0.17669 0.91093 -0.42400
