data_crystal

_cell_length_a 18.71893
_cell_length_b 18.69117
_cell_length_c 34.02582
_cell_angle_alpha 95.43910
_cell_angle_beta  95.43934
_cell_angle_gamma 126.43353

_symmetry_space_group_name_	'P 1'
_symmetry_space_group_name_H-M	'P 1'

loop_
_symmetry_equiv_pos_as_xyz
  x,y,z

loop_
_atom_site_label
_atom_site_type_symbol
_atom_site_fract_x
_atom_site_fract_y
_atom_site_fract_z
_atom_site_charge
C 	C 	0.95217 0.04924 0.97858 -0.02200
C 	C 	0.90416 0.95484 0.97333 0.06800
C 	C 	0.95049 0.91732 0.97032 0.01800
C 	C 	0.04353 0.97390 0.97010 0.07400
C 	C 	0.09157 0.06809 0.97608 0.00200
C 	C 	0.04553 0.10533 0.97969 0.04800
H 	H 	0.83173 0.91116 0.97215 0.11300
H 	H 	0.07854 0.94475 0.96575 0.11000
H 	H 	0.08247 0.17809 0.98356 0.10200
C 	C 	0.91341 0.99592 0.49956 0.15800
C 	C 	0.86290 0.90514 0.50373 -0.04500
C 	C 	0.90268 0.86120 0.50427 0.09600
C 	C 	0.99373 0.90847 0.50122 -0.02700
C 	C 	0.04543 0.00003 0.49812 0.07600
C 	C 	0.00466 0.04326 0.49627 -0.05800
H 	H 	0.79177 0.86782 0.50515 0.13400
H 	H 	0.02411 0.87393 0.50086 0.14200
H 	H 	0.04348 0.11300 0.49215 0.13800
Cu	Cu	0.79257 0.38256 0.95691 0.94200
Cu	Cu	0.79499 0.34648 0.04920 0.90400
Cu	Cu	0.65902 0.36224 0.00783 0.91600
Cu	Cu	0.61099 0.34866 0.92024 0.94100
C 	C 	0.71784 0.31793 0.87241 0.41100
O 	O 	0.83038 0.50484 0.94524 -0.27500
C 	C 	0.71717 0.40980 0.09542 0.39400
O 	O 	0.65274 0.30468 0.95587 -0.63500
O 	O 	0.78962 0.41764 0.01276 -0.62800
O 	O 	0.86070 0.33339 0.96908 -0.28800
O 	O 	0.76836 0.24922 0.01101 -0.36600
O 	O 	0.67788 0.35629 0.87667 -0.29200
O 	O 	0.53034 0.30119 0.00361 -0.31200
C 	C 	0.47116 0.27974 0.97138 0.30000
C 	C 	0.78551 0.53645 0.95427 0.28300
O 	O 	0.70101 0.48092 0.95897 -0.33200
O 	O 	0.48963 0.27923 0.93488 -0.28500
O 	O 	0.77549 0.32928 0.90250 -0.27200
C 	C 	0.82493 0.26337 0.98721 0.29800
O 	O 	0.67065 0.41032 0.06383 -0.31500
O 	O 	0.78996 0.41516 0.09272 -0.34500
H 	H 	0.61667 0.23796 0.95201 0.22300
H 	H 	0.82997 0.48361 0.02352 0.21200
Cu	Cu	0.56687 0.14223 0.49480 0.94200
Cu	Cu	0.63912 0.16544 0.40946 0.93500
Cu	Cu	0.62864 0.30249 0.45330 0.92200
Cu	Cu	0.58552 0.31253 0.53469 0.92200
C 	C 	0.59361 0.18899 0.58051 0.40100
O 	O 	0.43795 0.09713 0.49591 -0.29600
C 	C 	0.61258 0.27049 0.36477 0.39600
O 	O 	0.65030 0.28469 0.50638 -0.63500
O 	O 	0.55879 0.16817 0.44020 -0.62900
O 	O 	0.61530 0.07304 0.48492 -0.30200
O 	O 	0.71974 0.17719 0.45221 -0.35000
O 	O 	0.55818 0.23142 0.57434 -0.33100
O 	O 	0.70379 0.43234 0.46904 -0.30400
C 	C 	0.69287 0.47705 0.49713 0.31500
C 	C 	0.41078 0.14526 0.48657 0.30100
O 	O 	0.47088 0.23127 0.48564 -0.32400
O 	O 	0.65165 0.44033 0.52703 -0.32200
O 	O 	0.59463 0.14003 0.55025 -0.31800
C 	C 	0.69183 0.11087 0.47189 0.30300
O 	O 	0.62022 0.32113 0.39734 -0.27700
O 	O 	0.59095 0.18961 0.36550 -0.31900
H 	H 	0.71489 0.31846 0.51853 0.20900
H 	H 	0.49682 0.13636 0.42480 0.25300
C 	C 	0.65177 0.16323 0.77441 0.25300
C 	C 	0.69107 0.22620 0.74877 0.00700
C 	C 	0.75051 0.31922 0.76522 0.24700
C 	C 	0.76476 0.34909 0.80643 0.33200
C 	C 	0.71907 0.28636 0.83148 -0.17300
C 	C 	0.66507 0.19327 0.81562 0.33100
C 	C 	0.65907 0.19608 0.70480 0.00700
F 	F 	0.79009 0.38077 0.74086 -0.30800
F 	F 	0.62132 0.13201 0.83967 -0.32400
C 	C 	0.57188 0.16579 0.68810 0.23900
C 	C 	0.54774 0.15609 0.64674 0.32800
C 	C 	0.61105 0.17804 0.62176 -0.19800
C 	C 	0.69541 0.20064 0.63791 0.32400
C 	C 	0.71929 0.20942 0.67934 0.24700
F 	F 	0.51233 0.15070 0.71229 -0.30900
F 	F 	0.75606 0.21898 0.61384 -0.35200
F 	F 	0.46383 0.12850 0.63106 -0.33800
F 	F 	0.80244 0.23512 0.69499 -0.29800
F 	F 	0.59679 0.07307 0.75905 -0.30400
F 	F 	0.81958 0.43924 0.82176 -0.30400
C 	C 	0.60140 0.37765 0.27764 0.25500
C 	C 	0.65028 0.36455 0.25299 0.00500
C 	C 	0.68744 0.32180 0.26538 0.24400
C 	C 	0.67577 0.29207 0.30200 0.32100
C 	C 	0.62583 0.30381 0.32653 -0.17800
C 	C 	0.58903 0.34724 0.31430 0.33800
C 	C 	0.66015 0.39244 0.21349 0.01100
F 	F 	0.73440 0.30845 0.24163 -0.32300
F 	F 	0.53961 0.35803 0.33740 -0.30000
C 	C 	0.74516 0.46560 0.20753 0.24500
C 	C 	0.76213 0.47642 0.16853 0.33100
C 	C 	0.69392 0.41444 0.13524 -0.19300
C 	C 	0.60614 0.34773 0.14125 0.32300
C 	C 	0.58943 0.33649 0.18027 0.24300
F 	F 	0.81284 0.52277 0.23955 -0.30600
F 	F 	0.53871 0.28947 0.10929 -0.35300
F 	F 	0.84576 0.54492 0.16308 -0.33000
F 	F 	0.50614 0.26732 0.18575 -0.30100
F 	F 	0.56534 0.41909 0.26593 -0.29100
F 	F 	0.71402 0.25276 0.31398 -0.35000
C 	C 	0.78852 0.70388 0.46752 0.02400
C 	C 	0.84612 0.76306 0.50352 0.07400
C 	C 	0.84819 0.72822 0.53840 -0.10500
C 	C 	0.79840 0.63416 0.53539 0.07900
C 	C 	0.74119 0.57485 0.49926 0.00700
C 	C 	0.73212 0.60984 0.46556 -0.06000
C 	C 	0.66586 0.54773 0.42687 0.78000
H 	H 	0.78762 0.73146 0.44100 0.11400
H 	H 	0.80506 0.60679 0.56097 0.10500
C 	C 	0.90735 0.79097 0.57822 0.78800
F 	F 	0.64673 0.59339 0.40366 -0.37200
F 	F 	0.58488 0.47534 0.43489 -0.39300
F 	F 	0.70309 0.51582 0.40485 -0.39300
F 	F 	0.89710 0.85807 0.58618 -0.35300
F 	F 	0.99685 0.83038 0.57669 -0.37100
F 	F 	0.88488 0.74447 0.60982 -0.37100
C 	C 	0.78493 0.08928 0.51828 0.06300
C 	C 	0.74590 0.07832 0.47879 0.00700
C 	C 	0.76557 0.04402 0.44610 -0.06400
C 	C 	0.82960 0.02808 0.45362 0.03400
C 	C 	0.86696 0.03683 0.49306 0.02000
C 	C 	0.84688 0.07044 0.52582 -0.08500
C 	C 	0.88908 0.08337 0.56877 0.75000
H 	H 	0.76803 0.11398 0.54306 0.11900
H 	H 	0.84738 0.00453 0.42879 0.09400
C 	C 	0.71964 0.02564 0.40313 0.71800
F 	F 	0.87592 0.13332 0.59555 -0.36500
F 	F 	0.98126 0.12900 0.57220 -0.36800
F 	F 	0.85070 0.99984 0.57947 -0.33800
F 	F 	0.75982 0.10631 0.38939 -0.42100
F 	F 	0.62851 0.98453 0.40109 -0.38700
F 	F 	0.72683 0.96856 0.37780 -0.34500
C 	C 	0.16285 0.04147 0.45707 0.02000
C 	C 	0.14139 0.04900 0.49490 0.07800
C 	C 	0.20974 0.09230 0.52982 -0.10300
C 	C 	0.29696 0.12098 0.52638 0.07400
C 	C 	0.31769 0.11090 0.48873 0.00800
C 	C 	0.25089 0.07244 0.45356 -0.06000
C 	C 	0.27303 0.06274 0.41253 0.77300
H 	H 	0.11000 0.00882 0.43057 0.11200
H 	H 	0.34927 0.15153 0.55300 0.10700
C 	C 	0.18951 0.10730 0.57069 0.78700
F 	F 	0.19894 0.02326 0.38193 -0.38400
F 	F 	0.30133 0.00913 0.41123 -0.41600
F 	F 	0.34132 0.14717 0.40553 -0.40000
F 	F 	0.12852 0.02485 0.58149 -0.36000
F 	F 	0.15312 0.15347 0.56919 -0.36600
F 	F 	0.26669 0.15773 0.60030 -0.36900
C 	C 	0.87967 0.76686 0.92824 0.02000
C 	C 	0.90162 0.81831 0.96633 0.08800
C 	C 	0.88614 0.77718 0.00069 -0.08100
C 	C 	0.84942 0.68502 0.99600 0.04700
C 	C 	0.82903 0.63410 0.95801 0.02000
C 	C 	0.84267 0.67466 0.92357 -0.06100
C 	C 	0.81979 0.62042 0.88203 0.78000
H 	H 	0.89312 0.79947 0.90233 0.11900
H 	H 	0.83594 0.65234 0.02189 0.10600
C 	C 	0.90467 0.83010 0.04198 0.78500
F 	F 	0.83072 0.66970 0.85215 -0.37400
F 	F 	0.73078 0.54343 0.87436 -0.40100
F 	F 	0.87597 0.59564 0.88003 -0.37200
F 	F 	0.84656 0.85273 0.04241 -0.36100
F 	F 	0.99295 0.90829 0.05112 -0.34000
F 	F 	0.89196 0.78032 0.07185 -0.37000
C 	C 	0.86184 0.09296 0.94682 0.00400
C 	C 	0.90484 0.09011 0.98205 0.10000
C 	C 	0.91619 0.13985 0.01927 -0.11700
C 	C 	0.89523 0.20068 0.01964 0.09200
C 	C 	0.85453 0.20563 0.98429 -0.01200
C 	C 	0.83344 0.14795 0.94775 -0.05300
C 	C 	0.78487 0.14798 0.90941 0.77500
H 	H 	0.85360 0.05481 0.91845 0.11100
H 	H 	0.90992 0.24398 0.04759 0.08000
C 	C 	0.95573 0.13255 0.05838 0.77800
F 	F 	0.75568 0.07571 0.87948 -0.38500
F 	F 	0.84311 0.22727 0.89572 -0.39700
F 	F 	0.70966 0.14123 0.91645 -0.41100
F 	F 	0.04879 0.18565 0.06275 -0.36000
F 	F 	0.92186 0.04375 0.05876 -0.36800
F 	F 	0.93432 0.16149 0.09105 -0.38500
C 	C 	0.34286 0.18608 0.00638 0.09200
C 	C 	0.37629 0.23641 0.97569 0.00400
C 	C 	0.31718 0.24057 0.94840 -0.05500
C 	C 	0.22371 0.18000 0.94729 0.01300
C 	C 	0.19019 0.12829 0.97741 0.09600
C 	C 	0.25135 0.13772 0.00930 -0.10800
C 	C 	0.21966 0.09471 0.04586 0.79000
H 	H 	0.38798 0.18393 0.02778 0.11700
H 	H 	0.17696 0.17473 0.92356 0.11400
C 	C 	0.35249 0.30949 0.92091 0.77600
F 	F 	0.29112 0.13609 0.07802 -0.36000
F 	F 	0.18238 0.00403 0.03682 -0.39300
F 	F 	0.15614 0.10332 0.05791 -0.34900
F 	F 	0.36326 0.27556 0.88596 -0.39100
F 	F 	0.43425 0.39039 0.93954 -0.40400
F 	F 	0.29234 0.32801 0.91080 -0.38100
