data_crystal

_cell_length_a 31.51183
_cell_length_b 29.56384
_cell_length_c 36.90307
_cell_angle_alpha 90.00000
_cell_angle_beta  90.00000
_cell_angle_gamma 114.58861

_symmetry_space_group_name_	'P 1'
_symmetry_space_group_name_H-M	'P 1'

loop_
_symmetry_equiv_pos_as_xyz
  x,y,z

loop_
_atom_site_label
_atom_site_type_symbol
_atom_site_fract_x
_atom_site_fract_y
_atom_site_fract_z
_atom_site_charge
Zn	Zn	0.96379 0.95032 0.01281 1.21800
Zn	Zn	0.04119 0.01056 0.94955 1.19400
C 	C 	0.00873 0.10356 0.07813 0.33700
Zn	Zn	0.04628 0.05371 0.02628 1.22300
Zn	Zn	0.95453 0.99468 0.08486 1.19100
H 	H 	0.98382 0.03932 0.97953 0.16400
C 	C 	0.10527 0.00233 0.01044 0.32000
O 	O 	0.89724 0.93002 0.08512 -0.45900
O 	O 	0.92621 0.88879 0.04705 -0.40500
O 	O 	0.00139 0.02012 0.98764 -0.77600
O 	O 	0.00091 0.94206 0.93088 -0.44500
O 	O 	0.90416 0.95500 0.00225 -0.44000
O 	O 	0.97956 0.90229 0.98558 -0.43900
O 	O 	0.92319 0.02012 0.04136 -0.43500
O 	O 	0.10209 0.07056 0.94786 -0.45800
H 	H 	0.01867 0.96909 0.06493 0.18000
O 	O 	0.08556 0.11534 0.99193 -0.39800
O 	O 	0.00256 0.98778 0.05332 -0.77700
O 	O 	0.98510 0.06625 0.09999 -0.46600
O 	O 	0.10091 0.03750 0.02988 -0.43500
O 	O 	0.04568 0.10475 0.06072 -0.42700
O 	O 	0.07316 0.97662 0.98669 -0.41100
C 	C 	0.89322 0.88875 0.06877 0.32800
C 	C 	0.98683 0.90128 0.95058 0.33200
C 	C 	0.89425 0.98942 0.01777 0.33100
C 	C 	0.11143 0.11294 0.96466 0.32900
Zn	Zn	0.04637 0.55381 0.97359 1.22400
Zn	Zn	0.95469 0.49466 0.91497 1.19100
C 	C 	0.98701 0.40141 0.04955 0.33200
Zn	Zn	0.96382 0.45038 0.98712 1.21900
Zn	Zn	0.04133 0.51073 0.05032 1.19700
H 	H 	0.01891 0.46884 0.93517 0.18000
C 	C 	0.89429 0.48918 0.98208 0.32900
O 	O 	0.10206 0.57064 0.05205 -0.45800
O 	O 	0.08558 0.61543 0.00795 -0.39700
O 	O 	0.00279 0.48760 0.94668 -0.77800
O 	O 	0.98520 0.56627 0.89999 -0.46600
O 	O 	0.10116 0.53743 0.97010 -0.43400
O 	O 	0.04589 0.60457 0.93920 -0.42800
O 	O 	0.07321 0.47657 0.01326 -0.41500
O 	O 	0.89729 0.42983 0.91477 -0.45800
H 	H 	0.98397 0.53917 0.02048 0.16300
O 	O 	0.92629 0.38875 0.95295 -0.40500
O 	O 	0.00157 0.52002 0.01232 -0.77400
O 	O 	0.00107 0.44229 0.06915 -0.44700
O 	O 	0.90436 0.45490 0.99764 -0.44200
O 	O 	0.97970 0.40226 0.01455 -0.43700
O 	O 	0.92312 0.51991 0.95844 -0.43400
C 	C 	0.11140 0.61303 0.03526 0.32900
C 	C 	0.00889 0.60347 0.92192 0.33800
C 	C 	0.10538 0.50221 0.98954 0.32700
C 	C 	0.89329 0.38862 0.93119 0.32700
Zn	Zn	0.46379 0.95032 0.01281 1.22400
Zn	Zn	0.54119 0.01056 0.94955 1.19400
C 	C 	0.50873 0.10356 0.07813 0.33000
Zn	Zn	0.54628 0.05371 0.02628 1.22400
Zn	Zn	0.45453 0.99468 0.08486 1.19500
H 	H 	0.48382 0.03932 0.97953 0.18000
C 	C 	0.60527 0.00233 0.01044 0.32300
O 	O 	0.39724 0.93002 0.08512 -0.45600
O 	O 	0.42621 0.88879 0.04705 -0.40000
O 	O 	0.50139 0.02012 0.98764 -0.79300
O 	O 	0.50091 0.94206 0.93088 -0.46400
O 	O 	0.40416 0.95500 0.00225 -0.43700
O 	O 	0.47956 0.90229 0.98558 -0.43700
O 	O 	0.42319 0.02012 0.04136 -0.43100
O 	O 	0.60209 0.07056 0.94786 -0.46000
H 	H 	0.51867 0.96909 0.06493 0.17700
O 	O 	0.58556 0.11534 0.99193 -0.40000
O 	O 	0.50256 0.98778 0.05332 -0.78700
O 	O 	0.48510 0.06625 0.09999 -0.45200
O 	O 	0.60091 0.03750 0.02988 -0.43700
O 	O 	0.54568 0.10475 0.06072 -0.42900
O 	O 	0.57316 0.97662 0.98669 -0.41700
C 	C 	0.39322 0.88875 0.06877 0.32800
C 	C 	0.48683 0.90128 0.95058 0.35100
C 	C 	0.39425 0.98942 0.01777 0.33100
C 	C 	0.61143 0.11294 0.96466 0.32900
Zn	Zn	0.54637 0.55381 0.97359 1.22400
Zn	Zn	0.45469 0.49466 0.91497 1.19400
C 	C 	0.48701 0.40141 0.04955 0.35100
Zn	Zn	0.46382 0.45038 0.98712 1.22400
Zn	Zn	0.54133 0.51073 0.05032 1.19600
H 	H 	0.51891 0.46884 0.93517 0.17700
C 	C 	0.39429 0.48918 0.98208 0.32900
O 	O 	0.60206 0.57064 0.05205 -0.46000
O 	O 	0.58558 0.61543 0.00795 -0.40000
O 	O 	0.50279 0.48760 0.94668 -0.78700
O 	O 	0.48520 0.56627 0.89999 -0.45100
O 	O 	0.60115 0.53743 0.97010 -0.43500
O 	O 	0.54589 0.60457 0.93920 -0.43100
O 	O 	0.57321 0.47657 0.01326 -0.41900
O 	O 	0.39729 0.42983 0.91477 -0.45500
H 	H 	0.48397 0.53917 0.02048 0.18000
O 	O 	0.42629 0.38875 0.95295 -0.40100
O 	O 	0.50157 0.52002 0.01232 -0.79300
O 	O 	0.50107 0.44229 0.06915 -0.46400
O 	O 	0.40436 0.45490 0.99764 -0.43900
O 	O 	0.47970 0.40226 0.01455 -0.43500
O 	O 	0.42312 0.51991 0.95844 -0.42900
C 	C 	0.61140 0.61303 0.03526 0.32900
C 	C 	0.50889 0.60347 0.92192 0.33000
C 	C 	0.60538 0.50221 0.98954 0.32700
C 	C 	0.39329 0.38862 0.93119 0.32800
C 	C 	0.48836 0.85718 0.93568 -0.11800
C 	C 	0.49021 0.81883 0.92673 0.07100
C 	C 	0.49298 0.77313 0.92003 -0.01900
C 	C 	0.49585 0.73389 0.91712 -0.01600
C 	C 	0.49980 0.68804 0.91658 0.06500
C 	C 	0.50367 0.64920 0.91811 -0.11200
C 	C 	0.50350 0.14925 0.08211 -0.11200
C 	C 	0.49966 0.18810 0.08373 0.06500
C 	C 	0.49578 0.23399 0.08325 -0.01600
C 	C 	0.49299 0.27327 0.08035 -0.01900
C 	C 	0.49031 0.31901 0.07361 0.07100
C 	C 	0.48852 0.35736 0.06459 -0.11800
C 	C 	0.65346 0.15584 0.95579 -0.11100
C 	C 	0.68930 0.19156 0.94907 0.06400
C 	C 	0.73183 0.23326 0.94216 -0.01800
C 	C 	0.76848 0.26878 0.93732 -0.01800
C 	C 	0.81181 0.31044 0.93313 0.06300
C 	C 	0.84897 0.34607 0.93116 -0.11000
C 	C 	0.15342 0.65593 0.04416 -0.10800
C 	C 	0.18923 0.69167 0.05091 0.06500
C 	C 	0.23175 0.73338 0.05783 -0.01600
C 	C 	0.26840 0.76892 0.06268 -0.01600
C 	C 	0.31172 0.81059 0.06686 0.06500
C 	C 	0.34888 0.84621 0.06882 -0.10800
C 	C 	0.84890 0.48847 0.98660 -0.11800
C 	C 	0.81069 0.48827 0.98852 0.06600
C 	C 	0.76619 0.48878 0.98917 -0.02000
C 	C 	0.72852 0.49008 0.98898 -0.01800
C 	C 	0.68493 0.49281 0.98849 0.06500
C 	C 	0.64823 0.49635 0.98845 -0.11200
C 	C 	0.34890 0.48847 0.98660 -0.11600
C 	C 	0.31069 0.48827 0.98852 0.06800
C 	C 	0.26619 0.48878 0.98917 -0.01800
C 	C 	0.22852 0.49008 0.98898 -0.01600
C 	C 	0.18493 0.49281 0.98849 0.06700
C 	C 	0.14823 0.49635 0.98845 -0.10900
C 	C 	0.84888 0.84621 0.06882 -0.11000
C 	C 	0.81172 0.81059 0.06686 0.06400
C 	C 	0.76840 0.76892 0.06268 -0.01800
C 	C 	0.73175 0.73338 0.05783 -0.01800
C 	C 	0.68923 0.69167 0.05091 0.06400
C 	C 	0.65342 0.65593 0.04416 -0.11100
C 	C 	0.34897 0.34607 0.93116 -0.10800
C 	C 	0.31181 0.31044 0.93313 0.06500
C 	C 	0.26848 0.26878 0.93732 -0.01600
C 	C 	0.23183 0.23326 0.94216 -0.01600
C 	C 	0.18930 0.19156 0.94907 0.06500
C 	C 	0.15347 0.15584 0.95579 -0.10900
C 	C 	0.84889 0.98880 0.01333 -0.11800
C 	C 	0.81069 0.98865 0.01147 0.06700
C 	C 	0.76620 0.98919 0.01086 -0.02000
C 	C 	0.72852 0.99047 0.01108 -0.01600
C 	C 	0.68491 0.99315 0.01157 0.06400
C 	C 	0.64818 0.99661 0.01158 -0.10900
C 	C 	0.14818 0.99661 0.01158 -0.10400
C 	C 	0.18491 0.99315 0.01157 0.06500
C 	C 	0.22852 0.99047 0.01108 -0.01300
C 	C 	0.26620 0.98919 0.01086 -0.01900
C 	C 	0.31069 0.98865 0.01147 0.06900
C 	C 	0.34889 0.98880 0.01333 -0.11600
C 	C 	0.00367 0.64920 0.91811 -0.07900
C 	C 	0.99980 0.68804 0.91658 0.03100
C 	C 	0.99585 0.73389 0.91712 -0.00700
C 	C 	0.99298 0.77313 0.92003 -0.02900
C 	C 	0.99022 0.81883 0.92673 0.06800
C 	C 	0.98837 0.85718 0.93568 -0.11900
C 	C 	0.98852 0.35736 0.06459 -0.11900
C 	C 	0.99030 0.31901 0.07361 0.06800
C 	C 	0.99299 0.27327 0.08035 -0.02900
C 	C 	0.99578 0.23399 0.08325 -0.00700
C 	C 	0.99965 0.18810 0.08373 0.03300
C 	C 	0.00350 0.14925 0.08211 -0.08100
