data_crystal

_cell_length_a 16.59467
_cell_length_b 15.81487
_cell_length_c 36.92544
_cell_angle_alpha 89.87698
_cell_angle_beta  89.87980
_cell_angle_gamma 119.42889

_symmetry_space_group_name_	'P 1'
_symmetry_space_group_name_H-M	'P 1'

loop_
_symmetry_equiv_pos_as_xyz
  x,y,z

loop_
_atom_site_label
_atom_site_type_symbol
_atom_site_fract_x
_atom_site_fract_y
_atom_site_fract_z
_atom_site_charge
Ni	Ni	0.05925 0.93877 0.77185 1.14800
Ni	Ni	0.08243 0.15167 0.75542 1.15300
O 	O 	0.03719 0.19575 0.22113 -0.29900
C 	C 	0.07396 0.23633 0.14260 0.31600
F 	F 	0.05297 0.29435 0.08579 -0.31600
C 	C 	0.05376 0.66677 0.52670 0.09700
F 	F 	0.00932 0.60407 0.41086 -0.39000
C 	C 	0.12499 0.57393 0.97098 0.06100
C 	C 	0.10299 0.57281 0.00784 0.02000
C 	C 	0.07419 0.49084 0.94931 -0.04300
H 	H 	0.02541 0.04588 0.80197 0.18900
C 	C 	0.06252 0.66792 0.48887 0.07000
C 	C 	0.04705 0.73166 0.18489 0.31600
F 	F 	0.03130 0.58993 0.15566 -0.29800
F 	F 	0.02959 0.16684 0.64280 -0.31800
C 	C 	0.10125 0.49245 0.91014 0.78000
F 	F 	0.02392 0.45914 0.08311 -0.34600
O 	O 	0.01323 0.02649 0.77631 -0.71100
F 	F 	0.06863 0.87177 0.87692 -0.30400
F 	F 	0.08076 0.76651 0.41945 -0.40300
F 	F 	0.06214 0.39922 0.89638 -0.37900
O 	O 	0.03639 0.20570 0.79432 -0.27700
F 	F 	0.08057 0.38721 0.80743 -0.29700
C 	C 	0.06342 0.88350 0.21397 0.40400
F 	F 	0.04352 0.72488 0.59798 -0.33200
F 	F 	0.19641 0.53500 0.90694 -0.37500
C 	C 	0.22174 0.11414 0.79951 0.37000
C 	C 	0.17088 0.07219 0.71021 0.42300
O 	O 	0.15525 0.02726 0.80891 -0.29600
O 	O 	0.20393 0.17769 0.78168 -0.27600
O 	O 	0.16739 0.00767 0.73363 -0.31100
O 	O 	0.10792 0.09759 0.71070 -0.33200
C 	C 	0.12597 0.41637 0.41615 0.40600
C 	C 	0.14157 0.66230 0.47270 0.31400
O 	O 	0.13830 0.57743 0.47122 -0.31200
O 	O 	0.15296 0.48796 0.39325 -0.32900
O 	O 	0.17158 0.42909 0.44655 -0.31600
O 	O 	0.19967 0.70972 0.39381 -0.31300
O 	O 	0.22003 0.74293 0.46716 -0.28400
C 	C 	0.22644 0.67282 0.15031 0.41300
C 	C 	0.24676 0.43237 0.09179 0.41700
C 	C 	0.18064 0.61482 0.03298 0.32600
O 	O 	0.22526 0.70825 0.04120 -0.30800
O 	O 	0.21363 0.67466 0.11569 -0.32500
O 	O 	0.24651 0.49356 0.11501 -0.34400
O 	O 	0.21109 0.55866 0.04409 -0.34000
C 	C 	0.09740 0.18036 0.20342 0.39300
C 	C 	0.00102 0.15011 0.30688 0.39700
Ni	Ni	0.07491 0.04275 0.26240 1.14900
O 	O 	0.11123 0.95208 0.23787 -0.29600
O 	O 	0.13014 0.12792 0.21807 -0.30400
O 	O 	0.03016 0.94906 0.30385 -0.27100
O 	O 	0.07512 0.15341 0.29145 -0.31500
C 	C 	0.13268 0.22608 0.16756 -0.17900
C 	C 	0.22434 0.25483 0.15713 0.29100
C 	C 	0.25958 0.30488 0.12448 0.28500
C 	C 	0.20511 0.33104 0.10325 -0.17400
C 	C 	0.10925 0.28196 0.10923 0.29900
C 	C 	0.19913 0.85597 0.20477 0.29100
C 	C 	0.10384 0.82382 0.20010 -0.17600
C 	C 	0.08610 0.67623 0.17209 0.29400
C 	C 	0.18196 0.71142 0.17480 -0.17800
C 	C 	0.23698 0.79873 0.19312 0.28700
C 	C 	0.07493 0.19304 0.36812 0.28600
C 	C 	0.00982 0.19180 0.34352 -0.14200
C 	C 	0.06493 0.31786 0.40274 -0.15500
C 	C 	0.10081 0.25453 0.39820 0.29500
C 	C 	0.15104 0.86793 0.31273 0.29200
C 	C 	0.05422 0.81085 0.30928 -0.13900
C 	C 	0.01184 0.71009 0.31537 0.31800
C 	C 	0.06487 0.66837 0.32691 0.31000
C 	C 	0.15990 0.72713 0.33344 -0.17300
F 	F 	0.02277 0.57176 0.33421 -0.30700
H 	H 	0.10816 0.66994 0.54368 0.14700
C 	C 	0.26094 0.07083 0.65671 0.30100
F 	F 	0.20970 0.97249 0.65564 -0.30600
H 	H 	0.18762 0.63479 0.96028 0.11100
F 	F 	0.26436 0.02939 0.85960 -0.30700
F 	F 	0.25768 0.81980 0.53565 -0.41000
C 	C 	0.20523 0.69450 0.35948 0.43400
F 	F 	0.28310 0.83312 0.59547 -0.35500
F 	F 	0.27321 0.70477 0.56665 -0.40200
F 	F 	0.19434 0.96469 0.30565 -0.34100
Ni	Ni	0.25237 0.56245 0.46951 1.13800
Ni	Ni	0.34327 0.59978 0.04107 1.14100
O 	O 	0.29231 0.65643 0.16221 -0.30400
O 	O 	0.30157 0.46469 0.06321 -0.33000
F 	F 	0.28119 0.24079 0.17973 -0.33700
F 	F 	0.25593 0.94428 0.21943 -0.31600
F 	F 	0.11494 0.13717 0.36235 -0.33500
C 	C 	0.20338 0.82581 0.32425 0.30900
C 	C 	0.30388 0.80300 0.56330 0.78500
C 	C 	0.24903 0.12237 0.68505 -0.17600
F 	F 	0.31162 0.33961 0.99352 -0.39700
F 	F 	0.02513 0.52380 0.81459 -0.28100
F 	F 	0.32999 0.07026 0.60019 -0.33100
C 	C 	0.31842 0.14083 0.80924 -0.15100
Ni	Ni	0.29189 0.57593 0.38287 1.12900
Ni	Ni	0.30965 0.75971 0.42699 1.14500
O 	O 	0.25653 0.65765 0.34842 -0.32000
O 	O 	0.32458 0.67397 0.50505 -0.28600
O 	O 	0.30794 0.63931 0.42735 -0.72600
Ni	Ni	0.36840 0.61432 0.12815 1.13100
Ni	Ni	0.31912 0.76120 0.08282 1.13700
O 	O 	0.38092 0.71831 0.00762 -0.30300
O 	O 	0.36723 0.67418 0.08391 -0.72100
F 	F 	0.35091 0.34268 0.11696 -0.36300
F 	F 	0.32896 0.83187 0.19732 -0.32600
F 	F 	0.16609 0.25837 0.42113 -0.35400
F 	F 	0.29568 0.88285 0.32960 -0.31900
H 	H 	0.32238 0.30312 0.44113 0.14500
F 	F 	0.33323 0.15113 0.43566 -0.37000
C 	C 	0.29687 0.22471 0.68398 0.31300
C 	C 	0.32251 0.12084 0.62844 0.30000
F 	F 	0.27664 0.27587 0.70833 -0.34500
H 	H 	0.37355 0.91407 0.97824 0.11500
C 	C 	0.39311 0.34739 0.98027 0.77500
F 	F 	0.38859 0.25818 0.98323 -0.34900
F 	F 	0.40066 0.37328 0.94407 -0.38300
C 	C 	0.33491 0.09204 0.83796 0.29200
F 	F 	0.07123 0.54549 0.89006 -0.36100
F 	F 	0.37045 0.06296 0.98537 -0.37100
H 	H 	0.40072 0.38582 0.05230 0.13900
F 	F 	0.37928 0.24770 0.75811 -0.33900
F 	F 	0.36953 0.17076 0.49490 -0.38500
C 	C 	0.39311 0.20378 0.78706 0.28600
O 	O 	0.32688 0.47750 0.40727 -0.30400
C 	C 	0.40466 0.19742 0.46021 0.77800
C 	C 	0.36345 0.27444 0.65721 0.29900
C 	C 	0.37904 0.22260 0.62988 -0.17200
C 	C 	0.39148 0.76494 0.49800 0.29700
O 	O 	0.35442 0.52658 0.46751 -0.30200
H 	H 	0.37367 0.66132 0.43227 0.19700
C 	C 	0.43269 0.81168 0.01720 0.31700
O 	O 	0.41770 0.84444 0.04788 -0.33300
O 	O 	0.40881 0.83524 0.12493 -0.29700
H 	H 	0.43306 0.72088 0.08052 0.20400
C 	C 	0.40655 0.85846 0.55533 -0.07500
C 	C 	0.39591 0.34859 0.44512 0.05300
C 	C 	0.42501 0.11115 0.84544 0.30000
F 	F 	0.43998 0.06565 0.87370 -0.32900
F 	F 	0.47322 0.15314 0.94242 -0.39200
C 	C 	0.37514 0.49317 0.43778 0.29900
O 	O 	0.40195 0.80946 0.38408 -0.29700
O 	O 	0.40788 0.80331 0.46492 -0.31600
O 	O 	0.45263 0.55977 0.10462 -0.27300
H 	H 	0.42917 0.97886 0.58953 0.13500
F 	F 	0.46851 0.16676 0.45391 -0.39500
F 	F 	0.41443 0.37276 0.65847 -0.32000
C 	C 	0.44807 0.94506 0.97905 0.08200
C 	C 	0.46357 0.11255 0.97644 0.78900
C 	C 	0.46495 0.43442 0.03878 0.04800
C 	C 	0.46099 0.94895 0.57186 0.08700
C 	C 	0.44718 0.82732 0.52820 0.04100
C 	C 	0.44947 0.30657 0.45614 -0.06200
C 	C 	0.43594 0.44961 0.44157 0.03700
C 	C 	0.47498 0.42201 0.00158 -0.05700
O 	O 	0.47331 0.62946 0.04772 -0.29300
C 	C 	0.46698 0.26825 0.60953 0.41300
O 	O 	0.42714 0.67965 0.37221 -0.30700
C 	C 	0.48389 0.82764 0.13316 0.38800
O 	O 	0.47637 0.74466 0.14444 -0.31800
F 	F 	0.43701 0.84013 0.30323 -0.32100
C 	C 	0.48490 0.88565 0.98938 0.02200
C 	C 	0.48320 0.22399 0.79544 0.29700
C 	C 	0.02004 0.49354 0.02089 -0.02000
F 	F 	0.02189 0.73992 0.93253 -0.31400
C 	C 	0.45583 0.77403 0.37229 0.39700
C 	C 	0.49153 0.57945 0.07134 0.30500
C 	C 	0.50024 0.18663 0.82735 -0.15600
F 	F 	0.00886 0.58901 0.06838 -0.35200
C 	C 	0.50547 0.04640 0.97677 -0.08700
F 	F 	0.50852 0.18579 0.00151 -0.39300
O 	O 	0.51003 0.21897 0.60564 -0.35300
O 	O 	0.50870 0.36139 0.60080 -0.31000
C 	C 	0.52891 0.52033 0.05605 0.05500
C 	C 	0.54186 0.36743 0.46708 0.01100
C 	C 	0.52154 0.85523 0.31353 0.29600
C 	C 	0.53294 0.50851 0.44516 -0.09200
O 	O 	0.54505 0.33236 0.52960 -0.33100
C 	C 	0.54375 0.87592 0.52452 0.05700
C 	C 	0.53606 0.83581 0.34939 -0.15900
C 	C 	0.55402 0.00597 0.56254 0.00900
F 	F 	0.55522 0.29163 0.77569 -0.32600
C 	C 	0.56205 0.47913 0.98479 0.02700
F 	F 	0.55396 0.62733 0.40138 -0.40500
F 	F 	0.55858 0.76061 0.98843 -0.39900
F 	F 	0.56611 0.01044 0.17238 -0.31600
O 	O 	0.57741 0.33019 0.86191 -0.31800
F 	F 	0.55480 0.66406 0.46041 -0.42000
C 	C 	0.57756 0.90858 0.12728 -0.18000
C 	C 	0.57958 0.25310 0.84929 0.39900
H 	H 	0.57540 0.84881 0.50547 0.13500
C 	C 	0.00188 0.67917 0.42661 0.82200
C 	C 	0.57938 0.33711 0.49749 0.32000
C 	C 	0.58164 0.92346 0.98635 -0.06400
F 	F 	0.57473 0.89448 0.25253 -0.32600
C 	C 	0.58013 0.61562 0.43571 0.78900
C 	C 	0.58530 0.46652 0.45811 0.06800
C 	C 	0.59195 0.43498 0.95636 0.31400
C 	C 	0.59156 0.88190 0.28754 0.30100
C 	C 	0.59805 0.11123 0.56787 0.31700
C 	C 	0.59821 0.96500 0.54202 -0.05200
C 	C 	0.99880 0.85597 0.29730 0.34200
C 	C 	0.98649 0.30094 0.38291 0.27700
C 	C 	0.95940 0.23899 0.35305 0.27100
F 	F 	0.94391 0.35382 0.38978 -0.32400
F 	F 	0.91891 0.65331 0.31173 -0.33200
O 	O 	0.92867 0.13428 0.28712 -0.31800
F 	F 	0.88786 0.22935 0.33235 -0.33200
C 	C 	0.98988 0.66298 0.46711 -0.12300
O 	O 	0.92583 0.80581 0.27586 -0.29600
O 	O 	0.98366 0.87044 0.20129 -0.33700
F 	F 	0.95423 0.69556 0.18249 -0.35500
C 	C 	0.98527 0.49517 0.05866 0.72000
O 	O 	0.94788 0.99238 0.24982 -0.72000
H 	H 	0.92278 0.98088 0.27462 0.16600
C 	C 	0.82720 0.59860 0.92868 0.40900
C 	C 	0.83080 0.42785 0.83550 0.40000
C 	C 	0.90765 0.39052 0.94153 0.33000
C 	C 	0.65922 0.17787 0.95616 0.29700
Ni	Ni	0.69207 0.44853 0.88168 1.13200
Ni	Ni	0.74500 0.39870 0.95961 1.13700
Ni	Ni	0.75392 0.28464 0.89098 1.13300
O 	O 	0.65783 0.24680 0.84911 -0.30600
O 	O 	0.87443 0.44827 0.94472 -0.35700
O 	O 	0.81875 0.55844 0.89737 -0.35300
O 	O 	0.78312 0.54395 0.95688 -0.34000
O 	O 	0.66771 0.17156 0.92082 -0.32000
O 	O 	0.75760 0.43947 0.83350 -0.29900
O 	O 	0.85025 0.40485 0.86644 -0.35400
O 	O 	0.71444 0.25967 0.97446 -0.31500
O 	O 	0.61907 0.47838 0.92360 -0.26900
O 	O 	0.61587 0.37167 0.96755 -0.29900
O 	O 	0.85805 0.30579 0.92574 -0.32400
O 	O 	0.70252 0.35779 0.91181 -0.72200
H 	H 	0.63778 0.30696 0.91571 0.21700
C 	C 	0.81238 0.52216 0.53094 0.29100
C 	C 	0.81351 0.27639 0.60695 0.40100
C 	C 	0.69467 0.48015 0.64222 0.40500
Ni	Ni	0.72250 0.30606 0.53732 1.13900
Ni	Ni	0.64188 0.27529 0.61919 1.14900
Ni	Ni	0.62293 0.42606 0.56819 1.13500
O 	O 	0.82631 0.44655 0.53011 -0.31100
O 	O 	0.72693 0.51127 0.53174 -0.32400
O 	O 	0.61088 0.16749 0.54000 -0.29400
O 	O 	0.62997 0.14808 0.59995 -0.29300
O 	O 	0.69177 0.51333 0.60950 -0.31000
O 	O 	0.65838 0.33711 0.49401 -0.29700
O 	O 	0.64714 0.38544 0.65019 -0.31200
O 	O 	0.80462 0.26803 0.57081 -0.27200
O 	O 	0.77674 0.31988 0.62548 -0.30600
O 	O 	0.68369 0.35283 0.57692 -0.72300
H 	H 	0.74340 0.40596 0.58533 0.19700
C 	C 	0.88203 0.80924 0.73518 0.40600
C 	C 	0.92561 0.88071 0.83671 0.36700
C 	C 	0.92208 0.08314 0.70657 0.40200
C 	C 	0.94867 0.18573 0.79369 0.33700
Ni	Ni	0.88180 0.97282 0.77536 1.14000
O 	O 	0.87349 0.99787 0.72240 -0.31100
O 	O 	0.97154 0.85888 0.73024 -0.32100
O 	O 	0.84327 0.83281 0.76145 -0.32200
O 	O 	0.87929 0.09412 0.79334 -0.30100
O 	O 	0.96468 0.85026 0.81208 -0.31300
O 	O 	0.88117 0.92786 0.82684 -0.30500
O 	O 	0.98608 0.15743 0.72442 -0.35600
C 	C 	0.74613 0.90513 0.26938 0.37600
C 	C 	0.82668 0.95216 0.17387 0.42300
Ni	Ni	0.90884 0.08032 0.23506 1.13900
Ni	Ni	0.88215 0.85968 0.23426 1.13900
O 	O 	0.77082 0.97691 0.24579 -0.28400
O 	O 	0.77187 0.83840 0.26504 -0.30900
O 	O 	0.89806 0.03345 0.18281 -0.33000
O 	O 	0.80998 0.87088 0.19050 -0.31200
F 	F 	0.98483 0.20783 0.15141 -0.37000
C 	C 	0.70589 0.00269 0.16747 0.28400
C 	C 	0.75217 0.95545 0.15322 -0.16900
C 	C 	0.72163 0.90570 0.12048 0.30900
C 	C 	0.63703 0.88891 0.10603 0.29100
C 	C 	0.61735 0.97779 0.15480 0.32500
F 	F 	0.74674 0.07290 0.19286 -0.36400
F 	F 	0.60502 0.83613 0.07531 -0.35100
F 	F 	0.77216 0.87160 0.10334 -0.30300
C 	C 	0.67671 0.88971 0.29728 -0.16800
C 	C 	0.69405 0.87901 0.33374 0.29800
C 	C 	0.62417 0.85294 0.35974 0.30300
F 	F 	0.64051 0.83925 0.39469 -0.31400
F 	F 	0.77797 0.89179 0.34381 -0.34700
C 	C 	0.70237 0.01805 0.53735 0.77000
F 	F 	0.74455 0.05447 0.57025 -0.41400
F 	F 	0.72844 0.09366 0.51299 -0.41800
F 	F 	0.73334 0.95670 0.52461 -0.37400
C 	C 	0.90408 0.63782 0.48360 0.08400
C 	C 	0.89130 0.61571 0.52065 0.03000
C 	C 	0.97062 0.65133 0.54253 -0.09200
H 	H 	0.84430 0.62093 0.46700 0.11500
C 	C 	0.96233 0.65216 0.58327 0.76800
F 	F 	0.92766 0.68267 0.41111 -0.39400
F 	F 	0.94514 0.56368 0.59732 -0.40800
F 	F 	0.89087 0.66899 0.59303 -0.40600
H 	H 	0.65793 0.51219 0.46430 0.09600
F 	F 	0.67557 0.65726 0.43602 -0.38100
C 	C 	0.77322 0.14986 0.65450 0.30500
C 	C 	0.83450 0.20924 0.62710 -0.16000
C 	C 	0.91854 0.20992 0.62179 0.32100
C 	C 	0.94442 0.15856 0.64572 0.27400
C 	C 	0.88453 0.10359 0.67407 -0.16400
C 	C 	0.79552 0.09187 0.67572 0.30200
F 	F 	0.73498 0.03419 0.70158 -0.32400
F 	F 	0.69660 0.15584 0.66302 -0.38000
F 	F 	0.97775 0.26549 0.59523 -0.33900
C 	C 	0.81547 0.57066 0.68854 0.30300
C 	C 	0.73207 0.55094 0.67194 -0.15400
C 	C 	0.69340 0.61080 0.67923 0.30200
C 	C 	0.74094 0.69351 0.70083 0.30000
C 	C 	0.82734 0.71679 0.71557 -0.17100
C 	C 	0.86291 0.65309 0.71034 0.30200
F 	F 	0.94368 0.67143 0.72615 -0.34500
F 	F 	0.85268 0.51240 0.68225 -0.33300
F 	F 	0.70489 0.75324 0.70613 -0.33500
F 	F 	0.61140 0.59087 0.66414 -0.32200
C 	C 	0.97627 0.40825 0.00016 0.03200
C 	C 	0.98993 0.41427 0.96265 -0.01200
H 	H 	0.91800 0.34397 0.01156 0.10900
F 	F 	0.88988 0.43891 0.06025 -0.38900
C 	C 	0.63978 0.02418 0.98142 0.05700
C 	C 	0.60247 0.08598 0.97582 0.03500
H 	H 	0.71385 0.05305 0.97875 0.10400
C 	C 	0.62321 0.85731 0.98341 0.78200
F 	F 	0.69220 0.88366 0.00895 -0.35200
F 	F 	0.66182 0.86756 0.94934 -0.37400
C 	C 	0.63158 0.55691 0.00443 0.09000
C 	C 	0.61847 0.57068 0.04113 -0.07900
C 	C 	0.69700 0.65031 0.06202 0.79000
H 	H 	0.69787 0.60326 0.99198 0.12300
F 	F 	0.77682 0.64460 0.05692 -0.37500
F 	F 	0.67770 0.64287 0.09877 -0.37900
F 	F 	0.71175 0.73916 0.04949 -0.33800
C 	C 	0.99143 0.36249 0.80040 0.26900
C 	C 	0.92607 0.26636 0.79112 -0.15600
C 	C 	0.83711 0.24703 0.77997 0.27100
C 	C 	0.80961 0.31721 0.78504 0.28300
C 	C 	0.86815 0.40346 0.80334 -0.16700
C 	C 	0.96311 0.43258 0.80391 0.28600
F 	F 	0.72286 0.29672 0.77588 -0.32700
F 	F 	0.77743 0.16073 0.76464 -0.33700
C 	C 	0.82581 0.80436 0.89144 0.28900
C 	C 	0.91231 0.84141 0.87405 -0.16000
C 	C 	0.98120 0.82726 0.89046 0.27000
C 	C 	0.95778 0.76151 0.91937 0.28900
C 	C 	0.86439 0.70390 0.92924 -0.17700
C 	C 	0.80335 0.73825 0.92012 0.29300
F 	F 	0.71618 0.69391 0.93380 -0.34700
F 	F 	0.76094 0.82531 0.87866 -0.33000
