data_crystal

_cell_length_a 25.41379
_cell_length_b 23.06890
_cell_length_c 49.53676
_cell_angle_alpha 88.65116
_cell_angle_beta  88.77511
_cell_angle_gamma 107.21036

_symmetry_space_group_name_	'P 1'
_symmetry_space_group_name_H-M	'P 1'

loop_
_symmetry_equiv_pos_as_xyz
  x,y,z

loop_
_atom_site_label
_atom_site_type_symbol
_atom_site_fract_x
_atom_site_fract_y
_atom_site_fract_z
_atom_site_charge
Zn	Zn	0.60061 0.30298 0.90431 1.22300
Zn	Zn	0.67755 0.40636 0.94301 1.19600
C 	C 	0.76270 0.23609 0.87935 0.30900
Zn	Zn	0.72980 0.33620 0.90429 1.22200
Zn	Zn	0.64328 0.21176 0.87579 1.19300
H 	H 	0.66881 0.29285 0.94556 0.18100
C 	C 	0.71898 0.45212 0.88438 0.32100
O 	O 	0.56360 0.18266 0.86801 -0.46700
O 	O 	0.54246 0.27188 0.87344 -0.39500
O 	O 	0.66830 0.32262 0.93093 -0.78900
O 	O 	0.59928 0.40581 0.94821 -0.47000
O 	O 	0.55915 0.23200 0.92699 -0.44000
O 	O 	0.57130 0.37307 0.90616 -0.43600
O 	O 	0.62278 0.18292 0.91807 -0.41800
O 	O 	0.75709 0.45199 0.94439 -0.46400
H 	H 	0.66123 0.32295 0.86280 0.17200
O 	O 	0.79080 0.37385 0.93336 -0.40400
O 	O 	0.66144 0.30041 0.88004 -0.79600
O 	O 	0.71421 0.19581 0.88349 -0.45600
O 	O 	0.74970 0.41508 0.88439 -0.44300
O 	O 	0.77761 0.28489 0.89409 -0.42200
O 	O 	0.67808 0.44471 0.90217 -0.41500
C 	C 	0.53245 0.21799 0.86281 0.32100
C 	C 	0.56360 0.39839 0.92882 0.34900
C 	C 	0.57739 0.18502 0.93062 0.33000
C 	C 	0.79734 0.42709 0.94403 0.33200
Zn	Zn	0.64840 0.37756 0.52121 1.22100
Zn	Zn	0.55051 0.28527 0.48576 1.19600
C 	C 	0.69016 0.19717 0.56158 0.31500
Zn	Zn	0.60909 0.23504 0.52943 1.22300
Zn	Zn	0.72248 0.33054 0.55666 1.19400
H 	H 	0.65102 0.28843 0.48582 0.18100
C 	C 	0.50288 0.25165 0.54432 0.32100
O 	O 	0.75821 0.41912 0.55628 -0.46900
O 	O 	0.68295 0.45114 0.54764 -0.39300
O 	O 	0.62489 0.29546 0.49955 -0.79100
O 	O 	0.55599 0.37094 0.47576 -0.47500
O 	O 	0.71644 0.40725 0.49829 -0.43500
O 	O 	0.58934 0.41660 0.51510 -0.43500
O 	O 	0.74834 0.33107 0.51437 -0.42000
O 	O 	0.50734 0.19798 0.48718 -0.46600
H 	H 	0.62175 0.32281 0.56611 0.17200
O 	O 	0.57543 0.16160 0.50324 -0.40300
O 	O 	0.64310 0.31612 0.55015 -0.79200
O 	O 	0.73092 0.24789 0.55935 -0.45700
O 	O 	0.53689 0.21910 0.54821 -0.44400
O 	O 	0.65331 0.18312 0.54267 -0.42700
O 	O 	0.51312 0.29439 0.52509 -0.41700
C 	C 	0.73217 0.46042 0.55785 0.32100
C 	C 	0.56134 0.41480 0.49287 0.35200
C 	C 	0.75391 0.37841 0.49806 0.32600
C 	C 	0.52901 0.15333 0.49059 0.32800
Zn	Zn	0.96435 0.90540 0.71116 1.22400
Zn	Zn	0.05425 0.91273 0.75862 1.19600
C 	C 	0.12084 0.04890 0.65750 0.32700
Zn	Zn	0.07591 0.00916 0.71320 1.21800
Zn	Zn	0.00001 0.97573 0.65786 1.19500
H 	H 	0.07082 0.89801 0.70828 0.18300
C 	C 	0.01877 0.03126 0.76185 0.30700
O 	O 	0.92280 0.92759 0.65185 -0.46000
O 	O 	0.88676 0.90685 0.69518 -0.38100
O 	O 	0.04976 0.91992 0.71892 -0.78700
O 	O 	0.98815 0.84223 0.76707 -0.46700
O 	O 	0.96064 0.83365 0.69007 -0.44100
O 	O 	0.92524 0.88098 0.74655 -0.42700
O 	O 	0.01852 0.88916 0.65739 -0.41600
O 	O 	0.11850 0.97717 0.77159 -0.45300
H 	H 	0.97606 0.01560 0.70233 0.16200
O 	O 	0.15413 0.01808 0.73034 -0.40900
O 	O 	0.99803 0.98833 0.69722 -0.78500
O 	O 	0.08002 0.00887 0.64584 -0.46400
O 	O 	0.05564 0.05626 0.74261 -0.43800
O 	O 	0.11795 0.06211 0.68314 -0.44700
O 	O 	0.00390 0.97234 0.76694 -0.40700
C 	C 	0.88212 0.92208 0.66962 0.31500
C 	C 	0.93686 0.84136 0.76322 0.34100
C 	C 	0.98242 0.83816 0.66575 0.33500
C 	C 	0.16025 0.00890 0.75618 0.31400
Zn	Zn	0.30093 0.69554 0.40123 1.22200
Zn	Zn	0.21189 0.59132 0.43965 1.19400
C 	C 	0.14729 0.76606 0.36647 0.31400
Zn	Zn	0.17250 0.66529 0.39688 1.22200
Zn	Zn	0.26738 0.78711 0.36701 1.19400
H 	H 	0.22341 0.70540 0.43912 0.18200
C 	C 	0.18463 0.54895 0.38093 0.31900
O 	O 	0.34884 0.81611 0.36306 -0.46600
O 	O 	0.36750 0.72640 0.37212 -0.39400
O 	O 	0.22703 0.67614 0.42542 -0.78900
O 	O 	0.28746 0.58807 0.44864 -0.46600
O 	O 	0.33608 0.76695 0.42272 -0.43900
O 	O 	0.32829 0.62505 0.40761 -0.43800
O 	O 	0.27418 0.81444 0.40898 -0.41900
O 	O 	0.13118 0.54933 0.43932 -0.46300
H 	H 	0.25063 0.67546 0.35798 0.17200
O 	O 	0.10453 0.63078 0.42484 -0.40300
O 	O 	0.24670 0.69849 0.37413 -0.79600
O 	O 	0.19599 0.80560 0.36919 -0.45500
O 	O 	0.15438 0.58635 0.37922 -0.44200
O 	O 	0.12959 0.71912 0.38352 -0.42400
O 	O 	0.22049 0.55379 0.40021 -0.41400
C 	C 	0.38075 0.78076 0.36029 0.32000
C 	C 	0.33016 0.60054 0.43167 0.34600
C 	C 	0.31586 0.81291 0.42387 0.33200
C 	C 	0.09345 0.57765 0.43745 0.33100
Zn	Zn	0.22042 0.71137 0.02331 1.22100
Zn	Zn	0.31910 0.77910 0.06375 1.19700
C 	C 	0.35286 0.61897 0.97718 0.32700
Zn	Zn	0.34515 0.71893 0.01313 1.22200
Zn	Zn	0.23768 0.62492 0.98178 1.19400
H 	H 	0.28941 0.66658 0.05430 0.18200
C 	C 	0.35733 0.84873 0.00873 0.33100
O 	O 	0.15756 0.61285 0.97898 -0.46800
O 	O 	0.15263 0.70223 0.99702 -0.39500
O 	O 	0.29175 0.70413 0.04363 -0.79200
O 	O 	0.24830 0.78936 0.07653 -0.47800
O 	O 	0.17487 0.63755 0.04249 -0.44100
O 	O 	0.20672 0.78751 0.03592 -0.42700
O 	O 	0.22083 0.57932 0.02169 -0.41600
O 	O 	0.40017 0.80778 0.06191 -0.46900
H 	H 	0.27152 0.74002 0.97887 0.17400
O 	O 	0.41410 0.72883 0.03884 -0.40000
O 	O 	0.27085 0.70901 0.99314 -0.79600
O 	O 	0.30021 0.58932 0.98060 -0.46000
O 	O 	0.37579 0.80428 0.00055 -0.44200
O 	O 	0.37715 0.66344 0.99309 -0.43200
O 	O 	0.32071 0.83992 0.02885 -0.41700
C 	C 	0.13017 0.65212 0.98387 0.32900
C 	C 	0.21512 0.80727 0.06073 0.34600
C 	C 	0.18222 0.58455 0.03868 0.32800
C 	C 	0.43159 0.77417 0.05518 0.32800
Zn	Zn	0.96028 0.12919 0.20444 1.22300
Zn	Zn	0.87096 0.11264 0.25535 1.19500
C 	C 	0.80718 0.99031 0.15305 0.33800
Zn	Zn	0.84736 0.02628 0.20845 1.21900
Zn	Zn	0.92250 0.07231 0.15101 1.19200
H 	H 	0.85397 0.13856 0.20644 0.18200
C 	C 	0.90446 0.99305 0.25399 0.33800
O 	O 	0.99862 0.12447 0.14364 -0.46500
O 	O 	0.03715 0.12944 0.18504 -0.38200
O 	O 	0.87499 0.11406 0.21542 -0.78800
O 	O 	0.93764 0.18086 0.26257 -0.47100
O 	O 	0.96433 0.20532 0.18479 -0.43800
O 	O 	0.00032 0.14647 0.23877 -0.42900
O 	O 	0.90094 0.15644 0.15529 -0.41900
O 	O 	0.80653 0.04591 0.26964 -0.46600
H 	H 	0.94661 0.02058 0.19292 0.17100
O 	O 	0.77004 0.01495 0.22887 -0.41100
O 	O 	0.92508 0.04939 0.18971 -0.79900
O 	O 	0.84292 0.03939 0.14227 -0.47400
O 	O 	0.86730 0.97257 0.23566 -0.43600
O 	O 	0.80285 0.97966 0.17942 -0.43300
O 	O 	0.92059 0.05089 0.25974 -0.43200
C 	C 	0.03895 0.11978 0.15886 0.31400
C 	C 	0.98880 0.18196 0.25707 0.34100
C 	C 	0.93726 0.20629 0.16277 0.33200
C 	C 	0.76471 0.01685 0.25521 0.31200
C 	C 	0.06733 0.44110 0.11199 -0.02900
H 	H 	0.08306 0.48126 0.12468 0.03500
C 	C 	0.08143 0.43817 0.08183 -0.00500
C 	C 	0.11833 0.48928 0.06610 0.04700
C 	C 	0.07706 0.37862 0.11678 -0.02800
H 	H 	0.10008 0.36649 0.13374 0.03900
C 	C 	0.09161 0.37635 0.08642 -0.02900
H 	H 	0.12723 0.36325 0.07808 0.03700
C 	C 	0.00590 0.40926 0.10648 -0.02900
H 	H 	0.97030 0.42232 0.11485 0.03600
C 	C 	0.01612 0.34745 0.11104 -0.00500
C 	C 	0.98259 0.29693 0.12828 0.05000
C 	C 	0.03018 0.34441 0.08088 -0.02800
H 	H 	0.01444 0.30418 0.06823 0.03500
C 	C 	0.02051 0.40713 0.07602 -0.03000
H 	H 	0.99764 0.41941 0.05903 0.03700
C 	C 	0.95908 0.25539 0.14350 -0.11500
C 	C 	0.14824 0.53220 0.05350 -0.11300
C 	C 	0.64245 0.86088 0.07104 -0.02800
H 	H 	0.65128 0.85625 0.04928 0.03900
C 	C 	0.58546 0.83780 0.08526 -0.00500
C 	C 	0.53255 0.80977 0.07294 0.04900
C 	C 	0.66732 0.83408 0.09497 -0.02900
H 	H 	0.69767 0.80817 0.09314 0.03500
C 	C 	0.60932 0.81050 0.10891 -0.03000
H 	H 	0.59096 0.76452 0.11827 0.03500
C 	C 	0.65275 0.92156 0.08583 -0.02700
H 	H 	0.67101 0.96759 0.07650 0.03900
C 	C 	0.67665 0.89431 0.10948 -0.00600
C 	C 	0.72540 0.92753 0.12396 0.05100
C 	C 	0.61958 0.87116 0.12360 -0.02800
H 	H 	0.61052 0.87577 0.14533 0.03800
C 	C 	0.59511 0.89803 0.09981 -0.02800
H 	H 	0.56495 0.92418 0.10174 0.03800
C 	C 	0.76362 0.95597 0.13681 -0.11900
C 	C 	0.48711 0.79092 0.06410 -0.11400
C 	C 	0.13955 0.98893 0.08245 -0.00400
H 	H 	0.14094 0.00050 0.06052 0.02300
C 	C 	0.15485 0.93492 0.09510 -0.01300
C 	C 	0.17387 0.88996 0.08057 0.05500
C 	C 	0.17265 0.03030 0.10434 -0.04700
H 	H 	0.20122 0.07676 0.10078 0.03800
C 	C 	0.18836 0.97552 0.11676 -0.01700
H 	H 	0.23023 0.97615 0.12299 0.03400
C 	C 	0.08734 0.97284 0.10118 -0.02600
H 	H 	0.04545 0.97208 0.09491 0.02900
C 	C 	0.12076 0.01348 0.12286 -0.02100
C 	C 	0.09808 0.05519 0.13772 0.04200
C 	C 	0.13607 0.95945 0.13547 -0.02300
H 	H 	0.13463 0.94779 0.15740 0.03300
C 	C 	0.10298 0.91827 0.11361 -0.03100
H 	H 	0.07432 0.87185 0.11721 0.03400
C 	C 	0.07425 0.08673 0.14856 -0.13700
C 	C 	0.19116 0.85219 0.07027 -0.11900
C 	C 	0.57734 0.94823 0.30497 -0.03000
H 	H 	0.57991 0.99701 0.30277 0.03600
C 	C 	0.62079 0.91938 0.29448 -0.00100
C 	C 	0.67195 0.95377 0.28016 0.04100
C 	C 	0.57364 0.91225 0.33207 -0.02700
H 	H 	0.57227 0.93077 0.35247 0.03900
C 	C 	0.61788 0.88384 0.32139 -0.02900
H 	H 	0.65388 0.87968 0.33272 0.04000
C 	C 	0.53168 0.89490 0.29355 -0.02900
H 	H 	0.49571 0.89914 0.28221 0.03300
C 	C 	0.52869 0.85935 0.32046 -0.00500
C 	C 	0.47677 0.82796 0.33489 0.04600
C 	C 	0.57208 0.83037 0.31000 -0.02800
H 	H 	0.56942 0.78158 0.31222 0.03800
C 	C 	0.57589 0.86648 0.28284 -0.03000
H 	H 	0.57729 0.84804 0.26243 0.03700
C 	C 	0.43332 0.80475 0.34662 -0.11100
C 	C 	0.71413 0.98255 0.26861 -0.09500
C 	C 	0.11756 0.30623 0.32789 -0.02800
H 	H 	0.11780 0.26269 0.33786 0.03500
C 	C 	0.09428 0.31302 0.30001 -0.00600
C 	C 	0.06334 0.26347 0.28332 0.05000
C 	C 	0.08857 0.35125 0.33916 -0.02900
H 	H 	0.06514 0.34558 0.35871 0.03700
C 	C 	0.06503 0.35743 0.31114 -0.02800
H 	H 	0.02178 0.35612 0.30735 0.03500
C 	C 	0.16944 0.36009 0.32014 -0.03000
H 	H 	0.21271 0.36177 0.32406 0.03600
C 	C 	0.13981 0.40424 0.33117 -0.00400
C 	C 	0.16063 0.45563 0.34883 0.04500
C 	C 	0.11649 0.41089 0.30329 -0.03000
H 	H 	0.11607 0.45436 0.29331 0.03500
C 	C 	0.14554 0.36592 0.29190 -0.02900
H 	H 	0.16874 0.37144 0.27229 0.03600
C 	C 	0.17357 0.49821 0.36350 -0.10900
C 	C 	0.03219 0.22469 0.27061 -0.11700
C 	C 	0.99284 0.79955 0.30540 -0.02700
H 	H 	0.97728 0.74973 0.30289 0.03600
C 	C 	0.04143 0.83223 0.32280 -0.00600
C 	C 	0.07637 0.80472 0.33860 0.04500
C 	C 	0.01595 0.84784 0.28239 -0.03200
H 	H 	0.01880 0.83833 0.26063 0.03400
C 	C 	0.06500 0.87991 0.30005 -0.02800
H 	H 	0.10889 0.89627 0.29311 0.03400
C 	C 	0.95916 0.83974 0.31728 -0.02800
H 	H 	0.91526 0.82354 0.32420 0.03900
C 	C 	0.98288 0.88740 0.29454 -0.00200
C 	C 	0.95242 0.92137 0.27925 0.05000
C 	C 	0.03151 0.91983 0.31197 -0.02900
H 	H 	0.04725 0.96963 0.31454 0.04100
C 	C 	0.00834 0.87181 0.33491 -0.02700
H 	H 	0.00553 0.88145 0.35666 0.04000
C 	C 	0.92945 0.95251 0.26730 -0.11200
C 	C 	0.10752 0.78536 0.35149 -0.11500
C 	C 	0.50116 0.09456 0.48067 -0.11900
C 	C 	0.47762 0.04557 0.47198 0.04900
C 	C 	0.44964 0.98751 0.46107 -0.03700
C 	C 	0.39550 0.96223 0.46573 -0.06400
C 	C 	0.36636 0.90856 0.45177 0.07400
C 	C 	0.34273 0.86441 0.43944 -0.12400
H 	H 	0.37258 0.98367 0.47894 0.05400
H 	H 	0.47250 0.96596 0.44787 0.04800
C 	C 	0.80501 0.40427 0.48322 -0.12100
C 	C 	0.84879 0.42713 0.47164 0.06700
C 	C 	0.90186 0.45542 0.45860 -0.05500
C 	C 	0.93972 0.49899 0.47098 -0.05800
C 	C 	0.99364 0.52620 0.45863 0.07000
C 	C 	0.03909 0.54952 0.44879 -0.12600
H 	H 	0.93039 0.51384 0.49070 0.04900
H 	H 	0.91100 0.44045 0.43888 0.04800
C 	C 	0.53225 0.45851 0.48813 -0.12900
C 	C 	0.50580 0.49275 0.48300 0.07400
C 	C 	0.47214 0.53089 0.47580 -0.05800
C 	C 	0.45794 0.53491 0.45010 -0.05700
C 	C 	0.41379 0.55967 0.44355 0.07300
C 	C 	0.37598 0.57890 0.43802 -0.12700
H 	H 	0.47619 0.51461 0.43425 0.04900
H 	H 	0.45414 0.55134 0.49169 0.04900
C 	C 	0.77902 0.09266 0.62642 -0.02900
H 	H 	0.80275 0.14111 0.62855 0.02900
C 	C 	0.72798 0.06906 0.60918 -0.00200
C 	C 	0.70881 0.11127 0.59240 0.04300
C 	C 	0.80224 0.04350 0.61486 -0.03900
H 	H 	0.84554 0.05091 0.60773 0.02800
C 	C 	0.75102 0.02019 0.59748 -0.03800
H 	H 	0.75161 0.00898 0.57583 0.03700
C 	C 	0.74955 0.04853 0.64977 -0.04100
H 	H 	0.74918 0.05980 0.67142 0.03100
C 	C 	0.77254 0.99965 0.63802 0.00800
C 	C 	0.80411 0.96550 0.65228 0.04300
C 	C 	0.72147 0.97569 0.62081 -0.01200
H 	H 	0.69804 0.92716 0.61873 0.03700
C 	C 	0.69782 0.02540 0.63230 -0.04000
H 	H 	0.65451 0.01844 0.63924 0.03400
C 	C 	0.83671 0.94261 0.66169 -0.11800
C 	C 	0.69808 0.14913 0.57827 -0.11600
C 	C 	0.31524 0.17516 0.62606 -0.02900
H 	H 	0.32038 0.18499 0.64784 0.03600
C 	C 	0.26213 0.13643 0.61337 -0.00600
C 	C 	0.21101 0.10576 0.62875 0.04600
C 	C 	0.32233 0.22324 0.60278 -0.03000
H 	H 	0.33412 0.27315 0.60511 0.03600
C 	C 	0.26833 0.18402 0.59033 -0.02900
H 	H 	0.23480 0.20116 0.58266 0.03300
C 	C 	0.34855 0.14162 0.60924 -0.02900
H 	H 	0.38199 0.12438 0.61694 0.03600
C 	C 	0.35489 0.18922 0.58619 -0.00400
C 	C 	0.40722 0.21600 0.57113 0.04500
C 	C 	0.30178 0.15049 0.57350 -0.02900
H 	H 	0.29665 0.14060 0.55173 0.03600
C 	C 	0.29479 0.10256 0.59677 -0.02900
H 	H 	0.28311 0.05265 0.59441 0.03500
C 	C 	0.45075 0.23454 0.55884 -0.10900
C 	C 	0.16957 0.07990 0.64168 -0.11700
C 	C 	0.83423 0.68415 0.58468 -0.02800
H 	H 	0.81320 0.70236 0.56859 0.04000
C 	C 	0.82516 0.61656 0.59161 -0.00400
C 	C 	0.78826 0.56403 0.57858 0.04500
C 	C 	0.89742 0.69551 0.58640 -0.02800
H 	H 	0.92917 0.72378 0.57193 0.03700
C 	C 	0.88770 0.62705 0.59308 -0.02900
H 	H 	0.91080 0.59818 0.58382 0.03600
C 	C 	0.83087 0.69593 0.61528 -0.02700
H 	H 	0.80778 0.72479 0.62457 0.04100
C 	C 	0.89340 0.70639 0.61675 -0.00400
C 	C 	0.92970 0.75497 0.63224 0.05100
C 	C 	0.88420 0.63875 0.62360 -0.02900
H 	H 	0.90511 0.62036 0.63968 0.03500
C 	C 	0.82130 0.62763 0.62195 -0.02900
H 	H 	0.78964 0.59944 0.63649 0.03500
C 	C 	0.95630 0.79364 0.64663 -0.11300
C 	C 	0.76050 0.51812 0.56871 -0.11100
C 	C 	0.07239 0.63441 0.97858 -0.11900
C 	C 	0.02423 0.61328 0.97387 0.06600
C 	C 	0.96761 0.58253 0.96800 -0.05400
C 	C 	0.94881 0.52183 0.97048 -0.05800
C 	C 	0.89500 0.48913 0.96124 0.06900
C 	C 	0.85039 0.46072 0.95343 -0.12400
H 	H 	0.97509 0.49626 0.97839 0.05000
H 	H 	0.94160 0.60845 0.96012 0.04800
C 	C 	0.54648 0.13457 0.94763 -0.12200
C 	C 	0.52009 0.09145 0.96139 0.06300
C 	C 	0.48888 0.03890 0.97739 -0.05000
C 	C 	0.43419 0.01664 0.97503 -0.07600
C 	C 	0.40473 0.95837 0.98736 0.08800
C 	C 	0.38173 0.90880 0.99730 -0.12500
H 	H 	0.41220 0.04020 0.96235 0.05100
H 	H 	0.51076 0.01530 0.99013 0.04400
C 	C 	0.38704 0.59018 0.96264 -0.12600
C 	C 	0.41652 0.56577 0.95113 0.06900
C 	C 	0.45276 0.53641 0.93836 -0.05700
C 	C 	0.44023 0.47585 0.93928 -0.05800
C 	C 	0.48262 0.44724 0.93442 0.07500
C 	C 	0.51910 0.42433 0.93135 -0.12800
H 	H 	0.39981 0.44824 0.94670 0.04900
H 	H 	0.49305 0.56397 0.93074 0.04900
C 	C 	0.89033 0.09107 0.82644 -0.02900
H 	H 	0.87902 0.04151 0.83111 0.03600
C 	C 	0.93512 0.12615 0.80580 -0.00300
C 	C 	0.96742 0.09581 0.78953 0.04100
C 	C 	0.85115 0.12519 0.81516 -0.03000
H 	H 	0.80700 0.10419 0.81083 0.03000
C 	C 	0.89635 0.15994 0.79430 -0.03100
H 	H 	0.89006 0.16717 0.77251 0.03100
C 	C 	0.91225 0.14170 0.84689 -0.02800
H 	H 	0.91848 0.13439 0.86868 0.03700
C 	C 	0.87349 0.17550 0.83539 -0.00600
C 	C 	0.83683 0.20034 0.85167 0.04200
C 	C 	0.91824 0.21077 0.81477 -0.03000
H 	H 	0.92940 0.26032 0.81014 0.03400
C 	C 	0.95765 0.17647 0.82601 -0.02800
H 	H 	0.00183 0.19731 0.83030 0.03600
C 	C 	0.80428 0.21808 0.86464 -0.11800
C 	C 	0.99194 0.06792 0.77656 -0.10700
C 	C 	0.35479 0.17970 0.80817 -0.02800
H 	H 	0.36053 0.22916 0.80947 0.03700
C 	C 	0.39310 0.14581 0.82007 -0.00500
C 	C 	0.44273 0.17338 0.83514 0.04500
C 	C 	0.30450 0.12849 0.81976 -0.02800
H 	H 	0.26786 0.13527 0.83029 0.03700
C 	C 	0.34358 0.09507 0.83186 -0.02900
H 	H 	0.34008 0.07493 0.85264 0.03600
C 	C 	0.35317 0.14471 0.78170 -0.02900
H 	H 	0.35660 0.16478 0.76091 0.03600
C 	C 	0.30370 0.09397 0.79354 -0.00500
C 	C 	0.25339 0.06428 0.77934 0.04400
C 	C 	0.34204 0.06015 0.80544 -0.03000
H 	H 	0.33635 0.01069 0.80417 0.03100
C 	C 	0.39232 0.11129 0.79385 -0.03000
H 	H 	0.42897 0.10450 0.78334 0.03200
C 	C 	0.21129 0.03921 0.76835 -0.11300
C 	C 	0.48361 0.19460 0.84774 -0.11300
C 	C 	0.80563 0.70309 0.83460 -0.02800
H 	H 	0.80893 0.74483 0.84601 0.03900
C 	C 	0.82782 0.70136 0.80563 -0.00500
C 	C 	0.86127 0.75397 0.78955 0.05200
C 	C 	0.83007 0.65162 0.84304 -0.02800
H 	H 	0.85313 0.65005 0.86170 0.03900
C 	C 	0.85256 0.65053 0.81393 -0.02800
H 	H 	0.89465 0.64892 0.80833 0.03600
C 	C 	0.75102 0.65518 0.82730 -0.02900
H 	H 	0.70890 0.65646 0.83300 0.03800
C 	C 	0.77608 0.60456 0.83550 -0.00400
C 	C 	0.75129 0.55016 0.85256 0.04600
C 	C 	0.79829 0.60289 0.80653 -0.02900
H 	H 	0.79515 0.56119 0.79513 0.03500
C 	C 	0.77383 0.65443 0.79797 -0.02800
H 	H 	0.75100 0.65618 0.77926 0.03700
C 	C 	0.73469 0.50528 0.86694 -0.10900
C 	C 	0.89345 0.79531 0.77704 -0.11400
