data_crystal

_cell_length_a 22.88580
_cell_length_b 22.51317
_cell_length_c 26.52780
_cell_angle_alpha 95.46647
_cell_angle_beta  95.46586
_cell_angle_gamma 126.01780

_symmetry_space_group_name_	'P 1'
_symmetry_space_group_name_H-M	'P 1'

loop_
_symmetry_equiv_pos_as_xyz
  x,y,z

loop_
_atom_site_label
_atom_site_type_symbol
_atom_site_fract_x
_atom_site_fract_y
_atom_site_fract_z
_atom_site_charge
C 	C 	0.96295 0.03649 0.98024 0.01200
C 	C 	0.03735 0.07360 0.97698 -0.06200
C 	C 	0.06859 0.03548 0.97873 0.01400
H 	H 	0.07067 0.13177 0.97291 0.04500
C 	C 	0.94503 0.01699 0.47350 0.01300
C 	C 	0.01830 0.05966 0.46648 -0.06300
C 	C 	0.05496 0.02728 0.46366 0.01600
H 	H 	0.04680 0.11797 0.46357 0.04700
Cu	Cu	0.62850 0.22441 0.00352 0.92600
Cu	Cu	0.67849 0.22196 0.89205 0.86500
C 	C 	0.65355 0.28286 0.11109 0.29700
O 	O 	0.52294 0.18015 0.00846 -0.36900
C 	C 	0.63941 0.28682 0.82229 0.28600
O 	O 	0.61016 0.22433 0.92918 -0.63900
O 	O 	0.67293 0.17045 0.99990 -0.37000
O 	O 	0.74972 0.24430 0.94873 -0.44100
O 	O 	0.62381 0.31621 0.09805 -0.38800
C 	C 	0.49094 0.20955 0.99191 0.28300
O 	O 	0.53116 0.27739 0.98170 -0.39200
O 	O 	0.66161 0.24355 0.07615 -0.36900
C 	C 	0.73234 0.19700 0.98008 0.28600
O 	O 	0.62787 0.32224 0.85773 -0.38000
O 	O 	0.63339 0.22648 0.82947 -0.42100
H 	H 	0.55812 0.18972 0.91136 0.17400
Cu	Cu	0.73604 0.33301 0.43340 0.92800
Cu	Cu	0.74289 0.28705 0.54636 0.86500
Cu	Cu	0.63388 0.31189 0.50708 0.89600
Cu	Cu	0.59905 0.33133 0.40240 0.89200
C 	C 	0.66967 0.29794 0.32687 0.29400
C 	C 	0.68134 0.32932 0.61653 0.28600
O 	O 	0.62377 0.27674 0.43590 -0.64300
O 	O 	0.78986 0.28882 0.43708 -0.37400
O 	O 	0.71995 0.21335 0.49040 -0.44300
O 	O 	0.64243 0.33392 0.33995 -0.38600
O 	O 	0.53018 0.26148 0.50455 -0.39200
C 	C 	0.48471 0.26074 0.46941 0.29200
O 	O 	0.50613 0.29333 0.42897 -0.39400
O 	O 	0.71451 0.29630 0.36092 -0.36500
C 	C 	0.76584 0.23023 0.45865 0.29000
O 	O 	0.64656 0.34134 0.58130 -0.38000
O 	O 	0.74019 0.33470 0.60891 -0.42100
H 	H 	0.58938 0.22174 0.42461 0.16200
C 	C 	0.58798 0.25219 0.72891 -0.04100
C 	C 	0.64388 0.30548 0.77043 -0.09500
C 	C 	0.66345 0.32504 0.66853 -0.09600
C 	C 	0.59703 0.26117 0.67791 0.09700
N 	N 	0.54263 0.20751 0.63830 -0.20100
H 	H 	0.53833 0.20217 0.73627 0.04500
H 	H 	0.49414 0.16039 0.64574 0.08000
H 	H 	0.54741 0.21199 0.59990 0.08000
C 	C 	0.59544 0.22779 0.18440 -0.03900
C 	C 	0.65993 0.27353 0.16491 -0.09200
C 	C 	0.72903 0.31624 0.19853 0.10300
C 	C 	0.73171 0.31821 0.25184 -0.04100
C 	C 	0.66664 0.27820 0.27171 -0.09100
C 	C 	0.59823 0.22901 0.23756 0.10100
N 	N 	0.53525 0.18289 0.25559 -0.19900
H 	H 	0.54270 0.19281 0.15823 0.04700
H 	H 	0.48452 0.14854 0.23031 0.07900
H 	H 	0.53634 0.17866 0.29449 0.07400
C 	C 	0.90706 0.05158 0.47774 0.01500
C 	C 	0.84693 0.08938 0.52784 -0.03200
C 	C 	0.83751 0.12030 0.48720 -0.01300
C 	C 	0.86258 0.11623 0.44123 0.04000
C 	C 	0.89701 0.08154 0.43665 -0.07400
C 	C 	0.85360 0.14766 0.40075 -0.07300
C 	C 	0.82101 0.18388 0.40614 0.01600
C 	C 	0.79673 0.18876 0.45196 -0.09200
C 	C 	0.80437 0.15620 0.49222 -0.00900
H 	H 	0.91625 0.07811 0.40143 0.04700
H 	H 	0.87230 0.14455 0.36524 0.04600
H 	H 	0.81467 0.20819 0.37469 0.03700
H 	H 	0.78607 0.16026 0.52777 0.01700
C 	C 	0.40848 0.22522 0.47681 -0.08100
C 	C 	0.39290 0.22352 0.52687 0.01100
C 	C 	0.32038 0.18598 0.53423 -0.07100
C 	C 	0.26244 0.14949 0.49164 0.03800
C 	C 	0.27776 0.15207 0.44115 -0.00900
C 	C 	0.35082 0.19022 0.43398 -0.01100
C 	C 	0.21968 0.11532 0.39855 -0.03300
C 	C 	0.14696 0.07538 0.40602 -0.04800
C 	C 	0.13161 0.07194 0.45604 0.01500
C 	C 	0.18931 0.10949 0.49880 -0.07200
H 	H 	0.43706 0.25113 0.56016 0.03800
H 	H 	0.30927 0.18478 0.57308 0.04500
H 	H 	0.36263 0.19118 0.39529 0.03400
H 	H 	0.23074 0.11712 0.35968 0.03300
H 	H 	0.10244 0.04655 0.37291 0.04000
H 	H 	0.17718 0.10682 0.53743 0.04800
C 	C 	0.92868 0.07488 0.97469 0.01900
C 	C 	0.92853 0.10294 0.92968 -0.04900
C 	C 	0.89196 0.13480 0.92260 -0.03400
C 	C 	0.85454 0.13840 0.96030 -0.00600
C 	C 	0.85530 0.11118 0.00602 0.03300
C 	C 	0.89292 0.08004 0.01319 -0.07700
C 	C 	0.81731 0.11424 0.04350 -0.06900
C 	C 	0.77786 0.14296 0.03529 0.00700
C 	C 	0.77619 0.16926 0.98963 -0.08200
C 	C 	0.81528 0.16761 0.95243 -0.01400
H 	H 	0.95575 0.09889 0.89975 0.03800
H 	H 	0.89192 0.15574 0.88747 0.03000
H 	H 	0.81783 0.09387 0.07883 0.04500
H 	H 	0.74868 0.14486 0.06450 0.04000
H 	H 	0.81388 0.18755 0.91702 0.02100
C 	C 	0.14665 0.07411 0.97452 0.01900
C 	C 	0.17252 0.10753 0.93169 -0.04700
C 	C 	0.24568 0.14176 0.92674 -0.03500
C 	C 	0.29357 0.14220 0.96430 -0.00100
C 	C 	0.26768 0.10851 0.00741 0.03200
C 	C 	0.19462 0.07545 0.01260 -0.07500
C 	C 	0.31501 0.10775 0.04453 -0.06800
C 	C 	0.38745 0.13998 0.03897 0.00400
C 	C 	0.41376 0.17392 0.99642 -0.07500
C 	C 	0.36686 0.17535 0.95920 -0.01600
H 	H 	0.26483 0.16729 0.89349 0.03600
H 	H 	0.17486 0.05027 0.04592 0.04600
H 	H 	0.29573 0.08211 0.07773 0.04200
H 	H 	0.42358 0.13957 0.06823 0.03500
H 	H 	0.38711 0.20150 0.92630 0.03700
Cu	Cu	0.65367 0.33204 0.93204 0.89700
O 	O 	0.68524 0.33915 0.00332 -0.64600
H 	H 	0.79264 0.35405 0.14060 0.08500
C 	C 	0.88169 0.05540 0.52316 -0.05000
H 	H 	0.82785 0.09214 0.56323 0.02900
H 	H 	0.89354 0.05889 0.04817 0.04600
H 	H 	0.78436 0.35407 0.27805 0.05100
N 	N 	0.79272 0.35637 0.18010 -0.20100
H 	H 	0.88946 0.03250 0.55503 0.03800
H 	H 	0.13572 0.10630 0.90197 0.03900
O 	O 	0.73928 0.35498 0.50809 -0.64000
C 	C 	0.70761 0.37220 0.76107 0.09700
C 	C 	0.71668 0.38120 0.71007 -0.04100
Cu	Cu	0.63094 0.36363 0.03647 0.89200
H 	H 	0.73917 0.37341 0.01562 0.16100
H 	H 	0.84348 0.38925 0.20537 0.08200
H 	H 	0.76653 0.43102 0.70272 0.04500
N 	N 	0.76092 0.42696 0.80070 -0.20100
C 	C 	0.02544 0.96045 0.98468 -0.05900
C 	C 	0.95163 0.92380 0.98903 0.01400
C 	C 	0.92033 0.96163 0.98650 -0.06100
H 	H 	0.04912 0.93056 0.98564 0.04800
H 	H 	0.86274 0.93262 0.98866 0.04800
C 	C 	0.01864 0.95234 0.46836 -0.06100
C 	C 	0.94511 0.90917 0.47487 0.01600
C 	C 	0.90837 0.94161 0.47733 -0.06300
H 	H 	0.04734 0.92756 0.46664 0.04700
H 	H 	0.85130 0.90819 0.48177 0.04600
O 	O 	0.70423 0.43801 0.93645 -0.39100
C 	C 	0.70618 0.48368 0.97295 0.29500
O 	O 	0.67082 0.45986 0.01176 -0.39700
O 	O 	0.77887 0.43927 0.42635 -0.36600
C 	C 	0.75230 0.47335 0.44466 0.28100
O 	O 	0.68589 0.43393 0.45552 -0.39400
H 	H 	0.77406 0.40827 0.52498 0.17300
H 	H 	0.75591 0.42255 0.83909 0.08100
H 	H 	0.80812 0.47549 0.79329 0.08000
C 	C 	0.90574 0.82920 0.47708 0.01500
C 	C 	0.87322 0.80130 0.51970 -0.04800
C 	C 	0.83568 0.72547 0.52172 -0.03300
C 	C 	0.83082 0.67688 0.48128 -0.00800
C 	C 	0.86393 0.70494 0.43847 0.03800
C 	C 	0.90067 0.78081 0.43641 -0.07200
C 	C 	0.86008 0.65679 0.39837 -0.07100
C 	C 	0.82386 0.58140 0.40069 0.01100
C 	C 	0.79057 0.55301 0.44295 -0.08100
C 	C 	0.79371 0.60071 0.48312 -0.01200
H 	H 	0.87724 0.83846 0.55135 0.03900
H 	H 	0.81072 0.70469 0.55479 0.03500
H 	H 	0.92528 0.80229 0.40330 0.04700
H 	H 	0.88524 0.67773 0.36539 0.04400
H 	H 	0.82097 0.54473 0.36929 0.03600
H 	H 	0.76815 0.57882 0.51583 0.03600
C 	C 	0.74388 0.56239 0.96781 -0.07800
C 	C 	0.74348 0.58075 0.91868 0.01300
C 	C 	0.78282 0.65546 0.91320 -0.07300
C 	C 	0.82341 0.71282 0.95676 0.04500
C 	C 	0.82331 0.69477 0.00640 -0.01500
C 	C 	0.78310 0.61951 0.01171 -0.01400
C 	C 	0.86445 0.75229 0.04994 -0.02900
C 	C 	0.90598 0.82707 0.04420 -0.05600
C 	C 	0.90655 0.84508 0.99498 0.02200
C 	C 	0.86491 0.78802 0.95135 -0.07600
H 	H 	0.71279 0.53703 0.88464 0.03800
H 	H 	0.78221 0.66866 0.87500 0.04600
H 	H 	0.78373 0.60547 0.04966 0.03300
H 	H 	0.86471 0.73916 0.08819 0.03200
H 	H 	0.93798 0.87107 0.07799 0.04100
H 	H 	0.86542 0.80220 0.91335 0.04900
