data_crystal

_cell_length_a 30.84019
_cell_length_b 31.06814
_cell_length_c 35.07483
_cell_angle_alpha 95.52657
_cell_angle_beta  95.52548
_cell_angle_gamma 125.53405

_symmetry_space_group_name_	'P 1'
_symmetry_space_group_name_H-M	'P 1'

loop_
_symmetry_equiv_pos_as_xyz
  x,y,z

loop_
_atom_site_label
_atom_site_type_symbol
_atom_site_fract_x
_atom_site_fract_y
_atom_site_fract_z
_atom_site_charge
C 	C 	0.00697 0.05387 0.99340 0.03400
C 	C 	0.00084 0.97175 0.98590 0.03000
C 	C 	0.99859 0.98220 0.45101 0.02800
H 	H 	0.99752 0.05059 0.44763 0.05200
C 	C 	0.97633 0.99784 0.99065 -0.07500
C 	C 	0.05604 0.00174 0.98385 -0.07100
C 	C 	0.08677 0.05766 0.98640 0.03400
C 	C 	0.06225 0.08374 0.99130 -0.07500
H 	H 	0.93351 0.97462 0.99190 0.05300
H 	H 	0.07516 0.98166 0.98057 0.05200
H 	H 	0.08602 0.12703 0.99341 0.05400
C 	C 	0.91786 0.97929 0.44905 0.02800
C 	C 	0.97365 0.00814 0.44915 -0.06800
C 	C 	0.96761 0.92724 0.45266 -0.07300
C 	C 	0.91184 0.89818 0.45247 0.03300
C 	C 	0.88696 0.92424 0.45073 -0.07200
H 	H 	0.98691 0.90720 0.45433 0.05400
H 	H 	0.84386 0.90185 0.45072 0.05400
Cu	Cu	0.68192 0.28364 0.00496 0.93200
Cu	Cu	0.71445 0.27455 0.91982 0.88200
Cu	Cu	0.71311 0.36595 0.95168 0.90300
Cu	Cu	0.69403 0.39050 0.03180 0.90300
C 	C 	0.69203 0.31991 0.08593 0.33400
O 	O 	0.60447 0.25491 0.00734 -0.35100
C 	C 	0.68633 0.32212 0.86683 0.33700
O 	O 	0.72949 0.36714 0.00598 -0.63700
O 	O 	0.67115 0.28644 0.94900 -0.64000
O 	O 	0.71177 0.24147 0.00241 -0.35600
O 	O 	0.76807 0.28996 0.96177 -0.42700
O 	O 	0.70032 0.36590 0.08143 -0.36200
O 	O 	0.75798 0.44361 0.95814 -0.36500
C 	C 	0.75623 0.47544 0.98467 0.30700
C 	C 	0.58500 0.28106 0.99770 0.31000
O 	O 	0.61746 0.33060 0.99215 -0.37800
O 	O 	0.72075 0.45587 0.00818 -0.37800
O 	O 	0.70196 0.29418 0.06015 -0.34400
C 	C 	0.75510 0.25813 0.98727 0.31100
O 	O 	0.70855 0.36467 0.89492 -0.36300
O 	O 	0.67864 0.27745 0.87380 -0.39500
H 	H 	0.76875 0.38782 0.01662 0.17900
H 	H 	0.63281 0.26623 0.93589 0.18500
Cu	Cu	0.69921 0.31482 0.44726 0.93200
Cu	Cu	0.69839 0.27118 0.52888 0.88200
Cu	Cu	0.61054 0.27774 0.49595 0.90300
Cu	Cu	0.59555 0.30840 0.41993 0.90200
C 	C 	0.66311 0.30363 0.36547 0.33600
O 	O 	0.72788 0.39278 0.44909 -0.34500
C 	C 	0.64688 0.29502 0.58120 0.33700
O 	O 	0.61449 0.26742 0.44199 -0.64000
O 	O 	0.69108 0.31900 0.50246 -0.63900
O 	O 	0.74122 0.28454 0.44971 -0.35700
O 	O 	0.68619 0.22253 0.48477 -0.42600
O 	O 	0.63481 0.32127 0.37519 -0.36400
O 	O 	0.53210 0.23386 0.48590 -0.36500
C 	C 	0.50202 0.23732 0.45876 0.31100
C 	C 	0.70205 0.41104 0.46252 0.30600
O 	O 	0.65152 0.37713 0.46639 -0.38100
O 	O 	0.52370 0.27400 0.43639 -0.38100
O 	O 	0.69312 0.29925 0.39207 -0.34300
C 	C 	0.72153 0.23876 0.46156 0.31200
O 	O 	0.60640 0.27637 0.55178 -0.36200
O 	O 	0.69207 0.30194 0.57575 -0.39500
H 	H 	0.59316 0.22928 0.42879 0.18100
H 	H 	0.71120 0.35589 0.51788 0.18700
C 	C 	0.63820 0.30024 0.62135 -0.12000
C 	C 	0.65864 0.35118 0.64262 0.12600
C 	C 	0.66100 0.35836 0.68321 0.06700
C 	C 	0.64358 0.31468 0.70248 0.01800
C 	C 	0.61835 0.26274 0.68061 0.06500
C 	C 	0.61543 0.25550 0.64000 0.12500
C 	C 	0.65759 0.32430 0.74557 0.01700
C 	C 	0.70761 0.33698 0.76337 0.06400
C 	C 	0.71817 0.33916 0.80367 0.12600
C 	C 	0.67841 0.32772 0.82609 -0.12000
C 	C 	0.62973 0.31816 0.80879 0.12600
C 	C 	0.61949 0.31691 0.76854 0.06700
Br	Br	0.59012 0.20206 0.70663 -0.16500
Br	Br	0.68448 0.41116 0.61617 -0.19900
Br	Br	0.78703 0.35754 0.82827 -0.21500
Br	Br	0.55301 0.30406 0.74464 -0.15600
Br	Br	0.58194 0.18466 0.60999 -0.20700
Br	Br	0.68978 0.42818 0.71270 -0.15700
Br	Br	0.76087 0.34967 0.73221 -0.16800
Br	Br	0.57673 0.30563 0.84012 -0.19900
C 	C 	0.67173 0.30151 0.32497 -0.11600
C 	C 	0.69947 0.34914 0.30956 0.12600
C 	C 	0.70179 0.34647 0.26965 0.06500
C 	C 	0.67904 0.29650 0.24551 0.01700
C 	C 	0.65496 0.24939 0.26158 0.06700
C 	C 	0.65049 0.25176 0.30118 0.12300
C 	C 	0.67879 0.29338 0.20303 0.01700
C 	C 	0.63436 0.28337 0.17762 0.06700
C 	C 	0.63741 0.28839 0.13837 0.12200
C 	C 	0.68553 0.30521 0.12478 -0.11400
C 	C 	0.72902 0.31269 0.14975 0.12700
C 	C 	0.72496 0.30534 0.18857 0.06600
Br	Br	0.62786 0.18177 0.22919 -0.15700
Br	Br	0.73601 0.41818 0.34348 -0.18200
Br	Br	0.57579 0.27244 0.10313 -0.20100
Br	Br	0.78309 0.31290 0.22234 -0.15700
Br	Br	0.61404 0.18680 0.32263 -0.19900
Br	Br	0.73491 0.41101 0.24771 -0.16500
Br	Br	0.57015 0.26469 0.19705 -0.16600
Br	Br	0.79537 0.33634 0.13160 -0.18000
C 	C 	0.87963 0.84039 0.45406 -0.00200
C 	C 	0.86255 0.82287 0.48871 -0.03200
C 	C 	0.83740 0.76894 0.49164 -0.04000
C 	C 	0.82906 0.73216 0.45988 0.01100
C 	C 	0.84485 0.74944 0.42490 -0.04000
C 	C 	0.87005 0.80334 0.42201 -0.03200
C 	C 	0.80520 0.67594 0.46354 0.01300
C 	C 	0.75524 0.63364 0.44016 -0.03800
C 	C 	0.73438 0.58021 0.44168 -0.02400
C 	C 	0.76327 0.56870 0.46657 0.00000
C 	C 	0.81268 0.61087 0.49049 -0.02500
C 	C 	0.83360 0.66437 0.48901 -0.03800
C 	C 	0.74299 0.51361 0.46647 0.05800
C 	C 	0.72501 0.46704 0.46533 -0.08900
H 	H 	0.86989 0.85125 0.51362 0.04300
H 	H 	0.82500 0.75588 0.51867 0.04700
H 	H 	0.83848 0.72132 0.40021 0.04800
H 	H 	0.88314 0.81655 0.39515 0.04300
H 	H 	0.73293 0.64217 0.42052 0.04800
H 	H 	0.69609 0.54779 0.42317 0.05000
H 	H 	0.83520 0.60227 0.50984 0.05000
H 	H 	0.87226 0.69676 0.50712 0.04800
C 	C 	0.89199 0.00696 0.44748 0.00500
C 	C 	0.85392 0.99374 0.41452 -0.03900
C 	C 	0.83175 0.02214 0.41212 -0.03500
C 	C 	0.84745 0.06394 0.44267 0.00800
C 	C 	0.88499 0.07665 0.47585 -0.03800
C 	C 	0.90719 0.04832 0.47822 -0.03600
C 	C 	0.82437 0.09420 0.44013 0.01300
C 	C 	0.85853 0.15002 0.44133 -0.04000
C 	C 	0.83727 0.17938 0.44211 -0.02600
C 	C 	0.78176 0.15315 0.44156 -0.00300
C 	C 	0.74733 0.09719 0.43908 -0.02500
C 	C 	0.76853 0.06778 0.43837 -0.04000
C 	C 	0.76098 0.18409 0.44713 0.05700
C 	C 	0.74323 0.20946 0.45299 -0.10100
H 	H 	0.84211 0.96200 0.39059 0.04400
H 	H 	0.80277 0.01199 0.38641 0.04600
H 	H 	0.89695 0.10848 0.49976 0.04500
H 	H 	0.93641 0.05868 0.50383 0.04300
H 	H 	0.90162 0.17071 0.44233 0.04700
H 	H 	0.86414 0.22263 0.44400 0.04800
H 	H 	0.70437 0.07664 0.43867 0.04900
H 	H 	0.74182 0.02473 0.43738 0.04700
C 	C 	0.05730 0.01265 0.45150 0.00400
C 	C 	0.07603 0.99885 0.42113 -0.03900
C 	C 	0.13170 0.02670 0.42214 -0.03600
C 	C 	0.16909 0.06857 0.45352 0.00900
C 	C 	0.15036 0.08257 0.48377 -0.03800
C 	C 	0.09469 0.05472 0.48276 -0.03500
C 	C 	0.22782 0.09786 0.45463 0.01300
C 	C 	0.26025 0.15302 0.45340 -0.04000
C 	C 	0.31592 0.18078 0.45441 -0.02600
C 	C 	0.33950 0.15360 0.45665 -0.00200
C 	C 	0.30722 0.09853 0.45790 -0.02600
C 	C 	0.25152 0.07071 0.45691 -0.03900
C 	C 	0.39680 0.18227 0.45750 0.05500
C 	C 	0.44482 0.20697 0.45813 -0.09200
H 	H 	0.04745 0.96655 0.39681 0.04300
H 	H 	0.14580 0.01585 0.39854 0.04500
H 	H 	0.17894 0.11477 0.50815 0.04700
H 	H 	0.08059 0.06548 0.50641 0.04300
H 	H 	0.24229 0.17428 0.45150 0.04700
H 	H 	0.34066 0.22336 0.45340 0.04800
H 	H 	0.32521 0.07728 0.45964 0.04900
H 	H 	0.22684 0.02817 0.45802 0.04800
C 	C 	0.96887 0.91299 0.98340 -0.00200
C 	C 	0.96256 0.88013 0.94969 -0.03300
C 	C 	0.93517 0.82486 0.94823 -0.03900
C 	C 	0.91378 0.80201 0.98042 0.00800
C 	C 	0.91932 0.83471 0.01389 -0.03700
C 	C 	0.94676 0.88999 0.01538 -0.03100
C 	C 	0.88616 0.74399 0.97929 0.01300
C 	C 	0.83090 0.71038 0.98130 -0.04000
C 	C 	0.80507 0.65564 0.98132 -0.02600
C 	C 	0.83427 0.63415 0.97931 -0.00200
C 	C 	0.88932 0.66751 0.97691 -0.02600
C 	C 	0.91523 0.72230 0.97688 -0.04000
C 	C 	0.80797 0.57817 0.98076 0.05400
C 	C 	0.78498 0.53126 0.98233 -0.09200
H 	H 	0.97928 0.89751 0.92479 0.04300
H 	H 	0.93073 0.79984 0.92217 0.04700
H 	H 	0.90294 0.81738 0.03890 0.04500
H 	H 	0.95160 0.91507 0.04157 0.04200
H 	H 	0.80809 0.72672 0.98299 0.04600
H 	H 	0.76246 0.63002 0.98315 0.04800
H 	H 	0.91214 0.65114 0.97537 0.04800
H 	H 	0.95794 0.74797 0.97539 0.04700
C 	C 	0.98091 0.08112 0.99781 -0.00500
C 	C 	0.97825 0.10798 0.96874 -0.03100
C 	C 	0.95199 0.13227 0.97226 -0.04400
C 	C 	0.92812 0.12990 0.00486 0.01400
C 	C 	0.93124 0.10352 0.03413 -0.04200
C 	C 	0.95757 0.07926 0.03063 -0.02900
C 	C 	0.89855 0.15369 0.00773 0.01200
C 	C 	0.84228 0.12044 0.00632 -0.03900
C 	C 	0.81349 0.14237 0.00560 -0.02500
C 	C 	0.84075 0.19763 0.00633 -0.00500
C 	C 	0.89717 0.23115 0.00900 -0.02500
C 	C 	0.92601 0.20928 0.00973 -0.03900
C 	C 	0.81039 0.21909 0.00092 0.06100
C 	C 	0.78505 0.23696 0.99532 -0.10500
H 	H 	0.99596 0.10944 0.94323 0.04300
H 	H 	0.94957 0.15234 0.94944 0.04600
H 	H 	0.91310 0.10166 0.05946 0.04800
H 	H 	0.95966 0.05886 0.05332 0.04200
H 	H 	0.82073 0.07749 0.00481 0.04700
H 	H 	0.76987 0.11622 0.00353 0.04800
H 	H 	0.91851 0.27392 0.00963 0.04900
H 	H 	0.96949 0.23533 0.01113 0.04800
C 	C 	0.14481 0.08888 0.98431 -0.00400
C 	C 	0.16091 0.07926 0.95037 -0.03200
C 	C 	0.21589 0.10490 0.94965 -0.03900
C 	C 	0.25522 0.14039 0.98284 0.00900
C 	C 	0.23922 0.15121 0.01640 -0.03700
C 	C 	0.18422 0.12556 0.01712 -0.03000
C 	C 	0.31289 0.16455 0.98301 0.01400
C 	C 	0.35088 0.22060 0.98767 -0.03900
C 	C 	0.40585 0.24358 0.98924 -0.02400
C 	C 	0.42315 0.21069 0.98614 0.00000
C 	C 	0.38521 0.15467 0.98103 -0.02400
C 	C 	0.33022 0.13163 0.97945 -0.03800
C 	C 	0.48002 0.23460 0.98959 0.06100
C 	C 	0.52784 0.25531 0.99297 -0.08900
H 	H 	0.13076 0.05124 0.92483 0.04300
H 	H 	0.22791 0.09669 0.92351 0.04700
H 	H 	0.26932 0.17861 0.04215 0.04800
H 	H 	0.17215 0.13317 0.04346 0.04400
H 	H 	0.33785 0.24631 0.99027 0.04800
H 	H 	0.43500 0.28694 0.99320 0.05000
H 	H 	0.39833 0.12902 0.97867 0.05100
H 	H 	0.30120 0.08832 0.97596 0.04800
