data_crystal

_cell_length_a 26.65592
_cell_length_b 26.74740
_cell_length_c 18.95209
_cell_angle_alpha 90.00228
_cell_angle_beta  90.00084
_cell_angle_gamma 120.00306

_symmetry_space_group_name_	'P 1'
_symmetry_space_group_name_H-M	'P 1'

loop_
_symmetry_equiv_pos_as_xyz
  x,y,z

loop_
_atom_site_label
_atom_site_type_symbol
_atom_site_fract_x
_atom_site_fract_y
_atom_site_fract_z
_atom_site_charge
C 	C 	0.54639 0.39491 0.75463 0.29900
C 	C 	0.75541 0.60387 0.67040 0.31900
C 	C 	0.59071 0.54135 0.80909 0.32700
C 	C 	0.71255 0.47332 0.59481 0.29600
C 	C 	0.59565 0.60489 0.59320 0.32500
C 	C 	0.52968 0.45366 0.52678 0.30600
Ni	Ni	0.66254 0.50009 0.73141 1.11900
Ni	Ni	0.65476 0.54026 0.57112 1.13000
Ni	Ni	0.54557 0.49409 0.67262 1.12400
O 	O 	0.60248 0.41437 0.74630 -0.35800
O 	O 	0.52325 0.42904 0.74656 -0.35000
O 	O 	0.64616 0.60817 0.59387 -0.36800
O 	O 	0.71562 0.58719 0.71852 -0.35300
O 	O 	0.73944 0.58943 0.60423 -0.34900
O 	O 	0.51304 0.43817 0.59288 -0.37700
O 	O 	0.62129 0.51543 0.81656 -0.33500
O 	O 	0.58340 0.55584 0.74616 -0.36700
O 	O 	0.58064 0.50048 0.51088 -0.34700
O 	O 	0.71558 0.48141 0.66509 -0.35300
O 	O 	0.67403 0.47761 0.55518 -0.35100
O 	O 	0.54800 0.55591 0.60773 -0.36200
O 	O 	0.61712 0.49747 0.65414 -0.71500
H 	H 	0.60299 0.45765 0.63776 0.17300
C 	C 	0.40128 0.54321 0.25571 0.30100
C 	C 	0.19760 0.33027 0.17498 0.31300
C 	C 	0.36397 0.39705 0.30612 0.32800
C 	C 	0.23216 0.46030 0.10092 0.29400
C 	C 	0.35944 0.33851 0.08729 0.33400
C 	C 	0.41803 0.48592 0.02365 0.27400
Ni	Ni	0.28774 0.43518 0.23337 1.12200
Ni	Ni	0.29372 0.39737 0.07138 1.12600
Ni	Ni	0.40573 0.44785 0.16937 1.12400
O 	O 	0.34483 0.52166 0.24789 -0.36100
O 	O 	0.42679 0.51158 0.24461 -0.35100
O 	O 	0.30754 0.33201 0.09034 -0.38100
O 	O 	0.23999 0.34793 0.21916 -0.35200
O 	O 	0.21037 0.34459 0.10811 -0.35400
O 	O 	0.43332 0.50365 0.08939 -0.37500
O 	O 	0.33305 0.42239 0.31540 -0.33400
O 	O 	0.37268 0.38504 0.24238 -0.36900
O 	O 	0.36568 0.44082 0.00757 -0.35300
O 	O 	0.23006 0.44989 0.17057 -0.34800
O 	O 	0.26975 0.45692 0.05840 -0.36100
O 	O 	0.40559 0.38864 0.10206 -0.36900
O 	O 	0.33223 0.44087 0.15385 -0.71500
H 	H 	0.34396 0.48034 0.13808 0.17300
C 	C 	0.54801 0.10357 0.10575 0.30700
C 	C 	0.35879 0.13123 0.00572 0.28800
C 	C 	0.40833 0.02763 0.16271 0.29300
C 	C 	0.48716 0.19550 0.91903 0.30400
C 	C 	0.32642 0.95317 0.95389 0.33900
C 	C 	0.47590 0.01334 0.87920 0.29000
Ni	Ni	0.45731 0.13209 0.06646 1.10300
Ni	Ni	0.40460 0.07166 0.91471 1.12700
Ni	Ni	0.44129 0.00680 0.02683 1.10700
O 	O 	0.53920 0.14389 0.07832 -0.37500
O 	O 	0.51205 0.04700 0.09430 -0.35600
O 	O 	0.33172 0.00426 0.94980 -0.36900
O 	O 	0.37142 0.10655 0.05567 -0.37400
O 	O 	0.36844 0.12186 0.94033 -0.32100
O 	O 	0.49171 0.01374 0.94549 -0.33500
O 	O 	0.43730 0.08437 0.16057 -0.36100
O 	O 	0.38688 0.99933 0.10438 -0.35600
O 	O 	0.43226 0.02247 0.86188 -0.34800
O 	O 	0.48350 0.19874 0.98949 -0.33300
O 	O 	0.47419 0.14653 0.88696 -0.35500
O 	O 	0.37133 0.94741 0.97085 -0.33000
O 	O 	0.44883 0.07819 0.99721 -0.69300
H 	H 	0.48830 0.09699 0.97742 0.18500
C 	C 	0.41167 0.83641 0.60348 0.30000
C 	C 	0.60626 0.81585 0.50848 0.31900
C 	C 	0.55249 0.91886 0.65923 0.32200
C 	C 	0.47215 0.74525 0.42245 0.30500
C 	C 	0.63241 0.98864 0.45146 0.33200
C 	C 	0.48435 0.92664 0.37460 0.30200
Ni	Ni	0.50546 0.81213 0.56734 1.12000
Ni	Ni	0.55596 0.86931 0.41421 1.13000
Ni	Ni	0.51717 0.93435 0.52295 1.13500
O 	O 	0.42233 0.79691 0.57768 -0.35200
O 	O 	0.44615 0.89316 0.59062 -0.34000
O 	O 	0.62823 0.93800 0.44819 -0.36500
O 	O 	0.59200 0.84021 0.55732 -0.36900
O 	O 	0.59298 0.82060 0.44290 -0.34300
O 	O 	0.46720 0.92567 0.44038 -0.35500
O 	O 	0.52356 0.86213 0.65975 -0.34400
O 	O 	0.57316 0.94505 0.59984 -0.36100
O 	O 	0.52750 0.91652 0.35834 -0.34000
O 	O 	0.48229 0.74495 0.49197 -0.35200
O 	O 	0.48709 0.79362 0.38749 -0.35600
O 	O 	0.58662 0.99343 0.46635 -0.33900
O 	O 	0.51126 0.86333 0.49582 -0.71700
H 	H 	0.47170 0.84341 0.47624 0.17900
C 	C 	0.11744 0.55573 0.94268 0.29600
C 	C 	0.12019 0.76198 0.84486 0.31800
C 	C 	0.02399 0.59666 0.99382 0.34800
C 	C 	0.20267 0.71302 0.76326 0.29800
C 	C 	0.95422 0.60321 0.78181 0.32700
C 	C 	0.03081 0.53166 0.70624 0.30700
Ni	Ni	0.13176 0.66957 0.90514 1.12300
Ni	Ni	0.07645 0.65872 0.74887 1.12800
Ni	Ni	0.01705 0.55144 0.85454 1.12700
O 	O 	0.15430 0.60701 0.91708 -0.34100
O 	O 	0.06171 0.52638 0.92227 -0.35000
O 	O 	0.00232 0.65275 0.77991 -0.37300
O 	O 	0.09861 0.72361 0.89446 -0.35100
O 	O 	0.11597 0.74426 0.77908 -0.34900
O 	O 	0.03529 0.51737 0.77171 -0.36000
O 	O 	0.08007 0.63365 0.99561 -0.33800
O 	O 	0.99661 0.58725 0.93415 -0.35600
O 	O 	0.03751 0.58359 0.69000 -0.35000
O 	O 	0.20035 0.71896 0.83342 -0.34800
O 	O 	0.15713 0.67572 0.72597 -0.35600
O 	O 	0.95477 0.55516 0.79614 -0.34600
O 	O 	0.08450 0.62248 0.83166 -0.71500
H 	H 	0.10892 0.60747 0.81300 0.17400
C 	C 	0.84466 0.39762 0.43819 0.29900
C 	C 	0.83615 0.18691 0.34788 0.32100
C 	C 	0.93927 0.35685 0.48834 0.31400
C 	C 	0.75030 0.23397 0.27060 0.30500
C 	C 	0.99910 0.34003 0.27163 0.33000
C 	C 	0.92457 0.41301 0.19914 0.30300
Ni	Ni	0.82782 0.28191 0.40666 1.12200
Ni	Ni	0.87560 0.28653 0.24702 1.12600
Ni	Ni	0.94160 0.39657 0.34748 1.13400
O 	O 	0.80643 0.34535 0.41667 -0.34600
O 	O 	0.89987 0.42525 0.41550 -0.34100
O 	O 	0.95020 0.29128 0.27239 -0.36900
O 	O 	0.85977 0.22686 0.39564 -0.35500
O 	O 	0.83704 0.20245 0.28170 -0.36300
O 	O 	0.92280 0.42968 0.26422 -0.36000
O 	O 	0.88309 0.32144 0.49373 -0.33800
O 	O 	0.96410 0.36293 0.42756 -0.35900
O 	O 	0.91265 0.35915 0.18379 -0.35000
O 	O 	0.75606 0.22981 0.34037 -0.34000
O 	O 	0.79415 0.26982 0.22989 -0.37000
O 	O 	0.00117 0.38917 0.28745 -0.34900
O 	O 	0.87237 0.32595 0.32945 -0.71500
H 	H 	0.84815 0.34144 0.31152 0.17400
C 	C 	0.02961 0.50097 0.58142 -0.01400
C 	C 	0.01008 0.48606 0.65104 -0.06400
C 	C 	0.97183 0.42727 0.66804 0.11900
C 	C 	0.95359 0.38487 0.61537 -0.01800
C 	C 	0.97026 0.40017 0.54501 -0.06100
C 	C 	0.01099 0.45854 0.52866 0.09600
N 	N 	0.03495 0.47474 0.45933 -0.03200
H 	H 	0.06028 0.54550 0.56828 0.08200
H 	H 	0.92404 0.34013 0.62887 0.09200
N 	N 	0.94949 0.41064 0.73806 -0.02000
O 	O 	0.02485 0.50956 0.42200 -0.10500
O 	O 	0.07423 0.46267 0.43861 -0.08200
O 	O 	0.91308 0.42515 0.76295 -0.07400
O 	O 	0.96112 0.37633 0.77417 -0.06800
C 	C 	0.03243 0.54659 0.10054 -0.01800
C 	C 	0.99683 0.55372 0.05191 -0.10300
C 	C 	0.93638 0.51420 0.05282 0.10400
C 	C 	0.91373 0.46579 0.09758 -0.03000
C 	C 	0.95005 0.45798 0.14423 -0.05600
C 	C 	0.00961 0.49917 0.14613 0.09700
N 	N 	0.04702 0.49375 0.19566 -0.02000
H 	H 	0.07821 0.57736 0.10229 0.07900
H 	H 	0.86747 0.43577 0.09824 0.07100
N 	N 	0.89763 0.52465 0.01139 -0.04200
O 	O 	0.08069 0.47446 0.17482 -0.08100
O 	O 	0.05401 0.51641 0.25813 -0.08000
O 	O 	0.86097 0.48493 0.96896 -0.05300
O 	O 	0.89629 0.57225 0.01966 -0.08300
C 	C 	0.31163 0.81488 0.62875 -0.01800
C 	C 	0.36245 0.81700 0.65244 -0.06000
C 	C 	0.36110 0.78804 0.71558 0.10800
C 	C 	0.30921 0.75685 0.75293 -0.01700
C 	C 	0.25758 0.75054 0.72595 -0.06500
C 	C 	0.25886 0.78023 0.66355 0.10300
N 	N 	0.20655 0.77361 0.63381 -0.02400
H 	H 	0.31215 0.83655 0.58019 0.08000
H 	H 	0.30865 0.73482 0.80122 0.08600
N 	N 	0.41152 0.78735 0.73989 -0.02000
O 	O 	0.19604 0.81607 0.63718 -0.08200
O 	O 	0.17530 0.72993 0.59274 -0.08500
O 	O 	0.43338 0.80985 0.80093 -0.07000
O 	O 	0.42628 0.75274 0.71025 -0.10100
C 	C 	0.73279 0.06871 0.46904 -0.01700
C 	C 	0.68520 0.03865 0.42414 -0.07600
C 	C 	0.69185 0.05002 0.35108 0.10600
C 	C 	0.74416 0.09484 0.32471 -0.01900
C 	C 	0.79039 0.12854 0.37056 -0.07600
C 	C 	0.78603 0.11191 0.44220 0.10100
N 	N 	0.83595 0.13752 0.48713 -0.02000
H 	H 	0.72916 0.05705 0.52436 0.08000
H 	H 	0.74823 0.10418 0.26874 0.07500
N 	N 	0.64656 0.01430 0.30312 -0.02600
O 	O 	0.83294 0.15639 0.54936 -0.07600
O 	O 	0.88361 0.13949 0.46716 -0.06400
O 	O 	0.61627 0.03407 0.27277 -0.08000
O 	O 	0.64073 0.96519 0.28297 -0.08600
C 	C 	0.44897 0.03032 0.28213 -0.03600
C 	C 	0.41751 0.99771 0.22342 -0.04700
C 	C 	0.40426 0.93942 0.21795 0.09500
C 	C 	0.42947 0.91786 0.26505 -0.02100
C 	C 	0.46418 0.95210 0.32065 -0.04700
C 	C 	0.47313 0.00832 0.32979 0.09900
N 	N 	0.50738 0.04353 0.38718 -0.02400
H 	H 	0.45671 0.07380 0.28941 0.08000
H 	H 	0.41988 0.87354 0.26014 0.08400
N 	N 	0.36270 0.90115 0.16768 -0.02200
O 	O 	0.56357 0.06998 0.38331 -0.06800
O 	O 	0.48262 0.05439 0.43940 -0.07400
O 	O 	0.37715 0.87413 0.12221 -0.09800
O 	O 	0.30922 0.88964 0.17122 -0.07300
C 	C 	0.51082 0.01647 0.75674 -0.05000
C 	C 	0.50035 0.99228 0.82434 -0.02500
C 	C 	0.51481 0.94913 0.83966 0.10700
C 	C 	0.53781 0.92990 0.78671 -0.00400
C 	C 	0.54397 0.95083 0.71771 -0.07900
C 	C 	0.53375 0.99716 0.70386 0.13100
N 	N 	0.54837 0.02600 0.63712 -0.04000
H 	H 	0.50225 0.05124 0.74542 0.09400
H 	H 	0.54811 0.89640 0.79860 0.08800
N 	N 	0.50427 0.92321 0.90813 -0.01800
O 	O 	0.50769 0.02342 0.59673 -0.11600
O 	O 	0.60235 0.06162 0.62178 -0.07600
O 	O 	0.45141 0.88977 0.92968 -0.05800
O 	O 	0.54740 0.92879 0.94615 -0.04900
C 	C 	0.59196 0.15025 0.21936 -0.02000
C 	C 	0.59450 0.12184 0.15825 -0.06600
C 	C 	0.64676 0.12400 0.14032 0.10700
C 	C 	0.69703 0.15896 0.17939 -0.02200
C 	C 	0.69564 0.19199 0.23623 -0.06800
C 	C 	0.64242 0.18633 0.25753 0.10900
N 	N 	0.64011 0.22051 0.31426 -0.02200
H 	H 	0.55170 0.14841 0.23360 0.06700
H 	H 	0.73757 0.16177 0.16419 0.06600
N 	N 	0.64934 0.09190 0.08143 -0.02200
O 	O 	0.66917 0.27657 0.31015 -0.07800
O 	O 	0.60421 0.19574 0.36624 -0.06600
O 	O 	0.64363 0.10623 0.01759 -0.09000
O 	O 	0.66241 0.05163 0.09127 -0.07800
C 	C 	0.22109 0.88384 0.96246 0.03400
C 	C 	0.27335 0.90360 0.92578 -0.08300
C 	C 	0.27220 0.88459 0.85610 0.11200
C 	C 	0.21934 0.84519 0.82487 -0.02700
C 	C 	0.16790 0.82030 0.86432 -0.06600
C 	C 	0.16828 0.84313 0.93170 0.09200
N 	N 	0.11510 0.82505 0.96892 -0.00000
H 	H 	0.22125 0.90119 0.01422 0.04900
H 	H 	0.21913 0.83081 0.77162 0.08600
N 	N 	0.32474 0.90461 0.81711 -0.02500
O 	O 	0.11137 0.81263 0.03577 -0.10000
O 	O 	0.07104 0.82296 0.93656 -0.05500
O 	O 	0.35980 0.88570 0.83274 -0.07000
O 	O 	0.33339 0.93503 0.76018 -0.08200
C 	C 	0.09706 0.31190 0.15504 -0.02000
C 	C 	0.14067 0.31969 0.20256 -0.07100
C 	C 	0.13445 0.32985 0.27468 0.08900
C 	C 	0.09187 0.34316 0.29485 -0.01500
C 	C 	0.05116 0.34006 0.24588 -0.07000
C 	C 	0.05323 0.32331 0.17576 0.10700
N 	N 	0.01026 0.31697 0.12573 -0.02600
H 	H 	0.09783 0.29814 0.10160 0.08300
H 	H 	0.08800 0.35191 0.34984 0.08100
N 	N 	0.16845 0.32269 0.32795 -0.02400
O 	O 	0.00957 0.36232 0.10232 -0.08600
O 	O 	0.97513 0.26649 0.09903 -0.09100
O 	O 	0.19633 0.36323 0.37426 -0.09000
O 	O 	0.16787 0.27393 0.33350 -0.06000
C 	C 	0.12467 0.47076 0.98046 0.02900
C 	C 	0.13961 0.52828 0.99150 -0.03500
C 	C 	0.17995 0.56069 0.04518 0.06900
C 	C 	0.20429 0.53491 0.08651 -0.01500
C 	C 	0.19371 0.47937 0.07074 -0.05100
C 	C 	0.15340 0.44693 0.01705 0.04200
N 	N 	0.14326 0.39089 0.99726 0.00100
H 	H 	0.09389 0.44576 0.93945 0.07800
H 	H 	0.23541 0.56006 0.12717 0.07600
N 	N 	0.19969 0.62085 0.05437 -0.02300
O 	O 	0.09025 0.34850 0.99163 -0.05900
O 	O 	0.18484 0.38584 0.96860 -0.07700
O 	O 	0.18624 0.63820 0.11168 -0.08900
O 	O 	0.24136 0.65841 0.01471 -0.10300
C 	C 	0.42438 0.64401 0.26649 -0.02300
C 	C 	0.43363 0.59979 0.29071 -0.06300
C 	C 	0.45706 0.60418 0.35883 0.10600
C 	C 	0.46603 0.64985 0.40352 -0.01900
C 	C 	0.45255 0.69175 0.38073 -0.06300
C 	C 	0.42925 0.68710 0.31246 0.10600
N 	N 	0.40702 0.72373 0.29128 -0.01900
H 	H 	0.40655 0.64099 0.21418 0.07400
H 	H 	0.48458 0.65321 0.45536 0.07600
N 	N 	0.47124 0.56213 0.38318 -0.02100
O 	O 	0.42397 0.75224 0.23225 -0.08100
O 	O 	0.36694 0.72550 0.32854 -0.07700
O 	O 	0.51295 0.55810 0.35315 -0.08200
O 	O 	0.44863 0.53425 0.44149 -0.08800
C 	C 	0.33685 0.26113 0.99929 0.01900
C 	C 	0.36626 0.29061 0.06085 -0.11300
C 	C 	0.39564 0.26946 0.10141 0.10700
C 	C 	0.39270 0.21760 0.08284 -0.01800
C 	C 	0.36086 0.18621 0.02325 -0.12000
C 	C 	0.33370 0.20886 0.98049 0.13800
N 	N 	0.30190 0.17851 0.91902 -0.02300
H 	H 	0.31485 0.27786 0.96725 0.07600
H 	H 	0.41562 0.20183 0.11475 0.03100
N 	N 	0.42672 0.29944 0.16337 -0.02400
O 	O 	0.25582 0.12790 0.92517 -0.06000
O 	O 	0.31655 0.20327 0.85750 -0.07500
O 	O 	0.40322 0.28211 0.22523 -0.08000
O 	O 	0.47989 0.34159 0.15825 -0.09200
C 	C 	0.76602 0.41958 0.58918 -0.01600
C 	C 	0.75459 0.46082 0.55994 -0.06600
C 	C 	0.78160 0.48810 0.49572 0.10500
C 	C 	0.81821 0.47249 0.46120 -0.01700
C 	C 	0.82463 0.42690 0.48672 -0.05900
C 	C 	0.79914 0.40104 0.55208 0.10800
N 	N 	0.80421 0.35389 0.57925 -0.02100
H 	H 	0.74623 0.39916 0.63888 0.08200
H 	H 	0.83764 0.49255 0.41121 0.08100
N 	N 	0.76970 0.52946 0.46357 -0.02600
O 	O 	0.83018 0.35974 0.63926 -0.07100
O 	O 	0.77177 0.30244 0.55340 -0.09500
O 	O 	0.80821 0.58407 0.46652 -0.08400
O 	O 	0.72602 0.51199 0.42065 -0.07600
C 	C 	0.87663 0.62787 0.79241 -0.02000
C 	C 	0.90132 0.60051 0.75448 -0.06700
C 	C 	0.88423 0.58367 0.68409 0.10300
C 	C 	0.84268 0.59397 0.65280 -0.02100
C 	C 	0.81391 0.61624 0.69268 -0.07500
C 	C 	0.83398 0.63695 0.76149 0.10600
N 	N 	0.81176 0.66799 0.79964 -0.02100
H 	H 	0.89210 0.64407 0.84508 0.09200
H 	H 	0.83028 0.58117 0.59873 0.08400
N 	N 	0.90890 0.55589 0.64416 -0.02400
O 	O 	0.79660 0.65561 0.86541 -0.05700
O 	O 	0.80891 0.71021 0.76950 -0.05500
O 	O 	0.89604 0.50348 0.65983 -0.07400
O 	O 	0.93808 0.58004 0.58704 -0.08200
C 	C 	0.52107 0.52411 0.98853 0.02200
C 	C 	0.46407 0.50861 0.96923 -0.03300
C 	C 	0.45106 0.51108 0.89773 0.10800
C 	C 	0.49340 0.52378 0.84610 -0.00900
C 	C 	0.54943 0.53573 0.86507 -0.06800
C 	C 	0.56385 0.53827 0.93697 0.11100
N 	N 	0.62190 0.55557 0.95796 -0.01900
H 	H 	0.53193 0.52384 0.04359 0.04300
H 	H 	0.48227 0.52323 0.79099 0.06000
N 	N 	0.39527 0.50172 0.87735 -0.01700
O 	O 	0.66448 0.60562 0.93880 -0.05100
O 	O 	0.63170 0.52292 0.99993 -0.05400
O 	O 	0.37595 0.53383 0.90359 -0.06000
O 	O 	0.36555 0.46378 0.82902 -0.07100
C 	C 	0.45982 0.41305 0.34654 -0.01100
C 	C 	0.40276 0.39900 0.36304 -0.07100
C 	C 	0.38546 0.39291 0.43417 0.11800
C 	C 	0.42674 0.40762 0.48769 -0.02100
C 	C 	0.48514 0.42723 0.47096 -0.05800
C 	C 	0.50083 0.42643 0.40013 0.10800
N 	N 	0.55804 0.43839 0.38247 -0.02000
H 	H 	0.47286 0.41522 0.29194 0.06700
H 	H 	0.41364 0.40552 0.54224 0.07900
N 	N 	0.32601 0.37158 0.45228 -0.02100
O 	O 	0.57908 0.40868 0.41142 -0.07100
O 	O 	0.58772 0.47656 0.33436 -0.07400
O 	O 	0.28610 0.32170 0.42867 -0.05900
O 	O 	0.31217 0.40042 0.49568 -0.06700
C 	C 	0.51851 0.29246 0.75945 -0.02200
C 	C 	0.51206 0.33747 0.78731 -0.06200
C 	C 	0.49109 0.33243 0.85691 0.10800
C 	C 	0.48494 0.28706 0.90030 -0.02200
C 	C 	0.49885 0.24611 0.87474 -0.06000
C 	C 	0.51647 0.24954 0.80362 0.10500
N 	N 	0.53677 0.21255 0.77759 -0.01900
H 	H 	0.53299 0.29517 0.70538 0.07700
H 	H 	0.46887 0.28357 0.95361 0.08500
N 	N 	0.47628 0.37335 0.88392 -0.02100
O 	O 	0.51261 0.18044 0.72245 -0.07900
O 	O 	0.58248 0.21470 0.80526 -0.06800
O 	O 	0.43585 0.37929 0.85343 -0.07700
O 	O 	0.49667 0.39787 0.94460 -0.07500
C 	C 	0.60566 0.74946 0.60119 -0.03200
C 	C 	0.61221 0.76538 0.52943 -0.07400
C 	C 	0.61378 0.72748 0.47863 0.10600
C 	C 	0.60230 0.67228 0.49931 -0.02300
C 	C 	0.59228 0.65555 0.57054 -0.07200
C 	C 	0.59355 0.69429 0.62138 0.10900
N 	N 	0.58351 0.67803 0.69419 -0.02300
H 	H 	0.60726 0.77908 0.64133 0.07600
H 	H 	0.60422 0.64353 0.46045 0.07800
N 	N 	0.63148 0.74633 0.40760 -0.01900
O 	O 	0.62355 0.70698 0.74077 -0.06200
O 	O 	0.53307 0.63669 0.71447 -0.08200
O 	O 	0.68094 0.79267 0.39552 -0.06700
O 	O 	0.60084 0.71437 0.35504 -0.08300
