data_crystal

_cell_length_a 20.40689
_cell_length_b 21.09388
_cell_length_c 39.38415
_cell_angle_alpha 60.68984
_cell_angle_beta  119.06389
_cell_angle_gamma 133.27964

_symmetry_space_group_name_	'P 1'
_symmetry_space_group_name_H-M	'P 1'

loop_
_symmetry_equiv_pos_as_xyz
  x,y,z

loop_
_atom_site_label
_atom_site_type_symbol
_atom_site_fract_x
_atom_site_fract_y
_atom_site_fract_z
_atom_site_charge
H 	H 	0.14341 0.56543 0.13387 0.07300
H 	H 	0.12162 0.55493 0.62177 0.06400
Co	Co	0.07903 0.04444 0.04149 1.16700
Co	Co	0.15750 0.94814 0.04646 1.18600
C 	C 	0.27041 0.14290 0.03875 0.33800
O 	O 	0.05197 0.12725 0.03461 -0.44800
C 	C 	0.07129 0.19145 0.13386 0.31700
C 	C 	0.22849 0.91184 0.13305 0.32000
O 	O 	0.25237 0.97347 0.10006 -0.37700
O 	O 	0.16624 0.89372 0.14561 -0.35900
O 	O 	0.02659 0.12148 0.16124 -0.39900
O 	O 	0.08928 0.18303 0.10844 -0.38000
O 	O 	0.08230 0.95443 0.06524 -0.73300
O 	O 	0.23179 0.08427 0.01975 -0.38500
O 	O 	0.22161 0.13324 0.05584 -0.39400
Co	Co	0.03149 0.01226 0.53504 1.16500
Co	Co	0.10495 0.91560 0.53620 1.18100
C 	C 	0.21286 0.11197 0.52071 0.36300
O 	O 	0.00759 0.09647 0.52912 -0.44400
C 	C 	0.06145 0.18229 0.62918 0.31800
C 	C 	0.20088 0.89875 0.62068 0.31700
O 	O 	0.02094 0.94127 0.69747 -0.33700
O 	O 	0.21351 0.95427 0.58535 -0.36300
O 	O 	0.14527 0.88210 0.63706 -0.36000
O 	O 	0.02477 0.11673 0.65948 -0.39800
O 	O 	0.07004 0.16778 0.60264 -0.38200
O 	O 	0.04002 0.92559 0.55950 -0.73700
O 	O 	0.16814 0.04823 0.50354 -0.41700
O 	O 	0.17268 0.10478 0.54150 -0.40100
C 	C 	0.05535 0.05169 0.78865 -0.15700
C 	C 	0.06882 0.04563 0.75873 0.00900
C 	C 	0.06188 0.13300 0.78210 0.79300
H 	H 	0.09209 0.10225 0.73334 0.07400
C 	C 	0.11254 0.07235 0.90950 -0.01200
C 	C 	0.11421 0.05547 0.87959 -0.06000
C 	C 	0.19589 0.15727 0.92342 0.75400
H 	H 	0.17853 0.09661 0.87093 0.12200
F 	F 	0.15051 0.19658 0.79952 -0.42600
F 	F 	0.04247 0.17115 0.74162 -0.46100
F 	F 	0.26580 0.14668 0.94816 -0.46900
F 	F 	0.17543 0.17854 0.94335 -0.44400
F 	F 	0.22713 0.22856 0.89068 -0.40200
C 	C 	0.00683 0.89453 0.32547 0.04100
C 	C 	0.01283 0.88980 0.29240 -0.08600
C 	C 	0.03212 0.03960 0.40083 -0.14400
C 	C 	0.05289 0.03391 0.37349 -0.02800
C 	C 	0.06460 0.13009 0.39967 0.79700
H 	H 	0.11752 0.08876 0.36425 0.11000
F 	F 	0.01946 0.76444 0.33370 -0.42700
F 	F 	0.05693 0.83294 0.27459 -0.43400
F 	F 	0.13300 0.19990 0.37858 -0.41100
F 	F 	0.09955 0.14153 0.43780 -0.46200
C 	C 	0.09312 0.27251 0.62530 -0.11200
C 	C 	0.12329 0.29725 0.66012 -0.02900
C 	C 	0.13816 0.37458 0.65754 0.14700
H 	H 	0.13581 0.25661 0.68931 0.10900
O 	O 	0.16884 0.39792 0.69200 -0.23900
H 	H 	0.11212 0.37277 0.69813 0.19100
C 	C 	0.23355 0.84181 0.63742 -0.10900
C 	C 	0.17628 0.74940 0.65484 -0.02600
C 	C 	0.18913 0.68960 0.65695 0.13500
H 	H 	0.11960 0.72321 0.66525 0.08000
O 	O 	0.13949 0.60165 0.67779 -0.24800
H 	H 	0.07738 0.57191 0.65952 0.15500
C 	C 	0.10391 0.28019 0.13294 -0.11000
C 	C 	0.11788 0.29380 0.16815 -0.03100
C 	C 	0.13439 0.37071 0.16722 0.14500
H 	H 	0.11624 0.24475 0.19637 0.10500
O 	O 	0.14913 0.38301 0.20206 -0.24200
H 	H 	0.08782 0.36001 0.20256 0.18900
C 	C 	0.25648 0.85084 0.15049 -0.10500
C 	C 	0.19320 0.75789 0.16479 -0.03100
C 	C 	0.20633 0.69688 0.16868 0.13800
H 	H 	0.13243 0.73255 0.17169 0.07200
O 	O 	0.14808 0.60737 0.18554 -0.27800
H 	H 	0.17779 0.59937 0.21461 0.18100
C 	C 	0.21299 0.58538 0.14157 -0.07800
C 	C 	0.19143 0.57938 0.62599 -0.07600
C 	C 	0.13531 0.43474 0.62011 -0.03000
C 	C 	0.07665 0.32613 0.58759 0.19000
C 	C 	0.25686 0.72189 0.63964 -0.01600
C 	C 	0.15039 0.44093 0.13237 -0.03100
C 	C 	0.10335 0.34385 0.09636 0.19000
C 	C 	0.27929 0.72829 0.15522 -0.02100
H 	H 	0.26424 0.17649 0.44354 0.17900
C 	C 	0.22687 0.53299 0.13724 0.07500
C 	C 	0.20554 0.53137 0.61821 0.07300
F 	F 	0.08581 0.17356 0.29335 -0.42800
C 	C 	0.09643 0.40627 0.58519 -0.09800
H 	H 	0.08997 0.45035 0.55607 0.07900
O 	O 	0.03970 0.29975 0.55322 -0.27400
H 	H 	0.09372 0.32820 0.54383 0.17000
C 	C 	0.12519 0.42337 0.09615 -0.09600
H 	H 	0.13194 0.47521 0.06849 0.08100
O 	O 	0.07937 0.32780 0.06085 -0.27500
H 	H 	0.13862 0.35549 0.05607 0.16800
C 	C 	0.03843 0.96282 0.75828 0.05000
C 	C 	0.03557 0.98132 0.82418 0.12800
F 	F 	0.05185 0.82439 0.77555 -0.42700
Co	Co	0.01550 0.86032 0.60507 1.18500
H 	H 	0.00099 0.84364 0.35339 0.11000
O 	O 	0.05063 0.78329 0.56815 -0.41200
Co	Co	0.04306 0.88108 0.10738 1.18500
O 	O 	0.09246 0.81208 0.07305 -0.39500
C 	C 	0.02498 0.89477 0.79452 -0.07300
C 	C 	0.29034 0.66490 0.15499 0.07500
O 	O 	0.05501 0.92715 0.99459 -0.37700
C 	C 	0.03273 0.98974 0.85920 0.16400
C 	C 	0.04545 0.99180 0.96953 0.43000
O 	O 	0.03570 0.03378 0.98185 -0.37400
C 	C 	0.26865 0.66005 0.63844 0.07400
C 	C 	0.03373 0.00925 0.92602 -0.15600
C 	C 	0.02493 0.90524 0.82746 0.03400
F 	F 	0.02524 0.76616 0.83639 -0.41900
C 	C 	0.02462 0.95894 0.25659 0.05700
O 	O 	0.02117 0.94425 0.19722 -0.33600
H 	H 	0.01421 0.85323 0.85517 0.11500
C 	C 	0.00247 0.80791 0.79707 0.77400
C 	C 	0.04527 0.03663 0.25764 0.00400
H 	H 	0.06945 0.09571 0.23336 0.07200
O 	O 	0.29300 0.22893 0.45252 -0.21800
C 	C 	0.00435 0.75533 0.07321 0.30800
C 	C 	0.00407 0.96276 0.32178 0.11900
C 	C 	0.01951 0.03310 0.28616 -0.15600
C 	C 	0.29404 0.56929 0.61774 -0.08400
C 	C 	0.00502 0.10209 0.27716 0.79000
C 	C 	0.99924 0.80802 0.29442 0.80300
F 	F 	0.99899 0.10977 0.79820 -0.42900
O 	O 	0.98973 0.88225 0.48937 -0.36200
F 	F 	0.99041 0.13533 0.38093 -0.41400
Co	Co	0.96645 0.05549 0.57805 1.16700
H 	H 	0.35531 0.28485 0.97918 0.14200
Co	Co	0.99381 0.07748 0.07938 1.16600
C 	C 	0.33672 0.88210 0.14325 0.19200
F 	F 	0.98172 0.13447 0.23619 -0.46100
C 	C 	0.30969 0.87461 0.62619 0.19500
C 	C 	0.98679 0.96084 0.35557 0.15800
F 	F 	0.90817 0.74902 0.27659 -0.42100
O 	O 	0.90013 0.92818 0.19777 -0.33100
C 	C 	0.97795 0.93678 0.21690 0.32400
O 	O 	0.90573 0.92683 0.70305 -0.33300
C 	C 	0.98453 0.93725 0.71928 0.32600
O 	O 	0.37342 0.96533 0.61385 -0.27200
O 	O 	0.40729 0.97231 0.13596 -0.25400
H 	H 	0.39852 0.99394 0.10641 0.16400
C 	C 	0.31691 0.81502 0.62447 -0.09900
H 	H 	0.42260 0.98358 0.63843 0.17600
C 	C 	0.34460 0.82159 0.14292 -0.09300
H 	H 	0.40119 0.84765 0.13252 0.08200
C 	C 	0.71889 0.28292 0.02746 0.06600
C 	C 	0.79939 0.36259 0.03978 -0.08600
C 	C 	0.79173 0.41206 0.05004 0.07400
C 	C 	0.70536 0.38003 0.05026 -0.08300
C 	C 	0.62541 0.30266 0.03753 0.07300
C 	C 	0.63133 0.25607 0.02431 -0.08300
H 	H 	0.86725 0.38548 0.04167 0.07000
H 	H 	0.70011 0.41741 0.05916 0.07800
H 	H 	0.56854 0.19879 0.01227 0.07600
C 	C 	0.68267 0.24875 0.53269 0.07500
C 	C 	0.76114 0.32654 0.54675 -0.08700
C 	C 	0.74992 0.37551 0.55531 0.07400
C 	C 	0.66134 0.34522 0.55142 -0.08200
C 	C 	0.58355 0.26898 0.53726 0.07300
C 	C 	0.59378 0.22230 0.52652 -0.08700
H 	H 	0.83016 0.34886 0.55086 0.06900
H 	H 	0.65291 0.38320 0.55808 0.08100
H 	H 	0.53295 0.16475 0.51419 0.07300
C 	C 	0.31639 0.56304 0.14308 -0.08000
C 	C 	0.39260 0.64308 0.15427 0.07900
C 	C 	0.38017 0.69011 0.16343 -0.08600
H 	H 	0.32674 0.52410 0.13837 0.07700
H 	H 	0.44033 0.74882 0.17503 0.08500
C 	C 	0.37066 0.64516 0.63222 0.07900
C 	C 	0.35859 0.68843 0.64432 -0.08200
H 	H 	0.30404 0.53451 0.60965 0.07500
H 	H 	0.41880 0.74637 0.65649 0.07700
Co	Co	0.94716 0.90859 0.14200 1.19600
Co	Co	0.89285 0.01826 0.14370 1.15100
O 	O 	0.94378 0.99805 0.11801 -0.71800
O 	O 	0.97771 0.82767 0.15003 -0.42000
O 	O 	0.98565 0.96056 0.08402 -0.54200
C 	C 	0.74601 0.83108 0.13512 0.31900
O 	O 	0.76727 0.91276 0.12165 -0.35400
O 	O 	0.80697 0.81514 0.14461 -0.34700
C 	C 	0.84792 0.10255 0.05689 0.32500
O 	O 	0.88172 0.11268 0.09316 -0.40200
O 	O 	0.88001 0.08246 0.04440 -0.38400
O 	O 	0.96710 0.77059 0.08543 -0.36700
Co	Co	0.93500 0.89579 0.64465 1.19600
C 	C 	0.96627 0.72496 0.57353 0.33800
Co	Co	0.88851 0.01021 0.64827 1.14900
O 	O 	0.92830 0.98301 0.62005 -0.72100
O 	O 	0.96415 0.81424 0.65181 -0.41800
O 	O 	0.95526 0.93618 0.58371 -0.54500
C 	C 	0.73661 0.82233 0.63723 0.31000
C 	C 	0.97492 0.94348 0.46405 0.27600
O 	O 	0.75741 0.90077 0.63223 -0.35600
O 	O 	0.80070 0.80675 0.65382 -0.34400
O 	O 	0.97035 0.98862 0.47685 -0.26000
C 	C 	0.82355 0.07902 0.56158 0.30900
O 	O 	0.86703 0.09742 0.59664 -0.40100
O 	O 	0.84879 0.05425 0.54794 -0.38500
O 	O 	0.93456 0.74304 0.58749 -0.37300
C 	C 	0.94863 0.93675 0.87066 -0.14400
C 	C 	0.95125 0.94376 0.90541 0.20300
C 	C 	0.85715 0.86971 0.84752 0.80300
H 	H 	0.89043 0.89529 0.91760 0.05900
F 	F 	0.90873 0.75066 0.78149 -0.41200
F 	F 	0.78295 0.84356 0.85668 -0.41600
F 	F 	0.85217 0.79423 0.85727 -0.42900
F 	F 	0.84855 0.90697 0.80667 -0.40000
C 	C 	0.90238 0.88957 0.36831 -0.11200
C 	C 	0.89458 0.88630 0.40305 0.06400
C 	C 	0.96132 0.96006 0.42052 0.08300
C 	C 	0.82152 0.81637 0.34601 0.79100
H 	H 	0.83821 0.82554 0.41711 0.08800
F 	F 	0.93373 0.06518 0.29232 -0.42500
F 	F 	0.73928 0.77569 0.35384 -0.41400
F 	F 	0.83477 0.75157 0.35820 -0.43000
F 	F 	0.81221 0.85121 0.30501 -0.40000
C 	C 	0.46351 0.68040 0.63349 -0.02800
C 	C 	0.48864 0.71670 0.59749 -0.09300
C 	C 	0.57562 0.74803 0.59815 0.19000
C 	C 	0.63936 0.74641 0.63497 -0.09700
C 	C 	0.60852 0.69707 0.67050 -0.03300
C 	C 	0.52180 0.66638 0.67003 0.14500
H 	H 	0.44133 0.72202 0.56903 0.08300
O 	O 	0.60093 0.78633 0.56278 -0.27400
H 	H 	0.65575 0.69159 0.69896 0.10300
O 	O 	0.49389 0.62214 0.70516 -0.24700
H 	H 	0.51626 0.66976 0.71568 0.18000
H 	H 	0.62591 0.85029 0.55573 0.17000
H 	H 	0.36948 0.84157 0.61117 0.08500
C 	C 	0.65271 0.75635 0.14104 -0.10200
C 	C 	0.57845 0.74414 0.10753 -0.03500
C 	C 	0.49522 0.71184 0.11158 0.13900
C 	C 	0.48305 0.68421 0.14988 -0.02700
C 	C 	0.55327 0.68579 0.18388 -0.08400
C 	C 	0.63781 0.72094 0.17959 0.19100
H 	H 	0.58867 0.76886 0.07782 0.07600
O 	O 	0.42566 0.70743 0.07808 -0.26900
H 	H 	0.54286 0.66099 0.21356 0.10400
O 	O 	0.70886 0.72901 0.21285 -0.23100
H 	H 	0.70327 0.67320 0.22101 0.19400
H 	H 	0.43630 0.76600 0.06963 0.16400
C 	C 	0.75644 0.10006 0.53563 -0.08900
C 	C 	0.67823 0.05352 0.54922 -0.13200
C 	C 	0.65015 0.10038 0.54709 0.16400
C 	C 	0.69371 0.19222 0.52687 -0.04000
C 	C 	0.75709 0.23223 0.50527 -0.08500
C 	C 	0.78785 0.18583 0.50931 0.18200
H 	H 	0.64872 0.98471 0.56701 0.12400
O 	O 	0.58433 0.05786 0.56670 -0.30300
H 	H 	0.78694 0.30106 0.48755 0.08400
O 	O 	0.85684 0.22865 0.49158 -0.26300
H 	H 	0.82430 0.21300 0.46536 0.16900
H 	H 	0.61913 0.06698 0.59421 0.14700
C 	C 	0.91299 0.63420 0.56969 -0.12300
C 	C 	0.89815 0.62344 0.53362 -0.02800
C 	C 	0.85804 0.53943 0.53054 0.13100
C 	C 	0.82887 0.46443 0.56324 -0.02600
C 	C 	0.85261 0.47706 0.60048 -0.10400
C 	C 	0.89287 0.56124 0.60363 0.19400
H 	H 	0.91775 0.68048 0.50786 0.07300
O 	O 	0.83913 0.52894 0.49440 -0.25000
H 	H 	0.83286 0.41997 0.62619 0.08300
O 	O 	0.91490 0.57261 0.64008 -0.28300
H 	H 	0.85887 0.55887 0.64143 0.17300
H 	H 	0.89402 0.53758 0.49509 0.16200
C 	C 	0.49124 0.23945 0.53292 -0.02600
C 	C 	0.43610 0.24989 0.49466 -0.09700
C 	C 	0.34727 0.22000 0.49021 0.19500
C 	C 	0.31270 0.17822 0.52429 -0.11800
C 	C 	0.37244 0.17853 0.56247 -0.03100
C 	C 	0.46116 0.20787 0.56695 0.13200
H 	H 	0.46142 0.27960 0.46833 0.09000
H 	H 	0.34748 0.14917 0.58886 0.06300
O 	O 	0.51886 0.20685 0.60446 -0.27000
H 	H 	0.50865 0.14827 0.61380 0.14600
C 	C 	0.78509 0.12862 0.02892 -0.11800
C 	C 	0.70349 0.08313 0.03963 -0.04000
C 	C 	0.67869 0.13190 0.03854 0.13100
C 	C 	0.72705 0.22515 0.02040 -0.01800
C 	C 	0.79333 0.26502 0.00038 -0.10900
C 	C 	0.82288 0.21703 0.00482 0.18900
H 	H 	0.66902 0.01267 0.05535 0.04500
O 	O 	0.61182 0.08962 0.05748 -0.29000
H 	H 	0.82661 0.33484 0.98383 0.10000
O 	O 	0.89647 0.26031 0.99000 -0.25500
H 	H 	0.86854 0.24922 0.96299 0.17200
H 	H 	0.64521 0.09504 0.08554 0.15100
C 	C 	0.95259 0.66677 0.06733 -0.10500
C 	C 	0.94746 0.59603 0.10071 -0.03200
C 	C 	0.90906 0.51445 0.09545 0.13200
C 	C 	0.87165 0.50201 0.05656 -0.02300
C 	C 	0.88702 0.57611 0.02356 -0.10600
C 	C 	0.92522 0.65764 0.02870 0.18600
H 	H 	0.97380 0.60446 0.13072 0.07600
O 	O 	0.90066 0.44435 0.12823 -0.26000
H 	H 	0.86123 0.56796 0.99354 0.10900
O 	O 	0.93691 0.72876 0.99599 -0.25700
H 	H 	0.87877 0.72323 0.98659 0.17900
H 	H 	0.95774 0.44952 0.13545 0.16000
C 	C 	0.53572 0.27049 0.03865 -0.03000
C 	C 	0.51430 0.23298 0.07581 -0.09700
C 	C 	0.43233 0.20849 0.07753 0.18400
C 	C 	0.36904 0.21629 0.04187 -0.10100
C 	C 	0.39945 0.26989 0.00620 -0.03300
C 	C 	0.48026 0.29315 0.00397 0.14500
H 	H 	0.56149 0.22364 0.10326 0.08000
O 	O 	0.41524 0.17908 0.11395 -0.27600
O 	O 	0.50583 0.33941 0.96817 -0.23900
H 	H 	0.47609 0.29261 0.95504 0.19200
H 	H 	0.39222 0.11530 0.12385 0.15700
