data_crystal

_cell_length_a 27.55302
_cell_length_b 28.33024
_cell_length_c 36.72964
_cell_angle_alpha 95.55652
_cell_angle_beta  95.55869
_cell_angle_gamma 125.51194

_symmetry_space_group_name_	'P 1'
_symmetry_space_group_name_H-M	'P 1'

loop_
_symmetry_equiv_pos_as_xyz
  x,y,z

loop_
_atom_site_label
_atom_site_type_symbol
_atom_site_fract_x
_atom_site_fract_y
_atom_site_fract_z
_atom_site_charge
C 	C 	0.96461 0.02134 0.99649 0.06100
C 	C 	0.05013 0.02123 0.98582 0.05700
C 	C 	0.02465 0.05161 0.99086 -0.09200
H 	H 	0.05129 0.09846 0.99031 0.05800
C 	C 	0.93362 0.99674 0.45546 0.05000
C 	C 	0.02746 0.00613 0.45991 0.04500
C 	C 	0.99649 0.03137 0.45680 -0.08000
H 	H 	0.02122 0.07787 0.45548 0.05300
Cu	Cu	0.64146 0.24593 0.00152 0.92700
Cu	Cu	0.69575 0.25289 0.92495 0.87200
Cu	Cu	0.68026 0.34315 0.95604 0.89900
Cu	Cu	0.64064 0.35429 0.02752 0.89400
C 	C 	0.65388 0.28585 0.07909 0.30500
O 	O 	0.55240 0.21105 0.99810 -0.36100
C 	C 	0.66575 0.30680 0.87482 0.30700
O 	O 	0.69093 0.33818 0.00744 -0.64300
O 	O 	0.63811 0.25600 0.94903 -0.64000
O 	O 	0.67879 0.20328 0.99955 -0.37100
O 	O 	0.74963 0.26656 0.96785 -0.44100
O 	O 	0.62665 0.30981 0.06914 -0.38500
O 	O 	0.72549 0.42812 0.96640 -0.38300
C 	C 	0.71775 0.45864 0.99155 0.31400
C 	C 	0.52998 0.23697 0.98404 0.30200
O 	O 	0.56636 0.29277 0.98157 -0.39300
O 	O 	0.67719 0.43307 0.01320 -0.39800
O 	O 	0.65741 0.25145 0.05431 -0.36100
C 	C 	0.73141 0.22701 0.98922 0.30800
O 	O 	0.68384 0.34956 0.90313 -0.38600
O 	O 	0.66117 0.25902 0.87975 -0.42000
H 	H 	0.73373 0.36305 0.02066 0.16400
H 	H 	0.59687 0.23253 0.93356 0.17300
Cu	Cu	0.73541 0.34110 0.45533 0.92800
Cu	Cu	0.73643 0.29804 0.53504 0.87200
Cu	Cu	0.63941 0.30733 0.50371 0.89800
Cu	Cu	0.62089 0.33772 0.43000 0.89500
C 	C 	0.68832 0.32121 0.37755 0.30500
O 	O 	0.76977 0.42707 0.45528 -0.36000
C 	C 	0.68280 0.32917 0.58511 0.30700
O 	O 	0.64092 0.29244 0.45196 -0.64000
O 	O 	0.72907 0.34975 0.50842 -0.64100
O 	O 	0.77909 0.30425 0.45799 -0.37200
O 	O 	0.71814 0.24088 0.49388 -0.44200
O 	O 	0.66296 0.34723 0.38691 -0.38500
O 	O 	0.55182 0.26160 0.49559 -0.38100
C 	C 	0.51791 0.26371 0.46878 0.30800
C 	C 	0.74270 0.44941 0.46792 0.30100
O 	O 	0.68666 0.41411 0.47297 -0.39300
O 	O 	0.54199 0.30334 0.44708 -0.39400
O 	O 	0.72567 0.32045 0.40249 -0.36000
C 	C 	0.75582 0.25492 0.47073 0.30800
O 	O 	0.63702 0.30899 0.55744 -0.38500
O 	O 	0.73272 0.33596 0.57927 -0.42100
H 	H 	0.61547 0.25008 0.44027 0.16400
H 	H 	0.75318 0.39097 0.52221 0.17400
C 	C 	0.65873 0.33930 0.69266 -0.00600
C 	C 	0.70501 0.38695 0.72033 -0.03500
C 	C 	0.70260 0.38377 0.75796 -0.03500
C 	C 	0.65390 0.33293 0.76802 -0.00600
C 	C 	0.60555 0.28714 0.74037 -0.03500
C 	C 	0.60796 0.29032 0.70276 -0.03500
C 	C 	0.65761 0.32420 0.80588 0.04500
C 	C 	0.66060 0.31678 0.83755 -0.10900
C 	C 	0.66734 0.33687 0.65466 0.04500
C 	C 	0.67403 0.33430 0.62275 -0.11000
H 	H 	0.74417 0.42521 0.71275 0.04000
H 	H 	0.73990 0.41962 0.77919 0.04000
H 	H 	0.56748 0.24791 0.74793 0.04000
H 	H 	0.57172 0.25352 0.68152 0.04000
C 	C 	0.68818 0.28932 0.26683 -0.00400
C 	C 	0.73862 0.33024 0.25206 -0.03300
C 	C 	0.73440 0.32608 0.21346 -0.03400
C 	C 	0.67973 0.28098 0.18951 -0.00400
C 	C 	0.63055 0.23800 0.20425 -0.03400
C 	C 	0.63477 0.24216 0.24283 -0.03400
C 	C 	0.67167 0.28286 0.15049 0.04500
C 	C 	0.66429 0.28390 0.11776 -0.10200
C 	C 	0.68855 0.29998 0.30602 0.04500
C 	C 	0.68881 0.30886 0.33884 -0.10100
H 	H 	0.78024 0.36660 0.27043 0.04300
H 	H 	0.77278 0.35923 0.20227 0.04000
H 	H 	0.58828 0.20273 0.18590 0.04200
H 	H 	0.59572 0.21013 0.25404 0.03900
C 	C 	0.81217 0.62174 0.46717 -0.01000
C 	C 	0.81105 0.65596 0.49687 -0.02800
C 	C 	0.83262 0.64516 0.43538 -0.02800
C 	C 	0.78957 0.56162 0.46849 0.04600
C 	C 	0.76932 0.51077 0.46876 -0.10900
H 	H 	0.79486 0.63802 0.52143 0.03800
H 	H 	0.83321 0.61885 0.41220 0.04000
C 	C 	0.81059 0.14967 0.45176 -0.01200
C 	C 	0.86281 0.16840 0.43702 -0.02700
C 	C 	0.88418 0.13403 0.43553 -0.04700
C 	C 	0.85348 0.08081 0.44883 0.02100
C 	C 	0.80034 0.06130 0.46263 -0.04800
C 	C 	0.77892 0.09563 0.46407 -0.02800
C 	C 	0.79200 0.18774 0.45688 0.04800
C 	C 	0.77598 0.21902 0.46239 -0.11800
C 	C 	0.87905 0.04863 0.45079 -0.01300
C 	C 	0.90249 0.02361 0.45279 -0.02800
H 	H 	0.88754 0.21008 0.42744 0.04000
H 	H 	0.92528 0.14941 0.42480 0.04400
H 	H 	0.77633 0.02024 0.47294 0.04200
H 	H 	0.73849 0.08082 0.47549 0.03600
C 	C 	0.33558 0.16876 0.46575 -0.01000
C 	C 	0.31281 0.15947 0.49890 -0.02700
C 	C 	0.25030 0.12758 0.49776 -0.04700
C 	C 	0.21036 0.10490 0.46346 0.02100
C 	C 	0.23315 0.11435 0.43032 -0.04700
C 	C 	0.29565 0.14624 0.43146 -0.02800
C 	C 	0.39992 0.20187 0.46692 0.04700
C 	C 	0.45380 0.22987 0.46782 -0.10700
C 	C 	0.14594 0.07073 0.46223 -0.01300
C 	C 	0.09196 0.04162 0.46117 -0.02700
H 	H 	0.34345 0.17687 0.52551 0.04000
H 	H 	0.23297 0.12034 0.52349 0.04300
H 	H 	0.20250 0.09685 0.40370 0.04300
H 	H 	0.31297 0.15337 0.40572 0.03700
C 	C 	0.80215 0.63380 0.99207 -0.00700
C 	C 	0.80967 0.65446 0.95840 -0.02800
C 	C 	0.77295 0.57210 0.99198 0.04900
C 	C 	0.74810 0.52034 0.99182 -0.10800
H 	H 	0.79358 0.62413 0.93222 0.04100
H 	H 	0.81696 0.65754 0.05191 0.03800
C 	C 	0.82633 0.15948 0.00612 -0.01400
C 	C 	0.79885 0.10396 0.01611 -0.02900
C 	C 	0.82879 0.07757 0.01646 -0.04600
C 	C 	0.88631 0.10661 0.00679 0.01500
C 	C 	0.91456 0.16290 0.99791 -0.04300
C 	C 	0.88463 0.18929 0.99758 -0.02600
C 	C 	0.79279 0.18353 0.00147 0.04200
C 	C 	0.76468 0.20346 0.99650 -0.11300
C 	C 	0.91459 0.07715 0.00373 -0.00900
C 	C 	0.93772 0.05201 0.00064 -0.03600
H 	H 	0.75379 0.08066 0.02276 0.03900
H 	H 	0.80676 0.03410 0.02346 0.04200
H 	H 	0.95909 0.18567 0.99050 0.04200
H 	H 	0.90616 0.23224 0.98983 0.03700
C 	C 	0.22542 0.10402 0.97190 0.02000
C 	C 	0.26736 0.16568 0.97997 -0.04700
C 	C 	0.32866 0.19232 0.97922 -0.02700
C 	C 	0.34822 0.15739 0.97043 -0.01000
C 	C 	0.30596 0.09582 0.96122 -0.02700
C 	C 	0.24467 0.06918 0.96193 -0.04600
C 	C 	0.16364 0.07633 0.97637 -0.01000
C 	C 	0.11192 0.05202 0.98054 -0.03100
C 	C 	0.41205 0.18441 0.97395 0.04800
C 	C 	0.46576 0.20780 0.97795 -0.11000
H 	H 	0.25277 0.19288 0.98762 0.04300
H 	H 	0.36110 0.23998 0.98634 0.03900
H 	H 	0.32076 0.06855 0.95437 0.03900
H 	H 	0.21243 0.02147 0.95557 0.04300
C 	C 	0.93023 0.96079 0.99716 -0.08700
C 	C 	0.95581 0.93054 0.99211 0.05600
C 	C 	0.01570 0.96076 0.98646 -0.09200
H 	H 	0.88371 0.93729 0.00140 0.05400
H 	H 	0.03549 0.93728 0.98258 0.05700
C 	C 	0.90165 0.93652 0.45718 -0.08400
C 	C 	0.93288 0.91130 0.46027 0.04900
C 	C 	0.99570 0.94623 0.46167 -0.08100
H 	H 	0.85299 0.90959 0.45612 0.05500
H 	H 	0.01981 0.92673 0.46401 0.05400
C 	C 	0.83090 0.71357 0.49491 -0.04700
C 	C 	0.85170 0.73708 0.46318 0.02100
C 	C 	0.85236 0.70266 0.43340 -0.04700
C 	C 	0.87717 0.79802 0.46239 -0.01200
C 	C 	0.90085 0.84942 0.46149 -0.02800
H 	H 	0.83065 0.74002 0.51817 0.04300
H 	H 	0.86879 0.72066 0.40890 0.04400
C 	C 	0.83834 0.71448 0.95848 -0.04700
C 	C 	0.85955 0.75405 0.99223 0.02400
C 	C 	0.85153 0.73331 0.02587 -0.05000
C 	C 	0.82284 0.67327 0.02579 -0.03100
C 	C 	0.89228 0.81622 0.99244 -0.01100
C 	C 	0.92062 0.86833 0.99241 -0.02900
H 	H 	0.84455 0.73026 0.93238 0.04400
H 	H 	0.86797 0.76371 0.05207 0.04300
