data_crystal

_cell_length_a 26.02947
_cell_length_b 26.22090
_cell_length_c 34.81624
_cell_angle_alpha 95.53890
_cell_angle_beta  95.53987
_cell_angle_gamma 125.68045

_symmetry_space_group_name_	'P 1'
_symmetry_space_group_name_H-M	'P 1'

loop_
_symmetry_equiv_pos_as_xyz
  x,y,z

loop_
_atom_site_label
_atom_site_type_symbol
_atom_site_fract_x
_atom_site_fract_y
_atom_site_fract_z
_atom_site_charge
C 	C 	0.95419 0.00369 0.97776 0.10800
N 	N 	0.92128 0.94140 0.98134 -0.13500
C 	C 	0.95064 0.91246 0.98108 0.10800
N 	N 	0.01327 0.94588 0.97744 -0.13100
C 	C 	0.04655 0.00803 0.97352 0.11200
N 	N 	0.01697 0.03706 0.97373 -0.13200
C 	C 	0.94659 0.01744 0.45735 0.10600
N 	N 	0.01187 0.05610 0.46194 -0.13300
C 	C 	0.04511 0.03119 0.46511 0.11200
N 	N 	0.01294 0.96746 0.46360 -0.13200
C 	C 	0.94783 0.92859 0.45928 0.10800
N 	N 	0.91455 0.95360 0.45629 -0.13400
Cu	Cu	0.62959 0.22270 0.00229 0.92700
Cu	Cu	0.70460 0.25427 0.92851 0.86700
Cu	Cu	0.65534 0.32259 0.95447 0.89700
Cu	Cu	0.63624 0.34381 0.03637 0.90100
C 	C 	0.64178 0.25984 0.08508 0.31200
O 	O 	0.53595 0.19014 0.99871 -0.34200
C 	C 	0.66015 0.30050 0.87143 0.30200
O 	O 	0.68200 0.32259 0.00880 -0.63900
O 	O 	0.62785 0.23378 0.94729 -0.64400
O 	O 	0.66741 0.17512 0.99831 -0.35600
O 	O 	0.75075 0.25467 0.97439 -0.43100
O 	O 	0.61441 0.28735 0.07578 -0.37000
O 	O 	0.67519 0.40745 0.96139 -0.36300
C 	C 	0.70369 0.45024 0.99430 0.28400
C 	C 	0.51515 0.22282 0.98718 0.27200
O 	O 	0.55634 0.28443 0.98745 -0.38900
O 	O 	0.69157 0.43319 0.02859 -0.38800
O 	O 	0.64737 0.22591 0.05770 -0.35600
C 	C 	0.72512 0.20302 0.98976 0.28200
O 	O 	0.63799 0.31861 0.89799 -0.35900
O 	O 	0.67578 0.26183 0.87782 -0.41400
H 	H 	0.72923 0.34982 0.01810 0.16100
H 	H 	0.58648 0.20260 0.92877 0.17900
Cu	Cu	0.74334 0.35280 0.45665 0.93000
Cu	Cu	0.73243 0.29918 0.53851 0.87100
Cu	Cu	0.64784 0.33012 0.50945 0.89600
Cu	Cu	0.62627 0.35557 0.43030 0.89700
C 	C 	0.69273 0.33052 0.37465 0.31000
O 	O 	0.78393 0.44639 0.45578 -0.35600
C 	C 	0.69094 0.34948 0.59488 0.30700
O 	O 	0.64392 0.30516 0.45486 -0.64000
O 	O 	0.73993 0.36510 0.51292 -0.64200
O 	O 	0.78536 0.30924 0.45944 -0.36100
O 	O 	0.71354 0.23942 0.49383 -0.43200
O 	O 	0.66924 0.36195 0.38459 -0.38300
O 	O 	0.55643 0.28913 0.50439 -0.37900
C 	C 	0.51893 0.28715 0.47486 0.28500
C 	C 	0.75826 0.47379 0.46920 0.27500
O 	O 	0.69871 0.43816 0.47493 -0.39100
O 	O 	0.54282 0.32196 0.44743 -0.38800
O 	O 	0.73076 0.32783 0.40099 -0.34500
C 	C 	0.75684 0.25461 0.47177 0.28600
O 	O 	0.65438 0.35075 0.56630 -0.37700
O 	O 	0.73394 0.33993 0.58773 -0.39700
H 	H 	0.61392 0.25857 0.44444 0.17400
H 	H 	0.77057 0.40917 0.52828 0.18500
C 	C 	0.68382 0.35951 0.63597 -0.09700
C 	C 	0.73768 0.39253 0.66699 0.14700
C 	C 	0.72852 0.38656 0.70571 -0.08700
C 	C 	0.66618 0.35088 0.71406 0.02000
C 	C 	0.61304 0.32597 0.68377 0.08800
C 	C 	0.62187 0.32923 0.64479 -0.01600
H 	H 	0.76986 0.40893 0.72926 0.07800
C 	C 	0.65684 0.33573 0.75378 0.02200
H 	H 	0.58035 0.30615 0.62129 0.06600
C 	C 	0.67635 0.38440 0.78547 -0.08600
C 	C 	0.67658 0.37341 0.82406 0.14200
C 	C 	0.65433 0.31207 0.83104 -0.09600
C 	C 	0.63184 0.26266 0.79905 -0.01500
C 	C 	0.63478 0.27461 0.76076 0.08600
H 	H 	0.69395 0.43163 0.78024 0.08000
H 	H 	0.61420 0.21533 0.80407 0.06300
Br	Br	0.52819 0.28670 0.69505 -0.21500
Br	Br	0.82365 0.45001 0.65755 -0.24300
Br	Br	0.71282 0.44430 0.86664 -0.24500
Br	Br	0.61265 0.20799 0.71875 -0.22600
C 	C 	0.65045 0.25309 0.12617 -0.09700
C 	C 	0.59783 0.22418 0.14578 0.15000
C 	C 	0.60867 0.23111 0.18672 -0.08600
C 	C 	0.67158 0.26585 0.20827 0.02100
C 	C 	0.72344 0.28857 0.18828 0.08700
C 	C 	0.71272 0.28249 0.14734 -0.01500
H 	H 	0.56837 0.21151 0.20190 0.07900
C 	C 	0.68324 0.28473 0.25137 0.02200
H 	H 	0.75314 0.30299 0.13222 0.05600
C 	C 	0.67196 0.24050 0.27540 -0.08500
C 	C 	0.67590 0.25520 0.31586 0.14400
C 	C 	0.69210 0.31514 0.33263 -0.09600
C 	C 	0.70528 0.35998 0.30866 -0.01400
C 	C 	0.70014 0.34482 0.26822 0.08500
H 	H 	0.65851 0.19406 0.26248 0.08100
H 	H 	0.71858 0.40644 0.32141 0.06500
Br	Br	0.80932 0.32994 0.21656 -0.21800
Br	Br	0.51088 0.17454 0.11711 -0.22700
Br	Br	0.65526 0.19136 0.34714 -0.24200
Br	Br	0.71402 0.40597 0.23620 -0.22400
C 	C 	0.80304 0.73315 0.51100 -0.04800
C 	C 	0.77993 0.67067 0.51439 -0.03600
C 	C 	0.79859 0.63868 0.49188 0.01600
C 	C 	0.84096 0.66984 0.46588 -0.00100
C 	C 	0.86410 0.73267 0.46239 -0.02000
C 	C 	0.84520 0.76451 0.48512 0.03500
C 	C 	0.90656 0.76383 0.43643 0.03500
C 	C 	0.92523 0.73188 0.41393 -0.04700
C 	C 	0.90210 0.66943 0.41730 -0.03600
C 	C 	0.85993 0.63808 0.44316 0.01600
C 	C 	0.83550 0.57495 0.44598 -0.02500
C 	C 	0.79162 0.54302 0.47096 -0.05700
C 	C 	0.77449 0.57555 0.49455 -0.02600
C 	C 	0.86983 0.82777 0.48230 -0.05900
C 	C 	0.91375 0.85948 0.45737 0.00900
C 	C 	0.93086 0.82695 0.43387 -0.05900
H 	H 	0.78825 0.75717 0.52861 0.04500
H 	H 	0.74736 0.64712 0.53445 0.04300
H 	H 	0.95786 0.75545 0.39390 0.04700
H 	H 	0.91691 0.64543 0.39969 0.04600
H 	H 	0.84878 0.54998 0.42777 0.05400
H 	H 	0.74145 0.55128 0.51428 0.04800
H 	H 	0.85677 0.85303 0.50046 0.05200
H 	H 	0.96429 0.85139 0.41434 0.05300
C 	C 	0.77881 0.03601 0.49368 -0.05100
C 	C 	0.75220 0.06946 0.49568 -0.03500
C 	C 	0.77598 0.12263 0.47735 0.01300
C 	C 	0.82572 0.14126 0.45598 0.00100
C 	C 	0.85247 0.10752 0.45391 -0.02100
C 	C 	0.82948 0.05522 0.47328 0.03700
C 	C 	0.90330 0.12712 0.43335 0.03600
C 	C 	0.92590 0.17921 0.41413 -0.04800
C 	C 	0.89934 0.21270 0.41618 -0.03400
C 	C 	0.84984 0.19456 0.43748 0.01600
C 	C 	0.82534 0.23003 0.44133 -0.02000
C 	C 	0.77753 0.21314 0.46400 -0.05900
C 	C 	0.75175 0.15829 0.48102 -0.02500
C 	C 	0.85865 0.02397 0.47292 -0.06200
C 	C 	0.91089 0.04498 0.45366 0.01000
C 	C 	0.93203 0.09551 0.43311 -0.06000
H 	H 	0.76045 0.99561 0.50839 0.04700
H 	H 	0.71362 0.05445 0.51192 0.04000
H 	H 	0.96459 0.19431 0.39798 0.04600
H 	H 	0.91785 0.25325 0.40158 0.04600
H 	H 	0.84431 0.27133 0.42739 0.05900
H 	H 	0.71398 0.14428 0.49785 0.04200
H 	H 	0.84222 0.98487 0.48867 0.05400
H 	H 	0.97152 0.11086 0.41759 0.05200
C 	C 	0.32196 0.11474 0.51567 -0.03400
C 	C 	0.25566 0.07945 0.51479 -0.04700
C 	C 	0.21923 0.09493 0.49373 0.03700
C 	C 	0.24986 0.14687 0.47390 -0.02000
C 	C 	0.31665 0.18252 0.47490 0.00100
C 	C 	0.35273 0.16609 0.49562 0.01500
C 	C 	0.34721 0.23412 0.45478 0.01400
C 	C 	0.31090 0.25008 0.43413 -0.03500
C 	C 	0.24449 0.21450 0.43301 -0.04800
C 	C 	0.21356 0.16260 0.45261 0.03600
C 	C 	0.14669 0.12560 0.45062 -0.05900
C 	C 	0.11589 0.07298 0.46971 0.00900
C 	C 	0.15246 0.05851 0.49178 -0.05900
C 	C 	0.41894 0.20072 0.49572 -0.02200
C 	C 	0.44949 0.25188 0.47543 -0.05700
C 	C 	0.41353 0.26877 0.45528 -0.02300
H 	H 	0.34932 0.10192 0.53183 0.04500
H 	H 	0.23258 0.03976 0.53024 0.04800
H 	H 	0.33398 0.28981 0.41870 0.04200
H 	H 	0.21708 0.22715 0.41671 0.04600
H 	H 	0.11848 0.13672 0.43354 0.05400
H 	H 	0.12883 0.01862 0.50710 0.05600
H 	H 	0.44650 0.18741 0.51110 0.04700
H 	H 	0.43712 0.30876 0.44006 0.04800
C 	C 	0.72844 0.62372 0.93364 -0.03300
C 	C 	0.76266 0.68876 0.93217 -0.04600
C 	C 	0.82078 0.73420 0.95863 0.03600
C 	C 	0.84472 0.71408 0.98675 -0.01600
C 	C 	0.80997 0.64870 0.98847 0.00400
C 	C 	0.75170 0.60335 0.96174 0.01900
C 	C 	0.83340 0.62866 0.01697 0.01200
C 	C 	0.89175 0.67406 0.04326 -0.03600
C 	C 	0.92662 0.73899 0.04129 -0.04800
C 	C 	0.90341 0.75936 0.01315 0.03200
C 	C 	0.93807 0.82438 0.01110 -0.06400
C 	C 	0.91403 0.84444 0.98328 0.01400
C 	C 	0.85536 0.79942 0.95723 -0.06000
C 	C 	0.71730 0.53829 0.96357 -0.01900
C 	C 	0.74035 0.51835 0.99213 -0.04800
C 	C 	0.79823 0.56352 0.01882 -0.03000
H 	H 	0.68375 0.58923 0.91296 0.05000
H 	H 	0.74397 0.70374 0.91040 0.04700
H 	H 	0.91020 0.65912 0.06521 0.04200
H 	H 	0.97163 0.77341 0.06172 0.04500
H 	H 	0.98333 0.85941 0.03124 0.05300
H 	H 	0.83720 0.81516 0.93564 0.05300
H 	H 	0.67231 0.50329 0.94319 0.06200
H 	H 	0.81599 0.54786 0.04071 0.04300
C 	C 	0.72119 0.01313 0.96144 -0.03800
C 	C 	0.75390 0.98604 0.95743 -0.04500
C 	C 	0.82123 0.02400 0.96883 0.03400
C 	C 	0.85594 0.08967 0.98445 -0.02500
C 	C 	0.82305 0.11708 0.98820 0.00800
C 	C 	0.75542 0.07863 0.97664 0.01200
C 	C 	0.85785 0.18305 0.00304 0.00400
C 	C 	0.92514 0.22092 0.01471 -0.02900
C 	C 	0.95775 0.19354 0.01143 -0.06500
C 	C 	0.92353 0.12800 0.99623 0.04600
C 	C 	0.95596 0.10018 0.99301 -0.06300
C 	C 	0.92128 0.03446 0.97786 0.00900
C 	C 	0.85409 0.99690 0.96511 -0.05700
C 	C 	0.72304 0.10644 0.97951 -0.02500
C 	C 	0.75785 0.17255 0.99290 -0.06100
C 	C 	0.82507 0.21054 0.00526 -0.02600
H 	H 	0.66925 0.98318 0.95247 0.04400
H 	H 	0.72679 0.93546 0.94550 0.04500
H 	H 	0.95231 0.27163 0.02625 0.03800
H 	H 	0.00965 0.22341 0.02061 0.05100
H 	H 	0.00770 0.12922 0.00299 0.05400
H 	H 	0.82741 0.94650 0.95270 0.05400
H 	H 	0.67120 0.07724 0.96988 0.04400
H 	H 	0.85179 0.26151 0.01589 0.04300
C 	C 	0.27099 0.20354 0.00656 -0.05200
C 	C 	0.33695 0.23331 0.00894 -0.03800
C 	C 	0.35840 0.19931 0.99258 0.01900
C 	C 	0.31317 0.13532 0.97296 0.00300
C 	C 	0.24674 0.10550 0.97027 -0.02000
C 	C 	0.22561 0.13946 0.98765 0.04000
C 	C 	0.20154 0.04129 0.95105 0.03900
C 	C 	0.22296 0.00763 0.93408 -0.04900
C 	C 	0.28893 0.03706 0.93703 -0.03200
C 	C 	0.33435 0.10066 0.95677 0.01600
C 	C 	0.40064 0.12973 0.96103 -0.02000
C 	C 	0.44572 0.19326 0.98097 -0.05200
C 	C 	0.42448 0.22814 0.99626 -0.01400
C 	C 	0.15953 0.10834 0.98695 -0.05400
C 	C 	0.11459 0.04357 0.96910 0.00900
C 	C 	0.13564 0.01090 0.95005 -0.06000
H 	H 	0.25529 0.23020 0.01977 0.04600
H 	H 	0.37135 0.28264 0.02389 0.04300
H 	H 	0.18855 0.95835 0.91904 0.04900
H 	H 	0.30465 0.01018 0.92421 0.04300
H 	H 	0.41713 0.10308 0.94897 0.04500
H 	H 	0.45936 0.27709 0.01185 0.03800
H 	H 	0.14336 0.13368 0.00147 0.04900
H 	H 	0.10082 0.96140 0.93540 0.05800
