data_crystal

_cell_length_a 27.61965
_cell_length_b 28.80851
_cell_length_c 30.76303
_cell_angle_alpha 61.14682
_cell_angle_beta  118.53442
_cell_angle_gamma 133.20163

_symmetry_space_group_name_	'P 1'
_symmetry_space_group_name_H-M	'P 1'

loop_
_symmetry_equiv_pos_as_xyz
  x,y,z

loop_
_atom_site_label
_atom_site_type_symbol
_atom_site_fract_x
_atom_site_fract_y
_atom_site_fract_z
_atom_site_charge
C 	C 	0.72872 0.31145 0.03546 0.28800
N 	N 	0.75859 0.37615 0.02751 -0.10300
C 	C 	0.72723 0.39342 0.03335 0.29100
N 	N 	0.66692 0.34636 0.04740 -0.11900
C 	C 	0.63618 0.28229 0.05407 0.29000
N 	N 	0.66701 0.26456 0.04824 -0.10600
C 	C 	0.73022 0.30723 0.52997 0.28900
N 	N 	0.77575 0.36549 0.54356 -0.10300
C 	C 	0.75303 0.39041 0.55057 0.29100
N 	N 	0.68529 0.35759 0.54356 -0.11200
C 	C 	0.63973 0.29948 0.53045 0.28900
N 	N 	0.66213 0.27396 0.52385 -0.10100
C 	C 	0.26242 0.62791 0.26824 0.29300
N 	N 	0.31887 0.67551 0.24859 -0.10700
C 	C 	0.35042 0.65914 0.24209 0.29200
N 	N 	0.32579 0.59540 0.25541 -0.11100
C 	C 	0.26912 0.54757 0.27442 0.29000
N 	N 	0.23715 0.56375 0.28082 -0.10100
C 	C 	0.27943 0.64006 0.77755 0.29000
N 	N 	0.24530 0.57475 0.78401 -0.10100
C 	C 	0.26865 0.55463 0.77169 0.29000
N 	N 	0.32490 0.59959 0.75228 -0.11000
C 	C 	0.35825 0.66450 0.74501 0.29000
N 	N 	0.33583 0.68484 0.75794 -0.10700
Co	Co	0.07479 0.95926 0.17570 1.19900
Co	Co	0.91397 0.98714 0.11919 1.19300
Co	Co	0.02990 0.01750 0.20820 1.20200
Co	Co	0.96188 0.93417 0.08425 1.18800
C 	C 	0.06364 0.83163 0.21337 0.40700
Co	Co	0.05737 0.89405 0.10323 1.19700
Co	Co	0.92823 0.04938 0.19183 1.18700
C 	C 	0.03612 0.98251 0.00609 0.27000
O 	O 	0.01556 0.14123 0.17400 -0.33300
O 	O 	0.95656 0.01019 0.17423 -0.74300
C 	C 	0.07604 0.15287 0.19707 0.40500
O 	O 	0.10122 0.00408 0.22580 -0.38800
O 	O 	0.89462 0.95364 0.06389 -0.41000
C 	C 	0.89981 0.09375 0.07950 0.40900
O 	O 	0.98085 0.95271 0.15677 -0.56700
C 	C 	0.98886 0.99544 0.29616 0.29000
C 	C 	0.18892 0.00917 0.14056 0.42600
C 	C 	0.90540 0.80841 0.06769 0.40900
O 	O 	0.09134 0.11986 0.19399 -0.34000
O 	O 	0.15576 0.94647 0.14654 -0.35100
O 	O 	0.16117 0.02913 0.14554 -0.34600
O 	O 	0.87241 0.06244 0.11839 -0.35300
O 	O 	0.93144 0.07716 0.07553 -0.34500
O 	O 	0.98334 0.04372 0.26722 -0.34000
O 	O 	0.00486 0.97401 0.27896 -0.33100
O 	O 	0.96325 0.84198 0.05607 -0.38400
O 	O 	0.89327 0.83591 0.08154 -0.34200
O 	O 	0.02638 0.92800 0.12406 -0.74700
C 	C 	0.79950 0.92015 0.17079 0.41200
O 	O 	0.84537 0.95256 0.20696 -0.37700
O 	O 	0.81641 0.92624 0.13322 -0.32700
O 	O 	0.02790 0.82013 0.16765 -0.33000
O 	O 	0.08131 0.88092 0.22562 -0.32100
O 	O 	0.08243 0.97293 0.04031 -0.34200
O 	O 	0.00360 0.99106 0.01943 -0.34600
Co	Co	0.10570 0.98970 0.67474 1.19700
Co	Co	0.91775 0.97335 0.62731 1.19100
Co	Co	0.04154 0.02837 0.70789 1.20100
Co	Co	0.98027 0.93238 0.59497 1.18800
C 	C 	0.13611 0.88737 0.72064 0.41200
Co	Co	0.10221 0.92834 0.60752 1.18000
Co	Co	0.92162 0.03587 0.69386 1.18700
C 	C 	0.04053 0.97993 0.50759 0.30300
O 	O 	0.99862 0.13269 0.66918 -0.34200
O 	O 	0.96108 0.00541 0.67816 -0.74300
C 	C 	0.06303 0.15453 0.68852 0.41500
O 	O 	0.12500 0.03427 0.72155 -0.38800
O 	O 	0.89999 0.93306 0.57781 -0.40600
C 	C 	0.88210 0.06587 0.58099 0.41900
O 	O 	0.00121 0.95940 0.66361 -0.55000
C 	C 	0.00159 0.00336 0.79811 0.34300
C 	C 	0.21677 0.06234 0.62483 0.41800
C 	C 	0.95575 0.81187 0.59774 0.40700
O 	O 	0.08599 0.12879 0.68483 -0.34100
O 	O 	0.20044 0.00380 0.63547 -0.35000
O 	O 	0.17929 0.06906 0.63295 -0.34500
O 	O 	0.85806 0.03553 0.62164 -0.35000
O 	O 	0.91839 0.05419 0.57729 -0.34400
O 	O 	0.98288 0.04230 0.76740 -0.35700
O 	O 	0.02613 0.98943 0.78168 -0.35100
O 	O 	0.00765 0.85323 0.57619 -0.37700
O 	O 	0.93217 0.83315 0.60656 -0.33800
O 	O 	0.05778 0.94828 0.62906 -0.74600
C 	C 	0.80529 0.90004 0.68275 0.41300
O 	O 	0.85038 0.93612 0.71642 -0.38400
O 	O 	0.82352 0.90200 0.64846 -0.32700
O 	O 	0.09852 0.86602 0.67876 -0.33500
O 	O 	0.14045 0.93207 0.72826 -0.32500
O 	O 	0.09952 0.99273 0.53786 -0.34800
O 	O 	0.00111 0.97905 0.52182 -0.33500
C 	C 	0.96188 0.95309 0.92225 -0.04500
C 	C 	0.02726 0.99253 0.95108 -0.03600
C 	C 	0.08460 0.03230 0.93012 0.14000
C 	C 	0.07606 0.02698 0.88331 0.00200
C 	C 	0.01062 0.98889 0.85388 -0.07100
C 	C 	0.95314 0.95026 0.87422 0.12600
C 	C 	0.88219 0.90770 0.84415 -0.24000
H 	H 	0.91774 0.92332 0.93766 0.11100
H 	H 	0.12034 0.05606 0.86828 0.11500
C 	C 	0.15482 0.08138 0.95664 -0.24100
H 	H 	0.84505 0.87004 0.86888 0.17800
H 	H 	0.88137 0.88145 0.82639 0.15500
H 	H 	0.86530 0.93863 0.81388 0.12800
H 	H 	0.15234 0.09974 0.97949 0.15200
H 	H 	0.18515 0.12473 0.92832 0.16900
H 	H 	0.18183 0.05832 0.98178 0.17400
C 	C 	0.04630 0.97319 0.38804 0.00700
C 	C 	0.99232 0.97593 0.35175 -0.07000
C 	C 	0.94871 0.97131 0.36809 0.13900
C 	C 	0.96626 0.97485 0.41822 -0.04700
C 	C 	0.02232 0.97519 0.45433 -0.02900
C 	C 	0.05923 0.96878 0.43969 0.11700
C 	C 	0.11077 0.95541 0.47835 -0.23000
H 	H 	0.07891 0.97508 0.37617 0.09100
H 	H 	0.93542 0.97630 0.42912 0.09600
C 	C 	0.88372 0.96315 0.33231 -0.26300
H 	H 	0.12345 0.93866 0.46214 0.13300
H 	H 	0.08999 0.91559 0.51188 0.10000
H 	H 	0.15891 0.00095 0.49024 0.15600
H 	H 	0.85900 0.93046 0.30784 0.14500
H 	H 	0.89501 0.01177 0.30801 0.14600
H 	H 	0.84646 0.94037 0.35382 0.14900
C 	C 	0.15195 0.32679 0.68902 0.24200
C 	C 	0.16187 0.31857 0.74083 0.01000
C 	C 	0.15182 0.26014 0.77606 0.23500
C 	C 	0.12869 0.20929 0.75924 0.31800
C 	C 	0.11134 0.21467 0.70690 -0.20300
C 	C 	0.12636 0.27484 0.67210 0.33800
C 	C 	0.18321 0.37132 0.75812 -0.00200
F 	F 	0.16247 0.25188 0.82637 -0.33100
F 	F 	0.11455 0.28240 0.62177 -0.30900
C 	C 	0.14119 0.39149 0.73948 0.25500
C 	C 	0.16615 0.44823 0.74911 0.31000
C 	C 	0.23285 0.48451 0.77805 -0.13500
C 	C 	0.27111 0.45930 0.80204 0.30600
C 	C 	0.24727 0.40404 0.79105 0.25500
F 	F 	0.07738 0.35774 0.71026 -0.31000
F 	F 	0.33407 0.49177 0.83265 -0.32300
F 	F 	0.12749 0.47058 0.72719 -0.31600
F 	F 	0.28792 0.38441 0.81018 -0.30400
F 	F 	0.16593 0.38465 0.65502 -0.29600
F 	F 	0.12004 0.15348 0.79365 -0.40000
C 	C 	0.54215 0.79131 0.73769 0.25600
C 	C 	0.54119 0.77716 0.69937 -0.00100
C 	C 	0.47852 0.73499 0.67017 0.25800
C 	C 	0.41755 0.70363 0.68157 0.30800
C 	C 	0.41885 0.71227 0.72346 -0.13800
C 	C 	0.48119 0.75858 0.74998 0.31000
C 	C 	0.60562 0.80265 0.69237 0.00900
F 	F 	0.47689 0.72213 0.63226 -0.30000
F 	F 	0.48312 0.76877 0.78969 -0.31700
C 	C 	0.64600 0.78202 0.73121 0.23600
C 	C 	0.70968 0.81018 0.72638 0.32600
C 	C 	0.73284 0.85818 0.68227 -0.20900
C 	C 	0.69002 0.87481 0.64177 0.32300
C 	C 	0.62715 0.84801 0.64711 0.24300
F 	F 	0.62411 0.73576 0.77410 -0.30900
F 	F 	0.71126 0.92003 0.59845 -0.34000
F 	F 	0.74995 0.79249 0.76524 -0.35900
F 	F 	0.58816 0.86773 0.60906 -0.29900
F 	F 	0.60241 0.83473 0.76437 -0.31900
F 	F 	0.35720 0.66205 0.65360 -0.32200
C 	C 	0.17865 0.69384 0.76056 0.25100
C 	C 	0.22000 0.73018 0.79775 0.00200
C 	C 	0.27562 0.72905 0.83268 0.26200
C 	C 	0.29267 0.69587 0.82812 0.31300
C 	C 	0.25357 0.66271 0.78910 -0.13800
C 	C 	0.19513 0.65988 0.75654 0.31100
C 	C 	0.20954 0.77510 0.79613 0.01100
F 	F 	0.31457 0.76205 0.86986 -0.29100
F 	F 	0.15653 0.62735 0.71908 -0.31900
C 	C 	0.14847 0.74972 0.80411 0.25200
C 	C 	0.12860 0.79045 0.78693 0.33900
C 	C 	0.16944 0.85647 0.76136 -0.19100
C 	C 	0.23555 0.88392 0.76174 0.32000
C 	C 	0.25518 0.84320 0.77821 0.24000
F 	F 	0.10602 0.68471 0.82480 -0.28900
F 	F 	0.27750 0.94873 0.74027 -0.34100
F 	F 	0.06639 0.76420 0.79009 -0.32400
F 	F 	0.31597 0.86905 0.77262 -0.30600
F 	F 	0.12453 0.69424 0.72667 -0.30500
F 	F 	0.34850 0.69775 0.86052 -0.31100
C 	C 	0.18028 0.32580 0.20192 0.24300
C 	C 	0.18412 0.31571 0.25262 0.01000
C 	C 	0.16869 0.25540 0.28730 0.24000
C 	C 	0.14317 0.20366 0.27019 0.31700
C 	C 	0.13015 0.21107 0.21801 -0.19700
C 	C 	0.15341 0.27360 0.18470 0.33700
C 	C 	0.19955 0.36655 0.26822 -0.00100
F 	F 	0.17505 0.24588 0.33695 -0.31300
F 	F 	0.14559 0.28259 0.13485 -0.31800
C 	C 	0.15345 0.38242 0.24749 0.25400
C 	C 	0.17316 0.43830 0.25456 0.31100
C 	C 	0.23896 0.47841 0.28271 -0.13500
C 	C 	0.28158 0.45777 0.30856 0.30800
C 	C 	0.26244 0.40269 0.30066 0.25700
F 	F 	0.09086 0.34550 0.21840 -0.31200
F 	F 	0.34373 0.49397 0.33839 -0.32100
F 	F 	0.13038 0.45624 0.23078 -0.32000
F 	F 	0.30646 0.38646 0.32239 -0.29900
F 	F 	0.19950 0.38532 0.16882 -0.30100
F 	F 	0.12603 0.14476 0.30361 -0.37700
C 	C 	0.61956 0.86325 0.13871 0.24200
C 	C 	0.59832 0.81473 0.18322 0.00800
C 	C 	0.64027 0.79527 0.22054 0.23500
C 	C 	0.70465 0.82678 0.21480 0.32300
C 	C 	0.72725 0.87742 0.17139 -0.20600
C 	C 	0.68364 0.89418 0.13265 0.32400
C 	C 	0.53249 0.78456 0.19109 -0.00000
F 	F 	0.61906 0.74667 0.26284 -0.31400
F 	F 	0.70500 0.94306 0.09049 -0.34100
C 	C 	0.47127 0.73830 0.16407 0.25600
C 	C 	0.40997 0.70145 0.17759 0.31000
C 	C 	0.40964 0.70975 0.21886 -0.13900
C 	C 	0.46991 0.75987 0.24302 0.31000
C 	C 	0.53116 0.79733 0.22905 0.25400
F 	F 	0.47174 0.72686 0.12636 -0.30400
F 	F 	0.46996 0.76947 0.28214 -0.32600
F 	F 	0.35128 0.65533 0.15226 -0.32200
F 	F 	0.58977 0.84399 0.25394 -0.32300
F 	F 	0.57895 0.88176 0.10208 -0.30500
F 	F 	0.74601 0.80951 0.25210 -0.36000
C 	C 	0.07222 0.68980 0.27032 0.24400
C 	C 	0.14276 0.72357 0.27918 0.01400
C 	C 	0.18715 0.78984 0.28052 0.23900
C 	C 	0.16075 0.82415 0.26625 0.32200
C 	C 	0.08985 0.79254 0.24980 -0.19500
C 	C 	0.04585 0.72411 0.25601 0.33800
C 	C 	0.16854 0.69390 0.27682 0.00100
F 	F 	0.25571 0.82226 0.29160 -0.31000
F 	F 	0.97721 0.69197 0.24366 -0.32600
C 	C 	0.16644 0.69647 0.22923 0.25400
C 	C 	0.19475 0.67245 0.22653 0.31200
C 	C 	0.22538 0.64555 0.27138 -0.13600
C 	C 	0.22562 0.64102 0.31905 0.31300
C 	C 	0.19740 0.66529 0.32177 0.26300
F 	F 	0.13812 0.72353 0.18556 -0.32300
F 	F 	0.25499 0.61497 0.36267 -0.31800
F 	F 	0.19339 0.67620 0.18027 -0.32400
F 	F 	0.19910 0.66200 0.36796 -0.29700
F 	F 	0.02896 0.62481 0.27172 -0.29200
F 	F 	0.20410 0.88958 0.26333 -0.35200
C 	C 	0.89720 0.21813 0.53300 0.24100
C 	C 	0.82739 0.19143 0.51510 0.01100
C 	C 	0.78102 0.13074 0.50213 0.24700
C 	C 	0.80255 0.09269 0.51476 0.33300
C 	C 	0.87011 0.11460 0.54127 -0.19300
C 	C 	0.91863 0.18038 0.54445 0.31800
C 	C 	0.80177 0.22108 0.51816 -0.00000
F 	F 	0.71420 0.10648 0.48098 -0.29600
F 	F 	0.98568 0.20531 0.56381 -0.33400
C 	C 	0.81431 0.28118 0.48469 0.26200
C 	C 	0.79132 0.30959 0.48870 0.30900
C 	C 	0.75488 0.27771 0.52580 -0.13500
C 	C 	0.74208 0.21750 0.55904 0.30900
C 	C 	0.76579 0.18956 0.55549 0.25300
F 	F 	0.84850 0.31190 0.44823 -0.29600
F 	F 	0.70771 0.18662 0.59543 -0.31400
F 	F 	0.80367 0.36761 0.45614 -0.31500
F 	F 	0.75453 0.13218 0.58874 -0.32000
F 	F 	0.94349 0.27849 0.54279 -0.30100
F 	F 	0.75606 0.03139 0.50671 -0.31100
C 	C 	0.92473 0.65044 0.63703 0.24200
C 	C 	0.87264 0.62352 0.59561 0.00900
C 	C 	0.83923 0.65303 0.56038 0.23700
C 	C 	0.86171 0.71200 0.56418 0.32600
C 	C 	0.91708 0.74137 0.60360 -0.20300
C 	C 	0.94580 0.70832 0.64157 0.32200
C 	C 	0.85338 0.56475 0.58887 -0.00000
F 	F 	0.78635 0.62556 0.52165 -0.31000
F 	F 	0.99660 0.73411 0.68154 -0.34900
C 	C 	0.82212 0.50401 0.62393 0.25900
C 	C 	0.79740 0.44725 0.61470 0.30900
C 	C 	0.80124 0.45022 0.56937 -0.13600
C 	C 	0.83766 0.51164 0.53653 0.31000
C 	C 	0.86394 0.56881 0.54637 0.25600
F 	F 	0.81287 0.49955 0.66572 -0.29700
F 	F 	0.84350 0.51548 0.49333 -0.31900
F 	F 	0.76497 0.38840 0.64793 -0.32000
F 	F 	0.89747 0.62782 0.51366 -0.32200
F 	F 	0.95652 0.62174 0.67195 -0.29200
F 	F 	0.83244 0.74263 0.52784 -0.35500
C 	C 	0.47864 0.27009 0.51547 0.25700
C 	C 	0.44711 0.20846 0.54957 -0.00200
C 	C 	0.47196 0.17124 0.56869 0.25400
C 	C 	0.53197 0.19834 0.55805 0.30900
C 	C 	0.56683 0.26241 0.52743 -0.13500
C 	C 	0.53722 0.29619 0.50348 0.30600
C 	C 	0.39063 0.18443 0.56754 0.00900
F 	F 	0.43946 0.10988 0.59923 -0.30900
F 	F 	0.56799 0.35642 0.47118 -0.32300
C 	C 	0.32758 0.16882 0.53345 0.23700
C 	C 	0.27190 0.13851 0.55178 0.31700
C 	C 	0.27765 0.11981 0.60450 -0.19900
C 	C 	0.34233 0.14176 0.63781 0.33500
C 	C 	0.39877 0.17436 0.61936 0.24400
F 	F 	0.31940 0.18018 0.48299 -0.31400
F 	F 	0.34935 0.12678 0.68865 -0.32500
F 	F 	0.21105 0.12314 0.51860 -0.36300
F 	F 	0.46069 0.19353 0.65216 -0.29700
F 	F 	0.45438 0.30601 0.49581 -0.29800
F 	F 	0.55859 0.16410 0.58025 -0.31200
C 	C 	0.80551 0.16470 0.99908 0.29900
C 	C 	0.85037 0.22215 0.01644 -0.02000
C 	C 	0.91952 0.24699 0.03759 0.25600
C 	C 	0.94093 0.20944 0.04842 0.30000
C 	C 	0.89270 0.14574 0.04049 -0.17300
C 	C 	0.82712 0.12722 0.01022 0.28100
C 	C 	0.82272 0.24813 0.02197 -0.00900
F 	F 	0.96469 0.30479 0.05141 -0.30900
F 	F 	0.78140 0.06833 0.99801 -0.29600
C 	C 	0.80377 0.22442 0.06732 0.25200
C 	C 	0.77446 0.24614 0.07205 0.31200
C 	C 	0.76376 0.29190 0.03147 -0.15300
C 	C 	0.78394 0.31666 0.98638 0.33100
C 	C 	0.81319 0.29472 0.98165 0.27700
F 	F 	0.81314 0.17969 0.10665 -0.33100
F 	F 	0.77357 0.36057 0.94673 -0.31600
F 	F 	0.75663 0.22286 0.11619 -0.32200
F 	F 	0.83146 0.31812 0.93771 -0.29400
F 	F 	0.73951 0.14224 0.97546 -0.29900
F 	F 	0.00661 0.23131 0.07271 -0.32700
C 	C 	0.72777 0.53721 0.99680 0.27000
C 	C 	0.78845 0.57525 0.02972 -0.01400
C 	C 	0.83579 0.56018 0.05534 0.25100
C 	C 	0.81933 0.50370 0.05206 0.31200
C 	C 	0.75613 0.46280 0.02228 -0.15800
C 	C 	0.71291 0.48266 0.99178 0.32600
C 	C 	0.80209 0.63036 0.03782 -0.02200
F 	F 	0.89672 0.59909 0.08462 -0.31300
F 	F 	0.65355 0.44572 0.96036 -0.31100
C 	C 	0.81127 0.63047 0.08688 0.25400
C 	C 	0.83555 0.68726 0.09596 0.31500
C 	C 	0.85013 0.74387 0.05601 -0.18800
C 	C 	0.83012 0.73972 0.00584 0.27800
C 	C 	0.80874 0.68425 0.99692 0.28700
F 	F 	0.79977 0.57673 0.12609 -0.30300
F 	F 	0.83893 0.79249 0.96633 -0.36900
F 	F 	0.85115 0.68932 0.14436 -0.33300
F 	F 	0.79851 0.68446 0.94906 -0.31900
F 	F 	0.68181 0.55140 0.97141 -0.29600
F 	F 	0.86275 0.48647 0.08043 -0.32400
C 	C 	0.32043 0.07637 0.07745 0.22700
C 	C 	0.37750 0.13122 0.09736 0.00900
C 	C 	0.37095 0.15017 0.12757 0.23900
C 	C 	0.30799 0.11276 0.13928 0.33200
C 	C 	0.25130 0.05632 0.12071 -0.21100
C 	C 	0.25783 0.03928 0.08882 0.32400
C 	C 	0.44392 0.16883 0.08614 0.00100
F 	F 	0.42571 0.20411 0.14616 -0.30800
F 	F 	0.20390 0.98495 0.07050 -0.40900
C 	C 	0.45336 0.20626 0.03649 0.24200
C 	C 	0.51401 0.23765 0.02453 0.29400
C 	C 	0.56668 0.23346 0.06240 -0.13700
C 	C 	0.55628 0.19396 0.11158 0.30900
C 	C 	0.49504 0.16164 0.12340 0.25600
F 	F 	0.40375 0.21246 0.99989 -0.30500
F 	F 	0.60669 0.18934 0.14849 -0.31600
F 	F 	0.52314 0.27502 0.97666 -0.30200
F 	F 	0.48545 0.12357 0.17105 -0.30200
F 	F 	0.32614 0.05800 0.04793 -0.32500
F 	F 	0.30298 0.12976 0.17034 -0.34200
