data_crystal

_cell_length_a 42.06044
_cell_length_b 45.99258
_cell_length_c 22.33297
_cell_angle_alpha 89.86328
_cell_angle_beta  89.99987
_cell_angle_gamma 90.00000

_symmetry_space_group_name_	'P 1'
_symmetry_space_group_name_H-M	'P 1'

loop_
_symmetry_equiv_pos_as_xyz
  x,y,z

loop_
_atom_site_label
_atom_site_type_symbol
_atom_site_fract_x
_atom_site_fract_y
_atom_site_fract_z
_atom_site_charge
C 	C 	0.46819 0.56241 0.91492 0.10200
N 	N 	0.45561 0.53699 0.93334 -0.17200
C 	C 	0.42438 0.53809 0.92014 0.09800
C 	C 	0.40086 0.51736 0.94530 -0.07400
C 	C 	0.41058 0.48723 0.95926 0.09400
C 	C 	0.36716 0.52583 0.95114 0.02100
C 	C 	0.35682 0.54100 0.00187 -0.03500
C 	C 	0.32459 0.54759 0.00899 0.00400
C 	C 	0.30247 0.53906 0.96532 -0.03000
C 	C 	0.34523 0.51773 0.90699 -0.05600
N 	N 	0.43487 0.47369 0.93158 -0.13100
C 	C 	0.39525 0.46887 0.99898 -0.08300
C 	C 	0.43480 0.44640 0.95364 0.10100
C 	C 	0.46048 0.42523 0.94178 -0.09400
C 	C 	0.45394 0.39384 0.94783 0.08000
C 	C 	0.42769 0.35023 0.91223 0.00200
C 	C 	0.46588 0.37831 0.99701 -0.14700
C 	C 	0.45848 0.34886 0.00417 0.06700
C 	C 	0.43912 0.33472 0.96208 -0.05800
N 	N 	0.50473 0.46097 0.93374 -0.17400
C 	C 	0.53518 0.46001 0.91525 0.10100
C 	C 	0.54162 0.43364 0.88781 -0.06300
C 	C 	0.51365 0.41786 0.88971 -0.06500
C 	C 	0.55965 0.48089 0.93603 -0.08400
C 	C 	0.59347 0.47229 0.93908 0.05100
C 	C 	0.64831 0.48081 0.91025 -0.02700
C 	C 	0.65854 0.46101 0.95406 0.00100
C 	C 	0.63606 0.44607 0.98889 -0.04400
C 	C 	0.60362 0.45180 0.98164 -0.08300
N 	N 	0.52712 0.52542 0.91961 -0.13100
C 	C 	0.54844 0.55463 0.99007 -0.08400
C 	C 	0.52593 0.55191 0.94528 0.09600
C 	C 	0.49984 0.57281 0.93481 -0.08400
C 	C 	0.50657 0.60426 0.93842 0.05000
C 	C 	0.52629 0.61745 0.89567 -0.05900
C 	C 	0.53452 0.64675 0.90124 -0.02800
C 	C 	0.52330 0.66302 0.94991 0.00800
C 	C 	0.50309 0.64992 0.99216 -0.05300
C 	C 	0.49477 0.62063 0.98640 -0.08100
C 	C 	0.44487 0.57997 0.88994 -0.06400
C 	C 	0.41681 0.56439 0.89329 -0.06200
C 	C 	0.31304 0.52449 0.91379 -0.02300
C 	C 	0.41099 0.44268 0.99567 -0.08700
C 	C 	0.49154 0.43538 0.91819 0.10500
C 	C 	0.56454 0.52859 0.99174 -0.08500
C 	C 	0.55082 0.51139 0.94822 0.09600
C 	C 	0.61591 0.48639 0.90274 -0.06000
H 	H 	0.46539 0.52398 0.96706 0.09200
H 	H 	0.49653 0.47414 0.96855 0.09200
H 	H 	0.55000 0.65670 0.86825 0.04500
H 	H 	0.49394 0.66241 0.02944 0.06000
H 	H 	0.53548 0.60493 0.85847 0.05000
H 	H 	0.47950 0.61056 0.01958 0.06800
H 	H 	0.31675 0.55896 0.04877 0.04600
H 	H 	0.35312 0.50613 0.86753 0.04800
H 	H 	0.29634 0.51842 0.87908 0.03700
H 	H 	0.37368 0.54735 0.03611 0.05000
H 	H 	0.46757 0.33711 0.04261 0.03200
H 	H 	0.48062 0.38912 0.02993 0.08700
C 	C 	0.43490 0.37970 0.90542 -0.08600
H 	H 	0.41339 0.33940 0.87865 0.03200
H 	H 	0.66549 0.49215 0.88260 0.03900
H 	H 	0.60827 0.50211 0.86952 0.05000
H 	H 	0.58644 0.44082 0.00991 0.07100
H 	H 	0.64375 0.43058 0.02253 0.06700
H 	H 	0.44624 0.60340 0.88593 0.05000
H 	H 	0.39333 0.57400 0.89232 0.04800
H 	H 	0.37177 0.47213 0.01761 0.07200
H 	H 	0.40242 0.42211 0.01288 0.07400
H 	H 	0.56503 0.42423 0.88256 0.05000
H 	H 	0.51225 0.39442 0.88634 0.05100
H 	H 	0.54720 0.56993 0.02675 0.07100
H 	H 	0.57818 0.52064 0.02948 0.07200
H 	H 	0.42573 0.39156 0.86717 0.05600
Co	Co	0.41425 0.11324 0.95365 1.17700
Co	Co	0.43143 0.04751 0.93437 1.08600
O 	O 	0.40284 0.15513 0.97339 -0.36200
O 	O 	0.45185 0.14646 0.98926 -0.32600
O 	O 	0.37489 0.09477 0.92390 -0.40300
O 	O 	0.42418 0.06743 0.85668 -0.47200
C 	C 	0.36540 0.06913 0.94349 0.29600
C 	C 	0.42950 0.16559 0.99173 0.29200
O 	O 	0.38595 0.05044 0.96584 -0.44200
O 	O 	0.43870 0.11374 0.88016 -0.43600
C 	C 	0.43880 0.09173 0.84285 0.32300
O 	O 	0.41497 0.09581 0.03198 -0.41000
O 	O 	0.45440 0.06584 0.00182 -0.46600
C 	C 	0.43817 0.07796 0.04528 0.30300
C 	C 	0.52037 0.98038 0.42044 0.01100
C 	C 	0.50282 0.00672 0.41658 0.01100
C 	C 	0.54332 0.97681 0.46564 -0.05400
C 	C 	0.54807 0.99881 0.50840 0.01100
C 	C 	0.50869 0.02923 0.45749 -0.05500
C 	C 	0.53067 0.02523 0.50419 0.01000
H 	H 	0.49569 0.04949 0.45383 0.05100
H 	H 	0.55686 0.95682 0.46829 0.05100
C 	C 	0.53517 0.04675 0.54846 -0.01200
C 	C 	0.55387 0.04130 0.59940 0.00400
C 	C 	0.54456 0.05808 0.65015 -0.04500
C 	C 	0.51860 0.07637 0.63880 -0.01700
S 	S 	0.50771 0.07115 0.56776 -0.00200
H 	H 	0.55345 0.05427 0.69490 0.03800
C 	C 	0.56954 0.99504 0.55643 -0.01300
C 	C 	0.57159 0.01542 0.60294 0.01000
C 	C 	0.58349 0.00334 0.65735 -0.06000
C 	C 	0.59010 0.97356 0.65345 0.01400
S 	S 	0.58060 0.96293 0.58438 -0.01000
H 	H 	0.58364 0.01483 0.69953 0.04500
C 	C 	0.49018 0.96095 0.33530 0.00400
C 	C 	0.51305 0.95758 0.38052 -0.01400
S 	S 	0.53867 0.93217 0.35797 0.00100
C 	C 	0.52095 0.92313 0.29381 -0.02000
C 	C 	0.49449 0.94129 0.28677 -0.04500
C 	C 	0.47862 0.00922 0.37309 -0.01500
C 	C 	0.47296 0.98706 0.33128 0.00900
C 	C 	0.45805 0.99730 0.27794 -0.06000
C 	C 	0.45278 0.02735 0.27808 0.01400
S 	S 	0.46678 0.04050 0.34236 -0.00700
H 	H 	0.45509 0.98426 0.23813 0.04400
H 	H 	0.48141 0.94260 0.24518 0.03900
Co	Co	0.60495 0.87567 0.96391 1.17500
Co	Co	0.53164 0.88630 0.95590 1.08600
O 	O 	0.65269 0.86870 0.96065 -0.37500
O 	O 	0.64158 0.91395 0.95864 -0.31100
O 	O 	0.58503 0.83689 0.97035 -0.41100
O 	O 	0.54375 0.87291 0.03747 -0.45400
C 	C 	0.56128 0.82913 0.93545 0.29600
C 	C 	0.66380 0.89470 0.95693 0.28300
O 	O 	0.54266 0.84891 0.91129 -0.43700
O 	O 	0.59441 0.89046 0.04249 -0.42100
C 	C 	0.56686 0.88513 0.06791 0.32100
O 	O 	0.59556 0.88357 0.88120 -0.43000
O 	O 	0.55664 0.91476 0.90872 -0.48600
C 	C 	0.57699 0.90558 0.86845 0.30400
Co	Co	0.07346 0.62041 0.99708 1.16700
Co	Co	0.00167 0.61523 0.96399 1.08500
O 	O 	0.11987 0.62451 0.02088 -0.36500
O 	O 	0.10848 0.58082 0.99796 -0.33500
O 	O 	0.05559 0.65991 0.00269 -0.37400
O 	O 	0.02864 0.58668 0.92049 -0.49100
C 	C 	0.03684 0.67051 0.96088 0.27000
C 	C 	0.13032 0.59833 0.01623 0.30500
O 	O 	0.01907 0.65303 0.92849 -0.42900
O 	O 	0.07167 0.61580 0.91127 -0.44200
C 	C 	0.05323 0.59557 0.88928 0.33700
O 	O 	0.05501 0.60407 0.06894 -0.41700
O 	O 	0.00656 0.62447 0.05020 -0.45000
C 	C 	0.02567 0.60973 0.08555 0.29000
C 	C 	0.01153 0.50361 0.53255 0.01000
C 	C 	0.99592 0.47617 0.53257 0.01100
C 	C 	0.00414 0.52435 0.48831 -0.05500
C 	C 	0.98072 0.51834 0.44517 0.01200
C 	C 	0.97306 0.46992 0.48851 -0.05500
C 	C 	0.96496 0.49099 0.44547 0.01100
H 	H 	0.96134 0.44896 0.48824 0.05100
H 	H 	0.01620 0.54516 0.48795 0.05100
C 	C 	0.94026 0.48607 0.40387 -0.01400
C 	C 	0.93258 0.50664 0.35971 0.00400
C 	C 	0.91687 0.49427 0.30930 -0.04500
C 	C 	0.91268 0.46416 0.31420 -0.01900
S 	S 	0.92920 0.45350 0.37858 0.00100
H 	H 	0.91234 0.50598 0.26813 0.03900
C 	C 	0.97130 0.53956 0.40291 -0.01500
C 	C 	0.94831 0.53358 0.35910 0.01000
C 	C 	0.95070 0.55203 0.30795 -0.06100
C 	C 	0.97563 0.57208 0.31205 0.01400
S 	S 	0.99465 0.56596 0.37646 -0.00800
H 	H 	0.93746 0.54870 0.26704 0.04400
C 	C 	0.03992 0.48978 0.62439 0.00600
C 	C 	0.03443 0.50936 0.57724 -0.01300
S 	S 	0.04474 0.54245 0.60103 -0.00300
C 	C 	0.05833 0.53309 0.66869 -0.01800
C 	C 	0.05362 0.50317 0.67578 -0.04600
C 	C 	0.00356 0.45571 0.57767 -0.01300
C 	C 	0.02393 0.46296 0.62522 0.00700
C 	C 	0.01806 0.44642 0.67821 -0.04700
C 	C 	0.99303 0.42652 0.67208 -0.01600
S 	S 	0.97872 0.43013 0.60264 -0.00300
H 	H 	0.02852 0.45145 0.72118 0.03900
H 	H 	0.05685 0.49224 0.71826 0.04000
Co	Co	0.89066 0.37734 0.98436 1.17300
Co	Co	0.90021 0.44556 0.97818 1.08300
O 	O 	0.88277 0.33380 0.98529 -0.39700
O 	O 	0.92802 0.34435 0.02279 -0.30500
O 	O 	0.85171 0.39453 0.95027 -0.41000
O 	O 	0.92255 0.42681 0.04639 -0.47500
C 	C 	0.83751 0.41677 0.97586 0.26700
C 	C 	0.90808 0.32396 0.01040 0.31800
O 	O 	0.85436 0.43689 0.00308 -0.39400
O 	O 	0.88637 0.39153 0.06523 -0.42400
C 	C 	0.90655 0.41097 0.08486 0.33300
O 	O 	0.91792 0.38152 0.91520 -0.43200
O 	O 	0.90035 0.42760 0.89779 -0.47100
C 	C 	0.91942 0.40595 0.88465 0.31600
C 	C 	0.99842 0.93959 0.05162 0.11000
N 	N 	0.98502 0.96566 0.04060 -0.17500
C 	C 	0.95497 0.96413 0.06124 0.10900
C 	C 	0.92989 0.98490 0.04269 -0.09100
C 	C 	0.93704 0.01630 0.03934 0.13400
C 	C 	0.89684 0.97485 0.03365 0.07200
C 	C 	0.88952 0.95595 0.98640 -0.07900
C 	C 	0.85798 0.94772 0.97600 -0.05400
C 	C 	0.83354 0.95847 0.01259 0.05100
C 	C 	0.87252 0.98499 0.07114 -0.05500
N 	N 	0.96151 0.02869 0.06870 -0.13000
C 	C 	0.92433 0.03498 0.99710 -0.14600
C 	C 	0.96386 0.05574 0.04573 0.06400
C 	C 	0.99138 0.07493 0.05682 -0.06000
C 	C 	0.98713 0.10682 0.05398 0.03600
C 	C 	0.95878 0.15019 0.08495 -0.01900
C 	C 	0.00502 0.12350 0.01349 -0.03500
C 	C 	0.99969 0.15343 0.00855 -0.00300
C 	C 	0.97635 0.16684 0.04395 -0.00900
N 	N 	0.03452 0.03830 0.05000 -0.17300
C 	C 	0.06568 0.03800 0.06382 0.11100
C 	C 	0.07345 0.06189 0.09856 -0.06500
C 	C 	0.04562 0.07744 0.10611 -0.05700
C 	C 	0.08909 0.02000 0.03105 -0.09200
C 	C 	0.12143 0.03120 0.01924 0.09200
C 	C 	0.17844 0.02796 0.03427 0.02700
C 	C 	0.18316 0.05078 0.99339 -0.04800
C 	C 	0.15679 0.06400 0.96594 0.00000
C 	C 	0.12602 0.05428 0.97898 -0.10700
N 	N 	0.05871 0.97420 0.04505 -0.13600
C 	C 	0.07360 0.95034 0.96154 -0.08700
C 	C 	0.05434 0.95017 0.01165 0.12000
C 	C 	0.02783 0.92967 0.02133 -0.09300
C 	C 	0.03298 0.89845 0.00999 0.09300
C 	C 	0.04959 0.88153 0.05182 -0.08500
C 	C 	0.05454 0.85195 0.04131 0.02200
C 	C 	0.04340 0.83913 0.98824 -0.04800
C 	C 	0.02659 0.85610 0.94653 0.00500
C 	C 	0.02137 0.88566 0.95745 -0.10800
C 	C 	0.97685 0.92123 0.07955 -0.06300
C 	C 	0.94906 0.93695 0.08574 -0.06200
C 	C 	0.84103 0.97679 0.06079 -0.03600
C 	C 	0.94158 0.06034 0.00118 0.02200
C 	C 	0.02223 0.06229 0.07554 0.09800
C 	C 	0.09103 0.97565 0.96455 -0.08700
C 	C 	0.08147 0.98948 0.01643 0.11900
C 	C 	0.14773 0.01823 0.04712 -0.08500
H 	H 	0.99259 0.97999 0.00712 0.09800
H 	H 	0.02471 0.02786 0.01281 0.09700
H 	H 	0.06679 0.83896 0.07461 0.03500
H 	H 	0.01774 0.84644 0.90560 0.03600
H 	H 	0.05841 0.89126 0.09271 0.05900
H 	H 	0.00845 0.89863 0.92501 0.05300
H 	H 	0.85248 0.93345 0.93890 0.04900
H 	H 	0.87802 0.99937 0.10807 0.05200
H 	H 	0.82242 0.98478 0.08999 0.05000
H 	H 	0.90819 0.94796 0.95733 0.04600
H 	H 	0.01322 0.16607 0.97646 0.01700
H 	H 	0.02270 0.11321 0.98533 0.02400
C 	C 	0.96422 0.12033 0.09008 -0.05300
H 	H 	0.94079 0.16037 0.11257 0.04700
H 	H 	0.19859 0.01769 0.05591 0.04000
H 	H 	0.14436 0.00050 0.07853 0.06000
H 	H 	0.10582 0.06441 0.95724 0.05100
H 	H 	0.16015 0.08143 0.93385 0.03000
H 	H 	0.97808 0.89772 0.07933 0.05600
H 	H 	0.92573 0.92736 0.09120 0.05600
H 	H 	0.91114 0.02822 0.95790 0.06400
H 	H 	0.94382 0.07622 0.96558 0.01300
H 	H 	0.09706 0.07101 0.10289 0.05500
H 	H 	0.04462 0.10031 0.11720 0.05100
H 	H 	0.06887 0.93843 0.92075 0.04900
H 	H 	0.10178 0.98638 0.92639 0.05000
H 	H 	0.95043 0.10764 0.12169 0.05100
C 	C 	0.95459 0.25604 0.02761 0.08900
C 	C 	0.93118 0.23480 0.01774 0.10000
N 	N 	0.93880 0.20621 0.02229 -0.11300
C 	C 	0.96901 0.19789 0.03590 0.05600
C 	C 	0.99250 0.21915 0.04516 0.00200
N 	N 	0.98480 0.24782 0.04090 -0.10200
N 	N 	0.94675 0.28466 0.02467 -0.08600
N 	N 	0.90096 0.24299 0.00469 -0.11400
H 	H 	0.01656 0.21287 0.05659 0.04400
C 	C 	0.91642 0.29294 0.01173 -0.03900
C 	C 	0.89311 0.27163 0.00138 0.07800
H 	H 	0.86884 0.27781 0.99141 0.01900
C 	C 	0.97358 0.41681 0.72367 0.06000
C 	C 	0.94047 0.42077 0.72373 -0.09200
C 	C 	0.92288 0.41562 0.77565 0.04700
C 	C 	0.93808 0.40714 0.82882 -0.14900
C 	C 	0.97142 0.40219 0.82870 0.14300
C 	C 	0.98865 0.40620 0.77536 -0.12500
H 	H 	0.89741 0.41915 0.77509 0.02800
H 	H 	0.01410 0.40244 0.77495 0.06200
H 	H 	0.92838 0.42881 0.68424 0.05500
N 	N 	0.98717 0.39477 0.87976 -0.20800
H 	H 	0.97582 0.39431 0.92127 0.08200
H 	H 	0.01154 0.39038 0.87861 0.08400
C 	C 	0.91077 0.44527 0.26138 0.06400
C 	C 	0.88136 0.44051 0.23379 -0.09300
C 	C 	0.87986 0.42685 0.17809 0.04800
C 	C 	0.90783 0.41805 0.14905 -0.15200
C 	C 	0.93736 0.42049 0.17915 0.15500
C 	C 	0.93865 0.43466 0.23479 -0.12900
H 	H 	0.85709 0.42463 0.15587 0.03300
H 	H 	0.96137 0.43792 0.25671 0.06700
H 	H 	0.85972 0.44845 0.25441 0.05800
N 	N 	0.96431 0.40896 0.15536 -0.20900
H 	H 	0.96357 0.39604 0.11699 0.10300
H 	H 	0.98620 0.41179 0.17672 0.09100
C 	C 	0.02709 0.76157 0.95477 0.09200
C 	C 	0.05667 0.74874 0.96733 0.08500
N 	N 	0.05960 0.71936 0.96684 -0.09500
C 	C 	0.03426 0.70216 0.95337 -0.02900
C 	C 	0.00498 0.71507 0.93855 0.03700
N 	N 	0.00195 0.74452 0.93991 -0.11800
N 	N 	0.02348 0.79079 0.96021 -0.12000
N 	N 	0.08178 0.76574 0.98247 -0.10700
H 	H 	0.98452 0.70174 0.92810 0.02100
C 	C 	0.04838 0.80780 0.97733 0.05800
C 	C 	0.07833 0.79504 0.98712 -0.00700
H 	H 	0.09860 0.80833 0.99906 0.03500
C 	C 	0.05961 0.55323 0.71982 0.06500
C 	C 	0.03345 0.57088 0.73351 -0.09700
C 	C 	0.03275 0.58655 0.78699 0.05200
C 	C 	0.05808 0.58469 0.82777 -0.15500
C 	C 	0.08563 0.56854 0.81202 0.15800
C 	C 	0.08581 0.55252 0.75849 -0.13100
H 	H 	0.01181 0.59917 0.79806 0.00200
H 	H 	0.10625 0.53921 0.74730 0.06700
H 	H 	0.01302 0.57150 0.70400 0.05300
N 	N 	0.11178 0.56821 0.84781 -0.21100
H 	H 	0.11432 0.58271 0.88317 0.11000
H 	H 	0.13095 0.55457 0.83794 0.09400
C 	C 	0.01516 0.60206 0.14668 -0.06400
C 	C 	0.02779 0.57754 0.17559 -0.00900
C 	C 	0.01592 0.56875 0.23115 -0.03600
C 	C 	0.99133 0.58440 0.25877 -0.02700
C 	C 	0.97958 0.61003 0.23134 0.07900
C 	C 	0.99150 0.61855 0.17518 -0.04900
H 	H 	0.02506 0.54912 0.25183 0.04300
H 	H 	0.98233 0.63800 0.15375 0.05400
H 	H 	0.04613 0.56472 0.15414 0.04500
N 	N 	0.95704 0.62655 0.25868 -0.19600
H 	H 	0.94889 0.62165 0.30169 0.08900
H 	H 	0.94795 0.64506 0.23747 0.08600
C 	C 	0.76038 0.91540 0.98548 0.09100
C 	C 	0.73749 0.93742 0.97893 0.08700
N 	N 	0.70658 0.93027 0.96970 -0.09400
C 	C 	0.69747 0.90190 0.96674 -0.02900
C 	C 	0.72045 0.87986 0.97274 0.03900
N 	N 	0.75144 0.88707 0.98212 -0.11500
N 	N 	0.79123 0.92257 0.99574 -0.11400
N 	N 	0.74639 0.96574 0.98227 -0.11000
H 	H 	0.71371 0.85718 0.97004 0.04100
C 	C 	0.80014 0.95097 0.99989 0.01500
C 	C 	0.77726 0.97297 0.99245 0.00800
H 	H 	0.78405 0.99565 0.99473 0.03000
C 	C 	0.58040 0.92120 0.81117 -0.07100
C 	C 	0.55370 0.93386 0.78409 -0.00400
C 	C 	0.55697 0.95007 0.73160 -0.04200
C 	C 	0.58701 0.95404 0.70550 -0.02500
C 	C 	0.61401 0.94059 0.73151 0.07900
C 	C 	0.61043 0.92424 0.78441 -0.04000
H 	H 	0.53616 0.96005 0.71164 0.03700
H 	H 	0.63109 0.91439 0.80524 0.05700
H 	H 	0.53037 0.93127 0.80394 0.01400
N 	N 	0.64330 0.94336 0.70627 -0.19500
H 	H 	0.64666 0.95484 0.66638 0.09100
H 	H 	0.66313 0.93366 0.72623 0.08900
C 	C 	0.53866 0.91179 0.24229 0.06400
C 	C 	0.55550 0.93089 0.20500 -0.09300
C 	C 	0.56710 0.92134 0.14987 0.04500
C 	C 	0.56192 0.89261 0.13134 -0.15000
C 	C 	0.54791 0.87248 0.17164 0.15600
C 	C 	0.53566 0.88248 0.22642 -0.13000
H 	H 	0.57851 0.93675 0.12002 0.02500
H 	H 	0.52343 0.86755 0.25619 0.06600
H 	H 	0.55825 0.95351 0.21746 0.05600
N 	N 	0.54689 0.84362 0.15867 -0.20900
H 	H 	0.55894 0.83515 0.12173 0.11100
H 	H 	0.53533 0.82910 0.18740 0.09200
C 	C 	0.26847 0.04651 0.95315 0.09200
C 	C 	0.27799 0.07567 0.95860 0.08500
N 	N 	0.30924 0.08275 0.95312 -0.09100
C 	C 	0.33142 0.06175 0.94290 -0.03600
C 	C 	0.32170 0.03270 0.93609 0.04100
N 	N 	0.29044 0.02568 0.94136 -0.12000
N 	N 	0.23764 0.03914 0.96255 -0.12200
N 	N 	0.25613 0.09634 0.97239 -0.10600
H 	H 	0.33898 0.01580 0.92723 0.01700
C 	C 	0.21576 0.05971 0.97736 0.05800
C 	C 	0.22520 0.08896 0.98189 -0.00600
H 	H 	0.20819 0.10555 0.99437 0.03800
C 	C 	0.49614 0.08516 0.68635 0.06200
C 	C 	0.50748 0.09990 0.73688 -0.09400
C 	C 	0.48773 0.10420 0.78635 0.04400
C 	C 	0.45629 0.09399 0.78578 -0.15500
C 	C 	0.44366 0.08213 0.73237 0.15300
C 	C 	0.46402 0.07678 0.68378 -0.13000
H 	H 	0.49741 0.11406 0.82641 0.02300
H 	H 	0.45488 0.06584 0.64447 0.06500
H 	H 	0.53202 0.10700 0.73879 0.05400
N 	N 	0.41201 0.07670 0.72693 -0.20900
H 	H 	0.39581 0.08396 0.75902 0.10400
H 	H 	0.40308 0.06665 0.68851 0.08700
C 	C 	0.44365 0.06896 0.10788 -0.06600
C 	C 	0.41873 0.06990 0.14959 -0.00400
C 	C 	0.42265 0.05786 0.20656 -0.03500
C 	C 	0.45148 0.04475 0.22269 -0.02600
C 	C 	0.47760 0.04575 0.18246 0.07900
C 	C 	0.47325 0.05757 0.12497 -0.04900
H 	H 	0.40277 0.05766 0.23743 0.04500
H 	H 	0.49290 0.05778 0.09354 0.05100
H 	H 	0.39587 0.07894 0.13715 0.05200
N 	N 	0.50677 0.03568 0.19879 -0.19600
H 	H 	0.51159 0.02914 0.24261 0.09100
H 	H 	0.52544 0.03538 0.16792 0.08500
C 	C 	0.44927 0.25549 0.98704 0.09600
C 	C 	0.41808 0.24525 0.97906 0.08300
N 	N 	0.41208 0.21626 0.98184 -0.08600
C 	C 	0.43604 0.19701 0.99247 -0.05900
C 	C 	0.46710 0.20738 0.00193 0.09400
N 	N 	0.47309 0.23640 0.99875 -0.13200
N 	N 	0.45549 0.28435 0.98190 -0.12200
N 	N 	0.39425 0.26436 0.96751 -0.10400
H 	H 	0.48638 0.19243 0.01112 0.04100
C 	C 	0.43174 0.30353 0.96922 0.06300
C 	C 	0.40040 0.29332 0.96279 -0.00700
H 	H 	0.38110 0.30834 0.95416 0.04000
C 	C 	0.22794 0.57930 0.99732 0.07200
C 	C 	0.20486 0.55770 0.98809 0.08800
N 	N 	0.17358 0.56421 0.99485 -0.10800
C 	C 	0.16435 0.59152 0.01068 -0.01000
C 	C 	0.18753 0.61301 0.02069 0.04100
N 	N 	0.21885 0.60647 0.01362 -0.09600
N 	N 	0.25919 0.57290 0.98973 -0.11900
N 	N 	0.21396 0.53045 0.97237 -0.10900
H 	H 	0.18067 0.63478 0.03375 0.04900
C 	C 	0.26839 0.54566 0.97332 0.05200
C 	C 	0.24526 0.52394 0.96509 -0.00400
H 	H 	0.25220 0.50200 0.95339 0.03700
C 	C 	0.73800 0.42637 0.96055 0.09200
C 	C 	0.75710 0.44965 0.97962 0.08200
N 	N 	0.78900 0.44600 0.98488 -0.10300
C 	C 	0.80276 0.42001 0.97146 -0.03000
C 	C 	0.78355 0.39664 0.95294 0.03900
N 	N 	0.75157 0.40032 0.94786 -0.11400
N 	N 	0.70620 0.43027 0.95364 -0.11700
N 	N 	0.74362 0.47583 0.99142 -0.11300
H 	H 	0.79397 0.37571 0.94279 0.04000
C 	C 	0.69272 0.45664 0.96465 0.04300
C 	C 	0.71180 0.47980 0.98432 -0.00200
H 	H 	0.70136 0.50083 0.99358 0.03300
C 	C 	0.53628 0.74095 0.91520 0.09400
C 	C 	0.55183 0.75057 0.96719 0.06700
N 	N 	0.56051 0.77890 0.97216 -0.09400
C 	C 	0.55394 0.79816 0.92744 -0.03900
C 	C 	0.53862 0.78843 0.87524 0.04000
N 	N 	0.53016 0.76000 0.87014 -0.11700
N 	N 	0.52711 0.71274 0.91064 -0.11400
N 	N 	0.55750 0.73160 0.01265 -0.09500
H 	H 	0.53345 0.80340 0.83904 0.03300
C 	C 	0.53259 0.69372 0.95630 0.01800
C 	C 	0.54819 0.70336 0.00825 0.03200
H 	H 	0.55313 0.68839 0.04458 0.03800
