data_crystal

_cell_length_a 16.41580
_cell_length_b 16.13290
_cell_length_c 36.76189
_cell_angle_alpha 89.87218
_cell_angle_beta  89.87536
_cell_angle_gamma 119.40338

_symmetry_space_group_name_	'P 1'
_symmetry_space_group_name_H-M	'P 1'

loop_
_symmetry_equiv_pos_as_xyz
  x,y,z

loop_
_atom_site_label
_atom_site_type_symbol
_atom_site_fract_x
_atom_site_fract_y
_atom_site_fract_z
_atom_site_charge
Ni	Ni	0.05524 0.92879 0.77347 1.11500
Ni	Ni	0.06349 0.13598 0.76779 1.11900
O 	O 	0.02450 0.16594 0.19011 -0.36500
C 	C 	0.07181 0.19206 0.10623 -0.09300
F 	F 	0.07100 0.25376 0.04723 -0.45300
H 	H 	0.02714 0.37073 0.59594 0.11600
H 	H 	0.07647 0.41247 0.41826 0.11700
C 	C 	0.15288 0.51121 0.94405 -0.03800
C 	C 	0.14356 0.51509 0.98201 -0.06300
C 	C 	0.07194 0.43457 0.00023 0.11700
H 	H 	0.21147 0.56914 0.93004 0.08300
C 	C 	0.07243 0.13761 0.16987 0.35300
C 	C 	0.07418 0.20672 0.27009 0.32400
C 	C 	0.04363 0.86418 0.19738 0.33000
C 	C 	0.03169 0.91201 0.29749 0.31100
Ni	Ni	0.09549 0.04570 0.23575 1.13700
O 	O 	0.09295 0.07366 0.18214 -0.34800
C 	C 	0.11958 0.25246 0.07681 0.34300
C 	C 	0.12139 0.19242 0.13733 -0.12500
C 	C 	0.03011 0.75216 0.14802 -0.10500
C 	C 	0.06000 0.69394 0.13127 0.34800
H 	H 	0.01461 0.33596 0.27866 0.10700
C 	C 	0.00123 0.74182 0.37310 0.32500
C 	C 	0.03826 0.87831 0.33441 -0.11200
C 	C 	0.06856 0.40784 0.52709 -0.05600
C 	C 	0.07963 0.42744 0.48968 -0.07300
N 	N 	0.01041 0.38389 0.43023 -0.20300
O 	O 	0.10704 0.99174 0.82303 -0.38800
O 	O 	0.15868 0.14438 0.72995 -0.32700
O 	O 	0.09291 0.00069 0.28725 -0.30200
C 	C 	0.06835 0.79544 0.18142 -0.10900
C 	C 	0.07993 0.35605 0.29244 -0.08400
F 	F 	0.07915 0.49315 0.31614 -0.42200
H 	H 	0.09517 0.49809 0.05167 0.13300
H 	H 	0.15705 0.48117 0.87437 0.11900
C 	C 	0.08900 0.43113 0.92441 0.14000
N 	N 	0.09961 0.42674 0.88795 -0.20000
C 	C 	0.12221 0.44005 0.31280 0.34400
N 	N 	0.05757 0.43623 0.03658 -0.19700
C 	C 	0.12120 0.29753 0.29032 -0.10300
H 	H 	0.05160 0.36786 0.87304 0.11700
H 	H 	0.12970 0.43619 0.54443 0.06200
O 	O 	0.18352 0.02940 0.75395 -0.36000
C 	C 	0.17002 0.08291 0.82428 0.34200
C 	C 	0.19026 0.08404 0.72675 0.36600
O 	O 	0.15360 0.15034 0.81010 -0.33700
C 	C 	0.13391 0.74991 0.40765 0.33900
C 	C 	0.15885 0.51838 0.47775 0.28600
O 	O 	0.15029 0.59563 0.48151 -0.35500
C 	C 	0.17992 0.64142 0.12592 0.35800
C 	C 	0.22431 0.58716 0.00231 0.29600
O 	O 	0.21813 0.65498 0.02024 -0.33900
O 	O 	0.18142 0.64757 0.09084 -0.36500
O 	O 	0.10302 0.92985 0.21969 -0.32800
O 	O 	0.12649 0.18144 0.25014 -0.31300
C 	C 	0.21530 0.31925 0.07989 -0.12700
C 	C 	0.21888 0.24496 0.13715 0.35100
C 	C 	0.13049 0.68046 0.14742 -0.13000
C 	C 	0.08378 0.79642 0.39267 -0.11300
C 	C 	0.11108 0.93651 0.35824 0.34300
F 	F 	0.16410 0.13651 0.65543 -0.43100
H 	H 	0.20457 0.02262 0.88811 0.10900
C 	C 	0.13178 0.77407 0.19925 0.34600
C 	C 	0.13282 0.89546 0.38755 -0.08700
C 	C 	0.23851 0.53954 0.35954 0.34700
O 	O 	0.16711 0.77092 0.44166 -0.36000
O 	O 	0.16412 0.70867 0.38429 -0.34700
O 	O 	0.24443 0.51251 0.39302 -0.39000
O 	O 	0.24220 0.52458 0.47189 -0.36800
H 	H 	0.20997 0.62544 0.42135 0.17000
C 	C 	0.24691 0.41713 0.06693 0.33800
O 	O 	0.22319 0.46816 0.08687 -0.38000
O 	O 	0.30593 0.59827 0.99371 -0.37300
C 	C 	0.26556 0.30742 0.10863 -0.10800
C 	C 	0.16317 0.71762 0.18214 -0.07600
C 	C 	0.20637 0.46667 0.33103 -0.10800
C 	C 	0.20764 0.32662 0.30731 0.34700
F 	F 	0.16300 0.03162 0.35230 -0.40600
C 	C 	0.25165 0.09321 0.69586 -0.11100
C 	C 	0.23909 0.12442 0.66169 0.34600
H 	H 	0.02616 0.82126 0.85765 0.09200
Ni	Ni	0.25669 0.73069 0.46868 1.11600
Ni	Ni	0.30079 0.72545 0.06343 1.12300
O 	O 	0.22065 0.59926 0.14201 -0.35800
O 	O 	0.31561 0.45857 0.04226 -0.37000
F 	F 	0.26827 0.24157 0.16617 -0.43100
F 	F 	0.16306 0.80801 0.23312 -0.41100
C 	C 	0.25029 0.41123 0.32719 -0.07400
F 	F 	0.24846 0.27111 0.30584 -0.40800
H 	H 	0.19370 0.93921 0.40389 0.09900
C 	C 	0.26742 0.06603 0.87240 -0.08200
C 	C 	0.26242 0.10942 0.83993 -0.12200
H 	H 	0.21573 0.70598 0.19528 0.12000
O 	O 	0.27734 0.63137 0.34986 -0.32600
O 	O 	0.27438 0.67588 0.42622 -0.71900
Ni	Ni	0.32243 0.57466 0.11773 1.11700
H 	H 	0.33918 0.35498 0.11160 0.10300
H 	H 	0.29825 0.01645 0.45343 0.06000
H 	H 	0.30019 0.14969 0.48329 0.10500
H 	H 	0.32160 0.54683 0.54688 0.06100
H 	H 	0.31083 0.41584 0.58134 0.10500
C 	C 	0.32420 0.07170 0.70053 -0.07500
C 	C 	0.30561 0.14583 0.63423 -0.08400
H 	H 	0.33234 0.04338 0.72617 0.12300
H 	H 	0.29940 0.17693 0.60894 0.09100
H 	H 	0.37211 0.28030 0.00386 0.11100
Ni	Ni	0.30000 0.74476 0.38208 1.13100
O 	O 	0.01586 0.88821 0.72039 -0.35200
Ni	Ni	0.33316 0.60019 0.43008 1.12300
O 	O 	0.33345 0.70075 0.50728 -0.35800
O 	O 	0.35136 0.64394 0.07280 -0.70400
H 	H 	0.31552 0.43150 0.34112 0.11400
C 	C 	0.35347 0.07880 0.88484 0.34500
C 	C 	0.34387 0.16114 0.81897 0.34500
F 	F 	0.34049 0.20166 0.78702 -0.43300
O 	O 	0.32550 0.87362 0.40171 -0.36700
O 	O 	0.37106 0.79990 0.11009 -0.35300
N 	N 	0.38313 0.44320 0.57968 -0.19800
H 	H 	0.39488 0.36681 0.05798 0.06800
F 	F 	0.35784 0.04179 0.91750 -0.42600
O 	O 	0.37245 0.86298 0.45895 -0.37000
Ni	Ni	0.39405 0.60470 0.03137 1.12200
O 	O 	0.40266 0.81531 0.02996 -0.36700
N 	N 	0.37328 0.18653 0.48301 -0.19800
C 	C 	0.39697 0.57717 0.54625 -0.03100
C 	C 	0.38564 0.13783 0.64094 -0.12000
C 	C 	0.39014 0.09257 0.67294 0.35100
C 	C 	0.37356 0.05824 0.45064 -0.03400
C 	C 	0.40723 0.69255 0.49901 0.31200
C 	C 	0.37747 0.91420 0.43040 0.30500
H 	H 	0.41186 0.40592 0.59267 0.10700
F 	F 	0.02168 0.65196 0.09908 -0.43900
F 	F 	0.02260 0.71200 0.91086 -0.43000
N 	N 	0.44239 0.32335 0.99675 -0.19600
O 	O 	0.42038 0.52452 0.11035 -0.36100
H 	H 	0.41521 0.69249 0.07816 0.13500
H 	H 	0.40802 0.25463 0.49429 0.10200
F 	F 	0.03049 0.74524 0.69161 -0.43100
C 	C 	0.00875 0.36096 0.94208 -0.10700
O 	O 	0.40993 0.70045 0.14377 -0.35000
C 	C 	0.01188 0.35370 0.97993 -0.03300
C 	C 	0.42170 0.14824 0.46691 0.12100
C 	C 	0.42929 0.17134 0.83094 -0.08700
O 	O 	0.42928 0.69158 0.46499 -0.38600
C 	C 	0.43796 0.52663 0.56196 0.10700
O 	O 	0.43351 0.65395 0.39061 -0.36200
C 	C 	0.43239 0.78501 0.12972 0.32000
C 	C 	0.42321 0.01822 0.43414 -0.07900
C 	C 	0.43585 0.13593 0.86512 -0.11400
H 	H 	0.46441 0.31286 0.97136 0.11400
O 	O 	0.43707 0.79638 0.38599 -0.39900
C 	C 	0.45196 0.66233 0.52703 -0.09600
F 	F 	0.46400 0.07852 0.67894 -0.42700
H 	H 	0.00471 0.37647 0.04977 0.12800
F 	F 	0.46045 0.67748 0.30769 -0.42800
C 	C 	0.46783 0.40918 0.05224 -0.04500
C 	C 	0.47274 0.20333 0.62221 0.33000
C 	C 	0.47509 0.74358 0.37980 0.36100
C 	C 	0.48304 0.81654 0.02645 0.28800
O 	O 	0.48528 0.73992 0.01449 -0.35800
C 	C 	0.48506 0.55061 0.08438 0.31600
H 	H 	0.49213 0.21466 0.81521 0.10600
C 	C 	0.00049 0.38151 0.46696 0.10300
O 	O 	0.50125 0.29523 0.62548 -0.37200
C 	C 	0.50197 0.39298 0.01962 0.11400
O 	O 	0.49902 0.61816 0.06209 -0.39700
F 	F 	0.50292 0.93358 0.18289 -0.42300
H 	H 	0.51060 0.97043 0.06584 0.06900
C 	C 	0.52023 0.19545 0.46833 -0.08100
C 	C 	0.52061 0.07524 0.42856 0.12400
O 	O 	0.00010 0.15495 0.72390 -0.36900
H 	H 	0.99660 0.14686 0.10511 0.11000
O 	O 	0.97801 0.84743 0.27300 -0.34500
C 	C 	0.97812 0.78279 0.34421 -0.05400
O 	O 	0.98240 0.16558 0.26564 -0.34700
O 	O 	0.95769 0.84919 0.19436 -0.36500
F 	F 	0.94872 0.64702 0.37964 -0.41300
O 	O 	0.96465 0.99873 0.24054 -0.72300
H 	H 	0.96114 0.00900 0.26675 0.17700
C 	C 	0.97877 0.36358 0.54278 0.14300
N 	N 	0.96857 0.34750 0.57922 -0.19600
H 	H 	0.97879 0.76530 0.13461 0.12000
H 	H 	0.91693 0.73865 0.32799 0.10700
O 	O 	0.99236 0.00052 0.77415 -0.69800
H 	H 	0.98208 0.00217 0.80052 0.15300
C 	C 	0.52392 0.18824 0.88513 0.34400
C 	C 	0.83506 0.55828 0.91994 0.36400
C 	C 	0.74943 0.33178 0.83903 0.36200
C 	C 	0.63936 0.41920 0.98236 0.30400
C 	C 	0.91936 0.34184 0.92707 0.33500
C 	C 	0.71012 0.17388 0.98094 0.30500
Ni	Ni	0.66404 0.38831 0.89944 1.11700
Ni	Ni	0.79500 0.38725 0.96428 1.12600
Ni	Ni	0.72384 0.22596 0.90443 1.12700
O 	O 	0.53729 0.26630 0.90159 -0.37400
O 	O 	0.59504 0.17130 0.87808 -0.35200
O 	O 	0.89764 0.40845 0.93056 -0.37200
O 	O 	0.79796 0.49857 0.89352 -0.36300
O 	O 	0.82741 0.52568 0.95334 -0.35500
O 	O 	0.67058 0.14604 0.94858 -0.36500
O 	O 	0.67869 0.34591 0.84638 -0.35400
O 	O 	0.79468 0.32249 0.86585 -0.38100
O 	O 	0.77992 0.26295 0.98692 -0.37100
O 	O 	0.64002 0.44686 0.94768 -0.35900
O 	O 	0.68842 0.37884 0.99309 -0.37900
O 	O 	0.85227 0.25394 0.92208 -0.36900
O 	O 	0.70299 0.31840 0.92849 -0.71400
H 	H 	0.64708 0.27819 0.94332 0.18300
C 	C 	0.57778 0.50141 0.56546 0.29300
C 	C 	0.72080 0.27364 0.64513 0.36300
C 	C 	0.81235 0.56517 0.59865 0.34800
C 	C 	0.81637 0.33734 0.53509 0.31900
C 	C 	0.56721 0.24789 0.50136 0.29500
Ni	Ni	0.63988 0.39832 0.62204 1.12100
Ni	Ni	0.63505 0.23046 0.57310 1.12500
Ni	Ni	0.70589 0.43499 0.53753 1.12500
O 	O 	0.60976 0.50105 0.59900 -0.32700
O 	O 	0.60135 0.46715 0.53684 -0.37000
O 	O 	0.73597 0.25745 0.53577 -0.37900
O 	O 	0.66714 0.30883 0.65548 -0.33900
O 	O 	0.73591 0.26738 0.61068 -0.38500
O 	O 	0.64454 0.33294 0.49802 -0.36600
O 	O 	0.78159 0.48835 0.61821 -0.36000
O 	O 	0.77882 0.56015 0.56574 -0.34700
O 	O 	0.54477 0.19880 0.53226 -0.38000
O 	O 	0.53105 0.17183 0.61204 -0.34500
O 	O 	0.81958 0.41916 0.54107 -0.37100
O 	O 	0.63793 0.34905 0.57591 -0.71900
H 	H 	0.57349 0.32987 0.56844 0.16200
C 	C 	0.92855 0.83940 0.71010 0.35800
C 	C 	0.88395 0.81486 0.81766 0.32700
C 	C 	0.91061 0.10223 0.71595 0.33500
C 	C 	0.88393 0.11703 0.79324 0.30500
Ni	Ni	0.86167 0.93623 0.76225 1.12700
O 	O 	0.87089 0.00862 0.71637 -0.33600
O 	O 	0.86001 0.82880 0.73200 -0.35600
O 	O 	0.97511 0.15709 0.80027 -0.36700
O 	O 	0.83126 0.02312 0.79210 -0.30900
O 	O 	0.94085 0.80813 0.79421 -0.34900
O 	O 	0.83129 0.85194 0.80749 -0.31800
C 	C 	0.77363 0.92250 0.27895 0.34500
C 	C 	0.78617 0.90775 0.18080 0.36700
Ni	Ni	0.91417 0.07246 0.22345 1.12100
Ni	Ni	0.89177 0.86401 0.23764 1.12800
O 	O 	0.78930 0.98846 0.25346 -0.36000
O 	O 	0.81852 0.87320 0.27957 -0.37100
O 	O 	0.86053 0.99030 0.17793 -0.37900
O 	O 	0.78179 0.84659 0.20562 -0.36700
C 	C 	0.64420 0.92597 0.18066 -0.08400
C 	C 	0.70019 0.89409 0.16342 -0.14000
C 	C 	0.67865 0.85864 0.12803 0.35100
C 	C 	0.59515 0.84289 0.11211 -0.10200
C 	C 	0.53059 0.85831 0.13215 -0.12500
C 	C 	0.56072 0.91047 0.16450 0.34300
H 	H 	0.66378 0.96025 0.20690 0.09700
H 	H 	0.57415 0.80422 0.08686 0.08100
F 	F 	0.73587 0.83437 0.10981 -0.44500
C 	C 	0.60844 0.80977 0.29234 -0.08400
C 	C 	0.69240 0.88950 0.30289 -0.11900
C 	C 	0.70632 0.91626 0.33961 0.34000
C 	C 	0.63856 0.86181 0.36560 -0.08200
C 	C 	0.55554 0.78073 0.35518 -0.13300
C 	C 	0.54123 0.75449 0.31839 0.34800
H 	H 	0.59752 0.78767 0.26412 0.10700
H 	H 	0.64910 0.88449 0.39375 0.09200
F 	F 	0.78746 0.99280 0.35031 -0.43600
C 	C 	0.56860 0.16437 0.44564 -0.03600
H 	H 	0.64434 0.20444 0.44441 0.06500
N 	N 	0.56833 0.04421 0.40752 -0.19800
H 	H 	0.53326 0.98219 0.39219 0.11600
H 	H 	0.64101 0.08453 0.40497 0.11500
C 	C 	0.91065 0.33767 0.48256 -0.01600
C 	C 	0.90008 0.33780 0.52038 -0.09800
H 	H 	0.84960 0.31114 0.46523 0.05900
H 	H 	0.90245 0.30762 0.59091 0.13300
H 	H 	0.95174 0.35380 0.41337 0.12800
C 	C 	0.59104 0.65200 0.54226 -0.03600
C 	C 	0.53548 0.56235 0.55828 -0.05800
C 	C 	0.55037 0.70380 0.52783 0.12900
N 	N 	0.60598 0.79265 0.51421 -0.19900
H 	H 	0.66575 0.67973 0.53951 0.09500
H 	H 	0.67858 0.82164 0.51348 0.11100
H 	H 	0.57787 0.83514 0.50568 0.11000
C 	C 	0.71415 0.14696 0.68537 -0.08800
C 	C 	0.76464 0.24043 0.67202 -0.11900
C 	C 	0.86218 0.29070 0.67590 0.34400
C 	C 	0.90945 0.24510 0.68959 -0.08900
C 	C 	0.85961 0.14906 0.70048 -0.11800
C 	C 	0.76109 0.10130 0.69958 0.34600
F 	F 	0.71074 0.01099 0.71244 -0.41600
H 	H 	0.63877 0.10775 0.68284 0.13900
H 	H 	0.98503 0.28426 0.69124 0.11400
F 	F 	0.91180 0.38221 0.66419 -0.42800
C 	C 	0.93846 0.67594 0.63893 -0.08600
C 	C 	0.86085 0.65702 0.61748 -0.12300
C 	C 	0.81403 0.70920 0.62347 0.34200
C 	C 	0.83622 0.76897 0.65371 -0.08300
C 	C 	0.90716 0.77937 0.67749 -0.12000
C 	C 	0.96061 0.73521 0.66919 0.36200
H 	H 	0.97639 0.63776 0.63412 0.12000
H 	H 	0.79744 0.80609 0.65888 0.10900
F 	F 	0.74321 0.69739 0.60141 -0.44200
H 	H 	0.95642 0.29236 0.99369 0.08900
C 	C 	0.71080 0.02612 0.99729 -0.01200
C 	C 	0.69163 0.09873 0.00764 -0.09500
C 	C 	0.62647 0.08029 0.03578 0.13500
C 	C 	0.56577 0.98574 0.04627 -0.04900
C 	C 	0.57031 0.91047 0.02886 -0.07600
C 	C 	0.65151 0.93164 0.00854 0.11500
N 	N 	0.67734 0.86466 0.00275 -0.19600
H 	H 	0.76764 0.04197 0.97849 0.06700
N 	N 	0.61873 0.15235 0.05142 -0.20200
H 	H 	0.73228 0.87838 0.98493 0.11700
H 	H 	0.65123 0.80389 0.01909 0.12600
H 	H 	0.66549 0.22327 0.04492 0.11200
H 	H 	0.56761 0.13807 0.07119 0.11400
C 	C 	0.52415 0.48917 0.07371 -0.09500
C 	C 	0.62163 0.53356 0.06853 0.13000
C 	C 	0.65745 0.51735 0.03619 -0.04100
C 	C 	0.59750 0.44946 0.01094 -0.09000
H 	H 	0.73224 0.55546 0.03117 0.06900
N 	N 	0.68050 0.59740 0.09315 -0.19800
H 	H 	0.65480 0.60959 0.11741 0.12800
H 	H 	0.75270 0.63372 0.08862 0.12700
C 	C 	0.69926 0.19472 0.79929 -0.09000
C 	C 	0.75761 0.29275 0.80408 -0.12400
C 	C 	0.84832 0.33269 0.78934 0.35100
C 	C 	0.89052 0.27553 0.78556 -0.09400
C 	C 	0.83759 0.17693 0.79190 -0.11000
C 	C 	0.73937 0.13576 0.79551 0.33700
F 	F 	0.68357 0.03991 0.79684 -0.40400
H 	H 	0.62511 0.16300 0.80489 0.11100
H 	H 	0.96408 0.30802 0.77871 0.10300
F 	F 	0.90155 0.42860 0.78637 -0.41400
C 	C 	0.78474 0.67425 0.90409 -0.08900
C 	C 	0.85852 0.65719 0.91312 -0.12700
C 	C 	0.94802 0.71997 0.89963 0.35800
C 	C 	0.95825 0.78016 0.87039 -0.07600
C 	C 	0.87919 0.77963 0.85534 -0.11600
C 	C 	0.79371 0.73249 0.87422 0.34200
F 	F 	0.71774 0.73647 0.86200 -0.42200
H 	H 	0.71660 0.63153 0.91650 0.09200
