data_crystal

_cell_length_a 30.70163
_cell_length_b 30.98515
_cell_length_c 26.71427
_cell_angle_alpha 95.52880
_cell_angle_beta  95.52018
_cell_angle_gamma 125.56314

_symmetry_space_group_name_	'P 1'
_symmetry_space_group_name_H-M	'P 1'

loop_
_symmetry_equiv_pos_as_xyz
  x,y,z

loop_
_atom_site_label
_atom_site_type_symbol
_atom_site_fract_x
_atom_site_fract_y
_atom_site_fract_z
_atom_site_charge
C 	C 	0.06197 0.03659 0.97159 0.14000
N 	N 	0.04042 0.06422 0.97689 -0.13600
C 	C 	0.29936 0.14810 0.47512 0.00600
C 	C 	0.27646 0.17069 0.49924 -0.03000
C 	C 	0.21984 0.14096 0.49414 -0.03600
C 	C 	0.18586 0.08851 0.46498 0.01700
C 	C 	0.20868 0.06558 0.44161 -0.03600
C 	C 	0.26522 0.09525 0.44662 -0.03200
C 	C 	0.12756 0.05826 0.45856 0.01000
C 	C 	0.07860 0.03183 0.45256 -0.03500
H 	H 	0.20245 0.15883 0.51251 0.04900
H 	H 	0.18261 0.02497 0.41916 0.05000
H 	H 	0.28248 0.07757 0.42763 0.04700
C 	C 	0.31494 0.18596 0.97292 -0.03200
C 	C 	0.26046 0.16389 0.97451 -0.03600
C 	C 	0.21946 0.10913 0.95431 0.01700
C 	C 	0.23300 0.07681 0.93141 -0.03500
C 	C 	0.28745 0.09881 0.92983 -0.03200
C 	C 	0.16403 0.08520 0.96002 0.01200
C 	C 	0.11751 0.06388 0.96517 -0.03300
H 	H 	0.25028 0.18911 0.99227 0.05000
H 	H 	0.20148 0.03444 0.91566 0.05200
H 	H 	0.29766 0.07337 0.91273 0.05100
C 	C 	0.32871 0.15331 0.95117 0.00800
N 	N 	0.99369 0.02154 0.44110 -0.13800
C 	C 	0.98807 0.03822 0.98378 0.13700
C 	C 	0.90949 0.01490 0.42834 -0.01700
C 	C 	0.93100 0.06103 0.40605 -0.01700
C 	C 	0.90591 0.08690 0.40519 -0.04500
C 	C 	0.85899 0.06687 0.42644 0.01600
C 	C 	0.83654 0.01990 0.44740 -0.04500
C 	C 	0.83521 0.09677 0.42934 0.01100
C 	C 	0.83451 0.11922 0.47720 -0.03900
C 	C 	0.81376 0.14914 0.48008 -0.02700
C 	C 	0.79361 0.15691 0.43521 -0.00200
C 	C 	0.79399 0.13434 0.38733 -0.02600
C 	C 	0.81474 0.10434 0.38438 -0.03800
H 	H 	0.96738 0.07709 0.38975 0.04600
H 	H 	0.92350 0.12307 0.38886 0.04900
H 	H 	0.80013 0.00395 0.46364 0.04800
H 	H 	0.85052 0.11392 0.51211 0.04600
H 	H 	0.77834 0.14005 0.35247 0.05400
H 	H 	0.81502 0.08711 0.34725 0.04800
C 	C 	0.44433 0.19250 0.49571 0.02400
C 	C 	0.38899 0.16405 0.49805 -0.05100
C 	C 	0.35870 0.18082 0.47697 0.03100
H 	H 	0.46701 0.17851 0.51118 0.07500
H 	H 	0.36946 0.12851 0.51549 0.06500
C 	C 	0.83619 0.19041 0.00390 0.03500
C 	C 	0.78021 0.15745 0.00486 -0.06000
C 	C 	0.75044 0.17847 0.00124 0.01000
C 	C 	0.86634 0.16686 0.00210 -0.01100
C 	C 	0.87108 0.14336 0.04268 -0.02400
C 	C 	0.89769 0.11905 0.03987 -0.05200
C 	C 	0.91975 0.11813 0.99655 0.03100
C 	C 	0.91570 0.14220 0.95633 -0.04600
C 	C 	0.88907 0.16647 0.95905 -0.01700
C 	C 	0.94461 0.09063 0.99245 0.00700
C 	C 	0.96483 0.06706 0.98862 -0.03000
H 	H 	0.75948 0.11520 0.00694 0.05500
H 	H 	0.70694 0.15217 0.00043 0.05400
H 	H 	0.85388 0.14365 0.07616 0.04600
H 	H 	0.90069 0.10051 0.07112 0.05100
H 	H 	0.93260 0.14158 0.92270 0.05100
C 	C 	0.40973 0.15659 0.98329 -0.04300
H 	H 	0.48325 0.16691 0.01359 0.08100
H 	H 	0.38485 0.12405 0.00334 0.05600
C 	C 	0.46556 0.18087 0.98901 0.02100
C 	C 	0.38644 0.17549 0.95319 0.02600
H 	H 	0.81351 0.16641 0.51722 0.04400
H 	H 	0.88545 0.18430 0.92745 0.04300
H 	H 	0.30249 0.21141 0.52144 0.04900
O 	O 	0.58066 0.23355 0.99716 -0.31400
O 	O 	0.69661 0.23040 0.99988 -0.33700
O 	O 	0.70177 0.23411 0.48393 -0.42000
H 	H 	0.60513 0.23939 0.42068 0.17900
C 	C 	0.57743 0.24509 0.64520 0.77900
F 	F 	0.53703 0.20789 0.66934 -0.45100
F 	F 	0.58885 0.21763 0.61157 -0.47500
F 	F 	0.56141 0.20948 0.11011 -0.45400
C 	C 	0.77230 0.18784 0.43851 0.05600
C 	C 	0.75459 0.21374 0.44293 -0.09800
C 	C 	0.46983 0.23797 0.47221 -0.06300
C 	C 	0.38450 0.22714 0.45489 -0.05700
H 	H 	0.36145 0.24044 0.43860 0.05200
C 	C 	0.77638 0.23264 0.99636 -0.07300
C 	C 	0.86262 0.24512 0.00144 -0.07100
C 	C 	0.49869 0.22449 0.96477 -0.06800
C 	C 	0.41894 0.21737 0.92713 -0.05500
H 	H 	0.34652 0.22808 0.98952 0.04800
C 	C 	0.59263 0.20052 0.14187 0.77900
F 	F 	0.55814 0.15929 0.16668 -0.44800
H 	H 	0.60733 0.21873 0.24651 0.07600
F 	F 	0.61649 0.18343 0.11256 -0.44200
Cu	Cu	0.66111 0.26749 0.00116 0.93200
Cu	Cu	0.71277 0.27772 0.89751 0.88300
O 	O 	0.65600 0.27345 0.92822 -0.63600
C 	C 	0.55860 0.25508 0.97645 0.28200
C 	C 	0.74396 0.25297 0.98555 0.28500
O 	O 	0.68273 0.28141 0.83329 -0.38700
H 	H 	0.61917 0.24898 0.90656 0.18400
O 	O 	0.56122 0.26675 0.50162 -0.33000
C 	C 	0.52721 0.26584 0.46646 0.28900
C 	C 	0.73354 0.24440 0.45043 0.30700
H 	H 	0.59535 0.25783 0.74974 0.07400
F 	F 	0.55729 0.26761 0.61796 -0.44600
C 	C 	0.63662 0.25228 0.17940 -0.09400
C 	C 	0.63808 0.25396 0.23240 0.05100
C 	C 	0.43976 0.25565 0.45259 0.01600
C 	C 	0.83289 0.26615 0.99771 0.02500
H 	H 	0.90598 0.27107 0.00141 0.05500
C 	C 	0.47476 0.24166 0.93273 0.01100
H 	H 	0.40113 0.23171 0.90323 0.05500
O 	O 	0.76011 0.29037 0.95748 -0.41700
O 	O 	0.67771 0.27582 0.07394 -0.30900
Cu	Cu	0.72167 0.28933 0.53914 0.88300
O 	O 	0.62952 0.27918 0.43152 -0.63900
O 	O 	0.75118 0.28649 0.42859 -0.34200
C 	C 	0.63017 0.29001 0.73614 0.05200
C 	C 	0.62884 0.28943 0.68325 -0.10200
H 	H 	0.45907 0.29122 0.43522 0.04500
H 	H 	0.49955 0.27447 0.91294 0.04500
Cu	Cu	0.63840 0.30444 0.50277 0.90600
O 	O 	0.54471 0.29544 0.43048 -0.38000
O 	O 	0.69455 0.29428 0.35454 -0.32400
H 	H 	0.85362 0.30825 0.99496 0.04500
C 	C 	0.67572 0.29959 0.16171 0.00200
C 	C 	0.66919 0.30327 0.10730 0.29300
O 	O 	0.58984 0.30601 0.97189 -0.38200
C 	C 	0.66982 0.30557 0.32093 0.30800
O 	O 	0.62888 0.30683 0.33028 -0.35500
C 	C 	0.67724 0.30182 0.26746 0.00300
C 	C 	0.68215 0.32235 0.82486 0.30100
Cu	Cu	0.71242 0.32042 0.42668 0.93600
Cu	Cu	0.60829 0.31629 0.39731 0.90300
C 	C 	0.68132 0.32460 0.61215 0.29500
O 	O 	0.64977 0.32696 0.57694 -0.31900
O 	O 	0.72363 0.32695 0.60149 -0.39000
C 	C 	0.67732 0.33037 0.77173 -0.00000
C 	C 	0.67592 0.33037 0.66623 0.00100
O 	O 	0.64466 0.32474 0.09232 -0.35000
O 	O 	0.71660 0.33710 0.50112 -0.63600
C 	C 	0.86165 0.99401 0.44835 -0.01900
C 	C 	0.02024 0.99877 0.44487 0.13400
N 	N 	0.03126 0.98315 0.97322 -0.13800
C 	C 	0.93828 0.98996 0.43254 0.12000
H 	H 	0.84462 0.95851 0.46569 0.04500
N 	N 	0.99159 0.94449 0.43989 -0.13800
N 	N 	0.95738 0.98470 0.98536 -0.13800
C 	C 	0.97902 0.95720 0.98008 0.13800
N 	N 	0.90958 0.93544 0.42782 -0.13900
C 	C 	0.93629 0.91267 0.43134 0.12300
Cu	Cu	0.68764 0.35152 0.93486 0.90600
Cu	Cu	0.65658 0.36436 0.03417 0.89800
O 	O 	0.70269 0.35121 0.00618 -0.64500
O 	O 	0.72390 0.42864 0.94429 -0.34300
C 	C 	0.72120 0.45813 0.98134 0.29500
O 	O 	0.68797 0.43601 0.01415 -0.38800
O 	O 	0.67570 0.34963 0.86086 -0.33000
H 	H 	0.74169 0.37594 0.02263 0.17600
O 	O 	0.74467 0.39769 0.41964 -0.30500
C 	C 	0.72265 0.42117 0.43486 0.30800
O 	O 	0.67397 0.39246 0.44627 -0.38100
H 	H 	0.74176 0.37580 0.51735 0.18500
C 	C 	0.72215 0.37420 0.75495 -0.10100
C 	C 	0.72108 0.37350 0.70209 0.05200
H 	H 	0.75626 0.40535 0.68860 0.07700
C 	C 	0.77201 0.42038 0.79325 0.77900
F 	F 	0.79699 0.40135 0.81904 -0.46900
F 	F 	0.75664 0.44274 0.82814 -0.45300
F 	F 	0.80971 0.46093 0.76965 -0.44800
C 	C 	0.71733 0.34617 0.19699 0.04800
C 	C 	0.71898 0.34760 0.25000 -0.09900
C 	C 	0.76330 0.39894 0.28763 0.77900
H 	H 	0.74715 0.38198 0.18297 0.06500
F 	F 	0.80389 0.43644 0.26384 -0.44900
F 	F 	0.78720 0.38721 0.32513 -0.44500
F 	F 	0.74084 0.42188 0.31023 -0.46000
C 	C 	0.90559 0.85362 0.42548 -0.01900
C 	C 	0.92306 0.82718 0.39789 -0.01500
C 	C 	0.89848 0.77246 0.39747 -0.04600
C 	C 	0.85607 0.74353 0.42445 0.01800
C 	C 	0.83721 0.76938 0.45054 -0.04700
C 	C 	0.86182 0.82422 0.45098 -0.01500
C 	C 	0.83279 0.68676 0.42683 0.00900
C 	C 	0.83847 0.67221 0.47387 -0.03500
C 	C 	0.81854 0.61884 0.47579 -0.02900
C 	C 	0.79297 0.57976 0.43071 0.00800
C 	C 	0.78726 0.59420 0.38372 -0.02600
C 	C 	0.80706 0.64750 0.38175 -0.03400
C 	C 	0.77002 0.52428 0.43294 0.06200
C 	C 	0.74941 0.47744 0.43421 -0.06400
H 	H 	0.95633 0.84929 0.37752 0.04600
H 	H 	0.91314 0.75280 0.37701 0.05200
H 	H 	0.80410 0.74721 0.47108 0.04900
H 	H 	0.84797 0.84415 0.47240 0.04400
H 	H 	0.85866 0.70230 0.50882 0.04900
H 	H 	0.82283 0.60789 0.51229 0.05200
H 	H 	0.76721 0.56410 0.34876 0.06700
H 	H 	0.80250 0.65833 0.34526 0.04900
C 	C 	0.75080 0.51654 0.98219 -0.06000
C 	C 	0.76746 0.55212 0.02862 0.00700
C 	C 	0.79457 0.60733 0.02941 -0.06300
C 	C 	0.80543 0.62755 0.98384 0.03500
C 	C 	0.78900 0.59214 0.93745 -0.04900
C 	C 	0.76177 0.53689 0.93658 0.01500
C 	C 	0.83465 0.68589 0.98482 0.01100
C 	C 	0.80910 0.70478 0.95820 -0.03200
C 	C 	0.83725 0.76005 0.95838 -0.03800
C 	C 	0.89102 0.79671 0.98521 0.02600
C 	C 	0.91640 0.77798 0.01222 -0.04400
C 	C 	0.88834 0.72275 0.01202 -0.03800
C 	C 	0.92092 0.85330 0.98351 0.01000
C 	C 	0.94687 0.90074 0.98200 -0.03100
H 	H 	0.75963 0.53705 0.06412 0.04100
H 	H 	0.80711 0.63439 0.06540 0.05300
H 	H 	0.79741 0.60745 0.90211 0.06500
H 	H 	0.74867 0.50990 0.90042 0.08900
H 	H 	0.76755 0.67666 0.93732 0.04800
H 	H 	0.81740 0.77428 0.93739 0.05100
H 	H 	0.95801 0.80612 0.03296 0.05000
H 	H 	0.90845 0.70854 0.03259 0.04900
