data_crystal

_cell_length_a 26.15413
_cell_length_b 26.57805
_cell_length_c 36.74696
_cell_angle_alpha 95.53533
_cell_angle_beta  95.53306
_cell_angle_gamma 125.83028

_symmetry_space_group_name_	'P 1'
_symmetry_space_group_name_H-M	'P 1'

loop_
_symmetry_equiv_pos_as_xyz
  x,y,z

loop_
_atom_site_label
_atom_site_type_symbol
_atom_site_fract_x
_atom_site_fract_y
_atom_site_fract_z
_atom_site_charge
C 	C 	0.96537 0.03012 0.99319 0.03400
C 	C 	0.03136 0.06469 0.99306 -0.08100
C 	C 	0.05986 0.03361 0.99047 0.03200
H 	H 	0.06046 0.11557 0.99529 0.04900
C 	C 	0.93321 0.99581 0.46333 0.02500
C 	C 	0.92894 0.90212 0.46510 0.02700
C 	C 	0.03031 0.00267 0.46413 0.02300
C 	C 	0.99938 0.03152 0.46342 -0.06700
H 	H 	0.84704 0.90342 0.46464 0.04800
H 	H 	0.01843 0.91527 0.46474 0.04700
H 	H 	0.02681 0.08174 0.46335 0.04600
Cu	Cu	0.63954 0.24345 0.00440 0.92800
Cu	Cu	0.68672 0.24673 0.92500 0.86700
Cu	Cu	0.67297 0.34343 0.95729 0.89600
Cu	Cu	0.65246 0.36591 0.03352 0.89400
C 	C 	0.66413 0.28911 0.08273 0.30700
O 	O 	0.54871 0.21367 0.00642 -0.36400
C 	C 	0.65468 0.30528 0.87592 0.30300
O 	O 	0.69655 0.34211 0.00823 -0.64000
O 	O 	0.62855 0.25063 0.95178 -0.64200
O 	O 	0.67327 0.19331 0.99899 -0.37400
O 	O 	0.74599 0.25949 0.96573 -0.44300
O 	O 	0.63797 0.31753 0.07458 -0.38800
O 	O 	0.72210 0.43450 0.96451 -0.38600
C 	C 	0.72260 0.47172 0.99139 0.29600
C 	C 	0.52685 0.24372 0.99369 0.28200
O 	O 	0.56747 0.30309 0.99053 -0.39800
O 	O 	0.69859 0.45213 0.02151 -0.39700
O 	O 	0.66446 0.25163 0.05666 -0.36400
C 	C 	0.72735 0.21703 0.98697 0.29100
O 	O 	0.65724 0.34288 0.90365 -0.38200
O 	O 	0.64820 0.25351 0.88079 -0.42300
H 	H 	0.74335 0.36758 0.01776 0.16500
H 	H 	0.58368 0.22461 0.93796 0.17400
Cu	Cu	0.73483 0.33406 0.45658 0.92700
Cu	Cu	0.73195 0.28862 0.53641 0.86700
Cu	Cu	0.63506 0.30426 0.50480 0.89600
Cu	Cu	0.61290 0.32664 0.42888 0.89400
C 	C 	0.68703 0.31040 0.37833 0.30700
O 	O 	0.76923 0.42488 0.45455 -0.36200
C 	C 	0.67660 0.32453 0.58625 0.30300
O 	O 	0.63486 0.28109 0.45355 -0.64000
O 	O 	0.72901 0.34620 0.50945 -0.64200
O 	O 	0.78231 0.29676 0.46118 -0.37300
O 	O 	0.71519 0.22803 0.49576 -0.44300
O 	O 	0.65936 0.33736 0.38678 -0.38800
O 	O 	0.54263 0.25739 0.49815 -0.38500
C 	C 	0.50457 0.25262 0.46937 0.29200
C 	C 	0.74030 0.44852 0.46685 0.28100
O 	O 	0.68048 0.41030 0.47121 -0.39600
O 	O 	0.52745 0.28724 0.44340 -0.39400
O 	O 	0.72448 0.30876 0.40416 -0.36400
C 	C 	0.75707 0.24386 0.47385 0.28800
O 	O 	0.63666 0.31979 0.55863 -0.38300
O 	O 	0.72808 0.32910 0.58071 -0.42300
H 	H 	0.60765 0.23502 0.44377 0.16300
H 	H 	0.75633 0.39055 0.52302 0.17400
C 	C 	0.64652 0.33465 0.76924 -0.00700
C 	C 	0.70171 0.38519 0.75894 -0.03600
C 	C 	0.70461 0.38758 0.72128 -0.03600
C 	C 	0.65231 0.33944 0.69377 -0.00700
C 	C 	0.59547 0.29137 0.70411 -0.03600
C 	C 	0.59258 0.28898 0.74179 -0.03500
C 	C 	0.66011 0.33450 0.65562 0.04200
C 	C 	0.66699 0.33067 0.62374 -0.11100
C 	C 	0.64862 0.32470 0.80703 0.04200
C 	C 	0.65067 0.31662 0.83872 -0.11100
H 	H 	0.74343 0.42099 0.78000 0.03700
H 	H 	0.74853 0.42522 0.71352 0.03800
H 	H 	0.55460 0.25428 0.68301 0.03800
H 	H 	0.54951 0.25004 0.74953 0.03800
C 	C 	0.69311 0.27940 0.19212 -0.00500
C 	C 	0.64536 0.22684 0.20559 -0.03400
C 	C 	0.64784 0.22920 0.24397 -0.03500
C 	C 	0.69810 0.28410 0.26899 -0.00500
C 	C 	0.74818 0.33487 0.25553 -0.03400
C 	C 	0.74568 0.33253 0.21717 -0.03500
C 	C 	0.69375 0.29184 0.30763 0.04400
C 	C 	0.69092 0.29920 0.34007 -0.10400
C 	C 	0.68356 0.28241 0.15336 0.04400
C 	C 	0.67560 0.28498 0.12092 -0.10400
H 	H 	0.60484 0.18535 0.18639 0.04100
H 	H 	0.60923 0.18951 0.25415 0.03800
H 	H 	0.78750 0.37727 0.27471 0.04100
H 	H 	0.78307 0.37314 0.20698 0.03800
C 	C 	0.87936 0.75583 0.50278 -0.03900
C 	C 	0.84208 0.70878 0.47072 -0.00000
C 	C 	0.82847 0.72476 0.43770 -0.03900
C 	C 	0.85397 0.78766 0.43640 -0.03800
C 	C 	0.89325 0.83502 0.46808 -0.00200
C 	C 	0.90482 0.81867 0.50146 -0.03800
C 	C 	0.81897 0.64321 0.47141 0.02500
H 	H 	0.79909 0.68865 0.41292 0.03800
H 	H 	0.84485 0.79986 0.41050 0.03800
H 	H 	0.93514 0.85496 0.52605 0.03800
H 	H 	0.88987 0.74394 0.52844 0.03800
C 	C 	0.84000 0.61557 0.44890 -0.06600
C 	C 	0.81652 0.55279 0.44861 0.01200
C 	C 	0.77162 0.51697 0.47080 -0.08800
C 	C 	0.75231 0.54543 0.49425 0.01100
C 	C 	0.77579 0.60820 0.49450 -0.06600
H 	H 	0.87400 0.64252 0.43135 0.04600
H 	H 	0.83185 0.53155 0.43035 0.03800
H 	H 	0.71836 0.51866 0.51187 0.03100
H 	H 	0.75973 0.62931 0.51222 0.04500
C 	C 	0.89552 0.10932 0.49213 -0.03900
C 	C 	0.85029 0.09490 0.46114 -0.00100
C 	C 	0.82966 0.04545 0.43171 -0.03900
C 	C 	0.85524 0.01167 0.43292 -0.03800
C 	C 	0.90150 0.02702 0.46360 -0.00100
C 	C 	0.92091 0.07548 0.49339 -0.03900
C 	C 	0.82426 0.13135 0.45973 0.02600
H 	H 	0.79447 0.03373 0.40777 0.03900
H 	H 	0.95634 0.08747 0.51728 0.03800
H 	H 	0.91114 0.14691 0.51517 0.03600
C 	C 	0.76016 0.10290 0.46286 -0.06900
C 	C 	0.73737 0.13911 0.46574 0.01300
C 	C 	0.77856 0.20422 0.46555 -0.09500
C 	C 	0.84191 0.23202 0.46062 0.01300
C 	C 	0.86468 0.19575 0.45782 -0.06800
H 	H 	0.72848 0.05313 0.46409 0.04400
H 	H 	0.68808 0.11680 0.46887 0.02800
H 	H 	0.87416 0.28207 0.46026 0.03200
H 	H 	0.91412 0.21799 0.45505 0.04600
C 	C 	0.20564 0.07399 0.49447 -0.03900
C 	C 	0.23314 0.11065 0.46728 -0.00100
C 	C 	0.19396 0.11255 0.43935 -0.03800
C 	C 	0.12783 0.07735 0.43831 -0.03900
C 	C 	0.10037 0.04072 0.46552 -0.00000
C 	C 	0.13972 0.03970 0.49381 -0.03900
C 	C 	0.30286 0.14674 0.46793 0.02700
H 	H 	0.21474 0.14116 0.41844 0.03800
H 	H 	0.09789 0.07826 0.41625 0.03800
H 	H 	0.11915 0.01211 0.51516 0.03700
H 	H 	0.23532 0.07188 0.51602 0.03700
C 	C 	0.34716 0.18894 0.50033 -0.06700
C 	C 	0.41307 0.22260 0.50105 0.01700
C 	C 	0.43531 0.21515 0.46920 -0.08900
C 	C 	0.39113 0.17323 0.43677 0.01400
C 	C 	0.32520 0.13876 0.43622 -0.06700
H 	H 	0.33052 0.19589 0.52486 0.04600
H 	H 	0.44683 0.25527 0.52612 0.03500
H 	H 	0.40788 0.16707 0.41207 0.02300
H 	H 	0.29148 0.10581 0.41121 0.04400
C 	C 	0.88462 0.76098 0.95746 -0.03900
C 	C 	0.84972 0.73428 0.98560 0.00000
C 	C 	0.84732 0.77254 0.01344 -0.04000
C 	C 	0.88132 0.83726 0.01390 -0.03800
C 	C 	0.91718 0.86418 0.98616 -0.00300
C 	C 	0.91775 0.82553 0.95757 -0.03700
C 	C 	0.81784 0.66688 0.98676 0.02700
H 	H 	0.81985 0.75225 0.03501 0.03800
H 	H 	0.88063 0.86666 0.03613 0.03700
H 	H 	0.94464 0.84571 0.93577 0.03700
H 	H 	0.88686 0.73191 0.93587 0.03800
C 	C 	0.77344 0.62005 0.95580 -0.06700
C 	C 	0.74318 0.55626 0.95705 0.01600
C 	C 	0.75632 0.53876 0.98946 -0.08900
C 	C 	0.80086 0.58554 0.02034 0.01500
C 	C 	0.83183 0.64930 0.01891 -0.06800
H 	H 	0.76209 0.63308 0.93090 0.04600
H 	H 	0.70874 0.52044 0.93310 0.03300
H 	H 	0.81177 0.57248 0.04536 0.02700
H 	H 	0.86671 0.68507 0.04276 0.04500
C 	C 	0.86743 0.20973 0.00097 -0.07100
C 	C 	0.83612 0.14540 0.00163 0.02700
C 	C 	0.76975 0.10592 0.00100 -0.07000
C 	C 	0.73451 0.13000 0.99805 0.01600
C 	C 	0.76535 0.19369 0.99547 -0.09700
C 	C 	0.83223 0.23377 0.99789 0.01600
C 	C 	0.87195 0.11857 0.00041 -0.00200
H 	H 	0.74520 0.05622 0.00167 0.04500
H 	H 	0.68298 0.09862 0.99635 0.03100
H 	H 	0.85677 0.28328 0.99665 0.02700
H 	H 	0.91882 0.24076 0.00203 0.04500
C 	C 	0.90067 0.12039 0.96971 -0.03800
C 	C 	0.93235 0.09265 0.96772 -0.03800
C 	C 	0.93544 0.06273 0.99637 -0.00300
C 	C 	0.90761 0.06177 0.02735 -0.03800
C 	C 	0.87599 0.08960 0.02937 -0.03900
H 	H 	0.89761 0.14248 0.94716 0.03600
H 	H 	0.95356 0.09347 0.94367 0.03700
H 	H 	0.91005 0.03901 0.04968 0.03800
H 	H 	0.85430 0.08830 0.05328 0.03900
C 	C 	0.37010 0.22269 0.98742 -0.06700
C 	C 	0.32628 0.15718 0.98481 0.02600
C 	C 	0.34765 0.11958 0.98203 -0.06600
C 	C 	0.41281 0.14754 0.98336 0.01400
C 	C 	0.45728 0.21349 0.98765 -0.08900
C 	C 	0.43529 0.25077 0.98879 0.01200
C 	C 	0.25877 0.12838 0.98709 0.00100
H 	H 	0.31392 0.06880 0.97949 0.04500
H 	H 	0.42879 0.11803 0.98165 0.03200
H 	H 	0.46885 0.30164 0.99187 0.02900
H 	H 	0.35390 0.25203 0.98937 0.04500
C 	C 	0.23417 0.10086 0.01777 -0.04000
C 	C 	0.16963 0.07167 0.01944 -0.03800
C 	C 	0.12914 0.06969 0.99041 -0.00400
C 	C 	0.15408 0.09857 0.96015 -0.03700
C 	C 	0.21871 0.12784 0.95850 -0.04000
H 	H 	0.26497 0.10171 0.04017 0.03900
H 	H 	0.15084 0.04979 0.04300 0.03800
H 	H 	0.12312 0.09718 0.93759 0.03600
H 	H 	0.23741 0.14925 0.93479 0.03800
C 	C 	0.02235 0.96797 0.98814 -0.08000
C 	C 	0.95627 0.93315 0.98793 0.03400
C 	C 	0.92781 0.96432 0.99022 -0.07900
H 	H 	0.04459 0.94408 0.98664 0.05000
H 	H 	0.87661 0.93747 0.98971 0.05000
C 	C 	0.89795 0.93096 0.46412 -0.07300
C 	C 	0.99477 0.93782 0.46450 -0.06900
H 	H 	0.84006 0.97446 0.40973 0.03700
