data_crystal

_cell_length_a 20.61708
_cell_length_b 21.36722
_cell_length_c 39.24012
_cell_angle_alpha 60.69568
_cell_angle_beta  119.04826
_cell_angle_gamma 133.28645

_symmetry_space_group_name_	'P 1'
_symmetry_space_group_name_H-M	'P 1'

loop_
_symmetry_equiv_pos_as_xyz
  x,y,z

loop_
_atom_site_label
_atom_site_type_symbol
_atom_site_fract_x
_atom_site_fract_y
_atom_site_fract_z
_atom_site_charge
H 	H 	0.13026 0.51943 0.15299 0.05000
H 	H 	0.17411 0.55187 0.65522 0.05100
Co	Co	0.00486 0.08488 0.08009 1.17000
Co	Co	0.06807 0.02354 0.04571 1.16100
Co	Co	0.08729 0.88235 0.04669 1.16800
C 	C 	0.24896 0.05622 0.06396 0.24800
O 	O 	0.06965 0.12459 0.04014 -0.48200
C 	C 	0.10124 0.19847 0.13842 0.30300
C 	C 	0.09755 0.78588 0.13309 0.31300
O 	O 	0.06985 0.77740 0.09690 -0.41700
O 	O 	0.08080 0.82749 0.14024 -0.40100
O 	O 	0.04830 0.13247 0.16346 -0.41900
O 	O 	0.11128 0.18356 0.11255 -0.39700
O 	O 	0.03669 0.91820 0.06388 -0.74700
O 	O 	0.21672 0.97208 0.07542 -0.35400
O 	O 	0.20823 0.08134 0.06664 -0.40100
Co	Co	0.07254 0.03116 0.54028 1.15600
Co	Co	0.11593 0.90641 0.54320 1.17700
C 	C 	0.24600 0.10322 0.52663 0.31800
O 	O 	0.06056 0.12425 0.53352 -0.48500
C 	C 	0.09208 0.20704 0.63208 0.30000
C 	C 	0.19799 0.87268 0.63005 0.30000
O 	O 	0.00667 0.93186 0.69939 -0.38200
O 	O 	0.21788 0.92872 0.59524 -0.38300
O 	O 	0.13624 0.85455 0.64299 -0.37800
O 	O 	0.04358 0.13771 0.65847 -0.41400
O 	O 	0.10426 0.19790 0.60457 -0.38900
O 	O 	0.07273 0.93998 0.56600 -0.74200
O 	O 	0.19471 0.03569 0.51125 -0.44200
O 	O 	0.21023 0.11585 0.54070 -0.40900
C 	C 	0.10563 0.06924 0.87533 -0.13900
C 	C 	0.10743 0.07980 0.90846 0.05000
C 	C 	0.02625 0.98343 0.82391 0.03900
H 	H 	0.16703 0.11501 0.86417 0.05300
H 	H 	0.16995 0.13367 0.92205 0.01300
C 	C 	0.01369 0.95666 0.75629 -0.04900
C 	C 	0.06722 0.04281 0.76069 -0.04200
H 	H 	0.09977 0.09959 0.73705 0.03700
C 	C 	0.08364 0.03160 0.38154 -0.08800
C 	C 	0.07895 0.03760 0.41429 -0.06300
C 	C 	0.01042 0.95848 0.32576 0.05100
H 	H 	0.14932 0.07395 0.37436 0.03900
H 	H 	0.14101 0.08468 0.43161 0.04200
C 	C 	0.00197 0.94089 0.25636 -0.04900
C 	C 	0.06230 0.02439 0.26487 -0.04000
C 	C 	0.06407 0.03363 0.29844 -0.10000
H 	H 	0.10073 0.08325 0.24329 0.03800
H 	H 	0.10405 0.09948 0.30211 0.04300
C 	C 	0.18743 0.30664 0.67676 -0.02800
C 	C 	0.14325 0.29572 0.63734 -0.10900
C 	C 	0.20774 0.37380 0.68676 0.06400
N 	N 	0.23748 0.37506 0.72599 -0.19400
H 	H 	0.19960 0.25844 0.70034 0.04100
H 	H 	0.24583 0.32652 0.74880 0.07800
H 	H 	0.24899 0.42226 0.73419 0.08300
C 	C 	0.21836 0.68233 0.68380 0.06300
C 	C 	0.18936 0.73479 0.67281 -0.02300
C 	C 	0.24161 0.82551 0.65365 -0.11000
H 	H 	0.12620 0.70484 0.67898 0.04400
H 	H 	0.12078 0.57273 0.71754 0.07900
C 	C 	0.12587 0.34430 0.10427 -0.02500
C 	C 	0.14765 0.28995 0.13890 -0.11500
C 	C 	0.18945 0.31196 0.17622 0.12300
H 	H 	0.09234 0.32702 0.07566 0.04100
C 	C 	0.15189 0.62399 0.18794 0.06100
C 	C 	0.11013 0.66283 0.18024 -0.02000
C 	C 	0.15410 0.75483 0.16421 -0.11800
C 	C 	0.24644 0.80815 0.16337 0.13100
H 	H 	0.04192 0.62104 0.18486 0.03200
H 	H 	0.05631 0.49957 0.21842 0.07600
C 	C 	0.20123 0.44190 0.65595 -0.02200
N 	N 	0.17880 0.60071 0.70943 -0.19300
H 	H 	0.20931 0.56757 0.72392 0.08300
C 	C 	0.19862 0.38082 0.17908 -0.09200
C 	C 	0.18164 0.43809 0.14438 -0.02000
C 	C 	0.14122 0.41741 0.10677 0.06400
H 	H 	0.08816 0.45271 0.04521 0.08000
C 	C 	0.23311 0.67690 0.17480 -0.01400
N 	N 	0.11840 0.53938 0.21052 -0.19400
C 	C 	0.20314 0.55820 0.15617 -0.08500
C 	C 	0.24576 0.57916 0.66268 -0.08700
C 	C 	0.05228 0.00111 0.97078 0.26300
O 	O 	0.11124 0.98253 0.99450 -0.36300
O 	O 	0.02323 0.02104 0.98506 -0.39400
O 	O 	0.04205 0.98936 0.59912 -0.56400
C 	C 	0.02649 0.99758 0.85806 0.08000
C 	C 	0.03312 0.01548 0.92692 -0.15700
C 	C 	0.07068 0.05620 0.79335 -0.09400
H 	H 	0.10525 0.12306 0.79403 0.04100
C 	C 	0.12571 0.35825 0.60686 0.11900
C 	C 	0.15511 0.43085 0.61660 -0.08900
H 	H 	0.14805 0.48214 0.59292 0.05100
N 	N 	0.08147 0.34957 0.56838 -0.20200
H 	H 	0.06490 0.30101 0.55918 0.09200
H 	H 	0.06526 0.39365 0.54674 0.08100
N 	N 	0.11637 0.46697 0.07308 -0.19300
H 	H 	0.12207 0.51815 0.07453 0.08300
H 	H 	0.15702 0.51488 0.22293 0.08200
N 	N 	0.22292 0.26848 0.20918 -0.20300
H 	H 	0.22682 0.22454 0.20684 0.09000
H 	H 	0.22957 0.39643 0.20794 0.05100
C 	C 	0.23611 0.53086 0.14597 0.04200
Co	Co	0.02871 0.86896 0.60679 1.18200
O 	O 	0.04085 0.77392 0.57232 -0.42000
C 	C 	0.00469 0.96854 0.35943 0.04000
H 	H 	0.24958 0.28160 0.23719 0.07900
O 	O 	0.00689 0.88760 0.49445 -0.38600
Co	Co	0.01175 0.08765 0.57930 1.17200
C 	C 	0.00239 0.95460 0.47026 0.26000
C 	C 	0.26577 0.63688 0.17001 0.03900
C 	C 	0.27014 0.53272 0.66158 0.04400
O 	O 	0.99043 0.92645 0.19487 -0.37900
H 	H 	0.83915 0.74188 0.50001 0.10300
H 	H 	0.26774 0.16036 0.98948 0.04700
H 	H 	0.30500 0.21077 0.45868 0.03600
O 	O 	0.89726 0.95037 0.19363 -0.39300
C 	C 	0.96064 0.93697 0.21365 0.29700
O 	O 	0.90333 0.94819 0.69341 -0.39600
C 	C 	0.97239 0.94357 0.71505 0.30700
C 	C 	0.98179 0.89735 0.82191 -0.05100
C 	C 	0.97451 0.88407 0.78805 0.01300
H 	H 	0.95078 0.84053 0.84594 0.04400
H 	H 	0.93342 0.81709 0.78541 0.02900
C 	C 	0.32650 0.86422 0.64836 0.13000
N 	N 	0.38999 0.95361 0.64044 -0.20200
H 	H 	0.45032 0.98261 0.63394 0.09400
H 	H 	0.38284 0.99414 0.64368 0.10900
N 	N 	0.29963 0.89665 0.15948 -0.20400
H 	H 	0.36783 0.93653 0.15812 0.09900
H 	H 	0.27491 0.92540 0.16006 0.10800
C 	C 	0.34574 0.80968 0.65189 -0.09300
C 	C 	0.29254 0.71819 0.66981 -0.01500
C 	C 	0.28192 0.77001 0.16417 -0.09300
H 	H 	0.34587 0.81289 0.15540 0.05600
C 	C 	0.69518 0.28237 0.00724 0.04600
C 	C 	0.59956 0.23342 0.00043 -0.09700
C 	C 	0.56334 0.26672 0.00330 0.04800
C 	C 	0.61878 0.35548 0.00366 -0.09000
C 	C 	0.71333 0.40667 0.00870 0.04600
C 	C 	0.75220 0.36975 0.01134 -0.09000
H 	H 	0.55472 0.16638 0.99705 0.05500
H 	H 	0.58977 0.38203 0.00439 0.05800
H 	H 	0.82606 0.40764 0.01762 0.05300
C 	C 	0.72317 0.29284 0.51158 0.03800
C 	C 	0.79006 0.37231 0.52499 -0.08500
C 	C 	0.76210 0.41233 0.52930 0.04200
C 	C 	0.66915 0.37164 0.52203 -0.08500
C 	C 	0.60327 0.29122 0.51121 0.04200
C 	C 	0.62947 0.25425 0.50374 -0.08600
H 	H 	0.86235 0.40169 0.53250 0.05400
H 	H 	0.64794 0.40104 0.52655 0.05700
H 	H 	0.57715 0.19400 0.49324 0.04600
C 	C 	0.32738 0.58751 0.14395 -0.08400
C 	C 	0.38925 0.66411 0.15778 0.04500
C 	C 	0.36019 0.68433 0.17416 -0.08600
H 	H 	0.35135 0.56964 0.13334 0.05800
H 	H 	0.41044 0.73960 0.18814 0.05400
C 	C 	0.31527 0.66172 0.67318 0.04000
C 	C 	0.36183 0.57240 0.66637 -0.08500
C 	C 	0.42952 0.65710 0.67272 0.04500
C 	C 	0.40781 0.69707 0.68080 -0.08600
H 	H 	0.37982 0.53948 0.66240 0.05700
H 	H 	0.46236 0.75954 0.68941 0.05500
Co	Co	0.97774 0.84463 0.09988 1.18900
Co	Co	0.91978 0.90731 0.13632 1.19200
C 	C 	0.89418 0.73006 0.04409 0.30200
Co	Co	0.91092 0.04889 0.14100 1.15800
O 	O 	0.94503 0.01027 0.11606 -0.77900
O 	O 	0.91531 0.80549 0.14064 -0.46700
O 	O 	0.96615 0.95583 0.08114 -0.55600
C 	C 	0.74199 0.87306 0.12905 0.30300
O 	O 	0.77809 0.95838 0.11577 -0.37600
O 	O 	0.78019 0.84101 0.12991 -0.37800
C 	C 	0.88705 0.14339 0.05426 0.30800
O 	O 	0.92192 0.15282 0.09093 -0.40900
O 	O 	0.90934 0.11342 0.04232 -0.39400
O 	O 	0.95220 0.79794 0.02105 -0.38900
O 	O 	0.88052 0.74149 0.07005 -0.38000
Co	Co	0.94986 0.91605 0.64037 1.19300
C 	C 	0.95503 0.73012 0.57125 0.32200
Co	Co	0.90946 0.04083 0.63907 1.15800
O 	O 	0.96480 0.01476 0.61909 -0.77800
O 	O 	0.96572 0.82509 0.64843 -0.46300
C 	C 	0.75982 0.85929 0.62860 0.30300
O 	O 	0.78232 0.94031 0.61557 -0.37900
O 	O 	0.80691 0.84178 0.62525 -0.39200
O 	O 	0.99788 0.99808 0.48373 -0.34800
C 	C 	0.87517 0.12421 0.55172 0.31100
O 	O 	0.90812 0.13689 0.58742 -0.41400
O 	O 	0.89641 0.08815 0.54324 -0.40500
O 	O 	0.92999 0.76335 0.57935 -0.39900
C 	C 	0.94791 0.93926 0.87351 -0.09200
C 	C 	0.95166 0.94758 0.90802 0.09200
H 	H 	0.89326 0.89768 0.92153 0.02300
H 	H 	0.88478 0.88608 0.85959 0.05500
C 	C 	0.92030 0.91480 0.36953 -0.04400
C 	C 	0.99691 0.97712 0.42712 -0.00500
C 	C 	0.91673 0.91834 0.40342 -0.00800
H 	H 	0.85267 0.87153 0.41263 0.03800
H 	H 	0.85786 0.86860 0.35187 0.04300
C 	C 	0.96032 0.87381 0.32030 -0.05600
C 	C 	0.95569 0.86519 0.28569 0.01400
H 	H 	0.92232 0.81475 0.34203 0.04400
H 	H 	0.91004 0.80000 0.28013 0.02800
C 	C 	0.58944 0.70915 0.69048 -0.08800
C 	C 	0.51568 0.71047 0.66130 -0.01800
C 	C 	0.51774 0.74637 0.62014 0.06700
C 	C 	0.59336 0.77957 0.60917 -0.02000
C 	C 	0.67077 0.78645 0.63857 -0.11100
C 	C 	0.66630 0.74512 0.67935 0.12300
N 	N 	0.73587 0.74043 0.70787 -0.20200
H 	H 	0.58583 0.67770 0.72177 0.05300
H 	H 	0.59587 0.80867 0.57774 0.04300
N 	N 	0.44800 0.75040 0.59116 -0.19300
H 	H 	0.73453 0.71401 0.73826 0.08600
H 	H 	0.79001 0.75974 0.70000 0.09000
H 	H 	0.39375 0.73228 0.59841 0.08800
H 	H 	0.44906 0.77479 0.56081 0.08300
H 	H 	0.40298 0.83886 0.64118 0.05500
C 	C 	0.55096 0.71722 0.18260 -0.08700
C 	C 	0.48291 0.72645 0.15201 -0.01900
C 	C 	0.49942 0.78121 0.11341 0.07000
C 	C 	0.58103 0.82042 0.10534 -0.02400
C 	C 	0.64948 0.81158 0.13587 -0.10500
C 	C 	0.63404 0.75870 0.17492 0.12300
N 	N 	0.69840 0.74747 0.20509 -0.20200
H 	H 	0.53770 0.67460 0.21208 0.05200
H 	H 	0.59342 0.86188 0.07563 0.05200
N 	N 	0.43738 0.79687 0.08413 -0.19400
H 	H 	0.68780 0.71144 0.23415 0.08500
H 	H 	0.75806 0.77180 0.19992 0.09600
H 	H 	0.37902 0.77385 0.09003 0.08800
H 	H 	0.44882 0.83533 0.05532 0.08900
C 	C 	0.70040 0.15121 0.52542 -0.09600
C 	C 	0.74999 0.24401 0.51009 -0.01600
C 	C 	0.82444 0.28854 0.49384 0.06200
C 	C 	0.85884 0.24314 0.50106 -0.02000
C 	C 	0.81598 0.15296 0.52161 -0.12200
C 	C 	0.72883 0.10515 0.52760 0.12300
N 	N 	0.67537 0.01511 0.53839 -0.25200
H 	H 	0.64090 0.11489 0.53641 0.04200
H 	H 	0.92228 0.27949 0.49316 0.03700
N 	N 	0.85999 0.37234 0.46995 -0.19400
H 	H 	0.61318 0.97938 0.54530 0.11700
H 	H 	0.69354 0.98007 0.53825 0.13100
H 	H 	0.82662 0.40179 0.45864 0.08500
H 	H 	0.91806 0.40642 0.46008 0.08300
C 	C 	0.83073 0.57157 0.51073 -0.09000
C 	C 	0.82871 0.49848 0.54038 -0.01700
C 	C 	0.86162 0.49995 0.58138 0.06500
C 	C 	0.89009 0.57145 0.59173 -0.01900
C 	C 	0.88849 0.64265 0.56192 -0.11600
C 	C 	0.85187 0.63886 0.52129 0.12700
N 	N 	0.83546 0.69890 0.49236 -0.20300
H 	H 	0.80494 0.57056 0.47931 0.05300
H 	H 	0.91925 0.57440 0.62298 0.04000
N 	N 	0.86624 0.43317 0.61091 -0.19300
H 	H 	0.81359 0.69956 0.46201 0.08800
H 	H 	0.85070 0.38202 0.60413 0.08400
H 	H 	0.88818 0.43326 0.64115 0.08100
C 	C 	0.35864 0.21089 0.48492 -0.02000
C 	C 	0.34147 0.17039 0.52336 -0.12200
C 	C 	0.41235 0.17352 0.55751 0.12200
C 	C 	0.49313 0.20304 0.55261 -0.09400
C 	C 	0.50899 0.23979 0.51414 -0.02000
C 	C 	0.44151 0.24491 0.47990 0.06000
N 	N 	0.45532 0.28129 0.44222 -0.19300
H 	H 	0.54641 0.20247 0.57892 0.04800
N 	N 	0.40392 0.14985 0.59498 -0.20600
H 	H 	0.40556 0.28585 0.41717 0.07800
H 	H 	0.51462 0.30402 0.43733 0.08300
H 	H 	0.34598 0.13083 0.59941 0.08800
H 	H 	0.45756 0.15417 0.62007 0.07300
C 	C 	0.73832 0.11155 0.03946 -0.03500
C 	C 	0.81946 0.16313 0.02749 -0.11100
C 	C 	0.84913 0.24890 0.00183 0.11400
C 	C 	0.80511 0.28542 0.99397 -0.07700
C 	C 	0.73611 0.23964 0.01351 -0.02700
C 	C 	0.70538 0.15250 0.03815 0.06400
N 	N 	0.65308 0.11225 0.06380 -0.19500
H 	H 	0.71116 0.04342 0.05652 0.03400
H 	H 	0.82644 0.35035 0.97364 0.05000
N 	N 	0.92072 0.29700 0.98539 -0.20200
H 	H 	0.62437 0.04558 0.07917 0.06900
H 	H 	0.64860 0.14874 0.07193 0.07900
H 	H 	0.95145 0.26973 0.98925 0.09800
H 	H 	0.94484 0.36166 0.96770 0.08600
C 	C 	0.79043 0.63242 0.99762 -0.02100
C 	C 	0.83651 0.64139 0.03730 -0.11000
C 	C 	0.84792 0.57470 0.06707 0.12300
C 	C 	0.81719 0.50326 0.05601 -0.08600
C 	C 	0.77166 0.49490 0.01628 -0.02500
C 	C 	0.76200 0.56229 0.98649 0.07100
N 	N 	0.72621 0.56029 0.94709 -0.19400
H 	H 	0.78249 0.68378 0.97471 0.04700
H 	H 	0.82373 0.45110 0.07894 0.05200
N 	N 	0.88747 0.57832 0.10629 -0.20200
H 	H 	0.71615 0.60848 0.92532 0.08300
H 	H 	0.71144 0.51301 0.93756 0.08600
H 	H 	0.90156 0.62423 0.11646 0.09700
H 	H 	0.90059 0.53187 0.12754 0.08600
C 	C 	0.48406 0.16649 0.05863 -0.08400
C 	C 	0.47836 0.20531 0.01724 -0.03400
C 	C 	0.39980 0.20355 0.99201 0.08100
C 	C 	0.32894 0.16363 0.00882 -0.05200
C 	C 	0.33414 0.12310 0.05004 -0.09600
C 	C 	0.41516 0.13048 0.07547 0.11000
N 	N 	0.42909 0.10749 0.11608 -0.20300
H 	H 	0.54590 0.17108 0.07820 0.04500
N 	N 	0.39182 0.23940 0.95169 -0.19700
H 	H 	0.48820 0.11093 0.13492 0.07100
H 	H 	0.38354 0.09024 0.12919 0.08100
H 	H 	0.43971 0.26287 0.93794 0.08300
H 	H 	0.33613 0.24235 0.93349 0.08000
