data_crystal

_cell_length_a 17.66675
_cell_length_b 15.31171
_cell_length_c 43.55051
_cell_angle_alpha 90.85345
_cell_angle_beta  91.24698
_cell_angle_gamma 111.18889

_symmetry_space_group_name_	'P 1'
_symmetry_space_group_name_H-M	'P 1'

loop_
_symmetry_equiv_pos_as_xyz
  x,y,z

loop_
_atom_site_label
_atom_site_type_symbol
_atom_site_fract_x
_atom_site_fract_y
_atom_site_fract_z
_atom_site_charge
Ni	Ni	0.69278 0.33291 0.88610 1.09800
O 	O 	0.60389 0.24455 0.85738 -0.70500
Ni	Ni	0.50434 0.23968 0.87882 1.10100
O 	O 	0.78045 0.32331 0.85773 -0.36200
O 	O 	0.73004 0.16286 0.85942 -0.40700
O 	O 	0.67973 0.43393 0.85900 -0.40600
Ni	Ni	0.60336 0.11814 0.85360 1.06600
O 	O 	0.69720 0.44796 0.95102 -0.42200
O 	O 	0.59441 0.09565 0.89978 -0.41300
O 	O 	0.42440 0.16390 0.84589 -0.38700
O 	O 	0.59347 0.31268 0.91044 -0.70000
O 	O 	0.78156 0.43170 0.91312 -0.38200
O 	O 	0.41212 0.26759 0.89975 -0.36800
O 	O 	0.49068 0.42122 0.90199 -0.41400
Ni	Ni	0.59809 0.43644 0.92497 1.07500
H 	H 	0.60421 0.27066 0.83670 0.16000
H 	H 	0.59456 0.27383 0.92828 0.15600
C 	C 	0.52630 0.08141 0.91392 0.29400
O 	O 	0.66665 0.53604 0.89539 -0.39300
C 	C 	0.78139 0.24159 0.84832 0.28800
C 	C 	0.42680 0.08436 0.83472 0.29800
C 	C 	0.69381 0.51931 0.86890 0.32500
C 	C 	0.42478 0.35290 0.90983 0.28800
C 	C 	0.77013 0.46849 0.93969 0.29900
O 	O 	0.47454 0.11946 0.90412 -0.37600
O 	O 	0.47993 0.04831 0.84582 -0.40500
Ni	Ni	0.62656 0.32655 0.57079 1.09900
O 	O 	0.72597 0.35680 0.54354 -0.69900
Ni	Ni	0.78108 0.27348 0.56029 1.10000
O 	O 	0.58895 0.42168 0.54818 -0.35800
O 	O 	0.71241 0.53781 0.55656 -0.39900
O 	O 	0.56784 0.22990 0.53698 -0.37700
Ni	Ni	0.80248 0.48545 0.54673 1.07700
O 	O 	0.55687 0.18962 0.62880 -0.41800
O 	O 	0.82222 0.47717 0.59256 -0.40900
O 	O 	0.86825 0.30074 0.52812 -0.37600
O 	O 	0.69184 0.25811 0.59155 -0.69300
O 	O 	0.52154 0.28642 0.59592 -0.35900
O 	O 	0.81254 0.16439 0.57574 -0.36900
O 	O 	0.68047 0.06693 0.57567 -0.41600
Ni	Ni	0.61851 0.13202 0.60159 1.07700
H 	H 	0.70981 0.33923 0.52175 0.16100
H 	H 	0.71614 0.29242 0.61092 0.16000
C 	C 	0.87352 0.43913 0.60222 0.31300
O 	O 	0.53083 0.10370 0.56771 -0.40000
C 	C 	0.64175 0.50507 0.54187 0.28700
C 	C 	0.90737 0.38817 0.52001 0.28000
C 	C 	0.54644 0.13935 0.54039 0.29700
C 	C 	0.75718 0.08314 0.58213 0.30700
C 	C 	0.50259 0.22223 0.61757 0.30500
O 	O 	0.86999 0.35765 0.59085 -0.36900
O 	O 	0.90489 0.45887 0.53724 -0.39300
Ni	Ni	0.96753 0.95685 0.75075 1.10100
O 	O 	0.99347 0.85311 0.72939 -0.70800
Ni	Ni	0.05184 0.92027 0.69294 1.10000
O 	O 	0.91055 0.86967 0.78522 -0.35800
O 	O 	0.82333 0.76539 0.75092 -0.41200
O 	O 	0.07455 0.99366 0.77679 -0.35300
Ni	Ni	0.89349 0.75488 0.71415 1.06800
O 	O 	0.06751 0.16307 0.76767 -0.40900
O 	O 	0.85199 0.84415 0.69048 -0.41500
O 	O 	0.07734 0.80941 0.67581 -0.36800
O 	O 	0.01506 0.02228 0.71194 -0.70200
O 	O 	0.93719 0.05997 0.76997 -0.39300
O 	O 	0.13235 0.00553 0.66269 -0.36400
O 	O 	0.15638 0.15260 0.68208 -0.40300
Ni	Ni	0.10320 0.13907 0.72473 1.06900
H 	H 	0.02752 0.82784 0.74215 0.16500
H 	H 	0.97336 0.03595 0.69949 0.15900
C 	C 	0.88668 0.88432 0.66537 0.30700
O 	O 	0.16903 0.06439 0.74096 -0.42100
C 	C 	0.85367 0.78765 0.77905 0.30100
C 	C 	0.01785 0.72646 0.67415 0.28900
C 	C 	0.14703 0.01112 0.76506 0.27600
C 	C 	0.18371 0.09032 0.67026 0.30300
C 	C 	0.99099 0.14413 0.77484 0.31300
O 	O 	0.96144 0.89197 0.65960 -0.36400
O 	O 	0.94164 0.72095 0.67581 -0.39900
Ni	Ni	0.27264 0.70297 0.40326 1.09700
O 	O 	0.36271 0.75644 0.37218 -0.70400
Ni	Ni	0.45871 0.74635 0.39579 1.09800
O 	O 	0.18602 0.73496 0.37866 -0.36900
O 	O 	0.26634 0.88050 0.36378 -0.39800
O 	O 	0.23034 0.57823 0.37862 -0.37700
Ni	Ni	0.38738 0.89000 0.36463 1.06700
O 	O 	0.21994 0.51039 0.43344 -0.40800
O 	O 	0.39463 0.92586 0.41042 -0.40300
O 	O 	0.54318 0.80195 0.36341 -0.38000
O 	O 	0.36806 0.69163 0.42649 -0.70400
O 	O 	0.18852 0.64280 0.43543 -0.38600
O 	O 	0.54353 0.71841 0.42312 -0.35900
O 	O 	0.46338 0.56716 0.43070 -0.40700
Ni	Ni	0.34346 0.55655 0.43141 1.06700
H 	H 	0.35249 0.71993 0.35259 0.16600
H 	H 	0.37809 0.72579 0.44653 0.15200
C 	C 	0.45006 0.91487 0.42891 0.28000
O 	O 	0.33842 0.53251 0.38538 -0.42200
C 	C 	0.20330 0.80237 0.35867 0.30000
C 	C 	0.55203 0.88276 0.35087 0.29900
C 	C 	0.27663 0.53404 0.36857 0.31000
C 	C 	0.52244 0.64359 0.44006 0.28700
C 	C 	0.17927 0.55890 0.44556 0.29000
O 	O 	0.49858 0.87390 0.41869 -0.36700
O 	O 	0.51160 0.93445 0.36136 -0.39800
Ni	Ni	0.35847 0.67125 0.05309 1.10100
O 	O 	0.25893 0.66621 0.02680 -0.69800
Ni	Ni	0.19794 0.71385 0.05683 1.09900
O 	O 	0.38669 0.57652 0.02618 -0.36900
O 	O 	0.25558 0.47659 0.02674 -0.41300
O 	O 	0.43298 0.77683 0.02640 -0.36600
Ni	Ni	0.18511 0.54747 0.00922 1.07800
O 	O 	0.48461 0.84793 0.08359 -0.40600
O 	O 	0.09505 0.49283 0.04043 -0.38700
O 	O 	0.08734 0.68504 0.03399 -0.37900
O 	O 	0.30512 0.73591 0.08047 -0.70300
O 	O 	0.45707 0.68943 0.08115 -0.37700
O 	O 	0.16409 0.78736 0.09014 -0.37100
O 	O 	0.27953 0.91482 0.08369 -0.40100
Ni	Ni	0.37578 0.86732 0.08344 1.06600
H 	H 	0.27537 0.71133 0.00998 0.15700
H 	H 	0.29672 0.70757 0.10100 0.15600
C 	C 	0.09907 0.51327 0.07002 0.31100
O 	O 	0.37768 0.88695 0.03737 -0.41100
C 	C 	0.32963 0.49759 0.01692 0.28700
C 	C 	0.06657 0.64043 0.00697 0.29600
C 	C 	0.41865 0.85271 0.01918 0.29300
C 	C 	0.21238 0.87280 0.09848 0.28800
C 	C 	0.49656 0.77291 0.09402 0.29300
O 	O 	0.15133 0.59317 0.08139 -0.39800
O 	O 	0.11929 0.61803 0.99072 -0.41300
Ni	Ni	0.00095 0.07446 0.25322 1.09600
O 	O 	0.97476 0.16474 0.22491 -0.71000
Ni	Ni	0.91886 0.07915 0.18964 1.09600
O 	O 	0.05953 0.18049 0.28426 -0.36700
O 	O 	0.14627 0.26291 0.24821 -0.41100
O 	O 	0.89779 0.05038 0.27903 -0.36400
Ni	Ni	0.07582 0.25369 0.20872 1.06600
O 	O 	0.91079 0.87028 0.27404 -0.40800
O 	O 	0.11884 0.15342 0.19379 -0.41300
O 	O 	0.89700 0.17933 0.16395 -0.37700
O 	O 	0.95299 0.98857 0.21639 -0.69100
O 	O 	0.03481 0.98662 0.27953 -0.37500
O 	O 	0.84290 0.97709 0.16044 -0.36400
O 	O 	0.80650 0.84243 0.18767 -0.38700
Ni	Ni	0.86609 0.87693 0.23053 1.07100
H 	H 	0.94026 0.19594 0.23425 0.16300
H 	H 	0.99501 0.96898 0.20708 0.17000
C 	C 	0.08395 0.09724 0.17046 0.31300
O 	O 	0.80312 0.95788 0.24373 -0.41400
C 	C 	0.11737 0.25727 0.27585 0.30400
C 	C 	0.95873 0.25762 0.15820 0.30200
C 	C 	0.82105 0.00565 0.26988 0.28300
C 	C 	0.78641 0.89971 0.16969 0.29800
C 	C 	0.98924 0.89814 0.28112 0.31300
O 	O 	0.01109 0.08882 0.16064 -0.38000
O 	O 	0.03371 0.26507 0.16566 -0.40700
C 	C 	0.03914 0.44777 0.09055 -0.10800
C 	C 	0.02293 0.47991 0.11916 -0.06400
C 	C 	0.97688 0.41588 0.14053 0.16300
C 	C 	0.95011 0.31900 0.13386 -0.10300
C 	C 	0.95144 0.28936 0.10334 -0.05800
C 	C 	0.99873 0.35223 0.08199 0.17200
H 	H 	0.04823 0.55387 0.12532 0.06500
O 	O 	0.96768 0.44725 0.16935 -0.30900
H 	H 	0.92573 0.21529 0.09732 0.06800
O 	O 	0.00719 0.31956 0.05325 -0.28600
H 	H 	0.05428 0.29905 0.05520 0.14900
H 	H 	0.91560 0.45797 0.16816 0.14600
C 	C 	0.57123 0.78755 0.11223 -0.10600
C 	C 	0.56691 0.77257 0.14393 -0.06500
C 	C 	0.63713 0.80816 0.16284 0.16100
C 	C 	0.71246 0.85856 0.14994 -0.09800
C 	C 	0.71726 0.86833 0.11795 -0.06000
C 	C 	0.64719 0.83257 0.09912 0.17200
H 	H 	0.50863 0.73706 0.15411 0.04500
O 	O 	0.63193 0.79386 0.19387 -0.29300
H 	H 	0.77531 0.90416 0.10765 0.07500
O 	O 	0.65243 0.84604 0.06805 -0.28100
H 	H 	0.66059 0.79000 0.05932 0.15400
H 	H 	0.61957 0.84720 0.20261 0.13600
C 	C 	0.12902 0.05070 0.15315 -0.12800
C 	C 	0.13321 0.06055 0.12124 -0.04800
C 	C 	0.15759 0.00010 0.10316 0.15700
C 	C 	0.18009 0.93054 0.11707 -0.09400
C 	C 	0.17906 0.92284 0.14908 -0.07400
C 	C 	0.15436 0.98333 0.16721 0.17900
H 	H 	0.11436 0.11288 0.11033 0.06400
O 	O 	0.16034 0.00964 0.07188 -0.28800
H 	H 	0.19780 0.87034 0.15990 0.04900
O 	O 	0.15074 0.97314 0.19845 -0.30800
H 	H 	0.20469 0.01482 0.20672 0.14200
H 	H 	0.10583 0.96875 0.06386 0.15800
C 	C 	0.62372 0.92730 0.33187 -0.10100
C 	C 	0.61421 0.96206 0.30297 -0.06400
C 	C 	0.67991 0.99338 0.28315 0.17200
C 	C 	0.75611 0.99090 0.29236 -0.08900
C 	C 	0.76693 0.96270 0.32215 -0.06500
C 	C 	0.70120 0.93049 0.34180 0.17500
H 	H 	0.55542 0.96245 0.29550 0.04500
O 	O 	0.67017 0.02909 0.25527 -0.30900
H 	H 	0.82560 0.96199 0.32967 0.08400
O 	O 	0.71327 0.90436 0.37096 -0.27200
H 	H 	0.70737 0.83758 0.36893 0.15700
H 	H 	0.64943 0.97418 0.24094 0.15200
C 	C 	0.16148 0.32830 0.29905 -0.11000
C 	C 	0.17343 0.42246 0.29404 -0.06100
C 	C 	0.21470 0.49122 0.31611 0.17000
C 	C 	0.24593 0.46606 0.34314 -0.10900
C 	C 	0.23766 0.37244 0.34738 -0.05600
C 	C 	0.19484 0.30341 0.32561 0.17400
H 	H 	0.14954 0.44212 0.27320 0.04000
O 	O 	0.22612 0.58329 0.31096 -0.30000
H 	H 	0.26186 0.35266 0.36812 0.05900
O 	O 	0.18812 0.21227 0.32978 -0.28300
H 	H 	0.13858 0.18406 0.34189 0.16100
H 	H 	0.17700 0.59222 0.31875 0.16000
C 	C 	0.02150 0.83806 0.29903 -0.11500
C 	C 	0.08479 0.81492 0.28664 -0.05800
C 	C 	0.14369 0.80113 0.30603 0.16100
C 	C 	0.13703 0.80544 0.33806 -0.10100
C 	C 	0.06803 0.81623 0.35035 -0.05300
C 	C 	0.01006 0.83204 0.33093 0.16900
H 	H 	0.09276 0.81663 0.26202 0.04900
O 	O 	0.20793 0.78424 0.29361 -0.29700
H 	H 	0.06119 0.81671 0.37502 0.06700
O 	O 	0.94697 0.85116 0.34342 -0.27300
H 	H 	0.90166 0.78975 0.34410 0.14700
H 	H 	0.25056 0.84694 0.29115 0.13200
C 	C 	0.55401 0.03195 0.46231 -0.05000
C 	C 	0.47317 0.97100 0.45777 -0.07900
C 	C 	0.41693 0.96117 0.48142 0.10200
C 	C 	0.44232 0.01578 0.50861 -0.04400
C 	C 	0.52316 0.07699 0.51296 -0.09300
C 	C 	0.58019 0.08259 0.49006 0.10700
N 	N 	0.66045 0.13431 0.49492 -0.19300
H 	H 	0.59725 0.03847 0.44438 0.06300
H 	H 	0.39893 0.01083 0.52636 0.05300
N 	N 	0.33934 0.89859 0.47849 -0.19700
H 	H 	0.70160 0.14145 0.47739 0.08500
H 	H 	0.68342 0.16398 0.51647 0.04200
H 	H 	0.31961 0.85319 0.45943 0.06600
H 	H 	0.29811 0.89317 0.49587 0.08600
C 	C 	0.12084 0.48289 0.49350 -0.04700
C 	C 	0.10819 0.50874 0.46368 -0.09500
C 	C 	0.02855 0.47685 0.45044 0.11300
C 	C 	0.96254 0.42727 0.46849 -0.04900
C 	C 	0.97496 0.40756 0.49909 -0.08400
C 	C 	0.05502 0.43061 0.51110 0.10900
N 	N 	0.06886 0.40359 0.53963 -0.20100
H 	H 	0.18221 0.50305 0.50300 0.03000
H 	H 	0.90109 0.40780 0.45912 0.03700
N 	N 	0.01505 0.49295 0.42052 -0.20300
H 	H 	0.12799 0.42386 0.54886 0.08600
H 	H 	0.02142 0.36016 0.55256 0.11000
H 	H 	0.06280 0.52467 0.40592 0.11200
H 	H 	0.95585 0.47115 0.41128 0.09100
C 	C 	0.63140 0.59765 0.46232 -0.03300
C 	C 	0.57355 0.63921 0.46651 -0.09400
C 	C 	0.54988 0.65179 0.49654 0.09500
C 	C 	0.57368 0.60846 0.52117 -0.03800
C 	C 	0.62483 0.55812 0.51642 -0.09200
C 	C 	0.65795 0.55737 0.48707 0.09300
N 	N 	0.71399 0.51705 0.48238 -0.18900
H 	H 	0.65198 0.59136 0.43939 0.05000
H 	H 	0.55180 0.61331 0.54397 0.04900
N 	N 	0.50373 0.70458 0.50173 -0.20400
H 	H 	0.73550 0.51370 0.46039 0.07700
H 	H 	0.73898 0.49187 0.50051 0.00600
H 	H 	0.49116 0.74385 0.48428 0.07600
H 	H 	0.48325 0.71036 0.52373 0.08100
C 	C 	0.77894 0.02054 0.60272 -0.12500
C 	C 	0.82064 0.96519 0.59141 -0.04500
C 	C 	0.85197 0.91565 0.61163 0.16900
C 	C 	0.84203 0.92201 0.64355 -0.10700
C 	C 	0.79600 0.97299 0.65461 -0.06000
C 	C 	0.76425 0.02194 0.63432 0.16300
H 	H 	0.83031 0.96211 0.56698 0.06200
O 	O 	0.89037 0.85919 0.60015 -0.27800
H 	H 	0.78765 0.97791 0.67907 0.05400
O 	O 	0.72324 0.07581 0.64562 -0.32900
H 	H 	0.66535 0.03378 0.64542 0.10500
H 	H 	0.94764 0.90106 0.59767 0.16200
C 	C 	0.42024 0.18932 0.63059 -0.10300
C 	C 	0.38739 0.09800 0.64180 -0.05800
C 	C 	0.31038 0.06540 0.65462 0.16200
C 	C 	0.26461 0.12387 0.65614 -0.10300
C 	C 	0.29711 0.21515 0.64478 -0.06000
C 	C 	0.37488 0.24839 0.63242 0.16700
H 	H 	0.42166 0.05198 0.64059 0.05000
O 	O 	0.28165 0.97791 0.66697 -0.29100
H 	H 	0.26234 0.26066 0.64563 0.06400
O 	O 	0.40617 0.33844 0.62221 -0.27500
H 	H 	0.43517 0.37710 0.64032 0.14300
H 	H 	0.25356 0.93466 0.64966 0.15900
C 	C 	0.03163 0.64681 0.65980 -0.10000
C 	C 	0.04780 0.65152 0.62843 -0.05600
C 	C 	0.00266 0.57701 0.60871 0.16600
C 	C 	0.94489 0.49619 0.62097 -0.10200
C 	C 	0.94654 0.48283 0.65267 -0.05700
C 	C 	0.99217 0.55786 0.67220 0.16000
H 	H 	0.08512 0.71756 0.61882 0.06800
O 	O 	0.00934 0.58691 0.57758 -0.29500
H 	H 	0.90714 0.41787 0.66230 0.05200
O 	O 	0.98997 0.54725 0.70344 -0.29000
H 	H 	0.94033 0.55765 0.70993 0.12100
H 	H 	0.05295 0.56362 0.57202 0.15400
C 	C 	0.97340 0.64942 0.96517 -0.04100
C 	C 	0.98360 0.61689 0.99432 -0.08600
C 	C 	0.91786 0.54487 0.00729 0.10600
C 	C 	0.84858 0.49676 0.98899 -0.03900
C 	C 	0.84122 0.52440 0.95890 -0.09600
C 	C 	0.90164 0.60546 0.94765 0.11300
N 	N 	0.89021 0.64277 0.92061 -0.20100
H 	H 	0.02245 0.70726 0.95571 0.04900
H 	H 	0.80027 0.43763 0.99821 0.04800
N 	N 	0.92083 0.52184 0.03719 -0.19800
H 	H 	0.93700 0.69919 0.91156 0.09400
H 	H 	0.83347 0.62032 0.90940 0.10300
H 	H 	0.96408 0.56587 0.05269 0.10900
H 	H 	0.87560 0.46300 0.04578 0.09200
C 	C 	0.40560 0.88060 0.96388 -0.04300
C 	C 	0.45269 0.90280 0.99116 -0.09100
C 	C 	0.52832 0.97851 0.99208 0.12000
C 	C 	0.55274 0.03434 0.96614 -0.05200
C 	C 	0.50374 0.01479 0.93929 -0.09900
C 	C 	0.43106 0.93471 0.93768 0.11900
N 	N 	0.38649 0.90833 0.91099 -0.20100
H 	H 	0.34857 0.82130 0.96306 0.03700
H 	H 	0.60927 0.09433 0.96711 0.04300
N 	N 	0.57763 0.99795 0.01768 -0.20000
H 	H 	0.33102 0.85196 0.91042 0.09000
H 	H 	0.40812 0.94008 0.89033 0.11100
H 	H 	0.56329 0.95516 0.03674 0.11200
H 	H 	0.63242 0.05530 0.01840 0.08500
C 	C 	0.33588 0.42436 0.93388 -0.03600
C 	C 	0.38175 0.36699 0.93680 -0.10600
C 	C 	0.40161 0.34327 0.96653 0.08600
C 	C 	0.38104 0.38420 0.99253 -0.03600
C 	C 	0.34256 0.44903 0.98937 -0.10000
C 	C 	0.31943 0.46937 0.95975 0.08900
N 	N 	0.28525 0.53525 0.95586 -0.20000
H 	H 	0.31953 0.44101 0.91115 0.04600
H 	H 	0.39708 0.36737 0.01528 0.04200
N 	N 	0.44168 0.28295 0.97028 -0.20800
H 	H 	0.26490 0.54643 0.93409 0.07600
H 	H 	0.28278 0.57953 0.97390 0.01200
H 	H 	0.45402 0.24699 0.95173 0.07900
H 	H 	0.45886 0.26914 0.99225 0.08100
C 	C 	0.97026 0.20554 0.79647 -0.11100
C 	C 	0.92872 0.26134 0.78499 -0.05800
C 	C 	0.86882 0.27699 0.80241 0.16100
C 	C 	0.85255 0.23937 0.83187 -0.10000
C 	C 	0.90315 0.19677 0.84507 -0.06000
C 	C 	0.96342 0.18202 0.82768 0.17700
H 	H 	0.93649 0.28382 0.76141 0.04700
O 	O 	0.82462 0.32636 0.79022 -0.28200
H 	H 	0.89385 0.17202 0.86837 0.06600
O 	O 	0.00836 0.13377 0.84001 -0.28000
H 	H 	0.05834 0.18260 0.84876 0.14800
H 	H 	0.77755 0.27899 0.77920 0.13100
C 	C 	0.21068 0.98957 0.78274 -0.09400
C 	C 	0.28290 0.99626 0.76819 -0.06200
C 	C 	0.35496 0.01512 0.78559 0.16400
C 	C 	0.35404 0.02249 0.81774 -0.10800
C 	C 	0.27907 0.99533 0.83223 -0.04800
C 	C 	0.20755 0.98126 0.81497 0.16500
H 	H 	0.28473 0.99504 0.74333 0.06800
O 	O 	0.42673 0.03106 0.77107 -0.29700
H 	H 	0.27737 0.99494 0.85710 0.06600
O 	O 	0.13551 0.96108 0.82967 -0.27400
H 	H 	0.13346 0.02271 0.83599 0.16100
H 	H 	0.44813 0.09900 0.76680 0.13600
C 	C 	0.81537 0.72671 0.80438 -0.10700
C 	C 	0.73505 0.71286 0.81184 -0.05500
C 	C 	0.69602 0.64851 0.83425 0.16900
C 	C 	0.73745 0.59747 0.84922 -0.11000
C 	C 	0.81835 0.61312 0.84221 -0.05800
C 	C 	0.85781 0.67871 0.82031 0.16900
H 	H 	0.70247 0.75077 0.79993 0.06100
O 	O 	0.61731 0.63503 0.84126 -0.28300
H 	H 	0.85014 0.57290 0.85331 0.06800
O 	O 	0.93645 0.69194 0.81326 -0.29900
H 	H 	0.97062 0.74325 0.82734 0.16300
H 	H 	0.58321 0.58455 0.82690 0.14500
