data_crystal

_cell_length_a 24.81701
_cell_length_b 23.73916
_cell_length_c 52.80887
_cell_angle_alpha 89.76406
_cell_angle_beta  89.77357
_cell_angle_gamma 119.49226

_symmetry_space_group_name_	'P 1'
_symmetry_space_group_name_H-M	'P 1'

loop_
_symmetry_equiv_pos_as_xyz
  x,y,z

loop_
_atom_site_label
_atom_site_type_symbol
_atom_site_fract_x
_atom_site_fract_y
_atom_site_fract_z
_atom_site_charge
C 	C 	0.62820 0.34492 0.88101 0.28800
C 	C 	0.82064 0.54198 0.94396 0.30600
C 	C 	0.80068 0.42424 0.87621 0.31100
C 	C 	0.65123 0.46892 0.95496 0.28500
C 	C 	0.81977 0.36688 0.95073 0.31100
C 	C 	0.64225 0.26342 0.95810 0.28200
Ni	Ni	0.72331 0.46446 0.90701 1.11200
Ni	Ni	0.73009 0.40949 0.96269 1.12000
Ni	Ni	0.72067 0.32802 0.91346 1.12000
O 	O 	0.63964 0.40146 0.89046 -0.37400
O 	O 	0.66984 0.32480 0.88224 -0.37700
O 	O 	0.81149 0.41159 0.96159 -0.39000
O 	O 	0.81155 0.51929 0.92099 -0.38200
O 	O 	0.78070 0.50882 0.96211 -0.37600
O 	O 	0.64578 0.26455 0.93296 -0.38600
O 	O 	0.76282 0.44787 0.87476 -0.37300
O 	O 	0.80053 0.39226 0.89638 -0.39500
O 	O 	0.68224 0.31305 0.97237 -0.37500
O 	O 	0.68513 0.49978 0.93446 -0.37000
O 	O 	0.65495 0.42062 0.96602 -0.38300
O 	O 	0.77383 0.31710 0.93962 -0.39000
O 	O 	0.70946 0.39433 0.92782 -0.71900
H 	H 	0.66398 0.37180 0.92926 0.16300
C 	C 	0.70454 0.35254 0.60482 0.28700
C 	C 	0.50809 0.24899 0.53014 0.30700
C 	C 	0.61202 0.18290 0.58148 0.31300
C 	C 	0.58690 0.41065 0.54749 0.29100
C 	C 	0.66639 0.24283 0.50361 0.30600
C 	C 	0.78111 0.41930 0.52736 0.28200
Ni	Ni	0.58631 0.29403 0.57550 1.11300
Ni	Ni	0.64089 0.34660 0.51843 1.11900
Ni	Ni	0.70937 0.29423 0.55461 1.11900
O 	O 	0.65067 0.35109 0.60224 -0.37100
O 	O 	0.71639 0.31026 0.59299 -0.37700
O 	O 	0.63108 0.26882 0.49988 -0.38600
O 	O 	0.52907 0.22945 0.54882 -0.38200
O 	O 	0.54566 0.30244 0.51757 -0.37700
O 	O 	0.77828 0.38407 0.54751 -0.38800
O 	O 	0.59249 0.21840 0.59304 -0.37300
O 	O 	0.64106 0.20207 0.55978 -0.39500
O 	O 	0.73425 0.39955 0.51088 -0.37700
O 	O 	0.56183 0.36501 0.56551 -0.37100
O 	O 	0.63714 0.42092 0.53490 -0.38700
O 	O 	0.71501 0.27073 0.51840 -0.38900
O 	O 	0.65241 0.32519 0.55206 -0.71400
H 	H 	0.67836 0.36924 0.55862 0.15900
C 	C 	0.16263 0.10527 0.74655 0.30600
C 	C 	0.10347 0.02689 0.68360 0.32700
Ni	Ni	0.06927 0.96684 0.73597 1.10500
Ni	Ni	0.93993 0.96591 0.74551 1.11400
Ni	Ni	0.04992 0.08528 0.71670 1.12400
O 	O 	0.14029 0.04455 0.75430 -0.36500
O 	O 	0.14145 0.12001 0.72580 -0.37400
O 	O 	0.91223 0.96094 0.70961 -0.41200
O 	O 	0.92451 0.87368 0.74145 -0.38100
O 	O 	0.12265 0.00733 0.70318 -0.36200
O 	O 	0.05768 0.03893 0.68607 -0.38000
O 	O 	0.93403 0.04726 0.75299 -0.37000
O 	O 	0.96406 0.95882 0.78145 -0.38500
O 	O 	0.02584 0.01262 0.73818 -0.70700
H 	H 	0.04115 0.03477 0.75447 0.16500
C 	C 	0.22234 0.64096 0.38736 0.28700
C 	C 	0.46308 0.73734 0.43425 0.30500
C 	C 	0.32624 0.56473 0.39023 0.32900
C 	C 	0.37952 0.81786 0.43562 0.29600
C 	C 	0.32183 0.56563 0.47236 0.30600
C 	C 	0.20345 0.63279 0.46798 0.28200
Ni	Ni	0.35631 0.70223 0.40076 1.11300
Ni	Ni	0.34341 0.69727 0.46266 1.11900
Ni	Ni	0.24955 0.57524 0.43011 1.12100
O 	O 	0.27685 0.69411 0.38458 -0.36900
O 	O 	0.21818 0.58580 0.39549 -0.37400
O 	O 	0.36177 0.62767 0.47361 -0.38700
O 	O 	0.42988 0.69746 0.41646 -0.38300
O 	O 	0.43608 0.75020 0.45325 -0.37900
O 	O 	0.18912 0.59406 0.44808 -0.38200
O 	O 	0.33540 0.61926 0.37996 -0.37300
O 	O 	0.30970 0.55166 0.41400 -0.39400
O 	O 	0.25777 0.65524 0.47985 -0.37700
O 	O 	0.38913 0.79845 0.41314 -0.37300
O 	O 	0.33903 0.77645 0.45207 -0.39100
O 	O 	0.26578 0.54494 0.46353 -0.38500
O 	O 	0.30903 0.66477 0.43030 -0.71300
H 	H 	0.28095 0.68288 0.42923 0.15400
C 	C 	0.44235 0.65625 0.05204 0.29000
C 	C 	0.19857 0.63784 0.08046 0.30800
C 	C 	0.28129 0.53183 0.04033 0.30300
C 	C 	0.36014 0.77433 0.09334 0.28400
C 	C 	0.23549 0.64749 0.00138 0.30500
C 	C 	0.39930 0.80740 0.01283 0.28900
Ni	Ni	0.32074 0.63834 0.07758 1.11200
Ni	Ni	0.28749 0.73316 0.04478 1.12000
Ni	Ni	0.35465 0.66382 0.01730 1.12100
O 	O 	0.39896 0.62706 0.07005 -0.36900
O 	O 	0.43655 0.69151 0.03396 -0.38900
O 	O 	0.25467 0.70664 0.00946 -0.38700
O 	O 	0.24310 0.63746 0.09375 -0.37200
O 	O 	0.20792 0.65603 0.05673 -0.39500
O 	O 	0.38458 0.75241 0.00071 -0.37700
O 	O 	0.26183 0.55462 0.05857 -0.38300
O 	O 	0.33133 0.57073 0.02710 -0.37800
O 	O 	0.36263 0.81047 0.03052 -0.38800
O 	O 	0.36961 0.72447 0.09700 -0.37000
O 	O 	0.31053 0.76774 0.08104 -0.37500
O 	O 	0.27396 0.62500 0.99919 -0.38700
O 	O 	0.33270 0.68856 0.04823 -0.71600
H 	H 	0.37336 0.72584 0.05214 0.15300
C 	C 	0.85486 0.95612 0.27113 0.28200
C 	C 	0.02686 0.08757 0.18490 0.32300
C 	C 	0.82947 0.96199 0.19960 0.30700
C 	C 	0.06202 0.09598 0.25601 0.29000
C 	C 	0.94914 0.87673 0.18533 0.31700
C 	C 	0.98521 0.88059 0.25505 0.30100
Ni	Ni	0.02876 0.98825 0.21821 1.11700
O 	O 	0.86501 0.00419 0.25518 -0.35100
O 	O 	0.85993 0.90536 0.26379 -0.37500
O 	O 	0.00051 0.90598 0.19849 -0.38000
O 	O 	0.01157 0.10978 0.20483 -0.36600
O 	O 	0.02400 0.03088 0.18555 -0.37000
O 	O 	0.88256 0.01569 0.19870 -0.36600
O 	O 	0.81936 0.91686 0.21645 -0.37800
O 	O 	0.03182 0.93861 0.24864 -0.38100
O 	O 	0.07880 0.07638 0.23531 -0.36900
C 	C 	0.25541 0.46148 0.03903 -0.08800
C 	C 	0.28721 0.43364 0.05094 0.01600
C 	C 	0.25409 0.37302 0.06275 -0.06500
C 	C 	0.18911 0.33920 0.06194 0.02800
C 	C 	0.15866 0.36173 0.04592 -0.06500
C 	C 	0.19186 0.42266 0.03438 0.01900
C 	C 	0.15348 0.28925 0.08138 0.00300
C 	C 	0.11610 0.29930 0.09879 -0.03800
C 	C 	0.08815 0.25637 0.11905 -0.03100
C 	C 	0.09741 0.20315 0.12218 -0.00400
C 	C 	0.13333 0.19191 0.10448 -0.03000
C 	C 	0.16124 0.23478 0.08411 -0.03800
C 	C 	0.07223 0.16175 0.14415 0.05100
C 	C 	0.05137 0.12781 0.16272 -0.09800
H 	H 	0.33674 0.46187 0.05356 0.03100
H 	H 	0.27850 0.35505 0.07426 0.04700
H 	H 	0.10874 0.33465 0.04416 0.04900
H 	H 	0.16714 0.44242 0.02414 0.03100
H 	H 	0.11020 0.34143 0.09703 0.04300
H 	H 	0.06033 0.26527 0.13261 0.04400
H 	H 	0.14047 0.15066 0.10671 0.04500
H 	H 	0.18979 0.22638 0.07078 0.04200
C 	C 	0.40045 0.83488 0.10638 -0.08200
C 	C 	0.40596 0.83364 0.13277 0.01700
C 	C 	0.46223 0.87539 0.14427 -0.06400
C 	C 	0.51288 0.91891 0.12940 0.02600
C 	C 	0.50324 0.92844 0.10391 -0.06400
C 	C 	0.44678 0.88659 0.09245 0.00800
C 	C 	0.57630 0.94119 0.13857 -0.00300
C 	C 	0.61361 0.92017 0.12634 -0.03500
C 	C 	0.66726 0.92783 0.13794 -0.03900
C 	C 	0.68415 0.95663 0.16178 0.00400
C 	C 	0.64919 0.98124 0.17335 -0.06000
C 	C 	0.59551 0.97378 0.16173 -0.03000
C 	C 	0.73537 0.95786 0.17495 0.03900
C 	C 	0.77815 0.95898 0.18609 -0.10100
H 	H 	0.36917 0.79566 0.14392 0.03300
H 	H 	0.46825 0.86938 0.16423 0.04700
H 	H 	0.54115 0.96410 0.09247 0.04100
H 	H 	0.44165 0.89009 0.07225 0.03200
H 	H 	0.59929 0.89489 0.10847 0.04000
H 	H 	0.69456 0.90945 0.12875 0.04200
H 	H 	0.66255 0.00445 0.19165 0.06200
H 	H 	0.56747 0.99076 0.17123 0.03300
C 	C 	0.14170 0.62840 0.09318 -0.08900
C 	C 	0.08715 0.60728 0.07913 0.01100
C 	C 	0.03896 0.61590 0.08853 -0.05100
C 	C 	0.04457 0.64491 0.11217 0.02100
C 	C 	0.09620 0.65968 0.12731 -0.06200
C 	C 	0.14455 0.65139 0.11787 0.01600
C 	C 	0.00190 0.66879 0.11939 0.01400
C 	C 	0.96814 0.64795 0.14213 -0.05100
C 	C 	0.94121 0.68252 0.15243 -0.02900
C 	C 	0.94835 0.73835 0.14017 -0.00600
C 	C 	0.97596 0.75473 0.11610 -0.04100
C 	C 	0.00270 0.72007 0.10572 -0.03100
C 	C 	0.94246 0.78628 0.15468 0.04700
C 	C 	0.94258 0.82748 0.16799 -0.10500
H 	H 	0.08353 0.58752 0.06035 0.03800
H 	H 	0.99867 0.60299 0.07692 0.03700
H 	H 	0.10058 0.68127 0.14576 0.04900
H 	H 	0.18587 0.66692 0.12910 0.03900
H 	H 	0.96602 0.60750 0.15256 0.04100
H 	H 	0.91899 0.66880 0.17087 0.04000
H 	H 	0.98088 0.79721 0.10629 0.04000
H 	H 	0.02771 0.73587 0.08791 0.04100
C 	C 	0.53018 0.77813 0.42976 -0.09000
C 	C 	0.56374 0.74940 0.42018 0.01700
C 	C 	0.61772 0.78615 0.40593 -0.06500
C 	C 	0.63914 0.85219 0.40148 0.02500
C 	C 	0.61029 0.88254 0.41394 -0.06600
C 	C 	0.55617 0.84565 0.42814 0.01300
C 	C 	0.68475 0.88650 0.38095 0.00100
C 	C 	0.66766 0.91006 0.35977 -0.03900
C 	C 	0.70639 0.93261 0.33845 -0.03500
C 	C 	0.76247 0.93180 0.33809 -0.00400
C 	C 	0.78116 0.91149 0.35968 -0.03500
C 	C 	0.74252 0.88906 0.38107 -0.04000
C 	C 	0.79675 0.94386 0.31465 0.03700
C 	C 	0.82402 0.95122 0.29483 -0.09500
H 	H 	0.54516 0.69759 0.42192 0.03500
H 	H 	0.64038 0.76237 0.39693 0.04700
H 	H 	0.62753 0.93392 0.41134 0.04400
H 	H 	0.53184 0.86883 0.43598 0.03800
H 	H 	0.62321 0.90831 0.35941 0.03800
H 	H 	0.69165 0.94836 0.32187 0.03900
H 	H 	0.82456 0.91094 0.35961 0.03800
H 	H 	0.75652 0.87164 0.39738 0.03800
C 	C 	0.11065 0.13931 0.27369 -0.07700
C 	C 	0.09439 0.14989 0.29800 0.01500
C 	C 	0.13812 0.19971 0.31296 -0.06100
C 	C 	0.19869 0.23904 0.30387 0.02600
C 	C 	0.21633 0.22503 0.28051 -0.06200
C 	C 	0.17256 0.17541 0.26546 0.01500
C 	C 	0.24064 0.29944 0.31715 0.00500
C 	C 	0.25533 0.29753 0.34267 -0.04000
C 	C 	0.28380 0.35457 0.35674 -0.03000
C 	C 	0.29794 0.41377 0.34536 -0.00900
C 	C 	0.28796 0.41637 0.31940 -0.03000
C 	C 	0.25936 0.35941 0.30532 -0.04000
C 	C 	0.31194 0.46878 0.36094 0.05200
C 	C 	0.32031 0.51354 0.37417 -0.11200
H 	H 	0.04730 0.12114 0.30491 0.04200
H 	H 	0.12419 0.20966 0.33111 0.05000
H 	H 	0.26329 0.25437 0.27353 0.04800
H 	H 	0.18619 0.16711 0.24696 0.04100
H 	H 	0.24207 0.25161 0.35187 0.04300
H 	H 	0.29193 0.35226 0.37677 0.04100
H 	H 	0.29923 0.46204 0.31042 0.04100
H 	H 	0.24873 0.36153 0.28558 0.04300
C 	C 	0.16727 0.64117 0.37764 -0.08400
C 	C 	0.15317 0.68828 0.38619 0.01600
C 	C 	0.11287 0.70174 0.37245 -0.06600
C 	C 	0.08643 0.66823 0.35000 0.03300
C 	C 	0.09525 0.61627 0.34301 -0.06700
C 	C 	0.13573 0.60287 0.35678 0.01900
C 	C 	0.05960 0.69483 0.33183 -0.01000
C 	C 	0.08794 0.71731 0.30807 -0.03000
C 	C 	0.07013 0.75297 0.29256 -0.04000
C 	C 	0.02398 0.76656 0.30066 0.01000
C 	C 	0.99368 0.74189 0.32386 -0.06300
C 	C 	0.01128 0.70591 0.33940 -0.00900
C 	C 	0.00908 0.80724 0.28538 0.05500
C 	C 	0.99785 0.84123 0.27194 -0.11100
H 	H 	0.17651 0.71728 0.40257 0.02800
H 	H 	0.10562 0.74123 0.37827 0.04800
H 	H 	0.07382 0.58899 0.32605 0.05000
H 	H 	0.14558 0.56564 0.35027 0.03700
H 	H 	0.12546 0.70936 0.30207 0.04000
H 	H 	0.09328 0.77137 0.27451 0.04400
H 	H 	0.95740 0.75159 0.33010 0.04500
H 	H 	0.98881 0.68843 0.35762 0.02500
C 	C 	0.42517 0.88246 0.44472 -0.09200
C 	C 	0.44596 0.93680 0.42893 0.03200
C 	C 	0.49411 0.99687 0.43667 -0.11700
C 	C 	0.52529 0.00238 0.45975 0.06300
C 	C 	0.50337 0.94715 0.47574 -0.02600
C 	C 	0.45239 0.88844 0.46847 0.00400
C 	C 	0.53209 0.95121 0.49900 -0.04900
C 	C 	0.57924 0.01034 0.50754 -0.02500
C 	C 	0.59862 0.06654 0.49299 0.01500
C 	C 	0.57534 0.06247 0.46818 -0.01000
C 	C 	0.60153 0.11897 0.45296 -0.04300
C 	C 	0.63853 0.17938 0.46399 0.00700
C 	C 	0.65279 0.18377 0.48983 -0.07100
C 	C 	0.63841 0.12737 0.50346 -0.01600
H 	H 	0.42418 0.93282 0.41078 0.02500
H 	H 	0.50513 0.03870 0.42505 0.07000
H 	H 	0.43545 0.84657 0.48091 0.02700
H 	H 	0.51677 0.90849 0.51081 0.03700
H 	H 	0.59995 0.01263 0.52579 0.03800
H 	H 	0.59488 0.11661 0.43272 0.04200
H 	H 	0.65368 0.22294 0.45275 0.03600
H 	H 	0.65361 0.13083 0.52289 0.04500
C 	C 	0.15233 0.63710 0.48045 -0.06800
C 	C 	0.10997 0.64496 0.46536 0.00800
C 	C 	0.04955 0.62339 0.47402 -0.05700
C 	C 	0.03063 0.59271 0.49786 0.02400
C 	C 	0.07650 0.59662 0.51477 -0.00100
C 	C 	0.13703 0.61759 0.50581 -0.01200
C 	C 	0.06091 0.57764 0.54010 -0.02200
C 	C 	0.95218 0.53790 0.53098 0.02000
C 	C 	0.85713 0.49452 0.49498 -0.00300
C 	C 	0.84271 0.47452 0.52034 -0.06000
C 	C 	0.89001 0.50008 0.53849 -0.02600
H 	H 	0.12278 0.66420 0.44630 0.03200
H 	H 	0.01849 0.63198 0.46241 0.04600
H 	H 	0.17061 0.61454 0.51799 0.04400
H 	H 	0.09625 0.58318 0.55344 0.03700
H 	H 	0.82123 0.47562 0.48077 0.04100
H 	H 	0.87892 0.48646 0.55825 0.04500
C 	C 	0.54982 0.43859 0.53728 -0.07300
C 	C 	0.55089 0.45030 0.51115 0.00800
C 	C 	0.50710 0.46349 0.50034 -0.05300
C 	C 	0.46069 0.46444 0.51552 0.00600
C 	C 	0.46406 0.46021 0.54219 0.00700
C 	C 	0.50746 0.44541 0.55288 -0.01700
C 	C 	0.42557 0.47305 0.55785 -0.04100
C 	C 	0.38578 0.49260 0.54731 -0.04000
C 	C 	0.38063 0.49504 0.52093 0.00900
C 	C 	0.41418 0.47551 0.50494 0.00700
C 	C 	0.39985 0.46695 0.47891 -0.05000
C 	C 	0.36270 0.48993 0.46843 0.00600
C 	C 	0.33817 0.51984 0.48381 -0.07200
C 	C 	0.34360 0.51839 0.51022 -0.01200
H 	H 	0.58464 0.44725 0.49902 0.02800
H 	H 	0.51108 0.47542 0.48039 0.04400
H 	H 	0.50798 0.43877 0.57320 0.04200
H 	H 	0.42808 0.47019 0.57826 0.03900
H 	H 	0.35874 0.50558 0.55969 0.03900
H 	H 	0.41638 0.44181 0.46689 0.04400
H 	H 	0.35586 0.48775 0.44812 0.04100
H 	H 	0.32218 0.53891 0.52223 0.03900
C 	C 	0.61515 0.13102 0.59557 -0.09400
C 	C 	0.63112 0.13942 0.62129 0.01900
C 	C 	0.65257 0.10122 0.63282 -0.06300
C 	C 	0.65805 0.05425 0.61875 0.02400
C 	C 	0.63537 0.04094 0.59393 -0.06500
C 	C 	0.61362 0.07900 0.58243 0.01800
C 	C 	0.69664 0.02764 0.62839 0.02200
C 	C 	0.68196 0.99432 0.65163 -0.05900
C 	C 	0.72569 0.98302 0.66381 -0.04800
C 	C 	0.78414 0.00469 0.65277 0.01100
C 	C 	0.79699 0.03325 0.62865 -0.03200
C 	C 	0.75335 0.04460 0.61646 -0.04100
C 	C 	0.83321 0.00588 0.66756 0.05400
C 	C 	0.87416 0.00848 0.68053 -0.10700
H 	H 	0.63132 0.17859 0.63183 0.03900
H 	H 	0.66895 0.11114 0.65216 0.05000
H 	H 	0.63776 0.00353 0.58311 0.04900
H 	H 	0.59869 0.07028 0.56293 0.03200
H 	H 	0.63799 0.98020 0.66084 0.03900
H 	H 	0.71518 0.96017 0.68235 0.03900
H 	H 	0.76500 0.06995 0.59843 0.04200
C 	C 	0.44066 0.22147 0.52828 -0.09000
C 	C 	0.41474 0.26071 0.53424 0.01400
C 	C 	0.35842 0.23436 0.54749 -0.06500
C 	C 	0.32718 0.16834 0.55408 0.02700
C 	C 	0.34682 0.12743 0.54334 -0.06400
C 	C 	0.40305 0.15397 0.53008 0.01900
C 	C 	0.28444 0.14553 0.57612 0.00300
C 	C 	0.22498 0.09146 0.57402 -0.03800
C 	C 	0.18768 0.06529 0.59564 -0.03000
C 	C 	0.20964 0.09295 0.61944 -0.00400
C 	C 	0.26846 0.14752 0.62147 -0.03200
C 	C 	0.30573 0.17367 0.59995 -0.03800
C 	C 	0.17129 0.06672 0.64176 0.05200
C 	C 	0.14011 0.04707 0.66077 -0.10100
H 	H 	0.44127 0.31248 0.53127 0.04000
H 	H 	0.34200 0.26608 0.55451 0.04900
H 	H 	0.32171 0.07593 0.54730 0.05100
H 	H 	0.42095 0.12266 0.52415 0.03800
H 	H 	0.20809 0.06920 0.55576 0.04400
H 	H 	0.14198 0.02343 0.59387 0.04600
H 	H 	0.28557 0.16945 0.63977 0.04200
H 	H 	0.35180 0.21484 0.60189 0.03900
C 	C 	0.74568 0.39206 0.62506 -0.08200
C 	C 	0.80184 0.44728 0.61884 0.01100
C 	C 	0.83147 0.49641 0.63662 -0.06300
C 	C 	0.80517 0.49024 0.66078 0.02600
C 	C 	0.75297 0.43174 0.66785 -0.06500
C 	C 	0.72324 0.38282 0.65002 0.01800
C 	C 	0.82569 0.54786 0.67675 0.00300
C 	C 	0.78561 0.57272 0.68133 -0.04000
C 	C 	0.80757 0.63256 0.69312 -0.03100
C 	C 	0.86961 0.66786 0.70044 -0.00800
C 	C 	0.88703 0.58184 0.68522 -0.04100
C 	C 	0.89456 0.73339 0.70895 0.04900
C 	C 	0.91727 0.78894 0.71548 -0.10700
H 	H 	0.82001 0.45433 0.59971 0.03000
H 	H 	0.87245 0.54096 0.63110 0.04500
H 	H 	0.73325 0.42584 0.68667 0.04700
H 	H 	0.68056 0.33956 0.65515 0.03300
H 	H 	0.73815 0.54684 0.67486 0.04200
H 	H 	0.77689 0.65241 0.69579 0.04000
C 	C 	0.17073 0.60563 0.99473 -0.07300
C 	C 	0.14893 0.61314 0.97128 0.00700
C 	C 	0.09318 0.56380 0.96178 -0.04700
C 	C 	0.05918 0.50539 0.97556 -0.00200
C 	C 	0.07841 0.50087 0.00035 0.01200
C 	C 	0.13464 0.55042 0.00953 -0.01600
C 	C 	0.96237 0.40479 0.98322 -0.00800
C 	C 	0.92476 0.40850 0.93369 0.02000
C 	C 	0.88063 0.37193 0.95227 -0.08400
C 	C 	0.90093 0.36351 0.97598 -0.00300
H 	H 	0.17613 0.65644 0.96002 0.03500
H 	H 	0.07585 0.57220 0.94424 0.04300
H 	H 	0.15133 0.54522 0.02787 0.04800
H 	H 	0.95180 0.36232 0.02046 0.03900
H 	H 	0.91035 0.41030 0.91452 0.03600
H 	H 	0.86744 0.33092 0.98977 0.03600
C 	C 	0.44635 0.86885 0.00162 -0.08600
C 	C 	0.43489 0.88882 0.97822 0.02700
C 	C 	0.46683 0.95417 0.97121 -0.09700
C 	C 	0.50975 0.00066 0.98798 0.07200
C 	C 	0.52772 0.97912 0.00972 -0.05700
C 	C 	0.49513 0.91336 0.01667 0.00900
C 	C 	0.57780 0.02347 0.02429 0.00700
C 	C 	0.61021 0.08886 0.01738 -0.06300
C 	C 	0.59037 0.11168 0.99688 0.03100
C 	C 	0.53741 0.06820 0.98303 -0.02100
C 	C 	0.51151 0.09356 0.96574 -0.03500
C 	C 	0.54334 0.15926 0.95938 -0.00300
C 	C 	0.60072 0.20080 0.97041 -0.05900
C 	C 	0.62264 0.17764 0.99009 -0.02700
H 	H 	0.39905 0.85415 0.96599 0.03200
H 	H 	0.45909 0.96796 0.95262 0.04800
H 	H 	0.50601 0.89726 0.03420 0.02600
H 	H 	0.59234 0.00712 0.04076 0.03300
H 	H 	0.65003 0.12206 0.02836 0.04700
H 	H 	0.46616 0.06329 0.95779 0.04400
H 	H 	0.52438 0.17755 0.94517 0.04000
H 	H 	0.66586 0.21012 0.99934 0.04900
C 	C 	0.48988 0.63676 0.04852 -0.07000
C 	C 	0.47506 0.57258 0.05345 0.00600
C 	C 	0.50502 0.54502 0.04008 -0.05200
C 	C 	0.54954 0.58157 0.02132 0.00600
C 	C 	0.57276 0.64923 0.02027 0.00900
C 	C 	0.54305 0.67660 0.03411 -0.01800
C 	C 	0.62358 0.68828 0.00466 -0.04100
C 	C 	0.64960 0.66049 0.98912 -0.04000
C 	C 	0.62330 0.59299 0.98797 0.00900
C 	C 	0.57173 0.55262 0.00357 0.00500
C 	C 	0.54091 0.48506 0.99960 -0.05000
C 	C 	0.56531 0.45810 0.98272 0.00300
C 	C 	0.61936 0.49787 0.96886 -0.06700
C 	C 	0.64709 0.56534 0.97092 -0.01700
H 	H 	0.43831 0.54309 0.06667 0.03700
H 	H 	0.49447 0.49626 0.04478 0.04300
H 	H 	0.55791 0.72768 0.03196 0.04200
H 	H 	0.64276 0.74034 0.00440 0.03800
H 	H 	0.68921 0.69152 0.97732 0.03700
H 	H 	0.49702 0.45347 0.00869 0.04300
H 	H 	0.54226 0.40604 0.98050 0.03800
H 	H 	0.68781 0.59625 0.95965 0.04300
C 	C 	0.83388 0.42168 0.85362 -0.09500
C 	C 	0.79998 0.38229 0.83335 0.01700
C 	C 	0.82658 0.35538 0.81754 -0.06700
C 	C 	0.88755 0.36867 0.82169 0.02800
C 	C 	0.92400 0.41545 0.83956 -0.06800
C 	C 	0.89725 0.44201 0.85544 0.01900
C 	C 	0.90929 0.32628 0.81067 0.00100
C 	C 	0.91328 0.32192 0.78430 -0.03900
C 	C 	0.92915 0.27784 0.77395 -0.03300
C 	C 	0.94108 0.23788 0.78988 -0.00300
C 	C 	0.93809 0.24289 0.81620 -0.03300
C 	C 	0.92221 0.28686 0.82657 -0.03800
C 	C 	0.95524 0.19093 0.77917 0.04300
H 	H 	0.75136 0.36744 0.83140 0.03400
H 	H 	0.79843 0.32058 0.80333 0.04800
H 	H 	0.97178 0.42774 0.84234 0.04600
H 	H 	0.92438 0.47393 0.87059 0.02800
H 	H 	0.90343 0.35208 0.77187 0.04000
H 	H 	0.93159 0.27434 0.75357 0.04200
H 	H 	0.94735 0.21224 0.82862 0.04200
H 	H 	0.91875 0.28946 0.84695 0.04100
C 	C 	0.57845 0.31482 0.86252 -0.08200
C 	C 	0.59270 0.32428 0.83659 0.01800
C 	C 	0.54573 0.30808 0.81890 -0.06500
C 	C 	0.48398 0.28132 0.82699 0.02800
C 	C 	0.46947 0.26906 0.85288 -0.06400
C 	C 	0.51663 0.28630 0.87058 0.01500
C 	C 	0.43443 0.26541 0.80836 0.00300
C 	C 	0.39265 0.28872 0.81153 -0.03800
C 	C 	0.34107 0.26678 0.79581 -0.03200
C 	C 	0.33146 0.22217 0.77667 -0.00400
C 	C 	0.37573 0.20292 0.77225 -0.03100
C 	C 	0.42678 0.22401 0.78815 -0.03800
C 	C 	0.27167 0.18660 0.76517 0.04800
C 	C 	0.22151 0.15208 0.75624 -0.09500
H 	H 	0.64043 0.34694 0.83024 0.03400
H 	H 	0.55744 0.31752 0.79897 0.04700
H 	H 	0.42180 0.24705 0.85928 0.04900
H 	H 	0.50528 0.27902 0.89060 0.03000
H 	H 	0.39902 0.32205 0.82667 0.04200
H 	H 	0.30722 0.28219 0.79925 0.04200
H 	H 	0.36873 0.16865 0.75739 0.04400
H 	H 	0.45903 0.20619 0.78537 0.04200
C 	C 	0.86612 0.61061 0.94749 -0.09000
C 	C 	0.92557 0.63397 0.93708 0.01800
C 	C 	0.95531 0.69457 0.92510 -0.06600
C 	C 	0.92669 0.73296 0.92451 0.02700
C 	C 	0.87482 0.71574 0.94017 -0.06800
C 	C 	0.84466 0.65454 0.95176 0.01400
C 	C 	0.94086 0.77982 0.90342 -0.00700
C 	C 	0.89354 0.77172 0.88676 -0.03700
C 	C 	0.90786 0.80751 0.86426 -0.03300
C 	C 	0.96953 0.85146 0.85803 -0.01300
C 	C 	0.01675 0.86195 0.87506 -0.02600
C 	C 	0.00246 0.82652 0.89778 -0.03100
C 	C 	0.98414 0.88273 0.83349 0.04100
C 	C 	0.99288 0.90660 0.81258 -0.09800
H 	H 	0.94469 0.60182 0.93515 0.03200
H 	H 	0.99711 0.70855 0.91419 0.04500
H 	H 	0.85439 0.74683 0.94127 0.04400
H 	H 	0.80082 0.63867 0.96134 0.03300
H 	H 	0.84592 0.73562 0.89070 0.03800
H 	H 	0.87108 0.79952 0.85128 0.04000
H 	H 	0.03936 0.83383 0.91056 0.03800
O 	O 	0.00289 0.89434 0.71391 -0.37800
O 	O 	0.03533 0.13009 0.74588 -0.37500
H 	H 	0.84186 0.04951 0.61989 0.04200
C 	C 	0.91862 0.53560 0.48746 -0.04400
Ni	Ni	0.88487 0.89461 0.22834 1.12100
O 	O 	0.00654 0.09133 0.25786 -0.36400
C 	C 	0.98206 0.40100 0.00768 -0.04500
H 	H 	0.01984 0.47762 0.92610 0.05700
H 	H 	0.98845 0.53664 0.56804 0.04100
O 	O 	0.93311 0.85181 0.24167 -0.38000
C 	C 	0.99900 0.93261 0.78742 0.29300
O 	O 	0.89996 0.88046 0.19210 -0.39100
C 	C 	0.90892 0.64171 0.69703 -0.03100
C 	C 	0.96692 0.15198 0.76973 -0.09200
C 	C 	0.94729 0.85557 0.72268 0.32000
C 	C 	0.92196 0.01255 0.69681 0.34900
C 	C 	0.98079 0.10675 0.75747 0.29700
O 	O 	0.02695 0.91571 0.76973 -0.36200
O 	O 	0.96825 0.06997 0.70250 -0.39300
Ni	Ni	0.94037 0.05010 0.22972 1.11300
O 	O 	0.95352 0.97911 0.23119 -0.73200
H 	H 	0.96153 0.97921 0.24944 0.15000
C 	C 	0.99959 0.55090 0.54835 -0.05900
C 	C 	0.96708 0.55773 0.50535 -0.01300
H 	H 	0.92843 0.54584 0.46750 0.03800
H 	H 	0.95692 0.66867 0.70277 0.03800
H 	H 	0.91818 0.56283 0.68195 0.03900
C 	C 	0.04047 0.44768 0.01591 -0.03400
C 	C 	0.00328 0.45349 0.96623 0.03700
C 	C 	0.98618 0.44954 0.94059 -0.08300
H 	H 	0.05527 0.44384 0.03482 0.04000
H 	H 	0.06454 0.89636 0.87049 0.03800
