data_crystal

_cell_length_a 29.24641
_cell_length_b 31.31487
_cell_length_c 17.13857
_cell_angle_alpha 95.53451
_cell_angle_beta  95.52704
_cell_angle_gamma 125.56449

_symmetry_space_group_name_	'P 1'
_symmetry_space_group_name_H-M	'P 1'

loop_
_symmetry_equiv_pos_as_xyz
  x,y,z

loop_
_atom_site_label
_atom_site_type_symbol
_atom_site_fract_x
_atom_site_fract_y
_atom_site_fract_z
_atom_site_charge
C 	C 	0.97907 0.02657 0.10917 0.04200
C 	C 	0.95036 0.97222 0.11274 -0.08100
C 	C 	0.97589 0.94671 0.09581 0.04000
C 	C 	0.03033 0.97580 0.07555 -0.08300
C 	C 	0.05913 0.02999 0.07193 0.02800
C 	C 	0.03390 0.05556 0.08989 -0.08100
H 	H 	0.90780 0.94960 0.12683 0.05000
H 	H 	0.04953 0.95590 0.06021 0.05300
H 	H 	0.05574 0.09724 0.08545 0.05200
C 	C 	0.92409 0.97794 0.30548 0.01800
C 	C 	0.89605 0.92326 0.30596 -0.06900
C 	C 	0.92788 0.90296 0.31475 0.02400
C 	C 	0.98744 0.93708 0.32045 -0.05700
C 	C 	0.01554 0.99165 0.32074 0.01000
C 	C 	0.98371 0.01175 0.31146 -0.05200
H 	H 	0.85018 0.89724 0.30340 0.04700
H 	H 	0.01216 0.92166 0.32891 0.04200
H 	H 	0.00554 0.05408 0.31230 0.04100
Cu	Cu	0.65263 0.26283 0.99930 0.91700
Cu	Cu	0.75139 0.29727 0.89247 0.84900
Cu	Cu	0.69898 0.34960 0.89842 0.88700
Cu	Cu	0.62886 0.35039 0.01655 0.90400
C 	C 	0.63725 0.29959 0.14564 0.19200
O 	O 	0.56780 0.22022 0.95398 -0.37000
C 	C 	0.72366 0.32624 0.74635 0.19600
O 	O 	0.68955 0.34510 0.00725 -0.62400
O 	O 	0.67392 0.27508 0.89368 -0.65100
O 	O 	0.69219 0.23093 0.02947 -0.36100
O 	O 	0.77559 0.29990 0.00131 -0.43000
O 	O 	0.60640 0.31199 0.10742 -0.34700
O 	O 	0.72894 0.42430 0.90882 -0.39000
C 	C 	0.71556 0.44775 0.96030 0.29800
C 	C 	0.54583 0.24057 0.91547 0.28700
O 	O 	0.57923 0.29089 0.90861 -0.39600
O 	O 	0.66519 0.42038 0.98194 -0.40600
O 	O 	0.64436 0.26547 0.10863 -0.31400
C 	C 	0.74749 0.25701 0.03330 0.29400
O 	O 	0.70133 0.34639 0.78539 -0.34700
O 	O 	0.74914 0.30790 0.78314 -0.39800
H 	H 	0.72526 0.37099 0.04685 0.16100
H 	H 	0.64455 0.24935 0.84630 0.17500
Cu	Cu	0.72564 0.33320 0.37039 0.92800
Cu	Cu	0.73638 0.28330 0.52345 0.86200
Cu	Cu	0.66517 0.31986 0.51195 0.89300
Cu	Cu	0.63034 0.35146 0.37019 0.89400
C 	C 	0.65676 0.31766 0.22382 0.19300
O 	O 	0.76882 0.41297 0.37305 -0.36400
C 	C 	0.72084 0.32439 0.66778 0.18900
O 	O 	0.64434 0.30253 0.39768 -0.63900
O 	O 	0.74113 0.34278 0.48810 -0.64200
O 	O 	0.75472 0.29072 0.34514 -0.37200
O 	O 	0.70300 0.23348 0.42562 -0.44500
O 	O 	0.64725 0.35020 0.26038 -0.35800
O 	O 	0.58840 0.29171 0.52850 -0.38100
C 	C 	0.55280 0.29529 0.48121 0.29000
C 	C 	0.75600 0.44121 0.41384 0.28500
O 	O 	0.71019 0.41663 0.44601 -0.39200
O 	O 	0.57203 0.33304 0.43793 -0.39400
O 	O 	0.69528 0.31255 0.25854 -0.32600
C 	C 	0.73161 0.24436 0.36710 0.29500
O 	O 	0.68929 0.33592 0.62823 -0.34300
O 	O 	0.75405 0.31616 0.63270 -0.39000
H 	H 	0.61287 0.26443 0.37585 0.16300
H 	H 	0.77373 0.37877 0.51746 0.17600
C 	C 	0.90029 0.84787 0.32830 -0.00100
C 	C 	0.91517 0.83928 0.40239 -0.03500
C 	C 	0.89618 0.78797 0.41219 -0.04600
C 	C 	0.86213 0.74483 0.34812 0.01800
C 	C 	0.84523 0.75286 0.27490 -0.04500
C 	C 	0.86381 0.80425 0.26528 -0.03400
C 	C 	0.84579 0.69268 0.35736 -0.01500
C 	C 	0.83298 0.64965 0.36737 -0.02800
C 	C 	0.81803 0.59868 0.38124 0.04000
C 	C 	0.80444 0.58352 0.45478 -0.07300
C 	C 	0.78731 0.53307 0.46719 0.01500
C 	C 	0.78364 0.49737 0.40606 -0.09400
C 	C 	0.79949 0.51354 0.33346 0.01600
C 	C 	0.81643 0.56396 0.32110 -0.07300
H 	H 	0.94276 0.87263 0.45170 0.03700
H 	H 	0.90887 0.78194 0.46919 0.04000
H 	H 	0.81853 0.71960 0.22521 0.04300
H 	H 	0.85121 0.81036 0.20835 0.04200
H 	H 	0.80624 0.61045 0.50189 0.04700
H 	H 	0.77560 0.52128 0.52360 0.03000
H 	H 	0.79650 0.48632 0.28552 0.03300
H 	H 	0.82729 0.57557 0.26429 0.04700
C 	C 	0.74550 0.20850 0.33555 -0.10000
C 	C 	0.70636 0.15305 0.33059 0.01800
C 	C 	0.72315 0.11992 0.31450 -0.07600
C 	C 	0.77918 0.14200 0.30374 0.04100
C 	C 	0.81723 0.19685 0.30392 -0.07400
C 	C 	0.80026 0.22992 0.31877 0.01800
C 	C 	0.79969 0.10986 0.30242 -0.03000
C 	C 	0.81769 0.08363 0.30124 -0.01400
C 	C 	0.84129 0.05417 0.30421 0.01600
C 	C 	0.88329 0.06833 0.36937 -0.04400
C 	C 	0.90843 0.04175 0.37132 -0.03800
C 	C 	0.89226 0.00110 0.30755 0.00400
C 	C 	0.84887 0.98575 0.24330 -0.03900
C 	C 	0.82339 0.01224 0.24171 -0.04000
H 	H 	0.66357 0.13586 0.34167 0.02700
H 	H 	0.69329 0.07744 0.31361 0.04700
H 	H 	0.86048 0.21413 0.29487 0.04900
H 	H 	0.83062 0.27250 0.32113 0.03000
H 	H 	0.89698 0.10042 0.41816 0.03700
H 	H 	0.94138 0.05348 0.42163 0.03600
H 	H 	0.79078 0.00097 0.19120 0.04100
C 	C 	0.07841 0.02880 0.34231 0.00300
C 	C 	0.11236 0.02585 0.29275 -0.03500
C 	C 	0.17198 0.05926 0.31582 -0.04700
C 	C 	0.19787 0.09557 0.38863 0.01800
C 	C 	0.16406 0.09887 0.43774 -0.04600
C 	C 	0.10455 0.06563 0.41473 -0.03800
C 	C 	0.25913 0.12974 0.41285 -0.01500
C 	C 	0.31040 0.15860 0.43385 -0.02800
C 	C 	0.37165 0.19381 0.45813 0.04200
C 	C 	0.40084 0.24912 0.46581 -0.07300
C 	C 	0.46059 0.28301 0.47940 0.02000
C 	C 	0.49158 0.26173 0.48513 -0.09200
C 	C 	0.46231 0.20665 0.48271 0.01700
C 	C 	0.40246 0.17275 0.46886 -0.07300
H 	H 	0.09258 0.99746 0.23690 0.03700
H 	H 	0.19795 0.05680 0.27725 0.04200
H 	H 	0.18384 0.12701 0.49394 0.03900
H 	H 	0.07866 0.06793 0.45362 0.03500
H 	H 	0.37724 0.26573 0.45880 0.04800
H 	H 	0.48272 0.32559 0.48276 0.03200
H 	H 	0.48574 0.18978 0.48748 0.02200
H 	H 	0.38012 0.13004 0.46396 0.04700
C 	C 	0.75200 0.50646 0.98149 -0.13500
C 	C 	0.77781 0.53782 0.92403 0.04400
C 	C 	0.80815 0.59336 0.94297 -0.11800
C 	C 	0.81305 0.61781 0.01942 0.08600
C 	C 	0.78902 0.58677 0.07758 -0.09900
C 	C 	0.75860 0.53130 0.05876 0.06000
C 	C 	0.84002 0.67429 0.03693 -0.04100
C 	C 	0.86259 0.72158 0.05165 0.00300
C 	C 	0.88890 0.77794 0.06812 0.00400
C 	C 	0.94137 0.81294 0.12104 -0.04000
C 	C 	0.96861 0.86804 0.13312 -0.03000
C 	C 	0.94360 0.88848 0.09197 -0.00200
C 	C 	0.89008 0.85311 0.04103 -0.04500
C 	C 	0.86285 0.79805 0.02927 -0.01300
H 	H 	0.77307 0.51915 0.86425 0.02800
H 	H 	0.82687 0.61721 0.89779 0.05400
H 	H 	0.79304 0.60548 0.13698 0.05500
H 	H 	0.73961 0.50756 0.10394 0.01400
H 	H 	0.96132 0.79756 0.15221 0.04200
H 	H 	0.00969 0.89489 0.17297 0.03300
H 	H 	0.87047 0.86837 0.00865 0.04300
H 	H 	0.82204 0.77113 0.98876 0.01400
C 	C 	0.94936 0.05159 0.11711 -0.01000
C 	C 	0.97312 0.09750 0.17534 -0.02300
C 	C 	0.94764 0.12394 0.17779 -0.04800
C 	C 	0.89856 0.10483 0.12178 0.02300
C 	C 	0.87375 0.05804 0.06540 -0.04900
C 	C 	0.89900 0.03148 0.06305 -0.02700
C 	C 	0.87550 0.13477 0.11883 -0.01500
C 	C 	0.85495 0.15870 0.11440 -0.02600
C 	C 	0.82958 0.18638 0.10589 0.04100
C 	C 	0.77080 0.15912 0.10367 -0.07000
C 	C 	0.74454 0.18341 0.08476 0.02000
C 	C 	0.77673 0.23489 0.06601 -0.09400
C 	C 	0.83629 0.26322 0.07267 0.01400
C 	C 	0.86252 0.23896 0.09245 -0.07300
H 	H 	0.01180 0.11320 0.21762 0.03000
H 	H 	0.96662 0.15971 0.22224 0.04200
H 	H 	0.83549 0.04277 0.02242 0.04300
H 	H 	0.88021 0.99602 0.01804 0.03500
H 	H 	0.74520 0.11869 0.11503 0.05100
H 	H 	0.69887 0.16147 0.08211 0.04100
H 	H 	0.86207 0.30343 0.06060 0.02800
H 	H 	0.90817 0.26050 0.09499 0.04700
C 	C 	0.11338 0.05853 0.04246 0.03000
C 	C 	0.11311 0.04888 0.96068 -0.07500
C 	C 	0.16469 0.07164 0.93332 -0.02400
C 	C 	0.21680 0.10413 0.98752 -0.02300
C 	C 	0.21719 0.11494 0.06903 -0.00500
C 	C 	0.16559 0.09225 0.09644 -0.05700
C 	C 	0.26972 0.12465 0.96006 -0.00700
C 	C 	0.31445 0.14216 0.93812 -0.03900
C 	C 	0.36866 0.16344 0.91432 0.04400
C 	C 	0.40311 0.21650 0.90338 -0.07600
C 	C 	0.46000 0.24059 0.89586 0.01400
C 	C 	0.48307 0.21184 0.90033 -0.09500
C 	C 	0.44670 0.15715 0.90348 0.01900
C 	C 	0.38982 0.13319 0.91106 -0.07600
H 	H 	0.07293 0.02292 0.91862 0.04000
H 	H 	0.16408 0.06329 0.87022 0.03200
H 	H 	0.25736 0.14020 0.11125 0.03600
H 	H 	0.16615 0.10000 0.15963 0.04500
H 	H 	0.38664 0.23983 0.90426 0.04400
H 	H 	0.48690 0.28238 0.89114 0.02300
H 	H 	0.46320 0.13388 0.90405 0.03000
H 	H 	0.36299 0.09176 0.91779 0.04600
H 	H 	0.83602 0.95443 0.19377 0.03700
