data_crystal

_cell_length_a 26.01949
_cell_length_b 26.44859
_cell_length_c 34.39007
_cell_angle_alpha 95.48921
_cell_angle_beta  95.48629
_cell_angle_gamma 125.82554

_symmetry_space_group_name_	'P 1'
_symmetry_space_group_name_H-M	'P 1'

loop_
_symmetry_equiv_pos_as_xyz
  x,y,z

loop_
_atom_site_label
_atom_site_type_symbol
_atom_site_fract_x
_atom_site_fract_y
_atom_site_fract_z
_atom_site_charge
C 	C 	0.94268 0.99946 0.97387 0.14000
C 	C 	0.90493 0.93821 0.98249 -0.10100
C 	C 	0.93117 0.90522 0.98735 0.13300
C 	C 	0.99589 0.93418 0.98470 -0.10000
C 	C 	0.03343 0.99472 0.97481 0.13700
C 	C 	0.00644 0.02709 0.96894 -0.10600
H 	H 	0.85516 0.91619 0.98525 0.10700
H 	H 	0.01645 0.90896 0.98915 0.10600
H 	H 	0.03516 0.07383 0.96124 0.11000
C 	C 	0.96035 0.02124 0.47482 0.11400
C 	C 	0.93311 0.95879 0.48013 -0.08000
C 	C 	0.97111 0.93703 0.48209 0.12000
C 	C 	0.03698 0.97882 0.48095 -0.08500
C 	C 	0.06377 0.04053 0.47477 0.11900
C 	C 	0.02519 0.06123 0.47084 -0.08600
H 	H 	0.88264 0.92724 0.48238 0.10700
H 	H 	0.06680 0.96262 0.48348 0.10400
H 	H 	0.04604 0.10902 0.46592 0.10400
Cu	Cu	0.63339 0.23463 0.99602 0.93000
Cu	Cu	0.68356 0.25340 0.91253 0.90700
Cu	Cu	0.63581 0.33102 0.95276 0.92000
Cu	Cu	0.60259 0.32703 0.03384 0.91800
C 	C 	0.64550 0.26632 0.08042 0.33200
O 	O 	0.53602 0.17773 0.99399 -0.32400
C 	C 	0.65552 0.32802 0.87396 0.33500
O 	O 	0.66285 0.32875 0.00631 -0.63000
O 	O 	0.61942 0.24684 0.94122 -0.63000
O 	O 	0.69646 0.21435 0.99125 -0.34000
O 	O 	0.67063 0.17913 0.92426 -0.37300
O 	O 	0.60168 0.27602 0.07297 -0.34300
O 	O 	0.65785 0.41522 0.96420 -0.33500
C 	C 	0.66441 0.44431 0.99973 0.31700
C 	C 	0.49996 0.19636 0.98409 0.32000
O 	O 	0.52690 0.25688 0.98471 -0.36900
O 	O 	0.62921 0.41238 0.02573 -0.33300
O 	O 	0.65712 0.23946 0.05178 -0.31800
C 	C 	0.69379 0.17946 0.95991 0.33500
O 	O 	0.61974 0.33143 0.89685 -0.33200
O 	O 	0.70172 0.32504 0.88936 -0.38200
H 	H 	0.70876 0.36309 0.01786 0.19900
H 	H 	0.57527 0.21321 0.92621 0.19900
Cu	Cu	0.75614 0.35406 0.45755 0.93800
Cu	Cu	0.70799 0.27839 0.53026 0.89300
Cu	Cu	0.65746 0.34057 0.50402 0.90400
Cu	Cu	0.64367 0.36095 0.42068 0.92500
C 	C 	0.71989 0.33915 0.37370 0.33100
O 	O 	0.79777 0.44847 0.45968 -0.31800
C 	C 	0.67725 0.33874 0.58880 0.32900
O 	O 	0.65624 0.31073 0.44955 -0.63300
O 	O 	0.74320 0.35861 0.51271 -0.63900
O 	O 	0.79618 0.30951 0.46404 -0.32300
O 	O 	0.70743 0.23101 0.48473 -0.39200
O 	O 	0.70081 0.37462 0.38192 -0.33900
O 	O 	0.57617 0.32947 0.49541 -0.34100
C 	C 	0.53421 0.30208 0.46171 0.33500
C 	C 	0.76897 0.47402 0.47044 0.32000
O 	O 	0.70684 0.43733 0.47088 -0.37100
O 	O 	0.55302 0.31451 0.42744 -0.33900
O 	O 	0.75288 0.33311 0.40190 -0.32200
C 	C 	0.76162 0.25218 0.47234 0.33100
O 	O 	0.66118 0.36055 0.56074 -0.34100
O 	O 	0.70497 0.31073 0.58188 -0.36600
H 	H 	0.62511 0.26420 0.44033 0.19300
H 	H 	0.77674 0.39780 0.53217 0.21400
C 	C 	0.67099 0.35234 0.62994 -0.10300
C 	C 	0.60937 0.32440 0.63961 0.12500
C 	C 	0.60282 0.32749 0.67977 0.07000
C 	C 	0.65720 0.35506 0.71008 0.02100
C 	C 	0.71918 0.38691 0.70042 0.06900
C 	C 	0.72612 0.38758 0.66039 0.12800
C 	C 	0.64869 0.34517 0.75140 0.02100
C 	C 	0.65919 0.39355 0.78015 0.06900
C 	C 	0.66063 0.38791 0.82048 0.13100
C 	C 	0.64717 0.33191 0.83163 -0.11100
C 	C 	0.63035 0.28112 0.80228 0.12800
C 	C 	0.63345 0.28856 0.76245 0.06800
Br	Br	0.79409 0.42676 0.74191 -0.11300
Br	Br	0.53376 0.27886 0.59800 -0.13400
Br	Br	0.68462 0.45812 0.86055 -0.11600
Br	Br	0.61920 0.22224 0.72323 -0.11700
Br	Br	0.81095 0.43831 0.64716 -0.13300
Br	Br	0.51937 0.29259 0.69340 -0.10200
Br	Br	0.67212 0.46758 0.76418 -0.10000
Br	Br	0.60122 0.20071 0.81658 -0.19500
C 	C 	0.67286 0.27506 0.12224 -0.10500
C 	C 	0.70536 0.33485 0.14709 0.12500
C 	C 	0.71654 0.34043 0.18860 0.06900
C 	C 	0.70128 0.28754 0.20520 0.02100
C 	C 	0.67737 0.23005 0.18004 0.07000
C 	C 	0.65997 0.22267 0.13871 0.13000
C 	C 	0.70495 0.29079 0.24879 0.02100
C 	C 	0.76517 0.32233 0.27422 0.07000
C 	C 	0.77080 0.33845 0.31543 0.13200
C 	C 	0.71480 0.31627 0.33165 -0.10400
C 	C 	0.65369 0.27722 0.30655 0.12600
C 	C 	0.64893 0.26725 0.26507 0.06900
Br	Br	0.66751 0.16136 0.20241 -0.10000
Br	Br	0.73511 0.40916 0.12404 -0.17300
Br	Br	0.85527 0.39573 0.34868 -0.10500
Br	Br	0.56626 0.22445 0.23053 -0.11100
Br	Br	0.61409 0.13994 0.10544 -0.10100
Br	Br	0.74922 0.41937 0.22276 -0.11000
Br	Br	0.83984 0.34419 0.25243 -0.10000
Br	Br	0.57654 0.23676 0.32918 -0.17300
C 	C 	0.80245 0.54293 0.47312 -0.10600
C 	C 	0.77299 0.56476 0.45090 0.13200
C 	C 	0.79917 0.62932 0.45820 0.06700
C 	C 	0.86063 0.67381 0.48210 0.02400
C 	C 	0.89286 0.65273 0.50193 0.06900
C 	C 	0.86210 0.58717 0.49925 0.12800
C 	C 	0.89314 0.74258 0.48369 0.01100
C 	C 	0.91811 0.76982 0.45064 0.08000
C 	C 	0.93737 0.83123 0.44862 0.09300
C 	C 	0.94116 0.86923 0.48211 -0.04800
C 	C 	0.92051 0.84356 0.51642 0.09400
C 	C 	0.89337 0.77928 0.51638 0.08100
Br	Br	0.97954 0.71350 0.53170 -0.10500
Br	Br	0.70130 0.50786 0.40747 -0.17300
Br	Br	0.95430 0.86177 0.39922 -0.11300
Br	Br	0.85451 0.74090 0.56031 -0.10800
Br	Br	0.89981 0.55821 0.53291 -0.14100
Br	Br	0.75061 0.65690 0.43579 -0.10800
Br	Br	0.92634 0.72299 0.40834 -0.10800
Br	Br	0.93186 0.89695 0.56385 -0.11900
C 	C 	0.78626 0.21385 0.47128 -0.11300
C 	C 	0.78056 0.18006 0.50212 0.13100
C 	C 	0.79741 0.13842 0.49872 0.06700
C 	C 	0.83298 0.14080 0.46968 0.02400
C 	C 	0.84322 0.17819 0.44050 0.06700
C 	C 	0.81485 0.20998 0.43930 0.13000
C 	C 	0.86354 0.10796 0.47172 0.00900
C 	C 	0.91671 0.13143 0.50211 0.08100
C 	C 	0.94199 0.09728 0.50609 0.09100
C 	C 	0.92236 0.04638 0.47575 -0.04600
C 	C 	0.87081 0.02428 0.44434 0.09000
C 	C 	0.83852 0.05228 0.44406 0.08200
Br	Br	0.89836 0.18825 0.40346 -0.10800
Br	Br	0.75926 0.19751 0.55142 -0.20300
Br	Br	0.00068 0.11780 0.55399 -0.11600
Br	Br	0.75931 0.01355 0.40669 -0.11000
Br	Br	0.80940 0.24200 0.39220 -0.11700
Br	Br	0.77155 0.07791 0.53365 -0.11000
Br	Br	0.95687 0.21183 0.53695 -0.11400
Br	Br	0.84753 0.95920 0.40038 -0.11400
C 	C 	0.13255 0.08362 0.47240 -0.05100
C 	C 	0.17928 0.11954 0.50746 0.09400
C 	C 	0.24514 0.15804 0.50537 0.07900
C 	C 	0.26428 0.16015 0.46825 0.01100
C 	C 	0.21748 0.12557 0.43310 0.08000
C 	C 	0.15161 0.08750 0.43517 0.09400
C 	C 	0.33353 0.19663 0.46632 0.02500
C 	C 	0.36846 0.26050 0.46180 0.06800
C 	C 	0.43442 0.29520 0.46018 0.13300
C 	C 	0.46532 0.26594 0.46297 -0.10800
C 	C 	0.43051 0.20225 0.46769 0.13100
C 	C 	0.36457 0.16750 0.46923 0.06800
Br	Br	0.24396 0.12983 0.38224 -0.10800
Br	Br	0.15285 0.11523 0.55832 -0.11700
Br	Br	0.48289 0.38315 0.45493 -0.11800
Br	Br	0.31647 0.07993 0.47532 -0.11300
Br	Br	0.08730 0.04020 0.38710 -0.11700
Br	Br	0.30943 0.20740 0.55329 -0.10400
Br	Br	0.32575 0.30024 0.45794 -0.10600
Br	Br	0.47343 0.16274 0.47195 -0.18200
C 	C 	0.88971 0.83881 0.99301 -0.06400
C 	C 	0.85839 0.78895 0.95980 0.10000
C 	C 	0.82091 0.72561 0.96521 0.06900
C 	C 	0.81249 0.71201 0.00371 0.02200
C 	C 	0.84149 0.76187 0.03678 0.07600
C 	C 	0.88094 0.82529 0.03149 0.10500
C 	C 	0.77485 0.64530 0.00943 0.02000
C 	C 	0.70709 0.60834 0.00432 0.07500
C 	C 	0.67051 0.54235 0.00253 0.13300
C 	C 	0.70190 0.51380 0.00730 -0.09600
C 	C 	0.76975 0.55164 0.01590 0.12500
C 	C 	0.80625 0.61725 0.01646 0.07200
Br	Br	0.82699 0.74303 0.08918 -0.10100
Br	Br	0.86573 0.80762 0.90686 -0.11400
Br	Br	0.57751 0.49072 0.99175 -0.12300
Br	Br	0.89922 0.66850 0.02540 -0.10700
Br	Br	0.92343 0.89378 0.07684 -0.11400
Br	Br	0.78180 0.65727 0.92001 -0.10600
Br	Br	0.66466 0.64811 0.99882 -0.11300
Br	Br	0.81251 0.51325 0.02663 -0.16000
C 	C 	0.91551 0.03507 0.97097 -0.06500
C 	C 	0.88013 0.02766 0.93445 0.09400
C 	C 	0.84519 0.05286 0.93297 0.08000
C 	C 	0.84602 0.08592 0.96798 0.00400
C 	C 	0.88374 0.09576 0.00417 0.08500
C 	C 	0.91849 0.07038 0.00565 0.10200
C 	C 	0.80723 0.11038 0.96676 0.02600
C 	C 	0.83442 0.17187 0.95916 0.06600
C 	C 	0.79755 0.19495 0.95774 0.13000
C 	C 	0.73326 0.15641 0.96363 -0.11200
C 	C 	0.70643 0.09542 0.97197 0.13000
C 	C 	0.74330 0.07226 0.97339 0.06400
Br	Br	0.88691 0.14326 0.05175 -0.10400
Br	Br	0.87869 0.98186 0.88669 -0.11400
Br	Br	0.83516 0.27962 0.94803 -0.19000
Br	Br	0.70640 0.98832 0.98421 -0.10600
Br	Br	0.96899 0.08251 0.05534 -0.11400
Br	Br	0.79537 0.04142 0.88318 -0.11500
Br	Br	0.92215 0.22424 0.95056 -0.11200
Br	Br	0.61925 0.04384 0.98151 -0.12700
C 	C 	0.42890 0.14987 0.97360 -0.11700
C 	C 	0.39545 0.15345 0.94053 0.12900
C 	C 	0.33002 0.12777 0.93826 0.06500
C 	C 	0.29564 0.09062 0.96594 0.02500
C 	C 	0.32657 0.07785 0.99493 0.05300
C 	C 	0.39382 0.11013 0.00025 0.14000
C 	C 	0.22858 0.06881 0.96644 0.01200
C 	C 	0.21664 0.10057 0.99523 0.07400
C 	C 	0.15278 0.07578 0.99858 0.09300
C 	C 	0.10089 0.02369 0.97012 -0.06200
C 	C 	0.11341 0.99602 0.93891 0.10300
C 	C 	0.17663 0.01564 0.93872 0.07200
Br	Br	0.27687 0.01703 0.02769 -0.10300
Br	Br	0.43898 0.19201 0.89793 -0.15700
Br	Br	0.13640 0.11036 0.04356 -0.11400
Br	Br	0.19176 0.96811 0.90177 -0.10300
Br	Br	0.43793 0.10393 0.04582 -0.11500
Br	Br	0.28884 0.14702 0.89905 -0.10900
Br	Br	0.28782 0.17835 0.02972 -0.11300
Br	Br	0.04458 0.93364 0.89550 -0.11600
