data_crystal

_cell_length_a 30.01663
_cell_length_b 50.50043
_cell_length_c 22.95308
_cell_angle_alpha 90.00206
_cell_angle_beta  89.99973
_cell_angle_gamma 89.99776

_symmetry_space_group_name_	'P 1'
_symmetry_space_group_name_H-M	'P 1'

loop_
_symmetry_equiv_pos_as_xyz
  x,y,z

loop_
_atom_site_label
_atom_site_type_symbol
_atom_site_fract_x
_atom_site_fract_y
_atom_site_fract_z
_atom_site_charge
Cu	Cu	0.57651 0.33978 0.91125 0.92700
Cu	Cu	0.59365 0.32967 0.77145 0.86800
Cu	Cu	0.50633 0.31748 0.82776 0.89500
Cu	Cu	0.47824 0.32779 0.95237 0.89200
C 	C 	0.53508 0.37003 0.00169 0.28400
O 	O 	0.58288 0.30939 0.96811 -0.36200
C 	C 	0.54396 0.28418 0.73500 0.28600
O 	O 	0.50867 0.34327 0.88891 -0.64000
O 	O 	0.57172 0.31531 0.84436 -0.64200
O 	O 	0.62491 0.36263 0.88047 -0.37500
O 	O 	0.59387 0.36642 0.79039 -0.43800
O 	O 	0.50792 0.35008 0.01283 -0.38000
O 	O 	0.44327 0.32283 0.81316 -0.37700
C 	C 	0.41367 0.32714 0.85472 0.28300
C 	C 	0.55581 0.28899 0.96625 0.28300
O 	O 	0.51627 0.29140 0.94236 -0.38900
O 	O 	0.42188 0.32033 0.90924 -0.39000
O 	O 	0.57143 0.36643 0.97022 -0.36100
C 	C 	0.62024 0.37564 0.83133 0.28700
O 	O 	0.50813 0.29605 0.75611 -0.38600
O 	O 	0.58327 0.29591 0.73585 -0.41600
H 	H 	0.49783 0.36105 0.87748 0.16100
H 	H 	0.58216 0.29705 0.85201 0.17100
Cu	Cu	0.52435 0.59855 0.14892 0.92800
Cu	Cu	0.54106 0.61894 0.28286 0.86500
Cu	Cu	0.45129 0.61562 0.23255 0.89600
Cu	Cu	0.42202 0.58899 0.12295 0.89300
C 	C 	0.49517 0.55637 0.07463 0.28700
O 	O 	0.50946 0.62396 0.08348 -0.36000
C 	C 	0.47216 0.65393 0.32370 0.28400
O 	O 	0.46335 0.58541 0.18458 -0.64000
O 	O 	0.51256 0.62597 0.20833 -0.64300
O 	O 	0.58472 0.58796 0.17619 -0.37000
O 	O 	0.56103 0.58377 0.26969 -0.43700
O 	O 	0.45829 0.56970 0.06372 -0.38200
O 	O 	0.39404 0.60307 0.25863 -0.38700
C 	C 	0.36026 0.59728 0.22417 0.29200
C 	C 	0.47296 0.63839 0.08421 0.28300
O 	O 	0.43842 0.63082 0.11526 -0.39400
O 	O 	0.36655 0.58727 0.17147 -0.39100
O 	O 	0.52943 0.56799 0.10003 -0.35700
C 	C 	0.59084 0.57900 0.22928 0.28700
O 	O 	0.44308 0.64585 0.28435 -0.37900
O 	O 	0.51535 0.65027 0.31636 -0.41700
H 	H 	0.46262 0.56824 0.20540 0.16400
H 	H 	0.51490 0.64458 0.19511 0.17500
Cu	Cu	0.96031 0.38434 0.65691 0.93000
Cu	Cu	0.94088 0.37429 0.79508 0.86600
Cu	Cu	0.03150 0.37024 0.74625 0.89300
Cu	Cu	0.06316 0.38891 0.62989 0.89400
C 	C 	0.99359 0.42015 0.57105 0.29200
O 	O 	0.97382 0.35456 0.60068 -0.35500
C 	C 	0.00422 0.33922 0.84898 0.27700
O 	O 	0.02223 0.39767 0.68945 -0.64200
O 	O 	0.96906 0.36095 0.72472 -0.64100
O 	O 	0.90049 0.39793 0.67836 -0.37000
O 	O 	0.92278 0.40855 0.76997 -0.43700
O 	O 	0.02865 0.40475 0.56447 -0.38600
O 	O 	0.09061 0.38192 0.76866 -0.38700
C 	C 	0.12429 0.38663 0.73301 0.29100
C 	C 	0.00850 0.33896 0.60774 0.27600
O 	O 	0.04382 0.34749 0.63596 -0.39500
O 	O 	0.11791 0.39342 0.67795 -0.39100
O 	O 	0.95806 0.41156 0.59901 -0.35900
C 	C 	0.89430 0.41108 0.72696 0.29000
O 	O 	0.03553 0.34447 0.81002 -0.38100
O 	O 	0.96184 0.34438 0.83854 -0.41100
H 	H 	0.02450 0.41593 0.70488 0.16200
H 	H 	0.96439 0.34180 0.71774 0.17600
Cu	Cu	0.91727 0.64739 0.43403 0.92800
Cu	Cu	0.89049 0.67375 0.30804 0.87000
Cu	Cu	0.98296 0.67660 0.35510 0.89900
Cu	Cu	0.01931 0.65176 0.46464 0.88900
C 	C 	0.96100 0.60724 0.50189 0.28300
O 	O 	0.91861 0.67063 0.50600 -0.35900
C 	C 	0.94252 0.72019 0.28809 0.28800
O 	O 	0.98233 0.64475 0.40025 -0.63900
O 	O 	0.91977 0.67857 0.38238 -0.64200
O 	O 	0.86500 0.62952 0.39801 -0.37500
O 	O 	0.88945 0.63611 0.30532 -0.43500
O 	O 	0.99187 0.62462 0.51684 -0.38100
O 	O 	0.04360 0.67144 0.32833 -0.38000
C 	C 	0.07694 0.66349 0.36166 0.28500
C 	C 	0.94858 0.68939 0.51220 0.28200
O 	O 	0.98518 0.68896 0.48100 -0.38600
O 	O 	0.07309 0.66258 0.41906 -0.39500
O 	O 	0.92382 0.61486 0.47597 -0.35700
C 	C 	0.86569 0.62251 0.34289 0.28500
O 	O 	0.97815 0.70531 0.29725 -0.38300
O 	O 	0.90198 0.71021 0.29166 -0.41700
H 	H 	0.99010 0.62859 0.37801 0.16400
H 	H 	0.91238 0.69561 0.40140 0.17200
Cu	Cu	0.40684 0.84254 0.65566 0.92800
Cu	Cu	0.38525 0.83936 0.79562 0.86900
Cu	Cu	0.47465 0.82593 0.74878 0.89600
Cu	Cu	0.50767 0.83146 0.62446 0.89400
C 	C 	0.45096 0.87035 0.56393 0.28200
O 	O 	0.40443 0.80949 0.60570 -0.36300
C 	C 	0.43456 0.79671 0.84660 0.28600
O 	O 	0.47343 0.84876 0.68209 -0.63800
O 	O 	0.41020 0.82154 0.72824 -0.64100
O 	O 	0.35578 0.86553 0.67722 -0.37400
O 	O 	0.38361 0.87470 0.76706 -0.43900
O 	O 	0.48010 0.85095 0.55802 -0.38000
O 	O 	0.53674 0.83342 0.76643 -0.37700
C 	C 	0.56783 0.83602 0.72603 0.28400
C 	C 	0.43365 0.79036 0.61215 0.28300
O 	O 	0.47128 0.79493 0.63932 -0.38800
O 	O 	0.56193 0.82642 0.67312 -0.39000
O 	O 	0.41283 0.86634 0.59121 -0.35800
C 	C 	0.35745 0.88089 0.72329 0.28800
O 	O 	0.47097 0.80757 0.82443 -0.38700
O 	O 	0.39521 0.80804 0.84056 -0.41500
H 	H 	0.48254 0.86723 0.69036 0.16000
H 	H 	0.40096 0.80280 0.72447 0.17200
Cu	Cu	0.46522 0.09478 0.40807 0.92800
Cu	Cu	0.45297 0.10748 0.26951 0.86700
Cu	Cu	0.54144 0.10655 0.32432 0.89600
Cu	Cu	0.56621 0.08523 0.44150 0.89400
C 	C 	0.49068 0.05612 0.49251 0.28700
O 	O 	0.47970 0.12359 0.46673 -0.36200
C 	C 	0.52209 0.14034 0.22278 0.28300
O 	O 	0.52665 0.07910 0.37896 -0.63900
O 	O 	0.47973 0.11851 0.34255 -0.64300
O 	O 	0.40593 0.08277 0.37977 -0.37000
O 	O 	0.43352 0.07303 0.29026 -0.44000
O 	O 	0.52750 0.06951 0.50295 -0.38300
O 	O 	0.59930 0.09223 0.30474 -0.38700
C 	C 	0.63117 0.08605 0.34204 0.29200
C 	C 	0.51684 0.13740 0.46326 0.28100
O 	O 	0.55192 0.12740 0.43690 -0.39300
O 	O 	0.62231 0.07938 0.39661 -0.39000
O 	O 	0.45731 0.06727 0.46442 -0.35800
C 	C 	0.40259 0.07009 0.33005 0.29000
O 	O 	0.55138 0.13283 0.26260 -0.38000
O 	O 	0.47890 0.13721 0.23081 -0.41700
H 	H 	0.52718 0.06097 0.36258 0.16500
H 	H 	0.47736 0.13773 0.35052 0.17500
Cu	Cu	0.01389 0.89282 0.92899 0.92500
Cu	Cu	0.02942 0.85915 0.80848 0.86600
Cu	Cu	0.93870 0.87522 0.84864 0.89700
Cu	Cu	0.91430 0.91150 0.94832 0.89500
C 	C 	0.99340 0.94235 0.98206 0.30200
O 	O 	0.99379 0.87411 0.00237 -0.35900
C 	C 	0.95553 0.82398 0.79194 0.28600
O 	O 	0.95595 0.90722 0.88745 -0.63700
O 	O 	0.99655 0.86237 0.88075 -0.64100
O 	O 	0.07509 0.89710 0.89789 -0.37600
O 	O 	0.05352 0.89402 0.80311 -0.43800
O 	O 	0.95436 0.93311 0.99876 -0.38400
O 	O 	0.88459 0.89020 0.81711 -0.38400
C 	C 	0.85218 0.90102 0.84800 0.28900
C 	C 	0.95505 0.86195 0.00480 0.28500
O 	O 	0.92177 0.87003 0.97208 -0.39200
O 	O 	0.85999 0.91328 0.89802 -0.38900
O 	O 	0.02538 0.92605 0.96589 -0.36600
C 	C 	0.08140 0.90287 0.84276 0.28600
O 	O 	0.92922 0.84491 0.79610 -0.38800
O 	O 	0.99931 0.82631 0.79436 -0.41100
H 	H 	0.95917 0.92269 0.86128 0.16500
H 	H 	0.99393 0.84541 0.90213 0.17000
Cu	Cu	0.08039 0.14624 0.16484 0.92800
Cu	Cu	0.09876 0.14471 0.30573 0.87100
Cu	Cu	0.00993 0.15861 0.25765 0.89500
Cu	Cu	0.98034 0.15845 0.13111 0.89800
C 	C 	0.03996 0.12329 0.06347 0.28400
O 	O 	0.08402 0.18115 0.12141 -0.35900
C 	C 	0.04528 0.18197 0.36685 0.29000
O 	O 	0.01330 0.13893 0.18632 -0.64000
O 	O 	0.07462 0.16449 0.24085 -0.64100
O 	O 	0.13002 0.12174 0.18519 -0.37300
O 	O 	0.09897 0.11045 0.27197 -0.44000
O 	O 	0.01074 0.14284 0.06182 -0.38300
O 	O 	0.94779 0.14993 0.27055 -0.37400
C 	C 	0.91779 0.14849 0.22855 0.28400
C 	C 	0.05412 0.19986 0.12893 0.28100
O 	O 	0.01606 0.19432 0.15434 -0.39100
O 	O 	0.92437 0.16031 0.17793 -0.38800
O 	O 	0.07629 0.12511 0.09575 -0.35900
C 	C 	0.12607 0.10505 0.22877 0.28800
O 	O 	0.01050 0.17244 0.33818 -0.39000
O 	O 	0.08615 0.17428 0.35452 -0.41800
H 	H 	0.00427 0.12015 0.19015 0.16000
H 	H 	0.08313 0.18343 0.24073 0.17200
C 	C 	0.00696 0.06218 0.96850 -0.01200
C 	C 	0.97958 0.03985 0.96336 -0.04800
C 	C 	0.99985 0.01486 0.96487 0.01700
C 	C 	0.04598 0.01255 0.97343 -0.00800
C 	C 	0.07191 0.03459 0.98804 -0.05700
C 	C 	0.05215 0.05971 0.98399 0.01500
S 	S 	0.98938 0.09157 0.99146 0.01700
C 	C 	0.03762 0.10269 0.01845 -0.07300
C 	C 	0.06939 0.08248 0.01235 -0.01900
S 	S 	0.05652 0.98176 0.99478 0.03400
C 	C 	0.00419 0.97020 0.99316 -0.09100
C 	C 	0.97635 0.99099 0.97536 -0.01700
H 	H 	0.94364 0.04180 0.96203 0.04200
H 	H 	0.10534 0.03221 0.00508 0.04900
H 	H 	0.10118 0.08261 0.03471 0.05000
H 	H 	0.94079 0.98884 0.96886 0.03000
C 	C 	0.22561 0.05539 0.22221 -0.00200
C 	C 	0.27142 0.05265 0.21267 -0.05700
C 	C 	0.29879 0.04658 0.26037 0.01300
C 	C 	0.28043 0.04435 0.31656 -0.00300
C 	C 	0.23555 0.05017 0.32693 -0.05700
C 	C 	0.20786 0.05521 0.27896 0.01300
S 	S 	0.19251 0.07401 0.18104 0.02300
C 	C 	0.15394 0.08115 0.23117 -0.08200
C 	C 	0.16734 0.06952 0.28383 -0.02400
S 	S 	0.32091 0.05026 0.36427 0.02600
C 	C 	0.36282 0.05419 0.31710 -0.08300
C 	C 	0.34522 0.05186 0.26072 -0.02400
H 	H 	0.28575 0.05726 0.17053 0.04200
H 	H 	0.22341 0.05284 0.37101 0.04200
H 	H 	0.15283 0.07481 0.32546 0.03000
H 	H 	0.36320 0.05814 0.22218 0.02800
C 	C 	0.75980 0.08307 0.31188 -0.00000
C 	C 	0.80285 0.09223 0.32403 -0.05600
C 	C 	0.82629 0.10490 0.27914 0.01500
C 	C 	0.80590 0.10940 0.22498 -0.00100
C 	C 	0.76069 0.10398 0.21619 -0.05600
C 	C 	0.73800 0.08988 0.25967 0.01500
S 	S 	0.72109 0.07724 0.36209 0.01700
C 	C 	0.67633 0.08136 0.31958 -0.07400
C 	C 	0.69090 0.08900 0.26403 -0.02200
S 	S 	0.83416 0.13312 0.19110 0.01300
C 	C 	0.87327 0.13808 0.24202 -0.07100
C 	C 	0.86466 0.12072 0.28842 -0.02500
H 	H 	0.81656 0.09091 0.36760 0.04500
H 	H 	0.74327 0.11161 0.17840 0.04600
H 	H 	0.66889 0.09699 0.23100 0.04700
H 	H 	0.88512 0.11953 0.32721 0.04500
C 	C 	0.25218 0.92603 0.72276 -0.00300
C 	C 	0.20584 0.92600 0.71583 -0.05700
C 	C 	0.17922 0.93054 0.76502 0.01300
C 	C 	0.19901 0.93439 0.81996 -0.00300
C 	C 	0.24486 0.93088 0.82794 -0.05700
C 	C 	0.27159 0.92699 0.77855 0.01300
S 	S 	0.28668 0.90941 0.67965 0.02200
C 	C 	0.32748 0.90382 0.72768 -0.08200
C 	C 	0.31402 0.91460 0.78122 -0.02500
S 	S 	0.16115 0.92705 0.87023 0.02300
C 	C 	0.11860 0.92014 0.82578 -0.08000
C 	C 	0.13394 0.92255 0.76830 -0.02500
H 	H 	0.19096 0.92044 0.67458 0.04200
H 	H 	0.25873 0.92905 0.87134 0.04200
H 	H 	0.33033 0.90987 0.82203 0.03200
H 	H 	0.11575 0.91490 0.73116 0.03500
C 	C 	0.68258 0.87131 0.72493 -0.00100
C 	C 	0.72829 0.87576 0.71856 -0.05600
C 	C 	0.74925 0.89226 0.75929 0.01500
C 	C 	0.72523 0.90234 0.80706 -0.00000
C 	C 	0.68132 0.89432 0.81807 -0.05600
C 	C 	0.65963 0.87930 0.77519 0.01400
S 	S 	0.65490 0.84629 0.69539 0.01400
C 	C 	0.61249 0.84510 0.74287 -0.07100
C 	C 	0.61980 0.86483 0.78495 -0.02600
S 	S 	0.76166 0.91113 0.85810 0.01500
C 	C 	0.80820 0.90426 0.82083 -0.07200
C 	C 	0.79606 0.89325 0.76708 -0.02200
H 	H 	0.74722 0.86579 0.68487 0.04500
H 	H 	0.66550 0.89844 0.85952 0.04400
H 	H 	0.59691 0.86900 0.82026 0.04100
H 	H 	0.81938 0.88328 0.73849 0.04700
C 	C 	0.49062 0.93954 0.51015 0.00400
C 	C 	0.51694 0.96180 0.52187 -0.06000
C 	C 	0.49532 0.98562 0.53554 0.01700
C 	C 	0.44875 0.98643 0.54085 -0.00400
C 	C 	0.42244 0.96414 0.52950 -0.05300
C 	C 	0.44409 0.94025 0.51660 0.01400
S 	S 	0.50714 0.90849 0.51994 0.00100
C 	C 	0.45701 0.89467 0.52976 -0.06800
C 	C 	0.42509 0.91502 0.52762 -0.02200
S 	S 	0.43241 0.01752 0.53115 0.03300
C 	C 	0.48293 0.03128 0.52403 -0.07400
C 	C 	0.51469 0.01091 0.52647 -0.02600
H 	H 	0.55292 0.96081 0.51885 0.04400
H 	H 	0.38647 0.96513 0.53269 0.04700
H 	H 	0.39105 0.91246 0.54230 0.05100
H 	H 	0.54894 0.01355 0.51271 0.03200
C 	C 	0.97584 0.78343 0.19983 -0.00600
C 	C 	0.99714 0.79423 0.15099 -0.04300
C 	C 	0.97047 0.80533 0.10725 0.00800
C 	C 	0.92388 0.80395 0.11087 0.00300
C 	C 	0.90254 0.79376 0.16011 -0.05800
C 	C 	0.92907 0.78239 0.20377 0.01700
S 	S 	0.99647 0.75899 0.24012 0.03000
C 	C 	0.94823 0.74738 0.26640 -0.07800
C 	C 	0.91352 0.76221 0.24157 -0.02200
S 	S 	0.90241 0.82637 0.06592 0.01700
C 	C 	0.95058 0.83734 0.03823 -0.08200
C 	C 	0.98577 0.82429 0.06637 -0.01100
H 	H 	0.03313 0.79430 0.14757 0.03800
H 	H 	0.86652 0.79347 0.16307 0.04400
H 	H 	0.87892 0.75617 0.24342 0.04000
H 	H 	0.02031 0.83025 0.06257 0.03500
C 	C 	0.93581 0.75159 0.73786 0.00100
C 	C 	0.95405 0.72968 0.70913 -0.05600
C 	C 	0.93607 0.72252 0.65506 0.01500
C 	C 	0.90158 0.73754 0.63002 0.00400
C 	C 	0.88825 0.76165 0.65465 -0.05700
C 	C 	0.90496 0.76831 0.70990 0.01500
S 	S 	0.96319 0.76959 0.78667 0.01400
C 	C 	0.93608 0.79818 0.77714 -0.07500
C 	C 	0.90514 0.79459 0.73203 -0.02100
S 	S 	0.90074 0.73102 0.55891 0.00800
C 	C 	0.94305 0.70951 0.55737 -0.07400
C 	C 	0.95884 0.70637 0.61429 -0.01900
H 	H 	0.98329 0.71977 0.72620 0.04500
H 	H 	0.86796 0.77549 0.63021 0.04500
H 	H 	0.88884 0.81094 0.71009 0.04200
H 	H 	0.98608 0.69330 0.62577 0.03500
C 	C 	0.00624 0.29090 0.98228 -0.00600
C 	C 	0.00253 0.28183 0.03961 -0.06200
C 	C 	0.03664 0.26562 0.06137 0.01800
C 	C 	0.07501 0.26073 0.02782 -0.00000
C 	C 	0.07891 0.27021 0.97063 -0.05800
C 	C 	0.04460 0.28626 0.94896 0.01500
S 	S 	0.98030 0.31725 0.95531 0.01900
C 	C 	0.01573 0.32338 0.90053 -0.08000
C 	C 	0.04968 0.30428 0.90202 -0.02000
S 	S 	0.09789 0.23283 0.05180 0.02400
C 	C 	0.06247 0.22670 0.10658 -0.07600
C 	C 	0.02974 0.24659 0.10593 -0.03300
H 	H 	0.97317 0.28613 0.06539 0.04900
H 	H 	0.10796 0.26569 0.94445 0.04600
H 	H 	0.07713 0.30366 0.87142 0.04400
H 	H 	0.99879 0.24509 0.13002 0.04800
C 	C 	0.04927 0.23276 0.49599 0.00400
C 	C 	0.06736 0.25526 0.52260 -0.05800
C 	C 	0.03973 0.27739 0.52943 0.01000
C 	C 	0.99660 0.27754 0.50585 0.00100
C 	C 	0.97842 0.25506 0.47929 -0.04400
C 	C 	0.00595 0.23284 0.47260 -0.00400
S 	S 	0.07872 0.20974 0.46153 0.01300
C 	C 	0.03776 0.19811 0.41914 -0.08600
C 	C 	0.99938 0.21327 0.42914 -0.00200
S 	S 	0.96744 0.30103 0.53912 0.02900
C 	C 	0.00794 0.31214 0.58308 -0.08400
C 	C 	0.04649 0.29723 0.57217 -0.02100
H 	H 	0.10119 0.25523 0.53905 0.04400
H 	H 	0.94466 0.25518 0.46262 0.04300
H 	H 	0.97040 0.21274 0.40103 0.04200
H 	H 	0.07785 0.30031 0.59453 0.04000
C 	C 	0.94659 0.53250 0.54262 -0.00800
C 	C 	0.92978 0.50719 0.53137 -0.05200
C 	C 	0.96034 0.48683 0.52011 0.01900
C 	C 	0.00602 0.49250 0.51458 0.00100
C 	C 	0.02277 0.51787 0.52588 -0.07200
C 	C 	0.99228 0.53808 0.53855 0.03600
S 	S 	0.91862 0.56056 0.53328 0.03100
C 	C 	0.96270 0.58079 0.52815 -0.06200
C 	C 	0.00150 0.56537 0.53058 -0.04600
S 	S 	0.03401 0.46468 0.52651 -0.00400
C 	C 	0.99048 0.44446 0.53622 -0.06300
C 	C 	0.95153 0.45979 0.53231 -0.02300
H 	H 	0.89436 0.50322 0.53386 0.04700
H 	H 	0.05820 0.52183 0.52380 0.04600
H 	H 	0.03406 0.57281 0.51847 0.03600
H 	H 	0.91919 0.45274 0.54643 0.05200
C 	C 	0.41795 0.72861 0.92365 -0.00100
C 	C 	0.40441 0.71003 0.96527 -0.05600
C 	C 	0.43499 0.69041 0.98157 0.01200
C 	C 	0.47846 0.69054 0.95892 -0.00300
C 	C 	0.49389 0.71160 0.92465 -0.05500
C 	C 	0.46259 0.73033 0.90558 0.01500
S 	S 	0.39451 0.75805 0.91392 0.01200
C 	C 	0.43865 0.77371 0.88547 -0.07300
C 	C 	0.47410 0.75560 0.88308 -0.02400
S 	S 	0.51017 0.67204 0.00216 0.02600
C 	C 	0.47058 0.66282 0.04954 -0.07900
C 	C 	0.43034 0.67450 0.03207 -0.02000
H 	H 	0.37223 0.71161 0.98637 0.04300
H 	H 	0.52908 0.71403 0.91566 0.04500
H 	H 	0.50675 0.76039 0.86597 0.04500
H 	H 	0.39905 0.67168 0.05474 0.04000
C 	C 	0.43306 0.71287 0.42182 -0.00200
C 	C 	0.40452 0.73048 0.45046 -0.05500
C 	C 	0.41215 0.73536 0.50984 0.01400
C 	C 	0.44480 0.72091 0.54026 -0.00000
C 	C 	0.47326 0.70328 0.51144 -0.05700
C 	C 	0.46611 0.69879 0.45199 0.01500
S 	S 	0.42072 0.69630 0.36125 0.02600
C 	C 	0.45699 0.67146 0.37052 -0.07700
C 	C 	0.48046 0.67574 0.42238 -0.02200
S 	S 	0.45920 0.73835 0.59847 0.01500
C 	C 	0.42408 0.76378 0.58956 -0.07800
C 	C 	0.40032 0.75945 0.53771 -0.02200
H 	H 	0.37866 0.74092 0.42690 0.04600
H 	H 	0.49943 0.69301 0.53478 0.04300
H 	H 	0.50538 0.66226 0.43926 0.03100
H 	H 	0.38135 0.77485 0.51614 0.04600
C 	C 	0.18298 0.64361 0.27199 -0.00000
C 	C 	0.20500 0.62693 0.23265 -0.05700
C 	C 	0.24127 0.61212 0.25334 0.01500
C 	C 	0.25220 0.61242 0.31290 -0.00300
C 	C 	0.23018 0.62912 0.35211 -0.05500
C 	C 	0.19435 0.64418 0.33130 0.01400
S 	S 	0.13056 0.65387 0.26538 0.01600
C 	C 	0.12155 0.66098 0.33573 -0.07200
C 	C 	0.15980 0.65400 0.36737 -0.02400
S 	S 	0.30490 0.60300 0.31954 0.02400
C 	C 	0.31518 0.59680 0.24913 -0.07500
C 	C 	0.27674 0.60328 0.21728 -0.02300
H 	H 	0.19538 0.62628 0.18718 0.04400
H 	H 	0.23990 0.62989 0.39754 0.04400
H 	H 	0.16052 0.65260 0.41446 0.04000
H 	H 	0.27668 0.60561 0.17036 0.03900
C 	C 	0.70289 0.55758 0.30163 0.00300
C 	C 	0.73526 0.56435 0.34296 -0.05900
C 	C 	0.77773 0.57155 0.32299 0.01400
C 	C 	0.78655 0.57283 0.26286 0.00200
C 	C 	0.75237 0.56979 0.22191 -0.05800
C 	C 	0.71038 0.56157 0.24175 0.01300
S 	S 	0.64844 0.56011 0.31323 -0.00100
C 	C 	0.63217 0.56494 0.24435 -0.07700
C 	C 	0.67059 0.56567 0.20950 -0.02200
S 	S 	0.83030 0.59253 0.25342 0.00500
C 	C 	0.84110 0.59893 0.32350 -0.07600
C 	C 	0.80843 0.58626 0.35718 -0.02300
H 	H 	0.72678 0.56584 0.38873 0.04400
H 	H 	0.75736 0.57548 0.17686 0.04400
H 	H 	0.67053 0.57297 0.16511 0.04600
H 	H 	0.80300 0.59064 0.40284 0.04700
C 	C 	0.52662 0.18935 0.09263 0.00500
C 	C 	0.52615 0.19958 0.03612 -0.06000
C 	C 	0.55541 0.22043 0.02329 0.02000
C 	C 	0.58691 0.22885 0.06482 -0.00400
C 	C 	0.58771 0.21816 0.12120 -0.05300
C 	C 	0.55801 0.19755 0.13392 0.01300
S 	S 	0.50760 0.15983 0.11210 0.00500
C 	C 	0.53720 0.15653 0.17364 -0.07300
C 	C 	0.56358 0.17931 0.18028 -0.01900
S 	S 	0.60122 0.25977 0.04862 0.02700
C 	C 	0.57075 0.26315 0.98800 -0.08100
C 	C 	0.54646 0.23969 0.97993 -0.02700
H 	H 	0.50226 0.19261 0.00424 0.04600
H 	H 	0.61102 0.22535 0.15357 0.04600
H 	H 	0.58513 0.18279 0.21735 0.04400
H 	H 	0.51877 0.23812 0.94984 0.04200
C 	C 	0.50909 0.22106 0.64539 -0.00100
C 	C 	0.48228 0.20739 0.60557 -0.05500
C 	C 	0.50245 0.19768 0.55471 0.01500
C 	C 	0.54717 0.20372 0.54225 -0.00000
C 	C 	0.57398 0.21729 0.58226 -0.05600
C 	C 	0.55401 0.22663 0.63348 0.01400
S 	S 	0.49082 0.24285 0.69431 0.02400
C 	C 	0.53925 0.25866 0.70473 -0.07800
C 	C 	0.57122 0.24783 0.66708 -0.02100
S 	S 	0.56586 0.18157 0.49470 0.01600
C 	C 	0.51838 0.16467 0.48562 -0.07700
C 	C 	0.48613 0.17561 0.52288 -0.02300
H 	H 	0.44748 0.20356 0.61482 0.04600
H 	H 	0.60885 0.22098 0.57321 0.04400
H 	H 	0.60336 0.25686 0.65899 0.04000
H 	H 	0.45485 0.16591 0.53282 0.04500
C 	C 	0.25222 0.38875 0.76936 -0.00100
C 	C 	0.29615 0.38088 0.75817 -0.05600
C 	C 	0.31897 0.36736 0.80240 0.01400
C 	C 	0.29722 0.36071 0.85446 -0.00200
C 	C 	0.25140 0.36472 0.86144 -0.05600
C 	C 	0.22924 0.37979 0.81907 0.01400
S 	S 	0.21481 0.39598 0.71837 0.01600
C 	C 	0.16907 0.38985 0.75788 -0.07400
C 	C 	0.18225 0.38030 0.81257 -0.02200
S 	S 	0.32667 0.33722 0.88723 0.01400
C 	C 	0.36824 0.33510 0.83857 -0.07100
C 	C 	0.35923 0.35322 0.79366 -0.02600
H 	H 	0.31119 0.38399 0.71582 0.04400
H 	H 	0.23338 0.35558 0.89706 0.04400
H 	H 	0.15956 0.37105 0.84310 0.04500
H 	H 	0.38133 0.35659 0.75710 0.04100
C 	C 	0.71472 0.42857 0.82456 -0.00300
C 	C 	0.76010 0.43300 0.83473 -0.05700
C 	C 	0.78821 0.43663 0.78658 0.01300
C 	C 	0.77094 0.43519 0.72966 -0.00300
C 	C 	0.72687 0.42732 0.71967 -0.05700
C 	C 	0.69851 0.42434 0.76778 0.01300
S 	S 	0.68193 0.41206 0.87012 0.02300
C 	C 	0.64553 0.40016 0.82159 -0.08100
C 	C 	0.65949 0.40843 0.76616 -0.02400
S 	S 	0.81286 0.42778 0.68535 0.02400
C 	C 	0.85397 0.42726 0.73451 -0.08200
C 	C 	0.83494 0.43229 0.78925 -0.02500
H 	H 	0.77369 0.43145 0.87834 0.04200
H 	H 	0.71607 0.42158 0.67642 0.04200
H 	H 	0.64677 0.39980 0.72626 0.03100
H 	H 	0.85233 0.42856 0.82979 0.03100
C 	C 	0.49685 0.43916 0.05840 0.00400
C 	C 	0.46960 0.46131 0.04962 -0.06000
C 	C 	0.49008 0.48532 0.03461 0.01700
C 	C 	0.53627 0.48644 0.02531 -0.00400
C 	C 	0.56349 0.46428 0.03373 -0.05300
C 	C 	0.54293 0.44019 0.04786 0.01400
S 	S 	0.48037 0.40803 0.04961 0.00200
C 	C 	0.53015 0.39460 0.03530 -0.06800
C 	C 	0.56176 0.41512 0.03473 -0.02100
S 	S 	0.55255 0.51765 0.03361 0.03400
C 	C 	0.50217 0.53100 0.04486 -0.07300
C 	C 	0.47071 0.51046 0.04535 -0.02600
H 	H 	0.43388 0.46008 0.05574 0.04400
H 	H 	0.59919 0.46551 0.02737 0.04700
H 	H 	0.59505 0.41280 0.01720 0.05100
H 	H 	0.43710 0.51293 0.06169 0.03200
