data_crystal

_cell_length_a 24.73474
_cell_length_b 21.75164
_cell_length_c 19.77119
_cell_angle_alpha 92.69906
_cell_angle_beta  85.32805
_cell_angle_gamma 124.79429

_symmetry_space_group_name_	'P 1'
_symmetry_space_group_name_H-M	'P 1'

loop_
_symmetry_equiv_pos_as_xyz
  x,y,z

loop_
_atom_site_label
_atom_site_type_symbol
_atom_site_fract_x
_atom_site_fract_y
_atom_site_fract_z
_atom_site_charge
C 	C 	0.91424 0.09516 0.93049 0.01800
C 	C 	0.95805 0.10311 0.87632 -0.03000
C 	C 	0.99059 0.06783 0.87853 -0.06000
C 	C 	0.97953 0.02421 0.93473 0.08100
C 	C 	0.93687 0.01793 0.98989 -0.06400
C 	C 	0.90425 0.05305 0.98755 -0.04200
N 	N 	0.00756 0.98131 0.93273 -0.14900
C 	C 	0.19754 0.08969 0.00952 0.02900
C 	C 	0.14974 0.09694 0.04422 -0.03400
C 	C 	0.08697 0.06109 0.01982 -0.05600
C 	C 	0.07184 0.01838 0.95961 0.06700
C 	C 	0.11976 0.01100 0.92545 -0.05000
C 	C 	0.18211 0.04597 0.95049 -0.04700
C 	C 	0.86857 0.74900 0.97581 0.00900
C 	C 	0.91905 0.79394 0.01968 -0.03000
C 	C 	0.96400 0.87055 0.00698 -0.05200
C 	C 	0.96022 0.90263 0.94868 0.06800
C 	C 	0.90890 0.85759 0.90570 -0.06500
C 	C 	0.86243 0.78178 0.92011 -0.02600
H 	H 	0.96620 0.13581 0.83219 0.04500
H 	H 	0.02327 0.07285 0.83589 0.04500
H 	H 	0.92820 0.98479 0.03382 0.04700
H 	H 	0.87096 0.04728 0.02988 0.04800
H 	H 	0.16103 0.12978 0.09038 0.04500
H 	H 	0.05007 0.06537 0.04830 0.04700
H 	H 	0.10848 0.97788 0.87949 0.03800
H 	H 	0.21865 0.03959 0.92375 0.04100
H 	H 	0.92398 0.76933 0.06311 0.03900
H 	H 	0.00142 0.90454 0.04238 0.04000
H 	H 	0.90502 0.88167 0.86118 0.04900
H 	H 	0.82264 0.74801 0.88692 0.04500
C 	C 	0.93295 0.14744 0.44762 0.01600
C 	C 	0.94900 0.12047 0.38919 -0.02500
C 	C 	0.97785 0.08146 0.39455 -0.06700
C 	C 	0.99142 0.06956 0.45823 0.08500
C 	C 	0.97707 0.09855 0.51672 -0.06800
C 	C 	0.94676 0.13599 0.51145 -0.02700
N 	N 	0.02149 0.02951 0.46242 -0.14400
C 	C 	0.20502 0.13143 0.55021 0.01600
C 	C 	0.14635 0.08877 0.59111 -0.02900
C 	C 	0.08554 0.05771 0.56356 -0.06700
C 	C 	0.08314 0.06912 0.49457 0.07900
C 	C 	0.14205 0.11595 0.45528 -0.06500
C 	C 	0.20273 0.14695 0.48289 -0.02400
C 	C 	0.89563 0.79499 0.49924 0.01500
C 	C 	0.94122 0.82353 0.44264 -0.02800
C 	C 	0.98247 0.90065 0.43115 -0.05700
C 	C 	0.97758 0.95003 0.47497 0.07400
C 	C 	0.93055 0.92129 0.53071 -0.06700
C 	C 	0.89057 0.84427 0.54329 -0.03300
H 	H 	0.93791 0.12845 0.33977 0.04200
H 	H 	0.98951 0.06012 0.34924 0.05300
H 	H 	0.98882 0.09156 0.56605 0.04900
H 	H 	0.93325 0.15527 0.55699 0.03900
H 	H 	0.14778 0.07744 0.64348 0.03600
H 	H 	0.04065 0.02428 0.59546 0.04600
H 	H 	0.14067 0.12594 0.40251 0.05100
H 	H 	0.24794 0.18056 0.45119 0.04400
H 	H 	0.94456 0.78591 0.40749 0.04500
H 	H 	0.01815 0.92224 0.38790 0.04300
H 	H 	0.92594 0.95839 0.56505 0.04400
H 	H 	0.85561 0.82287 0.58717 0.03800
Co	Co	0.72076 0.29623 0.99868 1.17900
O 	O 	0.79606 0.29891 0.93941 -0.38800
Co	Co	0.58571 0.29478 0.04058 1.18300
O 	O 	0.63831 0.26870 0.95256 -0.47400
O 	O 	0.66497 0.39395 0.06266 -0.42000
O 	O 	0.71304 0.19436 0.97508 -0.35200
C 	C 	0.71857 0.43101 0.02105 0.33900
O 	O 	0.59235 0.32548 0.93728 -0.37000
C 	C 	0.46154 0.21829 0.07817 0.30700
C 	C 	0.66553 0.26541 0.12563 0.31000
O 	O 	0.50592 0.28560 0.09711 -0.37800
O 	O 	0.48795 0.19375 0.03646 -0.35100
O 	O 	0.72552 0.28887 0.10559 -0.35700
O 	O 	0.62830 0.24598 0.07545 -0.46600
O 	O 	0.75534 0.40475 0.00539 -0.51400
C 	C 	0.76863 0.22766 0.93953 0.30700
C 	C 	0.63176 0.30808 0.91130 0.30200
H 	H 	0.80391 0.44113 0.99135 0.16300
Co	Co	0.73075 0.34257 0.49236 1.18200
O 	O 	0.80353 0.34009 0.43238 -0.38400
Co	Co	0.59119 0.32871 0.53684 1.18400
O 	O 	0.63991 0.29026 0.45574 -0.46200
O 	O 	0.66332 0.43750 0.54163 -0.41000
O 	O 	0.73212 0.24515 0.49211 -0.34400
C 	C 	0.72354 0.47296 0.51063 0.33700
O 	O 	0.58181 0.32930 0.42994 -0.36000
C 	C 	0.47210 0.24738 0.59147 0.30100
C 	C 	0.69428 0.34671 0.62301 0.30200
O 	O 	0.51247 0.31925 0.59590 -0.35900
O 	O 	0.49990 0.22075 0.55489 -0.35000
O 	O 	0.75274 0.37082 0.59630 -0.37100
O 	O 	0.64951 0.30544 0.58065 -0.46100
O 	O 	0.74258 0.43792 0.46884 -0.53600
C 	C 	0.78202 0.27253 0.44853 0.30700
C 	C 	0.62321 0.31338 0.40770 0.30400
H 	H 	0.77489 0.46628 0.42884 0.16700
C 	C 	0.67947 0.33740 0.69679 -0.09600
C 	C 	0.69436 0.39877 0.73907 0.05300
C 	C 	0.67917 0.38760 0.80915 -0.02800
C 	C 	0.65353 0.31786 0.83848 -0.10600
C 	C 	0.64138 0.25701 0.79631 0.05600
C 	C 	0.65285 0.26718 0.72562 -0.02700
H 	H 	0.68595 0.43318 0.84092 0.04000
H 	H 	0.64196 0.22045 0.69296 0.04900
C 	C 	0.72527 0.47655 0.71041 -0.11800
C 	C 	0.61532 0.18081 0.82529 -0.11300
C 	C 	0.79729 0.53164 0.72829 -0.01300
H 	H 	0.80070 0.53241 0.78393 0.03700
H 	H 	0.81440 0.58889 0.71286 0.03400
C 	C 	0.54045 0.13529 0.84202 -0.01300
H 	H 	0.51501 0.12421 0.79456 0.03300
H 	H 	0.52729 0.16687 0.87712 0.04500
H 	H 	0.72260 0.47653 0.65486 0.06300
H 	H 	0.64181 0.18650 0.87024 0.06400
C 	C 	0.84353 0.51308 0.69288 -0.16200
C 	C 	0.51533 0.06069 0.87513 -0.16200
H 	H 	0.84194 0.51346 0.63699 0.06900
H 	H 	0.89485 0.55588 0.70642 0.05900
H 	H 	0.82976 0.45748 0.70930 0.07500
H 	H 	0.69650 0.49842 0.73228 0.05900
H 	H 	0.52617 0.02669 0.84057 0.06300
H 	H 	0.46111 0.02893 0.88625 0.06500
H 	H 	0.53899 0.07029 0.92354 0.07300
H 	H 	0.62606 0.14866 0.78785 0.05200
C 	C 	0.64595 0.27315 0.19609 -0.10600
C 	C 	0.62431 0.21625 0.24447 0.06100
C 	C 	0.61741 0.23061 0.31357 -0.02900
C 	C 	0.63351 0.30122 0.33518 -0.10100
C 	C 	0.65733 0.35884 0.28681 0.06100
C 	C 	0.65994 0.34273 0.21765 -0.03700
H 	H 	0.59935 0.18656 0.35056 0.04800
H 	H 	0.67760 0.38651 0.18097 0.05500
C 	C 	0.60732 0.13942 0.22332 -0.11800
C 	C 	0.68252 0.43861 0.30780 -0.11900
C 	C 	0.53265 0.08171 0.21952 -0.01100
H 	H 	0.50594 0.08198 0.26745 0.03200
H 	H 	0.52270 0.02508 0.21393 0.03000
C 	C 	0.75628 0.49380 0.28667 -0.01800
H 	H 	0.76453 0.49534 0.23053 0.04400
H 	H 	0.78516 0.47547 0.30789 0.02800
H 	H 	0.63355 0.14061 0.17453 0.06500
H 	H 	0.67539 0.44392 0.36310 0.06100
C 	C 	0.50545 0.09525 0.15958 -0.16600
C 	C 	0.78231 0.57312 0.31132 -0.16200
H 	H 	0.53293 0.09764 0.11133 0.08000
H 	H 	0.45282 0.04848 0.15600 0.07500
H 	H 	0.50873 0.14819 0.16671 0.07400
H 	H 	0.62472 0.11963 0.26154 0.05200
H 	H 	0.75437 0.59284 0.29040 0.06300
H 	H 	0.83518 0.61164 0.29403 0.06200
H 	H 	0.77788 0.57486 0.36756 0.06100
H 	H 	0.65370 0.45505 0.28321 0.05900
C 	C 	0.85132 0.71319 0.51077 -0.00900
C 	C 	0.87739 0.67065 0.51631 0.09200
C 	C 	0.83529 0.59231 0.51606 -0.03100
C 	C 	0.76681 0.55584 0.51481 -0.14000
C 	C 	0.74029 0.59882 0.51533 0.16700
C 	C 	0.78278 0.67719 0.51372 -0.10800
H 	H 	0.85600 0.55989 0.51699 0.03800
H 	H 	0.76232 0.70988 0.51312 0.06400
O 	O 	0.94468 0.70559 0.51740 -0.19600
O 	O 	0.67288 0.56464 0.52347 -0.19700
C 	C 	0.96125 0.71880 0.58563 -0.01400
H 	H 	0.94903 0.75653 0.61127 0.03600
H 	H 	0.01533 0.74729 0.58656 0.03300
H 	H 	0.93699 0.66546 0.61432 0.03100
C 	C 	0.64881 0.55817 0.45942 -0.02200
H 	H 	0.66883 0.61411 0.43759 0.03400
H 	H 	0.59439 0.52793 0.46588 0.04700
H 	H 	0.65952 0.52507 0.42351 0.03600
C 	C 	0.89527 0.18029 0.44266 -0.00600
C 	C 	0.92773 0.25849 0.43875 0.09500
C 	C 	0.89063 0.28854 0.43514 -0.02700
C 	C 	0.82145 0.24121 0.43818 -0.11700
C 	C 	0.78961 0.16297 0.43726 0.16500
C 	C 	0.82648 0.13301 0.44136 -0.10400
H 	H 	0.91563 0.34867 0.43238 0.05600
H 	H 	0.80148 0.07283 0.44351 0.06700
O 	O 	0.99585 0.30502 0.43201 -0.18500
O 	O 	0.72164 0.11555 0.43763 -0.19500
C 	C 	0.01953 0.33638 0.49594 -0.03000
H 	H 	0.00463 0.37441 0.51338 0.03700
H 	H 	0.07424 0.37052 0.49100 0.04400
H 	H 	0.00325 0.29271 0.53484 0.03700
C 	C 	0.70382 0.09905 0.36985 -0.02200
H 	H 	0.71973 0.15045 0.34146 0.03900
H 	H 	0.64924 0.06135 0.37010 0.04400
H 	H 	0.72384 0.06910 0.34319 0.03800
C 	C 	0.39968 0.20926 0.59559 -0.11200
C 	C 	0.37053 0.24477 0.62580 0.16100
C 	C 	0.30542 0.21742 0.61308 -0.10200
C 	C 	0.26793 0.15200 0.57481 -0.00900
C 	C 	0.29378 0.11041 0.55394 0.09700
C 	C 	0.35979 0.13973 0.56340 -0.03200
H 	H 	0.28478 0.24811 0.63149 0.06500
H 	H 	0.38059 0.10976 0.54317 0.06200
O 	O 	0.40705 0.30936 0.66353 -0.19200
O 	O 	0.25679 0.04521 0.51708 -0.18600
C 	C 	0.39861 0.28908 0.73225 -0.02200
H 	H 	0.34612 0.26002 0.75198 0.03300
H 	H 	0.42795 0.34084 0.76266 0.04600
H 	H 	0.41717 0.25397 0.74010 0.04100
C 	C 	0.22456 0.98420 0.56241 -0.03100
H 	H 	0.26062 0.97945 0.58775 0.03500
H 	H 	0.19376 0.93197 0.53304 0.04200
H 	H 	0.19091 0.98774 0.60084 0.03500
C 	C 	0.82506 0.66684 0.98549 -0.01700
C 	C 	0.82242 0.61851 0.93379 0.09700
C 	C 	0.78208 0.54099 0.94393 -0.04200
C 	C 	0.74784 0.51094 0.00688 -0.12700
C 	C 	0.74924 0.55910 0.05834 0.16500
C 	C 	0.78849 0.63682 0.04755 -0.09700
H 	H 	0.78126 0.50442 0.90435 0.03800
H 	H 	0.79106 0.67378 0.08785 0.06100
O 	O 	0.85675 0.64693 0.87173 -0.20100
O 	O 	0.71835 0.53118 0.12174 -0.20600
C 	C 	0.91804 0.65638 0.87244 -0.02100
H 	H 	0.94843 0.69635 0.91269 0.03700
H 	H 	0.94583 0.68033 0.82296 0.03700
H 	H 	0.91152 0.60179 0.87826 0.03100
C 	C 	0.65725 0.52278 0.12596 -0.01800
H 	H 	0.66444 0.57816 0.12566 0.03500
H 	H 	0.63040 0.49520 0.17484 0.04100
H 	H 	0.62549 0.48645 0.08471 0.04300
C 	C 	0.87820 0.13021 0.92729 -0.01100
C 	C 	0.91102 0.20809 0.93568 0.09600
C 	C 	0.87565 0.24037 0.93476 -0.03000
C 	C 	0.80705 0.19501 0.92935 -0.11800
C 	C 	0.77483 0.11751 0.91792 0.16300
C 	C 	0.81031 0.08534 0.91831 -0.10300
H 	H 	0.90128 0.30040 0.94087 0.05600
H 	H 	0.78493 0.02535 0.91193 0.06600
O 	O 	0.97862 0.25339 0.94025 -0.19700
O 	O 	0.70745 0.07215 0.91176 -0.19900
C 	C 	0.99191 0.26556 0.00945 -0.00900
H 	H 	0.97271 0.29676 0.03511 0.04000
H 	H 	0.04618 0.30048 0.01298 0.03900
H 	H 	0.97186 0.21217 0.03657 0.04000
C 	C 	0.69566 0.06670 0.84242 -0.02000
H 	H 	0.71527 0.12246 0.82033 0.03700
H 	H 	0.64156 0.03149 0.83762 0.04100
H 	H 	0.71643 0.03899 0.81284 0.03700
C 	C 	0.26344 0.12654 0.03566 -0.01300
C 	C 	0.31328 0.20190 0.01969 0.10500
C 	C 	0.37693 0.23472 0.04134 -0.02900
C 	C 	0.39222 0.19147 0.07467 -0.11500
C 	C 	0.34158 0.11750 0.09388 0.16300
C 	C 	0.27765 0.08504 0.07346 -0.10000
H 	H 	0.41533 0.29247 0.02835 0.05500
H 	H 	0.23942 0.02709 0.08591 0.06600
O 	O 	0.29880 0.24482 0.98638 -0.19800
O 	O 	0.35582 0.07451 0.12735 -0.20700
C 	C 	0.31664 0.24606 0.91657 -0.02300
H 	H 	0.37093 0.27508 0.90710 0.03600
H 	H 	0.30258 0.27807 0.88965 0.04100
H 	H 	0.29006 0.18883 0.89421 0.03600
C 	C 	0.34741 0.08296 0.19779 -0.02300
H 	H 	0.38277 0.14188 0.21422 0.04100
H 	H 	0.35784 0.04762 0.22480 0.04200
H 	H 	0.29570 0.06355 0.21344 0.03900
