data_crystal

_cell_length_a 24.88297
_cell_length_b 24.89068
_cell_length_c 34.98990
_cell_angle_alpha 95.54537
_cell_angle_beta  95.54854
_cell_angle_gamma 125.79095

_symmetry_space_group_name_	'P 1'
_symmetry_space_group_name_H-M	'P 1'

loop_
_symmetry_equiv_pos_as_xyz
  x,y,z

loop_
_atom_site_label
_atom_site_type_symbol
_atom_site_fract_x
_atom_site_fract_y
_atom_site_fract_z
_atom_site_charge
C 	C 	0.00884 0.94281 0.98594 -0.05000
C 	C 	0.04817 0.01281 0.98721 0.01100
C 	C 	0.01680 0.04486 0.98536 -0.03600
H 	H 	0.03226 0.91731 0.98581 0.05300
H 	H 	0.04661 0.09827 0.98468 0.06100
C 	C 	0.03244 0.97750 0.48249 -0.04400
C 	C 	0.06647 0.04565 0.48049 0.01000
C 	C 	0.02991 0.07130 0.47341 -0.03700
H 	H 	0.06107 0.95819 0.48871 0.06300
H 	H 	0.05653 0.12438 0.47239 0.06700
O 	O 	0.18107 0.08085 0.50773 -0.19800
C 	C 	0.13981 0.08820 0.48207 0.12300
C 	C 	0.16602 0.11269 0.44943 -0.09600
H 	H 	0.13743 0.10953 0.42278 0.07500
C 	C 	0.12236 0.05296 0.99189 0.11400
H 	H 	0.14321 0.99793 0.02850 0.06600
C 	C 	0.27514 0.15500 0.43214 -0.08300
C 	C 	0.22152 0.11541 0.45130 0.03100
C 	C 	0.23092 0.09805 0.48601 0.12300
H 	H 	0.27018 0.17810 0.40869 0.08500
C 	C 	0.22498 0.09538 0.01880 0.03900
C 	C 	0.22453 0.13387 0.99306 0.11100
O 	O 	0.16015 0.11012 0.97504 -0.20100
C 	C 	0.16055 0.04411 0.01804 -0.08100
C 	C 	0.29439 0.11617 0.50215 -0.08000
H 	H 	0.30450 0.10969 0.53150 0.09300
C 	C 	0.28009 0.09349 0.02736 -0.08700
C 	C 	0.28224 0.17669 0.97737 -0.07300
H 	H 	0.27608 0.05509 0.04188 0.09200
H 	H 	0.28047 0.20128 0.95389 0.07800
C 	C 	0.33702 0.16761 0.44616 0.12400
C 	C 	0.34516 0.14598 0.47971 0.02600
C 	C 	0.33950 0.14076 0.01460 0.13600
C 	C 	0.34087 0.18302 0.99145 0.00600
H 	H 	0.99258 0.14077 0.01692 0.08300
C 	C 	0.94700 0.00779 0.98472 0.00800
C 	C 	0.90885 0.93852 0.98506 -0.03400
C 	C 	0.93931 0.90583 0.98509 0.00500
H 	H 	0.85511 0.90970 0.98468 0.07300
C 	C 	0.95906 0.02841 0.46731 0.01300
C 	C 	0.92490 0.95902 0.46743 -0.04200
C 	C 	0.96170 0.93341 0.47446 0.00500
H 	H 	0.87022 0.92500 0.46093 0.06100
Cu	Cu	0.62256 0.22246 0.00231 0.93600
Cu	Cu	0.68057 0.22940 0.92161 0.88000
Cu	Cu	0.65076 0.32176 0.94876 0.90100
Cu	Cu	0.62453 0.34877 0.02691 0.91000
C 	C 	0.64655 0.27816 0.08330 0.39500
O 	O 	0.52459 0.18372 0.00271 -0.31000
C 	C 	0.63819 0.28029 0.86496 0.38300
O 	O 	0.67586 0.32666 0.00332 -0.63600
O 	O 	0.61142 0.22490 0.94605 -0.64100
O 	O 	0.66363 0.17381 0.00054 -0.32400
O 	O 	0.74095 0.24632 0.96682 -0.40100
O 	O 	0.61437 0.30324 0.07257 -0.35000
O 	O 	0.69579 0.41741 0.95306 -0.33000
C 	C 	0.68551 0.45389 0.97666 0.25900
C 	C 	0.49734 0.21149 0.98849 0.25000
O 	O 	0.53644 0.27365 0.98243 -0.37700
O 	O 	0.66625 0.43775 0.01034 -0.35200
O 	O 	0.64858 0.23689 0.05783 -0.32500
C 	C 	0.72129 0.20056 0.98876 0.25900
O 	O 	0.62929 0.31366 0.89222 -0.34500
O 	O 	0.64171 0.23117 0.87210 -0.37400
H 	H 	0.72504 0.35708 0.01374 0.19100
H 	H 	0.56499 0.19344 0.93056 0.19500
Cu	Cu	0.75168 0.35328 0.45361 0.93400
Cu	Cu	0.74724 0.29922 0.53579 0.88300
Cu	Cu	0.65123 0.32510 0.50681 0.90300
Cu	Cu	0.62672 0.35327 0.42844 0.91100
C 	C 	0.69668 0.32953 0.37240 0.39500
O 	O 	0.79179 0.45176 0.45313 -0.31400
C 	C 	0.69432 0.34042 0.59110 0.38200
O 	O 	0.64744 0.30105 0.45218 -0.63700
O 	O 	0.74859 0.36528 0.50978 -0.63800
O 	O 	0.79718 0.30872 0.45548 -0.33400
O 	O 	0.72599 0.23515 0.49149 -0.39700
O 	O 	0.67204 0.36227 0.38284 -0.35000
O 	O 	0.55500 0.27918 0.50186 -0.34000
C 	C 	0.51520 0.27334 0.47123 0.26000
C 	C 	0.76404 0.47910 0.46730 0.25400
O 	O 	0.70186 0.44020 0.47318 -0.37200
O 	O 	0.53946 0.31481 0.44622 -0.34200
O 	O 	0.73755 0.32724 0.39808 -0.32900
C 	C 	0.76858 0.25110 0.46767 0.25800
O 	O 	0.65799 0.34541 0.56345 -0.34400
O 	O 	0.74580 0.34085 0.58421 -0.37400
H 	H 	0.61693 0.25201 0.44140 0.18600
H 	H 	0.77952 0.41213 0.52474 0.19400
C 	C 	0.61300 0.25090 0.75456 0.22500
C 	C 	0.64492 0.31690 0.74776 -0.00700
C 	C 	0.66837 0.36971 0.77912 0.23000
C 	C 	0.66396 0.35741 0.81731 0.30300
C 	C 	0.63467 0.29176 0.82438 -0.20900
C 	C 	0.60691 0.23818 0.79255 0.30600
C 	C 	0.65834 0.33137 0.70835 -0.00700
F 	F 	0.69724 0.43332 0.77268 -0.35000
F 	F 	0.57433 0.17381 0.79846 -0.38400
C 	C 	0.60453 0.30460 0.67699 0.22900
C 	C 	0.61646 0.30989 0.63877 0.30400
C 	C 	0.68264 0.34336 0.63167 -0.20900
C 	C 	0.73691 0.37448 0.66349 0.30600
C 	C 	0.72469 0.36756 0.70153 0.22400
F 	F 	0.54042 0.27158 0.68345 -0.35000
F 	F 	0.80147 0.41101 0.65753 -0.38400
F 	F 	0.56344 0.27997 0.60851 -0.39000
F 	F 	0.77720 0.39435 0.73170 -0.35300
F 	F 	0.58953 0.19933 0.72440 -0.35300
F 	F 	0.69063 0.40974 0.84756 -0.38300
C 	C 	0.70851 0.34799 0.19159 0.22600
C 	C 	0.68415 0.28903 0.20669 -0.00400
C 	C 	0.65308 0.22736 0.18103 0.22900
C 	C 	0.64326 0.22403 0.14055 0.31300
C 	C 	0.66504 0.28263 0.12543 -0.20900
C 	C 	0.69927 0.34486 0.15116 0.30700
C 	C 	0.68600 0.29105 0.24913 -0.00400
F 	F 	0.63052 0.17031 0.19538 -0.34700
F 	F 	0.72239 0.40213 0.13693 -0.39800
C 	C 	0.62703 0.26712 0.26414 0.22600
C 	C 	0.63006 0.27654 0.30455 0.30700
C 	C 	0.69221 0.31052 0.33035 -0.21000
C 	C 	0.75079 0.33178 0.31533 0.31300
C 	C 	0.74756 0.32180 0.27486 0.22900
F 	F 	0.56714 0.23672 0.23948 -0.35200
F 	F 	0.81129 0.36484 0.33983 -0.37700
F 	F 	0.57279 0.25389 0.31870 -0.39800
F 	F 	0.80461 0.34389 0.26060 -0.34800
F 	F 	0.73920 0.40798 0.21617 -0.35200
F 	F 	0.60987 0.16343 0.11612 -0.37400
C 	C 	0.87022 0.76373 0.48751 0.11800
C 	C 	0.81249 0.70045 0.49046 -0.07900
C 	C 	0.80401 0.64274 0.47169 0.01800
C 	C 	0.85232 0.64724 0.45287 0.12700
C 	C 	0.90971 0.71044 0.44975 -0.08700
C 	C 	0.91831 0.76801 0.46862 0.03700
O 	O 	0.87296 0.82157 0.49114 -0.20200
C 	C 	0.92653 0.86012 0.47177 0.12400
C 	C 	0.95342 0.82833 0.45822 -0.10100
O 	O 	0.85063 0.59013 0.44991 -0.16600
C 	C 	0.79759 0.55163 0.46956 0.05300
C 	C 	0.76942 0.58248 0.48244 -0.05500
H 	H 	0.77473 0.69631 0.50571 0.08000
H 	H 	0.94755 0.71461 0.43456 0.08800
H 	H 	0.98520 0.84287 0.43640 0.07400
H 	H 	0.73811 0.56822 0.50449 0.07000
C 	C 	0.78983 0.12274 0.45339 0.12500
C 	C 	0.79592 0.07735 0.47056 -0.08400
C 	C 	0.85626 0.08454 0.47133 0.02700
C 	C 	0.90644 0.13098 0.45354 0.12300
C 	C 	0.90045 0.17604 0.43604 -0.08100
C 	C 	0.84036 0.16961 0.43552 0.02200
O 	O 	0.74931 0.14023 0.46497 -0.17900
C 	C 	0.78131 0.20270 0.45329 0.05300
C 	C 	0.83554 0.22067 0.43571 -0.04600
O 	O 	0.95036 0.11636 0.44476 -0.20200
C 	C 	0.92110 0.05601 0.45894 0.12000
C 	C 	0.86366 0.03574 0.47369 -0.08300
H 	H 	0.75643 0.04003 0.48437 0.08300
H 	H 	0.94049 0.21385 0.42274 0.08600
H 	H 	0.87701 0.27207 0.43468 0.08000
H 	H 	0.83979 0.99789 0.49177 0.06400
O 	O 	0.39724 0.21958 0.43696 -0.17200
C 	C 	0.44189 0.22771 0.46853 0.06300
C 	C 	0.41155 0.18418 0.49403 -0.05800
H 	H 	0.43428 0.19197 0.52399 0.09800
C 	C 	0.75508 0.60963 0.94550 0.12600
C 	C 	0.80908 0.66640 0.93371 -0.08100
C 	C 	0.82915 0.73010 0.95126 0.03400
C 	C 	0.80436 0.73826 0.98298 0.11800
C 	C 	0.75469 0.68197 0.99711 -0.08800
C 	C 	0.72700 0.61777 0.97570 0.02600
O 	O 	0.74343 0.54736 0.93888 -0.15200
C 	C 	0.70691 0.51976 0.96840 0.06300
C 	C 	0.69688 0.56109 0.99044 -0.06500
O 	O 	0.84577 0.80268 0.00563 -0.19500
C 	C 	0.89781 0.83268 0.98419 0.11900
C 	C 	0.88955 0.78868 0.95278 -0.09600
H 	H 	0.83685 0.66127 0.91351 0.09500
H 	H 	0.74055 0.68794 0.02465 0.08700
H 	H 	0.68594 0.55719 0.01971 0.07900
H 	H 	0.91604 0.80323 0.92853 0.07600
C 	C 	0.83250 0.04815 0.98387 0.10900
C 	C 	0.77405 0.04214 0.97034 -0.06300
C 	C 	0.77853 0.10121 0.97355 0.01100
C 	C 	0.83729 0.16328 0.99073 0.11900
C 	C 	0.89570 0.16916 0.00479 -0.08400
C 	C 	0.89091 0.10976 0.00204 0.05300
O 	O 	0.84221 0.00082 0.97015 -0.20000
C 	C 	0.91242 0.03995 0.98188 0.13100
C 	C 	0.94198 0.10569 0.99982 -0.11500
O 	O 	0.82760 0.21108 0.00378 -0.16500
C 	C 	0.75704 0.17070 0.99377 0.04700
C 	C 	0.72759 0.10479 0.97686 -0.04900
H 	H 	0.72738 0.99355 0.95697 0.07100
H 	H 	0.94236 0.21773 0.01818 0.08600
H 	H 	0.67614 0.06867 0.96104 0.06200
O 	O 	0.39176 0.13516 0.01371 -0.16300
C 	C 	0.42530 0.17906 0.98808 0.04800
C 	C 	0.39337 0.20525 0.97335 -0.05000
H 	H 	0.41504 0.24730 0.95811 0.06700
