data_crystal

_cell_length_a 17.56685
_cell_length_b 17.02124
_cell_length_c 49.28959
_cell_angle_alpha 90.73751
_cell_angle_beta  91.02134
_cell_angle_gamma 110.77975

_symmetry_space_group_name_	'P 1'
_symmetry_space_group_name_H-M	'P 1'

loop_
_symmetry_equiv_pos_as_xyz
  x,y,z

loop_
_atom_site_label
_atom_site_type_symbol
_atom_site_fract_x
_atom_site_fract_y
_atom_site_fract_z
_atom_site_charge
O 	O 	0.08086 0.87432 0.75236 -0.70200
Ni	Ni	0.09044 0.98179 0.77224 1.09300
O 	O 	0.15086 0.78791 0.71257 -0.40600
Ni	Ni	0.19125 0.88329 0.74229 1.06400
O 	O 	0.19250 0.97710 0.71685 -0.42900
O 	O 	0.17133 0.97637 0.80160 -0.39800
O 	O 	0.00998 0.98163 0.74203 -0.71300
O 	O 	0.07579 0.08267 0.79202 -0.37200
H 	H 	0.05610 0.82418 0.76347 0.14900
H 	H 	0.02879 0.03347 0.73127 0.16100
C 	C 	0.20988 0.05413 0.72663 0.29200
C 	C 	0.07399 0.75046 0.70501 0.29500
C 	C 	0.24456 0.97958 0.79522 0.28800
C 	C 	0.00306 0.08614 0.79585 0.28100
O 	O 	0.18282 0.06732 0.75063 -0.37600
O 	O 	0.26214 0.97160 0.76968 -0.41800
Ni	Ni	0.37741 0.74811 0.40730 1.10000
O 	O 	0.36070 0.67353 0.37281 -0.69700
Ni	Ni	0.24717 0.66703 0.36176 1.09500
O 	O 	0.47256 0.72057 0.42360 -0.36700
O 	O 	0.45882 0.59389 0.40469 -0.40100
O 	O 	0.46347 0.84741 0.38875 -0.37000
Ni	Ni	0.35334 0.55739 0.38054 1.06700
O 	O 	0.36090 0.92439 0.41424 -0.41800
O 	O 	0.28415 0.55479 0.41362 -0.41800
O 	O 	0.22904 0.58420 0.32997 -0.39800
O 	O 	0.26970 0.74889 0.39388 -0.71100
O 	O 	0.38580 0.82453 0.44000 -0.37100
O 	O 	0.13941 0.68339 0.35260 -0.37800
O 	O 	0.20409 0.82529 0.34930 -0.41700
Ni	Ni	0.28350 0.86293 0.38297 1.06400
H 	H 	0.40031 0.69920 0.35854 0.15900
H 	H 	0.22817 0.72989 0.40803 0.15600
C 	C 	0.21123 0.55957 0.41112 0.29800
O 	O 	0.37717 0.87327 0.35790 -0.42400
C 	C 	0.46774 0.64265 0.42625 0.31900
C 	C 	0.23437 0.51013 0.33361 0.29200
C 	C 	0.45124 0.88751 0.36741 0.29800
C 	C 	0.13646 0.75871 0.34906 0.28300
C 	C 	0.36393 0.89080 0.43814 0.30300
O 	O 	0.18279 0.57190 0.38717 -0.37500
O 	O 	0.25243 0.48941 0.35790 -0.40700
Ni	Ni	0.35121 0.66882 0.13130 1.10000
O 	O 	0.25317 0.63221 0.10434 -0.69500
Ni	Ni	0.18539 0.69526 0.11916 1.10000
O 	O 	0.40531 0.59535 0.11210 -0.36400
O 	O 	0.28931 0.48034 0.11032 -0.40900
O 	O 	0.40264 0.75959 0.10356 -0.39300
Ni	Ni	0.18774 0.51282 0.10275 1.06800
O 	O 	0.39698 0.78633 0.18535 -0.42600
O 	O 	0.16494 0.51142 0.14319 -0.41300
O 	O 	0.09980 0.66504 0.08874 -0.37200
O 	O 	0.27416 0.71710 0.14856 -0.70100
O 	O 	0.45327 0.71558 0.15661 -0.37200
O 	O 	0.14286 0.78540 0.13376 -0.37700
O 	O 	0.27073 0.88168 0.13269 -0.41500
Ni	Ni	0.33525 0.83378 0.15928 1.06900
H 	H 	0.26982 0.65159 0.08578 0.15300
H 	H 	0.25171 0.68469 0.16494 0.15700
C 	C 	0.10951 0.53924 0.15249 0.29400
O 	O 	0.43217 0.86912 0.13385 -0.39500
C 	C 	0.35992 0.52448 0.10006 0.31200
C 	C 	0.07390 0.58839 0.07804 0.29900
C 	C 	0.42877 0.84063 0.10883 0.32000
C 	C 	0.19247 0.86407 0.13584 0.27800
C 	C 	0.46008 0.76811 0.17741 0.30200
O 	O 	0.10224 0.60865 0.14316 -0.37400
O 	O 	0.07943 0.52483 0.09212 -0.41500
O 	O 	0.06205 0.20955 0.24294 -0.37800
O 	O 	0.11110 0.07954 0.22723 -0.41300
O 	O 	0.01414 0.09470 0.19799 -0.36800
O 	O 	0.01517 0.97849 0.29976 -0.40900
Ni	Ni	0.05417 0.02976 0.26224 1.06600
O 	O 	0.08087 0.14366 0.28112 -0.41500
C 	C 	0.09040 0.21270 0.26793 0.29600
C 	C 	0.07382 0.06656 0.20304 0.28200
C 	C 	0.07602 0.47717 0.19790 -0.04500
C 	C 	0.04952 0.48761 0.17164 -0.08900
C 	C 	0.96972 0.43753 0.16260 0.10100
C 	C 	0.95297 0.35489 0.20350 -0.10100
C 	C 	0.02706 0.41262 0.21428 0.11200
N 	N 	0.05100 0.40691 0.24032 -0.19900
H 	H 	0.13567 0.51782 0.20534 0.03900
N 	N 	0.93796 0.45322 0.13880 -0.20200
H 	H 	0.10661 0.44876 0.24803 0.08900
H 	H 	0.01281 0.36371 0.25350 0.08400
H 	H 	0.96612 0.50850 0.12837 0.11100
C 	C 	0.21888 0.99775 0.16200 -0.05600
C 	C 	0.16367 0.92948 0.14717 -0.10100
C 	C 	0.08036 0.92034 0.14582 0.11000
C 	C 	0.05163 0.96792 0.16368 -0.04500
C 	C 	0.10613 0.03038 0.18062 -0.10000
C 	C 	0.19085 0.05061 0.17778 0.10700
N 	N 	0.24519 0.12208 0.18924 -0.20000
H 	H 	0.28363 0.00930 0.16154 0.03400
H 	H 	0.98683 0.95595 0.16450 0.04100
N 	N 	0.02908 0.86997 0.12656 -0.19500
H 	H 	0.30774 0.13427 0.18832 0.08100
H 	H 	0.22615 0.16870 0.19746 0.10100
H 	H 	0.05146 0.84702 0.10994 0.11100
H 	H 	0.96672 0.85926 0.12682 0.08900
C 	C 	0.23425 0.42769 0.29184 -0.05300
C 	C 	0.19202 0.44220 0.31407 -0.09700
C 	C 	0.11306 0.38523 0.31937 0.11200
C 	C 	0.08160 0.31009 0.30423 -0.04800
C 	C 	0.12452 0.29399 0.28246 -0.10300
C 	C 	0.20108 0.35398 0.27581 0.10700
N 	N 	0.24366 0.34058 0.25455 -0.20200
H 	H 	0.29420 0.47238 0.28754 0.03300
H 	H 	0.02337 0.26392 0.30944 0.02700
N 	N 	0.06708 0.40264 0.33883 -0.19900
H 	H 	0.29994 0.38544 0.24980 0.08100
H 	H 	0.22176 0.28576 0.24260 0.09800
H 	H 	0.08514 0.46153 0.34850 0.11300
H 	H 	0.01042 0.35839 0.34354 0.08600
C 	C 	0.97936 0.78378 0.30035 -0.06200
C 	C 	0.95381 0.83889 0.31594 -0.09100
C 	C 	0.96595 0.84159 0.34436 0.10300
C 	C 	0.02051 0.80677 0.35569 -0.04300
C 	C 	0.06019 0.76692 0.33898 -0.09900
C 	C 	0.03462 0.74934 0.31142 0.11300
N 	N 	0.06477 0.70229 0.29532 -0.20300
H 	H 	0.03589 0.81534 0.37721 0.02900
N 	N 	0.92882 0.88140 0.36063 -0.20000
H 	H 	0.04720 0.69183 0.27483 0.07900
H 	H 	0.10424 0.67406 0.30302 0.09800
H 	H 	0.88594 0.90504 0.35267 0.09900
H 	H 	0.94051 0.88649 0.38157 0.08300
C 	C 	0.34188 0.94352 0.51119 -0.12000
C 	C 	0.43471 0.06753 0.48980 0.11800
C 	C 	0.41817 0.02502 0.46467 -0.02900
C 	C 	0.36665 0.94047 0.46294 -0.13100
C 	C 	0.32594 0.90074 0.48613 0.19200
O 	O 	0.48772 0.14922 0.49147 -0.26900
H 	H 	0.44887 0.05640 0.44682 0.05600
O 	O 	0.27395 0.81859 0.48459 -0.29400
O 	O 	0.34998 0.15697 0.53464 -0.26400
H 	H 	0.21946 0.82120 0.48043 0.13300
H 	H 	0.29470 0.12296 0.54071 0.14400
C 	C 	0.03232 0.44950 0.45531 -0.11100
C 	C 	0.05860 0.49269 0.48013 0.00400
C 	C 	0.13373 0.55982 0.48197 0.11600
C 	C 	0.18279 0.58212 0.45920 -0.03800
C 	C 	0.15687 0.53860 0.43440 -0.12800
C 	C 	0.08087 0.47249 0.43242 0.19400
O 	O 	0.16013 0.60241 0.50617 -0.27000
H 	H 	0.24088 0.63350 0.46079 0.04500
O 	O 	0.05583 0.42763 0.40854 -0.28800
H 	H 	0.97434 0.39793 0.45379 0.07500
H 	H 	0.06789 0.38902 0.52011 0.08000
H 	H 	0.02290 0.45568 0.39882 0.15200
C 	C 	0.51655 0.57344 0.50588 0.00500
C 	C 	0.45233 0.60294 0.50121 0.12200
C 	C 	0.43573 0.62364 0.47497 -0.02900
C 	C 	0.48176 0.61347 0.45314 -0.13100
C 	C 	0.54399 0.58073 0.45762 0.19700
O 	O 	0.40759 0.61438 0.52243 -0.27000
H 	H 	0.38759 0.64860 0.47162 0.05300
H 	H 	0.56336 0.51363 0.42959 0.14800
H 	H 	0.36129 0.56037 0.52378 0.15700
C 	C 	0.36475 0.18286 0.67697 -0.04400
C 	C 	0.43030 0.22468 0.69478 -0.09500
C 	C 	0.41797 0.22257 0.72306 0.10900
C 	C 	0.34308 0.17050 0.73313 -0.04600
C 	C 	0.27965 0.12242 0.71538 -0.09200
C 	C 	0.28881 0.13286 0.68704 0.10700
N 	N 	0.22486 0.09667 0.66951 -0.19800
H 	H 	0.37345 0.18728 0.65523 0.05600
H 	H 	0.33537 0.16485 0.75487 0.05700
N 	N 	0.47747 0.27056 0.74060 -0.20000
H 	H 	0.23290 0.10178 0.64855 0.09000
H 	H 	0.16599 0.06682 0.67649 0.08700
H 	H 	0.53114 0.31494 0.73362 0.09000
H 	H 	0.46904 0.26625 0.76154 0.07800
H 	H 	0.11782 0.68092 0.66121 0.05100
C 	C 	0.99422 0.49728 0.00870 0.10600
C 	C 	0.03674 0.51289 0.03360 -0.03100
C 	C 	0.02657 0.57095 0.05233 -0.12900
C 	C 	0.97259 0.61310 0.04603 0.19400
O 	O 	0.00467 0.44031 0.99057 -0.27600
H 	H 	0.07820 0.48030 0.03828 0.02800
O 	O 	0.95987 0.66811 0.06443 -0.28500
H 	H 	0.96227 0.38568 0.99488 0.13600
H 	H 	0.91373 0.63346 0.07544 0.15300
C 	C 	0.56470 0.02625 0.01448 0.01900
C 	C 	0.52384 0.98570 0.99055 0.10300
C 	C 	0.54338 0.02547 0.96561 -0.01700
C 	C 	0.53987 0.98769 0.04107 -0.00500
O 	O 	0.46170 0.90931 0.99172 -0.27100
H 	H 	0.50972 0.99510 0.94740 0.05500
C 	C 	0.56663 0.92361 0.05007 0.12300
C 	C 	0.53393 0.87930 0.07340 -0.03200
C 	C 	0.47388 0.89796 0.08774 -0.12000
C 	C 	0.45055 0.96526 0.07958 0.18300
C 	C 	0.48400 0.01020 0.05640 -0.10000
H 	H 	0.55346 0.82867 0.07988 0.06600
O 	O 	0.39412 0.98628 0.09393 -0.29000
H 	H 	0.46422 0.06050 0.04978 0.07700
H 	H 	0.34089 0.95434 0.08495 0.15100
H 	H 	0.48765 0.86685 0.98885 0.14100
C 	C 	0.37234 0.41876 0.97103 -0.11700
C 	C 	0.40920 0.47964 0.01773 0.00500
O 	O 	0.33595 0.34880 0.92762 -0.28400
H 	H 	0.30872 0.39613 0.97638 0.07100
C 	C 	0.41073 0.55942 0.02613 0.11600
C 	C 	0.39550 0.57382 0.05314 -0.03900
C 	C 	0.37646 0.50833 0.07179 -0.14500
C 	C 	0.37200 0.42769 0.06315 0.19100
C 	C 	0.38914 0.41382 0.03624 -0.11500
O 	O 	0.42940 0.62402 0.00814 -0.28000
H 	H 	0.39785 0.63581 0.05954 0.05100
O 	O 	0.35472 0.36344 0.08124 -0.28400
H 	H 	0.31940 0.38848 0.91651 0.14800
H 	H 	0.37644 0.62098 0.99993 0.14000
H 	H 	0.29481 0.33442 0.07985 0.14300
C 	C 	0.40738 0.14286 0.83799 -0.03900
C 	C 	0.45256 0.09538 0.84759 -0.10100
C 	C 	0.42577 0.00801 0.84160 0.12400
C 	C 	0.35654 0.97103 0.82474 -0.06500
C 	C 	0.31229 0.01900 0.81466 -0.07900
C 	C 	0.33795 0.10602 0.82136 0.10600
N 	N 	0.29709 0.15477 0.81164 -0.19900
H 	H 	0.42682 0.20922 0.84327 0.03300
H 	H 	0.33681 0.90456 0.81956 0.03600
N 	N 	0.46466 0.95901 0.85247 -0.20400
H 	H 	0.31658 0.21868 0.81688 0.08500
H 	H 	0.24667 0.13066 0.79856 0.11000
H 	H 	0.44581 0.89512 0.84725 0.07900
Ni	Ni	0.60064 0.28298 0.90311 1.10000
O 	O 	0.60834 0.33935 0.86584 -0.69700
Ni	Ni	0.72149 0.34597 0.85607 1.09500
O 	O 	0.50457 0.31227 0.91697 -0.35900
O 	O 	0.50647 0.42306 0.89145 -0.40700
O 	O 	0.51747 0.17219 0.88792 -0.36700
Ni	Ni	0.61067 0.45601 0.86840 1.06600
O 	O 	0.61688 0.11130 0.91575 -0.41100
O 	O 	0.68296 0.47726 0.90250 -0.42000
O 	O 	0.73407 0.41645 0.82205 -0.39600
O 	O 	0.70659 0.27904 0.89076 -0.71100
O 	O 	0.60108 0.22314 0.93848 -0.36700
O 	O 	0.82923 0.32869 0.84872 -0.37300
O 	O 	0.76767 0.18598 0.85064 -0.41200
Ni	Ni	0.69197 0.16127 0.88401 1.06500
H 	H 	0.56750 0.30579 0.85216 0.15400
H 	H 	0.75059 0.30450 0.90449 0.15700
C 	C 	0.75524 0.47034 0.90216 0.29600
O 	O 	0.59681 0.13874 0.85710 -0.41900
C 	C 	0.50300 0.38836 0.91526 0.31700
C 	C 	0.73126 0.49249 0.82343 0.29300
C 	C 	0.52531 0.13745 0.86476 0.29800
C 	C 	0.83412 0.25320 0.84873 0.28100
C 	C 	0.61539 0.15204 0.93879 0.30600
O 	O 	0.78422 0.45156 0.87938 -0.37000
O 	O 	0.70976 0.51994 0.84612 -0.40800
Ni	Ni	0.61972 0.36283 0.64095 1.09800
O 	O 	0.70006 0.38528 0.60944 -0.69700
Ni	Ni	0.76667 0.31485 0.61941 1.09800
O 	O 	0.56750 0.44541 0.62681 -0.36500
O 	O 	0.68823 0.54970 0.62025 -0.40000
O 	O 	0.53933 0.27552 0.61550 -0.38700
Ni	Ni	0.77449 0.50175 0.60698 1.07000
O 	O 	0.56744 0.22687 0.69100 -0.42300
O 	O 	0.81435 0.50325 0.64610 -0.41400
O 	O 	0.83594 0.33689 0.58559 -0.36700
O 	O 	0.69407 0.30136 0.65259 -0.69900
O 	O 	0.53443 0.33174 0.67090 -0.37600
O 	O 	0.81226 0.22335 0.63022 -0.36300
O 	O 	0.68494 0.12979 0.63666 -0.40800
Ni	Ni	0.62866 0.18635 0.66299 1.06800
H 	H 	0.67162 0.36565 0.59175 0.15300
H 	H 	0.72697 0.33126 0.66859 0.14900
C 	C 	0.86802 0.46897 0.65254 0.29600
O 	O 	0.53084 0.15524 0.63676 -0.39900
C 	C 	0.61115 0.51183 0.61346 0.30800
C 	C 	0.86672 0.41378 0.57619 0.29800
C 	C 	0.52997 0.19559 0.61434 0.30300
C 	C 	0.76398 0.14930 0.63805 0.28700
C 	C 	0.51280 0.25992 0.68386 0.30200
O 	O 	0.86557 0.39815 0.64077 -0.37400
O 	O 	0.87256 0.47916 0.59196 -0.41400
Ni	Ni	0.00839 0.88175 0.71985 1.09900
O 	O 	0.03241 0.79532 0.69585 -0.37100
O 	O 	0.91110 0.78625 0.73555 -0.37200
O 	O 	0.83933 0.89697 0.72102 -0.41000
O 	O 	0.93301 0.89544 0.68985 -0.37600
O 	O 	0.93778 0.01821 0.79262 -0.40600
Ni	Ni	0.89946 0.95865 0.75517 1.06600
O 	O 	0.89028 0.85046 0.77421 -0.41100
C 	C 	0.89163 0.78315 0.76130 0.28900
C 	C 	0.87023 0.91572 0.69674 0.29600
Ni	Ni	0.95334 0.12135 0.22940 1.10400
O 	O 	0.89628 0.14140 0.26367 -0.69900
Ni	Ni	0.87087 0.02738 0.28047 1.09700
O 	O 	0.93123 0.20878 0.20560 -0.37300
O 	O 	0.84872 0.25885 0.23001 -0.40900
Ni	Ni	0.79320 0.15377 0.25372 1.06600
O 	O 	0.78569 0.06403 0.22504 -0.43000
O 	O 	0.79322 0.03745 0.30972 -0.39100
O 	O 	0.94471 0.01917 0.25008 -0.70800
O 	O 	0.87637 0.91936 0.29743 -0.37000
H 	H 	0.93013 0.18779 0.27577 0.15300
H 	H 	0.91971 0.96794 0.23859 0.15400
C 	C 	0.75362 0.98431 0.23161 0.28100
C 	C 	0.91470 0.27219 0.21575 0.30600
C 	C 	0.72762 0.05361 0.30282 0.29000
C 	C 	0.94801 0.91302 0.30249 0.27200
O 	O 	0.77301 0.95839 0.25527 -0.36600
O 	O 	0.71396 0.06480 0.27711 -0.41400
C 	C 	0.92301 0.37017 0.17838 -0.03600
H 	H 	0.86438 0.32789 0.17066 0.04900
H 	H 	0.88144 0.41240 0.13140 0.09000
C 	C 	0.66688 0.84270 0.21360 -0.04800
C 	C 	0.68075 0.92903 0.21626 -0.08400
C 	C 	0.62374 0.96133 0.20460 0.10300
C 	C 	0.56007 0.90888 0.18813 -0.03700
C 	C 	0.54155 0.82178 0.18760 -0.09700
C 	C 	0.59587 0.78796 0.20031 0.11200
N 	N 	0.57981 0.70366 0.20034 -0.20100
H 	H 	0.71012 0.81764 0.22255 0.04800
H 	H 	0.51883 0.93478 0.17826 0.03500
N 	N 	0.62553 0.03994 0.21102 -0.19100
H 	H 	0.62082 0.67972 0.20955 0.08500
H 	H 	0.52623 0.66097 0.19170 0.09800
H 	H 	0.65190 0.06985 0.22924 0.05700
H 	H 	0.59081 0.06700 0.19964 0.07700
C 	C 	0.51162 0.97545 0.32741 -0.04700
C 	C 	0.52241 0.94780 0.35344 -0.09700
C 	C 	0.60211 0.97522 0.36530 0.11100
C 	C 	0.66960 0.01045 0.34869 -0.04600
C 	C 	0.65864 0.03301 0.32198 -0.09400
C 	C 	0.57913 0.02559 0.31293 0.10400
N 	N 	0.56782 0.07262 0.29225 -0.19400
H 	H 	0.45078 0.96169 0.31896 0.04700
H 	H 	0.73055 0.02347 0.35696 0.05300
N 	N 	0.61376 0.97578 0.39264 -0.19700
H 	H 	0.50958 0.06054 0.28388 0.07600
H 	H 	0.61438 0.12762 0.28674 0.06700
H 	H 	0.56746 0.97465 0.40579 0.10900
H 	H 	0.67207 0.98801 0.40097 0.09100
H 	H 	0.96453 0.77620 0.27880 0.02900
C 	C 	0.39808 0.02594 0.51329 0.01100
C 	C 	0.42574 0.06463 0.54028 -0.00100
H 	H 	0.31284 0.91157 0.52920 0.07300
C 	C 	0.40222 0.13054 0.54983 0.12100
C 	C 	0.43452 0.17152 0.57446 -0.03600
C 	C 	0.48987 0.14654 0.58987 -0.12400
C 	C 	0.51011 0.07770 0.58087 0.18400
C 	C 	0.47852 0.03756 0.55607 -0.11100
H 	H 	0.41707 0.22321 0.58147 0.06600
O 	O 	0.56401 0.05239 0.59556 -0.29300
H 	H 	0.49631 0.98632 0.54883 0.07200
H 	H 	0.52992 0.00780 0.60752 0.15200
H 	H 	0.54227 0.14557 0.49467 0.14400
C 	C 	0.00655 0.46872 0.50404 0.00600
C 	C 	0.94486 0.50198 0.50816 0.11400
C 	C 	0.89758 0.48134 0.53138 -0.03600
C 	C 	0.91196 0.42829 0.55077 -0.12600
C 	C 	0.97384 0.39502 0.54665 0.19600
C 	C 	0.02028 0.41465 0.52319 -0.11200
O 	O 	0.93008 0.55389 0.48936 -0.27800
H 	H 	0.85027 0.50741 0.53446 0.03200
O 	O 	0.98939 0.34389 0.56558 -0.27800
H 	H 	0.96542 0.61157 0.49513 0.13900
H 	H 	0.03068 0.38230 0.57831 0.15200
H 	H 	0.13941 0.64956 0.50596 0.14300
C 	C 	0.56156 0.56141 0.48400 -0.11500
C 	C 	0.53841 0.55773 0.53374 0.00500
O 	O 	0.59061 0.57206 0.43656 -0.28700
H 	H 	0.61089 0.53828 0.48752 0.07000
C 	C 	0.51247 0.47546 0.54355 0.11200
C 	C 	0.53321 0.46122 0.57009 -0.03800
C 	C 	0.58082 0.52869 0.58692 -0.14500
C 	C 	0.60482 0.61131 0.57729 0.18900
C 	C 	0.58412 0.62540 0.55071 -0.11600
O 	O 	0.46540 0.40911 0.52741 -0.26800
H 	H 	0.51429 0.39741 0.57730 0.05900
O 	O 	0.64983 0.67812 0.59362 -0.30000
H 	H 	0.60356 0.68900 0.54327 0.07800
H 	H 	0.50449 0.38863 0.51803 0.14600
H 	H 	0.60933 0.69614 0.60315 0.15300
C 	C 	0.78607 0.01372 0.64042 -0.03700
C 	C 	0.79825 0.09310 0.65201 -0.09700
C 	C 	0.83683 0.11492 0.67795 0.08600
C 	C 	0.86290 0.05691 0.69160 -0.03100
C 	C 	0.84811 0.97653 0.68047 -0.12400
C 	C 	0.80999 0.95469 0.65451 0.11300
N 	N 	0.79461 0.87697 0.64325 -0.20200
H 	H 	0.75615 0.99709 0.62063 0.05000
H 	H 	0.89288 0.07360 0.71138 -0.00700
N 	N 	0.84688 0.19025 0.69020 -0.19900
H 	H 	0.76641 0.86157 0.62407 0.09400
H 	H 	0.80970 0.83091 0.65343 0.10700
H 	H 	0.82294 0.23256 0.68168 0.06500
H 	H 	0.87717 0.20628 0.70904 0.07200
C 	C 	0.92689 0.53195 0.69708 -0.04000
C 	C 	0.93903 0.51734 0.66973 -0.09400
C 	C 	0.01322 0.56597 0.65775 0.10800
C 	C 	0.06515 0.63875 0.67137 -0.03900
C 	C 	0.04525 0.66111 0.69700 -0.09600
C 	C 	0.98104 0.60266 0.71109 0.10500
N 	N 	0.97062 0.61478 0.73786 -0.19700
H 	H 	0.87272 0.49145 0.70694 0.03800
N 	N 	0.03400 0.54411 0.63311 -0.20200
H 	H 	0.92288 0.57151 0.74820 0.08800
H 	H 	0.01206 0.66517 0.74888 0.07000
H 	H 	0.00193 0.48574 0.62402 0.11200
H 	H 	0.08602 0.58341 0.62358 0.09000
C 	C 	0.93232 0.55508 0.95217 -0.11300
C 	C 	0.89463 0.52240 0.97647 0.00200
C 	C 	0.81202 0.47066 0.97616 0.11800
C 	C 	0.76741 0.45255 0.95168 -0.03700
C 	C 	0.80463 0.48596 0.92737 -0.13500
C 	C 	0.88774 0.53683 0.92761 0.19500
C 	C 	0.94207 0.54095 0.00216 0.00700
O 	O 	0.77424 0.43988 0.99991 -0.26700
H 	H 	0.70364 0.41270 0.95159 0.04300
O 	O 	0.92433 0.57223 0.90415 -0.28800
H 	H 	0.99605 0.59499 0.95236 0.07600
C 	C 	0.93156 0.59882 0.02084 -0.11300
H 	H 	0.89049 0.63171 0.01599 0.08200
H 	H 	0.94850 0.53221 0.89668 0.15400
H 	H 	0.78371 0.38648 0.00274 0.15300
C 	C 	0.62668 0.10528 0.01313 -0.11600
C 	C 	0.60348 0.10583 0.96434 -0.12700
C 	C 	0.64646 0.14496 0.98814 0.19400
O 	O 	0.70591 0.22314 0.98716 -0.29600
H 	H 	0.65869 0.13650 0.03148 0.07900
O 	O 	0.62523 0.90472 0.03623 -0.27600
H 	H 	0.75720 0.21273 0.98407 0.13400
H 	H 	0.59495 0.85892 0.02320 0.14600
C 	C 	0.43226 0.46580 0.98996 0.00600
C 	C 	0.51461 0.49611 0.98274 0.12600
C 	C 	0.53676 0.47593 0.95720 -0.03800
C 	C 	0.47736 0.42514 0.93882 -0.12700
C 	C 	0.39463 0.39850 0.94547 0.19900
O 	O 	0.57389 0.54098 0.00123 -0.26400
H 	H 	0.60059 0.49660 0.95216 0.05600
H 	H 	0.38786 0.35219 0.02984 0.08000
H 	H 	0.58251 0.60084 0.99789 0.15400
C 	C 	0.92494 0.25800 0.81055 -0.04000
C 	C 	0.90733 0.24217 0.83802 -0.09100
C 	C 	0.94724 0.19710 0.85290 0.09800
C 	C 	0.99135 0.15533 0.83901 -0.03800
C 	C 	0.99556 0.15829 0.81065 -0.09000
C 	C 	0.96921 0.21634 0.79668 0.09300
N 	N 	0.98339 0.22962 0.76980 -0.20200
H 	H 	0.89853 0.29708 0.79945 0.04700
H 	H 	0.01627 0.11478 0.84999 0.05000
N 	N 	0.94173 0.19217 0.88034 -0.20100
H 	H 	0.96088 0.26997 0.75927 0.07700
H 	H 	0.01908 0.20204 0.75937 0.07200
H 	H 	0.91297 0.22636 0.89121 0.06500
H 	H 	0.96887 0.15624 0.89117 0.08200
H 	H 	0.51179 0.98278 0.86691 0.08700
C 	C 	0.85388 0.61589 0.81466 -0.04200
C 	C 	0.78113 0.55578 0.80464 -0.09000
C 	C 	0.75192 0.56419 0.77830 0.09500
C 	C 	0.79234 0.63693 0.76355 -0.04300
C 	C 	0.86042 0.70135 0.77489 -0.09500
C 	C 	0.89272 0.68975 0.80051 0.10000
N 	N 	0.96013 0.74949 0.81181 -0.19900
H 	H 	0.87775 0.60750 0.83444 0.06200
H 	H 	0.76892 0.64471 0.74366 0.05300
N 	N 	0.68514 0.50338 0.76716 -0.20100
H 	H 	0.98416 0.73914 0.83041 0.08500
H 	H 	0.98847 0.80715 0.80273 0.06500
H 	H 	0.65558 0.44751 0.77720 0.07800
H 	H 	0.66309 0.51079 0.74789 0.08000
