data_crystal

_cell_length_a 16.82125
_cell_length_b 16.02390
_cell_length_c 42.65537
_cell_angle_alpha 89.53200
_cell_angle_beta  82.26401
_cell_angle_gamma 105.74124

_symmetry_space_group_name_	'P 1'
_symmetry_space_group_name_H-M	'P 1'

loop_
_symmetry_equiv_pos_as_xyz
  x,y,z

loop_
_atom_site_label
_atom_site_type_symbol
_atom_site_fract_x
_atom_site_fract_y
_atom_site_fract_z
_atom_site_charge
Zn	Zn	0.73342 0.31900 0.95334 1.20600
Zn	Zn	0.78011 0.49918 0.91872 1.22300
Zn	Zn	0.60556 0.25992 0.90781 1.22600
P 	P 	0.78438 0.33940 0.88608 0.30900
P 	P 	0.60875 0.41100 0.94709 0.29800
C 	C 	0.49818 0.22507 0.86138 0.27300
C 	C 	0.62933 0.14824 0.95988 0.26900
O 	O 	0.82237 0.33611 0.91786 -0.43300
O 	O 	0.62519 0.33755 0.96827 -0.42700
O 	O 	0.75124 0.42325 0.88462 -0.37500
O 	O 	0.60030 0.37933 0.91197 -0.38100
O 	O 	0.71090 0.25244 0.88464 -0.36200
O 	O 	0.68178 0.49880 0.94773 -0.39000
O 	O 	0.52300 0.18905 0.88462 -0.32700
O 	O 	0.69876 0.61947 0.89362 -0.19700
O 	O 	0.53239 0.30749 0.85322 -0.13700
O 	O 	0.57630 0.18290 0.94794 -0.38800
O 	O 	0.70735 0.19339 0.95919 -0.40700
Zn	Zn	0.69833 0.15896 0.53541 1.20800
Zn	Zn	0.52194 0.13600 0.57385 1.22000
Zn	Zn	0.75153 0.33408 0.56717 1.22200
P 	P 	0.67471 0.16732 0.60348 0.30300
P 	P 	0.60851 0.28851 0.53114 0.29500
C 	C 	0.78129 0.47638 0.60641 0.29500
C 	C 	0.56514 0.01296 0.52774 0.24700
O 	O 	0.68062 0.10085 0.57666 -0.44300
O 	O 	0.68145 0.25610 0.51231 -0.43400
O 	O 	0.59235 0.19825 0.60319 -0.38100
O 	O 	0.63656 0.33050 0.56312 -0.40100
O 	O 	0.75696 0.24743 0.59827 -0.35800
O 	O 	0.52477 0.21020 0.53762 -0.40200
O 	O 	0.40449 0.23552 0.59659 -0.20900
O 	O 	0.70287 0.44095 0.61817 -0.16500
O 	O 	0.53924 0.02283 0.55781 -0.41400
O 	O 	0.63301 0.06722 0.51272 -0.41200
C 	C 	0.36631 0.15245 0.60189 0.29100
O 	O 	0.40508 0.09493 0.59142 -0.40500
Zn	Zn	0.07037 0.06358 0.77542 1.21600
P 	P 	0.07080 0.05802 0.70610 0.28900
O 	O 	0.04073 0.95559 0.71397 -0.39100
O 	O 	0.11944 0.11038 0.73292 -0.36300
O 	O 	0.24152 0.03142 0.76492 -0.22100
C 	C 	0.23162 0.07135 0.79134 0.30100
O 	O 	0.16109 0.09040 0.80029 -0.39700
Zn	Zn	0.46780 0.47463 0.35919 1.21200
Zn	Zn	0.31191 0.37834 0.41057 1.22500
Zn	Zn	0.45863 0.63817 0.39971 1.23000
P 	P 	0.47541 0.47817 0.42771 0.34700
P 	P 	0.31505 0.53205 0.37293 0.31500
C 	C 	0.42963 0.76317 0.44155 0.34700
C 	C 	0.58471 0.64258 0.34468 0.29500
C 	C 	0.37648 0.29653 0.35595 0.29800
O 	O 	0.49729 0.42839 0.39712 -0.40200
O 	O 	0.39344 0.53886 0.34680 -0.42000
O 	O 	0.37673 0.46097 0.43682 -0.38400
O 	O 	0.34230 0.57621 0.40452 -0.41400
O 	O 	0.52131 0.57932 0.42207 -0.33800
O 	O 	0.26339 0.43285 0.38015 -0.38300
O 	O 	0.48157 0.75053 0.41735 -0.36000
O 	O 	0.26266 0.32101 0.48064 -0.19700
O 	O 	0.35252 0.71348 0.44629 -0.21600
O 	O 	0.51935 0.67006 0.35554 -0.39600
O 	O 	0.37041 0.29901 0.38708 -0.40500
O 	O 	0.57683 0.55839 0.34287 -0.34000
O 	O 	0.42151 0.36540 0.33814 -0.34100
C 	C 	0.20048 0.29725 0.46411 0.34100
O 	O 	0.21609 0.29462 0.43320 -0.38700
Zn	Zn	0.37163 0.52107 0.11730 1.20900
Zn	Zn	0.21365 0.53189 0.08830 1.22200
Zn	Zn	0.46033 0.68515 0.07249 1.22700
P 	P 	0.31659 0.67751 0.11985 0.31700
P 	P 	0.36486 0.52062 0.04883 0.34400
C 	C 	0.49064 0.84152 0.04019 0.36300
C 	C 	0.54674 0.60562 0.11434 0.29900
C 	C 	0.21496 0.39465 0.13442 0.30900
O 	O 	0.30900 0.59288 0.14074 -0.40700
O 	O 	0.41341 0.49388 0.07489 -0.41200
O 	O 	0.27377 0.65300 0.08885 -0.41900
O 	O 	0.37855 0.62302 0.04710 -0.38500
O 	O 	0.41278 0.72818 0.11078 -0.39500
O 	O 	0.26792 0.47094 0.05680 -0.39800
O 	O 	0.53112 0.79014 0.05079 -0.36600
O 	O 	0.14030 0.65501 0.05881 -0.22500
O 	O 	0.40870 0.81915 0.04561 -0.22100
O 	O 	0.54242 0.62426 0.08446 -0.38800
O 	O 	0.18503 0.46126 0.12961 -0.41000
O 	O 	0.47897 0.56420 0.13366 -0.35900
O 	O 	0.29640 0.40550 0.13077 -0.39300
C 	C 	0.08868 0.57675 0.06050 0.35500
O 	O 	0.10383 0.51399 0.07667 -0.38200
Zn	Zn	0.04533 0.00767 0.24540 1.19300
Zn	Zn	0.06710 0.85589 0.28334 1.22500
P 	P 	0.11651 0.87360 0.21499 0.31100
C 	C 	0.00578 0.06825 0.18971 0.27900
C 	C 	0.14548 0.04282 0.29367 0.29300
O 	O 	0.11801 0.97237 0.21091 -0.38100
O 	O 	0.02417 0.81267 0.21483 -0.41500
O 	O 	0.15137 0.85968 0.24718 -0.30100
O 	O 	0.05955 0.66753 0.28711 -0.17000
O 	O 	0.00403 0.99167 0.17798 -0.37000
O 	O 	0.09256 0.96967 0.30631 -0.37500
O 	O 	0.13525 0.07464 0.26660 -0.39600
C 	C 	0.09726 0.70792 0.30993 0.27700
O 	O 	0.09729 0.78851 0.31501 -0.34200
C 	C 	0.15728 0.30939 0.14603 -0.08100
C 	C 	0.18313 0.23357 0.14186 0.04200
C 	C 	0.13013 0.15338 0.15374 -0.04100
C 	C 	0.05023 0.14750 0.16992 0.04500
C 	C 	0.02043 0.22231 0.17137 -0.11600
C 	C 	0.07564 0.30350 0.16051 0.09700
H 	H 	0.15289 0.09624 0.15181 0.08500
H 	H 	0.05537 0.36194 0.16365 0.09300
H 	H 	0.24495 0.23681 0.12984 0.07000
C 	C 	0.76565 0.70611 0.15791 -0.06300
C 	C 	0.72988 0.76202 0.14281 0.03500
C 	C 	0.66058 0.72840 0.12750 -0.02800
C 	C 	0.62627 0.63846 0.12683 0.03900
C 	C 	0.66612 0.58130 0.13962 -0.10200
C 	C 	0.73425 0.61587 0.15603 0.09000
H 	H 	0.63164 0.77246 0.11703 0.07300
H 	H 	0.76251 0.57281 0.16744 0.10400
H 	H 	0.75391 0.83171 0.14389 0.07900
C 	C 	0.63505 0.48390 0.13662 0.78600
F 	F 	0.69400 0.44263 0.14292 -0.39500
F 	F 	0.56322 0.45089 0.15786 -0.40800
F 	F 	0.61804 0.46521 0.10619 -0.42500
C 	C 	0.26526 0.74636 0.14277 -0.03500
C 	C 	0.18269 0.74314 0.13987 0.02800
C 	C 	0.14111 0.79287 0.15891 -0.04200
C 	C 	0.18082 0.84459 0.18176 0.08200
C 	C 	0.26788 0.85800 0.18143 -0.11200
C 	C 	0.30802 0.80400 0.16338 0.09200
H 	H 	0.07629 0.78734 0.15712 0.06400
H 	H 	0.37254 0.80763 0.16511 0.09600
H 	H 	0.14972 0.70012 0.12355 0.05800
C 	C 	0.31914 0.93153 0.19863 0.80900
F 	F 	0.31893 0.90433 0.22945 -0.36900
F 	F 	0.40099 0.95759 0.18386 -0.39900
F 	F 	0.28810 0.00309 0.19869 -0.44400
C 	C 	0.73159 0.82813 0.29278 0.02400
C 	C 	0.65885 0.76856 0.30754 -0.02000
C 	C 	0.66290 0.70647 0.33024 0.04500
H 	H 	0.59924 0.76933 0.30075 0.10100
H 	H 	0.72729 0.87352 0.27456 0.09300
F 	F 	0.68799 0.65208 0.39286 -0.43700
C 	C 	0.20671 0.09642 0.31217 -0.06300
C 	C 	0.17947 0.13174 0.34013 0.03300
C 	C 	0.23564 0.19539 0.35454 -0.03400
C 	C 	0.32049 0.22334 0.34162 0.03300
C 	C 	0.34990 0.18224 0.31486 -0.09900
C 	C 	0.29168 0.12158 0.29958 0.09100
H 	H 	0.21262 0.22519 0.37523 0.06000
H 	H 	0.31220 0.09482 0.27769 0.11500
H 	H 	0.11394 0.11292 0.34992 0.06000
C 	C 	0.44214 0.20410 0.30200 0.78700
F 	F 	0.45960 0.14018 0.28280 -0.39000
F 	F 	0.46535 0.28172 0.28429 -0.39900
F 	F 	0.48951 0.21110 0.32648 -0.41400
C 	C 	0.25127 0.58997 0.35682 -0.03300
C 	C 	0.16434 0.56236 0.36445 0.02100
C 	C 	0.11449 0.60178 0.34923 -0.02600
C 	C 	0.15106 0.66850 0.32598 0.05200
C 	C 	0.23912 0.69658 0.31806 -0.11200
C 	C 	0.28851 0.65921 0.33471 0.07300
H 	H 	0.04724 0.57996 0.35533 0.09300
H 	H 	0.35591 0.68230 0.32991 0.08300
H 	H 	0.13525 0.50977 0.38192 0.09000
C 	C 	0.28013 0.76424 0.29139 0.79300
F 	F 	0.26827 0.84363 0.29978 -0.41400
F 	F 	0.36513 0.77413 0.28470 -0.40600
F 	F 	0.24561 0.73947 0.26410 -0.41300
C 	C 	0.52351 0.93658 0.51178 0.05400
C 	C 	0.44297 0.92806 0.50451 -0.06500
C 	C 	0.41198 0.87082 0.48169 0.08400
C 	C 	0.46125 0.82138 0.46617 -0.17800
C 	C 	0.53939 0.82523 0.47525 0.40700
C 	C 	0.57026 0.88269 0.49795 -0.15600
H 	H 	0.35075 0.86675 0.47543 0.05100
H 	H 	0.63207 0.88801 0.50385 0.13500
H 	H 	0.40631 0.96926 0.51521 0.07700
F 	F 	0.58529 0.77323 0.46213 -0.41300
C 	C 	0.08402 0.24112 0.50799 0.07900
C 	C 	0.11494 0.28985 0.47937 -0.18200
H 	H 	0.12192 0.20657 0.51841 0.04700
F 	F 	0.09611 0.38634 0.43945 -0.44600
C 	C 	0.58526 0.36707 0.50621 0.05300
C 	C 	0.63194 0.39055 0.47612 -0.05800
C 	C 	0.59915 0.42646 0.45266 0.06300
C 	C 	0.52010 0.44067 0.45921 -0.11100
C 	C 	0.47784 0.42703 0.49036 0.37900
C 	C 	0.51010 0.38951 0.51372 -0.15300
H 	H 	0.63442 0.44134 0.42915 0.09000
H 	H 	0.47482 0.37422 0.53721 0.14000
H 	H 	0.69173 0.37699 0.47038 0.08900
F 	F 	0.40616 0.45029 0.49808 -0.41100
C 	C 	0.74912 0.04341 0.68517 -0.13000
C 	C 	0.71228 0.99061 0.66214 0.13400
C 	C 	0.67223 0.02408 0.64048 -0.14000
C 	C 	0.67232 0.11180 0.64075 0.10800
C 	C 	0.69471 0.15939 0.66757 -0.15200
H 	H 	0.64768 0.98396 0.62179 0.11800
H 	H 	0.71748 0.92486 0.66021 0.04200
C 	C 	0.28466 0.12480 0.62256 -0.07500
C 	C 	0.25541 0.04056 0.63644 0.02300
C 	C 	0.18515 0.01867 0.65958 -0.08700
C 	C 	0.14283 0.08053 0.66938 0.08900
C 	C 	0.16756 0.16393 0.65336 -0.13200
C 	C 	0.23889 0.18502 0.63013 0.09500
H 	H 	0.16629 0.95458 0.67115 0.11700
H 	H 	0.25952 0.24867 0.61818 0.09000
H 	H 	0.28900 0.99275 0.63027 0.08300
C 	C 	0.11602 0.22843 0.65932 0.79400
F 	F 	0.11104 0.25048 0.69066 -0.42100
F 	F 	0.15075 0.30445 0.64090 -0.42100
F 	F 	0.03681 0.19269 0.65176 -0.43000
C 	C 	0.82963 0.54618 0.65488 0.09300
H 	H 	0.79435 0.48729 0.66850 0.13000
F 	F 	0.81379 0.64120 0.72211 -0.40300
C 	C 	0.05013 0.57585 0.00640 0.08500
C 	C 	0.02608 0.55568 0.03898 -0.18500
H 	H 	0.11397 0.61084 0.99736 0.05300
C 	C 	0.59691 0.07087 0.98121 0.05900
C 	C 	0.53333 0.06855 0.00630 -0.09600
C 	C 	0.50335 0.99589 0.02713 0.12900
C 	C 	0.53538 0.92387 0.02271 -0.19500
C 	C 	0.60138 0.92741 0.99825 0.44800
C 	C 	0.63238 0.00110 0.97770 -0.19300
H 	H 	0.45330 0.99439 0.04618 0.05300
H 	H 	0.68267 0.00321 0.95868 0.14300
H 	H 	0.50723 0.12321 0.00971 0.09400
F 	F 	0.63282 0.85821 0.99351 -0.41600
C 	C 	0.51410 0.43316 0.96495 0.07000
C 	C 	0.45617 0.37072 0.98579 -0.05500
C 	C 	0.40231 0.39639 0.00923 0.06900
C 	C 	0.40588 0.48452 0.01182 -0.12400
C 	C 	0.45489 0.54485 0.98794 0.38300
C 	C 	0.50820 0.51878 0.96437 -0.15200
H 	H 	0.36243 0.34871 0.02682 0.05700
H 	H 	0.54947 0.56662 0.94716 0.15100
H 	H 	0.45730 0.30346 0.98546 0.09100
F 	F 	0.45379 0.62918 0.98825 -0.41800
C 	C 	0.93764 0.32175 0.85917 -0.05300
C 	C 	0.86471 0.34177 0.85312 0.08300
H 	H 	0.95622 0.32890 0.88255 0.08700
F 	F 	0.70429 0.33777 0.82403 -0.42800
C 	C 	0.30060 0.09860 0.81030 -0.08000
C 	C 	0.38356 0.12295 0.79545 0.04900
C 	C 	0.44803 0.16041 0.81273 -0.03800
C 	C 	0.43057 0.17421 0.84506 0.06900
C 	C 	0.34719 0.14650 0.86063 -0.12200
C 	C 	0.28292 0.10737 0.84303 0.09900
H 	H 	0.51168 0.18115 0.80074 0.11300
H 	H 	0.21895 0.08527 0.85457 0.07700
H 	H 	0.39794 0.11580 0.77026 0.07500
C 	C 	0.32675 0.15845 0.89584 0.78900
F 	F 	0.24155 0.13457 0.90581 -0.43500
F 	F 	0.36202 0.10769 0.91290 -0.43400
F 	F 	0.35781 0.24459 0.90253 -0.44000
C 	C 	0.76571 0.78547 0.86092 0.10200
H 	H 	0.70267 0.77363 0.87314 0.09600
C 	C 	0.74088 0.90657 0.82849 0.79400
F 	F 	0.72928 0.90237 0.79701 -0.41500
F 	F 	0.66265 0.88104 0.84645 -0.41400
F 	F 	0.77772 0.99142 0.83521 -0.41900
O 	O 	0.79325 0.38817 0.98408 -0.40800
C 	C 	0.77916 0.65765 0.89123 0.30300
O 	O 	0.81588 0.44183 0.58229 -0.37700
O 	O 	0.83077 0.32758 0.52745 -0.40800
O 	O 	0.81885 0.18199 0.52712 -0.41800
C 	C 	0.74093 0.70962 0.34021 -0.10600
C 	C 	0.74681 0.64996 0.36713 0.78500
C 	C 	0.06571 0.33591 0.46645 0.39900
C 	C 	0.73716 0.12641 0.68872 0.13700
C 	C 	0.67632 0.24587 0.67340 0.80200
F 	F 	0.60237 0.24755 0.66302 -0.42800
C 	C 	0.83157 0.54993 0.62192 -0.05600
C 	C 	0.87573 0.61043 0.70560 0.78800
F 	F 	0.86333 0.52475 0.71549 -0.38000
C 	C 	0.81634 0.73528 0.86976 -0.06900
C 	C 	0.79543 0.84930 0.83601 -0.11900
F 	F 	0.73338 0.56597 0.35722 -0.42400
O 	O 	0.82712 0.61920 0.90433 -0.38800
C 	C 	0.83294 0.74181 0.17708 0.29000
F 	F 	0.66849 0.26083 0.70545 -0.40700
H 	H 	0.01311 0.56063 0.96008 0.09100
F 	F 	0.74097 0.31176 0.65790 -0.43300
O 	O 	0.01229 0.94157 0.77416 -0.40800
O 	O 	0.84180 0.69584 0.20137 -0.20300
H 	H 	0.76317 0.16636 0.70725 0.08300
C 	C 	0.99292 0.54748 0.98526 -0.06700
O 	O 	0.81235 0.04616 0.73226 -0.39600
C 	C 	0.80427 0.01472 0.70427 0.32200
O 	O 	0.85989 0.97706 0.69035 -0.38400
C 	C 	0.85355 0.45842 0.97444 0.27600
O 	O 	0.86942 0.48475 0.94414 -0.41100
C 	C 	0.86519 0.26268 0.52294 0.27800
Zn	Zn	0.92292 0.07786 0.74443 1.20600
P 	P 	0.91371 0.92480 0.78262 0.31900
O 	O 	0.89284 0.01495 0.78547 -0.39100
O 	O 	0.86463 0.87132 0.75621 -0.33300
O 	O 	0.88716 0.80222 0.69070 -0.33600
P 	P 	0.90189 0.87266 0.27173 0.31200
O 	O 	0.87181 0.88678 0.23844 -0.38700
O 	O 	0.87935 0.82232 0.17171 -0.38600
F 	F 	0.90621 0.28539 0.17425 -0.40100
F 	F 	0.92573 0.21916 0.21809 -0.41000
C 	C 	0.80980 0.82513 0.29980 -0.02800
C 	C 	0.81412 0.76829 0.32432 0.07800
H 	H 	0.87463 0.76704 0.33003 0.07000
F 	F 	0.82454 0.67477 0.37706 -0.43200
H 	H 	0.94715 0.36503 0.47123 0.12900
C 	C 	0.87734 0.62571 0.60417 0.03200
C 	C 	0.91612 0.69950 0.61942 -0.03600
C 	C 	0.91095 0.69777 0.65257 0.05000
C 	C 	0.87278 0.61831 0.67030 -0.10500
H 	H 	0.87984 0.62872 0.57866 0.05900
F 	F 	0.95255 0.65717 0.71293 -0.42400
C 	C 	0.88570 0.48391 0.02942 -0.15600
H 	H 	0.82186 0.44919 0.03855 0.15200
C 	C 	0.95429 0.26662 0.80668 -0.07700
C 	C 	0.98198 0.28392 0.83612 0.05100
C 	C 	0.84694 0.34097 0.82156 -0.12800
C 	C 	0.88994 0.29983 0.79879 0.11100
H 	H 	0.03476 0.26327 0.84184 0.06800
C 	C 	0.78431 0.38526 0.81191 0.79800
F 	F 	0.79980 0.46807 0.82310 -0.41700
C 	C 	0.89970 0.75401 0.85564 0.05500
C 	C 	0.93034 0.81714 0.83102 -0.05200
C 	C 	0.87814 0.86237 0.81991 0.08700
F 	F 	0.87716 0.14066 0.17760 -0.41900
C 	C 	0.91097 0.49915 0.99660 0.03100
F 	F 	0.78942 0.39283 0.77929 -0.38100
Zn	Zn	0.92114 0.90720 0.71350 1.22300
C 	C 	0.93859 0.78005 0.66846 0.27300
C 	C 	0.98388 0.20414 0.78620 0.32600
O 	O 	0.96383 0.19558 0.75752 -0.38800
Zn	Zn	0.95024 0.87589 0.20223 1.22200
C 	C 	0.93133 0.21672 0.18549 0.79100
C 	C 	0.95358 0.27978 0.50975 0.02300
C 	C 	0.98539 0.33099 0.48169 -0.15400
F 	F 	0.91871 0.49387 0.08207 -0.40400
H 	H 	0.87111 0.29048 0.77547 0.09800
H 	H 	0.94000 0.71700 0.86274 0.06600
C 	C 	0.00359 0.23574 0.52302 -0.05200
O 	O 	0.95502 0.96394 0.28139 -0.39300
O 	O 	0.95791 0.80653 0.27051 -0.41500
C 	C 	0.94326 0.51119 0.05049 0.40700
O 	O 	0.01284 0.83315 0.65928 -0.20100
H 	H 	0.94734 0.75915 0.60555 0.07400
H 	H 	0.99398 0.82799 0.81956 0.08900
O 	O 	0.99303 0.07460 0.22052 -0.37500
O 	O 	0.00870 0.14224 0.79933 -0.40200
H 	H 	0.97954 0.19615 0.54474 0.08200
O 	O 	0.99159 0.09093 0.70309 -0.37400
