data_crystal

_cell_length_a 18.72478
_cell_length_b 19.89995
_cell_length_c 63.98545
_cell_angle_alpha 90.07155
_cell_angle_beta  90.07571
_cell_angle_gamma 119.43070

_symmetry_space_group_name_	'P 1'
_symmetry_space_group_name_H-M	'P 1'

loop_
_symmetry_equiv_pos_as_xyz
  x,y,z

loop_
_atom_site_label
_atom_site_type_symbol
_atom_site_fract_x
_atom_site_fract_y
_atom_site_fract_z
_atom_site_charge
O 	O 	0.02328 0.87680 0.78709 -0.34700
O 	O 	0.02241 0.11026 0.73904 -0.35300
O 	O 	0.01366 0.99455 0.76804 -0.70800
H 	H 	0.01464 0.99120 0.78336 0.15700
O 	O 	0.01557 0.88177 0.24554 -0.34200
O 	O 	0.04757 0.09650 0.30517 -0.35500
O 	O 	0.03714 0.86427 0.28790 -0.35900
O 	O 	0.03725 0.00127 0.27100 -0.70700
H 	H 	0.04007 0.00679 0.25570 0.15100
H 	H 	0.04253 0.72825 0.18055 0.07300
C 	C 	0.00703 0.78299 0.32712 0.00000
H 	H 	0.02087 0.21559 0.71035 0.08100
H 	H 	0.05562 0.62026 0.03360 0.05700
O 	O 	0.07330 0.84087 0.20956 -0.18100
H 	H 	0.06016 0.31740 0.35395 0.07300
O 	O 	0.08881 0.15732 0.26313 -0.35800
C 	C 	0.07490 0.90155 0.30496 0.27600
C 	C 	0.05282 0.86191 0.32522 0.03300
H 	H 	0.02341 0.40052 0.42736 0.03300
C 	C 	0.13025 0.59250 0.00160 -0.02400
C 	C 	0.03740 0.38287 0.44212 0.04700
C 	C 	0.01019 0.70702 0.37848 0.14100
C 	C 	0.09617 0.91262 0.24324 0.25700
C 	C 	0.07229 0.34180 0.48095 -0.04000
H 	H 	0.08663 0.32818 0.49624 0.05000
C 	C 	0.10461 0.76092 0.18647 -0.08400
O 	O 	0.10141 0.21869 0.33442 -0.18100
C 	C 	0.03409 0.83971 0.35767 0.16200
C 	C 	0.11949 0.63802 0.03654 -0.06900
Ni	Ni	0.07579 0.10373 0.76612 1.12200
Ni	Ni	0.07155 0.94110 0.76094 1.12500
O 	O 	0.03327 0.65634 0.38697 -0.18800
H 	H 	0.14670 0.29804 0.24407 0.06300
C 	C 	0.12648 0.14390 0.30684 0.27500
H 	H 	0.11759 0.67519 0.15411 0.06400
C 	C 	0.12690 0.89288 0.22441 0.05300
O 	O 	0.07133 0.90218 0.34411 -0.18200
H 	H 	0.11139 0.65743 0.06930 0.03700
C 	C 	0.12898 0.82797 0.19838 0.11900
C 	C 	0.13576 0.15202 0.24830 0.25300
O 	O 	0.12814 0.97558 0.30418 -0.34100
C 	C 	0.12072 0.34241 0.34709 -0.08700
C 	C 	0.04183 0.77645 0.38904 0.01600
C 	C 	0.16817 0.63326 0.02062 0.04500
O 	O 	0.11342 0.99316 0.73310 -0.36100
C 	C 	0.15387 0.27056 0.23020 -0.05600
Ni	Ni	0.14948 0.03853 0.27671 1.10800
C 	C 	0.05932 0.84483 0.37853 -0.09600
O 	O 	0.14772 0.94879 0.25895 -0.35100
C 	C 	0.16164 0.73546 0.18329 0.01400
C 	C 	0.15597 0.20875 0.32159 0.04300
H 	H 	0.12904 0.45798 0.37202 0.05800
C 	C 	0.15130 0.65979 0.05674 0.02500
C 	C 	0.15185 0.29528 0.34003 0.11900
C 	C 	0.15824 0.20337 0.23015 0.05100
C 	C 	0.16273 0.69515 0.16657 -0.05500
C 	C 	0.11914 0.41470 0.44878 -0.08400
C 	C 	0.13601 0.38637 0.46713 0.01500
O 	O 	0.17419 0.11163 0.25126 -0.35100
C 	C 	0.08427 0.70254 0.40307 0.05000
O 	O 	0.14084 0.10477 0.79157 -0.35600
O 	O 	0.17866 0.13693 0.29451 -0.36100
C 	C 	0.15265 0.06892 0.73140 0.26200
C 	C 	0.08796 0.77333 0.40471 -0.05600
C 	C 	0.16978 0.42275 0.34498 0.01700
H 	H 	0.09774 0.90065 0.38569 0.07600
C 	C 	0.17028 0.47384 0.35878 -0.05900
O 	O 	0.16759 0.11231 0.74807 -0.36100
C 	C 	0.19134 0.30760 0.21264 0.01500
H 	H 	0.21028 0.42266 0.21821 0.07300
C 	C 	0.17304 0.05825 0.79287 0.25400
C 	C 	0.20852 0.86969 0.20555 0.01500
C 	C 	0.20760 0.91055 0.22213 -0.05700
O 	O 	0.17409 0.01805 0.77641 -0.37300
C 	C 	0.17267 0.10565 0.71073 0.04800
O 	O 	0.19851 0.19448 0.21287 -0.18700
O 	O 	0.15873 0.54674 0.44294 -0.37000
H 	H 	0.19888 0.40690 0.47194 0.04100
H 	H 	0.16157 0.01170 0.69071 0.05900
C 	C 	0.16127 0.06579 0.69228 -0.05300
C 	C 	0.15394 0.69375 0.40977 0.26100
C 	C 	0.17934 0.49188 0.44142 0.29100
C 	C 	0.25117 0.65841 0.02443 -0.07000
C 	C 	0.24140 0.77762 0.19034 0.12000
C 	C 	0.22937 0.32761 0.33172 0.01000
C 	C 	0.23244 0.27351 0.31984 -0.05400
O 	O 	0.19493 0.06961 0.83168 -0.18700
H 	H 	0.13905 0.82385 0.41168 0.06000
C 	C 	0.23053 0.38769 0.20985 -0.08600
C 	C 	0.23175 0.67636 0.06112 -0.08800
O 	O 	0.22390 0.63991 0.13251 -0.36600
C 	C 	0.24359 0.71373 0.16404 0.05200
C 	C 	0.21785 0.26273 0.20255 0.11800
O 	O 	0.19690 0.18365 0.70826 -0.18700
C 	C 	0.21855 0.05942 0.81173 0.05000
H 	H 	0.25284 0.93125 0.23457 0.06300
O 	O 	0.17480 0.70342 0.42996 -0.36200
C 	C 	0.26556 0.84431 0.20237 -0.08500
C 	C 	0.24791 0.45515 0.33673 0.11700
H 	H 	0.28963 0.65608 0.01212 0.05000
O 	O 	0.20381 0.69355 0.39507 -0.36200
O 	O 	0.22435 0.59436 0.08922 -0.38900
C 	C 	0.24907 0.53564 0.35883 0.05400
C 	C 	0.17917 0.11796 0.67698 0.01200
C 	C 	0.24097 0.04579 0.84353 0.11600
C 	C 	0.25265 0.66504 0.08241 0.30900
H 	H 	0.27366 0.28556 0.30675 0.06100
C 	C 	0.28316 0.68075 0.04459 0.01700
H 	H 	0.23467 0.09683 0.87284 0.07000
C 	C 	0.27742 0.40750 0.32887 -0.08400
H 	H 	0.23556 0.60988 0.41370 0.16200
C 	C 	0.27437 0.69976 0.14437 0.25700
C 	C 	0.20088 0.18759 0.68660 0.11900
C 	C 	0.27222 0.03076 0.81170 -0.05900
Ni	Ni	0.25646 0.56991 0.11682 1.12200
O 	O 	0.29720 0.76584 0.17887 -0.18500
H 	H 	0.22759 0.51809 0.05238 0.03900
C 	C 	0.26366 0.06976 0.86426 -0.08600
O 	O 	0.25764 0.50900 0.43960 -0.37200
C 	C 	0.28352 0.57915 0.37813 0.25600
H 	H 	0.22654 0.47296 0.01638 0.05100
C 	C 	0.28623 0.02210 0.83177 0.01200
O 	O 	0.29052 0.72419 0.09515 -0.38200
O 	O 	0.28881 0.54090 0.39456 -0.36700
O 	O 	0.30079 0.52867 0.34431 -0.18300
H 	H 	0.20634 0.06186 0.65155 0.06800
C 	C 	0.29230 0.42064 0.19470 0.12000
O 	O 	0.27567 0.52709 0.14357 -0.35500
C 	C 	0.24498 0.47441 0.04962 0.01800
Ni	Ni	0.24502 0.66236 0.44559 1.11400
C 	C 	0.28040 0.29553 0.18761 -0.08600
O 	O 	0.26601 0.48499 0.10151 -0.37400
C 	C 	0.24410 0.44859 0.02922 -0.06600
C 	C 	0.21097 0.11503 0.65735 -0.08600
H 	H 	0.32766 0.87709 0.20827 0.07100
H 	H 	0.31009 0.03313 0.79861 0.06100
O 	O 	0.30706 0.48664 0.18392 -0.18400
O 	O 	0.28667 0.64857 0.42046 -0.71800
H 	H 	0.24042 0.87158 0.45026 0.03600
H 	H 	0.33814 0.43220 0.32212 0.06900
C 	C 	0.27618 0.44967 0.06604 -0.08500
H 	H 	0.34561 0.69418 0.04771 0.03900
H 	H 	0.30022 0.26032 0.17920 0.06700
O 	O 	0.32454 0.65623 0.37735 -0.35800
C 	C 	0.27314 0.39695 0.02527 0.04100
C 	C 	0.25034 0.25702 0.67612 -0.08700
C 	C 	0.31784 0.37546 0.18422 0.01100
O 	O 	0.34601 0.75485 0.13720 -0.36000
C 	C 	0.33055 0.06535 0.87282 0.01200
H 	H 	0.27584 0.31158 0.68437 0.07000
C 	C 	0.31039 0.49897 0.08450 0.30400
H 	H 	0.25901 0.93657 0.48432 0.05200
C 	C 	0.29474 0.39044 0.06242 0.02200
Ni	Ni	0.32335 0.72798 0.40018 1.12000
C 	C 	0.29305 0.36401 0.04207 -0.06800
O 	O 	0.30410 0.62614 0.46655 -0.37500
C 	C 	0.29918 0.39086 0.00452 -0.01800
C 	C 	0.35934 0.02792 0.83938 -0.08600
C 	C 	0.33655 0.51160 0.14605 0.25700
C 	C 	0.34044 0.47535 0.16562 0.04900
C 	C 	0.25566 0.18430 0.64626 0.11700
Ni	Ni	0.34599 0.59359 0.42109 1.12200
C 	C 	0.27250 0.25353 0.65537 0.01300
O 	O 	0.32575 0.81558 0.41768 -0.37500
H 	H 	0.31711 0.36958 0.07508 0.03300
C 	C 	0.34810 0.40977 0.16576 -0.05700
C 	C 	0.30154 0.90482 0.45676 0.01400
H 	H 	0.31357 0.32252 0.03921 0.05100
C 	C 	0.37999 0.04830 0.86040 0.11700
O 	O 	0.37022 0.64479 0.11697 -0.71800
H 	H 	0.34957 0.37948 0.15181 0.05900
H 	H 	0.37798 0.65191 0.13219 0.15600
C 	C 	0.31186 0.94086 0.47621 -0.05900
H 	H 	0.40221 0.02330 0.82892 0.06800
H 	H 	0.30406 0.02720 0.55271 0.05300
H 	H 	0.36599 0.15233 0.89652 0.05800
Ni	Ni	0.39486 0.74625 0.11001 1.12000
C 	C 	0.37872 0.11211 0.88806 -0.06000
O 	O 	0.34290 0.77208 0.44904 -0.38100
C 	C 	0.35020 0.82852 0.43731 0.30900
H 	H 	0.33323 0.60162 0.50467 0.03900
O 	O 	0.31022 0.19186 0.63054 -0.18900
O 	O 	0.38470 0.51616 0.13019 -0.35900
O 	O 	0.38832 0.55128 0.08456 -0.37600
C 	C 	0.38236 0.64818 0.46480 0.30900
C 	C 	0.36736 0.90060 0.44761 -0.08400
H 	H 	0.02648 0.80163 0.82254 0.08200
H 	H 	0.34825 0.09811 0.58613 0.04300
C 	C 	0.34072 0.30864 0.64622 -0.05500
O 	O 	0.43649 0.73836 0.08159 -0.39600
O 	O 	0.41444 0.65097 0.44637 -0.38000
C 	C 	0.36181 0.03872 0.55966 -0.07100
O 	O 	0.44618 0.65938 0.40340 -0.35600
C 	C 	0.36309 0.27150 0.63160 0.04000
O 	O 	0.46074 0.08170 0.86729 -0.18900
C 	C 	0.38885 0.97568 0.48597 0.02500
C 	C 	0.39902 0.63772 0.50318 0.02000
O 	O 	0.44195 0.77139 0.40714 -0.38400
C 	C 	0.45672 0.12388 0.88427 0.04900
Ni	Ni	0.44816 0.61379 0.11104 1.11300
C 	C 	0.39541 0.99059 0.50814 0.01100
C 	C 	0.38648 0.07810 0.57875 0.02100
H 	H 	0.38312 0.36302 0.65358 0.05700
C 	C 	0.40300 0.00367 0.52668 -0.04500
C 	C 	0.43425 0.66807 0.48366 -0.08800
C 	C 	0.48162 0.73508 0.40193 0.27700
C 	C 	0.41524 0.02103 0.54871 0.05000
H 	H 	0.42145 0.62483 0.53548 0.05300
C 	C 	0.44668 0.94801 0.45547 0.01300
O 	O 	0.51131 0.79329 0.12247 -0.36600
C 	C 	0.45733 0.98452 0.47484 -0.04300
C 	C 	0.44900 0.65110 0.52067 -0.06900
H 	H 	0.49938 0.72601 0.03703 0.03000
C 	C 	0.50722 0.74143 0.07910 0.31000
O 	O 	0.51567 0.68571 0.13538 -0.35300
C 	C 	0.44818 0.30457 0.62467 0.27600
C 	C 	0.52897 0.19713 0.89015 0.25400
O 	O 	0.52074 0.25968 0.89036 -0.36500
H 	H 	0.49877 0.94841 0.44799 0.03700
O 	O 	0.46386 0.30493 0.60468 -0.35600
O 	O 	0.53021 0.70358 0.09174 -0.36900
C 	C 	0.46601 0.10290 0.58635 -0.08000
C 	C 	0.54044 0.76069 0.13580 0.25900
C 	C 	0.54396 0.78301 0.04251 0.02000
C 	C 	0.48769 0.03265 0.55835 -0.07100
C 	C 	0.51968 0.71561 0.48212 0.02100
C 	C 	0.55901 0.77698 0.39049 0.04200
H 	H 	0.51779 0.01432 0.48188 0.03600
H 	H 	0.55178 0.83607 0.01272 0.05100
O 	O 	0.49606 0.18682 0.61632 -0.36700
H 	H 	0.55504 0.88128 0.38089 0.05500
C 	C 	0.56460 0.79551 0.06379 -0.09100
H 	H 	0.54757 0.74122 0.46729 0.04300
C 	C 	0.50995 0.17906 0.59617 0.28800
O 	O 	0.50542 0.31960 0.63854 -0.37700
C 	C 	0.51240 0.07250 0.57735 0.01700
C 	C 	0.57318 0.84550 0.02877 -0.06500
H 	H 	0.59150 0.89951 0.15909 0.05900
C 	C 	0.57583 0.83991 0.37817 -0.05800
C 	C 	0.53444 0.69463 0.51880 0.04200
H 	H 	0.52792 0.01631 0.55038 0.05000
O 	O 	0.60286 0.20215 0.88933 -0.35700
O 	O 	0.54471 0.23908 0.58339 -0.37400
C 	C 	0.56954 0.72866 0.49964 -0.06900
O 	O 	0.60811 0.74358 0.38623 -0.18400
C 	C 	0.61687 0.81059 0.14697 0.05100
C 	C 	0.62428 0.86919 0.07052 0.01700
C 	C 	0.62364 0.92060 0.03622 0.03300
Ni	Ni	0.61939 0.37021 0.88931 1.11400
H 	H 	0.57240 0.08818 0.58362 0.02900
C 	C 	0.58548 0.69366 0.53546 -0.01900
C 	C 	0.63296 0.98530 0.02408 0.00300
C 	C 	0.63584 0.88136 0.15527 -0.05900
H 	H 	0.64211 0.87923 0.08683 0.03800
Ni	Ni	0.58245 0.35090 0.59263 1.11300
Ni	Ni	0.57679 0.26981 0.63687 1.12000
C 	C 	0.63925 0.03788 0.01343 -0.04300
C 	C 	0.64290 0.09826 0.00032 0.04900
C 	C 	0.63645 0.84915 0.36546 0.01400
C 	C 	0.65320 0.93184 0.05679 -0.06500
H 	H 	0.58654 0.67884 0.59069 0.05300
C 	C 	0.65632 0.79330 0.37050 0.11800
O 	O 	0.65820 0.32936 0.86401 -0.35400
H 	H 	0.63556 0.76279 0.49812 0.05100
H 	H 	0.65008 0.18728 0.84420 0.06600
O 	O 	0.61203 0.45824 0.60444 -0.37900
C 	C 	0.62544 0.69092 0.54985 -0.01900
H 	H 	0.61068 0.50146 0.67692 0.05700
H 	H 	0.61499 0.59912 0.61511 0.03700
O 	O 	0.67599 0.78838 0.15031 -0.18900
H 	H 	0.69399 0.98956 0.06255 0.05100
C 	C 	0.63289 0.66333 0.58677 -0.06800
O 	O 	0.63852 0.33266 0.61427 -0.71600
H 	H 	0.67521 0.96125 0.35170 0.07000
H 	H 	0.68950 0.61602 0.88361 0.05400
O 	O 	0.63880 0.33531 0.66189 -0.36500
H 	H 	0.65331 0.29678 0.60749 0.15800
C 	C 	0.64888 0.61798 0.60059 0.02200
C 	C 	0.69197 0.91781 0.35554 -0.08600
O 	O 	0.65155 0.22425 0.63744 -0.37800
H 	H 	0.69059 0.08826 0.82551 0.07000
C 	C 	0.70947 0.90779 0.16449 0.01100
C 	C 	0.66860 0.67975 0.56688 0.04100
H 	H 	0.70834 0.99113 0.18625 0.07000
C 	C 	0.70800 0.23012 0.83757 -0.05700
C 	C 	0.65557 0.49757 0.68682 -0.05500
H 	H 	0.66898 0.64030 0.69634 0.07000
C 	C 	0.72775 0.32812 0.86406 0.27600
O 	O 	0.68955 0.39610 0.57446 -0.37100
C 	C 	0.68717 0.51554 0.60326 0.30800
C 	C 	0.67260 0.41111 0.66232 0.27700
H 	H 	0.67468 0.11699 0.65397 0.06000
H 	H 	0.72817 0.71598 0.85176 0.07000
O 	O 	0.72371 0.47660 0.88585 -0.35800
C 	C 	0.73236 0.85215 0.16158 0.11800
C 	C 	0.73277 0.80228 0.36490 -0.08600
C 	C 	0.70044 0.58891 0.59447 -0.09000
C 	C 	0.73718 0.95751 0.18185 -0.08400
H 	H 	0.74867 0.75811 0.36856 0.06600
C 	C 	0.68962 0.45128 0.68239 0.04600
C 	C 	0.75550 0.64448 0.88568 -0.05400
O 	O 	0.70609 0.45222 0.64553 -0.37400
C 	C 	0.75012 0.52859 0.90070 0.27800
H 	H 	0.72702 0.39809 0.53590 0.03600
C 	C 	0.75413 0.30426 0.84528 0.04400
O 	O 	0.76605 0.33441 0.88164 -0.36600
C 	C 	0.73148 0.66299 0.56244 -0.06900
H 	H 	0.76715 0.18148 0.00896 0.04700
C 	C 	0.75109 0.13833 0.82678 -0.08500
C 	C 	0.71126 0.55652 0.69841 0.01400
C 	C 	0.72121 0.63137 0.69821 -0.08500
H 	H 	0.71843 0.03965 0.68100 0.06800
C 	C 	0.76126 0.21305 0.82817 0.01200
C 	C 	0.76715 0.92563 0.34905 0.11800
C 	C 	0.74780 0.37684 0.57704 0.28500
C 	C 	0.73264 0.26683 0.63924 0.25600
C 	C 	0.74761 0.61769 0.57627 0.01900
Ni	Ni	0.74494 0.41356 0.62169 1.12200
O 	O 	0.74909 0.50206 0.60464 -0.37400
C 	C 	0.76243 0.36911 0.53839 0.01600
H 	H 	0.76186 0.67815 0.54740 0.05000
C 	C 	0.74049 0.15260 0.65222 -0.05900
C 	C 	0.78820 0.87021 0.35444 0.01000
C 	C 	0.78931 0.84849 0.17508 -0.08800
C 	C 	0.78591 0.71625 0.85333 -0.08300
C 	C 	0.77790 0.35289 0.55873 -0.08300
C 	C 	0.79593 0.61003 0.89494 0.04300
H 	H 	0.80022 0.79986 0.17454 0.06700
H 	H 	0.78599 0.36628 0.50562 0.04900
C 	C 	0.79927 0.95801 0.19430 0.11500
O 	O 	0.77014 0.34378 0.64004 -0.35400
C 	C 	0.79542 0.35061 0.52118 -0.06900
H 	H 	0.79026 0.59829 0.57174 0.03900
O 	O 	0.78588 0.38726 0.59532 -0.37400
C 	C 	0.80904 0.69742 0.87241 0.01000
O 	O 	0.80739 0.96802 0.33142 -0.18300
C 	C 	0.77537 0.09399 0.68077 -0.08500
C 	C 	0.77927 0.22839 0.64556 0.04800
O 	O 	0.76582 0.47629 0.69188 -0.18600
H 	H 	0.01075 0.21842 0.81337 0.07900
O 	O 	0.81495 0.98741 0.21455 -0.18100
C 	C 	0.77754 0.54462 0.70076 0.12000
C 	C 	0.82147 0.13034 0.82635 0.11300
C 	C 	0.82622 0.90586 0.19041 0.01500
O 	O 	0.82210 0.06776 0.81686 -0.18700
C 	C 	0.80037 0.69421 0.70084 0.11800
C 	C 	0.82278 0.31399 0.56154 0.01500
C 	C 	0.79573 0.14465 0.66374 0.01000
O 	O 	0.83763 0.33822 0.84056 -0.18500
O 	O 	0.81459 0.76468 0.70893 -0.18300
C 	C 	0.83793 0.27696 0.83025 0.12000
C 	C 	0.84227 0.87393 0.34015 -0.05400
H 	H 	0.83305 0.29887 0.57709 0.03800
C 	C 	0.83874 0.73398 0.83625 0.11600
O 	O 	0.83584 0.77507 0.81906 -0.18700
C 	C 	0.84428 0.31606 0.52414 0.04000
H 	H 	0.85344 0.82676 0.33638 0.05900
C 	C 	0.85242 0.93139 0.32641 0.04500
C 	C 	0.83087 0.11542 0.69744 0.11500
O 	O 	0.83186 0.06210 0.71126 -0.18700
C 	C 	0.85084 0.94558 0.22250 0.04800
C 	C 	0.85853 0.89770 0.20828 -0.06300
C 	C 	0.85609 0.29599 0.54431 -0.06900
H 	H 	0.86845 0.84989 0.21213 0.05800
O 	O 	0.87801 0.64231 0.88898 -0.18900
C 	C 	0.88146 0.69505 0.87427 0.12100
O 	O 	0.87473 0.90237 0.25554 -0.37100
O 	O 	0.86109 0.27132 0.65197 -0.18800
C 	C 	0.85643 0.60774 0.70357 -0.08600
C 	C 	0.86686 0.21536 0.66367 0.11800
C 	C 	0.86654 0.68225 0.70234 0.01200
C 	C 	0.88915 0.93939 0.30567 0.27500
H 	H 	0.89361 0.26905 0.54671 0.04800
O 	O 	0.88930 0.98992 0.29242 -0.35900
C 	C 	0.88948 0.96143 0.24313 0.26600
C 	C 	0.89799 0.19430 0.82835 0.02200
C 	C 	0.89388 0.31468 0.50719 -0.02600
O 	O 	0.88950 0.84573 0.77892 -0.33700
O 	O 	0.89318 0.99452 0.79231 -0.33900
O 	O 	0.89038 0.03377 0.75017 -0.34900
C 	C 	0.90825 0.26896 0.82947 -0.09200
C 	C 	0.90607 0.10124 0.81271 0.06100
Ni	Ni	0.90027 0.94472 0.76433 1.11400
C 	C 	0.89551 0.79318 0.71574 0.04500
C 	C 	0.91114 0.73287 0.83828 0.02500
O 	O 	0.90914 0.88785 0.29946 -0.38600
O 	O 	0.90114 0.89962 0.73500 -0.35100
C 	C 	0.90251 0.18495 0.69710 0.02400
C 	C 	0.91468 0.79971 0.81131 0.06400
H 	H 	0.91117 0.32189 0.45171 0.05100
C 	C 	0.91229 0.10591 0.71861 0.05900
O 	O 	0.92632 0.03354 0.25023 -0.38100
C 	C 	0.93655 0.71785 0.85745 -0.09200
H 	H 	0.90888 0.59908 0.70535 0.06800
C 	C 	0.92412 0.23491 0.67995 -0.09200
C 	C 	0.93625 0.06974 0.79632 0.24500
C 	C 	0.93858 0.31948 0.49306 -0.01800
C 	C 	0.93119 0.85300 0.73203 0.27300
C 	C 	0.92696 0.74457 0.71166 -0.05700
C 	C 	0.94434 0.84583 0.79220 0.23300
C 	C 	0.95175 0.17649 0.81967 -0.08400
C 	C 	0.94282 0.08028 0.73626 0.25300
C 	C 	0.96022 0.77505 0.82266 -0.08500
Ni	Ni	0.96266 0.89312 0.27192 1.10900
H 	H 	0.96878 0.31896 0.83078 0.06800
C 	C 	0.95480 0.17924 0.71033 -0.08400
H 	H 	0.97194 0.65089 0.34836 0.05900
C 	C 	0.97372 0.33830 0.45594 -0.09300
O 	O 	0.98058 0.84879 0.74591 -0.37700
H 	H 	0.98078 0.28949 0.67990 0.06700
H 	H 	0.99389 0.71723 0.85879 0.06900
H 	H 	0.00289 0.74185 0.31541 0.05300
H 	H 	0.97717 0.74484 0.72019 0.05700
C 	C 	0.98771 0.70246 0.35739 -0.09600
Ni	Ni	0.99116 0.06523 0.27704 1.10400
C 	C 	0.99213 0.32521 0.47625 0.01700
O 	O 	0.99175 0.11902 0.78291 -0.37100
C 	C 	0.99538 0.76891 0.34771 -0.06200
Ni	Ni	0.70461 0.27375 0.90706 1.12000
O 	O 	0.56587 0.41477 0.91016 -0.36600
O 	O 	0.66085 0.34035 0.91212 -0.71600
H 	H 	0.60974 0.30428 0.91932 0.15900
O 	O 	0.72422 0.50908 0.91996 -0.36700
H 	H 	0.99529 0.53843 0.91988 0.04900
O 	O 	0.81355 0.32464 0.92255 -0.38000
O 	O 	0.82621 0.44433 0.92305 -0.38800
C 	C 	0.85847 0.39970 0.92556 0.30500
C 	C 	0.54697 0.39216 0.92995 0.28600
H 	H 	0.49933 0.50024 0.93333 0.03800
O 	O 	0.65191 0.21993 0.93378 -0.38700
Ni	Ni	0.71428 0.41279 0.93389 1.12100
C 	C 	0.99734 0.50794 0.93369 -0.01700
C 	C 	0.93681 0.43080 0.93691 -0.07000
C 	C 	0.47008 0.38227 0.93870 -0.08200
C 	C 	0.45934 0.44675 0.94132 0.02000
O 	O 	0.60204 0.39206 0.94308 -0.37700
H 	H 	0.09767 0.60921 0.94737 0.04900
H 	H 	0.42327 0.26228 0.94652 0.02900
C 	C 	0.05525 0.54815 0.94929 -0.02900
C 	C 	0.41665 0.31294 0.94878 0.01800
C 	C 	0.66931 0.25556 0.95220 0.29100
O 	O 	0.71402 0.33242 0.95392 -0.38400
C 	C 	0.94268 0.39129 0.95442 -0.01900
C 	C 	0.40272 0.44469 0.95592 -0.06700
H 	H 	0.39938 0.49661 0.95906 0.05200
H 	H 	0.89804 0.33110 0.95681 0.04300
C 	C 	0.35992 0.31084 0.96332 -0.06600
H 	H 	0.53034 0.12585 0.96299 0.03200
C 	C 	0.35651 0.37809 0.96788 0.04100
C 	C 	0.05367 0.51113 0.96802 0.01900
H 	H 	0.32324 0.25862 0.97218 0.05100
C 	C 	0.65572 0.20824 0.97097 -0.08500
C 	C 	0.00061 0.43157 0.97002 -0.03000
C 	C 	0.58173 0.13879 0.97321 0.02000
C 	C 	0.72137 0.22472 0.98457 0.02000
H 	H 	0.77860 0.27839 0.98313 0.03100
H 	H 	0.00055 0.40201 0.98424 0.04600
C 	C 	0.09575 0.55623 0.98616 -0.00700
C 	C 	0.32225 0.38404 0.98747 -0.01800
H 	H 	0.51891 0.02945 0.98892 0.05100
C 	C 	0.57541 0.08402 0.98782 -0.07300
C 	C 	0.71509 0.16960 0.99912 -0.07500
