data_crystal

_cell_length_a 32.03779
_cell_length_b 28.73893
_cell_length_c 19.30363
_cell_angle_alpha 92.67187
_cell_angle_beta  85.31906
_cell_angle_gamma 124.34188

_symmetry_space_group_name_	'P 1'
_symmetry_space_group_name_H-M	'P 1'

loop_
_symmetry_equiv_pos_as_xyz
  x,y,z

loop_
_atom_site_label
_atom_site_type_symbol
_atom_site_fract_x
_atom_site_fract_y
_atom_site_fract_z
_atom_site_charge
C 	C 	0.92553 0.85704 0.09417 -0.00300
C 	C 	0.92354 0.93291 0.15120 -0.06900
C 	C 	0.90092 0.87541 0.13917 -0.02500
C 	C 	0.94010 0.11625 0.04782 -0.00700
C 	C 	0.95285 0.12625 0.11723 -0.02300
C 	C 	0.94730 0.07929 0.00722 -0.02100
C 	C 	0.15574 0.11111 0.13984 -0.00400
C 	C 	0.13614 0.12325 0.08643 -0.02500
C 	C 	0.08411 0.09876 0.08647 -0.07100
C 	C 	0.05098 0.06202 0.14065 0.07700
C 	C 	0.07103 0.05119 0.19487 -0.07000
C 	C 	0.12306 0.07536 0.19431 -0.02500
C 	C 	0.87635 0.19736 0.96672 0.02200
C 	C 	0.84609 0.14938 0.00885 -0.04400
C 	C 	0.86682 0.12255 0.03466 -0.04100
C 	C 	0.91788 0.14327 0.01828 0.01300
C 	C 	0.94788 0.19040 0.97481 -0.04200
C 	C 	0.92717 0.21737 0.94906 -0.03700
C 	C 	0.85068 0.67952 0.06110 0.02700
C 	C 	0.86803 0.71602 0.00421 -0.04000
C 	C 	0.89328 0.77405 0.01487 -0.03600
C 	C 	0.90201 0.79615 0.08257 0.00900
C 	C 	0.88640 0.75973 0.13936 -0.03700
C 	C 	0.86026 0.70157 0.12869 -0.04400
C 	C 	0.31358 0.17658 0.11869 0.02700
C 	C 	0.27734 0.11817 0.11904 -0.04000
C 	C 	0.22578 0.09671 0.12806 -0.03800
C 	C 	0.21010 0.13354 0.13670 0.00900
C 	C 	0.24643 0.19193 0.13815 -0.03800
C 	C 	0.29798 0.21337 0.12906 -0.04600
H 	H 	0.02962 0.98455 0.04189 0.04900
H 	H 	0.90405 0.94667 0.18550 0.04900
H 	H 	0.86421 0.84513 0.16469 0.03700
H 	H 	0.94752 0.15490 0.14885 0.03700
H 	H 	0.93789 0.07170 0.95340 0.03500
H 	H 	0.16110 0.15049 0.04387 0.03600
H 	H 	0.06957 0.10674 0.04324 0.05000
H 	H 	0.04599 0.02238 0.23609 0.05200
H 	H 	0.13788 0.06550 0.23554 0.03600
H 	H 	0.80686 0.13375 0.02291 0.04600
H 	H 	0.84337 0.08603 0.06798 0.04200
H 	H 	0.95075 0.25422 0.91633 0.04900
H 	H 	0.86045 0.69923 0.95190 0.04500
H 	H 	0.90497 0.80168 0.97069 0.03900
H 	H 	0.89364 0.77640 0.19175 0.03800
H 	H 	0.84644 0.67360 0.17298 0.04300
H 	H 	0.28910 0.08950 0.11109 0.05000
H 	H 	0.19799 0.05157 0.12678 0.04100
H 	H 	0.23468 0.22066 0.14525 0.04000
H 	H 	0.32578 0.25853 0.12931 0.04500
C 	C 	0.90984 0.80847 0.41256 -0.00400
C 	C 	0.95005 0.83208 0.36112 -0.02500
C 	C 	0.93468 0.90245 0.44845 -0.07200
C 	C 	0.90200 0.84400 0.45564 -0.02400
N 	N 	0.00834 0.98638 0.38741 -0.14400
C 	C 	0.92801 0.06302 0.37439 -0.00500
C 	C 	0.95335 0.07080 0.43423 -0.02400
C 	C 	0.95687 0.00634 0.32366 -0.07000
C 	C 	0.92959 0.03040 0.31937 -0.02400
C 	C 	0.14445 0.06967 0.49288 -0.00500
C 	C 	0.14313 0.09022 0.42925 -0.02400
C 	C 	0.09787 0.06371 0.39613 -0.07000
C 	C 	0.05357 0.01603 0.42581 0.07800
C 	C 	0.05442 0.99720 0.49160 -0.07200
C 	C 	0.09982 0.02370 0.52451 -0.02400
C 	C 	0.84137 0.13372 0.36937 0.02700
C 	C 	0.81681 0.07535 0.37660 -0.04000
C 	C 	0.84513 0.05215 0.37701 -0.03800
C 	C 	0.89821 0.08719 0.37049 0.00900
C 	C 	0.92277 0.14540 0.36160 -0.03800
C 	C 	0.89444 0.16861 0.36107 -0.04600
C 	C 	0.81542 0.62946 0.44271 0.02800
C 	C 	0.82301 0.65209 0.37644 -0.04100
C 	C 	0.85337 0.71049 0.36662 -0.03700
C 	C 	0.87696 0.74668 0.42291 0.00900
C 	C 	0.86920 0.72382 0.48923 -0.03700
C 	C 	0.83802 0.66553 0.49920 -0.04400
C 	C 	0.29093 0.14522 0.56940 0.02700
C 	C 	0.26788 0.09327 0.53454 -0.04000
C 	C 	0.21916 0.06752 0.51201 -0.03700
C 	C 	0.19319 0.09364 0.52365 0.00900
C 	C 	0.21545 0.14463 0.56048 -0.03800
C 	C 	0.26411 0.17026 0.58351 -0.04700
H 	H 	0.95659 0.80514 0.32771 0.03700
H 	H 	0.01294 0.90843 0.31308 0.05100
H 	H 	0.92890 0.92938 0.48301 0.04900
H 	H 	0.87079 0.82629 0.49498 0.03600
H 	H 	0.95168 0.09531 0.47740 0.03600
H 	H 	0.90939 0.02339 0.27349 0.03700
H 	H 	0.17740 0.12605 0.40478 0.03700
H 	H 	0.09722 0.07979 0.34695 0.05100
H 	H 	0.02024 0.96239 0.51725 0.05000
H 	H 	0.10045 0.00806 0.57415 0.03700
H 	H 	0.77585 0.04813 0.38310 0.05100
H 	H 	0.82589 0.00710 0.38352 0.04200
H 	H 	0.91368 0.21370 0.35504 0.04300
H 	H 	0.80547 0.62446 0.33259 0.04800
H 	H 	0.85855 0.72760 0.31539 0.03800
H 	H 	0.88753 0.75121 0.53294 0.04000
H 	H 	0.83203 0.64833 0.55061 0.04400
H 	H 	0.28837 0.07378 0.52301 0.05300
H 	H 	0.20217 0.02809 0.48368 0.04300
H 	H 	0.19552 0.16495 0.56993 0.04000
H 	H 	0.28149 0.21024 0.61062 0.04300
Co	Co	0.72629 0.34532 0.96969 1.18300
O 	O 	0.78607 0.34919 0.91077 -0.38000
Co	Co	0.61768 0.33362 0.01232 1.18800
O 	O 	0.65839 0.30983 0.92707 -0.45900
O 	O 	0.67282 0.41398 0.02840 -0.40000
O 	O 	0.72894 0.27250 0.96005 -0.34400
C 	C 	0.72017 0.44230 0.00059 0.35200
O 	O 	0.61568 0.34268 0.90309 -0.34700
C 	C 	0.52574 0.27106 0.06437 0.30900
C 	C 	0.69079 0.33644 0.10269 0.31200
O 	O 	0.55678 0.32435 0.07426 -0.36100
O 	O 	0.54614 0.25241 0.02157 -0.34300
O 	O 	0.73704 0.35658 0.07913 -0.35700
O 	O 	0.65954 0.31046 0.05449 -0.46100
O 	O 	0.73618 0.41912 0.95420 -0.53700
C 	C 	0.77014 0.29734 0.92042 0.31200
C 	C 	0.64782 0.33094 0.87919 0.30800
H 	H 	0.76174 0.44320 0.91512 0.17800
Co	Co	0.68686 0.28065 0.45404 1.18700
O 	O 	0.73585 0.27260 0.38419 -0.37100
Co	Co	0.59074 0.28762 0.51703 1.18600
O 	O 	0.61578 0.25029 0.42643 -0.45700
O 	O 	0.65489 0.36367 0.52289 -0.41100
O 	O 	0.68131 0.20271 0.44660 -0.34100
C 	C 	0.69289 0.38750 0.47452 0.34600
O 	O 	0.58035 0.29314 0.40999 -0.36800
C 	C 	0.50185 0.23993 0.58061 0.30300
C 	C 	0.66697 0.28272 0.59095 0.31800
O 	O 	0.53896 0.29216 0.58545 -0.35500
O 	O 	0.51543 0.21372 0.53877 -0.34200
O 	O 	0.70996 0.29839 0.55850 -0.35700
O 	O 	0.62963 0.25739 0.55096 -0.45400
O 	O 	0.70445 0.35748 0.43277 -0.53000
C 	C 	0.71764 0.22090 0.39880 0.31200
C 	C 	0.60311 0.27093 0.38077 0.32400
H 	H 	0.72685 0.37545 0.38876 0.17500
C 	C 	0.65228 0.31872 0.80526 -0.09100
C 	C 	0.67337 0.36172 0.75507 0.06700
C 	C 	0.67824 0.34949 0.68513 -0.02400
C 	C 	0.66164 0.29458 0.66450 -0.10000
C 	C 	0.64105 0.25169 0.71459 0.07000
C 	C 	0.63644 0.26391 0.78465 -0.02400
H 	H 	0.69532 0.38287 0.64684 0.05900
H 	H 	0.62055 0.23078 0.82313 0.06100
I 	I 	0.70030 0.44601 0.78331 -0.12300
I 	I 	0.61878 0.16874 0.68629 -0.10200
C 	C 	0.62927 0.28816 0.31123 -0.11200
C 	C 	0.62768 0.24836 0.26407 0.06500
C 	C 	0.64983 0.26506 0.19652 -0.02100
C 	C 	0.67447 0.32138 0.17600 -0.08900
C 	C 	0.67873 0.36170 0.22443 0.05800
C 	C 	0.65475 0.34465 0.29086 -0.01900
H 	H 	0.64704 0.23403 0.15952 0.06000
H 	H 	0.65690 0.37561 0.32721 0.04600
I 	I 	0.58963 0.16217 0.29171 -0.10000
I 	I 	0.72231 0.44885 0.19973 -0.11500
C 	C 	0.72437 0.44992 0.46817 -0.13400
C 	C 	0.70243 0.48090 0.48008 0.17000
C 	C 	0.73289 0.53978 0.47353 -0.10200
C 	C 	0.78451 0.56791 0.45279 -0.00900
C 	C 	0.80667 0.53738 0.44228 0.09600
C 	C 	0.77655 0.47863 0.44965 -0.02500
H 	H 	0.71617 0.56352 0.48396 0.06800
H 	H 	0.79402 0.45553 0.44179 0.04600
O 	O 	0.65228 0.45433 0.50443 -0.19500
O 	O 	0.85700 0.56442 0.41866 -0.18900
C 	C 	0.62265 0.44201 0.44752 -0.02900
H 	H 	0.63332 0.48109 0.42063 0.04300
H 	H 	0.58243 0.42041 0.46729 0.05400
H 	H 	0.62503 0.41282 0.41021 0.04400
C 	C 	0.88606 0.57581 0.47601 -0.02600
H 	H 	0.88167 0.60236 0.51573 0.04000
H 	H 	0.92663 0.59975 0.45732 0.04600
H 	H 	0.87658 0.53616 0.49995 0.04200
C 	C 	0.81166 0.15861 0.37486 -0.01200
C 	C 	0.77998 0.14976 0.32210 0.09900
C 	C 	0.74827 0.16904 0.33122 -0.02800
C 	C 	0.74925 0.19871 0.39143 -0.11200
C 	C 	0.78145 0.20826 0.44379 0.16400
C 	C 	0.81346 0.18943 0.43436 -0.10000
H 	H 	0.72315 0.16117 0.29121 0.05500
H 	H 	0.83889 0.19771 0.47410 0.06500
O 	O 	0.77705 0.11837 0.26396 -0.19000
O 	O 	0.78512 0.24071 0.50121 -0.19900
C 	C 	0.81152 0.15551 0.21107 -0.02500
H 	H 	0.80149 0.18467 0.19538 0.04000
H 	H 	0.80943 0.13021 0.16470 0.04300
H 	H 	0.85129 0.17968 0.22664 0.03800
C 	C 	0.75537 0.20458 0.55763 -0.02800
H 	H 	0.71528 0.17358 0.54522 0.06000
H 	H 	0.75502 0.23051 0.60180 0.05500
H 	H 	0.77196 0.18236 0.57524 0.04000
C 	C 	0.34487 0.17607 0.58414 -0.01200
C 	C 	0.36138 0.15241 0.62785 0.09900
C 	C 	0.41323 0.17497 0.62844 -0.03000
C 	C 	0.44883 0.22234 0.58802 -0.10800
C 	C 	0.43242 0.24816 0.54780 0.16300
C 	C 	0.38063 0.22598 0.54804 -0.09900
H 	H 	0.42561 0.15480 0.65915 0.05500
H 	H 	0.36814 0.24560 0.51651 0.06400
O 	O 	0.32656 0.10408 0.66525 -0.19000
O 	O 	0.46725 0.29636 0.51006 -0.19800
C 	C 	0.31686 0.12002 0.73160 -0.02400
H 	H 	0.35170 0.14390 0.76099 0.03900
H 	H 	0.28878 0.08127 0.76164 0.04500
H 	H 	0.30009 0.14478 0.72818 0.04000
C 	C 	0.47042 0.28100 0.44028 -0.02900
H 	H 	0.47908 0.24846 0.43555 0.05300
H 	H 	0.50179 0.31885 0.41165 0.05100
H 	H 	0.43499 0.26614 0.41475 0.03900
C 	C 	0.75373 0.50354 0.01517 -0.13200
C 	C 	0.73337 0.53598 0.02928 0.17400
C 	C 	0.76512 0.59261 0.04846 -0.10300
C 	C 	0.81731 0.61824 0.05031 -0.00800
C 	C 	0.83774 0.58609 0.03708 0.09600
C 	C 	0.80602 0.52916 0.01840 -0.02300
H 	H 	0.74924 0.61710 0.06008 0.06800
H 	H 	0.82200 0.50468 0.00788 0.04400
O 	O 	0.68183 0.51136 0.02903 -0.18900
O 	O 	0.88940 0.61142 0.03684 -0.18900
C 	C 	0.67106 0.51936 0.96296 -0.03000
H 	H 	0.68962 0.56489 0.95173 0.04200
H 	H 	0.62956 0.49860 0.96239 0.05500
H 	H 	0.68210 0.49947 0.92134 0.05400
C 	C 	0.90056 0.60277 0.10230 -0.02600
H 	H 	0.88853 0.62084 0.14524 0.04300
H 	H 	0.94221 0.62472 0.10287 0.04700
H 	H 	0.88319 0.55723 0.11181 0.04500
C 	C 	0.85544 0.22835 0.94464 -0.00900
C 	C 	0.87088 0.28099 0.97455 0.09500
C 	C 	0.84661 0.30701 0.95915 -0.02500
C 	C 	0.80475 0.27907 0.91825 -0.11500
C 	C 	0.79120 0.22811 0.88518 0.16400
C 	C 	0.81633 0.20275 0.89896 -0.10000
H 	H 	0.85815 0.34712 0.98299 0.05300
H 	H 	0.80427 0.16224 0.87591 0.06700
O 	O 	0.91133 0.30831 0.01640 -0.18900
O 	O 	0.74974 0.19994 0.84523 -0.19600
C 	C 	0.89246 0.29521 0.08641 -0.02600
H 	H 	0.86850 0.31119 0.10225 0.04300
H 	H 	0.92504 0.31640 0.11974 0.04500
H 	H 	0.87111 0.24917 0.09659 0.03900
C 	C 	0.76657 0.21726 0.77555 -0.02600
H 	H 	0.78386 0.26318 0.76949 0.04600
H 	H 	0.73334 0.19451 0.74341 0.05200
H 	H 	0.79354 0.20636 0.75490 0.04000
C 	C 	0.47074 0.24256 0.07536 -0.11200
C 	C 	0.44322 0.24606 0.02498 0.16600
C 	C 	0.39208 0.22543 0.04022 -0.10000
C 	C 	0.36770 0.19931 0.10421 -0.01100
C 	C 	0.39512 0.19519 0.15423 0.09900
C 	C 	0.44625 0.21575 0.13890 -0.02800
H 	H 	0.37130 0.22953 0.00210 0.06600
H 	H 	0.46720 0.21217 0.17726 0.05400
O 	O 	0.46757 0.27458 0.96340 -0.19800
O 	O 	0.37104 0.16757 0.21637 -0.18900
C 	C 	0.46041 0.23497 0.91146 -0.02700
H 	H 	0.47503 0.20978 0.92561 0.05600
H 	H 	0.48205 0.25813 0.86299 0.05600
H 	H 	0.41982 0.20668 0.89986 0.04000
C 	C 	0.37778 0.20783 0.26706 -0.02500
H 	H 	0.41853 0.23812 0.27687 0.04000
H 	H 	0.35781 0.18553 0.31665 0.04400
H 	H 	0.36101 0.23073 0.25262 0.04000
H 	H 	0.95760 0.98083 0.28137 0.05200
C 	C 	0.96633 0.05171 0.03617 -0.07300
H 	H 	0.96375 0.17265 0.35576 0.04000
C 	C 	0.97204 0.89683 0.05915 -0.02500
H 	H 	0.97248 0.02401 0.00395 0.05000
C 	C 	0.97128 0.97267 0.11929 0.07600
C 	C 	0.97233 0.09914 0.14609 -0.07100
C 	C 	0.97511 0.92608 0.39707 0.07900
C 	C 	0.97836 0.06098 0.10633 0.07900
C 	C 	0.97993 0.04588 0.43910 -0.07200
C 	C 	0.98227 0.89058 0.35321 -0.06800
C 	C 	0.98220 0.01380 0.38325 0.07900
H 	H 	0.98733 0.20651 0.96171 0.04200
H 	H 	0.98262 0.10758 0.19948 0.05200
H 	H 	0.99098 0.88317 0.02341 0.03700
C 	C 	0.99433 0.95437 0.07042 -0.06900
N 	N 	0.99649 0.03155 0.13822 -0.14200
H 	H 	0.99771 0.05047 0.48658 0.05000
