data_crystal

_cell_length_a 16.83364
_cell_length_b 16.05678
_cell_length_c 33.01704
_cell_angle_alpha 90.94948
_cell_angle_beta  91.04371
_cell_angle_gamma 113.28327

_symmetry_space_group_name_	'P 1'
_symmetry_space_group_name_H-M	'P 1'

loop_
_symmetry_equiv_pos_as_xyz
  x,y,z

loop_
_atom_site_label
_atom_site_type_symbol
_atom_site_fract_x
_atom_site_fract_y
_atom_site_fract_z
_atom_site_charge
Ni	Ni	0.79814 0.37609 0.88203 1.10400
O 	O 	0.67083 0.31050 0.86515 -0.70100
Ni	Ni	0.61116 0.34551 0.91009 1.10800
O 	O 	0.83937 0.29464 0.84700 -0.35500
O 	O 	0.73956 0.16933 0.87536 -0.39400
O 	O 	0.82046 0.46688 0.83469 -0.35500
Ni	Ni	0.62317 0.17805 0.86038 1.08000
O 	O 	0.89853 0.57974 0.90770 -0.37300
O 	O 	0.56947 0.12166 0.91456 -0.36600
O 	O 	0.48436 0.26442 0.89600 -0.32200
O 	O 	0.73866 0.42063 0.92446 -0.69600
O 	O 	0.92159 0.44983 0.90178 -0.33000
O 	O 	0.57145 0.40766 0.95524 -0.27400
O 	O 	0.65049 0.54854 0.93200 -0.36900
Ni	Ni	0.77256 0.55174 0.92021 1.09000
H 	H 	0.65899 0.33546 0.83960 0.16400
H 	H 	0.75273 0.40446 0.95163 0.20600
C 	C 	0.56618 0.16612 0.94795 0.30900
O 	O 	0.74095 0.54037 0.86045 -0.40200
C 	C 	0.80671 0.20642 0.85232 0.27900
C 	C 	0.45725 0.19672 0.86880 0.31100
C 	C 	0.79656 0.53624 0.83422 0.29200
C 	C 	0.60097 0.49619 0.95956 0.29300
C 	C 	0.93737 0.52790 0.92057 0.31300
O 	O 	0.61414 0.25337 0.95204 -0.32200
O 	O 	0.51024 0.18336 0.84300 -0.41100
Ni	Ni	0.65322 0.23432 0.63560 1.10500
O 	O 	0.71944 0.36718 0.65314 -0.70100
Ni	Ni	0.68495 0.43222 0.60989 1.10600
O 	O 	0.71500 0.18850 0.67881 -0.35600
O 	O 	0.84372 0.28373 0.65395 -0.36800
O 	O 	0.55673 0.23199 0.67441 -0.37500
Ni	Ni	0.84441 0.41298 0.65799 1.08100
O 	O 	0.52645 0.13685 0.55640 -0.32300
O 	O 	0.88278 0.43006 0.59910 -0.33100
O 	O 	0.74823 0.56074 0.63174 -0.36700
O 	O 	0.63003 0.30077 0.58944 -0.69500
O 	O 	0.57847 0.10340 0.61715 -0.33500
O 	O 	0.61398 0.47630 0.57136 -0.32700
O 	O 	0.49027 0.36377 0.59188 -0.34900
Ni	Ni	0.50724 0.24688 0.57565 1.14000
H 	H 	0.69724 0.37949 0.67914 0.15900
H 	H 	0.66235 0.29289 0.56595 0.22000
C 	C 	0.85982 0.47662 0.57247 0.28100
O 	O 	0.44950 0.17809 0.62559 -0.33500
C 	C 	0.80037 0.22024 0.67916 0.27000
C 	C 	0.82939 0.59301 0.64534 0.28800
C 	C 	0.47429 0.20498 0.66306 0.29300
C 	C 	0.52910 0.43761 0.57126 0.28900
C 	C 	0.54369 0.07993 0.58020 0.27400
O 	O 	0.77718 0.45923 0.56582 -0.32000
O 	O 	0.85915 0.54386 0.66835 -0.40300
C 	C 	0.07200 0.00745 0.72001 -0.06900
H 	H 	0.08401 0.02543 0.68774 0.07300
C 	C 	0.04712 0.96436 0.79774 0.01200
H 	H 	0.03753 0.94568 0.83007 0.05700
C 	C 	0.01205 0.04474 0.74194 0.01700
C 	C 	0.02973 0.90513 0.72789 0.03200
C 	C 	0.15474 0.03995 0.74659 0.01300
C 	C 	0.99932 0.02201 0.78216 -0.04600
C 	C 	0.01757 0.88253 0.76802 -0.01500
C 	C 	0.14142 0.02011 0.78669 -0.03800
Ni	Ni	0.26092 0.65376 0.41028 1.10400
O 	O 	0.36755 0.76709 0.42671 -0.69100
Ni	Ni	0.34999 0.86056 0.39198 1.10700
O 	O 	0.29551 0.57575 0.44942 -0.31200
O 	O 	0.42851 0.62205 0.42134 -0.36100
O 	O 	0.19640 0.68775 0.45578 -0.32100
Ni	Ni	0.48042 0.76257 0.41845 1.11700
O 	O 	0.10101 0.60258 0.34085 -0.39700
O 	O 	0.46615 0.75611 0.35716 -0.39300
O 	O 	0.44899 0.96998 0.41731 -0.32700
O 	O 	0.25573 0.74187 0.36924 -0.69500
O 	O 	0.14872 0.54573 0.39558 -0.36700
O 	O 	0.29626 0.94287 0.36520 -0.34100
O 	O 	0.16981 0.85555 0.39334 -0.35400
Ni	Ni	0.13452 0.72799 0.36683 1.08100
H 	H 	0.36294 0.78077 0.45559 0.22500
H 	H 	0.27232 0.72524 0.34264 0.16100
C 	C 	0.48195 0.83160 0.33810 0.30200
O 	O 	0.07413 0.66713 0.41850 -0.34400
C 	C 	0.37534 0.58088 0.45025 0.29200
C 	C 	0.51214 0.95356 0.43517 0.30700
C 	C 	0.11241 0.66611 0.45344 0.32300
C 	C 	0.21424 0.92601 0.37189 0.28300
C 	C 	0.10931 0.53398 0.35978 0.29400
O 	O 	0.42826 0.87310 0.34204 -0.35700
O 	O 	0.54283 0.89993 0.41653 -0.33000
Ni	Ni	0.36668 0.74648 0.11651 1.10800
O 	O 	0.24759 0.65949 0.09472 -0.69600
Ni	Ni	0.16987 0.69439 0.13057 1.10600
O 	O 	0.42903 0.69549 0.07701 -0.27600
O 	O 	0.35325 0.55091 0.09730 -0.36600
O 	O 	0.36377 0.83598 0.07321 -0.32300
Ni	Ni	0.22332 0.53066 0.09900 1.09400
O 	O 	0.43421 0.90134 0.19077 -0.39800
O 	O 	0.22964 0.53541 0.16068 -0.39600
O 	O 	0.05632 0.61341 0.10302 -0.32500
O 	O 	0.28895 0.76824 0.15625 -0.70200
O 	O 	0.48317 0.84090 0.13714 -0.31800
O 	O 	0.11045 0.76763 0.15944 -0.35300
O 	O 	0.21339 0.89669 0.13582 -0.39200
Ni	Ni	0.32669 0.89995 0.16237 1.08000
H 	H 	0.23885 0.67336 0.06630 0.20600
H 	H 	0.29559 0.74241 0.18249 0.16400
C 	C 	0.16330 0.53499 0.18090 0.29300
O 	O 	0.39984 0.96309 0.11371 -0.34300
C 	C 	0.40641 0.60779 0.07207 0.29100
C 	C 	0.05287 0.53955 0.08373 0.30400
C 	C 	0.40382 0.92426 0.07881 0.31000
C 	C 	0.14042 0.85587 0.15447 0.28600
C 	C 	0.49692 0.88874 0.17153 0.30000
O 	O 	0.13811 0.60292 0.17760 -0.35500
O 	O 	0.09222 0.49010 0.09910 -0.37100
C 	C 	0.92285 0.09798 0.22571 -0.04300
H 	H 	0.92320 0.10328 0.19218 0.05900
C 	C 	0.91926 0.08505 0.30612 -0.02900
H 	H 	0.91833 0.07998 0.33964 0.06800
C 	C 	0.98859 0.06368 0.24363 -0.00700
C 	C 	0.94492 0.18864 0.24850 -0.00300
C 	C 	0.83583 0.03287 0.24269 0.01100
C 	C 	0.98684 0.05647 0.28515 -0.00300
C 	C 	0.93910 0.18104 0.28988 -0.00600
C 	C 	0.83330 0.02699 0.28402 -0.03500
C 	C 	0.10648 0.45014 0.20087 -0.07500
C 	C 	0.01906 0.40726 0.18840 0.02300
C 	C 	0.96747 0.31988 0.20154 -0.03900
C 	C 	0.00168 0.27648 0.22963 0.03600
C 	C 	0.08935 0.31925 0.24196 -0.05900
C 	C 	0.14124 0.40604 0.22834 0.02900
H 	H 	0.99190 0.44045 0.16720 0.09000
H 	H 	0.11651 0.28602 0.26310 0.06100
C 	C 	0.22893 0.45073 0.24404 0.08200
C 	C 	0.88124 0.27412 0.18441 0.13000
N 	N 	0.29917 0.48653 0.25668 -0.09600
N 	N 	0.81239 0.23822 0.17020 -0.07100
C 	C 	0.58445 0.92780 0.18863 -0.02400
C 	C 	0.63282 0.87454 0.18879 0.01100
C 	C 	0.71837 0.91050 0.20260 0.00100
C 	C 	0.75590 0.00096 0.21773 0.00000
C 	C 	0.70805 0.05513 0.21649 -0.02900
C 	C 	0.62306 0.01963 0.20138 0.01300
H 	H 	0.60312 0.80411 0.17846 0.06600
H 	H 	0.73546 0.12321 0.22962 0.06700
C 	C 	0.57669 0.07829 0.19826 0.11500
C 	C 	0.76422 0.85142 0.20388 0.09900
N 	N 	0.53963 0.12533 0.19576 -0.09200
N 	N 	0.79885 0.80192 0.20451 -0.08700
C 	C 	0.03145 0.01882 0.21711 0.02700
C 	C 	0.98180 0.95440 0.18772 -0.04600
C 	C 	0.01539 0.89785 0.16841 0.05200
C 	C 	0.10202 0.91086 0.17610 -0.09100
C 	C 	0.15510 0.98373 0.20136 0.04500
C 	C 	0.12106 0.04069 0.22023 -0.06600
H 	H 	0.91885 0.95125 0.17856 0.07500
H 	H 	0.22347 0.99802 0.20505 0.00800
C 	C 	0.17947 0.12761 0.23673 0.09900
C 	C 	0.96178 0.82945 0.13938 0.10500
N 	N 	0.22682 0.19735 0.24973 -0.10900
N 	N 	0.91883 0.77465 0.11616 -0.04700
C 	C 	0.74994 0.97531 0.30561 0.10400
C 	C 	0.70765 0.88117 0.29864 -0.08100
C 	C 	0.61837 0.83576 0.30497 0.05100
C 	C 	0.57137 0.88261 0.32255 -0.10000
C 	C 	0.61494 0.97595 0.33181 0.09800
C 	C 	0.70443 0.02121 0.32531 -0.10100
H 	H 	0.74306 0.84399 0.28605 0.08200
H 	H 	0.58071 0.01218 0.34664 0.04500
C 	C 	0.75053 0.10841 0.34487 0.15700
C 	C 	0.57480 0.74246 0.29121 0.08100
N 	N 	0.78653 0.17771 0.36140 -0.07600
N 	N 	0.53994 0.66774 0.28011 -0.08700
C 	C 	0.06114 0.44076 0.34425 -0.06800
C 	C 	0.98125 0.41856 0.32388 0.02100
C 	C 	0.93316 0.32947 0.31037 -0.03100
C 	C 	0.96546 0.26185 0.31715 0.03800
C 	C 	0.03778 0.28155 0.34277 -0.04600
C 	C 	0.09004 0.37131 0.35323 0.03900
H 	H 	0.95653 0.47053 0.31860 0.05800
H 	H 	0.05782 0.22802 0.35138 0.06800
C 	C 	0.17631 0.39231 0.36950 0.09100
C 	C 	0.85118 0.30793 0.28932 0.11100
N 	N 	0.24540 0.40883 0.38242 -0.09100
N 	N 	0.78546 0.29087 0.27255 -0.09600
C 	C 	0.16539 0.96269 0.34482 -0.05500
C 	C 	0.09102 0.90117 0.32431 0.01000
C 	C 	0.02900 0.92990 0.30810 -0.00900
C 	C 	0.04494 0.02294 0.30837 0.01000
C 	C 	0.12160 0.08551 0.32706 -0.04000
C 	C 	0.18132 0.05579 0.34563 0.01400
H 	H 	0.07871 0.82951 0.32330 -0.01400
H 	H 	0.13701 0.15743 0.32530 0.05900
C 	C 	0.25875 0.12131 0.36515 0.11000
C 	C 	0.94732 0.86265 0.29352 0.09700
N 	N 	0.32082 0.17389 0.38077 -0.05400
N 	N 	0.88210 0.80740 0.28225 -0.09800
C 	C 	0.60720 0.99399 0.54220 0.07500
C 	C 	0.53494 0.99367 0.56232 0.04400
C 	C 	0.45373 0.94053 0.54500 -0.07900
C 	C 	0.44612 0.93426 0.50273 0.08200
C 	C 	0.52116 0.96125 0.47951 -0.01700
C 	C 	0.60332 0.98676 0.49961 -0.05000
C 	C 	0.68574 0.00837 0.47618 0.74900
H 	H 	0.66898 0.01735 0.55840 0.07700
H 	H 	0.38284 0.91268 0.48804 0.06400
C 	C 	0.37368 0.91218 0.57007 0.79000
F 	F 	0.75872 0.05232 0.50060 -0.40600
F 	F 	0.68871 0.06448 0.44436 -0.42200
F 	F 	0.68875 0.92877 0.46121 -0.41600
F 	F 	0.33914 0.97720 0.56820 -0.40600
F 	F 	0.39342 0.90215 0.61010 -0.40600
F 	F 	0.31261 0.83020 0.55543 -0.37700
C 	C 	0.95152 0.61880 0.53817 0.04200
C 	C 	0.92275 0.52421 0.54080 0.02000
C 	C 	0.95940 0.47701 0.51552 -0.09000
C 	C 	0.02930 0.52666 0.49091 0.06400
C 	C 	0.05743 0.62105 0.48793 0.01800
C 	C 	0.02014 0.66816 0.51271 -0.07700
C 	C 	0.05135 0.77050 0.51108 0.77800
H 	H 	0.92081 0.65404 0.55620 0.07800
H 	H 	0.05936 0.49130 0.47250 0.09300
C 	C 	0.92510 0.37406 0.51476 0.78600
F 	F 	0.02144 0.80553 0.54319 -0.41700
F 	F 	0.02210 0.79348 0.47529 -0.42000
F 	F 	0.14083 0.81008 0.51286 -0.39300
F 	F 	0.83567 0.33641 0.51561 -0.42300
F 	F 	0.95839 0.34584 0.54789 -0.41900
F 	F 	0.94879 0.34143 0.47993 -0.41600
C 	C 	0.40412 0.45348 0.47759 0.06200
C 	C 	0.40529 0.54040 0.48338 0.00500
C 	C 	0.43939 0.58995 0.51995 -0.09400
C 	C 	0.47605 0.55267 0.54933 0.06400
C 	C 	0.47888 0.46758 0.54271 0.00600
C 	C 	0.44194 0.41665 0.50666 -0.08900
C 	C 	0.44213 0.32297 0.49931 0.76900
H 	H 	0.37543 0.41556 0.44988 0.09100
H 	H 	0.50477 0.59078 0.57701 0.09000
C 	C 	0.43953 0.68382 0.52694 0.78100
F 	F 	0.41105 0.28889 0.46080 -0.42600
F 	F 	0.39001 0.26363 0.52702 -0.48700
F 	F 	0.52540 0.32659 0.50331 -0.49300
F 	F 	0.35615 0.67973 0.52288 -0.42500
F 	F 	0.49113 0.74251 0.49888 -0.51300
F 	F 	0.47098 0.71883 0.56530 -0.41800
C 	C 	0.84605 0.17020 0.69912 -0.06600
C 	C 	0.84388 0.09056 0.68017 0.01600
C 	C 	0.91005 0.06020 0.68783 -0.02900
C 	C 	0.96868 0.09834 0.72086 0.02100
C 	C 	0.97281 0.17988 0.73890 -0.05300
C 	C 	0.91138 0.21513 0.72862 0.02600
H 	H 	0.79724 0.05914 0.65562 0.06400
H 	H 	0.01954 0.21209 0.76308 0.07600
C 	C 	0.91616 0.29812 0.74827 0.06400
C 	C 	0.92941 0.00835 0.65638 0.08400
N 	N 	0.92006 0.36471 0.76392 -0.10600
N 	N 	0.94474 0.96790 0.63051 -0.05300
C 	C 	0.40635 0.17902 0.69404 -0.06600
C 	C 	0.38883 0.09876 0.71511 0.03100
C 	C 	0.30751 0.05257 0.73218 -0.05500
C 	C 	0.24321 0.08871 0.72959 0.03600
C 	C 	0.26280 0.17190 0.71068 -0.05100
C 	C 	0.34432 0.21799 0.69378 0.03400
H 	H 	0.43623 0.06857 0.71566 0.05900
H 	H 	0.21453 0.20083 0.70903 0.07100
C 	C 	0.36370 0.30526 0.67609 0.09100
C 	C 	0.28994 0.96654 0.75063 0.14300
N 	N 	0.37903 0.37531 0.66204 -0.08000
N 	N 	0.27687 0.89783 0.76552 -0.09200
C 	C 	0.87509 0.69125 0.64904 -0.06200
C 	C 	0.96499 0.72832 0.64429 0.02600
C 	C 	0.01702 0.80417 0.66769 -0.01100
C 	C 	0.97821 0.84236 0.69562 0.02000
C 	C 	0.88845 0.81633 0.69420 -0.04500
C 	C 	0.83672 0.74257 0.66995 0.03500
H 	H 	0.99464 0.69246 0.62589 0.06500
H 	H 	0.85905 0.85178 0.71303 0.05700
C 	C 	0.74426 0.71721 0.66835 0.10400
C 	C 	0.10981 0.84059 0.66380 0.13800
N 	N 	0.67020 0.69705 0.66710 -0.08000
N 	N 	0.18414 0.86985 0.66062 -0.05200
C 	C 	0.91145 0.52278 0.99368 0.03600
C 	C 	0.97035 0.54023 0.96233 -0.02700
C 	C 	0.05765 0.55730 0.97129 -0.09000
C 	C 	0.08165 0.54508 0.01094 0.06600
C 	C 	0.02124 0.52340 0.04186 -0.02000
C 	C 	0.93394 0.50467 0.03248 -0.06800
C 	C 	0.86485 0.46724 0.06384 0.78000
H 	H 	0.84759 0.52131 0.98763 0.03600
H 	H 	0.14810 0.55660 0.01827 0.06700
C 	C 	0.12521 0.58804 0.93885 0.78200
F 	F 	0.78598 0.41546 0.04522 -0.39200
F 	F 	0.85746 0.53818 0.08547 -0.39100
F 	F 	0.88478 0.41199 0.09036 -0.42900
F 	F 	0.10760 0.64363 0.91166 -0.42600
F 	F 	0.12646 0.51299 0.91819 -0.40700
F 	F 	0.20640 0.63707 0.95588 -0.39000
C 	C 	0.40319 0.03325 0.02618 0.05300
C 	C 	0.44535 0.98293 0.04412 0.04000
C 	C 	0.53127 0.99896 0.03286 -0.07100
C 	C 	0.57029 0.06090 0.00197 0.07500
C 	C 	0.52858 0.11253 0.98466 0.00800
C 	C 	0.44647 0.10312 0.99921 -0.09900
C 	C 	0.40475 0.16711 0.98684 0.77900
H 	H 	0.33768 0.02085 0.03474 0.08400
H 	H 	0.63348 0.06928 0.99138 0.07500
C 	C 	0.58343 0.95515 0.05529 0.78500
F 	F 	0.34283 0.16626 0.01406 -0.41900
F 	F 	0.36508 0.14099 0.94921 -0.45300
F 	F 	0.46561 0.25488 0.98592 -0.42200
F 	F 	0.53935 0.86214 0.05419 -0.42200
F 	F 	0.59742 0.98692 0.09503 -0.43300
F 	F 	0.66320 0.97479 0.03827 -0.41600
C 	C 	0.49493 0.56212 0.97410 0.04700
C 	C 	0.55911 0.53461 0.98848 0.00800
C 	C 	0.57342 0.53129 0.03066 -0.07400
C 	C 	0.51869 0.54976 0.05767 0.06800
C 	C 	0.45317 0.57524 0.04319 0.01100
C 	C 	0.43945 0.57930 0.00104 -0.05800
C 	C 	0.36397 0.59894 0.98487 0.76600
H 	H 	0.48580 0.56592 0.94171 0.09600
H 	H 	0.52783 0.54595 0.09006 0.09000
C 	C 	0.64485 0.50487 0.04676 0.78800
F 	F 	0.35317 0.58560 0.94325 -0.39600
F 	F 	0.37762 0.68798 0.99411 -0.40900
F 	F 	0.28866 0.54161 0.00240 -0.45200
F 	F 	0.72054 0.55112 0.02668 -0.43800
F 	F 	0.62064 0.41256 0.04081 -0.38100
F 	F 	0.66138 0.52555 0.08775 -0.40100
C 	C 	0.94112 0.04784 0.80840 0.04800
C 	C 	0.85524 0.02630 0.79535 -0.09300
C 	C 	0.81117 0.07911 0.80885 0.04100
C 	C 	0.85194 0.15102 0.83719 -0.08100
C 	C 	0.93295 0.16413 0.85408 0.02800
C 	C 	0.97541 0.10927 0.84152 -0.05000
H 	H 	0.82603 0.97446 0.77186 0.08100
H 	H 	0.96118 0.21438 0.87830 0.06500
C 	C 	0.04546 0.10671 0.86650 0.11200
C 	C 	0.72695 0.06328 0.79142 0.05000
N 	N 	0.10078 0.10467 0.88724 -0.08900
N 	N 	0.65954 0.05072 0.77740 -0.11500
C 	C 	0.20782 0.06621 0.81812 0.06000
C 	C 	0.24203 0.01502 0.84095 -0.09200
C 	C 	0.32222 0.05769 0.86082 0.07100
C 	C 	0.36515 0.15278 0.85981 -0.05600
C 	C 	0.32301 0.20434 0.84344 0.03700
C 	C 	0.24515 0.16182 0.82196 -0.04600
H 	H 	0.20976 0.94161 0.84041 0.10500
H 	H 	0.35436 0.27785 0.84468 0.06000
C 	C 	0.20543 0.21680 0.80321 0.11100
C 	C 	0.36092 0.00367 0.88136 0.08700
N 	N 	0.17492 0.26223 0.78833 -0.10400
N 	N 	0.39168 0.96021 0.89785 -0.04600
C 	C 	0.84629 0.61877 0.81020 -0.07500
C 	C 	0.92839 0.63157 0.79575 0.02000
C 	C 	0.98295 0.71556 0.78019 -0.03800
C 	C 	0.95768 0.78975 0.78102 0.03700
C 	C 	0.87449 0.77601 0.79384 -0.06000
C 	C 	0.81726 0.69017 0.80622 0.02600
H 	H 	0.95046 0.57667 0.79697 0.06800
H 	H 	0.85307 0.83136 0.79281 0.05900
C 	C 	0.72773 0.67465 0.81207 0.08500
C 	C 	0.06287 0.72344 0.76214 0.11800
N 	N 	0.65600 0.66235 0.81670 -0.08600
N 	N 	0.12645 0.72856 0.74747 -0.08500
