data_crystal

_cell_length_a 25.91508
_cell_length_b 26.86649
_cell_length_c 30.17524
_cell_angle_alpha 60.95561
_cell_angle_beta  118.71699
_cell_angle_gamma 133.19300

_symmetry_space_group_name_	'P 1'
_symmetry_space_group_name_H-M	'P 1'

loop_
_symmetry_equiv_pos_as_xyz
  x,y,z

loop_
_atom_site_label
_atom_site_type_symbol
_atom_site_fract_x
_atom_site_fract_y
_atom_site_fract_z
_atom_site_charge
C 	C 	0.02323 0.96384 0.50061 0.34700
O 	O 	0.01123 0.99874 0.63596 -0.57000
O 	O 	0.99818 0.95344 0.77917 -0.37400
C 	C 	0.00603 0.95601 0.95266 -0.10900
C 	C 	0.01620 0.97530 0.44525 -0.11500
O 	O 	0.00575 0.98756 0.26389 -0.36400
Co	Co	0.06185 0.04739 0.20570 1.19200
C 	C 	0.02200 0.95665 0.00662 0.35000
O 	O 	0.03314 0.01263 0.13705 -0.56100
O 	O 	0.05083 0.93856 0.12735 -0.75700
Co	Co	0.03153 0.01957 0.70914 1.19900
O 	O 	0.00483 0.09814 0.73926 -0.35900
O 	O 	0.04311 0.93875 0.62159 -0.75400
O 	O 	0.05709 0.82148 0.67727 -0.36200
C 	C 	0.04897 0.99484 0.87798 0.36300
H 	H 	0.10963 0.26827 0.64336 0.06500
H 	H 	0.03657 0.69534 0.26097 0.06300
Co	Co	0.07092 0.89250 0.60566 1.17200
Co	Co	0.07166 0.88667 0.11103 1.17400
O 	O 	0.07716 0.19391 0.18047 -0.35300
O 	O 	0.05749 0.81538 0.18252 -0.37700
O 	O 	0.08119 0.87416 0.23249 -0.36700
O 	O 	0.08027 0.96034 0.04038 -0.38800
Co	Co	0.09067 0.97063 0.67501 1.18800
C 	C 	0.09170 0.84314 0.72023 0.26300
C 	C 	0.06365 0.14408 0.72091 0.27900
O 	O 	0.08068 0.87958 0.72776 -0.36900
O 	O 	0.08058 0.96684 0.53550 -0.39600
C 	C 	0.06297 0.99909 0.92753 -0.09800
C 	C 	0.07291 0.02224 0.37627 0.32300
C 	C 	0.07887 0.01507 0.42733 -0.08600
C 	C 	0.12996 0.27289 0.68305 -0.05500
H 	H 	0.14664 0.39892 0.62143 0.07500
O 	O 	0.09046 0.73913 0.78145 -0.17600
H 	H 	0.08285 0.62527 0.79963 0.07600
Co	Co	0.09961 0.96912 0.18118 1.18900
C 	C 	0.09103 0.83612 0.22580 0.26600
C 	C 	0.13317 0.19334 0.21322 0.26700
O 	O 	0.12476 0.01419 0.23296 -0.44500
O 	O 	0.11521 0.01685 0.72553 -0.44000
O 	O 	0.08640 0.12357 0.70683 -0.35500
F 	F 	0.10405 0.03921 0.85331 -0.44400
H 	H 	0.11801 0.03634 0.94618 0.10000
C 	C 	0.14074 0.37930 0.66087 -0.08300
C 	C 	0.11155 0.21633 0.72602 0.05400
C 	C 	0.08990 0.73095 0.28243 -0.05000
H 	H 	0.08545 0.62022 0.29349 0.07500
C 	C 	0.70481 0.31404 0.01058 0.10100
N 	N 	0.74729 0.38073 0.01579 -0.11900
C 	C 	0.71595 0.40869 0.01078 0.09900
N 	N 	0.64249 0.36929 0.00193 -0.11300
C 	C 	0.60028 0.30211 0.99842 0.09700
N 	N 	0.63152 0.27514 0.00180 -0.11700
C 	C 	0.73630 0.30100 0.54626 0.10100
N 	N 	0.77751 0.36652 0.55305 -0.12100
C 	C 	0.76027 0.37823 0.58127 0.10100
N 	N 	0.70140 0.32457 0.60227 -0.12800
C 	C 	0.65882 0.25950 0.59433 0.10100
N 	N 	0.67603 0.24789 0.56596 -0.10800
C 	C 	0.30744 0.66944 0.27642 0.10200
N 	N 	0.26967 0.60376 0.27105 -0.10800
C 	C 	0.29646 0.59151 0.25120 0.10300
N 	N 	0.36066 0.64480 0.23678 -0.11900
C 	C 	0.39877 0.70999 0.24242 0.10200
N 	N 	0.37233 0.72241 0.26236 -0.12700
C 	C 	0.26456 0.65281 0.74595 0.10100
N 	N 	0.33016 0.69207 0.73510 -0.10800
C 	C 	0.33989 0.66917 0.71017 0.10200
N 	N 	0.28387 0.60741 0.69594 -0.12000
C 	C 	0.21958 0.56673 0.70865 0.10300
N 	N 	0.20989 0.58931 0.73377 -0.12700
Co	Co	0.93217 0.00140 0.12417 1.18100
Co	Co	0.97112 0.92769 0.09589 1.18400
Co	Co	0.97165 0.10518 0.17922 1.16200
O 	O 	0.99770 0.05904 0.16146 -0.77500
O 	O 	0.89235 0.93498 0.08392 -0.45500
C 	C 	0.89547 0.10701 0.06816 0.26400
C 	C 	0.99920 0.01499 0.28566 0.28000
C 	C 	0.21867 0.01558 0.14308 0.27000
C 	C 	0.91247 0.78412 0.10302 0.28200
O 	O 	0.14359 0.15059 0.21465 -0.34300
O 	O 	0.18208 0.94923 0.14473 -0.37000
O 	O 	0.19898 0.03432 0.16194 -0.36900
O 	O 	0.94781 0.14699 0.10076 -0.36800
O 	O 	0.89685 0.06166 0.06320 -0.36500
O 	O 	0.00075 0.07191 0.26008 -0.36800
O 	O 	0.96287 0.81699 0.07904 -0.38000
O 	O 	0.91264 0.81917 0.12208 -0.38100
C 	C 	0.83972 0.95233 0.18931 0.27200
O 	O 	0.86251 0.01817 0.17520 -0.39300
O 	O 	0.86657 0.93434 0.17686 -0.39500
O 	O 	0.97753 0.95365 0.02004 -0.36000
Co	Co	0.90132 0.96975 0.62440 1.18900
Co	Co	0.96273 0.92616 0.58768 1.18300
Co	Co	0.90434 0.02578 0.69968 1.16500
O 	O 	0.95186 0.00856 0.67369 -0.77800
O 	O 	0.87948 0.92965 0.57074 -0.45300
C 	C 	0.88979 0.09216 0.58395 0.26100
C 	C 	0.96000 0.95309 0.79700 0.34400
C 	C 	0.21162 0.02558 0.63465 0.27000
C 	C 	0.90997 0.78600 0.59205 0.28100
O 	O 	0.18020 0.95950 0.63921 -0.39200
O 	O 	0.18890 0.04191 0.65287 -0.36000
O 	O 	0.91484 0.10275 0.63072 -0.37600
O 	O 	0.86458 0.03270 0.57741 -0.37000
O 	O 	0.90027 0.94827 0.76685 -0.39800
O 	O 	0.96430 0.82095 0.57126 -0.39300
O 	O 	0.90655 0.81804 0.61135 -0.38100
C 	C 	0.78059 0.88750 0.67311 0.27400
O 	O 	0.79956 0.95005 0.66588 -0.38300
O 	O 	0.82128 0.88190 0.66428 -0.37700
O 	O 	0.97754 0.96039 0.51292 -0.36200
C 	C 	0.93518 0.90705 0.92833 0.31400
C 	C 	0.92126 0.90266 0.87892 -0.07500
C 	C 	0.97776 0.94720 0.85305 -0.15400
H 	H 	0.86617 0.86547 0.86026 0.09100
F 	F 	0.88008 0.86262 0.95299 -0.43700
C 	C 	0.94145 0.94920 0.36024 -0.11900
C 	C 	0.00425 0.99055 0.34210 -0.07700
C 	C 	0.94722 0.94118 0.41163 0.33100
F 	F 	0.88587 0.89971 0.42878 -0.44300
H 	H 	0.88822 0.92495 0.33408 0.10500
H 	H 	0.13239 0.04115 0.45283 0.09600
F 	F 	0.13416 0.06317 0.35912 -0.44500
C 	C 	0.13083 0.41092 0.67897 0.11800
C 	C 	0.14776 0.32493 0.69619 0.01600
C 	C 	0.13924 0.29882 0.74614 0.12100
C 	C 	0.12791 0.32943 0.76399 -0.08700
C 	C 	0.12180 0.38448 0.72893 0.02500
O 	O 	0.15623 0.48102 0.65811 -0.19800
C 	C 	0.16448 0.49518 0.70089 0.10100
C 	C 	0.14274 0.43751 0.74285 -0.08300
O 	O 	0.11726 0.22982 0.76808 -0.17200
H 	H 	0.12210 0.30977 0.80346 0.07600
H 	H 	0.16311 0.44106 0.78286 0.06700
C 	C 	0.51788 0.72734 0.73616 0.11700
C 	C 	0.59332 0.76463 0.75643 -0.08200
C 	C 	0.63390 0.76824 0.73510 0.01300
C 	C 	0.60317 0.74634 0.69022 0.12200
C 	C 	0.52880 0.71534 0.66705 -0.08900
C 	C 	0.48675 0.70196 0.69337 0.02600
O 	O 	0.47408 0.73176 0.74608 -0.19400
C 	C 	0.41306 0.70559 0.70513 0.10400
C 	C 	0.42235 0.69167 0.67197 -0.08500
O 	O 	0.65301 0.77968 0.66193 -0.18200
C 	C 	0.71615 0.82441 0.69354 0.04500
C 	C 	0.70522 0.81813 0.73701 -0.05200
H 	H 	0.61970 0.79217 0.78601 0.07600
H 	H 	0.50569 0.70580 0.62873 0.07600
H 	H 	0.37947 0.66133 0.64317 0.07200
H 	H 	0.74024 0.85929 0.75741 0.05700
C 	C 	0.14788 0.73446 0.79993 0.12000
C 	C 	0.13696 0.67426 0.80262 -0.08800
C 	C 	0.19651 0.68094 0.80428 0.02500
C 	C 	0.26123 0.74611 0.79568 0.11600
C 	C 	0.27055 0.80697 0.78943 -0.08400
C 	C 	0.21464 0.79897 0.79576 0.01600
C 	C 	0.12827 0.81230 0.76422 0.05200
C 	C 	0.20238 0.84822 0.77333 -0.06100
O 	O 	0.30115 0.74799 0.77560 -0.19500
C 	C 	0.25360 0.67796 0.77243 0.10400
C 	C 	0.19117 0.63775 0.78924 -0.08500
H 	H 	0.31725 0.85871 0.77650 0.07400
H 	H 	0.23717 0.90052 0.75081 0.06100
H 	H 	0.14059 0.59010 0.77773 0.06900
C 	C 	0.24778 0.36425 0.22336 0.12300
C 	C 	0.25364 0.42688 0.19418 -0.08700
C 	C 	0.23312 0.44952 0.21183 0.02700
C 	C 	0.21599 0.41679 0.25944 0.11700
C 	C 	0.21109 0.35472 0.28930 -0.08200
C 	C 	0.22787 0.32957 0.27036 0.01700
O 	O 	0.23187 0.32068 0.19957 -0.17900
C 	C 	0.19496 0.25560 0.23403 0.06200
C 	C 	0.19460 0.26091 0.27725 -0.05300
O 	O 	0.22745 0.46014 0.28097 -0.19300
C 	C 	0.25372 0.52230 0.24148 0.10600
C 	C 	0.25708 0.51615 0.20018 -0.08400
H 	H 	0.26895 0.45437 0.15718 0.07700
H 	H 	0.19527 0.32718 0.32609 0.07700
H 	H 	0.15393 0.21852 0.30013 0.07200
H 	H 	0.29257 0.55968 0.17377 0.07400
C 	C 	0.69199 0.85816 0.24191 0.12700
C 	C 	0.65374 0.86246 0.25903 -0.09100
C 	C 	0.58200 0.83952 0.23134 0.02600
C 	C 	0.54825 0.81021 0.19004 0.11600
C 	C 	0.58639 0.80529 0.17339 -0.08200
C 	C 	0.65749 0.82684 0.20171 0.01000
O 	O 	0.76730 0.90373 0.24992 -0.18800
C 	C 	0.77463 0.89705 0.21045 0.04100
C 	C 	0.70950 0.85127 0.18165 -0.05000
O 	O 	0.47298 0.76523 0.18113 -0.19800
C 	C 	0.46466 0.76796 0.22222 0.10100
C 	C 	0.52938 0.81253 0.25219 -0.08500
H 	H 	0.67982 0.88525 0.29153 0.08000
H 	H 	0.56035 0.78250 0.14090 0.07300
H 	H 	0.70109 0.85417 0.14187 0.05700
H 	H 	0.53728 0.80713 0.29254 0.06900
C 	C 	0.20259 0.67733 0.31373 0.11500
C 	C 	0.13775 0.66702 0.30479 -0.08000
C 	C 	0.14272 0.72146 0.30684 0.01100
C 	C 	0.20799 0.78717 0.30932 0.12400
C 	C 	0.27208 0.79925 0.31364 -0.09000
C 	C 	0.26847 0.74159 0.31996 0.02600
O 	O 	0.20423 0.63679 0.29892 -0.19300
C 	C 	0.27719 0.68344 0.29623 0.10400
C 	C 	0.31573 0.74609 0.30835 -0.08500
O 	O 	0.20039 0.84139 0.28808 -0.18600
C 	C 	0.12457 0.80260 0.27084 0.04900
H 	H 	0.32176 0.85222 0.30909 0.07700
H 	H 	0.36496 0.79479 0.29611 0.06900
C 	C 	0.87297 0.22957 0.50722 0.12100
C 	C 	0.88677 0.28831 0.51036 -0.09200
C 	C 	0.82748 0.28919 0.49703 0.02400
C 	C 	0.75679 0.23019 0.48819 0.11600
C 	C 	0.74298 0.17021 0.48734 -0.08200
C 	C 	0.80222 0.17313 0.49339 0.01100
O 	O 	0.92183 0.21228 0.53582 -0.19400
C 	C 	0.87381 0.13995 0.53934 0.04700
C 	C 	0.80279 0.11654 0.51341 -0.05300
O 	O 	0.70806 0.22604 0.49999 -0.19400
C 	C 	0.75631 0.28775 0.51710 0.10400
C 	C 	0.82738 0.32567 0.51547 -0.08500
H 	H 	0.94112 0.32900 0.52690 0.06900
H 	H 	0.68877 0.12120 0.48644 0.07400
H 	H 	0.75590 0.06287 0.52326 0.06300
H 	H 	0.87445 0.36195 0.53958 0.06600
C 	C 	0.82117 0.54970 0.56059 0.11600
C 	C 	0.80602 0.59948 0.53207 -0.08400
C 	C 	0.80210 0.62654 0.55931 0.01600
C 	C 	0.81547 0.60684 0.61307 0.12000
C 	C 	0.82692 0.55429 0.64126 -0.09000
C 	C 	0.83281 0.52898 0.61402 0.02200
O 	O 	0.80127 0.50228 0.53850 -0.19700
C 	C 	0.79989 0.45010 0.58382 0.10000
C 	C 	0.81840 0.46545 0.62904 -0.08700
O 	O 	0.84416 0.65859 0.63504 -0.18400
C 	C 	0.85053 0.71248 0.58988 0.04800
C 	C 	0.82319 0.69278 0.54460 -0.05200
H 	H 	0.79728 0.61645 0.49001 0.07500
H 	H 	0.83605 0.53741 0.68334 0.07100
H 	H 	0.80157 0.42647 0.66467 0.06300
H 	H 	0.83984 0.72960 0.50841 0.07600
C 	C 	0.47622 0.13537 0.60300 0.11700
C 	C 	0.40436 0.11054 0.57485 -0.08300
C 	C 	0.36596 0.11918 0.58767 0.01600
C 	C 	0.39533 0.14642 0.62924 0.12100
C 	C 	0.46708 0.17099 0.65758 -0.08900
C 	C 	0.50581 0.16292 0.64451 0.02400
O 	O 	0.52766 0.15789 0.58115 -0.19200
C 	C 	0.59069 0.20367 0.61211 0.10300
C 	C 	0.57819 0.20638 0.65029 -0.08500
O 	O 	0.34370 0.12455 0.65055 -0.18100
C 	C 	0.28077 0.08020 0.61859 0.04500
C 	C 	0.29353 0.07700 0.58091 -0.05400
H 	H 	0.38030 0.08806 0.54259 0.07800
H 	H 	0.49111 0.19354 0.68979 0.07400
H 	H 	0.61491 0.25010 0.66835 0.06600
H 	H 	0.25637 0.03346 0.56258 0.05700
C 	C 	0.82454 0.20192 0.99645 0.10800
C 	C 	0.84281 0.26589 0.99403 -0.09000
C 	C 	0.80552 0.26317 0.01769 0.02100
C 	C 	0.74710 0.20051 0.03727 0.11800
C 	C 	0.72587 0.13661 0.03714 -0.08900
C 	C 	0.76549 0.13861 0.01606 0.02200
O 	O 	0.87676 0.19695 0.00075 -0.17900
C 	C 	0.84683 0.12644 0.02821 0.04900
C 	C 	0.77908 0.09078 0.03535 -0.06300
O 	O 	0.70102 0.20687 0.04166 -0.19900
C 	C 	0.73785 0.27992 0.02254 0.10000
C 	C 	0.79996 0.31406 0.00759 -0.07800
H 	H 	0.88856 0.31578 0.97840 0.06900
H 	H 	0.68071 0.08694 0.05355 0.07200
H 	H 	0.75634 0.04399 0.06637 0.05600
H 	H 	0.82386 0.36430 0.97947 0.06100
C 	C 	0.81980 0.55057 0.06578 0.11400
C 	C 	0.84514 0.57160 0.11068 -0.08200
C 	C 	0.82555 0.61003 0.10933 0.01200
C 	C 	0.78420 0.62861 0.06464 0.12300
C 	C 	0.75689 0.60531 0.02040 -0.08100
C 	C 	0.77880 0.56933 0.02132 0.03400
O 	O 	0.81237 0.49327 0.06752 -0.19900
C 	C 	0.76149 0.47853 0.02020 0.11100
C 	C 	0.74122 0.52367 0.99247 -0.09700
O 	O 	0.79713 0.68996 0.06052 -0.16500
C 	C 	0.85354 0.70940 0.10490 0.04600
C 	C 	0.86879 0.66053 0.13508 -0.05500
H 	H 	0.87859 0.55818 0.14560 0.06800
H 	H 	0.72379 0.61898 0.98530 0.07700
H 	H 	0.69030 0.51083 0.96393 0.07300
H 	H 	0.92090 0.67328 0.16167 0.05200
C 	C 	0.43510 0.21866 0.02334 0.11900
C 	C 	0.40405 0.21744 0.05157 -0.08100
C 	C 	0.37690 0.15927 0.09347 0.01300
C 	C 	0.37567 0.10232 0.10473 0.12300
C 	C 	0.40401 0.10234 0.07525 -0.08900
C 	C 	0.43149 0.16051 0.03346 0.02700
O 	O 	0.49163 0.28130 0.00030 -0.19100
C 	C 	0.52304 0.25568 0.99913 0.09600
C 	C 	0.48647 0.18361 0.01773 -0.07600
O 	O 	0.32365 0.04035 0.13169 -0.18300
C 	C 	0.29184 0.06484 0.13382 0.04800
C 	C 	0.32330 0.13579 0.11127 -0.05200
H 	H 	0.40487 0.26202 0.04307 0.07500
H 	H 	0.40327 0.05774 0.08392 0.07500
H 	H 	0.51120 0.15656 0.03330 0.07200
H 	H 	0.29560 0.15998 0.09554 0.06200
