data_crystal

_cell_length_a 24.21048
_cell_length_b 23.57511
_cell_length_c 32.01650
_cell_angle_alpha 95.57037
_cell_angle_beta  95.56354
_cell_angle_gamma 125.55183

_symmetry_space_group_name_	'P 1'
_symmetry_space_group_name_H-M	'P 1'

loop_
_symmetry_equiv_pos_as_xyz
  x,y,z

loop_
_atom_site_label
_atom_site_type_symbol
_atom_site_fract_x
_atom_site_fract_y
_atom_site_fract_z
_atom_site_charge
N 	N 	0.05868 0.09763 0.96321 -0.13000
C 	C 	0.08815 0.06379 0.95714 0.09700
N 	N 	0.06202 0.00154 0.97075 -0.12400
C 	C 	0.00780 0.98223 0.50330 0.07000
C 	C 	0.17637 0.09258 0.48084 0.07400
C 	C 	0.21062 0.10708 0.44604 -0.08200
C 	C 	0.23639 0.04705 0.51070 -0.08600
C 	C 	0.18961 0.06368 0.51275 0.01900
N 	N 	0.11182 0.07406 0.47776 -0.16500
C 	C 	0.08317 0.03251 0.50696 0.06400
C 	C 	0.12998 0.02483 0.52933 -0.06600
H 	H 	0.20058 0.12973 0.42118 0.05200
H 	H 	0.24647 0.02441 0.53554 0.05400
H 	H 	0.11549 0.98011 0.54454 0.04500
H 	H 	0.08338 0.07198 0.45012 0.08700
H 	H 	0.03549 0.19648 0.95816 0.04800
C 	C 	0.24916 0.11327 0.93047 0.02100
C 	C 	0.26140 0.17828 0.94408 0.07100
N 	N 	0.20174 0.16820 0.94872 -0.16300
C 	C 	0.15153 0.09732 0.93893 0.05500
C 	C 	0.17908 0.06166 0.92694 -0.07400
H 	H 	0.15636 0.00700 0.92951 0.05500
H 	H 	0.19898 0.20367 0.96902 0.08700
C 	C 	0.32565 0.23574 0.96856 -0.08200
H 	H 	0.33576 0.28664 0.97878 0.05100
C 	C 	0.25688 0.08980 0.44377 0.01000
C 	C 	0.27076 0.06179 0.47596 0.07700
N 	N 	0.33548 0.08079 0.47901 -0.15300
C 	C 	0.36322 0.12097 0.44906 0.00000
C 	C 	0.31586 0.12767 0.42647 -0.04500
H 	H 	0.32998 0.17191 0.41086 0.04900
H 	H 	0.36431 0.08331 0.50662 0.09000
C 	C 	0.36203 0.15893 0.96843 0.07800
C 	C 	0.29932 0.10255 0.94233 -0.08900
C 	C 	0.37459 0.22401 0.98158 0.00900
N 	N 	0.42195 0.16751 0.96803 -0.15100
H 	H 	0.28945 0.05176 0.93214 0.05400
H 	H 	0.42700 0.13130 0.95074 0.08600
C 	C 	0.44551 0.27493 0.98905 -0.04700
H 	H 	0.47163 0.33098 0.98912 0.04500
C 	C 	0.47253 0.23793 0.97974 -0.00300
C 	C 	0.43833 0.17101 0.45140 0.26100
O 	O 	0.46120 0.20481 0.41937 -0.38700
O 	O 	0.48029 0.18982 0.48798 -0.37300
C 	C 	0.54642 0.26883 0.98755 0.25600
H 	H 	0.51122 0.32077 0.72648 0.04400
O 	O 	0.56563 0.22699 0.98793 -0.35600
H 	H 	0.55874 0.33629 0.80704 0.03600
O 	O 	0.59313 0.33804 0.99561 -0.38300
Cu	Cu	0.55013 0.23850 0.40007 0.89400
H 	H 	0.56644 0.16660 0.44318 0.16600
S 	S 	0.54763 0.33438 0.64148 0.02000
H 	H 	0.60921 0.28523 0.91783 0.16900
C 	C 	0.56015 0.37090 0.72631 -0.05600
O 	O 	0.57572 0.28846 0.55576 -0.38800
Cu	Cu	0.57963 0.25872 0.49714 0.89700
C 	C 	0.60253 0.38806 0.80338 -0.02200
O 	O 	0.58685 0.21761 0.44546 -0.64000
O 	O 	0.59134 0.21527 0.35621 -0.38200
C 	C 	0.58069 0.39107 0.68771 -0.00200
C 	C 	0.60735 0.41353 0.76451 0.01400
C 	C 	0.61640 0.37794 0.61807 -0.07700
H 	H 	0.04261 0.87819 0.98483 0.08200
O 	O 	0.65632 0.30147 0.93024 -0.64200
O 	O 	0.66977 0.33565 0.85258 -0.41600
C 	C 	0.62887 0.34170 0.58457 0.28600
C 	C 	0.66536 0.42863 0.83270 -0.07500
Cu	Cu	0.66157 0.26086 0.98033 0.92700
C 	C 	0.68332 0.39837 0.86437 0.28600
O 	O 	0.61531 0.35149 0.42852 -0.38200
H 	H 	0.59810 0.11369 0.19874 0.04600
H 	H 	0.59583 0.13077 0.28334 0.04200
H 	H 	0.63144 0.47633 0.44502 0.04700
O 	O 	0.67000 0.31229 0.07686 -0.38000
Cu	Cu	0.68571 0.38698 0.04411 0.89400
C 	C 	0.67405 0.47386 0.76355 -0.00000
C 	C 	0.64973 0.44646 0.68669 0.01400
O 	O 	0.68253 0.23875 0.03282 -0.35600
C 	C 	0.65538 0.23456 0.36013 0.29000
C 	C 	0.64354 0.16852 0.20591 -0.05300
C 	C 	0.64133 0.18392 0.28370 -0.01900
Cu	Cu	0.70648 0.29907 0.88743 0.87000
C 	C 	0.69295 0.27359 0.07115 0.28500
O 	O 	0.68776 0.20174 0.95397 -0.37000
O 	O 	0.72294 0.43911 0.90157 -0.38800
C 	C 	0.66981 0.43903 0.64751 -0.02300
C 	C 	0.66378 0.21068 0.24629 0.01500
S 	S 	0.65360 0.17523 0.12285 0.03200
Cu	Cu	0.71971 0.40528 0.95576 0.89600
O 	O 	0.68268 0.32350 0.50381 -0.64300
C 	C 	0.69746 0.48792 0.72490 -0.05700
H 	H 	0.68404 0.61590 0.47464 0.05200
O 	O 	0.69044 0.35542 0.58773 -0.41700
S 	S 	0.72471 0.49236 0.80947 0.01400
O 	O 	0.70180 0.21835 0.52656 -0.43100
O 	O 	0.68884 0.23839 0.39665 -0.36300
C 	C 	0.68269 0.23469 0.32131 -0.06900
C 	C 	0.67948 0.50194 0.43318 -0.04700
H 	H 	0.71291 0.10540 0.96544 0.05400
O 	O 	0.73683 0.49083 0.04383 -0.38500
Cu	Cu	0.69444 0.28709 0.44982 0.92800
C 	C 	0.68034 0.39496 0.42495 0.25700
C 	C 	0.68417 0.19940 0.17508 -0.00200
H 	H 	0.71043 0.10946 0.53590 0.08300
O 	O 	0.73044 0.37042 0.00503 -0.63900
Cu	Cu	0.70711 0.29722 0.55388 0.87000
C 	C 	0.71099 0.25236 0.10849 -0.07100
H 	H 	0.70154 0.37427 0.50800 0.17000
C 	C 	0.72062 0.28209 0.25458 0.00200
H 	H 	0.72321 0.47050 0.64347 0.03900
C 	C 	0.74345 0.22992 0.93700 0.26200
H 	H 	0.73194 0.01076 0.53542 0.05500
C 	C 	0.71121 0.46983 0.42344 -0.00300
O 	O 	0.71935 0.37319 0.42564 -0.36500
S 	S 	0.74433 0.31047 0.30709 0.01700
C 	C 	0.73175 0.62272 0.47195 -0.08300
C 	C 	0.75250 0.13015 0.94616 -0.04500
H 	H 	0.75200 0.52599 0.72463 0.04300
C 	C 	0.74078 0.27187 0.18335 0.01800
O 	O 	0.76746 0.28807 0.92151 -0.43100
C 	C 	0.74579 0.22749 0.50206 0.26300
C 	C 	0.75585 0.30153 0.14587 -0.02400
C 	C 	0.73207 0.57407 0.44328 0.01000
O 	O 	0.78526 0.50385 0.98368 -0.37700
C 	C 	0.76188 0.31318 0.22429 -0.05600
H 	H 	0.77979 0.63362 0.06090 0.08800
N 	N 	0.75954 0.13991 0.52800 -0.15300
C 	C 	0.78785 0.52865 0.02323 0.26300
H 	H 	0.77889 0.38982 0.01657 0.16200
O 	O 	0.76023 0.26850 0.47363 -0.36900
C 	C 	0.77575 0.19324 0.93216 -0.00900
H 	H 	0.77788 0.04383 0.98571 0.05400
H 	H 	0.78961 0.35827 0.14677 0.03200
H 	H 	0.77232 0.75586 0.50048 0.08900
C 	C 	0.76834 0.04292 0.51570 -0.09200
C 	C 	0.78997 0.01413 0.48693 0.03300
C 	C 	0.78353 0.19694 0.50913 -0.01000
H 	H 	0.78811 0.93866 0.52238 0.05400
H 	H 	0.80610 0.36860 0.23136 0.04500
C 	C 	0.79528 0.68174 0.49608 0.07200
C 	C 	0.79505 0.11451 0.51816 0.07800
C 	C 	0.79986 0.96361 0.49458 -0.08600
N 	N 	0.78014 0.51918 0.42722 -0.15200
C 	C 	0.80648 0.12471 0.94741 0.01100
N 	N 	0.80864 0.74572 0.50712 -0.16300
C 	C 	0.79318 0.58265 0.43968 0.07600
C 	C 	0.81977 0.09036 0.97567 -0.08200
N 	N 	0.82936 0.64714 0.06127 -0.15200
C 	C 	0.83720 0.05555 0.46183 0.07200
C 	C 	0.83484 0.20841 0.48705 -0.04400
H 	H 	0.84066 0.76962 0.07166 0.05400
H 	H 	0.81667 0.50909 0.43296 0.08800
C 	C 	0.84245 0.60367 0.04194 -0.00000
C 	C 	0.84229 0.15582 0.49312 0.00900
H 	H 	0.84758 0.23516 0.46000 0.05400
N 	N 	0.84104 0.22615 0.92516 -0.15300
C 	C 	0.85287 0.97661 0.47375 0.05300
C 	C 	0.85626 0.68956 0.49315 0.02000
C 	C 	0.86278 0.12675 0.46374 -0.07900
C 	C 	0.86013 0.18477 0.93465 0.07500
N 	N 	0.86836 0.88870 0.49462 -0.13100
C 	C 	0.85647 0.64089 0.46440 -0.08900
N 	N 	0.87487 0.03212 0.45367 -0.15900
H 	H 	0.87250 0.01990 0.99649 0.09000
C 	C 	0.87774 0.79462 0.51099 0.05500
C 	C 	0.88522 0.77267 0.06492 -0.08800
H 	H 	0.87566 0.28075 0.92606 0.08300
C 	C 	0.88666 0.71385 0.06437 0.07800
C 	C 	0.88878 0.11673 0.98958 0.07400
C 	C 	0.89712 0.95515 0.48676 0.08900
H 	H 	0.89915 0.15897 0.44403 0.05400
H 	H 	0.01642 0.76372 0.00889 0.04500
H 	H 	0.89460 0.88721 0.03634 0.05600
C 	C 	0.90911 0.86854 0.50619 0.09500
C 	C 	0.90832 0.64234 0.03233 -0.04600
N 	N 	0.90748 0.07462 0.99797 -0.16400
C 	C 	0.90902 0.76155 0.50280 -0.07400
H 	H 	0.90415 0.64767 0.46167 0.05300
H 	H 	0.92386 0.62384 0.00693 0.04800
H 	H 	0.92386 0.06346 0.44570 0.09100
C 	C 	0.93768 0.88423 0.03729 -0.08000
C 	C 	0.94092 0.83343 0.05317 0.02300
C 	C 	0.92915 0.21166 0.94895 -0.08600
C 	C 	0.93683 0.71282 0.04714 0.00800
C 	C 	0.94246 0.17707 0.97701 0.01800
H 	H 	0.95730 0.78624 0.49129 0.05500
N 	N 	0.96680 0.00160 0.49076 -0.11600
C 	C 	0.98447 0.91028 0.00971 0.07600
N 	N 	0.97768 0.00736 0.99682 -0.11600
C 	C 	0.97257 0.10733 0.99053 0.06200
H 	H 	0.97102 0.25821 0.93890 0.05300
N 	N 	0.97889 0.91574 0.51110 -0.12800
C 	C 	0.98580 0.76941 0.02902 -0.07300
C 	C 	0.98996 0.83162 0.03494 0.07500
C 	C 	0.00298 0.06918 0.98265 0.08500
N 	N 	0.01692 0.87921 0.00900 -0.17000
C 	C 	0.99607 0.17121 0.97749 -0.06600
C 	C 	0.00734 0.97356 0.99099 0.06600
