data_crystal

_cell_length_a 26.17411
_cell_length_b 26.27309
_cell_length_c 26.34621
_cell_angle_alpha 95.48781
_cell_angle_beta  95.48734
_cell_angle_gamma 125.83855

_symmetry_space_group_name_	'P 1'
_symmetry_space_group_name_H-M	'P 1'

loop_
_symmetry_equiv_pos_as_xyz
  x,y,z

loop_
_atom_site_label
_atom_site_type_symbol
_atom_site_fract_x
_atom_site_fract_y
_atom_site_fract_z
_atom_site_charge
C 	C 	0.95975 0.01952 0.00836 0.15800
N 	N 	0.92554 0.95619 0.00989 -0.09800
C 	C 	0.95321 0.92595 0.00510 0.18800
N 	N 	0.01502 0.95905 0.99855 -0.08200
C 	C 	0.04947 0.02227 0.99713 0.17700
N 	N 	0.02171 0.05251 0.00161 -0.10600
C 	C 	0.94558 0.00831 0.43841 0.15500
N 	N 	0.01058 0.04992 0.44753 -0.09600
C 	C 	0.04645 0.02829 0.45271 0.18200
N 	N 	0.01717 0.96487 0.44981 -0.10500
C 	C 	0.95215 0.92282 0.44100 0.18100
N 	N 	0.91618 0.94457 0.43502 -0.08200
Cu	Cu	0.61955 0.22232 0.99818 0.92800
Cu	Cu	0.68811 0.23031 0.89810 0.88400
Cu	Cu	0.66959 0.32782 0.93337 0.90100
Cu	Cu	0.61741 0.34005 0.02676 0.91200
C 	C 	0.62452 0.26758 0.10374 0.28500
O 	O 	0.52452 0.18362 0.98668 -0.32600
C 	C 	0.66302 0.28728 0.82233 0.29000
O 	O 	0.67297 0.32233 0.00552 -0.63000
O 	O 	0.62347 0.23327 0.92490 -0.63700
O 	O 	0.65978 0.17720 0.00234 -0.33800
O 	O 	0.73968 0.24656 0.96201 -0.39900
O 	O 	0.59688 0.29289 0.08579 -0.35500
O 	O 	0.71846 0.42006 0.94712 -0.36900
C 	C 	0.70905 0.45278 0.98120 0.33300
C 	C 	0.50320 0.21302 0.96600 0.33500
O 	O 	0.54443 0.27223 0.96035 -0.38800
O 	O 	0.65853 0.42389 0.00395 -0.33400
O 	O 	0.62923 0.22875 0.07224 -0.33200
C 	C 	0.71745 0.20355 0.99181 0.31100
O 	O 	0.68085 0.33435 0.86052 -0.36700
O 	O 	0.65795 0.23623 0.83172 -0.39800
H 	H 	0.71680 0.34912 0.02673 0.18700
H 	H 	0.58150 0.20804 0.90089 0.19300
Cu	Cu	0.72694 0.33406 0.43067 0.92900
Cu	Cu	0.75098 0.30248 0.54405 0.88600
Cu	Cu	0.64510 0.32769 0.50878 0.91600
Cu	Cu	0.62282 0.35852 0.40633 0.90700
C 	C 	0.66677 0.31367 0.32543 0.28900
O 	O 	0.77893 0.42902 0.42742 -0.32400
C 	C 	0.67347 0.31089 0.60872 0.29000
O 	O 	0.63264 0.30136 0.43543 -0.63900
O 	O 	0.73351 0.35329 0.50694 -0.62900
O 	O 	0.74938 0.27252 0.42682 -0.36400
O 	O 	0.81309 0.31169 0.50679 -0.38300
O 	O 	0.65461 0.35412 0.34142 -0.34000
O 	O 	0.55742 0.29649 0.50837 -0.34000
C 	C 	0.52168 0.29782 0.47041 0.34000
C 	C 	0.76292 0.46463 0.44758 0.33300
O 	O 	0.70659 0.43734 0.46090 -0.38000
O 	O 	0.54771 0.33756 0.43773 -0.36900
O 	O 	0.70402 0.30646 0.35646 -0.33600
C 	C 	0.79477 0.27866 0.45964 0.34300
O 	O 	0.65944 0.34325 0.58374 -0.34900
O 	O 	0.68190 0.27184 0.58278 -0.41000
H 	H 	0.59742 0.25553 0.42209 0.17100
H 	H 	0.76645 0.39918 0.52191 0.17300
C 	C 	0.66720 0.30858 0.66351 -0.06700
C 	C 	0.61365 0.25396 0.67632 -0.00700
C 	C 	0.60951 0.24833 0.72836 0.03800
C 	C 	0.66029 0.29718 0.76819 -0.06200
C 	C 	0.71214 0.35334 0.75536 -0.01500
C 	C 	0.71586 0.35924 0.70331 0.04100
S 	S 	0.53956 0.18117 0.74314 0.01300
S 	S 	0.78264 0.42939 0.68848 -0.02500
H 	H 	0.76924 0.47217 0.68420 0.06800
H 	H 	0.54662 0.13367 0.74546 0.05300
H 	H 	0.57533 0.21566 0.64575 0.06400
H 	H 	0.75081 0.39148 0.78582 0.06300
C 	C 	0.63388 0.26871 0.15998 -0.05200
C 	C 	0.58177 0.24628 0.18547 -0.01100
C 	C 	0.59139 0.25688 0.23976 0.04300
C 	C 	0.65388 0.29074 0.26911 -0.05600
C 	C 	0.70531 0.30898 0.24361 -0.00200
C 	C 	0.69562 0.29811 0.18924 0.03500
S 	S 	0.52477 0.22698 0.27053 -0.01700
S 	S 	0.76157 0.32398 0.15840 0.02700
H 	H 	0.78804 0.38473 0.15003 0.05600
H 	H 	0.50181 0.16697 0.27887 0.05600
H 	H 	0.53390 0.22191 0.16303 0.07000
H 	H 	0.75331 0.33408 0.26604 0.07600
C 	C 	0.82765 0.61503 0.39438 -0.13400
C 	C 	0.85072 0.66005 0.44018 0.02400
C 	C 	0.85140 0.64179 0.48855 0.29000
C 	C 	0.82632 0.57835 0.49092 -0.05000
C 	C 	0.80147 0.53294 0.44513 -0.14000
C 	C 	0.80368 0.55190 0.39681 0.37500
C 	C 	0.87394 0.72622 0.43739 0.00600
F 	F 	0.87567 0.68531 0.53318 -0.40500
H 	H 	0.82470 0.56411 0.52836 0.09300
F 	F 	0.77948 0.50837 0.35220 -0.42900
H 	H 	0.82720 0.62868 0.35691 0.14100
C 	C 	0.92668 0.76502 0.41375 0.31200
C 	C 	0.94961 0.82801 0.41239 -0.08500
C 	C 	0.92117 0.85359 0.43570 -0.06400
C 	C 	0.86734 0.81425 0.45829 0.35100
C 	C 	0.84359 0.75070 0.45869 -0.11200
F 	F 	0.95669 0.74215 0.39319 -0.40700
H 	H 	0.99056 0.85752 0.39425 0.11900
F 	F 	0.83956 0.83813 0.48154 -0.39100
H 	H 	0.80228 0.72081 0.47635 0.13700
C 	C 	0.84582 0.06415 0.46610 -0.10900
C 	C 	0.86078 0.10522 0.43042 0.00100
C 	C 	0.89562 0.10663 0.39259 0.32200
C 	C 	0.91878 0.07032 0.39254 -0.09200
C 	C 	0.90757 0.03249 0.43038 -0.05000
C 	C 	0.86902 0.02777 0.46606 0.32200
C 	C 	0.84465 0.15047 0.43546 0.02400
F 	F 	0.90907 0.14503 0.35711 -0.40200
H 	H 	0.94794 0.07378 0.36453 0.13000
F 	F 	0.85728 0.99096 0.50260 -0.37600
H 	H 	0.81824 0.06222 0.49502 0.12000
C 	C 	0.78290 0.13044 0.41474 0.29300
C 	C 	0.76747 0.17319 0.42074 -0.05500
C 	C 	0.81355 0.23627 0.44780 -0.14600
C 	C 	0.87592 0.25669 0.46728 0.37600
C 	C 	0.89127 0.21389 0.46115 -0.14100
F 	F 	0.73767 0.06940 0.38926 -0.40600
H 	H 	0.71918 0.15675 0.40566 0.09700
F 	F 	0.92159 0.31792 0.49215 -0.42400
H 	H 	0.93928 0.22985 0.47669 0.13100
C 	C 	0.36410 0.23111 0.51422 -0.13600
C 	C 	0.32030 0.19140 0.46813 0.02400
C 	C 	0.34294 0.18787 0.42267 0.29100
C 	C 	0.40884 0.22363 0.42344 -0.05200
C 	C 	0.45264 0.26243 0.46971 -0.14000
C 	C 	0.43006 0.26633 0.51514 0.38200
C 	C 	0.25079 0.15289 0.46759 0.00600
F 	F 	0.30101 0.14900 0.37800 -0.40500
H 	H 	0.42591 0.22032 0.38828 0.08800
F 	F 	0.47199 0.30491 0.55989 -0.41900
H 	H 	0.34698 0.23450 0.54932 0.14000
C 	C 	0.22186 0.10236 0.49506 0.31200
C 	C 	0.15531 0.06297 0.49136 -0.08200
C 	C 	0.11696 0.07321 0.45974 -0.06900
C 	C 	0.14620 0.12467 0.43303 0.35300
C 	C 	0.21284 0.16457 0.43741 -0.11300
F 	F 	0.25811 0.09049 0.52429 -0.41000
H 	H 	0.13344 0.02397 0.51259 0.11800
F 	F 	0.10996 0.13452 0.40129 -0.40600
H 	H 	0.23493 0.20370 0.41632 0.13800
C 	C 	0.91112 0.76720 0.02878 -0.09900
C 	C 	0.84899 0.72475 0.99914 -0.01200
C 	C 	0.81960 0.74870 0.97408 0.33600
C 	C 	0.85304 0.81461 0.97731 -0.10300
C 	C 	0.91595 0.85709 0.00578 -0.03800
C 	C 	0.94441 0.83307 0.03237 0.32300
C 	C 	0.81470 0.65530 0.99471 0.01900
F 	F 	0.75881 0.70807 0.94642 -0.39600
H 	H 	0.83058 0.83259 0.95679 0.12800
F 	F 	0.00417 0.87361 0.06188 -0.36200
H 	H 	0.93370 0.74905 0.04883 0.12100
C 	C 	0.80256 0.61742 0.94722 0.30200
C 	C 	0.76937 0.55144 0.94311 -0.05000
C 	C 	0.74838 0.52282 0.98648 -0.14500
C 	C 	0.76230 0.56116 0.03437 0.38700
C 	C 	0.79503 0.62701 0.03830 -0.13700
F 	F 	0.82283 0.64458 0.90510 -0.39900
H 	H 	0.75898 0.52244 0.90601 0.10600
F 	F 	0.74451 0.53463 0.07714 -0.43400
H 	H 	0.80501 0.65612 0.07523 0.13200
C 	C 	0.86057 0.07000 0.05429 -0.11900
C 	C 	0.86248 0.10525 0.01678 0.02300
C 	C 	0.89925 0.11516 0.97814 0.29700
C 	C 	0.93267 0.08881 0.97646 -0.09600
C 	C 	0.92926 0.05195 0.01307 -0.05700
C 	C 	0.89374 0.04339 0.05250 0.34900
C 	C 	0.82441 0.13010 0.01700 0.00500
F 	F 	0.90132 0.14903 0.94153 -0.41700
H 	H 	0.95985 0.09564 0.94590 0.10800
F 	F 	0.89157 0.00950 0.08913 -0.41000
H 	H 	0.83291 0.06276 0.08455 0.13700
C 	C 	0.75719 0.08799 0.00300 0.32500
C 	C 	0.72173 0.11207 0.99813 -0.09600
C 	C 	0.75316 0.17834 0.00670 -0.10900
C 	C 	0.82010 0.22030 0.02339 0.36200
C 	C 	0.85549 0.19620 0.02852 -0.12200
F 	F 	0.72649 0.02389 0.99220 -0.42200
H 	H 	0.67014 0.07928 0.98544 0.10700
F 	F 	0.85093 0.28444 0.03373 -0.42500
H 	H 	0.90722 0.22893 0.04030 0.13300
C 	C 	0.22191 0.08260 0.01905 -0.11300
C 	C 	0.24148 0.10929 0.97477 -0.00500
C 	C 	0.19926 0.11185 0.93989 0.32600
C 	C 	0.13740 0.08651 0.94880 -0.08400
C 	C 	0.11719 0.05798 0.99227 -0.07600
C 	C 	0.16009 0.05704 0.02781 0.36300
C 	C 	0.30666 0.13556 0.96566 0.02600
F 	F 	0.21776 0.13779 0.89698 -0.39500
H 	H 	0.10453 0.08719 0.92107 0.11800
F 	F 	0.14149 0.03060 0.07051 -0.39200
H 	H 	0.25456 0.08137 0.04653 0.12600
C 	C 	0.35370 0.20191 0.97352 0.30000
C 	C 	0.41728 0.22696 0.97120 -0.05500
C 	C 	0.43470 0.18597 0.96141 -0.14300
C 	C 	0.38697 0.11941 0.95118 0.37700
C 	C 	0.32326 0.09442 0.95343 -0.14900
F 	F 	0.33823 0.24217 0.98540 -0.39600
H 	H 	0.45346 0.27833 0.97896 0.09500
F 	F 	0.40229 0.07902 0.93934 -0.43000
H 	H 	0.28699 0.04309 0.94672 0.12800
