data_crystal

_cell_length_a 17.71543
_cell_length_b 17.23565
_cell_length_c 45.74723
_cell_angle_alpha 90.72851
_cell_angle_beta  91.03207
_cell_angle_gamma 110.85185

_symmetry_space_group_name_	'P 1'
_symmetry_space_group_name_H-M	'P 1'

loop_
_symmetry_equiv_pos_as_xyz
  x,y,z

loop_
_atom_site_label
_atom_site_type_symbol
_atom_site_fract_x
_atom_site_fract_y
_atom_site_fract_z
_atom_site_charge
O 	O 	0.10651 0.90333 0.75306 -0.70100
Ni	Ni	0.12314 0.01005 0.77502 1.10200
O 	O 	0.15723 0.80403 0.71097 -0.37600
Ni	Ni	0.21118 0.90831 0.73845 1.07500
O 	O 	0.20266 0.99588 0.71021 -0.39700
O 	O 	0.21346 0.00822 0.80286 -0.37400
O 	O 	0.03357 0.00903 0.74653 -0.71200
O 	O 	0.11151 0.10852 0.79778 -0.34300
H 	H 	0.08247 0.85453 0.76548 0.15700
H 	H 	0.04671 0.06154 0.73578 0.16400
C 	C 	0.21578 0.07305 0.71930 0.28000
C 	C 	0.08496 0.78443 0.69852 0.31000
C 	C 	0.28259 0.00929 0.79274 0.30600
C 	C 	0.03983 0.10409 0.80672 0.26700
O 	O 	0.20553 0.08953 0.74721 -0.35300
O 	O 	0.29044 0.99976 0.76443 -0.39800
Ni	Ni	0.35763 0.72806 0.40564 1.10000
O 	O 	0.31593 0.64628 0.37139 -0.70500
Ni	Ni	0.21218 0.66232 0.36156 1.10500
O 	O 	0.45857 0.69695 0.40999 -0.34600
O 	O 	0.38168 0.55935 0.41461 -0.39600
O 	O 	0.41250 0.81197 0.37456 -0.38400
Ni	Ni	0.29108 0.53121 0.38210 1.06900
O 	O 	0.29161 0.86271 0.44315 -0.39600
O 	O 	0.21458 0.53327 0.41485 -0.39800
O 	O 	0.18330 0.58672 0.32549 -0.34500
O 	O 	0.24751 0.73201 0.39940 -0.70300
O 	O 	0.39886 0.81756 0.43788 -0.36600
O 	O 	0.12132 0.70597 0.35156 -0.34600
O 	O 	0.20782 0.83984 0.35813 -0.40200
Ni	Ni	0.25727 0.84888 0.40010 1.07400
H 	H 	0.35246 0.66035 0.35458 0.17200
H 	H 	0.21394 0.70509 0.41600 0.15300
C 	C 	0.14587 0.54382 0.40975 0.25900
O 	O 	0.37233 0.91963 0.38770 -0.38700
C 	C 	0.45313 0.61913 0.41301 0.24900
C 	C 	0.19190 0.51375 0.32659 0.28400
C 	C 	0.42743 0.89171 0.37767 0.32400
C 	C 	0.13475 0.78604 0.35209 0.28700
C 	C 	0.34919 0.83907 0.45460 0.25500
O 	O 	0.12959 0.56819 0.38411 -0.35200
O 	O 	0.19797 0.48081 0.35223 -0.39300
Ni	Ni	0.35191 0.68439 0.12892 1.10200
O 	O 	0.24992 0.62167 0.10434 -0.70000
Ni	Ni	0.16996 0.66438 0.12261 1.10300
O 	O 	0.41895 0.62944 0.10630 -0.35300
O 	O 	0.32730 0.49913 0.11337 -0.37700
O 	O 	0.37359 0.77117 0.09692 -0.37900
Ni	Ni	0.21122 0.50176 0.10746 1.07500
O 	O 	0.39454 0.81221 0.18722 -0.38400
O 	O 	0.19994 0.50950 0.15153 -0.39000
O 	O 	0.07706 0.60821 0.09387 -0.36500
O 	O 	0.26719 0.71155 0.15080 -0.69800
O 	O 	0.45432 0.75657 0.15194 -0.36700
O 	O 	0.10941 0.73734 0.13849 -0.35100
O 	O 	0.22243 0.85272 0.13483 -0.41000
Ni	Ni	0.31035 0.83044 0.16027 1.08200
H 	H 	0.25620 0.63710 0.08351 0.15500
H 	H 	0.25729 0.68042 0.16924 0.17900
C 	C 	0.13419 0.51655 0.16185 0.30300
O 	O 	0.39498 0.87836 0.12925 -0.38500
C 	C 	0.38979 0.54962 0.09946 0.24600
C 	C 	0.06327 0.53110 0.08481 0.24800
C 	C 	0.38500 0.84936 0.10232 0.27100
C 	C 	0.14598 0.81821 0.14142 0.29100
O 	O 	0.11046 0.57655 0.15274 -0.35300
O 	O 	0.09109 0.48172 0.10013 -0.38500
O 	O 	0.02410 0.19850 0.23652 -0.37100
O 	O 	0.07290 0.06490 0.23228 -0.37900
O 	O 	0.96577 0.05305 0.20111 -0.32400
Ni	Ni	0.03147 0.04671 0.27412 1.07300
O 	O 	0.05788 0.16986 0.28239 -0.40100
C 	C 	0.06301 0.22291 0.26158 0.31100
C 	C 	0.02718 0.03067 0.20889 0.28100
C 	C 	0.01423 0.46027 0.19349 -0.03600
C 	C 	0.07641 0.44673 0.17795 -0.06700
C 	C 	0.07361 0.36451 0.17344 0.10200
C 	C 	0.00596 0.29777 0.18169 -0.03500
C 	C 	0.94208 0.31083 0.19626 -0.06400
C 	C 	0.94633 0.39319 0.20200 0.11300
N 	N 	0.88026 0.40931 0.21482 -0.02100
H 	H 	0.01645 0.52313 0.19764 0.09000
N 	N 	0.13961 0.34824 0.16064 -0.02100
O 	O 	0.88953 0.44550 0.24044 -0.07600
O 	O 	0.81406 0.39637 0.19957 -0.08100
O 	O 	0.20233 0.35266 0.17674 -0.07600
C 	C 	0.04846 0.89772 0.20175 -0.02700
C 	C 	0.04970 0.97305 0.19022 -0.07600
C 	C 	0.07702 0.99457 0.16167 0.10200
C 	C 	0.10489 0.94137 0.14527 -0.02700
C 	C 	0.10662 0.86748 0.15728 -0.08300
C 	C 	0.07745 0.84524 0.18561 0.09100
N 	N 	0.08093 0.77143 0.19862 -0.01800
H 	H 	0.02729 0.88108 0.22371 0.04100
H 	H 	0.12747 0.95876 0.12353 0.06400
N 	N 	0.07927 0.07163 0.14966 -0.02000
O 	O 	0.15052 0.76567 0.20510 -0.13400
O 	O 	0.01477 0.71349 0.20649 -0.08100
O 	O 	0.12496 0.14156 0.16188 -0.07300
O 	O 	0.04064 0.07193 0.12523 -0.08900
C 	C 	0.06443 0.36553 0.26939 -0.02900
C 	C 	0.10741 0.31143 0.26741 -0.07800
C 	C 	0.18826 0.33820 0.27760 0.10400
C 	C 	0.22005 0.41186 0.29427 -0.03000
C 	C 	0.17187 0.45897 0.30049 -0.07100
C 	C 	0.09643 0.43950 0.28585 0.10200
N 	N 	0.05034 0.49220 0.28898 -0.02400
H 	H 	0.00361 0.34709 0.26024 0.05100
H 	H 	0.28030 0.42962 0.30393 0.04900
N 	N 	0.23691 0.28877 0.27214 -0.02400
O 	O 	0.06814 0.55946 0.27384 -0.06400
O 	O 	0.98667 0.46954 0.30509 -0.07100
O 	O 	0.23894 0.25920 0.24598 -0.08000
O 	O 	0.28101 0.27535 0.29313 -0.10500
C 	C 	0.05256 0.86579 0.37046 -0.04600
C 	C 	0.06659 0.81514 0.34861 -0.07800
C 	C 	0.01533 0.79316 0.32356 0.08300
C 	C 	0.95747 0.83031 0.31910 -0.02200
C 	C 	0.95411 0.89263 0.33848 -0.08600
C 	C 	0.99487 0.90306 0.36578 0.11300
N 	N 	0.98253 0.95701 0.38782 -0.02000
H 	H 	0.08760 0.87765 0.39078 0.02900
N 	N 	0.02539 0.73770 0.30170 -0.02500
O 	O 	0.91003 0.95580 0.39279 -0.08900
O 	O 	0.04360 0.00676 0.40313 -0.11400
O 	O 	0.96541 0.67002 0.29458 -0.05900
O 	O 	0.09136 0.75903 0.28684 -0.08700
C 	C 	0.36335 0.84501 0.48644 0.00500
C 	C 	0.43738 0.85550 0.49984 -0.04500
H 	H 	0.55968 0.94322 0.53899 0.06200
H 	H 	0.49338 0.86895 0.48831 0.06500
C 	C 	0.07696 0.54280 0.50973 -0.08300
C 	C 	0.05744 0.53701 0.47979 0.01600
C 	C 	0.01027 0.46195 0.46663 0.06800
C 	C 	0.97815 0.39023 0.48324 -0.07300
N 	N 	0.02958 0.46002 0.43837 -0.14800
C 	C 	0.08890 0.53351 0.43343 0.00500
C 	C 	0.10815 0.58277 0.45873 -0.05200
H 	H 	0.94074 0.33176 0.47306 0.06300
H 	H 	0.16676 0.63012 0.46344 0.03400
H 	H 	0.02085 0.40546 0.42628 0.09400
C 	C 	0.57867 0.53030 0.44918 0.08300
C 	C 	0.56976 0.46781 0.46966 -0.08100
N 	N 	0.52189 0.52424 0.42847 -0.15200
C 	C 	0.52499 0.60232 0.42318 0.01500
H 	H 	0.52732 0.40529 0.46556 0.05900
H 	H 	0.47068 0.47098 0.42461 0.08900
C 	C 	0.30449 0.22155 0.71330 -0.02700
C 	C 	0.26250 0.14296 0.70047 -0.06100
C 	C 	0.27805 0.12830 0.67110 0.09200
C 	C 	0.34646 0.18363 0.65771 -0.02300
C 	C 	0.39774 0.25423 0.67308 -0.07600
C 	C 	0.37308 0.27671 0.69996 0.10900
N 	N 	0.41811 0.35491 0.71392 -0.02200
H 	H 	0.28601 0.23853 0.73411 0.08700
H 	H 	0.36167 0.16965 0.63591 0.07000
N 	N 	0.22363 0.05898 0.65465 -0.01700
O 	O 	0.43914 0.42279 0.69900 -0.08600
O 	O 	0.14646 0.04518 0.65418 -0.10200
O 	O 	0.25161 0.01234 0.63890 -0.09300
O 	O 	0.17907 0.74782 0.64737 -0.08700
C 	C 	0.91257 0.49996 0.02999 0.08100
N 	N 	0.93750 0.51907 0.05798 -0.14400
C 	C 	0.00075 0.49372 0.06224 0.00600
C 	C 	0.01623 0.45750 0.03688 -0.06200
H 	H 	0.83607 0.57308 0.02444 0.06200
H 	H 	0.92792 0.56618 0.07027 0.10900
C 	C 	0.49077 0.09279 0.04165 -0.08300
C 	C 	0.43217 0.01972 0.05164 0.02700
C 	C 	0.40154 0.94920 0.03353 0.07600
N 	N 	0.37827 0.88027 0.04965 -0.15200
C 	C 	0.39420 0.90622 0.07784 0.00500
C 	C 	0.42782 0.99228 0.08009 -0.05100
H 	H 	0.52526 0.14226 0.05670 0.06500
H 	H 	0.46568 0.02665 0.09823 0.06500
H 	H 	0.37246 0.82109 0.04185 0.09000
C 	C 	0.53055 0.55691 0.01205 -0.08500
C 	C 	0.50324 0.52053 0.03897 0.01600
N 	N 	0.39804 0.44173 0.06492 -0.15200
C 	C 	0.43422 0.51516 0.07928 0.01100
C 	C 	0.50030 0.56534 0.06389 -0.04400
H 	H 	0.57962 0.61626 0.01110 0.05900
H 	H 	0.52410 0.63258 0.06543 0.06200
H 	H 	0.33738 0.40432 0.06720 0.07900
N 	N 	0.04462 0.11342 0.87044 -0.02500
O 	O 	0.11849 0.11574 0.86817 -0.08800
O 	O 	0.99693 0.06369 0.88894 -0.09500
C 	C 	0.48169 0.16226 0.82169 -0.02700
C 	C 	0.49095 0.12560 0.84795 -0.07700
C 	C 	0.43308 0.04877 0.85566 0.10100
C 	C 	0.36571 0.01023 0.83717 -0.02000
C 	C 	0.35584 0.04772 0.81108 -0.07700
C 	C 	0.41371 0.12474 0.80355 0.10200
N 	N 	0.39933 0.16895 0.77920 -0.01900
H 	H 	0.32111 0.95123 0.84312 0.05600
N 	N 	0.44282 0.00951 0.88211 -0.01500
O 	O 	0.35640 0.21579 0.78243 -0.08700
O 	O 	0.43618 0.16958 0.75483 -0.10000
O 	O 	0.38659 0.99075 0.90148 -0.10400
O 	O 	0.50504 0.98709 0.88587 -0.11500
Ni	Ni	0.62855 0.30922 0.91142 1.09900
O 	O 	0.64615 0.36851 0.87192 -0.69800
Ni	Ni	0.75769 0.36861 0.86344 1.10000
O 	O 	0.53325 0.34169 0.92414 -0.35600
O 	O 	0.54889 0.45819 0.89845 -0.38400
O 	O 	0.54614 0.20351 0.89214 -0.35800
Ni	Ni	0.65571 0.48557 0.87579 1.07100
O 	O 	0.63090 0.13363 0.92482 -0.38300
O 	O 	0.72426 0.49990 0.91323 -0.41100
O 	O 	0.77757 0.43863 0.82671 -0.35800
O 	O 	0.73460 0.30219 0.90090 -0.71000
O 	O 	0.61891 0.24615 0.94919 -0.37300
O 	O 	0.86328 0.34680 0.85786 -0.34200
O 	O 	0.79827 0.20637 0.86003 -0.39700
Ni	Ni	0.71669 0.18483 0.89395 1.07000
H 	H 	0.60641 0.33876 0.85639 0.16500
H 	H 	0.77595 0.32604 0.91659 0.15700
C 	C 	0.79646 0.49422 0.91265 0.24400
O 	O 	0.63106 0.16935 0.86199 -0.40300
C 	C 	0.53502 0.41841 0.92325 0.26000
C 	C 	0.77434 0.51364 0.82763 0.29600
C 	C 	0.55908 0.16961 0.86777 0.30400
C 	C 	0.86567 0.27135 0.85874 0.28900
C 	C 	0.62070 0.17028 0.94939 0.25800
O 	O 	0.82309 0.47217 0.88831 -0.34400
O 	O 	0.75639 0.54320 0.85219 -0.39300
Ni	Ni	0.60765 0.35874 0.61774 1.10300
O 	O 	0.71227 0.37740 0.59548 -0.69800
Ni	Ni	0.76936 0.32353 0.62183 1.10300
O 	O 	0.56673 0.41814 0.58592 -0.34900
O 	O 	0.68291 0.53096 0.59016 -0.38800
O 	O 	0.56238 0.25087 0.59322 -0.37800
Ni	Ni	0.78158 0.49251 0.59080 1.07000
O 	O 	0.53922 0.27902 0.68042 -0.39200
O 	O 	0.79439 0.51540 0.63474 -0.40000
O 	O 	0.86172 0.33252 0.59471 -0.34600
O 	O 	0.67509 0.32325 0.64690 -0.70000
O 	O 	0.49895 0.33029 0.63890 -0.35600
O 	O 	0.79969 0.24207 0.64752 -0.35600
O 	O 	0.67070 0.14852 0.64528 -0.40700
Ni	Ni	0.60834 0.21824 0.66383 1.07600
H 	H 	0.70121 0.34836 0.57619 0.15600
H 	H 	0.69410 0.36616 0.66264 0.17800
C 	C 	0.84707 0.49433 0.64994 0.31200
O 	O 	0.51987 0.16901 0.63263 -0.38600
C 	C 	0.61648 0.48801 0.57536 0.25300
C 	C 	0.89573 0.40157 0.58016 0.24500
C 	C 	0.53337 0.17696 0.60463 0.27200
C 	C 	0.74833 0.16598 0.65053 0.28700
C 	C 	0.48242 0.29223 0.66435 0.31200
O 	O 	0.84978 0.41930 0.64693 -0.35200
O 	O 	0.88869 0.47212 0.58916 -0.39500
Ni	Ni	0.03105 0.91598 0.72004 1.10100
O 	O 	0.05878 0.84261 0.69008 -0.35500
O 	O 	0.93842 0.81452 0.73491 -0.35400
O 	O 	0.86225 0.92498 0.72769 -0.37400
O 	O 	0.95063 0.93217 0.69083 -0.34700
O 	O 	0.97804 0.03331 0.80470 -0.37800
Ni	Ni	0.92846 0.97840 0.76459 1.07300
O 	O 	0.92887 0.86808 0.77997 -0.40200
C 	C 	0.91934 0.80405 0.76255 0.30500
C 	C 	0.88747 0.94684 0.70086 0.28900
C 	C 	0.45516 0.79034 0.17826 0.30200
Ni	Ni	0.91503 0.10178 0.23243 1.11200
O 	O 	0.87153 0.14835 0.26755 -0.69700
Ni	Ni	0.85270 0.05215 0.29402 1.10300
O 	O 	0.87587 0.16328 0.20133 -0.35300
O 	O 	0.82393 0.24647 0.22635 -0.36200
Ni	Ni	0.76770 0.15789 0.25778 1.08200
O 	O 	0.74834 0.05368 0.23261 -0.39900
O 	O 	0.78237 0.08194 0.32370 -0.38100
O 	O 	0.91898 0.02270 0.26288 -0.70100
O 	O 	0.86561 0.96123 0.32006 -0.35600
O 	O 	0.00212 0.02779 0.31793 -0.40600
H 	H 	0.90983 0.20036 0.27646 0.17200
H 	H 	0.89334 0.96467 0.25558 0.17100
C 	C 	0.73001 0.97960 0.24446 0.27300
C 	C 	0.87550 0.23739 0.20733 0.30400
C 	C 	0.71005 0.08076 0.31605 0.30300
C 	C 	0.93964 0.96399 0.32608 0.30100
O 	O 	0.75071 0.97163 0.27213 -0.36300
O 	O 	0.69158 0.08604 0.28819 -0.38100
H 	H 	0.00417 0.23520 0.17729 0.08900
O 	O 	0.13329 0.32050 0.13380 -0.12700
C 	C 	0.60516 0.85040 0.18257 -0.02200
C 	C 	0.53046 0.81614 0.19619 -0.07100
C 	C 	0.52788 0.81766 0.22701 0.09900
C 	C 	0.59713 0.86461 0.24340 -0.02800
C 	C 	0.66913 0.90828 0.22930 -0.06400
C 	C 	0.67475 0.89535 0.19908 0.09300
N 	N 	0.75095 0.92866 0.18511 -0.02200
H 	H 	0.60865 0.84532 0.15903 0.07600
H 	H 	0.59362 0.87077 0.26690 0.07700
N 	N 	0.45506 0.77214 0.24168 -0.01900
O 	O 	0.81217 0.91057 0.19465 -0.11400
O 	O 	0.75800 0.97344 0.16193 -0.08800
O 	O 	0.41729 0.69379 0.23544 -0.10000
O 	O 	0.42898 0.80780 0.26240 -0.10000
C 	C 	0.50127 0.01470 0.34785 -0.01400
C 	C 	0.50345 0.95103 0.36629 -0.08300
C 	C 	0.57772 0.94055 0.37205 0.10600
C 	C 	0.64678 0.98777 0.35709 -0.03400
C 	C 	0.64319 0.04680 0.33674 -0.06100
C 	C 	0.57103 0.06361 0.33344 0.09300
N 	N 	0.56860 0.13070 0.31574 -0.02000
H 	H 	0.44513 0.02535 0.34425 0.06800
H 	H 	0.70261 0.97650 0.36067 0.08100
N 	N 	0.58348 0.88261 0.39333 -0.02200
O 	O 	0.51107 0.11834 0.29619 -0.09800
O 	O 	0.62113 0.20514 0.32034 -0.11000
O 	O 	0.61220 0.82550 0.38608 -0.09200
O 	O 	0.56888 0.89289 0.42058 -0.09800
H 	H 	0.92283 0.81872 0.29868 0.05100
C 	C 	0.35556 0.88574 0.53075 0.08100
C 	C 	0.34189 0.94127 0.55084 -0.07500
C 	C 	0.40525 0.98560 0.57019 0.01600
C 	C 	0.48272 0.98407 0.56680 0.08300
C 	C 	0.49826 0.93511 0.54467 -0.08000
C 	C 	0.43232 0.88142 0.52824 0.01900
N 	N 	0.31386 0.86328 0.50524 -0.15200
N 	N 	0.53819 0.05617 0.57658 -0.15000
C 	C 	0.49721 0.10465 0.58529 0.00300
C 	C 	0.41461 0.06227 0.58248 -0.02700
H 	H 	0.28635 0.95420 0.54987 0.06500
H 	H 	0.36937 0.09113 0.58215 0.05900
H 	H 	0.26553 0.88121 0.49894 0.09300
H 	H 	0.59944 0.07784 0.57152 0.08900
C 	C 	0.04316 0.47179 0.52656 0.06900
C 	C 	0.99545 0.39648 0.51345 0.03000
N 	N 	0.02075 0.47596 0.55429 -0.15700
C 	C 	0.95800 0.40486 0.55898 0.03100
C 	C 	0.94108 0.35361 0.53415 -0.05000
H 	H 	0.11455 0.60134 0.51983 0.06000
H 	H 	0.88211 0.30766 0.52883 0.05100
H 	H 	0.03139 0.53163 0.56593 0.09700
C 	C 	0.60997 0.49058 0.49681 0.01400
C 	C 	0.64954 0.57364 0.50470 0.07300
C 	C 	0.65173 0.63666 0.48528 -0.07800
C 	C 	0.62021 0.61345 0.45680 0.01700
C 	C 	0.58611 0.65943 0.44014 -0.03600
N 	N 	0.64917 0.58354 0.53393 -0.15700
C 	C 	0.60746 0.50824 0.54476 -0.00200
C 	C 	0.58364 0.44868 0.52242 -0.05600
H 	H 	0.67072 0.70078 0.49280 0.06200
H 	H 	0.58625 0.72014 0.44672 0.07000
H 	H 	0.53677 0.38800 0.52392 0.05800
H 	H 	0.66031 0.64008 0.54502 0.09300
C 	C 	0.73091 0.03375 0.67559 -0.02400
C 	C 	0.77805 0.09890 0.65822 -0.07900
C 	C 	0.85521 0.10174 0.64977 0.10200
C 	C 	0.88879 0.04733 0.66227 -0.02900
C 	C 	0.84470 0.98764 0.68212 -0.07800
C 	C 	0.76304 0.97665 0.68688 0.08700
N 	N 	0.71217 0.90650 0.70248 -0.01900
H 	H 	0.66966 0.02805 0.68068 0.05500
H 	H 	0.95005 0.05312 0.65715 0.07700
N 	N 	0.89835 0.15775 0.62784 -0.01800
O 	O 	0.66853 0.91700 0.72367 -0.10800
O 	O 	0.70583 0.83177 0.69436 -0.06900
O 	O 	0.97174 0.20858 0.63329 -0.08300
O 	O 	0.86659 0.15351 0.60173 -0.09600
O 	O 	0.43586 0.35862 0.74174 -0.08300
C 	C 	0.98302 0.64507 0.70628 -0.00700
C 	C 	0.04105 0.69886 0.68820 -0.08600
C 	C 	0.04137 0.67827 0.65833 0.09500
C 	C 	0.97882 0.60955 0.64628 -0.01100
C 	C 	0.91647 0.56028 0.66382 -0.07300
C 	C 	0.92009 0.57627 0.69422 0.10500
N 	N 	0.85949 0.52397 0.71284 -0.02300
H 	H 	0.98344 0.65991 0.72939 0.06000
H 	H 	0.97789 0.59561 0.62310 0.06100
N 	N 	0.10338 0.72926 0.63991 -0.01900
O 	O 	0.88074 0.49472 0.73641 -0.08600
O 	O 	0.78369 0.51241 0.70784 -0.09600
O 	O 	0.08424 0.75395 0.61503 -0.10200
C 	C 	0.87445 0.54485 0.01388 -0.08400
C 	C 	0.88951 0.55441 0.98395 0.01800
C 	C 	0.93915 0.51873 0.97034 0.07800
C 	C 	0.97558 0.47207 0.98631 -0.07400
C 	C 	0.96017 0.46195 0.01623 0.02300
N 	N 	0.91732 0.50268 0.94198 -0.15000
C 	C 	0.85311 0.52629 0.93748 0.01200
C 	C 	0.83385 0.55869 0.96308 -0.04700
H 	H 	0.01393 0.44384 0.97574 0.04400
H 	H 	0.07498 0.45558 0.03164 0.03400
H 	H 	0.77415 0.55857 0.96794 0.05100
H 	H 	0.92919 0.45757 0.92930 0.09200
C 	C 	0.50679 0.09689 0.01167 0.08300
C 	C 	0.42707 0.95052 0.00459 -0.08300
C 	C 	0.47474 0.02744 0.99354 0.02700
N 	N 	0.57418 0.15078 0.00025 -0.15200
C 	C 	0.58434 0.11759 0.97425 0.01400
C 	C 	0.52543 0.03879 0.97015 -0.04600
H 	H 	0.41403 0.89364 0.99185 0.06200
H 	H 	0.50919 0.00507 0.94948 0.07900
H 	H 	0.60070 0.21333 0.00654 0.09600
C 	C 	0.49261 0.51437 0.98638 0.07800
C 	C 	0.43939 0.44487 0.04027 0.07700
C 	C 	0.40314 0.40118 0.01454 -0.08400
C 	C 	0.42971 0.43824 0.98768 0.01300
N 	N 	0.53126 0.52022 0.96098 -0.15400
C 	C 	0.49422 0.44781 0.94618 0.01000
C 	C 	0.43094 0.39506 0.96215 -0.04100
H 	H 	0.35420 0.34172 0.01543 0.05900
H 	H 	0.40814 0.32793 0.95999 0.06500
H 	H 	0.59130 0.55861 0.95799 0.08300
C 	C 	0.97029 0.20897 0.86607 -0.00800
C 	C 	0.93854 0.25753 0.84895 -0.08400
C 	C 	0.96456 0.27523 0.82000 0.12300
C 	C 	0.01185 0.23427 0.80734 -0.06200
C 	C 	0.03072 0.17395 0.82299 -0.05600
C 	C 	0.01661 0.16713 0.85321 0.07600
H 	H 	0.95428 0.19903 0.88884 0.04300
H 	H 	0.02618 0.24274 0.78439 0.05800
N 	N 	0.93777 0.32940 0.80267 -0.02100
O 	O 	0.98997 0.39865 0.79364 -0.07400
O 	O 	0.86341 0.30476 0.79288 -0.09500
H 	H 	0.52566 0.22183 0.81591 0.04700
C 	C 	0.77414 0.59287 0.78283 -0.02900
C 	C 	0.81786 0.57344 0.80565 -0.06400
C 	C 	0.89949 0.62355 0.81091 0.10500
C 	C 	0.93391 0.69669 0.79531 -0.02400
C 	C 	0.88797 0.71983 0.77426 -0.08300
C 	C 	0.80890 0.66575 0.76701 0.10900
N 	N 	0.76211 0.68700 0.74481 -0.02200
H 	H 	0.71182 0.55366 0.77833 0.06300
H 	H 	0.99560 0.73696 0.80031 0.05000
N 	N 	0.94606 0.60293 0.83338 -0.02100
O 	O 	0.78370 0.69080 0.71769 -0.06300
O 	O 	0.69489 0.69675 0.75141 -0.08700
O 	O 	0.95673 0.53211 0.83229 -0.06700
O 	O 	0.98096 0.65657 0.85418 -0.09000
