data_crystal

_cell_length_a 20.12368
_cell_length_b 19.42930
_cell_length_c 25.15988
_cell_angle_alpha 97.24378
_cell_angle_beta  81.51821
_cell_angle_gamma 113.55997

_symmetry_space_group_name_	'P 1'
_symmetry_space_group_name_H-M	'P 1'

loop_
_symmetry_equiv_pos_as_xyz
  x,y,z

loop_
_atom_site_label
_atom_site_type_symbol
_atom_site_fract_x
_atom_site_fract_y
_atom_site_fract_z
_atom_site_charge
Ni	Ni	0.36948 0.63878 0.79047 1.09700
O 	O 	0.33959 0.71539 0.76225 -0.70300
Ni	Ni	0.29220 0.65624 0.69658 1.09900
O 	O 	0.44002 0.71539 0.84127 -0.37400
O 	O 	0.49696 0.79370 0.77417 -0.42300
O 	O 	0.28943 0.62367 0.85455 -0.37400
Ni	Ni	0.41598 0.81244 0.74348 1.06900
O 	O 	0.26770 0.47913 0.82547 -0.40700
O 	O 	0.45634 0.78773 0.66723 -0.39700
O 	O 	0.27693 0.73771 0.66069 -0.37600
O 	O 	0.31411 0.57755 0.72952 -0.70600
O 	O 	0.39029 0.55487 0.81531 -0.38800
O 	O 	0.23462 0.57650 0.64084 -0.36900
O 	O 	0.15875 0.49819 0.70468 -0.40800
Ni	Ni	0.22654 0.49884 0.76080 1.06400
H 	H 	0.30199 0.72577 0.78802 0.15200
H 	H 	0.34415 0.55558 0.70409 0.15500
C 	C 	0.44803 0.71931 0.64796 0.29900
O 	O 	0.19175 0.57462 0.80612 -0.42200
C 	C 	0.48949 0.77914 0.82467 0.30000
C 	C 	0.31836 0.81022 0.66677 0.31700
C 	C 	0.22113 0.61012 0.84982 0.30800
C 	C 	0.17944 0.51385 0.65378 0.29200
C 	C 	0.33678 0.49203 0.83043 0.29900
O 	O 	0.38250 0.66751 0.64340 -0.38100
O 	O 	0.34381 0.84128 0.71309 -0.42400
Ni	Ni	0.66131 0.36555 0.19870 1.10100
O 	O 	0.73220 0.34454 0.23852 -0.70100
Ni	Ni	0.66728 0.30186 0.30495 1.10000
O 	O 	0.74023 0.44292 0.15107 -0.37600
O 	O 	0.79855 0.50613 0.22393 -0.42300
O 	O 	0.66380 0.28314 0.13861 -0.37200
Ni	Ni	0.81962 0.42816 0.26050 1.06900
O 	O 	0.51535 0.24864 0.15882 -0.40800
O 	O 	0.78693 0.46659 0.33558 -0.40200
O 	O 	0.74104 0.30180 0.35440 -0.37400
O 	O 	0.59463 0.30936 0.25927 -0.70400
O 	O 	0.58312 0.37694 0.16248 -0.38300
O 	O 	0.58296 0.24354 0.35918 -0.37000
O 	O 	0.52717 0.15404 0.29377 -0.41000
Ni	Ni	0.52875 0.21346 0.22938 1.06500
H 	H 	0.74682 0.30493 0.21812 0.15600
H 	H 	0.56660 0.33845 0.27868 0.15600
C 	C 	0.72045 0.46224 0.35158 0.31900
O 	O 	0.61246 0.18599 0.19274 -0.42400
C 	C 	0.79485 0.49843 0.17174 0.30200
C 	C 	0.81311 0.33160 0.34379 0.31300
C 	C 	0.64573 0.21196 0.14651 0.31100
C 	C 	0.52913 0.18097 0.34469 0.29000
C 	C 	0.52459 0.31808 0.14938 0.29500
O 	O 	0.66377 0.39968 0.34338 -0.39400
O 	O 	0.84483 0.35524 0.29602 -0.42400
C 	C 	0.06189 0.55355 0.02462 -0.03100
H 	H 	0.09346 0.51844 0.02639 0.03500
C 	C 	0.07650 0.60920 0.98188 -0.00400
C 	C 	0.13178 0.61691 0.93588 0.04400
C 	C 	0.97976 0.52331 0.01817 -0.02900
H 	H 	0.94257 0.46294 0.01545 0.03500
C 	C 	0.99492 0.57906 0.97499 -0.02900
H 	H 	0.97136 0.56496 0.93589 0.03700
C 	C 	0.05333 0.61324 0.06901 -0.03000
H 	H 	0.07664 0.62710 0.10818 0.03100
C 	C 	0.97180 0.58310 0.06191 -0.00800
C 	C 	0.91090 0.56122 0.10425 0.04300
C 	C 	0.98621 0.63882 0.01924 -0.02800
H 	H 	0.95440 0.67369 0.01755 0.03600
C 	C 	0.06902 0.66940 0.02543 -0.03000
H 	H 	0.10650 0.72965 0.02781 0.03400
C 	C 	0.85862 0.53599 0.13657 -0.12900
C 	C 	0.17419 0.61680 0.89690 -0.11000
C 	C 	0.02851 0.39800 0.45346 -0.02900
H 	H 	0.05956 0.39739 0.41320 0.03400
C 	C 	0.94571 0.37658 0.46414 -0.00300
C 	C 	0.89687 0.35575 0.42155 0.04300
C 	C 	0.02409 0.35080 0.50016 -0.03100
H 	H 	0.05222 0.31169 0.49905 0.03300
C 	C 	0.94037 0.32893 0.51018 -0.02900
H 	H 	0.89879 0.27144 0.51663 0.03600
C 	C 	0.04021 0.46805 0.49360 -0.02900
H 	H 	0.08166 0.52558 0.48701 0.03900
C 	C 	0.03509 0.42063 0.53970 -0.00100
C 	C 	0.08581 0.44904 0.58130 0.03800
C 	C 	0.95229 0.39921 0.55041 -0.02900
H 	H 	0.92128 0.39995 0.59068 0.03700
C 	C 	0.95686 0.44635 0.50375 -0.02800
H 	H 	0.92887 0.48561 0.50494 0.03800
C 	C 	0.12823 0.47640 0.61482 -0.10200
C 	C 	0.85792 0.34253 0.38620 -0.10500
C 	C 	0.46610 0.04090 0.51115 -0.02900
H 	H 	0.52235 0.08147 0.51720 0.03900
C 	C 	0.42413 0.03746 0.46392 -0.00300
C 	C 	0.45700 0.08835 0.42054 0.03900
C 	C 	0.44104 0.95433 0.50401 -0.02800
H 	H 	0.47612 0.92266 0.50497 0.03900
C 	C 	0.39942 0.95144 0.45620 -0.02900
H 	H 	0.40071 0.91838 0.41699 0.03600
C 	C 	0.39709 0.03298 0.55048 -0.02900
H 	H 	0.39592 0.06607 0.58970 0.03400
C 	C 	0.37237 0.94697 0.54277 -0.00400
C 	C 	0.34780 0.89720 0.58696 0.04600
C 	C 	0.33016 0.94328 0.49563 -0.02900
H 	H 	0.27393 0.90255 0.48973 0.03600
C 	C 	0.35542 0.03031 0.50258 -0.03100
H 	H 	0.32054 0.06213 0.50151 0.03300
C 	C 	0.33200 0.85701 0.62345 -0.10800
C 	C 	0.48798 0.13056 0.38550 -0.10500
C 	C 	0.56092 0.04655 0.98006 -0.03100
H 	H 	0.53126 0.08427 0.98123 0.03500
C 	C 	0.61702 0.05473 0.01825 -0.00400
C 	C 	0.63411 0.11294 0.06294 0.04400
C 	C 	0.52516 0.96122 0.98762 -0.02900
H 	H 	0.46563 0.92758 0.99430 0.03400
C 	C 	0.58148 0.97004 0.02634 -0.02900
H 	H 	0.56878 0.94472 0.06564 0.03600
C 	C 	0.61264 0.03276 0.93181 -0.03000
H 	H 	0.62517 0.05798 0.89248 0.03200
C 	C 	0.57710 0.94810 0.93999 -0.00600
C 	C 	0.55048 0.88806 0.89752 0.04200
C 	C 	0.63324 0.95607 0.97809 -0.02800
H 	H 	0.66271 0.91817 0.97684 0.03700
C 	C 	0.66925 0.04191 0.97071 -0.03000
H 	H 	0.72875 0.07575 0.96424 0.03500
C 	C 	0.52455 0.83835 0.86368 -0.12400
C 	C 	0.64254 0.15923 0.10070 -0.11000
C 	C 	0.46608 0.41537 0.95527 -0.02800
H 	H 	0.51403 0.44731 0.92761 0.03900
C 	C 	0.38605 0.39730 0.94832 -0.00100
C 	C 	0.36495 0.42483 0.90431 0.03900
C 	C 	0.44453 0.33309 0.96873 -0.02900
H 	H 	0.47501 0.29689 0.95283 0.03600
C 	C 	0.36397 0.31524 0.96112 -0.03100
H 	H 	0.32782 0.26476 0.93827 0.03300
C 	C 	0.45143 0.43835 0.01556 -0.02800
H 	H 	0.48759 0.48902 0.03826 0.04000
C 	C 	0.42956 0.35642 0.02856 -0.00200
C 	C 	0.45787 0.33779 0.07304 0.03800
C 	C 	0.34944 0.33820 0.02179 -0.03100
H 	H 	0.30164 0.30632 0.04958 0.03300
C 	C 	0.37111 0.42057 0.00817 -0.02900
H 	H 	0.34074 0.45688 0.02411 0.03800
C 	C 	0.48567 0.32660 0.10869 -0.10000
C 	C 	0.35058 0.45258 0.86950 -0.09900
C 	C 	0.58064 0.57105 0.48192 -0.02800
H 	H 	0.54029 0.51902 0.46345 0.03700
C 	C 	0.66352 0.60200 0.46643 -0.00400
C 	C 	0.69332 0.55970 0.42453 0.04600
C 	C 	0.58234 0.65108 0.48167 -0.02900
H 	H 	0.54287 0.66565 0.46370 0.03800
C 	C 	0.66581 0.68185 0.46561 -0.02900
H 	H 	0.69586 0.72109 0.43374 0.03600
C 	C 	0.59368 0.58537 0.54192 -0.02900
H 	H 	0.56358 0.54577 0.57359 0.03400
C 	C 	0.59572 0.66514 0.54137 -0.00300
C 	C 	0.55067 0.69305 0.58186 0.04100
C 	C 	0.67870 0.69667 0.52622 -0.03000
H 	H 	0.71852 0.74876 0.54500 0.03600
C 	C 	0.67710 0.61596 0.52609 -0.02900
H 	H 	0.71647 0.60109 0.54391 0.03700
C 	C 	0.50679 0.70870 0.61332 -0.10500
C 	C 	0.70980 0.51821 0.39057 -0.10800
