data_crystal

_cell_length_a 23.82383
_cell_length_b 23.35995
_cell_length_c 49.05618
_cell_angle_alpha 89.79812
_cell_angle_beta  89.79978
_cell_angle_gamma 119.45577

_symmetry_space_group_name_	'P 1'
_symmetry_space_group_name_H-M	'P 1'

loop_
_symmetry_equiv_pos_as_xyz
  x,y,z

loop_
_atom_site_label
_atom_site_type_symbol
_atom_site_fract_x
_atom_site_fract_y
_atom_site_fract_z
_atom_site_charge
C 	C 	0.16125 0.07625 0.78328 0.31100
C 	C 	0.12419 0.04085 0.71045 0.33300
Ni	Ni	0.05306 0.95716 0.75869 1.10000
Ni	Ni	0.06796 0.10024 0.74691 1.12100
O 	O 	0.11696 0.01464 0.78819 -0.37000
O 	O 	0.15216 0.11479 0.76548 -0.36800
O 	O 	0.12922 0.00941 0.73160 -0.37200
O 	O 	0.08899 0.06956 0.71165 -0.37800
O 	O 	0.01943 0.01462 0.76257 -0.70700
H 	H 	0.02784 0.02645 0.78199 0.16200
C 	C 	0.02983 0.10702 0.18116 0.31400
C 	C 	0.05243 0.16805 0.25357 0.29600
C 	C 	0.02638 0.92646 0.20327 0.31700
C 	C 	0.04925 0.97811 0.27874 0.27600
Ni	Ni	0.06656 0.05549 0.22887 1.12400
O 	O 	0.07165 0.97518 0.21722 -0.39100
O 	O 	0.99758 0.12436 0.19785 -0.35500
O 	O 	0.05006 0.06669 0.18920 -0.37200
O 	O 	0.00595 0.92688 0.26459 -0.37900
O 	O 	0.08422 0.03693 0.26710 -0.35600
O 	O 	0.98851 0.13472 0.25479 -0.35800
O 	O 	0.08591 0.14955 0.23750 -0.37100
O 	O 	0.96563 0.90920 0.20690 -0.37900
C 	C 	0.08218 0.26620 0.07182 -0.03000
C 	C 	0.05490 0.21757 0.09206 -0.03200
C 	C 	0.09462 0.20311 0.10833 0.00100
C 	C 	0.07052 0.16854 0.13384 0.05000
C 	C 	0.05117 0.13973 0.15526 -0.09300
H 	H 	0.05184 0.28090 0.06087 0.04600
H 	H 	0.00366 0.19454 0.09630 0.04700
C 	C 	0.05258 0.78351 0.13630 -0.03300
C 	C 	0.07034 0.80073 0.16351 -0.00300
C 	C 	0.05470 0.84559 0.17705 0.04900
C 	C 	0.04205 0.88310 0.18873 -0.10300
H 	H 	0.02505 0.80209 0.12561 0.04300
C 	C 	0.20758 0.39209 0.28488 -0.03300
C 	C 	0.14132 0.35829 0.27955 0.00100
C 	C 	0.10434 0.38890 0.28443 -0.03300
C 	C 	0.11058 0.29090 0.27070 0.04500
C 	C 	0.08430 0.23447 0.26329 -0.08800
H 	H 	0.23685 0.36944 0.28053 0.04700
H 	H 	0.05336 0.36373 0.27974 0.04600
C 	C 	0.16911 0.97004 0.35957 -0.06900
C 	C 	0.10528 0.93387 0.35062 0.01400
C 	C 	0.06313 0.87392 0.36335 -0.04100
C 	C 	0.08667 0.84664 0.38255 -0.02600
C 	C 	0.08669 0.95165 0.32543 0.03200
C 	C 	0.06996 0.96542 0.30439 -0.08600
H 	H 	0.20169 0.01715 0.35030 0.07300
H 	H 	0.01326 0.84630 0.35702 0.04600
H 	H 	0.05489 0.79798 0.39073 0.04300
C 	C 	0.00727 0.45914 0.47800 -0.15200
C 	C 	0.97091 0.47057 0.45848 0.04200
C 	C 	0.00050 0.50331 0.43406 0.09100
C 	C 	0.06728 0.53072 0.43066 -0.02100
C 	C 	0.10487 0.52615 0.45163 -0.12700
C 	C 	0.07418 0.48716 0.47473 0.20900
H 	H 	0.09045 0.55978 0.41259 0.05200
O 	O 	0.10978 0.47862 0.49463 -0.28800
H 	H 	0.98431 0.43201 0.49648 0.08800
C 	C 	0.15877 0.04537 0.68579 -0.10300
C 	C 	0.10317 0.58458 0.95134 0.00300
C 	C 	0.09331 0.60931 0.97595 0.11800
C 	C 	0.14630 0.65124 0.99191 -0.03000
C 	C 	0.20855 0.66607 0.98389 -0.12500
C 	C 	0.21864 0.65206 0.95700 0.19300
C 	C 	0.16580 0.61038 0.94090 -0.11000
H 	H 	0.13830 0.66528 0.01197 0.05900
H 	H 	0.17370 0.59450 0.92122 0.07800
C 	C 	0.22521 0.09676 0.79273 -0.09200
C 	C 	0.61755 0.26074 0.87896 0.30500
C 	C 	0.62588 0.39007 0.95254 0.30900
C 	C 	0.69038 0.22875 0.96070 0.31200
Ni	Ni	0.69745 0.39905 0.89823 1.11400
Ni	Ni	0.74290 0.37774 0.95828 1.12500
Ni	Ni	0.74443 0.29287 0.90732 1.12200
O 	O 	0.61586 0.31326 0.88796 -0.37600
O 	O 	0.67234 0.25770 0.87821 -0.36800
O 	O 	0.68957 0.22152 0.93382 -0.38600
O 	O 	0.73477 0.38706 0.86111 -0.37000
O 	O 	0.72382 0.28734 0.97287 -0.36300
O 	O 	0.65191 0.42367 0.92948 -0.37100
O 	O 	0.65294 0.36074 0.96611 -0.36400
O 	O 	0.71314 0.34593 0.92246 -0.71800
H 	H 	0.66894 0.31172 0.92719 0.16200
C 	C 	0.49268 0.20362 0.56388 0.32500
C 	C 	0.67442 0.26083 0.61200 0.33100
C 	C 	0.53997 0.38029 0.55170 0.30300
C 	C 	0.66417 0.22709 0.52567 0.33700
Ni	Ni	0.59147 0.31718 0.59293 1.11500
Ni	Ni	0.59506 0.30250 0.52702 1.12300
O 	O 	0.60757 0.22388 0.52483 -0.39300
O 	O 	0.53814 0.22010 0.58176 -0.38100
O 	O 	0.50412 0.23951 0.54166 -0.37000
O 	O 	0.64387 0.29183 0.61983 -0.37000
O 	O 	0.68886 0.26040 0.58637 -0.38200
O 	O 	0.67294 0.35993 0.50224 -0.37300
O 	O 	0.52705 0.34192 0.57373 -0.35600
O 	O 	0.56836 0.37230 0.52970 -0.37400
O 	O 	0.63969 0.33602 0.56056 -0.71600
H 	H 	0.65293 0.38284 0.55804 0.16400
C 	C 	0.23986 0.77684 0.41506 0.30700
C 	C 	0.34152 0.63104 0.48049 0.33000
C 	C 	0.40858 0.82734 0.44310 0.32100
C 	C 	0.17356 0.57557 0.45280 0.30900
C 	C 	0.42120 0.68470 0.39545 0.33100
C 	C 	0.25851 0.60863 0.36832 0.31300
Ni	Ni	0.28329 0.71219 0.45966 1.11400
Ni	Ni	0.29666 0.60133 0.42430 1.12100
Ni	Ni	0.33718 0.74036 0.39738 1.12200
O 	O 	0.26008 0.77937 0.44066 -0.36500
O 	O 	0.26093 0.75527 0.39458 -0.37900
O 	O 	0.37268 0.62439 0.39862 -0.38100
O 	O 	0.30144 0.65282 0.48632 -0.36200
O 	O 	0.35998 0.63162 0.45534 -0.39000
O 	O 	0.30470 0.67180 0.36668 -0.37900
O 	O 	0.37985 0.78265 0.46213 -0.37300
O 	O 	0.37891 0.82359 0.42011 -0.37000
O 	O 	0.23956 0.57666 0.39179 -0.39200
O 	O 	0.18910 0.63577 0.46077 -0.37300
O 	O 	0.21823 0.55709 0.45026 -0.36800
O 	O 	0.41638 0.73450 0.40428 -0.39900
O 	O 	0.29079 0.67958 0.42550 -0.71500
H 	H 	0.24683 0.66311 0.41853 0.16000
C 	C 	0.39871 0.56627 0.05998 0.31800
C 	C 	0.20033 0.64190 0.09290 0.33200
C 	C 	0.23256 0.49268 0.04435 0.32800
C 	C 	0.37448 0.72027 0.11206 0.30500
C 	C 	0.25336 0.66951 0.00500 0.33500
C 	C 	0.42899 0.77202 0.02500 0.31000
Ni	Ni	0.29203 0.58797 0.08788 1.11500
Ni	Ni	0.31214 0.72221 0.05895 1.12100
Ni	Ni	0.33907 0.62264 0.02464 1.12200
O 	O 	0.35025 0.54539 0.07811 -0.37000
O 	O 	0.41073 0.61365 0.04210 -0.37600
O 	O 	0.28501 0.72295 0.01980 -0.38700
O 	O 	0.22794 0.61351 0.10605 -0.36800
O 	O 	0.21825 0.66301 0.06804 -0.39100
O 	O 	0.39922 0.71652 0.01042 -0.36600
O 	O 	0.22034 0.52704 0.06170 -0.38100
O 	O 	0.28517 0.52214 0.02926 -0.37700
O 	O 	0.40357 0.78068 0.04761 -0.39300
O 	O 	0.35840 0.65745 0.11389 -0.36700
O 	O 	0.33683 0.73933 0.09947 -0.37400
O 	O 	0.25965 0.61765 0.00920 -0.39600
O 	O 	0.32948 0.65112 0.05977 -0.71300
H 	H 	0.37489 0.67438 0.06548 0.16400
C 	C 	0.14930 0.30122 0.06817 -0.00400
C 	C 	0.16037 0.23138 0.10197 -0.03100
C 	C 	0.18759 0.28003 0.08175 -0.03000
C 	C 	0.17895 0.36778 0.05809 0.05300
C 	C 	0.20388 0.42352 0.04967 -0.11300
H 	H 	0.19118 0.21909 0.11393 0.04800
H 	H 	0.23933 0.30555 0.07855 0.04800
C 	C 	0.54487 0.84230 0.14829 -0.00300
C 	C 	0.60037 0.87405 0.13195 -0.03300
C 	C 	0.66104 0.89470 0.14328 -0.03100
C 	C 	0.61158 0.85760 0.18783 -0.03100
C 	C 	0.55091 0.83696 0.17648 -0.03300
C 	C 	0.48372 0.80162 0.13563 0.05000
C 	C 	0.43260 0.76762 0.12491 -0.10000
H 	H 	0.59621 0.87894 0.11017 0.04600
H 	H 	0.70352 0.91686 0.13032 0.04500
H 	H 	0.50830 0.81303 0.18932 0.04400
C 	C 	0.10934 0.72123 0.13602 -0.00600
C 	C 	0.07202 0.74377 0.12258 -0.03200
C 	C 	0.10505 0.77567 0.17731 -0.03300
C 	C 	0.12448 0.73596 0.16360 -0.03100
C 	C 	0.13980 0.69163 0.12068 0.05500
C 	C 	0.16560 0.66679 0.10806 -0.11200
H 	H 	0.06004 0.73249 0.10126 0.04300
H 	H 	0.11831 0.78821 0.19845 0.04500
H 	H 	0.15328 0.71866 0.17413 0.04500
C 	C 	0.56943 0.75015 0.34141 -0.00500
C 	C 	0.62764 0.75035 0.34576 -0.03000
C 	C 	0.68303 0.79389 0.33110 -0.03400
C 	C 	0.68041 0.83732 0.31198 0.00100
C 	C 	0.62149 0.83455 0.30652 -0.03500
C 	C 	0.56612 0.79097 0.32114 -0.03000
C 	C 	0.51809 0.72009 0.36125 0.05400
C 	C 	0.47284 0.69821 0.37681 -0.10900
H 	H 	0.63078 0.71914 0.36138 0.04500
H 	H 	0.72820 0.79482 0.33504 0.04700
H 	H 	0.61875 0.86695 0.29137 0.04300
H 	H 	0.52133 0.79117 0.31761 0.04200
C 	C 	0.19721 0.48155 0.30472 -0.00300
C 	C 	0.23555 0.45380 0.29729 -0.03100
C 	C 	0.13235 0.45062 0.29685 -0.03100
C 	C 	0.21882 0.52961 0.32611 0.05000
C 	C 	0.23824 0.56979 0.34406 -0.09800
H 	H 	0.28596 0.47774 0.30294 0.04600
H 	H 	0.10247 0.47202 0.30217 0.04400
C 	C 	0.15244 0.87909 0.38893 -0.01000
C 	C 	0.19260 0.94278 0.37879 -0.01800
C 	C 	0.18106 0.84179 0.39944 0.05000
C 	C 	0.20672 0.81209 0.40812 -0.09600
H 	H 	0.24325 0.96892 0.38407 0.03800
C 	C 	0.53202 0.00493 0.45476 -0.03500
C 	C 	0.57813 0.99802 0.47000 -0.07200
C 	C 	0.57296 0.93567 0.47276 0.14600
C 	C 	0.51886 0.88013 0.46254 -0.05100
C 	C 	0.47010 0.88651 0.44924 -0.10200
C 	C 	0.47788 0.94951 0.44460 0.14500
C 	C 	0.62365 0.05321 0.48706 0.05900
O 	O 	0.61870 0.92845 0.48689 -0.28400
H 	H 	0.51378 0.83185 0.46573 0.06800
O 	O 	0.43166 0.95689 0.43092 -0.27600
H 	H 	0.53604 0.05295 0.45233 0.05700
C 	C 	0.66852 0.11313 0.47482 0.09900
C 	C 	0.69195 0.17169 0.48953 -0.01800
C 	C 	0.66922 0.17052 0.51605 -0.13300
C 	C 	0.63403 0.10989 0.52966 0.21000
C 	C 	0.61167 0.05129 0.51516 -0.12900
O 	O 	0.68765 0.11475 0.44828 -0.25700
H 	H 	0.72275 0.21818 0.47947 0.05400
O 	O 	0.61830 0.10795 0.55672 -0.28500
H 	H 	0.57990 0.00487 0.52513 0.09600
H 	H 	0.40116 0.95504 0.44518 0.14700
H 	H 	0.65812 0.12380 0.43718 0.14900
H 	H 	0.57575 0.10602 0.55699 0.16400
H 	H 	0.65118 0.93326 0.47303 0.15200
H 	H 	0.12097 0.51491 0.50771 0.15500
C 	C 	0.42185 0.44508 0.55652 -0.10700
C 	C 	0.45032 0.49869 0.53841 0.00200
C 	C 	0.51123 0.51707 0.52700 0.11900
C 	C 	0.54203 0.48068 0.53300 -0.03700
C 	C 	0.51148 0.42406 0.54946 -0.11100
C 	C 	0.45124 0.40678 0.56158 0.19100
C 	C 	0.41301 0.53022 0.52875 0.00500
O 	O 	0.54036 0.57010 0.50965 -0.27400
H 	H 	0.58885 0.49525 0.52405 0.06500
O 	O 	0.42048 0.35203 0.57793 -0.28300
H 	H 	0.37535 0.43114 0.56566 0.08200
C 	C 	0.35796 0.49466 0.51254 0.11600
C 	C 	0.32969 0.52733 0.49934 -0.03000
C 	C 	0.35742 0.59581 0.50123 -0.12400
C 	C 	0.40975 0.63077 0.51886 0.19700
C 	C 	0.43665 0.59770 0.53294 -0.10900
O 	O 	0.33286 0.42830 0.50890 -0.27300
H 	H 	0.28878 0.49998 0.48610 0.05700
O 	O 	0.43563 0.69740 0.52186 -0.28800
H 	H 	0.47799 0.62515 0.54594 0.08300
H 	H 	0.39303 0.31558 0.56548 0.15600
H 	H 	0.35550 0.42408 0.49268 0.14500
H 	H 	0.46996 0.71752 0.50775 0.15700
H 	H 	0.52526 0.55211 0.49117 0.14700
C 	C 	0.22258 0.05856 0.63982 -0.01700
C 	C 	0.22740 0.10498 0.62041 -0.02200
C 	C 	0.27304 0.12424 0.59938 -0.03600
C 	C 	0.31437 0.09758 0.59786 0.00500
C 	C 	0.30411 0.04557 0.61531 -0.04600
C 	C 	0.25855 0.02636 0.63638 0.00700
C 	C 	0.37575 0.13436 0.58433 0.05100
C 	C 	0.42756 0.16420 0.57325 -0.10400
C 	C 	0.18802 0.05092 0.66494 0.06400
H 	H 	0.19863 0.12902 0.62256 0.04600
H 	H 	0.27979 0.16368 0.58569 0.04900
H 	H 	0.33499 0.02374 0.61397 0.05400
H 	H 	0.25402 0.98928 0.65092 0.01500
O 	O 	0.28012 0.67487 0.94725 -0.28500
H 	H 	0.29092 0.63987 0.95150 0.14900
C 	C 	0.57102 0.07370 0.99656 -0.12000
C 	C 	0.60166 0.03577 0.99379 0.03500
C 	C 	0.66600 0.06576 0.98466 0.12000
C 	C 	0.69771 0.13208 0.97674 -0.02900
C 	C 	0.66536 0.16865 0.97740 -0.11200
C 	C 	0.60246 0.13981 0.98820 0.19400
C 	C 	0.56517 0.96405 0.99920 -0.02500
O 	O 	0.69649 0.02932 0.98170 -0.25900
H 	H 	0.74618 0.15395 0.96844 0.06500
O 	O 	0.57116 0.17570 0.99009 -0.27900
H 	H 	0.52204 0.05133 0.00429 0.08200
C 	C 	0.57596 0.93769 0.02315 0.13000
C 	C 	0.53643 0.87096 0.02949 -0.03900
C 	C 	0.48384 0.83080 0.01283 -0.10900
C 	C 	0.47601 0.85612 0.98788 0.18500
C 	C 	0.51697 0.92241 0.98108 -0.10100
O 	O 	0.62423 0.97728 0.04067 -0.28500
H 	H 	0.54350 0.85169 0.04853 0.06000
O 	O 	0.42697 0.81688 0.97059 -0.27600
H 	H 	0.50955 0.94202 0.96222 0.06800
H 	H 	0.54779 0.16847 0.97263 0.15200
H 	H 	0.60404 0.99440 0.05362 0.14300
H 	H 	0.38984 0.82248 0.97608 0.15800
H 	H 	0.71971 0.03465 0.99907 0.16500
C 	C 	0.50978 0.37893 0.00745 -0.10800
C 	C 	0.51030 0.43861 0.00345 0.00300
C 	C 	0.53870 0.47588 0.97969 0.11700
C 	C 	0.57246 0.45714 0.96175 -0.03500
C 	C 	0.57678 0.40024 0.96697 -0.11400
C 	C 	0.54107 0.35860 0.98886 0.18900
C 	C 	0.48294 0.46319 0.02447 0.00500
O 	O 	0.53590 0.53222 0.97462 -0.27100
H 	H 	0.59750 0.48840 0.94444 0.06500
O 	O 	0.53862 0.29918 0.99264 -0.27100
H 	H 	0.48595 0.34875 0.02519 0.08500
C 	C 	0.41615 0.43044 0.02964 0.11700
C 	C 	0.38935 0.46068 0.04554 -0.03300
C 	C 	0.42829 0.52505 0.05495 -0.12000
C 	C 	0.49567 0.55445 0.05243 0.19400
C 	C 	0.52282 0.52327 0.03736 -0.10700
O 	O 	0.37679 0.36999 0.01843 -0.27500
H 	H 	0.33756 0.43655 0.04838 0.06300
O 	O 	0.53468 0.61592 0.06281 -0.28300
H 	H 	0.57459 0.54757 0.03435 0.08300
H 	H 	0.50063 0.26716 0.98214 0.15100
H 	H 	0.36346 0.37928 0.00056 0.14700
H 	H 	0.54522 0.60826 0.08154 0.15100
H 	H 	0.49597 0.51791 0.96392 0.14500
C 	C 	0.45748 0.15029 0.83423 0.00000
C 	C 	0.39998 0.10428 0.84700 -0.03100
C 	C 	0.34060 0.08948 0.83567 -0.03100
C 	C 	0.33849 0.11987 0.81132 0.00000
C 	C 	0.39572 0.16080 0.79718 -0.03100
C 	C 	0.45512 0.17562 0.80853 -0.03100
C 	C 	0.27746 0.10816 0.80075 0.04900
C 	C 	0.51470 0.18496 0.85036 0.04900
C 	C 	0.56355 0.21549 0.86317 -0.09200
H 	H 	0.40123 0.08382 0.86670 0.04800
H 	H 	0.29639 0.05614 0.84630 0.04900
H 	H 	0.39438 0.18274 0.77787 0.04600
H 	H 	0.49931 0.21048 0.79828 0.04600
H 	H 	0.77786 0.25631 0.77804 0.04600
C 	C 	0.78566 0.37943 0.86040 0.33400
O 	O 	0.65472 0.41270 0.60404 -0.37100
O 	O 	0.71666 0.28242 0.53145 -0.39300
C 	C 	0.66643 0.88422 0.17105 -0.00600
H 	H 	0.61565 0.85096 0.20947 0.04300
O 	O 	0.78657 0.47766 0.90680 -0.38300
C 	C 	0.69853 0.23306 0.63179 -0.10000
C 	C 	0.80743 0.36586 0.83525 -0.11000
H 	H 	0.79553 0.70920 0.91876 0.04700
C 	C 	0.79757 0.50784 0.93008 0.32200
C 	C 	0.85928 0.37974 0.93846 0.33300
O 	O 	0.83671 0.40791 0.95473 -0.38800
O 	O 	0.76827 0.47479 0.95241 -0.36700
O 	O 	0.80590 0.36640 0.88280 -0.39700
O 	O 	0.82252 0.31849 0.93075 -0.38000
C 	C 	0.71815 0.43838 0.60282 0.30700
C 	C 	0.73365 0.40238 0.50961 0.31800
Ni	Ni	0.72135 0.34121 0.56251 1.12100
O 	O 	0.74547 0.40251 0.59569 -0.37500
O 	O 	0.75065 0.41457 0.53548 -0.39500
C 	C 	0.93244 0.87829 0.72762 0.32800
C 	C 	0.95817 0.90505 0.80626 0.30800
C 	C 	0.94164 0.06922 0.72136 0.33200
C 	C 	0.97805 0.11919 0.78079 0.31600
Ni	Ni	0.92815 0.97761 0.76430 1.11200
O 	O 	0.91893 0.00694 0.72714 -0.38200
O 	O 	0.99515 0.91192 0.72560 -0.38300
O 	O 	0.90236 0.88733 0.74830 -0.37900
O 	O 	0.03948 0.13508 0.77825 -0.39000
O 	O 	0.93121 0.05689 0.78314 -0.36800
O 	O 	0.98552 0.88924 0.78628 -0.37100
O 	O 	0.92726 0.93802 0.80125 -0.37700
O 	O 	0.00346 0.11207 0.72398 -0.38700
C 	C 	0.84881 0.96014 0.27270 0.28700
C 	C 	0.84258 0.93472 0.20244 0.33200
Ni	Ni	0.93319 0.06122 0.22732 1.11900
Ni	Ni	0.93367 0.92590 0.24210 1.12000
O 	O 	0.85565 0.00703 0.25498 -0.34000
O 	O 	0.89241 0.94110 0.27505 -0.38300
O 	O 	0.88860 0.99381 0.19672 -0.39500
O 	O 	0.84867 0.90146 0.22281 -0.38100
O 	O 	0.97828 0.01912 0.23889 -0.70400
H 	H 	0.98348 0.03182 0.25823 0.16900
C 	C 	0.72811 0.90038 0.18225 0.05400
C 	C 	0.78000 0.91408 0.19143 -0.11200
C 	C 	0.73809 0.88363 0.29760 0.04200
C 	C 	0.78794 0.92112 0.28624 -0.09000
C 	C 	0.90517 0.45730 0.46549 -0.00400
O 	O 	0.96510 0.51280 0.41437 -0.25700
C 	C 	0.85176 0.39434 0.46185 0.12300
C 	C 	0.79167 0.37932 0.47294 -0.03300
C 	C 	0.78546 0.42566 0.48895 -0.11700
C 	C 	0.83726 0.49051 0.49014 0.19200
C 	C 	0.89673 0.50617 0.47827 -0.10500
O 	O 	0.85830 0.34728 0.44779 -0.27000
H 	H 	0.75122 0.33015 0.47083 0.06200
O 	O 	0.83003 0.53839 0.50318 -0.28500
H 	H 	0.93716 0.55552 0.48020 0.07800
H 	H 	0.86902 0.32341 0.46175 0.15100
H 	H 	0.84567 0.53971 0.52200 0.15700
H 	H 	0.94978 0.47421 0.40220 0.15600
C 	C 	0.74911 0.18012 0.66438 -0.00200
C 	C 	0.73565 0.11546 0.65957 -0.02900
C 	C 	0.77211 0.09111 0.67232 -0.02900
C 	C 	0.82210 0.13127 0.68998 -0.00300
C 	C 	0.83317 0.19461 0.69600 -0.03100
C 	C 	0.79669 0.21897 0.68324 -0.03100
C 	C 	0.86411 0.10882 0.70079 0.05600
C 	C 	0.89950 0.09042 0.70992 -0.10300
C 	C 	0.72196 0.20964 0.64680 0.05600
H 	H 	0.69883 0.08502 0.64508 0.05300
H 	H 	0.76273 0.04180 0.66784 0.05100
H 	H 	0.87125 0.22567 0.70990 0.04500
H 	H 	0.80727 0.26891 0.68716 0.04500
C 	C 	0.85134 0.71620 0.67982 -0.00400
C 	C 	0.82793 0.71708 0.65377 -0.03000
C 	C 	0.80875 0.66320 0.63654 -0.03200
C 	C 	0.81283 0.60820 0.64533 -0.00100
C 	C 	0.83743 0.60792 0.67119 -0.03200
C 	C 	0.85654 0.66174 0.68841 -0.03000
C 	C 	0.78192 0.54854 0.62993 0.04900
C 	C 	0.75590 0.49877 0.61689 -0.09500
C 	C 	0.87710 0.77390 0.69646 0.05400
C 	C 	0.89927 0.82127 0.71100 -0.10500
H 	H 	0.82491 0.75957 0.64680 0.04400
H 	H 	0.78924 0.66351 0.61665 0.04600
H 	H 	0.84015 0.56532 0.67822 0.04600
H 	H 	0.87567 0.66125 0.70837 0.04500
C 	C 	0.03389 0.46305 0.95124 -0.13300
C 	C 	0.05022 0.52427 0.93955 0.01300
C 	C 	0.00921 0.52835 0.92011 0.10900
C 	C 	0.94897 0.47339 0.91512 -0.01400
C 	C 	0.92766 0.41610 0.93096 -0.12900
C 	C 	0.97244 0.40900 0.94715 0.21500
O 	O 	0.02658 0.58665 0.90691 -0.27300
H 	H 	0.91572 0.47821 0.90154 0.06600
O 	O 	0.95474 0.35083 0.96052 -0.28500
H 	H 	0.06668 0.45884 0.96531 0.07800
O 	O 	0.03196 0.59011 0.98499 -0.27600
H 	H 	0.93808 0.35503 0.97854 0.15800
H 	H 	0.01945 0.55044 0.99639 0.14800
H 	H 	0.00937 0.60947 0.91839 0.14900
C 	C 	0.86387 0.33213 0.79709 -0.00200
C 	C 	0.82888 0.27528 0.78149 -0.03400
C 	C 	0.85739 0.23775 0.77372 -0.03000
C 	C 	0.92128 0.25796 0.78104 -0.00800
C 	C 	0.95907 0.32023 0.79243 -0.01500
C 	C 	0.93053 0.35771 0.80011 -0.03700
C 	C 	0.94387 0.21095 0.78136 0.05600
C 	C 	0.96110 0.17027 0.78134 -0.09800
C 	C 	0.83020 0.34906 0.81707 0.05500
H 	H 	0.82843 0.19074 0.76391 0.04400
H 	H 	0.00921 0.33742 0.79724 0.03400
H 	H 	0.95873 0.40306 0.81117 0.05100
C 	C 	0.92518 0.80748 0.87902 -0.00800
C 	C 	0.96851 0.78780 0.88857 -0.01500
C 	C 	0.94813 0.73703 0.90788 -0.03700
C 	C 	0.88398 0.70491 0.91714 0.00200
C 	C 	0.84448 0.73209 0.91097 -0.03400
C 	C 	0.86477 0.78284 0.89167 -0.02800
C 	C 	0.85395 0.63597 0.92381 0.05200
C 	C 	0.82875 0.57824 0.92941 -0.09900
C 	C 	0.93769 0.84261 0.85347 0.05100
C 	C 	0.94771 0.87197 0.83210 -0.09700
H 	H 	0.01618 0.80816 0.87958 0.03100
H 	H 	0.97997 0.71803 0.91329 0.05000
H 	H 	0.83166 0.79933 0.88509 0.04500
