data_crystal

_cell_length_a 25.02265
_cell_length_b 23.95452
_cell_length_c 45.24615
_cell_angle_alpha 95.48379
_cell_angle_beta  95.48260
_cell_angle_gamma 125.79676

_symmetry_space_group_name_	'P 1'
_symmetry_space_group_name_H-M	'P 1'

loop_
_symmetry_equiv_pos_as_xyz
  x,y,z

loop_
_atom_site_label
_atom_site_type_symbol
_atom_site_fract_x
_atom_site_fract_y
_atom_site_fract_z
_atom_site_charge
C 	C 	0.02943 0.05590 0.47387 -0.04300
C 	C 	0.04920 0.01279 0.46734 -0.00600
H 	H 	0.06602 0.11240 0.47746 0.04100
C 	C 	0.05617 0.08880 0.01792 -0.04300
C 	C 	0.07662 0.04607 0.01174 -0.00500
H 	H 	0.09308 0.14529 0.02355 0.04300
C 	C 	0.11835 0.04369 0.46299 0.07500
H 	H 	0.01806 0.90674 0.45980 0.04300
C 	C 	0.02851 0.97285 0.00485 -0.04700
H 	H 	0.04398 0.93962 0.00000 0.03800
H 	H 	0.14274 0.12793 0.43809 0.05200
H 	H 	0.14585 0.99237 0.48938 0.08100
C 	C 	0.14904 0.08842 0.44281 -0.08900
N 	N 	0.15034 0.01573 0.47048 -0.16900
C 	C 	0.14852 0.07830 0.01255 0.07400
H 	H 	0.16180 0.00294 0.02924 0.05200
C 	C 	0.00210 0.93983 0.46353 -0.04300
H 	H 	0.98983 0.14645 0.97936 0.05200
C 	C 	0.98820 0.05890 0.01693 -0.00700
Cu	Cu	0.63268 0.23035 0.00288 0.92700
Cu	Cu	0.67259 0.22573 0.93615 0.86700
Cu	Cu	0.66241 0.33678 0.96255 0.89500
Cu	Cu	0.64700 0.36767 0.02560 0.89300
C 	C 	0.66424 0.28614 0.06650 0.30800
O 	O 	0.53842 0.19664 0.00689 -0.35500
C 	C 	0.63956 0.29150 0.89679 0.30200
O 	O 	0.69068 0.33914 0.00402 -0.63800
O 	O 	0.61598 0.23403 0.95971 -0.64100
O 	O 	0.66657 0.17303 0.99842 -0.36500
O 	O 	0.73667 0.24066 0.96814 -0.43500
O 	O 	0.63742 0.31844 0.06022 -0.38800
O 	O 	0.71241 0.43728 0.96727 -0.37800
C 	C 	0.70326 0.47521 0.98613 0.26400
C 	C 	0.51378 0.22936 0.99799 0.25500
O 	O 	0.55446 0.29369 0.99321 -0.39000
O 	O 	0.69050 0.46096 0.01324 -0.38700
O 	O 	0.66368 0.24400 0.04521 -0.36500
C 	C 	0.71856 0.19398 0.98549 0.26500
O 	O 	0.64143 0.33295 0.91906 -0.38200
O 	O 	0.63030 0.23292 0.90082 -0.42200
H 	H 	0.73988 0.36766 0.01080 0.16500
H 	H 	0.56821 0.20507 0.94975 0.17400
Cu	Cu	0.72484 0.32047 0.46245 0.92900
Cu	Cu	0.71877 0.26435 0.52641 0.87000
Cu	Cu	0.62362 0.29335 0.50271 0.89600
Cu	Cu	0.61261 0.33891 0.44359 0.89300
C 	C 	0.67703 0.30583 0.39964 0.30600
O 	O 	0.77478 0.42402 0.46300 -0.35800
C 	C 	0.67034 0.31322 0.56823 0.30700
O 	O 	0.62318 0.27606 0.46034 -0.64000
O 	O 	0.72015 0.33217 0.50582 -0.64200
O 	O 	0.76305 0.26753 0.46337 -0.36900
O 	O 	0.69214 0.19485 0.49235 -0.43200
O 	O 	0.65600 0.34329 0.40799 -0.38600
O 	O 	0.52871 0.25048 0.49657 -0.37200
C 	C 	0.49588 0.25399 0.47307 0.25900
C 	C 	0.75474 0.45927 0.47515 0.25500
O 	O 	0.69212 0.42613 0.47864 -0.38100
O 	O 	0.52723 0.30576 0.45797 -0.38400
O 	O 	0.71149 0.29573 0.41949 -0.36400
C 	C 	0.73221 0.20785 0.47303 0.26300
O 	O 	0.62047 0.29283 0.54614 -0.38900
O 	O 	0.72094 0.31261 0.56312 -0.42100
H 	H 	0.59043 0.22635 0.45026 0.16300
H 	H 	0.75136 0.38081 0.51732 0.17200
C 	C 	0.64764 0.33625 0.65564 -0.01000
C 	C 	0.69266 0.39976 0.67605 -0.03100
C 	C 	0.68893 0.40323 0.70676 -0.04400
C 	C 	0.64026 0.34303 0.71723 0.00800
C 	C 	0.59345 0.28029 0.69652 -0.04400
C 	C 	0.59712 0.27699 0.66584 -0.03100
C 	C 	0.64228 0.34383 0.75001 0.00800
C 	C 	0.58565 0.32449 0.76245 -0.04400
C 	C 	0.58505 0.31757 0.79281 -0.03100
C 	C 	0.64107 0.33015 0.81089 -0.01000
C 	C 	0.69846 0.35190 0.79880 -0.03200
C 	C 	0.69909 0.35864 0.76847 -0.04400
C 	C 	0.63829 0.31631 0.84121 0.04400
C 	C 	0.63795 0.30529 0.86667 -0.11200
C 	C 	0.65667 0.33018 0.62484 0.04500
C 	C 	0.66306 0.32357 0.59893 -0.11200
H 	H 	0.73161 0.44592 0.66830 0.03700
H 	H 	0.72490 0.45210 0.72251 0.03900
H 	H 	0.55570 0.23353 0.70433 0.04000
H 	H 	0.56195 0.22779 0.65015 0.03700
H 	H 	0.54172 0.31344 0.74846 0.04000
H 	H 	0.54060 0.30105 0.80205 0.03900
H 	H 	0.74202 0.36192 0.81268 0.03400
H 	H 	0.74297 0.37340 0.75910 0.03900
C 	C 	0.68314 0.27232 0.31029 -0.00800
C 	C 	0.74426 0.29578 0.30153 -0.03100
C 	C 	0.74838 0.29174 0.27087 -0.04300
C 	C 	0.69134 0.26427 0.24880 0.00900
C 	C 	0.62970 0.23868 0.25761 -0.04300
C 	C 	0.62566 0.24268 0.28826 -0.03100
C 	C 	0.69705 0.26694 0.21671 0.00900
C 	C 	0.73723 0.33188 0.20762 -0.04300
C 	C 	0.73603 0.33510 0.17690 -0.03100
C 	C 	0.69465 0.27352 0.15506 -0.00800
C 	C 	0.65700 0.20840 0.16411 -0.03000
C 	C 	0.65821 0.20507 0.19484 -0.04300
C 	C 	0.68475 0.27768 0.12369 0.04500
C 	C 	0.67661 0.28141 0.09745 -0.10500
C 	C 	0.68051 0.28336 0.34181 0.04500
C 	C 	0.67849 0.29268 0.36822 -0.10400
H 	H 	0.78887 0.31853 0.31844 0.04000
H 	H 	0.79608 0.31119 0.26430 0.04100
H 	H 	0.58539 0.21748 0.24076 0.04100
H 	H 	0.57821 0.22431 0.29487 0.03700
H 	H 	0.76754 0.37994 0.22431 0.04000
H 	H 	0.76544 0.38563 0.17007 0.03700
H 	H 	0.62511 0.16052 0.14735 0.04000
H 	H 	0.62760 0.15464 0.20163 0.04100
N 	N 	0.78811 0.57604 0.49797 -0.15400
C 	C 	0.80038 0.53618 0.48121 -0.00300
H 	H 	0.74499 0.55608 0.50730 0.08600
C 	C 	0.77897 0.09459 0.47402 0.07500
C 	C 	0.80807 0.07564 0.49495 -0.09300
C 	C 	0.87280 0.09619 0.49358 0.02400
C 	C 	0.90614 0.13120 0.47118 0.06900
C 	C 	0.87674 0.14921 0.44995 -0.08200
C 	C 	0.81247 0.12991 0.45164 0.00800
N 	N 	0.73801 0.11090 0.48102 -0.15200
C 	C 	0.74591 0.15746 0.46379 -0.00700
C 	C 	0.79146 0.17013 0.44508 -0.04300
N 	N 	0.94876 0.11671 0.46490 -0.16900
C 	C 	0.94247 0.07214 0.48296 0.07400
C 	C 	0.89582 0.05831 0.50118 -0.09000
H 	H 	0.78198 0.04775 0.51226 0.05000
H 	H 	0.90287 0.17702 0.43263 0.05200
H 	H 	0.82105 0.21785 0.43613 0.05300
H 	H 	0.72214 0.10734 0.50178 0.07400
H 	H 	0.96512 0.11983 0.44429 0.08300
C 	C 	0.20287 0.04403 0.45618 0.07000
C 	C 	0.26261 0.05407 0.46758 -0.08100
C 	C 	0.32098 0.10497 0.45772 0.00900
C 	C 	0.32203 0.15136 0.44094 0.07600
C 	C 	0.26387 0.14687 0.43286 -0.09000
C 	C 	0.20345 0.08909 0.43867 0.02500
N 	N 	0.38424 0.21219 0.44602 -0.15300
C 	C 	0.42228 0.20579 0.46658 0.00100
C 	C 	0.38522 0.13960 0.47393 -0.04900
H 	H 	0.26443 0.02680 0.48498 0.05100
H 	H 	0.26639 0.18889 0.42426 0.05300
H 	H 	0.39859 0.12584 0.49400 0.04900
H 	H 	0.39582 0.25986 0.44169 0.08600
C 	C 	0.89367 0.12348 0.02715 0.06900
C 	C 	0.82766 0.09952 0.02831 -0.08000
C 	C 	0.79346 0.10779 0.00482 0.00600
C 	C 	0.82458 0.14096 0.98161 0.07600
C 	C 	0.89104 0.16648 0.98086 -0.09200
C 	C 	0.92528 0.15799 0.00424 0.02600
N 	N 	0.91934 0.09127 0.03736 -0.16800
C 	C 	0.96693 0.10459 0.02107 0.07500
C 	C 	0.97214 0.14604 0.00035 -0.09100
N 	N 	0.79708 0.17038 0.97016 -0.15400
C 	C 	0.74895 0.15678 0.98608 -0.01400
C 	C 	0.74523 0.11822 0.00797 -0.04000
H 	H 	0.80324 0.07357 0.04634 0.05100
H 	H 	0.91535 0.19235 0.96280 0.05100
H 	H 	0.72688 0.11840 0.02869 0.05200
H 	H 	0.82133 0.21218 0.95861 0.07700
C 	C 	0.25413 0.16359 0.01802 0.06900
C 	C 	0.31107 0.21175 0.00640 -0.08100
C 	C 	0.36652 0.21073 0.01198 0.00700
C 	C 	0.36163 0.15696 0.02380 0.07900
C 	C 	0.30148 0.10309 0.03157 -0.09000
C 	C 	0.25007 0.11106 0.03098 0.02500
N 	N 	0.19230 0.14369 0.00718 -0.16900
C 	C 	0.18254 0.05666 0.02771 -0.08800
N 	N 	0.40715 0.14894 0.01529 -0.15300
C 	C 	0.44310 0.19910 0.99888 -0.00100
C 	C 	0.41704 0.23650 0.99532 -0.04800
H 	H 	0.31077 0.24567 0.99228 0.05000
H 	H 	0.29380 0.05563 0.03629 0.05500
H 	H 	0.44204 0.28648 0.98801 0.04600
H 	H 	0.18111 0.16581 0.99116 0.08100
H 	H 	0.42228 0.12184 0.02556 0.09200
C 	C 	0.71823 0.54097 0.97880 0.00100
H 	H 	0.78689 0.56354 0.94927 0.08900
H 	H 	0.84619 0.55058 0.44103 0.05100
C 	C 	0.84427 0.57405 0.46222 -0.04500
N 	N 	0.75588 0.57401 0.95814 -0.15100
H 	H 	0.89401 0.04836 0.04822 0.08200
H 	H 	0.69178 0.57724 0.01722 0.04600
C 	C 	0.70394 0.58172 0.99481 -0.04700
C 	C 	0.82397 0.63928 0.48986 0.07700
C 	C 	0.85892 0.63972 0.46767 0.00800
C 	C 	0.76612 0.63621 0.96072 0.07800
H 	H 	0.78028 0.68588 0.51010 0.05300
C 	C 	0.73429 0.64253 0.98306 0.00900
C 	C 	0.80601 0.68486 0.49235 -0.09200
H 	H 	0.85415 0.69201 0.93990 0.05300
C 	C 	0.87233 0.68144 0.44567 -0.08200
C 	C 	0.82281 0.69611 0.95350 -0.09000
H 	H 	0.89798 0.68029 0.42791 0.05100
C 	C 	0.75928 0.70846 0.99946 -0.08200
C 	C 	0.82196 0.72875 0.47107 0.02500
H 	H 	0.74295 0.71336 0.02025 0.05000
C 	C 	0.96255 0.02621 0.47595 -0.00600
C 	C 	0.85407 0.72680 0.44794 0.06900
C 	C 	0.84012 0.76163 0.96630 0.02500
C 	C 	0.80970 0.76791 0.98925 0.06900
N 	N 	0.89026 0.78956 0.43955 -0.16900
C 	C 	0.84117 0.79640 0.47758 -0.09000
H 	H 	0.92927 0.80619 0.42758 0.08200
H 	H 	0.84304 0.82093 0.49945 0.05200
C 	C 	0.90368 0.82435 0.97052 -0.08900
N 	N 	0.85169 0.83160 0.00707 -0.16900
H 	H 	0.94530 0.83220 0.96109 0.05100
C 	C 	0.88366 0.83256 0.45777 0.07500
H 	H 	0.84727 0.84493 0.02892 0.08100
H 	H 	0.86795 0.01161 0.51095 0.05100
C 	C 	0.94034 0.98587 0.00995 -0.04400
C 	C 	0.96029 0.94261 0.00401 -0.00700
H 	H 	0.88754 0.96286 0.00821 0.04300
C 	C 	0.91477 0.95298 0.47035 -0.04600
C 	C 	0.93438 0.90962 0.46409 -0.00800
H 	H 	0.86237 0.92982 0.47034 0.04000
C 	C 	0.90934 0.86573 0.99616 0.07300
