data_crystal

_cell_length_a 28.47056
_cell_length_b 28.48326
_cell_length_c 36.99345
_cell_angle_alpha 89.93682
_cell_angle_beta  89.93402
_cell_angle_gamma 90.82522

_symmetry_space_group_name_	'P 1'
_symmetry_space_group_name_H-M	'P 1'

loop_
_symmetry_equiv_pos_as_xyz
  x,y,z

loop_
_atom_site_label
_atom_site_type_symbol
_atom_site_fract_x
_atom_site_fract_y
_atom_site_fract_z
_atom_site_charge
Zn	Zn	0.51422 0.52548 0.98531 1.22200
C 	C 	0.56191 0.43757 0.99356 0.31300
O 	O 	0.55432 0.56209 0.95232 -0.46600
O 	O 	0.53890 0.42463 0.96434 -0.44600
O 	O 	0.59146 0.50085 0.92680 -0.48100
C 	C 	0.44033 0.47001 0.95453 0.30700
O 	O 	0.46213 0.48108 0.98457 -0.44800
O 	O 	0.46239 0.47400 0.92341 -0.49600
C 	C 	0.59249 0.54407 0.93885 0.29700
O 	O 	0.45750 0.58396 0.97994 -0.31500
Zn	Zn	0.53094 0.46818 0.92051 1.16700
O 	O 	0.56114 0.48158 0.00460 -0.43900
C 	C 	0.47058 0.59673 0.01202 0.24600
O 	O 	0.50373 0.57227 0.02647 -0.37600
Zn	Zn	0.23748 0.26737 0.99112 1.22200
C 	C 	0.27258 0.26558 0.06444 0.32000
O 	O 	0.16888 0.26214 0.99619 -0.45500
O 	O 	0.26591 0.31122 0.06515 -0.44900
O 	O 	0.16492 0.28965 0.05358 -0.48600
C 	C 	0.27761 0.35953 0.98723 0.36400
O 	O 	0.28709 0.31469 0.98863 -0.45000
O 	O 	0.23872 0.37495 0.00187 -0.51800
C 	C 	0.14936 0.26122 0.02832 0.28600
O 	O 	0.22929 0.27703 0.92802 -0.32500
Zn	Zn	0.20783 0.34142 0.04185 1.16800
O 	O 	0.25561 0.24000 0.03772 -0.44200
C 	C 	0.24436 0.23431 0.92591 0.28300
O 	O 	0.25348 0.21440 0.95657 -0.38000
C 	C 	0.50141 0.99514 0.35807 0.15600
C 	C 	0.47642 0.02764 0.33735 -0.12200
H 	H 	0.45625 0.05459 0.35069 0.07400
C 	C 	0.47800 0.02553 0.29955 0.05700
C 	C 	0.50418 0.99075 0.28245 -0.07900
C 	C 	0.52910 0.95810 0.30302 0.05500
C 	C 	0.52776 0.96040 0.34088 -0.10800
H 	H 	0.54720 0.93545 0.35694 0.07300
N 	N 	0.50061 0.99791 0.39687 -0.17200
C 	C 	0.46989 0.96980 0.41601 0.18800
C 	C 	0.46893 0.97168 0.45404 -0.04400
C 	C 	0.49947 0.00291 0.47212 0.01600
C 	C 	0.53051 0.03166 0.45215 -0.05400
C 	C 	0.53071 0.02851 0.41417 0.17700
C 	C 	0.43800 0.94283 0.47418 -0.01500
C 	C 	0.43767 0.94510 0.51195 -0.01100
C 	C 	0.46820 0.97632 0.53020 -0.04900
C 	C 	0.49900 0.00533 0.51023 0.02200
C 	C 	0.52938 0.03671 0.52829 -0.06000
C 	C 	0.56088 0.06305 0.47040 -0.01600
C 	C 	0.56028 0.06558 0.50815 -0.01300
C 	C 	0.46851 0.97897 0.56821 0.19800
N 	N 	0.49841 0.00977 0.58550 -0.18400
C 	C 	0.52840 0.03861 0.56632 0.18800
C 	C 	0.49853 0.01165 0.62433 0.13200
C 	C 	0.46525 0.03870 0.64263 -0.11200
C 	C 	0.46542 0.04047 0.68048 0.07400
C 	C 	0.49892 0.01545 0.70000 -0.11400
C 	C 	0.53222 0.98853 0.68183 0.08500
C 	C 	0.53200 0.98651 0.64400 -0.10000
O 	O 	0.56004 0.05492 0.39514 -0.20200
O 	O 	0.44113 0.94096 0.39869 -0.19800
O 	O 	0.44014 0.95159 0.58730 -0.19600
O 	O 	0.55639 0.06824 0.58359 -0.20200
H 	H 	0.55766 0.96560 0.62983 0.07500
H 	H 	0.43944 0.05814 0.62741 0.07300
H 	H 	0.58499 0.08555 0.45544 0.05000
H 	H 	0.58396 0.08998 0.52162 0.04900
H 	H 	0.41422 0.91855 0.46071 0.05300
H 	H 	0.41362 0.92253 0.52691 0.05200
H 	H 	0.49907 0.01691 0.72932 0.06000
H 	H 	0.50569 0.98942 0.25316 0.05600
Zn	Zn	0.77942 0.75705 0.98786 1.22100
C 	C 	0.75304 0.75045 0.06307 0.33900
O 	O 	0.84776 0.76769 0.98865 -0.45900
O 	O 	0.76332 0.70564 0.06125 -0.45100
O 	O 	0.86130 0.73518 0.04356 -0.48700
C 	C 	0.74540 0.66263 0.98187 0.35100
O 	O 	0.73308 0.70638 0.98637 -0.46000
O 	O 	0.78689 0.64900 0.99286 -0.49000
C 	C 	0.87104 0.76745 0.01925 0.29200
O 	O 	0.78145 0.75257 0.92414 -0.32900
Zn	Zn	0.82018 0.68179 0.03209 1.16700
O 	O 	0.76470 0.77928 0.03666 -0.44400
C 	C 	0.76321 0.79408 0.92494 0.27900
O 	O 	0.75581 0.81097 0.95692 -0.38200
Zn	Zn	0.26666 0.77085 0.00885 1.21900
C 	C 	0.24092 0.78395 0.08339 0.32100
O 	O 	0.25917 0.83147 0.98464 -0.45500
O 	O 	0.28338 0.80129 0.08924 -0.44700
O 	O 	0.26535 0.87638 0.03499 -0.48600
C 	C 	0.35683 0.75072 0.03813 0.36000
O 	O 	0.31357 0.73514 0.03454 -0.45400
O 	O 	0.36598 0.79597 0.03659 -0.51500
C 	C 	0.24706 0.86865 0.00301 0.28300
O 	O 	0.29768 0.73961 0.95490 -0.32300
Zn	Zn	0.31956 0.84181 0.05176 1.16900
O 	O 	0.22469 0.78041 0.05017 -0.44500
C 	C 	0.25706 0.71875 0.95167 0.28100
O 	O 	0.22737 0.72680 0.97743 -0.38300
C 	C 	0.02284 0.49172 0.37056 0.15200
C 	C 	0.99652 0.45734 0.35207 -0.11800
H 	H 	0.97966 0.42899 0.36701 0.07400
C 	C 	0.99221 0.45966 0.31439 0.06600
C 	C 	0.01397 0.49642 0.29523 -0.09200
C 	C 	0.04020 0.53078 0.31362 0.07200
C 	C 	0.04471 0.52841 0.35127 -0.11200
H 	H 	0.06512 0.55487 0.36560 0.07600
N 	N 	0.02740 0.48935 0.40920 -0.17500
C 	C 	0.06159 0.46192 0.42411 0.19000
C 	C 	0.06687 0.45950 0.46190 -0.05700
C 	C 	0.03692 0.48561 0.48412 0.02600
C 	C 	0.00220 0.51367 0.46846 -0.04400
C 	C 	0.99780 0.51494 0.43057 0.17700
C 	C 	0.10156 0.43139 0.47774 -0.01400
C 	C 	0.10610 0.42924 0.51534 -0.01100
C 	C 	0.07604 0.45518 0.53774 -0.06100
C 	C 	0.04160 0.48355 0.52207 0.03400
C 	C 	0.01168 0.50970 0.54428 -0.05700
C 	C 	0.97244 0.53996 0.49085 -0.02300
C 	C 	0.97719 0.53805 0.52844 -0.01500
C 	C 	0.07956 0.45286 0.57566 0.19100
N 	N 	0.04952 0.47796 0.59702 -0.17900
C 	C 	0.01647 0.50672 0.58208 0.19600
C 	C 	0.05160 0.47280 0.63563 0.14400
C 	C 	0.02109 0.44107 0.65319 -0.10400
C 	C 	0.02223 0.43681 0.69092 0.06700
C 	C 	0.05418 0.46399 0.71101 -0.09700
C 	C 	0.08439 0.49595 0.69362 0.07200
C 	C 	0.08323 0.50034 0.65590 -0.11000
O 	O 	0.96507 0.54077 0.41555 -0.19900
O 	O 	0.08968 0.43786 0.40293 -0.19900
O 	O 	0.11144 0.42605 0.59073 -0.20000
O 	O 	0.98885 0.53133 0.60324 -0.20600
H 	H 	0.10632 0.52532 0.64234 0.07500
H 	H 	0.99626 0.42029 0.63754 0.06700
H 	H 	0.94559 0.56191 0.47925 0.05300
H 	H 	0.95387 0.55852 0.54515 0.05000
H 	H 	0.12502 0.41109 0.46102 0.05100
H 	H 	0.13296 0.40730 0.52695 0.05100
H 	H 	0.05467 0.46107 0.74026 0.06100
H 	H 	0.01060 0.49820 0.26604 0.05800
Zn	Zn	0.76079 0.22713 0.00719 1.22200
C 	C 	0.76936 0.26048 0.93358 0.34000
O 	O 	0.72367 0.28415 0.00991 -0.44200
O 	O 	0.72328 0.26212 0.93276 -0.44900
O 	O 	0.65658 0.24488 0.99464 -0.50500
C 	C 	0.75106 0.14039 0.96999 0.30700
O 	O 	0.75040 0.15975 0.00212 -0.47900
O 	O 	0.72563 0.15821 0.94405 -0.48800
C 	C 	0.67777 0.28275 0.00730 0.34400
O 	O 	0.75212 0.21680 0.07030 -0.32700
Zn	Zn	0.68240 0.20879 0.95439 1.17000
O 	O 	0.79094 0.23906 0.96018 -0.43500
C 	C 	0.79571 0.23072 0.07206 0.27900
O 	O 	0.81529 0.24047 0.04129 -0.38400
Zn	Zn	0.99478 0.01743 0.00975 1.21500
C 	C 	0.08617 0.97576 0.00821 0.33300
O 	O 	0.95714 0.97319 0.03867 -0.47500
O 	O 	0.09303 0.99760 0.03914 -0.44100
O 	O 	0.01589 0.93918 0.06967 -0.48400
C 	C 	0.04163 0.09267 0.04615 0.36000
O 	O 	0.03547 0.07202 0.01486 -0.45600
O 	O 	0.03275 0.06945 0.07619 -0.50000
C 	C 	0.97600 0.93555 0.05230 0.34100
O 	O 	0.93275 0.07028 0.01227 -0.34300
Zn	Zn	0.04295 0.00151 0.07910 1.16600
O 	O 	0.04424 0.97484 0.99304 -0.40700
C 	C 	0.92317 0.05699 0.97958 0.32700
O 	O 	0.95134 0.02611 0.96612 -0.38700
C 	C 	0.78882 0.10790 0.96107 -0.03900
C 	C 	0.79393 0.06677 0.98138 -0.04000
C 	C 	0.83737 0.04463 0.98266 0.04200
C 	C 	0.87626 0.06442 0.96459 -0.14600
C 	C 	0.86929 0.10126 0.93996 0.19800
C 	C 	0.82544 0.12289 0.93818 -0.09500
H 	H 	0.84201 0.01505 0.00069 0.02100
H 	H 	0.82123 0.15376 0.92140 0.07600
H 	H 	0.76537 0.05402 0.99829 0.04400
O 	O 	0.90643 0.11946 0.92061 -0.29100
H 	H 	0.90634 0.10184 0.89750 0.15100
C 	C 	0.98813 0.40617 0.70978 -0.02800
C 	C 	0.00374 0.36643 0.72840 -0.01000
C 	C 	0.97408 0.34340 0.75300 -0.05700
C 	C 	0.92862 0.36004 0.75918 0.01500
C 	C 	0.91189 0.39768 0.73862 -0.04800
C 	C 	0.94154 0.42063 0.71395 -0.02300
C 	C 	0.90068 0.34161 0.78975 0.00800
C 	C 	0.85702 0.31958 0.78364 -0.04300
C 	C 	0.82995 0.30356 0.81285 -0.02900
C 	C 	0.84639 0.30955 0.84828 -0.01100
C 	C 	0.89001 0.33142 0.85440 -0.02800
C 	C 	0.91707 0.34746 0.82526 -0.04200
C 	C 	0.81883 0.29268 0.87834 0.05500
C 	C 	0.79609 0.27829 0.90361 -0.11500
H 	H 	0.03954 0.35475 0.72507 0.03700
H 	H 	0.98703 0.31386 0.76832 0.04500
H 	H 	0.87669 0.41051 0.74296 0.04300
H 	H 	0.92910 0.45112 0.69949 0.04000
H 	H 	0.84407 0.31494 0.75633 0.04100
H 	H 	0.79628 0.28653 0.80793 0.03600
H 	H 	0.90294 0.33609 0.88173 0.04200
H 	H 	0.95057 0.36477 0.83026 0.04100
C 	C 	0.81794 0.24426 0.10668 -0.07700
C 	C 	0.79129 0.24517 0.13869 0.01000
C 	C 	0.81083 0.26349 0.17044 -0.06400
C 	C 	0.85717 0.28096 0.17053 0.02500
C 	C 	0.88458 0.27772 0.13911 -0.06400
C 	C 	0.86516 0.25928 0.10740 0.01100
C 	C 	0.87557 0.30651 0.20232 -0.00200
C 	C 	0.91739 0.29230 0.21890 -0.03500
C 	C 	0.93859 0.32052 0.24534 -0.04500
C 	C 	0.91800 0.36293 0.25550 0.01700
C 	C 	0.87496 0.37585 0.24042 -0.04400
C 	C 	0.85380 0.34779 0.21391 -0.03400
C 	C 	0.94370 0.39580 0.27774 -0.00800
C 	C 	0.96559 0.42438 0.29514 -0.03400
H 	H 	0.75509 0.23294 0.13878 0.04000
H 	H 	0.78959 0.26524 0.19471 0.04700
H 	H 	0.92047 0.29089 0.13894 0.04400
H 	H 	0.88649 0.25781 0.08317 0.04200
H 	H 	0.93419 0.26023 0.21046 0.03600
H 	H 	0.97179 0.31021 0.25700 0.04100
H 	H 	0.85877 0.40853 0.24823 0.04200
H 	H 	0.82149 0.35904 0.20136 0.03900
C 	C 	0.20666 0.89612 0.99127 -0.02300
C 	C 	0.16236 0.87428 0.98811 -0.03900
C 	C 	0.12174 0.90134 0.98833 0.03300
C 	C 	0.12529 0.95029 0.99191 -0.13800
C 	C 	0.16982 0.97232 0.98955 0.21200
C 	C 	0.21040 0.94514 0.98954 -0.10000
H 	H 	0.08762 0.88401 0.98917 0.04400
H 	H 	0.24465 0.96224 0.99031 0.06700
H 	H 	0.15921 0.83632 0.98841 0.05000
O 	O 	0.17369 0.02039 0.98846 -0.29200
H 	H 	0.17828 0.03037 0.01391 0.14800
C 	C 	0.24321 0.69392 0.91822 -0.07500
C 	C 	0.27725 0.68258 0.89220 0.01200
C 	C 	0.26387 0.66092 0.85983 -0.06200
C 	C 	0.21642 0.65029 0.85319 0.02700
C 	C 	0.18247 0.66101 0.87932 -0.06200
C 	C 	0.19576 0.68267 0.91167 0.01200
C 	C 	0.20225 0.62707 0.81923 -0.00100
C 	C 	0.17146 0.64946 0.79538 -0.03300
C 	C 	0.15283 0.62502 0.76581 -0.04200
C 	C 	0.16495 0.57815 0.75986 0.01800
C 	C 	0.19784 0.55667 0.78243 -0.04300
C 	C 	0.21645 0.58105 0.81203 -0.03400
C 	C 	0.13836 0.55013 0.73458 -0.00500
C 	C 	0.11458 0.52589 0.71494 -0.03200
H 	H 	0.31402 0.69062 0.89699 0.04300
H 	H 	0.29034 0.65253 0.83989 0.04800
H 	H 	0.14579 0.65246 0.87456 0.04900
H 	H 	0.16910 0.69107 0.93145 0.04300
H 	H 	0.16080 0.68522 0.80044 0.04300
H 	H 	0.12754 0.64192 0.74842 0.04600
H 	H 	0.20745 0.52046 0.77796 0.04300
H 	H 	0.24046 0.56357 0.83014 0.04000
C 	C 	0.21316 0.76456 0.11385 -0.09500
C 	C 	0.22492 0.77636 0.14965 0.02100
C 	C 	0.20180 0.75431 0.17854 -0.07000
C 	C 	0.16659 0.72046 0.17196 0.03000
C 	C 	0.15355 0.70997 0.13629 -0.06900
C 	C 	0.17663 0.73192 0.10738 0.02100
C 	C 	0.14555 0.69373 0.20221 -0.00400
C 	C 	0.09697 0.69523 0.20848 -0.03400
C 	C 	0.07617 0.66533 0.23408 -0.04500
C 	C 	0.10381 0.63387 0.25360 0.01800
C 	C 	0.15258 0.63379 0.24852 -0.04400
C 	C 	0.17343 0.66363 0.22291 -0.03300
C 	C 	0.08170 0.59849 0.27590 -0.00600
C 	C 	0.06296 0.56804 0.29363 -0.03300
H 	H 	0.25238 0.80209 0.15511 0.02800
H 	H 	0.21176 0.76298 0.20602 0.04800
H 	H 	0.12637 0.68388 0.13096 0.04600
H 	H 	0.16700 0.72252 0.07998 0.03600
H 	H 	0.07521 0.71863 0.19285 0.03700
H 	H 	0.03844 0.66568 0.23796 0.04300
H 	H 	0.17418 0.60961 0.26357 0.04400
H 	H 	0.21097 0.66226 0.21831 0.04000
C 	C 	0.90419 0.80643 0.02780 -0.04500
C 	C 	0.91328 0.81888 0.06395 -0.03900
C 	C 	0.93896 0.85990 0.07194 0.03100
C 	C 	0.95547 0.88902 0.04396 -0.15100
C 	C 	0.94847 0.87540 0.00775 0.18300
C 	C 	0.92338 0.83402 0.99982 -0.07800
H 	H 	0.94443 0.86991 0.09988 0.01900
H 	H 	0.91788 0.82407 0.97186 0.07400
H 	H 	0.89907 0.79779 0.08586 0.04700
O 	O 	0.96675 0.90210 0.98008 -0.28900
H 	H 	0.94132 0.92372 0.97308 0.15700
C 	C 	0.74519 0.81697 0.89198 -0.07600
C 	C 	0.74734 0.79387 0.85845 0.01100
C 	C 	0.72727 0.81405 0.82777 -0.06300
C 	C 	0.70495 0.85751 0.83024 0.02700
C 	C 	0.70409 0.88132 0.86342 -0.06200
C 	C 	0.72421 0.86125 0.89411 0.01200
C 	C 	0.68004 0.87677 0.79871 -0.00100
C 	C 	0.69288 0.92097 0.78476 -0.03400
C 	C 	0.66591 0.94153 0.75760 -0.04200
C 	C 	0.62605 0.91799 0.74417 0.01700
C 	C 	0.61440 0.87297 0.75693 -0.04200
C 	C 	0.64128 0.85240 0.78412 -0.03400
C 	C 	0.59411 0.94215 0.72072 -0.00200
C 	C 	0.56641 0.96294 0.70227 -0.03400
H 	H 	0.76385 0.75998 0.85623 0.04200
H 	H 	0.72845 0.79560 0.80220 0.04800
H 	H 	0.68697 0.91493 0.86557 0.04800
H 	H 	0.72283 0.87982 0.91961 0.04400
H 	H 	0.72303 0.93985 0.79558 0.04200
H 	H 	0.67517 0.97633 0.74782 0.04500
H 	H 	0.58364 0.85456 0.74666 0.04400
H 	H 	0.63113 0.81821 0.79464 0.04000
C 	C 	0.55786 0.92266 0.28471 -0.00800
C 	C 	0.60703 0.92535 0.28689 -0.03100
C 	C 	0.63458 0.89794 0.26407 -0.04100
C 	C 	0.61314 0.86779 0.23880 0.00800
C 	C 	0.56403 0.86281 0.23836 -0.04200
C 	C 	0.53652 0.89003 0.26130 -0.03200
C 	C 	0.64153 0.84583 0.21020 0.01000
C 	C 	0.64071 0.79687 0.20573 -0.04400
C 	C 	0.66433 0.77654 0.17661 -0.02900
C 	C 	0.68894 0.80502 0.15191 -0.01200
C 	C 	0.69066 0.85376 0.15680 -0.02900
C 	C 	0.66701 0.87413 0.18580 -0.04400
C 	C 	0.71131 0.78451 0.12091 0.05300
C 	C 	0.73020 0.76841 0.09461 -0.11600
H 	H 	0.62384 0.95017 0.30508 0.04400
H 	H 	0.67250 0.90150 0.26501 0.04300
H 	H 	0.54714 0.83938 0.21915 0.04000
H 	H 	0.49858 0.88729 0.25976 0.03900
H 	H 	0.62128 0.77470 0.22447 0.04200
H 	H 	0.66302 0.73878 0.17305 0.03900
H 	H 	0.70972 0.87596 0.13784 0.04100
H 	H 	0.66762 0.91196 0.18886 0.04200
C 	C 	0.11580 0.22332 0.03755 -0.02700
C 	C 	0.07777 0.21342 0.01467 -0.05400
C 	C 	0.05067 0.17263 0.01973 0.04600
C 	C 	0.06198 0.14067 0.04725 -0.15900
C 	C 	0.09815 0.15224 0.07184 0.20500
C 	C 	0.12482 0.19356 0.06693 -0.10300
H 	H 	0.02226 0.16470 0.00114 0.03700
H 	H 	0.15404 0.20113 0.08486 0.07300
H 	H 	0.07010 0.23657 0.99224 0.05800
O 	O 	0.10990 0.12163 0.09891 -0.31300
H 	H 	0.09125 0.13150 0.12018 0.14400
C 	C 	0.25889 0.21348 0.89117 -0.07400
C 	C 	0.26155 0.24129 0.85978 0.01300
C 	C 	0.27947 0.22267 0.82773 -0.06300
C 	C 	0.29490 0.17614 0.82672 0.02700
C 	C 	0.29053 0.14780 0.85763 -0.06200
C 	C 	0.27248 0.16630 0.88965 0.01300
C 	C 	0.31910 0.15822 0.79435 -0.00100
C 	C 	0.36133 0.17940 0.78275 -0.03500
C 	C 	0.38787 0.15856 0.75549 -0.04400
C 	C 	0.37246 0.11640 0.73968 0.01600
C 	C 	0.32908 0.09655 0.74984 -0.04300
C 	C 	0.30239 0.11745 0.77703 -0.03400
C 	C 	0.40394 0.09036 0.71708 -0.00600
C 	C 	0.43140 0.06796 0.69956 -0.03600
H 	H 	0.25081 0.27761 0.86039 0.04000
H 	H 	0.28229 0.24470 0.80391 0.04700
H 	H 	0.30230 0.11180 0.85711 0.04700
H 	H 	0.26988 0.14418 0.91343 0.04400
H 	H 	0.37447 0.21096 0.79584 0.03700
H 	H 	0.42132 0.17417 0.74771 0.04100
H 	H 	0.31685 0.06404 0.73764 0.04400
H 	H 	0.26954 0.10115 0.78546 0.04100
C 	C 	0.29808 0.24280 0.09418 -0.09700
C 	C 	0.29606 0.26125 0.12936 0.02100
C 	C 	0.31880 0.23859 0.15780 -0.07000
C 	C 	0.34391 0.19745 0.15132 0.03000
C 	C 	0.34632 0.17922 0.11617 -0.07000
C 	C 	0.32348 0.20174 0.08773 0.02200
C 	C 	0.36729 0.17311 0.18133 -0.00500
C 	C 	0.41646 0.17107 0.18244 -0.03400
C 	C 	0.43856 0.14437 0.20901 -0.04600
C 	C 	0.41166 0.11954 0.23459 0.01700
C 	C 	0.36259 0.12280 0.23427 -0.04600
C 	C 	0.34044 0.14959 0.20774 -0.03400
C 	C 	0.43415 0.08734 0.25883 -0.01100
C 	C 	0.45370 0.05959 0.27805 -0.03300
H 	H 	0.27629 0.29270 0.13477 0.02400
H 	H 	0.31681 0.25292 0.18487 0.04800
H 	H 	0.36563 0.14743 0.11094 0.04300
H 	H 	0.32561 0.18731 0.06070 0.03300
H 	H 	0.43747 0.18938 0.16230 0.03800
H 	H 	0.47652 0.14203 0.20912 0.04100
H 	H 	0.34157 0.10370 0.25397 0.04100
H 	H 	0.30244 0.15108 0.20714 0.03700
C 	C 	0.39311 0.44822 0.95641 -0.03100
C 	C 	0.36129 0.46306 0.98293 -0.04500
C 	C 	0.32162 0.43564 0.99128 0.05000
C 	C 	0.31327 0.39308 0.97316 -0.16300
C 	C 	0.34259 0.38055 0.94405 0.20400
C 	C 	0.38255 0.40798 0.93594 -0.09900
H 	H 	0.29880 0.44627 0.01316 0.01200
H 	H 	0.40644 0.39665 0.91497 0.06000
H 	H 	0.36850 0.49472 0.99829 0.05600
O 	O 	0.33343 0.34049 0.92456 -0.29000
H 	H 	0.31274 0.35044 0.90449 0.14800
C 	C 	0.45374 0.64024 0.02816 -0.00300
C 	C 	0.46260 0.68298 0.01037 -0.06400
C 	C 	0.43353 0.72130 0.01642 0.04900
C 	C 	0.39538 0.71703 0.04025 -0.16900
C 	C 	0.39049 0.67631 0.06167 0.21000
C 	C 	0.41966 0.63797 0.05547 -0.11200
H 	H 	0.43849 0.75297 0.00054 0.02200
H 	H 	0.41343 0.60539 0.07000 0.07300
H 	H 	0.48965 0.68536 0.98980 0.06000
O 	O 	0.35524 0.67278 0.08689 -0.29000
H 	H 	0.36918 0.68493 0.10964 0.14500
C 	C 	0.59166 0.40327 0.01177 -0.04200
C 	C 	0.57258 0.35905 0.02056 -0.04100
C 	C 	0.60159 0.32001 0.02271 0.02800
C 	C 	0.64997 0.32487 0.01596 -0.15600
C 	C 	0.66988 0.37045 0.01265 0.19700
C 	C 	0.64054 0.40945 0.01086 -0.09800
H 	H 	0.58604 0.28560 0.02737 0.02500
H 	H 	0.65567 0.44389 0.00567 0.06800
H 	H 	0.53485 0.35425 0.02272 0.04500
O 	O 	0.71743 0.37667 0.00840 -0.28500
H 	H 	0.72987 0.38128 0.03320 0.15300
C 	C 	0.63738 0.56994 0.94229 -0.03500
C 	C 	0.64114 0.61612 0.92938 -0.04000
C 	C 	0.67846 0.64520 0.94031 0.03700
C 	C 	0.71196 0.62881 0.96502 -0.15200
C 	C 	0.70984 0.58142 0.97623 0.20000
C 	C 	0.67307 0.55202 0.96424 -0.09500
H 	H 	0.68029 0.68111 0.93066 0.03500
H 	H 	0.67079 0.51615 0.97385 0.07300
H 	H 	0.61408 0.63011 0.91202 0.04400
O 	O 	0.74282 0.56406 0.99951 -0.28900
H 	H 	0.72986 0.56916 0.02407 0.13300
