data_crystal

_cell_length_a 35.34413
_cell_length_b 35.32857
_cell_length_c 38.84332
_cell_angle_alpha 90.00524
_cell_angle_beta  89.99494
_cell_angle_gamma 120.00079

_symmetry_space_group_name_	'P 1'
_symmetry_space_group_name_H-M	'P 1'

loop_
_symmetry_equiv_pos_as_xyz
  x,y,z

loop_
_atom_site_label
_atom_site_type_symbol
_atom_site_fract_x
_atom_site_fract_y
_atom_site_fract_z
_atom_site_charge
P 	P 	0.98721 0.42334 0.94975 0.30100
O 	O 	0.02764 0.49158 0.04109 -0.41500
N 	N 	0.99633 0.81098 0.68536 -0.05500
Zn	Zn	0.33321 0.15849 0.66418 1.20300
Zn	Zn	0.40077 0.12894 0.65790 1.21800
Zn	Zn	0.26379 0.06316 0.67984 1.21800
P 	P 	0.34552 0.11075 0.71948 0.30100
P 	P 	0.31932 0.08812 0.61777 0.29900
C 	C 	0.18957 0.97821 0.67155 0.26000
C 	C 	0.24626 0.13733 0.67485 0.28500
C 	C 	0.42013 0.22175 0.65064 0.28300
O 	O 	0.36115 0.15939 0.70810 -0.41300
O 	O 	0.30523 0.12384 0.62284 -0.41500
O 	O 	0.36223 0.08833 0.69244 -0.41800
O 	O 	0.30169 0.05405 0.64895 -0.41200
O 	O 	0.29336 0.08487 0.72365 -0.39200
O 	O 	0.37146 0.11220 0.61352 -0.39100
O 	O 	0.20808 0.01256 0.69181 -0.37600
O 	O 	0.47262 0.15344 0.70694 -0.20200
O 	O 	0.21171 0.97474 0.64580 -0.20000
O 	O 	0.23736 0.09903 0.66218 -0.40100
O 	O 	0.42875 0.19444 0.66752 -0.39400
O 	O 	0.28664 0.16650 0.68253 -0.40700
O 	O 	0.37992 0.20917 0.64136 -0.40700
C 	C 	0.48417 0.14493 0.67709 0.26000
O 	O 	0.45592 0.13037 0.65163 -0.37500
Zn	Zn	0.48030 0.00952 0.99756 1.20200
Zn	Zn	0.45667 0.08008 0.01391 1.21900
Zn	Zn	0.38265 0.94364 0.99158 1.21800
P 	P 	0.42487 0.02521 0.95160 0.29900
P 	P 	0.42082 0.99822 0.05328 0.30200
C 	C 	0.31398 0.86099 0.01063 0.26200
C 	C 	0.45427 0.92211 0.98360 0.28100
C 	C 	0.54758 0.09555 0.00919 0.28600
O 	O 	0.47447 0.03850 0.95648 -0.41500
O 	O 	0.45307 0.98177 0.04154 -0.41200
O 	O 	0.40919 0.04318 0.98301 -0.41300
O 	O 	0.38173 0.98253 0.02633 -0.41700
O 	O 	0.39601 0.97312 0.94728 -0.39100
O 	O 	0.44797 0.05034 0.05774 -0.39200
O 	O 	0.32822 0.88930 0.98521 -0.37700
O 	O 	0.42316 0.13338 0.97878 -0.20200
O 	O 	0.33412 0.87211 0.04046 -0.20200
O 	O 	0.41888 0.91430 0.00090 -0.39200
O 	O 	0.51894 0.10543 0.99645 -0.40200
O 	O 	0.48243 0.96212 0.97424 -0.40700
O 	O 	0.53566 0.05473 0.01588 -0.40600
C 	C 	0.44846 0.15532 0.00474 0.26000
O 	O 	0.46306 0.13626 0.02560 -0.37600
Zn	Zn	0.18321 0.86182 0.33083 1.20300
Zn	Zn	0.21379 0.95896 0.32399 1.21900
Zn	Zn	0.27791 0.88717 0.34753 1.21900
P 	P 	0.23070 0.92224 0.38620 0.30100
P 	P 	0.25433 0.91752 0.28473 0.29900
C 	C 	0.36322 0.89922 0.34061 0.25900
C 	C 	0.20354 0.79590 0.34382 0.28400
C 	C 	0.12120 0.88652 0.31558 0.28300
O 	O 	0.18215 0.88946 0.37446 -0.41300
O 	O 	0.21843 0.86779 0.28994 -0.41500
O 	O 	0.25379 0.96111 0.35904 -0.41700
O 	O 	0.28790 0.93404 0.31620 -0.41200
O 	O 	0.25618 0.89567 0.39104 -0.39200
O 	O 	0.23058 0.94581 0.27991 -0.39100
O 	O 	0.32801 0.88173 0.35990 -0.37600
O 	O 	0.18924 0.00657 0.37244 -0.20300
O 	O 	0.36766 0.92661 0.31600 -0.20000
O 	O 	0.24167 0.82465 0.33056 -0.40100
O 	O 	0.14826 0.92199 0.33302 -0.39500
O 	O 	0.17402 0.80715 0.34989 -0.40600
O 	O 	0.13322 0.85819 0.30716 -0.40700
C 	C 	0.19776 0.02632 0.34245 0.26100
O 	O 	0.21273 0.01264 0.31728 -0.37700
Zn	Zn	0.81111 0.67652 0.66790 1.20300
Zn	Zn	0.78578 0.74752 0.67451 1.21900
Zn	Zn	0.71339 0.61100 0.65372 1.22000
P 	P 	0.76390 0.69130 0.61330 0.30100
P 	P 	0.74257 0.66731 0.71540 0.30000
C 	C 	0.63195 0.53487 0.66693 0.26100
C 	C 	0.78298 0.58776 0.65678 0.28300
C 	C 	0.87707 0.76267 0.68136 0.28200
O 	O 	0.81221 0.70454 0.62398 -0.41200
O 	O 	0.77662 0.65104 0.70995 -0.41300
O 	O 	0.74362 0.70980 0.64070 -0.42100
O 	O 	0.70773 0.65082 0.68474 -0.41300
O 	O 	0.73547 0.63919 0.60943 -0.39100
O 	O 	0.76866 0.71954 0.71931 -0.39000
O 	O 	0.66103 0.55638 0.64290 -0.37700
O 	O 	0.81495 0.81852 0.62453 -0.20100
O 	O 	0.63403 0.55394 0.69644 -0.20300
O 	O 	0.74696 0.58251 0.67135 -0.40400
O 	O 	0.85059 0.77221 0.66426 -0.39400
O 	O 	0.81474 0.62718 0.64941 -0.40300
O 	O 	0.86399 0.72197 0.68960 -0.40400
C 	C 	0.80574 0.83129 0.65351 0.26000
O 	O 	0.79021 0.80402 0.67957 -0.37700
Zn	Zn	0.51979 0.52923 0.00428 1.20300
Zn	Zn	0.61717 0.56093 0.00935 1.21800
Zn	Zn	0.54316 0.62356 0.98879 1.21800
P 	P 	0.57820 0.57758 0.94830 0.30100
P 	P 	0.57593 0.60026 0.05035 0.29900
C 	C 	0.55154 0.70716 0.99785 0.25800
C 	C 	0.45245 0.54825 0.99451 0.28300
C 	C 	0.54558 0.46764 0.01767 0.28300
O 	O 	0.54639 0.52874 0.95995 -0.41300
O 	O 	0.52636 0.56372 0.04571 -0.41500
O 	O 	0.61759 0.60090 0.97499 -0.41900
O 	O 	0.59113 0.63413 0.01909 -0.41100
O 	O 	0.55068 0.60224 0.94470 -0.39200
O 	O 	0.60513 0.57732 0.05407 -0.39000
O 	O 	0.53648 0.67320 0.97727 -0.37600
O 	O 	0.66384 0.53798 0.95894 -0.20200
O 	O 	0.57742 0.71093 0.02348 -0.19900
O 	O 	0.48140 0.58674 0.00712 -0.40000
O 	O 	0.58078 0.49524 0.00018 -0.39300
O 	O 	0.46432 0.51961 0.98671 -0.40700
O 	O 	0.51742 0.47940 0.02717 -0.40700
C 	C 	0.68505 0.54705 0.98828 0.25900
O 	O 	0.67165 0.56098 0.01436 -0.37500
Zn	Zn	0.66751 0.83049 0.33505 1.20300
Zn	Zn	0.73691 0.80562 0.31795 1.21900
Zn	Zn	0.60172 0.73329 0.34462 1.21800
P 	P 	0.68537 0.77754 0.38181 0.30000
P 	P 	0.65322 0.76800 0.28096 0.29900
C 	C 	0.53191 0.64591 0.33558 0.26000
C 	C 	0.58071 0.80517 0.35116 0.28400
C 	C 	0.75294 0.89708 0.32090 0.28500
O 	O 	0.69876 0.82695 0.37559 -0.41400
O 	O 	0.63758 0.80103 0.29229 -0.41600
O 	O 	0.70126 0.75984 0.35039 -0.41300
O 	O 	0.63827 0.72989 0.30883 -0.41000
O 	O 	0.63361 0.74966 0.38780 -0.39100
O 	O 	0.70509 0.79473 0.27505 -0.39100
O 	O 	0.54808 0.68027 0.35581 -0.37600
O 	O 	0.78590 0.76297 0.34658 -0.19800
O 	O 	0.55552 0.64422 0.31017 -0.19700
O 	O 	0.57203 0.76891 0.33477 -0.39900
O 	O 	0.76337 0.86880 0.33362 -0.40000
O 	O 	0.62116 0.83379 0.35914 -0.40700
O 	O 	0.71195 0.88475 0.31464 -0.40600
C 	C 	0.80948 0.79208 0.32315 0.25900
O 	O 	0.79232 0.81111 0.30500 -0.37500
Zn	Zn	0.85244 0.19991 0.66077 1.20300
Zn	Zn	0.94984 0.22797 0.67393 1.22100
Zn	Zn	0.88394 0.29876 0.65749 1.22000
P 	P 	0.92219 0.25933 0.61392 0.30000
P 	P 	0.90345 0.25951 0.71675 0.30100
C 	C 	0.86618 0.36378 0.67971 0.26100
C 	C 	0.79110 0.22736 0.65062 0.28000
C 	C 	0.87749 0.13639 0.66952 0.28100
O 	O 	0.88629 0.20931 0.61818 -0.41100
O 	O 	0.85455 0.22601 0.70605 -0.41100
O 	O 	0.95704 0.27520 0.64451 -0.41500
O 	O 	0.92517 0.29951 0.69042 -0.41900
O 	O 	0.89826 0.28766 0.61170 -0.39000
O 	O 	0.93014 0.23395 0.71919 -0.38900
O 	O 	0.88198 0.35221 0.65375 -0.37800
O 	O 	0.02892 0.25316 0.63052 -0.20500
O 	O 	0.85709 0.34193 0.70875 -0.19900
O 	O 	0.81972 0.26090 0.66905 -0.39900
O 	O 	0.91369 0.16692 0.65498 -0.40500
O 	O 	0.80043 0.19742 0.64075 -0.40100
O 	O 	0.84599 0.14453 0.67684 -0.40100
C 	C 	0.03059 0.23338 0.65861 0.26100
O 	O 	0.00103 0.22318 0.68272 -0.38000
Zn	Zn	0.00065 0.49324 0.99725 1.20100
Zn	Zn	0.06811 0.46210 0.98960 1.22000
Zn	Zn	0.93261 0.39600 0.01222 1.22100
P 	P 	0.01350 0.44291 0.05162 0.29800
C 	C 	0.85992 0.31148 0.00132 0.26100
C 	C 	0.91287 0.46849 0.00989 0.28300
C 	C 	0.08897 0.55458 0.98416 0.28100
O 	O 	0.97291 0.45887 0.95544 -0.41000
O 	O 	0.03037 0.42110 0.02406 -0.41200
O 	O 	0.97077 0.38888 0.98062 -0.41500
O 	O 	0.96150 0.41584 0.05640 -0.38600
O 	O 	0.03917 0.44799 0.94521 -0.39400
O 	O 	0.87731 0.34464 0.02274 -0.37600
O 	O 	0.11495 0.42191 0.02665 -0.19700
O 	O 	0.88323 0.30972 0.97571 -0.20100
O 	O 	0.90613 0.43180 0.99547 -0.40600
O 	O 	0.09512 0.52606 0.00161 -0.40300
O 	O 	0.95297 0.49990 0.01601 -0.40000
O 	O 	0.04913 0.54501 0.97580 -0.40200
C 	C 	0.13958 0.44856 0.00225 0.26100
O 	O 	0.12315 0.46499 0.98057 -0.37900
Zn	Zn	0.15160 0.34086 0.32800 1.20300
Zn	Zn	0.13242 0.41508 0.34441 1.22000
Zn	Zn	0.05199 0.28045 0.32074 1.21900
P 	P 	0.10033 0.36189 0.28158 0.29900
P 	P 	0.09138 0.33320 0.38320 0.30000
C 	C 	0.96685 0.20961 0.33433 0.26100
C 	C 	0.11751 0.25151 0.31415 0.28300
C 	C 	0.22135 0.42525 0.34160 0.28300
O 	O 	0.14893 0.37205 0.28698 -0.41300
O 	O 	0.12214 0.31468 0.37190 -0.41400
O 	O 	0.08527 0.38040 0.31295 -0.41600
O 	O 	0.05266 0.31957 0.35604 -0.41000
O 	O 	0.06944 0.31026 0.27671 -0.39200
O 	O 	0.12062 0.38508 0.38813 -0.39100
O 	O 	0.99709 0.22850 0.31065 -0.37500
O 	O 	0.07788 0.45713 0.33038 -0.19800
O 	O 	0.96866 0.23099 0.36249 -0.19600
O 	O 	0.08386 0.24773 0.33177 -0.40400
O 	O 	0.19438 0.43680 0.32800 -0.40300
O 	O 	0.14912 0.29040 0.30520 -0.40400
O 	O 	0.20821 0.38377 0.34665 -0.40300
C 	C 	0.11505 0.48527 0.34485 0.25900
O 	O 	0.14196 0.47239 0.35567 -0.37700
C 	C 	0.06847 0.43094 0.15220 0.11200
N 	N 	0.03498 0.43943 0.15166 -0.05700
N 	N 	0.02009 0.44540 0.12180 -0.05100
C 	C 	0.03857 0.44351 0.09173 0.09200
N 	N 	0.07294 0.43646 0.09234 -0.05400
N 	N 	0.08763 0.43016 0.12214 -0.05500
C 	C 	0.09669 0.38836 0.24356 0.08900
N 	N 	0.11253 0.38316 0.21322 -0.05000
N 	N 	0.10507 0.39841 0.18414 -0.05600
C 	C 	0.08116 0.41886 0.18460 0.11200
N 	N 	0.06602 0.42470 0.21508 -0.05700
N 	N 	0.07372 0.40970 0.24414 -0.05300
C 	C 	0.93233 0.34723 0.85225 0.11300
N 	N 	0.93356 0.32683 0.88146 -0.05500
N 	N 	0.94865 0.34930 0.91062 -0.04900
C 	C 	0.96285 0.39276 0.91143 0.09200
N 	N 	0.96124 0.41317 0.88237 -0.05000
N 	N 	0.94606 0.39069 0.85316 -0.05600
C 	C 	0.90403 0.28233 0.75797 0.09400
N 	N 	0.90965 0.32316 0.76008 -0.05400
N 	N 	0.91711 0.34332 0.79038 -0.05500
C 	C 	0.91933 0.32326 0.81946 0.11300
N 	N 	0.91257 0.28191 0.81748 -0.05600
N 	N 	0.90521 0.26181 0.78712 -0.05000
C 	C 	0.02364 0.28734 0.48457 0.10900
N 	N 	0.00322 0.26631 0.45515 -0.05500
N 	N 	0.02452 0.27767 0.42522 -0.05300
C 	C 	0.06682 0.31025 0.42386 0.09300
N 	N 	0.08768 0.33018 0.45343 -0.05000
N 	N 	0.06644 0.31881 0.48338 -0.05600
C 	C 	0.95238 0.26711 0.57506 0.09300
N 	N 	0.99548 0.29746 0.57391 -0.04800
N 	N 	0.01841 0.30321 0.54524 -0.05900
C 	C 	0.99885 0.27883 0.51684 0.11900
N 	N 	0.95565 0.24835 0.51800 -0.05600
N 	N 	0.93274 0.24248 0.54679 -0.05000
C 	C 	0.35420 0.51710 0.34443 0.11300
N 	N 	0.32405 0.52999 0.34762 -0.05700
N 	N 	0.28154 0.50057 0.34700 -0.04700
C 	C 	0.26804 0.45740 0.34376 0.06100
N 	N 	0.29819 0.44445 0.34111 -0.04500
N 	N 	0.34069 0.47392 0.34119 -0.05800
C 	C 	0.48627 0.61135 0.33962 0.07100
N 	N 	0.47150 0.57185 0.32436 -0.04600
N 	N 	0.42944 0.54129 0.32661 -0.05700
C 	C 	0.40091 0.54966 0.34374 0.11300
N 	N 	0.41574 0.58910 0.35909 -0.05800
N 	N 	0.45787 0.61940 0.35726 -0.04600
C 	C 	0.84378 0.03013 0.32529 0.11300
N 	N 	0.80045 0.01588 0.32808 -0.05800
N 	N 	0.77143 0.97337 0.32610 -0.04400
C 	C 	0.78496 0.94385 0.32184 0.06200
N 	N 	0.82832 0.95803 0.31924 -0.04500
N 	N 	0.85733 0.00065 0.32063 -0.05800
C 	C 	0.93404 0.16329 0.33096 0.07100
N 	N 	0.94253 0.13655 0.31141 -0.04600
N 	N 	0.91385 0.09389 0.30984 -0.05700
C 	C 	0.87562 0.07691 0.32742 0.11300
N 	N 	0.86688 0.10374 0.34664 -0.05700
N 	N 	0.89591 0.14628 0.34869 -0.04600
C 	C 	0.59314 0.67579 0.14766 0.11200
N 	N 	0.56756 0.63155 0.14743 -0.05600
N 	N 	0.56185 0.60911 0.11842 -0.05000
C 	C 	0.58153 0.63031 0.08889 0.09200
N 	N 	0.60671 0.67449 0.08901 -0.05000
N 	N 	0.61242 0.69693 0.11797 -0.05500
C 	C 	0.62820 0.74303 0.24094 0.09200
N 	N 	0.64513 0.76467 0.21097 -0.05000
N 	N 	0.63243 0.74360 0.18100 -0.05600
C 	C 	0.60266 0.70021 0.18018 0.11300
N 	N 	0.58460 0.67895 0.21010 -0.05500
N 	N 	0.59724 0.70007 0.24005 -0.05300
C 	C 	0.81318 0.49881 0.00791 0.11400
N 	N 	0.85161 0.52604 0.02379 -0.05800
N 	N 	0.88318 0.51586 0.02526 -0.04500
C 	C 	0.87700 0.47801 0.01113 0.06100
N 	N 	0.83814 0.45027 0.99613 -0.04500
N 	N 	0.80679 0.46064 0.99437 -0.05800
C 	C 	0.71923 0.53561 0.99313 0.07100
N 	N 	0.72236 0.50766 0.97093 -0.04500
N 	N 	0.75228 0.49582 0.97580 -0.05700
C 	C 	0.78034 0.51204 0.00276 0.11400
N 	N 	0.77758 0.54042 0.02481 -0.05800
N 	N 	0.74718 0.55179 0.02021 -0.04600
C 	C 	0.27286 0.49178 0.00074 0.11500
N 	N 	0.25717 0.51560 0.98535 -0.05900
N 	N 	0.21443 0.50133 0.98533 -0.04700
C 	C 	0.18626 0.46309 0.00102 0.07100
N 	N 	0.20197 0.43941 0.01664 -0.04600
N 	N 	0.24466 0.45336 0.01622 -0.05700
C 	C 	0.40586 0.53385 0.99655 0.06100
N 	N 	0.37613 0.49068 0.99964 -0.04600
N 	N 	0.33366 0.47732 0.00147 -0.05600
C 	C 	0.31967 0.50670 0.99974 0.11000
N 	N 	0.34937 0.54990 0.99648 -0.05700
N 	N 	0.39194 0.56333 0.99518 -0.04700
C 	C 	0.64305 0.59654 0.84585 0.11300
N 	N 	0.66398 0.59612 0.87501 -0.05500
N 	N 	0.64354 0.58733 0.90528 -0.05300
C 	C 	0.60154 0.57841 0.90724 0.09400
N 	N 	0.58018 0.57755 0.87797 -0.05000
N 	N 	0.60059 0.58634 0.84767 -0.05600
C 	C 	0.71248 0.64416 0.75418 0.09300
N 	N 	0.66913 0.63034 0.75537 -0.05000
N 	N 	0.64672 0.61412 0.78442 -0.05500
C 	C 	0.66708 0.61133 0.81314 0.11300
N 	N 	0.71046 0.62491 0.81186 -0.05600
N 	N 	0.73285 0.64109 0.78275 -0.05100
C 	C 	0.83904 0.96153 0.66517 0.11400
N 	N 	0.81031 0.93074 0.68725 -0.05800
N 	N 	0.79979 0.88904 0.68371 -0.04700
C 	C 	0.81727 0.87700 0.65773 0.07200
N 	N 	0.84576 0.90777 0.63560 -0.04500
N 	N 	0.85671 0.94946 0.63939 -0.05600
C 	C 	0.86882 0.09130 0.67047 0.06000
N 	N 	0.89654 0.08073 0.65469 -0.04400
N 	N 	0.88745 0.03934 0.65368 -0.05700
C 	C 	0.85064 0.00740 0.66878 0.11200
N 	N 	0.82337 0.01807 0.68525 -0.05800
N 	N 	0.83227 0.05946 0.68599 -0.04500
C 	C 	0.81238 0.48760 0.65996 0.11300
N 	N 	0.83655 0.52348 0.64022 -0.05800
N 	N 	0.82633 0.55496 0.63836 -0.04400
C 	C 	0.79141 0.55123 0.65591 0.06000
N 	N 	0.76650 0.51477 0.67485 -0.04400
N 	N 	0.77696 0.48349 0.67698 -0.05700
C 	C 	0.85327 0.39685 0.67496 0.07100
N 	N 	0.82528 0.39938 0.69749 -0.04500
N 	N 	0.81176 0.42799 0.69241 -0.05600
C 	C 	0.82610 0.45511 0.66479 0.11300
N 	N 	0.85436 0.45281 0.64236 -0.05700
N 	N 	0.86750 0.42382 0.64723 -0.04600
C 	C 	0.74130 0.75740 0.47898 0.11200
N 	N 	0.74381 0.73893 0.44906 -0.05500
N 	N 	0.72909 0.74668 0.41986 -0.05100
C 	C 	0.71153 0.77315 0.41972 0.09100
N 	N 	0.70971 0.79228 0.44946 -0.05000
N 	N 	0.72457 0.78467 0.47868 -0.05700
C 	C 	0.76469 0.71578 0.57285 0.09400
N 	N 	0.75704 0.74975 0.57165 -0.05400
N 	N 	0.75131 0.76423 0.54154 -0.05600
C 	C 	0.75291 0.74502 0.51175 0.11300
N 	N 	0.76166 0.71170 0.51290 -0.05600
N 	N 	0.76731 0.69719 0.54307 -0.05000
C 	C 	0.48731 0.84425 0.35187 0.11300
N 	N 	0.53026 0.87404 0.35594 -0.05800
N 	N 	0.55989 0.86128 0.35668 -0.04500
C 	C 	0.54752 0.81844 0.35284 0.06100
N 	N 	0.50452 0.78854 0.34892 -0.04600
N 	N 	0.47476 0.80125 0.34870 -0.05700
C 	C 	0.39592 0.88566 0.34486 0.07100
N 	N 	0.38424 0.84568 0.35805 -0.04700
N 	N 	0.41335 0.83226 0.36007 -0.05700
C 	C 	0.45508 0.85871 0.34939 0.11300
N 	N 	0.46688 0.89889 0.33661 -0.05700
N 	N 	0.43758 0.91200 0.33404 -0.04700
C 	C 	0.98876 0.84750 0.31328 0.11900
N 	N 	0.00209 0.81799 0.30817 -0.06000
N 	N 	0.04449 0.83078 0.30793 -0.04500
C 	C 	0.07480 0.87335 0.31332 0.06100
N 	N 	0.06154 0.90300 0.31827 -0.04600
N 	N 	0.01908 0.89028 0.31800 -0.06000
C 	C 	0.85581 0.80579 0.31908 0.07100
N 	N 	0.88447 0.84659 0.30755 -0.04600
N 	N 	0.92703 0.86007 0.30588 -0.05700
C 	C 	0.94200 0.83290 0.31526 0.11200
N 	N 	0.91326 0.79191 0.32636 -0.05600
N 	N 	0.87081 0.77870 0.32858 -0.04600
C 	C 	0.14450 0.14965 0.31684 0.11300
N 	N 	0.10803 0.14524 0.33224 -0.05800
N 	N 	0.09823 0.17697 0.32991 -0.04500
C 	C 	0.12480 0.21419 0.31236 0.06000
N 	N 	0.16063 0.21812 0.29613 -0.04500
N 	N 	0.17026 0.18620 0.29823 -0.05800
C 	C 	0.18463 0.05896 0.33588 0.07100
N 	N 	0.19973 0.08531 0.30780 -0.04700
N 	N 	0.18688 0.11431 0.30162 -0.05800
C 	C 	0.15801 0.11717 0.32303 0.11200
N 	N 	0.14273 0.09059 0.35092 -0.05700
N 	N 	0.15602 0.06206 0.35735 -0.04500
C 	C 	0.16635 0.66394 0.34682 0.11300
N 	N 	0.13598 0.67654 0.34953 -0.05800
N 	N 	0.14802 0.71876 0.34889 -0.04400
C 	C 	0.19072 0.74959 0.34513 0.06000
N 	N 	0.22118 0.73706 0.34242 -0.04600
N 	N 	0.20917 0.69478 0.34340 -0.05700
C 	C 	0.12797 0.53158 0.34674 0.07000
N 	N 	0.17020 0.56214 0.35310 -0.04600
N 	N 	0.18252 0.60447 0.35308 -0.05700
C 	C 	0.15287 0.61738 0.34696 0.11200
N 	N 	0.11053 0.58678 0.34097 -0.05700
N 	N 	0.09831 0.54448 0.34064 -0.04600
C 	C 	0.35511 0.94803 0.15499 0.11300
N 	N 	0.33437 0.92807 0.12537 -0.05500
N 	N 	0.35497 0.94115 0.09526 -0.05300
C 	C 	0.39695 0.97438 0.09390 0.09400
N 	N 	0.41811 0.99358 0.12357 -0.05000
N 	N 	0.39754 0.98048 0.15372 -0.05600
C 	C 	0.28500 0.92315 0.24657 0.09100
N 	N 	0.32888 0.95052 0.24628 -0.05000
N 	N 	0.35150 0.95745 0.21724 -0.05500
C 	C 	0.33084 0.93725 0.18765 0.11200
N 	N 	0.28697 0.90937 0.18808 -0.05700
N 	N 	0.26435 0.90251 0.21714 -0.05100
C 	C 	0.22000 0.73096 0.99256 0.11100
N 	N 	0.24744 0.74191 0.01986 -0.05600
N 	N 	0.27689 0.78356 0.02590 -0.04500
C 	C 	0.28022 0.81545 0.00453 0.07200
N 	N 	0.25287 0.80457 0.97710 -0.04800
N 	N 	0.22289 0.76288 0.97135 -0.05800
C 	C 	0.12477 0.60002 0.98201 0.06000
N 	N 	0.11760 0.63175 0.96937 -0.04600
N 	N 	0.14881 0.67366 0.97124 -0.05900
C 	C 	0.18789 0.68492 0.98600 0.11300
N 	N 	0.19537 0.65309 0.99778 -0.05800
N 	N 	0.16435 0.61127 0.99565 -0.04500
C 	C 	0.72719 0.21974 0.00603 0.11400
N 	N 	0.75536 0.20969 0.99031 -0.05800
N 	N 	0.79790 0.23887 0.98911 -0.04700
C 	C 	0.81356 0.27857 0.00421 0.07200
N 	N 	0.78546 0.28844 0.02029 -0.04600
N 	N 	0.74283 0.25950 0.02103 -0.05700
C 	C 	0.59423 0.12805 0.00851 0.06100
N 	N 	0.60785 0.17139 0.01010 -0.04600
N 	N 	0.65041 0.20076 0.00974 -0.05700
C 	C 	0.68042 0.18756 0.00731 0.11300
N 	N 	0.66673 0.14425 0.00553 -0.05700
N 	N 	0.62426 0.11491 0.00641 -0.04400
C 	C 	0.49125 0.28826 0.01345 0.11400
N 	N 	0.51663 0.27211 0.02498 -0.05700
N 	N 	0.50247 0.22939 0.02298 -0.04700
C 	C 	0.46280 0.20178 0.00898 0.07200
N 	N 	0.43760 0.21800 0.99724 -0.04700
N 	N 	0.45141 0.26057 0.99982 -0.05800
C 	C 	0.53223 0.42110 0.01863 0.06200
N 	N 	0.48955 0.39071 0.02333 -0.04500
N 	N 	0.47660 0.34829 0.02203 -0.05800
C 	C 	0.50605 0.33498 0.01661 0.11300
N 	N 	0.54895 0.36534 0.01258 -0.05700
N 	N 	0.56183 0.40786 0.01331 -0.04500
C 	C 	0.50886 0.79733 0.98865 0.11200
N 	N 	0.54869 0.80955 0.00235 -0.05600
N 	N 	0.56242 0.78076 0.00517 -0.04600
C 	C 	0.53714 0.73924 0.99363 0.07000
N 	N 	0.49750 0.72712 0.97958 -0.04700
N 	N 	0.48341 0.75570 0.97734 -0.05800
C 	C 	0.46773 0.88901 0.98274 0.06200
N 	N 	0.43813 0.84613 0.98788 -0.04600
N 	N 	0.45109 0.81657 0.98887 -0.05800
C 	C 	0.49406 0.82923 0.98533 0.11300
N 	N 	0.52354 0.87204 0.98008 -0.05800
N 	N 	0.51051 0.90144 0.97852 -0.04500
C 	C 	0.39507 0.09535 0.82149 0.11300
N 	N 	0.41526 0.09460 0.79199 -0.05600
N 	N 	0.40239 0.10211 0.76178 -0.05300
C 	C 	0.36913 0.11080 0.76020 0.09300
N 	N 	0.34974 0.11279 0.78975 -0.05000
N 	N 	0.36263 0.10533 0.82000 -0.05600
C 	C 	0.41916 0.04993 0.91329 0.09200
N 	N 	0.39140 0.06597 0.91271 -0.05000
N 	N 	0.38471 0.08172 0.88361 -0.05600
C 	C 	0.40555 0.08179 0.85424 0.11200
N 	N 	0.43377 0.06622 0.85494 -0.05700
N 	N 	0.44042 0.05043 0.88407 -0.05100
C 	C 	0.66086 0.19632 0.65358 0.11300
N 	N 	0.67224 0.16981 0.63668 -0.05800
N 	N 	0.71409 0.18043 0.63461 -0.04500
C 	C 	0.74570 0.21799 0.64918 0.06100
N 	N 	0.73438 0.24508 0.66510 -0.04400
N 	N 	0.69258 0.23431 0.66741 -0.05700
C 	C 	0.52994 0.15735 0.67111 0.07100
N 	N 	0.56143 0.18557 0.69292 -0.04500
N 	N 	0.60321 0.19811 0.68715 -0.05600
C 	C 	0.61470 0.18235 0.65966 0.11300
N 	N 	0.58317 0.15374 0.63797 -0.05800
N 	N 	0.54135 0.14166 0.64348 -0.04700
C 	C 	0.15381 0.17723 0.66805 0.11300
N 	N 	0.14084 0.13436 0.67292 -0.05800
N 	N 	0.17036 0.12143 0.67485 -0.04700
C 	C 	0.21361 0.15115 0.67254 0.06100
N 	N 	0.22652 0.19402 0.66800 -0.04500
N 	N 	0.19703 0.20682 0.66548 -0.05800
C 	C 	0.06312 0.21949 0.66178 0.07000
N 	N 	0.10122 0.24056 0.64403 -0.04700
N 	N 	0.13023 0.22704 0.64608 -0.05700
C 	C 	0.12150 0.19150 0.66532 0.11300
N 	N 	0.08323 0.17021 0.68286 -0.05800
N 	N 	0.05454 0.18418 0.68128 -0.04700
C 	C 	0.05716 0.88625 0.68105 0.11400
N 	N 	0.07290 0.92757 0.69300 -0.05800
N 	N 	0.11545 0.95662 0.69084 -0.04700
C 	C 	0.14333 0.94534 0.67622 0.07100
N 	N 	0.12756 0.90406 0.66420 -0.04700
N 	N 	0.08514 0.87479 0.66691 -0.05800
C 	C 	0.92384 0.79510 0.68337 0.06300
N 	N 	0.95376 0.78182 0.68580 -0.04500
C 	C 	0.01023 0.85432 0.68304 0.10700
N 	N 	0.98031 0.86770 0.68124 -0.05400
N 	N 	0.93770 0.83847 0.68112 -0.04600
C 	C 	0.51102 0.35508 0.65336 0.11300
N 	N 	0.46767 0.34098 0.65125 -0.05800
N 	N 	0.43880 0.29840 0.64947 -0.04600
C 	C 	0.45237 0.26862 0.65041 0.06200
N 	N 	0.49577 0.28266 0.65256 -0.04600
N 	N 	0.52474 0.32536 0.65370 -0.05700
C 	C 	0.59974 0.48851 0.66204 0.07100
N 	N 	0.61008 0.46250 0.64330 -0.04700
N 	N 	0.58198 0.41971 0.64088 -0.05800
C 	C 	0.54252 0.40191 0.65674 0.11300
N 	N 	0.53197 0.42803 0.67510 -0.05700
N 	N 	0.56041 0.47064 0.67809 -0.04700
C 	C 	0.24722 0.98818 0.48782 0.11500
N 	N 	0.24891 0.00935 0.45820 -0.05700
N 	N 	0.24077 0.98867 0.42808 -0.05200
C 	C 	0.23050 0.94620 0.42670 0.09400
N 	N 	0.22744 0.92462 0.45638 -0.05000
N 	N 	0.23553 0.94526 0.48654 -0.05600
C 	C 	0.29491 0.05791 0.57930 0.09100
N 	N 	0.27769 0.01392 0.57888 -0.05100
N 	N 	0.26129 0.99147 0.54987 -0.05400
C 	C 	0.26169 0.01240 0.52045 0.11000
N 	N 	0.27852 0.05642 0.52100 -0.05600
N 	N 	0.29493 0.07886 0.55004 -0.05100
