data_crystal

_cell_length_a 18.41150
_cell_length_b 18.92773
_cell_length_c 34.68955
_cell_angle_alpha 95.43016
_cell_angle_beta  95.43057
_cell_angle_gamma 126.40637

_symmetry_space_group_name_	'P 1'
_symmetry_space_group_name_H-M	'P 1'

loop_
_symmetry_equiv_pos_as_xyz
  x,y,z

loop_
_atom_site_label
_atom_site_type_symbol
_atom_site_fract_x
_atom_site_fract_y
_atom_site_fract_z
_atom_site_charge
C 	C 	0.94919 0.01913 0.97170 0.12700
N 	N 	0.03967 0.06929 0.96970 -0.12900
C 	C 	0.08513 0.03349 0.97158 0.13200
N 	N 	0.03950 0.94632 0.97418 -0.12200
C 	C 	0.94893 0.89508 0.97613 0.14200
N 	N 	0.90326 0.93147 0.97494 -0.12000
C 	C 	0.90091 0.00258 0.49942 0.12800
N 	N 	0.99149 0.04333 0.49915 -0.12500
C 	C 	0.02314 0.99403 0.49802 0.13800
N 	N 	0.96440 0.90480 0.49679 -0.12200
C 	C 	0.87419 0.86439 0.49645 0.13700
N 	N 	0.84245 0.91306 0.49759 -0.12200
Cu	Cu	0.79804 0.36640 0.95994 0.93500
Cu	Cu	0.76140 0.27389 0.03813 0.88700
Cu	Cu	0.65536 0.33115 0.00841 0.90700
Cu	Cu	0.62363 0.35389 0.92528 0.91700
C 	C 	0.74447 0.34693 0.87648 0.30100
O 	O 	0.84530 0.49710 0.96150 -0.29800
C 	C 	0.69209 0.33441 0.09285 0.29800
O 	O 	0.65473 0.29299 0.95409 -0.63200
O 	O 	0.78421 0.37387 0.01544 -0.63900
O 	O 	0.85922 0.30686 0.96426 -0.32600
O 	O 	0.74538 0.19985 0.99219 -0.40700
O 	O 	0.70372 0.38297 0.88529 -0.31200
O 	O 	0.53192 0.29767 0.00100 -0.32200
C 	C 	0.47143 0.25586 0.96771 0.29100
C 	C 	0.79713 0.52519 0.97130 0.27700
O 	O 	0.70995 0.46693 0.97308 -0.37300
O 	O 	0.49571 0.27934 0.93388 -0.35100
O 	O 	0.79069 0.33779 0.90432 -0.31700
C 	C 	0.81463 0.22734 0.97413 0.28700
O 	O 	0.66148 0.35878 0.06503 -0.30500
O 	O 	0.75319 0.32054 0.08773 -0.37500
H 	H 	0.61560 0.22735 0.94522 0.18300
H 	H 	0.82836 0.43344 0.03263 0.19500
Cu	Cu	0.58387 0.19462 0.50512 0.93300
Cu	Cu	0.63483 0.17519 0.41784 0.92400
Cu	Cu	0.59645 0.31558 0.44941 0.91900
Cu	Cu	0.55175 0.33927 0.52806 0.90900
C 	C 	0.61240 0.27099 0.58658 0.30500
O 	O 	0.44624 0.12032 0.50550 -0.33300
C 	C 	0.61171 0.27966 0.37125 0.30700
O 	O 	0.63337 0.32771 0.50484 -0.63300
O 	O 	0.56000 0.19252 0.44768 -0.62200
O 	O 	0.67492 0.16796 0.50791 -0.30700
O 	O 	0.62759 0.09046 0.44495 -0.36700
O 	O 	0.55707 0.29143 0.57605 -0.35700
O 	O 	0.64139 0.43755 0.45222 -0.35300
C 	C 	0.64013 0.48438 0.48243 0.29500
C 	C 	0.39833 0.14719 0.49246 0.28400
O 	O 	0.44077 0.22746 0.48435 -0.38100
O 	O 	0.58175 0.44522 0.50642 -0.36500
O 	O 	0.61778 0.21768 0.56163 -0.28900
C 	C 	0.67744 0.11721 0.48024 0.28300
O 	O 	0.56831 0.29847 0.39270 -0.34400
O 	O 	0.67156 0.27053 0.38867 -0.34100
H 	H 	0.69938 0.37607 0.51536 0.20600
H 	H 	0.49439 0.14694 0.43549 0.19100
C 	C 	0.75864 0.31302 0.68393 0.03400
C 	C 	0.70174 0.30327 0.71049 0.09700
C 	C 	0.61827 0.28905 0.69676 -0.10600
C 	C 	0.58916 0.27559 0.65600 0.07700
C 	C 	0.64591 0.28515 0.62927 0.00300
C 	C 	0.73409 0.30923 0.64368 -0.06800
C 	C 	0.73376 0.31529 0.75315 0.09200
C 	C 	0.56308 0.29360 0.72554 0.78900
H 	H 	0.52248 0.25836 0.64495 0.09300
C 	C 	0.80170 0.32952 0.61648 0.77900
H 	H 	0.82298 0.32517 0.69485 0.12000
C 	C 	0.70336 0.24094 0.77154 -0.10100
C 	C 	0.71185 0.25262 0.81286 0.07900
C 	C 	0.75806 0.33823 0.83562 0.00700
C 	C 	0.80578 0.41395 0.81742 -0.06100
C 	C 	0.78969 0.40159 0.77607 0.03900
C 	C 	0.66139 0.14974 0.74729 0.79000
H 	H 	0.67921 0.19508 0.82715 0.08200
C 	C 	0.86949 0.50788 0.84171 0.77900
H 	H 	0.81718 0.45880 0.76173 0.11300
F 	F 	0.89040 0.37745 0.63765 -0.41600
F 	F 	0.80184 0.38023 0.59021 -0.45200
F 	F 	0.77808 0.25035 0.59584 -0.42400
F 	F 	0.61606 0.37732 0.74941 -0.42400
F 	F 	0.53634 0.22977 0.74884 -0.40400
F 	F 	0.48460 0.27885 0.70624 -0.41900
F 	F 	0.93379 0.56641 0.82074 -0.41300
F 	F 	0.91671 0.51026 0.87593 -0.42600
F 	F 	0.81886 0.53678 0.85135 -0.42000
F 	F 	0.65065 0.09041 0.77097 -0.41800
F 	F 	0.71784 0.15723 0.72169 -0.42100
F 	F 	0.57618 0.11481 0.72574 -0.39600
C 	C 	0.56885 0.29179 0.17962 0.03100
C 	C 	0.64300 0.33281 0.21124 0.09800
C 	C 	0.73402 0.38252 0.20404 -0.10600
C 	C 	0.74838 0.38810 0.16499 0.07600
C 	C 	0.67399 0.34211 0.13313 0.00300
C 	C 	0.58298 0.29461 0.14042 -0.06800
C 	C 	0.62383 0.31405 0.25112 0.09100
C 	C 	0.81515 0.42152 0.23737 0.78900
H 	H 	0.81761 0.42485 0.15910 0.09200
C 	C 	0.50104 0.24814 0.10670 0.77700
H 	H 	0.49975 0.25493 0.18566 0.12300
C 	C 	0.61566 0.36941 0.27779 -0.10000
C 	C 	0.61068 0.35656 0.31708 0.08100
C 	C 	0.60634 0.28540 0.32896 0.00300
C 	C 	0.59982 0.22208 0.30047 -0.06700
C 	C 	0.61380 0.23992 0.26236 0.03900
C 	C 	0.60866 0.43943 0.26407 0.78900
H 	H 	0.61168 0.40261 0.33863 0.09300
C 	C 	0.57995 0.13652 0.31055 0.77300
H 	H 	0.61749 0.19641 0.24137 0.11300
F 	F 	0.50358 0.31146 0.08866 -0.42800
F 	F 	0.41846 0.19763 0.11974 -0.42300
F 	F 	0.50275 0.19127 0.07931 -0.45900
F 	F 	0.81306 0.35303 0.24963 -0.42000
F 	F 	0.81194 0.46933 0.26894 -0.39600
F 	F 	0.89811 0.47901 0.22551 -0.41000
F 	F 	0.54467 0.07222 0.27686 -0.41400
F 	F 	0.51590 0.10133 0.33497 -0.47100
F 	F 	0.66032 0.15403 0.32910 -0.44300
F 	F 	0.60171 0.48670 0.29454 -0.41400
F 	F 	0.53138 0.39814 0.23500 -0.41800
F 	F 	0.68548 0.49982 0.24906 -0.39200
C 	C 	0.69547 0.58151 0.48629 -0.06400
C 	C 	0.75518 0.63570 0.52207 0.01300
C 	C 	0.81289 0.72858 0.52596 -0.01300
C 	C 	0.81064 0.76778 0.49380 0.00800
C 	C 	0.74860 0.71388 0.45848 -0.02900
C 	C 	0.69087 0.62091 0.45452 0.03500
H 	H 	0.75769 0.60531 0.54666 0.05600
H 	H 	0.74609 0.74445 0.43396 0.08100
C 	C 	0.62587 0.56660 0.41815 0.11600
C 	C 	0.87382 0.78335 0.56314 0.11900
N 	N 	0.57385 0.52313 0.38903 -0.05800
N 	N 	0.92265 0.82728 0.59289 -0.07700
C 	C 	0.86462 0.05399 0.50001 0.01000
C 	C 	0.86329 0.09117 0.46713 -0.02700
C 	C 	0.80462 0.11489 0.46090 0.03100
C 	C 	0.74559 0.10011 0.48768 -0.05000
C 	C 	0.75371 0.07123 0.52246 0.02200
C 	C 	0.81360 0.04912 0.52895 -0.00600
H 	H 	0.90464 0.09762 0.44541 0.07700
H 	H 	0.71200 0.06421 0.54410 0.09100
C 	C 	0.82141 0.02010 0.56513 0.12100
C 	C 	0.80736 0.15650 0.42767 0.08700
N 	N 	0.82770 0.99682 0.59409 -0.06500
N 	N 	0.80971 0.18989 0.40106 -0.07300
C 	C 	0.12014 0.03607 0.49680 -0.00100
C 	C 	0.17638 0.04363 0.52972 -0.02900
C 	C 	0.26542 0.07210 0.52771 0.02300
C 	C 	0.29903 0.09348 0.49232 -0.06300
C 	C 	0.24112 0.08214 0.45894 0.01100
C 	C 	0.15249 0.05457 0.46110 -0.01300
H 	H 	0.15042 0.02659 0.55685 0.07400
H 	H 	0.26664 0.09850 0.43168 0.06100
C 	C 	0.09508 0.04536 0.42653 0.11300
C 	C 	0.32252 0.08124 0.56239 0.10600
N 	N 	0.04905 0.03797 0.39886 -0.08300
N 	N 	0.36817 0.08848 0.59018 -0.07000
C 	C 	0.90061 0.79963 0.97885 0.01000
C 	C 	0.82720 0.73314 0.94875 -0.02200
C 	C 	0.79438 0.64381 0.94545 0.03200
C 	C 	0.83534 0.62010 0.97263 -0.03500
C 	C 	0.90670 0.68601 0.00348 0.00700
C 	C 	0.93842 0.77508 0.00715 -0.00300
H 	H 	0.79791 0.75142 0.92692 0.08000
H 	H 	0.93638 0.66777 0.02513 0.06300
C 	C 	0.00870 0.84066 0.04042 0.11300
C 	C 	0.71975 0.57725 0.91366 0.12300
N 	N 	0.06502 0.89324 0.06706 -0.07100
N 	N 	0.65986 0.52405 0.88819 -0.07600
C 	C 	0.85288 0.17713 0.97243 -0.06200
C 	C 	0.81538 0.10476 0.94132 0.01900
C 	C 	0.84087 0.04788 0.94206 -0.02500
C 	C 	0.90429 0.06304 0.97435 0.01500
C 	C 	0.93969 0.13399 0.00589 -0.03700
C 	C 	0.91508 0.19128 0.00496 0.02400
H 	H 	0.76558 0.09206 0.91674 0.06300
H 	H 	0.98898 0.14641 0.03065 0.07700
C 	C 	0.95408 0.26460 0.03756 0.07600
C 	C 	0.80241 0.97486 0.90940 0.13200
N 	N 	0.98528 0.32333 0.06368 -0.09300
N 	N 	0.77163 0.91631 0.88325 -0.07900
C 	C 	0.37297 0.19706 0.96942 -0.04600
C 	C 	0.34002 0.22295 0.99804 0.02600
C 	C 	0.24636 0.16929 0.99951 -0.00300
C 	C 	0.18429 0.08956 0.97151 0.00900
C 	C 	0.21742 0.06267 0.94346 -0.02500
C 	C 	0.31134 0.11545 0.94247 0.02700
H 	H 	0.38732 0.28524 0.01903 0.09900
H 	H 	0.16992 0.00057 0.92237 0.07700
C 	C 	0.34424 0.08404 0.91454 0.10500
C 	C 	0.21493 0.19511 0.03058 0.13000
N 	N 	0.37059 0.05888 0.89218 -0.08000
N 	N 	0.18977 0.21578 0.05546 -0.07900
