data_crystal

_cell_length_a 24.16144
_cell_length_b 19.11144
_cell_length_c 53.67606
_cell_angle_alpha 90.55102
_cell_angle_beta  91.20847
_cell_angle_gamma 110.65296

_symmetry_space_group_name_	'P 1'
_symmetry_space_group_name_H-M	'P 1'

loop_
_symmetry_equiv_pos_as_xyz
  x,y,z

loop_
_atom_site_label
_atom_site_type_symbol
_atom_site_fract_x
_atom_site_fract_y
_atom_site_fract_z
_atom_site_charge
Ni	Ni	0.04116 0.92893 0.74116 1.09900
O 	O 	0.04640 0.87415 0.70888 -0.70300
O 	O 	0.04265 0.99026 0.77283 -0.36600
H 	H 	0.04467 0.03619 0.71441 0.15300
C 	C 	0.05660 0.83989 0.65112 0.24700
C 	C 	0.04253 0.05943 0.77171 0.25600
O 	O 	0.02313 0.14092 0.20155 -0.39900
C 	C 	0.03439 0.30950 0.14708 0.01500
N 	N 	0.05724 0.20756 0.15442 -0.15200
H 	H 	0.08528 0.17967 0.16039 0.09100
C 	C 	0.02693 0.51162 0.52104 -0.04100
H 	H 	0.02728 0.51534 0.54122 0.04200
C 	C 	0.06525 0.78773 0.63278 0.00300
H 	H 	0.03758 0.20029 0.79127 0.04900
C 	C 	0.02688 0.50379 0.46872 -0.00700
O 	O 	0.07544 0.01467 0.71829 -0.70500
H 	H 	0.06849 0.83974 0.71129 0.15400
Ni	Ni	0.01501 0.13025 0.23951 1.06300
C 	C 	0.01664 0.98745 0.21840 0.26500
C 	C 	0.07623 0.27561 0.14425 0.07400
C 	C 	0.05109 0.38763 0.14826 -0.08800
H 	H 	0.01834 0.41391 0.15026 0.05100
C 	C 	0.02967 0.87294 0.20080 -0.04800
H 	H 	0.02880 0.77462 0.16135 0.05200
H 	H 	0.01233 0.38808 0.33786 0.05000
C 	C 	0.02667 0.50013 0.44247 0.01700
C 	C 	0.03855 0.49033 0.98580 0.01300
C 	C 	0.03657 0.43518 0.96797 -0.04000
C 	C 	0.04136 0.59954 0.02186 -0.02000
H 	H 	0.04221 0.64077 0.03604 0.05000
C 	C 	0.05456 0.71332 0.63836 -0.05500
Ni	Ni	0.09246 0.96071 0.68809 1.09800
O 	O 	0.08424 0.11270 0.75985 -0.39900
O 	O 	0.10217 0.89914 0.65848 -0.36800
O 	O 	0.02420 0.12890 0.27838 -0.40600
O 	O 	0.02889 0.03060 0.23844 -0.41300
C 	C 	0.06731 0.82445 0.16490 -0.08500
C 	C 	0.07541 0.86389 0.18771 0.01300
C 	C 	0.05313 0.94241 0.21279 -0.00300
C 	C 	0.04258 0.36170 0.34465 -0.08400
C 	C 	0.01024 0.18809 0.31621 0.00600
C 	C 	0.07860 0.54990 0.50833 -0.04200
C 	C 	0.07877 0.54686 0.48216 0.01500
C 	C 	0.03085 0.28497 0.34052 0.07500
O 	O 	0.11763 0.91276 0.75221 -0.37700
C 	C 	0.13646 0.31881 0.14270 -0.08500
C 	C 	0.02824 0.76369 0.34045 0.07800
H 	H 	0.08332 0.70541 0.32842 0.08700
C 	C 	0.07789 0.54034 0.42978 -0.02400
H 	H 	0.07797 0.53711 0.40958 0.04900
C 	C 	0.08774 0.57132 0.02096 -0.06600
C 	C 	0.08672 0.51797 0.00261 -0.02600
H 	H 	0.07289 0.41459 0.96676 0.03500
H 	H 	0.09958 0.75132 0.12722 0.09300
C 	C 	0.11124 0.43086 0.14586 0.07300
H 	H 	0.16919 0.29246 0.14072 0.05000
H 	H 	0.10118 0.52240 0.12693 0.09400
N 	N 	0.11114 0.97505 0.20782 -0.14700
H 	H 	0.10251 0.52029 0.35820 0.04800
N 	N 	0.07942 0.75531 0.33477 -0.15300
H 	H 	0.11828 0.58250 0.51883 0.03900
C 	C 	0.12483 0.92826 0.19226 0.07000
Ni	Ni	0.14086 0.09296 0.73542 1.06900
O 	O 	0.15409 0.05616 0.67482 -0.37500
C 	C 	0.13537 0.59300 0.04016 0.27400
C 	C 	0.15333 0.39684 0.14406 0.00800
N 	N 	0.12974 0.49700 0.13424 -0.15200
C 	C 	0.10968 0.85249 0.14662 0.07900
N 	N 	0.12151 0.80909 0.12915 -0.15200
C 	C 	0.07506 0.25488 0.34465 0.01200
C 	C 	0.09673 0.40368 0.35635 0.00900
C 	C 	0.06228 0.19332 0.32889 -0.05000
C 	C 	0.03906 0.82865 0.35444 0.01300
C 	C 	0.12898 0.58549 0.44304 -0.06000
C 	C 	0.12971 0.58763 0.46924 -0.02700
H 	H 	0.12302 0.49713 0.00175 0.01600
C 	C 	0.12429 0.48029 0.35512 -0.04400
O 	O 	0.16584 0.03513 0.76237 -0.38600
C 	C 	0.16670 0.96803 0.75825 0.26500
O 	O 	0.15376 0.66071 0.05016 -0.37900
H 	H 	0.01241 0.92432 0.36074 0.05500
O 	O 	0.15213 0.54078 0.05020 -0.40700
H 	H 	0.13379 0.03288 0.20861 0.07500
H 	H 	0.09468 0.17096 0.32208 0.04500
C 	C 	0.12342 0.81318 0.34576 -0.00100
C 	C 	0.20349 0.09011 0.68768 0.24300
O 	O 	0.17288 0.65754 0.40731 -0.38000
C 	C 	0.15862 0.91690 0.15109 0.00700
C 	C 	0.14092 0.37410 0.35989 0.07700
C 	C 	0.09983 0.86171 0.35727 -0.04800
H 	H 	0.16930 0.62208 0.47946 0.04200
C 	C 	0.13233 0.30045 0.35248 -0.08600
O 	O 	0.20551 0.08211 0.71205 -0.41200
C 	C 	0.18113 0.63109 0.42932 0.28700
O 	O 	0.18407 0.74591 0.09661 -0.36000
C 	C 	0.18325 0.50542 0.12485 -0.00400
C 	C 	0.16845 0.95420 0.17425 -0.07600
C 	C 	0.17789 0.84581 0.12246 0.00100
H 	H 	0.19875 0.92860 0.80360 0.09200
C 	C 	0.19959 0.44469 0.13098 -0.05000
O 	O 	0.17595 0.73699 0.36127 -0.36800
O 	O 	0.18234 0.60006 0.09561 -0.36300
C 	C 	0.18446 0.49440 0.35939 -0.00400
C 	C 	0.21947 0.95156 0.76565 0.00300
H 	H 	0.04029 0.68927 0.65637 0.02400
C 	C 	0.17830 0.80443 0.35497 0.24600
C 	C 	0.20543 0.55027 0.10261 0.26000
N 	N 	0.19414 0.42899 0.36116 -0.15200
H 	H 	0.16919 0.28082 0.35149 0.05000
H 	H 	0.12233 0.90354 0.37139 0.04900
N 	N 	0.22833 0.93293 0.78924 -0.15000
O 	O 	0.23661 0.55340 0.39663 -0.39400
C 	C 	0.22180 0.56109 0.37341 0.28100
C 	C 	0.21195 0.81151 0.10734 0.25200
H 	H 	0.22997 0.42662 0.12037 0.04800
C 	C 	0.20262 0.91286 0.13575 -0.04600
H 	H 	0.20707 0.00397 0.17772 0.04100
H 	H 	0.23714 0.19350 0.64759 0.04400
O 	O 	0.23229 0.62732 0.36384 -0.39300
O 	O 	0.23475 0.64283 0.43880 -0.41900
Ni	Ni	0.22511 0.69193 0.07424 1.09600
C 	C 	0.25901 0.12041 0.67429 0.00100
Ni	Ni	0.23836 0.72076 0.38438 1.09900
O 	O 	0.22326 0.86450 0.36262 -0.40500
Ni	Ni	0.23739 0.54413 0.05026 1.06400
C 	C 	0.26682 0.16525 0.65350 -0.04500
O 	O 	0.24040 0.53134 0.08783 -0.41600
H 	H 	0.23245 0.42320 0.36876 0.08300
C 	C 	0.27320 0.98353 0.75396 -0.05400
H 	H 	0.28040 0.02281 0.73890 0.04500
O 	O 	0.02699 0.98199 0.66778 -0.36500
O 	O 	0.26322 0.85489 0.09908 -0.40500
H 	H 	0.24958 0.94096 0.13944 0.03300
C 	C 	0.28722 0.95237 0.79281 0.07500
O 	O 	0.27764 0.65312 0.05350 -0.70100
H 	H 	0.28544 0.67717 0.03705 0.15200
H 	H 	0.29053 0.95870 0.83326 0.05500
N 	N 	0.05699 0.79495 0.60810 -0.15000
C 	C 	0.00421 0.19805 0.16439 0.01300
N 	N 	0.31106 0.11758 0.68295 -0.15300
Ni	Ni	0.30031 0.63123 0.41813 1.07000
H 	H 	0.29600 0.75150 0.34354 0.15700
O 	O 	0.29917 0.71875 0.09685 -0.70300
H 	H 	0.29161 0.69538 0.11341 0.15200
H 	H 	0.31922 0.10465 0.70123 0.08300
C 	C 	0.31640 0.98350 0.77126 0.01300
C 	C 	0.31539 0.97283 0.81632 -0.08000
O 	O 	0.30218 0.77640 0.36016 -0.70700
O 	O 	0.31179 0.72865 0.40382 -0.70300
C 	C 	0.32696 0.19060 0.64939 0.01200
H 	H 	0.31714 0.76509 0.41768 0.15300
C 	C 	0.03909 0.67389 0.61602 0.01400
O 	O 	0.31360 0.51797 0.04924 -0.41100
H 	H 	0.33851 0.28274 0.62440 0.05300
Ni	Ni	0.31287 0.88145 0.35698 1.06300
O 	O 	0.33920 0.84163 0.06225 -0.41800
H 	H 	0.40600 0.16227 0.44156 0.03700
C 	C 	0.35260 0.16037 0.66777 0.07500
C 	C 	0.04091 0.72589 0.59778 0.07400
H 	H 	0.04586 0.83852 0.60045 0.09200
Ni	Ni	0.33929 0.82773 0.09972 1.06300
H 	H 	0.37782 0.04416 0.41756 0.03900
C 	C 	0.35892 0.25879 0.63847 -0.08400
O 	O 	0.36701 0.61811 0.39713 -0.41900
O 	O 	0.32858 0.90709 0.39427 -0.40900
C 	C 	0.37376 0.03754 0.77257 -0.08500
Ni	Ni	0.35147 0.67920 0.07638 1.09700
H 	H 	0.37569 0.96075 0.03744 0.04400
C 	C 	0.37551 0.01762 0.81706 0.00800
C 	C 	0.36392 0.56426 0.04122 0.26900
C 	C 	0.37425 0.82137 0.04793 0.27900
H 	H 	0.39235 0.07173 0.75670 0.04900
Ni	Ni	0.37392 0.76941 0.37712 1.10100
C 	C 	0.42582 0.13826 0.45585 -0.04400
H 	H 	0.45678 0.23985 0.47792 0.03600
H 	H 	0.40421 0.07978 0.01566 0.03700
H 	H 	0.36357 0.42377 0.03360 0.04400
C 	C 	0.40405 0.05027 0.79571 0.07100
C 	C 	0.39645 0.02028 0.43234 -0.03000
H 	H 	0.42607 0.52561 0.40519 0.04100
C 	C 	0.39802 0.93910 0.02368 -0.02800
C 	C 	0.40443 0.06361 0.83682 -0.04100
H 	H 	0.40108 0.04748 0.85618 0.05300
O 	O 	0.39621 0.77111 0.05551 -0.36900
C 	C 	0.37628 0.90517 0.40603 0.27600
O 	O 	0.39314 0.62548 0.05414 -0.36200
H 	H 	0.44307 0.42315 0.42723 0.03600
C 	C 	0.41209 0.19540 0.67512 -0.08600
C 	C 	0.39921 0.86626 0.02588 -0.06100
C 	C 	0.38755 0.46244 0.01956 -0.03000
C 	C 	0.39433 0.53851 0.02156 -0.06100
H 	H 	0.38022 0.32100 0.01105 0.03700
C 	C 	0.42166 0.66416 0.40091 0.26600
C 	C 	0.45475 0.18239 0.47651 -0.04300
C 	C 	0.41929 0.29256 0.64499 0.07500
C 	C 	0.42313 0.06383 0.45354 0.01800
C 	C 	0.42741 0.05818 0.00229 -0.04700
H 	H 	0.43225 0.17130 0.68924 0.04700
C 	C 	0.42729 0.98484 0.00422 0.01800
O 	O 	0.40863 0.86997 0.39615 -0.36900
C 	C 	0.40392 0.36014 0.99710 -0.04400
C 	C 	0.41116 0.43622 0.99935 0.01400
O 	O 	0.40200 0.91901 0.34968 -0.39900
C 	C 	0.39630 0.94697 0.42968 -0.05700
C 	C 	0.45464 0.56533 0.41871 -0.03400
C 	C 	0.42616 0.58882 0.00360 -0.03100
H 	H 	0.43118 0.64740 0.00513 0.04000
O 	O 	0.42479 0.83071 0.10104 -0.40200
O 	O 	0.42183 0.70985 0.10083 -0.37400
O 	O 	0.43614 0.73442 0.39440 -0.37100
C 	C 	0.42797 0.83835 0.00791 -0.02600
C 	C 	0.47046 0.46317 0.44093 -0.04600
C 	C 	0.44517 0.26153 0.66320 0.01100
H 	H 	0.42797 0.78176 0.00930 0.04300
O 	O 	0.43057 0.81586 0.34953 -0.36800
H 	H 	0.42160 0.27545 0.97545 0.03700
N 	N 	0.44957 0.11356 0.80162 -0.15500
C 	C 	0.46170 0.64139 0.41733 -0.07000
H 	H 	0.48464 0.37813 0.46334 0.03400
H 	H 	0.45728 0.16050 0.98187 0.03600
C 	C 	0.44196 0.48653 0.98105 -0.01000
C 	C 	0.42733 0.33422 0.97684 -0.04400
C 	C 	0.45134 0.12098 0.82675 0.00400
C 	C 	0.44132 0.77773 0.11079 0.25400
H 	H 	0.44928 0.33861 0.61000 0.09500
C 	C 	0.45764 0.10409 0.98311 -0.04300
C 	C 	0.44965 0.56307 0.98323 0.01500
C 	C 	0.43070 0.87860 0.33927 0.25100
C 	C 	0.48135 0.53991 0.43833 0.01400
N 	N 	0.45986 0.32899 0.62834 -0.15000
C 	C 	0.45764 0.95742 0.98669 -0.00300
C 	C 	0.49394 0.43758 0.46147 -0.04400
C 	C 	0.45767 0.88384 0.98847 0.01300
C 	C 	0.46520 0.46036 0.96057 -0.01100
C 	C 	0.45825 0.38402 0.95857 0.01500
C 	C 	0.48123 0.15259 0.49514 0.01400
H 	H 	0.51517 0.25530 0.51684 0.04200
C 	C 	0.48013 0.61273 0.96485 -0.04300
H 	H 	0.48614 0.67153 0.96631 0.03600
H 	H 	0.48478 0.13980 0.78999 0.06900
C 	C 	0.44890 0.03320 0.47235 -0.01400
C 	C 	0.48810 0.07725 0.96561 0.01800
C 	C 	0.42043 0.91592 0.44878 -0.02900
C 	C 	0.48371 0.35886 0.93869 -0.03200
H 	H 	0.45305 0.84749 0.28917 0.07200
C 	C 	0.48826 0.00372 0.96745 -0.01700
H 	H 	0.48016 0.30070 0.93756 0.04300
C 	C 	0.49612 0.51073 0.94231 0.01400
C 	C 	0.50310 0.58671 0.94449 -0.04400
C 	C 	0.49233 0.79926 0.12835 -0.00400
H 	H 	0.53657 0.90994 0.11607 0.08900
C 	C 	0.51163 0.19719 0.51555 -0.03000
C 	C 	0.50033 0.69330 0.43430 -0.03300
C 	C 	0.48817 0.85704 0.97100 -0.03900
C 	C 	0.50370 0.27902 0.65699 -0.05400
H 	H 	0.48859 0.80070 0.97225 0.03600
C 	C 	0.50719 0.15726 0.84076 0.25500
C 	C 	0.51738 0.59150 0.45617 -0.01200
C 	C 	0.47785 0.07755 0.49317 -0.00600
C 	C 	0.52900 0.48846 0.47956 0.01200
H 	H 	0.50636 0.75215 0.43309 0.04700
C 	C 	0.47816 0.91553 0.32216 -0.00300
C 	C 	0.51106 0.32004 0.63526 0.00400
H 	H 	0.51743 0.17908 0.94457 0.03900
H 	H 	0.52672 0.62584 0.93052 0.03700
N 	N 	0.53421 0.86847 0.12900 -0.15300
C 	C 	0.44686 0.95873 0.47008 0.02100
H 	H 	0.41966 0.85901 0.44679 0.03100
C 	C 	0.52105 0.48495 0.92245 -0.03200
C 	C 	0.51650 0.40958 0.92100 -0.06300
O 	O 	0.52145 0.22788 0.84757 -0.37600
C 	C 	0.51779 0.12267 0.94614 -0.03000
N 	N 	0.48659 0.88014 0.30144 -0.15200
H 	H 	0.54289 0.40364 0.50249 0.03200
C 	C 	0.51881 0.97636 0.94999 0.02500
C 	C 	0.52801 0.66859 0.45382 0.01500
H 	H 	0.53019 0.24574 0.66218 0.03000
C 	C 	0.51859 0.90301 0.95189 -0.04700
O 	O 	0.53097 0.31968 0.89227 -0.36200
O 	O 	0.53091 0.11420 0.85271 -0.40500
C 	C 	0.54143 0.56580 0.47674 -0.00900
H 	H 	0.54535 0.52379 0.90852 0.04300
C 	C 	0.51256 0.74849 0.14044 -0.05000
H 	H 	0.49643 0.68883 0.13653 0.05000
C 	C 	0.55197 0.46304 0.50035 -0.03100
O 	O 	0.54526 0.18157 0.89644 -0.36800
C 	C 	0.53153 0.96873 0.33046 -0.03300
C 	C 	0.54725 0.09497 0.92842 -0.05700
H 	H 	0.53653 0.01330 0.34390 0.04400
C 	C 	0.55237 0.38623 0.90308 0.26800
C 	C 	0.54844 0.02222 0.93064 -0.03200
C 	C 	0.53839 0.16718 0.53409 -0.06200
C 	C 	0.55482 0.31943 0.61679 0.24800
H 	H 	0.54190 0.88146 0.93855 0.03900
C 	C 	0.50423 0.04714 0.51180 0.01100
C 	C 	0.47261 0.92861 0.48887 -0.04500
H 	H 	0.47112 0.87137 0.48733 0.03600
O 	O 	0.55887 0.25412 0.61043 -0.39800
C 	C 	0.54416 0.91145 0.29608 0.07800
C 	C 	0.50101 0.97248 0.50962 -0.03800
H 	H 	0.54295 0.87098 0.25817 0.04900
C 	C 	0.53411 0.09193 0.53224 -0.02600
H 	H 	0.52095 0.94853 0.52389 0.03800
O 	O 	0.56175 0.27621 0.56114 -0.37000
O 	O 	0.57448 0.37702 0.60187 -0.37300
C 	C 	0.56425 0.71963 0.47161 -0.04500
C 	C 	0.57265 0.13971 0.90648 0.27400
H 	H 	0.55408 0.06838 0.54663 0.04400
C 	C 	0.57733 0.61733 0.49465 0.01200
C 	C 	0.57173 0.21491 0.55522 0.27700
H 	H 	0.57288 0.77900 0.46991 0.04000
H 	H 	0.57093 0.00067 0.91691 0.04200
Ni	Ni	0.58509 0.27327 0.87462 1.09600
O 	O 	0.58586 0.42944 0.55108 -0.37100
C 	C 	0.56934 0.78953 0.14891 0.01000
C 	C 	0.56588 0.91351 0.27202 -0.08500
C 	C 	0.58830 0.51432 0.51802 -0.07400
C 	C 	0.57334 0.96572 0.31376 0.01600
C 	C 	0.58137 0.86261 0.14134 0.07400
C 	C 	0.58894 0.69418 0.49185 -0.04200
C 	C 	0.60107 0.59133 0.51514 -0.02600
O 	O 	0.60194 0.43552 0.89551 -0.41000
C 	C 	0.61700 0.48768 0.53828 0.27100
O 	O 	0.61444 0.12587 0.89444 -0.41900
O 	O 	0.60836 0.19345 0.56885 -0.41300
Ni	Ni	0.61970 0.13452 0.85665 1.06200
H 	H 	0.61664 0.73424 0.50546 0.03900
Ni	Ni	0.62699 0.37402 0.57312 1.09900
H 	H 	0.60515 0.70357 0.15817 0.04900
H 	H 	0.62944 0.63073 0.52878 0.04100
C 	C 	0.61474 0.76060 0.15228 -0.08300
C 	C 	0.61976 0.97023 0.26676 0.01400
C 	C 	0.62521 0.02489 0.30827 -0.08700
Ni	Ni	0.63627 0.23629 0.60370 1.06200
H 	H 	0.64133 0.29327 0.91755 0.15200
C 	C 	0.63960 0.90990 0.13718 -0.08300
H 	H 	0.64905 0.96690 0.13127 0.05300
O 	O 	0.64970 0.24442 0.85898 -0.70300
O 	O 	0.65197 0.31449 0.90082 -0.70400
H 	H 	0.64781 0.06713 0.32225 0.05400
H 	H 	0.66079 0.26770 0.84256 0.15100
C 	C 	0.64984 0.02415 0.28480 0.07000
H 	H 	0.66097 0.32116 0.53440 0.15000
H 	H 	0.65596 0.90678 0.24214 0.04300
O 	O 	0.67487 0.51271 0.54032 -0.41500
C 	C 	0.66249 0.95840 0.25237 -0.03700
H 	H 	0.00611 0.09451 0.64516 0.09300
Ni	Ni	0.68322 0.42436 0.90220 1.06400
O 	O 	0.68202 0.36320 0.54596 -0.70000
O 	O 	0.68228 0.33645 0.59245 -0.70400
C 	C 	0.67329 0.80881 0.14913 0.07500
C 	C 	0.68531 0.88162 0.14109 0.01300
O 	O 	0.69444 0.43276 0.86482 -0.41200
H 	H 	0.70085 0.37030 0.60675 0.15400
O 	O 	0.70170 0.12189 0.85994 -0.40400
O 	O 	0.70432 0.19383 0.59979 -0.40300
H 	H 	0.70671 0.47668 0.80999 0.07800
Ni	Ni	0.71529 0.28285 0.88595 1.09800
N 	N 	0.70867 0.04525 0.28182 -0.14800
Ni	Ni	0.72186 0.45050 0.52570 1.06900
C 	C 	0.71679 0.00451 0.26243 -0.01500
N 	N 	0.71874 0.80520 0.16333 -0.15300
H 	H 	0.71447 0.76480 0.17689 0.06700
C 	C 	0.00449 0.70456 0.57624 -0.07900
C 	C 	0.73872 0.42013 0.85461 0.26400
Ni	Ni	0.74190 0.33518 0.56610 1.09700
C 	C 	0.74056 0.92382 0.15087 -0.04200
H 	H 	0.74000 0.06729 0.29625 0.09200
H 	H 	0.73847 0.13033 0.64335 0.07000
N 	N 	0.74801 0.50354 0.81872 -0.15100
H 	H 	0.75000 0.57848 0.77500 0.04900
C 	C 	0.75285 0.17493 0.85610 0.25500
H 	H 	0.75462 0.98342 0.15475 0.04600
H 	H 	0.75706 0.03396 0.83608 0.04000
O 	O 	0.76143 0.37405 0.86500 -0.36800
C 	C 	0.76095 0.23284 0.60384 0.25000
C 	C 	0.75961 0.87508 0.16471 0.00300
O 	O 	0.76772 0.39439 0.50841 -0.42100
O 	O 	0.77080 0.23532 0.87042 -0.35900
O 	O 	0.77073 0.44178 0.90954 -0.40500
O 	O 	0.76364 0.91310 0.26266 -0.39000
C 	C 	0.77294 0.47215 0.83598 -0.00400
C 	C 	0.76974 0.98377 0.26117 0.28400
O 	O 	0.77610 0.32517 0.91402 -0.38100
N 	N 	0.77494 0.13849 0.63209 -0.15100
O 	O 	0.77498 0.89987 0.20866 -0.41000
C 	C 	0.79060 0.39520 0.92176 0.27300
O 	O 	0.78727 0.29386 0.59119 -0.36900
O 	O 	0.79146 0.44032 0.57871 -0.39000
H 	H 	0.78441 0.04428 0.66900 0.04800
C 	C 	0.79254 0.56035 0.80907 0.07400
C 	C 	0.79140 0.58374 0.78443 -0.08500
O 	O 	0.79567 0.51626 0.54583 -0.39200
C 	C 	0.79679 0.08267 0.83900 -0.04400
C 	C 	0.79758 0.19696 0.61686 -0.00300
C 	C 	0.79808 0.15525 0.84280 -0.00300
C 	C 	0.79871 0.90117 0.18670 0.24200
O 	O 	0.80438 0.34047 0.53989 -0.38000
O 	O 	0.00196 0.83474 0.65644 -0.39600
H 	H 	0.80769 0.50291 0.95718 0.02600
C 	C 	0.81214 0.38072 0.51943 0.28300
Ni	Ni	0.80755 0.86427 0.24042 1.06800
C 	C 	0.81826 0.11094 0.63652 0.07400
C 	C 	0.82222 0.49278 0.56378 0.27200
O 	O 	0.82225 0.03581 0.26411 -0.38800
H 	H 	0.82585 0.69080 0.74706 0.04500
C 	C 	0.82326 0.07518 0.65868 -0.08500
H 	H 	0.82836 0.36499 0.47029 0.04200
C 	C 	0.83336 0.51110 0.83840 -0.04300
O 	O 	0.83426 0.82285 0.27146 -0.40200
H 	H 	0.83834 0.97987 0.81486 0.05300
C 	C 	0.84229 0.42660 0.93878 -0.05800
C 	C 	0.84454 0.48318 0.95612 -0.03000
C 	C 	0.84589 0.56715 0.82107 0.01100
C 	C 	0.84531 0.61261 0.77218 0.00900
C 	C 	0.85227 0.08987 0.83064 0.01100
N 	N 	0.85194 0.20560 0.83792 -0.15000
C 	C 	0.85499 0.20538 0.61054 -0.04200
O 	O 	0.85529 0.93947 0.18366 -0.36700
H 	H 	0.86010 0.59008 0.99109 0.03700
H 	H 	0.86051 0.26209 0.83436 0.08700
C 	C 	0.85765 0.66761 0.75444 -0.05200
C 	C 	0.85906 0.86407 0.29160 0.25400
H 	H 	0.85937 0.97377 0.68555 0.04800
O 	O 	0.86147 0.93402 0.29409 -0.36500
C 	C 	0.86386 0.03916 0.81438 -0.08700
H 	H 	0.86517 0.48963 0.84679 0.05300
C 	C 	0.86873 0.40072 0.50672 -0.06100
C 	C 	0.86929 0.39365 0.48067 -0.02600
C 	C 	0.86824 0.15056 0.62331 0.01100
C 	C 	0.88031 0.82966 0.31236 0.00200
H 	H 	0.88276 0.38954 0.43135 0.03800
C 	C 	0.88002 0.08123 0.66724 0.00900
C 	C 	0.88459 0.53609 0.57020 -0.00400
C 	C 	0.88486 0.16615 0.83003 0.07600
O 	O 	0.88551 0.94208 0.23827 -0.70200
H 	H 	0.88731 0.73318 0.29208 0.04300
H 	H 	0.88714 0.25596 0.60343 0.05100
C 	C 	0.89002 0.40107 0.93731 -0.02500
H 	H 	0.88867 0.35833 0.92361 0.05300
C 	C 	0.89178 0.76365 0.30959 -0.04800
C 	C 	0.89253 0.02547 0.67971 -0.04900
H 	H 	0.89458 0.48623 0.60441 0.08800
C 	C 	0.89406 0.51359 0.97224 0.01600
C 	C 	0.89640 0.56944 0.98988 -0.04300
Ni	Ni	0.89844 0.01182 0.26759 1.09600
H 	H 	0.90001 0.63652 0.54795 0.04900
C 	C 	0.89871 0.62081 0.78443 0.07400
C 	C 	0.89983 0.59687 0.80897 -0.08400
Ni	Ni	0.90360 0.01691 0.21002 1.09600
C 	C 	0.99938 0.86725 0.35376 -0.08600
N 	N 	0.99135 0.24377 0.32321 -0.15500
C 	C 	0.98670 0.14056 0.29407 0.24000
C 	C 	0.97611 0.73296 0.32598 -0.08600
C 	C 	0.94416 0.83214 0.34161 0.07700
H 	H 	0.92380 0.92871 0.33378 0.09200
O 	O 	0.97724 0.99136 0.20170 -0.36300
N 	N 	0.91204 0.87071 0.33192 -0.15200
H 	H 	0.98644 0.36290 0.93825 0.04100
C 	C 	0.98745 0.40579 0.95180 -0.04500
C 	C 	0.93247 0.76524 0.32830 0.01000
O 	O 	0.99264 0.83049 0.75774 -0.36200
O 	O 	0.92524 0.79771 0.72519 -0.40700
Ni	Ni	0.97054 0.82291 0.69192 1.06400
O 	O 	0.94666 0.91535 0.69013 -0.40700
C 	C 	0.97484 0.97364 0.67673 0.26000
C 	C 	0.94835 0.77972 0.74552 0.24600
O 	O 	0.92945 0.08559 0.23960 -0.71100
O 	O 	0.93089 0.09560 0.29386 -0.36500
O 	O 	0.92898 0.09793 0.18401 -0.37200
H 	H 	0.91109 0.12442 0.23910 0.15600
H 	H 	0.91512 0.91734 0.23945 0.15100
C 	C 	0.98290 0.14903 0.18564 0.24200
C 	C 	0.98844 0.26037 0.16018 -0.05800
H 	H 	0.95961 0.27754 0.17205 0.03600
H 	H 	0.98332 0.84631 0.19552 0.04100
H 	H 	0.96417 0.26375 0.31216 0.07700
H 	H 	0.97154 0.68945 0.31216 0.05000
C 	C 	0.97477 0.46597 0.48150 -0.01000
C 	C 	0.97473 0.47018 0.50775 0.01600
C 	C 	0.92219 0.42586 0.46798 0.01600
C 	C 	0.92276 0.42096 0.44188 -0.04200
C 	C 	0.97476 0.45759 0.42920 -0.04300
C 	C 	0.92194 0.43542 0.52027 -0.02700
H 	H 	0.97438 0.45381 0.40903 0.04000
H 	H 	0.92173 0.43806 0.54045 0.04700
C 	C 	0.92997 0.11982 0.65377 0.07300
C 	C 	0.92502 0.15679 0.63184 -0.08400
N 	N 	0.97235 0.09020 0.65759 -0.15400
C 	C 	0.94969 0.03276 0.67328 -0.01000
H 	H 	0.96381 0.18770 0.62150 0.05200
C 	C 	0.96707 0.57714 0.59129 0.07400
C 	C 	0.99898 0.60006 0.61388 -0.08800
C 	C 	0.97097 0.62846 0.57251 0.00700
N 	N 	0.91441 0.52069 0.58967 -0.15200
C 	C 	0.91811 0.60205 0.55895 -0.04400
H 	H 	0.98947 0.56374 0.62982 0.04800
H 	H 	0.99891 0.74628 0.56390 0.05200
C 	C 	0.94547 0.59859 0.00619 -0.04100
C 	C 	0.94173 0.48746 0.97081 -0.00900
C 	C 	0.99118 0.51700 0.98713 -0.00700
C 	C 	0.99287 0.57234 0.00503 0.01300
C 	C 	0.93973 0.43127 0.95321 0.01800
H 	H 	0.94640 0.64127 0.01980 0.04000
C 	C 	0.91045 0.06738 0.79784 0.07400
C 	C 	0.93116 0.19442 0.81337 -0.08500
C 	C 	0.94259 0.14379 0.79700 0.00900
N 	N 	0.94376 0.02815 0.79021 -0.15600
C 	C 	0.99737 0.07878 0.78514 -0.00100
C 	C 	0.99804 0.15121 0.78856 -0.04900
H 	H 	0.95670 0.25370 0.81290 0.05100
H 	H 	0.93542 0.97177 0.79388 0.08900
N 	N 	0.94298 0.67819 0.77494 -0.15400
C 	C 	0.91816 0.70667 0.75675 -0.00500
H 	H 	0.94121 0.60212 0.81841 0.05300
H 	H 	0.98260 0.70795 0.78450 0.09200
