data_crystal

_cell_length_a 15.72335
_cell_length_b 15.98634
_cell_length_c 35.03265
_cell_angle_alpha 95.42634
_cell_angle_beta  95.42680
_cell_angle_gamma 126.69164

_symmetry_space_group_name_	'P 1'
_symmetry_space_group_name_H-M	'P 1'

loop_
_symmetry_equiv_pos_as_xyz
  x,y,z

loop_
_atom_site_label
_atom_site_type_symbol
_atom_site_fract_x
_atom_site_fract_y
_atom_site_fract_z
_atom_site_charge
C 	C 	0.04627 0.01050 0.96241 -0.00300
H 	H 	0.03606 0.87081 0.96380 0.04400
H 	H 	0.03470 0.13753 0.96057 0.04500
C 	C 	0.04424 0.95125 0.50194 -0.05800
C 	C 	0.06389 0.11377 0.50116 -0.05900
H 	H 	0.07861 0.90915 0.50124 0.04900
C 	C 	0.10899 0.05921 0.50063 0.01200
H 	H 	0.11345 0.19748 0.49970 0.04600
C 	C 	0.99202 0.90333 0.96339 -0.04300
C 	C 	0.99115 0.05376 0.96143 -0.04400
C 	C 	0.88126 0.99098 0.96305 0.00700
C 	C 	0.82549 0.88163 0.96502 -0.05200
C 	C 	0.88243 0.83806 0.96489 0.00700
H 	H 	0.74063 0.83215 0.96682 0.04600
C 	C 	0.95342 0.05812 0.50329 0.01200
C 	C 	0.89011 0.94977 0.50470 -0.05600
C 	C 	0.93538 0.89663 0.50360 0.01300
H 	H 	0.80503 0.90633 0.50581 0.05000
Cu	Cu	0.75444 0.33656 0.95856 0.92200
Cu	Cu	0.74301 0.25218 0.04158 0.86800
Cu	Cu	0.58436 0.28086 0.00870 0.89600
Cu	Cu	0.55219 0.32790 0.92940 0.89800
C 	C 	0.67445 0.30134 0.87646 0.27800
O 	O 	0.81420 0.49414 0.95914 -0.35200
C 	C 	0.65817 0.31727 0.09455 0.27600
O 	O 	0.58608 0.24932 0.95436 -0.63300
O 	O 	0.74174 0.35076 0.01398 -0.64500
O 	O 	0.81867 0.25705 0.96150 -0.36300
O 	O 	0.70135 0.14615 0.99828 -0.43600
O 	O 	0.63254 0.34960 0.88592 -0.38200
O 	O 	0.42985 0.20453 0.00039 -0.39000
C 	C 	0.36969 0.19722 0.96931 0.32000
C 	C 	0.76089 0.52954 0.97055 0.29100
O 	O 	0.66212 0.46176 0.97575 -0.39500
O 	O 	0.41134 0.26403 0.94506 -0.39900
O 	O 	0.73994 0.30098 0.90294 -0.35800
C 	C 	0.76798 0.16617 0.97443 0.29500
O 	O 	0.58025 0.28895 0.06540 -0.37900
O 	O 	0.74328 0.32429 0.08816 -0.41800
H 	H 	0.53994 0.17251 0.94301 0.16300
H 	H 	0.78780 0.42476 0.02872 0.17200
Cu	Cu	0.62061 0.20084 0.50992 0.92400
Cu	Cu	0.70650 0.21296 0.42707 0.87000
Cu	Cu	0.67929 0.37029 0.46095 0.89800
Cu	Cu	0.62688 0.39639 0.53942 0.89700
C 	C 	0.64321 0.26751 0.59220 0.27900
O 	O 	0.46176 0.14008 0.50903 -0.35900
C 	C 	0.64450 0.30147 0.37495 0.27700
O 	O 	0.70956 0.36617 0.51503 -0.63800
O 	O 	0.60689 0.21501 0.45468 -0.64200
O 	O 	0.69466 0.13261 0.50635 -0.36900
O 	O 	0.81103 0.24812 0.47053 -0.44000
O 	O 	0.59996 0.31416 0.58242 -0.38200
O 	O 	0.75767 0.52231 0.47036 -0.38500
C 	C 	0.75696 0.57975 0.49984 0.31400
C 	C 	0.42433 0.19020 0.49683 0.29600
O 	O 	0.49209 0.28847 0.49243 -0.39800
O 	O 	0.69151 0.53670 0.52486 -0.39600
O 	O 	0.65640 0.21424 0.56538 -0.35900
C 	C 	0.78673 0.18003 0.49363 0.30100
O 	O 	0.67382 0.37738 0.40451 -0.37800
O 	O 	0.63587 0.21662 0.38068 -0.41700
H 	H 	0.78731 0.41177 0.52690 0.16500
H 	H 	0.53188 0.17043 0.43976 0.17300
C 	C 	0.85412 0.36333 0.72371 -0.04200
C 	C 	0.85855 0.36760 0.76407 -0.04100
C 	C 	0.76290 0.31270 0.77924 0.01700
C 	C 	0.66205 0.25018 0.75352 -0.00700
C 	C 	0.65759 0.24575 0.71289 -0.00800
C 	C 	0.75400 0.30402 0.69799 0.01800
C 	C 	0.55671 0.18642 0.68733 0.01700
C 	C 	0.46108 0.12905 0.70239 -0.04200
C 	C 	0.46551 0.13363 0.74269 -0.04200
C 	C 	0.56562 0.19555 0.76848 0.01700
C 	C 	0.57047 0.20699 0.80903 -0.02800
C 	C 	0.67071 0.27299 0.83474 -0.05500
C 	C 	0.76681 0.32310 0.81984 -0.02300
C 	C 	0.74899 0.30552 0.65775 -0.02900
C 	C 	0.64852 0.25031 0.63261 -0.05300
C 	C 	0.55270 0.18857 0.64726 -0.02500
H 	H 	0.92866 0.40755 0.71257 0.04000
H 	H 	0.93645 0.41507 0.78354 0.04100
H 	H 	0.38318 0.08231 0.68295 0.04000
H 	H 	0.39097 0.09039 0.75387 0.03800
H 	H 	0.49649 0.16777 0.82063 0.03100
H 	H 	0.84416 0.37394 0.83974 0.04800
H 	H 	0.82282 0.35273 0.64629 0.03800
H 	H 	0.47529 0.14536 0.62766 0.04600
C 	C 	0.80812 0.50213 0.27136 -0.04400
C 	C 	0.81087 0.50386 0.23158 -0.04300
C 	C 	0.72388 0.41869 0.20318 0.01400
C 	C 	0.63185 0.33290 0.21489 -0.00900
C 	C 	0.62965 0.33051 0.25497 -0.00900
C 	C 	0.71871 0.41485 0.28329 0.01500
C 	C 	0.54035 0.24175 0.26666 0.01400
C 	C 	0.45168 0.15841 0.23828 -0.04400
C 	C 	0.45325 0.16141 0.19850 -0.04400
C 	C 	0.54385 0.24740 0.18657 0.01500
C 	C 	0.54954 0.24676 0.14675 -0.02900
C 	C 	0.64371 0.32918 0.13517 -0.06000
C 	C 	0.72954 0.41629 0.16333 -0.02700
C 	C 	0.71928 0.40869 0.32307 -0.02800
C 	C 	0.63319 0.31752 0.33458 -0.06000
C 	C 	0.54267 0.23551 0.30646 -0.02700
H 	H 	0.87654 0.56778 0.29288 0.03800
H 	H 	0.88140 0.57077 0.22289 0.03700
H 	H 	0.38210 0.09046 0.24696 0.03600
H 	H 	0.38482 0.09578 0.17699 0.03700
H 	H 	0.48324 0.17978 0.12495 0.04000
H 	H 	0.80169 0.48036 0.15429 0.03900
H 	H 	0.78891 0.47205 0.34485 0.04100
H 	H 	0.47585 0.16568 0.31546 0.03800
C 	C 	0.81725 0.69095 0.50130 -0.10800
C 	C 	0.86945 0.78477 0.50251 0.04200
C 	C 	0.90173 0.10874 0.50132 0.03600
C 	C 	0.85060 0.14283 0.49870 -0.11100
C 	C 	0.22144 0.11204 0.49873 0.03500
C 	C 	0.31384 0.14763 0.49754 -0.10500
C 	C 	0.80030 0.63748 0.96871 -0.10000
C 	C 	0.83161 0.72728 0.96705 0.03500
C 	C 	0.80002 0.09769 0.96850 -0.10500
C 	C 	0.83026 0.04303 0.96549 0.03400
C 	C 	0.25614 0.13220 0.96692 -0.11400
C 	C 	0.16032 0.07743 0.96471 0.04900
