data_crystal

_cell_length_a 36.98527
_cell_length_b 39.49974
_cell_length_c 26.67324
_cell_angle_alpha 89.94894
_cell_angle_beta  89.94335
_cell_angle_gamma 90.59961

_symmetry_space_group_name_	'P 1'
_symmetry_space_group_name_H-M	'P 1'

loop_
_symmetry_equiv_pos_as_xyz
  x,y,z

loop_
_atom_site_label
_atom_site_type_symbol
_atom_site_fract_x
_atom_site_fract_y
_atom_site_fract_z
_atom_site_charge
Zn	Zn	0.44990 0.50804 0.99489 1.22500
C 	C 	0.48087 0.57472 0.01358 0.33500
O 	O 	0.46995 0.48003 0.04822 -0.48200
O 	O 	0.45519 0.57834 0.04707 -0.45700
O 	O 	0.49095 0.52118 0.09903 -0.49000
C 	C 	0.38398 0.53673 0.02565 0.33900
O 	O 	0.40666 0.53478 0.98794 -0.45200
O 	O 	0.39440 0.52887 0.07130 -0.50900
C 	C 	0.49558 0.49208 0.07679 0.33400
O 	O 	0.41483 0.46101 0.97000 -0.32400
Zn	Zn	0.44254 0.54051 0.09724 1.17000
O 	O 	0.48627 0.54510 0.99246 -0.43700
C 	C 	0.43977 0.45610 0.93662 0.29200
O 	O 	0.46325 0.48054 0.93315 -0.38500
Zn	Zn	0.48836 0.12576 0.97885 1.22300
C 	C 	0.51550 0.11587 0.07887 0.34200
O 	O 	0.44587 0.10574 0.01338 -0.44900
O 	O 	0.48792 0.13178 0.09854 -0.45300
O 	O 	0.42279 0.15574 0.04137 -0.51000
C 	C 	0.51089 0.19548 0.98279 0.32800
O 	O 	0.50172 0.17055 0.95275 -0.45200
O 	O 	0.51210 0.19002 0.03116 -0.49700
C 	C 	0.41829 0.12395 0.02830 0.34000
O 	O 	0.46098 0.11513 0.89961 -0.32800
Zn	Zn	0.46839 0.17477 0.06454 1.17200
O 	O 	0.52477 0.12173 0.03217 -0.44400
C 	C 	0.48435 0.09091 0.89656 0.30400
O 	O 	0.50617 0.08817 0.93409 -0.39400
C 	C 	0.57303 0.97792 0.31423 0.14600
C 	C 	0.55518 0.00549 0.29263 -0.11800
H 	H 	0.54509 0.02555 0.31636 0.07200
C 	C 	0.55062 0.00722 0.24055 0.08100
C 	C 	0.56287 0.98064 0.21020 -0.11000
C 	C 	0.58103 0.95320 0.23154 0.08000
C 	C 	0.58609 0.95187 0.28367 -0.11800
H 	H 	0.59948 0.93041 0.30055 0.07300
N 	N 	0.57740 0.97614 0.36774 -0.18000
C 	C 	0.55358 0.95701 0.39565 0.19000
C 	C 	0.55621 0.95645 0.44831 -0.06100
C 	C 	0.58338 0.97574 0.47192 0.03000
C 	C 	0.60799 0.99469 0.44283 -0.06200
C 	C 	0.60475 0.99431 0.39023 0.18800
C 	C 	0.53186 0.93721 0.47763 -0.01400
C 	C 	0.53433 0.93765 0.52995 -0.01400
C 	C 	0.56112 0.95741 0.55384 -0.06100
C 	C 	0.58575 0.97633 0.52475 0.03000
C 	C 	0.61253 0.99609 0.54839 -0.06200
C 	C 	0.63517 0.01399 0.46670 -0.01200
C 	C 	0.63739 0.01473 0.51904 -0.01200
C 	C 	0.56343 0.95889 0.60649 0.19000
N 	N 	0.58899 0.97917 0.62908 -0.18000
C 	C 	0.61373 0.99723 0.60113 0.18900
C 	C 	0.58910 0.98243 0.68278 0.14700
C 	C 	0.56490 0.00450 0.70627 -0.11900
C 	C 	0.56507 0.00784 0.75853 0.08400
C 	C 	0.59006 0.98976 0.78724 -0.11200
C 	C 	0.61420 0.96761 0.76404 0.08200
C 	C 	0.61367 0.96389 0.71170 -0.11900
O 	O 	0.62792 0.01166 0.36246 -0.20200
O 	O 	0.52782 0.93946 0.37307 -0.20400
O 	O 	0.54076 0.94095 0.63423 -0.20300
O 	O 	0.63835 0.01612 0.62378 -0.20100
H 	H 	0.63256 0.94709 0.69344 0.07400
H 	H 	0.54601 0.01885 0.68389 0.07400
H 	H 	0.65448 0.02863 0.44487 0.04900
H 	H 	0.65838 0.02991 0.53661 0.04900
H 	H 	0.51090 0.92199 0.46006 0.04800
H 	H 	0.51522 0.92277 0.55177 0.04800
H 	H 	0.59062 0.99285 0.82764 0.06200
H 	H 	0.55818 0.98126 0.17007 0.06100
Zn	Zn	0.69006 0.85496 0.00808 1.22100
C 	C 	0.68812 0.86104 0.11589 0.34200
O 	O 	0.73441 0.88163 0.02161 -0.44700
O 	O 	0.72066 0.84816 0.11821 -0.45600
O 	O 	0.76850 0.83439 0.02922 -0.51400
C 	C 	0.67099 0.78493 0.02498 0.33300
O 	O 	0.67593 0.80844 0.99074 -0.46700
O 	O 	0.68876 0.78628 0.06740 -0.49800
C 	C 	0.76618 0.86733 0.02485 0.34200
O 	O 	0.69655 0.86513 0.92073 -0.32900
Zn	Zn	0.73542 0.80882 0.07182 1.17100
O 	O 	0.66836 0.85683 0.07535 -0.44600
C 	C 	0.66974 0.88572 0.92689 0.30400
O 	O 	0.65753 0.88816 0.97213 -0.39200
Zn	Zn	0.03358 0.63136 0.97124 1.22400
C 	C 	0.02516 0.60880 0.07352 0.34500
O 	O 	0.01859 0.67899 0.96313 -0.44900
O 	O 	0.05473 0.62456 0.08819 -0.45400
O 	O 	0.02155 0.68728 0.04673 -0.49700
C 	C 	0.10881 0.62444 0.99668 0.34100
O 	O 	0.07900 0.60787 0.98485 -0.45100
O 	O 	0.10746 0.65559 0.01348 -0.51500
C 	C 	0.01450 0.69896 0.00196 0.32800
O 	O 	0.04894 0.62851 0.88469 -0.32700
Zn	Zn	0.06970 0.67075 0.05840 1.17200
O 	O 	0.00792 0.61914 0.03342 -0.44200
C 	C 	0.01941 0.61063 0.88103 0.30500
O 	O 	0.00202 0.60548 0.92241 -0.39400
C 	C 	0.95317 0.48018 0.31368 0.14900
C 	C 	0.93951 0.45399 0.28352 -0.11900
H 	H 	0.92548 0.43272 0.30070 0.07400
C 	C 	0.94187 0.45635 0.23123 0.08100
C 	C 	0.95927 0.48445 0.20915 -0.10700
C 	C 	0.97428 0.51019 0.23937 0.07800
C 	C 	0.97115 0.50785 0.29164 -0.11900
H 	H 	0.98138 0.52815 0.31517 0.07000
N 	N 	0.94500 0.48069 0.36633 -0.18100
C 	C 	0.96867 0.46656 0.39976 0.19000
C 	C 	0.96196 0.46849 0.45167 -0.06100
C 	C 	0.93075 0.48489 0.46871 0.03100
C 	C 	0.90646 0.49868 0.43397 -0.06100
C 	C 	0.91400 0.49611 0.38243 0.19000
C 	C 	0.98610 0.45455 0.48668 -0.01400
C 	C 	0.97927 0.45724 0.53812 -0.01300
C 	C 	0.94819 0.47395 0.55539 -0.06100
C 	C 	0.92391 0.48769 0.52059 0.03000
C 	C 	0.89288 0.50441 0.53759 -0.06100
C 	C 	0.87521 0.51508 0.45121 -0.01300
C 	C 	0.86851 0.51796 0.50259 -0.01400
C 	C 	0.94104 0.47728 0.60702 0.19000
N 	N 	0.91083 0.49403 0.62304 -0.18000
C 	C 	0.88681 0.50746 0.58945 0.19000
C 	C 	0.90431 0.49785 0.67583 0.14900
C 	C 	0.87965 0.47620 0.70024 -0.11900
C 	C 	0.86990 0.48235 0.75022 0.08200
C 	C 	0.88512 0.51000 0.77575 -0.10900
C 	C 	0.91038 0.53124 0.75191 0.08200
C 	C 	0.91995 0.52516 0.70185 -0.11900
O 	O 	0.89136 0.50885 0.34942 -0.20300
O 	O 	0.99793 0.45140 0.38321 -0.20300
O 	O 	0.96347 0.46431 0.64010 -0.20200
O 	O 	0.85804 0.52349 0.60589 -0.20200
H 	H 	0.93843 0.54223 0.68259 0.07400
H 	H 	0.86708 0.45554 0.67973 0.07400
H 	H 	0.85614 0.52576 0.42494 0.04800
H 	H 	0.84436 0.53079 0.51503 0.04900
H 	H 	0.01023 0.44171 0.47423 0.04900
H 	H 	0.99824 0.44641 0.56439 0.04900
H 	H 	0.87707 0.51515 0.81410 0.06100
H 	H 	0.95996 0.48674 0.16869 0.06000
Zn	Zn	0.82156 0.36474 0.98018 1.22200
C 	C 	0.81300 0.36162 0.87273 0.34500
O 	O 	0.77347 0.36611 0.01136 -0.46500
O 	O 	0.80629 0.32898 0.87494 -0.45400
O 	O 	0.74377 0.34612 0.94271 -0.49200
C 	C 	0.84960 0.29805 0.96694 0.34100
O 	O 	0.85690 0.33047 0.96182 -0.45400
O 	O 	0.81602 0.28733 0.97045 -0.51300
C 	C 	0.74394 0.36372 0.98437 0.33000
O 	O 	0.84865 0.36678 0.06088 -0.32800
Zn	Zn	0.77689 0.30861 0.93383 1.17100
O 	O 	0.80883 0.38049 0.91276 -0.44800
C 	C 	0.85701 0.39778 0.04879 0.30600
O 	O 	0.84638 0.40740 0.00500 -0.39300
Zn	Zn	0.06443 0.03492 0.02661 1.22400
C 	C 	0.07952 0.96528 0.00536 0.33300
O 	O 	0.02914 0.02749 0.08091 -0.46900
O 	O 	0.10627 0.96981 0.03709 -0.45700
O 	O 	0.04668 0.97613 0.10953 -0.49900
C 	C 	0.13817 0.04136 0.05720 0.34100
O 	O 	0.11662 0.03994 0.01822 -0.44700
O 	O 	0.12684 0.03072 0.10112 -0.51200
C 	C 	0.02094 0.99683 0.09638 0.33500
O 	O 	0.06277 0.09368 0.04183 -0.32700
Zn	Zn	0.09712 0.98994 0.10734 1.17000
O 	O 	0.05865 0.99079 0.99359 -0.43400
C 	C 	0.04333 0.09520 0.00147 0.29300
O 	O 	0.03756 0.06649 0.97931 -0.38400
C 	C 	0.98395 0.20371 0.02059 -0.07800
C 	C 	0.97444 0.17519 0.98265 0.02900
C 	C 	0.90818 0.19160 0.98987 -0.07500
C 	C 	0.92783 0.22518 0.97569 0.02100
C 	C 	0.95655 0.23310 0.01650 -0.07500
H 	H 	0.98363 0.19349 0.05951 0.04600
H 	H 	0.01175 0.21361 0.01328 0.04600
C 	C 	0.00008 0.14703 0.98717 0.02200
H 	H 	0.88741 0.18516 0.96112 0.04100
H 	H 	0.89379 0.19448 0.02629 0.04300
C 	C 	0.90131 0.25268 0.97211 0.03400
H 	H 	0.94315 0.23687 0.05345 0.04500
H 	H 	0.97125 0.25703 0.00720 0.04600
C 	C 	0.94763 0.21995 0.92497 -0.07500
H 	H 	0.96217 0.24362 0.91390 0.04500
H 	H 	0.92767 0.21412 0.89489 0.04300
C 	C 	0.97506 0.19053 0.92907 -0.07900
H 	H 	0.96817 0.17067 0.90096 0.04600
H 	H 	0.00269 0.20015 0.91996 0.04600
C 	C 	0.93551 0.16228 0.99394 -0.07900
H 	H 	0.92780 0.14186 0.96712 0.04600
H 	H 	0.93416 0.15118 0.03230 0.04600
C 	C 	0.02024 0.12353 0.99263 -0.08800
C 	C 	0.87838 0.27408 0.96964 -0.11600
C 	C 	0.84129 0.46195 0.77478 -0.06500
C 	C 	0.84439 0.42829 0.77971 -0.04000
C 	C 	0.82163 0.40987 0.81656 0.03500
C 	C 	0.82693 0.37693 0.82612 -0.16900
H 	H 	0.80262 0.42401 0.83938 0.03500
H 	H 	0.82005 0.47508 0.79493 0.04900
H 	H 	0.84366 0.36192 0.80127 0.08200
H 	H 	0.86585 0.41505 0.76016 0.04500
C 	C 	0.87075 0.42248 0.08556 -0.14800
C 	C 	0.88746 0.41272 0.12769 0.02500
C 	C 	0.90215 0.43851 0.16252 -0.03500
C 	C 	0.92488 0.42996 0.19950 -0.06800
H 	H 	0.89530 0.46498 0.15693 0.04300
H 	H 	0.86835 0.44929 0.07710 0.08100
H 	H 	0.93036 0.40347 0.20712 0.04900
H 	H 	0.89111 0.38596 0.13566 0.03700
C 	C 	0.99678 0.82318 0.00606 -0.07400
C 	C 	0.02934 0.80148 0.98918 0.01600
C 	C 	0.05134 0.85119 0.93553 -0.07600
C 	C 	0.04716 0.86638 0.98883 0.02200
C 	C 	0.00727 0.86138 0.00582 -0.07600
H 	H 	0.97340 0.81881 0.98053 0.04100
H 	H 	0.98798 0.81560 0.04443 0.03800
C 	C 	0.02049 0.76503 0.99055 0.03100
H 	H 	0.07975 0.85428 0.92235 0.04300
H 	H 	0.03381 0.86494 0.90859 0.04400
C 	C 	0.05774 0.90242 0.99011 0.03100
H 	H 	0.98891 0.87528 0.98016 0.04200
H 	H 	0.00344 0.87202 0.04407 0.04000
C 	C 	0.07176 0.84646 0.02522 -0.07600
H 	H 	0.06927 0.85674 0.06394 0.03400
H 	H 	0.10062 0.84941 0.01390 0.03800
C 	C 	0.06133 0.80847 0.02542 -0.07300
H 	H 	0.08523 0.79330 0.01420 0.02800
H 	H 	0.05389 0.80063 0.06424 0.02900
C 	C 	0.04082 0.81296 0.93572 -0.07400
H 	H 	0.06423 0.79784 0.92259 0.04100
H 	H 	0.01827 0.80843 0.90887 0.04400
C 	C 	0.01609 0.73487 0.99442 -0.14100
C 	C 	0.06745 0.93144 0.99495 -0.11800
C 	C 	0.00757 0.59522 0.83354 -0.14700
C 	C 	0.97220 0.59053 0.82447 0.02700
C 	C 	0.95958 0.56679 0.78520 -0.03600
C 	C 	0.92400 0.56158 0.77837 -0.06700
H 	H 	0.97905 0.55128 0.76534 0.04500
H 	H 	0.02766 0.58605 0.80723 0.07900
H 	H 	0.90472 0.57712 0.79853 0.04900
H 	H 	0.95239 0.60214 0.84910 0.03600
C 	C 	0.01305 0.57766 0.09904 -0.17000
C 	C 	0.01819 0.57334 0.14837 0.03700
C 	C 	0.00704 0.54134 0.17270 -0.04400
C 	C 	0.98929 0.54168 0.21666 -0.06400
H 	H 	0.01216 0.51756 0.15365 0.04300
H 	H 	0.99903 0.55824 0.07744 0.08400
H 	H 	0.98575 0.56555 0.23629 0.04600
H 	H 	0.02953 0.59373 0.17098 0.02300
C 	C 	0.86198 0.95606 0.02048 -0.07500
C 	C 	0.85967 0.92202 0.04948 0.02100
C 	C 	0.92840 0.91855 0.04540 -0.07600
C 	C 	0.92129 0.95369 0.06926 0.02200
C 	C 	0.89825 0.97469 0.03211 -0.07800
H 	H 	0.85991 0.95140 0.97942 0.04500
H 	H 	0.83897 0.97252 0.03117 0.04500
C 	C 	0.82546 0.90388 0.03887 0.03300
H 	H 	0.94475 0.90277 0.07131 0.04000
H 	H 	0.94426 0.92163 0.01015 0.04400
C 	C 	0.95599 0.97085 0.08017 0.03300
H 	H 	0.91348 0.97890 0.99658 0.04600
H 	H 	0.89256 0.00005 0.04830 0.04600
C 	C 	0.89908 0.94827 0.11803 -0.07600
H 	H 	0.89339 0.97311 0.13592 0.04200
H 	H 	0.91488 0.93315 0.14542 0.04000
C 	C 	0.86289 0.92966 0.10641 -0.07500
H 	H 	0.86144 0.90566 0.12829 0.03900
H 	H 	0.83990 0.94560 0.11882 0.04400
C 	C 	0.89225 0.89999 0.03374 -0.07500
H 	H 	0.89142 0.87534 0.05405 0.03900
H 	H 	0.89085 0.89423 0.99293 0.04200
C 	C 	0.79805 0.88784 0.03154 -0.11800
C 	C 	0.98519 0.98352 0.08831 -0.11700
C 	C 	0.64102 0.94964 0.79485 -0.06800
C 	C 	0.64134 0.91564 0.79652 -0.03600
C 	C 	0.66038 0.89761 0.83727 0.02400
C 	C 	0.65439 0.90570 0.88554 -0.14700
H 	H 	0.67630 0.87554 0.82793 0.03800
H 	H 	0.65699 0.96414 0.82165 0.05100
H 	H 	0.63620 0.92625 0.89469 0.08100
H 	H 	0.62657 0.90096 0.76869 0.04300
C 	C 	0.67448 0.88148 0.15803 -0.16600
C 	C 	0.63958 0.89045 0.16048 0.03200
C 	C 	0.62704 0.91457 0.19905 -0.04000
C 	C 	0.59260 0.92496 0.19922 -0.06600
H 	H 	0.64631 0.92524 0.22565 0.04300
H 	H 	0.69332 0.88994 0.18678 0.08000
H 	H 	0.57369 0.91499 0.17159 0.04800
H 	H 	0.62045 0.88088 0.13283 0.03700
C 	C 	0.26180 0.05593 0.99350 -0.07600
C 	C 	0.24487 0.07015 0.04234 0.02200
C 	C 	0.30704 0.06710 0.08348 -0.07600
C 	C 	0.31365 0.08830 0.03528 0.02200
C 	C 	0.30226 0.06660 0.98935 -0.07600
H 	H 	0.25952 0.02780 0.99312 0.04300
H 	H 	0.24684 0.06545 0.96023 0.04600
C 	C 	0.20648 0.06011 0.04665 0.03300
H 	H 	0.31490 0.08208 0.11718 0.04100
H 	H 	0.32416 0.04409 0.08298 0.04300
C 	C 	0.35189 0.09899 0.03170 0.03300
H 	H 	0.31929 0.04358 0.98702 0.04500
H 	H 	0.30660 0.08122 0.95411 0.04500
C 	C 	0.28910 0.11993 0.03733 -0.07500
H 	H 	0.29312 0.13564 0.00305 0.04300
H 	H 	0.29654 0.13602 0.07007 0.04100
C 	C 	0.24874 0.10927 0.04148 -0.07600
H 	H 	0.23694 0.12024 0.07621 0.04300
H 	H 	0.23351 0.11986 0.00917 0.04500
C 	C 	0.26664 0.05645 0.08764 -0.07500
H 	H 	0.25524 0.06633 0.12333 0.04000
H 	H 	0.26447 0.02833 0.08917 0.03900
C 	C 	0.17517 0.05180 0.05102 -0.11800
C 	C 	0.38264 0.10935 0.02967 -0.11600
C 	C 	0.48810 0.06982 0.85149 -0.14700
C 	C 	0.49965 0.03782 0.85566 0.02500
C 	C 	0.51281 0.01870 0.81184 -0.03300
C 	C 	0.53989 0.03109 0.78347 -0.06900
H 	H 	0.50608 0.99189 0.80969 0.04100
H 	H 	0.48329 0.08084 0.81478 0.07900
H 	H 	0.54680 0.05788 0.78491 0.05400
H 	H 	0.50063 0.02581 0.89230 0.03600
C 	C 	0.53158 0.03623 0.21801 -0.06600
C 	C 	0.54560 0.05270 0.17833 -0.04100
C 	C 	0.52472 0.07908 0.15203 0.03200
C 	C 	0.53763 0.09304 0.10964 -0.16900
H 	H 	0.49811 0.08592 0.16590 0.03000
H 	H 	0.50615 0.04437 0.23427 0.04600
H 	H 	0.56400 0.08566 0.09557 0.08500
H 	H 	0.57208 0.04572 0.16407 0.04400
C 	C 	0.50864 0.35597 0.95980 -0.07900
C 	C 	0.47212 0.35764 0.93121 0.02900
C 	C 	0.48806 0.30209 0.88807 -0.07300
C 	C 	0.49145 0.29414 0.94493 0.01600
C 	C 	0.51999 0.31866 0.96787 -0.07300
H 	H 	0.53012 0.36964 0.93834 0.04300
H 	H 	0.50628 0.36874 0.99685 0.04300
C 	C 	0.46085 0.39311 0.92579 0.02200
H 	H 	0.46766 0.28489 0.87057 0.04300
H 	H 	0.51433 0.29758 0.86894 0.04300
C 	C 	0.50132 0.25864 0.95425 0.03100
H 	H 	0.54687 0.31447 0.95023 0.04000
H 	H 	0.52299 0.31366 0.00874 0.03700
C 	C 	0.45443 0.30097 0.97017 -0.07200
H 	H 	0.45597 0.29563 0.01113 0.02800
H 	H 	0.43330 0.28378 0.95433 0.03500
C 	C 	0.44311 0.33813 0.96213 -0.07900
H 	H 	0.41659 0.33870 0.94242 0.04400
H 	H 	0.43927 0.35048 0.99926 0.04400
C 	C 	0.47665 0.33957 0.87998 -0.07900
H 	H 	0.45081 0.34024 0.85865 0.04500
H 	H 	0.49748 0.35298 0.85703 0.04400
C 	C 	0.45110 0.42210 0.92730 -0.08900
C 	C 	0.50705 0.22964 0.96555 -0.14100
C 	C 	0.25829 0.54430 0.96392 -0.07600
C 	C 	0.27820 0.56439 0.00585 0.02200
C 	C 	0.23706 0.61432 0.98828 -0.07500
C 	C 	0.21053 0.58432 0.99813 0.02100
C 	C 	0.21840 0.55605 0.95938 -0.07600
H 	H 	0.27234 0.54814 0.92740 0.04600
H 	H 	0.25879 0.51670 0.97235 0.04500
C 	C 	0.31605 0.55369 0.01093 0.03300
H 	H 	0.23213 0.63506 0.01563 0.03900
H 	H 	0.23249 0.62492 0.95014 0.04300
C 	C 	0.17301 0.59621 0.99476 0.03300
H 	H 	0.21342 0.56551 0.92070 0.04500
H 	H 	0.19986 0.53407 0.96567 0.04500
C 	C 	0.21796 0.57020 0.05139 -0.07500
H 	H 	0.19943 0.54846 0.05946 0.04300
H 	H 	0.21259 0.58997 0.08011 0.03800
C 	C 	0.25769 0.55850 0.05593 -0.07600
H 	H 	0.27126 0.57271 0.08680 0.03900
H 	H 	0.25815 0.53118 0.06618 0.04200
C 	C 	0.27677 0.60262 0.99282 -0.07700
H 	H 	0.29076 0.61776 0.02234 0.04000
H 	H 	0.29118 0.60761 0.95685 0.04400
C 	C 	0.34710 0.54569 0.01682 -0.11600
C 	C 	0.14308 0.60796 0.99434 -0.11800
C 	C 	0.58329 0.41374 0.02261 -0.07500
C 	C 	0.59278 0.44605 0.05326 0.02200
C 	C 	0.64895 0.41621 0.08554 -0.07600
C 	C 	0.65206 0.41367 0.02758 0.02200
C 	C 	0.61809 0.39474 0.00751 -0.07500
H 	H 	0.56554 0.39656 0.04508 0.04000
H 	H 	0.56799 0.42063 0.98820 0.04400
C 	C 	0.55932 0.46390 0.06641 0.03400
H 	H 	0.67298 0.42978 0.10105 0.04500
H 	H 	0.64843 0.39041 0.10241 0.04200
C 	C 	0.68507 0.39564 0.01281 0.03200
H 	H 	0.61696 0.36851 0.02279 0.03900
H 	H 	0.61942 0.39264 0.96592 0.04100
C 	C 	0.65248 0.45007 0.00562 -0.07500
H 	H 	0.65453 0.44911 0.96400 0.04500
H 	H 	0.67657 0.46434 0.01952 0.04500
C 	C 	0.61764 0.46909 0.02071 -0.07500
H 	H 	0.62509 0.49245 0.04182 0.04400
H 	H 	0.60309 0.47719 0.98627 0.04600
C 	C 	0.61404 0.43528 0.10066 -0.07600
H 	H 	0.62139 0.45798 0.12332 0.04200
H 	H 	0.59686 0.41859 0.12471 0.04000
C 	C 	0.53081 0.47755 0.07353 -0.12000
C 	C 	0.71196 0.38098 0.99999 -0.11600
C 	C 	0.61953 0.67166 0.01579 -0.07500
C 	C 	0.59932 0.70552 0.00820 0.02200
C 	C 	0.55298 0.67380 0.95450 -0.07600
C 	C 	0.55359 0.65376 0.00459 0.02300
C 	C 	0.59267 0.64125 0.01366 -0.07600
H 	H 	0.64055 0.66865 0.98626 0.04100
H 	H 	0.63368 0.67170 0.05263 0.04000
C 	C 	0.62486 0.73436 0.01132 0.03200
H 	H 	0.52523 0.68321 0.94703 0.04400
H 	H 	0.56037 0.65689 0.92281 0.04500
C 	C 	0.52793 0.62493 0.00386 0.03100
H 	H 	0.60084 0.62373 0.98311 0.04400
H 	H 	0.59402 0.62682 0.04948 0.04200
C 	C 	0.54341 0.67825 0.04770 -0.07500
H 	H 	0.54372 0.66463 0.08428 0.03900
H 	H 	0.51548 0.68780 0.04213 0.04200
C 	C 	0.57022 0.70860 0.04982 -0.07600
H 	H 	0.55509 0.73263 0.04523 0.04400
H 	H 	0.58331 0.70944 0.08739 0.04300
C 	C 	0.57991 0.70429 0.95663 -0.07600
H 	H 	0.56501 0.72824 0.95018 0.04500
H 	H 	0.60016 0.70195 0.92595 0.04400
C 	C 	0.64584 0.75768 0.01633 -0.11700
C 	C 	0.50661 0.60170 0.00649 -0.11300
