data_crystal

_cell_length_a 18.99115
_cell_length_b 17.84410
_cell_length_c 48.48698
_cell_angle_alpha 89.64206
_cell_angle_beta  89.64728
_cell_angle_gamma 119.51394

_symmetry_space_group_name_	'P 1'
_symmetry_space_group_name_H-M	'P 1'

loop_
_symmetry_equiv_pos_as_xyz
  x,y,z

loop_
_atom_site_label
_atom_site_type_symbol
_atom_site_fract_x
_atom_site_fract_y
_atom_site_fract_z
_atom_site_charge
C 	C 	0.06350 0.84855 0.70317 0.44500
C 	C 	0.06047 0.90901 0.77998 0.38900
Ni	Ni	0.01639 0.08579 0.71649 1.14600
O 	O 	0.03863 0.00301 0.73249 -0.71100
H 	H 	0.03780 0.01867 0.75187 0.18000
O 	O 	0.05768 0.26291 0.18803 -0.29600
O 	O 	0.05215 0.98593 0.25045 -0.29900
O 	O 	0.02187 0.98844 0.19090 -0.31900
O 	O 	0.02412 0.11604 0.22494 -0.70700
H 	H 	0.02403 0.12372 0.24490 0.19500
F 	F 	0.01916 0.83597 0.21311 -0.35600
F 	F 	0.06416 0.24162 0.38055 -0.30100
F 	F 	0.09434 0.15206 0.34215 -0.29100
C 	C 	0.05087 0.51384 0.46690 -0.05100
Br	Br	0.02734 0.42304 0.41528 -0.03400
F 	F 	0.04414 0.02126 0.63085 -0.30800
C 	C 	0.07709 0.71878 0.69558 0.34200
C 	C 	0.07689 0.79184 0.68479 -0.20800
C 	C 	0.07348 0.80088 0.65615 0.34000
F 	F 	0.08009 0.87436 0.64523 -0.33600
F 	F 	0.07842 0.57945 0.60456 -0.31900
F 	F 	0.08589 0.71174 0.72308 -0.32500
C 	C 	0.00469 0.48059 0.92441 0.14400
C 	C 	0.01427 0.48393 0.98221 0.14000
Br	Br	0.01393 0.46119 0.88582 -0.01700
C 	C 	0.02867 0.93137 0.82817 0.29500
C 	C 	0.04826 0.88452 0.80944 -0.17100
F 	F 	0.02655 0.00266 0.81954 -0.32500
O 	O 	0.02744 0.26098 0.24702 -0.28600
C 	C 	0.06001 0.64931 0.67836 0.23600
Br	Br	0.02176 0.48094 0.02175 -0.02100
C 	C 	0.09111 0.22076 0.30032 0.31700
F 	F 	0.10697 0.29469 0.43365 -0.34200
O 	O 	0.11842 0.89498 0.72133 -0.32000
C 	C 	0.09450 0.23721 0.17052 0.40900
C 	C 	0.10323 0.28396 0.25316 0.39600
C 	C 	0.06729 0.27228 0.03333 0.26200
F 	F 	0.05746 0.33423 0.99068 -0.35900
C 	C 	0.06932 0.17174 0.09584 0.25100
C 	C 	0.06330 0.16579 0.12467 0.32500
C 	C 	0.08236 0.23924 0.14048 -0.18900
F 	F 	0.05477 0.10147 0.08094 -0.30300
F 	F 	0.04179 0.08932 0.13734 -0.34900
C 	C 	0.07024 0.85387 0.19125 0.33600
F 	F 	0.03161 0.70536 0.18829 -0.30000
C 	C 	0.12290 0.22482 0.32652 0.24300
C 	C 	0.12723 0.29266 0.28242 -0.20000
C 	C 	0.14369 0.28638 0.38719 0.23900
F 	F 	0.04534 0.98560 0.31781 -0.30700
Br	Br	0.09624 0.64189 0.50973 -0.03800
F 	F 	0.09879 0.06963 0.57762 -0.29500
C 	C 	0.06817 0.55183 0.93737 0.12400
F 	F 	0.07026 0.78365 0.90932 -0.31100
O 	O 	0.08339 0.16977 0.74634 -0.29400
C 	C 	0.05621 0.73138 0.63901 0.22400
O 	O 	0.12815 0.97858 0.77173 -0.30700
C 	C 	0.09692 0.00456 0.19086 0.43900
C 	C 	0.11224 0.04860 0.26481 0.42300
C 	C 	0.10296 0.31979 0.00907 0.31900
C 	C 	0.09347 0.25078 0.08251 0.00400
C 	C 	0.10090 0.31685 0.12705 0.32500
C 	C 	0.07685 0.78740 0.17872 0.25000
C 	C 	0.11969 0.08811 0.62614 0.33300
C 	C 	0.07513 0.55294 0.96649 -0.05900
O 	O 	0.11632 0.14563 0.69182 -0.32100
F 	F 	0.02396 0.14776 0.29269 -0.36300
C 	C 	0.13919 0.55571 0.46082 0.33700
Ni	Ni	0.14460 0.01965 0.73059 1.13500
C 	C 	0.11639 0.26194 0.05289 0.00200
C 	C 	0.10624 0.32256 0.09816 0.23600
F 	F 	0.11814 0.38793 0.14195 -0.33500
C 	C 	0.12018 0.99752 0.31190 0.32900
F 	F 	0.05197 0.57529 0.68934 -0.29500
F 	F 	0.03772 0.61748 0.07652 -0.33900
F 	F 	0.01685 0.72211 0.11285 -0.31100
F 	F 	0.12932 0.95283 0.35754 -0.31100
F 	F 	0.04428 0.73733 0.61168 -0.30700
C 	C 	0.16552 0.31575 0.41415 0.32200
C 	C 	0.14231 0.10290 0.67683 0.42700
O 	O 	0.15871 0.04662 0.68846 -0.31300
Ni	Ni	0.13877 0.16871 0.21915 1.14400
O 	O 	0.14008 0.20616 0.17955 -0.31100
O 	O 	0.15235 0.28199 0.23396 -0.31600
F 	F 	0.12776 0.39893 0.08542 -0.35200
C 	C 	0.07511 0.70054 0.11746 0.24200
C 	C 	0.11451 0.93841 0.18079 -0.19800
C 	C 	0.14814 0.11177 0.59898 0.25500
F 	F 	0.13559 0.16936 0.81101 -0.32100
C 	C 	0.08690 0.64870 0.09867 0.32300
C 	C 	0.02209 0.54229 0.48907 0.13600
O 	O 	0.14785 0.13052 0.25704 -0.34200
O 	O 	0.17088 0.61595 0.44201 -0.32800
O 	O 	0.15308 0.07107 0.20425 -0.31100
C 	C 	0.12801 0.80504 0.15579 0.01300
C 	C 	0.15380 0.02463 0.28547 -0.18300
C 	C 	0.04552 0.80797 0.81819 0.30700
C 	C 	0.15733 0.18571 0.75293 0.40100
C 	C 	0.12633 0.73406 0.14018 0.00900
C 	C 	0.04043 0.65221 0.65062 0.04800
O 	O 	0.18615 0.54075 0.47697 -0.31100
C 	C 	0.18230 0.30409 0.33690 0.00100
C 	C 	0.16331 0.98152 0.33221 0.25100
C 	C 	0.17007 0.13154 0.64838 -0.19100
Br	Br	0.13930 0.65148 0.91527 -0.00500
F 	F 	0.06525 0.76266 0.80038 -0.32200
C 	C 	0.15298 0.61586 0.97958 0.33200
O 	O 	0.15268 0.65952 0.00137 -0.30100
C 	C 	0.16937 0.95689 0.15890 0.34100
C 	C 	0.18960 0.37114 0.29217 0.33000
F 	F 	0.16803 0.81000 0.32502 -0.30800
C 	C 	0.18755 0.36666 0.00700 -0.18500
C 	C 	0.15184 0.63259 0.10209 -0.18800
O 	O 	0.19455 0.15102 0.73908 -0.31300
O 	O 	0.16656 0.62283 0.05326 -0.33300
C 	C 	0.19566 0.28333 0.04507 0.23300
C 	C 	0.17617 0.89032 0.14642 0.24400
C 	C 	0.20413 0.31185 0.36658 0.00200
O 	O 	0.21098 0.49369 0.42114 -0.34200
C 	C 	0.20034 0.24018 0.80019 0.32100
C 	C 	0.18650 0.61181 0.07785 0.43000
C 	C 	0.18189 0.70617 0.14603 0.25500
C 	C 	0.21483 0.37782 0.31962 0.23800
C 	C 	0.20550 0.25654 0.77173 -0.17900
C 	C 	0.22412 0.46049 0.00764 0.37900
O 	O 	0.21877 0.49395 0.03094 -0.34100
C 	C 	0.22988 0.33220 0.02094 0.30800
C 	C 	0.19355 0.65400 0.12732 0.34200
F 	F 	0.21321 0.03860 0.14891 -0.32600
F 	F 	0.22392 0.44162 0.27537 -0.33000
F 	F 	0.21530 0.72141 0.35893 -0.35300
O 	O 	0.22001 0.64166 0.96566 -0.34500
C 	C 	0.24461 0.38158 0.41923 -0.18600
C 	C 	0.22822 0.17695 0.59390 0.00000
F 	F 	0.24190 0.26561 0.06222 -0.32500
C 	C 	0.23182 0.03815 0.27970 0.32500
F 	F 	0.22728 0.90800 0.12458 -0.31600
C 	C 	0.23114 0.85395 0.34227 0.24500
C 	C 	0.25337 0.45985 0.43197 0.38000
F 	F 	0.23830 0.04628 0.56310 -0.30700
F 	F 	0.22755 0.73338 0.16911 -0.28900
C 	C 	0.23916 0.98950 0.32588 -0.00100
Ni	Ni	0.25164 0.62107 0.41365 1.14000
O 	O 	0.25051 0.50763 0.98452 -0.32700
C 	C 	0.24873 0.19927 0.64333 0.33000
C 	C 	0.01914 0.77601 0.84496 0.27800
Ni	Ni	0.24664 0.71618 0.02806 1.13400
O 	O 	0.24874 0.60066 0.08093 -0.29300
F 	F 	0.26903 0.45613 0.32962 -0.32000
C 	C 	0.25586 0.80891 0.35944 0.34200
F 	F 	0.26557 0.06617 0.25430 -0.34300
O 	O 	0.26782 0.73923 0.41018 -0.34000
F 	F 	0.24804 0.62789 0.13310 -0.31600
C 	C 	0.26342 0.19149 0.56570 0.00900
C 	C 	0.26936 0.33386 0.76115 0.33100
F 	F 	0.27247 0.35319 0.73389 -0.32200
C 	C 	0.26518 0.29267 0.81715 0.24000
C 	C 	0.28583 0.35584 0.37450 0.24400
C 	C 	0.27441 0.02100 0.29985 0.25500
C 	C 	0.26985 0.94378 0.34311 0.01200
O 	O 	0.29211 0.48713 0.45596 -0.30800
C 	C 	0.27835 0.12899 0.55376 0.23400
C 	C 	0.27807 0.22132 0.61626 0.23900
F 	F 	0.28036 0.33356 0.56300 -0.32100
F 	F 	0.26367 0.27042 0.84407 -0.31900
C 	C 	0.30602 0.39041 0.40104 0.31600
C 	C 	0.30047 0.27466 0.55394 0.23800
F 	F 	0.29776 0.24179 0.66472 -0.33100
F 	F 	0.01126 0.69876 0.85245 -0.33000
Ni	Ni	0.31324 0.60298 0.47430 1.12800
F 	F 	0.30920 0.36179 0.01507 -0.37700
O 	O 	0.31402 0.62621 0.37838 -0.30100
O 	O 	0.30952 0.81450 0.00135 -0.32800
O 	O 	0.30738 0.66014 0.01992 -0.71000
Br	Br	0.30861 0.90884 0.45947 -0.06300
Ni	Ni	0.31794 0.59322 0.04868 1.13500
Ni	Ni	0.31567 0.64117 0.98163 1.13300
O 	O 	0.00897 0.85468 0.76171 -0.30500
O 	O 	0.32684 0.72020 0.48881 -0.30800
C 	C 	0.32165 0.85308 0.37735 -0.19200
C 	C 	0.33330 0.38784 0.77825 0.25100
O 	O 	0.32332 0.77499 0.06094 -0.32300
C 	C 	0.33272 0.80315 0.39964 0.39600
C 	C 	0.33471 0.36317 0.80573 0.00600
O 	O 	0.33892 0.64891 0.43776 -0.71400
C 	C 	0.33791 0.98903 0.35993 0.23900
F 	F 	0.34531 0.37081 0.35595 -0.30200
C 	C 	0.34169 0.15422 0.53460 0.32500
F 	F 	0.34784 0.02970 0.29353 -0.29900
F 	F 	0.35236 0.76538 0.32766 -0.34500
Br	Br	0.35286 0.47708 0.94359 -0.06300
C 	C 	0.00503 0.90103 0.85528 0.30800
H 	H 	0.35901 0.61254 0.42965 0.16400
F 	F 	0.35611 0.28321 0.61175 -0.33000
H 	H 	0.36269 0.70873 0.02031 0.15700
C 	C 	0.36515 0.29982 0.53529 0.32200
F 	F 	0.36204 0.09552 0.52550 -0.36100
C 	C 	0.36432 0.94370 0.37686 0.33200
F 	F 	0.36666 0.82347 0.11974 -0.33100
F 	F 	0.37161 0.46100 0.85516 -0.31100
Br	Br	0.37148 0.96287 0.03628 -0.08100
F 	F 	0.37752 0.07643 0.36016 -0.30700
C 	C 	0.37935 0.83081 0.99015 0.30200
C 	C 	0.00005 0.54438 0.61291 0.31000
F 	F 	0.98633 0.94698 0.87318 -0.33100
F 	F 	0.98790 0.24360 0.03892 -0.34200
C 	C 	0.80747 0.54445 0.92403 0.38300
C 	C 	0.59933 0.18093 0.96516 0.34300
C 	C 	0.85631 0.37392 0.92746 0.34700
C 	C 	0.57670 0.38538 0.96787 0.31700
C 	C 	0.62686 0.20268 0.87841 0.42600
C 	C 	0.57951 0.38658 0.87537 0.39600
Ni	Ni	0.72446 0.37186 0.95823 1.12600
Ni	Ni	0.56229 0.26991 0.92104 1.13400
Ni	Ni	0.73306 0.38366 0.89113 1.14100
O 	O 	0.81205 0.49909 0.94557 -0.32400
O 	O 	0.77385 0.50795 0.90022 -0.33700
O 	O 	0.56612 0.21496 0.88520 -0.34000
O 	O 	0.64872 0.25285 0.97802 -0.31400
O 	O 	0.58497 0.18168 0.93892 -0.34400
O 	O 	0.64289 0.37895 0.86711 -0.30600
O 	O 	0.79431 0.32327 0.94272 -0.34000
O 	O 	0.84386 0.40586 0.90468 -0.32600
O 	O 	0.54154 0.35236 0.89905 -0.33700
O 	O 	0.65058 0.41158 0.97676 -0.32000
O 	O 	0.53387 0.30662 0.95764 -0.32700
O 	O 	0.70181 0.26089 0.88393 -0.34600
O 	O 	0.67143 0.35850 0.92454 -0.71900
H 	H 	0.66245 0.40825 0.92526 0.17200
C 	C 	0.79236 0.40527 0.58405 0.39800
C 	C 	0.48038 0.27425 0.52987 0.41300
C 	C 	0.60695 0.19905 0.59201 0.41200
C 	C 	0.64923 0.48700 0.51599 0.33200
C 	C 	0.58814 0.14066 0.50504 0.34100
C 	C 	0.80791 0.35958 0.49631 0.31300
Ni	Ni	0.62597 0.36156 0.56511 1.13600
Ni	Ni	0.63541 0.32437 0.49979 1.13600
Ni	Ni	0.71301 0.25399 0.54401 1.13500
O 	O 	0.74353 0.43703 0.57849 -0.31500
O 	O 	0.77209 0.32372 0.57838 -0.32100
O 	O 	0.56669 0.19649 0.49682 -0.33600
O 	O 	0.51135 0.27032 0.55347 -0.34100
O 	O 	0.52752 0.31951 0.50905 -0.33400
O 	O 	0.81075 0.32294 0.51988 -0.32400
O 	O 	0.61805 0.27661 0.59669 -0.29100
O 	O 	0.61388 0.17759 0.56690 -0.35400
O 	O 	0.73821 0.33236 0.48285 -0.32500
O 	O 	0.62096 0.46003 0.54162 -0.30200
O 	O 	0.68652 0.45318 0.50224 -0.34300
O 	O 	0.66259 0.16748 0.51335 -0.33700
O 	O 	0.67338 0.33064 0.53626 -0.72100
H 	H 	0.72537 0.38429 0.53435 0.17300
C 	C 	0.88348 0.94823 0.68762 0.40900
C 	C 	0.88878 0.99261 0.76089 0.39900
Ni	Ni	0.94982 0.88806 0.73318 1.13400
O 	O 	0.86785 0.88863 0.70659 -0.30800
O 	O 	0.99572 0.85126 0.70147 -0.35400
O 	O 	0.91153 0.04349 0.73849 -0.32600
O 	O 	0.89769 0.92325 0.76271 -0.32200
O 	O 	0.95694 0.01307 0.68436 -0.33800
C 	C 	0.39069 0.79594 0.48246 0.32300
C 	C 	0.49090 0.65413 0.46639 0.33000
C 	C 	0.39148 0.68297 0.37266 0.38200
Ni	Ni	0.43831 0.75200 0.42942 1.13300
O 	O 	0.40227 0.83224 0.41252 -0.33500
O 	O 	0.45085 0.80067 0.46765 -0.34900
O 	O 	0.44744 0.71046 0.39196 -0.33900
O 	O 	0.43437 0.64662 0.48395 -0.32400
O 	O 	0.50367 0.69693 0.44283 -0.31700
C 	C 	0.41909 0.57620 0.00135 0.34000
C 	C 	0.39459 0.77879 0.06613 0.38300
O 	O 	0.39762 0.56241 0.02765 -0.31100
O 	O 	0.41883 0.63945 0.98782 -0.34200
O 	O 	0.38310 0.77161 0.97430 -0.30700
O 	O 	0.40493 0.71011 0.06417 -0.31400
C 	C 	0.85169 0.02844 0.25543 0.41100
C 	C 	0.86491 0.01857 0.18366 0.45000
Ni	Ni	0.96919 0.17532 0.21501 1.12700
Ni	Ni	0.96859 0.99427 0.22568 1.13100
O 	O 	0.86449 0.09439 0.23883 -0.29500
O 	O 	0.90550 0.00210 0.25815 -0.31100
O 	O 	0.92244 0.09817 0.18108 -0.34500
O 	O 	0.86823 0.96794 0.20293 -0.32400
C 	C 	0.60082 0.93600 0.08798 0.23800
C 	C 	0.58780 0.93097 0.11661 0.00700
C 	C 	0.50892 0.89821 0.12710 0.24500
C 	C 	0.44307 0.86045 0.10928 0.33300
C 	C 	0.45597 0.85258 0.08116 -0.19200
C 	C 	0.53490 0.89724 0.07027 0.31700
C 	C 	0.65501 0.95025 0.13541 0.00500
F 	F 	0.49590 0.89755 0.15469 -0.29300
F 	F 	0.54787 0.89506 0.04280 -0.38000
C 	C 	0.69000 0.02669 0.15047 0.25100
C 	C 	0.75646 0.04708 0.16720 0.34900
C 	C 	0.78922 0.99154 0.16874 -0.20700
C 	C 	0.75232 0.91345 0.15447 0.34400
C 	C 	0.68528 0.89275 0.13788 0.24300
F 	F 	0.66019 0.08179 0.14857 -0.30700
F 	F 	0.78295 0.85902 0.15596 -0.33700
F 	F 	0.78918 0.12083 0.18200 -0.36600
F 	F 	0.65037 0.81753 0.12386 -0.31800
F 	F 	0.67727 0.97303 0.07752 -0.32600
C 	C 	0.54253 0.71599 0.31941 0.24800
C 	C 	0.54764 0.78938 0.30657 0.00600
C 	C 	0.48198 0.80455 0.30883 0.24400
C 	C 	0.41718 0.75343 0.32661 0.31800
C 	C 	0.42101 0.69227 0.34392 -0.16200
C 	C 	0.47850 0.66664 0.33775 0.32800
C 	C 	0.62469 0.85497 0.29361 0.00400
F 	F 	0.48284 0.87130 0.29494 -0.30500
F 	F 	0.47781 0.60056 0.35201 -0.31700
C 	C 	0.62899 0.87209 0.26515 0.24700
C 	C 	0.70197 0.93398 0.25299 0.32700
C 	C 	0.77199 0.97759 0.26902 -0.19200
C 	C 	0.76716 0.96204 0.29759 0.32100
C 	C 	0.69368 0.90171 0.30988 0.24200
F 	F 	0.56285 0.82755 0.24920 -0.29700
F 	F 	0.83397 0.00466 0.31340 -0.31500
F 	F 	0.70540 0.94906 0.22544 -0.35500
F 	F 	0.68956 0.88819 0.33757 -0.32700
F 	F 	0.60210 0.69586 0.31551 -0.31100
F 	F 	0.38453 0.44346 0.40737 -0.35400
F 	F 	0.43015 0.98768 0.39292 -0.35400
C 	C 	0.46903 0.02156 0.48080 0.12600
C 	C 	0.53028 0.04683 0.50103 -0.06500
C 	C 	0.52529 0.98393 0.52031 0.11000
C 	C 	0.45869 0.89939 0.51952 0.12100
C 	C 	0.40548 0.87392 0.49719 -0.07300
C 	C 	0.40187 0.93807 0.48170 0.11000
Br	Br	0.48446 0.09375 0.44896 -0.03400
Br	Br	0.44223 0.81697 0.54807 -0.02700
Br	Br	0.61423 0.00729 0.54432 -0.06400
C 	C 	0.93889 0.49824 0.49598 0.09600
C 	C 	0.88579 0.42071 0.48267 -0.07600
C 	C 	0.91366 0.39515 0.45950 0.12100
C 	C 	0.99500 0.44484 0.45065 0.07200
Br	Br	0.89681 0.54580 0.52274 -0.10600
Br	Br	0.84203 0.29013 0.44068 -0.06500
C 	C 	0.56816 0.57545 0.46020 0.10600
C 	C 	0.55190 0.63102 0.47590 -0.07300
C 	C 	0.58680 0.65600 0.50218 0.11700
C 	C 	0.62497 0.61350 0.51444 0.11700
C 	C 	0.62461 0.54340 0.50090 -0.07400
C 	C 	0.59730 0.52565 0.47317 0.12400
Br	Br	0.59288 0.42990 0.45327 -0.12500
Br	Br	0.56122 0.57599 0.42058 -0.00200
Br	Br	0.68283 0.65549 0.54849 -0.05800
Br	Br	0.59071 0.75449 0.51977 -0.07300
C 	C 	0.69645 0.96860 0.67959 0.23900
C 	C 	0.70815 0.00271 0.65276 0.01100
C 	C 	0.76911 0.00403 0.63587 0.24300
C 	C 	0.82264 0.97883 0.64657 0.31400
C 	C 	0.81566 0.95220 0.67426 -0.19200
C 	C 	0.74957 0.94280 0.69027 0.32000
C 	C 	0.66522 0.04843 0.64376 0.00200
F 	F 	0.77900 0.03398 0.60952 -0.33500
F 	F 	0.73958 0.91345 0.71668 -0.33900
C 	C 	0.69839 0.13648 0.64927 0.23900
C 	C 	0.67071 0.18531 0.63511 0.32000
C 	C 	0.61041 0.14650 0.61504 -0.19300
C 	C 	0.56876 0.05622 0.61294 0.32000
C 	C 	0.59731 0.00746 0.62676 0.24900
F 	F 	0.76115 0.17579 0.66694 -0.32500
F 	F 	0.50414 0.01655 0.59602 -0.34400
F 	F 	0.70674 0.27130 0.63938 -0.33200
F 	F 	0.56180 0.92135 0.62250 -0.32200
F 	F 	0.63607 0.96453 0.69579 -0.30800
F 	F 	0.88275 0.98279 0.63029 -0.32500
C 	C 	0.39310 0.24216 0.52904 -0.19900
F 	F 	0.40862 0.38348 0.52706 -0.36900
C 	C 	0.98036 0.57223 0.63735 -0.06100
C 	C 	0.93835 0.48360 0.59635 0.28200
C 	C 	0.85700 0.45207 0.60392 -0.16900
C 	C 	0.83798 0.47480 0.62942 0.32100
C 	C 	0.89934 0.53344 0.64623 0.25800
F 	F 	0.75954 0.44451 0.63701 -0.32300
F 	F 	0.95745 0.45874 0.57234 -0.36200
F 	F 	0.87972 0.55864 0.67008 -0.32900
C 	C 	0.93858 0.41920 0.94011 -0.09500
C 	C 	0.94793 0.41546 0.96896 0.09400
Br	Br	0.87974 0.31075 0.98956 -0.05300
C 	C 	0.58077 0.03366 0.97308 0.13300
C 	C 	0.56051 0.09729 0.98012 -0.08400
C 	C 	0.49220 0.07467 0.99686 0.11700
C 	C 	0.44028 0.98786 0.00415 0.10600
C 	C 	0.44947 0.92204 0.99102 -0.05900
C 	C 	0.52503 0.94548 0.97822 0.11700
Br	Br	0.55961 0.86129 0.97312 -0.04000
Br	Br	0.68705 0.06829 0.95837 -0.02000
Br	Br	0.46906 0.16242 0.00966 -0.07300
C 	C 	0.54136 0.55873 0.99898 0.12100
C 	C 	0.46378 0.53584 0.98955 -0.07300
C 	C 	0.42909 0.47367 0.96877 0.13000
C 	C 	0.46037 0.41835 0.96339 0.13100
C 	C 	0.53893 0.44075 0.97305 -0.07000
C 	C 	0.58305 0.51978 0.98743 0.11700
Br	Br	0.69932 0.58840 0.98379 -0.07400
Br	Br	0.59403 0.64935 0.02553 -0.04500
Br	Br	0.39445 0.31483 0.94283 -0.06500
C 	C 	0.69984 0.94541 0.80024 0.24900
C 	C 	0.72363 0.02586 0.81198 0.01000
C 	C 	0.80418 0.09239 0.80925 0.24400
C 	C 	0.85939 0.08010 0.79356 0.32700
C 	C 	0.83479 0.00093 0.78075 -0.16800
C 	C 	0.75543 0.93266 0.78485 0.33100
C 	C 	0.66452 0.04168 0.82671 0.01000
F 	F 	0.82836 0.16946 0.82147 -0.32700
F 	F 	0.73152 0.85503 0.77308 -0.31900
C 	C 	0.64813 0.01896 0.85471 0.24200
C 	C 	0.62112 0.06297 0.87160 0.32700
C 	C 	0.61278 0.13102 0.86064 -0.20400
C 	C 	0.61450 0.14219 0.83195 0.32900
C 	C 	0.64007 0.09715 0.81493 0.24200
F 	F 	0.66583 0.96042 0.86597 -0.31700
F 	F 	0.60006 0.20332 0.82089 -0.32500
F 	F 	0.60989 0.04474 0.89899 -0.36500
F 	F 	0.64962 0.11435 0.78742 -0.30500
F 	F 	0.62249 0.88028 0.80327 -0.30100
F 	F 	0.93663 0.14547 0.79045 -0.34200
C 	C 	0.41286 0.39647 0.82005 0.00400
F 	F 	0.39735 0.45974 0.76751 -0.29700
C 	C 	0.47079 0.37591 0.81003 0.24000
C 	C 	0.53290 0.38349 0.82708 0.32200
C 	C 	0.53641 0.40961 0.85462 -0.18200
C 	C 	0.48551 0.44173 0.86325 0.32300
C 	C 	0.42379 0.43502 0.84601 0.24900
F 	F 	0.46298 0.34187 0.78451 -0.31200
F 	F 	0.49324 0.47525 0.88884 -0.35100
F 	F 	0.58601 0.35949 0.81743 -0.31900
C 	C 	0.87005 0.75186 0.89225 0.22400
C 	C 	0.95293 0.77881 0.88948 0.02700
C 	C 	0.98868 0.74898 0.90880 0.20700
C 	C 	0.93939 0.67913 0.92624 0.32600
C 	C 	0.85489 0.63919 0.92402 -0.19300
C 	C 	0.82183 0.68459 0.91055 0.32200
C 	C 	0.99657 0.82123 0.86346 -0.06800
F 	F 	0.74067 0.65378 0.91139 -0.35300
F 	F 	0.83488 0.78437 0.87526 -0.31500
F 	F 	0.97332 0.64572 0.94334 -0.38800
