data_crystal

_cell_length_a 15.58705
_cell_length_b 16.76386
_cell_length_c 48.54086
_cell_angle_alpha 90.22637
_cell_angle_beta  90.22437
_cell_angle_gamma 119.40186

_symmetry_space_group_name_	'P 1'
_symmetry_space_group_name_H-M	'P 1'

loop_
_symmetry_equiv_pos_as_xyz
  x,y,z

loop_
_atom_site_label
_atom_site_type_symbol
_atom_site_fract_x
_atom_site_fract_y
_atom_site_fract_z
_atom_site_charge
C 	C 	0.13982 0.06488 0.73817 0.32600
C 	C 	0.14714 0.04907 0.81705 0.30600
Ni	Ni	0.02663 0.09920 0.77962 1.11800
Ni	Ni	0.02462 0.90890 0.77598 1.11800
O 	O 	0.07719 0.09472 0.74210 -0.38900
O 	O 	0.10334 0.96030 0.81080 -0.36700
O 	O 	0.14745 0.11007 0.79944 -0.36800
O 	O 	0.14272 0.00489 0.75513 -0.36400
O 	O 	0.22347 0.71036 0.40851 -0.37500
O 	O 	0.17186 0.49642 0.13429 -0.34600
C 	C 	0.16081 0.92098 0.23880 0.30100
C 	C 	0.14653 0.21189 0.30393 0.32600
C 	C 	0.15227 0.94916 0.31465 0.32000
C 	C 	0.13916 0.19409 0.22669 0.31400
Ni	Ni	0.19704 0.09091 0.27010 1.11800
O 	O 	0.21102 0.01218 0.23885 -0.33600
O 	O 	0.09907 0.87502 0.25901 -0.35100
O 	O 	0.18824 0.16033 0.30456 -0.36800
O 	O 	0.08671 0.20406 0.28368 -0.36100
O 	O 	0.21805 0.00401 0.29676 -0.35400
O 	O 	0.05916 0.92631 0.31204 -0.36500
O 	O 	0.20832 0.19618 0.24369 -0.34200
O 	O 	0.04391 0.13854 0.23054 -0.35700
O 	O 	0.06096 0.02281 0.26467 -0.71900
H 	H 	0.06161 0.01512 0.24457 0.17000
C 	C 	0.11853 0.31911 0.20692 -0.02700
C 	C 	0.16665 0.26700 0.20630 -0.06700
C 	C 	0.22437 0.27288 0.18342 0.12900
C 	C 	0.23199 0.32923 0.16131 -0.02600
C 	C 	0.18788 0.38495 0.16249 -0.08400
C 	C 	0.12722 0.37649 0.18504 0.13300
Br	Br	0.05369 0.44077 0.18639 -0.18300
H 	H 	0.07198 0.31314 0.22422 0.08000
C 	C 	0.21469 0.80473 0.23313 -0.03200
C 	C 	0.19511 0.87045 0.22117 -0.06400
C 	C 	0.19764 0.87941 0.19237 0.12300
H 	H 	0.21442 0.79852 0.25535 0.09100
Br	Br	0.15791 0.95849 0.17477 -0.18700
C 	C 	0.15863 0.38238 0.35715 -0.03100
C 	C 	0.18445 0.29236 0.32221 -0.08200
C 	C 	0.12089 0.30556 0.33985 0.13300
H 	H 	0.10998 0.39049 0.37137 0.07200
C 	C 	0.18658 0.77333 0.35442 -0.03400
C 	C 	0.25070 0.82759 0.37547 -0.07500
C 	C 	0.27672 0.92088 0.37761 0.13000
C 	C 	0.24452 0.95998 0.35750 -0.03100
C 	C 	0.18197 0.90599 0.33615 -0.08000
C 	C 	0.15086 0.81154 0.33506 0.13100
H 	H 	0.16450 0.70121 0.35306 0.07500
H 	H 	0.26656 0.03209 0.35880 0.07400
C 	C 	0.02454 0.64934 0.49969 0.07900
C 	C 	0.04695 0.72202 0.54435 -0.08600
C 	C 	0.08461 0.69941 0.52128 0.01800
N 	N 	0.07683 0.66526 0.47648 -0.14800
C 	C 	0.17216 0.72345 0.48330 0.01200
C 	C 	0.17907 0.74920 0.51098 -0.04000
H 	H 	0.09472 0.76185 0.56121 0.06400
H 	H 	0.05308 0.62334 0.45895 0.08700
Br	Br	0.16121 0.93246 0.69496 -0.21000
C 	C 	0.07827 0.37048 0.00356 -0.08700
C 	C 	0.13089 0.46321 0.01104 0.02100
C 	C 	0.08653 0.50408 0.02560 0.07500
N 	N 	0.15471 0.57705 0.03952 -0.14800
C 	C 	0.24215 0.57964 0.03598 0.00300
C 	C 	0.23014 0.51017 0.01780 -0.04100
H 	H 	0.11225 0.33967 0.99125 0.06400
H 	H 	0.13785 0.60360 0.05686 0.07200
Br	Br	0.07686 0.10755 0.87105 -0.21100
O 	O 	0.18637 0.66712 0.14481 -0.35900
C 	C 	0.22857 0.74325 0.21664 0.13300
Br	Br	0.23731 0.64521 0.23445 -0.16800
Br	Br	0.29757 0.20849 0.18252 -0.19200
C 	C 	0.25289 0.71956 0.46891 0.27900
C 	C 	0.28828 0.78567 0.39530 0.30600
O 	O 	0.24132 0.63931 0.46216 -0.38200
C 	C 	0.22855 0.46693 0.14499 0.32500
O 	O 	0.27514 0.55988 0.08188 -0.36600
H 	H 	0.24568 0.77821 0.52336 0.05400
H 	H 	0.27683 0.47904 0.01780 0.05400
C 	C 	0.29994 0.51655 0.37901 0.30900
C 	C 	0.28809 0.47878 0.45479 0.28100
Ni	Ni	0.24639 0.60769 0.42278 1.12100
O 	O 	0.36584 0.51534 0.39645 -0.35100
O 	O 	0.25279 0.56277 0.38454 -0.37300
O 	O 	0.32374 0.79447 0.45766 -0.35700
O 	O 	0.38070 0.54171 0.45739 -0.36500
O 	O 	0.23221 0.48641 0.43584 -0.36700
O 	O 	0.38299 0.83121 0.40237 -0.36400
O 	O 	0.38513 0.67920 0.42071 -0.71900
H 	H 	0.39232 0.69319 0.40088 0.16500
C 	C 	0.23243 0.68273 0.16886 0.30200
C 	C 	0.31042 0.60537 0.05934 0.27900
C 	C 	0.32257 0.81623 0.09057 0.25700
Ni	Ni	0.22788 0.61746 0.11137 1.11300
O 	O 	0.27927 0.63727 0.17597 -0.33400
O 	O 	0.38353 0.69022 0.06113 -0.35400
O 	O 	0.32328 0.51448 0.14208 -0.38000
O 	O 	0.25343 0.72942 0.08611 -0.36100
O 	O 	0.35981 0.68606 0.12342 -0.70700
H 	H 	0.35852 0.73984 0.13105 0.16100
H 	H 	0.27812 0.33463 0.14397 0.07400
C 	C 	0.22046 0.82374 0.17596 -0.03100
C 	C 	0.23054 0.75197 0.18763 -0.07200
H 	H 	0.22447 0.83276 0.15381 0.06900
C 	C 	0.25960 0.44623 0.35723 -0.07300
C 	C 	0.32242 0.43519 0.33874 0.12500
C 	C 	0.28480 0.35805 0.32151 -0.02500
H 	H 	0.33345 0.34956 0.30738 0.07200
Br	Br	0.34766 0.99385 0.40907 -0.22300
C 	C 	0.26114 0.22363 0.53748 0.08400
C 	C 	0.20913 0.26793 0.52896 -0.07900
C 	C 	0.21135 0.28899 0.50096 0.01800
C 	C 	0.27443 0.27854 0.48291 0.08800
N 	N 	0.29377 0.22891 0.56348 -0.15000
N 	N 	0.30066 0.33966 0.46240 -0.14900
C 	C 	0.25516 0.38913 0.46720 0.01000
C 	C 	0.19955 0.36033 0.49103 -0.04100
H 	H 	0.17455 0.29122 0.54388 0.06300
H 	H 	0.18183 0.40356 0.50371 0.05300
H 	H 	0.27947 0.26224 0.57959 0.10100
C 	C 	0.27729 0.20846 0.71926 -0.02800
C 	C 	0.22000 0.11251 0.71817 -0.07900
C 	C 	0.23981 0.06325 0.69799 0.12900
C 	C 	0.31677 0.10998 0.67937 -0.02800
H 	H 	0.26266 0.24671 0.73482 0.06900
H 	H 	0.33154 0.07170 0.66385 0.06200
C 	C 	0.29449 0.09775 0.03188 0.08200
C 	C 	0.23329 0.00522 0.03855 -0.07800
C 	C 	0.24939 0.97377 0.06375 0.01700
N 	N 	0.35939 0.97712 0.09439 -0.15100
C 	C 	0.29660 0.88908 0.08737 0.01400
C 	C 	0.22709 0.88418 0.06840 -0.04100
H 	H 	0.18058 0.95796 0.02370 0.06000
H 	H 	0.18948 0.82883 0.05365 0.05700
C 	C 	0.31209 0.08920 0.83503 -0.02900
C 	C 	0.22010 0.08271 0.83939 -0.07100
C 	C 	0.20109 0.11348 0.86444 0.12300
C 	C 	0.27439 0.15099 0.88475 -0.02700
H 	H 	0.32695 0.06579 0.81571 0.08000
H 	H 	0.25989 0.17541 0.90393 0.06700
C 	C 	0.32202 0.21070 0.51921 0.02100
C 	C 	0.33154 0.02909 0.07996 0.09100
N 	N 	0.31153 0.12756 0.00569 -0.15100
H 	H 	0.27730 0.08579 0.98852 0.09800
C 	C 	0.46241 0.22803 0.98021 0.25500
C 	C 	0.44682 0.21125 0.90001 0.32600
O 	O 	0.44173 0.27132 0.96056 -0.35500
O 	O 	0.45755 0.16730 0.92095 -0.36800
C 	C 	0.45972 0.25230 0.66206 0.32900
C 	C 	0.45006 0.25424 0.58377 0.26100
O 	O 	0.46227 0.31294 0.64431 -0.36200
O 	O 	0.44642 0.19497 0.60257 -0.36900
C 	C 	0.56043 0.75490 0.47040 0.27900
C 	C 	0.58385 0.79659 0.39454 0.30000
Ni	Ni	0.45975 0.61944 0.42405 1.11700
Ni	Ni	0.43709 0.79932 0.43552 1.12300
O 	O 	0.57250 0.70710 0.45085 -0.34500
O 	O 	0.48267 0.76540 0.47033 -0.37500
O 	O 	0.54881 0.70663 0.39357 -0.34500
O 	O 	0.56983 0.83734 0.41648 -0.35900
C 	C 	0.53912 0.62900 0.11648 0.27700
Ni	Ni	0.46304 0.74615 0.09680 1.12000
Ni	Ni	0.39744 0.64480 0.15506 1.13600
O 	O 	0.49633 0.64541 0.09573 -0.37500
O 	O 	0.47826 0.77724 0.16360 -0.36900
O 	O 	0.41721 0.83975 0.09333 -0.36200
O 	O 	0.52048 0.64177 0.14216 -0.34900
Br	Br	0.51554 0.67572 0.20371 -0.26700
Br	Br	0.45867 0.52675 0.33583 -0.20500
C 	C 	0.33510 0.24406 0.49223 -0.08000
C 	C 	0.37517 0.22000 0.56201 0.01700
C 	C 	0.39553 0.20922 0.53489 -0.04700
H 	H 	0.39498 0.24934 0.47968 0.06500
H 	H 	0.46851 0.22870 0.52733 0.05100
H 	H 	0.36497 0.36286 0.45084 0.09400
C 	C 	0.37501 0.20575 0.68071 -0.08100
C 	C 	0.35500 0.25512 0.70080 0.13000
Br	Br	0.43598 0.38554 0.70438 -0.19800
C 	C 	0.39855 0.11860 0.07175 -0.08000
C 	C 	0.37514 0.15372 0.04848 0.02000
C 	C 	0.40279 0.20134 0.00527 0.01400
C 	C 	0.44470 0.21941 0.03146 -0.04800
H 	H 	0.46986 0.15661 0.08173 0.06300
H 	H 	0.52328 0.25301 0.03537 0.04500
H 	H 	0.43052 0.00058 0.10216 0.10300
H 	H 	0.53963 0.46542 0.10640 0.05900
C 	C 	0.36757 0.16048 0.88001 -0.08100
C 	C 	0.38631 0.12907 0.85501 0.13000
Br	Br	0.51363 0.14353 0.84714 -0.18100
O 	O 	0.57376 0.82428 0.12500 -0.37100
O 	O 	0.51970 0.19131 0.97541 -0.36700
O 	O 	0.48911 0.30087 0.90037 -0.35700
O 	O 	0.50152 0.34426 0.58805 -0.37100
O 	O 	0.52049 0.21982 0.65966 -0.38300
C 	C 	0.56501 0.81987 0.15251 0.30900
H 	H 	0.57841 0.75091 0.52593 0.09500
Ni	Ni	0.54734 0.37714 0.93611 1.11500
Ni	Ni	0.56462 0.20140 0.62275 1.12200
H 	H 	0.55471 0.83607 0.34290 0.07500
C 	C 	0.62285 0.61457 0.11079 0.01500
C 	C 	0.61021 0.52774 0.10565 -0.03700
H 	H 	0.62216 0.40477 0.06975 0.05700
N 	N 	0.63823 0.80417 0.51587 -0.15100
C 	C 	0.64390 0.81412 0.48822 0.01500
Br	Br	0.05920 0.73310 0.30752 -0.22600
Ni	Ni	0.58318 0.39903 0.62226 1.12300
H 	H 	0.63839 0.86394 0.56881 0.06400
O 	O 	0.61530 0.46568 0.96912 -0.35700
O 	O 	0.62245 0.18173 0.58801 -0.37400
Ni	Ni	0.59010 0.20533 0.93921 1.12300
C 	C 	0.65045 0.83630 0.17005 -0.08300
C 	C 	0.63871 0.78091 0.19361 0.13900
C 	C 	0.63174 0.86082 0.34766 -0.03100
C 	C 	0.66014 0.85308 0.37452 -0.07000
C 	C 	0.67130 0.91327 0.55241 -0.07600
H 	H 	0.65527 0.02069 0.59767 0.05900
H 	H 	0.65273 0.39748 0.01780 0.08100
O 	O 	0.63242 0.49210 0.91189 -0.35800
O 	O 	0.66311 0.17520 0.64270 -0.37600
H 	H 	0.64362 0.32697 0.59530 0.16100
C 	C 	0.69392 0.88809 0.52693 0.08400
C 	C 	0.68408 0.00147 0.55491 0.01400
H 	H 	0.63036 0.13611 0.70686 0.07800
C 	C 	0.67800 0.47618 0.06819 -0.07800
C 	C 	0.68599 0.54013 0.08824 0.01700
O 	O 	0.64515 0.32769 0.61559 -0.72000
H 	H 	0.70010 0.93583 0.46242 0.06500
O 	O 	0.64253 0.20934 0.90143 -0.37100
O 	O 	0.63621 0.33281 0.94178 -0.71300
H 	H 	0.64355 0.33879 0.96193 0.15000
O 	O 	0.65324 0.44666 0.65877 -0.36000
Br	Br	0.65905 0.90181 0.28982 -0.19200
C 	C 	0.72423 0.06451 0.53413 0.08400
C 	C 	0.73752 0.95281 0.50604 0.02200
C 	C 	0.70617 0.90522 0.48143 -0.03600
C 	C 	0.69700 0.04945 0.57904 -0.03800
Br	Br	0.65250 0.03766 0.75453 -0.20200
N 	N 	0.70287 0.67843 0.09731 -0.15000
H 	H 	0.71249 0.74244 0.09163 0.09100
C 	C 	0.71670 0.20462 0.58599 0.26300
N 	N 	0.71357 0.46266 0.02063 -0.15300
C 	C 	0.70156 0.89586 0.32657 0.13200
C 	C 	0.69495 0.49512 0.89324 0.32300
C 	C 	0.71224 0.50668 0.97241 0.25900
O 	O 	0.69331 0.50901 0.60151 -0.35900
H 	H 	0.70803 0.76267 0.22934 0.08900
C 	C 	0.74092 0.63366 0.08332 0.08500
C 	C 	0.71813 0.80364 0.21114 -0.03000
C 	C 	0.74043 0.14135 0.57149 0.02100
C 	C 	0.70212 0.14144 0.70449 -0.02600
Br	Br	0.72158 0.44183 0.72296 -0.17700
H 	H 	0.69299 0.07285 0.89585 0.06700
C 	C 	0.73763 0.50869 0.04472 0.07700
C 	C 	0.72461 0.22894 0.66172 0.33000
C 	C 	0.75464 0.04290 0.50950 -0.08200
Br	Br	0.64537 0.42705 0.83113 -0.16800
C 	C 	0.74377 0.91070 0.16446 -0.02700
C 	C 	0.76050 0.88524 0.38053 0.12900
O 	O 	0.71170 0.21421 0.95833 -0.36700
H 	H 	0.75483 0.95163 0.14622 0.07100
N 	N 	0.76035 0.14995 0.54416 -0.15300
O 	O 	0.73237 0.44037 0.89483 -0.35700
C 	C 	0.75329 0.52561 0.00047 0.00500
Br	Br	0.80253 0.87342 0.41676 -0.21400
C 	C 	0.73488 0.56958 0.87301 -0.07900
C 	C 	0.73477 0.10027 0.72372 0.13000
Br	Br	0.72842 0.93946 0.86480 -0.19000
C 	C 	0.73698 0.24921 0.89616 0.33200
C 	C 	0.74794 0.50399 0.66047 0.32300
C 	C 	0.75662 0.50765 0.58318 0.25800
O 	O 	0.76644 0.31803 0.65952 -0.35200
H 	H 	0.77330 0.20667 0.53230 0.09100
O 	O 	0.77048 0.51652 0.95120 -0.36000
H 	H 	0.78616 0.09266 0.49315 0.06500
H 	H 	0.74538 0.50370 0.52619 0.05100
C 	C 	0.74114 0.11147 0.87910 -0.02000
C 	C 	0.72424 0.55024 0.84454 0.13100
H 	H 	0.80082 0.67545 0.90409 0.07400
C 	C 	0.76183 0.18972 0.68226 -0.08100
C 	C 	0.79124 0.66599 0.05830 -0.08000
O 	O 	0.78736 0.27249 0.60091 -0.33700
Ni	Ni	0.76956 0.40766 0.93133 1.12500
Ni	Ni	0.78080 0.38032 0.62177 1.12000
C 	C 	0.77030 0.56325 0.70877 0.13100
C 	C 	0.79405 0.60221 0.04003 0.01500
C 	C 	0.79067 0.66046 0.88220 -0.02800
C 	C 	0.77573 0.28487 0.97368 0.26100
H 	H 	0.78494 0.62252 0.74911 0.07700
C 	C 	0.80348 0.61334 0.01169 -0.04100
O 	O 	0.79709 0.45467 0.58640 -0.36000
C 	C 	0.77252 0.20521 0.87650 -0.07700
C 	C 	0.78402 0.58025 0.68030 -0.07900
H 	H 	0.82042 0.73688 0.05240 0.06100
H 	H 	0.81456 0.67438 0.00106 0.05600
C 	C 	0.77186 0.06740 0.86027 0.12700
C 	C 	0.80729 0.88308 0.20711 -0.06500
C 	C 	0.80118 0.92461 0.33240 -0.07300
C 	C 	0.79464 0.63578 0.72718 -0.02800
C 	C 	0.80487 0.58432 0.56395 0.01800
C 	C 	0.79450 0.56949 0.53560 -0.04500
C 	C 	0.76869 0.62182 0.82561 -0.02900
O 	O 	0.80105 0.31969 0.91093 -0.36500
O 	O 	0.81145 0.37105 0.96567 -0.37300
O 	O 	0.80899 0.50023 0.64259 -0.36100
C 	C 	0.82215 0.93454 0.18296 0.12100
C 	C 	0.83052 0.92188 0.35953 -0.02800
H 	H 	0.75832 0.60687 0.80372 0.07800
O 	O 	0.79866 0.79769 0.75554 -0.35700
H 	H 	0.79374 0.35041 0.02543 0.05200
C 	C 	0.83574 0.73189 0.86326 0.12500
O 	O 	0.80367 0.01127 0.80132 -0.33200
C 	C 	0.85779 0.78768 0.81476 0.30400
Ni	Ni	0.81771 0.91092 0.77851 1.12300
O 	O 	0.80667 0.83161 0.81244 -0.34000
O 	O 	0.82671 0.97788 0.74195 -0.35000
C 	C 	0.87347 0.95141 0.31007 0.32200
C 	C 	0.87626 0.91902 0.23030 0.30500
O 	O 	0.86869 0.97778 0.24725 -0.35400
O 	O 	0.87105 0.88792 0.29353 -0.36300
C 	C 	0.82766 0.10655 0.72053 -0.07600
C 	C 	0.85492 0.19626 0.67915 0.13400
C 	C 	0.82349 0.67015 0.67060 -0.03000
C 	C 	0.83297 0.72554 0.71747 -0.07700
C 	C 	0.84688 0.74262 0.68900 0.13100
H 	H 	0.83285 0.68332 0.64867 0.07200
C 	C 	0.82616 0.26909 0.99666 0.01400
C 	C 	0.83845 0.31914 0.02061 -0.04500
C 	C 	0.83511 0.11741 0.83867 -0.05900
C 	C 	0.83481 0.25497 0.85466 0.13700
C 	C 	0.82355 0.71285 0.83482 -0.06800
C 	C 	0.86254 0.80118 0.73731 0.32200
C 	C 	0.86471 0.06696 0.74097 0.32600
H 	H 	0.90728 0.94480 0.36414 0.07700
C 	C 	0.86936 0.07308 0.81880 0.31000
C 	C 	0.88308 0.63299 0.52414 0.01800
N 	N 	0.89510 0.65569 0.56993 -0.15200
H 	H 	0.87569 0.57483 0.48350 0.06200
C 	C 	0.86637 0.21107 0.83602 -0.02700
Br	Br	0.91782 0.85434 0.87663 -0.18600
Br	Br	0.87307 0.38142 0.84896 -0.18700
C 	C 	0.88737 0.15484 0.69833 -0.03000
N 	N 	0.90946 0.26522 0.99166 -0.15100
Br	Br	0.89070 0.86314 0.67470 -0.19000
O 	O 	0.91809 0.87068 0.23874 -0.36100
H 	H 	0.93014 0.66454 0.58902 0.10200
H 	H 	0.92759 0.25152 0.97214 0.10300
O 	O 	0.91995 0.79223 0.79514 -0.35700
O 	O 	0.93022 0.03860 0.30465 -0.36300
C 	C 	0.92273 0.61562 0.50036 -0.07300
O 	O 	0.92191 0.11927 0.76092 -0.36300
H 	H 	0.91410 0.24950 0.81918 0.08100
Br	Br	0.94974 0.03375 0.17409 -0.20500
C 	C 	0.94388 0.68455 0.54598 0.09200
Br	Br	0.93787 0.25966 0.64854 -0.22300
C 	C 	0.93647 0.35852 0.02784 0.01600
O 	O 	0.95553 0.86402 0.73918 -0.35000
O 	O 	0.95391 0.97094 0.78462 -0.71600
H 	H 	0.95513 0.96846 0.80488 0.17500
H 	H 	0.95912 0.16013 0.69595 0.08000
H 	H 	0.95723 0.48215 0.04811 0.05600
O 	O 	0.96588 0.11024 0.81504 -0.34900
C 	C 	0.97758 0.32097 0.01011 0.09100
Ni	Ni	0.98476 0.08241 0.26690 1.12600
Br	Br	0.98334 0.21721 0.34181 -0.21700
Ni	Ni	0.99149 0.89770 0.27483 1.12700
C 	C 	0.99049 0.45113 0.03556 -0.07500
