data_crystal

_cell_length_a 26.08588
_cell_length_b 26.43165
_cell_length_c 35.06213
_cell_angle_alpha 95.49054
_cell_angle_beta  95.48759
_cell_angle_gamma 125.84022

_symmetry_space_group_name_	'P 1'
_symmetry_space_group_name_H-M	'P 1'

loop_
_symmetry_equiv_pos_as_xyz
  x,y,z

loop_
_atom_site_label
_atom_site_type_symbol
_atom_site_fract_x
_atom_site_fract_y
_atom_site_fract_z
_atom_site_charge
C 	C 	0.96877 0.02373 0.99180 0.12400
N 	N 	0.03226 0.05857 0.98975 -0.14500
C 	C 	0.06068 0.02939 0.98467 0.12200
N 	N 	0.02540 0.96535 0.98115 -0.14700
C 	C 	0.96197 0.93052 0.98308 0.12300
N 	N 	0.93360 0.95966 0.98822 -0.14700
C 	C 	0.93136 0.00233 0.46027 0.12200
N 	N 	0.99657 0.04016 0.46502 -0.14500
C 	C 	0.02910 0.01520 0.47045 0.11900
N 	N 	0.99640 0.95234 0.47097 -0.14500
C 	C 	0.93132 0.91449 0.46669 0.12100
N 	N 	0.89868 0.93943 0.46115 -0.14600
Cu	Cu	0.63797 0.23645 0.00334 0.92700
Cu	Cu	0.69063 0.23323 0.92275 0.86800
Cu	Cu	0.68524 0.33824 0.95300 0.89600
Cu	Cu	0.65423 0.36302 0.02977 0.89600
C 	C 	0.65828 0.28554 0.08438 0.30900
O 	O 	0.54704 0.20977 0.00124 -0.36400
C 	C 	0.66751 0.29413 0.86805 0.30800
O 	O 	0.69895 0.33567 0.00739 -0.63700
O 	O 	0.63410 0.24412 0.94788 -0.64400
O 	O 	0.66880 0.18302 0.00153 -0.37500
O 	O 	0.74631 0.24549 0.96757 -0.44600
O 	O 	0.63390 0.31496 0.07353 -0.37600
O 	O 	0.73849 0.42996 0.96152 -0.38400
C 	C 	0.72955 0.46600 0.98418 0.29700
C 	C 	0.52866 0.24164 0.98596 0.28800
O 	O 	0.57203 0.30082 0.98267 -0.39900
O 	O 	0.70525 0.44943 0.01613 -0.39200
O 	O 	0.65666 0.24439 0.05874 -0.36700
C 	C 	0.72411 0.20435 0.99104 0.29400
O 	O 	0.68503 0.34077 0.89680 -0.37700
O 	O 	0.65623 0.24060 0.87495 -0.42600
H 	H 	0.74469 0.35927 0.01986 0.16400
H 	H 	0.59027 0.22073 0.93216 0.16900
Cu	Cu	0.73252 0.34216 0.45215 0.92700
Cu	Cu	0.74018 0.30149 0.53670 0.87000
Cu	Cu	0.63225 0.30331 0.50409 0.89600
Cu	Cu	0.60578 0.32818 0.42569 0.89500
C 	C 	0.67864 0.31330 0.37060 0.30800
O 	O 	0.76347 0.43230 0.44986 -0.36400
C 	C 	0.68119 0.33147 0.58947 0.30800
O 	O 	0.63236 0.28472 0.45000 -0.64100
O 	O 	0.72753 0.35331 0.50789 -0.64200
O 	O 	0.78434 0.30926 0.45604 -0.37700
O 	O 	0.72353 0.24006 0.49450 -0.44500
O 	O 	0.64886 0.33826 0.37978 -0.37900
O 	O 	0.53937 0.24992 0.49679 -0.38800
C 	C 	0.50077 0.25156 0.47053 0.30000
C 	C 	0.73225 0.45354 0.46243 0.29300
O 	O 	0.67392 0.41343 0.46900 -0.39700
O 	O 	0.52271 0.28929 0.44463 -0.39700
O 	O 	0.72105 0.31710 0.39705 -0.36800
C 	C 	0.76244 0.25669 0.46941 0.29800
O 	O 	0.63199 0.30864 0.56071 -0.39000
O 	O 	0.73513 0.34165 0.58280 -0.40900
H 	H 	0.60718 0.23887 0.43888 0.16100
H 	H 	0.75165 0.39790 0.52156 0.17400
C 	C 	0.64022 0.34527 0.77550 -0.11600
C 	C 	0.66508 0.32416 0.75006 0.00400
C 	C 	0.68985 0.29259 0.76322 0.11800
C 	C 	0.69055 0.28311 0.80177 -0.03600
C 	C 	0.66583 0.30421 0.82740 -0.12700
C 	C 	0.64001 0.33497 0.81401 0.19100
C 	C 	0.66404 0.33384 0.70932 0.00100
O 	O 	0.71484 0.27229 0.73866 -0.28000
H 	H 	0.71086 0.25975 0.81184 0.04400
O 	O 	0.61489 0.35522 0.83848 -0.29100
H 	H 	0.62062 0.36919 0.76536 0.06800
C 	C 	0.61031 0.28787 0.68022 0.11400
C 	C 	0.61466 0.28974 0.64081 -0.03800
C 	C 	0.67244 0.33751 0.63021 -0.12600
C 	C 	0.72410 0.38683 0.65939 0.18900
C 	C 	0.71990 0.38451 0.69880 -0.11200
O 	O 	0.55503 0.23864 0.69021 -0.28200
H 	H 	0.57419 0.25220 0.61858 0.05500
O 	O 	0.77960 0.43592 0.64950 -0.29200
H 	H 	0.76099 0.42079 0.72115 0.07300
H 	H 	0.56865 0.31896 0.83498 0.14100
H 	H 	0.52839 0.25380 0.69289 0.14000
H 	H 	0.77311 0.46891 0.64677 0.14100
H 	H 	0.67810 0.22836 0.72582 0.14500
C 	C 	0.62056 0.25817 0.26160 -0.11400
C 	C 	0.67872 0.28274 0.24859 0.00300
C 	C 	0.73581 0.31100 0.27588 0.11800
C 	C 	0.73514 0.31829 0.31589 -0.03400
C 	C 	0.67749 0.29682 0.32894 -0.12200
C 	C 	0.61961 0.26435 0.30157 0.18800
C 	C 	0.68063 0.28423 0.20671 0.00500
O 	O 	0.79281 0.33420 0.26350 -0.27800
H 	H 	0.77985 0.34267 0.33669 0.06200
O 	O 	0.56242 0.24060 0.31384 -0.30300
H 	H 	0.57630 0.23568 0.24069 0.06800
C 	C 	0.65170 0.22768 0.17954 0.11300
C 	C 	0.64745 0.22875 0.13951 -0.03200
C 	C 	0.67135 0.28598 0.12635 -0.12300
C 	C 	0.70345 0.34301 0.15368 0.18900
C 	C 	0.70739 0.34184 0.19363 -0.11100
O 	O 	0.62829 0.17154 0.19205 -0.27800
H 	H 	0.62360 0.18475 0.11873 0.06100
O 	O 	0.72932 0.39970 0.14135 -0.30300
H 	H 	0.73019 0.38561 0.21446 0.07700
H 	H 	0.54497 0.19658 0.31679 0.13700
H 	H 	0.58233 0.15186 0.19256 0.14000
H 	H 	0.77420 0.41641 0.13952 0.14000
H 	H 	0.79574 0.29831 0.26068 0.14600
C 	C 	0.83447 0.75253 0.49528 -0.07800
C 	C 	0.84147 0.71742 0.46652 -0.00900
C 	C 	0.87494 0.74624 0.43658 0.03900
C 	C 	0.90164 0.81015 0.43618 -0.04800
C 	C 	0.89621 0.84583 0.46550 -0.04600
C 	C 	0.86238 0.81691 0.49535 0.06600
C 	C 	0.81239 0.64992 0.46744 0.00900
C 	C 	0.88209 0.70898 0.40500 -0.18000
H 	H 	0.92762 0.83254 0.41333 0.04300
C 	C 	0.85636 0.85449 0.52740 -0.18900
H 	H 	0.80802 0.72990 0.51791 0.04600
C 	C 	0.84657 0.63273 0.48925 0.02100
C 	C 	0.81955 0.56817 0.48741 -0.01300
C 	C 	0.75914 0.52086 0.46409 -0.11100
C 	C 	0.72529 0.53826 0.44196 0.10100
C 	C 	0.75152 0.60267 0.44476 -0.09600
C 	C 	0.91185 0.68298 0.51423 -0.17000
H 	H 	0.84550 0.55472 0.50417 0.03200
C 	C 	0.66170 0.48861 0.41506 -0.20600
H 	H 	0.72539 0.61620 0.42828 0.05200
H 	H 	0.83294 0.82634 0.55010 0.06200
H 	H 	0.82681 0.86874 0.51500 0.07000
H 	H 	0.90478 0.89765 0.54189 0.06700
H 	H 	0.83404 0.66989 0.38741 0.06700
H 	H 	0.90501 0.68860 0.41818 0.06700
H 	H 	0.91259 0.73929 0.38501 0.06300
H 	H 	0.93230 0.66178 0.52941 0.05900
H 	H 	0.90790 0.71245 0.53676 0.06200
H 	H 	0.94589 0.71392 0.49584 0.06300
H 	H 	0.64729 0.51031 0.39519 0.06700
H 	H 	0.62347 0.46270 0.43246 0.06400
H 	H 	0.66502 0.45452 0.39652 0.06700
C 	C 	0.87330 0.09229 0.42087 -0.07900
C 	C 	0.84648 0.09947 0.45182 -0.00800
C 	C 	0.84076 0.06825 0.48346 0.03700
C 	C 	0.86606 0.03383 0.48489 -0.04800
C 	C 	0.89641 0.02989 0.45508 -0.04700
C 	C 	0.89768 0.05703 0.42201 0.06800
C 	C 	0.82722 0.14221 0.45178 0.00800
C 	C 	0.80962 0.07324 0.51627 -0.17700
H 	H 	0.86401 0.01181 0.50984 0.04000
C 	C 	0.92703 0.05054 0.38859 -0.19100
H 	H 	0.87656 0.11542 0.39632 0.04800
C 	C 	0.87177 0.20748 0.46837 0.02000
C 	C 	0.85052 0.24546 0.47195 -0.01500
C 	C 	0.78572 0.21917 0.45896 -0.11700
C 	C 	0.74241 0.15518 0.43949 0.10200
C 	C 	0.76339 0.11692 0.43648 -0.09700
C 	C 	0.94134 0.23622 0.48345 -0.17000
H 	H 	0.88391 0.29495 0.48615 0.02800
C 	C 	0.67342 0.12697 0.42307 -0.20400
H 	H 	0.72968 0.06709 0.42305 0.05200
H 	H 	0.98035 0.08339 0.39684 0.07000
H 	H 	0.91221 0.06212 0.36203 0.06400
H 	H 	0.91112 0.00099 0.38098 0.07100
H 	H 	0.76008 0.05669 0.50450 0.06300
H 	H 	0.83837 0.12334 0.53177 0.06100
H 	H 	0.80612 0.04365 0.53783 0.05900
H 	H 	0.97056 0.28837 0.49386 0.05800
H 	H 	0.96248 0.22781 0.45986 0.06400
H 	H 	0.94488 0.21448 0.50818 0.06100
H 	H 	0.64993 0.08171 0.40210 0.06600
H 	H 	0.67103 0.16018 0.40720 0.07200
H 	H 	0.64596 0.11728 0.44713 0.06900
C 	C 	0.20629 0.09864 0.50794 -0.07900
C 	C 	0.23213 0.12217 0.47508 -0.00800
C 	C 	0.19159 0.11344 0.44132 0.03700
C 	C 	0.12537 0.08008 0.44075 -0.04800
C 	C 	0.09931 0.05536 0.47332 -0.04700
C 	C 	0.14025 0.06625 0.50761 0.06700
C 	C 	0.30171 0.15523 0.47606 0.00800
C 	C 	0.21846 0.13798 0.40555 -0.17800
H 	H 	0.09378 0.07201 0.41462 0.04000
C 	C 	0.11360 0.04220 0.54353 -0.18800
H 	H 	0.23771 0.10569 0.53382 0.04700
C 	C 	0.34622 0.22144 0.48968 0.02100
C 	C 	0.41148 0.25215 0.48815 -0.01100
C 	C 	0.43280 0.21752 0.47374 -0.10900
C 	C 	0.38861 0.15105 0.46117 0.09700
C 	C 	0.32327 0.12034 0.46256 -0.09500
C 	C 	0.32423 0.25940 0.50562 -0.17000
H 	H 	0.44575 0.30315 0.49801 0.03400
C 	C 	0.41074 0.11297 0.44573 -0.20200
H 	H 	0.28892 0.06939 0.45255 0.05100
H 	H 	0.15251 0.06465 0.56966 0.06200
H 	H 	0.08770 0.98998 0.53906 0.06900
H 	H 	0.07998 0.05344 0.54970 0.06800
H 	H 	0.23757 0.11303 0.39354 0.06500
H 	H 	0.25781 0.18982 0.41311 0.06300
H 	H 	0.18112 0.13022 0.38237 0.06000
H 	H 	0.36505 0.31054 0.51540 0.05900
H 	H 	0.30128 0.24118 0.53106 0.06300
H 	H 	0.28900 0.25561 0.48277 0.06100
H 	H 	0.37002 0.06174 0.43626 0.06400
H 	H 	0.44605 0.11732 0.46883 0.07000
H 	H 	0.43367 0.13070 0.42019 0.06300
C 	C 	0.75785 0.62192 0.97566 -0.09500
C 	C 	0.82425 0.66142 0.97616 0.00800
C 	C 	0.85888 0.63574 0.97671 0.02200
C 	C 	0.82683 0.57120 0.97834 -0.01200
C 	C 	0.76068 0.53200 0.97888 -0.10600
C 	C 	0.72543 0.55700 0.97615 0.09900
C 	C 	0.85769 0.73025 0.97766 -0.01000
C 	C 	0.93030 0.67740 0.97699 -0.17200
H 	H 	0.85366 0.55178 0.98012 0.03700
C 	C 	0.65364 0.51507 0.97457 -0.20500
H 	H 	0.73144 0.64184 0.97498 0.05100
C 	C 	0.86122 0.75468 0.94310 0.03900
C 	C 	0.89493 0.82044 0.94540 -0.04800
C 	C 	0.92492 0.86177 0.98164 -0.04800
C 	C 	0.92062 0.83729 0.01622 0.06600
C 	C 	0.88674 0.77154 0.01394 -0.07700
C 	C 	0.82918 0.71085 0.90386 -0.17900
H 	H 	0.89819 0.83956 0.91896 0.04200
C 	C 	0.95253 0.88112 0.05548 -0.18600
H 	H 	0.88354 0.75245 0.04038 0.04700
H 	H 	0.63178 0.53837 0.96485 0.06600
H 	H 	0.64339 0.50456 0.00398 0.07300
H 	H 	0.63012 0.46984 0.95358 0.07100
H 	H 	0.95630 0.71192 0.00499 0.06400
H 	H 	0.94090 0.70369 0.95247 0.06300
H 	H 	0.94904 0.64911 0.97369 0.06000
H 	H 	0.83776 0.73752 0.87963 0.06200
H 	H 	0.77639 0.67755 0.90243 0.06600
H 	H 	0.84841 0.68323 0.89919 0.06600
H 	H 	0.93278 0.90822 0.06017 0.06600
H 	H 	0.00527 0.91489 0.05686 0.06400
H 	H 	0.94440 0.85452 0.07969 0.06100
C 	C 	0.87690 0.07831 0.03414 -0.08000
C 	C 	0.86859 0.10548 0.00399 -0.00600
C 	C 	0.89749 0.11014 0.97111 0.03500
C 	C 	0.93177 0.08472 0.96809 -0.04600
C 	C 	0.93789 0.05525 0.99752 -0.04900
C 	C 	0.91210 0.05384 0.03143 0.06900
C 	C 	0.82850 0.12795 0.00667 0.01000
C 	C 	0.89097 0.14121 0.93899 -0.17600
H 	H 	0.95257 0.08666 0.94243 0.04200
C 	C 	0.92004 0.02445 0.06415 -0.18900
H 	H 	0.85520 0.07547 0.05950 0.04800
C 	C 	0.76182 0.08701 0.99110 0.01800
C 	C 	0.72691 0.11197 0.98851 -0.01700
C 	C 	0.75760 0.17684 0.00176 -0.11500
C 	C 	0.82265 0.21624 0.02103 0.10200
C 	C 	0.85793 0.19164 0.02278 -0.09800
C 	C 	0.72847 0.01748 0.97565 -0.16800
H 	H 	0.67653 0.08149 0.97462 0.02800
C 	C 	0.85533 0.28500 0.03835 -0.20400
H 	H 	0.90876 0.22252 0.03566 0.05200
H 	H 	0.88606 0.97188 0.05584 0.06800
H 	H 	0.91002 0.03930 0.09144 0.06300
H 	H 	0.97012 0.03948 0.07057 0.06800
H 	H 	0.91060 0.19094 0.95105 0.06200
H 	H 	0.83949 0.11449 0.92535 0.05900
H 	H 	0.91766 0.14244 0.91579 0.05900
H 	H 	0.67552 0.99099 0.96740 0.05600
H 	H 	0.73759 0.99563 0.99829 0.06300
H 	H 	0.74673 0.01199 0.94942 0.05900
H 	H 	0.89954 0.30454 0.06003 0.06700
H 	H 	0.82279 0.29012 0.05365 0.07300
H 	H 	0.86896 0.31349 0.01486 0.07100
C 	C 	0.23774 0.10315 0.01245 -0.07700
C 	C 	0.26076 0.13054 0.97994 -0.00900
C 	C 	0.21853 0.12750 0.94977 0.03700
C 	C 	0.15335 0.09567 0.95226 -0.04700
C 	C 	0.13013 0.06727 0.98446 -0.04800
C 	C 	0.17295 0.07253 0.01533 0.06800
C 	C 	0.32926 0.16196 0.97766 0.00800
C 	C 	0.24239 0.15666 0.91455 -0.17800
H 	H 	0.12039 0.09189 0.92877 0.04200
C 	C 	0.14942 0.04380 0.05076 -0.18800
H 	H 	0.27041 0.10577 0.03558 0.04800
C 	C 	0.37730 0.22529 0.99691 0.02000
C 	C 	0.44242 0.25146 0.99817 -0.01400
C 	C 	0.46008 0.21563 0.97994 -0.11000
C 	C 	0.41185 0.15388 0.95826 0.09700
C 	C 	0.34676 0.12702 0.95805 -0.09500
C 	C 	0.35945 0.26404 0.01765 -0.16700
H 	H 	0.47946 0.29913 0.01438 0.03000
C 	C 	0.42937 0.11614 0.93583 -0.20100
H 	H 	0.30963 0.07866 0.94288 0.05100
H 	H 	0.19013 0.06270 0.07520 0.06200
H 	H 	0.12229 0.99145 0.04328 0.06700
H 	H 	0.11770 0.05505 0.06126 0.06700
H 	H 	0.25722 0.13101 0.89768 0.06300
H 	H 	0.28418 0.20751 0.92379 0.06300
H 	H 	0.20459 0.15416 0.89495 0.06000
H 	H 	0.40164 0.31474 0.02703 0.05800
H 	H 	0.34042 0.24494 0.04392 0.06300
H 	H 	0.32225 0.26232 0.99799 0.06000
H 	H 	0.44680 0.09750 0.95629 0.07300
H 	H 	0.46740 0.14638 0.91922 0.06000
H 	H 	0.38726 0.07525 0.91443 0.06400
