data_crystal

_cell_length_a 18.80636
_cell_length_b 18.83284
_cell_length_c 71.39456
_cell_angle_alpha 90.06968
_cell_angle_beta  89.97163
_cell_angle_gamma 119.76533

_symmetry_space_group_name_	'P 1'
_symmetry_space_group_name_H-M	'P 1'

loop_
_symmetry_equiv_pos_as_xyz
  x,y,z

loop_
_atom_site_label
_atom_site_type_symbol
_atom_site_fract_x
_atom_site_fract_y
_atom_site_fract_z
_atom_site_charge
N 	N 	0.00692 0.72897 0.16244 -0.20300
C 	C 	0.00365 0.51692 0.33741 0.02300
O 	O 	0.00873 0.01936 0.74720 -0.71500
Ni	Ni	0.00478 0.10484 0.23612 1.11500
H 	H 	0.00989 0.94505 0.98477 0.15700
C 	C 	0.01060 0.53549 0.48345 -0.00700
O 	O 	0.01235 0.89470 0.21881 -0.39300
C 	C 	0.01010 0.19452 0.95010 -0.10100
N 	N 	0.01034 0.42882 0.44030 -0.20700
H 	H 	0.02220 0.02341 0.76062 0.15100
O 	O 	0.02301 0.17512 0.72914 -0.36400
O 	O 	0.03109 0.14994 0.76791 -0.37400
H 	H 	0.03074 0.72426 0.85073 0.08600
H 	H 	0.03305 0.81830 0.19246 0.04000
C 	C 	0.03441 0.52860 0.65694 -0.08600
C 	C 	0.03411 0.48918 0.45334 0.12500
H 	H 	0.03706 0.44030 0.42703 0.09300
H 	H 	0.04398 0.45704 0.54785 0.09000
O 	O 	0.04538 0.89163 0.75353 -0.37900
C 	C 	0.04677 0.26168 0.94317 0.04500
N 	N 	0.00068 0.14330 0.14737 -0.20200
C 	C 	0.04756 0.93054 0.71068 0.33100
H 	H 	0.04950 0.77851 0.82908 0.09100
Ni	Ni	0.05550 0.96487 0.24310 1.11000
O 	O 	0.05684 0.12387 0.01215 -0.38700
H 	H 	0.05463 0.14381 0.15116 0.08400
H 	H 	0.05710 0.50022 0.51601 0.05900
O 	O 	0.05779 0.95574 0.02208 -0.36900
H 	H 	0.05958 0.29155 0.84928 0.08600
H 	H 	0.06118 0.66899 0.50432 0.08900
C 	C 	0.06181 0.89253 0.69477 -0.08900
O 	O 	0.06648 0.10402 0.21277 -0.39800
C 	C 	0.80707 0.42160 0.60601 0.30100
C 	C 	0.61211 0.17653 0.54800 0.31900
C 	C 	0.81937 0.41916 0.55088 0.31600
C 	C 	0.59104 0.14927 0.59851 0.31100
C 	C 	0.58605 0.38805 0.54545 0.31900
C 	C 	0.54045 0.38641 0.59493 0.30900
Ni	Ni	0.73174 0.28067 0.57764 1.11300
Ni	Ni	0.55004 0.25879 0.57354 1.12200
Ni	Ni	0.70589 0.43865 0.57619 1.12100
O 	O 	0.82131 0.37658 0.59381 -0.36900
O 	O 	0.76369 0.45714 0.60126 -0.36800
O 	O 	0.53200 0.33618 0.55736 -0.39300
O 	O 	0.65794 0.17680 0.56187 -0.38400
O 	O 	0.57064 0.21555 0.54933 -0.39300
O 	O 	0.61089 0.44626 0.58800 -0.37800
O 	O 	0.78668 0.33994 0.55284 -0.38400
O 	O 	0.81451 0.46348 0.56448 -0.38200
O 	O 	0.52223 0.30865 0.59519 -0.38100
O 	O 	0.66842 0.20760 0.60015 -0.37600
O 	O 	0.53584 0.15918 0.58869 -0.37000
O 	O 	0.66401 0.43131 0.54994 -0.40000
O 	O 	0.66180 0.32444 0.58001 -0.72400
H 	H 	0.65539 0.32277 0.59374 0.16200
C 	C 	0.43968 0.83388 0.38953 0.30800
C 	C 	0.15508 0.58497 0.43362 0.31600
C 	C 	0.39994 0.79414 0.43870 0.32000
C 	C 	0.17088 0.60129 0.37911 0.30100
C 	C 	0.37263 0.54942 0.43476 0.32000
C 	C 	0.38002 0.54117 0.38596 0.30900
Ni	Ni	0.27180 0.72188 0.40890 1.11400
Ni	Ni	0.24749 0.53919 0.40741 1.12000
Ni	Ni	0.42841 0.69289 0.41031 1.12100
O 	O 	0.37226 0.82653 0.39752 -0.37200
O 	O 	0.45585 0.77283 0.38890 -0.37500
O 	O 	0.31473 0.50336 0.42275 -0.39100
O 	O 	0.16055 0.63771 0.42094 -0.37600
O 	O 	0.19772 0.54740 0.43199 -0.38700
O 	O 	0.43933 0.61015 0.39364 -0.38100
O 	O 	0.32075 0.75400 0.43560 -0.38600
O 	O 	0.45136 0.79049 0.42675 -0.38500
O 	O 	0.30290 0.52450 0.38500 -0.38600
O 	O 	0.21158 0.68026 0.38344 -0.36400
O 	O 	0.15832 0.54450 0.39186 -0.37500
O 	O 	0.40940 0.62953 0.43410 -0.39600
O 	O 	0.31699 0.65402 0.40460 -0.72100
H 	H 	0.32204 0.65776 0.39085 0.16200
C 	C 	0.20611 0.76807 0.65720 0.31100
C 	C 	0.30961 0.53074 0.62916 0.33300
C 	C 	0.11628 0.55709 0.66349 0.31600
C 	C 	0.41077 0.76038 0.62289 0.29700
C 	C 	0.30704 0.55717 0.68836 0.32300
C 	C 	0.45817 0.77896 0.68600 0.31000
Ni	Ni	0.24105 0.64373 0.63549 1.11300
Ni	Ni	0.40048 0.65740 0.65639 1.12000
Ni	Ni	0.27301 0.68899 0.68070 1.12200
O 	O 	0.18363 0.71238 0.64351 -0.36200
O 	O 	0.26547 0.78174 0.66893 -0.38200
O 	O 	0.38125 0.59978 0.68128 -0.38500
O 	O 	0.27794 0.57042 0.62078 -0.36700
O 	O 	0.32770 0.54359 0.64674 -0.39300
O 	O 	0.38595 0.76783 0.69196 -0.36800
O 	O 	0.16439 0.54686 0.65215 -0.38000
O 	O 	0.14856 0.61713 0.67588 -0.36600
O 	O 	0.46994 0.76553 0.66851 -0.39000
O 	O 	0.33262 0.73719 0.62015 -0.36500
O 	O 	0.43369 0.70916 0.63005 -0.36800
O 	O 	0.26769 0.59394 0.69419 -0.38400
O 	O 	0.31297 0.68004 0.65646 -0.70500
H 	H 	0.34454 0.73898 0.65383 0.16000
C 	C 	0.87348 0.94090 0.77710 0.29600
C 	C 	0.07410 0.17552 0.71648 0.32700
C 	C 	0.82306 0.93447 0.72637 0.32700
C 	C 	0.11211 0.18459 0.76672 0.29600
C 	C 	0.10638 0.94693 0.76404 0.30000
Ni	Ni	0.95149 0.07705 0.74703 1.10900
Ni	Ni	0.11652 0.06968 0.73732 1.12100
Ni	Ni	0.94880 0.90355 0.74461 1.12000
O 	O 	0.86472 0.99327 0.76605 -0.37300
O 	O 	0.91015 0.89995 0.77124 -0.38300
O 	O 	0.11099 0.97950 0.72107 -0.38400
O 	O 	0.08549 0.11282 0.71481 -0.38500
O 	O 	0.87818 0.01181 0.72464 -0.38200
O 	O 	0.83615 0.88608 0.73734 -0.38100
O 	O 	0.15153 0.02392 0.75847 -0.39100
O 	O 	0.14865 0.17627 0.75153 -0.37900
O 	O 	0.97259 0.89980 0.71722 -0.38800
C 	C 	0.46922 0.73598 0.94258 0.30100
C 	C 	0.28205 0.54389 0.87808 0.32100
C 	C 	0.50977 0.74755 0.88917 0.31500
C 	C 	0.20760 0.49258 0.92673 0.30800
C 	C 	0.29168 0.77075 0.87802 0.32000
C 	C 	0.25351 0.77840 0.92715 0.30800
Ni	Ni	0.38538 0.60992 0.91256 1.11400
Ni	Ni	0.22644 0.63036 0.90348 1.12100
Ni	Ni	0.39983 0.78860 0.91029 1.12000
O 	O 	0.42970 0.65632 0.93903 -0.36500
O 	O 	0.48369 0.79038 0.92905 -0.37100
O 	O 	0.25783 0.69110 0.87915 -0.40200
O 	O 	0.35522 0.56964 0.88513 -0.38600
O 	O 	0.22206 0.53585 0.88889 -0.39000
O 	O 	0.33097 0.79926 0.93024 -0.38500
O 	O 	0.50082 0.69788 0.90298 -0.37600
O 	O 	0.46224 0.77999 0.88803 -0.39600
O 	O 	0.20256 0.71280 0.91691 -0.37600
O 	O 	0.28179 0.50391 0.92261 -0.36300
O 	O 	0.18911 0.55191 0.92539 -0.37600
O 	O 	0.33680 0.81820 0.89182 -0.39300
O 	O 	0.33364 0.67354 0.91300 -0.72300
H 	H 	0.32061 0.67004 0.92646 0.16400
C 	C 	0.71153 0.47085 0.04586 0.30000
C 	C 	0.54677 0.25963 0.10998 0.31900
C 	C 	0.76161 0.49611 0.09937 0.31900
C 	C 	0.48661 0.21511 0.06002 0.30700
C 	C 	0.78257 0.27641 0.09925 0.32100
C 	C 	0.76040 0.25325 0.04945 0.31100
Ni	Ni	0.60816 0.37994 0.07897 1.11300
Ni	Ni	0.62837 0.21879 0.07915 1.12200
Ni	Ni	0.78409 0.39382 0.07118 1.12200
O 	O 	0.63578 0.43387 0.05263 -0.36700
O 	O 	0.77472 0.48264 0.05653 -0.37300
O 	O 	0.70329 0.24510 0.10113 -0.40100
O 	O 	0.59280 0.33737 0.10619 -0.38500
O 	O 	0.53939 0.20405 0.09775 -0.38000
O 	O 	0.77876 0.33059 0.04825 -0.38700
O 	O 	0.70254 0.49145 0.08873 -0.37800
O 	O 	0.79429 0.45009 0.09598 -0.39200
O 	O 	0.70253 0.19994 0.06109 -0.37600
O 	O 	0.49682 0.27730 0.07085 -0.36900
O 	O 	0.54045 0.18887 0.05954 -0.37400
O 	O 	0.82208 0.32476 0.08507 -0.38800
O 	O 	0.66814 0.32905 0.07208 -0.72100
H 	H 	0.65549 0.32089 0.05859 0.16400
C 	C 	0.14519 0.12716 0.26204 0.31100
C 	C 	0.93528 0.83807 0.21687 0.32900
C 	C 	0.12961 0.09192 0.21273 0.31900
C 	C 	0.92262 0.85707 0.27167 0.30000
C 	C 	0.88252 0.01913 0.20698 0.31700
C 	C 	0.85665 0.05463 0.25936 0.30100
Ni	Ni	0.86509 0.91691 0.23961 1.12000
O 	O 	0.10981 0.04726 0.26486 -0.37900
O 	O 	0.11096 0.16105 0.25162 -0.37800
O 	O 	0.86023 0.94449 0.21253 -0.39500
O 	O 	0.88383 0.82550 0.23048 -0.38600
O 	O 	0.93599 0.10880 0.25734 -0.37000
O 	O 	0.14534 0.05840 0.22706 -0.38600
O 	O 	0.81880 0.98821 0.24863 -0.37500
O 	O 	0.98250 0.86417 0.26044 -0.35600
O 	O 	0.86644 0.87545 0.26578 -0.36900
O 	O 	0.91025 0.07952 0.21905 -0.38600
O 	O 	0.97651 0.99764 0.24372 -0.71100
H 	H 	0.97435 0.00547 0.25731 0.15800
C 	C 	0.76251 0.54606 0.32800 0.31000
C 	C 	0.66589 0.20702 0.35503 0.32900
C 	C 	0.85863 0.42814 0.32221 0.31600
C 	C 	0.56114 0.33231 0.36248 0.30000
C 	C 	0.66428 0.23427 0.29610 0.32700
C 	C 	0.51492 0.31424 0.29996 0.31400
Ni	Ni	0.73165 0.38822 0.34978 1.11300
Ni	Ni	0.57310 0.24397 0.32838 1.12100
Ni	Ni	0.70157 0.40083 0.30471 1.12300
O 	O 	0.78605 0.51406 0.34185 -0.35900
O 	O 	0.70433 0.49939 0.31616 -0.38200
O 	O 	0.59027 0.20842 0.30288 -0.38700
O 	O 	0.69624 0.27732 0.36384 -0.36500
O 	O 	0.64731 0.20300 0.33746 -0.39100
O 	O 	0.58908 0.36277 0.29259 -0.37000
O 	O 	0.81084 0.36979 0.33344 -0.37800
O 	O 	0.82588 0.45673 0.31014 -0.36400
O 	O 	0.50444 0.28633 0.31722 -0.39100
O 	O 	0.63881 0.38788 0.36529 -0.36600
O 	O 	0.54015 0.25937 0.35501 -0.37000
O 	O 	0.71308 0.31185 0.29253 -0.38200
O 	O 	0.66034 0.35317 0.32883 -0.70800
H 	H 	0.62867 0.38059 0.33158 0.16200
C 	C 	0.06957 0.98520 0.95317 0.30000
C 	C 	0.78681 0.91019 0.99727 0.32000
C 	C 	0.97629 0.12077 0.96097 0.33100
C 	C 	0.86865 0.78046 0.98927 0.31200
C 	C 	0.98446 0.09402 0.02014 0.32600
C 	C 	0.12912 0.01663 0.01595 0.31100
Ni	Ni	0.90389 0.93960 0.96774 1.11300
Ni	Ni	0.94408 0.92691 0.01236 1.12400
Ni	Ni	0.06980 0.08232 0.98704 1.12000
O 	O 	0.99042 0.93211 0.95137 -0.36500
O 	O 	0.09605 0.06004 0.96026 -0.37000
O 	O 	0.94662 0.01920 0.02653 -0.38700
O 	O 	0.83392 0.96600 0.98541 -0.38000
O 	O 	0.81941 0.87989 0.00896 -0.36800
O 	O 	0.13944 0.04153 0.99844 -0.39000
O 	O 	0.94139 0.04898 0.95281 -0.36900
O 	O 	0.99813 0.12680 0.97832 -0.39200
O 	O 	0.84390 0.81441 0.97621 -0.36300
O 	O 	0.93118 0.82518 0.00023 -0.38200
O 	O 	0.98013 0.97411 0.98788 -0.70200
C 	C 	0.22713 0.17814 0.26870 -0.09200
C 	C 	0.29656 0.21817 0.27421 0.03800
C 	C 	0.37697 0.25999 0.28139 0.03800
C 	C 	0.44296 0.28939 0.28887 -0.08800
C 	C 	0.90385 0.80611 0.28798 -0.07600
C 	C 	0.88302 0.75759 0.30068 0.03900
C 	C 	0.85077 0.69245 0.31368 0.04400
C 	C 	0.81501 0.62905 0.32222 -0.08500
C 	C 	0.68881 0.17736 0.28988 -0.08900
C 	C 	0.72010 0.13936 0.28405 0.04800
C 	C 	0.76494 0.10445 0.27645 0.03800
C 	C 	0.80660 0.08010 0.26917 -0.07900
C 	C 	0.72853 0.52153 0.02958 -0.08100
C 	C 	0.74800 0.56999 0.01691 0.03700
C 	C 	0.77920 0.63507 0.00393 0.04300
C 	C 	0.81491 0.69823 0.99531 -0.08800
C 	C 	0.20035 0.04734 0.02756 -0.08800
C 	C 	0.26427 0.08024 0.03594 0.04100
C 	C 	0.34149 0.12452 0.04461 0.03800
C 	C 	0.40801 0.16522 0.05159 -0.08500
C 	C 	0.81497 0.23015 0.04095 -0.08600
C 	C 	0.86134 0.20907 0.03485 0.04000
C 	C 	0.91284 0.17906 0.02878 0.04700
C 	C 	0.95084 0.14567 0.02442 -0.08800
C 	C 	0.82458 0.24558 0.11125 -0.11600
C 	C 	0.85519 0.28112 0.12897 0.13300
C 	C 	0.87197 0.23710 0.14242 -0.09900
C 	C 	0.85891 0.15862 0.13836 0.00400
C 	C 	0.83566 0.12645 0.12005 0.05800
C 	C 	0.81943 0.17083 0.10659 -0.01900
N 	N 	0.86769 0.35691 0.13322 -0.20700
H 	H 	0.89242 0.26270 0.15629 0.06100
C 	C 	0.86070 0.10756 0.15389 -0.00200
N 	N 	0.82786 0.05284 0.11539 -0.19200
H 	H 	0.79822 0.14490 0.09277 0.04400
C 	C 	0.79076 0.06501 0.16511 -0.09500
C 	C 	0.79427 0.02814 0.18189 0.12900
C 	C 	0.86924 0.03424 0.18747 -0.11000
C 	C 	0.93664 0.06940 0.17531 -0.02500
C 	C 	0.93354 0.10713 0.15863 0.06900
H 	H 	0.73422 0.06310 0.16109 0.05700
N 	N 	0.72593 0.98795 0.19266 -0.20200
H 	H 	0.99295 0.07085 0.17926 0.05300
H 	H 	0.67138 0.98578 0.18870 0.08800
H 	H 	0.72559 0.95663 0.20475 0.09800
H 	H 	0.99969 0.16992 0.13463 0.09600
H 	H 	0.80906 0.02885 0.10194 0.08700
H 	H 	0.84183 0.01948 0.12490 0.08900
H 	H 	0.86114 0.39325 0.12311 0.10300
H 	H 	0.88691 0.38138 0.14663 0.08800
C 	C 	0.18684 0.12129 0.19687 -0.11800
C 	C 	0.26718 0.18827 0.19896 0.13300
C 	C 	0.32412 0.20720 0.18446 -0.10000
C 	C 	0.30157 0.16208 0.16776 0.00300
C 	C 	0.22050 0.09650 0.16545 0.05600
C 	C 	0.16382 0.07693 0.18007 -0.02100
N 	N 	0.28958 0.23528 0.21471 -0.20500
H 	H 	0.38596 0.25805 0.18606 0.05900
C 	C 	0.36290 0.18586 0.15260 0.00200
N 	N 	0.19687 0.05202 0.14933 -0.19200
H 	H 	0.10226 0.02550 0.17855 0.03900
C 	C 	0.41648 0.15417 0.15264 -0.09800
C 	C 	0.47893 0.17940 0.13918 0.13100
C 	C 	0.48612 0.23568 0.12516 -0.11400
C 	C 	0.43241 0.26720 0.12514 -0.01600
C 	C 	0.37088 0.24299 0.13873 0.05800
H 	H 	0.41054 0.11096 0.16340 0.05800
N 	N 	0.53290 0.15121 0.14014 -0.20600
H 	H 	0.43784 0.31000 0.11431 0.03700
N 	N 	0.31946 0.27439 0.13832 -0.19100
H 	H 	0.52586 0.10819 0.15028 0.08600
H 	H 	0.58364 0.17341 0.13129 0.09900
H 	H 	0.32611 0.31676 0.12805 0.08400
H 	H 	0.27228 0.25698 0.14806 0.08700
H 	H 	0.13677 0.00403 0.14774 0.08200
H 	H 	0.23763 0.06429 0.13826 0.09000
H 	H 	0.24710 0.22697 0.22510 0.10200
H 	H 	0.34981 0.28288 0.21640 0.09000
C 	C 	0.90873 0.78446 0.19991 -0.11300
C 	C 	0.82457 0.73518 0.19484 0.13300
C 	C 	0.80338 0.68236 0.17941 -0.09800
C 	C 	0.86373 0.68238 0.16796 0.00100
C 	C 	0.94728 0.73118 0.17280 0.06400
C 	C 	0.96895 0.78167 0.18870 -0.00900
N 	N 	0.76429 0.74045 0.20414 -0.20000
H 	H 	0.73939 0.64432 0.17566 0.05900
C 	C 	0.83858 0.63431 0.15037 0.00300
C 	C 	0.84303 0.67427 0.13347 -0.09800
C 	C 	0.81775 0.63044 0.11656 0.13100
C 	C 	0.78367 0.54435 0.11679 -0.11500
C 	C 	0.77720 0.50428 0.13380 -0.01900
C 	C 	0.80626 0.54859 0.15052 0.05900
H 	H 	0.86757 0.73996 0.13344 0.05900
N 	N 	0.82818 0.67156 0.10020 -0.20600
H 	H 	0.75126 0.43838 0.13393 0.04900
N 	N 	0.80427 0.50871 0.16657 -0.19200
H 	H 	0.85188 0.73487 0.10027 0.09000
H 	H 	0.81510 0.64188 0.08726 0.10600
H 	H 	0.77924 0.44521 0.16658 0.08500
H 	H 	0.82925 0.54024 0.17905 0.09100
H 	H 	0.06863 0.76660 0.16588 0.08300
H 	H 	0.99278 0.68884 0.15116 0.09600
H 	H 	0.77475 0.79512 0.21014 0.08800
H 	H 	0.70341 0.69382 0.20282 0.08600
C 	C 	0.52121 0.76369 0.95880 -0.07900
C 	C 	0.57121 0.78964 0.97123 0.03400
C 	C 	0.63818 0.82498 0.98372 0.04600
C 	C 	0.70282 0.86077 0.99181 -0.09900
C 	C 	0.14521 0.41206 0.93224 -0.08400
C 	C 	0.09715 0.34284 0.93688 0.03400
C 	C 	0.12642 0.95862 0.94806 -0.08600
C 	C 	0.16428 0.92493 0.94371 0.04100
C 	C 	0.19959 0.87691 0.93842 0.04000
C 	C 	0.22516 0.83234 0.93358 -0.08400
C 	C 	0.13091 0.92064 0.78108 -0.11000
C 	C 	0.16257 0.86633 0.78026 0.13300
C 	C 	0.18741 0.84506 0.79687 -0.09800
C 	C 	0.18525 0.88023 0.81404 0.00200
C 	C 	0.15654 0.93693 0.81473 0.05900
C 	C 	0.12745 0.95467 0.79830 -0.02300
N 	N 	0.17131 0.83616 0.76361 -0.20500
H 	H 	0.20991 0.80206 0.79639 0.05900
C 	C 	0.21220 0.85616 0.83123 0.00200
N 	N 	0.15694 0.97460 0.83104 -0.19100
H 	H 	0.10320 0.99623 0.79887 0.03800
C 	C 	0.29630 0.88854 0.83445 -0.09800
C 	C 	0.32419 0.86265 0.84984 0.13100
C 	C 	0.26651 0.80576 0.86266 -0.11400
C 	C 	0.18259 0.77616 0.85984 -0.01700
C 	C 	0.15463 0.79908 0.84400 0.05900
H 	H 	0.34017 0.93241 0.82466 0.05800
N 	N 	0.40587 0.89090 0.85189 -0.20600
H 	H 	0.13861 0.73300 0.86973 0.04000
N 	N 	0.07263 0.76540 0.84106 -0.19200
H 	H 	0.44780 0.93347 0.84244 0.08700
H 	H 	0.42861 0.87004 0.86258 0.10100
H 	H 	0.13401 0.01504 0.83146 0.08100
H 	H 	0.18140 0.96560 0.84333 0.09000
H 	H 	0.16002 0.85580 0.75087 0.10800
H 	H 	0.19254 0.79433 0.76326 0.09000
C 	C 	0.16120 0.25276 0.77948 -0.10300
C 	C 	0.20617 0.24422 0.79433 0.12300
C 	C 	0.23620 0.30271 0.80872 -0.09500
C 	C 	0.22101 0.36846 0.80857 -0.00000
C 	C 	0.18343 0.38132 0.79277 0.06200
C 	C 	0.15435 0.32338 0.77829 -0.02100
N 	N 	0.21964 0.17970 0.79498 -0.20600
H 	H 	0.26767 0.29473 0.82056 0.05700
C 	C 	0.23354 0.41564 0.82598 0.00300
N 	N 	0.17321 0.44784 0.79165 -0.19200
H 	H 	0.12268 0.33127 0.76647 0.05000
C 	C 	0.30543 0.49114 0.82815 -0.10100
C 	C 	0.31832 0.53802 0.84439 0.13200
C 	C 	0.26259 0.50442 0.85952 -0.11400
C 	C 	0.19027 0.42923 0.85725 -0.01900
C 	C 	0.17427 0.38531 0.84046 0.06000
H 	H 	0.34978 0.51496 0.81686 0.05800
N 	N 	0.38178 0.61624 0.84504 -0.20400
H 	H 	0.14684 0.40408 0.86870 0.05000
N 	N 	0.10212 0.31416 0.83834 -0.19200
H 	H 	0.42542 0.63887 0.83433 0.08800
H 	H 	0.38551 0.65678 0.85549 0.10400
H 	H 	0.08662 0.28148 0.82578 0.09100
H 	H 	0.14361 0.45570 0.78011 0.08800
H 	H 	0.19559 0.49300 0.80199 0.09000
H 	H 	0.20268 0.13820 0.78393 0.09700
H 	H 	0.24974 0.17191 0.80643 0.08700
C 	C 	0.82745 0.91551 0.79487 -0.10700
C 	C 	0.74200 0.88653 0.79544 0.13100
C 	C 	0.70154 0.86757 0.81277 -0.09800
C 	C 	0.74280 0.86944 0.82926 0.00200
C 	C 	0.82740 0.89472 0.82861 0.05800
C 	C 	0.86916 0.91876 0.81142 -0.02300
N 	N 	0.69784 0.87281 0.77941 -0.20400
H 	H 	0.63655 0.84721 0.81330 0.05700
C 	C 	0.69511 0.83926 0.84684 0.00200
N 	N 	0.86882 0.89634 0.84438 -0.19200
H 	H 	0.93429 0.93974 0.81092 0.03900
C 	C 	0.64867 0.75469 0.84980 -0.09900
C 	C 	0.59147 0.72273 0.86446 0.12800
C 	C 	0.58092 0.77705 0.87644 -0.11300
C 	C 	0.63210 0.86179 0.87432 -0.01900
C 	C 	0.68864 0.89355 0.85953 0.05800
H 	H 	0.65515 0.71338 0.84026 0.05700
N 	N 	0.54624 0.64022 0.86668 -0.20400
H 	H 	0.62561 0.90331 0.88379 0.04100
N 	N 	0.73569 0.97600 0.85749 -0.18800
H 	H 	0.55148 0.60101 0.85711 0.08700
H 	H 	0.50770 0.61401 0.87813 0.09900
H 	H 	0.72949 0.01561 0.86676 0.08100
H 	H 	0.77956 0.00167 0.84691 0.08500
H 	H 	0.93118 0.91486 0.84373 0.08300
H 	H 	0.83986 0.87944 0.85739 0.09000
H 	H 	0.72238 0.87233 0.76634 0.11000
H 	H 	0.63604 0.85648 0.78003 0.08900
C 	C 	0.74176 0.90640 0.71941 -0.09700
C 	C 	0.67323 0.88116 0.71354 0.04300
C 	C 	0.59395 0.84893 0.70583 0.03700
C 	C 	0.52897 0.81856 0.69783 -0.08500
C 	C 	0.27278 0.47188 0.69252 -0.08400
C 	C 	0.23396 0.40055 0.69669 0.04300
C 	C 	0.18092 0.31922 0.70246 0.04600
C 	C 	0.13248 0.25221 0.70828 -0.09500
C 	C 	0.15279 0.79860 0.66258 -0.08400
C 	C 	0.11560 0.82676 0.67045 0.04100
C 	C 	0.08202 0.86162 0.68261 0.04600
C 	C 	0.40070 0.48167 0.37931 -0.08800
C 	C 	0.42389 0.43497 0.37464 0.04000
C 	C 	0.45994 0.38699 0.36994 0.04000
C 	C 	0.50031 0.35511 0.36637 -0.08800
C 	C 	0.94078 0.48023 0.32867 -0.07800
C 	C 	0.06893 0.55193 0.35039 0.04100
C 	C 	0.11827 0.57649 0.36298 -0.08500
C 	C 	0.63216 0.13177 0.36530 -0.09900
C 	C 	0.59619 0.06397 0.37192 0.03700
C 	C 	0.54705 0.98257 0.37815 0.04000
C 	C 	0.50025 0.91351 0.38309 -0.09100
C 	C 	0.34499 0.49138 0.61851 -0.10200
C 	C 	0.38228 0.46087 0.61175 0.04600
C 	C 	0.43258 0.42940 0.60556 0.03400
C 	C 	0.47988 0.40697 0.60084 -0.08400
C 	C 	0.85830 0.45080 0.62235 -0.08400
C 	C 	0.90699 0.47526 0.63506 0.03800
C 	C 	0.97183 0.50404 0.64814 0.03000
C 	C 	0.56773 0.06879 0.60533 -0.09300
C 	C 	0.54418 0.99917 0.61015 0.04800
C 	C 	0.50914 0.91569 0.61504 0.03700
C 	C 	0.47017 0.84383 0.61879 -0.08400
C 	C 	0.55663 0.40801 0.52825 -0.11400
C 	C 	0.56186 0.48519 0.52586 0.13200
C 	C 	0.53095 0.50076 0.50944 -0.09900
C 	C 	0.49177 0.43977 0.49584 0.00200
C 	C 	0.48605 0.36249 0.49826 0.05800
C 	C 	0.51807 0.34727 0.51455 -0.02300
N 	N 	0.59368 0.54337 0.53950 -0.20400
H 	H 	0.53525 0.55988 0.50749 0.05900
C 	C 	0.45617 0.45750 0.47923 0.00200
N 	N 	0.44941 0.30259 0.48513 -0.19200
H 	H 	0.51177 0.28745 0.51671 0.04500
C 	C 	0.50506 0.49099 0.46330 -0.09800
C 	C 	0.47645 0.51625 0.44798 0.13100
C 	C 	0.39848 0.51035 0.44895 -0.11300
C 	C 	0.34800 0.47325 0.46449 -0.01800
C 	C 	0.37591 0.44629 0.47966 0.06000
H 	H 	0.56580 0.49783 0.46286 0.05800
N 	N 	0.52352 0.54503 0.43233 -0.20600
H 	H 	0.28762 0.46729 0.46502 0.04600
N 	N 	0.32569 0.41018 0.49458 -0.19200
H 	H 	0.58207 0.55162 0.43195 0.09000
H 	H 	0.50146 0.55810 0.42018 0.09700
H 	H 	0.26710 0.40347 0.49491 0.08600
H 	H 	0.34352 0.38715 0.50582 0.09100
H 	H 	0.44566 0.24581 0.48706 0.08300
H 	H 	0.42459 0.31165 0.47290 0.09000
H 	H 	0.60981 0.53136 0.55261 0.09600
H 	H 	0.59958 0.60093 0.53732 0.08800
C 	C 	0.60092 0.12594 0.53133 -0.11300
C 	C 	0.59272 0.15270 0.51339 0.13000
C 	C 	0.55684 0.09545 0.49894 -0.09600
C 	C 	0.53963 0.01454 0.50137 -0.00900
C 	C 	0.56086 0.99135 0.51844 0.07000
C 	C 	0.58808 0.04637 0.53356 -0.02800
N 	N 	0.62259 0.23352 0.50979 -0.20400
H 	H 	0.54454 0.11443 0.48556 0.05500
C 	C 	0.50266 0.95614 0.48562 0.00800
N 	N 	0.55521 0.91686 0.52038 -0.19400
H 	H 	0.59773 0.02671 0.54712 0.05000
C 	C 	0.54625 0.97277 0.46877 -0.09700
C 	C 	0.50859 0.92721 0.45266 0.13500
C 	C 	0.43252 0.85379 0.45427 -0.11600
C 	C 	0.38937 0.83554 0.47126 -0.01900
C 	C 	0.42175 0.88869 0.48666 0.05700
H 	H 	0.60717 0.02568 0.46782 0.05600
N 	N 	0.54171 0.95786 0.43561 -0.20100
H 	H 	0.33003 0.78062 0.47244 0.04600
N 	N 	0.37467 0.87540 0.50216 -0.19100
H 	H 	0.60112 0.00762 0.43456 0.08700
H 	H 	0.50583 0.93897 0.42352 0.10700
H 	H 	0.31624 0.82394 0.50299 0.08400
H 	H 	0.39389 0.91735 0.51318 0.09100
H 	H 	0.56813 0.89927 0.53324 0.08800
H 	H 	0.54102 0.87704 0.50904 0.09100
H 	H 	0.65935 0.27835 0.51951 0.10200
H 	H 	0.61324 0.25254 0.49673 0.08500
C 	C 	0.87338 0.45969 0.53477 -0.11200
C 	C 	0.95265 0.46868 0.53378 0.13300
C 	C 	0.99731 0.49540 0.51701 -0.09900
C 	C 	0.96510 0.51517 0.50144 0.00600
C 	C 	0.88782 0.51071 0.50280 0.05900
C 	C 	0.84243 0.48232 0.51945 -0.02300
N 	N 	0.98631 0.45224 0.54886 -0.20600
N 	N 	0.85694 0.53347 0.48823 -0.19200
H 	H 	0.78204 0.47617 0.52033 0.04700
C 	C 	0.99034 0.47325 0.47021 -0.08800
C 	C 	0.10125 0.56835 0.44999 -0.11000
C 	C 	0.12029 0.63109 0.46302 -0.02300
C 	C 	0.07546 0.61559 0.47973 0.06100
H 	H 	0.93995 0.41227 0.47300 0.05700
H 	H 	0.17111 0.69192 0.46031 0.04400
N 	N 	0.09496 0.67767 0.49209 -0.19300
H 	H 	0.96233 0.36992 0.44314 0.09000
H 	H 	0.14401 0.73616 0.48939 0.08300
H 	H 	0.79908 0.52827 0.48923 0.08500
H 	H 	0.89051 0.55808 0.47597 0.09100
H 	H 	0.95680 0.43683 0.56183 0.10100
