data_crystal

_cell_length_a 24.21997
_cell_length_b 24.46895
_cell_length_c 35.18517
_cell_angle_alpha 95.50781
_cell_angle_beta  95.50894
_cell_angle_gamma 125.83038

_symmetry_space_group_name_	'P 1'
_symmetry_space_group_name_H-M	'P 1'

loop_
_symmetry_equiv_pos_as_xyz
  x,y,z

loop_
_atom_site_label
_atom_site_type_symbol
_atom_site_fract_x
_atom_site_fract_y
_atom_site_fract_z
_atom_site_charge
C 	C 	0.07338 0.09647 0.98826 -0.04100
C 	C 	0.09168 0.05276 0.97827 -0.00800
C 	C 	0.04011 0.98135 0.96915 -0.04600
H 	H 	0.11314 0.15151 0.99592 0.04100
H 	H 	0.05440 0.94760 0.96233 0.04200
C 	C 	0.02303 0.00678 0.51694 -0.02600
H 	H 	0.02551 0.92065 0.52087 0.03300
H 	H 	0.00299 0.08098 0.51263 0.03700
N 	N 	0.12829 0.10390 0.49838 -0.17000
C 	C 	0.09915 0.05888 0.52265 0.08300
C 	C 	0.14726 0.05201 0.54182 -0.09100
H 	H 	0.13449 0.00849 0.55478 0.05600
H 	H 	0.10010 0.10413 0.47401 0.08400
C 	C 	0.16442 0.08177 0.97588 0.07700
C 	C 	0.19372 0.12449 0.50082 0.07200
N 	N 	0.19173 0.04827 0.98397 -0.16900
C 	C 	0.19955 0.12545 0.95029 -0.08800
H 	H 	0.18103 0.14812 0.93322 0.05500
H 	H 	0.17202 0.00845 0.99968 0.08600
H 	H 	0.04646 0.19913 0.97215 0.08100
C 	C 	0.20763 0.09394 0.52778 0.03100
H 	H 	0.21760 0.16697 0.44834 0.05300
C 	C 	0.24078 0.06690 0.96234 0.07300
C 	C 	0.24689 0.11434 0.94099 0.02700
C 	C 	0.22822 0.14310 0.46930 -0.07900
C 	C 	0.25560 0.08006 0.52378 -0.08900
H 	H 	0.26648 0.05641 0.54477 0.06000
C 	C 	0.29629 0.06374 0.97187 -0.07900
H 	H 	0.29574 0.03451 0.99329 0.05800
C 	C 	0.27421 0.12709 0.46460 0.01000
C 	C 	0.28917 0.09781 0.49184 0.08200
C 	C 	0.30981 0.16273 0.92989 -0.08800
H 	H 	0.31916 0.20752 0.91992 0.05800
C 	C 	0.35469 0.10392 0.95487 0.01300
C 	C 	0.36218 0.15375 0.93492 0.08000
C 	C 	0.33239 0.16570 0.44839 -0.04400
N 	N 	0.35399 0.11690 0.49298 -0.15300
H 	H 	0.34571 0.20961 0.43564 0.05200
C 	C 	0.38056 0.15838 0.46669 0.00200
H 	H 	0.38367 0.11743 0.51684 0.09900
N 	N 	0.42984 0.20529 0.93759 -0.15300
C 	C 	0.42084 0.12631 0.97046 -0.04500
H 	H 	0.43358 0.11184 0.99616 0.06000
H 	H 	0.44910 0.25533 0.93462 0.09300
C 	C 	0.46568 0.18867 0.95897 0.00500
C 	C 	0.45544 0.20683 0.46759 0.26400
N 	N 	0.47291 0.20849 0.58923 -0.11000
N 	N 	0.47739 0.24712 0.70364 -0.11300
O 	O 	0.47710 0.25004 0.44315 -0.38200
N 	N 	0.49513 0.18379 0.08815 -0.11000
O 	O 	0.49923 0.21471 0.49693 -0.37000
N 	N 	0.49987 0.18304 0.20270 -0.11400
C 	C 	0.52855 0.27069 0.69206 0.09700
C 	C 	0.52557 0.24497 0.61050 0.08200
C 	C 	0.53904 0.23931 0.97772 0.25400
C 	C 	0.54749 0.21814 0.10982 0.08600
C 	C 	0.55095 0.21648 0.19118 0.09700
Cu	Cu	0.55862 0.28217 0.41768 0.89700
H 	H 	0.56143 0.18884 0.43549 0.16900
O 	O 	0.57212 0.21908 0.99634 -0.34900
O 	O 	0.57164 0.30446 0.97550 -0.38100
H 	H 	0.00604 0.28037 0.97210 0.04700
C 	C 	0.00377 0.06889 0.98875 -0.01500
N 	N 	0.59646 0.15475 0.82100 -0.11600
O 	O 	0.58572 0.26909 0.36753 -0.37600
C 	C 	0.59143 0.29066 0.63726 0.01700
C 	C 	0.59270 0.30025 0.67760 -0.03800
O 	O 	0.58970 0.23919 0.44426 -0.63800
Cu	Cu	0.59791 0.26711 0.49864 0.89600
N 	N 	0.60703 0.16858 0.70822 -0.11700
O 	O 	0.61248 0.30113 0.55396 -0.37400
C 	C 	0.61320 0.26124 0.13695 0.02200
C 	C 	0.61505 0.25844 0.17682 -0.03900
C 	C 	0.61829 0.20646 0.81109 0.08000
C 	C 	0.62234 0.21524 0.73065 0.09500
C 	C 	0.98043 0.02680 0.50838 -0.02200
C 	C 	0.97030 0.95374 0.96890 -0.00400
C 	C 	0.95239 0.99771 0.97816 -0.03500
H 	H 	0.89832 0.97644 0.97710 0.04400
C 	C 	0.91028 0.97778 0.49138 -0.01500
C 	C 	0.88054 0.90763 0.48748 -0.03300
C 	C 	0.92158 0.88678 0.49972 -0.01500
C 	C 	0.99316 0.93662 0.51362 -0.02200
H 	H 	0.82663 0.86979 0.47377 0.03900
Cu	Cu	0.67683 0.27322 0.00347 0.93000
Cu	Cu	0.75847 0.30652 0.93013 0.86500
Cu	Cu	0.69615 0.37061 0.95024 0.89500
Cu	Cu	0.65001 0.38321 0.02429 0.89600
C 	C 	0.67300 0.31302 0.08223 0.29500
C 	C 	0.69181 0.33276 0.86822 0.29000
O 	O 	0.71614 0.37595 0.00547 -0.64100
O 	O 	0.67372 0.27850 0.94793 -0.64500
O 	O 	0.73738 0.24309 0.00716 -0.35900
O 	O 	0.81606 0.32965 0.97865 -0.42900
O 	O 	0.63636 0.33326 0.06841 -0.37800
O 	O 	0.72448 0.46318 0.95336 -0.36900
C 	C 	0.73209 0.50149 0.98540 0.26200
O 	O 	0.68900 0.47460 0.00996 -0.38000
O 	O 	0.69336 0.28527 0.05890 -0.35700
C 	C 	0.80043 0.28278 0.99983 0.26500
O 	O 	0.67139 0.35688 0.89418 -0.37400
O 	O 	0.72265 0.30450 0.87808 -0.40900
H 	H 	0.76507 0.41206 0.01812 0.16700
H 	H 	0.63027 0.24156 0.92972 0.18300
Cu	Cu	0.69619 0.29598 0.44250 0.92900
Cu	Cu	0.69941 0.24927 0.52625 0.86600
C 	C 	0.64487 0.28045 0.36243 0.29300
O 	O 	0.73535 0.39452 0.43892 -0.35400
C 	C 	0.65485 0.30369 0.58211 0.28700
O 	O 	0.69791 0.31332 0.49866 -0.64400
O 	O 	0.74198 0.24996 0.44414 -0.35900
O 	O 	0.67235 0.18015 0.48313 -0.43300
C 	C 	0.70175 0.41975 0.44725 0.26000
O 	O 	0.63953 0.37983 0.45527 -0.38100
O 	O 	0.67820 0.26759 0.38754 -0.35800
C 	C 	0.71269 0.19257 0.45766 0.26100
O 	O 	0.70249 0.29573 0.57454 -0.40900
H 	H 	0.72826 0.36185 0.51227 0.18300
C 	C 	0.67667 0.39066 0.77363 -0.03900
C 	C 	0.65739 0.33369 0.74613 0.02100
C 	C 	0.64154 0.27377 0.75873 -0.04000
C 	C 	0.64561 0.27127 0.79865 0.02000
C 	C 	0.67382 0.33129 0.82638 -0.07600
C 	C 	0.68841 0.39093 0.81372 0.01900
C 	C 	0.65642 0.33762 0.70398 0.02000
C 	C 	0.71793 0.45322 0.84170 0.08300
C 	C 	0.71917 0.37454 0.68997 -0.04000
C 	C 	0.71784 0.37087 0.64966 0.02000
C 	C 	0.65448 0.32382 0.62325 -0.07600
C 	C 	0.78497 0.41460 0.71693 0.09500
C 	C 	0.78105 0.41698 0.63539 0.08200
C 	C 	0.68485 0.44907 0.76061 0.09800
N 	N 	0.83150 0.45380 0.62401 -0.11400
N 	N 	0.83744 0.44655 0.73848 -0.11500
N 	N 	0.74148 0.50298 0.86396 -0.10900
N 	N 	0.69138 0.49566 0.75019 -0.11200
C 	C 	0.68282 0.34961 0.26883 -0.03800
C 	C 	0.68078 0.29812 0.24546 0.02100
C 	C 	0.67470 0.24479 0.26175 -0.03800
C 	C 	0.66435 0.23943 0.30039 0.02200
C 	C 	0.66303 0.28930 0.32332 -0.07300
C 	C 	0.67461 0.34559 0.30781 0.01900
C 	C 	0.67923 0.29698 0.20287 0.02100
C 	C 	0.67803 0.19488 0.23850 0.09800
C 	C 	0.67757 0.39912 0.33189 0.07500
C 	C 	0.74163 0.33656 0.18877 -0.03800
C 	C 	0.73974 0.34100 0.14905 0.01900
C 	C 	0.67542 0.30479 0.12330 -0.07600
C 	C 	0.80763 0.37305 0.21523 0.09800
C 	C 	0.80384 0.38345 0.13475 0.07800
C 	C 	0.69218 0.40612 0.25250 0.09600
C 	C 	0.65248 0.18134 0.31599 0.09100
N 	N 	0.85495 0.41728 0.12331 -0.11100
N 	N 	0.86025 0.40214 0.23638 -0.11200
N 	N 	0.68068 0.15510 0.21991 -0.11200
N 	N 	0.64305 0.13502 0.32843 -0.10600
N 	N 	0.67985 0.44188 0.35096 -0.11400
N 	N 	0.69965 0.45116 0.23942 -0.11400
C 	C 	0.81345 0.70389 0.49367 0.07200
C 	C 	0.74881 0.64180 0.47719 -0.08000
C 	C 	0.74780 0.59087 0.45434 0.01300
C 	C 	0.80901 0.60035 0.44929 0.08400
C 	C 	0.87369 0.66265 0.46551 -0.09000
C 	C 	0.87467 0.71383 0.48805 0.03000
N 	N 	0.82350 0.76451 0.50011 -0.16900
C 	C 	0.89031 0.81294 0.49777 0.08200
C 	C 	0.92395 0.78358 0.49045 -0.09100
N 	N 	0.79871 0.53951 0.44342 -0.15000
C 	C 	0.73138 0.49147 0.44484 0.00700
C 	C 	0.69802 0.52124 0.45156 -0.04500
H 	H 	0.70107 0.63384 0.48148 0.05500
H 	H 	0.92142 0.67059 0.46122 0.06000
H 	H 	0.96926 0.80632 0.47699 0.05700
H 	H 	0.65225 0.49869 0.46460 0.05200
H 	H 	0.78406 0.77048 0.49720 0.08500
H 	H 	0.83777 0.53336 0.44909 0.09400
C 	C 	0.78184 0.10418 0.43148 0.08200
C 	C 	0.84580 0.11463 0.43724 -0.09200
C 	C 	0.85449 0.07786 0.46213 0.02900
C 	C 	0.80065 0.02918 0.47865 0.07000
C 	C 	0.73536 0.01542 0.47112 -0.08100
C 	C 	0.72699 0.05417 0.44744 0.01000
N 	N 	0.77688 0.15556 0.42790 -0.15100
C 	C 	0.72007 0.13960 0.44192 0.00400
C 	C 	0.68745 0.07668 0.45395 -0.04500
N 	N 	0.81043 0.98267 0.48742 -0.16900
C 	C 	0.86945 0.00035 0.47557 0.08000
C 	C 	0.89850 0.05980 0.46000 -0.09100
H 	H 	0.88830 0.15268 0.42452 0.05900
H 	H 	0.69316 0.97734 0.48400 0.05300
H 	H 	0.65494 0.06181 0.47574 0.04600
H 	H 	0.93765 0.07808 0.44201 0.05600
H 	H 	0.81916 0.20569 0.42721 0.09400
H 	H 	0.77243 0.93451 0.49332 0.08500
C 	C 	0.84130 0.78020 0.97587 0.07300
C 	C 	0.81533 0.73748 0.00341 -0.08000
C 	C 	0.82353 0.68531 0.00248 0.00900
C 	C 	0.85380 0.67406 0.97411 0.08400
C 	C 	0.87844 0.71579 0.94604 -0.08900
C 	C 	0.87096 0.76853 0.94717 0.03000
N 	N 	0.86830 0.84710 0.98381 -0.16800
C 	C 	0.91563 0.87860 0.96080 0.07800
C 	C 	0.91838 0.83136 0.93739 -0.08700
N 	N 	0.82904 0.60777 0.96723 -0.15400
C 	C 	0.78266 0.57648 0.99076 0.00300
C 	C 	0.77764 0.62286 0.01313 -0.04400
H 	H 	0.79149 0.74593 0.02547 0.05500
H 	H 	0.90220 0.70722 0.92398 0.06100
H 	H 	0.96195 0.84369 0.92410 0.05700
H 	H 	0.73235 0.60908 0.02502 0.05200
H 	H 	0.86954 0.87182 0.01019 0.08500
H 	H 	0.82928 0.58268 0.94153 0.09700
C 	C 	0.95545 0.18077 0.98874 0.06800
C 	C 	0.97052 0.24559 0.98932 -0.07200
C 	C 	0.93666 0.26330 0.01207 0.00600
C 	C 	0.88995 0.21796 0.03370 0.08400
C 	C 	0.87805 0.15467 0.03460 -0.09200
C 	C 	0.90987 0.13633 0.01073 0.03000
N 	N 	0.99988 0.16655 0.98170 -0.16500
C 	C 	0.98421 0.11432 0.00001 0.08200
C 	C 	0.92796 0.09388 0.01807 -0.09200
N 	N 	0.84035 0.22664 0.03638 -0.15100
C 	C 	0.85433 0.27654 0.01636 -0.00000
C 	C 	0.91406 0.30088 0.00112 -0.04300
H 	H 	0.84251 0.11959 0.05171 0.06000
H 	H 	0.91289 0.06299 0.04049 0.05700
H 	H 	0.92483 0.32425 0.97554 0.04000
H 	H 	0.79100 0.18867 0.04135 0.09800
