data_crystal

_cell_length_a 25.92030
_cell_length_b 26.51685
_cell_length_c 34.38124
_cell_angle_alpha 95.51154
_cell_angle_beta  95.51068
_cell_angle_gamma 125.77734

_symmetry_space_group_name_	'P 1'
_symmetry_space_group_name_H-M	'P 1'

loop_
_symmetry_equiv_pos_as_xyz
  x,y,z

loop_
_atom_site_label
_atom_site_type_symbol
_atom_site_fract_x
_atom_site_fract_y
_atom_site_fract_z
_atom_site_charge
C 	C 	0.93846 0.99984 0.99051 0.17600
N 	N 	0.89977 0.93824 0.99429 -0.12900
C 	C 	0.92305 0.90389 0.99401 0.16000
N 	N 	0.98552 0.93149 0.99062 -0.13700
C 	C 	0.02396 0.99250 0.98555 0.18900
N 	N 	0.00009 0.02655 0.98503 -0.13600
C 	C 	0.97358 0.03302 0.45450 0.13400
N 	N 	0.93429 0.97025 0.45602 -0.11100
C 	C 	0.95930 0.93731 0.45778 0.15300
N 	N 	0.02353 0.96732 0.45897 -0.11100
C 	C 	0.06307 0.03021 0.45872 0.14700
N 	N 	0.03787 0.06265 0.45574 -0.12700
Cu	Cu	0.61978 0.22736 0.99698 0.92600
Cu	Cu	0.66854 0.23128 0.91229 0.88800
Cu	Cu	0.63632 0.32639 0.95023 0.91400
Cu	Cu	0.59145 0.32402 0.02724 0.90600
C 	C 	0.62366 0.26023 0.08030 0.28200
O 	O 	0.52164 0.17287 0.99229 -0.33700
C 	C 	0.67101 0.32451 0.87551 0.27800
O 	O 	0.65410 0.32263 0.00488 -0.63400
O 	O 	0.61093 0.23837 0.94103 -0.62800
O 	O 	0.68178 0.20501 0.99695 -0.35200
O 	O 	0.65243 0.15996 0.93137 -0.40500
O 	O 	0.58484 0.27550 0.06978 -0.36200
O 	O 	0.66698 0.41332 0.96058 -0.36600
C 	C 	0.66003 0.44053 0.99177 0.30800
C 	C 	0.48817 0.19302 0.97957 0.29400
O 	O 	0.51836 0.25297 0.97740 -0.39000
O 	O 	0.61789 0.40699 0.01439 -0.36200
O 	O 	0.63782 0.23316 0.05349 -0.33600
C 	C 	0.67900 0.16698 0.96777 0.31000
O 	O 	0.63221 0.32983 0.89424 -0.36500
O 	O 	0.70692 0.31076 0.89397 -0.40700
H 	H 	0.69947 0.35561 0.01853 0.18400
H 	H 	0.56595 0.20792 0.92611 0.16600
Cu	Cu	0.77120 0.37287 0.45406 0.93000
Cu	Cu	0.78420 0.34003 0.54236 0.88800
Cu	Cu	0.67805 0.34458 0.51165 0.90000
Cu	Cu	0.64063 0.35564 0.42964 0.91100
C 	C 	0.70620 0.33224 0.37245 0.27800
O 	O 	0.79956 0.46100 0.44788 -0.34600
C 	C 	0.73094 0.37562 0.59779 0.27600
O 	O 	0.67163 0.31693 0.45643 -0.63700
O 	O 	0.77265 0.39134 0.51163 -0.63600
O 	O 	0.82332 0.33950 0.45789 -0.35500
O 	O 	0.76414 0.27664 0.50009 -0.41400
O 	O 	0.67902 0.36002 0.38148 -0.35400
O 	O 	0.58531 0.29284 0.50931 -0.37100
C 	C 	0.54255 0.28099 0.47864 0.31200
C 	C 	0.76865 0.48303 0.46055 0.29900
O 	O 	0.71187 0.44430 0.47013 -0.37000
O 	O 	0.55970 0.31719 0.45150 -0.36000
O 	O 	0.75362 0.34131 0.39800 -0.34600
C 	C 	0.80439 0.29104 0.47550 0.30700
O 	O 	0.68696 0.36749 0.56942 -0.36500
O 	O 	0.78358 0.38342 0.58964 -0.39600
H 	H 	0.64585 0.27047 0.44787 0.18100
H 	H 	0.79901 0.43667 0.52414 0.18600
C 	C 	0.81517 0.42411 0.77975 -0.03400
C 	C 	0.82372 0.43253 0.74070 -0.03600
C 	C 	0.76994 0.40643 0.71019 0.02600
C 	C 	0.70728 0.37350 0.71928 -0.00500
C 	C 	0.69871 0.36538 0.75866 -0.00300
C 	C 	0.75277 0.38976 0.78884 0.02300
C 	C 	0.63591 0.33118 0.76762 0.02300
C 	C 	0.58230 0.30664 0.73731 -0.03400
C 	C 	0.59079 0.31434 0.69813 -0.03600
C 	C 	0.65301 0.34686 0.68878 0.02700
C 	C 	0.66136 0.35099 0.64915 -0.02700
C 	C 	0.72351 0.38113 0.63978 -0.04600
C 	C 	0.77785 0.41085 0.67056 -0.02500
C 	C 	0.74360 0.37803 0.82745 -0.02200
C 	C 	0.68090 0.34226 0.83613 -0.05500
C 	C 	0.62735 0.32030 0.80647 -0.02400
H 	H 	0.85707 0.44364 0.80281 0.05400
H 	H 	0.87212 0.45844 0.73408 0.05500
H 	H 	0.53391 0.28076 0.74393 0.05500
H 	H 	0.54882 0.29423 0.67499 0.05700
H 	H 	0.61943 0.32858 0.62552 0.06000
H 	H 	0.82599 0.43572 0.66354 0.05900
H 	H 	0.78498 0.39591 0.85059 0.05700
H 	H 	0.57904 0.29300 0.81332 0.05100
C 	C 	0.78843 0.34570 0.24793 -0.03200
C 	C 	0.77657 0.33615 0.20629 -0.03400
C 	C 	0.71273 0.29791 0.18471 0.03000
C 	C 	0.66047 0.26694 0.20509 -0.00400
C 	C 	0.67241 0.27636 0.24697 -0.00200
C 	C 	0.73659 0.31705 0.26851 0.02700
C 	C 	0.62006 0.24762 0.26737 0.02900
C 	C 	0.55629 0.20745 0.24574 -0.03400
C 	C 	0.54443 0.19817 0.20417 -0.03300
C 	C 	0.59621 0.22888 0.18371 0.02900
C 	C 	0.58450 0.22415 0.14237 -0.02300
C 	C 	0.63639 0.25734 0.12229 -0.03800
C 	C 	0.70038 0.29240 0.14322 -0.02600
C 	C 	0.74794 0.33113 0.31028 -0.01900
C 	C 	0.69558 0.30571 0.33043 -0.04200
C 	C 	0.63198 0.26204 0.30904 -0.02500
H 	H 	0.83793 0.37641 0.26417 0.05800
H 	H 	0.81707 0.35955 0.19091 0.05800
H 	H 	0.51577 0.18447 0.26114 0.05900
H 	H 	0.49491 0.16810 0.18796 0.06000
H 	H 	0.53515 0.19632 0.12597 0.07000
H 	H 	0.74032 0.31743 0.12750 0.05600
H 	H 	0.79708 0.36448 0.32691 0.06300
H 	H 	0.59176 0.24177 0.32478 0.05100
C 	C 	0.77515 0.62669 0.44653 -0.07000
C 	C 	0.84141 0.67563 0.45892 0.03200
C 	C 	0.88421 0.66120 0.47124 0.05900
C 	C 	0.85999 0.59815 0.47173 -0.00200
C 	C 	0.79367 0.54910 0.45907 -0.08600
C 	C 	0.75131 0.56354 0.44542 0.12400
C 	C 	0.86582 0.74195 0.45865 0.01900
N 	N 	0.95233 0.71037 0.48291 -0.01600
H 	H 	0.89287 0.58739 0.48183 0.06500
N 	N 	0.68472 0.51410 0.42867 -0.02500
H 	H 	0.74226 0.63755 0.43663 0.09100
C 	C 	0.86438 0.76241 0.42243 0.07600
C 	C 	0.88910 0.82570 0.42273 -0.02900
C 	C 	0.91733 0.86935 0.45870 -0.02100
C 	C 	0.91631 0.84836 0.49498 0.10300
C 	C 	0.89016 0.78470 0.49475 -0.05500
N 	N 	0.84000 0.71961 0.38524 -0.01900
H 	H 	0.88994 0.84173 0.39479 0.08300
N 	N 	0.94364 0.89203 0.53207 -0.02100
H 	H 	0.88969 0.76873 0.52267 0.08600
O 	O 	0.66946 0.47582 0.39574 -0.10800
O 	O 	0.63941 0.51101 0.44430 -0.08700
O 	O 	0.98273 0.71736 0.51770 -0.08500
O 	O 	0.98468 0.74537 0.45781 -0.07400
O 	O 	0.92496 0.92728 0.54030 -0.07100
O 	O 	0.98450 0.89402 0.55853 -0.06400
O 	O 	0.79330 0.71051 0.36002 -0.07600
O 	O 	0.86769 0.69352 0.37533 -0.07500
C 	C 	0.86369 0.08282 0.43538 -0.05200
C 	C 	0.90326 0.14525 0.45681 0.01700
C 	C 	0.96609 0.17091 0.47678 0.07300
C 	C 	0.98741 0.13311 0.47682 -0.04400
C 	C 	0.94814 0.07066 0.45530 -0.01600
C 	C 	0.88635 0.04594 0.43362 0.08700
C 	C 	0.87709 0.18204 0.46099 0.03000
N 	N 	0.00853 0.23558 0.49697 -0.01600
H 	H 	0.03508 0.15272 0.49328 0.09000
N 	N 	0.84761 0.98460 0.40864 -0.01400
H 	H 	0.81555 0.06310 0.41968 0.08300
C 	C 	0.86360 0.20332 0.42815 0.05800
C 	C 	0.84086 0.23988 0.43323 0.00100
C 	C 	0.83322 0.25693 0.47101 -0.09100
C 	C 	0.84939 0.23773 0.50407 0.12000
C 	C 	0.86883 0.19861 0.49859 -0.07000
N 	N 	0.87349 0.18845 0.38973 -0.01700
H 	H 	0.82902 0.25484 0.40777 0.06900
N 	N 	0.84906 0.26033 0.54351 -0.02700
H 	H 	0.88000 0.18308 0.52398 0.08700
O 	O 	0.78998 0.94132 0.41465 -0.07300
O 	O 	0.86767 0.97377 0.37789 -0.07200
O 	O 	0.03521 0.24942 0.53417 -0.07700
O 	O 	0.02348 0.28079 0.47756 -0.06900
O 	O 	0.88734 0.32067 0.55823 -0.13800
O 	O 	0.81478 0.22032 0.56587 -0.10700
O 	O 	0.82592 0.15937 0.35936 -0.08800
O 	O 	0.93106 0.20796 0.38455 -0.07700
C 	C 	0.23437 0.08670 0.49560 -0.05700
C 	C 	0.26805 0.12941 0.47051 0.01800
C 	C 	0.23423 0.13924 0.44139 0.07500
C 	C 	0.16710 0.10571 0.43735 -0.03100
C 	C 	0.13346 0.06370 0.46283 -0.02500
C 	C 	0.16759 0.05493 0.49257 0.10100
C 	C 	0.33881 0.16400 0.47493 0.03100
N 	N 	0.26809 0.18382 0.41615 -0.01900
H 	H 	0.14118 0.11289 0.41463 0.08000
N 	N 	0.13511 0.01602 0.52080 -0.02700
H 	H 	0.26038 0.07944 0.51820 0.08400
C 	C 	0.38110 0.21213 0.50831 0.05900
C 	C 	0.44815 0.24734 0.51062 0.00200
C 	C 	0.47337 0.23616 0.47944 -0.08700
C 	C 	0.43118 0.18628 0.44689 0.12100
C 	C 	0.36415 0.15028 0.44493 -0.06900
N 	N 	0.35610 0.22669 0.53928 -0.01700
H 	H 	0.48054 0.28549 0.53578 0.06800
N 	N 	0.45632 0.17238 0.41566 -0.02600
H 	H 	0.33171 0.11226 0.41972 0.08700
O 	O 	0.13546 0.96772 0.52391 -0.05900
O 	O 	0.10934 0.03158 0.54534 -0.06800
O 	O 	0.25170 0.16561 0.37770 -0.08000
O 	O 	0.31222 0.24335 0.43153 -0.07200
O 	O 	0.49805 0.16078 0.42395 -0.11500
O 	O 	0.43469 0.16773 0.37875 -0.09300
O 	O 	0.37151 0.22399 0.57575 -0.08900
O 	O 	0.32219 0.24741 0.53157 -0.07400
C 	C 	0.83583 0.72702 0.96950 -0.05200
C 	C 	0.79706 0.70669 0.99860 0.00300
C 	C 	0.79953 0.75128 0.02620 0.08500
C 	C 	0.84122 0.81574 0.02459 -0.02500
C 	C 	0.87968 0.83602 0.99528 -0.03000
C 	C 	0.87608 0.79114 0.96716 0.10000
C 	C 	0.75480 0.63869 0.00027 0.05100
N 	N 	0.75960 0.73123 0.05578 -0.02000
H 	H 	0.84347 0.85003 0.04606 0.08800
N 	N 	0.91165 0.81033 0.93542 -0.02200
H 	H 	0.83375 0.69272 0.94815 0.08200
C 	C 	0.70253 0.59513 0.96882 0.04800
C 	C 	0.67077 0.53016 0.96681 0.00800
C 	C 	0.68969 0.50821 0.99636 -0.09600
C 	C 	0.73911 0.55155 0.02914 0.13100
C 	C 	0.77143 0.61659 0.03092 -0.07800
N 	N 	0.68239 0.61687 0.93852 -0.01500
H 	H 	0.63161 0.49673 0.94210 0.06700
N 	N 	0.75795 0.52977 0.06005 -0.02700
H 	H 	0.81123 0.64999 0.05532 0.09200
O 	O 	0.95151 0.79653 0.93059 -0.08500
O 	O 	0.90035 0.83701 0.90953 -0.07900
O 	O 	0.78571 0.75525 0.09322 -0.07400
O 	O 	0.69691 0.69227 0.04514 -0.06600
O 	O 	0.78227 0.49963 0.05203 -0.10800
O 	O 	0.75607 0.54490 0.09674 -0.08500
O 	O 	0.67627 0.59648 0.90119 -0.08400
O 	O 	0.66704 0.65454 0.94818 -0.07200
C 	C 	0.82675 0.17011 0.98986 -0.07400
C 	C 	0.79882 0.10542 0.98150 0.03400
C 	C 	0.73106 0.06070 0.96984 0.04900
C 	C 	0.69212 0.08128 0.96616 0.00400
C 	C 	0.72014 0.14604 0.97402 -0.09500
C 	C 	0.78793 0.19072 0.98583 0.12100
C 	C 	0.84064 0.08464 0.98572 0.01300
N 	N 	0.70165 0.99437 0.96170 -0.01000
H 	H 	0.64011 0.04686 0.95682 0.06300
N 	N 	0.81764 0.25713 0.99269 -0.02400
H 	H 	0.87881 0.20454 0.99888 0.08700
C 	C 	0.87689 0.08933 0.95633 0.07300
C 	C 	0.91314 0.06578 0.95968 -0.02200
C 	C 	0.91307 0.03710 0.99192 -0.04600
C 	C 	0.88057 0.03664 0.02271 0.11000
C 	C 	0.84400 0.05977 0.01921 -0.05400
N 	N 	0.87607 0.11693 0.92269 -0.01800
H 	H 	0.93875 0.06702 0.93621 0.07500
N 	N 	0.88472 0.01271 0.05759 -0.02900
H 	H 	0.81795 0.05817 0.04250 0.08400
O 	O 	0.81399 0.28342 0.96354 -0.12900
O 	O 	0.85282 0.29213 0.02720 -0.08400
O 	O 	0.65740 0.95651 0.98100 -0.07500
O 	O 	0.71583 0.97123 0.93315 -0.06800
O 	O 	0.94101 0.03485 0.07812 -0.07800
O 	O 	0.83227 0.97083 0.06982 -0.06400
O 	O 	0.93000 0.16514 0.91537 -0.08500
O 	O 	0.82219 0.09097 0.89775 -0.08200
C 	C 	0.31479 0.07474 0.99129 -0.07800
C 	C 	0.28324 0.09053 0.96545 0.02600
C 	C 	0.31748 0.13302 0.94012 0.06000
C 	C 	0.38355 0.16146 0.94225 -0.00600
C 	C 	0.41657 0.14990 0.97051 -0.09000
C 	C 	0.38124 0.10447 0.99422 0.11800
C 	C 	0.21620 0.06700 0.96771 0.03100
N 	N 	0.28607 0.14977 0.91356 -0.01700
H 	H 	0.40990 0.19488 0.92311 0.06200
N 	N 	0.41322 0.09100 0.02285 -0.01900
H 	H 	0.28827 0.04134 0.01039 0.09000
C 	C 	0.16356 0.00460 0.94975 0.04600
C 	C 	0.10075 0.98182 0.95445 0.01100
C 	C 	0.08995 0.01995 0.97805 -0.06200
C 	C 	0.14285 0.08247 0.99610 0.11200
C 	C 	0.20538 0.10595 0.99015 -0.07500
N 	N 	0.17391 0.96353 0.92777 -0.01000
H 	H 	0.06033 0.93404 0.94009 0.08300
N 	N 	0.13384 0.12111 0.02210 -0.02200
H 	H 	0.24595 0.15380 0.00428 0.09100
O 	O 	0.41616 0.04419 0.01333 -0.07800
O 	O 	0.43470 0.12217 0.05927 -0.09400
O 	O 	0.31000 0.20894 0.91482 -0.08600
O 	O 	0.23568 0.10626 0.88670 -0.07600
O 	O 	0.11624 0.10582 0.05582 -0.07300
O 	O 	0.14874 0.17441 0.01369 -0.07100
O 	O 	0.15243 0.90901 0.93729 -0.07500
O 	O 	0.20093 0.97873 0.89668 -0.06600
