data_crystal

_cell_length_a 27.84396
_cell_length_b 28.78237
_cell_length_c 39.28447
_cell_angle_alpha 60.84631
_cell_angle_beta  118.86348
_cell_angle_gamma 133.17707

_symmetry_space_group_name_	'P 1'
_symmetry_space_group_name_H-M	'P 1'

loop_
_symmetry_equiv_pos_as_xyz
  x,y,z

loop_
_atom_site_label
_atom_site_type_symbol
_atom_site_fract_x
_atom_site_fract_y
_atom_site_fract_z
_atom_site_charge
C 	C 	0.74729 0.32509 0.02348 0.05200
C 	C 	0.78288 0.38739 0.02914 -0.09400
C 	C 	0.74752 0.40485 0.03064 0.05200
C 	C 	0.67693 0.36097 0.02466 -0.09100
C 	C 	0.64386 0.29569 0.02630 0.05300
C 	C 	0.67835 0.27825 0.02415 -0.09300
H 	H 	0.83741 0.42133 0.03301 0.05500
H 	H 	0.64932 0.37478 0.02490 0.05800
H 	H 	0.65237 0.22808 0.02427 0.05500
C 	C 	0.68240 0.29078 0.50064 0.04900
C 	C 	0.61158 0.25307 0.49379 -0.09200
C 	C 	0.58346 0.27216 0.50105 0.05200
C 	C 	0.62258 0.33626 0.50423 -0.09100
C 	C 	0.69206 0.37837 0.50589 0.05100
C 	C 	0.72284 0.35470 0.50591 -0.09200
H 	H 	0.57941 0.20552 0.48748 0.05700
H 	H 	0.59991 0.35197 0.50811 0.05900
H 	H 	0.77739 0.38499 0.51079 0.05300
C 	C 	0.31725 0.68427 0.19568 0.05300
C 	C 	0.38644 0.72122 0.19796 -0.09400
C 	C 	0.41116 0.69318 0.19640 0.05300
C 	C 	0.36587 0.62874 0.19188 -0.09300
C 	C 	0.29602 0.59652 0.18287 0.05500
C 	C 	0.27160 0.62316 0.18618 -0.09500
H 	H 	0.42072 0.77117 0.20114 0.05800
H 	H 	0.38460 0.60640 0.19115 0.05600
H 	H 	0.21753 0.59712 0.18078 0.05600
C 	C 	0.27028 0.61585 0.72893 0.05200
C 	C 	0.23959 0.55299 0.72667 -0.09500
C 	C 	0.27893 0.53850 0.72708 0.05200
C 	C 	0.34909 0.58591 0.73194 -0.09100
C 	C 	0.37761 0.65092 0.72790 0.05300
C 	C 	0.33931 0.66508 0.72901 -0.09300
H 	H 	0.18517 0.51677 0.72273 0.05500
H 	H 	0.37950 0.57478 0.73223 0.05700
H 	H 	0.36166 0.71512 0.72694 0.05700
Co	Co	0.06510 0.01898 0.07146 1.18300
Co	Co	0.03934 0.08664 0.10278 1.18100
C 	C 	0.19026 0.05505 0.06412 0.31700
Co	Co	0.08509 0.91040 0.08607 1.17000
O 	O 	0.05039 0.08771 0.05491 -0.47300
C 	C 	0.88465 0.96951 0.16526 0.31700
C 	C 	0.12589 0.21656 0.12393 0.30700
C 	C 	0.14105 0.89250 0.17402 0.30600
O 	O 	0.11607 0.18746 0.16035 -0.37600
O 	O 	0.11690 0.18538 0.10309 -0.38600
O 	O 	0.15757 0.92764 0.13910 -0.39800
O 	O 	0.09216 0.88192 0.18178 -0.38100
O 	O 	0.06231 0.95184 0.10216 -0.76100
O 	O 	0.15068 0.00034 0.05300 -0.41300
O 	O 	0.16479 0.07639 0.06876 -0.39700
Co	Co	0.02072 0.97576 0.57491 1.18800
C 	C 	0.14232 0.00309 0.56924 0.30900
Co	Co	0.02391 0.85975 0.58215 1.16800
O 	O 	0.02371 0.05448 0.56318 -0.47300
C 	C 	0.81196 0.91432 0.65494 0.30700
C 	C 	0.08684 0.14606 0.65593 0.30600
C 	C 	0.06240 0.82051 0.67049 0.30500
O 	O 	0.84412 0.97833 0.64691 -0.39300
O 	O 	0.05137 0.10317 0.68365 -0.37000
O 	O 	0.07838 0.12808 0.62676 -0.37900
O 	O 	0.08741 0.86037 0.63837 -0.39500
O 	O 	0.02052 0.82027 0.67822 -0.38100
O 	O 	0.00430 0.90141 0.60073 -0.76000
O 	O 	0.09982 0.95035 0.55543 -0.40200
O 	O 	0.12145 0.02072 0.58154 -0.39800
C 	C 	0.04778 0.01395 0.83464 -0.07900
C 	C 	0.00915 0.95543 0.86115 0.03300
C 	C 	0.04708 0.01240 0.79923 0.10800
C 	C 	0.00818 0.95829 0.89790 0.01600
N 	N 	0.09274 0.07161 0.77497 -0.02400
H 	H 	0.07873 0.06076 0.84158 0.08100
C 	C 	0.06922 0.99396 0.92486 0.06900
C 	C 	0.06742 0.00018 0.95744 -0.03300
N 	N 	0.13286 0.02069 0.92065 -0.02400
H 	H 	0.11455 0.02899 0.97727 0.06200
O 	O 	0.12998 0.07245 0.76341 -0.10500
O 	O 	0.83229 0.83441 0.94315 -0.10900
O 	O 	0.18326 0.08187 0.92091 -0.11600
O 	O 	0.14226 0.98244 0.92031 -0.09600
C 	C 	0.00461 0.92604 0.35019 0.05200
C 	C 	0.01685 0.94111 0.31397 -0.00900
N 	N 	0.99745 0.86897 0.38097 -0.01400
H 	H 	0.02274 0.91043 0.31027 0.06200
C 	C 	0.04472 0.99573 0.42099 0.05600
C 	C 	0.03393 0.98903 0.45502 -0.00400
N 	N 	0.11132 0.04375 0.41364 -0.01700
H 	H 	0.07653 0.01883 0.47600 0.04900
O 	O 	0.95262 0.81159 0.37292 -0.11400
O 	O 	0.03873 0.87489 0.41620 -0.10100
O 	O 	0.14506 0.10435 0.41396 -0.11400
O 	O 	0.14049 0.02580 0.41021 -0.10300
C 	C 	0.13439 0.21591 0.65641 -0.10800
C 	C 	0.11557 0.25891 0.62964 0.12700
C 	C 	0.14043 0.31214 0.64131 -0.09900
C 	C 	0.19106 0.32859 0.67651 0.00600
C 	C 	0.21841 0.29206 0.69975 0.06400
C 	C 	0.18831 0.23475 0.69011 -0.01500
N 	N 	0.07408 0.24952 0.59274 -0.20200
H 	H 	0.12129 0.34159 0.62258 0.05700
C 	C 	0.21306 0.38252 0.68941 -0.01100
N 	N 	0.27345 0.31183 0.73099 -0.19100
H 	H 	0.20499 0.20338 0.70979 0.05800
C 	C 	0.19920 0.36770 0.72477 -0.08000
C 	C 	0.21771 0.41739 0.73721 0.08800
C 	C 	0.24627 0.48208 0.71229 -0.03700
C 	C 	0.25426 0.49520 0.67525 -0.06600
C 	C 	0.24267 0.44747 0.66498 0.07400
H 	H 	0.17517 0.31763 0.74305 0.05900
N 	N 	0.20835 0.40272 0.77303 -0.19800
H 	H 	0.27513 0.54451 0.65592 0.04700
N 	N 	0.26255 0.46490 0.63263 -0.19600
H 	H 	0.18755 0.35488 0.79126 0.08700
H 	H 	0.22147 0.43834 0.78318 0.08700
H 	H 	0.28159 0.51220 0.61376 0.08200
H 	H 	0.26289 0.43311 0.62713 0.08800
H 	H 	0.29144 0.28304 0.74901 0.09200
H 	H 	0.30069 0.35716 0.73657 0.08900
C 	C 	0.43909 0.70428 0.71208 -0.03700
C 	C 	0.43695 0.71370 0.67262 0.08700
C 	C 	0.49715 0.74764 0.66228 -0.08000
C 	C 	0.55976 0.77704 0.68951 -0.01300
C 	C 	0.56243 0.77623 0.72676 0.07700
C 	C 	0.50175 0.73774 0.73830 -0.06700
N 	N 	0.37715 0.68972 0.64476 -0.19800
H 	H 	0.49527 0.75091 0.63302 0.05200
C 	C 	0.62180 0.80780 0.67866 0.00700
N 	N 	0.62268 0.81196 0.75140 -0.19500
H 	H 	0.50335 0.73253 0.76803 0.04900
C 	C 	0.64086 0.86178 0.64541 -0.10300
C 	C 	0.69774 0.89061 0.63338 0.13500
C 	C 	0.74132 0.87097 0.65814 -0.11300
C 	C 	0.72074 0.81504 0.69018 -0.02200
C 	C 	0.65969 0.78145 0.69967 0.05900
H 	H 	0.60999 0.87988 0.62803 0.05800
N 	N 	0.70874 0.93492 0.59735 -0.20400
H 	H 	0.75284 0.79835 0.70826 0.04200
N 	N 	0.63760 0.72404 0.72853 -0.19100
H 	H 	0.67895 0.95231 0.58033 0.08900
H 	H 	0.74393 0.94914 0.58481 0.10700
H 	H 	0.66735 0.70658 0.74497 0.08800
H 	H 	0.58965 0.69474 0.73370 0.09000
H 	H 	0.62426 0.80903 0.77947 0.08900
H 	H 	0.66810 0.84485 0.74235 0.09300
H 	H 	0.33232 0.66915 0.65050 0.08400
H 	H 	0.37550 0.69398 0.61630 0.08100
C 	C 	0.22882 0.63231 0.72687 -0.03800
C 	C 	0.20751 0.66724 0.69046 0.08600
C 	C 	0.17852 0.69203 0.69081 -0.07900
C 	C 	0.16866 0.68097 0.72656 -0.01300
C 	C 	0.18606 0.64252 0.76255 0.07400
C 	C 	0.21639 0.61884 0.76235 -0.06700
N 	N 	0.21442 0.67683 0.65513 -0.19800
H 	H 	0.16369 0.72023 0.66314 0.05100
C 	C 	0.14074 0.71072 0.72574 0.00500
N 	N 	0.17476 0.62902 0.79737 -0.19600
H 	H 	0.23189 0.59124 0.79009 0.04700
C 	C 	0.07033 0.67730 0.71512 -0.10000
C 	C 	0.04229 0.71068 0.70276 0.12500
C 	C 	0.08578 0.77908 0.69981 -0.11200
C 	C 	0.15562 0.80985 0.71600 -0.01900
C 	C 	0.18367 0.77626 0.72892 0.05700
H 	H 	0.03733 0.62605 0.71465 0.05600
N 	N 	0.97383 0.67729 0.69273 -0.20300
H 	H 	0.18876 0.86148 0.71567 0.04500
N 	N 	0.25175 0.80755 0.74343 -0.19200
H 	H 	0.94203 0.62783 0.69242 0.08500
H 	H 	0.95160 0.69908 0.68706 0.09900
H 	H 	0.28338 0.85666 0.74445 0.08400
H 	H 	0.27368 0.78300 0.75489 0.08800
H 	H 	0.18843 0.60118 0.82386 0.08300
H 	H 	0.15197 0.64550 0.79850 0.08800
H 	H 	0.23150 0.65533 0.65338 0.08400
H 	H 	0.20056 0.70449 0.62859 0.08300
C 	C 	0.15872 0.28765 0.10956 -0.11300
C 	C 	0.11816 0.31065 0.08539 0.12700
C 	C 	0.13656 0.36651 0.09035 -0.10000
C 	C 	0.19831 0.40310 0.11599 0.00600
C 	C 	0.24527 0.38785 0.13314 0.05900
C 	C 	0.22462 0.32943 0.13021 -0.01500
N 	N 	0.06097 0.27843 0.05816 -0.20300
H 	H 	0.10206 0.38034 0.07524 0.05700
C 	C 	0.20857 0.44939 0.12987 -0.01200
N 	N 	0.30942 0.42827 0.15302 -0.19100
H 	H 	0.25779 0.31393 0.14669 0.04600
C 	C 	0.20312 0.43080 0.16886 -0.08000
C 	C 	0.22397 0.47699 0.18567 0.09000
C 	C 	0.25002 0.54249 0.16285 -0.03900
C 	C 	0.24638 0.55846 0.12215 -0.06500
C 	C 	0.22779 0.51310 0.10564 0.07300
H 	H 	0.18526 0.38098 0.18671 0.05900
N 	N 	0.21988 0.45850 0.22383 -0.19800
H 	H 	0.26402 0.60824 0.10429 0.04800
N 	N 	0.23082 0.53177 0.06714 -0.19600
H 	H 	0.20267 0.41049 0.24105 0.08900
H 	H 	0.23174 0.49098 0.23631 0.08700
H 	H 	0.24537 0.57907 0.04962 0.08300
H 	H 	0.21913 0.49993 0.05423 0.08700
H 	H 	0.34302 0.41543 0.16696 0.08600
H 	H 	0.32729 0.47385 0.15350 0.08700
C 	C 	0.48188 0.73400 0.19308 -0.03600
C 	C 	0.53826 0.77077 0.22143 0.08800
C 	C 	0.60364 0.81243 0.21506 -0.07900
C 	C 	0.61456 0.81041 0.18457 -0.01300
C 	C 	0.55878 0.76711 0.15952 0.07700
C 	C 	0.49298 0.73449 0.16155 -0.06800
N 	N 	0.53047 0.76380 0.25563 -0.19800
H 	H 	0.64646 0.84420 0.23501 0.05600
C 	C 	0.68465 0.85288 0.17969 0.00900
N 	N 	0.56811 0.75517 0.13449 -0.19500
H 	H 	0.45015 0.70662 0.13969 0.04700
C 	C 	0.73352 0.84516 0.21166 -0.10000
C 	C 	0.79870 0.88060 0.20707 0.13700
C 	C 	0.81435 0.92287 0.16938 -0.11300
C 	C 	0.76386 0.92630 0.13675 -0.02100
C 	C 	0.70165 0.89727 0.14254 0.05800
H 	H 	0.72049 0.81078 0.24002 0.06100
N 	N 	0.84529 0.87249 0.23854 -0.20300
H 	H 	0.77409 0.95419 0.10718 0.04400
N 	N 	0.65941 0.91334 0.11292 -0.19200
H 	H 	0.83445 0.84365 0.26676 0.09700
H 	H 	0.67121 0.94409 0.08508 0.08600
H 	H 	0.61684 0.89887 0.11799 0.08900
H 	H 	0.52665 0.72630 0.11439 0.08400
H 	H 	0.61573 0.77044 0.13660 0.09000
H 	H 	0.48489 0.72564 0.26462 0.08700
H 	H 	0.57177 0.79390 0.27512 0.08800
C 	C 	0.17225 0.85802 0.20308 -0.11600
C 	C 	0.24291 0.89207 0.21091 0.13000
C 	C 	0.26843 0.85841 0.21898 -0.10100
C 	C 	0.22429 0.79121 0.22035 0.00600
C 	C 	0.15604 0.75516 0.22072 0.05600
C 	C 	0.13061 0.78911 0.21237 -0.02200
N 	N 	0.28590 0.95739 0.20917 -0.20400
H 	H 	0.32178 0.88533 0.22141 0.05700
C 	C 	0.24643 0.76240 0.21381 -0.01300
N 	N 	0.11437 0.68855 0.22764 -0.19100
H 	H 	0.07697 0.76240 0.20901 0.04600
C 	C 	0.27920 0.73549 0.24692 -0.08100
C 	C 	0.30155 0.70844 0.24176 0.08700
C 	C 	0.29241 0.71011 0.20252 -0.03700
C 	C 	0.25972 0.73707 0.16943 -0.06700
C 	C 	0.23657 0.76331 0.17460 0.07700
H 	H 	0.28669 0.73496 0.27685 0.05200
N 	N 	0.33091 0.68037 0.27453 -0.19800
H 	H 	0.25262 0.73801 0.13947 0.04900
N 	N 	0.20537 0.78960 0.14186 -0.19500
H 	H 	0.33854 0.68050 0.30328 0.08400
H 	H 	0.34520 0.65704 0.27196 0.08600
H 	H 	0.19827 0.78986 0.11311 0.08400
H 	H 	0.18806 0.81016 0.14443 0.08600
H 	H 	0.06344 0.66244 0.22657 0.08000
H 	H 	0.13261 0.66199 0.23538 0.08600
H 	H 	0.26828 0.98257 0.20518 0.09600
H 	H 	0.33781 0.98318 0.21308 0.08500
C 	C 	0.71404 0.26051 0.50633 -0.03500
C 	C 	0.68545 0.19297 0.52545 0.08300
C 	C 	0.70433 0.16229 0.52099 -0.07800
C 	C 	0.76621 0.20014 0.51115 -0.01300
C 	C 	0.79932 0.26912 0.49503 0.07400
C 	C 	0.76974 0.29759 0.49000 -0.06700
N 	N 	0.64675 0.15991 0.55177 -0.19800
H 	H 	0.67777 0.10945 0.53226 0.05000
C 	C 	0.80266 0.16988 0.52751 0.00500
H 	H 	0.79131 0.34884 0.47441 0.04700
C 	C 	0.81672 0.16201 0.50145 -0.10100
C 	C 	0.81409 0.13997 0.56886 0.05500
H 	H 	0.80485 0.18179 0.46941 0.05500
N 	N 	0.81074 0.15381 0.59588 -0.19100
H 	H 	0.81466 0.12816 0.62602 0.07800
H 	H 	0.80936 0.19327 0.58788 0.08600
H 	H 	0.64578 0.18500 0.56339 0.08400
H 	H 	0.62252 0.10931 0.56382 0.08100
C 	C 	0.79844 0.62996 0.59856 0.12500
C 	C 	0.77765 0.58221 0.58297 -0.09500
C 	C 	0.79030 0.60060 0.54621 0.00100
N 	N 	0.79104 0.61263 0.63554 -0.20500
H 	H 	0.75467 0.53154 0.60028 0.05600
C 	C 	0.77499 0.55077 0.53238 -0.00900
C 	C 	0.72659 0.53428 0.49652 -0.08100
C 	C 	0.70952 0.48603 0.48351 0.09000
C 	C 	0.73242 0.44610 0.50975 -0.03700
C 	C 	0.78306 0.46424 0.54477 -0.06500
C 	C 	0.80690 0.51832 0.55534 0.07400
H 	H 	0.70343 0.56017 0.47822 0.05800
N 	N 	0.67064 0.47766 0.44603 -0.19800
H 	H 	0.80259 0.43526 0.56440 0.04500
N 	N 	0.86076 0.53933 0.58696 -0.19500
H 	H 	0.65129 0.50518 0.42736 0.08700
H 	H 	0.66209 0.44607 0.43446 0.09000
H 	H 	0.88190 0.51330 0.60482 0.08200
H 	H 	0.88443 0.58342 0.59278 0.08700
H 	H 	0.80391 0.64686 0.64695 0.09200
H 	H 	0.77079 0.56425 0.65285 0.08400
C 	C 	0.51918 0.22197 0.51403 -0.03600
C 	C 	0.51847 0.20689 0.55397 0.08600
C 	C 	0.45700 0.17145 0.56332 -0.08000
C 	C 	0.39564 0.14422 0.53482 -0.01300
C 	C 	0.39581 0.15284 0.49612 0.07900
C 	C 	0.45790 0.19361 0.48568 -0.06700
N 	N 	0.57648 0.22554 0.58347 -0.19800
H 	H 	0.45671 0.16369 0.59317 0.05200
C 	C 	0.33196 0.10939 0.54534 0.00700
N 	N 	0.33687 0.12159 0.46920 -0.19600
H 	H 	0.45848 0.20356 0.45542 0.05000
C 	C 	0.29729 0.13805 0.52665 -0.09700
C 	C 	0.23658 0.10630 0.53570 0.13500
C 	C 	0.21279 0.04693 0.56610 -0.11100
C 	C 	0.25110 0.02182 0.58733 -0.02900
C 	C 	0.30823 0.05022 0.57574 0.06000
H 	H 	0.31659 0.18428 0.50410 0.06300
N 	N 	0.20085 0.13227 0.51454 -0.20300
H 	H 	0.23294 0.97656 0.61071 0.04700
N 	N 	0.33832 0.01913 0.59272 -0.19600
H 	H 	0.21846 0.17549 0.49177 0.09500
H 	H 	0.15546 0.11013 0.52026 0.09600
H 	H 	0.32211 0.97691 0.61625 0.08800
H 	H 	0.37569 0.03453 0.58159 0.08600
H 	H 	0.33743 0.13018 0.44026 0.09600
H 	H 	0.29033 0.08661 0.47716 0.10400
H 	H 	0.62171 0.24558 0.57852 0.08500
H 	H 	0.57597 0.21690 0.61244 0.08200
C 	C 	0.82997 0.18687 0.02943 0.00500
C 	C 	0.80737 0.12983 0.06116 0.05900
C 	C 	0.83575 0.09576 0.07684 -0.02500
C 	C 	0.82307 0.23778 0.02262 -0.01400
N 	N 	0.76058 0.10915 0.07764 -0.19200
H 	H 	0.82891 0.06073 0.10568 0.04000
C 	C 	0.77630 0.24607 0.98881 -0.08100
C 	C 	0.75761 0.28263 0.98612 0.08600
C 	C 	0.78261 0.30714 0.01912 -0.03700
C 	C 	0.83439 0.30445 0.05102 -0.06800
C 	C 	0.85664 0.27198 0.05229 0.07800
H 	H 	0.75314 0.22274 0.96504 0.05000
N 	N 	0.71606 0.29430 0.95191 -0.19800
H 	H 	0.85583 0.32568 0.07553 0.04700
N 	N 	0.90984 0.27353 0.08201 -0.19500
H 	H 	0.69542 0.27375 0.92833 0.08300
H 	H 	0.70651 0.32632 0.94767 0.08700
H 	H 	0.74630 0.06859 0.10227 0.08400
H 	H 	0.73575 0.13123 0.06503 0.08700
C 	C 	0.85335 0.71200 0.07164 0.13800
C 	C 	0.82645 0.65654 0.06121 -0.10100
C 	C 	0.84811 0.61588 0.08654 0.00900
N 	N 	0.83413 0.75244 0.04589 -0.20500
H 	H 	0.79029 0.64623 0.03280 0.06400
C 	C 	0.82408 0.56163 0.07281 -0.01200
C 	C 	0.84160 0.57688 0.03883 -0.07900
C 	C 	0.81946 0.52674 0.02496 0.09000
C 	C 	0.78400 0.46063 0.04752 -0.03700
C 	C 	0.77181 0.44655 0.08333 -0.06700
C 	C 	0.78555 0.49520 0.09395 0.07500
N 	N 	0.83149 0.54240 0.98985 -0.19800
H 	H 	0.74561 0.39619 0.10096 0.04700
N 	N 	0.76018 0.47769 0.12367 -0.19500
H 	H 	0.81408 0.50643 0.97801 0.08900
H 	H 	0.73449 0.42894 0.14034 0.08200
H 	H 	0.76241 0.51130 0.12907 0.08900
H 	H 	0.85067 0.79200 0.05369 0.11200
H 	H 	0.80028 0.74315 0.01819 0.10700
C 	C 	0.26286 0.09657 0.06617 -0.11700
C 	C 	0.29058 0.15071 0.03388 0.13700
C 	C 	0.35317 0.17628 0.03047 -0.10000
C 	C 	0.38621 0.14619 0.05717 0.00800
C 	C 	0.35902 0.09292 0.08986 0.05700
C 	C 	0.30008 0.07182 0.09542 -0.02300
N 	N 	0.25700 0.17756 0.00576 -0.20500
H 	H 	0.37529 0.21854 0.00627 0.06100
C 	C 	0.45149 0.17372 0.05209 -0.01400
N 	N 	0.38730 0.05994 0.11480 -0.19200
H 	H 	0.27947 0.03133 0.12059 0.04300
C 	C 	0.51085 0.20359 0.08115 -0.08000
C 	C 	0.57400 0.23519 0.07555 0.08700
C 	C 	0.57859 0.24433 0.03816 -0.03700
C 	C 	0.51933 0.21184 0.00987 -0.06700
C 	C 	0.45548 0.17438 0.01720 0.07700
H 	H 	0.50774 0.20149 0.10840 0.05200
N 	N 	0.63004 0.25642 0.10608 -0.19800
H 	H 	0.52283 0.21673 0.98184 0.04800
N 	N 	0.39854 0.13880 0.99102 -0.19600
H 	H 	0.62697 0.25280 0.13286 0.08100
H 	H 	0.67626 0.27348 0.10430 0.08600
H 	H 	0.40182 0.14168 0.96457 0.09100
H 	H 	0.35094 0.10580 0.99748 0.09800
H 	H 	0.36843 0.02242 0.13977 0.08000
H 	H 	0.42568 0.06867 0.10860 0.08600
H 	H 	0.21126 0.16095 0.00787 0.10100
H 	H 	0.27715 0.21640 0.98150 0.09200
C 	C 	0.93678 0.10669 0.08637 0.30700
O 	O 	0.94650 0.07257 0.08019 -0.40900
O 	O 	0.92846 0.01804 0.18358 -0.39500
O 	O 	0.90482 0.95555 0.14958 -0.41300
O 	O 	0.94541 0.82962 0.11487 -0.40200
C 	C 	0.91473 0.09232 0.57985 0.30900
O 	O 	0.91494 0.05205 0.57280 -0.40600
O 	O 	0.83365 0.89049 0.64881 -0.40000
O 	O 	0.87908 0.78439 0.60354 -0.39800
C 	C 	0.00076 0.95294 0.78730 -0.08900
N 	N 	0.88062 0.89394 0.94781 -0.02400
H 	H 	0.89922 0.90345 0.88338 0.07800
O 	O 	0.86919 0.92272 0.95715 -0.10300
N 	N 	0.84651 0.86033 0.44102 -0.02500
O 	O 	0.95767 0.08123 0.23490 -0.13400
O 	O 	0.82763 0.87883 0.45359 -0.10200
O 	O 	0.80204 0.80563 0.42969 -0.11800
H 	H 	0.89158 0.89262 0.23500 0.09900
N 	N 	0.85948 0.30827 0.48503 -0.19600
C 	C 	0.84861 0.13073 0.51694 0.12500
C 	C 	0.85888 0.10024 0.55854 -0.11700
C 	C 	0.83235 0.09804 0.58242 -0.02100
N 	N 	0.86829 0.12979 0.49179 -0.20700
H 	H 	0.83702 0.07248 0.61379 0.03300
H 	H 	0.86238 0.15410 0.46146 0.08500
H 	H 	0.88775 0.10352 0.50173 0.09900
H 	H 	0.88271 0.35870 0.47270 0.08200
H 	H 	0.88464 0.28972 0.49020 0.08600
C 	C 	0.82903 0.69603 0.57606 -0.10700
C 	C 	0.81523 0.66578 0.52236 0.06900
C 	C 	0.82566 0.70986 0.53580 -0.02800
N 	N 	0.83447 0.68775 0.48858 -0.19400
H 	H 	0.83666 0.65939 0.48088 0.09500
C 	C 	0.88227 0.11483 0.05932 -0.11400
C 	C 	0.89180 0.16195 0.02202 0.12600
C 	C 	0.86801 0.19980 0.00820 -0.10100
H 	H 	0.88160 0.24088 0.98206 0.05500
H 	H 	0.93259 0.29652 0.10474 0.08600
H 	H 	0.93104 0.25466 0.08180 0.09100
C 	C 	0.90127 0.72573 0.10846 -0.11900
C 	C 	0.89236 0.62735 0.12464 0.05600
C 	C 	0.91233 0.67811 0.13659 -0.01600
N 	N 	0.91863 0.59244 0.14881 -0.19000
H 	H 	0.87114 0.62776 0.02258 0.06000
H 	H 	0.85803 0.59136 0.97362 0.09400
H 	H 	0.91373 0.56188 0.13845 0.08800
Co	Co	0.02558 0.90779 0.14108 1.18600
O 	O 	0.05962 0.01008 0.13038 -0.57900
O 	O 	0.07314 0.07755 0.22653 -0.36400
O 	O 	0.99867 0.95573 0.63087 -0.57600
O 	O 	0.97646 0.92574 0.72838 -0.37700
O 	O 	0.10095 0.12584 0.76708 -0.11700
N 	N 	0.01463 0.08903 0.25684 -0.03200
C 	C 	0.91418 0.90328 0.43571 0.11300
C 	C 	0.92500 0.90975 0.40164 -0.07500
H 	H 	0.88236 0.88100 0.38016 0.07500
H 	H 	0.06299 0.21677 0.58095 0.10000
H 	H 	0.05628 0.27842 0.57432 0.08700
H 	H 	0.04991 0.24061 0.05149 0.09300
H 	H 	0.02895 0.29331 0.04187 0.08700
N 	N 	0.92559 0.17255 0.00019 -0.20700
H 	H 	0.94588 0.68665 0.16583 0.04000
H 	H 	0.94806 0.59876 0.17770 0.08100
O 	O 	0.03440 0.05761 0.15090 -0.76000
O 	O 	0.87323 0.78820 0.86990 -0.11200
H 	H 	0.84112 0.75847 0.51678 0.07100
H 	H 	0.85275 0.73588 0.47130 0.10700
H 	H 	0.93540 0.20958 0.97363 0.08400
C 	C 	0.88648 0.74884 0.59709 0.31000
C 	C 	0.04241 0.01616 0.24630 0.29200
H 	H 	0.94020 0.14261 0.00865 0.09400
C 	C 	0.00566 0.96397 0.96695 -0.07900
C 	C 	0.95626 0.79437 0.11122 0.31800
H 	H 	0.99660 0.05106 0.32837 0.07400
N 	N 	0.93725 0.83391 0.88066 -0.01500
O 	O 	0.97889 0.13904 0.11455 -0.40900
O 	O 	0.95376 0.11192 0.61293 -0.41600
O 	O 	0.98030 0.89153 0.17750 -0.46800
Co	Co	0.93277 0.91992 0.66822 1.18700
Co	Co	0.94713 0.04300 0.66723 1.16500
O 	O 	0.91463 0.83547 0.67366 -0.46700
O 	O 	0.93659 0.97748 0.72308 -0.40100
H 	H 	0.93126 0.84759 0.80655 0.05500
C 	C 	0.94452 0.92935 0.93972 0.11300
C 	C 	0.94620 0.92838 0.90478 -0.06500
C 	C 	0.00627 0.94738 0.00920 0.30400
O 	O 	0.01839 0.81660 0.11624 -0.41000
C 	C 	0.01380 0.03522 0.28841 0.11000
C 	C 	0.00250 0.02045 0.32455 -0.07600
Co	Co	0.96046 0.85375 0.63669 1.18600
Co	Co	0.99405 0.04188 0.60697 1.18100
O 	O 	0.97165 0.82276 0.91668 -0.10000
O 	O 	0.94710 0.76509 0.60525 -0.41000
C 	C 	0.97072 0.89468 0.85214 0.05000
O 	O 	0.07084 0.14804 0.25567 -0.12000
O 	O 	0.00074 0.97979 0.02068 -0.37400
O 	O 	0.00828 0.89740 0.03458 -0.38200
O 	O 	0.95660 0.86307 0.52782 -0.38900
C 	C 	0.97355 0.95540 0.74394 0.32000
C 	C 	0.99908 0.96707 0.35578 0.03300
C 	C 	0.99017 0.95501 0.39442 0.02600
Co	Co	0.99971 0.97710 0.17098 1.18500
Co	Co	0.02243 0.10396 0.17097 1.17700
O 	O 	0.02613 0.97188 0.23257 -0.37400
O 	O 	0.96558 0.99995 0.64916 -0.75500
C 	C 	0.96506 0.91905 0.50537 0.31100
O 	O 	0.96411 0.95279 0.51877 -0.37900
C 	C 	0.96534 0.89389 0.81480 -0.00100
C 	C 	0.02321 0.99655 0.28320 -0.08000
C 	C 	0.96972 0.94094 0.46365 -0.09300
