data_crystal

_cell_length_a 25.93930
_cell_length_b 26.59868
_cell_length_c 34.65664
_cell_angle_alpha 95.48704
_cell_angle_beta  95.48419
_cell_angle_gamma 125.83245

_symmetry_space_group_name_	'P 1'
_symmetry_space_group_name_H-M	'P 1'

loop_
_symmetry_equiv_pos_as_xyz
  x,y,z

loop_
_atom_site_label
_atom_site_type_symbol
_atom_site_fract_x
_atom_site_fract_y
_atom_site_fract_z
_atom_site_charge
C 	C 	0.94917 0.02534 0.99012 0.14400
N 	N 	0.01317 0.05938 0.98848 -0.12300
C 	C 	0.04408 0.03235 0.99150 0.15600
N 	N 	0.01056 0.97080 0.99497 -0.11300
C 	C 	0.94692 0.93708 0.99716 0.15300
N 	N 	0.91659 0.96467 0.99543 -0.11900
C 	C 	0.94169 0.98969 0.46078 0.15800
N 	N 	0.91063 0.92867 0.46539 -0.12500
C 	C 	0.94360 0.90354 0.46789 0.14900
N 	N 	0.00701 0.93902 0.46477 -0.11800
C 	C 	0.03810 0.99997 0.46054 0.17100
N 	N 	0.00540 0.02520 0.45836 -0.12700
Cu	Cu	0.62433 0.24291 0.99814 0.93300
Cu	Cu	0.67552 0.25567 0.91456 0.87800
Cu	Cu	0.66693 0.35206 0.95482 0.90000
Cu	Cu	0.63978 0.36463 0.03594 0.90200
C 	C 	0.65014 0.28186 0.08194 0.29800
O 	O 	0.53310 0.21446 1.00000 -0.34000
C 	C 	0.64397 0.31955 0.86727 0.30000
O 	O 	0.68421 0.34226 0.00765 -0.63500
O 	O 	0.61741 0.25847 0.94397 -0.64000
O 	O 	0.65773 0.19271 0.98876 -0.34900
O 	O 	0.73354 0.26481 0.95725 -0.43000
O 	O 	0.62291 0.31029 0.07613 -0.37200
O 	O 	0.71971 0.44289 0.96831 -0.37500
C 	C 	0.71276 0.47552 0.99567 0.31500
C 	C 	0.51351 0.24746 0.98853 0.30200
O 	O 	0.55623 0.30789 0.98844 -0.38400
O 	O 	0.68971 0.45355 0.02746 -0.36700
O 	O 	0.64565 0.24312 0.05267 -0.33900
C 	C 	0.71352 0.21899 0.97717 0.31200
O 	O 	0.66293 0.36236 0.89912 -0.37300
O 	O 	0.63763 0.26705 0.86959 -0.40900
H 	H 	0.73070 0.36539 0.01891 0.17500
H 	H 	0.57291 0.23581 0.92883 0.19100
Cu	Cu	0.74788 0.33375 0.45229 0.93100
Cu	Cu	0.75132 0.29351 0.53888 0.88300
Cu	Cu	0.64479 0.29826 0.50304 0.90300
Cu	Cu	0.62596 0.32908 0.42363 0.90100
C 	C 	0.69621 0.30731 0.36969 0.29700
O 	O 	0.78426 0.42510 0.45077 -0.35000
C 	C 	0.69147 0.32630 0.58951 0.30200
O 	O 	0.64706 0.28176 0.44840 -0.63800
O 	O 	0.74066 0.34475 0.50831 -0.63700
O 	O 	0.79606 0.29649 0.45668 -0.34500
O 	O 	0.73386 0.23125 0.49696 -0.42500
O 	O 	0.67102 0.33714 0.37839 -0.37200
O 	O 	0.55128 0.24933 0.49393 -0.35700
C 	C 	0.51545 0.25056 0.46474 0.31100
C 	C 	0.75625 0.44961 0.46435 0.30100
O 	O 	0.69555 0.41229 0.46838 -0.36800
O 	O 	0.54180 0.29277 0.44156 -0.37700
O 	O 	0.73783 0.30977 0.39653 -0.35200
C 	C 	0.77432 0.24614 0.47257 0.30800
O 	O 	0.64153 0.29884 0.55995 -0.37500
O 	O 	0.74591 0.33573 0.58413 -0.40300
H 	H 	0.62009 0.23634 0.43639 0.17600
H 	H 	0.76569 0.38922 0.52198 0.18800
C 	C 	0.68160 0.33382 0.63036 -0.10500
C 	C 	0.65273 0.36330 0.64159 0.14000
C 	C 	0.63965 0.36468 0.67998 -0.09600
C 	C 	0.65819 0.34050 0.70781 0.00600
C 	C 	0.68844 0.31244 0.69686 0.06500
C 	C 	0.69957 0.30921 0.65821 -0.01800
N 	N 	0.63969 0.39225 0.61634 -0.20200
H 	H 	0.61681 0.38642 0.68858 0.07000
C 	C 	0.64648 0.34542 0.74854 0.00400
N 	N 	0.70657 0.28821 0.72318 -0.19100
H 	H 	0.72154 0.28657 0.64960 0.04400
C 	C 	0.58934 0.29473 0.75815 -0.09400
C 	C 	0.58433 0.28922 0.79775 0.13700
C 	C 	0.63804 0.33446 0.82794 -0.10500
C 	C 	0.69148 0.38932 0.81850 -0.02100
C 	C 	0.69612 0.39540 0.77893 0.06900
H 	H 	0.54997 0.25802 0.73477 0.06900
N 	N 	0.52797 0.24078 0.80665 -0.20200
H 	H 	0.73136 0.42555 0.84183 0.05500
N 	N 	0.74890 0.44839 0.77030 -0.19200
H 	H 	0.48929 0.20613 0.78419 0.10400
H 	H 	0.52110 0.23862 0.83582 0.10700
H 	H 	0.78639 0.48416 0.79289 0.10100
H 	H 	0.75239 0.45541 0.74126 0.10100
H 	H 	0.72910 0.26784 0.71479 0.09400
H 	H 	0.69847 0.28906 0.75207 0.09500
H 	H 	0.65520 0.39828 0.58935 0.11400
H 	H 	0.61627 0.41180 0.62442 0.10800
C 	C 	0.67044 0.28049 0.12287 -0.09300
C 	C 	0.70958 0.33666 0.15167 0.13000
C 	C 	0.71620 0.33279 0.19172 -0.08900
C 	C 	0.68848 0.27420 0.20323 0.00400
C 	C 	0.65578 0.21867 0.17410 0.07300
C 	C 	0.64568 0.22215 0.13419 -0.01500
N 	N 	0.74197 0.39428 0.14101 -0.20000
H 	H 	0.74295 0.37551 0.21402 0.06800
C 	C 	0.68886 0.27110 0.24576 0.00400
N 	N 	0.63446 0.16219 0.18420 -0.19200
H 	H 	0.61734 0.17921 0.11203 0.07100
C 	C 	0.63140 0.24709 0.26015 -0.09100
C 	C 	0.63188 0.25230 0.30088 0.13100
C 	C 	0.69164 0.28628 0.32765 -0.09800
C 	C 	0.74842 0.30643 0.31327 -0.01800
C 	C 	0.74726 0.29777 0.27247 0.07000
H 	H 	0.58625 0.22466 0.23958 0.06800
N 	N 	0.57493 0.22358 0.31409 -0.20100
H 	H 	0.79392 0.33044 0.33376 0.06400
N 	N 	0.80210 0.31487 0.25919 -0.19200
H 	H 	0.53125 0.20101 0.29425 0.10100
H 	H 	0.57311 0.22040 0.34380 0.08500
H 	H 	0.84557 0.33654 0.27905 0.10400
H 	H 	0.80160 0.30468 0.22924 0.10300
H 	H 	0.60858 0.12109 0.16265 0.10600
H 	H 	0.64543 0.15887 0.21320 0.10300
H 	H 	0.74414 0.39883 0.11150 0.08200
H 	H 	0.76839 0.43548 0.16250 0.09900
C 	C 	0.78992 0.51851 0.46991 -0.09700
C 	C 	0.78221 0.55017 0.50125 0.15000
C 	C 	0.80439 0.61261 0.50190 -0.08600
C 	C 	0.83692 0.64494 0.47258 0.02900
C 	C 	0.84955 0.61512 0.44321 0.08500
C 	C 	0.82518 0.55191 0.44164 -0.01000
H 	H 	0.79702 0.63627 0.52552 0.08900
C 	C 	0.85993 0.71090 0.47380 0.01300
H 	H 	0.83255 0.52840 0.41793 0.07300
C 	C 	0.91391 0.75942 0.50203 -0.06400
C 	C 	0.93850 0.82242 0.50236 0.11200
C 	C 	0.91054 0.83754 0.47316 -0.02400
C 	C 	0.85424 0.78874 0.44638 -0.04100
C 	C 	0.82828 0.72554 0.44697 0.10400
H 	H 	0.93680 0.74817 0.52375 0.08100
H 	H 	0.83151 0.79991 0.42448 0.08200
Br	Br	0.90071 0.66016 0.40537 -0.19300
Br	Br	0.74657 0.51102 0.54507 -0.24600
Br	Br	0.00764 0.88662 0.54434 -0.15800
Br	Br	0.74953 0.65996 0.41114 -0.19000
C 	C 	0.90672 0.01766 0.45861 -0.03700
C 	C 	0.88781 0.03154 0.49239 0.12400
C 	C 	0.86257 0.06582 0.49120 -0.06800
C 	C 	0.85656 0.08703 0.45670 0.01500
C 	C 	0.87399 0.07185 0.42267 0.09900
C 	C 	0.89873 0.03714 0.42374 -0.03700
H 	H 	0.84906 0.07730 0.51742 0.08300
C 	C 	0.83571 0.12826 0.45722 0.02800
H 	H 	0.91323 0.02661 0.39769 0.07600
C 	C 	0.88192 0.19369 0.46969 -0.08400
C 	C 	0.86273 0.23313 0.47335 0.14600
C 	C 	0.79654 0.20707 0.46397 -0.10100
C 	C 	0.75056 0.14178 0.45036 -0.00900
C 	C 	0.76978 0.10235 0.44709 0.08300
H 	H 	0.93272 0.21377 0.47746 0.08900
H 	H 	0.69963 0.12146 0.44311 0.06600
Br	Br	0.86558 0.09924 0.37475 -0.19100
Br	Br	0.89953 0.00732 0.54103 -0.18800
Br	Br	0.92729 0.32168 0.49379 -0.23000
Br	Br	0.70522 0.01311 0.42943 -0.19000
C 	C 	0.10790 0.03957 0.46074 -0.03700
C 	C 	0.15265 0.07246 0.49656 0.12700
C 	C 	0.21899 0.10668 0.49652 -0.06600
C 	C 	0.24122 0.10919 0.46092 0.01600
C 	C 	0.19648 0.07717 0.42502 0.09900
C 	C 	0.13008 0.04237 0.42512 -0.03400
H 	H 	0.25333 0.13162 0.52416 0.08700
C 	C 	0.31139 0.14550 0.46149 0.02900
H 	H 	0.09570 0.01722 0.39750 0.07900
C 	C 	0.34010 0.11430 0.46088 -0.08200
C 	C 	0.40661 0.14800 0.46148 0.14900
C 	C 	0.44523 0.21391 0.46356 -0.09400
C 	C 	0.41638 0.24502 0.46418 -0.00800
C 	C 	0.34978 0.21115 0.46301 0.08300
H 	H 	0.31054 0.06367 0.45944 0.09100
H 	H 	0.44581 0.29567 0.46571 0.07200
Br	Br	0.22524 0.08091 0.37563 -0.18700
Br	Br	0.12402 0.07164 0.54573 -0.17000
Br	Br	0.44295 0.10266 0.45717 -0.22700
Br	Br	0.31191 0.25523 0.46303 -0.18500
C 	C 	0.90961 0.86948 0.99755 -0.03100
C 	C 	0.90925 0.84787 0.03309 0.12500
C 	C 	0.87504 0.78315 0.03263 -0.06100
C 	C 	0.84137 0.73981 0.99692 0.01100
C 	C 	0.84062 0.76140 0.96149 0.10200
C 	C 	0.87463 0.82607 0.96198 -0.03800
H 	H 	0.87524 0.76655 0.05998 0.08600
C 	C 	0.80865 0.67217 0.99669 0.03100
H 	H 	0.87443 0.84267 0.93464 0.08500
C 	C 	0.74303 0.63333 0.99943 -0.08600
C 	C 	0.71089 0.56873 0.99847 0.15000
C 	C 	0.74492 0.54278 0.99537 -0.09600
C 	C 	0.81058 0.58173 0.99261 -0.00600
C 	C 	0.84252 0.64617 0.99326 0.08200
H 	H 	0.71679 0.65324 0.00177 0.09500
H 	H 	0.83698 0.56197 0.99030 0.06500
Br	Br	0.79432 0.70328 0.91212 -0.19100
Br	Br	0.95475 0.90599 0.08248 -0.17800
Br	Br	0.61986 0.51627 0.99943 -0.21300
Br	Br	0.93234 0.69796 0.98919 -0.19700
C 	C 	0.74765 0.19008 0.97987 -0.10900
C 	C 	0.75474 0.16843 0.01422 0.15600
C 	C 	0.78694 0.14078 0.01550 -0.08200
C 	C 	0.81554 0.13783 0.98386 0.02800
C 	C 	0.81043 0.16138 0.95019 0.07900
C 	C 	0.77559 0.18613 0.94803 -0.00700
H 	H 	0.79130 0.12313 0.04159 0.09100
C 	C 	0.84987 0.10912 0.98589 0.01000
H 	H 	0.77071 0.20290 0.92162 0.04500
C 	C 	0.82123 0.04942 0.96308 -0.06300
C 	C 	0.85461 0.02307 0.96259 0.11900
C 	C 	0.91567 0.05473 0.98732 -0.03100
C 	C 	0.94412 0.11434 0.01034 -0.03700
C 	C 	0.91197 0.14198 0.00930 0.10100
H 	H 	0.77387 0.02451 0.94455 0.08500
H 	H 	0.99125 0.13917 0.02913 0.08200
Br	Br	0.85260 0.16211 0.90737 -0.20300
Br	Br	0.72642 0.18117 0.06094 -0.21300
Br	Br	0.81871 0.94709 0.92520 -0.19000
Br	Br	0.95440 0.22539 0.03916 -0.19400
C 	C 	0.11329 0.06905 0.98982 -0.03300
C 	C 	0.15787 0.07725 0.02118 0.12500
C 	C 	0.22253 0.10763 0.01766 -0.06100
C 	C 	0.24376 0.13163 0.98356 0.01200
C 	C 	0.19971 0.12521 0.95270 0.10000
C 	C 	0.13471 0.09385 0.95591 -0.03700
H 	H 	0.25661 0.11339 0.04170 0.08600
C 	C 	0.31236 0.16405 0.98072 0.02900
H 	H 	0.10068 0.08807 0.93184 0.08300
C 	C 	0.33114 0.13060 0.96066 -0.08300
C 	C 	0.39674 0.15858 0.96117 0.15100
C 	C 	0.44425 0.22001 0.98300 -0.10000
C 	C 	0.42517 0.25438 0.00153 -0.00400
C 	C 	0.35960 0.22682 0.00031 0.08400
H 	H 	0.29473 0.08273 0.94480 0.09200
H 	H 	0.46139 0.30205 0.01776 0.06500
Br	Br	0.22760 0.15946 0.90617 -0.18600
Br	Br	0.13220 0.05043 0.06988 -0.17100
Br	Br	0.42006 0.11364 0.92995 -0.23400
Br	Br	0.33540 0.27548 0.02578 -0.18000
