data_crystal

_cell_length_a 31.95345
_cell_length_b 28.35486
_cell_length_c 19.35629
_cell_angle_alpha 92.68025
_cell_angle_beta  85.31625
_cell_angle_gamma 124.34200

_symmetry_space_group_name_	'P 1'
_symmetry_space_group_name_H-M	'P 1'

loop_
_symmetry_equiv_pos_as_xyz
  x,y,z

loop_
_atom_site_label
_atom_site_type_symbol
_atom_site_fract_x
_atom_site_fract_y
_atom_site_fract_z
_atom_site_charge
C 	C 	0.89353 0.81089 0.98044 -0.04000
C 	C 	0.93678 0.84534 0.93577 -0.02600
C 	C 	0.96491 0.90480 0.94211 -0.06000
C 	C 	0.94933 0.93043 0.99234 0.01400
C 	C 	0.90586 0.89595 0.03624 -0.02500
C 	C 	0.87824 0.83653 0.03069 0.00700
N 	N 	0.97826 0.99160 0.00091 -0.11500
C 	C 	0.93338 0.07618 0.88168 -0.01200
C 	C 	0.94104 0.08846 0.95248 -0.00800
C 	C 	0.95725 0.06170 0.99067 -0.11700
C 	C 	0.96554 0.02200 0.95897 0.06700
C 	C 	0.95932 0.01088 0.88752 -0.07000
C 	C 	0.94299 0.03758 0.84934 -0.02500
C 	C 	0.13463 0.07232 0.03278 0.03500
C 	C 	0.11971 0.07068 0.96603 -0.06100
C 	C 	0.06837 0.04402 0.95494 -0.10300
C 	C 	0.03143 0.01884 0.01079 0.12000
C 	C 	0.04656 0.02066 0.07734 -0.07000
C 	C 	0.09788 0.04728 0.08836 -0.02900
C 	C 	0.85303 0.13974 0.80781 0.02400
C 	C 	0.83747 0.08361 0.79141 -0.04100
C 	C 	0.86608 0.06352 0.81013 -0.03800
C 	C 	0.91131 0.10017 0.84323 0.01200
C 	C 	0.93085 0.15860 0.84865 -0.04000
C 	C 	0.90155 0.17824 0.83155 -0.04200
C 	C 	0.80918 0.62826 0.97418 0.03100
C 	C 	0.78453 0.65578 0.96759 -0.04600
C 	C 	0.81224 0.71540 0.96793 -0.04400
C 	C 	0.86479 0.74798 0.97562 0.01300
C 	C 	0.88951 0.72031 0.98128 -0.04300
C 	C 	0.86186 0.66069 0.97987 -0.05200
C 	C 	0.29182 0.14576 0.05660 0.02300
C 	C 	0.25580 0.08734 0.06891 -0.03300
C 	C 	0.20433 0.06359 0.06256 -0.03100
C 	C 	0.18847 0.09811 0.04392 0.00400
C 	C 	0.22430 0.15694 0.03407 -0.03000
C 	C 	0.27581 0.18073 0.04069 -0.03700
H 	H 	0.94870 0.82603 0.89642 0.03300
H 	H 	0.99863 0.93083 0.90815 0.04000
H 	H 	0.89386 0.91536 0.07527 0.04800
H 	H 	0.84521 0.81037 0.06585 0.04100
H 	H 	0.93304 0.11752 0.97837 0.02800
H 	H 	0.96217 0.07070 0.04549 0.08700
H 	H 	0.96734 0.98200 0.86158 0.04500
H 	H 	0.93675 0.02737 0.79507 0.03700
H 	H 	0.14783 0.08939 0.92266 0.03600
H 	H 	0.05733 0.04218 0.90305 0.05100
H 	H 	0.01839 0.00141 0.12054 0.05500
H 	H 	0.10909 0.04830 0.14004 0.03900
H 	H 	0.80153 0.05453 0.76868 0.03900
H 	H 	0.85147 0.01876 0.80306 0.03900
H 	H 	0.96705 0.18794 0.87070 0.03700
H 	H 	0.91483 0.22232 0.84181 0.04300
H 	H 	0.74393 0.63096 0.96228 0.04200
H 	H 	0.79287 0.73629 0.96269 0.03500
H 	H 	0.93000 0.74497 0.98749 0.03400
H 	H 	0.88126 0.63969 0.98389 0.03400
H 	H 	0.26791 0.06009 0.08135 0.05100
H 	H 	0.17688 0.01817 0.07057 0.04500
H 	H 	0.21231 0.18400 0.02029 0.04700
H 	H 	0.30342 0.22592 0.03121 0.05000
C 	C 	0.92847 0.85460 0.62361 -0.00400
C 	C 	0.96663 0.89602 0.57746 -0.02500
C 	C 	0.99087 0.95402 0.59311 -0.07000
C 	C 	0.97656 0.97134 0.65488 0.07800
C 	C 	0.93875 0.92982 0.70113 -0.07000
C 	C 	0.91501 0.87177 0.68585 -0.02600
N 	N 	0.00107 0.03123 0.67205 -0.14400
C 	C 	0.93952 0.11715 0.59574 -0.00400
C 	C 	0.96348 0.13401 0.65826 -0.02500
C 	C 	0.98415 0.10609 0.68236 -0.06800
C 	C 	0.98009 0.06012 0.64509 0.07700
C 	C 	0.95609 0.04346 0.58194 -0.07100
C 	C 	0.93595 0.07187 0.55770 -0.02500
C 	C 	0.16191 0.11814 0.65573 -0.00500
C 	C 	0.13697 0.11983 0.60041 -0.02500
C 	C 	0.08438 0.09311 0.60625 -0.07100
C 	C 	0.05592 0.06345 0.66729 0.07800
C 	C 	0.08104 0.06303 0.72312 -0.06900
C 	C 	0.13380 0.09039 0.71755 -0.02600
C 	C 	0.87655 0.20063 0.51523 0.02500
C 	C 	0.85293 0.16559 0.57400 -0.04600
C 	C 	0.87394 0.13904 0.60096 -0.03900
C 	C 	0.91876 0.14739 0.56946 0.01000
C 	C 	0.94273 0.18300 0.51123 -0.03800
C 	C 	0.92177 0.20964 0.48431 -0.03900
C 	C 	0.85036 0.67842 0.56469 0.02500
C 	C 	0.82299 0.70276 0.58206 -0.04000
C 	C 	0.84838 0.76003 0.60219 -0.03800
C 	C 	0.90138 0.79335 0.60556 0.00900
C 	C 	0.92865 0.76864 0.58921 -0.03800
C 	C 	0.90325 0.71150 0.56834 -0.04500
C 	C 	0.32053 0.18836 0.61757 0.02700
C 	C 	0.28719 0.13204 0.64133 -0.04300
C 	C 	0.23564 0.10963 0.65617 -0.03900
C 	C 	0.21715 0.14358 0.64776 0.00800
C 	C 	0.25103 0.20067 0.62661 -0.03800
C 	C 	0.30238 0.22276 0.61093 -0.04600
H 	H 	0.97700 0.88326 0.52897 0.03600
H 	H 	0.01950 0.98536 0.55637 0.04700
H 	H 	0.92764 0.94252 0.74880 0.04700
H 	H 	0.88596 0.84014 0.72219 0.03600
H 	H 	0.96645 0.16904 0.68791 0.03800
H 	H 	0.00336 0.12010 0.73011 0.04900
H 	H 	0.95364 0.00942 0.55106 0.05000
H 	H 	0.91768 0.05880 0.50915 0.03800
H 	H 	0.15822 0.14086 0.55235 0.03600
H 	H 	0.06557 0.09366 0.56257 0.04900
H 	H 	0.05949 0.04066 0.77039 0.04600
H 	H 	0.15272 0.08946 0.76091 0.03300
H 	H 	0.81794 0.15829 0.59811 0.04100
H 	H 	0.85494 0.11120 0.64546 0.04000
H 	H 	0.97741 0.18974 0.48666 0.04200
H 	H 	0.94047 0.23697 0.43926 0.05100
H 	H 	0.78212 0.67747 0.57917 0.04700
H 	H 	0.82699 0.77873 0.61421 0.04000
H 	H 	0.96950 0.79382 0.59213 0.03900
H 	H 	0.92464 0.69297 0.55497 0.04100
H 	H 	0.30095 0.10524 0.64669 0.04500
H 	H 	0.20988 0.06550 0.67233 0.03900
H 	H 	0.23733 0.22748 0.62078 0.03900
H 	H 	0.32794 0.26635 0.59270 0.04300
Co	Co	0.69569 0.27842 0.93487 1.17400
O 	O 	0.74961 0.27895 0.86485 -0.37400
Co	Co	0.59486 0.27852 0.99831 1.16200
O 	O 	0.62837 0.25734 0.90009 -0.47700
O 	O 	0.65799 0.35257 0.01827 -0.38800
O 	O 	0.68728 0.19985 0.90492 -0.36000
C 	C 	0.69627 0.38263 0.97169 0.31100
O 	O 	0.59284 0.30272 0.89591 -0.36900
C 	C 	0.50141 0.22170 0.04721 0.28700
C 	C 	0.66312 0.25631 0.06948 0.33000
O 	O 	0.53727 0.27241 0.06582 -0.34500
O 	O 	0.51914 0.20236 0.00036 -0.32800
O 	O 	0.70781 0.27396 0.04100 -0.34100
O 	O 	0.63062 0.24111 0.02311 -0.44100
O 	O 	0.72139 0.36154 0.94065 -0.51900
C 	C 	0.72763 0.22439 0.86337 0.31000
C 	C 	0.62022 0.28751 0.86260 0.32800
H 	H 	0.75619 0.38872 0.91669 0.17300
Co	Co	0.72796 0.34383 0.44646 1.18500
O 	O 	0.78787 0.34178 0.39781 -0.37800
Co	Co	0.62222 0.34146 0.47728 1.18300
O 	O 	0.66124 0.30945 0.40024 -0.46300
O 	O 	0.67901 0.42364 0.48369 -0.41500
O 	O 	0.72717 0.26805 0.44953 -0.34400
C 	C 	0.72822 0.44593 0.47096 0.34900
O 	O 	0.62222 0.34467 0.36678 -0.34700
C 	C 	0.52918 0.28520 0.52556 0.30800
C 	C 	0.69152 0.34371 0.57657 0.30700
O 	O 	0.56201 0.33916 0.53286 -0.37300
O 	O 	0.54825 0.26165 0.48912 -0.34600
O 	O 	0.73735 0.36046 0.55477 -0.34900
O 	O 	0.66044 0.31673 0.52814 -0.46200
O 	O 	0.74471 0.42115 0.42768 -0.53400
C 	C 	0.77070 0.29018 0.41567 0.31000
C 	C 	0.65300 0.32952 0.34820 0.32000
H 	H 	0.77646 0.44593 0.39647 0.18200
C 	C 	0.63752 0.30022 0.78925 -0.12800
C 	C 	0.60560 0.29749 0.74082 0.15300
C 	C 	0.62435 0.31408 0.67206 -0.05600
C 	C 	0.67409 0.33142 0.65056 -0.10500
C 	C 	0.70625 0.33524 0.69983 0.14100
C 	C 	0.68715 0.31790 0.76807 -0.03800
H 	H 	0.59998 0.31292 0.63536 0.04600
H 	H 	0.71201 0.32139 0.80549 0.03100
O 	O 	0.55727 0.28277 0.76179 -0.19500
O 	O 	0.75545 0.35225 0.68035 -0.17800
C 	C 	0.52275 0.22350 0.75210 -0.02500
H 	H 	0.52223 0.21150 0.69640 0.04200
H 	H 	0.48401 0.21175 0.76923 0.05000
H 	H 	0.53107 0.19844 0.78411 0.04700
C 	C 	0.78851 0.41091 0.69537 -0.02300
H 	H 	0.77918 0.43705 0.66765 0.04300
H 	H 	0.82774 0.42508 0.67722 0.04800
H 	H 	0.78836 0.41908 0.75218 0.04500
C 	C 	0.65678 0.27505 0.13933 -0.12200
C 	C 	0.62547 0.23452 0.19140 0.14600
C 	C 	0.62575 0.25257 0.26023 -0.04300
C 	C 	0.65583 0.31080 0.27703 -0.10900
C 	C 	0.68726 0.35120 0.22509 0.14300
C 	C 	0.68729 0.33320 0.15648 -0.04100
H 	H 	0.60232 0.22122 0.30044 0.06300
H 	H 	0.71293 0.36430 0.11722 0.06500
O 	O 	0.59926 0.17682 0.17660 -0.19300
O 	O 	0.71635 0.40879 0.24084 -0.19900
C 	C 	0.54875 0.15671 0.16522 -0.02300
H 	H 	0.52878 0.16034 0.21293 0.03900
H 	H 	0.52808 0.11076 0.15141 0.05500
H 	H 	0.54697 0.17918 0.12119 0.04500
C 	C 	0.76665 0.42568 0.24770 -0.02500
H 	H 	0.76859 0.39883 0.28584 0.03000
H 	H 	0.78887 0.47035 0.26679 0.04800
H 	H 	0.78508 0.42504 0.19667 0.04300
C 	C 	0.82370 0.61870 0.54075 -0.00900
C 	C 	0.79796 0.57354 0.58888 0.09200
C 	C 	0.76796 0.51702 0.56525 -0.02000
C 	C 	0.76437 0.50509 0.49401 -0.14200
C 	C 	0.79010 0.55046 0.44588 0.17000
C 	C 	0.82115 0.60683 0.46953 -0.10700
H 	H 	0.74636 0.48253 0.60246 0.04300
H 	H 	0.84158 0.64153 0.43242 0.06600
O 	O 	0.79750 0.58489 0.65906 -0.19300
O 	O 	0.78715 0.53957 0.37546 -0.21400
C 	C 	0.83644 0.58413 0.68724 -0.02200
H 	H 	0.82950 0.54103 0.68291 0.03400
H 	H 	0.83680 0.59460 0.74320 0.04000
H 	H 	0.87454 0.61687 0.66282 0.03600
C 	C 	0.74806 0.54275 0.35244 -0.02200
H 	H 	0.71053 0.51095 0.37908 0.05400
H 	H 	0.74501 0.53254 0.29629 0.05300
H 	H 	0.75685 0.58664 0.35885 0.04100
C 	C 	0.85369 0.22765 0.48595 -0.01100
C 	C 	0.83189 0.20977 0.42136 0.09800
C 	C 	0.80887 0.23462 0.39531 -0.02900
C 	C 	0.80543 0.27522 0.43456 -0.11300
C 	C 	0.82866 0.29441 0.49807 0.16300
C 	C 	0.85179 0.26975 0.52401 -0.10200
H 	H 	0.79175 0.22042 0.34596 0.05400
H 	H 	0.86766 0.28287 0.57425 0.06700
O 	O 	0.83552 0.17018 0.38186 -0.18800
O 	O 	0.82366 0.33265 0.53856 -0.19600
C 	C 	0.79116 0.11542 0.39620 -0.02700
H 	H 	0.78638 0.10389 0.45185 0.04100
H 	H 	0.79461 0.08361 0.36551 0.04800
H 	H 	0.75680 0.11196 0.38035 0.04400
C 	C 	0.86752 0.38804 0.52582 -0.02400
H 	H 	0.90160 0.39256 0.54468 0.04000
H 	H 	0.86211 0.41905 0.55494 0.04600
H 	H 	0.87403 0.39976 0.46997 0.04600
C 	C 	0.37363 0.21011 0.59501 -0.01300
C 	C 	0.41143 0.23507 0.64311 0.09900
C 	C 	0.46212 0.25772 0.62017 -0.03200
C 	C 	0.47531 0.25548 0.54978 -0.11500
C 	C 	0.43709 0.22770 0.50238 0.16300
C 	C 	0.38672 0.20702 0.52480 -0.10000
H 	H 	0.49127 0.27763 0.65707 0.05600
H 	H 	0.35776 0.18817 0.48762 0.06500
O 	O 	0.39816 0.23244 0.71330 -0.19700
O 	O 	0.44966 0.22548 0.43281 -0.19800
C 	C 	0.40539 0.28474 0.73422 -0.02200
H 	H 	0.44625 0.32058 0.72866 0.04100
H 	H 	0.39283 0.28161 0.78995 0.03700
H 	H 	0.38216 0.29420 0.70546 0.03700
C 	C 	0.44109 0.17154 0.41858 -0.02200
H 	H 	0.46233 0.16233 0.45226 0.05200
H 	H 	0.45495 0.17132 0.36422 0.04400
H 	H 	0.39980 0.13702 0.42349 0.03700
C 	C 	0.72129 0.44532 0.97129 -0.16500
C 	C 	0.74154 0.47649 0.90876 0.16300
C 	C 	0.77259 0.53634 0.91068 -0.09800
C 	C 	0.77992 0.56543 0.97377 -0.04900
C 	C 	0.75763 0.53445 0.03600 0.12800
C 	C 	0.72771 0.47457 0.03432 0.01000
H 	H 	0.78969 0.56015 0.86276 0.06200
H 	H 	0.71068 0.45097 0.08240 0.05700
O 	O 	0.73333 0.44851 0.84582 -0.21700
O 	O 	0.76133 0.56264 0.09781 -0.18400
C 	C 	0.69279 0.44545 0.81676 -0.02200
H 	H 	0.65661 0.41860 0.84900 0.04800
H 	H 	0.68764 0.42530 0.76490 0.04700
H 	H 	0.70101 0.48863 0.80866 0.04000
C 	C 	0.80040 0.56790 0.13386 -0.02800
H 	H 	0.79058 0.52538 0.14977 0.04500
H 	H 	0.80486 0.59284 0.18187 0.05000
H 	H 	0.83759 0.59144 0.10309 0.04900
C 	C 	0.75579 0.19818 0.84453 -0.11600
C 	C 	0.78795 0.21442 0.78331 0.15900
C 	C 	0.81842 0.19336 0.76994 -0.10200
C 	C 	0.81522 0.15422 0.81546 -0.01200
C 	C 	0.78037 0.13493 0.87398 0.09700
C 	C 	0.75182 0.15804 0.88905 -0.03100
H 	H 	0.84542 0.20861 0.72516 0.06300
H 	H 	0.72756 0.14576 0.93649 0.05600
O 	O 	0.79312 0.25489 0.73969 -0.19100
O 	O 	0.77917 0.09910 0.92136 -0.19400
C 	C 	0.75902 0.22639 0.68707 -0.03000
H 	H 	0.76793 0.19916 0.65486 0.04100
H 	H 	0.76304 0.25884 0.65220 0.07200
H 	H 	0.71885 0.20068 0.70878 0.04700
C 	C 	0.73616 0.04324 0.91175 -0.02200
H 	H 	0.70060 0.04010 0.92910 0.03600
H 	H 	0.73841 0.01364 0.94425 0.03800
H 	H 	0.73440 0.02846 0.85710 0.03400
C 	C 	0.44796 0.20330 0.04994 -0.06600
C 	C 	0.42573 0.21418 0.10902 0.15300
C 	C 	0.37517 0.19757 0.10963 -0.10100
C 	C 	0.34631 0.16876 0.05263 0.02400
C 	C 	0.36890 0.15929 0.99303 0.06900
C 	C 	0.41898 0.17495 0.99275 -0.07200
H 	H 	0.35817 0.20614 0.15494 0.06800
H 	H 	0.43558 0.16600 0.94730 0.06300
O 	O 	0.45445 0.24467 0.16423 -0.18600
O 	O 	0.34050 0.13012 0.93704 -0.19600
C 	C 	0.44819 0.20570 0.21350 -0.02600
H 	H 	0.40842 0.17976 0.23664 0.04100
H 	H 	0.47322 0.23032 0.25609 0.05700
H 	H 	0.45971 0.17745 0.19104 0.03900
C 	C 	0.34897 0.17032 0.88786 -0.02500
H 	H 	0.33793 0.19912 0.90979 0.03100
H 	H 	0.32493 0.14692 0.84397 0.04600
H 	H 	0.38921 0.19570 0.86642 0.04500
