data_crystal

_cell_length_a 18.37331
_cell_length_b 18.72966
_cell_length_c 44.39299
_cell_angle_alpha 95.43409
_cell_angle_beta  95.43351
_cell_angle_gamma 126.40690

_symmetry_space_group_name_	'P 1'
_symmetry_space_group_name_H-M	'P 1'

loop_
_symmetry_equiv_pos_as_xyz
  x,y,z

loop_
_atom_site_label
_atom_site_type_symbol
_atom_site_fract_x
_atom_site_fract_y
_atom_site_fract_z
_atom_site_charge
C 	C 	0.96064 0.01541 0.98357 0.10700
N 	N 	0.91357 0.92469 0.98165 -0.13100
C 	C 	0.95856 0.88778 0.97894 0.11800
N 	N 	0.04983 0.94147 0.97825 -0.13000
C 	C 	0.09636 0.03155 0.97998 0.11200
N 	N 	0.05209 0.06861 0.98316 -0.13200
C 	C 	0.89673 0.01933 0.49548 0.10900
N 	N 	0.98979 0.06712 0.50057 -0.13800
C 	C 	0.02744 0.02321 0.49743 0.11500
N 	N 	0.97217 0.93164 0.49031 -0.13200
C 	C 	0.87922 0.88401 0.48422 0.12100
N 	N 	0.84196 0.92838 0.48604 -0.13300
Cu	Cu	0.81120 0.35893 0.97358 0.92700
Cu	Cu	0.78520 0.29863 0.04101 0.87000
Cu	Cu	0.66769 0.33744 0.00849 0.89800
Cu	Cu	0.63307 0.33289 0.94058 0.89900
C 	C 	0.74989 0.30655 0.90803 0.29300
O 	O 	0.85344 0.48468 0.96749 -0.35600
C 	C 	0.70745 0.36614 0.07600 0.28200
O 	O 	0.66730 0.28368 0.96862 -0.63400
O 	O 	0.79804 0.38339 0.01599 -0.64400
O 	O 	0.87705 0.30654 0.98339 -0.36600
O 	O 	0.76930 0.21090 0.01010 -0.43600
O 	O 	0.71272 0.34837 0.91060 -0.38700
O 	O 	0.54337 0.30219 0.00000 -0.37400
C 	C 	0.48185 0.24928 0.97476 0.29300
C 	C 	0.80614 0.51502 0.97387 0.27600
O 	O 	0.71736 0.45807 0.97383 -0.39200
O 	O 	0.50517 0.25843 0.94743 -0.39300
O 	O 	0.80469 0.31472 0.93176 -0.36300
C 	C 	0.83607 0.23263 0.99520 0.29300
O 	O 	0.67044 0.37650 0.05137 -0.37200
O 	O 	0.77600 0.36112 0.07537 -0.41700
H 	H 	0.62926 0.21693 0.96486 0.16000
H 	H 	0.84132 0.44748 0.02646 0.17400
Cu	Cu	0.56925 0.19171 0.50589 0.92900
Cu	Cu	0.59485 0.16751 0.43447 0.86800
Cu	Cu	0.59587 0.31899 0.46308 0.89800
Cu	Cu	0.60622 0.37538 0.52934 0.89700
C 	C 	0.63022 0.26956 0.57039 0.29400
O 	O 	0.44746 0.15791 0.51528 -0.36300
C 	C 	0.53717 0.24633 0.39642 0.28200
O 	O 	0.65114 0.32933 0.50397 -0.64000
O 	O 	0.53150 0.18794 0.46249 -0.64300
O 	O 	0.61339 0.11869 0.49849 -0.37900
O 	O 	0.69633 0.19547 0.46296 -0.43700
O 	O 	0.59871 0.31586 0.56527 -0.38500
O 	O 	0.66636 0.44766 0.46437 -0.38600
C 	C 	0.67738 0.50707 0.48669 0.29600
C 	C 	0.41474 0.20047 0.50628 0.28400
O 	O 	0.47060 0.28246 0.50053 -0.39600
O 	O 	0.67221 0.49305 0.51533 -0.38800
O 	O 	0.62620 0.21577 0.54771 -0.36700
C 	C 	0.68487 0.14970 0.48505 0.29300
O 	O 	0.54750 0.30332 0.41966 -0.37900
O 	O 	0.52476 0.17133 0.40080 -0.41900
H 	H 	0.71892 0.36402 0.50758 0.16900
H 	H 	0.46418 0.15061 0.45503 0.17200
C 	C 	0.75138 0.27330 0.87699 -0.09000
C 	C 	0.83401 0.31868 0.86571 0.02400
C 	C 	0.83214 0.30340 0.83406 -0.07300
C 	C 	0.74776 0.24234 0.81365 0.04600
C 	C 	0.66627 0.19098 0.82525 -0.07200
C 	C 	0.66800 0.20665 0.85681 0.01800
C 	C 	0.74272 0.24356 0.78116 -0.03000
C 	C 	0.73543 0.24260 0.75383 -0.00100
C 	C 	0.72300 0.24325 0.72203 -0.00100
C 	C 	0.70901 0.24517 0.69514 -0.03000
C 	C 	0.68826 0.24895 0.66350 0.04500
C 	C 	0.73670 0.24422 0.64182 -0.07200
C 	C 	0.71760 0.25051 0.61130 0.01800
C 	C 	0.65025 0.26206 0.60239 -0.08800
C 	C 	0.60141 0.26589 0.62418 0.01900
C 	C 	0.62042 0.25939 0.65455 -0.07200
H 	H 	0.89893 0.36976 0.88115 0.03600
H 	H 	0.89564 0.34264 0.82531 0.05200
H 	H 	0.60088 0.14272 0.80966 0.04900
H 	H 	0.60396 0.17042 0.86536 0.01800
H 	H 	0.78929 0.23614 0.64860 0.05000
H 	H 	0.75570 0.24735 0.59471 0.03400
H 	H 	0.54823 0.27325 0.61754 0.03600
H 	H 	0.58252 0.26276 0.67118 0.05100
C 	C 	0.52773 0.26129 0.36466 -0.09000
C 	C 	0.57175 0.34959 0.35912 0.01400
C 	C 	0.57561 0.36553 0.32896 -0.07200
C 	C 	0.53541 0.29351 0.30413 0.04400
C 	C 	0.48662 0.20488 0.30944 -0.07400
C 	C 	0.48258 0.18868 0.33957 0.01500
C 	C 	0.55314 0.31128 0.27377 -0.03200
C 	C 	0.56777 0.32578 0.24831 -0.00200
C 	C 	0.58781 0.34231 0.21871 -0.00200
C 	C 	0.60724 0.35576 0.19362 -0.03100
C 	C 	0.63309 0.37070 0.16392 0.04400
C 	C 	0.56517 0.32780 0.13714 -0.07000
C 	C 	0.58996 0.33087 0.10817 0.01500
C 	C 	0.68283 0.37615 0.10588 -0.08700
C 	C 	0.75101 0.42323 0.13271 0.01800
C 	C 	0.72614 0.42047 0.16160 -0.07200
H 	H 	0.60636 0.40625 0.37818 0.03600
H 	H 	0.61285 0.43421 0.32500 0.05000
H 	H 	0.45449 0.14875 0.29030 0.04700
H 	H 	0.44642 0.12000 0.34339 0.03000
H 	H 	0.49307 0.28961 0.13875 0.05000
H 	H 	0.53677 0.29479 0.08763 0.03500
H 	H 	0.82305 0.46000 0.13121 0.03200
H 	H 	0.77908 0.45452 0.18222 0.04900
C 	C 	0.81889 0.78450 0.48038 -0.01400
C 	C 	0.74291 0.74157 0.49523 -0.05600
C 	C 	0.69103 0.64901 0.49510 0.05200
C 	C 	0.71770 0.59902 0.48127 -0.08700
C 	C 	0.78904 0.64021 0.46436 -0.00800
C 	C 	0.83831 0.73210 0.46323 0.00900
S 	S 	0.59041 0.59581 0.51102 -0.05300
S 	S 	0.91922 0.77880 0.43871 -0.03600
H 	H 	0.87673 0.77249 0.41042 0.03500
H 	H 	0.51687 0.56636 0.48860 0.03800
H 	H 	0.72490 0.78045 0.50731 0.05600
H 	H 	0.80729 0.60116 0.45252 0.04200
C 	C 	0.85489 0.06591 0.49964 -0.01200
C 	C 	0.88784 0.14365 0.48715 -0.06000
C 	C 	0.83854 0.17874 0.48570 0.05000
C 	C 	0.75061 0.13036 0.49411 -0.09400
C 	C 	0.72281 0.05832 0.50952 -0.00900
C 	C 	0.77631 0.02830 0.51336 -0.00200
S 	S 	0.89278 0.28785 0.47731 -0.05200
S 	S 	0.74833 0.94893 0.53732 -0.02400
H 	H 	0.79385 0.99351 0.56691 0.03900
H 	H 	0.87607 0.28185 0.44608 0.03100
H 	H 	0.95162 0.17669 0.47845 0.05300
H 	H 	0.65918 0.02504 0.51830 0.04500
C 	C 	0.12744 0.07462 0.49993 -0.01400
C 	C 	0.18245 0.09792 0.52863 -0.05500
C 	C 	0.27674 0.14008 0.53108 0.05000
C 	C 	0.31642 0.15839 0.50443 -0.08800
C 	C 	0.26176 0.13700 0.47584 -0.01300
C 	C 	0.16756 0.09510 0.47344 0.01100
S 	S 	0.34476 0.17198 0.56768 -0.04800
S 	S 	0.10043 0.06808 0.43715 -0.04800
H 	H 	0.06482 0.98238 0.42318 0.04500
H 	H 	0.34989 0.10422 0.57324 0.04400
H 	H 	0.15173 0.08260 0.54905 0.05000
H 	H 	0.29236 0.15202 0.45540 0.03400
C 	C 	0.84869 0.61167 0.97590 -0.08200
C 	C 	0.87493 0.65042 0.94967 -0.01200
C 	C 	0.90369 0.73839 0.94958 0.01100
C 	C 	0.90887 0.78964 0.97629 -0.01400
C 	C 	0.88127 0.75046 0.00238 -0.05200
C 	C 	0.85133 0.66194 0.00234 0.04700
S 	S 	0.93056 0.78280 0.91560 -0.03100
S 	S 	0.82054 0.61602 0.03589 -0.04700
H 	H 	0.89595 0.63237 0.05363 0.03300
H 	H 	0.85336 0.76499 0.89866 0.03800
H 	H 	0.87045 0.61113 0.92901 0.04400
H 	H 	0.88611 0.78989 0.02307 0.05300
C 	C 	0.91350 0.05684 0.98635 -0.01000
C 	C 	0.91946 0.09734 0.01562 -0.05800
C 	C 	0.89694 0.15687 0.01878 0.05600
C 	C 	0.86582 0.17477 0.99232 -0.09300
C 	C 	0.85691 0.13194 0.96302 -0.00600
C 	C 	0.88015 0.07286 0.95992 0.00800
S 	S 	0.91328 0.21256 0.05590 -0.09300
S 	S 	0.86774 0.01974 0.92285 -0.04000
H 	H 	0.94725 0.07358 0.91175 0.03800
H 	H 	0.83368 0.16250 0.06731 0.02400
H 	H 	0.94600 0.08597 0.03598 0.05100
H 	H 	0.83134 0.14408 0.94265 0.04300
C 	C 	0.38349 0.19413 0.97654 -0.08900
C 	C 	0.32307 0.19638 0.95555 -0.00600
C 	C 	0.22906 0.14321 0.95628 0.00800
C 	C 	0.19499 0.08900 0.97891 -0.01100
C 	C 	0.25527 0.08683 0.99994 -0.05800
C 	C 	0.34893 0.13801 0.99866 0.05500
S 	S 	0.15426 0.14143 0.92773 -0.03300
S 	S 	0.42089 0.12724 0.02372 -0.07300
H 	H 	0.42309 0.06025 0.00977 0.02700
H 	H 	0.12050 0.07181 0.90366 0.03500
H 	H 	0.34922 0.23908 0.93843 0.04300
H 	H 	0.22895 0.04425 0.01709 0.05200
