data_crystal

_cell_length_a 17.00760
_cell_length_b 15.64699
_cell_length_c 13.97025
_cell_angle_alpha 89.99769
_cell_angle_beta  89.99470
_cell_angle_gamma 89.97663

_symmetry_space_group_name_	'P 1'
_symmetry_space_group_name_H-M	'P 1'

loop_
_symmetry_equiv_pos_as_xyz
  x,y,z

loop_
_atom_site_label
_atom_site_type_symbol
_atom_site_fract_x
_atom_site_fract_y
_atom_site_fract_z
_atom_site_charge
Co	Co	0.92574 0.96710 0.87952 1.18300
Co	Co	0.03701 0.04830 0.14407 1.18200
Co	Co	0.91788 0.92692 0.11042 1.19100
Co	Co	0.04799 0.08403 0.91515 1.17300
C 	C 	0.81847 0.02384 0.71320 0.32100
Co	Co	0.99040 0.07091 0.69573 1.16300
Co	Co	0.95655 0.97292 0.33242 1.16700
C 	C 	0.15442 0.02118 0.76470 0.32600
O 	O 	0.95747 0.84047 0.31496 -0.41300
O 	O 	0.95875 0.99782 0.18528 -0.76800
C 	C 	0.99052 0.79871 0.24336 0.31300
O 	O 	0.88693 0.88345 0.97909 -0.48700
O 	O 	0.10410 0.10069 0.04101 -0.46200
C 	C 	0.12658 0.94522 0.28256 0.32400
O 	O 	0.95363 0.03869 0.01722 -0.55900
C 	C 	0.80001 0.91257 0.26963 0.31800
C 	C 	0.00469 0.87774 0.71752 0.33200
C 	C 	0.00417 0.23764 0.79911 0.31900
O 	O 	0.99154 0.82997 0.15553 -0.40300
O 	O 	0.98169 0.94074 0.66142 -0.42200
O 	O 	0.00354 0.88606 0.81122 -0.40800
O 	O 	0.07845 0.97840 0.34650 -0.40600
O 	O 	0.11243 0.95434 0.19049 -0.39600
O 	O 	0.83575 0.96722 0.32597 -0.38900
O 	O 	0.80939 0.91708 0.17625 -0.38300
O 	O 	0.99654 0.20209 0.71440 -0.38500
O 	O 	0.05506 0.20706 0.86142 -0.40300
O 	O 	0.97469 0.05296 0.84403 -0.78400
C 	C 	0.99584 0.16150 0.31832 0.36100
O 	O 	0.94486 0.10420 0.34954 -0.40900
O 	O 	0.04584 0.14421 0.24801 -0.40400
O 	O 	0.86928 0.08385 0.68903 -0.40200
O 	O 	0.82436 0.98235 0.79619 -0.38800
O 	O 	0.11383 0.06751 0.70265 -0.40900
O 	O 	0.12536 0.00308 0.84924 -0.43400
C 	C 	0.08633 0.66021 0.39851 -0.00300
C 	C 	0.10396 0.71773 0.47241 -0.04500
C 	C 	0.08771 0.69742 0.56782 -0.00700
C 	C 	0.06426 0.61329 0.59184 0.01000
C 	C 	0.04737 0.55402 0.51804 -0.00600
C 	C 	0.05922 0.57692 0.42114 0.01000
C 	C 	0.04167 0.51727 0.34871 -0.04000
C 	C 	0.00537 0.43988 0.37108 -0.03700
C 	C 	0.99440 0.41536 0.46725 0.00800
C 	C 	0.01527 0.47311 0.54115 -0.00300
C 	C 	0.05773 0.58737 0.68795 -0.04100
C 	C 	0.02622 0.50762 0.71080 -0.03700
C 	C 	0.00037 0.45192 0.63798 0.00700
C 	C 	0.95703 0.37720 0.66004 0.00400
C 	C 	0.93273 0.32305 0.58570 -0.03800
C 	C 	0.95835 0.33643 0.49157 -0.01400
H 	H 	0.05418 0.53143 0.27441 0.04700
H 	H 	0.98413 0.40032 0.31313 0.04400
H 	H 	0.07730 0.62874 0.74533 0.04400
H 	H 	0.02185 0.48953 0.78540 0.04100
H 	H 	0.12201 0.78223 0.45468 0.04300
H 	H 	0.89478 0.26916 0.60150 0.05100
C 	C 	0.63868 0.92897 0.59484 -0.01500
C 	C 	0.67335 0.90263 0.50869 -0.03800
C 	C 	0.62897 0.89768 0.42427 -0.01000
C 	C 	0.54669 0.90144 0.42916 0.01300
C 	C 	0.50992 0.92614 0.51540 -0.01200
C 	C 	0.55568 0.94044 0.59896 0.01800
C 	C 	0.51791 0.96724 0.68358 -0.05200
C 	C 	0.43659 0.98174 0.68477 -0.00800
C 	C 	0.39114 0.97019 0.60120 -0.01100
C 	C 	0.42796 0.94114 0.51655 0.00500
C 	C 	0.50065 0.88365 0.34784 -0.04000
C 	C 	0.42006 0.89869 0.34872 -0.03500
C 	C 	0.38337 0.93058 0.43144 0.00600
C 	C 	0.30264 0.95107 0.43132 -0.00500
C 	C 	0.26561 0.97270 0.51703 -0.05400
C 	C 	0.30929 0.98717 0.60026 0.02500
H 	H 	0.55108 0.97679 0.74882 0.04600
H 	H 	0.40919 0.00151 0.75112 0.02100
H 	H 	0.52741 0.85808 0.28353 0.04700
H 	H 	0.38613 0.88459 0.28505 0.04700
H 	H 	0.73674 0.89551 0.50508 0.04700
H 	H 	0.20310 0.98683 0.51680 0.05900
C 	C 	0.25941 0.96553 0.34088 0.03900
C 	C 	0.20257 0.91135 0.31462 -0.15600
H 	H 	0.26075 0.02930 0.31002 0.01900
H 	H 	0.20509 0.84572 0.33923 0.07500
C 	C 	0.22605 0.99243 0.74138 -0.14600
C 	C 	0.27082 0.03454 0.67806 -0.02100
H 	H 	0.24775 0.93355 0.77319 0.08200
H 	H 	0.26147 0.10270 0.66734 0.04300
C 	C 	0.73185 0.86773 0.30754 -0.15000
C 	C 	0.66866 0.91306 0.33204 0.02400
H 	H 	0.74079 0.80480 0.33862 0.07400
H 	H 	0.65548 0.97192 0.29382 0.04100
C 	C 	0.69147 0.95491 0.67505 0.03200
C 	C 	0.74904 0.01788 0.65905 -0.18400
H 	H 	0.69071 0.91877 0.74143 0.03300
H 	H 	0.74343 0.05825 0.59603 0.08600
C 	C 	0.00317 0.23609 0.36546 -0.21100
C 	C 	0.94411 0.26775 0.41983 0.03900
H 	H 	0.05768 0.27184 0.35859 0.09800
H 	H 	0.88713 0.23608 0.42043 0.03100
C 	C 	0.95837 0.31499 0.82369 -0.15400
C 	C 	0.92347 0.36493 0.75734 0.01800
H 	H 	0.94464 0.32601 0.89859 0.06400
H 	H 	0.87945 0.41048 0.78128 0.02200
C 	C 	0.08349 0.69371 0.29936 0.00900
C 	C 	0.01360 0.70988 0.25938 -0.13300
H 	H 	0.13427 0.72902 0.27385 0.03400
H 	H 	0.96628 0.66425 0.26991 0.07300
C 	C 	0.01476 0.79225 0.67586 -0.15100
C 	C 	0.08409 0.76820 0.63859 0.01600
H 	H 	0.96298 0.75274 0.66507 0.07300
H 	H 	0.13523 0.80920 0.64722 0.03000
