data_crystal

_cell_length_a 20.08061
_cell_length_b 27.07055
_cell_length_c 27.25523
_cell_angle_alpha 88.01038
_cell_angle_beta  91.28676
_cell_angle_gamma 89.42880

_symmetry_space_group_name_	'P 1'
_symmetry_space_group_name_H-M	'P 1'

loop_
_symmetry_equiv_pos_as_xyz
  x,y,z

loop_
_atom_site_label
_atom_site_type_symbol
_atom_site_fract_x
_atom_site_fract_y
_atom_site_fract_z
_atom_site_charge
Zn	Zn	0.99477 0.06591 0.94478 1.19500
Zn	Zn	0.99612 0.05872 0.05792 1.21300
Zn	Zn	0.99137 0.95209 0.95015 1.20800
P 	P 	0.89239 0.01409 0.99544 0.27400
P 	P 	0.09490 0.01034 0.99865 0.26500
C 	C 	0.95289 0.85638 0.97653 0.23700
C 	C 	0.99664 0.01296 0.85664 0.21900
C 	C 	0.98987 0.15392 0.99829 0.22800
O 	O 	0.90612 0.06680 0.97160 -0.42900
O 	O 	0.08256 0.03522 0.94603 -0.40800
O 	O 	0.94104 0.00292 0.04162 -0.41300
O 	O 	0.04452 0.96613 0.00794 -0.38700
O 	O 	0.90001 0.97368 0.95467 -0.39900
O 	O 	0.08764 0.05160 0.03858 -0.36300
O 	O 	0.98379 0.88165 0.94186 -0.38900
O 	O 	0.07067 0.99619 0.12924 -0.19100
O 	O 	0.91900 0.88013 0.00915 -0.18400
O 	O 	0.02478 0.97646 0.88389 -0.36100
O 	O 	0.96306 0.12702 0.03436 -0.37400
O 	O 	0.96957 0.05135 0.87738 -0.39900
O 	O 	0.02068 0.13238 0.96241 -0.37100
C 	C 	0.03737 0.02933 0.15314 0.24900
O 	O 	0.00499 0.06510 0.12836 -0.35500
Zn	Zn	0.00289 0.04881 0.44578 1.21000
Zn	Zn	0.00104 0.93681 0.44910 1.22700
Zn	Zn	0.00284 0.04679 0.55601 1.22700
P 	P 	0.10343 0.99399 0.50059 0.30200
P 	P 	0.90090 0.99715 0.49745 0.30000
C 	C 	0.03871 0.02419 0.65324 0.25200
C 	C 	0.00239 0.13968 0.49276 0.34500
C 	C 	0.00212 0.99978 0.35644 0.30800
O 	O 	0.09173 0.01741 0.44716 -0.41200
O 	O 	0.91349 0.05022 0.47375 -0.42600
O 	O 	0.05289 0.94964 0.50846 -0.40400
O 	O 	0.95123 0.98823 0.54280 -0.43400
O 	O 	0.09462 0.03652 0.53930 -0.38700
O 	O 	0.90924 0.95700 0.45626 -0.39900
O 	O 	0.00894 0.05866 0.62526 -0.36100
O 	O 	0.91895 0.86096 0.49707 -0.20600
O 	O 	0.07003 0.98767 0.63279 -0.19400
O 	O 	0.97204 0.11530 0.52888 -0.42600
O 	O 	0.03230 0.96290 0.38189 -0.38900
O 	O 	0.03156 0.11538 0.45828 -0.41400
O 	O 	0.97437 0.03623 0.37926 -0.43900
C 	C 	0.95918 0.83947 0.46684 0.26000
O 	O 	0.99527 0.86685 0.43699 -0.39400
Zn	Zn	0.98200 0.56462 0.94947 1.19400
Zn	Zn	0.96564 0.45210 0.95176 1.21000
Zn	Zn	0.99585 0.55504 0.06037 1.21200
P 	P 	0.08257 0.50205 0.99392 0.28000
P 	P 	0.87914 0.51769 0.00591 0.33300
C 	C 	0.02931 0.51458 0.15176 0.25100
C 	C 	0.99581 0.65134 0.00367 0.30500
C 	C 	0.95748 0.51577 0.86090 0.28100
O 	O 	0.06504 0.52816 0.94256 -0.40400
O 	O 	0.89671 0.56975 0.98184 -0.44600
O 	O 	0.02930 0.46025 0.00576 -0.38000
O 	O 	0.93267 0.50285 0.04794 -0.42700
O 	O 	0.08331 0.54286 0.03475 -0.37000
O 	O 	0.87734 0.47726 0.96467 -0.40800
O 	O 	0.01550 0.55766 0.12975 -0.36100
O 	O 	0.89167 0.37768 0.00880 -0.17900
O 	O 	0.03035 0.47459 0.12582 -0.19100
O 	O 	0.96923 0.62615 0.04098 -0.40100
O 	O 	0.98908 0.47802 0.88373 -0.41000
O 	O 	0.01944 0.62803 0.96616 -0.40100
O 	O 	0.94558 0.55672 0.88394 -0.41300
C 	C 	0.92353 0.35598 0.97376 0.23200
O 	O 	0.95158 0.38317 0.93921 -0.38100
Zn	Zn	0.07034 0.54988 0.43983 1.21100
Zn	Zn	0.01904 0.43580 0.43976 1.21100
Zn	Zn	0.96795 0.54557 0.56760 1.21700
P 	P 	0.11624 0.46964 0.53378 0.33000
P 	P 	0.90885 0.52044 0.44318 0.37600
C 	C 	0.91541 0.51534 0.65702 0.25600
C 	C 	0.02485 0.63901 0.50427 0.25100
C 	C 	0.08096 0.49777 0.35533 0.27200
O 	O 	0.14301 0.50669 0.48863 -0.32200
O 	O 	0.96301 0.55303 0.41087 -0.34300
O 	O 	0.08163 0.42435 0.50417 -0.32400
O 	O 	0.88405 0.53998 0.49952 -0.24600
O 	O 	0.08375 0.49602 0.58543 -0.20700
O 	O 	0.91711 0.46341 0.42770 -0.32300
O 	O 	0.93495 0.55465 0.63200 -0.40700
O 	O 	0.91509 0.36696 0.47669 -0.19700
O 	O 	0.90479 0.47408 0.63429 -0.22000
O 	O 	0.00650 0.61883 0.54846 -0.30300
O 	O 	0.07596 0.45425 0.37937 -0.39300
O 	O 	0.07329 0.61842 0.47726 -0.33100
O 	O 	0.10516 0.53630 0.37748 -0.42400
C 	C 	0.95880 0.34297 0.45117 0.22600
O 	O 	0.00023 0.36804 0.42315 -0.34500
Zn	Zn	0.50185 0.91533 0.08953 1.20600
Zn	Zn	0.49088 0.92175 0.97468 1.21500
Zn	Zn	0.49744 0.02945 0.08264 1.22100
P 	P 	0.39444 0.96843 0.03983 0.31400
P 	P 	0.59583 0.96940 0.03176 0.31500
C 	C 	0.45958 0.12623 0.05658 0.25400
C 	C 	0.51260 0.97005 0.17702 0.27800
C 	C 	0.49088 0.82718 0.03642 0.28100
O 	O 	0.41037 0.91607 0.06491 -0.41900
O 	O 	0.58889 0.94449 0.08456 -0.42200
O 	O 	0.43914 0.97846 0.99302 -0.44000
O 	O 	0.54511 0.01474 0.02385 -0.40900
O 	O 	0.40516 0.00974 0.07953 -0.38600
O 	O 	0.58482 0.92879 0.99120 -0.40300
O 	O 	0.49149 0.09992 0.09136 -0.37300
O 	O 	0.55723 0.98076 0.89818 -0.20200
O 	O 	0.42492 0.10359 0.02283 -0.19100
O 	O 	0.53810 0.00518 0.14812 -0.39600
O 	O 	0.46046 0.85412 0.00062 -0.38300
O 	O 	0.48614 0.93024 0.15821 -0.40100
O 	O 	0.52588 0.84860 0.07106 -0.40300
C 	C 	0.51679 0.94995 0.87668 0.25200
O 	O 	0.48810 0.91495 0.90343 -0.37400
Zn	Zn	0.49674 0.03047 0.46940 1.20900
Zn	Zn	0.47587 0.01963 0.58297 1.21900
Zn	Zn	0.52999 0.91801 0.47563 1.21900
P 	P 	0.40477 0.95907 0.50984 0.30400
P 	P 	0.59986 0.99246 0.53429 0.30200
C 	C 	0.57700 0.82167 0.50140 0.25100
C 	C 	0.52646 0.98003 0.38250 0.27800
C 	C 	0.45273 0.11306 0.52233 0.28100
O 	O 	0.40739 0.01303 0.48603 -0.42500
O 	O 	0.58958 0.01607 0.48089 -0.42300
O 	O 	0.44420 0.95606 0.56144 -0.41400
O 	O 	0.56529 0.93979 0.53808 -0.41900
O 	O 	0.43340 0.91999 0.47284 -0.39400
O 	O 	0.57102 0.02888 0.57378 -0.39200
O 	O 	0.55110 0.84914 0.46477 -0.37400
O 	O 	0.39294 0.96400 0.65804 -0.19400
O 	O 	0.60941 0.84282 0.53723 -0.19600
O 	O 	0.56336 0.95069 0.41248 -0.39700
O 	O 	0.42699 0.08067 0.55419 -0.39200
O 	O 	0.49074 0.01630 0.39988 -0.39900
O 	O 	0.49572 0.09873 0.48974 -0.40500
C 	C 	0.43511 0.99338 0.67977 0.25100
O 	O 	0.46573 0.02775 0.65348 -0.36800
Zn	Zn	0.48829 0.41723 0.09151 1.20600
Zn	Zn	0.46910 0.53034 0.08920 1.21900
Zn	Zn	0.49477 0.42795 0.97864 1.21500
P 	P 	0.58431 0.47976 0.04654 0.30600
P 	P 	0.38115 0.46556 0.03420 0.31800
C 	C 	0.53112 0.46494 0.88659 0.25300
C 	C 	0.49906 0.33144 0.03516 0.30500
C 	C 	0.46579 0.46596 0.18018 0.27800
O 	O 	0.57091 0.45357 0.09796 -0.41800
O 	O 	0.40117 0.41360 0.05883 -0.41700
O 	O 	0.52942 0.52179 0.03510 -0.41200
O 	O 	0.43147 0.48023 0.99179 -0.43500
O 	O 	0.58335 0.43921 0.00535 -0.38100
O 	O 	0.38047 0.50631 0.07516 -0.38600
O 	O 	0.50993 0.42416 0.90871 -0.37600
O 	O 	0.38823 0.60536 0.03332 -0.18900
O 	O 	0.54735 0.50282 0.91304 -0.21000
O 	O 	0.46958 0.35742 0.99836 -0.41900
O 	O 	0.49597 0.50351 0.15761 -0.39900
O 	O 	0.52536 0.35390 0.07291 -0.40900
O 	O 	0.45637 0.42420 0.15777 -0.40000
C 	C 	0.42407 0.62696 0.06713 0.25400
O 	O 	0.45533 0.59968 0.10151 -0.37500
Zn	Zn	0.38819 0.56281 0.45216 1.21000
Zn	Zn	0.46088 0.53112 0.59429 1.21900
Zn	Zn	0.39825 0.41018 0.47622 1.21800
P 	P 	0.30582 0.48919 0.55106 0.33200
P 	P 	0.52937 0.48728 0.49049 0.35300
C 	C 	0.37525 0.31299 0.51197 0.25500
C 	C 	0.37607 0.47993 0.37354 0.24900
C 	C 	0.45963 0.63630 0.52484 0.25000
O 	O 	0.28214 0.53607 0.50887 -0.21900
O 	O 	0.50854 0.53406 0.44897 -0.25200
O 	O 	0.35877 0.49995 0.59791 -0.30800
O 	O 	0.50605 0.42917 0.48201 -0.31300
O 	O 	0.32384 0.43209 0.53279 -0.29300
O 	O 	0.54232 0.49767 0.54981 -0.30000
O 	O 	0.38300 0.33994 0.47141 -0.39100
O 	O 	0.51715 0.44928 0.65312 -0.22400
O 	O 	0.36691 0.33483 0.55369 -0.21300
O 	O 	0.36266 0.43743 0.40046 -0.30400
O 	O 	0.45616 0.61257 0.57033 -0.30400
O 	O 	0.35598 0.52551 0.38760 -0.34600
O 	O 	0.41375 0.62940 0.48807 -0.34700
C 	C 	0.51748 0.48858 0.68007 0.25400
O 	O 	0.50171 0.53198 0.65942 -0.39000
C 	C 	0.52922 0.47073 0.83275 0.07100
N 	N 	0.52314 0.43079 0.80436 -0.04900
N 	N 	0.52095 0.43651 0.75555 -0.04900
C 	C 	0.52416 0.48237 0.73377 0.06900
N 	N 	0.53032 0.52229 0.76217 -0.04900
N 	N 	0.53328 0.51652 0.81096 -0.04900
C 	C 	0.44766 0.46915 0.23183 0.06000
N 	N 	0.44307 0.51376 0.25272 -0.05300
N 	N 	0.42012 0.51707 0.29800 -0.05900
C 	C 	0.40104 0.47587 0.32366 0.06200
N 	N 	0.40668 0.43114 0.30311 -0.05200
N 	N 	0.42920 0.42787 0.25768 -0.04700
C 	C 	0.50241 0.67964 0.51907 0.06200
N 	N 	0.52422 0.70421 0.55880 -0.05100
N 	N 	0.55221 0.74847 0.55294 -0.05100
C 	C 	0.55831 0.76960 0.50726 0.06900
N 	N 	0.53883 0.74417 0.46758 -0.05200
N 	N 	0.51184 0.69969 0.47339 -0.05800
C 	C 	0.38637 0.25938 0.51213 0.06900
N 	N 	0.37596 0.23133 0.55354 -0.04800
N 	N 	0.39515 0.18399 0.55634 -0.04700
C 	C 	0.42588 0.16359 0.51799 0.06200
N 	N 	0.43480 0.19129 0.47621 -0.04800
N 	N 	0.41515 0.23846 0.47327 -0.05000
C 	C 	0.47529 0.77452 0.04306 0.06300
N 	N 	0.50397 0.74738 0.08089 -0.04800
N 	N 	0.48618 0.70064 0.08959 -0.05000
C 	C 	0.43872 0.67983 0.06100 0.07300
N 	N 	0.40994 0.70700 0.02323 -0.04400
N 	N 	0.42774 0.75374 0.01452 -0.04200
C 	C 	0.46941 0.17977 0.05140 0.07600
N 	N 	0.51197 0.20285 0.08216 -0.04800
N 	N 	0.52313 0.25108 0.07585 -0.04500
C 	C 	0.49248 0.27751 0.03836 0.05800
N 	N 	0.45032 0.25433 0.00736 -0.03900
N 	N 	0.43915 0.20610 0.01368 -0.04300
C 	C 	0.45462 0.98334 0.73174 0.07200
N 	N 	0.42444 0.94678 0.75829 -0.04800
N 	N 	0.44519 0.93512 0.80417 -0.04900
C 	C 	0.49725 0.95928 0.82462 0.07200
N 	N 	0.52746 0.99572 0.79800 -0.04900
N 	N 	0.50663 0.00744 0.75222 -0.04800
C 	C 	0.53253 0.97689 0.32925 0.06300
N 	N 	0.52814 0.93247 0.30784 -0.05300
N 	N 	0.52256 0.93022 0.25911 -0.04800
C 	C 	0.52193 0.97231 0.23045 0.06200
N 	N 	0.52825 0.01659 0.25179 -0.04900
N 	N 	0.53269 0.01889 0.30051 -0.04600
C 	C 	0.46059 0.50035 0.49638 -0.06300
N 	N 	0.44758 0.54106 0.51860 -0.21400
N 	N 	0.38739 0.54909 0.52982 -0.19300
C 	C 	0.34194 0.51692 0.51236 0.00700
N 	N 	0.35653 0.48994 0.47287 -0.19200
N 	N 	0.41797 0.48492 0.46387 -0.21600
C 	C 	0.04999 0.49360 0.54364 0.01500
N 	N 	0.99442 0.46348 0.54731 -0.13600
N 	N 	0.95126 0.46818 0.51205 -0.09800
C 	C 	0.96013 0.50690 0.47986 -0.16000
N 	N 	0.99612 0.54462 0.49211 -0.23000
N 	N 	0.04554 0.53750 0.51989 -0.20400
C 	C 	0.66673 0.50452 0.04773 0.09200
N 	N 	0.68437 0.53841 0.01270 -0.04900
N 	N 	0.74849 0.54652 0.00392 -0.04600
C 	C 	0.79681 0.52076 0.02972 0.09000
N 	N 	0.77922 0.48900 0.06666 -0.05400
N 	N 	0.71511 0.48114 0.07565 -0.05100
C 	C 	0.16561 0.47739 0.99252 0.07500
N 	N 	0.21141 0.50084 0.96441 -0.05000
N 	N 	0.27636 0.49344 0.97345 -0.06600
C 	C 	0.29739 0.46204 0.01057 0.11100
N 	N 	0.25162 0.43614 0.03653 -0.05000
N 	N 	0.18667 0.44382 0.02773 -0.03800
C 	C 	0.94442 0.51516 0.80808 0.05600
N 	N 	0.94314 0.47184 0.78456 -0.05100
N 	N 	0.93031 0.47165 0.73640 -0.05100
C 	C 	0.91858 0.51477 0.71053 0.06400
N 	N 	0.91890 0.55794 0.73425 -0.05100
N 	N 	0.93102 0.55809 0.78243 -0.04900
C 	C 	0.04180 0.51040 0.20482 0.07800
N 	N 	0.05837 0.55074 0.23030 -0.04800
N 	N 	0.07270 0.54627 0.27820 -0.04800
C 	C 	0.07079 0.50135 0.30198 0.06000
N 	N 	0.05390 0.46101 0.27655 -0.04600
N 	N 	0.04021 0.46541 0.22851 -0.04500
C 	C 	0.00544 0.69049 0.49244 0.09100
N 	N 	0.03743 0.71705 0.45710 -0.05500
N 	N 	0.02097 0.76429 0.44743 -0.03100
C 	C 	0.97149 0.78604 0.47238 0.04100
N 	N 	0.93839 0.75904 0.50676 -0.04900
N 	N 	0.95513 0.71195 0.51664 -0.07300
C 	C 	0.99472 0.19357 0.48621 0.00600
N 	N 	0.03458 0.21863 0.45451 -0.02600
N 	N 	0.02232 0.26603 0.44244 -0.03400
C 	C 	0.96937 0.28969 0.46127 0.05600
N 	N 	0.92985 0.26483 0.49341 -0.04900
N 	N 	0.94212 0.21736 0.50548 -0.04100
C 	C 	0.81809 0.99197 0.51954 0.09000
N 	N 	0.78768 0.03104 0.53965 -0.05900
N 	N 	0.72355 0.02864 0.55104 -0.05100
C 	C 	0.68805 0.98725 0.54232 0.09100
N 	N 	0.71993 0.94707 0.52539 -0.05800
N 	N 	0.78413 0.94935 0.51430 -0.04900
C 	C 	0.18639 0.97024 0.50916 0.09500
N 	N 	0.22136 0.97928 0.55100 -0.04700
N 	N 	0.28625 0.96863 0.55458 -0.05600
C 	C 	0.31788 0.94851 0.51649 0.09400
N 	N 	0.28134 0.93531 0.47654 -0.05100
N 	N 	0.21655 0.94640 0.47272 -0.05900
C 	C 	0.96370 0.80287 0.98328 0.03400
N 	N 	0.00730 0.77895 0.95491 -0.03000
N 	N 	0.01959 0.73084 0.96288 -0.02600
C 	C 	0.98907 0.70534 0.99971 -0.00200
N 	N 	0.94595 0.72938 0.02841 -0.03100
N 	N 	0.93369 0.77752 0.02046 -0.03600
C 	C 	0.97444 0.20693 0.99308 0.05000
N 	N 	0.99856 0.23408 0.95470 -0.05500
N 	N 	0.98075 0.28138 0.94760 -0.05300
C 	C 	0.93781 0.30277 0.97842 0.05400
N 	N 	0.91355 0.27559 0.01673 -0.03600
N 	N 	0.93139 0.22828 0.02384 -0.03600
C 	C 	0.67887 0.99111 0.02786 0.10400
N 	N 	0.72677 0.97226 0.05920 -0.05200
N 	N 	0.79055 0.98270 0.05212 -0.05800
C 	C 	0.80803 0.01249 0.01366 0.12300
N 	N 	0.75985 0.03281 0.98339 -0.06600
N 	N 	0.69607 0.02222 0.99036 -0.06500
C 	C 	0.17820 0.98751 0.00283 0.12100
N 	N 	0.22438 0.00633 0.97203 -0.06400
N 	N 	0.28896 0.99777 0.98116 -0.06700
C 	C 	0.30898 0.97013 0.02131 0.10600
N 	N 	0.26273 0.94985 0.05114 -0.04900
N 	N 	0.19815 0.95846 0.04204 -0.05100
C 	C 	0.02975 0.02252 0.70641 0.09600
N 	N 	0.05649 0.98457 0.73445 -0.04700
N 	N 	0.04489 0.98094 0.78235 -0.05000
C 	C 	0.00601 0.01507 0.80351 0.11800
N 	N 	0.97934 0.05309 0.77550 -0.06800
N 	N 	0.99082 0.05665 0.72755 -0.06700
C 	C 	0.00812 0.00459 0.30293 0.07900
N 	N 	0.05358 0.97722 0.27937 -0.04500
N 	N 	0.06371 0.98576 0.23163 -0.04800
C 	C 	0.02933 0.02233 0.20631 0.09800
N 	N 	0.98369 0.04946 0.22983 -0.06800
N 	N 	0.97338 0.04081 0.27745 -0.06200
