data_crystal

_cell_length_a 18.55333
_cell_length_b 18.95469
_cell_length_c 26.51134
_cell_angle_alpha 95.47317
_cell_angle_beta  95.47259
_cell_angle_gamma 126.42283

_symmetry_space_group_name_	'P 1'
_symmetry_space_group_name_H-M	'P 1'

loop_
_symmetry_equiv_pos_as_xyz
  x,y,z

loop_
_atom_site_label
_atom_site_type_symbol
_atom_site_fract_x
_atom_site_fract_y
_atom_site_fract_z
_atom_site_charge
C 	C 	0.94389 0.02814 0.00280 0.08100
C 	C 	0.03654 0.07029 0.00156 -0.07900
C 	C 	0.06844 0.01926 0.99633 0.07300
C 	C 	0.00783 0.92659 0.99224 -0.09800
C 	C 	0.91597 0.88471 0.99408 0.07600
C 	C 	0.88398 0.93534 0.99951 -0.10800
H 	H 	0.08315 0.14201 0.00411 0.06700
H 	H 	0.03225 0.88705 0.98777 0.06100
H 	H 	0.81244 0.90253 0.00030 0.07400
C 	C 	0.91659 0.00939 0.45292 0.07000
C 	C 	0.01123 0.06485 0.45600 -0.09100
C 	C 	0.05918 0.02950 0.45817 0.07800
C 	C 	0.01308 0.93836 0.45718 -0.09000
C 	C 	0.91855 0.88175 0.45432 0.07000
C 	C 	0.86971 0.91726 0.45251 -0.09400
H 	H 	0.04771 0.13586 0.45712 0.05900
H 	H 	0.05088 0.91146 0.45901 0.07400
H 	H 	0.79661 0.87400 0.45081 0.06600
Cu	Cu	0.61791 0.20369 0.01087 0.93100
Cu	Cu	0.70259 0.21608 0.90614 0.87500
Cu	Cu	0.65578 0.33424 0.93845 0.89900
Cu	Cu	0.59678 0.35493 0.03647 0.90200
C 	C 	0.62799 0.26925 0.11602 0.33100
O 	O 	0.48127 0.13806 0.00630 -0.34600
C 	C 	0.64415 0.27410 0.82789 0.32700
O 	O 	0.67934 0.33957 0.01154 -0.63500
O 	O 	0.60696 0.20704 0.93602 -0.64000
O 	O 	0.68723 0.15344 0.01416 -0.35300
O 	O 	0.78516 0.25147 0.96780 -0.43500
O 	O 	0.58168 0.29682 0.09776 -0.35900
O 	O 	0.71125 0.46020 0.94565 -0.36400
C 	C 	0.70274 0.50601 0.98215 0.30800
C 	C 	0.44002 0.16842 0.98513 0.30100
O 	O 	0.48917 0.24931 0.97528 -0.38200
O 	O 	0.63858 0.46557 0.00999 -0.37700
O 	O 	0.64584 0.22477 0.08497 -0.35100
C 	C 	0.76464 0.19294 0.99740 0.30100
O 	O 	0.64752 0.33110 0.86312 -0.34700
O 	O 	0.64541 0.20918 0.84042 -0.41700
H 	H 	0.74398 0.38442 0.02879 0.17500
H 	H 	0.54506 0.16334 0.91476 0.18100
Cu	Cu	0.75696 0.34962 0.44164 0.92600
Cu	Cu	0.78173 0.29733 0.55597 0.88500
Cu	Cu	0.62656 0.31958 0.51436 0.91600
Cu	Cu	0.59530 0.36315 0.41320 0.90100
C 	C 	0.67888 0.32559 0.33586 0.33100
O 	O 	0.81966 0.48375 0.44374 -0.34300
C 	C 	0.66134 0.29914 0.61523 0.33000
O 	O 	0.61768 0.28889 0.44154 -0.63500
O 	O 	0.75593 0.36547 0.51712 -0.62700
O 	O 	0.79675 0.27009 0.43485 -0.34600
O 	O 	0.86779 0.30930 0.51853 -0.41300
O 	O 	0.65260 0.37360 0.35183 -0.38100
O 	O 	0.49908 0.26588 0.51054 -0.36500
C 	C 	0.44639 0.25960 0.47043 0.31600
C 	C 	0.78468 0.52200 0.46288 0.29800
O 	O 	0.70227 0.47213 0.47296 -0.38700
O 	O 	0.48059 0.31689 0.43885 -0.38500
O 	O 	0.73464 0.32059 0.36739 -0.32700
C 	C 	0.83860 0.25912 0.47281 0.30600
O 	O 	0.64165 0.34231 0.58866 -0.36900
O 	O 	0.67962 0.24884 0.59158 -0.39300
H 	H 	0.57246 0.22432 0.42687 0.17300
H 	H 	0.79813 0.42919 0.53402 0.16300
C 	C 	0.58491 0.20343 0.73469 -0.09300
C 	C 	0.63569 0.28121 0.77295 -0.12600
C 	C 	0.68686 0.36526 0.75832 0.33300
C 	C 	0.69135 0.37091 0.70626 -0.09100
C 	C 	0.64564 0.29299 0.66857 -0.13300
C 	C 	0.59008 0.20918 0.68281 0.34100
F 	F 	0.54197 0.13327 0.64643 -0.43900
H 	H 	0.54334 0.13834 0.74532 0.09600
H 	H 	0.73338 0.43586 0.69551 0.08700
F 	F 	0.73603 0.44128 0.79465 -0.44400
C 	C 	0.57675 0.24708 0.25007 -0.09200
C 	C 	0.66484 0.29705 0.27988 -0.12400
C 	C 	0.73980 0.32793 0.25529 0.34300
C 	C 	0.72684 0.31339 0.20128 -0.09000
C 	C 	0.63932 0.26858 0.17162 -0.12300
C 	C 	0.56388 0.23254 0.19622 0.34200
F 	F 	0.47831 0.18561 0.16789 -0.44100
H 	H 	0.51844 0.22176 0.26868 0.08500
H 	H 	0.78530 0.34058 0.18262 0.09500
F 	F 	0.82551 0.37615 0.28358 -0.43300
C 	C 	0.87220 0.78577 0.45446 -0.03200
C 	C 	0.85638 0.75519 0.50128 -0.09800
C 	C 	0.83519 0.67176 0.50538 0.18300
C 	C 	0.82793 0.61703 0.46211 -0.11300
C 	C 	0.84321 0.64737 0.41518 -0.04300
C 	C 	0.86411 0.73072 0.41105 0.13200
H 	H 	0.86391 0.79758 0.53511 0.07200
O 	O 	0.81930 0.64279 0.55142 -0.28600
H 	H 	0.83582 0.60507 0.38134 0.07300
O 	O 	0.88038 0.75991 0.36510 -0.27300
H 	H 	0.82033 0.73945 0.34632 0.15100
H 	H 	0.87956 0.66387 0.57025 0.14800
C 	C 	0.84368 0.18341 0.46515 -0.12200
C 	C 	0.85351 0.15559 0.41698 -0.03600
C 	C 	0.86573 0.08912 0.41061 0.13000
C 	C 	0.86859 0.04997 0.45267 -0.02700
C 	C 	0.84923 0.07109 0.49912 -0.10100
C 	C 	0.83741 0.13780 0.50572 0.18700
H 	H 	0.85464 0.18736 0.38486 0.07600
O 	O 	0.87695 0.06389 0.36355 -0.26800
H 	H 	0.84907 0.03982 0.53131 0.07300
O 	O 	0.81722 0.15639 0.55123 -0.31900
H 	H 	0.87704 0.20056 0.57465 0.14500
H 	H 	0.94320 0.10641 0.36354 0.14900
C 	C 	0.15820 0.08826 0.46153 -0.03000
C 	C 	0.19452 0.09119 0.41716 -0.09900
C 	C 	0.28880 0.14762 0.41979 0.19000
C 	C 	0.34743 0.20081 0.46730 -0.11700
C 	C 	0.31096 0.19730 0.51179 -0.03300
C 	C 	0.21659 0.14172 0.50895 0.13200
H 	H 	0.14953 0.04966 0.38061 0.07900
O 	O 	0.32379 0.14773 0.37644 -0.29300
H 	H 	0.35577 0.23825 0.54848 0.07300
O 	O 	0.18151 0.13767 0.55280 -0.27000
H 	H 	0.17247 0.18438 0.55472 0.14700
H 	H 	0.32627 0.19300 0.35903 0.15400
C 	C 	0.75379 0.60274 0.98520 -0.11700
C 	C 	0.76410 0.63774 0.93982 -0.03900
C 	C 	0.81424 0.72992 0.94252 0.13500
C 	C 	0.85365 0.78764 0.99084 -0.04000
C 	C 	0.84170 0.75264 0.03615 -0.09400
C 	C 	0.79187 0.66057 0.03356 0.19000
H 	H 	0.73345 0.59354 0.90246 0.08300
O 	O 	0.82391 0.76349 0.89793 -0.27100
H 	H 	0.87304 0.79710 0.07344 0.07200
O 	O 	0.78475 0.62766 0.07825 -0.29500
H 	H 	0.73005 0.61758 0.08905 0.15400
H 	H 	0.87987 0.77458 0.88856 0.15200
C 	C 	0.81599 0.15610 0.00062 -0.11400
C 	C 	0.85151 0.14788 0.95783 -0.04700
C 	C 	0.89748 0.11029 0.95934 0.12400
C 	C 	0.90795 0.07988 0.00377 -0.02500
C 	C 	0.87508 0.09049 0.04718 -0.10000
C 	C 	0.82888 0.12810 0.04571 0.18900
H 	H 	0.84166 0.16881 0.92285 0.03500
O 	O 	0.92760 0.09872 0.91629 -0.27500
H 	H 	0.88369 0.06789 0.08170 0.07600
O 	O 	0.79924 0.14014 0.08887 -0.27700
H 	H 	0.73745 0.08342 0.08654 0.16400
H 	H 	0.99062 0.15432 0.91978 0.14500
C 	C 	0.34285 0.12343 0.98616 -0.11800
C 	C 	0.31009 0.09660 0.03161 -0.03800
C 	C 	0.22172 0.06610 0.03595 0.14200
C 	C 	0.16517 0.06224 0.99462 -0.03700
C 	C 	0.19766 0.08871 0.94911 -0.09700
C 	C 	0.28589 0.11865 0.94461 0.18400
H 	H 	0.35407 0.10180 0.06418 0.09600
O 	O 	0.19160 0.04257 0.08118 -0.25900
H 	H 	0.15389 0.08448 0.91684 0.07300
O 	O 	0.31698 0.14487 0.89997 -0.28300
H 	H 	0.30046 0.09026 0.87779 0.15000
H 	H 	0.16442 0.97838 0.07756 0.14700
