data_crystal

_cell_length_a 28.26308
_cell_length_b 28.24054
_cell_length_c 15.38412
_cell_angle_alpha 90.31820
_cell_angle_beta  90.31833
_cell_angle_gamma 119.99595

_symmetry_space_group_name_	'P 1'
_symmetry_space_group_name_H-M	'P 1'

loop_
_symmetry_equiv_pos_as_xyz
  x,y,z

loop_
_atom_site_label
_atom_site_type_symbol
_atom_site_fract_x
_atom_site_fract_y
_atom_site_fract_z
_atom_site_charge
C 	C 	0.49124 0.81115 0.23878 0.30100
C 	C 	0.65187 0.75372 0.11266 0.33400
C 	C 	0.49147 0.67837 0.23753 0.32600
C 	C 	0.66215 0.89637 0.11565 0.29700
C 	C 	0.64527 0.74940 0.39200 0.32200
C 	C 	0.64530 0.88388 0.40535 0.30700
Ni	Ni	0.56387 0.78133 0.13906 1.11700
Ni	Ni	0.67375 0.83187 0.25801 1.12200
Ni	Ni	0.55744 0.77470 0.34928 1.12300
O 	O 	0.52127 0.82154 0.16773 -0.36000
O 	O 	0.49129 0.77821 0.30079 -0.37300
O 	O 	0.66494 0.76387 0.31341 -0.38400
O 	O 	0.59884 0.73317 0.11600 -0.37300
O 	O 	0.68515 0.80326 0.14280 -0.37800
O 	O 	0.59146 0.84992 0.40308 -0.37400
O 	O 	0.49268 0.71104 0.17597 -0.36800
O 	O 	0.52717 0.69766 0.30180 -0.38100
O 	O 	0.68018 0.86905 0.37497 -0.38000
O 	O 	0.62860 0.84854 0.07732 -0.35300
O 	O 	0.68719 0.89897 0.19067 -0.37900
O 	O 	0.60986 0.76248 0.42296 -0.36500
O 	O 	0.59807 0.80693 0.24742 -0.72000
H 	H 	0.59921 0.84233 0.25007 0.15700
C 	C 	0.07726 0.77083 0.39254 0.30400
C 	C 	0.29208 0.81646 0.25491 0.32700
C 	C 	0.21813 0.90259 0.38620 0.33000
C 	C 	0.16040 0.68323 0.26183 0.30100
C 	C 	0.21717 0.89693 0.10890 0.32800
C 	C 	0.08206 0.76074 0.10211 0.30600
Ni	Ni	0.19166 0.78724 0.35996 1.11700
Ni	Ni	0.19299 0.78407 0.14924 1.12200
Ni	Ni	0.13721 0.84370 0.24569 1.12400
O 	O 	0.12596 0.78498 0.42691 -0.35600
O 	O 	0.07234 0.79032 0.31658 -0.37300
O 	O 	0.20352 0.84832 0.07666 -0.37000
O 	O 	0.26115 0.78613 0.31853 -0.37200
O 	O 	0.27118 0.83143 0.19157 -0.38100
O 	O 	0.09787 0.81126 0.13054 -0.36800
O 	O 	0.23950 0.87082 0.38084 -0.37000
O 	O 	0.16765 0.88479 0.35990 -0.37200
O 	O 	0.11684 0.74189 0.09905 -0.38400
O 	O 	0.15094 0.70418 0.33271 -0.36100
O 	O 	0.19076 0.71488 0.19668 -0.37300
O 	O 	0.20451 0.90212 0.18888 -0.38600
O 	O 	0.16304 0.79362 0.25353 -0.72000
H 	H 	0.12780 0.75917 0.25275 0.15800
C 	C 	0.15540 0.47832 0.26248 0.30700
C 	C 	0.21478 0.31894 0.38932 0.32500
C 	C 	0.28808 0.47739 0.25734 0.32100
C 	C 	0.07356 0.30755 0.39443 0.30500
C 	C 	0.21480 0.32292 0.10972 0.32700
C 	C 	0.07882 0.32201 0.10237 0.31000
Ni	Ni	0.18734 0.40692 0.36155 1.11600
Ni	Ni	0.13421 0.29536 0.24673 1.12300
Ni	Ni	0.18913 0.41036 0.15117 1.12400
O 	O 	0.14648 0.44908 0.33421 -0.37200
O 	O 	0.18689 0.47732 0.19885 -0.36100
O 	O 	0.20094 0.30315 0.18837 -0.39000
O 	O 	0.23567 0.37191 0.38236 -0.37600
O 	O 	0.16498 0.28513 0.36075 -0.36400
O 	O 	0.11289 0.37579 0.10170 -0.37000
O 	O 	0.25663 0.47741 0.31990 -0.36000
O 	O 	0.26737 0.44153 0.19337 -0.38300
O 	O 	0.09446 0.28752 0.13175 -0.38100
O 	O 	0.12202 0.34337 0.42856 -0.35800
O 	O 	0.06904 0.28343 0.31783 -0.37700
O 	O 	0.19942 0.35647 0.07830 -0.37400
O 	O 	0.15933 0.37119 0.25514 -0.72200
H 	H 	0.12391 0.36999 0.25448 0.16100
C 	C 	0.88949 0.67573 0.61362 0.30400
C 	C 	0.67482 0.50279 0.74533 0.32100
C 	C 	0.74778 0.66285 0.61473 0.32600
C 	C 	0.80749 0.50319 0.74042 0.30700
C 	C 	0.74435 0.65540 0.89477 0.32200
C 	C 	0.88183 0.65880 0.90426 0.30300
Ni	Ni	0.77570 0.57521 0.64248 1.11700
Ni	Ni	0.77252 0.56993 0.85282 1.12300
Ni	Ni	0.82662 0.68562 0.75997 1.12300
O 	O 	0.84154 0.63984 0.57779 -0.35500
O 	O 	0.89272 0.69915 0.69048 -0.37200
O 	O 	0.76100 0.62287 0.92618 -0.37800
O 	O 	0.70607 0.50397 0.68144 -0.36900
O 	O 	0.69504 0.53944 0.80806 -0.37100
O 	O 	0.86552 0.69291 0.87564 -0.37200
O 	O 	0.72705 0.60991 0.62191 -0.36300
O 	O 	0.79692 0.69686 0.64555 -0.37700
O 	O 	0.84846 0.60488 0.90354 -0.37300
O 	O 	0.81668 0.53303 0.66928 -0.36900
O 	O 	0.77561 0.50357 0.80397 -0.37200
O 	O 	0.75890 0.67626 0.81688 -0.37800
O 	O 	0.80283 0.61006 0.74982 -0.72100
H 	H 	0.83843 0.61163 0.75079 0.16300
C 	C 	0.80283 0.29847 0.73819 0.30300
C 	C 	0.74394 0.07730 0.61996 0.32800
C 	C 	0.67018 0.16562 0.74694 0.32700
C 	C 	0.88508 0.20798 0.61494 0.29600
C 	C 	0.74234 0.08620 0.89933 0.33000
C 	C 	0.87910 0.22147 0.90360 0.29600
Ni	Ni	0.77076 0.19292 0.64351 1.11800
Ni	Ni	0.82344 0.13662 0.76270 1.12500
Ni	Ni	0.76884 0.19892 0.85395 1.12100
O 	O 	0.81154 0.27654 0.66770 -0.36200
O 	O 	0.77151 0.26747 0.80302 -0.37200
O 	O 	0.75605 0.07894 0.82112 -0.38500
O 	O 	0.72265 0.10908 0.62542 -0.36700
O 	O 	0.79363 0.09407 0.64932 -0.37600
O 	O 	0.84498 0.24116 0.90419 -0.37800
O 	O 	0.70116 0.19474 0.68241 -0.36400
O 	O 	0.69088 0.15113 0.81117 -0.38500
O 	O 	0.86267 0.17042 0.87737 -0.35600
O 	O 	0.83666 0.19379 0.57908 -0.34600
O 	O 	0.88902 0.18858 0.69172 -0.37100
O 	O 	0.75790 0.13572 0.92921 -0.37900
O 	O 	0.79868 0.18747 0.75118 -0.72000
H 	H 	0.83410 0.22173 0.75125 0.15800
C 	C 	0.29983 0.08531 0.88868 0.30200
C 	C 	0.47020 0.30290 0.76317 0.32500
C 	C 	0.30880 0.22612 0.89141 0.31900
C 	C 	0.47103 0.17111 0.76393 0.30500
C 	C 	0.31642 0.23191 0.61211 0.32500
C 	C 	0.31649 0.09702 0.59773 0.30800
Ni	Ni	0.39799 0.20058 0.86345 1.11800
Ni	Ni	0.40389 0.20625 0.65329 1.12400
Ni	Ni	0.28786 0.14873 0.74517 1.12400
O 	O 	0.33390 0.13331 0.92601 -0.36300
O 	O 	0.27543 0.08209 0.81282 -0.36200
O 	O 	0.35066 0.21754 0.58044 -0.38400
O 	O 	0.46883 0.27125 0.82659 -0.36300
O 	O 	0.43345 0.28313 0.70057 -0.37500
O 	O 	0.28155 0.11171 0.62817 -0.37700
O 	O 	0.36189 0.24781 0.88557 -0.35900
O 	O 	0.27584 0.17674 0.86047 -0.36900
O 	O 	0.37025 0.13098 0.60015 -0.38100
O 	O 	0.44127 0.16099 0.83527 -0.36400
O 	O 	0.47051 0.20358 0.70151 -0.36800
O 	O 	0.29590 0.21655 0.69007 -0.37900
O 	O 	0.36368 0.17413 0.75545 -0.72100
H 	H 	0.36289 0.13889 0.75318 0.16000
C 	C 	0.61472 0.15753 0.75484 -0.10400
C 	C 	0.59839 0.16942 0.83401 -0.05200
C 	C 	0.54949 0.17039 0.83922 0.17000
C 	C 	0.51614 0.15906 0.76458 -0.09300
C 	C 	0.53052 0.14317 0.68709 -0.06000
C 	C 	0.57980 0.14277 0.68175 0.17700
H 	H 	0.62487 0.18047 0.89072 0.06100
O 	O 	0.53651 0.18646 0.91548 -0.27900
H 	H 	0.50439 0.13294 0.63006 0.06500
O 	O 	0.59320 0.12689 0.60568 -0.28100
H 	H 	0.61208 0.16053 0.57041 0.15800
H 	H 	0.51539 0.15238 0.94906 0.15500
C 	C 	0.61801 0.45699 0.75034 -0.09900
C 	C 	0.58935 0.43140 0.67351 -0.05500
C 	C 	0.53914 0.38267 0.67681 0.17300
C 	C 	0.51683 0.35926 0.75789 -0.10200
C 	C 	0.54324 0.38737 0.83466 -0.05200
C 	C 	0.59403 0.43537 0.83140 0.17200
H 	H 	0.60680 0.44839 0.61090 0.07100
O 	O 	0.51381 0.35633 0.60079 -0.28800
H 	H 	0.52549 0.37068 0.89725 0.07400
O 	O 	0.62056 0.46040 0.90748 -0.27600
H 	H 	0.64273 0.44327 0.92275 0.14600
H 	H 	0.48998 0.37141 0.58446 0.15600
C 	C 	0.81824 0.45709 0.73673 -0.09500
C 	C 	0.80994 0.42827 0.65823 -0.05700
C 	C 	0.80855 0.37805 0.65685 0.17000
C 	C 	0.81571 0.35609 0.73477 -0.09500
C 	C 	0.82889 0.38725 0.81179 -0.05900
C 	C 	0.82995 0.43745 0.81315 0.17000
H 	H 	0.80161 0.44332 0.59879 0.07000
O 	O 	0.79617 0.34875 0.58049 -0.27800
H 	H 	0.83654 0.37173 0.87133 0.06600
O 	O 	0.84343 0.46766 0.88870 -0.28300
H 	H 	0.80875 0.45331 0.92112 0.15400
H 	H 	0.83181 0.36118 0.55192 0.15400
C 	C 	0.93170 0.25182 0.95053 -0.07600
C 	C 	0.93474 0.27808 0.02995 -0.07600
C 	C 	0.98309 0.30179 0.07948 0.17700
C 	C 	0.02886 0.29969 0.04932 -0.11400
C 	C 	0.02639 0.27497 0.96891 -0.03200
C 	C 	0.97832 0.25166 0.91903 0.15800
H 	H 	0.89921 0.27875 0.05450 0.07000
O 	O 	0.98557 0.32717 0.15709 -0.28900
H 	H 	0.06182 0.27384 0.94501 0.07100
O 	O 	0.97662 0.22778 0.84028 -0.27700
H 	H 	0.98813 0.25743 0.79712 0.15500
H 	H 	0.97392 0.29824 0.20159 0.15200
C 	C 	0.02620 0.28342 0.45203 -0.09800
C 	C 	0.98507 0.29698 0.44257 -0.06000
C 	C 	0.93965 0.27390 0.49737 0.16800
C 	C 	0.93438 0.23548 0.56043 -0.09300
C 	C 	0.97608 0.22254 0.57021 -0.06300
C 	C 	0.02171 0.24623 0.51625 0.17400
H 	H 	0.98851 0.32578 0.39326 0.06300
O 	O 	0.90042 0.28869 0.48887 -0.28100
H 	H 	0.97273 0.19335 0.61871 0.07400
O 	O 	0.06232 0.23354 0.52712 -0.27200
H 	H 	0.05196 0.20149 0.48854 0.15400
H 	H 	0.91207 0.32039 0.52879 0.14900
C 	C 	0.24268 0.29798 0.44475 -0.10200
C 	C 	0.26181 0.32095 0.52762 -0.05200
C 	C 	0.28699 0.30029 0.58200 0.17000
C 	C 	0.29299 0.25613 0.55372 -0.10500
C 	C 	0.27473 0.23380 0.47022 -0.05500
C 	C 	0.24980 0.25465 0.41569 0.17100
H 	H 	0.25650 0.35438 0.55038 0.06700
O 	O 	0.30472 0.32260 0.66336 -0.27200
H 	H 	0.27905 0.19965 0.44810 0.06900
O 	O 	0.23156 0.23199 0.33467 -0.28300
H 	H 	0.26284 0.25304 0.29542 0.15200
H 	H 	0.34314 0.35204 0.65576 0.15400
C 	C 	0.28645 0.25305 0.94599 -0.08000
C 	C 	0.24302 0.25893 0.91467 -0.06300
C 	C 	0.21974 0.28228 0.96742 0.19200
C 	C 	0.24069 0.30097 0.05186 -0.12200
C 	C 	0.28443 0.29547 0.08287 -0.04300
C 	C 	0.30696 0.27112 0.03074 0.15400
H 	H 	0.22696 0.24495 0.84960 0.07700
O 	O 	0.17634 0.28647 0.93656 -0.27300
H 	H 	0.30061 0.30954 0.14784 0.06300
O 	O 	0.34885 0.26480 0.06285 -0.28200
H 	H 	0.33087 0.22849 0.09103 0.14600
H 	H 	0.14335 0.25193 0.95339 0.15600
C 	C 	0.23782 0.94441 0.05058 -0.11700
C 	C 	0.22036 0.98267 0.06196 -0.04000
C 	C 	0.24042 0.02863 0.00891 0.15300
C 	C 	0.27749 0.03626 0.94260 -0.08100
C 	C 	0.29447 0.99782 0.93001 -0.06000
C 	C 	0.27533 0.95228 0.98440 0.19100
H 	H 	0.19105 0.97671 0.11194 0.06500
O 	O 	0.22247 0.06529 0.02026 -0.27500
H 	H 	0.32319 0.00367 0.87905 0.06900
O 	O 	0.29328 0.91566 0.97273 -0.26600
H 	H 	0.32631 0.92932 0.01021 0.14400
H 	H 	0.24822 0.09261 0.06295 0.15300
C 	C 	0.24683 0.95391 0.43670 -0.10300
C 	C 	0.27632 0.95647 0.51215 -0.04500
C 	C 	0.30066 0.00389 0.56379 0.16600
C 	C 	0.29502 0.04888 0.54069 -0.09600
C 	C 	0.26718 0.04709 0.46396 -0.05900
C 	C 	0.24316 0.99991 0.41188 0.17900
H 	H 	0.27934 0.92127 0.53182 0.07000
O 	O 	0.32754 0.00516 0.63909 -0.28300
H 	H 	0.26390 0.08226 0.44492 0.06800
O 	O 	0.21802 0.99956 0.33510 -0.28400
H 	H 	0.17981 0.98819 0.35067 0.15300
H 	H 	0.36614 0.01961 0.62215 0.15500
C 	C 	0.93842 0.69951 0.55863 -0.09400
C 	C 	0.97434 0.75625 0.56012 -0.05600
C 	C 	0.01970 0.77967 0.50569 0.17400
C 	C 	0.02978 0.74633 0.44962 -0.09500
C 	C 	0.99432 0.68965 0.44830 -0.06200
C 	C 	0.94896 0.66603 0.50315 0.17100
H 	H 	0.96658 0.78237 0.60249 0.07200
O 	O 	0.05483 0.83511 0.50859 -0.27200
H 	H 	0.00205 0.66384 0.40514 0.06400
O 	O 	0.91479 0.61042 0.50188 -0.28400
H 	H 	0.92976 0.59612 0.54651 0.15500
H 	H 	0.04047 0.85051 0.46482 0.15200
C 	C 	0.02926 0.73026 0.05553 -0.11300
C 	C 	0.02553 0.70208 0.97787 -0.03400
C 	C 	0.97682 0.67726 0.92930 0.16100
C 	C 	0.93178 0.68138 0.95746 -0.07800
C 	C 	0.93487 0.70803 0.03618 -0.07400
C 	C 	0.98301 0.73164 0.08594 0.17600
H 	H 	0.06075 0.70056 0.95400 0.07100
O 	O 	0.97422 0.65138 0.85219 -0.28100
H 	H 	0.89985 0.71038 0.05891 0.07000
O 	O 	0.98509 0.75680 0.16356 -0.28500
H 	H 	0.97334 0.72776 0.20788 0.15400
H 	H 	0.96099 0.61271 0.86763 0.16000
C 	C 	0.14976 0.62649 0.26536 -0.09600
C 	C 	0.13536 0.59449 0.18916 -0.05800
C 	C 	0.13284 0.54362 0.18914 0.17000
C 	C 	0.14530 0.52470 0.26562 -0.09600
C 	C 	0.15550 0.55476 0.34316 -0.05700
C 	C 	0.15892 0.60583 0.34309 0.17100
H 	H 	0.12729 0.60955 0.12948 0.06500
O 	O 	0.12016 0.51345 0.11365 -0.28100
H 	H 	0.16436 0.54019 0.40266 0.07000
O 	O 	0.17300 0.63626 0.41848 -0.27800
H 	H 	0.21349 0.65813 0.41850 0.15100
H 	H 	0.07991 0.48927 0.11437 0.15600
C 	C 	0.66738 0.93441 0.45789 -0.09600
C 	C 	0.71290 0.98227 0.42800 -0.05800
C 	C 	0.73815 0.02909 0.48087 0.17200
C 	C 	0.71736 0.02857 0.56389 -0.10700
C 	C 	0.67113 0.98130 0.59319 -0.04900
C 	C 	0.64612 0.93418 0.54076 0.17100
H 	H 	0.72915 0.98296 0.36405 0.06400
O 	O 	0.78220 0.07582 0.45033 -0.28000
H 	H 	0.65507 0.98076 0.65724 0.07100
O 	O 	0.60300 0.88719 0.57257 -0.27100
H 	H 	0.56999 0.88928 0.55705 0.15700
H 	H 	0.81470 0.07324 0.46765 0.15800
C 	C 	0.68101 0.94712 0.06527 -0.08600
C 	C 	0.73485 0.99059 0.07580 -0.06000
C 	C 	0.75433 0.03717 0.02407 0.16300
C 	C 	0.72027 0.04029 0.96012 -0.10500
C 	C 	0.66611 0.99777 0.95101 -0.02600
C 	C 	0.64601 0.95176 0.00441 0.13800
H 	H 	0.76210 0.98777 0.12264 0.07000
O 	O 	0.80763 0.07830 0.03283 -0.28100
H 	H 	0.63956 0.00028 0.90238 0.06100
O 	O 	0.59247 0.91112 0.99620 -0.25300
H 	H 	0.57210 0.92113 0.03771 0.14500
H 	H 	0.80700 0.10389 0.07661 0.15600
C 	C 	0.67382 0.72607 0.05888 -0.12100
C 	C 	0.65259 0.70764 0.97495 -0.03000
C 	C 	0.67417 0.68271 0.92208 0.16400
C 	C 	0.71765 0.67636 0.95284 -0.08400
C 	C 	0.73775 0.69326 0.03779 -0.07500
C 	C 	0.71627 0.71838 0.09059 0.18200
H 	H 	0.61979 0.71332 0.95022 0.06800
O 	O 	0.65353 0.66567 0.83968 -0.27000
H 	H 	0.77097 0.68815 0.06220 0.07100
O 	O 	0.73546 0.73360 0.17411 -0.28500
H 	H 	0.76668 0.77145 0.16978 0.15100
H 	H 	0.62393 0.62717 0.84589 0.16100
C 	C 	0.66932 0.72574 0.45058 -0.09800
C 	C 	0.67786 0.68370 0.42025 -0.05700
C 	C 	0.70347 0.66296 0.47355 0.17600
C 	C 	0.72014 0.68382 0.55855 -0.10200
C 	C 	0.71164 0.72583 0.58894 -0.05100
C 	C 	0.68673 0.74714 0.53524 0.16900
H 	H 	0.66505 0.66737 0.35501 0.07900
O 	O 	0.71217 0.62234 0.44245 -0.28400
H 	H 	0.72454 0.74218 0.65416 0.07300
O 	O 	0.67955 0.78891 0.56551 -0.26400
H 	H 	0.71310 0.82301 0.54891 0.15500
H 	H 	0.74868 0.64158 0.41508 0.15400
C 	C 	0.44615 0.82325 0.23785 -0.09400
C 	C 	0.43172 0.83923 0.31518 -0.06100
C 	C 	0.38257 0.83992 0.32015 0.17500
C 	C 	0.34788 0.82547 0.24680 -0.10600
C 	C 	0.36444 0.81381 0.16766 -0.05300
C 	C 	0.41279 0.81171 0.16316 0.16800
H 	H 	0.45769 0.84931 0.37237 0.06500
O 	O 	0.36903 0.85570 0.39619 -0.28000
H 	H 	0.33829 0.80334 0.11062 0.06100
O 	O 	0.42649 0.79679 0.08644 -0.27800
H 	H 	0.40883 0.75635 0.08825 0.15000
H 	H 	0.34992 0.82197 0.43123 0.15300
C 	C 	0.44465 0.62201 0.24187 -0.10100
C 	C 	0.42409 0.59839 0.32308 -0.05600
C 	C 	0.37489 0.54876 0.32837 0.17300
C 	C 	0.34499 0.52294 0.25211 -0.10300
C 	C 	0.36789 0.54402 0.17077 -0.05600
C 	C 	0.41748 0.59331 0.16535 0.17200
H 	H 	0.44534 0.61931 0.38235 0.06700
O 	O 	0.35529 0.52641 0.40827 -0.28000
H 	H 	0.34628 0.52335 0.11158 0.06500
O 	O 	0.43998 0.61261 0.08541 -0.28000
H 	H 	0.42249 0.63333 0.06402 0.15200
H 	H 	0.37032 0.50190 0.41944 0.15300
