data_crystal

_cell_length_a 16.34978
_cell_length_b 16.15710
_cell_length_c 36.81728
_cell_angle_alpha 89.88033
_cell_angle_beta  89.88311
_cell_angle_gamma 119.44927

_symmetry_space_group_name_	'P 1'
_symmetry_space_group_name_H-M	'P 1'

loop_
_symmetry_equiv_pos_as_xyz
  x,y,z

loop_
_atom_site_label
_atom_site_type_symbol
_atom_site_fract_x
_atom_site_fract_y
_atom_site_fract_z
_atom_site_charge
Ni	Ni	0.05867 0.91814 0.76014 1.11300
Ni	Ni	0.07611 0.12842 0.75773 1.11500
O 	O 	0.02295 0.17902 0.19071 -0.37300
O 	O 	0.00413 0.86954 0.27064 -0.37900
C 	C 	0.00232 0.80920 0.34306 -0.00400
C 	C 	0.01273 0.39682 0.46834 -0.01200
H 	H 	0.02380 0.40644 0.43926 0.03400
C 	C 	0.15219 0.50914 0.94771 -0.01300
C 	C 	0.07057 0.45042 0.00497 -0.02800
H 	H 	0.20974 0.56341 0.93197 0.04500
C 	C 	0.14575 0.05076 0.69782 0.29100
O 	O 	0.19382 0.02265 0.77288 -0.38200
O 	O 	0.17427 0.14420 0.79597 -0.36700
O 	O 	0.08307 0.96328 0.70656 -0.37200
O 	O 	0.16532 0.12199 0.72021 -0.37100
C 	C 	0.16963 0.53271 0.48020 0.27800
O 	O 	0.16201 0.61069 0.48267 -0.36400
C 	C 	0.21606 0.60744 0.00277 0.29400
O 	O 	0.19887 0.65360 0.02849 -0.36300
C 	C 	0.07002 0.15344 0.16867 0.29800
C 	C 	0.07750 0.22004 0.27141 0.28400
C 	C 	0.06212 0.89009 0.19488 0.30600
C 	C 	0.05699 0.93475 0.29496 0.29000
Ni	Ni	0.10955 0.06975 0.23395 1.11800
O 	O 	0.12356 0.95907 0.21570 -0.37600
O 	O 	0.10667 0.10212 0.18075 -0.37800
O 	O 	0.11432 0.02460 0.28482 -0.38600
O 	O 	0.13278 0.20159 0.25009 -0.37600
C 	C 	0.06219 0.26772 0.07994 -0.01000
C 	C 	0.15791 0.31219 0.07021 -0.06700
C 	C 	0.18117 0.21779 0.11621 -0.00700
C 	C 	0.09360 0.19355 0.13150 -0.06800
C 	C 	0.03122 0.21250 0.11175 -0.00500
C 	C 	0.04948 0.68469 0.14132 -0.00900
C 	C 	0.02790 0.75277 0.15446 -0.00700
C 	C 	0.08499 0.81819 0.18085 -0.06900
H 	H 	0.00668 0.63668 0.12007 0.04300
C 	C 	0.10822 0.39399 0.34559 -0.00900
C 	C 	0.12049 0.30568 0.29454 -0.06100
C 	C 	0.07106 0.31124 0.32480 -0.01100
H 	H 	0.07051 0.39624 0.36947 0.03700
C 	C 	0.11077 0.81915 0.38991 -0.06000
C 	C 	0.02482 0.76768 0.37192 -0.00800
C 	C 	0.06676 0.90199 0.33149 -0.06700
C 	C 	0.07395 0.42488 0.52945 -0.00600
C 	C 	0.08907 0.44310 0.49206 -0.06100
H 	H 	0.13274 0.45630 0.54804 0.03900
C 	C 	0.13998 0.52533 0.98439 -0.05700
H 	H 	0.01619 0.00614 0.79585 0.14100
O 	O 	0.00909 0.16997 0.79424 -0.37700
H 	H 	0.01621 0.28885 0.06671 0.03900
C 	C 	0.14595 0.95769 0.35292 0.00200
H 	H 	0.17939 0.15673 0.63679 0.03900
H 	H 	0.00484 0.74436 0.69294 0.03700
C 	C 	0.12935 0.68229 0.15388 -0.07900
O 	O 	0.16796 0.63783 0.09766 -0.38900
C 	C 	0.09039 0.42261 0.93141 0.00000
H 	H 	0.09630 0.41384 0.90252 0.04000
C 	C 	0.21287 0.08822 0.79757 0.28400
O 	O 	0.00560 0.99648 0.76948 -0.70100
H 	H 	0.05433 0.81704 0.87304 0.05100
C 	C 	0.21199 0.27464 0.08502 -0.01700
H 	H 	0.28245 0.29952 0.07590 0.04500
H 	H 	0.22806 0.19833 0.12977 0.04200
C 	C 	0.15445 0.76757 0.40639 0.28600
C 	C 	0.24497 0.54662 0.36399 0.28500
Ni	Ni	0.27074 0.74435 0.46940 1.11300
Ni	Ni	0.34512 0.60900 0.43342 1.12000
Ni	Ni	0.31840 0.75428 0.38337 1.12100
O 	O 	0.18373 0.78618 0.44094 -0.36200
O 	O 	0.18307 0.72259 0.38419 -0.38300
O 	O 	0.34537 0.71453 0.50909 -0.36300
O 	O 	0.29334 0.63743 0.35318 -0.38200
O 	O 	0.25567 0.51941 0.39681 -0.38700
O 	O 	0.25286 0.53746 0.47529 -0.37300
O 	O 	0.28850 0.68671 0.42790 -0.71400
H 	H 	0.22346 0.63729 0.42285 0.16100
C 	C 	0.16728 0.63187 0.13257 0.31400
C 	C 	0.20486 0.41547 0.06295 0.28400
Ni	Ni	0.30064 0.55670 0.11912 1.11300
Ni	Ni	0.28815 0.71886 0.07076 1.11700
Ni	Ni	0.37262 0.60007 0.03232 1.12000
O 	O 	0.21754 0.59968 0.14813 -0.37200
O 	O 	0.19173 0.46697 0.08693 -0.37600
O 	O 	0.27081 0.45593 0.03693 -0.37200
O 	O 	0.39127 0.80932 0.03738 -0.38400
O 	O 	0.36190 0.78172 0.11864 -0.36600
O 	O 	0.30133 0.62780 0.99584 -0.39300
O 	O 	0.33574 0.63403 0.07624 -0.70400
C 	C 	0.18326 0.74396 0.18177 -0.00600
C 	C 	0.16146 0.81174 0.19511 -0.00900
H 	H 	0.24499 0.74282 0.19177 0.04700
H 	H 	0.20460 0.85974 0.21628 0.04800
C 	C 	0.19597 0.47187 0.33680 -0.06300
C 	C 	0.24429 0.46774 0.30588 -0.00800
C 	C 	0.20681 0.38497 0.28485 -0.01100
H 	H 	0.31254 0.52705 0.29900 0.04200
H 	H 	0.24478 0.38270 0.26107 0.04400
C 	C 	0.16696 0.91665 0.38242 -0.01600
H 	H 	0.23167 0.95830 0.39708 0.05000
H 	H 	0.19414 0.03084 0.34558 0.03800
H 	H 	0.30795 0.02040 0.45443 0.03300
H 	H 	0.40193 0.46812 0.57649 0.03600
H 	H 	0.32893 0.55400 0.54764 0.04600
C 	C 	0.31243 0.17090 0.62104 -0.01000
C 	C 	0.22889 0.13138 0.64108 -0.00800
C 	C 	0.21341 0.06575 0.66882 -0.06300
C 	C 	0.27673 0.03136 0.67328 -0.01400
H 	H 	0.32660 0.22642 0.60137 0.03800
H 	H 	0.26443 0.97905 0.69414 0.04000
H 	H 	0.35333 0.37609 0.02541 0.04200
C 	C 	0.35210 0.08088 0.87756 -0.01000
C 	C 	0.38298 0.14672 0.80585 -0.00700
C 	C 	0.29369 0.11280 0.82148 -0.06200
C 	C 	0.27821 0.07810 0.85725 -0.01300
H 	H 	0.34011 0.05825 0.90572 0.04000
H 	H 	0.39505 0.16994 0.77776 0.04400
H 	H 	0.20860 0.04729 0.86913 0.03800
O 	O 	0.34666 0.88516 0.40122 -0.38300
O 	O 	0.02081 0.86939 0.81301 -0.36500
C 	C 	0.40479 0.58702 0.54865 -0.00900
H 	H 	0.49926 0.97222 0.06885 0.03900
H 	H 	0.44630 0.35241 0.97917 0.04100
C 	C 	0.41910 0.70490 0.50175 0.30000
C 	C 	0.39500 0.92549 0.43068 0.31100
O 	O 	0.44653 0.65841 0.39432 -0.38000
O 	O 	0.44182 0.70159 0.46804 -0.38500
O 	O 	0.38939 0.87392 0.45908 -0.37300
O 	O 	0.45535 0.80271 0.38866 -0.39500
C 	C 	0.43967 0.50781 0.07979 0.30200
C 	C 	0.42465 0.76296 0.13566 0.26200
C 	C 	0.47312 0.81229 0.03402 0.27900
O 	O 	0.37668 0.48436 0.10619 -0.37500
O 	O 	0.46634 0.58488 0.06143 -0.40000
O 	O 	0.47782 0.73572 0.02358 -0.36700
O 	O 	0.40484 0.67481 0.14470 -0.36000
H 	H 	0.40135 0.67822 0.08162 0.14500
C 	C 	0.42826 0.15438 0.46752 -0.01200
C 	C 	0.43646 0.02830 0.43513 -0.07900
C 	C 	0.38321 0.06484 0.45130 -0.00500
H 	H 	0.38721 0.17815 0.48297 0.03800
C 	C 	0.44621 0.53814 0.56501 -0.01400
C 	C 	0.46090 0.67344 0.53038 -0.07000
C 	C 	0.36116 0.07218 0.65367 -0.00800
C 	C 	0.38216 0.14706 0.62934 -0.06200
H 	H 	0.41338 0.05142 0.65975 0.04200
C 	C 	0.47771 0.38259 0.00516 -0.01300
C 	C 	0.42419 0.39453 0.03189 -0.02200
C 	C 	0.44295 0.12017 0.86262 -0.06200
C 	C 	0.45648 0.14873 0.82602 -0.01500
H 	H 	0.06379 0.45882 0.03380 0.05200
C 	C 	0.55681 0.98395 0.05102 0.00100
C 	C 	0.48064 0.21550 0.62067 0.28100
C 	C 	0.49144 0.74776 0.38341 0.30700
H 	H 	0.49642 0.88759 0.19144 0.03800
C 	C 	0.46518 0.43914 0.06513 -0.07500
C 	C 	0.55919 0.90648 0.03467 -0.06700
H 	H 	0.52578 0.17968 0.81400 0.04700
C 	C 	0.52400 0.16463 0.88733 0.28600
O 	O 	0.53370 0.23871 0.90546 -0.38200
O 	O 	0.51213 0.30545 0.62980 -0.37100
C 	C 	0.52163 0.83809 0.14050 -0.06200
H 	H 	0.48728 0.70426 0.31262 0.03900
C 	C 	0.54400 0.57618 0.56375 -0.05800
C 	C 	0.52661 0.20555 0.46903 -0.06100
O 	O 	0.54879 0.21267 0.53295 -0.38700
O 	O 	0.53981 0.18382 0.61206 -0.37400
C 	C 	0.54793 0.88254 0.17442 -0.01000
C 	C 	0.53350 0.08722 0.43069 -0.00300
C 	C 	0.55902 0.71593 0.53265 -0.00700
C 	C 	0.58499 0.51388 0.56960 0.27800
C 	C 	0.57069 0.26024 0.50180 0.28700
C 	C 	0.55482 0.76073 0.32166 -0.00800
C 	C 	0.57116 0.40967 0.01189 -0.06600
H 	H 	0.57963 0.34131 0.57051 0.16200
H 	H 	0.57105 0.79923 0.09255 0.03900
C 	C 	0.57157 0.78120 0.35878 -0.07300
C 	C 	0.57845 0.17669 0.44715 -0.01200
H 	H 	0.57499 0.06074 0.41721 0.03700
H 	H 	0.61461 0.13565 0.05043 0.04000
C 	C 	0.55417 0.45246 0.07370 -0.00700
H 	H 	0.00412 0.25103 0.33244 0.04200
O 	O 	0.59600 0.14677 0.88330 -0.36900
O 	O 	0.60452 0.47852 0.54030 -0.37700
C 	C 	0.59050 0.83518 0.11840 -0.01600
C 	C 	0.60036 0.66749 0.54920 -0.01300
H 	H 	0.60323 0.78320 0.51917 0.04200
C 	C 	0.62369 0.07688 0.04141 -0.02100
O 	O 	0.61868 0.51153 0.60258 -0.36700
C 	C 	0.62613 0.39220 0.98466 0.28900
O 	O 	0.62887 0.42122 0.95008 -0.36500
C 	C 	0.00971 0.35760 0.95022 -0.07700
H 	H 	0.60947 0.79951 0.26739 0.04200
H 	H 	0.58596 0.48323 0.09957 0.03700
C 	C 	0.01123 0.36342 0.98826 -0.00200
C 	C 	0.60820 0.44057 0.04690 -0.00700
C 	C 	0.62275 0.81687 0.29596 -0.01100
C 	C 	0.63977 0.92295 0.01526 0.00100
C 	C 	0.63641 0.90780 0.18862 -0.01000
H 	H 	0.00653 0.68649 0.91726 0.04500
H 	H 	0.63561 0.12275 0.81742 0.04200
H 	H 	0.64520 0.25964 0.94759 0.17600
H 	H 	0.64641 0.86411 0.00459 0.04500
Ni	Ni	0.64228 0.24196 0.57251 1.12100
O 	O 	0.64573 0.34701 0.49832 -0.37600
O 	O 	0.64502 0.36021 0.57679 -0.71700
Ni	Ni	0.65118 0.40842 0.62346 1.11200
H 	H 	0.65376 0.93611 0.21583 0.04100
Ni	Ni	0.65713 0.36448 0.90241 1.11100
H 	H 	0.65448 0.21778 0.44676 0.04400
C 	C 	0.65855 0.85597 0.36997 -0.00400
H 	H 	0.66025 0.16471 0.69952 0.04300
O 	O 	0.67422 0.13173 0.95479 -0.38400
H 	H 	0.67170 0.87362 0.39852 0.04000
H 	H 	0.67597 0.69783 0.54821 0.04100
O 	O 	0.67542 0.32043 0.84999 -0.36700
O 	O 	0.68177 0.31826 0.65463 -0.36900
O 	O 	0.68384 0.36323 0.99676 -0.38600
C 	C 	0.67941 0.86201 0.13229 0.00000
H 	H 	0.67965 0.45786 0.05303 0.04200
C 	C 	0.69208 0.09202 0.01530 -0.05800
H 	H 	0.97911 0.69324 0.37827 0.03600
O 	O 	0.99324 0.12572 0.71678 -0.38800
O 	O 	0.98530 0.17688 0.26667 -0.37800
H 	H 	0.99295 0.25369 0.67578 0.04300
O 	O 	0.97522 0.87358 0.19293 -0.39300
H 	H 	0.96786 0.75572 0.14359 0.04200
H 	H 	0.97551 0.02479 0.26653 0.15500
C 	C 	0.98231 0.37977 0.54331 -0.00800
O 	O 	0.97713 0.01493 0.24022 -0.71900
H 	H 	0.96067 0.18838 0.12176 0.03900
C 	C 	0.82642 0.54100 0.92173 0.30400
C 	C 	0.74767 0.30734 0.84372 0.30400
C 	C 	0.92085 0.33301 0.93299 0.31100
C 	C 	0.71205 0.16357 0.98712 0.28600
Ni	Ni	0.79157 0.37435 0.96792 1.12200
Ni	Ni	0.72587 0.20893 0.91012 1.12100
O 	O 	0.89485 0.39661 0.93436 -0.39200
O 	O 	0.78815 0.48064 0.89551 -0.37500
O 	O 	0.81844 0.50995 0.95537 -0.36900
O 	O 	0.79456 0.30410 0.87111 -0.38500
O 	O 	0.78060 0.25372 0.99224 -0.37500
O 	O 	0.85640 0.24364 0.92857 -0.37600
O 	O 	0.70058 0.30037 0.93252 -0.71200
C 	C 	0.73813 0.28728 0.64312 0.30200
C 	C 	0.82157 0.57548 0.59866 0.30400
C 	C 	0.82092 0.35032 0.53277 0.30200
Ni	Ni	0.70973 0.44705 0.53818 1.12100
O 	O 	0.74056 0.27015 0.53378 -0.38500
O 	O 	0.74763 0.27765 0.60841 -0.38700
O 	O 	0.79316 0.49765 0.61724 -0.38300
O 	O 	0.78554 0.57135 0.56638 -0.37400
O 	O 	0.82424 0.43182 0.53925 -0.38200
C 	C 	0.88517 0.80018 0.72072 0.30500
C 	C 	0.93545 0.83994 0.82685 0.27000
C 	C 	0.90371 0.10018 0.72138 0.28600
C 	C 	0.91778 0.11990 0.80199 0.27500
Ni	Ni	0.87150 0.93740 0.77038 1.11700
O 	O 	0.84361 0.01525 0.73446 -0.38000
O 	O 	0.93941 0.79576 0.74545 -0.38600
O 	O 	0.84257 0.84929 0.72695 -0.37500
O 	O 	0.87818 0.02770 0.80929 -0.38800
O 	O 	0.86531 0.83578 0.80645 -0.36500
C 	C 	0.78873 0.92911 0.28199 0.28600
C 	C 	0.79071 0.91314 0.18382 0.30600
Ni	Ni	0.91778 0.08191 0.22500 1.11100
Ni	Ni	0.90983 0.87996 0.23779 1.12200
O 	O 	0.79741 0.99277 0.25666 -0.37100
O 	O 	0.83871 0.88493 0.28135 -0.38500
O 	O 	0.86148 0.99819 0.18000 -0.38600
O 	O 	0.79346 0.85493 0.20825 -0.37700
C 	C 	0.70035 0.89244 0.16821 -0.07500
H 	H 	0.72994 0.85393 0.11576 0.04000
C 	C 	0.70941 0.89213 0.30716 -0.06300
C 	C 	0.72687 0.91142 0.34430 -0.01100
H 	H 	0.79455 0.96763 0.35333 0.03800
H 	H 	0.93770 0.76714 0.32824 0.03800
C 	C 	0.92100 0.35123 0.48214 -0.00800
C 	C 	0.90598 0.35109 0.51966 -0.06600
H 	H 	0.86221 0.32554 0.46359 0.03800
H 	H 	0.97127 0.37624 0.57243 0.04100
C 	C 	0.73323 0.18533 0.69470 -0.00800
C 	C 	0.78605 0.25620 0.66914 -0.06900
C 	C 	0.88087 0.28256 0.66343 -0.00700
C 	C 	0.92048 0.23396 0.68120 -0.01400
C 	C 	0.86535 0.15783 0.70467 -0.06300
C 	C 	0.77209 0.13563 0.71203 -0.01100
H 	H 	0.92273 0.33800 0.64402 0.04100
H 	H 	0.72890 0.07837 0.73054 0.04300
C 	C 	0.80866 0.70863 0.62540 -0.01200
C 	C 	0.86328 0.66493 0.61890 -0.07300
C 	C 	0.93937 0.68588 0.64181 -0.00700
C 	C 	0.94900 0.73357 0.67447 -0.00800
C 	C 	0.88373 0.76274 0.68399 -0.07100
C 	C 	0.81722 0.75545 0.65826 -0.00600
H 	H 	0.75315 0.69788 0.60681 0.04800
H 	H 	0.98505 0.65651 0.63618 0.03900
H 	H 	0.76952 0.78211 0.66428 0.04900
H 	H 	0.95651 0.30668 0.00411 0.03600
C 	C 	0.70811 0.01631 0.00677 -0.02100
H 	H 	0.76565 0.02833 0.98887 0.04700
C 	C 	0.84387 0.30895 0.79289 -0.00500
C 	C 	0.75591 0.26244 0.81028 -0.07300
C 	C 	0.70909 0.16254 0.81012 -0.02300
C 	C 	0.76166 0.11519 0.80815 -0.01700
C 	C 	0.85879 0.16713 0.80088 -0.06600
C 	C 	0.89792 0.26319 0.79034 -0.00900
H 	H 	0.87704 0.38468 0.78775 0.04000
H 	H 	0.72726 0.03921 0.81276 0.03400
H 	H 	0.97008 0.30283 0.78110 0.04100
C 	C 	0.79285 0.66669 0.90112 -0.00600
C 	C 	0.85882 0.64175 0.91399 -0.06800
C 	C 	0.95414 0.70207 0.90625 -0.00500
C 	C 	0.98090 0.77483 0.88043 -0.01800
C 	C 	0.91205 0.78706 0.86199 -0.05000
C 	C 	0.81889 0.73786 0.87465 -0.01400
H 	H 	0.71938 0.62351 0.90835 0.03300
H 	H 	0.76562 0.75043 0.86257 0.04400
