data_crystal

_cell_length_a 18.54908
_cell_length_b 18.81539
_cell_length_c 26.52378
_cell_angle_alpha 95.42871
_cell_angle_beta  95.43091
_cell_angle_gamma 126.41145

_symmetry_space_group_name_	'P 1'
_symmetry_space_group_name_H-M	'P 1'

loop_
_symmetry_equiv_pos_as_xyz
  x,y,z

loop_
_atom_site_label
_atom_site_type_symbol
_atom_site_fract_x
_atom_site_fract_y
_atom_site_fract_z
_atom_site_charge
C 	C 	0.96524 0.04835 0.00930 0.10300
N 	N 	0.91074 0.95932 0.01085 -0.12200
C 	C 	0.94588 0.91350 0.01144 0.12100
N 	N 	0.03545 0.95651 0.01038 -0.12000
C 	C 	0.09020 0.04537 0.00866 0.10900
N 	N 	0.05494 0.09132 0.00751 -0.12700
C 	C 	0.89941 0.99063 0.44460 0.14900
N 	N 	0.85332 0.90121 0.44515 -0.13400
C 	C 	0.89813 0.86433 0.44341 0.12400
N 	N 	0.98860 0.91712 0.44257 -0.12900
C 	C 	0.03462 0.00616 0.44307 0.12000
N 	N 	0.98995 0.04272 0.44362 -0.14300
Cu	Cu	0.62996 0.21263 0.00986 0.93000
Cu	Cu	0.69842 0.22360 0.89902 0.87800
Cu	Cu	0.67831 0.35823 0.94664 0.89800
Cu	Cu	0.62750 0.37354 0.04868 0.89900
C 	C 	0.65006 0.26896 0.11847 0.28200
O 	O 	0.49633 0.15539 0.00989 -0.35200
C 	C 	0.64881 0.30382 0.83293 0.28300
O 	O 	0.70152 0.35227 0.01751 -0.63600
O 	O 	0.61604 0.22597 0.93702 -0.64200
O 	O 	0.69010 0.15324 0.00391 -0.35900
O 	O 	0.78600 0.25054 0.95573 -0.43100
O 	O 	0.61009 0.30583 0.10591 -0.37900
O 	O 	0.74540 0.48701 0.96109 -0.37300
C 	C 	0.73577 0.53211 0.99759 0.27400
C 	C 	0.45990 0.19345 0.99366 0.28000
O 	O 	0.51322 0.27707 0.98740 -0.38900
O 	O 	0.67646 0.49150 0.02831 -0.37600
O 	O 	0.66133 0.22390 0.08287 -0.35600
C 	C 	0.76492 0.19033 0.98456 0.28400
O 	O 	0.67648 0.36797 0.87276 -0.37300
O 	O 	0.63856 0.22993 0.83923 -0.40900
H 	H 	0.76677 0.39197 0.03413 0.16900
H 	H 	0.55247 0.18898 0.91775 0.17900
Cu	Cu	0.74806 0.33674 0.44247 0.92600
Cu	Cu	0.74706 0.27848 0.55562 0.87900
Cu	Cu	0.60432 0.29106 0.50907 0.89900
Cu	Cu	0.57719 0.32926 0.40420 0.89900
C 	C 	0.67633 0.29907 0.33417 0.28200
O 	O 	0.80012 0.46728 0.43931 -0.35300
C 	C 	0.66734 0.32765 0.62269 0.28300
O 	O 	0.60605 0.26304 0.43778 -0.63700
O 	O 	0.73867 0.35474 0.51579 -0.63900
O 	O 	0.81009 0.27828 0.44887 -0.36200
O 	O 	0.71650 0.18809 0.50052 -0.43000
O 	O 	0.64102 0.34090 0.34553 -0.37800
O 	O 	0.47297 0.22228 0.49775 -0.37600
C 	C 	0.42257 0.21968 0.45784 0.29200
C 	C 	0.75909 0.50108 0.45510 0.28100
O 	O 	0.67526 0.44691 0.46269 -0.38500
O 	O 	0.45924 0.27863 0.42702 -0.38300
O 	O 	0.73331 0.30127 0.36948 -0.35600
C 	C 	0.77439 0.20609 0.46985 0.28600
O 	O 	0.60043 0.29940 0.58379 -0.37500
O 	O 	0.74301 0.34055 0.61487 -0.40800
H 	H 	0.56704 0.19790 0.42312 0.16800
H 	H 	0.77584 0.41828 0.53359 0.18000
C 	C 	0.71703 0.39862 0.76678 -0.00900
C 	C 	0.64251 0.32082 0.78024 -0.06200
C 	C 	0.56895 0.25279 0.74146 -0.00800
C 	C 	0.57335 0.25904 0.68953 -0.01000
C 	C 	0.65199 0.33267 0.67597 -0.06300
C 	C 	0.72212 0.40419 0.71483 -0.00700
H 	H 	0.77365 0.45219 0.79642 0.04500
H 	H 	0.51032 0.19314 0.75143 0.04200
H 	H 	0.51821 0.20394 0.65988 0.04200
H 	H 	0.78242 0.46218 0.70482 0.04400
C 	C 	0.57991 0.20517 0.19320 -0.00400
C 	C 	0.65870 0.25718 0.17209 -0.06000
C 	C 	0.74463 0.31024 0.20457 -0.01100
C 	C 	0.75121 0.31751 0.25816 -0.00500
C 	C 	0.67178 0.27192 0.27943 -0.06000
C 	C 	0.58643 0.21261 0.24664 -0.01100
H 	H 	0.51326 0.16302 0.16836 0.04500
H 	H 	0.80596 0.34998 0.18861 0.03800
H 	H 	0.81760 0.36297 0.28310 0.04800
H 	H 	0.52476 0.17618 0.26264 0.03700
C 	C 	0.84991 0.76763 0.44361 -0.00100
C 	C 	0.82603 0.73577 0.48959 -0.04100
C 	C 	0.80106 0.65063 0.49480 0.01700
C 	C 	0.79858 0.59580 0.45330 -0.07500
C 	C 	0.82079 0.62704 0.40701 0.00200
C 	C 	0.84542 0.71194 0.40178 -0.02400
H 	H 	0.83068 0.77880 0.52210 0.05500
H 	H 	0.81651 0.58421 0.37453 0.04500
C 	C 	0.86562 0.74142 0.35321 0.09300
C 	C 	0.78106 0.62130 0.54342 0.07300
N 	N 	0.88184 0.76511 0.31433 -0.10700
N 	N 	0.76503 0.59773 0.58235 -0.11300
C 	C 	0.85409 0.03341 0.45023 -0.02200
C 	C 	0.85778 0.06995 0.49983 -0.03400
C 	C 	0.83546 0.12910 0.50670 0.01500
C 	C 	0.80606 0.15018 0.46334 -0.07700
C 	C 	0.80041 0.11204 0.41362 0.00100
C 	C 	0.82422 0.05387 0.40687 -0.01300
H 	H 	0.88238 0.05573 0.53323 0.05000
H 	H 	0.77676 0.12698 0.38019 0.04700
C 	C 	0.81834 0.01586 0.35534 0.07300
C 	C 	0.84738 0.17138 0.55838 0.05100
N 	N 	0.81366 0.98539 0.31406 -0.09100
N 	N 	0.85697 0.20522 0.59979 -0.13700
C 	C 	0.32332 0.16340 0.45428 -0.07600
C 	C 	0.28733 0.17477 0.49575 0.00800
C 	C 	0.19296 0.12552 0.49199 -0.02600
C 	C 	0.13375 0.06371 0.44635 -0.00000
C 	C 	0.16971 0.05198 0.40502 -0.04200
C 	C 	0.26409 0.10155 0.40867 0.01900
H 	H 	0.33292 0.22273 0.53074 0.04700
H 	H 	0.12405 0.00364 0.37015 0.05800
C 	C 	0.29962 0.08718 0.36592 0.06700
C 	C 	0.15731 0.13767 0.53539 0.09300
N 	N 	0.32813 0.07572 0.33170 -0.11900
N 	N 	0.12866 0.14735 0.57011 -0.11300
C 	C 	0.78618 0.62949 0.00111 -0.05600
C 	C 	0.83735 0.68687 0.04883 0.00000
C 	C 	0.88717 0.77995 0.05312 -0.02300
C 	C 	0.88590 0.81620 0.00925 0.00800
C 	C 	0.83227 0.75883 0.96194 -0.04800
C 	C 	0.78226 0.66569 0.95758 0.01100
H 	H 	0.83906 0.65899 0.08252 0.03900
H 	H 	0.83073 0.78690 0.92831 0.05500
C 	C 	0.72585 0.60777 0.90864 0.08400
C 	C 	0.93874 0.83784 0.10274 0.09800
N 	N 	0.68072 0.56139 0.86944 -0.10500
N 	N 	0.97997 0.88419 0.14250 -0.09900
C 	C 	0.92504 0.09576 0.00476 0.01500
C 	C 	0.90313 0.10801 0.95598 -0.06000
C 	C 	0.84978 0.13748 0.94867 0.02700
C 	C 	0.82056 0.15831 0.99118 -0.09600
C 	C 	0.84498 0.14865 0.04033 0.02200
C 	C 	0.89679 0.11730 0.04730 -0.03500
H 	H 	0.92413 0.09058 0.92319 0.05300
H 	H 	0.82349 0.16538 0.07313 0.04400
C 	C 	0.92054 0.10718 0.09817 0.09600
C 	C 	0.82095 0.14096 0.89700 0.04500
N 	N 	0.93958 0.09901 0.13891 -0.10900
N 	N 	0.79789 0.14368 0.85559 -0.13800
C 	C 	0.18704 0.09082 0.00676 0.01400
C 	C 	0.21845 0.11843 0.96114 -0.05800
C 	C 	0.30630 0.14857 0.95549 0.02500
C 	C 	0.36388 0.15201 0.99611 -0.09100
C 	C 	0.33264 0.12522 0.04190 0.01700
C 	C 	0.24511 0.09554 0.04761 -0.03400
H 	H 	0.17348 0.11385 0.92946 0.05500
H 	H 	0.37755 0.12987 0.07367 0.04200
C 	C 	0.21603 0.07196 0.09597 0.09500
C 	C 	0.33580 0.17310 0.90733 0.06900
N 	N 	0.19281 0.05312 0.13472 -0.10800
N 	N 	0.35949 0.19277 0.86877 -0.11300
