data_crystal

_cell_length_a 35.99330
_cell_length_b 31.90595
_cell_length_c 28.14710
_cell_angle_alpha 92.66460
_cell_angle_beta  85.31638
_cell_angle_gamma 124.18261

_symmetry_space_group_name_	'P 1'
_symmetry_space_group_name_H-M	'P 1'

loop_
_symmetry_equiv_pos_as_xyz
  x,y,z

loop_
_atom_site_label
_atom_site_type_symbol
_atom_site_fract_x
_atom_site_fract_y
_atom_site_fract_z
_atom_site_charge
C 	C 	0.95989 0.09321 0.93696 -0.00200
C 	C 	0.96810 0.07376 0.89471 -0.02400
C 	C 	0.98988 0.04883 0.89553 -0.06500
C 	C 	0.00361 0.04301 0.93851 0.07600
C 	C 	0.99650 0.06383 0.98071 -0.05400
C 	C 	0.97462 0.08865 0.97986 -0.01300
N 	N 	0.02386 0.01475 0.93887 -0.14300
C 	C 	0.14618 0.08000 0.00671 -0.02600
C 	C 	0.10498 0.04755 0.03252 -0.01100
C 	C 	0.06452 0.02709 0.01100 -0.09600
C 	C 	0.06493 0.03892 0.96324 0.10200
C 	C 	0.10611 0.07281 0.93819 -0.08200
C 	C 	0.14656 0.09318 0.95972 0.00100
C 	C 	0.93449 0.85536 0.95900 -0.00400
C 	C 	0.97032 0.87532 0.92398 -0.02500
C 	C 	0.99948 0.92771 0.91767 -0.06500
C 	C 	0.99313 0.96072 0.94610 0.07600
C 	C 	0.95714 0.94062 0.98133 -0.05800
C 	C 	0.92808 0.88823 0.98769 -0.01300
H 	H 	0.95684 0.07712 0.86142 0.03800
H 	H 	0.99548 0.03324 0.86288 0.05200
H 	H 	0.00689 0.05975 0.01420 0.03600
H 	H 	0.96855 0.10372 0.01264 0.02400
H 	H 	0.10434 0.03769 0.06903 0.03200
H 	H 	0.03302 0.00218 0.03136 0.05100
H 	H 	0.10674 0.08235 0.90158 0.05600
H 	H 	0.17822 0.11823 0.93951 0.03600
H 	H 	0.97541 0.85022 0.90151 0.03800
H 	H 	0.02707 0.94279 0.89057 0.05000
H 	H 	0.95228 0.96538 0.00443 0.03500
H 	H 	0.90076 0.87318 0.01512 0.02300
C 	C 	0.95402 0.08717 0.42675 -0.00000
C 	C 	0.95874 0.06280 0.38625 -0.02600
C 	C 	0.97933 0.03674 0.38878 -0.06800
C 	C 	0.99525 0.03459 0.43178 0.07900
C 	C 	0.99140 0.06002 0.47219 -0.06900
C 	C 	0.97084 0.08611 0.46959 -0.02600
N 	N 	0.01426 0.00521 0.43417 -0.14200
C 	C 	0.13932 0.07321 0.49709 0.00000
C 	C 	0.09894 0.04323 0.52506 -0.02700
C 	C 	0.05765 0.02187 0.50507 -0.06600
C 	C 	0.05638 0.03029 0.45668 0.07700
C 	C 	0.09679 0.06173 0.42935 -0.06700
C 	C 	0.13807 0.08301 0.44937 -0.02600
C 	C 	0.92294 0.84852 0.46715 -0.00000
C 	C 	0.95829 0.86469 0.43199 -0.02700
C 	C 	0.98793 0.91618 0.42125 -0.06700
C 	C 	0.98274 0.95211 0.44558 0.07700
C 	C 	0.94725 0.93583 0.48099 -0.07000
C 	C 	0.91747 0.88429 0.49148 -0.02600
H 	H 	0.94606 0.06366 0.35295 0.03700
H 	H 	0.98239 0.01754 0.35750 0.05100
H 	H 	0.00321 0.05849 0.50576 0.04800
H 	H 	0.96721 0.10471 0.50108 0.03800
H 	H 	0.09958 0.03597 0.56211 0.03800
H 	H 	0.02679 0.99891 0.52708 0.04500
H 	H 	0.09613 0.06865 0.39223 0.05100
H 	H 	0.16907 0.10613 0.42749 0.03800
H 	H 	0.96300 0.83739 0.41326 0.03700
H 	H 	0.01516 0.92832 0.39412 0.04900
H 	H 	0.94330 0.96292 0.50107 0.04800
H 	H 	0.89032 0.87216 0.51874 0.03700
Co	Co	0.69444 0.30764 0.00868 1.17600
O 	O 	0.73985 0.30016 0.96388 -0.37900
Co	Co	0.60614 0.31144 0.04653 1.18000
O 	O 	0.63126 0.27725 0.98755 -0.45100
O 	O 	0.65990 0.38293 0.04695 -0.41700
O 	O 	0.69119 0.23847 0.00808 -0.36400
C 	C 	0.69880 0.40225 0.02122 0.32100
O 	O 	0.59581 0.31070 0.97253 -0.35400
C 	C 	0.52725 0.26611 0.09062 0.29200
C 	C 	0.67589 0.31522 0.10181 0.31500
O 	O 	0.55823 0.31400 0.09172 -0.37300
O 	O 	0.54099 0.24306 0.06346 -0.34800
O 	O 	0.71409 0.32761 0.08043 -0.36900
O 	O 	0.64325 0.28937 0.07399 -0.46500
O 	O 	0.70653 0.37423 0.99115 -0.51900
C 	C 	0.72397 0.25419 0.97599 0.31300
C 	C 	0.61978 0.29427 0.95483 0.31400
H 	H 	0.72577 0.39008 0.96051 0.17200
Co	Co	0.69483 0.30477 0.51305 1.18300
O 	O 	0.74337 0.30262 0.46877 -0.38200
Co	Co	0.60459 0.30704 0.54813 1.18300
O 	O 	0.63615 0.28457 0.48504 -0.46300
O 	O 	0.66038 0.37344 0.56037 -0.42500
O 	O 	0.68800 0.23411 0.49913 -0.34700
C 	C 	0.69405 0.39735 0.52765 0.33200
O 	O 	0.60447 0.32341 0.47503 -0.36400
C 	C 	0.52202 0.25848 0.58217 0.29000
C 	C 	0.66389 0.29235 0.60470 0.31800
O 	O 	0.55340 0.30476 0.59172 -0.37400
O 	O 	0.53733 0.23925 0.55182 -0.34400
O 	O 	0.70357 0.30537 0.58755 -0.35900
O 	O 	0.63561 0.27545 0.57180 -0.46000
O 	O 	0.71767 0.37841 0.51158 -0.52100
C 	C 	0.72423 0.25434 0.47136 0.29400
C 	C 	0.63025 0.30998 0.45567 0.30900
H 	H 	0.74830 0.40158 0.49432 0.16900
C 	C 	0.62522 0.26932 0.80608 0.06700
N 	N 	0.66198 0.28677 0.83144 -0.11500
C 	C 	0.66011 0.29226 0.87966 0.07300
C 	C 	0.61996 0.28034 0.90441 -0.12200
C 	C 	0.58124 0.25978 0.87939 0.04700
C 	C 	0.58364 0.25351 0.83015 -0.08300
H 	H 	0.69031 0.30788 0.89847 0.00900
H 	H 	0.54958 0.24932 0.89792 0.03600
H 	H 	0.55363 0.23728 0.81078 0.05500
C 	C 	0.64935 0.28072 0.65544 -0.12200
C 	C 	0.61911 0.29116 0.67726 0.03900
C 	C 	0.60967 0.28581 0.72645 -0.08000
C 	C 	0.63007 0.26906 0.75352 0.06500
N 	N 	0.65861 0.25788 0.73136 -0.11500
C 	C 	0.66847 0.26320 0.68339 0.08000
H 	H 	0.60458 0.30559 0.65653 0.01400
H 	H 	0.58816 0.29658 0.74361 0.05500
H 	H 	0.69168 0.25448 0.66709 0.03500
C 	C 	0.65587 0.30588 0.25273 0.06600
N 	N 	0.63490 0.32079 0.22669 -0.11500
C 	C 	0.64031 0.32306 0.17823 0.07200
C 	C 	0.66811 0.31023 0.15387 -0.12100
C 	C 	0.68903 0.29358 0.17982 0.04600
C 	C 	0.68248 0.29072 0.22934 -0.08300
H 	H 	0.62362 0.33570 0.15869 0.01500
H 	H 	0.70994 0.28244 0.16167 0.03300
H 	H 	0.69767 0.27653 0.24934 0.05300
C 	C 	0.63679 0.30668 0.40384 -0.12400
C 	C 	0.67896 0.32114 0.38304 0.03600
C 	C 	0.68556 0.32075 0.33358 -0.08100
C 	C 	0.64939 0.30465 0.30522 0.06500
N 	N 	0.60853 0.29065 0.32628 -0.11600
C 	C 	0.60159 0.29137 0.37450 0.08000
H 	H 	0.70685 0.33409 0.40502 0.00800
H 	H 	0.71872 0.33399 0.31740 0.05200
H 	H 	0.56869 0.28007 0.39000 0.03400
C 	C 	0.83630 0.69057 0.50159 0.08400
C 	C 	0.86142 0.72603 0.53660 -0.06700
C 	C 	0.88927 0.77762 0.52555 -0.02500
C 	C 	0.89229 0.79423 0.47922 0.00000
C 	C 	0.86689 0.75883 0.44414 -0.02600
C 	C 	0.83924 0.70720 0.45512 -0.06300
H 	H 	0.85972 0.71348 0.57229 0.05400
H 	H 	0.90896 0.80462 0.55280 0.03700
H 	H 	0.86892 0.77128 0.40829 0.03700
H 	H 	0.82068 0.68017 0.42743 0.05700
N 	N 	0.81068 0.63813 0.51266 -0.08500
N 	N 	0.77900 0.60660 0.48833 -0.08900
C 	C 	0.71241 0.45078 0.51760 -0.12300
C 	C 	0.72251 0.46799 0.47032 0.03600
C 	C 	0.74357 0.51950 0.46077 -0.09700
C 	C 	0.75513 0.55417 0.49832 0.10700
C 	C 	0.74330 0.53669 0.54562 -0.09500
C 	C 	0.72207 0.48518 0.55520 0.04400
H 	H 	0.71460 0.44157 0.44104 0.02000
H 	H 	0.75190 0.53265 0.42422 0.06200
H 	H 	0.75105 0.56308 0.57485 0.06600
H 	H 	0.71412 0.47221 0.59182 0.03200
C 	C 	0.88275 0.15836 0.42538 0.08500
C 	C 	0.92902 0.18757 0.43158 -0.06700
C 	C 	0.95246 0.16444 0.43160 -0.02500
C 	C 	0.92978 0.11191 0.42486 0.00000
C 	C 	0.88367 0.08283 0.41734 -0.02600
C 	C 	0.86027 0.10595 0.41737 -0.06400
H 	H 	0.94665 0.22807 0.43708 0.05300
H 	H 	0.98813 0.18725 0.43705 0.03800
H 	H 	0.86594 0.04228 0.41189 0.03800
H 	H 	0.82472 0.08323 0.41135 0.05700
N 	N 	0.85910 0.18200 0.42681 -0.08600
N 	N 	0.81985 0.15994 0.44519 -0.08800
C 	C 	0.74898 0.23018 0.46152 -0.09600
C 	C 	0.72581 0.17721 0.46300 0.03200
C 	C 	0.74940 0.15424 0.45647 -0.09100
C 	C 	0.79627 0.18380 0.44814 0.10300
C 	C 	0.81954 0.23689 0.44585 -0.08800
C 	C 	0.79593 0.25989 0.45212 0.03000
H 	H 	0.68955 0.15383 0.46964 0.03800
H 	H 	0.73129 0.11338 0.45843 0.06200
H 	H 	0.85585 0.26034 0.44006 0.06400
H 	H 	0.81427 0.30079 0.45067 0.03500
C 	C 	0.26789 0.12612 0.54724 0.08500
C 	C 	0.23441 0.07414 0.54585 -0.06700
C 	C 	0.19198 0.05692 0.53087 -0.02400
C 	C 	0.18276 0.09163 0.51680 0.00000
C 	C 	0.21597 0.14380 0.51907 -0.02600
C 	C 	0.25844 0.16101 0.53403 -0.06400
H 	H 	0.24162 0.04705 0.55546 0.05400
H 	H 	0.16663 0.01657 0.52906 0.03800
H 	H 	0.20915 0.17090 0.50837 0.03800
H 	H 	0.28432 0.20126 0.53414 0.05700
N 	N 	0.31220 0.14262 0.55683 -0.08500
N 	N 	0.33694 0.18324 0.57831 -0.08800
C 	C 	0.47385 0.23895 0.58766 -0.09400
C 	C 	0.46003 0.27239 0.59027 0.03100
C 	C 	0.41442 0.25359 0.58876 -0.09100
C 	C 	0.38238 0.20143 0.58460 0.10400
C 	C 	0.39589 0.16778 0.58518 -0.08700
C 	C 	0.44144 0.18652 0.58637 0.03100
H 	H 	0.48464 0.31293 0.59181 0.03600
H 	H 	0.40414 0.27967 0.58930 0.06100
H 	H 	0.37124 0.12725 0.58385 0.06600
H 	H 	0.45162 0.16033 0.58539 0.03600
C 	C 	0.84426 0.69466 0.97720 0.08600
C 	C 	0.82812 0.72328 0.96442 -0.06500
C 	C 	0.85751 0.77572 0.95863 -0.02500
C 	C 	0.90346 0.80002 0.96538 0.00400
C 	C 	0.91979 0.77139 0.97788 -0.02600
C 	C 	0.89041 0.71890 0.98350 -0.06100
H 	H 	0.79275 0.70479 0.95892 0.05600
H 	H 	0.84465 0.79744 0.94860 0.03900
H 	H 	0.95522 0.78979 0.98313 0.04000
H 	H 	0.90353 0.69710 0.99232 0.06000
N 	N 	0.81415 0.64128 0.98139 -0.07700
N 	N 	0.82204 0.61660 0.00696 -0.09700
C 	C 	0.73062 0.45790 0.01968 -0.11900
C 	C 	0.77720 0.48004 0.01812 0.03300
C 	C 	0.80734 0.53266 0.01438 -0.09700
C 	C 	0.79122 0.56344 0.01171 0.10400
C 	C 	0.74461 0.54146 0.01472 -0.09600
C 	C 	0.71447 0.48892 0.01853 0.04000
H 	H 	0.79002 0.45651 0.01967 0.01700
H 	H 	0.84323 0.54947 0.01292 0.05800
H 	H 	0.73181 0.56505 0.01396 0.06200
H 	H 	0.67861 0.47230 0.01983 0.02900
C 	C 	0.80236 0.19082 0.96534 0.11100
C 	C 	0.75763 0.16212 0.98398 -0.10000
C 	C 	0.73167 0.18224 0.98601 0.05700
C 	C 	0.75048 0.23178 0.97003 -0.10600
C 	C 	0.79512 0.26026 0.95027 0.03800
C 	C 	0.82106 0.23998 0.94823 -0.09200
H 	H 	0.74311 0.12430 0.99740 0.06800
H 	H 	0.69711 0.15957 0.00067 0.02300
H 	H 	0.81003 0.29839 0.93747 0.03600
H 	H 	0.85584 0.26278 0.93434 0.06700
N 	N 	0.82925 0.17145 0.96739 -0.08800
N 	N 	0.85804 0.17974 0.93458 -0.08400
C 	C 	0.93371 0.11579 0.93676 0.00400
C 	C 	0.95153 0.16165 0.91290 -0.02500
C 	C 	0.92638 0.18272 0.91236 -0.06600
C 	C 	0.88343 0.15831 0.93585 0.08500
C 	C 	0.86530 0.11193 0.95913 -0.06200
C 	C 	0.89048 0.09099 0.95978 -0.02600
H 	H 	0.98482 0.18094 0.89484 0.03900
H 	H 	0.94033 0.21810 0.89387 0.05500
H 	H 	0.83167 0.09199 0.97634 0.05900
H 	H 	0.87625 0.05527 0.97781 0.04100
C 	C 	0.38694 0.20674 0.09924 0.10300
C 	C 	0.41861 0.25912 0.10184 -0.09200
C 	C 	0.46450 0.27874 0.10163 0.03000
C 	C 	0.47900 0.24589 0.09886 -0.09400
C 	C 	0.44697 0.19330 0.09981 0.03000
C 	C 	0.40113 0.17377 0.10019 -0.08800
H 	H 	0.40780 0.28470 0.10223 0.06000
H 	H 	0.48877 0.31940 0.10189 0.03600
H 	H 	0.45763 0.16756 0.09904 0.03700
H 	H 	0.37677 0.13313 0.10016 0.06400
N 	N 	0.34123 0.18764 0.09349 -0.08900
N 	N 	0.31718 0.14768 0.07083 -0.08600
C 	C 	0.18889 0.09765 0.02778 0.00700
C 	C 	0.19830 0.06253 0.03996 -0.03000
C 	C 	0.24025 0.07932 0.05608 -0.06600
C 	C 	0.27305 0.13123 0.06046 0.08300
C 	C 	0.26333 0.16646 0.04924 -0.06200
C 	C 	0.22132 0.14968 0.03318 -0.03200
H 	H 	0.17354 0.02229 0.03575 0.03700
H 	H 	0.24768 0.05200 0.06415 0.05200
H 	H 	0.28868 0.20672 0.05167 0.05500
H 	H 	0.21433 0.17709 0.02401 0.03600
