data_crystal

_cell_length_a 16.83149
_cell_length_b 15.03559
_cell_length_c 37.26853
_cell_angle_alpha 89.87610
_cell_angle_beta  89.87867
_cell_angle_gamma 119.40794

_symmetry_space_group_name_	'P 1'
_symmetry_space_group_name_H-M	'P 1'

loop_
_symmetry_equiv_pos_as_xyz
  x,y,z

loop_
_atom_site_label
_atom_site_type_symbol
_atom_site_fract_x
_atom_site_fract_y
_atom_site_fract_z
_atom_site_charge
Ni	Ni	0.07170 0.97661 0.77746 1.15400
Ni	Ni	0.09695 0.20154 0.75893 1.14400
O 	O 	0.02446 0.06785 0.77794 -0.71500
H 	H 	0.03079 0.08771 0.80343 0.17000
O 	O 	0.01970 0.17832 0.21904 -0.30800
F 	F 	0.05319 0.26411 0.08039 -0.36300
C 	C 	0.06835 0.67579 0.48840 -0.05500
C 	C 	0.11814 0.56052 0.99636 -0.08900
C 	C 	0.14285 0.57702 0.95989 -0.02200
C 	C 	0.09012 0.50320 0.93414 0.16100
O 	O 	0.11300 0.52233 0.89853 -0.21500
H 	H 	0.15056 0.48956 0.89348 0.18500
F 	F 	0.07600 0.92540 0.88009 -0.32300
O 	O 	0.15830 0.07103 0.81620 -0.31100
O 	O 	0.14051 0.15270 0.71716 -0.34200
C 	C 	0.19079 0.60492 0.02309 0.33400
C 	C 	0.07527 0.15474 0.20190 0.39400
C 	C 	0.03039 0.85809 0.20869 0.41500
Ni	Ni	0.04865 0.01400 0.26238 1.14200
O 	O 	0.06787 0.90542 0.23883 -0.30800
O 	O 	0.10358 0.09687 0.21728 -0.31800
O 	O 	0.00065 0.92086 0.30468 -0.28200
O 	O 	0.05906 0.13682 0.28981 -0.30300
C 	C 	0.11747 0.20526 0.16750 -0.18600
C 	C 	0.06386 0.20962 0.13939 0.30500
C 	C 	0.10486 0.25572 0.10669 0.28100
C 	C 	0.07702 0.81244 0.18843 -0.18400
C 	C 	0.02778 0.71197 0.17536 0.30500
C 	C 	0.07421 0.66314 0.16184 0.28400
F 	F 	0.02609 0.56773 0.14800 -0.35200
C 	C 	0.02509 0.77806 0.31275 -0.11200
C 	C 	0.03808 0.63976 0.34093 0.34200
C 	C 	0.05412 0.68270 0.52522 0.20700
O 	O 	0.12449 0.71096 0.54902 -0.25100
H 	H 	0.20610 0.64350 0.95181 0.09400
O 	O 	0.03983 0.25718 0.79323 -0.29900
C 	C 	0.04779 0.28462 0.40682 -0.16100
H 	H 	0.00930 0.65615 0.43565 0.13800
F 	F 	0.08656 0.29355 0.66304 -0.35900
F 	F 	0.07733 0.44959 0.79491 -0.33700
C 	C 	0.14434 0.66143 0.47665 0.32500
O 	O 	0.20932 0.23077 0.79061 -0.29500
O 	O 	0.18539 0.04804 0.74312 -0.33000
H 	H 	0.15163 0.78595 0.55154 0.19200
C 	C 	0.22551 0.16159 0.80718 0.35800
C 	C 	0.20000 0.12206 0.72058 0.40900
C 	C 	0.10623 0.38733 0.42099 0.40300
C 	C 	0.18749 0.67671 0.36623 0.43400
O 	O 	0.13201 0.56833 0.47400 -0.34500
O 	O 	0.13433 0.46344 0.39869 -0.34700
O 	O 	0.14973 0.39939 0.45138 -0.33700
O 	O 	0.19373 0.70683 0.39950 -0.37100
O 	O 	0.22534 0.74110 0.47155 -0.35800
C 	C 	0.21812 0.67343 0.14001 0.41700
C 	C 	0.24079 0.41375 0.08935 0.41400
O 	O 	0.23383 0.70336 0.03110 -0.33800
O 	O 	0.21087 0.67466 0.10533 -0.36000
O 	O 	0.23762 0.48154 0.10963 -0.35700
O 	O 	0.29914 0.44379 0.06230 -0.34500
O 	O 	0.21687 0.54513 0.03692 -0.37200
C 	C 	0.21067 0.24030 0.16131 0.28400
C 	C 	0.20035 0.31005 0.10378 -0.19000
C 	C 	0.25152 0.29053 0.12923 0.27400
C 	C 	0.17300 0.86259 0.18805 0.29200
C 	C 	0.17006 0.71308 0.16208 -0.19000
C 	C 	0.21891 0.81188 0.17622 0.28600
F 	F 	0.22185 0.96061 0.19953 -0.32700
C 	C 	0.06360 0.16875 0.36603 0.30500
C 	C 	0.08788 0.22473 0.39792 0.26400
F 	F 	0.10690 0.11646 0.35630 -0.37300
C 	C 	0.12113 0.83693 0.31179 0.26300
C 	C 	0.17463 0.79687 0.32485 0.31100
C 	C 	0.13367 0.70051 0.34113 -0.21400
F 	F 	0.16272 0.93473 0.29962 -0.35900
C 	C 	0.27786 0.16227 0.69569 -0.17900
C 	C 	0.29276 0.09559 0.67417 0.26400
F 	F 	0.23764 0.99307 0.67722 -0.33000
F 	F 	0.26692 0.05389 0.86053 -0.34500
Ni	Ni	0.23665 0.53982 0.47262 1.13200
F 	F 	0.26316 0.23253 0.18740 -0.34900
C 	C 	0.34444 0.45040 0.44169 0.31000
C 	C 	0.39384 0.74219 0.49734 0.30600
Ni	Ni	0.27113 0.54819 0.38681 1.12500
Ni	Ni	0.30587 0.74963 0.43005 1.13400
O 	O 	0.40676 0.78853 0.46564 -0.34500
O 	O 	0.23827 0.63887 0.35442 -0.32800
O 	O 	0.31524 0.65883 0.50578 -0.35000
O 	O 	0.30037 0.43973 0.41076 -0.31300
O 	O 	0.33084 0.49401 0.47033 -0.35800
O 	O 	0.29324 0.61718 0.43035 -0.72200
H 	H 	0.35712 0.63463 0.43435 0.17300
C 	C 	0.44339 0.80712 0.01304 0.33100
Ni	Ni	0.35719 0.60580 0.12463 1.13000
Ni	Ni	0.32037 0.76019 0.07430 1.13300
Ni	Ni	0.34654 0.58495 0.03822 1.12800
O 	O 	0.28013 0.65544 0.15440 -0.31500
O 	O 	0.39269 0.70859 0.00372 -0.35900
O 	O 	0.42170 0.84482 0.04093 -0.35000
O 	O 	0.40481 0.84035 0.11689 -0.29800
O 	O 	0.36510 0.66679 0.07938 -0.71900
H 	H 	0.43066 0.71444 0.07723 0.19500
F 	F 	0.34351 0.33692 0.12612 -0.38000
F 	F 	0.31141 0.86058 0.17712 -0.33600
F 	F 	0.15734 0.23016 0.41784 -0.37000
F 	F 	0.26686 0.85576 0.32468 -0.33400
C 	C 	0.41860 0.81870 0.55795 -0.03900
H 	H 	0.34728 0.76980 0.56464 0.10800
O 	O 	0.43194 0.92946 0.60649 -0.20800
H 	H 	0.44650 0.90064 0.62782 0.20900
C 	C 	0.35445 0.30583 0.46938 0.18100
H 	H 	0.38045 0.20809 0.50380 0.08900
O 	O 	0.26315 0.25771 0.47751 -0.21500
H 	H 	0.25810 0.29078 0.49975 0.17200
C 	C 	0.33048 0.26829 0.69008 0.30200
C 	C 	0.36194 0.13451 0.64830 0.28700
C 	C 	0.42149 0.24063 0.64550 -0.18500
C 	C 	0.40387 0.30745 0.66603 0.29200
F 	F 	0.30976 0.33330 0.70768 -0.33800
F 	F 	0.37073 0.06925 0.62567 -0.37900
C 	C 	0.47192 0.93489 0.96600 0.23800
O 	O 	0.38077 0.88930 0.95802 -0.25200
H 	H 	0.37455 0.85579 0.93450 0.20400
H 	H 	0.45948 0.34232 0.99330 0.09100
O 	O 	0.39969 0.34120 0.05843 -0.23400
H 	H 	0.41562 0.29228 0.06975 0.19900
C 	C 	0.42422 0.13799 0.84500 0.28100
C 	C 	0.33624 0.12360 0.83991 0.27000
C 	C 	0.32079 0.18448 0.81494 -0.16400
C 	C 	0.39461 0.25594 0.79413 0.27200
F 	F 	0.38254 0.31538 0.76985 -0.34400
F 	F 	0.43827 0.08258 0.87050 -0.38900
O 	O 	0.39069 0.79247 0.38580 -0.31800
F 	F 	0.02345 0.36410 0.60820 -0.34200
C 	C 	0.41008 0.27176 0.48515 -0.03900
O 	O 	0.44147 0.54439 0.10606 -0.29200
C 	C 	0.47076 0.90708 0.57805 0.18500
C 	C 	0.43967 0.74999 0.37431 0.39300
O 	O 	0.40560 0.64958 0.37396 -0.34700
C 	C 	0.48659 0.56403 0.07454 0.32000
C 	C 	0.47517 0.82903 0.12835 0.38400
O 	O 	0.47231 0.61346 0.04868 -0.35900
O 	O 	0.46226 0.74168 0.14187 -0.33300
F 	F 	0.43205 0.83921 0.30832 -0.32700
C 	C 	0.45533 0.80092 0.52667 -0.07300
C 	C 	0.39319 0.39294 0.44712 -0.06000
F 	F 	0.45827 0.41009 0.66309 -0.33100
C 	C 	0.50550 0.88238 0.98672 -0.09900
H 	H 	0.50144 0.07811 0.94193 0.11700
C 	C 	0.50391 0.40901 0.00901 -0.06500
C 	C 	0.47987 0.41672 0.04445 0.17500
C 	C 	0.48248 0.26981 0.79964 0.28900
C 	C 	0.49898 0.21932 0.82808 -0.17000
C 	C 	0.52914 0.03754 0.95680 -0.09500
C 	C 	0.50767 0.27903 0.62504 0.39700
C 	C 	0.50487 0.32713 0.48043 -0.09600
C 	C 	0.03874 0.46952 0.00623 0.21500
C 	C 	0.53249 0.50730 0.06375 -0.05900
O 	O 	0.54198 0.21845 0.62061 -0.35200
O 	O 	0.55345 0.37543 0.61465 -0.32300
C 	C 	0.48590 0.43851 0.43801 -0.05600
C 	C 	0.51190 0.84428 0.31796 0.29300
F 	F 	0.03543 0.78962 0.93580 -0.34400
F 	F 	0.56141 0.02062 0.16812 -0.34800
C 	C 	0.58076 0.27917 0.84977 0.38800
O 	O 	0.58291 0.35578 0.86783 -0.35300
O 	O 	0.54777 0.32992 0.54182 -0.36800
C 	C 	0.52133 0.81166 0.35230 -0.17800
C 	C 	0.55918 0.97770 0.56653 -0.04400
C 	C 	0.54943 0.86031 0.52000 0.17100
C 	C 	0.54202 0.40603 0.45465 0.19100
H 	H 	0.51599 0.50445 0.42036 0.10200
C 	C 	0.58887 0.48198 0.99509 -0.06300
F 	F 	0.55376 0.34371 0.78096 -0.33800
C 	C 	0.56372 0.32011 0.50815 0.32800
C 	C 	0.56976 0.91022 0.12410 -0.18200
C 	C 	0.59517 0.08639 0.57365 0.31500
O 	O 	0.59584 0.14458 0.54746 -0.36000
F 	F 	0.56963 0.89894 0.25876 -0.32800
C 	C 	0.59996 0.92877 0.99280 0.01500
C 	C 	0.62576 0.45170 0.96451 0.30700
C 	C 	0.60834 0.97881 0.15259 0.31100
F 	F 	0.59961 0.83454 0.07313 -0.41800
C 	C 	0.60116 0.94906 0.53989 0.00400
C 	C 	0.58213 0.87448 0.29259 0.29200
O 	O 	0.58861 0.83781 0.49167 -0.23500
C 	C 	0.62242 0.08683 0.96523 -0.05400
O 	O 	0.64339 0.50194 0.93278 -0.29800
H 	H 	0.62767 0.88750 0.00714 0.10800
C 	C 	0.62372 0.56694 0.05341 -0.05200
C 	C 	0.62746 0.88398 0.10487 0.26500
H 	H 	0.60998 0.79216 0.50174 0.18100
O 	O 	0.65479 0.38693 0.97153 -0.37200
H 	H 	0.65531 0.32358 0.91534 0.18300
Ni	Ni	0.64779 0.42757 0.57459 1.13200
O 	O 	0.64343 0.12708 0.60274 -0.32200
O 	O 	0.63662 0.31473 0.49904 -0.33900
C 	C 	0.60459 0.81836 0.36204 0.28600
F 	F 	0.66005 0.61121 0.65677 -0.34400
C 	C 	0.64991 0.56090 0.01807 0.18400
O 	O 	0.65616 0.27053 0.84454 -0.31400
O 	O 	0.63420 0.45810 0.44837 -0.25600
H 	H 	0.64412 0.42186 0.42814 0.19800
F 	F 	0.61543 0.78976 0.39545 -0.38000
C 	C 	0.65812 0.03116 0.98281 0.14000
O 	O 	0.01294 0.45037 0.04161 -0.20700
C 	C 	0.00656 0.41823 0.94424 -0.01900
Ni	Ni	0.67557 0.26851 0.62157 1.13600
C 	C 	0.68363 0.18269 0.94613 0.29600
O 	O 	0.68310 0.17940 0.91068 -0.34900
H 	H 	0.67124 0.00072 0.53219 0.07400
C 	C 	0.66258 0.87304 0.30151 -0.16600
Ni	Ni	0.70186 0.47668 0.88494 1.12900
H 	H 	0.66961 0.63036 0.07012 0.12100
F 	F 	0.71517 0.32577 0.77097 -0.34300
C 	C 	0.68830 0.99078 0.16868 0.32700
O 	O 	0.70539 0.39257 0.65337 -0.32400
O 	O 	0.70081 0.34202 0.57781 -0.72100
C 	C 	0.67506 0.84925 0.33680 0.28400
Ni	Ni	0.71193 0.28019 0.53563 1.12300
F 	F 	0.72647 0.71536 0.93349 -0.39500
O 	O 	0.71803 0.37653 0.90921 -0.71400
C 	C 	0.70281 0.88758 0.12221 0.30000
F 	F 	0.01188 0.58415 0.80171 -0.31500
C 	C 	0.73667 0.63255 0.67536 0.29500
F 	F 	0.73916 0.78018 0.69987 -0.33200
H 	H 	0.73274 0.69186 0.00002 0.21100
O 	O 	0.73310 0.50383 0.53207 -0.34200
F 	F 	0.72637 0.05748 0.19612 -0.40000
O 	O 	0.73967 0.51985 0.61034 -0.35700
O 	O 	0.73590 0.62975 0.00656 -0.25100
C 	C 	0.72892 0.93419 0.15585 -0.20200
C 	C 	0.74387 0.49103 0.64363 0.39800
C 	C 	0.72975 0.88683 0.27349 0.36900
O 	O 	0.75340 0.47405 0.83304 -0.30200
O 	O 	0.74601 0.26520 0.96413 -0.35700
F 	F 	0.76452 0.84895 0.87766 -0.36500
O 	O 	0.75005 0.07494 0.98893 -0.24500
F 	F 	0.75755 0.03656 0.60014 -0.39400
F 	F 	0.74822 0.84361 0.10690 -0.38000
Ni	Ni	0.76055 0.30191 0.88129 1.12800
O 	O 	0.75321 0.81474 0.26951 -0.32200
H 	H 	0.76485 0.39391 0.58195 0.17300
O 	O 	0.75497 0.96219 0.24971 -0.27000
H 	H 	0.75957 0.10636 0.01303 0.17300
F 	F 	0.77870 0.19057 0.76005 -0.37300
F 	F 	0.75450 0.85302 0.34630 -0.37100
O 	O 	0.00810 0.20269 0.72356 -0.30500
C 	C 	0.77636 0.56966 0.67180 -0.17600
C 	C 	0.77694 0.71874 0.69743 0.29400
Ni	Ni	0.77664 0.41482 0.95450 1.12500
O 	O 	0.77781 0.84287 0.19570 -0.33800
O 	O 	0.79655 0.23137 0.56093 -0.34000
C 	C 	0.00192 0.23280 0.64953 0.34400
C 	C 	0.80344 0.35448 0.77820 0.27700
C 	C 	0.79949 0.92683 0.17707 0.45200
O 	O 	0.80611 0.29945 0.61794 -0.34700
C 	C 	0.81287 0.76747 0.92058 0.27000
C 	C 	0.81245 0.50688 0.52544 0.30700
F 	F 	0.81361 0.97064 0.65846 -0.31700
O 	O 	0.81463 0.56817 0.95668 -0.34300
C 	C 	0.99664 0.16975 0.34379 -0.20400
F 	F 	0.99764 0.54598 0.35657 -0.38000
C 	C 	0.98881 0.13772 0.30576 0.34400
C 	C 	0.98393 0.67802 0.32640 0.22000
C 	C 	0.96902 0.82247 0.29971 0.33500
C 	C 	0.96720 0.26536 0.38937 0.25400
C 	C 	0.94218 0.20937 0.35751 0.29400
C 	C 	0.99763 0.65535 0.46430 -0.09500
F 	F 	0.92064 0.31284 0.40044 -0.35700
O 	O 	0.92023 0.13060 0.28643 -0.31000
O 	O 	0.92461 0.96903 0.25104 -0.71000
O 	O 	0.90335 0.77042 0.27559 -0.30500
O 	O 	0.94678 0.83667 0.19987 -0.34700
H 	H 	0.90135 0.96047 0.27573 0.16900
F 	F 	0.93523 0.66080 0.17646 -0.38100
F 	F 	0.89167 0.61992 0.32735 -0.34600
C 	C 	0.84737 0.62845 0.92841 0.40500
C 	C 	0.82626 0.46336 0.83025 0.39500
C 	C 	0.92658 0.40347 0.92460 0.30200
O 	O 	0.89756 0.46604 0.93193 -0.36900
O 	O 	0.83134 0.58830 0.89687 -0.36200
O 	O 	0.85094 0.43277 0.85810 -0.38100
O 	O 	0.87069 0.31618 0.90918 -0.34800
C 	C 	0.83211 0.25384 0.59394 0.38600
O 	O 	0.81764 0.42216 0.52162 -0.33700
C 	C 	0.90578 0.84020 0.73599 0.40700
C 	C 	0.93014 0.91438 0.83726 0.36500
C 	C 	0.95295 0.12273 0.70454 0.35700
C 	C 	0.95257 0.23150 0.78908 0.32900
Ni	Ni	0.89448 0.00927 0.77363 1.12000
O 	O 	0.89130 0.03857 0.72079 -0.32200
O 	O 	0.99470 0.89342 0.73410 -0.32600
O 	O 	0.86119 0.86332 0.75985 -0.31800
O 	O 	0.88712 0.13415 0.79078 -0.32600
O 	O 	0.97136 0.88191 0.81454 -0.31400
O 	O 	0.88444 0.95975 0.82523 -0.30400
Ni	Ni	0.89142 0.06528 0.23593 1.12800
Ni	Ni	0.85495 0.82918 0.23641 1.13500
O 	O 	0.87310 0.01048 0.18467 -0.36200
F 	F 	0.97339 0.17427 0.14422 -0.39000
F 	F 	0.86784 0.19773 0.33935 -0.35700
C 	C 	0.89160 0.60275 0.51425 -0.07900
C 	C 	0.96535 0.64802 0.53804 -0.07100
C 	C 	0.90912 0.62102 0.47729 0.20100
H 	H 	0.95286 0.64196 0.56672 0.09700
O 	O 	0.83817 0.58941 0.45362 -0.24500
H 	H 	0.82991 0.64970 0.44993 0.19000
C 	C 	0.83587 0.10204 0.61710 0.27600
C 	C 	0.88375 0.20544 0.60697 -0.17600
C 	C 	0.97157 0.26722 0.62057 0.22700
C 	C 	0.94237 0.13835 0.66591 -0.20200
C 	C 	0.86399 0.06875 0.64709 0.26200
C 	C 	0.85308 0.58980 0.69239 0.28900
C 	C 	0.89363 0.67626 0.71444 0.28800
C 	C 	0.85749 0.74315 0.71605 -0.17600
F 	F 	0.96805 0.69518 0.73414 -0.35500
F 	F 	0.89019 0.52765 0.69014 -0.36500
C 	C 	0.99214 0.39340 0.98068 -0.12400
H 	H 	0.93292 0.32273 0.98899 0.10200
H 	H 	0.96984 0.47674 0.04516 0.15600
C 	C 	0.95378 0.48551 0.79295 0.28300
C 	C 	0.85897 0.44735 0.79550 -0.16800
C 	C 	0.83528 0.28445 0.77368 0.26600
C 	C 	0.92564 0.31212 0.78367 -0.16500
C 	C 	0.98714 0.41624 0.79010 0.25900
C 	C 	0.87725 0.73781 0.93044 -0.18800
C 	C 	0.96881 0.80491 0.92168 0.27600
C 	C 	0.98926 0.87277 0.89273 0.26100
C 	C 	0.91841 0.87949 0.87514 -0.16700
C 	C 	0.83199 0.83487 0.89161 0.27500
