data_crystal

_cell_length_a 26.16725
_cell_length_b 26.13463
_cell_length_c 44.80633
_cell_angle_alpha 95.50202
_cell_angle_beta  95.50062
_cell_angle_gamma 125.77412

_symmetry_space_group_name_	'P 1'
_symmetry_space_group_name_H-M	'P 1'

loop_
_symmetry_equiv_pos_as_xyz
  x,y,z

loop_
_atom_site_label
_atom_site_type_symbol
_atom_site_fract_x
_atom_site_fract_y
_atom_site_fract_z
_atom_site_charge
C 	C 	0.95083 0.03244 0.99347 0.10400
C 	C 	0.04262 0.03519 0.99478 0.10700
N 	N 	0.01543 0.06637 0.99572 -0.13600
N 	N 	0.02961 0.03984 0.47740 -0.13600
Cu	Cu	0.61807 0.23682 0.99839 0.92700
Cu	Cu	0.64638 0.23200 0.92904 0.86900
Cu	Cu	0.64458 0.33665 0.95956 0.89600
Cu	Cu	0.63265 0.36142 0.02411 0.89400
C 	C 	0.65746 0.28852 0.06277 0.29000
O 	O 	0.52914 0.20519 0.00511 -0.36100
C 	C 	0.60585 0.28964 0.89222 0.28800
O 	O 	0.67308 0.33668 0.00055 -0.64000
O 	O 	0.59779 0.24195 0.95572 -0.64300
O 	O 	0.65174 0.18641 0.99066 -0.37600
O 	O 	0.71391 0.24875 0.95864 -0.43900
O 	O 	0.62988 0.31717 0.05861 -0.38500
O 	O 	0.69578 0.42919 0.96552 -0.38400
C 	C 	0.69751 0.46732 0.98792 0.28300
C 	C 	0.50436 0.23459 0.99700 0.27200
O 	O 	0.54212 0.29404 0.99278 -0.39300
O 	O 	0.66878 0.44579 0.01138 -0.39200
O 	O 	0.65163 0.24779 0.04029 -0.36400
C 	C 	0.70200 0.20927 0.97757 0.28000
O 	O 	0.62812 0.33696 0.91561 -0.38600
O 	O 	0.59855 0.23639 0.89589 -0.42200
H 	H 	0.72022 0.36256 0.00693 0.16500
H 	H 	0.55154 0.21674 0.94693 0.17300
Cu	Cu	0.75736 0.33943 0.46377 0.92700
Cu	Cu	0.74902 0.29069 0.52874 0.86700
Cu	Cu	0.65060 0.30112 0.49964 0.89600
Cu	Cu	0.63063 0.32043 0.43627 0.89400
C 	C 	0.71347 0.31108 0.39908 0.29100
O 	O 	0.78454 0.42952 0.46191 -0.35800
C 	C 	0.68396 0.31898 0.56681 0.28600
O 	O 	0.65659 0.27924 0.45853 -0.63900
O 	O 	0.74537 0.34842 0.50621 -0.64300
O 	O 	0.80977 0.30733 0.47011 -0.37100
O 	O 	0.73969 0.23276 0.49585 -0.44000
O 	O 	0.68328 0.33653 0.40414 -0.38600
O 	O 	0.55794 0.24917 0.49187 -0.38500
C 	C 	0.52104 0.24859 0.46932 0.28600
C 	C 	0.75036 0.44853 0.47048 0.27300
O 	O 	0.68953 0.40590 0.47156 -0.39500
O 	O 	0.54141 0.26998 0.44419 -0.39300
O 	O 	0.75406 0.31627 0.42130 -0.36200
C 	C 	0.78505 0.25281 0.47970 0.28100
O 	O 	0.64651 0.31502 0.54312 -0.38200
O 	O 	0.73811 0.32763 0.56404 -0.42100
H 	H 	0.63286 0.23265 0.45088 0.16500
H 	H 	0.76981 0.39300 0.51765 0.17400
C 	C 	0.59334 0.29851 0.86103 -0.09300
C 	C 	0.63186 0.35956 0.85328 0.01600
C 	C 	0.62941 0.36596 0.82264 -0.07300
C 	C 	0.58832 0.31153 0.79959 0.04400
C 	C 	0.54600 0.25142 0.80741 -0.07400
C 	C 	0.54839 0.24488 0.83801 0.01700
C 	C 	0.59658 0.31564 0.76838 -0.03200
C 	C 	0.60317 0.31862 0.74220 -0.00300
C 	C 	0.61319 0.32092 0.71181 -0.00300
C 	C 	0.62371 0.32183 0.68619 -0.03200
C 	C 	0.63865 0.32157 0.65610 0.04500
C 	C 	0.61425 0.33920 0.63338 -0.07300
C 	C 	0.62901 0.33862 0.60417 0.01900
C 	C 	0.66842 0.32045 0.59758 -0.09200
C 	C 	0.69256 0.30274 0.62048 0.01700
C 	C 	0.67778 0.30341 0.64956 -0.07400
H 	H 	0.66614 0.40153 0.87081 0.03400
H 	H 	0.66176 0.41275 0.81679 0.04900
H 	H 	0.51339 0.20923 0.78972 0.04800
H 	H 	0.51708 0.19776 0.84372 0.02900
H 	H 	0.58396 0.35335 0.63831 0.05000
H 	H 	0.61021 0.35265 0.58682 0.03500
H 	H 	0.72229 0.28785 0.61567 0.02200
H 	H 	0.69664 0.28957 0.66701 0.04700
C 	C 	0.68032 0.28935 0.09433 -0.08800
C 	C 	0.70978 0.34491 0.11671 0.01800
C 	C 	0.72331 0.34333 0.14740 -0.07200
C 	C 	0.70757 0.28628 0.15598 0.04500
C 	C 	0.68140 0.23171 0.13356 -0.07200
C 	C 	0.66792 0.23320 0.10281 0.02100
C 	C 	0.71179 0.28193 0.18780 -0.03100
C 	C 	0.71573 0.27943 0.21457 -0.00100
C 	C 	0.71836 0.27717 0.24599 -0.00100
C 	C 	0.71891 0.27592 0.27283 -0.03100
C 	C 	0.71750 0.27538 0.30485 0.04600
C 	C 	0.65872 0.24492 0.31473 -0.07300
C 	C 	0.65736 0.25359 0.34583 0.01800
C 	C 	0.71483 0.29260 0.36729 -0.08900
C 	C 	0.77362 0.31988 0.35751 0.02300
C 	C 	0.77491 0.31147 0.32634 -0.07200
H 	H 	0.72068 0.38884 0.11040 0.02300
H 	H 	0.74408 0.38588 0.16460 0.04900
H 	H 	0.66946 0.18752 0.14002 0.05000
H 	H 	0.64555 0.19004 0.08580 0.03800
H 	H 	0.61412 0.21656 0.29826 0.04900
H 	H 	0.61172 0.23175 0.35316 0.01900
H 	H 	0.81832 0.34996 0.37388 0.03800
H 	H 	0.82056 0.33493 0.31887 0.05100
C 	C 	0.73737 0.62389 0.45183 -0.03600
C 	C 	0.76634 0.68957 0.45399 -0.05100
C 	C 	0.86269 0.71504 0.48510 -0.02400
C 	C 	0.83379 0.64894 0.48264 0.00100
C 	C 	0.77107 0.60324 0.46578 0.01000
C 	C 	0.86825 0.62862 0.49645 0.01000
C 	C 	0.93047 0.67444 0.51343 -0.03500
C 	C 	0.74334 0.53752 0.46256 -0.02200
C 	C 	0.77828 0.51729 0.47558 -0.06200
C 	C 	0.84044 0.56282 0.49268 -0.02300
H 	H 	0.68900 0.58914 0.43898 0.03700
H 	H 	0.74002 0.70467 0.44271 0.04200
H 	H 	0.95711 0.65935 0.52436 0.03600
H 	H 	0.69535 0.50224 0.44934 0.03500
H 	H 	0.86703 0.54702 0.50295 0.03600
C 	C 	0.75700 0.04880 0.45705 -0.03400
C 	C 	0.79739 0.11592 0.46636 0.00700
C 	C 	0.86346 0.14825 0.47704 0.00100
C 	C 	0.88845 0.11307 0.47901 -0.02600
C 	C 	0.84764 0.04567 0.46958 0.03800
C 	C 	0.95419 0.14529 0.49046 0.03600
C 	C 	0.99466 0.21244 0.49953 -0.05400
C 	C 	0.97001 0.24744 0.49728 -0.03800
C 	C 	0.90445 0.21570 0.48620 0.00800
C 	C 	0.87905 0.25036 0.48497 -0.02500
C 	C 	0.81288 0.21798 0.47553 -0.07000
C 	C 	0.77232 0.15096 0.46576 -0.02100
C 	C 	0.93892 0.04323 0.48204 0.01000
C 	C 	0.97887 0.11018 0.49242 -0.06500
H 	H 	0.70618 0.02352 0.44872 0.03500
H 	H 	0.04533 0.23765 0.50827 0.04300
H 	H 	0.00188 0.29921 0.50439 0.03700
H 	H 	0.91019 0.30206 0.49258 0.03500
H 	H 	0.72124 0.12613 0.45836 0.03700
H 	H 	0.02933 0.13497 0.50160 0.05300
C 	C 	0.34857 0.21303 0.52149 -0.03700
C 	C 	0.28329 0.17977 0.52237 -0.05200
C 	C 	0.23679 0.12949 0.49836 0.03400
C 	C 	0.25605 0.11264 0.47322 -0.02400
C 	C 	0.32170 0.14664 0.47215 0.00000
C 	C 	0.36814 0.19675 0.49647 0.01100
C 	C 	0.34093 0.13043 0.44679 0.00900
C 	C 	0.29443 0.07996 0.42284 -0.03600
C 	C 	0.22920 0.04565 0.42408 -0.05200
C 	C 	0.20965 0.06168 0.44918 0.03600
C 	C 	0.14434 0.02749 0.45055 -0.06500
C 	C 	0.12521 0.04465 0.47544 0.00800
C 	C 	0.17132 0.09572 0.49921 -0.06200
C 	C 	0.43350 0.22988 0.49547 -0.02300
C 	C 	0.45261 0.21409 0.47013 -0.06300
C 	C 	0.40638 0.16465 0.44579 -0.02200
H 	H 	0.38387 0.25152 0.54025 0.03800
H 	H 	0.26895 0.19301 0.54180 0.04100
H 	H 	0.30875 0.06710 0.40329 0.03600
H 	H 	0.15617 0.10858 0.51843 0.04900
H 	H 	0.46945 0.26816 0.51420 0.04100
H 	H 	0.42145 0.15233 0.42636 0.03800
C 	C 	0.72580 0.67103 0.01488 -0.03900
C 	C 	0.74416 0.63592 0.00005 0.01300
C 	C 	0.79627 0.66694 0.98464 -0.00400
C 	C 	0.86694 0.66327 0.95437 -0.03800
C 	C 	0.81504 0.63204 0.96971 0.01100
C 	C 	0.78220 0.56657 0.97060 -0.02400
C 	C 	0.73073 0.53572 0.98627 -0.06300
C 	C 	0.71145 0.57040 0.00069 -0.02400
H 	H 	0.68564 0.64755 0.02667 0.03800
H 	H 	0.88155 0.63682 0.94272 0.03600
H 	H 	0.79723 0.53991 0.95955 0.04200
H 	H 	0.67109 0.54639 0.01236 0.04300
C 	C 	0.88948 0.21709 0.95919 -0.03900
C 	C 	0.92484 0.19267 0.96161 -0.05200
C 	C 	0.90713 0.14350 0.97822 0.03300
C 	C 	0.85426 0.11969 0.99306 -0.02400
C 	C 	0.81861 0.14424 0.99058 -0.00300
C 	C 	0.83589 0.19262 0.97332 0.00900
C 	C 	0.76491 0.11942 0.00485 0.01100
C 	C 	0.74808 0.07127 0.02204 -0.03800
C 	C 	0.78346 0.04689 0.02448 -0.05100
C 	C 	0.83612 0.07032 0.00977 0.03400
C 	C 	0.86981 0.04388 0.01093 -0.05900
C 	C 	0.92101 0.06587 0.99524 0.00500
C 	C 	0.94051 0.11665 0.97950 -0.06100
C 	C 	0.79871 0.21505 0.96988 -0.02700
C 	C 	0.74388 0.18900 0.98329 -0.07000
C 	C 	0.72792 0.14207 0.00125 -0.02300
H 	H 	0.90342 0.25461 0.94605 0.03400
H 	H 	0.96562 0.21160 0.95030 0.04000
H 	H 	0.70719 0.05221 0.03327 0.03800
H 	H 	0.76942 0.00926 0.03756 0.04100
H 	H 	0.85559 0.00549 0.02354 0.04900
H 	H 	0.98014 0.13370 0.96747 0.04900
H 	H 	0.81188 0.25202 0.95645 0.03700
H 	H 	0.68627 0.12247 0.01198 0.04800
C 	C 	0.30875 0.21522 0.96030 -0.03800
C 	C 	0.24478 0.18974 0.96116 -0.05100
C 	C 	0.21122 0.14514 0.97997 0.03300
C 	C 	0.24246 0.12647 0.99826 -0.02300
C 	C 	0.30677 0.15195 0.99731 -0.00300
C 	C 	0.34000 0.19644 0.97824 0.01100
C 	C 	0.33773 0.13275 0.01537 0.01300
C 	C 	0.30435 0.08854 0.03435 -0.03800
C 	C 	0.24049 0.06321 0.03527 -0.05100
C 	C 	0.20915 0.08166 0.01717 0.03400
C 	C 	0.14452 0.05472 0.01723 -0.05900
C 	C 	0.11262 0.07144 0.99822 0.00500
C 	C 	0.14639 0.11775 0.98017 -0.06000
C 	C 	0.40416 0.22187 0.97749 -0.02800
C 	C 	0.43540 0.20346 0.99579 -0.06400
C 	C 	0.40182 0.15839 0.01443 -0.02500
H 	H 	0.33393 0.24949 0.94562 0.03700
H 	H 	0.22128 0.20449 0.94706 0.04100
H 	H 	0.32779 0.07366 0.04839 0.03900
H 	H 	0.21531 0.02890 0.04993 0.04200
H 	H 	0.11851 0.01959 0.03146 0.05100
H 	H 	0.12166 0.13061 0.96553 0.04900
H 	H 	0.42987 0.25617 0.96288 0.04100
H 	H 	0.42600 0.14448 0.02870 0.04800
C 	C 	0.05697 0.00906 0.47672 0.10700
C 	C 	0.82925 0.73544 0.47027 0.03500
C 	C 	0.78200 0.01393 0.45855 -0.05800
C 	C 	0.90053 0.72893 0.95418 -0.05000
C 	C 	0.95891 0.74005 0.51611 -0.05400
C 	C 	0.87310 0.01099 0.47100 -0.06800
C 	C 	0.83014 0.73305 0.98448 -0.02000
C 	C 	0.75955 0.73674 0.01479 -0.04700
C 	C 	0.92568 0.76069 0.50165 0.03600
H 	H 	0.94071 0.75241 0.94240 0.04100
H 	H 	0.74508 0.76324 0.02653 0.04100
H 	H 	0.00721 0.77480 0.52905 0.04400
C 	C 	0.88273 0.76422 0.96937 0.03200
C 	C 	0.81202 0.76817 0.99983 0.02800
C 	C 	0.96746 0.00827 0.48060 0.10400
C 	C 	0.85996 0.80134 0.47102 -0.06100
H 	H 	0.83530 0.81706 0.45867 0.05000
C 	C 	0.95553 0.82632 0.50263 -0.06300
C 	C 	0.92379 0.84671 0.48638 0.00800
C 	C 	0.91750 0.83042 0.97007 -0.05900
C 	C 	0.84730 0.83444 0.00050 -0.05500
H 	H 	0.19392 0.00667 0.40548 0.04200
H 	H 	0.95797 0.85451 0.95846 0.05100
N 	N 	0.91364 0.96740 0.98995 -0.13600
C 	C 	0.94072 0.93624 0.98890 0.11000
N 	N 	0.00516 0.97026 0.99138 -0.13500
N 	N 	0.02217 0.94633 0.47908 -0.13400
C 	C 	0.96014 0.91432 0.48255 0.10700
N 	N 	0.93260 0.94529 0.48325 -0.13500
H 	H 	0.00422 0.86150 0.51513 0.05400
H 	H 	0.75022 0.96221 0.45122 0.04500
H 	H 	0.84220 0.95943 0.46294 0.05400
H 	H 	0.10841 0.98802 0.43223 0.05400
C 	C 	0.90062 0.86586 0.98604 0.00300
H 	H 	0.83435 0.86181 0.01288 0.05000
