data_crystal

_cell_length_a 18.54491
_cell_length_b 18.86043
_cell_length_c 28.53797
_cell_angle_alpha 95.42784
_cell_angle_beta  95.42907
_cell_angle_gamma 126.40274

_symmetry_space_group_name_	'P 1'
_symmetry_space_group_name_H-M	'P 1'

loop_
_symmetry_equiv_pos_as_xyz
  x,y,z

loop_
_atom_site_label
_atom_site_type_symbol
_atom_site_fract_x
_atom_site_fract_y
_atom_site_fract_z
_atom_site_charge
C 	C 	0.90251 0.99160 0.95705 0.23400
N 	N 	0.99327 0.04300 0.95681 -0.14800
C 	C 	0.03869 0.00751 0.96063 0.18100
N 	N 	0.99332 0.92015 0.96407 -0.11800
C 	C 	0.90228 0.86766 0.96329 0.19000
N 	N 	0.85653 0.90341 0.96011 -0.12000
C 	C 	0.95218 0.03706 0.49819 0.14000
N 	N 	0.04473 0.08736 0.50618 -0.10200
C 	C 	0.08510 0.04753 0.49822 0.16500
N 	N 	0.03362 0.95713 0.48617 -0.09500
C 	C 	0.94178 0.90627 0.48146 0.17900
N 	N 	0.90085 0.94636 0.48536 -0.09900
Cu	Cu	0.74933 0.33722 0.94783 0.93400
Cu	Cu	0.74360 0.26625 0.04877 0.89300
Cu	Cu	0.60656 0.28717 0.01078 0.90300
Cu	Cu	0.57809 0.33080 0.91600 0.91200
C 	C 	0.67930 0.30888 0.84753 0.31200
O 	O 	0.80337 0.46874 0.94811 -0.32700
C 	C 	0.66456 0.30841 0.11492 0.30700
O 	O 	0.60753 0.26284 0.94422 -0.63600
O 	O 	0.74062 0.35034 0.01647 -0.63800
O 	O 	0.81085 0.27818 0.95046 -0.33300
O 	O 	0.71260 0.18163 0.99433 -0.41000
O 	O 	0.63883 0.34453 0.85996 -0.34700
O 	O 	0.47556 0.21722 0.00105 -0.36300
C 	C 	0.42501 0.22089 0.96708 0.34300
C 	C 	0.76178 0.50181 0.96271 0.32100
O 	O 	0.67838 0.44756 0.97037 -0.36300
O 	O 	0.46174 0.28125 0.93927 -0.35700
O 	O 	0.73368 0.30628 0.87959 -0.32900
C 	C 	0.77263 0.20284 0.96686 0.33100
O 	O 	0.60470 0.29810 0.08020 -0.34700
O 	O 	0.73964 0.32131 0.10659 -0.38400
H 	H 	0.56833 0.19831 0.92957 0.18900
H 	H 	0.77867 0.41251 0.03488 0.20200
Cu	Cu	0.62694 0.21854 0.51491 0.93400
Cu	Cu	0.66094 0.18556 0.40605 0.88700
Cu	Cu	0.67313 0.34741 0.44540 0.91000
Cu	Cu	0.64369 0.39308 0.54195 0.91300
C 	C 	0.66919 0.29956 0.61440 0.31400
O 	O 	0.49831 0.17265 0.52114 -0.33700
C 	C 	0.62121 0.26813 0.34159 0.31300
O 	O 	0.70506 0.35564 0.51242 -0.63800
O 	O 	0.60094 0.21573 0.44554 -0.63700
O 	O 	0.67705 0.14957 0.51231 -0.34100
O 	O 	0.75703 0.21505 0.45397 -0.40800
O 	O 	0.63848 0.34430 0.60183 -0.34600
O 	O 	0.74893 0.47614 0.45066 -0.34900
C 	C 	0.74589 0.53038 0.48177 0.33500
C 	C 	0.46372 0.21131 0.50463 0.32500
O 	O 	0.51729 0.29054 0.49340 -0.36400
O 	O 	0.68798 0.49970 0.51164 -0.35600
O 	O 	0.67015 0.24454 0.58256 -0.33600
C 	C 	0.74207 0.16905 0.48841 0.31900
O 	O 	0.66190 0.34056 0.37527 -0.35000
O 	O 	0.59699 0.19115 0.35201 -0.39000
H 	H 	0.77149 0.39303 0.52495 0.19200
H 	H 	0.53546 0.18194 0.43183 0.19800
C 	C 	0.68526 0.29790 0.79800 -0.04900
C 	C 	0.68727 0.29326 0.75581 0.06700
C 	C 	0.68566 0.29229 0.70623 0.06800
C 	C 	0.68046 0.29441 0.66406 -0.05300
C 	C 	0.62058 0.27815 0.29240 -0.06700
C 	C 	0.62477 0.28690 0.25124 0.06200
C 	C 	0.63456 0.29653 0.20334 0.06000
C 	C 	0.64656 0.30325 0.16273 -0.06400
C 	C 	0.78441 0.65491 0.43891 0.11900
C 	C 	0.80084 0.62625 0.47977 -0.10800
C 	C 	0.86256 0.68969 0.52098 0.11800
C 	C 	0.90284 0.78076 0.52267 0.08300
C 	C 	0.88947 0.80991 0.48137 -0.03900
C 	C 	0.83083 0.74708 0.43933 0.08300
Br	Br	0.81523 0.78746 0.38229 -0.12500
Br	Br	0.69538 0.56809 0.38336 -0.14300
Br	Br	0.97218 0.86508 0.58229 -0.11200
Br	Br	0.89411 0.65180 0.57458 -0.17500
C 	C 	0.89363 0.19873 0.49428 0.11700
C 	C 	0.80313 0.14477 0.50219 -0.10900
C 	C 	0.76932 0.06253 0.51729 0.09700
C 	C 	0.82647 0.03696 0.52409 0.05900
C 	C 	0.90705 0.08023 0.50478 -0.02900
C 	C 	0.93981 0.16150 0.48891 0.06500
Br	Br	0.03838 0.21541 0.45365 -0.11900
Br	Br	0.95802 0.32552 0.49651 -0.17100
Br	Br	0.79986 0.95087 0.56450 -0.09700
Br	Br	0.64364 0.98015 0.52394 -0.11300
C 	C 	0.24181 0.12869 0.54491 0.08100
C 	C 	0.18395 0.10186 0.50072 -0.03700
C 	C 	0.21872 0.11400 0.45803 0.08100
C 	C 	0.30956 0.14662 0.45908 0.11700
C 	C 	0.36674 0.17019 0.50314 -0.11200
C 	C 	0.33317 0.16270 0.54620 0.11600
Br	Br	0.41276 0.20090 0.60700 -0.16100
Br	Br	0.19535 0.11796 0.60363 -0.12700
Br	Br	0.35478 0.15600 0.40000 -0.18300
Br	Br	0.14119 0.08535 0.39808 -0.13100
C 	C 	0.83054 0.71389 0.91931 0.08300
C 	C 	0.85303 0.77098 0.96262 -0.03600
C 	C 	0.84678 0.73994 0.00615 0.07700
C 	C 	0.82167 0.65326 0.00651 0.10900
C 	C 	0.80251 0.59728 0.96326 -0.09900
C 	C 	0.80876 0.62862 0.91970 0.11100
Br	Br	0.78989 0.55611 0.86067 -0.15700
Br	Br	0.82983 0.75308 0.85933 -0.12000
Br	Br	0.81656 0.61222 0.06638 -0.17100
Br	Br	0.87388 0.81690 0.06529 -0.11700
C 	C 	0.85163 0.14672 0.00532 0.10800
C 	C 	0.81026 0.15236 0.96323 -0.10700
C 	C 	0.79312 0.09934 0.91921 0.11700
C 	C 	0.81802 0.04154 0.91740 0.06800
C 	C 	0.85722 0.03456 0.95981 -0.06700
C 	C 	0.86952 0.08388 0.00397 0.08300
Br	Br	0.90925 0.06380 0.06274 -0.14700
Br	Br	0.88946 0.22929 0.06414 -0.24600
Br	Br	0.79901 0.97226 0.85698 -0.09400
Br	Br	0.73477 0.10514 0.86165 -0.16500
C 	C 	0.26564 0.10218 0.92431 0.12100
C 	C 	0.32634 0.16688 0.96544 -0.10800
C 	C 	0.29239 0.18096 0.00450 0.11500
C 	C 	0.19793 0.12733 0.00330 0.07400
C 	C 	0.13725 0.06391 0.96180 -0.03300
C 	C 	0.17110 0.05252 0.92198 0.05900
Br	Br	0.08781 0.97060 0.86384 -0.07500
Br	Br	0.31218 0.07954 0.87189 -0.19000
Br	Br	0.15168 0.13805 0.05916 -0.12400
Br	Br	0.37499 0.27655 0.05859 -0.14600
