data_crystal

_cell_length_a 45.71879
_cell_length_b 42.63628
_cell_length_c 22.77073
_cell_angle_alpha 89.94827
_cell_angle_beta  89.96754
_cell_angle_gamma 89.84497

_symmetry_space_group_name_	'P 1'
_symmetry_space_group_name_H-M	'P 1'

loop_
_symmetry_equiv_pos_as_xyz
  x,y,z

loop_
_atom_site_label
_atom_site_type_symbol
_atom_site_fract_x
_atom_site_fract_y
_atom_site_fract_z
_atom_site_charge
C 	C 	0.51356 0.52966 0.97242 0.01600
C 	C 	0.52795 0.50001 0.97339 0.01600
C 	C 	0.48286 0.53113 0.97105 -0.05100
C 	C 	0.46632 0.50340 0.97235 0.01700
C 	C 	0.51143 0.47227 0.97343 -0.05100
C 	C 	0.48071 0.47375 0.97377 0.01500
H 	H 	0.52235 0.44973 0.97115 0.05600
H 	H 	0.47195 0.55361 0.96691 0.05600
C 	C 	0.46357 0.44623 0.97285 -0.01200
C 	C 	0.43296 0.44756 0.97623 0.01100
C 	C 	0.42021 0.41949 0.99811 -0.04700
C 	C 	0.44106 0.39673 0.01320 0.00100
S 	S 	0.47412 0.41125 0.99822 0.00800
H 	H 	0.39687 0.41562 0.00122 0.05100
C 	C 	0.43545 0.50417 0.96976 -0.01400
C 	C 	0.41883 0.47672 0.97466 0.01300
C 	C 	0.38970 0.48220 0.99410 -0.04900
C 	C 	0.38403 0.51388 0.00573 0.00200
S 	S 	0.41442 0.53417 0.99090 0.01100
H 	H 	0.37314 0.46417 0.99675 0.05100
C 	C 	0.56128 0.55592 0.97466 0.01200
C 	C 	0.53070 0.55717 0.97026 -0.01300
S 	S 	0.51992 0.59253 0.99320 0.00900
C 	C 	0.55284 0.60731 0.00835 0.00200
C 	C 	0.57383 0.58436 0.99523 -0.04900
C 	C 	0.55884 0.49923 0.97176 -0.01200
C 	C 	0.57542 0.52676 0.97538 0.01300
C 	C 	0.60441 0.52164 0.99594 -0.04800
C 	C 	0.61000 0.49018 0.00970 0.00200
S 	S 	0.57973 0.46962 0.99535 0.00700
H 	H 	0.62094 0.53973 0.99785 0.05500
H 	H 	0.59714 0.58827 0.99905 0.05400
C 	C 	0.42461 0.29803 0.01814 0.04400
C 	C 	0.44260 0.31193 0.06059 -0.03700
C 	C 	0.44776 0.34423 0.05915 -0.02800
C 	C 	0.43492 0.36286 0.01534 0.01600
C 	C 	0.41693 0.34889 0.97279 -0.02800
C 	C 	0.41181 0.31660 0.97424 -0.03200
H 	H 	0.45265 0.29769 0.09449 0.05900
H 	H 	0.46173 0.35476 0.09205 0.05000
H 	H 	0.40727 0.36295 0.93818 0.05000
H 	H 	0.39807 0.30597 0.94105 0.06300
C 	C 	0.29685 0.55037 0.99925 0.04900
C 	C 	0.30501 0.52936 0.04377 -0.03500
C 	C 	0.33368 0.51799 0.04653 -0.02800
C 	C 	0.35442 0.52754 0.00478 0.01600
C 	C 	0.34628 0.54880 0.96049 -0.02600
C 	C 	0.31761 0.56019 0.95784 -0.03800
H 	H 	0.28906 0.52159 0.07580 0.06300
H 	H 	0.33972 0.50154 0.08076 0.05100
H 	H 	0.36193 0.55595 0.92740 0.05000
H 	H 	0.31141 0.57630 0.92316 0.06100
C 	C 	0.69744 0.45430 0.00692 0.04500
C 	C 	0.68892 0.47593 0.05005 -0.03500
C 	C 	0.66015 0.48705 0.05172 -0.02800
C 	C 	0.63964 0.47655 0.01041 0.01700
C 	C 	0.64807 0.45445 0.96786 -0.02600
C 	C 	0.67684 0.44328 0.96632 -0.03300
H 	H 	0.70472 0.48450 0.08160 0.06100
H 	H 	0.65387 0.50412 0.08467 0.05000
H 	H 	0.63259 0.44650 0.93515 0.05100
H 	H 	0.68329 0.42660 0.93284 0.06200
C 	C 	0.56885 0.70613 0.00922 0.04500
C 	C 	0.55010 0.69275 0.05099 -0.03600
C 	C 	0.54512 0.66042 0.05095 -0.02800
C 	C 	0.55888 0.64122 0.00919 0.01700
C 	C 	0.57766 0.65467 0.96734 -0.02800
C 	C 	0.58262 0.68700 0.96742 -0.03200
H 	H 	0.53933 0.70742 0.08331 0.05900
H 	H 	0.53055 0.65029 0.08332 0.05100
H 	H 	0.58805 0.64017 0.93427 0.05100
H 	H 	0.59700 0.69722 0.93480 0.06300
Zn	Zn	0.36880 0.11055 0.00306 1.22300
C 	C 	0.40634 0.16460 0.01481 0.34800
O 	O 	0.37941 0.09129 0.92705 -0.44400
O 	O 	0.42559 0.14550 0.03865 -0.42500
O 	O 	0.42478 0.11268 0.92376 -0.46600
C 	C 	0.39876 0.08658 0.10365 0.33800
O 	O 	0.37948 0.10736 0.08601 -0.44200
O 	O 	0.41826 0.07565 0.06674 -0.50100
C 	C 	0.40262 0.09963 0.89684 0.32500
O 	O 	0.33636 0.06852 0.02001 -0.31100
Zn	Zn	0.43380 0.10168 0.00409 1.17800
O 	O 	0.38284 0.15343 0.98903 -0.41900
C 	C 	0.31592 0.08868 0.00804 0.30600
O 	O 	0.32469 0.11685 0.99645 -0.34800
C 	C 	0.49847 0.97725 0.55590 0.01700
C 	C 	0.47295 0.99652 0.55672 0.01600
C 	C 	0.50956 0.96617 0.50223 -0.05200
C 	C 	0.49596 0.97471 0.44924 0.01700
C 	C 	0.45897 0.00450 0.50381 -0.05100
C 	C 	0.47050 0.99408 0.45000 0.01700
H 	H 	0.43875 0.01778 0.50460 0.05800
H 	H 	0.52799 0.95016 0.50183 0.05800
C 	C 	0.45665 0.00146 0.39618 -0.01300
C 	C 	0.46908 0.99256 0.34230 0.01300
C 	C 	0.46073 0.01232 0.29488 -0.05000
C 	C 	0.44253 0.03699 0.31220 0.00800
S 	S 	0.43619 0.03342 0.38407 0.02000
H 	H 	0.46706 0.00835 0.24969 0.04900
C 	C 	0.50628 0.96332 0.39479 -0.01200
C 	C 	0.49375 0.97308 0.34165 0.01400
C 	C 	0.51277 0.96962 0.29276 -0.04800
C 	C 	0.54030 0.95811 0.30841 0.00500
S 	S 	0.54061 0.95177 0.38083 0.02200
H 	H 	0.50637 0.97405 0.24776 0.04800
C 	C 	0.50149 0.98100 0.66316 0.01300
C 	C 	0.51131 0.96845 0.60994 -0.01300
S 	S 	0.54587 0.95679 0.61947 0.01400
C 	C 	0.54935 0.96662 0.69031 0.01000
C 	C 	0.52271 0.97970 0.70860 -0.04800
C 	C 	0.46152 0.00611 0.61159 -0.01200
C 	C 	0.47656 0.00006 0.66399 0.01400
C 	C 	0.46919 0.02105 0.71008 -0.04600
C 	C 	0.44862 0.04366 0.69307 0.00500
S 	S 	0.43992 0.03724 0.62283 0.02000
H 	H 	0.47726 0.01886 0.75457 0.04800
H 	H 	0.51819 0.98588 0.75380 0.04900
Zn	Zn	0.62368 0.89392 0.00068 1.22300
C 	C 	0.58587 0.83971 0.00479 0.35000
O 	O 	0.61570 0.91498 0.92494 -0.44900
O 	O 	0.56560 0.85831 0.02648 -0.42600
O 	O 	0.57090 0.89295 0.91405 -0.46700
C 	C 	0.59005 0.91600 0.09803 0.33900
O 	O 	0.60999 0.89557 0.08197 -0.43600
O 	O 	0.57189 0.92758 0.05913 -0.50100
C 	C 	0.59359 0.90713 0.89119 0.32400
O 	O 	0.65604 0.93490 0.02582 -0.29500
Zn	Zn	0.55857 0.90264 0.99312 1.17900
O 	O 	0.60986 0.85148 0.98183 -0.42200
C 	C 	0.67652 0.91439 0.01640 0.30800
O 	O 	0.66780 0.88702 0.99943 -0.36700
Zn	Zn	0.12357 0.61089 0.97979 1.22400
C 	C 	0.08866 0.66640 0.99684 0.35000
O 	O 	0.11479 0.60783 0.06441 -0.43600
O 	O 	0.06914 0.64836 0.02223 -0.43400
O 	O 	0.07342 0.57927 0.05052 -0.49900
C 	C 	0.08681 0.59876 0.87836 0.32400
O 	O 	0.11165 0.59241 0.90481 -0.43300
O 	O 	0.06621 0.61418 0.90614 -0.47500
C 	C 	0.09483 0.58856 0.08451 0.33800
O 	O 	0.15543 0.56747 0.98923 -0.29500
Zn	Zn	0.05811 0.60535 0.98772 1.17700
O 	O 	0.11007 0.65402 0.96598 -0.41500
C 	C 	0.17617 0.58801 0.98410 0.30800
O 	O 	0.16778 0.61688 0.97862 -0.36600
C 	C 	0.01631 0.50237 0.53090 0.01800
C 	C 	0.99223 0.48119 0.52872 0.01600
C 	C 	0.02925 0.51296 0.47850 -0.05200
C 	C 	0.01859 0.50250 0.42405 0.01700
C 	C 	0.98209 0.47015 0.47436 -0.05100
C 	C 	0.99491 0.48082 0.42202 0.01600
H 	H 	0.96501 0.45260 0.47288 0.05700
H 	H 	0.04739 0.52922 0.48006 0.05800
C 	C 	0.98599 0.46907 0.36684 -0.01200
C 	C 	0.99823 0.48017 0.31442 0.01500
C 	C 	0.98014 0.47527 0.26474 -0.04700
C 	C 	0.95355 0.46102 0.27894 0.00500
S 	S 	0.95309 0.45421 0.35126 0.02000
H 	H 	0.98600 0.48222 0.22053 0.04900
C 	C 	0.02987 0.51411 0.37047 -0.01400
C 	C 	0.02046 0.50243 0.31642 0.01200
C 	C 	0.04038 0.50802 0.26994 -0.04900
C 	C 	0.06565 0.52378 0.28805 0.01000
S 	S 	0.06256 0.53065 0.36030 0.01500
H 	H 	0.03633 0.50137 0.22479 0.05200
C 	C 	0.01211 0.50400 0.63818 0.01300
C 	C 	0.02702 0.51167 0.58651 -0.01500
S 	S 	0.04715 0.54349 0.60020 0.02100
C 	C 	0.03781 0.54845 0.67070 0.00900
C 	C 	0.01819 0.52454 0.68560 -0.05100
C 	C 	0.97975 0.47078 0.58209 -0.01300
C 	C 	0.98840 0.48342 0.63601 0.01200
C 	C 	0.96696 0.48043 0.68075 -0.04800
C 	C 	0.94128 0.46599 0.66124 0.00900
S 	S 	0.94584 0.45691 0.59031 0.01300
H 	H 	0.97069 0.48665 0.72620 0.04800
H 	H 	0.01032 0.52085 0.72990 0.04800
Zn	Zn	0.86999 0.39375 0.97268 1.22300
C 	C 	0.90601 0.33827 0.97813 0.35000
O 	O 	0.88421 0.39594 0.05429 -0.42800
O 	O 	0.92680 0.35634 0.99896 -0.42600
O 	O 	0.92374 0.42517 0.02902 -0.50100
C 	C 	0.89927 0.40479 0.86161 0.32700
O 	O 	0.87766 0.41330 0.89624 -0.45500
O 	O 	0.92205 0.39030 0.88367 -0.46900
C 	C 	0.90559 0.41479 0.06908 0.33700
O 	O 	0.83891 0.43695 0.99113 -0.31100
Zn	Zn	0.93522 0.39954 0.96233 1.17900
O 	O 	0.88248 0.35071 0.95436 -0.42200
C 	C 	0.81812 0.41633 0.99252 0.30900
O 	O 	0.82606 0.38765 0.98262 -0.35100
C 	C 	0.01235 0.97488 0.07334 0.01500
C 	C 	0.02665 0.00448 0.07303 0.01500
C 	C 	0.98164 0.97347 0.07247 -0.05200
C 	C 	0.96506 0.00121 0.06945 0.01500
C 	C 	0.01004 0.03225 0.07160 -0.05200
C 	C 	0.97936 0.03082 0.06888 0.01500
H 	H 	0.02084 0.05478 0.07458 0.05500
H 	H 	0.97074 0.95103 0.07613 0.05600
C 	C 	0.96214 0.05839 0.06787 -0.01200
C 	C 	0.93160 0.05709 0.06203 0.01200
C 	C 	0.91926 0.08499 0.03811 -0.04900
C 	C 	0.94036 0.10743 0.02388 0.00300
S 	S 	0.97316 0.09308 0.04215 0.00600
H 	H 	0.89600 0.08895 0.03308 0.05300
C 	C 	0.93417 0.00048 0.06934 -0.01300
C 	C 	0.91754 0.02796 0.06296 0.01300
C 	C 	0.88885 0.02246 0.04116 -0.05000
C 	C 	0.88363 0.99078 0.02906 0.00400
S 	S 	0.91378 0.97047 0.04636 0.00800
H 	H 	0.87234 0.04054 0.03674 0.05100
C 	C 	0.06017 0.94848 0.07495 0.01300
C 	C 	0.02950 0.94733 0.07689 -0.01200
S 	S 	0.01920 0.91202 0.05308 0.00700
C 	C 	0.05251 0.89714 0.04092 0.00300
C 	C 	0.07319 0.91994 0.05565 -0.04900
C 	C 	0.05751 0.00526 0.07643 -0.01100
C 	C 	0.07425 0.97762 0.07455 0.01300
C 	C 	0.10340 0.98249 0.05474 -0.04900
C 	C 	0.10887 0.01373 0.03964 0.00400
S 	S 	0.07850 0.03458 0.05219 0.00600
H 	H 	0.11989 0.96427 0.05292 0.05300
H 	H 	0.09655 0.91588 0.05405 0.05200
C 	C 	0.92207 0.20524 0.00293 0.04400
C 	C 	0.90993 0.18334 0.96413 -0.03300
C 	C 	0.91574 0.15136 0.97135 -0.02800
C 	C 	0.93390 0.14109 0.01718 0.01600
C 	C 	0.94573 0.16303 0.05649 -0.02800
C 	C 	0.93989 0.19499 0.04924 -0.03500
H 	H 	0.89613 0.19112 0.92826 0.06200
H 	H 	0.90638 0.13460 0.94100 0.05000
H 	H 	0.95928 0.15534 0.09278 0.05000
H 	H 	0.94925 0.21179 0.07950 0.05900
C 	C 	0.79702 0.95299 0.01979 0.04600
C 	C 	0.80499 0.97843 0.98419 -0.03200
C 	C 	0.83344 0.99028 0.98641 -0.02700
C 	C 	0.85409 0.97706 0.02484 0.01600
C 	C 	0.84607 0.95151 0.06039 -0.02700
C 	C 	0.81769 0.93948 0.05767 -0.03900
H 	H 	0.78908 0.98914 0.95511 0.06400
H 	H 	0.83939 0.00988 0.95857 0.05000
H 	H 	0.86157 0.94138 0.09099 0.05000
H 	H 	0.81164 0.91995 0.08558 0.06000
C 	C 	0.19557 0.05073 0.02587 0.04600
C 	C 	0.18721 0.02489 0.99183 -0.03600
C 	C 	0.15876 0.01317 0.99573 -0.02700
C 	C 	0.13841 0.02719 0.03378 0.01600
C 	C 	0.14671 0.05336 0.06732 -0.02600
C 	C 	0.17515 0.06516 0.06311 -0.03300
H 	H 	0.20285 0.01369 0.96280 0.06000
H 	H 	0.15256 0.99312 0.96940 0.04800
H 	H 	0.13137 0.06417 0.09744 0.05100
H 	H 	0.18145 0.08517 0.08948 0.06300
C 	C 	0.07173 0.79917 0.02322 0.04400
C 	C 	0.08908 0.82152 0.99455 -0.03600
C 	C 	0.08276 0.85346 0.00036 -0.03000
C 	C 	0.05911 0.86335 0.03517 0.01800
C 	C 	0.04184 0.84090 0.06413 -0.02800
C 	C 	0.04797 0.80897 0.05769 -0.03200
H 	H 	0.10736 0.81412 0.96758 0.05900
H 	H 	0.09609 0.87050 0.97741 0.04900
H 	H 	0.02384 0.84814 0.09197 0.05200
H 	H 	0.03436 0.79183 0.07970 0.06300
C 	C 	0.90918 0.30403 0.98122 -0.11200
C 	C 	0.93296 0.28888 0.95386 0.20600
C 	C 	0.93676 0.25652 0.96054 -0.09800
C 	C 	0.91689 0.23902 0.99401 -0.00500
C 	C 	0.89265 0.25400 0.01997 0.13800
C 	C 	0.88884 0.28639 0.01332 -0.02000
H 	H 	0.95523 0.24496 0.93989 0.08700
H 	H 	0.87038 0.29793 0.03403 0.08100
Cl	Cl	0.95768 0.31002 0.90963 -0.33800
Cl	Cl	0.86712 0.23251 0.06158 -0.30200
C 	C 	0.92198 0.44848 0.70122 0.01800
C 	C 	0.90451 0.46478 0.74199 0.02000
C 	C 	0.89420 0.44936 0.79212 -0.00500
C 	C 	0.90102 0.41764 0.80161 -0.10200
C 	C 	0.91443 0.40030 0.75626 0.08800
C 	C 	0.92531 0.41587 0.70673 -0.07700
H 	H 	0.88255 0.46255 0.82542 0.05400
H 	H 	0.93759 0.40287 0.67409 0.06800
I 	I 	0.89454 0.51304 0.73014 -0.08900
I 	I 	0.91752 0.35062 0.76039 -0.05500
C 	C 	0.93591 0.44357 0.23613 0.02100
C 	C 	0.94661 0.41557 0.21103 0.02100
C 	C 	0.93444 0.40443 0.15874 0.00200
C 	C 	0.91173 0.42095 0.13120 -0.09900
C 	C 	0.89893 0.44683 0.15975 0.09000
C 	C 	0.91103 0.45796 0.21218 -0.07600
H 	H 	0.94373 0.38387 0.13779 0.04700
H 	H 	0.90216 0.47894 0.23238 0.06800
I 	I 	0.98182 0.39031 0.24968 -0.08900
I 	I 	0.86224 0.47043 0.12338 -0.07600
C 	C 	0.08618 0.70056 0.00210 -0.11400
C 	C 	0.07597 0.71872 0.95469 0.20300
C 	C 	0.07180 0.75102 0.96167 -0.09600
C 	C 	0.07786 0.76543 0.01565 -0.00700
C 	C 	0.08890 0.74737 0.06255 0.13800
C 	C 	0.09276 0.71502 0.05572 -0.02000
H 	H 	0.06344 0.76486 0.92539 0.08700
H 	H 	0.10084 0.70110 0.09215 0.07900
Cl	Cl	0.06750 0.70114 0.88680 -0.32000
Cl	Cl	0.09845 0.76506 0.12971 -0.30400
C 	C 	0.08130 0.58721 0.81836 -0.09500
C 	C 	0.08516 0.55518 0.80413 0.08200
C 	C 	0.07394 0.54355 0.75136 -0.07400
C 	C 	0.05736 0.56292 0.71424 0.01800
C 	C 	0.05556 0.59524 0.72599 0.02500
C 	C 	0.06785 0.60729 0.77753 -0.00000
H 	H 	0.07617 0.51880 0.74139 0.06600
H 	H 	0.06554 0.63204 0.78737 0.07200
I 	I 	0.10458 0.52273 0.86370 -0.08200
I 	I 	0.03275 0.62608 0.66870 -0.07500
C 	C 	0.09655 0.57681 0.14493 -0.10100
C 	C 	0.08097 0.59201 0.19006 0.08800
C 	C 	0.07385 0.57559 0.24134 -0.07600
C 	C 	0.08223 0.54408 0.24784 0.02000
C 	C 	0.10134 0.53055 0.20647 0.02200
C 	C 	0.10834 0.54693 0.15508 0.00400
H 	H 	0.05997 0.58655 0.27404 0.06700
H 	H 	0.12135 0.53561 0.12137 0.05400
I 	I 	0.06648 0.63908 0.18034 -0.09400
I 	I 	0.11826 0.48462 0.21885 -0.08100
C 	C 	0.70773 0.92269 0.01900 -0.09400
C 	C 	0.71926 0.93841 0.06819 0.19700
C 	C 	0.74847 0.94809 0.06809 -0.09200
C 	C 	0.76656 0.94163 0.01983 -0.01000
C 	C 	0.75539 0.92473 0.97173 0.14300
C 	C 	0.72605 0.91547 0.97141 -0.02800
H 	H 	0.75715 0.96058 0.10566 0.08700
H 	H 	0.71741 0.90297 0.93382 0.08300
Cl	Cl	0.69789 0.94459 0.13155 -0.30100
Cl	Cl	0.77804 0.91458 0.91205 -0.30600
C 	C 	0.59137 0.92012 0.83143 -0.10100
C 	C 	0.57891 0.90225 0.78588 0.08900
C 	C 	0.56738 0.91736 0.73642 -0.07600
C 	C 	0.56900 0.95012 0.73126 0.01900
C 	C 	0.58534 0.96726 0.77256 0.02100
C 	C 	0.59639 0.95222 0.82252 -0.00500
H 	H 	0.55588 0.90380 0.70355 0.06800
H 	H 	0.60719 0.96591 0.85618 0.05200
I 	I 	0.57777 0.85249 0.79016 -0.05400
I 	I 	0.59258 0.01609 0.76163 -0.09200
C 	C 	0.56042 0.94325 0.26641 0.02100
C 	C 	0.55534 0.91245 0.24628 0.02200
C 	C 	0.56826 0.90226 0.19390 0.00100
C 	C 	0.58538 0.92281 0.16042 -0.09800
C 	C 	0.59269 0.95240 0.18336 0.09100
C 	C 	0.58061 0.96222 0.23675 -0.07600
H 	H 	0.56318 0.87915 0.17700 0.05200
H 	H 	0.58515 0.98562 0.25283 0.06900
I 	I 	0.52643 0.88166 0.29109 -0.08800
I 	I 	0.62008 0.98366 0.13615 -0.05900
C 	C 	0.28471 0.08079 0.01398 -0.09200
C 	C 	0.26437 0.08944 0.97027 0.19700
C 	C 	0.23510 0.08029 0.97547 -0.09000
C 	C 	0.22594 0.06218 0.02347 -0.01100
C 	C 	0.24619 0.05369 0.06727 0.14300
C 	C 	0.27538 0.06310 0.06247 -0.03000
H 	H 	0.21959 0.08669 0.94150 0.08700
H 	H 	0.29089 0.05642 0.09626 0.08500
Cl	Cl	0.27551 0.11005 0.90702 -0.29800
Cl	Cl	0.23545 0.03053 0.12762 -0.30700
C 	C 	0.40644 0.08825 0.83622 -0.09800
C 	C 	0.42145 0.10651 0.79432 0.08900
C 	C 	0.43323 0.09216 0.74431 -0.07600
C 	C 	0.42936 0.05997 0.73488 0.02000
C 	C 	0.41052 0.04292 0.77207 0.02100
C 	C 	0.39939 0.05705 0.82283 -0.00400
H 	H 	0.44639 0.10577 0.71405 0.06900
H 	H 	0.38654 0.04327 0.85336 0.05600
I 	I 	0.42531 0.15589 0.80391 -0.05000
I 	I 	0.39841 0.99597 0.75265 -0.09000
C 	C 	0.40112 0.07854 0.16609 -0.10200
C 	C 	0.39145 0.04916 0.18641 0.08900
C 	C 	0.40239 0.03707 0.23918 -0.07600
C 	C 	0.42326 0.05391 0.27135 0.02000
C 	C 	0.42988 0.08492 0.25493 0.02200
C 	C 	0.41866 0.09716 0.20249 0.00100
H 	H 	0.39630 0.01364 0.25297 0.06800
H 	H 	0.42534 0.12027 0.18794 0.05000
I 	I 	0.36160 0.02191 0.13681 -0.08300
I 	I 	0.45878 0.11273 0.30581 -0.08800
C 	C 	0.42003 0.26384 0.01840 -0.00700
C 	C 	0.39446 0.25086 0.04274 0.13900
C 	C 	0.39016 0.21839 0.04135 -0.01900
C 	C 	0.41131 0.19864 0.01621 -0.11400
C 	C 	0.43687 0.21166 0.99174 0.20800
C 	C 	0.44114 0.24412 0.99317 -0.09600
H 	H 	0.37045 0.20848 0.06014 0.07700
H 	H 	0.46076 0.25408 0.97405 0.08700
Cl	Cl	0.36776 0.27503 0.07553 -0.30500
Cl	Cl	0.46312 0.18775 0.95683 -0.33900
C 	C 	0.26621 0.56081 0.99422 -0.01000
C 	C 	0.25561 0.58582 0.02856 0.14300
C 	C 	0.22625 0.59488 0.02427 -0.03000
C 	C 	0.20727 0.57912 0.98600 -0.09200
C 	C 	0.21811 0.55461 0.95052 0.19600
C 	C 	0.24743 0.54549 0.95506 -0.09100
H 	H 	0.21808 0.61391 0.05130 0.08300
H 	H 	0.25565 0.52651 0.92799 0.08700
Cl	Cl	0.27892 0.60602 0.07701 -0.30500
Cl	Cl	0.19560 0.53612 0.89823 -0.29800
C 	C 	0.72824 0.44434 0.00254 -0.01000
C 	C 	0.74762 0.45994 0.96447 0.14400
C 	C 	0.77690 0.45053 0.96138 -0.03000
C 	C 	0.78713 0.42559 0.99604 -0.09100
C 	C 	0.76776 0.41013 0.03454 0.19600
C 	C 	0.73842 0.41948 0.03736 -0.09100
H 	H 	0.79171 0.46256 0.93182 0.08200
H 	H 	0.72359 0.40762 0.06712 0.08700
Cl	Cl	0.73553 0.49153 0.92076 -0.30800
Cl	Cl	0.78024 0.38016 0.08167 -0.29600
C 	C 	0.57339 0.74032 0.00816 -0.00700
C 	C 	0.59760 0.75382 0.03664 0.13800
C 	C 	0.60161 0.78633 0.03499 -0.01900
C 	C 	0.58152 0.80559 0.00542 -0.11400
C 	C 	0.55746 0.79204 0.97642 0.20700
C 	C 	0.55345 0.75953 0.97813 -0.09700
H 	H 	0.62022 0.79666 0.05716 0.07700
H 	H 	0.53493 0.74917 0.95574 0.08700
Cl	Cl	0.62292 0.73025 0.07490 -0.30400
Cl	Cl	0.53283 0.81535 0.93579 -0.33700
