data_crystal

_cell_length_a 26.24964
_cell_length_b 26.50551
_cell_length_c 39.07771
_cell_angle_alpha 95.49823
_cell_angle_beta  95.49680
_cell_angle_gamma 125.83165

_symmetry_space_group_name_	'P 1'
_symmetry_space_group_name_H-M	'P 1'

loop_
_symmetry_equiv_pos_as_xyz
  x,y,z

loop_
_atom_site_label
_atom_site_type_symbol
_atom_site_fract_x
_atom_site_fract_y
_atom_site_fract_z
_atom_site_charge
C 	C 	0.01654 0.06563 0.99777 0.14000
N 	N 	0.08106 0.10200 0.00049 -0.13000
C 	C 	0.11105 0.07428 0.99832 0.13500
N 	N 	0.95341 0.99797 0.46542 -0.13000
Cu	Cu	0.68886 0.27980 0.00591 0.93200
Cu	Cu	0.71649 0.26614 0.92665 0.87900
Cu	Cu	0.72573 0.37832 0.95964 0.90200
Cu	Cu	0.71190 0.40898 0.03348 0.90300
C 	C 	0.70436 0.32012 0.07858 0.29400
O 	O 	0.60014 0.25037 0.01152 -0.35800
C 	C 	0.68551 0.32827 0.88303 0.29100
O 	O 	0.74833 0.37826 0.00758 -0.63800
O 	O 	0.67239 0.28437 0.95635 -0.64100
O 	O 	0.71878 0.22630 0.00044 -0.35800
O 	O 	0.78126 0.28006 0.96156 -0.42500
O 	O 	0.71815 0.37643 0.07677 -0.36800
O 	O 	0.78229 0.46954 0.96604 -0.37100
C 	C 	0.78190 0.50836 0.98965 0.29500
C 	C 	0.57946 0.28369 0.00493 0.28900
O 	O 	0.61912 0.34149 0.99939 -0.37900
O 	O 	0.74562 0.48772 0.01373 -0.37300
O 	O 	0.71642 0.29149 0.05480 -0.35700
C 	C 	0.76671 0.24263 0.98447 0.29200
O 	O 	0.71701 0.37813 0.90889 -0.37900
O 	O 	0.67308 0.27373 0.88774 -0.40700
H 	H 	0.79477 0.40083 0.01574 0.18000
H 	H 	0.62685 0.26292 0.94617 0.18300
Cu	Cu	0.68794 0.30050 0.45389 0.93100
Cu	Cu	0.68881 0.26357 0.53173 0.87800
Cu	Cu	0.58221 0.26232 0.49571 0.90200
Cu	Cu	0.56435 0.28651 0.42373 0.90000
C 	C 	0.64633 0.27653 0.37937 0.29400
O 	O 	0.71931 0.39009 0.45089 -0.35100
C 	C 	0.62496 0.29664 0.57279 0.29400
O 	O 	0.58793 0.24349 0.44830 -0.64100
O 	O 	0.67733 0.31222 0.50261 -0.64000
O 	O 	0.73949 0.26818 0.46122 -0.35900
O 	O 	0.67680 0.20158 0.49618 -0.42500
O 	O 	0.61436 0.29966 0.38559 -0.37400
O 	O 	0.48978 0.20951 0.48603 -0.37000
C 	C 	0.45363 0.21093 0.46072 0.29600
C 	C 	0.68770 0.41176 0.46048 0.28400
O 	O 	0.62740 0.37195 0.46309 -0.37900
O 	O 	0.47743 0.24450 0.43585 -0.37800
O 	O 	0.68205 0.27549 0.40516 -0.35600
C 	C 	0.71810 0.21766 0.47524 0.29200
O 	O 	0.57657 0.26674 0.54585 -0.37600
O 	O 	0.67924 0.30537 0.57029 -0.40800
H 	H 	0.56359 0.19773 0.43864 0.17700
H 	H 	0.70003 0.35688 0.51415 0.18100
C 	C 	0.67276 0.33656 0.84716 -0.08500
C 	C 	0.71416 0.39534 0.83720 0.02200
C 	C 	0.70776 0.40097 0.80212 -0.07100
C 	C 	0.65943 0.34827 0.77672 0.05200
C 	C 	0.61598 0.29026 0.78689 -0.07100
C 	C 	0.62251 0.28448 0.82196 0.02200
C 	C 	0.66060 0.35167 0.73928 -0.04900
C 	C 	0.60777 0.33204 0.71664 -0.04900
C 	C 	0.60719 0.32755 0.67853 0.05300
C 	C 	0.55704 0.27202 0.65536 -0.07100
C 	C 	0.56065 0.26356 0.62002 0.02400
C 	C 	0.61447 0.31067 0.60762 -0.08500
C 	C 	0.66211 0.36827 0.63020 0.02600
C 	C 	0.65812 0.37703 0.66542 -0.07100
H 	H 	0.75297 0.43603 0.85634 0.04500
H 	H 	0.74159 0.44588 0.79453 0.05800
H 	H 	0.57878 0.24905 0.76745 0.05600
H 	H 	0.58955 0.23914 0.82936 0.04000
H 	H 	0.70520 0.37009 0.73012 0.04900
H 	H 	0.56322 0.31353 0.72591 0.05200
H 	H 	0.51667 0.23427 0.66501 0.05700
H 	H 	0.52319 0.21918 0.60271 0.04100
H 	H 	0.70307 0.40556 0.62068 0.03900
H 	H 	0.69548 0.42147 0.68270 0.05800
C 	C 	0.68938 0.29649 0.11143 -0.07900
C 	C 	0.63830 0.28940 0.12484 0.02500
C 	C 	0.62471 0.26852 0.15653 -0.06900
C 	C 	0.66284 0.25574 0.17542 0.05400
C 	C 	0.71337 0.26181 0.16177 -0.07000
C 	C 	0.72647 0.28193 0.12981 0.02700
C 	C 	0.64998 0.23676 0.20968 -0.04900
C 	C 	0.69374 0.27364 0.23900 -0.04700
C 	C 	0.67675 0.26410 0.27409 0.05300
C 	C 	0.72161 0.27433 0.30194 -0.06800
C 	C 	0.71037 0.27516 0.33620 0.02600
C 	C 	0.65418 0.26613 0.34299 -0.07900
C 	C 	0.60797 0.25293 0.31491 0.02400
C 	C 	0.61952 0.25281 0.28075 -0.06800
H 	H 	0.60904 0.29994 0.11066 0.03900
H 	H 	0.58527 0.26340 0.16674 0.05900
H 	H 	0.74259 0.25126 0.17598 0.06000
H 	H 	0.76597 0.28714 0.11963 0.04600
H 	H 	0.60210 0.19653 0.21137 0.05200
H 	H 	0.74216 0.31257 0.23712 0.05300
H 	H 	0.76600 0.28337 0.29715 0.06000
H 	H 	0.74641 0.28512 0.35752 0.05100
H 	H 	0.56395 0.24482 0.31965 0.03600
H 	H 	0.58510 0.24640 0.25970 0.05700
C 	C 	0.76404 0.69510 0.45357 -0.02400
C 	C 	0.79477 0.67786 0.47585 0.01400
C 	C 	0.76924 0.60992 0.47266 0.02500
C 	C 	0.88349 0.70780 0.52264 0.10000
C 	C 	0.77861 0.58078 0.44436 -0.03800
C 	C 	0.75059 0.51560 0.43982 0.02200
C 	C 	0.71843 0.48068 0.46550 -0.07700
C 	C 	0.71301 0.51110 0.49513 0.02200
C 	C 	0.73553 0.57470 0.49777 -0.03800
C 	C 	0.81703 0.61797 0.41990 0.10300
C 	C 	0.68615 0.47765 0.52337 0.08000
C 	C 	0.75233 0.48396 0.40801 0.09100
C 	C 	0.72353 0.60374 0.52607 0.10400
C 	C 	0.70211 0.64645 0.43173 0.10100
N 	N 	0.75368 0.45871 0.38264 -0.10000
N 	N 	0.84768 0.64771 0.40040 -0.10400
N 	N 	0.66476 0.45094 0.54589 -0.11200
N 	N 	0.71400 0.62698 0.54866 -0.10400
N 	N 	0.90876 0.69380 0.54098 -0.10500
N 	N 	0.65269 0.60757 0.41431 -0.10300
C 	C 	0.82938 0.17015 0.47562 -0.03900
C 	C 	0.78511 0.10400 0.46410 0.02600
C 	C 	0.71975 0.07620 0.45303 -0.03900
C 	C 	0.69845 0.11425 0.45449 0.02400
C 	C 	0.74203 0.17978 0.46839 -0.08200
C 	C 	0.80781 0.20793 0.47826 0.02200
C 	C 	0.80727 0.06338 0.46440 0.01200
C 	C 	0.67444 0.00837 0.44049 0.10100
C 	C 	0.85300 0.27536 0.49215 0.07800
C 	C 	0.81429 0.04318 0.49547 -0.02200
C 	C 	0.84044 0.00949 0.49662 -0.01000
C 	C 	0.85808 0.99459 0.46644 -0.00800
C 	C 	0.84731 0.01137 0.43479 -0.00900
C 	C 	0.82300 0.04672 0.43393 -0.02100
C 	C 	0.79507 0.05756 0.52627 0.09700
C 	C 	0.86045 0.99150 0.40305 0.10500
C 	C 	0.85050 0.99138 0.52902 0.10300
C 	C 	0.81473 0.06653 0.40184 0.10000
C 	C 	0.89704 0.19914 0.48506 0.10200
C 	C 	0.63193 0.08625 0.44120 0.08400
N 	N 	0.77970 0.06908 0.55083 -0.10800
N 	N 	0.80810 0.08237 0.37625 -0.10300
N 	N 	0.57887 0.06395 0.43060 -0.10700
N 	N 	0.88906 0.32915 0.50323 -0.10700
N 	N 	0.95101 0.22219 0.49259 -0.10500
C 	C 	0.27934 0.07618 0.45847 -0.03700
C 	C 	0.25263 0.10925 0.46159 0.02600
C 	C 	0.29179 0.17561 0.46425 -0.03800
C 	C 	0.35787 0.20908 0.46462 0.02400
C 	C 	0.38451 0.17594 0.46102 -0.07400
C 	C 	0.34503 0.10936 0.45767 0.02300
C 	C 	0.18312 0.07414 0.46254 0.01400
C 	C 	0.26399 0.20937 0.46665 0.10400
C 	C 	0.37177 0.07494 0.45270 0.08300
C 	C 	0.16265 0.06886 0.49497 -0.02400
C 	C 	0.09708 0.03618 0.49588 -0.00300
C 	C 	0.05172 0.00699 0.46439 -0.01500
C 	C 	0.07214 0.01239 0.43196 -0.00500
C 	C 	0.13788 0.04648 0.43104 -0.02300
C 	C 	0.20913 0.09691 0.52734 0.10100
C 	C 	0.02547 0.98264 0.39959 0.10400
C 	C 	0.15908 0.05314 0.39773 0.10000
C 	C 	0.23915 0.00803 0.45615 0.10200
C 	C 	0.39873 0.27771 0.46962 0.08800
N 	N 	0.98821 0.95886 0.37377 -0.09700
N 	N 	0.17609 0.05849 0.37117 -0.10300
N 	N 	0.24172 0.23623 0.46856 -0.10300
N 	N 	0.43134 0.33246 0.47362 -0.10100
N 	N 	0.39312 0.04749 0.44873 -0.10600
C 	C 	0.87879 0.70464 0.98385 0.02500
C 	C 	0.91451 0.68175 0.99181 -0.03600
C 	C 	0.88279 0.61707 0.99305 0.02100
C 	C 	0.81534 0.57511 0.98586 -0.07400
C 	C 	0.77976 0.59743 0.97599 0.02500
C 	C 	0.81144 0.66227 0.97537 -0.03800
C 	C 	0.98385 0.72496 0.99901 0.10000
C 	C 	0.71061 0.55347 0.96602 0.08800
C 	C 	0.91946 0.59388 0.00236 0.08400
C 	C 	0.77485 0.68561 0.96629 0.10400
C 	C 	0.91441 0.76019 0.92239 0.10000
N 	N 	0.94868 0.57535 0.00978 -0.10500
N 	N 	0.03918 0.75950 0.00475 -0.10000
N 	N 	0.65546 0.51839 0.95807 -0.10100
N 	N 	0.74573 0.70432 0.95906 -0.10300
N 	N 	0.89290 0.76344 0.07348 -0.10200
N 	N 	0.90271 0.72807 0.89612 -0.10500
C 	C 	0.90721 0.23743 0.00694 -0.03800
C 	C 	0.87679 0.17171 0.99887 0.02500
C 	C 	0.80959 0.12899 0.98914 -0.03900
C 	C 	0.77320 0.15209 0.98506 0.02200
C 	C 	0.80387 0.21802 0.99186 -0.08300
C 	C 	0.87065 0.26050 0.00404 0.02600
C 	C 	0.91576 0.14751 0.99903 0.01400
C 	C 	0.77806 0.06129 0.98295 0.10300
C 	C 	0.90148 0.32777 0.01416 0.08400
C 	C 	0.93438 0.13506 0.03028 -0.02400
C 	C 	0.96887 0.10964 0.03004 0.00000
C 	C 	0.98355 0.09542 0.99842 -0.02000
C 	C 	0.96525 0.10819 0.96723 -0.00100
C 	C 	0.93233 0.13522 0.96765 -0.02500
C 	C 	0.91764 0.14803 0.06256 0.10100
C 	C 	0.97899 0.09212 0.93456 0.09900
C 	C 	0.98927 0.09810 0.06228 0.09600
C 	C 	0.91516 0.15014 0.93581 0.09900
C 	C 	0.97617 0.28123 0.01786 0.10100
C 	C 	0.70453 0.10815 0.97280 0.07800
N 	N 	0.00560 0.08892 0.08799 -0.09300
N 	N 	0.90424 0.15842 0.08830 -0.10300
N 	N 	0.98985 0.07917 0.90850 -0.09600
N 	N 	0.90140 0.16207 0.91043 -0.10800
N 	N 	0.64975 0.07309 0.96303 -0.10600
N 	N 	0.92604 0.38143 0.02223 -0.10600
N 	N 	0.03120 0.31611 0.02658 -0.10100
C 	C 	0.39802 0.17283 0.98163 -0.04000
C 	C 	0.38199 0.20434 0.00415 0.02700
C 	C 	0.43074 0.26220 0.02659 -0.03900
C 	C 	0.49538 0.28731 0.02750 0.02500
C 	C 	0.51155 0.25654 0.00443 -0.07900
C 	C 	0.46274 0.19960 0.98121 0.02400
C 	C 	0.31347 0.17588 0.00466 0.01500
C 	C 	0.41426 0.29577 0.04875 0.10400
C 	C 	0.47911 0.16927 0.95641 0.08000
C 	C 	0.28335 0.13950 0.03014 -0.02400
C 	C 	0.21779 0.10985 0.02948 -0.00300
C 	C 	0.18146 0.11367 0.00222 -0.01300
C 	C 	0.21209 0.15187 0.97743 -0.00400
C 	C 	0.27833 0.18397 0.97911 -0.02500
C 	C 	0.31973 0.13201 0.05675 0.10000
C 	C 	0.17523 0.15675 0.94965 0.10100
C 	C 	0.18780 0.07613 0.05709 0.10000
C 	C 	0.31035 0.22490 0.95441 0.10000
C 	C 	0.34781 0.11274 0.95902 0.10300
C 	C 	0.54512 0.34354 0.05298 0.07300
N 	N 	0.16381 0.04921 0.07908 -0.09700
N 	N 	0.34883 0.12609 0.07796 -0.10600
N 	N 	0.14589 0.16072 0.92748 -0.09700
N 	N 	0.33597 0.25756 0.93472 -0.10300
N 	N 	0.40103 0.32249 0.06642 -0.10400
N 	N 	0.58481 0.38836 0.07331 -0.11600
N 	N 	0.49211 0.14503 0.93662 -0.11300
N 	N 	0.30769 0.06481 0.94100 -0.10500
C 	C 	0.85176 0.72527 0.49964 -0.02400
C 	C 	0.87854 0.78965 0.50056 -0.00300
C 	C 	0.85199 0.80706 0.47540 -0.01500
C 	C 	0.79393 0.75951 0.45221 -0.00300
C 	C 	0.76638 0.77660 0.42604 0.10100
N 	N 	0.74444 0.79025 0.40515 -0.09800
C 	C 	0.92902 0.80036 0.95534 -0.02500
C 	C 	0.91206 0.77390 0.98567 0.01400
C 	C 	0.92621 0.81291 0.01774 -0.02400
C 	C 	0.96029 0.86581 0.95710 -0.00100
C 	C 	0.90770 0.78544 0.04876 0.10200
N 	N 	0.85857 0.97692 0.55486 -0.09900
N 	N 	0.24628 0.11933 0.55314 -0.10400
C 	C 	0.95841 0.87849 0.01962 0.00000
C 	C 	0.93246 0.83785 0.52782 0.10000
C 	C 	0.97559 0.90499 0.98932 -0.01900
C 	C 	0.97647 0.89288 0.92578 0.09800
N 	N 	0.98941 0.91456 0.90082 -0.09700
N 	N 	0.94969 0.90773 0.46806 -0.13200
C 	C 	0.88751 0.87439 0.47167 0.13500
N 	N 	0.85825 0.90303 0.47208 -0.13100
N 	N 	0.97547 0.87624 0.54960 -0.09700
C 	C 	0.97491 0.91896 0.05284 0.10100
N 	N 	0.98812 0.95127 0.07934 -0.09400
C 	C 	0.01221 0.97404 0.99170 0.14200
C 	C 	0.07628 0.03333 0.52919 0.10000
N 	N 	0.20701 0.95364 0.45430 -0.10200
N 	N 	0.87090 0.97561 0.37774 -0.09600
C 	C 	0.89092 0.96453 0.46836 0.13400
C 	C 	0.98286 0.96966 0.46543 0.13600
N 	N 	0.07648 0.01029 0.99375 -0.13300
N 	N 	0.98218 0.00168 0.99357 -0.13600
N 	N 	0.63834 0.95424 0.43048 -0.10100
N 	N 	0.05966 0.03112 0.55575 -0.09600
N 	N 	0.75299 0.00728 0.97803 -0.10400
