data_crystal

_cell_length_a 26.29729
_cell_length_b 26.46362
_cell_length_c 30.80913
_cell_angle_alpha 95.49814
_cell_angle_beta  95.49829
_cell_angle_gamma 125.88760

_symmetry_space_group_name_	'P 1'
_symmetry_space_group_name_H-M	'P 1'

loop_
_symmetry_equiv_pos_as_xyz
  x,y,z

loop_
_atom_site_label
_atom_site_type_symbol
_atom_site_fract_x
_atom_site_fract_y
_atom_site_fract_z
_atom_site_charge
C 	C 	0.98735 0.05927 0.99855 0.03100
C 	C 	0.05344 0.09577 0.99955 -0.08200
C 	C 	0.08372 0.06638 0.99789 0.03000
C 	C 	0.04792 0.00058 0.99535 -0.07200
C 	C 	0.98174 0.96378 0.99365 0.02800
C 	C 	0.95150 0.99323 0.99516 -0.08100
H 	H 	0.08119 0.14677 0.00187 0.05200
H 	H 	0.07154 0.97803 0.99458 0.04500
H 	H 	0.90024 0.96487 0.99350 0.04800
C 	C 	0.91475 0.97255 0.45343 0.01700
C 	C 	0.87964 0.90785 0.45594 -0.07000
C 	C 	0.91050 0.87904 0.45904 0.02400
C 	C 	0.97620 0.91474 0.45887 -0.06700
C 	C 	0.01159 0.97952 0.45693 0.01400
C 	C 	0.98080 0.00838 0.45453 -0.05800
H 	H 	0.82871 0.88017 0.45558 0.04600
H 	H 	0.99968 0.89208 0.46013 0.04700
H 	H 	0.00819 0.05866 0.45370 0.04400
Cu	Cu	0.65743 0.26792 0.00693 0.92800
Cu	Cu	0.69578 0.26238 0.90940 0.86800
Cu	Cu	0.69506 0.36865 0.94954 0.89600
Cu	Cu	0.67271 0.39280 0.04018 0.89400
C 	C 	0.68845 0.31923 0.10015 0.28300
O 	O 	0.56748 0.23824 0.01079 -0.36100
C 	C 	0.66732 0.32372 0.85177 0.28200
O 	O 	0.71541 0.36699 0.01058 -0.63900
O 	O 	0.64502 0.27450 0.94395 -0.64300
O 	O 	0.68997 0.21651 0.00034 -0.37200
O 	O 	0.75816 0.27770 0.95630 -0.44300
O 	O 	0.66266 0.34826 0.09105 -0.38400
O 	O 	0.74859 0.46038 0.95876 -0.38600
C 	C 	0.74978 0.49840 0.99067 0.29000
C 	C 	0.54582 0.26884 0.99655 0.27900
O 	O 	0.58628 0.32748 0.99086 -0.39600
O 	O 	0.71384 0.47658 0.02128 -0.39400
O 	O 	0.68328 0.27730 0.06936 -0.36000
C 	C 	0.74195 0.23806 0.98388 0.28400
O 	O 	0.68791 0.37059 0.88528 -0.38400
O 	O 	0.65473 0.26932 0.85843 -0.42100
H 	H 	0.76168 0.39157 0.02259 0.16300
H 	H 	0.59998 0.25088 0.92889 0.17200
Cu	Cu	0.71481 0.30946 0.44303 0.92700
Cu	Cu	0.71188 0.26528 0.53919 0.86900
Cu	Cu	0.60748 0.26714 0.49528 0.89600
Cu	Cu	0.59020 0.29385 0.40493 0.89400
C 	C 	0.67366 0.28777 0.34891 0.28400
O 	O 	0.74405 0.39945 0.44137 -0.36300
C 	C 	0.64587 0.29190 0.59359 0.28300
O 	O 	0.61458 0.25058 0.43499 -0.63900
O 	O 	0.70253 0.31750 0.50485 -0.64300
O 	O 	0.76582 0.27625 0.45110 -0.37400
O 	O 	0.69955 0.20551 0.49193 -0.44300
O 	O 	0.64242 0.31129 0.35761 -0.38400
O 	O 	0.51517 0.21405 0.48225 -0.38600
C 	C 	0.47961 0.21832 0.45175 0.29300
C 	C 	0.71091 0.41896 0.45439 0.28000
O 	O 	0.65075 0.37701 0.45720 -0.39700
O 	O 	0.50160 0.24633 0.41757 -0.39500
O 	O 	0.71083 0.28780 0.38095 -0.36000
C 	C 	0.74193 0.22313 0.46615 0.28700
O 	O 	0.59997 0.26956 0.55865 -0.38600
O 	O 	0.70113 0.30376 0.58939 -0.42100
H 	H 	0.59093 0.20502 0.42205 0.16500
H 	H 	0.72510 0.36162 0.52089 0.17100
C 	C 	0.63212 0.29591 0.63846 -0.07700
C 	C 	0.57609 0.24405 0.64915 0.00200
C 	C 	0.56875 0.24170 0.69343 -0.05900
C 	C 	0.61724 0.29145 0.72746 0.01100
C 	C 	0.67144 0.34595 0.71658 0.01100
C 	C 	0.67862 0.34791 0.67204 -0.02000
C 	C 	0.71926 0.39630 0.75056 -0.05900
C 	C 	0.71552 0.39077 0.79501 0.00200
C 	C 	0.66419 0.33470 0.80596 -0.07700
C 	C 	0.61388 0.28608 0.77219 -0.02100
H 	H 	0.53959 0.20410 0.62334 0.03200
H 	H 	0.52631 0.20029 0.70132 0.04000
H 	H 	0.72132 0.38858 0.66369 0.03600
H 	H 	0.76034 0.43893 0.74260 0.03900
H 	H 	0.75411 0.42886 0.82091 0.03200
H 	H 	0.57350 0.24332 0.78066 0.03700
C 	C 	0.68205 0.27962 0.30305 -0.06900
C 	C 	0.64045 0.22001 0.27502 0.00200
C 	C 	0.63898 0.21440 0.22921 -0.05600
C 	C 	0.67856 0.26865 0.21101 0.01300
C 	C 	0.72303 0.32823 0.23948 0.01400
C 	C 	0.72511 0.33319 0.28549 -0.01600
C 	C 	0.76179 0.38266 0.22135 -0.05700
C 	C 	0.75328 0.37883 0.17537 0.00300
C 	C 	0.70679 0.32044 0.14701 -0.07000
C 	C 	0.67136 0.26492 0.16477 -0.01600
H 	H 	0.60747 0.17840 0.28850 0.02400
H 	H 	0.60539 0.16831 0.20778 0.04300
H 	H 	0.75760 0.37918 0.30733 0.04300
H 	H 	0.79680 0.42839 0.24286 0.04200
H 	H 	0.78126 0.42170 0.16181 0.02100
H 	H 	0.63563 0.21971 0.14280 0.04600
C 	C 	0.80039 0.70009 0.42753 -0.03900
C 	C 	0.81729 0.68307 0.46504 -0.00100
C 	C 	0.86126 0.73034 0.50186 -0.03900
C 	C 	0.88958 0.79422 0.50064 -0.03900
C 	C 	0.87427 0.81143 0.46257 -0.00100
C 	C 	0.82875 0.76402 0.42631 -0.03900
C 	C 	0.79055 0.61602 0.46517 0.02500
H 	H 	0.87411 0.71763 0.53114 0.03700
H 	H 	0.92447 0.83047 0.52888 0.03600
H 	H 	0.81672 0.77681 0.39675 0.03700
H 	H 	0.76636 0.66393 0.39899 0.03800
C 	C 	0.72458 0.57030 0.46187 -0.06700
C 	C 	0.69881 0.50631 0.45966 0.01100
C 	C 	0.73882 0.48727 0.46060 -0.08900
C 	C 	0.80515 0.53344 0.46515 0.01200
C 	C 	0.83083 0.59745 0.46734 -0.06700
H 	H 	0.69318 0.58426 0.46055 0.04400
H 	H 	0.64761 0.47146 0.45628 0.02900
H 	H 	0.83678 0.51977 0.46656 0.03200
H 	H 	0.88189 0.63248 0.47006 0.04400
C 	C 	0.82976 0.04282 0.48393 -0.04000
C 	C 	0.83234 0.07194 0.44756 -0.00100
C 	C 	0.85904 0.06548 0.41208 -0.03800
C 	C 	0.88401 0.03118 0.41332 -0.04000
C 	C 	0.88266 0.00320 0.45012 0.00300
C 	C 	0.85480 0.00859 0.48519 -0.03600
C 	C 	0.80778 0.10980 0.44699 0.02600
H 	H 	0.86077 0.08734 0.38372 0.03900
H 	H 	0.90520 0.02709 0.38600 0.03900
H 	H 	0.85380 0.98746 0.51383 0.03400
H 	H 	0.80924 0.04753 0.51148 0.03600
C 	C 	0.74300 0.08081 0.44754 -0.06900
C 	C 	0.72086 0.11754 0.45149 0.01400
C 	C 	0.76332 0.18374 0.45500 -0.09500
C 	C 	0.82754 0.21237 0.45226 0.01300
C 	C 	0.84971 0.17555 0.44837 -0.06800
H 	H 	0.71008 0.02997 0.44580 0.04400
H 	H 	0.67095 0.09471 0.45276 0.02700
H 	H 	0.86078 0.26334 0.45483 0.03000
H 	H 	0.89977 0.19833 0.44772 0.04500
C 	C 	0.18638 0.05060 0.49008 -0.03900
C 	C 	0.21227 0.08549 0.45643 -0.00100
C 	C 	0.17231 0.08662 0.42352 -0.03800
C 	C 	0.10691 0.05212 0.42368 -0.04100
C 	C 	0.08099 0.01711 0.45727 0.00400
C 	C 	0.12120 0.01711 0.49074 -0.03600
C 	C 	0.28098 0.11985 0.45520 0.02700
H 	H 	0.19187 0.11392 0.39767 0.03700
H 	H 	0.07631 0.05221 0.39756 0.03800
H 	H 	0.10185 0.99083 0.51708 0.03300
H 	H 	0.21666 0.04908 0.51550 0.03800
C 	C 	0.32736 0.16289 0.49278 -0.06700
C 	C 	0.39227 0.19458 0.49177 0.01500
C 	C 	0.41140 0.18447 0.45294 -0.08900
C 	C 	0.36515 0.14187 0.41528 0.01600
C 	C 	0.30023 0.10928 0.41651 -0.06800
H 	H 	0.31312 0.17186 0.52268 0.04500
H 	H 	0.42768 0.22753 0.52097 0.03100
H 	H 	0.37948 0.13339 0.38526 0.02700
H 	H 	0.26489 0.07562 0.38750 0.04500
C 	C 	0.80791 0.65021 0.94991 -0.06800
C 	C 	0.84865 0.69577 0.98834 0.02400
C 	C 	0.85898 0.67625 0.02690 -0.06500
C 	C 	0.82748 0.61173 0.02739 0.01800
C 	C 	0.78634 0.56624 0.98913 -0.09300
C 	C 	0.77732 0.58575 0.95021 0.01700
C 	C 	0.88011 0.76383 0.98834 -0.00300
H 	H 	0.89110 0.71105 0.05652 0.04400
H 	H 	0.83493 0.59707 0.05752 0.02200
H 	H 	0.74534 0.55089 0.92057 0.03300
H 	H 	0.79937 0.66469 0.92003 0.04500
C 	C 	0.91707 0.79296 0.95622 -0.03900
C 	C 	0.94845 0.85777 0.95706 -0.03800
C 	C 	0.94424 0.89436 0.99057 -0.00600
C 	C 	0.90655 0.86507 0.02231 -0.03500
C 	C 	0.87418 0.80001 0.02097 -0.03700
H 	H 	0.92206 0.76554 0.93092 0.03700
H 	H 	0.97680 0.87976 0.93208 0.03600
H 	H 	0.90308 0.89287 0.04838 0.03600
H 	H 	0.84504 0.77783 0.04554 0.03700
C 	C 	0.78675 0.12910 0.00335 -0.06200
C 	C 	0.85259 0.16904 0.00325 0.02200
C 	C 	0.88279 0.23312 0.00089 -0.06200
C 	C 	0.84701 0.25637 0.99654 0.00700
C 	C 	0.78066 0.21578 0.99466 -0.09200
C 	C 	0.75095 0.15242 0.99923 0.00700
C 	C 	0.88909 0.14294 0.00288 0.00400
H 	H 	0.93376 0.26457 0.00150 0.04300
H 	H 	0.87066 0.30563 0.99383 0.02800
H 	H 	0.69983 0.12066 0.99793 0.03000
H 	H 	0.76304 0.07959 0.00534 0.04400
C 	C 	0.89383 0.11537 0.03827 -0.04000
C 	C 	0.92684 0.08897 0.03719 -0.03800
C 	C 	0.95548 0.09005 0.00077 0.00200
C 	C 	0.95149 0.11837 0.96568 -0.04100
C 	C 	0.91835 0.14461 0.96668 -0.04300
H 	H 	0.87174 0.11419 0.06647 0.03900
H 	H 	0.92986 0.06736 0.06450 0.03900
H 	H 	0.97326 0.11920 0.93736 0.03700
H 	H 	0.91474 0.16555 0.93911 0.03500
C 	C 	0.24124 0.15795 0.95898 -0.03900
C 	C 	0.28146 0.16096 0.99424 -0.00400
C 	C 	0.25771 0.13751 0.03221 -0.03600
C 	C 	0.19369 0.10926 0.03427 -0.03500
C 	C 	0.15289 0.10421 0.99838 -0.00600
C 	C 	0.17716 0.12968 0.96105 -0.03800
C 	C 	0.34803 0.18750 0.99112 0.02600
H 	H 	0.28865 0.14040 0.05983 0.03900
H 	H 	0.17538 0.08994 0.06329 0.03800
H 	H 	0.14596 0.12590 0.93316 0.03600
H 	H 	0.25930 0.17631 0.92965 0.03700
C 	C 	0.36807 0.14866 0.99087 -0.06800
C 	C 	0.43219 0.17469 0.99106 0.01300
C 	C 	0.47700 0.23996 0.99167 -0.08900
C 	C 	0.45627 0.27829 0.99028 0.01100
C 	C 	0.39213 0.25214 0.99006 -0.06800
H 	H 	0.33408 0.09847 0.99108 0.04400
H 	H 	0.44710 0.14425 0.99128 0.03200
H 	H 	0.49004 0.32861 0.99049 0.02900
H 	H 	0.37697 0.28239 0.99003 0.04400
