data_crystal

_cell_length_a 18.25769
_cell_length_b 18.74537
_cell_length_c 45.59012
_cell_angle_alpha 90.05149
_cell_angle_beta  90.05553
_cell_angle_gamma 119.44696

_symmetry_space_group_name_	'P 1'
_symmetry_space_group_name_H-M	'P 1'

loop_
_symmetry_equiv_pos_as_xyz
  x,y,z

loop_
_atom_site_label
_atom_site_type_symbol
_atom_site_fract_x
_atom_site_fract_y
_atom_site_fract_z
_atom_site_charge
C 	C 	0.48141 0.17775 0.87542 0.30500
C 	C 	0.78153 0.49785 0.88726 0.33400
C 	C 	0.70525 0.23803 0.85700 0.33000
C 	C 	0.56370 0.42999 0.91405 0.30600
C 	C 	0.79949 0.32145 0.94271 0.33000
C 	C 	0.58035 0.24055 0.97376 0.31400
Ni	Ni	0.63051 0.34627 0.87150 1.11600
Ni	Ni	0.69157 0.39399 0.93859 1.13300
Ni	Ni	0.63240 0.21267 0.91578 1.12300
O 	O 	0.50710 0.25569 0.87008 -0.37100
O 	O 	0.53333 0.15201 0.88609 -0.36000
O 	O 	0.79504 0.38561 0.93398 -0.37100
O 	O 	0.75715 0.42933 0.87333 -0.37100
O 	O 	0.74872 0.49657 0.91297 -0.34300
O 	O 	0.55655 0.19161 0.95040 -0.37700
O 	O 	0.65721 0.26669 0.84696 -0.36200
O 	O 	0.72088 0.24018 0.88489 -0.38100
O 	O 	0.64851 0.31472 0.97316 -0.34700
O 	O 	0.59735 0.43255 0.88771 -0.35100
O 	O 	0.59187 0.41205 0.93829 -0.35000
O 	O 	0.73116 0.24848 0.94404 -0.35500
O 	O 	0.63042 0.31155 0.90999 -0.71900
H 	H 	0.57203 0.29300 0.91604 0.16900
C 	C 	0.66090 0.20019 0.66313 0.30500
C 	C 	0.73800 0.50763 0.60993 0.33100
C 	C 	0.50100 0.26050 0.64106 0.32900
C 	C 	0.59900 0.29568 0.54773 0.32700
C 	C 	0.72984 0.20127 0.56990 0.32200
Ni	Ni	0.69076 0.36675 0.64765 1.11700
Ni	Ni	0.75612 0.37367 0.58055 1.13000
Ni	Ni	0.59701 0.20993 0.60340 1.12300
O 	O 	0.69662 0.27704 0.67223 -0.35400
O 	O 	0.59415 0.16922 0.64545 -0.36500
O 	O 	0.65654 0.36485 0.55918 -0.36600
O 	O 	0.67290 0.44840 0.62273 -0.37000
O 	O 	0.78404 0.49003 0.59239 -0.35600
O 	O 	0.67486 0.16864 0.59150 -0.37600
O 	O 	0.56356 0.30487 0.65894 -0.35900
O 	O 	0.51494 0.24895 0.61379 -0.37700
O 	O 	0.75224 0.27556 0.55915 -0.35200
O 	O 	0.82279 0.44353 0.64700 -0.35900
O 	O 	0.57847 0.22465 0.56024 -0.37200
O 	O 	0.69254 0.31149 0.61338 -0.71500
H 	H 	0.72989 0.29079 0.62001 0.16600
C 	C 	0.13992 0.04665 0.71323 0.30200
C 	C 	0.13469 0.01734 0.79492 0.27800
Ni	Ni	0.03148 0.06912 0.75521 1.10100
Ni	Ni	0.03130 0.90003 0.74903 1.10800
O 	O 	0.08692 0.07413 0.71668 -0.38900
O 	O 	0.08910 0.93875 0.78781 -0.36800
O 	O 	0.12980 0.07699 0.78011 -0.37100
O 	O 	0.82882 0.97935 0.77453 -0.33900
O 	O 	0.13723 0.98916 0.73041 -0.36100
C 	C 	0.45679 0.77415 0.38126 0.30400
C 	C 	0.16494 0.46793 0.41397 0.32900
C 	C 	0.22594 0.72481 0.38529 0.32400
C 	C 	0.38474 0.52277 0.41771 0.30300
C 	C 	0.22588 0.67954 0.48095 0.33100
C 	C 	0.45378 0.73497 0.47568 0.29900
Ni	Ni	0.30073 0.61170 0.38646 1.11500
Ni	Ni	0.29517 0.58183 0.45706 1.12700
Ni	Ni	0.34848 0.76054 0.43266 1.12700
O 	O 	0.41950 0.69718 0.37216 -0.36200
O 	O 	0.41331 0.80482 0.39426 -0.36100
O 	O 	0.20596 0.60884 0.46871 -0.36700
O 	O 	0.17986 0.53438 0.40022 -0.37300
O 	O 	0.20471 0.47373 0.43870 -0.35000
O 	O 	0.45288 0.78447 0.45495 -0.36300
O 	O 	0.26135 0.69128 0.36942 -0.35800
O 	O 	0.23748 0.73302 0.41370 -0.36700
O 	O 	0.38317 0.66868 0.48424 -0.35300
O 	O 	0.33641 0.52199 0.39543 -0.34900
O 	O 	0.37700 0.54480 0.44477 -0.36300
O 	O 	0.29200 0.74719 0.47189 -0.36900
O 	O 	0.33348 0.65440 0.42439 -0.71300
H 	H 	0.39264 0.66728 0.42379 0.15500
C 	C 	0.49853 0.74735 0.14186 0.31200
C 	C 	0.23698 0.71798 0.05388 0.32500
C 	C 	0.41822 0.88718 0.12584 0.31700
C 	C 	0.31041 0.58727 0.05924 0.30600
C 	C 	0.17188 0.72020 0.14762 0.33400
C 	C 	0.21542 0.53995 0.15951 0.30400
Ni	Ni	0.39459 0.74949 0.08745 1.12700
Ni	Ni	0.20110 0.61650 0.10493 1.12100
Ni	Ni	0.33192 0.72448 0.15482 1.12300
O 	O 	0.49860 0.77632 0.11504 -0.34100
O 	O 	0.42789 0.70060 0.15618 -0.37600
O 	O 	0.13944 0.64668 0.13564 -0.37300
O 	O 	0.31732 0.74078 0.05162 -0.32800
O 	O 	0.20368 0.70573 0.07987 -0.38100
O 	O 	0.24547 0.61346 0.17229 -0.37100
O 	O 	0.39103 0.85333 0.10020 -0.34200
O 	O 	0.42216 0.84380 0.14782 -0.36400
O 	O 	0.19243 0.52783 0.13155 -0.37500
O 	O 	0.37941 0.63875 0.07332 -0.35000
O 	O 	0.23330 0.56723 0.06935 -0.36500
O 	O 	0.25271 0.76716 0.14969 -0.37800
O 	O 	0.31587 0.68311 0.11599 -0.71500
H 	H 	0.33059 0.63962 0.11894 0.17100
C 	C 	0.05973 0.92476 0.23576 0.32100
C 	C 	0.06302 0.17040 0.31557 0.31900
C 	C 	0.06904 0.93694 0.31776 0.28900
C 	C 	0.07070 0.18699 0.23386 0.27400
C 	C 	0.82658 0.95341 0.31645 0.35200
C 	C 	0.82407 0.92646 0.23370 0.30500
Ni	Ni	0.10799 0.07312 0.27385 1.10700
O 	O 	0.11187 0.00525 0.23780 -0.37500
O 	O 	0.10596 0.13128 0.31276 -0.36500
O 	O 	0.01965 0.17486 0.29341 -0.39100
O 	O 	0.12345 0.98791 0.29866 -0.34300
O 	O 	0.12667 0.17562 0.24904 -0.35300
C 	C 	0.18738 0.46829 0.17769 -0.07500
C 	C 	0.16060 0.40473 0.19115 0.04600
C 	C 	0.12770 0.32830 0.20579 0.03800
C 	C 	0.10034 0.26310 0.21820 -0.06900
C 	C 	0.76033 0.89149 0.21147 -0.06300
C 	C 	0.70459 0.85912 0.19367 0.05200
C 	C 	0.63634 0.81939 0.17404 0.05600
C 	C 	0.57511 0.78556 0.15852 -0.07100
C 	C 	0.07017 0.87915 0.21240 -0.07700
C 	C 	0.07836 0.83571 0.19471 0.05300
C 	C 	0.09437 0.78483 0.17602 0.05800
C 	C 	0.12042 0.74788 0.16177 -0.07900
C 	C 	0.75429 0.93164 0.33432 -0.08000
C 	C 	0.68926 0.90604 0.34757 0.06600
C 	C 	0.60970 0.86780 0.36106 0.05200
C 	C 	0.54007 0.82839 0.37102 -0.06900
C 	C 	0.13363 0.39381 0.39698 -0.08300
C 	C 	0.11296 0.33638 0.38055 0.06000
C 	C 	0.09400 0.27426 0.35939 0.05400
C 	C 	0.08001 0.22507 0.34003 -0.07700
C 	C 	0.09203 0.88552 0.33427 -0.06800
C 	C 	0.11712 0.84448 0.34650 0.04400
C 	C 	0.15166 0.79931 0.35977 0.05400
C 	C 	0.18428 0.76357 0.37104 -0.07800
C 	C 	0.52956 0.76629 0.49427 -0.07900
C 	C 	0.52480 0.78241 0.52420 0.14700
C 	C 	0.58984 0.85323 0.53693 -0.07100
C 	C 	0.66123 0.90471 0.52037 0.00700
C 	C 	0.67507 0.87538 0.49370 0.10200
C 	C 	0.60862 0.80617 0.48054 -0.00900
H 	H 	0.58226 0.87120 0.55883 0.08700
C 	C 	0.70693 0.99329 0.52712 0.08500
H 	H 	0.61558 0.78929 0.45840 0.07100
C 	C 	0.75633 0.02084 0.55262 -0.14100
C 	C 	0.77534 0.09637 0.56513 0.16700
C 	C 	0.74530 0.14493 0.55192 -0.09600
C 	C 	0.70775 0.12311 0.52416 0.00500
C 	C 	0.68663 0.04699 0.51199 0.05700
H 	H 	0.77472 0.98114 0.56384 0.11900
H 	H 	0.68547 0.16062 0.51370 0.08400
Br	Br	0.78061 0.93397 0.47369 -0.16100
Br	Br	0.43294 0.70735 0.54818 -0.19500
Br	Br	0.83771 0.13003 0.60117 -0.19400
Br	Br	0.61979 0.01330 0.47681 -0.20600
C 	C 	0.18887 0.68021 0.50953 -0.09500
C 	C 	0.10221 0.63003 0.51459 0.14700
C 	C 	0.07177 0.61536 0.54332 -0.07900
C 	C 	0.12715 0.65056 0.56707 0.02000
C 	C 	0.21190 0.70778 0.56185 0.09200
C 	C 	0.24221 0.72334 0.53308 -0.00800
C 	C 	0.09805 0.61826 0.59672 0.03300
H 	H 	0.30811 0.76593 0.52915 0.08500
C 	C 	0.09646 0.54532 0.60485 -0.08100
C 	C 	0.03087 0.48858 0.62239 0.11400
C 	C 	0.04833 0.64326 0.61246 0.04900
H 	H 	0.13964 0.52862 0.59476 0.09000
Br	Br	0.28726 0.76374 0.59375 -0.18000
Br	Br	0.02429 0.58303 0.48260 -0.20100
Br	Br	0.02220 0.38433 0.63046 -0.21400
Br	Br	0.05954 0.74933 0.60629 -0.20100
C 	C 	0.56148 0.29778 0.51938 -0.09300
C 	C 	0.60937 0.31630 0.49338 0.15000
C 	C 	0.58188 0.33794 0.46797 -0.07700
C 	C 	0.51126 0.34871 0.46888 0.02400
C 	C 	0.46086 0.32599 0.49433 0.08500
C 	C 	0.48518 0.29869 0.51915 -0.00700
H 	H 	0.61971 0.35351 0.44824 0.09300
C 	C 	0.49761 0.39462 0.44507 0.02400
H 	H 	0.44787 0.28414 0.53898 0.07100
C 	C 	0.42862 0.35395 0.42611 -0.07900
C 	C 	0.39917 0.39886 0.41026 0.15100
C 	C 	0.43769 0.48432 0.41415 -0.08700
C 	C 	0.51806 0.52483 0.42688 -0.01000
C 	C 	0.54637 0.48073 0.44369 0.08600
H 	H 	0.39483 0.28762 0.42513 0.08700
H 	H 	0.55220 0.59120 0.42766 0.06600
Br	Br	0.36260 0.33833 0.49649 -0.19900
Br	Br	0.71721 0.32214 0.49296 -0.20400
Br	Br	0.30674 0.34287 0.38382 -0.21600
Br	Br	0.64603 0.53958 0.46711 -0.18100
C 	C 	0.79121 0.09022 0.68968 0.05700
C 	C 	0.73880 0.12017 0.67924 0.05900
C 	C 	0.69886 0.15210 0.67134 -0.07500
C 	C 	0.21184 0.09117 0.69470 -0.07700
C 	C 	0.27442 0.12959 0.68022 0.04500
C 	C 	0.35042 0.17531 0.66470 0.05400
C 	C 	0.41780 0.21446 0.65294 -0.08600
C 	C 	0.81016 0.64677 0.63908 0.06200
C 	C 	0.77738 0.58588 0.62417 -0.08700
C 	C 	0.18047 0.67889 0.02832 -0.10000
C 	C 	0.21193 0.66290 0.00258 0.15400
C 	C 	0.16356 0.58806 0.98813 -0.08900
C 	C 	0.07662 0.54216 0.99355 0.04000
C 	C 	0.04046 0.57249 0.01407 0.04800
C 	C 	0.09285 0.63819 0.03237 -0.00700
H 	H 	0.19252 0.56806 0.97177 0.09500
C 	C 	0.02407 0.46217 0.97844 -0.01500
H 	H 	0.06570 0.65601 0.05010 0.06300
C 	C 	0.01685 0.45706 0.94749 0.06000
Br	Br	0.30031 0.75186 0.98156 -0.17300
Br	Br	0.81298 0.24569 0.00634 -0.17300
Br	Br	0.08390 0.54955 0.92274 -0.20400
C 	C 	0.54683 0.20337 0.00270 -0.08400
C 	C 	0.54642 0.25151 0.02649 0.15200
C 	C 	0.53527 0.22071 0.05514 -0.08100
C 	C 	0.52021 0.14081 0.06011 0.03500
C 	C 	0.51130 0.08987 0.03602 0.07300
C 	C 	0.52588 0.12162 0.00763 -0.00100
H 	H 	0.53740 0.25855 0.07346 0.08900
C 	C 	0.50974 0.10908 0.09036 0.00700
H 	H 	0.52345 0.08322 0.98945 0.07200
C 	C 	0.43066 0.07660 0.10371 -0.06200
C 	C 	0.40472 0.01135 0.12339 0.10300
C 	C 	0.45647 0.97637 0.12818 -0.03800
C 	C 	0.54232 0.02363 0.12159 -0.04900
C 	C 	0.56926 0.09004 0.10229 0.10200
H 	H 	0.38654 0.09597 0.09656 0.07800
H 	H 	0.58522 0.00181 0.12774 0.07500
Br	Br	0.47791 0.97623 0.04132 -0.15900
Br	Br	0.55308 0.35585 0.02013 -0.19200
Br	Br	0.29368 0.96197 0.13953 -0.18300
Br	Br	0.68397 0.14642 0.08938 -0.18100
C 	C 	0.51277 0.46981 0.91796 -0.08500
C 	C 	0.54598 0.54126 0.93505 0.15100
C 	C 	0.49364 0.55367 0.95403 -0.08100
C 	C 	0.40618 0.50130 0.95309 0.02500
C 	C 	0.37167 0.44169 0.93075 0.09400
C 	C 	0.42520 0.42372 0.91403 -0.01400
H 	H 	0.52096 0.60333 0.96981 0.09500
C 	C 	0.35269 0.51256 0.97499 0.03000
H 	H 	0.39874 0.37157 0.89929 0.06700
C 	C 	0.36700 0.59224 0.97947 -0.09100
C 	C 	0.36726 0.61903 0.00794 0.15200
C 	C 	0.31948 0.56073 0.02962 -0.09500
C 	C 	0.28854 0.47733 0.02360 -0.01000
C 	C 	0.31114 0.45362 0.99735 0.08500
H 	H 	0.39640 0.63734 0.96224 0.09600
H 	H 	0.25441 0.43196 0.04033 0.06800
Br	Br	0.25394 0.38908 0.92147 -0.19900
Br	Br	0.66448 0.61748 0.93515 -0.18300
Br	Br	0.45550 0.72721 0.01819 -0.21200
Br	Br	0.29701 0.34530 0.99466 -0.18700
C 	C 	0.74316 0.20509 0.83756 -0.08400
C 	C 	0.77799 0.17407 0.82454 0.05800
C 	C 	0.81888 0.13416 0.81177 0.04300
C 	C 	0.20372 0.03996 0.81511 -0.07100
C 	C 	0.26346 0.05891 0.83115 0.03900
C 	C 	0.33670 0.08659 0.84877 0.04600
C 	C 	0.40218 0.12036 0.86231 -0.07300
C 	C 	0.81549 0.57111 0.87023 -0.07300
C 	C 	0.83827 0.62774 0.85358 0.06600
O 	O 	0.01410 0.88284 0.25851 -0.38600
O 	O 	0.82726 0.98682 0.25029 -0.35900
O 	O 	0.82767 0.89571 0.30038 -0.37900
O 	O 	0.86207 0.88442 0.24153 -0.36200
O 	O 	0.85668 0.39414 0.60509 -0.35200
Ni	Ni	0.85308 0.89850 0.74983 1.11900
O 	O 	0.83853 0.82261 0.78506 -0.35000
O 	O 	0.87121 0.96559 0.71205 -0.34900
O 	O 	0.84626 0.80394 0.72417 -0.36200
C 	C 	0.83771 0.06809 0.69975 -0.07300
C 	C 	0.87404 0.76203 0.67874 -0.06600
C 	C 	0.84651 0.71175 0.65941 0.05600
C 	C 	0.85103 0.09674 0.80152 -0.06200
C 	C 	0.85931 0.68846 0.83209 0.05500
C 	C 	0.87396 0.73674 0.81259 -0.06300
C 	C 	0.87920 0.44071 0.62900 0.31200
C 	C 	0.88914 0.79136 0.78863 0.30500
C 	C 	0.89206 0.04278 0.71326 0.30800
C 	C 	0.88307 0.04759 0.78856 0.28500
O 	O 	0.88012 0.03106 0.31186 -0.39200
C 	C 	0.89686 0.32958 0.98211 0.14400
C 	C 	0.88209 0.33395 0.95205 -0.09300
H 	H 	0.00559 0.57376 0.54730 0.07600
C 	C 	0.90100 0.81590 0.70358 0.32400
Ni	Ni	0.92999 0.07455 0.27225 1.12600
Ni	Ni	0.92812 0.90483 0.27881 1.13500
Br	Br	0.92095 0.53002 0.01580 -0.15900
O 	O 	0.93933 0.79390 0.76712 -0.35100
H 	H 	0.94168 0.60373 0.64100 0.06800
H 	H 	0.94386 0.38419 0.91102 0.07600
O 	O 	0.94997 0.09300 0.73183 -0.35000
C 	C 	0.95080 0.38701 0.93468 0.03300
O 	O 	0.96486 0.07216 0.79034 -0.35300
O 	O 	0.96863 0.95371 0.75814 -0.69700
H 	H 	0.96635 0.94937 0.77969 0.17200
C 	C 	0.96731 0.50549 0.63133 -0.06200
C 	C 	0.96995 0.39266 0.99509 -0.03200
H 	H 	0.97934 0.39214 0.01854 0.08900
O 	O 	0.98167 0.86486 0.70813 -0.34500
C 	C 	0.98454 0.58709 0.63072 0.02400
O 	O 	0.99018 0.92033 0.31727 -0.33400
O 	O 	0.98847 0.13496 0.23505 -0.34200
O 	O 	0.99059 0.01753 0.26882 -0.71400
H 	H 	0.98870 0.01290 0.24729 0.15900
