data_crystal

_cell_length_a 19.57557
_cell_length_b 14.95151
_cell_length_c 46.46858
_cell_angle_alpha 88.36278
_cell_angle_beta  88.50771
_cell_angle_gamma 107.78347

_symmetry_space_group_name_	'P 1'
_symmetry_space_group_name_H-M	'P 1'

loop_
_symmetry_equiv_pos_as_xyz
  x,y,z

loop_
_atom_site_label
_atom_site_type_symbol
_atom_site_fract_x
_atom_site_fract_y
_atom_site_fract_z
_atom_site_charge
Zn	Zn	0.05230 0.93230 0.78148 1.18700
O 	O 	0.05877 0.98724 0.74206 -0.81100
O 	O 	0.05858 0.16193 0.78496 -0.43000
O 	O 	0.00746 0.06326 0.17821 -0.44100
O 	O 	0.02216 0.12982 0.27858 -0.42800
C 	C 	0.01650 0.19820 0.29486 0.33800
C 	C 	0.10594 0.35689 0.29632 0.12900
H 	H 	0.15421 0.50093 0.30781 0.04000
H 	H 	0.07913 0.81390 0.67565 0.07600
C 	C 	0.02693 0.65494 0.01991 0.06700
H 	H 	0.04306 0.59637 0.96820 0.04400
Zn	Zn	0.09497 0.12232 0.74871 1.22500
H 	H 	0.08887 0.96584 0.72806 0.16900
O 	O 	0.12259 0.18647 0.67798 -0.45200
O 	O 	0.06575 0.58987 0.41833 -0.40300
C 	C 	0.05296 0.50584 0.43063 0.33300
O 	O 	0.06175 0.08528 0.22187 -0.36500
C 	C 	0.06171 0.06307 0.19445 0.26300
C 	C 	0.04597 0.45986 0.17137 0.02300
C 	C 	0.03349 0.35554 0.13118 0.13300
H 	H 	0.06995 0.52716 0.18084 0.02600
C 	C 	0.08063 0.26253 0.30689 -0.12700
C 	C 	0.13964 0.42770 0.31504 -0.06800
C 	C 	0.04898 0.81185 0.34291 -0.04400
C 	C 	0.04311 0.81334 0.31291 -0.03100
C 	C 	0.06583 0.65166 0.03932 -0.13600
H 	H 	0.09909 0.91805 0.21721 0.03900
O 	O 	0.13415 0.00725 0.80361 -0.45400
O 	O 	0.15866 0.22443 0.72400 -0.45000
C 	C 	0.11319 0.79752 0.35574 0.28700
O 	O 	0.09956 0.45924 0.42788 -0.46400
O 	O 	0.10506 0.74597 0.37984 -0.42800
O 	O 	0.11958 0.55510 0.06567 -0.47500
O 	O 	0.14655 0.70976 0.07694 -0.39700
C 	C 	0.11240 0.63883 0.06127 0.32600
C 	C 	0.06819 0.44300 0.14365 -0.12400
C 	C 	0.11651 0.02408 0.18300 0.01500
C 	C 	0.12478 0.94313 0.19631 -0.10800
H 	H 	0.17669 0.37877 0.67594 0.07900
C 	C 	0.17388 0.21640 0.69662 0.32200
O 	O 	0.19112 0.11427 0.76792 -0.40300
C 	C 	0.19334 0.06469 0.79151 0.31900
O 	O 	0.12530 0.53327 0.36641 -0.43400
O 	O 	0.14106 0.60337 0.13121 -0.43700
H 	H 	0.07168 0.39645 0.08870 0.08100
C 	C 	0.16219 0.89081 0.18205 0.05600
C 	C 	0.14900 0.05513 0.15573 -0.10600
H 	H 	0.16699 0.82733 0.19248 0.00300
H 	H 	0.14229 0.11771 0.14539 0.06900
C 	C 	0.15093 0.40423 0.34354 -0.04100
C 	C 	0.10221 0.23886 0.33384 0.02400
H 	H 	0.08554 0.16621 0.34171 0.04100
H 	H 	0.08352 0.79833 0.29917 0.02400
Zn	Zn	0.15305 0.64953 0.38799 1.22300
C 	C 	0.16529 0.47650 0.36517 0.28400
C 	C 	0.13137 0.51282 0.12910 0.32100
C 	C 	0.19410 0.92020 0.15460 -0.19600
C 	C 	0.13711 0.30958 0.35219 -0.02800
N 	N 	0.22508 0.39304 0.66406 -0.20300
C 	C 	0.18918 0.00490 0.14155 0.19300
O 	O 	0.17677 0.85619 0.34767 -0.44900
O 	O 	0.22772 0.83165 0.11689 -0.45000
H 	H 	0.24002 0.45212 0.64999 0.07800
H 	H 	0.26935 0.00187 0.75623 0.08000
Zn	Zn	0.20458 0.52117 0.42851 1.19500
O 	O 	0.21435 0.47971 0.38439 -0.40800
Zn	Zn	0.22074 0.69925 0.10927 1.22000
C 	C 	0.24083 0.86958 0.14225 0.34800
N 	N 	0.22354 0.03910 0.11585 -0.21400
C 	C 	0.24855 0.25691 0.68566 -0.12500
H 	H 	0.21999 0.12331 0.84537 0.03800
H 	H 	0.21822 0.10056 0.10623 0.09600
H 	H 	0.21906 0.69585 0.43349 0.17700
O 	O 	0.22431 0.65662 0.41728 -0.79100
O 	O 	0.17929 0.48429 0.11502 -0.41700
H 	H 	0.14796 0.29084 0.37391 0.04800
C 	C 	0.26945 0.33937 0.66763 0.12900
C 	C 	0.26163 0.08144 0.80621 -0.12400
N 	N 	0.31864 0.03023 0.76576 -0.20200
Zn	Zn	0.21283 0.53323 0.07100 1.19500
H 	H 	0.25722 0.00686 0.10553 0.12200
H 	H 	0.28318 0.14668 0.70566 0.02500
C 	C 	0.26685 0.11504 0.83419 0.02300
O 	O 	0.24804 0.70139 0.36235 -0.79600
C 	C 	0.29815 0.20847 0.69128 0.02100
C 	C 	0.32310 0.06930 0.79200 0.12400
H 	H 	0.36472 0.02486 0.75501 0.08400
O 	O 	0.26989 0.87824 0.39809 -0.41900
H 	H 	0.25320 0.66479 0.34545 0.17400
O 	O 	0.29772 0.86767 0.15629 -0.48100
N 	N 	0.09613 0.37978 0.26856 -0.20500
H 	H 	0.29114 0.70006 0.06348 0.16700
O 	O 	0.27907 0.65669 0.08065 -0.79000
Zn	Zn	0.27347 0.83801 0.35319 1.19100
C 	C 	0.33747 0.36680 0.65356 -0.07200
O 	O 	0.30220 0.51104 0.43626 -0.46000
H 	H 	0.35270 0.42837 0.63909 0.05500
C 	C 	0.31920 0.87481 0.41655 0.31300
H 	H 	0.28938 0.62681 0.15101 0.17900
O 	O 	0.30301 0.67492 0.13505 -0.78400
O 	O 	0.27180 0.44699 0.07368 -0.45400
C 	C 	0.33293 0.14208 0.84737 -0.02700
C 	C 	0.36598 0.23674 0.67739 -0.03200
H 	H 	0.35107 0.34947 0.98461 0.04800
C 	C 	0.38942 0.09690 0.80552 -0.06800
C 	C 	0.33170 0.93485 0.44074 -0.11200
Zn	Zn	0.31898 0.70104 0.39089 1.22400
H 	H 	0.11188 0.45004 0.26116 0.08100
C 	C 	0.34379 0.98498 0.46111 0.02300
H 	H 	0.33652 0.17076 0.86863 0.05100
C 	C 	0.38517 0.31414 0.65770 -0.04300
H 	H 	0.36515 0.11971 0.48201 0.04300
C 	C 	0.36001 0.04564 0.48529 -0.02700
O 	O 	0.37617 0.86180 0.10136 -0.42000
C 	C 	0.39465 0.13503 0.83288 -0.04200
H 	H 	0.43711 0.09060 0.79446 0.04200
O 	O 	0.35557 0.81456 0.41361 -0.44300
Zn	Zn	0.36699 0.80142 0.14527 1.19300
H 	H 	0.40279 0.19684 0.68140 0.05000
C 	C 	0.37358 0.01266 0.51094 -0.02700
C 	C 	0.36183 0.56111 0.42256 0.34100
H 	H 	0.36836 0.93859 0.51426 0.01900
O 	O 	0.36027 0.59888 0.39692 -0.44300
C 	C 	0.40917 0.36605 0.98430 -0.06900
C 	C 	0.34214 0.47712 0.07289 0.32000
Zn	Zn	0.36684 0.64885 0.10486 1.21900
O 	O 	0.38081 0.89298 0.35170 -0.45900
C 	C 	0.38033 0.43985 0.05222 -0.13700
C 	C 	0.41557 0.83965 0.08095 0.30300
C 	C 	0.40080 0.07638 0.53370 0.06300
C 	C 	0.41017 0.41141 0.03327 0.06700
C 	C 	0.43924 0.90081 0.05582 -0.09300
C 	C 	0.44396 0.38299 0.00891 -0.05500
O 	O 	0.37687 0.52616 0.09397 -0.42700
O 	O 	0.40423 0.75424 0.36018 -0.40300
H 	H 	0.46553 0.07393 0.00642 0.02400
C 	C 	0.42514 0.13104 0.55220 -0.12100
C 	C 	0.44843 0.39510 0.95738 0.08200
O 	O 	0.43242 0.27163 0.57639 -0.46200
O 	O 	0.43002 0.75925 0.08258 -0.44300
O 	O 	0.03453 0.00061 0.67287 -0.38400
C 	C 	0.45217 0.33557 0.63963 0.29400
C 	C 	0.45888 0.95104 0.03445 -0.01400
C 	C 	0.42923 0.57305 0.43565 -0.14000
H 	H 	0.04568 0.68861 0.67265 0.07400
C 	C 	0.46544 0.17739 0.84491 0.29000
C 	C 	0.42550 0.84244 0.35094 0.29300
C 	C 	0.48161 0.01073 0.00877 0.06800
O 	O 	0.47020 0.40915 0.62178 -0.41600
C 	C 	0.45621 0.19885 0.57326 0.32000
H 	H 	0.50164 0.39519 0.00881 0.04000
O 	O 	0.48236 0.26388 0.85362 -0.39700
C 	C 	0.48346 0.42508 0.93561 -0.17300
O 	O 	0.46906 0.80822 0.14161 -0.47100
O 	O 	0.49175 0.27893 0.64036 -0.43300
O 	O 	0.45186 0.65376 0.13367 -0.40500
Zn	Zn	0.49745 0.40307 0.57637 1.19400
O 	O 	0.50992 0.12738 0.84804 -0.45100
C 	C 	0.48421 0.58428 0.44809 0.06900
O 	O 	0.51784 0.54084 0.57773 -0.46300
C 	C 	0.51996 0.98701 0.98764 -0.18500
C 	C 	0.50104 0.88586 0.34117 -0.05600
N 	N 	0.03881 0.75472 0.66933 -0.20300
C 	C 	0.49096 0.73394 0.14355 0.31900
O 	O 	0.51156 0.19116 0.58763 -0.38800
O 	O 	0.52868 0.20764 0.90850 -0.44300
H 	H 	0.54075 0.79678 0.36922 0.06000
H 	H 	0.47867 0.98539 0.31111 0.02400
O 	O 	0.52069 0.41899 0.88710 -0.43800
C 	C 	0.53789 0.04318 0.96110 0.14200
C 	C 	0.52841 0.46528 0.91090 0.34100
H 	H 	0.53612 0.92387 0.98996 0.06900
C 	C 	0.55153 0.09057 0.93898 -0.15600
C 	C 	0.51920 0.95696 0.31945 -0.01500
C 	C 	0.55430 0.85018 0.35193 -0.06100
C 	C 	0.56541 0.14844 0.91294 0.33900
H 	H 	0.55284 0.73358 0.47694 0.04600
C 	C 	0.54652 0.59710 0.46512 -0.06100
Zn	Zn	0.56529 0.32003 0.88253 1.22400
H 	H 	0.57822 0.77321 0.09802 0.10000
C 	C 	0.57818 0.59767 0.56663 0.32700
C 	C 	0.56528 0.66939 0.48260 -0.06700
Zn	Zn	0.57582 0.29879 0.61379 1.22100
H 	H 	0.07558 0.32774 0.25382 0.09600
C 	C 	0.58066 0.63046 0.53729 -0.16500
C 	C 	0.57709 0.65157 0.51233 0.06900
H 	H 	0.56517 0.53666 0.46923 0.03900
H 	H 	0.52129 0.67878 0.19609 0.01900
C 	C 	0.56245 0.74369 0.15452 -0.12900
O 	O 	0.58744 0.53408 0.91446 -0.45700
O 	O 	0.59466 0.38995 0.58104 -0.78700
Zn	Zn	0.61664 0.18288 0.84822 1.19300
O 	O 	0.61582 0.14362 0.89416 -0.41800
H 	H 	0.61036 0.45426 0.64782 0.18000
C 	C 	0.56795 0.72234 0.18376 0.01600
N 	N 	0.62312 0.80917 0.10937 -0.20400
H 	H 	0.61217 0.36527 0.56373 0.17200
C 	C 	0.58918 0.98906 0.30761 -0.03900
C 	C 	0.62421 0.87980 0.33960 0.11700
O 	O 	0.63783 0.61284 0.58066 -0.43100
O 	O 	0.63477 0.42735 0.63301 -0.78700
H 	H 	0.66021 0.78833 0.36577 0.08600
C 	C 	0.62447 0.79759 0.13845 0.13000
O 	O 	0.63149 0.20899 0.62139 -0.43200
H 	H 	0.63766 0.35612 0.83610 0.17500
O 	O 	0.64032 0.31969 0.85394 -0.79400
H 	H 	0.60220 0.04288 0.29047 0.05800
H 	H 	0.66819 0.85194 0.09768 0.08000
H 	H 	0.67912 0.10335 0.59571 0.11500
C 	C 	0.64177 0.95016 0.31718 -0.10400
N 	N 	0.67314 0.83818 0.34866 -0.20300
H 	H 	0.64494 0.10937 0.69653 0.02500
Zn	Zn	0.66825 0.50962 0.59814 1.22100
O 	O 	0.65795 0.37238 0.90710 -0.78300
C 	C 	0.66700 0.20480 0.64488 0.34000
H 	H 	0.66057 0.33705 0.92517 0.17500
C 	C 	0.63114 0.76487 0.19792 -0.03500
O 	O 	0.68198 0.54183 0.86578 -0.41500
C 	C 	0.68638 0.11933 0.65260 -0.13400
C 	C 	0.68244 0.09154 0.68193 0.02300
O 	O 	0.69063 0.27884 0.66061 -0.48100
H 	H 	0.63300 0.75142 0.22086 0.05100
Zn	Zn	0.68239 0.51172 0.91172 1.19400
C 	C 	0.68778 0.84065 0.15282 -0.07400
N 	N 	0.72440 0.09242 0.60460 -0.20400
O 	O 	0.71377 0.16479 0.84249 -0.45300
H 	H 	0.72334 0.85215 0.33824 0.09500
C 	C 	0.69002 0.82858 0.18284 -0.04900
H 	H 	0.73384 0.72135 0.84919 0.04000
C 	C 	0.73085 0.08734 0.63360 0.13500
Zn	Zn	0.72664 0.40972 0.64438 1.19300
C 	C 	0.71289 0.97907 0.30241 0.27700
Zn	Zn	0.01534 0.13183 0.68534 1.19400
H 	H 	0.73459 0.88474 0.14068 0.04400
O 	O 	0.71920 0.95295 0.27598 -0.41000
C 	C 	0.73437 0.05500 0.69321 -0.03400
Zn	Zn	0.73276 0.36907 0.87851 1.22200
C 	C 	0.73491 0.54076 0.84790 0.28600
O 	O 	0.74321 0.61745 0.62054 -0.40400
H 	H 	0.73594 0.04432 0.71631 0.04900
H 	H 	0.76179 0.07701 0.59071 0.09300
O 	O 	0.74835 0.48733 0.57615 -0.44500
C 	C 	0.75866 0.70568 0.82965 -0.03500
O 	O 	0.74861 0.35630 0.60277 -0.42100
C 	C 	0.75862 0.61349 0.82476 -0.04500
C 	C 	0.75243 0.88561 0.19860 0.28400
C 	C 	0.77525 0.21674 0.85243 0.32100
C 	C 	0.76564 0.40936 0.57893 0.32500
O 	O 	0.75394 0.87134 0.22675 -0.43700
O 	O 	0.77032 0.47959 0.85200 -0.43700
C 	C 	0.78280 0.05049 0.64502 -0.07000
O 	O 	0.77629 0.26627 0.87549 -0.43700
O 	O 	0.76966 0.02605 0.31630 -0.43000
H 	H 	0.78505 0.09121 0.88933 0.10800
C 	C 	0.78855 0.04227 0.67498 -0.04600
H 	H 	0.80160 0.85097 0.81598 0.02600
C 	C 	0.79642 0.77914 0.81066 0.02000
O 	O 	0.78835 0.56530 0.91034 -0.47000
C 	C 	0.78800 0.59352 0.79881 -0.07100
O 	O 	0.79990 0.95795 0.18509 -0.46800
C 	C 	0.80390 0.60806 0.62950 0.29300
H 	H 	0.78399 0.52148 0.79413 0.04300
N 	N 	0.04515 0.34114 0.10297 -0.20100
O 	O 	0.80932 0.52390 0.63523 -0.46300
C 	C 	0.80816 0.38644 0.55647 -0.12600
O 	O 	0.81647 0.42850 0.90750 -0.40000
H 	H 	0.82066 0.03234 0.63067 0.06200
H 	H 	0.02319 0.27471 0.09460 0.08500
H 	H 	0.81899 0.79079 0.61345 0.04900
Zn	Zn	0.81695 0.95354 0.25450 1.21600
C 	C 	0.82472 0.66693 0.77934 0.12600
C 	C 	0.83050 0.51457 0.91651 0.32700
N 	N 	0.82635 0.07295 0.87879 -0.20500
C 	C 	0.83480 0.76099 0.78683 -0.13500
H 	H 	0.83237 0.42548 0.48294 0.04800
C 	C 	0.84183 0.19816 0.84275 -0.12800
H 	H 	0.83413 0.12630 0.24427 0.18500
H 	H 	0.84062 0.01595 0.88730 0.09300
C 	C 	0.84487 0.37470 0.53662 0.06600
O 	O 	0.85796 0.99948 0.71256 -0.42400
O 	O 	0.84365 0.88175 0.28672 -0.44000
C 	C 	0.85717 0.03975 0.68680 0.31900
H 	H 	0.84266 0.88511 0.35702 0.08700
H 	H 	0.84599 0.57779 0.74877 0.07200
N 	N 	0.85118 0.64722 0.75377 -0.20500
C 	C 	0.86197 0.12248 0.85503 0.13900
H 	H 	0.86746 0.30933 0.80977 0.01300
C 	C 	0.86346 0.78240 0.62546 -0.03300
C 	C 	0.86638 0.69232 0.63342 -0.04600
Zn	Zn	0.85906 0.11199 0.29753 1.19700
O 	O 	0.85973 0.09087 0.25582 -0.78000
C 	C 	0.88196 0.25066 0.81909 0.01600
H 	H 	0.87464 0.70040 0.73822 0.08800
C 	C 	0.88081 0.40635 0.48662 -0.06000
O 	O 	0.89124 0.91378 0.76418 -0.45000
C 	C 	0.88913 0.55094 0.93510 -0.13400
C 	C 	0.88998 0.36907 0.51222 -0.05600
C 	C 	0.89817 0.83536 0.77555 0.33600
N 	N 	0.88704 0.87047 0.36556 -0.20300
O 	O 	0.89305 0.14040 0.19005 -0.39900
H 	H 	0.89006 0.86625 0.38796 0.08200
C 	C 	0.89484 0.91992 0.30462 0.27800
C 	C 	0.00369 0.10621 0.80045 0.28300
H 	H 	0.90948 0.93083 0.63053 0.01900
Zn	Zn	0.90627 0.99960 0.19042 1.18100
O 	O 	0.91708 0.07787 0.67113 -0.46200
C 	C 	0.91574 0.86213 0.63464 0.01400
O 	O 	0.91394 0.97424 0.23206 -0.82100
O 	O 	0.91378 0.01041 0.30935 -0.38200
C 	C 	0.91914 0.09754 0.84222 -0.06900
C 	C 	0.92777 0.68347 0.64676 -0.07100
H 	H 	0.93101 0.66849 0.99946 0.04100
H 	H 	0.93359 0.61452 0.65092 0.04900
H 	H 	0.93354 0.03817 0.85111 0.06300
C 	C 	0.93700 0.58048 0.95143 0.06600
C 	C 	0.93856 0.22494 0.80644 -0.03700
C 	C 	0.93618 0.86293 0.31779 -0.11500
H 	H 	0.93778 0.34835 0.51579 0.04400
H 	H 	0.93932 0.92758 0.23622 0.17100
C 	C 	0.93854 0.85405 0.34819 0.12100
C 	C 	0.94004 0.43839 0.46595 0.07100
C 	C 	0.94380 0.21603 0.19724 0.29900
Zn	Zn	0.95207 0.97994 0.73105 1.21800
O 	O 	0.95254 0.89189 0.70146 -0.45200
C 	C 	0.95583 0.14638 0.81733 -0.03800
O 	O 	0.95373 0.21099 0.30022 -0.46500
O 	O 	0.96209 0.82574 0.77925 -0.47500
H 	H 	0.96271 0.21437 0.13945 0.05200
H 	H 	0.96659 0.26340 0.78732 0.03100
C 	C 	0.96884 0.85224 0.65308 -0.12600
Zn	Zn	0.96742 0.09917 0.24332 1.22800
C 	C 	0.96984 0.29757 0.17698 -0.04400
O 	O 	0.00092 0.11349 0.72767 -0.79300
H 	H 	0.97129 0.15007 0.73602 0.17100
C 	C 	0.98005 0.76362 0.65609 0.12100
O 	O 	0.97968 0.21372 0.22030 -0.44400
C 	C 	0.98059 0.65116 0.99610 -0.06300
H 	H 	0.98377 0.40020 0.20988 0.03800
H 	H 	0.98486 0.84300 0.27720 0.00900
C 	C 	0.98525 0.28323 0.14821 -0.07000
C 	C 	0.98656 0.83753 0.30046 0.00800
O 	O 	0.98759 0.01409 0.79954 -0.39200
C 	C 	0.98750 0.91674 0.67683 0.29500
C 	C 	0.99082 0.46829 0.44937 -0.13600
C 	C 	0.99317 0.61295 0.97158 -0.06300
C 	C 	0.99528 0.82881 0.36051 -0.06800
H 	H 	0.99870 0.82530 0.38374 0.05900
C 	C 	0.99674 0.38783 0.18783 -0.03600
