data_crystal

_cell_length_a 19.26398
_cell_length_b 16.92478
_cell_length_c 37.10987
_cell_angle_alpha 88.32428
_cell_angle_beta  88.45357
_cell_angle_gamma 107.55898

_symmetry_space_group_name_	'P 1'
_symmetry_space_group_name_H-M	'P 1'

loop_
_symmetry_equiv_pos_as_xyz
  x,y,z

loop_
_atom_site_label
_atom_site_type_symbol
_atom_site_fract_x
_atom_site_fract_y
_atom_site_fract_z
_atom_site_charge
O 	O 	0.00902 0.85949 0.66548 -0.39300
C 	C 	0.01054 0.47886 0.20282 -0.06100
H 	H 	0.01639 0.03810 0.09118 0.01700
C 	C 	0.00559 0.85039 0.34746 0.11700
H 	H 	0.00052 0.99344 0.13872 -0.03700
C 	C 	0.01215 0.21086 0.30034 0.35100
C 	C 	0.01728 0.65638 0.96879 0.02600
H 	H 	0.02344 0.59346 0.16830 0.05800
H 	H 	0.02492 0.44505 0.07191 0.03800
H 	H 	0.02818 0.25285 0.81732 0.06400
C 	C 	0.03016 0.68766 0.00168 -0.12900
O 	O 	0.99323 0.27024 0.20793 -0.45700
H 	H 	0.03066 0.47252 0.23021 0.04500
C 	C 	0.03355 0.82012 0.28630 0.05000
C 	C 	0.02865 0.44159 0.10095 0.02500
C 	C 	0.99214 0.36378 0.15809 -0.11500
Zn	Zn	0.58028 0.32996 0.89580 1.22200
Zn	Zn	0.69757 0.46560 0.94257 1.19600
C 	C 	0.78867 0.25490 0.83666 0.30500
Zn	Zn	0.74800 0.38684 0.87734 1.22300
Zn	Zn	0.62626 0.21668 0.84635 1.19100
H 	H 	0.69357 0.31505 0.93678 0.18000
C 	C 	0.72185 0.54653 0.86484 0.30900
O 	O 	0.51794 0.16996 0.84704 -0.46200
O 	O 	0.48807 0.28593 0.86343 -0.39700
O 	O 	0.68313 0.35731 0.92063 -0.79200
O 	O 	0.59691 0.45317 0.96085 -0.48000
O 	O 	0.54120 0.22899 0.92701 -0.44400
O 	O 	0.54052 0.42154 0.90750 -0.44000
O 	O 	0.62408 0.17294 0.90256 -0.42400
O 	O 	0.80000 0.53456 0.93575 -0.47500
H 	H 	0.63587 0.36755 0.83360 0.17100
O 	O 	0.84254 0.43856 0.90804 -0.41400
O 	O 	0.64683 0.33584 0.85438 -0.80000
O 	O 	0.72480 0.19970 0.84464 -0.45500
O 	O 	0.75937 0.49696 0.85475 -0.44500
O 	O 	0.80857 0.32719 0.85228 -0.43700
O 	O 	0.67632 0.52672 0.89315 -0.41800
C 	C 	0.47140 0.21343 0.84828 0.30200
C 	C 	0.54402 0.45398 0.93944 0.34700
C 	C 	0.57128 0.16917 0.92633 0.32700
C 	C 	0.85414 0.50645 0.92637 0.32700
Zn	Zn	0.66034 0.40758 0.57162 1.22000
Zn	Zn	0.50850 0.29245 0.52914 1.19300
C 	C 	0.68702 0.13807 0.61772 0.33500
Zn	Zn	0.59549 0.21256 0.57659 1.22200
Zn	Zn	0.72380 0.31754 0.62802 1.19400
H 	H 	0.63979 0.29605 0.51981 0.17000
C 	C 	0.44870 0.19494 0.60106 0.31500
O 	O 	0.79309 0.42984 0.62731 -0.47300
O 	O 	0.71560 0.50022 0.60836 -0.40400
O 	O 	0.61046 0.30380 0.54098 -0.79400
O 	O 	0.50140 0.40363 0.53979 -0.46200
O 	O 	0.75550 0.41941 0.54717 -0.44700
O 	O 	0.61285 0.48998 0.55383 -0.43400
O 	O 	0.77169 0.30373 0.57496 -0.42100
O 	O 	0.46285 0.17327 0.51839 -0.46800
H 	H 	0.59320 0.32669 0.62761 0.17700
O 	O 	0.55579 0.12393 0.53658 -0.40100
O 	O 	0.62860 0.31825 0.60943 -0.79000
O 	O 	0.70506 0.19768 0.64073 -0.47900
O 	O 	0.50292 0.16406 0.60437 -0.44000
O 	O 	0.66732 0.15264 0.58519 -0.43900
O 	O 	0.45861 0.26544 0.58314 -0.41800
C 	C 	0.77617 0.49910 0.62384 0.31000
C 	C 	0.55427 0.47348 0.53423 0.31600
C 	C 	0.79146 0.36454 0.55003 0.31700
C 	C 	0.49626 0.11551 0.51841 0.32200
Zn	Zn	0.93441 0.91379 0.73035 1.21800
Zn	Zn	0.04279 0.94446 0.80019 1.19400
C 	C 	0.15847 0.06218 0.66055 0.30500
Zn	Zn	0.08348 0.05079 0.73062 1.22800
Zn	Zn	0.99580 0.98179 0.65481 1.17900
H 	H 	0.07133 0.89756 0.73733 0.17800
C 	C 	0.99784 0.10580 0.78433 0.26700
O 	O 	0.89274 0.92179 0.64617 -0.46500
O 	O 	0.83777 0.91176 0.70259 -0.38900
O 	O 	0.04338 0.93325 0.74692 -0.78600
O 	O 	0.94981 0.85680 0.81498 -0.47400
O 	O 	0.92757 0.80542 0.71166 -0.44700
O 	O 	0.87732 0.90123 0.77609 -0.44400
O 	O 	0.13015 0.03598 0.81385 -0.44900
H 	H 	0.95890 0.05835 0.70590 0.17100
O 	O 	0.18242 0.06817 0.75728 -0.41300
O 	O 	0.98623 0.01743 0.70466 -0.80400
O 	O 	0.10437 0.01427 0.64245 -0.43200
O 	O 	0.05357 0.13039 0.76097 -0.41200
O 	O 	0.14540 0.10279 0.68830 -0.44500
O 	O 	0.98000 0.03157 0.80020 -0.40500
C 	C 	0.83823 0.92710 0.66732 0.28000
C 	C 	0.88489 0.85155 0.80275 0.32100
C 	C 	0.95752 0.79692 0.68067 0.29000
C 	C 	0.18804 0.06841 0.79241 0.31100
Zn	Zn	0.31625 0.71146 0.38703 1.22300
Zn	Zn	0.20120 0.57721 0.44475 1.19500
C 	C 	0.10644 0.79001 0.33631 0.33300
Zn	Zn	0.14803 0.66850 0.38435 1.22400
Zn	Zn	0.26789 0.81219 0.33057 1.19500
H 	H 	0.21793 0.73113 0.43753 0.17800
C 	C 	0.15361 0.50286 0.37026 0.30000
O 	O 	0.37538 0.86168 0.32732 -0.46800
O 	O 	0.40364 0.74689 0.34763 -0.40500
O 	O 	0.22158 0.68802 0.42076 -0.79500
O 	O 	0.30216 0.57383 0.45567 -0.46700
O 	O 	0.35427 0.82163 0.40775 -0.44600
O 	O 	0.35640 0.62150 0.40029 -0.45000
O 	O 	0.26605 0.86889 0.38272 -0.42200
O 	O 	0.09336 0.52273 0.44854 -0.46500
H 	H 	0.24632 0.65721 0.33283 0.17400
O 	O 	0.06123 0.63191 0.42432 -0.41000
O 	O 	0.24286 0.69809 0.35081 -0.79900
O 	O 	0.17062 0.82478 0.31993 -0.46700
O 	O 	0.11625 0.55600 0.36565 -0.43800
O 	O 	0.10077 0.75225 0.36839 -0.43700
O 	O 	0.20503 0.51545 0.39418 -0.41600
C 	C 	0.42234 0.81952 0.33035 0.30800
C 	C 	0.35949 0.59224 0.43316 0.34300
C 	C 	0.31827 0.87668 0.40594 0.31400
C 	C 	0.04475 0.56239 0.44401 0.35500
Zn	Zn	0.20810 0.75061 0.08400 1.22400
Zn	Zn	0.35083 0.86050 0.12843 1.19400
C 	C 	0.35484 0.59225 0.04017 0.35400
Zn	Zn	0.37151 0.75837 0.06623 1.22300
Zn	Zn	0.22724 0.63892 0.02476 1.19900
H 	H 	0.30600 0.70290 0.12559 0.17500
C 	C 	0.38963 0.93232 0.04972 0.32200
O 	O 	0.14790 0.66580 0.00152 -0.47000
O 	O 	0.11377 0.73154 0.04995 -0.38800
O 	O 	0.30738 0.75028 0.10900 -0.78600
O 	O 	0.26098 0.88010 0.14749 -0.48800
O 	O 	0.15582 0.64930 0.11291 -0.44600
O 	O 	0.18954 0.85591 0.09820 -0.43400
O 	O 	0.14094 0.56919 0.06362 -0.40200
O 	O 	0.45803 0.89823 0.12070 -0.47200
H 	H 	0.27219 0.79220 0.02538 0.17600
O 	O 	0.46815 0.77967 0.09618 -0.40800
O 	O 	0.27116 0.74779 0.04354 -0.81000
O 	O 	0.28554 0.57579 0.04915 -0.48600
O 	O 	0.41349 0.86885 0.04289 -0.45400
O 	O 	0.39950 0.66823 0.04235 -0.45800
O 	O 	0.34496 0.92879 0.07780 -0.42900
C 	C 	0.10121 0.69788 0.01781 0.32500
C 	C 	0.21368 0.89915 0.12690 0.33200
C 	C 	0.12769 0.57783 0.09798 0.32400
C 	C 	0.49822 0.85205 0.11021 0.30200
Zn	Zn	0.98567 0.15906 0.22747 1.21800
Zn	Zn	0.85741 0.11127 0.29348 1.19300
C 	C 	0.78766 0.99518 0.15110 0.30400
Zn	Zn	0.84139 0.01483 0.22472 1.22900
Zn	Zn	0.94319 0.10417 0.15167 1.19100
H 	H 	0.84406 0.16512 0.22917 0.17900
C 	C 	0.90935 0.95424 0.28450 0.27500
O 	O 	0.04577 0.17377 0.14634 -0.43500
O 	O 	0.09032 0.16990 0.20249 -0.36600
O 	O 	0.87177 0.13068 0.24028 -0.78800
O 	O 	0.94346 0.19995 0.31027 -0.48400
O 	O 	0.02953 0.16648 0.27495 -0.42600
O 	O 	0.91769 0.21922 0.16274 -0.42200
O 	O 	0.76879 0.01448 0.30496 -0.44500
H 	H 	0.97406 0.01932 0.20384 0.17900
O 	O 	0.73422 0.98816 0.24707 -0.41800
O 	O 	0.94473 0.05812 0.20162 -0.80100
O 	O 	0.83761 0.06269 0.13789 -0.44700
O 	O 	0.86490 0.93328 0.25770 -0.44100
O 	O 	0.79548 0.95967 0.18204 -0.45700
O 	O 	0.92351 0.02806 0.29808 -0.40100
C 	C 	0.09384 0.15718 0.16748 0.28600
C 	C 	0.96401 0.28231 0.17772 0.31700
C 	C 	0.71818 0.98246 0.28180 0.29000
C 	C 	0.07931 0.50132 0.15661 0.03400
C 	C 	0.03833 0.43133 0.17566 0.06100
C 	C 	0.98713 0.36986 0.12044 -0.03500
H 	H 	0.95314 0.31833 0.10613 0.03200
C 	C 	0.07582 0.50781 0.11893 -0.09600
C 	C 	0.05722 0.55843 0.18125 -0.08800
H 	H 	0.95098 0.46981 0.20166 0.02500
H 	H 	0.10361 0.59637 0.19656 0.04300
C 	C 	0.68849 0.87100 0.13510 0.06000
C 	C 	0.61784 0.83609 0.12576 0.01400
C 	C 	0.57776 0.88544 0.11146 -0.06900
C 	C 	0.61196 0.97103 0.10520 -0.07100
H 	H 	0.58183 0.01019 0.09412 0.06600
C 	C 	0.68414 0.00675 0.11490 0.05600
H 	H 	0.70873 0.07330 0.11185 0.02200
C 	C 	0.72242 0.95702 0.13079 -0.13700
C 	C 	0.71545 0.80935 0.11572 -0.09700
H 	H 	0.60958 0.70686 0.11784 0.04600
H 	H 	0.73500 0.76895 0.13447 0.04500
H 	H 	0.62780 0.77476 0.07552 0.05000
H 	H 	0.75265 0.83659 0.09207 0.04200
C 	C 	0.63505 0.76957 0.10506 -0.07400
C 	C 	0.11427 0.05887 0.12224 0.02500
C 	C 	0.14134 0.99593 0.11300 0.04600
C 	C 	0.18870 0.97105 0.13564 -0.12800
C 	C 	0.21470 0.01799 0.16598 0.02200
H 	H 	0.25423 0.00285 0.18287 0.02800
C 	C 	0.18726 0.08281 0.17535 -0.01800
H 	H 	0.20548 0.11652 0.19943 0.04600
C 	C 	0.13382 0.10086 0.15448 -0.08900
C 	C 	0.03765 0.01064 0.11438 -0.05100
H 	H 	0.06545 0.92726 0.07436 0.05800
H 	H 	0.04857 0.88344 0.12204 0.05900
C 	C 	0.06876 0.93936 0.10364 -0.10600
C 	C 	0.58418 0.94149 0.27301 0.03100
C 	C 	0.51381 0.90195 0.28442 0.02800
C 	C 	0.49833 0.85833 0.31787 -0.09300
C 	C 	0.55566 0.86018 0.34081 -0.00500
H 	H 	0.54444 0.82984 0.36737 0.03700
C 	C 	0.62781 0.90154 0.32933 -0.01100
H 	H 	0.67187 0.90162 0.34687 0.03500
C 	C 	0.64264 0.94050 0.29476 -0.09300
C 	C 	0.57425 0.90549 0.23649 -0.08400
H 	H 	0.48118 0.79223 0.25149 0.03800
H 	H 	0.60575 0.86126 0.23148 0.05900
H 	H 	0.45376 0.88416 0.23499 0.02100
H 	H 	0.57900 0.95335 0.21461 0.04500
C 	C 	0.49393 0.86091 0.24947 -0.08500
C 	C 	0.08771 0.35709 0.29622 0.04500
C 	C 	0.11921 0.42872 0.31358 0.03200
C 	C 	0.13426 0.42618 0.35031 -0.08600
C 	C 	0.11851 0.34908 0.36900 -0.00700
H 	H 	0.12851 0.34600 0.39752 0.03700
C 	C 	0.08540 0.27599 0.35131 0.00700
H 	H 	0.06933 0.21710 0.36639 0.03800
C 	C 	0.06852 0.27976 0.31484 -0.10500
C 	C 	0.14233 0.37907 0.26542 -0.09400
H 	H 	0.17251 0.51688 0.27013 0.03300
H 	H 	0.11792 0.38905 0.23956 0.05900
H 	H 	0.23338 0.46596 0.29414 0.04400
H 	H 	0.17810 0.33835 0.26411 0.06000
C 	C 	0.17776 0.46102 0.28494 -0.08300
C 	C 	0.95879 0.89080 0.33489 -0.02500
C 	C 	0.94789 0.89719 0.29780 -0.05600
C 	C 	0.98536 0.86113 0.27346 -0.06600
H 	H 	0.97936 0.86756 0.24467 0.03000
H 	H 	0.06413 0.79480 0.26732 0.01500
C 	C 	0.04424 0.81483 0.32353 -0.13400
C 	C 	0.95198 0.80043 0.37551 -0.13100
H 	H 	0.88657 0.88907 0.38112 0.03400
H 	H 	0.96939 0.81677 0.40335 0.05300
H 	H 	0.85048 0.80462 0.34858 0.04200
H 	H 	0.93315 0.73284 0.37059 0.05800
C 	C 	0.89880 0.84668 0.36129 -0.05700
C 	C 	0.33700 0.94810 0.42962 -0.14800
C 	C 	0.38575 0.95411 0.45543 -0.01600
C 	C 	0.41100 0.02998 0.47635 0.02400
C 	C 	0.46513 0.03819 0.49939 -0.13800
H 	H 	0.38715 0.07999 0.47211 0.03000
H 	H 	0.31231 0.99733 0.42529 0.06600
H 	H 	0.48898 0.98805 0.50318 0.06100
H 	H 	0.40897 0.90382 0.46037 0.03900
C 	C 	0.96979 0.52741 0.45954 -0.19100
C 	C 	0.95100 0.46177 0.48314 0.01900
C 	C 	0.87662 0.43399 0.50025 -0.00200
C 	C 	0.85896 0.37665 0.52765 -0.14900
H 	H 	0.83711 0.46443 0.49179 0.03600
H 	H 	0.92953 0.55793 0.45245 0.07900
H 	H 	0.89664 0.34288 0.53507 0.06700
H 	H 	0.99080 0.43103 0.49076 0.02000
C 	C 	0.53710 0.54190 0.51510 -0.16100
C 	C 	0.50308 0.52792 0.48383 0.00900
C 	C 	0.45438 0.57596 0.47246 0.01100
C 	C 	0.41999 0.55977 0.44138 -0.16300
H 	H 	0.44183 0.61938 0.49071 0.02700
H 	H 	0.54305 0.59954 0.52862 0.08100
H 	H 	0.43594 0.52084 0.42203 0.07700
H 	H 	0.50336 0.47332 0.46908 0.00500
C 	C 	0.74466 0.02960 0.60221 0.10000
C 	C 	0.78330 0.97925 0.61462 -0.03700
C 	C 	0.77986 0.95568 0.65162 -0.06200
C 	C 	0.72618 0.97183 0.67414 -0.06000
H 	H 	0.71866 0.94961 0.70207 0.04700
C 	C 	0.68749 0.02440 0.66147 0.04200
H 	H 	0.65139 0.04332 0.67987 0.02000
C 	C 	0.70207 0.05983 0.62628 -0.13100
C 	C 	0.80749 0.08468 0.57996 -0.12400
H 	H 	0.89625 0.06200 0.61195 -0.00700
H 	H 	0.82808 0.14909 0.58946 0.05800
H 	H 	0.86845 0.99214 0.57298 0.00600
H 	H 	0.79846 0.07966 0.55055 0.06200
C 	C 	0.85191 0.02815 0.59439 -0.01200
C 	C 	0.24818 0.08412 0.60828 0.04100
C 	C 	0.31765 0.11737 0.59410 0.04100
C 	C 	0.37618 0.14973 0.61669 -0.09500
C 	C 	0.36426 0.13853 0.65422 0.00100
H 	H 	0.40926 0.15943 0.67205 0.02700
C 	C 	0.29305 0.10469 0.66878 -0.01200
H 	H 	0.28368 0.09891 0.69776 0.04200
C 	C 	0.23394 0.08223 0.64570 -0.08800
C 	C 	0.21630 0.13021 0.58174 -0.08300
H 	H 	0.31670 0.23627 0.56910 0.05200
H 	H 	0.19438 0.17737 0.59407 0.04700
H 	H 	0.30286 0.14755 0.53801 0.04800
H 	H 	0.17945 0.08823 0.56315 0.04800
C 	C 	0.29546 0.16822 0.56562 -0.09100
C 	C 	0.92317 0.64319 0.67563 0.02800
C 	C 	0.87613 0.57245 0.66319 0.03600
C 	C 	0.82793 0.57631 0.63587 -0.09500
C 	C 	0.83611 0.65274 0.61766 -0.00200
H 	H 	0.80345 0.65636 0.59472 0.04000
C 	C 	0.88583 0.72525 0.62980 -0.01200
H 	H 	0.89023 0.78435 0.61647 0.03500
C 	C 	0.92574 0.72144 0.66070 -0.08900
C 	C 	0.90387 0.61674 0.71441 -0.08500
H 	H 	0.79258 0.52935 0.70662 0.03700
H 	H 	0.87392 0.65358 0.72898 0.05800
H 	H 	0.86775 0.47979 0.70625 0.03300
H 	H 	0.95016 0.60586 0.72885 0.03800
C 	C 	0.85081 0.53580 0.70008 -0.08600
C 	C 	0.94228 0.61559 0.95803 -0.02000
C 	C 	0.92905 0.55324 0.93504 -0.15300
H 	H 	0.89750 0.63286 0.97051 0.03200
H 	H 	0.98576 0.69622 0.01824 0.04900
H 	H 	0.97401 0.53462 0.92359 0.06600
H 	H 	0.06240 0.65229 0.95144 0.03300
C 	C 	0.55046 0.10070 0.95390 -0.15300
C 	C 	0.49196 0.08879 0.97644 0.00200
C 	C 	0.46828 0.01403 0.00082 0.03000
C 	C 	0.41263 0.00419 0.02738 -0.16100
H 	H 	0.49512 0.96632 0.99808 0.02000
H 	H 	0.58153 0.05669 0.95465 0.07800
H 	H 	0.38887 0.05403 0.03151 0.08300
H 	H 	0.46074 0.13264 0.97619 0.04200
C 	C 	0.49550 0.50238 0.94903 -0.16000
C 	C 	0.46427 0.49469 0.98378 0.00300
C 	C 	0.43540 0.55508 0.99655 0.01400
C 	C 	0.37823 0.53350 0.02552 -0.20900
H 	H 	0.44873 0.61533 0.98239 0.02400
H 	H 	0.48694 0.54727 0.92946 0.07600
H 	H 	0.34540 0.46900 0.02955 0.08900
H 	H 	0.46146 0.44041 0.00087 0.03500
C 	C 	0.82448 0.15682 0.79666 0.04100
C 	C 	0.87522 0.12302 0.78290 0.03400
C 	C 	0.94942 0.15698 0.78975 -0.07600
C 	C 	0.97154 0.22743 0.81069 -0.04800
C 	C 	0.91960 0.26233 0.82483 0.00900
H 	H 	0.93694 0.31518 0.84180 0.03500
C 	C 	0.84522 0.22660 0.81804 -0.10100
C 	C 	0.78886 0.15723 0.76144 -0.08600
H 	H 	0.88512 0.16091 0.72554 0.03300
H 	H 	0.79527 0.22055 0.74986 0.02900
H 	H 	0.82284 0.05392 0.73753 0.05100
H 	H 	0.73252 0.11377 0.76192 0.03600
C 	C 	0.84675 0.11881 0.74577 -0.09100
C 	C 	0.38588 0.18820 0.79820 0.01900
C 	C 	0.31833 0.15380 0.78497 0.04700
C 	C 	0.25987 0.10682 0.80766 -0.09700
C 	C 	0.27267 0.09149 0.84399 -0.00500
H 	H 	0.22935 0.05266 0.86166 0.03600
C 	C 	0.34206 0.12698 0.85752 -0.00600
H 	H 	0.35178 0.11562 0.88554 0.03800
C 	C 	0.39836 0.17780 0.83479 -0.08600
C 	C 	0.39525 0.27119 0.78038 -0.08300
H 	H 	0.31913 0.22671 0.73557 0.05200
H 	H 	0.43936 0.28739 0.75902 0.03300
H 	H 	0.27689 0.25984 0.77639 0.05700
H 	H 	0.39664 0.32075 0.79966 0.05200
C 	C 	0.31811 0.23205 0.76534 -0.08800
C 	C 	0.76819 0.69863 0.86954 0.03700
C 	C 	0.80820 0.77388 0.85433 0.03800
C 	C 	0.82169 0.78442 0.81688 -0.09900
C 	C 	0.78911 0.71842 0.79477 -0.00900
H 	H 	0.79906 0.72527 0.76581 0.03200
C 	C 	0.74916 0.64107 0.81036 -0.00400
H 	H 	0.72870 0.58880 0.79331 0.02600
C 	C 	0.74021 0.63015 0.84808 -0.09300
C 	C 	0.72042 0.73471 0.89174 -0.08400
H 	H 	0.79944 0.86224 0.89422 0.04200
H 	H 	0.72846 0.72863 0.92112 0.04100
H 	H 	0.73330 0.84881 0.85691 0.04900
H 	H 	0.66266 0.71575 0.88367 0.05000
C 	C 	0.76592 0.82034 0.87448 -0.08700
