data_crystal

_cell_length_a 18.63647
_cell_length_b 15.91632
_cell_length_c 41.49179
_cell_angle_alpha 90.86637
_cell_angle_beta  91.27098
_cell_angle_gamma 110.98113

_symmetry_space_group_name_	'P 1'
_symmetry_space_group_name_H-M	'P 1'

loop_
_symmetry_equiv_pos_as_xyz
  x,y,z

loop_
_atom_site_label
_atom_site_type_symbol
_atom_site_fract_x
_atom_site_fract_y
_atom_site_fract_z
_atom_site_charge
Ni	Ni	0.73462 0.31173 0.89646 1.10400
O 	O 	0.64606 0.24352 0.86499 -0.70200
Ni	Ni	0.55700 0.26199 0.88680 1.10200
O 	O 	0.81397 0.27284 0.87319 -0.35000
O 	O 	0.73943 0.12397 0.87131 -0.38100
O 	O 	0.77465 0.42068 0.86645 -0.35700
Ni	Ni	0.62511 0.11336 0.86495 1.07500
O 	O 	0.78477 0.50663 0.92394 -0.38200
O 	O 	0.61970 0.10724 0.91395 -0.39500
O 	O 	0.47493 0.19118 0.85365 -0.36900
O 	O 	0.64563 0.33030 0.91838 -0.70000
O 	O 	0.81647 0.38138 0.92972 -0.36500
O 	O 	0.47777 0.30324 0.90965 -0.33800
O 	O 	0.55438 0.45064 0.91234 -0.39100
Ni	Ni	0.66754 0.46082 0.91863 1.08200
H 	H 	0.65286 0.26775 0.84297 0.16800
H 	H 	0.63893 0.30593 0.94038 0.18400
C 	C 	0.55840 0.10758 0.92859 0.30800
O 	O 	0.67212 0.46494 0.86996 -0.41000
C 	C 	0.79847 0.19135 0.86113 0.28300
C 	C 	0.46558 0.10754 0.84544 0.28800
C 	C 	0.73509 0.46899 0.85590 0.29400
C 	C 	0.49727 0.38344 0.92341 0.29400
C 	C 	0.82438 0.46388 0.93884 0.30700
O 	O 	0.51791 0.15370 0.91699 -0.35300
O 	O 	0.50725 0.06601 0.85983 -0.39300
Ni	Ni	0.60862 0.33224 0.55911 1.10400
O 	O 	0.68919 0.33205 0.52621 -0.69700
Ni	Ni	0.76163 0.29428 0.55363 1.10300
O 	O 	0.57169 0.42050 0.53437 -0.35500
O 	O 	0.69568 0.51542 0.52990 -0.40000
O 	O 	0.52733 0.22712 0.53380 -0.36100
Ni	Ni	0.74695 0.44103 0.50384 1.07800
O 	O 	0.50385 0.16564 0.59462 -0.38300
O 	O 	0.84654 0.49589 0.53110 -0.38700
O 	O 	0.85437 0.31784 0.52397 -0.35700
O 	O 	0.67213 0.27688 0.58397 -0.70400
O 	O 	0.52792 0.31835 0.59312 -0.35600
O 	O 	0.81018 0.23105 0.58538 -0.35000
O 	O 	0.69968 0.10682 0.58416 -0.38900
Ni	Ni	0.60834 0.15151 0.58937 1.07600
H 	H 	0.66602 0.28428 0.50956 0.16400
H 	H 	0.68920 0.30833 0.60509 0.16700
C 	C 	0.85160 0.49219 0.56253 0.29700
O 	O 	0.58694 0.12600 0.54130 -0.39200
C 	C 	0.62163 0.49870 0.52602 0.29100
C 	C 	0.86055 0.35511 0.49523 0.31100
C 	C 	0.53639 0.15135 0.52579 0.30300
C 	C 	0.76944 0.15089 0.59609 0.27300
C 	C 	0.49042 0.23798 0.60506 0.27400
O 	O 	0.81560 0.41646 0.57738 -0.37700
O 	O 	0.80130 0.36839 0.48117 -0.39100
Ni	Ni	0.02017 0.93458 0.75764 1.10000
O 	O 	0.01591 0.85122 0.71927 -0.70800
Ni	Ni	0.07005 0.94108 0.68659 1.10000
O 	O 	0.96282 0.82710 0.78551 -0.35000
O 	O 	0.86397 0.77676 0.74797 -0.38900
O 	O 	0.12399 0.92431 0.77014 -0.37300
Ni	Ni	0.91201 0.78736 0.70260 1.07400
O 	O 	0.07284 0.16064 0.76906 -0.37700
O 	O 	0.88583 0.90043 0.69526 -0.39200
O 	O 	0.07138 0.84965 0.65185 -0.35400
O 	O 	0.05731 0.02290 0.72250 -0.70000
O 	O 	0.03175 0.02437 0.79489 -0.35300
O 	O 	0.14706 0.04654 0.66279 -0.35600
O 	O 	0.22173 0.09948 0.70847 -0.39100
Ni	Ni	0.14388 0.12669 0.73870 1.08000
H 	H 	0.04330 0.80938 0.72367 0.17200
H 	H 	0.01555 0.04480 0.71694 0.16800
C 	C 	0.91698 0.95638 0.67222 0.28100
O 	O 	0.18251 0.07584 0.77726 -0.37200
C 	C 	0.89894 0.76398 0.77441 0.27400
C 	C 	0.00681 0.78015 0.64564 0.27100
C 	C 	0.18572 0.99504 0.77741 0.28600
C 	C 	0.21323 0.09715 0.67668 0.26700
C 	C 	0.02721 0.10402 0.78972 0.28500
O 	O 	0.98254 0.95990 0.66018 -0.35800
O 	O 	0.94033 0.78247 0.65551 -0.38800
Ni	Ni	0.24057 0.68998 0.39014 1.10200
O 	O 	0.33225 0.75061 0.36201 -0.70500
Ni	Ni	0.41954 0.75577 0.39141 1.10600
O 	O 	0.16894 0.69263 0.35266 -0.36100
O 	O 	0.22402 0.84637 0.34938 -0.38600
O 	O 	0.24591 0.57514 0.37038 -0.39300
Ni	Ni	0.34318 0.87193 0.35010 1.07400
O 	O 	0.21335 0.60293 0.46226 -0.38800
O 	O 	0.34806 0.92021 0.39659 -0.38600
O 	O 	0.50378 0.80538 0.35919 -0.35200
O 	O 	0.32827 0.71060 0.42158 -0.69800
O 	O 	0.14656 0.61897 0.41657 -0.37000
O 	O 	0.49548 0.73056 0.42294 -0.34900
O 	O 	0.41149 0.58730 0.42686 -0.39900
Ni	Ni	0.31162 0.59782 0.44403 1.07900
H 	H 	0.33178 0.71414 0.34240 0.17500
H 	H 	0.32846 0.75737 0.43756 0.16100
C 	C 	0.40396 0.92423 0.41711 0.30200
O 	O 	0.24779 0.49186 0.41434 -0.38100
C 	C 	0.16901 0.76876 0.34084 0.27600
C 	C 	0.50491 0.87206 0.34031 0.27300
C 	C 	0.22475 0.49765 0.38456 0.30700
C 	C 	0.47798 0.64977 0.43463 0.29800
C 	C 	0.14873 0.58201 0.44486 0.30600
O 	O 	0.45235 0.88397 0.41051 -0.36100
O 	O 	0.46155 0.92120 0.34642 -0.37700
Ni	Ni	0.36705 0.67982 0.06308 1.10000
O 	O 	0.26838 0.65807 0.03595 -0.69700
Ni	Ni	0.21379 0.72118 0.06376 1.10200
O 	O 	0.40522 0.59771 0.03489 -0.34200
O 	O 	0.29124 0.48037 0.03278 -0.38700
O 	O 	0.42980 0.77996 0.03255 -0.35000
Ni	Ni	0.20275 0.53021 0.03227 1.08500
O 	O 	0.48364 0.85886 0.08891 -0.39800
O 	O 	0.20078 0.51784 0.08088 -0.40600
O 	O 	0.11949 0.69693 0.03411 -0.35600
O 	O 	0.31261 0.74289 0.09075 -0.69900
O 	O 	0.46280 0.70901 0.09212 -0.36900
O 	O 	0.17726 0.80370 0.09253 -0.34600
O 	O 	0.29068 0.92185 0.09264 -0.39100
Ni	Ni	0.37861 0.87135 0.09130 1.07300
H 	H 	0.27861 0.68508 0.01443 0.18900
H 	H 	0.30333 0.71807 0.11265 0.16900
C 	C 	0.15097 0.54048 0.09702 0.29400
O 	O 	0.37016 0.87918 0.04273 -0.40300
C 	C 	0.35775 0.52439 0.02037 0.29500
C 	C 	0.08909 0.61800 0.01933 0.29900
C 	C 	0.41097 0.84874 0.02388 0.30500
C 	C 	0.22429 0.87989 0.10553 0.28100
C 	C 	0.50078 0.79284 0.10165 0.28700
O 	O 	0.14688 0.62091 0.09360 -0.35300
O 	O 	0.09959 0.54729 0.03144 -0.38700
Ni	Ni	0.95909 0.03674 0.26731 1.09900
O 	O 	0.96376 0.13705 0.23673 -0.71400
Ni	Ni	0.92276 0.06849 0.19590 1.10000
O 	O 	0.00471 0.13049 0.30376 -0.34700
O 	O 	0.11014 0.18951 0.27363 -0.39500
O 	O 	0.84910 0.01993 0.28247 -0.35500
Ni	Ni	0.07032 0.21231 0.22865 1.07900
O 	O 	0.86041 0.82814 0.27525 -0.39300
O 	O 	0.10492 0.11157 0.21205 -0.39700
O 	O 	0.92309 0.17776 0.17053 -0.35500
O 	O 	0.93400 0.96717 0.22435 -0.68700
O 	O 	0.96280 0.94059 0.29773 -0.36500
O 	O 	0.85316 0.98882 0.15958 -0.34600
O 	O 	0.81653 0.84863 0.17974 -0.38100
Ni	Ni	0.84421 0.85660 0.22847 1.08100
H 	H 	0.93271 0.17282 0.24367 0.17400
H 	H 	0.97827 0.95041 0.21842 0.16100
C 	C 	0.08104 0.07150 0.18394 0.28900
O 	O 	0.78309 0.93593 0.23862 -0.41300
C 	C 	0.07257 0.19243 0.29973 0.28100
C 	C 	0.98686 0.25054 0.17106 0.27200
C 	C 	0.78353 0.96862 0.26784 0.29100
C 	C 	0.79886 0.91157 0.16540 0.28700
C 	C 	0.92899 0.85596 0.28949 0.28600
O 	O 	0.01679 0.07155 0.17047 -0.35700
O 	O 	0.05237 0.24659 0.18270 -0.38200
C 	C 	0.08841 0.46939 0.11370 -0.06000
C 	C 	0.05013 0.38383 0.09853 0.01500
C 	C 	0.99945 0.31318 0.11627 0.00500
C 	C 	0.99232 0.32534 0.14950 -0.05500
C 	C 	0.01804 0.41350 0.16272 0.00500
C 	C 	0.06725 0.48569 0.14506 0.00600
C 	C 	0.06361 0.36773 0.06511 0.08600
C 	C 	0.99697 0.42894 0.19508 0.07500
C 	C 	0.09697 0.57555 0.15941 0.09800
C 	C 	0.95790 0.22654 0.10076 0.11200
N 	N 	0.12038 0.64722 0.17093 -0.09900
N 	N 	0.92475 0.15733 0.08841 -0.09000
N 	N 	0.98012 0.44127 0.22092 -0.10800
N 	N 	0.07416 0.35405 0.03848 -0.12400
C 	C 	0.72464 0.88597 0.14751 -0.06000
C 	C 	0.70984 0.82776 0.12019 0.00800
C 	C 	0.63551 0.79389 0.10569 0.00900
C 	C 	0.57522 0.81557 0.11929 -0.06200
C 	C 	0.59002 0.87194 0.14709 0.00400
C 	C 	0.66550 0.91164 0.15985 0.00100
C 	C 	0.77156 0.80468 0.10652 0.10700
C 	C 	0.52726 0.88853 0.16268 0.06500
C 	C 	0.68292 0.98185 0.18464 0.08200
C 	C 	0.62176 0.73934 0.07625 0.10800
N 	N 	0.69657 0.03814 0.20432 -0.11200
N 	N 	0.61079 0.69587 0.05277 -0.09000
N 	N 	0.47716 0.90172 0.17510 -0.12500
N 	N 	0.82079 0.78627 0.09561 -0.09200
C 	C 	0.13042 0.03439 0.16554 -0.06100
C 	C 	0.14199 0.05383 0.13259 0.01400
C 	C 	0.16789 0.99917 0.11258 -0.00200
C 	C 	0.19218 0.93287 0.12623 -0.05600
C 	C 	0.19196 0.92302 0.15996 0.00100
C 	C 	0.15843 0.97135 0.17955 -0.00000
C 	C 	0.13149 0.13305 0.11976 0.10400
C 	C 	0.22996 0.86730 0.17459 0.07800
C 	C 	0.15357 0.95698 0.21399 0.08400
C 	C 	0.16914 0.01071 0.07795 0.11300
N 	N 	0.14988 0.94583 0.24149 -0.11700
N 	N 	0.17014 0.01989 0.05033 -0.09100
N 	N 	0.26067 0.82325 0.18627 -0.11100
N 	N 	0.12343 0.19640 0.10951 -0.09800
C 	C 	0.70861 0.94876 0.28431 -0.05600
C 	C 	0.64826 0.86439 0.27890 0.00800
C 	C 	0.57691 0.84686 0.29345 0.00300
C 	C 	0.56905 0.90572 0.31761 -0.05300
C 	C 	0.62901 0.98973 0.32336 0.00500
C 	C 	0.69651 0.01347 0.30517 0.00900
C 	C 	0.66070 0.79360 0.26000 0.08300
C 	C 	0.62303 0.04999 0.34884 0.11200
C 	C 	0.75140 0.10506 0.30699 0.10400
C 	C 	0.51150 0.76748 0.28375 0.08200
N 	N 	0.79517 0.17819 0.30845 -0.10000
N 	N 	0.45930 0.70421 0.27598 -0.10700
N 	N 	0.61855 0.09817 0.36922 -0.08800
N 	N 	0.67047 0.73705 0.24493 -0.12900
C 	C 	0.10363 0.27094 0.32225 -0.06700
C 	C 	0.09724 0.26090 0.35605 0.01000
C 	C 	0.13711 0.33470 0.37702 0.00500
C 	C 	0.19022 0.41449 0.36428 -0.06200
C 	C 	0.20223 0.41833 0.33081 0.00900
C 	C 	0.15020 0.35437 0.31012 0.00700
C 	C 	0.05129 0.17517 0.36929 0.11100
C 	C 	0.27179 0.48236 0.31802 0.09800
C 	C 	0.14152 0.37636 0.27682 0.05300
C 	C 	0.12420 0.32758 0.41137 0.10200
N 	N 	0.13468 0.39414 0.25027 -0.14900
N 	N 	0.11387 0.32151 0.43879 -0.09700
N 	N 	0.32734 0.53337 0.30778 -0.10900
N 	N 	0.01466 0.10680 0.37989 -0.08500
C 	C 	0.96285 0.79134 0.30122 -0.07100
C 	C 	0.01189 0.76696 0.28077 0.00500
C 	C 	0.07976 0.75873 0.29366 0.00300
C 	C 	0.09562 0.77020 0.32718 -0.05400
C 	C 	0.03827 0.77575 0.34790 0.00600
C 	C 	0.97057 0.78343 0.33472 0.01500
C 	C 	0.99498 0.75632 0.24637 0.06000
C 	C 	0.04937 0.77466 0.38258 0.09800
C 	C 	0.91113 0.78918 0.35561 0.10500
C 	C 	0.13316 0.73930 0.27257 0.08700
N 	N 	0.86363 0.79380 0.37228 -0.08600
N 	N 	0.17576 0.72376 0.25574 -0.10500
N 	N 	0.05825 0.77374 0.41025 -0.10000
N 	N 	0.98152 0.74791 0.21889 -0.12300
C 	C 	0.42407 0.94334 0.47617 -0.01600
C 	C 	0.41765 0.98111 0.44644 -0.08200
C 	C 	0.43869 0.07519 0.44443 0.11200
C 	C 	0.47369 0.13068 0.47120 -0.02700
C 	C 	0.48729 0.09285 0.49998 -0.06400
C 	C 	0.45777 0.99858 0.50305 0.09700
N 	N 	0.46162 0.95879 0.53346 -0.02100
H 	H 	0.40535 0.87087 0.47813 0.04700
H 	H 	0.49338 0.20319 0.46912 0.06600
N 	N 	0.42617 0.11474 0.41511 -0.02300
O 	O 	0.42893 0.97859 0.55834 -0.10600
O 	O 	0.49288 0.89788 0.53567 -0.09900
O 	O 	0.37963 0.15914 0.41441 -0.08900
O 	O 	0.46646 0.11349 0.39004 -0.09200
C 	C 	0.01986 0.46134 0.43745 -0.01900
C 	C 	0.07583 0.52183 0.45824 -0.07200
C 	C 	0.06275 0.52175 0.49164 0.10400
C 	C 	0.99543 0.45967 0.50381 -0.02400
C 	C 	0.93803 0.40204 0.48287 -0.07100
C 	C 	0.95146 0.40101 0.44960 0.09700
N 	N 	0.89666 0.33727 0.42817 -0.02100
H 	H 	0.03029 0.45956 0.41189 0.07000
H 	H 	0.98551 0.46065 0.52943 0.07700
N 	N 	0.11470 0.58878 0.51292 -0.02000
O 	O 	0.87474 0.36397 0.40149 -0.09200
O 	O 	0.87291 0.25182 0.43422 -0.08100
O 	O 	0.12518 0.67331 0.50913 -0.08800
O 	O 	0.14462 0.56464 0.53812 -0.09100
C 	C 	0.63357 0.59566 0.47869 -0.02700
C 	C 	0.59541 0.55979 0.50694 -0.07800
C 	C 	0.52622 0.57203 0.51409 0.10300
C 	C 	0.49085 0.60867 0.49101 -0.02200
C 	C 	0.52448 0.63420 0.46110 -0.08500
C 	C 	0.59808 0.63221 0.45559 0.10600
N 	N 	0.63538 0.66327 0.42597 -0.02300
H 	H 	0.68831 0.58948 0.47361 0.04000
H 	H 	0.43585 0.61443 0.49588 0.02800
N 	N 	0.49144 0.54651 0.54463 -0.01900
O 	O 	0.70139 0.72934 0.42637 -0.07800
O 	O 	0.60713 0.62007 0.39902 -0.08900
O 	O 	0.53156 0.57573 0.57123 -0.08800
O 	O 	0.41878 0.49751 0.54585 -0.09200
C 	C 	0.80797 0.10181 0.61563 -0.06100
C 	C 	0.83969 0.13592 0.64637 0.00300
C 	C 	0.87315 0.08692 0.66572 0.00200
C 	C 	0.87114 0.00131 0.65505 -0.05300
C 	C 	0.83468 0.96482 0.62525 0.00000
C 	C 	0.80763 0.01719 0.60471 0.01300
C 	C 	0.83681 0.22082 0.65832 0.08600
C 	C 	0.82396 0.87279 0.61593 0.10000
C 	C 	0.78259 0.98576 0.57190 0.10100
C 	C 	0.91053 0.12556 0.69624 0.07600
N 	N 	0.76266 0.96066 0.54573 -0.09100
N 	N 	0.94022 0.15787 0.72049 -0.12000
N 	N 	0.81505 0.79932 0.60844 -0.10400
N 	N 	0.83446 0.28848 0.66785 -0.10800
C 	C 	0.41514 0.22204 0.62001 -0.04800
C 	C 	0.41145 0.25604 0.65123 -0.00200
C 	C 	0.34269 0.22110 0.66853 0.00300
C 	C 	0.28125 0.14391 0.65631 -0.05300
C 	C 	0.28551 0.11190 0.62450 0.00300
C 	C 	0.34835 0.15846 0.60551 0.00800
C 	C 	0.47801 0.32636 0.66561 0.09000
C 	C 	0.22979 0.02738 0.61224 0.11600
C 	C 	0.34452 0.14060 0.57100 0.11600
C 	C 	0.33400 0.26721 0.69775 0.08100
N 	N 	0.34129 0.12634 0.54347 -0.09000
N 	N 	0.32715 0.30413 0.72107 -0.12200
N 	N 	0.18569 0.95993 0.60225 -0.09600
N 	N 	0.53117 0.38252 0.67708 -0.10900
C 	C 	0.00339 0.71782 0.61866 -0.05000
C 	C 	0.00132 0.63058 0.62546 -0.00400
C 	C 	0.95595 0.55665 0.60571 0.00900
C 	C 	0.90884 0.57016 0.58055 -0.06300
C 	C 	0.92023 0.65947 0.57132 0.00900
C 	C 	0.97325 0.73257 0.58889 0.01000
C 	C 	0.04274 0.61655 0.65358 0.08400
C 	C 	0.87442 0.67645 0.54524 0.09900
C 	C 	0.99068 0.82381 0.57812 0.11700
C 	C 	0.96183 0.46906 0.60986 0.10000
N 	N 	0.00449 0.89665 0.56957 -0.09400
N 	N 	0.96671 0.39920 0.61314 -0.09500
N 	N 	0.83809 0.69046 0.52446 -0.10300
N 	N 	0.07580 0.60537 0.67606 -0.10700
C 	C 	0.96554 0.51731 0.94667 -0.01600
C 	C 	0.89456 0.51744 0.95698 -0.06900
C 	C 	0.89145 0.56806 0.98473 0.10100
C 	C 	0.95865 0.61162 0.00332 -0.02100
C 	C 	0.02821 0.60327 0.99473 -0.06600
C 	C 	0.03234 0.56009 0.96534 0.09600
N 	N 	0.10406 0.55615 0.95519 -0.03100
H 	H 	0.96864 0.48255 0.92436 0.08100
H 	H 	0.95551 0.64599 0.02571 0.08000
N 	N 	0.81978 0.57204 0.99488 -0.02400
O 	O 	0.10880 0.47946 0.94653 -0.10100
O 	O 	0.16395 0.62967 0.95352 -0.09800
O 	O 	0.76434 0.49878 0.00258 -0.11700
O 	O 	0.81236 0.64962 0.99912 -0.08900
C 	C 	0.44577 0.98107 0.94749 -0.02300
C 	C 	0.52286 0.03751 0.95227 -0.06400
C 	C 	0.56540 0.02506 0.97913 0.10600
C 	C 	0.52962 0.95779 0.00121 -0.02900
C 	C 	0.45121 0.90499 0.99728 -0.06400
C 	C 	0.40945 0.91646 0.97013 0.10500
N 	N 	0.33003 0.86225 0.96539 -0.02600
H 	H 	0.41421 0.98648 0.92591 0.08000
H 	H 	0.56185 0.94976 0.02227 0.07600
N 	N 	0.64392 0.08237 0.98472 -0.02100
O 	O 	0.27827 0.89947 0.96569 -0.08200
O 	O 	0.31022 0.77735 0.95769 -0.08600
O 	O 	0.66168 0.16885 0.98843 -0.10100
O 	O 	0.69672 0.04744 0.98871 -0.08200
C 	C 	0.41905 0.47390 0.93858 -0.01900
C 	C 	0.44461 0.40310 0.94553 -0.07200
C 	C 	0.43426 0.36626 0.97652 0.09600
C 	C 	0.40500 0.40578 0.00089 -0.02200
C 	C 	0.38576 0.48148 0.99449 -0.07100
C 	C 	0.39116 0.51433 0.96301 0.09500
N 	N 	0.37037 0.59042 0.95597 -0.03000
H 	H 	0.42551 0.50140 0.91461 0.07400
H 	H 	0.39866 0.37863 0.02490 0.07300
N 	N 	0.45701 0.29160 0.98374 -0.02600
O 	O 	0.41441 0.67037 0.96614 -0.08600
O 	O 	0.31195 0.58104 0.93666 -0.08600
O 	O 	0.51205 0.30116 0.00491 -0.10300
O 	O 	0.41932 0.21270 0.97076 -0.07300
C 	C 	0.96970 0.13002 0.80722 -0.05800
C 	C 	0.89083 0.08874 0.79877 0.00800
C 	C 	0.83600 0.11453 0.81485 0.00600
C 	C 	0.85801 0.17142 0.84253 -0.05600
C 	C 	0.93660 0.20760 0.85258 0.01000
C 	C 	0.99259 0.19031 0.83396 0.00600
C 	C 	0.86557 0.01642 0.77475 0.07600
C 	C 	0.95941 0.25814 0.88284 0.10900
C 	C 	0.07348 0.23223 0.84295 0.10800
C 	C 	0.75715 0.08395 0.80248 0.07200
N 	N 	0.13803 0.26563 0.85011 -0.09600
N 	N 	0.69428 0.05959 0.79262 -0.12800
N 	N 	0.97767 0.29841 0.90699 -0.09100
N 	N 	0.84472 0.95839 0.75570 -0.11800
C 	C 	0.25002 0.98299 0.79544 -0.05200
C 	C 	0.25184 0.99043 0.82929 -0.00200
C 	C 	0.32272 0.03018 0.84614 0.02100
C 	C 	0.39201 0.05188 0.82939 -0.06300
C 	C 	0.38966 0.02688 0.79651 0.01300
C 	C 	0.31833 0.99289 0.77942 -0.00900
C 	C 	0.18044 0.96348 0.84643 0.10900
C 	C 	0.46046 0.03949 0.78006 0.07400
C 	C 	0.31539 0.97234 0.74516 0.08500
C 	C 	0.32412 0.05618 0.87987 0.10500
N 	N 	0.31302 0.95597 0.71779 -0.11100
N 	N 	0.32479 0.07739 0.90672 -0.08200
N 	N 	0.51698 0.04959 0.76693 -0.11200
N 	N 	0.12340 0.94199 0.86006 -0.09100
C 	C 	0.85711 0.68882 0.79533 -0.05700
C 	C 	0.84318 0.59921 0.78510 0.00100
C 	C 	0.80002 0.52702 0.80424 0.00700
C 	C 	0.77234 0.54428 0.83407 -0.06200
C 	C 	0.78625 0.63429 0.84425 0.00900
C 	C 	0.82740 0.70616 0.82461 0.00700
C 	C 	0.87416 0.58142 0.75505 0.06600
C 	C 	0.76003 0.65325 0.87525 0.08800
C 	C 	0.83799 0.79799 0.83428 0.10400
C 	C 	0.78357 0.43494 0.79313 0.08800
N 	N 	0.84645 0.87122 0.84196 -0.10000
N 	N 	0.77047 0.36147 0.78430 -0.11300
N 	N 	0.73915 0.66861 0.89995 -0.11900
N 	N 	0.89889 0.56733 0.73108 -0.12700
