data_crystal

_cell_length_a 26.21177
_cell_length_b 26.50603
_cell_length_c 26.62325
_cell_angle_alpha 95.42924
_cell_angle_beta  95.42762
_cell_angle_gamma 125.80606

_symmetry_space_group_name_	'P 1'
_symmetry_space_group_name_H-M	'P 1'

loop_
_symmetry_equiv_pos_as_xyz
  x,y,z

loop_
_atom_site_label
_atom_site_type_symbol
_atom_site_fract_x
_atom_site_fract_y
_atom_site_fract_z
_atom_site_charge
C 	C 	0.97016 0.03260 0.98922 0.09300
C 	C 	0.03373 0.06494 0.98197 -0.11300
C 	C 	0.06076 0.03252 0.97645 0.09100
C 	C 	0.02405 0.96776 0.97827 -0.10600
C 	C 	0.96020 0.93514 0.98441 0.09000
C 	C 	0.93335 0.96760 0.99014 -0.10300
H 	H 	0.06207 0.11509 0.98083 0.06500
H 	H 	0.04508 0.94277 0.97480 0.07600
H 	H 	0.88394 0.94236 0.99503 0.07800
C 	C 	0.93136 0.99604 0.44146 0.06200
C 	C 	0.89667 0.93128 0.44337 -0.08200
C 	C 	0.92877 0.90384 0.44907 0.07300
C 	C 	0.99534 0.94113 0.45288 -0.09000
C 	C 	0.02998 0.00564 0.45094 0.07200
C 	C 	0.99801 0.03305 0.44516 -0.08600
H 	H 	0.84514 0.90249 0.44047 0.07700
H 	H 	0.02014 0.91994 0.45726 0.06800
H 	H 	0.02493 0.08310 0.44391 0.05800
Cu	Cu	0.64455 0.24744 0.00807 0.93400
Cu	Cu	0.70122 0.24999 0.90274 0.88300
Cu	Cu	0.68240 0.34641 0.93972 0.90400
Cu	Cu	0.63907 0.36177 0.03677 0.90800
C 	C 	0.65864 0.29714 0.11338 0.38700
O 	O 	0.54998 0.20691 0.00296 -0.34500
C 	C 	0.66902 0.30260 0.82889 0.38700
O 	O 	0.69382 0.34547 0.01165 -0.63600
O 	O 	0.63985 0.25361 0.93441 -0.63900
O 	O 	0.68623 0.20420 0.00935 -0.35000
O 	O 	0.75899 0.26953 0.96289 -0.41500
O 	O 	0.62741 0.31938 0.09730 -0.36200
O 	O 	0.72824 0.43727 0.95023 -0.34600
C 	C 	0.71989 0.47050 0.98406 0.31000
C 	C 	0.52406 0.23158 0.98158 0.30200
O 	O 	0.56085 0.29065 0.97535 -0.37200
O 	O 	0.67422 0.44286 0.01163 -0.37300
O 	O 	0.66202 0.25817 0.08154 -0.33200
C 	C 	0.74121 0.22899 0.99412 0.30600
O 	O 	0.68609 0.34945 0.86608 -0.35200
O 	O 	0.66349 0.25202 0.83889 -0.39100
H 	H 	0.73892 0.37396 0.02987 0.18600
H 	H 	0.59619 0.22672 0.91337 0.18900
Cu	Cu	0.73194 0.33550 0.43705 0.93300
Cu	Cu	0.73485 0.28430 0.54405 0.88200
Cu	Cu	0.63086 0.29286 0.50504 0.90400
Cu	Cu	0.60953 0.32926 0.40656 0.90800
C 	C 	0.68309 0.32089 0.33091 0.39600
O 	O 	0.76653 0.42770 0.44035 -0.33800
C 	C 	0.67700 0.31116 0.61654 0.38700
O 	O 	0.63220 0.28039 0.43326 -0.63800
O 	O 	0.72560 0.34075 0.51062 -0.63800
O 	O 	0.78012 0.29859 0.43715 -0.34300
O 	O 	0.71702 0.22670 0.48505 -0.42800
O 	O 	0.65425 0.34539 0.34658 -0.35700
O 	O 	0.53844 0.24197 0.49448 -0.35900
C 	C 	0.50204 0.24795 0.46159 0.31900
C 	C 	0.73638 0.44898 0.45900 0.31200
O 	O 	0.67827 0.40868 0.46738 -0.38200
O 	O 	0.52642 0.28986 0.43086 -0.37900
O 	O 	0.72120 0.31693 0.36375 -0.33900
C 	C 	0.75742 0.24503 0.45327 0.31000
O 	O 	0.62875 0.29143 0.57905 -0.35600
O 	O 	0.73021 0.32089 0.60694 -0.39200
H 	H 	0.60589 0.23550 0.41589 0.18900
H 	H 	0.75041 0.38421 0.53089 0.18900
C 	C 	0.71528 0.36495 0.75995 0.27000
C 	C 	0.66437 0.31067 0.77504 -0.20200
C 	C 	0.61300 0.26069 0.73753 0.27100
C 	C 	0.61485 0.26280 0.68536 0.27000
C 	C 	0.66824 0.31489 0.67028 -0.20300
C 	C 	0.71721 0.36699 0.70778 0.27200
F 	F 	0.76777 0.41873 0.69365 -0.39700
F 	F 	0.76469 0.41418 0.79579 -0.39200
F 	F 	0.56653 0.21261 0.64953 -0.39800
F 	F 	0.56227 0.20910 0.75167 -0.39900
C 	C 	0.71328 0.36318 0.20058 0.26900
C 	C 	0.67517 0.30298 0.16906 -0.19800
C 	C 	0.64640 0.24867 0.19156 0.27700
C 	C 	0.65240 0.25463 0.24505 0.27100
C 	C 	0.68693 0.31478 0.27625 -0.19900
C 	C 	0.71913 0.36905 0.25394 0.27800
F 	F 	0.75433 0.42751 0.28396 -0.38700
F 	F 	0.74292 0.41600 0.17934 -0.40800
F 	F 	0.62208 0.20189 0.26638 -0.39800
F 	F 	0.60978 0.19015 0.16156 -0.38600
C 	C 	0.85099 0.75119 0.49994 -0.09300
C 	C 	0.84066 0.70952 0.45673 -0.00600
C 	C 	0.85541 0.73087 0.41010 0.14200
C 	C 	0.88092 0.79371 0.40710 -0.07500
C 	C 	0.89287 0.83586 0.45063 -0.04500
C 	C 	0.87751 0.81435 0.49715 0.15700
C 	C 	0.81350 0.64326 0.46011 0.01500
O 	O 	0.84424 0.69018 0.36730 -0.26400
H 	H 	0.89296 0.81012 0.37124 0.07100
O 	O 	0.88810 0.85490 0.53981 -0.27500
H 	H 	0.83911 0.73478 0.53581 0.07400
C 	C 	0.85303 0.62757 0.48045 0.12000
C 	C 	0.82749 0.56403 0.48044 -0.02300
C 	C 	0.76238 0.51595 0.46087 -0.11300
C 	C 	0.72269 0.53197 0.44120 0.20400
C 	C 	0.74843 0.59539 0.44091 -0.10700
O 	O 	0.91708 0.67401 0.49849 -0.26500
H 	H 	0.85836 0.55217 0.49553 0.06700
O 	O 	0.65970 0.48550 0.41945 -0.29100
H 	H 	0.71794 0.60727 0.42493 0.08700
H 	H 	0.93217 0.87401 0.55774 0.15600
H 	H 	0.92059 0.68723 0.53554 0.15200
H 	H 	0.63543 0.48023 0.44742 0.15400
H 	H 	0.88430 0.69396 0.36840 0.16500
C 	C 	0.86802 0.19918 0.43832 -0.11100
C 	C 	0.82427 0.13294 0.42887 0.01100
C 	C 	0.75822 0.10392 0.42129 0.12500
C 	C 	0.73648 0.14111 0.42634 -0.02900
C 	C 	0.78030 0.20740 0.43866 -0.11600
C 	C 	0.84637 0.23649 0.44356 0.19100
C 	C 	0.84784 0.09425 0.43069 -0.00800
O 	O 	0.71494 0.03917 0.41123 -0.26600
H 	H 	0.68554 0.11833 0.42206 0.07100
O 	O 	0.88989 0.30123 0.45452 -0.27200
H 	H 	0.91896 0.22176 0.44336 0.07500
C 	C 	0.86936 0.08157 0.38825 0.13800
C 	C 	0.89404 0.04697 0.39120 -0.07700
C 	C 	0.89825 0.02564 0.43661 -0.03900
C 	C 	0.87596 0.03767 0.47882 0.15200
C 	C 	0.85040 0.07143 0.47558 -0.08800
O 	O 	0.86525 0.10194 0.34360 -0.26900
H 	H 	0.91103 0.03776 0.35853 0.06900
O 	O 	0.87902 0.01639 0.52321 -0.27200
H 	H 	0.83356 0.08079 0.50828 0.07600
H 	H 	0.90114 0.31253 0.49254 0.14200
H 	H 	0.90658 0.14439 0.34693 0.15200
H 	H 	0.92133 0.05107 0.54440 0.15100
H 	H 	0.70512 0.02696 0.37327 0.16400
C 	C 	0.20633 0.09753 0.50486 -0.09500
C 	C 	0.23245 0.11211 0.46018 -0.00700
C 	C 	0.19219 0.09352 0.41265 0.14300
C 	C 	0.12607 0.05952 0.40997 -0.07600
C 	C 	0.09986 0.04439 0.45457 -0.04800
C 	C 	0.14027 0.06411 0.50226 0.15500
C 	C 	0.30204 0.14741 0.46328 0.01400
O 	O 	0.21719 0.10678 0.36860 -0.27000
H 	H 	0.09508 0.04430 0.37314 0.06800
O 	O 	0.11506 0.04923 0.54610 -0.28000
H 	H 	0.23726 0.11211 0.54159 0.07600
C 	C 	0.34103 0.21325 0.46562 0.11900
C 	C 	0.40650 0.24594 0.46563 -0.02600
C 	C 	0.43373 0.21346 0.46416 -0.11400
C 	C 	0.39498 0.14778 0.46345 0.20300
C 	C 	0.32926 0.11498 0.46269 -0.10900
O 	O 	0.31482 0.24539 0.46621 -0.27300
H 	H 	0.43613 0.29660 0.46673 0.06500
O 	O 	0.42056 0.11510 0.46078 -0.28400
H 	H 	0.29933 0.06421 0.46099 0.08700
H 	H 	0.11456 0.08502 0.55983 0.15000
H 	H 	0.31730 0.25850 0.50305 0.15100
H 	H 	0.43283 0.11425 0.49692 0.17400
H 	H 	0.22692 0.14831 0.36480 0.15900
C 	C 	0.86237 0.75857 0.93821 -0.09100
C 	C 	0.85366 0.73676 0.98486 -0.00600
C 	C 	0.87793 0.78000 0.03133 0.13900
C 	C 	0.91177 0.84478 0.03091 -0.06800
C 	C 	0.92129 0.86669 0.98429 -0.05400
C 	C 	0.89640 0.82336 0.93778 0.16100
C 	C 	0.81939 0.66867 0.98496 0.01500
O 	O 	0.87048 0.75921 0.07724 -0.27100
H 	H 	0.93126 0.87806 0.06684 0.07000
O 	O 	0.90419 0.84417 0.89188 -0.27700
H 	H 	0.84317 0.72531 0.90229 0.08400
C 	C 	0.75306 0.62960 0.98393 0.12100
C 	C 	0.72074 0.56483 0.98342 -0.02700
C 	C 	0.75437 0.53868 0.98436 -0.10900
C 	C 	0.82095 0.57802 0.98596 0.20000
C 	C 	0.85308 0.64270 0.98587 -0.10700
O 	O 	0.71943 0.65432 0.98182 -0.26700
H 	H 	0.66943 0.53482 0.98183 0.06800
O 	O 	0.85457 0.55328 0.98721 -0.27400
H 	H 	0.90426 0.67273 0.98675 0.08600
H 	H 	0.94452 0.85210 0.88470 0.15900
H 	H 	0.71949 0.66697 0.01812 0.15100
H 	H 	0.86842 0.55685 0.02418 0.16000
H 	H 	0.83001 0.75089 0.08447 0.15100
C 	C 	0.87864 0.21785 0.01497 -0.11300
C 	C 	0.84560 0.15215 0.00890 0.01100
C 	C 	0.77851 0.11231 0.00330 0.12600
C 	C 	0.74476 0.13813 0.00180 -0.02900
C 	C 	0.77750 0.20360 0.00489 -0.11900
C 	C 	0.84494 0.24373 0.01338 0.19600
C 	C 	0.88081 0.12486 0.00456 -0.00200
O 	O 	0.74586 0.04810 0.99906 -0.26500
H 	H 	0.69294 0.10693 0.99601 0.06700
O 	O 	0.87786 0.30807 0.01865 -0.28200
H 	H 	0.93041 0.24876 0.01986 0.07800
C 	C 	0.89567 0.11448 0.95706 0.13000
C 	C 	0.92576 0.08515 0.95246 -0.06900
C 	C 	0.94175 0.06661 0.99515 -0.05800
C 	C 	0.92860 0.07872 0.04303 0.16200
C 	C 	0.89783 0.10739 0.04750 -0.09300
O 	O 	0.87851 0.13067 0.91467 -0.27600
H 	H 	0.93587 0.07603 0.91552 0.06700
O 	O 	0.94418 0.06094 0.08511 -0.27900
H 	H 	0.88669 0.11555 0.08420 0.08200
H 	H 	0.88599 0.32369 0.05599 0.16100
H 	H 	0.91577 0.17468 0.91447 0.14900
H 	H 	0.98825 0.09791 0.10145 0.15200
H 	H 	0.73581 0.03139 0.96173 0.15600
C 	C 	0.35890 0.18545 0.93372 -0.11600
C 	C 	0.32343 0.14343 0.96600 0.01400
C 	C 	0.35221 0.12501 0.99926 0.12100
C 	C 	0.41705 0.15141 0.00220 -0.02500
C 	C 	0.45375 0.19642 0.97210 -0.11900
C 	C 	0.42357 0.21121 0.93603 0.19600
C 	C 	0.25672 0.12015 0.96600 -0.01000
O 	O 	0.31672 0.08040 0.02830 -0.25900
H 	H 	0.43923 0.13839 0.02913 0.08100
O 	O 	0.45739 0.25159 0.90367 -0.28200
H 	H 	0.33651 0.19865 0.90719 0.07900
C 	C 	0.24133 0.14240 0.00768 0.13900
C 	C 	0.17722 0.11504 0.01014 -0.06900
C 	C 	0.12825 0.06669 0.97048 -0.05600
C 	C 	0.14401 0.04783 0.92696 0.15800
C 	C 	0.20805 0.07401 0.92519 -0.09300
O 	O 	0.28878 0.18916 0.04698 -0.27700
H 	H 	0.16550 0.13034 0.04346 0.06600
O 	O 	0.09673 0.00222 0.88703 -0.28100
H 	H 	0.21978 0.05766 0.89251 0.07800
H 	H 	0.45259 0.22413 0.87273 0.16300
H 	H 	0.30107 0.22943 0.03687 0.15200
H 	H 	0.09035 0.02561 0.86339 0.15200
H 	H 	0.32222 0.10472 0.06166 0.16600
