data_crystal

_cell_length_a 15.65813
_cell_length_b 15.73606
_cell_length_c 49.84528
_cell_angle_alpha 90.25241
_cell_angle_beta  90.25110
_cell_angle_gamma 119.45368

_symmetry_space_group_name_	'P 1'
_symmetry_space_group_name_H-M	'P 1'

loop_
_symmetry_equiv_pos_as_xyz
  x,y,z

loop_
_atom_site_label
_atom_site_type_symbol
_atom_site_fract_x
_atom_site_fract_y
_atom_site_fract_z
_atom_site_charge
C 	C 	0.15825 0.04685 0.74399 0.28800
C 	C 	0.14469 0.07318 0.81760 0.28000
Ni	Ni	0.02372 0.08982 0.77146 1.10600
Ni	Ni	0.03450 0.89652 0.78482 1.11200
O 	O 	0.08278 0.05972 0.74029 -0.39900
O 	O 	0.10056 0.97656 0.81730 -0.34600
O 	O 	0.14267 0.12399 0.79622 -0.36400
O 	O 	0.95540 0.11790 0.80112 -0.33900
O 	O 	0.15617 0.98730 0.76302 -0.32700
C 	C 	0.19003 0.50962 0.46623 0.29400
C 	C 	0.30064 0.77568 0.37655 0.33300
C 	C 	0.21494 0.46728 0.39092 0.32500
C 	C 	0.29779 0.82407 0.45219 0.30600
Ni	Ni	0.20641 0.63248 0.41918 1.11700
Ni	Ni	0.37025 0.56829 0.43132 1.12600
O 	O 	0.15559 0.56277 0.45508 -0.35400
O 	O 	0.24261 0.47879 0.45211 -0.34700
O 	O 	0.25442 0.68274 0.38116 -0.36300
O 	O 	0.36620 0.83541 0.39398 -0.34900
O 	O 	0.15751 0.49147 0.40414 -0.35600
O 	O 	0.30957 0.51386 0.39509 -0.36800
O 	O 	0.22821 0.76822 0.43430 -0.34700
O 	O 	0.33380 0.66738 0.43081 -0.71500
H 	H 	0.32981 0.67767 0.45018 0.15900
C 	C 	0.33201 0.48991 0.09438 0.32000
C 	C 	0.23622 0.49474 0.16631 0.31000
C 	C 	0.24980 0.68792 0.06616 0.32900
C 	C 	0.18297 0.73585 0.13781 0.30000
Ni	Ni	0.20995 0.57264 0.11474 1.12500
Ni	Ni	0.37384 0.79694 0.11344 1.12600
O 	O 	0.24153 0.60833 0.07639 -0.38100
O 	O 	0.24917 0.46893 0.10650 -0.35500
O 	O 	0.27284 0.80966 0.13452 -0.35400
O 	O 	0.14548 0.65731 0.12161 -0.35900
O 	O 	0.32265 0.51055 0.15711 -0.34500
O 	O 	0.17951 0.51925 0.15229 -0.37400
O 	O 	0.28545 0.76902 0.08054 -0.35400
O 	O 	0.33200 0.67114 0.12807 -0.71600
H 	H 	0.31004 0.68006 0.14580 0.16600
C 	C 	0.06294 0.88264 0.22506 0.28100
C 	C 	0.10648 0.15228 0.31629 0.32700
C 	C 	0.09320 0.87488 0.30090 0.32000
C 	C 	0.08325 0.19092 0.24330 0.30100
Ni	Ni	0.13222 0.04806 0.26857 1.10200
O 	O 	0.13550 0.94585 0.24118 -0.33200
O 	O 	0.16298 0.16199 0.29570 -0.36300
O 	O 	0.13274 0.96958 0.30140 -0.35000
O 	O 	0.13173 0.14227 0.23988 -0.37000
O 	O 	0.03144 0.18080 0.26544 -0.37100
C 	C 	0.20152 0.36145 0.23161 -0.02900
C 	C 	0.11148 0.27686 0.22667 -0.07100
C 	C 	0.05710 0.27038 0.20352 0.10700
C 	C 	0.09708 0.34387 0.18432 -0.02400
C 	C 	0.19070 0.42496 0.18823 -0.07600
C 	C 	0.24103 0.43591 0.21259 0.12800
H 	H 	0.24219 0.36795 0.24988 0.07700
H 	H 	0.05660 0.33647 0.16596 0.07300
Br	Br	0.92863 0.16123 0.19762 -0.18500
C 	C 	0.11744 0.71268 0.18360 -0.03200
C 	C 	0.12077 0.74817 0.15765 -0.07000
C 	C 	0.09566 0.82186 0.15381 0.13400
C 	C 	0.08066 0.86794 0.17599 -0.03400
C 	C 	0.08688 0.83870 0.20211 -0.05800
C 	C 	0.10211 0.75828 0.20583 0.12700
Br	Br	0.10515 0.71115 0.24104 -0.19300
H 	H 	0.13510 0.65491 0.18673 0.07500
Br	Br	0.08655 0.86368 0.11833 -0.17400
C 	C 	0.13314 0.29048 0.38087 -0.03500
C 	C 	0.17347 0.38633 0.37149 -0.08000
C 	C 	0.19317 0.40503 0.34396 0.12500
C 	C 	0.17525 0.32869 0.32627 -0.02900
C 	C 	0.13703 0.23307 0.33571 -0.08700
C 	C 	0.11605 0.21410 0.36324 0.12700
Br	Br	0.07041 0.08578 0.37748 -0.21100
H 	H 	0.11962 0.27600 0.40212 0.07400
Br	Br	0.24431 0.53454 0.33011 -0.17800
C 	C 	0.21829 0.82753 0.31096 -0.03000
C 	C 	0.13375 0.83027 0.31892 -0.06400
C 	C 	0.10896 0.82059 0.34627 0.11100
C 	C 	0.17153 0.81531 0.36537 -0.02100
C 	C 	0.25605 0.81291 0.35749 -0.08200
C 	C 	0.27958 0.81935 0.33011 0.13900
Br	Br	0.39664 0.81983 0.31859 -0.16600
H 	H 	0.23960 0.83775 0.29007 0.09300
H 	H 	0.15150 0.80751 0.38637 0.07000
Br	Br	0.98966 0.81453 0.35799 -0.13700
C 	C 	0.27389 0.86404 0.47576 -0.10200
C 	C 	0.24605 0.80639 0.49882 0.12400
N 	N 	0.14557 0.73479 0.50259 -0.02600
O 	O 	0.29184 0.93907 0.57488 -0.07600
O 	O 	0.10040 0.73923 0.52391 -0.09200
O 	O 	0.09507 0.67751 0.48286 -0.09100
C 	C 	0.08386 0.51739 0.53975 0.05400
C 	C 	0.05299 0.42564 0.49783 0.01200
C 	C 	0.15451 0.47136 0.49324 -0.07700
C 	C 	0.21744 0.51725 0.51509 0.11600
C 	C 	0.18498 0.55446 0.53592 -0.07500
H 	H 	0.00210 0.38083 0.48222 0.06700
N 	N 	0.30347 0.50803 0.51874 -0.02400
H 	H 	0.23767 0.60872 0.54951 0.09700
O 	O 	0.34664 0.52693 0.54208 -0.07900
O 	O 	0.32550 0.46159 0.50089 -0.07500
O 	O 	0.51158 0.49603 0.50105 -0.06800
O 	O 	0.41291 0.71653 0.56932 -0.08300
C 	C 	0.24004 0.14698 0.70382 -0.03800
C 	C 	0.24934 0.10860 0.72843 -0.07400
C 	C 	0.34454 0.14324 0.73950 0.12300
C 	C 	0.32266 0.21742 0.69033 0.12300
Br	Br	0.30504 0.26549 0.65666 -0.18800
H 	H 	0.16797 0.12225 0.69513 0.07400
Br	Br	0.36717 0.08629 0.77088 -0.20500
C 	C 	0.10801 0.53970 0.99934 0.04900
N 	N 	0.13452 0.52182 0.94163 -0.01800
C 	C 	0.05718 0.57095 0.01659 0.03600
C 	C 	0.10961 0.64348 0.03606 0.01000
C 	C 	0.21133 0.68246 0.03883 -0.08300
C 	C 	0.26233 0.67052 0.01716 0.13000
C 	C 	0.21090 0.59459 0.99850 -0.07000
H 	H 	0.06995 0.66013 0.05105 0.07200
N 	N 	0.36544 0.73572 0.01378 -0.02700
H 	H 	0.25120 0.57567 0.98434 0.10300
O 	O 	0.20198 0.51596 0.92794 -0.07400
O 	O 	0.12466 0.59895 0.93959 -0.08200
O 	O 	0.40091 0.76324 0.98985 -0.06200
O 	O 	0.42443 0.76478 0.03439 -0.08300
N 	N 	0.36965 0.01613 0.00574 -0.03700
O 	O 	0.33377 0.92275 0.00211 -0.05000
O 	O 	0.31566 0.05589 0.00056 -0.07000
C 	C 	0.33205 0.44065 0.06939 -0.08300
C 	C 	0.31067 0.47383 0.04571 0.12500
N 	N 	0.21122 0.43073 0.03665 -0.02300
O 	O 	0.18658 0.38441 0.01379 -0.09200
O 	O 	0.14308 0.42116 0.05319 -0.10100
O 	O 	0.39359 0.44986 0.96858 -0.10200
Br	Br	0.93301 0.29727 0.78861 -0.17100
C 	C 	0.31674 0.17959 0.83255 -0.02700
C 	C 	0.21747 0.12350 0.83915 -0.06300
C 	C 	0.19204 0.09306 0.86583 0.12800
C 	C 	0.26456 0.10513 0.88443 -0.02600
H 	H 	0.33726 0.20816 0.81247 0.09100
H 	H 	0.24385 0.08055 0.90487 0.08400
Br	Br	0.05940 0.04245 0.87762 -0.22000
Br	Br	0.98170 0.78103 0.87123 -0.14700
H 	H 	0.18908 0.34348 0.30504 0.07700
C 	C 	0.33046 0.96530 0.47976 0.08100
C 	C 	0.31137 0.83686 0.52072 -0.08800
H 	H 	0.34011 0.01429 0.46340 0.03900
C 	C 	0.08659 0.56242 0.58896 0.09400
N 	N 	0.15872 0.53412 0.59475 -0.02400
O 	O 	0.23919 0.59442 0.60730 -0.06200
O 	O 	0.13804 0.44414 0.59090 -0.07500
C 	C 	0.05434 0.44474 0.98438 0.00400
C 	C 	0.06418 0.43916 0.95627 0.03900
C 	C 	0.38698 0.52306 0.02735 -0.06400
Br	Br	0.36141 0.55323 0.22071 -0.19200
H 	H 	0.30093 0.78621 0.53664 0.08900
C 	C 	0.39970 0.40699 0.06759 0.00500
H 	H 	0.40707 0.36583 0.08394 0.07100
C 	C 	0.04805 0.55342 0.56266 -0.02000
O 	O 	0.31641 0.82512 0.59500 -0.07600
H 	H 	0.45508 0.96398 0.04398 0.11300
H 	H 	0.38082 0.56887 0.01233 0.09500
O 	O 	0.41601 0.55916 0.10357 -0.36100
O 	O 	0.43331 0.60304 0.95721 -0.07000
C 	C 	0.52415 0.17996 0.97629 0.30000
C 	C 	0.43713 0.19861 0.89952 0.31900
Ni	Ni	0.54301 0.34868 0.94232 1.12300
O 	O 	0.47717 0.22562 0.96735 -0.33200
O 	O 	0.55801 0.13818 0.95960 -0.34900
O 	O 	0.44576 0.27644 0.91151 -0.34700
O 	O 	0.46654 0.14303 0.91182 -0.34400
C 	C 	0.49843 0.27616 0.68160 0.32500
C 	C 	0.55247 0.38690 0.61110 0.30900
Ni	Ni	0.55298 0.20708 0.63430 1.12400
O 	O 	0.54879 0.36645 0.67259 -0.35000
O 	O 	0.49915 0.29436 0.61959 -0.34800
O 	O 	0.51361 0.20777 0.67207 -0.38200
C 	C 	0.52713 0.69660 0.39316 0.32500
C 	C 	0.50867 0.72127 0.46776 0.29900
Ni	Ni	0.43749 0.79209 0.42052 1.13200
O 	O 	0.47601 0.74021 0.38936 -0.36500
O 	O 	0.44487 0.62697 0.46512 -0.35600
O 	O 	0.53330 0.78265 0.44709 -0.33800
O 	O 	0.39150 0.85195 0.44830 -0.36600
O 	O 	0.50254 0.63058 0.41221 -0.35000
C 	C 	0.49177 0.82339 0.16632 0.30900
C 	C 	0.55191 0.79860 0.09939 0.32700
Ni	Ni	0.42831 0.63753 0.13782 1.12100
O 	O 	0.44904 0.72844 0.16969 -0.35500
O 	O 	0.47835 0.86301 0.14389 -0.35200
O 	O 	0.55576 0.75456 0.12136 -0.35500
O 	O 	0.46675 0.77843 0.08983 -0.37700
C 	C 	0.57705 0.88222 0.18348 -0.06700
C 	C 	0.56191 0.89357 0.21075 0.13300
Br	Br	0.44351 0.89056 0.22215 -0.17300
C 	C 	0.62044 0.73311 0.37883 -0.07000
H 	H 	0.57412 0.59833 0.35720 0.08200
C 	C 	0.56651 0.01542 0.53454 -0.09900
C 	C 	0.46767 0.96485 0.54259 0.05100
C 	C 	0.44657 0.94836 0.57020 0.05700
C 	C 	0.52373 0.98848 0.58888 0.03500
C 	C 	0.38766 0.93440 0.52220 0.06600
N 	N 	0.34739 0.90059 0.57945 -0.01900
H 	H 	0.50722 0.97485 0.60997 0.07800
H 	H 	0.58440 0.01943 0.51344 0.09100
C 	C 	0.38997 0.00123 0.50288 -0.00700
N 	N 	0.45246 0.10423 0.50656 -0.00800
O 	O 	0.50729 0.15709 0.48699 -0.08000
O 	O 	0.45163 0.14577 0.52911 -0.08500
C 	C 	0.53658 0.59060 0.58508 -0.06500
C 	C 	0.55880 0.58720 0.55793 0.03700
C 	C 	0.54709 0.49748 0.54735 0.07300
C 	C 	0.52317 0.41852 0.56468 -0.00000
C 	C 	0.51006 0.42721 0.59211 -0.07100
C 	C 	0.50036 0.50702 0.60087 0.13600
C 	C 	0.58957 0.67546 0.54049 0.03600
N 	N 	0.56554 0.48809 0.51965 -0.01800
H 	H 	0.52469 0.35445 0.55723 0.08000
N 	N 	0.46702 0.50886 0.62740 -0.02100
H 	H 	0.55194 0.65858 0.59444 0.10600
C 	C 	0.53436 0.72469 0.53988 0.06700
C 	C 	0.52282 0.76199 0.51553 -0.00200
C 	C 	0.56768 0.75246 0.49240 -0.07200
C 	C 	0.64559 0.73220 0.49539 0.13700
C 	C 	0.65811 0.69607 0.51998 -0.06300
N 	N 	0.50540 0.75152 0.56414 -0.02100
H 	H 	0.47201 0.78985 0.51412 0.05500
O 	O 	0.52984 0.54483 0.64710 -0.07900
O 	O 	0.37688 0.48890 0.63104 -0.05100
O 	O 	0.62894 0.46083 0.51323 -0.06400
O 	O 	0.57107 0.82103 0.57910 -0.07300
C 	C 	0.42680 0.21542 0.72603 -0.02900
C 	C 	0.41718 0.24768 0.70054 -0.07600
H 	H 	0.49947 0.23861 0.73409 0.08100
C 	C 	0.66169 0.97734 0.04927 -0.03900
C 	C 	0.64164 0.04496 0.06228 0.00600
C 	C 	0.64475 0.04950 0.09052 0.03800
C 	C 	0.65018 0.97597 0.10492 0.02000
C 	C 	0.63636 0.89173 0.09132 -0.09400
C 	C 	0.66231 0.90170 0.06407 0.13300
C 	C 	0.59722 0.09344 0.04677 0.04400
N 	N 	0.63596 0.12429 0.10455 -0.01300
H 	H 	0.64854 0.97732 0.12653 0.07200
N 	N 	0.67568 0.82811 0.05077 -0.02300
H 	H 	0.66885 0.97896 0.02764 0.10600
C 	C 	0.65303 0.19193 0.03934 0.07000
C 	C 	0.62011 0.22753 0.01828 0.00300
C 	C 	0.53086 0.16598 0.00512 -0.07700
C 	C 	0.46698 0.07443 0.01634 0.14100
C 	C 	0.50134 0.03749 0.03673 -0.10800
O 	O 	0.64883 0.80526 0.02584 -0.07300
O 	O 	0.55409 0.12657 0.10351 -0.09200
O 	O 	0.70587 0.18348 0.12063 -0.07000
C 	C 	0.46813 0.50744 0.02787 0.03400
C 	C 	0.46755 0.43921 0.04648 0.06000
C 	C 	0.55604 0.56641 0.01068 0.03200
N 	N 	0.53017 0.39794 0.04287 -0.01600
C 	C 	0.54717 0.57930 0.98278 0.06200
N 	N 	0.45326 0.54341 0.97023 -0.02100
O 	O 	0.57911 0.39110 0.06311 -0.07500
O 	O 	0.53244 0.36050 0.01979 -0.09000
C 	C 	0.36418 0.15744 0.87761 -0.06700
C 	C 	0.38997 0.19610 0.85147 0.13100
Br	Br	0.52463 0.27421 0.84137 -0.17100
Br	Br	0.50001 0.51007 0.85369 -0.17800
Br	Br	0.68885 0.91658 0.40817 -0.19700
H 	H 	0.07075 0.58901 0.63026 0.09800
Br	Br	0.05078 0.59234 0.68670 -0.22900
C 	C 	0.01725 0.44539 0.52158 0.03500
H 	H 	0.71356 0.67425 0.52198 0.10500
C 	C 	0.63107 0.61326 0.96673 -0.00700
H 	H 	0.62628 0.62567 0.94558 0.08200
Ni	Ni	0.60946 0.19068 0.92287 1.13400
O 	O 	0.59085 0.47592 0.91901 -0.34700
O 	O 	0.64093 0.43275 0.97166 -0.36600
O 	O 	0.64171 0.31845 0.93341 -0.71100
H 	H 	0.66393 0.31557 0.95166 0.16000
C 	C 	0.65843 0.15486 0.59630 0.32000
C 	C 	0.63812 0.10548 0.66646 0.33600
Ni	Ni	0.68557 0.42240 0.65636 1.12600
O 	O 	0.60241 0.19502 0.59835 -0.37700
O 	O 	0.57626 0.09474 0.64693 -0.37000
O 	O 	0.63503 0.45064 0.62307 -0.36300
O 	O 	0.68167 0.31443 0.63827 -0.71600
C 	C 	0.63068 0.90109 0.23002 -0.01600
C 	C 	0.66719 0.89117 0.17566 -0.03200
H 	H 	0.61804 0.90853 0.25105 0.08800
H 	H 	0.67986 0.88224 0.15481 0.08300
C 	C 	0.62701 0.67557 0.35828 -0.02200
C 	C 	0.69068 0.83366 0.38017 0.13800
C 	C 	0.69419 0.71917 0.33742 0.13600
C 	C 	0.61675 0.06249 0.58096 -0.10100
C 	C 	0.64162 0.06535 0.55374 0.14200
N 	N 	0.70392 0.73715 0.47280 -0.02500
O 	O 	0.74713 0.81651 0.45873 -0.04500
O 	O 	0.71681 0.66366 0.46687 -0.05900
Br	Br	0.70908 0.96622 0.63147 -0.17300
N 	N 	0.74018 0.25701 0.05390 -0.01400
H 	H 	0.66800 0.30001 0.01058 0.07600
O 	O 	0.71591 0.78470 0.06354 -0.06900
O 	O 	0.74448 0.33088 0.06689 -0.05300
C 	C 	0.70927 0.60255 0.97635 -0.07500
C 	C 	0.65118 0.60010 0.02140 -0.05700
H 	H 	0.66240 0.60356 0.04291 0.10200
C 	C 	0.04243 0.58453 0.61023 -0.05800
C 	C 	0.64084 0.02231 0.67858 -0.12700
H 	H 	0.69507 0.33950 0.61982 0.17700
C 	C 	0.64185 0.49099 0.89677 0.32700
C 	C 	0.71383 0.51806 0.96534 0.32000
O 	O 	0.67933 0.43574 0.89115 -0.37100
O 	O 	0.74840 0.21370 0.93296 -0.33400
O 	O 	0.76686 0.52849 0.94339 -0.35000
O 	O 	0.64114 0.22469 0.88471 -0.36400
O 	O 	0.73428 0.17937 0.61330 -0.32900
O 	O 	0.72398 0.38212 0.69027 -0.38300
O 	O 	0.70653 0.19167 0.67334 -0.37400
C 	C 	0.71574 0.89916 0.22223 -0.07100
C 	C 	0.73470 0.89618 0.19486 0.13800
C 	C 	0.75957 0.87630 0.35986 -0.01900
C 	C 	0.75865 0.82096 0.33781 -0.06600
Br	Br	0.68989 0.63991 0.30745 -0.19800
H 	H 	0.81171 0.95381 0.36073 0.09800
N 	N 	0.74205 0.12009 0.54551 -0.02600
O 	O 	0.76333 0.15522 0.52136 -0.06500
C 	C 	0.62543 0.01365 0.70619 -0.00600
C 	C 	0.71037 0.99860 0.66852 0.19000
H 	H 	0.56362 0.01825 0.71426 0.07100
Br	Br	0.74719 0.54733 0.78200 -0.19300
H 	H 	0.76794 0.40767 0.74688 0.08600
O 	O 	0.81493 0.24230 0.05436 -0.07000
C 	C 	0.72969 0.62138 0.00388 0.13400
Br	Br	0.64924 0.03984 0.88966 -0.25000
C 	C 	0.68309 0.58471 0.88301 -0.08100
C 	C 	0.63894 0.58931 0.85898 0.13800
C 	C 	0.69682 0.64776 0.83807 -0.02500
H 	H 	0.66189 0.64981 0.81944 0.08500
C 	C 	0.78477 0.00407 0.68557 -0.11200
Ni	Ni	0.76197 0.41844 0.91874 1.12700
Ni	Ni	0.78594 0.28895 0.64434 1.12200
N 	N 	0.82739 0.65659 0.01406 -0.02200
O 	O 	0.84211 0.64923 0.03946 -0.05400
H 	H 	0.72603 0.99031 0.84208 0.11000
H 	H 	0.84071 0.98954 0.67765 0.11700
C 	C 	0.72757 0.11550 0.86003 0.15400
C 	C 	0.73206 0.26791 0.87746 0.33600
C 	C 	0.81543 0.40904 0.69436 0.32400
O 	O 	0.82966 0.50855 0.64355 -0.33800
C 	C 	0.82332 0.87045 0.31511 0.33200
C 	C 	0.79291 0.92128 0.24216 0.33400
O 	O 	0.79707 0.84746 0.25432 -0.35100
O 	O 	0.78089 0.55763 0.55564 -0.08000
C 	C 	0.70456 0.03316 0.72321 0.09900
C 	C 	0.81798 0.47890 0.73880 -0.02300
C 	C 	0.82083 0.56225 0.75007 0.12400
O 	O 	0.75883 0.13972 0.98833 -0.08800
O 	O 	0.81991 0.94370 0.30344 -0.35300
C 	C 	0.75261 0.06802 0.84046 -0.06900
C 	C 	0.82142 0.29187 0.94568 0.29900
O 	O 	0.82708 0.37855 0.94603 -0.36500
O 	O 	0.81193 0.12926 0.56155 -0.05700
O 	O 	0.81136 0.63847 0.59494 -0.07500
C 	C 	0.78590 0.02729 0.71292 -0.03600
C 	C 	0.76433 0.21763 0.85847 -0.08700
C 	C 	0.78317 0.65161 0.88733 -0.03100
O 	O 	0.79721 0.34598 0.89065 -0.36500
O 	O 	0.86279 0.38916 0.67577 -0.32700
O 	O 	0.81553 0.75036 0.76097 -0.34000
Br	Br	0.85036 0.89424 0.18323 -0.18000
C 	C 	0.86814 0.48550 0.71491 -0.08300
C 	C 	0.79923 0.70585 0.84121 -0.05900
N 	N 	0.83506 0.59342 0.57704 -0.02000
O 	O 	0.90221 0.70230 0.99827 -0.04700
C 	C 	0.87113 0.48934 0.62248 0.28900
O 	O 	0.86453 0.40289 0.61910 -0.34100
Ni	Ni	0.82361 0.88190 0.77456 1.11900
O 	O 	0.80893 0.82990 0.81272 -0.36400
O 	O 	0.79918 0.99610 0.78806 -0.31400
O 	O 	0.88337 0.84103 0.30678 -0.35000
H 	H 	0.81730 0.65216 0.90629 0.07700
O 	O 	0.84178 0.01221 0.25137 -0.38600
C 	C 	0.85295 0.78212 0.82121 0.31400
C 	C 	0.85563 0.01751 0.73124 0.27400
C 	C 	0.89049 0.74604 0.75029 0.31300
O 	O 	0.84239 0.93062 0.73579 -0.34100
O 	O 	0.85053 0.38182 0.50910 -0.06300
O 	O 	0.88482 0.34967 0.55048 -0.06200
Br	Br	0.71242 0.09672 0.75652 -0.18700
C 	C 	0.87883 0.65439 0.73802 -0.07000
N 	N 	0.84998 0.18975 0.99606 -0.02100
O 	O 	0.88308 0.15478 0.01445 -0.06800
O 	O 	0.90069 0.49465 0.03688 -0.06200
C 	C 	0.81691 0.12094 0.81991 -0.03800
C 	C 	0.84223 0.70772 0.86615 0.12600
Ni	Ni	0.92173 0.84957 0.26844 1.13500
C 	C 	0.90874 0.28946 0.95520 -0.07100
O 	O 	0.90892 0.51690 0.99221 -0.06800
C 	C 	0.82618 0.27009 0.83736 -0.01300
C 	C 	0.85890 0.07348 0.80333 0.27800
Ni	Ni	0.93225 0.05111 0.28286 1.12400
C 	C 	0.92044 0.58322 0.58093 0.09800
N 	N 	0.91451 0.39156 0.52733 -0.00300
C 	C 	0.94111 0.57811 0.70683 0.15600
C 	C 	0.94143 0.66159 0.71686 -0.04400
C 	C 	0.91573 0.27913 0.98294 0.11900
C 	C 	0.94702 0.56918 0.60682 -0.01500
C 	C 	0.85226 0.22254 0.81802 0.12600
H 	H 	0.85271 0.34776 0.83569 0.08400
O 	O 	0.92816 0.78353 0.80777 -0.32900
N 	N 	0.95251 0.52633 0.01519 -0.00100
O 	O 	0.91969 0.09249 0.74594 -0.32200
H 	H 	0.94549 0.57605 0.53854 0.09800
O 	O 	0.96913 0.84664 0.23114 -0.32800
C 	C 	0.97045 0.57365 0.55867 -0.00400
O 	O 	0.01529 0.08229 0.31627 -0.39000
O 	O 	0.99495 0.98709 0.26664 -0.69700
O 	O 	0.97711 0.82311 0.75056 -0.35900
C 	C 	0.99605 0.35467 0.94232 0.03200
H 	H 	0.99945 0.35282 0.92062 0.07500
H 	H 	0.99380 0.73253 0.70910 0.09700
H 	H 	0.95309 0.96906 0.80237 0.18200
H 	H 	0.98585 0.99589 0.24747 0.18300
O 	O 	0.95679 0.95825 0.78305 -0.69700
O 	O 	0.03006 0.82272 0.28185 -0.35500
H 	H 	0.06485 0.92693 0.17288 0.08800
C 	C 	0.98602 0.35957 0.99787 -0.02200
H 	H 	0.98428 0.35785 0.01958 0.10300
