data_crystal

_cell_length_a 18.60645
_cell_length_b 18.91487
_cell_length_c 26.44769
_cell_angle_alpha 95.41154
_cell_angle_beta  95.41195
_cell_angle_gamma 126.42118

_symmetry_space_group_name_	'P 1'
_symmetry_space_group_name_H-M	'P 1'

loop_
_symmetry_equiv_pos_as_xyz
  x,y,z

loop_
_atom_site_label
_atom_site_type_symbol
_atom_site_fract_x
_atom_site_fract_y
_atom_site_fract_z
_atom_site_charge
C 	C 	0.95952 0.04395 0.00951 -0.00200
C 	C 	0.05090 0.08859 0.00499 0.05800
C 	C 	0.08858 0.04264 0.00474 0.00200
C 	C 	0.03395 0.95144 0.00697 0.06400
C 	C 	0.94255 0.90657 0.01078 0.00900
C 	C 	0.90559 0.95296 0.01237 0.03800
H 	H 	0.09214 0.15832 0.00125 0.10200
H 	H 	0.06214 0.91511 0.00477 0.09900
H 	H 	0.83420 0.91765 0.01411 0.10200
C 	C 	0.91203 0.00416 0.46086 -0.00600
C 	C 	0.00715 0.05823 0.46862 0.06200
C 	C 	0.05240 0.02031 0.47372 0.02300
C 	C 	0.00303 0.92849 0.47267 0.06500
C 	C 	0.90821 0.87382 0.46634 0.00600
C 	C 	0.86214 0.91146 0.45993 0.04200
H 	H 	0.04583 0.12957 0.46959 0.11900
H 	H 	0.03836 0.89918 0.47569 0.10400
H 	H 	0.78855 0.86918 0.45408 0.09900
Cu	Cu	0.62238 0.20731 0.00221 0.93600
Cu	Cu	0.70640 0.22380 0.89625 0.93500
Cu	Cu	0.67941 0.35485 0.93949 0.91800
Cu	Cu	0.61216 0.36421 0.03650 0.91300
C 	C 	0.63158 0.26260 0.10939 0.28700
O 	O 	0.48732 0.14644 0.99615 -0.30700
C 	C 	0.66108 0.30311 0.82694 0.28800
O 	O 	0.69208 0.34623 0.01081 -0.64200
O 	O 	0.61798 0.22329 0.92924 -0.62400
O 	O 	0.68376 0.14946 0.00105 -0.31800
O 	O 	0.78678 0.24836 0.95643 -0.36400
O 	O 	0.59021 0.29664 0.09414 -0.34600
O 	O 	0.74499 0.48275 0.95493 -0.30900
C 	C 	0.72838 0.52469 0.98895 0.31300
C 	C 	0.45139 0.18403 0.97897 0.30400
O 	O 	0.50511 0.26693 0.97239 -0.32200
O 	O 	0.66160 0.48097 0.01489 -0.33300
O 	O 	0.64414 0.21622 0.07576 -0.33100
C 	C 	0.76111 0.18678 0.98468 0.31100
O 	O 	0.68882 0.36738 0.86651 -0.31100
O 	O 	0.65384 0.23117 0.83364 -0.33900
H 	H 	0.75544 0.38605 0.03031 0.18800
H 	H 	0.55641 0.18661 0.90754 0.23600
Cu	Cu	0.74813 0.33869 0.43466 0.93500
Cu	Cu	0.78737 0.30570 0.55507 0.93500
Cu	Cu	0.61855 0.30151 0.50885 0.92500
Cu	Cu	0.57478 0.33326 0.40557 0.93900
C 	C 	0.66155 0.29866 0.32777 0.29400
O 	O 	0.80269 0.46982 0.43258 -0.29400
C 	C 	0.67331 0.32029 0.61474 0.27900
O 	O 	0.60873 0.26917 0.43637 -0.63300
O 	O 	0.75032 0.36023 0.51042 -0.61500
O 	O 	0.79775 0.26805 0.43029 -0.31100
O 	O 	0.86515 0.30596 0.51472 -0.33600
O 	O 	0.62475 0.33774 0.34154 -0.28300
O 	O 	0.49005 0.23637 0.50650 -0.33400
C 	C 	0.43404 0.23064 0.46885 0.30900
C 	C 	0.76248 0.50450 0.44811 0.29400
O 	O 	0.68164 0.45297 0.45987 -0.34400
O 	O 	0.46451 0.28749 0.43663 -0.29600
O 	O 	0.72356 0.30420 0.36066 -0.31500
C 	C 	0.83000 0.25130 0.47006 0.29800
O 	O 	0.63899 0.34477 0.58154 -0.33400
O 	O 	0.69557 0.26930 0.59780 -0.33500
H 	H 	0.56784 0.20384 0.42308 0.22400
H 	H 	0.78670 0.42483 0.52497 0.17700
C 	C 	0.65476 0.31947 0.77393 -0.02000
C 	C 	0.73169 0.39330 0.75965 0.01200
C 	C 	0.73621 0.39746 0.70731 0.02200
C 	C 	0.66270 0.32772 0.66891 -0.03300
C 	C 	0.58232 0.25879 0.68327 0.01800
C 	C 	0.57786 0.25450 0.73558 0.02600
H 	H 	0.78999 0.44485 0.78916 0.09200
H 	H 	0.52452 0.20669 0.65368 0.08800
C 	C 	0.49438 0.18313 0.74965 0.15100
C 	C 	0.81744 0.47217 0.69331 0.11600
N 	N 	0.42753 0.12600 0.76097 -0.02800
N 	N 	0.88250 0.53201 0.68207 -0.07100
C 	C 	0.65411 0.27294 0.27203 -0.02300
C 	C 	0.73307 0.31536 0.25042 0.01800
C 	C 	0.72657 0.30641 0.19661 0.02200
C 	C 	0.64042 0.25523 0.16412 -0.03600
C 	C 	0.56176 0.20653 0.18556 0.01600
C 	C 	0.56817 0.21460 0.23925 0.02600
H 	H 	0.79943 0.35857 0.27549 0.09700
H 	H 	0.49540 0.16478 0.16044 0.09300
C 	C 	0.48633 0.16250 0.26039 0.13900
C 	C 	0.80853 0.35221 0.17513 0.12400
N 	N 	0.42065 0.12057 0.27720 -0.01900
N 	N 	0.87415 0.38882 0.15787 -0.07200
C 	C 	0.82488 0.72210 0.41341 0.00300
C 	C 	0.85758 0.77602 0.46258 0.10800
C 	C 	0.85941 0.74017 0.50692 -0.13300
C 	C 	0.83847 0.65469 0.50075 0.08100
C 	C 	0.80681 0.60096 0.45158 -0.00600
C 	C 	0.79997 0.63491 0.40725 -0.06000
C 	C 	0.76100 0.57662 0.35375 0.77400
H 	H 	0.82191 0.74950 0.37978 0.12600
H 	H 	0.84349 0.62835 0.53446 0.07800
C 	C 	0.88772 0.79433 0.56086 0.79300
F 	F 	0.77237 0.62539 0.31528 -0.39700
F 	F 	0.66898 0.51009 0.34998 -0.43500
F 	F 	0.80392 0.53817 0.34503 -0.42500
F 	F 	0.85271 0.84156 0.56336 -0.40200
F 	F 	0.98151 0.85361 0.57354 -0.39600
F 	F 	0.85605 0.73942 0.59718 -0.40300
C 	C 	0.82892 0.05644 0.49670 0.01200
C 	C 	0.86547 0.04590 0.45524 0.11000
C 	C 	0.87360 0.09075 0.41360 -0.13600
C 	C 	0.86363 0.15913 0.41948 0.08700
C 	C 	0.83369 0.17462 0.46297 -0.00700
C 	C 	0.80704 0.11621 0.49915 -0.06500
C 	C 	0.75619 0.11732 0.54043 0.76800
H 	H 	0.82044 0.02041 0.52794 0.12500
H 	H 	0.88011 0.20084 0.39049 0.09500
C 	C 	0.89722 0.06934 0.36398 0.78500
F 	F 	0.71045 0.03776 0.55873 -0.40000
F 	F 	0.69229 0.12796 0.52062 -0.49000
F 	F 	0.81706 0.18646 0.58143 -0.46300
F 	F 	0.85987 0.97963 0.35284 -0.39800
F 	F 	0.99061 0.12039 0.36882 -0.42000
F 	F 	0.86350 0.08808 0.32273 -0.39400
C 	C 	0.30832 0.18142 0.51651 0.08500
C 	C 	0.33647 0.17399 0.47023 -0.00000
C 	C 	0.27108 0.11328 0.42565 -0.05500
C 	C 	0.17856 0.06785 0.42708 0.01300
C 	C 	0.15037 0.07450 0.47338 0.10900
C 	C 	0.21549 0.12969 0.51906 -0.12400
C 	C 	0.18621 0.13564 0.57003 0.79100
H 	H 	0.35901 0.22823 0.55035 0.09700
H 	H 	0.12787 0.02595 0.39229 0.13300
C 	C 	0.29948 0.09855 0.37614 0.77300
F 	F 	0.25931 0.18363 0.61098 -0.39600
F 	F 	0.12479 0.05091 0.58026 -0.37800
F 	F 	0.14587 0.17772 0.56745 -0.40300
F 	F 	0.36830 0.09048 0.38691 -0.44300
F 	F 	0.32951 0.16998 0.35126 -0.40600
F 	F 	0.22761 0.02109 0.34287 -0.38600
C 	C 	0.83087 0.75473 0.95822 0.02000
C 	C 	0.88272 0.80876 0.00663 0.08400
C 	C 	0.87916 0.76913 0.05004 -0.11300
C 	C 	0.82980 0.67586 0.04291 0.06200
C 	C 	0.77908 0.62187 0.99433 0.00900
C 	C 	0.77557 0.66111 0.95203 -0.06300
C 	C 	0.71583 0.60395 0.89986 0.77600
H 	H 	0.83434 0.78600 0.92529 0.10600
H 	H 	0.83133 0.64494 0.07506 0.08700
C 	C 	0.93221 0.82619 0.10325 0.76700
F 	F 	0.70443 0.65283 0.86881 -0.39600
F 	F 	0.63040 0.53271 0.90598 -0.40600
F 	F 	0.75573 0.57184 0.87478 -0.41900
F 	F 	0.91952 0.89065 0.11412 -0.36600
F 	F 	0.02366 0.86743 0.10487 -0.35400
F 	F 	0.90447 0.77513 0.14157 -0.38900
C 	C 	0.87420 0.07902 0.95408 0.02100
C 	C 	0.91646 0.08842 0.00358 0.08300
C 	C 	0.90803 0.13064 0.04725 -0.11500
C 	C 	0.85520 0.16092 0.04026 0.06300
C 	C 	0.81119 0.14949 0.99078 0.00600
C 	C 	0.81763 0.10486 0.94734 -0.07000
C 	C 	0.76591 0.08617 0.89365 0.76900
H 	H 	0.88293 0.04836 0.92091 0.10200
H 	H 	0.84860 0.19398 0.07322 0.09200
C 	C 	0.95463 0.14266 0.10114 0.76700
F 	F 	0.76160 0.02225 0.86028 -0.40100
F 	F 	0.80933 0.16395 0.87370 -0.46500
F 	F 	0.67754 0.05443 0.89552 -0.45800
F 	F 	0.04677 0.18806 0.10254 -0.35200
F 	F 	0.91826 0.05989 0.11408 -0.37700
F 	F 	0.94385 0.19103 0.13806 -0.39800
C 	C 	0.20286 0.08690 0.94862 -0.00100
C 	C 	0.18380 0.08822 0.99863 0.12600
C 	C 	0.25341 0.12273 0.04215 -0.13700
C 	C 	0.33902 0.14857 0.03456 0.07000
C 	C 	0.35782 0.14620 0.98462 0.00100
C 	C 	0.28938 0.11483 0.94105 -0.05400
C 	C 	0.30863 0.11139 0.88669 0.77100
H 	H 	0.14931 0.06178 0.91567 0.11700
H 	H 	0.39205 0.17221 0.06754 0.07900
C 	C 	0.23596 0.13034 0.09664 0.79300
F 	F 	0.23043 0.06785 0.84951 -0.39200
F 	F 	0.34538 0.06614 0.88073 -0.42100
F 	F 	0.36967 0.19745 0.87818 -0.40800
F 	F 	0.17776 0.04592 0.10791 -0.37100
F 	F 	0.19718 0.17383 0.10082 -0.37200
F 	F 	0.31556 0.17832 0.13313 -0.40400
