data_crystal

_cell_length_a 18.57640
_cell_length_b 18.98465
_cell_length_c 26.65148
_cell_angle_alpha 95.42508
_cell_angle_beta  95.42436
_cell_angle_gamma 126.41283

_symmetry_space_group_name_	'P 1'
_symmetry_space_group_name_H-M	'P 1'

loop_
_symmetry_equiv_pos_as_xyz
  x,y,z

loop_
_atom_site_label
_atom_site_type_symbol
_atom_site_fract_x
_atom_site_fract_y
_atom_site_fract_z
_atom_site_charge
C 	C 	0.98921 0.08209 0.99421 0.03700
C 	C 	0.08501 0.13747 0.00143 -0.04200
C 	C 	0.13074 0.09919 0.99981 0.03800
C 	C 	0.08071 0.00650 0.99022 -0.10000
C 	C 	0.98596 0.95170 0.98449 0.07500
C 	C 	0.94011 0.98929 0.98579 -0.06900
H 	H 	0.12344 0.20930 0.00853 0.06200
H 	H 	0.11588 0.97698 0.98894 0.07300
H 	H 	0.86649 0.94653 0.98136 0.06600
C 	C 	0.86214 0.94565 0.44885 0.05500
C 	C 	0.81162 0.85242 0.44470 -0.08100
C 	C 	0.85725 0.81381 0.44687 0.06800
C 	C 	0.95238 0.86850 0.45439 -0.08000
C 	C 	0.00219 0.96048 0.45764 0.07700
C 	C 	0.95730 0.99904 0.45488 -0.07200
H 	H 	0.73805 0.81066 0.44002 0.06400
H 	H 	0.98768 0.83913 0.45669 0.07800
H 	H 	0.99634 0.07055 0.45766 0.05900
Cu	Cu	0.67514 0.27258 0.02160 0.92800
Cu	Cu	0.69410 0.22160 0.90248 0.89000
Cu	Cu	0.70658 0.39556 0.94514 0.91000
Cu	Cu	0.69904 0.45265 0.05465 0.90900
C 	C 	0.70491 0.34830 0.12808 0.32200
O 	O 	0.54484 0.22161 0.02798 -0.35200
C 	C 	0.68521 0.33274 0.84044 0.33300
O 	O 	0.74933 0.40916 0.01645 -0.63000
O 	O 	0.64561 0.26663 0.94648 -0.63300
O 	O 	0.74457 0.22157 0.02386 -0.33800
O 	O 	0.68305 0.14047 0.94251 -0.39800
O 	O 	0.73367 0.42775 0.11970 -0.35800
O 	O 	0.77473 0.52159 0.94540 -0.36200
C 	C 	0.78519 0.57820 0.98364 0.30300
C 	C 	0.51266 0.26652 0.02079 0.31200
O 	O 	0.56509 0.34640 0.01002 -0.37700
O 	O 	0.73050 0.55020 0.01720 -0.37000
O 	O 	0.71018 0.29549 0.09522 -0.33600
C 	C 	0.74153 0.17046 0.98533 0.29200
O 	O 	0.66404 0.37234 0.87199 -0.35900
O 	O 	0.73545 0.30994 0.85872 -0.40900
H 	H 	0.81645 0.44538 0.02580 0.17500
H 	H 	0.57915 0.23159 0.93436 0.17000
Cu	Cu	0.70675 0.28846 0.43645 0.92600
Cu	Cu	0.71770 0.23533 0.54919 0.87700
Cu	Cu	0.57510 0.24962 0.51106 0.90200
Cu	Cu	0.52181 0.26241 0.40129 0.90800
C 	C 	0.63456 0.26462 0.33019 0.31600
O 	O 	0.75761 0.41702 0.43257 -0.35300
C 	C 	0.65264 0.29322 0.62246 0.32600
O 	O 	0.56575 0.21261 0.43945 -0.63200
O 	O 	0.70740 0.31150 0.51095 -0.63700
O 	O 	0.76633 0.22706 0.43848 -0.34300
O 	O 	0.67880 0.14341 0.49365 -0.43500
O 	O 	0.55149 0.23126 0.33729 -0.36100
O 	O 	0.44448 0.17975 0.50719 -0.35400
C 	C 	0.38854 0.17248 0.46891 0.30900
C 	C 	0.70964 0.44643 0.43910 0.30800
O 	O 	0.62696 0.39292 0.44811 -0.36600
O 	O 	0.41931 0.22839 0.43675 -0.38100
O 	O 	0.68865 0.25866 0.36254 -0.33400
C 	C 	0.73290 0.15751 0.46127 0.30600
O 	O 	0.58704 0.27610 0.58646 -0.35200
O 	O 	0.72342 0.29955 0.61082 -0.39900
H 	H 	0.53009 0.14726 0.42886 0.17300
H 	H 	0.74626 0.37510 0.52773 0.18800
C 	C 	0.59519 0.24440 0.75313 0.10100
C 	C 	0.66568 0.32697 0.78461 -0.11400
C 	C 	0.72205 0.40190 0.76222 0.10700
C 	C 	0.71256 0.39241 0.70838 0.10400
C 	C 	0.64783 0.30782 0.67706 -0.10500
C 	C 	0.58632 0.23472 0.69936 0.10000
Br	Br	0.49226 0.12057 0.65630 -0.20100
Br	Br	0.51155 0.14445 0.78387 -0.24000
Br	Br	0.78737 0.49508 0.67739 -0.19600
Br	Br	0.81364 0.51678 0.80529 -0.18900
C 	C 	0.64080 0.35033 0.20654 0.10400
C 	C 	0.69052 0.32930 0.18065 -0.10000
C 	C 	0.72631 0.29074 0.20550 0.10400
C 	C 	0.70068 0.26163 0.25182 0.10500
C 	C 	0.65851 0.29024 0.27977 -0.10200
C 	C 	0.63371 0.33956 0.25776 0.10300
Br	Br	0.59515 0.39700 0.29840 -0.23600
Br	Br	0.57594 0.38678 0.17094 -0.21000
Br	Br	0.71100 0.17270 0.27180 -0.17200
Br	Br	0.81930 0.28844 0.18067 -0.17200
C 	C 	0.75190 0.54215 0.44243 -0.10900
C 	C 	0.78570 0.58303 0.40047 -0.03500
C 	C 	0.81101 0.66867 0.39926 0.13500
C 	C 	0.80651 0.71607 0.44136 -0.02700
C 	C 	0.77212 0.67492 0.48318 -0.09700
C 	C 	0.74559 0.58877 0.48408 0.18800
H 	H 	0.79048 0.54771 0.36817 0.07700
O 	O 	0.84422 0.70770 0.35795 -0.26700
H 	H 	0.76951 0.71113 0.51602 0.07700
O 	O 	0.71295 0.55000 0.52557 -0.28000
H 	H 	0.76716 0.56670 0.54954 0.16000
H 	H 	0.79022 0.69128 0.33389 0.16000
C 	C 	0.81685 0.98887 0.45043 0.00700
C 	C 	0.79967 0.01549 0.40624 -0.13300
C 	C 	0.77350 0.07157 0.40938 0.20100
C 	C 	0.76675 0.10351 0.45726 -0.12900
C 	C 	0.78307 0.07590 0.50126 -0.02600
C 	C 	0.80682 0.01816 0.49788 0.09800
H 	H 	0.80814 0.99404 0.36960 0.09300
O 	O 	0.75482 0.09493 0.36569 -0.26500
H 	H 	0.77740 0.09932 0.53829 0.03600
O 	O 	0.82485 0.99415 0.54154 -0.26100
H 	H 	0.76586 0.93817 0.54434 0.15000
H 	H 	0.68887 0.04794 0.35227 0.16200
C 	C 	0.10121 0.01561 0.46072 -0.03300
C 	C 	0.15988 0.06630 0.50796 -0.09800
C 	C 	0.25422 0.11567 0.51155 0.19200
C 	C 	0.29008 0.11317 0.46772 -0.11500
C 	C 	0.23100 0.06126 0.42074 -0.03500
C 	C 	0.13705 0.01334 0.41701 0.12200
H 	H 	0.13235 0.06748 0.54184 0.07700
O 	O 	0.31110 0.16612 0.55781 -0.26500
H 	H 	0.25821 0.05932 0.38684 0.05300
O 	O 	0.08004 0.96262 0.37082 -0.25100
H 	H 	0.07234 0.00263 0.35383 0.14300
H 	H 	0.32478 0.22535 0.55868 0.15900
C 	C 	0.84331 0.67345 0.98215 -0.12200
C 	C 	0.83465 0.70289 0.93722 -0.03400
C 	C 	0.88116 0.79397 0.93766 0.13700
C 	C 	0.93613 0.85591 0.98335 -0.04300
C 	C 	0.94692 0.82660 0.02774 -0.08600
C 	C 	0.90075 0.73583 0.02732 0.19800
H 	H 	0.79016 0.65511 0.90234 0.08100
O 	O 	0.87098 0.82218 0.89385 -0.27100
H 	H 	0.99092 0.87440 0.06270 0.07500
O 	O 	0.91359 0.70813 0.07073 -0.29300
H 	H 	0.86833 0.70158 0.09086 0.15500
H 	H 	0.92006 0.83248 0.87599 0.16100
C 	C 	0.93941 0.12041 0.99526 -0.02900
C 	C 	0.91705 0.14146 0.95024 -0.10300
C 	C 	0.85332 0.15880 0.94689 0.18800
C 	C 	0.81032 0.15403 0.98875 -0.13000
C 	C 	0.83639 0.13767 0.03473 -0.02200
C 	C 	0.90016 0.12032 0.03800 0.13700
H 	H 	0.94694 0.14163 0.91720 0.07600
O 	O 	0.83231 0.17917 0.90246 -0.31100
H 	H 	0.80587 0.13654 0.06765 0.07800
O 	O 	0.92403 0.10323 0.08297 -0.26600
H 	H 	0.87932 0.03791 0.08060 0.15100
H 	H 	0.87591 0.24501 0.90699 0.13200
C 	C 	0.41414 0.22173 0.01517 -0.10500
C 	C 	0.36882 0.22839 0.97278 -0.04500
C 	C 	0.27796 0.19572 0.96974 0.11500
C 	C 	0.23116 0.15521 0.00906 0.00200
C 	C 	0.27747 0.15140 0.05231 -0.10600
C 	C 	0.36798 0.18291 0.05504 0.19200
H 	H 	0.40412 0.25889 0.94208 0.06300
O 	O 	0.23345 0.19875 0.92688 -0.26900
H 	H 	0.24183 0.12016 0.08276 0.08000
O 	O 	0.41193 0.17817 0.09741 -0.27200
H 	H 	0.39998 0.11962 0.08930 0.16100
H 	H 	0.24295 0.25614 0.93477 0.14800
