data_crystal

_cell_length_a 20.48879
_cell_length_b 15.06754
_cell_length_c 48.53524
_cell_angle_alpha 89.64342
_cell_angle_beta  89.64901
_cell_angle_gamma 119.48588

_symmetry_space_group_name_	'P 1'
_symmetry_space_group_name_H-M	'P 1'

loop_
_symmetry_equiv_pos_as_xyz
  x,y,z

loop_
_atom_site_label
_atom_site_type_symbol
_atom_site_fract_x
_atom_site_fract_y
_atom_site_fract_z
_atom_site_charge
C 	C 	0.21533 0.23389 0.75122 0.33900
C 	C 	0.18853 0.03177 0.69792 0.34700
Ni	Ni	0.10599 0.00317 0.75081 1.11800
Ni	Ni	0.11576 0.16101 0.70264 1.13000
O 	O 	0.20813 0.14100 0.75253 -0.33900
O 	O 	0.18441 0.26051 0.73105 -0.34600
O 	O 	0.13858 0.96306 0.71465 -0.32800
O 	O 	0.19903 0.12530 0.69735 -0.34200
O 	O 	0.05998 0.06316 0.67225 -0.34800
C 	C 	0.18077 0.31246 0.43821 0.34500
C 	C 	0.12654 0.49489 0.46792 0.32600
O 	O 	0.19237 0.34402 0.46438 -0.34000
O 	O 	0.20927 0.37688 0.41720 -0.34800
O 	O 	0.18454 0.52824 0.48415 -0.35900
O 	O 	0.12699 0.45295 0.44427 -0.35900
C 	C 	0.18409 0.44942 0.00533 0.34400
C 	C 	0.19027 0.70075 0.97004 0.33400
O 	O 	0.20378 0.73414 0.99541 -0.32800
O 	O 	0.23828 0.72398 0.04757 -0.33800
O 	O 	0.19118 0.50670 0.98341 -0.34200
O 	O 	0.24258 0.69656 0.95561 -0.37900
C 	C 	0.03312 0.24554 0.18941 0.35300
C 	C 	0.99487 0.22812 0.27190 0.30700
C 	C 	0.05251 0.97391 0.19740 0.37000
C 	C 	0.02349 0.95984 0.27209 0.36400
Ni	Ni	0.05827 0.13315 0.23505 1.13300
O 	O 	0.09027 0.04033 0.21674 -0.32400
O 	O 	0.07207 0.20240 0.19767 -0.35800
O 	O 	0.05191 0.06019 0.27047 -0.37100
O 	O 	0.05157 0.24724 0.25504 -0.34400
C 	C 	0.05427 0.41681 0.06175 -0.12600
C 	C 	0.04440 0.32393 0.07226 0.01800
C 	C 	0.05383 0.25788 0.05443 0.30800
C 	C 	0.08690 0.29299 0.02839 -0.05000
C 	C 	0.11225 0.39473 0.02046 -0.13400
C 	C 	0.08732 0.45163 0.03567 0.37300
C 	C 	0.04173 0.30720 0.10251 0.04100
F 	F 	0.03809 0.16377 0.06335 -0.40100
H 	H 	0.10142 0.24558 0.01598 0.10800
F 	F 	0.10453 0.54637 0.02704 -0.42600
H 	H 	0.04253 0.46584 0.07464 0.14500
C 	C 	0.10384 0.31148 0.11591 0.32600
C 	C 	0.10255 0.29814 0.14448 -0.05200
C 	C 	0.03875 0.27838 0.16012 -0.11400
F 	F 	0.16623 0.33085 0.10125 -0.39500
H 	H 	0.15086 0.30137 0.15443 0.11900
C 	C 	0.18719 0.87843 0.17868 -0.12700
C 	C 	0.14988 0.81360 0.15672 0.02200
C 	C 	0.07985 0.79966 0.14852 0.29500
C 	C 	0.04869 0.85269 0.16160 -0.03700
C 	C 	0.08734 0.92092 0.18293 -0.13100
C 	C 	0.15747 0.93404 0.19124 0.40200
C 	C 	0.19005 0.77614 0.13922 0.01700
F 	F 	0.04354 0.73813 0.12703 -0.40500
C 	C 	0.25212 0.84573 0.12349 0.29900
C 	C 	0.27896 0.81113 0.10206 -0.05900
C 	C 	0.16102 0.67103 0.13545 -0.13000
F 	F 	0.28223 0.94755 0.12741 -0.40600
H 	H 	0.32277 0.86619 0.08861 0.09300
H 	H 	0.11489 0.61654 0.14822 0.13600
C 	C 	0.09985 0.12349 0.38836 -0.11400
C 	C 	0.03995 0.14203 0.38369 0.00800
C 	C 	0.00850 0.16603 0.40632 0.30700
C 	C 	0.04793 0.19530 0.43113 -0.06400
C 	C 	0.12091 0.20962 0.43190 -0.11900
C 	C 	0.02662 0.16648 0.35546 0.02400
H 	H 	0.02839 0.22537 0.44748 0.10500
C 	C 	0.08288 0.25252 0.34145 0.29100
C 	C 	0.07092 0.27548 0.31465 -0.06000
C 	C 	0.00234 0.21394 0.30167 -0.11000
F 	F 	0.14914 0.31398 0.35389 -0.42300
H 	H 	0.11540 0.34041 0.30382 0.11400
C 	C 	0.16041 0.73488 0.34892 0.29700
C 	C 	0.13775 0.87073 0.32958 0.02100
F 	F 	0.10940 0.66732 0.33118 -0.40300
H 	H 	0.18242 0.62282 0.36740 0.09500
C 	C 	0.08738 0.90197 0.33913 0.29100
C 	C 	0.04865 0.92933 0.32030 -0.04800
C 	C 	0.05722 0.92082 0.29191 -0.13300
C 	C 	0.10538 0.88586 0.28246 0.38800
C 	C 	0.14682 0.86351 0.30117 -0.13000
F 	F 	0.07429 0.90269 0.36655 -0.41200
H 	H 	0.01164 0.95634 0.32776 0.10100
F 	F 	0.11284 0.87506 0.25509 -0.40600
H 	H 	0.18500 0.83858 0.29362 0.14700
C 	C 	0.05629 0.48907 0.47869 -0.07000
C 	C 	0.05568 0.52630 0.50519 -0.03100
H 	H 	0.10725 0.56680 0.51663 0.09000
C 	C 	0.24386 0.01075 0.68436 -0.15600
H 	H 	0.25779 0.93450 0.71993 0.10600
C 	C 	0.05275 0.64759 0.97340 0.19900
C 	C 	0.11667 0.67020 0.95718 -0.08000
C 	C 	0.10854 0.65327 0.92859 -0.05100
C 	C 	0.03745 0.60756 0.91666 0.20300
O 	O 	0.05946 0.67203 0.00079 -0.22200
H 	H 	0.15728 0.67390 0.91562 0.09000
H 	H 	0.06545 0.74145 0.00140 0.18400
C 	C 	0.27233 0.31440 0.76842 -0.12500
C 	C 	0.27948 0.29410 0.79616 0.37400
H 	H 	0.31878 0.42578 0.73529 0.11900
F 	F 	0.22688 0.20644 0.80846 -0.43500
C 	C 	0.18851 0.63637 0.11400 0.38500
C 	C 	0.24403 0.70681 0.09599 -0.13800
C 	C 	0.13865 0.15362 0.41326 0.38000
F 	F 	0.23590 0.09017 0.64258 -0.42900
C 	C 	0.27641 0.96200 0.69909 -0.01600
C 	C 	0.34798 0.71345 0.49379 0.32300
C 	C 	0.26998 0.72780 0.40961 0.37900
C 	C 	0.35836 0.58990 0.38214 0.34800
Ni	Ni	0.26903 0.49224 0.47866 1.12100
Ni	Ni	0.21610 0.51443 0.41746 1.13100
O 	O 	0.34076 0.75075 0.41098 -0.33900
O 	O 	0.33741 0.62327 0.50128 -0.35100
O 	O 	0.28568 0.56354 0.38350 -0.33700
O 	O 	0.36245 0.47323 0.47649 -0.33900
O 	O 	0.21893 0.64717 0.42251 -0.38300
O 	O 	0.29440 0.54673 0.44260 -0.71700
H 	H 	0.31566 0.50551 0.43528 0.17500
C 	C 	0.39510 0.53822 0.98536 0.32100
C 	C 	0.25139 0.67757 0.06780 0.33700
C 	C 	0.41679 0.79975 0.05668 0.32400
C 	C 	0.40969 0.83949 0.96571 0.29600
Ni	Ni	0.32492 0.58562 0.03383 1.12400
Ni	Ni	0.30375 0.78135 0.01366 1.12600
Ni	Ni	0.29335 0.62028 0.96903 1.12500
O 	O 	0.33522 0.52285 0.97157 -0.36600
O 	O 	0.25300 0.59266 0.06325 -0.32100
O 	O 	0.39154 0.74577 0.95690 -0.34900
O 	O 	0.24329 0.45261 0.01641 -0.35500
O 	O 	0.35961 0.85634 0.97879 -0.35500
O 	O 	0.39834 0.84674 0.03736 -0.34000
O 	O 	0.31922 0.66921 0.00605 -0.70400
H 	H 	0.37405 0.70821 0.00378 0.14900
H 	H 	0.39375 0.76124 0.11108 0.10000
F 	F 	0.19780 0.00235 0.21096 -0.39700
H 	H 	0.24138 0.88984 0.18505 0.14800
F 	F 	0.15860 0.53503 0.10991 -0.43100
C 	C 	0.39442 0.60723 0.35496 -0.13100
C 	C 	0.40463 0.69121 0.33895 0.37800
F 	F 	0.36412 0.73821 0.34454 -0.42500
F 	F 	0.20305 0.14983 0.41625 -0.41100
H 	H 	0.12225 0.09909 0.37161 0.14000
C 	C 	0.22815 0.90526 0.36784 -0.12800
C 	C 	0.17576 0.83645 0.34917 0.02300
C 	C 	0.19591 0.70197 0.36744 -0.03100
C 	C 	0.24578 0.76924 0.38691 -0.13200
C 	C 	0.26296 0.87164 0.38676 0.39200
F 	F 	0.31110 0.93749 0.40549 -0.41300
H 	H 	0.24105 0.98417 0.36794 0.14600
C 	C 	0.38153 0.79947 0.51272 -0.08200
C 	C 	0.40362 0.97321 0.51371 -0.00500
C 	C 	0.35352 0.86816 0.51293 0.17000
H 	H 	0.38317 0.02650 0.51055 0.07500
O 	O 	0.27896 0.83368 0.50821 -0.25000
H 	H 	0.25517 0.81986 0.52675 0.17500
O 	O 	0.43271 0.38818 0.43698 -0.25300
H 	H 	0.45465 0.41910 0.41877 0.16900
C 	C 	0.32689 0.03587 0.64567 -0.15900
C 	C 	0.36153 0.99096 0.66079 0.04100
C 	C 	0.33525 0.95249 0.68739 0.29100
C 	C 	0.26834 0.04571 0.65737 0.39200
C 	C 	0.42945 0.99345 0.64956 0.05000
F 	F 	0.36775 0.90798 0.70211 -0.38800
H 	H 	0.34682 0.06566 0.62509 0.13300
C 	C 	0.42533 0.94325 0.62481 0.28300
F 	F 	0.35866 0.86585 0.61627 -0.40400
C 	C 	0.51643 0.01104 0.97798 0.16400
O 	O 	0.48289 0.00446 0.00299 -0.23400
H 	H 	0.45168 0.03734 0.00022 0.15900
C 	C 	0.45038 0.42483 0.99152 -0.04800
H 	H 	0.42675 0.40640 0.01218 0.08600
H 	H 	0.40991 0.53370 0.92038 0.17700
C 	C 	0.34235 0.36233 0.81096 -0.13400
C 	C 	0.39846 0.45164 0.79822 0.02000
C 	C 	0.38747 0.47685 0.77138 0.29900
C 	C 	0.32469 0.40824 0.75650 -0.04600
C 	C 	0.47318 0.50665 0.81087 0.02500
F 	F 	0.43966 0.56512 0.75923 -0.39000
H 	H 	0.34968 0.34294 0.83182 0.13000
C 	C 	0.48040 0.54348 0.83784 0.29300
F 	F 	0.42537 0.55713 0.84925 -0.41300
C 	C 	0.43907 0.49230 0.97478 -0.08900
O 	O 	0.06283 0.07159 0.73252 -0.72200
O 	O 	0.40281 0.62339 0.40387 -0.38000
F 	F 	0.08254 0.38712 0.75958 -0.42900
C 	C 	0.48470 0.92871 0.95944 -0.06800
C 	C 	0.42830 0.54662 0.46720 0.30200
Ni	Ni	0.37801 0.67942 0.43711 1.12700
O 	O 	0.34108 0.73228 0.46803 -0.35900
O 	O 	0.40416 0.56786 0.01126 -0.35000
O 	O 	0.41297 0.71076 0.05217 -0.34800
C 	C 	0.44980 0.82100 0.10582 -0.06100
C 	C 	0.43479 0.55731 0.34829 -0.05000
H 	H 	0.42616 0.49111 0.36013 0.10200
C 	C 	0.48815 0.44195 0.45564 0.17500
H 	H 	0.52942 0.33538 0.45499 0.09200
H 	H 	0.60373 0.16368 0.98524 0.09100
C 	C 	0.50832 0.46719 0.93770 -0.05400
C 	C 	0.46635 0.51105 0.94747 0.17700
C 	C 	0.49268 0.38148 0.98174 0.18200
O 	O 	0.45610 0.57715 0.93087 -0.27300
O 	O 	0.50362 0.31596 0.99833 -0.27100
O 	O 	0.06346 0.02836 0.78701 -0.32600
H 	H 	0.06895 0.12182 0.74660 0.17300
H 	H 	0.48226 0.94994 0.58688 0.08300
O 	O 	0.44037 0.64125 0.46286 -0.36300
C 	C 	0.46664 0.86073 0.07883 -0.12600
F 	F 	0.49075 0.80230 0.15016 -0.39900
C 	C 	0.46172 0.73299 0.31901 -0.13500
H 	H 	0.47323 0.80270 0.30836 0.14500
C 	C 	0.45535 0.83404 0.52116 -0.06300
C 	C 	0.50546 0.93886 0.52249 0.19800
C 	C 	0.48067 0.00862 0.51586 -0.13500
H 	H 	0.47625 0.78077 0.52318 0.08500
C 	C 	0.53683 0.40606 0.46348 -0.04800
C 	C 	0.49272 0.52855 0.46835 -0.08800
C 	C 	0.48803 0.98137 0.60731 -0.02300
C 	C 	0.50008 0.06637 0.65925 -0.16000
C 	C 	0.58099 0.10152 0.97071 -0.03900
C 	C 	0.52354 0.40485 0.95497 -0.09400
H 	H 	0.53267 0.48639 0.91721 0.06900
C 	C 	0.54111 0.55719 0.85385 -0.05600
C 	C 	0.53331 0.50098 0.79868 -0.13500
H 	H 	0.54365 0.57844 0.87525 0.09300
H 	H 	0.52969 0.47642 0.77754 0.14900
O 	O 	0.57307 0.31295 0.92954 -0.36400
O 	O 	0.52694 0.19090 0.51714 -0.36700
H 	H 	0.50504 0.10078 0.67921 0.15100
O 	O 	0.03063 0.59194 0.88876 -0.25800
C 	C 	0.50701 0.84733 0.12485 0.30900
C 	C 	0.49070 0.59760 0.32787 0.29000
C 	C 	0.51967 0.93892 0.93369 -0.03600
C 	C 	0.58484 0.38568 0.94754 0.30100
O 	O 	0.59515 0.42223 0.87792 -0.38200
C 	C 	0.53505 0.11424 0.50777 0.31500
C 	C 	0.50761 0.68948 0.31441 0.02300
H 	H 	0.58321 0.98024 0.54853 0.16000
H 	H 	0.49633 0.87644 0.91926 0.09200
C 	C 	0.59449 0.53395 0.84299 -0.12700
O 	O 	0.55171 0.16137 0.57392 -0.38000
H 	H 	0.54915 0.35994 0.00909 0.17200
F 	F 	0.51379 0.74851 0.25822 -0.39900
C 	C 	0.54017 0.93708 0.07227 0.37600
C 	C 	0.55362 0.07130 0.61425 -0.16000
C 	C 	0.59401 0.51486 0.81468 0.38300
Ni	Ni	0.59067 0.28202 0.54845 1.12800
F 	F 	0.53140 0.55083 0.32232 -0.40600
O 	O 	0.57945 0.97276 0.52822 -0.28400
C 	C 	0.59082 0.45677 0.48382 -0.09300
C 	C 	0.55213 0.58580 0.48624 -0.04900
C 	C 	0.61177 0.11575 0.94414 -0.09400
C 	C 	0.63546 0.50251 0.86173 0.33300
Ni	Ni	0.63533 0.33632 0.89413 1.12600
F 	F 	0.55766 0.97709 0.04642 -0.41900
C 	C 	0.56284 0.10329 0.64177 0.40800
F 	F 	0.61164 0.34003 0.63649 -0.41000
F 	F 	0.01570 0.67779 0.71829 -0.40700
C 	C 	0.58305 0.03207 0.92595 0.16300
C 	C 	0.59359 0.14709 0.59226 0.34300
H 	H 	0.02472 0.52314 0.88612 0.17500
C 	C 	0.58150 0.91375 0.11705 0.01300
H 	H 	0.06164 0.03603 0.62071 0.12300
C 	C 	0.66734 0.22087 0.93476 0.32300
C 	C 	0.74774 0.37485 0.84947 0.36300
Ni	Ni	0.74859 0.45069 0.94570 1.11700
Ni	Ni	0.78645 0.54767 0.88398 1.13700
O 	O 	0.77803 0.65513 0.90561 -0.37700
O 	O 	0.67579 0.33003 0.85619 -0.35300
O 	O 	0.69983 0.29324 0.95327 -0.35100
O 	O 	0.67338 0.24471 0.90856 -0.36000
O 	O 	0.70763 0.53504 0.85640 -0.31500
O 	O 	0.64878 0.43479 0.96107 -0.36000
O 	O 	0.71542 0.45515 0.90990 -0.71300
H 	H 	0.68766 0.49158 0.91372 0.15300
C 	C 	0.62637 0.40381 0.49774 0.32100
C 	C 	0.70216 0.42769 0.58797 0.36100
Ni	Ni	0.69619 0.26627 0.49989 1.11800
Ni	Ni	0.74344 0.28728 0.56459 1.12800
O 	O 	0.73960 0.15622 0.55334 -0.38000
O 	O 	0.63056 0.37305 0.58184 -0.33300
O 	O 	0.63982 0.33946 0.48385 -0.35200
O 	O 	0.63283 0.40891 0.52458 -0.35600
O 	O 	0.66609 0.21505 0.59548 -0.33700
O 	O 	0.59609 0.13243 0.49371 -0.34700
O 	O 	0.75291 0.42259 0.57265 -0.38200
O 	O 	0.66947 0.25632 0.53752 -0.71100
H 	H 	0.64314 0.18182 0.53973 0.15500
C 	C 	0.67094 0.99828 0.15496 -0.12400
C 	C 	0.64287 0.92394 0.13456 0.02000
C 	C 	0.67300 0.85866 0.13105 0.30100
C 	C 	0.73010 0.00956 0.17136 0.37400
F 	F 	0.64524 0.78531 0.11153 -0.40500
H 	H 	0.64715 0.04780 0.15800 0.13000
C 	C 	0.59746 0.96305 0.09133 -0.12400
H 	H 	0.65485 0.01686 0.08551 0.11700
C 	C 	0.57903 0.74760 0.29894 0.01800
C 	C 	0.57935 0.77831 0.27151 0.29900
C 	C 	0.64742 0.83901 0.25767 -0.05000
C 	C 	0.71568 0.86782 0.27089 -0.12000
C 	C 	0.71528 0.83586 0.29817 0.38400
C 	C 	0.64735 0.77743 0.31222 -0.13100
H 	H 	0.64711 0.86158 0.23644 0.12000
H 	H 	0.64775 0.75547 0.33350 0.13500
C 	C 	0.60161 0.55079 0.49380 0.17400
H 	H 	0.55741 0.65422 0.49554 0.08300
O 	O 	0.65782 0.60567 0.51209 -0.24700
H 	H 	0.70171 0.65237 0.50054 0.17500
F 	F 	0.77008 0.84494 0.55702 -0.41700
H 	H 	0.71237 0.93875 0.52920 0.09800
F 	F 	0.63055 0.17681 0.65071 -0.40500
F 	F 	0.71750 0.57157 0.71375 -0.39400
C 	C 	0.72368 0.47357 0.61545 -0.14000
C 	C 	0.68246 0.41907 0.63896 0.39300
C 	C 	0.71498 0.44488 0.66503 -0.12300
H 	H 	0.68442 0.39936 0.68285 0.16400
O 	O 	0.61563 0.04140 0.90054 -0.26400
H 	H 	0.65442 0.02116 0.90342 0.18600
C 	C 	0.79573 0.28115 0.78525 0.30200
C 	C 	0.75805 0.28037 0.80946 -0.04700
C 	C 	0.77012 0.37234 0.82082 -0.13400
F 	F 	0.78841 0.19232 0.77562 -0.39900
H 	H 	0.72329 0.20895 0.82027 0.10900
F 	F 	0.81203 0.31117 0.71629 -0.39900
F 	F 	0.64786 0.49832 0.80339 -0.40100
F 	F 	0.80268 0.97632 0.90736 -0.41400
H 	H 	0.75128 0.81473 0.93931 0.09700
H 	H 	0.06664 0.14355 0.82995 0.11600
C 	C 	0.73236 0.86982 0.14749 -0.04800
C 	C 	0.79032 0.59477 0.71531 0.31000
C 	C 	0.78682 0.52924 0.66804 0.02600
F 	F 	0.04165 0.13859 0.88303 -0.39700
O 	O 	0.79851 0.43759 0.86647 -0.36600
F 	F 	0.75691 0.08236 0.19104 -0.44000
C 	C 	0.79322 0.56191 0.61874 -0.04600
C 	C 	0.81376 0.46427 0.80624 0.38900
O 	O 	0.04803 0.22538 0.70228 -0.35700
O 	O 	0.75941 0.19117 0.50615 -0.34700
C 	C 	0.77106 0.98614 0.53414 -0.04700
C 	C 	0.76311 0.14349 0.52896 0.34800
C 	C 	0.76207 0.94648 0.16734 -0.13500
H 	H 	0.75641 0.82068 0.14433 0.10700
H 	H 	0.81515 0.70341 0.74758 0.13200
F 	F 	0.82285 0.55348 0.81631 -0.43000
O 	O 	0.79046 0.40616 0.50556 -0.36600
H 	H 	0.79447 0.93677 0.60687 0.14800
C 	C 	0.80320 0.67951 0.93108 0.33600
C 	C 	0.80949 0.84594 0.93319 -0.05700
O 	O 	0.80640 0.61223 0.94844 -0.34200
C 	C 	0.80741 0.94511 0.54971 0.30600
H 	H 	0.82010 0.86002 0.86112 0.13800
C 	C 	0.84572 0.37435 0.77228 0.01900
H 	H 	0.82434 0.60662 0.60088 0.11100
H 	H 	0.01376 0.94933 0.90780 0.15200
C 	C 	0.82425 0.59052 0.64490 0.29200
C 	C 	0.82113 0.55785 0.69555 0.01900
F 	F 	0.78071 0.86126 0.31106 -0.40600
C 	C 	0.85162 0.46513 0.78213 -0.14500
C 	C 	0.78688 0.92444 0.25551 0.35800
C 	C 	0.80737 0.09121 0.52844 -0.14900
C 	C 	0.83736 0.66658 0.73438 -0.05500
O 	O 	0.79602 0.00050 0.23871 -0.32300
F 	F 	0.82972 0.92955 0.65791 -0.40600
F 	F 	0.84465 0.86361 0.80844 -0.41200
C 	C 	0.84283 0.93158 0.91571 0.29100
O 	O 	0.84422 0.45212 0.93153 -0.36600
C 	C 	0.87919 0.33144 0.72678 0.29800
C 	C 	0.84566 0.78844 0.93730 -0.13500
O 	O 	0.83951 0.35957 0.54121 -0.33400
C 	C 	0.82972 0.96651 0.18242 0.36100
O 	O 	0.82851 0.89476 0.19837 -0.36100
C 	C 	0.85244 0.95643 0.60969 -0.15000
C 	C 	0.84851 0.41207 0.51829 0.33100
O 	O 	0.01557 0.85426 0.75354 -0.31200
O 	O 	0.83356 0.88671 0.25533 -0.33500
H 	H 	0.88934 0.53706 0.77212 0.12700
C 	C 	0.87326 0.92342 0.85435 -0.15700
H 	H 	0.90053 0.24968 0.69507 0.10600
C 	C 	0.87875 0.95954 0.63634 0.38400
C 	C 	0.90193 0.37844 0.75248 0.02300
H 	H 	0.86998 0.38580 0.46452 0.07000
C 	C 	0.87916 0.01017 0.56026 -0.02100
O 	O 	0.88478 0.59326 0.90438 -0.34000
F 	F 	0.89081 0.67757 0.64780 -0.40700
C 	C 	0.89299 0.93309 0.82646 0.41000
C 	C 	0.88486 0.14911 0.53282 0.36600
C 	C 	0.89435 0.57482 0.69935 -0.11400
C 	C 	0.01255 0.08198 0.83665 -0.00400
C 	C 	0.90174 0.98517 0.58695 0.06500
O 	O 	0.88128 0.06067 0.18569 -0.34000
C 	C 	0.89910 0.53531 0.92078 0.33500
F 	F 	0.87713 0.07189 0.30441 -0.42000
C 	C 	0.92217 0.29555 0.71337 -0.03100
C 	C 	0.91509 0.70526 0.73248 -0.12000
F 	F 	0.02283 0.02604 0.56914 -0.39500
C 	C 	0.91254 0.95921 0.90327 0.01800
Ni	Ni	0.89793 0.12381 0.22418 1.14100
H 	H 	0.91699 0.53978 0.68571 0.13200
C 	C 	0.92448 0.98933 0.87379 0.05300
C 	C 	0.92035 0.10967 0.54940 -0.13100
F 	F 	0.91541 0.26024 0.16140 -0.42100
Ni	Ni	0.91153 0.91703 0.22555 1.13000
C 	C 	0.92359 0.83779 0.93305 0.37600
C 	C 	0.92057 0.45384 0.50331 -0.08200
H 	H 	0.91306 0.04136 0.35372 0.14700
C 	C 	0.92180 0.42556 0.47587 -0.03300
H 	H 	0.93268 0.58107 0.97417 0.07800
O 	O 	0.94567 0.02998 0.68880 -0.33800
F 	F 	0.92310 0.24818 0.52454 -0.44200
O 	O 	0.94331 0.96033 0.76958 -0.30200
C 	C 	0.94175 0.64939 0.71783 0.35800
H 	H 	0.93149 0.29038 0.10806 0.12400
C 	C 	0.01692 0.37055 0.74843 0.42100
O 	O 	0.92766 0.19917 0.26168 -0.30200
O 	O 	0.95480 0.87486 0.71706 -0.35000
C 	C 	0.95568 0.99604 0.64072 -0.10500
Ni	Ni	0.95748 0.00440 0.72885 1.12500
O 	O 	0.96083 0.13637 0.73712 -0.37300
H 	H 	0.93985 0.04855 0.25400 0.17400
F 	F 	0.94577 0.17393 0.40321 -0.43100
C 	C 	0.96349 0.81555 0.73464 0.34800
C 	C 	0.95701 0.92227 0.91520 -0.15300
C 	C 	0.96436 0.00980 0.81759 -0.16500
C 	C 	0.94462 0.13078 0.31626 0.35800
O 	O 	0.95119 0.05687 0.23412 -0.72300
C 	C 	0.97432 0.40708 0.76175 -0.16300
F 	F 	0.96333 0.79245 0.94137 -0.43900
C 	C 	0.95716 0.10677 0.34291 -0.14000
C 	C 	0.97608 0.00704 0.59103 0.24200
C 	C 	0.97361 0.57892 0.93321 -0.09700
C 	C 	0.98673 0.30492 0.72599 -0.17100
C 	C 	0.98748 0.02519 0.66879 0.31900
H 	H 	0.97484 0.34283 0.43710 0.18700
H 	H 	0.97728 0.15956 0.55601 0.13100
C 	C 	0.98160 0.59962 0.96150 -0.03500
C 	C 	0.97734 0.27747 0.14680 0.36600
C 	C 	0.97910 0.29199 0.11813 -0.14500
C 	C 	0.99258 0.00697 0.78964 0.30500
H 	H 	0.99417 0.44839 0.78085 0.13000
C 	C 	0.99283 0.07165 0.86465 0.23400
O 	O 	0.98119 0.94379 0.19358 -0.38700
O 	O 	0.98056 0.89716 0.25226 -0.34600
C 	C 	0.98832 0.50864 0.51747 0.18200
O 	O 	0.98847 0.54113 0.54382 -0.25700
O 	O 	0.98911 0.41599 0.43654 -0.26000
C 	C 	0.98908 0.44252 0.46352 0.17200
O 	O 	0.98637 0.25353 0.20649 -0.32400
C 	C 	0.00350 0.22175 0.72299 0.38400
H 	H 	0.99479 0.61046 0.54173 0.17100
C 	C 	0.00320 0.01374 0.61781 -0.03600
H 	H 	0.99498 0.84184 0.15484 0.10200
