data_crystal

_cell_length_a 26.02994
_cell_length_b 26.27602
_cell_length_c 35.08816
_cell_angle_alpha 95.52840
_cell_angle_beta  95.52948
_cell_angle_gamma 125.69078

_symmetry_space_group_name_	'P 1'
_symmetry_space_group_name_H-M	'P 1'

loop_
_symmetry_equiv_pos_as_xyz
  x,y,z

loop_
_atom_site_label
_atom_site_type_symbol
_atom_site_fract_x
_atom_site_fract_y
_atom_site_fract_z
_atom_site_charge
C 	C 	0.98273 0.04085 0.99694 0.11300
N 	N 	0.04704 0.07230 0.99823 -0.13900
C 	C 	0.07175 0.03897 0.99449 0.11200
N 	N 	0.03211 0.97437 0.98935 -0.14100
C 	C 	0.96793 0.94281 0.98785 0.11300
N 	N 	0.94331 0.97610 0.99162 -0.13900
C 	C 	0.92327 0.98641 0.45154 0.10500
N 	N 	0.88838 0.92193 0.44842 -0.13600
C 	C 	0.91869 0.89374 0.44837 0.11000
N 	N 	0.98359 0.93000 0.45147 -0.13500
C 	C 	0.01850 0.99419 0.45499 0.10400
N 	N 	0.98840 0.02240 0.45518 -0.13300
Cu	Cu	0.65805 0.25681 0.00734 0.92900
Cu	Cu	0.71126 0.26699 0.92583 0.86600
Cu	Cu	0.67640 0.34839 0.95403 0.89500
Cu	Cu	0.65476 0.37241 0.03297 0.89500
C 	C 	0.67875 0.30595 0.08851 0.29200
O 	O 	0.56408 0.21723 0.00878 -0.35500
C 	C 	0.66074 0.30856 0.87006 0.28400
O 	O 	0.70509 0.35483 0.00809 -0.64100
O 	O 	0.64433 0.25826 0.95140 -0.64400
O 	O 	0.70082 0.21416 0.00459 -0.36600
O 	O 	0.77106 0.28426 0.96994 -0.43800
O 	O 	0.64735 0.32926 0.07824 -0.38200
O 	O 	0.71451 0.43807 0.95734 -0.37900
C 	C 	0.71911 0.47682 0.98679 0.28400
C 	C 	0.53592 0.24153 0.99434 0.27200
O 	O 	0.57132 0.30072 0.98884 -0.39500
O 	O 	0.69002 0.45572 0.01665 -0.39100
O 	O 	0.68503 0.27118 0.06245 -0.35900
C 	C 	0.75509 0.24088 0.99157 0.28000
O 	O 	0.65036 0.33757 0.89786 -0.37300
O 	O 	0.67049 0.26594 0.87692 -0.41700
H 	H 	0.75224 0.38523 0.01749 0.16500
H 	H 	0.59992 0.22664 0.93643 0.17700
Cu	Cu	0.71805 0.32149 0.45122 0.92700
Cu	Cu	0.71985 0.28125 0.53631 0.86700
Cu	Cu	0.62409 0.29912 0.50514 0.89600
Cu	Cu	0.59200 0.31008 0.42233 0.89700
C 	C 	0.67541 0.30729 0.37030 0.29200
O 	O 	0.75493 0.41276 0.44626 -0.36500
C 	C 	0.66972 0.32408 0.58956 0.28400
O 	O 	0.61840 0.26983 0.45142 -0.63800
O 	O 	0.71730 0.33901 0.50706 -0.64300
O 	O 	0.76437 0.28218 0.45522 -0.36900
O 	O 	0.70036 0.21753 0.49450 -0.43800
O 	O 	0.62007 0.29724 0.37353 -0.38000
O 	O 	0.53203 0.25330 0.50169 -0.37300
C 	C 	0.49239 0.24486 0.47106 0.28100
C 	C 	0.72466 0.43767 0.45390 0.27800
O 	O 	0.66555 0.40137 0.46017 -0.38800
O 	O 	0.51378 0.28159 0.44471 -0.38600
O 	O 	0.70353 0.29372 0.39642 -0.36600
C 	C 	0.74094 0.23098 0.47081 0.27900
O 	O 	0.63376 0.32591 0.56115 -0.37400
O 	O 	0.71908 0.32444 0.58314 -0.41700
H 	H 	0.59157 0.22283 0.44348 0.16500
H 	H 	0.74609 0.38447 0.52003 0.17600
C 	C 	0.71225 0.36991 0.69927 -0.04300
C 	C 	0.65076 0.33615 0.70944 0.01900
C 	C 	0.59579 0.30592 0.68015 -0.05800
C 	C 	0.60105 0.30316 0.64073 0.02100
C 	C 	0.66259 0.33430 0.63043 -0.08100
C 	C 	0.71782 0.37002 0.66000 0.00800
C 	C 	0.64326 0.32644 0.75012 0.01900
C 	C 	0.66488 0.37854 0.77945 -0.05800
C 	C 	0.66932 0.37328 0.81883 0.02100
C 	C 	0.64848 0.31401 0.82902 -0.08000
C 	C 	0.62126 0.26055 0.79932 0.00800
C 	C 	0.61995 0.26674 0.76015 -0.04200
C 	C 	0.69819 0.42962 0.84838 0.07300
C 	C 	0.59693 0.21213 0.73052 0.08400
C 	C 	0.76978 0.40239 0.72886 0.08400
C 	C 	0.54299 0.26523 0.61130 0.07200
N 	N 	0.72135 0.47489 0.87193 -0.10900
N 	N 	0.57851 0.16842 0.70678 -0.12200
N 	N 	0.49636 0.23475 0.58782 -0.11000
N 	N 	0.81584 0.42838 0.75258 -0.12200
H 	H 	0.76524 0.39588 0.65236 0.03900
H 	H 	0.54857 0.28125 0.68802 0.05200
H 	H 	0.68150 0.42412 0.77168 0.05200
H 	H 	0.60319 0.21447 0.80681 0.03900
C 	C 	0.75790 0.35268 0.19416 -0.04100
C 	C 	0.70588 0.30765 0.21080 0.02100
C 	C 	0.64708 0.25840 0.18657 -0.05900
C 	C 	0.63872 0.25557 0.14622 0.02700
C 	C 	0.68958 0.30268 0.12981 -0.07900
C 	C 	0.74941 0.35007 0.15376 0.00800
C 	C 	0.71037 0.31500 0.25364 0.02100
C 	C 	0.70530 0.36047 0.27333 -0.05800
C 	C 	0.69795 0.36100 0.31234 0.02300
C 	C 	0.69479 0.31497 0.33186 -0.07900
C 	C 	0.70454 0.27244 0.31299 0.01100
C 	C 	0.71247 0.27236 0.27404 -0.04200
C 	C 	0.69345 0.40876 0.33208 0.06400
C 	C 	0.72192 0.22791 0.25505 0.08900
C 	C 	0.81988 0.40184 0.21836 0.08700
C 	C 	0.57744 0.20478 0.12191 0.07700
N 	N 	0.68975 0.44697 0.34783 -0.11900
N 	N 	0.72949 0.19231 0.23980 -0.11600
N 	N 	0.52835 0.16408 0.10246 -0.11300
N 	N 	0.86953 0.44122 0.23777 -0.11800
H 	H 	0.78886 0.38575 0.14106 0.02900
H 	H 	0.60730 0.22326 0.19930 0.05300
H 	H 	0.70512 0.39423 0.25789 0.05200
H 	H 	0.70362 0.23791 0.32815 0.04500
C 	C 	0.74586 0.63380 0.49937 -0.03700
C 	C 	0.76973 0.69662 0.49675 -0.04900
C 	C 	0.81166 0.72818 0.47100 0.03400
C 	C 	0.82921 0.69606 0.44744 -0.02100
C 	C 	0.80550 0.63296 0.45027 -0.00100
C 	C 	0.76364 0.60174 0.47629 0.01300
C 	C 	0.82377 0.60118 0.42708 0.01500
C 	C 	0.86515 0.63250 0.40104 -0.03600
C 	C 	0.88866 0.69512 0.39823 -0.04900
C 	C 	0.87124 0.72732 0.42150 0.03400
C 	C 	0.89674 0.79094 0.41992 -0.05900
C 	C 	0.88163 0.82399 0.44459 0.00700
C 	C 	0.83771 0.79203 0.46930 -0.05900
C 	C 	0.73952 0.53863 0.47863 -0.02500
C 	C 	0.75665 0.50638 0.45500 -0.06000
C 	C 	0.79977 0.53823 0.42985 -0.02200
H 	H 	0.71360 0.61016 0.51941 0.04000
H 	H 	0.75584 0.72077 0.51493 0.04200
H 	H 	0.87918 0.60840 0.38294 0.04300
H 	H 	0.92081 0.71871 0.37812 0.04400
H 	H 	0.92998 0.81548 0.40047 0.05100
H 	H 	0.82602 0.81755 0.48828 0.05000
H 	H 	0.70689 0.51433 0.49841 0.04400
H 	H 	0.81285 0.51334 0.41155 0.05000
C 	C 	0.73107 0.04176 0.49016 -0.03800
C 	C 	0.75667 0.00745 0.48760 -0.04900
C 	C 	0.80941 0.02821 0.46902 0.03700
C 	C 	0.83585 0.08331 0.45230 -0.02300
C 	C 	0.81019 0.11798 0.45501 -0.00100
C 	C 	0.75797 0.09740 0.47428 0.01000
C 	C 	0.83754 0.17384 0.43904 0.01200
C 	C 	0.88943 0.19387 0.41977 -0.03600
C 	C 	0.91477 0.15936 0.41699 -0.05000
C 	C 	0.88866 0.10441 0.43352 0.03600
C 	C 	0.91552 0.07109 0.43212 -0.06200
C 	C 	0.89062 0.01731 0.44984 0.01300
C 	C 	0.83686 0.99534 0.46767 -0.06600
C 	C 	0.73403 0.13328 0.47811 -0.02800
C 	C 	0.76254 0.19025 0.46336 -0.06600
C 	C 	0.81352 0.20968 0.44319 -0.02500
H 	H 	0.69069 0.02534 0.50485 0.03700
H 	H 	0.73574 0.96501 0.50034 0.04100
H 	H 	0.91055 0.23648 0.40718 0.04100
H 	H 	0.95514 0.17576 0.40229 0.04500
H 	H 	0.95618 0.08731 0.41769 0.05400
H 	H 	0.81758 0.95388 0.48131 0.05200
H 	H 	0.69397 0.11744 0.49304 0.03900
H 	H 	0.83522 0.25310 0.43140 0.05000
C 	C 	0.30651 0.20165 0.52604 -0.03600
C 	C 	0.23983 0.16822 0.52283 -0.04900
C 	C 	0.19739 0.11785 0.49127 0.03400
C 	C 	0.22221 0.10085 0.46278 -0.02100
C 	C 	0.28928 0.13476 0.46586 -0.00100
C 	C 	0.33160 0.18537 0.49760 0.01400
C 	C 	0.31406 0.11849 0.43697 0.01400
C 	C 	0.27165 0.06784 0.40558 -0.03800
C 	C 	0.20501 0.03371 0.40274 -0.04700
C 	C 	0.17995 0.05000 0.43117 0.03300
C 	C 	0.11321 0.01594 0.42845 -0.05800
C 	C 	0.08842 0.03263 0.45685 0.00800
C 	C 	0.13046 0.08392 0.48799 -0.06000
C 	C 	0.39842 0.21974 0.50011 -0.01900
C 	C 	0.42301 0.20442 0.47086 -0.05800
C 	C 	0.38089 0.15364 0.43955 -0.02600
H 	H 	0.33861 0.24041 0.55054 0.04200
H 	H 	0.22125 0.18152 0.54494 0.04300
H 	H 	0.29024 0.05490 0.38329 0.03900
H 	H 	0.17292 0.99469 0.37836 0.04000
H 	H 	0.08050 0.97644 0.40437 0.04800
H 	H 	0.11106 0.09645 0.50995 0.05100
H 	H 	0.43123 0.25943 0.52406 0.05100
H 	H 	0.40022 0.14213 0.41702 0.03200
C 	C 	0.75165 0.68132 0.02287 -0.03700
C 	C 	0.78607 0.74664 0.02262 -0.05000
C 	C 	0.83712 0.77671 0.00217 0.03500
C 	C 	0.85297 0.74058 0.98126 -0.02200
C 	C 	0.81854 0.67491 0.98167 -0.00100
C 	C 	0.76798 0.64528 0.00276 0.01300
C 	C 	0.83540 0.63913 0.96152 0.01300
C 	C 	0.88561 0.66892 0.94043 -0.03600
C 	C 	0.91965 0.73410 0.93991 -0.05000
C 	C 	0.90404 0.77035 0.96056 0.03400
C 	C 	0.93976 0.83619 0.96147 -0.05900
C 	C 	0.92560 0.87272 0.98345 0.00400
C 	C 	0.87347 0.84266 0.00313 -0.05800
C 	C 	0.73490 0.58021 0.00386 -0.02200
C 	C 	0.75245 0.54470 0.98442 -0.06000
C 	C 	0.80250 0.57426 0.96314 -0.02100
H 	H 	0.71265 0.65890 0.03899 0.03900
H 	H 	0.77328 0.77390 0.03859 0.04200
H 	H 	0.89861 0.64173 0.92462 0.04000
H 	H 	0.95859 0.75650 0.92373 0.04300
H 	H 	0.97915 0.85922 0.94563 0.05200
H 	H 	0.86249 0.87083 0.02005 0.05100
H 	H 	0.69566 0.55725 0.01981 0.04500
H 	H 	0.81642 0.54705 0.94841 0.04600
C 	C 	0.93968 0.24267 0.96690 -0.03900
C 	C 	0.97155 0.21439 0.96745 -0.04600
C 	C 	0.94943 0.16139 0.98544 0.03000
C 	C 	0.89573 0.13760 0.00380 -0.02000
C 	C 	0.86356 0.16599 0.00317 -0.00000
C 	C 	0.88519 0.21823 0.98426 0.00900
C 	C 	0.80888 0.14116 0.02066 0.01200
C 	C 	0.78777 0.08920 0.03954 -0.03600
C 	C 	0.81976 0.06105 0.04020 -0.04900
C 	C 	0.87325 0.08447 0.02198 0.03400
C 	C 	0.90355 0.05450 0.02094 -0.05900
C 	C 	0.95563 0.07670 0.00145 0.00700
C 	C 	0.97929 0.13093 0.98443 -0.05700
C 	C 	0.85116 0.24438 0.98205 -0.02700
C 	C 	0.79496 0.21802 0.99802 -0.06900
C 	C 	0.77501 0.16749 0.01821 -0.02200
H 	H 	0.95697 0.28312 0.95254 0.03700
H 	H 	0.01305 0.23335 0.95352 0.03900
H 	H 	0.74612 0.07008 0.05333 0.04200
H 	H 	0.80242 0.02055 0.05451 0.04400
H 	H 	0.88614 0.01343 0.03475 0.05200
H 	H 	0.01956 0.14814 0.96948 0.04800
H 	H 	0.86755 0.28420 0.96719 0.03700
H 	H 	0.73251 0.14783 0.03125 0.05200
C 	C 	0.33211 0.08178 0.03420 -0.03800
C 	C 	0.26807 0.05613 0.03615 -0.04800
C 	C 	0.23717 0.07797 0.01621 0.03400
C 	C 	0.27091 0.12600 0.99417 -0.02100
C 	C 	0.33538 0.15176 0.99215 -0.00400
C 	C 	0.36612 0.12969 0.01235 0.01700
C 	C 	0.36921 0.19990 0.97019 0.01400
C 	C 	0.33820 0.22155 0.95012 -0.03900
C 	C 	0.27409 0.19584 0.95204 -0.04900
C 	C 	0.24013 0.14810 0.97401 0.03300
C 	C 	0.17551 0.12144 0.97559 -0.05900
C 	C 	0.14146 0.07254 0.99682 0.00400
C 	C 	0.17273 0.05174 0.01762 -0.05800
C 	C 	0.43083 0.15667 0.01112 -0.02700
C 	C 	0.46549 0.20646 0.99052 -0.05900
C 	C 	0.43397 0.22667 0.96919 -0.02900
H 	H 	0.35532 0.06454 0.04985 0.04400
H 	H 	0.24250 0.01919 0.05314 0.04300
H 	H 	0.36377 0.25849 0.93313 0.04000
H 	H 	0.25088 0.21308 0.93639 0.04200
H 	H 	0.15123 0.13730 0.95946 0.05000
H 	H 	0.14652 0.01450 0.03437 0.05200
H 	H 	0.45466 0.14030 0.02709 0.05800
H 	H 	0.46020 0.26403 0.95254 0.04500
