data_crystal

_cell_length_a 29.32707
_cell_length_b 30.72235
_cell_length_c 31.00696
_cell_angle_alpha 61.15299
_cell_angle_beta  118.52123
_cell_angle_gamma 133.16445

_symmetry_space_group_name_	'P 1'
_symmetry_space_group_name_H-M	'P 1'

loop_
_symmetry_equiv_pos_as_xyz
  x,y,z

loop_
_atom_site_label
_atom_site_type_symbol
_atom_site_fract_x
_atom_site_fract_y
_atom_site_fract_z
_atom_site_charge
C 	C 	0.73582 0.32102 0.04859 0.13200
N 	N 	0.76965 0.37839 0.05428 -0.13800
C 	C 	0.74063 0.39226 0.06387 0.13500
N 	N 	0.67879 0.34941 0.06761 -0.14000
C 	C 	0.64533 0.29255 0.06231 0.13700
N 	N 	0.67370 0.27802 0.05294 -0.13800
C 	C 	0.74981 0.32372 0.56487 0.13300
N 	N 	0.69061 0.27691 0.57496 -0.13900
C 	C 	0.66181 0.28726 0.58869 0.13700
N 	N 	0.69178 0.34407 0.59218 -0.14000
C 	C 	0.75030 0.39111 0.58166 0.13400
N 	N 	0.77978 0.38123 0.56795 -0.13800
C 	C 	0.27213 0.64779 0.28593 0.13100
N 	N 	0.23312 0.58749 0.28496 -0.13800
C 	C 	0.25557 0.56503 0.27806 0.13500
N 	N 	0.31600 0.60256 0.27180 -0.14000
C 	C 	0.35426 0.66259 0.27150 0.13500
N 	N 	0.33255 0.68550 0.27859 -0.14000
C 	C 	0.27714 0.64265 0.77489 0.13100
N 	N 	0.24370 0.58259 0.77597 -0.13800
C 	C 	0.27135 0.56504 0.76935 0.13400
N 	N 	0.33146 0.60704 0.76159 -0.14000
C 	C 	0.36442 0.66664 0.75981 0.13500
N 	N 	0.33743 0.68476 0.76639 -0.14000
Co	Co	0.07555 0.97926 0.17773 1.17700
Co	Co	0.90734 0.97584 0.13369 1.17500
Co	Co	0.02822 0.02806 0.21175 1.18700
Co	Co	0.96130 0.94124 0.09237 1.18000
C 	C 	0.07359 0.86546 0.21669 0.31400
Co	Co	0.05665 0.91401 0.10632 1.17000
Co	Co	0.91639 0.02876 0.20871 1.17400
C 	C 	0.01716 0.97842 0.00602 0.29000
O 	O 	0.98420 0.11928 0.18003 -0.39000
O 	O 	0.95395 0.01057 0.18202 -0.75000
C 	C 	0.04601 0.14488 0.20035 0.30900
O 	O 	0.10035 0.02330 0.22601 -0.45200
O 	O 	0.88745 0.94226 0.07967 -0.47100
C 	C 	0.86255 0.05253 0.09865 0.32700
O 	O 	0.00350 0.00075 0.14315 -0.57000
C 	C 	0.99595 0.99806 0.30562 0.26900
C 	C 	0.18218 0.02615 0.13925 0.34500
C 	C 	0.91643 0.82147 0.09136 0.32800
O 	O 	0.07403 0.12069 0.20689 -0.37400
O 	O 	0.15208 0.96827 0.14268 -0.42500
O 	O 	0.15993 0.04258 0.15225 -0.38200
O 	O 	0.84703 0.02290 0.14224 -0.40600
O 	O 	0.89106 0.04227 0.08629 -0.37900
O 	O 	0.98120 0.03687 0.27855 -0.38200
O 	O 	0.00694 0.97907 0.28353 -0.38600
O 	O 	0.96366 0.85587 0.06945 -0.41500
O 	O 	0.91086 0.84616 0.11176 -0.40000
O 	O 	0.03206 0.95160 0.12513 -0.76100
C 	C 	0.81310 0.90000 0.20152 0.31200
O 	O 	0.85483 0.93502 0.23392 -0.40400
O 	O 	0.83177 0.89891 0.17055 -0.39000
O 	O 	0.03852 0.84924 0.17366 -0.39500
O 	O 	0.07444 0.90223 0.22874 -0.39100
O 	O 	0.06794 0.98139 0.03984 -0.39500
O 	O 	0.97514 0.97292 0.01867 -0.37700
Co	Co	0.07944 0.96361 0.68645 1.18000
Co	Co	0.93500 0.99699 0.63585 1.17600
Co	Co	0.04120 0.01450 0.72744 1.18800
Co	Co	0.97542 0.94921 0.59421 1.17900
C 	C 	0.05857 0.84237 0.71315 0.31500
Co	Co	0.05586 0.90603 0.60569 1.16900
Co	Co	0.94638 0.04144 0.71894 1.17700
C 	C 	0.03524 0.98774 0.51009 0.29300
O 	O 	0.03572 0.08825 0.76589 -0.40600
O 	O 	0.97782 0.01777 0.69129 -0.74700
C 	C 	0.08834 0.12571 0.74984 0.32100
O 	O 	0.10366 0.99703 0.74263 -0.47200
O 	O 	0.91247 0.96600 0.57881 -0.47200
C 	C 	0.94095 0.11093 0.61204 0.31400
O 	O 	0.02223 0.00197 0.65251 -0.56800
C 	C 	0.97145 0.95903 0.80987 0.28800
C 	C 	0.18642 0.00402 0.65259 0.34300
C 	C 	0.91470 0.82837 0.58258 0.32600
O 	O 	0.10278 0.10560 0.73248 -0.38200
O 	O 	0.14983 0.94741 0.64860 -0.42200
O 	O 	0.16838 0.02131 0.66932 -0.38100
O 	O 	0.97322 0.11666 0.65861 -0.39400
O 	O 	0.92938 0.07195 0.59379 -0.36800
O 	O 	0.92471 0.96345 0.77693 -0.39800
O 	O 	0.00728 0.95869 0.79508 -0.38200
O 	O 	0.96302 0.86093 0.56242 -0.41500
O 	O 	0.91241 0.85412 0.60464 -0.40000
O 	O 	0.03920 0.94697 0.62908 -0.76000
C 	C 	0.82409 0.93804 0.67358 0.32500
O 	O 	0.85360 0.99393 0.67546 -0.42000
O 	O 	0.85216 0.92558 0.66311 -0.40200
O 	O 	0.02628 0.83355 0.66751 -0.39500
O 	O 	0.06212 0.87772 0.72939 -0.39000
O 	O 	0.08030 0.98168 0.54521 -0.39700
O 	O 	0.99555 0.98606 0.52208 -0.37800
C 	C 	0.98590 0.95775 0.86362 -0.09700
C 	C 	0.04545 0.00650 0.88409 -0.00100
C 	C 	0.05443 0.01692 0.92802 0.04400
C 	C 	0.00428 0.97635 0.95379 -0.07900
C 	C 	0.94521 0.92667 0.93403 -0.03300
C 	C 	0.93593 0.91694 0.88958 0.04100
S 	S 	0.12723 0.08316 0.94828 -0.02800
S 	S 	0.86228 0.85211 0.86797 -0.03600
H 	H 	0.82071 0.86731 0.83490 0.04100
H 	H 	0.17010 0.06973 0.98176 0.04400
H 	H 	0.08393 0.03847 0.86436 0.04700
H 	H 	0.90702 0.89425 0.95410 0.05000
C 	C 	0.01050 0.98471 0.36180 -0.07400
C 	C 	0.07003 0.02961 0.38634 -0.01100
C 	C 	0.07744 0.03362 0.43300 0.05000
C 	C 	0.02529 0.99101 0.45679 -0.08600
C 	C 	0.96680 0.94407 0.43362 -0.02600
C 	C 	0.95951 0.94023 0.38692 0.02600
S 	S 	0.15120 0.09443 0.45956 -0.03000
S 	S 	0.88596 0.87967 0.36012 -0.03400
H 	H 	0.84416 0.89540 0.33328 0.04000
H 	H 	0.19033 0.07604 0.49147 0.04400
H 	H 	0.10944 0.06434 0.36740 0.04600
H 	H 	0.92724 0.90958 0.45239 0.04900
C 	C 	0.17585 0.29881 0.75241 -0.00800
C 	C 	0.20644 0.31362 0.79939 -0.02700
C 	C 	0.21656 0.36265 0.80459 -0.04200
C 	C 	0.19611 0.39722 0.76286 0.01800
C 	C 	0.16624 0.38293 0.71573 -0.04200
C 	C 	0.15609 0.33387 0.71053 -0.02700
C 	C 	0.15278 0.24077 0.74977 0.05300
C 	C 	0.12759 0.18955 0.74883 -0.10700
C 	C 	0.21554 0.45329 0.76638 0.00700
C 	C 	0.23704 0.50277 0.76848 -0.03600
H 	H 	0.22091 0.28619 0.83220 0.04300
H 	H 	0.24092 0.37414 0.84093 0.04700
H 	H 	0.15147 0.41017 0.68300 0.04600
H 	H 	0.13137 0.32216 0.67426 0.04300
C 	C 	0.53759 0.77418 0.72691 0.01700
C 	C 	0.54133 0.79775 0.67622 -0.04300
C 	C 	0.59620 0.82181 0.66414 -0.02700
C 	C 	0.64758 0.82231 0.70268 -0.01000
C 	C 	0.64353 0.79815 0.75334 -0.02700
C 	C 	0.58870 0.77414 0.76542 -0.04300
C 	C 	0.47787 0.74164 0.73888 0.00600
C 	C 	0.42665 0.71032 0.74871 -0.03800
C 	C 	0.70829 0.85758 0.69106 0.05300
C 	C 	0.76058 0.89142 0.68229 -0.11300
H 	H 	0.50153 0.79689 0.64615 0.04500
H 	H 	0.59930 0.84126 0.62491 0.04000
H 	H 	0.68343 0.79923 0.78343 0.03900
H 	H 	0.58571 0.75494 0.80466 0.04600
C 	C 	0.14601 0.75691 0.78358 -0.00800
C 	C 	0.10713 0.69443 0.78432 -0.02800
C 	C 	0.13382 0.66842 0.78748 -0.04300
C 	C 	0.19962 0.70463 0.79019 0.01800
C 	C 	0.23919 0.76595 0.79280 -0.04300
C 	C 	0.21249 0.79199 0.78954 -0.02800
C 	C 	0.11641 0.78760 0.76530 0.04900
C 	C 	0.09058 0.81310 0.74501 -0.10900
C 	C 	0.22559 0.68067 0.78583 0.00400
C 	C 	0.24825 0.66222 0.78121 -0.03400
H 	H 	0.05572 0.66687 0.77965 0.04200
H 	H 	0.10291 0.62084 0.78592 0.04700
H 	H 	0.29021 0.79416 0.79541 0.04500
H 	H 	0.24301 0.84027 0.78893 0.04000
C 	C 	0.13056 0.30169 0.23426 -0.00600
C 	C 	0.11380 0.34106 0.19677 -0.02800
C 	C 	0.12842 0.38865 0.20845 -0.04200
C 	C 	0.16001 0.39735 0.25769 0.01800
C 	C 	0.17593 0.35739 0.29541 -0.04100
C 	C 	0.16106 0.30957 0.28376 -0.02700
C 	C 	0.10807 0.24823 0.22344 0.04800
C 	C 	0.08381 0.20198 0.21333 -0.10000
C 	C 	0.18698 0.45359 0.26688 0.00700
C 	C 	0.21459 0.50317 0.27301 -0.03600
H 	H 	0.08892 0.33448 0.15866 0.04200
H 	H 	0.11666 0.41972 0.17888 0.04600
H 	H 	0.20116 0.36422 0.33343 0.04700
H 	H 	0.17296 0.27858 0.31325 0.04400
C 	C 	0.63176 0.79774 0.21615 -0.00900
C 	C 	0.61856 0.75902 0.26374 -0.02800
C 	C 	0.56561 0.73846 0.27616 -0.04300
C 	C 	0.52533 0.75630 0.24102 0.01700
C 	C 	0.53768 0.79403 0.19304 -0.04300
C 	C 	0.59089 0.81485 0.18068 -0.02800
C 	C 	0.69312 0.82909 0.20768 0.05000
C 	C 	0.74681 0.85894 0.20316 -0.11000
C 	C 	0.46679 0.72904 0.25184 0.00600
C 	C 	0.41631 0.70181 0.26106 -0.03800
H 	H 	0.65036 0.74624 0.29164 0.04200
H 	H 	0.55566 0.70830 0.31298 0.04600
H 	H 	0.50604 0.80703 0.16527 0.04500
H 	H 	0.60119 0.84545 0.14403 0.04000
C 	C 	0.20990 0.72307 0.30298 0.01800
C 	C 	0.14687 0.68836 0.30706 -0.04300
C 	C 	0.12356 0.71762 0.30366 -0.02800
C 	C 	0.16295 0.78185 0.29571 -0.00800
C 	C 	0.22746 0.81584 0.29557 -0.02900
C 	C 	0.25082 0.78657 0.29909 -0.04300
C 	C 	0.23076 0.69475 0.29806 0.00400
C 	C 	0.24889 0.67240 0.29290 -0.03500
C 	C 	0.13363 0.81331 0.27494 0.04800
C 	C 	0.10724 0.83845 0.25206 -0.10700
H 	H 	0.11509 0.63915 0.31076 0.04700
H 	H 	0.07369 0.69081 0.30395 0.04300
H 	H 	0.25844 0.86541 0.28956 0.03900
H 	H 	0.29989 0.81370 0.29660 0.04500
C 	C 	0.87768 0.21777 0.54172 -0.00600
C 	C 	0.81186 0.19167 0.52337 -0.02700
C 	C 	0.78829 0.22037 0.52050 -0.04100
C 	C 	0.83040 0.27529 0.53602 0.01800
C 	C 	0.89672 0.30401 0.55027 -0.04200
C 	C 	0.92033 0.27548 0.55287 -0.02800
C 	C 	0.89908 0.17987 0.56035 0.05000
C 	C 	0.91768 0.14800 0.58078 -0.10000
C 	C 	0.80494 0.29671 0.54456 0.00600
C 	C 	0.78144 0.31130 0.55319 -0.03400
H 	H 	0.77849 0.14732 0.51435 0.04600
H 	H 	0.73697 0.19816 0.50885 0.04900
H 	H 	0.92975 0.34679 0.56180 0.04600
H 	H 	0.97135 0.29628 0.56679 0.04100
C 	C 	0.80893 0.55246 0.58791 0.01800
C 	C 	0.77572 0.57719 0.54996 -0.04300
C 	C 	0.78431 0.62549 0.55485 -0.02700
C 	C 	0.82640 0.64965 0.59762 -0.00900
C 	C 	0.85760 0.62319 0.63652 -0.02700
C 	C 	0.84888 0.57475 0.63168 -0.04300
C 	C 	0.79517 0.49896 0.58484 0.00600
C 	C 	0.77861 0.45153 0.58275 -0.03600
C 	C 	0.84984 0.70973 0.59558 0.05500
C 	C 	0.87540 0.76282 0.59131 -0.11200
H 	H 	0.74334 0.55910 0.51660 0.04700
H 	H 	0.76037 0.64587 0.52437 0.04100
H 	H 	0.89073 0.64186 0.66952 0.04300
H 	H 	0.87339 0.55481 0.66184 0.04500
C 	C 	0.48230 0.16371 0.61378 0.01900
C 	C 	0.43033 0.15807 0.57297 -0.04200
C 	C 	0.37182 0.12974 0.58176 -0.02400
C 	C 	0.36499 0.10690 0.63142 -0.01000
C 	C 	0.41645 0.11123 0.67227 -0.02400
C 	C 	0.47503 0.13966 0.66347 -0.04200
C 	C 	0.54523 0.20296 0.60476 0.00800
C 	C 	0.59841 0.23930 0.59725 -0.03600
C 	C 	0.30348 0.07390 0.64031 0.05900
C 	C 	0.25071 0.04382 0.64667 -0.11100
H 	H 	0.43576 0.17707 0.53444 0.04800
H 	H 	0.33183 0.12556 0.55000 0.04100
H 	H 	0.41114 0.09269 0.71079 0.04400
H 	H 	0.51519 0.14437 0.69523 0.04800
C 	C 	0.84631 0.19349 0.03345 -0.01100
C 	C 	0.89014 0.24176 0.05788 -0.02400
C 	C 	0.87305 0.27622 0.05481 -0.04500
C 	C 	0.81229 0.26298 0.02689 0.02400
C 	C 	0.77096 0.21868 0.99863 -0.05000
C 	C 	0.78794 0.18406 0.00188 -0.01800
C 	C 	0.85401 0.14555 0.05056 0.05700
C 	C 	0.85885 0.10370 0.06946 -0.10700
C 	C 	0.78848 0.28737 0.03349 0.00500
C 	C 	0.76610 0.30466 0.04003 -0.03300
H 	H 	0.93561 0.24980 0.08209 0.04200
H 	H 	0.90568 0.31086 0.07630 0.04700
H 	H 	0.72420 0.20864 0.97640 0.05000
H 	H 	0.75390 0.14725 0.98252 0.04100
C 	C 	0.82855 0.64485 0.10018 -0.01000
C 	C 	0.86085 0.61829 0.13577 -0.02700
C 	C 	0.85127 0.57164 0.12695 -0.04300
C 	C 	0.80950 0.55142 0.08242 0.01800
C 	C 	0.77548 0.57637 0.04779 -0.04200
C 	C 	0.78472 0.62265 0.05676 -0.02600
C 	C 	0.85239 0.70374 0.10140 0.05500
C 	C 	0.87782 0.75620 0.09899 -0.11200
C 	C 	0.79379 0.49883 0.07578 0.00700
C 	C 	0.77420 0.45196 0.07002 -0.03600
H 	H 	0.89533 0.63549 0.16924 0.04200
H 	H 	0.87638 0.55139 0.15466 0.04600
H 	H 	0.74168 0.55977 0.01396 0.04700
H 	H 	0.75993 0.64316 0.02880 0.04200
C 	C 	0.35677 0.13342 0.10955 -0.01000
C 	C 	0.40653 0.13149 0.14864 -0.02400
C 	C 	0.46157 0.15472 0.13752 -0.04200
C 	C 	0.46726 0.18017 0.08724 0.01900
C 	C 	0.41729 0.18171 0.04808 -0.04200
C 	C 	0.36212 0.15829 0.05920 -0.02500
C 	C 	0.29652 0.10103 0.12036 0.06000
C 	C 	0.24487 0.06970 0.12930 -0.11300
C 	C 	0.52837 0.21455 0.07690 0.00900
C 	C 	0.58115 0.24745 0.06942 -0.03600
H 	H 	0.40222 0.11124 0.18759 0.04400
H 	H 	0.50039 0.15419 0.16808 0.04900
H 	H 	0.42171 0.20216 0.00916 0.04800
H 	H 	0.32327 0.15880 0.02867 0.04100
