data_crystal

_cell_length_a 29.98752
_cell_length_b 30.37643
_cell_length_c 34.88893
_cell_angle_alpha 95.52048
_cell_angle_beta  95.52171
_cell_angle_gamma 125.59646

_symmetry_space_group_name_	'P 1'
_symmetry_space_group_name_H-M	'P 1'

loop_
_symmetry_equiv_pos_as_xyz
  x,y,z

loop_
_atom_site_label
_atom_site_type_symbol
_atom_site_fract_x
_atom_site_fract_y
_atom_site_fract_z
_atom_site_charge
C 	C 	0.97726 0.02601 0.00533 0.11600
N 	N 	0.94999 0.97102 0.00412 -0.13900
C 	C 	0.97786 0.94845 0.00172 0.13000
N 	N 	0.03327 0.98109 0.00099 -0.14000
C 	C 	0.06083 0.03599 0.00233 0.11700
N 	N 	0.03277 0.05843 0.00421 -0.14000
C 	C 	0.93664 0.99650 0.43869 0.12300
N 	N 	0.90992 0.94299 0.44252 -0.14100
C 	C 	0.93950 0.92284 0.45006 0.11900
N 	N 	0.99594 0.95637 0.45356 -0.14100
C 	C 	0.02276 0.00969 0.44934 0.11600
N 	N 	0.99306 0.02970 0.44202 -0.14200
Cu	Cu	0.64682 0.25251 0.99847 0.92400
Cu	Cu	0.70551 0.26314 0.92156 0.86900
Cu	Cu	0.68404 0.34359 0.95047 0.89500
Cu	Cu	0.63531 0.34764 0.02069 0.89500
C 	C 	0.64479 0.28507 0.07817 0.27700
O 	O 	0.56313 0.21407 0.99008 -0.36700
C 	C 	0.67882 0.31134 0.86645 0.27900
O 	O 	0.68758 0.33791 0.00465 -0.63700
O 	O 	0.64846 0.26273 0.94330 -0.64200
O 	O 	0.68606 0.21736 0.00080 -0.36300
O 	O 	0.75259 0.27858 0.96911 -0.44100
O 	O 	0.61909 0.30554 0.06450 -0.38300
O 	O 	0.72172 0.42240 0.96165 -0.38400
C 	C 	0.70933 0.44789 0.98638 0.28500
C 	C 	0.54062 0.23588 0.97392 0.28300
O 	O 	0.57277 0.28778 0.97042 -0.39600
O 	O 	0.66658 0.42024 0.00449 -0.39000
O 	O 	0.65616 0.25776 0.05428 -0.35700
C 	C 	0.73571 0.24143 0.99149 0.27100
O 	O 	0.69497 0.35147 0.89590 -0.38800
O 	O 	0.67594 0.26764 0.87241 -0.41800
H 	H 	0.72557 0.36279 0.02085 0.16300
H 	H 	0.61159 0.23977 0.92555 0.17100
Cu	Cu	0.72689 0.34008 0.44661 0.92700
Cu	Cu	0.73453 0.29890 0.52924 0.87000
Cu	Cu	0.64158 0.30515 0.50062 0.89700
Cu	Cu	0.62134 0.33844 0.42612 0.89200
C 	C 	0.67759 0.32209 0.36650 0.27700
O 	O 	0.75851 0.42029 0.44848 -0.36400
C 	C 	0.68546 0.32349 0.58506 0.27900
O 	O 	0.64059 0.29477 0.44556 -0.64100
O 	O 	0.72400 0.34636 0.50327 -0.64100
O 	O 	0.76846 0.30739 0.44564 -0.37600
O 	O 	0.71701 0.24710 0.48449 -0.44300
O 	O 	0.65618 0.34742 0.37868 -0.38200
O 	O 	0.56111 0.26152 0.49377 -0.38300
C 	C 	0.52906 0.26554 0.46781 0.28800
C 	C 	0.73601 0.44175 0.46509 0.28300
O 	O 	0.68464 0.40918 0.47115 -0.39100
O 	O 	0.55087 0.30579 0.44744 -0.39600
O 	O 	0.71484 0.32254 0.39054 -0.35900
C 	C 	0.75038 0.26175 0.45896 0.28900
O 	O 	0.64153 0.30204 0.55691 -0.38700
O 	O 	0.73189 0.33228 0.57732 -0.41800
H 	H 	0.61674 0.25569 0.43212 0.16200
H 	H 	0.74601 0.38454 0.51826 0.17100
C 	C 	0.57993 0.23925 0.72935 -0.04300
C 	C 	0.58080 0.24120 0.68950 -0.04400
C 	C 	0.62767 0.28555 0.67769 0.01500
C 	C 	0.67314 0.32927 0.70621 -0.00900
C 	C 	0.67198 0.32761 0.74635 -0.00900
C 	C 	0.62576 0.28180 0.75792 0.01400
C 	C 	0.71802 0.37069 0.77488 0.01400
C 	C 	0.76424 0.41577 0.76309 -0.04400
C 	C 	0.76565 0.41712 0.72319 -0.04400
C 	C 	0.72069 0.37358 0.69459 0.01400
C 	C 	0.72348 0.37282 0.65461 -0.02700
C 	C 	0.67907 0.32827 0.62626 -0.06300
C 	C 	0.63055 0.28563 0.63779 -0.02800
C 	C 	0.62689 0.27811 0.79774 -0.02600
C 	C 	0.67364 0.31992 0.82601 -0.06300
C 	C 	0.71826 0.36700 0.81469 -0.02700
H 	H 	0.54393 0.20420 0.73796 0.03600
H 	H 	0.54542 0.20767 0.66781 0.03700
H 	H 	0.79960 0.44932 0.78478 0.03600
H 	H 	0.80208 0.45168 0.71458 0.03600
H 	H 	0.76055 0.40610 0.64558 0.03900
H 	H 	0.59620 0.25139 0.61583 0.04200
H 	H 	0.59225 0.24210 0.80667 0.03600
H 	H 	0.75420 0.39933 0.83665 0.04000
C 	C 	0.75815 0.32753 0.24869 -0.04200
C 	C 	0.75350 0.32238 0.20789 -0.04300
C 	C 	0.70222 0.30101 0.18386 0.01700
C 	C 	0.65486 0.28314 0.20091 -0.00900
C 	C 	0.65952 0.28822 0.24193 -0.00800
C 	C 	0.71156 0.31132 0.26595 0.01600
C 	C 	0.61255 0.27194 0.25900 0.01500
C 	C 	0.56090 0.24907 0.23491 -0.04300
C 	C 	0.55630 0.24411 0.19419 -0.04300
C 	C 	0.60327 0.26189 0.17704 0.01600
C 	C 	0.59970 0.26033 0.13651 -0.02600
C 	C 	0.64730 0.28018 0.11969 -0.05500
C 	C 	0.69807 0.29898 0.14316 -0.02900
C 	C 	0.71678 0.31970 0.30694 -0.02400
C 	C 	0.67051 0.30572 0.32395 -0.05700
C 	C 	0.61822 0.28046 0.29993 -0.02800
H 	H 	0.79820 0.34486 0.26685 0.03900
H 	H 	0.79001 0.33578 0.19508 0.03900
H 	H 	0.52445 0.23592 0.24773 0.03600
H 	H 	0.51634 0.22718 0.17605 0.03800
H 	H 	0.56029 0.24483 0.11813 0.04500
H 	H 	0.73461 0.31379 0.12998 0.04000
H 	H 	0.75711 0.33897 0.32551 0.04900
H 	H 	0.58239 0.26887 0.31316 0.03100
C 	C 	0.91039 0.86453 0.45410 -0.02600
C 	C 	0.85900 0.83619 0.46690 -0.01500
C 	C 	0.83150 0.78101 0.47053 -0.05900
C 	C 	0.85541 0.75385 0.46201 0.03300
C 	C 	0.90657 0.78197 0.44903 -0.05800
C 	C 	0.93396 0.83700 0.44516 -0.01500
C 	C 	0.82472 0.69478 0.46395 -0.04800
C 	C 	0.84979 0.67634 0.48349 -0.05600
C 	C 	0.82145 0.61660 0.48153 0.04700
C 	C 	0.85005 0.59417 0.47368 -0.07700
C 	C 	0.82286 0.53738 0.46971 0.01800
C 	C 	0.76666 0.50235 0.47370 -0.09300
C 	C 	0.73898 0.52531 0.48368 0.01600
C 	C 	0.76635 0.58216 0.48779 -0.07600
H 	H 	0.84045 0.85690 0.47421 0.03800
H 	H 	0.79170 0.75944 0.48011 0.04300
H 	H 	0.92467 0.76093 0.44132 0.04400
H 	H 	0.97309 0.85793 0.43468 0.03900
H 	H 	0.78125 0.66623 0.44939 0.04100
H 	H 	0.89321 0.70516 0.49817 0.04300
H 	H 	0.89303 0.62061 0.46980 0.04700
H 	H 	0.84528 0.52062 0.46295 0.03300
H 	H 	0.69602 0.49914 0.48761 0.03000
H 	H 	0.74459 0.59933 0.49552 0.04700
C 	C 	0.90468 0.01891 0.43190 -0.03100
C 	C 	0.85605 0.99856 0.44756 -0.00900
C 	C 	0.82764 0.02194 0.44302 -0.06300
C 	C 	0.84784 0.06626 0.42323 0.03500
C 	C 	0.89526 0.08537 0.40635 -0.06000
C 	C 	0.92365 0.06195 0.41077 -0.01300
C 	C 	0.81894 0.09231 0.42024 -0.04900
C 	C 	0.84725 0.14711 0.43139 -0.05600
C 	C 	0.81785 0.17273 0.43399 0.04600
C 	C 	0.83997 0.22309 0.42161 -0.07800
C 	C 	0.81667 0.25118 0.42831 0.01900
C 	C 	0.77121 0.22938 0.44787 -0.10000
C 	C 	0.74796 0.17803 0.45911 0.01600
C 	C 	0.77152 0.15022 0.45264 -0.07800
H 	H 	0.84087 0.96540 0.46390 0.03600
H 	H 	0.79061 0.00640 0.45565 0.04200
H 	H 	0.91020 0.11843 0.38993 0.04400
H 	H 	0.96034 0.07725 0.39777 0.03700
H 	H 	0.77366 0.06608 0.41210 0.04100
H 	H 	0.89260 0.17339 0.43890 0.04200
H 	H 	0.87590 0.24098 0.40742 0.04700
H 	H 	0.83492 0.29049 0.41919 0.03500
H 	H 	0.71246 0.16022 0.47373 0.02500
H 	H 	0.75481 0.11205 0.46322 0.04500
C 	C 	0.08387 0.04556 0.45229 -0.02600
C 	C 	0.10825 0.08317 0.42689 -0.01500
C 	C 	0.16611 0.11642 0.42918 -0.05900
C 	C 	0.20013 0.11216 0.45667 0.03300
C 	C 	0.17590 0.07550 0.48275 -0.05800
C 	C 	0.11802 0.04204 0.48033 -0.01600
C 	C 	0.26137 0.14819 0.45918 -0.04800
C 	C 	0.29091 0.12784 0.46179 -0.05600
C 	C 	0.35190 0.16381 0.46354 0.04700
C 	C 	0.38720 0.16445 0.49336 -0.07700
C 	C 	0.44492 0.19767 0.49491 0.01800
C 	C 	0.46792 0.23017 0.46625 -0.09100
C 	C 	0.43223 0.22851 0.43588 0.01700
C 	C 	0.37458 0.19549 0.43454 -0.07700
H 	H 	0.08235 0.08623 0.40509 0.03700
H 	H 	0.18446 0.14514 0.40934 0.04200
H 	H 	0.20190 0.07332 0.50510 0.04300
H 	H 	0.09981 0.01387 0.50054 0.03700
H 	H 	0.28206 0.19112 0.45676 0.04100
H 	H 	0.27039 0.08490 0.46407 0.04200
H 	H 	0.36996 0.13954 0.51556 0.04600
H 	H 	0.47165 0.19824 0.51847 0.03600
H 	H 	0.44904 0.25243 0.41313 0.02700
H 	H 	0.34751 0.19411 0.41075 0.04700
C 	C 	0.94814 0.88867 0.99993 -0.04000
C 	C 	0.89240 0.85118 0.98027 -0.01100
C 	C 	0.86536 0.79445 0.97681 -0.06000
C 	C 	0.89364 0.77469 0.99327 0.02600
C 	C 	0.94917 0.81209 0.01297 -0.05500
C 	C 	0.97619 0.86877 0.01655 -0.00400
C 	C 	0.86641 0.71487 0.98814 -0.04400
C 	C 	0.81554 0.68028 0.99676 -0.06400
C 	C 	0.79010 0.62109 0.99436 0.04400
C 	C 	0.76665 0.59532 0.02557 -0.07300
C 	C 	0.74129 0.53907 0.02326 0.02400
C 	C 	0.73841 0.50780 0.98940 -0.09700
C 	C 	0.76176 0.53362 0.95804 0.02000
C 	C 	0.78722 0.58992 0.96044 -0.07700
H 	H 	0.87044 0.86588 0.96693 0.03500
H 	H 	0.82282 0.76589 0.96077 0.04300
H 	H 	0.97140 0.79722 0.02558 0.04400
H 	H 	0.01898 0.89721 0.03215 0.03600
H 	H 	0.88980 0.69955 0.97998 0.03900
H 	H 	0.79429 0.69637 0.00835 0.05000
H 	H 	0.76834 0.61895 0.05174 0.04700
H 	H 	0.72384 0.51982 0.04777 0.02500
H 	H 	0.75924 0.50995 0.93154 0.03600
H 	H 	0.80400 0.60913 0.93576 0.04800
C 	C 	0.94678 0.05050 0.00860 -0.01100
C 	C 	0.88842 0.01736 0.99647 -0.04000
C 	C 	0.85927 0.03979 0.00110 -0.03700
C 	C 	0.88805 0.09573 0.01716 0.02700
C 	C 	0.94632 0.12906 0.02917 -0.05300
C 	C 	0.97557 0.10660 0.02491 -0.02100
C 	C 	0.85665 0.11871 0.02252 -0.04900
C 	C 	0.86833 0.16192 0.00638 -0.04300
C 	C 	0.83379 0.18210 0.00825 0.03300
C 	C 	0.85968 0.23894 0.01389 -0.06900
C 	C 	0.82750 0.25847 0.01045 0.00800
C 	C 	0.76901 0.22132 0.00127 -0.07700
C 	C 	0.74295 0.16450 0.99712 -0.01000
C 	C 	0.77513 0.14491 0.00009 -0.05200
H 	H 	0.86560 0.97422 0.98345 0.04300
H 	H 	0.81428 0.01373 0.99192 0.03200
H 	H 	0.96885 0.17215 0.04223 0.04300
H 	H 	0.02040 0.13262 0.03487 0.04000
H 	H 	0.82135 0.09782 0.03744 0.04300
H 	H 	0.90426 0.18321 0.99207 0.03400
H 	H 	0.90482 0.26798 0.02005 0.04400
H 	H 	0.84806 0.30244 0.01399 0.03000
H 	H 	0.69786 0.13539 0.98973 0.03100
H 	H 	0.75449 0.10087 0.99456 0.03500
C 	C 	0.47954 0.20617 0.96755 -0.09400
C 	C 	0.45337 0.21904 0.94003 0.01600
C 	C 	0.39721 0.19751 0.93833 -0.07800
C 	C 	0.36698 0.16349 0.96438 0.04700
C 	C 	0.39216 0.14810 0.99036 -0.08300
C 	C 	0.44815 0.16934 0.99196 0.01200
C 	C 	0.30898 0.14408 0.96451 -0.05600
C 	C 	0.29414 0.15363 0.99768 -0.05300
C 	C 	0.23483 0.12638 0.99999 0.02400
C 	C 	0.21289 0.09624 0.02976 -0.04900
C 	C 	0.15638 0.06844 0.03142 -0.02000
C 	C 	0.12141 0.07122 0.00365 -0.01600
C 	C 	0.14386 0.10357 0.97496 -0.02600
C 	C 	0.20042 0.13108 0.97310 -0.05400
H 	H 	0.47682 0.24664 0.92056 0.02800
H 	H 	0.37769 0.20853 0.91753 0.04600
H 	H 	0.36862 0.12049 0.00980 0.05300
H 	H 	0.46763 0.15877 0.01319 0.04100
H 	H 	0.27825 0.12162 0.93747 0.04300
H 	H 	0.32534 0.17672 0.02447 0.04600
H 	H 	0.23936 0.09328 0.05109 0.04100
H 	H 	0.13952 0.04396 0.05390 0.03800
H 	H 	0.11725 0.10615 0.95347 0.03700
H 	H 	0.21733 0.15559 0.95066 0.04100
