data_crystal

_cell_length_a 26.16735
_cell_length_b 26.39320
_cell_length_c 26.51217
_cell_angle_alpha 95.49437
_cell_angle_beta  95.49275
_cell_angle_gamma 125.83459

_symmetry_space_group_name_	'P 1'
_symmetry_space_group_name_H-M	'P 1'

loop_
_symmetry_equiv_pos_as_xyz
  x,y,z

loop_
_atom_site_label
_atom_site_type_symbol
_atom_site_fract_x
_atom_site_fract_y
_atom_site_fract_z
_atom_site_charge
C 	C 	0.97715 0.03608 0.00477 0.14000
N 	N 	0.03937 0.06907 0.99881 -0.12700
C 	C 	0.06751 0.03928 0.99548 0.14100
N 	N 	0.03348 0.97672 0.99808 -0.13200
C 	C 	0.97187 0.94395 0.00510 0.14700
N 	N 	0.94363 0.97363 0.00831 -0.13800
C 	C 	0.92961 0.99424 0.44096 0.15800
N 	N 	0.99432 0.03009 0.44483 -0.14200
C 	C 	0.02488 0.00286 0.44910 0.14900
N 	N 	0.99077 0.93975 0.44977 -0.13500
C 	C 	0.92614 0.90370 0.44605 0.15000
N 	N 	0.89551 0.93103 0.44203 -0.14100
Cu	Cu	0.64113 0.24273 0.99898 0.92800
Cu	Cu	0.69912 0.24815 0.89343 0.87500
Cu	Cu	0.68921 0.34936 0.93666 0.89900
Cu	Cu	0.64579 0.36266 0.03454 0.90400
C 	C 	0.65485 0.28695 0.10641 0.30000
O 	O 	0.54735 0.20723 0.99328 -0.34900
C 	C 	0.67179 0.30918 0.82429 0.30600
O 	O 	0.69718 0.34257 0.00779 -0.63500
O 	O 	0.63996 0.25470 0.92640 -0.64000
O 	O 	0.67771 0.19435 0.99694 -0.35500
O 	O 	0.75431 0.26113 0.95323 -0.44300
O 	O 	0.62865 0.31491 0.09250 -0.36800
O 	O 	0.74117 0.44136 0.95191 -0.37900
C 	C 	0.73450 0.47458 0.98766 0.30300
C 	C 	0.52652 0.23833 0.97599 0.30600
O 	O 	0.56797 0.29727 0.97061 -0.37900
O 	O 	0.68616 0.44647 0.01268 -0.36200
O 	O 	0.65605 0.24791 0.07222 -0.33600
C 	C 	0.73315 0.21813 0.98265 0.31200
O 	O 	0.69540 0.35652 0.86363 -0.38000
O 	O 	0.66518 0.25682 0.83066 -0.40000
H 	H 	0.74196 0.36784 0.02687 0.16900
H 	H 	0.59672 0.23125 0.90474 0.18600
Cu	Cu	0.72791 0.33273 0.43164 0.93200
Cu	Cu	0.73028 0.28556 0.54097 0.87400
Cu	Cu	0.62759 0.29455 0.49965 0.89900
Cu	Cu	0.60215 0.32008 0.39626 0.90000
C 	C 	0.67753 0.30991 0.32411 0.30400
O 	O 	0.75810 0.42350 0.43118 -0.33500
C 	C 	0.67527 0.31933 0.61240 0.30500
O 	O 	0.62793 0.27570 0.42793 -0.63900
O 	O 	0.72215 0.34162 0.50524 -0.64100
O 	O 	0.77810 0.29786 0.43558 -0.36000
O 	O 	0.71372 0.22616 0.48338 -0.43700
O 	O 	0.64897 0.33556 0.33759 -0.37100
O 	O 	0.53505 0.24396 0.49007 -0.38200
C 	C 	0.49770 0.24943 0.45752 0.31500
C 	C 	0.72708 0.44424 0.44954 0.30300
O 	O 	0.66790 0.40321 0.45612 -0.39200
O 	O 	0.51578 0.27432 0.41578 -0.37500
O 	O 	0.71758 0.31000 0.35852 -0.33900
C 	C 	0.75451 0.24399 0.45181 0.31400
O 	O 	0.62731 0.30026 0.57453 -0.37600
O 	O 	0.72689 0.32493 0.60335 -0.40000
H 	H 	0.60244 0.22976 0.41317 0.17400
H 	H 	0.74755 0.38589 0.52458 0.18600
C 	C 	0.71655 0.37394 0.75647 -0.03800
C 	C 	0.66485 0.31995 0.77136 -0.08500
C 	C 	0.61067 0.27244 0.73375 0.12500
C 	C 	0.61211 0.27536 0.68141 -0.03900
C 	C 	0.66701 0.32575 0.66628 -0.08500
C 	C 	0.71763 0.37724 0.70415 0.12500
Br	Br	0.78796 0.45279 0.68519 -0.23800
H 	H 	0.75724 0.41204 0.78537 0.06800
H 	H 	0.57177 0.23686 0.65249 0.06800
Br	Br	0.53416 0.20371 0.75315 -0.24100
C 	C 	0.62322 0.24317 0.23690 -0.03700
C 	C 	0.67821 0.29730 0.26911 -0.07800
C 	C 	0.72917 0.34368 0.24723 0.12900
C 	C 	0.72297 0.33739 0.19353 -0.03900
C 	C 	0.66614 0.28544 0.16138 -0.07700
C 	C 	0.61687 0.23710 0.18321 0.12800
Br	Br	0.53900 0.16431 0.14037 -0.20700
H 	H 	0.58413 0.20710 0.25357 0.06000
H 	H 	0.76124 0.37440 0.17685 0.05800
Br	Br	0.80585 0.41801 0.28998 -0.21200
C 	C 	0.86405 0.73250 0.40967 -0.10100
C 	C 	0.83306 0.70694 0.45069 -0.00400
C 	C 	0.82843 0.74494 0.48814 0.13900
C 	C 	0.85661 0.80872 0.48522 -0.06300
C 	C 	0.88946 0.83488 0.44509 -0.05700
C 	C 	0.89255 0.79629 0.40690 0.16900
C 	C 	0.80510 0.64016 0.45402 0.01200
O 	O 	0.79866 0.72059 0.52869 -0.27200
H 	H 	0.85440 0.83825 0.51492 0.06800
O 	O 	0.92208 0.82047 0.36620 -0.27800
H 	H 	0.86657 0.70304 0.38015 0.07700
C 	C 	0.73922 0.59203 0.43597 0.12000
C 	C 	0.71374 0.52835 0.43616 -0.03000
C 	C 	0.75385 0.51197 0.45339 -0.11600
C 	C 	0.81961 0.56034 0.47253 0.19700
C 	C 	0.84502 0.62412 0.47246 -0.11000
O 	O 	0.69957 0.60719 0.41841 -0.27200
H 	H 	0.66303 0.49153 0.42157 0.05500
O 	O 	0.85926 0.54539 0.49062 -0.28000
H 	H 	0.89584 0.66107 0.48640 0.08200
H 	H 	0.96697 0.83570 0.37696 0.16400
H 	H 	0.69989 0.60601 0.38094 0.15200
H 	H 	0.85801 0.54594 0.52793 0.15300
H 	H 	0.75326 0.70334 0.51704 0.16100
C 	C 	0.87965 0.09228 0.39314 -0.09300
C 	C 	0.84605 0.09288 0.43105 -0.00600
C 	C 	0.83628 0.05744 0.47035 0.13200
C 	C 	0.86096 0.02257 0.47191 -0.06900
C 	C 	0.89664 0.02390 0.43510 -0.06500
C 	C 	0.90475 0.05783 0.39493 0.16800
C 	C 	0.82331 0.13262 0.43076 0.01100
O 	O 	0.80261 0.05682 0.50720 -0.27900
H 	H 	0.85414 0.99620 0.50272 0.07200
O 	O 	0.93862 0.05869 0.35815 -0.27800
H 	H 	0.88697 0.11915 0.36263 0.08200
C 	C 	0.86697 0.19914 0.44657 0.11300
C 	C 	0.84446 0.23598 0.44992 -0.03100
C 	C 	0.77837 0.20670 0.43896 -0.12700
C 	C 	0.73490 0.14038 0.42152 0.19700
C 	C 	0.75755 0.10375 0.41701 -0.11200
O 	O 	0.93158 0.22816 0.45895 -0.26600
H 	H 	0.87824 0.28701 0.46317 0.05700
O 	O 	0.67043 0.11149 0.40784 -0.28700
H 	H 	0.72383 0.05268 0.40394 0.08300
H 	H 	0.90631 0.02194 0.33030 0.15300
H 	H 	0.94017 0.22898 0.49639 0.14300
H 	H 	0.65257 0.09741 0.43932 0.15200
H 	H 	0.83517 0.09300 0.53535 0.14300
C 	C 	0.18732 0.05995 0.42028 -0.09500
C 	C 	0.22835 0.11289 0.46016 -0.00500
C 	C 	0.20239 0.13032 0.49595 0.13700
C 	C 	0.13573 0.09494 0.49150 -0.06200
C 	C 	0.09471 0.04139 0.45209 -0.05600
C 	C 	0.12072 0.02428 0.41606 0.16000
C 	C 	0.29848 0.15029 0.46398 0.01200
O 	O 	0.24206 0.18245 0.53478 -0.27400
H 	H 	0.11596 0.10853 0.51919 0.06900
O 	O 	0.08114 0.97230 0.37709 -0.27300
H 	H 	0.20711 0.04656 0.39246 0.07000
C 	C 	0.33080 0.12505 0.47974 0.11500
C 	C 	0.39648 0.15875 0.47943 -0.02900
C 	C 	0.43028 0.21753 0.46308 -0.12000
C 	C 	0.39843 0.24409 0.44966 0.19600
C 	C 	0.33264 0.21007 0.44956 -0.11100
O 	O 	0.29848 0.06798 0.49629 -0.26800
H 	H 	0.42071 0.13832 0.49057 0.06200
O 	O 	0.43127 0.30275 0.43578 -0.28500
H 	H 	0.30803 0.22994 0.43782 0.08600
H 	H 	0.07242 0.98882 0.34800 0.15900
H 	H 	0.28343 0.03537 0.46510 0.14800
H 	H 	0.44718 0.33363 0.46839 0.15500
H 	H 	0.25048 0.16599 0.56406 0.15600
C 	C 	0.93348 0.78797 0.03121 -0.10400
C 	C 	0.87065 0.74470 0.00328 0.01400
C 	C 	0.83916 0.76724 0.97938 0.13100
C 	C 	0.87162 0.83269 0.98178 -0.07000
C 	C 	0.93545 0.87597 0.00806 -0.05100
C 	C 	0.96556 0.85339 0.03443 0.16300
C 	C 	0.83786 0.67583 0.99949 -0.00800
O 	O 	0.77619 0.72552 0.95492 -0.26900
H 	H 	0.84766 0.84963 0.96214 0.07000
O 	O 	0.02668 0.89518 0.06270 -0.27200
H 	H 	0.95749 0.77083 0.05044 0.07500
C 	C 	0.82693 0.63794 0.95271 0.12400
C 	C 	0.79425 0.57233 0.94920 -0.03300
C 	C 	0.77403 0.54438 0.99265 -0.12200
C 	C 	0.78872 0.58318 0.04027 0.19700
C 	C 	0.81943 0.64836 0.04324 -0.10000
O 	O 	0.84684 0.66474 0.91010 -0.27400
H 	H 	0.78374 0.54312 0.91249 0.07000
O 	O 	0.77234 0.55729 0.08377 -0.28700
H 	H 	0.82916 0.67767 0.07967 0.07800
H 	H 	0.02127 0.90521 0.09792 0.15500
H 	H 	0.89095 0.67727 0.91188 0.15000
H 	H 	0.80986 0.55984 0.09969 0.14700
H 	H 	0.77756 0.71575 0.91822 0.16200
C 	C 	0.91309 0.12696 0.96904 -0.10300
C 	C 	0.87938 0.12117 0.00886 -0.00200
C 	C 	0.88012 0.08973 0.04854 0.13800
C 	C 	0.91291 0.06274 0.04737 -0.06600
C 	C 	0.94591 0.06772 0.00714 -0.04700
C 	C 	0.94609 0.10020 0.96792 0.15600
C 	C 	0.84131 0.14592 0.00774 0.02200
O 	O 	0.84736 0.08381 0.08770 -0.27100
H 	H 	0.91258 0.03783 0.07770 0.07000
O 	O 	0.97824 0.10563 0.92840 -0.27200
H 	H 	0.91279 0.15130 0.93845 0.06600
C 	C 	0.87206 0.21185 0.01837 0.10900
C 	C 	0.83594 0.23507 0.01265 -0.01700
C 	C 	0.76915 0.19290 0.99587 -0.13900
C 	C 	0.73820 0.12679 0.98677 0.19700
C 	C 	0.77430 0.10362 0.99308 -0.12300
O 	O 	0.93727 0.25358 0.03514 -0.26500
H 	H 	0.86003 0.28597 0.02030 0.05600
O 	O 	0.67284 0.08483 0.97099 -0.27800
H 	H 	0.75036 0.05275 0.98518 0.08300
H 	H 	0.94652 0.06770 0.90125 0.14800
H 	H 	0.95561 0.26504 0.00345 0.14800
H 	H 	0.66551 0.07758 0.93274 0.13700
H 	H 	0.87859 0.12192 0.11485 0.15800
C 	C 	0.22262 0.13600 0.94570 -0.09500
C 	C 	0.26265 0.13045 0.97995 -0.01500
C 	C 	0.23959 0.09838 0.02110 0.14800
C 	C 	0.17657 0.07135 0.02735 -0.05800
C 	C 	0.13582 0.07530 0.99235 -0.05900
C 	C 	0.15916 0.10816 0.95153 0.16400
C 	C 	0.32930 0.15969 0.97366 0.01700
O 	O 	0.27910 0.09469 0.05591 -0.27000
H 	H 	0.15899 0.04638 0.05901 0.07500
O 	O 	0.12012 0.11309 0.91736 -0.27000
H 	H 	0.24049 0.16132 0.91427 0.07400
C 	C 	0.34560 0.12242 0.94958 0.11600
C 	C 	0.41016 0.14861 0.94973 -0.02500
C 	C 	0.45861 0.21216 0.97322 -0.11900
C 	C 	0.44198 0.24974 0.99638 0.19700
C 	C 	0.37749 0.22359 0.99587 -0.12100
O 	O 	0.29871 0.05971 0.92781 -0.27200
H 	H 	0.42253 0.11939 0.93190 0.06200
O 	O 	0.48875 0.31171 0.02027 -0.29000
H 	H 	0.36506 0.25243 0.01440 0.09100
H 	H 	0.09907 0.07548 0.88925 0.15200
H 	H 	0.28580 0.05978 0.89142 0.15000
H 	H 	0.49951 0.30974 0.05660 0.15000
H 	H 	0.27276 0.05476 0.04194 0.16500
