data_crystal

_cell_length_a 18.43659
_cell_length_b 18.89259
_cell_length_c 36.62227
_cell_angle_alpha 95.42774
_cell_angle_beta  95.43364
_cell_angle_gamma 126.53745

_symmetry_space_group_name_	'P 1'
_symmetry_space_group_name_H-M	'P 1'

loop_
_symmetry_equiv_pos_as_xyz
  x,y,z

loop_
_atom_site_label
_atom_site_type_symbol
_atom_site_fract_x
_atom_site_fract_y
_atom_site_fract_z
_atom_site_charge
C 	C 	0.91002 0.99722 0.96309 0.10800
N 	N 	0.00256 0.05126 0.96553 -0.13100
C 	C 	0.04939 0.01690 0.96744 0.11200
N 	N 	0.00355 0.92794 0.96649 -0.12400
C 	C 	0.91121 0.87297 0.96418 0.10100
N 	N 	0.86386 0.90757 0.96281 -0.13300
C 	C 	0.94074 0.02991 0.49956 0.09500
N 	N 	0.88367 0.93895 0.49395 -0.13300
C 	C 	0.91769 0.89252 0.48960 0.10100
N 	N 	0.00903 0.93712 0.49094 -0.12600
C 	C 	0.06658 0.02797 0.49663 0.10900
N 	N 	0.03241 0.07459 0.50078 -0.12800
Cu	Cu	0.76830 0.34911 0.96306 0.92500
Cu	Cu	0.75655 0.28298 0.04331 0.86700
Cu	Cu	0.62513 0.31009 0.01025 0.89700
Cu	Cu	0.59557 0.33877 0.93352 0.89600
C 	C 	0.70266 0.31593 0.88436 0.30800
O 	O 	0.81885 0.47959 0.96094 -0.35700
C 	C 	0.67894 0.33653 0.09187 0.30200
O 	O 	0.62497 0.27482 0.95918 -0.63800
O 	O 	0.75860 0.36665 0.01581 -0.64300
O 	O 	0.82759 0.28789 0.96809 -0.36900
O 	O 	0.72609 0.19432 0.00264 -0.44200
O 	O 	0.66502 0.35543 0.89238 -0.38800
O 	O 	0.49366 0.24586 0.00335 -0.38600
C 	C 	0.43964 0.23700 0.97389 0.29500
C 	C 	0.77512 0.51138 0.97166 0.27700
O 	O 	0.69031 0.45558 0.97658 -0.39700
O 	O 	0.47280 0.28274 0.94684 -0.39500
O 	O 	0.75499 0.31355 0.91057 -0.36600
C 	C 	0.78540 0.21216 0.98093 0.28300
O 	O 	0.62751 0.33602 0.06391 -0.37900
O 	O 	0.75196 0.34195 0.08726 -0.42300
H 	H 	0.58508 0.20921 0.94990 0.16500
H 	H 	0.79897 0.42961 0.02942 0.17400
Cu	Cu	0.61519 0.20394 0.50935 0.92900
Cu	Cu	0.67005 0.20268 0.42711 0.86700
Cu	Cu	0.64793 0.33648 0.45966 0.89800
Cu	Cu	0.63144 0.37558 0.53758 0.89600
C 	C 	0.65907 0.27486 0.58781 0.30800
O 	O 	0.48602 0.15802 0.51470 -0.36300
C 	C 	0.61473 0.27796 0.37845 0.30100
O 	O 	0.69185 0.34249 0.51047 -0.64000
O 	O 	0.58955 0.20664 0.45621 -0.64200
O 	O 	0.66835 0.13890 0.50324 -0.37500
O 	O 	0.76278 0.23103 0.46655 -0.44300
O 	O 	0.61960 0.31270 0.58010 -0.38700
O 	O 	0.71397 0.46408 0.46432 -0.38900
C 	C 	0.71485 0.51765 0.49063 0.29500
C 	C 	0.45083 0.19727 0.50280 0.28100
O 	O 	0.50554 0.28017 0.49741 -0.39900
O 	O 	0.69012 0.49444 0.52285 -0.39500
O 	O 	0.65966 0.22265 0.56147 -0.36500
C 	C 	0.74374 0.17509 0.48936 0.28900
O 	O 	0.61442 0.32830 0.40599 -0.38000
O 	O 	0.60754 0.20608 0.38348 -0.42100
H 	H 	0.75960 0.38122 0.51810 0.16600
H 	H 	0.52394 0.16658 0.44395 0.17500
C 	C 	0.71429 0.27153 0.77465 -0.00500
C 	C 	0.63686 0.19650 0.75006 -0.03400
C 	C 	0.63187 0.19174 0.71147 -0.03400
C 	C 	0.70429 0.26205 0.69732 -0.00400
C 	C 	0.78458 0.33376 0.72187 -0.03500
C 	C 	0.78960 0.33849 0.76048 -0.03400
C 	C 	0.69063 0.26716 0.65858 0.04500
C 	C 	0.67793 0.27030 0.62607 -0.10400
C 	C 	0.71078 0.28624 0.81353 0.04500
C 	C 	0.70778 0.29850 0.84608 -0.10500
H 	H 	0.57871 0.14404 0.76079 0.04000
H 	H 	0.56990 0.13562 0.69266 0.04200
H 	H 	0.84126 0.38795 0.71114 0.03800
H 	H 	0.85014 0.39630 0.77931 0.04000
C 	C 	0.61143 0.32631 0.27234 -0.00600
C 	C 	0.69068 0.40268 0.26405 -0.03600
C 	C 	0.69950 0.41078 0.22688 -0.03500
C 	C 	0.62910 0.34260 0.19784 -0.00600
C 	C 	0.54717 0.26937 0.20613 -0.03500
C 	C 	0.53836 0.26123 0.24333 -0.03500
C 	C 	0.64607 0.34136 0.16029 0.04300
C 	C 	0.66044 0.34046 0.12888 -0.11100
C 	C 	0.61058 0.30881 0.30978 0.04300
C 	C 	0.61090 0.29510 0.34125 -0.11100
H 	H 	0.74714 0.45372 0.28634 0.03700
H 	H 	0.76274 0.46798 0.22070 0.03800
H 	H 	0.49205 0.21674 0.18383 0.03900
H 	H 	0.47652 0.20237 0.24951 0.04000
C 	C 	0.73729 0.66136 0.50688 0.00800
C 	C 	0.75801 0.61085 0.48641 -0.08300
C 	C 	0.82444 0.65153 0.46374 0.00800
C 	C 	0.87344 0.74284 0.46334 -0.04900
C 	C 	0.85679 0.79448 0.48566 0.00100
C 	C 	0.78660 0.75282 0.50657 -0.04800
H 	H 	0.68445 0.63025 0.52369 0.03400
H 	H 	0.84034 0.61317 0.44740 0.03600
H 	H 	0.92600 0.77395 0.44639 0.04500
H 	H 	0.77250 0.79186 0.52363 0.04700
C 	C 	0.77985 0.08306 0.51917 0.01000
C 	C 	0.80366 0.14844 0.49723 -0.09100
C 	C 	0.88188 0.18411 0.48078 0.00400
C 	C 	0.93085 0.14951 0.48367 -0.05200
C 	C 	0.90246 0.07926 0.50313 0.00300
C 	C 	0.82906 0.04875 0.52211 -0.05600
H 	H 	0.72163 0.05682 0.53304 0.04100
H 	H 	0.90299 0.23652 0.46472 0.02700
H 	H 	0.98815 0.17444 0.46931 0.04200
H 	H 	0.80815 0.99619 0.53810 0.05200
C 	C 	0.21722 0.14485 0.48033 -0.04700
C 	C 	0.16599 0.07535 0.50000 0.00300
C 	C 	0.20834 0.04572 0.52039 -0.05300
C 	C 	0.30066 0.08425 0.52071 0.00900
C 	C 	0.35198 0.15324 0.50075 -0.08300
C 	C 	0.30974 0.18345 0.48057 0.00400
H 	H 	0.18494 0.16758 0.46418 0.04700
H 	H 	0.16949 0.99243 0.53586 0.05600
H 	H 	0.33248 0.06111 0.53685 0.04100
H 	H 	0.34834 0.23641 0.46493 0.03600
C 	C 	0.81703 0.73474 0.99120 -0.04500
C 	C 	0.86345 0.77597 0.96259 0.00000
C 	C 	0.88220 0.73034 0.93736 -0.04600
C 	C 	0.85778 0.64609 0.94146 0.00300
C 	C 	0.81305 0.60560 0.97054 -0.08000
C 	C 	0.79199 0.65009 0.99519 0.00400
H 	H 	0.80336 0.76954 0.01121 0.04300
H 	H 	0.91839 0.76154 0.91522 0.04500
H 	H 	0.87220 0.61173 0.92161 0.04000
H 	H 	0.75626 0.61911 0.01744 0.03300
C 	C 	0.85931 0.15839 0.94514 0.00500
C 	C 	0.80771 0.14899 0.97273 -0.08600
C 	C 	0.77822 0.07952 0.99315 0.00400
C 	C 	0.80474 0.02405 0.98762 -0.05300
C 	C 	0.86107 0.03717 0.96169 -0.00400
C 	C 	0.88545 0.10260 0.93955 -0.04600
H 	H 	0.88056 0.20970 0.92843 0.04200
H 	H 	0.73711 0.07013 0.01414 0.02300
H 	H 	0.78537 0.97403 0.00488 0.04700
H 	H 	0.92798 0.11274 0.91907 0.04300
C 	C 	0.19224 0.14917 0.95213 -0.04600
C 	C 	0.14973 0.07588 0.97052 0.00000
C 	C 	0.20318 0.05742 0.99093 -0.04500
C 	C 	0.29784 0.11042 0.99226 0.01000
C 	C 	0.34023 0.18287 0.97338 -0.08300
C 	C 	0.28702 0.20250 0.95361 0.00900
H 	H 	0.15171 0.16397 0.93621 0.05000
H 	H 	0.17130 0.00176 0.00567 0.04700
H 	H 	0.33803 0.09445 0.00756 0.03300
H 	H 	0.31901 0.25898 0.93934 0.03800
