data_crystal

_cell_length_a 23.22676
_cell_length_b 19.31669
_cell_length_c 23.00163
_cell_angle_alpha 89.44130
_cell_angle_beta  92.43718
_cell_angle_gamma 101.05971

_symmetry_space_group_name_	'P 1'
_symmetry_space_group_name_H-M	'P 1'

loop_
_symmetry_equiv_pos_as_xyz
  x,y,z

loop_
_atom_site_label
_atom_site_type_symbol
_atom_site_fract_x
_atom_site_fract_y
_atom_site_fract_z
_atom_site_charge
O 	O 	0.05818 0.01191 0.03897 -0.68600
Ni	Ni	0.06086 0.99027 0.95335 1.09200
O 	O 	0.04645 0.93409 0.15396 -0.41100
Ni	Ni	0.09823 0.94474 0.08167 1.05900
O 	O 	0.04074 0.85850 0.05056 -0.41200
O 	O 	0.05225 0.97532 0.86473 -0.37500
H 	H 	0.07665 0.06140 0.04796 0.15500
C 	C 	0.03801 0.83994 0.99577 0.28100
C 	C 	0.01858 0.98222 0.17221 0.27700
C 	C 	0.01325 0.99934 0.83104 0.27800
O 	O 	0.06358 0.88396 0.95648 -0.37300
O 	O 	0.01931 0.03233 0.53403 -0.69300
Ni	Ni	0.02361 0.01282 0.44834 1.10500
O 	O 	0.00500 0.95227 0.64778 -0.41400
Ni	Ni	0.05901 0.96542 0.57689 1.06000
O 	O 	0.00310 0.88057 0.54174 -0.42300
O 	O 	0.01772 0.00201 0.35910 -0.34900
H 	H 	0.03720 0.08169 0.54410 0.15500
C 	C 	0.00711 0.86104 0.48797 0.30100
O 	O 	0.02904 0.90728 0.44854 -0.37800
O 	O 	0.04167 0.51680 0.03933 -0.70100
Ni	Ni	0.04574 0.49308 0.95460 1.09900
O 	O 	0.03057 0.44613 0.15686 -0.40900
Ni	Ni	0.08224 0.45226 0.08441 1.06400
O 	O 	0.02660 0.36388 0.05389 -0.41100
O 	O 	0.03941 0.47631 0.86646 -0.36800
H 	H 	0.05928 0.56673 0.04764 0.15500
C 	C 	0.02659 0.34355 0.99964 0.28200
C 	C 	0.00150 0.49511 0.17143 0.29100
O 	O 	0.05113 0.38763 0.95985 -0.37000
O 	O 	0.04406 0.52456 0.54443 -0.69700
Ni	Ni	0.06240 0.50326 0.46218 1.09800
Ni	Ni	0.07255 0.45382 0.59434 1.06400
O 	O 	0.01832 0.37147 0.55413 -0.41200
O 	O 	0.06995 0.49024 0.37430 -0.37000
H 	H 	0.06281 0.57318 0.55595 0.15200
C 	C 	0.02554 0.35286 0.50087 0.28700
C 	C 	0.03571 0.51414 0.33523 0.28400
O 	O 	0.05939 0.39584 0.46646 -0.37200
C 	C 	0.03820 0.49453 0.27367 -0.10300
C 	C 	0.00311 0.51732 0.23269 -0.08500
H 	H 	0.06744 0.45963 0.26212 0.06700
H 	H 	0.00556 0.75167 0.56039 0.07400
C 	C 	0.01496 0.76568 0.97944 -0.08200
H 	H 	0.01333 0.75115 0.93379 0.07000
C 	C 	0.00578 0.21723 0.02534 -0.07500
H 	H 	0.01490 0.23123 0.07090 0.06800
C 	C 	0.01270 0.98600 0.76775 -0.10200
H 	H 	0.04156 0.95281 0.75204 0.06500
C 	C 	0.02116 0.99663 0.23522 -0.09400
H 	H 	0.06227 0.99717 0.25976 0.06300
O 	O 	0.01063 0.56712 0.34805 -0.40500
H 	H 	0.01876 0.43207 0.75846 0.07500
O 	O 	0.14982 0.01242 0.94835 -0.36600
O 	O 	0.15932 0.93532 0.02229 -0.40400
O 	O 	0.11256 0.03742 0.44538 -0.38300
C 	C 	0.14542 0.01125 0.48455 0.29300
O 	O 	0.12157 0.95875 0.51842 -0.42200
O 	O 	0.13447 0.51795 0.95100 -0.38800
C 	C 	0.16775 0.49323 0.99050 0.28300
O 	O 	0.14429 0.44245 0.02616 -0.40800
O 	O 	0.15186 0.51877 0.47403 -0.38200
O 	O 	0.14347 0.43934 0.54909 -0.41000
C 	C 	0.00795 0.26816 0.98457 -0.09200
O 	O 	0.00580 0.44442 0.65262 -0.40100
C 	C 	0.00273 0.27968 0.48230 -0.08000
H 	H 	0.00636 0.26562 0.43716 0.07100
C 	C 	0.99815 0.73633 0.51495 -0.10500
H 	H 	0.99854 0.73090 0.06566 0.07000
H 	H 	0.97375 0.55186 0.24475 0.04800
C 	C 	0.99705 0.71627 0.02005 -0.11500
C 	C 	0.17612 0.48822 0.51774 0.28100
Ni	Ni	0.96957 0.99007 0.05001 1.08800
O 	O 	0.97704 0.00221 0.13902 -0.36500
O 	O 	0.96575 0.09620 0.04896 -0.36900
O 	O 	0.87117 0.04508 0.98008 -0.40100
O 	O 	0.97240 0.96919 0.96439 -0.71200
O 	O 	0.88062 0.96769 0.05408 -0.39100
O 	O 	0.98681 0.04871 0.85000 -0.40900
Ni	Ni	0.93376 0.03751 0.92166 1.06600
H 	H 	0.95348 0.91999 0.95489 0.15100
O 	O 	0.99027 0.12256 0.95528 -0.41700
C 	C 	0.18303 0.98687 0.98752 0.24700
C 	C 	0.98898 0.14180 0.00960 0.27100
C 	C 	0.84754 0.99306 0.01457 0.27600
Ni	Ni	0.93073 0.00818 0.54390 1.10000
O 	O 	0.93782 0.02321 0.63258 -0.37000
O 	O 	0.92620 0.11362 0.54033 -0.37400
O 	O 	0.83277 0.06310 0.47456 -0.41400
O 	O 	0.93493 0.98824 0.45811 -0.71700
O 	O 	0.84182 0.98428 0.54732 -0.40700
O 	O 	0.94633 0.06718 0.34339 -0.40900
Ni	Ni	0.89431 0.05505 0.41540 1.06700
H 	H 	0.91745 0.93864 0.44839 0.15000
O 	O 	0.95022 0.14152 0.44703 -0.42100
C 	C 	0.97733 0.00056 0.66654 0.28200
C 	C 	0.95352 0.15792 0.50231 0.28900
C 	C 	0.97552 0.02014 0.32563 0.26600
C 	C 	0.80887 0.01091 0.50858 0.32000
Ni	Ni	0.95308 0.49285 0.04898 1.09400
O 	O 	0.95875 0.50953 0.13703 -0.38500
O 	O 	0.94812 0.59836 0.04334 -0.37600
O 	O 	0.85477 0.54424 0.97735 -0.40900
O 	O 	0.95721 0.46925 0.96423 -0.70900
O 	O 	0.86440 0.46830 0.05223 -0.39000
O 	O 	0.96965 0.54304 0.84761 -0.41300
Ni	Ni	0.91711 0.53467 0.91932 1.06300
H 	H 	0.93955 0.41936 0.95578 0.15100
O 	O 	0.97268 0.62244 0.94951 -0.42000
C 	C 	0.97428 0.64189 0.00404 0.28500
C 	C 	0.99820 0.49421 0.83182 0.27800
C 	C 	0.83121 0.49334 0.01285 0.28400
Ni	Ni	0.95383 0.50887 0.53889 1.09400
O 	O 	0.94605 0.52097 0.62689 -0.37000
O 	O 	0.95530 0.61606 0.53596 -0.37700
O 	O 	0.87258 0.57263 0.45145 -0.41200
O 	O 	0.97221 0.48808 0.45658 -0.70600
O 	O 	0.86445 0.49302 0.52657 -0.38200
Ni	Ni	0.94430 0.55931 0.40685 1.06100
H 	H 	0.95320 0.43967 0.44473 0.14900
O 	O 	0.99737 0.64087 0.44866 -0.42500
C 	C 	0.97960 0.49611 0.66609 0.26800
C 	C 	0.98597 0.66086 0.50039 0.29400
C 	C 	0.84011 0.52346 0.48278 0.28000
Ni	Ni	0.46957 0.99007 0.05001 1.09000
O 	O 	0.55818 0.01191 0.03897 -0.69200
Ni	Ni	0.56086 0.99027 0.95335 1.09200
O 	O 	0.47704 0.00221 0.13902 -0.35300
O 	O 	0.54645 0.93409 0.15396 -0.41200
O 	O 	0.46574 0.09620 0.04895 -0.36700
Ni	Ni	0.59823 0.94474 0.08167 1.05900
O 	O 	0.37117 0.04508 0.98008 -0.40100
O 	O 	0.54074 0.85850 0.05056 -0.41900
O 	O 	0.64982 0.01242 0.94835 -0.36900
O 	O 	0.47240 0.96919 0.96439 -0.71100
O 	O 	0.38062 0.96769 0.05408 -0.39000
O 	O 	0.55225 0.97532 0.86473 -0.37500
O 	O 	0.48681 0.04870 0.85000 -0.40000
Ni	Ni	0.43376 0.03751 0.92166 1.06700
H 	H 	0.57665 0.06140 0.04796 0.15200
H 	H 	0.45349 0.91999 0.95489 0.15300
C 	C 	0.53801 0.83994 0.99577 0.28700
O 	O 	0.49027 0.12256 0.95528 -0.41900
C 	C 	0.51858 0.98221 0.17221 0.26800
C 	C 	0.68303 0.98687 0.98752 0.25400
C 	C 	0.48898 0.14180 0.00960 0.29000
C 	C 	0.51324 0.99934 0.83104 0.27100
C 	C 	0.34754 0.99306 0.01457 0.27700
O 	O 	0.56357 0.88396 0.95648 -0.37500
O 	O 	0.65932 0.93532 0.02229 -0.40800
Ni	Ni	0.43073 0.00818 0.54390 1.10400
O 	O 	0.51931 0.03233 0.53403 -0.69800
Ni	Ni	0.52361 0.01282 0.44834 1.10200
O 	O 	0.43781 0.02321 0.63258 -0.36900
O 	O 	0.50500 0.95227 0.64778 -0.42300
O 	O 	0.42620 0.11362 0.54033 -0.37100
Ni	Ni	0.55901 0.96542 0.57688 1.06000
O 	O 	0.33277 0.06310 0.47456 -0.41500
O 	O 	0.50310 0.88057 0.54174 -0.42400
O 	O 	0.61256 0.03742 0.44538 -0.38400
O 	O 	0.43492 0.98824 0.45811 -0.71500
O 	O 	0.34182 0.98428 0.54732 -0.40900
O 	O 	0.51772 0.00201 0.35910 -0.36100
O 	O 	0.44633 0.06718 0.34339 -0.40700
Ni	Ni	0.39431 0.05505 0.41540 1.06800
H 	H 	0.53720 0.08169 0.54410 0.15200
H 	H 	0.41745 0.93864 0.44839 0.15100
C 	C 	0.50711 0.86104 0.48797 0.29200
O 	O 	0.45021 0.14152 0.44703 -0.41500
C 	C 	0.47733 0.00056 0.66654 0.29200
C 	C 	0.64542 0.01125 0.48455 0.29200
C 	C 	0.45352 0.15792 0.50231 0.28600
C 	C 	0.47552 0.02014 0.32563 0.27700
C 	C 	0.30887 0.01091 0.50858 0.32500
O 	O 	0.52904 0.90728 0.44854 -0.37900
O 	O 	0.62157 0.95875 0.51842 -0.42100
Ni	Ni	0.45308 0.49285 0.04898 1.09800
O 	O 	0.54167 0.51680 0.03933 -0.70600
Ni	Ni	0.54574 0.49308 0.95460 1.09700
O 	O 	0.45875 0.50953 0.13703 -0.37400
O 	O 	0.53057 0.44613 0.15686 -0.41000
O 	O 	0.44812 0.59836 0.04334 -0.37400
Ni	Ni	0.58224 0.45226 0.08441 1.06300
O 	O 	0.35477 0.54424 0.97735 -0.41100
O 	O 	0.52660 0.36388 0.05389 -0.41600
O 	O 	0.63447 0.51795 0.95100 -0.38900
O 	O 	0.45721 0.46925 0.96423 -0.70600
O 	O 	0.36440 0.46830 0.05223 -0.38900
O 	O 	0.53941 0.47631 0.86646 -0.37500
O 	O 	0.46965 0.54304 0.84761 -0.41200
Ni	Ni	0.41710 0.53467 0.91932 1.06400
H 	H 	0.55928 0.56673 0.04764 0.15200
H 	H 	0.43955 0.41936 0.95578 0.15200
C 	C 	0.52659 0.34355 0.99964 0.28500
O 	O 	0.47268 0.62244 0.94951 -0.41900
C 	C 	0.50150 0.49511 0.17143 0.28200
C 	C 	0.66775 0.49323 0.99050 0.28500
C 	C 	0.47428 0.64189 0.00404 0.28600
C 	C 	0.49820 0.49421 0.83182 0.28300
C 	C 	0.33121 0.49334 0.01285 0.28700
O 	O 	0.55113 0.38763 0.95985 -0.37200
O 	O 	0.64428 0.44245 0.02616 -0.41100
Ni	Ni	0.45382 0.50887 0.53889 1.09700
O 	O 	0.54406 0.52456 0.54443 -0.70100
Ni	Ni	0.56240 0.50325 0.46218 1.09600
O 	O 	0.44605 0.52097 0.62689 -0.37100
O 	O 	0.50579 0.44442 0.65262 -0.41100
O 	O 	0.45530 0.61606 0.53596 -0.37400
Ni	Ni	0.57255 0.45382 0.59434 1.06300
O 	O 	0.37258 0.57263 0.45145 -0.41100
O 	O 	0.51832 0.37147 0.55413 -0.41700
O 	O 	0.65186 0.51877 0.47403 -0.38300
O 	O 	0.47221 0.48808 0.45658 -0.70100
O 	O 	0.36445 0.49302 0.52657 -0.38100
O 	O 	0.56994 0.49024 0.37430 -0.37100
O 	O 	0.51063 0.56712 0.34805 -0.41100
Ni	Ni	0.44430 0.55931 0.40685 1.06300
H 	H 	0.56281 0.57318 0.55595 0.15000
H 	H 	0.45320 0.43967 0.44473 0.15100
C 	C 	0.52554 0.35286 0.50087 0.29100
O 	O 	0.49737 0.64087 0.44866 -0.42100
C 	C 	0.47960 0.49611 0.66609 0.28200
C 	C 	0.67612 0.48822 0.51774 0.28100
C 	C 	0.48597 0.66086 0.50039 0.29200
C 	C 	0.53571 0.51414 0.33523 0.28100
C 	C 	0.34011 0.52346 0.48278 0.28100
O 	O 	0.55939 0.39584 0.46646 -0.37500
O 	O 	0.64346 0.43934 0.54909 -0.41100
C 	C 	0.47388 0.51149 0.72803 -0.09800
C 	C 	0.49715 0.47485 0.77004 -0.10000
H 	H 	0.45178 0.55395 0.73932 0.06700
H 	H 	0.51876 0.43207 0.75846 0.06600
C 	C 	0.50311 0.51732 0.23269 -0.09800
C 	C 	0.53820 0.49453 0.27367 -0.09900
H 	H 	0.47375 0.55186 0.24475 0.06000
H 	H 	0.56744 0.45963 0.26212 0.06500
C 	C 	0.49593 0.78546 0.47347 -0.09400
C 	C 	0.49815 0.73633 0.51495 -0.09400
H 	H 	0.48797 0.76991 0.42811 0.06500
H 	H 	0.50556 0.75167 0.56039 0.06600
C 	C 	0.47830 0.23064 0.52058 -0.09800
C 	C 	0.50272 0.27968 0.48230 -0.09900
H 	H 	0.47614 0.24443 0.56603 0.07300
H 	H 	0.50636 0.26562 0.43716 0.07200
C 	C 	0.51496 0.76568 0.97944 -0.09800
C 	C 	0.49705 0.71627 0.02005 -0.09900
H 	H 	0.51333 0.75115 0.93379 0.07100
H 	H 	0.49854 0.73090 0.06566 0.07100
C 	C 	0.50795 0.26816 0.98457 -0.09500
C 	C 	0.50578 0.21723 0.02534 -0.09300
H 	H 	0.49847 0.25403 0.93908 0.06700
H 	H 	0.51490 0.23123 0.07090 0.06900
C 	C 	0.47757 0.01395 0.72983 -0.08200
C 	C 	0.51270 0.98600 0.76775 -0.11200
H 	H 	0.44860 0.04702 0.74550 0.06300
H 	H 	0.54156 0.95281 0.75204 0.06600
C 	C 	0.52116 0.99663 0.23522 -0.10700
C 	C 	0.47300 0.00481 0.26279 -0.06800
H 	H 	0.56227 0.99717 0.25976 0.06500
H 	H 	0.43187 0.00396 0.23821 0.06500
C 	C 	0.77523 0.51637 0.47765 -0.09000
C 	C 	0.74096 0.49490 0.52278 -0.09000
H 	H 	0.75565 0.53176 0.43698 0.06600
H 	H 	0.76053 0.47945 0.56344 0.06600
C 	C 	0.24096 0.49490 0.52278 -0.09000
C 	C 	0.27523 0.51637 0.47764 -0.08900
H 	H 	0.26053 0.47946 0.56344 0.06700
H 	H 	0.25565 0.53176 0.43698 0.06600
C 	C 	0.73153 0.50766 0.98360 -0.09800
C 	C 	0.76744 0.47905 0.01977 -0.10000
H 	H 	0.74934 0.54210 0.94841 0.06200
H 	H 	0.74962 0.44460 0.05496 0.06300
C 	C 	0.23153 0.50766 0.98360 -0.10000
C 	C 	0.26744 0.47904 0.01977 -0.09700
H 	H 	0.24934 0.54210 0.94841 0.06300
H 	H 	0.24962 0.44460 0.05496 0.06300
C 	C 	0.99714 0.47485 0.77004 -0.11400
C 	C 	0.97389 0.51149 0.72803 -0.09100
H 	H 	0.95178 0.55395 0.73932 0.06500
C 	C 	0.99593 0.78546 0.47347 -0.10100
H 	H 	0.98797 0.76991 0.42811 0.06400
C 	C 	0.97830 0.23064 0.52058 -0.11700
H 	H 	0.97615 0.24443 0.56603 0.07400
C 	C 	0.74491 0.99641 0.51474 -0.13800
C 	C 	0.70944 0.02626 0.47880 -0.07300
H 	H 	0.72657 0.96073 0.54896 0.06900
H 	H 	0.72779 0.06200 0.44463 0.05800
C 	C 	0.20944 0.02626 0.47880 -0.06800
C 	C 	0.24491 0.99641 0.51474 -0.14400
H 	H 	0.22779 0.06200 0.44463 0.05800
H 	H 	0.22657 0.96073 0.54896 0.07100
H 	H 	0.99847 0.25403 0.93908 0.06100
C 	C 	0.74718 0.00196 0.98141 -0.06100
C 	C 	0.78334 0.97751 0.02035 -0.12400
H 	H 	0.76507 0.03415 0.94499 0.05400
H 	H 	0.76543 0.94525 0.05672 0.06300
C 	C 	0.28335 0.97751 0.02035 -0.12400
C 	C 	0.24718 0.00196 0.98141 -0.05800
H 	H 	0.26543 0.94525 0.05672 0.06400
H 	H 	0.26507 0.03415 0.94499 0.05400
C 	C 	0.97757 0.01395 0.72983 -0.09200
H 	H 	0.94860 0.04702 0.74550 0.06400
C 	C 	0.97300 0.00481 0.26279 -0.08200
H 	H 	0.93187 0.00396 0.23821 0.06600
