data_crystal

_cell_length_a 24.82483
_cell_length_b 24.32255
_cell_length_c 16.96781
_cell_angle_alpha 90.00000
_cell_angle_beta  90.00000
_cell_angle_gamma 120.56538

_symmetry_space_group_name_	'P 1'
_symmetry_space_group_name_H-M	'P 1'

loop_
_symmetry_equiv_pos_as_xyz
  x,y,z

loop_
_atom_site_label
_atom_site_type_symbol
_atom_site_fract_x
_atom_site_fract_y
_atom_site_fract_z
_atom_site_charge
C 	C 	0.01486 0.51366 0.95247 0.02500
C 	C 	0.06635 0.56479 0.98975 -0.06000
C 	C 	0.02299 0.49059 0.87989 -0.03700
H 	H 	0.06017 0.58199 0.04607 0.06300
C 	C 	0.02199 0.54777 0.62848 -0.03500
C 	C 	0.01100 0.51681 0.55495 0.02300
C 	C 	0.05963 0.51401 0.51686 -0.05600
H 	H 	0.05137 0.49100 0.45975 0.05900
C 	C 	0.08177 0.57662 0.66230 0.00500
C 	C 	0.08271 0.51788 0.84636 0.00700
H 	H 	0.09053 0.60154 0.71808 0.03900
H 	H 	0.08916 0.49916 0.79139 0.03700
H 	H 	0.96823 0.40985 0.04505 0.06000
C 	C 	0.97015 0.43962 0.83898 0.09700
C 	C 	0.19139 0.59947 0.66419 0.28400
C 	C 	0.39778 0.59161 0.83872 0.29200
C 	C 	0.19581 0.59960 0.84436 0.29400
C 	C 	0.39474 0.58907 0.65992 0.28400
C 	C 	0.40496 0.80251 0.84163 0.29200
C 	C 	0.40574 0.80479 0.66109 0.28400
Ni	Ni	0.28300 0.57254 0.75218 1.11300
Ni	Ni	0.41991 0.70716 0.74945 1.12100
Ni	Ni	0.29161 0.71284 0.75211 1.12000
O 	O 	0.21592 0.56237 0.67040 -0.36500
O 	O 	0.22697 0.66248 0.66751 -0.36700
O 	O 	0.43514 0.77125 0.83446 -0.37200
O 	O 	0.33640 0.55924 0.83568 -0.36900
O 	O 	0.42796 0.65429 0.83633 -0.36300
O 	O 	0.34417 0.77713 0.66844 -0.37300
O 	O 	0.22474 0.56714 0.84288 -0.36600
O 	O 	0.22767 0.66212 0.83725 -0.36800
O 	O 	0.43388 0.77097 0.66427 -0.37100
O 	O 	0.33301 0.55840 0.66421 -0.36400
O 	O 	0.42842 0.65220 0.66546 -0.36300
O 	O 	0.34353 0.77179 0.83952 -0.37300
O 	O 	0.33039 0.66227 0.74068 -0.70800
H 	H 	0.32963 0.66193 0.68241 0.14300
C 	C 	0.59188 0.38540 0.35701 0.29000
C 	C 	0.79026 0.40704 0.13836 0.31000
C 	C 	0.60180 0.38917 0.13460 0.31200
C 	C 	0.79276 0.41265 0.35818 0.28900
C 	C 	0.61587 0.21765 0.13471 0.31100
C 	C 	0.61951 0.21199 0.35612 0.28900
Ni	Ni	0.70623 0.42739 0.24781 1.11500
Ni	Ni	0.71751 0.30046 0.24644 1.12500
Ni	Ni	0.58295 0.28636 0.24654 1.12600
O 	O 	0.63238 0.42908 0.30668 -0.36300
O 	O 	0.56897 0.32317 0.34617 -0.37000
O 	O 	0.65808 0.22111 0.18472 -0.37300
O 	O 	0.78754 0.44717 0.18772 -0.36300
O 	O 	0.74899 0.34587 0.14202 -0.37600
O 	O 	0.57795 0.21033 0.30467 -0.37000
O 	O 	0.66253 0.41502 0.13992 -0.37300
O 	O 	0.56501 0.34885 0.18873 -0.36500
O 	O 	0.68089 0.24912 0.34512 -0.37400
O 	O 	0.75794 0.43940 0.34903 -0.36500
O 	O 	0.79326 0.37271 0.30452 -0.36500
O 	O 	0.59387 0.25635 0.14110 -0.37700
O 	O 	0.66959 0.33970 0.26632 -0.72100
H 	H 	0.66938 0.33914 0.32437 0.16200
C 	C 	0.91353 0.50716 0.98789 -0.04100
C 	C 	0.95348 0.48190 0.99272 0.02400
C 	C 	0.93751 0.42934 0.04156 -0.05500
C 	C 	0.88351 0.40342 0.08809 0.03200
C 	C 	0.84438 0.42990 0.08512 -0.08000
C 	C 	0.85933 0.48118 0.03423 0.02100
C 	C 	0.12587 0.59286 0.95563 0.03300
C 	C 	0.13403 0.56994 0.88273 -0.07800
C 	C 	0.17867 0.64312 0.99754 0.08800
C 	C 	0.92813 0.56002 0.93599 0.09900
C 	C 	0.87017 0.35162 0.14132 0.07400
N 	N 	0.22095 0.68336 0.03112 -0.09400
N 	N 	0.92777 0.39882 0.80620 -0.10400
N 	N 	0.85949 0.31013 0.18394 -0.11300
N 	N 	0.93989 0.60239 0.89440 -0.10600
H 	H 	0.82909 0.50127 0.03139 0.04500
C 	C 	0.11911 0.54206 0.55102 0.02900
C 	C 	0.13008 0.57258 0.62502 -0.07100
C 	C 	0.95027 0.49176 0.51404 0.02400
C 	C 	0.94199 0.53185 0.46248 -0.05600
C 	C 	0.88987 0.50696 0.41267 0.02800
C 	C 	0.84430 0.44123 0.41587 -0.07000
C 	C 	0.85119 0.40169 0.47008 0.01000
C 	C 	0.90393 0.42659 0.51910 -0.03600
C 	C 	0.88543 0.54844 0.35536 0.08400
C 	C 	0.91077 0.38479 0.57336 0.09900
C 	C 	0.97201 0.54931 0.67004 0.09700
C 	C 	0.16931 0.54187 0.50811 0.09100
N 	N 	0.88191 0.58166 0.30944 -0.10700
N 	N 	0.91630 0.35132 0.61682 -0.10400
N 	N 	0.20951 0.54173 0.47374 -0.09700
N 	N 	0.93192 0.55045 0.70337 -0.10500
H 	H 	0.97762 0.58202 0.45877 0.06000
H 	H 	0.81616 0.35128 0.47290 0.04500
C 	C 	0.52266 0.09838 0.51795 -0.03600
C 	C 	0.54045 0.05192 0.51260 0.02400
C 	C 	0.58879 0.06159 0.46141 -0.05600
C 	C 	0.61685 0.11507 0.41199 0.02800
C 	C 	0.59736 0.16045 0.41502 -0.07000
C 	C 	0.55126 0.15241 0.46928 0.01100
C 	C 	0.50415 0.98981 0.55343 0.02300
C 	C 	0.45117 0.94023 0.51647 -0.05600
C 	C 	0.41900 0.87937 0.55042 0.02900
C 	C 	0.43957 0.86798 0.62296 -0.07200
C 	C 	0.49323 0.91735 0.65920 0.00600
C 	C 	0.52477 0.97849 0.62576 -0.03600
C 	C 	0.36690 0.82823 0.50856 0.09200
C 	C 	0.57765 0.02955 0.66650 0.09700
C 	C 	0.47416 0.09021 0.57196 0.09800
C 	C 	0.66297 0.12105 0.35528 0.08500
N 	N 	0.32518 0.78728 0.47502 -0.09600
N 	N 	0.61997 0.07051 0.69917 -0.10400
N 	N 	0.69988 0.12581 0.30984 -0.10400
N 	N 	0.43525 0.08360 0.61520 -0.10500
H 	H 	0.53649 0.18739 0.47210 0.04500
H 	H 	0.60271 0.02599 0.45771 0.06000
H 	H 	0.43578 0.94881 0.46034 0.06000
H 	H 	0.51002 0.90830 0.71390 0.03900
C 	C 	0.46875 0.97835 0.87603 -0.03800
C 	C 	0.50063 0.98823 0.94814 0.02500
C 	C 	0.50110 0.93698 0.98525 -0.06000
C 	C 	0.46961 0.87594 0.95160 0.03300
C 	C 	0.43761 0.86599 0.87933 -0.07600
C 	C 	0.43625 0.91708 0.84302 0.00700
C 	C 	0.52959 0.05090 0.98846 0.02400
C 	C 	0.49243 0.06521 0.03648 -0.05300
C 	C 	0.51975 0.12052 0.08281 0.03300
C 	C 	0.58521 0.16273 0.08044 -0.07700
C 	C 	0.62208 0.14949 0.03016 0.02000
C 	C 	0.59461 0.09393 0.98406 -0.03900
C 	C 	0.48063 0.13197 0.13529 0.07900
C 	C 	0.63345 0.08113 0.93289 0.10000
C 	C 	0.46991 0.03100 0.83510 0.09700
C 	C 	0.46784 0.82333 0.99351 0.09000
N 	N 	0.44929 0.14114 0.17730 -0.11100
N 	N 	0.66452 0.07081 0.89188 -0.10500
N 	N 	0.46642 0.78120 0.02711 -0.09200
N 	N 	0.47093 0.07324 0.80232 -0.10400
H 	H 	0.41043 0.90924 0.78856 0.03700
H 	H 	0.52504 0.94447 0.04119 0.06300
H 	H 	0.44235 0.03219 0.03953 0.06100
H 	H 	0.67227 0.18201 0.02777 0.04800
C 	C 	0.56864 0.51048 0.04478 -0.03700
C 	C 	0.52172 0.47307 0.98942 0.02300
C 	C 	0.50401 0.40885 0.97834 -0.05700
C 	C 	0.53074 0.38103 0.02444 0.03400
C 	C 	0.57649 0.41813 0.08117 -0.07900
C 	C 	0.59602 0.48298 0.08982 0.01900
C 	C 	0.48781 0.49962 0.94703 0.02400
C 	C 	0.51724 0.54235 0.88452 -0.05500
C 	C 	0.48907 0.57373 0.84965 0.02400
C 	C 	0.42944 0.56037 0.87552 -0.07500
C 	C 	0.39945 0.51629 0.93686 0.01500
C 	C 	0.42841 0.48629 0.97291 -0.04000
C 	C 	0.52199 0.61983 0.78802 0.07400
C 	C 	0.39748 0.44294 0.03773 0.10000
C 	C 	0.58767 0.57670 0.05721 0.09700
C 	C 	0.51129 0.31462 0.01284 0.08400
N 	N 	0.54861 0.65677 0.73874 -0.10500
N 	N 	0.37277 0.40820 0.08966 -0.10600
N 	N 	0.49573 0.26143 0.00359 -0.09700
N 	N 	0.60287 0.62973 0.06712 -0.10600
H 	H 	0.63134 0.51157 0.13335 0.03800
H 	H 	0.46837 0.38022 0.93519 0.06200
H 	H 	0.56294 0.55253 0.86457 0.06100
H 	H 	0.35399 0.50628 0.95759 0.05300
C 	C 	0.45129 0.47337 0.62618 -0.03600
C 	C 	0.48028 0.49313 0.55184 0.02400
C 	C 	0.48101 0.54437 0.51304 -0.05500
C 	C 	0.45258 0.57562 0.54717 0.03100
C 	C 	0.42368 0.55602 0.62173 -0.06900
C 	C 	0.42238 0.50429 0.66016 0.00700
C 	C 	0.50674 0.45813 0.51166 0.02400
C 	C 	0.46984 0.41043 0.45704 -0.05600
C 	C 	0.49660 0.38448 0.40801 0.02900
C 	C 	0.56095 0.40547 0.41475 -0.07200
C 	C 	0.59711 0.45078 0.47229 0.01000
C 	C 	0.57035 0.47718 0.52077 -0.03700
C 	C 	0.45851 0.33904 0.34802 0.08500
C 	C 	0.60863 0.52457 0.57877 0.09700
C 	C 	0.45163 0.42194 0.66826 0.09300
C 	C 	0.45100 0.62594 0.50385 0.09400
N 	N 	0.42802 0.30269 0.29993 -0.10200
N 	N 	0.63921 0.56253 0.62530 -0.10800
N 	N 	0.44973 0.66623 0.46915 -0.09600
N 	N 	0.45196 0.38078 0.70203 -0.11000
H 	H 	0.39947 0.48862 0.71696 0.03700
H 	H 	0.50286 0.55916 0.45552 0.06000
H 	H 	0.42078 0.39550 0.45046 0.06000
H 	H 	0.64643 0.46657 0.47802 0.04300
