data_crystal

_cell_length_a 31.10836
_cell_length_b 27.11356
_cell_length_c 31.87975
_cell_angle_alpha 103.88677
_cell_angle_beta  115.86082
_cell_angle_gamma 111.65522

_symmetry_space_group_name_	'P 1'
_symmetry_space_group_name_H-M	'P 1'

loop_
_symmetry_equiv_pos_as_xyz
  x,y,z

loop_
_atom_site_label
_atom_site_type_symbol
_atom_site_fract_x
_atom_site_fract_y
_atom_site_fract_z
_atom_site_charge
N 	N 	0.61128 0.23637 0.89815 -0.13600
C 	C 	0.58487 0.26440 0.90523 0.13900
N 	N 	0.59768 0.31661 0.90240 -0.13700
C 	C 	0.63653 0.34049 0.89233 0.14000
N 	N 	0.66103 0.31094 0.88319 -0.13500
C 	C 	0.64908 0.25932 0.88678 0.14000
C 	C 	0.47316 0.19751 0.95219 -0.01500
C 	C 	0.50737 0.25993 0.97067 -0.03400
C 	C 	0.54367 0.28146 0.95532 -0.01500
C 	C 	0.54607 0.24108 0.92042 -0.03900
C 	C 	0.51225 0.17899 0.90195 0.05900
C 	C 	0.47601 0.15718 0.91835 0.04700
H 	H 	0.50527 0.29194 0.99630 0.04400
H 	H 	0.56995 0.32973 0.97076 0.04900
N 	N 	0.50858 0.13575 0.86559 -0.11100
N 	N 	0.44255 0.09584 0.89601 -0.10700
C 	C 	0.74379 0.17594 0.88896 -0.01500
C 	C 	0.77091 0.23862 0.90958 0.04700
C 	C 	0.73914 0.26661 0.90689 0.06000
C 	C 	0.68063 0.23115 0.88300 -0.03900
C 	C 	0.65320 0.16772 0.85914 -0.01400
C 	C 	0.68446 0.14045 0.86219 -0.03500
N 	N 	0.82870 0.27700 0.94123 -0.10700
N 	N 	0.77071 0.32817 0.93645 -0.10900
C 	C 	0.71897 0.52264 0.91808 -0.01400
C 	C 	0.69644 0.47336 0.87059 -0.03100
C 	C 	0.66613 0.41351 0.86064 -0.01300
C 	C 	0.65736 0.40159 0.89782 -0.04000
C 	C 	0.67638 0.45022 0.94354 0.06100
C 	C 	0.70735 0.51129 0.95366 0.04000
H 	H 	0.70419 0.48132 0.84214 0.05000
H 	H 	0.65113 0.37647 0.82470 0.04600
N 	N 	0.67435 0.44405 0.98402 -0.11200
N 	N 	0.73061 0.55577 0.00233 -0.11100
S 	S 	0.46104 0.07445 0.85774 0.09700
S 	S 	0.83494 0.34208 0.96262 0.10300
S 	S 	0.71054 0.51502 0.02826 0.09600
H 	H 	0.60779 0.13942 0.83947 0.04800
H 	H 	0.66270 0.09174 0.84535 0.04600
N 	N 	0.56783 0.21397 0.35529 -0.13700
C 	C 	0.53951 0.24140 0.35742 0.13900
N 	N 	0.55415 0.29344 0.35414 -0.13700
C 	C 	0.59699 0.31797 0.34879 0.13900
N 	N 	0.62482 0.29009 0.34626 -0.13600
C 	C 	0.61106 0.23871 0.35051 0.13900
C 	C 	0.40443 0.16557 0.37697 -0.01700
C 	C 	0.39998 0.19120 0.34283 -0.03500
C 	C 	0.44399 0.21568 0.33646 -0.01600
C 	C 	0.49363 0.21533 0.36423 -0.03900
C 	C 	0.49823 0.18977 0.39807 0.06000
C 	C 	0.45324 0.16453 0.40427 0.04800
H 	H 	0.36272 0.19288 0.32158 0.03800
H 	H 	0.43927 0.23481 0.30977 0.04200
N 	N 	0.54566 0.19025 0.42917 -0.10800
N 	N 	0.46301 0.14353 0.44018 -0.10700
C 	C 	0.71206 0.16002 0.36867 -0.01500
C 	C 	0.73817 0.22259 0.38916 0.04700
C 	C 	0.70468 0.24901 0.38193 0.06000
C 	C 	0.64545 0.21214 0.35365 -0.03800
C 	C 	0.61941 0.14888 0.33089 -0.01400
C 	C 	0.65237 0.12316 0.33847 -0.03500
N 	N 	0.79571 0.26221 0.42396 -0.10700
N 	N 	0.73456 0.31051 0.41090 -0.10800
C 	C 	0.66684 0.49326 0.35713 -0.01600
C 	C 	0.65169 0.44210 0.31569 -0.03400
C 	C 	0.62646 0.38442 0.31169 -0.01400
C 	C 	0.61565 0.37650 0.34894 -0.03900
C 	C 	0.62836 0.42664 0.38889 0.06000
C 	C 	0.65422 0.48549 0.39302 0.04700
H 	H 	0.66096 0.44714 0.28738 0.04600
H 	H 	0.61652 0.34611 0.28020 0.04500
N 	N 	0.62423 0.42495 0.42951 -0.10800
N 	N 	0.67118 0.53258 0.43684 -0.10800
S 	S 	0.52690 0.15861 0.46104 0.10100
S 	S 	0.79965 0.32632 0.44227 0.10600
S 	S 	0.65247 0.49665 0.46638 0.10000
H 	H 	0.57362 0.11946 0.30810 0.04600
H 	H 	0.63143 0.07452 0.32190 0.04600
N 	N 	0.47931 0.81195 0.02529 -0.13500
C 	C 	0.50627 0.78407 0.01935 0.13800
N 	N 	0.48265 0.72464 0.00654 -0.13700
C 	C 	0.43215 0.69326 0.99928 0.13600
N 	N 	0.40469 0.72096 0.00367 -0.13500
C 	C 	0.42814 0.78028 0.01666 0.13900
C 	C 	0.66360 0.87951 0.03433 -0.01600
C 	C 	0.65085 0.83084 0.04557 -0.03500
C 	C 	0.60025 0.80080 0.04169 -0.01600
C 	C 	0.56042 0.81783 0.02547 -0.03800
C 	C 	0.57303 0.86651 0.01463 0.06100
C 	C 	0.62522 0.89793 0.01974 0.04900
H 	H 	0.67955 0.81527 0.05632 0.04100
H 	H 	0.59197 0.76389 0.05096 0.04700
N 	N 	0.53607 0.88420 0.99515 -0.11100
N 	N 	0.63180 0.94205 0.00505 -0.10300
C 	C 	0.31553 0.84383 0.99410 -0.01700
C 	C 	0.32428 0.81641 0.02630 0.05000
C 	C 	0.36425 0.79826 0.03660 0.05900
C 	C 	0.39484 0.80789 0.01449 -0.03500
C 	C 	0.38840 0.83917 0.98498 -0.01700
C 	C 	0.34910 0.85681 0.97482 -0.03200
N 	N 	0.29179 0.79885 0.04435 -0.10700
N 	N 	0.36524 0.76597 0.06355 -0.10800
C 	C 	0.35038 0.50716 0.96608 -0.01800
C 	C 	0.32045 0.52681 0.93416 -0.03400
C 	C 	0.34800 0.58688 0.94356 -0.01400
C 	C 	0.40617 0.62877 0.98505 -0.04100
C 	C 	0.43684 0.60890 0.01533 0.06200
C 	C 	0.40868 0.54762 0.00582 0.04900
H 	H 	0.27532 0.49616 0.90309 0.04400
H 	H 	0.32360 0.60115 0.91924 0.04400
N 	N 	0.49196 0.64677 0.05897 -0.11100
N 	N 	0.44052 0.53455 0.04137 -0.10600
S 	S 	0.57201 0.93769 0.98679 0.10400
S 	S 	0.31627 0.76298 0.07199 0.10500
S 	S 	0.50071 0.60038 0.08129 0.10000
H 	H 	0.41204 0.84765 0.96792 0.05000
H 	H 	0.34356 0.87892 0.95048 0.04800
N 	N 	0.46047 0.81851 0.52209 -0.13500
C 	C 	0.48084 0.78483 0.51021 0.13700
N 	N 	0.45242 0.72496 0.49551 -0.13800
C 	C 	0.40373 0.69887 0.49237 0.13900
N 	N 	0.38282 0.73242 0.50283 -0.13600
C 	C 	0.41116 0.79226 0.51781 0.14000
C 	C 	0.63595 0.86624 0.51892 -0.01600
C 	C 	0.61923 0.81605 0.52777 -0.03500
C 	C 	0.56919 0.79026 0.52554 -0.01600
C 	C 	0.53389 0.81323 0.51343 -0.03700
C 	C 	0.55019 0.86307 0.50449 0.05900
C 	C 	0.60180 0.89005 0.50783 0.04900
H 	H 	0.64449 0.79624 0.53565 0.04200
H 	H 	0.55795 0.75219 0.53313 0.04800
N 	N 	0.51766 0.88660 0.48919 -0.11000
N 	N 	0.61236 0.93633 0.49584 -0.10400
C 	C 	0.32578 0.88481 0.52774 -0.01300
C 	C 	0.32987 0.84942 0.55295 0.04800
C 	C 	0.36024 0.82066 0.55171 0.06000
C 	C 	0.38599 0.82741 0.52504 -0.03800
C 	C 	0.38342 0.86496 0.50135 -0.01400
C 	C 	0.35352 0.89316 0.50254 -0.03400
N 	N 	0.30651 0.84032 0.58017 -0.10700
N 	N 	0.36232 0.78766 0.57801 -0.10800
C 	C 	0.31176 0.51264 0.45659 -0.01600
C 	C 	0.28354 0.53655 0.42900 -0.03400
C 	C 	0.31399 0.59670 0.43944 -0.01300
C 	C 	0.37344 0.63425 0.47753 -0.03900
C 	C 	0.40206 0.61010 0.50361 0.06000
C 	C 	0.37093 0.54886 0.49313 0.04700
H 	H 	0.23774 0.50915 0.40041 0.04600
H 	H 	0.29106 0.61431 0.41843 0.04600
N 	N 	0.45862 0.64384 0.54416 -0.11100
N 	N 	0.40170 0.53165 0.52474 -0.10600
S 	S 	0.55641 0.93917 0.48191 0.10600
S 	S 	0.32596 0.79730 0.60023 0.10500
S 	S 	0.46474 0.59418 0.56277 0.10000
H 	H 	0.40297 0.87084 0.48042 0.05000
H 	H 	0.35051 0.91998 0.48235 0.04900
Zn	Zn	0.17239 0.12919 0.01711 1.18500
Zn	Zn	0.08104 0.09199 0.90670 1.19500
O 	O 	0.05932 0.98407 0.81608 -0.45900
O 	O 	0.05097 0.06604 0.82920 -0.44000
O 	O 	0.05631 0.91057 0.88942 -0.47900
C 	C 	0.21287 0.08246 0.96519 0.29700
O 	O 	0.02151 0.01235 0.88605 -0.88200
C 	C 	0.18751 0.21749 0.97772 0.30300
O 	O 	0.22815 0.11567 0.01256 -0.44500
O 	O 	0.15927 0.05207 0.92471 -0.37900
O 	O 	0.09720 0.10178 0.97888 -0.77800
O 	O 	0.10593 0.99005 0.97143 -0.44900
O 	O 	0.14623 0.17153 0.92927 -0.44300
O 	O 	0.20151 0.20985 0.02002 -0.45200
Zn	Zn	0.91223 0.92898 0.90394 1.17800
Zn	Zn	0.00122 0.94599 0.00108 1.18900
Zn	Zn	0.03952 0.02091 0.95417 1.21500
C 	C 	0.88758 0.83037 0.93317 0.31000
C 	C 	0.88778 0.97898 0.97177 0.30800
O 	O 	0.97512 0.05652 0.93807 -0.46800
Zn	Zn	0.02581 0.06645 0.04482 1.20000
O 	O 	0.94142 0.86194 0.97464 -0.43600
O 	O 	0.86977 0.84781 0.89722 -0.45900
O 	O 	0.87393 0.96223 0.92323 -0.46800
O 	O 	0.93528 0.98700 0.00861 -0.45600
C 	C 	0.04023 0.01539 0.11562 0.31800
O 	O 	0.98155 0.94055 0.92909 -0.79300
C 	C 	0.97402 0.09702 0.96956 0.31000
O 	O 	0.02752 0.96678 0.07839 -0.42000
O 	O 	0.05086 0.06527 0.11187 -0.46600
O 	O 	0.00141 0.11383 0.02037 -0.48000
O 	O 	0.05564 0.02797 0.02159 -0.89600
Zn	Zn	0.03258 0.95379 0.85605 1.19000
C 	C 	0.05042 0.02194 0.79998 0.31200
C 	C 	0.09721 0.94011 0.94036 0.30800
H 	H 	0.09549 0.04287 0.04907 0.16700
H 	H 	0.98277 0.00307 0.86207 0.15000
Zn	Zn	0.14890 0.13293 0.50898 1.18500
Zn	Zn	0.05638 0.08845 0.39602 1.19400
O 	O 	0.04999 0.98588 0.31548 -0.45800
O 	O 	0.03145 0.06051 0.31960 -0.43400
O 	O 	0.04018 0.90910 0.38512 -0.48600
C 	C 	0.20036 0.09621 0.46482 0.29600
O 	O 	0.00062 0.00657 0.37614 -0.88500
C 	C 	0.15586 0.21864 0.46677 0.30400
O 	O 	0.21117 0.12951 0.50990 -0.45400
O 	O 	0.14737 0.05791 0.42332 -0.34700
O 	O 	0.07227 0.09821 0.46799 -0.77800
O 	O 	0.08949 0.99172 0.46498 -0.44000
O 	O 	0.11791 0.17114 0.41863 -0.43700
O 	O 	0.17076 0.21224 0.50972 -0.45500
Zn	Zn	0.89254 0.91316 0.39490 1.17800
Zn	Zn	0.98795 0.94187 0.49476 1.19100
Zn	Zn	0.01844 0.01614 0.44464 1.21500
C 	C 	0.88201 0.81994 0.43179 0.30800
C 	C 	0.86310 0.95995 0.45895 0.30800
O 	O 	0.94814 0.04411 0.42501 -0.45900
Zn	Zn	0.99946 0.05624 0.53298 1.20000
O 	O 	0.93664 0.85603 0.47152 -0.45300
O 	O 	0.85814 0.83357 0.39448 -0.44500
O 	O 	0.84900 0.94049 0.41027 -0.46900
O 	O 	0.91196 0.97164 0.49719 -0.45400
C 	C 	0.02630 0.01160 0.60878 0.32000
O 	O 	0.96489 0.93396 0.42139 -0.79200
C 	C 	0.94281 0.08135 0.45478 0.30500
O 	O 	0.01712 0.96484 0.57275 -0.43100
O 	O 	0.02741 0.05778 0.60150 -0.46500
O 	O 	0.96869 0.09817 0.50558 -0.47700
O 	O 	0.03507 0.02476 0.51237 -0.90000
Zn	Zn	0.01685 0.95120 0.34987 1.18900
C 	C 	0.03870 0.02054 0.29586 0.30900
C 	C 	0.07989 0.93984 0.43640 0.30400
H 	H 	0.07578 0.04388 0.54066 0.16500
H 	H 	0.96088 0.99406 0.35109 0.16200
C 	C 	0.03256 0.01074 0.65680 -0.10200
C 	C 	0.98407 0.98289 0.65630 0.09500
C 	C 	0.99041 0.98684 0.70357 -0.02600
C 	C 	0.04469 0.01808 0.75105 -0.10600
C 	C 	0.09325 0.04492 0.75144 0.08900
C 	C 	0.08693 0.04131 0.70417 -0.03400
H 	H 	0.95305 0.96582 0.70330 0.02900
H 	H 	0.12427 0.06270 0.70449 0.03700
N 	N 	0.92823 0.95223 0.60783 -0.13700
N 	N 	0.14906 0.07523 0.79989 -0.13800
C 	C 	0.90308 0.88691 0.58250 -0.09200
H 	H 	0.93072 0.87634 0.57420 0.06500
H 	H 	0.86133 0.86474 0.54403 0.06400
H 	H 	0.89621 0.86804 0.60798 0.04800
C 	C 	0.17480 0.14065 0.82533 -0.09600
H 	H 	0.18219 0.15946 0.80001 0.05400
H 	H 	0.21634 0.16242 0.86390 0.06600
H 	H 	0.14729 0.15177 0.83345 0.07300
H 	H 	0.90191 0.96196 0.61528 0.09100
H 	H 	0.17522 0.06502 0.79252 0.08300
C 	C 	0.03904 0.01265 0.16043 -0.08900
C 	C 	0.08732 0.02517 0.20631 0.08700
C 	C 	0.08666 0.02711 0.25047 -0.03400
C 	C 	0.03860 0.01778 0.24929 -0.09300
C 	C 	0.99004 0.00429 0.20306 0.08500
C 	C 	0.99059 0.00193 0.15886 -0.04100
H 	H 	0.12382 0.03674 0.28587 0.05800
H 	H 	0.95336 0.99213 0.12341 0.06300
N 	N 	0.13713 0.03603 0.20803 -0.14300
N 	N 	0.93968 0.99186 0.20077 -0.13700
C 	C 	0.18044 0.10085 0.23765 -0.09200
H 	H 	0.16352 0.12524 0.21913 0.05300
H 	H 	0.21751 0.10807 0.23678 0.04500
H 	H 	0.19527 0.12000 0.27983 0.05800
C 	C 	0.89918 0.92662 0.17447 -0.08800
H 	H 	0.88448 0.90484 0.13247 0.05800
H 	H 	0.86166 0.91821 0.17486 0.04100
H 	H 	0.91872 0.90574 0.19597 0.03300
H 	H 	0.15354 0.01318 0.22518 0.08400
H 	H 	0.92082 0.01157 0.18106 0.08200
C 	C 	0.24822 0.39177 0.48551 0.09800
C 	C 	0.21592 0.33971 0.43638 0.08700
N 	N 	0.18563 0.28444 0.43080 -0.08900
C 	C 	0.18644 0.27907 0.47253 -0.03400
C 	C 	0.21827 0.33143 0.52146 0.04400
N 	N 	0.24854 0.38664 0.52693 -0.11200
N 	N 	0.27904 0.44691 0.49129 -0.11100
N 	N 	0.21563 0.34493 0.39494 -0.10400
H 	H 	0.21894 0.32820 0.55491 0.03500
C 	C 	0.27888 0.45227 0.44985 0.06500
C 	C 	0.24640 0.40022 0.40067 -0.00300
H 	H 	0.24580 0.40378 0.36734 0.04200
C 	C 	0.77953 0.93009 0.51460 0.08500
C 	C 	0.72862 0.92079 0.47504 0.10000
N 	N 	0.68317 0.90080 0.47738 -0.11000
C 	C 	0.68674 0.89073 0.51832 0.06500
C 	C 	0.73843 0.90214 0.55888 -0.00300
N 	N 	0.78359 0.92108 0.55593 -0.11100
N 	N 	0.82355 0.94566 0.51012 -0.09300
N 	N 	0.72456 0.92994 0.43379 -0.11000
H 	H 	0.74248 0.89567 0.59232 0.03600
C 	C 	0.81881 0.95249 0.46764 -0.03300
C 	C 	0.76877 0.94609 0.42950 0.05100
H 	H 	0.76467 0.95271 0.39610 0.04500
C 	C 	0.21467 0.94615 0.50229 0.08700
C 	C 	0.19467 0.88490 0.48763 0.09800
N 	N 	0.23145 0.86645 0.49773 -0.11100
C 	C 	0.28762 0.90671 0.52181 0.06300
C 	C 	0.30781 0.96818 0.53753 0.00900
N 	N 	0.27090 0.98666 0.52738 -0.10400
N 	N 	0.17718 0.96375 0.48823 -0.09400
N 	N 	0.13818 0.84397 0.46061 -0.11300
H 	H 	0.35242 0.00082 0.55700 0.03700
C 	C 	0.12031 0.92238 0.45954 -0.04800
C 	C 	0.10061 0.86148 0.44624 0.04500
H 	H 	0.05553 0.82808 0.42349 0.02900
C 	C 	0.25525 0.33563 0.94836 0.08600
C 	C 	0.28768 0.38825 0.99709 0.09500
N 	N 	0.31901 0.44286 0.00236 -0.10900
C 	C 	0.31948 0.44712 0.96084 0.06300
C 	C 	0.28756 0.39437 0.91229 -0.00300
N 	N 	0.25604 0.33966 0.90702 -0.10800
N 	N 	0.22294 0.28114 0.94276 -0.09300
N 	N 	0.28673 0.38430 0.03836 -0.11100
H 	H 	0.28750 0.39701 0.87892 0.04000
C 	C 	0.22202 0.27700 0.98416 -0.03800
C 	C 	0.25465 0.32978 0.03294 0.04700
H 	H 	0.25410 0.32748 0.06616 0.03400
C 	C 	0.80650 0.95035 0.02964 0.08900
C 	C 	0.75391 0.93683 0.98895 0.09800
N 	N 	0.70874 0.91491 0.99154 -0.11100
C 	C 	0.71418 0.90708 0.03383 0.06600
C 	C 	0.76756 0.92321 0.07567 -0.00400
N 	N 	0.81249 0.94398 0.07247 -0.11000
N 	N 	0.85021 0.96694 0.02470 -0.09200
N 	N 	0.74796 0.94353 0.94627 -0.11000
H 	H 	0.77308 0.91879 0.11023 0.03500
C 	C 	0.84360 0.97101 0.98074 -0.03500
C 	C 	0.79191 0.96099 0.94160 0.05100
H 	H 	0.78633 0.96568 0.90711 0.04400
C 	C 	0.18046 0.87138 0.94163 0.08800
C 	C 	0.22580 0.90301 0.99570 0.09600
N 	N 	0.26887 0.89343 0.01200 -0.10900
C 	C 	0.26848 0.85360 0.97621 0.06500
C 	C 	0.22286 0.82170 0.92223 -0.00100
N 	N 	0.17978 0.83126 0.90602 -0.10400
N 	N 	0.13843 0.88241 0.92508 -0.09000
N 	N 	0.22690 0.94392 0.03114 -0.11200
H 	H 	0.22173 0.78946 0.89343 0.04500
C 	C 	0.13986 0.92421 0.96025 -0.04800
C 	C 	0.18484 0.95517 0.01456 0.04900
H 	H 	0.18668 0.98841 0.04322 0.01900
C 	C 	0.81812 0.12028 0.38520 0.09600
C 	C 	0.82222 0.09976 0.42245 0.08600
N 	N 	0.86248 0.08712 0.44408 -0.09300
C 	C 	0.89821 0.09287 0.42921 -0.04600
C 	C 	0.89288 0.11142 0.39066 0.04300
N 	N 	0.85321 0.12528 0.36972 -0.11500
N 	N 	0.78069 0.13728 0.36657 -0.11200
N 	N 	0.78726 0.09479 0.43802 -0.10400
H 	H 	0.92091 0.11603 0.37832 0.01600
C 	C 	0.74649 0.13363 0.38310 0.06400
C 	C 	0.74924 0.11098 0.41884 -0.00000
H 	H 	0.72257 0.10821 0.43258 0.04700
C 	C 	0.78428 0.65076 0.41635 0.09700
C 	C 	0.76191 0.66536 0.37585 0.08600
N 	N 	0.79405 0.72001 0.38165 -0.09100
C 	C 	0.84793 0.76089 0.42638 -0.03600
C 	C 	0.86998 0.74641 0.46718 0.04200
N 	N 	0.83773 0.69159 0.46124 -0.11300
N 	N 	0.75267 0.59554 0.40998 -0.11100
N 	N 	0.70856 0.62440 0.33083 -0.10400
H 	H 	0.91239 0.77854 0.50336 0.03900
C 	C 	0.69935 0.55417 0.36467 0.06500
C 	C 	0.67679 0.56909 0.32444 -0.00300
H 	H 	0.63441 0.53673 0.28825 0.04400
C 	C 	0.27479 0.10250 0.40011 0.08600
C 	C 	0.33179 0.14455 0.44365 0.09800
N 	N 	0.37291 0.16397 0.43544 -0.11100
C 	C 	0.35941 0.14272 0.38531 0.06400
C 	C 	0.30244 0.09978 0.34186 -0.00600
N 	N 	0.26127 0.08067 0.35014 -0.11000
N 	N 	0.23337 0.08562 0.40809 -0.09300
N 	N 	0.34522 0.16682 0.49357 -0.11100
H 	H 	0.29107 0.08192 0.30182 0.03600
C 	C 	0.24646 0.10920 0.45795 -0.02900
C 	C 	0.30375 0.14983 0.50166 0.04500
H 	H 	0.31513 0.16848 0.54166 0.04100
C 	C 	0.84935 0.13660 0.90280 0.09600
C 	C 	0.85422 0.11579 0.93997 0.08600
N 	N 	0.89505 0.10388 0.96127 -0.09200
C 	C 	0.93055 0.11047 0.94607 -0.04700
C 	C 	0.92456 0.12937 0.90764 0.04300
N 	N 	0.88437 0.14265 0.88710 -0.11500
N 	N 	0.81136 0.15296 0.88455 -0.11200
N 	N 	0.81929 0.10965 0.95567 -0.10400
H 	H 	0.95223 0.13434 0.89486 0.01600
C 	C 	0.77738 0.14846 0.90145 0.06400
C 	C 	0.78070 0.12519 0.93689 -0.00100
H 	H 	0.75426 0.12181 0.95097 0.04600
C 	C 	0.77301 0.66278 0.90817 0.09700
C 	C 	0.83107 0.69568 0.94997 0.08700
N 	N 	0.86720 0.74960 0.95747 -0.08900
C 	C 	0.84769 0.77210 0.92476 -0.03500
C 	C 	0.78934 0.73944 0.88340 0.04500
N 	N 	0.75328 0.68539 0.87589 -0.11300
N 	N 	0.73724 0.60788 0.89948 -0.11500
N 	N 	0.85090 0.67268 0.98183 -0.10400
H 	H 	0.77280 0.75694 0.85745 0.03700
C 	C 	0.75707 0.58459 0.93119 0.06400
C 	C 	0.81508 0.61772 0.97322 0.00100
H 	H 	0.83165 0.59925 0.99815 0.04800
C 	C 	0.33663 0.11407 0.93497 0.09600
C 	C 	0.35282 0.14177 0.98712 0.08600
N 	N 	0.31248 0.12852 0.99656 -0.09100
C 	C 	0.25644 0.08828 0.95593 -0.03100
C 	C 	0.24072 0.05810 0.90420 0.04100
N 	N 	0.28109 0.07206 0.89473 -0.11400
N 	N 	0.37620 0.13159 0.92476 -0.11200
N 	N 	0.40836 0.18410 0.02731 -0.10300
H 	H 	0.19651 0.02508 0.87151 0.04300
C 	C 	0.43170 0.17517 0.96473 0.06200
C 	C 	0.44824 0.20098 0.01724 0.00100
H 	H 	0.49237 0.23485 0.04965 0.04300
