data_crystal

_cell_length_a 18.55851
_cell_length_b 18.92384
_cell_length_c 34.63812
_cell_angle_alpha 95.43876
_cell_angle_beta  95.43870
_cell_angle_gamma 126.42415

_symmetry_space_group_name_	'P 1'
_symmetry_space_group_name_H-M	'P 1'

loop_
_symmetry_equiv_pos_as_xyz
  x,y,z

loop_
_atom_site_label
_atom_site_type_symbol
_atom_site_fract_x
_atom_site_fract_y
_atom_site_fract_z
_atom_site_charge
C 	C 	0.92114 0.00136 0.96000 0.04300
C 	C 	0.01408 0.05327 0.95819 -0.09000
C 	C 	0.05991 0.01546 0.95954 0.04400
C 	C 	0.01194 0.92442 0.96031 -0.08900
C 	C 	0.91841 0.87101 0.96070 0.04500
C 	C 	0.87291 0.90973 0.96120 -0.09000
H 	H 	0.05163 0.12401 0.95771 0.05500
H 	H 	0.04762 0.89525 0.96107 0.05500
H 	H 	0.80109 0.86926 0.96273 0.05200
C 	C 	0.92753 0.03158 0.48998 0.04300
C 	C 	0.02065 0.07477 0.49041 -0.08900
C 	C 	0.05493 0.02567 0.49072 0.04200
C 	C 	0.99635 0.93400 0.49119 -0.08600
C 	C 	0.90406 0.89163 0.49204 0.04200
C 	C 	0.86954 0.94018 0.49100 -0.08800
H 	H 	0.06590 0.14581 0.49015 0.05200
H 	H 	0.02298 0.89622 0.49192 0.05300
H 	H 	0.79783 0.90706 0.49123 0.05400
Cu	Cu	0.77640 0.35000 0.96085 0.92500
Cu	Cu	0.76854 0.28826 0.04675 0.86700
Cu	Cu	0.63099 0.30572 0.01005 0.89600
Cu	Cu	0.60390 0.33800 0.92891 0.89300
C 	C 	0.70692 0.30928 0.87764 0.29300
O 	O 	0.82574 0.47861 0.95765 -0.36200
C 	C 	0.68160 0.33133 0.09648 0.29000
O 	O 	0.63390 0.27441 0.95614 -0.63900
O 	O 	0.76504 0.36768 0.01658 -0.64100
O 	O 	0.84174 0.29592 0.96724 -0.37300
O 	O 	0.74452 0.20155 0.00448 -0.44200
O 	O 	0.67122 0.35094 0.88516 -0.39000
O 	O 	0.49985 0.23667 0.00130 -0.38800
C 	C 	0.44836 0.22901 0.96961 0.30000
C 	C 	0.78320 0.51094 0.96913 0.28900
O 	O 	0.69860 0.45603 0.97385 -0.39700
O 	O 	0.48362 0.28459 0.94464 -0.39700
O 	O 	0.76391 0.31349 0.90546 -0.36600
C 	C 	0.80544 0.22285 0.98225 0.29800
O 	O 	0.62955 0.32876 0.06659 -0.38200
O 	O 	0.75829 0.34446 0.09231 -0.42200
H 	H 	0.59564 0.20932 0.94568 0.15900
H 	H 	0.80267 0.43058 0.03063 0.17100
Cu	Cu	0.60270 0.20151 0.50660 0.92700
Cu	Cu	0.66226 0.21832 0.41992 0.86600
Cu	Cu	0.64082 0.34660 0.46086 0.89600
Cu	Cu	0.61245 0.36628 0.54326 0.89200
C 	C 	0.64766 0.26349 0.59047 0.29400
O 	O 	0.47221 0.14917 0.51148 -0.36700
C 	C 	0.61034 0.30316 0.37381 0.29200
O 	O 	0.67714 0.34124 0.51348 -0.64100
O 	O 	0.58092 0.21587 0.45190 -0.64200
O 	O 	0.65883 0.14045 0.49648 -0.37900
O 	O 	0.75328 0.24155 0.46067 -0.44700
O 	O 	0.60359 0.29762 0.58521 -0.39400
O 	O 	0.70807 0.47441 0.47190 -0.39500
C 	C 	0.69843 0.51956 0.49962 0.30400
C 	C 	0.43663 0.18955 0.50189 0.29200
O 	O 	0.48989 0.27421 0.49908 -0.40100
O 	O 	0.66594 0.48764 0.53134 -0.40000
O 	O 	0.64288 0.21002 0.56116 -0.36900
C 	C 	0.73427 0.18109 0.48211 0.30100
O 	O 	0.61414 0.35184 0.40519 -0.38800
O 	O 	0.60133 0.22928 0.37612 -0.42500
H 	H 	0.74390 0.37964 0.52310 0.16200
H 	H 	0.51635 0.17836 0.43833 0.17300
C 	C 	0.62166 0.22193 0.76781 -0.09000
C 	C 	0.70375 0.25634 0.75457 0.00200
C 	C 	0.78456 0.29484 0.78224 0.02400
C 	C 	0.78415 0.30834 0.82278 -0.01600
C 	C 	0.70310 0.27967 0.83595 -0.10400
C 	C 	0.62013 0.23017 0.80835 0.09000
C 	C 	0.70610 0.26030 0.71212 0.00200
C 	C 	0.87217 0.32571 0.76871 -0.17200
H 	H 	0.84748 0.34395 0.84396 0.04500
C 	C 	0.53027 0.18874 0.82180 -0.19600
H 	H 	0.55921 0.19034 0.74652 0.05000
C 	C 	0.66500 0.18181 0.68362 0.02400
C 	C 	0.65047 0.18432 0.64337 -0.01600
C 	C 	0.68043 0.26503 0.63132 -0.10600
C 	C 	0.73274 0.34541 0.65959 0.09100
C 	C 	0.74216 0.34195 0.69988 -0.09000
C 	C 	0.63241 0.09457 0.69599 -0.17200
H 	H 	0.61277 0.12293 0.62162 0.04400
C 	C 	0.77553 0.43458 0.64715 -0.19700
H 	H 	0.77586 0.40259 0.72178 0.05000
H 	H 	0.47279 0.13251 0.79881 0.06100
H 	H 	0.51889 0.23975 0.82784 0.06100
H 	H 	0.52918 0.16131 0.84890 0.05300
H 	H 	0.90270 0.39067 0.75901 0.06200
H 	H 	0.85928 0.27566 0.74383 0.06200
H 	H 	0.92224 0.33445 0.79285 0.06000
H 	H 	0.62157 0.04580 0.67104 0.06000
H 	H 	0.56698 0.06525 0.70638 0.06200
H 	H 	0.68373 0.10524 0.72009 0.06200
H 	H 	0.72428 0.44708 0.64244 0.06000
H 	H 	0.80190 0.43622 0.61950 0.05500
H 	H 	0.83406 0.48975 0.67012 0.06200
C 	C 	0.64262 0.27811 0.19870 -0.09000
C 	C 	0.62492 0.33678 0.21357 0.00200
C 	C 	0.62223 0.39156 0.18940 0.02300
C 	C 	0.64089 0.38912 0.15108 -0.01500
C 	C 	0.65949 0.33091 0.13635 -0.10700
C 	C 	0.65710 0.27263 0.15988 0.08900
C 	C 	0.61104 0.34130 0.25491 0.00200
C 	C 	0.60141 0.45379 0.20456 -0.17100
H 	H 	0.64179 0.43311 0.13288 0.03800
C 	C 	0.67083 0.20515 0.14398 -0.19400
H 	H 	0.64434 0.23602 0.21734 0.04700
C 	C 	0.52960 0.27107 0.26545 0.02200
C 	C 	0.52769 0.26256 0.30523 -0.01400
C 	C 	0.60456 0.32555 0.33461 -0.11100
C 	C 	0.68121 0.40251 0.32452 0.09100
C 	C 	0.68454 0.40895 0.28456 -0.09300
C 	C 	0.44691 0.20169 0.23422 -0.17000
H 	H 	0.46774 0.20494 0.31316 0.03400
C 	C 	0.76144 0.47530 0.35599 -0.20200
H 	H 	0.74593 0.46442 0.27643 0.04800
H 	H 	0.64835 0.15336 0.16258 0.05900
H 	H 	0.74418 0.23940 0.14349 0.05600
H 	H 	0.63030 0.17002 0.11367 0.04800
H 	H 	0.65889 0.50877 0.22788 0.06000
H 	H 	0.53807 0.41678 0.21700 0.06100
H 	H 	0.59101 0.48381 0.18066 0.05800
H 	H 	0.38412 0.16515 0.24708 0.05700
H 	H 	0.45581 0.15273 0.22023 0.06000
H 	H 	0.43680 0.23370 0.21124 0.06100
H 	H 	0.81329 0.53331 0.34346 0.06400
H 	H 	0.79455 0.44904 0.37064 0.05600
H 	H 	0.73836 0.49998 0.37835 0.08100
C 	C 	0.79794 0.67858 0.53288 -0.02500
C 	C 	0.74011 0.61401 0.49879 -0.11300
C 	C 	0.72893 0.64123 0.46344 0.12300
C 	C 	0.78337 0.73252 0.46179 -0.09100
C 	C 	0.84411 0.79685 0.49543 -0.01900
C 	C 	0.84888 0.76993 0.53174 0.06300
N 	N 	0.90185 0.83129 0.56552 -0.19300
H 	H 	0.80487 0.65770 0.56020 0.03800
H 	H 	0.77788 0.75366 0.43434 0.05000
N 	N 	0.66434 0.58045 0.43155 -0.20300
H 	H 	0.90688 0.81070 0.59194 0.07800
H 	H 	0.93628 0.89960 0.56624 0.08400
H 	H 	0.61455 0.51394 0.43352 0.09200
H 	H 	0.66017 0.60056 0.40487 0.08100
C 	C 	0.88033 0.11625 0.52280 -0.09200
C 	C 	0.88987 0.08143 0.48775 -0.01700
C 	C 	0.85293 0.08452 0.45086 0.06000
C 	C 	0.80282 0.11802 0.44978 -0.02300
C 	C 	0.79019 0.14964 0.48478 -0.12200
C 	C 	0.83195 0.15173 0.52172 0.12800
N 	N 	0.82755 0.18917 0.55608 -0.20400
H 	H 	0.90969 0.11469 0.55102 0.05200
H 	H 	0.77257 0.11850 0.42152 0.01600
N 	N 	0.86482 0.05497 0.41644 -0.19300
H 	H 	0.85558 0.18724 0.58323 0.08300
H 	H 	0.79981 0.22362 0.55623 0.09700
H 	H 	0.90455 0.03274 0.41619 0.08100
H 	H 	0.83555 0.05571 0.38932 0.07300
C 	C 	0.20784 0.09665 0.53025 -0.09000
C 	C 	0.15333 0.07109 0.49316 -0.01900
C 	C 	0.19153 0.08202 0.45868 0.06300
C 	C 	0.28392 0.11829 0.46212 -0.02600
C 	C 	0.33833 0.14347 0.49922 -0.11200
C 	C 	0.29996 0.13241 0.53370 0.12200
N 	N 	0.35107 0.15626 0.57014 -0.20600
H 	H 	0.17803 0.08747 0.55654 0.05100
H 	H 	0.31379 0.12781 0.43584 0.03200
N 	N 	0.14020 0.05816 0.42231 -0.19300
H 	H 	0.32219 0.14862 0.59537 0.08200
H 	H 	0.41938 0.18181 0.57389 0.09700
H 	H 	0.07176 0.03239 0.41871 0.08200
H 	H 	0.16891 0.06590 0.39702 0.07700
C 	C 	0.83434 0.63295 0.93150 -0.03100
C 	C 	0.82212 0.60491 0.96796 -0.10700
C 	C 	0.83253 0.66189 0.00131 0.11700
C 	C 	0.85474 0.74572 0.99739 -0.08600
C 	C 	0.86915 0.77457 0.96112 -0.02200
C 	C 	0.85530 0.71618 0.92751 0.06600
N 	N 	0.86120 0.73936 0.89130 -0.19400
H 	H 	0.82382 0.58831 0.90573 0.04400
H 	H 	0.86569 0.79060 0.02316 0.04900
N 	N 	0.82407 0.63779 0.03736 -0.20200
H 	H 	0.85406 0.69744 0.86682 0.08000
H 	H 	0.86964 0.79750 0.88686 0.08300
H 	H 	0.81489 0.57942 0.04197 0.08100
H 	H 	0.82950 0.67911 0.06160 0.08000
C 	C 	0.82764 0.12801 0.93825 -0.02600
C 	C 	0.83756 0.16799 0.97660 -0.11000
C 	C 	0.86857 0.14722 0.00945 0.11200
C 	C 	0.88448 0.08348 0.00328 -0.08700
C 	C 	0.87765 0.04580 0.96500 -0.02100
C 	C 	0.84702 0.06670 0.93210 0.06500
N 	N 	0.83530 0.02765 0.89465 -0.19400
H 	H 	0.80291 0.14307 0.91312 0.04400
H 	H 	0.90878 0.06806 0.02842 0.04800
N 	N 	0.88726 0.19114 0.04678 -0.19900
H 	H 	0.81496 0.04503 0.87046 0.08000
H 	H 	0.84388 0.97807 0.88921 0.08300
H 	H 	0.88887 0.24734 0.05200 0.04300
H 	H 	0.90573 0.17240 0.07099 0.07200
C 	C 	0.19461 0.06729 0.92894 -0.08800
C 	C 	0.15944 0.07219 0.96229 -0.02000
C 	C 	0.21942 0.12651 0.99857 0.06600
C 	C 	0.31375 0.17695 0.00034 -0.02600
C 	C 	0.34897 0.17153 0.96706 -0.10800
C 	C 	0.28877 0.11410 0.93128 0.11700
N 	N 	0.32055 0.10108 0.89965 -0.20200
H 	H 	0.14826 0.02434 0.90141 0.05000
H 	H 	0.35998 0.22079 0.02775 0.04700
N 	N 	0.18700 0.12981 0.03181 -0.19400
H 	H 	0.27597 0.06165 0.87285 0.07700
H 	H 	0.38855 0.12595 0.90182 0.07200
H 	H 	0.11726 0.09036 0.03208 0.08400
H 	H 	0.23205 0.17127 0.05825 0.07900
