data_crystal

_cell_length_a 24.85057
_cell_length_b 21.91897
_cell_length_c 40.12285
_cell_angle_alpha 104.03495
_cell_angle_beta  115.94622
_cell_angle_gamma 111.52512

_symmetry_space_group_name_	'P 1'
_symmetry_space_group_name_H-M	'P 1'

loop_
_symmetry_equiv_pos_as_xyz
  x,y,z

loop_
_atom_site_label
_atom_site_type_symbol
_atom_site_fract_x
_atom_site_fract_y
_atom_site_fract_z
_atom_site_charge
Zn	Zn	0.97509 0.98330 0.93296 1.21800
Zn	Zn	0.03106 0.01508 0.45274 1.21300
O 	O 	0.98010 0.03975 0.83124 -0.41100
O 	O 	0.03263 0.07871 0.35225 -0.41800
Zn	Zn	0.03586 0.94790 0.37811 1.19400
Zn	Zn	0.98437 0.91437 0.86056 1.19200
C 	C 	0.99600 0.93038 0.64794 -0.06700
C 	C 	0.00252 0.92967 0.61508 0.02500
O 	O 	0.04516 0.94865 0.55691 -0.41500
O 	O 	0.99669 0.92957 0.04156 -0.41000
O 	O 	0.98374 0.02962 0.05662 -0.46300
C 	C 	0.99404 0.97958 0.06603 0.34100
C 	C 	0.00331 0.98006 0.10473 -0.10700
C 	C 	0.03549 0.02644 0.29322 -0.12000
O 	O 	0.04378 0.05563 0.57707 -0.46200
O 	O 	0.00075 0.99799 0.98818 -0.89100
O 	O 	0.05708 0.02574 0.50749 -0.90000
O 	O 	0.02792 0.87565 0.89312 -0.48200
C 	C 	0.04689 0.00044 0.58339 0.29900
C 	C 	0.04468 0.03317 0.33289 0.31000
C 	C 	0.01996 1.00000 0.18040 0.09300
C 	C 	0.02748 0.00990 0.22004 0.04500
C 	C 	0.00406 0.00259 0.81785 0.29100
C 	C 	0.05128 0.99592 0.62033 -0.07900
C 	C 	0.03891 0.99746 0.68600 0.08600
Cl	Cl	0.97264 0.21307 0.44845 -0.33600
C 	C 	0.02954 0.00078 0.71994 0.04200
C 	C 	0.95627 0.98773 0.74549 0.04800
O 	O 	0.94977 0.96959 0.87755 -0.86000
O 	O 	0.00493 0.00482 0.39784 -0.88400
N 	N 	0.08900 0.06030 0.69141 -0.11500
C 	C 	0.09580 0.06096 0.65961 0.05900
C 	C 	0.72746 0.48626 0.95898 0.03300
C 	C 	0.77486 0.48133 0.99218 -0.02400
C 	C 	0.74973 0.42071 0.99902 -0.06000
C 	C 	0.67714 0.36421 0.97260 0.08400
C 	C 	0.62930 0.36995 0.93973 -0.06000
C 	C 	0.65447 0.43099 0.93317 -0.01500
N 	N 	0.65327 0.29930 0.97825 -0.14100
C 	C 	0.46705 0.23162 0.97547 0.03000
C 	C 	0.46196 0.19238 0.93983 -0.01500
C 	C 	0.52268 0.21455 0.94026 -0.05900
C 	C 	0.58959 0.27543 0.97688 0.08000
C 	C 	0.59448 0.31376 0.01262 -0.05400
C 	C 	0.53351 0.29209 0.01192 -0.01800
C 	C 	0.68814 0.14154 0.92157 0.03100
C 	C 	0.70216 0.15844 0.96163 -0.01500
C 	C 	0.68720 0.20753 0.97916 -0.06100
C 	C 	0.65851 0.24059 0.95703 0.08400
C 	C 	0.63992 0.21962 0.91559 -0.06000
C 	C 	0.65520 0.17068 0.89814 -0.02000
H 	H 	0.83126 0.52417 0.01244 0.05900
H 	H 	0.78679 0.41676 0.02438 0.06400
H 	H 	0.57316 0.32651 0.91881 0.06300
H 	H 	0.61747 0.43483 0.90768 0.06300
H 	H 	0.41072 0.14552 0.91157 0.06000
H 	H 	0.51749 0.18543 0.91202 0.06000
H 	H 	0.64567 0.36061 0.04087 0.06100
H 	H 	0.53781 0.32261 0.03957 0.05700
H 	H 	0.72736 0.13587 0.97987 0.06700
H 	H 	0.70055 0.22236 0.01072 0.06800
H 	H 	0.61427 0.24146 0.89711 0.06200
H 	H 	0.64334 0.15712 0.86695 0.05800
C 	C 	0.77588 0.52600 0.48093 0.03400
C 	C 	0.82426 0.52552 0.51605 -0.01800
C 	C 	0.80161 0.46516 0.52350 -0.05700
C 	C 	0.73076 0.40420 0.49560 0.08200
C 	C 	0.68165 0.40579 0.46103 -0.06000
C 	C 	0.70431 0.46647 0.45379 -0.02300
N 	N 	0.71067 0.33875 0.50115 -0.14000
C 	C 	0.51653 0.24473 0.48978 0.03500
C 	C 	0.51745 0.21347 0.45530 -0.02200
C 	C 	0.58077 0.24442 0.45854 -0.05900
C 	C 	0.64421 0.30673 0.49668 0.08400
C 	C 	0.64309 0.33739 0.53116 -0.05500
C 	C 	0.57954 0.30678 0.52771 -0.01600
C 	C 	0.75869 0.19064 0.44926 0.03500
C 	C 	0.77149 0.20759 0.48904 -0.01700
C 	C 	0.75379 0.25471 0.50532 -0.05400
C 	C 	0.72355 0.28577 0.48223 0.08300
C 	C 	0.70815 0.26639 0.44152 -0.06000
C 	C 	0.72603 0.21929 0.42530 -0.02400
H 	H 	0.87967 0.57133 0.53713 0.06000
H 	H 	0.83960 0.46452 0.55023 0.06200
H 	H 	0.62681 0.35909 0.43907 0.05500
H 	H 	0.66663 0.46652 0.42661 0.05700
H 	H 	0.46876 0.16615 0.42572 0.05700
H 	H 	0.58016 0.22109 0.43125 0.05800
H 	H 	0.69158 0.38522 0.56058 0.06400
H 	H 	0.57901 0.33183 0.55431 0.06200
H 	H 	0.79686 0.18571 0.50777 0.06800
H 	H 	0.76506 0.26863 0.53639 0.06800
H 	H 	0.68204 0.28718 0.42242 0.05500
H 	H 	0.71556 0.20604 0.39444 0.05400
C 	C 	0.29936 0.53270 0.97419 0.03100
C 	C 	0.33339 0.59095 0.01445 -0.01500
C 	C 	0.37518 0.66527 0.02489 -0.05200
C 	C 	0.38294 0.68225 0.99515 0.07800
C 	C 	0.35020 0.62353 0.95504 -0.05900
C 	C 	0.30840 0.54916 0.94465 -0.02100
N 	N 	0.42055 0.75973 0.00524 -0.13500
C 	C 	0.57263 0.82063 0.97696 0.03300
C 	C 	0.50396 0.80288 0.94821 -0.02100
C 	C 	0.45354 0.78275 0.95717 -0.05700
C 	C 	0.47153 0.78010 0.99513 0.07700
C 	C 	0.54041 0.79839 0.02386 -0.05100
C 	C 	0.59072 0.81855 0.01485 -0.01800
C 	C 	0.29306 0.85247 0.98426 0.03000
C 	C 	0.36276 0.89334 0.02109 -0.01300
C 	C 	0.40500 0.86324 0.02728 -0.05200
C 	C 	0.37819 0.79235 0.99661 0.07800
C 	C 	0.30895 0.75256 0.95898 -0.05900
C 	C 	0.26662 0.78237 0.95308 -0.02300
H 	H 	0.32682 0.57866 0.03748 0.05900
H 	H 	0.40028 0.70996 0.05581 0.06300
H 	H 	0.35536 0.63553 0.93162 0.05500
H 	H 	0.28244 0.50445 0.91352 0.05700
H 	H 	0.48935 0.80365 0.91868 0.06200
H 	H 	0.40037 0.76772 0.93431 0.05500
H 	H 	0.55480 0.79672 0.05314 0.06200
H 	H 	0.64351 0.83166 0.03709 0.06000
H 	H 	0.38397 0.94808 0.04503 0.06700
H 	H 	0.45827 0.89446 0.05618 0.06400
H 	H 	0.28823 0.69921 0.93422 0.05400
H 	H 	0.21328 0.75108 0.92419 0.05200
C 	C 	0.35702 0.56911 0.49816 0.03400
C 	C 	0.38990 0.62880 0.53765 -0.01800
C 	C 	0.43152 0.70249 0.54714 -0.05600
C 	C 	0.44011 0.71744 0.51716 0.08300
C 	C 	0.40818 0.65732 0.47776 -0.06000
C 	C 	0.36670 0.58356 0.46836 -0.02200
N 	N 	0.47752 0.79428 0.52616 -0.14000
C 	C 	0.63005 0.85382 0.49817 0.03800
C 	C 	0.56095 0.83436 0.46881 -0.02000
C 	C 	0.51025 0.81411 0.47754 -0.05700
C 	C 	0.52840 0.81322 0.51592 0.08300
C 	C 	0.59760 0.83285 0.54517 -0.05400
C 	C 	0.64818 0.85301 0.53637 -0.01900
C 	C 	0.34978 0.88670 0.50164 0.03500
C 	C 	0.41997 0.92915 0.53814 -0.01200
C 	C 	0.46219 0.89898 0.54553 -0.05200
C 	C 	0.43489 0.82648 0.51634 0.08400
C 	C 	0.36527 0.78516 0.47886 -0.05900
C 	C 	0.32294 0.81503 0.47182 -0.02200
H 	H 	0.38280 0.61808 0.56087 0.05800
H 	H 	0.45586 0.74827 0.57748 0.06400
H 	H 	0.41375 0.66773 0.45410 0.05500
H 	H 	0.34160 0.53776 0.43782 0.05600
H 	H 	0.54628 0.83398 0.43902 0.06300
H 	H 	0.45680 0.79785 0.45424 0.05700
H 	H 	0.61210 0.83248 0.57477 0.06200
H 	H 	0.70125 0.86729 0.55904 0.05800
H 	H 	0.44149 0.98508 0.56097 0.07200
H 	H 	0.51583 0.93145 0.57422 0.06800
H 	H 	0.34422 0.73052 0.45511 0.05500
H 	H 	0.26920 0.78247 0.44315 0.05400
Zn	Zn	0.11964 0.14805 0.98685 1.19100
Zn	Zn	0.00591 0.07430 0.89107 1.20100
O 	O 	0.02728 0.96778 0.83705 -0.43900
C 	C 	0.20919 0.13601 0.96486 0.33900
C 	C 	0.11989 0.24098 0.94502 0.35300
O 	O 	0.20920 0.16261 0.99787 -0.44100
O 	O 	0.14895 0.09586 0.92690 -0.33500
O 	O 	0.02417 0.08682 0.94802 -0.77000
O 	O 	0.08043 0.97980 0.95367 -0.43800
O 	O 	0.07045 0.18103 0.90715 -0.41500
O 	O 	0.13186 0.23799 0.97979 -0.44200
Zn	Zn	0.83043 0.83269 0.89472 1.18300
Zn	Zn	0.96125 0.89642 0.97910 1.19500
C 	C 	0.84664 0.73879 0.93646 0.35300
C 	C 	0.78168 0.87603 0.94148 0.34300
O 	O 	0.86922 0.98880 0.91189 -0.44900
Zn	Zn	0.94408 0.02016 0.00041 1.20400
O 	O 	0.91494 0.79058 0.96536 -0.43500
O 	O 	0.80968 0.73996 0.90122 -0.43200
O 	O 	0.76291 0.84618 0.90262 -0.45000
O 	O 	0.84717 0.90315 0.97326 -0.45600
O 	O 	0.92531 0.87982 0.91865 -0.78600
C 	C 	0.85932 0.03379 0.93359 0.35400
O 	O 	0.89051 0.05699 0.97414 -0.48500
C 	C 	0.08003 0.92249 0.93312 0.34100
H 	H 	0.05240 0.03160 0.01110 0.15600
H 	H 	0.89797 0.94547 0.85669 0.15900
Zn	Zn	0.17873 0.17615 0.50675 1.19100
Zn	Zn	0.06443 0.10997 0.41321 1.20500
O 	O 	0.06962 0.99728 0.35014 -0.43400
O 	O 	0.08202 0.90863 0.40890 -0.47400
C 	C 	0.25838 0.15605 0.47800 0.33900
C 	C 	0.18058 0.27582 0.46927 0.35800
O 	O 	0.26400 0.18554 0.51287 -0.45600
O 	O 	0.19543 0.11456 0.44152 -0.33000
O 	O 	0.08278 0.11947 0.46987 -0.76200
O 	O 	0.13465 0.00930 0.47122 -0.46200
O 	O 	0.13217 0.21683 0.43096 -0.40200
O 	O 	0.19441 0.26975 0.50354 -0.44200
Zn	Zn	0.88411 0.86669 0.41322 1.18300
Zn	Zn	0.01444 0.92240 0.49563 1.19300
C 	C 	0.89671 0.76685 0.45110 0.35100
C 	C 	0.83864 0.91039 0.46220 0.34100
O 	O 	0.92813 0.02474 0.43473 -0.45300
Zn	Zn	0.00347 0.05024 0.52185 1.20000
O 	O 	0.96589 0.81541 0.47879 -0.44200
O 	O 	0.85922 0.77146 0.41739 -0.41500
O 	O 	0.81943 0.88326 0.42313 -0.44800
O 	O 	0.90361 0.93447 0.49331 -0.46300
O 	O 	0.97860 0.91063 0.43610 -0.77900
C 	C 	0.92163 0.07135 0.45809 0.35500
O 	O 	0.95319 0.09199 0.49842 -0.48000
C 	C 	0.13439 0.95375 0.44905 0.35600
H 	H 	0.10893 0.05736 0.53011 0.16200
H 	H 	0.95339 0.98297 0.37764 0.17500
N 	N 	0.08561 0.02293 0.75896 -0.10700
C 	C 	0.07896 0.02626 0.79116 0.07800
C 	C 	0.01372 0.00787 0.78487 -0.11400
C 	C 	0.96400 0.98387 0.71278 -0.05600
H 	H 	0.12421 0.04260 0.82157 0.05100
H 	H 	0.90536 0.97319 0.73991 0.03100
H 	H 	0.91947 0.96766 0.68210 0.05900
H 	H 	0.96749 0.87875 0.58502 0.05000
H 	H 	0.95695 0.87969 0.64361 0.06900
H 	H 	0.13435 0.11261 0.66443 0.03500
N 	N 	0.95385 0.96413 0.14382 -0.11000
C 	C 	0.94450 0.95444 0.10647 0.09300
C 	C 	0.07150 0.01509 0.14169 0.04000
C 	C 	0.08003 0.02529 0.17979 -0.09400
H 	H 	0.89145 0.92839 0.07827 0.05000
H 	H 	0.11777 0.03602 0.14113 0.02700
H 	H 	0.13278 0.05289 0.20861 0.06500
C 	C 	0.06986 0.09008 0.29067 0.04900
C 	C 	0.06609 0.08190 0.25398 -0.06900
N 	N 	0.99323 0.94876 0.22285 -0.10300
C 	C 	0.99702 0.95549 0.25854 0.09500
H 	H 	0.10052 0.14546 0.31727 0.05400
H 	H 	0.09260 0.13097 0.25181 0.06000
H 	H 	0.97026 0.90562 0.26002 0.01300
C 	C 	0.22470 0.34867 0.47406 -0.10500
C 	C 	0.19370 0.38469 0.45582 0.20500
C 	C 	0.23726 0.45584 0.46282 -0.09600
C 	C 	0.31163 0.49144 0.48788 -0.00200
C 	C 	0.34238 0.45439 0.50500 0.14000
C 	C 	0.29898 0.38374 0.49841 -0.01500
H 	H 	0.21336 0.48410 0.44950 0.08800
H 	H 	0.32305 0.35592 0.51215 0.07800
Cl	Cl	0.10077 0.34306 0.42585 -0.30200
Cl	Cl	0.43523 0.49562 0.53447 -0.31200
C 	C 	0.68166 0.86899 0.48743 -0.00100
C 	C 	0.73558 0.94292 0.50333 0.14500
C 	C 	0.78663 0.95592 0.49487 -0.01400
C 	C 	0.78353 0.89571 0.46991 -0.12000
C 	C 	0.72852 0.82176 0.45322 0.20800
C 	C 	0.67818 0.80888 0.46217 -0.09700
H 	H 	0.82835 0.01287 0.50742 0.05900
H 	H 	0.63665 0.75194 0.44980 0.09000
Cl	Cl	0.73909 0.01964 0.53329 -0.31000
Cl	Cl	0.72272 0.74452 0.42184 -0.32400
C 	C 	0.19782 0.94942 0.46733 -0.13400
C 	C 	0.23500 0.95410 0.44874 0.20700
C 	C 	0.28863 0.93913 0.46254 -0.10000
C 	C 	0.30446 0.91755 0.49400 0.00400
C 	C 	0.27022 0.91704 0.51425 0.13100
C 	C 	0.21768 0.93383 0.50115 -0.01600
H 	H 	0.31602 0.94124 0.44756 0.09500
H 	H 	0.19006 0.93136 0.51600 0.04900
Cl	Cl	0.21394 0.97700 0.40747 -0.33200
Cl	Cl	0.29012 0.89187 0.55460 -0.31200
C 	C 	0.25268 0.45457 0.96269 -0.00100
C 	C 	0.28200 0.41454 0.97710 0.13500
C 	C 	0.23787 0.34415 0.97045 -0.02100
C 	C 	0.16421 0.31230 0.94864 -0.11500
C 	C 	0.13443 0.35095 0.93269 0.20600
C 	C 	0.17875 0.42187 0.93980 -0.09900
H 	H 	0.26100 0.31457 0.98274 0.06700
H 	H 	0.15592 0.45234 0.92846 0.08800
Cl	Cl	0.37397 0.45197 0.00353 -0.29700
Cl	Cl	0.04224 0.31284 0.90549 -0.30200
C 	C 	0.62375 0.83528 0.96586 0.00200
C 	C 	0.67604 0.90904 0.98026 0.14100
C 	C 	0.72738 0.92183 0.97205 -0.02000
C 	C 	0.72618 0.86148 0.94884 -0.11400
C 	C 	0.67275 0.78760 0.93360 0.21400
C 	C 	0.62207 0.77498 0.94225 -0.09800
H 	H 	0.76790 0.97869 0.98349 0.06400
H 	H 	0.58183 0.71815 0.93107 0.09000
Cl	Cl	0.67734 0.98580 0.00817 -0.30200
Cl	Cl	0.66970 0.71023 0.90467 -0.31600
C 	C 	0.24837 0.88405 0.97739 0.00500
C 	C 	0.21249 0.88100 0.99672 0.13400
C 	C 	0.16096 0.89929 0.98430 -0.01100
C 	C 	0.14402 0.91929 0.95218 -0.12200
C 	C 	0.18305 0.92672 0.93475 0.21500
C 	C 	0.23530 0.90971 0.94768 -0.09600
H 	H 	0.13176 0.89446 0.99820 0.04900
H 	H 	0.26398 0.91381 0.93347 0.08900
Cl	Cl	0.22902 0.85079 0.03495 -0.30700
Cl	Cl	0.16644 0.95633 0.89626 -0.33900
C 	C 	0.78657 0.14978 0.43503 -0.00300
C 	C 	0.75914 0.07455 0.42586 0.13800
C 	C 	0.79987 0.04403 0.42671 -0.03000
C 	C 	0.86848 0.08878 0.43780 -0.12900
C 	C 	0.89065 0.15955 0.44019 0.20500
C 	C 	0.84957 0.18990 0.43876 -0.09900
H 	H 	0.78063 0.98764 0.42220 0.07500
H 	H 	0.86936 0.24677 0.44390 0.09100
Cl	Cl	0.67620 0.01982 0.41626 -0.30800
C 	C 	0.86172 0.70398 0.45666 -0.10600
C 	C 	0.83930 0.63110 0.43072 0.21100
C 	C 	0.80923 0.57271 0.43806 -0.09700
C 	C 	0.80124 0.58651 0.47111 -0.00100
C 	C 	0.82156 0.65900 0.49613 0.14000
C 	C 	0.85217 0.71740 0.48901 -0.01400
H 	H 	0.79340 0.51689 0.41864 0.08800
H 	H 	0.86817 0.77328 0.50849 0.07000
Cl	Cl	0.85072 0.61264 0.38985 -0.31500
Cl	Cl	0.80820 0.67720 0.53617 -0.31800
C 	C 	0.44841 0.21745 0.48476 -0.00100
C 	C 	0.43224 0.17803 0.50547 0.13800
C 	C 	0.36994 0.15824 0.50314 -0.01700
C 	C 	0.32252 0.17549 0.47925 -0.10500
C 	C 	0.33716 0.21184 0.45694 0.20700
C 	C 	0.40024 0.23323 0.46016 -0.09500
H 	H 	0.35792 0.12859 0.51946 0.07000
H 	H 	0.41225 0.26292 0.44385 0.08900
Cl	Cl	0.48846 0.15117 0.53331 -0.31600
Cl	Cl	0.27765 0.23224 0.42545 -0.31900
C 	C 	0.71707 0.10239 0.90711 0.00500
C 	C 	0.69239 0.02780 0.89877 0.12000
C 	C 	0.73529 0.99994 0.90024 -0.00600
C 	C 	0.80347 0.04688 0.91136 -0.14200
C 	C 	0.82251 0.11652 0.91248 0.21000
C 	C 	0.77919 0.14412 0.91032 -0.10400
H 	H 	0.71821 0.94413 0.89640 0.06500
H 	H 	0.79677 0.20038 0.91469 0.09400
Cl	Cl	0.61035 0.97071 0.88953 -0.29800
Cl	Cl	0.90365 0.17240 0.92044 -0.33500
C 	C 	0.75436 0.54980 0.95157 0.00200
C 	C 	0.76167 0.54088 0.91811 0.13700
C 	C 	0.79073 0.60277 0.91289 -0.01400
C 	C 	0.81364 0.67380 0.94120 -0.10800
C 	C 	0.80548 0.68248 0.97430 0.21300
C 	C 	0.77576 0.62054 0.97925 -0.10000
H 	H 	0.79671 0.59587 0.88728 0.07300
H 	H 	0.76977 0.62747 0.00485 0.09200
Cl	Cl	0.73663 0.45295 0.88334 -0.30800
Cl	Cl	0.83078 0.77044 0.00921 -0.31900
C 	C 	0.40249 0.21028 0.97428 0.00100
C 	C 	0.35224 0.22455 0.94987 0.14000
C 	C 	0.28917 0.19978 0.94694 -0.01900
C 	C 	0.27668 0.16312 0.96938 -0.10600
C 	C 	0.32801 0.15110 0.99499 0.20800
C 	C 	0.39036 0.17414 0.99703 -0.10200
H 	H 	0.24997 0.20957 0.92742 0.07400
H 	H 	0.42916 0.16347 0.01605 0.08900
Cl	Cl	0.36853 0.27513 0.92368 -0.30000
Cl	Cl	0.31428 0.10584 0.02392 -0.32400
