data_crystal

_cell_length_a 26.03015
_cell_length_b 26.34664
_cell_length_c 35.04095
_cell_angle_alpha 95.56810
_cell_angle_beta  95.56367
_cell_angle_gamma 125.60302

_symmetry_space_group_name_	'P 1'
_symmetry_space_group_name_H-M	'P 1'

loop_
_symmetry_equiv_pos_as_xyz
  x,y,z

loop_
_atom_site_label
_atom_site_type_symbol
_atom_site_fract_x
_atom_site_fract_y
_atom_site_fract_z
_atom_site_charge
C 	C 	0.99138 0.03134 0.98784 0.17200
N 	N 	0.05687 0.06959 0.99488 -0.10300
C 	C 	0.08916 0.04355 0.99599 0.20200
N 	N 	0.05600 0.97943 0.98934 -0.09100
C 	C 	0.99074 0.94111 0.98141 0.17800
N 	N 	0.95851 0.96713 0.98095 -0.13300
C 	C 	0.90188 0.98363 0.45423 0.20600
N 	N 	0.96658 0.02210 0.45645 -0.14300
C 	C 	0.00075 0.99846 0.46039 0.24400
N 	N 	0.97028 0.93628 0.46220 -0.14000
C 	C 	0.90569 0.89753 0.46027 0.20100
N 	N 	0.87130 0.92126 0.45646 -0.12100
Cu	Cu	0.67587 0.26332 0.01236 0.93200
Cu	Cu	0.66510 0.20403 0.91958 0.90700
Cu	Cu	0.70876 0.34522 0.94972 0.90800
Cu	Cu	0.68907 0.39220 0.02822 0.91200
C 	C 	0.69658 0.32511 0.09011 0.28700
O 	O 	0.58536 0.22918 0.01947 -0.33200
C 	C 	0.66267 0.28038 0.86779 0.29400
O 	O 	0.72716 0.35804 0.00526 -0.63800
O 	O 	0.65116 0.25353 0.95502 -0.63100
O 	O 	0.72386 0.22512 0.01445 -0.35000
O 	O 	0.66970 0.15747 0.95572 -0.37400
O 	O 	0.70852 0.37838 0.08122 -0.35600
O 	O 	0.76283 0.43538 0.94946 -0.36600
C 	C 	0.76068 0.47601 0.97318 0.34200
C 	C 	0.55990 0.25835 0.01046 0.32800
O 	O 	0.59370 0.31174 0.99745 -0.37000
O 	O 	0.71396 0.45577 0.99334 -0.35600
O 	O 	0.70740 0.29019 0.06759 -0.34200
C 	C 	0.71794 0.18545 0.98531 0.33800
O 	O 	0.70912 0.33112 0.89364 -0.37300
O 	O 	0.63143 0.22347 0.87685 -0.38400
H 	H 	0.77393 0.38338 0.01565 0.18200
H 	H 	0.60582 0.23764 0.94776 0.18800
Cu	Cu	0.68857 0.31488 0.44724 0.92900
Cu	Cu	0.72466 0.29475 0.53434 0.88900
Cu	Cu	0.60612 0.30347 0.50702 0.91600
Cu	Cu	0.57082 0.32111 0.42706 0.90700
C 	C 	0.63832 0.30482 0.36805 0.29900
O 	O 	0.73445 0.40790 0.44296 -0.33200
C 	C 	0.64768 0.30249 0.58400 0.29500
O 	O 	0.59228 0.27421 0.45223 -0.63600
O 	O 	0.69710 0.33670 0.50455 -0.62700
O 	O 	0.71707 0.25839 0.44412 -0.32800
O 	O 	0.78368 0.30284 0.50360 -0.40800
O 	O 	0.58803 0.30251 0.37512 -0.36500
O 	O 	0.51664 0.26468 0.50791 -0.36500
C 	C 	0.47793 0.26520 0.48095 0.33800
C 	C 	0.71134 0.43891 0.45394 0.32900
O 	O 	0.65425 0.40821 0.46332 -0.38400
O 	O 	0.50078 0.30341 0.45546 -0.34300
O 	O 	0.66473 0.28674 0.39185 -0.34100
C 	C 	0.76215 0.26498 0.46961 0.33600
O 	O 	0.62396 0.32565 0.56328 -0.35900
O 	O 	0.65928 0.26481 0.56628 -0.40500
H 	H 	0.56087 0.22751 0.44387 0.18300
H 	H 	0.72669 0.38317 0.51439 0.17000
C 	C 	0.70731 0.33914 0.69282 -0.06600
C 	C 	0.64903 0.30630 0.70635 0.02200
C 	C 	0.59059 0.27691 0.67990 -0.00700
C 	C 	0.59088 0.27811 0.64006 0.01300
C 	C 	0.64894 0.30799 0.62628 -0.08800
C 	C 	0.70756 0.33984 0.65295 0.06400
C 	C 	0.64931 0.29779 0.74743 0.01800
S 	S 	0.51677 0.23683 0.69617 0.01500
H 	H 	0.54578 0.25422 0.61963 0.05900
S 	S 	0.78153 0.38110 0.63683 -0.06300
H 	H 	0.75235 0.36252 0.71321 0.06900
C 	C 	0.64884 0.24760 0.75859 -0.00400
C 	C 	0.65204 0.24183 0.79783 0.00500
C 	C 	0.65535 0.28550 0.82630 -0.08100
C 	C 	0.65355 0.33453 0.81490 0.06000
C 	C 	0.65130 0.34078 0.77563 -0.06300
S 	S 	0.64403 0.19154 0.72363 0.00200
H 	H 	0.65303 0.20388 0.80634 0.05200
S 	S 	0.65078 0.38626 0.84898 -0.00600
H 	H 	0.65065 0.37882 0.76694 0.07200
H 	H 	0.80296 0.44241 0.63640 0.05700
H 	H 	0.58067 0.14331 0.70841 0.05000
H 	H 	0.58799 0.36008 0.85127 0.05600
H 	H 	0.49422 0.17517 0.69643 0.05000
C 	C 	0.73617 0.33929 0.19900 -0.06400
C 	C 	0.67472 0.30761 0.20843 0.01900
C 	C 	0.62020 0.27800 0.17847 -0.00100
C 	C 	0.62785 0.28184 0.13962 0.00100
C 	C 	0.68941 0.31514 0.13032 -0.07300
C 	C 	0.74381 0.34317 0.16014 0.06000
C 	C 	0.66812 0.30794 0.24986 0.01800
S 	S 	0.54229 0.23643 0.18929 0.00800
H 	H 	0.58595 0.26003 0.11668 0.05100
S 	S 	0.82167 0.38404 0.14928 0.00600
H 	H 	0.77808 0.36159 0.22199 0.06800
C 	C 	0.65934 0.25901 0.26840 -0.00200
C 	C 	0.65087 0.25908 0.30725 0.00400
C 	C 	0.65109 0.30765 0.32791 -0.06800
C 	C 	0.66147 0.35746 0.30956 0.05600
C 	C 	0.66977 0.35720 0.27069 -0.05800
S 	S 	0.65827 0.19715 0.24318 0.00700
H 	H 	0.64299 0.22073 0.32119 0.06800
S 	S 	0.66585 0.42120 0.33517 0.02800
H 	H 	0.67720 0.39521 0.25654 0.06900
H 	H 	0.84645 0.44651 0.15010 0.05900
H 	H 	0.71986 0.21503 0.24705 0.05500
H 	H 	0.60556 0.40669 0.33096 0.04800
H 	H 	0.51908 0.17466 0.18982 0.05400
C 	C 	0.81405 0.60552 0.43382 -0.14700
C 	C 	0.80461 0.63778 0.46330 0.02000
C 	C 	0.77175 0.60638 0.49244 0.30300
C 	C 	0.74617 0.54255 0.49115 -0.05700
C 	C 	0.75195 0.50893 0.46032 -0.14200
C 	C 	0.78815 0.54139 0.43242 0.37000
C 	C 	0.82856 0.70422 0.46346 0.00600
F 	F 	0.76291 0.63724 0.52135 -0.39900
H 	H 	0.71962 0.51842 0.51333 0.09900
F 	F 	0.79630 0.51035 0.40322 -0.43700
H 	H 	0.84055 0.62985 0.41168 0.12500
C 	C 	0.87947 0.75339 0.49278 0.32200
C 	C 	0.90165 0.81616 0.49311 -0.08100
C 	C 	0.87391 0.83067 0.46384 -0.07400
C 	C 	0.82187 0.78127 0.43502 0.35400
C 	C 	0.79929 0.71828 0.43489 -0.12700
F 	F 	0.90815 0.74043 0.52057 -0.40200
H 	H 	0.94167 0.85388 0.51553 0.11400
F 	F 	0.79492 0.79450 0.40629 -0.41000
H 	H 	0.75947 0.68048 0.41242 0.12200
C 	C 	0.84994 0.08138 0.42134 -0.12300
C 	C 	0.82378 0.08740 0.45307 0.00700
C 	C 	0.81501 0.05177 0.48240 0.31300
C 	C 	0.83576 0.01320 0.48105 -0.08300
C 	C 	0.86572 0.01034 0.45056 -0.07600
C 	C 	0.87075 0.04295 0.42001 0.35500
C 	C 	0.80844 0.13323 0.45644 0.02100
F 	F 	0.78852 0.05627 0.51286 -0.41200
H 	H 	0.83148 0.98809 0.50468 0.11500
F 	F 	0.89807 0.03925 0.38979 -0.41100
H 	H 	0.85577 0.10785 0.39825 0.12500
C 	C 	0.85628 0.19715 0.47394 0.29300
C 	C 	0.84149 0.24048 0.47730 -0.05500
C 	C 	0.77885 0.22036 0.46313 -0.14700
C 	C 	0.73115 0.15632 0.44521 0.37000
C 	C 	0.74610 0.11317 0.44187 -0.14200
F 	F 	0.91694 0.21713 0.48793 -0.40900
H 	H 	0.87862 0.28959 0.49111 0.10100
F 	F 	0.66983 0.13541 0.43230 -0.43700
H 	H 	0.70903 0.06393 0.42828 0.12900
C 	C 	0.16836 0.06368 0.44503 -0.12000
C 	C 	0.20554 0.11751 0.47501 0.01000
C 	C 	0.17516 0.13328 0.49937 0.30800
C 	C 	0.10805 0.09510 0.49390 -0.07000
C 	C 	0.07092 0.04062 0.46437 -0.08800
C 	C 	0.10132 0.02520 0.43980 0.36000
C 	C 	0.27618 0.15777 0.48036 0.02300
F 	F 	0.21069 0.18510 0.52859 -0.40400
H 	H 	0.08491 0.10712 0.51309 0.11700
F 	F 	0.06583 0.97323 0.41067 -0.40100
H 	H 	0.19151 0.05172 0.42582 0.13300
C 	C 	0.31000 0.13366 0.49176 0.29000
C 	C 	0.37633 0.16977 0.49316 -0.05500
C 	C 	0.40945 0.23034 0.48336 -0.13900
C 	C 	0.37597 0.25570 0.47387 0.37800
C 	C 	0.30955 0.21925 0.47208 -0.13700
F 	F 	0.27835 0.07481 0.50084 -0.40800
H 	H 	0.40173 0.15002 0.50089 0.09700
F 	F 	0.40779 0.31568 0.46660 -0.41900
H 	H 	0.28381 0.23842 0.46373 0.14100
C 	C 	0.87035 0.65390 0.00406 -0.13800
C 	C 	0.86472 0.67293 0.96884 0.02400
C 	C 	0.82990 0.62727 0.93423 0.28900
C 	C 	0.79879 0.56280 0.93525 -0.04700
C 	C 	0.80183 0.54361 0.97087 -0.14200
C 	C 	0.83878 0.58952 0.00514 0.37500
C 	C 	0.89312 0.74029 0.96867 0.00400
F 	F 	0.82450 0.64517 0.89991 -0.41000
H 	H 	0.77035 0.52765 0.90867 0.09700
F 	F 	0.84297 0.57154 0.03964 -0.44600
H 	H 	0.89805 0.68898 0.03075 0.13300
C 	C 	0.86888 0.76913 0.98793 0.31300
C 	C 	0.89980 0.83443 0.99115 -0.08500
C 	C 	0.95500 0.87145 0.97495 -0.06400
C 	C 	0.97746 0.84195 0.95410 0.33000
C 	C 	0.94682 0.77672 0.95124 -0.11200
F 	F 	0.81598 0.73400 0.00411 -0.40800
H 	H 	0.88178 0.85650 0.00705 0.11900
F 	F 	0.02879 0.87640 0.93654 -0.39600
H 	H 	0.96536 0.75464 0.93598 0.12600
C 	C 	0.83400 0.15337 0.95669 -0.13700
C 	C 	0.84394 0.13064 0.98907 0.02400
C 	C 	0.81449 0.12854 0.02107 0.28800
C 	C 	0.77444 0.14786 0.02023 -0.04500
C 	C 	0.76286 0.16856 0.98725 -0.14800
C 	C 	0.79333 0.17182 0.95563 0.37100
C 	C 	0.88243 0.10597 0.98846 0.00200
F 	F 	0.82340 0.10633 0.05250 -0.40700
H 	H 	0.75129 0.14536 0.04479 0.10300
F 	F 	0.78377 0.19323 0.92395 -0.47500
H 	H 	0.85709 0.15583 0.93209 0.13000
C 	C 	0.86107 0.05180 0.96112 0.31200
C 	C 	0.89775 0.02883 0.96027 -0.09300
C 	C 	0.95574 0.05913 0.98707 -0.06300
C 	C 	0.97723 0.11356 0.01442 0.32700
C 	C 	0.94084 0.13700 0.01488 -0.11000
F 	F 	0.80436 0.02097 0.93565 -0.41200
H 	H 	0.88083 0.98713 0.93892 0.11900
F 	F 	0.03223 0.14258 0.04124 -0.39200
H 	H 	0.95778 0.17899 0.03596 0.12700
C 	C 	0.25962 0.10578 0.03539 -0.12700
C 	C 	0.29281 0.14661 0.00978 0.00900
C 	C 	0.25988 0.15839 0.98216 0.32200
C 	C 	0.19370 0.12759 0.97930 -0.07700
C 	C 	0.15993 0.08443 0.00373 -0.06600
C 	C 	0.19349 0.07484 0.03245 0.35700
C 	C 	0.36140 0.17491 0.01087 0.02000
F 	F 	0.29159 0.19808 0.95733 -0.39900
H 	H 	0.16826 0.13531 0.95708 0.12100
F 	F 	0.16173 0.03461 0.05702 -0.40900
H 	H 	0.28490 0.09719 0.05713 0.12300
C 	C 	0.40871 0.24001 0.02548 0.30100
C 	C 	0.47356 0.26681 0.02587 -0.05600
C 	C 	0.49178 0.22878 0.01185 -0.14400
C 	C 	0.44444 0.16338 0.99776 0.37600
C 	C 	0.37953 0.13664 0.99731 -0.14600
F 	F 	0.39182 0.27727 0.03931 -0.39800
H 	H 	0.50974 0.31718 0.03708 0.09100
F 	F 	0.46108 0.12614 0.98342 -0.43400
H 	H 	0.34323 0.08631 0.98604 0.12900
