data_crystal

_cell_length_a 22.60146
_cell_length_b 22.77480
_cell_length_c 42.58038
_cell_angle_alpha 95.49448
_cell_angle_beta  95.49473
_cell_angle_gamma 126.03171

_symmetry_space_group_name_	'P 1'
_symmetry_space_group_name_H-M	'P 1'

loop_
_symmetry_equiv_pos_as_xyz
  x,y,z

loop_
_atom_site_label
_atom_site_type_symbol
_atom_site_fract_x
_atom_site_fract_y
_atom_site_fract_z
_atom_site_charge
C 	C 	0.89095 0.97812 0.97245 0.00700
C 	C 	0.84842 0.90162 0.97135 -0.06500
C 	C 	0.88367 0.86796 0.97513 0.01700
C 	C 	0.96161 0.91101 0.98036 -0.06200
C 	C 	0.00443 0.98745 0.98100 0.00400
C 	C 	0.96883 0.02079 0.97684 -0.05100
H 	H 	0.78814 0.86843 0.96759 0.04600
H 	H 	0.98884 0.88508 0.98386 0.04600
H 	H 	0.00162 0.07976 0.97720 0.04100
C 	C 	0.98869 0.05221 0.49070 0.03200
C 	C 	0.94711 0.97509 0.48708 -0.07800
C 	C 	0.98235 0.94115 0.48403 0.03100
C 	C 	0.05945 0.98481 0.48476 -0.08100
C 	C 	0.10133 0.06194 0.48923 0.03100
C 	C 	0.06591 0.09555 0.49204 -0.07800
H 	H 	0.88761 0.94167 0.48663 0.04800
H 	H 	0.08685 0.95887 0.48206 0.04900
H 	H 	0.09836 0.15525 0.49540 0.05000
Cu	Cu	0.56923 0.17956 0.99943 0.92600
Cu	Cu	0.61772 0.18688 0.92911 0.86600
Cu	Cu	0.60398 0.29891 0.96070 0.89500
Cu	Cu	0.58216 0.32029 0.02776 0.89300
C 	C 	0.60923 0.23527 0.06728 0.28700
O 	O 	0.46410 0.14119 0.00341 -0.35900
C 	C 	0.57922 0.25942 0.89006 0.28300
O 	O 	0.63306 0.29534 0.00387 -0.64000
O 	O 	0.55267 0.19009 0.95458 -0.64200
O 	O 	0.60687 0.12048 0.99200 -0.37600
O 	O 	0.68806 0.19784 0.96217 -0.44100
O 	O 	0.57467 0.26535 0.06280 -0.38600
O 	O 	0.66131 0.40563 0.96822 -0.38600
C 	C 	0.66827 0.44795 0.99407 0.28600
C 	C 	0.43598 0.17466 0.99387 0.28000
O 	O 	0.48019 0.24514 0.99235 -0.39200
O 	O 	0.62779 0.41976 0.01646 -0.39200
O 	O 	0.60193 0.18761 0.04394 -0.36200
C 	C 	0.66704 0.14668 0.97968 0.28800
O 	O 	0.58160 0.30044 0.91515 -0.38100
O 	O 	0.57136 0.19798 0.89260 -0.42200
H 	H 	0.68754 0.32564 0.01162 0.16200
H 	H 	0.50002 0.15989 0.94344 0.17300
Cu	Cu	0.79737 0.38328 0.46907 0.92800
Cu	Cu	0.78663 0.32655 0.53749 0.86700
Cu	Cu	0.67560 0.34422 0.50761 0.89600
Cu	Cu	0.65855 0.37624 0.44232 0.89300
C 	C 	0.74773 0.35753 0.40112 0.28800
O 	O 	0.83858 0.48967 0.46804 -0.36100
C 	C 	0.71463 0.36222 0.57822 0.28500
O 	O 	0.68088 0.32108 0.46390 -0.64100
O 	O 	0.78519 0.39461 0.51409 -0.64200
O 	O 	0.85375 0.34188 0.47444 -0.37400
O 	O 	0.77295 0.25872 0.50264 -0.44100
O 	O 	0.71664 0.39040 0.40753 -0.38800
O 	O 	0.56821 0.28825 0.49923 -0.38500
C 	C 	0.52730 0.28534 0.47385 0.28800
C 	C 	0.80499 0.51713 0.47839 0.28100
O 	O 	0.73401 0.47282 0.47989 -0.39300
O 	O 	0.55764 0.32973 0.45302 -0.39400
O 	O 	0.79021 0.35604 0.42408 -0.36300
C 	C 	0.82492 0.28011 0.48536 0.28700
O 	O 	0.67092 0.35785 0.55351 -0.38300
O 	O 	0.77649 0.37065 0.57491 -0.42200
H 	H 	0.64985 0.26759 0.45470 0.16200
H 	H 	0.81564 0.44601 0.52626 0.17300
C 	C 	0.69751 0.36446 0.61075 -0.09000
C 	C 	0.72256 0.34076 0.63432 0.01200
C 	C 	0.70490 0.34069 0.66485 -0.06800
C 	C 	0.66219 0.36449 0.67228 0.02600
C 	C 	0.63733 0.38857 0.64886 -0.06800
C 	C 	0.65486 0.38854 0.61820 0.01500
C 	C 	0.64220 0.36241 0.70437 -0.00100
C 	C 	0.56739 0.31482 0.70762 -0.03900
C 	C 	0.54937 0.30324 0.73807 -0.03900
C 	C 	0.60609 0.33871 0.76548 -0.00100
C 	C 	0.68054 0.38968 0.76234 -0.03900
C 	C 	0.69845 0.40172 0.73194 -0.03900
C 	C 	0.58859 0.31651 0.79680 0.02500
C 	C 	0.55392 0.24267 0.79983 -0.06700
C 	C 	0.54711 0.22323 0.83013 0.01100
C 	C 	0.57563 0.27761 0.85783 -0.08800
C 	C 	0.60668 0.35083 0.85462 0.01000
C 	C 	0.61293 0.37009 0.82423 -0.06600
H 	H 	0.75474 0.32127 0.62883 0.02100
H 	H 	0.72372 0.32132 0.68267 0.04300
H 	H 	0.60447 0.40724 0.65440 0.04500
H 	H 	0.63555 0.40745 0.60037 0.03500
H 	H 	0.52349 0.28463 0.68650 0.03700
H 	H 	0.49163 0.26469 0.74026 0.03700
H 	H 	0.72475 0.41765 0.78332 0.03600
H 	H 	0.75629 0.43939 0.72970 0.03700
H 	H 	0.53459 0.20077 0.77880 0.04300
H 	H 	0.52135 0.16620 0.83210 0.03000
H 	H 	0.62841 0.39333 0.87570 0.03500
H 	H 	0.63880 0.42707 0.82211 0.04400
C 	C 	0.64071 0.24123 0.10043 -0.08700
C 	C 	0.67614 0.30741 0.12265 0.01300
C 	C 	0.69979 0.31150 0.15484 -0.06700
C 	C 	0.68849 0.24951 0.16518 0.02700
C 	C 	0.65557 0.18407 0.14280 -0.06700
C 	C 	0.63189 0.17995 0.11052 0.01600
C 	C 	0.70583 0.25165 0.19977 -0.00100
C 	C 	0.77858 0.30466 0.21719 -0.03900
C 	C 	0.79228 0.31703 0.25077 -0.03900
C 	C 	0.73339 0.27631 0.26717 -0.00100
C 	C 	0.66175 0.21953 0.24971 -0.03800
C 	C 	0.64799 0.20729 0.21613 -0.03800
C 	C 	0.74427 0.30008 0.30200 0.02600
C 	C 	0.75752 0.36730 0.31366 -0.06700
C 	C 	0.76062 0.38695 0.34619 0.01500
C 	C 	0.75067 0.33962 0.36743 -0.08600
C 	C 	0.74010 0.27357 0.35600 0.01200
C 	C 	0.73648 0.25365 0.32333 -0.06600
H 	H 	0.68424 0.35537 0.11506 0.02000
H 	H 	0.72515 0.36226 0.17192 0.04400
H 	H 	0.64698 0.13604 0.15053 0.04600
H 	H 	0.60486 0.12857 0.09362 0.03900
H 	H 	0.82384 0.33842 0.20476 0.03800
H 	H 	0.84797 0.36040 0.26405 0.03900
H 	H 	0.61603 0.18745 0.26216 0.03800
H 	H 	0.59172 0.16587 0.20292 0.03900
H 	H 	0.76369 0.40352 0.29736 0.04600
H 	H 	0.77003 0.43864 0.35483 0.03400
H 	H 	0.73275 0.23682 0.37222 0.02900
H 	H 	0.72645 0.20172 0.31454 0.04500
C 	C 	0.84437 0.59735 0.48456 -0.08100
C 	C 	0.90860 0.64318 0.50849 0.01300
C 	C 	0.94697 0.71982 0.51402 -0.07000
C 	C 	0.92218 0.75140 0.49520 0.03700
C 	C 	0.85789 0.70535 0.47082 -0.00800
C 	C 	0.81870 0.62838 0.46593 -0.00700
C 	C 	0.83446 0.73698 0.45131 -0.03400
C 	C 	0.87496 0.81377 0.45569 -0.04500
C 	C 	0.93855 0.85983 0.48003 0.00900
C 	C 	0.96147 0.82840 0.50005 -0.06600
H 	H 	0.92860 0.61938 0.52292 0.02200
H 	H 	0.99631 0.75459 0.53272 0.04400
H 	H 	0.76925 0.59278 0.44728 0.02900
H 	H 	0.78542 0.70218 0.43247 0.03400
H 	H 	0.85733 0.83755 0.43994 0.03900
H 	H 	0.01010 0.86386 0.51909 0.04300
C 	C 	0.95146 0.08771 0.49341 0.01000
C 	C 	0.91632 0.08258 0.51956 -0.04600
C 	C 	0.88291 0.11795 0.52276 -0.03400
C 	C 	0.88450 0.15909 0.49988 -0.01100
C 	C 	0.91924 0.16390 0.47334 0.03800
C 	C 	0.95242 0.12794 0.47019 -0.07000
C 	C 	0.92097 0.20521 0.45052 -0.07200
C 	C 	0.88935 0.24232 0.45422 0.01400
C 	C 	0.85555 0.23847 0.48076 -0.08900
C 	C 	0.85264 0.19621 0.50341 -0.01100
H 	H 	0.91554 0.05171 0.53757 0.03900
H 	H 	0.85629 0.11378 0.54317 0.03100
H 	H 	0.97925 0.13150 0.44989 0.04700
H 	H 	0.94710 0.20894 0.42999 0.04600
H 	H 	0.89108 0.27399 0.43642 0.03900
H 	H 	0.82691 0.19338 0.52402 0.02200
C 	C 	0.18263 0.10761 0.49166 0.00900
C 	C 	0.22972 0.14512 0.52179 -0.04500
C 	C 	0.30694 0.18711 0.52437 -0.03400
C 	C 	0.33785 0.19217 0.49678 -0.00700
C 	C 	0.29056 0.15487 0.46633 0.03700
C 	C 	0.21303 0.11252 0.46395 -0.07000
C 	C 	0.32148 0.16054 0.43872 -0.07100
C 	C 	0.39874 0.20299 0.44125 0.01000
C 	C 	0.44594 0.23986 0.47143 -0.08000
C 	C 	0.41536 0.23423 0.49919 -0.01000
H 	H 	0.20637 0.14132 0.54324 0.03900
H 	H 	0.34266 0.21560 0.54782 0.03500
H 	H 	0.17642 0.08347 0.44069 0.04700
H 	H 	0.28576 0.13220 0.41526 0.04400
H 	H 	0.42194 0.20686 0.41975 0.02500
H 	H 	0.45179 0.26331 0.52249 0.04300
C 	C 	0.83893 0.78743 0.97338 0.00900
C 	C 	0.79729 0.73921 0.94382 -0.04500
C 	C 	0.75619 0.66281 0.94186 -0.03500
C 	C 	0.75613 0.63383 0.96952 -0.00600
C 	C 	0.79767 0.68223 0.99939 0.03000
C 	C 	0.83908 0.75892 0.00114 -0.06400
C 	C 	0.79701 0.65325 0.02709 -0.06700
C 	C 	0.75517 0.57682 0.02523 0.01100
C 	C 	0.71389 0.52847 0.99564 -0.08100
C 	C 	0.71475 0.55712 0.96775 -0.01100
H 	H 	0.79721 0.76105 0.92231 0.03900
H 	H 	0.72447 0.62623 0.91885 0.03500
H 	H 	0.87126 0.79634 0.02397 0.04600
H 	H 	0.82870 0.68985 0.05011 0.04300
H 	H 	0.75506 0.55514 0.04681 0.02500
H 	H 	0.68238 0.51982 0.94491 0.04200
C 	C 	0.70830 0.11546 0.98384 -0.09100
C 	C 	0.70696 0.08441 0.01098 0.01700
C 	C 	0.74315 0.05177 0.01428 -0.07000
C 	C 	0.78110 0.04975 0.99048 0.03700
C 	C 	0.78341 0.08167 0.96330 -0.01200
C 	C 	0.74716 0.11456 0.96016 -0.01000
C 	C 	0.82136 0.07964 0.93949 -0.03200
C 	C 	0.85642 0.04585 0.94253 -0.05100
C 	C 	0.85394 0.01376 0.96938 0.02000
C 	C 	0.81646 0.01592 0.99338 -0.07300
H 	H 	0.67789 0.08559 0.02955 0.03800
H 	H 	0.74138 0.02783 0.03530 0.04700
H 	H 	0.74801 0.13813 0.93909 0.02200
H 	H 	0.82356 0.10400 0.91857 0.03100
H 	H 	0.88530 0.04432 0.92394 0.04100
H 	H 	0.81495 0.99141 0.01421 0.04700
C 	C 	0.08667 0.03269 0.98634 0.01800
C 	C 	0.13037 0.09559 0.01092 -0.04800
C 	C 	0.20802 0.13771 0.01647 -0.02700
C 	C 	0.24288 0.11662 0.99790 -0.01600
C 	C 	0.19921 0.05302 0.97330 0.04000
C 	C 	0.12133 0.01204 0.96730 -0.07000
C 	C 	0.23400 0.03061 0.95541 -0.06900
C 	C 	0.31145 0.07056 0.96213 0.01400
C 	C 	0.35495 0.13401 0.98633 -0.08500
C 	C 	0.32074 0.15745 0.00397 0.00100
H 	H 	0.10406 0.11148 0.02593 0.04100
H 	H 	0.24096 0.18619 0.03547 0.03400
H 	H 	0.08770 0.96391 0.94809 0.04400
H 	H 	0.20107 0.98186 0.93654 0.04100
H 	H 	0.33771 0.05234 0.94843 0.02100
H 	H 	0.35453 0.20635 0.02280 0.03000
