data_crystal

_cell_length_a 21.33658
_cell_length_b 30.28304
_cell_length_c 21.21306
_cell_angle_alpha 90.00312
_cell_angle_beta  90.03844
_cell_angle_gamma 92.37736

_symmetry_space_group_name_	'P 1'
_symmetry_space_group_name_H-M	'P 1'

loop_
_symmetry_equiv_pos_as_xyz
  x,y,z

loop_
_atom_site_label
_atom_site_type_symbol
_atom_site_fract_x
_atom_site_fract_y
_atom_site_fract_z
_atom_site_charge
C 	C 	0.91110 0.91432 0.82911 0.10300
N 	N 	0.96049 0.93556 0.85692 -0.16900
C 	C 	0.00904 0.90852 0.85290 0.08200
C 	C 	0.06556 0.91372 0.89345 -0.07000
C 	C 	0.09357 0.95843 0.90523 0.08100
C 	C 	0.09639 0.87427 0.91874 0.04800
C 	C 	0.06406 0.84550 0.96052 -0.06800
C 	C 	0.09232 0.80752 0.98267 0.00500
C 	C 	0.15312 0.79775 0.96286 -0.01700
C 	C 	0.15757 0.86507 0.90002 -0.06100
N 	N 	0.08009 0.99335 0.86882 -0.12800
C 	C 	0.11491 0.97227 0.96386 -0.04100
C 	C 	0.09406 0.02948 0.90396 0.08200
C 	C 	0.07019 0.07345 0.88883 -0.07300
C 	C 	0.09609 0.11316 0.92127 0.04500
C 	C 	0.17969 0.16951 0.92746 -0.02200
C 	C 	0.05544 0.14161 0.95161 -0.05700
C 	C 	0.07602 0.18466 0.96677 -0.02000
C 	C 	0.13743 0.19929 0.95214 -0.00600
N 	N 	0.96448 0.05881 0.84468 -0.17000
C 	C 	0.92523 0.08361 0.81144 0.10000
C 	C 	0.95754 0.11918 0.78423 -0.05700
C 	C 	0.01952 0.11571 0.80164 -0.07100
C 	C 	0.85672 0.08134 0.82174 -0.07400
C 	C 	0.82436 0.12137 0.84246 0.04200
C 	C 	0.74067 0.17284 0.83000 -0.02400
C 	C 	0.76220 0.19634 0.88340 -0.00100
C 	C 	0.81462 0.18194 0.91648 -0.02600
C 	C 	0.84553 0.14469 0.89610 -0.05500
N 	N 	0.85283 0.00030 0.80661 -0.12700
C 	C 	0.76808 0.98250 0.86557 -0.06000
C 	C 	0.81909 0.96682 0.83354 0.09000
C 	C 	0.84566 0.92329 0.84650 -0.07900
C 	C 	0.80614 0.88779 0.87521 0.05300
C 	C 	0.75952 0.86563 0.83932 -0.06600
C 	C 	0.72742 0.82839 0.86379 -0.01200
C 	C 	0.74128 0.81343 0.92459 -0.02100
C 	C 	0.78679 0.83634 0.96109 0.01000
C 	C 	0.81923 0.87334 0.93638 -0.07100
C 	C 	0.92832 0.87332 0.80757 -0.06800
C 	C 	0.99087 0.86981 0.82229 -0.04400
C 	C 	0.18581 0.82702 0.92194 -0.01200
C 	C 	0.11521 0.01777 0.96306 -0.04300
C 	C 	0.02206 0.07825 0.83929 0.09500
C 	C 	0.77064 0.02765 0.85766 -0.05900
C 	C 	0.82310 0.03752 0.82106 0.08800
C 	C 	0.77182 0.13561 0.80943 -0.05700
H 	H 	0.95626 0.95947 0.89200 0.09400
H 	H 	0.95032 0.03903 0.88287 0.09400
H 	H 	0.69240 0.81080 0.83528 0.04400
H 	H 	0.79808 0.82480 0.00793 0.01700
H 	H 	0.74948 0.87654 0.79188 0.05000
H 	H 	0.85556 0.89018 0.96414 0.05500
H 	H 	0.06702 0.78577 0.01523 0.01500
H 	H 	0.18295 0.88706 0.86782 0.05100
H 	H 	0.23271 0.82000 0.90640 0.04800
H 	H 	0.01699 0.85247 0.97562 0.05200
H 	H 	0.04348 0.20722 0.98709 0.04400
H 	H 	0.00694 0.13120 0.95987 0.04600
C 	C 	0.15905 0.12656 0.91205 -0.05700
H 	H 	0.22778 0.18026 0.91772 0.04500
H 	H 	0.70036 0.18368 0.80403 0.04600
H 	H 	0.75513 0.11787 0.76794 0.04800
H 	H 	0.88568 0.13378 0.92224 0.04800
H 	H 	0.83135 0.19957 0.95805 0.04300
H 	H 	0.89604 0.84515 0.80145 0.05500
H 	H 	0.01387 0.83879 0.82694 0.04200
H 	H 	0.11120 0.95249 0.00632 0.03000
H 	H 	0.11213 0.03811 0.00483 0.03000
H 	H 	0.93671 0.14976 0.77066 0.05100
H 	H 	0.05331 0.14337 0.80305 0.05000
H 	H 	0.74482 0.96575 0.90470 0.05200
H 	H 	0.74994 0.05044 0.89015 0.05300
H 	H 	0.19096 0.10459 0.88946 0.05100
C 	C 	0.97728 0.92042 0.55560 0.10300
N 	N 	0.03152 0.94188 0.53982 -0.17700
C 	C 	0.05598 0.91910 0.49190 0.10400
C 	C 	0.12233 0.92469 0.47294 -0.07800
C 	C 	0.14636 0.96838 0.45102 0.09000
C 	C 	0.16515 0.88770 0.47935 0.04400
C 	C 	0.16963 0.86523 0.53695 -0.05800
C 	C 	0.21256 0.83190 0.54400 -0.02200
C 	C 	0.25152 0.82084 0.49358 -0.00400
C 	C 	0.20341 0.87619 0.42865 -0.05700
N 	N 	0.10713 0.99977 0.43306 -0.12800
C 	C 	0.20300 0.98731 0.47114 -0.06200
C 	C 	0.13873 0.03873 0.44124 0.08800
C 	C 	0.10575 0.08019 0.45025 -0.07400
C 	C 	0.14198 0.12264 0.45359 0.04300
C 	C 	0.21736 0.17494 0.40675 -0.02700
C 	C 	0.14656 0.14568 0.51086 -0.05800
C 	C 	0.18779 0.18247 0.51660 -0.02200
C 	C 	0.22458 0.19659 0.46503 -0.00300
N 	N 	0.01733 0.06042 0.52100 -0.17600
C 	C 	0.96299 0.07944 0.53438 0.10800
C 	C 	0.94862 0.10934 0.48762 -0.06900
C 	C 	0.99696 0.10873 0.44439 -0.04300
C 	C 	0.93707 0.08032 0.59917 -0.07600
C 	C 	0.90786 0.12044 0.62335 0.04700
C 	C 	0.81247 0.15949 0.64179 -0.02500
C 	C 	0.84648 0.20015 0.63726 -0.00500
C 	C 	0.91208 0.20049 0.63172 -0.02200
C 	C 	0.94267 0.16078 0.62511 -0.06000
N 	N 	0.91305 0.00089 0.61303 -0.12700
C 	C 	0.98168 0.98725 0.69004 -0.05000
C 	C 	0.94078 0.96901 0.64583 0.09000
C 	C 	0.94860 0.92484 0.61881 -0.07300
C 	C 	0.92138 0.88559 0.65140 0.04600
C 	C 	0.85666 0.88206 0.66277 -0.05500
C 	C 	0.82790 0.84096 0.67668 -0.02700
C 	C 	0.86386 0.80316 0.67977 -0.00400
C 	C 	0.92945 0.80780 0.67556 -0.02500
C 	C 	0.95813 0.84890 0.66158 -0.05000
C 	C 	0.96675 0.88391 0.51675 -0.05300
C 	C 	0.01739 0.88301 0.47631 -0.07000
C 	C 	0.24629 0.84287 0.43566 -0.02600
C 	C 	0.19816 0.03229 0.46490 -0.06000
C 	C 	0.03845 0.07835 0.46652 0.09200
C 	C 	0.97858 0.03242 0.68413 -0.04900
C 	C 	0.93526 0.03961 0.63714 0.09000
C 	C 	0.84316 0.11980 0.63524 -0.05700
H 	H 	0.05789 0.96244 0.57031 0.08800
H 	H 	0.04624 0.04658 0.55488 0.08800
H 	H 	0.77729 0.83800 0.68059 0.04000
H 	H 	0.95784 0.77908 0.67952 0.04700
H 	H 	0.82809 0.91050 0.65668 0.05300
H 	H 	0.00849 0.85171 0.65494 0.04100
H 	H 	0.21589 0.81493 0.58876 0.04500
H 	H 	0.19993 0.89308 0.38384 0.04900
H 	H 	0.27506 0.83392 0.39597 0.04100
H 	H 	0.14049 0.87398 0.57647 0.04600
H 	H 	0.19246 0.19923 0.56159 0.04500
H 	H 	0.11978 0.13417 0.55147 0.04500
C 	C 	0.17655 0.13789 0.40123 -0.05700
H 	H 	0.24404 0.18642 0.36607 0.04000
H 	H 	0.76192 0.15866 0.64687 0.03900
H 	H 	0.81607 0.08874 0.63554 0.05200
H 	H 	0.99295 0.16151 0.61772 0.04900
H 	H 	0.93904 0.23157 0.62974 0.04500
H 	H 	0.93638 0.85547 0.52790 0.05400
H 	H 	0.03271 0.85365 0.45272 0.05300
H 	H 	0.23404 0.97206 0.50434 0.04900
H 	H 	0.22514 0.05640 0.49253 0.04900
H 	H 	0.91792 0.13661 0.49349 0.05700
H 	H 	0.00968 0.13598 0.41326 0.04300
H 	H 	0.02213 0.97095 0.70827 0.04700
H 	H 	0.01718 0.05533 0.69554 0.04500
H 	H 	0.17269 0.12052 0.35666 0.04800
Ni	Ni	0.44631 0.44455 0.02377 1.09700
O 	O 	0.40057 0.50272 0.02663 -0.72000
Ni	Ni	0.47116 0.54625 0.04436 1.09800
O 	O 	0.36359 0.40958 0.00824 -0.36000
O 	O 	0.31649 0.43951 0.09444 -0.40400
O 	O 	0.45074 0.45549 0.92855 -0.35000
Ni	Ni	0.33831 0.50735 0.09328 1.06700
O 	O 	0.59355 0.41741 0.03659 -0.40200
O 	O 	0.39757 0.49529 0.16672 -0.38600
O 	O 	0.42135 0.60184 0.03627 -0.37200
O 	O 	0.51430 0.48766 0.05349 -0.70700
O 	O 	0.49492 0.38713 0.01361 -0.36600
O 	O 	0.55375 0.58301 0.04679 -0.35600
O 	O 	0.59476 0.54369 0.96620 -0.38100
Ni	Ni	0.59104 0.48040 0.00492 1.06400
H 	H 	0.38136 0.50961 0.98547 0.17900
H 	H 	0.52381 0.48116 0.09806 0.16000
C 	C 	0.44886 0.51940 0.17781 0.25700
O 	O 	0.55686 0.45669 0.92138 -0.36900
C 	C 	0.31346 0.41451 0.04346 0.26800
C 	C 	0.36436 0.60359 0.06036 0.26400
C 	C 	0.50253 0.46761 0.89897 0.25900
C 	C 	0.59494 0.57961 0.00130 0.21800
C 	C 	0.55714 0.38519 0.01276 0.26200
O 	O 	0.46528 0.55255 0.14066 -0.35400
O 	O 	0.34516 0.57495 0.10458 -0.38900
Ni	Ni	0.55763 0.45422 0.52009 1.09900
O 	O 	0.50305 0.50619 0.49884 -0.70300
Ni	Ni	0.55543 0.55788 0.53236 1.10000
O 	O 	0.48741 0.40700 0.50530 -0.35500
O 	O 	0.42251 0.44242 0.57178 -0.40900
O 	O 	0.58163 0.44865 0.42647 -0.35200
Ni	Ni	0.41850 0.50554 0.53429 1.07100
O 	O 	0.69555 0.43993 0.48091 -0.39800
O 	O 	0.43429 0.53186 0.62190 -0.37800
O 	O 	0.49349 0.60837 0.52490 -0.35200
O 	O 	0.61343 0.50606 0.54532 -0.70000
O 	O 	0.61832 0.40627 0.54129 -0.35900
O 	O 	0.62481 0.60362 0.55699 -0.34300
O 	O 	0.69793 0.57550 0.49132 -0.40000
Ni	Ni	0.68758 0.50690 0.49072 1.06800
H 	H 	0.49854 0.50986 0.45281 0.16100
H 	H 	0.62617 0.50302 0.58995 0.16000
C 	C 	0.48883 0.53026 0.64985 0.25400
O 	O 	0.63928 0.51251 0.40852 -0.38700
C 	C 	0.43382 0.40851 0.53548 0.26800
C 	C 	0.43156 0.60262 0.52077 0.28600
C 	C 	0.59571 0.48324 0.39092 0.25400
C 	C 	0.68383 0.59963 0.54060 0.26700
C 	C 	0.67771 0.41038 0.52419 0.26800
O 	O 	0.53744 0.55244 0.62668 -0.35700
O 	O 	0.40554 0.56593 0.49705 -0.41000
C 	C 	0.49881 0.48312 0.83379 0.04700
N 	N 	0.55157 0.49746 0.80313 -0.06400
N 	N 	0.54816 0.51291 0.74454 -0.06600
C 	C 	0.49188 0.51454 0.71497 0.04500
N 	N 	0.43905 0.50005 0.74552 -0.06100
N 	N 	0.44243 0.48482 0.80432 -0.06100
C 	C 	0.48726 0.50989 0.23322 0.03500
N 	N 	0.53969 0.53518 0.24615 -0.06500
N 	N 	0.57564 0.52569 0.29532 -0.06500
C 	C 	0.56062 0.49031 0.33251 0.03400
N 	N 	0.50859 0.46470 0.31910 -0.06900
N 	N 	0.47254 0.47426 0.27002 -0.06700
C 	C 	0.31374 0.71075 0.52732 0.09600
C 	C 	0.37662 0.71676 0.50832 0.09000
N 	N 	0.41480 0.68191 0.50886 -0.08700
C 	C 	0.39244 0.64116 0.52737 -0.02100
C 	C 	0.33001 0.63558 0.54798 0.04300
N 	N 	0.29193 0.67046 0.54744 -0.11300
N 	N 	0.27458 0.74484 0.52320 -0.11500
N 	N 	0.39807 0.75690 0.48706 -0.10300
H 	H 	0.31174 0.60350 0.56350 0.02800
C 	C 	0.29558 0.78485 0.50061 0.05000
C 	C 	0.35889 0.79113 0.48307 0.00200
H 	H 	0.37665 0.82298 0.46616 0.04100
C 	C 	0.81436 0.69633 0.60866 0.09500
C 	C 	0.75882 0.68603 0.64200 0.09000
N 	N 	0.71844 0.65369 0.62042 -0.08800
C 	C 	0.73137 0.63099 0.56686 -0.02700
C 	C 	0.78855 0.63985 0.53543 0.03700
N 	N 	0.82867 0.67252 0.55680 -0.11300
N 	N 	0.85035 0.73245 0.62499 -0.11500
N 	N 	0.74351 0.71083 0.69265 -0.10000
H 	H 	0.80019 0.62175 0.49332 0.03400
C 	C 	0.83302 0.75905 0.67310 0.05000
C 	C 	0.77988 0.74692 0.70930 0.00300
H 	H 	0.76634 0.76705 0.74881 0.04200
C 	C 	0.79399 0.30479 0.56742 0.09500
C 	C 	0.74312 0.31428 0.60637 0.08900
N 	N 	0.70694 0.34885 0.59222 -0.09200
C 	C 	0.71990 0.37471 0.54085 -0.02500
C 	C 	0.77189 0.36574 0.50282 0.03800
N 	N 	0.80765 0.33085 0.51675 -0.11300
N 	N 	0.82788 0.26871 0.57937 -0.11500
N 	N 	0.72934 0.28809 0.65693 -0.10300
H 	H 	0.78301 0.38579 0.46177 0.03800
C 	C 	0.81315 0.24165 0.62901 0.05000
C 	C 	0.76359 0.25214 0.66931 0.00200
H 	H 	0.75203 0.23155 0.70971 0.03900
C 	C 	0.29876 0.30421 0.51275 0.09400
C 	C 	0.36047 0.30013 0.49120 0.09000
N 	N 	0.40352 0.33375 0.50019 -0.08700
C 	C 	0.38759 0.37139 0.53021 -0.02800
C 	C 	0.32593 0.37520 0.55245 0.03700
N 	N 	0.28277 0.34152 0.54318 -0.11400
N 	N 	0.25547 0.27083 0.50296 -0.11600
N 	N 	0.37661 0.26269 0.46122 -0.10300
H 	H 	0.31220 0.40498 0.57604 0.02900
C 	C 	0.27138 0.23333 0.47257 0.04900
C 	C 	0.33342 0.22909 0.45175 0.00200
H 	H 	0.34730 0.19901 0.42903 0.04100
C 	C 	0.23920 0.68036 0.01943 0.06800
C 	C 	0.27187 0.72153 0.02334 0.09700
N 	N 	0.24308 0.75891 0.00600 -0.13000
C 	C 	0.18267 0.75692 0.98480 0.07200
C 	C 	0.15004 0.71563 0.98106 -0.00300
N 	N 	0.17893 0.67825 0.99856 -0.09400
N 	N 	0.26895 0.64275 0.03409 -0.10600
N 	N 	0.33265 0.72356 0.04250 -0.11400
H 	H 	0.10246 0.71324 0.96323 0.04300
C 	C 	0.33037 0.64467 0.05210 -0.02300
C 	C 	0.36256 0.68603 0.05690 0.04300
H 	H 	0.41129 0.68819 0.07131 0.04800
C 	C 	0.65461 0.69574 0.99338 0.12200
C 	C 	0.69137 0.69552 0.93849 0.09100
N 	N 	0.71869 0.73381 0.91694 -0.11600
C 	C 	0.71110 0.77240 0.94834 0.07700
C 	C 	0.67465 0.77256 0.00341 -0.02500
N 	N 	0.64703 0.73420 0.02481 -0.11300
N 	N 	0.62562 0.65774 0.01378 -0.11600
N 	N 	0.69858 0.65711 0.90685 -0.10500
H 	H 	0.66810 0.80307 0.02875 0.04300
C 	C 	0.63163 0.61930 0.98153 0.02000
C 	C 	0.66963 0.61892 0.92733 0.02600
H 	H 	0.67536 0.58864 0.90122 0.04700
C 	C 	0.67601 0.31077 0.94953 0.09200
C 	C 	0.64083 0.27089 0.94216 0.09700
N 	N 	0.66891 0.23457 0.91951 -0.11200
C 	C 	0.73098 0.23664 0.90387 0.05000
C 	C 	0.76566 0.27691 0.91015 0.00300
N 	N 	0.73753 0.31308 0.93302 -0.10500
N 	N 	0.64832 0.34682 0.97319 -0.09600
N 	N 	0.57915 0.26874 0.95840 -0.10700
H 	H 	0.81480 0.27924 0.89732 0.04200
C 	C 	0.58647 0.34491 0.98945 0.00100
C 	C 	0.55117 0.30495 0.98170 0.04000
H 	H 	0.50201 0.30266 0.99438 0.05500
C 	C 	0.21006 0.32955 0.96983 0.11100
C 	C 	0.18754 0.30627 0.02311 0.07200
N 	N 	0.16104 0.26504 0.01617 -0.12600
C 	C 	0.15616 0.24618 0.95809 0.06400
C 	C 	0.17492 0.27061 0.90461 -0.00000
N 	N 	0.20181 0.31174 0.91159 -0.10500
N 	N 	0.24602 0.36709 0.97746 -0.08300
N 	N 	0.19850 0.32315 0.08155 -0.11300
H 	H 	0.17009 0.25629 0.85799 0.04100
C 	C 	0.26084 0.38239 0.03609 -0.04400
C 	C 	0.23427 0.36099 0.08912 0.03900
H 	H 	0.24517 0.37286 0.13618 0.03700
