data_crystal

_cell_length_a 16.00370
_cell_length_b 13.95934
_cell_length_c 39.46025
_cell_angle_alpha 90.92450
_cell_angle_beta  91.19659
_cell_angle_gamma 111.14863

_symmetry_space_group_name_	'P 1'
_symmetry_space_group_name_H-M	'P 1'

loop_
_symmetry_equiv_pos_as_xyz
  x,y,z

loop_
_atom_site_label
_atom_site_type_symbol
_atom_site_fract_x
_atom_site_fract_y
_atom_site_fract_z
_atom_site_charge
Ni	Ni	0.55949 0.21239 0.91034 1.10800
O 	O 	0.57265 0.32940 0.87697 -0.69900
Ni	Ni	0.69303 0.34480 0.85860 1.09600
O 	O 	0.46135 0.23080 0.93899 -0.34700
O 	O 	0.47252 0.39354 0.92713 -0.39700
O 	O 	0.45810 0.10764 0.88133 -0.36600
Ni	Ni	0.58932 0.46054 0.90054 1.07200
O 	O 	0.55650 0.99131 0.89476 -0.33400
O 	O 	0.66736 0.42700 0.93648 -0.38700
O 	O 	0.71465 0.47522 0.83188 -0.39200
O 	O 	0.66983 0.21773 0.88719 -0.71100
O 	O 	0.55595 0.09511 0.94066 -0.32600
O 	O 	0.80392 0.32867 0.83824 -0.35800
O 	O 	0.72800 0.16045 0.82275 -0.41000
Ni	Ni	0.63941 0.08917 0.86075 1.05800
H 	H 	0.52547 0.31216 0.85886 0.16100
H 	H 	0.71901 0.22555 0.90390 0.17800
C 	C 	0.74950 0.43356 0.92977 0.32100
O 	O 	0.53401 0.10334 0.83348 -0.41600
C 	C 	0.46231 0.32079 0.94918 0.35100
C 	C 	0.72389 0.56243 0.84748 0.28500
C 	C 	0.45952 0.09737 0.84833 0.28200
C 	C 	0.80415 0.23768 0.82933 0.26300
C 	C 	0.55849 0.00804 0.92811 0.23100
O 	O 	0.77437 0.43150 0.89800 -0.37000
O 	O 	0.70155 0.56364 0.87944 -0.39300
Ni	Ni	0.61858 0.38882 0.59188 1.10400
O 	O 	0.71573 0.40015 0.55738 -0.68400
Ni	Ni	0.79609 0.34340 0.58281 1.10200
O 	O 	0.57752 0.49805 0.56970 -0.34700
O 	O 	0.72231 0.60267 0.56707 -0.40400
O 	O 	0.52839 0.27616 0.56101 -0.35200
Ni	Ni	0.78855 0.53015 0.53821 1.10700
O 	O 	0.49269 0.18799 0.62065 -0.38600
O 	O 	0.90462 0.57915 0.56769 -0.38400
O 	O 	0.90320 0.38035 0.55050 -0.36700
O 	O 	0.69023 0.31572 0.61482 -0.69900
O 	O 	0.52067 0.36066 0.62688 -0.36600
O 	O 	0.85113 0.26110 0.61278 -0.35500
O 	O 	0.72088 0.12145 0.61179 -0.39300
Ni	Ni	0.61365 0.17108 0.61589 1.07100
H 	H 	0.68924 0.35271 0.53792 0.19100
H 	H 	0.70962 0.34450 0.63799 0.15400
C 	C 	0.90816 0.56203 0.60013 0.30400
O 	O 	0.59716 0.15840 0.56466 -0.38400
C 	C 	0.63811 0.58274 0.55859 0.32900
C 	C 	0.90145 0.41437 0.51927 0.34100
C 	C 	0.54392 0.19622 0.54850 0.31700
C 	C 	0.80024 0.17328 0.62559 0.26800
C 	C 	0.48008 0.26512 0.63683 0.26600
O 	O 	0.86141 0.47214 0.61247 -0.38800
O 	O 	0.83680 0.44470 0.50861 -0.37300
Ni	Ni	0.03126 0.00286 0.78033 1.08200
O 	O 	0.01770 0.89798 0.74204 -0.68800
Ni	Ni	0.08619 0.98943 0.70583 1.12300
O 	O 	0.95645 0.88791 0.81160 -0.34400
O 	O 	0.84108 0.84385 0.77223 -0.40400
O 	O 	0.15253 0.99197 0.79538 -0.31200
Ni	Ni	0.89430 0.83629 0.72496 1.06300
O 	O 	0.09451 0.26330 0.78500 -0.39300
O 	O 	0.87806 0.97121 0.71306 -0.36800
O 	O 	0.07861 0.87388 0.67181 -0.32100
O 	O 	0.07799 0.09478 0.74107 -0.71000
O 	O 	0.04720 0.11580 0.81599 -0.37400
O 	O 	0.18410 0.09712 0.67877 -0.36300
O 	O 	0.26555 0.17270 0.72692 -0.41300
Ni	Ni	0.17830 0.21717 0.75598 1.07400
H 	H 	0.04362 0.84567 0.74797 0.16700
H 	H 	0.03014 0.12011 0.73425 0.15500
C 	C 	0.91745 0.02395 0.68685 0.23600
O 	O 	0.22033 0.16590 0.79853 -0.37500
C 	C 	0.87697 0.82428 0.80035 0.26300
C 	C 	0.99811 0.80065 0.66679 0.23900
C 	C 	0.22577 0.07490 0.79985 0.23700
C 	C 	0.25718 0.16435 0.69361 0.26500
C 	C 	0.03868 0.20221 0.80675 0.30500
O 	O 	0.99168 0.01725 0.67568 -0.37800
O 	O 	0.92529 0.81703 0.67606 -0.38400
Ni	Ni	0.41536 0.79270 0.39628 1.10700
O 	O 	0.35362 0.64964 0.37541 -0.70000
Ni	Ni	0.24050 0.66197 0.35592 1.10100
O 	O 	0.51884 0.75534 0.41653 -0.34500
O 	O 	0.42119 0.62226 0.44510 -0.38400
O 	O 	0.47792 0.82521 0.35147 -0.38600
Ni	Ni	0.32295 0.54344 0.40912 1.07500
O 	O 	0.38452 0.02395 0.39520 -0.43500
O 	O 	0.25294 0.61560 0.43429 -0.39300
O 	O 	0.19135 0.51971 0.33383 -0.36300
O 	O 	0.29796 0.80117 0.38088 -0.69800
O 	O 	0.47768 0.94080 0.41289 -0.37900
O 	O 	0.14247 0.69984 0.33120 -0.35000
O 	O 	0.24245 0.85249 0.31334 -0.39200
Ni	Ni	0.32218 0.92844 0.35519 1.08400
H 	H 	0.38878 0.63372 0.35727 0.16400
H 	H 	0.26340 0.80436 0.40110 0.17100
C 	C 	0.17029 0.59870 0.42556 0.34800
O 	O 	0.44160 0.95644 0.33056 -0.36400
C 	C 	0.50357 0.68181 0.43870 0.32300
C 	C 	0.20336 0.44309 0.34966 0.26600
C 	C 	0.50223 0.91606 0.33846 0.30300
C 	C 	0.15904 0.78911 0.31696 0.27300
C 	C 	0.43161 0.99991 0.41941 0.43800
O 	O 	0.14836 0.60592 0.39365 -0.36500
O 	O 	0.21239 0.44577 0.38309 -0.39600
Ni	Ni	0.34920 0.61354 0.09388 1.10400
O 	O 	0.24126 0.58157 0.06071 -0.69500
Ni	Ni	0.17143 0.65682 0.08373 1.10600
O 	O 	0.38390 0.49096 0.08015 -0.36300
O 	O 	0.23906 0.38268 0.07928 -0.38300
O 	O 	0.43266 0.69834 0.05703 -0.36300
Ni	Ni	0.16085 0.44138 0.05017 1.12000
O 	O 	0.48805 0.82714 0.11086 -0.38700
O 	O 	0.06598 0.41833 0.08625 -0.37800
O 	O 	0.04989 0.59746 0.05717 -0.35300
O 	O 	0.28947 0.70632 0.11167 -0.70100
O 	O 	0.45582 0.66065 0.12700 -0.36400
O 	O 	0.13166 0.76484 0.10749 -0.34700
O 	O 	0.26096 0.89384 0.09344 -0.37600
Ni	Ni	0.36798 0.84612 0.10265 1.07500
H 	H 	0.26057 0.61457 0.03880 0.19900
H 	H 	0.27990 0.69703 0.13630 0.16300
C 	C 	0.08556 0.45678 0.11708 0.29500
O 	O 	0.36894 0.81975 0.05189 -0.38700
C 	C 	0.32245 0.40256 0.07085 0.32700
C 	C 	0.03623 0.54348 0.02816 0.36000
C 	C 	0.41595 0.76872 0.03921 0.34200
C 	C 	0.18790 0.86070 0.11120 0.27900
C 	C 	0.50135 0.75984 0.13162 0.27400
O 	O 	0.12136 0.55663 0.12235 -0.37300
O 	O 	0.09118 0.49791 0.01805 -0.36000
Ni	Ni	0.85426 0.96011 0.24176 1.10700
O 	O 	0.95087 0.98587 0.20683 -0.68300
Ni	Ni	0.05371 0.09440 0.23098 1.10000
O 	O 	0.76367 0.85287 0.21008 -0.35700
O 	O 	0.78650 0.97504 0.16987 -0.38000
O 	O 	0.90658 0.85590 0.26042 -0.36500
Ni	Ni	0.92469 0.03501 0.16370 1.04900
O 	O 	0.82309 0.06689 0.31560 -0.43000
O 	O 	0.92382 0.16922 0.18431 -0.41300
O 	O 	0.14692 0.09258 0.19699 -0.36200
O 	O 	0.94868 0.08933 0.26132 -0.71800
O 	O 	0.76157 0.92685 0.27915 -0.36800
O 	O 	0.15501 0.17903 0.26426 -0.36100
O 	O 	0.08575 0.09084 0.30953 -0.41700
Ni	Ni	0.95241 0.07468 0.31077 1.06200
H 	H 	0.96599 0.92387 0.20286 0.16000
H 	H 	0.92934 0.14757 0.25635 0.15500
C 	C 	0.99945 0.24514 0.19049 0.24800
O 	O 	0.91769 0.91993 0.31401 -0.36300
C 	C 	0.74246 0.88158 0.18047 0.26600
C 	C 	0.11962 0.07086 0.16497 0.22700
C 	C 	0.94302 0.86844 0.29104 0.26400
C 	C 	0.14339 0.17413 0.29704 0.28400
C 	C 	0.75238 0.99653 0.30024 0.32500
O 	O 	0.05925 0.23320 0.21157 -0.33700
O 	O 	0.05697 0.10197 0.15208 -0.38300
C 	C 	0.05430 0.38986 0.14506 -0.04600
C 	C 	0.02835 0.32685 0.16677 -0.00600
C 	C 	0.58394 0.79165 0.15090 -0.03100
C 	C 	0.65573 0.82725 0.16543 -0.02900
C 	C 	0.14404 0.99673 0.14630 0.00200
C 	C 	0.16292 0.93357 0.13034 -0.05200
C 	C 	0.58974 0.95599 0.32395 -0.01400
C 	C 	0.66435 0.97927 0.31297 -0.02800
C 	C 	0.16703 0.26794 0.31626 -0.07900
C 	C 	0.18411 0.34766 0.33178 -0.03700
C 	C 	0.01983 0.83948 0.29814 -0.01800
C 	C 	0.08450 0.81753 0.30576 -0.04000
C 	C 	0.50635 0.20709 0.48760 -0.13700
C 	C 	0.50014 0.14754 0.51642 -0.07100
C 	C 	0.45957 0.04020 0.51362 0.24000
C 	C 	0.43159 0.99256 0.48191 0.07100
C 	C 	0.44396 0.05152 0.45273 -0.26300
C 	C 	0.47871 0.15925 0.45575 0.40500
F 	F 	0.49030 0.21728 0.42772 -0.45200
H 	H 	0.53635 0.29009 0.48964 0.12900
H 	H 	0.40318 0.90941 0.47981 0.08000
F 	F 	0.44936 0.98198 0.54156 -0.37700
C 	C 	0.05668 0.52415 0.50855 -0.06900
C 	C 	0.98060 0.43942 0.49862 -0.14000
C 	C 	0.96989 0.40388 0.46471 0.32100
C 	C 	0.02906 0.45948 0.44040 -0.06300
C 	C 	0.10079 0.54956 0.44991 -0.13700
C 	C 	0.11523 0.58065 0.48428 0.34200
F 	F 	0.18532 0.66672 0.49403 -0.42700
H 	H 	0.06602 0.55167 0.53472 0.10800
H 	H 	0.01977 0.43184 0.41426 0.10000
F 	F 	0.89824 0.31949 0.45494 -0.43800
C 	C 	0.59928 0.71162 0.52530 -0.07200
C 	C 	0.61940 0.62205 0.52618 -0.15100
C 	C 	0.62747 0.57339 0.49564 0.32700
C 	C 	0.60600 0.60766 0.46478 -0.09600
C 	C 	0.57263 0.68761 0.46429 -0.11400
C 	C 	0.57736 0.74549 0.49431 0.34300
F 	F 	0.55061 0.82736 0.49394 -0.41800
H 	H 	0.59773 0.75301 0.54860 0.10300
H 	H 	0.60583 0.56480 0.44162 0.09100
F 	F 	0.65238 0.49025 0.49598 -0.51700
C 	C 	0.87320 0.07747 0.66704 -0.04000
C 	C 	0.83957 0.12209 0.64857 -0.05200
C 	C 	0.33580 0.20905 0.67391 -0.04300
C 	C 	0.40236 0.24062 0.65733 -0.03400
C 	C 	0.98473 0.71850 0.64260 -0.01800
C 	C 	0.95537 0.64640 0.62294 -0.05100
C 	C 	0.89900 0.55224 0.95115 -0.08400
C 	C 	0.81920 0.46952 0.95683 -0.11800
C 	C 	0.80663 0.42176 0.98836 0.33600
C 	C 	0.87533 0.45318 0.01326 -0.07900
C 	C 	0.95711 0.53177 0.00675 -0.13900
C 	C 	0.96762 0.58324 0.97599 0.33500
F 	F 	0.04605 0.66022 0.96955 -0.40500
H 	H 	0.90835 0.59153 0.92727 0.10700
H 	H 	0.86685 0.41271 0.03690 0.09400
F 	F 	0.72982 0.34172 0.99423 -0.41800
C 	C 	0.55165 0.86164 0.00697 -0.07000
C 	C 	0.46020 0.80068 0.00685 -0.13300
C 	C 	0.40815 0.78954 0.97692 0.35700
C 	C 	0.44483 0.84813 0.94874 -0.10900
C 	C 	0.53303 0.91959 0.95054 -0.05200
C 	C 	0.58796 0.92139 0.97897 0.32200
F 	F 	0.67448 0.98729 0.98058 -0.41900
H 	H 	0.59288 0.86896 0.02971 0.10100
H 	H 	0.40235 0.84451 0.92663 0.12200
F 	F 	0.32035 0.72766 0.97599 -0.43500
C 	C 	0.42285 0.33020 0.04239 -0.07500
C 	C 	0.34139 0.34665 0.04213 -0.14800
C 	C 	0.29338 0.33797 0.01123 0.34100
C 	C 	0.33323 0.32990 0.98075 -0.08500
C 	C 	0.41947 0.32620 0.98102 -0.12500
C 	C 	0.46210 0.32059 0.01191 0.33400
F 	F 	0.54327 0.31030 0.01236 -0.41800
H 	H 	0.45905 0.33315 0.06615 0.09400
H 	H 	0.29765 0.32795 0.95693 0.10300
F 	F 	0.21069 0.34402 0.01060 -0.53300
C 	C 	0.95754 0.21839 0.81454 -0.08500
C 	C 	0.88748 0.22760 0.82100 -0.03500
C 	C 	0.37727 0.07699 0.82875 -0.05600
C 	C 	0.30661 0.06813 0.81477 -0.02700
C 	C 	0.82648 0.73516 0.81925 -0.04100
C 	C 	0.78015 0.65732 0.83275 -0.04000
