data_crystal

_cell_length_a 22.51076
_cell_length_b 23.44060
_cell_length_c 31.80282
_cell_angle_alpha 60.96565
_cell_angle_beta  118.71887
_cell_angle_gamma 133.16976

_symmetry_space_group_name_	'P 1'
_symmetry_space_group_name_H-M	'P 1'

loop_
_symmetry_equiv_pos_as_xyz
  x,y,z

loop_
_atom_site_label
_atom_site_type_symbol
_atom_site_fract_x
_atom_site_fract_y
_atom_site_fract_z
_atom_site_charge
C 	C 	0.25987 0.66180 0.19907 0.05100
C 	C 	0.34587 0.71327 0.20004 -0.07600
C 	C 	0.38101 0.68744 0.19350 0.05500
C 	C 	0.33134 0.61078 0.18641 -0.07800
C 	C 	0.24618 0.55879 0.18512 0.05200
C 	C 	0.20941 0.58377 0.19150 -0.07700
H 	H 	0.38475 0.77350 0.20500 0.06600
H 	H 	0.35926 0.59142 0.18147 0.06400
H 	H 	0.14306 0.54371 0.19029 0.06000
C 	C 	0.29156 0.65614 0.70616 0.05000
C 	C 	0.23714 0.57766 0.69866 -0.07800
C 	C 	0.26322 0.55507 0.68075 0.05200
C 	C 	0.34065 0.61060 0.66891 -0.08000
C 	C 	0.39741 0.68490 0.68040 0.05300
C 	C 	0.37322 0.70869 0.69869 -0.07700
H 	H 	0.17510 0.53564 0.70572 0.06100
H 	H 	0.35958 0.59327 0.65415 0.06400
H 	H 	0.41682 0.76779 0.70625 0.06700
Co	Co	0.04534 0.02461 0.05925 1.16600
Co	Co	0.00063 0.08980 0.10571 1.17200
C 	C 	0.20942 0.08587 0.05633 0.33500
Co	Co	0.08851 0.91106 0.07061 1.18800
O 	O 	0.04223 0.11539 0.04962 -0.46800
C 	C 	0.10108 0.20240 0.17561 0.31200
C 	C 	0.15146 0.87961 0.17679 0.31300
O 	O 	0.99556 0.89429 0.00688 -0.37600
O 	O 	0.05632 0.14385 0.20869 -0.38200
O 	O 	0.10283 0.18637 0.14105 -0.37600
O 	O 	0.17535 0.93363 0.13630 -0.37500
O 	O 	0.09741 0.86891 0.19166 -0.36800
O 	O 	0.03438 0.93674 0.09088 -0.73300
C 	C 	0.96812 0.96902 0.27702 0.30100
O 	O 	0.16306 0.02896 0.03389 -0.41500
O 	O 	0.17492 0.09038 0.07719 -0.40800
Co	Co	0.06620 0.01002 0.56801 1.16200
Co	Co	0.00381 0.06803 0.60752 1.17100
C 	C 	0.22969 0.03574 0.58077 0.26600
Co	Co	0.07137 0.87607 0.56722 1.17500
O 	O 	0.06077 0.09999 0.55744 -0.46900
C 	C 	0.06204 0.19600 0.64757 0.31600
C 	C 	0.09820 0.79557 0.67259 0.32700
O 	O 	0.08842 0.96307 0.50137 -0.38500
O 	O 	0.98270 0.15508 0.64470 -0.39100
O 	O 	0.08790 0.17175 0.63423 -0.38200
O 	O 	0.05748 0.78258 0.62885 -0.41200
O 	O 	0.09035 0.83282 0.68809 -0.37400
O 	O 	0.04498 0.91802 0.59608 -0.74700
C 	C 	0.00068 0.98813 0.77795 0.33100
O 	O 	0.19405 0.95730 0.59672 -0.35200
O 	O 	0.19348 0.06812 0.57429 -0.37600
C 	C 	0.05999 0.96621 0.91761 0.09900
C 	C 	0.05377 0.96500 0.87138 -0.01600
H 	H 	0.09695 0.96111 0.86857 0.07100
N 	N 	0.12318 0.96200 0.95921 -0.00400
O 	O 	0.10551 0.89224 0.98870 -0.13200
O 	O 	0.20099 0.02473 0.96183 -0.13100
C 	C 	0.06222 0.03650 0.34821 0.05500
C 	C 	0.06566 0.04495 0.39089 -0.06800
H 	H 	0.11906 0.09941 0.40370 0.06700
N 	N 	0.12712 0.10161 0.32179 -0.01800
O 	O 	0.15504 0.17555 0.31344 -0.10600
O 	O 	0.16210 0.08750 0.30895 -0.10800
C 	C 	0.21434 0.47410 0.67669 -0.01100
C 	C 	0.18309 0.41038 0.67115 -0.01700
C 	C 	0.14998 0.33814 0.66313 0.06700
C 	C 	0.11631 0.27491 0.65579 -0.10300
C 	C 	0.26000 0.68659 0.71419 -0.00900
C 	C 	0.23164 0.71366 0.71692 -0.01500
C 	C 	0.19327 0.74587 0.71322 0.06800
C 	C 	0.15383 0.77149 0.70115 -0.10200
C 	C 	0.13098 0.28272 0.17026 -0.09700
C 	C 	0.15024 0.34535 0.17021 0.06500
C 	C 	0.17289 0.41670 0.17370 -0.01600
C 	C 	0.19918 0.47936 0.17846 -0.01200
C 	C 	0.16323 0.81705 0.19454 -0.09700
C 	C 	0.17777 0.77133 0.20144 0.06600
C 	C 	0.19985 0.72517 0.20348 -0.01300
C 	C 	0.22358 0.69233 0.20231 -0.00900
C 	C 	0.31280 0.08756 0.57375 -0.09400
C 	C 	0.38182 0.12539 0.56839 0.05300
C 	C 	0.46266 0.16733 0.56314 -0.01700
C 	C 	0.44901 0.18694 0.07248 -0.02300
C 	C 	0.36903 0.15744 0.07133 0.07400
C 	C 	0.29793 0.12913 0.06697 -0.11700
C 	C 	0.70897 0.29004 0.04484 0.04600
C 	C 	0.76340 0.36852 0.05232 -0.07800
C 	C 	0.73743 0.39109 0.07033 0.05000
C 	C 	0.66009 0.33553 0.08227 -0.08100
C 	C 	0.60329 0.26122 0.07078 0.04900
C 	C 	0.62737 0.23746 0.05240 -0.07900
H 	H 	0.82540 0.41057 0.04518 0.06100
H 	H 	0.64124 0.35284 0.09712 0.06200
H 	H 	0.58375 0.17835 0.04485 0.05700
C 	C 	0.74073 0.28416 0.55221 0.04800
C 	C 	0.79113 0.36221 0.55974 -0.07700
C 	C 	0.75432 0.38714 0.56612 0.05100
C 	C 	0.66918 0.33507 0.56489 -0.08000
C 	C 	0.61957 0.25839 0.55784 0.05200
C 	C 	0.65475 0.23262 0.55129 -0.07900
H 	H 	0.85747 0.40233 0.56091 0.06200
H 	H 	0.64121 0.35438 0.56984 0.06300
H 	H 	0.61592 0.17238 0.54636 0.05800
Co	Co	0.93445 0.93583 0.18324 1.19100
Co	Co	0.99656 0.87788 0.14350 1.18200
Co	Co	0.92896 0.06964 0.18396 1.16500
C 	C 	0.93871 0.75006 0.10363 0.32600
O 	O 	0.94265 0.16307 0.12230 -0.41300
O 	O 	0.95553 0.02783 0.15512 -0.77500
C 	C 	0.90187 0.15009 0.07855 0.32500
O 	O 	0.93998 0.84593 0.19380 -0.45200
C 	C 	0.77082 0.90985 0.17052 0.31000
O 	O 	0.97064 0.97084 0.11398 -0.55800
C 	C 	0.00013 0.95787 0.97329 0.33200
O 	O 	0.90999 0.11325 0.06289 -0.38400
O 	O 	0.00625 0.01034 0.98535 -0.38900
O 	O 	0.80635 0.98826 0.15448 -0.36900
O 	O 	0.80716 0.87754 0.17709 -0.36700
O 	O 	0.91211 0.98270 0.24984 -0.38600
O 	O 	0.99699 0.95697 0.25610 -0.35000
O 	O 	0.01807 0.79095 0.10655 -0.39900
O 	O 	0.91281 0.77426 0.11697 -0.37800
Co	Co	0.95538 0.92131 0.69201 1.19000
Co	Co	0.99962 0.85621 0.64527 1.18200
Co	Co	0.91228 0.03496 0.68064 1.17600
C 	C 	0.89925 0.74351 0.57556 0.31200
O 	O 	0.82535 0.01236 0.61495 -0.40100
O 	O 	0.96643 0.00926 0.66039 -0.76300
C 	C 	0.84910 0.06637 0.57443 0.31200
O 	O 	0.95843 0.83053 0.70158 -0.45300
C 	C 	0.79133 0.86014 0.69496 0.33400
O 	O 	0.03015 0.97549 0.63724 -0.55500
C 	C 	0.03255 0.97693 0.47418 0.29700
O 	O 	0.90303 0.07709 0.55944 -0.37700
O 	O 	0.00373 0.98903 0.49511 -0.34500
O 	O 	0.83775 0.91708 0.71739 -0.37800
O 	O 	0.82580 0.85558 0.67409 -0.38800
O 	O 	0.00526 0.05172 0.74436 -0.40600
O 	O 	0.99457 0.93565 0.76590 -0.35500
O 	O 	0.94400 0.80208 0.54248 -0.37000
O 	O 	0.89768 0.75951 0.61022 -0.37000
C 	C 	0.94706 0.98102 0.87986 -0.02200
C 	C 	0.00599 0.97408 0.92231 -0.06000
C 	C 	0.99483 0.97194 0.82894 -0.06900
C 	C 	0.94084 0.97982 0.83363 0.10200
N 	N 	0.87766 0.98406 0.79203 -0.00900
H 	H 	0.90387 0.98491 0.88267 0.07400
O 	O 	0.79984 0.92136 0.78942 -0.09500
O 	O 	0.89536 0.05382 0.76254 -0.16300
C 	C 	0.93501 0.90103 0.36031 -0.03000
C 	C 	0.99509 0.96479 0.33155 -0.02900
C 	C 	0.00558 0.98119 0.41964 -0.02400
C 	C 	0.93844 0.90949 0.40298 0.08400
N 	N 	0.87352 0.84440 0.42938 -0.02000
H 	H 	0.88162 0.84657 0.34750 0.06700
O 	O 	0.84556 0.77045 0.43773 -0.09900
O 	O 	0.83855 0.85854 0.44220 -0.08900
C 	C 	0.48282 0.73028 0.67944 -0.00600
C 	C 	0.55175 0.75918 0.67879 -0.01200
C 	C 	0.63174 0.78865 0.67997 0.08000
C 	C 	0.70282 0.81692 0.68432 -0.10000
C 	C 	0.46747 0.74017 0.19150 -0.00900
C 	C 	0.53792 0.77835 0.18824 -0.01200
C 	C 	0.61874 0.82019 0.18299 0.06800
C 	C 	0.68774 0.85799 0.17761 -0.09300
C 	C 	0.83733 0.12891 0.55674 -0.10600
C 	C 	0.82282 0.17464 0.54986 0.06200
C 	C 	0.80078 0.22083 0.54782 -0.01800
C 	C 	0.77707 0.25368 0.54898 -0.01200
C 	C 	0.80125 0.46658 0.57273 -0.01100
C 	C 	0.82750 0.52925 0.57746 -0.01300
C 	C 	0.85012 0.60059 0.58093 0.06600
C 	C 	0.86935 0.66321 0.58087 -0.09300
C 	C 	0.53312 0.20560 0.55988 -0.01600
C 	C 	0.74049 0.25957 0.03679 -0.01300
C 	C 	0.76883 0.23247 0.03409 -0.02200
C 	C 	0.80714 0.20018 0.03784 0.06200
C 	C 	0.84647 0.17443 0.04997 -0.11100
C 	C 	0.78632 0.47205 0.07436 -0.01100
C 	C 	0.81760 0.53577 0.07991 -0.01700
C 	C 	0.85075 0.60799 0.08797 0.07000
C 	C 	0.88444 0.67120 0.09534 -0.10200
C 	C 	0.51792 0.21585 0.07180 -0.01200
