data_crystal

_cell_length_a 24.82855
_cell_length_b 22.29164
_cell_length_c 31.84231
_cell_angle_alpha 103.99202
_cell_angle_beta  115.92532
_cell_angle_gamma 111.59466

_symmetry_space_group_name_	'P 1'
_symmetry_space_group_name_H-M	'P 1'

loop_
_symmetry_equiv_pos_as_xyz
  x,y,z

loop_
_atom_site_label
_atom_site_type_symbol
_atom_site_fract_x
_atom_site_fract_y
_atom_site_fract_z
_atom_site_charge
C 	C 	0.74212 0.51786 0.95035 -0.02100
C 	C 	0.76161 0.52957 0.00146 -0.01900
C 	C 	0.74295 0.46987 0.01114 -0.07200
C 	C 	0.70497 0.39816 0.96993 0.07800
C 	C 	0.68076 0.38617 0.91777 -0.07500
C 	C 	0.69951 0.44591 0.90816 -0.01900
N 	N 	0.69858 0.33924 0.98273 -0.14500
C 	C 	0.51424 0.22460 0.97764 -0.01700
C 	C 	0.50784 0.24200 0.93688 -0.02000
C 	C 	0.56768 0.27783 0.93729 -0.07400
C 	C 	0.63486 0.29725 0.97895 0.07700
C 	C 	0.64039 0.27704 0.01835 -0.07000
C 	C 	0.58044 0.24084 0.01772 -0.01800
C 	C 	0.77419 0.21757 0.92962 -0.01500
C 	C 	0.70136 0.19141 0.89845 -0.02000
C 	C 	0.67596 0.23111 0.91549 -0.07400
C 	C 	0.72350 0.29774 0.96386 0.08100
C 	C 	0.79643 0.32495 0.99381 -0.07500
C 	C 	0.82171 0.28514 0.97692 -0.02100
H 	H 	0.79402 0.58507 0.03415 0.02800
H 	H 	0.76100 0.47949 0.05122 0.04600
H 	H 	0.64979 0.33097 0.88521 0.04700
H 	H 	0.68358 0.43646 0.86843 0.03200
H 	H 	0.45680 0.22925 0.90557 0.03500
H 	H 	0.56170 0.29029 0.90538 0.04800
H 	H 	0.69165 0.29084 0.05010 0.04900
H 	H 	0.58572 0.22692 0.04905 0.03400
H 	H 	0.66430 0.13955 0.86171 0.03300
H 	H 	0.61971 0.21040 0.89113 0.04900
H 	H 	0.83337 0.37656 0.03071 0.05000
H 	H 	0.87796 0.30556 0.00150 0.03400
C 	C 	0.72021 0.50200 0.44491 -0.01800
C 	C 	0.74040 0.51236 0.49592 -0.02100
C 	C 	0.71905 0.45168 0.50420 -0.07500
C 	C 	0.67767 0.38027 0.46170 0.08100
C 	C 	0.65439 0.36990 0.40998 -0.07600
C 	C 	0.67563 0.43062 0.40174 -0.02000
N 	N 	0.66473 0.31913 0.47241 -0.14500
C 	C 	0.47874 0.22860 0.46880 -0.01500
C 	C 	0.47472 0.23979 0.42632 -0.02000
C 	C 	0.53481 0.26654 0.42588 -0.07500
C 	C 	0.59977 0.28278 0.46831 0.08000
C 	C 	0.60257 0.26837 0.50942 -0.07300
C 	C 	0.54245 0.24162 0.50981 -0.02100
C 	C 	0.72840 0.18898 0.41134 -0.01800
C 	C 	0.65656 0.16680 0.38196 -0.01900
C 	C 	0.63467 0.20822 0.40228 -0.07500
C 	C 	0.68481 0.27266 0.45214 0.08200
C 	C 	0.75638 0.29454 0.48120 -0.07400
C 	C 	0.77811 0.25302 0.46106 -0.01800
H 	H 	0.77442 0.56746 0.52939 0.02800
H 	H 	0.73669 0.46006 0.54400 0.04600
H 	H 	0.62149 0.31507 0.37657 0.04700
H 	H 	0.65942 0.42227 0.36214 0.03100
H 	H 	0.42524 0.22846 0.39395 0.03300
H 	H 	0.53080 0.27456 0.39276 0.04600
H 	H 	0.65215 0.28016 0.54196 0.04900
H 	H 	0.54579 0.23255 0.54256 0.03400
H 	H 	0.61771 0.11726 0.34364 0.03300
H 	H 	0.57935 0.19114 0.37892 0.04800
H 	H 	0.79524 0.34414 0.51945 0.04800
H 	H 	0.83346 0.26987 0.48453 0.03200
C 	C 	0.35493 0.55893 0.99684 -0.02000
C 	C 	0.38599 0.61779 0.04595 -0.01600
C 	C 	0.42329 0.69040 0.05641 -0.07700
C 	C 	0.42966 0.70515 0.01790 0.08400
C 	C 	0.39913 0.64612 0.96876 -0.08000
C 	C 	0.36192 0.57342 0.95836 -0.01900
N 	N 	0.46525 0.78061 0.02861 -0.14600
C 	C 	0.62122 0.84433 0.99649 -0.01900
C 	C 	0.55220 0.82551 0.95922 -0.02000
C 	C 	0.50034 0.80360 0.96907 -0.08000
C 	C 	0.51726 0.80100 0.01674 0.08300
C 	C 	0.58616 0.81953 0.05374 -0.07600
C 	C 	0.63785 0.84098 0.04370 -0.01900
C 	C 	0.33200 0.86533 0.99432 -0.02000
C 	C 	0.40027 0.90659 0.04247 -0.01600
C 	C 	0.44442 0.87913 0.05285 -0.07600
C 	C 	0.42075 0.81016 0.01538 0.08500
C 	C 	0.35256 0.76932 0.96669 -0.08100
C 	C 	0.30850 0.79675 0.95642 -0.01800
H 	H 	0.38075 0.60723 0.07586 0.03000
H 	H 	0.44654 0.73541 0.09425 0.04700
H 	H 	0.40323 0.65649 0.93847 0.04800
H 	H 	0.33847 0.52841 0.92042 0.03200
H 	H 	0.53870 0.82766 0.92256 0.03000
H 	H 	0.44708 0.78784 0.93944 0.04700
H 	H 	0.59963 0.81746 0.09040 0.04200
H 	H 	0.69069 0.85464 0.07249 0.02700
H 	H 	0.41914 0.95986 0.07180 0.02900
H 	H 	0.49675 0.91097 0.09036 0.04700
H 	H 	0.33404 0.71700 0.93666 0.04800
H 	H 	0.25603 0.76468 0.91897 0.03100
C 	C 	0.29764 0.53360 0.47024 -0.01500
C 	C 	0.34182 0.58896 0.52358 -0.02200
C 	C 	0.38400 0.66236 0.53746 -0.07300
C 	C 	0.38295 0.68129 0.49836 0.07800
C 	C 	0.34032 0.62551 0.44506 -0.07300
C 	C 	0.29766 0.55210 0.43112 -0.02200
N 	N 	0.42319 0.75810 0.51302 -0.14200
C 	C 	0.57986 0.82516 0.48092 -0.01600
C 	C 	0.54624 0.86345 0.48198 -0.02300
C 	C 	0.49401 0.84099 0.49139 -0.07300
C 	C 	0.47232 0.77756 0.49777 0.07400
C 	C 	0.50844 0.74100 0.49842 -0.07300
C 	C 	0.56070 0.76388 0.48910 -0.02300
C 	C 	0.28625 0.83840 0.48186 -0.01600
C 	C 	0.33676 0.85761 0.53429 -0.02200
C 	C 	0.38207 0.83164 0.54424 -0.07300
C 	C 	0.37808 0.78706 0.50209 0.07800
C 	C 	0.32836 0.76891 0.44961 -0.07400
C 	C 	0.28223 0.79377 0.43956 -0.02100
H 	H 	0.34294 0.57516 0.55420 0.03100
H 	H 	0.41689 0.70483 0.57854 0.04600
H 	H 	0.34092 0.63891 0.41475 0.04700
H 	H 	0.26422 0.50977 0.38991 0.03200
H 	H 	0.56178 0.91179 0.47677 0.03000
H 	H 	0.47205 0.87416 0.49514 0.04800
H 	H 	0.49735 0.69600 0.50746 0.04700
H 	H 	0.58715 0.73458 0.48908 0.03100
H 	H 	0.34094 0.89266 0.56730 0.02900
H 	H 	0.42021 0.84590 0.58473 0.04600
H 	H 	0.32624 0.73664 0.41687 0.04700
H 	H 	0.24344 0.77848 0.39892 0.03300
Zn	Zn	0.18569 0.16478 0.00892 1.18700
Zn	Zn	0.07086 0.10708 0.89237 1.19500
O 	O 	0.06584 0.98943 0.80959 -0.49900
O 	O 	0.03710 0.07606 0.81521 -0.42900
O 	O 	0.06862 0.89837 0.88131 -0.50300
C 	C 	0.26534 0.13317 0.97605 0.30400
O 	O 	0.00496 0.00526 0.87208 -0.85100
C 	C 	0.19579 0.26696 0.96392 0.31400
O 	O 	0.26860 0.16390 0.01857 -0.46100
O 	O 	0.20411 0.09549 0.92887 -0.34800
O 	O 	0.08972 0.11698 0.96386 -0.78400
O 	O 	0.12584 0.99621 0.96183 -0.46400
O 	O 	0.14402 0.21016 0.91544 -0.44700
O 	O 	0.21225 0.25972 0.00702 -0.46000
Zn	Zn	0.87579 0.87895 0.89142 1.17300
Zn	Zn	0.00277 0.92238 0.99210 1.18900
Zn	Zn	0.02940 0.01507 0.94087 1.21900
C 	C 	0.87777 0.77159 0.93265 0.32100
C 	C 	0.83532 0.92503 0.95590 0.31200
O 	O 	0.93398 0.03795 0.92075 -0.45800
Zn	Zn	0.00372 0.05491 0.02926 1.20400
O 	O 	0.94737 0.81682 0.96848 -0.46900
O 	O 	0.84213 0.78327 0.89388 -0.46700
O 	O 	0.81663 0.90312 0.90688 -0.48700
O 	O 	0.89965 0.94539 0.99399 -0.47300
C 	C 	0.03704 0.99891 0.10297 0.32000
O 	O 	0.96868 0.91322 0.91800 -0.81000
C 	C 	0.92755 0.08279 0.95111 0.31900
O 	O 	0.03411 0.94718 0.06931 -0.43200
O 	O 	0.04153 0.05709 0.09787 -0.45600
O 	O 	0.95822 0.10070 0.00153 -0.49500
O 	O 	0.05319 0.02466 0.00932 -0.88500
Zn	Zn	0.02978 0.94355 0.84510 1.18200
C 	C 	0.04470 0.02779 0.78915 0.33700
C 	C 	0.12117 0.93912 0.93211 0.31600
H 	H 	0.10493 0.05199 0.03768 0.15800
H 	H 	0.95429 0.98762 0.84703 0.12900
Zn	Zn	0.13903 0.15534 0.49105 1.18700
Zn	Zn	0.02750 0.07851 0.36954 1.19900
O 	O 	0.03493 0.96037 0.29862 -0.47600
O 	O 	0.99990 0.04144 0.29379 -0.44400
O 	O 	0.02458 0.87121 0.36974 -0.49500
C 	C 	0.23144 0.13441 0.46965 0.30100
O 	O 	0.96256 0.97796 0.35221 -0.87900
C 	C 	0.13621 0.24235 0.43522 0.31400
O 	O 	0.23052 0.17223 0.50766 -0.46300
O 	O 	0.17110 0.08004 0.42433 -0.33100
O 	O 	0.04379 0.09432 0.44107 -0.77800
O 	O 	0.08458 0.97636 0.44642 -0.44600
O 	O 	0.10096 0.18041 0.39083 -0.45300
O 	O 	0.14935 0.24203 0.47995 -0.46100
Zn	Zn	0.83643 0.85776 0.37851 1.17400
Zn	Zn	0.96553 0.91106 0.48040 1.18400
Zn	Zn	0.98712 0.99392 0.42236 1.21000
C 	C 	0.84583 0.75712 0.42513 0.32300
C 	C 	0.79667 0.90684 0.44293 0.31600
O 	O 	0.88855 0.01243 0.39796 -0.45900
Zn	Zn	0.96188 0.04086 0.50983 1.20000
O 	O 	0.91430 0.80725 0.46249 -0.46700
O 	O 	0.80803 0.76489 0.38458 -0.46800
O 	O 	0.77604 0.88042 0.39335 -0.48700
O 	O 	0.86264 0.93149 0.48111 -0.48500
C 	C 	0.00762 0.00100 0.59249 0.34000
O 	O 	0.92921 0.89382 0.40419 -0.80300
C 	C 	0.88038 0.05790 0.42612 0.32400
O 	O 	0.00011 0.94439 0.55912 -0.43600
O 	O 	0.00487 0.05355 0.58152 -0.46800
O 	O 	0.91130 0.07977 0.47711 -0.49700
O 	O 	0.01274 0.01061 0.49219 -0.88700
Zn	Zn	0.98938 0.91484 0.32976 1.17900
C 	C 	0.01678 0.99748 0.27508 0.31600
C 	C 	0.07734 0.91490 0.42026 0.31200
H 	H 	0.06467 0.04003 0.52050 0.16000
H 	H 	0.91167 0.95887 0.32640 0.14500
C 	C 	0.03482 0.02055 0.73859 -0.11500
C 	C 	0.97832 0.02147 0.70043 0.14700
C 	C 	0.97059 0.01592 0.65312 -0.06100
C 	C 	0.01499 0.00341 0.64141 -0.08300
C 	C 	0.06832 0.99728 0.67782 0.11200
C 	C 	0.07984 0.00888 0.72714 -0.02700
H 	H 	0.92938 0.02053 0.62518 0.05800
H 	H 	0.12358 0.00837 0.75632 0.05700
O 	O 	0.93309 0.03231 0.71072 -0.19400
O 	O 	0.11386 0.98724 0.66752 -0.20400
C 	C 	0.87238 0.96292 0.68864 -0.02800
H 	H 	0.83645 0.97162 0.69741 0.02400
H 	H 	0.88675 0.92946 0.70677 0.00400
H 	H 	0.84201 0.93221 0.64450 0.02600
C 	C 	0.09089 0.91229 0.64880 -0.02100
H 	H 	0.09912 0.89721 0.68098 0.03000
H 	H 	0.12361 0.90308 0.63622 0.03400
H 	H 	0.03413 0.87514 0.61346 0.04500
C 	C 	0.02241 0.99546 0.23086 -0.11200
C 	C 	0.08967 0.02782 0.23983 0.15300
C 	C 	0.09402 0.02422 0.19689 -0.03800
C 	C 	0.03190 0.98988 0.14544 -0.10700
C 	C 	0.96467 0.95481 0.13622 0.13100
C 	C 	0.96035 0.95972 0.17921 -0.06200
H 	H 	0.14578 0.04979 0.20390 0.04800
H 	H 	0.90858 0.93507 0.17225 0.03700
O 	O 	0.15086 0.05806 0.28988 -0.19300
O 	O 	0.90317 0.92210 0.08584 -0.20200
C 	C 	0.18024 0.13422 0.31705 -0.02600
H 	H 	0.19737 0.16277 0.29682 0.03500
H 	H 	0.22841 0.15800 0.35760 0.04700
H 	H 	0.14257 0.14543 0.32186 0.04900
C 	C 	0.87645 0.84643 0.06010 -0.02100
H 	H 	0.91509 0.83708 0.05553 0.04400
H 	H 	0.82750 0.82041 0.01949 0.04500
H 	H 	0.86120 0.81846 0.08129 0.02900
C 	C 	0.20059 0.43978 0.46781 -0.07300
C 	C 	0.25013 0.45663 0.45533 0.03300
C 	C 	0.25684 0.40066 0.43127 -0.07400
C 	C 	0.21636 0.32919 0.42175 0.02200
C 	C 	0.16939 0.31337 0.43663 -0.10100
C 	C 	0.16078 0.36864 0.45883 0.02000
H 	H 	0.19414 0.48225 0.48559 0.04600
H 	H 	0.29480 0.41297 0.42139 0.04400
H 	H 	0.22370 0.28700 0.40485 0.02500
H 	H 	0.12438 0.35685 0.47019 0.02200
C 	C 	0.61954 0.84641 0.42321 -0.07400
C 	C 	0.63628 0.85012 0.47230 0.03200
C 	C 	0.70653 0.87602 0.51273 -0.07300
C 	C 	0.75931 0.89641 0.50374 0.01700
C 	C 	0.74228 0.89090 0.45404 -0.10400
C 	C 	0.67215 0.86661 0.41407 0.01900
H 	H 	0.56550 0.82678 0.39184 0.04400
H 	H 	0.72010 0.87969 0.55094 0.04200
H 	H 	0.81296 0.91502 0.53505 0.02700
H 	H 	0.65809 0.86241 0.37567 0.02600
C 	C 	0.19496 0.85257 0.48968 -0.07500
C 	C 	0.23796 0.86552 0.47114 0.03300
C 	C 	0.23219 0.90112 0.44004 -0.07500
C 	C 	0.18138 0.91988 0.42520 0.02100
C 	C 	0.13739 0.90545 0.44267 -0.11000
C 	C 	0.14511 0.87288 0.47569 0.02100
H 	H 	0.19878 0.82505 0.51364 0.04500
H 	H 	0.26595 0.91273 0.42636 0.04400
H 	H 	0.17507 0.94413 0.39908 0.02400
H 	H 	0.11087 0.86092 0.48896 0.00900
C 	C 	0.34932 0.45745 0.01875 -0.07000
C 	C 	0.31510 0.48218 0.98583 0.03100
C 	C 	0.24213 0.43473 0.94403 -0.07200
C 	C 	0.20338 0.36380 0.93605 0.02100
C 	C 	0.23721 0.33989 0.97002 -0.10100
C 	C 	0.31059 0.38676 0.01095 0.02400
H 	H 	0.40577 0.49329 0.05073 0.04300
H 	H 	0.21517 0.45327 0.91840 0.04600
H 	H 	0.14684 0.32818 0.90428 0.03000
H 	H 	0.33761 0.36849 0.03681 0.02600
C 	C 	0.74048 0.93471 0.02086 -0.06000
C 	C 	0.67561 0.86590 0.98549 0.02600
C 	C 	0.66288 0.81738 0.93982 -0.07100
C 	C 	0.71439 0.83737 0.92958 0.01700
C 	C 	0.77945 0.90591 0.96511 -0.09600
C 	C 	0.79220 0.95455 0.01073 0.00400
H 	H 	0.75082 0.97271 0.05615 0.04000
H 	H 	0.61337 0.76390 0.91254 0.04300
H 	H 	0.70430 0.79896 0.89459 0.02400
H 	H 	0.84222 0.00753 0.03843 0.04400
C 	C 	0.25886 0.90374 0.01342 -0.06400
C 	C 	0.28535 0.89427 0.98301 0.02800
C 	C 	0.26287 0.90699 0.93917 -0.07400
C 	C 	0.21120 0.92453 0.92388 0.02300
C 	C 	0.18211 0.93049 0.95267 -0.10900
C 	C 	0.20760 0.92216 0.99841 0.01000
H 	H 	0.27628 0.89460 0.04760 0.04200
H 	H 	0.28395 0.90119 0.91604 0.04300
H 	H 	0.19252 0.93182 0.88889 0.01700
H 	H 	0.18588 0.92721 0.02114 0.01200
C 	C 	0.80971 0.17198 0.39130 -0.08000
C 	C 	0.75062 0.14158 0.39306 0.04000
C 	C 	0.72335 0.07137 0.38890 -0.08300
C 	C 	0.76126 0.03749 0.39157 0.04800
C 	C 	0.82689 0.07399 0.39904 -0.12100
C 	C 	0.84804 0.13837 0.39460 0.02700
H 	H 	0.82956 0.22483 0.39226 0.04500
H 	H 	0.67641 0.04613 0.38846 0.05300
H 	H 	0.74313 0.98637 0.39297 0.00900
H 	H 	0.89759 0.16586 0.39863 0.00700
C 	C 	0.70976 0.59122 0.41299 -0.07500
C 	C 	0.75129 0.56534 0.43772 0.03400
C 	C 	0.82288 0.60031 0.45595 -0.07600
C 	C 	0.85327 0.66172 0.45045 0.02200
C 	C 	0.81228 0.68879 0.42674 -0.10500
C 	C 	0.74014 0.65281 0.40755 0.02100
H 	H 	0.65431 0.56423 0.39867 0.04400
H 	H 	0.85503 0.58007 0.47463 0.04400
H 	H 	0.90876 0.68849 0.46488 0.02600
H 	H 	0.70813 0.67357 0.38961 0.02700
C 	C 	0.39248 0.25246 0.47695 -0.07100
C 	C 	0.41702 0.20562 0.47122 0.03400
C 	C 	0.38265 0.13694 0.46794 -0.06900
C 	C 	0.32334 0.11471 0.46939 0.02100
C 	C 	0.29793 0.16085 0.47398 -0.09200
C 	C 	0.33322 0.23021 0.47846 0.01800
H 	H 	0.41904 0.30583 0.47987 0.04500
H 	H 	0.40158 0.10066 0.46389 0.04900
H 	H 	0.29732 0.06183 0.46707 0.03200
H 	H 	0.31362 0.26601 0.48172 0.02700
C 	C 	0.77370 0.10292 0.91726 -0.07200
C 	C 	0.79936 0.17019 0.91688 0.03500
C 	C 	0.85805 0.19794 0.91440 -0.07500
C 	C 	0.89619 0.16386 0.91943 0.02200
C 	C 	0.87553 0.10179 0.92664 -0.11000
C 	C 	0.81164 0.06883 0.92207 0.02500
H 	H 	0.72755 0.08009 0.91804 0.05000
H 	H 	0.87706 0.24871 0.91245 0.04400
H 	H 	0.94470 0.18886 0.92177 0.00900
H 	H 	0.79433 0.01994 0.92636 0.03300
C 	C 	0.84169 0.60490 0.95235 -0.07600
C 	C 	0.77471 0.58026 0.94278 0.03500
C 	C 	0.73998 0.61633 0.92728 -0.07700
C 	C 	0.77268 0.67756 0.92221 0.02000
C 	C 	0.84047 0.70323 0.93290 -0.10600
C 	C 	0.87451 0.66618 0.94751 0.02300
H 	H 	0.86862 0.57699 0.96411 0.04600
H 	H 	0.68822 0.59754 0.91986 0.04500
H 	H 	0.74627 0.70623 0.91145 0.02400
H 	H 	0.92660 0.68519 0.95549 0.02600
C 	C 	0.45731 0.23718 0.02416 -0.06800
C 	C 	0.45326 0.19543 0.98086 0.03100
C 	C 	0.38913 0.12888 0.93871 -0.07000
C 	C 	0.32841 0.10644 0.93840 0.02100
C 	C 	0.33140 0.15035 0.98034 -0.09500
C 	C 	0.39679 0.21467 0.02403 0.02200
H 	H 	0.50674 0.28849 0.05702 0.04400
H 	H 	0.38583 0.09567 0.90551 0.04800
H 	H 	0.27864 0.05613 0.90483 0.03500
H 	H 	0.40011 0.24890 0.05683 0.02900
