data_crystal

_cell_length_a 14.81058
_cell_length_b 15.14297
_cell_length_c 17.66560
_cell_angle_alpha 95.39609
_cell_angle_beta  95.39694
_cell_angle_gamma 126.70981

_symmetry_space_group_name_	'P 1'
_symmetry_space_group_name_H-M	'P 1'

loop_
_symmetry_equiv_pos_as_xyz
  x,y,z

loop_
_atom_site_label
_atom_site_type_symbol
_atom_site_fract_x
_atom_site_fract_y
_atom_site_fract_z
_atom_site_charge
N 	N 	0.01514 0.07058 0.98165 -0.11500
C 	C 	0.07351 0.02865 0.99631 0.14700
N 	N 	0.02715 0.93007 0.43140 -0.10400
C 	C 	0.09207 0.04361 0.44387 0.09900
N 	N 	0.04204 0.09397 0.45470 -0.11400
O 	O 	0.44705 0.24714 0.02987 -0.40800
C 	C 	0.38224 0.25174 0.97574 0.32200
O 	O 	0.42727 0.32101 0.92671 -0.39200
H 	H 	0.51970 0.18732 0.88886 0.16100
O 	O 	0.45507 0.11819 0.51631 -0.36900
C 	C 	0.40099 0.14565 0.47344 0.31000
O 	O 	0.45805 0.24701 0.45792 -0.40500
C 	C 	0.27468 0.07097 0.45660 -0.16400
C 	C 	0.21679 0.11290 0.44617 -0.00400
H 	H 	0.22909 0.98308 0.46014 0.10700
H 	H 	0.26318 0.20163 0.44505 0.04400
C 	C 	0.20016 0.10194 0.00982 -0.09300
C 	C 	0.26002 0.19443 0.97874 -0.07600
H 	H 	0.24391 0.07320 0.03846 0.05400
H 	H 	0.21591 0.22129 0.94789 0.07600
C 	C 	0.89840 0.00152 0.96988 0.07300
C 	C 	0.89869 0.84925 0.98713 0.10100
C 	C 	0.92805 0.03153 0.45533 0.06400
N 	N 	0.86326 0.91769 0.44360 -0.11800
C 	C 	0.91323 0.86689 0.43204 0.09100
Cu	Cu	0.75521 0.33360 0.90807 0.93100
Cu	Cu	0.69584 0.17885 0.03870 0.85100
Cu	Cu	0.60123 0.29264 0.02701 0.87700
Cu	Cu	0.57038 0.37618 0.88809 0.89900
C 	C 	0.66102 0.33441 0.75929 0.19500
O 	O 	0.84636 0.50377 0.92943 -0.36100
C 	C 	0.67421 0.26775 0.18033 0.19200
O 	O 	0.58275 0.26541 0.91509 -0.62800
O 	O 	0.75229 0.32655 0.01887 -0.65700
O 	O 	0.82596 0.25627 0.88997 -0.35900
O 	O 	0.69033 0.11182 0.94117 -0.43100
O 	O 	0.64218 0.40090 0.79488 -0.35500
C 	C 	0.81313 0.55401 0.96953 0.30200
O 	O 	0.70850 0.49483 0.98346 -0.39300
O 	O 	0.72621 0.31404 0.79695 -0.32000
C 	C 	0.78389 0.16041 0.91205 0.31200
O 	O 	0.62326 0.30232 0.14104 -0.34500
O 	O 	0.72482 0.23155 0.14619 -0.40000
H 	H 	0.81818 0.39182 0.05699 0.17200
Cu	Cu	0.62877 0.20855 0.53393 0.92600
Cu	Cu	0.77533 0.25359 0.39646 0.86200
Cu	Cu	0.66297 0.35226 0.41119 0.88600
Cu	Cu	0.58140 0.38581 0.55078 0.89700
C 	C 	0.63129 0.30493 0.68220 0.19500
C 	C 	0.67992 0.27326 0.25678 0.19000
O 	O 	0.69532 0.37520 0.52314 -0.63900
O 	O 	0.62916 0.20526 0.42198 -0.64100
O 	O 	0.70833 0.14015 0.55257 -0.36400
O 	O 	0.85033 0.26284 0.49258 -0.44400
O 	O 	0.56134 0.32082 0.64625 -0.35500
O 	O 	0.70827 0.50222 0.40617 -0.38600
C 	C 	0.69877 0.56483 0.45748 0.30600
O 	O 	0.63127 0.52175 0.50854 -0.39500
O 	O 	0.65418 0.24264 0.64505 -0.32100
C 	C 	0.80170 0.17486 0.52560 0.31400
O 	O 	0.64911 0.32710 0.29669 -0.34200
O 	O 	0.71206 0.21957 0.29031 -0.39500
H 	H 	0.77534 0.43840 0.54802 0.15800
H 	H 	0.55987 0.13964 0.38619 0.17700
C 	C 	0.74927 0.68142 0.44995 -0.13200
C 	C 	0.84522 0.74355 0.42081 -0.01300
H 	H 	0.71514 0.72055 0.47678 0.08400
H 	H 	0.88110 0.70493 0.39611 0.03900
C 	C 	0.87284 0.08631 0.45678 -0.00500
C 	C 	0.84102 0.10519 0.52143 -0.15500
H 	H 	0.86861 0.12154 0.40695 0.00300
H 	H 	0.84154 0.06714 0.57049 0.08000
C 	C 	0.88358 0.67744 0.98300 -0.13000
C 	C 	0.83432 0.72861 0.98887 -0.01500
H 	H 	0.97413 0.72582 0.98043 0.07800
H 	H 	0.74303 0.67927 0.98926 0.04900
C 	C 	0.83476 0.04806 0.96571 -0.01000
C 	C 	0.85274 0.11889 0.91760 -0.14800
H 	H 	0.76631 0.01751 0.99864 0.02500
H 	H 	0.92063 0.14903 0.88418 0.07900
N 	N 	0.01500 0.91841 0.99966 -0.10700
N 	N 	0.84084 0.89133 0.97339 -0.12000
