data_crystal

_cell_length_a 29.32610
_cell_length_b 30.83049
_cell_length_c 34.13761
_cell_angle_alpha 89.94308
_cell_angle_beta  89.93704
_cell_angle_gamma 90.77977

_symmetry_space_group_name_	'P 1'
_symmetry_space_group_name_H-M	'P 1'

loop_
_symmetry_equiv_pos_as_xyz
  x,y,z

loop_
_atom_site_label
_atom_site_type_symbol
_atom_site_fract_x
_atom_site_fract_y
_atom_site_fract_z
_atom_site_charge
Zn	Zn	0.51193 0.48270 0.00791 1.22100
C 	C 	0.56968 0.40918 0.01209 0.35000
O 	O 	0.55002 0.52476 0.97818 -0.47600
O 	O 	0.54948 0.39776 0.97911 -0.46500
O 	O 	0.59257 0.47641 0.94465 -0.50000
C 	C 	0.44980 0.42828 0.96604 0.37000
O 	O 	0.46730 0.43563 0.00076 -0.45200
O 	O 	0.47171 0.44200 0.93480 -0.52000
C 	C 	0.58907 0.51385 0.96236 0.33800
O 	O 	0.45016 0.52948 0.00279 -0.33200
Zn	Zn	0.53852 0.44113 0.93388 1.16800
O 	O 	0.56078 0.44677 0.02838 -0.44300
C 	C 	0.45911 0.54032 0.03871 0.29900
O 	O 	0.49301 0.52022 0.05455 -0.38400
Zn	Zn	0.26589 0.20288 0.99522 1.21700
C 	C 	0.27491 0.19406 0.07870 0.33800
O 	O 	0.20014 0.20760 0.98571 -0.48400
O 	O 	0.27359 0.23665 0.08072 -0.44700
O 	O 	0.18101 0.23179 0.04606 -0.49300
C 	C 	0.31842 0.28069 0.00539 0.38400
O 	O 	0.31963 0.23827 0.00640 -0.46700
O 	O 	0.27964 0.30045 0.01161 -0.50900
C 	C 	0.17159 0.20807 0.01520 0.34400
O 	O 	0.28006 0.21603 0.92810 -0.33100
Zn	Zn	0.23221 0.27325 0.04497 1.16900
O 	O 	0.26345 0.17375 0.04623 -0.43600
C 	C 	0.28752 0.17474 0.92628 0.29900
O 	O 	0.28383 0.15361 0.95891 -0.38500
C 	C 	0.48718 0.97676 0.63318 0.13800
C 	C 	0.51888 0.95161 0.65352 -0.11300
H 	H 	0.54336 0.93252 0.63740 0.07400
C 	C 	0.51903 0.95142 0.69451 0.07500
C 	C 	0.48747 0.97618 0.71518 -0.10900
C 	C 	0.45587 0.00140 0.69501 0.08100
C 	C 	0.45563 0.00169 0.65397 -0.10500
H 	H 	0.43132 0.02132 0.63821 0.07500
N 	N 	0.48748 0.97739 0.59111 -0.18200
C 	C 	0.46196 0.94725 0.57091 0.18900
C 	C 	0.46383 0.94578 0.52973 -0.05900
C 	C 	0.49178 0.97575 0.50960 0.02400
C 	C 	0.51716 0.00685 0.53067 -0.05200
C 	C 	0.51439 0.00729 0.57183 0.19600
C 	C 	0.43846 0.91469 0.50847 -0.01300
C 	C 	0.44105 0.91353 0.46758 -0.01300
C 	C 	0.46899 0.94349 0.44727 -0.05900
C 	C 	0.49438 0.97458 0.46835 0.02500
C 	C 	0.52233 0.00455 0.44822 -0.05300
C 	C 	0.54512 0.03680 0.51036 -0.01200
C 	C 	0.54771 0.03563 0.46948 -0.01200
C 	C 	0.47175 0.94307 0.40611 0.18900
N 	N 	0.49864 0.97298 0.38683 -0.18500
C 	C 	0.52419 0.00310 0.40705 0.19600
C 	C 	0.49889 0.97370 0.34477 0.15600
C 	C 	0.53085 0.94932 0.32393 -0.12100
C 	C 	0.53124 0.95041 0.28290 0.08200
C 	C 	0.49971 0.97579 0.26275 -0.11900
C 	C 	0.46782 0.00015 0.28352 0.10200
C 	C 	0.46738 0.99909 0.32451 -0.14200
O 	O 	0.53801 0.03631 0.59197 -0.19800
O 	O 	0.43586 0.91934 0.59017 -0.20000
O 	O 	0.44812 0.91407 0.38596 -0.20200
O 	O 	0.55029 0.03101 0.38779 -0.19700
H 	H 	0.44281 0.01801 0.34069 0.08600
H 	H 	0.55522 0.92973 0.33965 0.07600
H 	H 	0.56493 0.06100 0.52613 0.05200
H 	H 	0.56944 0.05899 0.45445 0.05200
H 	H 	0.41674 0.89134 0.52350 0.05100
H 	H 	0.42124 0.88933 0.45182 0.05000
H 	H 	0.50007 0.97669 0.23097 0.06300
H 	H 	0.48773 0.97611 0.74698 0.06100
Zn	Zn	0.74269 0.76705 0.98641 1.21700
C 	C 	0.73323 0.77497 0.07016 0.33800
O 	O 	0.80850 0.77026 0.97610 -0.48500
O 	O 	0.74053 0.73305 0.07248 -0.44700
O 	O 	0.83169 0.74837 0.03611 -0.49300
C 	C 	0.70045 0.68366 0.99672 0.35800
O 	O 	0.69391 0.72558 0.99744 -0.47000
O 	O 	0.74117 0.66835 0.00431 -0.49900
C 	C 	0.83761 0.77293 0.00506 0.34600
O 	O 	0.72983 0.75273 0.91935 -0.32900
Zn	Zn	0.78555 0.70169 0.03603 1.16900
O 	O 	0.74154 0.79627 0.03747 -0.43700
C 	C 	0.71700 0.79275 0.91774 0.29900
O 	O 	0.71803 0.81385 0.95046 -0.38700
Zn	Zn	0.27196 0.74584 0.99960 1.22000
C 	C 	0.26168 0.73607 0.08329 0.33700
O 	O 	0.24530 0.80096 0.01403 -0.45400
O 	O 	0.28441 0.77270 0.08778 -0.45000
O 	O 	0.31369 0.83499 0.02405 -0.50500
C 	C 	0.35869 0.70873 0.01311 0.39200
O 	O 	0.33191 0.72460 0.98615 -0.50100
O 	O 	0.36234 0.72826 0.04711 -0.50400
C 	C 	0.26992 0.83673 0.01614 0.34200
O 	O 	0.26337 0.76346 0.93243 -0.32500
Zn	Zn	0.34050 0.78724 0.05362 1.17200
O 	O 	0.26292 0.71522 0.04974 -0.43600
C 	C 	0.23034 0.73506 0.93316 0.29700
O 	O 	0.22332 0.71599 0.96640 -0.38800
C 	C 	0.00392 0.54915 0.64388 0.14000
C 	C 	0.03222 0.57734 0.66550 -0.11100
H 	H 	0.05498 0.59974 0.65036 0.07400
C 	C 	0.03131 0.57616 0.70655 0.07300
C 	C 	0.00207 0.54695 0.72593 -0.10400
C 	C 	0.97395 0.51868 0.70445 0.07800
C 	C 	0.97475 0.51985 0.66343 -0.10700
H 	H 	0.95318 0.49788 0.64670 0.07400
N 	N 	0.00546 0.54964 0.60177 -0.18100
C 	C 	0.03434 0.52219 0.58252 0.18900
C 	C 	0.03504 0.52095 0.54128 -0.05900
C 	C 	0.00615 0.54835 0.52010 0.02600
C 	C 	0.97717 0.57665 0.54019 -0.05400
C 	C 	0.97736 0.57689 0.58146 0.19400
C 	C 	0.06400 0.49264 0.52100 -0.01300
C 	C 	0.06401 0.49167 0.48003 -0.01300
C 	C 	0.03511 0.51905 0.45865 -0.05900
C 	C 	0.00621 0.54742 0.47874 0.02600
C 	C 	0.97735 0.57485 0.45755 -0.05500
C 	C 	0.94834 0.60409 0.51881 -0.01300
C 	C 	0.94842 0.60319 0.47784 -0.01200
C 	C 	0.03475 0.51863 0.41740 0.18900
N 	N 	0.00664 0.54586 0.39707 -0.18100
C 	C 	0.97801 0.57356 0.41631 0.19400
C 	C 	0.00780 0.54591 0.35495 0.13900
C 	C 	0.03928 0.57260 0.33499 -0.11200
C 	C 	0.04091 0.57214 0.29398 0.07300
C 	C 	0.01100 0.54520 0.27292 -0.10500
C 	C 	0.97963 0.51845 0.29270 0.07800
C 	C 	0.97795 0.51879 0.33374 -0.10600
O 	O 	0.95025 0.60321 0.60068 -0.19800
O 	O 	0.06137 0.49672 0.60274 -0.20000
O 	O 	0.06161 0.49206 0.39820 -0.20000
O 	O 	0.95118 0.59920 0.39607 -0.19900
H 	H 	0.95384 0.49799 0.34918 0.07500
H 	H 	0.06247 0.59335 0.35141 0.07300
H 	H 	0.92578 0.62614 0.53381 0.05200
H 	H 	0.92595 0.62457 0.46199 0.05100
H 	H 	0.08651 0.47128 0.53684 0.05100
H 	H 	0.08655 0.46961 0.46504 0.05100
H 	H 	0.01241 0.54478 0.24115 0.06000
H 	H 	0.00159 0.54587 0.75771 0.06100
Zn	Zn	0.81081 0.28945 0.99749 1.22000
C 	C 	0.81369 0.30149 0.91388 0.33800
O 	O 	0.74734 0.30375 0.98664 -0.46500
O 	O 	0.77890 0.27435 0.91131 -0.45000
O 	O 	0.72327 0.23406 0.97774 -0.51300
C 	C 	0.86213 0.21212 0.98227 0.38100
O 	O 	0.84716 0.23884 0.00913 -0.47600
O 	O 	0.83996 0.20732 0.94914 -0.50900
C 	C 	0.71478 0.27417 0.98777 0.35100
O 	O 	0.79522 0.29268 0.06546 -0.32200
Zn	Zn	0.77533 0.21889 0.94530 1.17200
O 	O 	0.83742 0.30432 0.94640 -0.44300
C 	C 	0.81748 0.32929 0.06429 0.29600
O 	O 	0.83356 0.34036 0.03038 -0.37900
Zn	Zn	0.01399 0.98750 0.02232 1.21400
C 	C 	0.09777 0.94157 0.01612 0.35700
O 	O 	0.97037 0.94504 0.04526 -0.46800
O 	O 	0.10606 0.95561 0.05191 -0.45900
O 	O 	0.02283 0.90751 0.08011 -0.50700
C 	C 	0.06317 0.04832 0.07053 0.38700
O 	O 	0.05851 0.03311 0.03490 -0.46500
O 	O 	0.05441 0.02295 0.10051 -0.51800
C 	C 	0.98341 0.90895 0.06214 0.34600
O 	O 	0.95871 0.04113 0.02827 -0.32600
Zn	Zn	0.05634 0.96000 0.09465 1.16600
O 	O 	0.05738 0.94670 0.00025 -0.44900
C 	C 	0.95511 0.03864 0.99046 0.28700
O 	O 	0.98024 0.00958 0.97400 -0.38000
C 	C 	0.89892 0.18846 0.98974 -0.22000
C 	C 	0.90899 0.14890 0.96700 0.03100
C 	C 	0.93351 0.11580 0.98467 -0.02300
C 	C 	0.93601 0.07459 0.96781 -0.12400
H 	H 	0.94856 0.12144 0.01336 0.05800
H 	H 	0.91834 0.19503 0.01627 0.10700
H 	H 	0.92428 0.06903 0.93803 0.07100
H 	H 	0.89416 0.14410 0.93811 0.02900
C 	C 	0.85524 0.37562 0.82112 -0.01300
C 	C 	0.84067 0.41857 0.81774 -0.02600
C 	C 	0.86117 0.44645 0.79037 -0.04700
C 	C 	0.89635 0.43149 0.76627 0.02100
C 	C 	0.90941 0.38799 0.76838 -0.04600
C 	C 	0.88890 0.36011 0.79575 -0.02500
C 	C 	0.83927 0.34901 0.85314 0.05400
C 	C 	0.82699 0.32712 0.88058 -0.11700
C 	C 	0.92257 0.46181 0.74301 -0.00400
C 	C 	0.94549 0.48754 0.72473 -0.03200
H 	H 	0.81456 0.43077 0.83716 0.03800
H 	H 	0.85081 0.48002 0.78886 0.04400
H 	H 	0.93651 0.37615 0.74979 0.04700
H 	H 	0.90024 0.32689 0.79808 0.04000
C 	C 	0.89990 0.43999 0.22421 0.01900
C 	C 	0.86584 0.45858 0.20107 -0.04400
C 	C 	0.84580 0.43476 0.17062 -0.02900
C 	C 	0.85971 0.39223 0.16318 -0.00500
C 	C 	0.89214 0.37293 0.18752 -0.02800
C 	C 	0.91219 0.39676 0.21797 -0.04400
C 	C 	0.92652 0.46689 0.25027 -0.00400
C 	C 	0.95003 0.49003 0.27058 -0.03300
C 	C 	0.84381 0.36987 0.12867 0.04500
C 	C 	0.83138 0.35132 0.09940 -0.09200
H 	H 	0.85612 0.49197 0.20572 0.04300
H 	H 	0.82056 0.44982 0.15207 0.04000
H 	H 	0.90288 0.33998 0.18210 0.04300
H 	H 	0.93847 0.38213 0.23573 0.04600
C 	C 	0.24743 0.87895 0.01435 -0.14000
C 	C 	0.20735 0.88296 0.99591 -0.01600
C 	C 	0.17635 0.91841 0.00634 0.04700
C 	C 	0.13255 0.91678 0.99509 -0.18800
H 	H 	0.18781 0.94321 0.02689 0.03000
H 	H 	0.26154 0.90595 0.03106 0.07100
H 	H 	0.12173 0.89412 0.97245 0.08900
H 	H 	0.19515 0.85711 0.97674 0.04600
C 	C 	0.11413 0.65167 0.77520 0.01900
C 	C 	0.09528 0.68568 0.79681 -0.04500
C 	C 	0.12058 0.70570 0.82662 -0.02800
C 	C 	0.16484 0.69179 0.83495 -0.00600
C 	C 	0.18442 0.65912 0.81218 -0.02800
C 	C 	0.15912 0.63910 0.78237 -0.04400
C 	C 	0.08563 0.62624 0.74937 -0.00500
C 	C 	0.06120 0.60397 0.72905 -0.03300
C 	C 	0.18841 0.70809 0.86903 0.04500
C 	C 	0.20774 0.72085 0.89807 -0.09500
H 	H 	0.06054 0.69562 0.79143 0.04400
H 	H 	0.10526 0.73105 0.84400 0.04000
H 	H 	0.21869 0.64831 0.81833 0.04100
H 	H 	0.17396 0.61286 0.76578 0.04500
C 	C 	0.13226 0.64412 0.23022 0.02000
C 	C 	0.17477 0.62668 0.22074 -0.04600
C 	C 	0.20251 0.64697 0.19265 -0.02600
C 	C 	0.18786 0.68477 0.17392 -0.01300
C 	C 	0.14614 0.70310 0.18446 -0.02700
C 	C 	0.11839 0.68282 0.21255 -0.04700
C 	C 	0.10080 0.61975 0.25435 -0.00700
C 	C 	0.07384 0.59853 0.27324 -0.03400
C 	C 	0.21423 0.70317 0.14225 0.05400
C 	C 	0.23600 0.71827 0.11542 -0.11500
H 	H 	0.18571 0.59676 0.23425 0.04500
H 	H 	0.23484 0.63272 0.18479 0.04000
H 	H 	0.13469 0.73245 0.17023 0.03600
H 	H 	0.08556 0.69648 0.21969 0.04200
C 	C 	0.87550 0.80501 0.00307 -0.14900
C 	C 	0.89478 0.82145 0.03567 0.01100
C 	C 	0.92667 0.85922 0.03321 0.01700
C 	C 	0.95200 0.87117 0.06425 -0.15900
H 	H 	0.92947 0.87735 0.00593 0.04000
H 	H 	0.88480 0.81844 0.97466 0.07500
H 	H 	0.95133 0.85160 0.09075 0.07500
H 	H 	0.88574 0.80818 0.06422 0.03900
C 	C 	0.65883 0.84339 0.81984 -0.00700
C 	C 	0.67119 0.88505 0.80689 -0.02900
C 	C 	0.64648 0.90480 0.77694 -0.04500
C 	C 	0.60929 0.88296 0.75988 0.01900
C 	C 	0.59844 0.84043 0.77145 -0.04500
C 	C 	0.62317 0.82067 0.80138 -0.02800
C 	C 	0.68005 0.82549 0.85406 0.04600
C 	C 	0.69716 0.81061 0.88308 -0.09700
C 	C 	0.57856 0.90620 0.73499 -0.00500
C 	C 	0.55188 0.92640 0.71566 -0.03500
H 	H 	0.69896 0.90268 0.82085 0.04000
H 	H 	0.65512 0.93767 0.76809 0.04300
H 	H 	0.56978 0.82331 0.75834 0.04500
H 	H 	0.61365 0.78831 0.81107 0.04100
C 	C 	0.62126 0.88136 0.21745 0.01900
C 	C 	0.65435 0.90362 0.19528 -0.04600
C 	C 	0.67988 0.88145 0.16727 -0.02700
C 	C 	0.67241 0.83695 0.16135 -0.01200
C 	C 	0.64060 0.81437 0.18459 -0.02700
C 	C 	0.61505 0.83654 0.21259 -0.04600
C 	C 	0.59046 0.90518 0.24191 -0.00500
C 	C 	0.56387 0.92554 0.26126 -0.03800
C 	C 	0.69476 0.81519 0.12954 0.05400
C 	C 	0.71270 0.79692 0.10254 -0.11400
H 	H 	0.65936 0.93827 0.19890 0.04400
H 	H 	0.70456 0.89908 0.14951 0.04000
H 	H 	0.63478 0.77992 0.18028 0.03900
H 	H 	0.58955 0.81911 0.22964 0.04400
C 	C 	0.07944 0.08872 0.07643 -0.20200
C 	C 	0.08857 0.11868 0.04315 0.02500
C 	C 	0.12034 0.15284 0.04681 0.00200
C 	C 	0.13095 0.17946 0.01465 -0.14300
H 	H 	0.13868 0.15723 0.07422 0.04200
H 	H 	0.08620 0.09974 0.10613 0.09100
H 	H 	0.11312 0.17463 0.98706 0.07200
H 	H 	0.07113 0.11346 0.01540 0.04300
C 	C 	0.33105 0.11728 0.82574 -0.00600
C 	C 	0.36250 0.13918 0.80164 -0.02800
C 	C 	0.38291 0.11752 0.77037 -0.04400
C 	C 	0.37195 0.07388 0.76309 0.02000
C 	C 	0.33858 0.05275 0.78585 -0.04400
C 	C 	0.31819 0.07440 0.81713 -0.02700
C 	C 	0.31499 0.13749 0.86102 0.04700
C 	C 	0.30223 0.15439 0.89081 -0.09500
C 	C 	0.39987 0.04910 0.73693 -0.00300
C 	C 	0.42465 0.02772 0.71675 -0.03300
H 	H 	0.37231 0.17247 0.80792 0.04000
H 	H 	0.40861 0.13411 0.75287 0.04500
H 	H 	0.32987 0.01903 0.78037 0.04700
H 	H 	0.29360 0.05738 0.83545 0.04400
C 	C 	0.33064 0.12499 0.16798 -0.01100
C 	C 	0.36220 0.14508 0.19312 -0.02600
C 	C 	0.38696 0.12019 0.21969 -0.04400
C 	C 	0.38023 0.07513 0.22121 0.01800
C 	C 	0.34728 0.05530 0.19725 -0.04500
C 	C 	0.32252 0.08019 0.17067 -0.02700
C 	C 	0.30991 0.14955 0.13709 0.05500
C 	C 	0.29347 0.16995 0.11066 -0.11300
C 	C 	0.41023 0.04889 0.24426 0.00100
C 	C 	0.43612 0.02675 0.26264 -0.04200
H 	H 	0.36854 0.17973 0.19128 0.04100
H 	H 	0.41231 0.13575 0.23821 0.04600
H 	H 	0.34182 0.02048 0.19835 0.04300
H 	H 	0.29805 0.06446 0.15141 0.03900
C 	C 	0.41093 0.40523 0.96221 -0.19500
C 	C 	0.39694 0.37289 0.99234 0.00300
C 	C 	0.35876 0.34881 0.98774 0.01000
C 	C 	0.35754 0.30333 0.00181 -0.19400
H 	H 	0.33204 0.35994 0.96824 0.03400
H 	H 	0.39372 0.40485 0.93400 0.08800
H 	H 	0.38963 0.28626 0.00443 0.09800
H 	H 	0.42146 0.36364 0.01464 0.05200
C 	C 	0.44175 0.58094 0.05512 -0.13100
C 	C 	0.40767 0.60312 0.03512 -0.00500
C 	C 	0.40412 0.64807 0.03769 0.03000
C 	C 	0.38021 0.67164 0.00628 -0.20300
H 	H 	0.42169 0.66587 0.06080 0.03200
H 	H 	0.45931 0.59610 0.07967 0.07600
H 	H 	0.37655 0.65632 0.97774 0.09200
H 	H 	0.38751 0.58591 0.01321 0.05200
C 	C 	0.60647 0.38243 0.02796 -0.16200
C 	C 	0.61294 0.34211 0.01455 0.02200
C 	C 	0.65850 0.32253 0.01643 0.02600
C 	C 	0.66754 0.28695 0.99542 -0.17500
H 	H 	0.68591 0.33949 0.03180 0.04000
H 	H 	0.63157 0.39745 0.04724 0.08600
H 	H 	0.63987 0.26835 0.98213 0.07600
H 	H 	0.58614 0.32584 0.99787 0.02800
C 	C 	0.66308 0.65576 0.99047 -0.18200
C 	C 	0.66785 0.61094 0.98538 0.01500
C 	C 	0.62668 0.58283 0.98104 0.00800
C 	C 	0.62953 0.54299 0.96529 -0.15900
H 	H 	0.59381 0.59506 0.99039 0.04100
H 	H 	0.62925 0.66963 0.98861 0.09000
H 	H 	0.66222 0.53148 0.95481 0.07700
H 	H 	0.70155 0.59672 0.98413 0.03200
