data_crystal

_cell_length_a 26.15581
_cell_length_b 26.36287
_cell_length_c 35.02746
_cell_angle_alpha 95.53675
_cell_angle_beta  95.53628
_cell_angle_gamma 125.69146

_symmetry_space_group_name_	'P 1'
_symmetry_space_group_name_H-M	'P 1'

loop_
_symmetry_equiv_pos_as_xyz
  x,y,z

loop_
_atom_site_label
_atom_site_type_symbol
_atom_site_fract_x
_atom_site_fract_y
_atom_site_fract_z
_atom_site_charge
C 	C 	0.98826 0.04341 0.98849 0.03100
C 	C 	0.05375 0.07498 0.98791 -0.07200
C 	C 	0.07894 0.04042 0.98473 0.03000
C 	C 	0.03876 0.97445 0.98281 -0.07300
C 	C 	0.97332 0.94271 0.98310 0.03000
C 	C 	0.94808 0.97718 0.98577 -0.07200
H 	H 	0.08481 0.12606 0.98959 0.05400
H 	H 	0.05840 0.94786 0.98108 0.05500
H 	H 	0.89724 0.95247 0.98531 0.05400
C 	C 	0.91166 0.99042 0.46824 0.01800
C 	C 	0.97740 0.02744 0.46753 -0.05600
C 	C 	0.00863 0.99891 0.46465 0.01600
C 	C 	0.97401 0.93313 0.46232 -0.06200
C 	C 	0.90849 0.89581 0.46378 0.02300
C 	C 	0.87706 0.92446 0.46640 -0.06400
H 	H 	0.00426 0.07843 0.46945 0.05000
H 	H 	0.99810 0.91099 0.45954 0.05300
H 	H 	0.82634 0.89581 0.46735 0.05200
Cu	Cu	0.66431 0.25722 0.00008 0.93100
Cu	Cu	0.72436 0.27633 0.92060 0.87200
Cu	Cu	0.68310 0.34974 0.94775 0.89900
Cu	Cu	0.65757 0.37019 0.02617 0.90000
C 	C 	0.67596 0.29928 0.08163 0.33900
O 	O 	0.56965 0.21474 0.99942 -0.34000
C 	C 	0.66710 0.31127 0.86365 0.33000
O 	O 	0.70965 0.35488 0.00212 -0.64300
O 	O 	0.65341 0.26068 0.94417 -0.64100
O 	O 	0.71075 0.21854 0.99817 -0.35300
O 	O 	0.78142 0.29341 0.96614 -0.42800
O 	O 	0.64856 0.32634 0.07131 -0.37000
O 	O 	0.71873 0.43863 0.95153 -0.36700
C 	C 	0.72503 0.47652 0.98224 0.29200
C 	C 	0.54164 0.23956 0.98613 0.28300
O 	O 	0.57671 0.29862 0.98086 -0.38600
O 	O 	0.69237 0.45363 0.01052 -0.38600
O 	O 	0.68779 0.26964 0.05547 -0.34800
C 	C 	0.76580 0.24835 0.98618 0.28900
O 	O 	0.65536 0.33824 0.89185 -0.35900
O 	O 	0.68634 0.27587 0.87059 -0.39500
H 	H 	0.75634 0.38562 0.01228 0.17500
H 	H 	0.61022 0.22874 0.92800 0.19100
Cu	Cu	0.70269 0.31713 0.44602 0.92600
Cu	Cu	0.72849 0.30140 0.53611 0.89200
Cu	Cu	0.60766 0.29845 0.49787 0.91300
Cu	Cu	0.57843 0.30726 0.41409 0.90100
C 	C 	0.65991 0.29808 0.36339 0.33500
O 	O 	0.74235 0.40835 0.43937 -0.34800
C 	C 	0.63868 0.29998 0.57712 0.33500
O 	O 	0.60341 0.26800 0.44487 -0.63700
O 	O 	0.70123 0.33891 0.50161 -0.62900
O 	O 	0.73979 0.26850 0.45001 -0.35500
O 	O 	0.79650 0.31731 0.51196 -0.40400
O 	O 	0.60558 0.29006 0.36611 -0.36600
O 	O 	0.51619 0.25240 0.49345 -0.36000
C 	C 	0.47795 0.24589 0.46273 0.28300
C 	C 	0.71170 0.43350 0.44408 0.28500
O 	O 	0.65306 0.39871 0.45069 -0.38500
O 	O 	0.50139 0.28288 0.43661 -0.38100
O 	O 	0.68892 0.28788 0.39122 -0.34600
C 	C 	0.78381 0.28066 0.47893 0.28100
O 	O 	0.61749 0.32219 0.55351 -0.35900
O 	O 	0.65613 0.26555 0.56266 -0.40700
H 	H 	0.57619 0.22105 0.43749 0.17200
H 	H 	0.72720 0.38543 0.51094 0.17100
C 	C 	0.64054 0.31115 0.61962 -0.12700
C 	C 	0.58549 0.29633 0.63394 0.12900
C 	C 	0.58713 0.30397 0.67448 0.06500
C 	C 	0.64065 0.31893 0.70044 0.01800
C 	C 	0.69544 0.33350 0.68617 0.06400
C 	C 	0.69674 0.33359 0.64616 0.12700
C 	C 	0.63833 0.31664 0.74242 0.01700
C 	C 	0.67085 0.37349 0.77015 0.06700
C 	C 	0.67929 0.37217 0.81026 0.12300
C 	C 	0.64993 0.31330 0.82271 -0.11700
C 	C 	0.60948 0.25622 0.79502 0.12600
C 	C 	0.60686 0.25781 0.75493 0.06400
Br	Br	0.76771 0.35087 0.72122 -0.17000
Br	Br	0.50650 0.26088 0.59840 -0.19200
Br	Br	0.73439 0.45089 0.84769 -0.19900
Br	Br	0.56310 0.17974 0.71727 -0.16500
Br	Br	0.77651 0.36866 0.62814 -0.26800
Br	Br	0.51623 0.29399 0.69455 -0.16000
Br	Br	0.70436 0.45296 0.75303 -0.16100
Br	Br	0.55498 0.17641 0.81204 -0.19900
C 	C 	0.67929 0.28922 0.12216 -0.11900
C 	C 	0.73916 0.31815 0.14652 0.12200
C 	C 	0.74257 0.31644 0.18670 0.06700
C 	C 	0.68646 0.28818 0.20270 0.01700
C 	C 	0.62632 0.25619 0.17793 0.06400
C 	C 	0.62267 0.25486 0.13752 0.12600
C 	C 	0.69081 0.29533 0.24564 0.01700
C 	C 	0.67828 0.24526 0.26436 0.06600
C 	C 	0.66912 0.24623 0.30330 0.12600
C 	C 	0.67717 0.29962 0.32441 -0.11600
C 	C 	0.69635 0.35247 0.30679 0.12200
C 	C 	0.70148 0.34969 0.26717 0.06600
Br	Br	0.54927 0.21643 0.19965 -0.16800
Br	Br	0.81648 0.36199 0.12511 -0.19800
Br	Br	0.64122 0.17271 0.32662 -0.18400
Br	Br	0.72055 0.41918 0.24186 -0.17000
Br	Br	0.54016 0.20438 0.10296 -0.19000
Br	Br	0.82394 0.35356 0.22000 -0.15900
Br	Br	0.67225 0.17482 0.23623 -0.16100
Br	Br	0.71608 0.42882 0.33709 -0.21200
C 	C 	0.74329 0.50120 0.44317 -0.06200
C 	C 	0.71020 0.51876 0.42118 0.01700
C 	C 	0.73423 0.58251 0.42458 -0.04900
C 	C 	0.79344 0.63053 0.44935 0.01900
C 	C 	0.82523 0.61240 0.47304 0.00900
C 	C 	0.80119 0.54808 0.46869 -0.00900
C 	C 	0.87830 0.65801 0.50234 -0.02900
C 	C 	0.89944 0.72098 0.50892 -0.04800
C 	C 	0.87089 0.74060 0.48452 0.03600
C 	C 	0.81968 0.69617 0.45320 -0.01000
C 	C 	0.79868 0.71887 0.42536 -0.02400
C 	C 	0.82450 0.78335 0.43051 -0.04400
C 	C 	0.87323 0.82671 0.46247 0.01700
C 	C 	0.89533 0.80497 0.48987 -0.06600
H 	H 	0.66421 0.48251 0.40249 0.04100
H 	H 	0.70442 0.59351 0.41006 0.05100
H 	H 	0.82563 0.53426 0.48670 0.04400
H 	H 	0.90220 0.64428 0.52089 0.04600
H 	H 	0.93934 0.75506 0.53250 0.04900
H 	H 	0.76600 0.68806 0.39843 0.04400
H 	H 	0.80892 0.80014 0.40847 0.04700
H 	H 	0.93384 0.83876 0.51426 0.05100
C 	C 	0.87969 0.02140 0.47136 0.01900
C 	C 	0.84481 0.02003 0.43779 -0.04200
C 	C 	0.82679 0.06069 0.43859 -0.02500
C 	C 	0.84598 0.10536 0.47285 -0.01000
C 	C 	0.87462 0.10132 0.50775 0.03600
C 	C 	0.89224 0.06011 0.50664 -0.06700
C 	C 	0.88525 0.13833 0.54334 -0.04800
C 	C 	0.86826 0.17963 0.54467 -0.03200
C 	C 	0.84379 0.18751 0.51017 0.00800
C 	C 	0.83515 0.15255 0.47366 0.01500
C 	C 	0.81989 0.16837 0.43908 -0.04900
C 	C 	0.80541 0.21183 0.44095 0.01000
C 	C 	0.80798 0.24189 0.47718 -0.06900
C 	C 	0.82902 0.23099 0.51174 -0.01800
H 	H 	0.83283 0.98839 0.41079 0.04600
H 	H 	0.79627 0.05561 0.41309 0.04500
H 	H 	0.91753 0.05963 0.53289 0.05400
H 	H 	0.90605 0.13451 0.57021 0.04900
H 	H 	0.87553 0.20674 0.57261 0.04600
H 	H 	0.82194 0.14960 0.41092 0.05400
H 	H 	0.79231 0.22224 0.41411 0.05900
H 	H 	0.83297 0.25550 0.53983 0.04100
C 	C 	0.07805 0.03810 0.46497 0.02100
C 	C 	0.10295 0.07342 0.43554 -0.04600
C 	C 	0.16841 0.10881 0.43494 -0.02400
C 	C 	0.20961 0.10677 0.46293 -0.01000
C 	C 	0.18508 0.07524 0.49441 0.03600
C 	C 	0.11927 0.04008 0.49479 -0.06700
C 	C 	0.22671 0.08050 0.52562 -0.04500
C 	C 	0.29241 0.11696 0.52608 -0.03100
C 	C 	0.31726 0.14572 0.49427 0.01500
C 	C 	0.27561 0.13820 0.46149 0.01400
C 	C 	0.30020 0.15898 0.42749 -0.05000
C 	C 	0.36596 0.19394 0.42805 0.00400
C 	C 	0.40806 0.20652 0.46185 -0.06100
C 	C 	0.38322 0.18056 0.49447 -0.01700
H 	H 	0.07158 0.07393 0.41325 0.04700
H 	H 	0.18700 0.13988 0.41397 0.04100
H 	H 	0.10014 0.01458 0.51835 0.05300
H 	H 	0.20825 0.05724 0.55002 0.05100
H 	H 	0.32402 0.12188 0.55098 0.05800
H 	H 	0.26865 0.14550 0.40009 0.04800
H 	H 	0.38401 0.21018 0.40183 0.04100
H 	H 	0.41497 0.18690 0.51981 0.07200
C 	C 	0.76126 0.54532 0.98183 -0.06000
C 	C 	0.80433 0.57271 0.95616 0.01000
C 	C 	0.83840 0.63747 0.95537 -0.04800
C 	C 	0.82851 0.67588 0.97961 0.01900
C 	C 	0.78918 0.64936 0.00774 0.00600
C 	C 	0.75433 0.58401 0.00788 -0.01700
C 	C 	0.78699 0.68878 0.03637 -0.03100
C 	C 	0.82439 0.75430 0.03787 -0.04800
C 	C 	0.86130 0.78106 0.00923 0.03200
C 	C 	0.86048 0.74145 0.97841 -0.00600
C 	C 	0.88895 0.76772 0.94646 -0.02500
C 	C 	0.92500 0.83324 0.94791 -0.04300
C 	C 	0.93118 0.87318 0.98039 0.01800
C 	C 	0.89810 0.84693 0.01057 -0.06800
H 	H 	0.81270 0.54411 0.93739 0.05500
H 	H 	0.87485 0.65795 0.93758 0.05300
H 	H 	0.72251 0.56354 0.02856 0.05000
H 	H 	0.75753 0.66880 0.05822 0.04400
H 	H 	0.82379 0.78424 0.06104 0.04700
H 	H 	0.88090 0.73765 0.91982 0.04600
H 	H 	0.94782 0.85302 0.92360 0.04700
H 	H 	0.90127 0.87774 0.03509 0.05000
C 	C 	0.80660 0.22667 0.99124 -0.06900
C 	C 	0.85676 0.24801 0.97039 0.00500
C 	C 	0.89160 0.22332 0.97203 -0.05300
C 	C 	0.87500 0.17463 0.99334 0.01900
C 	C 	0.82973 0.15865 0.01794 0.00600
C 	C 	0.79475 0.18366 0.01612 -0.01400
C 	C 	0.82067 0.11875 0.04447 -0.02900
C 	C 	0.85520 0.09373 0.04632 -0.04700
C 	C 	0.89618 0.10466 0.01992 0.03300
C 	C 	0.90434 0.14311 0.99199 -0.00800
C 	C 	0.93724 0.14509 0.96175 -0.02500
C 	C 	0.96613 0.11424 0.96151 -0.04400
C 	C 	0.96120 0.07935 0.99052 0.01800
C 	C 	0.92657 0.07494 0.01983 -0.06900
H 	H 	0.86888 0.28386 0.95281 0.03400
H 	H 	0.93298 0.24420 0.95816 0.04800
H 	H 	0.75852 0.16970 0.03398 0.06000
H 	H 	0.78731 0.10765 0.06407 0.05100
H 	H 	0.84845 0.06398 0.06755 0.04900
H 	H 	0.93726 0.16689 0.93716 0.04100
H 	H 	0.99064 0.11572 0.93792 0.04700
H 	H 	0.92178 0.04691 0.04185 0.05100
C 	C 	0.14733 0.07307 0.98305 0.01900
C 	C 	0.16493 0.05534 0.95068 -0.04400
C 	C 	0.22929 0.08226 0.95024 -0.02400
C 	C 	0.27708 0.12611 0.98299 -0.00700
C 	C 	0.25968 0.14833 0.01396 0.03400
C 	C 	0.19477 0.12039 0.01430 -0.06900
C 	C 	0.30729 0.19924 0.04367 -0.04700
C 	C 	0.37191 0.22878 0.04279 -0.02700
C 	C 	0.39005 0.20530 0.01361 0.00700
C 	C 	0.34264 0.15139 0.98468 0.02200
C 	C 	0.36167 0.12223 0.95975 -0.04900
C 	C 	0.42676 0.15087 0.96051 0.01200
C 	C 	0.47347 0.20761 0.98668 -0.05900
C 	C 	0.45515 0.23410 0.01367 -0.00900
H 	H 	0.12861 0.02084 0.92568 0.04700
H 	H 	0.24174 0.07121 0.92377 0.04300
H 	H 	0.18117 0.13527 0.03887 0.05200
H 	H 	0.29424 0.21698 0.06710 0.05000
H 	H 	0.40804 0.26930 0.06538 0.04900
H 	H 	0.32672 0.07619 0.94126 0.05200
H 	H 	0.44082 0.12878 0.94076 0.04200
H 	H 	0.49159 0.27665 0.03499 0.04200
