data_crystal

_cell_length_a 18.61953
_cell_length_b 28.26508
_cell_length_c 37.63001
_cell_angle_alpha 90.00025
_cell_angle_beta  76.97340
_cell_angle_gamma 89.99966

_symmetry_space_group_name_	'P 1'
_symmetry_space_group_name_H-M	'P 1'

loop_
_symmetry_equiv_pos_as_xyz
  x,y,z

loop_
_atom_site_label
_atom_site_type_symbol
_atom_site_fract_x
_atom_site_fract_y
_atom_site_fract_z
_atom_site_charge
Cu	Cu	0.58585 0.43403 0.16031 0.93000
Cu	Cu	0.73571 0.48208 0.17716 0.87100
Cu	Cu	0.58735 0.52996 0.19729 0.89700
Cu	Cu	0.43898 0.49107 0.18898 0.89500
C 	C 	0.44700 0.38632 0.18111 0.29400
O 	O 	0.55039 0.45403 0.11549 -0.35900
C 	C 	0.72803 0.58289 0.17669 0.29500
O 	O 	0.52589 0.47448 0.20406 -0.63700
O 	O 	0.64891 0.49053 0.15781 -0.64400
O 	O 	0.66160 0.38528 0.16285 -0.36800
O 	O 	0.70874 0.42586 0.20459 -0.43900
O 	O 	0.41400 0.42588 0.17494 -0.38200
O 	O 	0.52136 0.56676 0.23425 -0.37900
C 	C 	0.45241 0.57621 0.23331 0.29100
C 	C 	0.53015 0.49787 0.11123 0.28400
O 	O 	0.50406 0.52416 0.14006 -0.39300
O 	O 	0.40877 0.54314 0.22496 -0.38700
O 	O 	0.51934 0.38216 0.17196 -0.36200
C 	C 	0.70006 0.38599 0.18814 0.29100
O 	O 	0.66135 0.57946 0.19817 -0.38800
O 	O 	0.76444 0.54511 0.16194 -0.41900
H 	H 	0.51776 0.46046 0.22876 0.16300
H 	H 	0.65982 0.50664 0.13384 0.17000
Cu	Cu	0.38789 0.45839 0.80858 0.92900
Cu	Cu	0.25255 0.51736 0.78753 0.86800
Cu	Cu	0.40207 0.55973 0.78063 0.89600
Cu	Cu	0.54308 0.50744 0.78355 0.89500
C 	C 	0.51941 0.40373 0.78533 0.29500
O 	O 	0.42461 0.47084 0.85453 -0.35800
C 	C 	0.26857 0.61768 0.79303 0.28800
O 	O 	0.45388 0.50065 0.76767 -0.63500
O 	O 	0.33132 0.51766 0.81393 -0.64300
O 	O 	0.30625 0.41602 0.80317 -0.37400
O 	O 	0.27578 0.46135 0.75900 -0.43600
O 	O 	0.55644 0.43940 0.79505 -0.38200
O 	O 	0.47382 0.59958 0.74868 -0.38100
C 	C 	0.54465 0.60024 0.74868 0.29500
C 	C 	0.45033 0.51260 0.86103 0.28400
O 	O 	0.48176 0.53980 0.83359 -0.39400
O 	O 	0.58097 0.56047 0.75003 -0.38900
O 	O 	0.44680 0.40365 0.79373 -0.36700
C 	C 	0.27654 0.42009 0.77489 0.29800
O 	O 	0.34016 0.61603 0.79138 -0.37900
O 	O 	0.22583 0.58069 0.80344 -0.41400
H 	H 	0.45944 0.49107 0.74188 0.16300
H 	H 	0.31604 0.52995 0.83915 0.17400
Cu	Cu	0.03399 0.92694 0.28717 0.93000
Cu	Cu	0.91847 0.97924 0.24512 0.86500
Cu	Cu	0.04991 0.02698 0.25760 0.89400
Cu	Cu	0.18083 0.98531 0.27979 0.89500
C 	C 	0.17268 0.87996 0.28284 0.29200
O 	O 	0.04103 0.94390 0.33853 -0.36000
C 	C 	0.92057 0.08124 0.25231 0.28400
O 	O 	0.11000 0.97094 0.25236 -0.63800
O 	O 	0.97258 0.98306 0.28373 -0.64200
O 	O 	0.96816 0.87920 0.27238 -0.36400
O 	O 	0.95799 0.92192 0.22254 -0.44100
O 	O 	0.19777 0.91913 0.29492 -0.38100
O 	O 	0.12533 0.06718 0.22957 -0.38900
C 	C 	0.18946 0.07470 0.23779 0.29900
C 	C 	0.05416 0.98763 0.34724 0.29500
O 	O 	0.09459 0.01546 0.32264 -0.40100
O 	O 	0.22607 0.03999 0.24928 -0.39400
O 	O 	0.10269 0.87564 0.28164 -0.35900
C 	C 	0.94884 0.88217 0.24099 0.29500
O 	O 	0.98343 0.08088 0.26299 -0.38100
O 	O 	0.87979 0.04259 0.25448 -0.42100
H 	H 	0.13001 0.96084 0.22686 0.16400
H 	H 	0.94350 0.99589 0.30704 0.17600
Cu	Cu	0.96570 0.95397 0.68032 0.92900
Cu	Cu	0.07805 0.01382 0.71874 0.86700
Cu	Cu	0.94253 0.05694 0.70302 0.89500
Cu	Cu	0.81544 0.00635 0.68359 0.89100
C 	C 	0.83135 0.90174 0.68663 0.29400
O 	O 	0.95820 0.96429 0.62806 -0.35600
C 	C 	0.07153 0.11378 0.70771 0.28800
O 	O 	0.88651 0.99903 0.71201 -0.63600
O 	O 	0.02309 0.01257 0.68041 -0.64300
O 	O 	0.03404 0.91122 0.69823 -0.37100
O 	O 	0.03882 0.95933 0.74596 -0.43200
O 	O 	0.80488 0.93805 0.67163 -0.38200
O 	O 	0.86349 0.09779 0.72772 -0.38300
C 	C 	0.79641 0.09913 0.72160 0.29700
C 	C 	0.94261 0.00624 0.61659 0.27800
O 	O 	0.89970 0.03528 0.63923 -0.39700
O 	O 	0.76462 0.06086 0.71201 -0.39500
O 	O 	0.90071 0.90079 0.68935 -0.36300
C 	C 	0.04749 0.91743 0.73063 0.29800
O 	O 	0.00671 0.11249 0.69893 -0.37500
O 	O 	0.11416 0.07607 0.70439 -0.41600
H 	H 	0.86686 0.99147 0.73808 0.16500
H 	H 	0.05192 0.02323 0.65634 0.17300
C 	C 	0.95400 0.99391 0.44655 -0.07100
C 	C 	0.00221 0.02247 0.46089 0.01200
C 	C 	0.06215 0.04453 0.43708 -0.00700
C 	C 	0.07715 0.03433 0.39973 -0.00200
C 	C 	0.03123 0.00357 0.38559 -0.10300
C 	C 	0.96644 0.98593 0.40897 0.06300
C 	C 	0.99295 0.02576 0.50094 0.01200
S 	S 	0.11785 0.08561 0.45359 -0.04400
H 	H 	0.12546 0.04954 0.38181 0.03600
S 	S 	0.89770 0.95744 0.39142 -0.05600
H 	H 	0.90656 0.97802 0.46469 0.05400
C 	C 	0.93056 0.04790 0.52282 -0.00700
C 	C 	0.91615 0.04321 0.56080 -0.00500
C 	C 	0.96495 0.01803 0.57735 -0.09300
C 	C 	0.03179 0.00087 0.55555 0.05600
C 	C 	0.04401 0.00324 0.51754 -0.07500
S 	S 	0.87080 0.08208 0.50301 -0.04400
H 	H 	0.86603 0.05810 0.57740 0.03700
S 	S 	0.10277 0.97976 0.57537 -0.04900
H 	H 	0.09332 0.98754 0.50080 0.05900
H 	H 	0.85057 0.99065 0.38299 0.03100
H 	H 	0.81654 0.05364 0.49546 0.03200
H 	H 	0.14593 0.01694 0.58119 0.02700
H 	H 	0.08755 0.12982 0.45386 0.03700
C 	C 	0.67316 0.70387 0.74964 -0.07300
C 	C 	0.66484 0.72899 0.71870 0.01300
C 	C 	0.61732 0.71156 0.69740 -0.00600
C 	C 	0.57876 0.66927 0.70724 0.00000
C 	C 	0.58677 0.64421 0.73832 -0.09200
C 	C 	0.63374 0.66201 0.75984 0.05600
C 	C 	0.70545 0.77390 0.70914 0.01300
S 	S 	0.60463 0.74282 0.65881 -0.03900
H 	H 	0.54249 0.65585 0.69072 0.04100
S 	S 	0.64074 0.63359 0.80061 -0.06600
H 	H 	0.70931 0.71742 0.76617 0.05200
C 	C 	0.67803 0.81666 0.72624 -0.00700
C 	C 	0.71929 0.85829 0.71828 -0.00600
C 	C 	0.78762 0.85784 0.69322 -0.09100
C 	C 	0.81366 0.81535 0.67502 0.05800
C 	C 	0.77294 0.77359 0.68347 -0.07300
S 	S 	0.59208 0.81853 0.75751 -0.04100
H 	H 	0.69857 0.89099 0.73187 0.02800
S 	S 	0.89487 0.81442 0.64031 -0.03300
H 	H 	0.79350 0.74086 0.66988 0.05400
H 	H 	0.69599 0.60058 0.79318 0.03300
H 	H 	0.60170 0.80824 0.79172 0.03500
H 	H 	0.87798 0.82479 0.60757 0.04100
H 	H 	0.54935 0.77533 0.66937 0.03800
C 	C 	0.66416 0.31415 0.74139 -0.07400
C 	C 	0.63160 0.27188 0.75657 0.01300
C 	C 	0.56113 0.27278 0.78011 -0.00500
C 	C 	0.52535 0.31600 0.78945 -0.00200
C 	C 	0.55813 0.35853 0.77463 -0.09100
C 	C 	0.62710 0.35727 0.74948 0.05800
C 	C 	0.67202 0.22684 0.74788 0.01400
S 	S 	0.51623 0.21994 0.79720 -0.04000
H 	H 	0.47192 0.31653 0.80831 0.04900
S 	S 	0.66526 0.40862 0.72609 -0.07500
H 	H 	0.71778 0.31334 0.72269 0.05300
C 	C 	0.67444 0.20354 0.71453 -0.00700
C 	C 	0.71455 0.16154 0.70651 -0.00400
C 	C 	0.75133 0.14196 0.73172 -0.09300
C 	C 	0.74581 0.16412 0.76589 0.06100
C 	C 	0.70770 0.20694 0.77337 -0.07400
S 	S 	0.62663 0.22624 0.68288 -0.04400
H 	H 	0.71766 0.14422 0.68049 0.03300
S 	S 	0.78144 0.13709 0.80044 -0.05000
H 	H 	0.70449 0.22435 0.79936 0.05500
H 	H 	0.70969 0.43065 0.74549 0.03500
H 	H 	0.67094 0.25770 0.66030 0.03500
H 	H 	0.72904 0.10783 0.82059 0.03400
H 	H 	0.47706 0.20331 0.77305 0.03700
C 	C 	0.16408 0.23371 0.69321 -0.07400
C 	C 	0.16355 0.24663 0.72926 0.01300
C 	C 	0.13194 0.21601 0.75813 -0.00500
C 	C 	0.10187 0.17278 0.75066 -0.00600
C 	C 	0.10242 0.15980 0.71467 -0.09200
C 	C 	0.13380 0.19044 0.68575 0.06000
C 	C 	0.19553 0.29250 0.73664 0.01400
S 	S 	0.13016 0.23130 0.80369 -0.04000
H 	H 	0.07795 0.14917 0.77290 0.02400
S 	S 	0.13657 0.17474 0.64019 -0.04600
H 	H 	0.18837 0.25723 0.67098 0.05200
C 	C 	0.26919 0.29547 0.74015 -0.00700
C 	C 	0.29579 0.33792 0.75142 -0.00100
C 	C 	0.24958 0.37757 0.75933 -0.09900
C 	C 	0.17649 0.37498 0.75471 0.06100
C 	C 	0.15025 0.33265 0.74303 -0.07500
S 	S 	0.32811 0.24606 0.73125 -0.04200
H 	H 	0.35216 0.33988 0.75462 0.04400
S 	S 	0.11605 0.42347 0.76538 -0.08700
H 	H 	0.09369 0.33042 0.74017 0.05500
H 	H 	0.19983 0.14978 0.62647 0.03600
H 	H 	0.36269 0.24552 0.69503 0.03500
H 	H 	0.12144 0.45114 0.73499 0.03300
H 	H 	0.19438 0.21674 0.81227 0.03600
C 	C 	0.15623 0.72989 0.81411 -0.07500
C 	C 	0.16634 0.74971 0.77918 0.01300
C 	C 	0.21182 0.72672 0.74913 -0.00500
C 	C 	0.24579 0.68396 0.75421 -0.00600
C 	C 	0.23450 0.66358 0.78895 -0.09400
C 	C 	0.19005 0.68694 0.81918 0.06000
C 	C 	0.12871 0.79433 0.77412 0.01400
S 	S 	0.22564 0.75079 0.70493 -0.03900
H 	H 	0.28037 0.66617 0.73101 0.02900
S 	S 	0.17808 0.66356 0.86350 -0.05100
H 	H 	0.12179 0.74780 0.83729 0.05200
C 	C 	0.05895 0.79367 0.76546 -0.00800
C 	C 	0.03073 0.83504 0.75343 0.00300
C 	C 	0.07162 0.87714 0.74977 -0.10100
C 	C 	0.13932 0.87845 0.76073 0.06300
C 	C 	0.16689 0.83718 0.77329 -0.07600
S 	S 	0.00771 0.74090 0.76835 -0.03900
H 	H 	0.97804 0.83413 0.74570 0.04200
S 	S 	0.19255 0.93053 0.75650 -0.09100
H 	H 	0.22009 0.83780 0.78049 0.05500
H 	H 	0.23305 0.67998 0.87908 0.03800
H 	H 	0.96500 0.73626 0.80294 0.03300
H 	H 	0.23800 0.93226 0.72238 0.02900
H 	H 	0.17045 0.73570 0.68896 0.03700
C 	C 	0.29806 0.78037 0.29951 -0.07300
C 	C 	0.30523 0.75418 0.26727 0.01300
C 	C 	0.26838 0.76921 0.24037 -0.00500
C 	C 	0.22664 0.81086 0.24554 -0.00500
C 	C 	0.21939 0.83717 0.27776 -0.09000
C 	C 	0.25430 0.82120 0.30526 0.05700
C 	C 	0.34790 0.70953 0.26282 0.01300
S 	S 	0.27219 0.73544 0.20065 -0.04000
H 	H 	0.19903 0.82256 0.22461 0.03600
S 	S 	0.23934 0.84967 0.34795 -0.03900
H 	H 	0.32511 0.76830 0.32053 0.05300
C 	C 	0.42021 0.70774 0.24109 -0.00400
C 	C 	0.45569 0.66404 0.23328 -0.00700
C 	C 	0.42027 0.62208 0.24754 -0.09000
C 	C 	0.35113 0.62456 0.27245 0.05800
C 	C 	0.31478 0.66810 0.27933 -0.07400
S 	S 	0.46678 0.75987 0.22355 -0.04100
H 	H 	0.50992 0.66253 0.21518 0.04100
S 	S 	0.31208 0.57432 0.29710 -0.04700
H 	H 	0.26047 0.66973 0.29737 0.05400
H 	H 	0.17794 0.83096 0.37068 0.04300
H 	H 	0.45458 0.76898 0.18965 0.03300
H 	H 	0.33711 0.57093 0.32857 0.03700
H 	H 	0.32988 0.75057 0.17366 0.03200
C 	C 	0.76921 0.71387 0.17415 -0.07600
C 	C 	0.83348 0.71436 0.18768 0.01400
C 	C 	0.86773 0.67135 0.19316 -0.00700
C 	C 	0.83539 0.62843 0.18687 -0.00200
C 	C 	0.76823 0.62787 0.17588 -0.09700
C 	C 	0.73644 0.67089 0.16818 0.06000
C 	C 	0.85969 0.75953 0.19990 0.01300
S 	S 	0.94963 0.67080 0.20916 -0.03800
H 	H 	0.86066 0.59542 0.19225 0.02900
S 	S 	0.65667 0.67140 0.15040 -0.06000
H 	H 	0.74367 0.74696 0.16920 0.05100
C 	C 	0.91832 0.78460 0.17758 -0.00800
C 	C 	0.94651 0.82500 0.19113 -0.00100
C 	C 	0.91614 0.84097 0.22665 -0.10200
C 	C 	0.85481 0.81727 0.24820 0.05700
C 	C 	0.82753 0.77650 0.23484 -0.07400
S 	S 	0.95677 0.76576 0.13274 -0.04600
H 	H 	0.99266 0.84368 0.17422 0.03500
S 	S 	0.80942 0.83954 0.29113 -0.05500
H 	H 	0.78140 0.75775 0.25172 0.05500
H 	H 	0.67664 0.66948 0.11309 0.03500
H 	H 	0.91825 0.78559 0.10949 0.03300
H 	H 	0.75615 0.87101 0.28669 0.02500
H 	H 	0.00897 0.67271 0.18006 0.03700
C 	C 	0.78683 0.26386 0.18445 -0.07500
C 	C 	0.78870 0.25699 0.22111 0.01300
C 	C 	0.76336 0.29308 0.24675 -0.00600
C 	C 	0.73321 0.33452 0.23578 -0.00500
C 	C 	0.73155 0.34158 0.19901 -0.09800
C 	C 	0.76105 0.30643 0.17299 0.05600
C 	C 	0.82235 0.21325 0.23172 0.01100
S 	S 	0.77131 0.28751 0.29232 -0.04200
H 	H 	0.71168 0.36150 0.25583 0.03700
S 	S 	0.77292 0.31685 0.12584 -0.04700
H 	H 	0.80814 0.23664 0.16455 0.05000
C 	C 	0.77816 0.17611 0.24977 -0.00500
C 	C 	0.81114 0.13402 0.25761 -0.00700
C 	C 	0.88766 0.12734 0.24580 -0.09000
C 	C 	0.93146 0.16408 0.22646 0.04900
C 	C 	0.89883 0.20718 0.22075 -0.07100
S 	S 	0.68139 0.18110 0.26132 -0.04600
H 	H 	0.77700 0.10609 0.27233 0.04000
S 	S 	0.02549 0.15535 0.20629 -0.03700
H 	H 	0.93268 0.23541 0.20628 0.05000
H 	H 	0.83996 0.33791 0.11279 0.02700
H 	H 	0.65346 0.16676 0.23237 0.03400
H 	H 	0.03241 0.13641 0.17217 0.03000
H 	H 	0.70819 0.26782 0.31280 0.03600
C 	C 	0.32796 0.16892 0.19648 -0.07600
C 	C 	0.29250 0.20974 0.21292 0.01300
C 	C 	0.22234 0.20617 0.23656 -0.00500
C 	C 	0.18972 0.16176 0.24461 -0.00400
C 	C 	0.22559 0.12078 0.22867 -0.09500
C 	C 	0.29457 0.12454 0.20384 0.06000
C 	C 	0.32978 0.25597 0.20564 0.01300
S 	S 	0.17480 0.25705 0.25614 -0.03800
H 	H 	0.13631 0.15902 0.26335 0.04000
S 	S 	0.33796 0.07454 0.18048 -0.05500
H 	H 	0.38147 0.17177 0.17785 0.05200
C 	C 	0.37180 0.27418 0.22932 -0.00500
C 	C 	0.40760 0.31771 0.22163 -0.00500
C 	C 	0.40278 0.34312 0.19025 -0.09200
C 	C 	0.36109 0.32470 0.16639 0.05800
C 	C 	0.32432 0.28149 0.17443 -0.07400
S 	S 	0.38125 0.24232 0.26822 -0.04500
H 	H 	0.44034 0.33151 0.23975 0.03300
S 	S 	0.35765 0.35397 0.12547 -0.04100
H 	H 	0.29232 0.26733 0.15611 0.05300
H 	H 	0.38334 0.05442 0.20029 0.03700
H 	H 	0.43983 0.21195 0.25889 0.03600
H 	H 	0.41583 0.33958 0.09843 0.04300
H 	H 	0.19455 0.26720 0.28824 0.03600
C 	C 	0.41847 0.51128 0.96393 -0.07300
C 	C 	0.48138 0.53529 0.96896 0.01300
C 	C 	0.52798 0.55783 0.93903 -0.00600
C 	C 	0.51551 0.55206 0.90398 -0.00600
C 	C 	0.45512 0.52539 0.89858 -0.09200
C 	C 	0.40341 0.50801 0.92923 0.05800
C 	C 	0.50121 0.53309 0.00489 0.01400
S 	S 	0.60118 0.59402 0.94521 -0.04500
H 	H 	0.55383 0.56736 0.88082 0.03900
S 	S 	0.31713 0.48606 0.92508 -0.05500
H 	H 	0.38111 0.49525 0.98709 0.05300
C 	C 	0.45608 0.55432 0.03592 -0.00800
C 	C 	0.46806 0.54449 0.07059 -0.00500
C 	C 	0.52662 0.51507 0.07454 -0.09400
C 	C 	0.57715 0.49887 0.04305 0.05900
C 	C 	0.56254 0.50634 0.00862 -0.07300
S 	S 	0.38527 0.59374 0.03167 -0.04400
H 	H 	0.43064 0.55871 0.09452 0.03600
S 	S 	0.66139 0.47262 0.04606 -0.05800
H 	H 	0.59891 0.49134 0.98466 0.05500
H 	H 	0.26828 0.52283 0.92765 0.03100
H 	H 	0.32135 0.56893 0.03340 0.03300
H 	H 	0.71318 0.50724 0.04537 0.03000
H 	H 	0.57594 0.63927 0.95272 0.03600
