data_crystal

_cell_length_a 18.43729
_cell_length_b 18.78619
_cell_length_c 34.62082
_cell_angle_alpha 95.43844
_cell_angle_beta  95.43825
_cell_angle_gamma 126.42830

_symmetry_space_group_name_	'P 1'
_symmetry_space_group_name_H-M	'P 1'

loop_
_symmetry_equiv_pos_as_xyz
  x,y,z

loop_
_atom_site_label
_atom_site_type_symbol
_atom_site_fract_x
_atom_site_fract_y
_atom_site_fract_z
_atom_site_charge
C 	C 	0.85000 0.91739 0.96214 0.14600
N 	N 	0.94237 0.97208 0.97453 -0.13600
C 	C 	0.98884 0.93717 0.97746 0.14900
N 	N 	0.94206 0.84665 0.96945 -0.13700
C 	C 	0.84925 0.79081 0.95893 0.14500
N 	N 	0.80277 0.82614 0.95475 -0.13700
C 	C 	0.99359 0.09653 0.49839 0.15000
N 	N 	0.94467 0.00882 0.50203 -0.13200
C 	C 	0.98515 0.96769 0.50249 0.13800
N 	N 	0.07445 0.01422 0.49913 -0.12700
C 	C 	0.12342 0.10157 0.49508 0.14600
N 	N 	0.08317 0.14308 0.49499 -0.14100
Cu	Cu	0.69690 0.26065 0.95170 0.92700
Cu	Cu	0.71873 0.22549 0.04131 0.88000
Cu	Cu	0.56434 0.22372 0.00745 0.90300
Cu	Cu	0.50830 0.22581 0.92223 0.90100
C 	C 	0.62701 0.22636 0.86939 0.29200
O 	O 	0.74183 0.38667 0.94402 -0.34900
C 	C 	0.64888 0.28861 0.09288 0.29300
O 	O 	0.55528 0.18059 0.95351 -0.63800
O 	O 	0.69811 0.29074 0.00790 -0.64100
O 	O 	0.76190 0.20530 0.95735 -0.36300
O 	O 	0.68093 0.12520 0.00263 -0.40900
O 	O 	0.54465 0.20150 0.87312 -0.37200
O 	O 	0.43324 0.14970 0.00424 -0.37300
C 	C 	0.37456 0.14656 0.97770 0.31500
C 	C 	0.69258 0.41529 0.94937 0.29900
O 	O 	0.60994 0.36012 0.95695 -0.38700
O 	O 	0.39909 0.18569 0.94660 -0.38300
O 	O 	0.67574 0.21815 0.89647 -0.35600
C 	C 	0.72797 0.13488 0.97471 0.29400
O 	O 	0.57461 0.24962 0.06520 -0.36900
O 	O 	0.72214 0.29682 0.08548 -0.40100
H 	H 	0.52104 0.11451 0.94680 0.17400
H 	H 	0.73430 0.35600 0.01858 0.18300
Cu	Cu	0.66350 0.26727 0.50765 0.93200
Cu	Cu	0.74320 0.30186 0.42578 0.87400
Cu	Cu	0.69574 0.41157 0.46368 0.90000
Cu	Cu	0.68784 0.43931 0.54952 0.90700
C 	C 	0.69264 0.31112 0.59225 0.29800
O 	O 	0.53445 0.22584 0.51123 -0.35100
C 	C 	0.68006 0.37846 0.37757 0.28800
O 	O 	0.74273 0.40799 0.51578 -0.63500
O 	O 	0.64857 0.28425 0.45324 -0.64400
O 	O 	0.71380 0.20023 0.49707 -0.36200
O 	O 	0.82271 0.31003 0.46801 -0.43100
O 	O 	0.65968 0.35622 0.58739 -0.37000
O 	O 	0.73118 0.53289 0.47482 -0.37400
C 	C 	0.77905 0.59144 0.50821 0.31600
C 	C 	0.50664 0.27426 0.50274 0.30200
O 	O 	0.56679 0.36116 0.50364 -0.39400
O 	O 	0.76698 0.56572 0.54265 -0.38500
O 	O 	0.70013 0.26992 0.56175 -0.35000
C 	C 	0.79339 0.24122 0.48571 0.31500
O 	O 	0.66432 0.41222 0.40808 -0.36600
O 	O 	0.68898 0.31410 0.37942 -0.40200
H 	H 	0.81042 0.44438 0.52249 0.17300
H 	H 	0.58534 0.24276 0.43760 0.18100
C 	C 	0.69241 0.19740 0.77116 -0.03700
C 	C 	0.68810 0.25862 0.75247 0.02200
C 	C 	0.67148 0.31429 0.77329 -0.03700
C 	C 	0.65342 0.30491 0.81186 0.01900
C 	C 	0.65327 0.24056 0.83004 -0.07200
C 	C 	0.67354 0.18713 0.80966 0.02300
C 	C 	0.69318 0.25923 0.70973 0.02300
C 	C 	0.67156 0.38034 0.75467 0.09900
C 	C 	0.67110 0.11904 0.82750 0.09500
C 	C 	0.61220 0.20198 0.68090 -0.03700
C 	C 	0.61335 0.21486 0.64147 0.02500
C 	C 	0.69547 0.28500 0.63090 -0.07100
C 	C 	0.77821 0.33587 0.65878 0.02100
C 	C 	0.77710 0.32295 0.69828 -0.03600
C 	C 	0.52738 0.13146 0.69210 0.10200
C 	C 	0.86402 0.40227 0.64696 0.08200
C 	C 	0.52972 0.15733 0.61190 0.09300
C 	C 	0.86168 0.37626 0.72729 0.10100
C 	C 	0.71502 0.14413 0.75051 0.10200
C 	C 	0.63283 0.36004 0.83253 0.07100
N 	N 	0.46305 0.11152 0.58830 -0.09700
N 	N 	0.45975 0.07523 0.70109 -0.10600
N 	N 	0.93248 0.45524 0.63749 -0.10600
N 	N 	0.92913 0.41878 0.75049 -0.10700
N 	N 	0.67165 0.43298 0.73977 -0.11000
N 	N 	0.61614 0.40384 0.84894 -0.11800
N 	N 	0.66921 0.06476 0.84172 -0.10300
N 	N 	0.73307 0.10166 0.73399 -0.10600
C 	C 	0.64698 0.28868 0.20230 -0.03800
C 	C 	0.64529 0.36170 0.21379 0.02300
C 	C 	0.64071 0.40839 0.18523 -0.03700
C 	C 	0.64140 0.38425 0.14546 0.02400
C 	C 	0.64507 0.31239 0.13418 -0.07500
C 	C 	0.64571 0.26335 0.16250 0.02400
C 	C 	0.65126 0.39080 0.25633 0.02200
C 	C 	0.63569 0.48135 0.19683 0.10300
C 	C 	0.64354 0.18587 0.15050 0.07500
C 	C 	0.73797 0.45328 0.28103 -0.03700
C 	C 	0.74654 0.45758 0.32223 0.01900
C 	C 	0.66848 0.39912 0.33845 -0.07400
C 	C 	0.58051 0.34799 0.31442 0.02400
C 	C 	0.57188 0.34432 0.27322 -0.03800
C 	C 	0.81849 0.51006 0.26388 0.10000
C 	C 	0.49938 0.29670 0.33189 0.08700
C 	C 	0.83584 0.51963 0.34780 0.06900
C 	C 	0.48189 0.29006 0.24807 0.10200
C 	C 	0.65069 0.24006 0.23161 0.10100
C 	C 	0.63997 0.43423 0.11632 0.08500
N 	N 	0.90713 0.56913 0.36821 -0.10900
N 	N 	0.88271 0.55534 0.25014 -0.10800
N 	N 	0.43466 0.25578 0.34586 -0.10700
N 	N 	0.41007 0.24674 0.22793 -0.10500
N 	N 	0.63169 0.53958 0.20613 -0.10600
N 	N 	0.63884 0.47407 0.09304 -0.10400
N 	N 	0.64180 0.12408 0.14094 -0.11300
N 	N 	0.65365 0.20140 0.25505 -0.11100
C 	C 	0.83281 0.68793 0.50713 -0.11600
C 	C 	0.82743 0.74446 0.53420 -0.03800
C 	C 	0.87584 0.83579 0.53248 0.13900
C 	C 	0.93095 0.87136 0.50374 -0.03500
C 	C 	0.93677 0.81498 0.47687 -0.09000
C 	C 	0.88777 0.72359 0.47834 0.19000
H 	H 	0.78499 0.71743 0.55637 0.06400
O 	O 	0.87264 0.89095 0.56002 -0.27200
H 	H 	0.97937 0.84210 0.45475 0.08400
O 	O 	0.89673 0.67000 0.45272 -0.29200
H 	H 	0.84973 0.64793 0.42873 0.16200
H 	H 	0.81901 0.88767 0.54873 0.15100
C 	C 	0.84634 0.20595 0.48972 -0.12000
C 	C 	0.89263 0.20699 0.45956 -0.04100
C 	C 	0.94392 0.17458 0.46294 0.14000
C 	C 	0.94837 0.13964 0.49648 -0.04000
C 	C 	0.90329 0.13970 0.52693 -0.08900
C 	C 	0.85250 0.17281 0.52373 0.18900
H 	H 	0.88790 0.23194 0.43320 0.04700
O 	O 	0.98552 0.17260 0.43246 -0.27000
H 	H 	0.90726 0.11362 0.55302 0.07900
O 	O 	0.81259 0.17651 0.55458 -0.27500
H 	H 	0.75115 0.11714 0.54990 0.16300
H 	H 	0.04747 0.23158 0.43817 0.14900
C 	C 	0.22104 0.15202 0.49279 -0.03900
C 	C 	0.28632 0.23426 0.51867 -0.08800
C 	C 	0.37995 0.27550 0.52149 0.18800
C 	C 	0.40887 0.23418 0.49830 -0.11000
C 	C 	0.34383 0.15381 0.47130 -0.03900
C 	C 	0.25023 0.11329 0.46805 0.14400
H 	H 	0.26440 0.26443 0.53780 0.07600
O 	O 	0.44275 0.35306 0.54875 -0.29100
H 	H 	0.36580 0.12262 0.45286 0.06100
O 	O 	0.18718 0.03445 0.44154 -0.27000
H 	H 	0.17773 0.05308 0.41686 0.15400
H 	H 	0.45779 0.40284 0.53489 0.15200
C 	C 	0.80005 0.69213 0.95187 -0.04100
C 	C 	0.83554 0.65553 0.93046 -0.08500
C 	C 	0.80295 0.56633 0.93026 0.18200
C 	C 	0.73322 0.51204 0.95136 -0.10600
C 	C 	0.69652 0.54832 0.97214 -0.04700
C 	C 	0.72911 0.63745 0.97222 0.14500
H 	H 	0.89059 0.69726 0.91487 0.07200
O 	O 	0.84187 0.53382 0.91067 -0.27700
H 	H 	0.64319 0.50768 0.98865 0.07000
O 	O 	0.69541 0.67248 0.99427 -0.27000
H 	H 	0.64241 0.65986 0.97618 0.15300
H 	H 	0.80767 0.51057 0.88305 0.15700
C 	C 	0.74540 0.06808 0.96391 -0.09500
C 	C 	0.81435 0.08940 0.94223 -0.05300
C 	C 	0.84168 0.03401 0.93761 0.15700
C 	C 	0.80229 0.95804 0.95590 -0.05400
C 	C 	0.72743 0.93178 0.97415 -0.08000
C 	C 	0.69756 0.98525 0.97752 0.16500
H 	H 	0.84882 0.15025 0.92991 0.07700
O 	O 	0.91028 0.05685 0.91693 -0.27600
H 	H 	0.69462 0.87189 0.98718 0.07500
O 	O 	0.62313 0.95741 0.99489 -0.28200
H 	H 	0.56928 0.92128 0.97291 0.14900
H 	H 	0.87847 0.02516 0.88931 0.15700
C 	C 	0.27930 0.10051 0.98349 -0.11600
C 	C 	0.23551 0.02144 0.99922 -0.02600
C 	C 	0.14146 0.97012 0.99961 0.12800
C 	C 	0.09022 0.99758 0.98379 -0.04400
C 	C 	0.13593 0.08077 0.97129 -0.08300
C 	C 	0.22992 0.13227 0.97122 0.18800
H 	H 	0.27377 0.99830 0.01015 0.05800
O 	O 	0.10061 0.89524 0.01677 -0.26000
H 	H 	0.09810 0.10439 0.96043 0.08400
O 	O 	0.27403 0.21501 0.96042 -0.28000
H 	H 	0.26488 0.20264 0.93117 0.15600
H 	H 	0.08542 0.84582 0.99599 0.14800
