data_crystal

_cell_length_a 17.95289
_cell_length_b 15.16434
_cell_length_c 43.98467
_cell_angle_alpha 90.88600
_cell_angle_beta  91.27295
_cell_angle_gamma 111.13279

_symmetry_space_group_name_	'P 1'
_symmetry_space_group_name_H-M	'P 1'

loop_
_symmetry_equiv_pos_as_xyz
  x,y,z

loop_
_atom_site_label
_atom_site_type_symbol
_atom_site_fract_x
_atom_site_fract_y
_atom_site_fract_z
_atom_site_charge
Ni	Ni	0.70722 0.32913 0.88754 1.11100
O 	O 	0.61857 0.23777 0.86027 -0.70200
Ni	Ni	0.52217 0.23699 0.88173 1.11500
O 	O 	0.79151 0.31572 0.85919 -0.31200
O 	O 	0.74282 0.15385 0.86283 -0.35200
O 	O 	0.69339 0.42886 0.85997 -0.37900
Ni	Ni	0.61753 0.10960 0.85818 1.09100
O 	O 	0.71537 0.45194 0.95109 -0.33400
O 	O 	0.61151 0.09118 0.90425 -0.37900
O 	O 	0.44174 0.15728 0.85016 -0.35000
O 	O 	0.61130 0.31295 0.91213 -0.69000
O 	O 	0.79551 0.43094 0.91306 -0.33600
O 	O 	0.43348 0.26853 0.90281 -0.31000
O 	O 	0.51126 0.42310 0.90252 -0.36800
Ni	Ni	0.61734 0.43952 0.92535 1.11400
H 	H 	0.61822 0.26171 0.83947 0.19800
H 	H 	0.61311 0.27586 0.93024 0.22100
C 	C 	0.54772 0.08590 0.91932 0.33700
O 	O 	0.68505 0.53648 0.89526 -0.36300
C 	C 	0.79401 0.23255 0.85150 0.37700
C 	C 	0.44333 0.07548 0.84011 0.38900
C 	C 	0.70975 0.51621 0.86907 0.42100
C 	C 	0.44616 0.35621 0.91118 0.33600
C 	C 	0.78647 0.46779 0.93973 0.34100
O 	O 	0.49478 0.11841 0.90778 -0.32300
O 	O 	0.49544 0.03969 0.85176 -0.35600
Ni	Ni	0.61900 0.33822 0.56946 1.10600
O 	O 	0.71164 0.36143 0.54044 -0.69800
Ni	Ni	0.77177 0.28597 0.55961 1.10800
O 	O 	0.57551 0.42874 0.54712 -0.31300
O 	O 	0.69593 0.54908 0.54974 -0.36500
O 	O 	0.54379 0.23408 0.53997 -0.32200
Ni	Ni	0.78378 0.49437 0.54078 1.10000
O 	O 	0.50161 0.15302 0.59329 -0.36400
O 	O 	0.80533 0.49728 0.58639 -0.38600
O 	O 	0.85796 0.31325 0.52766 -0.31800
O 	O 	0.68205 0.26729 0.59019 -0.69100
O 	O 	0.52982 0.31077 0.60008 -0.33300
O 	O 	0.81320 0.18790 0.57820 -0.31100
O 	O 	0.69543 0.07506 0.59011 -0.35800
Ni	Ni	0.60851 0.13446 0.59146 1.09900
H 	H 	0.69311 0.33800 0.51946 0.21100
H 	H 	0.70207 0.29431 0.61071 0.19900
C 	C 	0.85864 0.46485 0.59711 0.39400
O 	O 	0.60408 0.12592 0.54551 -0.40000
C 	C 	0.62397 0.51052 0.53762 0.33800
C 	C 	0.89122 0.39964 0.51733 0.32600
C 	C 	0.55892 0.16025 0.52960 0.33600
C 	C 	0.77098 0.12220 0.59659 0.39600
C 	C 	0.49149 0.22337 0.60832 0.38400
O 	O 	0.85610 0.38010 0.58891 -0.32600
O 	O 	0.88713 0.47249 0.53293 -0.35100
Ni	Ni	0.99352 0.95922 0.75747 1.10000
O 	O 	0.01516 0.85935 0.73195 -0.69300
Ni	Ni	0.07345 0.93672 0.69763 1.11800
O 	O 	0.93611 0.86152 0.78882 -0.32000
O 	O 	0.84653 0.77117 0.75283 -0.36000
O 	O 	0.09734 0.98564 0.78345 -0.30100
Ni	Ni	0.91391 0.77025 0.71486 1.08500
O 	O 	0.09292 0.16311 0.77955 -0.36200
O 	O 	0.87762 0.87248 0.69664 -0.37300
O 	O 	0.09187 0.82750 0.67522 -0.30400
O 	O 	0.04283 0.03678 0.72126 -0.68600
O 	O 	0.96529 0.05714 0.78102 -0.37800
O 	O 	0.15369 0.02993 0.66975 -0.29900
O 	O 	0.18597 0.17275 0.69465 -0.32900
Ni	Ni	0.13167 0.14838 0.73670 1.10000
H 	H 	0.04694 0.82752 0.74281 0.21200
H 	H 	0.00312 0.05710 0.71045 0.21600
C 	C 	0.91325 0.92112 0.67322 0.38300
O 	O 	0.19296 0.06560 0.74999 -0.37300
C 	C 	0.87660 0.78366 0.78081 0.38900
C 	C 	0.02967 0.74807 0.67019 0.41500
C 	C 	0.16923 0.00548 0.77219 0.36000
C 	C 	0.20792 0.11083 0.67947 0.38700
C 	C 	0.01683 0.14272 0.78586 0.46000
O 	O 	0.98464 0.92461 0.66594 -0.34200
O 	O 	0.95656 0.74682 0.67426 -0.40100
Ni	Ni	0.25132 0.70593 0.40018 1.11000
O 	O 	0.34078 0.75837 0.36965 -0.69800
Ni	Ni	0.43467 0.74967 0.39410 1.10800
O 	O 	0.16698 0.74098 0.37630 -0.30000
O 	O 	0.24677 0.88525 0.35973 -0.34500
O 	O 	0.20642 0.58047 0.37557 -0.33600
Ni	Ni	0.36520 0.89249 0.36106 1.09800
O 	O 	0.19738 0.51122 0.43053 -0.36000
O 	O 	0.37035 0.93101 0.40602 -0.38000
O 	O 	0.52013 0.80481 0.36280 -0.34000
O 	O 	0.34380 0.69269 0.42348 -0.70800
O 	O 	0.16818 0.64649 0.43195 -0.31100
O 	O 	0.51563 0.71957 0.42210 -0.30300
O 	O 	0.43628 0.56466 0.42469 -0.37300
Ni	Ni	0.31889 0.55598 0.42740 1.09100
H 	H 	0.33150 0.72015 0.35054 0.20600
H 	H 	0.35271 0.72574 0.44353 0.22100
C 	C 	0.42514 0.92394 0.42505 0.33100
O 	O 	0.31133 0.53167 0.38176 -0.38200
C 	C 	0.18330 0.80728 0.35590 0.39400
C 	C 	0.52674 0.88335 0.34886 0.39300
C 	C 	0.24971 0.53306 0.36565 0.39400
C 	C 	0.49593 0.63786 0.43558 0.32900
C 	C 	0.15800 0.56169 0.44228 0.33100
O 	O 	0.47239 0.87913 0.41682 -0.32800
O 	O 	0.48735 0.93661 0.35864 -0.36300
Ni	Ni	0.36251 0.66666 0.05217 1.11100
O 	O 	0.26664 0.66459 0.02564 -0.69400
Ni	Ni	0.20308 0.70574 0.05577 1.10900
O 	O 	0.39218 0.57468 0.02457 -0.32800
O 	O 	0.26308 0.47283 0.02358 -0.34800
O 	O 	0.43696 0.77812 0.02780 -0.31400
Ni	Ni	0.19653 0.54753 0.00581 1.11700
O 	O 	0.48266 0.84107 0.08549 -0.36900
O 	O 	0.10428 0.48941 0.03509 -0.34500
O 	O 	0.09587 0.67587 0.03194 -0.32400
O 	O 	0.30724 0.72671 0.08000 -0.69800
O 	O 	0.45767 0.68193 0.08049 -0.33500
O 	O 	0.16470 0.77201 0.08971 -0.29300
O 	O 	0.27803 0.90289 0.08744 -0.34400
Ni	Ni	0.37505 0.85928 0.08531 1.09800
H 	H 	0.28387 0.71311 0.00990 0.19200
H 	H 	0.29785 0.69486 0.09980 0.20100
C 	C 	0.10933 0.50077 0.06486 0.40100
O 	O 	0.37822 0.88421 0.04000 -0.39000
C 	C 	0.33728 0.49406 0.01530 0.32600
C 	C 	0.08257 0.64601 0.00307 0.31200
C 	C 	0.42258 0.85558 0.02195 0.32900
C 	C 	0.21253 0.85395 0.10151 0.36100
C 	C 	0.49375 0.76403 0.09493 0.39000
O 	O 	0.15799 0.57995 0.07788 -0.35200
O 	O 	0.13635 0.62466 0.98768 -0.33500
Ni	Ni	0.96653 0.06956 0.25491 1.10000
O 	O 	0.96026 0.15218 0.21971 -0.72100
Ni	Ni	0.91144 0.05551 0.18675 1.10300
O 	O 	0.01955 0.18716 0.28223 -0.30100
O 	O 	0.12154 0.24525 0.24948 -0.35400
O 	O 	0.85704 0.06344 0.27105 -0.34000
Ni	Ni	0.06734 0.22843 0.20641 1.10400
O 	O 	0.87824 0.85369 0.27699 -0.35800
O 	O 	0.10527 0.11735 0.19977 -0.35500
O 	O 	0.90447 0.14943 0.15479 -0.31800
O 	O 	0.93021 0.97131 0.22045 -0.68600
O 	O 	0.98041 0.99012 0.28954 -0.33100
O 	O 	0.83904 0.94638 0.15939 -0.30800
O 	O 	0.78971 0.81938 0.18961 -0.33100
Ni	Ni	0.84149 0.85814 0.23292 1.10100
H 	H 	0.92734 0.19090 0.22394 0.19900
H 	H 	0.97535 0.95098 0.21606 0.19900
C 	C 	0.07470 0.05445 0.17774 0.38300
O 	O 	0.77347 0.93560 0.24312 -0.36000
C 	C 	0.08586 0.25436 0.27445 0.39000
C 	C 	0.96929 0.22467 0.14988 0.34100
C 	C 	0.78886 0.99040 0.26767 0.39400
C 	C 	0.77767 0.87753 0.16993 0.38800
C 	C 	0.95251 0.89809 0.28671 0.39600
O 	O 	0.00724 0.04737 0.16405 -0.31200
O 	O 	0.03959 0.22956 0.16120 -0.33400
C 	C 	0.02345 0.45128 0.11046 0.33300
C 	C 	0.05388 0.42660 0.08375 -0.20700
C 	C 	0.03246 0.33035 0.07551 0.33200
C 	C 	0.98903 0.26031 0.09543 0.23600
C 	C 	0.96974 0.28575 0.12422 -0.14500
C 	C 	0.98102 0.38093 0.13048 0.22500
F 	F 	0.95788 0.40614 0.15740 -0.37300
F 	F 	0.03639 0.54331 0.11736 -0.34100
F 	F 	0.97419 0.16799 0.08827 -0.35200
F 	F 	0.05799 0.30462 0.04917 -0.36400
C 	C 	0.70637 0.81602 0.12039 0.29000
C 	C 	0.70400 0.84212 0.15105 -0.18200
C 	C 	0.63040 0.83036 0.16397 0.27800
C 	C 	0.56020 0.79791 0.14597 0.28300
C 	C 	0.56300 0.77604 0.11500 -0.19000
C 	C 	0.63605 0.78299 0.10245 0.29200
F 	F 	0.63929 0.76155 0.07253 -0.35700
F 	F 	0.77681 0.82283 0.10801 -0.34400
F 	F 	0.48968 0.79076 0.15834 -0.38200
F 	F 	0.62722 0.85255 0.19382 -0.35700
C 	C 	0.22999 0.99338 0.13641 0.29000
C 	C 	0.18483 0.89963 0.12669 -0.17200
C 	C 	0.11138 0.85168 0.14031 0.29000
C 	C 	0.07862 0.90065 0.15977 0.29800
C 	C 	0.11920 0.99745 0.16618 -0.17300
C 	C 	0.19687 0.04206 0.15590 0.28500
F 	F 	0.23832 0.13447 0.16319 -0.36400
F 	F 	0.30525 0.03787 0.12663 -0.38000
F 	F 	0.00537 0.85520 0.17120 -0.37100
F 	F 	0.07119 0.75810 0.13443 -0.32400
C 	C 	0.67351 0.94194 0.34017 0.29200
C 	C 	0.59545 0.92536 0.32906 -0.18700
C 	C 	0.58277 0.94137 0.29835 0.28200
C 	C 	0.64686 0.96811 0.27849 0.28800
C 	C 	0.72428 0.97942 0.28927 -0.18200
C 	C 	0.73762 0.96904 0.32038 0.28100
F 	F 	0.81210 0.98067 0.33119 -0.34800
F 	F 	0.68699 0.92979 0.37004 -0.35500
F 	F 	0.63356 0.98176 0.24874 -0.34300
F 	F 	0.50795 0.92764 0.28747 -0.37500
C 	C 	0.15582 0.29830 0.32478 0.29000
C 	C 	0.13080 0.32583 0.29727 -0.18500
C 	C 	0.15127 0.42212 0.29123 0.28400
C 	C 	0.19377 0.49051 0.31312 0.28800
C 	C 	0.21692 0.46296 0.34100 -0.19400
C 	C 	0.19889 0.36658 0.34655 0.29000
F 	F 	0.22016 0.33909 0.37359 -0.37500
F 	F 	0.13829 0.20525 0.33038 -0.35500
F 	F 	0.21130 0.58355 0.30750 -0.37500
F 	F 	0.12842 0.44923 0.26441 -0.37700
C 	C 	0.04492 0.80875 0.35024 0.32200
C 	C 	0.11625 0.81180 0.33683 -0.17500
C 	C 	0.12468 0.82417 0.30540 0.28500
C 	C 	0.06493 0.84031 0.28790 0.31200
C 	C 	0.99696 0.84587 0.30181 -0.21500
C 	C 	0.98542 0.82538 0.33274 0.27400
F 	F 	0.91932 0.82884 0.34633 -0.33900
F 	F 	0.03525 0.79513 0.38056 -0.33800
F 	F 	0.07574 0.85756 0.25780 -0.38200
F 	F 	0.19184 0.82347 0.29196 -0.36400
C 	C 	0.47837 0.08437 0.44970 -0.07000
C 	C 	0.44692 0.98562 0.45245 -0.10800
C 	C 	0.44319 0.94621 0.48126 0.36200
C 	C 	0.47427 0.00463 0.50685 -0.07500
C 	C 	0.51095 0.10285 0.50389 -0.10400
C 	C 	0.51055 0.14293 0.47535 0.34900
F 	F 	0.54487 0.23784 0.47217 -0.40400
H 	H 	0.48089 0.11545 0.42755 0.11800
H 	H 	0.47266 0.97322 0.52891 0.12100
F 	F 	0.41109 0.85118 0.48439 -0.42700
C 	C 	0.94510 0.46732 0.46828 -0.10900
C 	C 	0.95248 0.41851 0.49433 -0.12200
C 	C 	0.02636 0.41097 0.50185 0.39400
C 	C 	0.09337 0.45778 0.48474 -0.07800
C 	C 	0.08712 0.51251 0.46006 -0.10200
C 	C 	0.01205 0.51445 0.45125 0.39400
F 	F 	0.00391 0.56196 0.42624 -0.38100
H 	H 	0.88818 0.47291 0.46217 0.11200
H 	H 	0.15057 0.45347 0.49114 0.11400
F 	F 	0.03437 0.36350 0.52688 -0.38100
C 	C 	0.57799 0.55080 0.45628 -0.07600
C 	C 	0.54782 0.62371 0.45974 -0.10400
C 	C 	0.55127 0.66648 0.48858 0.34100
C 	C 	0.57784 0.63067 0.51407 -0.06500
C 	C 	0.60150 0.55254 0.51081 -0.12400
C 	C 	0.60451 0.51514 0.48170 0.35000
F 	F 	0.63168 0.44300 0.47814 -0.43200
H 	H 	0.57685 0.51841 0.43405 0.12700
H 	H 	0.57773 0.66177 0.53641 0.12200
F 	F 	0.52381 0.73838 0.49219 -0.40500
C 	C 	0.80889 0.08407 0.64789 0.28200
C 	C 	0.81277 0.07686 0.61615 -0.18600
C 	C 	0.84574 0.01452 0.60330 0.29200
C 	C 	0.87446 0.95957 0.62199 0.28500
C 	C 	0.87168 0.96758 0.65379 -0.19300
C 	C 	0.83841 0.02979 0.66667 0.28100
F 	F 	0.83662 0.03945 0.69736 -0.38300
F 	F 	0.77597 0.14328 0.66048 -0.37500
F 	F 	0.90480 0.89806 0.60924 -0.35300
F 	F 	0.84779 0.00526 0.57260 -0.35600
C 	C 	0.30376 0.22657 0.64557 0.28700
C 	C 	0.28435 0.14578 0.66354 -0.17300
C 	C 	0.33581 0.09478 0.66475 0.28400
C 	C 	0.40573 0.12363 0.64809 0.28600
C 	C 	0.42384 0.20221 0.62918 -0.18600
C 	C 	0.37298 0.25447 0.62837 0.29000
F 	F 	0.38860 0.32967 0.60995 -0.35700
F 	F 	0.25381 0.27562 0.64370 -0.34900
F 	F 	0.45548 0.07431 0.64997 -0.38400
F 	F 	0.31730 0.01609 0.68168 -0.34300
C 	C 	0.00813 0.58150 0.66030 0.31800
C 	C 	0.03679 0.67462 0.64986 -0.19400
C 	C 	0.03149 0.68785 0.61851 0.33500
C 	C 	0.97533 0.61716 0.60040 0.24900
C 	C 	0.93065 0.53023 0.61319 -0.17100
C 	C 	0.95243 0.50964 0.64231 0.24800
F 	F 	0.91522 0.42294 0.65403 -0.35800
F 	F 	0.02249 0.56455 0.68965 -0.36400
F 	F 	0.96076 0.63518 0.57118 -0.38600
F 	F 	0.06879 0.77475 0.60695 -0.34000
C 	C 	0.93647 0.56051 0.00471 -0.14400
C 	C 	0.00226 0.62139 0.98942 -0.00700
C 	C 	0.99309 0.64140 0.95879 0.27900
C 	C 	0.92125 0.59366 0.94288 -0.04300
C 	C 	0.85792 0.52618 0.95747 -0.12500
C 	C 	0.86464 0.51245 0.98878 0.38700
F 	F 	0.80337 0.44843 0.00335 -0.40400
H 	H 	0.94277 0.54522 0.02842 0.14200
H 	H 	0.91543 0.60748 0.91902 0.13900
F 	F 	0.05512 0.70379 0.94412 -0.35500
C 	C 	0.48115 0.01388 0.99860 -0.07600
C 	C 	0.46266 0.91565 0.99657 -0.09900
C 	C 	0.48046 0.87533 0.96995 0.35200
C 	C 	0.51377 0.93254 0.94537 -0.06600
C 	C 	0.52845 0.02989 0.94697 -0.10900
C 	C 	0.51334 0.07055 0.97389 0.35600
F 	F 	0.52824 0.16482 0.97587 -0.40800
H 	H 	0.46956 0.04622 0.01921 0.12100
H 	H 	0.52478 0.90049 0.92459 0.11900
F 	F 	0.46234 0.78050 0.96734 -0.41300
C 	C 	0.42041 0.41188 0.99274 -0.06500
C 	C 	0.35468 0.44060 0.99017 -0.11100
C 	C 	0.31279 0.42974 0.96211 0.35700
C 	C 	0.34006 0.39647 0.93643 -0.06500
C 	C 	0.40871 0.37335 0.93869 -0.12000
C 	C 	0.44716 0.37792 0.96715 0.34100
F 	F 	0.51283 0.35379 0.96965 -0.45900
H 	H 	0.45252 0.41914 0.01435 0.12500
H 	H 	0.30977 0.39237 0.91457 0.12900
F 	F 	0.24879 0.45699 0.95932 -0.46500
C 	C 	0.91632 0.19009 0.85194 0.28800
C 	C 	0.86650 0.22985 0.83697 -0.18000
C 	C 	0.88784 0.27015 0.80843 0.28500
C 	C 	0.95188 0.25895 0.79327 0.29000
C 	C 	0.99307 0.20489 0.80618 -0.21700
C 	C 	0.98092 0.18019 0.83685 0.27400
F 	F 	0.02503 0.13511 0.85063 -0.32200
F 	F 	0.90105 0.15896 0.88074 -0.36500
F 	F 	0.96720 0.29012 0.76448 -0.37500
F 	F 	0.84390 0.31546 0.79465 -0.36300
C 	C 	0.30083 0.98401 0.77491 0.27500
C 	C 	0.23044 0.98005 0.78933 -0.17200
C 	C 	0.22738 0.97223 0.82116 0.28400
C 	C 	0.29759 0.98671 0.83833 0.29300
C 	C 	0.37118 0.01181 0.82388 -0.18400
C 	C 	0.37145 0.00151 0.79217 0.28700
F 	F 	0.44130 0.01762 0.77794 -0.37200
F 	F 	0.30212 0.97784 0.74413 -0.35000
F 	F 	0.29562 0.98738 0.86918 -0.35200
F 	F 	0.15802 0.95748 0.83561 -0.33000
C 	C 	0.71499 0.64277 0.83303 0.29000
C 	C 	0.75443 0.59253 0.84918 -0.20100
C 	C 	0.83459 0.60745 0.84342 0.29100
C 	C 	0.87471 0.67102 0.82134 0.28400
C 	C 	0.83458 0.71884 0.80445 -0.18700
C 	C 	0.75483 0.70546 0.81060 0.28500
F 	F 	0.71613 0.75329 0.79489 -0.36200
F 	F 	0.63737 0.62857 0.83840 -0.37200
F 	F 	0.95207 0.68434 0.81577 -0.36800
F 	F 	0.87290 0.55832 0.85868 -0.37600
