data_crystal

_cell_length_a 17.01877
_cell_length_b 14.35647
_cell_length_c 37.96116
_cell_angle_alpha 89.87704
_cell_angle_beta  89.87980
_cell_angle_gamma 119.41516

_symmetry_space_group_name_	'P 1'
_symmetry_space_group_name_H-M	'P 1'

loop_
_symmetry_equiv_pos_as_xyz
  x,y,z

loop_
_atom_site_label
_atom_site_type_symbol
_atom_site_fract_x
_atom_site_fract_y
_atom_site_fract_z
_atom_site_charge
Ni	Ni	0.12180 0.96867 0.74964 1.13900
Ni	Ni	0.14034 0.19779 0.72467 1.12700
O 	O 	0.07956 0.06745 0.75103 -0.72800
H 	H 	0.09962 0.09761 0.77473 0.16600
C 	C 	0.03307 0.35830 0.48951 -0.01900
H 	H 	0.06116 0.34738 0.46528 0.07300
Br	Br	0.07828 0.74071 0.68640 -0.13700
C 	C 	0.08690 0.55147 0.00950 -0.06200
C 	C 	0.05701 0.44652 0.95541 -0.00800
H 	H 	0.07825 0.43708 0.92933 0.06300
O 	O 	0.13040 0.97831 0.69525 -0.31400
C 	C 	0.03604 0.06892 0.18849 0.32100
C 	C 	0.04146 0.15626 0.28553 0.33700
Ni	Ni	0.05052 0.96760 0.25465 1.13900
O 	O 	0.04751 0.99191 0.20200 -0.31600
C 	C 	0.03342 0.12555 0.12551 0.11400
C 	C 	0.08257 0.12044 0.15482 -0.08800
C 	C 	0.07965 0.17494 0.09396 0.11000
C 	C 	0.03108 0.61325 0.21678 0.10900
C 	C 	0.01792 0.69361 0.20076 -0.08900
C 	C 	0.04420 0.25121 0.34109 0.12100
Br	Br	0.01066 0.37426 0.39267 -0.17700
C 	C 	0.09012 0.43385 0.51421 -0.08400
C 	C 	0.05446 0.43515 0.54791 0.12200
Br	Br	0.03120 0.37405 0.67782 -0.16400
C 	C 	0.11273 0.53941 0.97490 0.08200
O 	O 	0.05132 0.15600 0.68441 -0.34600
C 	C 	0.15501 0.58346 0.03723 0.31000
O 	O 	0.04640 0.82815 0.24358 -0.34800
O 	O 	0.04920 0.92689 0.30567 -0.33000
Br	Br	0.02557 0.82149 0.14070 -0.13800
C 	C 	0.08974 0.24470 0.31080 -0.09300
C 	C 	0.08419 0.34309 0.36200 0.10800
C 	C 	0.11482 0.49652 0.57809 -0.22300
H 	H 	0.07570 0.50533 0.60004 0.12000
Br	Br	0.15168 0.12249 0.60385 -0.17500
O 	O 	0.08348 0.27637 0.75098 -0.33300
O 	O 	0.09916 0.95090 0.80382 -0.31700
H 	H 	0.14810 0.45238 0.58842 0.10000
Br	Br	0.17725 0.90122 0.86240 -0.12000
Br	Br	0.08733 0.75787 0.93558 -0.18600
Br	Br	0.11342 0.49292 0.76830 -0.12000
C 	C 	0.06332 0.74006 0.16947 0.10200
C 	C 	0.17631 0.15971 0.15108 0.10600
Br	Br	0.24568 0.14912 0.18953 -0.17500
H 	H 	0.19701 0.63067 0.93133 0.11100
C 	C 	0.27838 0.18229 0.76936 0.32200
C 	C 	0.19248 0.06390 0.67940 0.30800
O 	O 	0.25408 0.09134 0.75306 -0.35400
O 	O 	0.24438 0.24533 0.76004 -0.33400
O 	O 	0.21795 0.15977 0.69251 -0.33700
C 	C 	0.13019 0.74147 0.42533 0.31100
C 	C 	0.17155 0.52946 0.50106 0.28700
C 	C 	0.22060 0.50600 0.38287 0.33600
O 	O 	0.17979 0.79323 0.45357 -0.33900
O 	O 	0.16142 0.70273 0.40037 -0.35100
O 	O 	0.22935 0.48265 0.41598 -0.37100
O 	O 	0.17360 0.62311 0.50290 -0.35500
O 	O 	0.24460 0.52224 0.49236 -0.37300
H 	H 	0.21263 0.62742 0.44129 0.16400
C 	C 	0.19075 0.59817 0.15007 0.34000
C 	C 	0.21060 0.35199 0.08499 0.34000
O 	O 	0.20184 0.68278 0.04898 -0.35400
O 	O 	0.25456 0.57877 0.16142 -0.32000
O 	O 	0.18367 0.60636 0.11665 -0.37100
O 	O 	0.20855 0.41351 0.10918 -0.36500
O 	O 	0.26142 0.39560 0.05666 -0.36700
O 	O 	0.17871 0.51461 0.04606 -0.38800
O 	O 	0.08810 0.12327 0.26599 -0.35400
C 	C 	0.22052 0.21242 0.11972 0.09800
C 	C 	0.17379 0.23785 0.09416 -0.11100
C 	C 	0.13812 0.73031 0.15980 0.11200
C 	C 	0.14819 0.64448 0.17328 -0.10000
C 	C 	0.09294 0.58478 0.20190 0.10900
Br	Br	0.22970 0.83982 0.13071 -0.24000
Br	Br	0.09886 0.46273 0.21975 -0.14000
C 	C 	0.17879 0.32770 0.30380 0.11000
C 	C 	0.22406 0.40804 0.32900 0.10900
C 	C 	0.17579 0.41774 0.35766 -0.09900
Br	Br	0.23439 0.34193 0.25822 -0.13000
C 	C 	0.06282 0.85621 0.41342 0.09400
C 	C 	0.05121 0.75350 0.41649 -0.08200
C 	C 	0.04148 0.88672 0.38122 0.13200
Br	Br	0.08070 0.03539 0.37312 -0.20800
H 	H 	0.27580 0.14860 0.45715 0.11000
H 	H 	0.25373 0.04361 0.42641 0.11000
H 	H 	0.16558 0.57845 0.56988 0.10500
H 	H 	0.32378 0.53963 0.60223 0.10100
H 	H 	0.28687 0.51579 0.55711 0.09700
C 	C 	0.24368 0.08735 0.61648 0.10100
C 	C 	0.24632 0.05188 0.65086 -0.08500
C 	C 	0.20291 0.61933 0.95996 -0.20400
H 	H 	0.25129 0.58929 0.96347 0.07600
H 	H 	0.22888 0.69843 0.97275 0.10800
H 	H 	0.33897 0.96830 0.03692 0.10800
H 	H 	0.29661 0.87903 0.99955 0.10100
H 	H 	0.37540 0.25739 0.99974 0.09300
H 	H 	0.31919 0.33606 0.00102 0.09100
H 	H 	0.34557 0.29039 0.04116 0.11900
C 	C 	0.34398 0.20296 0.82881 0.10200
Br	Br	0.23706 0.19126 0.85057 -0.18300
Ni	Ni	0.28991 0.71966 0.09069 1.13600
H 	H 	0.27200 0.02727 0.47254 0.10400
Br	Br	0.31368 0.15792 0.54575 -0.22000
H 	H 	0.33912 0.01941 0.99341 0.07500
C 	C 	0.35775 0.22266 0.79240 -0.09300
Ni	Ni	0.27434 0.76347 0.48069 1.11700
Ni	Ni	0.32411 0.58864 0.44829 1.12500
Ni	Ni	0.29262 0.74172 0.39638 1.13000
O 	O 	0.35960 0.74699 0.51784 -0.35100
O 	O 	0.26520 0.60540 0.37038 -0.35300
O 	O 	0.27678 0.68217 0.44240 -0.72200
Ni	Ni	0.32827 0.53801 0.12501 1.12300
Ni	Ni	0.30564 0.55356 0.04128 1.12200
O 	O 	0.35017 0.69814 0.01479 -0.37600
O 	O 	0.33386 0.62213 0.08569 -0.71400
Br	Br	0.34347 0.24771 0.11193 -0.19200
Br	Br	0.35229 0.50231 0.32455 -0.13400
Br	Br	0.06682 0.93129 0.45567 -0.15700
C 	C 	0.29244 0.08504 0.45033 -0.22000
C 	C 	0.33479 0.57645 0.57562 -0.21800
H 	H 	0.32198 0.64492 0.57765 0.10800
C 	C 	0.30409 0.00936 0.65807 0.09000
C 	C 	0.30907 0.09760 0.59152 0.10400
Br	Br	0.30670 0.95466 0.70419 -0.12100
C 	C 	0.34891 0.95943 0.00846 -0.18500
C 	C 	0.36967 0.32069 0.01440 -0.21500
C 	C 	0.40876 0.19358 0.84933 0.10800
Br	Br	0.38583 0.15560 0.89852 -0.19700
C 	C 	0.36516 0.01444 0.63203 0.08700
C 	C 	0.41678 0.71250 0.51027 0.30500
C 	C 	0.37616 0.95047 0.43225 0.35000
O 	O 	0.38013 0.90880 0.46269 -0.35900
O 	O 	0.31745 0.89111 0.40855 -0.37100
C 	C 	0.40158 0.79706 0.02803 0.30400
O 	O 	0.40938 0.48542 0.09620 -0.32600
O 	O 	0.43034 0.58186 0.04463 -0.39000
O 	O 	0.38879 0.82173 0.06009 -0.37000
O 	O 	0.37578 0.77958 0.13455 -0.31500
H 	H 	0.39878 0.67302 0.08370 0.18100
C 	C 	0.39112 0.13047 0.44306 0.11500
H 	H 	0.43027 0.28249 0.46768 0.06500
C 	C 	0.42894 0.61331 0.56308 0.10300
H 	H 	0.43900 0.48667 0.59012 0.07000
C 	C 	0.37792 0.07553 0.60148 -0.09900
C 	C 	0.44233 0.97538 0.00239 0.14400
C 	C 	0.45960 0.42098 0.01474 0.09100
H 	H 	0.46622 0.43193 0.95818 0.06300
C 	C 	0.44056 0.24322 0.77738 0.10900
Br	Br	0.46308 0.27919 0.72802 -0.13500
C 	C 	0.44871 0.52086 0.06426 0.30000
C 	C 	0.47099 0.15378 0.59148 0.32000
O 	O 	0.41219 0.63506 0.40766 -0.35600
O 	O 	0.42837 0.69321 0.47770 -0.37700
C 	C 	0.44692 0.76487 0.14125 0.30800
O 	O 	0.43699 0.66846 0.14457 -0.35300
Br	Br	0.46278 0.89072 0.21774 -0.12400
C 	C 	0.45275 0.23635 0.45231 -0.03800
C 	C 	0.42423 0.06726 0.42762 -0.11800
C 	C 	0.47484 0.56005 0.57500 -0.03800
C 	C 	0.47097 0.69785 0.53835 -0.08000
Br	Br	0.43780 0.94749 0.63962 -0.10200
C 	C 	0.45880 0.88792 0.00452 -0.09500
C 	C 	0.51435 0.07933 0.99652 -0.08200
H 	H 	0.50152 0.14628 0.99634 0.06600
C 	C 	0.50127 0.46735 0.98257 -0.03900
C 	C 	0.49857 0.47617 0.04645 -0.07100
C 	C 	0.50582 0.23539 0.79804 0.10400
C 	C 	0.49337 0.21953 0.83474 -0.09100
O 	O 	0.50304 0.25065 0.60469 -0.35100
O 	O 	0.42647 0.79832 0.39503 -0.36600
O 	O 	0.52554 0.12008 0.57793 -0.35400
C 	C 	0.46223 0.73545 0.39757 0.33900
C 	C 	0.56505 0.59784 0.56557 -0.06500
C 	C 	0.57275 0.27451 0.85774 0.32100
O 	O 	0.58846 0.36753 0.86998 -0.36100
O 	O 	0.56466 0.20993 0.50547 -0.37400
C 	C 	0.53289 0.85188 0.15391 -0.08300
C 	C 	0.54234 0.85994 0.19045 0.10700
Br	Br	0.54381 0.56523 0.38987 -0.16500
C 	C 	0.54504 0.27057 0.44980 -0.07200
C 	C 	0.51112 0.11855 0.41304 -0.02200
C 	C 	0.56476 0.74552 0.53370 -0.02500
C 	C 	0.54411 0.90393 0.99512 0.01800
C 	C 	0.59419 0.53701 0.98164 -0.07600
C 	C 	0.05581 0.86337 0.87601 0.09900
C 	C 	0.60206 0.52336 0.56604 0.28600
H 	H 	0.58736 0.32765 0.55272 0.16800
C 	C 	0.59206 0.54283 0.04619 -0.03900
C 	C 	0.59276 0.29196 0.48323 0.29200
O 	O 	0.61989 0.49255 0.59705 -0.32400
C 	C 	0.61277 0.69822 0.54843 0.10000
C 	C 	0.59960 0.09599 0.98647 -0.05200
H 	H 	0.55778 0.83782 0.99710 0.05700
C 	C 	0.64391 0.50480 0.95800 0.29900
O 	O 	0.66672 0.54372 0.92471 -0.33100
O 	O 	0.66531 0.43644 0.97130 -0.39400
H 	H 	0.65052 0.34096 0.92155 0.18400
Ni	Ni	0.63828 0.35780 0.60828 1.13400
O 	O 	0.62986 0.50398 0.53573 -0.37300
C 	C 	0.59592 0.82249 0.20691 0.10400
C 	C 	0.60885 0.86648 0.13486 0.10100
Br	Br	0.55135 0.74102 0.24917 -0.13700
C 	C 	0.56878 0.69389 0.36475 0.12000
C 	C 	0.55090 0.76961 0.38060 -0.10200
C 	C 	0.57186 0.22403 0.42309 0.10000
H 	H 	0.53161 0.07647 0.39492 0.06600
H 	H 	0.59940 0.81513 0.51677 0.06900
C 	C 	0.61438 0.00651 0.98578 0.06000
C 	C 	0.63736 0.58511 0.01395 0.10100
H 	H 	0.62641 0.57720 0.07076 0.07400
Br	Br	0.61292 0.24850 0.77610 -0.12600
O 	O 	0.63679 0.24509 0.85785 -0.32000
O 	O 	0.64651 0.33847 0.56044 -0.72200
Ni	Ni	0.63744 0.20723 0.54610 1.12500
Br	Br	0.62244 0.60819 0.30674 -0.14600
C 	C 	0.65501 0.18986 0.96375 0.28100
O 	O 	0.64553 0.17355 0.92956 -0.37000
O 	O 	0.65561 0.23337 0.62945 -0.32500
Br	Br	0.61852 0.90273 0.08575 -0.18200
Br	Br	0.67071 0.47545 0.66829 -0.24000
O 	O 	0.67303 0.38018 0.48658 -0.36000
C 	C 	0.62070 0.72117 0.33387 0.11100
Br	Br	0.66586 0.96485 0.61078 -0.14100
Ni	Ni	0.71502 0.48332 0.88267 1.12100
C 	C 	0.66386 0.81603 0.18707 -0.09300
C 	C 	0.66776 0.83487 0.15031 0.11300
C 	C 	0.60830 0.87816 0.37305 0.11100
O 	O 	0.71455 0.38290 0.91464 -0.71700
C 	C 	0.71370 0.75220 0.54413 -0.21000
Br	Br	0.73159 0.67890 0.72393 -0.12900
O 	O 	0.72295 0.28089 0.97743 -0.37000
Br	Br	0.63894 0.98055 0.41015 -0.17600
C 	C 	0.66842 0.27644 0.41107 -0.21400
H 	H 	0.69876 0.36484 0.41137 0.12500
Ni	Ni	0.72544 0.46086 0.53260 1.12600
C 	C 	0.66943 0.82994 0.32261 -0.08400
C 	C 	0.71422 0.20767 0.61618 0.33400
C 	C 	0.65925 0.90768 0.34176 0.12900
H 	H 	0.74515 0.73817 0.56770 0.11700
C 	C 	0.73600 0.66693 0.01463 -0.21800
Br	Br	0.77426 0.79969 0.92078 -0.20000
H 	H 	0.73096 0.72070 0.52042 0.09800
H 	H 	0.74289 0.84007 0.54112 0.10800
C 	C 	0.70611 0.02002 0.97749 -0.24200
H 	H 	0.67301 0.25194 0.38374 0.11600
O 	O 	0.72362 0.20473 0.58211 -0.37900
H 	H 	0.69948 0.94591 0.96556 0.13300
Ni	Ni	0.73590 0.27462 0.89619 1.13800
H 	H 	0.74993 0.72547 0.03609 0.11300
H 	H 	0.75742 0.71200 0.98957 0.11900
H 	H 	0.74510 0.03563 0.00225 0.10000
H 	H 	0.70737 0.25275 0.42881 0.10700
O 	O 	0.74475 0.26187 0.51343 -0.38200
Ni	Ni	0.77611 0.43671 0.95766 1.12200
O 	O 	0.76032 0.44042 0.83584 -0.32400
H 	H 	0.77652 0.62658 0.01913 0.09400
Br	Br	0.01788 0.70785 0.59958 -0.16300
C 	C 	0.74589 0.82612 0.20495 0.33000
H 	H 	0.74439 0.08546 0.95840 0.10600
O 	O 	0.74022 0.75848 0.23001 -0.33100
C 	C 	0.76819 0.08066 0.63367 0.08800
C 	C 	0.78212 0.60708 0.66109 0.12000
O 	O 	0.77527 0.44622 0.60987 -0.36600
Br	Br	0.74069 0.79800 0.12091 -0.15900
C 	C 	0.76984 0.17906 0.63927 -0.09000
Br	Br	0.74914 0.15757 0.84208 -0.26300
Br	Br	0.78776 0.07528 0.76433 -0.18500
C 	C 	0.74737 0.86264 0.29844 0.33100
O 	O 	0.79117 0.57286 0.57174 -0.36000
Br	Br	0.70511 0.05036 0.32364 -0.19200
O 	O 	0.76475 0.93478 0.27255 -0.31500
C 	C 	0.81481 0.67684 0.68966 0.11500
C 	C 	0.80952 0.54579 0.60255 0.34900
O 	O 	0.83423 0.60133 0.94979 -0.36300
C 	C 	0.81693 0.25574 0.80489 0.12200
H 	H 	0.81831 0.16175 0.47952 0.09700
H 	H 	0.82145 0.31182 0.03028 0.09000
C 	C 	0.82169 0.40932 0.83807 0.34500
O 	O 	0.79265 0.81056 0.30150 -0.35400
O 	O 	0.82198 0.91228 0.19935 -0.34200
C 	C 	0.82348 0.34307 0.52213 0.31200
O 	O 	0.83080 0.43546 0.53101 -0.36700
Br	Br	0.83825 0.93233 0.63756 -0.13700
H 	H 	0.85271 0.27343 0.44950 0.11200
C 	C 	0.84078 0.06653 0.64511 0.08400
C 	C 	0.84110 0.62159 0.63222 -0.11000
C 	C 	0.02135 0.93075 0.81846 0.31900
O 	O 	0.84737 0.59151 0.89088 -0.36800
O 	O 	0.83560 0.27938 0.92829 -0.36200
Br	Br	0.83288 0.37576 0.67854 -0.14800
O 	O 	0.83884 0.38597 0.86857 -0.37000
C 	C 	0.84305 0.26035 0.65778 0.10200
H 	H 	0.83839 0.22239 0.00155 0.10200
C 	C 	0.84920 0.36777 0.80735 -0.09800
C 	C 	0.85805 0.21884 0.78158 0.11300
C 	C 	0.86992 0.64787 0.91923 0.34600
Ni	Ni	0.84811 0.77558 0.26078 1.13100
C 	C 	0.87702 0.23080 0.46690 -0.20700
Br	Br	0.88680 0.99376 0.86098 -0.13300
C 	C 	0.87172 0.29126 0.01958 -0.22000
C 	C 	0.88799 0.82420 0.90242 0.11200
C 	C 	0.01856 0.80197 0.90699 0.13000
O 	O 	0.88829 0.45321 0.93751 -0.39000
Br	Br	0.90636 0.07652 0.12945 -0.19100
Ni	Ni	0.88371 0.01365 0.24053 1.10600
H 	H 	0.91224 0.19824 0.45063 0.10600
C 	C 	0.90045 0.37230 0.93968 0.32300
H 	H 	0.89976 0.26764 0.04202 0.11200
C 	C 	0.00994 0.23254 0.77171 0.34200
C 	C 	0.90795 0.73692 0.69510 -0.09000
O 	O 	0.90394 0.73695 0.22046 -0.35100
Br	Br	0.83224 0.59212 0.34820 -0.15300
O 	O 	0.91648 0.89316 0.72111 -0.33500
C 	C 	0.90376 0.33000 0.52463 -0.07800
C 	C 	0.91509 0.15008 0.66239 -0.08900
C 	C 	0.91968 0.25031 0.66494 0.09200
C 	C 	0.92772 0.76486 0.91543 -0.12200
C 	C 	0.92854 0.89561 0.87389 0.08700
O 	O 	0.92468 0.08749 0.71930 -0.36100
O 	O 	0.92665 0.92638 0.25886 -0.71100
C 	C 	0.93446 0.68699 0.63714 0.11200
C 	C 	0.93887 0.30631 0.49443 0.08800
C 	C 	0.93186 0.43696 0.79032 0.11200
H 	H 	0.92774 0.94643 0.28368 0.17100
C 	C 	0.94252 0.82130 0.72174 0.33300
O 	O 	0.92959 0.75740 0.29635 -0.33500
C 	C 	0.94605 0.38630 0.00122 0.09500
H 	H 	0.93271 0.38216 0.57840 0.07300
O 	O 	0.95134 0.91495 0.79833 -0.33100
Br	Br	0.91642 0.53201 0.41891 -0.18800
C 	C 	0.95089 0.28336 0.77444 -0.09800
Ni	Ni	0.95406 0.01099 0.75715 1.11900
Br	Br	0.92988 0.13233 0.35554 -0.18200
C 	C 	0.96102 0.37724 0.55329 -0.04800
C 	C 	0.94586 0.69773 0.36782 0.11000
O 	O 	0.95697 0.12841 0.27772 -0.35300
Br	Br	0.01497 0.16695 0.05172 -0.19400
Br	Br	0.96549 0.54379 0.25906 -0.15900
C 	C 	0.96717 0.38082 0.96559 -0.10800
O 	O 	0.00157 0.82767 0.74475 -0.32900
C 	C 	0.00489 0.90139 0.85704 -0.06200
Br	Br	0.97255 0.58785 0.78793 -0.14600
C 	C 	0.96434 0.12243 0.68872 0.32200
C 	C 	0.96708 0.72998 0.67058 0.10300
H 	H 	0.97704 0.48779 0.04660 0.06300
C 	C 	0.97955 0.67171 0.39805 0.10000
O 	O 	0.98275 0.13856 0.78710 -0.36900
C 	C 	0.98816 0.80623 0.35634 -0.09600
C 	C 	0.98495 0.83372 0.31836 0.30900
C 	C 	0.98783 0.75523 0.22228 0.32800
O 	O 	0.99064 0.10678 0.20599 -0.34300
C 	C 	0.99821 0.48079 0.02022 -0.05300
C 	C 	0.98765 0.39589 0.77763 0.10300
