data_crystal

_cell_length_a 18.62963
_cell_length_b 17.12800
_cell_length_c 45.27399
_cell_angle_alpha 89.62060
_cell_angle_beta  89.63116
_cell_angle_gamma 119.42165

_symmetry_space_group_name_	'P 1'
_symmetry_space_group_name_H-M	'P 1'

loop_
_symmetry_equiv_pos_as_xyz
  x,y,z

loop_
_atom_site_label
_atom_site_type_symbol
_atom_site_fract_x
_atom_site_fract_y
_atom_site_fract_z
_atom_site_charge
O 	O 	0.05488 0.90736 0.69125 -0.36200
O 	O 	0.01233 0.15823 0.75792 -0.35800
O 	O 	0.03170 0.02699 0.73173 -0.70600
H 	H 	0.03221 0.03315 0.75333 0.15700
O 	O 	0.96496 0.91927 0.26451 -0.35900
O 	O 	0.97561 0.84454 0.21111 -0.38400
O 	O 	0.99251 0.02841 0.21563 -0.71000
H 	H 	0.99942 0.05201 0.23577 0.15000
H 	H 	0.03401 0.13705 0.04030 0.07300
H 	H 	0.99258 0.71955 0.08316 0.05600
C 	C 	0.01962 0.56846 0.43601 -0.05900
H 	H 	0.01657 0.75987 0.45459 0.03800
C 	C 	0.03369 0.51844 0.93543 -0.00400
H 	H 	0.05549 0.71987 0.86101 0.06200
Ni	Ni	0.10491 0.98188 0.72901 1.10500
Ni	Ni	0.06839 0.14816 0.72118 1.12300
O 	O 	0.06817 0.21646 0.20986 -0.34400
C 	C 	0.05480 0.09379 0.09664 -0.04200
O 	O 	0.01008 0.80061 0.13665 -0.18100
C 	C 	0.08089 0.31268 0.32658 -0.08600
O 	O 	0.06884 0.27748 0.27405 -0.18800
H 	H 	0.06921 0.37690 0.38049 0.05900
S 	S 	0.02059 0.69734 0.47250 -0.01000
C 	C 	0.09567 0.46763 0.98346 -0.03000
H 	H 	0.06505 0.80800 0.80808 0.05200
O 	O 	0.11405 0.13507 0.68202 -0.37500
C 	C 	0.07638 0.11211 0.15130 0.27300
C 	C 	0.11354 0.21700 0.23244 0.25600
C 	C 	0.01856 0.86603 0.18643 0.28500
C 	C 	0.04627 0.96187 0.26791 0.26000
C 	C 	0.09344 0.14435 0.04592 -0.08300
C 	C 	0.00167 0.68691 0.10221 -0.06400
H 	H 	0.04087 0.61560 0.05545 0.04800
C 	C 	0.11529 0.32387 0.29823 0.12200
C 	C 	0.13322 0.33416 0.35102 0.01400
C 	C 	0.12270 0.36935 0.37595 -0.05500
O 	O 	0.03435 0.94379 0.32298 -0.17500
C 	C 	0.10920 0.58058 0.94778 0.03700
H 	H 	0.12058 0.44687 0.00142 0.06900
C 	C 	0.10403 0.10954 0.12094 0.04900
C 	C 	0.11052 0.61756 0.43654 0.30100
Ni	Ni	0.10212 0.05019 0.20894 1.12600
O 	O 	0.07434 0.94955 0.18061 -0.37300
O 	O 	0.12820 0.13215 0.17319 -0.35200
C 	C 	0.10439 0.11109 0.07292 0.01100
C 	C 	0.02322 0.72992 0.12945 0.10900
C 	C 	0.99605 0.60222 0.09987 -0.01900
C 	C 	0.01346 0.79516 0.16741 0.04300
C 	C 	0.02204 0.57713 0.07592 -0.04000
C 	C 	0.13201 0.28166 0.25610 0.04800
H 	H 	0.03689 0.88633 0.37847 0.06600
C 	C 	0.13986 0.55564 0.97231 -0.06700
H 	H 	0.13961 0.74358 0.94521 0.04700
C 	C 	0.17616 0.11944 0.67967 0.27300
O 	O 	0.15186 0.68643 0.41868 -0.38800
O 	O 	0.09698 0.97643 0.24510 -0.37300
O 	O 	0.14549 0.16275 0.23339 -0.36300
C 	C 	0.16305 0.19850 0.02834 0.11900
O 	O 	0.16356 0.26265 0.00932 -0.18600
C 	C 	0.08017 0.98722 0.29768 0.03600
S 	S 	0.16467 0.68889 0.93217 -0.01700
O 	O 	0.16934 0.06435 0.76388 -0.34900
O 	O 	0.19431 0.08078 0.70142 -0.34200
O 	O 	0.14870 0.58471 0.45242 -0.36100
C 	C 	0.20062 0.42642 0.38642 0.04900
C 	C 	0.09551 0.98612 0.34395 0.09600
C 	C 	0.09327 0.94447 0.37095 -0.07100
C 	C 	0.01061 0.56173 0.12399 0.13300
C 	C 	0.03591 0.68877 0.15333 0.02100
C 	C 	0.19231 0.15092 0.76419 0.26100
O 	O 	0.17946 0.19065 0.74115 -0.36700
C 	C 	0.18223 0.13707 0.08350 0.11900
O 	O 	0.18614 0.13611 0.11420 -0.18300
C 	C 	0.02906 0.72896 0.17753 -0.05600
C 	C 	0.05489 0.52523 0.08609 0.03300
C 	C 	0.21719 0.36864 0.34732 0.12000
C 	C 	0.19839 0.35543 0.29470 0.01300
C 	C 	0.20953 0.32790 0.26828 -0.05400
H 	H 	0.19071 0.24524 0.63594 0.05800
C 	C 	0.02473 0.60201 0.15183 -0.09100
H 	H 	0.01899 0.70245 0.19989 0.06300
H 	H 	0.01548 0.28809 0.32955 0.07300
C 	C 	0.21631 0.50751 0.40225 0.25400
C 	C 	0.22352 0.61551 0.98357 0.30100
O 	O 	0.04411 0.50784 0.11644 -0.18000
H 	H 	0.13515 0.84913 0.40901 0.05300
C 	C 	0.22979 0.15234 0.65337 0.04600
O 	O 	0.25204 0.52331 0.42858 -0.35300
C 	C 	0.12584 0.52762 0.07086 0.28200
O 	O 	0.15226 0.57211 0.04607 -0.38800
C 	C 	0.24063 0.21888 0.03789 0.01300
C 	C 	0.25053 0.37448 0.31898 -0.08600
C 	C 	0.16036 0.05167 0.30290 -0.04900
C 	C 	0.23362 0.21971 0.63533 -0.05600
H 	H 	0.03519 0.57066 0.17093 0.07500
O 	O 	0.17991 0.55280 0.39268 -0.37200
O 	O 	0.23801 0.68431 0.00021 -0.38100
C 	C 	0.24641 0.32835 0.01099 0.04400
O 	O 	0.26370 0.42578 0.36974 -0.19600
H 	H 	0.26091 0.31769 0.26258 0.06000
C 	C 	0.17004 0.05105 0.33225 0.03300
O 	O 	0.26975 0.10785 0.64194 -0.18200
C 	C 	0.02080 0.40524 0.97095 0.05400
Ni	Ni	0.23486 0.68900 0.38897 1.12000
O 	O 	0.22513 0.43829 0.03456 -0.36800
C 	C 	0.25188 0.19161 0.06607 -0.08800
C 	C 	0.16753 0.97211 0.38600 -0.01300
C 	C 	0.18172 0.91714 0.40328 -0.04800
C 	C 	0.27785 0.22172 0.61168 0.01200
H 	H 	0.25829 0.30689 0.58105 0.06900
O 	O 	0.27038 0.81849 0.38083 -0.36900
C 	C 	0.26599 0.42164 0.01441 0.27100
H 	H 	0.20997 0.07667 0.28668 0.06000
C 	C 	0.29812 0.15551 0.61547 0.12000
C 	C 	0.27550 0.25535 0.58365 -0.08300
C 	C 	0.25375 0.20716 0.78566 0.05100
O 	O 	0.17253 0.50351 0.08535 -0.34400
O 	O 	0.28267 0.59756 0.97762 -0.37800
Ni	Ni	0.27624 0.63568 0.45364 1.11300
O 	O 	0.23508 0.20005 0.81590 -0.18700
C 	C 	0.29347 0.29939 0.02598 -0.05900
H 	H 	0.31594 0.39943 0.31587 0.06900
C 	C 	0.32320 0.12407 0.59125 -0.08600
C 	C 	0.30653 0.22938 0.55955 0.11700
C 	C 	0.32797 0.16309 0.56328 0.01700
O 	O 	0.29008 0.74371 0.47915 -0.36600
Ni	Ni	0.26249 0.68490 0.04351 1.11800
H 	H 	0.31287 0.22056 0.07550 0.07000
C 	C 	0.24480 0.07197 0.34578 -0.09500
H 	H 	0.34136 0.07339 0.59417 0.07200
C 	C 	0.24243 0.03237 0.37325 0.14100
O 	O 	0.31223 0.70288 0.41829 -0.71600
O 	O 	0.33525 0.48719 0.00311 -0.36500
C 	C 	0.26444 0.94437 0.40025 0.02900
H 	H 	0.29263 0.92491 0.47356 0.05700
C 	C 	0.29223 0.87820 0.40187 0.27600
H 	H 	0.37302 0.46729 0.41834 0.05600
O 	O 	0.34974 0.28949 0.53681 -0.18500
O 	O 	0.31359 0.69506 0.35690 -0.36000
H 	H 	0.33588 0.66968 0.40833 0.15000
Ni	Ni	0.28504 0.52070 0.06940 1.11400
C 	C 	0.31500 0.24265 0.82665 0.12200
C 	C 	0.33685 0.24851 0.77917 -0.05500
H 	H 	0.28807 0.25688 0.87220 0.07300
O 	O 	0.27113 0.69348 0.08879 -0.36100
H 	H 	0.35217 0.34456 0.03574 0.06100
H 	H 	0.31526 0.12177 0.48474 0.04500
O 	O 	0.32098 0.62024 0.04326 -0.71100
H 	H 	0.36527 0.27183 0.75760 0.06200
H 	H 	0.30282 0.11048 0.33403 0.07400
C 	C 	0.36175 0.81768 0.48052 0.30200
O 	O 	0.39772 0.66639 0.46299 -0.36000
O 	O 	0.30751 0.02062 0.38244 -0.17500
C 	C 	0.34866 0.95170 0.48635 -0.04600
S 	S 	0.44698 0.53265 0.40716 -0.03000
C 	C 	0.37484 0.26966 0.80516 0.01300
C 	C 	0.33479 0.27883 0.85497 -0.08700
Ni	Ni	0.37248 0.62175 0.00638 1.11900
C 	C 	0.37265 0.89314 0.49865 -0.06400
C 	C 	0.38889 0.18139 0.54374 -0.06300
O 	O 	0.36701 0.80281 0.03877 -0.38400
H 	H 	0.01377 0.46946 0.40543 0.05600
O 	O 	0.35165 0.89107 0.42016 -0.37300
S 	S 	0.37305 0.11458 0.46792 -0.00700
C 	C 	0.40518 0.25990 0.52930 0.04600
C 	C 	0.32760 0.68516 0.10439 0.25200
O 	O 	0.00264 0.10229 0.15599 -0.35200
O 	O 	0.33367 0.61119 0.10352 -0.34300
H 	H 	0.37094 0.66392 0.05354 0.15000
H 	H 	0.41420 0.84019 0.56765 0.03700
C 	C 	0.39271 0.75763 0.35662 0.25700
C 	C 	0.40361 0.04420 0.48593 0.06200
O 	O 	0.39176 0.50866 0.06302 -0.36700
Ni	Ni	0.40907 0.81755 0.41886 1.12200
O 	O 	0.42227 0.82922 0.46308 -0.37900
C 	C 	0.45845 0.68986 0.44324 0.28600
O 	O 	0.42570 0.75866 0.00152 -0.36500
C 	C 	0.43708 0.92767 0.51916 0.01600
H 	H 	0.43507 0.16121 0.54712 0.05700
C 	C 	0.43213 0.81662 0.02252 0.27300
S 	S 	0.45564 0.85485 0.54128 -0.03300
C 	C 	0.41735 0.34240 0.86065 0.01500
H 	H 	0.01126 0.53759 0.91628 0.06600
C 	C 	0.83867 0.54013 0.93544 0.25100
C 	C 	0.66022 0.17396 0.99337 0.30500
C 	C 	0.89777 0.37737 0.94020 0.31200
C 	C 	0.61445 0.36976 0.99701 0.28000
C 	C 	0.65086 0.16905 0.90044 0.27900
C 	C 	0.58404 0.34848 0.89903 0.26000
Ni	Ni	0.77040 0.37335 0.97894 1.11000
Ni	Ni	0.59410 0.24202 0.94803 1.12100
Ni	Ni	0.75094 0.36213 0.90737 1.12200
O 	O 	0.84832 0.50379 0.96056 -0.35300
O 	O 	0.78614 0.49168 0.91458 -0.36800
O 	O 	0.58812 0.17665 0.91037 -0.36700
O 	O 	0.70841 0.25400 0.00465 -0.35900
O 	O 	0.63799 0.16642 0.96593 -0.38100
O 	O 	0.64554 0.34076 0.88680 -0.35800
O 	O 	0.84479 0.32870 0.96069 -0.38200
O 	O 	0.87129 0.39772 0.91601 -0.37000
O 	O 	0.55299 0.31241 0.92531 -0.37700
O 	O 	0.69534 0.41316 0.00014 -0.36800
O 	O 	0.57487 0.28476 0.98821 -0.37300
O 	O 	0.72651 0.23531 0.90307 -0.36600
O 	O 	0.70211 0.34284 0.94577 -0.71300
H 	H 	0.68766 0.39088 0.94648 0.15800
C 	C 	0.83677 0.47579 0.54734 0.25400
C 	C 	0.49120 0.32657 0.52348 0.26200
C 	C 	0.65296 0.29033 0.58076 0.27500
C 	C 	0.64967 0.53932 0.48683 0.30400
C 	C 	0.55237 0.16917 0.49402 0.30100
C 	C 	0.77771 0.37428 0.46216 0.28300
Ni	Ni	0.66334 0.44400 0.54328 1.11400
Ni	Ni	0.61344 0.35600 0.47628 1.11900
Ni	Ni	0.71158 0.29451 0.52089 1.11800
O 	O 	0.79090 0.51426 0.54271 -0.35500
O 	O 	0.80480 0.38653 0.54712 -0.36100
O 	O 	0.54261 0.22277 0.47582 -0.38300
O 	O 	0.53704 0.36782 0.54627 -0.35500
O 	O 	0.51598 0.35843 0.49641 -0.36400
O 	O 	0.78656 0.33132 0.48511 -0.37200
O 	O 	0.67436 0.37582 0.58010 -0.35000
O 	O 	0.63533 0.24538 0.55622 -0.38800
O 	O 	0.70347 0.35177 0.45164 -0.36700
O 	O 	0.65077 0.53711 0.51616 -0.36400
O 	O 	0.67057 0.48980 0.47090 -0.39200
O 	O 	0.62759 0.18447 0.49961 -0.37800
O 	O 	0.67274 0.37576 0.51211 -0.71100
H 	H 	0.72459 0.42425 0.50401 0.14100
C 	C 	0.97592 0.85212 0.68821 0.26700
C 	C 	0.97089 0.87312 0.77551 0.24700
C 	C 	0.93082 0.07445 0.67936 0.29500
C 	C 	0.93349 0.10076 0.76400 0.25000
Ni	Ni	0.91712 0.94922 0.72642 1.11400
O 	O 	0.90883 0.99012 0.68526 -0.38500
O 	O 	0.92336 0.84342 0.70914 -0.36000
O 	O 	0.88647 0.03649 0.74525 -0.34500
O 	O 	0.02699 0.87318 0.75693 -0.34900
O 	O 	0.91399 0.89303 0.76630 -0.35600
O 	O 	0.97084 0.13681 0.69900 -0.38100
O 	O 	0.42060 0.82750 0.37436 -0.36300
O 	O 	0.47421 0.75178 0.42244 -0.37500
C 	C 	0.45624 0.55714 0.04522 0.29600
O 	O 	0.46467 0.62953 0.03148 -0.38800
C 	C 	0.84912 0.01994 0.25181 0.27200
C 	C 	0.82263 0.92790 0.17466 0.26000
Ni	Ni	0.95727 0.10345 0.19806 1.11300
Ni	Ni	0.91395 0.90704 0.22444 1.11900
O 	O 	0.89713 0.09719 0.23783 -0.35400
O 	O 	0.83068 0.94221 0.23961 -0.37500
O 	O 	0.84091 0.00798 0.18402 -0.34100
O 	O 	0.86420 0.88849 0.18360 -0.37200
H 	H 	0.99753 0.09577 0.09666 0.06000
C 	C 	0.64375 0.86357 0.13446 0.12000
C 	C 	0.59257 0.89162 0.12108 -0.09000
C 	C 	0.51048 0.85385 0.13110 0.01400
C 	C 	0.48085 0.79124 0.15389 0.11700
C 	C 	0.53389 0.76702 0.16811 -0.08400
C 	C 	0.61341 0.79943 0.15643 0.01100
O 	O 	0.72900 0.91543 0.13402 -0.19300
C 	C 	0.74681 0.87660 0.15815 0.04700
C 	C 	0.67812 0.80722 0.17157 -0.05700
O 	O 	0.39721 0.73119 0.15210 -0.18200
C 	C 	0.38103 0.75591 0.12453 0.05200
C 	C 	0.44686 0.83268 0.11293 -0.06600
H 	H 	0.61541 0.94014 0.10310 0.06500
H 	H 	0.51139 0.71818 0.18599 0.07100
H 	H 	0.67528 0.78721 0.19452 0.05400
H 	H 	0.45462 0.84937 0.08958 0.05400
C 	C 	0.70614 0.93696 0.30831 0.12700
C 	C 	0.65752 0.85535 0.32323 -0.09300
C 	C 	0.57249 0.80860 0.31789 0.01900
C 	C 	0.53594 0.84435 0.30012 0.11300
C 	C 	0.58454 0.92588 0.28511 -0.07700
C 	C 	0.66974 0.97245 0.29031 -0.00900
O 	O 	0.78818 0.96654 0.30132 -0.19800
C 	C 	0.79645 0.01816 0.27614 0.05600
C 	C 	0.72677 0.02438 0.27009 -0.03600
O 	O 	0.45387 0.81461 0.30726 -0.18200
C 	C 	0.44572 0.76166 0.33208 0.05400
C 	C 	0.51553 0.75560 0.33789 -0.06500
H 	H 	0.68555 0.82744 0.33766 0.07100
H 	H 	0.55648 0.95372 0.27067 0.06600
H 	H 	0.71184 0.03834 0.24826 0.05900
H 	H 	0.53033 0.74027 0.35955 0.05900
C 	C 	0.48078 0.07815 0.50059 -0.08300
C 	C 	0.49186 0.02017 0.51981 0.00400
H 	H 	0.54532 0.04613 0.53393 0.04600
C 	C 	0.85229 0.44652 0.44780 -0.07400
C 	C 	0.89000 0.53215 0.46040 -0.01800
C 	C 	0.97358 0.59284 0.45482 0.02600
C 	C 	0.97929 0.48725 0.42070 -0.03800
C 	C 	0.89611 0.42606 0.42662 0.04500
S 	S 	0.84856 0.32269 0.40828 -0.02300
H 	H 	0.81318 0.33100 0.38288 0.04300
H 	H 	0.85592 0.54920 0.47615 0.04600
C 	C 	0.52086 0.66359 0.44920 -0.06600
C 	C 	0.57961 0.70859 0.47107 -0.02200
C 	C 	0.62723 0.67244 0.48210 0.04400
C 	C 	0.61399 0.58885 0.47178 -0.07800
C 	C 	0.56059 0.54843 0.44800 -0.01200
C 	C 	0.51449 0.58572 0.43660 0.03100
S 	S 	0.70600 0.73480 0.50738 -0.03100
H 	H 	0.67463 0.71419 0.53558 0.04500
H 	H 	0.58661 0.77044 0.48007 0.05100
H 	H 	0.55221 0.48578 0.43922 0.03700
C 	C 	0.76665 0.24417 0.63132 0.11700
C 	C 	0.84783 0.26103 0.63433 -0.08500
C 	C 	0.86321 0.18887 0.63228 0.01000
C 	C 	0.79959 0.10189 0.63077 0.11700
C 	C 	0.71872 0.08493 0.62624 -0.08600
C 	C 	0.70385 0.15788 0.62682 0.01300
O 	O 	0.74991 0.30956 0.62072 -0.18900
C 	C 	0.67553 0.25527 0.60663 0.04000
C 	C 	0.64646 0.16435 0.61074 -0.05700
O 	O 	0.81686 0.03920 0.64386 -0.17800
C 	C 	0.89685 0.09730 0.65357 0.04000
C 	C 	0.92529 0.18600 0.64594 -0.05300
H 	H 	0.89789 0.32884 0.63709 0.06400
H 	H 	0.66875 0.01714 0.62342 0.07200
H 	H 	0.60434 0.11279 0.59598 0.05700
H 	H 	0.97422 0.24246 0.65728 0.05600
C 	C 	0.93081 0.67096 0.64164 0.11900
C 	C 	0.93686 0.59490 0.63474 -0.08700
C 	C 	0.96000 0.58670 0.60572 0.01400
C 	C 	0.97949 0.65401 0.58479 0.11700
C 	C 	0.98175 0.73412 0.59305 -0.08700
C 	C 	0.95065 0.73721 0.62094 0.01500
O 	O 	0.92814 0.69700 0.67042 -0.18400
C 	C 	0.94915 0.78618 0.66467 0.04900
C 	C 	0.96394 0.81116 0.63525 -0.06500
O 	O 	0.95862 0.62217 0.55627 -0.19100
C 	C 	0.91544 0.53011 0.56217 0.05500
C 	C 	0.92296 0.50893 0.59104 -0.06300
H 	H 	0.91978 0.54150 0.65087 0.07200
H 	H 	0.99760 0.78750 0.57702 0.06700
H 	H 	0.00233 0.87915 0.62714 0.06400
H 	H 	0.88070 0.44562 0.60150 0.07300
C 	C 	0.98643 0.43228 0.94803 -0.09400
S 	S 	0.97579 0.29193 0.98204 -0.01900
H 	H 	0.92444 0.27671 0.00580 0.04400
C 	C 	0.62560 0.09137 0.01185 -0.08600
C 	C 	0.64009 0.02164 0.00293 0.01000
C 	C 	0.58079 0.93124 0.00829 0.01300
C 	C 	0.50478 0.91017 0.02201 -0.05200
C 	C 	0.49687 0.98029 0.03503 -0.05300
C 	C 	0.55756 0.07013 0.03049 0.05700
S 	S 	0.60631 0.84722 0.00043 -0.03000
S 	S 	0.54553 0.15551 0.04719 -0.02600
H 	H 	0.58394 0.17567 0.07398 0.04400
H 	H 	0.63967 0.83086 0.02499 0.04200
H 	H 	0.69512 0.03746 0.99017 0.04800
H 	H 	0.44251 0.96538 0.04803 0.05600
C 	C 	0.50517 0.51601 0.03426 -0.07900
C 	C 	0.53003 0.52849 0.00445 -0.01000
C 	C 	0.56159 0.47747 0.99169 0.02700
C 	C 	0.56753 0.41148 0.00858 -0.06300
C 	C 	0.54490 0.40035 0.03857 -0.02400
C 	C 	0.51657 0.45427 0.05176 0.03800
S 	S 	0.59657 0.49955 0.95478 -0.03800
S 	S 	0.50215 0.44876 0.09035 -0.02700
H 	H 	0.57411 0.50955 0.10340 0.04200
H 	H 	0.67951 0.55848 0.95432 0.03800
H 	H 	0.52299 0.57664 0.99089 0.03500
H 	H 	0.55338 0.35295 0.05203 0.05000
C 	C 	0.79241 0.12815 0.80737 0.12000
C 	C 	0.71207 0.11322 0.81093 -0.08500
C 	C 	0.66925 0.07224 0.83725 0.01500
C 	C 	0.70433 0.04330 0.85862 0.12200
C 	C 	0.78155 0.05018 0.85325 -0.08300
C 	C 	0.82683 0.09986 0.82859 0.01800
O 	O 	0.83159 0.14524 0.78009 -0.18300
C 	C 	0.89264 0.12341 0.78710 0.05700
C 	C 	0.88984 0.09545 0.81593 -0.06200
O 	O 	0.68008 0.04910 0.88714 -0.18100
C 	C 	0.63660 0.09451 0.88149 0.04800
C 	C 	0.62395 0.10124 0.85184 -0.05500
H 	H 	0.68512 0.13672 0.79440 0.07300
H 	H 	0.80921 0.02701 0.86960 0.07500
H 	H 	0.91291 0.05156 0.82326 0.06500
H 	H 	0.61000 0.15108 0.84280 0.06100
C 	C 	0.47788 0.36801 0.83895 0.11700
C 	C 	0.45619 0.33607 0.81008 -0.08400
O 	O 	0.55542 0.39236 0.84993 -0.18500
C 	C 	0.53541 0.37415 0.87990 0.04900
C 	C 	0.45403 0.34755 0.88652 -0.05700
H 	H 	0.50266 0.35634 0.79283 0.07100
H 	H 	0.42160 0.30908 0.90606 0.06400
C 	C 	0.90996 0.78021 0.84758 0.12900
C 	C 	0.87777 0.77324 0.87612 -0.09500
C 	C 	0.90964 0.74398 0.89916 0.01900
C 	C 	0.97144 0.72296 0.89390 0.10200
C 	C 	0.00710 0.73602 0.86545 -0.06400
C 	C 	0.97109 0.75952 0.84243 -0.01400
O 	O 	0.89927 0.82824 0.82485 -0.19000
C 	C 	0.96125 0.83496 0.80555 0.03900
C 	C 	0.00489 0.79445 0.81589 -0.03300
O 	O 	0.96860 0.65778 0.91307 -0.19800
C 	C 	0.89541 0.63501 0.92847 0.05000
C 	C 	0.86285 0.68990 0.92137 -0.06300
H 	H 	0.82789 0.78731 0.88014 0.06800
H 	H 	0.79845 0.67046 0.92455 0.05400
