data_crystal

_cell_length_a 26.12406
_cell_length_b 26.31701
_cell_length_c 35.15653
_cell_angle_alpha 95.56696
_cell_angle_beta  95.56194
_cell_angle_gamma 125.59090

_symmetry_space_group_name_	'P 1'
_symmetry_space_group_name_H-M	'P 1'

loop_
_symmetry_equiv_pos_as_xyz
  x,y,z

loop_
_atom_site_label
_atom_site_type_symbol
_atom_site_fract_x
_atom_site_fract_y
_atom_site_fract_z
_atom_site_charge
C 	C 	0.98518 0.04148 0.99344 0.15700
N 	N 	0.94744 0.97807 0.99362 -0.12100
C 	C 	0.97274 0.94539 0.99274 0.16100
N 	N 	0.03629 0.97645 0.99327 -0.12500
C 	C 	0.07462 0.04010 0.99427 0.16200
N 	N 	0.04911 0.07275 0.99451 -0.12300
C 	C 	0.92149 0.98703 0.45835 0.16600
N 	N 	0.98473 0.02210 0.45639 -0.12400
C 	C 	0.01705 0.99652 0.46033 0.17100
N 	N 	0.98623 0.93602 0.46649 -0.12200
C 	C 	0.92353 0.90141 0.46965 0.16200
N 	N 	0.89104 0.92688 0.46538 -0.13100
Cu	Cu	0.66180 0.25891 0.00420 0.93600
Cu	Cu	0.70471 0.25967 0.92024 0.88600
Cu	Cu	0.67881 0.34790 0.94866 0.90500
Cu	Cu	0.66481 0.37922 0.03050 0.91800
C 	C 	0.67618 0.30340 0.08484 0.40500
O 	O 	0.56920 0.21738 0.00912 -0.33300
C 	C 	0.65312 0.29911 0.86450 0.38500
O 	O 	0.70878 0.35639 0.00265 -0.63500
O 	O 	0.64281 0.25704 0.94807 -0.63700
O 	O 	0.70628 0.21814 0.00100 -0.33300
O 	O 	0.76998 0.28512 0.96317 -0.41100
O 	O 	0.68066 0.35512 0.08020 -0.33900
O 	O 	0.72124 0.43801 0.95120 -0.33200
C 	C 	0.72446 0.47607 0.98027 0.31300
C 	C 	0.54159 0.24501 0.00198 0.31500
O 	O 	0.57475 0.30190 0.99340 -0.36600
O 	O 	0.68679 0.45312 0.00604 -0.35500
O 	O 	0.69120 0.27652 0.05907 -0.32700
C 	C 	0.75930 0.24585 0.98692 0.31300
O 	O 	0.65302 0.33683 0.89231 -0.33600
O 	O 	0.65869 0.25432 0.87241 -0.36700
H 	H 	0.75604 0.38509 0.01081 0.19900
H 	H 	0.59738 0.22655 0.93484 0.19900
Cu	Cu	0.71606 0.32349 0.44759 0.93700
Cu	Cu	0.70824 0.26712 0.52735 0.88800
Cu	Cu	0.61864 0.29320 0.49952 0.90700
Cu	Cu	0.59807 0.32427 0.42296 0.91200
C 	C 	0.67000 0.30976 0.36678 0.40200
O 	O 	0.75384 0.41654 0.44920 -0.33400
C 	C 	0.66098 0.30868 0.58391 0.38800
O 	O 	0.61687 0.27332 0.44517 -0.63900
O 	O 	0.71136 0.33177 0.50329 -0.63800
O 	O 	0.76125 0.28331 0.44888 -0.33900
O 	O 	0.69207 0.21017 0.48231 -0.40200
O 	O 	0.64342 0.33729 0.37808 -0.34600
O 	O 	0.52694 0.24917 0.49360 -0.33900
C 	C 	0.48996 0.24994 0.46555 0.31500
C 	C 	0.72795 0.44189 0.46495 0.30400
O 	O 	0.66775 0.40499 0.46885 -0.35700
O 	O 	0.51353 0.28631 0.43916 -0.35100
O 	O 	0.70432 0.30189 0.39224 -0.33000
C 	C 	0.73506 0.22835 0.46004 0.31700
O 	O 	0.62281 0.30851 0.55603 -0.33000
O 	O 	0.70732 0.30483 0.57636 -0.36600
H 	H 	0.58813 0.22739 0.43351 0.19500
H 	H 	0.74031 0.37526 0.51917 0.20500
C 	C 	0.58815 0.29119 0.67409 0.23500
C 	C 	0.64267 0.32085 0.70357 -0.00300
C 	C 	0.70368 0.35274 0.69367 0.22900
C 	C 	0.70995 0.35261 0.65463 0.31100
C 	C 	0.65507 0.31863 0.62493 -0.20100
C 	C 	0.59418 0.28942 0.63492 0.31000
C 	C 	0.63565 0.31383 0.74439 -0.00400
F 	F 	0.75681 0.38213 0.72190 -0.34200
F 	F 	0.54068 0.25703 0.60672 -0.36900
C 	C 	0.60742 0.25393 0.75477 0.22900
C 	C 	0.60885 0.24843 0.79396 0.31000
C 	C 	0.64063 0.30317 0.82332 -0.20300
C 	C 	0.66573 0.36268 0.81279 0.30900
C 	C 	0.66249 0.36776 0.77349 0.23400
F 	F 	0.58055 0.20129 0.72688 -0.34200
F 	F 	0.69584 0.41599 0.84061 -0.37300
F 	F 	0.58004 0.18998 0.80342 -0.37400
F 	F 	0.68756 0.42551 0.76370 -0.33700
F 	F 	0.52914 0.26231 0.68340 -0.33500
F 	F 	0.76937 0.38489 0.64562 -0.37300
C 	C 	0.70055 0.34844 0.26714 0.22900
C 	C 	0.67733 0.28890 0.24564 -0.00100
C 	C 	0.65478 0.23685 0.26446 0.23300
C 	C 	0.65399 0.24401 0.30437 0.31300
C 	C 	0.67534 0.30315 0.32559 -0.20900
C 	C 	0.69970 0.35560 0.30693 0.31700
C 	C 	0.67377 0.28062 0.20312 0.00100
F 	F 	0.63280 0.17922 0.24396 -0.34000
F 	F 	0.72262 0.41356 0.32744 -0.37500
C 	C 	0.72927 0.30162 0.18783 0.23300
C 	C 	0.72909 0.30535 0.14838 0.32100
C 	C 	0.67331 0.28790 0.12395 -0.20500
C 	C 	0.61674 0.26299 0.13872 0.31400
C 	C 	0.61695 0.25935 0.17816 0.23100
F 	F 	0.78411 0.32111 0.21160 -0.33900
F 	F 	0.56209 0.24423 0.11506 -0.37900
F 	F 	0.78397 0.32914 0.13434 -0.36500
F 	F 	0.56273 0.23788 0.19254 -0.34300
F 	F 	0.72298 0.39915 0.24924 -0.34300
F 	F 	0.63096 0.19317 0.32220 -0.37700
C 	C 	0.89006 0.83521 0.47564 -0.02800
C 	C 	0.91797 0.81968 0.50422 0.12700
C 	C 	0.89165 0.75586 0.50475 -0.06400
C 	C 	0.83632 0.70717 0.47796 0.02000
C 	C 	0.80496 0.72256 0.45194 0.10200
C 	C 	0.83237 0.78638 0.45051 -0.03100
H 	H 	0.91451 0.74412 0.52583 0.09500
C 	C 	0.81299 0.64046 0.47632 0.03000
H 	H 	0.80969 0.79794 0.42917 0.09100
C 	C 	0.78006 0.60739 0.50482 -0.07500
C 	C 	0.75587 0.54354 0.50297 0.14800
C 	C 	0.76241 0.51154 0.47140 -0.08100
C 	C 	0.79817 0.54569 0.44401 -0.00600
C 	C 	0.82423 0.61005 0.44668 0.09400
H 	H 	0.77358 0.63141 0.52856 0.09800
H 	H 	0.80455 0.52185 0.42010 0.10300
Br	Br	0.72489 0.65708 0.41806 -0.15200
Br	Br	0.98949 0.88456 0.54417 -0.16600
Br	Br	0.71868 0.50263 0.54532 -0.16800
Br	Br	0.87537 0.65575 0.40973 -0.13600
C 	C 	0.88703 0.01545 0.45498 -0.03200
C 	C 	0.87694 0.03264 0.41983 0.12700
C 	C 	0.85045 0.06598 0.41836 -0.06300
C 	C 	0.83329 0.08183 0.45160 0.01900
C 	C 	0.84055 0.06198 0.48623 0.10100
C 	C 	0.86749 0.02907 0.48779 -0.03300
H 	H 	0.84369 0.08004 0.39145 0.09800
C 	C 	0.80914 0.12043 0.45021 0.03200
H 	H 	0.87447 0.01526 0.51475 0.08600
C 	C 	0.74355 0.09032 0.43751 -0.07700
C 	C 	0.71926 0.12576 0.43843 0.15500
C 	C 	0.76077 0.19193 0.45274 -0.09000
C 	C 	0.82686 0.22242 0.46350 -0.00500
C 	C 	0.85118 0.18704 0.46221 0.08900
H 	H 	0.71134 0.03927 0.42722 0.09900
H 	H 	0.85914 0.27340 0.47403 0.07600
Br	Br	0.81478 0.08020 0.53181 -0.16900
Br	Br	0.89683 0.00903 0.37322 -0.15300
Br	Br	0.62992 0.08346 0.41836 -0.15600
Br	Br	0.94177 0.23032 0.47765 -0.16000
C 	C 	0.08647 0.03596 0.46137 -0.03000
C 	C 	0.11121 0.05267 0.42713 0.12800
C 	C 	0.17743 0.08869 0.42860 -0.06300
C 	C 	0.21924 0.10756 0.46391 0.02000
C 	C 	0.19451 0.09109 0.49817 0.10000
C 	C 	0.12835 0.05534 0.49673 -0.03000
H 	H 	0.19636 0.10124 0.40219 0.09400
C 	C 	0.28873 0.14385 0.46467 0.03200
H 	H 	0.10942 0.04236 0.52311 0.09300
C 	C 	0.32734 0.21055 0.47224 -0.07400
C 	C 	0.39338 0.24575 0.47322 0.15600
C 	C 	0.42111 0.21401 0.46600 -0.07900
C 	C 	0.38257 0.14732 0.45878 -0.00200
C 	C 	0.31658 0.11215 0.45796 0.09000
H 	H 	0.30608 0.23504 0.47774 0.09900
H 	H 	0.40382 0.12277 0.45344 0.07600
Br	Br	0.25034 0.11636 0.54705 -0.13300
Br	Br	0.05526 0.02440 0.37786 -0.15000
Br	Br	0.44522 0.33697 0.48621 -0.15600
Br	Br	0.26524 0.02088 0.44775 -0.15100
C 	C 	0.75888 0.54376 0.97859 -0.07900
C 	C 	0.82609 0.58375 0.98266 0.15400
C 	C 	0.85843 0.64894 0.98353 -0.07300
C 	C 	0.82430 0.67471 0.98062 0.03300
C 	C 	0.75701 0.63453 0.97560 0.09100
C 	C 	0.72465 0.56937 0.97471 0.00200
H 	H 	0.91025 0.67980 0.98719 0.09900
C 	C 	0.85948 0.74392 0.98368 0.02000
H 	H 	0.67286 0.53863 0.97128 0.08600
C 	C 	0.87390 0.77034 0.95005 -0.06200
C 	C 	0.90947 0.83619 0.95263 0.12800
C 	C 	0.93101 0.87613 0.98916 -0.02900
C 	C 	0.91554 0.84967 0.02270 -0.03200
C 	C 	0.88008 0.78382 0.02015 0.10100
H 	H 	0.85779 0.73968 0.92193 0.10100
H 	H 	0.93202 0.88038 0.05084 0.08500
Br	Br	0.70866 0.66801 0.97044 -0.15000
Br	Br	0.87477 0.55073 0.98886 -0.18400
Br	Br	0.92841 0.87085 0.90598 -0.14200
Br	Br	0.86075 0.74918 0.06678 -0.15800
C 	C 	0.95696 0.07640 0.99262 -0.02500
C 	C 	0.90010 0.05219 0.96617 0.12400
C 	C 	0.87073 0.08267 0.96848 -0.06000
C 	C 	0.89973 0.13971 0.99502 0.01800
C 	C 	0.95808 0.16559 0.02022 0.09900
C 	C 	0.98590 0.13343 0.01928 -0.03500
H 	H 	0.82639 0.06321 0.94861 0.09300
C 	C 	0.86976 0.17311 0.99513 0.03100
H 	H 	0.02996 0.15271 0.03939 0.08800
C 	C 	0.83820 0.17221 0.02543 -0.07300
C 	C 	0.80563 0.19968 0.02455 0.15000
C 	C 	0.80042 0.22421 0.99150 -0.09000
C 	C 	0.83378 0.22666 0.96179 -0.00800
C 	C 	0.86929 0.20251 0.96389 0.08400
H 	H 	0.83987 0.15105 0.05004 0.10100
H 	H 	0.83165 0.24683 0.93678 0.06500
Br	Br	0.00142 0.24564 0.05526 -0.15200
Br	Br	0.86516 0.98149 0.92428 -0.14500
Br	Br	0.77525 0.20926 0.07040 -0.11400
Br	Br	0.91784 0.21114 0.92407 -0.16100
C 	C 	0.14408 0.07385 0.99725 -0.03000
C 	C 	0.17522 0.10538 0.96756 0.12700
C 	C 	0.24019 0.13220 0.96932 -0.06200
C 	C 	0.27410 0.12655 0.99997 0.01900
C 	C 	0.24302 0.09513 0.02963 0.09800
C 	C 	0.17845 0.06936 0.02828 -0.03200
H 	H 	0.26410 0.15658 0.94652 0.09500
C 	C 	0.34263 0.15537 0.00145 0.03500
H 	H 	0.15460 0.04479 0.05104 0.08500
C 	C 	0.38906 0.21496 0.02518 -0.07400
C 	C 	0.45424 0.24318 0.02701 0.16200
C 	C 	0.47353 0.21255 0.00389 -0.08200
C 	C 	0.42709 0.15226 0.98080 0.00000
C 	C 	0.36179 0.12349 0.97955 0.08800
H 	H 	0.37442 0.23902 0.04261 0.10200
H 	H 	0.44167 0.12823 0.96328 0.07700
Br	Br	0.28755 0.08541 0.07166 -0.14000
Br	Br	0.12915 0.10925 0.92330 -0.15100
Br	Br	0.51607 0.32194 0.06282 -0.17200
Br	Br	0.29949 0.04060 0.94801 -0.15300
