data_crystal

_cell_length_a 25.85769
_cell_length_b 26.45555
_cell_length_c 35.06765
_cell_angle_alpha 95.49524
_cell_angle_beta  95.49263
_cell_angle_gamma 125.83659

_symmetry_space_group_name_	'P 1'
_symmetry_space_group_name_H-M	'P 1'

loop_
_symmetry_equiv_pos_as_xyz
  x,y,z

loop_
_atom_site_label
_atom_site_type_symbol
_atom_site_fract_x
_atom_site_fract_y
_atom_site_fract_z
_atom_site_charge
C 	C 	0.97302 0.04102 0.00179 0.17600
N 	N 	0.03856 0.08250 0.00569 -0.06700
C 	C 	0.07476 0.06071 0.00468 0.19800
N 	N 	0.04538 0.99742 0.00026 -0.07400
C 	C 	0.98020 0.95614 0.99791 0.18400
N 	N 	0.94393 0.97786 0.99811 -0.08400
C 	C 	0.91901 0.97463 0.45471 0.20300
N 	N 	0.88498 0.91074 0.45142 -0.08000
C 	C 	0.91687 0.88431 0.45327 0.19800
N 	N 	0.98276 0.92207 0.45989 -0.10300
C 	C 	0.01684 0.98607 0.46517 0.23000
N 	N 	0.98493 0.01230 0.46216 -0.10000
Cu	Cu	0.64222 0.25643 0.00393 0.94400
Cu	Cu	0.68525 0.25025 0.91974 0.91300
Cu	Cu	0.69099 0.35963 0.95512 0.91700
Cu	Cu	0.67596 0.38971 0.03566 0.92000
C 	C 	0.67358 0.30442 0.08620 0.31500
O 	O 	0.55556 0.23978 0.00690 -0.29200
C 	C 	0.66769 0.32083 0.86989 0.30600
O 	O 	0.71101 0.35500 0.00831 -0.63700
O 	O 	0.63437 0.26541 0.94900 -0.63100
O 	O 	0.66277 0.19479 0.99756 -0.27100
O 	O 	0.73941 0.25264 0.96152 -0.37900
O 	O 	0.65503 0.34003 0.07859 -0.33800
O 	O 	0.75100 0.45114 0.96306 -0.31500
C 	C 	0.75139 0.49080 0.98918 0.31800
C 	C 	0.54128 0.27620 0.99404 0.29500
O 	O 	0.58817 0.33468 0.99125 -0.32200
O 	O 	0.73328 0.47616 0.02291 -0.31800
O 	O 	0.66541 0.26172 0.05842 -0.32300
C 	C 	0.71429 0.20945 0.98355 0.30200
O 	O 	0.67454 0.36060 0.89948 -0.29500
O 	O 	0.65294 0.26501 0.87409 -0.34900
H 	H 	0.75738 0.37479 0.01803 0.20100
H 	H 	0.58970 0.24457 0.93482 0.26000
Cu	Cu	0.72219 0.31693 0.44798 0.94500
Cu	Cu	0.74743 0.29541 0.53608 0.90500
Cu	Cu	0.63173 0.28978 0.50629 0.91400
Cu	Cu	0.58192 0.28262 0.42119 0.93400
C 	C 	0.66310 0.28436 0.36724 0.31900
O 	O 	0.74977 0.40341 0.44003 -0.27700
C 	C 	0.69008 0.32587 0.58983 0.31200
O 	O 	0.62302 0.25755 0.45291 -0.63000
O 	O 	0.72617 0.33905 0.50410 -0.62900
O 	O 	0.77801 0.28813 0.45201 -0.30500
O 	O 	0.72789 0.22837 0.49719 -0.34600
O 	O 	0.60360 0.25910 0.37312 -0.30000
O 	O 	0.53941 0.23506 0.50626 -0.31800
C 	C 	0.49430 0.22358 0.47800 0.31400
C 	C 	0.71079 0.41990 0.44000 0.29200
O 	O 	0.65351 0.38167 0.44931 -0.34500
O 	O 	0.50960 0.25705 0.44992 -0.30300
O 	O 	0.70503 0.28587 0.39299 -0.28900
C 	C 	0.76167 0.24026 0.46930 0.30400
O 	O 	0.64399 0.31592 0.56288 -0.33700
O 	O 	0.74501 0.33994 0.58113 -0.35500
H 	H 	0.60181 0.21136 0.44745 0.25000
H 	H 	0.75073 0.38504 0.51434 0.21100
C 	C 	0.66472 0.33394 0.83027 -0.05600
C 	C 	0.72047 0.38502 0.81912 0.15200
C 	C 	0.72091 0.38928 0.77966 -0.06100
C 	C 	0.66604 0.34314 0.75121 0.03500
C 	C 	0.60862 0.29529 0.76270 0.09700
C 	C 	0.60825 0.29076 0.80210 0.00700
H 	H 	0.76487 0.42686 0.77096 0.11700
C 	C 	0.67218 0.33935 0.70983 0.03500
H 	H 	0.56467 0.25238 0.81068 0.12000
C 	C 	0.68598 0.29888 0.69371 -0.06600
C 	C 	0.69113 0.29363 0.65446 0.15400
C 	C 	0.68385 0.33030 0.63106 -0.07300
C 	C 	0.66999 0.37084 0.64718 0.00900
C 	C 	0.66411 0.37549 0.68643 0.09300
H 	H 	0.69176 0.27070 0.71163 0.11100
H 	H 	0.66405 0.39893 0.62927 0.10300
Br	Br	0.53091 0.23454 0.72481 -0.07100
Br	Br	0.79780 0.44711 0.85701 -0.10400
Br	Br	0.70433 0.23333 0.63284 -0.13900
Br	Br	0.64427 0.43071 0.70743 -0.06100
C 	C 	0.68454 0.29890 0.12698 -0.07100
C 	C 	0.73644 0.35172 0.15448 0.15600
C 	C 	0.73997 0.34903 0.19423 -0.06500
C 	C 	0.69190 0.29406 0.20684 0.03900
C 	C 	0.64194 0.24010 0.17916 0.09400
C 	C 	0.63884 0.24259 0.13941 0.01000
H 	H 	0.77897 0.39036 0.21543 0.12300
C 	C 	0.68959 0.29597 0.24878 0.03800
H 	H 	0.59917 0.20160 0.11829 0.10800
C 	C 	0.66038 0.32111 0.26569 -0.05900
C 	C 	0.65362 0.31967 0.30471 0.17000
C 	C 	0.67548 0.29185 0.32718 -0.04300
C 	C 	0.70696 0.26882 0.31058 0.01200
C 	C 	0.71450 0.27123 0.27163 0.10200
H 	H 	0.64243 0.34142 0.24833 0.11800
H 	H 	0.72446 0.24792 0.32767 0.12300
Br	Br	0.57578 0.16363 0.19522 -0.06800
Br	Br	0.80280 0.42790 0.13827 -0.13100
Br	Br	0.61675 0.35833 0.32706 -0.10200
Br	Br	0.75833 0.23997 0.25002 -0.06100
C 	C 	0.80450 0.70620 0.41564 0.05200
C 	C 	0.81994 0.68457 0.44655 0.09100
C 	C 	0.86735 0.72862 0.47967 -0.07500
C 	C 	0.89516 0.79338 0.48215 0.06000
C 	C 	0.88059 0.81524 0.45098 0.06800
C 	C 	0.83627 0.77149 0.41677 -0.07200
C 	C 	0.78909 0.61584 0.44273 0.10000
C 	C 	0.89201 0.70742 0.51078 0.78600
H 	H 	0.92970 0.82737 0.50794 0.14600
C 	C 	0.82256 0.79401 0.38155 0.78600
H 	H 	0.76841 0.67195 0.39039 0.13400
C 	C 	0.73066 0.57487 0.45622 -0.09300
C 	C 	0.70677 0.51143 0.45570 0.07900
C 	C 	0.73634 0.48670 0.43828 0.01200
C 	C 	0.78930 0.52604 0.41943 -0.05800
C 	C 	0.81763 0.59118 0.42434 0.03900
C 	C 	0.69232 0.59792 0.46951 0.79000
H 	H 	0.66514 0.48114 0.46891 0.10500
C 	C 	0.81609 0.49977 0.39415 0.78100
H 	H 	0.86172 0.62286 0.41341 0.13200
F 	F 	0.78682 0.81576 0.38984 -0.36300
F 	F 	0.78760 0.74558 0.34916 -0.36900
F 	F 	0.88016 0.84236 0.37197 -0.36700
F 	F 	0.92330 0.68497 0.49468 -0.39600
F 	F 	0.84095 0.65974 0.52560 -0.37800
F 	F 	0.93550 0.75680 0.54162 -0.36500
F 	F 	0.85016 0.53973 0.36887 -0.39300
F 	F 	0.76657 0.44134 0.37160 -0.43300
F 	F 	0.85797 0.49412 0.41756 -0.39400
F 	F 	0.63667 0.55074 0.48147 -0.37900
F 	F 	0.67387 0.61696 0.43902 -0.38800
F 	F 	0.72982 0.64860 0.50042 -0.36800
C 	C 	0.75697 0.09725 0.43615 0.03900
C 	C 	0.82102 0.12093 0.45108 0.10200
C 	C 	0.86807 0.18661 0.46647 -0.09600
C 	C 	0.84806 0.22586 0.47047 0.08200
C 	C 	0.78291 0.20095 0.45833 0.00800
C 	C 	0.73766 0.13712 0.43879 -0.05100
C 	C 	0.83843 0.07653 0.45018 0.09200
C 	C 	0.93954 0.21502 0.47766 0.79000
H 	H 	0.88270 0.27548 0.48402 0.10000
C 	C 	0.66826 0.11080 0.42213 0.77800
H 	H 	0.72191 0.04735 0.42327 0.14000
C 	C 	0.83200 0.04402 0.48134 -0.07700
C 	C 	0.85639 0.00841 0.48150 0.06400
C 	C 	0.88462 0.00320 0.45064 0.06800
C 	C 	0.88396 0.02952 0.41745 -0.06300
C 	C 	0.86199 0.06716 0.41796 0.05400
C 	C 	0.79807 0.04618 0.51387 0.78700
H 	H 	0.85506 0.98601 0.50606 0.13100
C 	C 	0.90943 0.02007 0.38229 0.78100
H 	H 	0.86475 0.09069 0.39375 0.13500
F 	F 	0.63430 0.10125 0.45215 -0.39000
F 	F 	0.63682 0.05354 0.39658 -0.37500
F 	F 	0.66747 0.15280 0.40186 -0.42200
F 	F 	0.96191 0.20707 0.44503 -0.38900
F 	F 	0.94802 0.18548 0.50542 -0.37400
F 	F 	0.97716 0.27935 0.49296 -0.38100
F 	F 	0.89045 0.03585 0.35006 -0.36200
F 	F 	0.88573 0.95725 0.37251 -0.35300
F 	F 	0.97653 0.05802 0.39081 -0.37900
F 	F 	0.79752 0.01208 0.54162 -0.37200
F 	F 	0.73439 0.02036 0.49847 -0.39000
F 	F 	0.82934 0.10823 0.53241 -0.37900
C 	C 	0.31363 0.09465 0.46093 0.04000
C 	C 	0.29398 0.12471 0.48386 0.10100
C 	C 	0.34118 0.18353 0.50932 -0.09200
C 	C 	0.40735 0.21334 0.50883 0.08700
C 	C 	0.42656 0.18560 0.48348 0.01300
C 	C 	0.37982 0.12433 0.46077 -0.05200
C 	C 	0.22370 0.09419 0.48075 0.09200
C 	C 	0.32121 0.21360 0.53764 0.79000
H 	H 	0.44407 0.25919 0.52726 0.10600
C 	C 	0.40030 0.09192 0.43505 0.77700
H 	H 	0.27705 0.04883 0.44243 0.13700
C 	C 	0.18890 0.09969 0.44971 -0.07500
C 	C 	0.12106 0.06446 0.44553 0.06700
C 	C 	0.08833 0.02688 0.47272 0.06200
C 	C 	0.12400 0.02603 0.50560 -0.06800
C 	C 	0.19080 0.05646 0.50783 0.05400
C 	C 	0.22302 0.13886 0.41929 0.78700
H 	H 	0.09326 0.06471 0.42047 0.15300
C 	C 	0.09092 0.99058 0.53749 0.78700
H 	H 	0.21746 0.05094 0.53072 0.13500
F 	F 	0.34963 0.02852 0.42103 -0.37000
F 	F 	0.45051 0.09503 0.45606 -0.40300
F 	F 	0.42099 0.12190 0.40364 -0.39900
F 	F 	0.29381 0.17613 0.56520 -0.38500
F 	F 	0.27652 0.21947 0.51798 -0.36100
F 	F 	0.37379 0.27356 0.55699 -0.37600
F 	F 	0.13537 0.01275 0.57173 -0.35900
F 	F 	0.06175 0.92668 0.52574 -0.38700
F 	F 	0.04449 0.99852 0.54561 -0.38000
F 	F 	0.18363 0.14827 0.39649 -0.35000
F 	F 	0.23921 0.10763 0.39519 -0.38300
F 	F 	0.27884 0.19798 0.43692 -0.36800
C 	C 	0.78886 0.64546 0.96813 0.04000
C 	C 	0.85544 0.68787 0.98400 0.10000
C 	C 	0.88886 0.66475 0.99955 -0.08600
C 	C 	0.85378 0.59966 0.00051 0.07500
C 	C 	0.78722 0.55749 0.98487 0.01500
C 	C 	0.75469 0.57996 0.96730 -0.05400
C 	C 	0.88834 0.75691 0.98718 0.09700
C 	C 	0.96054 0.70981 0.01807 0.78300
H 	H 	0.87788 0.58180 0.01426 0.10300
C 	C 	0.68311 0.53437 0.94889 0.77700
H 	H 	0.76364 0.66388 0.95705 0.13900
C 	C 	0.91070 0.78727 0.95497 -0.07900
C 	C 	0.94004 0.85260 0.95911 0.06100
C 	C 	0.94891 0.88790 0.99482 0.07000
C 	C 	0.92779 0.85781 0.02719 -0.06500
C 	C 	0.89546 0.79196 0.02251 0.04600
C 	C 	0.89944 0.74951 0.91553 0.78700
H 	H 	0.95554 0.87614 0.93444 0.12300
C 	C 	0.93773 0.89539 0.06632 0.77200
H 	H 	0.87601 0.76768 0.04642 0.13400
F 	F 	0.66163 0.56446 0.93025 -0.36900
F 	F 	0.64689 0.50805 0.97743 -0.39900
F 	F 	0.67249 0.48639 0.92156 -0.40000
F 	F 	0.96798 0.74188 0.05410 -0.38600
F 	F 	0.99550 0.75333 0.99478 -0.36700
F 	F 	0.98675 0.67736 0.02325 -0.38000
F 	F 	0.92309 0.85970 0.09543 -0.35900
F 	F 	0.89794 0.91431 0.06352 -0.38600
F 	F 	0.00177 0.94846 0.07732 -0.33400
F 	F 	0.93448 0.78897 0.89029 -0.37400
F 	F 	0.83424 0.71240 0.89889 -0.39000
F 	F 	0.91841 0.71080 0.91958 -0.37300
C 	C 	0.89531 0.12143 0.97623 0.05700
C 	C 	0.85965 0.11081 0.00612 0.08400
C 	C 	0.85946 0.07530 0.03398 -0.07200
C 	C 	0.89686 0.05272 0.03182 0.05700
C 	C 	0.93351 0.06445 0.00235 0.07100
C 	C 	0.93069 0.09682 0.97322 -0.07200
C 	C 	0.81978 0.13423 0.00648 0.10100
C 	C 	0.81618 0.05775 0.06432 0.78600
H 	H 	0.89745 0.02572 0.05299 0.14900
C 	C 	0.96660 0.10678 0.93952 0.77200
H 	H 	0.89485 0.14852 0.95507 0.12700
C 	C 	0.84831 0.19868 0.02147 -0.09900
C 	C 	0.81159 0.22157 0.01511 0.07700
C 	C 	0.74713 0.18127 0.99492 0.00900
C 	C 	0.71754 0.11609 0.98179 -0.05800
C 	C 	0.75450 0.09333 0.98771 0.03900
C 	C 	0.91954 0.24459 0.04084 0.79000
H 	H 	0.83385 0.27148 0.02462 0.09500
C 	C 	0.64699 0.07102 0.96108 0.78000
H 	H 	0.73332 0.04414 0.97655 0.14000
F 	F 	0.03222 0.15415 0.95261 -0.36400
F 	F 	0.94474 0.12456 0.90983 -0.37700
F 	F 	0.95730 0.05138 0.92388 -0.40000
F 	F 	0.75203 0.01286 0.04626 -0.38600
F 	F 	0.82350 0.11058 0.08307 -0.36800
F 	F 	0.83108 0.03267 0.09249 -0.35800
F 	F 	0.63764 0.09277 0.92871 -0.42300
F 	F 	0.60727 0.06712 0.98626 -0.37700
F 	F 	0.62843 0.01040 0.94862 -0.37300
F 	F 	0.93346 0.29984 0.06135 -0.38400
F 	F 	0.95771 0.26028 0.01263 -0.39600
F 	F 	0.93578 0.21782 0.06690 -0.36800
C 	C 	0.25564 0.14381 0.03056 0.04900
C 	C 	0.27727 0.17736 0.99998 0.09500
C 	C 	0.23291 0.17735 0.97285 -0.07500
C 	C 	0.16668 0.13932 0.97525 0.06700
C 	C 	0.14511 0.10522 0.00560 0.06800
C 	C 	0.19062 0.11094 0.03506 -0.06600
C 	C 	0.34540 0.20839 0.99509 0.10700
C 	C 	0.25478 0.21344 0.93947 0.78600
H 	H 	0.13145 0.13462 0.95283 0.14900
C 	C 	0.16984 0.07999 0.07044 0.78500
H 	H 	0.28957 0.14299 0.05069 0.13100
C 	C 	0.39750 0.26603 0.01986 -0.09800
C 	C 	0.46163 0.28826 0.01843 0.08200
C 	C 	0.47444 0.25649 0.99112 0.01800
C 	C 	0.42264 0.20307 0.96355 -0.05100
C 	C 	0.35842 0.17742 0.96730 0.03900
C 	C 	0.38511 0.30112 0.05005 0.79000
H 	H 	0.50167 0.32920 0.03942 0.09500
C 	C 	0.43571 0.17414 0.92987 0.77700
H 	H 	0.31832 0.13299 0.94884 0.13900
F 	F 	0.22249 0.10722 0.10054 -0.35700
F 	F 	0.14177 0.01605 0.06044 -0.36300
F 	F 	0.12568 0.08723 0.08416 -0.35300
F 	F 	0.26221 0.17991 0.91064 -0.37900
F 	F 	0.31308 0.27310 0.95220 -0.35700
F 	F 	0.20962 0.22155 0.92342 -0.34900
F 	F 	0.46055 0.14376 0.94365 -0.41000
F 	F 	0.47986 0.22126 0.91129 -0.41900
F 	F 	0.37967 0.13034 0.90252 -0.37000
F 	F 	0.43977 0.36317 0.06312 -0.37300
F 	F 	0.36879 0.27079 0.08162 -0.38900
F 	F 	0.33526 0.30313 0.03449 -0.35900
