data_crystal

_cell_length_a 25.90929
_cell_length_b 26.40591
_cell_length_c 35.04060
_cell_angle_alpha 95.48967
_cell_angle_beta  95.48587
_cell_angle_gamma 125.81574

_symmetry_space_group_name_	'P 1'
_symmetry_space_group_name_H-M	'P 1'

loop_
_symmetry_equiv_pos_as_xyz
  x,y,z

loop_
_atom_site_label
_atom_site_type_symbol
_atom_site_fract_x
_atom_site_fract_y
_atom_site_fract_z
_atom_site_charge
C 	C 	0.97521 0.02524 0.98002 0.12400
N 	N 	0.03789 0.06006 0.97519 -0.13800
C 	C 	0.06408 0.03039 0.96390 0.12400
N 	N 	0.02713 0.96599 0.95675 -0.13900
C 	C 	0.96499 0.93102 0.96242 0.12700
N 	N 	0.93931 0.96086 0.97448 -0.13500
C 	C 	0.91560 0.98873 0.46809 0.13000
N 	N 	0.98132 0.02737 0.47583 -0.14000
C 	C 	0.01426 0.00218 0.47766 0.12300
N 	N 	0.98149 0.93824 0.47217 -0.13800
C 	C 	0.91571 0.89927 0.46461 0.12500
N 	N 	0.88262 0.92452 0.46215 -0.13600
Cu	Cu	0.65299 0.24731 0.00956 0.93100
Cu	Cu	0.71721 0.24703 0.93348 0.88100
Cu	Cu	0.70364 0.34839 0.95831 0.89800
Cu	Cu	0.65871 0.36918 0.02983 0.89900
C 	C 	0.66063 0.29556 0.08864 0.33400
O 	O 	0.55872 0.21445 0.00208 -0.34700
C 	C 	0.69632 0.30436 0.87508 0.33600
O 	O 	0.71079 0.34660 0.01306 -0.63900
O 	O 	0.65491 0.25445 0.95398 -0.64000
O 	O 	0.68852 0.19779 0.01286 -0.35200
O 	O 	0.76931 0.26232 0.98123 -0.43100
O 	O 	0.63556 0.32294 0.07454 -0.38000
O 	O 	0.75380 0.44000 0.96669 -0.37500
C 	C 	0.73740 0.47318 0.98514 0.29400
C 	C 	0.53937 0.24447 0.98508 0.28900
O 	O 	0.58228 0.30301 0.98059 -0.39000
O 	O 	0.70509 0.45410 0.01415 -0.38600
O 	O 	0.66552 0.25671 0.06532 -0.32900
C 	C 	0.74552 0.22022 0.00404 0.29400
O 	O 	0.71071 0.35105 0.90267 -0.38400
O 	O 	0.68598 0.25194 0.88360 -0.38400
H 	H 	0.75580 0.37248 0.02788 0.17100
H 	H 	0.61198 0.22950 0.93653 0.17800
Cu	Cu	0.69785 0.31636 0.44965 0.92900
Cu	Cu	0.74881 0.31019 0.53771 0.87800
Cu	Cu	0.62520 0.31364 0.51418 0.91300
Cu	Cu	0.57730 0.32081 0.43368 0.89700
C 	C 	0.63545 0.29571 0.37160 0.34100
O 	O 	0.74191 0.40665 0.44012 -0.33700
C 	C 	0.67714 0.32163 0.59075 0.34300
O 	O 	0.60375 0.27824 0.45978 -0.63800
O 	O 	0.71498 0.34632 0.50693 -0.63000
O 	O 	0.72698 0.26041 0.44712 -0.35200
O 	O 	0.80190 0.31316 0.50347 -0.41700
O 	O 	0.58647 0.29469 0.38081 -0.38500
O 	O 	0.53668 0.27516 0.51969 -0.34900
C 	C 	0.49406 0.27112 0.49323 0.29000
C 	C 	0.71909 0.43863 0.44910 0.28500
O 	O 	0.66552 0.41176 0.46316 -0.38600
O 	O 	0.51271 0.30733 0.46649 -0.38700
O 	O 	0.66538 0.28065 0.39519 -0.33900
C 	C 	0.77529 0.27021 0.47143 0.29700
O 	O 	0.65093 0.34258 0.57002 -0.35800
O 	O 	0.68811 0.28344 0.57315 -0.42300
H 	H 	0.57205 0.23130 0.45378 0.16600
H 	H 	0.74464 0.39329 0.51404 0.16200
C 	C 	0.62757 0.30090 0.68911 -0.14400
C 	C 	0.68791 0.33257 0.71395 0.01500
C 	C 	0.74491 0.36485 0.69837 0.28100
C 	C 	0.74127 0.36258 0.65810 -0.05900
C 	C 	0.68089 0.32918 0.63318 -0.15600
C 	C 	0.62405 0.29946 0.64888 0.37400
C 	C 	0.69096 0.32655 0.75544 0.01100
F 	F 	0.80368 0.39718 0.72218 -0.42900
H 	H 	0.78535 0.38607 0.64620 0.06500
F 	F 	0.56531 0.26713 0.62503 -0.44100
H 	H 	0.58336 0.27584 0.70085 0.12300
C 	C 	0.66951 0.35197 0.78094 0.28300
C 	C 	0.67115 0.34460 0.81998 -0.05800
C 	C 	0.69484 0.31237 0.83395 -0.14700
C 	C 	0.71712 0.28775 0.80845 0.36700
C 	C 	0.71451 0.29429 0.76938 -0.14100
F 	F 	0.64725 0.38388 0.76793 -0.42900
H 	H 	0.65336 0.36330 0.83923 0.08400
F 	F 	0.74245 0.25855 0.82170 -0.45400
H 	H 	0.73100 0.27442 0.74988 0.11900
C 	C 	0.71293 0.32375 0.28215 -0.13800
C 	C 	0.65866 0.29406 0.25212 0.01100
C 	C 	0.59671 0.26440 0.26136 0.28600
C 	C 	0.58916 0.26465 0.30032 -0.05900
C 	C 	0.64347 0.29474 0.33048 -0.14200
C 	C 	0.70550 0.32433 0.32119 0.36700
C 	C 	0.66689 0.29598 0.21107 0.01000
F 	F 	0.54391 0.23606 0.23256 -0.42700
H 	H 	0.54106 0.24124 0.30706 0.09000
F 	F 	0.75864 0.35479 0.34998 -0.44200
H 	H 	0.76091 0.34693 0.27523 0.12000
C 	C 	0.69378 0.35293 0.19702 0.28700
C 	C 	0.69460 0.35312 0.15720 -0.06100
C 	C 	0.66832 0.29644 0.13100 -0.14200
C 	C 	0.64382 0.23986 0.14535 0.37000
C 	C 	0.64341 0.23985 0.18525 -0.13800
F 	F 	0.71698 0.40762 0.22175 -0.42900
H 	H 	0.71416 0.39707 0.14652 0.07800
F 	F 	0.61761 0.18441 0.12049 -0.43400
H 	H 	0.62301 0.19581 0.19594 0.12000
C 	C 	0.75181 0.58644 0.41863 -0.06800
C 	C 	0.80716 0.63393 0.44628 0.01800
C 	C 	0.83817 0.61709 0.47165 -0.00400
C 	C 	0.81141 0.55285 0.47058 0.00100
C 	C 	0.75413 0.50523 0.44427 -0.08200
C 	C 	0.72573 0.52238 0.41714 0.05600
C 	C 	0.83140 0.70101 0.44906 0.00600
S 	S 	0.91032 0.67589 0.50483 -0.02700
H 	H 	0.83390 0.53987 0.49111 0.03900
S 	S 	0.65802 0.46403 0.38088 -0.02900
H 	H 	0.72886 0.59937 0.39840 0.05800
C 	C 	0.87060 0.73837 0.42339 0.00600
C 	C 	0.89453 0.80220 0.42727 -0.03100
C 	C 	0.88077 0.82974 0.45701 -0.02800
C 	C 	0.84031 0.79191 0.48217 0.02900
C 	C 	0.81537 0.72771 0.47778 -0.05700
S 	S 	0.89157 0.70631 0.38703 -0.02300
H 	H 	0.92550 0.83105 0.40784 0.04900
S 	S 	0.82299 0.82491 0.52036 -0.02800
H 	H 	0.78470 0.69885 0.49731 0.05400
H 	H 	0.60245 0.44211 0.39518 0.02500
H 	H 	0.84490 0.67884 0.35394 0.04500
H 	H 	0.87030 0.84952 0.55281 0.04100
H 	H 	0.96213 0.69558 0.48684 0.04300
C 	C 	0.75811 0.11649 0.46277 -0.07400
C 	C 	0.82228 0.13888 0.46284 0.02000
C 	C 	0.87056 0.20417 0.46411 -0.00900
C 	C 	0.85435 0.24641 0.46598 0.00400
C 	C 	0.79037 0.22427 0.46674 -0.09700
C 	C 	0.74202 0.15877 0.46541 0.06100
C 	C 	0.83917 0.09421 0.46399 0.00400
S 	S 	0.95165 0.23375 0.46432 -0.02500
H 	H 	0.89168 0.29665 0.46726 0.04600
S 	S 	0.66223 0.12962 0.46959 -0.07100
H 	H 	0.72103 0.06636 0.46198 0.05900
C 	C 	0.85452 0.08158 0.49985 0.00700
C 	C 	0.87481 0.04275 0.50056 -0.03100
C 	C 	0.88055 0.01676 0.46586 -0.03000
C 	C 	0.86252 0.02716 0.42986 0.02700
C 	C 	0.84160 0.06550 0.42909 -0.05600
S 	S 	0.85088 0.11601 0.54412 -0.03500
H 	H 	0.88860 0.03480 0.52828 0.04800
S 	S 	0.86811 0.99427 0.38572 -0.02300
H 	H 	0.82886 0.07436 0.40144 0.05500
H 	H 	0.62619 0.11281 0.43316 0.05200
H 	H 	0.90872 0.17475 0.55748 0.03800
H 	H 	0.92926 0.03492 0.37814 0.04000
H 	H 	0.98250 0.24765 0.50198 0.03700
C 	C 	0.32920 0.22532 0.50527 -0.07100
C 	C 	0.29191 0.15884 0.49645 0.01800
C 	C 	0.32223 0.12951 0.48966 -0.00300
C 	C 	0.38901 0.16691 0.49043 -0.00100
C 	C 	0.42583 0.23337 0.49746 -0.08200
C 	C 	0.39602 0.26274 0.50604 0.06000
C 	C 	0.22080 0.12043 0.49229 0.00600
S 	S 	0.27696 0.04609 0.47975 -0.02900
H 	H 	0.41207 0.14427 0.48446 0.03800
S 	S 	0.44198 0.34604 0.51884 -0.02000
H 	H 	0.30605 0.24787 0.51118 0.05700
C 	C 	0.19040 0.09709 0.52425 0.00500
C 	C 	0.12274 0.05873 0.51920 -0.03100
C 	C 	0.08513 0.04378 0.48260 -0.03000
C 	C 	0.11556 0.06780 0.45078 0.03100
C 	C 	0.18316 0.10603 0.45581 -0.05900
S 	S 	0.23650 0.11538 0.57058 -0.02400
H 	H 	0.09933 0.04039 0.54371 0.04800
S 	S 	0.06950 0.04924 0.40435 -0.03900
H 	H 	0.20655 0.12405 0.43123 0.05300
H 	H 	0.44477 0.37077 0.48579 0.04100
H 	H 	0.25278 0.17146 0.59061 0.04300
H 	H 	0.05322 0.99307 0.38447 0.04400
H 	H 	0.27311 0.02464 0.51422 0.04400
C 	C 	0.80479 0.61787 0.93720 -0.07000
C 	C 	0.82677 0.66543 0.96970 0.01800
C 	C 	0.81597 0.64918 0.00676 -0.00600
C 	C 	0.78800 0.58667 0.01147 -0.00200
C 	C 	0.76722 0.53899 0.97914 -0.08400
C 	C 	0.77369 0.55456 0.94149 0.05300
C 	C 	0.86303 0.73245 0.96491 0.00500
S 	S 	0.83622 0.70647 0.04735 -0.02500
H 	H 	0.78227 0.57506 0.04035 0.04600
S 	S 	0.73935 0.49520 0.89935 -0.00800
H 	H 	0.81154 0.63010 0.90851 0.06000
C 	C 	0.93068 0.77510 0.97764 0.00700
C 	C 	0.96318 0.83967 0.97682 -0.03200
C 	C 	0.92948 0.86203 0.96148 -0.02800
C 	C 	0.86250 0.81827 0.94567 0.03000
C 	C 	0.82949 0.75409 0.94837 -0.05700
S 	S 	0.97535 0.74799 0.99403 -0.03100
H 	H 	0.01479 0.87267 0.98831 0.05100
S 	S 	0.82053 0.84195 0.91992 -0.02600
H 	H 	0.77775 0.72087 0.93737 0.05500
H 	H 	0.67642 0.47251 0.88699 0.04500
H 	H 	0.99260 0.72969 0.96278 0.04400
H 	H 	0.82599 0.83731 0.88145 0.04100
H 	H 	0.89849 0.73503 0.06594 0.04100
C 	C 	0.88947 0.07974 0.03204 -0.05600
C 	C 	0.88003 0.11006 0.00449 0.00400
C 	C 	0.90510 0.11547 0.96987 0.00700
C 	C 	0.93769 0.08906 0.96271 -0.03300
C 	C 	0.94540 0.05700 0.98969 -0.02700
C 	C 	0.92200 0.05321 0.02486 0.02900
C 	C 	0.84245 0.13469 0.01157 0.01900
S 	S 	0.89497 0.15421 0.93499 -0.03200
H 	H 	0.95598 0.09237 0.93578 0.05000
S 	S 	0.93473 0.01707 0.06055 -0.02900
H 	H 	0.87097 0.07630 0.05890 0.05500
C 	C 	0.77514 0.09671 0.99731 -0.00700
C 	C 	0.74239 0.12406 0.99812 -0.00100
C 	C 	0.77628 0.18916 0.01280 -0.09200
C 	C 	0.84237 0.22569 0.03022 0.06000
C 	C 	0.87510 0.19831 0.02946 -0.07200
S 	S 	0.73199 0.01561 0.97689 -0.02500
H 	H 	0.69125 0.09545 0.98543 0.04000
S 	S 	0.88443 0.30552 0.05324 -0.03300
H 	H 	0.92648 0.22709 0.04154 0.05800
H 	H 	0.99304 0.06145 0.08497 0.04100
H 	H 	0.73466 0.00943 0.93800 0.03600
H 	H 	0.91144 0.34419 0.02657 0.04200
H 	H 	0.83695 0.11146 0.90992 0.03800
C 	C 	0.38161 0.21961 0.99289 -0.07400
C 	C 	0.33703 0.16124 0.96745 0.02000
C 	C 	0.35937 0.13188 0.94619 -0.00600
C 	C 	0.42576 0.15998 0.95175 0.00300
C 	C 	0.47020 0.21735 0.97820 -0.09100
C 	C 	0.44782 0.24736 0.99886 0.06800
C 	C 	0.26704 0.12799 0.96668 0.00500
S 	S 	0.30458 0.05934 0.91322 -0.02700
H 	H 	0.44280 0.13695 0.93573 0.03800
S 	S 	0.50152 0.31732 0.03416 -0.07100
H 	H 	0.36440 0.24207 0.00934 0.05900
C 	C 	0.23617 0.08779 0.99343 0.00600
C 	C 	0.17030 0.05789 0.99300 -0.03100
C 	C 	0.13448 0.06731 0.96599 -0.02900
C 	C 	0.16543 0.10807 0.93946 0.03000
C 	C 	0.23159 0.13834 0.94004 -0.05700
S 	S 	0.27948 0.07424 0.02743 -0.02500
H 	H 	0.14658 0.02657 0.01343 0.04800
S 	S 	0.12168 0.12019 0.90478 -0.03100
H 	H 	0.25542 0.16963 0.91964 0.05400
H 	H 	0.50724 0.30147 0.06961 0.05800
H 	H 	0.30766 0.12054 0.06027 0.04600
H 	H 	0.09589 0.07462 0.87177 0.04100
H 	H 	0.28334 0.01007 0.93290 0.04200
