data_crystal

_cell_length_a 18.51785
_cell_length_b 18.80846
_cell_length_c 26.49161
_cell_angle_alpha 95.43712
_cell_angle_beta  95.43675
_cell_angle_gamma 126.42127

_symmetry_space_group_name_	'P 1'
_symmetry_space_group_name_H-M	'P 1'

loop_
_symmetry_equiv_pos_as_xyz
  x,y,z

loop_
_atom_site_label
_atom_site_type_symbol
_atom_site_fract_x
_atom_site_fract_y
_atom_site_fract_z
_atom_site_charge
C 	C 	0.95737 0.04430 0.00438 0.14200
N 	N 	0.90203 0.95381 0.00157 -0.08300
C 	C 	0.93773 0.90832 0.00149 0.19300
N 	N 	0.02879 0.95348 0.00432 -0.08100
C 	C 	0.08423 0.04355 0.00645 0.15600
N 	N 	0.04856 0.08920 0.00620 -0.10100
C 	C 	0.90426 0.99103 0.44724 0.26800
N 	N 	0.86022 0.90187 0.44817 -0.10800
C 	C 	0.90783 0.86768 0.44814 0.20200
N 	N 	0.99854 0.92253 0.44750 -0.10900
C 	C 	0.04228 0.01108 0.44722 0.17300
N 	N 	0.99527 0.04526 0.44707 -0.16900
Cu	Cu	0.62548 0.21141 0.01011 0.93700
Cu	Cu	0.69611 0.22716 0.90038 0.88300
Cu	Cu	0.65439 0.34638 0.94356 0.91000
Cu	Cu	0.62915 0.37593 0.05066 0.91100
C 	C 	0.65819 0.27464 0.11905 0.32900
O 	O 	0.49345 0.15831 0.01366 -0.34100
C 	C 	0.63509 0.29731 0.83139 0.32300
O 	O 	0.69634 0.35081 0.01423 -0.63400
O 	O 	0.60565 0.21820 0.93682 -0.63800
O 	O 	0.68381 0.15095 0.00258 -0.32100
O 	O 	0.78311 0.25240 0.95738 -0.41900
O 	O 	0.61537 0.30908 0.10781 -0.35800
O 	O 	0.71031 0.47332 0.95142 -0.32800
C 	C 	0.72376 0.52715 0.99321 0.34200
C 	C 	0.45705 0.19677 0.99762 0.33000
O 	O 	0.51036 0.28061 0.99148 -0.36500
O 	O 	0.68356 0.49590 0.03285 -0.36400
O 	O 	0.66448 0.22654 0.08269 -0.31600
C 	C 	0.76146 0.19155 0.98593 0.33400
O 	O 	0.62404 0.33956 0.86913 -0.32800
O 	O 	0.63757 0.23013 0.83800 -0.38700
H 	H 	0.76348 0.39210 0.02606 0.19700
H 	H 	0.54190 0.17519 0.91762 0.20100
Cu	Cu	0.75435 0.33711 0.44481 0.93400
Cu	Cu	0.73432 0.26375 0.55384 0.88200
Cu	Cu	0.61155 0.30091 0.50923 0.90500
Cu	Cu	0.58645 0.33289 0.40307 0.91100
C 	C 	0.69181 0.30698 0.33574 0.32900
O 	O 	0.80835 0.46893 0.44314 -0.30700
C 	C 	0.65935 0.32039 0.62187 0.32100
O 	O 	0.61202 0.26582 0.43850 -0.63600
O 	O 	0.74316 0.35294 0.51770 -0.63700
O 	O 	0.81280 0.27542 0.45182 -0.31700
O 	O 	0.70766 0.17824 0.49649 -0.42500
O 	O 	0.65680 0.34914 0.34689 -0.34600
O 	O 	0.48141 0.24121 0.49909 -0.33800
C 	C 	0.42916 0.23012 0.45677 0.34500
C 	C 	0.76644 0.50280 0.45763 0.32500
O 	O 	0.68129 0.44851 0.46345 -0.38000
O 	O 	0.46366 0.27758 0.42023 -0.36500
O 	O 	0.74235 0.30261 0.37204 -0.31200
C 	C 	0.76977 0.19849 0.46838 0.33200
O 	O 	0.61399 0.32739 0.58342 -0.33200
O 	O 	0.72909 0.32019 0.61579 -0.38800
H 	H 	0.57126 0.20010 0.42522 0.18600
H 	H 	0.78477 0.41537 0.53754 0.19700
C 	C 	0.55436 0.24789 0.73970 0.10800
C 	C 	0.62896 0.31515 0.77873 -0.09300
C 	C 	0.70378 0.39395 0.76569 0.09600
C 	C 	0.70904 0.40017 0.71342 0.11000
C 	C 	0.64079 0.32670 0.67440 -0.09500
C 	C 	0.56061 0.25316 0.68742 0.10300
Br	Br	0.46134 0.15802 0.63374 -0.16100
Br	Br	0.44394 0.14913 0.75805 -0.14500
Br	Br	0.80899 0.50914 0.69509 -0.14500
Br	Br	0.80097 0.49117 0.81933 -0.13100
C 	C 	0.75990 0.34118 0.20554 0.10700
C 	C 	0.67688 0.26959 0.17335 -0.09000
C 	C 	0.60672 0.20024 0.19490 0.11300
C 	C 	0.61529 0.20833 0.24891 0.10400
C 	C 	0.69397 0.28554 0.28121 -0.08600
C 	C 	0.76860 0.34915 0.25958 0.11100
Br	Br	0.88131 0.44850 0.30393 -0.08600
Br	Br	0.86037 0.42951 0.17548 -0.15300
Br	Br	0.51845 0.11517 0.27886 -0.17800
Br	Br	0.49792 0.09588 0.15039 -0.14200
C 	C 	0.87323 0.72227 0.41004 -0.10800
C 	C 	0.86165 0.77107 0.44752 -0.05100
C 	C 	0.82131 0.73231 0.48923 0.32700
C 	C 	0.79428 0.64630 0.49373 -0.06900
C 	C 	0.80730 0.59813 0.45666 -0.12300
C 	C 	0.84645 0.63650 0.41455 0.36100
F 	F 	0.85608 0.58973 0.37715 -0.41100
H 	H 	0.90470 0.75169 0.37783 0.13400
H 	H 	0.76283 0.61691 0.52594 0.11200
F 	F 	0.81102 0.77901 0.52629 -0.39000
C 	C 	0.86359 0.08281 0.41062 -0.09700
C 	C 	0.85450 0.02992 0.44732 -0.10300
C 	C 	0.81234 0.02828 0.48899 0.29400
C 	C 	0.78396 0.08248 0.49532 -0.06700
C 	C 	0.79699 0.13878 0.45996 -0.13200
C 	C 	0.83488 0.13682 0.41675 0.35500
F 	F 	0.84370 0.18679 0.38064 -0.41300
H 	H 	0.89538 0.08404 0.37808 0.11100
H 	H 	0.75400 0.08242 0.52852 0.08300
F 	F 	0.80321 0.97786 0.52488 -0.36700
C 	C 	0.19986 0.13770 0.49178 -0.11800
C 	C 	0.14077 0.07013 0.44844 -0.04400
C 	C 	0.17659 0.05596 0.40767 0.27900
C 	C 	0.27100 0.10873 0.41046 -0.05300
C 	C 	0.33024 0.17509 0.45424 -0.13500
C 	C 	0.29436 0.18978 0.49487 0.37200
F 	F 	0.35100 0.25521 0.53696 -0.41200
H 	H 	0.17254 0.14884 0.52340 0.12500
H 	H 	0.29825 0.09747 0.37883 0.09400
F 	F 	0.11981 0.99109 0.36539 -0.36500
C 	C 	0.75160 0.67350 0.01938 -0.06100
C 	C 	0.77493 0.62378 0.99266 -0.12500
C 	C 	0.84878 0.66733 0.96661 0.36700
C 	C 	0.89892 0.75949 0.96762 -0.10600
C 	C 	0.87776 0.80981 0.99587 -0.05500
C 	C 	0.80316 0.76618 0.02140 0.33200
F 	F 	0.78258 0.81392 0.04962 -0.40100
H 	H 	0.69409 0.64048 0.03909 0.11600
H 	H 	0.95564 0.79229 0.94730 0.12800
F 	F 	0.87418 0.62102 0.94196 -0.41800
C 	C 	0.87766 0.17516 0.95972 -0.06700
C 	C 	0.81931 0.16208 0.99425 -0.13900
C 	C 	0.81445 0.11818 0.03543 0.37100
C 	C 	0.86298 0.08310 0.03993 -0.12100
C 	C 	0.91793 0.09279 0.00403 -0.03900
C 	C 	0.92684 0.14088 0.96465 0.30700
F 	F 	0.97983 0.15076 0.92969 -0.42400
H 	H 	0.88288 0.20959 0.92812 0.09000
H 	H 	0.85682 0.04715 0.07089 0.13000
F 	F 	0.76307 0.10969 0.07112 -0.41400
C 	C 	0.32078 0.10898 0.03846 -0.06500
C 	C 	0.36021 0.15413 0.99832 -0.13500
C 	C 	0.31012 0.16767 0.96265 0.36400
C 	C 	0.22154 0.13624 0.96725 -0.12200
C 	C 	0.18197 0.09037 0.00712 -0.04200
C 	C 	0.23237 0.07767 0.04304 0.31400
F 	F 	0.19529 0.03447 0.08226 -0.41400
H 	H 	0.35943 0.09994 0.06685 0.11700
H 	H 	0.18261 0.14505 0.93888 0.13400
F 	F 	0.34688 0.21024 0.92319 -0.42300
