data_crystal

_cell_length_a 34.10063
_cell_length_b 32.31408
_cell_length_c 39.21957
_cell_angle_alpha 90.00000
_cell_angle_beta  90.00000
_cell_angle_gamma 114.81969

_symmetry_space_group_name_	'P 1'
_symmetry_space_group_name_H-M	'P 1'

loop_
_symmetry_equiv_pos_as_xyz
  x,y,z

loop_
_atom_site_label
_atom_site_type_symbol
_atom_site_fract_x
_atom_site_fract_y
_atom_site_fract_z
_atom_site_charge
Zn	Zn	0.95970 0.95031 0.95822 1.22300
Zn	Zn	0.04264 0.00200 0.90111 1.19400
C 	C 	0.01827 0.09054 0.02807 0.34600
Zn	Zn	0.03627 0.04572 0.96796 1.22500
Zn	Zn	0.96938 0.99031 0.03061 1.19400
H 	H 	0.98346 0.02620 0.92016 0.17400
C 	C 	0.10198 0.01229 0.96390 0.32500
O 	O 	0.91351 0.93487 0.03445 -0.46500
O 	O 	0.92702 0.89453 0.99165 -0.41100
O 	O 	0.99884 0.00972 0.93118 -0.79200
O 	O 	0.01632 0.93518 0.89002 -0.44600
O 	O 	0.90841 0.96471 0.95751 -0.43700
O 	O 	0.95812 0.90385 0.92547 -0.43900
O 	O 	0.93680 0.02041 0.99785 -0.42400
O 	O 	0.09385 0.06246 0.89795 -0.46200
H 	H 	0.02058 0.96492 0.99934 0.17800
O 	O 	0.06893 0.10140 0.93440 -0.40200
O 	O 	0.00365 0.98216 0.99280 -0.78900
O 	O 	0.00786 0.05349 0.04665 -0.46600
O 	O 	0.09221 0.04403 0.97717 -0.44300
O 	O 	0.02182 0.08935 0.99470 -0.43400
O 	O 	0.07617 0.98328 0.94158 -0.42500
C 	C 	0.90360 0.89649 0.01764 0.32800
C 	C 	0.99295 0.90312 0.91166 0.32000
C 	C 	0.90502 0.99591 0.97736 0.32300
C 	C 	0.09740 0.10099 0.91194 0.32500
Zn	Zn	0.03628 0.54579 0.03176 1.22400
Zn	Zn	0.96949 0.49043 0.96906 1.19200
C 	C 	0.99313 0.40312 0.08819 0.32000
Zn	Zn	0.95978 0.45042 0.04146 1.22300
Zn	Zn	0.04281 0.50207 0.09854 1.19400
H 	H 	0.02071 0.46478 0.00048 0.17800
C 	C 	0.90510 0.49578 0.02241 0.32300
O 	O 	0.09390 0.56238 0.10172 -0.46300
O 	O 	0.06896 0.60141 0.06535 -0.40100
O 	O 	0.00381 0.48207 0.00697 -0.78900
O 	O 	0.00797 0.55366 0.95316 -0.46700
O 	O 	0.09239 0.54399 0.02250 -0.44200
O 	O 	0.02188 0.58930 0.00519 -0.43600
O 	O 	0.07614 0.48316 0.05803 -0.42600
O 	O 	0.91348 0.43488 0.96527 -0.46400
H 	H 	0.98366 0.52599 0.07972 0.17300
O 	O 	0.92703 0.39460 0.00807 -0.41100
O 	O 	0.99905 0.50958 0.06861 -0.79400
O 	O 	0.01647 0.43528 0.10977 -0.44700
O 	O 	0.90863 0.46466 0.04227 -0.43900
O 	O 	0.95830 0.40374 0.07431 -0.43700
O 	O 	0.93681 0.52035 0.00188 -0.42400
C 	C 	0.09744 0.60095 0.08779 0.32500
C 	C 	0.01839 0.59063 0.97183 0.34600
C 	C 	0.10204 0.51216 0.03575 0.32600
C 	C 	0.90358 0.39652 0.98210 0.32800
Zn	Zn	0.46389 0.95424 0.03180 1.22300
Zn	Zn	0.53066 0.00959 0.96909 1.19400
C 	C 	0.50705 0.09694 0.08821 0.32400
Zn	Zn	0.54039 0.04962 0.04149 1.22400
Zn	Zn	0.45737 0.99799 0.09859 1.19300
H 	H 	0.47945 0.03525 0.00052 0.17700
C 	C 	0.59506 0.00425 0.02244 0.32300
O 	O 	0.40628 0.93768 0.10178 -0.46300
O 	O 	0.43121 0.89864 0.06541 -0.40300
O 	O 	0.49636 0.01796 0.00701 -0.79300
O 	O 	0.49218 0.94636 0.95320 -0.46900
O 	O 	0.40777 0.95604 0.02255 -0.44200
O 	O 	0.47828 0.91073 0.00524 -0.43800
O 	O 	0.42402 0.01688 0.05807 -0.42800
O 	O 	0.58668 0.06514 0.96529 -0.46300
H 	H 	0.51651 0.97406 0.07976 0.17400
O 	O 	0.57313 0.10543 0.00809 -0.40900
O 	O 	0.50112 0.99047 0.06865 -0.79000
O 	O 	0.48371 0.06478 0.10980 -0.45200
O 	O 	0.59153 0.03537 0.04230 -0.43900
O 	O 	0.54187 0.09630 0.07434 -0.43600
O 	O 	0.56335 0.97968 0.00191 -0.42200
C 	C 	0.40272 0.89911 0.08784 0.32500
C 	C 	0.48176 0.90939 0.97188 0.34600
C 	C 	0.39812 0.98787 0.03580 0.32700
C 	C 	0.59658 0.10350 0.98212 0.32800
Zn	Zn	0.54046 0.54973 0.95820 1.22300
Zn	Zn	0.45754 0.49804 0.90107 1.19200
C 	C 	0.48190 0.40949 0.02803 0.34500
Zn	Zn	0.46390 0.45432 0.96793 1.22400
Zn	Zn	0.53078 0.50972 0.03058 1.19500
H 	H 	0.51672 0.47385 0.92013 0.17500
C 	C 	0.39818 0.48773 0.96386 0.32700
O 	O 	0.58664 0.56517 0.03443 -0.46400
O 	O 	0.57314 0.60550 0.99163 -0.41000
O 	O 	0.50133 0.49032 0.93115 -0.78900
O 	O 	0.48385 0.56486 0.89000 -0.45200
O 	O 	0.59175 0.53533 0.95749 -0.43700
O 	O 	0.54204 0.59619 0.92545 -0.43900
O 	O 	0.56336 0.47963 0.99783 -0.42200
O 	O 	0.40633 0.43758 0.89790 -0.46300
H 	H 	0.47957 0.53511 0.99931 0.17700
O 	O 	0.43125 0.39864 0.93437 -0.40300
O 	O 	0.49651 0.51787 0.99277 -0.79300
O 	O 	0.49230 0.44654 0.04662 -0.46800
O 	O 	0.40796 0.45600 0.97714 -0.44400
O 	O 	0.47835 0.41069 0.99467 -0.43600
O 	O 	0.42399 0.51674 0.94155 -0.42800
C 	C 	0.59656 0.60355 0.01762 0.32800
C 	C 	0.50722 0.59692 0.91164 0.32400
C 	C 	0.59514 0.50413 0.97734 0.32300
C 	C 	0.40277 0.39905 0.91191 0.32500
C 	C 	0.47660 0.75300 0.96148 -0.02800
H 	H 	0.46580 0.75233 0.98827 0.03700
C 	C 	0.48637 0.79245 0.93621 -0.00600
C 	C 	0.48354 0.83477 0.94626 0.05100
C 	C 	0.51856 0.74960 0.95015 -0.02900
H 	H 	0.54240 0.74541 0.96747 0.03800
C 	C 	0.52832 0.78958 0.92498 -0.02800
H 	H 	0.56012 0.81906 0.92167 0.03500
C 	C 	0.45102 0.71890 0.93325 -0.03000
H 	H 	0.41925 0.68940 0.93662 0.03500
C 	C 	0.49298 0.71605 0.92201 -0.00500
C 	C 	0.49737 0.67344 0.91606 0.04700
C 	C 	0.50279 0.75540 0.89664 -0.03000
H 	H 	0.51362 0.75592 0.86989 0.03500
C 	C 	0.46070 0.75901 0.90803 -0.02900
H 	H 	0.43687 0.76333 0.89080 0.03400
C 	C 	0.50159 0.63843 0.91307 -0.11400
C 	C 	0.48218 0.86918 0.95677 -0.11800
C 	C 	0.46221 0.26024 0.09312 -0.02900
H 	H 	0.43968 0.26550 0.11122 0.03400
C 	C 	0.48636 0.29258 0.06390 -0.00600
C 	C 	0.48360 0.33493 0.05382 0.05100
C 	C 	0.50467 0.25634 0.10293 -0.02900
H 	H 	0.51712 0.25756 0.12924 0.03500
C 	C 	0.52869 0.28942 0.07355 -0.02800
H 	H 	0.56085 0.31868 0.07557 0.03600
C 	C 	0.45049 0.21924 0.06844 -0.03000
H 	H 	0.41836 0.18994 0.06636 0.03500
C 	C 	0.49283 0.21610 0.07809 -0.00500
C 	C 	0.49717 0.17346 0.08400 0.04700
C 	C 	0.51689 0.24857 0.04891 -0.02900
H 	H 	0.53943 0.24344 0.03073 0.03800
C 	C 	0.47456 0.25225 0.03916 -0.02800
H 	H 	0.46215 0.25088 0.01282 0.03700
C 	C 	0.50138 0.13844 0.08692 -0.11400
C 	C 	0.48228 0.36933 0.04326 -0.11800
C 	C 	0.74349 0.28818 0.96968 -0.02900
H 	H 	0.73846 0.31997 0.96972 0.03500
C 	C 	0.78757 0.28583 0.96968 -0.00500
C 	C 	0.82928 0.32565 0.97167 0.04700
C 	C 	0.72779 0.25093 0.99762 -0.02800
H 	H 	0.70908 0.25136 0.02068 0.03900
C 	C 	0.77236 0.24909 0.99762 -0.02800
H 	H 	0.79108 0.24867 0.02068 0.03900
C 	C 	0.72765 0.25084 0.94168 -0.03000
H 	H 	0.70881 0.25114 0.91867 0.03300
C 	C 	0.71259 0.21419 0.96968 -0.00500
C 	C 	0.67088 0.17437 0.97167 0.04700
C 	C 	0.75667 0.21184 0.96969 -0.02900
H 	H 	0.76170 0.18004 0.96973 0.03500
C 	C 	0.77251 0.24917 0.94168 -0.03000
H 	H 	0.79135 0.24886 0.91867 0.03300
C 	C 	0.63677 0.14183 0.97535 -0.11300
C 	C 	0.86338 0.35819 0.97534 -0.11400
C 	C 	0.25606 0.71221 0.10180 -0.02900
H 	H 	0.26061 0.68068 0.10679 0.03500
C 	C 	0.21244 0.71440 0.09573 -0.00400
C 	C 	0.17072 0.67444 0.09447 0.04600
C 	C 	0.26913 0.75356 0.12628 -0.03000
H 	H 	0.28520 0.75679 0.15138 0.03300
C 	C 	0.22478 0.75508 0.12019 -0.03000
H 	H 	0.20359 0.75888 0.14028 0.03400
C 	C 	0.27527 0.74497 0.07131 -0.02800
H 	H 	0.29640 0.74111 0.05118 0.03800
C 	C 	0.28770 0.78569 0.09574 -0.00400
C 	C 	0.32942 0.82564 0.09450 0.04600
C 	C 	0.24407 0.78786 0.08966 -0.02900
H 	H 	0.23950 0.81937 0.08463 0.03600
C 	C 	0.23110 0.74659 0.06524 -0.02800
H 	H 	0.21511 0.74344 0.04010 0.03800
C 	C 	0.36326 0.85889 0.09218 -0.11000
C 	C 	0.13689 0.64118 0.09214 -0.11000
C 	C 	0.75167 0.54105 0.00749 -0.02900
H 	H 	0.75260 0.57502 0.01358 0.03600
C 	C 	0.71253 0.50035 0.99294 -0.00400
C 	C 	0.67067 0.50113 0.98574 0.04600
C 	C 	0.78102 0.53181 0.98126 -0.02900
H 	H 	0.80692 0.55818 0.96599 0.03500
C 	C 	0.74124 0.49112 0.96661 -0.02900
H 	H 	0.73362 0.48394 0.93913 0.03500
C 	C 	0.75889 0.50858 0.03327 -0.02900
H 	H 	0.76652 0.51575 0.06075 0.03400
C 	C 	0.78760 0.49935 0.00694 -0.00500
C 	C 	0.82949 0.49861 0.01412 0.04600
C 	C 	0.74847 0.45864 0.99239 -0.02900
H 	H 	0.74753 0.42468 0.98630 0.03600
C 	C 	0.71911 0.46789 0.01862 -0.02900
H 	H 	0.69322 0.44152 0.03389 0.03600
C 	C 	0.86401 0.49762 0.01882 -0.11200
C 	C 	0.63618 0.50218 0.98100 -0.11100
C 	C 	0.25888 0.53643 0.01979 -0.02900
H 	H 	0.26573 0.56659 0.03630 0.03500
C 	C 	0.21382 0.50253 0.00800 -0.00600
C 	C 	0.17360 0.50565 0.01734 0.04600
C 	C 	0.27577 0.53773 0.98295 -0.02900
H 	H 	0.29734 0.56890 0.96900 0.03500
C 	C 	0.23009 0.50388 0.97132 -0.02900
H 	H 	0.21325 0.50722 0.94796 0.03400
C 	C 	0.27005 0.49580 0.02832 -0.02900
H 	H 	0.28689 0.49245 0.05168 0.03400
C 	C 	0.28631 0.49715 0.99163 -0.00600
C 	C 	0.32655 0.49406 0.98230 0.04600
C 	C 	0.24125 0.46325 0.97985 -0.02900
H 	H 	0.23441 0.43309 0.96334 0.03500
C 	C 	0.22436 0.46195 0.01669 -0.02900
H 	H 	0.20279 0.43078 0.03064 0.03500
C 	C 	0.35944 0.49132 0.97419 -0.11700
C 	C 	0.14074 0.50845 0.02544 -0.11700
C 	C 	0.77249 0.74918 0.05812 -0.03000
H 	H 	0.79132 0.74888 0.08114 0.03300
C 	C 	0.78758 0.78583 0.03011 -0.00500
C 	C 	0.82929 0.82564 0.02812 0.04700
C 	C 	0.75665 0.71184 0.03013 -0.02900
H 	H 	0.76167 0.68004 0.03010 0.03500
C 	C 	0.77237 0.74908 0.00218 -0.02800
H 	H 	0.79109 0.74864 0.97913 0.03900
C 	C 	0.72764 0.75087 0.05810 -0.03000
H 	H 	0.70879 0.75120 0.08110 0.03300
C 	C 	0.71257 0.71421 0.03011 -0.00500
C 	C 	0.67086 0.67440 0.02811 0.04700
C 	C 	0.72781 0.75094 0.00216 -0.02800
H 	H 	0.70910 0.75136 0.97909 0.03900
C 	C 	0.74350 0.78820 0.03009 -0.02900
H 	H 	0.73848 0.82000 0.03003 0.03500
C 	C 	0.63675 0.64187 0.02442 -0.11300
C 	C 	0.86340 0.85817 0.02443 -0.11400
C 	C 	0.22679 0.25234 0.87705 -0.03000
H 	H 	0.20724 0.25391 0.85486 0.03300
C 	C 	0.21243 0.21440 0.90406 -0.00400
C 	C 	0.17071 0.17447 0.90531 0.04600
C 	C 	0.27143 0.25036 0.87516 -0.03000
H 	H 	0.28939 0.25098 0.85141 0.03300
C 	C 	0.25635 0.21175 0.90217 -0.02900
H 	H 	0.26113 0.17987 0.90065 0.03500
C 	C 	0.24381 0.28829 0.90595 -0.02900
H 	H 	0.23902 0.32017 0.90753 0.03600
C 	C 	0.28773 0.28565 0.90405 -0.00400
C 	C 	0.32946 0.32558 0.90529 0.04600
C 	C 	0.27328 0.24766 0.93103 -0.02800
H 	H 	0.29276 0.24602 0.95325 0.03800
C 	C 	0.22882 0.24974 0.93291 -0.02800
H 	H 	0.21094 0.24920 0.95670 0.03800
C 	C 	0.36331 0.35883 0.90760 -0.11000
C 	C 	0.13686 0.14122 0.90763 -0.11000
C 	C 	0.74849 0.95897 0.00750 -0.02900
H 	H 	0.74755 0.92500 0.01358 0.03600
C 	C 	0.78763 0.99969 0.99296 -0.00400
C 	C 	0.82949 0.99891 0.98577 0.04600
C 	C 	0.71915 0.96823 0.98127 -0.02900
H 	H 	0.69325 0.94188 0.96599 0.03600
C 	C 	0.75893 0.00893 0.96664 -0.02900
H 	H 	0.76656 0.01613 0.93916 0.03500
C 	C 	0.74126 0.99144 0.03329 -0.02900
H 	H 	0.73363 0.98424 0.06077 0.03500
C 	C 	0.71256 0.00068 0.00697 -0.00400
C 	C 	0.67068 0.00142 0.01414 0.04600
C 	C 	0.75170 0.04140 0.99243 -0.02900
H 	H 	0.75264 0.07536 0.98635 0.03600
C 	C 	0.78104 0.03214 0.01866 -0.02900
H 	H 	0.80694 0.05849 0.03393 0.03500
C 	C 	0.63615 0.00241 0.01885 -0.11100
C 	C 	0.86399 0.99786 0.98103 -0.11100
C 	C 	0.27036 0.99677 0.97136 -0.02900
H 	H 	0.28745 0.99398 0.94798 0.03400
C 	C 	0.28631 0.99746 0.00807 -0.00600
C 	C 	0.32654 0.99434 0.01740 0.04600
C 	C 	0.25893 0.03710 0.98033 -0.03000
H 	H 	0.26581 0.06757 0.96415 0.03500
C 	C 	0.27551 0.03774 0.01719 -0.02900
H 	H 	0.29686 0.06866 0.03150 0.03500
C 	C 	0.22462 0.96255 0.98258 -0.02900
H 	H 	0.20327 0.93163 0.96827 0.03500
C 	C 	0.21382 0.00283 0.99170 -0.00600
C 	C 	0.17358 0.00593 0.98236 0.04600
C 	C 	0.22977 0.00351 0.02841 -0.02900
H 	H 	0.21268 0.00630 0.05179 0.03400
C 	C 	0.24121 0.96318 0.01944 -0.02900
H 	H 	0.23432 0.93271 0.03562 0.03500
C 	C 	0.14070 0.00867 0.97424 -0.11700
C 	C 	0.35941 0.99156 0.02550 -0.11700
C 	C 	0.98280 0.75126 0.95095 -0.03900
H 	H 	0.95995 0.75614 0.96894 0.03900
C 	C 	0.00717 0.78398 0.92200 0.00400
C 	C 	0.00278 0.82659 0.91605 0.05500
C 	C 	0.02508 0.74770 0.96104 -0.02100
H 	H 	0.03715 0.74892 0.98749 0.03700
C 	C 	0.04946 0.78097 0.93199 -0.03400
H 	H 	0.08151 0.81035 0.93436 0.03700
C 	C 	0.97149 0.71060 0.92617 -0.02800
H 	H 	0.93942 0.68126 0.92387 0.03400
C 	C 	0.01377 0.70757 0.93617 -0.00500
C 	C 	0.01660 0.66525 0.94621 0.05200
C 	C 	0.03823 0.74018 0.90718 -0.02300
H 	H 	0.06107 0.73516 0.88926 0.03400
C 	C 	0.99582 0.74395 0.89703 -0.04000
H 	H 	0.98372 0.74286 0.87061 0.03500
C 	C 	0.01797 0.63084 0.95672 -0.11700
C 	C 	0.99856 0.86160 0.91307 -0.12300
C 	C 	0.02510 0.24756 0.03903 -0.02200
H 	H 	0.03709 0.24873 0.01256 0.03700
C 	C 	0.01381 0.20746 0.06393 -0.00500
C 	C 	0.01656 0.16511 0.05385 0.05200
C 	C 	0.04958 0.28086 0.06803 -0.03300
H 	H 	0.08164 0.31020 0.06561 0.03700
C 	C 	0.03837 0.24009 0.09287 -0.02400
H 	H 	0.06124 0.23507 0.11076 0.03400
C 	C 	0.98287 0.25119 0.04919 -0.03800
H 	H 	0.95999 0.25608 0.03123 0.03900
C 	C 	0.00734 0.28394 0.07810 0.00300
C 	C 	0.00301 0.32659 0.08400 0.05400
C 	C 	0.99601 0.24394 0.10309 -0.03800
H 	H 	0.98398 0.24291 0.12953 0.03500
C 	C 	0.97158 0.21057 0.07399 -0.02800
H 	H 	0.93950 0.18125 0.07634 0.03500
C 	C 	0.99879 0.36162 0.08691 -0.12200
C 	C 	0.01788 0.13070 0.04329 -0.11700
