data_crystal

_cell_length_a 30.32935
_cell_length_b 30.24802
_cell_length_c 34.97088
_cell_angle_alpha 95.54109
_cell_angle_beta  95.54052
_cell_angle_gamma 125.61057

_symmetry_space_group_name_	'P 1'
_symmetry_space_group_name_H-M	'P 1'

loop_
_symmetry_equiv_pos_as_xyz
  x,y,z

loop_
_atom_site_label
_atom_site_type_symbol
_atom_site_fract_x
_atom_site_fract_y
_atom_site_fract_z
_atom_site_charge
C 	C 	0.96037 0.01862 0.97917 0.11600
N 	N 	0.01409 0.04659 0.97525 -0.13600
C 	C 	0.03846 0.02051 0.97447 0.12100
N 	N 	0.00908 0.96648 0.97799 -0.13600
C 	C 	0.95534 0.93825 0.98170 0.11900
N 	N 	0.93104 0.96436 0.98218 -0.13800
C 	C 	0.96635 0.01559 0.46608 0.11500
N 	N 	0.94005 0.96300 0.47262 -0.13800
C 	C 	0.96836 0.94144 0.47832 0.11700
N 	N 	0.02325 0.97282 0.47760 -0.13600
C 	C 	0.04984 0.02548 0.47118 0.12000
N 	N 	0.02125 0.04673 0.46532 -0.13700
Cu	Cu	0.63154 0.24339 0.99792 0.93000
Cu	Cu	0.66827 0.24030 0.91325 0.87200
Cu	Cu	0.65388 0.32522 0.94447 0.90000
Cu	Cu	0.63592 0.34826 0.02367 0.89600
C 	C 	0.65342 0.28862 0.07930 0.30900
O 	O 	0.55254 0.21377 0.00101 -0.35100
C 	C 	0.63879 0.28882 0.86012 0.30700
O 	O 	0.67618 0.32883 0.99854 -0.64200
O 	O 	0.61869 0.24466 0.94174 -0.64000
O 	O 	0.66301 0.20124 0.99442 -0.36300
O 	O 	0.72171 0.25524 0.95591 -0.43500
O 	O 	0.62811 0.31065 0.06929 -0.37600
O 	O 	0.69378 0.40440 0.94901 -0.37100
C 	C 	0.69590 0.43843 0.97719 0.29300
C 	C 	0.53022 0.23633 0.98608 0.28400
O 	O 	0.56206 0.28756 0.98044 -0.39100
O 	O 	0.66847 0.42056 0.00618 -0.38900
O 	O 	0.65647 0.25653 0.05304 -0.34500
C 	C 	0.70809 0.22045 0.98003 0.29000
O 	O 	0.63643 0.31988 0.88794 -0.36200
O 	O 	0.63341 0.24372 0.86622 -0.41300
H 	H 	0.71660 0.35318 0.00828 0.16900
H 	H 	0.57965 0.22022 0.92805 0.17700
Cu	Cu	0.74278 0.34675 0.45064 0.93000
Cu	Cu	0.73555 0.29636 0.53056 0.87700
Cu	Cu	0.65374 0.31497 0.49967 0.89900
Cu	Cu	0.64237 0.34920 0.42433 0.89500
C 	C 	0.70485 0.33610 0.36950 0.30800
O 	O 	0.77611 0.42814 0.45376 -0.35100
C 	C 	0.68109 0.31659 0.58349 0.30700
O 	O 	0.65674 0.30278 0.44551 -0.64100
O 	O 	0.73484 0.35087 0.50617 -0.63800
O 	O 	0.78339 0.31342 0.45216 -0.36200
O 	O 	0.72407 0.24866 0.48515 -0.43100
O 	O 	0.68422 0.36237 0.38074 -0.37600
O 	O 	0.57430 0.27499 0.49026 -0.37700
C 	C 	0.54491 0.27844 0.46185 0.29200
C 	C 	0.75310 0.44964 0.46912 0.28400
O 	O 	0.70094 0.41715 0.47224 -0.38900
O 	O 	0.56870 0.31593 0.43937 -0.38900
O 	O 	0.73545 0.33039 0.39505 -0.34400
C 	C 	0.76253 0.26612 0.46388 0.29000
O 	O 	0.65094 0.32032 0.55586 -0.37400
O 	O 	0.72773 0.32510 0.57830 -0.40000
H 	H 	0.63252 0.26347 0.43216 0.16800
H 	H 	0.75815 0.38848 0.52251 0.17700
C 	C 	0.63742 0.29911 0.81998 -0.10100
C 	C 	0.68420 0.34544 0.80979 0.14400
C 	C 	0.68589 0.34991 0.77042 -0.08400
C 	C 	0.64088 0.30891 0.74108 0.02300
C 	C 	0.59254 0.26476 0.75152 0.08100
C 	C 	0.59120 0.25977 0.79084 -0.01100
H 	H 	0.72293 0.38432 0.76254 0.08200
C 	C 	0.64731 0.30866 0.69975 0.02200
H 	H 	0.55463 0.22469 0.79866 0.06000
C 	C 	0.65725 0.27269 0.68157 -0.08500
C 	C 	0.66628 0.27358 0.64312 0.14700
C 	C 	0.66729 0.31217 0.62286 -0.10100
C 	C 	0.65617 0.34740 0.64075 -0.01000
C 	C 	0.64592 0.34560 0.67899 0.08200
H 	H 	0.65768 0.24375 0.69732 0.08100
H 	H 	0.65616 0.37666 0.62515 0.06400
Br	Br	0.52822 0.21074 0.71244 -0.21900
Br	Br	0.74729 0.40162 0.84905 -0.26100
Br	Br	0.67405 0.21965 0.61811 -0.27800
Br	Br	0.62940 0.39330 0.70217 -0.21700
C 	C 	0.70081 0.32104 0.32723 -0.09700
C 	C 	0.74815 0.33803 0.31102 0.15000
C 	C 	0.74333 0.32778 0.27035 -0.08300
C 	C 	0.69261 0.30384 0.24554 0.02200
C 	C 	0.64534 0.28613 0.26170 0.08200
C 	C 	0.64949 0.29387 0.30229 -0.01500
H 	H 	0.77971 0.34116 0.25797 0.08300
C 	C 	0.69010 0.30132 0.20290 0.02100
H 	H 	0.61298 0.28047 0.31451 0.04900
C 	C 	0.66448 0.25013 0.17802 -0.08300
C 	C 	0.65286 0.24516 0.13745 0.15000
C 	C 	0.67030 0.29278 0.12130 -0.09700
C 	C 	0.69954 0.34458 0.14621 -0.01500
C 	C 	0.70862 0.34893 0.18680 0.08300
H 	H 	0.65057 0.21350 0.19036 0.08300
H 	H 	0.71342 0.38132 0.13403 0.05100
Br	Br	0.57528 0.25412 0.22884 -0.22200
Br	Br	0.82045 0.37983 0.34322 -0.22100
Br	Br	0.60848 0.17235 0.10544 -0.22100
Br	Br	0.74353 0.41980 0.21978 -0.22200
C 	C 	0.93947 0.88387 0.48492 -0.02100
C 	C 	0.88230 0.84470 0.47114 -0.01500
C 	C 	0.85539 0.78997 0.47640 -0.05600
C 	C 	0.88533 0.77354 0.49490 0.03500
C 	C 	0.94215 0.81277 0.50949 -0.05400
C 	C 	0.96911 0.86763 0.50452 -0.02000
C 	C 	0.85672 0.71526 0.49932 -0.04600
C 	C 	0.87407 0.68582 0.48572 -0.05300
C 	C 	0.84201 0.62566 0.48562 0.05100
C 	C 	0.86989 0.60269 0.49450 -0.07300
C 	C 	0.84064 0.54527 0.49039 0.02400
C 	C 	0.78320 0.51022 0.47725 -0.08700
C 	C 	0.75513 0.53325 0.46918 0.02300
C 	C 	0.78439 0.59056 0.47288 -0.07300
H 	H 	0.85881 0.85640 0.45591 0.04300
H 	H 	0.81139 0.76008 0.46546 0.04700
H 	H 	0.96539 0.80079 0.52472 0.04600
H 	H 	0.01294 0.89748 0.51603 0.04800
H 	H 	0.81888 0.69519 0.51105 0.04400
H 	H 	0.91248 0.70630 0.47467 0.04800
H 	H 	0.91433 0.62930 0.50402 0.05200
H 	H 	0.86274 0.52803 0.49694 0.03400
H 	H 	0.71089 0.50665 0.45859 0.03000
H 	H 	0.76251 0.60749 0.46463 0.05200
C 	C 	0.78684 0.23607 0.45730 -0.09300
C 	C 	0.82539 0.25203 0.43240 0.02100
C 	C 	0.85165 0.22655 0.42881 -0.07300
C 	C 	0.83910 0.18434 0.44955 0.04900
C 	C 	0.79994 0.16772 0.47392 -0.07400
C 	C 	0.77366 0.19307 0.47752 0.01700
C 	C 	0.87069 0.16122 0.44845 -0.05400
C 	C 	0.84502 0.10634 0.44419 -0.04600
C 	C 	0.87681 0.08380 0.44987 0.03400
C 	C 	0.86189 0.04494 0.47430 -0.05600
C 	C 	0.89121 0.02291 0.47972 -0.01800
C 	C 	0.93549 0.03906 0.46038 -0.02200
C 	C 	0.94992 0.07740 0.43542 -0.01500
C 	C 	0.92054 0.09945 0.43004 -0.05600
H 	H 	0.83557 0.28460 0.41621 0.05000
H 	H 	0.88208 0.23993 0.41014 0.05400
H 	H 	0.79088 0.13615 0.49086 0.05100
H 	H 	0.74410 0.18019 0.49684 0.03000
H 	H 	0.91537 0.18941 0.45173 0.04600
H 	H 	0.80025 0.07823 0.44023 0.04500
H 	H 	0.82787 0.03220 0.48941 0.04500
H 	H 	0.87978 0.99362 0.49920 0.04400
H 	H 	0.98337 0.08958 0.41981 0.04100
H 	H 	0.93141 0.12821 0.41020 0.04700
C 	C 	0.10981 0.05968 0.47108 -0.02200
C 	C 	0.13497 0.03435 0.46093 -0.01700
C 	C 	0.19200 0.06642 0.46248 -0.05500
C 	C 	0.22446 0.12435 0.47344 0.03600
C 	C 	0.19940 0.14969 0.48350 -0.05600
C 	C 	0.14239 0.11762 0.48222 -0.01300
C 	C 	0.28522 0.15846 0.47711 -0.04500
C 	C 	0.30857 0.14958 0.44950 -0.05300
C 	C 	0.36931 0.18368 0.45321 0.05000
C 	C 	0.39320 0.20315 0.42060 -0.07400
C 	C 	0.45041 0.23396 0.42340 0.02000
C 	C 	0.48437 0.24533 0.45886 -0.08600
C 	C 	0.46029 0.22505 0.49139 0.02200
C 	C 	0.40307 0.19408 0.48850 -0.07200
H 	H 	0.11044 0.98978 0.45205 0.04600
H 	H 	0.21102 0.04617 0.45574 0.04800
H 	H 	0.22416 0.19426 0.49250 0.04800
H 	H 	0.12377 0.13776 0.49055 0.04300
H 	H 	0.31101 0.19283 0.50170 0.04700
H 	H 	0.28272 0.11893 0.42296 0.04700
H 	H 	0.36745 0.19452 0.39307 0.05200
H 	H 	0.46825 0.24859 0.39791 0.03300
H 	H 	0.48585 0.23341 0.51894 0.04600
H 	H 	0.38495 0.17778 0.51355 0.05600
C 	C 	0.72601 0.49746 0.97440 -0.08400
C 	C 	0.76945 0.52195 0.95346 0.02300
C 	C 	0.79734 0.57752 0.95023 -0.07100
C 	C 	0.78266 0.60942 0.96826 0.05100
C 	C 	0.73893 0.58495 0.98891 -0.07200
C 	C 	0.71092 0.52934 0.99212 0.02100
C 	C 	0.81145 0.66768 0.96372 -0.05300
C 	C 	0.83187 0.70827 0.99493 -0.04600
C 	C 	0.86271 0.76683 0.99058 0.03600
C 	C 	0.85079 0.80072 0.00949 -0.05700
C 	C 	0.88073 0.85655 0.00643 -0.01200
C 	C 	0.92329 0.87916 0.98467 -0.02400
C 	C 	0.93559 0.84528 0.96610 -0.01300
C 	C 	0.90579 0.78956 0.96930 -0.05700
H 	H 	0.78174 0.49801 0.93978 0.04800
H 	H 	0.83063 0.59590 0.93389 0.05500
H 	H 	0.72619 0.60877 0.00201 0.05200
H 	H 	0.67699 0.51089 0.00786 0.03700
H 	H 	0.81872 0.67782 0.93490 0.04900
H 	H 	0.82433 0.69813 0.02371 0.04500
H 	H 	0.81823 0.78378 0.02648 0.04700
H 	H 	0.87127 0.88233 0.02136 0.04100
H 	H 	0.96817 0.86205 0.94912 0.04000
H 	H 	0.91649 0.76421 0.95555 0.04700
C 	C 	0.93366 0.04686 0.97956 -0.02200
C 	C 	0.95311 0.09250 0.96095 -0.01500
C 	C 	0.92672 0.11800 0.96024 -0.05700
C 	C 	0.88081 0.09844 0.97822 0.03400
C 	C 	0.86117 0.05272 0.99674 -0.05500
C 	C 	0.88778 0.02746 0.99776 -0.01800
C 	C 	0.85075 0.12307 0.97454 -0.04600
C 	C 	0.83347 0.13483 0.00529 -0.05500
C 	C 	0.80299 0.15888 0.00102 0.04900
C 	C 	0.75186 0.13352 0.01285 -0.07400
C 	C 	0.72142 0.15436 0.00699 0.02100
C 	C 	0.74219 0.20119 0.98952 -0.09300
C 	C 	0.79472 0.22809 0.97946 0.01800
C 	C 	0.82496 0.20710 0.98525 -0.07500
H 	H 	0.98804 0.10766 0.94644 0.04100
H 	H 	0.94171 0.15273 0.94541 0.04500
H 	H 	0.82474 0.03612 0.00971 0.04600
H 	H 	0.87249 0.99260 0.01248 0.04400
H 	H 	0.84465 0.13381 0.94671 0.04200
H 	H 	0.83960 0.12439 0.03322 0.04700
H 	H 	0.73508 0.09690 0.02576 0.05300
H 	H 	0.68131 0.13345 0.01534 0.04600
H 	H 	0.81198 0.26501 0.96688 0.03200
H 	H 	0.86528 0.22808 0.97722 0.05000
C 	C 	0.46996 0.20669 0.98020 -0.08700
C 	C 	0.43422 0.14897 0.96784 0.02400
C 	C 	0.37718 0.12046 0.96475 -0.07300
C 	C 	0.35531 0.14936 0.97391 0.05100
C 	C 	0.39114 0.20719 0.98626 -0.07300
C 	C 	0.44807 0.23572 0.98894 0.02400
C 	C 	0.29548 0.11821 0.97403 -0.05300
C 	C 	0.26667 0.13600 0.95998 -0.04600
C 	C 	0.20785 0.10651 0.96262 0.03600
C 	C 	0.18979 0.13572 0.97979 -0.05600
C 	C 	0.13447 0.10786 0.98339 -0.01300
C 	C 	0.09648 0.05052 0.96933 -0.02200
C 	C 	0.11433 0.02167 0.95096 -0.01600
C 	C 	0.16969 0.04955 0.94756 -0.05500
H 	H 	0.45061 0.12614 0.96086 0.03300
H 	H 	0.35001 0.07583 0.95560 0.05300
H 	H 	0.37509 0.22984 0.99481 0.05200
H 	H 	0.47527 0.28018 0.99901 0.03000
H 	H 	0.27449 0.07963 0.98499 0.04800
H 	H 	0.28728 0.17420 0.94857 0.04500
H 	H 	0.21884 0.17984 0.99101 0.04700
H 	H 	0.12138 0.13070 0.99763 0.04300
H 	H 	0.08533 0.97771 0.93920 0.04500
H 	H 	0.18291 0.02690 0.93322 0.04700
