data_crystal

_cell_length_a 18.32690
_cell_length_b 17.88315
_cell_length_c 12.69847
_cell_angle_alpha 90.00000
_cell_angle_beta  90.00000
_cell_angle_gamma 120.53003

_symmetry_space_group_name_	'P 1'
_symmetry_space_group_name_H-M	'P 1'

loop_
_symmetry_equiv_pos_as_xyz
  x,y,z

loop_
_atom_site_label
_atom_site_type_symbol
_atom_site_fract_x
_atom_site_fract_y
_atom_site_fract_z
_atom_site_charge
C 	C 	0.00976 0.44002 0.56573 -0.08200
C 	C 	0.00175 0.56949 0.59851 0.34500
F 	F 	0.03249 0.64883 0.64336 -0.41000
H 	H 	0.00210 0.46699 0.19478 0.12500
H 	H 	0.04165 0.40333 0.57404 0.12000
C 	C 	0.07775 0.54708 0.95100 -0.11100
C 	C 	0.07676 0.52177 0.05563 0.36200
C 	C 	0.04699 0.52518 0.60569 -0.10500
C 	C 	0.00384 0.53743 0.90527 -0.08200
C 	C 	0.00192 0.48538 0.11349 -0.08300
H 	H 	0.00460 0.55788 0.82497 0.12000
C 	C 	0.13475 0.56899 0.64954 0.31900
C 	C 	0.15527 0.58141 0.88903 0.33000
F 	F 	0.14862 0.53295 0.10133 -0.40700
O 	O 	0.17656 0.52731 0.64449 -0.35400
O 	O 	0.17639 0.65445 0.65804 -0.30900
C 	C 	0.43104 0.56826 0.84545 0.32000
C 	C 	0.40794 0.56210 0.61096 0.33300
C 	C 	0.41334 0.84800 0.61537 0.34200
C 	C 	0.44416 0.86011 0.85232 0.31300
Ni	Ni	0.26656 0.53979 0.75286 1.12200
Ni	Ni	0.27618 0.72965 0.75545 1.13200
Ni	Ni	0.44958 0.72355 0.72382 1.13000
O 	O 	0.34791 0.52935 0.85794 -0.31600
O 	O 	0.47674 0.65313 0.82687 -0.34700
O 	O 	0.33110 0.80330 0.62868 -0.31900
O 	O 	0.48061 0.81308 0.83781 -0.36300
O 	O 	0.32673 0.51476 0.63125 -0.34900
O 	O 	0.44342 0.64663 0.60310 -0.32700
O 	O 	0.36018 0.82326 0.85451 -0.32400
O 	O 	0.18765 0.53076 0.87610 -0.33200
O 	O 	0.20353 0.66656 0.88179 -0.34000
O 	O 	0.45696 0.80807 0.61319 -0.35300
O 	O 	0.33109 0.66249 0.75839 -0.70900
H 	H 	0.33952 0.66604 0.83553 0.15000
C 	C 	0.84866 0.43373 0.12884 0.33200
C 	C 	0.57274 0.41018 0.38775 0.35400
C 	C 	0.82268 0.42195 0.41804 0.34500
C 	C 	0.58482 0.41559 0.08882 0.33600
C 	C 	0.57751 0.17300 0.40060 0.34800
C 	C 	0.60427 0.16814 0.10377 0.33000
Ni	Ni	0.72457 0.45952 0.25559 1.12500
Ni	Ni	0.55175 0.27322 0.23768 1.13000
Ni	Ni	0.72744 0.28027 0.26613 1.13900
O 	O 	0.80435 0.47391 0.13146 -0.31600
O 	O 	0.83833 0.37494 0.20107 -0.34900
O 	O 	0.54739 0.22449 0.38156 -0.36100
O 	O 	0.65503 0.44366 0.39105 -0.36400
O 	O 	0.52904 0.36177 0.30744 -0.34000
O 	O 	0.68602 0.21307 0.13030 -0.32900
O 	O 	0.82594 0.47879 0.34972 -0.35400
O 	O 	0.76518 0.33912 0.40889 -0.32300
O 	O 	0.54450 0.16857 0.16343 -0.36400
O 	O 	0.63555 0.47096 0.16252 -0.32000
O 	O 	0.54900 0.32993 0.10055 -0.36300
O 	O 	0.63597 0.17398 0.33963 -0.33700
O 	O 	0.67126 0.34043 0.22832 -0.72700
H 	H 	0.67770 0.34125 0.15124 0.17100
C 	C 	0.92712 0.47332 0.06714 -0.10100
C 	C 	0.92844 0.50015 0.96289 0.35000
F 	F 	0.85655 0.48865 0.91694 -0.40800
C 	C 	0.92462 0.53212 0.54424 -0.07200
C 	C 	0.89148 0.45041 0.49639 -0.11000
C 	C 	0.93292 0.40315 0.51066 0.35400
H 	H 	0.89196 0.56811 0.53625 0.11900
F 	F 	0.90135 0.32351 0.46633 -0.41600
C 	C 	0.53667 0.99757 0.59421 -0.02900
C 	C 	0.45203 0.93620 0.57081 -0.12000
C 	C 	0.40557 0.95921 0.50332 0.40200
C 	C 	0.44510 0.04090 0.45556 -0.11800
C 	C 	0.53144 0.09953 0.47267 -0.08700
C 	C 	0.57638 0.07875 0.54503 0.31500
F 	F 	0.65938 0.13611 0.56475 -0.40500
H 	H 	0.57217 0.98169 0.64893 0.10400
H 	H 	0.40992 0.05650 0.39997 0.12100
F 	F 	0.32360 0.90100 0.47950 -0.39900
C 	C 	0.56252 0.96200 0.97046 -0.06300
C 	C 	0.49509 0.94603 0.90326 -0.07400
C 	C 	0.47327 0.01036 0.89045 0.29100
C 	C 	0.51365 0.08640 0.95087 -0.06900
C 	C 	0.57689 0.09943 0.02348 -0.10600
C 	C 	0.60320 0.03820 0.03023 0.33100
F 	F 	0.66437 0.04975 0.09974 -0.41400
H 	H 	0.58101 0.91369 0.98000 0.12400
H 	H 	0.49386 0.13390 0.94379 0.10400
F 	F 	0.41209 0.99865 0.82087 -0.39700
C 	C 	0.56183 0.57360 0.91504 -0.08000
C 	C 	0.47536 0.52460 0.88861 -0.10000
C 	C 	0.43041 0.43482 0.91007 0.34600
C 	C 	0.46814 0.39764 0.96971 -0.08200
C 	C 	0.55179 0.44903 0.00603 -0.10100
C 	C 	0.59995 0.53595 0.97283 0.35000
F 	F 	0.68323 0.58451 0.99849 -0.40700
H 	H 	0.59904 0.64150 0.89355 0.13000
H 	H 	0.43120 0.32962 0.99082 0.11700
F 	F 	0.35007 0.38375 0.87423 -0.42000
C 	C 	0.58054 0.52602 0.50505 -0.07600
C 	C 	0.53249 0.44303 0.46015 -0.11700
C 	C 	0.44441 0.39549 0.47603 0.35600
C 	C 	0.40409 0.43383 0.52684 -0.08000
C 	C 	0.45144 0.51947 0.56446 -0.10900
C 	C 	0.54038 0.56375 0.55791 0.34600
F 	F 	0.58787 0.64321 0.60269 -0.42600
H 	H 	0.64880 0.56238 0.49641 0.11500
H 	H 	0.33582 0.39736 0.53525 0.12500
F 	F 	0.39772 0.31245 0.44107 -0.41800
