data_crystal

_cell_length_a 23.95808
_cell_length_b 21.58888
_cell_length_c 53.34786
_cell_angle_alpha 90.51546
_cell_angle_beta  91.13877
_cell_angle_gamma 110.62242

_symmetry_space_group_name_	'P 1'
_symmetry_space_group_name_H-M	'P 1'

loop_
_symmetry_equiv_pos_as_xyz
  x,y,z

loop_
_atom_site_label
_atom_site_type_symbol
_atom_site_fract_x
_atom_site_fract_y
_atom_site_fract_z
_atom_site_charge
Ni	Ni	0.61307 0.23596 0.87455 1.09700
O 	O 	0.64578 0.29873 0.84506 -0.69700
O 	O 	0.53898 0.26006 0.88062 -0.37000
O 	O 	0.56287 0.36209 0.86389 -0.40700
O 	O 	0.56049 0.16116 0.85076 -0.36100
O 	O 	0.61087 0.09212 0.88217 -0.41400
O 	O 	0.69459 0.23108 0.87206 -0.70600
O 	O 	0.58737 0.17204 0.90341 -0.38100
Ni	Ni	0.68496 0.14061 0.86188 1.06400
H 	H 	0.62462 0.28222 0.82886 0.15600
O 	O 	0.63638 0.14319 0.83046 -0.41400
C 	C 	0.54174 0.32166 0.88246 0.29100
C 	C 	0.57994 0.13616 0.83167 0.26300
C 	C 	0.59707 0.11569 0.90322 0.29500
Ni	Ni	0.63261 0.37238 0.61082 1.10000
O 	O 	0.58352 0.39530 0.58280 -0.36900
O 	O 	0.64037 0.50525 0.58592 -0.41500
O 	O 	0.63181 0.29181 0.59013 -0.39600
O 	O 	0.59884 0.29896 0.66546 -0.41000
O 	O 	0.69395 0.37101 0.63658 -0.70300
O 	O 	0.55534 0.31713 0.62828 -0.37000
Ni	Ni	0.66904 0.28200 0.65010 1.06900
H 	H 	0.69474 0.40247 0.65029 0.15700
O 	O 	0.61217 0.22251 0.62338 -0.40100
C 	C 	0.60143 0.45517 0.57347 0.29600
C 	C 	0.61801 0.23215 0.59917 0.30500
C 	C 	0.55168 0.29982 0.65222 0.26500
Ni	Ni	0.12662 0.04148 0.76443 1.09500
O 	O 	0.05118 0.04784 0.74869 -0.70700
O 	O 	0.17651 0.12869 0.74839 -0.37100
O 	O 	0.14344 0.08845 0.70874 -0.40300
O 	O 	0.10937 0.09288 0.79387 -0.37600
Ni	Ni	0.05071 0.04746 0.71233 1.06700
O 	O 	0.16683 0.93223 0.79962 -0.40100
O 	O 	0.06167 0.95809 0.70925 -0.40500
O 	O 	0.06794 0.95032 0.77089 -0.69600
O 	O 	0.20030 0.03728 0.78326 -0.37900
Ni	Ni	0.08118 0.92724 0.80540 1.07200
H 	H 	0.04246 0.08652 0.75515 0.15800
H 	H 	0.07641 0.91871 0.75939 0.15100
O 	O 	0.10792 0.01726 0.82343 -0.38400
C 	C 	0.18187 0.13298 0.72385 0.24800
C 	C 	0.09229 0.06656 0.81575 0.25600
C 	C 	0.20804 0.98101 0.78810 0.26100
Ni	Ni	0.34069 0.75349 0.38106 1.09900
O 	O 	0.29003 0.68475 0.35553 -0.70600
Ni	Ni	0.22642 0.72178 0.34745 1.10100
O 	O 	0.39768 0.70218 0.38542 -0.37400
O 	O 	0.32084 0.60761 0.39558 -0.40800
O 	O 	0.38643 0.79909 0.35041 -0.38900
Ni	Ni	0.25274 0.59714 0.36894 1.06500
O 	O 	0.33061 0.88907 0.40893 -0.41400
O 	O 	0.21218 0.62929 0.39685 -0.41700
O 	O 	0.18498 0.65537 0.31982 -0.37000
O 	O 	0.27035 0.78170 0.37674 -0.70600
O 	O 	0.39318 0.82854 0.40450 -0.37900
O 	O 	0.18011 0.78148 0.33687 -0.36800
O 	O 	0.26624 0.87185 0.33622 -0.40800
Ni	Ni	0.30018 0.87748 0.37273 1.07000
H 	H 	0.31225 0.68262 0.34029 0.15500
H 	H 	0.24686 0.77128 0.39217 0.15700
C 	C 	0.16633 0.64760 0.39265 0.30700
O 	O 	0.38612 0.90156 0.36107 -0.39100
C 	C 	0.37837 0.63966 0.39225 0.27300
C 	C 	0.17469 0.59185 0.32325 0.24600
C 	C 	0.40508 0.86316 0.34701 0.27800
C 	C 	0.20863 0.84374 0.33120 0.24600
C 	C 	0.37261 0.86768 0.41785 0.30400
O 	O 	0.15799 0.67139 0.37083 -0.37000
O 	O 	0.17746 0.56925 0.34616 -0.39800
Ni	Ni	0.32266 0.60922 0.10303 1.09900
O 	O 	0.24316 0.58100 0.08309 -0.69900
Ni	Ni	0.19822 0.62637 0.10283 1.10100
O 	O 	0.35613 0.55730 0.07890 -0.37000
O 	O 	0.27475 0.46257 0.08243 -0.41300
O 	O 	0.34735 0.68644 0.07878 -0.39800
Ni	Ni	0.19781 0.48664 0.08217 1.06600
O 	O 	0.37330 0.69426 0.15467 -0.41600
O 	O 	0.19588 0.48208 0.12030 -0.41200
O 	O 	0.12573 0.60318 0.07930 -0.37900
O 	O 	0.27223 0.64204 0.12523 -0.70200
O 	O 	0.40461 0.64531 0.12170 -0.36700
O 	O 	0.17104 0.69386 0.12165 -0.36500
O 	O 	0.26293 0.77249 0.11755 -0.41300
Ni	Ni	0.31959 0.73261 0.13566 1.07000
H 	H 	0.24834 0.59805 0.06580 0.15400
H 	H 	0.26216 0.61394 0.14022 0.15900
C 	C 	0.15718 0.50009 0.13259 0.26600
O 	O 	0.38351 0.76707 0.10906 -0.40200
C 	C 	0.32274 0.49812 0.07045 0.29600
C 	C 	0.10225 0.54271 0.06967 0.30000
C 	C 	0.37665 0.74826 0.08536 0.30400
C 	C 	0.20728 0.75554 0.12445 0.24900
C 	C 	0.41505 0.67795 0.14354 0.26600
O 	O 	0.14732 0.55453 0.12665 -0.35900
O 	O 	0.11439 0.49299 0.07990 -0.41300
O 	O 	0.05259 0.03929 0.23671 -0.36100
O 	O 	0.05403 0.14092 0.27170 -0.35500
O 	O 	0.00220 0.13314 0.30720 -0.39900
C 	C 	0.04508 0.01637 0.21338 0.24100
C 	C 	0.04125 0.16922 0.29148 0.26200
C 	C 	0.06100 0.41286 0.18028 0.08300
C 	C 	0.05221 0.37674 0.20251 -0.10200
C 	C 	0.02328 0.38861 0.15945 0.02500
N 	N 	0.11534 0.45218 0.17292 -0.15300
C 	C 	0.11327 0.45102 0.14764 0.00100
C 	C 	0.05661 0.41376 0.13862 -0.04200
H 	H 	0.04598 0.39393 0.11968 0.04800
H 	H 	0.15453 0.46538 0.18391 0.08000
C 	C 	0.55819 0.78823 0.15708 0.07600
C 	C 	0.61839 0.82468 0.15271 -0.08300
C 	C 	0.65461 0.85429 0.17368 0.01200
C 	C 	0.63464 0.83868 0.19784 0.07700
C 	C 	0.57681 0.79448 0.20209 -0.08300
C 	C 	0.53785 0.77451 0.18123 0.00900
N 	N 	0.52164 0.74409 0.14069 -0.15200
C 	C 	0.47608 0.70357 0.15414 0.00200
C 	C 	0.48690 0.71905 0.17967 -0.04700
H 	H 	0.63661 0.82731 0.13417 0.05300
H 	H 	0.56374 0.77438 0.22048 0.05300
H 	H 	0.45372 0.70403 0.19406 0.04500
H 	H 	0.51934 0.75213 0.12147 0.09300
C 	C 	0.16568 0.84453 0.17271 0.07300
C 	C 	0.12461 0.84507 0.19102 -0.08200
C 	C 	0.10022 0.89511 0.19003 0.01100
C 	C 	0.11700 0.94377 0.17208 0.07300
C 	C 	0.15906 0.94446 0.15410 -0.08000
C 	C 	0.18383 0.89447 0.15497 0.01000
N 	N 	0.17013 0.78834 0.16345 -0.15700
C 	C 	0.18954 0.80154 0.13986 -0.00800
C 	C 	0.20014 0.86710 0.13406 -0.04600
N 	N 	0.10865 0.99864 0.18046 -0.14900
C 	C 	0.08556 0.98518 0.20358 0.01100
C 	C 	0.08175 0.92182 0.21047 -0.05500
H 	H 	0.11106 0.80699 0.20504 0.05200
H 	H 	0.17224 0.98255 0.14008 0.05400
H 	H 	0.20210 0.88586 0.11520 0.04600
H 	H 	0.05478 0.89346 0.22536 0.03900
H 	H 	0.14776 0.74094 0.17022 0.08500
H 	H 	0.10702 0.03734 0.16918 0.08600
C 	C 	0.54121 0.90454 0.31511 0.07500
C 	C 	0.59494 0.89236 0.31656 -0.08200
C 	C 	0.64747 0.94545 0.32260 0.01800
C 	C 	0.64711 0.00928 0.32581 0.07000
C 	C 	0.59334 0.02155 0.32455 -0.09000
C 	C 	0.54054 0.96809 0.31900 0.02000
N 	N 	0.48879 0.85923 0.32150 -0.15100
C 	C 	0.45487 0.89309 0.33002 -0.00000
C 	C 	0.48554 0.96102 0.32872 -0.04600
H 	H 	0.59560 0.84292 0.31359 0.05300
H 	H 	0.59274 0.07102 0.32748 0.05100
H 	H 	0.47728 0.99770 0.34060 0.05300
H 	H 	0.48339 0.81081 0.32658 0.09100
C 	C 	0.09237 0.33829 0.27551 0.07800
C 	C 	0.13820 0.39960 0.27275 -0.09200
C 	C 	0.12640 0.45691 0.27909 0.01700
C 	C 	0.07423 0.45277 0.29120 0.06700
C 	C 	0.03134 0.39090 0.29652 -0.05600
C 	C 	0.03941 0.33425 0.28679 -0.00600
N 	N 	0.10255 0.28133 0.27841 -0.14800
C 	C 	0.05753 0.24136 0.29204 -0.02500
C 	C 	0.01694 0.27220 0.29722 -0.03700
N 	N 	0.08394 0.50655 0.30598 -0.14900
C 	C 	0.14181 0.54491 0.30356 0.00800
C 	C 	0.16968 0.51565 0.28710 -0.05700
H 	H 	0.18254 0.40234 0.26763 0.05000
H 	H 	0.99562 0.38691 0.30926 0.03000
H 	H 	0.21706 0.52415 0.28776 0.03000
H 	H 	0.14348 0.27519 0.27594 0.08800
H 	H 	0.05886 0.50758 0.32170 0.09500
C 	C 	0.03419 0.86370 0.29460 -0.05000
C 	C 	0.09452 0.89088 0.30205 -0.00300
C 	C 	0.11282 0.93344 0.32275 0.09100
C 	C 	0.07113 0.95040 0.33669 -0.10300
N 	N 	0.16273 0.92885 0.33323 -0.15400
C 	C 	0.17581 0.88257 0.31981 -0.00200
C 	C 	0.13439 0.85790 0.30023 -0.03600
H 	H 	0.02018 0.83099 0.27834 0.04600
H 	H 	0.08518 0.98341 0.35286 0.06000
H 	H 	0.12347 0.80903 0.29183 0.05000
H 	H 	0.17572 0.94069 0.35202 0.06500
C 	C 	0.59781 0.17483 0.58166 -0.09100
C 	C 	0.61996 0.18095 0.55728 0.01900
C 	C 	0.59449 0.13069 0.53940 -0.06900
C 	C 	0.54692 0.07353 0.54576 0.03100
C 	C 	0.52734 0.06544 0.57055 -0.06900
C 	C 	0.55259 0.11589 0.58843 0.01900
C 	C 	0.51362 0.02595 0.52594 -0.00900
C 	C 	0.54338 0.99546 0.51041 -0.02200
C 	C 	0.51380 0.95796 0.48944 -0.03800
C 	C 	0.45427 0.95041 0.48398 -0.00500
C 	C 	0.42372 0.97821 0.50011 -0.02700
C 	C 	0.45325 0.01591 0.52100 -0.04400
C 	C 	0.42613 0.91932 0.46077 0.04500
C 	C 	0.40201 0.89493 0.44121 -0.10500
H 	H 	0.65574 0.22550 0.55197 0.02600
H 	H 	0.61021 0.13725 0.52036 0.04500
H 	H 	0.49120 0.02108 0.57574 0.04700
H 	H 	0.53538 0.11017 0.60722 0.03600
H 	H 	0.58981 0.00237 0.51419 0.02900
H 	H 	0.53761 0.93630 0.47711 0.04300
H 	H 	0.37761 0.97234 0.49605 0.03900
H 	H 	0.42986 0.03925 0.53284 0.04100
C 	C 	0.05067 0.63043 0.49692 -0.01000
C 	C 	0.08258 0.64912 0.47491 -0.04900
C 	C 	0.05608 0.62257 0.45170 0.02100
C 	C 	0.99679 0.57885 0.45051 -0.06400
C 	C 	0.09214 0.63327 0.42979 0.03900
C 	C 	0.12463 0.64080 0.41224 -0.10600
H 	H 	0.07200 0.65008 0.51482 0.03700
H 	H 	0.12851 0.68271 0.47599 0.04300
C 	C 	0.42102 0.61308 0.40414 -0.08400
C 	C 	0.46868 0.65470 0.41908 0.01400
C 	C 	0.49787 0.62751 0.43632 -0.06400
C 	C 	0.47996 0.55859 0.43861 0.02500
C 	C 	0.43694 0.51717 0.42178 -0.06600
C 	C 	0.40770 0.54433 0.40455 0.01200
C 	C 	0.49967 0.53039 0.46067 0.00300
C 	C 	0.56049 0.54189 0.46497 -0.04300
C 	C 	0.57982 0.52247 0.48747 -0.03300
C 	C 	0.53849 0.49143 0.50577 -0.01100
C 	C 	0.47756 0.47782 0.50115 -0.03100
C 	C 	0.45816 0.49720 0.47867 -0.04100
C 	C 	0.55898 0.47717 0.52980 0.04400
C 	C 	0.57736 0.46646 0.54987 -0.12000
H 	H 	0.48032 0.70792 0.41862 0.04100
H 	H 	0.53185 0.65995 0.44893 0.04700
H 	H 	0.42395 0.46389 0.42296 0.04400
H 	H 	0.37223 0.51176 0.39258 0.01600
H 	H 	0.59283 0.56720 0.45116 0.03800
H 	H 	0.62701 0.53283 0.49089 0.03000
H 	H 	0.44536 0.45362 0.51518 0.04000
H 	H 	0.41112 0.48830 0.47557 0.04100
C 	C 	0.30438 0.17363 0.68545 0.07800
C 	C 	0.33683 0.19428 0.66361 -0.08400
C 	C 	0.39840 0.20702 0.66527 0.01200
C 	C 	0.42740 0.21050 0.68841 0.07300
C 	C 	0.39521 0.19947 0.71071 -0.08300
C 	C 	0.33283 0.17523 0.70833 0.00900
N 	N 	0.24909 0.17397 0.68867 -0.15300
C 	C 	0.24035 0.17203 0.71375 0.00300
C 	C 	0.29342 0.17728 0.72654 -0.04700
N 	N 	0.48484 0.25032 0.68710 -0.15100
C 	C 	0.49261 0.27350 0.66346 -0.00000
C 	C 	0.43998 0.24702 0.64931 -0.04200
H 	H 	0.31569 0.20268 0.64649 0.05400
H 	H 	0.41765 0.21150 0.72889 0.04900
H 	H 	0.29715 0.16557 0.74605 0.05200
H 	H 	0.43004 0.26677 0.63187 0.05400
H 	H 	0.21526 0.16021 0.67483 0.08300
H 	H 	0.51297 0.27181 0.70247 0.08100
C 	C 	0.00838 0.51374 0.03913 0.06900
C 	C 	0.05122 0.52760 0.05313 -0.11800
C 	C 	0.41028 0.79441 0.06620 -0.09000
C 	C 	0.43605 0.77121 0.04647 0.01700
C 	C 	0.46337 0.81324 0.02704 -0.06700
C 	C 	0.46531 0.87891 0.02713 0.02700
C 	C 	0.44125 0.90283 0.04723 -0.06700
C 	C 	0.41396 0.86076 0.06673 0.01500
C 	C 	0.48966 0.92145 0.00554 0.00000
C 	C 	0.45204 0.94324 0.99032 -0.03800
C 	C 	0.47428 0.98052 0.96907 -0.03500
C 	C 	0.53422 0.99625 0.96288 0.00200
C 	C 	0.57197 0.97480 0.97810 -0.03700
C 	C 	0.54978 0.93746 0.99937 -0.03800
C 	C 	0.55744 0.03676 0.94150 0.03200
C 	C 	0.57604 0.07188 0.92381 -0.10700
H 	H 	0.43434 0.72038 0.04605 0.03800
H 	H 	0.48196 0.79439 0.01166 0.04700
H 	H 	0.44290 0.95363 0.04755 0.04700
H 	H 	0.39433 0.87926 0.08186 0.02900
H 	H 	0.40548 0.93070 0.99481 0.04000
H 	H 	0.44492 0.99724 0.95746 0.04400
H 	H 	0.61846 0.98714 0.97352 0.03600
H 	H 	0.57916 0.92082 0.01099 0.03800
C 	C 	0.50656 0.33982 0.90168 -0.08800
C 	C 	0.45911 0.29066 0.91309 0.01700
C 	C 	0.43058 0.30696 0.93336 -0.06500
C 	C 	0.44904 0.37245 0.94239 0.02700
C 	C 	0.49495 0.42197 0.93049 -0.06700
C 	C 	0.52359 0.40576 0.91023 0.01400
C 	C 	0.42206 0.38874 0.96492 0.00200
C 	C 	0.38936 0.43123 0.96326 -0.04100
C 	C 	0.36671 0.44970 0.98488 -0.03200
C 	C 	0.37662 0.42584 0.00827 -0.01000
C 	C 	0.40823 0.38235 0.00991 -0.03100
C 	C 	0.43086 0.36378 0.98829 -0.04100
C 	C 	0.35726 0.44905 0.03068 0.04400
C 	C 	0.34138 0.47031 0.04910 -0.11900
H 	H 	0.44483 0.23974 0.90648 0.04400
H 	H 	0.39469 0.26855 0.94227 0.04800
H 	H 	0.50938 0.47273 0.93732 0.04500
H 	H 	0.56026 0.44408 0.90170 0.02100
H 	H 	0.38209 0.45046 0.94529 0.04000
H 	H 	0.34225 0.48331 0.98350 0.03500
H 	H 	0.41607 0.36376 0.02794 0.03900
H 	H 	0.45610 0.33097 0.98974 0.04000
H 	H 	0.09750 0.20041 0.81589 0.05100
C 	C 	0.46546 0.05157 0.78728 0.07600
C 	C 	0.41888 0.05823 0.77243 -0.08300
C 	C 	0.36213 0.00908 0.77414 0.00900
C 	C 	0.34989 0.96248 0.79305 0.08000
C 	C 	0.39493 0.96198 0.81023 -0.07500
C 	C 	0.45371 0.00317 0.80550 0.00600
N 	N 	0.51583 0.10263 0.79335 -0.15200
C 	C 	0.53657 0.08684 0.81522 0.00100
C 	C 	0.49880 0.02597 0.82355 -0.04400
N 	N 	0.29170 0.94239 0.79878 -0.15200
C 	C 	0.26674 0.97580 0.78361 0.00700
C 	C 	0.30911 0.01803 0.76817 -0.05500
H 	H 	0.42584 0.10151 0.76105 0.05100
H 	H 	0.38427 0.93333 0.82718 0.05400
H 	H 	0.49440 0.01160 0.84303 0.05200
H 	H 	0.30586 0.06227 0.75991 0.04900
H 	H 	0.52546 0.15104 0.78718 0.07500
H 	H 	0.27472 0.92287 0.81606 0.08900
C 	C 	0.01815 0.90251 0.71339 0.27500
O 	O 	0.00829 0.03120 0.19763 -0.38900
N 	N 	0.69972 0.05401 0.31909 -0.14900
C 	C 	0.07950 0.17086 0.83213 -0.03800
H 	H 	0.70515 0.10162 0.31296 0.08400
Ni	Ni	0.65098 0.39015 0.85304 1.06500
Ni	Ni	0.73059 0.29960 0.84513 1.09400
O 	O 	0.68112 0.38275 0.88860 -0.42300
O 	O 	0.76153 0.16969 0.84064 -0.40500
H 	H 	0.71654 0.24247 0.88836 0.15100
O 	O 	0.71038 0.42027 0.59274 -0.70000
Ni	Ni	0.72973 0.51500 0.58955 1.06500
O 	O 	0.72573 0.52768 0.62726 -0.41200
O 	O 	0.74111 0.26246 0.63555 -0.41300
H 	H 	0.71149 0.39986 0.57614 0.15400
N 	N 	0.68095 0.84856 0.21389 -0.15200
C 	C 	0.71605 0.87439 0.17499 -0.04900
H 	H 	0.67883 0.85239 0.23337 0.09500
C 	C 	0.73364 0.01906 0.31158 -0.01000
C 	C 	0.70268 0.95154 0.31358 -0.03500
H 	H 	0.80603 0.17849 0.62666 0.04600
H 	H 	0.72044 0.46077 0.92835 0.03100
Ni	Ni	0.76994 0.40490 0.61633 1.10000
C 	C 	0.73107 0.87314 0.20036 0.00200
H 	H 	0.74570 0.90186 0.16067 0.04400
H 	H 	0.71130 0.91389 0.30237 0.05400
H 	H 	0.83040 0.10558 0.86638 0.03000
C 	C 	0.73331 0.37639 0.89262 0.27200
O 	O 	0.76458 0.37168 0.81913 -0.38200
C 	C 	0.80946 0.22024 0.84733 0.24700
C 	C 	0.79622 0.29840 0.64243 0.24200
C 	C 	0.83593 0.20559 0.64173 -0.04900
H 	H 	0.82996 0.07425 0.64753 0.04800
H 	H 	0.72891 0.51901 0.79465 0.06600
O 	O 	0.73537 0.44332 0.84237 -0.40200
C 	C 	0.75179 0.43709 0.93377 0.01500
O 	O 	0.80932 0.28112 0.84610 -0.36000
C 	C 	0.75988 0.43021 0.82212 0.25800
O 	O 	0.76499 0.36870 0.87361 -0.36900
C 	C 	0.77051 0.53002 0.64218 0.26300
O 	O 	0.80041 0.49000 0.63839 -0.36400
O 	O 	0.77782 0.01791 0.27173 -0.38100
C 	C 	0.78736 0.91861 0.21170 0.24900
C 	C 	0.78256 0.04568 0.29411 0.27600
H 	H 	0.77852 0.49417 0.96805 0.04500
N 	N 	0.77458 0.52702 0.79572 -0.15400
H 	H 	0.76447 0.64802 0.78659 0.05100
C 	C 	0.07160 0.10408 0.83430 0.00300
C 	C 	0.76138 0.38982 0.91783 -0.08900
C 	C 	0.01069 0.92230 0.32954 0.06000
H 	H 	0.00918 0.77505 0.72084 0.08200
O 	O 	0.81657 0.36279 0.63906 -0.36900
O 	O 	0.82050 0.53981 0.59084 -0.41000
O 	O 	0.79222 0.92397 0.23632 -0.36600
C 	C 	0.84012 0.10757 0.66365 -0.08800
C 	C 	0.85739 0.17613 0.66063 0.00700
C 	C 	0.83670 0.26570 0.65165 0.00000
H 	H 	0.86350 0.00086 0.67972 0.08400
N 	N 	0.80009 0.64827 0.65309 -0.15000
C 	C 	0.79462 0.58621 0.65980 -0.00100
H 	H 	0.78813 0.66037 0.63533 0.07700
C 	C 	0.78482 0.45619 0.95624 -0.06600
C 	C 	0.81741 0.58751 0.79583 0.07500
C 	C 	0.80441 0.64614 0.79591 -0.08500
C 	C 	0.79787 0.48614 0.80757 -0.00100
H 	H 	0.83184 0.78147 0.78759 0.05600
O 	O 	0.82486 0.10309 0.29917 -0.41500
H 	H 	0.08620 0.38963 0.21730 0.06100
H 	H 	0.03237 0.26518 0.23172 0.07900
O 	O 	0.82451 0.96400 0.19755 -0.40600
C 	C 	0.86477 0.20897 0.85435 -0.00200
C 	C 	0.86710 0.15250 0.86590 -0.06400
O 	O 	0.84224 0.44481 0.59450 -0.37700
C 	C 	0.84794 0.50015 0.58262 0.27500
C 	C 	0.86989 0.21904 0.68124 0.07000
N 	N 	0.85768 0.27369 0.67563 -0.15300
C 	C 	0.83466 0.58793 0.67929 -0.04600
C 	C 	0.84317 0.70123 0.80930 0.01100
C 	C 	0.85414 0.76636 0.80296 -0.04400
C 	C 	0.00099 0.31963 0.20395 0.06800
O 	O 	0.00183 0.13506 0.22340 -0.34700
C 	C 	0.80195 0.35940 0.92522 0.01000
C 	C 	0.85686 0.52095 0.81499 -0.04000
Ni	Ni	0.84913 0.00735 0.25415 1.09200
H 	H 	0.88416 0.42361 0.55078 0.02700
C 	C 	0.83867 0.08338 0.68805 0.07100
N 	N 	0.85329 0.03014 0.69333 -0.15200
H 	H 	0.84727 0.30348 0.68897 0.07400
C 	C 	0.84385 0.68981 0.66772 0.07900
H 	H 	0.85212 0.54885 0.68301 0.05100
C 	C 	0.82729 0.42785 0.96300 0.02400
H 	H 	0.80920 0.32228 0.91324 0.02100
C 	C 	0.86914 0.58559 0.80752 0.00700
H 	H 	0.87913 0.50735 0.83076 0.05100
C 	C 	0.03898 0.18192 0.84805 -0.00500
O 	O 	0.85907 0.94822 0.28252 -0.36800
C 	C 	0.89116 0.52248 0.56234 -0.09300
C 	C 	0.90280 0.47590 0.54674 0.01100
C 	C 	0.88069 0.75221 0.65966 -0.08600
C 	C 	0.86550 0.65428 0.68447 0.01100
H 	H 	0.86412 0.77972 0.64640 0.05200
C 	C 	0.83469 0.37829 0.94769 -0.06600
H 	H 	0.90998 0.55079 0.96918 0.04000
N 	N 	0.91977 0.25001 0.84832 -0.14700
H 	H 	0.92065 0.05785 0.87122 0.05300
H 	H 	0.92835 0.28551 0.83432 0.08600
C 	C 	0.89462 0.69933 0.82113 0.07000
C 	C 	0.90855 0.64131 0.82052 -0.08300
C 	C 	0.91211 0.80164 0.81154 -0.00600
O 	O 	0.91816 0.98378 0.74707 -0.36100
O 	O 	0.89307 0.02152 0.31495 -0.39800
C 	C 	0.86734 0.19485 0.70569 -0.09100
C 	C 	0.85107 0.12625 0.70871 0.01000
C 	C 	0.87598 0.03882 0.71707 0.00100
C 	C 	0.86763 0.45386 0.98484 0.00500
C 	C 	0.91025 0.51810 0.98444 -0.04600
C 	C 	0.92689 0.16004 0.86706 0.02600
C 	C 	0.89622 0.97164 0.30164 0.24700
H 	H 	0.91192 0.12857 0.25484 0.14400
H 	H 	0.93058 0.87649 0.27906 0.06800
H 	H 	0.83538 0.36254 0.00530 0.03800
O 	O 	0.93458 0.88334 0.77906 -0.36400
C 	C 	0.92165 0.01175 0.72491 0.23900
C 	C 	0.94914 0.86557 0.80107 0.24700
O 	O 	0.91938 0.99201 0.23805 -0.70700
Ni	Ni	0.91760 0.99844 0.20155 1.06200
O 	O 	0.91476 0.09227 0.20085 -0.40300
O 	O 	0.91684 0.09186 0.26447 -0.69900
Ni	Ni	0.91235 0.11309 0.30033 1.06500
H 	H 	0.92302 0.94950 0.24302 0.15100
C 	C 	0.93653 0.49650 0.52526 -0.07200
C 	C 	0.91580 0.59013 0.55677 0.01100
H 	H 	0.94461 0.46009 0.51318 0.04400
H 	H 	0.90811 0.62677 0.56886 0.03000
H 	H 	0.91896 0.52621 0.47145 0.03100
C 	C 	0.87464 0.09777 0.72730 -0.05400
C 	C 	0.92424 0.67999 0.69402 -0.07700
C 	C 	0.86837 0.41203 0.00473 -0.04700
H 	H 	0.86725 0.35597 0.95282 0.04300
C 	C 	0.95788 0.22010 0.85589 0.04800
C 	C 	0.94890 0.10776 0.86673 -0.11400
N 	N 	0.93642 0.76053 0.82258 -0.15200
H 	H 	0.94853 0.63956 0.82984 0.04700
C 	C 	0.93952 0.77801 0.66914 0.02100
H 	H 	0.95111 0.88262 0.66948 0.04900
H 	H 	0.03222 0.27150 0.83225 0.04900
H 	H 	0.92338 0.19624 0.16881 0.08300
N 	N 	0.93858 0.22807 0.18436 -0.15100
N 	N 	0.94307 0.88679 0.29796 -0.14700
C 	C 	0.92946 0.93167 0.31208 0.00100
H 	H 	0.87743 0.22822 0.72179 0.04900
C 	C 	0.95518 0.53899 0.00303 -0.02500
C 	C 	0.96907 0.84449 0.67424 -0.06300
C 	C 	0.95862 0.21076 0.20607 0.01400
C 	C 	0.91332 0.43299 0.02331 -0.02500
O 	O 	0.95964 0.00552 0.70813 -0.40700
C 	C 	0.95812 0.14342 0.21040 0.23300
C 	C 	0.95883 0.56380 0.51916 0.03200
C 	C 	0.94916 0.61059 0.53524 -0.07300
C 	C 	0.96026 0.74367 0.68678 0.06300
H 	H 	0.94074 0.65242 0.70728 0.04900
H 	H 	0.98912 0.58784 0.00211 0.03100
H 	H 	0.98230 0.77001 0.82403 0.05400
N 	N 	0.02769 0.07429 0.85041 -0.15800
C 	C 	0.96466 0.56038 0.47250 -0.02400
O 	O 	0.99291 0.90709 0.81474 -0.41500
O 	O 	0.97776 0.90001 0.73001 -0.37300
H 	H 	0.91474 0.39959 0.03815 0.03100
H 	H 	0.90507 0.12584 0.74205 0.03200
C 	C 	0.96447 0.29430 0.18286 0.04700
H 	H 	0.95507 0.30256 0.14266 0.04900
H 	H 	0.97606 0.55794 0.43264 0.04200
C 	C 	0.95765 0.49588 0.02214 -0.03300
Ni	Ni	0.99011 0.96377 0.76026 1.09500
C 	C 	0.97035 0.95434 0.33198 -0.06900
C 	C 	0.00756 0.12147 0.85880 0.10100
H 	H 	0.00255 0.02366 0.84998 0.08800
C 	C 	0.00557 0.84802 0.69518 0.01600
H 	H 	0.96665 0.66271 0.53082 0.04300
N 	N 	0.00047 0.78647 0.70250 -0.14500
H 	H 	0.98083 0.00221 0.34118 0.04500
C 	C 	0.99263 0.88120 0.30844 0.02500
C 	C 	0.99184 0.58524 0.49585 -0.02700
C 	C 	0.97710 0.32683 0.15987 -0.09300
H 	H 	0.98369 0.25752 0.31159 -0.01000
Ni	Ni	0.98826 0.06824 0.25183 1.08600
C 	C 	0.99744 0.26624 0.21874 -0.11200
C 	C 	0.01260 0.22999 0.84445 -0.05600
