data_crystal

_cell_length_a 30.81527
_cell_length_b 30.93896
_cell_length_c 33.30816
_cell_angle_alpha 95.53312
_cell_angle_beta  95.53105
_cell_angle_gamma 125.53542

_symmetry_space_group_name_	'P 1'
_symmetry_space_group_name_H-M	'P 1'

loop_
_symmetry_equiv_pos_as_xyz
  x,y,z

loop_
_atom_site_label
_atom_site_type_symbol
_atom_site_fract_x
_atom_site_fract_y
_atom_site_fract_z
_atom_site_charge
N 	N 	0.02584 0.05728 0.99267 -0.13600
C 	C 	0.04810 0.03050 0.98763 0.13100
N 	N 	0.01712 0.97614 0.98500 -0.13400
C 	C 	0.02926 0.00451 0.45809 0.11800
N 	N 	0.00324 0.02762 0.45315 -0.13900
C 	C 	0.08783 0.03569 0.45734 -0.02000
H 	H 	0.08565 0.07855 0.41044 0.04300
C 	C 	0.11073 0.07248 0.43054 -0.01900
H 	H 	0.10389 0.00018 0.50406 0.04000
C 	C 	0.10449 0.05952 0.98551 -0.03900
C 	C 	0.12087 0.02795 0.48290 -0.01900
C 	C 	0.15173 0.08239 0.98376 0.00500
N 	N 	0.00137 0.95280 0.46436 -0.13500
C 	C 	0.97240 0.02956 0.99504 0.11200
C 	C 	0.96388 0.94842 0.98736 0.12800
N 	N 	0.94149 0.97504 0.99239 -0.13800
C 	C 	0.94953 0.99911 0.45440 0.13300
N 	N 	0.92165 0.94730 0.46061 -0.14000
C 	C 	0.94765 0.92411 0.46565 0.11500
Cu	Cu	0.64501 0.25873 0.00429 0.92800
Cu	Cu	0.67737 0.24943 0.91430 0.87200
Cu	Cu	0.67116 0.33898 0.94647 0.89700
Cu	Cu	0.64627 0.36051 0.02821 0.89400
C 	C 	0.67332 0.31117 0.08819 0.25100
O 	O 	0.56667 0.22727 0.00692 -0.36000
C 	C 	0.64860 0.29505 0.85734 0.25500
O 	O 	0.68754 0.34210 0.00397 -0.63900
O 	O 	0.63290 0.25957 0.94488 -0.64000
O 	O 	0.67804 0.21926 0.00221 -0.37000
O 	O 	0.73235 0.26830 0.95861 -0.44200
O 	O 	0.64552 0.33009 0.07854 -0.37500
O 	O 	0.71184 0.41668 0.95256 -0.37900
C 	C 	0.70678 0.44741 0.97913 0.28900
C 	C 	0.54364 0.24834 0.99140 0.28200
O 	O 	0.57392 0.29764 0.98401 -0.39100
O 	O 	0.67219 0.42678 0.00461 -0.39400
O 	O 	0.66775 0.27212 0.06266 -0.33600
C 	C 	0.72112 0.23689 0.98567 0.30900
O 	O 	0.66853 0.33748 0.88663 -0.36500
O 	O 	0.63963 0.25013 0.86591 -0.41000
H 	H 	0.72684 0.36594 0.01588 0.16400
H 	H 	0.59433 0.23730 0.93108 0.17200
Cu	Cu	0.72712 0.33340 0.44412 0.92800
Cu	Cu	0.72436 0.28662 0.52901 0.87200
Cu	Cu	0.63744 0.29553 0.49444 0.89800
Cu	Cu	0.62669 0.33259 0.41629 0.89500
C 	C 	0.69712 0.33193 0.35909 0.25900
O 	O 	0.75846 0.41280 0.44837 -0.36100
C 	C 	0.67159 0.30856 0.58388 0.25500
O 	O 	0.64257 0.28825 0.43764 -0.64100
O 	O 	0.71804 0.33566 0.50205 -0.64200
O 	O 	0.76712 0.30063 0.44526 -0.37100
O 	O 	0.71112 0.23825 0.48177 -0.43900
O 	O 	0.66798 0.34843 0.36993 -0.36300
O 	O 	0.55912 0.25364 0.48273 -0.37900
C 	C 	0.53070 0.25997 0.45484 0.30700
C 	C 	0.73396 0.43207 0.46379 0.30100
O 	O 	0.68288 0.39890 0.46696 -0.39100
O 	O 	0.55421 0.29841 0.43275 -0.39200
O 	O 	0.72102 0.31962 0.38589 -0.35400
C 	C 	0.74675 0.25430 0.45749 0.28700
O 	O 	0.63128 0.28906 0.55256 -0.36600
O 	O 	0.71754 0.31703 0.57837 -0.40800
H 	H 	0.62044 0.25045 0.42248 0.16600
H 	H 	0.73849 0.37240 0.51889 0.17300
C 	C 	0.64276 0.27572 0.67941 0.11400
C 	C 	0.61334 0.24741 0.70892 -0.08900
C 	C 	0.63758 0.27112 0.75036 0.00500
C 	C 	0.68335 0.32353 0.76200 0.11400
C 	C 	0.70985 0.35379 0.73228 -0.08900
C 	C 	0.69079 0.32666 0.69122 0.00700
O 	O 	0.62056 0.26231 0.63792 -0.19300
C 	C 	0.66101 0.31002 0.62579 0.04100
C 	C 	0.70138 0.34963 0.65800 -0.05900
O 	O 	0.69145 0.34644 0.80246 -0.19300
C 	C 	0.64654 0.30175 0.81431 0.03900
C 	C 	0.61262 0.25772 0.78256 -0.05800
H 	H 	0.57305 0.20954 0.70001 0.06400
H 	H 	0.74277 0.39659 0.74065 0.06400
H 	H 	0.74075 0.38473 0.65499 0.04900
H 	H 	0.58190 0.21673 0.78614 0.05000
C 	C 	0.74015 0.37221 0.26614 0.11700
C 	C 	0.73925 0.39395 0.23134 -0.09000
C 	C 	0.73827 0.36881 0.19354 0.01200
C 	C 	0.72960 0.31934 0.18906 0.11200
C 	C 	0.72619 0.29540 0.22350 -0.08600
C 	C 	0.73635 0.32520 0.26230 0.00800
O 	O 	0.72579 0.38354 0.30178 -0.18900
C 	C 	0.71265 0.33869 0.31868 0.04500
C 	C 	0.71887 0.30381 0.29566 -0.05600
O 	O 	0.70619 0.28919 0.14932 -0.18400
C 	C 	0.70099 0.32506 0.13087 0.04500
C 	C 	0.71984 0.37235 0.15682 -0.06600
H 	H 	0.73598 0.42708 0.23324 0.06500
H 	H 	0.71313 0.25408 0.21993 0.06600
H 	H 	0.69913 0.26179 0.29791 0.05200
H 	H 	0.70762 0.39824 0.15185 0.04900
C 	C 	0.91800 0.86814 0.47282 -0.02000
C 	C 	0.86783 0.82679 0.44771 -0.01900
C 	C 	0.84359 0.77270 0.45065 -0.04700
C 	C 	0.86922 0.75960 0.47884 0.01300
C 	C 	0.91802 0.80111 0.50527 -0.04800
C 	C 	0.94233 0.85509 0.50225 -0.02000
C 	C 	0.84685 0.70250 0.47891 0.00800
C 	C 	0.87701 0.68350 0.46910 -0.04200
C 	C 	0.85552 0.62922 0.46838 -0.03000
C 	C 	0.80376 0.59354 0.47741 -0.00800
C 	C 	0.77379 0.61252 0.48764 -0.03100
C 	C 	0.79526 0.66684 0.48842 -0.04200
C 	C 	0.78008 0.53683 0.47374 0.04600
C 	C 	0.75960 0.48915 0.46979 -0.10800
H 	H 	0.84863 0.83634 0.42491 0.04200
H 	H 	0.80577 0.74096 0.43021 0.04300
H 	H 	0.93771 0.79146 0.52754 0.04200
H 	H 	0.98065 0.88671 0.52221 0.03900
H 	H 	0.91681 0.71065 0.46161 0.04200
H 	H 	0.87883 0.61479 0.46028 0.04100
H 	H 	0.73367 0.58512 0.49456 0.04000
H 	H 	0.77178 0.68115 0.49624 0.04200
C 	C 	0.76748 0.22271 0.44726 -0.09500
C 	C 	0.82191 0.24908 0.44308 0.01300
C 	C 	0.84362 0.22006 0.43964 -0.06800
C 	C 	0.81108 0.16443 0.44020 0.02700
C 	C 	0.75602 0.13759 0.44224 -0.06800
C 	C 	0.73430 0.16653 0.44568 0.01300
C 	C 	0.83550 0.13516 0.44176 -0.00200
C 	C 	0.81733 0.09126 0.41051 -0.03500
C 	C 	0.83903 0.06225 0.41297 -0.04200
C 	C 	0.87892 0.07690 0.44668 0.01200
C 	C 	0.89719 0.12078 0.47783 -0.04200
C 	C 	0.87556 0.14979 0.47542 -0.03500
C 	C 	0.90227 0.04790 0.44888 0.00500
C 	C 	0.92302 0.02482 0.45119 -0.04500
H 	H 	0.84793 0.29231 0.44405 0.03300
H 	H 	0.88603 0.24104 0.43759 0.04700
H 	H 	0.73047 0.09460 0.44240 0.04600
H 	H 	0.69200 0.14550 0.44813 0.03000
H 	H 	0.78641 0.07962 0.38441 0.03900
H 	H 	0.82488 0.02852 0.38867 0.04200
H 	H 	0.92813 0.13243 0.50392 0.04200
H 	H 	0.88956 0.18331 0.49986 0.03600
C 	C 	0.16594 0.10081 0.42907 -0.04800
C 	C 	0.19874 0.09265 0.45438 0.01400
C 	C 	0.17602 0.05629 0.48141 -0.04800
C 	C 	0.25686 0.12212 0.45259 0.00800
C 	C 	0.27734 0.09361 0.44030 -0.04200
C 	C 	0.33278 0.12141 0.43998 -0.03000
C 	C 	0.36803 0.17783 0.45188 -0.00700
C 	C 	0.34758 0.20642 0.46375 -0.03000
C 	C 	0.29217 0.17868 0.46411 -0.04200
C 	C 	0.42532 0.20633 0.45261 0.04700
C 	C 	0.47338 0.23055 0.45349 -0.10400
H 	H 	0.18313 0.12874 0.40804 0.04400
H 	H 	0.20115 0.05010 0.50131 0.04300
H 	H 	0.25036 0.04997 0.43117 0.04200
H 	H 	0.34831 0.09907 0.43070 0.03900
H 	H 	0.37463 0.25006 0.47296 0.04100
H 	H 	0.27677 0.20102 0.47375 0.04200
C 	C 	0.73440 0.50471 0.97630 -0.08600
C 	C 	0.78672 0.53508 0.96696 0.01500
C 	C 	0.81399 0.59019 0.96650 -0.06600
C 	C 	0.78909 0.61529 0.97527 0.02900
C 	C 	0.73634 0.58469 0.98363 -0.06700
C 	C 	0.70911 0.52970 0.98416 0.01500
C 	C 	0.81886 0.67391 0.97711 -0.00300
C 	C 	0.83156 0.70790 0.01429 -0.03300
C 	C 	0.85933 0.76345 0.01601 -0.04000
C 	C 	0.87461 0.78537 0.98061 0.01300
C 	C 	0.86187 0.75152 0.94342 -0.04100
C 	C 	0.83405 0.69591 0.94164 -0.03400
C 	C 	0.90518 0.84282 0.98282 0.00400
C 	C 	0.93149 0.89101 0.98486 -0.03900
H 	H 	0.80669 0.51630 0.96089 0.03200
H 	H 	0.85475 0.61355 0.96001 0.04700
H 	H 	0.71661 0.60365 0.99000 0.04700
H 	H 	0.66839 0.50653 0.99072 0.03400
H 	H 	0.82010 0.69127 0.04185 0.03900
H 	H 	0.86926 0.78946 0.04489 0.04300
H 	H 	0.87373 0.76827 0.91595 0.04300
H 	H 	0.82418 0.66994 0.91277 0.04000
C 	C 	0.94764 0.05827 0.99933 -0.02200
C 	C 	0.90647 0.04111 0.02254 -0.01700
C 	C 	0.88022 0.06573 0.02413 -0.04900
C 	C 	0.89490 0.10773 0.00259 0.01500
C 	C 	0.93718 0.12607 0.98047 -0.05000
C 	C 	0.96345 0.10148 0.97884 -0.01900
C 	C 	0.86370 0.13001 0.00093 0.01000
C 	C 	0.83243 0.12197 0.96359 -0.04700
C 	C 	0.80286 0.14310 0.96186 -0.02900
C 	C 	0.80428 0.17238 0.99742 -0.01400
C 	C 	0.83521 0.18022 0.03485 -0.02600
C 	C 	0.86482 0.15903 0.03663 -0.04500
C 	C 	0.77508 0.19547 0.99510 0.04900
C 	C 	0.75047 0.21453 0.99166 -0.12000
H 	H 	0.89447 0.00840 0.03903 0.04100
H 	H 	0.84772 0.05143 0.04139 0.04400
H 	H 	0.94897 0.15869 0.96393 0.04200
H 	H 	0.99510 0.11511 0.96080 0.04000
H 	H 	0.83103 0.09930 0.93594 0.04100
H 	H 	0.77903 0.13690 0.93283 0.03300
H 	H 	0.83654 0.20289 0.06246 0.04100
H 	H 	0.88882 0.16540 0.06561 0.04200
C 	C 	0.48421 0.21843 0.98522 -0.09100
C 	C 	0.45787 0.23074 0.95691 0.01300
C 	C 	0.40276 0.20749 0.95471 -0.06600
C 	C 	0.37345 0.17159 0.98065 0.02600
C 	C 	0.39910 0.15745 0.00769 -0.06500
C 	C 	0.45422 0.18071 0.00996 0.01500
C 	C 	0.31660 0.15057 0.98074 -0.00300
C 	C 	0.30234 0.16433 0.01596 -0.03300
C 	C 	0.24817 0.14314 0.01650 -0.04000
C 	C 	0.20797 0.10820 0.98185 0.01300
C 	C 	0.22226 0.09527 0.94637 -0.04100
C 	C 	0.27643 0.11642 0.94579 -0.03500
H 	H 	0.48029 0.25904 0.93713 0.03100
H 	H 	0.38313 0.21826 0.93348 0.04700
H 	H 	0.37655 0.12923 0.02749 0.04800
H 	H 	0.47392 0.17069 0.03185 0.04000
H 	H 	0.33318 0.19109 0.04295 0.04000
H 	H 	0.23738 0.15323 0.04405 0.04400
H 	H 	0.19133 0.06815 0.91951 0.04300
H 	H 	0.28709 0.10571 0.91843 0.03900
