data_crystal

_cell_length_a 21.23794
_cell_length_b 20.66894
_cell_length_c 50.73292
_cell_angle_alpha 89.87789
_cell_angle_beta  89.88147
_cell_angle_gamma 119.72675

_symmetry_space_group_name_	'P 1'
_symmetry_space_group_name_H-M	'P 1'

loop_
_symmetry_equiv_pos_as_xyz
  x,y,z

loop_
_atom_site_label
_atom_site_type_symbol
_atom_site_fract_x
_atom_site_fract_y
_atom_site_fract_z
_atom_site_charge
C 	C 	0.67092 0.43792 0.94957 0.29000
C 	C 	0.57566 0.14087 0.90621 0.30700
C 	C 	0.72710 0.30522 0.96851 0.31100
C 	C 	0.51515 0.28154 0.88642 0.26200
C 	C 	0.79290 0.28933 0.88582 0.28000
C 	C 	0.74689 0.44745 0.86891 0.25800
Ni	Ni	0.59579 0.27415 0.93593 1.11300
Ni	Ni	0.65324 0.28220 0.87595 1.12000
Ni	Ni	0.76376 0.38885 0.91955 1.12100
O 	O 	0.60693 0.37666 0.94611 -0.37000
O 	O 	0.73271 0.43598 0.94863 -0.38000
O 	O 	0.72360 0.24533 0.88123 -0.38500
O 	O 	0.59512 0.17529 0.92891 -0.37700
O 	O 	0.57409 0.17636 0.88488 -0.37600
O 	O 	0.77265 0.46541 0.89322 -0.37700
O 	O 	0.65879 0.28820 0.96929 -0.36900
O 	O 	0.75911 0.31300 0.94569 -0.39000
O 	O 	0.72753 0.38052 0.85894 -0.37300
O 	O 	0.51102 0.24612 0.90891 -0.36600
O 	O 	0.57154 0.30437 0.87017 -0.37400
O 	O 	0.81757 0.35814 0.89405 -0.37800
O 	O 	0.66557 0.32636 0.90968 -0.71600
H 	H 	0.65269 0.36474 0.90525 0.15400
C 	C 	0.88651 0.50729 0.57500 0.28600
C 	C 	0.60896 0.24527 0.55492 0.31100
C 	C 	0.70627 0.49564 0.55327 0.31100
C 	C 	0.78483 0.26526 0.57990 0.25500
C 	C 	0.60043 0.36856 0.62542 0.28000
C 	C 	0.77199 0.40053 0.65190 0.26600
Ni	Ni	0.75233 0.37919 0.55351 1.11300
Ni	Ni	0.67769 0.29218 0.60850 1.11900
Ni	Ni	0.75017 0.46933 0.60530 1.12000
O 	O 	0.86158 0.45129 0.55815 -0.37000
O 	O 	0.84412 0.53299 0.58413 -0.37100
O 	O 	0.59671 0.31521 0.61043 -0.38100
O 	O 	0.64208 0.31565 0.54849 -0.38400
O 	O 	0.62432 0.22369 0.57733 -0.37300
O 	O 	0.80470 0.45435 0.63432 -0.38700
O 	O 	0.74846 0.47435 0.54176 -0.36700
O 	O 	0.68568 0.47686 0.57772 -0.38800
O 	O 	0.71603 0.33370 0.64555 -0.37200
O 	O 	0.76303 0.28372 0.55792 -0.36000
O 	O 	0.75234 0.25936 0.60297 -0.36700
O 	O 	0.66314 0.42913 0.62990 -0.38000
O 	O 	0.74214 0.38166 0.59024 -0.71400
H 	H 	0.78844 0.38636 0.59597 0.15500
C 	C 	0.95473 0.06788 0.68250 0.26200
C 	C 	0.92498 0.87357 0.77139 0.27900
C 	C 	0.95028 0.09897 0.75912 0.29100
C 	C 	0.93960 0.83334 0.71022 0.27500
C 	C 	0.14965 0.09466 0.76849 0.28200
C 	C 	0.16232 0.06693 0.69615 0.26400
Ni	Ni	0.91073 0.96071 0.72785 1.11500
Ni	Ni	0.06158 0.95787 0.73854 1.11600
Ni	Ni	0.06827 0.11148 0.72416 1.11700
O 	O 	0.90721 0.99950 0.69035 -0.35800
O 	O 	0.99589 0.11961 0.69982 -0.36300
O 	O 	0.10245 0.02325 0.77037 -0.38200
O 	O 	0.90934 0.92597 0.76621 -0.37500
O 	O 	0.98691 0.87966 0.76359 -0.36600
O 	O 	0.12400 0.10168 0.69393 -0.38400
O 	O 	0.90508 0.05236 0.74167 -0.36800
O 	O 	0.02062 0.12591 0.75670 -0.38600
O 	O 	0.15273 0.02043 0.71617 -0.37200
O 	O 	0.89245 0.85794 0.71299 -0.36900
O 	O 	0.01109 0.87917 0.71029 -0.38400
O 	O 	0.15393 0.13209 0.74695 -0.38500
O 	O 	0.01163 0.00530 0.72475 -0.72200
H 	H 	0.01369 0.99488 0.70591 0.15200
C 	C 	0.16546 0.70895 0.41610 0.26400
C 	C 	0.37916 0.64185 0.47062 0.31100
C 	C 	0.35618 0.83559 0.43233 0.31200
C 	C 	0.19537 0.52646 0.46753 0.30000
C 	C 	0.42385 0.69633 0.39062 0.28100
C 	C 	0.22252 0.55386 0.37196 0.26000
Ni	Ni	0.26660 0.68693 0.45562 1.11300
Ni	Ni	0.30418 0.57776 0.42114 1.12000
Ni	Ni	0.29429 0.71142 0.39281 1.12100
O 	O 	0.19822 0.72445 0.43960 -0.35800
O 	O 	0.19094 0.68953 0.39548 -0.37600
O 	O 	0.37818 0.62408 0.39188 -0.37900
O 	O 	0.33013 0.65802 0.47953 -0.37500
O 	O 	0.38789 0.63727 0.44542 -0.39300
O 	O 	0.26759 0.62589 0.36702 -0.36900
O 	O 	0.35800 0.78849 0.44897 -0.38100
O 	O 	0.32064 0.81175 0.40998 -0.37800
O 	O 	0.22809 0.52164 0.39384 -0.37500
O 	O 	0.18237 0.58123 0.46274 -0.38100
O 	O 	0.23852 0.51293 0.45195 -0.37500
O 	O 	0.40017 0.74412 0.39186 -0.37900
O 	O 	0.27205 0.64848 0.42299 -0.71700
H 	H 	0.22023 0.61389 0.41982 0.16200
C 	C 	0.42279 0.59824 0.06079 0.29200
C 	C 	0.26938 0.69113 0.13587 0.27900
C 	C 	0.23434 0.48694 0.09505 0.27900
C 	C 	0.45487 0.80162 0.10752 0.26200
C 	C 	0.16563 0.62700 0.05967 0.31500
C 	C 	0.35094 0.74791 0.02548 0.28900
Ni	Ni	0.35951 0.63523 0.10888 1.11300
Ni	Ni	0.30659 0.74130 0.08106 1.12000
Ni	Ni	0.28417 0.59602 0.05116 1.12100
O 	O 	0.40127 0.58082 0.08576 -0.36900
O 	O 	0.38003 0.60247 0.04259 -0.37800
O 	O 	0.21482 0.69819 0.05936 -0.38600
O 	O 	0.32745 0.68436 0.13799 -0.36600
O 	O 	0.24242 0.69078 0.11266 -0.38100
O 	O 	0.29992 0.67617 0.02412 -0.37700
O 	O 	0.26025 0.53879 0.11313 -0.37100
O 	O 	0.26149 0.50115 0.07109 -0.37000
O 	O 	0.36266 0.78653 0.04768 -0.38500
O 	O 	0.45412 0.73706 0.10713 -0.36900
O 	O 	0.39409 0.80539 0.10499 -0.36900
O 	O 	0.18480 0.57579 0.06112 -0.39400
O 	O 	0.33311 0.66658 0.07823 -0.71800
H 	H 	0.38093 0.69615 0.06981 0.15800
C 	C 	0.03824 0.12574 0.28063 0.24700
C 	C 	0.02902 0.89267 0.21047 0.26300
C 	C 	0.02324 0.09423 0.20417 0.27000
C 	C 	0.03567 0.90499 0.28661 0.24500
C 	C 	0.82272 0.89904 0.21164 0.28200
C 	C 	0.82392 0.89918 0.28563 0.26500
Ni	Ni	0.06793 0.02279 0.24581 1.10600
Ni	Ni	0.91375 0.86870 0.24863 1.12000
Ni	Ni	0.91480 0.02326 0.24645 1.11600
O 	O 	0.08143 0.12144 0.26254 -0.36700
O 	O 	0.96640 0.08955 0.27785 -0.36400
O 	O 	0.82418 0.85303 0.22929 -0.37900
O 	O 	0.07557 0.93649 0.22814 -0.36600
O 	O 	0.95923 0.86837 0.21334 -0.36200
O 	O 	0.82764 0.95076 0.26870 -0.37200
O 	O 	0.05972 0.05934 0.20847 -0.37300
O 	O 	0.99015 0.10688 0.22372 -0.36600
O 	O 	0.86116 0.86369 0.28213 -0.37900
O 	O 	0.07803 0.97692 0.28103 -0.36100
O 	O 	0.99187 0.85774 0.26847 -0.35300
O 	O 	0.86880 0.97082 0.21266 -0.38000
O 	O 	0.96779 0.97356 0.25265 -0.71100
H 	H 	0.96879 0.97654 0.27202 0.15800
C 	C 	0.11548 0.33447 0.13347 0.07500
C 	C 	0.04963 0.28656 0.14592 -0.07600
C 	C 	0.03296 0.21275 0.15049 -0.00900
C 	C 	0.08066 0.18801 0.14280 0.08100
C 	C 	0.14508 0.23578 0.12916 -0.08500
C 	C 	0.16207 0.30980 0.12546 0.01200
N 	N 	0.12728 0.39463 0.11949 -0.15100
C 	C 	0.18299 0.41019 0.10285 0.00100
C 	C 	0.20401 0.35634 0.10531 -0.04400
N 	N 	0.07548 0.13488 0.15950 -0.15000
C 	C 	0.02568 0.12598 0.17794 -0.01400
C 	C 	0.99769 0.17290 0.17286 -0.01300
H 	H 	0.01333 0.30622 0.15226 0.04900
H 	H 	0.18207 0.21689 0.12292 0.05300
H 	H 	0.25555 0.36290 0.09891 0.05000
H 	H 	0.97469 0.19264 0.18776 0.04700
H 	H 	0.11144 0.43273 0.12552 0.08700
H 	H 	0.11692 0.12230 0.16256 0.08900
C 	C 	0.58713 0.89860 0.15418 0.07700
C 	C 	0.60100 0.87755 0.17895 -0.08100
C 	C 	0.65501 0.85769 0.18054 0.01100
C 	C 	0.70046 0.86830 0.15942 0.08100
C 	C 	0.69092 0.89493 0.13521 -0.08400
C 	C 	0.63175 0.90728 0.13263 0.01700
N 	N 	0.51907 0.87539 0.14591 -0.15200
C 	C 	0.51803 0.86476 0.11959 0.00900
C 	C 	0.58772 0.88631 0.11062 -0.04700
N 	N 	0.76460 0.87797 0.16788 -0.15200
C 	C 	0.75947 0.87218 0.19445 0.00300
C 	C 	0.69247 0.86049 0.20311 -0.04200
H 	H 	0.56671 0.87072 0.19577 0.05500
H 	H 	0.72580 0.90202 0.11856 0.05800
H 	H 	0.59875 0.86432 0.09290 0.05000
H 	H 	0.68256 0.87634 0.22236 0.05000
H 	H 	0.47339 0.84656 0.15800 0.09200
H 	H 	0.81339 0.90672 0.15744 0.09400
C 	C 	0.21739 0.79553 0.17477 0.07800
C 	C 	0.21157 0.85973 0.17131 -0.08300
C 	C 	0.14214 0.85176 0.17014 0.01300
C 	C 	0.08047 0.78263 0.17366 0.07700
C 	C 	0.08612 0.71825 0.17693 -0.08300
C 	C 	0.15563 0.72608 0.17761 0.01300
N 	N 	0.27117 0.78821 0.16377 -0.15200
C 	C 	0.24398 0.71497 0.15869 -0.00000
C 	C 	0.17240 0.67457 0.16731 -0.04300
N 	N 	0.02726 0.79075 0.18487 -0.15800
C 	C 	0.05465 0.86463 0.18880 0.00700
C 	C 	0.12566 0.90419 0.17955 -0.04500
H 	H 	0.25955 0.91393 0.16903 0.05400
H 	H 	0.03811 0.66407 0.17918 0.05200
H 	H 	0.13261 0.62157 0.15908 0.04800
H 	H 	0.16578 0.95844 0.18683 0.05000
H 	H 	0.31431 0.83077 0.15324 0.08600
H 	H 	0.98518 0.74937 0.19612 0.09700
C 	C 	0.60612 0.80432 0.36982 0.07800
C 	C 	0.64882 0.86733 0.35412 -0.08300
C 	C 	0.67510 0.85688 0.33011 0.01400
C 	C 	0.66373 0.78709 0.32283 0.07800
C 	C 	0.62257 0.72437 0.33871 -0.08300
C 	C 	0.59392 0.73417 0.36231 0.01300
N 	N 	0.55008 0.79753 0.38431 -0.15100
C 	C 	0.50133 0.72390 0.38571 0.00400
C 	C 	0.52688 0.68272 0.37242 -0.04400
N 	N 	0.71791 0.79423 0.30715 -0.15200
C 	C 	0.76452 0.86802 0.30483 0.00900
C 	C 	0.73915 0.90901 0.31823 -0.04400
H 	H 	0.65862 0.92195 0.35992 0.05600
H 	H 	0.61297 0.66985 0.33286 0.05400
H 	H 	0.49227 0.62838 0.36386 0.05100
H 	H 	0.77246 0.96618 0.32456 0.04900
H 	H 	0.53697 0.83980 0.38643 0.09500
H 	H 	0.73090 0.75245 0.30351 0.09000
C 	C 	0.07879 0.26878 0.32743 0.07600
C 	C 	0.05642 0.31822 0.33661 -0.08500
C 	C 	0.10440 0.39498 0.33365 0.01400
C 	C 	0.17175 0.42145 0.32162 0.07700
C 	C 	0.19387 0.37172 0.31253 -0.08300
C 	C 	0.14740 0.29528 0.31659 0.01300
N 	N 	0.03256 0.20047 0.31798 -0.16000
C 	C 	0.07158 0.18302 0.30125 0.00800
C 	C 	0.14314 0.24055 0.29995 -0.04900
N 	N 	0.21901 0.48919 0.33108 -0.15200
C 	C 	0.18348 0.50554 0.34969 0.01000
C 	C 	0.11191 0.44821 0.35181 -0.04900
H 	H 	0.00368 0.29776 0.34570 0.05100
H 	H 	0.24654 0.39205 0.30339 0.05300
H 	H 	0.17881 0.25104 0.28322 0.05200
H 	H 	0.07944 0.43593 0.36957 0.04900
H 	H 	0.97633 0.17785 0.31707 0.09900
H 	H 	0.27528 0.51143 0.33084 0.09100
C 	C 	0.09304 0.81316 0.38995 0.07300
C 	C 	0.12065 0.87582 0.37322 -0.08000
C 	C 	0.10242 0.86407 0.34650 0.00900
C 	C 	0.05234 0.79427 0.33721 0.08500
C 	C 	0.01958 0.73276 0.35420 -0.10400
C 	C 	0.04208 0.74286 0.38064 0.02100
N 	N 	0.13404 0.80631 0.40874 -0.15200
C 	C 	0.11221 0.73293 0.41095 0.01000
C 	C 	0.05371 0.69188 0.39434 -0.05100
N 	N 	0.02095 0.80054 0.31510 -0.16100
C 	C 	0.05011 0.87435 0.31053 0.01000
C 	C 	0.10163 0.91593 0.32944 -0.04500
H 	H 	0.15951 0.93066 0.38038 0.05400
H 	H 	0.98054 0.67819 0.34688 0.06800
H 	H 	0.04001 0.63754 0.38666 0.05000
H 	H 	0.11947 0.97352 0.33420 0.05200
H 	H 	0.18669 0.84847 0.41311 0.09200
H 	H 	0.97127 0.75929 0.30766 0.09800
C 	C 	0.54253 0.08543 0.50635 -0.07400
C 	C 	0.49821 0.10068 0.49012 0.01500
C 	C 	0.48750 0.16105 0.49606 -0.00700
C 	C 	0.51978 0.20434 0.51845 -0.00300
C 	C 	0.56485 0.18970 0.53468 -0.09500
C 	C 	0.57618 0.12940 0.52842 0.05600
C 	C 	0.45404 0.04573 0.46982 0.00900
S 	S 	0.43579 0.18450 0.47513 -0.04200
H 	H 	0.51162 0.25101 0.52282 0.04300
S 	S 	0.63297 0.10858 0.54752 -0.03100
H 	H 	0.54990 0.03826 0.50201 0.05300
C 	C 	0.48673 0.03566 0.44716 -0.01100
C 	C 	0.45026 0.96920 0.43280 0.00600
C 	C 	0.38174 0.91263 0.44105 -0.09600
C 	C 	0.34605 0.92700 0.46191 0.05700
C 	C 	0.38210 0.99369 0.47583 -0.06300
S 	S 	0.57382 0.10478 0.43708 -0.04100
H 	H 	0.47717 0.95958 0.41633 0.03800
S 	S 	0.25803 0.86053 0.47189 -0.06400
H 	H 	0.35594 0.00264 0.49271 0.05000
H 	H 	0.59337 0.06044 0.56739 0.03800
H 	H 	0.62477 0.09341 0.44950 0.03600
H 	H 	0.20891 0.87724 0.46094 0.04500
H 	H 	0.47997 0.23258 0.45600 0.03600
C 	C 	0.05019 0.50412 0.58181 -0.08100
C 	C 	0.07795 0.53585 0.55711 0.01200
C 	C 	0.06194 0.58974 0.54697 0.00500
C 	C 	0.00653 0.59815 0.55864 -0.03400
C 	C 	0.96499 0.54960 0.57897 -0.06800
C 	C 	0.99635 0.51482 0.59353 0.05800
C 	C 	0.10909 0.50159 0.53978 0.01300
S 	S 	0.10666 0.64211 0.51870 -0.04100
H 	H 	0.98826 0.63296 0.54917 0.06100
S 	S 	0.96226 0.47650 0.62470 -0.04500
H 	H 	0.06676 0.46752 0.59098 0.05100
C 	C 	0.18453 0.53160 0.53815 -0.00400
C 	C 	0.21502 0.52227 0.51502 -0.00900
C 	C 	0.17082 0.48804 0.49301 -0.08900
C 	C 	0.09588 0.44268 0.49726 0.05700
C 	C 	0.06484 0.45030 0.52061 -0.07000
S 	S 	0.24146 0.58679 0.56375 -0.03900
H 	H 	0.27324 0.55132 0.51291 0.05000
S 	S 	0.03985 0.38411 0.47214 -0.04700
H 	H 	0.00635 0.42210 0.52275 0.05500
H 	H 	0.90424 0.40614 0.62214 0.03800
H 	H 	0.25842 0.65930 0.55987 0.03600
H 	H 	0.03306 0.31497 0.47490 0.03700
H 	H 	0.16910 0.70487 0.52602 0.03000
C 	C 	0.62191 0.56454 0.50268 -0.07400
C 	C 	0.60384 0.60794 0.51892 0.01400
C 	C 	0.63242 0.62550 0.54462 -0.00500
C 	C 	0.67537 0.59666 0.55406 0.00100
C 	C 	0.68401 0.54408 0.53929 -0.09200
C 	C 	0.65883 0.52975 0.51299 0.06000
C 	C 	0.54331 0.62004 0.51094 0.01400
S 	S 	0.60964 0.67788 0.56598 -0.03400
H 	H 	0.69707 0.61032 0.57387 0.03700
S 	S 	0.66727 0.46402 0.49347 -0.04400
H 	H 	0.60138 0.55232 0.48270 0.05400
C 	C 	0.55554 0.69082 0.50295 -0.00500
C 	C 	0.49767 0.69856 0.49335 0.00100
C 	C 	0.42966 0.63540 0.48889 -0.09500
C 	C 	0.41866 0.56436 0.49614 0.05200
C 	C 	0.47369 0.55822 0.50886 -0.07200
S 	S 	0.64361 0.76856 0.50269 -0.03600
H 	H 	0.50727 0.75297 0.48715 0.04300
S 	S 	0.34107 0.48221 0.48602 -0.04800
H 	H 	0.46415 0.50379 0.51501 0.05400
H 	H 	0.60917 0.39454 0.49803 0.04000
H 	H 	0.67667 0.77108 0.47919 0.04000
H 	H 	0.35247 0.46356 0.46127 0.03100
H 	H 	0.66188 0.75151 0.56453 0.03800
C 	C 	0.96865 0.16204 0.62183 0.07200
C 	C 	0.97485 0.22745 0.61087 -0.06300
C 	C 	0.92497 0.22004 0.59133 0.00900
C 	C 	0.86425 0.15123 0.58626 0.08100
C 	C 	0.85361 0.08695 0.59961 -0.08400
C 	C 	0.90973 0.09271 0.61573 0.01700
N 	N 	0.99513 0.15984 0.64572 -0.14400
C 	C 	0.95349 0.08962 0.65490 0.00900
C 	C 	0.89976 0.04631 0.63693 -0.04700
N 	N 	0.80898 0.16044 0.57802 -0.15200
C 	C 	0.83383 0.23463 0.57759 0.01100
C 	C 	0.90557 0.27341 0.58584 -0.04500
H 	H 	0.01380 0.28171 0.61847 0.04100
H 	H 	0.80187 0.03583 0.59884 0.05500
H 	H 	0.84865 0.99760 0.64208 0.05600
H 	H 	0.93098 0.32832 0.59455 0.04500
H 	H 	0.02523 0.20643 0.65761 0.08000
H 	H 	0.75437 0.12033 0.58040 0.08900
C 	C 	0.34440 0.15712 0.67411 0.07700
C 	C 	0.41386 0.20980 0.68290 -0.08300
C 	C 	0.45088 0.27816 0.66946 0.01200
C 	C 	0.42078 0.29243 0.64745 0.07800
C 	C 	0.35048 0.24057 0.63909 -0.08300
C 	C 	0.31346 0.17237 0.65260 0.01400
N 	N 	0.29233 0.10837 0.69043 -0.15200
C 	C 	0.22806 0.09328 0.67982 0.00800
C 	C 	0.23907 0.13234 0.65627 -0.04800
N 	N 	0.47349 0.33811 0.63066 -0.15100
C 	C 	0.53735 0.35328 0.64169 0.00100
C 	C 	0.52525 0.31732 0.66594 -0.04600
H 	H 	0.43799 0.19819 0.69975 0.05400
H 	H 	0.32632 0.25214 0.62224 0.05500
H 	H 	0.20151 0.14821 0.64814 0.05300
H 	H 	0.56198 0.30118 0.67468 0.04700
H 	H 	0.30018 0.10366 0.71054 0.09200
H 	H 	0.46593 0.34007 0.61037 0.09100
C 	C 	0.90430 0.64729 0.71401 0.07300
C 	C 	0.91768 0.58916 0.70766 -0.08100
C 	C 	0.85784 0.51657 0.70569 0.01300
C 	C 	0.78709 0.50413 0.70692 0.07600
C 	C 	0.77438 0.56415 0.71052 -0.08300
C 	C 	0.83397 0.63480 0.71508 0.01000
N 	N 	0.95082 0.71954 0.70834 -0.14500
C 	C 	0.91049 0.75312 0.70503 0.00300
C 	C 	0.83725 0.70115 0.70838 -0.04600
N 	N 	0.74325 0.44513 0.69193 -0.15200
C 	C 	0.78524 0.42202 0.67972 0.00600
C 	C 	0.85626 0.46334 0.68880 -0.04500
H 	H 	0.97170 0.60071 0.70230 0.05700
H 	H 	0.72103 0.55729 0.70719 0.05500
H 	H 	0.79414 0.71391 0.71157 0.05200
H 	H 	0.90309 0.47073 0.67779 0.05200
H 	H 	0.00447 0.74118 0.70205 0.07900
H 	H 	0.69419 0.43691 0.68420 0.09200
C 	C 	0.81962 0.43271 0.02515 -0.07500
C 	C 	0.88784 0.43831 0.02305 0.01100
C 	C 	0.89530 0.38394 0.00883 -0.00700
C 	C 	0.83765 0.33210 0.99352 -0.00300
C 	C 	0.77231 0.33356 0.99252 -0.09700
C 	C 	0.76086 0.37830 0.01093 0.06000
C 	C 	0.95196 0.50369 0.03418 0.02700
S 	S 	0.97701 0.38152 0.00954 -0.01700
H 	H 	0.84526 0.29402 0.98101 0.04400
S 	S 	0.67313 0.36193 0.01845 -0.03300
H 	H 	0.81239 0.47102 0.03765 0.05300
C 	C 	0.00317 0.55998 0.01751 -0.03000
C 	C 	0.07238 0.60951 0.02711 0.00400
C 	C 	0.09010 0.60380 0.05329 -0.09600
C 	C 	0.03461 0.55739 0.07092 0.05000
C 	C 	0.96622 0.50586 0.06121 -0.06300
S 	S 	0.98199 0.56712 0.98449 -0.02600
H 	H 	0.11398 0.64822 0.01374 0.04000
S 	S 	0.05050 0.56370 0.10507 -0.04900
H 	H 	0.92521 0.46581 0.07446 0.05400
H 	H 	0.64397 0.31010 0.03826 0.03700
H 	H 	0.94942 0.61002 0.98322 0.03600
H 	H 	0.08539 0.52533 0.11154 0.04400
H 	H 	0.02227 0.42682 0.99006 0.02700
C 	C 	0.43118 0.80292 0.95648 -0.07200
C 	C 	0.44035 0.87477 0.95445 0.01300
C 	C 	0.41861 0.90387 0.97549 -0.00500
C 	C 	0.38743 0.86082 0.99805 -0.00400
C 	C 	0.38077 0.79005 0.00065 -0.08400
C 	C 	0.40389 0.76138 0.97976 0.05300
C 	C 	0.47835 0.92198 0.93132 0.01000
S 	S 	0.43303 0.99548 0.97431 -0.03700
H 	H 	0.36927 0.88297 0.01384 0.04400
S 	S 	0.40493 0.67714 0.98322 -0.04600
H 	H 	0.44858 0.78080 0.94044 0.05300
C 	C 	0.55464 0.96422 0.93106 -0.00000
C 	C 	0.58905 0.03249 0.91767 -0.00600
C 	C 	0.54758 0.05997 0.90564 -0.09000
C 	C 	0.47316 0.01063 0.90123 0.05100
C 	C 	0.43913 0.94079 0.91368 -0.06700
S 	S 	0.60691 0.93608 0.94960 -0.03900
H 	H 	0.64729 0.06805 0.91933 0.04300
S 	S 	0.42079 0.03828 0.88254 -0.03700
H 	H 	0.38083 0.90549 0.91226 0.05200
H 	H 	0.47113 0.69177 0.99259 0.04100
H 	H 	0.61274 0.96134 0.97492 0.04000
H 	H 	0.39025 0.06713 0.89921 0.03800
H 	H 	0.50228 0.04413 0.98233 0.03600
C 	C 	0.60141 0.56155 0.97356 -0.07100
C 	C 	0.63211 0.57738 0.99883 0.01300
C 	C 	0.69124 0.56660 0.00425 -0.00500
C 	C 	0.71158 0.52990 0.98590 -0.00400
C 	C 	0.67153 0.50170 0.96263 -0.08700
C 	C 	0.62130 0.52415 0.95535 0.05600
C 	C 	0.59264 0.58935 0.02048 0.01500
S 	S 	0.73790 0.59583 0.03436 -0.03800
H 	H 	0.75475 0.51830 0.99064 0.04600
S 	S 	0.58327 0.50577 0.92356 -0.04500
H 	H 	0.55877 0.57392 0.96875 0.05300
C 	C 	0.59418 0.65787 0.02316 -0.00700
C 	C 	0.54272 0.66239 0.03912 -0.00400
C 	C 	0.48873 0.59867 0.05195 -0.08900
C 	C 	0.49180 0.53210 0.05132 0.05800
C 	C 	0.54429 0.52813 0.03584 -0.07200
S 	S 	0.65832 0.73741 0.00586 -0.03800
H 	H 	0.54172 0.71428 0.04019 0.03500
S 	S 	0.42725 0.45190 0.06829 -0.03800
H 	H 	0.54451 0.47591 0.03437 0.05500
H 	H 	0.62738 0.56280 0.90691 0.03600
H 	H 	0.63061 0.73978 0.98174 0.03500
H 	H 	0.45140 0.45207 0.09332 0.03900
H 	H 	0.79339 0.66778 0.03184 0.03900
C 	C 	0.86462 0.18619 0.85639 0.07800
C 	C 	0.83895 0.12501 0.83923 -0.08200
C 	C 	0.86244 0.13851 0.81297 0.01300
C 	C 	0.91520 0.20881 0.80465 0.07900
C 	C 	0.94359 0.26952 0.82195 -0.08100
C 	C 	0.91641 0.25725 0.84787 0.01300
N 	N 	0.82216 0.19123 0.87503 -0.15100
C 	C 	0.84423 0.26445 0.87802 0.00200
C 	C 	0.90340 0.30722 0.86168 -0.04200
N 	N 	0.95215 0.20344 0.78396 -0.14300
C 	C 	0.92273 0.12982 0.77911 0.00200
C 	C 	0.86680 0.08750 0.79659 -0.04200
H 	H 	0.79873 0.06973 0.84573 0.05500
H 	H 	0.98387 0.32464 0.81533 0.05700
H 	H 	0.91710 0.36194 0.85431 0.05300
H 	H 	0.84856 0.02992 0.80166 0.04900
H 	H 	0.76987 0.14825 0.87954 0.09300
H 	H 	0.00431 0.24422 0.77826 0.07900
C 	C 	0.38176 0.27438 0.84352 0.07700
C 	C 	0.36855 0.26858 0.81627 -0.08300
C 	C 	0.31369 0.20066 0.80649 0.01100
C 	C 	0.26985 0.14218 0.82327 0.07700
C 	C 	0.28036 0.14904 0.85062 -0.08300
C 	C 	0.33736 0.21607 0.86046 0.01200
N 	N 	0.44907 0.31306 0.85350 -0.15200
C 	C 	0.44903 0.27935 0.87640 0.00700
C 	C 	0.38013 0.21965 0.88154 -0.04500
N 	N 	0.20495 0.09819 0.81201 -0.15100
C 	C 	0.20681 0.12967 0.78845 -0.00100
C 	C 	0.27371 0.19273 0.78409 -0.04200
H 	H 	0.40235 0.31404 0.80307 0.05400
H 	H 	0.24645 0.10339 0.86373 0.05300
H 	H 	0.36968 0.17218 0.89368 0.05000
H 	H 	0.28395 0.23688 0.77024 0.05000
H 	H 	0.49541 0.34541 0.84210 0.09300
H 	H 	0.15756 0.06167 0.82220 0.09100
C 	C 	0.81165 0.58971 0.82093 0.07900
C 	C 	0.82224 0.61663 0.79508 -0.08300
C 	C 	0.81784 0.68107 0.79022 0.01400
C 	C 	0.80435 0.71807 0.81045 0.07500
C 	C 	0.79333 0.69055 0.83642 -0.08200
C 	C 	0.79843 0.62638 0.84120 0.01300
N 	N 	0.78404 0.51720 0.82692 -0.15200
C 	C 	0.75432 0.50716 0.85121 0.00700
C 	C 	0.76030 0.57355 0.86033 -0.04600
N 	N 	0.83466 0.79128 0.80466 -0.15100
C 	C 	0.86757 0.80086 0.78098 -0.00400
C 	C 	0.85937 0.73402 0.77171 -0.04600
H 	H 	0.83303 0.58829 0.77926 0.05700
H 	H 	0.78257 0.71872 0.85230 0.05400
H 	H 	0.75183 0.58513 0.88043 0.05000
H 	H 	0.89980 0.73052 0.75980 0.05600
H 	H 	0.79820 0.48114 0.81761 0.09200
H 	H 	0.85011 0.83329 0.81875 0.08900
