data_crystal

_cell_length_a 10.36769
_cell_length_b 11.94727
_cell_length_c 54.41354
_cell_angle_alpha 90.75687
_cell_angle_beta  90.93655
_cell_angle_gamma 110.87262

_symmetry_space_group_name_	'P 1'
_symmetry_space_group_name_H-M	'P 1'

loop_
_symmetry_equiv_pos_as_xyz
  x,y,z

loop_
_atom_site_label
_atom_site_type_symbol
_atom_site_fract_x
_atom_site_fract_y
_atom_site_fract_z
_atom_site_charge
C 	C 	0.80533 0.56279 0.00933 -0.00900
C 	C 	0.29667 0.74686 0.01207 -0.02900
H 	H 	0.20141 0.67133 0.01419 0.04500
C 	C 	0.54564 0.93980 0.00579 -0.06200
C 	C 	0.27281 0.35683 0.99749 -0.00600
H 	H 	0.04767 0.80847 0.05389 0.04100
C 	C 	0.45240 0.55165 0.00522 -0.03900
C 	C 	0.97919 0.73993 0.04164 -0.05700
C 	C 	0.66751 0.04038 0.00312 0.07000
H 	H 	0.52290 0.63620 0.99862 0.04700
H 	H 	0.56463 0.29479 0.99024 0.05100
C 	C 	0.63649 0.36191 0.00230 -0.04400
C 	C 	0.10108 0.13375 0.01480 -0.04200
C 	C 	0.81388 0.53777 0.03442 -0.01200
C 	C 	0.39421 0.78382 0.03153 -0.00300
C 	C 	0.52051 0.87879 0.02818 0.02300
C 	C 	0.27450 0.33141 0.02266 -0.01200
C 	C 	0.18423 0.22144 0.03149 0.01900
H 	H 	0.03352 0.04803 0.02133 0.04800
C 	C 	0.45941 0.52348 0.02994 -0.04300
C 	C 	0.90168 0.62635 0.05062 0.01500
C 	C 	0.76179 0.08041 0.02297 -0.08200
H 	H 	0.85015 0.16271 0.02172 0.04700
C 	C 	0.64750 0.33607 0.02707 -0.04100
C 	C 	0.73589 0.42350 0.04324 0.01600
C 	C 	0.36747 0.41541 0.03894 0.02300
C 	C 	0.36667 0.72783 0.05437 -0.02300
H 	H 	0.26734 0.65824 0.05742 0.02700
C 	C 	0.61979 0.91542 0.04752 -0.04200
H 	H 	0.53615 0.58596 0.04209 0.05000
C 	C 	0.74020 0.01632 0.04477 0.01300
H 	H 	0.58603 0.24845 0.03371 0.04800
H 	H 	0.98596 0.66518 0.08766 0.01600
C 	C 	0.91565 0.59842 0.07532 -0.03400
C 	C 	0.17636 0.20184 0.05695 -0.02700
C 	C 	0.46606 0.76364 0.07354 -0.07500
H 	H 	0.10162 0.12024 0.06393 0.04800
H 	H 	0.81527 0.04727 0.05978 0.02500
C 	C 	0.75092 0.39670 0.06789 -0.02400
C 	C 	0.59379 0.85499 0.06984 -0.00100
C 	C 	0.36588 0.39130 0.06405 -0.04100
C 	C 	0.84649 0.48155 0.08359 -0.05400
C 	C 	0.26312 0.28949 0.07339 -0.06200
H 	H 	0.69532 0.30735 0.07446 0.04800
H 	H 	0.44117 0.45372 0.07640 0.05700
H 	H 	0.66940 0.88344 0.08483 0.02600
C 	C 	0.42567 0.72529 0.09856 0.27100
O 	O 	0.94704 0.35221 0.10284 -0.41300
C 	C 	0.89867 0.43961 0.10559 0.26600
O 	O 	0.41935 0.80745 0.11461 -0.41000
O 	O 	0.43054 0.62146 0.10591 -0.37400
H 	H 	0.13245 0.63054 0.11723 0.14800
C 	C 	0.23768 0.28254 0.10014 0.27100
O 	O 	0.12000 0.20730 0.10851 -0.38600
O 	O 	0.88082 0.47880 0.12768 -0.36200
O 	O 	0.32391 0.36242 0.11499 -0.37100
O 	O 	0.17486 0.61676 0.13273 -0.71000
Ni	Ni	0.27399 0.50490 0.12561 1.09700
Ni	Ni	0.98408 0.25642 0.13096 1.06700
Ni	Ni	0.30314 0.77216 0.14515 1.06600
O 	O 	0.81673 0.25505 0.15074 -0.39600
Ni	Ni	0.02732 0.51771 0.15590 1.10100
O 	O 	0.11935 0.39967 0.14719 -0.69400
O 	O 	0.98174 0.66355 0.16734 -0.37800
O 	O 	0.45072 0.72443 0.16271 -0.39800
H 	H 	0.15637 0.37625 0.16237 0.16100
O 	O 	0.39927 0.52605 0.15604 -0.36300
C 	C 	0.82720 0.29566 0.17369 0.28000
O 	O 	0.20619 0.76364 0.17848 -0.42800
C 	C 	0.42240 0.61687 0.17120 0.27500
C 	C 	0.07513 0.74997 0.18005 0.26800
O 	O 	0.88333 0.41093 0.17860 -0.36700
C 	C 	0.03396 0.79647 0.20163 -0.05200
C 	C 	0.77039 0.21493 0.19347 -0.05200
C 	C 	0.42484 0.60008 0.19719 -0.05600
C 	C 	0.00940 0.83042 0.22127 -0.06000
C 	C 	0.73428 0.15332 0.21136 -0.02800
C 	C 	0.42402 0.59337 0.21925 -0.08500
H 	H 	0.71025 0.81895 0.23806 0.15400
C 	C 	0.70758 0.08556 0.23364 0.27100
O 	O 	0.97530 0.96310 0.25100 -0.38700
C 	C 	0.98858 0.86030 0.24600 0.27200
O 	O 	0.81049 0.10476 0.24942 -0.33600
C 	C 	0.42362 0.59907 0.24555 0.29100
O 	O 	0.57975 0.03519 0.24098 -0.36600
O 	O 	0.67914 0.83534 0.25437 -0.70200
O 	O 	0.38291 0.68094 0.25556 -0.39600
O 	O 	0.51454 0.56735 0.25780 -0.35800
Ni	Ni	0.49877 0.85662 0.25145 1.06300
O 	O 	0.01811 0.79925 0.26353 -0.39600
Ni	Ni	0.82271 0.97662 0.27305 1.08200
O 	O 	0.96741 0.10844 0.29304 -0.34300
Ni	Ni	0.65952 0.69954 0.27788 1.09800
O 	O 	0.90064 0.63855 0.29931 -0.40100
O 	O 	0.80461 0.84154 0.29611 -0.70500
C 	C 	0.79260 0.58547 0.31237 0.28600
Ni	Ni	0.98627 0.82333 0.29970 1.06300
C 	C 	0.06039 0.08474 0.30653 0.27700
O 	O 	0.49716 0.89851 0.28806 -0.41500
O 	O 	0.67106 0.57966 0.30402 -0.35800
O 	O 	0.50386 0.71666 0.29886 -0.36300
H 	H 	0.77280 0.85795 0.31235 0.14700
O 	O 	0.10685 0.00015 0.29970 -0.36700
C 	C 	0.12444 0.16313 0.32679 -0.03600
C 	C 	0.49334 0.81972 0.30503 0.26400
C 	C 	0.81439 0.57440 0.33810 -0.07300
C 	C 	0.16542 0.23310 0.34374 -0.03300
C 	C 	0.85059 0.57322 0.35918 -0.06200
C 	C 	0.44314 0.83157 0.32910 -0.05300
O 	O 	0.12719 0.39296 0.36354 -0.36900
C 	C 	0.19789 0.32103 0.36314 0.28000
C 	C 	0.40005 0.83070 0.34965 -0.06700
O 	O 	0.93582 0.67225 0.39749 -0.39400
O 	O 	0.21583 0.79671 0.37765 -0.42400
C 	C 	0.90921 0.57622 0.38327 0.27900
O 	O 	0.94830 0.48835 0.38992 -0.36700
H 	H 	0.39851 0.60223 0.37647 0.16300
C 	C 	0.34842 0.82043 0.37428 0.26900
Ni	Ni	0.15318 0.51308 0.39141 1.09700
O 	O 	0.25964 0.30356 0.38344 -0.39000
O 	O 	0.36020 0.57003 0.39252 -0.70500
Ni	Ni	0.13229 0.77397 0.41184 1.06500
O 	O 	0.43372 0.83038 0.39310 -0.37000
Ni	Ni	0.41787 0.43467 0.40174 1.07100
O 	O 	0.19280 0.63825 0.41932 -0.70500
O 	O 	0.10768 0.37510 0.41581 -0.36300
Ni	Ni	0.40035 0.69948 0.41909 1.09700
O 	O 	0.60265 0.52965 0.42155 -0.38200
O 	O 	0.29623 0.90701 0.42806 -0.41700
H 	H 	0.15931 0.60456 0.43548 0.15400
O 	O 	0.31645 0.40404 0.43438 -0.40700
C 	C 	0.18267 0.37942 0.43572 0.27300
O 	O 	0.60196 0.71876 0.41916 -0.38100
C 	C 	0.63551 0.63899 0.43104 0.28100
H 	H 	0.96757 0.44098 0.45046 0.03800
O 	O 	0.43697 0.82292 0.44653 -0.38700
C 	C 	0.36071 0.88930 0.44791 0.29200
C 	C 	0.11673 0.35904 0.45983 -0.06100
C 	C 	0.01623 0.40903 0.46521 -0.03100
H 	H 	0.45170 0.13033 0.45233 0.03800
H 	H 	0.88007 0.76320 0.45356 0.01100
C 	C 	0.36901 0.96040 0.47033 -0.12500
H 	H 	0.23892 0.26036 0.47436 0.04800
C 	C 	0.66386 0.65853 0.45762 -0.07900
C 	C 	0.79524 0.73346 0.46621 -0.01200
H 	H 	0.84802 0.51981 0.48113 0.04100
C 	C 	0.42777 0.08574 0.46981 0.03900
C 	C 	0.16853 0.30625 0.47868 -0.02300
C 	C 	0.55288 0.62276 0.47382 -0.02700
H 	H 	0.45056 0.56871 0.46698 0.02200
H 	H 	0.54587 0.32438 0.47422 0.04000
C 	C 	0.98941 0.42880 0.48973 0.01000
C 	C 	0.90517 0.49449 0.49549 -0.04400
C 	C 	0.33916 0.90197 0.49290 0.00800
H 	H 	0.29421 0.80486 0.49317 0.02200
C 	C 	0.13666 0.32039 0.50323 0.01600
C 	C 	0.46136 0.15293 0.49185 -0.02200
C 	C 	0.52275 0.27828 0.49153 -0.02100
C 	C 	0.81649 0.77121 0.49104 0.00200
H 	H 	0.03427 0.87412 0.48758 0.02900
C 	C 	0.05597 0.38991 0.50877 -0.00500
C 	C 	0.57237 0.66150 0.49852 0.01200
C 	C 	0.94835 0.84351 0.49995 -0.03900
C 	C 	0.89730 0.53030 0.51984 -0.04600
Ni	Ni	0.26026 0.32868 0.77287 1.09800
O 	O 	0.23857 0.45074 0.79816 -0.35500
O 	O 	0.41834 0.32495 0.79609 -0.36500
O 	O 	0.54428 0.36061 0.75515 -0.40000
O 	O 	0.25100 0.19177 0.74956 -0.69700
O 	O 	0.39845 0.46260 0.75348 -0.36200
O 	O 	0.37440 0.00005 0.74147 -0.38200
Ni	Ni	0.43738 0.18306 0.74878 1.07000
H 	H 	0.15869 0.17338 0.80683 0.15700
H 	H 	0.21859 0.20290 0.73288 0.16100
O 	O 	0.43512 0.14594 0.78501 -0.41000
C 	C 	0.44108 0.22680 0.80186 0.27300
C 	C 	0.25345 0.93688 0.73163 0.25500
C 	C 	0.50500 0.44169 0.74466 0.29100
C 	C 	0.33861 0.91035 0.53765 -0.01100
C 	C 	0.36390 0.97745 0.55964 -0.08800
C 	C 	0.42346 0.10307 0.55930 0.05500
C 	C 	0.43251 0.09400 0.51455 0.05000
C 	C 	0.37010 0.96820 0.51503 -0.04300
H 	H 	0.29130 0.81357 0.53819 0.03500
H 	H 	0.33574 0.93173 0.57691 0.04400
H 	H 	0.41172 0.12664 0.59848 0.03000
C 	C 	0.18619 0.31052 0.54679 -0.04200
C 	C 	0.19160 0.27288 0.52243 -0.03900
H 	H 	0.23702 0.20642 0.51854 0.04800
C 	C 	0.46152 0.62593 0.51474 -0.04200
C 	C 	0.48344 0.65786 0.53971 -0.04600
C 	C 	0.61646 0.72602 0.54879 0.01900
H 	H 	0.35877 0.57179 0.50809 0.04100
H 	H 	0.39743 0.62752 0.55207 0.04700
H 	H 	0.55662 0.71615 0.58672 0.05700
C 	C 	0.57878 0.47114 0.69869 -0.04000
C 	C 	0.54142 0.46771 0.71957 -0.07300
C 	C 	0.55467 0.21887 0.84500 -0.06800
C 	C 	0.50302 0.22143 0.82520 -0.04800
C 	C 	0.61147 0.21985 0.86909 0.27900
O 	O 	0.58959 0.48481 0.60284 -0.38200
C 	C 	0.52563 0.36904 0.60369 0.28200
C 	C 	0.46139 0.16130 0.53672 -0.04200
C 	C 	0.52055 0.28732 0.53617 0.03100
C 	C 	0.50085 0.29705 0.58064 -0.07900
C 	C 	0.44265 0.17122 0.58117 -0.04900
C 	C 	0.12122 0.39274 0.55209 0.01900
H 	H 	0.23165 0.27543 0.56144 0.05000
H 	H 	0.19311 0.42393 0.59000 0.05800
C 	C 	0.64146 0.74867 0.57414 -0.03300
C 	C 	0.24718 0.85508 0.71181 -0.03000
C 	C 	0.23532 0.78599 0.69490 -0.08300
O 	O 	0.51569 0.31663 0.62503 -0.40900
O 	O 	0.13985 0.92202 0.74364 -0.34900
C 	C 	0.54113 0.35448 0.55810 -0.03500
C 	C 	0.21271 0.70504 0.67432 0.29800
O 	O 	0.12393 0.18456 0.79034 -0.68900
H 	H 	0.57874 0.43461 0.87107 0.15800
C 	C 	0.62958 0.45419 0.67517 0.26800
O 	O 	0.74437 0.24185 0.87220 -0.42500
C 	C 	0.55198 0.34496 0.51354 -0.05600
C 	C 	0.11767 0.43417 0.80763 0.28100
H 	H 	0.58686 0.45142 0.55761 0.04600
H 	H 	0.59628 0.44159 0.51297 0.04700
C 	C 	0.70479 0.73476 0.50725 -0.00300
O 	O 	0.61373 0.51614 0.65614 -0.35600
O 	O 	0.61246 0.46952 0.88755 -0.70100
Ni	Ni	0.54901 0.60575 0.89378 1.07100
C 	C 	0.72698 0.76677 0.53244 -0.01700
O 	O 	0.67569 0.36546 0.67259 -0.42600
O 	O 	0.71908 0.72013 0.62333 -0.37500
Ni	Ni	0.67817 0.28192 0.63981 1.06800
Ni	Ni	0.74796 0.56193 0.62713 1.09600
C 	C 	0.77708 0.80656 0.58342 -0.07200
Ni	Ni	0.83257 0.26073 0.90653 1.06200
C 	C 	0.80715 0.80168 0.61008 0.27400
C 	C 	0.86110 0.83408 0.54145 0.01800
C 	C 	0.88567 0.85407 0.56692 -0.03200
O 	O 	0.82425 0.42810 0.62878 -0.69900
O 	O 	0.71131 0.73738 0.87859 -0.40200
H 	H 	0.85442 0.41175 0.61243 0.15200
Ni	Ni	0.81974 0.52811 0.88930 1.09200
O 	O 	0.80833 0.19931 0.65431 -0.38900
C 	C 	0.97030 0.87526 0.52497 -0.05400
C 	C 	0.78028 0.71845 0.85982 0.27700
H 	H 	0.98993 0.90105 0.57391 0.03800
O 	O 	0.85706 0.65262 0.86257 -0.38000
O 	O 	0.02858 0.36022 0.89346 -0.37700
H 	H 	0.07243 0.93108 0.53155 0.04400
O 	O 	0.91159 0.63962 0.65068 -0.70400
O 	O 	0.93169 0.86207 0.61921 -0.40100
H 	H 	0.88218 0.65952 0.66686 0.15700
C 	C 	0.80675 0.79749 0.83925 -0.04800
H 	H 	0.92231 0.60665 0.56648 0.03500
C 	C 	0.91584 0.25592 0.66858 0.25700
H 	H 	0.83310 0.58156 0.52410 0.04300
Ni	Ni	0.11715 0.04817 0.76742 1.10800
C 	C 	0.83841 0.86055 0.82151 -0.05000
O 	O 	0.21948 0.74795 0.65214 -0.40500
O 	O 	0.06967 0.69699 0.60507 -0.40300
O 	O 	0.90078 0.20697 0.75616 -0.40100
C 	C 	0.92567 0.21236 0.69287 -0.05400
Ni	Ni	0.98433 0.50444 0.65367 1.09000
O 	O 	0.02284 0.54748 0.88956 -0.35700
C 	C 	0.05581 0.45894 0.88084 0.28200
O 	O 	0.01703 0.34833 0.66038 -0.34600
C 	C 	0.08707 0.59302 0.60423 0.26200
C 	C 	0.93708 0.14708 0.73899 0.26500
C 	C 	0.88858 0.93304 0.80033 0.26400
O 	O 	0.83028 0.00909 0.79303 -0.38900
C 	C 	0.98016 0.54913 0.56231 -0.04800
C 	C 	0.93101 0.17957 0.71368 -0.06200
Ni	Ni	0.05729 0.78202 0.63701 1.07300
O 	O 	0.98273 0.91320 0.78688 -0.37500
Ni	Ni	0.93581 0.18946 0.79281 1.06000
O 	O 	0.11611 0.54555 0.62445 -0.35500
C 	C 	0.97351 0.50096 0.53857 0.01500
C 	C 	0.06544 0.52695 0.58053 -0.05700
O 	O 	0.95851 0.04834 0.74431 -0.37400
C 	C 	0.08836 0.45731 0.85532 -0.05900
O 	O 	0.00553 0.37459 0.79494 -0.38500
C 	C 	0.13110 0.44444 0.57573 -0.03500
O 	O 	0.14383 0.59088 0.67751 -0.36100
C 	C 	0.10725 0.45071 0.83361 -0.06000
C 	C 	0.04848 0.42643 0.53321 -0.00800
O 	O 	0.53175 0.20889 0.88806 -0.36400
O 	O 	0.77630 0.39795 0.91520 -0.70500
O 	O 	0.85005 0.65498 0.91704 -0.37400
O 	O 	0.35740 0.50921 0.90922 -0.38000
Ni	Ni	0.56865 0.34255 0.91418 1.09800
O 	O 	0.66735 0.12916 0.92103 -0.39500
H 	H 	0.81671 0.43005 0.93149 0.15800
O 	O 	0.36608 0.32237 0.91231 -0.37300
C 	C 	0.33024 0.40852 0.92129 0.28100
O 	O 	0.63484 0.64612 0.92833 -0.39800
C 	C 	0.75718 0.64345 0.93413 0.26500
C 	C 	0.60501 0.14598 0.94095 0.26300
H 	H 	0.93658 0.78767 0.96821 0.03300
H 	H 	0.39286 0.94149 0.94973 0.05500
H 	H 	0.13465 0.22247 0.94256 0.03700
O 	O 	0.53266 0.21644 0.94040 -0.37300
C 	C 	0.78322 0.61374 0.95946 -0.08100
C 	C 	0.47019 0.96715 0.96447 -0.06100
C 	C 	0.28553 0.40155 0.94690 -0.07000
C 	C 	0.19414 0.29202 0.95557 -0.02500
C 	C 	0.59148 0.06740 0.96188 -0.02700
C 	C 	0.87574 0.70061 0.97524 -0.02400
H 	H 	0.24634 0.77655 0.97481 0.05000
C 	C 	0.35906 0.49286 0.96374 -0.03400
H 	H 	0.03468 0.85124 0.00988 0.04800
H 	H 	0.42481 0.57911 0.95712 0.04900
H 	H 	0.62363 0.43872 0.95689 -0.01300
C 	C 	0.70075 0.50260 0.96875 -0.02600
C 	C 	0.32285 0.80588 0.98961 -0.05900
C 	C 	0.44647 0.90324 0.98643 0.04400
H 	H 	0.03681 0.08922 0.97699 0.04500
C 	C 	0.97146 0.76449 0.01663 -0.06200
C 	C 	0.88507 0.67635 0.00035 0.01200
C 	C 	0.10234 0.15754 0.98963 -0.03900
C 	C 	0.18759 0.26916 0.98086 0.01400
C 	C 	0.69088 0.10243 0.98099 -0.06200
H 	H 	0.78355 0.18091 0.97898 0.02800
C 	C 	0.71543 0.47486 0.99330 0.01000
C 	C 	0.35935 0.46880 0.98887 0.01700
