data_crystal

_cell_length_a 37.86198
_cell_length_b 39.28185
_cell_length_c 29.35403
_cell_angle_alpha 89.50677
_cell_angle_beta  90.00004
_cell_angle_gamma 89.99987

_symmetry_space_group_name_	'P 1'
_symmetry_space_group_name_H-M	'P 1'

loop_
_symmetry_equiv_pos_as_xyz
  x,y,z

loop_
_atom_site_label
_atom_site_type_symbol
_atom_site_fract_x
_atom_site_fract_y
_atom_site_fract_z
_atom_site_charge
C 	C 	0.48665 0.57276 0.88092 0.10700
N 	N 	0.47000 0.54261 0.88505 -0.17200
C 	C 	0.43853 0.54617 0.86415 0.10500
C 	C 	0.40859 0.52283 0.87297 -0.07200
C 	C 	0.41349 0.48558 0.86817 0.09500
C 	C 	0.37392 0.53665 0.88657 0.04400
C 	C 	0.36482 0.53825 0.93280 -0.04900
C 	C 	0.33082 0.54819 0.94560 -0.02700
C 	C 	0.30588 0.55718 0.91224 0.01700
C 	C 	0.34934 0.54655 0.85327 -0.04800
N 	N 	0.44520 0.47156 0.85910 -0.12500
C 	C 	0.39037 0.46142 0.88557 -0.05300
C 	C 	0.44217 0.43833 0.87024 0.09500
C 	C 	0.47332 0.41609 0.87753 -0.07200
C 	C 	0.46857 0.38092 0.89451 0.04400
C 	C 	0.45551 0.32152 0.88016 -0.02500
C 	C 	0.46919 0.37415 0.94146 -0.04900
C 	C 	0.46221 0.34131 0.95780 -0.02800
C 	C 	0.45489 0.31498 0.92722 0.01700
N 	N 	0.52282 0.45691 0.88542 -0.17100
C 	C 	0.55814 0.45485 0.88032 0.10400
C 	C 	0.56715 0.42509 0.85808 -0.05700
C 	C 	0.53581 0.40842 0.84920 -0.05600
C 	C 	0.58323 0.47584 0.90699 -0.07100
C 	C 	0.61963 0.46369 0.91529 0.04500
C 	C 	0.67999 0.45692 0.88911 -0.02400
C 	C 	0.69063 0.44845 0.93359 0.01900
C 	C 	0.66527 0.44564 0.96828 -0.02700
C 	C 	0.62981 0.45286 0.95901 -0.04800
N 	N 	0.55079 0.53020 0.89455 -0.12400
C 	C 	0.56499 0.55731 0.95942 -0.05600
C 	C 	0.54565 0.55846 0.91946 0.09300
C 	C 	0.51641 0.58258 0.91078 -0.07200
C 	C 	0.51863 0.61755 0.92856 0.04500
C 	C 	0.54351 0.64041 0.91053 -0.04800
C 	C 	0.54486 0.67386 0.92620 -0.02600
C 	C 	0.52141 0.68464 0.96013 0.01600
C 	C 	0.49707 0.66156 0.97895 -0.02500
C 	C 	0.49549 0.62817 0.96294 -0.05000
C 	C 	0.46572 0.59583 0.85724 -0.05700
C 	C 	0.43493 0.57883 0.84658 -0.05600
C 	C 	0.31565 0.55743 0.86611 -0.02500
C 	C 	0.40874 0.43120 0.88692 -0.05400
C 	C 	0.50914 0.42873 0.86643 0.10600
C 	C 	0.58332 0.52706 0.95880 -0.05400
C 	C 	0.57410 0.51133 0.91857 0.09300
C 	C 	0.64476 0.46525 0.88022 -0.04600
H 	H 	0.47502 0.52493 0.91107 0.09700
H 	H 	0.51034 0.47078 0.91103 0.09700
H 	H 	0.56385 0.69150 0.91169 0.05500
H 	H 	0.47905 0.66964 0.00542 0.05700
H 	H 	0.56149 0.63236 0.88401 0.05900
H 	H 	0.47626 0.61061 0.97708 0.05400
H 	H 	0.32365 0.54833 0.98133 0.05800
H 	H 	0.35625 0.54556 0.81749 0.05800
H 	H 	0.29679 0.56502 0.84019 0.05800
H 	H 	0.38377 0.53084 0.95871 0.05300
H 	H 	0.46211 0.33638 0.99417 0.05500
H 	H 	0.47442 0.39445 0.96528 0.05300
C 	C 	0.46185 0.35450 0.86389 -0.04900
H 	H 	0.45039 0.30122 0.85631 0.05900
H 	H 	0.69924 0.45828 0.86185 0.06600
H 	H 	0.63705 0.47332 0.84627 0.06100
H 	H 	0.61043 0.45095 0.98607 0.05300
H 	H 	0.67314 0.43851 0.00254 0.05800
H 	H 	0.46799 0.62325 0.85938 0.06100
H 	H 	0.40999 0.59122 0.83937 0.05900
H 	H 	0.36760 0.46692 0.90653 0.06100
H 	H 	0.40225 0.41000 0.90920 0.06100
H 	H 	0.59258 0.41261 0.86036 0.05900
H 	H 	0.53368 0.38130 0.84358 0.05900
H 	H 	0.55854 0.57120 0.99001 0.05800
H 	H 	0.59331 0.51410 0.98882 0.05700
H 	H 	0.46140 0.35957 0.82756 0.05800
Co	Co	0.39379 0.12052 0.00998 1.19000
Co	Co	0.39855 0.04071 0.01373 1.11900
O 	O 	0.39184 0.17221 0.00982 -0.34300
O 	O 	0.44145 0.15410 0.98579 -0.26300
O 	O 	0.34670 0.10533 0.03054 -0.38700
O 	O 	0.42733 0.06143 0.96436 -0.43100
C 	C 	0.33127 0.07815 0.01370 0.31800
C 	C 	0.42287 0.18052 0.99567 0.31300
O 	O 	0.34977 0.05537 0.99144 -0.38600
O 	O 	0.39132 0.10569 0.94750 -0.36100
C 	C 	0.41243 0.08140 0.93391 0.31900
O 	O 	0.41939 0.11280 0.06617 -0.35400
O 	O 	0.39624 0.05976 0.07576 -0.43700
C 	C 	0.41738 0.08413 0.08947 0.31300
S 	S 	0.47764 0.03274 0.56814 0.03100
C 	C 	0.49916 0.03101 0.61944 -0.01300
C 	C 	0.52858 0.00865 0.61810 -0.00400
S 	S 	0.53325 0.99079 0.56516 0.02200
C 	C 	0.49931 0.00574 0.53410 -0.00200
C 	C 	0.49859 0.00731 0.48416 -0.00300
S 	S 	0.51770 0.97894 0.44960 0.03000
C 	C 	0.52121 0.99910 0.39776 -0.01400
C 	C 	0.50821 0.03298 0.39939 -0.00600
S 	S 	0.49334 0.04292 0.45297 0.02500
C 	C 	0.53332 0.95153 0.26836 0.02400
C 	C 	0.49951 0.95565 0.28708 0.01200
C 	C 	0.49555 0.96994 0.33026 -0.01900
C 	C 	0.52539 0.97997 0.35512 0.03600
C 	C 	0.55924 0.97369 0.33772 -0.03400
C 	C 	0.56321 0.95937 0.29452 0.00100
H 	H 	0.47633 0.94869 0.26764 0.10400
H 	H 	0.46931 0.97416 0.34382 0.09000
H 	H 	0.58242 0.98090 0.35698 0.06200
H 	H 	0.58943 0.95538 0.28081 0.07300
C 	C 	0.47376 0.07494 0.27291 0.03700
C 	C 	0.50940 0.06602 0.27868 0.00100
C 	C 	0.52172 0.05561 0.32144 -0.01800
C 	C 	0.49820 0.05290 0.35827 0.03400
C 	C 	0.46390 0.06628 0.35379 -0.01900
C 	C 	0.45223 0.07852 0.31150 -0.00100
H 	H 	0.52715 0.06594 0.24978 0.11700
H 	H 	0.54903 0.04791 0.32534 0.07200
H 	H 	0.44580 0.06581 0.38235 0.06700
H 	H 	0.42580 0.08875 0.30821 0.08800
C 	C 	0.45644 0.05961 0.74823 0.02500
C 	C 	0.44980 0.02704 0.73098 0.01200
C 	C 	0.46259 0.01805 0.68804 -0.01600
C 	C 	0.48192 0.04164 0.66200 0.03600
C 	C 	0.48632 0.07496 0.67782 -0.03300
C 	C 	0.47340 0.08400 0.72071 0.00200
H 	H 	0.43565 0.00842 0.75140 0.10500
H 	H 	0.45839 0.99248 0.67559 0.08900
H 	H 	0.50066 0.09352 0.65753 0.06200
H 	H 	0.47764 0.10954 0.73320 0.07400
C 	C 	0.55977 0.96684 0.74605 0.03400
C 	C 	0.56236 0.00209 0.73845 0.00200
C 	C 	0.55577 0.01566 0.69511 -0.01700
C 	C 	0.54547 0.99416 0.65951 0.03100
C 	C 	0.54786 0.95869 0.66570 -0.01800
C 	C 	0.55638 0.94514 0.70856 -0.00100
H 	H 	0.56799 0.01903 0.76642 0.11700
H 	H 	0.55674 0.04297 0.68985 0.07200
H 	H 	0.54154 0.94163 0.63809 0.06600
H 	H 	0.55797 0.91781 0.71321 0.08500
Co	Co	0.58389 0.88230 0.00961 1.18900
Co	Co	0.50234 0.89371 0.00090 1.11600
O 	O 	0.63671 0.87392 0.01411 -0.33900
O 	O 	0.62282 0.92333 0.03804 -0.26500
O 	O 	0.56377 0.83983 0.98566 -0.39800
O 	O 	0.52318 0.91873 0.05287 -0.43900
C 	C 	0.53550 0.82583 0.00384 0.32200
C 	C 	0.64786 0.90160 0.03218 0.30900
O 	O 	0.51108 0.84485 0.02276 -0.38200
O 	O 	0.56512 0.87984 0.07071 -0.36800
C 	C 	0.54201 0.90256 0.08371 0.32500
O 	O 	0.58130 0.90924 0.95433 -0.35200
O 	O 	0.52517 0.89176 0.94030 -0.44000
C 	C 	0.55252 0.91077 0.92938 0.30600
Co	Co	0.09677 0.60840 0.96735 1.19300
Co	Co	0.01682 0.59360 0.98520 1.11000
O 	O 	0.14916 0.61878 0.96038 -0.33100
O 	O 	0.14002 0.56600 0.97256 -0.24700
O 	O 	0.07152 0.65197 0.95910 -0.36400
O 	O 	0.02451 0.60515 0.91989 -0.40700
C 	C 	0.04816 0.66244 0.98910 0.32000
C 	C 	0.16347 0.58938 0.96659 0.31800
O 	O 	0.02840 0.64036 0.01143 -0.41100
O 	O 	0.08097 0.58555 0.91293 -0.39300
C 	C 	0.04940 0.59067 0.89571 0.32100
O 	O 	0.09187 0.60424 0.03233 -0.37800
O 	O 	0.04954 0.56478 0.02139 -0.44000
C 	C 	0.07261 0.57925 0.04834 0.33400
S 	S 	0.00107 0.53072 0.52924 0.02900
C 	C 	0.00647 0.50806 0.57884 -0.01500
C 	C 	0.99485 0.47395 0.57455 -0.00800
S 	S 	0.97944 0.46633 0.52063 0.02800
C 	C 	0.98240 0.50360 0.49256 -0.00600
C 	C 	0.98488 0.50671 0.44295 -0.00400
S 	S 	0.96577 0.47921 0.40714 0.03000
C 	C 	0.99094 0.47993 0.35885 -0.01200
C 	C 	0.01998 0.50241 0.36277 -0.00800
S 	S 	0.02081 0.52121 0.41535 0.02500
C 	C 	0.95698 0.44490 0.22886 0.02500
C 	C 	0.94942 0.47829 0.24227 0.01300
C 	C 	0.95975 0.48955 0.28526 -0.01700
C 	C 	0.97745 0.46740 0.31518 0.03600
C 	C 	0.98295 0.43340 0.30292 -0.03200
C 	C 	0.97247 0.42209 0.25997 0.00300
H 	H 	0.93630 0.49569 0.21898 0.10200
H 	H 	0.95475 0.51567 0.29492 0.08700
H 	H 	0.99600 0.41598 0.32625 0.06400
H 	H 	0.97726 0.39592 0.25041 0.07700
C 	C 	0.06040 0.54281 0.23816 0.03200
C 	C 	0.06325 0.50782 0.24745 0.00400
C 	C 	0.05312 0.49488 0.28997 -0.02000
C 	C 	0.03900 0.51671 0.32293 0.03600
C 	C 	0.03974 0.55208 0.31524 -0.02300
C 	C 	0.05142 0.56510 0.27340 0.00100
H 	H 	0.07193 0.49053 0.22116 0.10900
H 	H 	0.05449 0.46772 0.29641 0.07300
H 	H 	0.02981 0.56937 0.34075 0.06500
H 	H 	0.05152 0.59235 0.26749 0.08500
C 	C 	0.02214 0.54867 0.71160 0.02300
C 	C 	0.98778 0.54486 0.69452 -0.00100
C 	C 	0.98256 0.53280 0.65036 -0.03400
C 	C 	0.01171 0.52488 0.62288 0.03500
C 	C 	0.04601 0.53064 0.63900 -0.03500
C 	C 	0.05122 0.54250 0.68324 -0.00100
H 	H 	0.96518 0.55035 0.71587 0.07800
H 	H 	0.95596 0.52867 0.63798 0.06200
H 	H 	0.06862 0.52487 0.61781 0.06400
H 	H 	0.07783 0.54608 0.69589 0.07300
C 	C 	0.96113 0.42390 0.69655 0.04800
C 	C 	0.99629 0.43477 0.69204 0.00600
C 	C 	0.00840 0.44778 0.65045 -0.01500
C 	C 	0.98481 0.45238 0.61403 0.03100
C 	C 	0.95036 0.43933 0.61755 -0.02700
C 	C 	0.93888 0.42447 0.65831 -0.01700
H 	H 	0.01375 0.43452 0.72117 0.14400
H 	H 	0.03556 0.45615 0.64739 0.07800
H 	H 	0.93193 0.44215 0.58957 0.05900
H 	H 	0.91194 0.41538 0.66106 0.07300
Co	Co	0.90015 0.38329 0.96486 1.18800
Co	Co	0.90846 0.46185 0.96401 1.11900
O 	O 	0.89663 0.33186 0.95918 -0.34500
O 	O 	0.94621 0.34694 0.98688 -0.28600
O 	O 	0.85442 0.40177 0.94408 -0.37300
O 	O 	0.93540 0.43840 0.01305 -0.44800
C 	C 	0.83921 0.42741 0.96488 0.33700
C 	C 	0.92709 0.32184 0.97338 0.30700
O 	O 	0.85849 0.45043 0.98559 -0.37900
O 	O 	0.89749 0.39543 0.02809 -0.36300
C 	C 	0.91884 0.41905 0.04282 0.31900
O 	O 	0.92769 0.39467 0.91174 -0.41700
O 	O 	0.90513 0.44782 0.89934 -0.38000
C 	C 	0.91832 0.41924 0.88367 0.32200
C 	C 	0.97449 0.92229 0.07298 0.10500
N 	N 	0.95986 0.95317 0.06604 -0.17200
C 	C 	0.92726 0.95184 0.08439 0.10500
C 	C 	0.89898 0.97623 0.07165 -0.07200
C 	C 	0.90632 0.01322 0.07068 0.09500
C 	C 	0.86249 0.96401 0.06439 0.04400
C 	C 	0.85483 0.94238 0.02792 -0.04900
C 	C 	0.82020 0.93131 0.02068 -0.02700
C 	C 	0.79302 0.94195 0.04974 0.01700
C 	C 	0.83535 0.97432 0.09373 -0.04700
N 	N 	0.93621 0.02686 0.08748 -0.12400
C 	C 	0.88841 0.03635 0.04347 -0.05500
C 	C 	0.93697 0.05915 0.07153 0.09400
C 	C 	0.96933 0.08029 0.07230 -0.07200
C 	C 	0.96768 0.11642 0.05829 0.04500
C 	C 	0.95444 0.17520 0.07632 -0.02400
C 	C 	0.97164 0.12546 0.01226 -0.05000
C 	C 	0.96573 0.15902 0.99804 -0.02700
C 	C 	0.95640 0.18387 0.02990 0.01700
N 	N 	0.01659 0.03679 0.06952 -0.17200
C 	C 	0.05109 0.03615 0.08065 0.10400
C 	C 	0.05975 0.06434 0.10645 -0.05600
C 	C 	0.02905 0.08307 0.11084 -0.05700
C 	C 	0.07707 0.01441 0.05673 -0.06900
C 	C 	0.11388 0.02613 0.04962 0.04300
C 	C 	0.17692 0.01646 0.05726 -0.02800
C 	C 	0.18374 0.04741 0.03478 0.01700
C 	C 	0.15550 0.06789 0.02012 -0.02600
C 	C 	0.12069 0.05696 0.02668 -0.04900
N 	N 	0.04250 0.96116 0.06650 -0.12400
C 	C 	0.05550 0.93556 0.00011 -0.05600
C 	C 	0.03581 0.93424 0.03974 0.09300
C 	C 	0.00621 0.91053 0.04795 -0.07200
C 	C 	0.01115 0.87401 0.03836 0.04500
C 	C 	0.02309 0.85192 0.07285 -0.04900
C 	C 	0.02840 0.81746 0.06368 -0.02700
C 	C 	0.02252 0.80495 0.01971 0.01700
C 	C 	0.01144 0.82724 0.98490 -0.02400
C 	C 	0.00520 0.86154 0.99441 -0.04900
C 	C 	0.95117 0.90101 0.09588 -0.05800
C 	C 	0.92100 0.91993 0.10326 -0.05600
C 	C 	0.80076 0.96329 0.08647 -0.02600
C 	C 	0.90804 0.06583 0.04398 -0.05300
C 	C 	0.00311 0.06529 0.08777 0.10600
C 	C 	0.07569 0.96463 0.00286 -0.05600
C 	C 	0.06725 0.97937 0.04404 0.09100
C 	C 	0.14217 0.00598 0.06493 -0.04400
H 	H 	0.96737 0.97001 0.04004 0.09700
H 	H 	0.00578 0.02432 0.04145 0.09700
H 	H 	0.03723 0.80049 0.09066 0.05500
H 	H 	0.00737 0.81792 0.95068 0.06000
H 	H 	0.02805 0.86145 0.10678 0.05800
H 	H 	0.99609 0.87848 0.96756 0.05400
H 	H 	0.81444 0.91466 0.99239 0.05600
H 	H 	0.84109 0.99087 0.12212 0.05900
H 	H 	0.77992 0.97142 0.10921 0.05900
H 	H 	0.87566 0.93427 0.00515 0.05400
H 	H 	0.96782 0.16560 0.96222 0.05600
H 	H 	0.97817 0.10626 0.98736 0.05400
C 	C 	0.95948 0.14145 0.09036 -0.04800
H 	H 	0.94805 0.19440 0.10127 0.05900
H 	H 	0.19857 0.00062 0.06897 0.05500
H 	H 	0.13723 0.98221 0.08280 0.05700
H 	H 	0.09905 0.07250 0.01423 0.05400
H 	H 	0.16053 0.09204 0.00325 0.05800
H 	H 	0.95186 0.87348 0.09517 0.05900
H 	H 	0.89511 0.90911 0.10930 0.05800
H 	H 	0.87001 0.02962 0.01678 0.06200
H 	H 	0.90702 0.08530 0.01771 0.06000
H 	H 	0.08610 0.07454 0.11058 0.05900
H 	H 	0.02824 0.11003 0.11807 0.05800
H 	H 	0.04850 0.92311 0.96863 0.05700
H 	H 	0.08668 0.97813 0.97383 0.05900
H 	H 	0.95658 0.13468 0.12601 0.05900
C 	C 	0.94854 0.21894 0.01460 0.01400
C 	C 	0.91372 0.23162 0.01542 0.03100
C 	C 	0.90704 0.26528 0.00206 0.00100
C 	C 	0.93458 0.28619 0.98623 -0.07200
C 	C 	0.96908 0.27279 0.98287 0.08400
C 	C 	0.97597 0.23960 0.99809 -0.06400
H 	H 	0.88036 0.27515 0.00389 0.07500
H 	H 	0.00261 0.22959 0.99625 0.07100
I 	I 	0.87039 0.20000 0.03401 -0.05700
I 	I 	0.01055 0.30049 0.95067 -0.00300
C 	C 	0.91752 0.43736 0.75703 0.02500
C 	C 	0.94600 0.41736 0.74236 0.09600
C 	C 	0.96079 0.39290 0.77258 -0.12600
C 	C 	0.95201 0.39426 0.81906 0.08900
C 	C 	0.92444 0.41538 0.83408 -0.00800
C 	C 	0.90425 0.43375 0.80140 -0.06800
C 	C 	0.86828 0.44854 0.81272 0.77600
H 	H 	0.90549 0.45551 0.73372 0.08800
H 	H 	0.96659 0.37888 0.84345 0.08800
C 	C 	0.98569 0.36537 0.75602 0.79000
F 	F 	0.84759 0.45103 0.77394 -0.43700
F 	F 	0.87232 0.48078 0.83055 -0.44300
F 	F 	0.85045 0.42803 0.84364 -0.44200
F 	F 	0.02015 0.37682 0.75840 -0.42500
F 	F 	0.97809 0.35618 0.71168 -0.43600
F 	F 	0.98260 0.33644 0.78301 -0.42700
C 	C 	0.91347 0.42503 0.17197 0.00000
C 	C 	0.94839 0.43387 0.18221 0.08900
C 	C 	0.97417 0.43465 0.14730 -0.13400
C 	C 	0.96422 0.42641 0.10264 0.07300
C 	C 	0.92870 0.42051 0.09153 -0.02100
C 	C 	0.90282 0.41976 0.12663 -0.07100
C 	C 	0.86406 0.41330 0.11618 0.77300
H 	H 	0.89431 0.42354 0.19934 0.09200
H 	H 	0.98390 0.42591 0.07586 0.08300
C 	C 	0.01171 0.44622 0.15707 0.78700
F 	F 	0.84293 0.41830 0.15404 -0.43500
F 	F 	0.85962 0.38003 0.10223 -0.43200
F 	F 	0.85242 0.43531 0.08237 -0.44500
F 	F 	0.02698 0.42522 0.18956 -0.45100
F 	F 	0.01126 0.47926 0.17283 -0.43700
F 	F 	0.03273 0.44547 0.11849 -0.43400
C 	C 	0.02900 0.76870 0.00990 0.01700
C 	C 	0.00067 0.74621 0.00215 0.03000
C 	C 	0.00742 0.71177 0.99406 0.00800
C 	C 	0.04209 0.69915 0.99530 -0.07500
C 	C 	0.07034 0.72149 0.00445 0.09100
C 	C 	0.06370 0.75620 0.01061 -0.06600
H 	H 	0.98558 0.69464 0.98756 0.06000
H 	H 	0.08547 0.77335 0.01733 0.07100
I 	I 	0.94734 0.76292 0.00553 -0.07000
I 	I 	0.12272 0.70332 0.01424 -0.03700
C 	C 	0.03584 0.54599 0.83969 0.07300
C 	C 	0.04200 0.58044 0.84866 -0.02600
C 	C 	0.04125 0.60468 0.81273 -0.06700
C 	C 	0.03346 0.59382 0.76830 -0.00200
C 	C 	0.02777 0.55927 0.75919 0.08700
C 	C 	0.02891 0.53499 0.79513 -0.14000
C 	C 	0.02298 0.49742 0.78594 0.79000
H 	H 	0.03653 0.52779 0.86762 0.06300
H 	H 	0.03218 0.61212 0.74052 0.09100
C 	C 	0.04845 0.64206 0.82181 0.77200
F 	F 	0.02587 0.47780 0.82517 -0.44300
F 	F 	0.04786 0.48601 0.75516 -0.45400
F 	F 	0.98952 0.49263 0.76826 -0.46700
F 	F 	0.08045 0.64562 0.84404 -0.43800
F 	F 	0.02184 0.65519 0.84874 -0.43600
F 	F 	0.04995 0.66103 0.78189 -0.43500
C 	C 	0.09697 0.55352 0.16934 0.00300
C 	C 	0.06391 0.55553 0.19076 0.09800
C 	C 	0.03401 0.56680 0.16555 -0.12800
C 	C 	0.03839 0.57681 0.11988 0.08700
C 	C 	0.07086 0.57275 0.09778 -0.02500
C 	C 	0.10058 0.56086 0.12252 -0.05500
C 	C 	0.13590 0.55548 0.09908 0.77000
H 	H 	0.11966 0.54527 0.18903 0.09400
H 	H 	0.01624 0.58729 0.10100 0.04700
C 	C 	0.99783 0.57019 0.18761 0.79600
F 	F 	0.16040 0.54048 0.12794 -0.43000
F 	F 	0.14932 0.58647 0.08458 -0.43600
F 	F 	0.13163 0.53441 0.06198 -0.42600
F 	F 	0.99692 0.59928 0.21373 -0.45400
F 	F 	0.99029 0.54227 0.21478 -0.44300
F 	F 	0.97140 0.57253 0.15513 -0.44700
C 	C 	0.75651 0.93045 0.04214 0.01200
C 	C 	0.73272 0.95053 0.01664 0.03700
C 	C 	0.69734 0.94062 0.01306 -0.00100
C 	C 	0.68545 0.91071 0.03453 -0.06400
C 	C 	0.70940 0.89035 0.05945 0.08000
C 	C 	0.74479 0.90023 0.06288 -0.06400
H 	H 	0.67905 0.95626 0.99370 0.11100
H 	H 	0.76305 0.88482 0.08264 0.06800
I 	I 	0.74947 0.99599 0.98341 -0.02800
I 	I 	0.69245 0.84594 0.09513 -0.03100
C 	C 	0.58363 0.96089 0.82487 0.01400
C 	C 	0.55697 0.95320 0.79334 0.10000
C 	C 	0.52675 0.93476 0.80830 -0.12500
C 	C 	0.52713 0.91949 0.85169 0.07600
C 	C 	0.55339 0.92773 0.88365 -0.01400
C 	C 	0.57995 0.95172 0.87110 -0.06200
C 	C 	0.60292 0.96918 0.90634 0.77800
H 	H 	0.60644 0.97546 0.81381 0.09100
H 	H 	0.50646 0.90164 0.86089 0.07300
C 	C 	0.49423 0.93055 0.77845 0.79500
F 	F 	0.61622 0.99959 0.88941 -0.41500
F 	F 	0.63108 0.94839 0.91780 -0.44200
F 	F 	0.58356 0.97671 0.94498 -0.42800
F 	F 	0.49870 0.90295 0.75015 -0.45400
F 	F 	0.48789 0.95938 0.75248 -0.44400
F 	F 	0.46450 0.92491 0.80493 -0.44100
C 	C 	0.54253 0.94953 0.13949 0.07400
C 	C 	0.54165 0.91440 0.13141 -0.02000
C 	C 	0.53852 0.89127 0.16864 -0.07100
C 	C 	0.53785 0.90406 0.21332 0.00100
C 	C 	0.53737 0.93920 0.22113 0.08800
C 	C 	0.53954 0.96229 0.18391 -0.13300
C 	C 	0.53674 0.00040 0.19128 0.78700
H 	H 	0.54501 0.96694 0.11084 0.08900
H 	H 	0.53703 0.88669 0.24218 0.09100
C 	C 	0.53682 0.85306 0.16116 0.77400
F 	F 	0.54033 0.01867 0.15100 -0.42500
F 	F 	0.56291 0.01102 0.22076 -0.45500
F 	F 	0.50404 0.00784 0.20952 -0.44000
F 	F 	0.56982 0.84128 0.14879 -0.43200
F 	F 	0.51269 0.84544 0.12735 -0.44500
F 	F 	0.52642 0.83587 0.20030 -0.43500
C 	C 	0.29288 0.07353 0.01882 -0.07600
C 	C 	0.27670 0.07480 0.06210 0.08100
C 	C 	0.24051 0.06830 0.06630 -0.06600
C 	C 	0.22052 0.05885 0.02824 0.01200
C 	C 	0.23669 0.05738 0.98506 0.03300
C 	C 	0.27255 0.06530 0.98048 -0.00300
H 	H 	0.22820 0.06915 0.09960 0.07000
H 	H 	0.28487 0.06419 0.94720 0.10500
I 	I 	0.30658 0.08258 0.12255 -0.04600
I 	I 	0.20837 0.04103 0.92668 -0.04300
C 	C 	0.41077 0.07669 0.80428 0.00200
C 	C 	0.44598 0.06797 0.79540 0.08800
C 	C 	0.47043 0.06542 0.83178 -0.13100
C 	C 	0.45927 0.07309 0.87616 0.07200
C 	C 	0.42357 0.07948 0.88563 -0.01700
C 	C 	0.39872 0.08065 0.84933 -0.07200
C 	C 	0.35956 0.08602 0.85821 0.77400
H 	H 	0.39252 0.07925 0.77602 0.09100
H 	H 	0.47813 0.07279 0.90392 0.09400
C 	C 	0.50741 0.05172 0.82395 0.78600
F 	F 	0.33956 0.08024 0.81954 -0.43600
F 	F 	0.35376 0.11918 0.87175 -0.43400
F 	F 	0.34780 0.06379 0.89171 -0.45200
F 	F 	0.52513 0.07203 0.79278 -0.45500
F 	F 	0.50516 0.01893 0.80758 -0.44000
F 	F 	0.52710 0.05078 0.86369 -0.42100
C 	C 	0.47391 0.10016 0.19483 0.01400
C 	C 	0.45852 0.07755 0.22636 0.09900
C 	C 	0.43076 0.05579 0.21192 -0.12200
C 	C 	0.41588 0.06094 0.16862 0.07800
C 	C 	0.43246 0.08209 0.13624 -0.01300
C 	C 	0.46357 0.10005 0.14876 -0.06100
C 	C 	0.48611 0.11871 0.11374 0.77700
H 	H 	0.49502 0.11681 0.20584 0.09300
H 	H 	0.39178 0.04770 0.15967 0.07900
C 	C 	0.41620 0.02751 0.24228 0.79400
F 	F 	0.51982 0.12448 0.13027 -0.41700
F 	F 	0.47091 0.14984 0.10345 -0.43600
F 	F 	0.48950 0.09975 0.07445 -0.43000
F 	F 	0.39107 0.04067 0.27139 -0.45200
F 	F 	0.44261 0.01201 0.26743 -0.44100
F 	F 	0.40039 0.00246 0.21636 -0.43800
C 	C 	0.44654 0.28057 0.94453 0.01300
C 	C 	0.41161 0.26824 0.94393 0.03200
C 	C 	0.40430 0.23541 0.96019 -0.00200
C 	C 	0.43136 0.21495 0.97836 -0.06800
C 	C 	0.46616 0.22784 0.98045 0.07800
C 	C 	0.47358 0.26027 0.96278 -0.06300
H 	H 	0.37747 0.22586 0.95888 0.07600
H 	H 	0.50035 0.26998 0.96403 0.06900
I 	I 	0.36907 0.29917 0.92076 -0.05800
I 	I 	0.50751 0.20062 0.01360 0.05500
C 	C 	0.19999 0.58164 0.95245 -0.06200
C 	C 	0.22826 0.60343 0.96379 0.09000
C 	C 	0.26254 0.59565 0.94929 -0.06500
C 	C 	0.26932 0.56550 0.92559 0.01600
C 	C 	0.24137 0.54293 0.91620 0.03300
C 	C 	0.20688 0.55145 0.92873 0.00300
H 	H 	0.28412 0.61266 0.95750 0.07000
H 	H 	0.18542 0.53431 0.92053 0.08200
I 	I 	0.22102 0.64610 0.00687 -0.00500
I 	I 	0.25068 0.49469 0.88616 -0.04700
C 	C 	0.72844 0.44355 0.94410 0.02000
C 	C 	0.75222 0.47113 0.94200 0.03400
C 	C 	0.78830 0.46551 0.94883 0.01600
C 	C 	0.80088 0.43288 0.95995 -0.06200
C 	C 	0.77672 0.40579 0.96554 0.09800
C 	C 	0.74083 0.41109 0.95640 -0.06200
H 	H 	0.80661 0.48659 0.94554 0.06700
H 	H 	0.72244 0.39005 0.95954 0.07300
I 	I 	0.73423 0.52190 0.93168 -0.05600
I 	I 	0.79277 0.35782 0.99257 -0.00500
C 	C 	0.52913 0.78930 0.99782 -0.07800
C 	C 	0.55220 0.76500 0.01706 0.08900
C 	C 	0.54856 0.73062 0.00592 -0.06700
C 	C 	0.52219 0.72023 0.97552 0.01600
C 	C 	0.49833 0.74437 0.95755 0.02800
C 	C 	0.50171 0.77869 0.96916 0.00300
H 	H 	0.56669 0.71203 0.02019 0.07100
H 	H 	0.48382 0.79732 0.95447 0.05100
I 	I 	0.59245 0.77944 0.06350 0.00600
I 	I 	0.45814 0.73006 0.91094 -0.07300
