data_crystal

_cell_length_a 15.59356
_cell_length_b 16.31284
_cell_length_c 49.20605
_cell_angle_alpha 90.20434
_cell_angle_beta  90.21616
_cell_angle_gamma 119.40603

_symmetry_space_group_name_	'P 1'
_symmetry_space_group_name_H-M	'P 1'

loop_
_symmetry_equiv_pos_as_xyz
  x,y,z

loop_
_atom_site_label
_atom_site_type_symbol
_atom_site_fract_x
_atom_site_fract_y
_atom_site_fract_z
_atom_site_charge
C 	C 	0.48853 0.18995 0.96789 0.28800
C 	C 	0.48664 0.15073 0.89462 0.32700
Ni	Ni	0.54960 0.33348 0.91981 1.11700
O 	O 	0.45911 0.22694 0.94804 -0.36200
O 	O 	0.57812 0.20127 0.96863 -0.39100
O 	O 	0.60592 0.43948 0.89033 -0.34900
O 	O 	0.52393 0.23922 0.88907 -0.36500
O 	O 	0.51584 0.12496 0.91662 -0.37700
O 	O 	0.59822 0.44313 0.94707 -0.37000
C 	C 	0.52170 0.27347 0.66995 0.32200
C 	C 	0.47825 0.29249 0.59421 0.29000
Ni	Ni	0.58209 0.20122 0.62470 1.12100
O 	O 	0.60370 0.16081 0.58794 -0.37900
O 	O 	0.53042 0.34381 0.65487 -0.35000
O 	O 	0.46852 0.22051 0.60978 -0.35600
O 	O 	0.54673 0.38065 0.59913 -0.37300
O 	O 	0.56816 0.22840 0.66340 -0.38900
C 	C 	0.20633 0.06637 0.74347 0.28200
C 	C 	0.17996 0.03350 0.81888 0.26400
Ni	Ni	0.07974 0.10299 0.77814 1.12300
Ni	Ni	0.06484 0.90202 0.77558 1.13500
O 	O 	0.14325 0.09707 0.74386 -0.38300
O 	O 	0.12293 0.94372 0.81247 -0.32400
O 	O 	0.18737 0.10344 0.80288 -0.34300
O 	O 	0.19630 0.99857 0.75988 -0.31600
C 	C 	0.17982 0.54471 0.44080 0.28800
C 	C 	0.42732 0.83064 0.36688 0.32400
C 	C 	0.27245 0.51915 0.36983 0.31800
C 	C 	0.36598 0.87092 0.43267 0.28400
C 	C 	0.57724 0.68566 0.39933 0.32400
C 	C 	0.48053 0.67901 0.47052 0.29200
Ni	Ni	0.27069 0.68460 0.39711 1.11600
Ni	Ni	0.49476 0.79559 0.42057 1.12300
Ni	Ni	0.37657 0.57150 0.42200 1.12400
O 	O 	0.16802 0.60571 0.42590 -0.35400
O 	O 	0.22788 0.50190 0.43094 -0.35800
O 	O 	0.55074 0.74712 0.39297 -0.37900
O 	O 	0.37254 0.74058 0.36692 -0.36500
O 	O 	0.47962 0.87156 0.38896 -0.36000
O 	O 	0.40955 0.59783 0.46107 -0.38800
O 	O 	0.21633 0.55509 0.37682 -0.33600
O 	O 	0.35730 0.54789 0.38174 -0.37100
O 	O 	0.53964 0.74930 0.45393 -0.37100
O 	O 	0.30073 0.81940 0.41304 -0.34900
O 	O 	0.42423 0.84355 0.44383 -0.38100
O 	O 	0.52165 0.61427 0.41525 -0.36600
O 	O 	0.36955 0.68444 0.41934 -0.71000
H 	H 	0.34487 0.68625 0.43748 0.16100
C 	C 	0.48801 0.76013 0.19079 0.31500
C 	C 	0.34963 0.56186 0.08845 0.30300
C 	C 	0.45235 0.80367 0.11667 0.28400
C 	C 	0.25569 0.43536 0.16217 0.29400
C 	C 	0.15550 0.69580 0.11662 0.30900
C 	C 	0.12246 0.60521 0.17929 0.30000
Ni	Ni	0.42566 0.62457 0.14385 1.11200
Ni	Ni	0.19500 0.54742 0.12773 1.11800
Ni	Ni	0.30981 0.74719 0.16040 1.12300
O 	O 	0.47192 0.67807 0.18218 -0.37100
O 	O 	0.41877 0.78464 0.18910 -0.34800
O 	O 	0.19286 0.64816 0.10644 -0.40800
O 	O 	0.39955 0.55173 0.10794 -0.37800
O 	O 	0.25577 0.53528 0.09185 -0.36000
O 	O 	0.21311 0.66206 0.18702 -0.37400
O 	O 	0.49840 0.75711 0.12456 -0.36800
O 	O 	0.41321 0.83463 0.13464 -0.36500
O 	O 	0.10084 0.54388 0.15841 -0.36200
O 	O 	0.35320 0.49024 0.16176 -0.34000
O 	O 	0.20030 0.43333 0.14153 -0.35900
O 	O 	0.19662 0.74798 0.13844 -0.37200
O 	O 	0.31085 0.63438 0.14717 -0.70500
H 	H 	0.29412 0.60204 0.16470 0.14600
C 	C 	0.05400 0.84046 0.24094 0.33700
C 	C 	0.16415 0.17932 0.31182 0.32500
C 	C 	0.16532 0.90940 0.30973 0.31900
C 	C 	0.07582 0.15180 0.24289 0.30400
Ni	Ni	0.15303 0.03819 0.27008 1.09800
O 	O 	0.13755 0.91898 0.24781 -0.33800
O 	O 	0.20276 0.16991 0.28907 -0.34700
O 	O 	0.08332 0.10833 0.32059 -0.37800
O 	O 	0.19063 0.99689 0.30536 -0.33300
O 	O 	0.08463 0.84091 0.29845 -0.35900
O 	O 	0.11262 0.09493 0.23864 -0.36800
O 	O 	0.03536 0.15469 0.26678 -0.34200
O 	O 	0.01852 0.97706 0.27875 -0.66600
H 	H 	0.98913 0.96766 0.26049 0.16300
C 	C 	0.09290 0.20060 0.19490 -0.02300
C 	C 	0.09862 0.22587 0.22243 -0.05800
C 	C 	0.15305 0.32213 0.22979 0.11000
C 	C 	0.20992 0.38933 0.21020 -0.02500
C 	C 	0.21030 0.36230 0.18313 -0.06500
C 	C 	0.15089 0.26722 0.17547 0.10400
N 	N 	0.15170 0.23744 0.14809 -0.01800
H 	H 	0.05049 0.12718 0.18896 0.08700
H 	H 	0.25081 0.46314 0.21586 0.08300
N 	N 	0.14919 0.35239 0.25688 -0.01900
O 	O 	0.23441 0.25531 0.13682 -0.09200
O 	O 	0.06920 0.18701 0.13508 -0.09600
O 	O 	0.23048 0.40935 0.26953 -0.07100
C 	C 	0.56296 0.80390 0.21220 -0.07000
C 	C 	0.54790 0.75946 0.23777 0.11400
N 	N 	0.45146 0.68766 0.24558 -0.02000
O 	O 	0.43914 0.60951 0.25605 -0.07100
O 	O 	0.37661 0.70178 0.24315 -0.06500
C 	C 	0.05525 0.68977 0.23685 -0.01700
C 	C 	0.05815 0.76806 0.22405 -0.07800
C 	C 	0.03685 0.76265 0.19608 0.11000
C 	C 	0.02372 0.68410 0.18104 -0.03400
C 	C 	0.04615 0.61838 0.19275 -0.06500
C 	C 	0.04338 0.61213 0.22131 0.10400
N 	N 	0.04471 0.53417 0.23435 -0.01100
H 	H 	0.06031 0.68843 0.25881 0.07200
H 	H 	0.01112 0.68275 0.15956 0.07400
N 	N 	0.02859 0.83662 0.18285 -0.01300
O 	O 	0.09532 0.54721 0.25660 -0.06900
O 	O 	0.99770 0.45054 0.22350 -0.10600
O 	O 	0.10026 0.92297 0.18453 -0.07100
C 	C 	0.67486 0.70431 0.39083 -0.07800
C 	C 	0.68428 0.67870 0.36415 0.10300
N 	N 	0.61267 0.58906 0.35319 -0.02200
O 	O 	0.58859 0.58072 0.32757 -0.08600
O 	O 	0.57351 0.51518 0.36867 -0.08900
C 	C 	0.31341 0.43340 0.33502 -0.02200
C 	C 	0.24091 0.44545 0.34856 -0.06300
C 	C 	0.14143 0.37556 0.34586 0.10400
C 	C 	0.11711 0.29112 0.33241 -0.00900
C 	C 	0.19125 0.27418 0.32221 -0.07600
C 	C 	0.28988 0.34687 0.32296 0.11900
N 	N 	0.36682 0.33213 0.31255 -0.02000
H 	H 	0.38953 0.48880 0.33575 0.09700
H 	H 	0.04038 0.23761 0.33051 0.05700
N 	N 	0.06506 0.38866 0.35742 -0.01800
O 	O 	0.42141 0.38383 0.29276 -0.07200
O 	O 	0.38821 0.27338 0.32450 -0.08400
O 	O 	0.02306 0.34607 0.37983 -0.08700
C 	C 	0.36005 0.93819 0.36006 -0.02400
C 	C 	0.39600 0.88252 0.34851 -0.08000
C 	C 	0.36326 0.84533 0.32214 0.10600
C 	C 	0.28098 0.84612 0.31068 -0.02600
C 	C 	0.23521 0.88946 0.32448 -0.07300
C 	C 	0.27598 0.93659 0.34929 0.10700
N 	N 	0.23118 0.98196 0.36381 -0.00100
H 	H 	0.38960 0.97364 0.37912 0.08300
H 	H 	0.25445 0.81515 0.29076 0.07600
N 	N 	0.40566 0.79624 0.30849 -0.02100
O 	O 	0.13900 0.93442 0.37067 -0.06300
O 	O 	0.28423 0.06889 0.37182 -0.11900
O 	O 	0.35069 0.70822 0.30176 -0.06600
O 	O 	0.50033 0.83707 0.30488 -0.07700
C 	C 	0.60879 0.07215 0.51146 -0.07500
C 	C 	0.59378 0.13830 0.49712 0.01000
C 	C 	0.64343 0.23321 0.50566 -0.00400
C 	C 	0.52333 0.10616 0.47391 0.01900
S 	S 	0.64126 0.32144 0.48574 -0.03100
H 	H 	0.57635 0.00034 0.50402 0.04800
C 	C 	0.55571 0.10187 0.44753 0.00400
C 	C 	0.48882 0.03772 0.42860 -0.05800
C 	C 	0.39377 0.97045 0.43703 -0.03900
C 	C 	0.35607 0.99298 0.45995 0.09100
C 	C 	0.42146 0.05844 0.47906 -0.11300
H 	H 	0.51622 0.02911 0.40928 0.04600
S 	S 	0.22866 0.93684 0.46536 -0.01900
H 	H 	0.39422 0.06736 0.49845 0.05800
H 	H 	0.19053 0.98734 0.45310 0.07200
C 	C 	0.03008 0.63974 0.55592 -0.04700
C 	C 	0.06189 0.58174 0.51185 0.00500
H 	H 	0.10283 0.65716 0.56313 0.05500
C 	C 	0.15860 0.64885 0.50446 0.00100
C 	C 	0.20758 0.62609 0.48465 -0.00700
C 	C 	0.15795 0.54127 0.46996 -0.08300
C 	C 	0.06731 0.46994 0.47984 0.04300
C 	C 	0.02064 0.48980 0.50118 -0.03700
S 	S 	0.21667 0.76366 0.51817 -0.02200
H 	H 	0.27988 0.67945 0.47828 0.03500
S 	S 	0.00847 0.35796 0.46442 0.00300
H 	H 	0.16377 0.80704 0.51119 0.05000
C 	C 	0.36770 0.40841 0.57130 -0.06200
C 	C 	0.41255 0.43084 0.54559 0.01600
C 	C 	0.42906 0.36251 0.53226 -0.00200
C 	C 	0.42374 0.28671 0.54738 -0.01200
C 	C 	0.39970 0.27963 0.57509 -0.07200
C 	C 	0.34319 0.32129 0.58274 0.06300
C 	C 	0.45152 0.52769 0.53414 0.01800
H 	H 	0.45063 0.24242 0.53875 0.04000
S 	S 	0.22222 0.24983 0.59389 0.00300
H 	H 	0.34903 0.45587 0.58180 0.06500
C 	C 	0.39176 0.57062 0.53157 0.00100
C 	C 	0.42894 0.65604 0.51758 -0.00100
C 	C 	0.50635 0.68052 0.49933 -0.08000
C 	C 	0.57534 0.65170 0.50595 0.05800
C 	C 	0.54815 0.57573 0.52378 -0.06200
S 	S 	0.26615 0.51058 0.54029 -0.02600
H 	H 	0.38484 0.69042 0.51611 0.04200
H 	H 	0.20349 0.28917 0.61612 0.06800
H 	H 	0.21277 0.45204 0.51931 0.04400
C 	C 	0.46298 0.21154 0.71614 -0.02000
C 	C 	0.44180 0.23007 0.68984 -0.07700
C 	C 	0.34334 0.18736 0.68092 0.10000
C 	C 	0.26801 0.12422 0.69766 -0.02800
C 	C 	0.28827 0.10864 0.72427 -0.06800
C 	C 	0.38664 0.15212 0.73352 0.09800
N 	N 	0.40919 0.13763 0.76065 -0.02200
H 	H 	0.53879 0.24234 0.72298 0.07700
H 	H 	0.19240 0.09157 0.69050 0.07100
N 	N 	0.31940 0.20868 0.65488 -0.02100
O 	O 	0.44519 0.08188 0.76506 -0.08200
O 	O 	0.40276 0.18696 0.78055 -0.07800
O 	O 	0.27277 0.14151 0.63722 -0.10600
O 	O 	0.33169 0.29220 0.65030 -0.09100
O 	O 	0.12351 0.74618 0.72840 -0.08400
H 	H 	0.05325 0.50915 0.03359 0.07200
C 	C 	0.98037 0.57820 0.11424 -0.04100
C 	C 	0.05447 0.66977 0.10780 -0.07300
C 	C 	0.04401 0.70595 0.08295 0.06900
C 	C 	0.98882 0.64339 0.06178 -0.08400
S 	S 	0.09957 0.82814 0.07829 -0.00200
H 	H 	0.98843 0.67018 0.04168 0.05800
H 	H 	0.19987 0.86752 0.07737 0.05000
C 	C 	0.39205 0.96494 0.99833 -0.01900
C 	C 	0.41003 0.99247 0.02575 0.05300
C 	C 	0.41488 0.07824 0.03363 -0.04100
C 	C 	0.41948 0.14159 0.01359 -0.00400
C 	C 	0.41581 0.11817 0.98596 -0.06800
C 	C 	0.38261 0.02340 0.97930 -0.02400
C 	C 	0.43106 0.93538 0.04558 -0.00900
S 	S 	0.41322 0.10603 0.06815 -0.03500
H 	H 	0.43604 0.21205 0.01940 0.04000
S 	S 	0.32798 0.97728 0.94759 0.05000
H 	H 	0.38674 0.89916 0.99174 0.04700
C 	C 	0.36179 0.84013 0.05054 0.01100
C 	C 	0.37922 0.79201 0.07133 -0.01900
C 	C 	0.46123 0.83831 0.08856 -0.07500
C 	C 	0.53526 0.92980 0.08186 0.03500
C 	C 	0.52086 0.97718 0.06004 -0.00100
S 	S 	0.25134 0.78057 0.03170 -0.02600
H 	H 	0.32656 0.71927 0.07482 0.05500
H 	H 	0.57760 0.04795 0.05510 0.01400
H 	H 	0.26352 0.73142 0.01084 0.04100
H 	H 	0.31759 0.06873 0.07648 0.03800
C 	C 	0.42654 0.55678 0.01567 -0.07200
C 	C 	0.51779 0.64060 0.01534 0.01500
C 	C 	0.54061 0.70585 0.03643 -0.00300
C 	C 	0.48843 0.67697 0.06059 -0.00900
C 	C 	0.39740 0.59355 0.06162 -0.09100
C 	C 	0.36470 0.53426 0.03846 0.05800
C 	C 	0.59701 0.64766 0.99736 0.01500
S 	S 	0.64010 0.82111 0.03373 -0.01800
H 	H 	0.52202 0.71579 0.07891 0.04500
S 	S 	0.25115 0.42906 0.03840 -0.02800
H 	H 	0.40632 0.50699 0.99898 0.05900
C 	C 	0.66860 0.62566 0.00719 -0.00100
C 	C 	0.59522 0.66603 0.96963 -0.06300
H 	H 	0.54614 0.69025 0.96210 0.06300
H 	H 	0.26420 0.35793 0.04864 0.04900
C 	C 	0.33140 0.03503 0.83491 -0.03100
C 	C 	0.25496 0.05493 0.84001 -0.04400
C 	C 	0.24198 0.07960 0.86649 0.09000
C 	C 	0.31042 0.09189 0.88691 -0.02100
C 	C 	0.39482 0.08531 0.88072 -0.09300
C 	C 	0.40057 0.04880 0.85526 0.11200
N 	N 	0.48102 0.03252 0.84937 -0.04100
H 	H 	0.33709 0.00879 0.81511 0.08200
H 	H 	0.30367 0.11678 0.90681 0.05600
N 	N 	0.16192 0.09616 0.87249 -0.02000
O 	O 	0.50869 0.99110 0.86711 -0.04500
O 	O 	0.52647 0.05888 0.82624 -0.07300
O 	O 	0.07152 0.02886 0.86945 -0.09700
O 	O 	0.17941 0.17666 0.88266 -0.09100
N 	N 	0.56902 0.49724 0.83508 -0.02300
O 	O 	0.04305 0.71086 0.84146 -0.07200
O 	O 	0.50909 0.53080 0.83764 -0.08200
O 	O 	0.53520 0.41027 0.82743 -0.07400
H 	H 	0.03032 0.64336 0.62162 0.05200
H 	H 	0.35358 0.31788 0.48451 0.04100
S 	S 	0.03861 0.40414 0.98527 0.00000
H 	H 	0.04871 0.33019 0.99452 0.04600
H 	H 	0.38775 0.95498 0.93267 0.05800
S 	S 	0.68591 0.61847 0.04229 -0.02900
H 	H 	0.60793 0.53826 0.05224 0.04300
O 	O 	0.01611 0.87045 0.73711 -0.35000
O 	O 	0.00693 0.11479 0.81004 -0.35000
H 	H 	0.59887 0.96505 0.57116 0.08500
S 	S 	0.44413 0.36503 0.49683 -0.03000
H 	H 	0.59872 0.54953 0.52777 0.05700
O 	O 	0.03246 0.43731 0.34448 -0.07300
S 	S 	0.68100 0.16831 0.43895 -0.03100
C 	C 	0.00076 0.60816 0.52909 0.03200
C 	C 	0.65205 0.64670 0.95144 0.05600
S 	S 	0.64650 0.66563 0.91646 0.00400
O 	O 	0.67376 0.15290 0.63890 -0.36300
H 	H 	0.66993 0.90546 0.18504 0.07100
H 	H 	0.72129 0.35944 0.46894 0.04200
S 	S 	0.68892 0.70016 0.48911 -0.02200
H 	H 	0.66518 0.09541 0.69832 0.06700
S 	S 	0.64551 0.98587 0.10074 0.01100
H 	H 	0.71221 0.96374 0.08973 0.04600
C 	C 	0.67841 0.45216 0.87426 0.33200
C 	C 	0.68807 0.51706 0.94621 0.29000
Ni	Ni	0.65124 0.20729 0.93471 1.12300
O 	O 	0.66287 0.32781 0.93029 -0.71300
H 	H 	0.67004 0.34852 0.94938 0.16100
C 	C 	0.69153 0.19863 0.57653 0.28800
Ni	Ni	0.64416 0.41800 0.62914 1.13400
O 	O 	0.67706 0.32720 0.61629 -0.71500
H 	H 	0.66324 0.32764 0.59678 0.15900
C 	C 	0.62836 0.78293 0.25519 -0.02300
C 	C 	0.65768 0.87281 0.20486 -0.02100
H 	H 	0.61619 0.75070 0.27506 0.08600
C 	C 	0.75579 0.78315 0.40259 -0.02900
C 	C 	0.75800 0.74540 0.34737 -0.02200
H 	H 	0.75393 0.79887 0.42393 0.06000
H 	H 	0.76287 0.72770 0.32643 0.05700
C 	C 	0.69559 0.25787 0.53037 -0.01200
C 	C 	0.69579 0.18810 0.54699 -0.08600
C 	C 	0.66148 0.09734 0.53603 0.06100
H 	H 	0.72720 0.32945 0.53792 0.04100
S 	S 	0.67702 0.01260 0.55408 -0.06600
H 	H 	0.72850 0.11987 0.44627 0.03400
H 	H 	0.67820 0.65093 0.46554 0.04800
O 	O 	0.70368 0.08324 0.75746 -0.07000
O 	O 	0.70215 0.95251 0.74216 -0.08600
O 	O 	0.66326 0.58057 0.65172 -0.13900
C 	C 	0.72354 0.60506 0.98872 -0.00500
C 	C 	0.70291 0.60093 0.96089 -0.07900
H 	H 	0.72358 0.82551 0.04436 0.04400
C 	C 	0.67279 0.55802 0.83841 0.11300
N 	N 	0.02950 0.70033 0.73318 -0.01700
H 	H 	0.72301 0.75204 0.90966 0.06000
Ni	Ni	0.78627 0.41975 0.91621 1.12200
O 	O 	0.72630 0.40737 0.87925 -0.38100
O 	O 	0.78220 0.26462 0.95578 -0.36300
O 	O 	0.75457 0.52432 0.92774 -0.36600
O 	O 	0.70478 0.20094 0.89861 -0.37300
C 	C 	0.75210 0.20323 0.65440 0.32100
Ni	Ni	0.81098 0.36107 0.61594 1.11700
O 	O 	0.77397 0.24147 0.59142 -0.35000
O 	O 	0.73454 0.44682 0.66103 -0.37000
O 	O 	0.80216 0.29435 0.65207 -0.36300
O 	O 	0.75355 0.52197 0.60560 -0.34400
C 	C 	0.72355 0.85042 0.24746 -0.06200
C 	C 	0.73816 0.89449 0.22192 0.10300
C 	C 	0.82518 0.83487 0.35767 -0.07700
C 	C 	0.82854 0.85136 0.38587 0.10500
H 	H 	0.76093 0.55583 0.53346 0.03900
C 	C 	0.74123 0.11244 0.69590 -0.01800
C 	C 	0.79206 0.15715 0.67222 -0.07700
C 	C 	0.78911 0.09262 0.71702 0.09200
N 	N 	0.73421 0.04244 0.74033 -0.03600
N 	N 	0.75696 0.63753 0.64859 -0.02400
O 	O 	0.78687 0.69599 0.62836 -0.09000
C 	C 	0.77717 0.36394 0.01332 -0.01200
S 	S 	0.71246 0.42216 0.05687 -0.03300
H 	H 	0.70024 0.32511 0.00741 0.04200
H 	H 	0.67456 0.34642 0.07396 0.04100
H 	H 	0.77090 0.57861 0.99614 0.04100
O 	O 	0.83698 0.26315 0.78444 -0.06900
C 	C 	0.72654 0.53728 0.85756 -0.08800
C 	C 	0.72179 0.63769 0.82201 -0.02600
H 	H 	0.68058 0.65265 0.80692 0.07900
H 	H 	0.85970 0.32271 0.84096 0.07500
C 	C 	0.79521 0.25745 0.89125 0.32800
C 	C 	0.80063 0.51090 0.58441 0.28800
O 	O 	0.81813 0.43981 0.58282 -0.38200
H 	H 	0.80193 0.75768 0.68946 0.07700
O 	O 	0.99795 0.66120 0.75670 -0.09500
C 	C 	0.82599 0.35119 0.96670 0.28600
C 	C 	0.82778 0.50414 0.65786 0.32100
C 	C 	0.80313 0.89021 0.26791 0.29700
C 	C 	0.82357 0.65062 0.67030 0.10200
C 	C 	0.82851 0.59737 0.86037 -0.01100
O 	O 	0.76410 0.01478 0.90971 -0.11600
O 	O 	0.84651 0.34243 0.90192 -0.37000
O 	O 	0.85217 0.42668 0.95160 -0.37700
O 	O 	0.87504 0.48851 0.63817 -0.36500
O 	O 	0.83171 0.82941 0.80198 -0.35300
O 	O 	0.85271 0.80351 0.74608 -0.34800
O 	O 	0.85137 0.02362 0.79046 -0.34700
O 	O 	0.88475 0.96727 0.32721 -0.34200
O 	O 	0.82164 0.83329 0.28351 -0.36800
O 	O 	0.84539 0.98178 0.27284 -0.34400
N 	N 	0.83513 0.96135 0.21321 -0.00300
O 	O 	0.85428 0.04511 0.20583 -0.13800
C 	C 	0.83691 0.58246 0.53956 -0.00500
C 	C 	0.84035 0.71751 0.69042 -0.02100
C 	C 	0.87154 0.59615 0.67169 -0.08300
C 	C 	0.80470 0.42138 0.03658 -0.00400
C 	C 	0.84894 0.36535 0.99592 -0.08200
C 	C 	0.86002 0.25783 0.84545 -0.01600
C 	C 	0.84077 0.22195 0.87189 -0.07300
C 	C 	0.87615 0.20863 0.82448 0.10700
N 	N 	0.90022 0.24873 0.79791 -0.01900
C 	C 	0.82417 0.69644 0.82443 -0.05900
H 	H 	0.86987 0.58284 0.87552 0.04200
O 	O 	0.01110 0.81971 0.85967 -0.06600
C 	C 	0.90063 0.90405 0.33949 0.33200
C 	C 	0.87458 0.77783 0.80644 0.30000
Ni	Ni	0.86713 0.91818 0.76917 1.12800
N 	N 	0.90438 0.93711 0.39754 -0.00300
C 	C 	0.86167 0.59155 0.56726 -0.06600
C 	C 	0.89136 0.17931 0.66939 0.10600
C 	C 	0.89013 0.12010 0.71486 -0.05200
C 	C 	0.84064 0.13712 0.87750 0.10600
C 	C 	0.87132 0.12148 0.82987 -0.05800
C 	C 	0.87732 0.67666 0.84395 0.09500
C 	C 	0.85319 0.08628 0.85637 -0.02400
N 	N 	0.82738 0.10230 0.90475 -0.02300
O 	O 	0.90174 0.93598 0.21045 -0.08900
S 	S 	0.87459 0.39205 0.10057 -0.03700
H 	H 	0.85391 0.02158 0.86087 0.06700
O 	O 	0.91430 0.01752 0.38986 -0.13400
C 	C 	0.90673 0.73338 0.71153 -0.06700
O 	O 	0.90502 0.17574 0.62152 -0.10700
O 	O 	0.88201 0.15684 0.92436 -0.10100
O 	O 	0.90616 0.99388 0.73373 -0.32700
C 	C 	0.91042 0.08078 0.81016 0.28900
O 	O 	0.95834 0.93437 0.41736 -0.09200
S 	S 	0.87606 0.57870 0.48545 -0.03400
N 	N 	0.94258 0.21807 0.64452 -0.03200
C 	C 	0.90545 0.47842 0.04316 0.01700
O 	O 	0.99008 0.28458 0.78919 -0.08500
H 	H 	0.94188 0.36178 0.09749 0.03200
C 	C 	0.93559 0.08340 0.73420 0.27200
C 	C 	0.92570 0.80638 0.73193 0.30700
O 	O 	0.94504 0.78210 0.79009 -0.34400
O 	O 	0.96564 0.88442 0.32983 -0.38700
C 	C 	0.90654 0.59014 0.52023 -0.01800
H 	H 	0.90064 0.66536 0.47514 0.04400
C 	C 	0.94039 0.16326 0.69099 -0.04600
C 	C 	0.94377 0.61730 0.69164 -0.01700
C 	C 	0.94821 0.41259 0.00444 0.04800
Ni	Ni	0.95998 0.85099 0.29084 1.11500
C 	C 	0.93794 0.54551 0.06651 0.01200
C 	C 	0.93138 0.51318 0.09336 0.00000
C 	C 	0.96089 0.68482 0.71176 0.09400
Ni	Ni	0.96657 0.04883 0.29553 1.09300
C 	C 	0.96216 0.64208 0.57392 0.02200
H 	H 	0.98160 0.57664 0.69275 0.06800
H 	H 	0.94931 0.43567 0.50818 0.03700
H 	H 	0.94842 0.35685 0.44385 0.03600
C 	C 	0.97622 0.46985 0.02775 -0.08800
N 	N 	0.98046 0.73867 0.84776 -0.03300
O 	O 	0.96917 0.81820 0.25225 -0.39500
O 	O 	0.99154 0.13642 0.75445 -0.34200
S 	S 	0.00117 0.69488 0.60608 0.03200
H 	H 	0.98829 0.96525 0.80105 0.17900
O 	O 	0.06542 0.33693 0.26683 -0.06600
O 	O 	0.02938 0.29250 0.64501 -0.09700
O 	O 	0.95309 0.81658 0.16729 -0.10300
H 	H 	0.01644 0.18021 0.68860 0.08300
H 	H 	0.97176 0.55340 0.13482 0.04800
O 	O 	0.99775 0.97114 0.78122 -0.71500
