data_crystal

_cell_length_a 21.11649
_cell_length_b 18.67482
_cell_length_c 49.23020
_cell_angle_alpha 90.67706
_cell_angle_beta  91.47074
_cell_angle_gamma 110.98841

_symmetry_space_group_name_	'P 1'
_symmetry_space_group_name_H-M	'P 1'

loop_
_symmetry_equiv_pos_as_xyz
  x,y,z

loop_
_atom_site_label
_atom_site_type_symbol
_atom_site_fract_x
_atom_site_fract_y
_atom_site_fract_z
_atom_site_charge
Ni	Ni	0.69883 0.31185 0.89532 1.09700
O 	O 	0.60562 0.25505 0.87717 -0.70000
Ni	Ni	0.54452 0.28020 0.90305 1.10000
O 	O 	0.74567 0.27683 0.86462 -0.35300
O 	O 	0.68129 0.15143 0.87153 -0.40700
O 	O 	0.69783 0.40062 0.87208 -0.39800
Ni	Ni	0.58097 0.14441 0.87380 1.06500
O 	O 	0.75582 0.42599 0.94931 -0.41800
O 	O 	0.58728 0.13350 0.91465 -0.41900
O 	O 	0.45676 0.22930 0.88086 -0.36500
O 	O 	0.63652 0.32550 0.92327 -0.70000
O 	O 	0.79300 0.37680 0.91200 -0.38200
O 	O 	0.49666 0.33307 0.92773 -0.37200
O 	O 	0.57936 0.45007 0.92187 -0.40700
Ni	Ni	0.66862 0.43455 0.93413 1.06900
H 	H 	0.60135 0.27597 0.85911 0.15500
H 	H 	0.63819 0.29444 0.93924 0.15800
C 	C 	0.53591 0.13114 0.92928 0.28800
O 	O 	0.72064 0.49954 0.90265 -0.37600
C 	C 	0.72564 0.20409 0.85716 0.24200
C 	C 	0.44793 0.16573 0.86670 0.24100
C 	C 	0.73169 0.47171 0.87933 0.27700
C 	C 	0.52031 0.40798 0.93158 0.26600
C 	C 	0.80532 0.42266 0.93392 0.29200
O 	O 	0.51372 0.18872 0.92909 -0.36800
O 	O 	0.47822 0.11813 0.87456 -0.39300
Ni	Ni	0.63738 0.30323 0.51559 1.09900
O 	O 	0.71760 0.32103 0.49088 -0.69900
Ni	Ni	0.78386 0.29613 0.51565 1.09900
O 	O 	0.59159 0.35967 0.49114 -0.37700
O 	O 	0.68697 0.46768 0.49107 -0.40800
O 	O 	0.57917 0.20435 0.49414 -0.36700
Ni	Ni	0.75953 0.42537 0.47686 1.06600
O 	O 	0.55993 0.15778 0.54790 -0.38800
O 	O 	0.82833 0.49035 0.50634 -0.38700
O 	O 	0.86976 0.33108 0.49264 -0.37600
O 	O 	0.70019 0.26948 0.53910 -0.70000
O 	O 	0.56103 0.27991 0.54225 -0.37200
O 	O 	0.83363 0.25330 0.54386 -0.35100
O 	O 	0.74667 0.13750 0.54341 -0.39400
Ni	Ni	0.65719 0.15984 0.54496 1.06700
H 	H 	0.70463 0.28380 0.47540 0.15500
H 	H 	0.71003 0.29821 0.55669 0.15800
C 	C 	0.85426 0.46099 0.52589 0.26600
O 	O 	0.64625 0.13587 0.50453 -0.41900
C 	C 	0.62140 0.43267 0.48581 0.26700
C 	C 	0.88328 0.38651 0.47462 0.28800
C 	C 	0.59618 0.14374 0.49033 0.28500
C 	C 	0.80501 0.18436 0.55376 0.24200
C 	C 	0.54471 0.21688 0.55655 0.24400
O 	O 	0.81740 0.39724 0.53701 -0.38000
O 	O 	0.83395 0.39656 0.45988 -0.41700
O 	O 	0.03201 0.85373 0.69395 -0.70100
Ni	Ni	0.06590 0.91172 0.66031 1.10200
O 	O 	0.95012 0.84797 0.74255 -0.35700
O 	O 	0.90760 0.73926 0.71593 -0.38600
O 	O 	0.06986 0.97677 0.73432 -0.34300
Ni	Ni	0.96835 0.75244 0.68218 1.05800
O 	O 	0.03445 0.09518 0.72367 -0.37800
O 	O 	0.90473 0.79575 0.66163 -0.39600
O 	O 	0.11295 0.84122 0.64658 -0.36600
O 	O 	0.01212 0.97511 0.67570 -0.67600
O 	O 	0.11399 0.98919 0.63171 -0.34100
O 	O 	0.11434 0.10344 0.64832 -0.37200
Ni	Ni	0.06744 0.08232 0.68563 1.06900
H 	H 	0.06961 0.85016 0.70561 0.15800
C 	C 	0.92385 0.83543 0.63952 0.25200
O 	O 	0.13997 0.04629 0.70170 -0.40500
C 	C 	0.93008 0.77288 0.73976 0.24100
C 	C 	0.07814 0.76800 0.64138 0.25200
C 	C 	0.13143 0.01063 0.72494 0.23600
C 	C 	0.14709 0.06114 0.63870 0.24100
C 	C 	0.97246 0.06065 0.73249 0.23300
Ni	Ni	0.25726 0.66084 0.40737 1.10000
O 	O 	0.34659 0.72275 0.38985 -0.70100
Ni	Ni	0.41401 0.70701 0.41608 1.10100
O 	O 	0.20267 0.68774 0.37674 -0.35200
O 	O 	0.26137 0.81591 0.38408 -0.39200
O 	O 	0.26330 0.57340 0.38353 -0.37500
Ni	Ni	0.36433 0.83114 0.38533 1.06700
O 	O 	0.21279 0.56244 0.46365 -0.41200
O 	O 	0.36815 0.85339 0.42600 -0.41300
O 	O 	0.49781 0.75929 0.39405 -0.35500
O 	O 	0.32552 0.66061 0.43633 -0.70200
O 	O 	0.16755 0.59003 0.42335 -0.37000
O 	O 	0.46865 0.66053 0.44078 -0.37000
O 	O 	0.38687 0.54133 0.43541 -0.41200
Ni	Ni	0.29955 0.55548 0.44903 1.06900
H 	H 	0.35042 0.70000 0.37198 0.15500
H 	H 	0.32367 0.69501 0.45150 0.16000
C 	C 	0.42298 0.85998 0.44037 0.29500
O 	O 	0.24285 0.48739 0.41768 -0.39200
C 	C 	0.21579 0.75948 0.36999 0.23900
C 	C 	0.50088 0.81731 0.37828 0.23800
C 	C 	0.25191 0.50375 0.39189 0.27300
C 	C 	0.44759 0.58603 0.44450 0.26700
C 	C 	0.16002 0.55957 0.44787 0.28600
O 	O 	0.44462 0.80215 0.44184 -0.36900
O 	O 	0.46798 0.86376 0.38451 -0.39800
Ni	Ni	0.34294 0.70078 0.00495 1.10000
O 	O 	0.25297 0.66381 0.98322 -0.70300
Ni	Ni	0.19092 0.68634 0.00961 1.09900
O 	O 	0.38582 0.63777 0.98260 -0.37400
O 	O 	0.29482 0.52693 0.98758 -0.41200
O 	O 	0.38678 0.78847 0.97822 -0.36800
Ni	Ni	0.21381 0.55556 0.97254 1.06800
O 	O 	0.41981 0.86385 0.03022 -0.39800
O 	O 	0.15417 0.50432 0.00444 -0.39200
O 	O 	0.09618 0.62636 0.99214 -0.36400
O 	O 	0.28446 0.73835 0.02833 -0.69700
O 	O 	0.42882 0.74482 0.02854 -0.36000
O 	O 	0.14693 0.73784 0.03682 -0.35000
O 	O 	0.22248 0.85523 0.02603 -0.39400
Ni	Ni	0.31886 0.84994 0.02822 1.07100
H 	H 	0.25605 0.69544 0.96697 0.16100
H 	H 	0.28573 0.72059 0.04714 0.16300
C 	C 	0.16650 0.52809 0.02992 0.26400
O 	O 	0.31617 0.85225 0.98723 -0.41800
C 	C 	0.35746 0.56282 0.97978 0.26800
C 	C 	0.08372 0.58207 0.96980 0.27400
C 	C 	0.36647 0.84632 0.97384 0.29500
C 	C 	0.17388 0.81257 0.04128 0.24400
C 	C 	0.44309 0.81251 0.04061 0.24500
O 	O 	0.18130 0.60068 0.03662 -0.36700
O 	O 	0.13344 0.57516 0.95540 -0.41000
Ni	Ni	0.97465 0.99603 0.23650 1.10000
O 	O 	0.96108 0.08789 0.21825 -0.70700
Ni	Ni	0.91667 0.03953 0.18259 1.09400
O 	O 	0.04374 0.05916 0.26580 -0.34500
O 	O 	0.10675 0.13888 0.23422 -0.40300
O 	O 	0.90127 0.98916 0.26433 -0.36300
Ni	Ni	0.04242 0.17763 0.21124 1.07300
O 	O 	0.86448 0.83859 0.24921 -0.39800
O 	O 	0.08329 0.15358 0.17619 -0.38600
O 	O 	0.91880 0.13374 0.16047 -0.35900
O 	O 	0.92090 0.94662 0.20304 -0.70200
O 	O 	0.86107 0.96927 0.15152 -0.34000
O 	O 	0.78053 0.89792 0.18043 -0.39700
Ni	Ni	0.83292 0.87659 0.21406 1.06600
H 	H 	0.92891 0.10491 0.22837 0.15400
H 	H 	0.94471 0.91829 0.19287 0.16000
C 	C 	0.05154 0.09964 0.15797 0.27600
O 	O 	0.81115 0.95994 0.23434 -0.39600
C 	C 	0.09420 0.12156 0.25976 0.24900
C 	C 	0.83916 0.98564 0.25824 0.25800
C 	C 	0.80509 0.91054 0.15580 0.24100
C 	C 	0.92599 0.83655 0.25418 0.25100
C 	C 	0.12061 0.42636 0.09068 0.11400
C 	C 	0.09457 0.42451 0.11668 -0.08000
C 	C 	0.03431 0.36417 0.12250 -0.00200
C 	C 	0.00353 0.30501 0.10405 0.13400
C 	C 	0.02932 0.30706 0.07794 -0.09100
C 	C 	0.08957 0.36759 0.07210 0.01500
O 	O 	0.16052 0.49443 0.07904 -0.18800
C 	C 	0.14922 0.47142 0.05165 0.04300
C 	C 	0.10693 0.39592 0.04729 -0.05800
O 	O 	0.96441 0.23676 0.11591 -0.19100
H 	H 	0.11903 0.46998 0.13152 0.06400
H 	H 	0.00491 0.26154 0.06312 0.07300
H 	H 	0.07721 0.37360 0.02875 0.05900
C 	C 	0.70033 0.87474 0.09712 0.11300
C 	C 	0.66845 0.90987 0.07912 -0.08300
C 	C 	0.59765 0.88715 0.07940 0.00700
C 	C 	0.55920 0.82661 0.09464 0.12100
C 	C 	0.59065 0.79015 0.11217 -0.09200
C 	C 	0.66175 0.81462 0.11274 0.01400
O 	O 	0.76500 0.91385 0.10804 -0.18100
C 	C 	0.76043 0.87445 0.13229 0.04500
C 	C 	0.69964 0.81438 0.13500 -0.06700
O 	O 	0.49300 0.79113 0.08474 -0.20100
C 	C 	0.49577 0.83639 0.06209 0.03800
C 	C 	0.55790 0.89344 0.05860 -0.05500
H 	H 	0.69813 0.95672 0.06668 0.06700
H 	H 	0.56075 0.74359 0.12468 0.06400
H 	H 	0.67909 0.79078 0.15426 0.04800
H 	H 	0.57613 0.91877 0.03928 0.05500
C 	C 	0.17093 0.95462 0.08471 0.13800
C 	C 	0.19053 0.00926 0.10597 -0.11100
C 	C 	0.15255 0.05687 0.10932 0.02000
C 	C 	0.09147 0.04199 0.09525 0.10100
C 	C 	0.06955 0.98288 0.07536 -0.06500
C 	C 	0.11360 0.94439 0.06920 -0.00400
O 	O 	0.19524 0.89518 0.08234 -0.21600
C 	C 	0.14880 0.84986 0.06250 0.04200
C 	C 	0.09677 0.87631 0.05624 -0.04700
O 	O 	0.04619 0.06697 0.10884 -0.17800
C 	C 	0.08495 0.09660 0.13260 0.04400
C 	C 	0.14856 0.09154 0.13289 -0.06000
H 	H 	0.23161 0.01217 0.12009 0.06500
H 	H 	0.01881 0.96487 0.06630 0.07100
H 	H 	0.06426 0.86011 0.03809 0.05500
H 	H 	0.17729 0.08974 0.15128 0.05500
C 	C 	0.70284 0.97537 0.29914 0.11600
C 	C 	0.63235 0.94097 0.30159 -0.09100
C 	C 	0.60816 0.88782 0.32222 0.01300
C 	C 	0.65131 0.87352 0.34102 0.11300
C 	C 	0.72165 0.91022 0.33928 -0.08700
C 	C 	0.74626 0.96284 0.31842 0.00800
O 	O 	0.73205 0.99745 0.27416 -0.19200
C 	C 	0.79647 0.99527 0.28003 0.04000
C 	C 	0.80553 0.97566 0.30643 -0.05600
O 	O 	0.62070 0.84328 0.36507 -0.18600
C 	C 	0.55570 0.84337 0.35900 0.04500
C 	C 	0.54756 0.86963 0.33359 -0.07000
H 	H 	0.59780 0.95160 0.28693 0.06400
H 	H 	0.75605 0.89894 0.35385 0.06600
H 	H 	0.84207 0.95005 0.31274 0.06100
H 	H 	0.50813 0.89119 0.32754 0.03900
C 	C 	0.12466 0.23993 0.31748 0.11500
C 	C 	0.13123 0.26118 0.34513 -0.08600
C 	C 	0.16292 0.33940 0.35183 0.00900
C 	C 	0.19622 0.39178 0.33281 0.11800
C 	C 	0.19540 0.36885 0.30556 -0.08800
C 	C 	0.15427 0.29341 0.29826 0.00200
O 	O 	0.10691 0.16457 0.30829 -0.18300
C 	C 	0.12768 0.17821 0.28141 0.03000
C 	C 	0.15947 0.25509 0.27584 -0.06200
O 	O 	0.24413 0.45843 0.34381 -0.19000
C 	C 	0.23540 0.44152 0.37144 0.03900
C 	C 	0.18949 0.36883 0.37625 -0.05400
H 	H 	0.11468 0.21848 0.36068 0.06900
H 	H 	0.22725 0.40718 0.29096 0.06300
H 	H 	0.16820 0.27912 0.25575 0.02900
H 	H 	0.16590 0.34945 0.39543 0.05900
C 	C 	0.08110 0.79218 0.33540 0.09400
C 	C 	0.01318 0.78649 0.33387 -0.02500
C 	C 	0.00326 0.73033 0.28840 0.17100
C 	C 	0.06977 0.73077 0.29105 -0.11300
C 	C 	0.10875 0.76690 0.31410 0.03800
O 	O 	0.11762 0.80058 0.35985 -0.18000
C 	C 	0.16960 0.77705 0.35091 0.04800
C 	C 	0.16427 0.75584 0.32378 -0.07800
C 	C 	0.93251 0.77571 0.27113 0.03700
H 	H 	0.09231 0.71065 0.27449 0.07300
H 	H 	0.18626 0.71708 0.31488 0.05300
H 	H 	0.91375 0.82532 0.30891 0.05100
C 	C 	0.57956 0.03039 0.46014 -0.02700
C 	C 	0.55163 0.07819 0.47363 -0.06100
C 	C 	0.48071 0.05628 0.47458 -0.02600
C 	C 	0.43843 0.98538 0.46343 0.00500
C 	C 	0.46676 0.93583 0.45134 -0.07900
C 	C 	0.53744 0.95954 0.44917 0.00900
H 	H 	0.63410 0.04714 0.45889 0.04300
H 	H 	0.45843 0.09255 0.48497 0.05400
H 	H 	0.38390 0.96820 0.46484 0.04100
H 	H 	0.55979 0.92287 0.43907 0.05200
C 	C 	0.03851 0.54645 0.45045 0.00600
C 	C 	0.09060 0.51913 0.45729 -0.06000
C 	C 	0.07480 0.44915 0.47069 -0.01900
C 	C 	0.95484 0.43181 0.46859 -0.08600
C 	C 	0.97114 0.50324 0.45613 -0.02000
H 	H 	0.05011 0.60086 0.44046 0.04400
H 	H 	0.11446 0.42726 0.47601 0.04100
H 	H 	0.99582 0.35125 0.48626 0.03200
H 	H 	0.93166 0.52548 0.45090 0.03100
C 	C 	0.56313 0.57915 0.45108 -0.00900
C 	C 	0.49384 0.55156 0.45697 -0.06700
C 	C 	0.46810 0.48877 0.47403 -0.01100
C 	C 	0.51049 0.45222 0.48439 -0.01200
C 	C 	0.57915 0.47749 0.47758 -0.06400
C 	C 	0.60561 0.54213 0.46130 -0.01400
H 	H 	0.58367 0.62777 0.43800 0.04700
H 	H 	0.41504 0.46790 0.47913 0.02000
H 	H 	0.48969 0.40354 0.49743 0.04700
H 	H 	0.65844 0.56235 0.45590 0.03000
C 	C 	0.88250 0.06109 0.57767 0.10100
C 	C 	0.88655 0.98896 0.57257 -0.07200
C 	C 	0.86008 0.93129 0.59160 0.00100
C 	C 	0.83391 0.94576 0.61557 0.12900
C 	C 	0.82812 0.01735 0.62030 -0.11400
C 	C 	0.85528 0.07514 0.60137 0.01500
O 	O 	0.88060 0.10956 0.55679 -0.18800
C 	C 	0.84674 0.15171 0.56975 0.04800
C 	C 	0.83214 0.13207 0.59643 -0.07200
O 	O 	0.83993 0.90008 0.63682 -0.20800
C 	C 	0.87565 0.86002 0.62384 0.04000
C 	C 	0.88561 0.87648 0.59666 -0.05400
H 	H 	0.90830 0.97759 0.55406 0.06600
H 	H 	0.80648 0.02888 0.63881 0.06000
H 	H 	0.79100 0.14042 0.60715 0.03500
H 	H 	0.92571 0.86828 0.58516 0.06200
C 	C 	0.43319 0.15668 0.61113 0.11900
C 	C 	0.38203 0.09848 0.62401 -0.09600
C 	C 	0.32573 0.11431 0.63284 0.02300
C 	C 	0.31546 0.18079 0.62580 0.11000
C 	C 	0.36415 0.23647 0.61088 -0.08300
C 	C 	0.42514 0.22542 0.60565 0.00500
O 	O 	0.47961 0.14100 0.59486 -0.20400
C 	C 	0.49754 0.20596 0.57883 0.04000
C 	C 	0.46566 0.25662 0.58504 -0.05800
O 	O 	0.24767 0.17430 0.62560 -0.18900
C 	C 	0.21860 0.09691 0.63207 0.05400
C 	C 	0.26448 0.06116 0.63666 -0.08300
H 	H 	0.38387 0.04139 0.62541 0.06500
H 	H 	0.35319 0.28405 0.60228 0.06500
H 	H 	0.45890 0.29835 0.57127 0.05800
H 	H 	0.25255 0.99967 0.63651 0.06900
C 	C 	0.01829 0.59612 0.54610 0.02800
C 	C 	0.01000 0.53599 0.56345 0.12800
O 	O 	0.10550 0.75498 0.59361 -0.18000
C 	C 	0.09308 0.65289 0.62209 -0.06300
O 	O 	0.95036 0.47369 0.55849 -0.19900
C 	C 	0.92259 0.50316 0.53736 0.04500
C 	C 	0.96271 0.57535 0.52951 -0.08000
H 	H 	0.94436 0.61481 0.51879 0.05800
C 	C 	0.89445 0.53221 0.95851 0.00900
C 	C 	0.87654 0.46332 0.94328 -0.08000
C 	C 	0.92715 0.43444 0.93640 0.01400
C 	C 	0.99473 0.47375 0.94473 -0.06500
C 	C 	0.01266 0.54250 0.96004 -0.01200
H 	H 	0.85616 0.55576 0.96364 0.03000
H 	H 	0.91413 0.38113 0.92483 0.03700
H 	H 	0.03295 0.45007 0.93963 0.05600
H 	H 	0.97516 0.62478 0.97848 0.05100
C 	C 	0.52215 0.00765 0.95186 -0.03100
C 	C 	0.49280 0.05726 0.94033 -0.06300
C 	C 	0.42189 0.03337 0.93728 -0.02500
C 	C 	0.38072 0.96164 0.94636 0.00600
C 	C 	0.40980 0.91326 0.95896 -0.08100
C 	C 	0.48086 0.93602 0.96119 0.00700
H 	H 	0.57682 0.02496 0.95395 0.04100
H 	H 	0.39864 0.07010 0.92763 0.05800
H 	H 	0.32606 0.94449 0.94425 0.04100
H 	H 	0.50407 0.89962 0.97108 0.04700
C 	C 	0.50906 0.51339 0.96035 -0.01200
C 	C 	0.47815 0.44549 0.94495 -0.06700
C 	C 	0.40693 0.41309 0.94267 -0.01000
C 	C 	0.36720 0.44960 0.95500 -0.01400
C 	C 	0.39830 0.51872 0.96977 -0.06500
C 	C 	0.46944 0.54955 0.97279 -0.01100
H 	H 	0.56383 0.53811 0.96275 0.02300
H 	H 	0.38236 0.36054 0.93091 0.04700
H 	H 	0.31247 0.42527 0.95240 0.02700
H 	H 	0.49414 0.60212 0.98452 0.04800
C 	C 	0.89570 0.09076 0.79177 0.11600
C 	C 	0.83801 0.06362 0.80754 -0.09000
C 	C 	0.79959 0.11032 0.81096 0.01000
C 	C 	0.82078 0.18405 0.80143 0.11200
C 	C 	0.87843 0.21142 0.78556 -0.09000
C 	C 	0.91615 0.16389 0.78156 0.01000
C 	C 	0.95312 0.09056 0.75721 0.05200
C 	C 	0.95214 0.16381 0.75943 -0.06600
O 	O 	0.79636 0.23274 0.81578 -0.19300
C 	C 	0.75904 0.18078 0.83484 0.03600
C 	C 	0.76046 0.10792 0.83212 -0.06700
H 	H 	0.89451 0.26852 0.77736 0.06100
H 	H 	0.95802 0.20234 0.74261 0.04100
H 	H 	0.75083 0.06673 0.84826 0.05200
C 	C 	0.26410 0.10137 0.77151 0.12100
C 	C 	0.32627 0.15402 0.78133 -0.09000
C 	C 	0.35757 0.13318 0.80375 0.00800
C 	C 	0.32792 0.06402 0.81637 0.11400
C 	C 	0.26555 0.01138 0.80640 -0.09600
C 	C 	0.23360 0.03341 0.78445 0.00100
O 	O 	0.23917 0.10256 0.74526 -0.19100
C 	C 	0.18994 0.02855 0.74383 0.03300
C 	C 	0.18844 0.98595 0.76675 -0.03800
O 	O 	0.35062 0.06400 0.84312 -0.19300
C 	C 	0.39453 0.14054 0.84553 0.04100
C 	C 	0.39752 0.18228 0.82243 -0.06600
H 	H 	0.34959 0.20880 0.77177 0.06500
H 	H 	0.24165 0.95693 0.81610 0.07400
H 	H 	0.14793 0.93341 0.77188 0.05400
H 	H 	0.43524 0.23797 0.81843 0.04200
C 	C 	0.85453 0.61813 0.84364 0.11300
C 	C 	0.88118 0.69149 0.83259 -0.08600
C 	C 	0.91032 0.69812 0.80695 0.00700
C 	C 	0.90294 0.63421 0.79096 0.11500
C 	C 	0.87094 0.56065 0.80113 -0.09000
C 	C 	0.85223 0.55461 0.82840 0.01200
O 	O 	0.80935 0.60139 0.86484 -0.18600
C 	C 	0.77874 0.52222 0.86024 0.04000
C 	C 	0.80410 0.49405 0.83877 -0.05500
O 	O 	0.90699 0.64807 0.76324 -0.20700
C 	C 	0.91662 0.72607 0.76422 0.04500
C 	C 	0.91883 0.75644 0.79007 -0.05900
H 	H 	0.87614 0.74066 0.84289 0.06700
H 	H 	0.85771 0.51033 0.78789 0.06400
H 	H 	0.77902 0.43915 0.82844 0.06200
H 	H 	0.90991 0.80871 0.79495 0.06600
O 	O 	0.98062 0.89879 0.25205 -0.36800
O 	O 	0.00213 0.03786 0.16496 -0.37600
C 	C 	0.92902 0.78216 0.29898 -0.03100
C 	C 	0.10280 0.72968 0.62028 0.05000
H 	H 	0.82172 0.00644 0.81569 0.06400
C 	C 	0.08492 0.62483 0.59643 0.01300
H 	H 	0.04710 0.35954 0.16579 0.04600
O 	O 	0.01273 0.73779 0.64693 -0.38200
C 	C 	0.09042 0.68554 0.57967 0.11800
H 	H 	0.02969 0.50484 0.60402 0.06900
C 	C 	0.04263 0.54969 0.58913 -0.09000
C 	C 	0.01734 0.33630 0.14733 -0.03400
O 	O 	0.98718 0.22792 0.18991 -0.42200
O 	O 	0.97573 0.73806 0.26320 -0.21900
O 	O 	0.91879 0.04119 0.77744 -0.18900
Ni	Ni	0.98374 0.91979 0.71059 1.09200
C 	C 	0.05577 0.67208 0.55431 -0.09000
H 	H 	0.05251 0.71962 0.54268 0.07400
H 	H 	0.07173 0.61855 0.63952 0.04500
C 	C 	0.96275 0.20429 0.16513 0.26400
H 	H 	0.97220 0.97311 0.66434 0.15500
H 	H 	0.99133 0.80753 0.35042 0.04300
O 	O 	0.93729 0.98948 0.72519 -0.36400
C 	C 	0.97485 0.75529 0.30991 -0.05200
O 	O 	0.98770 0.85977 0.63276 -0.36900
C 	C 	0.97586 0.26043 0.14326 0.02300
C 	C 	0.00729 0.40566 0.47631 0.03200
C 	C 	0.96210 0.57155 0.96686 -0.04600
