data_crystal

_cell_length_a 15.29139
_cell_length_b 15.87760
_cell_length_c 39.40636
_cell_angle_alpha 95.37549
_cell_angle_beta  95.37310
_cell_angle_gamma 126.70743

_symmetry_space_group_name_	'P 1'
_symmetry_space_group_name_H-M	'P 1'

loop_
_symmetry_equiv_pos_as_xyz
  x,y,z

loop_
_atom_site_label
_atom_site_type_symbol
_atom_site_fract_x
_atom_site_fract_y
_atom_site_fract_z
_atom_site_charge
C 	C 	0.88807 0.98871 0.96953 0.12200
N 	N 	0.99130 0.04662 0.96203 -0.12400
C 	C 	0.04675 0.00527 0.96029 0.09100
C 	C 	0.04083 0.01597 0.49360 0.08900
N 	N 	0.99163 0.06449 0.49317 -0.12300
Cu	Cu	0.77624 0.34548 0.96988 0.92500
Cu	Cu	0.71351 0.23307 0.03867 0.86700
Cu	Cu	0.58807 0.29622 0.00516 0.89500
Cu	Cu	0.57339 0.33130 0.93127 0.90200
C 	C 	0.73277 0.32700 0.89588 0.29200
O 	O 	0.83182 0.50297 0.97135 -0.34400
C 	C 	0.62580 0.31194 0.08168 0.28700
O 	O 	0.60307 0.25724 0.95889 -0.63100
O 	O 	0.74375 0.34952 0.01670 -0.65000
O 	O 	0.84004 0.26552 0.97692 -0.35600
O 	O 	0.69429 0.13900 0.99996 -0.43200
O 	O 	0.68573 0.37312 0.90129 -0.38600
O 	O 	0.44041 0.25588 0.99254 -0.37600
C 	C 	0.37641 0.20504 0.96177 0.30400
C 	C 	0.76891 0.53335 0.97724 0.27900
O 	O 	0.66176 0.46092 0.97517 -0.39100
O 	O 	0.41459 0.23637 0.93329 -0.38900
O 	O 	0.78383 0.31693 0.92213 -0.36000
C 	C 	0.77767 0.16813 0.98428 0.28900
O 	O 	0.57085 0.31283 0.05376 -0.38000
O 	O 	0.70156 0.29705 0.07969 -0.42000
H 	H 	0.55788 0.17917 0.95044 0.16100
H 	H 	0.79271 0.42095 0.03195 0.17400
Cu	Cu	0.55588 0.15429 0.50588 0.92900
Cu	Cu	0.60613 0.15460 0.42692 0.87000
Cu	Cu	0.60452 0.32281 0.46347 0.89900
Cu	Cu	0.60177 0.36864 0.53876 0.89900
C 	C 	0.63192 0.23703 0.57902 0.29100
O 	O 	0.40688 0.11309 0.51450 -0.36000
C 	C 	0.53657 0.25185 0.38681 0.28700
O 	O 	0.65939 0.32065 0.50916 -0.63700
O 	O 	0.52128 0.16573 0.45790 -0.64300
O 	O 	0.61226 0.07226 0.49490 -0.37400
O 	O 	0.72293 0.18355 0.46024 -0.43800
O 	O 	0.58713 0.28615 0.57576 -0.38300
O 	O 	0.69537 0.47603 0.47044 -0.38400
C 	C 	0.70088 0.53889 0.49632 0.31000
C 	C 	0.37253 0.16851 0.50579 0.29300
O 	O 	0.44427 0.26903 0.50320 -0.39600
O 	O 	0.68497 0.51330 0.52728 -0.39000
O 	O 	0.61354 0.16645 0.55303 -0.35900
C 	C 	0.70210 0.11697 0.48124 0.30300
O 	O 	0.56490 0.32365 0.41441 -0.37900
O 	O 	0.52437 0.16350 0.38980 -0.42000
H 	H 	0.74079 0.36020 0.51471 0.17100
H 	H 	0.44139 0.12418 0.44791 0.17500
C 	C 	0.75504 0.31464 0.86105 -0.08500
C 	C 	0.80883 0.40257 0.84422 0.02200
C 	C 	0.81358 0.38796 0.80912 -0.06800
C 	C 	0.76416 0.28536 0.79054 0.04100
C 	C 	0.71594 0.19827 0.80776 -0.06800
C 	C 	0.71181 0.21297 0.84302 0.01600
C 	C 	0.75186 0.26822 0.75330 -0.01900
C 	C 	0.74364 0.25817 0.72220 -0.01900
C 	C 	0.73219 0.25050 0.68511 0.04200
C 	C 	0.65473 0.15093 0.66311 -0.06900
C 	C 	0.62744 0.14561 0.62765 0.02300
C 	C 	0.67684 0.24000 0.61413 -0.08600
C 	C 	0.75923 0.33894 0.63584 0.01800
C 	C 	0.78705 0.34409 0.67117 -0.06800
H 	H 	0.84379 0.48164 0.85806 0.03900
H 	H 	0.85189 0.45580 0.79605 0.05200
H 	H 	0.67820 0.11876 0.79362 0.05000
H 	H 	0.67085 0.14472 0.85587 0.02800
H 	H 	0.61231 0.07812 0.67366 0.05100
H 	H 	0.56395 0.06871 0.61109 0.03800
H 	H 	0.79862 0.41217 0.62559 0.02300
H 	H 	0.84759 0.42130 0.68798 0.05100
C 	C 	0.60435 0.33112 0.11612 -0.08900
C 	C 	0.49479 0.27756 0.12153 0.01500
C 	C 	0.47374 0.28009 0.15528 -0.07100
C 	C 	0.56207 0.33680 0.18374 0.03900
C 	C 	0.67164 0.39619 0.17821 -0.07100
C 	C 	0.69279 0.39334 0.14455 0.01700
C 	C 	0.54055 0.32377 0.21842 -0.02300
C 	C 	0.52555 0.31458 0.24778 -0.02300
C 	C 	0.51108 0.30170 0.28301 0.03800
C 	C 	0.58067 0.38973 0.31023 -0.07000
C 	C 	0.58337 0.37429 0.34458 0.01400
C 	C 	0.51697 0.27044 0.35187 -0.08900
C 	C 	0.44147 0.18328 0.32471 0.01500
C 	C 	0.43874 0.19895 0.29042 -0.07100
H 	H 	0.42586 0.22991 0.09978 0.03200
H 	H 	0.38876 0.23462 0.15934 0.04600
H 	H 	0.74039 0.44119 0.20007 0.04900
H 	H 	0.77778 0.43672 0.14065 0.03000
H 	H 	0.63626 0.46957 0.30472 0.04900
H 	H 	0.64121 0.44240 0.36529 0.03700
H 	H 	0.38775 0.10302 0.33004 0.02900
H 	H 	0.38379 0.13061 0.26952 0.04500
C 	C 	0.75546 0.64760 0.49376 -0.08400
C 	C 	0.80511 0.74006 0.49211 0.02800
C 	C 	0.82471 0.05213 0.48896 0.02800
C 	C 	0.77057 0.08391 0.48597 -0.09400
C 	C 	0.15878 0.07708 0.49747 0.02600
C 	C 	0.25682 0.12069 0.50108 -0.09100
C 	C 	0.84419 0.73389 0.97560 0.01900
C 	C 	0.81117 0.64324 0.97710 -0.07300
C 	C 	0.80814 0.09748 0.97882 -0.08100
C 	C 	0.83747 0.04141 0.97479 0.01400
C 	C 	0.16190 0.07378 0.95930 0.02900
C 	C 	0.25973 0.13322 0.95982 -0.09200
N 	N 	0.99838 0.90428 0.96525 -0.12200
C 	C 	0.89433 0.84369 0.97210 0.11300
N 	N 	0.83823 0.88598 0.97471 -0.13000
C 	C 	0.87988 0.00476 0.49154 0.10500
N 	N 	0.81866 0.89812 0.49056 -0.12800
C 	C 	0.86805 0.85054 0.49082 0.11400
N 	N 	0.97877 0.90924 0.49232 -0.12000
