data_crystal

_cell_length_a 16.43022
_cell_length_b 16.80043
_cell_length_c 23.62640
_cell_angle_alpha 90.28941
_cell_angle_beta  90.28931
_cell_angle_gamma 119.99315

_symmetry_space_group_name_	'P 1'
_symmetry_space_group_name_H-M	'P 1'

loop_
_symmetry_equiv_pos_as_xyz
  x,y,z

loop_
_atom_site_label
_atom_site_type_symbol
_atom_site_fract_x
_atom_site_fract_y
_atom_site_fract_z
_atom_site_charge
C 	C 	0.01799 0.76061 0.22814 0.19600
Ni	Ni	0.07890 0.88081 0.12835 1.11000
O 	O 	0.10499 0.79022 0.24416 -0.34600
O 	O 	0.01290 0.70034 0.05431 -0.34200
C 	C 	0.06694 0.25255 0.24387 0.15000
C 	C 	0.01539 0.24793 0.02476 0.21500
Ni	Ni	0.10154 0.22212 0.12925 1.11700
O 	O 	0.04988 0.33604 0.03474 -0.34700
O 	O 	0.08949 0.33970 0.24458 -0.31600
O 	O 	0.02252 0.21028 0.19600 -0.32700
H 	H 	0.08901 0.35087 0.14106 0.14900
C 	C 	0.01799 0.76061 0.72814 0.19900
Ni	Ni	0.07890 0.88081 0.62835 1.11100
O 	O 	0.10499 0.79022 0.74416 -0.34600
O 	O 	0.01290 0.70034 0.55431 -0.34000
C 	C 	0.06694 0.25255 0.74387 0.15100
C 	C 	0.01539 0.24793 0.52476 0.19400
Ni	Ni	0.10154 0.22212 0.62925 1.11600
O 	O 	0.04988 0.33604 0.53474 -0.34800
O 	O 	0.08949 0.33970 0.74458 -0.31600
O 	O 	0.02252 0.21028 0.69600 -0.32800
H 	H 	0.08901 0.35087 0.64106 0.14900
O 	O 	0.00410 0.19228 0.06727 -0.35000
O 	O 	0.00410 0.19228 0.56727 -0.34900
C 	C 	0.16308 0.63363 0.13894 0.20700
Ni	Ni	0.15621 0.76536 0.05892 1.11600
O 	O 	0.16590 0.87071 0.00778 -0.33200
O 	O 	0.16980 0.97723 0.07387 -0.33900
O 	O 	0.12119 0.64354 0.09537 -0.33300
O 	O 	0.17131 0.67923 0.18649 -0.33600
O 	O 	0.13458 0.96136 0.20042 -0.34600
O 	O 	0.16441 0.83399 0.12304 -0.71300
C 	C 	0.16794 0.55747 0.14072 0.20200
C 	C 	0.16723 0.25143 0.24414 0.17300
Ni	Ni	0.17898 0.41761 0.06613 1.12000
O 	O 	0.18204 0.53111 0.19013 -0.34200
O 	O 	0.13104 0.49875 0.09764 -0.33700
O 	O 	0.16972 0.21233 0.19612 -0.32800
O 	O 	0.15060 0.35454 0.13663 -0.68400
O 	O 	0.17321 0.02281 0.31206 -0.33900
O 	O 	0.17789 0.15328 0.45959 -0.34300
O 	O 	0.16949 0.18902 0.34020 -0.35700
C 	C 	0.16308 0.63363 0.63894 0.20700
Ni	Ni	0.15621 0.76536 0.55892 1.11500
O 	O 	0.16590 0.87071 0.50778 -0.33100
O 	O 	0.16980 0.97723 0.57387 -0.33500
O 	O 	0.12119 0.64354 0.59537 -0.33500
O 	O 	0.17131 0.67923 0.68649 -0.33700
O 	O 	0.13458 0.96136 0.70042 -0.34600
O 	O 	0.16441 0.83399 0.62304 -0.71300
C 	C 	0.16794 0.55747 0.64072 0.20200
C 	C 	0.16723 0.25143 0.74414 0.17300
Ni	Ni	0.17898 0.41761 0.56613 1.11900
O 	O 	0.18204 0.53111 0.69013 -0.34300
O 	O 	0.13104 0.49875 0.59764 -0.34000
O 	O 	0.16972 0.21233 0.69612 -0.32900
O 	O 	0.15060 0.35454 0.63663 -0.68300
O 	O 	0.17321 0.02281 0.81206 -0.34000
O 	O 	0.17789 0.15328 0.95959 -0.34300
O 	O 	0.16949 0.18902 0.84020 -0.35800
O 	O 	0.19616 0.22654 0.07363 -0.34600
O 	O 	0.19616 0.22654 0.57363 -0.34400
C 	C 	0.19369 0.95649 0.02396 0.23500
C 	C 	0.21300 0.97934 0.22803 0.23000
Ni	Ni	0.21035 0.81524 0.19260 1.12600
H 	H 	0.22356 0.88993 0.11367 0.16300
C 	C 	0.21307 0.26852 0.02418 0.21900
Ni	Ni	0.20876 0.42563 0.20475 1.12000
O 	O 	0.23485 0.33620 0.24458 -0.32100
C 	C 	0.20063 0.20858 0.28810 0.25500
Ni	Ni	0.19416 0.09987 0.38484 1.11400
O 	O 	0.19948 0.00403 0.43356 -0.34300
C 	C 	0.19369 0.95649 0.52396 0.20700
C 	C 	0.21300 0.97934 0.72803 0.23000
Ni	Ni	0.21035 0.81524 0.69260 1.12600
H 	H 	0.22356 0.88993 0.61367 0.16300
C 	C 	0.21307 0.26852 0.52418 0.19800
Ni	Ni	0.20876 0.42563 0.70475 1.12000
O 	O 	0.23485 0.33620 0.74458 -0.32200
C 	C 	0.20063 0.20858 0.78810 0.25500
Ni	Ni	0.19416 0.09987 0.88484 1.11300
O 	O 	0.19948 0.00403 0.93356 -0.33800
O 	O 	0.00128 0.19037 0.33800 -0.36400
O 	O 	0.00128 0.19037 0.83800 -0.36400
O 	O 	0.23671 0.35583 0.02163 -0.33700
C 	C 	0.23359 0.02118 0.48612 0.20300
C 	C 	0.23865 0.23439 0.48130 0.22100
C 	C 	0.23877 0.02952 0.27559 0.19100
O 	O 	0.23671 0.35583 0.52163 -0.33700
C 	C 	0.23359 0.02118 0.98612 0.16200
C 	C 	0.23865 0.23439 0.98130 0.19900
C 	C 	0.23877 0.02952 0.77560 0.19000
O 	O 	0.99771 0.82545 0.05550 -0.33800
O 	O 	0.99771 0.82545 0.55550 -0.33700
C 	C 	0.97590 0.74531 0.03317 0.25900
O 	O 	0.99544 0.77035 0.17553 -0.33400
C 	C 	0.97590 0.74531 0.53317 0.23700
O 	O 	0.99544 0.77035 0.67553 -0.33500
C 	C 	0.42057 0.80609 0.11172 0.21100
C 	C 	0.72972 0.80345 0.00780 0.19100
C 	C 	0.43464 0.62352 0.12897 0.20500
C 	C 	0.72974 0.90264 0.00873 0.15900
C 	C 	0.71359 0.75538 0.22706 0.20900
C 	C 	0.73867 0.96330 0.22296 0.23000
Ni	Ni	0.55363 0.76477 0.04874 1.12300
Ni	Ni	0.76238 0.86594 0.12253 1.11700
Ni	Ni	0.56612 0.79934 0.18667 1.12000
O 	O 	0.44606 0.79001 0.06279 -0.34700
O 	O 	0.48107 0.84297 0.15433 -0.34000
O 	O 	0.74750 0.76580 0.17523 -0.35000
O 	O 	0.64300 0.73816 0.00946 -0.32300
O 	O 	0.77260 0.80169 0.05444 -0.32800
O 	O 	0.64950 0.92942 0.21043 -0.34900
O 	O 	0.49126 0.64069 0.08689 -0.33400
O 	O 	0.46514 0.66673 0.17743 -0.34800
O 	O 	0.79703 0.96075 0.18551 -0.35400
O 	O 	0.64082 0.88109 0.00806 -0.31600
O 	O 	0.77336 0.94464 0.05695 -0.31800
O 	O 	0.63430 0.75471 0.23730 -0.34000
O 	O 	0.62812 0.82240 0.11576 -0.68600
H 	H 	0.63294 0.88293 0.11056 0.15500
C 	C 	0.34463 0.81338 0.11288 0.19400
O 	O 	0.26622 0.94800 0.20951 -0.34500
O 	O 	0.29930 0.80713 0.06454 -0.33000
O 	O 	0.33345 0.85264 0.15762 -0.34100
C 	C 	0.35553 0.54717 0.12770 0.20800
O 	O 	0.33744 0.49015 0.16891 -0.33800
O 	O 	0.31211 0.51919 0.07892 -0.34800
C 	C 	0.95204 0.72092 0.26590 0.21900
C 	C 	0.58418 0.45510 0.36893 0.22200
C 	C 	0.74753 0.72435 0.26714 0.21600
C 	C 	0.79609 0.42952 0.37547 0.19600
C 	C 	0.76524 0.76411 0.46264 0.25500
C 	C 	0.93230 0.71852 0.48273 0.18700
Ni	Ni	0.76122 0.55980 0.30086 1.11300
Ni	Ni	0.75697 0.57431 0.43566 1.11800
Ni	Ni	0.87746 0.76299 0.36815 1.11600
O 	O 	0.87325 0.64683 0.25034 -0.33200
O 	O 	0.97090 0.74966 0.31940 -0.33900
O 	O 	0.74564 0.67769 0.47506 -0.33300
O 	O 	0.63381 0.45240 0.32686 -0.34500
O 	O 	0.62254 0.52130 0.40719 -0.34100
O 	O 	0.95387 0.78035 0.44149 -0.32700
O 	O 	0.69827 0.63779 0.28280 -0.32700
O 	O 	0.82656 0.78307 0.29335 -0.34200
O 	O 	0.88439 0.62951 0.47128 -0.34300
O 	O 	0.81612 0.47442 0.32601 -0.32000
O 	O 	0.75420 0.45038 0.41746 -0.32000
O 	O 	0.79392 0.79849 0.41204 -0.35300
O 	O 	0.81236 0.63021 0.36742 -0.71700
H 	H 	0.86750 0.62187 0.37069 0.15600
C 	C 	0.60870 0.15474 0.37810 0.20200
C 	C 	0.96315 0.21316 0.47809 0.21800
C 	C 	0.80656 0.35246 0.38104 0.21600
C 	C 	0.77093 0.97988 0.46699 0.26900
C 	C 	0.99049 0.21350 0.28722 0.26400
C 	C 	0.77374 0.02400 0.26491 0.18700
Ni	Ni	0.77583 0.17640 0.44544 1.10600
Ni	Ni	0.88840 0.08919 0.37561 1.11300
Ni	Ni	0.79232 0.19554 0.31274 1.11500
O 	O 	0.63363 0.12105 0.42199 -0.33000
O 	O 	0.65784 0.17627 0.32941 -0.32300
O 	O 	0.91834 0.25262 0.45824 -0.34100
O 	O 	0.95308 0.13768 0.45364 -0.34000
O 	O 	0.73113 0.07141 0.27637 -0.34300
O 	O 	0.77851 0.30294 0.42817 -0.32200
O 	O 	0.84648 0.32913 0.34057 -0.33400
O 	O 	0.84153 0.02625 0.29804 -0.34400
O 	O 	0.76969 0.05733 0.48475 -0.33300
O 	O 	0.79734 0.97273 0.41586 -0.35200
O 	O 	0.91829 0.22815 0.27497 -0.33300
O 	O 	0.80042 0.13605 0.37807 -0.72100
H 	H 	0.74085 0.07688 0.37533 0.15700
C 	C 	0.50667 0.37789 0.38150 0.21600
C 	C 	0.53089 0.16684 0.38185 0.20100
Ni	Ni	0.39983 0.20882 0.45209 1.11300
Ni	Ni	0.38707 0.20562 0.31696 1.11800
O 	O 	0.30280 0.10269 0.50276 -0.33300
O 	O 	0.28003 0.20917 0.27305 -0.33500
O 	O 	0.51168 0.32963 0.42315 -0.34200
O 	O 	0.43966 0.33837 0.34279 -0.33800
O 	O 	0.32651 0.27807 0.46482 -0.32900
O 	O 	0.32933 0.07661 0.28844 -0.34500
O 	O 	0.48407 0.15007 0.43083 -0.32500
O 	O 	0.51284 0.20888 0.33896 -0.32200
O 	O 	0.32903 0.15654 0.38596 -0.72000
H 	H 	0.33488 0.10097 0.38539 0.16000
C 	C 	0.42057 0.80609 0.61172 0.21000
C 	C 	0.72972 0.80345 0.50779 0.18000
C 	C 	0.43464 0.62351 0.62897 0.20500
C 	C 	0.72975 0.90264 0.50873 0.14900
C 	C 	0.71359 0.75538 0.72707 0.20900
C 	C 	0.73867 0.96330 0.72296 0.23100
Ni	Ni	0.55363 0.76477 0.54874 1.12200
Ni	Ni	0.76238 0.86594 0.62253 1.11700
Ni	Ni	0.56612 0.79934 0.68667 1.12000
O 	O 	0.44606 0.79001 0.56279 -0.35000
O 	O 	0.48107 0.84297 0.65433 -0.34100
O 	O 	0.74750 0.76580 0.67523 -0.35100
O 	O 	0.64300 0.73816 0.50946 -0.32700
O 	O 	0.77260 0.80169 0.55444 -0.33000
O 	O 	0.64950 0.92942 0.71043 -0.35000
O 	O 	0.49126 0.64069 0.58689 -0.33600
O 	O 	0.46514 0.66673 0.67743 -0.34800
O 	O 	0.79703 0.96075 0.68551 -0.35400
O 	O 	0.64082 0.88109 0.50806 -0.31900
O 	O 	0.77336 0.94464 0.55694 -0.32000
O 	O 	0.63430 0.75471 0.73730 -0.34100
O 	O 	0.62812 0.82240 0.61576 -0.68600
H 	H 	0.63294 0.88293 0.61056 0.15400
C 	C 	0.34463 0.81338 0.61288 0.19400
O 	O 	0.26622 0.94800 0.70951 -0.34600
O 	O 	0.29930 0.80713 0.56454 -0.33200
O 	O 	0.33345 0.85264 0.65762 -0.34200
C 	C 	0.35553 0.54717 0.62770 0.20800
O 	O 	0.33744 0.49015 0.66891 -0.33900
O 	O 	0.31211 0.51919 0.57892 -0.35000
C 	C 	0.95204 0.72092 0.76590 0.21800
C 	C 	0.58418 0.45510 0.86893 0.22200
C 	C 	0.74753 0.72435 0.76714 0.21500
C 	C 	0.79609 0.42952 0.87547 0.19600
C 	C 	0.76524 0.76411 0.96264 0.24200
C 	C 	0.93230 0.71852 0.98273 0.16500
Ni	Ni	0.76122 0.55980 0.80086 1.11300
Ni	Ni	0.75697 0.57431 0.93566 1.11700
Ni	Ni	0.87746 0.76299 0.86815 1.11500
O 	O 	0.87325 0.64684 0.75034 -0.33200
O 	O 	0.97090 0.74966 0.81940 -0.34000
O 	O 	0.74564 0.67769 0.97506 -0.33600
O 	O 	0.63381 0.45240 0.82686 -0.34500
O 	O 	0.62254 0.52130 0.90719 -0.34400
O 	O 	0.95387 0.78035 0.94149 -0.32600
O 	O 	0.69827 0.63779 0.78280 -0.32800
O 	O 	0.82656 0.78307 0.79334 -0.34300
O 	O 	0.88439 0.62951 0.97128 -0.34300
O 	O 	0.81612 0.47442 0.82601 -0.32000
O 	O 	0.75420 0.45038 0.91746 -0.32200
O 	O 	0.79392 0.79849 0.91204 -0.35300
O 	O 	0.81236 0.63021 0.86742 -0.71700
H 	H 	0.86750 0.62187 0.87069 0.15600
C 	C 	0.60870 0.15474 0.87810 0.20100
C 	C 	0.96315 0.21316 0.97809 0.19600
C 	C 	0.80656 0.35246 0.88104 0.21600
C 	C 	0.77093 0.97988 0.96699 0.25600
C 	C 	0.99049 0.21350 0.78722 0.26300
C 	C 	0.77374 0.02400 0.76491 0.18600
Ni	Ni	0.77583 0.17640 0.94544 1.10400
Ni	Ni	0.88840 0.08919 0.87561 1.11200
Ni	Ni	0.79232 0.19554 0.81274 1.11500
O 	O 	0.63363 0.12105 0.92199 -0.33300
O 	O 	0.65784 0.17627 0.82941 -0.32400
O 	O 	0.91834 0.25262 0.95824 -0.34100
O 	O 	0.95308 0.13768 0.95364 -0.33900
O 	O 	0.73113 0.07141 0.77637 -0.34300
O 	O 	0.77851 0.30294 0.92817 -0.32500
O 	O 	0.84648 0.32913 0.84057 -0.33500
O 	O 	0.84153 0.02625 0.79804 -0.34500
O 	O 	0.76969 0.05733 0.98475 -0.33600
O 	O 	0.79734 0.97273 0.91586 -0.35200
O 	O 	0.91829 0.22815 0.77497 -0.33300
O 	O 	0.80042 0.13605 0.87808 -0.72100
H 	H 	0.74085 0.07688 0.87533 0.15700
C 	C 	0.50667 0.37789 0.88150 0.21500
C 	C 	0.53089 0.16684 0.88185 0.20100
Ni	Ni	0.39983 0.20882 0.95209 1.10900
Ni	Ni	0.38707 0.20563 0.81696 1.11800
O 	O 	0.30280 0.10269 0.00276 -0.30800
O 	O 	0.28003 0.20917 0.77305 -0.33500
O 	O 	0.51168 0.32963 0.92315 -0.34500
O 	O 	0.43966 0.33837 0.84279 -0.33900
O 	O 	0.32651 0.27807 0.96482 -0.33000
O 	O 	0.32933 0.07661 0.78844 -0.34600
O 	O 	0.48407 0.15007 0.93083 -0.32900
O 	O 	0.51284 0.20888 0.83896 -0.32200
O 	O 	0.32903 0.15654 0.88596 -0.72000
H 	H 	0.33488 0.10097 0.88539 0.15900
