data_crystal

_cell_length_a 25.93837
_cell_length_b 26.66383
_cell_length_c 26.35702
_cell_angle_alpha 95.49006
_cell_angle_beta  95.48991
_cell_angle_gamma 125.81958

_symmetry_space_group_name_	'P 1'
_symmetry_space_group_name_H-M	'P 1'

loop_
_symmetry_equiv_pos_as_xyz
  x,y,z

loop_
_atom_site_label
_atom_site_type_symbol
_atom_site_fract_x
_atom_site_fract_y
_atom_site_fract_z
_atom_site_charge
C 	C 	0.96191 0.02077 0.98910 0.10900
N 	N 	0.92243 0.95698 0.98161 -0.11100
C 	C 	0.94792 0.92484 0.98134 0.12700
N 	N 	0.01295 0.95639 0.98828 -0.10600
C 	C 	0.05269 0.02023 0.99626 0.16000
N 	N 	0.02715 0.05254 0.99682 -0.11600
C 	C 	0.94592 0.00797 0.45543 0.10700
N 	N 	0.00948 0.04178 0.45207 -0.11700
C 	C 	0.04047 0.01490 0.45488 0.12500
N 	N 	0.00782 0.95402 0.46065 -0.10700
C 	C 	0.94460 0.92037 0.46519 0.12600
N 	N 	0.91373 0.94758 0.46292 -0.11500
Cu	Cu	0.65199 0.25716 0.00177 0.91500
Cu	Cu	0.65944 0.22016 0.88223 0.89000
Cu	Cu	0.64733 0.33221 0.92374 0.91900
Cu	Cu	0.64176 0.36840 0.03436 0.89100
C 	C 	0.67648 0.30953 0.10941 0.33300
O 	O 	0.56094 0.21001 0.01693 -0.34500
C 	C 	0.64978 0.29843 0.82071 0.33200
O 	O 	0.68671 0.34947 0.99464 -0.60300
O 	O 	0.61911 0.24509 0.92709 -0.62200
O 	O 	0.70993 0.23084 0.99717 -0.33700
O 	O 	0.65479 0.16172 0.92044 -0.39700
O 	O 	0.66967 0.35384 0.10138 -0.36200
O 	O 	0.68158 0.41830 0.92164 -0.34500
C 	C 	0.68707 0.45698 0.96060 0.29100
C 	C 	0.52541 0.22952 0.00712 0.26300
O 	O 	0.55060 0.28358 0.99211 -0.35000
O 	O 	0.65303 0.43551 0.99770 -0.35800
O 	O 	0.69132 0.28430 0.07358 -0.34900
C 	C 	0.69561 0.18224 0.96420 0.29200
O 	O 	0.62051 0.31321 0.84956 -0.35400
O 	O 	0.68877 0.28700 0.84256 -0.40300
H 	H 	0.73428 0.38180 0.00197 0.15600
H 	H 	0.57141 0.21427 0.91784 0.17900
Cu	Cu	0.75304 0.35265 0.43537 0.93300
Cu	Cu	0.74939 0.30427 0.54538 0.88100
Cu	Cu	0.65107 0.32059 0.50138 0.90400
Cu	Cu	0.62824 0.34233 0.39572 0.90600
C 	C 	0.70479 0.32890 0.32664 0.33100
O 	O 	0.78520 0.44272 0.43401 -0.34000
C 	C 	0.68633 0.33159 0.61331 0.32400
O 	O 	0.65189 0.29793 0.43019 -0.63800
O 	O 	0.74590 0.36244 0.50891 -0.63700
O 	O 	0.80399 0.31881 0.44145 -0.34600
O 	O 	0.73692 0.24717 0.48811 -0.41900
O 	O 	0.67780 0.35659 0.33858 -0.36300
O 	O 	0.55792 0.27360 0.49221 -0.35600
C 	C 	0.51884 0.26837 0.45243 0.29800
C 	C 	0.75438 0.46449 0.45112 0.28300
O 	O 	0.69354 0.42509 0.45558 -0.38000
O 	O 	0.54055 0.29886 0.41370 -0.36800
O 	O 	0.74400 0.32875 0.36228 -0.33600
C 	C 	0.78047 0.26601 0.45849 0.29200
O 	O 	0.65292 0.33701 0.57600 -0.34700
O 	O 	0.74030 0.33933 0.60744 -0.39100
H 	H 	0.62525 0.25206 0.41667 0.18800
H 	H 	0.77306 0.40630 0.52848 0.19100
C 	C 	0.70273 0.36978 0.75805 0.10800
C 	C 	0.65240 0.31054 0.76745 -0.11000
C 	C 	0.60707 0.26172 0.72561 0.10200
C 	C 	0.61536 0.27031 0.67438 0.10000
C 	C 	0.66923 0.32764 0.66515 -0.10300
C 	C 	0.71094 0.37843 0.70682 0.10600
Br	Br	0.77875 0.45979 0.69354 -0.16500
Br	Br	0.76088 0.43865 0.81542 -0.17300
Br	Br	0.55440 0.20289 0.61685 -0.19600
Br	Br	0.53458 0.18269 0.73869 -0.20400
C 	C 	0.74959 0.34582 0.19473 0.10800
C 	C 	0.68767 0.30318 0.16339 -0.10200
C 	C 	0.63518 0.25905 0.18537 0.10300
C 	C 	0.64282 0.26289 0.23949 0.10300
C 	C 	0.70268 0.31113 0.27146 -0.10200
C 	C 	0.75728 0.34931 0.24884 0.10700
Br	Br	0.84221 0.40647 0.29177 -0.15700
Br	Br	0.82326 0.40069 0.16362 -0.17600
Br	Br	0.57129 0.20289 0.27021 -0.20400
Br	Br	0.55280 0.19422 0.14150 -0.18600
C 	C 	0.91393 0.77640 0.51126 -0.02400
C 	C 	0.85685 0.72746 0.47635 0.01600
C 	C 	0.82337 0.74196 0.44292 -0.02300
C 	C 	0.85125 0.80523 0.43954 -0.00200
C 	C 	0.90983 0.85434 0.47317 -0.01100
C 	C 	0.93832 0.83956 0.51153 0.00400
C 	C 	0.83457 0.66101 0.47194 0.02600
C 	C 	0.76079 0.69167 0.41145 0.10400
C 	C 	0.99178 0.88917 0.55183 0.08800
C 	C 	0.80215 0.62532 0.50943 -0.03500
C 	C 	0.78085 0.56249 0.50478 0.02500
C 	C 	0.78582 0.53315 0.45987 -0.07200
C 	C 	0.81651 0.56855 0.42155 0.02500
C 	C 	0.84439 0.63325 0.42935 -0.03600
C 	C 	0.78986 0.65292 0.55228 0.11100
C 	C 	0.81513 0.53764 0.37253 0.09800
C 	C 	0.75462 0.52835 0.54640 0.09000
C 	C 	0.88277 0.67127 0.39333 0.10800
C 	C 	0.94839 0.76183 0.54593 0.10600
C 	C 	0.82122 0.81953 0.40003 0.10600
N 	N 	0.73363 0.50106 0.57957 -0.08800
N 	N 	0.78009 0.67500 0.58645 -0.09400
N 	N 	0.81392 0.51311 0.33329 -0.08200
N 	N 	0.91339 0.70166 0.36462 -0.09900
N 	N 	0.71086 0.65148 0.38635 -0.09800
N 	N 	0.79728 0.83094 0.36851 -0.09200
N 	N 	0.03442 0.92871 0.58403 -0.06900
N 	N 	0.97584 0.75013 0.57359 -0.09600
C 	C 	0.88943 0.21479 0.45816 -0.03000
C 	C 	0.84340 0.14956 0.43912 0.02400
C 	C 	0.77864 0.12456 0.41958 -0.03600
C 	C 	0.75932 0.16424 0.42160 0.02600
C 	C 	0.80394 0.22828 0.44547 -0.07500
C 	C 	0.86961 0.25404 0.46204 0.02000
C 	C 	0.86280 0.10684 0.44146 0.01400
C 	C 	0.73180 0.05791 0.39818 0.10700
C 	C 	0.91632 0.32040 0.48460 0.08600
C 	C 	0.86544 0.08537 0.48787 -0.02300
C 	C 	0.89062 0.05092 0.49202 -0.00700
C 	C 	0.91147 0.03640 0.44925 -0.00900
C 	C 	0.90389 0.05351 0.40158 -0.00600
C 	C 	0.88085 0.08984 0.39800 -0.02200
C 	C 	0.84289 0.09939 0.53144 0.09900
C 	C 	0.91915 0.03313 0.35615 0.09900
C 	C 	0.89665 0.03187 0.54064 0.09900
C 	C 	0.87653 0.11047 0.34987 0.10300
C 	C 	0.95698 0.24125 0.47443 0.08800
C 	C 	0.69381 0.13950 0.39858 0.09300
N 	N 	0.90150 0.01666 0.57942 -0.09900
N 	N 	0.82488 0.11063 0.56618 -0.10500
N 	N 	0.93132 0.01684 0.31991 -0.09900
N 	N 	0.87305 0.12697 0.31149 -0.09700
N 	N 	0.69448 0.00470 0.38110 -0.10100
N 	N 	0.64157 0.11982 0.38021 -0.09500
N 	N 	0.95360 0.37334 0.50261 -0.09900
N 	N 	0.01086 0.26227 0.48740 -0.08000
C 	C 	0.22227 0.11959 0.50128 -0.02200
C 	C 	0.24413 0.12297 0.45385 0.01600
C 	C 	0.19907 0.09142 0.40667 -0.02500
C 	C 	0.13221 0.05597 0.40698 0.00600
C 	C 	0.11041 0.05277 0.45441 -0.01300
C 	C 	0.15549 0.08519 0.50151 -0.00100
C 	C 	0.31491 0.16041 0.45357 0.02700
C 	C 	0.22165 0.09556 0.35790 0.10500
C 	C 	0.13308 0.08374 0.55009 0.10500
C 	C 	0.34557 0.13082 0.45381 -0.03400
C 	C 	0.41236 0.16612 0.45320 0.02700
C 	C 	0.44888 0.23140 0.45346 -0.06700
C 	C 	0.41841 0.26125 0.45445 0.02700
C 	C 	0.35129 0.22555 0.45357 -0.03500
C 	C 	0.30826 0.06402 0.45466 0.11000
C 	C 	0.45642 0.32890 0.45780 0.09700
C 	C 	0.44331 0.13514 0.45139 0.09600
C 	C 	0.31953 0.25575 0.45269 0.11000
C 	C 	0.26859 0.15150 0.54979 0.10700
C 	C 	0.08578 0.02267 0.35858 0.08400
N 	N 	0.46804 0.11047 0.44996 -0.09700
N 	N 	0.27842 0.01072 0.45534 -0.09800
N 	N 	0.48675 0.38287 0.46048 -0.09400
N 	N 	0.29411 0.27977 0.45198 -0.09600
N 	N 	0.23974 0.09891 0.31901 -0.09700
N 	N 	0.04873 0.99607 0.31997 -0.06600
N 	N 	0.11517 0.08263 0.58882 -0.09000
N 	N 	0.30562 0.17699 0.58846 -0.09200
C 	C 	0.82459 0.62738 0.96197 -0.02800
C 	C 	0.79130 0.65427 0.95890 0.02300
C 	C 	0.72323 0.61562 0.95260 -0.03000
C 	C 	0.68867 0.55046 0.95147 0.02800
C 	C 	0.72235 0.52414 0.95748 -0.06300
C 	C 	0.79017 0.56238 0.96137 0.02600
C 	C 	0.82829 0.72377 0.96427 0.04100
C 	C 	0.68894 0.64309 0.94763 0.11400
C 	C 	0.82458 0.53494 0.96566 0.09700
C 	C 	0.84366 0.75188 0.92000 -0.02400
C 	C 	0.88210 0.81793 0.92551 -0.00500
C 	C 	0.90514 0.85580 0.97528 0.01600
C 	C 	0.88809 0.82763 0.01937 -0.02600
C 	C 	0.84969 0.76162 0.01388 -0.04700
C 	C 	0.82020 0.71277 0.86890 0.10900
C 	C 	0.91018 0.86668 0.07036 0.10200
C 	C 	0.89808 0.84703 0.88007 0.10800
C 	C 	0.83245 0.73251 0.05922 0.10000
C 	C 	0.89435 0.66686 0.96625 0.11500
C 	C 	0.61851 0.51031 0.94306 0.10400
N 	N 	0.91088 0.87032 0.84386 -0.08900
N 	N 	0.80145 0.68149 0.82816 -0.09100
N 	N 	0.92782 0.89789 0.11100 -0.09300
N 	N 	0.81865 0.70920 0.09535 -0.10300
N 	N 	0.66165 0.66508 0.94367 -0.09100
N 	N 	0.56253 0.47829 0.93635 -0.08800
N 	N 	0.85198 0.51301 0.96905 -0.09300
N 	N 	0.95001 0.69843 0.96966 -0.09200
C 	C 	0.86924 0.07891 0.93576 -0.02600
C 	C 	0.85998 0.10163 0.98193 0.04000
C 	C 	0.89035 0.10409 0.03045 -0.04700
C 	C 	0.92696 0.08063 0.03284 -0.03000
C 	C 	0.93358 0.05514 0.98670 0.01700
C 	C 	0.90663 0.05634 0.93817 -0.00900
C 	C 	0.81807 0.12297 0.97937 0.02000
C 	C 	0.88335 0.13023 0.07783 0.10000
C 	C 	0.91711 0.03392 0.89076 0.10100
C 	C 	0.75162 0.08027 0.98084 -0.02400
C 	C 	0.71157 0.09987 0.97655 0.02400
C 	C 	0.73774 0.16194 0.97007 -0.07200
C 	C 	0.80421 0.20453 0.96834 0.02500
C 	C 	0.84448 0.18535 0.97396 -0.03000
C 	C 	0.72458 0.01616 0.98656 0.09200
C 	C 	0.83071 0.26748 0.95922 0.08200
C 	C 	0.64362 0.05643 0.97926 0.10000
C 	C 	0.91312 0.22967 0.97394 0.11100
C 	C 	0.83966 0.07818 0.88586 0.10200
C 	C 	0.95676 0.08152 0.08271 0.09700
N 	N 	0.58939 0.02178 0.98142 -0.08800
N 	N 	0.70308 0.96502 0.99114 -0.07300
N 	N 	0.85183 0.31767 0.95193 -0.10000
N 	N 	0.96789 0.26497 0.97392 -0.09500
N 	N 	0.87771 0.15110 0.11560 -0.10000
N 	N 	0.98055 0.08218 0.12247 -0.10100
N 	N 	0.92551 0.01601 0.85299 -0.09700
N 	N 	0.81602 0.07762 0.84607 -0.10300
C 	C 	0.22085 0.07117 0.04949 -0.03100
C 	C 	0.25593 0.10636 0.01276 -0.00100
C 	C 	0.22528 0.11699 0.97260 -0.00800
C 	C 	0.15892 0.09003 0.96779 0.03200
C 	C 	0.12364 0.05430 0.00429 -0.07000
C 	C 	0.15532 0.04679 0.04616 0.01800
C 	C 	0.32577 0.13352 0.01695 0.00000
C 	C 	0.26211 0.15549 0.93619 0.10800
C 	C 	0.12072 0.01489 0.08624 0.07200
C 	C 	0.34436 0.10259 0.98594 -0.00400
C 	C 	0.41044 0.13241 0.98471 0.04500
C 	C 	0.45789 0.19244 0.01554 -0.08700
C 	C 	0.43949 0.22006 0.05065 0.02700
C 	C 	0.37345 0.19146 0.05040 -0.03200
C 	C 	0.29542 0.04057 0.95483 0.09100
C 	C 	0.48861 0.27765 0.08730 0.08200
C 	C 	0.42942 0.10215 0.95079 0.09500
C 	C 	0.35445 0.22216 0.08376 0.10400
C 	C 	0.25216 0.05975 0.09047 0.10500
C 	C 	0.12655 0.09761 0.92453 0.09900
N 	N 	0.44459 0.07803 0.92373 -0.09800
N 	N 	0.25629 0.99108 0.93003 -0.07000
N 	N 	0.52782 0.32356 0.11655 -0.10800
N 	N 	0.33921 0.24658 0.11036 -0.10000
N 	N 	0.29157 0.18623 0.90717 -0.09300
N 	N 	0.10068 0.10363 0.89005 -0.08600
N 	N 	0.09310 0.98945 0.11821 -0.06800
N 	N 	0.27722 0.05070 0.12315 -0.09600
