data_crystal

_cell_length_a 28.02642
_cell_length_b 24.45856
_cell_length_c 47.23310
_cell_angle_alpha 90.50121
_cell_angle_beta  90.59137
_cell_angle_gamma 113.42029

_symmetry_space_group_name_	'P 1'
_symmetry_space_group_name_H-M	'P 1'

loop_
_symmetry_equiv_pos_as_xyz
  x,y,z

loop_
_atom_site_label
_atom_site_type_symbol
_atom_site_fract_x
_atom_site_fract_y
_atom_site_fract_z
_atom_site_charge
Ni	Ni	0.72831 0.35403 0.90275 1.10800
O 	O 	0.66181 0.31750 0.87885 -0.70400
Ni	Ni	0.61172 0.33549 0.90304 1.10700
O 	O 	0.76835 0.32714 0.87341 -0.35000
O 	O 	0.71046 0.23008 0.87676 -0.38200
O 	O 	0.74145 0.42938 0.87968 -0.37700
Ni	Ni	0.63665 0.23188 0.87368 1.07200
O 	O 	0.75929 0.42114 0.96462 -0.36900
O 	O 	0.63025 0.21572 0.91603 -0.38800
O 	O 	0.55147 0.30600 0.87498 -0.34500
O 	O 	0.67513 0.35997 0.92933 -0.70300
O 	O 	0.79632 0.39678 0.92547 -0.34700
O 	O 	0.57374 0.37567 0.92705 -0.33300
O 	O 	0.64517 0.46360 0.92816 -0.38100
Ni	Ni	0.70229 0.43993 0.94605 1.09800
H 	H 	0.66502 0.33703 0.86029 0.16200
H 	H 	0.66937 0.33050 0.94452 0.19100
C 	C 	0.59020 0.21610 0.92987 0.39700
O 	O 	0.75638 0.49188 0.91808 -0.35500
C 	C 	0.75277 0.27060 0.86576 0.27300
C 	C 	0.54026 0.25507 0.86111 0.28100
C 	C 	0.75473 0.48313 0.89058 0.32700
C 	C 	0.59560 0.43291 0.93332 0.38000
C 	C 	0.80053 0.42341 0.95052 0.40700
O 	O 	0.57359 0.25886 0.92585 -0.33200
O 	O 	0.55915 0.21613 0.87011 -0.37300
Ni	Ni	0.61223 0.33895 0.56008 1.10700
O 	O 	0.67667 0.35976 0.53550 -0.70000
Ni	Ni	0.72878 0.35633 0.56415 1.10700
O 	O 	0.57576 0.37681 0.53362 -0.33200
O 	O 	0.64835 0.46346 0.53219 -0.37700
O 	O 	0.57487 0.26037 0.53769 -0.33100
Ni	Ni	0.70530 0.43681 0.51702 1.09500
O 	O 	0.55646 0.22140 0.59298 -0.37100
O 	O 	0.75716 0.49063 0.54655 -0.35400
O 	O 	0.79829 0.39600 0.54296 -0.33900
O 	O 	0.66113 0.32304 0.58639 -0.70300
O 	O 	0.55034 0.31182 0.58649 -0.34600
O 	O 	0.76695 0.33234 0.59574 -0.34900
O 	O 	0.70815 0.23538 0.59289 -0.38000
Ni	Ni	0.63450 0.23783 0.59252 1.07300
H 	H 	0.67109 0.32821 0.52104 0.18800
H 	H 	0.66386 0.34451 0.60461 0.16200
C 	C 	0.75012 0.48477 0.57387 0.31700
O 	O 	0.63081 0.21799 0.55055 -0.39100
C 	C 	0.59876 0.43286 0.52618 0.38100
C 	C 	0.80417 0.41988 0.51736 0.39600
C 	C 	0.59201 0.21779 0.53486 0.40000
C 	C 	0.74987 0.27700 0.60471 0.27600
C 	C 	0.53574 0.26017 0.59961 0.29700
O 	O 	0.74184 0.43383 0.58597 -0.37800
O 	O 	0.76370 0.41658 0.50161 -0.36500
C 	C 	0.04300 0.99546 0.70330 -0.04000
H 	H 	0.03993 0.99544 0.67981 0.04800
C 	C 	0.05045 0.99514 0.75971 -0.04800
H 	H 	0.05375 0.99504 0.78319 0.05200
C 	C 	0.02637 0.04023 0.71880 -0.00900
C 	C 	0.01021 0.93592 0.71722 -0.00900
C 	C 	0.09802 0.01013 0.71505 -0.00400
C 	C 	0.03002 0.04008 0.74770 0.01600
C 	C 	0.01394 0.93580 0.74616 -0.01400
C 	C 	0.10168 0.00962 0.74398 0.01100
Ni	Ni	0.24563 0.69781 0.40098 1.10600
O 	O 	0.31368 0.73097 0.37916 -0.70400
Ni	Ni	0.36281 0.71980 0.40703 1.10700
O 	O 	0.20737 0.71682 0.36783 -0.34600
O 	O 	0.26363 0.81499 0.36902 -0.37900
O 	O 	0.23566 0.61909 0.38121 -0.37600
Ni	Ni	0.33823 0.81504 0.37091 1.08000
O 	O 	0.20975 0.64168 0.46418 -0.36300
O 	O 	0.33950 0.83833 0.41250 -0.38600
O 	O 	0.42554 0.74594 0.38122 -0.34300
O 	O 	0.29745 0.69892 0.43079 -0.70000
O 	O 	0.17573 0.65777 0.42163 -0.34100
O 	O 	0.39953 0.68602 0.43540 -0.33100
O 	O 	0.32878 0.59748 0.43686 -0.38100
Ni	Ni	0.26999 0.62290 0.45033 1.09800
H 	H 	0.31206 0.70788 0.36159 0.16400
H 	H 	0.30164 0.73121 0.44460 0.19000
C 	C 	0.37808 0.84163 0.42920 0.40100
O 	O 	0.21925 0.56514 0.42172 -0.36000
C 	C 	0.22218 0.77135 0.35818 0.28900
C 	C 	0.43881 0.79571 0.36657 0.27000
C 	C 	0.22500 0.56856 0.39423 0.32800
C 	C 	0.37808 0.62987 0.44293 0.38400
C 	C 	0.16947 0.63583 0.44764 0.39500
O 	O 	0.39764 0.80096 0.42774 -0.34000
O 	O 	0.41680 0.83398 0.37183 -0.36800
Ni	Ni	0.36361 0.72189 0.05565 1.10800
O 	O 	0.29483 0.69303 0.03376 -0.70300
Ni	Ni	0.24681 0.69622 0.06415 1.10600
O 	O 	0.39813 0.68308 0.02850 -0.33100
O 	O 	0.32913 0.59323 0.03130 -0.37900
O 	O 	0.39354 0.79807 0.03151 -0.33100
Ni	Ni	0.26677 0.61266 0.01770 1.09500
O 	O 	0.41798 0.84346 0.08704 -0.36800
O 	O 	0.21858 0.55925 0.04801 -0.35800
O 	O 	0.17551 0.64869 0.04531 -0.35400
O 	O 	0.31748 0.73743 0.08373 -0.70400
O 	O 	0.42927 0.75612 0.07963 -0.35700
O 	O 	0.21125 0.72106 0.09659 -0.35500
O 	O 	0.26379 0.81959 0.09060 -0.37400
Ni	Ni	0.33936 0.82277 0.08849 1.08200
H 	H 	0.29582 0.72163 0.01886 0.19100
H 	H 	0.31934 0.71906 0.10208 0.16200
C 	C 	0.22468 0.56849 0.07552 0.30500
O 	O 	0.33590 0.83615 0.04635 -0.38500
C 	C 	0.37686 0.62541 0.02310 0.37900
C 	C 	0.16762 0.62939 0.01861 0.40100
C 	C 	0.37432 0.83915 0.03010 0.39700
C 	C 	0.22494 0.77770 0.10357 0.27300
C 	C 	0.44099 0.80693 0.09370 0.27400
O 	O 	0.24286 0.62280 0.08625 -0.38700
O 	O 	0.20590 0.62889 0.00251 -0.36900
C 	C 	0.92871 0.05734 0.20504 -0.04600
H 	H 	0.92823 0.05795 0.18150 0.05800
C 	C 	0.92931 0.05564 0.26161 -0.03700
H 	H 	0.92952 0.05496 0.28514 0.05300
C 	C 	0.94901 0.01340 0.21820 0.01700
C 	C 	0.96224 0.11687 0.21952 0.00600
C 	C 	0.87540 0.04059 0.21879 0.00700
C 	C 	0.94945 0.01263 0.24717 -0.00800
C 	C 	0.96251 0.11618 0.24854 -0.00500
C 	C 	0.87554 0.03932 0.24776 0.00400
C 	C 	0.20177 0.51723 0.09459 -0.06800
C 	C 	0.20145 0.46145 0.08693 0.02800
C 	C 	0.17506 0.41144 0.10342 -0.05100
C 	C 	0.14852 0.41659 0.12768 0.03600
C 	C 	0.15016 0.47266 0.13585 -0.05600
C 	C 	0.17676 0.52277 0.11944 0.02300
C 	C 	0.11692 0.36283 0.14374 0.00600
C 	C 	0.12703 0.35900 0.17269 -0.02600
C 	C 	0.09620 0.30876 0.18798 -0.04300
C 	C 	0.05525 0.26193 0.17441 0.03500
C 	C 	0.04529 0.26551 0.14550 -0.04000
C 	C 	0.07591 0.31578 0.13022 -0.02400
C 	C 	0.02283 0.21063 0.19027 -0.02800
C 	C 	0.99542 0.16786 0.20352 0.01400
H 	H 	0.22112 0.45669 0.06803 0.06800
H 	H 	0.17462 0.36854 0.09712 0.07000
H 	H 	0.12981 0.47718 0.15451 0.05800
H 	H 	0.17650 0.56542 0.12558 0.04900
H 	H 	0.15864 0.39492 0.18334 0.04700
H 	H 	0.10405 0.30639 0.21035 0.05000
H 	H 	0.01363 0.22957 0.13488 0.06000
H 	H 	0.06750 0.31840 0.10795 0.06200
C 	C 	0.49009 0.83121 0.11007 -0.06600
C 	C 	0.49915 0.87762 0.12984 0.01900
C 	C 	0.54722 0.90365 0.14382 -0.05700
C 	C 	0.58644 0.88328 0.13826 0.03600
C 	C 	0.57704 0.83598 0.11910 -0.05300
C 	C 	0.52912 0.80998 0.10508 0.02500
C 	C 	0.63764 0.91206 0.15206 0.00300
C 	C 	0.65505 0.87999 0.17104 -0.02700
C 	C 	0.70480 0.90631 0.18305 -0.04400
C 	C 	0.73730 0.96484 0.17623 0.03600
C 	C 	0.71995 0.99706 0.15737 -0.04300
C 	C 	0.67021 0.97072 0.14526 -0.02100
C 	C 	0.78707 0.99279 0.18995 -0.02000
C 	C 	0.82793 0.01519 0.20243 0.01100
H 	H 	0.46912 0.89379 0.13420 0.03600
H 	H 	0.55411 0.93984 0.15883 0.05900
H 	H 	0.60720 0.82000 0.11476 0.07000
H 	H 	0.52280 0.77427 0.08988 0.06900
H 	H 	0.63008 0.83467 0.17638 0.04900
H 	H 	0.71794 0.88139 0.19783 0.05200
H 	H 	0.74485 0.04252 0.15218 0.06700
H 	H 	0.65711 0.99562 0.13047 0.06300
C 	C 	0.18838 0.79534 0.11959 -0.06800
C 	C 	0.20750 0.84490 0.13804 0.01600
C 	C 	0.17345 0.86710 0.15022 -0.05700
C 	C 	0.12003 0.84013 0.14397 0.03200
C 	C 	0.10061 0.78948 0.12627 -0.05200
C 	C 	0.13461 0.76700 0.11420 0.02200
C 	C 	0.08475 0.86613 0.15526 0.00700
C 	C 	0.07227 0.86083 0.18406 -0.03200
C 	C 	0.04169 0.88892 0.19517 -0.03700
C 	C 	0.02368 0.92281 0.17763 0.01600
C 	C 	0.03526 0.92728 0.14873 -0.03300
C 	C 	0.06562 0.89886 0.13754 -0.02800
C 	C 	0.99593 0.95559 0.18977 0.00400
C 	C 	0.97383 0.98245 0.20161 -0.01000
H 	H 	0.24886 0.86694 0.14247 0.03000
H 	H 	0.18871 0.90600 0.16404 0.05600
H 	H 	0.05933 0.76815 0.12149 0.07100
H 	H 	0.11935 0.72893 0.09987 0.07300
H 	H 	0.08680 0.83558 0.19788 0.04400
H 	H 	0.03264 0.88509 0.21751 0.04500
H 	H 	0.02147 0.95340 0.13504 0.05500
H 	H 	0.07510 0.90320 0.11527 0.06100
C 	C 	0.48847 0.81749 0.35099 -0.05600
C 	C 	0.49758 0.86043 0.32985 0.01500
C 	C 	0.54630 0.88583 0.31713 -0.05200
C 	C 	0.58645 0.86841 0.32527 0.03300
C 	C 	0.57705 0.82431 0.34582 -0.04600
C 	C 	0.52834 0.79893 0.35861 0.01900
C 	C 	0.63857 0.89695 0.31252 0.00800
C 	C 	0.68235 0.92896 0.32964 -0.02400
C 	C 	0.73130 0.95763 0.31742 -0.03700
C 	C 	0.73681 0.95456 0.28805 0.03300
C 	C 	0.69323 0.92230 0.27097 -0.04000
C 	C 	0.64434 0.89352 0.28314 -0.02800
C 	C 	0.78695 0.98524 0.27523 -0.01800
C 	C 	0.82792 0.01031 0.26347 0.01000
H 	H 	0.46713 0.87474 0.32352 0.03700
H 	H 	0.55305 0.91965 0.30122 0.05800
H 	H 	0.60758 0.81008 0.35207 0.07200
H 	H 	0.52210 0.76598 0.37489 0.08700
H 	H 	0.67836 0.93216 0.35231 0.06500
H 	H 	0.76475 0.98248 0.33077 0.06200
H 	H 	0.69715 0.91977 0.24825 0.04900
H 	H 	0.61094 0.86879 0.26974 0.04600
C 	C 	0.99740 0.16695 0.26603 0.02700
C 	C 	0.99272 0.22192 0.26514 -0.02800
C 	C 	0.02701 0.27049 0.28087 -0.04200
C 	C 	0.06578 0.26421 0.29791 0.01300
C 	C 	0.06976 0.20893 0.29925 -0.03200
C 	C 	0.03550 0.16040 0.28350 -0.04700
C 	C 	0.10109 0.31501 0.31499 0.01700
C 	C 	0.09960 0.31266 0.34465 -0.03100
C 	C 	0.12967 0.36279 0.36087 -0.01600
C 	C 	0.16133 0.41551 0.34755 0.00700
C 	C 	0.16445 0.41721 0.31797 -0.02200
C 	C 	0.13446 0.36706 0.30171 -0.03500
C 	C 	0.18577 0.46935 0.36398 0.07200
C 	C 	0.20461 0.51463 0.37779 -0.06900
H 	H 	0.96271 0.22704 0.25215 0.05400
H 	H 	0.02324 0.31285 0.28000 0.05500
H 	H 	0.09935 0.20361 0.31252 0.05200
H 	H 	0.03866 0.11785 0.28481 0.04800
H 	H 	0.07408 0.27256 0.35508 0.06100
H 	H 	0.12712 0.36122 0.38375 0.07100
H 	H 	0.18895 0.45784 0.30754 0.05100
H 	H 	0.13628 0.36901 0.27882 0.04700
C 	C 	0.97634 0.98161 0.26326 0.02400
C 	C 	0.94749 0.92652 0.27555 -0.04200
C 	C 	0.97283 0.89226 0.28665 -0.02100
C 	C 	0.02723 0.91321 0.28571 -0.00200
C 	C 	0.05614 0.96935 0.27435 -0.03400
C 	C 	0.03080 0.00331 0.26310 -0.04400
C 	C 	0.05407 0.87672 0.29677 0.01800
C 	C 	0.05051 0.86189 0.32552 -0.03600
C 	C 	0.08118 0.83403 0.33681 -0.02000
C 	C 	0.11564 0.82094 0.31947 0.00400
C 	C 	0.11744 0.83309 0.29049 -0.02600
C 	C 	0.08663 0.86075 0.27913 -0.03900
C 	C 	0.15295 0.80138 0.33200 0.05700
C 	C 	0.18458 0.78677 0.34338 -0.07900
H 	H 	0.90541 0.90940 0.27564 0.05400
H 	H 	0.95020 0.84911 0.29555 0.05400
H 	H 	0.09819 0.98621 0.27385 0.04700
H 	H 	0.05330 0.04539 0.25321 0.04700
H 	H 	0.02537 0.87382 0.33928 0.05700
H 	H 	0.07948 0.82451 0.35923 0.06400
H 	H 	0.14383 0.82282 0.27694 0.04500
H 	H 	0.08925 0.87144 0.25685 0.04300
C 	C 	0.47638 0.08469 0.50759 0.22800
C 	C 	0.50042 0.05689 0.49011 -0.00300
C 	C 	0.55457 0.08262 0.48682 0.23000
C 	C 	0.58456 0.13585 0.50105 0.31200
C 	C 	0.56051 0.16368 0.51863 -0.21500
C 	C 	0.50622 0.13776 0.52184 0.31400
C 	C 	0.46867 0.00172 0.47466 0.00200
F 	F 	0.57802 0.05604 0.46978 -0.34900
F 	F 	0.48259 0.16321 0.53941 -0.37700
C 	C 	0.45088 0.00457 0.44709 0.22900
C 	C 	0.41986 0.95235 0.43254 0.31100
C 	C 	0.40619 0.89674 0.44553 -0.21600
C 	C 	0.42349 0.89402 0.47329 0.31600
C 	C 	0.45464 0.94637 0.48780 0.22500
F 	F 	0.46404 0.05804 0.43435 -0.34800
F 	F 	0.41007 0.84066 0.48618 -0.38100
F 	F 	0.40457 0.95556 0.40545 -0.40500
F 	F 	0.47127 0.94341 0.51462 -0.35000
F 	F 	0.42401 0.06003 0.51082 -0.35100
F 	F 	0.63687 0.16068 0.49759 -0.38100
C 	C 	0.92337 0.53543 0.48364 0.22700
C 	C 	0.96020 0.51050 0.48769 0.00600
C 	C 	0.94532 0.45480 0.50065 0.22600
C 	C 	0.89410 0.42446 0.50974 0.31300
C 	C 	0.85725 0.44965 0.50596 -0.20500
C 	C 	0.87217 0.50524 0.49274 0.31000
C 	C 	0.01411 0.54212 0.47769 -0.01000
F 	F 	0.98050 0.43004 0.50442 -0.34900
F 	F 	0.83745 0.53079 0.48944 -0.39300
C 	C 	0.05167 0.58512 0.49507 0.23000
C 	C 	0.10246 0.61573 0.48537 0.30900
C 	C 	0.11606 0.60360 0.45815 -0.20600
C 	C 	0.07844 0.56022 0.44088 0.30900
C 	C 	0.02775 0.52975 0.45059 0.22200
F 	F 	0.03886 0.59743 0.52131 -0.35600
F 	F 	0.09130 0.54684 0.41485 -0.38600
F 	F 	0.13810 0.65791 0.50219 -0.37600
F 	F 	0.99182 0.48813 0.43367 -0.34700
F 	F 	0.93730 0.58911 0.47101 -0.35000
F 	F 	0.88016 0.37036 0.52196 -0.38000
C 	C 	0.50132 0.46263 0.47998 0.23000
C 	C 	0.50626 0.51860 0.49030 -0.00300
C 	C 	0.54215 0.54689 0.51214 0.22900
C 	C 	0.57274 0.51917 0.52377 0.31000
C 	C 	0.56765 0.46291 0.51356 -0.21200
C 	C 	0.53190 0.43487 0.49155 0.31000
C 	C 	0.47364 0.54744 0.47830 -0.00100
F 	F 	0.54705 0.60104 0.52223 -0.34800
F 	F 	0.52731 0.38105 0.48113 -0.37200
C 	C 	0.42473 0.53635 0.48977 0.23000
C 	C 	0.39341 0.56312 0.47814 0.31100
C 	C 	0.41082 0.60122 0.45494 -0.21000
C 	C 	0.45980 0.61213 0.44343 0.31500
C 	C 	0.49107 0.58538 0.45511 0.22800
F 	F 	0.40766 0.49969 0.51222 -0.34800
F 	F 	0.47658 0.64769 0.42058 -0.38700
F 	F 	0.34653 0.55291 0.48972 -0.40000
F 	F 	0.53823 0.59597 0.44381 -0.35200
F 	F 	0.46686 0.43519 0.45873 -0.34700
F 	F 	0.60640 0.54626 0.54540 -0.38300
C 	C 	0.78479 0.25842 0.62192 -0.07000
C 	C 	0.83903 0.28829 0.61975 0.02400
C 	C 	0.87189 0.26523 0.63277 -0.05300
C 	C 	0.85086 0.21230 0.64807 0.03400
C 	C 	0.79692 0.18418 0.65149 -0.05900
C 	C 	0.76402 0.20721 0.63854 0.01800
C 	C 	0.88490 0.18421 0.65887 0.00400
C 	C 	0.91877 0.20993 0.68185 -0.02800
C 	C 	0.94978 0.18201 0.69267 -0.04100
C 	C 	0.94719 0.12840 0.68053 0.03300
C 	C 	0.91404 0.10321 0.65728 -0.04000
C 	C 	0.88298 0.13104 0.64646 -0.02500
C 	C 	0.97589 0.09733 0.69309 -0.02000
C 	C 	0.99925 0.07124 0.70430 0.01200
H 	H 	0.85566 0.32799 0.60709 0.07200
H 	H 	0.91358 0.28745 0.63023 0.07100
H 	H 	0.78046 0.14371 0.66364 0.05600
H 	H 	0.72232 0.18443 0.64084 0.02800
H 	H 	0.92053 0.25104 0.69151 0.04800
H 	H 	0.97524 0.20158 0.71073 0.05100
H 	H 	0.91178 0.06167 0.64785 0.05700
H 	H 	0.85713 0.11111 0.62859 0.05800
C 	C 	0.14460 0.03853 0.69729 0.01800
C 	C 	0.16086 0.09866 0.68995 -0.03500
C 	C 	0.20919 0.12844 0.67732 -0.03400
C 	C 	0.24149 0.09818 0.67174 0.01200
C 	C 	0.22455 0.03758 0.67833 -0.03600
C 	C 	0.17632 0.00790 0.69106 -0.03100
C 	C 	0.29315 0.12999 0.65911 0.01400
C 	C 	0.30277 0.11562 0.63151 -0.02900
C 	C 	0.35201 0.14466 0.61977 -0.02100
C 	C 	0.39206 0.18821 0.63554 0.01200
C 	C 	0.38248 0.20294 0.66305 -0.02800
C 	C 	0.33315 0.17398 0.67481 -0.03500
C 	C 	0.44345 0.21604 0.62374 0.06000
C 	C 	0.48594 0.23747 0.61318 -0.05900
H 	H 	0.13683 0.12282 0.69488 0.05100
H 	H 	0.22175 0.17511 0.67215 0.05500
H 	H 	0.24914 0.01379 0.67405 0.05600
H 	H 	0.16428 0.96161 0.69685 0.04900
H 	H 	0.27217 0.08186 0.61920 0.06400
H 	H 	0.35911 0.13293 0.59852 0.08400
H 	H 	0.41322 0.23640 0.67542 0.04900
H 	H 	0.32619 0.18527 0.69616 0.04600
C 	C 	0.97273 0.88539 0.70079 0.02100
C 	C 	0.97964 0.83183 0.69868 -0.02600
C 	C 	0.94299 0.78312 0.68412 -0.03600
C 	C 	0.89930 0.78774 0.67140 0.01300
C 	C 	0.89259 0.84150 0.67335 -0.03400
C 	C 	0.92928 0.89023 0.68796 -0.03800
C 	C 	0.86197 0.73713 0.65502 0.01600
C 	C 	0.85742 0.74141 0.62560 -0.03100
C 	C 	0.82844 0.69076 0.60942 -0.01700
C 	C 	0.80391 0.63562 0.62254 0.00800
C 	C 	0.80583 0.63198 0.65208 -0.02300
C 	C 	0.83471 0.68263 0.66831 -0.03500
C 	C 	0.78288 0.58210 0.60560 0.06900
C 	C 	0.76705 0.53745 0.59121 -0.07300
H 	H 	0.01326 0.82791 0.70847 0.04300
H 	H 	0.94873 0.74193 0.68247 0.05500
H 	H 	0.85902 0.84548 0.66354 0.05200
H 	H 	0.92365 0.93148 0.68961 0.04800
H 	H 	0.87806 0.78340 0.61519 0.06000
H 	H 	0.82684 0.69391 0.58658 0.07200
H 	H 	0.78664 0.58951 0.66238 0.05000
H 	H 	0.83745 0.67912 0.69107 0.04800
C 	C 	0.91765 0.47971 0.99936 0.22500
C 	C 	0.95450 0.52131 0.98200 0.00600
C 	C 	0.93979 0.53315 0.95506 0.22300
C 	C 	0.88902 0.50211 0.94509 0.31400
C 	C 	0.85253 0.45895 0.96202 -0.21800
C 	C 	0.86671 0.44865 0.98941 0.31600
C 	C 	0.00917 0.54935 0.99116 -0.01200
F 	F 	0.97514 0.57388 0.93833 -0.35300
F 	F 	0.83165 0.40720 0.00597 -0.37300
C 	C 	0.04259 0.52041 0.98599 0.22600
C 	C 	0.09493 0.54755 0.99404 0.31100
C 	C 	0.11425 0.60396 0.00731 -0.21500
C 	C 	0.08090 0.63333 0.01205 0.31200
C 	C 	0.02851 0.60604 0.00401 0.22200
F 	F 	0.02413 0.46577 0.97329 -0.35800
F 	F 	0.09935 0.68827 0.02445 -0.39200
F 	F 	0.12650 0.51818 0.98989 -0.39300
F 	F 	0.99645 0.63458 0.00871 -0.34800
F 	F 	0.93161 0.46850 0.02558 -0.35000
F 	F 	0.87523 0.51367 0.91888 -0.39000
C 	C 	0.44506 0.00284 0.01401 0.23100
C 	C 	0.46445 0.00027 0.98700 0.00000
C 	C 	0.45253 0.94477 0.97363 0.22700
C 	C 	0.42189 0.89209 0.98736 0.31400
C 	C 	0.40290 0.89457 0.01457 -0.21000
C 	C 	0.41456 0.95033 0.02779 0.30800
C 	C 	0.49671 0.05585 0.97257 -0.00300
F 	F 	0.47077 0.94192 0.94739 -0.34900
F 	F 	0.39779 0.95354 0.05438 -0.41100
C 	C 	0.55068 0.08213 0.97750 0.22900
C 	C 	0.58113 0.13539 0.96417 0.31000
C 	C 	0.55779 0.16281 0.94581 -0.21200
C 	C 	0.50362 0.13659 0.94109 0.31000
C 	C 	0.47329 0.08344 0.95447 0.22800
F 	F 	0.57359 0.05601 0.99520 -0.34900
F 	F 	0.48060 0.16159 0.92285 -0.37600
F 	F 	0.63324 0.16048 0.96918 -0.38000
F 	F 	0.42111 0.05847 0.94969 -0.35100
F 	F 	0.45626 0.05632 0.02704 -0.35000
F 	F 	0.41053 0.83871 0.97420 -0.36800
C 	C 	0.43781 0.51599 0.00653 0.22900
C 	C 	0.46870 0.54312 0.98329 -0.00400
C 	C 	0.46868 0.59662 0.97284 0.23100
C 	C 	0.43827 0.62314 0.98566 0.30700
C 	C 	0.40766 0.59638 0.00912 -0.21000
C 	C 	0.40741 0.54249 0.01943 0.30700
C 	C 	0.50159 0.51586 0.97008 -0.00100
F 	F 	0.49822 0.62294 0.95026 -0.34700
F 	F 	0.37871 0.51659 0.04233 -0.38600
C 	C 	0.48247 0.47632 0.94699 0.22900
C 	C 	0.51352 0.45012 0.93458 0.31400
C 	C 	0.56398 0.46318 0.94525 -0.21000
C 	C 	0.58327 0.50339 0.96817 0.30900
C 	C 	0.55218 0.52960 0.98051 0.22900
F 	F 	0.43375 0.46326 0.93661 -0.35000
F 	F 	0.63161 0.51579 0.97896 -0.40600
F 	F 	0.49482 0.41258 0.91200 -0.38200
F 	F 	0.57102 0.56803 0.00276 -0.35000
F 	F 	0.43762 0.46419 0.01675 -0.34900
F 	F 	0.43800 0.67446 0.97507 -0.36500
C 	C 	0.78924 0.25053 0.85097 -0.07000
C 	C 	0.84326 0.28171 0.85460 0.02200
C 	C 	0.87746 0.25877 0.84318 -0.05400
C 	C 	0.85802 0.20457 0.82800 0.03300
C 	C 	0.80422 0.17444 0.82357 -0.05800
C 	C 	0.77001 0.19732 0.83496 0.01700
C 	C 	0.89385 0.17885 0.81709 0.00600
C 	C 	0.89148 0.12403 0.82723 -0.02700
C 	C 	0.92270 0.09745 0.81540 -0.03500
C 	C 	0.95657 0.12555 0.79344 0.02300
C 	C 	0.96010 0.18112 0.78387 -0.03600
C 	C 	0.92887 0.20772 0.79566 -0.03000
C 	C 	0.98372 0.09489 0.77880 0.00400
C 	C 	0.00544 0.06959 0.76542 -0.01800
H 	H 	0.85872 0.32275 0.86694 0.06800
H 	H 	0.91897 0.28251 0.84656 0.06900
H 	H 	0.78891 0.13301 0.81152 0.05500
H 	H 	0.72851 0.17325 0.83166 0.02900
H 	H 	0.86484 0.10162 0.84393 0.05800
H 	H 	0.91968 0.05444 0.82287 0.05600
H 	H 	0.98610 0.20302 0.76684 0.05000
H 	H 	0.93102 0.25004 0.78771 0.04900
C 	C 	0.49454 0.23350 0.84196 -0.06100
C 	C 	0.45825 0.25994 0.84270 0.02600
C 	C 	0.41088 0.23339 0.82817 -0.05000
C 	C 	0.39942 0.18045 0.81270 0.03500
C 	C 	0.43703 0.15643 0.81020 -0.05400
C 	C 	0.48454 0.18301 0.82466 0.02000
C 	C 	0.34671 0.14749 0.80137 0.00700
C 	C 	0.33768 0.14169 0.77204 -0.02900
C 	C 	0.28726 0.11136 0.76137 -0.04000
C 	C 	0.24572 0.08672 0.77998 0.03000
C 	C 	0.25474 0.09184 0.80926 -0.03500
C 	C 	0.30514 0.12209 0.81996 -0.02400
C 	C 	0.19382 0.05820 0.76892 -0.01100
C 	C 	0.15113 0.03535 0.75845 -0.00100
H 	H 	0.46579 0.29966 0.85542 0.08300
H 	H 	0.38231 0.25280 0.82971 0.07100
H 	H 	0.42870 0.11601 0.79788 0.06000
H 	H 	0.51287 0.16328 0.82313 0.03400
H 	H 	0.36961 0.16114 0.75757 0.04400
H 	H 	0.28039 0.10748 0.73867 0.04800
H 	H 	0.22271 0.07281 0.82372 0.06200
H 	H 	0.31193 0.12606 0.84265 0.06900
C 	C 	0.98236 0.88403 0.76339 0.04000
C 	C 	0.00594 0.85013 0.77685 -0.06400
C 	C 	0.97592 0.79987 0.79231 -0.01500
C 	C 	0.92205 0.78331 0.79455 0.00300
C 	C 	0.89853 0.81761 0.78126 -0.02700
C 	C 	0.92862 0.86795 0.76587 -0.04700
C 	C 	0.89045 0.73060 0.81118 0.01900
C 	C 	0.85140 0.68126 0.79784 -0.03600
C 	C 	0.82234 0.63086 0.81353 -0.02400
C 	C 	0.83211 0.62951 0.84264 0.00900
C 	C 	0.87079 0.67891 0.85602 -0.01700
C 	C 	0.89984 0.72928 0.84037 -0.03200
C 	C 	0.80335 0.57699 0.85875 0.06900
C 	C 	0.78040 0.53370 0.87287 -0.06200
H 	H 	0.04741 0.86231 0.77507 0.05600
H 	H 	0.99445 0.77369 0.80245 0.05400
H 	H 	0.85706 0.80545 0.78300 0.04800
H 	H 	0.91017 0.89419 0.75570 0.05100
H 	H 	0.84391 0.68176 0.77531 0.04800
H 	H 	0.79255 0.59285 0.80303 0.05000
H 	H 	0.87856 0.67821 0.87850 0.07800
H 	H 	0.92968 0.76719 0.85090 0.06200
