data_crystal

_cell_length_a 19.94998
_cell_length_b 21.60818
_cell_length_c 27.51644
_cell_angle_alpha 60.83658
_cell_angle_beta  118.84335
_cell_angle_gamma 133.19201

_symmetry_space_group_name_	'P 1'
_symmetry_space_group_name_H-M	'P 1'

loop_
_symmetry_equiv_pos_as_xyz
  x,y,z

loop_
_atom_site_label
_atom_site_type_symbol
_atom_site_fract_x
_atom_site_fract_y
_atom_site_fract_z
_atom_site_charge
C 	C 	0.26774 0.60372 0.25542 0.12300
N 	N 	0.36344 0.65128 0.26632 -0.13300
C 	C 	0.40331 0.61940 0.26675 0.12600
N 	N 	0.34894 0.53551 0.26467 -0.13200
C 	C 	0.25385 0.48991 0.24868 0.12400
N 	N 	0.21225 0.52450 0.24294 -0.12600
C 	C 	0.26846 0.65461 0.71661 0.12500
N 	N 	0.20370 0.58117 0.69580 -0.12700
C 	C 	0.23112 0.53428 0.70126 0.12400
N 	N 	0.32254 0.56318 0.72465 -0.13400
C 	C 	0.38830 0.64175 0.73756 0.12600
N 	N 	0.35995 0.68230 0.73926 -0.13200
Co	Co	0.07774 0.00907 0.06373 1.16900
Co	Co	0.01553 0.08006 0.10781 1.18000
C 	C 	0.25336 0.02529 0.08632 0.25300
Co	Co	0.07483 0.85891 0.05927 1.16900
O 	O 	0.09346 0.11553 0.05909 -0.46600
C 	C 	0.08909 0.20792 0.16630 0.30100
C 	C 	0.09527 0.76914 0.18282 0.30100
O 	O 	0.10042 0.95581 0.98305 -0.38700
O 	O 	0.11497 0.17296 0.15677 -0.38600
O 	O 	0.05646 0.75668 0.13147 -0.40500
O 	O 	0.08743 0.81535 0.19562 -0.37800
O 	O 	0.03628 0.90325 0.08755 -0.74300
O 	O 	0.21351 0.94141 0.09720 -0.35700
O 	O 	0.21781 0.05197 0.09531 -0.39100
Co	Co	0.05250 0.04056 0.54010 1.17400
C 	C 	0.23531 0.12578 0.52113 0.31400
Co	Co	0.11259 0.93298 0.54147 1.17700
O 	O 	0.04103 0.13106 0.53404 -0.45800
C 	C 	0.09222 0.21841 0.67706 0.28900
C 	C 	0.19971 0.90383 0.66335 0.29500
O 	O 	0.05340 0.15287 0.71954 -0.39300
O 	O 	0.10180 0.20537 0.63853 -0.37400
O 	O 	0.21917 0.96010 0.61421 -0.37400
O 	O 	0.14592 0.89397 0.68565 -0.36900
O 	O 	0.05174 0.95099 0.57383 -0.73500
O 	O 	0.18790 0.06241 0.49724 -0.42500
O 	O 	0.19711 0.12220 0.55105 -0.40300
C 	C 	0.16624 0.45880 0.67534 0.00500
C 	C 	0.19629 0.46069 0.63725 -0.04000
C 	C 	0.17061 0.38295 0.63485 0.02000
C 	C 	0.10724 0.30154 0.66713 -0.07600
C 	C 	0.06306 0.29980 0.69573 0.01300
C 	C 	0.09477 0.37746 0.70190 -0.02600
H 	H 	0.24782 0.52334 0.61425 0.06000
H 	H 	0.00825 0.23753 0.71668 0.02500
C 	C 	0.06082 0.37234 0.74061 0.10100
C 	C 	0.21128 0.38832 0.60031 0.08500
N 	N 	0.03361 0.36768 0.77191 -0.10000
N 	N 	0.24400 0.39286 0.57255 -0.10200
C 	C 	0.48152 0.69524 0.72669 -0.00200
C 	C 	0.49380 0.74004 0.67018 -0.02100
C 	C 	0.41641 0.73727 0.62292 0.09500
N 	N 	0.35440 0.73501 0.58514 -0.10800
C 	C 	0.22470 0.84136 0.68799 -0.06600
C 	C 	0.15751 0.75131 0.70831 0.00600
C 	C 	0.16925 0.68887 0.71691 -0.02200
C 	C 	0.24667 0.71619 0.70253 0.00100
C 	C 	0.31374 0.80618 0.68286 -0.03200
C 	C 	0.30636 0.86835 0.67919 0.00300
H 	H 	0.09496 0.72954 0.71596 0.04500
H 	H 	0.37430 0.82816 0.67260 0.05900
C 	C 	0.38429 0.95997 0.66763 0.13000
C 	C 	0.10342 0.59805 0.74207 0.09700
N 	N 	0.44697 0.03323 0.65840 -0.13800
N 	N 	0.05042 0.52537 0.76237 -0.09900
C 	C 	0.19994 0.41363 0.22609 0.00300
C 	C 	0.20020 0.42991 0.17008 -0.03900
C 	C 	0.18359 0.36786 0.15312 0.02200
C 	C 	0.15831 0.28504 0.19062 -0.07500
C 	C 	0.16409 0.27097 0.24764 0.00200
C 	C 	0.18044 0.33280 0.26474 -0.02400
H 	H 	0.21943 0.49334 0.14075 0.06200
H 	H 	0.14709 0.20835 0.27739 0.04500
C 	C 	0.17638 0.31247 0.32205 0.09100
C 	C 	0.18998 0.38875 0.09638 0.07800
N 	N 	0.17297 0.29620 0.36792 -0.11100
N 	N 	0.19506 0.40546 0.05089 -0.10600
C 	C 	0.49286 0.68037 0.24948 -0.00000
C 	C 	0.49456 0.72332 0.19118 -0.02300
C 	C 	0.41247 0.71910 0.14952 0.09500
N 	N 	0.34667 0.71560 0.11624 -0.11000
C 	C 	0.22541 0.64481 0.24942 0.00400
C 	C 	0.28136 0.73660 0.23992 -0.04000
C 	C 	0.24291 0.77765 0.23107 0.01900
C 	C 	0.14551 0.72883 0.22556 -0.07300
C 	C 	0.09250 0.63669 0.24225 0.00800
C 	C 	0.13251 0.59442 0.25551 -0.02400
H 	H 	0.35480 0.77638 0.23907 0.06300
H 	H 	0.01864 0.59787 0.24184 0.04100
C 	C 	0.08062 0.50093 0.27932 0.10400
C 	C 	0.30384 0.87036 0.22672 0.09100
N 	N 	0.03905 0.42599 0.29853 -0.10500
N 	N 	0.35307 0.94466 0.22355 -0.09100
C 	C 	0.33274 0.19791 0.51630 -0.08500
C 	C 	0.35018 0.24178 0.46130 0.01100
C 	C 	0.43657 0.27979 0.45314 -0.02600
C 	C 	0.50733 0.27596 0.50060 -0.00400
C 	C 	0.49285 0.23912 0.55597 -0.04000
C 	C 	0.40710 0.20281 0.56404 0.02300
H 	H 	0.29357 0.23979 0.42445 0.04500
H 	H 	0.54954 0.24109 0.59281 0.05900
C 	C 	0.39504 0.16883 0.62144 0.08600
C 	C 	0.45168 0.32170 0.39587 0.09100
N 	N 	0.38536 0.14161 0.66743 -0.10800
N 	N 	0.46373 0.35530 0.34999 -0.10900
C 	C 	0.34780 0.08824 0.07548 -0.06500
C 	C 	0.36067 0.08911 0.02934 -0.02100
C 	C 	0.45114 0.14113 0.02105 -0.03500
C 	C 	0.53012 0.19251 0.05968 -0.00500
C 	C 	0.51743 0.18963 0.10683 -0.04000
C 	C 	0.42672 0.13934 0.11427 0.01700
H 	H 	0.29985 0.04894 0.99988 0.04600
C 	C 	0.41533 0.14134 0.16141 0.08700
C 	C 	0.46200 0.14373 0.97167 0.10500
N 	N 	0.40629 0.14303 0.19916 -0.11000
N 	N 	0.47053 0.14576 0.93209 -0.11600
O 	O 	0.03353 0.96831 0.77524 -0.37700
C 	C 	0.04186 0.97744 0.86028 -0.14200
C 	C 	0.04796 0.98412 0.95196 0.31900
O 	O 	0.04303 0.80168 0.58400 -0.40000
H 	H 	0.09951 0.97074 0.88275 0.10000
Co	Co	0.02081 0.88592 0.63814 1.18400
H 	H 	0.57831 0.22946 0.13646 0.05500
H 	H 	0.56857 0.64466 0.33262 0.05800
C 	C 	0.60296 0.32804 0.49430 0.12500
C 	C 	0.55675 0.69690 0.77163 -0.03800
H 	H 	0.54635 0.65980 0.81476 0.06100
C 	C 	0.57141 0.68133 0.28838 -0.03900
O 	O 	0.02729 0.00839 0.97603 -0.39500
O 	O 	0.00047 0.91063 0.47108 -0.37700
N 	N 	0.66636 0.24047 0.03736 -0.14000
C 	C 	0.62248 0.26083 0.04565 0.12100
N 	N 	0.63383 0.28944 0.49275 -0.13600
C 	C 	0.58194 0.78901 0.65961 0.00800
H 	H 	0.59185 0.82503 0.61632 0.05500
C 	C 	0.57595 0.76982 0.17312 0.01000
H 	H 	0.57850 0.80593 0.12878 0.04800
H 	H 	0.65932 0.19294 0.95785 0.06100
N 	N 	0.63155 0.01980 0.95058 -0.10700
H 	H 	0.62210 0.15996 0.50308 0.05800
N 	N 	0.60722 0.97657 0.53063 -0.07500
N 	N 	0.66398 0.34478 0.04108 -0.13900
N 	N 	0.66526 0.40955 0.50219 -0.13500
C 	C 	0.64562 0.74711 0.76097 0.01900
C 	C 	0.65905 0.79624 0.70493 -0.06900
C 	C 	0.65300 0.72837 0.27022 0.02500
C 	C 	0.65682 0.77621 0.21277 -0.07900
C 	C 	0.73020 0.21114 0.98129 -0.02700
C 	C 	0.68651 0.08150 0.96845 0.08200
N 	N 	0.67303 0.66819 0.93716 -0.10900
C 	C 	0.69644 0.19348 0.50789 -0.05000
C 	C 	0.66105 0.05137 0.52625 0.03500
C 	C 	0.73392 0.72972 0.31112 0.07700
C 	C 	0.75086 0.30466 0.02252 0.12100
C 	C 	0.74997 0.40911 0.02910 0.12800
C 	C 	0.72800 0.33136 0.50141 0.11900
H 	H 	0.71155 0.52426 0.95242 0.04800
C 	C 	0.71584 0.63970 0.96788 0.11600
C 	C 	0.72315 0.74940 0.80772 0.08900
C 	C 	0.72813 0.14471 0.52072 0.03400
C 	C 	0.75507 0.15845 0.99077 0.03200
C 	C 	0.75899 0.45063 0.51352 0.12400
C 	C 	0.75809 0.54259 0.99267 0.01000
C 	C 	0.74835 0.85128 0.19886 0.31100
C 	C 	0.75433 0.86771 0.69529 0.29400
N 	N 	0.79887 0.73098 0.34375 -0.11100
C 	C 	0.76088 0.28438 0.50395 0.00500
C 	C 	0.76902 0.60397 0.00650 -0.02600
C 	C 	0.01317 0.99132 0.88845 -0.01800
N 	N 	0.79377 0.38980 0.01884 -0.13200
O 	O 	0.78823 0.84302 0.17789 -0.38200
O 	O 	0.77840 0.94852 0.67515 -0.36700
N 	N 	0.78557 0.75150 0.84495 -0.10300
C 	C 	0.79235 0.28078 0.00798 -0.01600
C 	C 	0.79784 0.49728 0.03300 -0.03100
H 	H 	0.76803 0.59593 0.45026 0.06100
N 	N 	0.79118 0.41137 0.51387 -0.12900
O 	O 	0.79327 0.92201 0.21445 -0.38700
O 	O 	0.81000 0.84830 0.70242 -0.36700
N 	N 	0.01286 0.44879 0.07250 -0.10700
N 	N 	0.78374 0.76492 0.45207 -0.10200
O 	O 	0.81854 0.04788 0.09652 -0.39400
C 	C 	0.82523 0.18578 0.53156 -0.08500
C 	C 	0.82836 0.62772 0.05882 -0.05600
C 	C 	0.80757 0.71933 0.48051 0.08400
C 	C 	0.80916 0.59932 0.49399 -0.03900
C 	C 	0.82410 0.53431 0.52976 0.00100
C 	C 	0.84552 0.17958 0.02334 -0.09000
H 	H 	0.00066 0.90474 0.38044 0.09900
C 	C 	0.00001 0.97291 0.80426 0.34700
C 	C 	0.83676 0.66202 0.51594 0.01900
O 	O 	0.00043 0.17757 0.15072 -0.40800
Co	Co	0.99747 0.09496 0.60303 1.17900
O 	O 	0.98684 0.04677 0.26048 -0.42400
C 	C 	0.98980 0.95518 0.35137 -0.15200
O 	O 	0.99406 0.93583 0.27620 -0.38200
O 	O 	0.99204 0.02119 0.45523 -0.38600
C 	C 	0.99296 0.97516 0.43583 0.30300
C 	C 	0.98393 0.97621 0.29443 0.36100
Co	Co	0.98262 0.83603 0.14303 1.18400
C 	C 	0.97994 0.99403 0.37260 -0.01400
H 	H 	0.96558 0.04225 0.34369 0.04000
H 	H 	0.96154 0.00590 0.86482 0.03500
Co	Co	0.93246 0.91147 0.19327 1.19300
Co	Co	0.89784 0.04743 0.17977 1.16400
C 	C 	0.87603 0.71635 0.06209 0.28400
O 	O 	0.94836 0.00803 0.15712 -0.77300
C 	C 	0.86102 0.11034 0.05438 0.29500
O 	O 	0.93385 0.81075 0.20587 -0.45300
O 	O 	0.97730 0.95049 0.11531 -0.56100
O 	O 	0.92817 0.11987 0.04568 -0.37300
O 	O 	0.93153 0.78292 0.02679 -0.38400
O 	O 	0.87553 0.72735 0.10599 -0.36500
Co	Co	0.95064 0.93302 0.69576 1.19400
Co	Co	0.91222 0.05302 0.70018 1.16000
C 	C 	0.95505 0.75225 0.58683 0.29900
O 	O 	0.89756 0.14323 0.62733 -0.40600
O 	O 	0.95342 0.02334 0.66229 -0.78100
C 	C 	0.86490 0.13672 0.57458 0.30800
O 	O 	0.97085 0.84694 0.70487 -0.45400
O 	O 	0.97692 0.97396 0.60984 -0.56300
O 	O 	0.88301 0.10185 0.55851 -0.38800
O 	O 	0.92327 0.96944 0.77909 -0.39700
O 	O 	0.92835 0.77237 0.60946 -0.37800
C 	C 	0.88699 0.27775 0.51856 0.01300
C 	C 	0.85564 0.32748 0.50462 -0.02800
H 	H 	0.96130 0.31027 0.52387 0.04200
C 	C 	0.91989 0.42182 0.48869 0.10000
N 	N 	0.97161 0.49742 0.47596 -0.10700
C 	C 	0.89055 0.66749 0.57245 -0.07600
C 	C 	0.90736 0.60369 0.60813 0.01100
C 	C 	0.87555 0.53801 0.58698 -0.02500
H 	H 	0.94901 0.60762 0.65167 0.04300
C 	C 	0.89422 0.47354 0.62462 0.10000
N 	N 	0.90894 0.42170 0.65464 -0.10500
C 	C 	0.91414 0.26069 0.03786 0.00300
C 	C 	0.88737 0.30956 0.03280 -0.02300
H 	H 	0.98690 0.28280 0.05659 0.05200
C 	C 	0.95692 0.38685 0.05482 0.09500
C 	C 	0.86648 0.58126 0.09966 -0.01200
C 	C 	0.85515 0.51936 0.08609 -0.01000
H 	H 	0.90868 0.59614 0.14111 0.05100
C 	C 	0.89961 0.47609 0.12778 0.08900
N 	N 	0.93501 0.44116 0.16100 -0.10500
