data_crystal

_cell_length_a 33.82783
_cell_length_b 33.94047
_cell_length_c 40.19338
_cell_angle_alpha 95.51526
_cell_angle_beta  95.51689
_cell_angle_gamma 125.52812

_symmetry_space_group_name_	'P 1'
_symmetry_space_group_name_H-M	'P 1'

loop_
_symmetry_equiv_pos_as_xyz
  x,y,z

loop_
_atom_site_label
_atom_site_type_symbol
_atom_site_fract_x
_atom_site_fract_y
_atom_site_fract_z
_atom_site_charge
C 	C 	0.97455 0.02117 0.99593 0.11300
N 	N 	0.02368 0.04755 0.99521 -0.13800
C 	C 	0.04619 0.02496 0.99485 0.11600
C 	C 	0.95506 0.00626 0.45364 0.11200
N 	N 	0.00470 0.03299 0.45499 -0.13900
C 	C 	0.02761 0.01088 0.45682 0.11600
Cu	Cu	0.64531 0.25464 0.99774 0.92700
Cu	Cu	0.68502 0.25614 0.92629 0.86900
C 	C 	0.65930 0.29154 0.06869 0.30400
O 	O 	0.57305 0.22544 0.99659 -0.36400
C 	C 	0.66125 0.30041 0.87958 0.30600
O 	O 	0.63960 0.26033 0.94923 -0.64100
O 	O 	0.67565 0.21888 0.99601 -0.37400
O 	O 	0.73093 0.26950 0.96479 -0.44300
O 	O 	0.63717 0.31167 0.05974 -0.38700
C 	C 	0.55362 0.24639 0.98427 0.28200
O 	O 	0.58272 0.29239 0.98034 -0.39300
O 	O 	0.66116 0.26196 0.04609 -0.36200
C 	C 	0.71758 0.23768 0.98524 0.28900
O 	O 	0.67347 0.33583 0.90484 -0.38700
O 	O 	0.65519 0.25981 0.88519 -0.42300
H 	H 	0.60543 0.24028 0.93598 0.17300
Cu	Cu	0.72521 0.33877 0.45450 0.92700
Cu	Cu	0.72592 0.30261 0.52731 0.86900
Cu	Cu	0.64692 0.31081 0.49862 0.89600
Cu	Cu	0.63321 0.33775 0.43167 0.89300
C 	C 	0.68715 0.32265 0.38341 0.28700
C 	C 	0.68207 0.32882 0.57297 0.28700
O 	O 	0.64832 0.29888 0.45138 -0.64100
O 	O 	0.71994 0.34581 0.50300 -0.64100
O 	O 	0.76134 0.30879 0.45692 -0.37600
O 	O 	0.71210 0.25542 0.48967 -0.44200
O 	O 	0.66699 0.34492 0.39204 -0.38500
O 	O 	0.57563 0.27342 0.49092 -0.38400
C 	C 	0.54874 0.27815 0.46784 0.29000
O 	O 	0.56918 0.31049 0.44744 -0.39600
O 	O 	0.71734 0.32166 0.40624 -0.36300
C 	C 	0.74325 0.26777 0.46869 0.28800
O 	O 	0.64453 0.31104 0.54763 -0.38800
O 	O 	0.72266 0.33412 0.56774 -0.42100
H 	H 	0.62723 0.26362 0.44046 0.16300
C 	C 	0.67570 0.33603 0.60828 -0.09000
C 	C 	0.71647 0.37340 0.63321 0.01300
C 	C 	0.71293 0.37492 0.66761 -0.06700
C 	C 	0.66869 0.33891 0.67744 0.02500
C 	C 	0.62698 0.30351 0.65242 -0.06700
C 	C 	0.63041 0.30217 0.61797 0.01200
C 	C 	0.66777 0.33477 0.71365 0.00100
C 	C 	0.63465 0.33783 0.73020 -0.04100
C 	C 	0.63266 0.33192 0.76416 -0.03300
C 	C 	0.66377 0.32296 0.78169 -0.00900
C 	C 	0.69707 0.32031 0.76527 -0.03300
C 	C 	0.69903 0.32610 0.73139 -0.04200
C 	C 	0.66111 0.31556 0.81635 0.04400
C 	C 	0.66034 0.30888 0.84529 -0.11300
H 	H 	0.59255 0.27574 0.65972 0.04500
H 	H 	0.59854 0.27336 0.59899 0.03300
H 	H 	0.61040 0.34456 0.71675 0.03900
H 	H 	0.60684 0.33405 0.77671 0.03800
C 	C 	0.68571 0.30991 0.34693 -0.08500
C 	C 	0.64336 0.29250 0.32295 0.01200
C 	C 	0.64358 0.28544 0.28816 -0.06600
C 	C 	0.68609 0.29558 0.27695 0.02600
C 	C 	0.72784 0.31121 0.30086 -0.06600
C 	C 	0.72766 0.31828 0.33571 0.01500
C 	C 	0.68790 0.29294 0.24030 0.00200
C 	C 	0.65426 0.24822 0.21735 -0.04000
C 	C 	0.65183 0.24701 0.18229 -0.03200
C 	C 	0.68307 0.29043 0.16997 -0.00700
C 	C 	0.71807 0.33471 0.19286 -0.03300
C 	C 	0.72052 0.33599 0.22792 -0.04000
C 	C 	0.67593 0.29052 0.13405 0.04400
C 	C 	0.66894 0.29087 0.10412 -0.10400
H 	H 	0.61055 0.28526 0.33127 0.02200
H 	H 	0.61112 0.27325 0.26989 0.04500
H 	H 	0.76072 0.31880 0.29245 0.04600
H 	H 	0.76060 0.33167 0.35390 0.03900
H 	H 	0.62920 0.21472 0.22665 0.03900
H 	H 	0.62477 0.21261 0.16474 0.04000
H 	H 	0.74240 0.36841 0.18352 0.03700
H 	H 	0.74664 0.37069 0.24541 0.03900
C 	C 	0.93020 0.03037 0.45108 -0.02000
C 	C 	0.94912 0.07096 0.43462 -0.02200
C 	C 	0.92697 0.09516 0.43347 -0.04800
C 	C 	0.88557 0.07894 0.44860 0.01200
C 	C 	0.86599 0.03787 0.46447 -0.04800
C 	C 	0.88821 0.01370 0.46576 -0.02400
C 	C 	0.86383 0.10606 0.44886 0.00500
C 	C 	0.89026 0.15370 0.46832 -0.04200
C 	C 	0.86957 0.17933 0.46887 -0.03800
C 	C 	0.82231 0.15760 0.44983 -0.00200
C 	C 	0.79605 0.11009 0.43010 -0.03700
C 	C 	0.81669 0.08438 0.42969 -0.04200
C 	C 	0.79963 0.18390 0.45161 0.02600
C 	C 	0.82338 0.23046 0.44248 -0.06800
C 	C 	0.80416 0.25722 0.44696 0.01300
C 	C 	0.76090 0.23761 0.46060 -0.09600
C 	C 	0.73610 0.19009 0.46838 0.01100
C 	C 	0.75550 0.16352 0.46405 -0.06900
H 	H 	0.98099 0.08379 0.42273 0.04000
H 	H 	0.94212 0.12666 0.42098 0.04100
H 	H 	0.83405 0.02515 0.47625 0.04000
H 	H 	0.92665 0.17068 0.48324 0.03800
H 	H 	0.88999 0.21581 0.48438 0.03600
H 	H 	0.75963 0.09306 0.41522 0.03700
H 	H 	0.79612 0.04769 0.41447 0.03900
H 	H 	0.85716 0.24625 0.43245 0.04500
H 	H 	0.82355 0.29359 0.44055 0.03500
H 	H 	0.70222 0.17401 0.47831 0.02700
H 	H 	0.73677 0.12751 0.47104 0.04300
C 	C 	0.08129 0.03963 0.45749 -0.02100
C 	C 	0.10074 0.01773 0.44114 -0.02300
C 	C 	0.15170 0.04440 0.44260 -0.04800
C 	C 	0.18375 0.09323 0.46034 0.01300
C 	C 	0.16442 0.11533 0.47647 -0.04900
C 	C 	0.11341 0.08868 0.47505 -0.02100
C 	C 	0.23754 0.12116 0.46203 0.00500
C 	C 	0.26914 0.13649 0.49338 -0.04100
C 	C 	0.32004 0.16203 0.49485 -0.03700
C 	C 	0.33969 0.17242 0.46500 -0.00200
C 	C 	0.30808 0.15712 0.43366 -0.03700
C 	C 	0.25722 0.13163 0.43219 -0.04100
C 	C 	0.39343 0.19996 0.46657 0.02700
C 	C 	0.41756 0.17948 0.47682 -0.06700
C 	C 	0.46831 0.20511 0.47747 0.01400
C 	C 	0.49537 0.25147 0.46785 -0.08800
C 	C 	0.47117 0.27208 0.45791 0.01400
C 	C 	0.42047 0.24643 0.45728 -0.06700
H 	H 	0.16632 0.02706 0.43006 0.04100
H 	H 	0.18890 0.15310 0.49012 0.04100
H 	H 	0.09895 0.10593 0.48794 0.04000
H 	H 	0.25424 0.12838 0.51653 0.03900
H 	H 	0.34419 0.17388 0.51917 0.03800
H 	H 	0.32294 0.16493 0.41047 0.03700
H 	H 	0.23310 0.11999 0.40788 0.03900
H 	H 	0.39691 0.14353 0.48394 0.04500
H 	H 	0.48642 0.18865 0.48501 0.03000
H 	H 	0.49164 0.30807 0.45086 0.03200
H 	H 	0.40219 0.26267 0.44957 0.04600
C 	C 	0.74736 0.21972 0.99339 -0.09800
C 	C 	0.79779 0.24872 0.99139 0.01300
C 	C 	0.82462 0.22945 0.99484 -0.07100
C 	C 	0.80142 0.18113 0.00046 0.02800
C 	C 	0.75171 0.15291 0.00406 -0.06900
C 	C 	0.72477 0.17211 0.00059 0.01500
C 	C 	0.82818 0.15900 0.00025 -0.00200
C 	C 	0.84212 0.15038 0.97019 -0.03900
C 	C 	0.86678 0.12868 0.96975 -0.04200
C 	C 	0.87775 0.11545 0.99936 0.00400
C 	C 	0.86413 0.12437 0.02951 -0.04000
C 	C 	0.83935 0.14599 0.02993 -0.03800
C 	C 	0.90255 0.09134 0.99859 0.01100
C 	C 	0.95098 0.11609 0.01658 -0.04600
C 	C 	0.97470 0.09340 0.01548 -0.02500
C 	C 	0.95008 0.04566 0.99647 -0.02000
C 	C 	0.90160 0.02099 0.97846 -0.02400
C 	C 	0.87800 0.04375 0.97951 -0.04700
H 	H 	0.81598 0.28585 0.98655 0.02700
H 	H 	0.86318 0.25173 0.99246 0.04400
H 	H 	0.73356 0.11563 0.00858 0.04600
H 	H 	0.68600 0.14936 0.00236 0.03300
H 	H 	0.83353 0.16020 0.94714 0.03500
H 	H 	0.87723 0.12201 0.94639 0.03800
H 	H 	0.87238 0.11418 0.05248 0.03900
H 	H 	0.82881 0.15259 0.05327 0.03900
H 	H 	0.97025 0.15290 0.03132 0.04000
H 	H 	0.01194 0.11269 0.02971 0.04300
H 	H 	0.84061 0.02440 0.96552 0.04000
C 	C 	0.09948 0.05340 0.99419 -0.02300
C 	C 	0.12092 0.08928 0.97363 -0.02000
C 	C 	0.17063 0.11345 0.97105 -0.04900
C 	C 	0.19931 0.10208 0.98909 0.01300
C 	C 	0.17818 0.06702 0.01018 -0.04800
C 	C 	0.12856 0.04284 0.01275 -0.01900
C 	C 	0.25117 0.12604 0.98542 0.00400
C 	C 	0.26220 0.11686 0.95411 -0.04100
C 	C 	0.31092 0.13575 0.95147 -0.03700
C 	C 	0.34890 0.16388 0.98014 -0.00200
C 	C 	0.33806 0.17423 0.01120 -0.03600
C 	C 	0.28941 0.15541 0.01382 -0.04000
C 	C 	0.39971 0.18112 0.97803 0.02600
C 	C 	0.42765 0.21769 0.95914 -0.06700
C 	C 	0.47736 0.23741 0.95983 0.01100
C 	C 	0.49963 0.22082 0.97956 -0.08900
C 	C 	0.47084 0.18248 0.99713 0.01200
C 	C 	0.42118 0.16282 0.99640 -0.06700
H 	H 	0.09885 0.09764 0.95908 0.04000
H 	H 	0.18673 0.14067 0.95484 0.04100
H 	H 	0.20008 0.05808 0.02424 0.04200
H 	H 	0.11261 0.01564 0.02899 0.03900
H 	H 	0.23291 0.09418 0.93205 0.03900
H 	H 	0.31899 0.12773 0.92737 0.03800
H 	H 	0.36725 0.19633 0.03338 0.03800
H 	H 	0.28129 0.16296 0.03804 0.03900
H 	H 	0.41119 0.23166 0.94460 0.04500
H 	H 	0.49879 0.26625 0.94559 0.03100
H 	H 	0.48729 0.16901 0.01228 0.03900
H 	H 	0.39965 0.13413 0.01071 0.04700
N 	N 	0.01948 0.97596 0.99521 -0.13800
C 	C 	0.97043 0.94946 0.99587 0.11600
N 	N 	0.94800 0.97210 0.99620 -0.13900
N 	N 	0.00081 0.96198 0.45745 -0.13800
C 	C 	0.95125 0.93506 0.45615 0.11600
N 	N 	0.92837 0.95723 0.45427 -0.13900
Cu	Cu	0.67390 0.33298 0.95382 0.89600
Cu	Cu	0.64561 0.34597 0.02033 0.89400
O 	O 	0.68524 0.33130 0.00112 -0.64000
O 	O 	0.71105 0.40399 0.96158 -0.38300
C 	C 	0.70731 0.43081 0.98538 0.28900
O 	O 	0.67396 0.41029 0.00512 -0.39400
H 	H 	0.72052 0.35240 0.01230 0.16300
O 	O 	0.75425 0.41059 0.45461 -0.36500
C 	C 	0.73325 0.43011 0.46670 0.28300
O 	O 	0.68728 0.40124 0.47100 -0.39300
H 	H 	0.73969 0.38018 0.51563 0.17100
H 	H 	0.75133 0.40035 0.62600 0.02800
H 	H 	0.74509 0.40295 0.68670 0.04400
H 	H 	0.72118 0.31336 0.77867 0.03400
H 	H 	0.72443 0.32327 0.71879 0.03700
C 	C 	0.92242 0.88178 0.45612 -0.02200
C 	C 	0.88597 0.85983 0.47628 -0.02000
C 	C 	0.86198 0.81023 0.47864 -0.04900
C 	C 	0.87409 0.78218 0.46072 0.01300
C 	C 	0.90954 0.80377 0.43988 -0.04900
C 	C 	0.93356 0.85328 0.43757 -0.01900
C 	C 	0.85074 0.73062 0.46444 0.00500
C 	C 	0.86062 0.71995 0.49572 -0.04100
C 	C 	0.84259 0.67162 0.49835 -0.03700
C 	C 	0.81459 0.63365 0.46973 -0.00100
C 	C 	0.80358 0.64411 0.43870 -0.03700
C 	C 	0.82157 0.69239 0.43607 -0.04100
C 	C 	0.79776 0.58314 0.47195 0.02600
C 	C 	0.76249 0.55581 0.49189 -0.06700
C 	C 	0.74314 0.50643 0.49150 0.01100
C 	C 	0.75878 0.48386 0.47102 -0.09000
C 	C 	0.79584 0.51202 0.45233 0.01300
C 	C 	0.81515 0.56139 0.45278 -0.06700
H 	H 	0.87712 0.88145 0.49077 0.03800
H 	H 	0.83442 0.79376 0.49464 0.04100
H 	H 	0.91902 0.78236 0.42589 0.04100
H 	H 	0.96123 0.86966 0.42163 0.03800
H 	H 	0.88320 0.74925 0.51774 0.03900
H 	H 	0.85113 0.66385 0.52244 0.03700
H 	H 	0.78152 0.61492 0.41656 0.03800
H 	H 	0.81354 0.70024 0.41187 0.03900
H 	H 	0.74920 0.57246 0.50703 0.04500
H 	H 	0.71529 0.48546 0.50655 0.03000
H 	H 	0.80850 0.49530 0.43657 0.03700
H 	H 	0.84288 0.58244 0.43765 0.04600
H 	H 	0.87332 0.98263 0.47868 0.04100
H 	H 	0.07636 0.98011 0.42722 0.04200
C 	C 	0.73564 0.48433 0.98650 -0.08900
C 	C 	0.74633 0.50346 0.95644 0.01500
C 	C 	0.77143 0.55402 0.95741 -0.06700
C 	C 	0.78627 0.58595 0.98844 0.02600
C 	C 	0.77616 0.56695 0.01854 -0.06700
C 	C 	0.75089 0.51639 0.01757 0.01400
C 	C 	0.81225 0.63923 0.98942 -0.00200
C 	C 	0.85781 0.66691 0.97864 -0.03700
C 	C 	0.88266 0.71747 0.97989 -0.04100
C 	C 	0.86229 0.74085 0.99209 0.00400
C 	C 	0.81662 0.71314 0.00273 -0.04000
C 	C 	0.79165 0.66252 0.00132 -0.03600
C 	C 	0.88911 0.79444 0.99413 0.01300
C 	C 	0.86770 0.81266 0.97555 -0.04900
C 	C 	0.89382 0.86337 0.97665 -0.01900
C 	C 	0.94170 0.89628 0.99621 -0.02300
C 	C 	0.96275 0.87803 0.01520 -0.01900
C 	C 	0.93654 0.82737 0.01421 -0.04900
H 	H 	0.73445 0.47911 0.93226 0.03800
H 	H 	0.77893 0.56832 0.93403 0.04600
H 	H 	0.78790 0.59138 0.04266 0.04500
H 	H 	0.74328 0.50216 0.04097 0.02500
H 	H 	0.87407 0.64929 0.96949 0.03700
H 	H 	0.91777 0.73851 0.97144 0.03900
H 	H 	0.80066 0.73088 0.01226 0.03900
H 	H 	0.75636 0.64140 0.00951 0.03800
H 	H 	0.83112 0.78750 0.95993 0.04100
H 	H 	0.87727 0.87697 0.96176 0.03800
H 	H 	0.99942 0.90308 0.03072 0.03800
H 	H 	0.95315 0.81368 0.02893 0.04100
H 	H 	0.88233 0.98431 0.96349 0.04100
