data_crystal

_cell_length_a 25.11967
_cell_length_b 27.21295
_cell_length_c 45.04962
_cell_angle_alpha 60.76389
_cell_angle_beta  118.93688
_cell_angle_gamma 133.30522

_symmetry_space_group_name_	'P 1'
_symmetry_space_group_name_H-M	'P 1'

loop_
_symmetry_equiv_pos_as_xyz
  x,y,z

loop_
_atom_site_label
_atom_site_type_symbol
_atom_site_fract_x
_atom_site_fract_y
_atom_site_fract_z
_atom_site_charge
Co	Co	0.97631 0.04876 0.08616 1.15900
C 	C 	0.10460 0.01034 0.02309 0.23900
O 	O 	0.07096 0.02862 0.02623 -0.39600
O 	O 	0.03070 0.92857 0.08718 -0.73900
O 	O 	0.90924 0.89750 0.16997 -0.39800
C 	C 	0.08804 0.93357 0.53269 0.30500
O 	O 	0.11684 0.99314 0.53729 -0.35500
O 	O 	0.09283 0.92436 0.60410 -0.75000
C 	C 	0.10013 0.01492 0.98816 -0.12000
C 	C 	0.08757 0.00534 0.92547 -0.14200
C 	C 	0.08015 0.99669 0.89348 0.17000
C 	C 	0.03729 0.92970 0.88919 -0.09200
C 	C 	0.02662 0.92135 0.85805 0.00100
C 	C 	0.05855 0.97991 0.83090 0.04700
C 	C 	0.10334 0.04695 0.83564 -0.06900
C 	C 	0.11413 0.05529 0.86681 -0.13800
C 	C 	0.03927 0.97104 0.79644 0.02200
H 	H 	0.01146 0.88415 0.90979 0.06700
H 	H 	0.99230 0.86940 0.85473 0.02400
H 	H 	0.12801 0.09248 0.81480 0.03500
H 	H 	0.14753 0.10720 0.86995 0.06000
C 	C 	0.00180 0.90441 0.42983 0.06300
C 	C 	0.97943 0.89441 0.39520 -0.00800
C 	C 	0.93963 0.91932 0.36615 -0.03100
C 	C 	0.92140 0.91265 0.33307 -0.03400
C 	C 	0.94254 0.88075 0.32873 -0.00200
C 	C 	0.98153 0.85504 0.35785 -0.03000
C 	C 	0.99995 0.86189 0.39095 -0.05000
C 	C 	0.92539 0.87593 0.29354 0.03500
H 	H 	0.92332 0.94427 0.36918 0.04500
H 	H 	0.89156 0.93293 0.31073 0.04600
H 	H 	0.99788 0.83015 0.35480 0.03800
H 	H 	0.03089 0.84267 0.41319 0.06000
C 	C 	0.05311 0.92378 0.49681 -0.11600
Co	Co	0.06023 0.01147 0.07392 1.16500
Co	Co	0.09906 0.90499 0.09120 1.17000
O 	O 	0.97188 0.06433 0.15619 -0.42700
O 	O 	0.05917 0.81654 0.13212 -0.38700
Co	Co	0.11704 0.00372 0.58022 1.15700
O 	O 	0.11256 0.08570 0.55901 -0.48300
O 	O 	0.07273 0.12929 0.64306 -0.40000
C 	C 	0.07849 0.99694 0.74774 0.06100
C 	C 	0.07597 0.98159 0.46802 0.09000
H 	H 	0.04796 0.61624 0.69813 0.05300
C 	C 	0.05053 0.97191 0.43471 -0.03000
O 	O 	0.05416 0.08916 0.06258 -0.47200
C 	C 	0.04818 0.81464 0.15852 0.30000
O 	O 	0.14542 0.99153 0.05069 -0.33800
O 	O 	0.02208 0.84742 0.15328 -0.38500
Co	Co	0.15708 0.89557 0.60962 1.17100
O 	O 	0.10680 0.87243 0.67667 -0.37900
C 	C 	0.15809 0.03695 0.94871 -0.01300
C 	C 	0.16431 0.04147 0.97999 -0.01200
C 	C 	0.09608 0.99879 0.78197 0.00000
C 	C 	0.98406 0.91145 0.27809 -0.07700
C 	C 	0.96825 0.91526 0.24298 0.01000
C 	C 	0.10481 0.73696 0.70900 -0.02200
C 	C 	0.03263 0.11190 0.14368 0.31200
O 	O 	0.04965 0.09605 0.12766 -0.40600
C 	C 	0.12715 0.16688 0.62723 0.29800
C 	C 	0.15591 0.86245 0.68238 0.29800
O 	O 	0.13528 0.13697 0.61531 -0.40000
H 	H 	0.20775 0.05666 0.94288 0.02300
H 	H 	0.12307 0.02072 0.73635 -0.01300
H 	H 	0.15399 0.02323 0.79690 -0.00500
H 	H 	0.11542 0.03401 0.47159 -0.01800
H 	H 	0.01416 0.94561 0.23083 0.06300
C 	C 	0.10381 0.64093 0.71509 -0.05600
S 	S 	0.98685 0.67797 0.19261 -0.00300
H 	H 	0.21869 0.06431 0.99819 0.03400
H 	H 	0.07014 0.01687 0.41287 0.00100
H 	H 	0.04201 0.93843 0.29284 0.07200
C 	C 	0.13493 0.69818 0.72583 0.02100
C 	C 	0.15820 0.80642 0.71164 -0.07500
H 	H 	0.07709 0.24666 0.10506 0.03900
H 	H 	0.98378 0.55783 0.20962 0.03400
O 	O 	0.20107 0.90064 0.66129 -0.37400
C 	C 	0.04759 0.76286 0.19145 -0.05300
C 	C 	0.19077 0.23716 0.63224 -0.07600
H 	H 	0.20406 0.21551 0.68810 0.03900
S 	S 	0.13738 0.58115 0.70006 -0.00800
C 	C 	0.09993 0.23942 0.13310 -0.02100
H 	H 	0.10606 0.35878 0.10765 0.04800
C 	C 	0.14950 0.62141 0.72350 0.00500
O 	O 	0.24736 0.99771 0.59463 -0.33600
O 	O 	0.22568 0.05033 0.60972 -0.40700
C 	C 	0.11333 0.33655 0.13566 -0.05600
C 	C 	0.09036 0.17670 0.15521 -0.07800
C 	C 	0.04054 0.65244 0.22308 0.01300
C 	C 	0.03464 0.59695 0.22364 -0.04200
O 	O 	0.18388 0.96772 0.12584 -0.33100
O 	O 	0.15934 0.04399 0.11217 -0.39900
S 	S 	0.20502 0.30807 0.59973 0.01600
C 	C 	0.21793 0.25439 0.66375 -0.01800
C 	C 	0.10733 0.35612 0.15679 0.00200
C 	C 	0.21119 0.73640 0.74327 -0.00200
C 	C 	0.12443 0.28429 0.15144 0.01600
S 	S 	0.12574 0.43265 0.14785 -0.00600
H 	H 	0.06341 0.52290 0.21524 0.04700
H 	H 	0.19036 0.50396 0.69443 0.05400
C 	C 	0.27289 0.04862 0.60577 0.23400
S 	S 	0.23967 0.81674 0.73530 0.04300
H 	H 	0.11223 0.46777 0.22151 0.05200
C 	C 	0.11484 0.77394 0.21560 -0.02200
C 	C 	0.20620 0.03207 0.11723 0.22900
C 	C 	0.25063 0.32500 0.65892 0.01200
C 	C 	0.11908 0.32957 0.19320 0.02500
S 	S 	0.11118 0.17834 0.19625 0.01300
C 	C 	0.09869 0.59746 0.23944 0.02200
C 	C 	0.24871 0.36267 0.62367 0.00400
H 	H 	0.25535 0.31799 0.71019 0.04300
H 	H 	0.23356 0.44205 0.58405 0.04900
C 	C 	0.22670 0.66199 0.73915 0.02600
C 	C 	0.13543 0.25712 0.18791 0.00100
C 	C 	0.11102 0.71204 0.23329 0.02000
C 	C 	0.26067 0.34942 0.68370 -0.05600
C 	C 	0.14455 0.43336 0.18882 -0.00700
C 	C 	0.10791 0.55930 0.23163 -0.05500
C 	C 	0.24842 0.42068 0.61177 -0.06200
C 	C 	0.25851 0.72095 0.74852 -0.05600
C 	C 	0.22627 0.60901 0.71032 -0.00600
C 	C 	0.13073 0.27775 0.20909 -0.06200
C 	C 	0.23361 0.55492 0.68212 -0.07500
C 	C 	0.14007 0.37298 0.21135 -0.06100
H 	H 	0.16774 0.82542 0.21563 0.05000
C 	C 	0.27311 0.41378 0.67249 0.00200
C 	C 	0.26273 0.44702 0.63687 0.02800
S 	S 	0.26181 0.44136 0.69333 -0.01400
C 	C 	0.24569 0.49713 0.65883 -0.00400
C 	C 	0.24773 0.49417 0.62909 -0.06100
H 	H 	0.24062 0.52605 0.60310 0.04800
H 	H 	0.13728 0.25514 0.23705 0.04300
Co	Co	0.95656 0.86455 0.10515 1.18200
C 	C 	0.16746 0.50889 0.21589 -0.07700
C 	C 	0.26966 0.65425 0.73214 -0.05900
C 	C 	0.25734 0.61513 0.68702 0.03800
C 	C 	0.26719 0.56052 0.66208 0.03800
C 	C 	0.34978 0.11145 0.60449 -0.05700
H 	H 	0.23693 0.14477 0.05848 0.03700
H 	H 	0.16253 0.36633 0.23939 0.04500
H 	H 	0.32145 0.17305 0.55467 0.03900
C 	C 	0.19368 0.49823 0.19986 0.03900
C 	C 	0.03004 0.98539 0.96436 0.05800
H 	H 	0.31902 0.75708 0.75670 0.05100
C 	C 	0.18347 0.58464 0.24054 -0.00600
C 	C 	0.16692 0.65289 0.25406 0.00700
C 	C 	0.17525 0.71278 0.24886 -0.05600
H 	H 	0.96338 0.25114 0.05628 0.03400
C 	C 	0.36465 0.16632 0.57413 -0.02900
C 	C 	0.21253 0.57252 0.22465 0.03900
O 	O 	0.01051 0.84552 0.05518 -0.36100
C 	C 	0.02373 0.98041 0.93320 0.05100
C 	C 	0.27797 0.09014 0.10692 -0.06600
H 	H 	0.33062 0.68825 0.73813 0.04700
C 	C 	0.28227 0.13924 0.07456 -0.02800
S 	S 	0.42168 0.10589 0.62126 -0.01400
C 	C 	0.31307 0.68105 0.67083 -0.07700
H 	H 	0.23068 0.76028 0.25399 0.05400
C 	C 	0.26667 0.54947 0.19434 -0.07700
C 	C 	0.32482 0.62661 0.64710 -0.07600
S 	S 	0.23581 0.65401 0.25644 -0.00600
O 	O 	0.94464 0.95240 0.08109 -0.56400
H 	H 	0.33065 0.72777 0.67395 0.05500
H 	H 	0.28709 0.54078 0.18227 0.05500
C 	C 	0.34771 0.68681 0.65143 0.04000
H 	H 	0.35381 0.63106 0.63330 0.05500
C 	C 	0.43277 0.19857 0.56669 0.01500
C 	C 	0.28571 0.62385 0.21883 -0.07500
H 	H 	0.41536 0.25639 0.51305 0.04600
C 	C 	0.31323 0.61183 0.20433 0.04000
C 	C 	0.47271 0.17047 0.59204 0.00600
H 	H 	0.30980 0.21811 0.00823 0.04800
C 	C 	0.44451 0.23331 0.53264 -0.05800
S 	S 	0.34623 0.08242 0.11774 -0.01700
H 	H 	0.32163 0.67278 0.22580 0.05800
C 	C 	0.34146 0.16722 0.06130 0.01600
C 	C 	0.89374 0.88401 0.22303 -0.08400
H 	H 	0.05038 0.71875 0.69071 0.04800
Co	Co	0.04948 0.06658 0.58414 1.18300
O 	O 	0.10564 0.89076 0.55754 -0.38000
C 	C 	0.00405 0.96764 0.72773 -0.06000
O 	O 	0.01268 0.96093 0.67883 -0.36300
C 	C 	0.68165 0.35512 0.97274 0.03500
C 	C 	0.61031 0.29924 0.97995 -0.07700
C 	C 	0.56371 0.31169 0.97891 0.03500
C 	C 	0.58767 0.38053 0.96939 -0.07500
C 	C 	0.66046 0.43697 0.96387 0.03500
C 	C 	0.70707 0.42385 0.96520 -0.07400
H 	H 	0.59176 0.24612 0.98716 0.04700
H 	H 	0.55017 0.39018 0.96669 0.05200
H 	H 	0.76291 0.46663 0.96055 0.05400
C 	C 	0.75881 0.35319 0.47135 0.03300
C 	C 	0.80257 0.42310 0.47200 -0.07700
C 	C 	0.78097 0.44281 0.48525 0.03700
C 	C 	0.71339 0.39351 0.49617 -0.07600
C 	C 	0.66779 0.32449 0.49423 0.03600
C 	C 	0.69094 0.30402 0.48242 -0.07700
H 	H 	0.85364 0.46203 0.46253 0.05000
H 	H 	0.69736 0.40836 0.50709 0.05500
H 	H 	0.65628 0.25004 0.48201 0.04900
Co	Co	0.87167 0.90115 0.11715 1.18800
Co	Co	0.86598 0.01112 0.12428 1.13600
C 	C 	0.93889 0.81435 0.05209 0.27300
O 	O 	0.89780 0.10548 0.08651 -0.41900
O 	O 	0.90399 0.98452 0.10571 -0.72800
C 	C 	0.89900 0.11804 0.05455 0.29700
O 	O 	0.86606 0.82102 0.12052 -0.46800
C 	C 	0.72828 0.88571 0.09961 0.29100
O 	O 	0.92080 0.09253 0.04808 -0.40700
O 	O 	0.76389 0.95353 0.09208 -0.36300
O 	O 	0.75777 0.86007 0.09934 -0.37200
C 	C 	0.87845 0.90145 0.18471 0.30700
O 	O 	0.83430 0.92163 0.16534 -0.39100
O 	O 	0.91529 0.79564 0.07902 -0.38300
Co	Co	0.95872 0.93529 0.63121 1.19800
Co	Co	0.03039 0.87399 0.62897 1.19200
Co	Co	0.96079 0.06420 0.61949 1.14200
C 	C 	0.00108 0.76296 0.61162 0.33000
O 	O 	0.98126 0.14192 0.57295 -0.41800
O 	O 	0.98748 0.01698 0.60890 -0.81400
C 	C 	0.96839 0.13358 0.54317 0.30500
O 	O 	0.95264 0.84850 0.64708 -0.47100
C 	C 	0.81715 0.92611 0.61117 0.29200
O 	O 	0.01339 0.95865 0.59396 -0.54500
O 	O 	0.98580 0.09857 0.54213 -0.40900
O 	O 	0.85239 0.99339 0.59610 -0.36000
O 	O 	0.84504 0.89248 0.61922 -0.37100
C 	C 	0.98725 0.97637 0.69007 0.27900
O 	O 	0.94127 0.99384 0.66809 -0.38200
O 	O 	0.07303 0.79055 0.62576 -0.40800
O 	O 	0.97001 0.78736 0.61130 -0.41100
C 	C 	0.96439 0.93876 0.77699 -0.06500
C 	C 	0.94687 0.93704 0.74283 -0.00300
H 	H 	0.98001 0.96394 0.97059 0.02800
H 	H 	0.96911 0.95623 0.91533 0.01700
H 	H 	0.92009 0.91692 0.78796 0.04900
H 	H 	0.88908 0.91357 0.72775 0.04100
C 	C 	0.97653 0.84660 0.45828 -0.12000
C 	C 	0.00199 0.85621 0.49160 0.07600
C 	C 	0.83483 0.84488 0.23911 0.01900
C 	C 	0.85058 0.84070 0.27423 -0.06600
H 	H 	0.93808 0.79426 0.45469 0.06000
H 	H 	0.98330 0.81117 0.51349 0.01000
H 	H 	0.77701 0.81983 0.22404 0.03500
H 	H 	0.80481 0.81210 0.28610 0.05000
C 	C 	0.66541 0.88112 0.64113 0.00500
C 	C 	0.61772 0.85210 0.66144 -0.05900
C 	C 	0.54429 0.83294 0.64427 0.03000
C 	C 	0.51867 0.83855 0.60800 0.00600
C 	C 	0.56341 0.85825 0.58875 -0.05300
C 	C 	0.63837 0.88185 0.60555 0.01900
S 	S 	0.74130 0.88293 0.65617 0.01800
C 	C 	0.74512 0.88747 0.61876 -0.07100
C 	C 	0.68401 0.88686 0.59276 -0.01600
S 	S 	0.42528 0.78392 0.59896 -0.00300
C 	C 	0.41364 0.75524 0.63925 -0.00500
C 	C 	0.48518 0.78635 0.66180 -0.05800
H 	H 	0.63563 0.84115 0.68974 0.05000
H 	H 	0.53953 0.85141 0.56244 0.05300
H 	H 	0.67381 0.89140 0.56557 0.04900
H 	H 	0.49427 0.76762 0.69002 0.04800
C 	C 	0.59862 0.76270 0.16370 0.00000
C 	C 	0.54832 0.70351 0.18462 -0.05900
C 	C 	0.50319 0.70781 0.19170 0.02600
C 	C 	0.50499 0.76800 0.17582 0.00500
C 	C 	0.54637 0.82221 0.15045 -0.05500
C 	C 	0.59549 0.81987 0.14548 0.02000
S 	S 	0.64059 0.76415 0.14372 0.02500
C 	C 	0.65960 0.83807 0.11248 -0.06900
C 	C 	0.63000 0.86258 0.11681 -0.02400
S 	S 	0.42694 0.74727 0.17771 -0.00100
C 	C 	0.39142 0.66432 0.20035 -0.00600
C 	C 	0.43896 0.64911 0.20551 -0.05800
H 	H 	0.54264 0.65541 0.19399 0.04700
H 	H 	0.53838 0.86292 0.13428 0.05400
H 	H 	0.63615 0.91088 0.10091 0.05100
H 	H 	0.42423 0.59691 0.21543 0.04600
C 	C 	0.80103 0.25710 0.45196 0.00400
C 	C 	0.79912 0.19872 0.46141 -0.06200
C 	C 	0.86786 0.20831 0.47264 0.01400
C 	C 	0.93620 0.27437 0.47569 -0.01800
C 	C 	0.93764 0.32965 0.47160 -0.05600
C 	C 	0.86912 0.32094 0.45889 0.02100
S 	S 	0.73200 0.25325 0.45189 -0.02700
C 	C 	0.78397 0.33202 0.45878 -0.00300
C 	C 	0.85974 0.36299 0.46295 -0.06100
S 	S 	0.00262 0.26277 0.50301 0.05200
C 	C 	0.95002 0.17622 0.51043 -0.09800
C 	C 	0.87559 0.15301 0.49229 -0.02100
H 	H 	0.74640 0.14706 0.46216 0.03800
H 	H 	0.98963 0.37602 0.48017 0.04100
H 	H 	0.90635 0.40812 0.47367 0.04200
H 	H 	0.82794 0.09887 0.49761 0.02600
C 	C 	0.92656 0.61168 0.57986 0.00300
C 	C 	0.94207 0.58506 0.56775 -0.06300
C 	C 	0.90809 0.57908 0.53306 0.02600
C 	C 	0.86552 0.60540 0.51044 0.00100
C 	C 	0.85156 0.63363 0.52243 -0.05600
C 	C 	0.88458 0.63841 0.55732 0.01100
S 	S 	0.98211 0.64960 0.61293 0.01100
C 	C 	0.95284 0.69763 0.60141 -0.09500
C 	C 	0.89902 0.68668 0.56946 -0.01300
S 	S 	0.80576 0.56261 0.47914 -0.01300
C 	C 	0.83325 0.51269 0.49151 -0.00600
C 	C 	0.89063 0.52767 0.52217 -0.06100
H 	H 	0.97643 0.56644 0.58521 0.04400
H 	H 	0.81733 0.65239 0.50502 0.04600
H 	H 	0.88100 0.72035 0.55304 0.03800
H 	H 	0.90873 0.49417 0.53919 0.04400
C 	C 	0.52009 0.17152 0.58331 -0.06600
C 	C 	0.52885 0.20354 0.54888 0.02300
C 	C 	0.48930 0.23154 0.52383 0.00100
S 	S 	0.53077 0.28624 0.49054 -0.01600
C 	C 	0.59653 0.27307 0.50534 -0.00700
C 	C 	0.58956 0.22686 0.53863 -0.06300
H 	H 	0.54846 0.14753 0.60259 0.03900
H 	H 	0.63252 0.21877 0.55653 0.04100
C 	C 	0.81644 0.30363 0.00724 -0.00000
C 	C 	0.88054 0.30534 0.02008 -0.05600
C 	C 	0.87707 0.25999 0.01141 0.01000
C 	C 	0.81330 0.21941 0.98784 0.00500
C 	C 	0.74982 0.21924 0.97449 -0.06600
C 	C 	0.75343 0.26389 0.98370 0.02600
S 	S 	0.81325 0.36439 0.00493 -0.01700
C 	C 	0.73147 0.34181 0.97486 -0.00400
C 	C 	0.70476 0.28451 0.96562 -0.06300
S 	S 	0.80996 0.15113 0.99564 0.00000
C 	C 	0.88930 0.17146 0.02696 -0.07900
C 	C 	0.91997 0.23321 0.03323 -0.02000
H 	H 	0.92944 0.33728 0.03794 0.04300
H 	H 	0.69980 0.18587 0.95748 0.04200
H 	H 	0.65182 0.25801 0.94730 0.04300
C 	C 	0.77112 0.63812 0.95271 0.00400
C 	C 	0.83700 0.70090 0.96150 -0.05600
C 	C 	0.83409 0.73062 0.97837 0.01500
C 	C 	0.76763 0.69577 0.98770 0.00200
C 	C 	0.70586 0.62839 0.98355 -0.05900
C 	C 	0.70738 0.60035 0.96509 0.02700
S 	S 	0.76922 0.58188 0.94602 -0.01400
C 	C 	0.68708 0.50959 0.95645 -0.00300
C 	C 	0.66022 0.52805 0.96737 -0.06000
S 	S 	0.79070 0.72580 0.01962 0.02500
C 	C 	0.88289 0.78559 0.02145 -0.07100
C 	C 	0.89910 0.78142 0.99733 -0.02200
H 	H 	0.88966 0.72357 0.95731 0.04500
H 	H 	0.66040 0.59717 0.99616 0.04900
H 	H 	0.61582 0.49044 0.98133 0.04600
H 	H 	0.95582 0.80660 0.99690 0.04500
C 	C 	0.38332 0.19748 0.01307 0.00000
C 	C 	0.34216 0.19740 0.02572 -0.05800
C 	C 	0.38445 0.14147 0.08373 0.00500
C 	C 	0.42612 0.14205 0.07118 -0.06700
C 	C 	0.42819 0.17368 0.03577 0.02300
S 	S 	0.42068 0.25631 0.97883 -0.01700
C 	C 	0.49242 0.25266 0.99040 -0.00600
C 	C 	0.48939 0.20447 0.02302 -0.06400
H 	H 	0.45817 0.12103 0.08864 0.03900
H 	H 	0.53592 0.20078 0.03939 0.04200
