data_crystal

_cell_length_a 30.79458
_cell_length_b 31.00300
_cell_length_c 26.55244
_cell_angle_alpha 95.53240
_cell_angle_beta  95.52735
_cell_angle_gamma 125.56995

_symmetry_space_group_name_	'P 1'
_symmetry_space_group_name_H-M	'P 1'

loop_
_symmetry_equiv_pos_as_xyz
  x,y,z

loop_
_atom_site_label
_atom_site_type_symbol
_atom_site_fract_x
_atom_site_fract_y
_atom_site_fract_z
_atom_site_charge
N 	N 	0.02647 0.05253 0.98968 -0.13600
C 	C 	0.05055 0.02723 0.98678 0.11700
N 	N 	0.00661 0.03325 0.43891 -0.13500
C 	C 	0.03289 0.01042 0.44483 0.11500
C 	C 	0.09137 0.04165 0.44320 -0.01700
C 	C 	0.11232 0.01576 0.42161 -0.02700
C 	C 	0.16800 0.04480 0.42181 -0.04400
C 	C 	0.20329 0.10000 0.44349 0.01200
C 	C 	0.18240 0.12610 0.46455 -0.04600
C 	C 	0.12668 0.09708 0.46440 -0.02100
C 	C 	0.26216 0.13031 0.44451 0.00900
C 	C 	0.29861 0.15239 0.49174 -0.04100
C 	C 	0.35432 0.18013 0.49264 -0.02900
C 	C 	0.33759 0.16401 0.39919 -0.03000
C 	C 	0.28188 0.13628 0.39823 -0.04100
H 	H 	0.18379 0.02434 0.40544 0.04400
H 	H 	0.20935 0.16878 0.48118 0.04400
H 	H 	0.11113 0.11749 0.48143 0.04300
H 	H 	0.28373 0.14775 0.52765 0.04400
H 	H 	0.35249 0.16851 0.36329 0.04200
H 	H 	0.25406 0.11948 0.36160 0.04300
C 	C 	0.10888 0.05806 0.98519 -0.02700
C 	C 	0.14102 0.04697 0.01367 -0.01100
C 	C 	0.19491 0.07187 0.00818 -0.04000
C 	C 	0.21723 0.10806 0.97414 0.00600
C 	C 	0.18571 0.12049 0.94681 -0.04600
C 	C 	0.13173 0.09564 0.95238 -0.01800
C 	C 	0.27341 0.13243 0.96684 0.01000
C 	C 	0.31348 0.18829 0.98213 -0.04300
C 	C 	0.28778 0.09941 0.94772 -0.04300
H 	H 	0.21922 0.06271 0.03006 0.04600
H 	H 	0.20273 0.14864 0.92065 0.04300
H 	H 	0.10730 0.10446 0.93014 0.04100
H 	H 	0.30279 0.21411 0.99691 0.04200
H 	H 	0.25705 0.05628 0.93542 0.04300
C 	C 	0.34208 0.12183 0.94567 -0.02900
H 	H 	0.12404 0.01860 0.03964 0.04300
H 	H 	0.35300 0.09589 0.93195 0.04200
C 	C 	0.97273 0.02388 0.99196 0.11000
O 	O 	0.56319 0.22041 0.99353 -0.35900
O 	O 	0.67317 0.20881 0.99027 -0.37100
C 	C 	0.71928 0.22916 0.97425 0.31200
H 	H 	0.59822 0.23406 0.90059 0.18000
O 	O 	0.71468 0.24580 0.47869 -0.44000
H 	H 	0.62297 0.25476 0.40897 0.17100
N 	N 	0.54728 0.16193 0.12478 -0.10600
N 	N 	0.56900 0.18205 0.27968 -0.12000
C 	C 	0.92467 0.02992 0.43504 -0.01600
C 	C 	0.88528 0.01908 0.46486 -0.02900
C 	C 	0.86214 0.04673 0.46314 -0.04400
C 	C 	0.87806 0.08537 0.43152 0.01100
C 	C 	0.91615 0.09503 0.40053 -0.04600
C 	C 	0.93935 0.06745 0.40225 -0.02300
C 	C 	0.85704 0.11772 0.43294 0.00900
C 	C 	0.82458 0.11341 0.38893 -0.04300
C 	C 	0.80456 0.14402 0.39051 -0.02800
C 	C 	0.81702 0.17918 0.43601 -0.01000
C 	C 	0.84985 0.18390 0.47979 -0.03000
C 	C 	0.86981 0.15331 0.47828 -0.04400
C 	C 	0.79406 0.20853 0.43871 0.04900
C 	C 	0.77472 0.23289 0.44262 -0.11700
H 	H 	0.83249 0.03877 0.48697 0.04100
H 	H 	0.92855 0.12466 0.37587 0.04300
H 	H 	0.96911 0.07565 0.37849 0.04100
H 	H 	0.81456 0.08611 0.35371 0.04300
H 	H 	0.77906 0.14004 0.35655 0.04300
H 	H 	0.85957 0.21093 0.51512 0.03500
H 	H 	0.89517 0.15722 0.51232 0.04100
C 	C 	0.37390 0.18594 0.44638 -0.00500
C 	C 	0.43132 0.21518 0.44729 0.05000
C 	C 	0.47937 0.23999 0.44771 -0.10000
H 	H 	0.38221 0.19707 0.52926 0.04600
C 	C 	0.94642 0.05118 0.99515 -0.02700
C 	C 	0.96063 0.09251 0.96730 -0.02000
C 	C 	0.93331 0.11606 0.96788 -0.04800
C 	C 	0.89163 0.09857 0.99635 0.00700
C 	C 	0.87833 0.05826 0.02521 -0.04100
C 	C 	0.90558 0.03467 0.02464 -0.01300
C 	C 	0.86018 0.12060 0.99394 0.00300
C 	C 	0.86205 0.15062 0.03833 -0.03700
C 	C 	0.83220 0.17151 0.03586 -0.02000
C 	C 	0.80027 0.16240 0.98906 -0.01900
C 	C 	0.79803 0.13209 0.94484 -0.02800
C 	C 	0.82786 0.11124 0.94724 -0.04400
C 	C 	0.77141 0.18584 0.98578 0.05100
C 	C 	0.74742 0.20553 0.98147 -0.12100
H 	H 	0.99196 0.10558 0.94432 0.03800
H 	H 	0.94402 0.14737 0.94568 0.04100
H 	H 	0.84628 0.04459 0.04739 0.04400
H 	H 	0.89476 0.00337 0.04689 0.04200
H 	H 	0.88685 0.15801 0.07457 0.04300
H 	H 	0.83422 0.19503 0.07018 0.04300
H 	H 	0.77347 0.12495 0.90853 0.03400
H 	H 	0.82585 0.08780 0.91287 0.04000
C 	C 	0.36774 0.21067 0.97996 -0.02900
C 	C 	0.38226 0.17737 0.96250 -0.00800
C 	C 	0.43870 0.19973 0.96517 0.04900
C 	C 	0.48632 0.21946 0.96873 -0.10600
C 	C 	0.54345 0.24461 0.97467 0.30300
C 	C 	0.75136 0.26135 0.44951 0.31100
C 	C 	0.60116 0.21547 0.25996 0.07300
C 	C 	0.58583 0.20107 0.14978 0.09300
N 	N 	0.54070 0.20413 0.59918 -0.11400
N 	N 	0.52655 0.19523 0.74770 -0.11600
O 	O 	0.73600 0.26627 0.94576 -0.44200
Cu	Cu	0.64193 0.24978 0.99450 0.92700
Cu	Cu	0.68796 0.25554 0.88724 0.86900
C 	C 	0.65963 0.29038 0.10207 0.28700
O 	O 	0.63552 0.25648 0.92128 -0.64200
O 	O 	0.57649 0.29516 0.96980 -0.39500
O 	O 	0.65993 0.25697 0.06752 -0.34700
O 	O 	0.65786 0.26170 0.82430 -0.41200
Cu	Cu	0.72689 0.29483 0.53671 0.86900
Cu	Cu	0.64598 0.31065 0.49538 0.89800
O 	O 	0.64626 0.29380 0.42401 -0.64000
O 	O 	0.77166 0.30664 0.43250 -0.36800
O 	O 	0.56776 0.27066 0.48599 -0.37700
C 	C 	0.53651 0.27006 0.44776 0.31100
O 	O 	0.55694 0.30273 0.41436 -0.38900
O 	O 	0.72233 0.31902 0.35529 -0.35100
C 	C 	0.61562 0.27595 0.72454 0.00200
C 	C 	0.61991 0.27997 0.67252 -0.00300
C 	C 	0.56608 0.23105 0.73741 0.08400
C 	C 	0.57585 0.23777 0.63173 0.07800
C 	C 	0.67312 0.29140 0.15727 -0.06100
C 	C 	0.68761 0.30589 0.26558 -0.06200
C 	C 	0.64148 0.25739 0.23529 -0.00200
C 	C 	0.63414 0.25015 0.18107 0.00500
H 	H 	0.39862 0.25369 0.99291 0.03900
C 	C 	0.95268 0.00438 0.44019 0.10700
C 	C 	0.66160 0.30519 0.81710 0.28300
O 	O 	0.72189 0.32610 0.59952 -0.41200
O 	O 	0.63519 0.31240 0.08921 -0.37600
C 	C 	0.68871 0.31941 0.32078 0.28800
C 	C 	0.67824 0.32244 0.60711 0.28300
O 	O 	0.64759 0.32384 0.56972 -0.36800
C 	C 	0.65950 0.31586 0.76411 -0.06600
C 	C 	0.66774 0.32438 0.66022 -0.06600
Cu	Cu	0.73095 0.33836 0.42832 0.92900
Cu	Cu	0.62854 0.33502 0.39266 0.89700
C 	C 	0.72203 0.33709 0.18757 -0.00200
Cu	Cu	0.67228 0.33575 0.92892 0.89600
O 	O 	0.68772 0.33413 0.00013 -0.63600
O 	O 	0.66043 0.33557 0.85477 -0.37100
O 	O 	0.72557 0.34631 0.50183 -0.64000
O 	O 	0.66688 0.34404 0.33360 -0.37700
C 	C 	0.72927 0.34442 0.24179 0.00500
Cu	Cu	0.64587 0.35163 0.03084 0.89800
H 	H 	0.72684 0.35689 0.01583 0.17200
H 	H 	0.08548 0.97317 0.40463 0.04900
N 	N 	0.02077 0.97329 0.98585 -0.13400
N 	N 	0.00516 0.95865 0.45217 -0.13300
H 	H 	0.87362 0.99031 0.49036 0.04700
C 	C 	0.96720 0.94464 0.98784 0.12800
N 	N 	0.94316 0.96985 0.99098 -0.13700
C 	C 	0.95127 0.92951 0.45334 0.11400
N 	N 	0.92498 0.95239 0.44727 -0.13600
O 	O 	0.71334 0.41352 0.93953 -0.37900
C 	C 	0.71273 0.44420 0.97725 0.28700
O 	O 	0.67936 0.42331 0.01026 -0.38300
O 	O 	0.76105 0.41660 0.42806 -0.35600
C 	C 	0.73735 0.43707 0.44673 0.30200
O 	O 	0.68663 0.40496 0.45242 -0.39100
H 	H 	0.74865 0.38367 0.52188 0.18000
C 	C 	0.70805 0.36785 0.69982 0.00200
C 	C 	0.70415 0.36344 0.75184 -0.00400
C 	C 	0.75325 0.41708 0.68698 0.08400
C 	C 	0.74667 0.40714 0.79265 0.07600
N 	N 	0.78058 0.44201 0.82522 -0.11800
N 	N 	0.78931 0.45636 0.67672 -0.11600
C 	C 	0.76436 0.37701 0.16291 0.07300
C 	C 	0.77878 0.39232 0.27307 0.09200
N 	N 	0.81826 0.43052 0.29807 -0.10800
N 	N 	0.79810 0.40884 0.14318 -0.12100
C 	C 	0.92140 0.87293 0.46024 -0.02000
C 	C 	0.94611 0.85812 0.49456 -0.01900
C 	C 	0.92121 0.80370 0.49626 -0.04700
C 	C 	0.87134 0.76355 0.46374 0.01400
C 	C 	0.84544 0.77837 0.43103 -0.04700
C 	C 	0.87032 0.83286 0.42934 -0.02000
C 	C 	0.84809 0.70608 0.46152 0.00800
C 	C 	0.84365 0.67524 0.41629 -0.04100
C 	C 	0.82330 0.62128 0.41463 -0.03000
C 	C 	0.80731 0.59777 0.45815 -0.00600
C 	C 	0.81177 0.62848 0.50341 -0.03000
C 	C 	0.83216 0.68251 0.50514 -0.04100
C 	C 	0.78393 0.54145 0.45548 0.04800
C 	C 	0.76340 0.49399 0.45216 -0.10300
H 	H 	0.98515 0.88872 0.51914 0.04100
H 	H 	0.94136 0.79267 0.52184 0.04400
H 	H 	0.80666 0.74764 0.40612 0.04400
H 	H 	0.85079 0.84374 0.40276 0.04200
H 	H 	0.85627 0.69320 0.38257 0.04300
H 	H 	0.81976 0.59772 0.37944 0.04400
H 	H 	0.79922 0.61048 0.53713 0.04200
H 	H 	0.83552 0.70600 0.54027 0.04300
C 	C 	0.74459 0.50280 0.97841 -0.09000
C 	C 	0.75543 0.52314 0.93252 0.01700
C 	C 	0.78329 0.57848 0.93357 -0.06300
C 	C 	0.80057 0.61394 0.98043 0.02200
C 	C 	0.79041 0.59378 0.02632 -0.05800
C 	C 	0.76264 0.53851 0.02535 0.02200
C 	C 	0.82920 0.67216 0.98149 -0.00600
C 	C 	0.88298 0.70924 0.00818 -0.02800
C 	C 	0.90982 0.76453 0.01001 -0.03300
C 	C 	0.88312 0.78310 0.98515 0.00600
C 	C 	0.82943 0.74618 0.95843 -0.03900
C 	C 	0.80249 0.69084 0.95661 -0.03500
C 	C 	0.91140 0.83996 0.98602 0.00600
C 	C 	0.93618 0.88771 0.98685 -0.04100
H 	H 	0.74150 0.49606 0.89599 0.04700
H 	H 	0.79127 0.59378 0.89797 0.05100
H 	H 	0.80372 0.62092 0.06269 0.04800
H 	H 	0.75508 0.52344 0.06108 0.03200
H 	H 	0.90395 0.69519 0.02740 0.04100
H 	H 	0.95142 0.79289 0.03058 0.04400
H 	H 	0.80860 0.76029 0.93903 0.04400
H 	H 	0.76087 0.66251 0.93613 0.04100
