data_crystal

_cell_length_a 18.02545
_cell_length_b 17.01635
_cell_length_c 41.02437
_cell_angle_alpha 89.71565
_cell_angle_beta  89.71793
_cell_angle_gamma 119.46828

_symmetry_space_group_name_	'P 1'
_symmetry_space_group_name_H-M	'P 1'

loop_
_symmetry_equiv_pos_as_xyz
  x,y,z

loop_
_atom_site_label
_atom_site_type_symbol
_atom_site_fract_x
_atom_site_fract_y
_atom_site_fract_z
_atom_site_charge
C 	C 	0.87530 0.48818 0.93173 0.28700
C 	C 	0.53661 0.42824 0.88429 0.30900
C 	C 	0.75011 0.57614 0.95659 0.29500
C 	C 	0.66194 0.32674 0.85074 0.28000
C 	C 	0.53408 0.32453 0.98106 0.31200
C 	C 	0.63780 0.18542 0.94409 0.28800
Ni	Ni	0.72111 0.48432 0.89513 1.11400
Ni	Ni	0.56190 0.28772 0.91352 1.11900
Ni	Ni	0.71277 0.38386 0.96471 1.12000
O 	O 	0.84790 0.52787 0.91036 -0.36100
O 	O 	0.82339 0.40765 0.94412 -0.38200
O 	O 	0.51413 0.26067 0.95936 -0.38900
O 	O 	0.61358 0.47249 0.87180 -0.37100
O 	O 	0.52356 0.38067 0.91086 -0.39200
O 	O 	0.66572 0.24624 0.96828 -0.37000
O 	O 	0.69419 0.54245 0.93369 -0.37900
O 	O 	0.77199 0.52235 0.97206 -0.36500
O 	O 	0.59765 0.19391 0.91834 -0.38800
O 	O 	0.72559 0.40910 0.85658 -0.36800
O 	O 	0.58511 0.29719 0.86417 -0.37800
O 	O 	0.61380 0.37911 0.98861 -0.38500
O 	O 	0.67625 0.37767 0.92064 -0.71100
H 	H 	0.70608 0.34828 0.91070 0.16100
C 	C 	0.69920 0.12543 0.54628 0.28600
C 	C 	0.60492 0.38549 0.49425 0.30100
C 	C 	0.82838 0.37851 0.51819 0.29700
C 	C 	0.46160 0.12813 0.52036 0.27600
C 	C 	0.69892 0.44617 0.59166 0.30600
C 	C 	0.56261 0.19487 0.61590 0.27700
Ni	Ni	0.64893 0.23663 0.50389 1.11200
Ni	Ni	0.55337 0.29699 0.55878 1.12000
Ni	Ni	0.72332 0.29140 0.57785 1.12100
O 	O 	0.65126 0.12055 0.52091 -0.36000
O 	O 	0.75614 0.20425 0.55775 -0.37800
O 	O 	0.63996 0.42594 0.56927 -0.38800
O 	O 	0.65799 0.35652 0.48592 -0.36900
O 	O 	0.53994 0.33662 0.51361 -0.37700
O 	O 	0.63730 0.19880 0.60975 -0.37500
O 	O 	0.78131 0.30092 0.50363 -0.36400
O 	O 	0.80927 0.39222 0.54806 -0.37500
O 	O 	0.54753 0.25988 0.60602 -0.37900
O 	O 	0.51728 0.17116 0.49662 -0.36200
O 	O 	0.45761 0.17180 0.54656 -0.37400
O 	O 	0.71293 0.38372 0.60409 -0.38800
O 	O 	0.63334 0.25891 0.54756 -0.70900
H 	H 	0.59870 0.19553 0.55441 0.14000
C 	C 	0.15657 0.12922 0.77353 0.28400
C 	C 	0.88940 0.76255 0.73420 0.30800
C 	C 	0.12800 0.99692 0.69914 0.27200
C 	C 	0.91620 0.87844 0.81770 0.28000
C 	C 	0.87468 0.97114 0.68290 0.29100
C 	C 	0.88514 0.09333 0.76113 0.29000
Ni	Ni	0.04113 0.92310 0.76243 1.09000
Ni	Ni	0.85756 0.91055 0.75191 1.11900
Ni	Ni	0.02382 0.07895 0.72312 1.10500
O 	O 	0.15157 0.04875 0.76954 -0.37300
O 	O 	0.10217 0.15055 0.75970 -0.39200
O 	O 	0.82888 0.95316 0.70995 -0.38200
O 	O 	0.94737 0.78832 0.75704 -0.36000
O 	O 	0.86051 0.81531 0.72426 -0.38700
O 	O 	0.93639 0.11827 0.73488 -0.36600
O 	O 	0.07633 0.92193 0.71444 -0.39600
O 	O 	0.12698 0.07205 0.70564 -0.37200
O 	O 	0.85425 0.01209 0.77466 -0.38700
O 	O 	0.99794 0.91047 0.81024 -0.35800
O 	O 	0.85649 0.84579 0.79464 -0.37500
O 	O 	0.95801 0.00776 0.68438 -0.36500
O 	O 	0.97794 0.98046 0.75292 -0.70900
H 	H 	0.98481 0.01246 0.77360 0.17300
C 	C 	0.21803 0.43575 0.42716 0.29100
C 	C 	0.40671 0.79893 0.48291 0.31000
C 	C 	0.15583 0.58714 0.45512 0.32400
C 	C 	0.49157 0.62095 0.46142 0.28200
C 	C 	0.34649 0.80734 0.38777 0.29500
C 	C 	0.43468 0.66780 0.35768 0.29100
Ni	Ni	0.31854 0.60133 0.47258 1.11400
Ni	Ni	0.45942 0.74979 0.42148 1.12100
Ni	Ni	0.26999 0.61337 0.39703 1.11900
O 	O 	0.23176 0.46868 0.45744 -0.36900
O 	O 	0.25328 0.48749 0.40102 -0.38200
O 	O 	0.42342 0.81533 0.38879 -0.38100
O 	O 	0.39394 0.72258 0.49583 -0.37200
O 	O 	0.45124 0.82962 0.45593 -0.37800
O 	O 	0.35267 0.64717 0.35775 -0.37900
O 	O 	0.22525 0.63752 0.47105 -0.38800
O 	O 	0.16040 0.56413 0.42484 -0.38800
O 	O 	0.47884 0.68578 0.38479 -0.39400
O 	O 	0.41860 0.57484 0.47755 -0.36400
O 	O 	0.52085 0.70715 0.45310 -0.36500
O 	O 	0.28003 0.73526 0.39963 -0.39400
O 	O 	0.35385 0.64234 0.42981 -0.71400
H 	H 	0.37269 0.59910 0.42379 0.15400
C 	C 	0.39175 0.52767 0.02407 0.30500
C 	C 	0.28488 0.76227 0.09760 0.32300
C 	C 	0.19601 0.50566 0.03505 0.28800
C 	C 	0.50065 0.82571 0.07127 0.26100
C 	C 	0.21210 0.69875 0.98315 0.30200
C 	C 	0.47006 0.83693 0.97781 0.27700
Ni	Ni	0.34619 0.63973 0.07125 1.11400
Ni	Ni	0.34699 0.80446 0.03126 1.11900
Ni	Ni	0.33856 0.64147 0.98974 1.11800
O 	O 	0.37119 0.53877 0.05395 -0.38300
O 	O 	0.41477 0.59135 0.00197 -0.38600
O 	O 	0.23968 0.76363 0.00486 -0.36900
O 	O 	0.32296 0.71675 0.10468 -0.38100
O 	O 	0.26174 0.76356 0.06794 -0.39300
O 	O 	0.44289 0.75099 0.96939 -0.36400
O 	O 	0.22097 0.56832 0.05733 -0.37700
O 	O 	0.23321 0.52215 0.00559 -0.37200
O 	O 	0.41804 0.86140 0.99125 -0.38700
O 	O 	0.47068 0.73876 0.07936 -0.36000
O 	O 	0.44877 0.85924 0.06345 -0.37000
O 	O 	0.26552 0.68197 0.96734 -0.39700
O 	O 	0.35945 0.70013 0.03063 -0.70800
H 	H 	0.42102 0.72686 0.02740 0.14500
C 	C 	0.84292 0.91617 0.24790 0.27700
C 	C 	0.09838 0.26104 0.19189 0.29700
C 	C 	0.92127 0.00123 0.16266 0.32600
C 	C 	0.00879 0.19296 0.28581 0.25000
C 	C 	0.18461 0.08523 0.19305 0.29700
C 	C 	0.11904 0.00893 0.27929 0.30700
Ni	Ni	0.94101 0.11167 0.22053 1.12200
Ni	Ni	0.13454 0.16904 0.24553 1.12200
Ni	Ni	0.01268 0.97078 0.21761 1.10300
O 	O 	0.83991 0.97918 0.22915 -0.36800
O 	O 	0.91002 0.90287 0.24737 -0.36400
O 	O 	0.20663 0.12754 0.22113 -0.37900
O 	O 	0.02694 0.24336 0.20673 -0.38500
O 	O 	0.15867 0.25718 0.20832 -0.37700
O 	O 	0.09547 0.96618 0.25076 -0.40200
O 	O 	0.95282 0.08379 0.17261 -0.37400
O 	O 	0.92480 0.94054 0.18155 -0.37100
O 	O 	0.13001 0.09131 0.28317 -0.39600
O 	O 	0.93962 0.15712 0.26747 -0.34100
O 	O 	0.08602 0.23417 0.27237 -0.36700
O 	O 	0.10431 0.04025 0.18464 -0.39400
O 	O 	0.02098 0.07863 0.23446 -0.74500
H 	H 	0.99893 0.05694 0.25661 0.18300
C 	C 	0.13482 0.41312 0.04535 -0.08300
C 	C 	0.05519 0.39709 0.05721 0.02500
C 	C 	0.02405 0.35233 0.08718 -0.10900
C 	C 	0.07125 0.32084 0.10462 0.03000
C 	C 	0.14161 0.32079 0.08919 0.00600
C 	C 	0.16836 0.36069 0.05813 -0.01900
C 	C 	0.19056 0.29184 0.10654 -0.05500
C 	C 	0.17536 0.27158 0.13975 0.00600
C 	C 	0.10910 0.27710 0.15602 -0.06900
C 	C 	0.05451 0.29787 0.13801 -0.02800
H 	H 	0.02441 0.43113 0.04599 0.01800
H 	H 	0.96720 0.34846 0.09783 0.08200
H 	H 	0.22470 0.36460 0.04693 0.04300
H 	H 	0.24355 0.28978 0.09477 0.04500
H 	H 	0.21673 0.25384 0.15308 0.04100
H 	H 	0.00196 0.30011 0.15010 0.03600
C 	C 	0.86325 0.97230 0.13466 -0.09500
C 	C 	0.84208 0.89143 0.11861 0.02700
C 	C 	0.77502 0.85559 0.09642 -0.06800
C 	C 	0.72672 0.89871 0.09107 0.03700
C 	C 	0.75184 0.98340 0.10534 -0.01800
C 	C 	0.82215 0.02142 0.12606 0.01400
C 	C 	0.70081 0.02403 0.10151 -0.02100
C 	C 	0.62027 0.97566 0.08749 -0.02700
C 	C 	0.59191 0.88787 0.07612 -0.05000
C 	C 	0.64884 0.85388 0.07486 -0.03500
H 	H 	0.87575 0.85497 0.12405 0.04000
H 	H 	0.75749 0.79166 0.08490 0.05400
H 	H 	0.84047 0.08568 0.13751 0.03500
H 	H 	0.72093 0.09042 0.11139 0.03800
H 	H 	0.57832 0.00434 0.08721 0.05400
H 	H 	0.62887 0.78840 0.06410 0.05200
C 	C 	0.28312 0.82509 0.12145 -0.09300
C 	C 	0.27194 0.80231 0.15472 0.02000
C 	C 	0.26841 0.86128 0.17738 -0.07000
C 	C 	0.27433 0.94273 0.16686 0.02800
C 	C 	0.29039 0.96811 0.13361 -0.01000
C 	C 	0.29603 0.90967 0.11115 -0.00100
C 	C 	0.29321 0.04798 0.12295 -0.03600
C 	C 	0.26910 0.09552 0.14414 -0.00200
C 	C 	0.24438 0.06482 0.17625 -0.05800
C 	C 	0.25546 0.99419 0.18833 -0.04100
H 	H 	0.26425 0.73808 0.16294 0.03300
H 	H 	0.25756 0.84193 0.20292 0.04500
H 	H 	0.30817 0.92881 0.08559 0.02400
H 	H 	0.30836 0.06980 0.09775 0.04200
H 	H 	0.26334 0.15193 0.13489 0.03300
H 	H 	0.23870 0.97233 0.21348 0.04500
C 	C 	0.48268 0.69001 0.32657 -0.07000
C 	C 	0.47486 0.74789 0.30401 0.00600
C 	C 	0.54156 0.79953 0.28209 -0.05700
C 	C 	0.61647 0.79325 0.28245 0.01700
C 	C 	0.62071 0.72842 0.30280 0.01400
C 	C 	0.55240 0.67488 0.32391 -0.01700
C 	C 	0.69542 0.72229 0.30353 -0.05200
C 	C 	0.76705 0.78287 0.28549 0.00200
C 	C 	0.76483 0.84987 0.26592 -0.05900
C 	C 	0.68849 0.85361 0.26391 -0.02300
H 	H 	0.41990 0.75767 0.30495 0.03700
H 	H 	0.53637 0.84709 0.26591 0.04400
H 	H 	0.55713 0.62766 0.34047 0.04300
H 	H 	0.69896 0.67212 0.31882 0.04700
H 	H 	0.82478 0.77834 0.28712 0.04800
H 	H 	0.68557 0.90412 0.24860 0.04700
C 	C 	0.00046 0.20039 0.32106 -0.09100
C 	C 	0.95835 0.24503 0.33315 0.03300
C 	C 	0.97395 0.27866 0.36489 -0.01800
C 	C 	0.03431 0.27077 0.38409 -0.02500
C 	C 	0.06808 0.21576 0.37339 0.02800
C 	C 	0.04778 0.17763 0.34231 -0.02900
C 	C 	0.13281 0.21306 0.39144 -0.06300
C 	C 	0.17518 0.27763 0.41546 0.01100
C 	C 	0.15123 0.34296 0.42183 -0.07500
C 	C 	0.07269 0.32925 0.41028 -0.00800
H 	H 	0.91856 0.25938 0.31727 0.04000
H 	H 	0.94517 0.31781 0.37338 0.04700
H 	H 	0.07600 0.13831 0.33351 0.04600
H 	H 	0.15622 0.16768 0.38457 0.04900
H 	H 	0.23273 0.28380 0.42606 0.03400
H 	H 	0.05027 0.37533 0.41747 0.03600
C 	C 	0.15508 0.97474 0.30407 -0.08700
C 	C 	0.12024 0.95473 0.33566 0.00700
C 	C 	0.15702 0.92679 0.35981 -0.06200
C 	C 	0.22961 0.91932 0.35265 0.01500
C 	C 	0.26679 0.94256 0.32121 0.00900
C 	C 	0.22911 0.96990 0.29699 -0.01300
C 	C 	0.34016 0.93641 0.31426 -0.05600
C 	C 	0.37262 0.90116 0.33757 0.00400
C 	C 	0.33162 0.87092 0.36794 -0.07200
C 	C 	0.26333 0.88532 0.37609 -0.02000
H 	H 	0.06454 0.96072 0.34150 0.02000
H 	H 	0.12865 0.91031 0.38398 0.03900
H 	H 	0.25772 0.98835 0.27288 0.03900
H 	H 	0.37056 0.95627 0.29048 0.04200
H 	H 	0.42687 0.89297 0.33136 0.03700
H 	H 	0.23333 0.86488 0.39995 0.04200
C 	C 	0.41175 0.02902 0.51944 -0.04600
C 	C 	0.43481 0.97928 0.54028 -0.06100
C 	C 	0.42055 0.89378 0.53124 0.05300
C 	C 	0.38333 0.85823 0.50091 -0.08600
C 	C 	0.34478 0.89982 0.48359 -0.00900
C 	C 	0.35981 0.98575 0.49249 0.01000
S 	S 	0.45242 0.83387 0.55744 -0.03200
S 	S 	0.31741 0.04043 0.46875 -0.01900
H 	H 	0.23886 0.01988 0.48084 0.03300
H 	H 	0.38660 0.78105 0.57824 0.03400
H 	H 	0.47136 0.01064 0.56173 0.05000
H 	H 	0.31048 0.86950 0.46136 0.04400
C 	C 	0.91213 0.44294 0.50373 -0.06400
C 	C 	0.98633 0.46179 0.52060 0.00800
C 	C 	0.06625 0.50806 0.50524 0.02700
C 	C 	0.07298 0.54134 0.47288 -0.13700
C 	C 	0.99891 0.52619 0.45665 0.07700
C 	C 	0.91881 0.47677 0.47166 0.01100
S 	S 	0.15533 0.51644 0.52594 -0.08900
S 	S 	0.82794 0.45916 0.45009 -0.02000
H 	H 	0.81436 0.53074 0.45477 0.04600
H 	H 	0.16073 0.43995 0.52070 0.03600
H 	H 	0.98149 0.43562 0.54514 0.04900
H 	H 	0.00344 0.55197 0.43206 -0.00300
C 	C 	0.54669 0.57989 0.45799 -0.06900
C 	C 	0.61736 0.60836 0.47839 -0.02100
C 	C 	0.64673 0.54841 0.48692 0.03500
C 	C 	0.60427 0.45910 0.47527 -0.07400
C 	C 	0.54419 0.43678 0.45045 -0.01700
C 	C 	0.51574 0.49707 0.44156 0.03400
S 	S 	0.73469 0.58512 0.51282 -0.03500
S 	S 	0.43782 0.46604 0.41121 -0.04200
H 	H 	0.47673 0.49597 0.38144 0.04100
H 	H 	0.71038 0.59688 0.54324 0.04600
H 	H 	0.64494 0.67413 0.48971 0.05000
H 	H 	0.51476 0.36995 0.43989 0.04800
C 	C 	0.68708 0.04375 0.56346 -0.07500
C 	C 	0.63031 0.01236 0.59014 0.02100
C 	C 	0.64828 0.97605 0.61766 -0.06800
C 	C 	0.72387 0.97181 0.61898 0.02400
C 	C 	0.77492 0.99126 0.59062 0.00200
C 	C 	0.75387 0.02348 0.56241 -0.00000
C 	C 	0.85097 0.98765 0.59193 -0.04800
C 	C 	0.88049 0.97428 0.62181 0.00200
C 	C 	0.83427 0.96432 0.65075 -0.06300
C 	C 	0.75331 0.95737 0.64891 -0.02400
H 	H 	0.57875 0.02720 0.59146 0.03100
H 	H 	0.60688 0.95823 0.63888 0.04700
H 	H 	0.79615 0.04431 0.54136 0.04600
H 	H 	0.88930 0.99941 0.57012 0.04700
H 	H 	0.94093 0.97509 0.62260 0.04800
H 	H 	0.71579 0.94651 0.67092 0.04800
C 	C 	0.49824 0.12316 0.63681 -0.06500
C 	C 	0.50693 0.13156 0.67080 0.00500
C 	C 	0.43435 0.09756 0.69093 -0.05400
C 	C 	0.35271 0.05450 0.67710 0.01200
C 	C 	0.34407 0.03593 0.64341 0.03100
C 	C 	0.41709 0.06795 0.62367 -0.03200
C 	C 	0.26276 0.99409 0.62933 -0.07000
C 	C 	0.19141 0.97789 0.64797 -0.01100
C 	C 	0.20049 0.00211 0.68088 -0.05000
C 	C 	0.28045 0.03667 0.69582 -0.02400
H 	H 	0.56938 0.17197 0.68136 0.03800
H 	H 	0.44181 0.10965 0.71693 0.04400
H 	H 	0.40999 0.06141 0.59754 0.04700
H 	H 	0.25530 0.97773 0.60363 0.04300
H 	H 	0.12950 0.94918 0.63655 0.02500
H 	H 	0.28683 0.05291 0.72155 0.04300
C 	C 	0.86575 0.68105 0.71575 -0.07200
C 	C 	0.78941 0.60331 0.72430 0.00700
C 	C 	0.73402 0.54935 0.69998 -0.05400
C 	C 	0.75706 0.57051 0.66707 0.01500
C 	C 	0.83960 0.64012 0.65876 0.02000
C 	C 	0.89535 0.69205 0.68345 -0.01400
C 	C 	0.86404 0.65836 0.62586 -0.05400
C 	C 	0.80949 0.60256 0.60164 0.00800
C 	C 	0.72984 0.52907 0.61016 -0.07700
C 	C 	0.70026 0.52072 0.64238 -0.01200
H 	H 	0.76816 0.59133 0.74950 0.03400
H 	H 	0.67235 0.49316 0.70672 0.04500
H 	H 	0.95701 0.74906 0.67709 0.05600
H 	H 	0.92659 0.71297 0.61911 0.05200
H 	H 	0.83290 0.61041 0.57681 0.03600
H 	H 	0.63719 0.46620 0.64876 0.04400
C 	C 	0.96204 0.54172 0.94546 -0.04100
C 	C 	0.02767 0.60525 0.92536 -0.07100
C 	C 	0.10751 0.66480 0.93833 0.04400
C 	C 	0.12408 0.65812 0.97149 -0.07200
C 	C 	0.05830 0.59719 0.99187 -0.07100
C 	C 	0.97755 0.53915 0.97934 0.07500
S 	S 	0.18519 0.74986 0.91312 -0.05200
S 	S 	0.89670 0.46658 0.00673 -0.06000
H 	H 	0.89373 0.38457 0.00775 0.04600
H 	H 	0.23412 0.71844 0.89866 0.04100
H 	H 	0.01592 0.60997 0.89972 0.04400
H 	H 	0.07082 0.59261 0.01745 0.05600
C 	C 	0.55128 0.91037 0.96464 -0.06100
C 	C 	0.60772 0.97404 0.98693 -0.04400
C 	C 	0.64758 0.06694 0.97960 0.05100
C 	C 	0.63343 0.09557 0.94892 -0.07200
C 	C 	0.59715 0.03048 0.92415 -0.01100
C 	C 	0.55507 0.93802 0.93201 0.02700
S 	S 	0.72207 0.14402 0.00717 -0.03000
S 	S 	0.50081 0.85836 0.90142 -0.04100
H 	H 	0.41852 0.84209 0.89983 0.04000
H 	H 	0.80124 0.15559 0.00017 0.04400
H 	H 	0.61346 0.95212 0.01113 0.04700
H 	H 	0.59555 0.05156 0.89930 0.04800
C 	C 	0.46710 0.33698 0.99693 -0.08100
C 	C 	0.40853 0.34677 0.97737 -0.01900
C 	C 	0.37621 0.40273 0.98743 0.03900
C 	C 	0.40339 0.44939 0.01716 -0.07700
C 	C 	0.44807 0.42519 0.03920 -0.02300
C 	C 	0.47761 0.36665 0.02949 0.04600
S 	S 	0.29855 0.40968 0.96372 -0.06700
S 	S 	0.52801 0.33136 0.05803 -0.03900
H 	H 	0.61334 0.39271 0.05873 0.04600
H 	H 	0.21915 0.34635 0.97451 0.04100
H 	H 	0.39254 0.31590 0.95354 0.04700
H 	H 	0.46285 0.45461 0.06330 0.04800
C 	C 	0.84693 0.14881 0.77080 -0.06400
C 	C 	0.89092 0.24246 0.76532 0.00800
C 	C 	0.85594 0.29532 0.77579 -0.05400
C 	C 	0.77752 0.25527 0.79251 0.01700
C 	C 	0.73175 0.16074 0.79711 0.01500
C 	C 	0.76591 0.10784 0.78568 -0.01700
C 	C 	0.65468 0.12100 0.81471 -0.05500
C 	C 	0.62716 0.17527 0.83007 0.00400
C 	C 	0.67572 0.26967 0.82747 -0.06900
C 	C 	0.74729 0.30890 0.80665 -0.01900
H 	H 	0.95293 0.27454 0.75351 0.04500
H 	H 	0.89115 0.36775 0.77187 0.05000
H 	H 	0.73042 0.03514 0.78898 0.04500
H 	H 	0.61823 0.04834 0.81785 0.04400
H 	H 	0.57074 0.14410 0.84545 0.03600
H 	H 	0.78261 0.38160 0.80331 0.05000
C 	C 	0.23518 0.20233 0.78672 -0.07000
C 	C 	0.31271 0.22941 0.77045 0.00700
C 	C 	0.38903 0.29403 0.78415 -0.05700
C 	C 	0.38855 0.33094 0.81457 0.01300
C 	C 	0.31011 0.30748 0.83019 0.01300
C 	C 	0.23347 0.24410 0.81583 -0.02100
C 	C 	0.30997 0.34259 0.86104 -0.06000
C 	C 	0.38653 0.39235 0.87767 0.00700
C 	C 	0.46362 0.40803 0.86346 -0.08200
C 	C 	0.46508 0.38415 0.83090 -0.01500
H 	H 	0.31383 0.19938 0.74736 0.03700
H 	H 	0.44872 0.31276 0.77171 0.04500
H 	H 	0.17311 0.22426 0.82797 0.03500
H 	H 	0.25041 0.32738 0.87286 0.04200
H 	H 	0.38553 0.41410 0.90230 0.03600
H 	H 	0.52507 0.39895 0.81949 0.05100
C 	C 	0.80980 0.67450 0.95473 -0.06600
C 	C 	0.89720 0.70465 0.95109 -0.01400
C 	C 	0.94296 0.76413 0.92544 0.00600
C 	C 	0.90211 0.79769 0.90508 -0.00900
C 	C 	0.82103 0.78439 0.91424 0.02500
C 	C 	0.77855 0.72865 0.94124 -0.02800
C 	C 	0.77889 0.81595 0.89381 -0.06100
C 	C 	0.81233 0.85111 0.86289 0.00700
C 	C 	0.88915 0.85688 0.85234 -0.06700
C 	C 	0.93649 0.83505 0.87426 -0.00800
H 	H 	0.92701 0.67493 0.96561 0.06000
H 	H 	0.00768 0.77926 0.92024 0.00600
H 	H 	0.71421 0.71381 0.94722 0.05100
H 	H 	0.71783 0.80851 0.90105 0.05000
H 	H 	0.77712 0.87121 0.84675 0.03400
H 	H 	0.99684 0.84131 0.86659 0.05300
