data_crystal

_cell_length_a 18.29644
_cell_length_b 18.80776
_cell_length_c 21.96585
_cell_angle_alpha 95.46981
_cell_angle_beta  95.47714
_cell_angle_gamma 126.33397

_symmetry_space_group_name_	'P 1'
_symmetry_space_group_name_H-M	'P 1'

loop_
_symmetry_equiv_pos_as_xyz
  x,y,z

loop_
_atom_site_label
_atom_site_type_symbol
_atom_site_fract_x
_atom_site_fract_y
_atom_site_fract_z
_atom_site_charge
C 	C 	0.04365 0.02703 0.99400 0.05800
C 	C 	0.01880 0.08425 0.00489 -0.05600
H 	H 	0.07009 0.15625 0.00922 0.07600
C 	C 	0.02666 0.04274 0.43524 -0.07300
H 	H 	0.05938 0.11326 0.43522 0.07400
Cu	Cu	0.60698 0.22967 0.02187 0.93100
Cu	Cu	0.72167 0.26649 0.90793 0.87300
Cu	Cu	0.63212 0.35079 0.92885 0.89800
Cu	Cu	0.55924 0.36530 0.04178 0.90600
C 	C 	0.59626 0.29125 0.14376 0.32500
O 	O 	0.46611 0.15019 0.00715 -0.33300
C 	C 	0.66090 0.31302 0.80443 0.31700
O 	O 	0.65421 0.36220 0.01841 -0.63600
O 	O 	0.60625 0.23206 0.93143 -0.63500
O 	O 	0.68683 0.19043 0.03550 -0.34300
O 	O 	0.54102 0.30607 0.11522 -0.37100
O 	O 	0.66738 0.47077 0.93037 -0.37200
C 	C 	0.66081 0.51656 0.97604 0.31000
C 	C 	0.41900 0.17438 0.97942 0.29700
O 	O 	0.46357 0.25499 0.96610 -0.39000
O 	O 	0.59685 0.47542 0.01020 -0.36600
O 	O 	0.62550 0.25232 0.11184 -0.34200
C 	C 	0.76874 0.23596 0.02013 0.31400
O 	O 	0.62045 0.33798 0.83767 -0.36900
O 	O 	0.67882 0.25926 0.82300 -0.40900
H 	H 	0.71777 0.41281 0.03999 0.18300
H 	H 	0.54947 0.18111 0.90245 0.18600
Cu	Cu	0.77586 0.32690 0.42830 0.92900
Cu	Cu	0.77569 0.24746 0.55489 0.87800
Cu	Cu	0.65482 0.29726 0.52627 0.90100
Cu	Cu	0.62269 0.35570 0.41025 0.90100
C 	C 	0.68961 0.31107 0.30586 0.32100
C 	C 	0.73662 0.31656 0.65670 0.32100
O 	O 	0.63871 0.27245 0.43674 -0.63300
O 	O 	0.78376 0.34191 0.52028 -0.63500
O 	O 	0.72315 0.16171 0.48061 -0.43200
O 	O 	0.67227 0.36465 0.33200 -0.38100
O 	O 	0.52621 0.24615 0.52495 -0.35500
C 	C 	0.47702 0.25494 0.48267 0.30700
C 	C 	0.81978 0.50614 0.46158 0.30100
O 	O 	0.74031 0.45990 0.47968 -0.37600
O 	O 	0.51713 0.32099 0.45135 -0.37800
O 	O 	0.74226 0.29603 0.33851 -0.34300
C 	C 	0.77622 0.17433 0.44038 0.30600
O 	O 	0.66833 0.30523 0.61835 -0.36400
O 	O 	0.79814 0.31091 0.63534 -0.41300
H 	H 	0.58937 0.20887 0.41695 0.17300
C 	C 	0.67425 0.33394 0.74775 -0.11000
C 	C 	0.74308 0.33188 0.71857 -0.11100
H 	H 	0.64505 0.36447 0.72740 0.10500
H 	H 	0.79934 0.34002 0.74868 0.07700
C 	C 	0.60784 0.30103 0.20600 -0.10100
C 	C 	0.66703 0.28467 0.24356 -0.11000
H 	H 	0.57412 0.32408 0.23008 0.08700
H 	H 	0.68946 0.24856 0.22090 0.11700
O 	O 	0.81077 0.64276 0.60083 -0.08600
H 	H 	0.78973 0.08719 0.52629 0.03600
O 	O 	0.73958 0.10825 0.29987 -0.07800
C 	C 	0.23404 0.11434 0.51550 -0.07200
C 	C 	0.18212 0.07848 0.45473 0.00100
C 	C 	0.22705 0.10217 0.40353 0.06000
C 	C 	0.32345 0.16075 0.41347 -0.00700
C 	C 	0.37577 0.19563 0.47414 -0.09300
C 	C 	0.33067 0.17362 0.52557 0.12200
N 	N 	0.38248 0.21361 0.58790 -0.02200
H 	H 	0.19926 0.09682 0.55495 0.08100
H 	H 	0.35787 0.17785 0.37384 0.05200
N 	N 	0.17483 0.06639 0.34127 -0.02200
O 	O 	0.43315 0.30027 0.60637 -0.08200
O 	O 	0.37321 0.16287 0.62753 -0.09000
O 	O 	0.18256 0.12038 0.30499 -0.09500
C 	C 	0.71326 0.61414 0.98110 -0.08800
H 	H 	0.67695 0.60570 0.88277 0.07200
C 	C 	0.26329 0.12287 0.93026 -0.01100
C 	C 	0.31884 0.12258 0.97889 -0.08900
C 	C 	0.28215 0.08842 0.03193 0.11500
C 	C 	0.19348 0.06051 0.03716 -0.07100
C 	C 	0.13955 0.06387 0.98952 0.00100
C 	C 	0.17402 0.09372 0.93528 0.06400
N 	N 	0.11885 0.09521 0.88538 -0.01800
H 	H 	0.29040 0.14803 0.88912 0.06700
H 	H 	0.16605 0.03515 0.07818 0.07700
N 	N 	0.33495 0.08289 0.08092 -0.02200
O 	O 	0.14845 0.17048 0.86744 -0.08100
O 	O 	0.36325 0.13376 0.13539 -0.09300
O 	O 	0.34215 0.01794 0.07399 -0.08200
O 	O 	0.74152 0.10245 0.15200 -0.07700
O 	O 	0.04205 0.02055 0.85521 -0.07200
C 	C 	0.71539 0.65003 0.92759 -0.00500
O 	O 	0.69580 0.76451 0.84783 -0.08200
O 	O 	0.79184 0.29926 0.98811 -0.42800
O 	O 	0.81875 0.24979 0.41866 -0.34200
C 	C 	0.80676 0.11666 0.43358 -0.09900
O 	O 	0.73195 0.65345 0.14169 -0.08900
H 	H 	0.81402 0.84270 0.42441 0.07800
H 	H 	0.83222 0.40328 0.54444 0.19200
C 	C 	0.81046 0.07689 0.48374 -0.00700
N 	N 	0.79863 0.17252 0.12862 -0.02300
C 	C 	0.76124 0.67201 0.03955 0.11400
C 	C 	0.76790 0.74314 0.93160 0.06400
N 	N 	0.77019 0.77891 0.87659 -0.01800
N 	N 	0.76097 0.63679 0.09457 -0.02500
N 	N 	0.82095 0.13330 0.32418 -0.02200
C 	C 	0.82090 0.19884 0.02163 -0.10600
H 	H 	0.08220 0.90129 0.45320 0.07400
C 	C 	0.08109 0.01380 0.44497 0.05700
O 	O 	0.79760 0.59532 0.09974 -0.11500
O 	O 	0.84656 0.46286 0.43250 -0.34400
C 	C 	0.83236 0.10111 0.37807 0.12000
C 	C 	0.82859 0.16216 0.07279 0.12700
C 	C 	0.81268 0.76495 0.04352 -0.06700
O 	O 	0.83300 0.25242 0.15823 -0.08100
C 	C 	0.81844 0.80092 0.98966 -0.00000
C 	C 	0.84451 0.02701 0.48055 0.05300
C 	C 	0.03959 0.92332 0.44581 -0.05700
N 	N 	0.86358 0.63621 0.56896 -0.02300
H 	H 	0.85202 0.22216 0.92982 0.02600
C 	C 	0.86352 0.60109 0.45772 -0.08800
O 	O 	0.77642 0.92765 0.55094 -0.09000
H 	H 	0.79009 0.92646 0.00659 0.07300
C 	C 	0.85706 0.19363 0.96917 -0.00300
O 	O 	0.85847 0.75509 0.30398 -0.08500
O 	O 	0.84454 0.81997 0.85268 -0.07600
H 	H 	0.85163 0.80946 0.08823 0.08000
H 	H 	0.86902 0.58250 0.36019 0.07100
C 	C 	0.86737 0.05164 0.37517 -0.06900
C 	C 	0.87188 0.65926 0.50835 0.11500
C 	C 	0.86682 0.11590 0.06922 -0.07600
H 	H 	0.87118 0.08636 0.10812 0.07900
C 	C 	0.86102 0.95478 0.00357 -0.05900
H 	H 	0.99662 0.89006 0.98039 0.07300
C 	C 	0.92699 0.04796 0.00908 0.04800
C 	C 	0.87709 0.62747 0.39962 -0.01200
O 	O 	0.91242 0.61310 0.59359 -0.10100
C 	C 	0.87525 0.01589 0.42662 -0.00500
H 	H 	0.88989 0.04235 0.33326 0.07900
O 	O 	0.89033 0.18172 0.29654 -0.08000
C 	C 	0.89823 0.10659 0.01531 0.00700
C 	C 	0.89451 0.14691 0.96545 0.05500
N 	N 	0.92556 0.13766 0.90993 -0.01900
O 	O 	0.88262 0.05889 0.87490 -0.08100
O 	O 	0.99222 0.20877 0.89196 -0.09100
C 	C 	0.88912 0.74055 0.49958 -0.06900
C 	C 	0.89544 0.70935 0.39109 0.06200
O 	O 	0.96610 0.73241 0.30263 -0.08300
O 	O 	0.93157 0.02514 0.56642 -0.10200
C 	C 	0.90191 0.76656 0.44144 0.00200
N 	N 	0.90822 0.73458 0.33126 -0.01700
H 	H 	0.89709 0.78561 0.53890 0.08500
C 	C 	0.94351 0.86116 0.43765 0.06000
C 	C 	0.88836 0.89020 0.42906 -0.06500
C 	C 	0.88632 0.89813 0.99328 0.06000
C 	C 	0.97735 0.93424 0.98845 -0.06300
O 	O 	0.12512 0.98058 0.31937 -0.07800
N 	N 	0.85110 0.99059 0.53326 -0.01300
C 	C 	0.93031 0.98160 0.42800 0.07200
