data_crystal

_cell_length_a 47.97920
_cell_length_b 45.07160
_cell_length_c 34.63328
_cell_angle_alpha 89.95839
_cell_angle_beta  89.95322
_cell_angle_gamma 90.48289

_symmetry_space_group_name_	'P 1'
_symmetry_space_group_name_H-M	'P 1'

loop_
_symmetry_equiv_pos_as_xyz
  x,y,z

loop_
_atom_site_label
_atom_site_type_symbol
_atom_site_fract_x
_atom_site_fract_y
_atom_site_fract_z
_atom_site_charge
Zn	Zn	0.49098 0.50296 0.99665 1.22300
C 	C 	0.52120 0.55854 0.99317 0.32000
O 	O 	0.50979 0.48220 0.03881 -0.47600
O 	O 	0.50324 0.56756 0.01927 -0.45400
O 	O 	0.52908 0.52191 0.06875 -0.49500
C 	C 	0.44413 0.53660 0.01991 0.32500
O 	O 	0.46003 0.52994 0.99038 -0.45200
O 	O 	0.45398 0.53453 0.05521 -0.50700
C 	C 	0.53109 0.49458 0.05628 0.31900
O 	O 	0.45761 0.46450 0.99398 -0.32800
Zn	Zn	0.49332 0.54201 0.06678 1.16900
O 	O 	0.52110 0.53065 0.98184 -0.43600
C 	C 	0.47080 0.45576 0.96338 0.27800
O 	O 	0.49195 0.47215 0.95342 -0.38400
Zn	Zn	0.35862 0.15942 0.02801 1.22100
C 	C 	0.37512 0.15036 0.10745 0.31600
O 	O 	0.31766 0.16115 0.02706 -0.46500
O 	O 	0.37380 0.17920 0.11258 -0.44800
O 	O 	0.31369 0.17270 0.09074 -0.49600
C 	C 	0.38570 0.21566 0.03381 0.34600
O 	O 	0.38996 0.18701 0.03220 -0.45800
O 	O 	0.36297 0.22593 0.04979 -0.51300
C 	C 	0.30293 0.16149 0.05906 0.31400
O 	O 	0.36033 0.16841 0.96061 -0.32300
Zn	Zn	0.34207 0.20362 0.08836 1.17000
O 	O 	0.36359 0.13807 0.07694 -0.43900
C 	C 	0.36687 0.14057 0.95802 0.27500
O 	O 	0.36806 0.12643 0.99048 -0.38300
C 	C 	0.52612 0.97678 0.38692 0.13800
C 	C 	0.51111 0.99809 0.36624 -0.10100
H 	H 	0.49954 0.01490 0.38167 0.06800
C 	C 	0.51083 0.99747 0.32575 0.04600
C 	C 	0.52564 0.97546 0.30603 -0.08300
C 	C 	0.54026 0.95377 0.32664 0.04600
C 	C 	0.54063 0.95460 0.36712 -0.10200
H 	H 	0.55191 0.93793 0.38322 0.06900
N 	N 	0.52632 0.97744 0.42840 -0.17900
C 	C 	0.50812 0.95960 0.44858 0.19000
C 	C 	0.50783 0.96014 0.48921 -0.06100
C 	C 	0.52623 0.97928 0.50884 0.03100
C 	C 	0.54475 0.99741 0.48779 -0.06000
C 	C 	0.54458 0.99606 0.44718 0.19000
C 	C 	0.48941 0.94191 0.51045 -0.01300
C 	C 	0.48935 0.94285 0.55081 -0.01300
C 	C 	0.50767 0.96207 0.57061 -0.06000
C 	C 	0.52609 0.98032 0.54956 0.03000
C 	C 	0.54434 0.99961 0.56918 -0.05900
C 	C 	0.56308 0.01663 0.50760 -0.01300
C 	C 	0.56285 0.01774 0.54795 -0.01400
C 	C 	0.50787 0.96338 0.61121 0.19000
N 	N 	0.52569 0.98248 0.62998 -0.17800
C 	C 	0.54376 0.00048 0.60981 0.18900
C 	C 	0.52543 0.98364 0.67145 0.13800
C 	C 	0.50527 0.00047 0.69067 -0.10300
C 	C 	0.50448 0.00092 0.73111 0.04500
C 	C 	0.52411 0.98484 0.75233 -0.08200
C 	C 	0.54423 0.96785 0.73321 0.04600
C 	C 	0.54489 0.96734 0.69272 -0.10200
O 	O 	0.56205 0.01273 0.42709 -0.20300
O 	O 	0.49074 0.94199 0.42980 -0.20200
O 	O 	0.49091 0.94614 0.63132 -0.20200
O 	O 	0.56057 0.01872 0.62857 -0.20300
H 	H 	0.56022 0.95406 0.67778 0.06900
H 	H 	0.49008 0.01282 0.67417 0.07000
H 	H 	0.57749 0.03077 0.49185 0.04900
H 	H 	0.57711 0.03272 0.56259 0.04900
H 	H 	0.47512 0.92699 0.49581 0.04900
H 	H 	0.47501 0.92863 0.56656 0.04900
H 	H 	0.52352 0.98526 0.78363 0.05400
H 	H 	0.52565 0.97509 0.27471 0.05400
Zn	Zn	0.70350 0.82168 0.03746 1.22100
C 	C 	0.69125 0.81403 0.11852 0.31800
O 	O 	0.74242 0.83543 0.03283 -0.46500
O 	O 	0.70292 0.78776 0.11784 -0.44600
O 	O 	0.75516 0.81812 0.09189 -0.49600
C 	C 	0.69446 0.75892 0.03341 0.34700
O 	O 	0.68231 0.78463 0.03777 -0.46100
O 	O 	0.72051 0.75549 0.04372 -0.51200
C 	C 	0.75884 0.83673 0.06314 0.31600
O 	O 	0.69878 0.82146 0.96931 -0.32300
Zn	Zn	0.73755 0.77964 0.08410 1.17000
O 	O 	0.69642 0.83339 0.09103 -0.43900
C 	C 	0.68359 0.84482 0.97458 0.27700
O 	O 	0.68099 0.85320 0.01010 -0.38600
Zn	Zn	0.15865 0.67933 0.96267 1.22100
C 	C 	0.15322 0.67328 0.04549 0.31700
O 	O 	0.15260 0.72138 0.94997 -0.46500
O 	O 	0.17921 0.68217 0.04936 -0.44900
O 	O 	0.16166 0.73817 0.01057 -0.49700
C 	C 	0.21524 0.66318 0.97705 0.34600
O 	O 	0.18960 0.65303 0.97477 -0.45500
O 	O 	0.21998 0.69153 0.98252 -0.51400
C 	C 	0.14905 0.74124 0.97723 0.31600
O 	O 	0.16707 0.66892 0.89654 -0.32100
Zn	Zn	0.19563 0.71531 0.01476 1.17000
O 	O 	0.13980 0.67793 0.01303 -0.43900
C 	C 	0.14255 0.65656 0.89754 0.27500
O 	O 	0.12974 0.65770 0.93033 -0.38200
C 	C 	0.98758 0.49930 0.60444 0.13800
C 	C 	0.00753 0.51562 0.62524 -0.10200
H 	H 	0.02461 0.52639 0.61008 0.06900
C 	C 	0.00522 0.51828 0.66546 0.04600
C 	C 	0.98284 0.50459 0.68480 -0.08200
C 	C 	0.96281 0.48837 0.66404 0.04600
C 	C 	0.96529 0.48559 0.62387 -0.10200
H 	H 	0.94982 0.47311 0.60771 0.07000
N 	N 	0.98963 0.49724 0.56312 -0.17800
C 	C 	0.00586 0.47562 0.54693 0.19000
C 	C 	0.00879 0.47383 0.50653 -0.06100
C 	C 	0.99474 0.49426 0.48305 0.03100
C 	C 	0.97793 0.51604 0.50003 -0.06100
C 	C 	0.97561 0.51720 0.54052 0.19000
C 	C 	0.02562 0.45204 0.48936 -0.01300
C 	C 	0.02847 0.45079 0.44919 -0.01300
C 	C 	0.01451 0.47128 0.42553 -0.06100
C 	C 	0.99758 0.49296 0.44251 0.03100
C 	C 	0.98353 0.51339 0.41903 -0.06100
C 	C 	0.96382 0.53640 0.47636 -0.01300
C 	C 	0.96659 0.53508 0.43619 -0.01300
C 	C 	0.01727 0.47050 0.38505 0.19000
N 	N 	0.00352 0.49070 0.36250 -0.17900
C 	C 	0.98673 0.51185 0.37868 0.19000
C 	C 	0.00682 0.48979 0.32127 0.13700
C 	C 	0.02682 0.50796 0.30325 -0.10200
C 	C 	0.02895 0.50846 0.26287 0.04600
C 	C 	0.01158 0.49005 0.24064 -0.08300
C 	C 	0.99110 0.47236 0.25848 0.04600
C 	C 	0.98894 0.47204 0.29888 -0.10100
O 	O 	0.96005 0.53765 0.55683 -0.20200
O 	O 	0.01883 0.45650 0.56930 -0.20300
O 	O 	0.03320 0.45036 0.36874 -0.20300
O 	O 	0.97357 0.53082 0.35631 -0.20200
H 	H 	0.97294 0.45873 0.31285 0.06900
H 	H 	0.04004 0.52232 0.32058 0.06900
H 	H 	0.95072 0.55330 0.48894 0.04900
H 	H 	0.95557 0.55098 0.41854 0.04900
H 	H 	0.03657 0.43608 0.50701 0.04900
H 	H 	0.04156 0.43388 0.43660 0.04900
H 	H 	0.01332 0.49030 0.20941 0.05400
H 	H 	0.98102 0.50657 0.71591 0.05400
Zn	Zn	0.80670 0.34943 0.95836 1.22100
C 	C 	0.80352 0.35569 0.87575 0.31500
O 	O 	0.76945 0.35516 0.98069 -0.46700
O 	O 	0.79336 0.32861 0.87270 -0.44800
O 	O 	0.74613 0.34627 0.92477 -0.49300
C 	C 	0.82041 0.28947 0.93982 0.32600
O 	O 	0.82962 0.31698 0.93975 -0.45700
O 	O 	0.79349 0.28395 0.93925 -0.51000
C 	C 	0.74746 0.35882 0.95884 0.33500
O 	O 	0.82474 0.33944 0.02073 -0.32300
Zn	Zn	0.76726 0.31053 0.91407 1.17000
O 	O 	0.80184 0.36989 0.90879 -0.44100
C 	C 	0.83568 0.36580 0.01803 0.27300
O 	O 	0.83049 0.37997 0.98639 -0.38300
Zn	Zn	0.00819 0.03388 0.03241 1.22000
C 	C 	0.03671 0.97856 0.02027 0.33600
O 	O 	0.97727 0.02303 0.06723 -0.47000
O 	O 	0.05086 0.98527 0.05161 -0.45200
O 	O 	0.99713 0.98215 0.09335 -0.49800
C 	C 	0.05932 0.05317 0.06678 0.35000
O 	O 	0.04686 0.04711 0.03406 -0.45500
O 	O 	0.04959 0.04209 0.09912 -0.51200
C 	C 	0.97493 0.99632 0.08190 0.34100
O 	O 	0.99625 0.08420 0.03900 -0.32600
Zn	Zn	0.03239 0.00279 0.10021 1.17000
O 	O 	0.01522 0.99461 0.00967 -0.43400
C 	C 	0.98611 0.08170 0.00448 0.29300
O 	O 	0.98808 0.05568 0.98891 -0.37700
C 	C 	0.84030 0.26474 0.94113 -0.10200
C 	C 	0.83310 0.23816 0.95999 0.02100
C 	C 	0.85220 0.21497 0.96201 -0.07000
C 	C 	0.87864 0.21804 0.94501 0.03000
C 	C 	0.88567 0.24438 0.92555 -0.07000
C 	C 	0.86663 0.26766 0.92370 0.02300
C 	C 	0.89944 0.19432 0.94946 0.00000
C 	C 	0.92467 0.20018 0.96860 -0.03800
C 	C 	0.94328 0.17718 0.97596 -0.03300
C 	C 	0.93681 0.14816 0.96437 -0.00200
C 	C 	0.91207 0.14239 0.94413 -0.03400
C 	C 	0.89346 0.16541 0.93657 -0.03800
C 	C 	0.95420 0.12402 0.97659 0.04300
C 	C 	0.96878 0.10434 0.98839 -0.08900
H 	H 	0.81291 0.23566 0.97368 0.02900
H 	H 	0.84664 0.19481 0.97736 0.04700
H 	H 	0.90596 0.24690 0.91212 0.04800
H 	H 	0.87231 0.28790 0.90862 0.03500
H 	H 	0.92949 0.22239 0.97869 0.04100
H 	H 	0.96237 0.18180 0.99163 0.04300
H 	H 	0.90694 0.12000 0.93503 0.04200
H 	H 	0.87418 0.16070 0.92142 0.03900
C 	C 	0.91718 0.40095 0.72209 -0.05400
C 	C 	0.91783 0.43158 0.71532 0.03300
C 	C 	0.89744 0.44999 0.73224 -0.01200
C 	C 	0.87836 0.43763 0.75941 0.00900
C 	C 	0.89642 0.38832 0.74521 -0.02800
C 	C 	0.87609 0.40630 0.76290 -0.00600
C 	C 	0.93885 0.44413 0.69208 -0.06500
C 	C 	0.93905 0.47466 0.68445 0.00800
C 	C 	0.89621 0.48006 0.72092 -0.03000
C 	C 	0.86405 0.45575 0.78600 -0.04000
C 	C 	0.84166 0.41248 0.81444 0.00600
C 	C 	0.85541 0.39391 0.78774 0.01200
C 	C 	0.84770 0.36365 0.78587 -0.05700
C 	C 	0.83005 0.35137 0.81387 0.00900
C 	C 	0.81884 0.36928 0.84307 -0.08200
C 	C 	0.82379 0.40002 0.84232 -0.01200
C 	C 	0.91728 0.49237 0.69795 -0.04300
H 	H 	0.91670 0.51574 0.69065 0.04400
H 	H 	0.87858 0.49366 0.72858 0.03700
H 	H 	0.95526 0.43030 0.68049 0.05100
H 	H 	0.93293 0.38680 0.70952 0.04400
H 	H 	0.89744 0.36484 0.75139 0.03600
H 	H 	0.86815 0.47935 0.78740 0.03900
H 	H 	0.85451 0.34981 0.76224 0.04300
H 	H 	0.82536 0.32783 0.81305 0.03500
H 	H 	0.81402 0.41417 0.86364 0.04700
C 	C 	0.84616 0.44320 0.81337 -0.03900
H 	H 	0.83589 0.45749 0.83403 0.04000
C 	C 	0.92007 0.47202 0.15629 -0.05400
C 	C 	0.93645 0.45633 0.18259 0.03200
C 	C 	0.93519 0.42496 0.18361 -0.01100
C 	C 	0.91894 0.40957 0.15552 0.00800
C 	C 	0.90202 0.45705 0.13141 -0.02900
C 	C 	0.90015 0.42577 0.13205 -0.00400
C 	C 	0.95429 0.47172 0.20781 -0.06400
C 	C 	0.97048 0.45621 0.23462 0.00800
C 	C 	0.94945 0.40984 0.21333 -0.03000
C 	C 	0.92320 0.37918 0.14764 -0.03900
C 	C 	0.88674 0.37978 0.09908 0.01000
C 	C 	0.88200 0.41017 0.10660 0.00900
C 	C 	0.85889 0.42405 0.08925 -0.05200
C 	C 	0.84366 0.40936 0.06064 0.00400
C 	C 	0.85008 0.38011 0.05057 -0.06200
C 	C 	0.87092 0.36498 0.07075 -0.02000
C 	C 	0.96749 0.42536 0.23794 -0.04300
H 	H 	0.97912 0.41336 0.25965 0.04400
H 	H 	0.94584 0.38647 0.21852 0.03700
H 	H 	0.95578 0.49574 0.20638 0.04800
H 	H 	0.92140 0.49603 0.15492 0.04200
H 	H 	0.89093 0.46981 0.11000 0.03600
H 	H 	0.93997 0.36721 0.16126 0.03900
H 	H 	0.85202 0.44564 0.09873 0.04300
H 	H 	0.82659 0.42064 0.04656 0.04000
H 	H 	0.87525 0.34200 0.06380 0.04500
C 	C 	0.90739 0.36462 0.11953 -0.04100
H 	H 	0.91137 0.34145 0.11348 0.04000
C 	C 	0.13054 0.76667 0.97075 -0.09800
C 	C 	0.12847 0.77964 0.93396 0.01600
C 	C 	0.11252 0.80518 0.92865 -0.06800
C 	C 	0.09839 0.81782 0.96001 0.02500
C 	C 	0.09968 0.80424 0.99643 -0.06500
C 	C 	0.11565 0.77881 0.00177 0.01400
C 	C 	0.08424 0.84656 0.95571 0.00200
C 	C 	0.05585 0.84896 0.96493 -0.04100
C 	C 	0.04404 0.87691 0.97040 -0.03200
C 	C 	0.06051 0.90258 0.96652 -0.00900
C 	C 	0.08812 0.90026 0.95369 -0.03200
C 	C 	0.09997 0.87233 0.94830 -0.04100
C 	C 	0.05109 0.93007 0.98293 0.05100
C 	C 	0.04403 0.95257 0.99882 -0.11200
H 	H 	0.13977 0.77042 0.90974 0.03300
H 	H 	0.11158 0.81545 0.90040 0.04600
H 	H 	0.08888 0.81385 0.02083 0.04300
H 	H 	0.11668 0.76872 0.03014 0.03200
H 	H 	0.04337 0.82919 0.96999 0.04000
H 	H 	0.02257 0.87852 0.97986 0.04000
H 	H 	0.10091 0.92002 0.95020 0.04000
H 	H 	0.12181 0.87074 0.94069 0.03800
C 	C 	0.12356 0.57661 0.80489 -0.04000
C 	C 	0.11761 0.60485 0.81939 0.01000
C 	C 	0.09418 0.62046 0.80557 0.01000
C 	C 	0.07503 0.60587 0.78051 -0.00500
C 	C 	0.10650 0.56364 0.77687 -0.03900
C 	C 	0.08264 0.57852 0.76323 0.00900
C 	C 	0.13449 0.61748 0.84828 -0.01800
C 	C 	0.12858 0.64578 0.86261 -0.06200
C 	C 	0.09066 0.65031 0.81678 -0.05200
C 	C 	0.04748 0.61614 0.77608 -0.02900
C 	C 	0.03681 0.57564 0.73229 0.03200
C 	C 	0.06439 0.56509 0.73585 -0.01100
C 	C 	0.07323 0.54197 0.71132 -0.02900
C 	C 	0.05397 0.52699 0.68800 -0.04300
C 	C 	0.02600 0.53570 0.68740 0.00800
C 	C 	0.01766 0.56056 0.70861 -0.06500
C 	C 	0.10730 0.66251 0.84590 0.00500
H 	H 	0.10347 0.68494 0.85572 0.03600
H 	H 	0.07573 0.66435 0.80238 0.04300
H 	H 	0.15159 0.60495 0.86045 0.04200
H 	H 	0.14136 0.56447 0.81562 0.04100
H 	H 	0.11087 0.54117 0.76798 0.04000
H 	H 	0.03996 0.63466 0.79283 0.03700
H 	H 	0.09502 0.53627 0.70906 0.03700
H 	H 	0.06079 0.50855 0.67041 0.04500
H 	H 	0.99624 0.56799 0.70690 0.04900
C 	C 	0.02861 0.60096 0.75255 -0.05400
H 	H 	0.00741 0.60891 0.75024 0.04300
C 	C 	0.14358 0.59213 0.13956 -0.03900
C 	C 	0.13302 0.61777 0.12227 0.00400
C 	C 	0.10575 0.62730 0.13124 0.01200
C 	C 	0.08816 0.60884 0.15416 -0.00700
C 	C 	0.12739 0.57578 0.16560 -0.04100
C 	C 	0.09987 0.58450 0.17438 0.00900
C 	C 	0.14919 0.63374 0.09537 -0.01100
C 	C 	0.13856 0.65941 0.07813 -0.08400
C 	C 	0.09687 0.65515 0.11745 -0.05800
C 	C 	0.05891 0.61209 0.15361 -0.02900
C 	C 	0.05340 0.57102 0.19830 0.03200
C 	C 	0.08265 0.56741 0.19963 -0.01200
C 	C 	0.09396 0.54739 0.22677 -0.03000
C 	C 	0.07640 0.52848 0.24787 -0.04400
C 	C 	0.04742 0.53022 0.24360 0.00700
C 	C 	0.03597 0.55214 0.21986 -0.06500
C 	C 	0.11283 0.67056 0.09020 0.01200
H 	H 	0.10519 0.69124 0.07844 0.03300
H 	H 	0.07817 0.66533 0.12854 0.04300
H 	H 	0.16956 0.62569 0.08693 0.03900
H 	H 	0.16437 0.58460 0.13254 0.03700
H 	H 	0.13568 0.55523 0.17666 0.03900
H 	H 	0.04913 0.62784 0.13447 0.03600
H 	H 	0.11608 0.54717 0.23272 0.03600
H 	H 	0.08533 0.51243 0.26749 0.04300
H 	H 	0.01350 0.55421 0.21784 0.04800
C 	C 	0.04183 0.59322 0.17520 -0.05400
H 	H 	0.01941 0.59578 0.17373 0.04200
C 	C 	0.78098 0.85950 0.06543 -0.10100
C 	C 	0.79550 0.86833 0.03207 0.01800
C 	C 	0.81812 0.88800 0.03489 -0.06900
C 	C 	0.82628 0.89912 0.07105 0.02800
C 	C 	0.81109 0.89120 0.10415 -0.07000
C 	C 	0.78859 0.87146 0.10138 0.02000
C 	C 	0.85176 0.91746 0.07461 0.00200
C 	C 	0.85368 0.94505 0.05591 -0.04000
C 	C 	0.87809 0.96209 0.05879 -0.03000
C 	C 	0.90068 0.95167 0.08041 -0.01200
C 	C 	0.89868 0.92430 0.09944 -0.03100
C 	C 	0.87433 0.90722 0.09653 -0.04100
C 	C 	0.92646 0.96822 0.08137 0.05500
C 	C 	0.94840 0.98143 0.08189 -0.12200
H 	H 	0.78980 0.85932 0.00415 0.03200
H 	H 	0.82972 0.89402 0.00915 0.04700
H 	H 	0.81702 0.89997 0.13212 0.04600
H 	H 	0.77722 0.86525 0.12724 0.03300
H 	H 	0.83632 0.95320 0.03909 0.04100
H 	H 	0.87953 0.98321 0.04392 0.04100
H 	H 	0.91610 0.91607 0.11608 0.03600
H 	H 	0.87309 0.88592 0.11096 0.03700
C 	C 	0.66657 0.88655 0.84548 -0.04000
C 	C 	0.65614 0.87517 0.88036 0.00900
C 	C 	0.62717 0.87620 0.88809 0.00900
C 	C 	0.60887 0.88696 0.85921 -0.00500
C 	C 	0.64883 0.90056 0.81934 -0.03900
C 	C 	0.62005 0.90265 0.82723 0.00900
C 	C 	0.67443 0.86369 0.90823 -0.01800
C 	C 	0.66434 0.85532 0.94466 -0.06300
C 	C 	0.61748 0.86874 0.92537 -0.05200
C 	C 	0.58008 0.88045 0.86009 -0.02900
C 	C 	0.57263 0.91269 0.80500 0.03200
C 	C 	0.60169 0.91821 0.80231 -0.01100
C 	C 	0.61140 0.94084 0.77729 -0.02900
C 	C 	0.59270 0.95625 0.75388 -0.04300
C 	C 	0.56408 0.94994 0.75568 0.00800
C 	C 	0.55415 0.92787 0.78078 -0.06400
C 	C 	0.63592 0.85810 0.95315 0.00500
H 	H 	0.62812 0.85230 0.98157 0.04000
H 	H 	0.59607 0.87259 0.93362 0.04300
H 	H 	0.69654 0.86220 0.90204 0.04300
H 	H 	0.68860 0.88505 0.83887 0.04000
H 	H 	0.65733 0.90821 0.79213 0.04000
H 	H 	0.57161 0.86457 0.88049 0.03600
H 	H 	0.63301 0.94781 0.77751 0.03700
H 	H 	0.60039 0.97381 0.73523 0.04500
H 	H 	0.53195 0.92322 0.78235 0.04800
C 	C 	0.56225 0.89296 0.83291 -0.05400
H 	H 	0.54017 0.88778 0.83414 0.04200
C 	C 	0.60199 0.85245 0.16462 -0.03800
C 	C 	0.62961 0.84445 0.17196 0.00400
C 	C 	0.64170 0.85056 0.20834 0.01300
C 	C 	0.62702 0.86848 0.23517 -0.00700
C 	C 	0.58631 0.86674 0.19283 -0.04100
C 	C 	0.59830 0.87422 0.22882 0.01000
C 	C 	0.64555 0.83098 0.14298 -0.00800
C 	C 	0.67295 0.82227 0.15059 -0.08400
C 	C 	0.66800 0.83839 0.21706 -0.05900
C 	C 	0.64113 0.88382 0.26500 -0.02800
C 	C 	0.59799 0.90692 0.28516 0.03300
C 	C 	0.58323 0.89077 0.25666 -0.01200
C 	C 	0.55383 0.89129 0.25696 -0.03000
C 	C 	0.53980 0.91118 0.28082 -0.04300
C 	C 	0.55477 0.92995 0.30568 0.00800
C 	C 	0.58375 0.92700 0.30894 -0.06500
C 	C 	0.68367 0.82479 0.18807 0.01300
H 	H 	0.70442 0.81690 0.19451 0.02500
H 	H 	0.67602 0.83867 0.24624 0.04200
H 	H 	0.63693 0.82796 0.11427 0.03800
H 	H 	0.59265 0.84783 0.13676 0.03900
H 	H 	0.56554 0.87390 0.18542 0.03900
H 	H 	0.66353 0.88255 0.26781 0.03600
H 	H 	0.54178 0.87578 0.23980 0.03600
H 	H 	0.51726 0.91218 0.27978 0.04200
H 	H 	0.59522 0.94075 0.32925 0.05000
C 	C 	0.62678 0.90319 0.28919 -0.05400
H 	H 	0.63820 0.91549 0.31102 0.04300
C 	C 	0.27423 0.14948 0.05940 -0.10100
C 	C 	0.25841 0.14879 0.02529 0.01700
C 	C 	0.23103 0.13792 0.02585 -0.07000
C 	C 	0.21924 0.12758 0.06047 0.02800
C 	C 	0.23503 0.12816 0.09453 -0.07000
C 	C 	0.26239 0.13905 0.09402 0.01800
C 	C 	0.19057 0.11555 0.06092 0.00100
C 	C 	0.18394 0.09003 0.03953 -0.04100
C 	C 	0.15696 0.07814 0.04076 -0.03100
C 	C 	0.13645 0.09166 0.06340 -0.01300
C 	C 	0.14295 0.11727 0.08458 -0.03100
C 	C 	0.16994 0.12921 0.08334 -0.04100
C 	C 	0.10889 0.07889 0.06530 0.05600
C 	C 	0.08608 0.06754 0.06635 -0.12400
H 	H 	0.26718 0.15695 0.99844 0.03600
H 	H 	0.21896 0.13760 0.99943 0.04900
H 	H 	0.22618 0.11997 0.12132 0.04500
H 	H 	0.27442 0.13916 0.12047 0.03100
H 	H 	0.19975 0.07927 0.02226 0.04000
H 	H 	0.15206 0.05833 0.02432 0.03900
H 	H 	0.12717 0.12784 0.10210 0.03800
H 	H 	0.17484 0.14899 0.09983 0.03800
C 	C 	0.47181 0.09030 0.79811 -0.05400
C 	C 	0.46756 0.06074 0.78701 0.03200
C 	C 	0.44366 0.04506 0.79997 -0.01200
C 	C 	0.42610 0.05820 0.82815 0.00800
C 	C 	0.45266 0.10446 0.82203 -0.02900
C 	C 	0.42912 0.08894 0.83639 -0.00400
C 	C 	0.48715 0.04647 0.76342 -0.06500
C 	C 	0.48243 0.01721 0.75136 0.00700
C 	C 	0.43769 0.01689 0.78403 -0.03000
C 	C 	0.40821 0.04068 0.85142 -0.03900
C 	C 	0.39337 0.08434 0.88655 0.01000
C 	C 	0.41041 0.10247 0.86280 0.00800
C 	C 	0.40803 0.13361 0.86568 -0.05100
C 	C 	0.39266 0.14615 0.89575 0.00100
C 	C 	0.37863 0.12790 0.92238 -0.06200
C 	C 	0.37796 0.09710 0.91665 -0.01900
C 	C 	0.45729 0.00286 0.76060 -0.04400
H 	H 	0.45302 0.98073 0.74982 0.04500
H 	H 	0.41767 0.00624 0.78859 0.03700
H 	H 	0.50621 0.05789 0.75503 0.05000
H 	H 	0.49014 0.10237 0.78837 0.04300
H 	H 	0.45735 0.12680 0.83150 0.03700
H 	H 	0.40800 0.01676 0.84901 0.03900
H 	H 	0.41731 0.14809 0.84423 0.04300
H 	H 	0.39217 0.17006 0.89879 0.04300
H 	H 	0.36597 0.08306 0.93609 0.04700
C 	C 	0.39235 0.05364 0.88053 -0.04100
H 	H 	0.37940 0.03964 0.89876 0.04000
C 	C 	0.43716 0.02022 0.23187 -0.05500
C 	C 	0.45880 0.02998 0.25591 0.03300
C 	C 	0.46619 0.06044 0.25702 -0.01200
C 	C 	0.45304 0.08048 0.23115 0.00900
C 	C 	0.42227 0.04038 0.20960 -0.02800
C 	C 	0.42905 0.07092 0.21048 -0.00700
C 	C 	0.47320 0.00956 0.27890 -0.06600
C 	C 	0.49433 0.01929 0.30389 0.00700
C 	C 	0.48570 0.07026 0.28487 -0.02900
C 	C 	0.46494 0.10849 0.22251 -0.04100
C 	C 	0.42649 0.11968 0.17952 0.00400
C 	C 	0.41416 0.09176 0.18780 0.01200
C 	C 	0.38696 0.08569 0.17424 -0.05800
C 	C 	0.37418 0.10507 0.14841 0.01100
C 	C 	0.38760 0.13146 0.13730 -0.08400
C 	C 	0.41331 0.13922 0.15382 -0.01200
C 	C 	0.50009 0.04971 0.30741 -0.04300
H 	H 	0.51569 0.05746 0.32772 0.04500
H 	H 	0.48898 0.09365 0.29030 0.03600
H 	H 	0.46807 0.98609 0.27729 0.04800
H 	H 	0.43182 0.99683 0.23036 0.04200
H 	H 	0.40670 0.03185 0.18987 0.03600
H 	H 	0.48520 0.11473 0.23363 0.03900
H 	H 	0.37526 0.06670 0.18468 0.04300
H 	H 	0.35364 0.09971 0.13731 0.03600
H 	H 	0.42329 0.16010 0.14613 0.04000
C 	C 	0.45187 0.12767 0.19672 -0.03900
H 	H 	0.46162 0.14883 0.19000 0.03800
C 	C 	0.46741 0.42524 0.94917 -0.07800
C 	C 	0.49066 0.40662 0.94648 0.01300
C 	C 	0.48694 0.37583 0.94452 -0.06400
C 	C 	0.45997 0.36351 0.94512 0.02600
C 	C 	0.43682 0.38233 0.94366 -0.06300
C 	C 	0.44054 0.41305 0.94567 0.01300
C 	C 	0.45584 0.33170 0.95389 0.00100
C 	C 	0.43853 0.31419 0.93029 -0.04100
C 	C 	0.42831 0.28693 0.94380 -0.03100
C 	C 	0.43549 0.27697 0.98081 -0.01000
C 	C 	0.45498 0.29300 0.00270 -0.03600
C 	C 	0.46514 0.32028 0.98931 -0.03600
C 	C 	0.41916 0.25391 0.99892 0.05800
C 	C 	0.40445 0.23579 0.01470 -0.12600
H 	H 	0.51154 0.41581 0.94862 0.03800
H 	H 	0.50498 0.36152 0.94482 0.04600
H 	H 	0.41590 0.37309 0.94354 0.04600
H 	H 	0.42247 0.42727 0.94694 0.03400
H 	H 	0.43168 0.32249 0.90255 0.04000
H 	H 	0.41355 0.27444 0.92643 0.04000
H 	H 	0.46092 0.28525 0.03114 0.03800
H 	H 	0.47877 0.33342 0.00760 0.03800
C 	C 	0.41520 0.54633 0.01349 -0.10400
C 	C 	0.40207 0.56480 0.04049 0.02300
C 	C 	0.37514 0.57511 0.03356 -0.07400
C 	C 	0.36103 0.56703 0.99964 0.03100
C 	C 	0.37390 0.54813 0.97298 -0.07100
C 	C 	0.40085 0.53781 0.97986 0.02700
C 	C 	0.33335 0.57949 0.99126 0.00200
C 	C 	0.32982 0.59858 0.95962 -0.04100
C 	C 	0.30445 0.61303 0.95414 -0.03100
C 	C 	0.28246 0.60850 0.98020 -0.01100
C 	C 	0.28556 0.58849 0.01088 -0.03300
C 	C 	0.31091 0.57399 0.01637 -0.04200
C 	C 	0.25808 0.62683 0.97810 0.05400
C 	C 	0.23818 0.64298 0.97713 -0.12400
H 	H 	0.41291 0.57165 0.06646 0.01800
H 	H 	0.36542 0.58981 0.05423 0.04400
H 	H 	0.36310 0.54162 0.94682 0.04900
H 	H 	0.41056 0.52323 0.95904 0.03600
H 	H 	0.34698 0.60292 0.94002 0.04000
H 	H 	0.30220 0.62845 0.93035 0.03900
H 	H 	0.26863 0.58483 0.03111 0.03700
H 	H 	0.31333 0.55907 0.04066 0.03800
C 	C 	0.55839 0.47980 0.05555 -0.10400
C 	C 	0.55968 0.44869 0.05452 0.02000
C 	C 	0.58491 0.43463 0.04665 -0.07000
C 	C 	0.60911 0.45152 0.03985 0.02900
C 	C 	0.60818 0.48255 0.04290 -0.07100
C 	C 	0.58295 0.49664 0.05080 0.02100
C 	C 	0.63483 0.43688 0.02675 -0.00200
C 	C 	0.64541 0.44265 0.98965 -0.03800
C 	C 	0.66866 0.42729 0.97616 -0.03300
C 	C 	0.68148 0.40606 0.99961 -0.00900
C 	C 	0.67124 0.40059 0.03688 -0.03500
C 	C 	0.64799 0.41595 0.05044 -0.04000
C 	C 	0.70479 0.38946 0.98514 0.05200
C 	C 	0.72426 0.37550 0.97304 -0.12200
H 	H 	0.54097 0.43543 0.05860 0.03200
H 	H 	0.58546 0.41066 0.04459 0.04600
H 	H 	0.62683 0.49576 0.03809 0.04600
H 	H 	0.58230 0.52065 0.05153 0.03000
H 	H 	0.63532 0.45865 0.97107 0.04000
H 	H 	0.67651 0.43167 0.94734 0.04000
H 	H 	0.68112 0.38428 0.05522 0.03800
H 	H 	0.64003 0.41140 0.07914 0.03800
C 	C 	0.54346 0.57891 0.98026 -0.09800
C 	C 	0.57104 0.56889 0.97760 0.01900
C 	C 	0.59307 0.58933 0.97498 -0.06900
C 	C 	0.58768 0.61990 0.97493 0.02700
C 	C 	0.56001 0.62975 0.97421 -0.06900
C 	C 	0.53801 0.60934 0.97676 0.01900
C 	C 	0.61063 0.64145 0.98086 0.00300
C 	C 	0.61447 0.66515 0.95499 -0.04100
C 	C 	0.63316 0.68814 0.96388 -0.03100
C 	C 	0.64823 0.68747 0.99852 -0.00900
C 	C 	0.64541 0.66315 0.02346 -0.03400
C 	C 	0.62668 0.64023 0.01471 -0.04300
C 	C 	0.66489 0.71270 0.00995 0.05200
C 	C 	0.67852 0.73382 0.02032 -0.12300
H 	H 	0.57552 0.54543 0.97982 0.03400
H 	H 	0.61435 0.58146 0.97483 0.04600
H 	H 	0.55559 0.65328 0.97371 0.04600
H 	H 	0.51678 0.61729 0.97792 0.03100
H 	H 	0.60237 0.66621 0.92863 0.04000
H 	H 	0.63538 0.70680 0.94433 0.04100
H 	H 	0.65710 0.66243 0.05020 0.03500
H 	H 	0.62386 0.62209 0.03492 0.03700
