data_crystal

_cell_length_a 26.25916
_cell_length_b 26.49592
_cell_length_c 23.10527
_cell_angle_alpha 95.49151
_cell_angle_beta  95.49160
_cell_angle_gamma 125.85372

_symmetry_space_group_name_	'P 1'
_symmetry_space_group_name_H-M	'P 1'

loop_
_symmetry_equiv_pos_as_xyz
  x,y,z

loop_
_atom_site_label
_atom_site_type_symbol
_atom_site_fract_x
_atom_site_fract_y
_atom_site_fract_z
_atom_site_charge
C 	C 	0.05157 0.01928 0.98752 0.06100
C 	C 	0.04363 0.00841 0.42559 0.06000
C 	C 	0.01729 0.04090 0.41717 -0.10600
C 	C 	0.11356 0.04280 0.43399 -0.04100
C 	C 	0.15091 0.06096 0.49105 0.08700
C 	C 	0.12980 0.01669 0.93724 -0.06200
N 	N 	0.20111 0.00334 0.89383 -0.19400
N 	N 	0.12381 0.04942 0.54016 -0.19800
H 	H 	0.15159 0.06172 0.58183 0.08000
H 	H 	0.07557 0.02985 0.53788 0.08500
C 	C 	0.21711 0.09263 0.49712 -0.08200
H 	H 	0.00778 0.09165 0.09647 0.08100
C 	C 	0.02905 0.05590 0.98352 -0.11000
H 	H 	0.04787 0.09004 0.41209 0.05500
C 	C 	0.14318 0.05775 0.38452 -0.06600
H 	H 	0.11440 0.04363 0.34094 0.04500
C 	C 	0.11850 0.04620 0.98263 -0.04900
C 	C 	0.19210 0.03691 0.93432 0.07100
C 	C 	0.20972 0.09133 0.39090 0.07300
H 	H 	0.20953 0.09317 0.30049 0.08000
H 	H 	0.06098 0.10465 0.97770 0.05600
H 	H 	0.00096 0.12139 0.49037 0.04000
C 	C 	0.17089 0.09857 0.02462 0.09300
H 	H 	0.11645 0.10174 0.08402 0.08400
N 	N 	0.16155 0.12397 0.07276 -0.19900
H 	H 	0.20045 0.16462 0.10167 0.08000
C 	C 	0.23345 0.12284 0.01777 -0.07600
C 	C 	0.96580 0.02999 0.98923 0.06600
C 	C 	0.92711 0.04905 0.41774 -0.04300
C 	C 	0.87316 0.03008 0.37558 0.08900
C 	C 	0.84932 0.06579 0.37892 -0.08300
H 	H 	0.80556 0.04915 0.34953 0.05200
N 	N 	0.73922 0.03053 0.00335 -0.18600
H 	H 	0.76838 0.01582 0.00746 0.08800
H 	H 	0.24639 0.01493 0.89258 0.08500
C 	C 	0.95229 0.01122 0.41850 0.06400
H 	H 	0.91172 0.04564 0.89528 0.04500
H 	H 	0.31833 0.06795 0.44037 0.05400
H 	H 	0.41297 0.07597 0.43557 0.07900
C 	C 	0.94300 0.06931 0.98991 -0.05000
C 	C 	0.91098 0.06777 0.93686 -0.06400
N 	N 	0.84354 0.08838 0.88530 -0.19500
C 	C 	0.76324 0.09101 0.99786 0.04800
H 	H 	0.67224 0.07470 0.99534 0.03600
H 	H 	0.84565 0.06835 0.84521 0.07800
C 	C 	0.87506 0.09133 0.93733 0.07300
H 	H 	0.24587 0.10646 0.54066 0.05100
C 	C 	0.95945 0.10642 0.45833 -0.05900
C 	C 	0.24698 0.10935 0.44794 -0.01300
C 	C 	0.94357 0.09960 0.04414 0.09400
N 	N 	0.97814 0.10587 0.09573 -0.19600
C 	C 	0.72257 0.10919 0.99443 -0.01900
H 	H 	0.81747 0.10661 0.88390 0.08300
N 	N 	0.23746 0.10641 0.34231 -0.19500
C 	C 	0.88313 0.12419 0.41817 -0.01100
C 	C 	0.34735 0.11928 0.45070 -0.10000
N 	N 	0.44114 0.12547 0.44484 -0.20400
C 	C 	0.87146 0.11699 0.99211 -0.02200
H 	H 	0.32133 0.08521 0.05248 0.05500
C 	C 	0.24457 0.09176 0.97392 -0.01800
H 	H 	0.28674 0.13118 0.34535 0.08600
C 	C 	0.90747 0.12296 0.04469 -0.07400
H 	H 	0.97690 0.12673 0.13580 0.08200
C 	C 	0.82859 0.13586 0.99513 0.00700
C 	C 	0.34569 0.11092 0.01852 -0.09500
C 	C 	0.94052 0.14605 0.45619 0.07000
H 	H 	0.83981 0.14205 0.51239 0.05400
C 	C 	0.31140 0.11578 0.97187 -0.00100
H 	H 	0.42189 0.12123 0.10749 0.08500
C 	C 	0.31762 0.14889 0.45726 0.00500
H 	H 	0.49004 0.15069 0.44503 0.07800
H 	H 	0.90620 0.14452 0.08633 0.05100
C 	C 	0.41396 0.15539 0.45502 0.12100
C 	C 	0.85459 0.15874 0.42402 0.00300
C 	C 	0.41225 0.14459 0.02523 0.13200
H 	H 	0.26421 0.13958 0.88013 0.08500
C 	C 	0.34282 0.14864 0.92702 0.05400
N 	N 	0.44584 0.14948 0.07685 -0.20500
C 	C 	0.83566 0.16467 0.47741 -0.09700
H 	H 	0.89579 0.16792 0.32187 0.08600
N 	N 	0.31141 0.15565 0.88190 -0.19200
O 	O 	0.66874 0.17050 0.92398 -0.43100
H 	H 	0.27371 0.16441 0.04845 0.05000
C 	C 	0.74603 0.17107 0.98850 -0.11800
H 	H 	0.08970 0.97639 0.90531 0.04100
H 	H 	0.16215 0.96384 0.86388 0.07700
C 	C 	0.00953 0.95585 0.99371 -0.11000
H 	H 	0.02634 0.92707 0.99581 0.05600
C 	C 	0.00398 0.94428 0.42970 -0.10700
H 	H 	0.02412 0.91865 0.43442 0.05700
H 	H 	0.01891 0.22011 0.51979 0.07500
H 	H 	0.69071 0.99753 0.00436 0.08000
C 	C 	0.94529 0.92884 0.99499 0.06500
C 	C 	0.92385 0.96627 0.99428 -0.10700
H 	H 	0.87438 0.94562 0.99667 0.05500
C 	C 	0.91329 0.94769 0.42623 -0.10500
C 	C 	0.93876 0.91362 0.42961 0.06100
H 	H 	0.86347 0.92479 0.42881 0.05700
Cu	Cu	0.64372 0.25111 0.01128 0.92500
Cu	Cu	0.68363 0.23508 0.88389 0.87300
Cu	Cu	0.66159 0.34204 0.92845 0.90700
Cu	Cu	0.61896 0.35357 0.04190 0.89500
C 	C 	0.65431 0.30163 0.13228 0.27900
O 	O 	0.54717 0.19747 0.00620 -0.35800
C 	C 	0.68683 0.32096 0.81651 0.28200
O 	O 	0.67897 0.34611 0.01203 -0.63600
O 	O 	0.63243 0.25264 0.92501 -0.63200
O 	O 	0.70388 0.22737 0.01766 -0.36500
O 	O 	0.61594 0.31563 0.11284 -0.38700
O 	O 	0.69551 0.43011 0.93558 -0.37700
C 	C 	0.68881 0.46093 0.97886 0.28600
C 	C 	0.51401 0.21719 0.98657 0.28500
O 	O 	0.54377 0.27449 0.97473 -0.40000
O 	O 	0.64287 0.43029 0.00953 -0.39000
O 	O 	0.66330 0.26637 0.09680 -0.35200
C 	C 	0.70060 0.18611 0.97774 0.29300
O 	O 	0.65446 0.33597 0.84337 -0.37400
O 	O 	0.72202 0.30887 0.84714 -0.43100
H 	H 	0.72408 0.37960 0.03126 0.15800
H 	H 	0.58711 0.22225 0.90501 0.15700
Cu	Cu	0.74628 0.34933 0.43122 0.92500
Cu	Cu	0.74773 0.29293 0.55117 0.86900
Cu	Cu	0.65128 0.31161 0.51609 0.89400
Cu	Cu	0.62438 0.34572 0.40403 0.89300
C 	C 	0.68883 0.33217 0.31189 0.28000
O 	O 	0.78067 0.44201 0.43607 -0.36000
C 	C 	0.69907 0.32350 0.64218 0.27700
O 	O 	0.64726 0.29577 0.43216 -0.63800
O 	O 	0.74471 0.35535 0.51740 -0.63900
O 	O 	0.79439 0.31207 0.42701 -0.36900
O 	O 	0.73028 0.23912 0.48031 -0.44000
O 	O 	0.66614 0.36153 0.33356 -0.38300
O 	O 	0.55927 0.26334 0.50985 -0.38500
C 	C 	0.52060 0.26243 0.46797 0.30000
C 	C 	0.75317 0.46418 0.46205 0.29300
O 	O 	0.69608 0.42417 0.47387 -0.39800
O 	O 	0.54285 0.30558 0.43396 -0.40000
O 	O 	0.73052 0.32978 0.34590 -0.35300
C 	C 	0.77409 0.25980 0.44734 0.29900
O 	O 	0.65659 0.32021 0.60286 -0.37500
O 	O 	0.74869 0.32834 0.62732 -0.41800
H 	H 	0.61911 0.25042 0.41306 0.16100
H 	H 	0.77268 0.39855 0.54183 0.17400
C 	C 	0.69274 0.32461 0.70330 -0.04700
C 	C 	0.68921 0.32387 0.75495 -0.06000
C 	C 	0.67095 0.30943 0.19524 -0.04400
C 	C 	0.68122 0.31846 0.24864 -0.04400
C 	C 	0.77733 0.53068 0.46241 -0.11200
C 	C 	0.84266 0.58213 0.48313 0.12700
C 	C 	0.86422 0.64379 0.47736 -0.10000
C 	C 	0.82109 0.65538 0.45489 0.00500
C 	C 	0.75526 0.60445 0.43733 0.05400
C 	C 	0.73429 0.54253 0.44021 -0.02000
N 	N 	0.88429 0.57314 0.51041 -0.20300
H 	H 	0.91450 0.68307 0.49152 0.05600
C 	C 	0.84577 0.72075 0.44791 -0.01300
N 	N 	0.71193 0.61465 0.41801 -0.19100
H 	H 	0.68419 0.50327 0.42474 0.02900
C 	C 	0.85568 0.73726 0.39201 -0.08100
C 	C 	0.87989 0.79889 0.38383 0.08700
C 	C 	0.89739 0.84559 0.43313 -0.04200
C 	C 	0.88481 0.82841 0.48846 -0.06500
C 	C 	0.85860 0.76618 0.49632 0.07200
H 	H 	0.84406 0.70189 0.35466 0.05200
N 	N 	0.88606 0.81290 0.32862 -0.19800
H 	H 	0.89743 0.86407 0.52600 0.04400
N 	N 	0.84600 0.75050 0.55025 -0.19500
H 	H 	0.87503 0.77879 0.29273 0.08000
H 	H 	0.89962 0.85690 0.32044 0.08400
H 	H 	0.85657 0.78461 0.58590 0.08000
H 	H 	0.82467 0.70429 0.55716 0.08600
H 	H 	0.66360 0.57655 0.40396 0.07800
H 	H 	0.72531 0.66031 0.41801 0.08500
H 	H 	0.86852 0.52970 0.52196 0.08600
H 	H 	0.93288 0.61092 0.52324 0.08200
N 	N 	0.84576 0.97954 0.33065 -0.20000
N 	N 	0.97821 0.20539 0.48981 -0.19200
C 	C 	0.81840 0.20520 0.48848 0.11600
C 	C 	0.80753 0.23032 0.44141 -0.11500
C 	C 	0.82414 0.22266 0.38700 -0.02200
C 	C 	0.85024 0.18935 0.37865 0.05700
N 	N 	0.81729 0.22371 0.54499 -0.19800
H 	H 	0.81717 0.24289 0.35119 0.04900
N 	N 	0.87186 0.18797 0.32775 -0.19200
H 	H 	0.81983 0.20103 0.57854 0.07100
H 	H 	0.82086 0.26477 0.55717 0.02800
H 	H 	0.86678 0.20916 0.29400 0.08500
H 	H 	0.96947 0.23850 0.48432 0.08600
H 	H 	0.86767 0.95794 0.32147 0.08300
H 	H 	0.80402 0.96393 0.30183 0.08000
C 	C 	0.45151 0.22245 0.46839 -0.11100
C 	C 	0.42192 0.25186 0.47779 -0.02000
C 	C 	0.35524 0.21583 0.47172 0.05500
H 	H 	0.45087 0.30317 0.48864 0.04200
N 	N 	0.32769 0.24579 0.47917 -0.19100
H 	H 	0.35596 0.29524 0.48981 0.08000
H 	H 	0.27819 0.22060 0.47438 0.08500
C 	C 	0.89954 0.86026 0.99312 -0.05100
C 	C 	0.87231 0.81659 0.93884 0.08900
C 	C 	0.83426 0.75143 0.93929 -0.08300
C 	C 	0.82212 0.72932 0.99269 -0.01600
C 	C 	0.84664 0.77290 0.04669 0.07700
C 	C 	0.88559 0.83814 0.04635 -0.05700
N 	N 	0.88255 0.83688 0.88629 -0.19900
H 	H 	0.81456 0.71776 0.89798 0.05200
C 	C 	0.78723 0.66076 0.99175 -0.00800
N 	N 	0.83288 0.75246 0.09879 -0.19500
H 	H 	0.90575 0.87183 0.08770 0.04400
C 	C 	0.82227 0.63684 0.00072 -0.07700
C 	C 	0.79101 0.57173 0.99806 0.10400
C 	C 	0.72333 0.52968 0.98406 -0.10300
C 	C 	0.68828 0.55368 0.97541 -0.02700
C 	C 	0.71957 0.61900 0.97962 0.05900
H 	H 	0.87412 0.66917 0.01035 0.05300
N 	N 	0.82610 0.55016 0.01023 -0.19600
H 	H 	0.63643 0.52138 0.96521 0.04300
N 	N 	0.68447 0.64128 0.97238 -0.19300
H 	H 	0.87607 0.58145 0.01900 0.08200
H 	H 	0.80445 0.50278 0.01297 0.07800
H 	H 	0.63451 0.60994 0.96269 0.07900
H 	H 	0.70615 0.68974 0.97715 0.08400
H 	H 	0.85222 0.78504 0.13856 0.07900
H 	H 	0.80199 0.70428 0.10032 0.08700
H 	H 	0.90860 0.88492 0.88411 0.08500
H 	H 	0.86323 0.80423 0.84658 0.08000
C 	C 	0.85268 0.19850 0.99212 -0.10100
C 	C 	0.81191 0.21645 0.98764 0.11700
H 	H 	0.90296 0.23285 0.99091 0.05300
N 	N 	0.83595 0.27669 0.98099 -0.20300
H 	H 	0.88471 0.30982 0.98103 0.07600
H 	H 	0.80674 0.29111 0.97478 0.05900
C 	C 	0.44358 0.17627 0.97963 -0.12200
C 	C 	0.40781 0.17553 0.92987 -0.02400
H 	H 	0.43154 0.19924 0.89476 0.03800
H 	H 	0.49484 0.18521 0.08978 0.10400
H 	H 	0.33482 0.17891 0.84847 0.07900
