data_crystal

_cell_length_a 20.35569
_cell_length_b 21.07360
_cell_length_c 37.52951
_cell_angle_alpha 60.77594
_cell_angle_beta  118.92746
_cell_angle_gamma 133.38518

_symmetry_space_group_name_	'P 1'
_symmetry_space_group_name_H-M	'P 1'

loop_
_symmetry_equiv_pos_as_xyz
  x,y,z

loop_
_atom_site_label
_atom_site_type_symbol
_atom_site_fract_x
_atom_site_fract_y
_atom_site_fract_z
_atom_site_charge
Co	Co	0.06636 0.05962 0.02606 1.19100
Co	Co	0.14511 0.96944 0.02470 1.15400
O 	O 	0.03406 0.07969 0.19284 -0.40200
C 	C 	0.05283 0.02107 0.21734 0.32700
O 	O 	0.03017 0.13458 0.01965 -0.46600
C 	C 	0.05214 0.23044 0.10600 0.31400
C 	C 	0.25231 0.96153 0.11137 0.26600
O 	O 	0.06365 0.98486 0.20147 -0.40900
O 	O 	0.25935 0.01444 0.07356 -0.37300
O 	O 	0.19893 0.94416 0.13039 -0.38900
O 	O 	0.07988 0.20515 0.09316 -0.39900
O 	O 	0.08253 0.97779 0.05162 -0.77300
O 	O 	0.20128 0.10160 0.98919 -0.39400
O 	O 	0.20652 0.15919 0.02895 -0.40100
Co	Co	0.00373 0.07228 0.57932 1.19100
Co	Co	0.01631 0.98626 0.53071 1.16900
O 	O 	0.04919 0.06276 0.70055 -0.36900
C 	C 	0.04477 0.98922 0.72250 0.24500
O 	O 	0.05520 0.10175 0.53437 -0.46200
C 	C 	0.11590 0.21818 0.62119 0.31000
C 	C 	0.07500 0.78346 0.59484 0.29700
O 	O 	0.04263 0.94622 0.70466 -0.38300
O 	O 	0.00511 0.74593 0.56460 -0.41700
O 	O 	0.07557 0.82663 0.61179 -0.40300
O 	O 	0.12241 0.17197 0.61036 -0.40000
O 	O 	0.08891 0.92994 0.50243 -0.40500
O 	O 	0.14100 0.00854 0.54742 -0.37400
C 	C 	0.04947 0.03912 0.85767 0.09100
C 	C 	0.11671 0.05868 0.84420 -0.04200
C 	C 	0.08959 0.99774 0.82537 -0.06300
N 	N 	0.07058 0.06551 0.89032 -0.15800
C 	C 	0.05352 0.96138 0.76847 -0.03400
C 	C 	0.12533 0.02243 0.79370 0.03300
H 	H 	0.18749 0.11879 0.84841 0.03900
H 	H 	0.18404 0.08932 0.78334 0.02600
H 	H 	0.13832 0.10479 0.90730 0.08700
C 	C 	0.01868 0.04357 0.35097 0.12000
C 	C 	0.09443 0.07736 0.33813 -0.10800
C 	C 	0.08108 0.02579 0.31831 0.04600
C 	C 	0.06170 0.99571 0.26311 -0.05800
C 	C 	0.12220 0.06063 0.28643 -0.01600
N 	N 	0.02776 0.05833 0.38495 -0.14300
H 	H 	0.16109 0.14052 0.34370 0.05400
H 	H 	0.17000 0.13201 0.27374 0.03700
H 	H 	0.09143 0.09702 0.40436 0.08600
C 	C 	0.25574 0.38003 0.68224 -0.09100
C 	C 	0.23772 0.31387 0.67119 0.10300
C 	C 	0.25735 0.24774 0.70477 -0.21300
H 	H 	0.28117 0.38117 0.71501 0.05100
C 	C 	0.14441 0.76344 0.61399 -0.10600
C 	C 	0.17053 0.75493 0.58828 0.09100
C 	C 	0.16601 0.80188 0.54223 -0.19700
H 	H 	0.14726 0.73756 0.67773 0.03700
H 	H 	0.23649 0.86372 0.53812 0.06500
H 	H 	0.11737 0.81960 0.52737 0.06100
H 	H 	0.14274 0.75738 0.52459 0.06000
C 	C 	0.11981 0.39186 0.06960 -0.01400
H 	H 	0.09858 0.37640 0.04058 0.03500
C 	C 	0.16865 0.54954 0.02825 -0.17200
H 	H 	0.24167 0.59231 0.02609 0.05900
H 	H 	0.15324 0.59243 0.02658 0.06000
H 	H 	0.12139 0.51919 0.00081 0.05700
C 	C 	0.23281 0.81474 0.14824 -0.02200
C 	C 	0.28700 0.90639 0.12791 -0.09700
C 	C 	0.19016 0.65783 0.17502 -0.17800
H 	H 	0.17975 0.78990 0.16140 0.03700
H 	H 	0.17031 0.65249 0.19973 0.06100
H 	H 	0.12543 0.61573 0.15367 0.06600
H 	H 	0.01099 0.31489 0.58195 0.08800
C 	C 	0.63146 0.26367 0.02523 -0.08200
C 	C 	0.62117 0.31959 0.02884 0.03600
H 	H 	0.57046 0.20256 0.01491 0.04600
C 	C 	0.57750 0.22775 0.57384 -0.08600
C 	C 	0.54007 0.14641 0.56845 0.04700
C 	C 	0.59433 0.14041 0.55932 -0.08600
H 	H 	0.53765 0.23142 0.58322 0.05300
H 	H 	0.57061 0.07502 0.56080 0.05300
C 	C 	0.32064 0.72352 0.12866 0.03400
C 	C 	0.41138 0.74908 0.13925 -0.08200
C 	C 	0.42606 0.69852 0.13387 0.03400
C 	C 	0.35036 0.61836 0.12159 -0.08200
C 	C 	0.25985 0.59054 0.11187 0.03500
C 	C 	0.24463 0.64469 0.11379 -0.08300
H 	H 	0.47044 0.80919 0.15075 0.04500
H 	H 	0.36173 0.57582 0.12075 0.05100
H 	H 	0.17478 0.62575 0.10384 0.05000
C 	C 	0.27922 0.63413 0.66709 0.03300
C 	C 	0.37670 0.69076 0.67967 -0.08200
C 	C 	0.42954 0.66872 0.68143 0.03600
C 	C 	0.38569 0.58550 0.67598 -0.08200
C 	C 	0.28942 0.52843 0.66343 0.03500
C 	C 	0.23531 0.55151 0.65968 -0.08100
H 	H 	0.41124 0.75587 0.68376 0.04400
H 	H 	0.42722 0.56863 0.67780 0.05300
H 	H 	0.16043 0.50869 0.64852 0.04800
C 	C 	0.24671 0.16601 0.00710 0.29900
C 	C 	0.15568 0.97828 0.53050 0.23300
C 	C 	0.24727 0.44832 0.65110 -0.00900
C 	C 	0.22442 0.45176 0.60833 0.02700
C 	C 	0.20266 0.38245 0.59786 -0.01400
C 	C 	0.19677 0.30724 0.62926 -0.11500
H 	H 	0.17992 0.38206 0.56517 0.03300
C 	C 	0.22172 0.52794 0.57394 -0.17300
H 	H 	0.29046 0.59344 0.57812 0.06200
H 	H 	0.16780 0.52778 0.57476 0.06000
H 	H 	0.20469 0.52165 0.54237 0.05900
C 	C 	0.59132 0.72071 0.71504 -0.09100
C 	C 	0.52867 0.73716 0.68145 -0.01100
C 	C 	0.55486 0.79694 0.64303 0.02700
H 	H 	0.57213 0.67640 0.74484 0.04900
C 	C 	0.49313 0.82331 0.60756 -0.17100
H 	H 	0.47663 0.84997 0.61878 0.05600
H 	H 	0.42758 0.76393 0.59526 0.06000
C 	C 	0.20946 0.70824 0.60639 -0.08700
C 	C 	0.22749 0.67300 0.64962 -0.01200
C 	C 	0.20726 0.68556 0.67585 0.02900
C 	C 	0.16625 0.73120 0.65781 -0.02300
H 	H 	0.22930 0.70230 0.58663 0.04500
C 	C 	0.22882 0.65041 0.72280 -0.17600
H 	H 	0.30528 0.69016 0.73552 0.06100
H 	H 	0.19973 0.57846 0.73078 0.06500
H 	H 	0.19831 0.65520 0.73839 0.06100
C 	C 	0.16175 0.42824 0.14321 -0.08700
C 	C 	0.18247 0.49792 0.10669 -0.01000
C 	C 	0.15498 0.47787 0.06887 0.02700
C 	C 	0.10909 0.32496 0.10739 -0.11000
C 	C 	0.13221 0.34431 0.14471 0.09800
C 	C 	0.12771 0.27662 0.18637 -0.20600
H 	H 	0.17958 0.44279 0.17190 0.05000
H 	H 	0.16422 0.30766 0.21305 0.06900
H 	H 	0.16229 0.24919 0.19015 0.08500
H 	H 	0.05410 0.22145 0.18828 0.07400
C 	C 	0.57341 0.72446 0.18453 -0.09100
C 	C 	0.52118 0.72737 0.14294 -0.01000
C 	C 	0.55710 0.75058 0.11086 0.02500
C 	C 	0.49913 0.74587 0.06641 -0.17200
H 	H 	0.54418 0.70261 0.20937 0.04900
H 	H 	0.54322 0.78544 0.04386 0.05500
H 	H 	0.46081 0.77386 0.05657 0.05900
H 	H 	0.44883 0.67485 0.06409 0.06100
C 	C 	0.36085 0.93879 0.11395 0.05800
C 	C 	0.36483 0.87772 0.11100 -0.07800
C 	C 	0.30750 0.78511 0.12909 -0.01600
C 	C 	0.24497 0.75425 0.15047 0.03600
H 	H 	0.41477 0.90279 0.09564 0.03600
C 	C 	0.43446 0.03832 0.10122 -0.16900
H 	H 	0.23162 0.63080 0.19114 0.06600
H 	H 	0.44397 0.07508 0.11863 0.07500
H 	H 	0.41460 0.06439 0.06693 0.07000
H 	H 	0.50248 0.05201 0.10863 0.06300
C 	C 	0.58744 0.11391 0.48176 -0.17700
H 	H 	0.58506 0.11031 0.45255 0.06600
H 	H 	0.56890 0.15959 0.47241 0.06500
H 	H 	0.53493 0.04541 0.49744 0.06500
C 	C 	0.29860 0.99530 0.58201 -0.11000
C 	C 	0.25051 0.00690 0.53990 -0.01900
C 	C 	0.29515 0.04912 0.50744 0.05300
C 	C 	0.38830 0.08245 0.51788 -0.05700
C 	C 	0.43859 0.07912 0.55984 -0.03800
C 	C 	0.39143 0.02804 0.59215 0.08400
C 	C 	0.44125 0.01298 0.63746 -0.16500
H 	H 	0.26416 0.96204 0.60691 0.06100
H 	H 	0.42419 0.11850 0.49316 0.04100
C 	C 	0.24597 0.06352 0.46184 -0.14700
H 	H 	0.39128 0.95202 0.65714 0.04600
H 	H 	0.47984 0.07226 0.64932 0.06700
H 	H 	0.49083 0.00262 0.64084 0.06800
H 	H 	0.29379 0.10594 0.44071 0.05600
H 	H 	0.21777 0.09856 0.45612 0.06700
H 	H 	0.18882 0.99786 0.45327 0.04700
C 	C 	0.40679 0.23558 0.05141 -0.01300
C 	C 	0.34778 0.23233 0.01111 -0.12400
C 	C 	0.38468 0.27285 0.97609 0.10800
C 	C 	0.47311 0.29854 0.98240 -0.07600
C 	C 	0.52807 0.29153 0.02308 -0.02400
C 	C 	0.49684 0.26451 0.05780 0.03200
C 	C 	0.55972 0.26844 0.10135 -0.17700
H 	H 	0.38027 0.20914 0.07818 0.04500
H 	H 	0.49933 0.32445 0.95562 0.04900
C 	C 	0.32868 0.28491 0.93193 -0.20600
H 	H 	0.52025 0.23077 0.12567 0.06400
H 	H 	0.61346 0.33957 0.10359 0.06400
H 	H 	0.59421 0.23816 0.10867 0.06500
H 	H 	0.27255 0.28400 0.93087 0.07900
H 	H 	0.29778 0.23052 0.91850 0.07300
H 	H 	0.37420 0.35078 0.91201 0.06900
C 	C 	0.63685 0.82863 0.63712 -0.01800
H 	H 	0.51053 0.33464 0.50741 0.06600
H 	H 	0.62379 0.10560 0.06756 0.05300
H 	H 	0.54959 0.95473 0.06205 0.06300
H 	H 	0.64190 0.95108 0.10434 0.07400
H 	H 	0.33112 0.28450 0.72236 0.07200
H 	H 	0.52743 0.87682 0.58120 0.05300
H 	H 	0.55694 0.44478 0.47203 0.06200
C 	C 	0.61994 0.97288 0.06978 -0.23100
Co	Co	0.06493 0.91471 0.10040 1.18300
O 	O 	0.09855 0.83849 0.05982 -0.41500
C 	C 	0.57410 0.39726 0.49617 -0.17600
C 	C 	0.64753 0.77697 0.12069 -0.01200
H 	H 	0.61431 0.93587 0.05407 0.07700
H 	H 	0.24485 0.20217 0.69165 0.08900
H 	H 	0.21219 0.20722 0.72677 0.08200
O 	O 	0.02401 0.92786 0.97885 -0.37500
H 	H 	0.00600 0.28657 0.54164 0.09300
O 	O 	0.03470 0.18900 0.62107 -0.41600
C 	C 	0.00475 0.98569 0.95219 0.20900
H 	H 	0.59474 0.38156 0.48075 0.06400
C 	C 	0.01729 0.77705 0.06960 0.32300
O 	O 	0.02134 0.86959 0.15191 -0.47100
H 	H 	0.01747 0.67847 0.15221 0.07700
O 	O 	0.00317 0.03331 0.96550 -0.33000
H 	H 	0.99649 0.37459 0.52776 0.07000
H 	H 	0.65712 0.87447 0.60765 0.03400
O 	O 	0.97641 0.01073 0.46418 -0.34700
H 	H 	0.67710 0.79938 0.09586 0.03600
Co	Co	0.95555 0.81417 0.51166 1.16100
H 	H 	0.69170 0.44691 0.03950 0.05000
O 	O 	0.96033 0.87321 0.54534 -0.76200
Co	Co	0.95883 0.82306 0.59645 1.17800
H 	H 	0.93305 0.60736 0.63114 0.07800
C 	C 	0.69963 0.40110 0.03937 -0.08300
C 	C 	0.99843 0.92221 0.81881 0.08400
O 	O 	0.96860 0.17496 0.11276 -0.41700
C 	C 	0.99686 0.94337 0.31247 0.02500
Co	Co	0.98589 0.08940 0.07097 1.18300
C 	C 	0.97795 0.30764 0.54918 -0.22700
C 	C 	0.67059 0.74816 0.70855 0.10100
H 	H 	0.67683 0.63681 0.75093 0.06900
C 	C 	0.72452 0.71157 0.74258 -0.20500
H 	H 	0.78137 0.73130 0.73313 0.07800
H 	H 	0.83268 0.53999 0.97192 0.06000
C 	C 	0.72069 0.28578 0.03605 0.02800
C 	C 	0.78814 0.42272 0.05112 0.03100
C 	C 	0.79865 0.36338 0.05121 -0.08000
H 	H 	0.86692 0.37807 0.06242 0.04800
C 	C 	0.67523 0.21931 0.54521 0.03700
C 	C 	0.70727 0.30308 0.54600 -0.08300
C 	C 	0.66030 0.30652 0.56203 0.03800
H 	H 	0.76752 0.36500 0.53392 0.04700
Co	Co	0.98082 0.94134 0.14495 1.17300
Co	Co	0.91271 0.04246 0.14709 1.17000
O 	O 	0.96085 0.02130 0.11829 -0.74300
O 	O 	0.99601 0.98168 0.07980 -0.60500
C 	C 	0.80467 0.84369 0.16772 0.31300
O 	O 	0.85236 0.91138 0.18377 -0.43000
O 	O 	0.84523 0.83837 0.15157 -0.40000
C 	C 	0.80561 0.05731 0.06006 0.30400
O 	O 	0.79779 0.00326 0.09782 -0.39100
O 	O 	0.86032 0.07719 0.04085 -0.38200
O 	O 	0.98474 0.79616 0.08316 -0.40700
Co	Co	0.94989 0.90849 0.64765 1.17300
C 	C 	0.81403 0.65747 0.56034 0.30300
Co	Co	0.94261 0.05812 0.64989 1.17000
O 	O 	0.95924 0.00575 0.62203 -0.74900
O 	O 	0.95774 0.81255 0.65308 -0.47900
O 	O 	0.94625 0.93373 0.58074 -0.59100
C 	C 	0.79129 0.86095 0.66688 0.31200
C 	C 	0.94364 0.95578 0.44266 0.24700
O 	O 	0.85294 0.93099 0.68292 -0.42600
O 	O 	0.81694 0.83249 0.65501 -0.39900
O 	O 	0.89516 0.86912 0.45848 -0.39200
C 	C 	0.86071 0.10437 0.55940 0.30000
O 	O 	0.83940 0.04907 0.59585 -0.38900
O 	O 	0.91589 0.11394 0.54476 -0.38400
O 	O 	0.82514 0.70720 0.52218 -0.39200
O 	O 	0.84082 0.69317 0.58991 -0.38700
C 	C 	0.93184 0.90116 0.83347 -0.09000
C 	C 	0.95927 0.96187 0.85254 -0.00900
C 	C 	0.99482 0.00478 0.90690 0.04600
C 	C 	0.92419 0.93847 0.88425 -0.07800
N 	N 	0.97678 0.90025 0.78440 -0.15500
H 	H 	0.86098 0.84122 0.82916 0.04800
H 	H 	0.87048 0.87021 0.89731 0.05100
H 	H 	0.90925 0.86540 0.76628 0.08200
C 	C 	0.92073 0.91130 0.32425 -0.05900
C 	C 	0.93255 0.96476 0.34210 -0.04700
N 	N 	0.98665 0.92442 0.27982 -0.14200
C 	C 	0.94699 0.98942 0.39779 -0.02800
C 	C 	0.88605 0.93066 0.37131 -0.02800
H 	H 	0.85432 0.84764 0.31914 0.03700
H 	H 	0.83039 0.86013 0.38040 0.04000
H 	H 	0.92267 0.87860 0.26331 0.07900
C 	C 	0.69533 0.80526 0.66962 -0.11600
H 	H 	0.75443 0.73530 0.77099 0.06700
C 	C 	0.70295 0.78263 0.16162 -0.12000
C 	C 	0.66273 0.74867 0.19432 0.09800
C 	C 	0.71631 0.74251 0.23947 -0.20300
H 	H 	0.75490 0.80608 0.24772 0.07000
H 	H 	0.76584 0.73016 0.24496 0.07300
H 	H 	0.66845 0.68586 0.26072 0.06500
C 	C 	0.72959 0.11562 0.51537 -0.01500
C 	C 	0.82437 0.15852 0.53523 -0.11000
C 	C 	0.87433 0.24191 0.54352 0.10000
C 	C 	0.82595 0.26486 0.54534 -0.09100
C 	C 	0.72867 0.21365 0.53161 -0.01000
C 	C 	0.68295 0.14754 0.51053 0.03100
H 	H 	0.69149 0.05581 0.50522 0.04000
H 	H 	0.86389 0.32086 0.55836 0.04700
C 	C 	0.76315 0.42964 0.59813 -0.08600
C 	C 	0.69391 0.39361 0.56362 -0.01200
C 	C 	0.65162 0.43679 0.53269 0.03100
C 	C 	0.68237 0.51761 0.53589 -0.01700
C 	C 	0.75852 0.55882 0.56797 -0.10800
C 	C 	0.79430 0.51094 0.60113 0.09700
C 	C 	0.86589 0.54622 0.63945 -0.20700
H 	H 	0.79257 0.39418 0.62275 0.05000
H 	H 	0.65143 0.55193 0.51166 0.04300
H 	H 	0.87790 0.49569 0.66446 0.06800
H 	H 	0.84192 0.56234 0.65276 0.08100
C 	C 	0.67641 0.13173 0.05359 -0.10000
C 	C 	0.73137 0.22391 0.03442 0.00100
C 	C 	0.79657 0.25605 0.01438 0.00900
C 	C 	0.81663 0.19902 0.02039 -0.00400
C 	C 	0.76607 0.10825 0.04238 -0.12000
C 	C 	0.68880 0.07286 0.05483 0.12300
H 	H 	0.87366 0.22626 0.00916 0.03500
C 	C 	0.84607 0.35063 0.98729 -0.14100
H 	H 	0.91238 0.39637 0.00677 0.04600
H 	H 	0.80239 0.37520 0.97151 0.06100
H 	H 	0.86246 0.35312 0.96217 0.05800
C 	C 	0.95762 0.67188 0.03183 -0.00500
C 	C 	0.96520 0.68441 0.06744 -0.12600
C 	C 	0.93313 0.60995 0.10214 0.10500
C 	C 	0.88531 0.52321 0.09862 -0.09600
C 	C 	0.86950 0.51018 0.06120 -0.00200
C 	C 	0.91247 0.58558 0.02903 0.00700
C 	C 	0.90572 0.57375 0.99059 -0.14000
H 	H 	0.98638 0.72955 0.00608 0.02500
H 	H 	0.85424 0.46514 0.12380 0.05000
C 	C 	0.94531 0.62143 0.14204 -0.21400
H 	H 	0.95002 0.63940 0.97016 0.05400
H 	H 	0.92957 0.53241 0.00014 0.04400
H 	H 	0.89602 0.63373 0.13690 0.08100
H 	H 	0.93170 0.56037 0.16815 0.06700
