data_crystal

_cell_length_a 18.45752
_cell_length_b 18.82365
_cell_length_c 26.42940
_cell_angle_alpha 95.42465
_cell_angle_beta  95.42523
_cell_angle_gamma 126.42099

_symmetry_space_group_name_	'P 1'
_symmetry_space_group_name_H-M	'P 1'

loop_
_symmetry_equiv_pos_as_xyz
  x,y,z

loop_
_atom_site_label
_atom_site_type_symbol
_atom_site_fract_x
_atom_site_fract_y
_atom_site_fract_z
_atom_site_charge
C 	C 	0.95446 0.04047 0.00049 0.18900
N 	N 	0.89705 0.95114 0.00108 -0.11100
C 	C 	0.92940 0.90266 0.00064 0.20600
N 	N 	0.01906 0.94330 0.99985 -0.10100
C 	C 	0.07681 0.03242 0.99930 0.18700
N 	N 	0.04448 0.08120 0.99930 -0.11600
C 	C 	0.90242 0.98994 0.44681 0.22000
N 	N 	0.85965 0.90247 0.45170 -0.13000
C 	C 	0.90801 0.86891 0.45352 0.20100
N 	N 	0.99809 0.92263 0.45053 -0.09600
C 	C 	0.04056 0.00950 0.44622 0.19300
N 	N 	0.99288 0.04309 0.44443 -0.12700
Cu	Cu	0.62592 0.21074 0.00904 0.94000
Cu	Cu	0.69956 0.23217 0.89958 0.89400
Cu	Cu	0.65497 0.34825 0.94436 0.91400
Cu	Cu	0.62243 0.36997 0.05098 0.91500
C 	C 	0.65668 0.27098 0.11833 0.29100
O 	O 	0.49217 0.15343 0.01162 -0.31400
C 	C 	0.63858 0.30425 0.83189 0.29800
O 	O 	0.69404 0.34992 0.01507 -0.63500
O 	O 	0.60735 0.22030 0.93598 -0.63400
O 	O 	0.68642 0.15244 0.00085 -0.30400
O 	O 	0.78646 0.25596 0.95654 -0.40500
O 	O 	0.61049 0.30229 0.10750 -0.32900
O 	O 	0.71030 0.47504 0.95438 -0.32500
C 	C 	0.71875 0.52500 0.99659 0.34400
C 	C 	0.45374 0.18992 0.99521 0.32700
O 	O 	0.50557 0.27445 0.99042 -0.35700
O 	O 	0.67230 0.48938 0.03367 -0.33400
O 	O 	0.66407 0.22412 0.08169 -0.27700
C 	C 	0.76468 0.19427 0.98450 0.33200
O 	O 	0.62582 0.34422 0.87009 -0.29900
O 	O 	0.64132 0.23698 0.83756 -0.36800
H 	H 	0.76106 0.39219 0.02807 0.20100
H 	H 	0.54378 0.17731 0.91626 0.20400
Cu	Cu	0.75632 0.33896 0.44533 0.93700
Cu	Cu	0.73514 0.26717 0.55526 0.90400
Cu	Cu	0.61210 0.30357 0.50871 0.91200
Cu	Cu	0.58632 0.33086 0.40125 0.92200
C 	C 	0.69738 0.31005 0.33561 0.28900
O 	O 	0.80811 0.47017 0.44302 -0.29800
C 	C 	0.65753 0.32320 0.62163 0.29600
O 	O 	0.61331 0.26622 0.43833 -0.63600
O 	O 	0.74411 0.35536 0.51807 -0.63400
O 	O 	0.81586 0.27815 0.45349 -0.33200
O 	O 	0.70998 0.18175 0.49840 -0.37300
O 	O 	0.65980 0.34991 0.34616 -0.30600
O 	O 	0.48157 0.24450 0.49818 -0.30300
C 	C 	0.42825 0.22880 0.45480 0.34200
C 	C 	0.76415 0.50231 0.45680 0.32900
O 	O 	0.67838 0.44677 0.46178 -0.36000
O 	O 	0.46161 0.27209 0.41652 -0.35200
O 	O 	0.74537 0.30372 0.37267 -0.30100
C 	C 	0.77341 0.20216 0.47111 0.32500
O 	O 	0.61442 0.33216 0.58278 -0.29700
O 	O 	0.72828 0.32387 0.61655 -0.36400
H 	H 	0.57310 0.20035 0.42587 0.18900
H 	H 	0.78563 0.41792 0.53768 0.19600
C 	C 	0.70707 0.40418 0.71225 0.06000
C 	C 	0.63813 0.33019 0.67400 0.01600
C 	C 	0.55859 0.25651 0.68818 -0.08800
C 	C 	0.55627 0.25241 0.74098 0.06000
C 	C 	0.63026 0.32193 0.77925 0.01500
C 	C 	0.70311 0.40154 0.76506 -0.09100
C 	C 	0.77858 0.48188 0.80607 0.78100
H 	H 	0.76615 0.46171 0.70085 0.09400
H 	H 	0.49919 0.19311 0.75239 0.09600
C 	C 	0.47831 0.18043 0.64715 0.77800
F 	F 	0.83930 0.55514 0.78450 -0.41500
F 	F 	0.82725 0.45964 0.83419 -0.45000
F 	F 	0.74069 0.50722 0.83912 -0.42300
F 	F 	0.50469 0.13571 0.61960 -0.44600
F 	F 	0.44936 0.21460 0.61359 -0.40400
F 	F 	0.40454 0.11887 0.66866 -0.41400
C 	C 	0.75758 0.35246 0.20408 0.05400
C 	C 	0.68222 0.27142 0.17299 0.02100
C 	C 	0.62340 0.19670 0.19618 -0.08100
C 	C 	0.63448 0.20853 0.25053 0.05200
C 	C 	0.70432 0.29240 0.28147 0.01600
C 	C 	0.77074 0.36306 0.25838 -0.07900
C 	C 	0.85193 0.45186 0.29141 0.78000
H 	H 	0.80317 0.40879 0.18595 0.09000
H 	H 	0.58576 0.15403 0.26878 0.08400
C 	C 	0.54689 0.10561 0.16312 0.78100
F 	F 	0.91777 0.50429 0.26272 -0.40800
F 	F 	0.89276 0.43685 0.33121 -0.41500
F 	F 	0.82263 0.49900 0.31210 -0.40900
F 	F 	0.58278 0.07855 0.12954 -0.40100
F 	F 	0.48390 0.11113 0.13491 -0.43100
F 	F 	0.50127 0.04034 0.19289 -0.41600
C 	C 	0.78934 0.70450 0.42054 -0.10000
C 	C 	0.86360 0.77446 0.45851 -0.04800
C 	C 	0.90602 0.75456 0.49559 0.33200
C 	C 	0.87611 0.66612 0.49361 -0.06200
C 	C 	0.80305 0.59659 0.45505 -0.10600
C 	C 	0.75931 0.61605 0.41867 0.37400
F 	F 	0.68819 0.54929 0.38119 -0.41900
H 	H 	0.75695 0.71901 0.39134 0.13400
H 	H 	0.90887 0.65157 0.52254 0.11300
F 	F 	0.97701 0.82120 0.53316 -0.39500
C 	C 	0.83232 0.13588 0.41778 -0.06800
C 	C 	0.80008 0.14196 0.46279 -0.11900
C 	C 	0.79143 0.08881 0.49953 0.36100
C 	C 	0.81718 0.03254 0.49181 -0.12000
C 	C 	0.85331 0.02965 0.44801 -0.06700
C 	C 	0.85865 0.07998 0.41035 0.33200
F 	F 	0.89167 0.07651 0.36716 -0.40100
H 	H 	0.83739 0.17465 0.38863 0.12600
H 	H 	0.81353 0.99481 0.52130 0.13900
F 	F 	0.76182 0.09447 0.54376 -0.43600
C 	C 	0.26994 0.10215 0.41075 -0.05900
C 	C 	0.32915 0.17341 0.45254 -0.11500
C 	C 	0.29300 0.19293 0.49118 0.38100
C 	C 	0.19824 0.14077 0.48817 -0.10300
C 	C 	0.13916 0.06840 0.44690 -0.04300
C 	C 	0.17525 0.04938 0.40807 0.31900
F 	F 	0.11849 0.97984 0.36775 -0.37600
H 	H 	0.29742 0.08721 0.38061 0.10900
H 	H 	0.17071 0.15563 0.51832 0.13300
F 	F 	0.34963 0.26316 0.53117 -0.38500
C 	C 	0.88077 0.77509 0.04488 -0.10100
C 	C 	0.86811 0.80672 0.00157 -0.05000
C 	C 	0.80408 0.74559 0.95714 0.33600
C 	C 	0.75506 0.65333 0.95555 -0.05600
C 	C 	0.76919 0.62169 0.99851 -0.11300
C 	C 	0.83131 0.68292 0.04350 0.37100
F 	F 	0.84579 0.65310 0.08525 -0.41000
H 	H 	0.93050 0.82211 0.07920 0.14300
H 	H 	0.70630 0.60644 0.92093 0.14600
F 	F 	0.79164 0.77572 0.91495 -0.39000
C 	C 	0.86914 0.08873 0.03902 -0.10700
C 	C 	0.91873 0.09246 0.00090 -0.05000
C 	C 	0.92447 0.13700 0.96001 0.32500
C 	C 	0.87671 0.17303 0.95576 -0.06700
C 	C 	0.82292 0.16506 0.99239 -0.12500
C 	C 	0.82188 0.12530 0.03505 0.37000
F 	F 	0.77500 0.12186 0.07256 -0.39100
H 	H 	0.86568 0.05578 0.07118 0.12900
H 	H 	0.87899 0.20437 0.92299 0.10200
F 	F 	0.97252 0.14140 0.92299 -0.40700
C 	C 	0.31259 0.09291 0.03126 -0.07300
C 	C 	0.35506 0.14313 0.99322 -0.11500
C 	C 	0.30597 0.15818 0.95764 0.36000
C 	C 	0.21612 0.12497 0.96095 -0.10300
C 	C 	0.17423 0.07572 0.99939 -0.05500
C 	C 	0.22293 0.05988 0.03460 0.33600
F 	F 	0.18362 0.01333 0.07246 -0.40100
H 	H 	0.35003 0.08184 0.05929 0.15500
H 	H 	0.17846 0.13598 0.93302 0.13900
F 	F 	0.34528 0.20470 0.91977 -0.41500
