data_crystal

_cell_length_a 19.38812
_cell_length_b 16.02339
_cell_length_c 51.34957
_cell_angle_alpha 89.60647
_cell_angle_beta  89.61006
_cell_angle_gamma 119.49465

_symmetry_space_group_name_	'P 1'
_symmetry_space_group_name_H-M	'P 1'

loop_
_symmetry_equiv_pos_as_xyz
  x,y,z

loop_
_atom_site_label
_atom_site_type_symbol
_atom_site_fract_x
_atom_site_fract_y
_atom_site_fract_z
_atom_site_charge
C 	C 	0.65274 0.26199 0.96966 0.35800
C 	C 	0.61008 0.46580 0.97659 0.34000
C 	C 	0.69247 0.30890 0.88813 0.35300
C 	C 	0.61203 0.47782 0.88640 0.33500
Ni	Ni	0.76532 0.47626 0.96556 1.11800
Ni	Ni	0.61200 0.35720 0.92905 1.12300
O 	O 	0.62715 0.31044 0.89424 -0.39700
O 	O 	0.69662 0.34027 0.98292 -0.33000
O 	O 	0.64537 0.26712 0.94462 -0.39000
O 	O 	0.68680 0.50374 0.87964 -0.38300
O 	O 	0.58340 0.44480 0.91003 -0.39600
O 	O 	0.68539 0.50748 0.98335 -0.35900
O 	O 	0.57527 0.38163 0.96450 -0.33700
O 	O 	0.76230 0.38526 0.89127 -0.38900
O 	O 	0.71355 0.46504 0.93383 -0.71400
H 	H 	0.69825 0.51479 0.93597 0.15700
C 	C 	0.62896 0.39168 0.46409 0.35500
C 	C 	0.56281 0.12971 0.48264 0.31500
C 	C 	0.67906 0.47065 0.54746 0.35200
C 	C 	0.59361 0.21961 0.56650 0.35300
Ni	Ni	0.72607 0.29848 0.47953 1.11900
Ni	Ni	0.58640 0.29712 0.51535 1.12600
Ni	Ni	0.75351 0.35539 0.54065 1.12300
O 	O 	0.60813 0.39745 0.54291 -0.38300
O 	O 	0.65687 0.33601 0.45606 -0.33000
O 	O 	0.62396 0.40502 0.48894 -0.37500
O 	O 	0.66718 0.29386 0.56898 -0.39500
O 	O 	0.55605 0.19961 0.54399 -0.39600
O 	O 	0.63646 0.15877 0.47473 -0.35100
O 	O 	0.53826 0.19268 0.48747 -0.32200
O 	O 	0.74199 0.47189 0.53764 -0.39300
O 	O 	0.68301 0.29405 0.51275 -0.71400
H 	H 	0.66402 0.22660 0.51756 0.15900
C 	C 	0.15530 0.14074 0.76328 0.32500
C 	C 	0.17775 0.09429 0.69301 0.35000
Ni	Ni	0.09303 0.94826 0.73444 1.10900
Ni	Ni	0.04731 0.11253 0.71913 1.12100
O 	O 	0.17356 0.08018 0.75129 -0.37400
O 	O 	0.10295 0.16303 0.75342 -0.38900
O 	O 	0.13845 0.00170 0.69769 -0.38400
O 	O 	0.15793 0.15193 0.70497 -0.38700
C 	C 	0.17864 0.35398 0.41839 0.32100
C 	C 	0.40520 0.75433 0.44618 0.35700
C 	C 	0.15256 0.56394 0.44165 0.34700
C 	C 	0.44423 0.54397 0.42613 0.32500
C 	C 	0.28756 0.73564 0.37549 0.35000
C 	C 	0.32879 0.55679 0.34753 0.35200
Ni	Ni	0.29602 0.54243 0.44487 1.12300
Ni	Ni	0.39589 0.66765 0.39452 1.12500
Ni	Ni	0.20862 0.53200 0.39029 1.12300
O 	O 	0.19692 0.40519 0.44017 -0.35400
O 	O 	0.17873 0.39284 0.39538 -0.37700
O 	O 	0.35125 0.72884 0.37023 -0.39500
O 	O 	0.39133 0.67216 0.45649 -0.33000
O 	O 	0.40155 0.76389 0.42094 -0.38100
O 	O 	0.25527 0.53762 0.35391 -0.39000
O 	O 	0.22422 0.60260 0.45101 -0.34900
O 	O 	0.13376 0.50910 0.42102 -0.37800
O 	O 	0.38434 0.57950 0.36538 -0.39900
O 	O 	0.37801 0.49578 0.44013 -0.35800
O 	O 	0.46594 0.63113 0.41640 -0.33300
O 	O 	0.22701 0.66649 0.38821 -0.39900
O 	O 	0.30266 0.56357 0.40884 -0.72100
H 	H 	0.31075 0.51033 0.40324 0.15900
C 	C 	0.47313 0.66716 0.02624 0.33700
C 	C 	0.17504 0.61331 0.07483 0.36700
C 	C 	0.26403 0.49095 0.02244 0.33900
C 	C 	0.37546 0.83226 0.08320 0.32200
C 	C 	0.19215 0.66339 0.98979 0.35600
C 	C 	0.40284 0.89656 0.00417 0.32200
Ni	Ni	0.33851 0.63916 0.06374 1.11500
Ni	Ni	0.26657 0.76852 0.03789 1.12100
Ni	Ni	0.34981 0.68684 0.00021 1.12800
O 	O 	0.44294 0.64293 0.05022 -0.36400
O 	O 	0.46034 0.72611 0.01173 -0.33900
O 	O 	0.21560 0.74367 0.00255 -0.36200
O 	O 	0.23896 0.61770 0.08514 -0.38200
O 	O 	0.17687 0.64152 0.05070 -0.40600
O 	O 	0.38110 0.82271 0.98813 -0.32900
O 	O 	0.26935 0.50504 0.04768 -0.37700
O 	O 	0.32298 0.54878 0.00695 -0.38400
O 	O 	0.35539 0.89268 0.02355 -0.38000
O 	O 	0.39960 0.76779 0.08374 -0.36900
O 	O 	0.30327 0.80838 0.07522 -0.38900
O 	O 	0.24016 0.62889 0.98597 -0.38900
O 	O 	0.33133 0.71034 0.03505 -0.71000
H 	H 	0.38306 0.76778 0.03771 0.14900
C 	C 	0.04482 0.26463 0.17935 0.31800
C 	C 	0.00574 0.24104 0.25669 0.33100
C 	C 	0.06739 0.01216 0.18270 0.36000
C 	C 	0.03520 0.98984 0.25527 0.29600
Ni	Ni	0.07429 0.15511 0.22066 1.11900
O 	O 	0.10858 0.07163 0.20137 -0.39100
O 	O 	0.99232 0.26558 0.19551 -0.35700
O 	O 	0.08718 0.22458 0.18626 -0.38300
O 	O 	0.07277 0.08519 0.25349 -0.38200
O 	O 	0.06587 0.25980 0.24060 -0.38800
C 	C 	0.11888 0.32473 0.10984 0.00900
C 	C 	0.07774 0.36355 0.09651 -0.03000
C 	C 	0.08124 0.37010 0.06925 -0.03800
C 	C 	0.12777 0.34094 0.05515 0.02800
C 	C 	0.16759 0.30067 0.06835 -0.03300
C 	C 	0.16356 0.29314 0.09553 -0.03300
C 	C 	0.13096 0.34746 0.02635 0.01400
C 	C 	0.20122 0.40717 0.01220 -0.15900
C 	C 	0.12075 0.32246 0.13878 0.01300
C 	C 	0.05489 0.30506 0.15439 -0.15700
H 	H 	0.04466 0.39064 0.10711 0.04000
H 	H 	0.04923 0.39985 0.05915 0.05100
H 	H 	0.20228 0.27603 0.05758 0.05900
H 	H 	0.19552 0.26306 0.10551 0.04800
H 	H 	0.07868 0.29795 0.01569 0.04300
H 	H 	0.20191 0.39493 0.99144 0.09700
H 	H 	0.17120 0.32229 0.14787 0.04300
H 	H 	0.00985 0.31994 0.14688 0.07700
C 	C 	0.64752 0.86847 0.13228 0.00200
C 	C 	0.65933 0.89081 0.10556 -0.02800
C 	C 	0.60762 0.91267 0.09214 -0.04200
C 	C 	0.54316 0.91079 0.10523 0.03300
C 	C 	0.52580 0.87641 0.13102 -0.04100
C 	C 	0.57769 0.85481 0.14447 -0.03200
C 	C 	0.50654 0.96488 0.09421 -0.00600
C 	C 	0.42427 0.92525 0.09216 -0.15600
H 	H 	0.71160 0.89804 0.09569 0.05000
H 	H 	0.62051 0.93699 0.07205 0.06000
H 	H 	0.47538 0.87312 0.14121 0.04800
H 	H 	0.54367 0.04180 0.09151 0.05500
H 	H 	0.40055 0.97414 0.09234 0.08400
H 	H 	0.70212 0.82407 0.16327 0.04000
C 	C 	0.10504 0.67003 0.13070 0.00700
C 	C 	0.16769 0.76292 0.13494 -0.03600
C 	C 	0.15207 0.83624 0.14163 -0.03700
C 	C 	0.07356 0.81617 0.14547 0.00900
C 	C 	0.01113 0.72193 0.14274 -0.05600
C 	C 	0.02681 0.64914 0.13533 -0.05500
C 	C 	0.05562 0.89371 0.15109 0.01500
C 	C 	0.10046 0.96538 0.16904 -0.19100
C 	C 	0.12083 0.60235 0.11632 0.03200
C 	C 	0.11427 0.59989 0.09026 -0.20700
H 	H 	0.22828 0.77970 0.13117 0.05100
H 	H 	0.20072 0.90904 0.14277 0.04200
H 	H 	0.95037 0.70560 0.14577 0.05900
H 	H 	0.97807 0.57757 0.13205 0.06200
H 	H 	0.00059 0.88713 0.14384 0.03300
H 	H 	0.15890 0.97810 0.17443 0.08900
H 	H 	0.15762 0.57720 0.12560 0.03600
H 	H 	0.06674 0.60819 0.08172 0.09400
C 	C 	0.46127 0.65733 0.29182 0.00200
C 	C 	0.46623 0.74795 0.29101 -0.03400
C 	C 	0.52275 0.82087 0.27496 -0.03900
C 	C 	0.57443 0.80362 0.25968 0.00900
C 	C 	0.56284 0.71008 0.25814 -0.03900
C 	C 	0.50705 0.63751 0.27437 -0.03500
C 	C 	0.64761 0.88489 0.24885 0.01000
C 	C 	0.42403 0.59333 0.31455 0.03200
C 	C 	0.34970 0.56837 0.32218 -0.19400
H 	H 	0.43059 0.76397 0.30422 0.04600
H 	H 	0.60074 0.69526 0.24567 0.04600
H 	H 	0.50285 0.56753 0.27451 0.04400
H 	H 	0.64364 0.93238 0.23448 0.03700
H 	H 	0.46101 0.57618 0.32682 0.04200
H 	H 	0.30856 0.56857 0.30791 0.09400
C 	C 	0.11787 0.22073 0.37249 0.03100
C 	C 	0.05467 0.23586 0.36596 -0.03900
C 	C 	0.04727 0.26135 0.34044 -0.02900
C 	C 	0.09994 0.26533 0.32081 -0.00500
C 	C 	0.16371 0.25150 0.32754 -0.02600
C 	C 	0.17221 0.22851 0.35320 -0.04400
C 	C 	0.08957 0.28405 0.29309 0.04300
C 	C 	0.01676 0.24904 0.28260 -0.21900
C 	C 	0.12490 0.19161 0.39929 0.01000
C 	C 	0.14831 0.25444 0.42066 -0.14800
H 	H 	0.01251 0.23023 0.38079 0.05300
H 	H 	0.00130 0.27885 0.33608 0.03800
H 	H 	0.20574 0.25644 0.31275 0.04100
H 	H 	0.22075 0.21610 0.35804 0.05300
H 	H 	0.14207 0.31768 0.28059 0.03100
H 	H 	0.96485 0.22081 0.29527 0.11700
H 	H 	0.11023 0.11772 0.40272 0.04000
H 	H 	0.14622 0.22445 0.43988 0.09500
C 	C 	0.13075 0.95796 0.31542 -0.00700
C 	C 	0.12737 0.96985 0.34234 -0.05100
C 	C 	0.15652 0.92702 0.35963 -0.03100
C 	C 	0.19068 0.87357 0.35011 0.01000
C 	C 	0.19619 0.86425 0.32309 -0.03900
C 	C 	0.16704 0.90693 0.30586 -0.03200
C 	C 	0.21218 0.81866 0.36841 0.01900
C 	C 	0.27998 0.81009 0.36412 -0.16700
C 	C 	0.09752 0.00035 0.29722 0.04400
C 	C 	0.04936 0.94634 0.27665 -0.17600
H 	H 	0.10047 0.01023 0.34989 0.05600
H 	H 	0.15165 0.93434 0.38043 0.04800
H 	H 	0.22109 0.82182 0.31545 0.04300
H 	H 	0.17195 0.89954 0.28507 0.04100
H 	H 	0.17335 0.78246 0.38499 0.04700
H 	H 	0.32559 0.85912 0.35059 0.09100
H 	H 	0.11088 0.07394 0.29992 0.03600
H 	H 	0.02666 0.86931 0.27649 0.08500
C 	C 	0.52618 0.95988 0.49027 -0.12200
C 	C 	0.50491 0.02686 0.48107 -0.07200
C 	C 	0.43741 0.99540 0.46558 0.30100
C 	C 	0.39821 0.90102 0.45666 -0.06600
C 	C 	0.42699 0.83812 0.46276 -0.13500
C 	C 	0.48787 0.86598 0.48098 0.35800
F 	F 	0.51446 0.80497 0.48794 -0.42500
H 	H 	0.57654 0.98272 0.50301 0.09500
H 	H 	0.34908 0.87888 0.44341 0.09500
F 	F 	0.41391 0.05808 0.45734 -0.39700
C 	C 	0.08875 0.56155 0.45786 -0.12700
C 	C 	0.08134 0.53425 0.48425 0.34400
F 	F 	0.13839 0.52171 0.49583 -0.44900
C 	C 	0.62662 0.53398 0.44587 -0.08300
C 	C 	0.59772 0.43456 0.44538 -0.11800
C 	C 	0.52612 0.37558 0.43270 0.33900
C 	C 	0.47909 0.41384 0.42384 -0.08700
C 	C 	0.50344 0.51131 0.42744 -0.11600
C 	C 	0.57964 0.57233 0.43708 0.34300
F 	F 	0.60543 0.66728 0.44003 -0.41900
H 	H 	0.68270 0.58055 0.45506 0.11200
H 	H 	0.42140 0.36650 0.41574 0.09600
F 	F 	0.49849 0.27975 0.43121 -0.41200
H 	H 	0.72934 0.05172 0.54947 0.04800
C 	C 	0.50490 0.19095 0.63038 0.00100
C 	C 	0.47748 0.11039 0.64682 -0.03500
C 	C 	0.40509 0.07568 0.66011 -0.03500
C 	C 	0.35940 0.12101 0.65695 0.00300
C 	C 	0.38825 0.20347 0.64104 -0.03400
C 	C 	0.46148 0.23939 0.62835 -0.03500
C 	C 	0.27893 0.07721 0.66872 0.03200
C 	C 	0.24863 0.13422 0.67872 -0.17700
C 	C 	0.56942 0.21325 0.61156 0.03500
C 	C 	0.55118 0.17342 0.58782 -0.19300
H 	H 	0.51051 0.07233 0.64843 0.04500
H 	H 	0.38352 0.01208 0.67231 0.04300
H 	H 	0.35265 0.23734 0.63759 0.04400
H 	H 	0.48207 0.30133 0.61553 0.04500
H 	H 	0.24557 0.99973 0.67122 0.02400
H 	H 	0.28338 0.21178 0.67689 0.08900
H 	H 	0.62764 0.27399 0.61532 0.03400
H 	H 	0.49283 0.11121 0.58512 0.10300
C 	C 	0.78458 0.54361 0.64532 -0.03900
C 	C 	0.75514 0.53483 0.62011 -0.03900
C 	C 	0.68820 0.53304 0.56763 -0.16800
H 	H 	0.75758 0.48272 0.65860 0.04100
H 	H 	0.70781 0.46602 0.61388 0.04400
H 	H 	0.63752 0.51758 0.58001 0.09100
C 	C 	0.00129 0.47928 0.95952 0.28600
C 	C 	0.06993 0.52097 0.97449 -0.06800
C 	C 	0.11734 0.62111 0.97540 -0.14600
C 	C 	0.09673 0.67933 0.96055 0.35400
F 	F 	0.14380 0.77609 0.96028 -0.44200
H 	H 	0.08625 0.47541 0.98546 0.08300
C 	C 	0.48495 0.07444 0.00982 -0.07700
C 	C 	0.47408 0.99015 0.99776 -0.12200
C 	C 	0.53216 0.99586 0.98008 0.32600
C 	C 	0.59570 0.08537 0.97279 -0.06600
C 	C 	0.60267 0.16993 0.98324 -0.13100
C 	C 	0.54905 0.16366 0.00270 0.34200
F 	F 	0.55610 0.24446 0.01356 -0.40900
H 	H 	0.44265 0.07131 0.02422 0.10900
H 	H 	0.63778 0.08929 0.95816 0.10400
F 	F 	0.52717 0.91514 0.96989 -0.42200
C 	C 	0.48040 0.51767 0.01990 -0.08400
C 	C 	0.50955 0.61528 0.01402 -0.12700
C 	C 	0.56446 0.65853 0.99349 0.34000
C 	C 	0.58935 0.60481 0.97900 -0.09000
C 	C 	0.56315 0.50872 0.98560 -0.12300
C 	C 	0.50711 0.46458 0.00574 0.34400
F 	F 	0.48112 0.37152 0.01232 -0.41100
H 	H 	0.43623 0.48261 0.03516 0.09900
H 	H 	0.63315 0.63957 0.96360 0.09000
F 	F 	0.59471 0.75320 0.98786 -0.42100
C 	C 	0.74303 0.16606 0.82785 -0.03700
C 	C 	0.75437 0.21740 0.87406 0.02100
C 	C 	0.68767 0.22923 0.87583 -0.16600
H 	H 	0.75106 0.13221 0.78793 0.04500
H 	H 	0.71513 0.20835 0.82302 0.04700
H 	H 	0.63192 0.17622 0.86747 0.09300
C 	C 	0.31485 0.24494 0.81451 0.00900
C 	C 	0.32080 0.20704 0.83852 -0.03600
C 	C 	0.37313 0.26722 0.85732 -0.03600
C 	C 	0.42143 0.36544 0.85201 0.01200
C 	C 	0.41561 0.40361 0.82798 -0.03800
C 	C 	0.36237 0.34357 0.80929 -0.03700
C 	C 	0.47801 0.42750 0.87175 0.01100
C 	C 	0.55981 0.47138 0.86684 -0.16000
C 	C 	0.26158 0.18044 0.79442 0.01300
C 	C 	0.20215 0.19563 0.78386 -0.16200
H 	H 	0.28469 0.13101 0.84266 0.04600
H 	H 	0.37713 0.23725 0.87585 0.04800
H 	H 	0.45225 0.47950 0.82378 0.04400
H 	H 	0.35877 0.37339 0.79068 0.04400
H 	H 	0.45642 0.42276 0.89160 0.04800
H 	H 	0.58148 0.48759 0.84684 0.08700
H 	H 	0.26622 0.11794 0.78899 0.04000
H 	H 	0.19298 0.25252 0.79156 0.08600
O 	O 	0.99819 0.93530 0.23488 -0.37200
O 	O 	0.99185 0.98420 0.18009 -0.40000
O 	O 	0.96113 0.08084 0.22002 -0.70200
H 	H 	0.52993 0.89227 0.27580 0.04300
C 	C 	0.76418 0.60285 0.57523 0.01300
C 	C 	0.76463 0.12439 0.80792 -0.03100
O 	O 	0.77321 0.24291 0.54055 -0.38300
H 	H 	0.56691 0.83506 0.16492 0.04000
C 	C 	0.71385 0.87810 0.14837 0.02400
F 	F 	0.95597 0.38232 0.95894 -0.41800
Ni	Ni	0.77616 0.51178 0.90262 1.12400
O 	O 	0.80564 0.64417 0.91522 -0.37900
O 	O 	0.00634 0.07281 0.68282 -0.41000
O 	O 	0.93310 0.20800 0.24752 -0.36400
C 	C 	0.83508 0.67642 0.93873 0.32200
C 	C 	0.89852 0.49574 0.93460 0.33700
O 	O 	0.84554 0.62153 0.95627 -0.36700
O 	O 	0.83913 0.43345 0.94873 -0.35000
O 	O 	0.88560 0.54276 0.91588 -0.37000
C 	C 	0.79402 0.21299 0.51931 0.32400
C 	C 	0.86941 0.46798 0.49783 0.34100
O 	O 	0.80461 0.25733 0.49625 -0.36200
O 	O 	0.80829 0.44189 0.48282 -0.34200
O 	O 	0.85953 0.42804 0.52108 -0.37400
C 	C 	0.97386 0.78145 0.70238 0.37100
C 	C 	0.96349 0.83635 0.77365 0.36600
C 	C 	0.93210 0.00913 0.67800 0.37800
C 	C 	0.90173 0.05113 0.75222 0.34700
Ni	Ni	0.90950 0.89478 0.72569 1.12500
O 	O 	0.88272 0.96119 0.69722 -0.40800
O 	O 	0.03281 0.81003 0.71884 -0.39600
O 	O 	0.94186 0.83489 0.69736 -0.40700
O 	O 	0.94603 0.10751 0.73264 -0.38100
O 	O 	0.87228 0.95684 0.75158 -0.40500
O 	O 	0.91457 0.80553 0.75350 -0.39500
O 	O 	0.01649 0.98754 0.73232 -0.72400
H 	H 	0.01133 0.99844 0.75090 0.14300
C 	C 	0.78937 0.95007 0.24132 0.31100
C 	C 	0.83503 0.99412 0.16996 0.34100
Ni	Ni	0.90110 0.13968 0.21166 1.11500
Ni	Ni	0.92073 0.95060 0.21127 1.12000
O 	O 	0.79526 0.02059 0.22569 -0.36000
O 	O 	0.84232 0.92035 0.24077 -0.39000
O 	O 	0.87966 0.08569 0.17428 -0.37600
O 	O 	0.83022 0.93031 0.18723 -0.39000
C 	C 	0.78482 0.96590 0.14858 -0.18700
H 	H 	0.79466 0.01954 0.13375 0.10700
C 	C 	0.72133 0.89755 0.25649 -0.15800
H 	H 	0.72301 0.85180 0.27193 0.08800
C 	C 	0.01259 0.51342 0.49827 -0.11000
C 	C 	0.95000 0.51823 0.48599 -0.10900
C 	C 	0.96180 0.55682 0.46053 0.35000
H 	H 	0.00619 0.48810 0.51823 0.09900
F 	F 	0.90611 0.57266 0.44923 -0.43300
C 	C 	0.91986 0.05088 0.60567 0.00900
C 	C 	0.95168 0.13824 0.59195 -0.00600
C 	C 	0.91422 0.14616 0.56962 -0.04700
C 	C 	0.84463 0.06643 0.56075 0.04000
C 	C 	0.81745 0.97698 0.57308 -0.05800
C 	C 	0.85523 0.96900 0.59532 -0.03800
C 	C 	0.79074 0.08051 0.54329 0.01500
C 	C 	0.81986 0.14633 0.52247 -0.15200
C 	C 	0.95283 0.04673 0.63130 0.03900
C 	C 	0.90258 0.00053 0.65278 -0.16600
H 	H 	0.00311 0.20119 0.59930 0.02800
H 	H 	0.93636 0.21561 0.56025 0.06200
H 	H 	0.76467 0.91460 0.56619 0.05500
H 	H 	0.83279 0.89987 0.60491 0.04100
H 	H 	0.86612 0.14934 0.50979 0.10100
H 	H 	0.01654 0.08838 0.63396 0.03000
H 	H 	0.83910 0.95750 0.64987 0.07900
C 	C 	0.84790 0.63090 0.65350 0.00800
C 	C 	0.78795 0.61416 0.60290 0.00800
C 	C 	0.85145 0.70140 0.61109 -0.03800
C 	C 	0.88125 0.70987 0.63623 -0.03500
C 	C 	0.86859 0.64427 0.68132 0.02200
C 	C 	0.94763 0.69608 0.68904 -0.18300
H 	H 	0.87794 0.76268 0.59793 0.04500
H 	H 	0.92873 0.77852 0.64252 0.05500
H 	H 	0.80985 0.63987 0.56041 0.04900
H 	H 	0.82231 0.63296 0.69528 0.02600
H 	H 	0.98860 0.67054 0.68421 0.09600
C 	C 	0.02800 0.63768 0.94563 -0.12700
C 	C 	0.97880 0.53749 0.94550 -0.08000
H 	H 	0.01152 0.68350 0.93489 0.09800
C 	C 	0.80503 0.07430 0.81378 0.00200
C 	C 	0.76118 0.15730 0.85383 0.01600
C 	C 	0.79819 0.10335 0.85971 -0.03600
C 	C 	0.81958 0.06150 0.83978 -0.02900
C 	C 	0.83049 0.03303 0.79287 0.03500
C 	C 	0.87572 0.08967 0.77166 -0.17400
H 	H 	0.81256 0.09632 0.87968 0.05700
H 	H 	0.84975 0.02176 0.84448 0.04500
H 	H 	0.80393 0.25646 0.88706 0.05900
H 	H 	0.81946 0.95996 0.79523 0.02700
H 	H 	0.89282 0.16523 0.77073 0.09200
C 	C 	0.89705 0.83386 0.89763 0.03500
C 	C 	0.95974 0.81605 0.89227 -0.05100
C 	C 	0.98340 0.81521 0.86653 -0.00100
C 	C 	0.94556 0.83358 0.84586 -0.02000
C 	C 	0.88281 0.85150 0.85125 -0.02100
C 	C 	0.85881 0.85169 0.87702 -0.04900
C 	C 	0.97974 0.84797 0.81919 0.06400
C 	C 	0.93308 0.81452 0.79802 -0.21300
C 	C 	0.87556 0.84186 0.92494 0.01400
C 	C 	0.86437 0.77344 0.94429 -0.14900
H 	H 	0.99111 0.80470 0.90805 0.06700
H 	H 	0.03261 0.80279 0.86267 0.02600
H 	H 	0.85442 0.86841 0.83558 0.03400
H 	H 	0.81131 0.86718 0.88097 0.05000
H 	H 	0.04395 0.88558 0.81704 0.01800
H 	H 	0.86911 0.77270 0.80062 0.09600
H 	H 	0.87845 0.90843 0.93085 0.04400
H 	H 	0.87505 0.79600 0.96444 0.09600
H 	H 	0.95077 0.07262 0.23890 0.16000
H 	H 	0.03697 0.60129 0.42638 0.09100
O 	O 	0.04166 0.88267 0.76988 -0.40100
C 	C 	0.03030 0.57663 0.44642 -0.10400
