data_crystal

_cell_length_a 47.23811
_cell_length_b 43.61439
_cell_length_c 26.93683
_cell_angle_alpha 89.96011
_cell_angle_beta  89.95505
_cell_angle_gamma 90.48397

_symmetry_space_group_name_	'P 1'
_symmetry_space_group_name_H-M	'P 1'

loop_
_symmetry_equiv_pos_as_xyz
  x,y,z

loop_
_atom_site_label
_atom_site_type_symbol
_atom_site_fract_x
_atom_site_fract_y
_atom_site_fract_z
_atom_site_charge
Zn	Zn	0.48311 0.48991 0.00442 1.22200
C 	C 	0.49688 0.55436 0.99545 0.32000
O 	O 	0.50967 0.47590 0.05535 -0.46900
O 	O 	0.47876 0.55826 0.03198 -0.44800
O 	O 	0.51854 0.52165 0.09199 -0.48800
C 	C 	0.42941 0.50960 0.03972 0.32700
O 	O 	0.44533 0.50692 0.00007 -0.45100
O 	O 	0.44113 0.51107 0.08386 -0.50100
C 	C 	0.52763 0.49523 0.07555 0.31900
O 	O 	0.46078 0.44143 0.00540 -0.32400
Zn	Zn	0.47821 0.53026 0.09370 1.17200
O 	O 	0.50402 0.52653 0.98143 -0.43100
C 	C 	0.47381 0.43679 0.96372 0.28000
O 	O 	0.48968 0.45924 0.94831 -0.37700
Zn	Zn	0.43043 0.07182 0.01704 1.22200
C 	C 	0.37774 0.03829 0.03111 0.32100
O 	O 	0.45314 0.06688 0.07796 -0.46000
O 	O 	0.39065 0.01355 0.01538 -0.42800
O 	O 	0.42928 0.02390 0.10157 -0.47100
C 	C 	0.44197 0.02809 0.94043 0.37000
O 	O 	0.42654 0.05189 0.95234 -0.45000
O 	O 	0.45102 0.00942 0.97504 -0.49600
C 	C 	0.44672 0.04649 0.11224 0.35200
O 	O 	0.46756 0.10140 0.98113 -0.32300
Zn	Zn	0.43130 0.00384 0.03757 1.17800
O 	O 	0.39264 0.06258 0.04411 -0.42700
C 	C 	0.45084 0.12445 0.98842 0.28300
O 	O 	0.42677 0.11785 0.00888 -0.38100
C 	C 	0.53925 0.98582 0.33837 0.13300
C 	C 	0.52082 0.00495 0.31201 -0.08900
H 	H 	0.50638 0.01965 0.33203 0.07300
C 	C 	0.52104 0.00494 0.25993 0.02700
C 	C 	0.53971 0.98574 0.23438 -0.06600
C 	C 	0.55813 0.96656 0.26053 0.02600
C 	C 	0.55796 0.96670 0.31259 -0.08900
H 	H 	0.57215 0.95193 0.33304 0.07300
N 	N 	0.53872 0.98553 0.39174 -0.17600
C 	C 	0.52340 0.96325 0.41608 0.19200
C 	C 	0.52262 0.96259 0.46833 -0.05700
C 	C 	0.53747 0.98514 0.49522 0.03300
C 	C 	0.55297 0.00788 0.46980 -0.05600
C 	C 	0.55346 0.00761 0.41752 0.19200
C 	C 	0.50723 0.93977 0.49400 -0.01000
C 	C 	0.50671 0.93949 0.54592 -0.01000
C 	C 	0.52151 0.96207 0.57305 -0.05600
C 	C 	0.53683 0.98495 0.54762 0.03200
C 	C 	0.55152 0.00762 0.57450 -0.05500
C 	C 	0.56770 0.03051 0.49692 -0.00900
C 	C 	0.56695 0.03041 0.54884 -0.01000
C 	C 	0.52128 0.96214 0.62533 0.19200
N 	N 	0.53567 0.98448 0.65110 -0.17700
C 	C 	0.55055 0.00711 0.62675 0.19100
C 	C 	0.53529 0.98409 0.70448 0.14700
C 	C 	0.51208 0.99616 0.73033 -0.09600
C 	C 	0.51189 0.99609 0.78236 0.04200
C 	C 	0.53488 0.98404 0.80846 -0.08300
C 	C 	0.55816 0.97220 0.78284 0.09700
C 	C 	0.55828 0.97200 0.73082 -0.10600
O 	O 	0.56819 0.02860 0.39322 -0.19300
O 	O 	0.50928 0.94244 0.39040 -0.19400
O 	O 	0.50730 0.94056 0.64964 -0.19400
O 	O 	0.56394 0.02849 0.65241 -0.18000
H 	H 	0.57629 0.96294 0.71084 0.08600
H 	H 	0.49436 0.00552 0.70997 0.07600
H 	H 	0.57972 0.04825 0.47796 0.05600
H 	H 	0.57842 0.04806 0.56895 0.05900
H 	H 	0.49568 0.92219 0.47388 0.05500
H 	H 	0.49476 0.92171 0.56489 0.05600
H 	H 	0.53479 0.98415 0.84874 0.06500
H 	H 	0.53981 0.98559 0.19411 0.04300
Zn	Zn	0.64303 0.89669 0.01505 1.22100
C 	C 	0.69670 0.92892 0.02515 0.32100
O 	O 	0.62280 0.90173 0.07868 -0.46000
O 	O 	0.68353 0.95362 0.00996 -0.44200
O 	O 	0.64788 0.94428 0.10000 -0.47400
C 	C 	0.62970 0.94121 0.94047 0.31200
O 	O 	0.64517 0.91709 0.95042 -0.44400
O 	O 	0.62221 0.95992 0.97615 -0.49900
C 	C 	0.63036 0.92207 0.11225 0.35200
O 	O 	0.60328 0.86977 0.98327 -0.32600
Zn	Zn	0.64407 0.96461 0.03655 1.17500
O 	O 	0.68212 0.90425 0.03761 -0.42700
C 	C 	0.61895 0.84560 0.98778 0.28100
O 	O 	0.64408 0.85042 0.00539 -0.38000
Zn	Zn	0.08826 0.59656 0.95942 1.22300
C 	C 	0.05357 0.64966 0.93952 0.32000
O 	O 	0.07851 0.58139 0.02655 -0.44900
O 	O 	0.03345 0.63075 0.92483 -0.44700
O 	O 	0.03640 0.60582 0.02741 -0.48500
C 	C 	0.05625 0.56897 0.88103 0.31200
O 	O 	0.07650 0.58884 0.89086 -0.44100
O 	O 	0.03788 0.56131 0.91543 -0.50400
C 	C 	0.05619 0.59090 0.05106 0.29900
O 	O 	0.11979 0.55503 0.95018 -0.31800
Zn	Zn	0.02434 0.59102 0.96320 1.17300
O 	O 	0.07528 0.63921 0.96484 -0.43100
C 	C 	0.13957 0.57551 0.95656 0.28000
O 	O 	0.13086 0.60327 0.96319 -0.38000
C 	C 	0.98250 0.50550 0.27969 0.14800
C 	C 	0.96114 0.49098 0.25192 -0.09600
H 	H 	0.94460 0.47808 0.27070 0.07500
C 	C 	0.96087 0.49376 0.20011 0.04100
C 	C 	0.98204 0.51088 0.17613 -0.08500
C 	C 	0.00318 0.52572 0.20376 0.09500
C 	C 	0.00359 0.52277 0.25555 -0.10500
H 	H 	0.01978 0.53441 0.27711 0.08700
N 	N 	0.98201 0.50387 0.33294 -0.17700
C 	C 	0.99569 0.48036 0.35655 0.19200
C 	C 	0.99556 0.47850 0.40873 -0.05700
C 	C 	0.98127 0.50093 0.43627 0.03300
C 	C 	0.96730 0.52480 0.41155 -0.05500
C 	C 	0.96791 0.52589 0.35935 0.19200
C 	C 	0.00950 0.45461 0.43369 -0.01000
C 	C 	0.00925 0.45323 0.48557 -0.01000
C 	C 	0.99504 0.47570 0.51334 -0.05600
C 	C 	0.98101 0.49953 0.48861 0.03300
C 	C 	0.96677 0.52200 0.51614 -0.05700
C 	C 	0.95299 0.54720 0.43932 -0.01000
C 	C 	0.95272 0.54581 0.49118 -0.00900
C 	C 	0.99471 0.47483 0.56558 0.19200
N 	N 	0.98089 0.49707 0.59197 -0.17800
C 	C 	0.96691 0.52034 0.56832 0.19300
C 	C 	0.98135 0.49621 0.64527 0.14700
C 	C 	0.95980 0.48075 0.67131 -0.09600
C 	C 	0.95983 0.48061 0.72336 0.04100
C 	C 	0.98140 0.49603 0.74920 -0.08300
C 	C 	0.00314 0.51115 0.72330 0.09700
C 	C 	0.00305 0.51134 0.67130 -0.11000
O 	O 	0.95491 0.54819 0.33568 -0.17900
O 	O 	0.00903 0.45949 0.33025 -0.19500
O 	O 	0.00780 0.45261 0.58927 -0.18500
O 	O 	0.95364 0.54128 0.59461 -0.19500
H 	H 	0.01962 0.52334 0.65110 0.08300
H 	H 	0.94311 0.46901 0.65109 0.07600
H 	H 	0.94207 0.56575 0.42088 0.05900
H 	H 	0.94160 0.56331 0.51180 0.05600
H 	H 	0.02059 0.43710 0.41307 0.05600
H 	H 	0.02014 0.43467 0.50400 0.05700
H 	H 	0.98118 0.49642 0.78947 0.06100
H 	H 	0.98157 0.51342 0.13607 0.05800
Zn	Zn	0.86983 0.41807 0.96863 1.22200
C 	C 	0.81877 0.45407 0.96802 0.32000
O 	O 	0.88746 0.42193 0.90250 -0.45900
O 	O 	0.83470 0.47788 0.97963 -0.42500
O 	O 	0.86633 0.46708 0.88509 -0.47200
C 	C 	0.88940 0.46029 0.04249 0.37300
O 	O 	0.87168 0.43763 0.03374 -0.45100
O 	O 	0.89754 0.47849 0.00634 -0.50400
C 	C 	0.88155 0.44376 0.87063 0.35300
O 	O 	0.90950 0.38979 0.99442 -0.32500
Zn	Zn	0.87397 0.48583 0.94868 1.17800
O 	O 	0.83042 0.42847 0.95249 -0.42400
C 	C 	0.89289 0.36602 0.99141 0.27900
O 	O 	0.86718 0.37160 0.97752 -0.37500
Zn	Zn	0.02603 0.01775 0.07687 1.22200
C 	C 	0.03807 0.95509 0.04976 0.31900
O 	O 	0.99545 0.01412 0.12568 -0.47100
O 	O 	0.05438 0.95428 0.08932 -0.44700
O 	O 	0.00253 0.96487 0.14847 -0.48700
C 	C 	0.08199 0.01747 0.11624 0.32700
O 	O 	0.06705 0.01861 0.07527 -0.45100
O 	O 	0.07034 0.00714 0.15735 -0.50100
C 	C 	0.98514 0.98708 0.13734 0.31800
O 	O 	0.02835 0.07098 0.09174 -0.32100
Zn	Zn	0.04279 0.97347 0.15615 1.17200
O 	O 	0.02089 0.97831 0.04241 -0.43500
C 	C 	0.01564 0.07361 0.04928 0.27600
O 	O 	0.01001 0.04807 0.02667 -0.38100
C 	C 	0.90380 0.33454 0.99615 -0.06400
C 	C 	0.92996 0.32951 0.01937 0.00600
C 	C 	0.94165 0.30022 0.02011 -0.04300
C 	C 	0.92729 0.27552 0.99782 0.01000
C 	C 	0.88897 0.30964 0.97522 0.00800
C 	C 	0.94039 0.24497 0.99651 0.10700
N 	N 	0.92455 0.21938 0.00509 -0.08100
N 	N 	0.93681 0.19200 0.00763 -0.08000
C 	C 	0.96525 0.18944 0.00152 0.10400
N 	N 	0.98095 0.21495 0.99173 -0.07800
N 	N 	0.96871 0.24231 0.98926 -0.07900
C 	C 	0.97925 0.15978 0.00995 0.00500
C 	C 	0.97855 0.10411 0.00601 0.00100
C 	C 	0.00414 0.10314 0.03246 -0.06500
C 	C 	0.01769 0.13063 0.04604 0.00600
C 	C 	0.00534 0.15878 0.03483 -0.04000
C 	C 	0.90067 0.28027 0.97606 -0.04100
C 	C 	0.96611 0.13230 0.99493 -0.03500
H 	H 	0.94139 0.34837 0.03648 0.04600
H 	H 	0.96192 0.29672 0.03794 0.05600
H 	H 	0.88934 0.26138 0.95885 0.05700
H 	H 	0.86872 0.31312 0.95733 0.05100
H 	H 	0.94617 0.13277 0.97511 0.05500
H 	H 	0.96788 0.08305 0.99526 0.04900
H 	H 	0.01571 0.17979 0.04664 0.05600
H 	H 	0.03759 0.13018 0.06600 0.04600
C 	C 	0.89802 0.44598 0.82386 -0.16200
C 	C 	0.88952 0.46573 0.78510 0.22100
C 	C 	0.90937 0.47550 0.74961 -0.13500
C 	C 	0.93722 0.46463 0.75124 0.05400
C 	C 	0.94427 0.44153 0.78511 -0.08800
C 	C 	0.92481 0.43224 0.82124 0.05300
H 	H 	0.90339 0.49227 0.72190 0.09300
H 	H 	0.93127 0.41586 0.84917 0.03500
Cl	Cl	0.85398 0.47701 0.77892 -0.32500
H 	H 	0.96545 0.43218 0.78544 0.06900
C 	C 	0.90179 0.46414 0.09202 -0.16300
C 	C 	0.89633 0.49082 0.11968 0.23000
C 	C 	0.91416 0.49895 0.15908 -0.13400
C 	C 	0.93747 0.48064 0.17088 0.05600
C 	C 	0.94101 0.45245 0.14677 -0.08900
C 	C 	0.92313 0.44416 0.10760 0.06000
H 	H 	0.91095 0.52041 0.17847 0.10100
H 	H 	0.92713 0.42325 0.08714 0.02800
Cl	Cl	0.86796 0.51489 0.10395 -0.34500
H 	H 	0.95872 0.43794 0.15621 0.06000
C 	C 	0.03834 0.92928 0.01470 -0.09000
C 	C 	0.01281 0.91720 0.99626 0.02100
C 	C 	0.01258 0.88924 0.97083 -0.04900
C 	C 	0.03790 0.87317 0.96357 0.01100
C 	C 	0.06385 0.91433 0.00430 0.01400
C 	C 	0.03715 0.84124 0.94543 0.10300
N 	N 	0.01591 0.82203 0.95981 -0.08000
N 	N 	0.01754 0.79206 0.95088 -0.08000
C 	C 	0.04047 0.78039 0.92734 0.10300
N 	N 	0.06114 0.79976 0.91103 -0.08100
N 	N 	0.05950 0.82974 0.91993 -0.08000
C 	C 	0.04431 0.74689 0.92442 0.01200
C 	C 	0.02384 0.69562 0.92239 0.01600
C 	C 	0.05064 0.68297 0.93119 -0.08700
C 	C 	0.07443 0.70241 0.93433 0.01800
C 	C 	0.07128 0.73419 0.93101 -0.04700
C 	C 	0.06366 0.88645 0.97881 -0.04700
C 	C 	0.02071 0.72739 0.91899 -0.04900
H 	H 	0.99300 0.92870 0.00365 0.04000
H 	H 	0.99263 0.87962 0.95823 0.05700
H 	H 	0.08340 0.87451 0.97304 0.05600
H 	H 	0.08376 0.92378 0.01750 0.04000
H 	H 	0.99986 0.73686 0.91303 0.05500
H 	H 	0.00532 0.68093 0.91945 0.03200
H 	H 	0.08969 0.74894 0.93513 0.05700
H 	H 	0.09531 0.69297 0.94010 0.04500
C 	C 	0.02522 0.52792 0.75111 -0.06100
C 	C 	0.04463 0.51172 0.78065 0.16500
C 	C 	0.05799 0.52646 0.82051 -0.06200
C 	C 	0.05235 0.55734 0.83054 -0.05200
C 	C 	0.03644 0.57443 0.79662 -0.01600
C 	C 	0.02287 0.55975 0.75701 -0.01700
H 	H 	0.07111 0.51338 0.84567 0.07800
H 	H 	0.00863 0.57263 0.73355 0.04100
Cl	Cl	0.05081 0.47250 0.77014 -0.32000
H 	H 	0.03253 0.59851 0.80344 0.04000
C 	C 	0.02363 0.54597 0.17827 -0.06200
C 	C 	0.01697 0.57697 0.17003 0.16300
C 	C 	0.03025 0.59313 0.13148 -0.06800
C 	C 	0.05000 0.57842 0.10087 -0.05700
C 	C 	0.05948 0.54904 0.11387 -0.02000
C 	C 	0.04630 0.53289 0.15243 -0.01700
H 	H 	0.02389 0.61642 0.12337 0.08100
H 	H 	0.05214 0.50932 0.15950 0.04100
Cl	Cl	0.99041 0.59500 0.20512 -0.31900
H 	H 	0.07547 0.53779 0.09174 0.04800
C 	C 	0.72763 0.92987 0.03257 -0.08300
C 	C 	0.74022 0.91161 0.06931 0.01800
C 	C 	0.76910 0.91474 0.07967 -0.04500
C 	C 	0.78571 0.93614 0.05342 0.01200
C 	C 	0.74445 0.95049 0.00517 0.01300
C 	C 	0.81573 0.94105 0.06671 0.10400
N 	N 	0.82423 0.93869 0.11473 -0.07900
N 	N 	0.85087 0.94536 0.12729 -0.07900
C 	C 	0.86973 0.95469 0.09222 0.10300
N 	N 	0.86135 0.95654 0.04412 -0.08000
N 	N 	0.83476 0.94978 0.03154 -0.08100
C 	C 	0.89862 0.96410 0.10647 0.01200
C 	C 	0.94193 0.95492 0.15255 0.01800
C 	C 	0.95479 0.98039 0.12952 -0.09200
C 	C 	0.93908 0.99818 0.09606 0.01700
C 	C 	0.91119 0.99004 0.08456 -0.04900
C 	C 	0.77330 0.95366 0.01558 -0.04800
C 	C 	0.91396 0.94685 0.14113 -0.05000
H 	H 	0.72753 0.89557 0.09072 0.05300
H 	H 	0.77849 0.90071 0.10839 0.06000
H 	H 	0.78584 0.97024 0.99499 0.05900
H 	H 	0.73511 0.96440 0.97626 0.04400
H 	H 	0.90443 0.92683 0.15841 0.05600
H 	H 	0.95368 0.94117 0.17881 0.03500
H 	H 	0.89942 0.00381 0.05837 0.05700
H 	H 	0.94868 0.01787 0.07794 0.03900
C 	C 	0.58291 0.96143 0.81095 -0.06000
C 	C 	0.60314 0.98271 0.82839 0.16400
C 	C 	0.62074 0.97493 0.86813 -0.06100
C 	C 	0.61846 0.94590 0.89028 -0.05100
C 	C 	0.60082 0.92354 0.86881 -0.01300
C 	C 	0.58304 0.93131 0.82933 -0.01500
H 	H 	0.63501 0.99200 0.88359 0.07000
H 	H 	0.56793 0.91457 0.81547 0.04300
Cl	Cl	0.60523 0.01990 0.80304 -0.31900
H 	H 	0.59933 0.90084 0.88503 0.04900
C 	C 	0.61419 0.92427 0.15918 -0.16200
C 	C 	0.62547 0.94025 0.20034 0.22300
C 	C 	0.60721 0.95209 0.23645 -0.13700
C 	C 	0.57794 0.94687 0.23290 0.05600
C 	C 	0.56750 0.92666 0.19667 -0.09100
C 	C 	0.58549 0.91550 0.15984 0.05100
H 	H 	0.61564 0.96640 0.26591 0.09300
H 	H 	0.57668 0.90194 0.12983 0.02900
Cl	Cl	0.66231 0.94478 0.20788 -0.32600
H 	H 	0.54505 0.92143 0.19491 0.05600
C 	C 	0.34672 0.03791 0.03858 -0.07800
C 	C 	0.33231 0.06536 0.04815 0.01800
C 	C 	0.30335 0.06484 0.05873 -0.04400
C 	C 	0.28834 0.03691 0.05948 0.01200
C 	C 	0.33157 0.01004 0.03830 0.01800
C 	C 	0.25789 0.03628 0.07209 0.10500
N 	N 	0.24124 0.06057 0.06104 -0.08000
N 	N 	0.21374 0.05990 0.07208 -0.08000
C 	C 	0.20206 0.03489 0.09442 0.10300
N 	N 	0.21876 0.01069 0.10579 -0.08100
N 	N 	0.24628 0.01141 0.09495 -0.08000
C 	C 	0.17123 0.03326 0.10355 0.01300
C 	C 	0.12321 0.04440 0.07735 0.02100
C 	C 	0.11246 0.02520 0.11490 -0.09300
C 	C 	0.13122 0.01133 0.14836 0.01900
C 	C 	0.16044 0.01537 0.14276 -0.05100
C 	C 	0.30256 0.00955 0.04863 -0.04400
C 	C 	0.15241 0.04833 0.07160 -0.05000
H 	H 	0.34358 0.08709 0.04785 0.04900
H 	H 	0.29269 0.08612 0.06707 0.05900
H 	H 	0.29117 0.98789 0.04820 0.05700
H 	H 	0.34228 0.98868 0.03078 0.04300
H 	H 	0.16038 0.06237 0.04140 0.05900
H 	H 	0.10896 0.05575 0.05190 0.04300
H 	H 	0.17469 0.00420 0.16842 0.05500
H 	H 	0.12325 0.99665 0.17775 0.02500
C 	C 	0.45223 0.02435 0.88931 -0.15900
C 	C 	0.44804 0.99629 0.86443 0.22900
C 	C 	0.46577 0.98833 0.82489 -0.13500
C 	C 	0.48758 0.00829 0.80999 0.05600
C 	C 	0.48924 0.03781 0.83047 -0.08600
C 	C 	0.47149 0.04588 0.86986 0.05900
H 	H 	0.46380 0.96586 0.80804 0.09500
H 	H 	0.47438 0.06789 0.88786 0.03300
Cl	Cl	0.42153 0.97034 0.88401 -0.34500
H 	H 	0.50566 0.05364 0.81842 0.06800
C 	C 	0.46366 0.04504 0.15834 -0.16100
C 	C 	0.45293 0.03001 0.20091 0.22400
C 	C 	0.47166 0.01891 0.23686 -0.13600
C 	C 	0.50089 0.02393 0.23170 0.05600
C 	C 	0.51088 0.04324 0.19373 -0.09000
C 	C 	0.49240 0.05360 0.15702 0.05100
H 	H 	0.46361 0.00528 0.26750 0.09400
H 	H 	0.50081 0.06638 0.12575 0.02800
Cl	Cl	0.41621 0.02566 0.21028 -0.32300
H 	H 	0.53330 0.04835 0.19065 0.05600
C 	C 	0.47515 0.40605 0.94167 -0.06800
C 	C 	0.50146 0.39234 0.93290 0.01000
C 	C 	0.50289 0.36102 0.92196 -0.04200
C 	C 	0.47798 0.34328 0.91918 0.01000
C 	C 	0.45023 0.38872 0.93605 0.01000
C 	C 	0.47952 0.30960 0.91590 0.10500
N 	N 	0.49773 0.29402 0.94544 -0.07900
N 	N 	0.49551 0.26366 0.94996 -0.07900
C 	C 	0.47504 0.24799 0.92502 0.10500
N 	N 	0.45780 0.26339 0.89350 -0.08000
N 	N 	0.45997 0.29374 0.88907 -0.08000
C 	C 	0.46903 0.21558 0.93727 0.00900
C 	C 	0.48538 0.16540 0.96353 0.00900
C 	C 	0.45721 0.15538 0.96899 -0.06800
C 	C 	0.43504 0.17533 0.95719 0.01000
C 	C 	0.44090 0.20521 0.94135 -0.04200
C 	C 	0.45161 0.35753 0.92459 -0.04200
C 	C 	0.49126 0.19541 0.94788 -0.04200
H 	H 	0.52085 0.40555 0.93698 0.04500
H 	H 	0.52335 0.35039 0.91709 0.05600
H 	H 	0.43223 0.34416 0.92229 0.05700
H 	H 	0.42981 0.39916 0.94235 0.04200
H 	H 	0.51306 0.20303 0.94443 0.05600
H 	H 	0.50269 0.15020 0.97233 0.04600
H 	H 	0.42354 0.22054 0.93350 0.05700
H 	H 	0.41321 0.16777 0.96060 0.05000
C 	C 	0.39848 0.51232 0.03448 -0.09500
C 	C 	0.38326 0.53155 0.06638 0.02000
C 	C 	0.35426 0.53589 0.05919 -0.05200
C 	C 	0.34010 0.52086 0.02015 0.01100
C 	C 	0.38428 0.49679 0.99613 0.02400
C 	C 	0.30972 0.52667 0.01098 0.10100
N 	N 	0.29267 0.53608 0.04853 -0.08100
N 	N 	0.26571 0.54299 0.03972 -0.08200
C 	C 	0.25495 0.54050 0.99317 0.10600
N 	N 	0.27183 0.53060 0.95575 -0.07900
N 	N 	0.29884 0.52387 0.96449 -0.07900
C 	C 	0.22558 0.54969 0.98299 0.01200
C 	C 	0.18699 0.58542 0.99441 0.01500
C 	C 	0.16935 0.56695 0.96471 -0.06800
C 	C 	0.18009 0.53995 0.94379 0.01000
C 	C 	0.20811 0.53142 0.95273 -0.04300
C 	C 	0.35523 0.50094 0.98909 -0.04800
C 	C 	0.21491 0.57677 0.00364 -0.04800
H 	H 	0.39400 0.54376 0.09598 0.02400
H 	H 	0.34297 0.55144 0.08332 0.05500
H 	H 	0.34454 0.48872 0.95945 0.05800
H 	H 	0.39573 0.48154 0.97170 0.04200
H 	H 	0.22828 0.59120 0.02666 0.05600
H 	H 	0.17897 0.60627 0.01091 0.04600
H 	H 	0.21612 0.51044 0.93665 0.05700
H 	H 	0.16676 0.52560 0.92056 0.04900
C 	C 	0.55830 0.48968 0.07139 -0.09400
C 	C 	0.57707 0.51436 0.06348 0.01700
C 	C 	0.60547 0.50893 0.05229 -0.05000
C 	C 	0.61548 0.47878 0.04907 0.01300
C 	C 	0.56856 0.45955 0.07006 0.01600
C 	C 	0.64480 0.47307 0.03300 0.10200
N 	N 	0.65646 0.48994 0.99576 -0.07800
N 	N 	0.68321 0.48547 0.98209 -0.07800
C 	C 	0.69913 0.46402 0.00533 0.10200
N 	N 	0.68734 0.44683 0.04215 -0.07900
N 	N 	0.66053 0.45123 0.05568 -0.07900
C 	C 	0.72947 0.46096 0.99305 0.01500
C 	C 	0.77425 0.48431 0.96880 0.02100
C 	C 	0.78778 0.45594 0.97387 -0.07700
C 	C 	0.77186 0.42989 0.98731 0.01900
C 	C 	0.74284 0.43238 0.99690 -0.04200
C 	C 	0.59703 0.45413 0.05907 -0.04900
C 	C 	0.74531 0.48682 0.97841 -0.04500
H 	H 	0.56946 0.53772 0.06424 0.03700
H 	H 	0.61961 0.52816 0.04541 0.05500
H 	H 	0.60452 0.43076 0.05689 0.05600
H 	H 	0.55436 0.44031 0.07650 0.04100
H 	H 	0.73533 0.50901 0.97537 0.06000
H 	H 	0.78623 0.50451 0.95788 0.04000
H 	H 	0.73081 0.41215 0.00748 0.05700
H 	H 	0.78203 0.40786 0.99139 0.04700
C 	C 	0.51079 0.58130 0.97299 -0.08800
C 	C 	0.49524 0.60808 0.96468 0.01600
C 	C 	0.50917 0.63557 0.95318 -0.04900
C 	C 	0.53885 0.63659 0.95006 0.01100
C 	C 	0.54028 0.58181 0.96645 0.01500
C 	C 	0.55377 0.66639 0.94633 0.10300
N 	N 	0.54217 0.68982 0.92030 -0.08000
N 	N 	0.55362 0.71783 0.92227 -0.08100
C 	C 	0.57697 0.72325 0.95043 0.10400
N 	N 	0.58903 0.69964 0.97530 -0.08000
N 	N 	0.57760 0.67163 0.97329 -0.08100
C 	C 	0.58797 0.75484 0.95672 0.00800
C 	C 	0.57947 0.80941 0.96635 0.00700
C 	C 	0.60839 0.81449 0.97567 -0.06800
C 	C 	0.62713 0.78966 0.97425 0.00800
C 	C 	0.61699 0.76003 0.96479 -0.04200
C 	C 	0.55426 0.60935 0.95515 -0.04800
C 	C 	0.56931 0.77977 0.95700 -0.04300
H 	H 	0.47242 0.60784 0.96894 0.04000
H 	H 	0.49697 0.65633 0.94893 0.05600
H 	H 	0.57712 0.60968 0.95179 0.05600
H 	H 	0.55250 0.56123 0.97249 0.04000
H 	H 	0.54685 0.77611 0.95110 0.05500
H 	H 	0.56475 0.82832 0.96715 0.04600
H 	H 	0.63168 0.74110 0.96391 0.05700
H 	H 	0.64955 0.79326 0.98062 0.05100
