data_crystal

_cell_length_a 20.32646
_cell_length_b 21.43535
_cell_length_c 39.48718
_cell_angle_alpha 60.81316
_cell_angle_beta  118.92307
_cell_angle_gamma 133.31895

_symmetry_space_group_name_	'P 1'
_symmetry_space_group_name_H-M	'P 1'

loop_
_symmetry_equiv_pos_as_xyz
  x,y,z

loop_
_atom_site_label
_atom_site_type_symbol
_atom_site_fract_x
_atom_site_fract_y
_atom_site_fract_z
_atom_site_charge
Co	Co	0.05484 0.00449 0.04426 1.16200
Co	Co	0.07898 0.86294 0.05068 1.19000
O 	O 	0.05726 0.10791 0.03587 -0.39400
C 	C 	0.09032 0.21839 0.11441 0.30500
C 	C 	0.13132 0.80888 0.13755 0.29700
O 	O 	0.16700 0.86384 0.10627 -0.30000
O 	O 	0.08457 0.81750 0.14759 -0.27200
O 	O 	0.00517 0.18614 0.11042 -0.35800
O 	O 	0.10657 0.17862 0.10536 -0.31800
O 	O 	0.03092 0.90229 0.06763 -0.70900
Co	Co	0.01123 0.08710 0.58227 1.19800
Co	Co	0.07477 0.04124 0.53866 1.17400
Co	Co	0.13230 0.93288 0.53791 1.19400
O 	O 	0.05889 0.12907 0.53490 -0.40300
C 	C 	0.09088 0.19785 0.63892 0.30200
O 	O 	0.00845 0.92495 0.70113 -0.28800
O 	O 	0.15578 0.87343 0.63754 -0.26400
O 	O 	0.03932 0.12623 0.66394 -0.32300
O 	O 	0.10201 0.19329 0.60945 -0.33200
O 	O 	0.08042 0.95405 0.56258 -0.71900
C 	C 	0.07316 0.99683 0.81320 0.16300
C 	C 	0.14826 0.07140 0.82911 -0.09600
C 	C 	0.14605 0.07963 0.86177 0.03000
C 	C 	0.06817 0.01396 0.87873 -0.01300
C 	C 	0.06657 0.02036 0.91243 -0.03600
C 	C 	0.07252 0.99025 0.77896 0.06500
H 	H 	0.12742 0.07447 0.92644 0.08600
H 	H 	0.12971 0.04377 0.76435 0.07500
C 	C 	0.07986 0.05177 0.30385 -0.01500
C 	C 	0.14427 0.12882 0.31801 0.01100
C 	C 	0.13394 0.13195 0.34974 -0.03200
C 	C 	0.06002 0.05752 0.36836 0.05100
C 	C 	0.05287 0.05838 0.40206 -0.06500
C 	C 	0.08754 0.04992 0.27070 -0.05800
H 	H 	0.10466 0.11683 0.41367 0.12500
H 	H 	0.14342 0.10866 0.25594 0.09500
F 	F 	0.15476 0.39383 0.20586 -0.39000
C 	C 	0.15068 0.74187 0.16303 0.03200
C 	C 	0.08656 0.65633 0.15588 -0.06900
C 	C 	0.11995 0.61967 0.15288 0.04500
H 	H 	0.07144 0.56023 0.14213 0.13400
O 	O 	0.04568 0.99407 0.59854 -0.50900
H 	H 	0.11159 0.33982 0.57981 0.09500
F 	F 	0.08599 0.33783 0.02769 -0.41400
Co	Co	0.04173 0.88121 0.60450 1.21300
F 	F 	0.11480 0.52535 0.57477 -0.36300
F 	F 	0.11527 0.46847 0.54007 -0.36800
C 	C 	0.13338 0.34993 0.60881 0.07200
C 	C 	0.15935 0.49819 0.57424 0.79600
F 	F 	0.15012 0.74644 0.70539 -0.36500
O 	O 	0.06394 0.79966 0.56682 -0.33600
C 	C 	0.13542 0.28504 0.64328 0.00600
F 	F 	0.10052 0.16921 0.73302 -0.45800
C 	C 	0.15698 0.42654 0.61158 -0.10600
O 	O 	0.18134 0.99234 0.02812 -0.30800
O 	O 	0.00192 0.01097 0.48131 -0.37700
C 	C 	0.17341 0.36817 0.68314 0.03500
C 	C 	0.16233 0.29773 0.68122 -0.07000
C 	C 	0.16410 0.30736 0.12166 0.01400
C 	C 	0.00490 0.97719 0.32193 0.12200
C 	C 	0.00514 0.96746 0.46699 0.35800
O 	O 	0.01839 0.90598 0.49091 -0.35600
F 	F 	0.04142 0.64328 0.64296 -0.40100
H 	H 	0.18216 0.26114 0.18531 0.08200
C 	C 	0.17676 0.38045 0.08899 -0.06600
C 	C 	0.17644 0.38453 0.04954 0.78000
C 	C 	0.01823 0.97564 0.25406 0.05400
O 	O 	0.01231 0.06153 0.18616 -0.40900
C 	C 	0.18146 0.23836 0.71972 0.77600
H 	H 	0.18822 0.37511 0.71191 0.11600
C 	C 	0.18395 0.43833 0.64963 0.07200
O 	O 	0.19570 0.06416 0.06168 -0.34000
C 	C 	0.00417 0.98898 0.21084 0.36200
H 	H 	0.18392 0.19218 0.35992 0.13500
O 	O 	0.01276 0.99764 0.98420 -0.29000
C 	C 	0.18649 0.31516 0.15973 0.07500
C 	C 	0.18315 0.44685 0.09244 0.05300
H 	H 	0.18345 0.49856 0.06627 0.14100
C 	C 	0.00033 0.94015 0.97257 0.32300
C 	C 	0.19924 0.45258 0.13004 0.09500
C 	C 	0.20161 0.38601 0.16427 -0.10000
H 	H 	0.20224 0.18662 0.30437 0.11400
O 	O 	0.99720 0.93582 0.19855 -0.34100
Co	Co	0.99740 0.07714 0.07591 1.18300
O 	O 	0.20360 0.06323 0.50531 -0.39800
H 	H 	0.20486 0.13721 0.87370 0.11500
H 	H 	0.20833 0.12328 0.81618 0.14500
F 	F 	0.97199 0.34407 0.09609 -0.43800
C 	C 	0.99498 0.98002 0.35430 -0.00500
C 	C 	0.99407 0.91817 0.76159 -0.03100
C 	C 	0.98457 0.98092 0.42317 0.01300
C 	C 	0.24232 0.79079 0.70725 0.78000
F 	F 	0.27919 0.75320 0.74335 -0.37000
H 	H 	0.25152 0.67019 0.70656 0.13000
F 	F 	0.29171 0.87823 0.70655 -0.37600
C 	C 	0.99591 0.92982 0.83062 -0.05000
C 	C 	0.22027 0.90093 0.62230 0.31600
C 	C 	0.24884 0.78435 0.67251 -0.03400
C 	C 	0.98817 0.59668 0.16024 0.77800
C 	C 	0.99239 0.93939 0.86276 0.09000
O 	O 	0.23713 0.96241 0.58883 -0.33900
C 	C 	0.97034 0.93144 0.71757 0.29300
O 	O 	0.21517 0.13094 0.53978 -0.34500
F 	F 	0.24828 0.28492 0.74891 -0.41100
C 	C 	0.25005 0.84425 0.63447 0.02200
C 	C 	0.21967 0.39012 0.20546 0.79000
F 	F 	0.21344 0.31671 0.23455 -0.42800
C 	C 	0.71101 0.29678 0.01175 0.17500
N 	N 	0.61778 0.24060 0.00905 -0.11700
C 	C 	0.57217 0.27076 0.00420 0.18400
N 	N 	0.61938 0.35711 0.00116 -0.09400
C 	C 	0.71306 0.41097 0.00865 0.19100
N 	N 	0.75917 0.38216 0.01225 -0.06200
C 	C 	0.73640 0.30756 0.51510 0.18200
N 	N 	0.64524 0.26698 0.51128 -0.10000
C 	C 	0.62097 0.30427 0.51824 0.18300
N 	N 	0.68642 0.38441 0.52652 -0.09500
C 	C 	0.77690 0.42650 0.52973 0.18700
N 	N 	0.80287 0.38695 0.52541 -0.07000
C 	C 	0.25444 0.63919 0.15042 0.18400
N 	N 	0.33810 0.70542 0.14060 -0.08300
C 	C 	0.37684 0.68903 0.12905 0.19400
N 	N 	0.32992 0.60757 0.12517 -0.09400
C 	C 	0.24610 0.54090 0.13413 0.18700
N 	N 	0.20723 0.55617 0.14676 -0.07700
C 	C 	0.30077 0.66080 0.65811 0.18400
N 	N 	0.23248 0.57594 0.65430 -0.08300
C 	C 	0.25541 0.52748 0.65628 0.18400
N 	N 	0.34540 0.56303 0.66254 -0.10000
C 	C 	0.41278 0.64811 0.66455 0.19800
N 	N 	0.39085 0.69652 0.66326 -0.07200
Co	Co	0.98035 0.83653 0.10695 1.19700
Co	Co	0.92948 0.91193 0.14026 1.21000
C 	C 	0.89535 0.70035 0.06644 0.31800
Co	Co	0.91100 0.05658 0.13516 1.16300
C 	C 	0.23354 0.05437 0.04704 0.24300
O 	O 	0.94543 0.01058 0.11462 -0.79000
O 	O 	0.92646 0.80836 0.14863 -0.37600
O 	O 	0.96383 0.94613 0.08399 -0.52900
C 	C 	0.75776 0.86408 0.14607 0.32000
O 	O 	0.81502 0.92998 0.16298 -0.32200
O 	O 	0.78909 0.84437 0.13320 -0.32000
O 	O 	0.98572 0.86523 0.99733 -0.38800
C 	C 	0.84830 0.10809 0.04821 0.30800
O 	O 	0.81705 0.05063 0.08064 -0.36300
O 	O 	0.90458 0.11249 0.03737 -0.30300
O 	O 	0.98145 0.73139 0.07277 -0.36400
O 	O 	0.87589 0.72952 0.08064 -0.28700
Co	Co	0.95415 0.91461 0.64145 1.20400
C 	C 	0.97665 0.74957 0.56783 0.28900
Co	Co	0.90436 0.02906 0.64333 1.15900
C 	C 	0.25257 0.12879 0.52131 0.32400
O 	O 	0.89953 0.93476 0.69618 -0.35700
O 	O 	0.96450 0.01060 0.62170 -0.79900
O 	O 	0.97761 0.83072 0.64734 -0.38300
C 	C 	0.75775 0.84891 0.63078 0.29400
O 	O 	0.77755 0.92830 0.61887 -0.27000
O 	O 	0.80887 0.83572 0.62706 -0.30400
C 	C 	0.87132 0.12005 0.55733 0.31500
O 	O 	0.90079 0.12670 0.59373 -0.38700
O 	O 	0.89353 0.08623 0.54783 -0.34900
O 	O 	0.94675 0.77688 0.57705 -0.32200
C 	C 	0.84488 0.78698 0.83332 -0.01600
C 	C 	0.83994 0.79780 0.86413 0.02900
C 	C 	0.91352 0.87373 0.87909 0.03200
C 	C 	0.92159 0.85364 0.81574 0.08500
C 	C 	0.98897 0.95304 0.92981 -0.00500
C 	C 	0.91075 0.88256 0.91146 0.01000
C 	C 	0.92253 0.84686 0.78216 -0.01300
H 	H 	0.78872 0.72681 0.82306 0.13800
H 	H 	0.77955 0.74616 0.87686 0.11600
H 	H 	0.85075 0.83076 0.92450 0.08900
H 	H 	0.86316 0.79000 0.76969 0.09500
C 	C 	0.86481 0.82588 0.32591 0.02200
C 	C 	0.85562 0.82839 0.35825 -0.01200
C 	C 	0.92090 0.90503 0.37283 0.07800
C 	C 	0.93935 0.90001 0.30758 0.03000
C 	C 	0.91525 0.90608 0.40687 -0.01500
C 	C 	0.94712 0.89906 0.27404 -0.02000
H 	H 	0.81358 0.76633 0.31508 0.13000
H 	H 	0.79782 0.77049 0.37199 0.13200
H 	H 	0.86158 0.84642 0.42259 0.10000
H 	H 	0.89505 0.84091 0.26219 0.12800
F 	F 	0.21430 0.20546 0.71435 -0.43100
F 	F 	0.25060 0.56943 0.57254 -0.37700
C 	C 	0.66778 0.75877 0.68150 0.07300
C 	C 	0.67094 0.77325 0.64347 0.01300
C 	C 	0.58733 0.73387 0.61484 -0.04500
C 	C 	0.50440 0.69865 0.62134 0.04400
C 	C 	0.50247 0.69233 0.65796 0.08700
C 	C 	0.58373 0.71837 0.68915 -0.10200
C 	C 	0.58168 0.70671 0.72984 0.79100
H 	H 	0.73199 0.78496 0.70409 0.07800
H 	H 	0.44097 0.67570 0.59804 0.16000
C 	C 	0.58710 0.73262 0.57674 0.77800
F 	F 	0.66625 0.73005 0.75693 -0.43400
F 	F 	0.51463 0.61924 0.74481 -0.39900
F 	F 	0.56123 0.75944 0.72647 -0.39500
F 	F 	0.64316 0.70926 0.58516 -0.39700
F 	F 	0.62017 0.81546 0.55083 -0.35300
F 	F 	0.49840 0.67202 0.55804 -0.36900
C 	C 	0.25700 0.71919 0.67835 0.05500
C 	C 	0.27624 0.71925 0.64859 0.08500
C 	C 	0.28386 0.78303 0.61170 -0.09000
C 	C 	0.27443 0.84674 0.60576 0.08300
H 	H 	0.28367 0.89742 0.57805 0.08600
C 	C 	0.30748 0.78686 0.57926 0.78700
F 	F 	0.25535 0.70320 0.57442 -0.36300
F 	F 	0.40098 0.82347 0.58943 -0.37500
F 	F 	0.28884 0.83785 0.54279 -0.38500
F 	F 	0.30794 0.46452 0.21514 -0.39200
F 	F 	0.21878 0.34846 0.05593 -0.39800
F 	F 	0.22469 0.47119 0.02757 -0.36800
C 	C 	0.53713 0.75753 0.16875 0.04400
C 	C 	0.47642 0.75050 0.13096 0.08200
C 	C 	0.50885 0.78056 0.09772 -0.09200
C 	C 	0.59914 0.80923 0.10383 0.08000
C 	C 	0.65789 0.81135 0.14217 0.00900
C 	C 	0.62415 0.77927 0.17533 -0.05700
C 	C 	0.68061 0.76841 0.21773 0.77400
H 	H 	0.51263 0.73709 0.19384 0.15500
H 	H 	0.62499 0.83268 0.07862 0.12200
C 	C 	0.44531 0.77675 0.05616 0.78700
F 	F 	0.62330 0.70420 0.24418 -0.38800
F 	F 	0.74131 0.84756 0.22858 -0.42800
F 	F 	0.73033 0.74268 0.22091 -0.42600
F 	F 	0.39121 0.80028 0.05024 -0.38700
F 	F 	0.38798 0.69187 0.05150 -0.38500
F 	F 	0.49586 0.83411 0.02713 -0.34800
C 	C 	0.24375 0.77242 0.18128 0.08600
C 	C 	0.21550 0.65841 0.16496 0.08300
C 	C 	0.27517 0.72713 0.18503 -0.08600
C 	C 	0.37104 0.75212 0.21057 0.78800
H 	H 	0.29295 0.83431 0.19013 0.14000
F 	F 	0.39243 0.77763 0.24272 -0.36800
F 	F 	0.43664 0.82209 0.18818 -0.38800
F 	F 	0.37537 0.68137 0.22548 -0.38700
F 	F 	0.92777 0.55343 0.12979 -0.41000
F 	F 	0.96245 0.64271 0.15941 -0.41400
F 	F 	0.98077 0.53432 0.19630 -0.37500
C 	C 	0.70263 0.16646 0.52054 0.02100
C 	C 	0.76292 0.25947 0.51272 0.08000
C 	C 	0.84752 0.30422 0.50333 -0.10500
C 	C 	0.88090 0.25576 0.51320 0.08000
C 	C 	0.82504 0.16290 0.52657 -0.01200
C 	C 	0.73073 0.11886 0.52382 -0.04500
C 	C 	0.66193 0.02003 0.52845 0.64500
H 	H 	0.63448 0.13085 0.52467 0.12500
H 	H 	0.95195 0.29056 0.51279 0.09400
C 	C 	0.89757 0.39996 0.47986 0.79300
F 	F 	0.57443 0.99797 0.50535 -0.30900
F 	F 	0.65726 0.97789 0.56795 -0.34500
F 	F 	0.68812 0.99075 0.51621 -0.31700
F 	F 	0.95417 0.45525 0.50528 -0.36200
F 	F 	0.83409 0.41728 0.45134 -0.37200
F 	F 	0.95228 0.41857 0.46026 -0.37300
C 	C 	0.87975 0.65919 0.51904 0.07200
C 	C 	0.91365 0.66212 0.55912 0.01400
C 	C 	0.91126 0.58911 0.58941 -0.06700
C 	C 	0.88103 0.51760 0.57873 0.04000
C 	C 	0.84590 0.51429 0.53864 0.08700
C 	C 	0.85132 0.58857 0.50844 -0.10100
C 	C 	0.82128 0.59035 0.46476 0.78900
H 	H 	0.88076 0.71473 0.49594 0.08300
H 	H 	0.87906 0.46157 0.60175 0.12200
C 	C 	0.94537 0.58929 0.63306 0.76800
F 	F 	0.85994 0.67609 0.44127 -0.42900
F 	F 	0.72545 0.54247 0.45236 -0.40500
F 	F 	0.84984 0.55396 0.45909 -0.36600
F 	F 	0.91465 0.50514 0.65758 -0.39300
F 	F 	0.91301 0.62027 0.64020 -0.40100
C 	C 	0.41060 0.17031 0.55774 0.06600
C 	C 	0.35309 0.19121 0.52428 -0.00500
C 	C 	0.38759 0.25511 0.48999 -0.06900
C 	C 	0.47081 0.28326 0.48688 0.03700
C 	C 	0.52492 0.25638 0.51913 0.06600
C 	C 	0.49498 0.19954 0.55514 -0.10900
C 	C 	0.55283 0.17005 0.59065 0.78500
H 	H 	0.38669 0.12674 0.58502 0.08600
H 	H 	0.49536 0.32881 0.45978 0.12400
C 	C 	0.33395 0.29020 0.45571 0.78200
F 	F 	0.50809 0.10888 0.62162 -0.41800
F 	F 	0.63672 0.24231 0.60469 -0.41200
F 	F 	0.56964 0.13119 0.57931 -0.42700
F 	F 	0.28132 0.28923 0.46892 -0.40700
F 	F 	0.27607 0.23867 0.42858 -0.44300
F 	F 	0.39429 0.37661 0.43667 -0.38300
C 	C 	0.71052 0.20143 0.99237 0.04600
C 	C 	0.75884 0.26402 0.01402 0.06700
C 	C 	0.84743 0.28723 0.04008 -0.10000
C 	C 	0.88571 0.25005 0.04198 0.06500
C 	C 	0.82993 0.17599 0.02680 0.01100
C 	C 	0.74485 0.15627 0.99896 -0.06400
C 	C 	0.68895 0.08491 0.97755 0.78500
H 	H 	0.64424 0.18527 0.97166 0.11800
H 	H 	0.95722 0.27556 0.05728 0.10300
C 	C 	0.90002 0.34809 0.06700 0.78300
F 	F 	0.64625 0.00289 0.00359 -0.41200
F 	F 	0.74691 0.09360 0.96407 -0.40100
F 	F 	0.62130 0.08999 0.94494 -0.39200
F 	F 	0.84156 0.32370 0.08647 -0.41800
F 	F 	0.93779 0.43453 0.04458 -0.39700
C 	C 	0.83469 0.64487 0.00862 0.04400
C 	C 	0.82141 0.63089 0.04415 0.02200
C 	C 	0.76131 0.54358 0.06423 -0.04900
C 	C 	0.74065 0.47379 0.05635 0.05900
C 	C 	0.76259 0.48832 0.02320 0.07200
C 	C 	0.80949 0.57488 0.99879 -0.07500
C 	C 	0.83174 0.59257 0.96213 0.77900
H 	H 	0.87147 0.71135 0.99046 0.08600
H 	H 	0.70166 0.40697 0.07425 0.12100
C 	C 	0.71556 0.52424 0.09239 0.78300
F 	F 	0.88681 0.68215 0.94492 -0.43900
F 	F 	0.75006 0.55267 0.93405 -0.39800
F 	F 	0.87934 0.55887 0.97252 -0.38300
F 	F 	0.69241 0.58171 0.07795 -0.39200
F 	F 	0.77536 0.53366 0.12963 -0.35400
F 	F 	0.63461 0.43890 0.09622 -0.38700
C 	C 	0.47335 0.15339 0.05201 0.04100
C 	C 	0.48077 0.20840 0.01337 0.04600
C 	C 	0.41009 0.22072 0.98847 -0.08400
C 	C 	0.33893 0.18528 0.00432 0.04100
C 	C 	0.32824 0.12564 0.04183 0.02700
C 	C 	0.40033 0.11577 0.06727 -0.08000
C 	C 	0.39695 0.06012 0.10984 0.73700
H 	H 	0.52760 0.14402 0.07106 0.10400
H 	H 	0.28574 0.19628 0.98577 0.09900
C 	C 	0.41161 0.27363 0.94537 0.78200
F 	F 	0.48590 0.09547 0.13417 -0.39400
F 	F 	0.35764 0.97531 0.11092 -0.37500
F 	F 	0.34572 0.05691 0.12505 -0.42500
F 	F 	0.44629 0.26057 0.92860 -0.40600
F 	F 	0.46668 0.36256 0.94366 -0.38400
F 	F 	0.32288 0.24818 0.92270 -0.42600
