data_crystal

_cell_length_a 24.73410
_cell_length_b 21.99803
_cell_length_c 31.60083
_cell_angle_alpha 104.02380
_cell_angle_beta  115.93994
_cell_angle_gamma 111.52194

_symmetry_space_group_name_	'P 1'
_symmetry_space_group_name_H-M	'P 1'

loop_
_symmetry_equiv_pos_as_xyz
  x,y,z

loop_
_atom_site_label
_atom_site_type_symbol
_atom_site_fract_x
_atom_site_fract_y
_atom_site_fract_z
_atom_site_charge
C 	C 	0.74213 0.47270 0.02720 -0.07200
C 	C 	0.67957 0.40270 0.98716 0.08400
C 	C 	0.63263 0.39397 0.93685 -0.07000
C 	C 	0.65300 0.45183 0.92482 -0.02200
N 	N 	0.66875 0.33925 0.99611 -0.14400
C 	C 	0.46210 0.19697 0.95444 0.01100
C 	C 	0.47805 0.17963 0.91748 -0.02500
C 	C 	0.54562 0.22634 0.93059 -0.06900
C 	C 	0.59805 0.29102 0.98111 0.08300
C 	C 	0.58225 0.30727 0.01825 -0.06900
C 	C 	0.51465 0.26058 0.00504 -0.02500
C 	C 	0.76500 0.23101 0.95829 0.00800
C 	C 	0.76545 0.24124 0.00401 -0.02400
C 	C 	0.73368 0.27683 0.01609 -0.07000
C 	C 	0.70027 0.30153 0.98223 0.08400
C 	C 	0.69762 0.28862 0.93515 -0.07000
C 	C 	0.73025 0.25389 0.92358 -0.02300
H 	H 	0.77768 0.48043 0.06642 0.04900
H 	H 	0.58311 0.34091 0.90591 0.04900
H 	H 	0.61927 0.44276 0.88469 0.04300
H 	H 	0.43740 0.13116 0.87805 0.03700
H 	H 	0.55658 0.21333 0.90116 0.04800
H 	H 	0.62242 0.35648 0.05730 0.05200
H 	H 	0.50238 0.27486 0.03354 0.04600
H 	H 	0.79132 0.22249 0.03055 0.03900
H 	H 	0.73514 0.28556 0.05190 0.05200
H 	H 	0.66913 0.30372 0.90702 0.04900
H 	H 	0.72863 0.24485 0.88767 0.03700
C 	C 	0.77434 0.45241 0.51550 -0.06700
C 	C 	0.70724 0.38657 0.47552 0.07800
C 	C 	0.66080 0.38402 0.42790 -0.06800
C 	C 	0.68238 0.44623 0.42022 -0.02100
N 	N 	0.69021 0.32026 0.48139 -0.14100
C 	C 	0.49375 0.20109 0.46302 0.00800
C 	C 	0.52596 0.16402 0.45359 -0.02200
C 	C 	0.58922 0.20223 0.45824 -0.06500
C 	C 	0.62026 0.27816 0.47089 0.07600
C 	C 	0.58890 0.31565 0.48277 -0.06500
C 	C 	0.52546 0.27693 0.47777 -0.02400
C 	C 	0.75280 0.19441 0.41206 0.00800
C 	C 	0.79340 0.23798 0.46792 -0.02300
C 	C 	0.77270 0.27949 0.49031 -0.06600
C 	C 	0.71113 0.27770 0.45723 0.08000
C 	C 	0.67088 0.23492 0.40102 -0.06600
C 	C 	0.69212 0.19391 0.37858 -0.02100
H 	H 	0.81032 0.45484 0.55221 0.04800
H 	H 	0.60828 0.33405 0.39707 0.05100
H 	H 	0.64637 0.44390 0.38355 0.04400
H 	H 	0.50251 0.10575 0.44340 0.04300
H 	H 	0.61498 0.17326 0.45349 0.05700
H 	H 	0.61457 0.37512 0.49719 0.05000
H 	H 	0.50156 0.30627 0.48632 0.04700
H 	H 	0.84039 0.23863 0.49399 0.04000
H 	H 	0.80407 0.31260 0.53350 0.05000
H 	H 	0.62246 0.23196 0.37504 0.05200
H 	H 	0.66046 0.16029 0.33540 0.04100
H 	H 	0.31803 0.52058 0.91487 0.04700
Zn	Zn	0.14546 0.14416 0.98797 1.18800
Zn	Zn	0.02382 0.09273 0.87589 1.20500
O 	O 	0.98684 0.06059 0.79728 -0.46200
C 	C 	0.20308 0.10472 0.93478 0.31600
C 	C 	0.15596 0.25151 0.94754 0.32700
O 	O 	0.21851 0.13621 0.98285 -0.45600
O 	O 	0.13705 0.06982 0.89231 -0.35200
O 	O 	0.05002 0.10246 0.94943 -0.76200
O 	O 	0.09999 0.19607 0.89871 -0.42500
O 	O 	0.17275 0.24261 0.99030 -0.44500
O 	O 	0.90145 0.03255 0.92077 -0.47600
Zn	Zn	0.98220 0.04127 0.02725 1.17800
C 	C 	0.90455 0.08061 0.95757 0.32500
O 	O 	0.02983 0.04021 0.09518 -0.47700
O 	O 	0.93617 0.09097 0.00687 -0.51500
O 	O 	0.02280 0.00953 0.99669 -0.87700
H 	H 	0.07540 0.03521 0.02154 0.14700
Zn	Zn	0.17476 0.15480 0.49355 1.18400
Zn	Zn	0.06207 0.08529 0.37733 1.19900
O 	O 	0.03930 0.04296 0.30245 -0.46400
C 	C 	0.24408 0.10181 0.45933 0.31900
C 	C 	0.18055 0.24914 0.44062 0.33000
O 	O 	0.25560 0.14915 0.50155 -0.45000
O 	O 	0.17879 0.05751 0.41518 -0.39500
O 	O 	0.07756 0.10613 0.44984 -0.75700
O 	O 	0.12450 0.18982 0.39375 -0.44400
O 	O 	0.20147 0.24713 0.48619 -0.44700
O 	O 	0.91753 0.02233 0.39982 -0.48200
Zn	Zn	0.98133 0.05316 0.51265 1.18200
C 	C 	0.90463 0.06684 0.42447 0.32600
O 	O 	0.01826 0.06892 0.58510 -0.43400
O 	O 	0.93169 0.09024 0.47547 -0.50800
O 	O 	0.03779 0.02451 0.50153 -0.88200
H 	H 	0.08918 0.05594 0.53188 0.16200
C 	C 	0.06508 0.01850 0.68703 -0.00100
C 	C 	0.05689 0.01699 0.72802 0.06200
H 	H 	0.09591 0.01632 0.76151 0.03900
C 	C 	0.12968 0.02150 0.69150 -0.07400
C 	C 	0.11745 0.94389 0.67268 -0.11800
H 	H 	0.17724 0.05790 0.73408 0.04400
H 	H 	0.14367 0.04677 0.66848 0.04100
H 	H 	0.10990 0.92078 0.69867 0.07800
H 	H 	0.16477 0.94744 0.67513 0.07300
H 	H 	0.06961 0.90543 0.63048 0.09000
C 	C 	0.11196 0.05887 0.24474 0.02400
C 	C 	0.10994 0.05349 0.19882 -0.04900
H 	H 	0.14150 0.10351 0.19917 0.04300
C 	C 	0.16353 0.13359 0.29562 -0.05900
C 	C 	0.13584 0.18514 0.29209 -0.14500
H 	H 	0.21606 0.16070 0.30176 0.04800
H 	H 	0.17430 0.12767 0.33189 0.04500
H 	H 	0.13014 0.19653 0.25849 0.06300
H 	H 	0.17440 0.23899 0.33000 0.07300
H 	H 	0.08323 0.15982 0.28583 0.08000
C 	C 	0.21770 0.32061 0.44246 -0.10200
C 	C 	0.28762 0.35103 0.45598 0.08400
C 	C 	0.32683 0.42415 0.46637 -0.08000
C 	C 	0.29705 0.46751 0.46330 0.01300
C 	C 	0.22568 0.43580 0.44671 0.02100
C 	C 	0.18636 0.36252 0.43635 -0.00200
H 	H 	0.38117 0.44786 0.47799 0.05900
H 	H 	0.13221 0.33902 0.42514 0.05800
I 	I 	0.33523 0.28798 0.46034 -0.13600
I 	I 	0.17621 0.49735 0.43729 -0.09100
C 	C 	0.27628 0.47174 0.97273 0.01200
C 	C 	0.20093 0.42993 0.93885 0.02400
C 	C 	0.16224 0.35723 0.92962 0.00100
C 	C 	0.19800 0.32596 0.95446 -0.09300
C 	C 	0.27372 0.36748 0.98738 0.09100
C 	C 	0.31210 0.43991 0.99628 -0.07200
H 	H 	0.10429 0.32571 0.90413 0.05300
H 	H 	0.37007 0.47174 0.02183 0.05800
I 	I 	0.14415 0.47586 0.90232 -0.08700
I 	I 	0.33258 0.32228 0.02251 -0.13000
C 	C 	0.77211 0.14637 0.38934 0.00600
C 	C 	0.74439 0.07352 0.38258 0.03500
C 	C 	0.78240 0.03958 0.38290 -0.05700
C 	C 	0.84970 0.07954 0.39318 -0.10600
C 	C 	0.87042 0.14592 0.38992 0.08500
C 	C 	0.83128 0.17910 0.38779 -0.07900
H 	H 	0.85072 0.23352 0.39009 0.06000
I 	I 	0.96509 0.20113 0.39456 -0.21500
I 	I 	0.78658 0.47419 0.36933 -0.12700
C 	C 	0.42780 0.16113 0.45905 0.01500
C 	C 	0.36035 0.12677 0.41057 0.02500
C 	C 	0.29907 0.10008 0.40981 -0.00300
C 	C 	0.30474 0.10955 0.45748 -0.10300
C 	C 	0.37095 0.13492 0.50422 0.09400
C 	C 	0.43241 0.16202 0.50506 -0.07900
H 	H 	0.24760 0.07622 0.37282 0.04600
H 	H 	0.48388 0.18455 0.54163 0.06000
I 	I 	0.34978 0.11810 0.33860 -0.13200
C 	C 	0.80134 0.19668 0.94710 0.00900
C 	C 	0.87642 0.23691 0.97756 0.01900
C 	C 	0.91063 0.19912 0.97564 -0.00100
C 	C 	0.87041 0.12154 0.94334 -0.12200
C 	C 	0.79557 0.08365 0.90654 0.06500
C 	C 	0.76124 0.12105 0.90961 -0.07900
H 	H 	0.96851 0.22930 0.00183 0.02200
H 	H 	0.70334 0.09090 0.88387 0.05200
I 	I 	0.93928 0.35430 0.02775 -0.14700
C 	C 	0.38789 0.15604 0.93736 0.01100
C 	C 	0.36789 0.11056 0.95904 0.02200
C 	C 	0.30446 0.08970 0.95493 -0.00400
C 	C 	0.26030 0.11291 0.92858 -0.09500
C 	C 	0.27665 0.15147 0.90182 0.08600
C 	C 	0.34008 0.17226 0.90611 -0.07700
H 	H 	0.29051 0.05731 0.97358 0.03900
H 	H 	0.35453 0.20541 0.88804 0.06000
I 	I 	0.43211 0.07223 0.99759 -0.14100
I 	I 	0.21099 0.18591 0.85902 -0.10100
C 	C 	0.71844 0.52007 0.96378 0.00900
C 	C 	0.79653 0.51381 0.50718 -0.02500
H 	H 	0.32845 0.52731 0.40533 0.04200
Zn	Zn	0.98804 0.00037 0.92675 1.19100
C 	C 	0.99050 0.00958 0.76865 0.29300
C 	C 	0.01776 0.01602 0.59765 0.25600
C 	C 	0.05815 0.99839 0.28638 0.35100
C 	C 	0.99856 0.01551 0.72601 -0.17000
C 	C 	0.01249 0.01603 0.64224 0.01000
C 	C 	0.06644 0.99424 0.24254 -0.06700
I 	I 	0.37840 0.12430 0.57134 -0.14700
C 	C 	0.76146 0.53124 0.01565 -0.02800
C 	C 	0.75127 0.51042 0.45907 0.00500
H 	H 	0.84940 0.56361 0.53773 0.03600
H 	H 	0.81158 0.58418 0.04622 0.03500
C 	C 	0.31814 0.54974 0.98530 0.01500
C 	C 	0.33549 0.56557 0.95093 -0.02500
C 	C 	0.34240 0.54716 0.48084 0.00600
C 	C 	0.35374 0.56885 0.44575 -0.02300
H 	H 	0.36922 0.58476 0.56110 0.04400
C 	C 	0.77623 0.57437 0.44964 0.01300
C 	C 	0.79518 0.57138 0.41341 0.02000
C 	C 	0.74641 0.57564 0.94843 0.01300
C 	C 	0.71563 0.61703 0.93600 0.02200
H 	H 	0.82725 0.55420 0.95446 0.06000
I 	I 	0.63126 0.60628 0.94289 -0.11800
Zn	Zn	0.01794 0.00497 0.43200 1.21900
C 	C 	0.34209 0.60837 0.03236 -0.02900
H 	H 	0.32977 0.59662 0.05951 0.04800
C 	C 	0.37661 0.60122 0.53344 -0.02200
C 	C 	0.39671 0.64440 0.46245 -0.06900
C 	C 	0.78657 0.64089 0.48028 -0.08000
H 	H 	0.77233 0.64346 0.50831 0.05700
C 	C 	0.80482 0.58753 0.94646 -0.08300
C 	C 	0.03867 0.98582 0.09960 0.35100
C 	C 	0.06355 0.98495 0.15125 -0.06300
H 	H 	0.40282 0.66048 0.43431 0.05100
O 	O 	0.95433 0.99127 0.85626 -0.86600
I 	I 	0.62847 0.99510 0.96845 -0.08100
I 	I 	0.14788 0.90725 0.54701 -0.15800
I 	I 	0.65128 0.01804 0.37988 -0.14300
H 	H 	0.76365 0.98583 0.38151 0.08700
H 	H 	0.26732 0.88145 0.55627 0.06900
I 	I 	0.73360 0.97250 0.84377 -0.13700
C 	C 	0.38097 0.68228 0.04407 -0.06000
C 	C 	0.39594 0.69843 0.00875 0.07400
C 	C 	0.37403 0.63948 0.96240 -0.06000
N 	N 	0.42722 0.77437 0.01790 -0.14300
C 	C 	0.60043 0.86201 0.00476 -0.00400
C 	C 	0.52964 0.82100 0.95864 -0.01200
C 	C 	0.47239 0.79336 0.96278 -0.06300
C 	C 	0.48535 0.80253 0.01265 0.07800
C 	C 	0.55595 0.84385 0.05859 -0.06600
C 	C 	0.61318 0.87432 0.05486 -0.01800
C 	C 	0.27700 0.83802 0.96781 0.01500
C 	C 	0.34639 0.88868 0.01508 -0.01900
C 	C 	0.39647 0.86840 0.03027 -0.06500
C 	C 	0.37809 0.79782 0.99797 0.09100
C 	C 	0.30991 0.74905 0.94864 -0.06500
C 	C 	0.25944 0.76881 0.93408 -0.01900
H 	H 	0.39765 0.72712 0.07981 0.05800
H 	H 	0.38459 0.65051 0.93446 0.05100
H 	H 	0.51901 0.80992 0.91961 0.04600
H 	H 	0.41816 0.76361 0.92722 0.05300
H 	H 	0.56640 0.85268 0.09730 0.05500
H 	H 	0.66751 0.90580 0.09070 0.04000
H 	H 	0.36101 0.94314 0.04055 0.05600
H 	H 	0.44910 0.90675 0.06784 0.06300
H 	H 	0.29591 0.69602 0.92179 0.05700
H 	H 	0.20660 0.73026 0.89668 0.05000
C 	C 	0.41946 0.67675 0.55018 -0.06600
C 	C 	0.42845 0.69910 0.51456 0.07900
N 	N 	0.46379 0.77764 0.53006 -0.14200
C 	C 	0.61163 0.85496 0.49113 0.01400
C 	C 	0.63229 0.84733 0.53757 -0.02100
C 	C 	0.58342 0.82189 0.55005 -0.06500
C 	C 	0.51328 0.80333 0.51614 0.08000
C 	C 	0.49273 0.81155 0.46967 -0.06400
C 	C 	0.54181 0.83741 0.45744 -0.02000
C 	C 	0.33147 0.86484 0.50763 0.00800
C 	C 	0.40247 0.90694 0.55324 -0.01900
C 	C 	0.44577 0.87810 0.56015 -0.06200
C 	C 	0.41859 0.80716 0.52144 0.08200
C 	C 	0.34722 0.76527 0.47546 -0.06600
C 	C 	0.30378 0.79354 0.46924 -0.01700
H 	H 	0.44392 0.71824 0.59036 0.05400
H 	H 	0.68586 0.85995 0.56350 0.04000
H 	H 	0.59985 0.81613 0.58596 0.04800
H 	H 	0.43855 0.79630 0.44249 0.05600
H 	H 	0.52511 0.84218 0.42113 0.05200
H 	H 	0.42430 0.96222 0.58298 0.05300
H 	H 	0.50052 0.91080 0.59555 0.06000
H 	H 	0.32583 0.71177 0.44411 0.05700
H 	H 	0.24903 0.76087 0.43377 0.04800
O 	O 	0.99988 0.96123 0.78342 -0.45500
O 	O 	0.00385 0.86966 0.85436 -0.45900
O 	O 	0.07745 0.97429 0.93540 -0.42600
Zn	Zn	0.83655 0.86533 0.88679 1.18100
Zn	Zn	0.97227 0.90694 0.98022 1.18400
C 	C 	0.84388 0.75338 0.92246 0.33600
C 	C 	0.81467 0.91567 0.96497 0.33100
O 	O 	0.91311 0.80154 0.96046 -0.45900
O 	O 	0.80747 0.76573 0.88404 -0.46200
O 	O 	0.78453 0.88760 0.91321 -0.46100
O 	O 	0.88025 0.93270 0.99719 -0.46700
O 	O 	0.92619 0.89793 0.90490 -0.80000
O 	O 	0.03121 0.93636 0.06038 -0.41900
Zn	Zn	0.96576 0.91932 0.82155 1.18000
C 	C 	0.06325 0.91130 0.90297 0.32400
H 	H 	0.90429 0.97813 0.83570 0.16100
O 	O 	0.06804 0.95577 0.30795 -0.45400
O 	O 	0.06094 0.88056 0.38878 -0.47700
O 	O 	0.99777 0.98506 0.36205 -0.88500
O 	O 	0.11715 0.98920 0.46323 -0.42100
Zn	Zn	0.86521 0.86407 0.38342 1.17900
Zn	Zn	0.99073 0.92439 0.49147 1.18500
C 	C 	0.87123 0.76883 0.43681 0.33200
C 	C 	0.81550 0.91335 0.43984 0.33600
O 	O 	0.93941 0.81991 0.47540 -0.45800
O 	O 	0.83713 0.77182 0.39226 -0.45100
O 	O 	0.79951 0.88563 0.39132 -0.46600
O 	O 	0.88073 0.94117 0.48143 -0.46400
O 	O 	0.96000 0.90406 0.41499 -0.80300
O 	O 	0.01671 0.96022 0.56865 -0.36300
Zn	Zn	0.02498 0.91940 0.34378 1.20100
C 	C 	0.11342 0.92813 0.43940 0.33200
H 	H 	0.94693 0.96480 0.33455 0.15700
C 	C 	0.94567 0.01256 0.68098 0.10500
C 	C 	0.95401 0.01431 0.64003 -0.12400
H 	H 	0.91393 0.01277 0.60569 0.05400
C 	C 	0.88004 0.00746 0.67575 -0.18300
C 	C 	0.89167 0.08461 0.69641 -0.09700
H 	H 	0.86487 0.97943 0.69715 0.08500
H 	H 	0.83334 0.97254 0.63282 0.09600
H 	H 	0.93820 0.12139 0.73919 0.05100
H 	H 	0.84333 0.07943 0.69291 0.03900
H 	H 	0.90114 0.11068 0.67229 0.04900
C 	C 	0.02916 0.91879 0.15289 0.08400
C 	C 	0.02916 0.92435 0.19811 0.01900
H 	H 	0.99949 0.87420 0.19850 -0.00800
C 	C 	0.99849 0.84271 0.10951 -0.14700
C 	C 	0.05773 0.83095 0.11463 -0.08400
H 	H 	0.96425 0.83445 0.06882 0.07100
H 	H 	0.96286 0.79789 0.11248 0.05200
H 	H 	0.09384 0.87341 0.11057 0.07100
H 	H 	0.03360 0.77486 0.08245 0.07200
H 	H 	0.08954 0.83450 0.15418 0.06400
C 	C 	0.75799 0.89931 0.44740 -0.11500
C 	C 	0.69693 0.82660 0.42055 0.10100
C 	C 	0.64882 0.81361 0.43440 -0.07900
C 	C 	0.65995 0.87188 0.47421 0.01600
C 	C 	0.71847 0.94494 0.49895 0.03700
C 	C 	0.76750 0.95814 0.48586 0.04800
H 	H 	0.60323 0.75754 0.41482 0.06300
H 	H 	0.81339 0.01418 0.50593 0.00200
I 	I 	0.67592 0.73375 0.36052 -0.12500
I 	I 	0.73255 0.03663 0.55449 -0.17100
C 	C 	0.17728 0.92445 0.46353 -0.10600
C 	C 	0.19884 0.91051 0.50742 0.09900
C 	C 	0.25321 0.89599 0.52432 -0.07600
C 	C 	0.28696 0.89663 0.49828 0.02100
C 	C 	0.26978 0.91746 0.45779 0.02500
C 	C 	0.21371 0.92891 0.43951 0.00900
H 	H 	0.19757 0.94009 0.40593 0.05100
I 	I 	0.32825 0.93272 0.42396 -0.08000
C 	C 	0.66071 0.88293 0.99977 0.02600
C 	C 	0.67794 0.93378 0.98078 0.01800
C 	C 	0.73124 0.94722 0.97215 0.00300
C 	C 	0.77018 0.91343 0.98484 -0.10100
C 	C 	0.75800 0.86913 0.00938 0.09000
C 	C 	0.70163 0.85174 0.01453 -0.08700
H 	H 	0.74232 0.98389 0.95548 0.05800
H 	H 	0.69021 0.81458 0.03083 0.06300
I 	I 	0.82687 0.83335 0.04400 -0.14800
C 	C 	0.22347 0.85852 0.95238 0.01800
C 	C 	0.19015 0.85994 0.97884 0.02500
C 	C 	0.13859 0.87834 0.96278 0.00500
C 	C 	0.11767 0.89230 0.91909 -0.10500
C 	C 	0.14994 0.88915 0.89184 0.09300
C 	C 	0.20354 0.87385 0.90938 -0.07500
H 	H 	0.11362 0.88019 0.98356 0.03300
H 	H 	0.22905 0.87270 0.88897 0.07100
I 	I 	0.21337 0.83037 0.04099 -0.09800
I 	I 	0.11869 0.90570 0.82354 -0.09800
C 	C 	0.83602 0.70166 0.43992 -0.10200
C 	C 	0.81745 0.70477 0.47632 0.08800
C 	C 	0.82361 0.63458 0.40802 0.00100
H 	H 	0.83827 0.63221 0.38024 0.03900
I 	I 	0.83687 0.80545 0.52680 -0.13000
C 	C 	0.80577 0.68604 0.92442 -0.10700
C 	C 	0.83474 0.64251 0.93465 0.09100
C 	C 	0.74391 0.67003 0.92220 0.00100
H 	H 	0.72064 0.70243 0.91329 0.05000
I 	I 	0.92013 0.65455 0.92875 -0.14900
