data_crystal

_cell_length_a 26.20805
_cell_length_b 26.31952
_cell_length_c 36.54672
_cell_angle_alpha 95.50877
_cell_angle_beta  95.50559
_cell_angle_gamma 125.77405

_symmetry_space_group_name_	'P 1'
_symmetry_space_group_name_H-M	'P 1'

loop_
_symmetry_equiv_pos_as_xyz
  x,y,z

loop_
_atom_site_label
_atom_site_type_symbol
_atom_site_fract_x
_atom_site_fract_y
_atom_site_fract_z
_atom_site_charge
C 	C 	0.96519 0.03107 0.00065 0.00900
C 	C 	0.03014 0.06465 0.99812 -0.05800
C 	C 	0.05888 0.03331 0.99768 0.01300
C 	C 	0.02261 0.96857 0.00014 -0.06100
C 	C 	0.95762 0.93479 0.00196 0.01300
C 	C 	0.92906 0.96609 0.00254 -0.06000
H 	H 	0.05791 0.11462 0.99604 0.04600
H 	H 	0.04470 0.94429 0.00009 0.04700
H 	H 	0.87852 0.93964 0.00354 0.04700
C 	C 	0.93950 0.00073 0.45519 0.01200
C 	C 	0.90676 0.93506 0.45446 -0.06100
C 	C 	0.94069 0.90901 0.45612 0.01300
C 	C 	0.00731 0.94879 0.45856 -0.06000
C 	C 	0.03992 0.01406 0.45882 0.01300
C 	C 	0.00608 0.04001 0.45717 -0.06100
H 	H 	0.85526 0.90448 0.45261 0.04600
H 	H 	0.03373 0.92894 0.46019 0.04700
H 	H 	0.03157 0.09075 0.45795 0.04700
Cu	Cu	0.63209 0.23507 0.00108 0.92700
Cu	Cu	0.67551 0.24164 0.91946 0.87000
Cu	Cu	0.66926 0.34180 0.95745 0.89700
Cu	Cu	0.64286 0.35634 0.03400 0.89400
C 	C 	0.65704 0.27686 0.08070 0.30600
O 	O 	0.54059 0.20168 0.00365 -0.36000
C 	C 	0.64538 0.30611 0.87443 0.30600
O 	O 	0.68832 0.33507 0.00790 -0.64100
O 	O 	0.62111 0.24714 0.94901 -0.64000
O 	O 	0.66771 0.18625 0.99332 -0.37000
O 	O 	0.73654 0.25455 0.95886 -0.44000
O 	O 	0.63092 0.30625 0.07435 -0.38800
O 	O 	0.72147 0.43376 0.96870 -0.38300
C 	C 	0.71906 0.46851 0.99612 0.28500
C 	C 	0.51831 0.23304 0.99382 0.27700
O 	O 	0.55819 0.29305 0.99098 -0.39100
O 	O 	0.68270 0.44275 0.02140 -0.39400
O 	O 	0.65618 0.23968 0.05327 -0.36300
C 	C 	0.71992 0.21053 0.97913 0.28100
O 	O 	0.66250 0.34951 0.90414 -0.38600
O 	O 	0.63527 0.25165 0.87756 -0.42400
H 	H 	0.73458 0.36010 0.01848 0.16500
H 	H 	0.57626 0.22341 0.93577 0.17300
Cu	Cu	0.73841 0.33546 0.45671 0.92700
Cu	Cu	0.73664 0.29577 0.53928 0.87000
Cu	Cu	0.63705 0.30600 0.50386 0.89700
Cu	Cu	0.62025 0.33320 0.42768 0.89400
C 	C 	0.69095 0.30940 0.37766 0.30500
O 	O 	0.77687 0.42751 0.45324 -0.36000
C 	C 	0.68036 0.33447 0.58636 0.30700
O 	O 	0.63895 0.28509 0.45263 -0.64100
O 	O 	0.73141 0.35000 0.50961 -0.64100
O 	O 	0.78346 0.29550 0.46276 -0.37100
O 	O 	0.71763 0.23142 0.49996 -0.43900
O 	O 	0.66479 0.33863 0.38505 -0.38700
O 	O 	0.54491 0.25788 0.49490 -0.38100
C 	C 	0.51020 0.26079 0.46763 0.28100
C 	C 	0.74996 0.45416 0.46432 0.27400
O 	O 	0.69048 0.41817 0.46927 -0.39000
O 	O 	0.53697 0.30018 0.44395 -0.39200
O 	O 	0.72826 0.30847 0.40419 -0.36400
C 	C 	0.75872 0.24430 0.47785 0.28000
O 	O 	0.63338 0.31294 0.55777 -0.38900
O 	O 	0.73267 0.34028 0.58188 -0.42300
H 	H 	0.61122 0.23882 0.44212 0.16400
H 	H 	0.75752 0.39523 0.52225 0.17300
C 	C 	0.64216 0.34311 0.76873 -0.00700
C 	C 	0.58934 0.29840 0.74030 -0.03500
C 	C 	0.59441 0.30224 0.70274 -0.03500
C 	C 	0.65233 0.35079 0.69346 -0.00700
C 	C 	0.70380 0.39777 0.72193 -0.03600
C 	C 	0.69872 0.39395 0.75949 -0.03600
C 	C 	0.64159 0.33157 0.80649 0.04400
C 	C 	0.64248 0.32060 0.83775 -0.11300
C 	C 	0.66173 0.34725 0.65536 0.04300
C 	C 	0.67007 0.34247 0.62370 -0.11300
H 	H 	0.54534 0.25911 0.74719 0.03900
H 	H 	0.55426 0.26592 0.68090 0.03900
H 	H 	0.74863 0.43566 0.71501 0.03800
H 	H 	0.73968 0.42890 0.78130 0.03800
C 	C 	0.68833 0.26471 0.18992 -0.00500
C 	C 	0.74459 0.31523 0.21431 -0.03500
C 	C 	0.74838 0.31925 0.25305 -0.03400
C 	C 	0.69590 0.27278 0.26755 -0.00500
C 	C 	0.64119 0.22018 0.24315 -0.03500
C 	C 	0.63743 0.21614 0.20441 -0.03400
C 	C 	0.67919 0.26768 0.15088 0.04300
C 	C 	0.67001 0.27130 0.11858 -0.10400
C 	C 	0.69477 0.28361 0.30678 0.04300
C 	C 	0.69324 0.29438 0.33932 -0.10400
H 	H 	0.78428 0.35283 0.20335 0.03800
H 	H 	0.79100 0.35988 0.27173 0.04100
H 	H 	0.60055 0.18387 0.25412 0.03800
H 	H 	0.59387 0.17676 0.18574 0.04100
C 	C 	0.89656 0.70492 0.40301 -0.05500
C 	C 	0.87327 0.64233 0.40550 -0.03600
C 	C 	0.84097 0.61433 0.43448 0.00900
C 	C 	0.83207 0.64959 0.46117 0.00100
C 	C 	0.85589 0.71277 0.45880 -0.02900
C 	C 	0.88821 0.74048 0.42959 0.04000
C 	C 	0.84779 0.74838 0.48579 0.04000
C 	C 	0.81515 0.72024 0.51464 -0.05500
C 	C 	0.79085 0.65721 0.51676 -0.03600
C 	C 	0.79912 0.62159 0.49014 0.00900
C 	C 	0.77423 0.55813 0.49186 -0.02600
C 	C 	0.78234 0.52268 0.46499 -0.06400
C 	C 	0.81660 0.55122 0.43673 -0.02500
C 	C 	0.91278 0.80374 0.42771 -0.07800
C 	C 	0.90673 0.84002 0.45528 0.02800
C 	C 	0.87338 0.81198 0.48395 -0.07800
H 	H 	0.92138 0.72582 0.38049 0.04100
H 	H 	0.88022 0.61559 0.38481 0.03800
H 	H 	0.80861 0.74713 0.53549 0.04100
H 	H 	0.76563 0.63616 0.53912 0.03600
H 	H 	0.74805 0.53611 0.51376 0.03900
H 	H 	0.82240 0.52365 0.41584 0.04700
H 	H 	0.93801 0.82535 0.40541 0.04900
H 	H 	0.86886 0.84012 0.50523 0.04800
C 	C 	0.81824 0.05890 0.51890 -0.05700
C 	C 	0.79397 0.09406 0.52242 -0.03600
C 	C 	0.79849 0.13052 0.49548 0.00600
C 	C 	0.82678 0.13088 0.46449 0.00200
C 	C 	0.85111 0.09534 0.46090 -0.03000
C 	C 	0.84733 0.05971 0.48841 0.04000
C 	C 	0.88030 0.09644 0.43021 0.04100
C 	C 	0.88404 0.13222 0.40301 -0.05500
C 	C 	0.85987 0.16753 0.40657 -0.03500
C 	C 	0.83161 0.16749 0.43737 0.00800
C 	C 	0.80871 0.20409 0.44158 -0.02200
C 	C 	0.78122 0.20444 0.47275 -0.07000
C 	C 	0.77579 0.16719 0.49946 -0.02500
C 	C 	0.87402 0.02657 0.48556 -0.07900
C 	C 	0.90467 0.02903 0.45556 0.02800
C 	C 	0.90663 0.06291 0.42755 -0.07800
H 	H 	0.81483 0.03145 0.54009 0.04000
H 	H 	0.77203 0.09325 0.54624 0.03200
H 	H 	0.90613 0.13316 0.37924 0.04200
H 	H 	0.86354 0.19521 0.38548 0.03800
H 	H 	0.81221 0.23212 0.42072 0.04900
H 	H 	0.75486 0.16757 0.52359 0.02700
H 	H 	0.87263 0.00042 0.50713 0.04800
H 	H 	0.92988 0.06427 0.40425 0.04800
C 	C 	0.25823 0.12242 0.52979 -0.05500
C 	C 	0.32412 0.15618 0.53089 -0.03600
C 	C 	0.34956 0.17448 0.49839 0.00900
C 	C 	0.30849 0.15917 0.46458 0.00200
C 	C 	0.24219 0.12540 0.46350 -0.02900
C 	C 	0.21695 0.10663 0.49618 0.04100
C 	C 	0.20104 0.10978 0.42964 0.04100
C 	C 	0.22652 0.12839 0.39720 -0.05600
C 	C 	0.29237 0.16183 0.39826 -0.03600
C 	C 	0.33362 0.17721 0.43180 0.00900
C 	C 	0.39958 0.21015 0.43292 -0.02500
C 	C 	0.44070 0.22557 0.46659 -0.06100
C 	C 	0.41550 0.20774 0.49928 -0.02400
C 	C 	0.15071 0.07159 0.49471 -0.07800
C 	C 	0.10968 0.05521 0.46089 0.02800
C 	C 	0.13489 0.07493 0.42855 -0.07900
H 	H 	0.23932 0.10836 0.55506 0.04100
H 	H 	0.35531 0.16786 0.55702 0.03700
H 	H 	0.19532 0.11671 0.37107 0.04100
H 	H 	0.31124 0.17563 0.37294 0.03500
H 	H 	0.41886 0.22337 0.40762 0.03800
H 	H 	0.44719 0.22016 0.52537 0.04900
H 	H 	0.13089 0.05627 0.51962 0.04900
H 	H 	0.10289 0.06208 0.40250 0.04900
C 	C 	0.81013 0.65088 0.93081 -0.03600
C 	C 	0.84261 0.71622 0.93157 -0.05500
C 	C 	0.86359 0.75827 0.96566 0.04000
C 	C 	0.85149 0.73442 0.99924 -0.02800
C 	C 	0.81894 0.66868 0.99849 0.00200
C 	C 	0.79828 0.62679 0.96415 0.01000
C 	C 	0.80728 0.64489 0.03209 0.00800
C 	C 	0.82802 0.68694 0.06617 -0.03600
C 	C 	0.86035 0.75228 0.06692 -0.05500
C 	C 	0.87243 0.77640 0.03361 0.03900
C 	C 	0.90582 0.84199 0.03425 -0.07700
C 	C 	0.91865 0.86573 0.00090 0.02600
C 	C 	0.89712 0.82391 0.96667 -0.07600
C 	C 	0.76598 0.56138 0.96354 -0.02400
C 	C 	0.75425 0.53750 0.99699 -0.06100
C 	C 	0.77511 0.57940 0.03120 -0.02500
H 	H 	0.79434 0.61905 0.90429 0.03800
H 	H 	0.85159 0.73409 0.90563 0.04100
H 	H 	0.81919 0.66909 0.09213 0.03500
H 	H 	0.87617 0.78412 0.09345 0.04100
H 	H 	0.92265 0.87464 0.06060 0.04900
H 	H 	0.90721 0.84267 0.94100 0.04900
H 	H 	0.74932 0.52899 0.93710 0.04900
H 	H 	0.76658 0.56105 0.05704 0.03900
C 	C 	0.85561 0.15937 0.92847 -0.03500
C 	C 	0.89130 0.13562 0.93183 -0.05700
C 	C 	0.89593 0.11236 0.96403 0.04200
C 	C 	0.86480 0.11342 0.99321 -0.03000
C 	C 	0.82869 0.13717 0.98977 0.00400
C 	C 	0.82406 0.16013 0.95725 0.00500
C 	C 	0.79695 0.13763 0.01875 0.00600
C 	C 	0.80193 0.11471 0.05106 -0.03500
C 	C 	0.83785 0.09114 0.05449 -0.05600
C 	C 	0.86919 0.09011 0.02563 0.04100
C 	C 	0.90407 0.06521 0.02852 -0.08100
C 	C 	0.93394 0.06290 0.99911 0.03200
C 	C 	0.93041 0.08712 0.96714 -0.08000
C 	C 	0.78788 0.18346 0.95386 -0.02300
C 	C 	0.75634 0.18421 0.98271 -0.07000
C 	C 	0.76074 0.16106 0.01506 -0.02200
H 	H 	0.85241 0.17703 0.90341 0.03200
H 	H 	0.91515 0.13512 0.90930 0.04000
H 	H 	0.77789 0.11500 0.07353 0.03800
H 	H 	0.84102 0.07343 0.07953 0.04200
H 	H 	0.90721 0.04675 0.05326 0.04900
H 	H 	0.95330 0.08499 0.94444 0.04900
H 	H 	0.78391 0.20069 0.92873 0.02300
H 	H 	0.73673 0.16202 0.03741 0.04800
C 	C 	0.35237 0.23408 0.04549 -0.03400
C 	C 	0.28783 0.20661 0.04577 -0.05600
C 	C 	0.23957 0.15196 0.01936 0.04100
C 	C 	0.25639 0.12521 0.99214 -0.02900
C 	C 	0.32132 0.15232 0.99219 0.00500
C 	C 	0.36945 0.20697 0.01896 0.00600
C 	C 	0.33810 0.12435 0.96574 0.00700
C 	C 	0.28988 0.07036 0.93891 -0.03400
C 	C 	0.22538 0.04388 0.93858 -0.05600
C 	C 	0.20826 0.07072 0.96528 0.04100
C 	C 	0.14364 0.04291 0.96598 -0.07900
C 	C 	0.12674 0.06784 0.99407 0.03000
C 	C 	0.17475 0.12294 0.02031 -0.08000
C 	C 	0.43399 0.23348 0.01907 -0.02000
C 	C 	0.45067 0.20517 0.99312 -0.06300
C 	C 	0.40285 0.15061 0.96658 -0.02100
H 	H 	0.38903 0.27618 0.06611 0.03600
H 	H 	0.27542 0.22772 0.06666 0.04200
H 	H 	0.30226 0.04873 0.91835 0.03500
H 	H 	0.18873 0.00208 0.91777 0.04100
H 	H 	0.10644 0.00100 0.94535 0.04900
H 	H 	0.16161 0.14211 0.04195 0.04900
H 	H 	0.47123 0.27559 0.03957 0.03100
H 	H 	0.41607 0.12909 0.94652 0.03400
