data_crystal

_cell_length_a 43.24238
_cell_length_b 42.69829
_cell_length_c 32.77682
_cell_angle_alpha 88.36350
_cell_angle_beta  91.55795
_cell_angle_gamma 90.01200

_symmetry_space_group_name_	'P 1'
_symmetry_space_group_name_H-M	'P 1'

loop_
_symmetry_equiv_pos_as_xyz
  x,y,z

loop_
_atom_site_label
_atom_site_type_symbol
_atom_site_fract_x
_atom_site_fract_y
_atom_site_fract_z
_atom_site_charge
C 	C 	0.83280 0.18102 0.11481 -0.00700
C 	C 	0.81779 0.16696 0.08157 -0.02400
C 	C 	0.80932 0.18498 0.04675 -0.07300
C 	C 	0.81605 0.21726 0.04486 0.08100
C 	C 	0.83048 0.23129 0.07846 -0.07000
C 	C 	0.83879 0.21330 0.11329 -0.02300
N 	N 	0.80917 0.23602 0.00846 -0.14300
C 	C 	0.72319 0.28442 0.00511 -0.00500
C 	C 	0.75011 0.29925 0.99153 -0.02300
C 	C 	0.77812 0.28299 0.99216 -0.07000
C 	C 	0.77961 0.25178 0.00642 0.08100
C 	C 	0.75243 0.23664 0.01927 -0.07200
C 	C 	0.72439 0.25301 0.01878 -0.02300
C 	C 	0.83942 0.20307 0.89516 -0.00600
C 	C 	0.80921 0.19655 0.90741 -0.02300
C 	C 	0.79924 0.20666 0.94509 -0.07100
C 	C 	0.81952 0.22342 0.97081 0.07900
C 	C 	0.84993 0.22907 0.95889 -0.06900
C 	C 	0.85983 0.21903 0.92122 -0.02300
C 	C 	0.64601 0.34626 0.00770 0.00100
C 	C 	0.65823 0.33288 0.04429 -0.03200
C 	C 	0.68216 0.31089 0.04341 -0.04300
C 	C 	0.69402 0.30217 0.00596 0.01500
C 	C 	0.68027 0.31385 0.96937 -0.04500
C 	C 	0.65641 0.33585 0.97024 -0.02900
C 	C 	0.86981 0.13087 0.21972 0.00100
C 	C 	0.84399 0.15043 0.22329 -0.03200
C 	C 	0.83103 0.16583 0.18869 -0.04300
C 	C 	0.84378 0.16176 0.15029 0.01500
C 	C 	0.86884 0.14129 0.14651 -0.04400
C 	C 	0.88186 0.12599 0.18110 -0.02800
C 	C 	0.87550 0.17860 0.78028 0.00200
C 	C 	0.87051 0.15525 0.81040 -0.02900
C 	C 	0.85757 0.16301 0.84743 -0.04400
C 	C 	0.84944 0.19415 0.85453 0.01400
C 	C 	0.85310 0.21722 0.82372 -0.04300
C 	C 	0.86597 0.20947 0.78668 -0.03300
H 	H 	0.81294 0.14206 0.08258 0.03700
H 	H 	0.79770 0.17391 0.02133 0.04900
H 	H 	0.83562 0.25611 0.07728 0.05200
H 	H 	0.85042 0.22433 0.13881 0.03800
H 	H 	0.74938 0.32353 0.98097 0.03900
H 	H 	0.79886 0.29475 0.98204 0.05200
H 	H 	0.75292 0.21228 0.02919 0.04900
H 	H 	0.70364 0.24130 0.02899 0.03700
H 	H 	0.79339 0.18401 0.88757 0.03700
H 	H 	0.77590 0.20149 0.95426 0.04900
H 	H 	0.86570 0.24179 0.97858 0.05200
H 	H 	0.88326 0.22395 0.91207 0.03700
H 	H 	0.65030 0.34069 0.07338 0.04200
H 	H 	0.69249 0.30182 0.07183 0.04300
H 	H 	0.68900 0.30692 0.94029 0.04300
H 	H 	0.64688 0.34579 0.94182 0.04500
H 	H 	0.83458 0.15446 0.25299 0.04100
H 	H 	0.81162 0.18153 0.19186 0.04300
H 	H 	0.87881 0.13800 0.11696 0.04400
H 	H 	0.90171 0.11083 0.17802 0.04600
H 	H 	0.87758 0.13131 0.80565 0.04700
H 	H 	0.85466 0.14503 0.87101 0.04300
H 	H 	0.84660 0.24127 0.82883 0.04300
H 	H 	0.86914 0.22756 0.76331 0.04100
C 	C 	0.14319 0.94792 0.88911 -0.00500
C 	C 	0.11961 0.93520 0.91299 -0.02300
C 	C 	0.12693 0.91926 0.94979 -0.06900
C 	C 	0.15782 0.91593 0.96314 0.08000
C 	C 	0.18145 0.92953 0.93976 -0.07100
C 	C 	0.17411 0.94532 0.90279 -0.02300
N 	N 	0.16493 0.89746 0.99974 -0.14400
C 	C 	0.23290 0.82614 0.99203 -0.00700
C 	C 	0.24139 0.85555 0.00677 -0.02200
C 	C 	0.21936 0.87938 0.00857 -0.07100
C 	C 	0.18850 0.87390 0.99583 0.07900
C 	C 	0.18035 0.84479 0.98003 -0.06900
C 	C 	0.20241 0.82102 0.97812 -0.02300
C 	C 	0.16381 0.94565 0.11152 -0.00500
C 	C 	0.15053 0.91580 0.10844 -0.02300
C 	C 	0.15138 0.90002 0.07177 -0.06900
C 	C 	0.16538 0.91386 0.03769 0.08100
C 	C 	0.17925 0.94361 0.04096 -0.07200
C 	C 	0.17837 0.95940 0.07772 -0.02300
C 	C 	0.29988 0.75225 0.99892 -0.00100
C 	C 	0.30470 0.77873 0.97355 -0.02800
C 	C 	0.28261 0.80268 0.97078 -0.04400
C 	C 	0.25550 0.80024 0.99324 0.01400
C 	C 	0.25033 0.77338 0.01777 -0.04300
C 	C 	0.27236 0.74944 0.02048 -0.03200
C 	C 	0.11287 0.98572 0.77288 0.00400
C 	C 	0.13031 0.95797 0.77536 -0.03400
C 	C 	0.14159 0.94640 0.81322 -0.04200
C 	C 	0.13551 0.96249 0.84885 0.01300
C 	C 	0.11945 0.99104 0.84613 -0.04100
C 	C 	0.10827 0.00268 0.80824 -0.03200
C 	C 	0.14748 0.99023 0.22392 0.00400
C 	C 	0.13662 0.00406 0.18685 -0.03500
C 	C 	0.14347 0.99048 0.14984 -0.04000
C 	C 	0.16119 0.96297 0.14958 0.01300
C 	C 	0.17360 0.95025 0.18644 -0.04300
C 	C 	0.16670 0.96378 0.22345 -0.02900
H 	H 	0.09566 0.93713 0.90262 0.03800
H 	H 	0.10863 0.90899 0.96768 0.05200
H 	H 	0.20538 0.92767 0.95003 0.04900
H 	H 	0.19244 0.95525 0.88463 0.03700
H 	H 	0.26492 0.85976 0.01741 0.03700
H 	H 	0.22625 0.90200 0.01975 0.04900
H 	H 	0.15674 0.84049 0.96983 0.05200
H 	H 	0.19572 0.79848 0.96635 0.03700
H 	H 	0.13912 0.90505 0.13432 0.03800
H 	H 	0.14082 0.87711 0.06958 0.05200
H 	H 	0.19096 0.95428 0.01539 0.05000
H 	H 	0.18891 0.98234 0.07992 0.03700
H 	H 	0.32580 0.78104 0.95664 0.04600
H 	H 	0.28668 0.82322 0.95150 0.04300
H 	H 	0.22943 0.77126 0.03515 0.04200
H 	H 	0.26820 0.72886 0.03966 0.04000
H 	H 	0.13436 0.94493 0.74813 0.04100
H 	H 	0.15412 0.92442 0.81503 0.04300
H 	H 	0.11484 0.00372 0.87348 0.04200
H 	H 	0.09503 0.02424 0.80659 0.04700
H 	H 	0.12167 0.02442 0.18682 0.04300
H 	H 	0.13387 0.00055 0.12154 0.04200
H 	H 	0.18766 0.92925 0.18650 0.04300
H 	H 	0.17540 0.95307 0.25186 0.04600
Zn	Zn	0.47936 0.58609 0.95656 1.22200
Zn	Zn	0.45055 0.57336 0.05005 1.19300
C 	C 	0.56190 0.50840 0.99342 0.31100
Zn	Zn	0.50816 0.54119 0.02519 1.22300
Zn	Zn	0.54647 0.56570 0.94554 1.19700
H 	H 	0.45552 0.53451 0.99300 0.17900
C 	C 	0.51631 0.58753 0.08606 0.30000
O 	O 	0.53556 0.58601 0.89206 -0.44900
O 	O 	0.49843 0.61919 0.91388 -0.39600
O 	O 	0.46753 0.55292 0.00202 -0.79500
O 	O 	0.43684 0.61541 0.02863 -0.43900
O 	O 	0.47237 0.55569 0.91240 -0.42000
O 	O 	0.44498 0.61657 0.95958 -0.42700
O 	O 	0.51594 0.52716 0.92902 -0.41400
O 	O 	0.45886 0.54390 0.09751 -0.44400
H 	H 	0.52629 0.60052 0.00015 0.18600
O 	O 	0.48803 0.50741 0.06562 -0.38800
O 	O 	0.51899 0.58103 0.98740 -0.79200
O 	O 	0.57239 0.53520 0.97857 -0.46400
O 	O 	0.52678 0.56088 0.07326 -0.43500
O 	O 	0.53306 0.50587 0.00510 -0.41300
O 	O 	0.49134 0.60009 0.06889 -0.40100
C 	C 	0.51936 0.61197 0.88731 0.29600
C 	C 	0.42791 0.62340 0.99102 0.29200
C 	C 	0.48964 0.53063 0.90815 0.29500
C 	C 	0.47034 0.51529 0.09589 0.29100
C 	C 	0.30091 0.27653 0.50810 -0.00600
C 	C 	0.32703 0.26182 0.52626 -0.02300
C 	C 	0.35518 0.27783 0.52891 -0.06900
C 	C 	0.35749 0.30871 0.51363 0.08000
C 	C 	0.33128 0.32337 0.49506 -0.07200
C 	C 	0.30318 0.30730 0.49233 -0.02300
N 	N 	0.38668 0.32497 0.51738 -0.14300
C 	C 	0.41615 0.37158 0.40868 -0.00600
C 	C 	0.40064 0.38843 0.43800 -0.02300
C 	C 	0.39080 0.37335 0.47371 -0.07100
C 	C 	0.39646 0.34108 0.48053 0.08000
C 	C 	0.41181 0.32428 0.45101 -0.06900
C 	C 	0.42161 0.33942 0.41523 -0.02300
C 	C 	0.40355 0.37510 0.62623 -0.00600
C 	C 	0.42645 0.35573 0.61086 -0.02300
C 	C 	0.42062 0.33920 0.57527 -0.06900
C 	C 	0.39179 0.34158 0.55482 0.08000
C 	C 	0.36853 0.36045 0.57083 -0.07200
C 	C 	0.37450 0.37722 0.60618 -0.02300
C 	C 	0.44095 0.42346 0.30100 0.00200
C 	C 	0.42006 0.39842 0.29820 -0.02900
C 	C 	0.41282 0.38062 0.33315 -0.04400
C 	C 	0.42655 0.38767 0.37108 0.01400
C 	C 	0.44862 0.41169 0.37346 -0.04300
C 	C 	0.45582 0.42948 0.33857 -0.03300
C 	C 	0.21294 0.23060 0.50402 0.00200
C 	C 	0.22871 0.23681 0.46783 -0.02900
C 	C 	0.25757 0.25160 0.46916 -0.04400
C 	C 	0.27095 0.26008 0.50674 0.01400
C 	C 	0.25543 0.25339 0.54298 -0.04300
C 	C 	0.22656 0.23868 0.54165 -0.03300
C 	C 	0.42273 0.43062 0.73086 0.00200
C 	C 	0.39765 0.40976 0.73071 -0.03300
C 	C 	0.39154 0.39142 0.69674 -0.04300
C 	C 	0.41033 0.39398 0.66251 0.01400
C 	C 	0.43541 0.41488 0.66274 -0.04400
C 	C 	0.44168 0.43296 0.69686 -0.02900
H 	H 	0.32548 0.23803 0.53845 0.03800
H 	H 	0.37522 0.26635 0.54310 0.05200
H 	H 	0.33254 0.34727 0.48341 0.04900
H 	H 	0.28307 0.31888 0.47843 0.03700
H 	H 	0.39602 0.41320 0.43296 0.03700
H 	H 	0.37828 0.38656 0.49555 0.04900
H 	H 	0.41619 0.29947 0.45591 0.05200
H 	H 	0.43355 0.32622 0.39271 0.03800
H 	H 	0.44885 0.35367 0.62633 0.03800
H 	H 	0.43856 0.32462 0.56336 0.05200
H 	H 	0.34629 0.36299 0.55526 0.04900
H 	H 	0.35674 0.39229 0.61760 0.03600
H 	H 	0.40862 0.39345 0.26928 0.04600
H 	H 	0.39588 0.36201 0.33098 0.04300
H 	H 	0.45963 0.41703 0.40253 0.04300
H 	H 	0.47238 0.44844 0.34090 0.04200
H 	H 	0.21844 0.23055 0.43866 0.04600
H 	H 	0.26946 0.25658 0.44104 0.04400
H 	H 	0.26562 0.25982 0.57212 0.04300
H 	H 	0.21475 0.23361 0.56981 0.04200
H 	H 	0.38302 0.40766 0.75696 0.04100
H 	H 	0.37226 0.37521 0.69702 0.04200
H 	H 	0.44991 0.41724 0.63638 0.04300
H 	H 	0.46109 0.44902 0.69673 0.04600
C 	C 	0.71407 0.84754 0.47936 -0.00600
C 	C 	0.72862 0.81870 0.47332 -0.02300
C 	C 	0.71122 0.79120 0.47179 -0.07000
C 	C 	0.67920 0.79204 0.47688 0.08100
C 	C 	0.66450 0.82092 0.48279 -0.07100
C 	C 	0.68185 0.84856 0.48363 -0.02300
N 	N 	0.66218 0.76304 0.47835 -0.14400
C 	C 	0.60995 0.74000 0.58285 -0.00600
C 	C 	0.59545 0.75518 0.54893 -0.02300
C 	C 	0.61266 0.76390 0.51493 -0.07100
C 	C 	0.64458 0.75736 0.51455 0.08100
C 	C 	0.65918 0.74349 0.54919 -0.07000
C 	C 	0.64198 0.73476 0.58312 -0.02300
C 	C 	0.62090 0.73071 0.36809 -0.00600
C 	C 	0.63899 0.71057 0.39348 -0.02300
C 	C 	0.65257 0.72147 0.42951 -0.06900
C 	C 	0.64848 0.75264 0.44045 0.08100
C 	C 	0.63078 0.77305 0.41462 -0.07200
C 	C 	0.61698 0.76205 0.37869 -0.02300
C 	C 	0.56395 0.69503 0.68208 0.00200
C 	C 	0.58417 0.72007 0.68946 -0.02900
C 	C 	0.59783 0.73613 0.65683 -0.04400
C 	C 	0.59135 0.72727 0.61657 0.01400
C 	C 	0.56948 0.70367 0.60912 -0.04300
C 	C 	0.55574 0.68771 0.64173 -0.03300
C 	C 	0.77559 0.92490 0.49552 0.00200
C 	C 	0.75227 0.91896 0.52379 -0.03400
C 	C 	0.73128 0.89450 0.51773 -0.04300
C 	C 	0.73281 0.87637 0.48276 0.01400
C 	C 	0.75437 0.88412 0.45284 -0.04400
C 	C 	0.77581 0.90807 0.45933 -0.02900
C 	C 	0.57921 0.69324 0.26000 0.00100
C 	C 	0.59902 0.71919 0.25706 -0.03200
C 	C 	0.61218 0.73185 0.29239 -0.04300
C 	C 	0.60551 0.71872 0.33092 0.01500
C 	C 	0.58509 0.69324 0.33383 -0.04400
C 	C 	0.57215 0.68044 0.29852 -0.02900
H 	H 	0.75349 0.81755 0.47046 0.03700
H 	H 	0.72269 0.76904 0.46751 0.05200
H 	H 	0.63981 0.82190 0.48705 0.04800
H 	H 	0.67033 0.87069 0.48801 0.03600
H 	H 	0.57079 0.75970 0.54865 0.03700
H 	H 	0.60121 0.77547 0.48892 0.04900
H 	H 	0.68376 0.73863 0.54927 0.05200
H 	H 	0.65340 0.72306 0.60916 0.03700
H 	H 	0.64239 0.68641 0.38537 0.03800
H 	H 	0.66624 0.70567 0.44912 0.05200
H 	H 	0.62703 0.79706 0.42278 0.04900
H 	H 	0.60293 0.77775 0.35939 0.03600
H 	H 	0.59036 0.72618 0.72049 0.04600
H 	H 	0.61432 0.75464 0.66287 0.04300
H 	H 	0.56411 0.69683 0.57814 0.04200
H 	H 	0.53961 0.66888 0.63568 0.04200
H 	H 	0.75094 0.93270 0.55097 0.04000
H 	H 	0.71450 0.88901 0.54082 0.04200
H 	H 	0.75524 0.87082 0.42524 0.04300
H 	H 	0.79330 0.91275 0.43691 0.04800
H 	H 	0.60467 0.72916 0.22742 0.04100
H 	H 	0.62797 0.75147 0.28980 0.04300
H 	H 	0.57954 0.68314 0.36344 0.04300
H 	H 	0.55677 0.66050 0.30106 0.04600
Zn	Zn	0.02484 0.07390 0.46651 1.22200
Zn	Zn	0.00469 0.12593 0.53326 1.19700
C 	C 	0.92971 0.01651 0.49582 0.30400
Zn	Zn	0.97477 0.06131 0.53235 1.22300
Zn	Zn	0.99011 0.01361 0.45454 1.19600
H 	H 	0.96952 0.10380 0.47776 0.18300
C 	C 	0.02805 0.06884 0.58703 0.29000
O 	O 	0.01939 0.01378 0.40906 -0.45600
O 	O 	0.05708 0.04463 0.43729 -0.38400
O 	O 	0.98697 0.09540 0.49491 -0.79300
O 	O 	0.03927 0.14404 0.50100 -0.45100
O 	O 	0.00602 0.08439 0.41230 -0.43200
O 	O 	0.06186 0.09784 0.48401 -0.43000
O 	O 	0.96481 0.05225 0.42392 -0.41300
O 	O 	0.98092 0.12519 0.58430 -0.44500
H 	H 	0.02501 0.02733 0.51453 0.18100
O 	O 	0.94376 0.09074 0.56349 -0.39800
O 	O 	0.00845 0.03856 0.49863 -0.79400
O 	O 	0.94984 0.99946 0.47667 -0.44900
O 	O 	0.00036 0.05622 0.58275 -0.42100
O 	O 	0.93856 0.03290 0.52761 -0.41800
O 	O 	0.03676 0.09211 0.56254 -0.41000
C 	C 	0.04850 0.02269 0.41196 0.29500
C 	C 	0.06338 0.12834 0.48890 0.31300
C 	C 	0.97831 0.07423 0.40171 0.29400
C 	C 	0.95319 0.11294 0.58786 0.29800
C 	C 	0.85458 0.98024 0.51905 0.08800
C 	C 	0.83959 0.98148 0.48045 0.09500
N 	N 	0.81302 0.96512 0.47424 -0.11600
C 	C 	0.80099 0.94705 0.50487 0.04700
C 	C 	0.81568 0.94649 0.54375 0.00200
N 	N 	0.84205 0.96320 0.55004 -0.10500
N 	N 	0.88286 0.99362 0.52407 -0.08800
N 	N 	0.85320 0.99668 0.44871 -0.11200
H 	H 	0.80695 0.93174 0.56826 0.03900
C 	C 	0.89706 0.00778 0.49191 -0.03000
C 	C 	0.88168 0.00979 0.45365 0.03900
H 	H 	0.89271 0.02095 0.42777 0.03600
C 	C 	0.12487 0.18796 0.50165 0.08600
C 	C 	0.15019 0.17337 0.48409 0.09500
N 	N 	0.17829 0.18760 0.48474 -0.11500
C 	C 	0.18215 0.21583 0.50251 0.04700
C 	C 	0.15669 0.23057 0.51958 0.00100
N 	N 	0.12857 0.21631 0.51885 -0.10700
N 	N 	0.09702 0.17332 0.50213 -0.09300
N 	N 	0.14655 0.14483 0.46733 -0.11200
H 	H 	0.15931 0.25321 0.53333 0.03900
C 	C 	0.09337 0.14448 0.48596 -0.03500
C 	C 	0.11865 0.13009 0.46785 0.04600
H 	H 	0.11613 0.10734 0.45436 0.04700
C 	C 	0.45221 0.48502 0.19948 0.08700
C 	C 	0.45927 0.45305 0.19689 0.09400
N 	N 	0.45558 0.43353 0.22989 -0.11500
C 	C 	0.44534 0.44483 0.26556 0.04700
C 	C 	0.43824 0.47683 0.26800 0.00100
N 	N 	0.44183 0.49627 0.23492 -0.10600
N 	N 	0.45584 0.50451 0.16656 -0.09200
N 	N 	0.46979 0.44188 0.16142 -0.11200
H 	H 	0.42969 0.48607 0.29598 0.03900
C 	C 	0.46649 0.49349 0.13099 -0.02900
C 	C 	0.47358 0.46145 0.12840 0.04100
H 	H 	0.48185 0.45217 0.10030 0.04500
C 	C 	0.46410 0.46530 0.81906 0.09500
C 	C 	0.44370 0.48931 0.82912 0.08700
N 	N 	0.45198 0.50958 0.85869 -0.09100
C 	C 	0.47982 0.50672 0.87893 -0.03000
C 	C 	0.49983 0.48209 0.86954 0.04300
N 	N 	0.49160 0.46199 0.83969 -0.11300
N 	N 	0.45663 0.44618 0.78790 -0.11500
N 	N 	0.41630 0.49276 0.80824 -0.10600
H 	H 	0.52202 0.47931 0.88533 0.04200
C 	C 	0.42934 0.44984 0.76660 0.04700
C 	C 	0.40865 0.47342 0.77726 0.00100
H 	H 	0.38695 0.47672 0.76043 0.03900
C 	C 	0.54057 0.64983 0.15653 0.08600
C 	C 	0.56151 0.63360 0.18295 0.09500
N 	N 	0.57415 0.64818 0.21567 -0.11500
C 	C 	0.56697 0.67853 0.22288 0.04700
C 	C 	0.54647 0.69493 0.19603 0.00100
N 	N 	0.53360 0.68021 0.16343 -0.10500
N 	N 	0.52677 0.63479 0.12495 -0.09200
N 	N 	0.56830 0.60318 0.17627 -0.11300
H 	H 	0.54039 0.71901 0.20152 0.04000
C 	C 	0.53327 0.60414 0.11841 -0.03400
C 	C 	0.55471 0.58813 0.14448 0.04300
H 	H 	0.55998 0.56370 0.14001 0.04400
C 	C 	0.54085 0.63679 0.78280 0.08700
C 	C 	0.53365 0.66888 0.78221 0.09400
N 	N 	0.54052 0.68719 0.74909 -0.11500
C 	C 	0.55405 0.67457 0.71627 0.04700
C 	C 	0.56078 0.64235 0.71674 0.00100
N 	N 	0.55407 0.62414 0.75001 -0.10600
N 	N 	0.53548 0.61883 0.81666 -0.09100
N 	N 	0.52075 0.68157 0.81528 -0.11300
H 	H 	0.57198 0.63206 0.69118 0.03900
C 	C 	0.52291 0.63149 0.85006 -0.03200
C 	C 	0.51511 0.66349 0.84916 0.04100
H 	H 	0.50527 0.67404 0.87552 0.04000
C 	C 	0.10511 0.98922 0.32053 0.09600
C 	C 	0.10594 0.02099 0.33058 0.08700
N 	N 	0.08884 0.03112 0.36180 -0.08900
C 	C 	0.07066 0.01077 0.38311 -0.03200
C 	C 	0.07062 0.97887 0.37377 0.04400
N 	N 	0.08787 0.96874 0.34270 -0.11500
N 	N 	0.11980 0.97960 0.28705 -0.11500
N 	N 	0.12208 0.04171 0.30723 -0.10500
H 	H 	0.05641 0.96239 0.39057 0.02200
C 	C 	0.13514 0.00048 0.26282 0.04600
C 	C 	0.13677 0.03208 0.27359 0.00200
H 	H 	0.14915 0.04892 0.25488 0.04000
C 	C 	0.08578 0.03513 0.68424 0.09500
C 	C 	0.06328 0.01570 0.66638 0.08600
N 	N 	0.04551 0.02676 0.63439 -0.09500
C 	C 	0.04949 0.05641 0.61907 -0.02900
C 	C 	0.07260 0.07554 0.63624 0.04400
N 	N 	0.09018 0.06455 0.66862 -0.11300
N 	N 	0.10217 0.02478 0.71791 -0.11500
N 	N 	0.05862 0.98642 0.68222 -0.10700
H 	H 	0.07599 0.09925 0.62463 0.04000
C 	C 	0.09724 0.99554 0.73416 0.04700
C 	C 	0.07521 0.97591 0.71566 0.00100
H 	H 	0.07079 0.95274 0.72850 0.03900
C 	C 	0.35781 0.69187 0.97501 0.09300
C 	C 	0.36937 0.68320 0.01416 0.08700
N 	N 	0.39177 0.66103 0.01854 -0.09300
C 	C 	0.40333 0.64713 0.98532 -0.03400
C 	C 	0.39158 0.65568 0.94610 0.04200
N 	N 	0.36908 0.67792 0.94177 -0.11300
N 	N 	0.33545 0.71415 0.97065 -0.11600
N 	N 	0.35820 0.69715 0.04741 -0.10700
H 	H 	0.40019 0.64465 0.91933 0.04200
C 	C 	0.32406 0.72804 0.00401 0.04900
C 	C 	0.33582 0.71944 0.04313 0.00000
H 	H 	0.32734 0.73060 0.06989 0.03900
C 	C 	0.91597 0.09340 0.32520 0.08500
C 	C 	0.93156 0.11299 0.29742 0.09400
N 	N 	0.91630 0.12473 0.26364 -0.11600
C 	C 	0.88592 0.11786 0.25653 0.04700
C 	C 	0.87031 0.09831 0.28437 0.00000
N 	N 	0.88567 0.08643 0.31815 -0.10600
N 	N 	0.93134 0.08139 0.35878 -0.09400
N 	N 	0.96181 0.11999 0.30444 -0.11400
H 	H 	0.84620 0.09247 0.27900 0.03900
C 	C 	0.96174 0.08832 0.36591 -0.03500
C 	C 	0.97723 0.10810 0.33811 0.04100
H 	H 	0.00144 0.11368 0.34302 0.04400
C 	C 	0.89899 0.13921 0.68654 0.09500
C 	C 	0.92596 0.15582 0.67675 0.08700
N 	N 	0.94268 0.14731 0.64442 -0.09400
C 	C 	0.93358 0.12283 0.62123 -0.03100
C 	C 	0.90631 0.10648 0.63074 0.04300
N 	N 	0.88962 0.11498 0.66326 -0.11200
N 	N 	0.88281 0.14710 0.71969 -0.11500
N 	N 	0.93556 0.17981 0.70024 -0.10700
H 	H 	0.89869 0.08690 0.61277 0.04700
C 	C 	0.89243 0.17116 0.74334 0.04700
C 	C 	0.91936 0.18781 0.73334 0.00100
H 	H 	0.92757 0.20667 0.75218 0.03900
C 	C 	0.61842 0.42785 0.99198 0.09400
C 	C 	0.58958 0.42672 0.01068 0.08800
N 	N 	0.57182 0.45295 0.01121 -0.08700
C 	C 	0.58184 0.48041 0.99392 -0.03600
C 	C 	0.61088 0.48146 0.97553 0.04400
N 	N 	0.62851 0.45516 0.97489 -0.11500
N 	N 	0.63606 0.40164 0.99114 -0.11600
N 	N 	0.57963 0.39937 0.02801 -0.10400
H 	H 	0.61924 0.50299 0.96150 0.03200
C 	C 	0.62621 0.37423 0.00853 0.04900
C 	C 	0.59742 0.37308 0.02738 0.00100
H 	H 	0.58924 0.35142 0.04127 0.04000
