data_crystal

_cell_length_a 18.49873
_cell_length_b 18.83335
_cell_length_c 34.79213
_cell_angle_alpha 95.44110
_cell_angle_beta  95.44170
_cell_angle_gamma 126.42684

_symmetry_space_group_name_	'P 1'
_symmetry_space_group_name_H-M	'P 1'

loop_
_symmetry_equiv_pos_as_xyz
  x,y,z

loop_
_atom_site_label
_atom_site_type_symbol
_atom_site_fract_x
_atom_site_fract_y
_atom_site_fract_z
_atom_site_charge
C 	C 	0.89099 0.98842 0.96220 0.10100
N 	N 	0.98087 0.04032 0.95975 -0.12700
C 	C 	0.02637 0.00455 0.95913 0.11500
N 	N 	0.98154 0.91617 0.95993 -0.13800
C 	C 	0.89143 0.86332 0.96185 0.12100
N 	N 	0.84603 0.89963 0.96359 -0.13700
C 	C 	0.95270 0.03342 0.49249 0.13900
N 	N 	0.90726 0.94503 0.49362 -0.14800
C 	C 	0.95129 0.90790 0.49226 0.12700
N 	N 	0.04077 0.95886 0.48939 -0.15300
C 	C 	0.08663 0.04729 0.48812 0.12500
N 	N 	0.04266 0.08485 0.48973 -0.14900
Cu	Cu	0.74482 0.33687 0.96028 0.92800
Cu	Cu	0.73648 0.27852 0.04677 0.87500
Cu	Cu	0.59604 0.29074 0.00774 0.89600
Cu	Cu	0.57391 0.32686 0.92696 0.90100
C 	C 	0.67948 0.29828 0.87707 0.30900
O 	O 	0.79600 0.46678 0.95706 -0.35200
C 	C 	0.65526 0.33342 0.09463 0.31100
O 	O 	0.60184 0.26193 0.95428 -0.63500
O 	O 	0.73099 0.35481 0.01527 -0.64300
O 	O 	0.80790 0.28004 0.96770 -0.36300
O 	O 	0.71029 0.18837 0.00568 -0.43800
O 	O 	0.64370 0.34037 0.88420 -0.37000
O 	O 	0.46433 0.22091 0.99730 -0.37500
C 	C 	0.41456 0.21761 0.96629 0.29800
C 	C 	0.75340 0.49973 0.96803 0.28300
O 	O 	0.66800 0.44485 0.97210 -0.39000
O 	O 	0.45223 0.27363 0.94162 -0.38700
O 	O 	0.73426 0.30049 0.90532 -0.35900
C 	C 	0.77031 0.20719 0.98324 0.29800
O 	O 	0.58832 0.30002 0.06411 -0.38400
O 	O 	0.72962 0.34083 0.09098 -0.39900
H 	H 	0.56363 0.19675 0.94339 0.17200
H 	H 	0.76739 0.41826 0.02879 0.17800
Cu	Cu	0.62160 0.20543 0.50877 0.92900
Cu	Cu	0.68503 0.21002 0.42365 0.87500
Cu	Cu	0.68415 0.35552 0.46216 0.90000
Cu	Cu	0.64948 0.38268 0.54273 0.90200
C 	C 	0.65926 0.26752 0.59196 0.31100
O 	O 	0.49366 0.16725 0.51083 -0.35800
C 	C 	0.64944 0.30249 0.37504 0.31200
O 	O 	0.70882 0.34617 0.51554 -0.63600
O 	O 	0.60942 0.22198 0.45384 -0.64000
O 	O 	0.66783 0.13362 0.50135 -0.36700
O 	O 	0.77015 0.22864 0.46587 -0.43600
O 	O 	0.62350 0.30905 0.58439 -0.37400
O 	O 	0.76307 0.48472 0.47364 -0.38300
C 	C 	0.75551 0.53463 0.49964 0.30000
C 	C 	0.46788 0.21491 0.49916 0.28900
O 	O 	0.52953 0.29915 0.49662 -0.39300
O 	O 	0.72085 0.50673 0.53141 -0.38300
O 	O 	0.65387 0.21149 0.56378 -0.35800
C 	C 	0.74390 0.16758 0.48778 0.29700
O 	O 	0.67836 0.36591 0.40596 -0.37400
O 	O 	0.63051 0.22459 0.37908 -0.41100
H 	H 	0.77445 0.37874 0.52661 0.17800
H 	H 	0.54602 0.19047 0.43960 0.17900
C 	C 	0.68213 0.26487 0.63334 -0.09900
C 	C 	0.73382 0.34431 0.66204 0.14600
C 	C 	0.73787 0.33929 0.70195 -0.08300
C 	C 	0.69411 0.25579 0.71368 0.02300
C 	C 	0.64994 0.17706 0.68505 0.08100
C 	C 	0.64338 0.18177 0.64505 -0.01100
H 	H 	0.77392 0.40030 0.72389 0.08400
C 	C 	0.68718 0.25084 0.75550 0.02300
H 	H 	0.60551 0.12051 0.62316 0.06900
C 	C 	0.60362 0.21819 0.76713 -0.08400
C 	C 	0.59885 0.22626 0.80704 0.14700
C 	C 	0.67919 0.27125 0.83577 -0.09900
C 	C 	0.76152 0.29838 0.82418 -0.01200
C 	C 	0.76553 0.28743 0.78425 0.08100
H 	H 	0.54256 0.18776 0.74512 0.08400
H 	H 	0.82310 0.33061 0.84610 0.06900
Br	Br	0.59848 0.06276 0.70003 -0.21600
Br	Br	0.80176 0.46038 0.64734 -0.26700
Br	Br	0.48149 0.17205 0.82170 -0.27500
Br	Br	0.87841 0.32271 0.76951 -0.21600
C 	C 	0.63905 0.34624 0.13443 -0.10100
C 	C 	0.70417 0.42681 0.16151 0.14900
C 	C 	0.70041 0.42995 0.20161 -0.08400
C 	C 	0.63234 0.35303 0.21490 0.02000
C 	C 	0.56177 0.27571 0.18735 0.08300
C 	C 	0.56520 0.27282 0.14728 -0.01400
H 	H 	0.75316 0.49063 0.22261 0.08000
C 	C 	0.64367 0.34885 0.25704 0.02200
H 	H 	0.51338 0.21147 0.12640 0.05900
C 	C 	0.59626 0.36412 0.28150 -0.08500
C 	C 	0.59885 0.35092 0.32046 0.14800
C 	C 	0.65060 0.32360 0.33530 -0.10400
C 	C 	0.70068 0.31181 0.31120 -0.01200
C 	C 	0.69722 0.32393 0.27226 0.08300
H 	H 	0.55515 0.38351 0.26989 0.08100
H 	H 	0.74137 0.29179 0.32261 0.04800
Br	Br	0.46360 0.17133 0.20419 -0.22300
Br	Br	0.79848 0.53296 0.14425 -0.25400
Br	Br	0.52698 0.36521 0.35197 -0.25400
Br	Br	0.76383 0.30325 0.23987 -0.22900
C 	C 	0.87151 0.69529 0.52966 -0.02000
C 	C 	0.80408 0.62985 0.49766 -0.09900
C 	C 	0.78434 0.65605 0.46392 0.09700
C 	C 	0.83470 0.74759 0.46233 -0.06900
C 	C 	0.90225 0.81285 0.49428 -0.02700
C 	C 	0.92013 0.78680 0.52844 0.05000
C 	C 	0.99154 0.85623 0.56342 -0.17300
H 	H 	0.88650 0.67482 0.55546 0.05000
H 	H 	0.82108 0.76820 0.43626 0.05300
C 	C 	0.71092 0.58690 0.42937 -0.21000
H 	H 	0.99025 0.82521 0.58921 0.07200
H 	H 	0.97909 0.90582 0.57225 0.07300
H 	H 	0.06064 0.89169 0.55585 0.06800
H 	H 	0.64753 0.53530 0.43950 0.08700
H 	H 	0.73543 0.55392 0.41298 0.10100
H 	H 	0.69279 0.61794 0.40877 0.08300
C 	C 	0.82920 0.03497 0.45985 -0.04600
C 	C 	0.90228 0.07109 0.49115 -0.03500
C 	C 	0.91891 0.13444 0.52304 0.05600
C 	C 	0.86326 0.16230 0.52250 -0.02200
C 	C 	0.79067 0.12654 0.49101 -0.09500
C 	C 	0.77219 0.06093 0.45986 0.07500
C 	C 	0.69364 0.02071 0.42594 -0.16500
H 	H 	0.81599 0.98554 0.43567 0.04200
H 	H 	0.87754 0.21312 0.54623 0.04700
C 	C 	0.99600 0.17285 0.55743 -0.17600
H 	H 	0.68006 0.96147 0.40710 0.05800
H 	H 	0.70979 0.07162 0.40750 0.03400
H 	H 	0.63010 0.99796 0.43703 0.05100
H 	H 	0.06266 0.21378 0.54760 0.06800
H 	H 	0.98937 0.11777 0.57016 0.07700
H 	H 	0.99580 0.21660 0.58114 0.07500
C 	C 	0.24689 0.16268 0.52223 -0.06800
C 	C 	0.18517 0.10314 0.48778 -0.02800
C 	C 	0.21790 0.08659 0.45567 0.05100
C 	C 	0.31071 0.12325 0.45992 -0.02100
C 	C 	0.37145 0.17873 0.49518 -0.09800
C 	C 	0.33995 0.20042 0.52630 0.09400
C 	C 	0.40445 0.26048 0.56445 -0.20200
H 	H 	0.22166 0.17609 0.54662 0.05000
H 	H 	0.33554 0.10818 0.43584 0.03900
C 	C 	0.15354 0.02682 0.41749 -0.17400
H 	H 	0.36939 0.27185 0.58562 0.07400
H 	H 	0.46130 0.32701 0.55890 0.06300
H 	H 	0.43287 0.22912 0.57832 0.08600
H 	H 	0.10443 0.04121 0.40954 0.07400
H 	H 	0.11513 0.95530 0.42041 0.06700
H 	H 	0.19135 0.03793 0.39296 0.07200
C 	C 	0.82835 0.73647 0.99779 -0.04900
C 	C 	0.84374 0.76679 0.96198 -0.03300
C 	C 	0.83069 0.70931 0.92830 0.05700
C 	C 	0.80799 0.62468 0.93151 -0.03200
C 	C 	0.79379 0.59476 0.96740 -0.08500
C 	C 	0.80463 0.65132 0.00093 0.07400
C 	C 	0.79082 0.62121 0.04002 -0.19700
H 	H 	0.83849 0.78062 0.02363 0.04500
H 	H 	0.79855 0.58087 0.90570 0.05000
C 	C 	0.84399 0.73912 0.88915 -0.18700
H 	H 	0.81743 0.67807 0.06446 0.08100
H 	H 	0.82767 0.59264 0.04644 0.07800
H 	H 	0.71676 0.56943 0.03941 0.08100
H 	H 	0.91821 0.78609 0.88866 0.07700
H 	H 	0.81251 0.77333 0.88396 0.07400
H 	H 	0.81137 0.68102 0.86454 0.07300
C 	C 	0.78936 0.10812 0.93998 -0.01800
C 	C 	0.80029 0.14991 0.97796 -0.09400
C 	C 	0.83414 0.13199 0.01089 0.08600
C 	C 	0.85401 0.07077 0.00525 -0.07700
C 	C 	0.84558 0.03099 0.96730 -0.00600
C 	C 	0.81097 0.04808 0.93440 0.04600
C 	C 	0.80049 0.00539 0.89331 -0.17200
H 	H 	0.76329 0.12166 0.91475 0.05100
H 	H 	0.88072 0.05768 0.03043 0.05500
C 	C 	0.85003 0.17836 0.05204 -0.19400
H 	H 	0.75882 0.01294 0.87141 0.07600
H 	H 	0.76567 0.93235 0.89142 0.06700
H 	H 	0.86896 0.03756 0.88541 0.07900
H 	H 	0.78363 0.14730 0.06187 0.05700
H 	H 	0.88463 0.25114 0.05311 0.04700
H 	H 	0.89448 0.17258 0.07316 0.07200
C 	C 	0.28110 0.17691 0.99588 -0.01400
C 	C 	0.31515 0.16374 0.96387 -0.09900
C 	C 	0.25396 0.09923 0.92987 0.09500
C 	C 	0.15940 0.04989 0.92828 -0.06900
C 	C 	0.12543 0.06256 0.96042 -0.02500
C 	C 	0.18660 0.12608 0.99464 0.05400
C 	C 	0.15150 0.14004 0.02979 -0.18900
H 	H 	0.32836 0.22685 0.02183 0.04400
H 	H 	0.11205 0.00068 0.90217 0.05300
C 	C 	0.28902 0.08313 0.89523 -0.20500
H 	H 	0.20773 0.18489 0.05555 0.07200
H 	H 	0.10172 0.07479 0.03863 0.07500
H 	H 	0.11770 0.17115 0.02246 0.07400
H 	H 	0.34116 0.07367 0.90514 0.07700
H 	H 	0.31993 0.14135 0.88001 0.08800
H 	H 	0.23319 0.02188 0.87366 0.08100
