data_crystal

_cell_length_a 15.63824
_cell_length_b 15.97002
_cell_length_c 35.07621
_cell_angle_alpha 95.39879
_cell_angle_beta  95.39984
_cell_angle_gamma 126.69510

_symmetry_space_group_name_	'P 1'
_symmetry_space_group_name_H-M	'P 1'

loop_
_symmetry_equiv_pos_as_xyz
  x,y,z

loop_
_atom_site_label
_atom_site_type_symbol
_atom_site_fract_x
_atom_site_fract_y
_atom_site_fract_z
_atom_site_charge
C 	C 	0.01006 0.05669 0.96702 -0.05100
C 	C 	0.01412 0.90855 0.97119 -0.05100
H 	H 	0.05968 0.87742 0.97272 0.05000
C 	C 	0.02207 0.94679 0.49926 -0.04700
C 	C 	0.04310 0.11013 0.49907 -0.04900
H 	H 	0.05624 0.90429 0.49844 0.05200
C 	C 	0.06734 0.01548 0.96943 0.01000
H 	H 	0.05270 0.14014 0.96565 0.05300
C 	C 	0.08766 0.05502 0.49832 0.00900
H 	H 	0.09348 0.19414 0.49790 0.04900
C 	C 	0.89877 0.99200 0.96709 0.01300
C 	C 	0.90253 0.84110 0.97066 0.01400
C 	C 	0.84351 0.88271 0.96889 -0.05400
H 	H 	0.75714 0.83156 0.96899 0.05000
C 	C 	0.93222 0.05487 0.50101 0.00600
C 	C 	0.86782 0.94627 0.50213 -0.04800
C 	C 	0.91271 0.89257 0.50088 0.00700
H 	H 	0.78227 0.90317 0.50318 0.05200
Cu	Cu	0.77093 0.33598 0.95965 0.92400
Cu	Cu	0.73585 0.23207 0.03880 0.87100
Cu	Cu	0.60433 0.29589 0.00863 0.89600
Cu	Cu	0.56809 0.32650 0.92617 0.90300
C 	C 	0.70592 0.31389 0.87724 0.31300
O 	O 	0.82858 0.49358 0.96149 -0.34700
C 	C 	0.65344 0.29962 0.09270 0.30200
O 	O 	0.60255 0.25237 0.95444 -0.63000
O 	O 	0.75636 0.34597 0.01478 -0.64600
O 	O 	0.83371 0.25520 0.96273 -0.35900
O 	O 	0.70224 0.13545 0.99357 -0.43400
O 	O 	0.66289 0.36099 0.88678 -0.37700
O 	O 	0.45949 0.25745 0.00099 -0.38500
C 	C 	0.38907 0.20878 0.96787 0.31500
C 	C 	0.77283 0.52803 0.97163 0.28600
O 	O 	0.67019 0.45935 0.97371 -0.39200
O 	O 	0.41783 0.23939 0.93479 -0.39000
O 	O 	0.76034 0.30187 0.90429 -0.36300
C 	C 	0.77734 0.16069 0.97299 0.29800
O 	O 	0.60560 0.31818 0.06522 -0.37600
O 	O 	0.73349 0.29622 0.08699 -0.40600
H 	H 	0.55528 0.17438 0.94529 0.16200
H 	H 	0.80903 0.41792 0.03102 0.17300
Cu	Cu	0.60123 0.19852 0.50838 0.92700
Cu	Cu	0.68702 0.21281 0.42561 0.87200
Cu	Cu	0.65500 0.36612 0.45922 0.90000
Cu	Cu	0.60819 0.39399 0.53839 0.89900
C 	C 	0.62981 0.26781 0.59066 0.30900
O 	O 	0.44264 0.13826 0.50837 -0.35700
C 	C 	0.62031 0.29815 0.37330 0.30700
O 	O 	0.69037 0.36396 0.51311 -0.63700
O 	O 	0.58508 0.21152 0.45320 -0.64100
O 	O 	0.67422 0.12982 0.50404 -0.36500
O 	O 	0.79187 0.24736 0.46893 -0.43800
O 	O 	0.58335 0.31194 0.58123 -0.38700
O 	O 	0.73171 0.51779 0.46798 -0.37900
C 	C 	0.73389 0.57624 0.49789 0.31600
C 	C 	0.40467 0.18778 0.49587 0.29900
O 	O 	0.47234 0.28638 0.49168 -0.39800
O 	O 	0.67279 0.53459 0.52432 -0.39400
O 	O 	0.63973 0.21224 0.56361 -0.35000
C 	C 	0.76721 0.17848 0.49172 0.30700
O 	O 	0.64219 0.37076 0.40273 -0.36900
O 	O 	0.61519 0.21507 0.37916 -0.42100
H 	H 	0.76902 0.41015 0.52424 0.16800
H 	H 	0.50956 0.16550 0.43838 0.17600
C 	C 	0.76657 0.37668 0.77779 -0.11700
C 	C 	0.70522 0.27418 0.75513 0.00400
C 	C 	0.65644 0.18537 0.77356 0.12500
C 	C 	0.66390 0.19936 0.81418 -0.03700
C 	C 	0.71843 0.30142 0.83644 -0.12000
C 	C 	0.77369 0.39060 0.81830 0.19400
C 	C 	0.68093 0.25979 0.71216 0.00400
O 	O 	0.60135 0.08504 0.75198 -0.27200
H 	H 	0.62314 0.13049 0.82807 0.05300
O 	O 	0.83031 0.49116 0.83989 -0.28500
H 	H 	0.80529 0.44544 0.76383 0.07200
C 	C 	0.58236 0.23450 0.69363 0.11800
C 	C 	0.56431 0.23246 0.65359 -0.03400
C 	C 	0.64504 0.25789 0.63177 -0.11600
C 	C 	0.74278 0.28082 0.65010 0.18700
C 	C 	0.76013 0.28117 0.69015 -0.10900
O 	O 	0.50355 0.21184 0.71467 -0.27800
H 	H 	0.48814 0.21302 0.63962 0.06200
O 	O 	0.82162 0.30358 0.62907 -0.28200
H 	H 	0.83620 0.30065 0.70425 0.07600
H 	H 	0.90521 0.51481 0.84797 0.15200
H 	H 	0.51923 0.28117 0.72390 0.14600
H 	H 	0.86864 0.38184 0.63096 0.14100
H 	H 	0.52476 0.05789 0.74547 0.15600
C 	C 	0.60891 0.22986 0.19271 -0.11400
C 	C 	0.60156 0.30714 0.21055 0.00300
C 	C 	0.60395 0.37801 0.18874 0.11900
C 	C 	0.61772 0.37354 0.14979 -0.03300
C 	C 	0.62791 0.29779 0.13229 -0.12100
C 	C 	0.62026 0.22384 0.15366 0.18900
C 	C 	0.59677 0.31658 0.25260 0.00600
O 	O 	0.59645 0.45378 0.20576 -0.27400
H 	H 	0.62297 0.43048 0.13356 0.06100
O 	O 	0.62655 0.14713 0.13668 -0.30400
H 	H 	0.60696 0.17497 0.20929 0.06800
C 	C 	0.50636 0.23376 0.26614 0.11400
C 	C 	0.51150 0.23218 0.30617 -0.03300
C 	C 	0.60642 0.31283 0.33292 -0.12100
C 	C 	0.69387 0.39951 0.31962 0.18800
C 	C 	0.68859 0.40130 0.27960 -0.10900
O 	O 	0.41296 0.15444 0.24031 -0.27400
H 	H 	0.44303 0.16622 0.31626 0.05300
O 	O 	0.78561 0.48121 0.34557 -0.28400
H 	H 	0.75794 0.46610 0.26944 0.07900
H 	H 	0.55052 0.08520 0.12517 0.13800
H 	H 	0.41964 0.09693 0.23406 0.14100
H 	H 	0.83414 0.46052 0.34765 0.13700
H 	H 	0.51771 0.41975 0.20108 0.15000
C 	C 	0.84620 0.78085 0.49993 0.04900
C 	C 	0.79387 0.68715 0.49894 -0.10500
C 	C 	0.88140 0.10624 0.49908 0.04400
C 	C 	0.83099 0.14117 0.49652 -0.10900
C 	C 	0.20052 0.10783 0.49685 0.04200
C 	C 	0.29354 0.14417 0.49605 -0.10400
C 	C 	0.85058 0.72927 0.97137 0.03500
C 	C 	0.81619 0.63796 0.97174 -0.09000
C 	C 	0.81251 0.09449 0.96902 -0.10300
C 	C 	0.84511 0.04168 0.96756 0.03600
C 	C 	0.18121 0.08315 0.96950 0.04700
C 	C 	0.27650 0.14047 0.96912 -0.10800
