data_crystal

_cell_length_a 30.79883
_cell_length_b 31.11519
_cell_length_c 26.52463
_cell_angle_alpha 95.53240
_cell_angle_beta  95.52735
_cell_angle_gamma 125.56995

_symmetry_space_group_name_	'P 1'
_symmetry_space_group_name_H-M	'P 1'

loop_
_symmetry_equiv_pos_as_xyz
  x,y,z

loop_
_atom_site_label
_atom_site_type_symbol
_atom_site_fract_x
_atom_site_fract_y
_atom_site_fract_z
_atom_site_charge
C 	C 	0.02034 0.04927 0.96950 -0.07700
C 	C 	0.04603 0.02428 0.96381 0.03100
H 	H 	0.04244 0.09182 0.96874 0.05000
C 	C 	0.00902 0.03712 0.44504 -0.07400
C 	C 	0.03609 0.01347 0.45006 0.03000
H 	H 	0.03132 0.07885 0.44077 0.05100
C 	C 	0.09472 0.04510 0.44932 -0.00300
C 	C 	0.11324 0.03020 0.40979 -0.03600
C 	C 	0.16893 0.05891 0.41012 -0.04100
C 	C 	0.20655 0.10281 0.44996 0.00800
C 	C 	0.18802 0.11804 0.48923 -0.04100
C 	C 	0.13231 0.08928 0.48892 -0.03500
C 	C 	0.26531 0.13260 0.45068 0.01000
C 	C 	0.29865 0.13298 0.49102 -0.04200
C 	C 	0.28809 0.16038 0.41084 -0.04200
H 	H 	0.18288 0.04684 0.37967 0.04100
H 	H 	0.21676 0.15205 0.51999 0.04100
H 	H 	0.11837 0.10098 0.51966 0.03900
H 	H 	0.28139 0.11146 0.52182 0.04300
H 	H 	0.26271 0.16044 0.37962 0.04200
C 	C 	0.10337 0.05583 0.95786 -0.00200
C 	C 	0.11733 0.04306 0.91291 -0.03600
C 	C 	0.17194 0.06862 0.90964 -0.04200
C 	C 	0.21301 0.10720 0.95126 0.00900
C 	C 	0.19908 0.12135 0.99547 -0.04700
C 	C 	0.14446 0.09577 0.99875 -0.04000
C 	C 	0.27035 0.13061 0.94975 0.00800
C 	C 	0.28773 0.09769 0.94791 -0.04200
H 	H 	0.18233 0.05781 0.87517 0.04100
H 	H 	0.23052 0.15115 0.02777 0.04700
H 	H 	0.13407 0.10587 0.03360 0.04400
H 	H 	0.25879 0.05474 0.94582 0.04200
H 	H 	0.08586 0.01254 0.88100 0.03900
C 	C 	0.96606 0.01924 0.97620 0.03300
C 	C 	0.92516 0.03240 0.44139 -0.00300
C 	C 	0.90547 0.04130 0.48366 -0.03600
C 	C 	0.88312 0.06952 0.48117 -0.04200
C 	C 	0.88024 0.08902 0.43637 0.00700
C 	C 	0.89860 0.07889 0.39359 -0.04100
C 	C 	0.92102 0.05071 0.39610 -0.03600
C 	C 	0.86005 0.12187 0.43504 0.01000
C 	C 	0.81120 0.10226 0.40224 -0.04400
C 	C 	0.79096 0.13255 0.40271 -0.02900
C 	C 	0.81954 0.18262 0.43582 -0.01100
C 	C 	0.86891 0.20274 0.46776 -0.03000
C 	C 	0.88912 0.17249 0.46739 -0.04400
H 	H 	0.90851 0.02732 0.51877 0.03800
H 	H 	0.86870 0.07685 0.51426 0.03900
H 	H 	0.89642 0.09368 0.35880 0.04100
H 	H 	0.93592 0.04383 0.36319 0.03900
H 	H 	0.78854 0.06329 0.37705 0.04200
H 	H 	0.75271 0.11669 0.37798 0.04200
H 	H 	0.92708 0.18814 0.49254 0.04100
C 	C 	0.35433 0.16097 0.49149 -0.03000
C 	C 	0.37696 0.18868 0.45166 -0.00600
C 	C 	0.34375 0.18831 0.41135 -0.03000
C 	C 	0.93869 0.04519 0.98133 -0.01000
C 	C 	0.92811 0.06418 0.93948 -0.03500
C 	C 	0.89970 0.08629 0.94342 -0.04200
C 	C 	0.88167 0.08961 0.98925 0.00200
C 	C 	0.89302 0.07144 0.03140 -0.03700
C 	C 	0.92138 0.04925 0.02744 -0.02900
C 	C 	0.84989 0.11100 0.99263 0.00500
C 	C 	0.87206 0.16018 0.02520 -0.03900
C 	C 	0.79202 0.15482 0.99415 -0.01800
C 	C 	0.76922 0.10501 0.96266 -0.02900
C 	C 	0.79803 0.08315 0.96188 -0.04500
H 	H 	0.94128 0.06116 0.90373 0.03800
H 	H 	0.89136 0.10049 0.91078 0.03900
H 	H 	0.87932 0.07392 0.06695 0.04100
H 	H 	0.92954 0.03485 0.06001 0.03900
H 	H 	0.91201 0.18189 0.04917 0.04200
H 	H 	0.72966 0.08373 0.93803 0.03600
H 	H 	0.78042 0.04496 0.93691 0.04000
C 	C 	0.34277 0.12038 0.95017 -0.03000
H 	H 	0.35598 0.09482 0.94972 0.04200
H 	H 	0.37980 0.16113 0.52280 0.04500
C 	C 	0.38072 0.17606 0.95421 -0.00700
C 	C 	0.30825 0.18619 0.95254 -0.04300
H 	H 	0.29518 0.21188 0.95368 0.04100
H 	H 	0.36103 0.20975 0.38048 0.04100
C 	C 	0.84322 0.18206 0.02588 -0.02200
C 	C 	0.76484 0.17985 0.99072 0.05100
H 	H 	0.86112 0.22061 0.05029 0.04100
O 	O 	0.56215 0.22203 0.99759 -0.35900
O 	O 	0.66972 0.20693 0.99504 -0.37000
N 	N 	0.54323 0.20601 0.60203 -0.11500
N 	N 	0.52745 0.19521 0.75014 -0.11700
C 	C 	0.60216 0.21902 0.26565 0.07300
C 	C 	0.58530 0.20338 0.15528 0.09300
N 	N 	0.54639 0.16430 0.13078 -0.10700
N 	N 	0.57027 0.18617 0.28595 -0.12100
C 	C 	0.79639 0.21159 0.43983 0.05000
C 	C 	0.77703 0.23574 0.44471 -0.11700
H 	H 	0.89119 0.24140 0.49349 0.03600
C 	C 	0.43437 0.21804 0.45244 0.05000
C 	C 	0.74223 0.20085 0.98631 -0.12000
C 	C 	0.36327 0.20883 0.95479 -0.03000
C 	C 	0.43786 0.20000 0.96119 0.04800
C 	C 	0.48589 0.22073 0.96812 -0.10600
C 	C 	0.54327 0.24650 0.97772 0.30200
C 	C 	0.71563 0.22591 0.97905 0.31200
H 	H 	0.59718 0.23367 0.90457 0.18000
O 	O 	0.71734 0.24838 0.48192 -0.44000
C 	C 	0.75389 0.26418 0.45254 0.31100
H 	H 	0.62555 0.25822 0.41322 0.17100
C 	C 	0.56727 0.23102 0.74038 0.08400
C 	C 	0.57822 0.23908 0.63499 0.07700
C 	C 	0.48242 0.24300 0.45283 -0.10100
Cu	Cu	0.64034 0.24945 0.99880 0.92800
Cu	Cu	0.68649 0.25363 0.89175 0.86800
O 	O 	0.63441 0.25572 0.92540 -0.64200
O 	O 	0.73350 0.26301 0.95056 -0.44200
O 	O 	0.65807 0.25684 0.07191 -0.34800
O 	O 	0.65763 0.26052 0.82839 -0.41200
O 	O 	0.57085 0.27372 0.49109 -0.37700
C 	C 	0.53958 0.27325 0.45295 0.31100
C 	C 	0.61717 0.27589 0.72816 0.00200
C 	C 	0.62206 0.28057 0.67629 -0.00400
C 	C 	0.64215 0.26023 0.24027 -0.00200
C 	C 	0.63407 0.25237 0.18595 0.00500
H 	H 	0.39241 0.25191 0.95786 0.04000
Cu	Cu	0.72958 0.29680 0.54048 0.86900
O 	O 	0.64899 0.29705 0.42855 -0.64100
C 	C 	0.95318 0.00699 0.44568 0.02900
C 	C 	0.65879 0.29111 0.10612 0.28700
C 	C 	0.66189 0.30410 0.82114 0.28300
O 	O 	0.57687 0.29698 0.97328 -0.39500
Cu	Cu	0.64898 0.31333 0.50014 0.89800
O 	O 	0.77421 0.30955 0.43604 -0.36800
O 	O 	0.56003 0.30639 0.42002 -0.39000
C 	C 	0.67275 0.29292 0.16148 -0.06200
C 	C 	0.68871 0.30866 0.26997 -0.06200
C 	C 	0.68102 0.32383 0.61155 0.28300
O 	O 	0.72476 0.32240 0.35945 -0.35100
C 	C 	0.66079 0.31515 0.76821 -0.06700
C 	C 	0.69079 0.32271 0.32534 0.28800
O 	O 	0.65105 0.32649 0.57455 -0.36900
O 	O 	0.63494 0.31351 0.09293 -0.37600
O 	O 	0.72456 0.32733 0.60378 -0.41200
C 	C 	0.67024 0.32496 0.66463 -0.06600
H 	H 	0.08449 0.99623 0.37899 0.04000
C 	C 	0.01734 0.96925 0.96485 -0.07800
H 	H 	0.03727 0.94995 0.96083 0.05300
H 	H 	0.02818 0.94127 0.45961 0.05100
C 	C 	0.00727 0.95961 0.45579 -0.07400
C 	C 	0.96323 0.93926 0.97149 0.04300
C 	C 	0.93758 0.96418 0.97719 -0.07900
H 	H 	0.89555 0.94084 0.98211 0.05200
C 	C 	0.95147 0.92928 0.45641 0.03000
C 	C 	0.92442 0.95300 0.45132 -0.07400
H 	H 	0.88125 0.92960 0.45176 0.05100
Cu	Cu	0.67214 0.33480 0.93262 0.89600
Cu	Cu	0.64670 0.35259 0.03435 0.89700
O 	O 	0.68751 0.33354 0.00395 -0.63800
O 	O 	0.71423 0.41230 0.94246 -0.38000
C 	C 	0.71370 0.44385 0.97916 0.28900
O 	O 	0.68229 0.42445 0.01401 -0.38500
O 	O 	0.65957 0.33380 0.85843 -0.37200
H 	H 	0.72663 0.35574 0.01953 0.17200
Cu	Cu	0.73360 0.34120 0.43262 0.92900
Cu	Cu	0.63146 0.33862 0.39793 0.89700
O 	O 	0.76397 0.41924 0.43301 -0.35700
O 	O 	0.72847 0.34861 0.50630 -0.64100
O 	O 	0.66946 0.34766 0.33857 -0.37700
C 	C 	0.74067 0.43979 0.45234 0.30200
O 	O 	0.68992 0.40798 0.45799 -0.39100
H 	H 	0.75170 0.38572 0.52663 0.18000
C 	C 	0.71044 0.36772 0.70474 0.00200
C 	C 	0.70592 0.36266 0.75660 -0.00400
C 	C 	0.75611 0.41691 0.69258 0.08400
C 	C 	0.74831 0.40562 0.79793 0.07500
N 	N 	0.78211 0.43989 0.83091 -0.11800
N 	N 	0.79255 0.45617 0.68287 -0.11700
C 	C 	0.72202 0.33857 0.19117 -0.00200
C 	C 	0.73000 0.34654 0.24548 0.00500
C 	C 	0.76398 0.37778 0.16578 0.07200
C 	C 	0.77989 0.39438 0.27615 0.09200
N 	N 	0.81968 0.43256 0.30065 -0.10800
N 	N 	0.79742 0.40905 0.14549 -0.12100
C 	C 	0.92132 0.87234 0.46136 -0.00300
C 	C 	0.93394 0.85862 0.50654 -0.03600
C 	C 	0.91062 0.80478 0.50883 -0.04200
C 	C 	0.87452 0.76424 0.46596 0.00800
C 	C 	0.86029 0.77777 0.42151 -0.04200
C 	C 	0.88360 0.83162 0.41923 -0.03500
C 	C 	0.85391 0.70807 0.46658 0.00900
C 	C 	0.86873 0.68290 0.43310 -0.04200
C 	C 	0.84834 0.62931 0.43285 -0.03000
C 	C 	0.81308 0.60054 0.46608 -0.00700
C 	C 	0.79891 0.62583 0.50015 -0.03000
C 	C 	0.81932 0.67949 0.50046 -0.04300
C 	C 	0.78863 0.54413 0.46272 0.04800
C 	C 	0.76733 0.49664 0.45871 -0.10400
H 	H 	0.96283 0.88979 0.53935 0.03900
H 	H 	0.92165 0.79468 0.54339 0.04100
H 	H 	0.83204 0.74667 0.38841 0.04100
H 	H 	0.87358 0.84182 0.38422 0.03900
H 	H 	0.89580 0.70479 0.40712 0.04200
H 	H 	0.85940 0.60997 0.40636 0.04400
H 	H 	0.77154 0.60378 0.52585 0.04100
H 	H 	0.80776 0.69862 0.52654 0.04200
C 	C 	0.74496 0.50186 0.97829 -0.08900
C 	C 	0.75442 0.52016 0.93132 0.01700
C 	C 	0.78224 0.57496 0.93043 -0.06500
C 	C 	0.80085 0.61195 0.97642 0.02600
C 	C 	0.79200 0.59382 0.02340 -0.06100
C 	C 	0.76426 0.53906 0.02436 0.02100
C 	C 	0.82916 0.66958 0.97537 -0.01400
C 	C 	0.88351 0.70721 0.00041 -0.01200
C 	C 	0.91014 0.76194 0.99992 -0.06600
C 	C 	0.88264 0.77936 0.97441 0.02800
C 	C 	0.82840 0.74187 0.94935 -0.05100
C 	C 	0.80169 0.68712 0.94982 -0.02700
C 	C 	0.91036 0.83564 0.97340 -0.01700
C 	C 	0.93410 0.88283 0.97256 -0.02600
H 	H 	0.73947 0.49192 0.89545 0.04600
H 	H 	0.78914 0.58867 0.89401 0.05100
H 	H 	0.80630 0.62212 0.05910 0.04800
H 	H 	0.75776 0.52558 0.06091 0.03200
H 	H 	0.90508 0.69404 0.02011 0.03700
H 	H 	0.95214 0.79073 0.01927 0.05200
H 	H 	0.80693 0.75509 0.92951 0.04400
H 	H 	0.75966 0.65838 0.93058 0.03800
