data_crystal

_cell_length_a 20.66916
_cell_length_b 21.44929
_cell_length_c 31.54648
_cell_angle_alpha 60.79017
_cell_angle_beta  118.90480
_cell_angle_gamma 133.18815

_symmetry_space_group_name_	'P 1'
_symmetry_space_group_name_H-M	'P 1'

loop_
_symmetry_equiv_pos_as_xyz
  x,y,z

loop_
_atom_site_label
_atom_site_type_symbol
_atom_site_fract_x
_atom_site_fract_y
_atom_site_fract_z
_atom_site_charge
Co	Co	0.00750 0.09630 0.09253 1.16000
Co	Co	0.01095 0.08723 0.59382 1.15600
O 	O 	0.01577 0.19833 0.63394 -0.42900
C 	C 	0.02294 0.01068 0.76563 0.15400
O 	O 	0.02159 0.98637 0.11943 -0.56600
O 	O 	0.00194 0.99866 0.97668 -0.33200
Co	Co	0.00954 0.85380 0.63899 1.16900
O 	O 	0.02805 0.08113 0.73301 -0.39300
O 	O 	0.02280 0.95950 0.75252 -0.33000
C 	C 	0.02459 0.99324 0.81876 0.02600
H 	H 	0.02633 0.37138 0.54106 0.06200
O 	O 	0.00065 0.75385 0.09264 -0.44300
O 	O 	0.05440 0.12177 0.03766 -0.49600
O 	O 	0.04738 0.92622 0.08275 -0.74700
Co	Co	0.05502 0.00699 0.55021 1.14200
O 	O 	0.03672 0.90799 0.58205 -0.74500
C 	C 	0.03227 0.02208 0.33633 -0.09600
C 	C 	0.02749 0.01448 0.38216 -0.09800
H 	H 	0.03509 0.66203 0.17390 0.04500
H 	H 	0.01573 0.57206 0.13844 0.07500
C 	C 	0.00261 0.94832 0.96312 0.20700
Co	Co	0.05975 0.02244 0.04979 1.14700
O 	O 	0.06122 0.11219 0.54075 -0.49700
O 	O 	0.05668 0.15881 0.19074 -0.42300
Co	Co	0.07256 0.86377 0.55632 1.16000
C 	C 	0.06126 0.05134 0.88414 -0.11700
H 	H 	0.07626 0.08688 0.31451 0.03800
H 	H 	0.07171 0.07276 0.39603 0.04200
H 	H 	0.06932 0.40147 0.05521 0.07300
H 	H 	0.07591 0.53412 0.75168 0.07100
H 	H 	0.00745 0.28253 0.53274 0.06900
Co	Co	0.09236 0.88475 0.06179 1.17300
O 	O 	0.08441 0.82646 0.18159 -0.38900
C 	C 	0.07309 0.06486 0.83903 -0.06700
H 	H 	0.08596 0.66823 0.71470 0.03500
N 	N 	0.09379 0.36342 0.07993 -0.20200
H 	H 	0.08833 0.32456 0.06588 0.08800
C 	C 	0.10010 0.23209 0.63849 0.31000
N 	N 	0.08580 0.60134 0.15041 -0.19500
H 	H 	0.10174 0.10708 0.89963 0.04900
C 	C 	0.99993 0.96612 0.90975 0.07200
O 	O 	0.99336 0.98454 0.47610 -0.31600
O 	O 	0.99641 0.87687 0.99503 -0.34000
C 	C 	0.95599 0.95990 0.26215 0.27600
O 	O 	0.96370 0.84879 0.49652 -0.37500
O 	O 	0.12136 0.84583 0.68115 -0.38900
N 	N 	0.21347 0.25816 0.73970 -0.20300
H 	H 	0.23608 0.26048 0.77688 0.08000
H 	H 	0.20777 0.21230 0.73189 0.09000
C 	C 	0.71067 0.29834 0.00846 0.02300
C 	C 	0.61540 0.25285 0.99833 -0.06100
C 	C 	0.58076 0.28501 0.00454 0.02600
C 	C 	0.63914 0.36842 0.01316 -0.07800
C 	C 	0.73336 0.41425 0.02422 0.03400
C 	C 	0.77001 0.37806 0.02372 -0.07900
H 	H 	0.56852 0.19112 0.98752 0.04300
H 	H 	0.61132 0.39449 0.01571 0.05400
H 	H 	0.84316 0.41120 0.03499 0.05300
C 	C 	0.72370 0.28323 0.53109 0.03900
C 	C 	0.63259 0.22181 0.53626 -0.08800
C 	C 	0.59613 0.24505 0.54885 0.04500
C 	C 	0.65399 0.32007 0.56646 -0.08800
C 	C 	0.74199 0.38397 0.55906 0.04400
C 	C 	0.77685 0.36724 0.54001 -0.08500
H 	H 	0.59040 0.15653 0.53080 0.04800
H 	H 	0.62745 0.33318 0.58114 0.05600
H 	H 	0.84312 0.41938 0.53124 0.05400
C 	C 	0.27475 0.65838 0.19666 0.04200
C 	C 	0.35898 0.72137 0.18286 -0.08800
C 	C 	0.39926 0.69416 0.17751 0.04600
C 	C 	0.35394 0.60529 0.18292 -0.08600
C 	C 	0.26906 0.54233 0.19469 0.04400
C 	C 	0.23165 0.56781 0.20472 -0.08800
H 	H 	0.39306 0.79113 0.17644 0.05800
H 	H 	0.38401 0.58515 0.17673 0.05700
H 	H 	0.16810 0.51817 0.21669 0.05000
C 	C 	0.30121 0.65046 0.71378 0.03800
C 	C 	0.24260 0.57578 0.69366 -0.08600
C 	C 	0.27985 0.54158 0.69135 0.04100
C 	C 	0.37406 0.58618 0.70425 -0.08400
C 	C 	0.43175 0.66333 0.71979 0.04500
C 	C 	0.39559 0.68884 0.73054 -0.08500
H 	H 	0.17018 0.54614 0.67920 0.04700
H 	H 	0.40284 0.56369 0.69904 0.05700
H 	H 	0.44162 0.74437 0.74716 0.05700
Co	Co	0.92961 0.92688 0.16818 1.19600
Co	Co	0.99130 0.85715 0.12971 1.19700
C 	C 	0.23565 0.07937 0.04476 0.32000
Co	Co	0.91876 0.07425 0.16495 1.15800
C 	C 	0.91486 0.71954 0.08399 0.33900
O 	O 	0.92985 0.17210 0.09985 -0.40700
O 	O 	0.96098 0.03099 0.14303 -0.77200
C 	C 	0.88937 0.15405 0.05646 0.31200
O 	O 	0.92365 0.82274 0.17635 -0.45900
C 	C 	0.75245 0.89867 0.14844 0.30100
C 	C 	0.10860 0.22323 0.15865 0.30000
C 	C 	0.14744 0.83700 0.17144 0.30200
O 	O 	0.90004 0.10842 0.04679 -0.40100
O 	O 	0.78586 0.98271 0.13516 -0.36600
O 	O 	0.79089 0.87304 0.14330 -0.39100
O 	O 	0.11072 0.20778 0.12301 -0.39300
O 	O 	0.18002 0.89521 0.13147 -0.38100
O 	O 	0.90011 0.98184 0.23300 -0.37600
O 	O 	0.97941 0.93455 0.24401 -0.35500
O 	O 	0.18489 0.01107 0.02666 -0.45400
O 	O 	0.19938 0.09528 0.05962 -0.41400
O 	O 	0.89200 0.75661 0.09225 -0.39900
Co	Co	0.95895 0.93032 0.68062 1.19800
C 	C 	0.21683 0.05217 0.53753 0.24500
Co	Co	0.92671 0.06870 0.66851 1.16800
C 	C 	0.91684 0.69883 0.60177 0.31400
O 	O 	0.83089 0.05362 0.60151 -0.41300
O 	O 	0.96631 0.02411 0.64557 -0.76300
C 	C 	0.85759 0.10827 0.55968 0.30400
O 	O 	0.97194 0.83476 0.69590 -0.45200
C 	C 	0.78672 0.87279 0.69053 0.31600
O 	O 	0.98544 0.95817 0.60886 -0.53900
C 	C 	0.97181 0.92007 0.46269 0.25600
C 	C 	0.16380 0.84136 0.66275 0.30200
O 	O 	0.91248 0.11283 0.54574 -0.37600
O 	O 	0.83853 0.94321 0.70706 -0.37800
O 	O 	0.82104 0.85488 0.67564 -0.38600
O 	O 	0.11748 0.19475 0.62597 -0.41200
O 	O 	0.17907 0.88842 0.61812 -0.39000
O 	O 	0.15430 0.98818 0.51521 -0.36700
O 	O 	0.19298 0.06991 0.56000 -0.40700
O 	O 	0.99774 0.73686 0.59813 -0.39900
O 	O 	0.90397 0.73449 0.61871 -0.38200
C 	C 	0.95083 0.89453 0.88926 -0.04300
C 	C 	0.96359 0.90795 0.84450 0.00400
H 	H 	0.90392 0.82804 0.90849 0.05100
H 	H 	0.11918 0.13130 0.81961 0.04400
H 	H 	0.92444 0.85206 0.82952 0.04200
C 	C 	0.97689 0.94724 0.31742 0.02400
C 	C 	0.91883 0.86443 0.34621 -0.02000
C 	C 	0.91317 0.85688 0.39161 -0.02800
C 	C 	0.96678 0.93192 0.40992 0.03000
H 	H 	0.87449 0.80613 0.33233 0.03700
H 	H 	0.86713 0.79228 0.41263 0.04400
C 	C 	0.21489 0.38421 0.71339 -0.09200
C 	C 	0.22198 0.45870 0.67585 -0.02000
C 	C 	0.20604 0.46285 0.62573 0.06100
C 	C 	0.18612 0.39406 0.61479 -0.02200
C 	C 	0.17317 0.31759 0.65206 -0.11700
C 	C 	0.19960 0.31848 0.70221 0.12000
H 	H 	0.23135 0.38228 0.75209 0.04900
H 	H 	0.17393 0.39732 0.57651 0.03500
N 	N 	0.21027 0.53275 0.58809 -0.19400
H 	H 	0.21971 0.58208 0.59459 0.08200
H 	H 	0.20120 0.53690 0.55144 0.07800
C 	C 	0.59172 0.71331 0.75233 -0.08800
C 	C 	0.52609 0.72566 0.71415 -0.01700
C 	C 	0.54459 0.78079 0.66646 0.07200
C 	C 	0.62655 0.81907 0.65743 -0.02400
C 	C 	0.69254 0.80767 0.69573 -0.11000
C 	C 	0.67374 0.75175 0.74313 0.13000
N 	N 	0.73369 0.73385 0.77963 -0.20300
H 	H 	0.57661 0.66943 0.78845 0.05400
H 	H 	0.64155 0.86264 0.62123 0.05300
N 	N 	0.48373 0.79696 0.62922 -0.19300
H 	H 	0.72164 0.69587 0.81535 0.08400
H 	H 	0.79078 0.75447 0.77232 0.09400
H 	H 	0.42441 0.77374 0.63536 0.08800
H 	H 	0.49670 0.83545 0.59371 0.09000
C 	C 	0.15373 0.70283 0.71112 -0.02600
C 	C 	0.20842 0.79553 0.69477 -0.11200
C 	C 	0.29838 0.83941 0.69331 0.13200
C 	C 	0.32350 0.79172 0.69489 -0.09500
C 	C 	0.26824 0.69872 0.70942 -0.01500
C 	C 	0.18560 0.65432 0.72172 0.06000
N 	N 	0.13952 0.56744 0.74586 -0.19300
H 	H 	0.38666 0.82734 0.68520 0.05500
N 	N 	0.35958 0.92810 0.68804 -0.20200
H 	H 	0.16949 0.53427 0.76260 0.08200
H 	H 	0.34376 0.96413 0.68924 0.11200
H 	H 	0.42483 0.96137 0.68444 0.09800
C 	C 	0.15843 0.43501 0.14293 -0.09100
C 	C 	0.21550 0.45253 0.18974 -0.02200
C 	C 	0.24408 0.39768 0.22424 0.06200
C 	C 	0.22179 0.33155 0.20970 -0.02500
C 	C 	0.16459 0.31391 0.16285 -0.11400
C 	C 	0.13778 0.37018 0.12799 0.11700
H 	H 	0.13750 0.47783 0.11618 0.04700
H 	H 	0.24266 0.28872 0.23653 0.03800
N 	N 	0.29296 0.40835 0.27140 -0.19400
H 	H 	0.30508 0.45293 0.28420 0.08300
H 	H 	0.31670 0.36975 0.29634 0.07800
C 	C 	0.58699 0.82400 0.11448 -0.02100
C 	C 	0.65980 0.83334 0.15604 -0.10700
C 	C 	0.64637 0.79899 0.20449 0.12300
C 	C 	0.56429 0.76648 0.21038 -0.08600
C 	C 	0.49145 0.75763 0.16889 -0.01800
C 	C 	0.50358 0.78874 0.12031 0.06700
N 	N 	0.43558 0.78532 0.07925 -0.19300
H 	H 	0.59667 0.84805 0.07733 0.04600
H 	H 	0.55417 0.74067 0.24765 0.05500
N 	N 	0.71091 0.79436 0.24538 -0.20200
H 	H 	0.44416 0.80635 0.04353 0.08400
H 	H 	0.37487 0.76450 0.08228 0.08600
H 	H 	0.76600 0.80549 0.24185 0.08900
H 	H 	0.70332 0.77388 0.28129 0.08800
C 	C 	0.10727 0.69099 0.18665 -0.03100
C 	C 	0.16863 0.77186 0.19955 -0.11200
C 	C 	0.25935 0.80014 0.22483 0.12900
C 	C 	0.28977 0.75517 0.22866 -0.09000
C 	C 	0.23333 0.68823 0.20326 -0.01800
C 	C 	0.14032 0.65659 0.18111 0.06200
H 	H 	0.35895 0.77571 0.24886 0.05600
N 	N 	0.31751 0.87062 0.24497 -0.20400
H 	H 	0.11333 0.59542 0.13340 0.07900
H 	H 	0.29495 0.90210 0.24460 0.10000
H 	H 	0.38551 0.89323 0.26232 0.09300
C 	C 	0.74006 0.13769 0.50745 -0.02500
C 	C 	0.83207 0.17058 0.53036 -0.11200
C 	C 	0.89312 0.25654 0.53753 0.12600
C 	C 	0.85879 0.29405 0.53850 -0.08900
C 	C 	0.76492 0.25722 0.51989 -0.01600
C 	C 	0.70916 0.18675 0.49673 0.05900
N 	N 	0.63233 0.17278 0.46056 -0.19400
H 	H 	0.69316 0.07537 0.49725 0.02900
H 	H 	0.90533 0.35166 0.55322 0.05900
N 	N 	0.98258 0.30606 0.53859 -0.16300
H 	H 	0.59045 0.11965 0.44455 0.07100
H 	H 	0.61706 0.21795 0.44583 0.08100
C 	C 	0.83615 0.47673 0.61831 -0.08900
C 	C 	0.79424 0.47015 0.56857 -0.01700
C 	C 	0.77575 0.53221 0.53262 0.06700
C 	C 	0.79731 0.59764 0.54751 -0.02700
C 	C 	0.84621 0.60841 0.59621 -0.11400
C 	C 	0.85702 0.54208 0.63284 0.13100
N 	N 	0.89091 0.54310 0.68185 -0.20400
H 	H 	0.84661 0.42704 0.64643 0.05500
H 	H 	0.78605 0.64692 0.51959 0.04400
N 	N 	0.73776 0.52948 0.48377 -0.19400
H 	H 	0.90287 0.49638 0.70880 0.08700
H 	H 	0.90321 0.58891 0.69364 0.09700
H 	H 	0.72703 0.48580 0.47093 0.08400
H 	H 	0.72131 0.57344 0.45770 0.08200
C 	C 	0.44708 0.10411 0.56391 -0.07300
C 	C 	0.49671 0.19400 0.54079 -0.03100
C 	C 	0.45270 0.23656 0.51449 0.07100
C 	C 	0.36421 0.19103 0.51830 -0.04100
C 	C 	0.31336 0.10014 0.53961 -0.08700
C 	C 	0.35337 0.05501 0.55809 0.05900
N 	N 	0.30190 0.96605 0.56621 -0.16100
H 	H 	0.48011 0.07107 0.58366 0.03000
H 	H 	0.33264 0.22503 0.50136 0.04200
N 	N 	0.49329 0.31900 0.48386 -0.19500
H 	H 	0.33299 0.93343 0.58693 0.08900
H 	H 	0.23518 0.93093 0.54561 0.06600
H 	H 	0.55163 0.34843 0.47369 0.08500
H 	H 	0.46292 0.35191 0.46701 0.08000
C 	C 	0.86596 0.26991 0.99711 -0.01200
C 	C 	0.82700 0.17991 0.02100 -0.12500
C 	C 	0.73860 0.12638 0.02821 0.12100
C 	C 	0.70386 0.16556 0.02680 -0.09700
C 	C 	0.74729 0.25733 0.00782 -0.02100
C 	C 	0.82413 0.30820 0.98803 0.07100
N 	N 	0.85488 0.39115 0.95840 -0.19400
H 	H 	0.93081 0.31109 0.98765 0.04300
H 	H 	0.64324 0.12446 0.04050 0.04000
N 	N 	0.68752 0.03742 0.03732 -0.23300
H 	H 	0.91470 0.43000 0.94664 0.08800
H 	H 	0.81613 0.41507 0.94361 0.08800
H 	H 	0.70970 0.00791 0.03497 0.08500
H 	H 	0.62299 0.99742 0.04413 0.12400
C 	C 	0.82453 0.64085 0.01796 -0.03200
C 	C 	0.84581 0.63592 0.06852 -0.11700
C 	C 	0.83223 0.55737 0.10449 0.13000
C 	C 	0.80951 0.49049 0.09024 -0.09100
C 	C 	0.79217 0.49710 0.03988 -0.01400
C 	C 	0.80259 0.57449 0.00361 0.06000
N 	N 	0.79178 0.58549 0.95494 -0.18800
H 	H 	0.83383 0.70052 0.99011 0.05400
H 	H 	0.79904 0.43036 0.11801 0.05400
N 	N 	0.84205 0.54633 0.15296 -0.20500
H 	H 	0.79650 0.64127 0.92792 0.08300
H 	H 	0.78181 0.54036 0.94383 0.08700
H 	H 	0.85378 0.59270 0.16391 0.09600
H 	H 	0.83564 0.48988 0.17998 0.08700
C 	C 	0.34410 0.20267 0.99156 -0.00900
C 	C 	0.32979 0.14645 0.03911 -0.13100
C 	C 	0.39808 0.13474 0.07460 0.12000
C 	C 	0.47460 0.17136 0.06028 -0.09400
C 	C 	0.48789 0.22567 0.01229 -0.02400
C 	C 	0.42117 0.24027 0.97727 0.06600
N 	N 	0.42996 0.28889 0.92969 -0.19300
H 	H 	0.29144 0.21139 0.96423 0.03400
H 	H 	0.52698 0.16221 0.08759 0.04700
N 	N 	0.39028 0.08814 0.12250 -0.20600
H 	H 	0.38168 0.30138 0.90432 0.07900
H 	H 	0.48303 0.31225 0.91701 0.08500
H 	H 	0.33829 0.06690 0.13520 0.08300
H 	H 	0.43862 0.07585 0.14812 0.07200
