data_crystal

_cell_length_a 15.56356
_cell_length_b 15.85055
_cell_length_c 43.48192
_cell_angle_alpha 95.42773
_cell_angle_beta  95.42250
_cell_angle_gamma 126.71303

_symmetry_space_group_name_	'P 1'
_symmetry_space_group_name_H-M	'P 1'

loop_
_symmetry_equiv_pos_as_xyz
  x,y,z

loop_
_atom_site_label
_atom_site_type_symbol
_atom_site_fract_x
_atom_site_fract_y
_atom_site_fract_z
_atom_site_charge
N 	N 	0.00067 0.05147 0.97447 -0.12800
C 	C 	0.05694 0.01183 0.97660 0.10300
N 	N 	0.04324 0.10153 0.49892 -0.11800
C 	C 	0.08611 0.04737 0.49816 0.10200
Cu	Cu	0.76217 0.33222 0.96784 0.92300
Cu	Cu	0.72370 0.22535 0.03121 0.86700
Cu	Cu	0.59585 0.29308 0.00743 0.89600
Cu	Cu	0.55857 0.32289 0.94090 0.90200
C 	C 	0.69855 0.31224 0.90136 0.29100
C 	C 	0.64721 0.29984 0.07548 0.28100
O 	O 	0.59317 0.24825 0.96371 -0.63200
O 	O 	0.74799 0.34224 0.01232 -0.64500
O 	O 	0.82492 0.25065 0.97026 -0.36000
O 	O 	0.69133 0.12908 0.99457 -0.43600
O 	O 	0.65418 0.35854 0.90915 -0.38500
O 	O 	0.45084 0.25570 0.00137 -0.37900
C 	C 	0.37940 0.20573 0.97477 0.30500
O 	O 	0.40766 0.23490 0.94789 -0.38700
O 	O 	0.75094 0.29757 0.92317 -0.36200
C 	C 	0.76782 0.15514 0.97834 0.28900
O 	O 	0.59855 0.31737 0.05309 -0.37400
O 	O 	0.72346 0.29013 0.07048 -0.41900
H 	H 	0.54542 0.16958 0.95642 0.16200
Cu	Cu	0.60223 0.19035 0.50710 0.92600
Cu	Cu	0.68737 0.20780 0.44020 0.86900
C 	C 	0.64213 0.26594 0.57361 0.28900
O 	O 	0.44394 0.13232 0.50822 -0.35600
C 	C 	0.61190 0.28778 0.39782 0.28500
O 	O 	0.58252 0.20142 0.46261 -0.64300
O 	O 	0.67514 0.12098 0.50274 -0.36900
O 	O 	0.79325 0.24150 0.47486 -0.44000
O 	O 	0.59297 0.30846 0.56678 -0.38200
C 	C 	0.40623 0.18309 0.49853 0.29300
O 	O 	0.47442 0.28275 0.49538 -0.39700
O 	O 	0.64466 0.20481 0.55146 -0.36100
C 	C 	0.76875 0.17118 0.49287 0.30000
O 	O 	0.61382 0.20784 0.40251 -0.42000
H 	H 	0.50636 0.15319 0.45080 0.17600
C 	C 	0.71383 0.30254 0.86858 -0.08400
C 	C 	0.72452 0.27716 0.80448 0.02600
C 	C 	0.70042 0.19656 0.82144 -0.06500
C 	C 	0.69562 0.20945 0.85343 0.01300
C 	C 	0.72243 0.26115 0.77028 0.00000
C 	C 	0.71187 0.25302 0.70503 0.00100
C 	C 	0.81223 0.32602 0.72586 -0.03800
C 	C 	0.81746 0.33012 0.75834 -0.03800
C 	C 	0.70334 0.25917 0.67125 0.02700
C 	C 	0.67072 0.26584 0.60701 -0.08300
C 	C 	0.64993 0.17349 0.61624 0.01700
C 	C 	0.66600 0.17016 0.64823 -0.06500
H 	H 	0.68419 0.12360 0.80978 0.04600
H 	H 	0.67511 0.14606 0.86617 0.03300
H 	H 	0.88553 0.38152 0.71695 0.03900
H 	H 	0.89468 0.38897 0.77425 0.03900
H 	H 	0.61841 0.10334 0.59874 0.04100
H 	H 	0.64780 0.09793 0.65511 0.04700
C 	C 	0.59283 0.30032 0.36515 -0.08500
C 	C 	0.53112 0.21011 0.34069 0.01200
C 	C 	0.52618 0.22276 0.30932 -0.06600
C 	C 	0.58249 0.32566 0.30203 0.02500
C 	C 	0.58944 0.33939 0.26892 -0.00000
C 	C 	0.69086 0.39350 0.25937 -0.03900
C 	C 	0.69626 0.39398 0.22745 -0.03900
C 	C 	0.60037 0.34032 0.20476 -0.00000
C 	C 	0.60455 0.32515 0.17105 0.02600
C 	C 	0.62294 0.25328 0.15888 -0.06700
C 	C 	0.63371 0.24309 0.12748 0.01200
C 	C 	0.62648 0.30492 0.10785 -0.08600
H 	H 	0.48904 0.13029 0.34593 0.03100
H 	H 	0.48144 0.15274 0.29066 0.04500
H 	H 	0.76507 0.43183 0.27657 0.03700
H 	H 	0.77459 0.43287 0.22026 0.03800
H 	H 	0.63013 0.20613 0.17387 0.04400
H 	H 	0.64865 0.18772 0.11847 0.02100
C 	C 	0.83386 0.13457 0.49656 -0.10000
C 	C 	0.88491 0.09977 0.49853 0.02700
C 	C 	0.29394 0.13837 0.49801 -0.08500
C 	C 	0.19994 0.10131 0.49795 0.02700
C 	C 	0.83713 0.03632 0.97438 0.00300
C 	C 	0.80367 0.08888 0.97539 -0.08600
C 	C 	0.17080 0.07970 0.97649 0.03000
C 	C 	0.26643 0.13727 0.97600 -0.08800
C 	C 	0.93508 0.04744 0.49999 0.08100
O 	O 	0.82029 0.49107 0.96943 -0.34900
C 	C 	0.76444 0.52589 0.97769 0.28100
O 	O 	0.66121 0.45674 0.97930 -0.39200
H 	H 	0.80149 0.41439 0.02561 0.17300
Cu	Cu	0.64867 0.35589 0.46716 0.89800
Cu	Cu	0.61426 0.39017 0.53229 0.89900
O 	O 	0.69235 0.35717 0.51040 -0.63700
O 	O 	0.72282 0.50824 0.47314 -0.38400
C 	C 	0.73399 0.57060 0.49814 0.31200
O 	O 	0.68232 0.53283 0.52158 -0.39200
O 	O 	0.62294 0.35470 0.42158 -0.37600
H 	H 	0.77220 0.40382 0.51820 0.16500
C 	C 	0.74061 0.38412 0.85174 0.01500
C 	C 	0.74596 0.37148 0.81990 -0.06500
C 	C 	0.62311 0.18457 0.74938 -0.03700
C 	C 	0.61783 0.18057 0.71690 -0.03700
C 	C 	0.72746 0.35253 0.66199 -0.06400
C 	C 	0.71136 0.35589 0.63008 0.01300
H 	H 	0.75628 0.45695 0.86326 0.03800
H 	H 	0.76479 0.43420 0.80705 0.04800
H 	H 	0.54931 0.13089 0.75834 0.04000
H 	H 	0.53999 0.12376 0.70105 0.04100
H 	H 	0.75642 0.42170 0.67955 0.04700
H 	H 	0.72879 0.42796 0.62329 0.02500
C 	C 	0.63963 0.41563 0.32648 -0.06500
C 	C 	0.64467 0.40303 0.35791 0.01100
C 	C 	0.49944 0.29063 0.21437 -0.03800
C 	C 	0.49396 0.29019 0.24633 -0.03800
C 	C 	0.60496 0.37484 0.11979 0.01500
C 	C 	0.59410 0.38492 0.15132 -0.06500
H 	H 	0.68250 0.49538 0.32114 0.04700
H 	H 	0.69219 0.47332 0.37651 0.03700
H 	H 	0.42499 0.24923 0.19704 0.04000
H 	H 	0.41535 0.24907 0.25345 0.04000
H 	H 	0.59923 0.42311 0.10496 0.03900
H 	H 	0.57948 0.44037 0.16050 0.04800
C 	C 	0.80833 0.63678 0.97792 -0.07800
C 	C 	0.79474 0.68197 0.49825 -0.09100
C 	C 	0.89208 0.98767 0.97416 0.11900
N 	N 	0.00499 0.90740 0.97796 -0.11300
C 	C 	0.89620 0.84149 0.97735 0.09800
N 	N 	0.83847 0.88141 0.97565 -0.12900
N 	N 	0.02142 0.94113 0.49814 -0.11100
C 	C 	0.91468 0.88809 0.49909 0.09800
N 	N 	0.87148 0.94094 0.50013 -0.11900
C 	C 	0.84778 0.77614 0.49860 0.03200
C 	C 	0.84334 0.72894 0.97774 0.02100
