data_crystal

_cell_length_a 17.41972
_cell_length_b 16.57896
_cell_length_c 61.38938
_cell_angle_alpha 90.04590
_cell_angle_beta  89.99605
_cell_angle_gamma 119.94798

_symmetry_space_group_name_	'P 1'
_symmetry_space_group_name_H-M	'P 1'

loop_
_symmetry_equiv_pos_as_xyz
  x,y,z

loop_
_atom_site_label
_atom_site_type_symbol
_atom_site_fract_x
_atom_site_fract_y
_atom_site_fract_z
_atom_site_charge
O 	O 	0.01292 0.88615 0.78681 -0.35000
O 	O 	0.03120 0.84580 0.74178 -0.34400
O 	O 	0.01854 0.18589 0.76108 -0.36100
N 	N 	0.05537 0.64793 0.99683 -0.07900
N 	N 	0.27708 0.76100 0.98186 -0.09400
C 	C 	0.18117 0.60536 0.39183 0.30300
C 	C 	0.17842 0.59274 0.45550 0.30800
Ni	Ni	0.27704 0.54719 0.42277 1.11800
Ni	Ni	0.29139 0.74932 0.42407 1.12200
O 	O 	0.37498 0.52529 0.43751 -0.35800
O 	O 	0.37726 0.86283 0.40696 -0.37800
O 	O 	0.16967 0.54345 0.40676 -0.35700
O 	O 	0.24168 0.69272 0.39453 -0.36900
O 	O 	0.32991 0.56146 0.39234 -0.37500
O 	O 	0.35508 0.81812 0.45134 -0.37800
O 	O 	0.21222 0.53845 0.45155 -0.36600
O 	O 	0.18061 0.65181 0.44048 -0.37200
O 	O 	0.34634 0.67547 0.42777 -0.71500
H 	H 	0.35008 0.67507 0.44378 0.15600
C 	C 	0.11691 0.58091 0.65936 0.29900
C 	C 	0.36764 0.81236 0.62888 0.31000
C 	C 	0.20918 0.41985 0.66039 0.28200
C 	C 	0.31772 0.78097 0.69807 0.30900
Ni	Ni	0.27004 0.60422 0.63461 1.11500
Ni	Ni	0.25978 0.58610 0.68778 1.12300
O 	O 	0.25001 0.69697 0.69582 -0.38000
O 	O 	0.17980 0.63837 0.64648 -0.36900
O 	O 	0.13487 0.53621 0.67460 -0.35800
O 	O 	0.33491 0.73325 0.61822 -0.35600
O 	O 	0.36577 0.81043 0.64991 -0.38100
O 	O 	0.36866 0.62088 0.70783 -0.35900
O 	O 	0.19201 0.46263 0.64414 -0.35500
O 	O 	0.24771 0.46347 0.67882 -0.36700
O 	O 	0.32788 0.63411 0.66198 -0.71500
H 	H 	0.35610 0.59550 0.66181 0.16600
C 	C 	0.09832 0.94825 0.78914 0.30400
C 	C 	0.10057 0.90897 0.73090 0.30100
C 	C 	0.05820 0.13690 0.71373 0.31900
C 	C 	0.07790 0.20051 0.77654 0.30400
Ni	Ni	0.11711 0.07433 0.75155 1.12600
O 	O 	0.14706 0.99777 0.77235 -0.37400
O 	O 	0.12983 0.16349 0.77524 -0.37400
O 	O 	0.10935 0.99062 0.72689 -0.37600
O 	O 	0.11638 0.16378 0.72961 -0.37900
C 	C 	0.27899 0.80098 0.92336 0.29300
C 	C 	0.27746 0.81617 0.86607 0.32700
C 	C 	0.22970 0.53686 0.85191 0.32500
C 	C 	0.20655 0.47901 0.91146 0.28800
Ni	Ni	0.21194 0.63989 0.88964 1.12300
O 	O 	0.35904 0.81147 0.92301 -0.37300
O 	O 	0.21250 0.73702 0.91110 -0.36100
O 	O 	0.31600 0.58132 0.85465 -0.38000
O 	O 	0.18039 0.54192 0.91269 -0.36900
O 	O 	0.34224 0.86220 0.88001 -0.37500
O 	O 	0.24105 0.72605 0.86397 -0.38100
O 	O 	0.26050 0.48171 0.89574 -0.37100
O 	O 	0.17713 0.53677 0.86738 -0.37200
O 	O 	0.33306 0.67980 0.89468 -0.72000
H 	H 	0.32979 0.66712 0.91043 0.16700
C 	C 	0.16246 0.11457 0.19348 0.30500
C 	C 	0.19283 0.10318 0.25104 0.30200
Ni	Ni	0.06054 0.14450 0.23130 1.11700
Ni	Ni	0.05863 0.95040 0.22201 1.11800
O 	O 	0.16347 0.16933 0.20958 -0.35700
O 	O 	0.11460 0.02199 0.19437 -0.36500
O 	O 	0.13334 0.12720 0.25584 -0.36200
O 	O 	0.17803 0.04245 0.23549 -0.36400
O 	O 	0.01607 0.89234 0.25155 -0.37300
C 	C 	0.15035 0.00415 0.95857 0.28800
C 	C 	0.01276 0.11803 0.94999 0.31200
C 	C 	0.11503 0.01390 0.02962 0.29800
Ni	Ni	0.08178 0.09282 0.99053 1.12400
O 	O 	0.07493 0.93005 0.95283 -0.35200
O 	O 	0.15351 0.08275 0.96500 -0.36900
O 	O 	0.14948 0.06109 0.01147 -0.38200
O 	O 	0.00836 0.12484 0.97097 -0.37100
O 	O 	0.02801 0.97483 0.03416 -0.37000
O 	O 	0.03293 0.13164 0.01597 -0.36300
H 	H 	0.03981 0.93813 0.98999 0.16900
C 	C 	0.28278 0.15299 0.26094 -0.05800
C 	C 	0.32211 0.10058 0.26706 -0.00500
C 	C 	0.33582 0.25124 0.26010 0.00900
H 	H 	0.28305 0.02512 0.26685 0.05700
C 	C 	0.29976 0.30756 0.25225 0.08500
N 	N 	0.27090 0.35273 0.24596 -0.11500
N 	N 	0.10649 0.80242 0.27832 -0.11100
C 	C 	0.35490 0.14435 0.06110 -0.05600
C 	C 	0.33163 0.06226 0.04940 -0.01500
C 	C 	0.24304 0.00238 0.04327 0.02000
C 	C 	0.17854 0.02834 0.04714 -0.06000
C 	C 	0.19800 0.09952 0.06221 -0.00600
C 	C 	0.28570 0.15833 0.06913 0.00600
H 	H 	0.14681 0.11548 0.06673 0.05400
C 	C 	0.30294 0.23114 0.08460 0.09700
C 	C 	0.21949 0.91679 0.03195 0.06700
N 	N 	0.31616 0.28946 0.09696 -0.10500
N 	N 	0.20043 0.84798 0.02293 -0.09900
C 	C 	0.23111 0.15480 0.17766 -0.07600
C 	C 	0.29082 0.18684 0.16480 0.04700
C 	C 	0.36084 0.22059 0.14987 0.04800
C 	C 	0.05922 0.20456 0.93736 -0.06900
C 	C 	0.15190 0.25013 0.93639 -0.00700
C 	C 	0.20079 0.34412 0.93085 0.00700
C 	C 	0.15702 0.39131 0.92366 -0.04900
C 	C 	0.06394 0.34527 0.92403 -0.01300
C 	C 	0.01498 0.25248 0.93104 0.03700
H 	H 	0.18635 0.21382 0.94110 0.05600
H 	H 	0.02962 0.38063 0.91826 0.06100
C 	C 	0.29604 0.39258 0.93327 0.08700
N 	N 	0.37227 0.43111 0.93526 -0.10300
C 	C 	0.26821 0.87438 0.93385 -0.05700
C 	C 	0.26727 0.94370 0.92092 -0.01400
C 	C 	0.25353 0.01192 0.93058 0.01400
C 	C 	0.23153 0.00443 0.95278 -0.05300
C 	C 	0.25509 0.95161 0.96608 -0.01700
C 	C 	0.26805 0.88213 0.95674 0.01100
H 	H 	0.27491 0.94316 0.90341 0.05600
H 	H 	0.24817 0.95349 0.98360 0.05000
C 	C 	0.27329 0.81487 0.97062 0.09500
C 	C 	0.24970 0.08125 0.91716 0.09000
N 	N 	0.24663 0.13680 0.90638 -0.10500
C 	C 	0.24973 0.86488 0.85171 -0.09100
C 	C 	0.22020 0.89621 0.83858 0.05400
C 	C 	0.18037 0.92266 0.82220 0.04300
C 	C 	0.14362 0.93778 0.80747 -0.07000
C 	C 	0.19194 0.46931 0.83464 -0.08200
C 	C 	0.16128 0.41001 0.82069 0.05000
C 	C 	0.12773 0.33824 0.80485 0.04300
C 	C 	0.10244 0.27574 0.79172 -0.07300
C 	C 	0.08876 0.17701 0.69164 -0.07000
C 	C 	0.03482 0.19776 0.67843 0.01900
C 	C 	0.07370 0.26497 0.66192 -0.01000
C 	C 	0.16640 0.31755 0.66043 -0.04800
C 	C 	0.21507 0.27842 0.66889 -0.01300
C 	C 	0.17755 0.20988 0.68506 0.01700
H 	H 	0.28486 0.30946 0.66507 0.05500
C 	C 	0.23144 0.17709 0.69534 0.08500
C 	C 	0.01956 0.27051 0.64494 0.11000
N 	N 	0.27529 0.15167 0.70358 -0.11400
C 	C 	0.17139 0.88946 0.72393 -0.06000
C 	C 	0.21449 0.92468 0.70394 -0.00400
C 	C 	0.28241 0.90824 0.69716 0.00800
C 	C 	0.30248 0.84963 0.70951 -0.06000
C 	C 	0.27054 0.82826 0.73091 -0.00600
C 	C 	0.20208 0.84342 0.73786 0.00800
H 	H 	0.19416 0.96337 0.69349 0.06100
H 	H 	0.28980 0.78779 0.74104 0.05500
C 	C 	0.16032 0.80587 0.75858 0.09700
C 	C 	0.33093 0.95156 0.67751 0.09600
N 	N 	0.12693 0.77485 0.77515 -0.10100
N 	N 	0.36988 0.98711 0.66181 -0.10200
C 	C 	0.11194 0.58291 0.37542 -0.05900
C 	C 	0.04577 0.60370 0.38011 -0.00600
C 	C 	0.04573 0.52558 0.33967 -0.00200
C 	C 	0.11479 0.54783 0.35466 0.00600
H 	H 	0.04561 0.49409 0.32416 0.04900
C 	C 	0.18665 0.53225 0.34881 0.09100
N 	N 	0.24420 0.51972 0.34411 -0.10200
C 	C 	0.02429 0.54819 0.65256 -0.05100
C 	C 	0.05241 0.70766 0.64503 0.09600
N 	N 	0.09030 0.78680 0.64859 -0.10100
C 	C 	0.39588 0.93553 0.60181 -0.00500
H 	H 	0.32864 0.89260 0.59590 0.05200
N 	N 	0.37881 0.09178 0.56646 -0.11600
C 	C 	0.11555 0.56625 0.47286 -0.08200
C 	C 	0.06154 0.53996 0.48728 0.05400
O 	O 	0.37307 0.58914 0.62311 -0.36200
Ni	Ni	0.36993 0.59657 0.88431 1.12400
C 	C 	0.03618 0.78592 0.28345 0.09500
N 	N 	0.25681 0.34925 0.41773 -0.12300
H 	H 	0.04674 0.63585 0.39561 0.04800
C 	C 	0.40969 0.06306 0.57872 0.08000
H 	H 	0.38232 0.04599 0.04463 0.05700
C 	C 	0.31188 0.37592 0.40463 0.07400
C 	C 	0.00523 0.60887 0.64062 0.02000
C 	C 	0.43789 0.58351 0.45116 0.30400
C 	C 	0.40824 0.57227 0.39026 0.30900
C 	C 	0.44222 0.85602 0.45455 0.29700
Ni	Ni	0.42802 0.75372 0.66549 1.12800
O 	O 	0.39879 0.79930 0.69331 -0.37300
Ni	Ni	0.41602 0.80728 0.89404 1.11500
C 	C 	0.41164 0.14411 0.27298 0.00500
C 	C 	0.42524 0.29514 0.26682 -0.00900
C 	C 	0.41906 0.24508 0.13671 -0.07800
N 	N 	0.38712 0.67020 0.97412 -0.09900
C 	C 	0.41702 0.49855 0.37915 -0.06400
C 	C 	0.40156 0.34426 0.37899 -0.00500
C 	C 	0.37967 0.40778 0.38810 0.01400
H 	H 	0.38336 0.27948 0.38733 0.05500
H 	H 	0.46622 0.02630 0.41972 0.05400
C 	C 	0.42863 0.90126 0.61803 -0.06500
C 	C 	0.44775 0.02695 0.59409 0.01300
C 	C 	0.46787 0.54638 0.46809 -0.07600
C 	C 	0.45180 0.87643 0.39830 0.30700
O 	O 	0.46128 0.80434 0.86316 -0.37500
Ni	Ni	0.46914 0.73610 0.42100 1.12400
O 	O 	0.48815 0.67302 0.44668 -0.37300
O 	O 	0.49584 0.84798 0.44020 -0.37500
O 	O 	0.47510 0.63717 0.40164 -0.35800
O 	O 	0.46415 0.80549 0.39515 -0.38000
C 	C 	0.45529 0.64661 0.62943 0.28200
C 	C 	0.45452 0.65847 0.70195 0.29000
O 	O 	0.47896 0.73104 0.63723 -0.35800
O 	O 	0.48310 0.69470 0.68256 -0.38100
O 	O 	0.49002 0.68855 0.87128 -0.37700
O 	O 	0.43633 0.61989 0.91289 -0.36100
C 	C 	0.45091 0.21454 0.06478 0.29800
C 	C 	0.48405 0.26793 0.12022 0.30700
O 	O 	0.47358 0.29977 0.07102 -0.35700
C 	C 	0.46259 0.24226 0.27441 -0.05300
H 	H 	0.46400 0.37052 0.26737 0.05500
C 	C 	0.44882 0.08672 0.27907 0.08600
N 	N 	0.47710 0.03929 0.28394 -0.10400
C 	C 	0.45750 0.69494 0.96744 0.08800
N 	N 	0.42459 0.75685 0.75447 -0.10800
C 	C 	0.45418 0.51464 0.35831 0.00300
C 	C 	0.46631 0.44601 0.34826 0.00600
C 	C 	0.45627 0.36973 0.36065 -0.05900
H 	H 	0.47268 0.57942 0.34994 0.05700
C 	C 	0.46477 0.50275 0.65559 0.07500
N 	N 	0.43044 0.47719 0.67231 -0.11300
C 	C 	0.49907 0.52239 0.48250 0.04600
C 	C 	0.48250 0.92537 0.47124 -0.07500
C 	C 	0.51699 0.98519 0.48491 0.03000
O 	O 	0.56348 0.35279 0.53460 -0.37100
C 	C 	0.50336 0.75946 0.85914 0.33000
C 	C 	0.49261 0.70492 0.92027 0.28100
O 	O 	0.51028 0.78070 0.90881 -0.35900
O 	O 	0.51103 0.18914 0.06345 -0.37000
O 	O 	0.48107 0.19753 0.10902 -0.36700
O 	O 	0.52886 0.35590 0.11341 -0.37000
O 	O 	0.51032 0.26299 0.31134 -0.38400
O 	O 	0.52130 0.26943 0.35797 -0.36300
C 	C 	0.52322 0.67061 0.71800 -0.05300
C 	C 	0.47859 0.74786 0.74568 0.09400
C 	C 	0.49762 0.45866 0.32610 0.08500
C 	C 	0.52798 0.97347 0.39762 -0.08000
C 	C 	0.52037 0.04421 0.40846 0.01000
N 	N 	0.55629 0.26608 0.42196 -0.10100
C 	C 	0.50808 0.53446 0.63480 0.00400
C 	C 	0.52174 0.61877 0.62573 -0.05800
H 	H 	0.52018 0.41259 0.62968 0.04800
C 	C 	0.53543 0.08307 0.60180 -0.06200
C 	C 	0.51559 0.95944 0.62624 0.01300
C 	C 	0.53864 0.49817 0.49942 0.04600
C 	C 	0.56666 0.20909 0.41391 0.09800
Ni	Ni	0.57427 0.29513 0.56241 1.12600
O 	O 	0.55393 0.39198 0.57830 -0.36500
O 	O 	0.56232 0.18276 0.54580 -0.36800
C 	C 	0.53162 0.35410 0.36131 0.28400
C 	C 	0.53432 0.28403 0.29087 0.29000
C 	C 	0.54504 0.72494 0.95909 -0.00000
C 	C 	0.54605 0.73664 0.73479 0.00100
H 	H 	0.57002 0.59324 0.69941 0.05400
N 	N 	0.52248 0.46908 0.30829 -0.10600
C 	C 	0.53583 0.48037 0.62347 -0.00200
C 	C 	0.57137 0.47615 0.51385 -0.07500
C 	C 	0.55653 0.05561 0.50087 0.05800
N 	N 	0.54698 0.48767 0.01989 -0.10500
C 	C 	0.57944 0.13791 0.40385 0.00300
C 	C 	0.60517 0.44362 0.53094 0.30400
O 	O 	0.57729 0.23908 0.59086 -0.38200
Ni	Ni	0.58180 0.23930 0.33280 1.12200
C 	C 	0.55769 0.71425 0.93682 -0.04800
C 	C 	0.57678 0.79970 0.84449 -0.09300
C 	C 	0.58818 0.64947 0.71094 -0.01000
C 	C 	0.58409 0.51379 0.60417 -0.06700
C 	C 	0.56876 0.04788 0.61748 -0.00100
C 	C 	0.54994 0.93129 0.64432 0.06000
C 	C 	0.58806 0.11473 0.51477 -0.08000
C 	C 	0.57979 0.65756 0.60813 -0.00800
C 	C 	0.61010 0.45492 0.59206 0.30800
C 	C 	0.59678 0.17232 0.59138 0.30700
C 	C 	0.62115 0.18232 0.53198 0.30500
Ni	Ni	0.58273 0.19659 0.09089 1.11600
Ni	Ni	0.59218 0.39727 0.08441 1.12300
H 	H 	0.59466 0.72495 0.60180 0.05400
O 	O 	0.66302 0.50503 0.54515 -0.35700
O 	O 	0.62413 0.18595 0.30894 -0.37500
O 	O 	0.62026 0.33185 0.28472 -0.35800
O 	O 	0.60961 0.42579 0.36626 -0.35500
H 	H 	0.62793 0.39395 0.32842 0.16900
N 	N 	0.62749 0.69617 0.31828 -0.10500
H 	H 	0.63863 0.07264 0.27654 0.06700
C 	C 	0.62150 0.51293 0.01748 0.09300
C 	C 	0.63891 0.72664 0.92981 -0.01100
C 	C 	0.61786 0.76173 0.97345 -0.00100
H 	H 	0.60925 0.77508 0.99031 0.04800
C 	C 	0.63810 0.83515 0.83206 0.04800
C 	C 	0.63565 0.79525 0.74035 -0.00500
C 	C 	0.60635 0.99814 0.38575 -0.00800
C 	C 	0.62251 0.92856 0.37606 0.08400
C 	C 	0.61231 0.60608 0.59746 0.01100
N 	N 	0.57851 0.91032 0.65887 -0.14200
C 	C 	0.64739 0.16115 0.38854 -0.06900
O 	O 	0.66418 0.17880 0.58013 -0.37000
H 	H 	0.70133 0.36307 0.54251 0.15700
O 	O 	0.64897 0.19348 0.11869 -0.36300
O 	O 	0.64086 0.42846 0.05392 -0.37000
O 	O 	0.66651 0.16356 0.07314 -0.35700
O 	O 	0.64785 0.32674 0.09179 -0.71500
H 	H 	0.65113 0.33475 0.10773 0.15100
C 	C 	0.66870 0.23628 0.37279 0.31100
O 	O 	0.66135 0.21611 0.35222 -0.38700
O 	O 	0.66647 0.36731 0.33099 -0.71500
N 	N 	0.68089 0.94154 0.23931 -0.11500
H 	H 	0.64720 0.71359 0.91287 0.05500
C 	C 	0.67843 0.71051 0.71550 0.00600
H 	H 	0.65308 0.84893 0.75257 0.05400
C 	C 	0.66838 0.09250 0.38260 0.00900
N 	N 	0.63570 0.87303 0.36827 -0.10500
H 	H 	0.63662 0.08980 0.62296 0.05900
O 	O 	0.69876 0.36278 0.55853 -0.71900
O 	O 	0.69290 0.47718 0.59216 -0.38000
O 	O 	0.70729 0.22430 0.53670 -0.37300
O 	O 	0.69244 0.51722 0.09769 -0.37100
O 	O 	0.68248 0.31815 0.37903 -0.35300
C 	C 	0.70340 0.08978 0.28257 -0.01800
C 	C 	0.70828 0.87523 0.81706 0.03700
C 	C 	0.67563 0.64912 0.58004 0.07600
C 	C 	0.70893 0.21567 0.30544 0.30600
O 	O 	0.71927 0.51626 0.30639 -0.37400
C 	C 	0.69492 0.70849 0.31182 0.09000
C 	C 	0.71378 0.99436 0.25339 0.04800
C 	C 	0.71448 0.54466 0.01440 0.00500
C 	C 	0.71184 0.76432 0.94377 0.01500
C 	C 	0.70283 0.78740 0.96562 -0.07300
C 	C 	0.70304 0.78774 0.72940 -0.06200
C 	C 	0.73579 0.24555 0.12146 0.30500
C 	C 	0.72644 0.47269 0.04985 0.29900
Ni	Ni	0.72360 0.42869 0.35697 1.12100
Ni	Ni	0.73207 0.40289 0.30441 1.12200
C 	C 	0.73979 0.14959 0.30047 -0.05300
H 	H 	0.72742 0.63823 0.98845 0.05500
C 	C 	0.74443 0.69571 0.70492 0.08900
H 	H 	0.72648 0.11167 0.37265 0.05500
C 	C 	0.73621 0.22395 0.06190 0.30300
C 	C 	0.74772 0.52128 0.11324 0.30200
C 	C 	0.75414 0.05983 0.27105 0.03900
C 	C 	0.76588 0.90504 0.80356 -0.08400
N 	N 	0.72673 0.68454 0.56619 -0.11600
Ni	Ni	0.75872 0.49094 0.56344 1.11600
Ni	Ni	0.75751 0.29457 0.56474 1.12300
O 	O 	0.75414 0.31001 0.05990 -0.39000
O 	O 	0.76505 0.30425 0.30266 -0.38000
C 	C 	0.76065 0.60929 0.99785 -0.01000
C 	C 	0.76025 0.51324 0.02793 -0.05900
N 	N 	0.75965 0.07121 0.10126 -0.10200
Ni	Ni	0.77157 0.38912 0.08629 1.12100
C 	C 	0.76386 0.58146 0.32103 0.29000
C 	C 	0.77458 0.22285 0.13938 -0.07500
C 	C 	0.77656 0.59319 0.12958 -0.07900
O 	O 	0.78338 0.48923 0.06569 -0.38100
O 	O 	0.77851 0.56082 0.34114 -0.34800
C 	C 	0.78207 0.85577 0.97803 0.30300
C 	C 	0.77917 0.72422 0.30378 0.00600
H 	H 	0.78671 0.81827 0.27858 0.05100
C 	C 	0.78753 0.10154 0.08422 0.09300
N 	N 	0.76740 0.24615 0.63968 -0.10800
O 	O 	0.80035 0.35166 0.59480 -0.36500
C 	C 	0.79728 0.86496 0.73157 0.29900
O 	O 	0.78872 0.29763 0.10540 -0.37600
O 	O 	0.79218 0.47597 0.11126 -0.37900
C 	C 	0.79677 0.78599 0.93487 0.05300
N 	N 	0.79719 0.68370 0.69642 -0.10600
O 	O 	0.80253 0.83212 0.99681 -0.37000
C 	C 	0.79598 0.19537 0.05168 -0.06600
C 	C 	0.80494 0.19998 0.15424 0.04700
C 	C 	0.80325 0.65278 0.14351 0.04000
O 	O 	0.81225 0.94904 0.73666 -0.36700
C 	C 	0.82005 0.78546 0.28636 -0.00600
C 	C 	0.81943 0.67687 0.31296 -0.05700
C 	C 	0.82257 0.16744 0.30872 0.00300
C 	C 	0.82987 0.93167 0.78656 0.29700
O 	O 	0.82541 0.40740 0.34881 -0.37200
C 	C 	0.82242 0.13876 0.06292 0.00700
H 	H 	0.81763 0.28010 0.02308 0.05200
C 	C 	0.82465 0.32206 0.63789 0.09900
O 	O 	0.83708 0.50457 0.53686 -0.36700
O 	O 	0.83381 0.86338 0.77619 -0.37300
C 	C 	0.84362 0.09379 0.27690 -0.08000
C 	C 	0.83476 0.23356 0.03143 -0.00800
C 	C 	0.83948 0.17086 0.17142 0.04500
C 	C 	0.83644 0.72135 0.16016 0.04000
N 	N 	0.83946 0.58373 0.38192 -0.13000
N 	N 	0.84287 0.16991 0.93187 -0.09900
C 	C 	0.84809 0.44183 0.59841 0.29600
O 	O 	0.84371 0.92491 0.96734 -0.37800
C 	C 	0.84619 0.53428 0.02191 -0.01100
O 	O 	0.85429 0.05041 0.21644 -0.35700
C 	C 	0.85513 0.21498 0.32927 0.09400
C 	C 	0.85239 0.64690 0.99567 -0.06200
O 	O 	0.85603 0.88548 0.19874 -0.38200
O 	O 	0.85916 0.48565 0.31715 -0.36400
O 	O 	0.86203 0.50098 0.58254 -0.36500
O 	O 	0.86279 0.84701 0.73120 -0.37000
O 	O 	0.86509 0.01761 0.77846 -0.37300
C 	C 	0.86548 0.77817 0.17471 -0.08000
N 	N 	0.86412 0.80316 0.92730 -0.14600
O 	O 	0.87148 0.39569 0.55014 -0.36600
O 	O 	0.87154 0.83470 0.24184 -0.37700
C 	C 	0.86965 0.14593 0.18591 -0.07200
C 	C 	0.87552 0.45352 0.53452 0.30200
Ni	Ni	0.87472 0.94650 0.22811 1.11700
C 	C 	0.87577 0.14321 0.29640 0.00700
O 	O 	0.00130 0.03993 0.94158 -0.34100
N 	N 	0.88133 0.25301 0.34573 -0.10100
H 	H 	0.87906 0.50341 0.03075 0.04700
C 	C 	0.88283 0.11722 0.05327 -0.00900
C 	C 	0.88473 0.46711 0.33593 0.30300
O 	O 	0.88764 0.99543 0.25867 -0.40800
O 	O 	0.89061 0.01089 0.01416 -0.37500
C 	C 	0.89243 0.60114 0.00581 0.01400
C 	C 	0.89392 0.47723 0.61986 -0.05600
C 	C 	0.89495 0.21144 0.02183 0.00600
O 	O 	0.89827 0.77745 0.97118 -0.35500
C 	C 	0.89855 0.58002 0.37439 0.05300
C 	C 	0.89615 0.41673 0.63586 0.00800
C 	C 	0.90014 0.84326 0.19258 0.30200
C 	C 	0.90145 0.80025 0.27812 -0.05900
H 	H 	0.90005 0.07053 0.06152 0.04400
O 	O 	0.00012 0.96375 0.98781 -0.70500
N 	N 	0.97651 0.27431 0.63108 -0.12200
H 	H 	0.99706 0.01323 0.77304 0.14100
N 	N 	0.96639 0.28537 0.98456 -0.10800
H 	H 	0.97075 0.40545 0.66269 0.05300
H 	H 	0.96405 0.16401 0.68130 0.04000
O 	O 	0.99795 0.01936 0.22266 -0.70700
H 	H 	0.99347 0.02792 0.20694 0.15600
O 	O 	0.97270 0.08996 0.71818 -0.38700
C 	C 	0.96364 0.45240 0.65168 -0.02400
C 	C 	0.93457 0.25234 0.00112 0.08700
C 	C 	0.91943 0.20665 0.93149 0.06500
C 	C 	0.98288 0.62711 0.00084 0.06200
Ni	Ni	0.94041 0.87137 0.75864 1.10700
Ni	Ni	0.92642 0.05831 0.74904 1.11800
O 	O 	0.99387 0.00119 0.75727 -0.72100
C 	C 	0.90377 0.07975 0.26251 0.33200
C 	C 	0.90801 0.11810 0.20295 0.29800
C 	C 	0.93109 0.84377 0.25631 0.29400
O 	O 	0.97373 0.15211 0.25396 -0.36200
O 	O 	0.95963 0.84011 0.20563 -0.37800
O 	O 	0.99271 0.17445 0.20777 -0.36100
C 	C 	0.90631 0.74666 0.99076 0.29000
C 	C 	0.94745 0.09678 0.01948 0.29200
Ni	Ni	0.95450 0.91745 0.95995 1.11000
Ni	Ni	0.92378 0.91212 0.01226 1.11100
O 	O 	0.94266 0.80351 0.00747 -0.38600
C 	C 	0.90795 0.70619 0.30775 -0.01200
C 	C 	0.94846 0.76522 0.28991 0.00200
H 	H 	0.94201 0.67546 0.31609 0.05500
H 	H 	0.94235 0.16381 0.30182 0.05000
C 	C 	0.91557 0.14903 0.03227 -0.06100
C 	C 	0.97414 0.57617 0.36608 0.01100
C 	C 	0.97161 0.53294 0.34575 -0.07000
C 	C 	0.94304 0.57364 0.62365 -0.02500
H 	H 	0.93464 0.62120 0.61313 0.05200
C 	C 	0.99734 0.50736 0.50392 0.03600
C 	C 	0.94187 0.48076 0.51799 -0.07600
