data_crystal

_cell_length_a 27.24816
_cell_length_b 24.65837
_cell_length_c 40.17210
_cell_angle_alpha 104.08559
_cell_angle_beta  115.96233
_cell_angle_gamma 111.27657

_symmetry_space_group_name_	'P 1'
_symmetry_space_group_name_H-M	'P 1'

loop_
_symmetry_equiv_pos_as_xyz
  x,y,z

loop_
_atom_site_label
_atom_site_type_symbol
_atom_site_fract_x
_atom_site_fract_y
_atom_site_fract_z
_atom_site_charge
C 	C 	0.05342 0.02803 0.73930 0.07000
C 	C 	0.04721 0.02325 0.70032 0.04200
C 	C 	0.06924 0.01008 0.13792 -0.14800
C 	C 	0.06573 0.01412 0.10111 0.31300
S 	S 	0.62567 0.97385 0.56886 0.09900
H 	H 	0.92273 0.97915 0.37396 0.15100
C 	C 	0.06084 0.03441 0.81154 -0.10700
Zn	Zn	0.04834 0.02580 0.96967 1.21600
C 	C 	0.02826 0.01469 0.62488 -0.14900
C 	C 	0.06065 0.03416 0.84821 0.29000
H 	H 	0.78211 0.99936 0.38811 0.04100
H 	H 	0.26094 0.04019 0.92621 0.02500
O 	O 	0.07250 0.03228 0.02384 -0.90000
C 	C 	0.01236 0.01025 0.58371 0.33000
C 	C 	0.05784 0.01048 0.20340 0.05300
C 	C 	0.02473 0.00879 0.29736 -0.13800
H 	H 	0.19390 0.01000 0.50158 0.00100
C 	C 	0.04808 0.01127 0.23675 0.05000
H 	H 	0.11911 0.05091 0.04446 0.15800
C 	C 	0.01624 0.00788 0.33112 0.29900
O 	O 	0.01406 0.01870 0.50375 -0.89200
O 	O 	0.97126 0.05976 0.96061 -0.47700
H 	H 	0.70116 0.03034 0.36431 0.04000
H 	H 	0.23076 0.03038 0.43186 0.02700
O 	O 	0.90883 0.03397 0.43383 -0.48400
H 	H 	0.06094 0.04051 0.52556 0.15800
H 	H 	0.34586 0.07515 0.91401 0.04800
Zn	Zn	0.03807 0.06973 0.04528 1.20000
O 	O 	0.07518 0.06899 0.09878 -0.47100
O 	O 	0.05492 0.07840 0.86952 -0.44000
O 	O 	0.19740 0.07927 0.95055 -0.35900
O 	O 	0.00323 0.04927 0.34734 -0.44500
N 	N 	0.02816 0.05786 0.75368 -0.11900
C 	C 	0.79714 0.05067 0.40356 -0.01200
O 	O 	0.01162 0.05960 0.57665 -0.46800
N 	N 	0.06548 0.07864 0.69580 -0.11900
C 	C 	0.10955 0.06594 0.21102 -0.08800
C 	C 	0.05728 0.07582 0.65935 0.07900
C 	C 	0.11485 0.06581 0.17804 0.04800
C 	C 	0.03099 0.06137 0.78889 0.06400
H 	H 	0.70047 0.09099 0.89673 0.03400
O 	O 	0.14727 0.06381 0.43825 -0.35200
C 	C 	0.04028 0.06490 0.29162 0.04200
C 	C 	0.05160 0.06608 0.26109 -0.08300
H 	H 	0.31512 0.06664 0.41919 0.05100
C 	C 	0.30455 0.08932 0.94783 0.02200
C 	C 	0.75128 0.06819 0.39005 -0.06700
Zn	Zn	0.08869 0.10649 0.93107 1.19500
C 	C 	0.96907 0.10094 0.98720 0.29600
Zn	Zn	0.03069 0.08265 0.40791 1.19500
C 	C 	0.90633 0.07850 0.45799 0.31500
C 	C 	0.26555 0.08287 0.44619 0.02200
C 	C 	0.35266 0.10908 0.94090 -0.07500
H 	H 	0.15329 0.10945 0.18338 0.02000
C 	C 	0.25693 0.11700 0.98501 0.30500
O 	O 	0.10971 0.11589 0.98862 -0.77800
O 	O 	0.04884 0.09635 0.46544 -0.77700
O 	O 	0.93560 0.09691 0.49835 -0.50400
H 	H 	0.04427 0.10769 0.31099 0.03200
H 	H 	0.06248 0.10897 0.25611 0.05200
C 	C 	0.86138 0.09868 0.43850 -0.10600
C 	C 	0.31328 0.10338 0.43901 -0.07100
C 	C 	0.92025 0.11808 0.97067 -0.11000
C 	C 	0.88552 0.11917 0.98806 0.02600
H 	H 	0.89314 0.10555 0.01277 0.02000
H 	H 	0.14470 0.10910 0.24206 0.05100
H 	H 	0.07255 0.12098 0.65699 0.02300
C 	C 	0.20557 0.10902 0.47280 0.30200
S 	S 	0.67430 0.99865 0.08574 0.09700
H 	H 	0.63369 0.13948 0.88871 0.03900
C 	C 	0.90872 0.13433 0.93798 0.02000
H 	H 	0.93495 0.13325 0.92416 0.00500
C 	C 	0.31185 0.13368 0.98178 -0.09600
C 	C 	0.72346 0.14423 0.90940 -0.03800
H 	H 	0.70227 0.12450 0.44487 0.03800
C 	C 	0.84118 0.13823 0.97380 -0.08000
O 	O 	0.07168 0.99319 0.86138 -0.45600
C 	C 	0.26165 0.13008 0.47088 -0.09700
H 	H 	0.81552 0.14009 0.98798 0.05000
O 	O 	0.26723 0.14786 0.02126 -0.46600
C 	C 	0.76961 0.13393 0.41099 0.04300
C 	C 	0.86466 0.15400 0.92397 -0.07900
C 	C 	0.45604 0.19634 0.95819 -0.02300
C 	C 	0.51542 0.20206 0.98097 0.04100
N 	N 	0.53469 0.18985 0.01439 -0.11600
C 	C 	0.79103 0.18505 0.93131 -0.02500
C 	C 	0.68543 0.17199 0.90512 -0.01800
S 	S 	0.60885 0.21250 0.03044 0.07900
C 	C 	0.45698 0.18529 0.46260 0.03900
N 	N 	0.47230 0.16455 0.49217 -0.11500
C 	C 	0.72002 0.15036 0.40184 -0.02400
C 	C 	0.70584 0.17795 0.37511 0.03900
C 	C 	0.65347 0.17270 0.42162 -0.02000
C 	C 	0.69209 0.14614 0.42418 -0.03800
S 	S 	0.54128 0.17480 0.50292 0.07900
H 	H 	0.63486 0.17114 0.44053 0.04500
Zn	Zn	0.19686 0.15307 0.02073 1.18300
Zn	Zn	0.13633 0.14040 0.50109 1.18500
O 	O 	0.21218 0.14257 0.50696 -0.46700
O 	O 	0.10006 0.17228 0.42437 -0.45300
C 	C 	0.88028 0.16504 0.45792 0.02000
C 	C 	0.35744 0.17121 0.45644 0.04800
C 	C 	0.83148 0.15693 0.94230 0.04800
H 	H 	0.85731 0.16826 0.89954 0.04700
C 	C 	0.40859 0.17313 0.96798 0.04900
C 	C 	0.36927 0.19679 0.00993 0.02100
C 	C 	0.44292 0.21536 0.92648 -0.03800
C 	C 	0.56269 0.22800 0.97262 0.05800
H 	H 	0.39704 0.21109 0.90842 0.04100
N 	N 	0.62146 0.23771 0.99924 -0.11100
C 	C 	0.40440 0.19285 0.44614 -0.02200
C 	C 	0.50268 0.20683 0.45250 0.05800
N 	N 	0.55618 0.20422 0.47379 -0.11400
C 	C 	0.66612 0.20470 0.37220 0.05700
C 	C 	0.64184 0.20414 0.39659 -0.04100
N 	N 	0.73186 0.18593 0.35303 -0.11700
O 	O 	0.16095 0.19483 0.94876 -0.45300
C 	C 	0.83461 0.18262 0.44411 -0.07400
H 	H 	0.92992 0.20260 0.48459 0.01900
C 	C 	0.30752 0.19793 0.48969 0.02300
C 	C 	0.41733 0.21641 0.00298 -0.07300
H 	H 	0.37560 0.23159 0.03622 0.03300
C 	C 	0.35509 0.21838 0.48238 -0.07300
N 	N 	0.62980 0.24463 0.92945 -0.13900
C 	C 	0.67503 0.27009 0.92216 0.13600
C 	C 	0.48929 0.24090 0.91826 -0.01800
C 	C 	0.54973 0.24773 0.94147 -0.04400
H 	H 	0.47797 0.25522 0.89372 0.04000
C 	C 	0.81965 0.25356 0.94714 0.04100
C 	C 	0.71419 0.24128 0.92285 -0.04100
N 	N 	0.56354 0.21867 0.40598 -0.14000
C 	C 	0.54091 0.25686 0.41481 0.13500
C 	C 	0.61026 0.24091 0.39950 0.13600
C 	C 	0.39657 0.22123 0.41916 -0.03800
C 	C 	0.44128 0.24225 0.40911 -0.01700
C 	C 	0.49477 0.23525 0.42579 -0.04400
H 	H 	0.35578 0.22703 0.40587 0.04200
N 	N 	0.65872 0.23461 0.34744 -0.10800
S 	S 	0.70247 0.22508 0.33160 0.08100
C 	C 	0.20693 0.24652 0.98695 0.31900
O 	O 	0.22242 0.24010 0.02115 -0.46200
C 	C 	0.14333 0.22614 0.46184 0.31800
O 	O 	0.15569 0.22331 0.49675 -0.46200
H 	H 	0.23904 0.26937 0.93441 0.03700
H 	H 	0.84917 0.23361 0.46023 0.04900
H 	H 	0.30478 0.23484 0.50861 0.02900
H 	H 	0.46056 0.26588 0.02413 0.05400
C 	C 	0.59787 0.27472 0.93269 0.13500
C 	C 	0.78101 0.28205 0.94307 0.05900
N 	N 	0.88518 0.29749 0.97291 -0.11600
N 	N 	0.63336 0.30103 0.40104 -0.13300
H 	H 	0.43393 0.26359 0.38811 0.04000
C 	C 	0.18169 0.28976 0.46489 -0.10000
H 	H 	0.10327 0.27176 0.40650 0.03000
C 	C 	0.24539 0.31134 0.99124 -0.09900
C 	C 	0.25732 0.31447 0.96088 0.02600
H 	H 	0.38931 0.27087 0.49618 0.05100
C 	C 	0.15332 0.30616 0.43351 0.02600
O 	O 	0.02813 0.97022 0.34757 -0.45200
N 	N 	0.61119 0.33039 0.92852 -0.14400
C 	C 	0.65585 0.35547 0.92070 0.13700
N 	N 	0.68725 0.32491 0.91719 -0.13300
N 	N 	0.81462 0.34960 0.96560 -0.11000
N 	N 	0.66822 0.37780 0.85622 -0.11200
S 	S 	0.88901 0.36759 0.98805 0.08200
N 	N 	0.56334 0.31649 0.41556 -0.14500
C 	C 	0.60913 0.33831 0.40822 0.13500
N 	N 	0.63238 0.36376 0.34774 -0.10900
C 	C 	0.24676 0.33482 0.49960 0.02500
C 	C 	0.18902 0.36794 0.43758 -0.07200
H 	H 	0.26961 0.32226 0.52362 0.02600
C 	C 	0.29311 0.37592 0.96467 -0.07500
C 	C 	0.27072 0.37034 0.02585 0.02300
H 	H 	0.30138 0.37780 0.94082 0.05300
H 	H 	0.26187 0.36863 0.04948 0.02900
C 	C 	0.67560 0.41958 0.92078 -0.04200
C 	C 	0.68360 0.42825 0.88995 0.05900
S 	S 	0.69521 0.41924 0.83555 0.08300
C 	C 	0.63567 0.40421 0.41083 -0.04300
C 	C 	0.64878 0.41405 0.38204 0.05800
S 	S 	0.66049 0.40585 0.32775 0.08300
N 	N 	0.29513 0.44253 0.42039 -0.11400
C 	C 	0.28245 0.39639 0.50354 -0.07600
C 	C 	0.25350 0.41354 0.47284 0.05000
H 	H 	0.33230 0.43118 0.53076 0.05000
H 	H 	0.16621 0.38088 0.41379 0.05600
C 	C 	0.31732 0.43475 0.99883 0.05200
C 	C 	0.30634 0.43175 0.02954 -0.07400
C 	C 	0.69543 0.47562 0.95522 -0.01700
C 	C 	0.71512 0.49353 0.89481 0.04100
H 	H 	0.68950 0.47005 0.97939 0.04200
C 	C 	0.65333 0.45973 0.44457 -0.01800
C 	C 	0.68153 0.47963 0.38769 0.04000
H 	H 	0.64386 0.45338 0.46732 0.04000
C 	C 	0.34937 0.49915 0.00053 -0.02500
C 	C 	0.31293 0.51503 0.97163 -0.03400
H 	H 	0.26189 0.47883 0.94703 0.04300
N 	N 	0.45364 0.53778 0.06306 -0.11400
C 	C 	0.28902 0.48112 0.47936 -0.02200
C 	C 	0.30934 0.49235 0.45387 0.04100
S 	S 	0.32254 0.48474 0.40019 0.08500
H 	H 	0.32443 0.47696 0.05585 0.05500
N 	N 	0.72614 0.49752 0.86520 -0.11500
N 	N 	0.69269 0.48418 0.35821 -0.11500
C 	C 	0.73803 0.54912 0.93032 -0.02300
C 	C 	0.72645 0.53974 0.95997 -0.03700
H 	H 	0.74334 0.58224 0.98751 0.04100
C 	C 	0.70044 0.53450 0.42183 -0.02300
C 	C 	0.68541 0.52419 0.45001 -0.03800
C 	C 	0.41535 0.54645 0.03172 0.04100
S 	S 	0.52042 0.61130 0.09207 0.07900
C 	C 	0.30163 0.53545 0.51099 -0.03600
C 	C 	0.34042 0.55797 0.45894 0.05800
H 	H 	0.28679 0.52780 0.53131 0.04100
H 	H 	0.82787 0.60552 0.45460 0.05100
H 	H 	0.86440 0.61284 0.95996 0.05300
C 	C 	0.34158 0.57833 0.97496 -0.01500
N 	N 	0.35164 0.56257 0.42949 -0.11200
C 	C 	0.44467 0.61108 0.03512 0.05800
H 	H 	0.69957 0.56616 0.47662 0.03900
C 	C 	0.02018 0.95436 0.27174 0.09900
H 	H 	0.00742 0.91013 0.27523 0.01800
H 	H 	0.27619 0.98061 0.52190 0.06300
N 	N 	0.47624 0.81410 0.01390 -0.13700
C 	C 	0.51140 0.78573 0.01679 0.13600
N 	N 	0.49016 0.72593 0.01598 -0.14000
C 	C 	0.43461 0.69523 0.01303 0.13800
N 	N 	0.40060 0.72455 0.01115 -0.13800
C 	C 	0.42078 0.78349 0.01104 0.13800
C 	C 	0.67882 0.87653 0.01498 -0.02300
C 	C 	0.63549 0.80718 0.99261 -0.03600
C 	C 	0.58146 0.77775 0.99368 -0.01600
C 	C 	0.56954 0.81705 0.01725 -0.04200
C 	C 	0.61256 0.88607 0.03963 0.05900
C 	C 	0.66742 0.91595 0.03831 0.04200
H 	H 	0.64338 0.77586 0.97415 0.04000
H 	H 	0.54850 0.72434 0.97570 0.04300
N 	N 	0.60908 0.92815 0.06645 -0.11100
N 	N 	0.70942 0.98286 0.06389 -0.11200
C 	C 	0.30147 0.86603 0.99465 -0.02000
C 	C 	0.27327 0.79840 0.97013 0.04100
C 	C 	0.31281 0.77103 0.97504 0.06200
C 	C 	0.38011 0.81166 0.00479 -0.04200
C 	C 	0.40815 0.87983 0.02969 -0.01400
C 	C 	0.36918 0.90671 0.02468 -0.03700
N 	N 	0.20893 0.75601 0.93801 -0.11200
N 	N 	0.28144 0.70587 0.94686 -0.11200
C 	C 	0.40745 0.62727 0.00727 -0.04300
H 	H 	0.31209 0.58955 0.95271 0.04700
N 	N 	0.50722 0.65622 0.06942 -0.11200
S 	S 	0.20729 0.68832 0.91872 0.09200
H 	H 	0.46008 0.91210 0.05313 0.04700
H 	H 	0.39185 0.95929 0.04398 0.04700
N 	N 	0.42124 0.79908 0.49713 -0.13700
C 	C 	0.45130 0.76647 0.49424 0.13700
N 	N 	0.42845 0.70551 0.49174 -0.13900
C 	C 	0.37563 0.67725 0.49201 0.13700
N 	N 	0.34603 0.71022 0.49509 -0.13800
C 	C 	0.36903 0.77133 0.49802 0.13800
C 	C 	0.61249 0.85199 0.48589 -0.02200
C 	C 	0.56442 0.78373 0.46065 -0.03600
C 	C 	0.51216 0.75597 0.46362 -0.01800
C 	C 	0.50687 0.79590 0.49199 -0.04000
C 	C 	0.55430 0.86393 0.51697 0.05900
C 	C 	0.60735 0.89214 0.51374 0.04200
H 	H 	0.56756 0.75190 0.43878 0.04000
H 	H 	0.47564 0.70339 0.44359 0.04500
N 	N 	0.55748 0.90566 0.54834 -0.11000
N 	N 	0.65448 0.95732 0.54230 -0.11100
C 	C 	0.25482 0.85719 0.49348 -0.02400
C 	C 	0.27001 0.83034 0.52058 0.04300
C 	C 	0.31048 0.80455 0.52374 0.06000
C 	C 	0.33488 0.80556 0.49947 -0.04000
C 	C 	0.32166 0.83548 0.47363 -0.01500
C 	C 	0.28201 0.86094 0.47065 -0.03300
N 	N 	0.24627 0.82449 0.54406 -0.11200
N 	N 	0.32075 0.77742 0.55004 -0.11100
C 	C 	0.33205 0.59976 0.51599 -0.01600
C 	C 	0.35076 0.61132 0.48952 -0.04100
H 	H 	0.34017 0.64045 0.54014 0.04500
S 	S 	0.27826 0.78799 0.56680 0.09200
H 	H 	0.34020 0.83710 0.45468 0.04600
H 	H 	0.27092 0.88179 0.44957 0.04500
O 	O 	0.06605 0.90795 0.91533 -0.49100
O 	O 	0.12740 0.99710 0.98032 -0.44100
Zn	Zn	0.90643 0.91784 0.93451 1.17700
C 	C 	0.89373 0.80920 0.95766 0.32200
C 	C 	0.88302 0.96608 0.99299 0.32300
O 	O 	0.95666 0.84605 0.98793 -0.46400
O 	O 	0.86595 0.82816 0.93076 -0.46600
O 	O 	0.86301 0.94955 0.95376 -0.47400
O 	O 	0.94041 0.97809 0.02011 -0.47900
O 	O 	0.05014 0.96162 0.07011 -0.40900
C 	C 	0.11663 0.94241 0.95478 0.31900
O 	O 	0.01596 0.88844 0.40302 -0.48700
O 	O 	0.07417 0.98240 0.46509 -0.43500
Zn	Zn	0.85065 0.89435 0.41360 1.17700
C 	C 	0.84435 0.79361 0.44371 0.32100
C 	C 	0.82073 0.94335 0.46761 0.32300
O 	O 	0.90648 0.83491 0.47521 -0.46000
O 	O 	0.81474 0.80758 0.41410 -0.46500
O 	O 	0.80245 0.92379 0.42852 -0.47700
O 	O 	0.87907 0.95994 0.49688 -0.47300
O 	O 	0.93262 0.91697 0.43246 -0.79700
C 	C 	0.06374 0.92506 0.44326 0.32000
C 	C 	0.08897 0.00554 0.79795 0.01100
C 	C 	0.08527 0.00230 0.76177 -0.10600
H 	H 	0.11354 0.98558 0.81530 0.05000
H 	H 	0.10691 0.97992 0.75120 0.07100
N 	N 	0.01608 0.95532 0.16476 -0.11000
C 	C 	0.02078 0.95394 0.13223 0.12600
N 	N 	0.03162 0.95666 0.24221 -0.10700
C 	C 	0.66833 0.91163 0.45908 -0.07200
C 	C 	0.66815 0.87986 0.48367 0.05000
C 	C 	0.72015 0.87276 0.50509 -0.07300
C 	C 	0.77134 0.89588 0.50119 0.02600
C 	C 	0.77079 0.92607 0.47563 -0.10200
C 	C 	0.71942 0.93458 0.45501 0.02700
H 	H 	0.62847 0.91763 0.44264 0.05700
H 	H 	0.72041 0.84845 0.52424 0.05200
H 	H 	0.81039 0.88849 0.51698 0.03300
H 	H 	0.71868 0.95817 0.43544 0.03500
C 	C 	0.22524 0.94166 0.50135 -0.08900
C 	C 	0.20612 0.87488 0.48538 0.05900
C 	C 	0.14010 0.82483 0.45911 -0.07900
C 	C 	0.09342 0.84136 0.44723 0.03300
C 	C 	0.11239 0.90815 0.46155 -0.12200
C 	C 	0.17857 0.95828 0.48979 0.06100
H 	H 	0.12498 0.77311 0.44692 0.05800
H 	H 	0.04253 0.80225 0.42602 0.02900
C 	C 	0.73224 0.93522 0.98674 -0.07100
C 	C 	0.73467 0.90658 0.01317 0.04900
C 	C 	0.78856 0.90270 0.03571 -0.07400
C 	C 	0.83865 0.92510 0.03071 0.02600
C 	C 	0.83500 0.95115 0.00282 -0.10500
C 	C 	0.78215 0.95737 0.98155 0.02800
H 	H 	0.69096 0.93880 0.96945 0.05700
H 	H 	0.79095 0.88098 0.05636 0.05300
H 	H 	0.87910 0.92001 0.04738 0.03300
H 	H 	0.77907 0.97803 0.96031 0.03500
C 	C 	0.23797 0.90506 0.95294 -0.07200
C 	C 	0.26134 0.89477 0.98806 0.05300
C 	C 	0.24054 0.90494 0.01407 -0.07600
C 	C 	0.19443 0.92239 0.00389 0.02900
C 	C 	0.16842 0.92898 0.96741 -0.10800
C 	C 	0.19147 0.92176 0.94253 0.03400
H 	H 	0.25430 0.89797 0.93296 0.05800
H 	H 	0.25861 0.89739 0.04138 0.05500
H 	H 	0.17761 0.92885 0.02363 0.01400
H 	H 	0.17278 0.92838 0.91486 0.02600
C 	C 	0.70762 0.63662 0.41884 -0.07500
C 	C 	0.73805 0.60225 0.42947 0.04800
C 	C 	0.80401 0.63174 0.44619 -0.07400
C 	C 	0.83906 0.69469 0.45148 0.02500
C 	C 	0.80831 0.72858 0.43995 -0.10200
C 	C 	0.74257 0.69955 0.42403 0.02400
H 	H 	0.65677 0.61428 0.40613 0.05100
H 	H 	0.88972 0.71653 0.46376 0.02800
H 	H 	0.71860 0.72570 0.41569 0.02900
C 	C 	0.84343 0.64215 0.95371 -0.07300
C 	C 	0.77839 0.61656 0.93858 0.04900
C 	C 	0.75173 0.65491 0.93076 -0.07500
C 	C 	0.78957 0.71809 0.93735 0.02400
C 	C 	0.85445 0.74340 0.95185 -0.10200
C 	C 	0.88135 0.70532 0.96035 0.02600
H 	H 	0.70164 0.63561 0.91933 0.05100
H 	H 	0.76857 0.74743 0.93133 0.03000
H 	H 	0.93127 0.72419 0.97148 0.02900
C 	C 	0.00999 0.95732 0.62920 0.08900
C 	C 	0.01944 0.96153 0.66698 -0.07100
Zn	Zn	0.03633 0.95458 0.88939 1.19000
H 	H 	0.00386 0.91698 0.67001 0.05600
O 	O 	0.02324 0.01771 0.91488 -0.86100
Zn	Zn	0.96275 0.92861 0.49180 1.18800
Zn	Zn	0.01708 0.94063 0.00836 1.19700
H 	H 	0.00911 0.08412 0.79883 0.02800
O 	O 	0.96836 0.99342 0.39356 -0.86900
Zn	Zn	0.97436 0.05353 0.52098 1.18900
O 	O 	0.00251 0.11805 0.02740 -0.47500
O 	O 	0.99899 0.95684 0.55461 -0.43900
H 	H 	0.97838 0.00677 0.89702 0.12400
O 	O 	0.98642 0.93593 0.95050 -0.80100
H 	H 	0.98502 0.91031 0.10145 0.00400
Zn	Zn	0.99120 0.00648 0.44890 1.20300
Zn	Zn	0.98740 0.93206 0.37336 1.17900
H 	H 	0.98696 0.90939 0.60307 0.00900
