data_crystal

_cell_length_a 25.97104
_cell_length_b 26.20230
_cell_length_c 32.82036
_cell_angle_alpha 95.51338
_cell_angle_beta  95.51437
_cell_angle_gamma 125.78238

_symmetry_space_group_name_	'P 1'
_symmetry_space_group_name_H-M	'P 1'

loop_
_symmetry_equiv_pos_as_xyz
  x,y,z

loop_
_atom_site_label
_atom_site_type_symbol
_atom_site_fract_x
_atom_site_fract_y
_atom_site_fract_z
_atom_site_charge
C 	C 	0.94925 0.00819 0.97595 0.14400
N 	N 	0.90592 0.94337 0.96728 -0.11900
C 	C 	0.92574 0.90666 0.95770 0.15700
N 	N 	0.98846 0.93496 0.95505 -0.14100
C 	C 	0.03212 0.99973 0.96377 0.18800
N 	N 	0.01259 0.03639 0.97484 -0.12000
C 	C 	0.95366 0.01876 0.45975 0.14000
N 	N 	0.01835 0.06061 0.47392 -0.12400
C 	C 	0.05411 0.03894 0.48100 0.15300
N 	N 	0.02472 0.97495 0.47421 -0.10600
C 	C 	0.95988 0.93268 0.46027 0.14900
N 	N 	0.92425 0.95467 0.45298 -0.11700
Cu	Cu	0.63188 0.23178 0.01329 0.93300
Cu	Cu	0.68439 0.22284 0.92787 0.88100
Cu	Cu	0.65565 0.31601 0.94852 0.90100
Cu	Cu	0.62842 0.35053 0.02997 0.90400
C 	C 	0.63158 0.27893 0.09509 0.26800
O 	O 	0.53670 0.18929 0.01194 -0.34100
C 	C 	0.65121 0.26838 0.86284 0.25200
O 	O 	0.67888 0.32855 0.00787 -0.63700
O 	O 	0.62028 0.22553 0.95202 -0.63500
O 	O 	0.67596 0.19036 0.01941 -0.33700
O 	O 	0.74454 0.24933 0.97728 -0.43100
O 	O 	0.63555 0.32925 0.08628 -0.35700
O 	O 	0.69727 0.40563 0.94765 -0.36200
C 	C 	0.69450 0.44477 0.97416 0.30900
C 	C 	0.50802 0.21282 0.99630 0.30000
O 	O 	0.54227 0.27024 0.98724 -0.37700
O 	O 	0.65484 0.42358 0.00098 -0.36700
O 	O 	0.65368 0.25372 0.07269 -0.32900
C 	C 	0.72887 0.21160 0.00454 0.31300
O 	O 	0.63957 0.30213 0.88739 -0.33600
O 	O 	0.64636 0.21886 0.87376 -0.39000
H 	H 	0.72590 0.35900 0.01903 0.17600
H 	H 	0.57538 0.19380 0.93653 0.18800
Cu	Cu	0.72897 0.34080 0.44817 0.92800
Cu	Cu	0.77152 0.31724 0.53745 0.88600
Cu	Cu	0.65873 0.33809 0.51866 0.91500
Cu	Cu	0.62196 0.36444 0.43780 0.90700
C 	C 	0.65105 0.31047 0.36831 0.25900
O 	O 	0.77863 0.43458 0.44269 -0.34200
C 	C 	0.70256 0.32682 0.59654 0.26100
O 	O 	0.63707 0.30929 0.45948 -0.63700
O 	O 	0.74609 0.36443 0.51001 -0.62900
O 	O 	0.75182 0.27953 0.44201 -0.36400
O 	O 	0.82721 0.32468 0.50162 -0.39500
O 	O 	0.64156 0.35285 0.38194 -0.34400
O 	O 	0.57189 0.30622 0.52468 -0.36200
C 	C 	0.53187 0.30555 0.49624 0.30700
C 	C 	0.76565 0.47179 0.46105 0.30100
O 	O 	0.71210 0.44637 0.47585 -0.37100
O 	O 	0.55382 0.34639 0.47039 -0.35900
O 	O 	0.69595 0.30883 0.38935 -0.33800
C 	C 	0.80256 0.28886 0.46428 0.30900
O 	O 	0.68273 0.35659 0.57864 -0.35400
O 	O 	0.70844 0.28729 0.57348 -0.39300
H 	H 	0.60141 0.26304 0.45040 0.18200
H 	H 	0.77950 0.41091 0.52022 0.18300
C 	C 	0.69454 0.33959 0.77482 0.12200
C 	C 	0.69026 0.36699 0.74119 -0.07700
C 	C 	0.71726 0.36321 0.70696 0.01800
C 	C 	0.73771 0.32502 0.70314 0.12300
C 	C 	0.73607 0.29262 0.73517 -0.08200
C 	C 	0.71857 0.30471 0.77196 0.01600
O 	O 	0.65762 0.32727 0.80565 -0.16600
C 	C 	0.66135 0.28101 0.82061 0.05200
C 	C 	0.69537 0.26563 0.79947 -0.05700
O 	O 	0.73669 0.30441 0.66225 -0.18800
C 	C 	0.71275 0.33303 0.64205 0.04400
C 	C 	0.70101 0.36810 0.66824 -0.04900
H 	H 	0.66439 0.38773 0.74091 0.08700
H 	H 	0.74424 0.25657 0.73058 0.07700
H 	H 	0.71324 0.23976 0.80990 0.05700
H 	H 	0.66861 0.38011 0.65922 0.07500
C 	C 	0.57276 0.24701 0.26265 0.12600
C 	C 	0.55322 0.25701 0.22486 -0.07900
C 	C 	0.56865 0.24006 0.18870 0.02600
C 	C 	0.60953 0.22250 0.19048 0.12400
C 	C 	0.63388 0.21805 0.22897 -0.07700
C 	C 	0.61064 0.22587 0.26419 0.02000
O 	O 	0.57702 0.27847 0.30081 -0.17600
C 	C 	0.62192 0.27535 0.32512 0.05500
C 	C 	0.64237 0.24429 0.30374 -0.05200
O 	O 	0.64106 0.23330 0.15677 -0.16700
C 	C 	0.61672 0.26096 0.13567 0.05900
C 	C 	0.57372 0.26511 0.15429 -0.04600
H 	H 	0.53064 0.28106 0.22415 0.08600
H 	H 	0.67225 0.21258 0.23178 0.08500
H 	H 	0.68761 0.25140 0.31324 0.07700
H 	H 	0.56194 0.29766 0.14905 0.07700
C 	C 	0.85686 0.65025 0.49291 -0.06900
C 	C 	0.85390 0.66736 0.45401 0.03200
C 	C 	0.82908 0.62125 0.41725 0.06000
C 	C 	0.80587 0.55830 0.41989 -0.00300
C 	C 	0.80508 0.54028 0.45885 -0.08500
C 	C 	0.83238 0.58697 0.49553 0.12400
C 	C 	0.87735 0.73381 0.45200 0.01900
N 	N 	0.82532 0.63761 0.37725 -0.01700
H 	H 	0.78483 0.52251 0.39161 0.06900
N 	N 	0.83515 0.57019 0.53552 -0.02500
H 	H 	0.87767 0.68600 0.52119 0.09100
C 	C 	0.84501 0.75783 0.46730 0.07800
C 	C 	0.87108 0.82244 0.46850 -0.03100
C 	C 	0.92829 0.86305 0.45359 -0.01800
C 	C 	0.95811 0.83776 0.43567 0.09400
C 	C 	0.93343 0.77386 0.43597 -0.05300
N 	N 	0.78584 0.71678 0.48180 -0.01900
H 	H 	0.84735 0.84124 0.48169 0.08800
N 	N 	0.01262 0.87646 0.41636 -0.01500
H 	H 	0.95762 0.75519 0.42338 0.08700
O 	O 	0.81228 0.58442 0.56444 -0.08300
O 	O 	0.86442 0.54465 0.54391 -0.10400
O 	O 	0.85257 0.62827 0.34922 -0.08200
O 	O 	0.79058 0.65720 0.36777 -0.07400
O 	O 	0.00797 0.90246 0.38575 -0.06700
O 	O 	0.06565 0.88263 0.42776 -0.06800
O 	O 	0.78024 0.73280 0.51896 -0.07500
O 	O 	0.73634 0.66540 0.45699 -0.07400
C 	C 	0.84973 0.07428 0.47091 -0.05700
C 	C 	0.86761 0.11407 0.44118 0.01800
C 	C 	0.90621 0.11466 0.41354 0.07500
C 	C 	0.93068 0.07957 0.41812 -0.03200
C 	C 	0.91649 0.04333 0.44973 -0.02500
C 	C 	0.87401 0.03896 0.47534 0.09800
C 	C 	0.85150 0.15979 0.44203 0.03200
N 	N 	0.92189 0.15208 0.38142 -0.01900
H 	H 	0.96231 0.08196 0.39782 0.07600
N 	N 	0.85731 0.00060 0.50689 -0.02700
H 	H 	0.81919 0.07289 0.49179 0.08200
C 	C 	0.78702 0.13778 0.43067 0.05700
C 	C 	0.77191 0.18106 0.43588 -0.00400
C 	C 	0.82065 0.24636 0.45207 -0.09500
C 	C 	0.88569 0.26892 0.46081 0.12500
C 	C 	0.90060 0.22541 0.45636 -0.07400
N 	N 	0.73659 0.07133 0.41445 -0.01700
H 	H 	0.72193 0.16350 0.42845 0.06400
N 	N 	0.93675 0.33603 0.47374 -0.02300
H 	H 	0.95043 0.24265 0.46420 0.08900
O 	O 	0.79729 0.95300 0.50564 -0.06500
O 	O 	0.90119 0.01644 0.53864 -0.08200
O 	O 	0.98182 0.19216 0.37763 -0.08100
O 	O 	0.87607 0.14371 0.35466 -0.07100
O 	O 	0.98039 0.35638 0.50680 -0.08500
O 	O 	0.94205 0.37628 0.45094 -0.07800
O 	O 	0.68591 0.04032 0.43166 -0.08900
O 	O 	0.73957 0.04282 0.38105 -0.07300
C 	C 	0.22965 0.11165 0.52123 -0.05700
C 	C 	0.26090 0.16412 0.50096 0.02100
C 	C 	0.22457 0.17928 0.47779 0.07500
C 	C 	0.15710 0.13912 0.47250 -0.02900
C 	C 	0.12539 0.08478 0.49115 -0.02300
C 	C 	0.16225 0.07274 0.51723 0.10300
C 	C 	0.33057 0.19907 0.50056 0.03100
N 	N 	0.25609 0.23489 0.45893 -0.01900
H 	H 	0.12930 0.14956 0.45317 0.08100
N 	N 	0.13159 0.02206 0.54041 -0.02500
H 	H 	0.25768 0.10084 0.53992 0.08700
C 	C 	0.37723 0.23901 0.53695 0.06100
C 	C 	0.44308 0.27220 0.53560 0.00300
C 	C 	0.46273 0.26686 0.49808 -0.08500
C 	C 	0.41598 0.22612 0.46192 0.12100
C 	C 	0.35029 0.19241 0.46339 -0.06800
N 	N 	0.35798 0.24677 0.57511 -0.01700
H 	H 	0.47892 0.30356 0.56346 0.07300
N 	N 	0.43513 0.21820 0.42375 -0.02700
H 	H 	0.31445 0.16091 0.43555 0.09000
O 	O 	0.14139 0.97863 0.53698 -0.06300
O 	O 	0.09716 0.02159 0.56688 -0.07000
O 	O 	0.23841 0.22966 0.41938 -0.07600
O 	O 	0.30015 0.29116 0.48169 -0.06900
O 	O 	0.46667 0.19392 0.42170 -0.11600
O 	O 	0.41657 0.23047 0.39025 -0.08400
O 	O 	0.37696 0.23494 0.60867 -0.08100
O 	O 	0.32547 0.27001 0.57703 -0.07000
C 	C 	0.81009 0.74391 0.98511 -0.05900
C 	C 	0.81371 0.70512 0.95482 0.01900
C 	C 	0.84794 0.73144 0.92263 0.07500
C 	C 	0.88055 0.79678 0.92219 -0.02800
C 	C 	0.88116 0.83664 0.95434 -0.02800
C 	C 	0.84480 0.80969 0.98567 0.10200
C 	C 	0.78517 0.63816 0.95858 0.03300
N 	N 	0.85144 0.69240 0.89111 -0.01900
H 	H 	0.90776 0.81708 0.89778 0.08000
N 	N 	0.84622 0.84950 0.01949 -0.02100
H 	H 	0.78299 0.72353 0.00956 0.08900
C 	C 	0.81137 0.62458 0.99175 0.05800
C 	C 	0.78110 0.56105 0.99661 -0.00400
C 	C 	0.72608 0.51082 0.96802 -0.08800
C 	C 	0.70091 0.52418 0.93417 0.13000
C 	C 	0.73039 0.58780 0.92976 -0.07200
N 	N 	0.86894 0.67524 0.02040 -0.01600
H 	H 	0.80086 0.55074 0.02240 0.05900
N 	N 	0.64513 0.47328 0.90443 -0.02400
H 	H 	0.71022 0.59810 0.90419 0.09100
O 	O 	0.79418 0.84454 0.02338 -0.07300
O 	O 	0.89793 0.88682 0.04820 -0.07600
O 	O 	0.83032 0.68647 0.85210 -0.08000
O 	O 	0.88033 0.66699 0.90109 -0.07700
O 	O 	0.58993 0.43640 0.91609 -0.08000
O 	O 	0.64844 0.46682 0.86518 -0.07300
O 	O 	0.86907 0.68098 0.06023 -0.08200
O 	O 	0.92225 0.71306 0.00692 -0.07500
C 	C 	0.90567 0.12286 0.97523 -0.06000
C 	C 	0.87448 0.11152 0.00953 0.02100
C 	C 	0.87303 0.07035 0.03488 0.07500
C 	C 	0.89942 0.03823 0.02426 -0.02900
C 	C 	0.92803 0.04740 0.98890 -0.02500
C 	C 	0.93211 0.09079 0.96463 0.09900
C 	C 	0.83714 0.13689 0.01575 0.03100
N 	N 	0.84391 0.06035 0.07108 -0.01900
H 	H 	0.89717 0.00567 0.04336 0.08600
N 	N 	0.96048 0.10029 0.92816 -0.02600
H 	H 	0.90689 0.15451 0.95569 0.08100
C 	C 	0.86875 0.20340 0.02636 0.05800
C 	C 	0.83247 0.22724 0.02475 0.00100
C 	C 	0.76489 0.18532 0.01310 -0.09700
C 	C 	0.73315 0.11859 0.00489 0.12200
C 	C 	0.76941 0.09481 0.00654 -0.07000
N 	N 	0.93774 0.24691 0.03801 -0.01600
H 	H 	0.85697 0.27851 0.03181 0.06600
N 	N 	0.66436 0.07495 0.99257 -0.02400
H 	H 	0.74493 0.04360 0.99865 0.08600
O 	O 	0.00746 0.15774 0.92423 -0.05500
O 	O 	0.93495 0.05267 0.89713 -0.07800
O 	O 	0.80072 0.00243 0.07649 -0.07500
O 	O 	0.86315 0.10898 0.09973 -0.06900
O 	O 	0.63659 0.07177 0.95626 -0.12100
O 	O 	0.63020 0.03417 0.01585 -0.07100
O 	O 	0.97037 0.29566 0.01966 -0.08700
O 	O 	0.96763 0.23968 0.06839 -0.07200
C 	C 	0.20848 0.11429 0.95484 -0.06600
C 	C 	0.23344 0.08379 0.97122 0.03100
C 	C 	0.19197 0.02512 0.98425 0.04900
C 	C 	0.12679 0.99902 0.98247 0.00600
C 	C 	0.10154 0.02931 0.96604 -0.05700
C 	C 	0.14251 0.08663 0.95123 0.11500
C 	C 	0.30372 0.11542 0.97721 0.02500
N 	N 	0.21596 0.99179 0.99921 -0.01300
H 	H 	0.09558 0.95475 0.99361 0.07700
N 	N 	0.11698 0.11548 0.93107 -0.02300
H 	H 	0.24017 0.15913 0.94442 0.09100
C 	C 	0.33448 0.12292 0.94272 0.06200
C 	C 	0.40133 0.15383 0.94926 0.00100
C 	C 	0.43734 0.17543 0.98985 -0.09000
C 	C 	0.40621 0.16629 0.02420 0.12500
C 	C 	0.33996 0.13751 0.01775 -0.06600
N 	N 	0.29796 0.09889 0.90109 -0.01700
H 	H 	0.42516 0.16073 0.92276 0.06200
N 	N 	0.44199 0.18723 0.06576 -0.02800
H 	H 	0.31647 0.13171 0.04433 0.08800
O 	O 	0.13984 0.17438 0.94543 -0.06700
O 	O 	0.07535 0.08502 0.89621 -0.06100
O 	O 	0.20748 0.97521 0.03547 -0.07000
O 	O 	0.24272 0.97459 0.97554 -0.06600
O 	O 	0.44857 0.23330 0.09053 -0.10200
O 	O 	0.46058 0.15494 0.08040 -0.08200
O 	O 	0.31422 0.13704 0.87439 -0.07900
O 	O 	0.25130 0.03807 0.88909 -0.07400
