data_crystal

_cell_length_a 18.65881
_cell_length_b 18.91143
_cell_length_c 34.89296
_cell_angle_alpha 95.41342
_cell_angle_beta  95.41365
_cell_angle_gamma 126.45790

_symmetry_space_group_name_	'P 1'
_symmetry_space_group_name_H-M	'P 1'

loop_
_symmetry_equiv_pos_as_xyz
  x,y,z

loop_
_atom_site_label
_atom_site_type_symbol
_atom_site_fract_x
_atom_site_fract_y
_atom_site_fract_z
_atom_site_charge
C 	C 	0.90254 0.00597 0.96107 0.03400
C 	C 	0.85407 0.91366 0.96099 -0.08200
C 	C 	0.89944 0.87503 0.96035 0.03800
C 	C 	0.99274 0.92889 0.96044 -0.07100
C 	C 	0.04071 0.02039 0.96042 0.03000
C 	C 	0.99527 0.05841 0.95971 -0.07200
H 	H 	0.78236 0.87275 0.96205 0.05300
H 	H 	0.02819 0.89968 0.96088 0.05100
H 	H 	0.03283 0.12952 0.95992 0.05200
C 	C 	0.95421 0.03141 0.50059 0.04900
C 	C 	0.89800 0.93977 0.50150 -0.08900
C 	C 	0.93290 0.89167 0.50003 0.05000
C 	C 	0.02417 0.93511 0.49780 -0.09100
C 	C 	0.08134 0.02722 0.49803 0.04600
C 	C 	0.04614 0.07535 0.49890 -0.09400
H 	H 	0.82692 0.90574 0.50276 0.05700
H 	H 	0.05108 0.89766 0.49661 0.05800
H 	H 	0.08989 0.14637 0.49833 0.05500
Cu	Cu	0.75223 0.35042 0.95872 0.92700
Cu	Cu	0.74883 0.29123 0.04435 0.87100
Cu	Cu	0.60760 0.30303 0.00813 0.89600
Cu	Cu	0.58134 0.34015 0.92816 0.89600
C 	C 	0.68361 0.31221 0.87605 0.31200
O 	O 	0.80308 0.47979 0.95596 -0.35900
C 	C 	0.67017 0.34358 0.09448 0.30800
O 	O 	0.61083 0.27553 0.95427 -0.63800
O 	O 	0.74134 0.36773 0.01408 -0.64300
O 	O 	0.81450 0.29342 0.96456 -0.37200
O 	O 	0.71937 0.20106 0.00262 -0.44400
O 	O 	0.64619 0.35196 0.88388 -0.38700
O 	O 	0.47695 0.23252 0.99901 -0.38100
C 	C 	0.42661 0.22986 0.96875 0.29800
C 	C 	0.76145 0.51280 0.96746 0.29000
O 	O 	0.67746 0.45842 0.97251 -0.39300
O 	O 	0.46303 0.28845 0.94520 -0.39200
O 	O 	0.73933 0.31493 0.90365 -0.36900
C 	C 	0.77611 0.21914 0.97880 0.30000
O 	O 	0.60290 0.31190 0.06469 -0.39000
O 	O 	0.74412 0.35259 0.08939 -0.40900
H 	H 	0.57296 0.21071 0.94321 0.16500
H 	H 	0.77769 0.43082 0.02771 0.17300
Cu	Cu	0.62208 0.19723 0.50742 0.92800
Cu	Cu	0.69356 0.21005 0.42420 0.87200
Cu	Cu	0.66763 0.34028 0.45854 0.89700
Cu	Cu	0.61878 0.35738 0.53616 0.89800
C 	C 	0.65010 0.26101 0.58957 0.31000
O 	O 	0.48936 0.14025 0.50747 -0.36300
C 	C 	0.64601 0.28878 0.37244 0.30700
O 	O 	0.69269 0.33635 0.51250 -0.63900
O 	O 	0.60829 0.20925 0.45187 -0.64000
O 	O 	0.68088 0.13739 0.50331 -0.37200
O 	O 	0.77875 0.23549 0.46782 -0.43900
O 	O 	0.60530 0.29265 0.58017 -0.37700
O 	O 	0.73293 0.46827 0.46869 -0.38400
C 	C 	0.72209 0.51341 0.49567 0.30400
C 	C 	0.45257 0.17683 0.49415 0.29300
O 	O 	0.50492 0.26037 0.48971 -0.39700
O 	O 	0.66653 0.47433 0.52045 -0.39400
O 	O 	0.65369 0.20919 0.56290 -0.36500
C 	C 	0.75612 0.17456 0.48934 0.30200
O 	O 	0.66080 0.34771 0.40220 -0.37500
O 	O 	0.63591 0.21566 0.37800 -0.42400
H 	H 	0.75779 0.37663 0.52482 0.16700
H 	H 	0.54535 0.17092 0.43683 0.17200
C 	C 	0.72899 0.34514 0.69863 -0.11500
C 	C 	0.69232 0.26487 0.71235 0.00300
C 	C 	0.65213 0.18487 0.68550 0.11800
C 	C 	0.64328 0.18464 0.64513 -0.03300
C 	C 	0.67499 0.26413 0.63138 -0.12300
C 	C 	0.72125 0.34516 0.65835 0.18900
C 	C 	0.68795 0.26356 0.75437 0.00600
O 	O 	0.61745 0.10618 0.69858 -0.27500
H 	H 	0.60838 0.12206 0.62458 0.06200
O 	O 	0.75528 0.42386 0.64535 -0.30400
H 	H 	0.76095 0.40714 0.71919 0.06800
C 	C 	0.76763 0.30534 0.78249 0.11400
C 	C 	0.76494 0.31630 0.82248 -0.03200
C 	C 	0.68324 0.28707 0.83465 -0.12400
C 	C 	0.60266 0.24068 0.80654 0.19100
C 	C 	0.60527 0.22879 0.76661 -0.11200
O 	O 	0.84798 0.33491 0.77096 -0.27500
H 	H 	0.82705 0.35068 0.84391 0.06100
O 	O 	0.52109 0.20538 0.81809 -0.30500
H 	H 	0.54340 0.19513 0.74509 0.07700
H 	H 	0.81829 0.44865 0.64273 0.14100
H 	H 	0.87769 0.39828 0.76883 0.14200
H 	H 	0.51163 0.25162 0.81721 0.14400
H 	H 	0.66817 0.10209 0.70226 0.14800
C 	C 	0.72211 0.42540 0.20347 -0.11100
C 	C 	0.64359 0.35393 0.21438 0.00300
C 	C 	0.56822 0.28746 0.18526 0.11400
C 	C 	0.57440 0.28896 0.14561 -0.03700
C 	C 	0.65625 0.35547 0.13481 -0.12600
C 	C 	0.72858 0.42660 0.16383 0.19100
C 	C 	0.64637 0.34023 0.25529 0.00300
O 	O 	0.48936 0.21957 0.19552 -0.27900
H 	H 	0.51741 0.23527 0.12341 0.05500
O 	O 	0.80716 0.49505 0.15363 -0.29100
H 	H 	0.77984 0.47768 0.22579 0.07500
C 	C 	0.68660 0.30126 0.26850 0.11300
C 	C 	0.68714 0.28587 0.30688 -0.03500
C 	C 	0.64624 0.30762 0.33231 -0.12700
C 	C 	0.60521 0.34611 0.31900 0.19200
C 	C 	0.60606 0.36287 0.28064 -0.11200
O 	O 	0.72684 0.27950 0.24404 -0.27700
H 	H 	0.71958 0.25704 0.31692 0.04400
O 	O 	0.56454 0.36751 0.34334 -0.29000
H 	H 	0.57451 0.39246 0.27051 0.07400
H 	H 	0.79824 0.54079 0.14972 0.14300
H 	H 	0.67809 0.21697 0.23049 0.13700
H 	H 	0.50048 0.31318 0.33896 0.14400
H 	H 	0.49556 0.17138 0.19748 0.13900
C 	C 	0.82754 0.66909 0.53212 -0.02500
C 	C 	0.77013 0.60961 0.49715 -0.11000
C 	C 	0.76044 0.64297 0.46397 0.13000
C 	C 	0.81408 0.73569 0.46559 -0.08900
C 	C 	0.87342 0.79515 0.50024 -0.01900
C 	C 	0.87841 0.76175 0.53420 0.06700
N 	N 	0.93128 0.81812 0.56885 -0.19300
H 	H 	0.83311 0.64315 0.55774 0.03800
H 	H 	0.80926 0.76174 0.43988 0.05500
N 	N 	0.69820 0.58667 0.43100 -0.20200
H 	H 	0.93628 0.79280 0.59349 0.08400
H 	H 	0.96595 0.88712 0.57201 0.08600
H 	H 	0.65011 0.51829 0.43032 0.10400
H 	H 	0.69451 0.61185 0.40609 0.09200
C 	C 	0.85033 0.14543 0.52895 -0.02300
C 	C 	0.80649 0.13747 0.49209 -0.11200
C 	C 	0.81610 0.09930 0.45791 0.11500
C 	C 	0.87324 0.07420 0.46122 -0.08500
C 	C 	0.91451 0.07919 0.49808 -0.02100
C 	C 	0.90446 0.11663 0.53233 0.06700
N 	N 	0.94683 0.12552 0.56839 -0.19400
H 	H 	0.84321 0.17508 0.55505 0.04500
H 	H 	0.88071 0.04495 0.43510 0.05100
N 	N 	0.76744 0.08269 0.42216 -0.19900
H 	H 	0.93750 0.15148 0.59358 0.08500
H 	H 	0.99079 0.10860 0.57177 0.08600
H 	H 	0.71457 0.08778 0.41932 0.03600
H 	H 	0.77853 0.05895 0.39688 0.07500
C 	C 	0.32374 0.11320 0.52901 -0.02800
C 	C 	0.35586 0.13287 0.49383 -0.10900
C 	C 	0.29852 0.12171 0.46033 0.12100
C 	C 	0.21069 0.09301 0.46304 -0.08700
C 	C 	0.17863 0.07321 0.49824 -0.02100
C 	C 	0.23643 0.08556 0.53184 0.06700
N 	N 	0.20902 0.07249 0.56699 -0.19400
H 	H 	0.36834 0.12320 0.55480 0.04800
H 	H 	0.16592 0.08274 0.43727 0.05200
N 	N 	0.32634 0.13583 0.42529 -0.20200
H 	H 	0.25095 0.07887 0.59135 0.08400
H 	H 	0.14742 0.05895 0.57085 0.08300
H 	H 	0.38811 0.14983 0.42145 0.08300
H 	H 	0.28455 0.12988 0.40099 0.08300
C 	C 	0.83453 0.74843 0.99620 -0.08400
C 	C 	0.85034 0.77827 0.96043 -0.01800
C 	C 	0.83732 0.72042 0.92700 0.06700
C 	C 	0.81516 0.63647 0.93068 -0.02900
C 	C 	0.80128 0.60733 0.96664 -0.10700
C 	C 	0.81141 0.66401 0.99983 0.12200
N 	N 	0.80191 0.63908 0.03545 -0.20300
H 	H 	0.84499 0.79293 0.02184 0.04900
H 	H 	0.80508 0.59218 0.90505 0.04600
N 	N 	0.84503 0.74474 0.89127 -0.19400
H 	H 	0.80707 0.68015 0.05956 0.08300
H 	H 	0.79234 0.58040 0.03990 0.08300
H 	H 	0.85443 0.80346 0.88701 0.08700
H 	H 	0.83842 0.70317 0.86695 0.08400
C 	C 	0.84549 0.15251 0.00678 -0.02600
C 	C 	0.80741 0.16360 0.97345 -0.11300
C 	C 	0.79233 0.11528 0.93611 0.12900
C 	C 	0.81912 0.05959 0.93288 -0.09200
C 	C 	0.85881 0.04999 0.96622 -0.01000
C 	C 	0.87007 0.09522 0.00365 0.05800
N 	N 	0.90445 0.08399 0.03666 -0.19200
H 	H 	0.85525 0.18801 0.03543 0.02000
H 	H 	0.81061 0.02499 0.90423 0.05500
N 	N 	0.75143 0.12103 0.90343 -0.20500
H 	H 	0.91874 0.03827 0.03562 0.08300
H 	H 	0.91505 0.11962 0.06408 0.07800
H 	H 	0.72672 0.15809 0.90493 0.10200
H 	H 	0.74222 0.08644 0.87597 0.09000
C 	C 	0.29379 0.17852 0.00008 -0.03500
C 	C 	0.32779 0.17409 0.96650 -0.10000
C 	C 	0.26703 0.11917 0.93079 0.11800
C 	C 	0.17363 0.07345 0.92899 -0.08700
C 	C 	0.13964 0.07706 0.96266 -0.01700
C 	C 	0.20015 0.12941 0.99871 0.07400
N 	N 	0.16888 0.13220 0.03211 -0.19600
H 	H 	0.34046 0.22056 0.02740 0.05100
H 	H 	0.12688 0.03218 0.90159 0.05200
N 	N 	0.29749 0.10744 0.89866 -0.20100
H 	H 	0.21429 0.17187 0.05844 0.08400
H 	H 	0.09962 0.09441 0.03252 0.08400
H 	H 	0.36481 0.13167 0.90018 0.08000
H 	H 	0.25252 0.06975 0.87203 0.08400
