data_crystal

_cell_length_a 26.57126
_cell_length_b 27.81078
_cell_length_c 38.19494
_cell_angle_alpha 60.90631
_cell_angle_beta  118.80969
_cell_angle_gamma 133.11778

_symmetry_space_group_name_	'P 1'
_symmetry_space_group_name_H-M	'P 1'

loop_
_symmetry_equiv_pos_as_xyz
  x,y,z

loop_
_atom_site_label
_atom_site_type_symbol
_atom_site_fract_x
_atom_site_fract_y
_atom_site_fract_z
_atom_site_charge
Co	Co	0.06859 0.02458 0.07662 1.17900
Co	Co	0.11183 0.92627 0.09977 1.18400
O 	O 	0.05730 0.09923 0.05713 -0.45500
C 	C 	0.06412 0.18709 0.12370 0.31600
C 	C 	0.13897 0.89814 0.18964 0.29700
O 	O 	0.07768 0.15043 0.12255 -0.39500
O 	O 	0.09865 0.90951 0.19027 -0.36800
O 	O 	0.05523 0.94968 0.10458 -0.74300
Co	Co	0.06301 0.00064 0.58695 1.17900
Co	Co	0.08170 0.88954 0.59742 1.17500
O 	O 	0.06656 0.08102 0.57700 -0.45300
C 	C 	0.05721 0.13646 0.65875 0.31100
C 	C 	0.07575 0.82308 0.68562 0.30600
O 	O 	0.10771 0.96458 0.54322 -0.38700
O 	O 	0.00415 0.09916 0.67605 -0.36400
O 	O 	0.06982 0.10734 0.64834 -0.38700
O 	O 	0.06241 0.81252 0.65125 -0.40000
O 	O 	0.05829 0.85774 0.68516 -0.37900
O 	O 	0.03261 0.91913 0.60389 -0.74500
C 	C 	0.07764 0.96987 0.92553 0.23200
C 	C 	0.08890 0.97358 0.96416 0.30700
F 	F 	0.14002 0.96853 0.99596 -0.39700
C 	C 	0.03852 0.00656 0.78801 0.28000
C 	C 	0.05592 0.01463 0.82664 0.18300
F 	F 	0.08363 0.05621 0.76257 -0.40500
F 	F 	0.11779 0.07194 0.83828 -0.36800
F 	F 	0.11685 0.95982 0.92050 -0.35000
C 	C 	0.06496 0.99311 0.34004 0.23600
C 	C 	0.05543 0.99829 0.29920 0.33300
F 	F 	0.11702 0.98752 0.37001 -0.35200
C 	C 	0.10150 0.04667 0.44906 0.28400
C 	C 	0.09210 0.04833 0.40920 0.18100
F 	F 	0.15986 0.10072 0.46533 -0.39900
F 	F 	0.14033 0.10480 0.38673 -0.36300
F 	F 	0.09984 0.99982 0.28987 -0.38100
C 	C 	0.07079 0.72031 0.73485 -0.01300
H 	H 	0.04779 0.60136 0.74628 0.05300
H 	H 	0.01585 0.68534 0.72086 0.04900
C 	C 	0.10728 0.78028 0.22379 -0.02100
H 	H 	0.06512 0.65996 0.22003 0.05300
H 	H 	0.05441 0.75657 0.20406 0.05000
Co	Co	0.01176 0.90139 0.14261 1.19200
C 	C 	0.05096 0.97347 0.01248 0.43100
O 	O 	0.04934 0.01508 0.01926 -0.38900
C 	C 	0.06609 0.98310 0.51603 0.45200
O 	O 	0.04762 0.00722 0.52637 -0.40300
C 	C 	0.02478 0.97467 0.89244 -0.00900
C 	C 	0.04667 0.98110 0.97028 -0.20800
C 	C 	0.00856 0.96457 0.85266 0.03900
C 	C 	0.05133 0.98894 0.47232 -0.19200
H 	H 	0.05803 0.25253 0.61523 0.04500
C 	C 	0.12200 0.25628 0.12924 -0.08000
O 	O 	0.04100 0.82290 0.12339 -0.39200
O 	O 	0.04659 0.91984 0.04121 -0.37200
H 	H 	0.07209 0.30724 0.08163 0.04600
C 	C 	0.11490 0.30993 0.10821 -0.01200
C 	C 	0.03291 0.99187 0.39252 0.04900
H 	H 	0.11360 0.41712 0.09417 0.05200
C 	C 	0.11329 0.20666 0.66242 -0.07700
C 	C 	0.10394 0.79053 0.72468 -0.07000
C 	C 	0.10329 0.25830 0.64057 -0.01900
C 	C 	0.11860 0.69057 0.23749 -0.05100
C 	C 	0.14988 0.40942 0.12187 -0.04900
C 	C 	0.15990 0.36107 0.12999 0.01900
O 	O 	0.00518 0.98652 0.21304 -0.32200
C 	C 	0.02134 0.99455 0.34981 -0.03100
C 	C 	0.10234 0.64264 0.75581 -0.04900
O 	O 	0.17100 0.93296 0.15946 -0.37000
C 	C 	0.15159 0.84918 0.22399 -0.06800
O 	O 	0.18890 0.02767 0.07747 -0.39600
O 	O 	0.17591 0.07775 0.10228 -0.40300
O 	O 	0.17882 0.95677 0.62987 -0.34800
O 	O 	0.16545 0.03496 0.62205 -0.38800
S 	S 	0.17546 0.22696 0.70602 0.11400
H 	H 	0.10061 0.36559 0.62435 0.05400
C 	C 	0.11930 0.70285 0.75585 0.02100
C 	C 	0.14343 0.74939 0.24478 0.02500
S 	S 	0.18016 0.27184 0.17456 0.06200
C 	C 	0.21675 0.07535 0.09402 0.30200
C 	C 	0.13981 0.36103 0.65108 -0.05200
C 	C 	0.15009 0.31250 0.66008 0.02800
C 	C 	0.15806 0.63985 0.76463 0.00200
S 	S 	0.15079 0.58739 0.74996 0.02400
C 	C 	0.20160 0.34708 0.16804 0.00100
C 	C 	0.18715 0.44589 0.15155 0.00200
S 	S 	0.17487 0.49558 0.15339 0.02300
C 	C 	0.16652 0.67512 0.25125 0.00300
S 	S 	0.15657 0.62343 0.23416 0.02300
C 	C 	0.20374 0.02043 0.62223 0.26100
C 	C 	0.18099 0.40209 0.67862 0.00500
C 	C 	0.19570 0.30256 0.69720 -0.01100
C 	C 	0.22725 0.33615 0.72758 -0.04100
S 	S 	0.16905 0.45243 0.67994 0.02200
C 	C 	0.19050 0.75927 0.76301 0.00300
S 	S 	0.19129 0.82788 0.74198 0.05500
N 	N 	0.22864 0.54855 0.73969 -0.13400
C 	C 	0.22136 0.38828 0.71696 0.02800
C 	C 	0.21711 0.46161 0.72813 -0.01600
C 	C 	0.24194 0.42153 0.74497 -0.03900
H 	H 	0.25349 0.32117 0.75838 0.06500
C 	C 	0.22863 0.37589 0.20003 -0.05100
C 	C 	0.22276 0.42757 0.19058 0.03100
C 	C 	0.21703 0.49885 0.20299 -0.01500
C 	C 	0.21562 0.79385 0.26202 -0.00000
H 	H 	0.28779 0.20797 0.04510 0.05000
N 	N 	0.23095 0.57971 0.22310 -0.13300
C 	C 	0.22850 0.69847 0.76747 0.03000
C 	C 	0.23501 0.63575 0.74730 -0.01700
C 	C 	0.23964 0.45687 0.21973 -0.04100
S 	S 	0.23356 0.86976 0.24892 0.06600
H 	H 	0.27825 0.42111 0.77483 0.05900
C 	C 	0.24522 0.75933 0.76596 -0.05200
H 	H 	0.25131 0.35755 0.23109 0.06400
C 	C 	0.23936 0.72180 0.26596 0.03000
C 	C 	0.24236 0.65495 0.24738 -0.01500
C 	C 	0.29276 0.12980 0.09938 -0.07000
C 	C 	0.26022 0.52661 0.73833 0.12900
C 	C 	0.28033 0.07258 0.62661 -0.06500
C 	C 	0.26089 0.56212 0.21542 0.12900
C 	C 	0.27241 0.63912 0.23407 0.12900
C 	C 	0.26863 0.61149 0.74563 0.12900
C 	C 	0.27221 0.69568 0.75838 -0.04300
H 	H 	0.27289 0.45319 0.25042 0.06000
C 	C 	0.26508 0.78332 0.26987 -0.05000
C 	C 	0.32043 0.19178 0.06967 -0.01200
C 	C 	0.28231 0.71058 0.26379 -0.04300
H 	H 	0.29779 0.80627 0.76395 0.05900
H 	H 	0.31538 0.00658 0.65673 0.04100
S 	S 	0.31426 0.15014 0.59470 0.05600
C 	C 	0.32878 0.05734 0.64109 -0.02100
H 	H 	0.32743 0.73696 0.75795 0.05900
H 	H 	0.32151 0.82286 0.27677 0.06000
N 	N 	0.33179 0.60389 0.21854 -0.13800
N 	N 	0.33139 0.56792 0.74235 -0.13700
S 	S 	0.35344 0.11379 0.12272 0.02900
N 	N 	0.34325 0.68110 0.23644 -0.13500
N 	N 	0.33961 0.65314 0.74854 -0.13600
H 	H 	0.33961 0.74561 0.26970 0.06100
H 	H 	0.39676 0.29694 0.01046 0.05400
C 	C 	0.39024 0.22264 0.06930 0.01900
C 	C 	0.37295 0.66347 0.22879 0.13200
C 	C 	0.37102 0.63139 0.74695 0.13000
C 	C 	0.39103 0.11124 0.62594 0.01900
C 	C 	0.39098 0.16838 0.59964 0.00300
C 	C 	0.00169 0.00424 0.26794 -0.22200
C 	C 	0.41686 0.18466 0.09877 0.00600
C 	C 	0.42067 0.27190 0.03547 -0.04500
H 	H 	0.42111 0.25023 0.54478 0.06500
C 	C 	0.43021 0.21339 0.56936 -0.04900
H 	H 	0.43271 0.05575 0.64236 0.04600
C 	C 	0.43635 0.10218 0.62511 -0.05200
Co	Co	0.99771 0.04973 0.60530 1.17200
H 	H 	0.99776 0.70112 0.12711 0.04800
C 	C 	0.97310 0.94902 0.77482 -0.19400
O 	O 	0.97256 0.94013 0.71463 -0.37500
O 	O 	0.99822 0.16421 0.11630 -0.40500
O 	O 	0.99620 0.07120 0.19825 -0.36700
Co	Co	0.00025 0.07426 0.09154 1.18700
C 	C 	0.99634 0.01830 0.22415 0.34200
C 	C 	0.94656 0.94916 0.73098 0.41200
C 	C 	0.71163 0.34285 0.98633 0.12800
N 	N 	0.64601 0.30490 0.99262 -0.13700
C 	C 	0.62527 0.33473 0.99668 0.13600
N 	N 	0.67026 0.40222 0.99469 -0.13800
C 	C 	0.73629 0.43990 0.98943 0.13000
N 	N 	0.75683 0.41022 0.98511 -0.13300
C 	C 	0.68833 0.27749 0.50231 0.12600
N 	N 	0.73809 0.33985 0.51062 -0.13500
C 	C 	0.72523 0.35916 0.53008 0.12900
N 	N 	0.66214 0.31709 0.54019 -0.13800
C 	C 	0.61183 0.25554 0.53128 0.12700
N 	N 	0.62502 0.23530 0.51267 -0.13600
Co	Co	0.94659 0.95254 0.15886 1.20000
Co	Co	0.92312 0.06393 0.14213 1.16800
C 	C 	0.97247 0.79184 0.11585 0.30200
O 	O 	0.85516 0.05339 0.08467 -0.39800
O 	O 	0.95369 0.02419 0.12793 -0.78700
C 	C 	0.87861 0.09112 0.05063 0.29300
O 	O 	0.95499 0.87639 0.17715 -0.44600
C 	C 	0.80857 0.91416 0.15663 0.30500
O 	O 	0.98176 0.97480 0.10608 -0.55400
O 	O 	0.93033 0.09871 0.04575 -0.37400
O 	O 	0.84717 0.96802 0.17051 -0.34100
O 	O 	0.83874 0.89514 0.15236 -0.36700
O 	O 	0.94837 0.81299 0.12411 -0.38000
Co	Co	0.91879 0.91558 0.65810 1.19300
Co	Co	0.97996 0.86495 0.63707 1.18900
Co	Co	0.90140 0.02512 0.65093 1.15000
C 	C 	0.92822 0.77400 0.58609 0.29700
O 	O 	0.90780 0.09813 0.59581 -0.40500
O 	O 	0.93513 0.99217 0.63277 -0.73600
C 	C 	0.89828 0.09104 0.56107 0.29500
O 	O 	0.92095 0.83714 0.67127 -0.44900
C 	C 	0.77499 0.88548 0.64153 0.30200
O 	O 	0.96618 0.94944 0.60772 -0.55400
O 	O 	0.94173 0.08702 0.55692 -0.38500
O 	O 	0.80214 0.95054 0.62492 -0.36800
O 	O 	0.81030 0.86099 0.65133 -0.36400
O 	O 	0.89509 0.95643 0.70850 -0.37900
O 	O 	0.97982 0.82547 0.56666 -0.35100
O 	O 	0.91555 0.78113 0.61249 -0.36600
C 	C 	0.98501 0.98577 0.89792 0.22500
C 	C 	0.99565 0.98865 0.93673 0.30900
F 	F 	0.93493 0.99216 0.86584 -0.35500
C 	C 	0.94525 0.90502 0.84054 0.21000
C 	C 	0.92743 0.89747 0.80170 0.31000
F 	F 	0.90032 0.85515 0.86608 -0.36000
F 	F 	0.86453 0.84114 0.78952 -0.39700
F 	F 	0.95443 0.99596 0.94209 -0.38000
C 	C 	0.96688 0.99909 0.31874 0.30200
C 	C 	0.95668 0.00328 0.27815 0.24100
F 	F 	0.90363 0.00753 0.24847 -0.41200
C 	C 	0.98252 0.93436 0.41573 0.21000
C 	C 	0.99136 0.93321 0.45527 0.30400
F 	F 	0.92509 0.87953 0.39995 -0.35800
F 	F 	0.94211 0.87751 0.47729 -0.40400
F 	F 	0.92445 0.00054 0.32781 -0.40200
C 	C 	0.59298 0.79977 0.65784 0.00100
C 	C 	0.55473 0.80419 0.67019 -0.04900
C 	C 	0.53289 0.76000 0.70714 0.03200
C 	C 	0.55369 0.71635 0.73224 0.01000
C 	C 	0.59245 0.71233 0.72003 -0.04500
C 	C 	0.61447 0.75671 0.68315 0.02700
S 	S 	0.64940 0.86333 0.62782 0.05300
C 	C 	0.70029 0.83776 0.64366 -0.06500
C 	C 	0.67478 0.77787 0.67514 -0.01300
S 	S 	0.49619 0.65223 0.76160 0.03400
C 	C 	0.44614 0.67864 0.74596 -0.01800
C 	C 	0.47274 0.73917 0.71509 -0.03900
H 	H 	0.54040 0.83919 0.65103 0.05900
H 	H 	0.60679 0.67734 0.73918 0.06600
H 	H 	0.70500 0.75728 0.69581 0.06900
H 	H 	0.44303 0.76034 0.69451 0.05600
C 	C 	0.62255 0.77519 0.18163 0.00100
C 	C 	0.58345 0.72608 0.21183 -0.04600
C 	C 	0.54895 0.73877 0.22109 0.03300
C 	C 	0.55845 0.80140 0.20284 0.01000
C 	C 	0.59728 0.85039 0.17252 -0.04400
C 	C 	0.63172 0.83770 0.16319 0.02800
S 	S 	0.69093 0.78636 0.17936 0.06200
C 	C 	0.73194 0.86806 0.15335 -0.06400
C 	C 	0.69311 0.88995 0.14709 -0.00900
S 	S 	0.49067 0.79068 0.20553 0.03500
C 	C 	0.44941 0.70893 0.23142 -0.01800
C 	C 	0.48766 0.68663 0.23730 -0.03800
H 	H 	0.57821 0.67874 0.22666 0.05800
H 	H 	0.60256 0.89775 0.15772 0.06300
H 	H 	0.71395 0.94310 0.13736 0.06000
H 	H 	0.46665 0.63345 0.24700 0.05700
C 	C 	0.75236 0.11931 0.48908 0.00700
C 	C 	0.69822 0.11810 0.48823 -0.05900
C 	C 	0.70795 0.18008 0.47525 0.02800
C 	C 	0.77199 0.24159 0.46528 0.00100
C 	C 	0.82962 0.24304 0.47198 -0.05000
C 	C 	0.81877 0.18096 0.48308 0.01700
S 	S 	0.76529 0.05942 0.51927 0.01300
C 	C 	0.85252 0.10673 0.52405 -0.07000
C 	C 	0.87506 0.17383 0.50270 -0.01300
S 	S 	0.77982 0.30336 0.46940 0.02100
C 	C 	0.70232 0.25643 0.48129 -0.01700
C 	C 	0.66865 0.18838 0.48428 -0.04500
H 	H 	0.65237 0.07112 0.50001 0.04800
H 	H 	0.88218 0.29048 0.47140 0.05200
H 	H 	0.93039 0.21688 0.50711 0.04600
H 	H 	0.62384 0.14615 0.49828 0.05300
C 	C 	0.86230 0.59800 0.59033 -0.00100
C 	C 	0.82753 0.52787 0.60002 -0.05200
C 	C 	0.80355 0.49974 0.56851 0.02700
C 	C 	0.80909 0.53957 0.52832 0.00600
C 	C 	0.84406 0.60967 0.51848 -0.05100
C 	C 	0.86807 0.63808 0.54993 0.03100
S 	S 	0.86963 0.63775 0.61560 0.03200
C 	C 	0.88265 0.70740 0.57757 -0.05300
C 	C 	0.88019 0.69983 0.54281 -0.02300
S 	S 	0.79461 0.49717 0.50161 0.03000
C 	C 	0.77823 0.42604 0.53916 -0.02100
C 	C 	0.78610 0.43585 0.57484 -0.04200
H 	H 	0.82103 0.49686 0.63098 0.05200
H 	H 	0.84910 0.64022 0.48728 0.07100
H 	H 	0.88880 0.73822 0.51392 0.09700
H 	H 	0.77444 0.39651 0.60320 0.05200
C 	C 	0.47821 0.20618 0.57041 0.03100
C 	C 	0.48382 0.15371 0.59954 0.00300
S 	S 	0.52745 0.14670 0.58470 0.01000
C 	C 	0.54386 0.21117 0.54225 -0.01400
C 	C 	0.51141 0.23836 0.53809 -0.04000
H 	H 	0.51692 0.28332 0.51465 0.06000
C 	C 	0.81125 0.27829 0.99580 -0.00100
C 	C 	0.85743 0.27504 0.99067 -0.05200
C 	C 	0.83289 0.21178 0.99015 0.02300
C 	C 	0.76154 0.15579 0.99033 0.00700
C 	C 	0.71512 0.15995 0.99465 -0.05900
C 	C 	0.74063 0.22269 0.99638 0.02800
S 	S 	0.81904 0.34844 0.98474 0.02400
C 	C 	0.73430 0.31116 0.98140 -0.01700
C 	C 	0.69707 0.24067 0.98907 -0.04500
S 	S 	0.75786 0.08595 0.00920 0.01700
C 	C 	0.84351 0.12204 0.01631 -0.06600
C 	C 	0.87867 0.19276 0.00423 -0.02700
H 	H 	0.91184 0.31885 0.98988 0.05200
H 	H 	0.66121 0.11590 0.99660 0.05100
H 	H 	0.64122 0.20419 0.98903 0.05600
H 	H 	0.93589 0.22812 0.01275 0.04600
C 	C 	0.83813 0.64483 0.06023 -0.00100
C 	C 	0.79925 0.62444 0.02324 -0.04400
C 	C 	0.81716 0.59693 0.01254 0.02800
C 	C 	0.87692 0.59640 0.03644 0.01100
C 	C 	0.91614 0.61741 0.07328 -0.05100
C 	C 	0.89734 0.64369 0.08433 0.02200
S 	S 	0.84725 0.70259 0.07023 0.05800
C 	C 	0.92296 0.72509 0.10666 -0.07400
C 	C 	0.94510 0.68865 0.11063 -0.01600
S 	S 	0.86563 0.53593 0.02817 0.01800
C 	C 	0.78794 0.51028 0.99341 -0.01100
C 	C 	0.76740 0.54892 0.98809 -0.03100
H 	H 	0.75454 0.62692 0.00441 0.06100
H 	H 	0.96064 0.61465 0.09227 0.05400
H 	H 	0.71408 0.53527 0.97287 0.06000
C 	C 	0.46964 0.19063 0.09331 -0.05500
C 	C 	0.50303 0.24312 0.06113 0.03000
C 	C 	0.48079 0.28499 0.03407 -0.00600
S 	S 	0.51230 0.32453 0.99257 0.04200
C 	C 	0.55771 0.29326 0.00762 -0.03000
C 	C 	0.54663 0.24785 0.04654 -0.04100
H 	H 	0.48170 0.15390 0.11205 0.05100
H 	H 	0.57263 0.22273 0.06471 0.05000
