data_crystal

_cell_length_a 28.27355
_cell_length_b 26.75578
_cell_length_c 45.40639
_cell_angle_alpha 103.79330
_cell_angle_beta  115.85199
_cell_angle_gamma 112.10393

_symmetry_space_group_name_	'P 1'
_symmetry_space_group_name_H-M	'P 1'

loop_
_symmetry_equiv_pos_as_xyz
  x,y,z

loop_
_atom_site_label
_atom_site_type_symbol
_atom_site_fract_x
_atom_site_fract_y
_atom_site_fract_z
_atom_site_charge
C 	C 	0.56130 0.25772 0.90673 0.04500
C 	C 	0.59022 0.22590 0.90434 -0.08500
C 	C 	0.64088 0.25042 0.90188 0.04500
C 	C 	0.66148 0.30595 0.90075 -0.08500
C 	C 	0.63269 0.33791 0.90317 0.04400
C 	C 	0.58231 0.31360 0.90593 -0.08600
H 	H 	0.57504 0.18348 0.90595 0.04800
H 	H 	0.70156 0.32558 0.89963 0.05100
H 	H 	0.56086 0.33897 0.90861 0.05000
C 	C 	0.55979 0.25726 0.40581 0.04400
C 	C 	0.58088 0.31314 0.40500 -0.08600
C 	C 	0.63140 0.33744 0.40235 0.04400
C 	C 	0.66023 0.30548 0.40005 -0.08600
C 	C 	0.63955 0.24997 0.40119 0.04400
C 	C 	0.58877 0.22545 0.40354 -0.08600
H 	H 	0.55941 0.33850 0.40760 0.05000
H 	H 	0.70039 0.32511 0.39899 0.05100
H 	H 	0.57353 0.18305 0.40516 0.04800
C 	C 	0.47157 0.75609 0.00301 0.04300
C 	C 	0.44024 0.78614 0.00300 -0.08500
C 	C 	0.38577 0.75873 0.00170 0.04800
C 	C 	0.36318 0.70175 0.00101 -0.08400
C 	C 	0.39415 0.67145 0.00084 0.04800
C 	C 	0.44855 0.69871 0.00199 -0.08600
H 	H 	0.45721 0.82986 0.00297 0.05200
H 	H 	0.32052 0.68018 0.99950 0.04600
H 	H 	0.47210 0.67490 0.00135 0.05100
C 	C 	0.47105 0.75651 0.50304 0.04400
C 	C 	0.43971 0.78655 0.50301 -0.08500
C 	C 	0.38529 0.75919 0.50177 0.04400
C 	C 	0.36278 0.70228 0.50116 -0.08600
C 	C 	0.39377 0.67198 0.50101 0.04300
C 	C 	0.44811 0.69919 0.50210 -0.08600
H 	H 	0.45662 0.83021 0.50291 0.05100
H 	H 	0.32015 0.68073 0.49969 0.04800
H 	H 	0.47166 0.67539 0.50147 0.05000
Zn	Zn	0.15868 0.12653 0.99809 1.18200
Zn	Zn	0.05154 0.08017 0.91884 1.18500
O 	O 	0.04398 0.97832 0.86097 -0.46200
O 	O 	0.02278 0.05317 0.86495 -0.46000
O 	O 	0.02983 0.89435 0.90551 -0.51100
C 	C 	0.21538 0.09465 0.96545 0.31500
O 	O 	0.99030 0.99627 0.90468 -0.83600
C 	C 	0.16067 0.21308 0.96863 0.32800
O 	O 	0.22783 0.12743 0.99747 -0.47100
O 	O 	0.15685 0.05207 0.93709 -0.35900
O 	O 	0.07360 0.08834 0.96988 -0.79700
O 	O 	0.09063 0.97797 0.96281 -0.45000
O 	O 	0.11932 0.16454 0.93484 -0.46400
O 	O 	0.17923 0.20701 0.99891 -0.46900
Zn	Zn	0.87748 0.90135 0.92275 1.17600
Zn	Zn	0.98599 0.92641 0.98839 1.19800
Zn	Zn	0.01467 0.00432 0.95330 1.20100
C 	C 	0.86926 0.80117 0.94316 0.33500
C 	C 	0.85308 0.94339 0.97381 0.33200
O 	O 	0.93932 0.03382 0.94474 -0.46600
Zn	Zn	0.00321 0.04345 0.01964 1.18800
O 	O 	0.92967 0.83830 0.97107 -0.45200
O 	O 	0.84015 0.81818 0.92004 -0.46600
O 	O 	0.83484 0.92912 0.93941 -0.47900
O 	O 	0.90943 0.95741 0.99865 -0.45800
C 	C 	0.03844 0.99719 0.07139 0.32500
O 	O 	0.95524 0.92066 0.93679 -0.77900
C 	C 	0.93928 0.07373 0.96833 0.33100
O 	O 	0.02065 0.94746 0.04352 -0.44800
O 	O 	0.04180 0.04561 0.06772 -0.49600
O 	O 	0.96819 0.08707 0.00348 -0.48200
O 	O 	0.03817 0.01126 0.00133 -0.91800
Zn	Zn	0.00478 0.93946 0.88305 1.17900
C 	C 	0.03410 0.01586 0.84881 0.28200
C 	C 	0.07692 0.92489 0.94091 0.32800
H 	H 	0.08360 0.02995 0.01982 0.16000
H 	H 	0.94621 0.98408 0.88857 0.14900
Zn	Zn	0.15794 0.12664 0.49784 1.18200
Zn	Zn	0.05086 0.08061 0.41873 1.18500
O 	O 	0.04364 0.97906 0.36082 -0.46200
O 	O 	0.02232 0.05383 0.36490 -0.46000
O 	O 	0.02934 0.89475 0.40517 -0.51000
C 	C 	0.21434 0.09476 0.46496 0.31500
O 	O 	0.98968 0.99660 0.40444 -0.83600
C 	C 	0.16000 0.21353 0.46867 0.32800
O 	O 	0.22698 0.12760 0.49703 -0.47000
O 	O 	0.15577 0.05211 0.43669 -0.35900
O 	O 	0.07284 0.08852 0.46972 -0.79600
O 	O 	0.08989 0.97816 0.46254 -0.45000
O 	O 	0.11856 0.16511 0.43483 -0.46400
O 	O 	0.17853 0.20727 0.49888 -0.46900
Zn	Zn	0.87654 0.90113 0.42222 1.17600
Zn	Zn	0.98500 0.92614 0.48787 1.19900
Zn	Zn	0.01386 0.00441 0.45300 1.20200
C 	C 	0.86838 0.80078 0.44246 0.33500
C 	C 	0.85191 0.94292 0.47320 0.33200
O 	O 	0.93844 0.03382 0.44442 -0.46700
Zn	Zn	0.00205 0.04309 0.51924 1.18700
O 	O 	0.92876 0.83793 0.47041 -0.45100
O 	O 	0.83926 0.81784 0.41938 -0.46600
O 	O 	0.83367 0.92861 0.43880 -0.47900
O 	O 	0.90823 0.95687 0.49803 -0.45700
C 	C 	0.03703 0.99651 0.57083 0.32500
O 	O 	0.95440 0.92066 0.43634 -0.77900
C 	C 	0.93823 0.07355 0.46801 0.33500
O 	O 	0.01939 0.94690 0.54294 -0.44900
O 	O 	0.04045 0.04500 0.56724 -0.49700
O 	O 	0.96702 0.08672 0.50313 -0.48600
O 	O 	0.03717 0.01110 0.50096 -0.92000
Zn	Zn	0.00434 0.93998 0.38281 1.17900
C 	C 	0.03396 0.01682 0.34883 0.28200
C 	C 	0.07629 0.92517 0.44061 0.32800
H 	H 	0.08259 0.02981 0.51949 0.15900
H 	H 	0.94558 0.98436 0.38830 0.14900
C 	C 	0.05027 0.99661 0.60600 -0.07000
C 	C 	0.09518 0.05203 0.63996 -0.01300
C 	C 	0.09895 0.05523 0.67215 -0.06200
C 	C 	0.05809 0.00310 0.67069 0.01300
C 	C 	0.01592 0.94680 0.63744 -0.07200
C 	C 	0.01211 0.94347 0.60519 -0.02400
C 	C 	0.05623 0.00850 0.70241 -0.02700
C 	C 	0.05478 0.01317 0.72902 -0.04400
C 	C 	0.05252 0.01856 0.76062 0.04600
C 	C 	0.00634 0.02519 0.76170 -0.11000
C 	C 	0.00162 0.02654 0.79126 -0.01800
C 	C 	0.04289 0.02089 0.81978 -0.09200
C 	C 	0.09047 0.01636 0.81924 0.01300
C 	C 	0.09520 0.01518 0.78975 -0.08000
H 	H 	0.12568 0.09310 0.64111 0.02400
H 	H 	0.13228 0.09871 0.69791 0.03700
H 	H 	0.98464 0.90612 0.63623 0.07100
H 	H 	0.97740 0.90038 0.57922 0.06500
H 	H 	0.97346 0.02828 0.73938 0.07400
H 	H 	0.96487 0.03024 0.79144 0.05100
H 	H 	0.12338 0.01319 0.84149 0.03000
H 	H 	0.13150 0.01081 0.78930 0.04200
C 	C 	0.05187 0.99751 0.10664 -0.06900
C 	C 	0.09677 0.05305 0.14053 -0.01300
C 	C 	0.10062 0.05646 0.17277 -0.06200
C 	C 	0.05985 0.00444 0.17142 0.01300
C 	C 	0.01773 0.94802 0.13826 -0.07200
C 	C 	0.01385 0.94446 0.10596 -0.02400
C 	C 	0.05787 0.01009 0.20312 -0.02700
C 	C 	0.05629 0.01492 0.22970 -0.04300
C 	C 	0.05376 0.02044 0.26121 0.04600
C 	C 	0.00668 0.02588 0.26175 -0.11000
C 	C 	0.00155 0.02705 0.29115 -0.01700
C 	C 	0.04329 0.02239 0.32006 -0.09200
C 	C 	0.09181 0.01919 0.32012 0.01400
C 	C 	0.09696 0.01821 0.29078 -0.08000
H 	H 	0.12717 0.09405 0.14158 0.02500
H 	H 	0.13391 0.10004 0.19847 0.03800
H 	H 	0.98653 0.90741 0.13714 0.07100
H 	H 	0.97917 0.90128 0.08005 0.06600
H 	H 	0.97341 0.02812 0.23909 0.07400
H 	H 	0.96411 0.02977 0.29089 0.05100
H 	H 	0.12510 0.01684 0.34269 0.03000
H 	H 	0.13397 0.01481 0.29078 0.04200
C 	C 	0.33735 0.46141 0.47880 -0.08400
C 	C 	0.31056 0.49801 0.48925 0.04500
C 	C 	0.20454 0.39631 0.45278 -0.07200
C 	C 	0.25163 0.38647 0.48079 0.01800
C 	C 	0.30270 0.39581 0.47383 -0.07200
H 	H 	0.33190 0.45771 0.45242 0.04100
H 	H 	0.38858 0.48615 0.50102 0.04200
C 	C 	0.34280 0.56031 0.49389 -0.03300
H 	H 	0.16738 0.39016 0.45719 0.03400
H 	H 	0.18059 0.36131 0.42360 0.03700
C 	C 	0.21858 0.32428 0.47613 0.02800
H 	H 	0.28074 0.36082 0.44507 0.04000
H 	H 	0.33741 0.38923 0.49365 0.04000
C 	C 	0.28416 0.43630 0.52101 -0.07200
H 	H 	0.31851 0.43056 0.54180 0.03800
H 	H 	0.24865 0.43098 0.52682 0.03600
C 	C 	0.31877 0.50180 0.52597 -0.08400
H 	H 	0.29976 0.52772 0.53416 0.04000
H 	H 	0.36963 0.52732 0.54913 0.04100
C 	C 	0.23913 0.46178 0.45774 -0.08400
H 	H 	0.21843 0.48685 0.46449 0.03900
H 	H 	0.23166 0.45804 0.43091 0.04000
C 	C 	0.36727 0.61128 0.49737 -0.02800
C 	C 	0.19159 0.27361 0.47255 -0.11900
C 	C 	0.68158 0.84617 0.52951 -0.08300
C 	C 	0.61969 0.83091 0.49566 0.04600
C 	C 	0.68545 0.91889 0.48969 -0.07400
C 	C 	0.71247 0.87813 0.48877 0.02100
C 	C 	0.73614 0.87393 0.52547 -0.07400
H 	H 	0.69422 0.87952 0.55594 0.04600
H 	H 	0.67509 0.80372 0.53154 0.04400
C 	C 	0.56751 0.80436 0.49917 -0.03100
H 	H 	0.66784 0.92260 0.46360 0.04200
H 	H 	0.72313 0.96639 0.51348 0.04500
C 	C 	0.76383 0.90385 0.48451 0.03300
H 	H 	0.77482 0.92054 0.54996 0.04700
H 	H 	0.75567 0.84473 0.52558 0.04500
C 	C 	0.65845 0.81238 0.45545 -0.07300
H 	H 	0.67636 0.78188 0.45412 0.04100
H 	H 	0.64023 0.81385 0.42864 0.04000
C 	C 	0.60401 0.78468 0.45949 -0.08400
H 	H 	0.55984 0.77297 0.43462 0.04200
H 	H 	0.59596 0.74099 0.46011 0.04200
C 	C 	0.63094 0.89115 0.49374 -0.08400
H 	H 	0.58734 0.88166 0.46958 0.04300
H 	H 	0.64258 0.92543 0.51945 0.04500
C 	C 	0.52398 0.78248 0.50130 -0.02700
C 	C 	0.80471 0.92296 0.47995 -0.11100
C 	C 	0.20601 0.77595 0.45372 -0.08400
C 	C 	0.27521 0.83012 0.48506 0.04600
C 	C 	0.24898 0.90182 0.46370 -0.07200
C 	C 	0.19947 0.86990 0.47072 0.01600
C 	C 	0.16157 0.79930 0.44532 -0.07100
H 	H 	0.20142 0.75318 0.42779 0.04000
H 	H 	0.19142 0.74052 0.46227 0.03900
C 	C 	0.31676 0.80710 0.49250 -0.03200
H 	H 	0.27718 0.95267 0.48170 0.04400
H 	H 	0.22505 0.89236 0.43414 0.04200
C 	C 	0.15661 0.89142 0.46203 0.03200
H 	H 	0.13578 0.78764 0.41537 0.03600
H 	H 	0.12576 0.77503 0.44986 0.03400
C 	C 	0.23477 0.88409 0.51209 -0.07200
H 	H 	0.20042 0.86156 0.51797 0.03500
H 	H 	0.26266 0.93458 0.53104 0.03900
C 	C 	0.27936 0.86066 0.52053 -0.08500
H 	H 	0.32855 0.89997 0.54352 0.04400
H 	H 	0.26629 0.82696 0.53044 0.04100
C 	C 	0.29349 0.87844 0.47212 -0.08400
H 	H 	0.34295 0.91810 0.49416 0.04400
H 	H 	0.29075 0.85780 0.44658 0.04300
C 	C 	0.34898 0.78631 0.49734 -0.02700
C 	C 	0.12039 0.90753 0.45320 -0.13200
C 	C 	0.28240 0.49634 0.01150 -0.08100
C 	C 	0.31092 0.49743 0.98901 0.03600
C 	C 	0.32263 0.41124 0.99811 -0.08200
C 	C 	0.25207 0.38590 0.98057 0.01700
C 	C 	0.24785 0.43087 0.00654 -0.06600
H 	H 	0.32022 0.52970 0.04170 0.04100
H 	H 	0.24873 0.51077 0.00194 0.04000
C 	C 	0.34314 0.55974 0.99365 -0.03000
H 	H 	0.32721 0.38000 0.97998 0.04100
H 	H 	0.34549 0.41295 0.02577 0.04300
C 	C 	0.21907 0.32372 0.97593 0.02800
H 	H 	0.26919 0.43298 0.03438 0.03600
H 	H 	0.19771 0.41407 0.99460 0.03100
C 	C 	0.22220 0.38458 0.94226 -0.07300
H 	H 	0.17153 0.36682 0.92900 0.03500
H 	H 	0.22476 0.35280 0.92301 0.03900
C 	C 	0.25677 0.45010 0.94721 -0.08200
H 	H 	0.27583 0.44958 0.93032 0.04000
H 	H 	0.22257 0.46356 0.93630 0.03800
C 	C 	0.35723 0.47683 0.00308 -0.07100
H 	H 	0.37829 0.47689 0.98730 0.03700
H 	H 	0.39656 0.50982 0.03310 0.04000
C 	C 	0.36761 0.61071 0.99715 -0.03500
C 	C 	0.19215 0.27308 0.97240 -0.12000
C 	C 	0.65775 0.88057 0.96238 -0.07200
C 	C 	0.71346 0.87819 0.98920 0.01800
C 	C 	0.68126 0.88682 0.03374 -0.08200
C 	C 	0.62049 0.83075 0.99590 0.04700
C 	C 	0.60317 0.85271 0.96631 -0.08500
H 	H 	0.67361 0.92907 0.96870 0.04200
H 	H 	0.64041 0.85451 0.93294 0.04100
C 	C 	0.76492 0.90405 0.98503 0.03400
H 	H 	0.69509 0.87245 0.05556 0.04600
H 	H 	0.67263 0.92271 0.04329 0.04600
C 	C 	0.56821 0.80409 0.99931 -0.03900
H 	H 	0.59295 0.88791 0.97449 0.04300
H 	H 	0.55980 0.81337 0.93874 0.04200
C 	C 	0.63463 0.78211 0.98355 -0.08900
H 	H 	0.59191 0.74131 0.95635 0.04200
H 	H 	0.64754 0.76564 0.00437 0.04700
C 	C 	0.68922 0.80996 0.97962 -0.07100
H 	H 	0.72818 0.80675 0.99855 0.04200
H 	H 	0.67253 0.78240 0.95054 0.04000
C 	C 	0.73594 0.91472 0.02979 -0.07100
H 	H 	0.77585 0.91364 0.04972 0.04700
H 	H 	0.75338 0.96390 0.03745 0.04600
C 	C 	0.80585 0.92329 0.98053 -0.11200
C 	C 	0.52460 0.78213 0.00136 -0.01900
C 	C 	0.21286 0.78326 0.94578 -0.08400
C 	C 	0.27578 0.82977 0.98513 0.04300
C 	C 	0.26230 0.91620 0.97807 -0.07500
C 	C 	0.20009 0.86960 0.97090 0.01400
C 	C 	0.16846 0.80662 0.93744 -0.07100
H 	H 	0.22194 0.77654 0.92408 0.04100
H 	H 	0.18931 0.73752 0.94401 0.03800
C 	C 	0.31731 0.80672 0.99251 -0.03100
H 	H 	0.28629 0.96189 0.00210 0.04600
H 	H 	0.25214 0.92294 0.95323 0.04400
C 	C 	0.15726 0.89115 0.96226 0.03100
H 	H 	0.15634 0.81103 0.91174 0.03800
H 	H 	0.12371 0.77204 0.93168 0.03400
C 	C 	0.21639 0.86144 0.00605 -0.06900
H 	H 	0.17261 0.82803 0.00169 0.03500
H 	H 	0.23946 0.90607 0.03061 0.03800
C 	C 	0.26093 0.83799 0.01442 -0.08200
H 	H 	0.30528 0.87141 0.04300 0.04300
H 	H 	0.23840 0.79340 0.01407 0.04100
C 	C 	0.30681 0.89277 0.98643 -0.08700
H 	H 	0.35206 0.92725 0.01446 0.04700
H 	H 	0.31785 0.88829 0.96558 0.04400
C 	C 	0.34950 0.78590 0.99731 -0.03300
C 	C 	0.12104 0.90727 0.95347 -0.13200
C 	C 	0.70800 0.10642 0.40239 -0.08500
C 	C 	0.74790 0.17724 0.41851 0.04600
C 	C 	0.83851 0.18237 0.47075 -0.07200
C 	C 	0.82106 0.13464 0.43441 0.01600
C 	C 	0.75105 0.08135 0.41175 -0.07100
H 	H 	0.68074 0.09470 0.41421 0.04000
H 	H 	0.67342 0.08348 0.37153 0.03900
C 	C 	0.70758 0.20160 0.41035 -0.03200
H 	H 	0.88854 0.22140 0.48760 0.04300
H 	H 	0.83356 0.16080 0.48826 0.04200
C 	C 	0.86227 0.11138 0.44409 0.03200
H 	H 	0.74431 0.05766 0.42803 0.03700
H 	H 	0.73704 0.04641 0.38537 0.03400
C 	C 	0.82834 0.16646 0.41083 -0.07200
H 	H 	0.81583 0.13315 0.38444 0.03600
H 	H 	0.87817 0.20510 0.42645 0.04100
C 	C 	0.78526 0.19155 0.40147 -0.08500
H 	H 	0.81455 0.24217 0.41262 0.04400
H 	H 	0.75217 0.17026 0.37059 0.04100
C 	C 	0.79559 0.20736 0.46141 -0.08400
H 	H 	0.82513 0.25832 0.47381 0.04500
H 	H 	0.77016 0.19771 0.47447 0.04300
C 	C 	0.67586 0.22293 0.40533 -0.02700
C 	C 	0.89674 0.09352 0.45397 -0.12800
C 	C 	0.78698 0.58386 0.40429 -0.07300
C 	C 	0.77294 0.62471 0.42513 0.02000
C 	C 	0.66620 0.52843 0.39561 -0.08400
C 	C 	0.71426 0.51195 0.41499 0.04600
C 	C 	0.75251 0.51762 0.39834 -0.08400
H 	H 	0.77157 0.58203 0.37671 0.04000
H 	H 	0.83853 0.60405 0.42060 0.04400
C 	C 	0.80616 0.68769 0.43095 0.03100
H 	H 	0.63814 0.52498 0.40711 0.04200
H 	H 	0.63260 0.49516 0.36513 0.04100
C 	C 	0.68223 0.44912 0.40960 -0.03200
H 	H 	0.72063 0.48416 0.36791 0.04200
H 	H 	0.78762 0.50622 0.41180 0.04400
C 	C 	0.76030 0.55952 0.45728 -0.08400
H 	H 	0.79558 0.54900 0.47198 0.04600
H 	H 	0.73413 0.55673 0.47002 0.04400
C 	C 	0.79477 0.62576 0.46323 -0.07300
H 	H 	0.78506 0.65460 0.47881 0.04300
H 	H 	0.84648 0.64682 0.48076 0.04600
C 	C 	0.70073 0.59479 0.40158 -0.07300
H 	H 	0.68915 0.62302 0.41592 0.04000
H 	H 	0.68359 0.59319 0.37394 0.03900
C 	C 	0.83422 0.73929 0.43605 -0.11200
C 	C 	0.65794 0.39800 0.40587 -0.02700
C 	C 	0.44525 0.16455 0.45234 -0.08400
C 	C 	0.42801 0.19471 0.42750 0.04500
C 	C 	0.31263 0.12244 0.40026 -0.07300
C 	C 	0.34592 0.15463 0.44314 0.02000
C 	C 	0.39698 0.14099 0.46154 -0.07300
H 	H 	0.44609 0.12537 0.43776 0.04000
H 	H 	0.49320 0.19851 0.47882 0.04200
C 	C 	0.47411 0.21715 0.41898 -0.03200
H 	H 	0.27568 0.13151 0.38623 0.04200
H 	H 	0.28872 0.07164 0.38880 0.03800
C 	C 	0.29997 0.13247 0.45179 0.02700
H 	H 	0.37475 0.09056 0.45132 0.03600
H 	H 	0.42189 0.16373 0.49239 0.03800
C 	C 	0.37882 0.22519 0.45793 -0.07300
H 	H 	0.40337 0.24966 0.48872 0.04000
H 	H 	0.34325 0.23640 0.44510 0.04200
C 	C 	0.42706 0.24875 0.44874 -0.08400
H 	H 	0.41452 0.27118 0.43151 0.04200
H 	H 	0.47465 0.28444 0.47514 0.04200
C 	C 	0.36091 0.14602 0.39106 -0.08400
H 	H 	0.34706 0.16641 0.37269 0.04200
H 	H 	0.36006 0.10648 0.37523 0.04000
C 	C 	0.51264 0.23552 0.41259 -0.02800
C 	C 	0.26155 0.11491 0.45831 -0.11200
C 	C 	0.71411 0.11113 0.88757 -0.08500
C 	C 	0.74911 0.17760 0.91895 0.04600
C 	C 	0.81159 0.15121 0.96556 -0.07200
C 	C 	0.82218 0.13489 0.93477 0.01700
C 	C 	0.75716 0.08597 0.89688 -0.07200
H 	H 	0.67050 0.08028 0.88430 0.03900
H 	H 	0.69962 0.11068 0.86039 0.04000
C 	C 	0.70885 0.20201 0.91086 -0.03200
H 	H 	0.85748 0.18643 0.99315 0.04300
H 	H 	0.78955 0.10967 0.96812 0.03900
C 	C 	0.86336 0.11159 0.94441 0.03100
H 	H 	0.73408 0.04312 0.89806 0.03500
H 	H 	0.76324 0.07350 0.87416 0.03400
C 	C 	0.85258 0.19380 0.93200 -0.07200
H 	H 	0.86049 0.18341 0.90995 0.03800
H 	H 	0.89935 0.22989 0.95887 0.04200
C 	C 	0.80960 0.21893 0.92270 -0.08400
H 	H 	0.83588 0.26700 0.94513 0.04500
H 	H 	0.79697 0.22056 0.89620 0.04300
C 	C 	0.76873 0.17627 0.95628 -0.08400
H 	H 	0.79419 0.22345 0.97944 0.04400
H 	H 	0.72623 0.14670 0.95441 0.04100
C 	C 	0.67716 0.22337 0.90592 -0.02800
C 	C 	0.89780 0.09371 0.95429 -0.12800
C 	C 	0.78326 0.55254 0.95227 -0.08400
C 	C 	0.71534 0.51243 0.91582 0.04600
C 	C 	0.71418 0.60968 0.92477 -0.07300
C 	C 	0.77390 0.62518 0.92593 0.02000
C 	C 	0.81764 0.61874 0.95820 -0.07300
H 	H 	0.78205 0.55456 0.97669 0.04500
H 	H 	0.81014 0.53160 0.95091 0.04500
C 	C 	0.68339 0.44959 0.91042 -0.03200
H 	H 	0.68170 0.61371 0.90173 0.03900
H 	H 	0.72729 0.64314 0.95134 0.04100
C 	C 	0.80706 0.68815 0.93173 0.03100
H 	H 	0.83283 0.65237 0.98545 0.04500
H 	H 	0.86091 0.62939 0.95967 0.04500
C 	C 	0.75360 0.57740 0.88854 -0.07300
H 	H 	0.79554 0.58719 0.88857 0.04100
H 	H 	0.72189 0.58076 0.86478 0.03900
C 	C 	0.71917 0.51112 0.88260 -0.08400
H 	H 	0.67102 0.48283 0.85600 0.04100
H 	H 	0.74470 0.48930 0.87979 0.04300
C 	C 	0.67973 0.54334 0.91882 -0.08400
H 	H 	0.63080 0.51567 0.89294 0.04100
H 	H 	0.67640 0.54513 0.94255 0.04200
C 	C 	0.65916 0.39847 0.90670 -0.02700
C 	C 	0.83510 0.73973 0.93680 -0.11300
C 	C 	0.41574 0.24425 0.94013 -0.08400
C 	C 	0.42961 0.19501 0.92846 0.04500
C 	C 	0.40700 0.15688 0.97014 -0.07300
C 	C 	0.34738 0.15476 0.94398 0.02000
C 	C 	0.36741 0.22060 0.94926 -0.07300
H 	H 	0.45997 0.28766 0.96507 0.04200
H 	H 	0.39690 0.25540 0.91722 0.04200
C 	C 	0.47575 0.21752 0.91998 -0.03300
H 	H 	0.39410 0.11013 0.96685 0.03600
H 	H 	0.42892 0.18770 0.99985 0.03800
C 	C 	0.30132 0.13251 0.95254 0.02700
H 	H 	0.38856 0.25274 0.97854 0.04000
H 	H 	0.32550 0.22050 0.93070 0.04200
C 	C 	0.31850 0.11166 0.90293 -0.07300
H 	H 	0.27556 0.10931 0.88343 0.04100
H 	H 	0.30385 0.06401 0.89829 0.03700
C 	C 	0.36686 0.13533 0.89381 -0.08400
H 	H 	0.37530 0.09899 0.88482 0.03900
H 	H 	0.34704 0.14432 0.86997 0.04100
C 	C 	0.45535 0.18055 0.96102 -0.08400
H 	H 	0.46559 0.14511 0.95341 0.04000
H 	H 	0.50037 0.22265 0.98640 0.04200
C 	C 	0.51424 0.23593 0.91357 -0.02800
C 	C 	0.26276 0.11486 0.95894 -0.11200
