data_crystal

_cell_length_a 14.91762
_cell_length_b 15.50903
_cell_length_c 34.93283
_cell_angle_alpha 95.40670
_cell_angle_beta  95.41723
_cell_angle_gamma 126.39773

_symmetry_space_group_name_	'P 1'
_symmetry_space_group_name_H-M	'P 1'

loop_
_symmetry_equiv_pos_as_xyz
  x,y,z

loop_
_atom_site_label
_atom_site_type_symbol
_atom_site_fract_x
_atom_site_fract_y
_atom_site_fract_z
_atom_site_charge
C 	C 	0.04763 0.00009 0.96104 0.01700
H 	H 	0.04739 0.13929 0.97037 0.04600
H 	H 	0.02160 0.84683 0.95115 0.04400
C 	C 	0.03985 0.10004 0.50190 -0.07900
C 	C 	0.09789 0.05734 0.51164 0.02900
C 	C 	0.03625 0.94787 0.51627 -0.07700
H 	H 	0.08699 0.18479 0.49889 0.04500
H 	H 	0.08029 0.91529 0.52547 0.04800
C 	C 	0.22348 0.12977 0.51870 -0.00300
C 	C 	0.25012 0.12769 0.98894 -0.14100
C 	C 	0.16781 0.06531 0.95726 -0.00200
H 	H 	0.22871 0.12402 0.01794 0.06900
H 	H 	0.18903 0.06300 0.92844 0.02800
H 	H 	0.23739 0.01008 0.49299 0.07000
H 	H 	0.26899 0.21514 0.53181 0.02800
C 	C 	0.37004 0.19904 0.98516 0.31100
H 	H 	0.36291 0.18007 0.68153 0.03800
H 	H 	0.36020 0.17004 0.75141 0.03700
C 	C 	0.28132 0.09506 0.50603 -0.14700
C 	C 	0.99700 0.05138 0.96726 -0.06600
C 	C 	0.98336 0.88666 0.95767 -0.06100
C 	C 	0.88164 0.98944 0.96971 0.02900
C 	C 	0.86945 0.82475 0.96243 0.02600
C 	C 	0.81872 0.87650 0.96802 -0.07200
H 	H 	0.73034 0.82889 0.97084 0.04600
C 	C 	0.92120 0.03371 0.49623 0.03100
C 	C 	0.91744 0.88017 0.50853 0.03400
C 	C 	0.86025 0.92352 0.49902 -0.07300
H 	H 	0.76829 0.87115 0.49332 0.05300
Cu	Cu	0.75607 0.33532 0.95272 0.92900
Cu	Cu	0.78380 0.26954 0.03702 0.86400
Cu	Cu	0.60695 0.29594 0.01329 0.89300
Cu	Cu	0.53882 0.32465 0.93481 0.89300
C 	C 	0.64304 0.28490 0.87326 0.28000
O 	O 	0.81662 0.49064 0.94944 -0.36600
C 	C 	0.70879 0.33874 0.09643 0.27400
O 	O 	0.58523 0.24889 0.95802 -0.63900
O 	O 	0.76861 0.36493 0.00999 -0.64600
O 	O 	0.83916 0.27142 0.95185 -0.37800
O 	O 	0.74084 0.16043 0.99387 -0.44400
O 	O 	0.60016 0.33401 0.88570 -0.38400
O 	O 	0.44684 0.21818 0.01411 -0.39600
C 	C 	0.77531 0.53662 0.96598 0.30000
O 	O 	0.67323 0.47597 0.97452 -0.39300
O 	O 	0.39893 0.25970 0.95779 -0.39800
O 	O 	0.71586 0.28329 0.89725 -0.36200
C 	C 	0.80447 0.18473 0.96718 0.30800
O 	O 	0.63217 0.33147 0.07077 -0.38000
O 	O 	0.79474 0.34532 0.08564 -0.42100
H 	H 	0.53430 0.16879 0.94902 0.16100
H 	H 	0.82140 0.44270 0.02283 0.17100
Cu	Cu	0.63205 0.22714 0.51290 0.92400
Cu	Cu	0.67560 0.17649 0.42696 0.87300
Cu	Cu	0.63552 0.35777 0.45254 0.91000
Cu	Cu	0.60714 0.41587 0.53440 0.89400
C 	C 	0.64721 0.30672 0.59211 0.28200
O 	O 	0.46716 0.13947 0.51837 -0.37600
C 	C 	0.66328 0.30771 0.37761 0.27900
O 	O 	0.69247 0.38631 0.50755 -0.63800
O 	O 	0.58932 0.20900 0.45565 -0.63500
O 	O 	0.73668 0.18666 0.51427 -0.38500
O 	O 	0.65881 0.07146 0.45524 -0.43100
O 	O 	0.64645 0.38910 0.58594 -0.38300
O 	O 	0.69235 0.50537 0.45056 -0.38300
C 	C 	0.70494 0.57221 0.48051 0.30600
C 	C 	0.40503 0.17181 0.50967 0.30000
O 	O 	0.45119 0.26795 0.50009 -0.39700
O 	O 	0.63777 0.53468 0.50646 -0.39600
O 	O 	0.68555 0.26987 0.56822 -0.36300
C 	C 	0.71475 0.10191 0.49120 0.31100
O 	O 	0.60314 0.32748 0.39613 -0.38100
O 	O 	0.73147 0.29325 0.39742 -0.43100
H 	H 	0.77557 0.44312 0.51504 0.16000
H 	H 	0.50689 0.15271 0.44602 0.15800
C 	C 	0.82034 0.30631 0.71920 -0.04200
C 	C 	0.81929 0.30186 0.75902 -0.04200
C 	C 	0.72382 0.27436 0.77458 0.01700
C 	C 	0.62706 0.24702 0.74961 -0.00800
C 	C 	0.62837 0.25216 0.70959 -0.00800
C 	C 	0.72606 0.28359 0.69446 0.01600
C 	C 	0.53371 0.23019 0.68504 0.01600
C 	C 	0.43662 0.19853 0.70027 -0.04300
C 	C 	0.43507 0.19279 0.73996 -0.04300
C 	C 	0.53080 0.21916 0.76497 0.01600
C 	C 	0.53339 0.22303 0.80536 -0.02800
C 	C 	0.63244 0.25756 0.83065 -0.05700
C 	C 	0.72586 0.27885 0.81503 -0.02500
C 	C 	0.72974 0.29587 0.65519 -0.02400
C 	C 	0.63745 0.27895 0.63130 -0.05600
C 	C 	0.53882 0.24387 0.64598 -0.02800
H 	H 	0.89533 0.32938 0.70778 0.04000
H 	H 	0.89355 0.32173 0.77787 0.04000
H 	H 	0.46028 0.20375 0.81735 0.03400
H 	H 	0.80184 0.30410 0.83446 0.05100
H 	H 	0.80565 0.32256 0.64365 0.04700
H 	H 	0.46731 0.22972 0.62724 0.03600
C 	C 	0.89719 0.44730 0.23449 -0.04500
C 	C 	0.89043 0.44056 0.27390 -0.04400
C 	C 	0.78522 0.38799 0.28588 0.01300
C 	C 	0.68638 0.34401 0.25815 -0.00900
C 	C 	0.69312 0.35032 0.21842 -0.01100
C 	C 	0.79876 0.40117 0.20651 0.01400
C 	C 	0.59384 0.30343 0.19048 0.01500
C 	C 	0.48900 0.25325 0.20263 -0.04500
C 	C 	0.48239 0.24757 0.24214 -0.04400
C 	C 	0.58049 0.29170 0.27000 0.01300
C 	C 	0.57376 0.28235 0.30940 -0.02800
C 	C 	0.67171 0.32343 0.33682 -0.06800
C 	C 	0.77741 0.37735 0.32509 -0.02600
C 	C 	0.80431 0.40259 0.16670 -0.03000
C 	C 	0.70480 0.35148 0.13856 -0.06100
C 	C 	0.60012 0.30445 0.15065 -0.03200
H 	H 	0.97888 0.48721 0.22566 0.03500
H 	H 	0.96698 0.47541 0.29505 0.03600
H 	H 	0.41232 0.21765 0.18143 0.03600
H 	H 	0.40074 0.20780 0.25097 0.03500
H 	H 	0.49234 0.24109 0.31857 0.03700
H 	H 	0.85321 0.41067 0.34645 0.04000
H 	H 	0.88549 0.44128 0.15752 0.04100
H 	H 	0.52338 0.26547 0.12901 0.04500
C 	C 	0.85257 0.76310 0.50960 -0.00400
C 	C 	0.77213 0.68829 0.47905 -0.14600
H 	H 	0.87215 0.73779 0.53505 0.02500
H 	H 	0.75977 0.71309 0.45218 0.07800
C 	C 	0.77465 0.05773 0.50256 -0.15100
C 	C 	0.86064 0.07857 0.48534 0.00100
H 	H 	0.75300 0.01321 0.52658 0.07500
H 	H 	0.88843 0.13152 0.46381 0.01700
C 	C 	0.79972 0.70431 0.95846 0.00100
C 	C 	0.84228 0.65617 0.97352 -0.14200
H 	H 	0.71157 0.65451 0.94370 0.03000
H 	H 	0.92962 0.70510 0.98889 0.07000
C 	C 	0.82814 0.04355 0.97683 -0.00600
C 	C 	0.84554 0.12086 0.95681 -0.15300
H 	H 	0.77321 0.01900 0.99834 0.02900
H 	H 	0.89516 0.14066 0.93374 0.07800
