data_crystal

_cell_length_a 28.64813
_cell_length_b 26.19557
_cell_length_c 42.08819
_cell_angle_alpha 103.79839
_cell_angle_beta  115.83994
_cell_angle_gamma 112.10137

_symmetry_space_group_name_	'P 1'
_symmetry_space_group_name_H-M	'P 1'

loop_
_symmetry_equiv_pos_as_xyz
  x,y,z

loop_
_atom_site_label
_atom_site_type_symbol
_atom_site_fract_x
_atom_site_fract_y
_atom_site_fract_z
_atom_site_charge
C 	C 	0.56024 0.25082 0.90179 0.04900
C 	C 	0.58042 0.30778 0.90074 -0.09000
C 	C 	0.62850 0.33176 0.89619 0.05000
C 	C 	0.65567 0.29833 0.89209 -0.09000
C 	C 	0.63613 0.24189 0.89365 0.05000
C 	C 	0.58789 0.21774 0.89801 -0.09000
H 	H 	0.56003 0.33415 0.90460 0.05300
H 	H 	0.69388 0.31767 0.88953 0.05500
H 	H 	0.57345 0.17455 0.89993 0.05200
C 	C 	0.56024 0.25082 0.40179 0.05100
C 	C 	0.58042 0.30778 0.40074 -0.08900
C 	C 	0.62850 0.33176 0.39620 0.05200
C 	C 	0.65567 0.29834 0.39209 -0.08800
C 	C 	0.63614 0.24189 0.39365 0.05100
C 	C 	0.58789 0.21774 0.39801 -0.08900
H 	H 	0.56004 0.33415 0.40460 0.05400
H 	H 	0.69388 0.31767 0.38953 0.05600
H 	H 	0.57346 0.17456 0.39993 0.05200
C 	C 	0.47996 0.76768 0.00072 0.07300
C 	C 	0.44945 0.79868 0.00134 -0.10000
C 	C 	0.39623 0.77092 0.00054 0.07300
C 	C 	0.37400 0.71263 0.99965 -0.10400
C 	C 	0.40402 0.68129 0.99871 0.06100
C 	C 	0.45722 0.70891 0.99942 -0.10400
H 	H 	0.46623 0.84349 0.00150 0.06200
H 	H 	0.33235 0.69083 0.99854 0.05600
H 	H 	0.48014 0.68438 0.99827 0.05700
C 	C 	0.47997 0.76768 0.50072 0.05200
C 	C 	0.44945 0.79868 0.50134 -0.08800
C 	C 	0.39623 0.77093 0.50054 0.05200
C 	C 	0.37401 0.71263 0.49965 -0.08900
C 	C 	0.40402 0.68129 0.49871 0.05100
C 	C 	0.45722 0.70891 0.49943 -0.08800
H 	H 	0.46623 0.84349 0.50150 0.05700
H 	H 	0.33235 0.69083 0.49855 0.05300
H 	H 	0.48015 0.68438 0.49827 0.05400
Zn	Zn	0.16044 0.12896 0.99735 1.18200
Zn	Zn	0.05577 0.08176 0.91180 1.18400
O 	O 	0.04216 0.97421 0.84725 -0.45900
O 	O 	0.02484 0.05330 0.85311 -0.45800
O 	O 	0.03539 0.89433 0.89977 -0.51000
C 	C 	0.21583 0.09358 0.96256 0.32100
O 	O 	0.99448 0.99698 0.89712 -0.83100
C 	C 	0.16553 0.21671 0.96476 0.33200
O 	O 	0.22791 0.12676 0.99709 -0.47000
O 	O 	0.15797 0.05278 0.93119 -0.36400
O 	O 	0.07670 0.09179 0.96703 -0.79900
O 	O 	0.09338 0.97982 0.96130 -0.45100
O 	O 	0.12346 0.16695 0.92842 -0.46200
O 	O 	0.18305 0.21102 0.99759 -0.46800
Zn	Zn	0.88194 0.90325 0.91596 1.17800
Zn	Zn	0.98714 0.92849 0.98797 1.20000
Zn	Zn	0.01794 0.00650 0.94967 1.19700
C 	C 	0.87048 0.80160 0.93898 0.34000
C 	C 	0.85690 0.94974 0.96968 0.33600
O 	O 	0.94355 0.03705 0.93891 -0.46700
Zn	Zn	0.00605 0.05000 0.02042 1.18600
O 	O 	0.92995 0.83892 0.96941 -0.44600
O 	O 	0.84321 0.81893 0.91340 -0.46300
O 	O 	0.83940 0.93325 0.93251 -0.47300
O 	O 	0.91192 0.96346 0.99701 -0.45100
C 	C 	0.03366 0.00181 0.07610 0.31300
O 	O 	0.95876 0.92155 0.93224 -0.77400
C 	C 	0.94327 0.07869 0.96360 0.33400
O 	O 	0.01806 0.95096 0.04720 -0.42600
O 	O 	0.04135 0.05228 0.07236 -0.48500
O 	O 	0.97327 0.09513 0.00197 -0.47600
O 	O 	0.04013 0.01478 0.00166 -0.92000
Zn	Zn	0.00845 0.93826 0.87436 1.17900
C 	C 	0.03070 0.01144 0.83366 0.29800
C 	C 	0.08182 0.92658 0.93802 0.33400
H 	H 	0.08476 0.03344 0.02186 0.16100
H 	H 	0.95117 0.98488 0.87948 0.15400
Zn	Zn	0.16044 0.12896 0.49735 1.18200
Zn	Zn	0.05577 0.08177 0.41180 1.18400
O 	O 	0.04217 0.97421 0.34725 -0.45900
O 	O 	0.02485 0.05330 0.35311 -0.45800
O 	O 	0.03540 0.89433 0.39977 -0.51000
C 	C 	0.21583 0.09359 0.46256 0.32100
O 	O 	0.99448 0.99698 0.39712 -0.83100
C 	C 	0.16553 0.21671 0.46476 0.33200
O 	O 	0.22791 0.12676 0.49710 -0.46900
O 	O 	0.15797 0.05278 0.43119 -0.36400
O 	O 	0.07670 0.09179 0.46703 -0.79800
O 	O 	0.09338 0.97982 0.46130 -0.45000
O 	O 	0.12347 0.16695 0.42842 -0.46100
O 	O 	0.18305 0.21103 0.49759 -0.46700
Zn	Zn	0.88194 0.90325 0.41596 1.17800
Zn	Zn	0.98714 0.92849 0.48797 1.20200
Zn	Zn	0.01795 0.00650 0.44967 1.19800
C 	C 	0.87048 0.80160 0.43898 0.33900
C 	C 	0.85690 0.94974 0.46968 0.33600
O 	O 	0.94356 0.03705 0.43891 -0.46700
Zn	Zn	0.00606 0.05000 0.52043 1.18500
O 	O 	0.92995 0.83893 0.46941 -0.44500
O 	O 	0.84322 0.81893 0.41340 -0.46300
O 	O 	0.83940 0.93325 0.43251 -0.47300
O 	O 	0.91192 0.96346 0.49701 -0.44900
C 	C 	0.03366 0.00181 0.57610 0.31300
O 	O 	0.95877 0.92155 0.43224 -0.77300
C 	C 	0.94327 0.07869 0.46360 0.34000
O 	O 	0.01807 0.95096 0.54720 -0.42900
O 	O 	0.04135 0.05228 0.57236 -0.48600
O 	O 	0.97327 0.09513 0.50197 -0.48200
O 	O 	0.04013 0.01478 0.50167 -0.92300
Zn	Zn	0.00845 0.93826 0.37436 1.17900
C 	C 	0.03071 0.01144 0.33366 0.29800
C 	C 	0.08182 0.92658 0.43802 0.33400
H 	H 	0.08476 0.03344 0.52187 0.16000
H 	H 	0.95117 0.98488 0.37948 0.15400
C 	C 	0.07679 0.06360 0.71506 0.00100
H 	H 	0.10924 0.11146 0.72199 0.02300
C 	C 	0.03895 0.00301 0.67515 -0.08300
C 	C 	0.03929 0.00099 0.64018 0.05300
C 	C 	0.09461 0.02861 0.73829 -0.04900
H 	H 	0.14163 0.04778 0.76503 0.03500
C 	C 	0.05676 0.96796 0.69781 -0.01000
H 	H 	0.07264 0.93713 0.69055 0.03000
C 	C 	0.01819 0.04289 0.71466 -0.08500
H 	H 	0.00229 0.07373 0.72188 0.03400
C 	C 	0.03598 0.00788 0.73735 -0.03400
C 	C 	0.03393 0.01027 0.77181 0.03600
C 	C 	0.99814 0.94728 0.69745 0.01200
H 	H 	0.96567 0.89944 0.69051 0.03900
C 	C 	0.98037 0.98230 0.67426 0.06200
H 	H 	0.93332 0.96313 0.64756 0.03000
C 	C 	0.03224 0.01143 0.80006 -0.12800
C 	C 	0.03783 0.00052 0.61107 -0.13900
C 	C 	0.09461 0.02861 0.23829 -0.04900
H 	H 	0.14163 0.04778 0.26503 0.03500
C 	C 	0.03598 0.00788 0.23735 -0.03400
C 	C 	0.03393 0.01027 0.27181 0.03600
C 	C 	0.07679 0.06360 0.21506 0.00100
H 	H 	0.10925 0.11145 0.22199 0.02300
C 	C 	0.01819 0.04290 0.21466 -0.08500
H 	H 	0.00229 0.07373 0.22189 0.03400
C 	C 	0.05676 0.96796 0.19781 -0.01000
H 	H 	0.07264 0.93713 0.19055 0.03100
C 	C 	0.03895 0.00301 0.17515 -0.08300
C 	C 	0.03929 0.00099 0.14018 0.05400
C 	C 	0.98037 0.98230 0.17426 0.06200
H 	H 	0.93332 0.96314 0.14756 0.03100
C 	C 	0.99814 0.94728 0.19745 0.01200
H 	H 	0.96567 0.89944 0.19051 0.04000
C 	C 	0.03783 0.00052 0.11107 -0.13800
C 	C 	0.03224 0.01143 0.30007 -0.12800
C 	C 	0.29019 0.44235 0.44871 -0.03900
H 	H 	0.29004 0.43856 0.42182 0.03500
C 	C 	0.32111 0.50410 0.48597 0.01900
C 	C 	0.35335 0.56720 0.49089 -0.01500
C 	C 	0.23188 0.41497 0.44868 -0.02600
H 	H 	0.18306 0.38754 0.42167 0.02900
C 	C 	0.26327 0.47762 0.48599 -0.04000
H 	H 	0.24090 0.50290 0.48979 0.03300
C 	C 	0.31831 0.41760 0.47691 -0.02400
H 	H 	0.34061 0.39224 0.47310 0.03300
C 	C 	0.26048 0.39122 0.47694 -0.01000
C 	C 	0.22629 0.32860 0.47212 0.04600
C 	C 	0.29141 0.45300 0.51419 -0.02500
H 	H 	0.29155 0.45684 0.54109 0.03000
C 	C 	0.34976 0.48040 0.51425 -0.03900
H 	H 	0.39857 0.50789 0.54127 0.03600
C 	C 	0.19826 0.27738 0.46851 -0.12200
C 	C 	0.37780 0.61921 0.49467 -0.03200
C 	C 	0.66802 0.81938 0.46435 -0.02400
H 	H 	0.66411 0.78078 0.44306 0.03500
C 	C 	0.71917 0.88963 0.48656 -0.00600
C 	C 	0.76947 0.91378 0.48170 0.05400
C 	C 	0.61897 0.83647 0.45394 -0.03800
H 	H 	0.57377 0.81147 0.42414 0.03800
C 	C 	0.67083 0.90708 0.47608 -0.02300
H 	H 	0.66927 0.94073 0.46450 0.03800
C 	C 	0.67577 0.82589 0.50417 -0.03700
H 	H 	0.67734 0.79221 0.51573 0.03900
C 	C 	0.62743 0.84333 0.49370 0.01900
C 	C 	0.57561 0.81675 0.49696 -0.01200
C 	C 	0.67853 0.91359 0.51594 -0.03600
H 	H 	0.68237 0.95213 0.53723 0.04200
C 	C 	0.72771 0.89653 0.52635 -0.02300
H 	H 	0.77295 0.92151 0.55612 0.04100
C 	C 	0.53236 0.79446 0.49898 -0.03000
C 	C 	0.80993 0.93154 0.47675 -0.11100
C 	C 	0.19386 0.81565 0.44384 -0.02500
H 	H 	0.14798 0.77838 0.41499 0.02900
C 	C 	0.21016 0.87918 0.47151 -0.01200
C 	C 	0.16546 0.89765 0.46175 0.05100
C 	C 	0.22650 0.80816 0.48125 -0.04000
H 	H 	0.20831 0.76438 0.48334 0.03300
C 	C 	0.24222 0.87204 0.50886 -0.02500
H 	H 	0.23616 0.88123 0.53349 0.03100
C 	C 	0.25578 0.85006 0.44871 -0.03800
H 	H 	0.26173 0.84085 0.42402 0.03800
C 	C 	0.28789 0.84287 0.48602 0.01900
C 	C 	0.32920 0.82029 0.49269 -0.01300
C 	C 	0.30438 0.90646 0.51378 -0.03800
H 	H 	0.35033 0.94362 0.54261 0.04000
C 	C 	0.27154 0.91395 0.47627 -0.02200
H 	H 	0.28963 0.95770 0.47413 0.04000
C 	C 	0.36099 0.79918 0.49689 -0.03100
C 	C 	0.12762 0.91142 0.45191 -0.13400
C 	C 	0.29170 0.45300 0.01428 -0.01800
H 	H 	0.29208 0.45685 0.04125 0.03000
C 	C 	0.26047 0.39122 0.97694 -0.01400
C 	C 	0.22629 0.32860 0.97212 0.04600
C 	C 	0.26347 0.47774 0.98621 -0.04400
H 	H 	0.24126 0.50313 0.99019 0.03300
C 	C 	0.23179 0.41509 0.94880 -0.02400
H 	H 	0.18290 0.38775 0.92190 0.02800
C 	C 	0.34984 0.48028 0.01413 -0.03100
H 	H 	0.39873 0.50767 0.04104 0.03600
C 	C 	0.32110 0.50409 0.98597 0.01400
C 	C 	0.35335 0.56720 0.99089 -0.01300
C 	C 	0.28990 0.44234 0.94861 -0.03700
H 	H 	0.28951 0.43854 0.92165 0.03400
C 	C 	0.31811 0.41747 0.97669 -0.02800
H 	H 	0.34024 0.39200 0.97270 0.03400
C 	C 	0.37779 0.61921 0.99467 -0.03700
C 	C 	0.19826 0.27738 0.96850 -0.12400
C 	C 	0.61897 0.83646 0.95394 -0.03200
H 	H 	0.57377 0.81146 0.92414 0.03600
C 	C 	0.62742 0.84333 0.99370 0.00500
C 	C 	0.57561 0.81675 0.99695 -0.00400
C 	C 	0.66802 0.81938 0.96435 -0.03100
H 	H 	0.66411 0.78078 0.94306 0.03600
C 	C 	0.67577 0.82588 0.00417 -0.02600
H 	H 	0.67734 0.79221 0.01573 0.03800
C 	C 	0.67083 0.90707 0.97608 -0.03000
H 	H 	0.66927 0.94073 0.96449 0.03900
C 	C 	0.71916 0.88962 0.98656 -0.00600
C 	C 	0.76947 0.91378 0.98170 0.05300
C 	C 	0.72771 0.89653 0.02635 -0.02400
H 	H 	0.77295 0.92151 0.05612 0.04300
C 	C 	0.67853 0.91359 0.01594 -0.02500
H 	H 	0.68237 0.95212 0.03722 0.04100
C 	C 	0.80992 0.93153 0.97675 -0.11100
C 	C 	0.53236 0.79445 0.99898 -0.04500
C 	C 	0.27154 0.91394 0.97627 -0.02700
H 	H 	0.28962 0.95769 0.97412 0.04000
C 	C 	0.21016 0.87918 0.97151 -0.01500
C 	C 	0.16546 0.89765 0.96175 0.05100
C 	C 	0.25577 0.85005 0.94871 -0.03600
H 	H 	0.26172 0.84084 0.92401 0.03700
C 	C 	0.19385 0.81565 0.94384 -0.02400
H 	H 	0.14797 0.77838 0.91499 0.02800
C 	C 	0.30438 0.90646 0.01377 -0.03000
H 	H 	0.35033 0.94363 0.04260 0.04000
C 	C 	0.28788 0.84286 0.98601 0.01300
C 	C 	0.32919 0.82029 0.99269 -0.00700
C 	C 	0.22650 0.80816 0.98126 -0.04300
H 	H 	0.20831 0.76438 0.98334 0.03300
C 	C 	0.24222 0.87204 0.00886 -0.01800
H 	H 	0.23616 0.88124 0.03350 0.03100
C 	C 	0.36099 0.79918 0.99689 -0.04400
C 	C 	0.12762 0.91142 0.95191 -0.13600
C 	C 	0.72405 0.10157 0.38447 -0.04100
H 	H 	0.67629 0.06202 0.35835 0.03200
C 	C 	0.74354 0.16913 0.40790 0.01900
C 	C 	0.70286 0.19245 0.40066 -0.01400
C 	C 	0.76253 0.10377 0.42508 -0.02400
H 	H 	0.74725 0.06553 0.43254 0.03100
C 	C 	0.78132 0.17156 0.44831 -0.03800
H 	H 	0.78067 0.18955 0.47472 0.03900
C 	C 	0.78201 0.12825 0.38396 -0.02500
H 	H 	0.78282 0.11025 0.35763 0.02900
C 	C 	0.81971 0.13081 0.42443 -0.01200
C 	C 	0.86320 0.11093 0.43578 0.05100
C 	C 	0.83902 0.19830 0.44779 -0.02200
H 	H 	0.88672 0.23794 0.47394 0.03800
C 	C 	0.80071 0.19618 0.40724 -0.03800
H 	H 	0.81600 0.23448 0.39983 0.03900
C 	C 	0.89967 0.09575 0.44734 -0.13200
C 	C 	0.67134 0.21381 0.39656 -0.03200
C 	C 	0.68110 0.53551 0.38375 -0.03900
H 	H 	0.63154 0.50955 0.35802 0.03600
C 	C 	0.71064 0.50919 0.40947 0.01900
C 	C 	0.67865 0.44566 0.40388 -0.01300
C 	C 	0.73719 0.56286 0.38150 -0.02500
H 	H 	0.73447 0.56063 0.35402 0.03400
C 	C 	0.76617 0.53555 0.40711 -0.03700
H 	H 	0.78661 0.50957 0.40057 0.04000
C 	C 	0.71577 0.59721 0.42286 -0.02400
H 	H 	0.69541 0.62328 0.42943 0.03500
C 	C 	0.77130 0.62346 0.42050 -0.00800
C 	C 	0.80607 0.68707 0.42692 0.05200
C 	C 	0.80074 0.59705 0.44617 -0.02300
H 	H 	0.85028 0.62292 0.47190 0.04100
C 	C 	0.74474 0.56980 0.44846 -0.03700
H 	H 	0.74750 0.57203 0.47595 0.04000
C 	C 	0.83532 0.73938 0.43239 -0.11300
C 	C 	0.65450 0.39358 0.39996 -0.03100
C 	C 	0.37659 0.12001 0.40415 -0.04000
H 	H 	0.36564 0.07984 0.37944 0.03200
C 	C 	0.43129 0.18847 0.42595 0.01800
C 	C 	0.47681 0.21042 0.41696 -0.01500
C 	C 	0.33352 0.14374 0.40096 -0.02500
H 	H 	0.28622 0.12262 0.37379 0.03300
C 	C 	0.38890 0.21249 0.42262 -0.03800
H 	H 	0.38806 0.24839 0.41311 0.03600
C 	C 	0.39185 0.12567 0.44548 -0.02600
H 	H 	0.39261 0.08976 0.45498 0.02900
C 	C 	0.34949 0.14974 0.44214 -0.00800
C 	C 	0.30319 0.12878 0.45059 0.04500
C 	C 	0.40419 0.21819 0.46392 -0.02400
H 	H 	0.41513 0.25839 0.48861 0.03400
C 	C 	0.44731 0.19449 0.46714 -0.03900
H 	H 	0.49462 0.21564 0.49429 0.03600
C 	C 	0.26401 0.11227 0.45667 -0.11600
C 	C 	0.51454 0.22874 0.40981 -0.03200
C 	C 	0.76252 0.10376 0.92508 -0.02500
H 	H 	0.74725 0.06553 0.93254 0.03000
C 	C 	0.81971 0.13080 0.92443 -0.01200
C 	C 	0.86320 0.11093 0.93578 0.05000
C 	C 	0.72405 0.10157 0.88446 -0.04100
H 	H 	0.67628 0.06202 0.85835 0.03200
C 	C 	0.78201 0.12825 0.88396 -0.02500
H 	H 	0.78282 0.11025 0.85763 0.02900
C 	C 	0.78132 0.17156 0.94830 -0.03800
H 	H 	0.78067 0.18955 0.97472 0.03800
C 	C 	0.74354 0.16912 0.90790 0.01900
C 	C 	0.70286 0.19245 0.90065 -0.01500
C 	C 	0.80071 0.19618 0.90724 -0.03800
H 	H 	0.81600 0.23447 0.89983 0.03900
C 	C 	0.83901 0.19829 0.94779 -0.02200
H 	H 	0.88671 0.23794 0.97394 0.03800
C 	C 	0.67134 0.21381 0.89656 -0.03200
C 	C 	0.89967 0.09575 0.94734 -0.13100
C 	C 	0.71575 0.59720 0.92285 -0.02400
H 	H 	0.69539 0.62326 0.92941 0.03400
C 	C 	0.77129 0.62346 0.92049 -0.00800
C 	C 	0.80606 0.68707 0.92692 0.05200
C 	C 	0.74473 0.56980 0.94845 -0.03700
H 	H 	0.74747 0.57203 0.97594 0.03900
C 	C 	0.80073 0.59705 0.94618 -0.02300
H 	H 	0.85027 0.62293 0.97191 0.04000
C 	C 	0.68109 0.53550 0.88374 -0.03900
H 	H 	0.63154 0.50953 0.85801 0.03500
C 	C 	0.71063 0.50919 0.90947 0.01900
C 	C 	0.67865 0.44566 0.90387 -0.01300
C 	C 	0.76618 0.53555 0.90712 -0.03700
H 	H 	0.78662 0.50958 0.90058 0.03900
C 	C 	0.73720 0.56286 0.88150 -0.02500
H 	H 	0.73449 0.56062 0.85403 0.03300
C 	C 	0.65450 0.39357 0.89996 -0.03100
C 	C 	0.83531 0.73938 0.93238 -0.11400
C 	C 	0.38890 0.21250 0.92263 -0.03800
H 	H 	0.38808 0.24841 0.91313 0.03600
C 	C 	0.43129 0.18847 0.92595 0.01800
C 	C 	0.47681 0.21042 0.91696 -0.01500
C 	C 	0.40419 0.21819 0.96392 -0.02400
H 	H 	0.41515 0.25838 0.98863 0.03300
C 	C 	0.44730 0.19448 0.96713 -0.03900
H 	H 	0.49462 0.21561 0.99428 0.03500
C 	C 	0.33351 0.14375 0.90096 -0.02500
H 	H 	0.28622 0.12264 0.87379 0.03300
C 	C 	0.34949 0.14974 0.94213 -0.00900
C 	C 	0.30319 0.12878 0.95059 0.04500
C 	C 	0.39183 0.12565 0.94546 -0.02600
H 	H 	0.39259 0.08973 0.95496 0.02800
C 	C 	0.37658 0.12001 0.90415 -0.04000
H 	H 	0.36562 0.07984 0.87942 0.03200
C 	C 	0.26400 0.11227 0.95667 -0.11700
C 	C 	0.51454 0.22874 0.90981 -0.03300
