data_crystal

_cell_length_a 21.19580
_cell_length_b 18.60198
_cell_length_c 54.34929
_cell_angle_alpha 90.65086
_cell_angle_beta  91.54102
_cell_angle_gamma 111.04543

_symmetry_space_group_name_	'P 1'
_symmetry_space_group_name_H-M	'P 1'

loop_
_symmetry_equiv_pos_as_xyz
  x,y,z

loop_
_atom_site_label
_atom_site_type_symbol
_atom_site_fract_x
_atom_site_fract_y
_atom_site_fract_z
_atom_site_charge
O 	O 	0.03071 0.88000 0.70771 -0.69900
Ni	Ni	0.06203 0.92462 0.67514 1.10400
O 	O 	0.07533 0.01650 0.73953 -0.37100
O 	O 	0.04455 0.13202 0.72426 -0.39600
O 	O 	0.10134 0.84412 0.66544 -0.39000
O 	O 	0.01568 0.99835 0.68646 -0.67800
O 	O 	0.10651 0.98882 0.64573 -0.36200
Ni	Ni	0.07773 0.10542 0.69147 1.07100
H 	H 	0.06866 0.87849 0.71845 0.16400
C 	C 	0.06106 0.77237 0.66076 0.33600
C 	C 	0.13627 0.03879 0.73038 0.30000
O 	O 	0.17013 0.59718 0.43588 -0.37000
C 	C 	0.16800 0.54501 0.45251 0.31200
O 	O 	0.09865 0.64001 0.99122 -0.35600
C 	C 	0.08044 0.60950 0.96869 0.29200
O 	O 	0.12561 0.60276 0.95334 -0.40900
O 	O 	0.05498 0.09049 0.25741 -0.34900
O 	O 	0.11678 0.18164 0.23137 -0.40400
Ni	Ni	0.05174 0.20838 0.20705 1.07200
O 	O 	0.09301 0.16106 0.18054 -0.38300
C 	C 	0.05898 0.09787 0.16794 0.30800
C 	C 	0.09990 0.15909 0.25377 0.30500
C 	C 	0.01569 0.37459 0.05207 -0.08400
C 	C 	0.05421 0.36840 0.07277 -0.00300
C 	C 	0.12525 0.39970 0.07236 0.12400
C 	C 	0.11836 0.45463 0.03243 -0.11600
C 	C 	0.04753 0.41713 0.03183 0.18600
C 	C 	0.02024 0.33156 0.09519 0.02600
O 	O 	0.00943 0.42203 0.01157 -0.26400
C 	C 	0.01874 0.37679 0.11595 0.13000
C 	C 	0.99314 0.25107 0.09638 -0.13100
H 	H 	0.99262 0.21592 0.08028 0.07800
H 	H 	0.99577 0.46667 0.01505 0.13400
C 	C 	0.09647 0.85619 0.09124 -0.11300
C 	C 	0.14893 0.90706 0.10620 0.00800
C 	C 	0.11125 0.81572 0.07170 0.19900
C 	C 	0.13494 0.96279 0.12263 0.00800
O 	O 	0.05986 0.76930 0.05640 -0.27600
H 	H 	0.04461 0.85129 0.09394 0.07700
C 	C 	0.12080 0.02502 0.11266 0.11200
C 	C 	0.10234 0.07423 0.12809 -0.02600
C 	C 	0.09685 0.06119 0.15344 -0.11100
C 	C 	0.11617 0.00275 0.16366 0.16100
C 	C 	0.13504 0.95357 0.14821 -0.09200
O 	O 	0.12562 0.03815 0.08787 -0.27100
O 	O 	0.11755 0.99431 0.18869 -0.28000
H 	H 	0.05444 0.80336 0.04324 0.16000
H 	H 	0.07368 0.95377 0.19235 0.13000
C 	C 	0.19483 0.21480 0.31503 -0.11200
C 	C 	0.19856 0.29129 0.31774 0.00700
C 	C 	0.17541 0.32609 0.29840 0.11900
C 	C 	0.14666 0.28356 0.27692 -0.03400
C 	C 	0.13898 0.20569 0.27484 -0.12500
C 	C 	0.16519 0.17190 0.29366 0.19900
C 	C 	0.22003 0.33230 0.34165 0.00400
O 	O 	0.18018 0.40145 0.30060 -0.27500
H 	H 	0.12770 0.31027 0.26230 0.03100
O 	O 	0.16040 0.09655 0.29147 -0.27900
H 	H 	0.21325 0.18799 0.32977 0.07200
C 	C 	0.17631 0.31297 0.36155 0.11400
C 	C 	0.18938 0.36237 0.38218 -0.02600
O 	O 	0.11805 0.24909 0.36001 -0.26700
H 	H 	0.15352 0.34948 0.39683 0.06300
H 	H 	0.20241 0.09838 0.28344 0.15100
H 	H 	0.13039 0.20701 0.36723 0.14800
H 	H 	0.13738 0.39952 0.30803 0.15300
C 	C 	0.09703 0.80627 0.33313 -0.10800
C 	C 	0.06916 0.74286 0.31687 -0.00300
C 	C 	0.08468 0.67625 0.32029 0.12600
C 	C 	0.12895 0.67398 0.33957 -0.03900
C 	C 	0.14093 0.80393 0.35254 0.18900
C 	C 	0.02773 0.74881 0.29531 0.03500
O 	O 	0.05809 0.61411 0.30441 -0.27700
O 	O 	0.16517 0.86503 0.36893 -0.27700
H 	H 	0.08512 0.85775 0.33056 0.08000
C 	C 	0.05621 0.76081 0.27204 -0.12300
H 	H 	0.10408 0.75371 0.26920 0.08400
H 	H 	0.20686 0.90090 0.36165 0.14600
C 	C 	0.08152 0.47816 0.48373 0.15800
C 	C 	0.10095 0.48925 0.45903 -0.09800
C 	C 	0.05373 0.45190 0.44010 -0.04300
O 	O 	0.12665 0.51416 0.50255 -0.26700
H 	H 	0.06892 0.45743 0.42111 0.07000
H 	H 	0.14733 0.47636 0.50769 0.15100
C 	C 	0.06201 0.65455 0.63912 0.20300
O 	O 	0.06951 0.62093 0.66080 -0.29400
H 	H 	0.02402 0.60219 0.66796 0.15000
C 	C 	0.00790 0.58115 0.96041 -0.04400
H 	H 	0.02861 0.55862 0.92290 0.08900
H 	H 	0.04565 0.19636 0.76981 0.08000
Ni	Ni	0.55064 0.27693 0.90832 1.10100
Ni	Ni	0.60033 0.15076 0.88185 1.07200
O 	O 	0.60135 0.13382 0.91875 -0.40500
O 	O 	0.46899 0.22470 0.88531 -0.36500
O 	O 	0.49378 0.32116 0.92952 -0.36600
O 	O 	0.57082 0.44277 0.92607 -0.40700
C 	C 	0.54791 0.12758 0.93139 0.30800
C 	C 	0.46551 0.16272 0.87244 0.30200
C 	C 	0.51105 0.39599 0.93275 0.29200
O 	O 	0.51956 0.18013 0.92988 -0.36700
O 	O 	0.49746 0.11780 0.88042 -0.41300
Ni	Ni	0.63272 0.29027 0.49880 1.10300
O 	O 	0.60026 0.35422 0.47462 -0.37400
O 	O 	0.58271 0.19681 0.47561 -0.36200
O 	O 	0.54042 0.13910 0.52291 -0.40000
O 	O 	0.54573 0.26354 0.51758 -0.36900
C 	C 	0.63476 0.42773 0.47167 0.29300
C 	C 	0.59610 0.13312 0.47419 0.31100
C 	C 	0.52258 0.19792 0.52939 0.30100
O 	O 	0.12193 0.11241 0.65727 -0.39600
O 	O 	0.14703 0.06897 0.70842 -0.41100
C 	C 	0.14584 0.06170 0.64807 0.30200
Ni	Ni	0.25068 0.64849 0.41382 1.10000
O 	O 	0.33103 0.69248 0.39115 -0.70200
Ni	Ni	0.40708 0.68352 0.41204 1.10200
O 	O 	0.18477 0.66959 0.38924 -0.36200
O 	O 	0.25330 0.79445 0.38399 -0.40200
O 	O 	0.23055 0.54718 0.39448 -0.37700
Ni	Ni	0.35320 0.80047 0.38300 1.06700
O 	O 	0.22252 0.55064 0.46609 -0.40300
O 	O 	0.36700 0.83555 0.41898 -0.41600
O 	O 	0.48057 0.72224 0.38665 -0.35800
O 	O 	0.32893 0.64926 0.43583 -0.70000
O 	O 	0.47051 0.64786 0.43382 -0.37100
O 	O 	0.39083 0.52749 0.43665 -0.41300
Ni	Ni	0.30860 0.54824 0.45099 1.07000
H 	H 	0.32511 0.66094 0.37586 0.16500
H 	H 	0.33607 0.68883 0.44901 0.15700
C 	C 	0.42440 0.84446 0.43057 0.31400
O 	O 	0.24956 0.47382 0.42472 -0.40100
C 	C 	0.20215 0.73275 0.37640 0.30200
C 	C 	0.48743 0.78436 0.37374 0.30100
C 	C 	0.24999 0.49094 0.40144 0.31100
C 	C 	0.45354 0.57562 0.44014 0.29400
O 	O 	0.44852 0.78828 0.43065 -0.36800
O 	O 	0.45561 0.83109 0.38007 -0.40800
Ni	Ni	0.34151 0.68642 0.99399 1.10200
O 	O 	0.24927 0.66707 0.97746 -0.70400
Ni	Ni	0.19691 0.68443 0.00562 1.10100
O 	O 	0.37084 0.62524 0.96802 -0.37300
O 	O 	0.27507 0.51941 0.97230 -0.41100
O 	O 	0.38671 0.78376 0.97343 -0.36500
Ni	Ni	0.19985 0.56400 0.96379 1.07300
O 	O 	0.43365 0.83276 0.02402 -0.41000
O 	O 	0.13894 0.50230 0.99116 -0.38500
O 	O 	0.29342 0.71989 0.02051 -0.69700
O 	O 	0.43117 0.71240 0.01274 -0.36800
O 	O 	0.16384 0.72603 0.03598 -0.35300
O 	O 	0.24500 0.84473 0.03128 -0.40300
Ni	Ni	0.33659 0.83017 0.02663 1.07300
H 	H 	0.25253 0.70594 0.96479 0.16600
H 	H 	0.29558 0.69243 0.03583 0.15600
C 	C 	0.15066 0.51596 0.01496 0.32500
O 	O 	0.33009 0.85362 0.99064 -0.40200
C 	C 	0.33686 0.55134 0.96418 0.29300
C 	C 	0.37605 0.84898 0.97587 0.31100
C 	C 	0.19729 0.79671 0.04435 0.29600
C 	C 	0.45147 0.77241 0.02805 0.30100
O 	O 	0.18564 0.58515 0.02370 -0.40100
C 	C 	0.15701 0.44289 0.05228 -0.03300
O 	O 	0.16367 0.38683 0.09132 -0.27100
H 	H 	0.21168 0.46954 0.05253 0.05300
H 	H 	0.17409 0.43193 0.10270 0.14200
C 	C 	0.60948 0.80859 0.08209 0.00600
O 	O 	0.66451 0.71581 0.11046 -0.27400
C 	C 	0.54260 0.79195 0.08929 0.11500
C 	C 	0.49072 0.77804 0.07145 -0.03700
C 	C 	0.50497 0.77933 0.04642 -0.13000
C 	C 	0.57114 0.79141 0.03921 0.20000
C 	C 	0.62314 0.80550 0.05708 -0.11500
O 	O 	0.52870 0.79447 0.11373 -0.27700
H 	H 	0.43960 0.76799 0.07705 0.03100
O 	O 	0.58516 0.79036 0.01474 -0.28100
H 	H 	0.51827 0.74114 0.11948 0.14200
H 	H 	0.59700 0.84435 0.00943 0.15600
H 	H 	0.62488 0.69491 0.12104 0.14200
C 	C 	0.21581 0.91163 0.10305 0.11900
C 	C 	0.23039 0.86956 0.08398 -0.03100
C 	C 	0.17883 0.82442 0.06752 -0.12500
O 	O 	0.26716 0.95835 0.11830 -0.26600
H 	H 	0.28236 0.87493 0.08125 0.02600
H 	H 	0.14835 0.90741 0.15605 0.07700
H 	H 	0.28370 0.00903 0.11023 0.14400
C 	C 	0.58891 0.89274 0.36047 -0.03900
C 	C 	0.54641 0.81498 0.35794 -0.11000
C 	C 	0.55842 0.76828 0.33943 0.18200
C 	C 	0.61186 0.79987 0.32345 -0.10300
H 	H 	0.58049 0.92902 0.37478 0.07600
O 	O 	0.51810 0.69197 0.33692 -0.28000
H 	H 	0.62056 0.76387 0.30911 0.07500
H 	H 	0.48089 0.69061 0.32524 0.14000
C 	C 	0.24582 0.43109 0.38307 -0.12600
C 	C 	0.29265 0.44694 0.36419 0.19500
C 	C 	0.27973 0.39740 0.34357 -0.11000
O 	O 	0.34887 0.51321 0.36515 -0.31700
H 	H 	0.31430 0.41171 0.32851 0.08000
H 	H 	0.38451 0.49920 0.37378 0.15700
C 	C 	0.15738 0.73759 0.35577 -0.12400
H 	H 	0.14140 0.62275 0.34190 0.06200
C 	C 	0.46812 0.92190 0.43985 -0.11500
C 	C 	0.43935 0.97086 0.45090 -0.04600
C 	C 	0.48069 0.04353 0.46031 0.15200
C 	C 	0.55166 0.06720 0.45906 -0.10100
C 	C 	0.57999 0.02035 0.44662 -0.07600
C 	C 	0.53886 0.94792 0.43717 0.18200
H 	H 	0.38502 0.95208 0.45266 0.06500
O 	O 	0.45188 0.08936 0.47192 -0.26000
H 	H 	0.63436 0.03901 0.44501 0.06400
O 	O 	0.56770 0.90362 0.42471 -0.27900
H 	H 	0.58189 0.87455 0.43755 0.16100
H 	H 	0.44267 0.12122 0.45879 0.15500
C 	C 	0.59977 0.47634 0.46115 -0.10500
C 	C 	0.56126 0.45225 0.43916 -0.06100
C 	C 	0.51460 0.48589 0.43183 0.17300
C 	C 	0.50700 0.54518 0.44633 -0.10400
C 	C 	0.54902 0.57326 0.46735 -0.06000
C 	C 	0.59535 0.53905 0.47482 0.16800
H 	H 	0.56556 0.40520 0.42824 0.05900
O 	O 	0.47750 0.46186 0.41022 -0.28800
H 	H 	0.54416 0.61980 0.47837 0.05800
O 	O 	0.63269 0.56346 0.49635 -0.28100
H 	H 	0.43662 0.41794 0.41467 0.15200
C 	C 	0.35491 0.10443 0.55975 -0.11600
C 	C 	0.36271 0.15397 0.58015 0.00400
C 	C 	0.42134 0.22040 0.58306 0.12500
C 	C 	0.47258 0.23558 0.56596 -0.04100
C 	C 	0.46585 0.18464 0.54598 -0.12000
C 	C 	0.40629 0.11916 0.54275 0.19100
C 	C 	0.31016 0.13484 0.59878 0.00500
O 	O 	0.42989 0.26876 0.60313 -0.27200
H 	H 	0.51827 0.28600 0.56858 0.05200
O 	O 	0.39718 0.07111 0.52257 -0.27100
H 	H 	0.30926 0.05393 0.55720 0.07300
C 	C 	0.26213 0.17092 0.59873 0.12100
C 	C 	0.20998 0.14897 0.61553 -0.03300
C 	C 	0.20446 0.08975 0.63210 -0.11300
C 	C 	0.25291 0.05411 0.63225 0.18300
C 	C 	0.30585 0.07728 0.61579 -0.10700
O 	O 	0.26629 0.22792 0.58235 -0.27500
H 	H 	0.17273 0.17646 0.61518 0.06300
O 	O 	0.24953 0.99798 0.64887 -0.28500
H 	H 	0.34296 0.04960 0.61597 0.07400
H 	H 	0.41285 0.02944 0.52804 0.14900
H 	H 	0.23924 0.20095 0.56758 0.14800
H 	H 	0.22338 0.94855 0.64021 0.16100
H 	H 	0.41127 0.30818 0.59779 0.15900
H 	H 	0.02745 0.54733 0.61839 0.08400
C 	C 	0.51240 0.05544 0.94424 -0.10900
C 	C 	0.48476 0.05889 0.96716 -0.06400
C 	C 	0.44145 0.99177 0.97783 0.18100
C 	C 	0.42362 0.92010 0.96517 -0.10400
C 	C 	0.45364 0.91615 0.94274 -0.05700
C 	C 	0.49770 0.98332 0.93222 0.18200
H 	H 	0.49626 0.11394 0.97663 0.06500
O 	O 	0.41628 0.99648 0.00054 -0.29800
H 	H 	0.44182 0.86122 0.93317 0.07000
O 	O 	0.52604 0.97833 0.91017 -0.29600
H 	H 	0.49220 0.97951 0.89737 0.14700
H 	H 	0.44992 0.99036 0.01257 0.13600
C 	C 	0.45900 0.42808 0.93890 -0.10000
C 	C 	0.45208 0.48787 0.92491 -0.05900
C 	C 	0.40895 0.52545 0.93230 0.17200
C 	C 	0.37173 0.50287 0.95376 -0.10400
C 	C 	0.37529 0.43980 0.96688 -0.05700
C 	C 	0.41865 0.40224 0.95950 0.16700
H 	H 	0.48119 0.50630 0.90853 0.07000
O 	O 	0.40244 0.58352 0.91832 -0.29200
H 	H 	0.34669 0.42193 0.98340 0.06600
O 	O 	0.42467 0.34368 0.97334 -0.29000
H 	H 	0.38989 0.29596 0.96633 0.16200
H 	H 	0.43933 0.63109 0.92434 0.16300
H 	H 	0.01443 0.29906 0.80638 0.16800
C 	C 	0.31131 0.12108 0.83019 -0.11600
C 	C 	0.33240 0.09357 0.80901 0.00100
C 	C 	0.39598 0.08602 0.80903 0.12000
C 	C 	0.43893 0.10818 0.82993 -0.03600
C 	C 	0.41859 0.13735 0.85099 -0.13100
C 	C 	0.35383 0.14228 0.85124 0.19700
C 	C 	0.28877 0.07544 0.78659 0.01700
O 	O 	0.41712 0.05949 0.78834 -0.27400
H 	H 	0.48855 0.10381 0.82965 0.02900
O 	O 	0.33228 0.16832 0.87193 -0.27900
H 	H 	0.26199 0.12626 0.83028 0.07500
C 	C 	0.23792 0.00241 0.78314 0.09300
C 	C 	0.19130 0.98871 0.76333 -0.00300
C 	C 	0.19423 0.04808 0.74719 -0.13700
C 	C 	0.24731 0.12013 0.75000 0.20500
C 	C 	0.29470 0.13313 0.76952 -0.11800
O 	O 	0.23369 0.94444 0.79913 -0.26500
H 	H 	0.15110 0.93287 0.76112 0.04200
O 	O 	0.25184 0.17848 0.73412 -0.28800
H 	H 	0.33453 0.18915 0.77194 0.08200
H 	H 	0.30966 0.12165 0.88159 0.15400
H 	H 	0.20324 0.94891 0.81213 0.14800
H 	H 	0.22549 0.20719 0.74161 0.14900
H 	H 	0.40189 0.00282 0.79008 0.15200
Ni	Ni	0.63741 0.14014 0.52579 1.06800
O 	O 	0.64118 0.12296 0.48914 -0.42100
H 	H 	0.08694 0.47587 0.11973 0.14300
H 	H 	0.08902 0.12036 0.12019 0.07400
H 	H 	0.07964 0.00999 0.08071 0.14800
C 	C 	0.07305 0.73373 0.63864 -0.12600
C 	C 	0.04009 0.60910 0.61761 -0.12400
H 	H 	0.61887 0.28436 0.87063 0.15700
O 	O 	0.06749 0.61770 0.54756 -0.27400
O 	O 	0.61993 0.26068 0.88678 -0.69800
H 	H 	0.64914 0.96914 0.28770 0.07200
C 	C 	0.07316 0.76846 0.61584 -0.01900
H 	H 	0.08481 0.83010 0.61511 0.06600
H 	H 	0.07270 0.66794 0.54018 0.16600
H 	H 	0.67456 0.81757 0.05148 0.07900
C 	C 	0.65308 0.87808 0.32565 -0.00200
C 	C 	0.64180 0.92433 0.34438 0.12800
H 	H 	0.67499 0.60472 0.49155 0.15500
Ni	Ni	0.70735 0.31824 0.90679 1.10000
O 	O 	0.70191 0.16377 0.88031 -0.39400
O 	O 	0.70950 0.40764 0.88509 -0.40400
O 	O 	0.63713 0.32543 0.92962 -0.70100
Ni	Ni	0.66045 0.43413 0.93982 1.07200
H 	H 	0.63660 0.29404 0.94425 0.15900
O 	O 	0.72247 0.30975 0.48206 -0.70100
O 	O 	0.69765 0.45901 0.48034 -0.40200
O 	O 	0.68319 0.25112 0.52363 -0.69800
O 	O 	0.72773 0.12114 0.52938 -0.41400
H 	H 	0.71630 0.27314 0.46805 0.16000
H 	H 	0.68429 0.27622 0.53988 0.15900
C 	C 	0.69182 0.92174 0.10421 -0.11800
C 	C 	0.66561 0.84186 0.10011 0.00900
C 	C 	0.68858 0.79395 0.11480 0.11600
C 	C 	0.73695 0.82625 0.13374 -0.03200
H 	H 	0.75463 0.78921 0.14504 0.03700
H 	H 	0.67385 0.95869 0.09298 0.07800
C 	C 	0.69586 0.95785 0.28888 -0.12100
C 	C 	0.70642 0.91216 0.30774 0.01000
C 	C 	0.74501 0.98814 0.27126 0.20300
O 	O 	0.73445 0.03390 0.25319 -0.31000
O 	O 	0.68338 0.00006 0.34733 -0.28000
H 	H 	0.70869 0.99782 0.23978 0.16100
H 	H 	0.66158 0.02946 0.33730 0.14200
O 	O 	0.69737 0.98640 0.61017 -0.26800
H 	H 	0.68852 0.08366 0.57690 0.01700
H 	H 	0.68053 0.93901 0.59964 0.15100
C 	C 	0.04753 0.72275 0.59464 0.10900
C 	C 	0.75466 0.51761 0.84823 -0.03100
O 	O 	0.77551 0.54911 0.80592 -0.27200
H 	H 	0.71983 0.46100 0.84246 0.06000
H 	H 	0.73707 0.56442 0.80061 0.15300
O 	O 	0.76568 0.29218 0.88132 -0.36300
O 	O 	0.71026 0.50304 0.91186 -0.38300
C 	C 	0.74663 0.22424 0.87027 0.29800
C 	C 	0.73266 0.48027 0.89199 0.32400
Ni	Ni	0.77738 0.28440 0.50894 1.09900
Ni	Ni	0.77184 0.41455 0.47131 1.07000
C 	C 	0.77733 0.16511 0.54394 0.29900
C 	C 	0.76185 0.90610 0.13827 -0.12900
C 	C 	0.76805 0.89986 0.30965 0.11800
C 	C 	0.75090 0.03647 0.59806 0.11000
C 	C 	0.73965 0.08589 0.58075 -0.03000
O 	O 	0.03834 0.75659 0.57321 -0.25600
C 	C 	0.78734 0.57018 0.83038 0.12100
C 	C 	0.76614 0.53801 0.87340 -0.12000
O 	O 	0.75158 0.44144 0.95471 -0.41400
O 	O 	0.79678 0.38315 0.52928 -0.39800
O 	O 	0.79051 0.91655 0.18134 -0.41300
C 	C 	0.73878 0.95389 0.12346 0.20800
C 	C 	0.80561 0.97311 0.27251 -0.13200
O 	O 	0.77926 0.85591 0.32815 -0.27100
H 	H 	0.80079 0.89278 0.34192 0.15500
C 	C 	0.79317 0.13349 0.56695 -0.13400
O 	O 	0.79788 0.47564 0.57057 -0.28600
H 	H 	0.79404 0.42565 0.57786 0.15200
C 	C 	0.78085 0.21516 0.84786 -0.12800
H 	H 	0.77851 0.32057 0.83220 0.05800
O 	O 	0.79028 0.09702 0.86226 -0.28700
H 	H 	0.03178 0.74378 0.77575 0.16100
O 	O 	0.79511 0.38263 0.92568 -0.36900
O 	O 	0.83354 0.47592 0.50029 -0.39500
O 	O 	0.81198 0.23657 0.53788 -0.36100
C 	C 	0.83842 0.45031 0.52249 0.32700
O 	O 	0.82649 0.97320 0.22945 -0.42600
C 	C 	0.80963 0.93911 0.15901 0.31100
H 	H 	0.72929 0.03975 0.13980 0.15100
C 	C 	0.81734 0.93026 0.29209 -0.02800
H 	H 	0.79719 0.01197 0.65131 0.07300
C 	C 	0.79521 0.27227 0.82997 -0.03500
C 	C 	0.80317 0.15293 0.84487 0.19300
C 	C 	0.81666 0.03708 0.60255 -0.00000
C 	C 	0.02711 0.64207 0.59585 0.04100
C 	C 	0.80225 0.44096 0.94105 0.31000
O 	O 	0.84773 0.38077 0.46022 -0.41400
Ni	Ni	0.85297 0.89794 0.20886 1.06600
C 	C 	0.85186 0.99207 0.25173 0.33200
O 	O 	0.76136 0.03190 0.12804 -0.29500
C 	C 	0.82758 0.97585 0.61710 0.00500
C 	C 	0.81793 0.97309 0.64255 -0.10100
H 	H 	0.80356 0.16546 0.75993 0.07200
H 	H 	0.80803 0.30867 0.78016 0.14400
H 	H 	0.82966 0.11512 0.87404 0.15600
C 	C 	0.81085 0.61251 0.88052 0.18800
O 	O 	0.79755 0.77327 0.82539 -0.26800
O 	O 	0.82552 0.91742 0.68161 -0.27300
O 	O 	0.05686 0.80529 0.23083 -0.29400
C 	C 	0.83751 0.92205 0.65688 0.17500
O 	O 	0.85171 0.91719 0.58049 -0.27100
C 	C 	0.83136 0.26759 0.80925 0.11500
C 	C 	0.83897 0.14808 0.82402 -0.11200
C 	C 	0.83299 0.64371 0.83747 0.00500
O 	O 	0.82087 0.63482 0.90491 -0.28200
H 	H 	0.82320 0.81274 0.83797 0.14900
H 	H 	0.01499 0.58153 0.31165 0.15600
C 	C 	0.84985 0.92141 0.60567 0.11600
C 	C 	0.86461 0.50976 0.56486 0.18500
H 	H 	0.86366 0.91815 0.29321 0.06600
C 	C 	0.85970 0.13851 0.57282 0.19700
O 	O 	0.84664 0.32492 0.79229 -0.27200
C 	C 	0.84408 0.66495 0.86253 -0.11100
C 	C 	0.84577 0.75878 0.81198 0.11600
O 	O 	0.03858 0.45532 0.11432 -0.27000
H 	H 	0.85570 0.09985 0.82170 0.08100
O 	O 	0.87391 0.32572 0.49521 -0.37800
C 	C 	0.87014 0.87123 0.62004 -0.03100
C 	C 	0.85666 0.17337 0.76197 -0.10700
C 	C 	0.85387 0.20571 0.80634 0.00800
H 	H 	0.84999 0.84478 0.78525 0.06700
C 	C 	0.02592 0.78819 0.25298 0.21800
O 	O 	0.85317 0.12190 0.72115 -0.29000
O 	O 	0.89105 0.86035 0.23927 -0.41200
O 	O 	0.86066 0.00359 0.15567 -0.36600
C 	C 	0.87134 0.09142 0.59096 -0.11700
C 	C 	0.86943 0.87589 0.64580 -0.12200
H 	H 	0.86394 0.95969 0.68956 0.12500
C 	C 	0.88574 0.50221 0.54094 -0.10900
H 	H 	0.84929 0.52683 0.98333 0.06100
H 	H 	0.86058 0.16649 0.71028 0.14000
H 	H 	0.86122 0.62377 0.91058 0.14300
H 	H 	0.03654 0.75782 0.22049 0.14700
C 	C 	0.01437 0.43388 0.48910 -0.01800
C 	C 	0.89278 0.37015 0.47571 0.31200
H 	H 	0.88691 0.79109 0.28250 0.05900
H 	H 	0.89117 0.83264 0.61125 0.06000
H 	H 	0.89836 0.95027 0.57638 0.14500
H 	H 	0.89427 0.56246 0.60084 0.06600
C 	C 	0.87168 0.49608 0.94694 -0.11400
C 	C 	0.86816 0.69876 0.81854 0.00500
H 	H 	0.87852 0.72202 0.86806 0.07100
C 	C 	0.86933 0.80054 0.79072 -0.02600
O 	O 	0.89888 0.81564 0.68124 -0.39800
C 	C 	0.89157 0.19985 0.78448 -0.00100
C 	C 	0.88900 0.15235 0.74257 0.18500
O 	O 	0.90750 0.77891 0.73190 -0.39300
O 	O 	0.91720 0.01028 0.25614 -0.38200
O 	O 	0.91310 0.18773 0.56044 -0.28600
H 	H 	0.91906 0.15709 0.54623 0.15100
C 	C 	0.91117 0.55553 0.58262 -0.09700
C 	C 	0.88839 0.53277 0.97023 -0.04100
O 	O 	0.90678 0.47928 0.90600 -0.27900
H 	H 	0.89905 0.52013 0.89619 0.14300
C 	C 	0.91689 0.85084 0.66036 0.30300
Ni	Ni	0.91903 0.07035 0.18395 1.09800
O 	O 	0.90986 0.16557 0.16864 -0.37500
H 	H 	0.92435 0.41176 0.41991 0.14700
H 	H 	0.92247 0.09402 0.59502 0.06500
C 	C 	0.91525 0.78279 0.77594 -0.12300
C 	C 	0.91747 0.68454 0.80464 -0.11100
O 	O 	0.93619 0.97873 0.19901 -0.70300
H 	H 	0.94119 0.13596 0.22605 0.15600
C 	C 	0.93370 0.78178 0.27938 -0.01800
C 	C 	0.92253 0.50955 0.92949 0.18500
C 	C 	0.93306 0.81994 0.75210 0.30400
O 	O 	0.93230 0.73544 0.32044 -0.26800
O 	O 	0.94134 0.37254 0.42666 -0.28000
C 	C 	0.95332 0.54175 0.53499 -0.06600
H 	H 	0.89395 0.12166 0.11519 0.17100
H 	H 	0.93546 0.63892 0.80976 0.07800
O 	O 	0.94533 0.03233 0.73011 -0.38100
C 	C 	0.95621 0.15609 0.74589 -0.11300
C 	C 	0.95460 0.86520 0.24298 0.29400
H 	H 	0.94642 0.78419 0.33029 0.14700
C 	C 	0.94088 0.72616 0.78335 0.19300
C 	C 	0.96113 0.21315 0.78666 0.13000
H 	H 	0.96212 0.95727 0.18817 0.14900
H 	H 	0.96945 0.53833 0.51643 0.06400
C 	C 	0.95604 0.57627 0.97690 0.13300
O 	O 	0.95590 0.89562 0.75158 -0.36700
C 	C 	0.96772 0.80543 0.25739 -0.14600
C 	C 	0.96564 0.40299 0.47000 -0.12300
Ni	Ni	0.96335 0.77666 0.70108 1.06700
C 	C 	0.96477 0.22540 0.16445 0.30400
C 	C 	0.96406 0.75457 0.29850 0.09000
O 	O 	0.97054 0.11921 0.21530 -0.71000
H 	H 	0.97672 0.99690 0.67582 0.14500
O 	O 	0.97878 0.86772 0.65288 -0.38900
C 	C 	0.97929 0.59256 0.57694 -0.04700
O 	O 	0.94284 0.13678 0.11945 -0.28500
O 	O 	0.97053 0.61801 0.99865 -0.26900
H 	H 	0.96103 0.34808 0.05190 0.05900
C 	C 	0.98060 0.10651 0.73062 0.29200
H 	H 	0.99250 0.75921 0.57403 0.13400
C 	C 	0.97329 0.26094 0.14000 -0.11600
H 	H 	0.97394 0.58174 0.01138 0.15000
Ni	Ni	0.98990 0.02756 0.22978 1.09100
C 	C 	0.98629 0.40960 0.44542 0.15800
C 	C 	0.96842 0.21562 0.11854 0.19400
O 	O 	0.00485 0.93183 0.24148 -0.35000
C 	C 	0.99332 0.19140 0.76733 -0.05800
Ni	Ni	0.98739 0.95498 0.71989 1.09500
H 	H 	0.99708 0.37676 0.15444 0.05600
C 	C 	0.98996 0.55127 0.93630 -0.11600
O 	O 	0.99655 0.24236 0.80825 -0.29100
C 	C 	0.99573 0.34145 0.13829 -0.05100
H 	H 	0.99974 0.42606 0.50811 0.05000
C 	C 	0.00046 0.58524 0.55303 0.17500
O 	O 	0.98674 0.70928 0.76927 -0.32900
O 	O 	0.99653 0.08491 0.16078 -0.38600
O 	O 	0.00728 0.26082 0.18280 -0.39600
O 	O 	0.99900 0.74498 0.66947 -0.42300
