data_crystal

_cell_length_a 19.71216
_cell_length_b 20.15825
_cell_length_c 47.35504
_cell_angle_alpha 89.99720
_cell_angle_beta  89.99826
_cell_angle_gamma 119.43222

_symmetry_space_group_name_	'P 1'
_symmetry_space_group_name_H-M	'P 1'

loop_
_symmetry_equiv_pos_as_xyz
  x,y,z

loop_
_atom_site_label
_atom_site_type_symbol
_atom_site_fract_x
_atom_site_fract_y
_atom_site_fract_z
_atom_site_charge
C 	C 	0.51120 0.16262 0.88561 0.28200
C 	C 	0.71588 0.49275 0.89465 0.30600
C 	C 	0.71750 0.27555 0.86489 0.30300
C 	C 	0.50548 0.36671 0.92033 0.25700
C 	C 	0.79331 0.37579 0.94926 0.28300
C 	C 	0.59523 0.24467 0.97848 0.26500
Ni	Ni	0.60554 0.33266 0.87947 1.11300
Ni	Ni	0.65445 0.38938 0.94375 1.12100
Ni	Ni	0.65920 0.24171 0.92255 1.11800
O 	O 	0.50945 0.22574 0.87925 -0.37400
O 	O 	0.57615 0.16373 0.89499 -0.37500
O 	O 	0.76590 0.41788 0.93881 -0.38700
O 	O 	0.70708 0.43678 0.87828 -0.37800
O 	O 	0.67568 0.47833 0.91808 -0.38200
O 	O 	0.58913 0.20122 0.95643 -0.38100
O 	O 	0.65918 0.28359 0.85548 -0.37000
O 	O 	0.73808 0.28890 0.89134 -0.39000
O 	O 	0.63839 0.32037 0.97755 -0.37800
O 	O 	0.54066 0.38233 0.89518 -0.35900
O 	O 	0.54341 0.36893 0.94388 -0.37100
O 	O 	0.75011 0.30079 0.94943 -0.37700
O 	O 	0.62048 0.30993 0.91667 -0.71700
H 	H 	0.56650 0.27687 0.92301 0.16100
C 	C 	0.46047 0.21713 0.60312 0.28900
C 	C 	0.77649 0.31854 0.55420 0.28600
C 	C 	0.58847 0.12864 0.60490 0.28000
C 	C 	0.66550 0.41046 0.54461 0.26400
C 	C 	0.77038 0.31422 0.64626 0.30900
C 	C 	0.67827 0.43814 0.64633 0.28800
Ni	Ni	0.60570 0.25196 0.56627 1.11200
Ni	Ni	0.74507 0.39589 0.59897 1.11900
Ni	Ni	0.60686 0.26668 0.63449 1.12100
O 	O 	0.48957 0.19714 0.58123 -0.36800
O 	O 	0.50530 0.26125 0.62384 -0.38000
O 	O 	0.78767 0.38139 0.63599 -0.39200
O 	O 	0.70769 0.29017 0.54236 -0.36800
O 	O 	0.78231 0.32894 0.58136 -0.39200
O 	O 	0.64554 0.36676 0.65643 -0.37800
O 	O 	0.62616 0.16853 0.58278 -0.37100
O 	O 	0.55544 0.15489 0.62240 -0.37200
O 	O 	0.70462 0.45521 0.62006 -0.39000
O 	O 	0.60187 0.34398 0.54898 -0.37100
O 	O 	0.73068 0.43399 0.55995 -0.36800
O 	O 	0.69988 0.25608 0.64396 -0.39100
O 	O 	0.64189 0.31366 0.59874 -0.71800
H 	H 	0.61326 0.34217 0.59742 0.16900
C 	C 	0.89472 0.83680 0.72275 0.28900
C 	C 	0.16879 0.04793 0.79164 0.29900
C 	C 	0.94593 0.85607 0.80017 0.26100
C 	C 	0.13491 0.05974 0.71037 0.27700
C 	C 	0.94681 0.07641 0.80313 0.26600
C 	C 	0.93560 0.09994 0.73507 0.25000
Ni	Ni	0.05441 0.93320 0.75208 1.11900
Ni	Ni	0.07126 0.10038 0.76149 1.12000
Ni	Ni	0.90175 0.95083 0.76421 1.11500
O 	O 	0.95557 0.83813 0.73549 -0.38700
O 	O 	0.87241 0.88771 0.72838 -0.38000
O 	O 	0.01258 0.12574 0.79087 -0.35300
O 	O 	0.16273 0.00938 0.76864 -0.37500
O 	O 	0.12860 0.08392 0.79425 -0.37200
O 	O 	0.88318 0.03090 0.74467 -0.37800
O 	O 	0.01944 0.89457 0.79283 -0.34800
O 	O 	0.89161 0.85677 0.78418 -0.37600
O 	O 	0.01066 0.12119 0.73201 -0.35900
O 	O 	0.10100 0.98456 0.71349 -0.35700
O 	O 	0.15146 0.10509 0.73280 -0.37000
O 	O 	0.92183 0.00306 0.80160 -0.40000
O 	O 	0.00713 0.99470 0.75330 -0.67900
H 	H 	0.99830 0.99763 0.73298 0.12400
C 	C 	0.51168 0.82353 0.39756 0.28100
C 	C 	0.25284 0.51066 0.40195 0.30500
C 	C 	0.29750 0.74462 0.37731 0.30200
C 	C 	0.46637 0.59835 0.42732 0.25500
C 	C 	0.21953 0.65523 0.46058 0.28100
C 	C 	0.42209 0.74629 0.48879 0.26400
Ni	Ni	0.38729 0.66142 0.38849 1.11300
Ni	Ni	0.33230 0.60430 0.45244 1.12100
Ni	Ni	0.36666 0.77017 0.43412 1.11900
O 	O 	0.49623 0.75625 0.38744 -0.37400
O 	O 	0.45487 0.83688 0.40628 -0.37500
O 	O 	0.23037 0.60217 0.44910 -0.38300
O 	O 	0.27388 0.57249 0.38723 -0.37800
O 	O 	0.28949 0.51372 0.42549 -0.37700
O 	O 	0.43915 0.79353 0.46703 -0.38200
O 	O 	0.35089 0.72973 0.36727 -0.37100
O 	O 	0.28310 0.73963 0.40441 -0.38700
O 	O 	0.36650 0.67326 0.48729 -0.37500
O 	O 	0.43178 0.59070 0.40236 -0.35900
O 	O 	0.43093 0.59729 0.45137 -0.36800
O 	O 	0.27726 0.72585 0.46209 -0.37600
O 	O 	0.38165 0.68605 0.42631 -0.71600
H 	H 	0.43639 0.70811 0.43224 0.15900
C 	C 	0.53362 0.75214 0.10486 0.28700
C 	C 	0.25460 0.70376 0.03761 0.27900
C 	C 	0.43584 0.86742 0.09599 0.28100
C 	C 	0.33387 0.57746 0.03783 0.26300
C 	C 	0.22470 0.69887 0.13058 0.31100
C 	C 	0.28826 0.54892 0.13412 0.28500
Ni	Ni	0.41310 0.73878 0.05874 1.11300
Ni	Ni	0.24710 0.61106 0.08489 1.12100
Ni	Ni	0.38149 0.72119 0.12628 1.12000
O 	O 	0.52108 0.77470 0.07968 -0.36500
O 	O 	0.47578 0.70815 0.12198 -0.38500
O 	O 	0.19744 0.63126 0.11895 -0.38400
O 	O 	0.32452 0.71871 0.02960 -0.36000
O 	O 	0.23683 0.69282 0.06432 -0.38300
O 	O 	0.31705 0.61801 0.14595 -0.38100
O 	O 	0.40831 0.83433 0.07166 -0.36800
O 	O 	0.45338 0.83257 0.11575 -0.37800
O 	O 	0.26008 0.53515 0.10799 -0.38700
O 	O 	0.40242 0.63818 0.04328 -0.36500
O 	O 	0.26692 0.57043 0.04760 -0.36900
O 	O 	0.29818 0.74972 0.12824 -0.39600
O 	O 	0.35530 0.67869 0.08965 -0.71600
H 	H 	0.37445 0.64187 0.09063 0.16700
C 	C 	0.09488 0.16048 0.21879 0.28600
C 	C 	0.87035 0.96630 0.30460 0.31100
C 	C 	0.09554 0.15879 0.29936 0.30100
C 	C 	0.85300 0.94328 0.22158 0.27800
C 	C 	0.07107 0.92618 0.30028 0.34100
C 	C 	0.07356 0.92092 0.22426 0.28500
Ni	Ni	0.96213 0.07777 0.25914 1.09600
Ni	Ni	0.94472 0.90920 0.26349 1.11100
Ni	Ni	0.11375 0.05485 0.26010 1.12000
O 	O 	0.01844 0.13027 0.22192 -0.36400
O 	O 	0.13846 0.15238 0.23850 -0.37700
O 	O 	0.99851 0.91237 0.29994 -0.42800
O 	O 	0.91685 0.03832 0.29892 -0.39700
O 	O 	0.85833 0.91339 0.28585 -0.38200
O 	O 	0.11191 0.99678 0.22536 -0.38000
O 	O 	0.05490 0.16877 0.27944 -0.36400
O 	O 	0.11243 0.10345 0.29743 -0.38000
O 	O 	0.01344 0.87808 0.24128 -0.36400
O 	O 	0.85852 0.99711 0.23933 -0.37300
O 	O 	0.87914 0.89597 0.22873 -0.38500
O 	O 	0.12238 0.97367 0.28207 -0.39400
O 	O 	0.00518 0.01382 0.25462 -0.70600
H 	H 	0.00298 0.00988 0.23387 0.15900
C 	C 	0.27081 0.48259 0.15230 -0.06400
C 	C 	0.29880 0.49307 0.18017 0.00500
C 	C 	0.27436 0.43054 0.19826 -0.05500
C 	C 	0.22119 0.35696 0.18877 0.01500
C 	C 	0.19535 0.34573 0.16048 0.01600
C 	C 	0.22153 0.40827 0.14225 -0.02000
C 	C 	0.14095 0.27244 0.15110 -0.05400
C 	C 	0.10985 0.21132 0.17000 0.00600
C 	C 	0.13401 0.22248 0.19826 -0.06500
C 	C 	0.19115 0.29496 0.20746 -0.01800
H 	H 	0.33851 0.54965 0.18798 0.03800
H 	H 	0.29542 0.43961 0.21984 0.04500
H 	H 	0.20126 0.39936 0.12056 0.05000
H 	H 	0.12122 0.26315 0.12936 0.04700
H 	H 	0.06613 0.15547 0.16276 0.03900
H 	H 	0.20957 0.30361 0.22938 0.04800
C 	C 	0.80347 0.92587 0.19594 -0.07000
C 	C 	0.77312 0.97339 0.18802 0.01000
C 	C 	0.72194 0.95401 0.16512 -0.06200
C 	C 	0.69998 0.88664 0.14993 0.01600
C 	C 	0.73311 0.84055 0.15685 0.01100
C 	C 	0.78548 0.86084 0.17957 -0.02100
C 	C 	0.71013 0.77254 0.14194 -0.05600
C 	C 	0.64973 0.74713 0.12214 0.00300
C 	C 	0.61278 0.79010 0.11664 -0.06700
C 	C 	0.64151 0.86215 0.12919 -0.02400
H 	H 	0.78836 0.02492 0.19978 0.02700
H 	H 	0.69783 0.99045 0.15967 0.04400
H 	H 	0.81027 0.82493 0.18499 0.04300
H 	H 	0.73636 0.73749 0.14662 0.04000
H 	H 	0.62854 0.69187 0.11233 0.03200
H 	H 	0.61385 0.89602 0.12461 0.04600
C 	C 	0.11029 0.88324 0.20940 -0.06300
C 	C 	0.18244 0.89418 0.21888 0.00500
C 	C 	0.21359 0.85099 0.20770 -0.05400
C 	C 	0.17423 0.79820 0.18615 0.01200
C 	C 	0.10219 0.78782 0.17607 0.02100
C 	C 	0.06965 0.82946 0.18820 -0.02000
C 	C 	0.06518 0.73784 0.15341 -0.05800
C 	C 	0.10217 0.70265 0.13970 0.01500
C 	C 	0.17526 0.71562 0.14905 -0.07800
C 	C 	0.20819 0.75900 0.17347 -0.01000
H 	H 	0.21341 0.93485 0.23552 0.03400
H 	H 	0.26896 0.85942 0.21552 0.04200
H 	H 	0.01343 0.82052 0.18110 0.04700
H 	H 	0.00949 0.72870 0.14567 0.05100
H 	H 	0.07590 0.66858 0.12101 0.03700
H 	H 	0.26353 0.76697 0.18123 0.03600
C 	C 	0.58920 0.88779 0.39129 -0.06400
C 	C 	0.59563 0.94560 0.37310 0.00000
C 	C 	0.65881 0.98061 0.35448 -0.04400
C 	C 	0.71509 0.95704 0.35376 0.00300
C 	C 	0.71368 0.90604 0.37452 0.02200
C 	C 	0.65356 0.87634 0.39457 -0.02300
C 	C 	0.76691 0.87881 0.37297 -0.06200
C 	C 	0.81768 0.89809 0.34998 0.01100
C 	C 	0.81762 0.94680 0.32888 -0.08100
C 	C 	0.76831 0.97846 0.33131 -0.00200
H 	H 	0.54804 0.95778 0.37130 0.04000
H 	H 	0.66084 0.02182 0.33931 0.03500
H 	H 	0.65073 0.83504 0.40991 0.04000
H 	H 	0.76676 0.84019 0.38893 0.04400
H 	H 	0.85695 0.87500 0.34854 0.02800
H 	H 	0.76911 0.01698 0.31514 0.03000
C 	C 	0.12686 0.21317 0.32307 -0.06900
C 	C 	0.19348 0.22348 0.33765 0.00800
C 	C 	0.22671 0.27894 0.35868 -0.05600
C 	C 	0.19422 0.32529 0.36521 0.01500
C 	C 	0.12548 0.31323 0.35141 0.01700
C 	C 	0.09162 0.25660 0.33062 -0.01500
C 	C 	0.09368 0.36038 0.35765 -0.05500
C 	C 	0.13270 0.42220 0.37593 0.01100
C 	C 	0.20309 0.43671 0.38854 -0.07400
C 	C 	0.23189 0.38622 0.38416 -0.01700
H 	H 	0.22068 0.18976 0.33223 0.03700
H 	H 	0.27893 0.28716 0.36935 0.04400
H 	H 	0.03901 0.24744 0.31994 0.04900
H 	H 	0.04029 0.35089 0.34755 0.05000
H 	H 	0.10973 0.46052 0.37950 0.04100
H 	H 	0.28617 0.39730 0.39401 0.04700
C 	C 	0.09215 0.87752 0.31712 -0.08400
C 	C 	0.07132 0.86335 0.34570 0.01700
C 	C 	0.10334 0.82910 0.36283 -0.05900
C 	C 	0.15721 0.80955 0.35156 0.01900
C 	C 	0.17553 0.82055 0.32253 0.01100
C 	C 	0.14152 0.85289 0.30533 -0.00900
C 	C 	0.23016 0.80212 0.31131 -0.05400
C 	C 	0.26882 0.77588 0.32899 0.00600
C 	C 	0.25260 0.76682 0.35808 -0.07000
C 	C 	0.19503 0.78181 0.36914 -0.02100
H 	H 	0.03266 0.88136 0.35489 0.04300
H 	H 	0.08805 0.81991 0.38503 0.05000
H 	H 	0.15574 0.86167 0.28303 0.04500
H 	H 	0.24401 0.80971 0.28897 0.04400
H 	H 	0.31208 0.76363 0.32009 0.04000
H 	H 	0.18105 0.77365 0.39146 0.05000
C 	C 	0.49463 0.93299 0.59180 0.07500
C 	C 	0.43145 0.88214 0.57497 -0.08100
C 	C 	0.44830 0.85839 0.54947 0.01100
C 	C 	0.52336 0.87915 0.54174 0.07900
C 	C 	0.58624 0.92403 0.55945 -0.08500
C 	C 	0.57081 0.95170 0.58456 0.01800
N 	N 	0.49471 0.99161 0.60550 -0.14700
C 	C 	0.56950 0.04851 0.60655 0.00100
C 	C 	0.61835 0.02468 0.59447 -0.04800
N 	N 	0.52368 0.83091 0.52222 -0.15300
C 	C 	0.44803 0.77983 0.51689 0.00700
C 	C 	0.39952 0.79349 0.53457 -0.04400
H 	H 	0.37215 0.86651 0.58055 0.05600
H 	H 	0.64530 0.94007 0.55334 0.05500
H 	H 	0.67490 0.06328 0.58551 0.05500
H 	H 	0.33813 0.77313 0.53097 0.05300
H 	H 	0.44684 0.00069 0.60598 0.08600
H 	H 	0.57018 0.84322 0.50862 0.08500
C 	C 	0.07648 0.54056 0.50677 0.04800
C 	C 	0.04391 0.50463 0.53235 -0.02200
C 	C 	0.96258 0.46490 0.53420 -0.05100
C 	C 	0.91592 0.46216 0.51171 0.10700
C 	C 	0.94937 0.49936 0.48615 -0.14200
C 	C 	0.03076 0.53637 0.48414 0.07300
N 	N 	0.14860 0.59963 0.50396 -0.14600
C 	C 	0.15118 0.63118 0.47842 0.00700
C 	C 	0.07672 0.59576 0.46635 -0.06100
N 	N 	0.84609 0.39856 0.51327 -0.15400
C 	C 	0.84684 0.36128 0.53700 -0.01600
C 	C 	0.92015 0.39947 0.54959 -0.02700
H 	H 	0.08009 0.50631 0.54985 0.04600
H 	H 	0.91360 0.49670 0.46836 0.06200
H 	H 	0.06479 0.59730 0.44410 0.06000
H 	H 	0.93377 0.39065 0.57095 0.03600
H 	H 	0.19722 0.60437 0.51464 0.08600
H 	H 	0.79595 0.39111 0.50294 0.09300
C 	C 	0.59414 0.52991 0.44178 0.07500
C 	C 	0.58636 0.46236 0.45347 -0.08300
C 	C 	0.60791 0.46416 0.48167 0.01300
C 	C 	0.64157 0.53045 0.49710 0.07800
C 	C 	0.65629 0.59958 0.48500 -0.08300
C 	C 	0.63067 0.59810 0.45709 0.01300
N 	N 	0.53989 0.52972 0.42443 -0.15200
C 	C 	0.53931 0.59567 0.42887 0.00700
C 	C 	0.59648 0.64027 0.44841 -0.05000
N 	N 	0.68020 0.52415 0.51945 -0.15300
C 	C 	0.66906 0.45221 0.51872 0.00500
C 	C 	0.62718 0.41458 0.49455 -0.04700
H 	H 	0.55887 0.40943 0.44173 0.05200
H 	H 	0.68270 0.65176 0.49720 0.05200
H 	H 	0.59392 0.68326 0.46142 0.04700
H 	H 	0.59754 0.35356 0.49119 0.04600
H 	H 	0.49149 0.47991 0.41718 0.08800
H 	H 	0.69500 0.55843 0.53747 0.08500
C 	C 	0.90706 0.15105 0.72495 -0.06000
C 	C 	0.84313 0.15027 0.73837 -0.00200
C 	C 	0.81232 0.19475 0.72810 -0.05300
C 	C 	0.84254 0.23783 0.70345 0.01000
C 	C 	0.90794 0.24041 0.69010 0.01700
C 	C 	0.94094 0.19799 0.70125 -0.02800
C 	C 	0.93607 0.28131 0.66478 -0.06100
C 	C 	0.89530 0.31331 0.65156 0.00900
C 	C 	0.82702 0.30577 0.66380 -0.07800
C 	C 	0.80424 0.27300 0.69068 -0.01200
H 	H 	0.81643 0.11411 0.75655 0.03900
H 	H 	0.76278 0.19317 0.73869 0.04300
H 	H 	0.99031 0.19875 0.69081 0.03900
H 	H 	0.98711 0.28508 0.65461 0.03900
H 	H 	0.91398 0.33964 0.63099 0.03000
H 	H 	0.75258 0.26904 0.70046 0.03700
C 	C 	0.17189 0.09407 0.68311 -0.05800
C 	C 	0.19586 0.17105 0.67774 0.00400
C 	C 	0.24737 0.20930 0.65565 -0.05100
C 	C 	0.27536 0.17090 0.63873 0.01300
C 	C 	0.24392 0.09139 0.64181 0.02300
C 	C 	0.19137 0.05301 0.66383 -0.02700
C 	C 	0.27179 0.05307 0.62474 -0.06400
C 	C 	0.33763 0.09463 0.60788 0.01100
C 	C 	0.37613 0.17461 0.60819 -0.07000
C 	C 	0.34013 0.21187 0.62116 -0.01600
H 	H 	0.17743 0.20217 0.69151 0.03900
H 	H 	0.26868 0.26968 0.65270 0.04700
H 	H 	0.17030 0.99276 0.66713 0.05600
H 	H 	0.24589 0.99167 0.62596 0.05200
H 	H 	0.36293 0.06503 0.59679 0.03600
H 	H 	0.36770 0.27351 0.62018 0.04400
C 	C 	0.69816 0.50167 0.66626 -0.06600
C 	C 	0.71243 0.49387 0.69482 0.00500
C 	C 	0.74905 0.55798 0.71225 -0.05600
C 	C 	0.77206 0.63070 0.70132 0.01400
C 	C 	0.75300 0.63844 0.67321 0.01500
C 	C 	0.71493 0.57365 0.65592 -0.02100
C 	C 	0.77561 0.71128 0.66235 -0.05700
C 	C 	0.81998 0.77610 0.67886 0.00400
C 	C 	0.84223 0.76873 0.70630 -0.06900
C 	C 	0.81651 0.69595 0.71776 -0.01900
H 	H 	0.69872 0.43867 0.70320 0.04000
H 	H 	0.76188 0.55127 0.73398 0.04400
H 	H 	0.70174 0.57965 0.63414 0.04600
H 	H 	0.76039 0.71786 0.64094 0.04400
H 	H 	0.83875 0.83207 0.67004 0.03400
H 	H 	0.83232 0.69029 0.73922 0.04600
C 	C 	0.10451 0.56992 0.99623 0.04600
C 	C 	0.06885 0.51968 0.97352 -0.02000
C 	C 	0.99012 0.49652 0.96812 -0.04800
C 	C 	0.94913 0.52078 0.98504 0.10800
C 	C 	0.98556 0.57245 0.00714 -0.14500
C 	C 	0.06366 0.59516 0.01248 0.07100
N 	N 	0.18153 0.61822 0.99833 -0.14500
C 	C 	0.19039 0.67316 0.01703 0.00400
C 	C 	0.11725 0.66262 0.02471 -0.06500
N 	N 	0.87307 0.46933 0.98490 -0.15600
C 	C 	0.86341 0.41326 0.96683 -0.00900
C 	C 	0.93594 0.42686 0.95694 -0.02400
H 	H 	0.10063 0.49950 0.96078 0.04900
H 	H 	0.95374 0.59204 0.02017 0.05900
H 	H 	0.10568 0.68785 0.04299 0.06100
H 	H 	0.94516 0.40159 0.93818 0.03700
H 	H 	0.22443 0.60394 0.99338 0.09600
H 	H 	0.82890 0.48033 0.99145 0.07900
C 	C 	0.50033 0.11273 0.03286 0.07900
C 	C 	0.44183 0.07389 0.05291 -0.08100
C 	C 	0.46116 0.04695 0.07735 0.00800
C 	C 	0.53721 0.06101 0.08182 0.07500
C 	C 	0.59682 0.10618 0.06268 -0.08300
C 	C 	0.57577 0.12844 0.03772 0.01100
N 	N 	0.49918 0.16187 0.01392 -0.15300
C 	C 	0.57412 0.20858 0.00631 0.00700
C 	C 	0.62365 0.19098 0.02154 -0.04500
N 	N 	0.53593 0.00168 0.09539 -0.15700
C 	C 	0.46028 0.94849 0.09884 0.00400
C 	C 	0.41252 0.97613 0.08882 -0.03700
H 	H 	0.38267 0.06185 0.04911 0.05500
H 	H 	0.65617 0.11840 0.06617 0.05000
H 	H 	0.68330 0.20801 0.01596 0.04800
H 	H 	0.35317 0.93967 0.08174 0.05600
H 	H 	0.45032 0.15294 0.00230 0.08500
H 	H 	0.58100 0.98854 0.09409 0.08700
C 	C 	0.35068 0.37051 0.95344 0.07900
C 	C 	0.33329 0.37332 0.98212 -0.08100
C 	C 	0.35382 0.44449 0.99368 0.01400
C 	C 	0.37984 0.50829 0.97689 0.08000
C 	C 	0.38869 0.50452 0.94775 -0.08400
C 	C 	0.37676 0.43524 0.93636 0.01500
N 	N 	0.38241 0.32837 0.94466 -0.15200
C 	C 	0.43141 0.36659 0.92318 0.00900
C 	C 	0.42687 0.43155 0.91679 -0.04400
N 	N 	0.36608 0.56018 0.98940 -0.15200
C 	C 	0.33011 0.52948 0.01414 0.00700
C 	C 	0.32231 0.45757 0.01770 -0.04700
H 	H 	0.31226 0.32335 0.99543 0.05500
H 	H 	0.40937 0.55490 0.93468 0.05500
H 	H 	0.47376 0.48147 0.90680 0.05200
H 	H 	0.28306 0.41459 0.03237 0.04800
H 	H 	0.38902 0.29003 0.95770 0.08900
H 	H 	0.36758 0.60725 0.97952 0.08600
C 	C 	0.89962 0.10419 0.81799 -0.07000
C 	C 	0.85051 0.06194 0.84035 -0.00100
C 	C 	0.80122 0.08488 0.85297 -0.05600
C 	C 	0.79971 0.14987 0.84315 0.00900
C 	C 	0.84822 0.19216 0.82046 0.01600
C 	C 	0.89943 0.17024 0.80846 -0.02700
C 	C 	0.84518 0.25610 0.81021 -0.06200
C 	C 	0.79748 0.28026 0.82343 0.01100
C 	C 	0.75250 0.24081 0.84696 -0.07900
C 	C 	0.75175 0.17420 0.85618 -0.01400
H 	H 	0.85051 0.01127 0.84798 0.03600
H 	H 	0.76415 0.05199 0.87035 0.04000
H 	H 	0.93755 0.20329 0.79131 0.04000
H 	H 	0.88079 0.28794 0.79238 0.04300
H 	H 	0.79806 0.33147 0.81612 0.03200
H 	H 	0.71617 0.14317 0.87418 0.02900
C 	C 	0.21711 0.04694 0.81546 -0.06800
C 	C 	0.19851 0.05616 0.84332 0.00900
C 	C 	0.24642 0.05982 0.86574 -0.05400
C 	C 	0.31442 0.05582 0.86055 0.01800
C 	C 	0.33085 0.04154 0.83289 0.01500
C 	C 	0.28158 0.03629 0.81044 -0.01900
C 	C 	0.40019 0.03975 0.82774 -0.05400
C 	C 	0.45770 0.06394 0.84874 0.00600
C 	C 	0.44661 0.09157 0.87456 -0.06600
C 	C 	0.37077 0.07504 0.88183 -0.01900
H 	H 	0.14727 0.06127 0.84759 0.05000
H 	H 	0.23240 0.06911 0.88699 0.04900
H 	H 	0.29538 0.02760 0.78907 0.04700
H 	H 	0.41200 0.02518 0.80698 0.04500
H 	H 	0.51444 0.07113 0.84351 0.03800
H 	H 	0.36012 0.09035 0.90268 0.04100
C 	C 	0.75710 0.57077 0.88380 -0.08000
C 	C 	0.72006 0.61506 0.88349 0.01100
C 	C 	0.75371 0.68446 0.86910 -0.06300
C 	C 	0.82471 0.71013 0.85489 0.02400
C 	C 	0.86451 0.66797 0.85675 0.00100
C 	C 	0.83047 0.59849 0.87128 -0.01100
C 	C 	0.93584 0.69397 0.84281 -0.03600
C 	C 	0.96485 0.75831 0.82559 -0.04600
C 	C 	0.92279 0.79737 0.82212 -0.04800
C 	C 	0.85441 0.77503 0.83769 -0.03100
H 	H 	0.66363 0.59417 0.89339 0.03800
H 	H 	0.72339 0.71701 0.86826 0.04500
H 	H 	0.85964 0.56477 0.87204 0.04300
H 	H 	0.96764 0.66297 0.84458 0.03300
H 	H 	0.01836 0.77587 0.81397 0.07000
H 	H 	0.82304 0.80643 0.83561 0.04500
