data_crystal

_cell_length_a 27.88423
_cell_length_b 28.56518
_cell_length_c 15.50229
_cell_angle_alpha 90.31826
_cell_angle_beta  90.31836
_cell_angle_gamma 120.00501

_symmetry_space_group_name_	'P 1'
_symmetry_space_group_name_H-M	'P 1'

loop_
_symmetry_equiv_pos_as_xyz
  x,y,z

loop_
_atom_site_label
_atom_site_type_symbol
_atom_site_fract_x
_atom_site_fract_y
_atom_site_fract_z
_atom_site_charge
C 	C 	0.49417 0.81130 0.24338 0.28500
C 	C 	0.65642 0.75709 0.10801 0.31000
C 	C 	0.49789 0.67987 0.24449 0.30700
C 	C 	0.66213 0.89424 0.10804 0.28700
C 	C 	0.65483 0.75428 0.38516 0.30700
C 	C 	0.65386 0.88844 0.39734 0.28600
Ni	Ni	0.56532 0.78014 0.14120 1.11100
Ni	Ni	0.68008 0.83535 0.25094 1.12000
Ni	Ni	0.56478 0.77846 0.34980 1.11800
O 	O 	0.52170 0.81926 0.17021 -0.38100
O 	O 	0.49566 0.77942 0.30488 -0.38000
O 	O 	0.67599 0.77036 0.30797 -0.39500
O 	O 	0.60292 0.73435 0.11960 -0.39000
O 	O 	0.68993 0.80643 0.13632 -0.38400
O 	O 	0.59957 0.85365 0.40070 -0.39100
O 	O 	0.49551 0.71100 0.18466 -0.38100
O 	O 	0.53401 0.70098 0.30817 -0.39000
O 	O 	0.68881 0.87381 0.36551 -0.38600
O 	O 	0.62773 0.84575 0.07401 -0.37600
O 	O 	0.68955 0.89951 0.18150 -0.38100
O 	O 	0.62150 0.76971 0.41836 -0.38900
O 	O 	0.60276 0.80867 0.24575 -0.72000
H 	H 	0.60302 0.84327 0.24749 0.15200
C 	C 	0.07346 0.76648 0.38335 0.28900
C 	C 	0.29815 0.82760 0.25679 0.31100
C 	C 	0.20918 0.90290 0.38830 0.30900
C 	C 	0.17383 0.69365 0.25944 0.29200
C 	C 	0.21672 0.90128 0.11082 0.31200
C 	C 	0.08484 0.76020 0.09752 0.28500
Ni	Ni	0.19375 0.79308 0.35822 1.11100
Ni	Ni	0.19906 0.79220 0.14921 1.11800
Ni	Ni	0.13345 0.84259 0.24167 1.11900
O 	O 	0.12271 0.78361 0.42066 -0.37700
O 	O 	0.06849 0.78634 0.30862 -0.38900
O 	O 	0.20506 0.85408 0.07810 -0.39200
O 	O 	0.26863 0.79948 0.32269 -0.38400
O 	O 	0.27596 0.84307 0.19662 -0.39400
O 	O 	0.09616 0.80887 0.12613 -0.38100
O 	O 	0.23555 0.87598 0.37960 -0.38100
O 	O 	0.15887 0.88336 0.35648 -0.38100
O 	O 	0.12355 0.74594 0.09594 -0.38500
O 	O 	0.16091 0.71144 0.33009 -0.38400
O 	O 	0.20278 0.72672 0.19537 -0.38500
O 	O 	0.20008 0.90456 0.18842 -0.39600
O 	O 	0.16456 0.79702 0.25127 -0.71900
H 	H 	0.13066 0.76129 0.24924 0.15400
C 	C 	0.16306 0.48722 0.25094 0.28900
C 	C 	0.21962 0.33247 0.40308 0.31100
C 	C 	0.29399 0.48169 0.25585 0.30700
C 	C 	0.07663 0.31801 0.39972 0.29000
C 	C 	0.22179 0.32588 0.12534 0.30900
C 	C 	0.08238 0.32136 0.10744 0.28500
Ni	Ni	0.19107 0.41746 0.35993 1.11100
Ni	Ni	0.13942 0.30324 0.25824 1.12000
Ni	Ni	0.19356 0.41227 0.15091 1.12000
O 	O 	0.14987 0.45763 0.32187 -0.38200
O 	O 	0.19063 0.48039 0.18617 -0.37700
O 	O 	0.20781 0.30953 0.20499 -0.39700
O 	O 	0.24035 0.38454 0.39244 -0.38900
O 	O 	0.16937 0.29811 0.37556 -0.39200
O 	O 	0.11621 0.37454 0.10039 -0.38400
O 	O 	0.26120 0.48494 0.31304 -0.38400
O 	O 	0.27334 0.44579 0.19282 -0.39000
O 	O 	0.09983 0.28994 0.14255 -0.38600
O 	O 	0.12446 0.35802 0.43111 -0.37600
O 	O 	0.07305 0.29496 0.32334 -0.38700
O 	O 	0.20486 0.35642 0.08814 -0.38700
O 	O 	0.16379 0.37802 0.25742 -0.72200
H 	H 	0.12781 0.37659 0.25378 0.15700
C 	C 	0.88465 0.66096 0.60332 0.29300
C 	C 	0.66611 0.50485 0.75495 0.30800
C 	C 	0.74716 0.65917 0.61197 0.30700
C 	C 	0.79226 0.49275 0.74847 0.29100
C 	C 	0.75185 0.66199 0.89048 0.31400
C 	C 	0.88469 0.65323 0.89538 0.28600
Ni	Ni	0.76731 0.56729 0.64516 1.11200
Ni	Ni	0.76942 0.56995 0.85434 1.12100
Ni	Ni	0.82956 0.68037 0.75159 1.11900
O 	O 	0.83461 0.62476 0.57325 -0.37700
O 	O 	0.89198 0.68507 0.67972 -0.39200
O 	O 	0.76518 0.62768 0.92321 -0.39500
O 	O 	0.69488 0.50189 0.69058 -0.37900
O 	O 	0.69005 0.54227 0.81516 -0.38700
O 	O 	0.87164 0.68889 0.86401 -0.38700
O 	O 	0.72290 0.60653 0.62068 -0.38300
O 	O 	0.79864 0.69029 0.63806 -0.39100
O 	O 	0.84724 0.60084 0.90037 -0.38600
O 	O 	0.80285 0.52028 0.67531 -0.37800
O 	O 	0.76477 0.49982 0.81260 -0.38300
O 	O 	0.76568 0.67967 0.81144 -0.40300
O 	O 	0.79920 0.60453 0.74817 -0.72100
H 	H 	0.83359 0.60277 0.74822 0.15500
C 	C 	0.78753 0.28957 0.75842 0.29100
C 	C 	0.74865 0.07978 0.61183 0.31400
C 	C 	0.66263 0.15291 0.75167 0.30900
C 	C 	0.87965 0.21656 0.60640 0.29000
C 	C 	0.74645 0.08224 0.89214 0.31000
C 	C 	0.88444 0.21638 0.89610 0.29200
Ni	Ni	0.76351 0.18965 0.64672 1.11200
Ni	Ni	0.82656 0.13925 0.75374 1.11800
Ni	Ni	0.76664 0.19170 0.85660 1.11900
O 	O 	0.75978 0.25713 0.69211 -0.38100
O 	O 	0.80016 0.27142 0.82911 -0.38400
O 	O 	0.79747 0.10036 0.86613 -0.39900
O 	O 	0.76012 0.12581 0.57672 -0.37900
O 	O 	0.76014 0.07765 0.69339 -0.39800
O 	O 	0.83475 0.20432 0.92663 -0.38100
O 	O 	0.68444 0.13767 0.69093 -0.38400
O 	O 	0.69383 0.18497 0.81470 -0.38600
O 	O 	0.89030 0.19798 0.82023 -0.39400
O 	O 	0.84337 0.23364 0.59841 -0.37600
O 	O 	0.86434 0.16790 0.63807 -0.38600
O 	O 	0.72330 0.11250 0.88567 -0.38900
O 	O 	0.79595 0.18521 0.75001 -0.72000
H 	H 	0.83009 0.22073 0.74936 0.15600
C 	C 	0.30360 0.09087 0.89744 0.29000
C 	C 	0.46743 0.30075 0.75814 0.31000
C 	C 	0.30809 0.22476 0.90095 0.30800
C 	C 	0.46595 0.16706 0.74122 0.28800
C 	C 	0.31216 0.23404 0.61835 0.31000
C 	C 	0.29790 0.09342 0.60569 0.28900
Ni	Ni	0.39913 0.20111 0.85837 1.11100
Ni	Ni	0.39635 0.20331 0.64959 1.11900
Ni	Ni	0.28314 0.15093 0.75277 1.11900
O 	O 	0.35835 0.12206 0.90121 -0.38200
O 	O 	0.27123 0.10873 0.86504 -0.38500
O 	O 	0.36532 0.25256 0.63071 -0.39500
O 	O 	0.43230 0.28087 0.82161 -0.38300
O 	O 	0.46675 0.26899 0.69576 -0.38200
O 	O 	0.27042 0.08781 0.67842 -0.38600
O 	O 	0.34166 0.20933 0.93272 -0.38000
O 	O 	0.29388 0.21698 0.81902 -0.39000
O 	O 	0.33599 0.14194 0.57696 -0.38800
O 	O 	0.46711 0.19742 0.80782 -0.37900
O 	O 	0.43697 0.16205 0.66971 -0.38200
O 	O 	0.27516 0.18546 0.64437 -0.39300
O 	O 	0.35963 0.17377 0.75487 -0.72000
H 	H 	0.35749 0.13830 0.75233 0.15700
C 	C 	0.57022 0.12662 0.81149 -0.03600
C 	C 	0.60579 0.14356 0.74040 -0.09500
C 	C 	0.58980 0.15939 0.66389 0.07500
C 	C 	0.54173 0.16355 0.66348 -0.03900
C 	C 	0.50891 0.15123 0.73732 -0.08500
C 	C 	0.52099 0.12881 0.80958 0.07100
C 	C 	0.48246 0.10840 0.88551 -0.19100
H 	H 	0.58160 0.11305 0.86924 0.04300
H 	H 	0.53126 0.17880 0.60680 0.04600
C 	C 	0.62450 0.17362 0.58355 -0.19200
H 	H 	0.48882 0.07905 0.92354 0.06500
H 	H 	0.43856 0.08722 0.86344 0.07200
H 	H 	0.49024 0.14280 0.92837 0.06900
H 	H 	0.62723 0.13812 0.56075 0.06800
H 	H 	0.66661 0.20816 0.59674 0.05800
H 	H 	0.60625 0.18557 0.53010 0.06300
C 	C 	0.60404 0.42032 0.83061 -0.03500
C 	C 	0.61044 0.45891 0.76950 -0.09400
C 	C 	0.56679 0.44759 0.71118 0.07900
C 	C 	0.51961 0.39581 0.70930 -0.03800
C 	C 	0.51499 0.35591 0.76637 -0.09000
C 	C 	0.55708 0.36849 0.82871 0.07700
C 	C 	0.55423 0.32576 0.88870 -0.19400
H 	H 	0.63753 0.42939 0.87569 0.03800
H 	H 	0.48695 0.38624 0.66228 0.04400
C 	C 	0.57172 0.48954 0.64768 -0.19600
H 	H 	0.58991 0.34249 0.93446 0.06200
H 	H 	0.55494 0.29308 0.85068 0.07700
H 	H 	0.51589 0.30864 0.92752 0.06100
H 	H 	0.59854 0.49168 0.59340 0.07400
H 	H 	0.58994 0.52986 0.67954 0.07800
H 	H 	0.53054 0.47959 0.62121 0.06700
C 	C 	0.84022 0.38962 0.74556 -0.03800
C 	C 	0.79021 0.34223 0.76310 -0.09000
C 	C 	0.74132 0.34471 0.77471 0.08100
C 	C 	0.74243 0.39369 0.76309 -0.04100
C 	C 	0.79231 0.44131 0.74705 -0.08300
C 	C 	0.84185 0.43957 0.73880 0.07100
C 	C 	0.89609 0.49038 0.72210 -0.19200
H 	H 	0.87761 0.38753 0.73602 0.03700
H 	H 	0.70442 0.39515 0.76881 0.05300
C 	C 	0.68767 0.29510 0.79865 -0.19700
H 	H 	0.93141 0.48271 0.72315 0.06200
H 	H 	0.90405 0.52134 0.77243 0.06900
H 	H 	0.89469 0.50659 0.65778 0.07300
H 	H 	0.69427 0.27516 0.85506 0.08100
H 	H 	0.67162 0.26660 0.74305 0.08700
H 	H 	0.65548 0.30535 0.81672 0.06900
C 	C 	0.94702 0.29032 0.99690 -0.03400
C 	C 	0.93266 0.24122 0.95532 -0.08800
C 	C 	0.96563 0.21701 0.96846 0.07800
C 	C 	0.01593 0.24554 0.01348 -0.04000
C 	C 	0.03081 0.29486 0.05487 -0.07500
C 	C 	0.99483 0.31641 0.04938 0.06100
C 	C 	0.00721 0.36713 0.09805 -0.17700
H 	H 	0.92109 0.30831 0.98834 0.04200
H 	H 	0.04315 0.22870 0.01774 0.04900
C 	C 	0.94749 0.16075 0.93516 -0.19400
H 	H 	0.97017 0.37206 0.10116 0.05800
H 	H 	0.04065 0.40285 0.06505 0.07300
H 	H 	0.02004 0.36576 0.16553 0.06900
H 	H 	0.95742 0.16226 0.86563 0.06900
H 	H 	0.90236 0.13361 0.94454 0.07900
H 	H 	0.96899 0.14261 0.97030 0.06300
C 	C 	0.01099 0.32460 0.50002 -0.03600
C 	C 	0.02859 0.29243 0.45741 -0.08400
C 	C 	0.99972 0.23588 0.46972 0.06900
C 	C 	0.94986 0.21189 0.51482 -0.03900
C 	C 	0.93151 0.24374 0.55661 -0.08500
C 	C 	0.96382 0.30084 0.55251 0.07000
C 	C 	0.94849 0.33658 0.60342 -0.19000
H 	H 	0.03403 0.36813 0.49247 0.04100
H 	H 	0.92556 0.16818 0.51837 0.04700
C 	C 	0.02174 0.20078 0.43528 -0.18800
H 	H 	0.98391 0.37858 0.60863 0.06200
H 	H 	0.93653 0.32137 0.67016 0.07100
H 	H 	0.91359 0.33788 0.57097 0.07500
H 	H 	0.06724 0.22065 0.44515 0.07400
H 	H 	0.01160 0.19250 0.36552 0.07100
H 	H 	0.00310 0.16146 0.46924 0.06300
C 	C 	0.28937 0.30449 0.42892 -0.03700
C 	C 	0.24785 0.31343 0.46144 -0.09600
C 	C 	0.23095 0.30062 0.54797 0.07900
C 	C 	0.25385 0.27625 0.59933 -0.03800
C 	C 	0.29381 0.26521 0.56586 -0.09100
C 	C 	0.31207 0.27975 0.47998 0.07600
C 	C 	0.35514 0.26857 0.44217 -0.19300
H 	H 	0.30282 0.31527 0.36286 0.04100
H 	H 	0.23991 0.26505 0.66510 0.04400
C 	C 	0.18729 0.31123 0.58489 -0.19500
H 	H 	0.35962 0.27612 0.37165 0.06300
H 	H 	0.34332 0.22568 0.45197 0.06700
H 	H 	0.39594 0.29531 0.47340 0.07000
H 	H 	0.14640 0.28308 0.55511 0.08000
H 	H 	0.19788 0.35354 0.57209 0.07300
H 	H 	0.18382 0.30546 0.65587 0.06700
C 	C 	0.32153 0.29235 0.01409 -0.03800
C 	C 	0.28542 0.25015 0.95855 -0.09100
C 	C 	0.22784 0.23120 0.96113 0.07600
C 	C 	0.20786 0.25665 0.01612 -0.03700
C 	C 	0.24401 0.29903 0.07096 -0.09400
C 	C 	0.30116 0.31675 0.07078 0.07800
C 	C 	0.34062 0.36232 0.12949 -0.19700
H 	H 	0.36556 0.30643 0.01274 0.04400
H 	H 	0.16398 0.24335 0.01645 0.04400
C 	C 	0.18757 0.18453 0.90486 -0.19200
H 	H 	0.38370 0.37010 0.12391 0.06600
H 	H 	0.32783 0.35211 0.19769 0.07800
H 	H 	0.34055 0.40002 0.11259 0.07900
H 	H 	0.19653 0.15083 0.90746 0.06200
H 	H 	0.19041 0.19820 0.83722 0.06800
H 	H 	0.14421 0.16829 0.92651 0.06200
C 	C 	0.21594 0.98319 0.06005 -0.03500
C 	C 	0.23842 0.94897 0.05421 -0.09400
C 	C 	0.28188 0.96127 0.99578 0.08100
C 	C 	0.29934 0.00544 0.94031 -0.04100
C 	C 	0.27810 0.04060 0.94804 -0.08500
C 	C 	0.23720 0.03030 0.01069 0.07600
C 	C 	0.21639 0.06930 0.02619 -0.19300
H 	H 	0.18248 0.97371 0.10456 0.04000
H 	H 	0.33117 0.01373 0.89317 0.04100
C 	C 	0.31133 0.92911 0.99461 -0.19600
H 	H 	0.19284 0.06037 0.08726 0.06400
H 	H 	0.18831 0.06606 0.97259 0.07400
H 	H 	0.25148 0.11145 0.03172 0.08300
H 	H 	0.28436 0.88890 0.96428 0.07100
H 	H 	0.32253 0.92406 0.06137 0.07700
H 	H 	0.35038 0.94987 0.95741 0.06400
C 	C 	0.23679 0.99927 0.41164 -0.03700
C 	C 	0.23306 0.95179 0.44377 -0.09000
C 	C 	0.25076 0.95100 0.52927 0.08100
C 	C 	0.27450 0.99858 0.57943 -0.04100
C 	C 	0.27786 0.04597 0.54762 -0.08400
C 	C 	0.25771 0.04605 0.46353 0.07800
C 	C 	0.25868 0.09569 0.42842 -0.19300
H 	H 	0.22293 0.99970 0.34627 0.04400
H 	H 	0.28934 0.99843 0.64420 0.04300
C 	C 	0.24421 0.89970 0.56769 -0.19500
H 	H 	0.23264 0.08610 0.36925 0.06500
H 	H 	0.30176 0.12640 0.41171 0.07500
H 	H 	0.24223 0.11294 0.47647 0.08200
H 	H 	0.27554 0.89089 0.54014 0.06900
H 	H 	0.20200 0.86521 0.55438 0.07100
H 	H 	0.25000 0.90330 0.63888 0.06500
C 	C 	0.98738 0.75747 0.44365 -0.04500
C 	C 	0.02353 0.73697 0.43592 -0.08400
C 	C 	0.01145 0.68859 0.47819 0.07500
C 	C 	0.96556 0.66390 0.53299 -0.04400
C 	C 	0.93030 0.68530 0.54208 -0.09100
C 	C 	0.94027 0.73144 0.49510 0.07900
C 	C 	0.90118 0.75347 0.50065 -0.19500
H 	H 	0.99632 0.79415 0.41013 0.04500
H 	H 	0.95728 0.62806 0.56853 0.03500
C 	C 	0.04672 0.66289 0.46439 -0.19400
H 	H 	0.91294 0.78763 0.45572 0.06500
H 	H 	0.90172 0.76836 0.56716 0.07400
H 	H 	0.85846 0.72139 0.48327 0.08500
H 	H 	0.08751 0.68748 0.49691 0.07000
H 	H 	0.05291 0.65973 0.39434 0.07200
H 	H 	0.02688 0.62137 0.49101 0.06500
C 	C 	0.93338 0.67213 0.03652 -0.03800
C 	C 	0.93621 0.67400 0.94624 -0.08400
C 	C 	0.98836 0.69997 0.90573 0.06900
C 	C 	0.03673 0.72760 0.95628 -0.03200
C 	C 	0.03375 0.72778 0.04654 -0.08100
C 	C 	0.98187 0.69787 0.08714 0.06800
C 	C 	0.97757 0.69542 0.18406 -0.19900
H 	H 	0.89329 0.65182 0.06746 0.04200
H 	H 	0.07669 0.74970 0.92530 0.04500
C 	C 	0.99265 0.70040 0.80879 -0.19800
H 	H 	0.93749 0.66072 0.20481 0.06700
H 	H 	0.98035 0.73319 0.20900 0.07800
H 	H 	0.01097 0.69006 0.21325 0.07500
H 	H 	0.98369 0.73122 0.78209 0.07900
H 	H 	0.96304 0.66006 0.78098 0.07200
H 	H 	0.03482 0.71035 0.78837 0.07000
C 	C 	0.11894 0.59325 0.25374 -0.03800
C 	C 	0.17051 0.64059 0.26299 -0.09000
C 	C 	0.21904 0.63702 0.27289 0.08200
C 	C 	0.21558 0.58648 0.26755 -0.04300
C 	C 	0.16434 0.53926 0.25615 -0.08300
C 	C 	0.11535 0.54232 0.25121 0.07200
C 	C 	0.05987 0.49208 0.23755 -0.19400
H 	H 	0.08173 0.59608 0.24708 0.03800
H 	H 	0.25293 0.58378 0.27293 0.05300
C 	C 	0.27455 0.68686 0.28944 -0.19900
H 	H 	0.02530 0.50044 0.24583 0.06500
H 	H 	0.05393 0.46059 0.28480 0.07400
H 	H 	0.05752 0.47640 0.17115 0.06700
H 	H 	0.27195 0.70993 0.34527 0.08300
H 	H 	0.28781 0.71257 0.23126 0.08600
H 	H 	0.30707 0.67648 0.30493 0.07200
C 	C 	0.72369 0.95037 0.50397 -0.04200
C 	C 	0.67732 0.93768 0.45178 -0.08300
C 	C 	0.65575 0.97332 0.45022 0.06900
C 	C 	0.67758 0.01771 0.50714 -0.03100
C 	C 	0.72428 0.03052 0.55818 -0.09800
C 	C 	0.74956 0.99843 0.55238 0.07800
C 	C 	0.80528 0.01638 0.59381 -0.19300
H 	H 	0.74070 0.92354 0.50487 0.04900
H 	H 	0.65932 0.04348 0.50940 0.04100
C 	C 	0.61124 0.96626 0.38701 -0.19000
H 	H 	0.82427 0.99304 0.56822 0.06200
H 	H 	0.80066 0.01023 0.66438 0.06100
H 	H 	0.83440 0.05970 0.58042 0.06800
H 	H 	0.57242 0.95432 0.42247 0.06700
H 	H 	0.60307 0.93622 0.33532 0.06800
H 	H 	0.62386 0.00534 0.35481 0.06300
C 	C 	0.69638 0.93927 0.96740 -0.03900
C 	C 	0.68104 0.94196 0.05239 -0.08500
C 	C 	0.68237 0.98944 0.08240 0.07400
C 	C 	0.70264 0.03474 0.02844 -0.03500
C 	C 	0.71936 0.03242 0.94402 -0.09000
C 	C 	0.71403 0.98351 0.91223 0.07800
C 	C 	0.72614 0.97790 0.81943 -0.19800
H 	H 	0.69445 0.90250 0.94402 0.04800
H 	H 	0.70613 0.07204 0.05258 0.04200
C 	C 	0.66182 0.99188 0.17109 -0.19400
H 	H 	0.71490 0.93570 0.80288 0.06600
H 	H 	0.77101 0.00421 0.80745 0.07000
H 	H 	0.70161 0.98908 0.77639 0.08600
H 	H 	0.69076 0.99218 0.22086 0.07700
H 	H 	0.61995 0.95638 0.18072 0.06800
H 	H 	0.65858 0.02880 0.18023 0.06400
C 	C 	0.72549 0.72869 0.08183 -0.03800
C 	C 	0.67861 0.73032 0.05324 -0.09500
C 	C 	0.65662 0.71071 0.96972 0.07800
C 	C 	0.68018 0.68700 0.91848 -0.03700
C 	C 	0.72757 0.68617 0.94662 -0.09700
C 	C 	0.75151 0.70874 0.02801 0.07800
C 	C 	0.80488 0.71215 0.05761 -0.19600
H 	H 	0.74266 0.74439 0.14541 0.04100
H 	H 	0.66182 0.66945 0.85628 0.04300
C 	C 	0.60862 0.71538 0.93445 -0.19200
H 	H 	0.82357 0.74040 0.11330 0.06400
H 	H 	0.83583 0.72741 0.00512 0.08200
H 	H 	0.79682 0.67166 0.07793 0.07900
H 	H 	0.61592 0.75699 0.94450 0.06700
H 	H 	0.56981 0.68591 0.96685 0.06700
H 	H 	0.60298 0.70686 0.86397 0.06200
C 	C 	0.69675 0.75117 0.52520 -0.03900
C 	C 	0.67804 0.72918 0.44242 -0.09200
C 	C 	0.67984 0.68252 0.41655 0.07600
C 	C 	0.70244 0.66001 0.47292 -0.03800
C 	C 	0.72122 0.68213 0.55572 -0.09500
C 	C 	0.71706 0.72730 0.58280 0.07600
C 	C 	0.73261 0.74925 0.67362 -0.19600
H 	H 	0.69510 0.78680 0.54508 0.04800
H 	H 	0.70577 0.62544 0.45210 0.03900
C 	C 	0.65847 0.65697 0.32893 -0.19600
H 	H 	0.72140 0.78080 0.68715 0.06500
H 	H 	0.77794 0.76760 0.68386 0.07100
H 	H 	0.71014 0.71620 0.72036 0.08000
H 	H 	0.68762 0.68273 0.27836 0.07900
H 	H 	0.61692 0.65198 0.31613 0.08200
H 	H 	0.65427 0.61624 0.32441 0.06500
C 	C 	0.41846 0.81716 0.16850 -0.04000
C 	C 	0.44888 0.82408 0.24465 -0.08500
C 	C 	0.43434 0.84108 0.32118 0.07100
C 	C 	0.38813 0.84829 0.32072 -0.03500
C 	C 	0.35466 0.83636 0.24669 -0.09700
C 	C 	0.37099 0.82221 0.16895 0.07500
C 	C 	0.33689 0.81002 0.08729 -0.19100
H 	H 	0.43018 0.80511 0.10945 0.04600
H 	H 	0.37601 0.85981 0.37995 0.04200
C 	C 	0.46439 0.84698 0.40523 -0.19400
H 	H 	0.35488 0.79831 0.03326 0.06100
H 	H 	0.33539 0.84637 0.06688 0.06600
H 	H 	0.29431 0.77593 0.09753 0.05500
H 	H 	0.50913 0.86314 0.39491 0.07400
H 	H 	0.44659 0.80700 0.43682 0.07000
H 	H 	0.46037 0.87546 0.44966 0.06400
C 	C 	0.43148 0.59921 0.32771 -0.03900
C 	C 	0.45403 0.62237 0.24780 -0.09300
C 	C 	0.43046 0.59198 0.17124 0.07900
C 	C 	0.37884 0.54430 0.17467 -0.03900
C 	C 	0.35310 0.52425 0.25424 -0.09400
C 	C 	0.38248 0.54900 0.33146 0.07900
C 	C 	0.36185 0.52261 0.41773 -0.19600
H 	H 	0.45116 0.62083 0.38697 0.04200
H 	H 	0.35813 0.52370 0.11527 0.04300
C 	C 	0.45960 0.61020 0.08599 -0.19500
H 	H 	0.39654 0.53663 0.46503 0.06500
H 	H 	0.34257 0.47801 0.41199 0.07900
H 	H 	0.33124 0.53305 0.44334 0.07000
H 	H 	0.50514 0.62932 0.09488 0.07500
H 	H 	0.44954 0.63940 0.05572 0.06900
H 	H 	0.44645 0.57531 0.04115 0.06400
