data_crystal

_cell_length_a 27.44442
_cell_length_b 28.86190
_cell_length_c 30.80220
_cell_angle_alpha 61.20504
_cell_angle_beta  118.46885
_cell_angle_gamma 133.26618

_symmetry_space_group_name_	'P 1'
_symmetry_space_group_name_H-M	'P 1'

loop_
_symmetry_equiv_pos_as_xyz
  x,y,z

loop_
_atom_site_label
_atom_site_type_symbol
_atom_site_fract_x
_atom_site_fract_y
_atom_site_fract_z
_atom_site_charge
C 	C 	0.73902 0.32613 0.01035 0.14500
C 	C 	0.67923 0.27687 0.02934 -0.11000
C 	C 	0.64860 0.29382 0.03875 0.14300
C 	C 	0.67627 0.35978 0.02756 -0.09500
C 	C 	0.73640 0.40925 0.00933 0.14500
C 	C 	0.76776 0.39245 0.00048 -0.10800
H 	H 	0.65792 0.22573 0.03817 0.10200
H 	H 	0.65253 0.37273 0.03505 0.11100
H 	H 	0.81507 0.43062 0.98728 0.11700
C 	C 	0.73926 0.32923 0.54309 0.14400
C 	C 	0.75924 0.39135 0.53722 -0.10800
C 	C 	0.72110 0.39618 0.55113 0.13900
C 	C 	0.66456 0.33906 0.57198 -0.09300
C 	C 	0.64356 0.27734 0.57652 0.14400
C 	C 	0.68084 0.27237 0.56212 -0.10600
H 	H 	0.80385 0.43537 0.52196 0.10400
H 	H 	0.63579 0.34264 0.58357 0.11400
H 	H 	0.66477 0.22446 0.56598 0.11200
C 	C 	0.28406 0.62322 0.29657 0.13700
C 	C 	0.25751 0.55684 0.30807 -0.09700
C 	C 	0.29335 0.54154 0.30334 0.14900
C 	C 	0.36113 0.59136 0.29809 -0.12000
C 	C 	0.38489 0.65674 0.28111 0.14700
C 	C 	0.34640 0.67292 0.28024 -0.11100
H 	H 	0.20902 0.51760 0.31939 0.14500
H 	H 	0.39077 0.57901 0.29833 0.10900
H 	H 	0.36381 0.72344 0.26573 0.10900
C 	C 	0.26934 0.64618 0.76228 0.14100
C 	C 	0.33938 0.69506 0.76169 -0.09300
C 	C 	0.37791 0.67995 0.76114 0.14000
C 	C 	0.34807 0.61501 0.76597 -0.11000
C 	C 	0.27680 0.56801 0.75989 0.14700
C 	C 	0.23741 0.58292 0.75971 -0.09600
H 	H 	0.36279 0.74520 0.75909 0.11700
H 	H 	0.37873 0.60320 0.76715 0.10700
H 	H 	0.18228 0.54667 0.75563 0.11800
Co	Co	0.09016 0.96197 0.17686 1.19800
Co	Co	0.92152 0.97830 0.12408 1.19800
Co	Co	0.03856 0.01036 0.21341 1.19400
Co	Co	0.97453 0.93145 0.08795 1.19600
C 	C 	0.10658 0.85785 0.21302 0.35900
Co	Co	0.08229 0.90807 0.10132 1.18200
Co	Co	0.93105 0.03604 0.19796 1.17600
C 	C 	0.01343 0.95682 0.99745 0.31800
O 	O 	0.02679 0.09543 0.24093 -0.38300
O 	O 	0.96905 0.01020 0.17525 -0.75800
C 	C 	0.08368 0.13330 0.22571 0.36200
O 	O 	0.10883 0.99463 0.23233 -0.41600
O 	O 	0.89850 0.93796 0.07238 -0.39500
C 	C 	0.91757 0.09649 0.08677 0.34900
O 	O 	0.02044 0.99347 0.14064 -0.55200
C 	C 	0.96634 0.95757 0.29453 0.28900
C 	C 	0.20793 0.03767 0.12446 0.35400
C 	C 	0.93390 0.80113 0.09453 0.35500
O 	O 	0.10205 0.10830 0.21536 -0.35900
O 	O 	0.16356 0.00615 0.08773 -0.35300
O 	O 	0.18956 0.02482 0.16425 -0.35000
O 	O 	0.95251 0.10913 0.13208 -0.35300
O 	O 	0.90563 0.05039 0.07473 -0.33500
O 	O 	0.91461 0.95982 0.26219 -0.31900
O 	O 	0.00051 0.95202 0.28002 -0.31900
O 	O 	0.99534 0.81429 0.11676 -0.38200
O 	O 	0.91626 0.83001 0.10067 -0.34300
O 	O 	0.04942 0.94146 0.12097 -0.75200
C 	C 	0.80326 0.91554 0.16222 0.36700
O 	O 	0.83104 0.97611 0.15886 -0.37200
O 	O 	0.83709 0.90252 0.15638 -0.34900
O 	O 	0.13715 0.89375 0.17519 -0.38600
O 	O 	0.07329 0.87191 0.21830 -0.35100
O 	O 	0.02801 0.91446 0.02555 -0.36700
O 	O 	0.99966 0.97761 0.01735 -0.32200
Co	Co	0.06886 0.95967 0.66815 1.19700
Co	Co	0.92540 0.00870 0.61371 1.19200
Co	Co	0.04021 0.02868 0.70417 1.20500
Co	Co	0.95787 0.94449 0.57609 1.19000
C 	C 	0.03881 0.82623 0.70041 0.35400
Co	Co	0.03612 0.88841 0.59133 1.18300
Co	Co	0.95090 0.07380 0.69091 1.17600
C 	C 	0.01617 0.97472 0.49297 0.31000
O 	O 	0.04957 0.12629 0.73405 -0.36400
O 	O 	0.97661 0.03787 0.66633 -0.75700
C 	C 	0.10387 0.15825 0.71759 0.37400
O 	O 	0.09995 0.00098 0.72251 -0.39300
O 	O 	0.89409 0.96673 0.55978 -0.42800
C 	C 	0.93832 0.13570 0.58061 0.35600
O 	O 	0.01438 0.00749 0.63100 -0.54800
C 	C 	0.97477 0.98595 0.78628 0.28300
C 	C 	0.18013 0.99146 0.63784 0.37200
C 	C 	0.88441 0.81154 0.56736 0.36100
O 	O 	0.11416 0.12702 0.70650 -0.31700
O 	O 	0.13740 0.93062 0.63357 -0.39100
O 	O 	0.16254 0.01475 0.65102 -0.34300
O 	O 	0.97699 0.14736 0.62579 -0.34500
O 	O 	0.92165 0.08875 0.56621 -0.35000
O 	O 	0.92811 0.99618 0.75434 -0.36100
O 	O 	0.00077 0.97295 0.77018 -0.29200
O 	O 	0.93591 0.84012 0.54896 -0.39700
O 	O 	0.88654 0.84337 0.58849 -0.36900
O 	O 	0.02380 0.93901 0.61179 -0.74200
C 	C 	0.81376 0.95930 0.65298 0.35900
O 	O 	0.84886 0.02122 0.65145 -0.37400
O 	O 	0.84008 0.94001 0.64508 -0.38400
O 	O 	0.00442 0.81422 0.65511 -0.34000
O 	O 	0.04326 0.86681 0.71352 -0.35200
O 	O 	0.06314 0.96660 0.52855 -0.31500
O 	O 	0.97781 0.97882 0.50421 -0.33700
C 	C 	0.92943 0.94724 0.85976 0.06200
C 	C 	0.98497 0.97371 0.84223 0.00500
C 	C 	0.05146 0.99980 0.87552 -0.07100
C 	C 	0.06100 0.00202 0.92407 0.04400
C 	C 	0.00542 0.97530 0.94144 0.03100
C 	C 	0.93945 0.95035 0.90806 -0.10400
C 	C 	0.88046 0.92999 0.92273 0.78400
H 	H 	0.87851 0.92606 0.83488 0.10100
H 	H 	0.11131 0.02113 0.94985 0.10200
C 	C 	0.11121 0.02096 0.86128 0.77600
F 	F 	0.82151 0.91094 0.88397 -0.40700
F 	F 	0.89886 0.98226 0.93339 -0.41900
F 	F 	0.86506 0.87797 0.96523 -0.44600
F 	F 	0.12442 0.07092 0.81752 -0.45700
F 	F 	0.09554 0.96822 0.85355 -0.41600
F 	F 	0.17091 0.04374 0.89914 -0.41200
C 	C 	0.04519 0.00947 0.36811 0.06600
C 	C 	0.98246 0.95587 0.34866 -0.00200
C 	C 	0.93066 0.90876 0.37686 -0.08200
C 	C 	0.93990 0.92014 0.42087 0.03500
C 	C 	0.00231 0.97402 0.44011 0.02600
C 	C 	0.05493 0.02035 0.41266 -0.09600
C 	C 	0.12188 0.08082 0.43100 0.78500
H 	H 	0.08537 0.04446 0.34720 0.07600
H 	H 	0.89928 0.88552 0.44133 0.08100
C 	C 	0.86457 0.84715 0.35966 0.78200
F 	F 	0.15592 0.12880 0.39218 -0.42200
F 	F 	0.16422 0.06398 0.47005 -0.40600
F 	F 	0.10950 0.10739 0.44836 -0.41000
F 	F 	0.87685 0.82433 0.33826 -0.39800
F 	F 	0.81811 0.86060 0.32423 -0.42200
F 	F 	0.83550 0.79758 0.40035 -0.41600
C 	C 	0.19117 0.39257 0.76816 -0.10800
C 	C 	0.21319 0.40179 0.72987 0.00800
C 	C 	0.24659 0.46419 0.69697 0.31400
C 	C 	0.25902 0.51667 0.70307 -0.09000
C 	C 	0.24344 0.50897 0.74449 -0.06900
C 	C 	0.20753 0.44619 0.77616 0.34600
C 	C 	0.20081 0.34596 0.72412 0.02700
F 	F 	0.26986 0.47470 0.66061 -0.40000
H 	H 	0.28553 0.56469 0.67779 0.13000
F 	F 	0.19115 0.43757 0.81592 -0.40900
H 	H 	0.16302 0.34423 0.79254 0.14500
C 	C 	0.21865 0.30614 0.76651 0.29700
C 	C 	0.19565 0.24711 0.76272 -0.04300
C 	C 	0.15611 0.22825 0.71642 -0.12500
C 	C 	0.14921 0.27352 0.67248 0.37900
C 	C 	0.16831 0.33058 0.67658 -0.12600
F 	F 	0.25588 0.32333 0.81171 -0.39300
H 	H 	0.20377 0.21367 0.79664 0.14300
F 	F 	0.11815 0.25926 0.62641 -0.38700
H 	H 	0.15559 0.36144 0.64323 0.16200
C 	C 	0.49684 0.78342 0.67431 -0.12700
C 	C 	0.56043 0.80359 0.70936 0.00900
C 	C 	0.56500 0.79126 0.76078 0.32800
C 	C 	0.50551 0.75501 0.77737 -0.08600
C 	C 	0.44152 0.73228 0.74259 -0.07200
C 	C 	0.43791 0.74890 0.69067 0.34800
C 	C 	0.62248 0.84018 0.69154 0.02900
F 	F 	0.62684 0.81389 0.79462 -0.37200
H 	H 	0.50879 0.74262 0.81747 0.12600
F 	F 	0.37633 0.72780 0.65656 -0.40700
H 	H 	0.49296 0.79368 0.63446 0.13200
C 	C 	0.66132 0.81606 0.71140 0.30900
C 	C 	0.72170 0.85276 0.69578 -0.04500
C 	C 	0.74293 0.91308 0.65966 -0.14100
C 	C 	0.70087 0.93423 0.63689 0.38800
C 	C 	0.64176 0.89857 0.65341 -0.14600
F 	F 	0.64099 0.75758 0.74611 -0.38100
H 	H 	0.75335 0.83565 0.71326 0.11300
F 	F 	0.71865 0.99061 0.59987 -0.41800
H 	H 	0.61128 0.91677 0.63699 0.13900
C 	C 	0.06421 0.69580 0.75735 -0.13900
C 	C 	0.13569 0.73487 0.76425 0.03400
C 	C 	0.17533 0.80104 0.76397 0.29300
C 	C 	0.14294 0.82941 0.75105 -0.05000
C 	C 	0.07090 0.79240 0.73691 -0.13300
C 	C 	0.03189 0.72431 0.74412 0.39700
C 	C 	0.16729 0.70954 0.76350 0.00600
F 	F 	0.24485 0.83884 0.77280 -0.39300
H 	H 	0.17373 0.88158 0.74716 0.09900
F 	F 	0.96222 0.68693 0.73353 -0.39900
H 	H 	0.03331 0.64425 0.75901 0.14900
C 	C 	0.18042 0.66748 0.80709 0.32200
C 	C 	0.21105 0.64438 0.80600 -0.08600
C 	C 	0.22859 0.66301 0.76138 -0.06900
C 	C 	0.21361 0.70358 0.71744 0.34500
C 	C 	0.18323 0.72676 0.71857 -0.11200
F 	F 	0.16456 0.64986 0.85062 -0.38900
H 	H 	0.22257 0.61327 0.84012 0.12600
F 	F 	0.22965 0.72146 0.67390 -0.40100
H 	H 	0.17244 0.75848 0.68459 0.13100
C 	C 	0.13828 0.29919 0.20560 -0.13100
C 	C 	0.18609 0.31493 0.25167 0.02700
C 	C 	0.21026 0.27645 0.28429 0.30600
C 	C 	0.18246 0.21992 0.27267 -0.03500
C 	C 	0.13149 0.20222 0.22803 -0.13700
C 	C 	0.11334 0.24476 0.19299 0.38300
C 	C 	0.21144 0.37244 0.26494 0.01200
F 	F 	0.25962 0.29308 0.32750 -0.37500
H 	H 	0.19773 0.18802 0.29967 0.13200
F 	F 	0.06790 0.23092 0.14801 -0.42700
H 	H 	0.11957 0.32860 0.17987 0.15300
C 	C 	0.23627 0.43354 0.22948 0.31000
C 	C 	0.25522 0.48641 0.24022 -0.08300
C 	C 	0.25551 0.48096 0.28819 -0.07200
C 	C 	0.23032 0.41994 0.32372 0.35300
C 	C 	0.20706 0.36552 0.31170 -0.11100
F 	F 	0.24368 0.44211 0.18508 -0.39800
H 	H 	0.27395 0.53315 0.21236 0.11300
F 	F 	0.22998 0.41369 0.37017 -0.40000
H 	H 	0.18630 0.31828 0.33884 0.15900
C 	C 	0.65578 0.77780 0.22508 -0.13100
C 	C 	0.61070 0.79573 0.19632 0.02400
C 	C 	0.62337 0.84419 0.15046 0.31600
C 	C 	0.68274 0.87714 0.13531 -0.05300
C 	C 	0.73156 0.86425 0.16685 -0.12400
C 	C 	0.71601 0.81186 0.21033 0.39300
C 	C 	0.55239 0.76624 0.21555 0.01100
F 	F 	0.58026 0.86201 0.12211 -0.38100
H 	H 	0.69355 0.91648 0.10104 0.14300
F 	F 	0.76148 0.79710 0.24023 -0.37400
H 	H 	0.64546 0.73919 0.25981 0.15100
C 	C 	0.48458 0.73030 0.18744 0.32700
C 	C 	0.42963 0.70107 0.20645 -0.08800
C 	C 	0.44158 0.70498 0.25467 -0.07800
C 	C 	0.50938 0.74346 0.28170 0.35000
C 	C 	0.56458 0.77426 0.26207 -0.12600
F 	F 	0.47186 0.72145 0.14271 -0.38100
H 	H 	0.37743 0.67139 0.18537 0.11700
F 	F 	0.52171 0.74818 0.32814 -0.41200
H 	H 	0.61677 0.80309 0.28352 0.13800
C 	C 	0.16222 0.75203 0.31199 -0.12200
C 	C 	0.14410 0.71654 0.28112 0.02200
C 	C 	0.09696 0.71505 0.23387 0.29700
C 	C 	0.07235 0.75157 0.21681 -0.05200
C 	C 	0.10060 0.79649 0.24309 -0.12300
C 	C 	0.14220 0.79340 0.29245 0.38200
C 	C 	0.17891 0.68606 0.29586 0.00700
F 	F 	0.07933 0.68270 0.20250 -0.39300
H 	H 	0.03722 0.75046 0.18011 0.12000
F 	F 	0.16737 0.83382 0.31990 -0.40500
H 	H 	0.19457 0.75024 0.34994 0.15500
C 	C 	0.25107 0.72213 0.31206 0.31100
C 	C 	0.28406 0.69791 0.31700 -0.08700
C 	C 	0.24663 0.64119 0.30062 -0.06500
C 	C 	0.17431 0.60480 0.28496 0.34600
C 	C 	0.14088 0.62455 0.28673 -0.10600
F 	F 	0.28960 0.78207 0.32049 -0.40300
H 	H 	0.33930 0.72509 0.33125 0.12000
F 	F 	0.13679 0.55355 0.26443 -0.41000
H 	H 	0.08521 0.59429 0.27714 0.15400
C 	C 	0.93051 0.27799 0.52383 -0.12300
C 	C 	0.86104 0.24478 0.52062 0.01600
C 	C 	0.81496 0.17702 0.52369 0.30600
C 	C 	0.83971 0.14202 0.53563 -0.05700
C 	C 	0.91061 0.17387 0.54645 -0.12200
C 	C 	0.95527 0.24269 0.53669 0.36800
C 	C 	0.83888 0.27857 0.52192 0.00700
F 	F 	0.74713 0.14436 0.51893 -0.39300
H 	H 	0.80444 0.08930 0.54080 0.13600
F 	F 	0.02327 0.27492 0.54266 -0.37500
H 	H 	0.96602 0.33063 0.51944 0.13500
C 	C 	0.86430 0.30009 0.56536 0.30900
C 	C 	0.83575 0.32266 0.57005 -0.08800
C 	C 	0.78106 0.32316 0.53187 -0.07500
C 	C 	0.75866 0.30571 0.48702 0.34600
C 	C 	0.78771 0.28377 0.48201 -0.11200
F 	F 	0.91396 0.29566 0.60422 -0.41600
H 	H 	0.85349 0.33623 0.60468 0.11200
F 	F 	0.70645 0.30690 0.44943 -0.40600
H 	H 	0.76860 0.26840 0.44800 0.14200
C 	C 	0.69967 0.52464 0.52188 -0.11100
C 	C 	0.76186 0.56808 0.55073 0.01100
C 	C 	0.81439 0.55954 0.57398 0.31000
C 	C 	0.80289 0.50565 0.57108 -0.08600
C 	C 	0.73961 0.46075 0.54393 -0.07000
C 	C 	0.68931 0.47239 0.51729 0.34600
C 	C 	0.77275 0.62359 0.55538 0.02000
F 	F 	0.87629 0.60317 0.59966 -0.41000
H 	H 	0.84226 0.49756 0.59138 0.11000
F 	F 	0.62915 0.43127 0.48873 -0.40600
H 	H 	0.65912 0.53107 0.50334 0.14900
C 	C 	0.76842 0.67059 0.51168 0.30300
C 	C 	0.79259 0.72950 0.51648 -0.04200
C 	C 	0.82543 0.74370 0.56444 -0.13800
C 	C 	0.81965 0.69288 0.60817 0.38300
C 	C 	0.79350 0.63293 0.60365 -0.12500
F 	F 	0.74599 0.66152 0.46462 -0.37300
H 	H 	0.79353 0.76732 0.48250 0.12700
F 	F 	0.84650 0.70410 0.65506 -0.39800
H 	H 	0.79341 0.59546 0.63764 0.15000
C 	C 	0.51036 0.15894 0.65375 -0.11600
C 	C 	0.45042 0.13197 0.61584 0.01100
C 	C 	0.45532 0.14356 0.56780 0.31900
C 	C 	0.51972 0.18649 0.55645 -0.08400
C 	C 	0.57949 0.21826 0.59291 -0.07100
C 	C 	0.57478 0.20174 0.64244 0.34500
C 	C 	0.38332 0.09745 0.62472 0.02900
F 	F 	0.39755 0.11571 0.53141 -0.38500
H 	H 	0.52298 0.19824 0.51837 0.13000
F 	F 	0.63248 0.23044 0.67858 -0.41200
H 	H 	0.50693 0.14905 0.69126 0.14000
C 	C 	0.35048 0.03296 0.65463 0.30000
C 	C 	0.28512 0.99928 0.66067 -0.03500
C 	C 	0.25208 0.02978 0.63683 -0.14100
C 	C 	0.28595 0.09508 0.60826 0.40000
C 	C 	0.35138 0.12875 0.60231 -0.13000
F 	F 	0.38128 0.00250 0.67689 -0.38700
H 	H 	0.25960 0.94907 0.68313 0.11800
F 	F 	0.25433 0.12493 0.58453 -0.38800
H 	H 	0.37682 0.17880 0.57953 0.15000
C 	C 	0.80025 0.14653 0.01543 -0.13500
C 	C 	0.84844 0.21476 0.00931 0.02800
C 	C 	0.91795 0.24393 0.01636 0.29700
C 	C 	0.94008 0.20459 0.03599 -0.04400
C 	C 	0.89291 0.13601 0.04830 -0.12800
C 	C 	0.82236 0.10731 0.03438 0.37700
C 	C 	0.82825 0.25328 0.00490 0.00600
F 	F 	0.96464 0.31014 0.00754 -0.39300
H 	H 	0.99447 0.22729 0.04497 0.13200
F 	F 	0.77580 0.04107 0.04385 -0.42400
H 	H 	0.74624 0.12355 0.00890 0.14500
C 	C 	0.77619 0.25585 0.96391 0.31500
C 	C 	0.74940 0.28293 0.96440 -0.08300
C 	C 	0.77486 0.30817 0.00552 -0.08100
C 	C 	0.82953 0.30902 0.04498 0.34600
C 	C 	0.85589 0.28148 0.04475 -0.11600
F 	F 	0.75030 0.23049 0.92440 -0.39700
H 	H 	0.70752 0.28255 0.93362 0.11600
F 	F 	0.85489 0.33373 0.08476 -0.41300
H 	H 	0.89599 0.27973 0.07656 0.13500
C 	C 	0.75384 0.56022 0.98339 -0.10900
C 	C 	0.81027 0.58813 0.02289 0.00600
C 	C 	0.85050 0.56469 0.05052 0.31500
C 	C 	0.83053 0.50985 0.04188 -0.08500
C 	C 	0.77033 0.47807 0.00563 -0.07400
C 	C 	0.73442 0.50590 0.97430 0.34800
C 	C 	0.82587 0.64022 0.03656 0.02400
F 	F 	0.90748 0.59360 0.08700 -0.39500
H 	H 	0.85928 0.48949 0.06565 0.12800
F 	F 	0.67785 0.47740 0.93748 -0.40900
H 	H 	0.72370 0.57921 0.96091 0.14600
C 	C 	0.85166 0.70301 0.00372 0.30200
C 	C 	0.87893 0.75525 0.02079 -0.05000
C 	C 	0.88151 0.74538 0.07093 -0.12200
C 	C 	0.84916 0.68139 0.10185 0.38500
C 	C 	0.82127 0.62893 0.08463 -0.12800
F 	F 	0.85476 0.71431 0.95661 -0.39200
H 	H 	0.90361 0.80436 0.99658 0.13100
F 	F 	0.84988 0.67085 0.15005 -0.40900
H 	H 	0.79946 0.58014 0.10965 0.14100
C 	C 	0.36768 0.16799 0.07463 -0.13000
C 	C 	0.40773 0.14489 0.10731 0.02400
C 	C 	0.38677 0.09383 0.15085 0.29900
C 	C 	0.32388 0.06319 0.15956 -0.04800
C 	C 	0.28097 0.08240 0.12433 -0.13300
C 	C 	0.30428 0.13657 0.08287 0.38600
C 	C 	0.46988 0.17242 0.09460 0.01000
F 	F 	0.42565 0.07179 0.18329 -0.39600
H 	H 	0.30638 0.02161 0.19183 0.11600
F 	F 	0.26391 0.15661 0.04919 -0.41000
H 	H 	0.38456 0.20874 0.04181 0.14500
C 	C 	0.46475 0.16733 0.04923 0.31300
C 	C 	0.52414 0.20278 0.03296 -0.09000
C 	C 	0.58889 0.24297 0.06207 -0.07300
C 	C 	0.59417 0.24279 0.10984 0.34400
C 	C 	0.53481 0.20823 0.12573 -0.11600
F 	F 	0.40216 0.13008 0.02002 -0.39300
H 	H 	0.51967 0.20173 0.99649 0.12200
F 	F 	0.65680 0.27933 0.13938 -0.41100
H 	H 	0.53924 0.21132 0.16128 0.14200
