data_crystal

_cell_length_a 26.18231
_cell_length_b 27.37321
_cell_length_c 37.13855
_cell_angle_alpha 60.85531
_cell_angle_beta  118.84145
_cell_angle_gamma 133.29465

_symmetry_space_group_name_	'P 1'
_symmetry_space_group_name_H-M	'P 1'

loop_
_symmetry_equiv_pos_as_xyz
  x,y,z

loop_
_atom_site_label
_atom_site_type_symbol
_atom_site_fract_x
_atom_site_fract_y
_atom_site_fract_z
_atom_site_charge
Co	Co	0.01655 0.07608 0.10501 1.17700
O 	O 	0.01003 0.92835 0.08394 -0.75300
Co	Co	0.02431 0.07684 0.60598 1.17700
O 	O 	0.03248 0.93351 0.59142 -0.75300
C 	C 	0.99263 0.01054 0.87982 0.07700
C 	C 	0.98749 0.95614 0.78292 0.06100
C 	C 	0.05237 0.03462 0.39176 0.02900
C 	C 	0.03417 0.97444 0.29297 0.03400
O 	O 	0.00152 0.01195 0.99950 -0.39900
O 	O 	0.02470 0.97478 0.22461 -0.37700
C 	C 	0.05146 0.99872 0.49642 0.34800
O 	O 	0.04417 0.02714 0.51229 -0.41600
O 	O 	0.99669 0.96179 0.71895 -0.37500
C 	C 	0.02907 0.00665 0.45034 -0.07500
O 	O 	0.06679 0.13144 0.18987 -0.39400
N 	N 	0.01343 0.02945 0.91462 -0.17300
O 	O 	0.08903 0.97363 0.52001 -0.40500
O 	O 	0.03956 0.12224 0.68466 -0.39500
C 	C 	0.02264 0.98842 0.83993 0.10500
C 	C 	0.07810 0.01197 0.34959 -0.02600
N 	N 	0.07661 0.05806 0.42525 -0.13300
C 	C 	0.09030 0.03116 0.31088 -0.07300
Co	Co	0.04091 0.01159 0.06439 1.17300
Co	Co	0.03379 0.89157 0.06025 1.16500
O 	O 	0.05926 0.09838 0.06120 -0.47700
C 	C 	0.10975 0.17176 0.16363 0.26600
C 	C 	0.08596 0.85202 0.15297 0.26600
O 	O 	0.10904 0.14504 0.14153 -0.39400
O 	O 	0.10558 0.88544 0.11687 -0.37900
O 	O 	0.06520 0.87234 0.16572 -0.38300
O 	O 	0.11782 0.99062 0.03714 -0.37100
Co	Co	0.07153 0.01865 0.57696 1.17400
Co	Co	0.06441 0.89546 0.57535 1.16700
O 	O 	0.08865 0.10460 0.57403 -0.47500
C 	C 	0.09277 0.16313 0.66559 0.26700
C 	C 	0.06738 0.82325 0.66696 0.27600
O 	O 	0.10291 0.13711 0.64959 -0.39500
O 	O 	0.04510 0.81414 0.62922 -0.40100
O 	O 	0.06070 0.86284 0.67215 -0.38900
C 	C 	0.04177 0.03340 0.85960 -0.15200
C 	C 	0.04252 0.00957 0.80367 -0.15000
H 	H 	0.09338 0.08382 0.85977 0.06500
H 	H 	0.07697 0.06331 0.78774 0.06700
H 	H 	0.06727 0.06362 0.92878 0.08300
C 	C 	0.09784 0.05825 0.36845 -0.06400
H 	H 	0.14678 0.11062 0.36517 0.04500
H 	H 	0.11919 0.08427 0.29249 0.04700
H 	H 	0.13075 0.09618 0.43631 0.07800
H 	H 	0.15361 0.29535 0.60898 0.04200
N 	N 	0.04707 0.71066 0.70590 -0.15400
C 	C 	0.08609 0.77850 0.70391 0.00000
H 	H 	0.03221 0.60373 0.70375 0.05300
H 	H 	0.99979 0.68537 0.68354 0.09000
C 	C 	0.09389 0.66153 0.18901 -0.08100
C 	C 	0.10940 0.72428 0.18394 0.01100
C 	C 	0.09773 0.79855 0.18166 0.00300
C 	C 	0.06068 0.73872 0.16929 -0.05100
H 	H 	0.04550 0.62551 0.17011 0.05200
H 	H 	0.01392 0.72147 0.14313 0.04800
C 	C 	0.08344 0.64071 0.72098 -0.09000
C 	C 	0.15314 0.23180 0.67437 0.00100
H 	H 	0.18810 0.22189 0.23503 0.08700
H 	H 	0.18435 0.52699 0.21426 0.04100
H 	H 	0.17369 0.53634 0.70497 0.04000
C 	C 	0.16636 0.03529 0.06086 0.24300
O 	O 	0.14602 0.04493 0.08159 -0.39800
C 	C 	0.20231 0.02410 0.59986 0.23400
O 	O 	0.16964 0.95765 0.60666 -0.35700
O 	O 	0.17547 0.04546 0.60624 -0.39200
C 	C 	0.22259 0.40795 0.64009 -0.08200
C 	C 	0.21546 0.34536 0.66127 0.01000
C 	C 	0.21015 0.31433 0.70337 0.07700
C 	C 	0.21493 0.34654 0.72619 -0.09000
N 	N 	0.17182 0.24524 0.71112 -0.15100
C 	C 	0.17852 0.29267 0.64251 -0.04600
H 	H 	0.21380 0.42618 0.60589 0.05200
H 	H 	0.20042 0.31892 0.75651 0.05300
H 	H 	0.14420 0.20946 0.73541 0.08600
C 	C 	0.16103 0.74835 0.74178 0.01100
C 	C 	0.09238 0.69229 0.72830 0.07900
C 	C 	0.14428 0.64222 0.73348 0.02600
C 	C 	0.15246 0.61392 0.71592 -0.09000
C 	C 	0.15737 0.80365 0.72601 -0.04200
H 	H 	0.11108 0.58386 0.69249 0.05200
C 	C 	0.22885 0.35451 0.15525 0.01000
N 	N 	0.20493 0.25748 0.20698 -0.15100
C 	C 	0.17268 0.24185 0.16897 0.00200
C 	C 	0.18585 0.30074 0.13606 -0.04600
H 	H 	0.20810 0.42818 0.10433 0.05200
H 	H 	0.15016 0.29994 0.10474 0.04200
C 	C 	0.14605 0.64932 0.21721 0.07000
C 	C 	0.17143 0.77153 0.20663 0.08200
N 	N 	0.15959 0.61595 0.20983 -0.16900
N 	N 	0.16435 0.81606 0.20624 -0.15100
H 	H 	0.13078 0.59417 0.18389 0.08300
H 	H 	0.20290 0.85738 0.71889 0.05200
C 	C 	0.23920 0.32589 0.19887 0.07700
Co	Co	0.98081 0.88194 0.12930 1.18600
C 	C 	0.97622 0.96365 0.98264 0.29300
O 	O 	0.96086 0.90215 0.00613 -0.38900
C 	C 	0.00599 0.98393 0.24677 0.26400
C 	C 	0.96984 0.96940 0.73654 0.25900
C 	C 	0.74174 0.30317 0.05291 -0.00900
C 	C 	0.67591 0.24293 0.06408 -0.04200
C 	C 	0.63902 0.24623 0.07940 -0.00900
C 	C 	0.67006 0.30850 0.08630 -0.04300
C 	C 	0.73598 0.36852 0.07601 -0.00800
C 	C 	0.77154 0.36600 0.05902 -0.04300
H 	H 	0.65271 0.19398 0.06024 0.03700
H 	H 	0.64012 0.31146 0.09664 0.04200
H 	H 	0.82093 0.41315 0.04932 0.04200
C 	C 	0.73860 0.30188 0.52641 -0.00900
C 	C 	0.67492 0.24463 0.54104 -0.04200
C 	C 	0.64791 0.25303 0.56065 -0.01000
C 	C 	0.68659 0.31709 0.56827 -0.04200
C 	C 	0.74973 0.37420 0.55395 -0.00900
C 	C 	0.77487 0.36703 0.53228 -0.04300
H 	H 	0.64594 0.19406 0.53700 0.03600
H 	H 	0.66490 0.32355 0.58288 0.04300
H 	H 	0.82169 0.41231 0.51933 0.04200
C 	C 	0.27096 0.63393 0.21732 -0.00700
C 	C 	0.34247 0.68985 0.21324 -0.04200
C 	C 	0.38221 0.68159 0.20446 -0.00800
C 	C 	0.34877 0.61977 0.19580 -0.04300
C 	C 	0.27751 0.56411 0.19918 -0.00800
C 	C 	0.23882 0.57078 0.21047 -0.04300
H 	H 	0.36743 0.73935 0.21718 0.04300
H 	H 	0.37903 0.61409 0.18787 0.04400
C 	C 	0.26122 0.64489 0.70389 -0.00700
C 	C 	0.22660 0.57971 0.69849 -0.04400
C 	C 	0.26145 0.57022 0.68582 -0.00700
C 	C 	0.33167 0.62497 0.67998 -0.04300
C 	C 	0.36758 0.68875 0.68708 -0.00800
C 	C 	0.33110 0.69989 0.69662 -0.04000
H 	H 	0.35965 0.61694 0.67181 0.04300
H 	H 	0.35783 0.75077 0.69926 0.04300
Co	Co	0.95434 0.94632 0.16813 1.19700
Co	Co	0.95576 0.06367 0.17024 1.15800
C 	C 	0.89231 0.76859 0.08527 0.27600
O 	O 	0.96135 0.14291 0.11634 -0.39900
O 	O 	0.97110 0.02385 0.14328 -0.78800
C 	C 	0.94091 0.14028 0.07688 0.27500
O 	O 	0.94821 0.86362 0.17695 -0.46600
C 	C 	0.81598 0.92494 0.15546 0.26300
O 	O 	0.97182 0.96964 0.10609 -0.56500
O 	O 	0.94911 0.10654 0.06661 -0.38800
O 	O 	0.84672 0.99165 0.14807 -0.36500
O 	O 	0.85446 0.89979 0.17557 -0.37100
O 	O 	0.95478 0.99277 0.22850 -0.37300
O 	O 	0.95343 0.78908 0.08315 -0.39800
O 	O 	0.89180 0.79484 0.10685 -0.38100
Co	Co	0.94193 0.94064 0.65966 1.19500
Co	Co	0.98435 0.88059 0.62864 1.18800
Co	Co	0.93302 0.05527 0.65571 1.15700
C 	C 	0.90770 0.78701 0.57013 0.26900
O 	O 	0.94883 0.13677 0.60179 -0.39900
O 	O 	0.96268 0.01997 0.63541 -0.78400
C 	C 	0.93781 0.13452 0.56393 0.27200
O 	O 	0.93702 0.85785 0.66993 -0.46700
C 	C 	0.79770 0.91795 0.63698 0.26700
O 	O 	0.98264 0.97288 0.60485 -0.56300
O 	O 	0.96741 0.11549 0.55816 -0.38300
O 	O 	0.82988 0.98555 0.62545 -0.37200
O 	O 	0.83451 0.89115 0.65591 -0.37200
O 	O 	0.92013 0.98036 0.71318 -0.37700
O 	O 	0.95591 0.83751 0.54696 -0.38400
O 	O 	0.90401 0.79739 0.60011 -0.37100
C 	C 	0.95651 0.92383 0.83957 0.05500
C 	C 	0.90723 0.90127 0.85948 -0.07500
C 	C 	0.92600 0.94636 0.87884 0.02900
C 	C 	0.96070 0.97750 0.93623 0.02800
C 	C 	0.90542 0.92502 0.91476 -0.05300
N 	N 	0.93565 0.90423 0.80512 -0.15500
H 	H 	0.85563 0.85084 0.85931 0.05300
H 	H 	0.86928 0.87127 0.92993 0.05300
H 	H 	0.88185 0.86896 0.79154 0.09000
C 	C 	0.01529 0.94482 0.35367 0.11200
C 	C 	0.97040 0.92112 0.37745 -0.09700
C 	C 	0.98908 0.96795 0.39525 0.04800
C 	C 	0.97407 0.94967 0.43266 -0.00200
N 	N 	0.98943 0.92204 0.31955 -0.15700
H 	H 	0.92148 0.86873 0.38082 0.05800
H 	H 	0.94354 0.89679 0.45095 0.03900
H 	H 	0.93516 0.88305 0.30948 0.09100
C 	C 	0.23804 0.44408 0.66489 0.07000
C 	C 	0.23589 0.41471 0.70710 0.02400
N 	N 	0.23058 0.49516 0.64928 -0.16900
C 	C 	0.22733 0.50141 0.68210 0.07200
C 	C 	0.22632 0.44907 0.71811 -0.08800
H 	H 	0.23911 0.44988 0.75033 0.05300
H 	H 	0.24477 0.53375 0.62142 0.08300
C 	C 	0.53801 0.81740 0.66135 0.07200
C 	C 	0.56959 0.85404 0.62675 -0.08100
C 	C 	0.61337 0.84134 0.62696 0.01100
C 	C 	0.62567 0.79428 0.66047 0.08000
C 	C 	0.59539 0.75897 0.69544 -0.09000
C 	C 	0.55304 0.77280 0.69578 0.02700
N 	N 	0.47265 0.79768 0.65765 -0.16800
C 	C 	0.44582 0.74080 0.68960 0.07700
C 	C 	0.49455 0.72415 0.71405 -0.08900
N 	N 	0.68955 0.81149 0.66387 -0.15200
C 	C 	0.71927 0.87024 0.63348 0.00600
C 	C 	0.67348 0.89058 0.60987 -0.04500
H 	H 	0.55945 0.89014 0.60036 0.05600
H 	H 	0.60545 0.72278 0.72181 0.05600
H 	H 	0.47936 0.67255 0.73265 0.05500
H 	H 	0.69127 0.94341 0.59313 0.05500
H 	H 	0.44070 0.80880 0.62916 0.08700
H 	H 	0.71939 0.79682 0.69191 0.09200
C 	C 	0.21298 0.69833 0.74691 0.07100
C 	C 	0.22279 0.75479 0.74830 -0.08000
N 	N 	0.26282 0.70471 0.73920 -0.16800
C 	C 	0.22638 0.65393 0.72007 0.07600
H 	H 	0.27594 0.80331 0.75154 0.05600
H 	H 	0.31569 0.74916 0.73878 0.08500
C 	C 	0.25247 0.35657 0.22657 -0.09000
C 	C 	0.26477 0.42127 0.20939 0.02400
C 	C 	0.25233 0.44850 0.16613 0.07000
C 	C 	0.22880 0.41303 0.13791 -0.08200
N 	N 	0.23875 0.49337 0.15634 -0.16900
C 	C 	0.24560 0.49758 0.19354 0.07200
C 	C 	0.25792 0.45018 0.22709 -0.08900
H 	H 	0.24956 0.32958 0.25941 0.05300
H 	H 	0.28029 0.45229 0.26002 0.05300
H 	H 	0.24331 0.53124 0.12784 0.08400
C 	C 	0.55331 0.81512 0.18033 0.07300
C 	C 	0.58532 0.85397 0.14572 -0.08100
C 	C 	0.63016 0.84336 0.14499 0.01200
C 	C 	0.64321 0.79626 0.17772 0.08000
C 	C 	0.61248 0.75871 0.21273 -0.09000
C 	C 	0.56897 0.77036 0.21398 0.02700
N 	N 	0.48725 0.79358 0.17684 -0.16800
C 	C 	0.46046 0.73527 0.20804 0.07700
C 	C 	0.51009 0.71972 0.23195 -0.08900
N 	N 	0.70785 0.81536 0.18083 -0.15200
C 	C 	0.73738 0.87539 0.15115 0.00700
C 	C 	0.69054 0.89450 0.12816 -0.04500
H 	H 	0.57465 0.89014 0.11994 0.05700
H 	H 	0.62307 0.72245 0.23847 0.05600
H 	H 	0.49564 0.66808 0.24969 0.05400
H 	H 	0.70751 0.94726 0.11224 0.05700
H 	H 	0.45521 0.80498 0.14857 0.08700
H 	H 	0.73790 0.80053 0.20858 0.09400
C 	C 	0.22179 0.75825 0.23686 -0.09000
C 	C 	0.20795 0.69591 0.24178 0.02800
C 	C 	0.22954 0.64077 0.22910 0.07600
C 	C 	0.26099 0.68993 0.24969 -0.08800
H 	H 	0.27086 0.79571 0.25467 0.05900
H 	H 	0.31831 0.72897 0.25875 0.05500
H 	H 	0.20773 0.86507 0.21208 0.09300
C 	C 	0.89879 0.25543 0.49581 0.08100
C 	C 	0.90682 0.31038 0.49773 -0.09200
C 	C 	0.84451 0.30565 0.48668 0.02800
C 	C 	0.77610 0.24486 0.47908 0.06700
C 	C 	0.76823 0.18701 0.48191 -0.08100
C 	C 	0.83040 0.19492 0.48759 0.00700
N 	N 	0.94755 0.24143 0.51942 -0.15100
C 	C 	0.91110 0.17252 0.52686 0.00200
C 	C 	0.83814 0.14175 0.50777 -0.04600
N 	N 	0.72870 0.23913 0.48890 -0.16900
C 	C 	0.76647 0.29512 0.50351 0.07500
C 	C 	0.83868 0.33760 0.50260 -0.09000
H 	H 	0.95904 0.35248 0.51072 0.05600
H 	H 	0.71665 0.13651 0.48311 0.04700
H 	H 	0.79559 0.08828 0.51902 0.03800
H 	H 	0.88288 0.37247 0.52311 0.05400
H 	H 	0.99645 0.27202 0.53902 0.08800
H 	H 	0.67844 0.19314 0.49399 0.07800
C 	C 	0.85390 0.62326 0.58496 0.07900
C 	C 	0.82849 0.55433 0.60610 -0.09000
C 	C 	0.79324 0.50880 0.58143 0.02700
C 	C 	0.78419 0.53121 0.53762 0.07000
C 	C 	0.80899 0.60016 0.51658 -0.07800
C 	C 	0.84562 0.64579 0.54145 0.00700
N 	N 	0.86199 0.66502 0.59949 -0.15200
C 	C 	0.86213 0.71643 0.56563 0.00100
C 	C 	0.84837 0.70385 0.52863 -0.04400
N 	N 	0.78023 0.49172 0.52344 -0.16900
C 	C 	0.78503 0.44306 0.55760 0.07600
C 	C 	0.79582 0.45389 0.59438 -0.09000
H 	H 	0.83603 0.53694 0.64025 0.05500
H 	H 	0.80221 0.61796 0.48248 0.05200
H 	H 	0.85897 0.74185 0.49864 0.04800
H 	H 	0.78919 0.41687 0.62493 0.05300
H 	H 	0.88394 0.66805 0.63108 0.08800
H 	H 	0.75938 0.48843 0.49195 0.08400
C 	C 	0.49712 0.16473 0.59645 0.06700
C 	C 	0.45303 0.12123 0.62533 -0.08000
C 	C 	0.37864 0.08895 0.60862 0.00400
C 	C 	0.34998 0.10077 0.56521 0.07700
C 	C 	0.39407 0.14327 0.53645 -0.09200
C 	C 	0.46830 0.17583 0.55322 0.02700
N 	N 	0.56056 0.17704 0.60496 -0.16900
C 	C 	0.57414 0.19867 0.56705 0.07200
C 	C 	0.51556 0.19484 0.53429 -0.09100
N 	N 	0.28875 0.09238 0.55672 -0.15600
C 	C 	0.27609 0.07276 0.59444 0.00500
C 	C 	0.33270 0.07279 0.62738 -0.04400
H 	H 	0.47557 0.11279 0.65923 0.04800
H 	H 	0.37176 0.15219 0.50254 0.05300
H 	H 	0.51744 0.22199 0.50135 0.05300
H 	H 	0.33017 0.04601 0.66027 0.04200
H 	H 	0.59971 0.18714 0.63337 0.08000
H 	H 	0.24976 0.08431 0.52810 0.08000
C 	C 	0.79408 0.26420 0.00255 0.06800
C 	C 	0.78570 0.21032 0.99873 -0.08000
C 	C 	0.84829 0.21794 0.00563 0.00600
C 	C 	0.91609 0.27224 0.02164 0.08100
C 	C 	0.92336 0.32128 0.03060 -0.09100
C 	C 	0.86208 0.31903 0.01801 0.02800
N 	N 	0.74275 0.25458 0.01097 -0.16900
C 	C 	0.77748 0.30201 0.03236 0.07600
C 	C 	0.85167 0.34300 0.03739 -0.09100
N 	N 	0.96080 0.25320 0.04404 -0.14700
C 	C 	0.92225 0.18695 0.04304 -0.00200
C 	C 	0.85195 0.16316 0.01952 -0.04300
H 	H 	0.73276 0.16233 0.99365 0.04700
H 	H 	0.97348 0.35652 0.04936 0.05600
H 	H 	0.89158 0.37003 0.06238 0.05400
H 	H 	0.80597 0.10920 0.02439 0.03900
H 	H 	0.68986 0.20973 0.01025 0.07900
H 	H 	0.00646 0.27593 0.06786 0.08000
C 	C 	0.76163 0.59142 0.08831 0.08000
C 	C 	0.75407 0.52907 0.11249 -0.09000
C 	C 	0.74070 0.48947 0.09135 0.02600
C 	C 	0.74441 0.51461 0.04951 0.07000
C 	C 	0.76176 0.58098 0.02685 -0.08000
C 	C 	0.76493 0.61669 0.04599 0.01000
N 	N 	0.79835 0.64413 0.10539 -0.15000
C 	C 	0.82631 0.70300 0.07478 0.00200
C 	C 	0.80676 0.68799 0.03745 -0.04400
N 	N 	0.75905 0.48304 0.04133 -0.16800
C 	C 	0.76217 0.43562 0.07749 0.07400
C 	C 	0.75516 0.44141 0.10994 -0.08900
H 	H 	0.76328 0.51461 0.14669 0.05600
H 	H 	0.77672 0.60556 0.99689 0.05200
H 	H 	0.83796 0.72311 0.01348 0.04400
H 	H 	0.74288 0.40303 0.13963 0.05200
H 	H 	0.82067 0.64166 0.13784 0.08900
H 	H 	0.74892 0.48125 0.01096 0.08400
C 	C 	0.45486 0.16370 0.05351 0.07100
C 	C 	0.38451 0.13418 0.02829 -0.08400
C 	C 	0.32834 0.09372 0.04840 0.00800
C 	C 	0.34202 0.08303 0.09182 0.07300
C 	C 	0.41278 0.11106 0.11708 -0.08900
C 	C 	0.46856 0.15305 0.09643 0.02300
N 	N 	0.51067 0.18379 0.04348 -0.16900
C 	C 	0.56246 0.18955 0.07996 0.07100
C 	C 	0.53580 0.16646 0.11412 -0.09000
N 	N 	0.29049 0.07273 0.10049 -0.15200
C 	C 	0.24304 0.07529 0.06318 0.00400
C 	C 	0.26643 0.09049 0.03010 -0.05000
H 	H 	0.37399 0.14356 0.99440 0.05100
H 	H 	0.42401 0.10331 0.15082 0.05100
H 	H 	0.56875 0.17844 0.14473 0.05100
H 	H 	0.23402 0.08436 0.99830 0.04400
H 	H 	0.52038 0.20972 0.01307 0.08300
H 	H 	0.27961 0.04981 0.13044 0.08400
