data_crystal

_cell_length_a 26.26052
_cell_length_b 27.82038
_cell_length_c 29.86544
_cell_angle_alpha 61.14302
_cell_angle_beta  118.53643
_cell_angle_gamma 133.23445

_symmetry_space_group_name_	'P 1'
_symmetry_space_group_name_H-M	'P 1'

loop_
_symmetry_equiv_pos_as_xyz
  x,y,z

loop_
_atom_site_label
_atom_site_type_symbol
_atom_site_fract_x
_atom_site_fract_y
_atom_site_fract_z
_atom_site_charge
Co	Co	0.11391 0.00561 0.16360 1.18300
Co	Co	0.06322 0.05973 0.19773 1.18000
Co	Co	0.08396 0.91303 0.10521 1.16600
O 	O 	0.04342 0.14315 0.22575 -0.40300
C 	C 	0.09745 0.18489 0.20300 0.30700
O 	O 	0.14526 0.05812 0.21122 -0.46000
O 	O 	0.11983 0.16147 0.19300 -0.38200
O 	O 	0.03371 0.99722 0.26923 -0.37300
O 	O 	0.05975 0.96481 0.11548 -0.76900
O 	O 	0.10230 0.91985 0.22000 -0.39600
Co	Co	0.06663 0.95529 0.67574 1.18800
Co	Co	0.01319 0.02226 0.69182 1.17500
C 	C 	0.05702 0.82550 0.73192 0.29500
Co	Co	0.04928 0.86890 0.61770 1.16400
C 	C 	0.05045 0.16088 0.67669 0.26900
O 	O 	0.09008 0.00795 0.71972 -0.46200
O 	O 	0.07448 0.12472 0.69126 -0.36300
O 	O 	0.02270 0.92092 0.62430 -0.77700
O 	O 	0.02702 0.80340 0.68965 -0.39800
O 	O 	0.04889 0.86679 0.73335 -0.38900
O 	O 	0.06636 0.93797 0.54559 -0.37200
C 	C 	0.04178 0.01103 0.86413 0.07800
C 	C 	0.05268 0.00786 0.91617 0.05700
C 	C 	0.10170 0.23020 0.68461 -0.06800
C 	C 	0.08454 0.27658 0.66114 -0.02600
H 	H 	0.06526 0.36903 0.64961 0.04300
H 	H 	0.03845 0.26951 0.62888 0.03900
C 	C 	0.14298 0.25734 0.20037 -0.07900
C 	C 	0.11338 0.29204 0.18346 -0.02000
H 	H 	0.07987 0.36757 0.18362 0.04400
H 	H 	0.05850 0.27243 0.16115 0.03400
C 	C 	0.11796 0.78926 0.28410 -0.01900
H 	H 	0.08552 0.66602 0.29912 0.04500
H 	H 	0.06230 0.75663 0.26479 0.04000
O 	O 	0.03480 0.03137 0.12544 -0.59800
C 	C 	0.01384 0.93925 0.50676 0.30700
C 	C 	0.01452 0.95329 0.45247 -0.11700
C 	C 	0.12690 0.37097 0.21220 -0.05500
O 	O 	0.01778 0.90668 0.02960 -0.38700
C 	C 	0.07080 0.01658 0.42954 0.09300
Br	Br	0.14545 0.08648 0.46799 -0.21300
C 	C 	0.10133 0.36121 0.68527 -0.05600
C 	C 	0.12371 0.32475 0.69060 0.01800
S 	S 	0.03573 0.70494 0.79565 0.02200
H 	H 	0.05041 0.60001 0.81638 0.04400
C 	C 	0.08192 0.78958 0.78121 -0.06900
C 	C 	0.07128 0.02950 0.37785 0.08600
Br	Br	0.12277 0.06979 0.83296 -0.22100
Br	Br	0.14755 0.06792 0.95412 -0.20900
C 	C 	0.13232 0.89575 0.22167 0.30500
O 	O 	0.15049 0.91163 0.17995 -0.40300
C 	C 	0.15597 0.86008 0.27188 -0.07400
C 	C 	0.12412 0.38431 0.72833 0.00100
C 	C 	0.10381 0.69913 0.82534 -0.00100
C 	C 	0.10140 0.64737 0.82487 -0.05800
C 	C 	0.15511 0.34480 0.20890 0.01800
C 	C 	0.14159 0.70534 0.31226 -0.05400
Br	Br	0.14929 0.11483 0.34697 -0.21600
O 	O 	0.16906 0.01039 0.07909 -0.37600
O 	O 	0.15590 0.93082 0.65533 -0.40800
O 	O 	0.16610 0.01755 0.65877 -0.39600
S 	S 	0.16260 0.24892 0.74116 0.05500
S 	S 	0.13084 0.45007 0.72437 0.00100
H 	H 	0.12452 0.57237 0.80836 0.04800
C 	C 	0.15934 0.39906 0.25468 0.00200
S 	S 	0.15908 0.45929 0.25319 0.00400
C 	C 	0.16304 0.76737 0.31246 0.01600
C 	C 	0.18978 0.99608 0.64788 0.33400
C 	C 	0.17189 0.31650 0.73655 -0.00300
C 	C 	0.16619 0.66106 0.83053 0.02300
C 	C 	0.15509 0.81633 0.79967 -0.02400
C 	C 	0.19485 0.69832 0.32397 0.00100
S 	S 	0.18274 0.64444 0.30349 0.00600
O 	O 	0.20896 0.06545 0.13942 -0.37300
C 	C 	0.22171 0.05072 0.11132 0.29200
C 	C 	0.17327 0.37720 0.77384 0.02500
C 	C 	0.16743 0.76579 0.82377 0.01900
C 	C 	0.17000 0.62231 0.81557 -0.04700
C 	C 	0.21771 0.35194 0.24498 -0.00300
S 	S 	0.21843 0.29216 0.24621 0.06100
C 	C 	0.19552 0.34054 0.77935 -0.05300
H 	H 	0.19698 0.86975 0.78719 0.04500
C 	C 	0.19216 0.46960 0.78056 -0.01900
C 	C 	0.22179 0.40592 0.29092 0.02600
C 	C 	0.23648 0.82111 0.32333 0.00200
S 	S 	0.24316 0.89264 0.29648 0.03600
N 	N 	0.21742 0.56460 0.79470 -0.13900
C 	C 	0.21186 0.42528 0.80329 -0.04600
C 	C 	0.23112 0.72607 0.83453 0.00100
C 	C 	0.24998 0.37978 0.28756 -0.05000
C 	C 	0.23448 0.49391 0.29913 -0.01900
C 	C 	0.01481 0.97991 0.34872 -0.11600
N 	N 	0.25518 0.59256 0.30208 -0.13700
H 	H 	0.23145 0.33262 0.81508 0.05600
C 	C 	0.23181 0.78000 0.82757 -0.05500
C 	C 	0.26774 0.75449 0.32883 0.02600
C 	C 	0.23720 0.65861 0.80638 -0.02100
C 	C 	0.26365 0.45872 0.31633 -0.04500
C 	C 	0.26736 0.68883 0.30057 -0.01700
C 	C 	0.26019 0.04464 0.63501 -0.08900
C 	C 	0.24168 0.53892 0.78773 0.12300
H 	H 	0.27522 0.97550 0.63602 0.05400
C 	C 	0.28003 0.56641 0.29681 0.12500
C 	C 	0.28914 0.81688 0.32803 -0.05600
C 	C 	0.29628 0.08726 0.11068 -0.06300
H 	H 	0.27934 0.04573 0.05428 0.05700
C 	C 	0.29609 0.66049 0.29720 0.12300
C 	C 	0.26262 0.63004 0.79875 0.12400
H 	H 	0.25919 0.43409 0.83465 0.05200
H 	H 	0.27941 0.83196 0.82127 0.05200
H 	H 	0.29702 0.38316 0.31613 0.05400
C 	C 	0.28922 0.02628 0.62252 -0.02600
C 	C 	0.30899 0.74847 0.31661 -0.04700
S 	S 	0.29611 0.12721 0.60634 0.05300
C 	C 	0.31497 0.06983 0.08688 -0.02300
S 	S 	0.29000 0.73533 0.81787 0.01400
H 	H 	0.31836 0.47794 0.33890 0.05200
C 	C 	0.00620 0.95262 0.99623 0.27400
N 	N 	0.31073 0.57898 0.78409 -0.13900
H 	H 	0.34372 0.86202 0.32657 0.05200
C 	C 	0.33992 0.08151 0.59133 0.02400
N 	N 	0.34493 0.60834 0.28525 -0.14000
S 	S 	0.36608 0.12164 0.15978 0.03200
N 	N 	0.36137 0.70247 0.28564 -0.13700
N 	N 	0.33126 0.67000 0.79431 -0.13600
H 	H 	0.36560 0.78740 0.31697 0.05300
C 	C 	0.34847 0.14213 0.57815 0.00600
C 	C 	0.38501 0.08632 0.11033 0.01900
C 	C 	0.35537 0.64474 0.78683 0.12600
C 	C 	0.38543 0.67632 0.27915 0.12500
H 	H 	0.38518 0.03646 0.59606 0.04700
C 	C 	0.39197 0.08295 0.58720 -0.05400
H 	H 	0.39843 0.07673 0.04950 0.05200
C 	C 	0.42032 0.11519 0.15300 -0.00200
C 	C 	0.42402 0.09309 0.08544 -0.05400
C 	C 	0.41128 0.20567 0.56493 -0.05300
H 	H 	0.41837 0.25224 0.55638 0.05400
H 	H 	0.42488 0.66517 0.21270 0.05200
O 	O 	0.99426 0.98939 0.62606 -0.55400
O 	O 	0.99674 0.81988 0.13345 -0.37300
C 	C 	0.96251 0.91479 0.37329 0.12300
C 	C 	0.96106 0.90198 0.42451 0.11800
Br	Br	0.88539 0.81450 0.45592 -0.20900
C 	C 	0.99382 0.96313 0.93959 -0.03700
O 	O 	0.98437 0.14014 0.64902 -0.36700
O 	O 	0.96818 0.96321 0.75621 -0.37100
Br	Br	0.89352 0.84289 0.33682 -0.18700
C 	C 	0.95894 0.98836 0.77707 0.35300
O 	O 	0.95249 0.03824 0.74830 -0.39500
C 	C 	0.77004 0.34627 0.03025 0.12800
N 	N 	0.79878 0.40567 0.03803 -0.13400
C 	C 	0.77322 0.40532 0.06854 0.12700
N 	N 	0.71929 0.34551 0.09147 -0.13900
C 	C 	0.68965 0.28625 0.08308 0.12600
N 	N 	0.71490 0.28671 0.05232 -0.13800
C 	C 	0.70834 0.32206 0.48243 0.12400
N 	N 	0.64196 0.27628 0.49277 -0.13600
C 	C 	0.61876 0.29405 0.51008 0.12600
N 	N 	0.66172 0.35774 0.51667 -0.13900
C 	C 	0.72793 0.40357 0.50650 0.12600
N 	N 	0.75140 0.38585 0.48936 -0.13600
Co	Co	0.92871 0.00453 0.11850 1.18800
Co	Co	0.97869 0.94936 0.08542 1.20000
Co	Co	0.94168 0.06777 0.19309 1.16900
O 	O 	0.98395 0.04820 0.16468 -0.75900
O 	O 	0.89999 0.95774 0.06738 -0.44200
C 	C 	0.91948 0.12371 0.07502 0.29800
C 	C 	0.00224 0.99996 0.29098 0.31300
C 	C 	0.93242 0.80606 0.11542 0.29900
O 	O 	0.94301 0.13629 0.12111 -0.38400
O 	O 	0.89056 0.06336 0.07109 -0.38000
O 	O 	0.94449 0.99851 0.26364 -0.35600
O 	O 	0.92196 0.84503 0.11751 -0.37800
C 	C 	0.81917 0.92913 0.17640 0.30600
O 	O 	0.83650 0.98978 0.16602 -0.38700
O 	O 	0.85677 0.92278 0.16521 -0.38000
O 	O 	0.99065 0.97831 0.01101 -0.33300
Co	Co	0.88773 0.97014 0.60554 1.19400
Co	Co	0.94569 0.91079 0.58550 1.19700
Co	Co	0.89544 0.04324 0.67009 1.16700
O 	O 	0.93794 0.01491 0.65110 -0.76300
O 	O 	0.86602 0.92055 0.55991 -0.45400
C 	C 	0.85622 0.07322 0.55309 0.30600
C 	C 	0.89066 0.77063 0.60060 0.31000
O 	O 	0.83312 0.04989 0.59447 -0.41000
O 	O 	0.87339 0.04256 0.54663 -0.38600
O 	O 	0.94487 0.80100 0.58168 -0.37600
O 	O 	0.88539 0.80616 0.61311 -0.38700
C 	C 	0.77182 0.90112 0.65892 0.29800
O 	O 	0.81064 0.94218 0.69011 -0.36500
O 	O 	0.80267 0.89160 0.64276 -0.38400
O 	O 	0.96535 0.93627 0.51422 -0.33900
C 	C 	0.97173 0.97178 0.83455 -0.08100
C 	C 	0.91296 0.92640 0.85814 0.10300
C 	C 	0.92377 0.92313 0.91023 0.08900
Br	Br	0.84246 0.86614 0.94059 -0.20400
Br	Br	0.81777 0.86820 0.81917 -0.19600
C 	C 	0.52872 0.78089 0.73174 0.00600
C 	C 	0.56194 0.82895 0.68972 -0.05100
C 	C 	0.59417 0.81731 0.67360 0.02300
C 	C 	0.58758 0.75617 0.69648 -0.00100
C 	C 	0.55204 0.70697 0.73745 -0.04900
C 	C 	0.52021 0.71904 0.75353 0.02900
S 	S 	0.46587 0.77058 0.74377 0.01800
C 	C 	0.42836 0.68976 0.77886 -0.01800
C 	C 	0.46320 0.66717 0.77990 -0.04300
S 	S 	0.65664 0.77075 0.68962 0.05600
C 	C 	0.69433 0.85193 0.65526 -0.07100
C 	C 	0.65354 0.87077 0.64984 -0.01700
H 	H 	0.56592 0.87550 0.67197 0.05200
H 	H 	0.54852 0.66065 0.75564 0.05400
H 	H 	0.44282 0.61421 0.79297 0.05300
H 	H 	0.67303 0.92337 0.63784 0.04400
C 	C 	0.58382 0.77157 0.28380 0.00400
C 	C 	0.65740 0.82177 0.28605 -0.05000
C 	C 	0.68848 0.82057 0.25954 0.02500
C 	C 	0.64540 0.77317 0.22903 0.00400
C 	C 	0.57040 0.73125 0.21980 -0.05400
C 	C 	0.54014 0.72964 0.24894 0.02700
S 	S 	0.53202 0.77421 0.29820 0.01500
C 	C 	0.45300 0.72140 0.26263 -0.02000
C 	C 	0.46671 0.70129 0.23702 -0.04500
S 	S 	0.69070 0.80146 0.18739 0.04500
C 	C 	0.76660 0.87086 0.20832 -0.06500
C 	C 	0.75663 0.87597 0.24759 -0.00600
H 	H 	0.68865 0.86157 0.30587 0.05600
H 	H 	0.53692 0.70343 0.18951 0.05200
H 	H 	0.79287 0.92142 0.26196 0.05000
C 	C 	0.85754 0.23288 0.47488 0.00400
C 	C 	0.86624 0.28665 0.47849 -0.05700
C 	C 	0.80620 0.28732 0.45811 0.02800
C 	C 	0.73871 0.23298 0.43795 -0.00000
C 	C 	0.72820 0.17443 0.44231 -0.05200
C 	C 	0.78896 0.17566 0.45952 0.01500
S 	S 	0.91051 0.20805 0.51348 0.03400
C 	C 	0.85166 0.12678 0.50993 -0.07600
C 	C 	0.78558 0.11594 0.47934 -0.01500
S 	S 	0.67615 0.23391 0.43806 0.01200
C 	C 	0.73109 0.30433 0.45983 -0.01700
C 	C 	0.80201 0.32758 0.47064 -0.04600
H 	H 	0.91675 0.32444 0.49898 0.05300
H 	H 	0.67454 0.12835 0.43541 0.04700
H 	H 	0.73529 0.06558 0.47872 0.04000
H 	H 	0.84716 0.36534 0.49311 0.05400
C 	C 	0.78151 0.56779 0.51479 0.00800
C 	C 	0.75746 0.60082 0.51286 -0.04800
C 	C 	0.77478 0.61540 0.55918 0.02400
C 	C 	0.80796 0.59007 0.60709 0.00000
C 	C 	0.82887 0.55410 0.60915 -0.05300
C 	C 	0.81380 0.54194 0.56241 0.02800
S 	S 	0.74552 0.52364 0.47270 0.02400
C 	C 	0.77204 0.47299 0.51132 -0.01900
C 	C 	0.80886 0.48876 0.56063 -0.04300
S 	S 	0.85434 0.64261 0.64504 0.04200
C 	C 	0.83438 0.69781 0.60455 -0.07000
C 	C 	0.78753 0.67422 0.55862 -0.01400
H 	H 	0.73074 0.61895 0.47585 0.06100
H 	H 	0.85625 0.53643 0.64594 0.05300
H 	H 	0.82012 0.45577 0.59568 0.05100
H 	H 	0.77444 0.70528 0.52278 0.06100
C 	C 	0.46338 0.20701 0.56112 0.02700
C 	C 	0.45489 0.14655 0.57428 0.00200
S 	S 	0.50968 0.16208 0.54814 0.01200
C 	C 	0.54680 0.24512 0.52055 -0.01800
C 	C 	0.51585 0.26283 0.53156 -0.04400
H 	H 	0.53031 0.31373 0.51854 0.05400
C 	C 	0.83857 0.22173 0.97332 0.00500
C 	C 	0.78576 0.22856 0.96345 -0.05800
C 	C 	0.80783 0.28826 0.96877 0.02900
C 	C 	0.88117 0.33871 0.98510 -0.00300
C 	C 	0.93269 0.32747 0.00187 -0.04200
C 	C 	0.91095 0.26871 0.99504 0.00600
S 	S 	0.82437 0.14713 0.99332 0.03500
C 	C 	0.90737 0.17057 0.02786 -0.08000
C 	C 	0.94966 0.24012 0.02523 0.01600
S 	S 	0.88717 0.38502 0.00992 0.02400
C 	C 	0.79946 0.34640 0.99884 -0.02100
C 	C 	0.76183 0.29251 0.97655 -0.04500
H 	H 	0.72932 0.18659 0.95604 0.05000
H 	H 	0.98649 0.36040 0.02334 0.05300
H 	H 	0.00191 0.26565 0.05144 0.01800
H 	H 	0.70481 0.25238 0.97345 0.05200
C 	C 	0.78483 0.56044 0.04866 0.00300
C 	C 	0.80314 0.62608 0.03141 -0.04900
C 	C 	0.81157 0.65164 0.06697 0.02700
C 	C 	0.80685 0.61384 0.11920 -0.00100
C 	C 	0.80004 0.55314 0.13821 -0.05300
C 	C 	0.78660 0.52559 0.10173 0.02600
S 	S 	0.79520 0.52928 0.02072 0.02500
C 	C 	0.79971 0.46966 0.07334 -0.01900
C 	C 	0.79415 0.47401 0.11561 -0.04300
S 	S 	0.84925 0.66754 0.15527 0.04600
C 	C 	0.87023 0.73832 0.10678 -0.06500
C 	C 	0.84741 0.72169 0.06002 -0.02100
H 	H 	0.81362 0.65724 0.99269 0.05900
H 	H 	0.80859 0.53020 0.17998 0.05200
H 	H 	0.79350 0.44008 0.15437 0.05100
H 	H 	0.86705 0.75972 0.02515 0.06500
C 	C 	0.49534 0.15760 0.16805 -0.05500
C 	C 	0.53426 0.16154 0.14510 0.02400
C 	C 	0.49818 0.12658 0.10604 0.00100
S 	S 	0.55641 0.16396 0.07169 0.01200
C 	C 	0.62889 0.22206 0.10584 -0.02000
C 	C 	0.60782 0.21526 0.14501 -0.04500
H 	H 	0.52248 0.18929 0.19434 0.05000
H 	H 	0.64091 0.25320 0.16714 0.05100
