data_crystal

_cell_length_a 24.97895
_cell_length_b 25.34722
_cell_length_c 25.04609
_cell_angle_alpha 89.91332
_cell_angle_beta  89.90459
_cell_angle_gamma 89.90459

_symmetry_space_group_name_	'P 1'
_symmetry_space_group_name_H-M	'P 1'

loop_
_symmetry_equiv_pos_as_xyz
  x,y,z

loop_
_atom_site_label
_atom_site_type_symbol
_atom_site_fract_x
_atom_site_fract_y
_atom_site_fract_z
_atom_site_charge
Co	Co	0.97190 0.00195 0.42262 1.18200
Co	Co	0.01522 0.97444 0.58908 1.18900
Co	Co	0.93948 0.04623 0.54002 1.18700
Co	Co	0.04791 0.93035 0.47128 1.18800
C 	C 	0.01302 0.04016 0.31623 0.29700
Co	Co	0.03870 0.92535 0.34202 1.16800
Co	Co	0.94381 0.04916 0.66846 1.16400
C 	C 	0.03479 0.83099 0.41370 0.30100
O 	O 	0.86959 0.07124 0.63715 -0.39600
O 	O 	0.97302 0.02515 0.59358 -0.77700
C 	C 	0.84301 0.04011 0.60450 0.30300
O 	O 	0.92308 0.05255 0.46134 -0.47400
O 	O 	0.06252 0.92209 0.55033 -0.46700
C 	C 	0.94401 0.93204 0.67549 0.29500
O 	O 	0.01064 0.00466 0.50418 -0.58100
C 	C 	0.96662 0.14666 0.60181 0.29200
C 	C 	0.91837 0.92422 0.34812 0.29200
C 	C 	0.13919 0.96011 0.39877 0.28900
O 	O 	0.86877 0.01487 0.56667 -0.40400
O 	O 	0.96129 0.89545 0.33789 -0.38900
O 	O 	0.91425 0.95046 0.39359 -0.39600
O 	O 	0.91423 0.97430 0.68278 -0.38700
O 	O 	0.96537 0.92196 0.62832 -0.40000
O 	O 	0.97629 0.12204 0.64764 -0.38500
O 	O 	0.93726 0.12479 0.56367 -0.38100
O 	O 	0.11447 0.95789 0.35199 -0.37900
O 	O 	0.12437 0.92950 0.43900 -0.37900
O 	O 	0.02126 0.95861 0.41706 -0.77100
C 	C 	0.06236 0.02339 0.68883 0.30100
O 	O 	0.01351 0.02611 0.70893 -0.39700
O 	O 	0.07108 0.00961 0.63869 -0.38700
O 	O 	0.01150 0.99092 0.29937 -0.39800
O 	O 	0.00398 0.05228 0.36660 -0.39300
O 	O 	0.06399 0.85475 0.37707 -0.39200
O 	O 	0.01516 0.85820 0.45393 -0.39600
Co	Co	0.95262 0.43171 0.00999 1.18300
Co	Co	0.06920 0.55470 0.97896 1.18800
Co	Co	0.98003 0.55230 0.04787 1.18100
Co	Co	0.04228 0.43570 0.93887 1.18900
C 	C 	0.87214 0.38484 0.93555 0.29600
Co	Co	0.97741 0.32568 0.93829 1.16500
Co	Co	0.05559 0.65512 0.05556 1.16700
C 	C 	0.09515 0.33242 0.96484 0.29100
O 	O 	0.04330 0.63799 0.13576 -0.38300
O 	O 	0.04063 0.57661 0.03438 -0.78000
C 	C 	0.01124 0.60106 0.15488 0.30100
O 	O 	0.92454 0.49428 0.05131 -0.47200
O 	O 	0.08752 0.49988 0.92362 -0.47000
C 	C 	0.16450 0.60404 0.03709 0.29400
O 	O 	0.02666 0.48333 0.01373 -0.57700
C 	C 	0.94352 0.65705 0.00953 0.29200
C 	C 	0.95776 0.32241 0.05569 0.29900
C 	C 	0.00103 0.38970 0.84017 0.30800
O 	O 	0.97275 0.58052 0.12536 -0.39100
O 	O 	0.94372 0.30118 0.01000 -0.40200
O 	O 	0.94568 0.37196 0.06628 -0.39000
O 	O 	0.13529 0.63517 0.06801 -0.38400
O 	O 	0.14536 0.58410 0.99222 -0.38200
O 	O 	0.97480 0.67618 0.04733 -0.40200
O 	O 	0.94206 0.60604 0.99960 -0.39900
O 	O 	0.00923 0.34379 0.86349 -0.39200
O 	O 	0.99952 0.43298 0.86893 -0.40600
O 	O 	0.99651 0.40020 0.97129 -0.77600
C 	C 	0.04504 0.66069 0.93570 0.30400
O 	O 	0.07272 0.67764 0.97698 -0.39900
O 	O 	0.03246 0.61044 0.93134 -0.39800
O 	O 	0.90183 0.34846 0.91213 -0.38800
O 	O 	0.89391 0.42917 0.95238 -0.39700
O 	O 	0.05252 0.30143 0.96466 -0.38000
O 	O 	0.09731 0.37505 0.93445 -0.38400
Co	Co	0.57996 0.05404 0.02851 1.18500
Co	Co	0.44886 0.94891 0.99343 1.18800
Co	Co	0.46268 0.02525 0.07544 1.18300
Co	Co	0.56816 0.97434 0.94760 1.18600
C 	C 	0.69200 0.02903 0.06570 0.29000
Co	Co	0.67928 0.04496 0.94667 1.16600
Co	Co	0.34897 0.96222 0.07467 1.16700
C 	C 	0.60351 0.03716 0.85349 0.29800
O 	O 	0.32701 0.04182 0.07409 -0.39700
O 	O 	0.43027 0.97247 0.05252 -0.77200
C 	C 	0.35956 0.08210 0.06617 0.29700
O 	O 	0.52492 0.07524 0.08314 -0.47400
O 	O 	0.50124 0.93154 0.93460 -0.46800
C 	C 	0.34238 0.98570 0.95769 0.30400
O 	O 	0.52586 0.98228 0.02732 -0.58000
C 	C 	0.39990 0.00495 0.17455 0.28600
C 	C 	0.62067 0.14554 0.96880 0.30200
C 	C 	0.67826 0.92797 0.93779 0.30000
O 	O 	0.40664 0.07543 0.04372 -0.41500
O 	O 	0.66741 0.12202 0.97364 -0.39200
O 	O 	0.57643 0.11975 0.97999 -0.39600
O 	O 	0.32438 0.95427 0.99560 -0.39400
O 	O 	0.39412 0.99385 0.95216 -0.40200
O 	O 	0.36630 0.96957 0.15568 -0.37800
O 	O 	0.44845 0.00892 0.15464 -0.38900
O 	O 	0.69517 0.97133 0.91460 -0.39700
O 	O 	0.62673 0.91685 0.93965 -0.38800
O 	O 	0.60703 0.01709 0.98103 -0.77100
C 	C 	0.39830 0.85504 0.05063 0.29300
O 	O 	0.36427 0.88179 0.08075 -0.37700
O 	O 	0.41573 0.87431 0.00461 -0.38400
O 	O 	0.71536 0.02376 0.01844 -0.38800
O 	O 	0.65004 0.06038 0.07202 -0.38400
O 	O 	0.64254 0.06510 0.87472 -0.38900
O 	O 	0.56190 0.02328 0.88250 -0.40100
C 	C 	0.82436 0.73923 0.95129 -0.00100
C 	C 	0.77080 0.75540 0.95518 -0.05200
C 	C 	0.76054 0.80837 0.96764 0.01500
C 	C 	0.80297 0.84295 0.97865 0.00100
C 	C 	0.85632 0.82703 0.97446 -0.05500
C 	C 	0.86666 0.77392 0.96317 0.01700
S 	S 	0.84572 0.67801 0.96227 0.03300
C 	C 	0.90866 0.69276 0.97932 -0.07200
C 	C 	0.91404 0.74773 0.97928 -0.02000
S 	S 	0.78129 0.90437 0.97104 0.01900
C 	C 	0.71749 0.88972 0.95761 -0.07900
C 	C 	0.71186 0.83477 0.95581 -0.01600
H 	H 	0.73839 0.72799 0.94791 0.04800
H 	H 	0.88865 0.85443 0.98209 0.04400
H 	H 	0.94757 0.76795 0.99741 0.03800
H 	H 	0.67669 0.81509 0.94037 0.04600
C 	C 	0.65655 0.29404 0.97030 0.00500
C 	C 	0.69356 0.33077 0.98974 -0.04800
C 	C 	0.72856 0.35481 0.95321 0.01600
C 	C 	0.72763 0.34022 0.89908 -0.00000
C 	C 	0.69606 0.29812 0.88145 -0.05400
C 	C 	0.65943 0.27573 0.91742 0.01700
S 	S 	0.62998 0.24617 0.00707 0.01900
C 	C 	0.61861 0.20233 0.95860 -0.06900
C 	C 	0.63806 0.22423 0.91086 -0.02000
S 	S 	0.78663 0.35576 0.87283 0.02800
C 	C 	0.81412 0.38375 0.92666 -0.07300
C 	C 	0.77722 0.37941 0.96872 -0.01500
H 	H 	0.69755 0.33758 0.03225 0.04500
H 	H 	0.70253 0.28089 0.84239 0.04600
H 	H 	0.64501 0.20083 0.87532 0.04100
H 	H 	0.78821 0.38536 0.01011 0.03400
C 	C 	0.31587 0.63925 0.02687 -0.00400
C 	C 	0.35158 0.67559 0.00434 -0.05600
C 	C 	0.37718 0.71155 0.03828 0.01900
C 	C 	0.36643 0.71098 0.09345 -0.00200
C 	C 	0.32531 0.67966 0.11449 -0.05300
C 	C 	0.30014 0.64333 0.08068 0.01700
S 	S 	0.26522 0.61273 0.99356 0.04000
C 	C 	0.22291 0.60376 0.04456 -0.07800
C 	C 	0.24787 0.62341 0.09062 -0.02000
S 	S 	0.38178 0.77014 0.11711 0.02900
C 	C 	0.40370 0.79805 0.06060 -0.07300
C 	C 	0.39832 0.76039 0.01987 -0.02400
H 	H 	0.35575 0.67879 0.96139 0.05100
H 	H 	0.31029 0.68657 0.15450 0.04700
H 	H 	0.22640 0.63077 0.12750 0.04500
H 	H 	0.40040 0.77056 0.97788 0.05200
C 	C 	0.26376 0.20213 0.07868 0.00200
C 	C 	0.21008 0.21812 0.07753 -0.05600
C 	C 	0.19209 0.24564 0.03258 0.01500
C 	C 	0.22617 0.25439 0.98916 0.00100
C 	C 	0.27997 0.23944 0.99030 -0.04900
C 	C 	0.29792 0.21047 0.03458 0.01300
S 	S 	0.28517 0.14885 0.11059 0.02200
C 	C 	0.33855 0.13563 0.07252 -0.07800
C 	C 	0.34020 0.17316 0.03137 -0.02000
S 	S 	0.20030 0.30213 0.95183 0.03200
C 	C 	0.14476 0.31234 0.98808 -0.07400
C 	C 	0.14561 0.27748 0.03163 -0.02400
H 	H 	0.18339 0.20958 0.11057 0.04700
H 	H 	0.30605 0.24706 0.95656 0.04800
H 	H 	0.36447 0.16817 0.99583 0.05100
H 	H 	0.11388 0.27493 0.06106 0.04100
C 	C 	0.63278 0.00681 0.70466 -0.00400
C 	C 	0.67046 0.98337 0.67069 -0.04600
C 	C 	0.70152 0.01620 0.63790 0.01300
C 	C 	0.69506 0.07134 0.64011 0.00000
C 	C 	0.66251 0.09473 0.67897 -0.05500
C 	C 	0.63096 0.06192 0.71123 0.01600
S 	S 	0.61255 0.97972 0.76159 0.02400
C 	C 	0.59895 0.03487 0.79534 -0.07700
C 	C 	0.61200 0.07763 0.76226 -0.01500
S 	S 	0.75132 0.09834 0.61799 0.02800
C 	C 	0.78454 0.04312 0.60279 -0.07600
C 	C 	0.75186 0.00038 0.61674 -0.02200
H 	H 	0.67863 0.94143 0.67309 0.04700
H 	H 	0.66526 0.13663 0.68703 0.04600
H 	H 	0.61623 0.11752 0.77719 0.04400
H 	H 	0.76706 0.96047 0.62043 0.04800
C 	C 	0.21771 0.03306 0.87553 0.00100
C 	C 	0.16401 0.02821 0.86032 -0.05400
C 	C 	0.15311 0.01680 0.80667 0.01600
C 	C 	0.19496 0.00606 0.77084 -0.00000
C 	C 	0.24874 0.01085 0.78600 -0.05300
C 	C 	0.25973 0.02281 0.83963 0.01700
S 	S 	0.24067 0.02478 0.93724 0.02500
C 	C 	0.30448 0.01172 0.92131 -0.07400
C 	C 	0.30889 0.01069 0.86542 -0.01900
S 	S 	0.17163 0.01342 0.70900 0.03000
C 	C 	0.10838 0.02934 0.72514 -0.07600
C 	C 	0.10404 0.02900 0.78108 -0.01900
H 	H 	0.13196 0.03489 0.88870 0.04600
H 	H 	0.28076 0.00395 0.75763 0.04800
H 	H 	0.34336 0.99476 0.84463 0.04600
H 	H 	0.06737 0.03790 0.80241 0.04300
C 	C 	0.32679 0.06060 0.29867 0.00800
C 	C 	0.27595 0.07098 0.31969 -0.05800
C 	C 	0.25730 0.03918 0.36156 0.01800
C 	C 	0.28899 0.99745 0.38106 -0.00200
C 	C 	0.33658 0.98301 0.35535 -0.04500
C 	C 	0.35569 0.01538 0.31409 0.00500
S 	S 	0.34413 0.07479 0.23632 0.01200
C 	C 	0.38954 0.02732 0.22721 -0.07700
C 	C 	0.39100 0.99673 0.27384 -0.00400
S 	S 	0.24828 0.95445 0.41036 0.03300
C 	C 	0.19080 0.98708 0.40197 -0.07300
C 	C 	0.20206 0.03327 0.37334 -0.02400
H 	H 	0.24989 0.09979 0.30099 0.04800
H 	H 	0.35559 0.94551 0.36401 0.04700
H 	H 	0.40934 0.95798 0.27526 0.04400
H 	H 	0.17122 0.05685 0.35438 0.04300
C 	C 	0.81082 0.90406 0.23651 0.00100
C 	C 	0.79782 0.90861 0.18233 -0.05400
C 	C 	0.75736 0.94426 0.16795 0.01500
C 	C 	0.73253 0.97587 0.20688 0.00100
C 	C 	0.75163 0.97719 0.25940 -0.04900
C 	C 	0.79022 0.93969 0.27440 0.01600
S 	S 	0.86921 0.88194 0.25908 0.01900
C 	C 	0.86928 0.91332 0.31782 -0.07100
C 	C 	0.82325 0.94509 0.32016 -0.02100
S 	S 	0.70364 0.02656 0.17592 0.02400
C 	C 	0.72062 0.01033 0.11334 -0.07800
C 	C 	0.74991 0.96319 0.11520 -0.01800
H 	H 	0.82063 0.88768 0.15219 0.04600
H 	H 	0.73921 0.00804 0.28667 0.04400
H 	H 	0.81785 0.97618 0.34933 0.04600
H 	H 	0.76621 0.94396 0.08026 0.04300
C 	C 	0.96229 0.29728 0.63057 -0.01000
C 	C 	0.94271 0.33536 0.66605 -0.04900
C 	C 	0.97946 0.36210 0.69849 0.00900
C 	C 	0.03440 0.35014 0.69532 0.00900
C 	C 	0.05255 0.30676 0.66577 -0.05800
C 	C 	0.01592 0.28043 0.63296 0.02600
S 	S 	0.92612 0.24699 0.60845 0.02900
C 	C 	0.97565 0.20363 0.59913 -0.08000
C 	C 	0.02335 0.22752 0.61576 -0.01500
S 	S 	0.06202 0.36893 0.75230 0.03100
C 	C 	0.00776 0.39369 0.78233 -0.07000
C 	C 	0.96456 0.38660 0.74735 -0.02300
H 	H 	0.90001 0.34083 0.67146 0.04600
H 	H 	0.09262 0.29135 0.67156 0.05000
H 	H 	0.05980 0.20546 0.62310 0.04200
H 	H 	0.92326 0.38986 0.76028 0.04300
C 	C 	0.98377 0.74047 0.81588 -0.00500
C 	C 	0.97887 0.75873 0.76320 -0.05100
C 	C 	0.97957 0.81349 0.75466 0.01500
C 	C 	0.98791 0.84814 0.79742 0.00300
C 	C 	0.99314 0.83005 0.84980 -0.05400
C 	C 	0.99409 0.77548 0.85818 0.01300
S 	S 	0.00721 0.68120 0.83307 0.04300
C 	C 	0.03080 0.69795 0.89323 -0.07900
C 	C 	0.02022 0.75140 0.90190 -0.01200
S 	S 	0.96551 0.90727 0.78003 0.01400
C 	C 	0.94636 0.89229 0.71788 -0.07600
C 	C 	0.95755 0.83865 0.70907 -0.01700
H 	H 	0.97334 0.73150 0.73039 0.04700
H 	H 	0.99882 0.85736 0.88254 0.04400
H 	H 	0.03248 0.77251 0.93740 0.03700
H 	H 	0.94921 0.81849 0.67191 0.04600
C 	C 	0.97916 0.63345 0.30312 -0.01000
C 	C 	0.95897 0.67267 0.33708 -0.04900
C 	C 	0.99458 0.69760 0.37222 0.01000
C 	C 	0.04928 0.68447 0.37148 0.00800
C 	C 	0.07037 0.65123 0.33204 -0.05900
C 	C 	0.03458 0.62491 0.29822 0.02800
S 	S 	0.95122 0.61707 0.24535 0.02700
C 	C 	0.00622 0.59676 0.21314 -0.06800
C 	C 	0.04980 0.60433 0.24765 -0.02400
S 	S 	0.08250 0.73475 0.39774 0.02800
C 	C 	0.03041 0.77335 0.41332 -0.06800
C 	C 	0.98395 0.74757 0.39579 -0.02400
H 	H 	0.91789 0.68602 0.33354 0.04700
H 	H 	0.11319 0.64899 0.32534 0.04900
H 	H 	0.09100 0.60344 0.23403 0.04400
H 	H 	0.94585 0.76764 0.39157 0.04600
C 	C 	0.00147 0.13150 0.19094 0.01200
C 	C 	0.01393 0.15546 0.14213 -0.06100
C 	C 	0.00871 0.21043 0.13849 0.02400
C 	C 	0.99526 0.24042 0.18380 -0.01300
C 	C 	0.98316 0.21638 0.23270 -0.04800
C 	C 	0.98872 0.16144 0.23631 0.00600
S 	S 	0.02411 0.07307 0.21105 0.01800
C 	C 	0.01790 0.08300 0.27693 -0.06800
C 	C 	0.99712 0.13390 0.28484 -0.02700
S 	S 	0.97123 0.29837 0.16342 0.02900
C 	C 	0.97985 0.28862 0.09790 -0.09000
C 	C 	0.00009 0.23768 0.08986 -0.01200
H 	H 	0.02537 0.13207 0.10778 0.04700
H 	H 	0.97162 0.23969 0.26708 0.04500
H 	H 	0.98886 0.15052 0.32381 0.04500
H 	H 	0.00305 0.21920 0.05099 0.04000
