data_crystal

_cell_length_a 28.91851
_cell_length_b 24.19209
_cell_length_c 70.44059
_cell_angle_alpha 90.37277
_cell_angle_beta  91.15737
_cell_angle_gamma 110.36309

_symmetry_space_group_name_	'P 1'
_symmetry_space_group_name_H-M	'P 1'

loop_
_symmetry_equiv_pos_as_xyz
  x,y,z

loop_
_atom_site_label
_atom_site_type_symbol
_atom_site_fract_x
_atom_site_fract_y
_atom_site_fract_z
_atom_site_charge
C 	C 	0.03384 0.84681 0.69632 -0.09200
C 	C 	0.02521 0.56321 0.02110 -0.00700
H 	H 	0.02785 0.80668 0.64964 0.04900
C 	C 	0.04267 0.90082 0.70774 0.29500
C 	C 	0.02236 0.80212 0.66480 -0.07100
H 	H 	0.02196 0.56583 0.51268 0.04200
C 	C 	0.02646 0.60618 0.00768 -0.03000
C 	C 	0.00718 0.54915 0.45982 -0.04200
C 	C 	0.04406 0.85086 0.67686 0.02200
H 	H 	0.06213 0.07665 0.73089 0.15500
C 	C 	0.06563 0.10610 0.79126 -0.09300
C 	C 	0.05135 0.09049 0.81003 0.02100
H 	H 	0.05747 0.64732 0.00750 0.03900
C 	C 	0.00029 0.08991 0.27914 0.28000
H 	H 	0.06151 0.16193 0.76782 0.03000
C 	C 	0.05044 0.14876 0.78217 0.01600
C 	C 	0.00293 0.26575 0.19500 -0.06700
H 	H 	0.03283 0.59159 0.43333 0.03900
C 	C 	0.01978 0.52572 0.47653 0.00900
O 	O 	0.06895 0.03983 0.72860 -0.70700
O 	O 	0.00534 0.09319 0.26062 -0.37400
C 	C 	0.00371 0.00804 0.20960 0.27700
C 	C 	0.01950 0.82472 0.30591 -0.02000
O 	O 	0.07344 0.95839 0.75085 -0.70100
O 	O 	0.01090 0.02325 0.22779 -0.37300
Ni	Ni	0.07509 0.94641 0.77824 1.06800
C 	C 	0.02259 0.30111 0.16243 -0.01900
H 	H 	0.06328 0.05846 0.81739 0.03000
C 	C 	0.04284 0.57361 0.44618 -0.03100
H 	H 	0.06583 0.89275 0.67087 0.02300
Ni	Ni	0.07595 0.02894 0.70166 1.06300
H 	H 	0.05382 0.70141 0.31778 0.05000
C 	C 	0.03586 0.13452 0.29170 -0.09600
C 	C 	0.02267 0.14430 0.31019 0.01300
H 	H 	0.02978 0.30641 0.20055 0.04800
H 	H 	0.08138 0.92653 0.74436 0.15300
C 	C 	0.09167 0.07342 0.78051 0.29300
C 	C 	0.06806 0.56979 0.03289 0.04600
O 	O 	0.08149 0.94749 0.70457 -0.41600
H 	H 	0.04010 0.03118 0.17412 0.03300
C 	C 	0.03740 0.98341 0.20020 -0.09300
H 	H 	0.04233 0.92937 0.22397 0.02500
C 	C 	0.04796 0.33672 0.15157 -0.02300
C 	C 	0.05037 0.99746 0.18126 0.01400
H 	H 	0.07626 0.76135 0.13866 0.04800
O 	O 	0.10243 0.03071 0.78861 -0.40100
H 	H 	0.04193 0.20038 0.33507 0.04600
C 	C 	0.05317 0.81086 0.31196 -0.02300
C 	C 	0.05203 0.94056 0.20936 0.01200
C 	C 	0.05327 0.19198 0.32109 -0.07400
O 	O 	0.10680 0.08970 0.76333 -0.38600
C 	C 	0.06823 0.52683 0.47945 -0.04400
C 	C 	0.08143 0.17096 0.28473 0.01900
H 	H 	0.07643 0.45477 0.15432 0.04900
C 	C 	0.07532 0.96676 0.17129 -0.07200
C 	C 	0.07694 0.90980 0.19934 -0.07200
C 	C 	0.08810 0.73592 0.32193 -0.07100
H 	H 	0.08404 0.97686 0.15654 0.04700
C 	C 	0.01988 0.11442 0.81908 -0.07200
C 	C 	0.07832 0.37885 0.13850 0.04100
C 	C 	0.08758 0.92192 0.18017 0.03800
C 	C 	0.10359 0.57448 0.04288 -0.10600
H 	H 	0.08674 0.87552 0.20634 0.04700
H 	H 	0.09270 0.16324 0.27068 0.04000
C 	C 	0.09124 0.57482 0.44918 -0.01000
H 	H 	0.07830 0.50877 0.49226 0.04000
C 	C 	0.09036 0.43937 0.14195 -0.07100
C 	C 	0.09730 0.23010 0.31366 0.03900
H 	H 	0.11200 0.70639 0.11732 0.03900
Ni	Ni	0.12631 0.03576 0.74505 1.09800
C 	C 	0.09385 0.79523 0.31922 0.03900
C 	C 	0.11598 0.77420 0.13782 -0.07100
H 	H 	0.08763 0.31257 0.11978 0.04800
C 	C 	0.10854 0.88628 0.16930 -0.02300
H 	H 	0.12112 0.67500 0.33266 0.04000
C 	C 	0.09660 0.35933 0.12249 -0.07100
C 	C 	0.10381 0.55132 0.46582 -0.03100
C 	C 	0.11190 0.21867 0.29566 -0.07200
H 	H 	0.19459 0.43364 0.31574 0.04800
C 	C 	0.12607 0.85694 0.15995 -0.02300
C 	C 	0.12473 0.28400 0.32365 -0.02400
C 	C 	0.12624 0.72100 0.33042 0.01800
O 	O 	0.14418 0.94296 0.77663 -0.42000
C 	C 	0.12042 0.48031 0.12943 0.01900
C 	C 	0.13627 0.74299 0.12575 0.01900
C 	C 	0.12803 0.59928 0.43511 0.04600
H 	H 	0.12894 0.52697 0.13216 0.03700
O 	O 	0.15314 0.06345 0.70277 -0.41200
C 	C 	0.12669 0.40016 0.10994 0.01900
C 	C 	0.14692 0.82245 0.14851 0.03900
C 	C 	0.14655 0.32980 0.33188 -0.02200
C 	C 	0.14628 0.57777 0.05418 0.30800
O 	O 	0.14988 0.59714 0.07201 -0.37800
C 	C 	0.13870 0.46094 0.11331 -0.09000
C 	C 	0.19430 0.43595 0.33111 -0.07000
C 	C 	0.13850 0.83953 0.32441 -0.07300
H 	H 	0.14614 0.24770 0.28990 0.04900
H 	H 	0.14114 0.55196 0.46820 0.03700
H 	H 	0.14079 0.38455 0.09767 0.03000
H 	H 	0.23029 0.53003 0.33214 0.03100
O 	O 	0.17380 0.10838 0.73203 -0.37200
H 	H 	0.14330 0.88548 0.32223 0.04700
C 	C 	0.16043 0.61908 0.42389 -0.11100
C 	C 	0.17272 0.38470 0.34157 0.03800
C 	C 	0.17957 0.10906 0.71348 0.27200
C 	C 	0.21423 0.49063 0.34041 0.01400
O 	O 	0.18203 0.03521 0.76353 -0.37900
C 	C 	0.18423 0.98890 0.77297 0.29400
O 	O 	0.16631 0.48980 0.08162 -0.39800
C 	C 	0.17040 0.76543 0.33635 -0.09400
C 	C 	0.16926 0.50410 0.09975 0.30300
H 	H 	0.18983 0.15545 0.67821 0.01400
O 	O 	0.17866 0.55649 0.04690 -0.42000
O 	O 	0.18419 0.67468 0.10538 -0.36900
C 	C 	0.18773 0.76007 0.12426 -0.09200
C 	C 	0.17668 0.82477 0.33292 0.01200
H 	H 	0.00764 0.10041 0.83327 0.04800
H 	H 	0.20184 0.95055 0.80761 0.02500
O 	O 	0.19233 0.64279 0.39293 -0.37100
Ni	Ni	0.01357 0.97067 0.73800 1.10000
O 	O 	0.19514 0.70087 0.35712 -0.37400
O 	O 	0.19251 0.55864 0.10553 -0.39700
C 	C 	0.19820 0.83877 0.14736 -0.07300
C 	C 	0.17296 0.38795 0.36143 -0.07000
C 	C 	0.01900 0.17261 0.79129 -0.07200
C 	C 	0.20098 0.64072 0.41128 0.31100
C 	C 	0.21238 0.49451 0.36028 -0.08700
C 	C 	0.20951 0.72935 0.11089 0.27400
H 	H 	0.15662 0.34840 0.36961 0.04600
C 	C 	0.20809 0.75023 0.34748 0.27300
Ni	Ni	0.21484 0.62935 0.08783 1.09900
C 	C 	0.22402 0.16923 0.68649 0.01400
C 	C 	0.22436 0.15220 0.70550 -0.08600
C 	C 	0.19276 0.44257 0.37078 0.01300
C 	C 	0.21857 0.80771 0.13531 0.01500
H 	H 	0.21049 0.85957 0.33735 0.01100
O 	O 	0.22540 0.59847 0.36037 -0.37800
C 	C 	0.22851 0.55286 0.36991 0.27400
H 	H 	0.22232 0.87592 0.15564 0.04600
C 	C 	0.23210 0.99156 0.78125 -0.08800
Ni	Ni	0.22208 0.52315 0.06257 1.07000
C 	C 	0.23511 0.97335 0.79998 0.01900
O 	O 	0.23301 0.55548 0.38877 -0.40800
H 	H 	0.19153 0.44457 0.38612 0.03100
O 	O 	0.00698 0.90482 0.71831 -0.37100
Ni	Ni	0.24626 0.67913 0.37319 1.10100
O 	O 	0.24545 0.64874 0.41781 -0.42100
O 	O 	0.25049 0.75977 0.10229 -0.40900
H 	H 	0.25053 0.75570 0.39929 0.15700
C 	C 	0.00636 0.79187 0.70388 0.02200
O 	O 	0.25362 0.78813 0.34901 -0.41600
H 	H 	0.25831 0.82080 0.13451 0.00700
O 	O 	0.25957 0.60247 0.07187 -0.70500
H 	H 	0.26765 0.21336 0.66305 0.04700
C 	C 	0.26811 0.20218 0.67791 -0.07100
C 	C 	0.26892 0.17141 0.71614 0.01600
H 	H 	0.26980 0.15872 0.73083 0.03900
H 	H 	0.26907 0.62865 0.06081 0.15600
H 	H 	0.27387 0.03374 0.75694 0.03000
O 	O 	0.26867 0.48627 0.07611 -0.42200
O 	O 	0.27079 0.75729 0.38802 -0.70500
C 	C 	0.27565 0.02052 0.77152 0.01700
H 	H 	0.27249 0.63991 0.11730 0.15600
C 	C 	0.28098 0.98838 0.80938 -0.06900
H 	H 	0.28280 0.97675 0.82414 0.04700
O 	O 	0.27825 0.65490 0.10420 -0.70300
Ni	Ni	0.28028 0.83100 0.37474 1.07000
H 	H 	0.00606 0.20379 0.78389 0.04700
Ni	Ni	0.29078 0.61428 0.40408 1.06500
O 	O 	0.00324 0.94416 0.78136 -0.41800
C 	C 	0.00255 0.15423 0.80954 0.04000
O 	O 	0.30138 0.87685 0.39960 -0.41500
O 	O 	0.30826 0.67597 0.38539 -0.70500
C 	C 	0.31284 0.21847 0.68826 0.03900
C 	C 	0.31299 0.20430 0.70751 -0.07000
Ni	Ni	0.31464 0.73924 0.10461 1.06500
H 	H 	0.31464 0.40186 0.01376 0.03100
C 	C 	0.31582 0.50440 0.07210 0.29700
O 	O 	0.00159 0.99411 0.69550 -0.40400
Ni	Ni	0.31816 0.61582 0.09031 1.10100
O 	O 	0.31993 0.74529 0.07588 -0.41800
C 	C 	0.32145 0.03545 0.78094 -0.06900
C 	C 	0.32405 0.02132 0.80008 0.03800
H 	H 	0.32964 0.66808 0.37572 0.15500
C 	C 	0.33378 0.47029 0.05942 -0.12500
Ni	Ni	0.33742 0.75913 0.39669 1.09900
C 	C 	0.34088 0.87884 0.40989 0.30500
H 	H 	0.99269 0.82913 0.26936 0.04600
C 	C 	0.99312 0.25793 0.17542 0.03700
H 	H 	0.98892 0.22584 0.22247 0.03300
H 	H 	0.98792 0.11637 0.31586 0.01000
C 	C 	0.97115 0.84404 0.27925 -0.07200
C 	C 	0.97975 0.22005 0.20742 0.01900
C 	C 	0.97973 0.84243 0.29885 0.03900
C 	C 	0.98261 0.50152 0.49119 0.00800
O 	O 	0.97114 0.02268 0.19915 -0.41100
O 	O 	0.96310 0.04784 0.28645 -0.41900
H 	H 	0.93065 0.86948 0.25715 0.01500
C 	C 	0.98911 0.52825 0.50927 -0.04400
Ni	Ni	0.63558 0.25346 0.89899 1.10000
O 	O 	0.65214 0.31543 0.87829 -0.70500
Ni	Ni	0.71836 0.31480 0.87033 1.09900
O 	O 	0.58434 0.28221 0.91137 -0.38000
O 	O 	0.63833 0.37693 0.91357 -0.42000
O 	O 	0.57858 0.19708 0.88256 -0.37300
Ni	Ni	0.65742 0.39558 0.88531 1.06800
O 	O 	0.62388 0.12147 0.89458 -0.40900
O 	O 	0.73011 0.43342 0.89354 -0.40200
O 	O 	0.74308 0.38947 0.85390 -0.37400
O 	O 	0.69594 0.24463 0.88825 -0.70500
O 	O 	0.62264 0.18769 0.91806 -0.38300
O 	O 	0.77670 0.29154 0.86180 -0.36700
O 	O 	0.72557 0.19822 0.85361 -0.41200
Ni	Ni	0.67622 0.16794 0.87564 1.06500
H 	H 	0.62868 0.30219 0.86737 0.15500
H 	H 	0.72058 0.24738 0.89851 0.15500
C 	C 	0.75516 0.40408 0.90176 0.31000
O 	O 	0.62488 0.18330 0.85841 -0.41800
C 	C 	0.59655 0.33608 0.91824 0.29100
C 	C 	0.72175 0.42988 0.85211 0.29500
C 	C 	0.58230 0.18182 0.86485 0.29100
C 	C 	0.77046 0.23739 0.85598 0.27200
C 	C 	0.62248 0.13507 0.91284 0.29500
O 	O 	0.76095 0.35890 0.89308 -0.38900
O 	O 	0.67684 0.42070 0.85837 -0.42100
Ni	Ni	0.63492 0.39990 0.59550 1.10100
O 	O 	0.68608 0.40725 0.57504 -0.70100
Ni	Ni	0.73318 0.37618 0.58861 1.09900
O 	O 	0.60849 0.46094 0.58369 -0.37400
O 	O 	0.68689 0.52526 0.58198 -0.42400
O 	O 	0.58310 0.33438 0.57963 -0.37200
Ni	Ni	0.72373 0.48443 0.56514 1.07100
O 	O 	0.57013 0.28495 0.61427 -0.40400
O 	O 	0.78701 0.51385 0.58182 -0.40100
O 	O 	0.79219 0.40095 0.57042 -0.37500
O 	O 	0.67644 0.35787 0.60731 -0.70100
O 	O 	0.58487 0.38456 0.61648 -0.38000
O 	O 	0.76635 0.32867 0.60441 -0.36800
O 	O 	0.69584 0.24732 0.60395 -0.40800
Ni	Ni	0.63619 0.27479 0.60865 1.06500
H 	H 	0.67128 0.38082 0.56409 0.15600
H 	H 	0.68792 0.37414 0.62019 0.15400
C 	C 	0.78976 0.50122 0.59981 0.30600
O 	O 	0.62137 0.26612 0.58022 -0.41700
C 	C 	0.63941 0.51292 0.57896 0.29900
C 	C 	0.79226 0.42482 0.55345 0.31000
C 	C 	0.59159 0.28926 0.57191 0.30700
C 	C 	0.74062 0.27605 0.61086 0.27400
C 	C 	0.56520 0.33084 0.62335 0.27700
O 	O 	0.76652 0.44784 0.60596 -0.39500
O 	O 	0.75652 0.44341 0.54768 -0.42300
O 	O 	0.95904 0.98751 0.72317 -0.37100
O 	O 	0.96193 0.90776 0.75352 -0.37200
C 	C 	0.96744 0.00582 0.70547 0.26900
C 	C 	0.96648 0.90453 0.77209 0.27500
O 	O 	0.39660 0.74123 0.40795 -0.37100
O 	O 	0.34526 0.66195 0.42378 -0.41300
O 	O 	0.37163 0.77931 0.37123 -0.39900
O 	O 	0.36737 0.84553 0.40576 -0.38000
O 	O 	0.35226 0.86201 0.36621 -0.39800
C 	C 	0.39015 0.69641 0.41941 0.29000
C 	C 	0.37911 0.82929 0.36252 0.30800
O 	O 	0.34476 0.55817 0.07676 -0.37600
O 	O 	0.36236 0.68185 0.07343 -0.37100
O 	O 	0.38406 0.73493 0.10802 -0.40400
O 	O 	0.37515 0.63673 0.10946 -0.38000
C 	C 	0.34981 0.72526 0.06662 0.30600
C 	C 	0.39424 0.69118 0.11635 0.27800
Ni	Ni	0.84100 0.96926 0.24450 1.09800
O 	O 	0.90049 0.96986 0.22939 -0.70500
Ni	Ni	0.95492 0.03569 0.24218 1.09800
O 	O 	0.79570 0.90154 0.22787 -0.37300
O 	O 	0.81929 0.95554 0.20095 -0.41200
O 	O 	0.85649 0.90764 0.26077 -0.38100
Ni	Ni	0.89637 0.98772 0.20269 1.06400
O 	O 	0.82035 0.04336 0.28095 -0.42200
O 	O 	0.89232 0.06868 0.20819 -0.41800
O 	O 	0.89380 0.04354 0.25457 -0.69900
O 	O 	0.78160 0.96360 0.26101 -0.37700
Ni	Ni	0.89120 0.04561 0.28237 1.06700
H 	H 	0.90699 0.93247 0.23064 0.15300
H 	H 	0.88697 0.07798 0.24944 0.15300
C 	C 	0.93218 0.11353 0.21252 0.29600
O 	O 	0.86724 0.95835 0.28861 -0.40200
C 	C 	0.79117 0.90734 0.20942 0.27500
C 	C 	0.87728 0.92029 0.27770 0.28800
C 	C 	0.78265 0.99474 0.27668 0.29700
O 	O 	0.96381 0.10843 0.22549 -0.37100
C 	C 	0.95769 0.20564 0.16842 -0.07100
C 	C 	0.93444 0.15986 0.18080 0.01900
C 	C 	0.94682 0.16595 0.20031 -0.09100
H 	H 	0.94949 0.19954 0.15330 0.04700
H 	H 	0.90888 0.11861 0.17509 0.02000
C 	C 	0.74647 0.86816 0.19930 -0.08700
C 	C 	0.74495 0.86457 0.17936 0.01400
C 	C 	0.70057 0.83433 0.16966 -0.07100
C 	C 	0.65754 0.80722 0.17979 0.03900
C 	C 	0.65952 0.80777 0.19966 -0.07000
C 	C 	0.70378 0.83800 0.20941 0.01600
C 	C 	0.61071 0.78371 0.16987 -0.02200
C 	C 	0.57146 0.76401 0.16159 -0.02200
C 	C 	0.52463 0.74207 0.15161 0.04000
C 	C 	0.49163 0.77268 0.15288 -0.07100
C 	C 	0.44814 0.75477 0.14184 0.01500
C 	C 	0.43738 0.70608 0.12941 -0.08700
C 	C 	0.46973 0.67418 0.12868 0.01900
C 	C 	0.51324 0.69225 0.13974 -0.07000
H 	H 	0.77780 0.88640 0.17139 0.01800
H 	H 	0.69938 0.83347 0.15427 0.04700
H 	H 	0.62642 0.78643 0.20757 0.04900
H 	H 	0.70438 0.83979 0.22479 0.04100
H 	H 	0.50011 0.81105 0.16215 0.04700
H 	H 	0.42319 0.77927 0.14271 0.01300
H 	H 	0.46196 0.63655 0.11915 0.04100
H 	H 	0.53856 0.66827 0.13875 0.04900
C 	C 	0.42287 0.85301 0.35058 -0.09100
C 	C 	0.43945 0.81439 0.34003 0.02100
C 	C 	0.48406 0.83584 0.33052 -0.07100
C 	C 	0.51249 0.89602 0.33146 0.04100
C 	C 	0.49530 0.93505 0.34144 -0.07100
C 	C 	0.45059 0.91369 0.35094 0.02100
C 	C 	0.56025 0.91707 0.32287 -0.02200
C 	C 	0.59998 0.93284 0.31550 -0.02100
C 	C 	0.64720 0.94903 0.30655 0.03900
C 	C 	0.67607 0.00857 0.30430 -0.07100
C 	C 	0.72115 0.02385 0.29501 0.01600
C 	C 	0.73742 0.97955 0.28787 -0.08900
C 	C 	0.70881 0.92006 0.29052 0.01900
C 	C 	0.66395 0.90493 0.29981 -0.07000
H 	H 	0.41819 0.76762 0.33944 0.02700
H 	H 	0.49693 0.80547 0.32270 0.04800
H 	H 	0.51697 0.98169 0.34215 0.04900
H 	H 	0.43837 0.94401 0.35907 0.03600
H 	H 	0.66344 0.04295 0.30954 0.04700
H 	H 	0.74274 0.06993 0.29301 0.02900
H 	H 	0.72119 0.88550 0.28526 0.03800
H 	H 	0.64199 0.85884 0.30161 0.04900
C 	C 	0.93578 0.86667 0.27234 0.01500
C 	C 	0.90883 0.88814 0.28501 -0.09600
C 	C 	0.91620 0.88426 0.30467 0.02200
C 	C 	0.95155 0.86153 0.31154 -0.07100
H 	H 	0.89528 0.89988 0.31463 0.03200
H 	H 	0.95776 0.85999 0.32672 0.04800
C 	C 	0.39468 0.00753 0.45046 -0.01200
C 	C 	0.38519 0.99444 0.46964 -0.02700
C 	C 	0.40713 0.03729 0.48364 -0.04600
C 	C 	0.43868 0.09356 0.47851 0.01000
C 	C 	0.44690 0.10712 0.45925 -0.04500
C 	C 	0.42498 0.06418 0.44527 -0.02900
C 	C 	0.46588 0.13656 0.49333 0.00800
C 	C 	0.44015 0.15613 0.50698 -0.04400
C 	C 	0.46571 0.19142 0.52229 -0.03100
C 	C 	0.51709 0.20743 0.52400 -0.01000
C 	C 	0.54302 0.19002 0.50996 -0.03100
C 	C 	0.51753 0.15466 0.49467 -0.04300
C 	C 	0.54267 0.23698 0.54095 0.04600
C 	C 	0.56477 0.26170 0.55503 -0.11200
C 	C 	0.37543 0.96204 0.43618 0.04800
C 	C 	0.35938 0.92404 0.42419 -0.10800
H 	H 	0.36165 0.95077 0.47374 0.03700
H 	H 	0.40065 0.02635 0.49847 0.04100
H 	H 	0.47096 0.15053 0.45515 0.04000
H 	H 	0.43228 0.07464 0.43044 0.03800
H 	H 	0.40032 0.14283 0.50596 0.04000
H 	H 	0.44546 0.20497 0.53306 0.04000
H 	H 	0.58277 0.20241 0.51118 0.03700
H 	H 	0.53773 0.13983 0.48420 0.04100
C 	C 	0.94003 0.45260 0.48699 -0.04400
C 	C 	0.90340 0.43208 0.50051 -0.03100
C 	C 	0.90910 0.46030 0.51830 -0.00900
C 	C 	0.95248 0.50765 0.52277 -0.03100
C 	C 	0.86800 0.44618 0.53086 0.04500
C 	C 	0.83385 0.43473 0.54148 -0.10700
H 	H 	0.96993 0.54879 0.45748 0.03900
H 	H 	0.93497 0.43117 0.47316 0.04000
H 	H 	0.86996 0.39544 0.49695 0.03800
H 	H 	0.95712 0.52977 0.53648 0.03900
C 	C 	0.49814 0.69491 0.45720 -0.00800
C 	C 	0.51841 0.65011 0.45649 -0.03200
C 	C 	0.54417 0.63973 0.47227 -0.04300
C 	C 	0.54987 0.67423 0.48885 0.00800
C 	C 	0.53295 0.72199 0.48898 -0.04300
C 	C 	0.50719 0.73232 0.47319 -0.03100
C 	C 	0.56827 0.65622 0.50657 0.00900
C 	C 	0.61610 0.65405 0.50766 -0.04600
C 	C 	0.63119 0.62955 0.52350 -0.03100
C 	C 	0.59857 0.60707 0.53832 -0.01400
C 	C 	0.55159 0.61164 0.53765 -0.02800
C 	C 	0.53646 0.63614 0.52183 -0.04500
C 	C 	0.61152 0.57413 0.55316 0.04500
C 	C 	0.62365 0.54682 0.56534 -0.13100
C 	C 	0.46118 0.69560 0.44332 0.04200
C 	C 	0.43011 0.69692 0.43186 -0.10600
H 	H 	0.51192 0.62130 0.44412 0.03500
H 	H 	0.55755 0.60310 0.47195 0.03900
H 	H 	0.53790 0.74950 0.50160 0.04100
H 	H 	0.49204 0.76742 0.47377 0.04100
H 	H 	0.64105 0.66984 0.49603 0.03900
H 	H 	0.66767 0.62641 0.52397 0.02900
H 	H 	0.52624 0.59452 0.54908 0.04000
H 	H 	0.49946 0.63767 0.52113 0.04100
C 	C 	0.93283 0.02921 0.69567 -0.08800
C 	C 	0.92269 0.01861 0.67612 0.00900
C 	C 	0.89553 0.04749 0.66627 -0.07000
C 	C 	0.87823 0.08704 0.67586 0.03700
C 	C 	0.88638 0.09576 0.69551 -0.07000
C 	C 	0.91350 0.06684 0.70540 0.01000
C 	C 	0.85447 0.12092 0.66537 -0.02300
C 	C 	0.83465 0.14895 0.65636 -0.02300
C 	C 	0.81129 0.18231 0.64540 0.03900
C 	C 	0.76012 0.16829 0.64596 -0.07300
C 	C 	0.73714 0.19925 0.63480 0.01400
C 	C 	0.76524 0.24447 0.62294 -0.09100
C 	C 	0.81669 0.25890 0.62260 0.01900
C 	C 	0.83956 0.22783 0.63379 -0.07100
H 	H 	0.93658 0.98885 0.66849 0.03500
H 	H 	0.88887 0.04006 0.65111 0.04700
H 	H 	0.87275 0.12597 0.70303 0.04600
H 	H 	0.92098 0.07534 0.72048 0.02700
H 	H 	0.73807 0.13323 0.65496 0.04600
H 	H 	0.69754 0.18816 0.63540 0.00900
H 	H 	0.83886 0.29350 0.61350 0.04000
H 	H 	0.87919 0.23885 0.63329 0.04800
C 	C 	0.52609 0.31956 0.63746 -0.08700
C 	C 	0.49363 0.35139 0.63707 0.01900
C 	C 	0.45216 0.33453 0.64853 -0.07000
C 	C 	0.44298 0.28601 0.66050 0.03900
C 	C 	0.47663 0.25613 0.66163 -0.07100
C 	C 	0.51802 0.27281 0.65017 0.01400
C 	C 	0.39702 0.26356 0.67031 -0.02200
C 	C 	0.35880 0.24396 0.67864 -0.02200
H 	H 	0.49939 0.38760 0.62736 0.04100
H 	H 	0.42643 0.35805 0.64766 0.04900
H 	H 	0.46998 0.21887 0.67097 0.04600
H 	H 	0.54312 0.24842 0.65080 0.01100
H 	H 	0.34742 0.21697 0.71563 0.04800
C 	C 	0.82628 0.54411 0.61249 -0.09200
C 	C 	0.86878 0.58590 0.60503 0.02100
C 	C 	0.90368 0.62584 0.61713 -0.07200
C 	C 	0.89645 0.62437 0.63674 0.04100
C 	C 	0.85435 0.58252 0.64425 -0.07200
C 	C 	0.81936 0.54254 0.63219 0.02100
C 	C 	0.93055 0.66812 0.64904 -0.02200
C 	C 	0.95879 0.70447 0.65952 -0.02100
C 	C 	0.99080 0.74902 0.67215 0.04100
C 	C 	0.98477 0.74318 0.69181 -0.07100
H 	H 	0.87497 0.58717 0.58989 0.03500
H 	H 	0.93612 0.65821 0.61123 0.04800
H 	H 	0.84840 0.58139 0.65941 0.04800
H 	H 	0.78671 0.51074 0.63814 0.02800
H 	H 	0.96114 0.70190 0.69763 0.04900
H 	H 	0.99924 0.78779 0.71894 0.02700
C 	C 	0.84922 0.48044 0.94604 -0.00900
C 	C 	0.83134 0.48548 0.96408 -0.03100
C 	C 	0.86429 0.50732 0.97943 -0.04400
C 	C 	0.91533 0.52411 0.97681 0.00800
C 	C 	0.93312 0.52069 0.95860 -0.04400
C 	C 	0.90016 0.49898 0.94328 -0.03100
C 	C 	0.94989 0.54043 0.99330 0.00900
C 	C 	0.94718 0.49900 0.00748 -0.04300
C 	C 	0.98470 0.51043 0.02135 -0.03200
C 	C 	0.98886 0.59490 0.99383 -0.04500
C 	C 	0.81542 0.45355 0.93057 0.04600
C 	C 	0.78766 0.43114 0.91746 -0.10900
H 	H 	0.79198 0.47150 0.96628 0.03800
H 	H 	0.85019 0.51009 0.99340 0.04000
H 	H 	0.97241 0.53331 0.95644 0.04000
H 	H 	0.91421 0.49542 0.92935 0.03900
H 	H 	0.91714 0.45695 0.00727 0.04000
H 	H 	0.98332 0.47717 0.03177 0.03900
H 	H 	0.99094 0.62753 0.98310 0.04000
C 	C 	0.42548 0.81995 0.02232 -0.00900
C 	C 	0.43525 0.88086 0.02199 -0.03000
C 	C 	0.46366 0.91487 0.00760 -0.04400
C 	C 	0.48256 0.88816 0.99344 0.00900
C 	C 	0.47226 0.82703 0.99365 -0.04400
C 	C 	0.44383 0.79303 0.00808 -0.03100
C 	C 	0.51277 0.92428 0.97834 0.00800
C 	C 	0.49468 0.91756 0.95951 -0.04400
C 	C 	0.52033 0.95682 0.94565 -0.03100
C 	C 	0.56419 0.00297 0.95053 -0.00900
C 	C 	0.58361 0.00788 0.96911 -0.03200
C 	C 	0.55800 0.96865 0.98298 -0.04300
C 	C 	0.58571 0.04925 0.93719 0.04300
C 	C 	0.60348 0.08780 0.92595 -0.10500
C 	C 	0.39843 0.78561 0.03774 0.04600
C 	C 	0.37573 0.75759 0.05076 -0.10900
H 	H 	0.42118 0.90195 0.03295 0.03800
H 	H 	0.47104 0.96195 0.00745 0.04100
H 	H 	0.48658 0.80599 0.98276 0.04000
H 	H 	0.43647 0.74595 0.00826 0.03800
H 	H 	0.45994 0.88325 0.95577 0.04000
H 	H 	0.50517 0.95262 0.93130 0.03900
H 	H 	0.61761 0.04328 0.97297 0.03700
H 	H 	0.57256 0.97376 0.99743 0.04000
C 	C 	0.37244 0.41583 0.03511 -0.01300
C 	C 	0.41895 0.41225 0.03921 -0.02900
C 	C 	0.44504 0.39641 0.02493 -0.04400
C 	C 	0.42467 0.38390 0.00647 0.00900
C 	C 	0.37674 0.38365 0.00272 -0.04500
C 	C 	0.35071 0.39957 0.01701 -0.03100
C 	C 	0.45496 0.37595 0.99080 0.00800
C 	C 	0.47232 0.32853 0.99086 -0.04300
C 	C 	0.50211 0.32200 0.97624 -0.03000
C 	C 	0.51475 0.36284 0.96150 -0.00900
C 	C 	0.49756 0.41030 0.96144 -0.03200
C 	C 	0.46779 0.41689 0.97605 -0.04400
C 	C 	0.54397 0.35485 0.94612 0.04400
C 	C 	0.56846 0.34734 0.93339 -0.11000
C 	C 	0.35119 0.44542 0.04828 0.04600
H 	H 	0.43589 0.42448 0.05319 0.04000
H 	H 	0.48183 0.39619 0.02801 0.04100
H 	H 	0.36038 0.37311 0.98858 0.03900
H 	H 	0.46268 0.29676 0.00220 0.04100
H 	H 	0.51516 0.28509 0.97634 0.04100
H 	H 	0.50712 0.44196 0.95007 0.03500
H 	H 	0.45493 0.45394 0.97597 0.04000
C 	C 	0.96391 0.17104 0.81759 -0.02300
C 	C 	0.93156 0.18508 0.82434 -0.02200
C 	C 	0.89146 0.19981 0.83201 0.03700
C 	C 	0.84367 0.17308 0.82439 -0.07000
C 	C 	0.80426 0.18568 0.83209 0.01200
C 	C 	0.81233 0.22523 0.84755 -0.08800
C 	C 	0.86041 0.25246 0.85506 0.01200
C 	C 	0.89984 0.23969 0.84731 -0.06900
H 	H 	0.83698 0.14232 0.81253 0.04700
H 	H 	0.76752 0.16488 0.82599 0.03200
H 	H 	0.86715 0.28287 0.86701 0.03400
H 	H 	0.93673 0.26048 0.85329 0.04800
C 	C 	0.53705 0.15398 0.85319 -0.09100
C 	C 	0.53894 0.15456 0.83327 0.01400
C 	C 	0.49626 0.12614 0.82229 -0.07100
C 	C 	0.45151 0.09699 0.83114 0.03900
C 	C 	0.44950 0.09638 0.85098 -0.07000
C 	C 	0.49202 0.12473 0.86197 0.01700
C 	C 	0.40714 0.06993 0.81990 -0.02300
C 	C 	0.36955 0.04701 0.81076 -0.02100
H 	H 	0.57332 0.17718 0.82630 0.03000
H 	H 	0.49797 0.12709 0.80694 0.04700
H 	H 	0.41495 0.07408 0.85789 0.04900
H 	H 	0.49006 0.12330 0.87731 0.04200
H 	H 	0.35467 0.06024 0.77358 0.04800
C 	C 	0.74737 0.48438 0.84160 -0.08700
C 	C 	0.72050 0.51656 0.83306 0.01400
C 	C 	0.74525 0.57019 0.82427 -0.07100
C 	C 	0.79691 0.59202 0.82392 0.03800
C 	C 	0.82374 0.55962 0.83213 -0.06900
C 	C 	0.79916 0.50608 0.84094 0.01800
C 	C 	0.82256 0.64814 0.81542 -0.02200
C 	C 	0.84490 0.69497 0.80838 -0.02300
C 	C 	0.87262 0.75069 0.80006 0.03800
C 	C 	0.91486 0.78896 0.80949 -0.07300
C 	C 	0.94443 0.84049 0.80071 0.01000
C 	C 	0.93204 0.85410 0.78234 -0.09500
C 	C 	0.88848 0.81672 0.77326 0.01700
C 	C 	0.85903 0.76517 0.78209 -0.07100
H 	H 	0.68057 0.50023 0.83328 0.02900
H 	H 	0.72424 0.59488 0.81786 0.04700
H 	H 	0.86369 0.57619 0.83188 0.04800
H 	H 	0.82044 0.48212 0.84758 0.04100
H 	H 	0.92543 0.77820 0.82345 0.04500
H 	H 	0.97765 0.86887 0.80798 0.01200
H 	H 	0.87786 0.82699 0.75926 0.04100
H 	H 	0.82618 0.73600 0.77478 0.04900
