data_crystal

_cell_length_a 30.36353
_cell_length_b 26.65135
_cell_length_c 31.09555
_cell_angle_alpha 103.71688
_cell_angle_beta  115.79324
_cell_angle_gamma 112.16684

_symmetry_space_group_name_	'P 1'
_symmetry_space_group_name_H-M	'P 1'

loop_
_symmetry_equiv_pos_as_xyz
  x,y,z

loop_
_atom_site_label
_atom_site_type_symbol
_atom_site_fract_x
_atom_site_fract_y
_atom_site_fract_z
_atom_site_charge
C 	C 	0.73055 0.40164 0.08668 0.04800
C 	C 	0.74557 0.35754 0.08387 -0.02800
C 	C 	0.80179 0.37412 0.09877 0.05000
C 	C 	0.84166 0.43409 0.11208 -0.02400
C 	C 	0.82571 0.47713 0.11129 0.04600
C 	C 	0.77167 0.46198 0.10220 -0.01700
C 	C 	0.68493 0.38707 0.09377 -0.03900
S 	S 	0.70471 0.30403 0.09235 0.05700
C 	C 	0.81409 0.33032 0.08066 -0.05300
S 	S 	0.88846 0.43113 0.09879 0.05100
C 	C 	0.85107 0.52797 0.10354 -0.04900
S 	S 	0.75488 0.50886 0.08214 0.06600
C 	C 	0.66622 0.33304 0.09845 0.01700
H 	H 	0.66834 0.41614 0.09774 0.08600
C 	C 	0.86327 0.35655 0.08005 0.01200
H 	H 	0.78341 0.28086 0.06078 0.07200
C 	C 	0.81638 0.55190 0.08832 -0.00300
H 	H 	0.88939 0.54222 0.10333 0.06600
C 	C 	0.50035 0.23186 0.07224 0.03300
C 	C 	0.53686 0.29634 0.10508 0.00800
C 	C 	0.59183 0.32899 0.11528 -0.02900
C 	C 	0.61022 0.29770 0.09145 0.04400
C 	C 	0.57433 0.23286 0.05997 -0.02600
C 	C 	0.51988 0.20020 0.05072 -0.00100
H 	H 	0.52195 0.32131 0.12144 0.08700
H 	H 	0.61960 0.37870 0.14084 0.10600
H 	H 	0.58761 0.20784 0.04119 0.07100
H 	H 	0.49182 0.15048 0.02499 0.09900
C 	C 	0.90213 0.25589 0.98914 0.05000
C 	C 	0.91420 0.25771 0.03866 -0.01100
C 	C 	0.90062 0.28986 0.06785 -0.00700
C 	C 	0.87494 0.32052 0.04782 0.02300
C 	C 	0.86122 0.31722 0.99746 -0.00900
C 	C 	0.87434 0.28452 0.96797 -0.00600
H 	H 	0.93466 0.23471 0.05476 0.12300
H 	H 	0.91074 0.29160 0.10637 0.08300
H 	H 	0.84046 0.33992 0.98122 0.06800
H 	H 	0.86378 0.28224 0.92921 0.09300
C 	C 	0.47232 0.17824 0.28920 0.07000
C 	C 	0.46987 0.12226 0.27766 -0.02300
C 	C 	0.51909 0.12134 0.28673 0.05300
C 	C 	0.56858 0.17519 0.30206 -0.02500
C 	C 	0.56945 0.22941 0.30919 0.06200
C 	C 	0.52373 0.23222 0.30757 -0.02800
C 	C 	0.43359 0.17932 0.30278 -0.05200
S 	S 	0.42284 0.07801 0.28698 0.06300
C 	C 	0.51595 0.06673 0.26206 -0.05200
S 	S 	0.60477 0.15479 0.28242 0.07100
C 	C 	0.60536 0.27790 0.30523 -0.04000
S 	S 	0.52747 0.29329 0.30015 0.08400
C 	C 	0.40169 0.12484 0.30248 0.01000
H 	H 	0.43591 0.22126 0.32056 0.06800
C 	C 	0.56163 0.07852 0.25619 0.00400
H 	H 	0.48043 0.02064 0.24666 0.07000
C 	C 	0.58696 0.31839 0.29988 0.03800
H 	H 	0.64432 0.28461 0.30835 0.08200
C 	C 	0.32956 0.12183 0.39404 0.04200
C 	C 	0.38605 0.17118 0.41710 -0.00500
C 	C 	0.41060 0.17124 0.38810 -0.02400
C 	C 	0.37831 0.12245 0.33526 0.03400
C 	C 	0.32287 0.07184 0.31320 -0.02000
C 	C 	0.29854 0.07158 0.34243 -0.00100
H 	H 	0.41021 0.21030 0.45681 0.08800
H 	H 	0.45424 0.20968 0.40630 0.06500
H 	H 	0.29789 0.03364 0.27274 0.08600
H 	H 	0.25473 0.03343 0.32418 0.10900
C 	C 	0.65761 0.99482 0.27345 0.01400
C 	C 	0.62668 0.98878 0.29677 -0.05300
C 	C 	0.58940 0.00995 0.28629 0.02200
C 	C 	0.58350 0.03803 0.25296 0.02300
C 	C 	0.60966 0.03796 0.22528 -0.03400
C 	C 	0.64641 0.01625 0.23535 0.02800
H 	H 	0.63463 0.97167 0.32588 0.10300
H 	H 	0.56880 0.00885 0.30735 0.06600
H 	H 	0.60425 0.05811 0.19839 0.06900
H 	H 	0.66954 0.02030 0.21661 0.07300
C 	C 	0.33525 0.48564 0.00806 0.01100
C 	C 	0.32419 0.51689 0.97838 0.02800
C 	C 	0.38600 0.51834 0.06159 0.01500
H 	H 	0.28459 0.49221 0.93741 0.08200
H 	H 	0.39416 0.49478 0.08522 0.08400
C 	C 	0.21578 0.41559 0.44682 0.03800
C 	C 	0.20426 0.46158 0.44482 -0.00200
C 	C 	0.27166 0.42830 0.46414 0.00100
H 	H 	0.16138 0.45233 0.43197 0.08500
H 	H 	0.28123 0.39342 0.46675 0.10500
Zn	Zn	0.18810 0.16896 0.01750 1.20000
Zn	Zn	0.09300 0.10495 0.89278 1.20900
O 	O 	0.06016 0.07092 0.81209 -0.38500
C 	C 	0.26452 0.13918 0.00541 0.30000
C 	C 	0.19041 0.23902 0.95705 0.34400
O 	O 	0.26207 0.17473 0.04046 -0.41700
O 	O 	0.21594 0.09334 0.95842 -0.23700
O 	O 	0.10903 0.12442 0.96768 -0.74500
O 	O 	0.15817 0.18552 0.91216 -0.38400
O 	O 	0.20653 0.24179 0.00481 -0.39800
O 	O 	0.07734 0.05888 0.02189 -0.87300
H 	H 	0.12003 0.08205 0.05007 0.20700
Zn	Zn	0.08728 0.09149 0.46065 1.19900
Zn	Zn	0.99122 0.04230 0.35121 1.20800
O 	O 	0.98426 0.02575 0.28084 -0.41000
C 	C 	0.20220 0.13747 0.48439 0.29700
C 	C 	0.07446 0.17825 0.41720 0.35900
O 	O 	0.15016 0.08767 0.45935 -0.37300
O 	O 	0.21948 0.18857 0.52336 -0.16000
O 	O 	0.00746 0.04744 0.42339 -0.69500
O 	O 	0.02341 0.13087 0.37255 -0.37300
O 	O 	0.10581 0.17142 0.45810 -0.34500
O 	O 	0.94678 0.97748 0.54249 -0.43400
O 	O 	0.97876 0.96570 0.46623 -0.90500
H 	H 	0.01959 0.99424 0.49928 0.20400
C 	C 	0.10515 0.24348 0.37808 0.10300
C 	C 	0.09920 0.23910 0.41956 0.01100
C 	C 	0.12291 0.29360 0.46558 -0.05300
C 	C 	0.16076 0.35121 0.47365 0.01700
C 	C 	0.17042 0.35535 0.43408 0.09300
C 	C 	0.13935 0.30143 0.38420 -0.11600
C 	C 	0.14544 0.30507 0.33891 0.79400
H 	H 	0.08564 0.20153 0.34230 0.11100
H 	H 	0.18373 0.39283 0.51125 0.09900
C 	C 	0.10992 0.29074 0.50718 0.77300
F 	F 	0.10191 0.25069 0.29007 -0.40600
F 	F 	0.19911 0.31564 0.35251 -0.41400
F 	F 	0.14123 0.35243 0.33093 -0.42800
F 	F 	0.14763 0.28115 0.54412 -0.41100
F 	F 	0.05271 0.24341 0.48201 -0.39200
F 	F 	0.11730 0.34541 0.53532 -0.40400
F 	F 	0.76901 0.00126 0.48512 -0.38700
C 	C 	0.24220 0.40239 0.98450 0.00800
C 	C 	0.29176 0.41946 0.98431 0.09900
C 	C 	0.30055 0.37353 0.96364 -0.12900
C 	C 	0.26398 0.31267 0.95100 0.07800
C 	C 	0.21723 0.29677 0.95555 -0.00600
C 	C 	0.20322 0.34061 0.96786 -0.06700
C 	C 	0.14912 0.32273 0.96715 0.78100
H 	H 	0.23498 0.43762 0.99907 0.10100
H 	H 	0.27361 0.27840 0.94033 0.12000
C 	C 	0.35077 0.38986 0.95815 0.79500
F 	F 	0.13337 0.36470 0.96283 -0.39000
F 	F 	0.16030 0.32138 0.01483 -0.42800
F 	F 	0.10226 0.26509 0.92316 -0.44000
F 	F 	0.40293 0.42098 0.00917 -0.43600
F 	F 	0.35340 0.42692 0.93362 -0.42200
F 	F 	0.34403 0.33747 0.92650 -0.40400
C 	C 	0.91154 0.08901 0.05072 0.77600
F 	F 	0.90523 0.12755 0.08283 -0.43600
F 	F 	0.90920 0.10543 0.01122 -0.44100
C 	C 	0.75768 0.93599 0.30634 0.07100
C 	C 	0.76471 0.04775 0.33853 0.04600
C 	C 	0.71018 0.99246 0.29774 0.04900
C 	C 	0.70653 0.93609 0.28024 -0.13600
C 	C 	0.64823 0.87618 0.23445 0.78800
H 	H 	0.76700 0.09074 0.35131 0.09500
F 	F 	0.62387 0.88225 0.18833 -0.47400
F 	F 	0.61052 0.86257 0.24976 -0.45300
C 	C 	0.27241 0.11374 0.48101 0.08700
C 	C 	0.23798 0.13779 0.46419 0.02100
C 	C 	0.23428 0.15735 0.42489 -0.07100
C 	C 	0.26570 0.15278 0.40348 0.01300
C 	C 	0.29920 0.12768 0.41940 0.09000
C 	C 	0.30301 0.10805 0.45869 -0.10500
C 	C 	0.34061 0.08247 0.47768 0.79400
H 	H 	0.27445 0.09852 0.51080 0.09300
H 	H 	0.26399 0.16843 0.37400 0.09000
C 	C 	0.19552 0.18137 0.40467 0.77300
F 	F 	0.33520 0.06178 0.51305 -0.42900
F 	F 	0.39875 0.12819 0.50440 -0.43300
F 	F 	0.32418 0.03325 0.43349 -0.41000
F 	F 	0.21311 0.23254 0.44797 -0.43600
F 	F 	0.13804 0.13568 0.38028 -0.48600
F 	F 	0.19813 0.19856 0.36674 -0.42800
C 	C 	0.95826 0.14810 0.93850 0.01200
C 	C 	0.89729 0.12209 0.90972 -0.06000
C 	C 	0.87770 0.15951 0.92256 0.03400
C 	C 	0.91782 0.22287 0.95922 0.08800
C 	C 	0.97616 0.25072 0.97525 -0.11800
H 	H 	0.83189 0.13871 0.90666 0.10000
C 	C 	0.39603 0.18559 0.00044 -0.00000
C 	C 	0.43827 0.19918 0.05247 0.10600
C 	C 	0.42141 0.18410 0.08581 -0.12900
C 	C 	0.36342 0.16215 0.06863 0.08900
C 	C 	0.32194 0.15269 0.01804 -0.01100
C 	C 	0.33773 0.16214 0.98249 -0.03800
C 	C 	0.29231 0.14486 0.92478 0.77200
H 	H 	0.40916 0.19469 0.97441 0.11700
H 	H 	0.35060 0.15338 0.09493 0.07400
C 	C 	0.46534 0.19255 0.13997 0.79400
F 	F 	0.31760 0.16312 0.89887 -0.40600
F 	F 	0.26234 0.17298 0.92524 -0.45200
F 	F 	0.25331 0.08141 0.89479 -0.40000
F 	F 	0.50689 0.25481 0.17587 -0.47000
F 	F 	0.49274 0.16343 0.13268 -0.44500
F 	F 	0.43888 0.16786 0.16300 -0.46600
O 	O 	0.07251 0.09672 0.11462 -0.37600
F 	F 	0.96570 0.09859 0.08339 -0.46800
H 	H 	0.74133 0.53089 0.98678 0.08200
H 	H 	0.56436 0.38450 0.24930 0.09000
C 	C 	0.36433 0.57999 0.00144 -0.04800
C 	C 	0.24812 0.51963 0.45946 -0.02100
C 	C 	0.31538 0.48614 0.47841 -0.01800
Zn	Zn	0.05577 0.04285 0.95002 1.22800
C 	C 	0.09926 0.05517 0.21287 0.08600
C 	C 	0.08529 0.04438 0.24849 0.01700
H 	H 	0.11946 0.05621 0.28866 0.11300
I 	I 	0.18735 0.09469 0.23878 0.01200
F 	F 	0.06742 0.33891 0.00814 -0.37800
C 	C 	0.82453 0.59466 0.06573 0.04700
H 	H 	0.35559 0.60372 0.97810 0.08200
C 	C 	0.06778 0.04880 0.12200 0.30700
Zn	Zn	0.96816 0.96023 0.39956 1.20900
C 	C 	0.01325 0.00529 0.26970 0.37700
C 	C 	0.02730 0.01804 0.23232 -0.05700
C 	C 	0.05498 0.03962 0.16069 -0.02300
C 	C 	0.97238 0.96817 0.68713 -0.07900
C 	C 	0.05569 0.02138 0.78408 0.33800
F 	F 	0.13618 0.99016 0.38150 -0.49100
F 	F 	0.91709 0.10723 0.39841 -0.43600
C 	C 	0.78166 0.57623 0.01184 -0.04900
C 	C 	0.62702 0.38351 0.31753 0.03700
C 	C 	0.96565 0.94426 0.55968 0.33100
C 	C 	0.94937 0.94555 0.63177 0.09300
C 	C 	0.98724 0.95586 0.61557 -0.07700
C 	C 	0.03293 0.00090 0.72656 -0.01100
C 	C 	0.81155 0.99082 0.34960 -0.06200
C 	C 	0.81598 0.04783 0.36295 -0.03600
C 	C 	0.99594 0.21259 0.96434 0.06400
C 	C 	0.98304 0.11452 0.96020 0.30900
O 	O 	0.00657 0.12970 0.01173 -0.38800
O 	O 	0.87675 0.95616 0.36161 -0.44800
C 	C 	0.86077 0.98717 0.38429 0.29600
C 	C 	0.01873 0.32028 0.00885 0.80100
F 	F 	0.03688 0.33888 0.06222 -0.42000
F 	F 	0.99230 0.34935 0.98820 -0.42900
C 	C 	0.60890 0.41036 0.28546 -0.01700
C 	C 	0.42638 0.58149 0.08458 -0.03000
C 	C 	0.30401 0.53224 0.47663 0.03500
H 	H 	0.23866 0.55466 0.45738 0.06600
H 	H 	0.35837 0.49546 0.49166 0.07400
O 	O 	0.98415 0.07217 0.92900 -0.37600
F 	F 	0.89155 0.11948 0.45643 -0.39900
F 	F 	0.19923 0.96736 0.38019 -0.43900
O 	O 	0.03440 0.02512 0.87769 -0.84600
O 	O 	0.88035 0.00413 0.43533 -0.36700
H 	H 	0.04214 0.23286 0.98231 0.11800
I 	I 	0.85711 0.89488 0.57334 0.04900
C 	C 	0.41581 0.61240 0.05446 0.05000
C 	C 	0.87703 0.65307 0.09733 -0.03900
H 	H 	0.91048 0.66760 0.13887 0.06700
C 	C 	0.68471 0.41786 0.36470 -0.02500
H 	H 	0.69879 0.39824 0.39060 0.06700
C 	C 	0.87494 0.10866 0.40444 0.77200
F 	F 	0.87235 0.15739 0.39806 -0.41100
Zn	Zn	0.04062 0.09041 0.04249 1.22000
Zn	Zn	0.92416 0.97568 0.47287 1.20300
H 	H 	0.94313 0.95999 0.69949 0.06200
C 	C 	0.79160 0.61573 0.98966 0.03000
H 	H 	0.75874 0.60080 0.94778 0.08300
C 	C 	0.64876 0.47017 0.29928 0.00000
H 	H 	0.63452 0.49058 0.27425 0.09500
F 	F 	0.70412 0.48895 0.23909 -0.45500
C 	C 	0.85280 0.05489 0.86688 0.78300
H 	H 	0.75548 0.89316 0.29401 0.07200
C 	C 	0.98303 0.00224 0.17981 0.10900
C 	C 	0.99720 0.01340 0.14453 -0.02700
H 	H 	0.96293 0.00046 0.10394 0.09800
I 	I 	0.89377 0.95737 0.15086 -0.06900
F 	F 	0.65427 0.82691 0.22136 -0.42900
H 	H 	0.79539 0.93997 0.44598 0.05800
F 	F 	0.72420 0.94130 0.51156 -0.43700
F 	F 	0.16227 0.00966 0.07034 -0.47400
C 	C 	0.84413 0.67417 0.02141 0.00400
C 	C 	0.88684 0.69256 0.07524 0.01000
H 	H 	0.92784 0.73725 0.09977 0.07100
C 	C 	0.70723 0.50298 0.34465 0.03200
C 	C 	0.72464 0.47722 0.37804 -0.00100
H 	H 	0.76934 0.50290 0.41391 0.07800
C 	C 	0.53075 0.81677 0.05760 0.06600
C 	C 	0.53462 0.87260 0.07754 -0.01200
C 	C 	0.51143 0.88107 0.10713 0.05200
C 	C 	0.48268 0.83228 0.11511 0.00500
C 	C 	0.47146 0.77399 0.08809 0.05200
C 	C 	0.49588 0.76695 0.06009 -0.02200
C 	C 	0.57686 0.82340 0.05315 -0.03800
S 	S 	0.59519 0.92859 0.09040 0.03400
C 	C 	0.49307 0.92273 0.10987 -0.05900
S 	S 	0.43647 0.84226 0.12498 0.03100
C 	C 	0.45035 0.72402 0.09809 -0.03400
S 	S 	0.49370 0.70186 0.04976 0.09800
C 	C 	0.61743 0.88472 0.07097 0.02500
H 	H 	0.58049 0.78526 0.03782 0.08400
C 	C 	0.45058 0.90703 0.12029 -0.00600
H 	H 	0.50240 0.95574 0.09525 0.06300
C 	C 	0.45894 0.67813 0.07767 0.01000
H 	H 	0.42644 0.71946 0.11607 0.07100
H 	H 	0.46584 0.60628 0.12566 0.09500
C 	C 	0.73274 0.92907 0.02232 0.05700
C 	C 	0.73183 0.89305 0.04862 -0.02200
C 	C 	0.69547 0.88028 0.06595 -0.00900
C 	C 	0.65913 0.90284 0.05661 0.02100
C 	C 	0.66031 0.93931 0.03057 -0.01400
C 	C 	0.69733 0.95274 0.01387 -0.03000
H 	H 	0.75876 0.87436 0.05506 0.12300
H 	H 	0.69511 0.85233 0.08621 0.07400
H 	H 	0.63187 0.95628 0.02232 0.05700
H 	H 	0.69809 0.98097 0.99389 0.08100
C 	C 	0.32194 0.95067 0.05724 0.04800
C 	C 	0.38087 0.99814 0.09788 -0.04900
C 	C 	0.42296 0.98387 0.11800 -0.05600
C 	C 	0.40597 0.92194 0.09980 0.03300
C 	C 	0.34668 0.87448 0.05968 -0.02200
C 	C 	0.30495 0.88887 0.03875 -0.01100
H 	H 	0.39418 0.04599 0.11283 0.14500
H 	H 	0.46873 0.02080 0.14678 0.09900
H 	H 	0.33305 0.82653 0.04374 0.06600
H 	H 	0.25941 0.85198 0.00752 0.08500
C 	C 	0.42062 0.71740 0.46012 0.04600
C 	C 	0.42173 0.77229 0.47417 -0.03000
C 	C 	0.41661 0.79459 0.51628 0.04700
C 	C 	0.40339 0.75767 0.54004 -0.02600
C 	C 	0.39725 0.70017 0.52299 0.04700
C 	C 	0.41097 0.68294 0.48652 -0.02900
C 	C 	0.45016 0.71484 0.43548 -0.05000
S 	S 	0.46021 0.81660 0.45797 0.05200
C 	C 	0.39955 0.83724 0.52136 -0.05200
S 	S 	0.36855 0.77573 0.56353 0.05300
C 	C 	0.36301 0.64977 0.52665 -0.05100
S 	S 	0.37921 0.60661 0.45850 0.05600
C 	C 	0.47355 0.76757 0.43005 0.00300
H 	H 	0.46139 0.68095 0.42959 0.06800
C 	C 	0.37270 0.83294 0.54852 0.00700
H 	H 	0.39746 0.86190 0.49814 0.07100
C 	C 	0.35090 0.59365 0.49334 0.00600
H 	H 	0.34318 0.65300 0.54804 0.07100
C 	C 	0.61245 0.82244 0.41043 0.03400
C 	C 	0.56264 0.82156 0.37676 -0.00400
C 	C 	0.51781 0.80476 0.38395 -0.02600
C 	C 	0.52197 0.78764 0.42421 0.03300
C 	C 	0.57226 0.78953 0.45851 -0.02600
C 	C 	0.61718 0.80659 0.45146 -0.00100
H 	H 	0.55836 0.83308 0.34459 0.08200
H 	H 	0.47935 0.80388 0.35756 0.06400
H 	H 	0.57635 0.77739 0.49032 0.06800
H 	H 	0.65525 0.80656 0.47728 0.08600
C 	C 	0.25378 0.89115 0.51590 0.03800
C 	C 	0.31434 0.93507 0.54939 0.00100
C 	C 	0.35325 0.91597 0.56186 -0.01900
C 	C 	0.33193 0.85280 0.54082 0.03300
C 	C 	0.27135 0.80888 0.50835 -0.02200
C 	C 	0.23247 0.82801 0.49586 -0.00200
H 	H 	0.33115 0.98388 0.56462 0.10400
H 	H 	0.39992 0.95018 0.58678 0.07400
H 	H 	0.25431 0.75996 0.49116 0.06600
H 	H 	0.18574 0.79376 0.46924 0.08500
O 	O 	0.07228 0.99045 0.80725 -0.47100
O 	O 	0.08581 0.93540 0.89809 -0.43300
O 	O 	0.13163 0.02360 0.97513 -0.37600
Zn	Zn	0.92870 0.93550 0.90693 1.18600
C 	C 	0.92976 0.85316 0.95881 0.32400
C 	C 	0.90165 0.98792 0.97257 0.30200
O 	O 	0.89963 0.86071 0.91784 -0.39800
O 	O 	0.88475 0.96455 0.92198 -0.40300
O 	O 	0.95367 0.00347 0.01128 -0.41000
O 	O 	0.06817 0.00554 0.09111 -0.34400
Zn	Zn	0.05162 0.96750 0.85475 1.18800
C 	C 	0.12695 0.97258 0.95033 0.30000
O 	O 	0.03217 0.89170 0.35918 -0.42000
O 	O 	0.05927 0.96613 0.43652 -0.44800
Zn	Zn	0.85018 0.82928 0.33621 1.19200
C 	C 	0.85460 0.74571 0.38468 0.34000
C 	C 	0.79454 0.85211 0.38272 0.32600
O 	O 	0.83176 0.75042 0.33993 -0.39400
O 	O 	0.78656 0.83089 0.33563 -0.39400
O 	O 	0.84561 0.87467 0.42774 -0.42900
O 	O 	0.96939 0.90412 0.52921 -0.37700
Zn	Zn	0.99666 0.92357 0.31733 1.19700
C 	C 	0.06791 0.92690 0.41214 0.32300
C 	C 	0.07068 0.01005 0.71028 0.09100
C 	C 	0.04759 0.98678 0.65489 -0.01700
H 	H 	0.07688 0.99530 0.64257 0.07200
I 	I 	0.16287 0.06274 0.76842 0.14000
C 	C 	0.64647 0.78205 0.36005 0.00800
C 	C 	0.65625 0.83258 0.39855 0.09000
C 	C 	0.70913 0.89100 0.42789 -0.12900
C 	C 	0.75362 0.89618 0.42173 0.07500
C 	C 	0.74509 0.84493 0.38510 -0.01100
C 	C 	0.69073 0.78692 0.35363 -0.04700
C 	C 	0.67908 0.73052 0.31246 0.77400
H 	H 	0.60465 0.73833 0.33615 0.09500
C 	C 	0.71882 0.94736 0.46688 0.76300
F 	F 	0.62820 0.67706 0.29371 -0.42900
F 	F 	0.72440 0.72214 0.33578 -0.42600
F 	F 	0.67309 0.73809 0.26818 -0.41100
F 	F 	0.67201 0.95303 0.44111 -0.44500
C 	C 	0.20254 0.92183 0.45150 0.00600
C 	C 	0.21278 0.91068 0.49564 0.09200
C 	C 	0.18092 0.91389 0.51735 -0.14200
C 	C 	0.13424 0.92063 0.48998 0.08000
C 	C 	0.12147 0.92778 0.44358 -0.03700
C 	C 	0.15852 0.93269 0.42631 -0.07000
C 	C 	0.14936 0.94573 0.37910 0.76800
H 	H 	0.22793 0.92030 0.43582 0.10800
H 	H 	0.10652 0.91826 0.50360 0.05500
C 	C 	0.19464 0.90707 0.56795 0.79300
F 	F 	0.10426 0.89192 0.33033 -0.45400
F 	F 	0.25432 0.94423 0.60813 -0.43200
F 	F 	0.17539 0.84615 0.55516 -0.43200
F 	F 	0.16755 0.92426 0.58886 -0.43400
C 	C 	0.82361 0.00486 0.03726 0.05800
C 	C 	0.77322 0.94493 0.00629 0.03100
C 	C 	0.76245 0.90057 0.96105 -0.10100
C 	C 	0.80617 0.91498 0.95214 0.07900
C 	C 	0.85650 0.97508 0.98285 -0.02700
C 	C 	0.86368 0.02154 0.02380 -0.05600
H 	H 	0.83119 0.03859 0.07156 0.08900
H 	H 	0.80120 0.87944 0.92130 0.08400
C 	C 	0.70486 0.83785 0.92258 0.78500
F 	F 	0.65829 0.84452 0.90898 -0.42700
F 	F 	0.70349 0.80096 0.94722 -0.40100
F 	F 	0.69759 0.80811 0.87469 -0.41600
C 	C 	0.21093 0.97086 0.95852 0.06000
C 	C 	0.17607 0.96567 0.97758 -0.00600
C 	C 	0.19189 0.96012 0.02544 -0.08400
C 	C 	0.24372 0.96201 0.05431 0.01100
C 	C 	0.27749 0.96519 0.03426 0.05800
C 	C 	0.26262 0.97251 0.98731 -0.11600
C 	C 	0.30182 0.98206 0.96797 0.76100
H 	H 	0.19827 0.97503 0.92180 0.08900
H 	H 	0.25681 0.95858 0.09139 0.08100
C 	C 	0.15422 0.95324 0.04632 0.74400
F 	F 	0.28228 0.99326 0.92421 -0.41400
F 	F 	0.30313 0.92990 0.95201 -0.42800
F 	F 	0.35801 0.03226 0.00968 -0.41400
F 	F 	0.09575 0.91043 0.00387 -0.45400
F 	F 	0.16860 0.93319 0.08458 -0.43500
C 	C 	0.76682 0.61694 0.40141 0.00900
C 	C 	0.75006 0.56517 0.35820 0.09200
C 	C 	0.77500 0.57307 0.32905 -0.13200
C 	C 	0.81126 0.63310 0.33995 0.08700
C 	C 	0.82579 0.68497 0.38143 -0.00300
C 	C 	0.80561 0.67710 0.41426 -0.05100
C 	C 	0.82608 0.73249 0.46341 0.77300
H 	H 	0.74907 0.61009 0.42466 0.09700
C 	C 	0.76065 0.51768 0.28443 0.79100
F 	F 	0.80047 0.71498 0.48927 -0.43300
F 	F 	0.81175 0.77142 0.44747 -0.43200
F 	F 	0.88608 0.76440 0.50072 -0.43300
F 	F 	0.82984 0.02231 0.88833 -0.40600
F 	F 	0.87684 0.02895 0.84813 -0.44900
F 	F 	0.80766 0.04982 0.82275 -0.41100
C 	C 	0.87141 0.80821 0.99116 0.10300
C 	C 	0.89865 0.80150 0.96561 -0.02400
C 	C 	0.90056 0.74821 0.95151 -0.05100
C 	C 	0.88083 0.70592 0.96885 -0.00700
C 	C 	0.85644 0.71435 0.99707 0.11500
C 	C 	0.84882 0.76417 0.00592 -0.15900
C 	C 	0.81968 0.77238 0.03376 0.80100
H 	H 	0.86982 0.84902 0.00134 0.05000
H 	H 	0.88607 0.66738 0.96197 0.10100
F 	F 	0.80716 0.81656 0.02969 -0.43900
F 	F 	0.85648 0.79080 0.08836 -0.46900
F 	F 	0.76758 0.71741 0.00987 -0.42900
F 	F 	0.90538 0.74932 0.87726 -0.42800
O 	O 	0.03628 0.98068 0.29694 -0.44400
F 	F 	0.91248 0.67800 0.90040 -0.41900
H 	H 	0.82710 0.63965 0.31524 0.07700
F 	F 	0.79827 0.53512 0.26923 -0.44300
C 	C 	0.92659 0.73813 0.92080 0.76900
F 	F 	0.76569 0.47591 0.30218 -0.44200
O 	O 	0.98734 0.88950 0.99265 -0.37000
O 	O 	0.90681 0.79111 0.42944 -0.38400
F 	F 	0.98686 0.77776 0.95550 -0.40000
O 	O 	0.00347 0.96014 0.93206 -0.76200
H 	H 	0.99350 0.01192 0.85175 0.19000
O 	O 	0.92935 0.87342 0.37723 -0.77800
H 	H 	0.91372 0.92918 0.30132 0.16600
O 	O 	0.95583 0.95461 0.33187 -0.89600
Zn	Zn	0.03527 0.97554 0.01018 1.20600
Zn	Zn	0.94563 0.88036 0.45072 1.19800
