data_crystal

_cell_length_a 16.53146
_cell_length_b 17.97094
_cell_length_c 30.30921
_cell_angle_alpha 60.91273
_cell_angle_beta  118.82089
_cell_angle_gamma 133.13750

_symmetry_space_group_name_	'P 1'
_symmetry_space_group_name_H-M	'P 1'

loop_
_symmetry_equiv_pos_as_xyz
  x,y,z

loop_
_atom_site_label
_atom_site_type_symbol
_atom_site_fract_x
_atom_site_fract_y
_atom_site_fract_z
_atom_site_charge
C 	C 	0.29114 0.66762 0.19262 0.03900
C 	C 	0.40076 0.74192 0.18277 -0.06800
C 	C 	0.43109 0.72579 0.15393 0.03300
C 	C 	0.35311 0.63398 0.13615 -0.07200
C 	C 	0.24856 0.55468 0.15056 0.03800
C 	C 	0.21714 0.57221 0.17819 -0.07000
H 	H 	0.46161 0.81302 0.19647 0.05000
H 	H 	0.37251 0.62539 0.11019 0.05200
H 	H 	0.13353 0.51323 0.18676 0.05700
C 	C 	0.18758 0.56375 0.70147 0.04300
C 	C 	0.30615 0.62277 0.70918 -0.07300
C 	C 	0.35440 0.57815 0.71350 0.04500
C 	C 	0.28437 0.47218 0.71232 -0.07000
C 	C 	0.16529 0.41370 0.70244 0.04600
C 	C 	0.11774 0.45878 0.69864 -0.07400
H 	H 	0.36029 0.70534 0.70845 0.05400
H 	H 	0.32222 0.43586 0.71868 0.07200
H 	H 	0.02593 0.41376 0.69112 0.05800
Co	Co	0.13457 0.07854 0.03513 1.20200
Co	Co	0.03841 0.14506 0.07181 1.18700
Co	Co	0.05987 0.88486 0.11708 1.17900
C 	C 	0.37912 0.15599 0.05191 0.33400
Co	Co	0.19188 0.93165 0.04421 1.14600
O 	O 	0.11463 0.18902 0.01914 -0.45900
O 	O 	0.08760 0.03368 0.10746 -0.54600
C 	C 	0.11743 0.30620 0.11806 0.32800
C 	C 	0.08460 0.02020 0.94473 0.32100
C 	C 	0.22994 0.83660 0.16027 0.32000
O 	O 	0.17934 0.02730 0.97016 -0.34500
O 	O 	0.03851 0.02665 0.96708 -0.33600
O 	O 	0.00897 0.25620 0.11390 -0.40900
O 	O 	0.14967 0.27723 0.10070 -0.38800
O 	O 	0.20156 0.82524 0.11417 -0.41700
O 	O 	0.19056 0.87082 0.16887 -0.40100
O 	O 	0.13133 0.97124 0.06990 -0.81100
C 	C 	0.00833 0.01589 0.24615 0.47000
O 	O 	0.01558 0.10143 0.21399 -0.39500
O 	O 	0.00997 0.95775 0.23157 -0.42600
O 	O 	0.34982 0.05865 0.07008 -0.36900
O 	O 	0.30216 0.17644 0.02863 -0.37800
O 	O 	0.02594 0.80842 0.02151 -0.41100
Co	Co	0.05213 0.99551 0.54904 1.15700
C 	C 	0.27692 0.07260 0.54952 0.34600
Co	Co	0.09597 0.84450 0.54970 1.15600
O 	O 	0.05324 0.11153 0.54601 -0.43600
C 	C 	0.01562 0.17725 0.65253 0.32000
C 	C 	0.16679 0.78395 0.66380 0.31400
O 	O 	0.00623 0.00078 0.46972 -0.29600
O 	O 	0.04517 0.13711 0.64123 -0.38300
O 	O 	0.20574 0.84073 0.62159 -0.41100
O 	O 	0.12017 0.80596 0.67641 -0.39800
O 	O 	0.02409 0.87589 0.57410 -0.77200
O 	O 	0.21979 0.00236 0.52341 -0.37200
O 	O 	0.22518 0.06689 0.57436 -0.37800
C 	C 	0.10194 0.07577 0.85491 0.06600
C 	C 	0.03266 0.00680 0.89099 -0.02200
C 	C 	0.07307 0.04414 0.81206 0.17400
Br	Br	0.18500 0.12160 0.77358 -0.18300
Br	Br	0.23408 0.21528 0.86321 -0.17600
C 	C 	0.01122 0.99150 0.30106 -0.25300
C 	C 	0.09806 0.07027 0.32893 0.17800
C 	C 	0.08516 0.06071 0.37459 0.12600
Br	Br	0.19536 0.17648 0.40735 -0.19400
Br	Br	0.23762 0.18847 0.30610 -0.18900
C 	C 	0.10531 0.27845 0.66794 -0.12600
C 	C 	0.08874 0.30451 0.69627 0.00600
H 	H 	0.18306 0.33361 0.65423 0.08200
H 	H 	0.01158 0.24765 0.71067 0.05400
C 	C 	0.47796 0.64572 0.71634 0.00400
H 	H 	0.46219 0.58428 0.66616 0.08300
C 	C 	0.13367 0.61669 0.68525 -0.00600
C 	C 	0.18788 0.70390 0.69974 -0.14100
H 	H 	0.05264 0.58964 0.65681 0.04400
H 	H 	0.25962 0.72371 0.73329 0.08100
C 	C 	0.20112 0.40736 0.13257 -0.14000
C 	C 	0.16659 0.45688 0.13270 0.00200
H 	H 	0.29121 0.44069 0.14415 0.08800
H 	H 	0.07620 0.42239 0.12175 0.04200
C 	C 	0.24756 0.69311 0.21239 0.00800
C 	C 	0.29012 0.79325 0.20433 -0.14500
H 	H 	0.16119 0.63261 0.21806 0.04000
H 	H 	0.37992 0.84804 0.22014 0.07100
C 	C 	0.43693 0.17728 0.51119 0.01200
C 	C 	0.38887 0.15944 0.54598 -0.15000
H 	H 	0.38542 0.12574 0.48531 0.06600
H 	H 	0.43880 0.21351 0.57028 0.09300
C 	C 	0.49234 0.24008 0.05017 -0.15400
H 	H 	0.51305 0.31841 0.02975 0.09300
C 	C 	0.51610 0.64776 0.68513 -0.13000
H 	H 	0.53504 0.70822 0.73641 0.05000
C 	C 	0.54207 0.80914 0.13969 0.00900
H 	H 	0.55765 0.14687 0.09096 0.05000
C 	C 	0.56009 0.25507 0.51374 0.04400
H 	H 	0.56884 0.38319 0.51031 0.06400
H 	H 	0.57251 0.70630 0.14707 0.09000
C 	C 	0.57636 0.22411 0.06857 0.00400
H 	H 	0.57651 0.14474 0.51532 0.06700
H 	H 	0.57761 0.89059 0.13339 0.02100
C 	C 	0.60729 0.78654 0.14261 -0.14800
C 	C 	0.61625 0.35917 0.51295 -0.06400
C 	C 	0.61991 0.22581 0.51379 -0.07200
C 	C 	0.99579 0.94012 0.45103 0.27200
C 	C 	0.82710 0.35275 0.01912 0.05200
C 	C 	0.72610 0.27631 0.03695 -0.08200
C 	C 	0.68364 0.30562 0.05089 0.04100
C 	C 	0.74360 0.41148 0.04859 -0.06800
C 	C 	0.84794 0.48827 0.03361 0.03100
C 	C 	0.88883 0.45852 0.01840 -0.07600
H 	H 	0.68117 0.19379 0.04070 0.05900
H 	H 	0.70815 0.43378 0.05778 0.05700
H 	H 	0.96888 0.51734 0.00648 0.05100
C 	C 	0.73671 0.29954 0.51443 0.04300
C 	C 	0.73359 0.43243 0.51499 0.03300
C 	C 	0.79290 0.40280 0.51477 -0.06900
H 	H 	0.88383 0.45910 0.51696 0.05400
Co	Co	0.96189 0.94878 0.15474 1.17200
Co	Co	0.90027 0.09570 0.14331 1.18200
C 	C 	0.96040 0.73620 0.05491 0.36200
O 	O 	0.79207 0.08672 0.07054 -0.37700
O 	O 	0.97977 0.06464 0.12418 -0.73100
C 	C 	0.83485 0.14994 0.02944 0.28400
O 	O 	0.97667 0.83622 0.16794 -0.46200
C 	C 	0.72982 0.86813 0.14668 0.33600
O 	O 	0.89672 0.14197 0.01856 -0.37800
O 	O 	0.78390 0.93791 0.17231 -0.42700
O 	O 	0.78695 0.86450 0.12995 -0.41600
O 	O 	0.93773 0.76309 0.07915 -0.40300
Co	Co	0.86328 0.85488 0.66361 1.18700
Co	Co	0.94263 0.04966 0.58645 1.20400
Co	Co	0.97366 0.79827 0.62880 1.18600
Co	Co	0.76760 0.97928 0.64333 1.14700
C 	C 	0.87414 0.64056 0.57422 0.36600
O 	O 	0.70715 0.02729 0.56558 -0.35800
O 	O 	0.84666 0.94985 0.62300 -0.79300
C 	C 	0.77758 0.10713 0.53548 0.31400
O 	O 	0.91205 0.76230 0.68555 -0.45700
C 	C 	0.62179 0.74401 0.66888 0.32300
O 	O 	0.91762 0.90473 0.59247 -0.58900
O 	O 	0.84599 0.10300 0.52749 -0.36700
O 	O 	0.98147 0.85046 0.48030 -0.37600
O 	O 	0.62307 0.82807 0.64035 -0.39700
O 	O 	0.69447 0.73470 0.66873 -0.37800
O 	O 	0.90734 0.13637 0.64426 -0.38800
C 	C 	0.91498 0.93835 0.74655 0.34400
O 	O 	0.81668 0.92532 0.72287 -0.41300
O 	O 	0.95779 0.92447 0.72611 -0.40000
O 	O 	0.97850 0.68411 0.57447 -0.41600
O 	O 	0.85744 0.66047 0.60453 -0.39800
C 	C 	0.92734 0.91147 0.88031 0.02300
C 	C 	0.89709 0.88126 0.83659 0.13700
C 	C 	0.96648 0.95060 0.80053 -0.19000
Br	Br	0.76467 0.74207 0.82776 -0.20500
Br	Br	0.82220 0.82435 0.92407 -0.19200
C 	C 	0.91524 0.89965 0.32129 0.13100
C 	C 	0.98992 0.96813 0.39518 -0.14100
C 	C 	0.90193 0.89070 0.36662 0.08800
Br	Br	0.76079 0.77462 0.38843 -0.20300
Br	Br	0.80420 0.78404 0.28838 -0.21100
C 	C 	0.80445 0.26425 0.52496 -0.00400
C 	C 	0.76331 0.19153 0.50316 -0.13500
H 	H 	0.87968 0.28503 0.55702 0.04000
H 	H 	0.69676 0.17916 0.46749 0.09200
C 	C 	0.79662 0.53999 0.51857 0.03700
C 	C 	0.78690 0.55675 0.55405 -0.19500
H 	H 	0.86589 0.60368 0.49869 0.03900
H 	H 	0.70889 0.50023 0.56775 0.10200
C 	C 	0.87743 0.32058 0.00850 -0.04700
C 	C 	0.81202 0.22914 0.99548 -0.07600
H 	H 	0.96939 0.36211 0.02042 0.05100
H 	H 	0.72581 0.20094 0.97198 0.08500
C 	C 	0.90207 0.63352 0.05855 -0.19100
C 	C 	0.91119 0.60172 0.02957 0.02900
H 	H 	0.85008 0.57565 0.08685 0.09500
H 	H 	0.96780 0.65975 0.00308 0.03800
