data_crystal

_cell_length_a 31.62645
_cell_length_b 27.89099
_cell_length_c 19.16520
_cell_angle_alpha 92.67329
_cell_angle_beta  85.31751
_cell_angle_gamma 124.33734

_symmetry_space_group_name_	'P 1'
_symmetry_space_group_name_H-M	'P 1'

loop_
_symmetry_equiv_pos_as_xyz
  x,y,z

loop_
_atom_site_label
_atom_site_type_symbol
_atom_site_fract_x
_atom_site_fract_y
_atom_site_fract_z
_atom_site_charge
N 	N 	0.02740 0.01712 0.82784 -0.13700
C 	C 	0.17240 0.09527 0.91461 -0.00100
C 	C 	0.12771 0.05177 0.95206 -0.00500
C 	C 	0.07988 0.02640 0.92463 -0.06300
C 	C 	0.07637 0.04383 0.85854 0.07700
C 	C 	0.12110 0.08887 0.82258 -0.06700
C 	C 	0.16887 0.11406 0.85010 -0.02200
C 	C 	0.91641 0.84120 0.88893 0.01800
C 	C 	0.91305 0.88569 0.91964 -0.03200
H 	H 	0.94570 0.08570 0.72225 0.04000
H 	H 	0.02779 0.08642 0.93277 0.05500
H 	H 	0.13007 0.03747 0.00232 0.02900
H 	H 	0.04576 0.99396 0.95511 0.04900
H 	H 	0.11867 0.10460 0.77351 0.05400
H 	H 	0.20314 0.14832 0.82142 0.04700
H 	H 	0.02091 0.92275 0.77553 0.04700
H 	H 	0.88288 0.87562 0.95960 0.04700
C 	C 	0.94169 0.08926 0.46493 0.00900
N 	N 	0.01377 0.00160 0.49276 -0.13700
C 	C 	0.14072 0.07313 0.61900 0.01100
C 	C 	0.09115 0.03095 0.64717 -0.03400
C 	C 	0.04880 0.00922 0.60728 -0.05400
C 	C 	0.05577 0.02853 0.53801 0.07600
C 	C 	0.10502 0.07185 0.51089 -0.06100
C 	C 	0.14728 0.09388 0.55088 -0.02800
C 	C 	0.91126 0.81771 0.50071 0.01000
C 	C 	0.93256 0.91258 0.53913 -0.06500
C 	C 	0.89882 0.85210 0.54052 -0.02900
H 	H 	0.93689 0.09489 0.57794 0.04100
H 	H 	0.08555 0.01418 0.69933 0.04300
H 	H 	0.01085 0.97704 0.62986 0.04000
H 	H 	0.11067 0.08711 0.45781 0.05700
H 	H 	0.18534 0.12587 0.52816 0.04900
H 	H 	0.02747 0.92457 0.42677 0.05300
H 	H 	0.92296 0.93845 0.57125 0.04800
H 	H 	0.86299 0.83197 0.57239 0.04400
Co	Co	0.72705 0.33447 0.04208 1.18800
O 	O 	0.79241 0.34274 0.99318 -0.35700
Co	Co	0.61529 0.32276 0.06193 1.18700
O 	O 	0.66595 0.30660 0.98289 -0.38500
O 	O 	0.67149 0.40116 0.09099 -0.42000
O 	O 	0.72941 0.25911 0.02640 -0.28000
C 	C 	0.71498 0.43301 0.05239 0.33900
O 	O 	0.62775 0.34506 0.95332 -0.32200
C 	C 	0.51691 0.25749 0.08664 0.30100
C 	C 	0.67338 0.30893 0.16654 0.30100
O 	O 	0.54727 0.31040 0.10759 -0.33500
O 	O 	0.54286 0.24107 0.05055 -0.29000
O 	O 	0.72192 0.33033 0.15450 -0.29100
O 	O 	0.64940 0.29054 0.10976 -0.41800
O 	O 	0.74719 0.41661 0.04045 -0.52500
C 	C 	0.77550 0.28876 0.99774 0.32200
C 	C 	0.66193 0.33428 0.93441 0.28600
H 	H 	0.78390 0.44632 0.02255 0.17700
Co	Co	0.67832 0.28816 0.50075 1.18700
O 	O 	0.72705 0.27967 0.42809 -0.34200
Co	Co	0.57519 0.28104 0.57506 1.19400
O 	O 	0.60102 0.23814 0.49065 -0.44600
O 	O 	0.62602 0.36454 0.55039 -0.36800
O 	O 	0.68666 0.21772 0.50972 -0.33400
C 	C 	0.66928 0.38666 0.50996 0.36500
O 	O 	0.54703 0.25837 0.47238 -0.27400
C 	C 	0.49520 0.22806 0.66218 0.30100
C 	C 	0.67378 0.31605 0.63612 0.31200
O 	O 	0.52432 0.28323 0.65032 -0.34000
O 	O 	0.51168 0.20195 0.62350 -0.32100
O 	O 	0.71417 0.33068 0.59541 -0.30800
O 	O 	0.63234 0.27569 0.60761 -0.44900
O 	O 	0.67731 0.35369 0.46658 -0.53200
C 	C 	0.71784 0.23275 0.45483 0.31400
C 	C 	0.57568 0.24212 0.44404 0.30600
H 	H 	0.69339 0.36844 0.41769 0.19000
C 	C 	0.70276 0.37896 0.81945 0.04800
C 	C 	0.67363 0.32836 0.85993 -0.01100
C 	C 	0.64841 0.27323 0.82668 -0.09200
C 	C 	0.65058 0.27047 0.75316 0.05000
C 	C 	0.67620 0.32120 0.71279 -0.01200
C 	C 	0.70333 0.37622 0.74595 -0.09700
C 	C 	0.73015 0.43187 0.70352 0.77700
H 	H 	0.72261 0.42071 0.84567 0.06500
H 	H 	0.63168 0.22873 0.72698 0.08600
C 	C 	0.61955 0.21744 0.86919 0.77900
F 	F 	0.75244 0.48074 0.74578 -0.45300
F 	F 	0.69497 0.43197 0.66536 -0.46300
F 	F 	0.76845 0.43594 0.65840 -0.44800
F 	F 	0.58118 0.21471 0.91280 -0.43100
F 	F 	0.65321 0.21560 0.90888 -0.43200
F 	F 	0.59679 0.16863 0.82683 -0.43300
C 	C 	0.61096 0.30133 0.25916 0.04500
C 	C 	0.64617 0.28774 0.23596 -0.01300
C 	C 	0.65118 0.25001 0.27635 -0.08600
C 	C 	0.62564 0.23317 0.34336 0.03500
C 	C 	0.59275 0.24986 0.36828 -0.01800
C 	C 	0.58050 0.27797 0.32183 -0.09300
C 	C 	0.53348 0.27986 0.33564 0.78000
H 	H 	0.60610 0.32866 0.22703 0.05600
H 	H 	0.63150 0.20729 0.37650 0.06500
C 	C 	0.68461 0.22894 0.24956 0.77700
F 	F 	0.51878 0.28911 0.27427 -0.44400
F 	F 	0.54433 0.32471 0.38134 -0.44400
F 	F 	0.49233 0.22766 0.36329 -0.43100
F 	F 	0.73576 0.27363 0.25334 -0.44400
F 	F 	0.67526 0.21002 0.18101 -0.42900
F 	F 	0.67482 0.18292 0.28898 -0.44300
C 	C 	0.80649 0.63428 0.49782 0.05900
N 	N 	0.84759 0.65999 0.53804 -0.09400
C 	C 	0.88142 0.71875 0.53979 0.02800
C 	C 	0.87465 0.75427 0.49947 -0.01300
C 	C 	0.83321 0.72875 0.45704 -0.01400
C 	C 	0.79913 0.66855 0.45575 -0.05600
H 	H 	0.91356 0.73784 0.57253 0.04100
H 	H 	0.82764 0.75546 0.42490 0.04100
H 	H 	0.76745 0.64861 0.42207 0.05300
C 	C 	0.70392 0.45037 0.50319 -0.10000
C 	C 	0.68408 0.48442 0.50750 0.06900
C 	C 	0.71740 0.54469 0.50535 -0.07400
C 	C 	0.77056 0.57063 0.49813 0.08600
N 	N 	0.78919 0.53678 0.49437 -0.10300
C 	C 	0.75726 0.47777 0.49641 0.10400
H 	H 	0.64301 0.46430 0.51286 0.05800
H 	H 	0.70210 0.57110 0.51026 0.06700
H 	H 	0.77337 0.45221 0.49422 0.04600
C 	C 	0.85325 0.15783 0.43781 0.05800
N 	N 	0.83726 0.10347 0.41485 -0.09900
C 	C 	0.86547 0.08127 0.42225 0.02700
C 	C 	0.91192 0.11406 0.45481 -0.01200
C 	C 	0.92931 0.17017 0.47828 -0.01600
C 	C 	0.89988 0.19219 0.46997 -0.05500
H 	H 	0.85137 0.03773 0.40386 0.04100
H 	H 	0.91245 0.23489 0.49011 0.05300
C 	C 	0.75210 0.21279 0.44220 -0.07700
C 	C 	0.80313 0.25079 0.41635 0.04900
C 	C 	0.83650 0.23287 0.41346 -0.07100
C 	C 	0.81842 0.17697 0.43659 0.07700
N 	N 	0.76805 0.13979 0.45827 -0.10500
C 	C 	0.73493 0.15640 0.46159 0.08500
H 	H 	0.81724 0.29440 0.40032 0.05900
H 	H 	0.87611 0.26227 0.39406 0.06300
H 	H 	0.69537 0.12601 0.48045 0.05700
C 	C 	0.33567 0.14997 0.70820 0.07100
N 	N 	0.37066 0.20533 0.72939 -0.10900
C 	C 	0.42212 0.22991 0.71947 0.07600
C 	C 	0.44042 0.19854 0.68606 -0.08500
C 	C 	0.40515 0.14012 0.66937 0.04200
C 	C 	0.35273 0.11588 0.67964 -0.07000
H 	H 	0.44873 0.27450 0.73524 0.05000
H 	H 	0.41820 0.11437 0.64514 0.05900
H 	H 	0.32575 0.07218 0.66139 0.06300
C 	C 	0.18616 0.09305 0.65878 -0.01400
C 	C 	0.19380 0.05278 0.68550 -0.01500
C 	C 	0.24152 0.07174 0.70877 -0.05900
C 	C 	0.28188 0.13075 0.70269 0.05600
N 	N 	0.27209 0.16982 0.68335 -0.10100
C 	C 	0.22533 0.15240 0.66239 0.02400
H 	H 	0.16372 0.00681 0.68528 0.04100
H 	H 	0.24765 0.04060 0.72881 0.05100
H 	H 	0.21932 0.18451 0.64550 0.03900
C 	C 	0.81475 0.66742 0.96383 0.07100
N 	N 	0.84105 0.71253 0.00894 -0.12500
C 	C 	0.87357 0.76820 0.98589 0.06300
C 	C 	0.88066 0.78066 0.91413 -0.02600
C 	C 	0.85372 0.73506 0.86684 -0.00200
C 	C 	0.82120 0.67819 0.89149 -0.06100
H 	H 	0.89446 0.80271 0.02329 0.01500
H 	H 	0.85836 0.74355 0.81119 0.04200
H 	H 	0.80232 0.64273 0.85458 0.07000
C 	C 	0.73402 0.49365 0.03777 -0.14800
C 	C 	0.71406 0.50634 0.98456 0.07300
C 	C 	0.73907 0.56350 0.96148 -0.08400
C 	C 	0.78470 0.60737 0.99102 0.08900
N 	N 	0.80168 0.59448 0.04561 -0.12500
C 	C 	0.77737 0.53918 0.06955 0.08600
H 	H 	0.68036 0.47187 0.95958 0.03400
H 	H 	0.72349 0.57346 0.92056 0.07300
H 	H 	0.79293 0.53024 0.11152 0.02800
C 	C 	0.88038 0.19344 0.86359 0.05800
N 	N 	0.85596 0.13576 0.84867 -0.09700
C 	C 	0.88255 0.11132 0.83235 0.02800
C 	C 	0.93626 0.14530 0.83163 -0.01200
C 	C 	0.93425 0.22923 0.86026 -0.05400
H 	H 	0.86185 0.06502 0.82291 0.04300
H 	H 	0.95422 0.27490 0.87339 0.05400
C 	C 	0.79895 0.26232 0.95711 -0.08800
C 	C 	0.83710 0.29353 0.90357 0.04500
C 	C 	0.86249 0.27017 0.87040 -0.07400
C 	C 	0.85016 0.21606 0.89193 0.07900
N 	N 	0.81131 0.18518 0.94185 -0.10500
C 	C 	0.78564 0.20692 0.97440 0.10600
H 	H 	0.84740 0.33592 0.88819 0.04900
H 	H 	0.89205 0.29428 0.82906 0.06200
H 	H 	0.75587 0.18180 0.01510 0.05700
C 	C 	0.36575 0.18727 0.02924 0.05300
N 	N 	0.38469 0.15381 0.02810 -0.11000
C 	C 	0.43179 0.17456 0.05063 0.07700
C 	C 	0.46257 0.23184 0.07498 -0.07200
C 	C 	0.44261 0.26585 0.08025 0.03600
C 	C 	0.39403 0.24354 0.05727 -0.05800
H 	H 	0.44599 0.14707 0.04760 0.06500
H 	H 	0.46525 0.30999 0.09966 0.05900
H 	H 	0.37926 0.27045 0.05894 0.06300
C 	C 	0.22299 0.12027 0.94227 0.01000
C 	C 	0.25836 0.11093 0.90744 -0.01600
C 	C 	0.30550 0.13350 0.93511 -0.05300
C 	C 	0.31684 0.16506 0.99795 0.08800
N 	N 	0.28207 0.17422 0.03078 -0.11500
C 	C 	0.23585 0.15270 0.00442 0.00500
H 	H 	0.24904 0.08562 0.85970 0.04300
H 	H 	0.33306 0.12655 0.90799 0.06900
H 	H 	0.20903 0.16060 0.03188 0.03900
C 	C 	0.96440 0.11734 0.82799 0.00900
C 	C 	0.96412 0.08643 0.76792 -0.02800
C 	C 	0.95537 0.85491 0.83656 -0.03300
C 	C 	0.94925 0.94344 0.90021 -0.06200
H 	H 	0.95862 0.82102 0.81278 0.04700
H 	H 	0.94736 0.97714 0.92710 0.05100
C 	C 	0.95913 0.07095 0.40688 -0.02600
C 	C 	0.95023 0.08094 0.53274 -0.02600
H 	H 	0.95315 0.07767 0.35433 0.04300
C 	C 	0.96215 0.20500 0.84391 -0.01500
C 	C 	0.97488 0.05321 0.54237 -0.06600
C 	C 	0.95797 0.84406 0.46033 -0.02900
H 	H 	0.96787 0.81771 0.42960 0.04500
H 	H 	0.96515 0.19635 0.50346 0.04100
H 	H 	0.98497 0.03016 0.72158 0.05000
C 	C 	0.98654 0.05520 0.76736 -0.06300
C 	C 	0.98873 0.11836 0.88659 -0.02500
C 	C 	0.99092 0.91261 0.81574 -0.05900
C 	C 	0.98857 0.95737 0.84780 0.06700
H 	H 	0.98897 0.14196 0.93327 0.04700
C 	C 	0.98351 0.04300 0.41650 -0.06400
C 	C 	0.99082 0.03313 0.48410 0.08100
C 	C 	0.97903 0.93918 0.49727 0.07100
H 	H 	0.98054 0.04621 0.59486 0.04900
C 	C 	0.00914 0.05433 0.82682 0.07900
C 	C 	0.01101 0.08713 0.88615 -0.06600
C 	C 	0.99167 0.90450 0.45866 -0.06200
H 	H 	0.99615 0.02821 0.37143 0.05600
H 	H 	0.00365 0.23209 0.84363 0.04200
