data_crystal

_cell_length_a 27.92765
_cell_length_b 28.62393
_cell_length_c 27.13581
_cell_angle_alpha 61.19120
_cell_angle_beta  118.47877
_cell_angle_gamma 133.17452

_symmetry_space_group_name_	'P 1'
_symmetry_space_group_name_H-M	'P 1'

loop_
_symmetry_equiv_pos_as_xyz
  x,y,z

loop_
_atom_site_label
_atom_site_type_symbol
_atom_site_fract_x
_atom_site_fract_y
_atom_site_fract_z
_atom_site_charge
C 	C 	0.70289 0.29068 0.02605 0.10900
N 	N 	0.74032 0.35432 0.02850 -0.13900
C 	C 	0.71077 0.37635 0.02992 0.11200
N 	N 	0.64434 0.33501 0.02934 -0.13700
C 	C 	0.60716 0.27128 0.02856 0.11500
N 	N 	0.63634 0.24895 0.02696 -0.14100
C 	C 	0.71777 0.32782 0.50640 0.11000
N 	N 	0.76295 0.39125 0.51203 -0.14000
C 	C 	0.74194 0.42034 0.51565 0.11300
N 	N 	0.67647 0.38572 0.51495 -0.13700
C 	C 	0.63198 0.32187 0.51199 0.11400
N 	N 	0.65227 0.29330 0.50661 -0.14000
C 	C 	0.27953 0.62400 0.30870 0.11300
N 	N 	0.24633 0.56052 0.30847 -0.13800
C 	C 	0.27976 0.54257 0.30694 0.11600
N 	N 	0.34582 0.58775 0.30555 -0.13800
C 	C 	0.37875 0.65109 0.30470 0.11700
N 	N 	0.34561 0.66927 0.30612 -0.13800
C 	C 	0.30342 0.66871 0.81402 0.11300
N 	N 	0.26481 0.60341 0.81610 -0.13800
C 	C 	0.29000 0.57969 0.81018 0.11500
N 	N 	0.35307 0.62111 0.80154 -0.13700
C 	C 	0.39120 0.68621 0.79824 0.11500
N 	N 	0.36659 0.71019 0.80461 -0.13600
Co	Co	0.06740 0.94634 0.18820 1.19800
Co	Co	0.03360 0.00010 0.24208 1.16200
C 	C 	0.05991 0.82369 0.21477 0.29700
Co	Co	0.04411 0.89338 0.09091 1.17400
O 	O 	0.05235 0.09859 0.28080 -0.41300
C 	C 	0.10018 0.13140 0.25469 0.30400
O 	O 	0.09868 0.98363 0.25343 -0.44100
C 	C 	0.17637 0.00817 0.13585 0.25000
O 	O 	0.09846 0.10217 0.22778 -0.40900
O 	O 	0.14471 0.94764 0.13433 -0.36400
O 	O 	0.14874 0.02202 0.14975 -0.41000
O 	O 	0.01741 0.95815 0.32624 -0.34500
O 	O 	0.01642 0.92007 0.12729 -0.74500
C 	C 	0.81186 0.93424 0.19351 0.29600
O 	O 	0.84985 0.99529 0.19744 -0.38400
O 	O 	0.82731 0.91740 0.16874 -0.38100
O 	O 	0.02210 0.81533 0.16255 -0.38900
O 	O 	0.07573 0.86776 0.23541 -0.37300
O 	O 	0.06158 0.97411 0.02167 -0.37700
Co	Co	0.10266 0.00090 0.68466 1.17000
Co	Co	0.04977 0.04016 0.73386 1.17900
C 	C 	0.14202 0.91262 0.73273 0.29800
Co	Co	0.08501 0.93163 0.60684 1.17800
O 	O 	0.03424 0.11988 0.76951 -0.40700
C 	C 	0.08474 0.16120 0.74428 0.30300
O 	O 	0.12771 0.04156 0.74445 -0.48500
C 	C 	0.19741 0.07491 0.60346 0.28700
O 	O 	0.10187 0.13951 0.72688 -0.38800
O 	O 	0.14977 0.03098 0.57172 -0.41100
O 	O 	0.18953 0.06994 0.65116 -0.38900
O 	O 	0.02672 0.98331 0.81547 -0.34400
O 	O 	0.05257 0.96484 0.62951 -0.73600
C 	C 	0.81761 0.91662 0.70917 0.29800
O 	O 	0.83821 0.97642 0.70118 -0.38300
O 	O 	0.85158 0.90817 0.69747 -0.39200
O 	O 	0.15827 0.94018 0.68308 -0.38900
O 	O 	0.10631 0.92204 0.74035 -0.38000
H 	H 	0.05217 0.96484 0.92907 0.05900
H 	H 	0.01772 0.91933 0.43772 0.09200
C 	C 	0.24831 0.51020 0.80974 -0.00600
C 	C 	0.19269 0.48655 0.76358 -0.03000
C 	C 	0.16679 0.42972 0.75142 -0.03400
C 	C 	0.19803 0.39710 0.78450 -0.00800
C 	C 	0.24788 0.41588 0.83565 0.02700
C 	C 	0.27308 0.47266 0.84766 -0.05000
C 	C 	0.27244 0.37818 0.87392 -0.04900
C 	C 	0.24808 0.32205 0.86198 -0.03400
C 	C 	0.20149 0.30468 0.81007 0.00200
C 	C 	0.17891 0.34424 0.76933 0.01400
C 	C 	0.14029 0.33154 0.71399 -0.05500
C 	C 	0.11520 0.27426 0.70330 0.00700
C 	C 	0.13014 0.23036 0.74668 -0.07800
C 	C 	0.17647 0.24763 0.79863 -0.00900
H 	H 	0.17141 0.51384 0.73550 0.04300
H 	H 	0.12179 0.41061 0.71747 0.04000
H 	H 	0.31445 0.48968 0.88473 0.04800
H 	H 	0.30987 0.39186 0.91352 0.04100
H 	H 	0.26621 0.29245 0.89289 0.03500
H 	H 	0.13087 0.36620 0.67890 0.04600
H 	H 	0.08142 0.26241 0.66215 0.03600
H 	H 	0.18972 0.21459 0.83149 0.03400
C 	C 	0.75121 0.86052 0.72201 -0.07400
C 	C 	0.74578 0.83252 0.77965 0.00500
C 	C 	0.68588 0.80164 0.79300 -0.05400
C 	C 	0.63137 0.80050 0.74843 0.01300
C 	C 	0.63338 0.81886 0.69040 0.00700
C 	C 	0.69350 0.84898 0.67754 -0.01000
C 	C 	0.57606 0.80869 0.64583 -0.03300
C 	C 	0.51730 0.78189 0.65811 -0.04600
C 	C 	0.51598 0.76817 0.71472 0.02800
C 	C 	0.57411 0.78016 0.76011 -0.00600
C 	C 	0.57478 0.77536 0.81477 -0.03300
C 	C 	0.51577 0.74983 0.82596 -0.02900
C 	C 	0.45621 0.73095 0.78256 -0.00500
C 	C 	0.45719 0.74283 0.72645 -0.04900
H 	H 	0.78929 0.83822 0.81430 0.03500
H 	H 	0.68189 0.77790 0.83754 0.04300
H 	H 	0.69697 0.86818 0.63287 0.04300
H 	H 	0.57690 0.82133 0.60148 0.04300
H 	H 	0.47308 0.77318 0.62321 0.04500
H 	H 	0.62087 0.79296 0.84803 0.04000
H 	H 	0.51582 0.74267 0.86899 0.04200
H 	H 	0.41138 0.72976 0.69253 0.05000
C 	C 	0.27625 0.69497 0.82034 -0.00400
C 	C 	0.31935 0.74704 0.84746 -0.02900
C 	C 	0.29522 0.77562 0.84946 -0.03300
C 	C 	0.22807 0.75486 0.82128 -0.00600
C 	C 	0.18293 0.69755 0.79983 0.02700
C 	C 	0.20747 0.66864 0.79858 -0.05100
C 	C 	0.11397 0.67007 0.77939 -0.04700
C 	C 	0.08996 0.70126 0.77621 -0.03500
C 	C 	0.13486 0.76253 0.79009 0.00800
C 	C 	0.20457 0.79002 0.81330 0.01200
C 	C 	0.24949 0.85464 0.82175 -0.05100
C 	C 	0.22599 0.89180 0.80421 0.00900
C 	C 	0.15827 0.86645 0.77654 -0.07000
C 	C 	0.11196 0.79979 0.77516 -0.01700
H 	H 	0.37146 0.76479 0.86788 0.04600
H 	H 	0.32784 0.81108 0.87535 0.04100
H 	H 	0.17342 0.62682 0.77946 0.05100
H 	H 	0.07881 0.62468 0.76524 0.04500
H 	H 	0.03659 0.67957 0.75959 0.04300
H 	H 	0.30313 0.87857 0.83730 0.04800
H 	H 	0.26196 0.94294 0.80671 0.04100
H 	H 	0.05901 0.77935 0.75585 0.05000
C 	C 	0.24452 0.47525 0.30441 -0.00600
C 	C 	0.19627 0.45358 0.25445 -0.02900
C 	C 	0.17845 0.40003 0.24305 -0.03300
C 	C 	0.21042 0.36856 0.28111 -0.00800
C 	C 	0.25281 0.38553 0.33476 0.02700
C 	C 	0.27009 0.43916 0.34576 -0.05000
C 	C 	0.27725 0.34862 0.37693 -0.04900
C 	C 	0.25879 0.29411 0.36700 -0.03400
C 	C 	0.21855 0.27768 0.31361 0.00200
C 	C 	0.19792 0.31751 0.26881 0.01400
C 	C 	0.16630 0.30564 0.21305 -0.05500
C 	C 	0.14340 0.24765 0.20543 0.00900
C 	C 	0.15261 0.20177 0.25289 -0.08100
C 	C 	0.19619 0.22020 0.30512 -0.01000
H 	H 	0.17458 0.47993 0.22320 0.04400
H 	H 	0.13872 0.38234 0.20570 0.04100
H 	H 	0.30585 0.45476 0.38531 0.04800
H 	H 	0.30936 0.36121 0.41815 0.04300
H 	H 	0.27577 0.26452 0.40100 0.03600
H 	H 	0.16012 0.34108 0.17567 0.04700
H 	H 	0.11360 0.23585 0.16370 0.04200
H 	H 	0.20679 0.18644 0.34095 0.03300
C 	C 	0.44880 0.70051 0.29818 -0.00600
C 	C 	0.46840 0.76162 0.25815 -0.02800
C 	C 	0.52937 0.80221 0.24208 -0.03300
C 	C 	0.57009 0.78050 0.26409 -0.00600
C 	C 	0.55441 0.72309 0.30995 0.02700
C 	C 	0.49356 0.68315 0.32635 -0.04900
C 	C 	0.59939 0.70599 0.33863 -0.04700
C 	C 	0.65919 0.74457 0.32160 -0.03400
C 	C 	0.67330 0.79881 0.27361 0.00600
C 	C 	0.62735 0.81563 0.24278 0.01500
C 	C 	0.63777 0.86424 0.18996 -0.05300
C 	C 	0.69708 0.90118 0.17267 0.01300
C 	C 	0.74518 0.88825 0.20606 -0.07300
C 	C 	0.73244 0.83595 0.25545 -0.01300
H 	H 	0.43558 0.77693 0.23827 0.04800
H 	H 	0.54545 0.85090 0.21419 0.04400
H 	H 	0.47992 0.63748 0.35961 0.05000
H 	H 	0.58825 0.66288 0.37459 0.04300
H 	H 	0.69398 0.73130 0.34504 0.03900
H 	H 	0.59935 0.87189 0.16111 0.04900
H 	H 	0.70586 0.94023 0.13334 0.04200
H 	H 	0.76926 0.82522 0.28049 0.04000
C 	C 	0.24373 0.64450 0.31015 -0.00200
C 	C 	0.28083 0.70333 0.32582 -0.03200
C 	C 	0.24870 0.72783 0.32027 -0.02900
C 	C 	0.17773 0.69212 0.30141 -0.01500
C 	C 	0.14008 0.63204 0.28646 0.03700
C 	C 	0.17315 0.60811 0.29195 -0.05500
C 	C 	0.07040 0.59865 0.26268 -0.06400
C 	C 	0.03855 0.62655 0.24923 0.00500
C 	C 	0.07516 0.68696 0.26167 -0.01900
C 	C 	0.14369 0.71768 0.29192 0.02600
C 	C 	0.17644 0.77374 0.31061 -0.06000
C 	C 	0.14663 0.80606 0.28913 0.01600
C 	C 	0.08233 0.78067 0.25187 -0.08400
C 	C 	0.04474 0.71844 0.24217 0.02300
H 	H 	0.33523 0.73152 0.34064 0.04800
H 	H 	0.27978 0.77616 0.32760 0.04100
H 	H 	0.14417 0.56276 0.27957 0.05400
H 	H 	0.04126 0.55218 0.25219 0.05100
H 	H 	0.22352 0.79131 0.34274 0.05000
H 	H 	0.17459 0.85204 0.29988 0.04300
C 	C 	0.80210 0.09601 0.54381 0.00300
C 	C 	0.77282 0.12880 0.52240 -0.06000
C 	C 	0.81406 0.19662 0.52052 0.01100
C 	C 	0.82997 0.29843 0.50325 0.02500
C 	C 	0.78740 0.22868 0.51259 -0.01100
C 	C 	0.72221 0.19251 0.51999 -0.03600
C 	C 	0.69918 0.22509 0.51596 -0.03400
C 	C 	0.74087 0.29426 0.50573 -0.00600
C 	C 	0.80561 0.33082 0.49780 -0.05400
H 	H 	0.77005 0.04293 0.55000 0.02500
H 	H 	0.71871 0.10172 0.50644 0.03800
H 	H 	0.69066 0.13920 0.53248 0.03200
H 	H 	0.64948 0.19604 0.52291 0.04200
H 	H 	0.83793 0.38424 0.48939 0.04900
C 	C 	0.79098 0.48443 0.53030 -0.00800
C 	C 	0.79431 0.53961 0.48848 -0.03000
C 	C 	0.81842 0.59294 0.50512 -0.03500
C 	C 	0.83717 0.59038 0.56430 -0.00800
C 	C 	0.84269 0.53898 0.60598 0.02400
C 	C 	0.81947 0.48626 0.58864 -0.05100
C 	C 	0.85326 0.63922 0.58315 0.01000
C 	C 	0.83659 0.68391 0.54558 -0.05300
H 	H 	0.77506 0.53976 0.44306 0.04000
H 	H 	0.82369 0.63624 0.47203 0.03700
H 	H 	0.81902 0.44447 0.62087 0.04400
H 	H 	0.80327 0.67720 0.50331 0.04300
C 	C 	0.56718 0.28095 0.52662 -0.00800
C 	C 	0.50693 0.25532 0.48461 -0.03200
C 	C 	0.44613 0.22486 0.49600 -0.03600
C 	C 	0.44551 0.22176 0.54935 -0.01000
C 	C 	0.50553 0.24188 0.59354 0.02500
C 	C 	0.56618 0.27260 0.58146 -0.05100
C 	C 	0.50403 0.22987 0.64955 -0.05000
C 	C 	0.44338 0.19688 0.66249 -0.03700
C 	C 	0.38397 0.17893 0.61888 0.00200
C 	C 	0.38553 0.19524 0.56113 0.01100
C 	C 	0.32805 0.18675 0.51675 -0.05800
C 	C 	0.26734 0.15226 0.53055 0.00400
C 	C 	0.26354 0.12735 0.58853 -0.07600
C 	C 	0.32270 0.14420 0.63236 -0.01700
H 	H 	0.50724 0.25961 0.44283 0.04000
H 	H 	0.39980 0.20157 0.46434 0.03600
H 	H 	0.61279 0.29070 0.61449 0.04600
H 	H 	0.54976 0.24468 0.68357 0.03900
H 	H 	0.44274 0.18583 0.70650 0.03400
H 	H 	0.33045 0.20809 0.47183 0.04100
H 	H 	0.22266 0.14316 0.49617 0.03400
H 	H 	0.32042 0.12739 0.67708 0.04000
C 	C 	0.73494 0.26641 0.02402 -0.00300
C 	C 	0.79938 0.31128 0.01235 -0.04000
C 	C 	0.83130 0.28855 0.01373 -0.01800
C 	C 	0.80042 0.22010 0.02941 -0.01800
C 	C 	0.73259 0.17526 0.03447 0.02900
C 	C 	0.70086 0.19841 0.03324 -0.05700
C 	C 	0.69698 0.10787 0.04037 -0.05500
C 	C 	0.72890 0.08401 0.04430 -0.03500
C 	C 	0.79819 0.12623 0.04652 -0.00300
C 	C 	0.83508 0.19490 0.03953 0.01600
C 	C 	0.83215 0.09953 0.06119 -0.01400
H 	H 	0.82446 0.36396 0.00118 0.04700
H 	H 	0.65003 0.16346 0.03991 0.04800
H 	H 	0.64426 0.07372 0.04193 0.03500
H 	H 	0.70029 0.03177 0.04855 0.02600
H 	H 	0.80397 0.04675 0.06806 0.02500
C 	C 	0.83807 0.63036 0.11178 -0.05200
C 	C 	0.80506 0.61309 0.05805 0.00500
C 	C 	0.76414 0.54696 0.99556 0.01100
C 	C 	0.78841 0.55620 0.05182 0.00700
C 	C 	0.79268 0.50716 0.10007 -0.03800
C 	C 	0.77605 0.45242 0.09209 -0.03100
C 	C 	0.75101 0.44309 0.03658 0.00300
C 	C 	0.74778 0.49165 0.98844 -0.06100
H 	H 	0.80350 0.50798 0.14355 0.03800
H 	H 	0.77717 0.41423 0.12954 0.04000
H 	H 	0.72761 0.48388 0.94547 0.04500
C 	C 	0.24407 0.05914 0.12462 -0.06800
C 	C 	0.25199 0.10327 0.07020 -0.00100
C 	C 	0.30865 0.13620 0.05062 -0.05400
C 	C 	0.36075 0.12832 0.08696 0.01100
C 	C 	0.35268 0.08403 0.14235 0.00300
C 	C 	0.29572 0.05186 0.16148 -0.02000
C 	C 	0.39902 0.06876 0.17644 -0.03800
C 	C 	0.45254 0.09572 0.15597 -0.05100
C 	C 	0.46345 0.14182 0.10254 0.02400
C 	C 	0.41906 0.16051 0.06828 -0.01100
C 	C 	0.43616 0.21321 0.01835 -0.02600
C 	C 	0.49372 0.24370 0.00157 -0.02000
C 	C 	0.53765 0.22547 0.03576 -0.01100
C 	C 	0.52097 0.17277 0.08482 -0.05100
H 	H 	0.21140 0.10777 0.04095 0.03600
H 	H 	0.30870 0.16302 0.00591 0.04400
H 	H 	0.28903 0.01702 0.20342 0.03000
H 	H 	0.39251 0.03435 0.21850 0.03000
H 	H 	0.48680 0.08194 0.18254 0.03600
H 	H 	0.40858 0.23434 0.99493 0.02700
H 	H 	0.50692 0.28515 0.96407 0.03200
H 	H 	0.55550 0.15929 0.11168 0.04400
C 	C 	0.01301 0.98158 0.98998 0.33300
O 	O 	0.02102 0.01450 0.65214 -0.59700
C 	C 	0.01790 0.97877 0.90302 -0.02400
H 	H 	0.85343 0.77400 0.53281 0.03400
C 	C 	0.79167 0.65593 0.00825 0.01700
C 	C 	0.81069 0.71376 0.01290 -0.00100
C 	C 	0.76435 0.64347 0.95365 -0.05200
C 	C 	0.75249 0.59071 0.94721 -0.04100
H 	H 	0.73295 0.58312 0.90432 0.03900
H 	H 	0.75413 0.67615 0.91561 0.04100
O 	O 	0.01282 0.91567 0.52897 -0.38000
O 	O 	0.01551 0.83666 0.64551 -0.37300
H 	H 	0.80285 0.74770 0.97437 0.02900
H 	H 	0.85450 0.60272 0.14985 0.04000
H 	H 	0.87797 0.32420 0.99959 0.02100
C 	C 	0.86182 0.73696 0.56345 -0.00000
C 	C 	0.87017 0.54018 0.66451 -0.05100
C 	C 	0.85658 0.68818 0.11539 0.00400
C 	C 	0.87244 0.13088 0.56116 -0.08100
C 	C 	0.84748 0.73228 0.06547 -0.08100
H 	H 	0.87507 0.50129 0.69647 0.03700
C 	C 	0.88435 0.23329 0.52810 -0.00000
C 	C 	0.88469 0.64172 0.64188 0.00300
O 	O 	0.88703 0.94369 0.07764 -0.45600
O 	O 	0.88270 0.82791 0.08361 -0.38700
O 	O 	0.88889 0.04670 0.59297 -0.40200
H 	H 	0.88456 0.70203 0.15633 0.03300
C 	C 	0.89779 0.33466 0.50345 -0.05200
C 	C 	0.89228 0.59183 0.68212 -0.03800
C 	C 	0.89426 0.80263 0.06442 0.30200
O 	O 	0.89381 0.93807 0.59270 -0.45900
C 	C 	0.90278 0.13894 0.07477 -0.08700
C 	C 	0.90214 0.09557 0.60433 0.29000
C 	C 	0.90217 0.74505 0.61913 -0.06900
C 	C 	0.90614 0.23503 0.04883 -0.06200
H 	H 	0.91448 0.59249 0.72740 0.03100
C 	C 	0.91326 0.20010 0.54873 -0.01400
C 	C 	0.90917 0.69481 0.65947 -0.01700
Co	Co	0.91748 0.97954 0.14369 1.19300
Co	Co	0.92147 0.98633 0.64736 1.20500
H 	H 	0.99324 0.69648 0.21654 0.01800
H 	H 	0.98539 0.60162 0.22805 0.01400
C 	C 	0.99711 0.98633 0.83946 0.24200
Co	Co	0.95109 0.92551 0.08991 1.18000
Co	Co	0.95175 0.04471 0.23864 1.14200
O 	O 	0.96466 0.99954 0.20804 -0.74300
C 	C 	0.93728 0.10734 0.11374 0.29200
O 	O 	0.97736 0.93936 0.17738 -0.58800
C 	C 	0.98443 0.96134 0.34630 0.27600
O 	O 	0.97336 0.12006 0.16481 -0.41100
O 	O 	0.93681 0.07155 0.09561 -0.41600
O 	O 	0.93536 0.96769 0.31161 -0.37700
O 	O 	0.94683 0.84016 0.04272 -0.41400
O 	O 	0.98640 0.98840 0.01369 -0.39300
Co	Co	0.97251 0.94057 0.60279 1.18100
Co	Co	0.93816 0.04862 0.73252 1.14900
C 	C 	0.99296 0.95389 0.49509 0.29200
O 	O 	0.97422 0.02717 0.69988 -0.79600
C 	C 	0.95097 0.81143 0.62943 0.26500
O 	O 	0.94219 0.11442 0.65304 -0.40600
O 	O 	0.94093 0.98167 0.81024 -0.36600
O 	O 	0.92959 0.83942 0.63250 -0.39000
O 	O 	0.97776 0.97406 0.51682 -0.38300
C 	C 	0.99588 0.99160 0.92951 -0.12700
H 	H 	0.96192 0.00588 0.90307 0.04000
C 	C 	0.99463 0.94510 0.40986 -0.10200
C 	C 	0.98022 0.96700 0.43459 -0.10000
H 	H 	0.96004 0.99543 0.40653 0.07500
C 	C 	0.92523 0.30224 0.51754 -0.03700
H 	H 	0.96769 0.22754 0.55915 0.03400
H 	H 	0.97867 0.33081 0.52101 0.03200
H 	H 	0.93027 0.38801 0.49555 0.03800
H 	H 	0.93747 0.69936 0.70348 0.03400
C 	C 	0.93921 0.20716 0.06549 0.01100
H 	H 	0.93660 0.28648 0.04798 0.04300
H 	H 	0.99388 0.23798 0.07583 0.02800
