data_crystal

_cell_length_a 30.16825
_cell_length_b 28.37376
_cell_length_c 36.70006
_cell_angle_alpha 89.94323
_cell_angle_beta  89.93646
_cell_angle_gamma 90.76245

_symmetry_space_group_name_	'P 1'
_symmetry_space_group_name_H-M	'P 1'

loop_
_symmetry_equiv_pos_as_xyz
  x,y,z

loop_
_atom_site_label
_atom_site_type_symbol
_atom_site_fract_x
_atom_site_fract_y
_atom_site_fract_z
_atom_site_charge
Zn	Zn	0.55684 0.50343 0.99659 1.21900
C 	C 	0.59903 0.41465 0.00449 0.33400
O 	O 	0.60400 0.54723 0.97959 -0.47100
O 	O 	0.58965 0.40844 0.96971 -0.44900
O 	O 	0.64594 0.49204 0.95174 -0.50000
C 	C 	0.50145 0.45542 0.94527 0.38600
O 	O 	0.51153 0.45882 0.97986 -0.46600
O 	O 	0.53054 0.46898 0.92075 -0.52200
C 	C 	0.64289 0.53252 0.96858 0.33800
O 	O 	0.50470 0.56222 0.98579 -0.33400
Zn	Zn	0.59377 0.46145 0.93098 1.16800
O 	O 	0.59406 0.45615 0.01985 -0.44400
C 	C 	0.50346 0.56704 0.02091 0.29200
O 	O 	0.52942 0.53964 0.03915 -0.38700
Zn	Zn	0.28028 0.24731 0.97083 1.22100
C 	C 	0.28728 0.25556 0.04898 0.31900
O 	O 	0.21944 0.26543 0.95955 -0.47900
O 	O 	0.29580 0.30073 0.04383 -0.45000
O 	O 	0.20710 0.30782 0.01057 -0.49800
C 	C 	0.34739 0.31931 0.96947 0.38800
O 	O 	0.33905 0.27478 0.97644 -0.47400
O 	O 	0.31525 0.35010 0.97133 -0.51200
C 	C 	0.19291 0.27791 0.98591 0.34200
O 	O 	0.29495 0.24217 0.90785 -0.32900
Zn	Zn	0.26444 0.33991 0.00438 1.16700
O 	O 	0.27210 0.22927 0.02207 -0.44300
C 	C 	0.29298 0.19694 0.91297 0.28000
O 	O 	0.28539 0.18334 0.94611 -0.38300
C 	C 	0.51794 0.02790 0.35250 0.14400
C 	C 	0.48558 0.05445 0.33472 -0.11100
H 	H 	0.45708 0.06681 0.34978 0.07400
C 	C 	0.48996 0.06455 0.29753 0.07000
C 	C 	0.52667 0.04825 0.27814 -0.09500
C 	C 	0.55901 0.02158 0.29580 0.05800
C 	C 	0.55469 0.01160 0.33306 -0.11000
H 	H 	0.57951 0.99086 0.34684 0.07200
N 	N 	0.51315 0.01680 0.39048 -0.18000
C 	C 	0.49246 0.97542 0.40056 0.19100
C 	C 	0.48905 0.96302 0.43761 -0.06100
C 	C 	0.50675 0.99362 0.46408 0.03200
C 	C 	0.52733 0.03614 0.45336 -0.06100
C 	C 	0.53015 0.04728 0.41605 0.19100
C 	C 	0.46844 0.92046 0.44850 -0.01200
C 	C 	0.46571 0.90857 0.48543 -0.01300
C 	C 	0.48348 0.93906 0.51207 -0.06000
C 	C 	0.50397 0.98163 0.50134 0.03200
C 	C 	0.52171 0.01221 0.52780 -0.06200
C 	C 	0.54496 0.06670 0.48000 -0.01300
C 	C 	0.54219 0.05483 0.51692 -0.01200
C 	C 	0.48107 0.92771 0.54938 0.19100
N 	N 	0.49841 0.95803 0.57491 -0.18000
C 	C 	0.51862 0.99967 0.56481 0.19200
C 	C 	0.49490 0.94637 0.61289 0.14700
C 	C 	0.45846 0.96185 0.63315 -0.11200
C 	C 	0.45741 0.95542 0.67097 0.07300
C 	C 	0.49214 0.93218 0.68836 -0.09900
C 	C 	0.52883 0.91720 0.66829 0.07300
C 	C 	0.52996 0.92373 0.63048 -0.11300
O 	O 	0.54946 0.08700 0.40560 -0.20000
O 	O 	0.47596 0.94707 0.37542 -0.20300
O 	O 	0.46202 0.88786 0.55985 -0.20000
O 	O 	0.53509 0.02809 0.58994 -0.20100
H 	H 	0.55872 0.91309 0.61493 0.07500
H 	H 	0.43214 0.98078 0.61967 0.07400
H 	H 	0.56089 0.09965 0.47223 0.05100
H 	H 	0.55601 0.07885 0.53696 0.05000
H 	H 	0.45458 0.89647 0.42846 0.05000
H 	H 	0.44975 0.87564 0.49321 0.05100
H 	H 	0.49179 0.92814 0.71778 0.06000
H 	H 	0.52968 0.05555 0.24921 0.05700
Zn	Zn	0.80231 0.80049 0.98469 1.22100
C 	C 	0.78598 0.82063 0.06038 0.33800
O 	O 	0.86713 0.79971 0.98075 -0.47600
O 	O 	0.78912 0.77500 0.06605 -0.45200
O 	O 	0.88177 0.78188 0.03963 -0.49700
C 	C 	0.75592 0.71381 0.99794 0.37500
O 	O 	0.75183 0.75950 0.99483 -0.47000
O 	O 	0.79365 0.69624 0.00918 -0.51700
C 	C 	0.89179 0.80517 0.00979 0.33700
O 	O 	0.79693 0.77533 0.92366 -0.33000
Zn	Zn	0.83474 0.73376 0.03946 1.16700
O 	O 	0.79711 0.83916 0.02874 -0.44300
C 	C 	0.78597 0.81848 0.91666 0.28000
O 	O 	0.78462 0.84632 0.94462 -0.38500
Zn	Zn	0.25825 0.74421 0.01375 1.22000
C 	C 	0.25340 0.73379 0.09188 0.33800
O 	O 	0.23895 0.80710 0.02821 -0.45900
O 	O 	0.27897 0.77137 0.09494 -0.45200
O 	O 	0.30901 0.83683 0.03428 -0.51400
C 	C 	0.34141 0.69667 0.02078 0.38200
O 	O 	0.31238 0.71381 0.99789 -0.48600
O 	O 	0.34778 0.71699 0.05249 -0.50900
C 	C 	0.26647 0.84332 0.02926 0.34600
O 	O 	0.24698 0.76394 0.95174 -0.32500
Zn	Zn	0.33194 0.78235 0.06025 1.17100
O 	O 	0.25011 0.71156 0.06061 -0.44500
C 	C 	0.21235 0.73639 0.95400 0.27800
O 	O 	0.20574 0.71709 0.98556 -0.38400
C 	C 	0.98399 0.49897 0.38044 0.14300
C 	C 	0.95860 0.46757 0.35920 -0.11000
H 	H 	0.93625 0.44258 0.37233 0.07400
C 	C 	0.96234 0.46848 0.32111 0.06800
C 	C 	0.99133 0.50075 0.30432 -0.09200
C 	C 	0.01670 0.53219 0.32541 0.05500
C 	C 	0.01303 0.53124 0.36350 -0.10800
H 	H 	0.03265 0.55539 0.37994 0.07100
N 	N 	0.98056 0.49789 0.41954 -0.17900
C 	C 	0.00880 0.47013 0.43920 0.19000
C 	C 	0.00794 0.47095 0.47758 -0.06100
C 	C 	0.97759 0.50011 0.49547 0.03200
C 	C 	0.94835 0.52768 0.47499 -0.06000
C 	C 	0.95022 0.52594 0.43665 0.19000
C 	C 	0.03715 0.44336 0.49824 -0.01300
C 	C 	0.03613 0.44501 0.53633 -0.01300
C 	C 	0.00582 0.47423 0.55441 -0.06100
C 	C 	0.97655 0.50177 0.53393 0.03200
C 	C 	0.94623 0.53096 0.55183 -0.06000
C 	C 	0.91798 0.55682 0.49307 -0.01300
C 	C 	0.91695 0.55847 0.53117 -0.01300
C 	C 	0.00414 0.47618 0.59274 0.19000
N 	N 	0.97399 0.50445 0.60987 -0.17800
C 	C 	0.94554 0.53197 0.59021 0.19000
C 	C 	0.97124 0.50411 0.64901 0.14200
C 	C 	0.94276 0.47192 0.66666 -0.10700
C 	C 	0.94071 0.47077 0.70483 0.05700
C 	C 	0.96691 0.50216 0.72530 -0.09300
C 	C 	0.99537 0.53434 0.70777 0.07000
C 	C 	0.99754 0.53537 0.66961 -0.10900
O 	O 	0.92299 0.55167 0.41712 -0.20100
O 	O 	0.03713 0.44293 0.42208 -0.20100
O 	O 	0.03142 0.45049 0.61227 -0.20000
O 	O 	0.91726 0.55922 0.60734 -0.20100
H 	H 	0.01967 0.56008 0.65593 0.07300
H 	H 	0.92269 0.44762 0.65071 0.07100
H 	H 	0.89517 0.57830 0.47773 0.05000
H 	H 	0.89333 0.58115 0.54449 0.05000
H 	H 	0.06076 0.42065 0.48491 0.05000
H 	H 	0.05893 0.42351 0.55167 0.05000
H 	H 	0.96526 0.50136 0.75483 0.05800
H 	H 	0.99444 0.50118 0.27486 0.05600
Zn	Zn	0.74196 0.21096 0.00875 1.22100
C 	C 	0.73335 0.22290 0.93114 0.33800
O 	O 	0.68136 0.20894 0.02826 -0.47600
O 	O 	0.72546 0.17732 0.92833 -0.44900
O 	O 	0.64626 0.18795 0.97600 -0.49700
C 	C 	0.77848 0.12274 0.98792 0.39100
O 	O 	0.78620 0.16830 0.98968 -0.46500
O 	O 	0.73773 0.10642 0.99038 -0.52400
C 	C 	0.64712 0.21202 0.00643 0.33700
O 	O 	0.77004 0.19518 0.06760 -0.32500
Zn	Zn	0.68927 0.13927 0.96663 1.17100
O 	O 	0.73053 0.24412 0.96287 -0.44100
C 	C 	0.78155 0.23946 0.06784 0.27900
O 	O 	0.77180 0.26285 0.03865 -0.38700
Zn	Zn	0.03963 0.04526 0.02195 1.21900
C 	C 	0.12040 0.99251 0.01803 0.34400
O 	O 	0.00148 0.00316 0.05141 -0.47400
O 	O 	0.13187 0.01579 0.04765 -0.45700
O 	O 	0.05555 0.96686 0.08359 -0.50000
C 	C 	0.08954 0.11816 0.05780 0.38800
O 	O 	0.08196 0.09747 0.02641 -0.46800
O 	O 	0.08336 0.09462 0.08823 -0.52300
C 	C 	0.01678 0.96542 0.06755 0.34000
O 	O 	0.98334 0.10197 0.02328 -0.33500
Zn	Zn	0.08802 0.02603 0.09004 1.16900
O 	O 	0.08083 0.99798 0.00379 -0.44500
C 	C 	0.97612 0.08967 0.98976 0.30600
O 	O 	0.00131 0.05684 0.97725 -0.38600
C 	C 	0.93583 0.10363 0.97070 -0.13100
C 	C 	0.89434 0.09001 0.98426 0.00400
C 	C 	0.85584 0.11033 0.97085 0.03100
C 	C 	0.81190 0.09298 0.98298 -0.20900
H 	H 	0.85801 0.13935 0.95149 0.03800
H 	H 	0.93851 0.12550 0.94646 0.07400
H 	H 	0.80595 0.05523 0.98539 0.09500
H 	H 	0.89211 0.06417 0.00612 0.04200
C 	C 	0.91169 0.43621 0.72353 -0.00900
C 	C 	0.93029 0.40092 0.74527 -0.03100
C 	C 	0.90302 0.37159 0.76645 -0.04200
C 	C 	0.85687 0.37722 0.76600 0.00800
C 	C 	0.83814 0.41131 0.74317 -0.04300
C 	C 	0.86547 0.44070 0.72200 -0.03100
C 	C 	0.82859 0.34977 0.79137 0.01000
C 	C 	0.82793 0.30032 0.78991 -0.04400
C 	C 	0.80533 0.27423 0.81661 -0.02900
C 	C 	0.78314 0.29739 0.84484 -0.01300
C 	C 	0.78235 0.34675 0.84555 -0.03000
C 	C 	0.80499 0.37288 0.81892 -0.04600
C 	C 	0.76446 0.27071 0.87468 0.05200
C 	C 	0.74973 0.24871 0.90018 -0.11700
H 	H 	0.96594 0.39700 0.74643 0.04100
H 	H 	0.91780 0.34538 0.78397 0.04200
H 	H 	0.80253 0.41568 0.74241 0.04000
H 	H 	0.85081 0.46777 0.70521 0.04200
H 	H 	0.84576 0.28215 0.76860 0.04200
H 	H 	0.80598 0.23606 0.81583 0.03900
H 	H 	0.76520 0.36489 0.86726 0.03400
H 	H 	0.80531 0.41102 0.82032 0.03900
C 	C 	0.80033 0.26263 0.10058 -0.07600
C 	C 	0.81009 0.31122 0.10028 0.01100
C 	C 	0.82725 0.33322 0.13139 -0.06300
C 	C 	0.83485 0.30696 0.16314 0.02600
C 	C 	0.82525 0.25845 0.16351 -0.06300
C 	C 	0.80813 0.23636 0.13240 0.01100
C 	C 	0.85381 0.33014 0.19571 -0.00100
C 	C 	0.83110 0.36697 0.21275 -0.03400
C 	C 	0.85091 0.39183 0.24148 -0.04400
C 	C 	0.89345 0.37996 0.25342 0.01700
C 	C 	0.91543 0.34201 0.23738 -0.04400
C 	C 	0.89570 0.31716 0.20863 -0.03400
C 	C 	0.91659 0.41005 0.27890 -0.00700
C 	C 	0.93687 0.43614 0.29898 -0.03300
H 	H 	0.80442 0.33198 0.07598 0.04100
H 	H 	0.83491 0.37063 0.13075 0.04500
H 	H 	0.83101 0.23788 0.18790 0.04700
H 	H 	0.80088 0.19888 0.13311 0.04200
H 	H 	0.79856 0.37695 0.20325 0.03900
H 	H 	0.83370 0.42113 0.25373 0.04300
H 	H 	0.94835 0.33266 0.24643 0.04300
H 	H 	0.91346 0.28872 0.19574 0.03900
C 	C 	0.14942 0.95563 0.00347 -0.16500
C 	C 	0.18871 0.94663 0.01893 0.01600
C 	C 	0.21068 0.90117 0.01243 0.00700
C 	C 	0.24920 0.89152 0.02885 -0.16000
H 	H 	0.19394 0.87424 0.99621 0.04500
H 	H 	0.13664 0.93248 0.98223 0.08900
H 	H 	0.26746 0.91921 0.04304 0.07200
H 	H 	0.20281 0.97109 0.03871 0.03200
C 	C 	0.18659 0.72197 0.92152 -0.07700
C 	C 	0.20359 0.73004 0.88634 0.01100
C 	C 	0.18072 0.71309 0.85578 -0.06300
C 	C 	0.14058 0.68814 0.86008 0.02600
C 	C 	0.12294 0.68128 0.89510 -0.06400
C 	C 	0.14576 0.69815 0.92565 0.01100
C 	C 	0.11805 0.66720 0.82813 -0.00100
C 	C 	0.13851 0.63125 0.80825 -0.03400
C 	C 	0.11522 0.60758 0.78070 -0.04400
C 	C 	0.07138 0.61973 0.77281 0.01700
C 	C 	0.05153 0.65692 0.79161 -0.04400
C 	C 	0.07478 0.68062 0.81916 -0.03400
C 	C 	0.04526 0.59079 0.74848 -0.00600
C 	C 	0.02286 0.56561 0.72922 -0.03300
H 	H 	0.23491 0.74855 0.88266 0.04100
H 	H 	0.19446 0.71884 0.82883 0.04800
H 	H 	0.09193 0.66211 0.89869 0.04600
H 	H 	0.13192 0.69222 0.95255 0.04000
H 	H 	0.17191 0.62066 0.81492 0.03900
H 	H 	0.13080 0.57889 0.76628 0.04400
H 	H 	0.01766 0.66656 0.78563 0.04300
H 	H 	0.05882 0.70860 0.83413 0.04000
C 	C 	0.04783 0.56531 0.30743 -0.00900
C 	C 	0.03179 0.59926 0.28312 -0.03300
C 	C 	0.06122 0.62499 0.26113 -0.04300
C 	C 	0.10698 0.61715 0.26339 0.00800
C 	C 	0.12318 0.58530 0.28931 -0.04200
C 	C 	0.09370 0.55942 0.31121 -0.03200
C 	C 	0.13727 0.63855 0.23623 0.01000
C 	C 	0.14034 0.68777 0.23261 -0.04500
C 	C 	0.16567 0.70782 0.20449 -0.03000
C 	C 	0.18815 0.67882 0.17993 -0.01300
C 	C 	0.18612 0.62976 0.18412 -0.02900
C 	C 	0.16076 0.60967 0.21213 -0.04500
C 	C 	0.21146 0.69917 0.14934 0.05200
C 	C 	0.23072 0.71539 0.12330 -0.11900
H 	H 	0.99643 0.60438 0.28029 0.03900
H 	H 	0.04838 0.64965 0.24135 0.03800
H 	H 	0.15849 0.57945 0.29160 0.04100
H 	H 	0.10641 0.53350 0.33006 0.04200
H 	H 	0.12252 0.71039 0.25117 0.04000
H 	H 	0.16721 0.74581 0.20148 0.03600
H 	H 	0.20350 0.60714 0.16526 0.03700
H 	H 	0.15847 0.57166 0.21457 0.04000
C 	C 	0.98955 0.92200 0.06911 -0.15700
C 	C 	0.96969 0.90516 0.03899 0.01200
C 	C 	0.94121 0.86220 0.04054 0.01600
C 	C 	0.92776 0.84100 0.00964 -0.16600
H 	H 	0.92942 0.84936 0.06680 0.03600
H 	H 	0.98758 0.90232 0.09449 0.07300
H 	H 	0.94002 0.85385 0.98354 0.08700
H 	H 	0.97422 0.92342 0.01313 0.03600
C 	C 	0.76825 0.83222 0.88080 -0.07800
C 	C 	0.74149 0.87213 0.87746 0.01200
C 	C 	0.72008 0.88156 0.84456 -0.06400
C 	C 	0.72541 0.85136 0.81465 0.02700
C 	C 	0.75404 0.81300 0.81735 -0.06400
C 	C 	0.77544 0.80350 0.85023 0.01200
C 	C 	0.69789 0.85741 0.78187 -0.00200
C 	C 	0.66571 0.82319 0.77287 -0.03400
C 	C 	0.63489 0.83211 0.74541 -0.04400
C 	C 	0.63605 0.87522 0.72678 0.01700
C 	C 	0.66984 0.90821 0.73420 -0.04400
C 	C 	0.70071 0.89934 0.76165 -0.03400
C 	C 	0.59912 0.88849 0.70447 -0.00500
C 	C 	0.56740 0.90080 0.68718 -0.03400
H 	H 	0.73604 0.89494 0.90064 0.03800
H 	H 	0.69815 0.91140 0.84268 0.04400
H 	H 	0.75880 0.78987 0.79424 0.04800
H 	H 	0.79680 0.77322 0.85217 0.03900
H 	H 	0.66342 0.79058 0.78819 0.03900
H 	H 	0.60895 0.80636 0.73973 0.04300
H 	H 	0.67107 0.94155 0.71977 0.04400
H 	H 	0.72579 0.92571 0.76809 0.03900
C 	C 	0.59592 0.00182 0.27470 -0.01100
C 	C 	0.59871 0.95291 0.26990 -0.03000
C 	C 	0.62967 0.93442 0.24567 -0.04300
C 	C 	0.65811 0.96469 0.22606 0.00900
C 	C 	0.65678 0.01345 0.23219 -0.04500
C 	C 	0.62581 0.03195 0.25645 -0.03000
C 	C 	0.68638 0.94568 0.19697 0.00900
C 	C 	0.67823 0.95759 0.16048 -0.04500
C 	C 	0.70128 0.93520 0.13250 -0.02900
C 	C 	0.73259 0.90082 0.14083 -0.01300
C 	C 	0.74205 0.89023 0.17728 -0.02900
C 	C 	0.71905 0.91263 0.20530 -0.04500
C 	C 	0.75210 0.87359 0.11211 0.05300
C 	C 	0.76781 0.84989 0.08828 -0.11700
H 	H 	0.57581 0.92938 0.28392 0.04200
H 	H 	0.63052 0.89671 0.24116 0.04100
H 	H 	0.67893 0.03705 0.21746 0.04200
H 	H 	0.62417 0.06975 0.26027 0.04000
H 	H 	0.65307 0.98308 0.15378 0.03900
H 	H 	0.69390 0.94364 0.10437 0.03600
H 	H 	0.76637 0.86380 0.18390 0.03700
H 	H 	0.72580 0.90346 0.23340 0.04200
C 	C 	0.10509 0.16266 0.05896 -0.20400
C 	C 	0.11110 0.19100 0.02530 0.02600
C 	C 	0.14330 0.22695 0.02374 -0.00200
C 	C 	0.15097 0.25189 0.99134 -0.14800
H 	H 	0.16455 0.23341 0.04719 0.04200
H 	H 	0.11386 0.17822 0.08509 0.09000
H 	H 	0.12975 0.24553 0.96789 0.07800
H 	H 	0.09115 0.18290 0.00138 0.04000
C 	C 	0.29768 0.16341 0.88279 -0.07800
C 	C 	0.28089 0.17442 0.84821 0.01400
C 	C 	0.28920 0.14492 0.81860 -0.06400
C 	C 	0.31500 0.10455 0.82318 0.02800
C 	C 	0.33004 0.09240 0.85812 -0.06400
C 	C 	0.32114 0.12157 0.88784 0.01400
C 	C 	0.33046 0.07818 0.79103 -0.00200
C 	C 	0.32452 0.02906 0.78922 -0.03400
C 	C 	0.34498 0.00338 0.76153 -0.04500
C 	C 	0.37109 0.02670 0.73535 0.01800
C 	C 	0.37471 0.07595 0.73582 -0.04400
C 	C 	0.35465 0.10161 0.76361 -0.03300
C 	C 	0.39926 0.00016 0.71160 -0.00700
C 	C 	0.42477 0.97910 0.69255 -0.03200
H 	H 	0.26197 0.20619 0.84417 0.03800
H 	H 	0.27680 0.15420 0.79188 0.04800
H 	H 	0.34999 0.06133 0.86199 0.04600
H 	H 	0.33398 0.11257 0.91448 0.03700
H 	H 	0.30531 0.01069 0.80990 0.04000
H 	H 	0.34187 0.96529 0.76124 0.04400
H 	H 	0.39475 0.09420 0.71559 0.04500
H 	H 	0.35939 0.13950 0.76467 0.04000
C 	C 	0.29752 0.23377 0.08435 -0.09700
C 	C 	0.29478 0.26033 0.11653 0.02100
C 	C 	0.30898 0.24130 0.14959 -0.07100
C 	C 	0.32623 0.19565 0.15074 0.03000
C 	C 	0.32701 0.16830 0.11889 -0.07000
C 	C 	0.31259 0.18721 0.08588 0.02100
C 	C 	0.34770 0.17833 0.18417 -0.00400
C 	C 	0.38481 0.20239 0.19832 -0.03300
C 	C 	0.40994 0.18196 0.22594 -0.04500
C 	C 	0.39826 0.13734 0.23952 0.01800
C 	C 	0.35961 0.11464 0.22712 -0.04600
C 	C 	0.33428 0.13513 0.19959 -0.03400
C 	C 	0.42923 0.11209 0.26169 -0.00700
C 	C 	0.45635 0.09060 0.27882 -0.03400
H 	H 	0.28232 0.29596 0.11583 0.02400
H 	H 	0.30770 0.26247 0.17411 0.04600
H 	H 	0.34028 0.13302 0.11948 0.04500
H 	H 	0.31467 0.16626 0.06129 0.03400
H 	H 	0.39533 0.23586 0.18676 0.03900
H 	H 	0.43967 0.19983 0.23555 0.04400
H 	H 	0.35020 0.08025 0.23768 0.04100
H 	H 	0.30529 0.11661 0.18925 0.03400
C 	C 	0.38936 0.33329 0.96350 -0.20500
C 	C 	0.40101 0.38127 0.95047 0.01600
C 	C 	0.44034 0.40052 0.95959 0.01400
C 	C 	0.46341 0.43444 0.93497 -0.20300
H 	H 	0.45842 0.38606 0.98260 0.04400
H 	H 	0.41577 0.30789 0.96672 0.09700
H 	H 	0.45317 0.43656 0.90662 0.08900
H 	H 	0.38078 0.39763 0.92960 0.03400
C 	C 	0.36560 0.65970 0.01084 -0.21700
C 	C 	0.40209 0.64185 0.03379 0.02600
C 	C 	0.43386 0.61272 0.01830 -0.01700
C 	C 	0.46921 0.59536 0.03876 -0.13000
H 	H 	0.43125 0.60381 0.98956 0.05200
H 	H 	0.35973 0.64368 0.98433 0.09900
H 	H 	0.47127 0.60215 0.06785 0.07100
H 	H 	0.40448 0.65186 0.06233 0.03100
C 	C 	0.61433 0.37459 0.02625 -0.15400
C 	C 	0.59750 0.33132 0.02027 0.01200
C 	C 	0.62386 0.28911 0.02845 0.01500
C 	C 	0.61312 0.24767 0.01297 -0.16600
H 	H 	0.65531 0.29324 0.04267 0.03700
H 	H 	0.64242 0.37950 0.04443 0.08000
H 	H 	0.58132 0.24353 0.99933 0.08100
H 	H 	0.56706 0.32733 0.00459 0.03500
C 	C 	0.68334 0.56136 0.97500 -0.15900
C 	C 	0.68089 0.60658 0.98556 0.00700
C 	C 	0.72159 0.63544 0.99131 0.01900
C 	C 	0.71903 0.68469 0.99135 -0.18800
H 	H 	0.75332 0.61828 0.99486 0.03200
H 	H 	0.71553 0.54570 0.97026 0.07700
H 	H 	0.68745 0.70102 0.98534 0.09200
H 	H 	0.64873 0.62284 0.98905 0.04300
