data_crystal

_cell_length_a 18.66187
_cell_length_b 18.88898
_cell_length_c 35.13590
_cell_angle_alpha 95.42343
_cell_angle_beta  95.42462
_cell_angle_gamma 126.36720

_symmetry_space_group_name_	'P 1'
_symmetry_space_group_name_H-M	'P 1'

loop_
_symmetry_equiv_pos_as_xyz
  x,y,z

loop_
_atom_site_label
_atom_site_type_symbol
_atom_site_fract_x
_atom_site_fract_y
_atom_site_fract_z
_atom_site_charge
C 	C 	0.87784 0.97872 0.95843 0.01000
C 	C 	0.97208 0.03455 0.96079 -0.04500
C 	C 	0.01994 0.99910 0.96265 0.00300
C 	C 	0.97413 0.90769 0.96213 -0.04900
C 	C 	0.87995 0.85066 0.95934 0.01600
C 	C 	0.83145 0.88625 0.95779 -0.05900
H 	H 	0.00827 0.10575 0.96168 0.04300
H 	H 	0.01178 0.88078 0.96374 0.04500
H 	H 	0.75865 0.84262 0.95601 0.04800
C 	C 	0.98917 0.06750 0.50600 0.03500
C 	C 	0.08289 0.11253 0.50846 -0.07800
C 	C 	0.11716 0.06343 0.50501 0.03000
C 	C 	0.05778 0.96990 0.49886 -0.08000
C 	C 	0.96493 0.92514 0.49690 0.03300
C 	C 	0.93053 0.97370 0.50037 -0.07700
H 	H 	0.12862 0.18501 0.51288 0.05200
H 	H 	0.08401 0.93190 0.49599 0.05100
H 	H 	0.85825 0.93857 0.49837 0.05100
Cu	Cu	0.72612 0.32161 0.95510 0.92800
Cu	Cu	0.72020 0.26153 0.04001 0.86700
Cu	Cu	0.58569 0.28234 0.00527 0.89200
Cu	Cu	0.55683 0.31345 0.92540 0.89500
C 	C 	0.65981 0.28722 0.87287 0.29100
O 	O 	0.77774 0.45147 0.95186 -0.35100
C 	C 	0.64511 0.31679 0.09092 0.28700
O 	O 	0.58533 0.24865 0.95185 -0.63600
O 	O 	0.71803 0.34157 0.01031 -0.64700
O 	O 	0.78605 0.26182 0.96054 -0.36400
O 	O 	0.68966 0.17132 0.99837 -0.43200
O 	O 	0.62099 0.32537 0.88111 -0.38300
O 	O 	0.45561 0.21587 0.99778 -0.37100
C 	C 	0.40384 0.21211 0.96796 0.28500
C 	C 	0.73692 0.48541 0.96352 0.28200
O 	O 	0.65353 0.43173 0.96915 -0.39100
O 	O 	0.43870 0.26363 0.94176 -0.39100
O 	O 	0.71074 0.28401 0.90037 -0.35900
C 	C 	0.74732 0.18829 0.97537 0.28600
O 	O 	0.58677 0.30502 0.06152 -0.37700
O 	O 	0.71751 0.32335 0.08529 -0.41700
H 	H 	0.54593 0.18332 0.94182 0.16600
H 	H 	0.75688 0.40484 0.02388 0.17400
Cu	Cu	0.65917 0.23686 0.51131 0.92600
Cu	Cu	0.71428 0.22892 0.42596 0.87100
Cu	Cu	0.69917 0.36994 0.45714 0.89900
Cu	Cu	0.66638 0.40594 0.53772 0.89800
C 	C 	0.67259 0.29518 0.59177 0.29000
O 	O 	0.52725 0.17932 0.51412 -0.36700
C 	C 	0.65834 0.29776 0.37231 0.28900
O 	O 	0.73017 0.37506 0.51153 -0.63500
O 	O 	0.63756 0.23922 0.45525 -0.64000
O 	O 	0.72117 0.17930 0.50910 -0.37000
O 	O 	0.80806 0.26581 0.46781 -0.44000
O 	O 	0.68508 0.37046 0.58738 -0.37900
O 	O 	0.76587 0.49832 0.46312 -0.37800
C 	C 	0.76000 0.54690 0.49039 0.29100
C 	C 	0.49106 0.21919 0.50534 0.28800
O 	O 	0.54195 0.30034 0.49824 -0.38900
O 	O 	0.69887 0.50888 0.51275 -0.39100
O 	O 	0.69381 0.25681 0.56660 -0.36400
C 	C 	0.79325 0.21345 0.49291 0.28600
O 	O 	0.68899 0.36694 0.40018 -0.37800
O 	O 	0.64849 0.22601 0.38027 -0.41700
H 	H 	0.79621 0.41386 0.52177 0.16700
H 	H 	0.57299 0.20105 0.44242 0.17500
C 	C 	0.59607 0.18106 0.76699 -0.04100
C 	C 	0.66575 0.25224 0.75153 0.02100
C 	C 	0.73868 0.33074 0.77680 -0.05900
C 	C 	0.74018 0.34068 0.81695 0.02700
C 	C 	0.66753 0.27180 0.83210 -0.07900
C 	C 	0.59700 0.19146 0.80714 0.00700
C 	C 	0.65842 0.24902 0.70886 0.02100
C 	C 	0.59701 0.25901 0.68900 -0.05800
C 	C 	0.59714 0.26838 0.64994 0.02300
C 	C 	0.66075 0.26971 0.63053 -0.07800
C 	C 	0.71858 0.25434 0.64974 0.01000
C 	C 	0.71744 0.24368 0.68871 -0.04100
C 	C 	0.53174 0.27659 0.62997 0.06500
C 	C 	0.77736 0.22784 0.70788 0.08900
C 	C 	0.52318 0.09751 0.74183 0.08600
C 	C 	0.81555 0.42255 0.84232 0.07700
N 	N 	0.47944 0.28331 0.61404 -0.12000
N 	N 	0.82535 0.21515 0.72326 -0.11600
N 	N 	0.87595 0.48810 0.86264 -0.11100
N 	N 	0.46480 0.03059 0.72164 -0.11800
H 	H 	0.54177 0.13789 0.81884 0.02800
H 	H 	0.79297 0.38509 0.76503 0.05400
H 	H 	0.55036 0.26140 0.70426 0.05200
H 	H 	0.76643 0.25355 0.63478 0.04500
C 	C 	0.67896 0.28877 0.26632 -0.04300
C 	C 	0.63496 0.32400 0.25247 0.02100
C 	C 	0.59716 0.34948 0.27791 -0.06100
C 	C 	0.60347 0.34066 0.31708 0.02500
C 	C 	0.64885 0.30661 0.33107 -0.08400
C 	C 	0.68599 0.28065 0.30542 0.01000
C 	C 	0.62811 0.33392 0.21119 0.01900
C 	C 	0.55228 0.26366 0.18374 -0.06000
C 	C 	0.55394 0.26084 0.14383 0.02100
C 	C 	0.63243 0.32908 0.13121 -0.08300
C 	C 	0.70461 0.40358 0.15856 0.01100
C 	C 	0.70260 0.40655 0.19842 -0.04200
C 	C 	0.47659 0.18563 0.11618 0.06400
C 	C 	0.77863 0.48277 0.22614 0.08700
C 	C 	0.71712 0.26075 0.24052 0.08500
C 	C 	0.56081 0.36395 0.34228 0.07100
N 	N 	0.41462 0.12540 0.09404 -0.11800
N 	N 	0.83952 0.54380 0.24838 -0.11900
N 	N 	0.52663 0.38263 0.36247 -0.11500
N 	N 	0.74766 0.23836 0.21981 -0.12400
H 	H 	0.72109 0.25470 0.31602 0.02600
H 	H 	0.56260 0.37585 0.26717 0.05100
H 	H 	0.49391 0.20886 0.19352 0.05000
H 	H 	0.76385 0.45756 0.14889 0.03600
C 	C 	0.87293 0.79114 0.52669 -0.06000
C 	C 	0.90477 0.82768 0.49380 0.01500
C 	C 	0.88794 0.77181 0.45940 -0.05900
C 	C 	0.84092 0.68004 0.45815 0.01400
C 	C 	0.81060 0.64359 0.49140 -0.08500
C 	C 	0.82650 0.69969 0.52560 0.01200
H 	H 	0.88648 0.83409 0.55346 0.04600
H 	H 	0.91271 0.79978 0.43390 0.04800
H 	H 	0.82798 0.63745 0.43139 0.04300
H 	H 	0.80388 0.67256 0.55151 0.02900
C 	C 	0.84605 0.14012 0.52996 0.01200
C 	C 	0.85203 0.18543 0.49947 -0.09000
C 	C 	0.91201 0.20095 0.47410 0.00600
C 	C 	0.96114 0.16712 0.47777 -0.05400
C 	C 	0.95137 0.11770 0.50689 0.01300
C 	C 	0.89564 0.10661 0.53368 -0.05800
H 	H 	0.80200 0.12953 0.55037 0.04200
H 	H 	0.91850 0.23679 0.45074 0.02400
H 	H 	0.00402 0.17624 0.45698 0.03800
H 	H 	0.88853 0.06955 0.55662 0.04800
C 	C 	0.26203 0.09390 0.53432 -0.05800
C 	C 	0.21495 0.10919 0.50692 0.01600
C 	C 	0.25777 0.15711 0.47794 -0.05900
C 	C 	0.34659 0.18914 0.47625 0.01200
C 	C 	0.39360 0.17361 0.50356 -0.08800
C 	C 	0.35054 0.12507 0.53237 0.01500
H 	H 	0.22938 0.05649 0.55671 0.04800
H 	H 	0.22159 0.16789 0.45624 0.04500
H 	H 	0.37914 0.22655 0.45386 0.03400
H 	H 	0.38638 0.11354 0.55387 0.03900
C 	C 	0.84066 0.70428 0.92845 -0.05900
C 	C 	0.83309 0.75373 0.95811 0.01800
C 	C 	0.79578 0.71522 0.98999 -0.05100
C 	C 	0.76792 0.62894 0.99255 0.02000
C 	C 	0.77757 0.58042 0.96335 -0.08500
C 	C 	0.81374 0.61846 0.93122 0.01100
H 	H 	0.86968 0.73336 0.90376 0.04900
H 	H 	0.79066 0.75297 0.01330 0.03600
H 	H 	0.73877 0.59980 0.01721 0.02100
H 	H 	0.81918 0.58090 0.90796 0.04400
C 	C 	0.80971 0.12533 0.93597 0.01500
C 	C 	0.77351 0.12818 0.96885 -0.09100
C 	C 	0.76158 0.07278 0.99570 0.02000
C 	C 	0.78926 0.01848 0.99065 -0.05200
C 	C 	0.82925 0.01870 0.95877 0.02200
C 	C 	0.83697 0.07053 0.93085 -0.06200
H 	H 	0.81747 0.16592 0.91454 0.04300
H 	H 	0.73314 0.07355 0.02107 0.01100
H 	H 	0.78326 0.97927 0.01247 0.03300
H 	H 	0.86720 0.07088 0.90595 0.05000
C 	C 	0.17717 0.08598 0.99991 -0.02500
C 	C 	0.11824 0.05748 0.96444 0.01300
C 	C 	0.15299 0.08028 0.93028 -0.05400
C 	C 	0.24614 0.13047 0.93142 0.00100
C 	C 	0.30549 0.15879 0.96687 -0.06100
C 	C 	0.27046 0.13659 0.00118 -0.02500
H 	H 	0.15059 0.06836 0.02641 0.03200
H 	H 	0.10766 0.05790 0.90274 0.04500
H 	H 	0.27208 0.14647 0.90469 0.03300
H 	H 	0.31538 0.15882 0.02881 0.05300
