data_crystal

_cell_length_a 22.92860
_cell_length_b 18.46436
_cell_length_c 53.87916
_cell_angle_alpha 90.62104
_cell_angle_beta  91.18827
_cell_angle_gamma 110.81280

_symmetry_space_group_name_	'P 1'
_symmetry_space_group_name_H-M	'P 1'

loop_
_symmetry_equiv_pos_as_xyz
  x,y,z

loop_
_atom_site_label
_atom_site_type_symbol
_atom_site_fract_x
_atom_site_fract_y
_atom_site_fract_z
_atom_site_charge
Ni	Ni	0.70190 0.28620 0.88027 1.10200
O 	O 	0.63520 0.24240 0.85240 -0.69900
Ni	Ni	0.56290 0.26311 0.86797 1.09900
O 	O 	0.76196 0.23361 0.86889 -0.36300
O 	O 	0.70056 0.12907 0.84596 -0.39200
O 	O 	0.74994 0.37917 0.85875 -0.37200
Ni	Ni	0.60975 0.12931 0.84854 1.06800
O 	O 	0.75064 0.45222 0.90292 -0.38900
O 	O 	0.60970 0.12022 0.88636 -0.40800
O 	O 	0.49663 0.20986 0.84137 -0.38300
O 	O 	0.63227 0.31470 0.89372 -0.70600
O 	O 	0.76342 0.33604 0.90870 -0.36500
O 	O 	0.50179 0.30335 0.88592 -0.35200
O 	O 	0.56974 0.42769 0.88545 -0.39500
Ni	Ni	0.65874 0.42788 0.89347 1.08300
H 	H 	0.64637 0.26892 0.83638 0.15400
H 	H 	0.62260 0.29477 0.91065 0.17500
C 	C 	0.56447 0.12915 0.89932 0.27900
O 	O 	0.67425 0.43217 0.85650 -0.41800
C 	C 	0.75222 0.19031 0.84866 0.28400
C 	C 	0.48395 0.13665 0.83544 0.30100
C 	C 	0.72486 0.42494 0.84783 0.29100
C 	C 	0.52055 0.37493 0.89469 0.28700
C 	C 	0.77072 0.40656 0.91667 0.28700
O 	O 	0.52982 0.16651 0.88990 -0.35700
O 	O 	0.51440 0.09711 0.84667 -0.40100
Ni	Ni	0.62578 0.35039 0.59370 1.10200
O 	O 	0.68668 0.36343 0.56536 -0.69800
Ni	Ni	0.75029 0.32513 0.58072 1.10100
O 	O 	0.58555 0.42502 0.57973 -0.36200
O 	O 	0.68160 0.51534 0.57548 -0.40300
O 	O 	0.55895 0.26167 0.57397 -0.36100
Ni	Ni	0.72826 0.46623 0.55203 1.08100
O 	O 	0.54927 0.19668 0.61851 -0.39800
O 	O 	0.81057 0.51837 0.57213 -0.38200
O 	O 	0.81951 0.35674 0.55460 -0.36800
O 	O 	0.68363 0.30099 0.60746 -0.70200
O 	O 	0.56687 0.32726 0.62259 -0.38100
O 	O 	0.79759 0.26706 0.60006 -0.36400
O 	O 	0.71008 0.15801 0.60137 -0.39800
Ni	Ni	0.63473 0.19092 0.60985 1.06700
H 	H 	0.66626 0.32836 0.55124 0.16400
H 	H 	0.70099 0.32393 0.62391 0.15700
C 	C 	0.83313 0.48744 0.59008 0.32200
O 	O 	0.61206 0.17825 0.57299 -0.40600
C 	C 	0.62076 0.49487 0.57310 0.28000
C 	C 	0.82032 0.40029 0.53500 0.29300
C 	C 	0.56982 0.20325 0.56345 0.29100
C 	C 	0.76783 0.19763 0.60889 0.27500
C 	C 	0.53869 0.25519 0.62979 0.27900
O 	O 	0.79806 0.42384 0.60074 -0.39700
O 	O 	0.77085 0.41677 0.52826 -0.40200
Ni	Ni	0.01102 0.94010 0.74424 1.09300
O 	O 	0.03657 0.87278 0.71980 -0.71500
Ni	Ni	0.08077 0.95039 0.69459 1.09500
O 	O 	0.96747 0.84594 0.76575 -0.36200
O 	O 	0.90521 0.78162 0.73315 -0.41300
O 	O 	0.09033 0.96183 0.76675 -0.36900
Ni	Ni	0.96235 0.79935 0.70269 1.06800
O 	O 	0.07334 0.10588 0.76743 -0.40500
O 	O 	0.92711 0.88190 0.69185 -0.41600
O 	O 	0.10451 0.87442 0.67258 -0.37100
O 	O 	0.04807 0.01790 0.71736 -0.69100
O 	O 	0.98018 0.00570 0.76702 -0.37100
O 	O 	0.14220 0.04018 0.67561 -0.36000
O 	O 	0.15959 0.14627 0.70053 -0.39800
Ni	Ni	0.11087 0.11001 0.73300 1.06900
H 	H 	0.06370 0.84708 0.72733 0.15500
H 	H 	0.01507 0.03328 0.70944 0.15300
C 	C 	0.95406 0.93258 0.67494 0.31900
O 	O 	0.16340 0.04547 0.74191 -0.41900
C 	C 	0.92627 0.78233 0.75600 0.29600
C 	C 	0.06006 0.80795 0.66617 0.27500
C 	C 	0.14876 0.99428 0.75962 0.27500
C 	C 	0.18126 0.10171 0.68726 0.30100
C 	C 	0.01260 0.07908 0.77097 0.28600
O 	O 	0.01183 0.94500 0.66883 -0.37500
O 	O 	0.00101 0.79936 0.66907 -0.40600
Ni	Ni	0.27396 0.68972 0.38589 1.10100
O 	O 	0.34697 0.74541 0.36355 -0.70300
Ni	Ni	0.41940 0.74461 0.38445 1.10300
O 	O 	0.21169 0.70004 0.35962 -0.36600
O 	O 	0.26217 0.83133 0.35804 -0.40200
O 	O 	0.27374 0.59148 0.36810 -0.40200
Ni	Ni	0.35781 0.85279 0.35708 1.06600
O 	O 	0.25888 0.61262 0.44181 -0.40300
O 	O 	0.36297 0.88497 0.39370 -0.40200
O 	O 	0.48607 0.79187 0.35910 -0.37000
O 	O 	0.34711 0.70217 0.40843 -0.70000
O 	O 	0.20072 0.62564 0.40742 -0.37200
O 	O 	0.48302 0.71703 0.40618 -0.35500
O 	O 	0.41352 0.59500 0.41008 -0.40700
Ni	Ni	0.33261 0.60242 0.42414 1.07800
H 	H 	0.34497 0.71672 0.34773 0.15600
H 	H 	0.34863 0.74083 0.42150 0.16900
C 	C 	0.41038 0.88823 0.40831 0.28900
O 	O 	0.27501 0.51553 0.40118 -0.39100
C 	C 	0.21919 0.76697 0.34925 0.27500
C 	C 	0.48692 0.85380 0.34681 0.27600
C 	C 	0.25595 0.52379 0.37856 0.32900
C 	C 	0.46705 0.64884 0.41651 0.28500
C 	C 	0.20480 0.60532 0.43083 0.29600
O 	O 	0.44785 0.85122 0.40231 -0.35900
O 	O 	0.45326 0.89517 0.35423 -0.40200
Ni	Ni	0.35112 0.66773 0.07844 1.10200
O 	O 	0.27302 0.64953 0.05631 -0.69900
Ni	Ni	0.21958 0.68529 0.07885 1.10100
O 	O 	0.38641 0.60006 0.05726 -0.35400
O 	O 	0.29282 0.50149 0.05610 -0.40500
O 	O 	0.40212 0.75889 0.05694 -0.35900
Ni	Ni	0.22563 0.54454 0.04399 1.07700
O 	O 	0.43596 0.82342 0.10217 -0.40000
O 	O 	0.16753 0.48846 0.07191 -0.38600
O 	O 	0.13495 0.64939 0.05952 -0.36800
O 	O 	0.30144 0.71403 0.09916 -0.70200
O 	O 	0.42690 0.69537 0.10183 -0.37300
O 	O 	0.18387 0.74056 0.10439 -0.36500
O 	O 	0.26672 0.85405 0.10110 -0.40300
Ni	Ni	0.34699 0.82554 0.10126 1.06700
H 	H 	0.28297 0.68407 0.04190 0.16800
H 	H 	0.29540 0.69135 0.11590 0.15700
C 	C 	0.15115 0.52191 0.09081 0.32000
O 	O 	0.34816 0.83953 0.06384 -0.40500
C 	C 	0.34988 0.53244 0.04821 0.28600
C 	C 	0.11879 0.59901 0.04056 0.29300
C 	C 	0.38347 0.81505 0.04971 0.29400
C 	C 	0.21479 0.81240 0.11189 0.29100
C 	C 	0.45249 0.76660 0.11104 0.29300
O 	O 	0.18887 0.58848 0.09981 -0.39700
O 	O 	0.16098 0.58157 0.02798 -0.40500
Ni	Ni	0.94820 0.02935 0.25977 1.10000
O 	O 	0.94932 0.11599 0.23637 -0.70600
Ni	Ni	0.90537 0.05411 0.20647 1.10000
O 	O 	0.99532 0.10816 0.28712 -0.35700
O 	O 	0.07392 0.16758 0.26050 -0.41100
O 	O 	0.86389 0.03103 0.27163 -0.38400
Ni	Ni	0.03266 0.17944 0.22660 1.06300
O 	O 	0.90756 0.83382 0.25388 -0.40300
O 	O 	0.05527 0.08858 0.21347 -0.41400
O 	O 	0.90189 0.14534 0.18640 -0.37600
O 	O 	0.91800 0.96994 0.22789 -0.70200
O 	O 	0.94091 0.93727 0.28191 -0.36700
O 	O 	0.84122 0.97676 0.18266 -0.37300
O 	O 	0.78518 0.91129 0.21526 -0.41400
Ni	Ni	0.84875 0.87452 0.23454 1.07200
H 	H 	0.92633 0.14822 0.24286 0.15900
H 	H 	0.95214 0.95443 0.22165 0.15400
C 	C 	0.03056 0.05128 0.19273 0.28000
O 	O 	0.81848 0.90031 0.26752 -0.39200
C 	C 	0.04731 0.16584 0.28211 0.26300
C 	C 	0.95347 0.20723 0.18480 0.28000
C 	C 	0.81415 0.96768 0.27228 0.31700
C 	C 	0.79003 0.92491 0.19128 0.26900
C 	C 	0.94429 0.87222 0.27270 0.29600
O 	O 	0.97649 0.05146 0.18413 -0.36500
O 	O 	0.00841 0.20367 0.19165 -0.40900
C 	C 	0.01269 0.38426 0.13390 0.01200
C 	C 	0.01113 0.40371 0.15902 -0.06200
C 	C 	0.98131 0.34605 0.17587 0.01500
C 	C 	0.10130 0.47536 0.10586 -0.09300
C 	C 	0.94693 0.25182 0.14210 0.01800
C 	C 	0.97683 0.30948 0.12522 -0.04600
C 	C 	0.06003 0.43480 0.11849 0.04700
C 	C 	0.95395 0.26859 0.16770 -0.08000
H 	H 	0.03710 0.46204 0.16579 0.04600
H 	H 	0.98519 0.36019 0.19555 0.01400
H 	H 	0.92419 0.19259 0.13547 0.04600
H 	H 	0.97616 0.29448 0.10569 0.05900
C 	C 	0.62166 0.83305 0.14732 0.01800
C 	C 	0.63347 0.78974 0.16666 -0.05700
C 	C 	0.68975 0.81825 0.18032 0.01100
C 	C 	0.51139 0.78727 0.12414 -0.09000
C 	C 	0.72361 0.93248 0.15473 0.01400
C 	C 	0.66726 0.90377 0.14108 -0.05500
C 	C 	0.56155 0.80717 0.13476 0.03900
C 	C 	0.73458 0.89062 0.17479 -0.08200
H 	H 	0.59862 0.73470 0.17144 0.04700
H 	H 	0.69803 0.78478 0.19549 0.01900
H 	H 	0.75773 0.98830 0.15022 0.04400
H 	H 	0.65854 0.93733 0.12602 0.05700
C 	C 	0.12493 0.92715 0.15215 0.01400
C 	C 	0.13424 0.93742 0.17792 -0.05700
C 	C 	0.10387 0.97853 0.19120 0.00500
C 	C 	0.18316 0.85168 0.12650 -0.09700
C 	C 	0.05496 0.99940 0.15287 0.01000
C 	C 	0.08533 0.95829 0.13967 -0.05400
C 	C 	0.15668 0.88568 0.13839 0.03800
C 	C 	0.06396 0.00968 0.17873 -0.08400
H 	H 	0.16486 0.91352 0.18768 0.04100
H 	H 	0.11077 0.98531 0.21116 0.03000
H 	H 	0.02473 0.02360 0.14299 0.04600
H 	H 	0.07816 0.95082 0.11972 0.05500
C 	C 	0.64778 0.94285 0.30257 0.01300
C 	C 	0.60097 0.87189 0.29610 -0.05300
C 	C 	0.54661 0.84461 0.30977 0.00700
C 	C 	0.75828 0.96930 0.28332 -0.09900
C 	C 	0.58286 0.96246 0.33504 0.01400
C 	C 	0.63790 0.98913 0.32163 -0.05100
C 	C 	0.70869 0.96148 0.29225 0.04600
C 	C 	0.53814 0.88868 0.32977 -0.07900
H 	H 	0.60808 0.83606 0.28125 0.04600
H 	H 	0.51204 0.78805 0.30535 0.02400
H 	H 	0.57628 0.99757 0.35019 0.05000
H 	H 	0.67367 0.04427 0.32666 0.05400
C 	C 	0.15321 0.33434 0.33641 0.01400
C 	C 	0.18329 0.29871 0.32069 -0.05500
C 	C 	0.14844 0.24083 0.30377 0.00700
C 	C 	0.22013 0.45612 0.36412 -0.09500
C 	C 	0.05281 0.25138 0.31897 0.00600
C 	C 	0.08782 0.30951 0.33588 -0.05200
C 	C 	0.18956 0.40013 0.35172 0.04900
C 	C 	0.08307 0.21818 0.30239 -0.07800
H 	H 	0.23376 0.31712 0.32115 0.04800
H 	H 	0.17233 0.21471 0.29138 0.03600
H 	H 	0.00244 0.23428 0.31816 0.03800
H 	H 	0.06419 0.33650 0.34809 0.05800
C 	C 	0.07471 0.79793 0.30445 0.02000
C 	C 	0.13736 0.84005 0.29963 -0.06000
C 	C 	0.18474 0.82770 0.31364 0.01100
C 	C 	0.98790 0.84193 0.28368 -0.08700
C 	C 	0.10695 0.72782 0.33644 0.01700
C 	C 	0.05959 0.74055 0.32247 -0.05700
C 	C 	0.02660 0.82000 0.29302 0.02700
C 	C 	0.16974 0.77292 0.33253 -0.08300
H 	H 	0.14932 0.88420 0.28559 0.04300
H 	H 	0.23305 0.86190 0.31019 0.01200
H 	H 	0.09475 0.68510 0.35090 0.04700
H 	H 	0.01120 0.70762 0.32622 0.05300
C 	C 	0.39393 0.98749 0.46868 -0.03800
C 	C 	0.45675 0.03281 0.47441 0.02600
C 	C 	0.50370 0.03449 0.45768 -0.03500
C 	C 	0.48785 0.99137 0.43524 0.02000
C 	C 	0.42576 0.94068 0.43049 -0.07200
C 	C 	0.37875 0.93880 0.44734 0.02200
C 	C 	0.47409 0.07593 0.49866 0.02100
C 	C 	0.56849 0.07984 0.46376 0.10200
C 	C 	0.31543 0.88470 0.44327 0.08100
C 	C 	0.47871 0.03626 0.52041 -0.03200
C 	C 	0.50394 0.07827 0.54248 0.02300
C 	C 	0.52970 0.16005 0.54228 -0.07400
C 	C 	0.52062 0.19965 0.52107 0.02000
C 	C 	0.49109 0.15726 0.49951 -0.03600
C 	C 	0.45887 0.95239 0.51988 0.09900
C 	C 	0.54287 0.28369 0.52117 0.08000
C 	C 	0.50172 0.03763 0.56553 0.08600
C 	C 	0.47924 0.19721 0.47806 0.10200
C 	C 	0.34506 0.99063 0.48484 0.10300
C 	C 	0.53505 0.00085 0.41679 0.09900
N 	N 	0.49993 0.00522 0.58393 -0.11600
N 	N 	0.44297 0.88547 0.51942 -0.10200
N 	N 	0.56055 0.35072 0.52120 -0.12000
N 	N 	0.46978 0.22906 0.46092 -0.10700
N 	N 	0.62014 0.11605 0.46864 -0.10700
N 	N 	0.57283 0.00848 0.40212 -0.10300
N 	N 	0.26493 0.84154 0.44000 -0.11300
N 	N 	0.30610 0.99315 0.49776 -0.10600
C 	C 	0.96551 0.40748 0.50025 -0.03100
C 	C 	0.98371 0.48199 0.48998 0.02600
C 	C 	0.94812 0.52911 0.49423 -0.03800
C 	C 	0.89708 0.50426 0.51011 0.02300
C 	C 	0.87687 0.42818 0.51957 -0.07300
C 	C 	0.91039 0.37904 0.51392 0.02200
C 	C 	0.04108 0.51162 0.47493 0.01800
C 	C 	0.96412 0.60336 0.48220 0.10400
C 	C 	0.88684 0.29849 0.52112 0.09500
C 	C 	0.03939 0.48768 0.44989 -0.04300
C 	C 	0.09305 0.51751 0.43546 0.02200
C 	C 	0.14718 0.57595 0.44550 -0.07400
C 	C 	0.14729 0.60302 0.47018 0.02200
C 	C 	0.09579 0.56758 0.48524 -0.03700
C 	C 	0.98225 0.43270 0.43895 0.10800
C 	C 	0.19916 0.66938 0.47973 0.09000
C 	C 	0.09286 0.48678 0.41056 0.08900
C 	C 	0.09889 0.58883 0.51137 0.09900
C 	C 	0.00359 0.36024 0.49676 0.09400
C 	C 	0.86658 0.55780 0.51721 0.07700
N 	N 	0.09243 0.46215 0.39068 -0.10800
N 	N 	0.93663 0.38883 0.43025 -0.10800
N 	N 	0.24051 0.72226 0.48739 -0.10100
N 	N 	0.10126 0.60573 0.53221 -0.11000
N 	N 	0.97695 0.66256 0.47260 -0.10500
N 	N 	0.84240 0.60074 0.52276 -0.12000
N 	N 	0.86810 0.23421 0.52685 -0.10100
N 	N 	0.03402 0.32259 0.49396 -0.10600
C 	C 	0.61689 0.63138 0.52282 -0.03900
C 	C 	0.55769 0.58997 0.51197 0.01900
C 	C 	0.51356 0.53132 0.52543 -0.03900
C 	C 	0.53084 0.50938 0.54859 0.02400
C 	C 	0.59374 0.54112 0.55707 -0.08400
C 	C 	0.63349 0.60956 0.54610 0.00800
C 	C 	0.54057 0.61086 0.48696 0.02200
C 	C 	0.45088 0.49301 0.51526 0.10000
C 	C 	0.68836 0.66041 0.55960 0.08100
C 	C 	0.54800 0.57031 0.46564 -0.04000
C 	C 	0.52684 0.58569 0.44222 0.02500
C 	C 	0.49797 0.64135 0.44016 -0.09300
C 	C 	0.49344 0.68462 0.46139 0.01600
C 	C 	0.51486 0.66940 0.48471 -0.03900
C 	C 	0.57669 0.51212 0.46789 0.10000
C 	C 	0.46515 0.74327 0.45941 0.05800
C 	C 	0.53476 0.54437 0.42026 0.08500
C 	C 	0.50955 0.71308 0.50656 0.10100
C 	C 	0.66083 0.69546 0.50986 0.09800
C 	C 	0.48338 0.45996 0.56450 0.09700
N 	N 	0.54107 0.51141 0.40273 -0.10400
N 	N 	0.59958 0.46570 0.46973 -0.11100
N 	N 	0.44271 0.79023 0.45806 -0.11200
N 	N 	0.50539 0.74782 0.52401 -0.10500
N 	N 	0.40089 0.46248 0.50711 -0.11300
N 	N 	0.44546 0.42052 0.57720 -0.10300
N 	N 	0.73218 0.70107 0.57035 -0.10200
N 	N 	0.69585 0.74658 0.49950 -0.10400
C 	C 	0.86495 0.06705 0.64460 0.01000
C 	C 	0.89565 0.12323 0.62735 -0.05100
C 	C 	0.86486 0.16822 0.61629 0.01600
C 	C 	0.92177 0.97867 0.66421 -0.11800
C 	C 	0.77313 0.10218 0.64021 0.01000
C 	C 	0.80399 0.05735 0.65124 -0.05400
C 	C 	0.89570 0.01874 0.65525 0.05500
C 	C 	0.80304 0.15702 0.62239 -0.08100
H 	H 	0.94302 0.13132 0.62227 0.05600
H 	H 	0.88840 0.21011 0.60250 0.05000
H 	H 	0.72566 0.09361 0.64525 0.01200
H 	H 	0.78023 0.01449 0.66474 0.04700
C 	C 	0.36150 0.18779 0.66433 0.01500
C 	C 	0.38403 0.25802 0.65178 -0.05100
C 	C 	0.44368 0.28280 0.64182 0.01400
C 	C 	0.24456 0.13310 0.67913 -0.09600
C 	C 	0.45958 0.16870 0.65789 0.01000
C 	C 	0.39992 0.14409 0.66784 -0.05300
C 	C 	0.29786 0.15851 0.67244 0.04200
C 	C 	0.48121 0.23715 0.64423 -0.07400
H 	H 	0.35480 0.29247 0.64917 0.05400
H 	H 	0.45955 0.33574 0.63135 0.05200
H 	H 	0.48824 0.13342 0.66018 0.02500
H 	H 	0.38308 0.09015 0.67778 0.04700
C 	C 	0.00177 0.62634 0.61979 0.00700
C 	C 	0.02231 0.61405 0.64351 -0.05200
C 	C 	0.06018 0.67745 0.65801 -0.00100
C 	C 	0.89318 0.53208 0.60101 -0.09700
C 	C 	0.06655 0.76233 0.62379 0.01700
C 	C 	0.02920 0.69918 0.60906 -0.04600
C 	C 	0.94337 0.57305 0.60955 0.05600
C 	C 	0.07303 0.75294 0.64939 -0.07700
H 	H 	0.00427 0.55710 0.65159 0.04100
H 	H 	0.07008 0.66876 0.67727 0.01500
H 	H 	0.08122 0.82004 0.61625 0.04800
H 	H 	0.01658 0.70860 0.59020 0.05800
C 	C 	0.83877 0.47653 0.98097 -0.03700
C 	C 	0.90310 0.50750 0.97619 0.02600
C 	C 	0.92366 0.50876 0.95164 -0.04100
C 	C 	0.88013 0.47655 0.93205 0.02700
C 	C 	0.81616 0.44150 0.93707 -0.07400
C 	C 	0.79557 0.44076 0.96159 0.02100
C 	C 	0.94961 0.53099 0.99723 0.01700
C 	C 	0.98973 0.54206 0.94664 0.10900
C 	C 	0.73043 0.40033 0.96702 0.07300
C 	C 	0.96677 0.47441 0.00957 -0.02700
C 	C 	0.01864 0.49710 0.02614 0.01000
C 	C 	0.05505 0.57640 0.02956 -0.06900
C 	C 	0.03416 0.63305 0.01910 0.01400
C 	C 	0.98064 0.61008 0.00329 -0.02700
C 	C 	0.93212 0.39280 0.00460 0.09900
C 	C 	0.06900 0.71473 0.02377 0.09400
C 	C 	0.03465 0.43875 0.03950 0.07300
C 	C 	0.95832 0.66770 0.99279 0.10200
C 	C 	0.81729 0.48078 0.00588 0.10400
C 	C 	0.90121 0.47824 0.90679 0.09400
N 	N 	0.04675 0.39140 0.05002 -0.10800
N 	N 	0.90444 0.32773 0.00062 -0.10500
N 	N 	0.09679 0.77992 0.02749 -0.10200
N 	N 	0.94045 0.71362 0.98439 -0.10400
N 	N 	0.04247 0.56865 0.94270 -0.11500
N 	N 	0.91804 0.47955 0.88664 -0.10500
N 	N 	0.67851 0.36789 0.97140 -0.10600
N 	N 	0.80021 0.48419 0.02576 -0.10600
C 	C 	0.50708 0.95527 0.94165 -0.04000
C 	C 	0.49235 0.98918 0.96304 0.02000
C 	C 	0.50338 0.06919 0.96396 -0.03200
C 	C 	0.52750 0.11523 0.94327 0.02000
C 	C 	0.54253 0.08161 0.92170 -0.07100
C 	C 	0.53112 0.00096 0.92083 0.03000
C 	C 	0.46438 0.94036 0.98465 0.02400
C 	C 	0.48940 0.10408 0.98626 0.10300
C 	C 	0.54046 0.96415 0.89809 0.08100
C 	C 	0.50320 0.93294 0.00432 -0.03700
C 	C 	0.47670 0.89395 0.02595 0.02500
C 	C 	0.41114 0.85938 0.02753 -0.07400
C 	C 	0.37230 0.86555 0.00761 0.02500
C 	C 	0.39893 0.90602 0.98619 -0.03600
C 	C 	0.57050 0.96610 0.00233 0.10200
C 	C 	0.30501 0.82934 0.00902 0.07800
C 	C 	0.51678 0.89160 0.04689 0.09400
C 	C 	0.35913 0.91269 0.96574 0.10400
C 	C 	0.49689 0.87310 0.94101 0.10300
C 	C 	0.53445 0.19640 0.94397 0.08100
N 	N 	0.54885 0.88980 0.06357 -0.09900
N 	N 	0.62418 0.99259 0.00071 -0.10700
N 	N 	0.25135 0.80044 0.01015 -0.11100
N 	N 	0.32744 0.91807 0.94940 -0.10600
N 	N 	0.47825 0.13179 0.00405 -0.10300
N 	N 	0.53929 0.26092 0.94488 -0.11400
N 	N 	0.54786 0.93472 0.87995 -0.11800
N 	N 	0.48871 0.80753 0.94054 -0.10400
C 	C 	0.39201 0.40025 0.00313 -0.03900
C 	C 	0.40332 0.44500 0.98149 0.02200
C 	C 	0.39284 0.51571 0.98128 -0.03900
C 	C 	0.37458 0.54389 0.00303 0.01900
C 	C 	0.36718 0.50157 0.02518 -0.09200
C 	C 	0.37448 0.42882 0.02505 0.02500
C 	C 	0.43300 0.42226 0.95985 0.02400
C 	C 	0.40191 0.56006 0.95869 0.10100
C 	C 	0.36514 0.38415 0.04755 0.08500
C 	C 	0.39598 0.38111 0.93947 -0.03800
C 	C 	0.42452 0.36814 0.91775 0.02800
C 	C 	0.49034 0.39416 0.91670 -0.08000
C 	C 	0.52728 0.43523 0.93730 0.02700
C 	C 	0.49852 0.44789 0.95891 -0.03600
C 	C 	0.32850 0.35254 0.94085 0.10100
C 	C 	0.59484 0.46523 0.93629 0.04500
C 	C 	0.38624 0.33094 0.89619 0.09300
C 	C 	0.53642 0.48797 0.98024 0.10600
C 	C 	0.39929 0.32538 0.00287 0.10300
C 	C 	0.36264 0.61590 0.00250 0.05700
N 	N 	0.35569 0.30126 0.87898 -0.10200
N 	N 	0.27466 0.32978 0.94197 -0.11000
N 	N 	0.64876 0.48983 0.93566 -0.16100
N 	N 	0.56658 0.51991 0.99726 -0.10400
N 	N 	0.40918 0.59538 0.94067 -0.10500
N 	N 	0.35324 0.67341 0.00189 -0.11700
N 	N 	0.35769 0.34851 0.06551 -0.10400
N 	N 	0.40513 0.26565 0.00263 -0.10200
C 	C 	0.90792 0.17975 0.80805 0.01700
C 	C 	0.85254 0.17543 0.79547 -0.05500
C 	C 	0.80222 0.18082 0.80866 0.00900
C 	C 	0.98388 0.12416 0.78465 -0.09400
C 	C 	0.86394 0.20057 0.84694 0.01800
C 	C 	0.91401 0.19435 0.83374 -0.05200
C 	C 	0.95210 0.15333 0.79560 0.03800
C 	C 	0.80711 0.19155 0.83453 -0.07600
H 	H 	0.84735 0.16411 0.77561 0.04300
H 	H 	0.75905 0.17505 0.79882 0.01800
H 	H 	0.86856 0.20941 0.86690 0.05200
H 	H 	0.95646 0.19748 0.84367 0.05700
C 	C 	0.31403 0.02458 0.80142 0.01600
C 	C 	0.30958 0.00066 0.77648 -0.04900
C 	C 	0.25266 0.98113 0.76331 0.00300
C 	C 	0.42493 0.09485 0.82324 -0.09300
C 	C 	0.20305 0.00243 0.80059 0.01900
C 	C 	0.26006 0.02199 0.81375 -0.05300
C 	C 	0.37460 0.06156 0.81330 0.04200
C 	C 	0.19993 0.98622 0.77496 -0.08500
H 	H 	0.35082 0.00110 0.76692 0.04400
H 	H 	0.25059 0.96730 0.74364 0.02500
H 	H 	0.16260 0.00571 0.80990 0.04800
H 	H 	0.26287 0.03913 0.83316 0.05900
C 	C 	0.82959 0.60138 0.79897 0.01300
C 	C 	0.86008 0.56289 0.81361 -0.05300
C 	C 	0.82560 0.50194 0.82854 0.01200
C 	C 	0.89380 0.71991 0.77181 -0.10200
C 	C 	0.72973 0.51595 0.81342 0.00900
C 	C 	0.76434 0.57680 0.79850 -0.05500
C 	C 	0.86510 0.66614 0.78441 0.04000
C 	C 	0.76026 0.47957 0.82907 -0.08400
H 	H 	0.91053 0.58090 0.81374 0.05200
H 	H 	0.84981 0.47386 0.84025 0.05300
H 	H 	0.67932 0.49825 0.81322 0.03500
H 	H 	0.74045 0.60552 0.78685 0.04800
