data_crystal

_cell_length_a 18.34556
_cell_length_b 19.24883
_cell_length_c 41.29611
_cell_angle_alpha 88.43743
_cell_angle_beta  88.51413
_cell_angle_gamma 107.97195

_symmetry_space_group_name_	'P 1'
_symmetry_space_group_name_H-M	'P 1'

loop_
_symmetry_equiv_pos_as_xyz
  x,y,z

loop_
_atom_site_label
_atom_site_type_symbol
_atom_site_fract_x
_atom_site_fract_y
_atom_site_fract_z
_atom_site_charge
Zn	Zn	0.02492 0.99655 0.76032 1.21400
O 	O 	0.06197 0.80935 0.82042 -0.44900
O 	O 	0.03316 0.67397 0.40836 -0.45800
Zn	Zn	0.06201 0.17651 0.21427 1.19600
O 	O 	0.08956 0.16217 0.29757 -0.43800
C 	C 	0.02819 0.96703 0.20283 -0.14800
C 	C 	0.05765 0.95858 0.17174 0.08600
C 	C 	0.02396 0.50256 0.30380 0.06300
H 	H 	0.07196 0.04861 0.34053 0.04400
I 	I 	0.08556 0.92076 0.38504 -0.23100
H 	H 	0.01488 0.53492 0.54823 0.02600
C 	C 	0.00862 0.61460 0.46101 -0.13500
C 	C 	0.02370 0.49408 0.03638 -0.04100
C 	C 	0.04708 0.93051 0.22980 0.02600
C 	C 	0.01645 0.52053 0.33632 -0.10900
C 	C 	0.01101 0.52880 0.98718 -0.06400
I 	I 	0.08863 0.58170 0.26871 -0.12000
H 	H 	0.02677 0.57510 0.96901 0.03900
H 	H 	0.02425 0.93550 0.25378 0.03000
C 	C 	0.06802 0.49650 0.00405 -0.00700
C 	C 	0.05895 0.64515 0.43329 0.33000
O 	O 	0.10382 0.30861 0.26691 -0.39300
C 	C 	0.11057 0.02736 0.32652 -0.00900
Zn	Zn	0.09526 0.91956 0.81297 1.18900
O 	O 	0.17902 0.01500 0.80670 -0.45100
O 	O 	0.11137 0.08225 0.78103 -0.39100
O 	O 	0.10375 0.97795 0.73130 -0.43600
O 	O 	0.12435 0.89119 0.76485 -0.42100
C 	C 	0.17560 0.07665 0.79263 0.32100
C 	C 	0.14730 0.93900 0.74065 0.31800
Zn	Zn	0.20092 0.65072 0.39031 1.22500
Zn	Zn	0.36587 0.66341 0.35271 1.19900
C 	C 	0.17761 0.85977 0.32657 0.29200
Zn	Zn	0.28727 0.78223 0.34368 1.22500
Zn	Zn	0.09918 0.74201 0.37390 1.19900
H 	H 	0.23815 0.65234 0.32540 0.19700
C 	C 	0.39529 0.80209 0.39538 0.32200
O 	O 	0.12947 0.64156 0.43288 -0.39800
O 	O 	0.26370 0.67558 0.34492 -0.78600
O 	O 	0.33761 0.57567 0.38336 -0.45800
O 	O 	0.11930 0.57148 0.37195 -0.44200
O 	O 	0.26887 0.62097 0.41939 -0.44000
O 	O 	0.07727 0.65057 0.34109 -0.40400
H 	H 	0.22357 0.77982 0.40298 0.17700
O 	O 	0.37262 0.79945 0.30497 -0.38600
O 	O 	0.20709 0.75222 0.38317 -0.79200
O 	O 	0.11403 0.80580 0.33362 -0.42900
O 	O 	0.36841 0.83489 0.37232 -0.43800
O 	O 	0.24096 0.84504 0.31780 -0.41000
O 	O 	0.38632 0.73156 0.39500 -0.41200
C 	C 	0.30674 0.57522 0.41251 0.34700
C 	C 	0.07356 0.58335 0.35005 0.32000
Zn	Zn	0.33216 0.85553 0.15757 1.22100
Zn	Zn	0.16374 0.70937 0.15990 1.19300
C 	C 	0.44402 0.70431 0.08735 0.34300
Zn	Zn	0.30948 0.70384 0.12645 1.22500
H 	H 	0.23659 0.78844 0.11186 0.17200
C 	C 	0.25680 0.60693 0.18221 0.32200
O 	O 	0.42280 0.92763 0.18383 -0.38600
O 	O 	0.25220 0.77247 0.13284 -0.79000
O 	O 	0.16326 0.77450 0.19641 -0.43700
O 	O 	0.36074 0.92184 0.11782 -0.43100
O 	O 	0.26133 0.88154 0.18868 -0.41200
O 	O 	0.42518 0.85189 0.09321 -0.41600
O 	O 	0.12410 0.61576 0.13704 -0.46600
H 	H 	0.38359 0.75674 0.18140 0.18800
O 	O 	0.22177 0.63767 0.09849 -0.40400
O 	O 	0.37962 0.77567 0.15920 -0.78900
O 	O 	0.29876 0.61876 0.15528 -0.44300
O 	O 	0.37437 0.70924 0.08733 -0.43600
O 	O 	0.22560 0.65616 0.19199 -0.40200
C 	C 	0.18728 0.84599 0.19189 0.27300
C 	C 	0.39655 0.90653 0.09216 0.31400
C 	C 	0.15121 0.60266 0.10874 0.33000
C 	C 	0.10975 0.11366 0.28048 0.30500
O 	O 	0.15240 0.25915 0.22498 -0.45100
O 	O 	0.09594 0.10692 0.24940 -0.41500
C 	C 	0.14617 0.31660 0.24002 0.29000
C 	C 	0.18078 0.39016 0.22500 -0.06200
C 	C 	0.16801 0.40299 0.19240 -0.02200
C 	C 	0.19270 0.47386 0.17878 0.00700
C 	C 	0.23177 0.53288 0.19738 -0.09800
C 	C 	0.24805 0.51997 0.22978 0.08500
C 	C 	0.22075 0.44883 0.24371 -0.03800
H 	H 	0.18092 0.48305 0.15373 0.03800
H 	H 	0.23129 0.43916 0.26888 0.05700
H 	H 	0.13678 0.35822 0.17784 0.01500
I 	I 	0.31855 0.60517 0.25727 -0.18000
C 	C 	0.13250 0.88724 0.19576 -0.05600
C 	C 	0.09816 0.89005 0.22615 -0.02900
C 	C 	0.11145 0.92072 0.16855 -0.06000
H 	H 	0.13527 0.91563 0.14477 0.03300
H 	H 	0.11204 0.86201 0.24708 0.05600
C 	C 	0.14205 0.06112 0.29662 -0.07300
C 	C 	0.19435 0.03481 0.27933 0.01900
C 	C 	0.20859 0.97089 0.28995 -0.02500
C 	C 	0.17160 0.93299 0.31829 -0.08000
C 	C 	0.12621 0.96416 0.33775 0.04800
H 	H 	0.24532 0.94887 0.27520 0.06300
H 	H 	0.22037 0.06141 0.25656 0.04700
C 	C 	0.47058 0.87663 0.51107 -0.04000
H 	H 	0.46188 0.81755 0.51592 0.04200
C 	C 	0.44474 0.87322 0.44797 0.04100
C 	C 	0.42188 0.92119 0.52619 -0.00800
H 	H 	0.37350 0.89955 0.54417 0.03100
C 	C 	0.42376 0.84098 0.42371 -0.10800
C 	C 	0.40527 0.52900 0.52053 -0.02700
H 	H 	0.43370 0.58893 0.51799 0.03900
C 	C 	0.34073 0.48987 0.54573 -0.02400
H 	H 	0.31628 0.51702 0.56464 0.04000
C 	C 	0.35989 0.48079 0.49419 -0.00500
C 	C 	0.34472 0.50986 0.46298 0.05500
C 	C 	0.29523 0.44213 0.51898 -0.02700
H 	H 	0.23294 0.43036 0.51518 0.04000
C 	C 	0.32893 0.53740 0.43880 -0.11500
C 	C 	0.37069 0.04891 0.70454 -0.06600
C 	C 	0.35873 0.02872 0.73755 0.01900
C 	C 	0.28754 0.98190 0.74899 -0.02500
C 	C 	0.22692 0.95815 0.72769 -0.08600
C 	C 	0.24273 0.96938 0.69411 0.05700
C 	C 	0.31469 0.01444 0.68266 -0.00500
H 	H 	0.27775 0.96911 0.77473 0.03400
H 	H 	0.32498 0.02706 0.65692 0.05200
H 	H 	0.40223 0.05353 0.75462 0.03700
I 	I 	0.15853 0.92044 0.66032 -0.13400
H 	H 	0.13138 0.51671 0.00043 0.03300
C 	C 	0.06322 0.52516 0.06527 0.05800
C 	C 	0.10072 0.55760 0.08666 -0.12900
H 	H 	0.40446 0.93100 0.96949 0.04700
H 	H 	0.35252 0.04551 0.94444 0.03100
C 	C 	0.40753 0.95126 0.06290 -0.09300
H 	H 	0.46425 0.65413 0.93255 0.04100
H 	H 	0.38122 0.56740 0.98617 0.04000
C 	C 	0.39003 0.24402 0.79232 -0.05200
C 	C 	0.35128 0.21547 0.82176 -0.02000
C 	C 	0.27868 0.16384 0.82190 0.01200
C 	C 	0.24316 0.14199 0.79262 -0.09900
C 	C 	0.27783 0.17805 0.76326 0.07900
C 	C 	0.35182 0.22789 0.76324 -0.03800
H 	H 	0.25148 0.13835 0.84468 0.02800
H 	H 	0.38083 0.25154 0.74049 0.04900
H 	H 	0.37991 0.22888 0.84442 0.05000
I 	I 	0.22067 0.15923 0.71872 -0.08000
C 	C 	0.38138 0.43238 0.55208 -0.01300
C 	C 	0.43175 0.99017 0.97321 -0.08600
C 	C 	0.40296 0.05265 0.95977 0.00300
H 	H 	0.03817 0.66272 0.84671 0.04600
H 	H 	0.36395 0.96275 0.48221 0.04000
C 	C 	0.44402 0.58152 0.98130 -0.02700
O 	O 	0.50643 0.34047 0.80036 -0.40700
C 	C 	0.47355 0.27329 0.79155 0.29500
Zn	Zn	0.43412 0.20872 0.63229 1.19600
C 	C 	0.42990 0.11708 0.69411 0.30300
O 	O 	0.37134 0.27169 0.64389 -0.44800
O 	O 	0.44463 0.11231 0.62191 -0.46600
O 	O 	0.40859 0.17115 0.68227 -0.41300
C 	C 	0.40106 0.34267 0.64089 0.32800
O 	O 	0.44955 0.74228 0.32974 -0.45300
C 	C 	0.44131 0.79400 0.31001 0.32000
Zn	Zn	0.47852 0.82019 0.13511 1.19500
O 	O 	0.49238 0.73753 0.10920 -0.46100
C 	C 	0.49482 0.94784 0.17329 0.29300
I 	I 	0.43243 0.96903 0.30463 -0.11600
C 	C 	0.54500 0.93969 0.51707 -0.00800
C 	C 	0.49585 0.98352 0.53169 -0.05900
C 	C 	0.46572 0.91234 0.47781 0.01100
C 	C 	0.41684 0.95624 0.49256 -0.06100
C 	C 	0.44623 0.47099 0.52737 -0.02900
C 	C 	0.39074 0.40418 0.58433 0.05400
C 	C 	0.40059 0.42328 0.50045 -0.03100
C 	C 	0.33603 0.38416 0.52575 -0.02800
H 	H 	0.30752 0.32424 0.52830 0.03300
C 	C 	0.39629 0.37814 0.61056 -0.15400
C 	C 	0.48612 0.09670 0.94987 -0.01900
C 	C 	0.51519 0.03487 0.96283 0.00400
C 	C 	0.41375 0.08829 0.99328 -0.04800
H 	H 	0.37185 0.10997 0.00607 0.04500
C 	C 	0.44287 0.02645 0.00622 0.04800
C 	C 	0.42143 0.98626 0.03754 0.00900
C 	C 	0.48941 0.62940 0.95221 -0.02500
H 	H 	0.57735 0.73221 0.97524 0.03800
C 	C 	0.50638 0.62364 0.00395 -0.00500
C 	C 	0.48929 0.65193 0.03486 0.05200
C 	C 	0.47145 0.67574 0.05948 -0.11400
C 	C 	0.55144 0.67190 0.97532 -0.02700
O 	O 	0.51324 0.22728 0.78887 -0.47700
O 	O 	0.53212 0.27593 0.86124 -0.44600
O 	O 	0.55614 0.44924 0.84637 -0.42200
O 	O 	0.44799 0.37828 0.66260 -0.42100
O 	O 	0.50199 0.11944 0.69092 -0.42600
C 	C 	0.51000 0.10309 0.61256 0.33100
O 	O 	0.51380 0.92430 0.14575 -0.45900
C 	C 	0.55588 0.98801 0.19424 -0.07100
H 	H 	0.50910 0.07645 0.20233 0.06200
C 	C 	0.51101 0.84810 0.29493 -0.10000
C 	C 	0.52371 0.92411 0.29753 0.08700
H 	H 	0.59783 0.93336 0.52753 0.03100
C 	C 	0.50749 0.02442 0.56137 0.08900
C 	C 	0.53979 0.97463 0.48320 -0.06000
C 	C 	0.49098 0.01907 0.49840 0.02900
C 	C 	0.51154 0.05961 0.58523 -0.13300
H 	H 	0.50846 0.48270 0.53127 0.03300
H 	H 	0.42494 0.39620 0.48149 0.03600
C 	C 	0.49724 0.13297 0.98287 -0.01600
C 	C 	0.51100 0.13703 0.91875 0.05400
C 	C 	0.52600 0.07054 0.99625 -0.04600
H 	H 	0.55711 0.01316 0.95007 0.03900
C 	C 	0.53135 0.17231 0.89369 -0.11400
C 	C 	0.53365 0.57423 0.94761 -0.01000
C 	C 	0.55117 0.54792 0.91630 0.05000
C 	C 	0.48858 0.52590 0.97622 -0.02900
H 	H 	0.46268 0.46559 0.97626 0.03500
H 	H 	0.03604 0.37333 0.98825 0.04300
Zn	Zn	0.01511 0.21113 0.28307 1.21900
Zn	Zn	0.59165 0.36446 0.83598 1.22100
C 	C 	0.59866 0.50591 0.86161 0.32400
C 	C 	0.55457 0.21776 0.86472 0.32300
Zn	Zn	0.54275 0.35536 0.67271 1.22200
O 	O 	0.54029 0.27197 0.63994 -0.78300
H 	H 	0.52020 0.26139 0.71922 0.18100
O 	O 	0.57389 0.13580 0.62712 -0.39300
C 	C 	0.55748 0.05637 0.20584 -0.01400
H 	H 	0.61669 0.90877 0.19069 0.02000
C 	C 	0.57310 0.82384 0.28534 0.01000
H 	H 	0.56409 0.76620 0.28195 0.03100
H 	H 	0.58798 0.99618 0.46514 0.04000
H 	H 	0.49951 0.07811 0.49348 0.02500
H 	H 	0.52458 0.19212 0.98660 0.03300
H 	H 	0.57652 0.07775 0.01155 0.04800
C 	C 	0.59600 0.61634 0.97026 -0.03000
C 	C 	0.55063 0.56846 0.99937 -0.03000
C 	C 	0.56981 0.52777 0.89092 -0.14400
O 	O 	0.55998 0.27933 0.70169 -0.80000
Zn	Zn	0.62492 0.25016 0.79312 1.18400
O 	O 	0.60206 0.20372 0.84319 -0.41300
Zn	Zn	0.57657 0.20431 0.66717 1.22000
H 	H 	0.57202 0.28742 0.61970 0.17300
O 	O 	0.55231 0.43007 0.71069 -0.39600
C 	C 	0.61815 0.96211 0.19898 -0.04600
C 	C 	0.62345 0.10064 0.22039 0.07900
C 	C 	0.59864 0.97245 0.29509 -0.07200
H 	H 	0.60827 0.03038 0.29790 0.07800
H 	H 	0.57581 0.54378 0.01904 0.03500
H 	H 	0.59944 0.53237 0.77739 0.05700
I 	I 	0.60607 0.90288 0.81417 -0.10800
H 	H 	0.65879 0.63048 0.96539 0.02900
O 	O 	0.67259 0.35158 0.80611 -0.79500
I 	I 	0.62582 0.20663 0.23443 -0.10000
C 	C 	0.64789 0.87264 0.28292 -0.03200
H 	H 	0.63739 0.07056 0.81728 0.04800
C 	C 	0.61873 0.46481 0.72259 0.30100
H 	H 	0.67293 0.35395 0.88826 0.17500
O 	O 	0.68470 0.37993 0.86682 -0.78700
O 	O 	0.67164 0.53360 0.85386 -0.45200
H 	H 	0.68739 0.38812 0.78785 0.16500
O 	O 	0.63547 0.42244 0.65026 -0.44000
C 	C 	0.68414 0.00605 0.21259 0.05900
C 	C 	0.68788 0.07559 0.22344 -0.11300
C 	C 	0.66124 0.94645 0.28948 -0.03700
C 	C 	0.63827 0.54305 0.72718 -0.04800
C 	C 	0.63248 0.56907 0.75820 -0.03800
I 	I 	0.64423 0.68441 0.80891 -0.07000
C 	C 	0.01620 0.41808 0.99773 -0.06200
O 	O 	0.71680 0.21685 0.79043 -0.46500
Zn	Zn	0.66233 0.33174 0.71695 1.18400
O 	O 	0.68733 0.20967 0.66911 -0.42600
H 	H 	0.69548 0.85235 0.27730 0.04700
C 	C 	0.67070 0.64216 0.76462 0.08600
C 	C 	0.69456 0.06543 0.81773 -0.01400
O 	O 	0.67441 0.43548 0.72236 -0.46800
O 	O 	0.70611 0.25059 0.72057 -0.50400
C 	C 	0.70003 0.40662 0.64716 0.31700
H 	H 	0.73317 0.98630 0.21432 0.01400
C 	C 	0.67825 0.59121 0.70214 -0.01500
C 	C 	0.70448 0.99650 0.81543 0.06300
H 	H 	0.68207 0.57152 0.67801 0.05100
C 	C 	0.74852 0.20049 0.81641 0.31500
O 	O 	0.71614 0.36048 0.66791 -0.40800
Zn	Zn	0.74455 0.48475 0.86953 1.19600
Zn	Zn	0.75708 0.34605 0.84038 1.22100
O 	O 	0.75848 0.24258 0.84159 -0.42000
C 	C 	0.72849 0.22170 0.69531 0.32700
C 	C 	0.74021 0.99694 0.29149 0.26400
C 	C 	0.71956 0.68767 0.74035 -0.09600
C 	C 	0.75834 0.12801 0.81969 -0.05700
C 	C 	0.76098 0.12155 0.23618 0.33000
C 	C 	0.71983 0.66269 0.70876 0.01300
O 	O 	0.75410 0.04693 0.31388 -0.43300
O 	O 	0.76150 0.15346 0.26407 -0.39000
H 	H 	0.74548 0.51625 0.53255 0.03700
C 	C 	0.75115 0.43685 0.61965 -0.10500
O 	O 	0.00062 0.94425 0.80259 -0.80600
C 	C 	0.00584 0.64160 0.82561 -0.04900
H 	H 	0.77634 0.13253 0.65527 0.06600
O 	O 	0.78426 0.50162 0.81914 -0.41300
O 	O 	0.76915 0.89829 0.77534 -0.39000
C 	C 	0.77897 0.99019 0.81459 -0.12400
C 	C 	0.77234 0.75975 0.74762 0.32700
H 	H 	0.75513 0.69775 0.68962 0.03800
O 	O 	0.79511 0.99282 0.27051 -0.38800
O 	O 	0.78723 0.81262 0.72506 -0.46100
C 	C 	0.79161 0.46315 0.59600 0.04400
C 	C 	0.79244 0.92294 0.80372 0.33000
C 	C 	0.79923 0.20076 0.69689 -0.06200
C 	C 	0.80654 0.52060 0.53599 -0.03300
O 	O 	0.80657 0.76923 0.77588 -0.37500
O 	O 	0.00947 0.08433 0.19224 -0.47000
I 	I 	0.01499 0.99355 0.12895 -0.16200
C 	C 	0.81159 0.14879 0.67609 -0.03100
O 	O 	0.82461 0.11540 0.22377 -0.44900
C 	C 	0.99740 0.76435 0.81019 0.29800
Zn	Zn	0.82711 0.14599 0.30800 1.19600
O 	O 	0.83149 0.35916 0.88004 -0.38700
C 	C 	0.83183 0.12105 0.82140 -0.02200
H 	H 	0.83340 0.44934 0.49402 0.03700
O 	O 	0.98947 0.07632 0.74121 -0.40600
H 	H 	0.98967 0.97647 0.81904 0.17600
C 	C 	0.96414 0.46976 0.35750 0.02500
H 	H 	0.95601 0.48368 0.38230 0.03800
C 	C 	0.96713 0.52663 0.01977 0.00500
C 	C 	0.96855 0.58813 0.48474 0.07600
C 	C 	0.84319 0.48256 0.80900 0.32200
O 	O 	0.84715 0.48179 0.88174 -0.46600
O 	O 	0.84325 0.41526 0.81448 -0.42900
C 	C 	0.85880 0.42232 0.89392 0.31600
Zn	Zn	0.84520 0.91327 0.73233 1.19900
Zn	Zn	0.90559 0.85517 0.79232 1.22600
H 	H 	0.95880 0.86466 0.73570 0.18100
O 	O 	0.93991 0.89827 0.74883 -0.79100
O 	O 	0.86172 0.01547 0.74240 -0.45300
O 	O 	0.84174 0.89804 0.81844 -0.44400
O 	O 	0.93250 0.77791 0.81564 -0.43800
C 	C 	0.92041 0.06824 0.73054 0.30800
Zn	Zn	0.89271 0.08327 0.25108 1.22800
C 	C 	0.93073 0.30030 0.31090 0.28800
H 	H 	0.95499 0.22522 0.23114 0.17600
O 	O 	0.97539 0.18692 0.24002 -0.78500
O 	O 	0.93516 0.00901 0.23242 -0.43000
H 	H 	0.92928 0.08268 0.30771 0.18200
O 	O 	0.91906 0.12033 0.29330 -0.79800
O 	O 	0.86091 0.25712 0.30546 -0.44000
O 	O 	0.98766 0.27333 0.31482 -0.43900
C 	C 	0.98608 0.02046 0.20802 0.38300
C 	C 	0.94362 0.37793 0.31678 -0.05400
C 	C 	0.92768 0.39884 0.34772 -0.01800
C 	C 	0.98845 0.43094 0.29430 -0.02100
H 	H 	0.99914 0.41557 0.27000 0.04800
H 	H 	0.89197 0.35863 0.36507 0.03700
C 	C 	0.83879 0.49594 0.56675 0.00200
C 	C 	0.85441 0.48365 0.51508 -0.02200
C 	C 	0.88596 0.45852 0.54625 -0.03500
H 	H 	0.89050 0.40308 0.55128 0.04500
C 	C 	0.87439 0.59265 0.53454 -0.02200
H 	H 	0.86984 0.64809 0.52951 0.03800
C 	C 	0.92157 0.55524 0.51404 -0.01700
C 	C 	0.95382 0.53058 0.54480 -0.00500
C 	C 	0.90594 0.56753 0.56571 -0.03400
H 	H 	0.92694 0.60184 0.58677 0.04600
C 	C 	0.85001 0.22572 0.72204 -0.00900
C 	C 	0.90304 0.18977 0.72983 0.01400
C 	C 	0.90501 0.12848 0.71274 -0.09200
C 	C 	0.86578 0.11375 0.68361 0.06900
H 	H 	0.93588 0.20402 0.75145 0.04500
H 	H 	0.84476 0.26947 0.73697 0.04500
I 	I 	0.88021 0.03174 0.65307 -0.16500
C 	C 	0.95965 0.45091 0.98125 0.02800
C 	C 	0.92488 0.43366 0.94995 0.03900
H 	H 	0.94720 0.57149 0.02910 0.02800
C 	C 	0.97245 0.41597 0.03068 0.00700
H 	H 	0.95697 0.37002 0.04900 0.03300
C 	C 	0.91513 0.44833 0.01353 -0.05100
H 	H 	0.85176 0.42823 0.01703 0.03900
C 	C 	0.89563 0.42569 0.92408 -0.11500
C 	C 	0.84215 0.05242 0.81896 0.04100
H 	H 	0.89970 0.04831 0.81838 0.01600
H 	H 	0.88133 0.16915 0.82303 0.04600
C 	C 	0.99368 0.68975 0.80177 -0.03500
C 	C 	0.96795 0.56649 0.82423 0.02700
C 	C 	0.91508 0.54036 0.79997 -0.10300
C 	C 	0.91733 0.58605 0.77259 0.08600
C 	C 	0.95603 0.66101 0.77368 -0.04500
H 	H 	0.97266 0.53026 0.84401 0.04500
H 	H 	0.95077 0.69754 0.75406 0.04300
I 	I 	0.85890 0.54376 0.73046 -0.11900
