data_crystal

_cell_length_a 40.13038
_cell_length_b 39.27956
_cell_length_c 22.99724
_cell_angle_alpha 89.96127
_cell_angle_beta  89.94907
_cell_angle_gamma 89.99882

_symmetry_space_group_name_	'P 1'
_symmetry_space_group_name_H-M	'P 1'

loop_
_symmetry_equiv_pos_as_xyz
  x,y,z

loop_
_atom_site_label
_atom_site_type_symbol
_atom_site_fract_x
_atom_site_fract_y
_atom_site_fract_z
_atom_site_charge
C 	C 	0.54631 0.44720 0.11938 0.10300
N 	N 	0.51411 0.45283 0.10594 -0.17300
C 	C 	0.49699 0.42535 0.12432 0.10500
C 	C 	0.46359 0.41661 0.10138 -0.07400
C 	C 	0.43757 0.44308 0.09661 0.09300
C 	C 	0.45553 0.38103 0.08609 0.04800
C 	C 	0.47047 0.36574 0.03754 -0.06500
C 	C 	0.46213 0.33239 0.02218 0.00300
C 	C 	0.43911 0.31400 0.05570 0.02000
C 	C 	0.43241 0.36269 0.11945 -0.05100
N 	N 	0.43972 0.47341 0.12375 -0.12400
C 	C 	0.41377 0.44381 0.05318 -0.05500
C 	C 	0.41655 0.49329 0.09825 0.09400
C 	C 	0.41597 0.53074 0.10500 -0.07500
C 	C 	0.38612 0.55014 0.08718 0.05300
C 	C 	0.32636 0.55886 0.09194 -0.01400
C 	C 	0.38831 0.57437 0.04248 -0.07100
C 	C 	0.35951 0.59042 0.02197 0.01500
C 	C 	0.32842 0.58264 0.04654 -0.01700
N 	N 	0.47622 0.54375 0.11082 -0.17300
C 	C 	0.49413 0.57082 0.12844 0.10400
C 	C 	0.47427 0.59308 0.15981 -0.05800
C 	C 	0.44279 0.57885 0.16102 -0.05700
C 	C 	0.52623 0.58033 0.10101 -0.07100
C 	C 	0.53340 0.61630 0.08614 0.04400
C 	C 	0.56995 0.66545 0.09106 -0.02600
C 	C 	0.54782 0.68396 0.05607 0.01500
C 	C 	0.51862 0.66846 0.03563 -0.02600
C 	C 	0.51152 0.63467 0.05030 -0.05100
N 	N 	0.55073 0.52298 0.11588 -0.12500
C 	C 	0.58604 0.52154 0.03967 -0.05700
C 	C 	0.57201 0.50350 0.08515 0.09300
C 	C 	0.57398 0.46614 0.09162 -0.06900
C 	C 	0.60532 0.44862 0.07664 0.03900
C 	C 	0.63204 0.44919 0.11582 -0.05100
C 	C 	0.66381 0.43942 0.09753 -0.02200
C 	C 	0.66915 0.42951 0.03969 -0.00500
C 	C 	0.64192 0.42632 0.00185 0.00500
C 	C 	0.61004 0.43577 0.02037 -0.03200
C 	C 	0.54989 0.41594 0.14661 -0.05700
C 	C 	0.51835 0.40198 0.14982 -0.05800
C 	C 	0.42428 0.32925 0.10437 -0.02700
C 	C 	0.40030 0.47603 0.05419 -0.05500
C 	C 	0.44496 0.54854 0.13045 0.10600
C 	C 	0.57296 0.55388 0.04291 -0.05700
C 	C 	0.55174 0.55389 0.09038 0.09200
C 	C 	0.56261 0.63189 0.10656 -0.05000
H 	H 	0.50621 0.46898 0.07254 0.09700
H 	H 	0.48225 0.52878 0.07475 0.09600
H 	H 	0.68466 0.44160 0.12722 0.05400
H 	H 	0.64576 0.41829 0.95729 0.02400
H 	H 	0.62848 0.45873 0.15958 0.05800
H 	H 	0.58942 0.43493 0.99005 0.02400
H 	H 	0.47348 0.32086 0.98424 0.01900
H 	H 	0.42078 0.37434 0.15702 0.06000
H 	H 	0.40645 0.31521 0.13042 0.05700
H 	H 	0.48829 0.37980 0.01150 0.05900
H 	H 	0.36127 0.60849 0.98649 0.01100
H 	H 	0.41218 0.58015 0.02274 0.05700
C 	C 	0.35511 0.54283 0.11240 -0.05800
H 	H 	0.30240 0.55247 0.11075 0.05800
H 	H 	0.59283 0.67708 0.10620 0.05000
H 	H 	0.57967 0.61793 0.13420 0.05700
H 	H 	0.48909 0.62276 0.03380 0.05100
H 	H 	0.50150 0.68255 0.00830 0.05500
H 	H 	0.57273 0.40130 0.14805 0.05700
H 	H 	0.51336 0.37501 0.15410 0.05800
H 	H 	0.41362 0.42722 0.01559 0.05900
H 	H 	0.38820 0.48804 0.01746 0.06000
H 	H 	0.47939 0.61990 0.16589 0.05900
H 	H 	0.42006 0.59316 0.16774 0.05800
H 	H 	0.59622 0.51027 0.00055 0.05800
H 	H 	0.57125 0.57127 0.00649 0.05800
H 	H 	0.35322 0.52425 0.14708 0.06400
Zn	Zn	0.37804 0.11518 0.99022 1.22200
C 	C 	0.32047 0.07375 0.96419 0.33700
O 	O 	0.39532 0.09726 0.06445 -0.41500
O 	O 	0.34136 0.05287 0.93832 -0.43000
O 	O 	0.37109 0.04528 0.05575 -0.42400
C 	C 	0.40688 0.08611 0.88825 0.33900
O 	O 	0.38445 0.10780 0.90686 -0.39900
O 	O 	0.41683 0.06144 0.92248 -0.47200
C 	C 	0.38368 0.06934 0.08842 0.33700
O 	O 	0.42374 0.15307 0.98661 -0.24700
Zn	Zn	0.38610 0.03973 0.97636 1.17900
O 	O 	0.33182 0.09904 0.99596 -0.40900
C 	C 	0.40198 0.17639 0.99895 0.21900
O 	O 	0.37169 0.16581 0.00593 -0.30200
C 	C 	0.51120 0.98979 0.53246 0.03600
C 	C 	0.48614 0.01535 0.53128 0.04200
C 	C 	0.51133 0.96398 0.49017 -0.04300
C 	C 	0.48723 0.96384 0.44584 0.03200
C 	C 	0.46153 0.01471 0.48786 -0.04000
C 	C 	0.46207 0.98932 0.44480 0.04100
H 	H 	0.44229 0.03405 0.48722 0.07500
H 	H 	0.53030 0.94438 0.49133 0.07300
C 	C 	0.43814 0.98873 0.39981 -0.01000
C 	C 	0.44065 0.96559 0.35340 0.03200
C 	C 	0.42455 0.97722 0.30188 -0.00900
C 	C 	0.41042 0.00953 0.30799 -0.00400
S 	S 	0.41772 0.02296 0.37548 0.10300
H 	H 	0.42595 0.96428 0.26048 0.08100
C 	C 	0.48766 0.93889 0.40161 -0.01000
C 	C 	0.46573 0.94063 0.35416 0.03400
C 	C 	0.47830 0.92418 0.30339 -0.01400
C 	C 	0.51002 0.91006 0.31110 0.03000
S 	S 	0.52183 0.91866 0.37906 0.07900
H 	H 	0.46701 0.92657 0.26092 0.09800
C 	C 	0.53593 0.01669 0.61852 0.03400
C 	C 	0.53639 0.99169 0.57509 -0.01200
S 	S 	0.55785 0.95854 0.60065 0.10100
C 	C 	0.56947 0.97520 0.66422 0.02500
C 	C 	0.55503 0.00756 0.66835 -0.02500
C 	C 	0.48684 0.04146 0.57353 -0.01300
C 	C 	0.51043 0.04120 0.61877 0.03200
C 	C 	0.49911 0.05820 0.66987 -0.01100
C 	C 	0.46679 0.07104 0.66456 -0.00700
S 	S 	0.45297 0.06152 0.59822 0.11700
H 	H 	0.51184 0.05701 0.71123 0.06900
H 	H 	0.55524 0.02209 0.70826 0.07400
Zn	Zn	0.60420 0.88372 0.99221 1.21700
C 	C 	0.66360 0.92417 0.00466 0.34300
O 	O 	0.60327 0.89288 0.07617 -0.41300
O 	O 	0.64494 0.94598 0.03323 -0.38700
O 	O 	0.57207 0.94080 0.06675 -0.41500
C 	C 	0.59198 0.92697 0.89284 0.33500
O 	O 	0.58303 0.89909 0.92026 -0.40900
O 	O 	0.60655 0.95179 0.92110 -0.47400
C 	C 	0.58278 0.91533 0.09847 0.33900
O 	O 	0.55790 0.84727 0.00389 -0.24800
Zn	Zn	0.59835 0.95929 0.00303 1.20400
O 	O 	0.64980 0.89909 0.97550 -0.44600
C 	C 	0.57922 0.82277 0.99697 0.21700
O 	O 	0.60985 0.83222 0.98964 -0.36700
Zn	Zn	0.13326 0.62762 0.98192 1.22400
C 	C 	0.07994 0.67651 0.96971 0.33200
O 	O 	0.12829 0.60667 0.05936 -0.41800
O 	O 	0.06094 0.65125 0.95220 -0.42500
O 	O 	0.07357 0.61994 0.06875 -0.42200
C 	C 	0.10124 0.59200 0.88903 0.34000
O 	O 	0.11911 0.61895 0.90186 -0.40000
O 	O 	0.08284 0.57757 0.92921 -0.46800
C 	C 	0.10199 0.61121 0.09243 0.33300
O 	O 	0.17832 0.59048 0.96431 -0.25300
Zn	Zn	0.06255 0.60400 0.99140 1.17900
O 	O 	0.10878 0.67028 0.99464 -0.41900
C 	C 	0.19702 0.61702 0.97215 0.30800
O 	O 	0.18115 0.64496 0.98340 -0.37100
C 	C 	0.03188 0.49747 0.53570 0.03600
C 	C 	0.00307 0.47639 0.53543 0.03700
C 	C 	0.04022 0.51649 0.48600 -0.04200
C 	C 	0.02101 0.51355 0.43518 0.03200
C 	C 	0.98311 0.47444 0.48535 -0.04700
C 	C 	0.99228 0.49223 0.43477 0.03600
H 	H 	0.96107 0.45852 0.48532 0.07600
H 	H 	0.06196 0.53282 0.48647 0.07200
C 	C 	0.97383 0.48906 0.38261 -0.02000
C 	C 	0.98561 0.50304 0.33036 0.02900
C 	C 	0.97354 0.48601 0.28013 -0.02700
C 	C 	0.95303 0.45832 0.29330 0.02500
S 	S 	0.94931 0.45611 0.36553 0.09900
H 	H 	0.97828 0.49446 0.23609 0.08000
C 	C 	0.02991 0.53093 0.38356 -0.01600
C 	C 	0.01372 0.52407 0.33088 0.02700
C 	C 	0.03353 0.53132 0.28118 -0.02500
C 	C 	0.06539 0.54304 0.29523 0.02600
S 	S 	0.06808 0.54523 0.36757 0.08900
H 	H 	0.02445 0.52984 0.23695 0.07700
C 	C 	0.04437 0.47865 0.63528 0.02800
C 	C 	0.05259 0.49756 0.58533 -0.01100
S 	S 	0.07575 0.53067 0.60647 0.10300
C 	C 	0.07725 0.52166 0.67724 -0.00300
C 	C 	0.05862 0.49218 0.68707 -0.01000
C 	C 	0.99634 0.45596 0.58455 -0.01800
C 	C 	0.01641 0.45714 0.63435 0.03700
C 	C 	0.99992 0.44489 0.68506 -0.02500
C 	C 	0.96681 0.43524 0.67491 0.02200
S 	S 	0.95859 0.44275 0.60491 0.11600
H 	H 	0.01022 0.44670 0.72838 0.07900
H 	H 	0.05261 0.48324 0.73030 0.07900
Zn	Zn	0.87006 0.39696 0.98519 1.21800
C 	C 	0.80793 0.43365 0.98313 0.30800
O 	O 	0.89712 0.41012 0.91741 -0.43600
O 	O 	0.82284 0.46058 0.00469 -0.36200
O 	O 	0.86820 0.45888 0.90157 -0.41100
C 	C 	0.88209 0.43606 0.08764 0.33800
O 	O 	0.86481 0.41076 0.06589 -0.42400
O 	O 	0.89336 0.46030 0.05357 -0.41700
C 	C 	0.88872 0.43534 0.88297 0.32500
O 	O 	0.91412 0.36169 0.01770 -0.29100
Zn	Zn	0.87076 0.47352 0.98209 1.19900
O 	O 	0.82539 0.40958 0.95768 -0.42500
C 	C 	0.89512 0.33675 0.00121 0.31000
O 	O 	0.86690 0.34553 0.97857 -0.39300
C 	C 	0.97985 0.93290 0.98731 0.07200
N 	N 	0.96367 0.96126 0.97040 -0.16300
C 	C 	0.93322 0.95970 0.99479 0.07100
C 	C 	0.90625 0.98439 0.98195 -0.05600
C 	C 	0.91487 0.02023 0.96858 0.08200
C 	C 	0.87092 0.97382 0.98598 0.00700
C 	C 	0.85882 0.94751 0.95056 -0.04300
C 	C 	0.82538 0.93770 0.95408 -0.03800
C 	C 	0.80371 0.95436 0.99263 -0.00000
C 	C 	0.84936 0.99014 0.02510 -0.01800
N 	N 	0.94413 0.03451 0.98357 -0.12600
C 	C 	0.89456 0.04320 0.93989 -0.05600
C 	C 	0.94244 0.06682 0.96415 0.08400
C 	C 	0.96812 0.09270 0.97745 -0.05800
C 	C 	0.95859 0.12881 0.98313 0.00700
C 	C 	0.93584 0.17498 0.04081 -0.01600
C 	C 	0.96212 0.15094 0.93570 -0.04300
C 	C 	0.95223 0.18494 0.94060 -0.03200
C 	C 	0.93908 0.19710 0.99321 0.00100
N 	N 	0.01643 0.05325 0.96843 -0.16300
C 	C 	0.04897 0.05427 0.98261 0.07100
C 	C 	0.05624 0.08374 0.01328 -0.03100
C 	C 	0.02654 0.10142 0.01813 -0.03100
C 	C 	0.07406 0.02988 0.95959 -0.05900
C 	C 	0.10976 0.03907 0.95956 0.00900
C 	C 	0.16239 0.04412 0.01060 -0.00800
C 	C 	0.17814 0.05385 0.95869 -0.01800
C 	C 	0.15963 0.05569 0.90703 -0.03100
C 	C 	0.12546 0.04877 0.90764 -0.04800
N 	N 	0.03463 0.98108 0.95791 -0.12600
C 	C 	0.06721 0.94091 0.91730 -0.05600
C 	C 	0.03664 0.94808 0.94247 0.08500
C 	C 	0.01238 0.92213 0.96266 -0.05900
C 	C 	0.02131 0.88569 0.96113 0.01000
C 	C 	0.03577 0.87028 0.00996 -0.02400
C 	C 	0.04479 0.83594 0.00824 -0.00500
C 	C 	0.03987 0.81694 0.95736 -0.01200
C 	C 	0.02542 0.83235 0.90848 -0.02600
C 	C 	0.01610 0.86664 0.91041 -0.04600
C 	C 	0.95969 0.91307 0.02274 -0.03200
C 	C 	0.92977 0.93036 0.02768 -0.03000
C 	C 	0.81582 0.98071 0.02797 -0.01000
C 	C 	0.91221 0.07327 0.93735 -0.05600
C 	C 	0.00276 0.08185 0.99010 0.07100
C 	C 	0.08454 0.97121 0.91639 -0.05600
C 	C 	0.06362 0.99528 0.94102 0.08600
C 	C 	0.12834 0.03672 0.01100 -0.02400
H 	H 	0.96940 0.97529 0.93309 0.10000
H 	H 	0.00675 0.03971 0.93318 0.10000
H 	H 	0.05568 0.82412 0.04631 0.05200
H 	H 	0.02144 0.81779 0.86910 0.05200
H 	H 	0.03994 0.88489 0.04922 0.05600
H 	H 	0.00503 0.87843 0.87247 0.05200
H 	H 	0.81628 0.91727 0.92675 0.04800
H 	H 	0.85854 0.01031 0.05293 0.05400
H 	H 	0.79923 0.99389 0.05756 0.05600
H 	H 	0.87530 0.93473 0.92028 0.04800
H 	H 	0.95467 0.20180 0.90353 0.05700
H 	H 	0.97222 0.14172 0.89495 0.05200
C 	C 	0.94546 0.14092 0.03571 -0.01900
H 	H 	0.92581 0.18418 0.08164 0.05100
H 	H 	0.17660 0.04211 0.05049 0.05700
H 	H 	0.11642 0.02897 0.05117 0.05600
H 	H 	0.11131 0.05036 0.86764 0.05100
H 	H 	0.17174 0.06245 0.86651 0.04800
H 	H 	0.96291 0.88610 0.03063 0.05700
H 	H 	0.90634 0.91899 0.04060 0.05700
H 	H 	0.86792 0.04075 0.93393 0.05200
H 	H 	0.90144 0.09819 0.93026 0.05300
H 	H 	0.08072 0.09508 0.01715 0.05600
H 	H 	0.02457 0.12845 0.02653 0.05800
H 	H 	0.07865 0.91598 0.91543 0.05200
H 	H 	0.11140 0.97320 0.91378 0.05200
H 	H 	0.94270 0.12393 0.07253 0.05400
C 	C 	0.92813 0.23286 0.99812 -0.03000
C 	C 	0.95147 0.25956 0.99546 0.06600
C 	C 	0.94048 0.29349 0.99740 -0.05700
C 	C 	0.90639 0.30096 0.00260 -0.04100
C 	C 	0.88319 0.27413 0.00799 0.09400
C 	C 	0.89419 0.24023 0.00515 -0.03900
H 	H 	0.95848 0.31398 0.99415 0.07200
H 	H 	0.87628 0.21965 0.00834 0.05900
N 	N 	0.98650 0.25210 0.99104 -0.14700
N 	N 	0.84842 0.28140 0.01728 -0.11400
C 	C 	0.00227 0.25360 0.04830 -0.08000
H 	H 	0.00063 0.27972 0.06676 0.08700
H 	H 	0.02898 0.24668 0.04405 0.07600
H 	H 	0.99039 0.23511 0.07852 0.07400
C 	C 	0.84025 0.27988 0.07923 -0.09700
H 	H 	0.84449 0.25384 0.09678 0.06600
H 	H 	0.81358 0.28650 0.08535 0.06700
H 	H 	0.85542 0.29861 0.10399 0.07500
H 	H 	0.99820 0.26898 0.96230 0.09300
H 	H 	0.83344 0.26445 0.99383 0.07000
C 	C 	0.93741 0.46738 0.75212 -0.00700
C 	C 	0.94111 0.43704 0.72069 0.10300
C 	C 	0.92353 0.40757 0.73819 -0.14100
C 	C 	0.90439 0.40852 0.78946 0.08200
C 	C 	0.90370 0.43780 0.82442 -0.02400
C 	C 	0.92050 0.46771 0.80568 -0.06100
C 	C 	0.92081 0.49983 0.84262 0.76700
H 	H 	0.94946 0.49027 0.73628 0.12100
H 	H 	0.89096 0.38606 0.80360 0.07500
C 	C 	0.92586 0.37492 0.70307 0.79300
F 	F 	0.94292 0.52380 0.82110 -0.41300
F 	F 	0.93041 0.49232 0.89897 -0.49300
F 	F 	0.88936 0.51421 0.84309 -0.45100
F 	F 	0.95856 0.36379 0.70158 -0.43800
F 	F 	0.91499 0.38079 0.64692 -0.43600
F 	F 	0.90650 0.34919 0.72661 -0.43700
C 	C 	0.90000 0.46551 0.23972 0.00200
C 	C 	0.92784 0.44526 0.25255 0.09600
C 	C 	0.93483 0.41640 0.21793 -0.13700
C 	C 	0.91764 0.41205 0.16521 0.07900
C 	C 	0.89261 0.43498 0.14879 -0.02400
C 	C 	0.88154 0.45990 0.18869 -0.07000
C 	C 	0.85169 0.48216 0.17503 0.77200
H 	H 	0.89413 0.48699 0.26748 0.09000
H 	H 	0.92513 0.39217 0.13525 0.07600
C 	C 	0.96270 0.39218 0.23424 0.79300
F 	F 	0.83905 0.49704 0.22496 -0.43600
F 	F 	0.82652 0.46300 0.15016 -0.45100
F 	F 	0.86107 0.50761 0.13682 -0.45100
F 	F 	0.96131 0.38471 0.29300 -0.43200
F 	F 	0.99308 0.40709 0.22165 -0.42600
F 	F 	0.96030 0.36183 0.20393 -0.43600
C 	C 	0.04941 0.78075 0.95569 0.01500
C 	C 	0.08198 0.77116 0.94004 0.03900
C 	C 	0.09142 0.73675 0.94296 -0.00600
C 	C 	0.06872 0.71200 0.96215 -0.09600
C 	C 	0.03588 0.72159 0.97662 0.11300
C 	C 	0.02633 0.75592 0.97267 -0.09100
H 	H 	0.11650 0.72938 0.93075 0.05400
H 	H 	0.00119 0.76333 0.98442 0.05900
N 	N 	0.10536 0.79646 0.92033 -0.13000
N 	N 	0.01263 0.69659 0.99785 -0.14800
C 	C 	0.12942 0.80463 0.96600 -0.12900
H 	H 	0.11646 0.81333 0.00605 0.09200
H 	H 	0.14579 0.82562 0.95083 0.06600
H 	H 	0.14530 0.78221 0.97622 0.06900
C 	C 	0.01008 0.69830 0.06123 -0.09400
H 	H 	0.03517 0.69657 0.08146 0.12800
H 	H 	0.99494 0.67652 0.07704 0.09900
H 	H 	0.99777 0.72234 0.07502 0.08200
H 	H 	0.11772 0.78800 0.88293 0.09000
H 	H 	0.98920 0.70014 0.97883 0.09000
C 	C 	0.11715 0.54838 0.74492 -0.00400
C 	C 	0.08469 0.54700 0.72277 0.10200
C 	C 	0.05902 0.56621 0.74977 -0.14400
C 	C 	0.06566 0.58257 0.80287 0.08400
C 	C 	0.09745 0.58117 0.82799 -0.02600
C 	C 	0.12393 0.56530 0.79755 -0.06500
C 	C 	0.15887 0.56453 0.82273 0.77000
H 	H 	0.13675 0.53453 0.72276 0.09300
H 	H 	0.04572 0.59525 0.82616 0.06700
C 	C 	0.02420 0.56807 0.72387 0.79600
F 	F 	0.18137 0.54929 0.78522 -0.45400
F 	F 	0.15876 0.54630 0.87418 -0.44600
F 	F 	0.16974 0.59735 0.83316 -0.45400
F 	F 	0.00778 0.53755 0.73251 -0.44100
F 	F 	0.02578 0.57500 0.66503 -0.44500
F 	F 	0.00556 0.59366 0.74948 -0.42700
C 	C 	0.11566 0.56640 0.16450 0.07500
C 	C 	0.10250 0.59883 0.15306 -0.02500
C 	C 	0.08561 0.61654 0.19792 -0.07000
C 	C 	0.07592 0.59866 0.24810 0.00300
C 	C 	0.08505 0.56449 0.25559 0.09400
C 	C 	0.10789 0.54943 0.21658 -0.13800
C 	C 	0.12123 0.51390 0.22748 0.79200
H 	H 	0.12995 0.55346 0.13117 0.08100
H 	H 	0.05945 0.61060 0.27945 0.08900
C 	C 	0.07556 0.65350 0.19113 0.77500
F 	F 	0.14958 0.50774 0.19477 -0.42800
F 	F 	0.09720 0.49020 0.21278 -0.42700
F 	F 	0.12950 0.50997 0.28551 -0.43200
F 	F 	0.04412 0.65509 0.16689 -0.45800
F 	F 	0.09784 0.67107 0.15627 -0.44100
F 	F 	0.07480 0.66946 0.24478 -0.43400
C 	C 	0.69963 0.92994 0.00038 -0.05700
C 	C 	0.71366 0.94249 0.94849 0.07500
C 	C 	0.74789 0.94981 0.94603 -0.06800
C 	C 	0.76813 0.94478 0.99499 -0.02700
C 	C 	0.75422 0.93135 0.04640 0.08300
C 	C 	0.71991 0.92433 0.04899 -0.02700
H 	H 	0.75859 0.95992 0.90631 0.06100
H 	H 	0.70912 0.91446 0.08882 0.07300
N 	N 	0.69290 0.94820 0.89839 -0.13600
N 	N 	0.77512 0.92460 0.09591 -0.13600
C 	C 	0.68416 0.98425 0.89327 -0.09200
H 	H 	0.67089 0.99307 0.93295 0.05300
H 	H 	0.66723 0.98778 0.85560 0.08800
H 	H 	0.70679 0.00006 0.88608 0.06700
C 	C 	0.78491 0.88874 0.09734 -0.09600
H 	H 	0.76273 0.87202 0.10253 0.06900
H 	H 	0.80183 0.88439 0.13478 0.07000
H 	H 	0.79858 0.88179 0.05696 0.07100
H 	H 	0.70488 0.93983 0.86055 0.11100
H 	H 	0.76295 0.93128 0.13453 0.10000
C 	C 	0.61341 0.93738 0.79365 0.08100
C 	C 	0.58614 0.93039 0.82990 -0.03300
C 	C 	0.55337 0.93172 0.80703 -0.06600
C 	C 	0.54860 0.94334 0.74975 -0.00700
C 	C 	0.57575 0.95410 0.71601 0.10000
C 	C 	0.60856 0.94905 0.73649 -0.14600
C 	C 	0.63830 0.95851 0.69905 0.79300
H 	H 	0.63840 0.93520 0.81105 0.06400
H 	H 	0.52364 0.94594 0.73237 0.10900
C 	C 	0.52355 0.92128 0.84373 0.77200
F 	F 	0.66784 0.94650 0.72243 -0.44700
F 	F 	0.64034 0.99356 0.69445 -0.44400
F 	F 	0.63483 0.94464 0.64410 -0.43600
F 	F 	0.52216 0.94082 0.89371 -0.46400
F 	F 	0.52630 0.88730 0.85872 -0.43900
F 	F 	0.49381 0.92556 0.81413 -0.42400
C 	C 	0.55056 0.88211 0.17077 0.08500
C 	C 	0.57009 0.91076 0.15800 -0.02200
C 	C 	0.57467 0.93627 0.20064 -0.05900
C 	C 	0.55527 0.93533 0.25147 0.00800
C 	C 	0.53405 0.90769 0.26272 0.10200
C 	C 	0.53329 0.87979 0.22388 -0.14300
C 	C 	0.51242 0.84854 0.23728 0.79500
H 	H 	0.54778 0.86232 0.13832 0.06600
H 	H 	0.55576 0.95664 0.28139 0.10700
C 	C 	0.59894 0.96537 0.19102 0.77100
F 	F 	0.52078 0.82154 0.20150 -0.46600
F 	F 	0.47909 0.85607 0.22923 -0.44400
F 	F 	0.51741 0.83836 0.29423 -0.44400
F 	F 	0.58456 0.98948 0.15513 -0.43600
F 	F 	0.62806 0.95361 0.16575 -0.44500
F 	F 	0.60734 0.98079 0.24311 -0.42200
C 	C 	0.21455 0.05929 0.95761 0.01300
C 	C 	0.22827 0.09247 0.95456 0.04000
C 	C 	0.26294 0.09665 0.95441 -0.00000
C 	C 	0.28418 0.06838 0.95886 -0.09300
C 	C 	0.27050 0.03534 0.96205 0.12000
C 	C 	0.23577 0.03104 0.96125 -0.08900
H 	H 	0.27336 0.12208 0.95192 0.06100
H 	H 	0.22530 0.00566 0.96437 0.05900
N 	N 	0.20728 0.12222 0.95302 -0.14100
N 	N 	0.29193 0.00625 0.96920 -0.15600
C 	C 	0.19764 0.13279 0.01166 -0.07800
H 	H 	0.18194 0.11315 0.03302 0.06800
H 	H 	0.18304 0.15674 0.00897 0.07300
H 	H 	0.22010 0.13780 0.03861 0.08700
C 	C 	0.29435 0.98685 0.91505 -0.09600
H 	H 	0.26994 0.97524 0.90367 0.06000
H 	H 	0.31285 0.96610 0.92063 0.06200
H 	H 	0.30295 0.00342 0.87879 0.07700
H 	H 	0.18645 0.11898 0.92634 0.08300
H 	H 	0.28321 0.99069 0.00292 0.12700
C 	C 	0.44616 0.10835 0.74297 -0.00600
C 	C 	0.44483 0.07662 0.71520 0.10200
C 	C 	0.42683 0.04942 0.74134 -0.14500
C 	C 	0.41152 0.05471 0.79559 0.08400
C 	C 	0.41613 0.08519 0.82614 -0.02800
C 	C 	0.43285 0.11276 0.79912 -0.06500
C 	C 	0.43807 0.14618 0.83100 0.77000
H 	H 	0.45935 0.12905 0.72198 0.09300
H 	H 	0.39707 0.03452 0.81554 0.05900
C 	C 	0.42280 0.01522 0.71097 0.79300
F 	F 	0.45530 0.16960 0.79748 -0.44700
F 	F 	0.45624 0.14048 0.88111 -0.44800
F 	F 	0.40760 0.16033 0.84521 -0.45600
F 	F 	0.45345 0.00211 0.69508 -0.44900
F 	F 	0.40313 0.01914 0.66212 -0.44700
F 	F 	0.40762 0.99144 0.74671 -0.43400
C 	C 	0.42367 0.05777 0.16759 0.08000
C 	C 	0.39056 0.06224 0.14999 -0.02700
C 	C 	0.36433 0.05587 0.18962 -0.06400
C 	C 	0.37157 0.04009 0.24303 -0.00200
C 	C 	0.40456 0.03272 0.25857 0.10100
C 	C 	0.43112 0.04413 0.22257 -0.14500
C 	C 	0.46735 0.04017 0.24073 0.79400
H 	H 	0.44361 0.06342 0.13726 0.07300
H 	H 	0.35146 0.03210 0.27142 0.09400
C 	C 	0.32848 0.06387 0.17370 0.77200
F 	F 	0.48786 0.06126 0.20832 -0.42600
F 	F 	0.47753 0.00693 0.23214 -0.45000
F 	F 	0.47160 0.04878 0.29848 -0.44500
F 	F 	0.31633 0.03884 0.13717 -0.43900
F 	F 	0.32650 0.09507 0.14593 -0.43600
F 	F 	0.30846 0.06532 0.22270 -0.43400
C 	C 	0.41186 0.21170 0.01192 0.02600
C 	C 	0.39277 0.23928 0.99129 0.01800
C 	C 	0.40196 0.27273 0.00579 0.01200
C 	C 	0.43034 0.27883 0.03966 -0.02500
C 	C 	0.44981 0.25135 0.05931 0.07900
C 	C 	0.44040 0.21787 0.04547 -0.05500
H 	H 	0.38705 0.29393 0.99051 0.02200
H 	H 	0.45507 0.19670 0.06160 0.08500
N 	N 	0.36429 0.23326 0.95471 -0.11600
N 	N 	0.47865 0.25751 0.09495 -0.13600
C 	C 	0.37253 0.23974 0.89371 -0.10900
H 	H 	0.37775 0.26723 0.88643 0.06700
H 	H 	0.35108 0.23228 0.86606 0.08700
H 	H 	0.39446 0.22438 0.88013 0.11900
C 	C 	0.50930 0.25353 0.06112 -0.09900
H 	H 	0.51243 0.22673 0.04658 0.08000
H 	H 	0.53095 0.26045 0.08869 0.07100
H 	H 	0.50919 0.27073 0.02272 0.07300
H 	H 	0.34424 0.24851 0.96771 0.08800
H 	H 	0.47877 0.24104 0.13075 0.09700
C 	C 	0.29765 0.59685 0.02125 0.05500
C 	C 	0.27922 0.62223 0.05081 0.02800
C 	C 	0.24693 0.63020 0.03219 0.03300
C 	C 	0.23292 0.61347 0.98415 -0.12000
C 	C 	0.25248 0.59069 0.95145 0.13300
C 	C 	0.28468 0.58228 0.97047 -0.13200
H 	H 	0.23233 0.64857 0.05644 0.06600
H 	H 	0.29917 0.56359 0.94670 0.06800
N 	N 	0.29304 0.64014 0.09982 -0.12500
N 	N 	0.23949 0.57598 0.89884 -0.11500
C 	C 	0.31488 0.66780 0.08074 -0.09700
H 	H 	0.33693 0.65772 0.05712 0.06300
H 	H 	0.32379 0.68208 0.11934 0.07200
H 	H 	0.30107 0.68583 0.05231 0.07500
C 	C 	0.25225 0.59414 0.84792 -0.09300
H 	H 	0.24486 0.62140 0.84953 0.09000
H 	H 	0.24143 0.58282 0.80796 0.12000
H 	H 	0.27985 0.59204 0.84518 0.06000
H 	H 	0.30530 0.62386 0.12872 0.09200
H 	H 	0.24555 0.55010 0.89635 0.11700
C 	C 	0.70340 0.42797 0.01673 0.05800
C 	C 	0.71665 0.45586 0.98593 0.00200
C 	C 	0.75074 0.45663 0.97234 0.01100
C 	C 	0.77168 0.42992 0.98953 -0.12500
C 	C 	0.75815 0.40126 0.01792 0.15300
C 	C 	0.72396 0.40039 0.03116 -0.10800
H 	H 	0.76104 0.47842 0.94964 0.04500
H 	H 	0.71368 0.37877 0.05437 0.07000
N 	N 	0.69538 0.48369 0.96913 -0.14600
N 	N 	0.77942 0.37344 0.03481 -0.13900
C 	C 	0.69899 0.51237 0.00920 -0.04300
H 	H 	0.69336 0.50437 0.05453 0.06300
H 	H 	0.68101 0.53263 0.99702 0.03200
H 	H 	0.72459 0.52312 0.00699 0.07000
C 	C 	0.78787 0.37558 0.09658 -0.10900
H 	H 	0.79917 0.40070 0.10692 0.11200
H 	H 	0.80642 0.35555 0.10718 0.07400
H 	H 	0.76540 0.37152 0.12405 0.07100
H 	H 	0.70067 0.49138 0.92652 0.08500
H 	H 	0.76800 0.35010 0.02567 0.09500
C 	C 	0.55534 0.71956 0.04058 0.02400
C 	C 	0.54813 0.74608 0.07971 0.06200
C 	C 	0.55556 0.77985 0.06439 -0.03900
C 	C 	0.57055 0.78727 0.01076 -0.01300
C 	C 	0.57700 0.76062 0.97084 0.07000
C 	C 	0.56966 0.72696 0.98641 -0.09800
H 	H 	0.54992 0.80026 0.09452 0.09100
H 	H 	0.57479 0.70654 0.95599 0.06300
N 	N 	0.53226 0.73872 0.13445 -0.13400
N 	N 	0.58993 0.76750 0.91356 -0.13700
C 	C 	0.55602 0.74134 0.18247 -0.09600
H 	H 	0.57747 0.72392 0.17556 0.06700
H 	H 	0.54349 0.73384 0.22357 0.09000
H 	H 	0.56522 0.76789 0.18724 0.10100
C 	C 	0.56355 0.77887 0.87418 -0.10300
H 	H 	0.54326 0.75964 0.87204 0.07200
H 	H 	0.57402 0.78195 0.82979 0.08000
H 	H 	0.55317 0.80378 0.88823 0.09100
H 	H 	0.51214 0.75521 0.14121 0.12700
H 	H 	0.60981 0.78469 0.91436 0.10200
