data_crystal

_cell_length_a 18.34006
_cell_length_b 15.98449
_cell_length_c 47.56835
_cell_angle_alpha 90.77631
_cell_angle_beta  90.86126
_cell_angle_gamma 112.71566

_symmetry_space_group_name_	'P 1'
_symmetry_space_group_name_H-M	'P 1'

loop_
_symmetry_equiv_pos_as_xyz
  x,y,z

loop_
_atom_site_label
_atom_site_type_symbol
_atom_site_fract_x
_atom_site_fract_y
_atom_site_fract_z
_atom_site_charge
C 	C 	0.05069 0.51748 0.03390 -0.00100
Ni	Ni	0.75572 0.38386 0.89313 1.10600
O 	O 	0.64687 0.31971 0.87440 -0.70600
Ni	Ni	0.58052 0.36296 0.89886 1.10900
O 	O 	0.80594 0.32650 0.86448 -0.34300
O 	O 	0.71852 0.18362 0.87464 -0.36800
O 	O 	0.76805 0.48712 0.86598 -0.38200
Ni	Ni	0.60631 0.18839 0.87636 1.08000
O 	O 	0.82662 0.51378 0.95135 -0.33000
O 	O 	0.61600 0.18682 0.91926 -0.36600
O 	O 	0.47912 0.30627 0.87569 -0.34600
O 	O 	0.68622 0.40996 0.92091 -0.68900
O 	O 	0.86437 0.45731 0.91147 -0.34600
O 	O 	0.53088 0.43802 0.92117 -0.32400
O 	O 	0.64245 0.56383 0.91722 -0.38700
Ni	Ni	0.73778 0.53788 0.93208 1.12600
H 	H 	0.64496 0.33878 0.85478 0.16500
H 	H 	0.68338 0.37313 0.93771 0.21800
C 	C 	0.56749 0.20604 0.93569 0.39400
O 	O 	0.81052 0.59937 0.89983 -0.35200
C 	C 	0.77638 0.23829 0.85934 0.29500
C 	C 	0.45671 0.22156 0.86648 0.29700
C 	C 	0.79856 0.57353 0.87329 0.32700
C 	C 	0.57389 0.52204 0.92898 0.41200
C 	C 	0.87385 0.48106 0.93846 0.39900
O 	O 	0.53291 0.25998 0.92717 -0.32900
O 	O 	0.48836 0.16688 0.87741 -0.36900
Ni	Ni	0.59999 0.19344 0.66267 1.11000
O 	O 	0.67323 0.31655 0.67915 -0.70100
Ni	Ni	0.65902 0.40226 0.65177 1.10600
O 	O 	0.65763 0.12265 0.68294 -0.34800
O 	O 	0.77001 0.21776 0.66328 -0.38800
O 	O 	0.52236 0.17457 0.69570 -0.35300
Ni	Ni	0.78675 0.34306 0.68080 1.08100
O 	O 	0.42135 0.12767 0.64512 -0.36800
O 	O 	0.83776 0.41265 0.64514 -0.35200
O 	O 	0.75045 0.52046 0.66527 -0.34300
O 	O 	0.57507 0.28016 0.63754 -0.68400
O 	O 	0.52159 0.07659 0.64484 -0.33900
O 	O 	0.62112 0.47639 0.62469 -0.32200
O 	O 	0.49033 0.40154 0.63372 -0.35000
Ni	Ni	0.46495 0.26530 0.64102 1.11400
H 	H 	0.65517 0.32763 0.69782 0.16700
H 	H 	0.58411 0.26721 0.61777 0.22300
C 	C 	0.80036 0.40803 0.62103 0.41200
O 	O 	0.48270 0.28759 0.68296 -0.40300
C 	C 	0.73330 0.14557 0.67808 0.31100
C 	C 	0.79181 0.52968 0.68914 0.32000
C 	C 	0.47548 0.21932 0.69904 0.31500
C 	C 	0.54661 0.44761 0.61647 0.39400
C 	C 	0.45583 0.07720 0.63359 0.40300
O 	O 	0.72355 0.38112 0.61993 -0.34400
O 	O 	0.80282 0.46085 0.70091 -0.39700
C 	C 	0.04399 0.00388 0.74642 -0.04900
H 	H 	0.04759 0.00301 0.72310 0.06900
C 	C 	0.03689 0.00689 0.80237 -0.05000
H 	H 	0.03417 0.00835 0.82571 0.07000
C 	C 	0.99531 0.05562 0.75829 0.00900
C 	C 	0.00508 0.91032 0.75971 0.01800
C 	C 	0.12431 0.04649 0.76208 0.01000
C 	C 	0.99316 0.05831 0.78705 0.01100
C 	C 	0.00154 0.91186 0.78849 0.01800
C 	C 	0.12032 0.04781 0.79065 0.01100
Ni	Ni	0.22166 0.73319 0.40230 1.11500
O 	O 	0.31518 0.78735 0.37564 -0.69600
Ni	Ni	0.39847 0.75570 0.39472 1.10700
O 	O 	0.15192 0.77926 0.37784 -0.32600
O 	O 	0.24589 0.92361 0.37730 -0.36000
O 	O 	0.18946 0.62105 0.37626 -0.37600
Ni	Ni	0.35687 0.91904 0.37211 1.07600
O 	O 	0.19871 0.63035 0.46264 -0.35900
O 	O 	0.37392 0.94731 0.41417 -0.35300
O 	O 	0.48278 0.80425 0.36512 -0.35600
O 	O 	0.30974 0.71568 0.42350 -0.69500
O 	O 	0.12686 0.66859 0.42824 -0.32300
O 	O 	0.46485 0.69379 0.41414 -0.31700
O 	O 	0.35546 0.56502 0.41666 -0.38600
Ni	Ni	0.27097 0.59362 0.43832 1.10200
H 	H 	0.30310 0.75805 0.35673 0.15800
H 	H 	0.32373 0.75677 0.44010 0.20100
C 	C 	0.41902 0.91920 0.42984 0.39000
O 	O 	0.17980 0.52174 0.41133 -0.34500
C 	C 	0.17997 0.86103 0.36710 0.29600
C 	C 	0.50434 0.88811 0.35622 0.30500
C 	C 	0.17723 0.53888 0.38456 0.31900
C 	C 	0.42979 0.61141 0.42374 0.38400
C 	C 	0.13188 0.63324 0.45307 0.41200
O 	O 	0.45625 0.87149 0.41868 -0.32400
O 	O 	0.47477 0.94430 0.36752 -0.37400
Ni	Ni	0.39516 0.74772 0.16035 1.10300
O 	O 	0.29515 0.68597 0.13571 -0.69000
Ni	Ni	0.21691 0.72362 0.15685 1.10700
O 	O 	0.46159 0.68945 0.13960 -0.31100
O 	O 	0.36783 0.54723 0.13626 -0.34200
O 	O 	0.44132 0.84975 0.13167 -0.32600
Ni	Ni	0.25686 0.55255 0.13647 1.12000
O 	O 	0.47660 0.94874 0.17911 -0.37100
O 	O 	0.26141 0.55618 0.17924 -0.40500
O 	O 	0.12144 0.65850 0.13096 -0.32900
O 	O 	0.31754 0.78646 0.18084 -0.70300
O 	O 	0.48931 0.81375 0.18628 -0.35300
O 	O 	0.15296 0.78406 0.17835 -0.33000
O 	O 	0.24679 0.92725 0.17591 -0.36900
Ni	Ni	0.35734 0.91942 0.17779 1.07400
H 	H 	0.30118 0.70787 0.11618 0.21000
H 	H 	0.31201 0.76704 0.20064 0.16000
C 	C 	0.20339 0.56314 0.19337 0.31400
O 	O 	0.35254 0.91675 0.13498 -0.37600
C 	C 	0.42790 0.61273 0.12549 0.38000
C 	C 	0.11169 0.57797 0.12085 0.40700
C 	C 	0.40205 0.89443 0.12010 0.38900
C 	C 	0.18362 0.86872 0.18757 0.29700
C 	C 	0.51043 0.90047 0.19234 0.31300
O 	O 	0.17140 0.62054 0.18560 -0.35200
O 	O 	0.13943 0.52668 0.13521 -0.36900
C 	C 	0.93718 0.11191 0.25077 -0.04500
H 	H 	0.93924 0.11699 0.22748 0.07200
C 	C 	0.93146 0.09966 0.30669 -0.03600
H 	H 	0.92895 0.09473 0.32998 0.07100
C 	C 	0.96732 0.04233 0.26313 0.02300
C 	C 	0.98610 0.19995 0.26710 0.01300
C 	C 	0.85434 0.08463 0.26310 0.01000
C 	C 	0.96420 0.03599 0.29183 -0.00300
C 	C 	0.98317 0.19353 0.29571 0.01000
C 	C 	0.85142 0.07808 0.29171 0.00800
C 	C 	0.15988 0.49059 0.21163 -0.08800
C 	C 	0.12156 0.42662 0.22561 0.08300
C 	C 	0.07524 0.34918 0.24077 -0.01200
C 	C 	0.03497 0.28180 0.25299 0.01600
C 	C 	0.58531 0.94688 0.20629 -0.08000
C 	C 	0.64862 0.98273 0.21805 0.10700
C 	C 	0.72218 0.02123 0.23238 -0.02200
C 	C 	0.78358 0.05143 0.24561 0.03000
C 	C 	0.13502 0.90299 0.20364 -0.07300
C 	C 	0.09523 0.93340 0.21706 0.07300
C 	C 	0.04971 0.97046 0.23280 0.01200
C 	C 	0.01176 0.00286 0.24642 -0.00500
C 	C 	0.77740 0.03664 0.30617 0.02900
C 	C 	0.71469 0.00171 0.31751 -0.02300
C 	C 	0.64072 0.96095 0.33049 0.10000
C 	C 	0.57792 0.92695 0.34184 -0.08000
C 	C 	0.02747 0.26813 0.31450 0.01900
C 	C 	0.06369 0.33005 0.33039 -0.00800
C 	C 	0.10491 0.40247 0.34917 0.08900
C 	C 	0.13881 0.46454 0.36531 -0.07500
C 	C 	0.00631 0.99111 0.30746 0.03400
C 	C 	0.04280 0.95597 0.32077 -0.01500
C 	C 	0.08766 0.91820 0.33665 0.08600
C 	C 	0.12832 0.88964 0.35045 -0.08000
C 	C 	0.42551 0.92600 0.56972 0.22600
C 	C 	0.42035 0.98377 0.54854 0.02500
C 	C 	0.41731 0.06771 0.55572 0.21600
C 	C 	0.42295 0.09560 0.58385 0.32800
C 	C 	0.43234 0.03993 0.60505 -0.24700
C 	C 	0.43144 0.95395 0.59791 0.34900
C 	C 	0.41893 0.95718 0.51884 0.00000
F 	F 	0.41138 0.12344 0.53530 -0.32200
F 	F 	0.43830 0.89858 0.61828 -0.35500
C 	C 	0.34792 0.92907 0.50320 0.24100
C 	C 	0.34803 0.91663 0.47416 0.31000
C 	C 	0.41927 0.93093 0.46050 -0.21400
C 	C 	0.48993 0.95530 0.47634 0.33600
C 	C 	0.48978 0.96870 0.50543 0.24500
F 	F 	0.27897 0.91582 0.51616 -0.31900
F 	F 	0.55900 0.96880 0.46344 -0.33500
F 	F 	0.27874 0.88958 0.45924 -0.39500
F 	F 	0.55872 0.99554 0.52052 -0.31100
F 	F 	0.42624 0.84356 0.56290 -0.31100
F 	F 	0.42401 0.17902 0.59040 -0.45100
C 	C 	0.84756 0.43040 0.54358 0.24400
C 	C 	0.92233 0.50172 0.54399 0.00400
C 	C 	0.95878 0.53979 0.56992 0.23700
C 	C 	0.92004 0.50811 0.59516 0.31900
C 	C 	0.84530 0.43615 0.59476 -0.19900
C 	C 	0.81024 0.39620 0.56878 0.33100
C 	C 	0.96491 0.53211 0.51737 0.00300
F 	F 	0.03194 0.60721 0.57066 -0.32500
F 	F 	0.74026 0.32352 0.56798 -0.34000
C 	C 	0.98470 0.62156 0.50836 0.24500
C 	C 	0.03335 0.65307 0.48511 0.32200
C 	C 	0.06151 0.59501 0.47052 -0.19900
C 	C 	0.03538 0.50343 0.47795 0.31300
C 	C 	0.98863 0.47253 0.50154 0.24000
F 	F 	0.95899 0.67865 0.52266 -0.31600
F 	F 	0.06012 0.44588 0.46342 -0.37600
F 	F 	0.05699 0.74136 0.47787 -0.34100
F 	F 	0.96940 0.38575 0.50980 -0.32500
F 	F 	0.81133 0.39361 0.51870 -0.30900
F 	F 	0.95440 0.54874 0.61989 -0.36500
C 	C 	0.45081 0.51086 0.55379 0.23900
C 	C 	0.49927 0.50396 0.53200 0.00400
C 	C 	0.55984 0.47328 0.53778 0.24400
C 	C 	0.57319 0.45164 0.56521 0.32200
C 	C 	0.52699 0.46214 0.58728 -0.20900
C 	C 	0.46482 0.49038 0.58137 0.32500
C 	C 	0.48876 0.53255 0.50338 -0.00000
F 	F 	0.60668 0.46591 0.51685 -0.31500
F 	F 	0.41962 0.50065 0.60243 -0.35800
C 	C 	0.50974 0.62483 0.49786 0.23400
C 	C 	0.49584 0.65180 0.47117 0.30600
C 	C 	0.46155 0.58646 0.44956 -0.22400
C 	C 	0.44535 0.49464 0.45469 0.30900
C 	C 	0.45813 0.46771 0.48156 0.23200
F 	F 	0.54191 0.68826 0.51862 -0.31600
F 	F 	0.41473 0.43118 0.43384 -0.37200
F 	F 	0.51172 0.74084 0.46675 -0.36200
F 	F 	0.43909 0.37840 0.48657 -0.32100
F 	F 	0.39103 0.53881 0.54828 -0.32800
F 	F 	0.63114 0.42050 0.57040 -0.35500
C 	C 	0.93481 0.06848 0.74110 0.02000
C 	C 	0.88396 0.07907 0.72700 -0.01900
C 	C 	0.82601 0.09451 0.71042 0.08300
C 	C 	0.78027 0.11334 0.69591 -0.10300
C 	C 	0.40277 0.17755 0.71390 -0.09200
C 	C 	0.33916 0.14459 0.72488 0.08600
C 	C 	0.26340 0.10829 0.73701 -0.01200
C 	C 	0.19924 0.07919 0.74773 0.02300
C 	C 	0.95656 0.83247 0.74291 0.02800
C 	C 	0.91616 0.76713 0.72902 -0.00600
C 	C 	0.86997 0.68846 0.71350 0.09400
C 	C 	0.83251 0.61797 0.70142 -0.07400
C 	C 	0.12233 0.51767 0.04457 0.24200
C 	C 	0.99874 0.53665 0.05187 0.24100
C 	C 	0.01852 0.55617 0.08035 0.32700
C 	C 	0.09013 0.55620 0.09107 -0.22700
C 	C 	0.14217 0.53718 0.07305 0.32000
C 	C 	0.03053 0.49983 0.00383 0.00600
F 	F 	0.92931 0.53683 0.04160 -0.32500
F 	F 	0.21286 0.54008 0.08301 -0.43900
C 	C 	0.97845 0.41328 0.99464 0.24100
C 	C 	0.93486 0.40337 0.96959 0.31800
C 	C 	0.94265 0.48017 0.95404 -0.19900
C 	C 	0.00511 0.56299 0.96057 0.32100
C 	C 	0.04884 0.57300 0.98558 0.23700
F 	F 	0.96439 0.34068 0.01133 -0.32400
F 	F 	0.01706 0.63633 0.94441 -0.36100
F 	F 	0.87830 0.32132 0.96227 -0.37500
F 	F 	0.10327 0.65581 0.99344 -0.31900
F 	F 	0.17307 0.49996 0.02727 -0.31100
F 	F 	0.96791 0.57443 0.09757 -0.34900
C 	C 	0.51381 0.16320 0.01221 0.23900
C 	C 	0.49689 0.06992 0.01387 0.01200
C 	C 	0.50453 0.02169 0.98997 0.22500
C 	C 	0.52848 0.06622 0.96453 0.32600
C 	C 	0.54528 0.15967 0.96280 -0.20000
C 	C 	0.53790 0.20793 0.98680 0.32200
C 	C 	0.47242 0.02299 0.04079 -0.00700
F 	F 	0.48838 0.93151 0.99139 -0.30900
F 	F 	0.55491 0.29835 0.98559 -0.35400
C 	C 	0.39188 0.98127 0.04705 0.25300
C 	C 	0.36880 0.93791 0.07274 0.31500
C 	C 	0.42615 0.93609 0.09241 -0.20200
C 	C 	0.50681 0.97724 0.08596 0.33200
C 	C 	0.52970 0.02030 0.06025 0.23000
F 	F 	0.33604 0.98292 0.02825 -0.32000
F 	F 	0.56309 0.97781 0.10493 -0.34600
F 	F 	0.29072 0.89698 0.07840 -0.36800
F 	F 	0.60768 0.06027 0.05435 -0.32200
F 	F 	0.50702 0.21050 0.03526 -0.32300
F 	F 	0.53339 0.01811 0.94140 -0.37500
C 	C 	0.42878 0.52770 0.05075 0.24600
C 	C 	0.49912 0.59304 0.04090 0.00200
C 	C 	0.54829 0.66194 0.05919 0.24300
C 	C 	0.52727 0.66579 0.08717 0.31800
C 	C 	0.45545 0.60175 0.09700 -0.20100
C 	C 	0.40688 0.53178 0.07858 0.31700
C 	C 	0.52429 0.58500 0.01206 0.01200
F 	F 	0.61696 0.72483 0.04988 -0.31700
F 	F 	0.33816 0.46811 0.08753 -0.36900
C 	C 	0.48487 0.60371 0.98892 0.23600
C 	C 	0.50339 0.58680 0.96153 0.33900
C 	C 	0.56202 0.55219 0.95716 -0.23300
C 	C 	0.60330 0.53667 0.98030 0.32600
C 	C 	0.58438 0.55280 0.00761 0.24000
F 	F 	0.42748 0.63627 0.99304 -0.30900
F 	F 	0.65923 0.50185 0.97633 -0.44300
F 	F 	0.46327 0.60214 0.93930 -0.35900
F 	F 	0.62247 0.53402 0.02983 -0.31300
F 	F 	0.38187 0.45951 0.03333 -0.31200
F 	F 	0.57710 0.73122 0.10475 -0.34300
C 	C 	0.94527 0.09704 0.80203 0.01900
C 	C 	0.90582 0.12954 0.81471 -0.01100
C 	C 	0.86018 0.16769 0.82983 0.08100
C 	C 	0.82166 0.20011 0.84309 -0.07900
C 	C 	0.19000 0.08281 0.80861 0.02300
C 	C 	0.24994 0.11309 0.82264 -0.00700
C 	C 	0.32150 0.14971 0.83823 0.08700
C 	C 	0.38323 0.18200 0.85118 -0.07600
C 	C 	0.83662 0.63950 0.85238 -0.07600
C 	C 	0.87164 0.69815 0.83612 0.09100
C 	C 	0.91528 0.76995 0.81843 -0.00700
C 	C 	0.95398 0.83337 0.80433 0.02700
