data_crystal

_cell_length_a 22.32203
_cell_length_b 20.18223
_cell_length_c 47.56573
_cell_angle_alpha 90.63237
_cell_angle_beta  91.19406
_cell_angle_gamma 110.75586

_symmetry_space_group_name_	'P 1'
_symmetry_space_group_name_H-M	'P 1'

loop_
_symmetry_equiv_pos_as_xyz
  x,y,z

loop_
_atom_site_label
_atom_site_type_symbol
_atom_site_fract_x
_atom_site_fract_y
_atom_site_fract_z
_atom_site_charge
Ni	Ni	0.59011 0.23938 0.89829 1.11200
O 	O 	0.60256 0.33505 0.88055 -0.70000
Ni	Ni	0.67388 0.34274 0.85431 1.10600
O 	O 	0.54721 0.25834 0.93349 -0.33800
O 	O 	0.62732 0.36496 0.94195 -0.34400
O 	O 	0.49957 0.19516 0.88015 -0.35300
Ni	Ni	0.62889 0.41951 0.90484 1.08500
O 	O 	0.54773 0.09171 0.86793 -0.35900
O 	O 	0.72727 0.45426 0.90501 -0.35800
O 	O 	0.70469 0.44857 0.84356 -0.33400
O 	O 	0.64855 0.23997 0.86739 -0.69900
O 	O 	0.58022 0.14157 0.91212 -0.32000
O 	O 	0.73146 0.32465 0.82437 -0.32200
O 	O 	0.64942 0.22779 0.80736 -0.39500
Ni	Ni	0.60093 0.16626 0.84028 1.08500
H 	H 	0.56415 0.33306 0.86930 0.16300
H 	H 	0.68589 0.22969 0.87500 0.20500
C 	C 	0.76069 0.41256 0.90317 0.30700
O 	O 	0.52876 0.20441 0.83422 -0.40700
C 	C 	0.57523 0.31383 0.94998 0.29400
C 	C 	0.68198 0.49676 0.85335 0.28700
C 	C 	0.48513 0.19634 0.85324 0.28900
C 	C 	0.71132 0.26462 0.80971 0.27200
C 	C 	0.56306 0.08599 0.89477 0.29800
O 	O 	0.74692 0.36240 0.88371 -0.32100
O 	O 	0.63322 0.47980 0.87058 -0.38700
Ni	Ni	0.61126 0.33349 0.60251 1.10500
O 	O 	0.68290 0.36669 0.57390 -0.69600
Ni	Ni	0.74603 0.32598 0.58942 1.12300
O 	O 	0.55881 0.38395 0.58148 -0.32000
O 	O 	0.64335 0.48894 0.58202 -0.33600
O 	O 	0.57156 0.24946 0.57518 -0.33800
Ni	Ni	0.72564 0.46893 0.57203 1.08500
O 	O 	0.58353 0.23428 0.65870 -0.40800
O 	O 	0.75102 0.47947 0.61372 -0.38800
O 	O 	0.80721 0.35298 0.55694 -0.28200
O 	O 	0.68100 0.30561 0.62083 -0.69200
O 	O 	0.53603 0.29269 0.62936 -0.34800
O 	O 	0.79500 0.26560 0.60572 -0.32600
O 	O 	0.70330 0.16979 0.61024 -0.34600
Ni	Ni	0.64414 0.20793 0.63357 1.07500
H 	H 	0.66800 0.34677 0.55482 0.21000
H 	H 	0.69902 0.33729 0.63732 0.15700
C 	C 	0.79960 0.46331 0.62304 0.28500
O 	O 	0.57019 0.16233 0.60539 -0.37400
C 	C 	0.58635 0.44870 0.57220 0.29100
C 	C 	0.82308 0.41693 0.54634 0.28700
C 	C 	0.56841 0.18426 0.57965 0.31400
C 	C 	0.76618 0.19894 0.61228 0.27900
C 	C 	0.53179 0.24431 0.64863 0.29100
O 	O 	0.81116 0.40901 0.61222 -0.33100
O 	O 	0.81372 0.46894 0.56070 -0.35000
Ni	Ni	0.99818 0.98722 0.76938 1.08700
O 	O 	0.00090 0.90426 0.74500 -0.69700
Ni	Ni	0.05064 0.95625 0.71245 1.10000
O 	O 	0.87022 0.85981 0.76592 -0.40500
O 	O 	0.08319 0.98936 0.78802 -0.37600
O 	O 	0.04150 0.16516 0.75977 -0.38900
O 	O 	0.89751 0.92545 0.71277 -0.41800
O 	O 	0.05721 0.86959 0.69213 -0.35900
O 	O 	0.03445 0.03629 0.73387 -0.69200
O 	O 	0.00070 0.07549 0.79200 -0.34100
O 	O 	0.12205 0.02333 0.68843 -0.35200
O 	O 	0.17294 0.08645 0.72769 -0.40600
Ni	Ni	0.10462 0.12466 0.74310 1.07900
H 	H 	0.02360 0.87628 0.75454 0.16700
H 	H 	0.00057 0.04922 0.72427 0.16300
O 	O 	0.12848 0.10842 0.78317 -0.38400
C 	C 	0.13310 0.04845 0.79072 0.31100
C 	C 	0.17375 0.06958 0.70087 0.26500
C 	C 	0.00015 0.13386 0.77953 0.29300
Ni	Ni	0.25021 0.70825 0.36649 1.10500
O 	O 	0.33349 0.77218 0.34938 -0.70400
Ni	Ni	0.39863 0.75627 0.37514 1.11100
O 	O 	0.19762 0.73765 0.33650 -0.34700
O 	O 	0.24741 0.85460 0.34910 -0.38400
O 	O 	0.25741 0.63020 0.34009 -0.37300
Ni	Ni	0.34557 0.87222 0.35165 1.07100
O 	O 	0.21245 0.61499 0.42434 -0.31900
O 	O 	0.33775 0.87517 0.39445 -0.37700
O 	O 	0.47677 0.81314 0.35329 -0.33400
O 	O 	0.31527 0.70590 0.39565 -0.69900
O 	O 	0.16756 0.63779 0.38276 -0.31800
O 	O 	0.45342 0.71382 0.39920 -0.28700
O 	O 	0.37788 0.60472 0.39244 -0.37300
Ni	Ni	0.29328 0.60861 0.40791 1.10700
H 	H 	0.33836 0.75772 0.32985 0.16300
H 	H 	0.31104 0.73459 0.41184 0.22800
C 	C 	0.38274 0.87085 0.41170 0.29700
O 	O 	0.23971 0.54991 0.37507 -0.32700
C 	C 	0.20537 0.80496 0.33314 0.26500
C 	C 	0.48043 0.87559 0.34353 0.26100
C 	C 	0.25022 0.56605 0.34859 0.30100
C 	C 	0.43218 0.64561 0.40432 0.31500
C 	C 	0.16212 0.61403 0.40884 0.29800
O 	O 	0.42265 0.84034 0.40343 -0.31800
O 	O 	0.44417 0.90940 0.35399 -0.38300
Ni	Ni	0.36310 0.67394 0.09549 1.10700
O 	O 	0.29749 0.64440 0.06274 -0.68500
Ni	Ni	0.23015 0.67981 0.07666 1.11100
O 	O 	0.40642 0.60243 0.08616 -0.31100
O 	O 	0.30930 0.51372 0.08183 -0.37400
O 	O 	0.42754 0.74551 0.06998 -0.30400
Ni	Ni	0.25627 0.54496 0.05198 1.12200
O 	O 	0.43805 0.82724 0.11650 -0.33700
O 	O 	0.17413 0.51161 0.07492 -0.37200
O 	O 	0.15517 0.62993 0.04857 -0.29700
O 	O 	0.30278 0.72225 0.10603 -0.70200
O 	O 	0.42612 0.71269 0.12812 -0.36500
O 	O 	0.18026 0.73873 0.09300 -0.31800
O 	O 	0.26666 0.84126 0.08900 -0.35600
Ni	Ni	0.34863 0.82350 0.10298 1.08500
H 	H 	0.31531 0.67071 0.04562 0.21200
H 	H 	0.28837 0.71043 0.12550 0.15900
C 	C 	0.16937 0.53564 0.10022 0.29700
O 	O 	0.36955 0.81686 0.06190 -0.33900
C 	C 	0.37201 0.53598 0.08012 0.29000
C 	C 	0.15962 0.59501 0.02530 0.29800
C 	C 	0.41329 0.79136 0.05427 0.30000
C 	C 	0.20955 0.80675 0.09896 0.27100
C 	C 	0.45105 0.78165 0.13340 0.27100
O 	O 	0.19172 0.60394 0.10600 -0.38100
O 	O 	0.20977 0.57625 0.02087 -0.33100
Ni	Ni	0.89111 0.02553 0.23685 1.10300
Ni	Ni	0.03108 0.11502 0.22266 1.10700
O 	O 	0.82730 0.93951 0.21603 -0.36200
O 	O 	0.83593 0.00353 0.17582 -0.37800
O 	O 	0.87351 0.12259 0.29154 -0.39100
O 	O 	0.09632 0.10381 0.19575 -0.35300
O 	O 	0.82746 0.01422 0.26841 -0.36400
O 	O 	0.10313 0.18918 0.24585 -0.35500
O 	O 	0.06232 0.14016 0.28744 -0.39200
C 	C 	0.80800 0.94512 0.19009 0.25800
C 	C 	0.07652 0.08209 0.16971 0.27200
C 	C 	0.10284 0.19220 0.27346 0.27800
C 	C 	0.82243 0.06677 0.28384 0.29200
O 	O 	0.02914 0.19822 0.19853 -0.35200
O 	O 	0.02803 0.09607 0.15784 -0.37700
C 	C 	0.98741 0.26623 0.16813 -0.08700
C 	C 	0.99147 0.31549 0.12151 -0.07400
C 	C 	0.04116 0.37735 0.13082 0.06500
C 	C 	0.05928 0.38655 0.15965 0.00400
C 	C 	0.03062 0.33171 0.17834 0.02200
C 	C 	0.10932 0.44804 0.16898 -0.03500
C 	C 	0.14399 0.49773 0.14961 0.00500
C 	C 	0.12863 0.48685 0.12075 -0.04800
C 	C 	0.07562 0.42793 0.11150 -0.02000
H 	H 	0.18410 0.54363 0.15698 0.04000
H 	H 	0.06238 0.42055 0.08930 0.09000
C 	C 	0.50976 0.80821 0.15098 -0.03600
C 	C 	0.51699 0.86099 0.17155 0.00800
C 	C 	0.57620 0.89398 0.18542 -0.03900
C 	C 	0.62916 0.87572 0.17827 0.02200
C 	C 	0.62160 0.82121 0.15809 0.03600
C 	C 	0.56158 0.78687 0.14491 -0.00600
C 	C 	0.67493 0.80435 0.15033 -0.04200
C 	C 	0.73578 0.84348 0.16154 0.01500
C 	C 	0.74365 0.89877 0.18097 -0.05300
C 	C 	0.69015 0.91354 0.18995 -0.00700
H 	H 	0.47707 0.87746 0.17639 0.03500
H 	H 	0.58130 0.93518 0.20108 0.05100
H 	H 	0.55596 0.74622 0.12891 0.08200
H 	H 	0.66958 0.76229 0.13504 0.07700
H 	H 	0.77699 0.83169 0.15471 0.04300
H 	H 	0.69646 0.95619 0.20512 0.04400
C 	C 	0.17481 0.84657 0.11320 -0.04500
C 	C 	0.13722 0.81746 0.13639 0.00700
C 	C 	0.11127 0.85858 0.15243 -0.04900
C 	C 	0.12223 0.92911 0.14529 0.02700
C 	C 	0.15806 0.95784 0.12133 0.01900
C 	C 	0.18411 0.91635 0.10538 -0.00900
C 	C 	0.16782 0.02793 0.11384 -0.02500
C 	C 	0.14212 0.06911 0.13000 0.01800
C 	C 	0.10738 0.04101 0.15399 -0.05200
C 	C 	0.09776 0.97125 0.16170 -0.03600
H 	H 	0.12984 0.76365 0.14254 0.05000
H 	H 	0.08330 0.83582 0.17059 0.05300
H 	H 	0.21226 0.93850 0.08717 0.08800
H 	H 	0.19500 0.05041 0.09545 0.09300
H 	H 	0.14906 0.12280 0.12384 0.07000
H 	H 	0.07016 0.94947 0.18011 0.03100
C 	C 	0.76010 0.05658 0.29649 -0.06800
C 	C 	0.75734 0.07663 0.32468 0.03600
C 	C 	0.69980 0.04981 0.33904 -0.05700
C 	C 	0.64478 0.00186 0.32545 0.07400
C 	C 	0.64639 0.98526 0.29659 -0.01700
C 	C 	0.70352 0.01467 0.28206 0.01900
C 	C 	0.59205 0.93591 0.28313 -0.02400
C 	C 	0.53757 0.90079 0.29848 -0.00900
C 	C 	0.53632 0.91571 0.32726 -0.03500
C 	C 	0.58926 0.96753 0.34060 -0.03400
H 	H 	0.80041 0.10987 0.33591 0.06200
H 	H 	0.69880 0.06400 0.36102 0.09200
H 	H 	0.70512 0.00101 0.26003 0.04500
H 	H 	0.59263 0.92322 0.26095 0.04400
H 	H 	0.49650 0.86139 0.28806 0.03300
H 	H 	0.58795 0.97933 0.36284 0.08300
C 	C 	0.14369 0.25710 0.28849 -0.07000
C 	C 	0.17291 0.25278 0.31446 0.02100
C 	C 	0.20737 0.31443 0.32983 -0.04200
C 	C 	0.21171 0.38100 0.31968 0.04100
C 	C 	0.18382 0.38578 0.29321 0.02200
C 	C 	0.15078 0.32377 0.27751 -0.01100
C 	C 	0.18654 0.45221 0.28347 -0.03900
C 	C 	0.21258 0.51270 0.30075 0.01600
C 	C 	0.23715 0.50750 0.32775 -0.03800
C 	C 	0.24017 0.44230 0.33637 -0.00300
H 	H 	0.16845 0.20160 0.32285 0.06000
H 	H 	0.22910 0.31027 0.35001 0.08900
H 	H 	0.12829 0.32713 0.25740 0.04900
H 	H 	0.16629 0.45665 0.26297 0.05300
H 	H 	0.21110 0.56286 0.29358 0.05500
H 	H 	0.26125 0.43861 0.35679 0.08400
C 	C 	0.06688 0.86760 0.32188 0.03100
C 	C 	0.06813 0.87677 0.29245 0.01500
C 	C 	0.02890 0.90966 0.27969 0.00400
C 	C 	0.11051 0.85552 0.27637 -0.04300
C 	C 	0.15338 0.82854 0.28958 0.00200
C 	C 	0.15406 0.82229 0.31890 -0.04900
C 	C 	0.10962 0.83992 0.33492 -0.01100
H 	H 	0.03112 0.91867 0.25722 0.03600
H 	H 	0.11137 0.86148 0.25374 0.04600
H 	H 	0.18735 0.81453 0.27711 0.03200
H 	H 	0.10990 0.83440 0.35759 0.07400
C 	C 	0.42523 0.92754 0.48781 0.02400
C 	C 	0.44526 0.00136 0.48582 0.10500
C 	C 	0.43966 0.03226 0.45974 -0.09100
C 	C 	0.41753 0.98815 0.43579 0.05500
C 	C 	0.39780 0.91428 0.43780 0.00700
C 	C 	0.39813 0.88336 0.46437 -0.06100
C 	C 	0.47634 0.04584 0.51070 0.09500
C 	C 	0.46227 0.11227 0.45683 0.78800
H 	H 	0.41753 0.01128 0.41533 0.09300
C 	C 	0.36618 0.80407 0.46810 0.77500
H 	H 	0.43083 0.90468 0.50776 0.12600
C 	C 	0.43960 0.05834 0.53270 -0.10300
C 	C 	0.47138 0.09979 0.55617 0.08600
C 	C 	0.53837 0.13108 0.55741 -0.00200
C 	C 	0.57512 0.11729 0.53571 -0.06600
C 	C 	0.54340 0.07307 0.51289 0.03900
C 	C 	0.36687 0.02465 0.53193 0.79800
H 	H 	0.44403 0.10938 0.57331 0.08300
C 	C 	0.64775 0.14259 0.53836 0.78200
H 	H 	0.57079 0.05963 0.49668 0.11900
F 	F 	0.36584 0.78565 0.49607 -0.39000
F 	F 	0.39837 0.76824 0.45334 -0.46100
F 	F 	0.30321 0.78261 0.45844 -0.44200
F 	F 	0.52850 0.13980 0.45715 -0.40900
F 	F 	0.44043 0.14288 0.47861 -0.37600
F 	F 	0.43980 0.13078 0.43188 -0.39900
F 	F 	0.66490 0.10332 0.55850 -0.43600
F 	F 	0.67319 0.21364 0.54597 -0.49000
F 	F 	0.67469 0.13427 0.51322 -0.40700
F 	F 	0.33991 0.05337 0.55253 -0.41300
F 	F 	0.34906 0.95271 0.53632 -0.41900
F 	F 	0.34190 0.03519 0.50621 -0.38300
C 	C 	0.02289 0.59952 0.45439 -0.07400
C 	C 	0.07671 0.62840 0.43761 0.06500
C 	C 	0.09826 0.58447 0.42081 0.02200
C 	C 	0.06282 0.51091 0.41887 -0.08200
H 	H 	0.10393 0.68482 0.43870 0.09900
C 	C 	0.08243 0.46309 0.39911 0.78400
C 	C 	0.88082 0.46465 0.47297 -0.10700
C 	C 	0.84059 0.43673 0.49560 0.07800
C 	C 	0.86639 0.43517 0.52257 0.00500
C 	C 	0.85209 0.46265 0.44356 0.79200
H 	H 	0.78899 0.41730 0.49243 0.08700
H 	H 	0.02538 0.50374 0.50749 0.14300
F 	F 	0.13762 0.45493 0.40956 -0.43400
F 	F 	0.09357 0.49221 0.37267 -0.43000
F 	F 	0.02766 0.64756 0.50044 -0.40800
F 	F 	0.02496 0.71702 0.46421 -0.40200
F 	F 	0.02832 0.47069 0.55504 -0.39300
F 	F 	0.78611 0.44355 0.44392 -0.39700
F 	F 	0.86625 0.41365 0.42703 -0.41600
C 	C 	0.53481 0.58878 0.45644 0.03100
C 	C 	0.49199 0.56468 0.47845 0.10000
C 	C 	0.43104 0.57167 0.47685 -0.10400
C 	C 	0.41390 0.60132 0.45278 0.09800
C 	C 	0.45500 0.62096 0.43001 -0.01000
C 	C 	0.51617 0.61490 0.43172 -0.04600
C 	C 	0.51166 0.53238 0.50316 0.09100
C 	C 	0.38555 0.55099 0.50128 0.79300
H 	H 	0.36821 0.60887 0.45158 0.04400
C 	C 	0.56160 0.63665 0.40738 0.77400
H 	H 	0.58221 0.58577 0.45845 0.12400
C 	C 	0.50802 0.46079 0.50234 -0.09700
C 	C 	0.53096 0.43371 0.52565 0.07100
C 	C 	0.55392 0.47537 0.55008 -0.00300
C 	C 	0.55116 0.54436 0.55183 -0.06200
C 	C 	0.53470 0.57390 0.52759 0.03600
C 	C 	0.48424 0.41481 0.47598 0.78700
H 	H 	0.53320 0.38098 0.52448 0.09500
C 	C 	0.56665 0.58727 0.57917 0.77900
H 	H 	0.53871 0.62903 0.52784 0.12300
F 	F 	0.61639 0.62075 0.41211 -0.39500
F 	F 	0.57975 0.70890 0.40364 -0.41200
F 	F 	0.53158 0.60137 0.38298 -0.41300
F 	F 	0.40963 0.59875 0.52339 -0.39500
F 	F 	0.37830 0.48362 0.51016 -0.38700
F 	F 	0.32530 0.55110 0.49381 -0.39800
F 	F 	0.63221 0.62148 0.58215 -0.43300
F 	F 	0.54456 0.54408 0.60195 -0.41800
F 	F 	0.53781 0.63775 0.57939 -0.39800
F 	F 	0.47320 0.34415 0.48121 -0.37800
F 	F 	0.52969 0.43684 0.45546 -0.40300
F 	F 	0.42728 0.41947 0.46596 -0.38800
C 	C 	0.80510 0.15583 0.62056 -0.03200
C 	C 	0.87247 0.18575 0.62054 0.00400
C 	C 	0.90965 0.14902 0.63182 -0.02700
C 	C 	0.88009 0.08185 0.64321 0.00300
C 	C 	0.81255 0.04971 0.64183 0.05600
C 	C 	0.77536 0.08668 0.63036 -0.02900
C 	C 	0.78301 0.98228 0.65304 -0.07500
C 	C 	0.81981 0.94893 0.66705 0.03300
C 	C 	0.88659 0.98247 0.66995 -0.08900
H 	H 	0.89615 0.23820 0.61234 0.09400
H 	H 	0.72351 0.06264 0.62994 0.07000
H 	H 	0.73138 0.95647 0.65160 0.07200
H 	H 	0.79620 0.89777 0.67635 0.04300
C 	C 	0.46991 0.21003 0.66241 -0.05400
C 	C 	0.46845 0.19687 0.69137 0.00900
C 	C 	0.41004 0.16390 0.70440 -0.04700
C 	C 	0.35226 0.14367 0.68865 0.02000
C 	C 	0.35330 0.15597 0.65946 0.03400
C 	C 	0.41221 0.18915 0.64644 -0.01100
C 	C 	0.29537 0.13550 0.64374 -0.04100
C 	C 	0.23677 0.10495 0.65706 0.01800
C 	C 	0.23542 0.09430 0.68621 -0.05700
C 	C 	0.29343 0.11235 0.70183 -0.01600
H 	H 	0.51257 0.21281 0.70387 0.04400
H 	H 	0.40975 0.15454 0.72681 0.05000
H 	H 	0.41326 0.19826 0.62398 0.07900
H 	H 	0.29560 0.14412 0.62128 0.09400
H 	H 	0.19244 0.09120 0.64481 0.06900
H 	H 	0.29270 0.10292 0.72426 0.05100
C 	C 	0.94090 0.62652 0.64355 0.04500
C 	C 	0.85103 0.51016 0.66949 0.01000
C 	C 	0.84992 0.51570 0.64017 -0.04300
C 	C 	0.89640 0.57238 0.62715 -0.00500
H 	H 	0.81622 0.46551 0.67956 0.03500
H 	H 	0.89585 0.57601 0.60441 0.09600
C 	C 	0.87397 0.45705 0.96624 -0.09600
C 	C 	0.81788 0.43175 0.94927 0.07200
C 	C 	0.82095 0.43072 0.91987 0.00600
C 	C 	0.88143 0.45436 0.90691 -0.06500
C 	C 	0.86909 0.46330 0.99796 0.79100
H 	H 	0.77143 0.41415 0.95885 0.12600
C 	C 	0.88661 0.44875 0.87520 0.77800
C 	C 	0.08280 0.49677 0.99699 0.07100
C 	C 	0.10410 0.56834 0.00554 0.02100
C 	C 	0.07311 0.61330 0.99467 -0.07300
H 	H 	0.10798 0.46335 0.00478 0.09000
C 	C 	0.09872 0.69248 0.00113 0.78100
F 	F 	0.84830 0.47972 0.86149 -0.45600
F 	F 	0.86762 0.37815 0.86708 -0.43300
F 	F 	0.88478 0.53380 0.00566 -0.41600
F 	F 	0.80782 0.42625 0.00679 -0.36500
F 	F 	0.16470 0.72000 0.99900 -0.41200
F 	F 	0.04894 0.35827 0.97922 -0.40400
F 	F 	0.01876 0.39348 0.93857 -0.40800
C 	C 	0.56114 0.92927 0.93646 0.04200
C 	C 	0.50149 0.91279 0.94912 0.09200
C 	C 	0.45647 0.94177 0.93839 -0.09400
C 	C 	0.47525 0.99271 0.91730 0.04100
C 	C 	0.53781 0.01580 0.90741 0.03700
C 	C 	0.57919 0.97958 0.91509 -0.08900
C 	C 	0.49192 0.87751 0.97663 0.09200
C 	C 	0.39206 0.92652 0.95204 0.78600
H 	H 	0.44325 0.01950 0.91050 0.10800
C 	C 	0.64483 0.99907 0.90245 0.76500
H 	H 	0.59508 0.90648 0.94462 0.12300
C 	C 	0.46127 0.80327 0.97855 -0.08600
C 	C 	0.43755 0.77458 0.00465 0.08300
C 	C 	0.44981 0.81814 0.02887 0.02300
C 	C 	0.49142 0.88955 0.02760 -0.06100
C 	C 	0.50975 0.91947 0.00122 0.03800
C 	C 	0.45520 0.75499 0.95311 0.78800
H 	H 	0.40752 0.71925 0.00598 0.12000
C 	C 	0.51447 0.93446 0.05418 0.77800
H 	H 	0.53583 0.97589 0.99964 0.11800
F 	F 	0.64106 0.00940 0.87385 -0.44800
F 	F 	0.66981 0.94593 0.90622 -0.41300
F 	F 	0.68603 0.06077 0.91519 -0.41600
F 	F 	0.40091 0.96383 0.97728 -0.40900
F 	F 	0.36288 0.85504 0.95698 -0.38700
F 	F 	0.35070 0.94662 0.93497 -0.40600
F 	F 	0.53265 0.89633 0.07452 -0.43000
F 	F 	0.46583 0.95487 0.06422 -0.43000
F 	F 	0.56695 0.99476 0.04917 -0.40700
F 	F 	0.42683 0.68425 0.95971 -0.37700
F 	F 	0.51543 0.76524 0.94303 -0.41400
F 	F 	0.41841 0.76990 0.93210 -0.38900
C 	C 	0.55052 0.37422 0.02307 0.03000
C 	C 	0.48425 0.35960 0.02171 0.10500
C 	C 	0.44671 0.31512 0.99981 -0.11100
C 	C 	0.47755 0.29847 0.97686 0.07700
C 	C 	0.54464 0.32091 0.97655 -0.00400
C 	C 	0.58094 0.35231 0.00118 -0.06600
C 	C 	0.45845 0.40598 0.03779 0.08400
C 	C 	0.37428 0.29367 0.99875 0.79200
H 	H 	0.44949 0.27153 0.95851 0.08900
C 	C 	0.65224 0.36670 0.00376 0.78300
H 	H 	0.57902 0.40729 0.04014 0.12800
C 	C 	0.43865 0.39146 0.06586 -0.10000
C 	C 	0.41007 0.43477 0.07934 0.07600
C 	C 	0.40179 0.49182 0.06534 -0.00800
C 	C 	0.42324 0.50714 0.03750 -0.07500
C 	C 	0.45315 0.46509 0.02442 0.03900
C 	C 	0.45288 0.33416 0.08220 0.78800
H 	H 	0.39504 0.42492 0.10089 0.08200
C 	C 	0.41643 0.56969 0.02203 0.78500
H 	H 	0.47146 0.47731 0.00344 0.10700
F 	F 	0.66786 0.31368 0.99061 -0.40200
F 	F 	0.67159 0.36967 0.03174 -0.37600
F 	F 	0.68521 0.43113 0.99181 -0.41600
F 	F 	0.35770 0.34697 0.98667 -0.42200
F 	F 	0.34950 0.28136 0.02539 -0.39400
F 	F 	0.34645 0.23201 0.98287 -0.39900
F 	F 	0.45777 0.63223 0.03410 -0.43700
F 	F 	0.35421 0.56826 0.02326 -0.52100
F 	F 	0.43093 0.56849 0.99392 -0.39200
F 	F 	0.42205 0.32181 0.10761 -0.42000
F 	F 	0.51811 0.35515 0.08762 -0.41600
F 	F 	0.43276 0.27093 0.06701 -0.38500
C 	C 	0.75792 0.23279 0.80019 -0.05900
C 	C 	0.73616 0.16303 0.78920 0.00100
C 	C 	0.77949 0.12899 0.78389 -0.04200
C 	C 	0.84519 0.16436 0.78922 0.01900
C 	C 	0.86774 0.23537 0.79925 0.03900
C 	C 	0.82405 0.26947 0.80445 -0.01400
H 	H 	0.68546 0.13448 0.78536 0.03300
H 	H 	0.76181 0.07487 0.77583 0.05700
H 	H 	0.84135 0.32389 0.81220 0.10400
H 	H 	0.02788 0.26563 0.80168 0.07500
C 	C 	0.41728 0.17560 0.84445 -0.06200
C 	C 	0.37800 0.20613 0.85811 0.02300
C 	C 	0.31188 0.18045 0.85276 -0.04000
C 	C 	0.28417 0.12392 0.83360 0.02900
C 	C 	0.32329 0.09266 0.81981 0.02700
C 	C 	0.38986 0.11881 0.82525 -0.00800
C 	C 	0.29539 0.03662 0.80039 -0.05200
C 	C 	0.22998 0.01535 0.79323 0.03300
C 	C 	0.19193 0.04968 0.80549 -0.06600
C 	C 	0.21831 0.10058 0.82701 -0.00100
H 	H 	0.39871 0.24931 0.87319 0.05400
H 	H 	0.28227 0.20479 0.86344 0.08200
H 	H 	0.41999 0.09425 0.81508 0.04800
H 	H 	0.32468 0.01138 0.79002 0.06300
H 	H 	0.20998 0.97571 0.77673 0.02600
H 	H 	0.18858 0.12611 0.83691 0.07400
C 	C 	0.71052 0.57047 0.84394 -0.04200
C 	C 	0.67272 0.60220 0.82943 0.01000
C 	C 	0.70063 0.67038 0.81876 -0.03900
C 	C 	0.76676 0.70758 0.82254 0.02100
C 	C 	0.80453 0.67715 0.83821 0.03700
C 	C 	0.77614 0.60865 0.84892 -0.01700
C 	C 	0.87059 0.71461 0.84210 -0.04600
C 	C 	0.89966 0.77948 0.82886 0.01300
H 	H 	0.62194 0.57345 0.82586 0.05500
H 	H 	0.80496 0.58494 0.86087 0.10000
H 	H 	0.89985 0.69241 0.85454 0.08300
H 	H 	0.95117 0.80581 0.83074 0.05500
F 	F 	0.87665 0.52849 0.43144 -0.39300
C 	C 	0.93425 0.48173 0.95328 0.10400
F 	F 	0.91018 0.43633 0.01186 -0.40100
F 	F 	0.08233 0.70483 0.02804 -0.41000
C 	C 	0.97695 0.23706 0.79851 0.01000
C 	C 	0.02473 0.88891 0.33799 -0.02800
H 	H 	0.87176 0.07572 0.77637 0.03800
C 	C 	0.89580 0.56343 0.68597 -0.04600
H 	H 	0.67105 0.69361 0.80708 0.06400
H 	H 	0.12290 0.45616 0.19112 0.05000
H 	H 	0.89487 0.55971 0.70868 0.05200
C 	C 	0.91690 0.04772 0.65710 0.01300
H 	H 	0.98713 0.68919 0.60820 0.09800
C 	C 	0.98318 0.68714 0.63087 -0.06000
H 	H 	0.95480 0.93948 0.33804 0.06500
C 	C 	0.86303 0.80762 0.81166 -0.06100
H 	H 	0.94212 0.15778 0.23997 0.16000
F 	F 	0.94767 0.49387 0.57498 -0.43100
C 	C 	0.93750 0.48014 0.92391 0.02700
C 	C 	0.79607 0.77325 0.80972 -0.01200
Ni	Ni	0.91707 0.84373 0.73054 1.06700
C 	C 	0.92314 0.95335 0.68915 0.29200
C 	C 	0.89508 0.86355 0.79149 0.27000
O 	O 	0.94775 0.81772 0.69327 -0.40700
O 	O 	0.93046 0.96209 0.25784 -0.38000
Ni	Ni	0.93482 0.04964 0.16993 1.07200
O 	O 	0.92797 0.14528 0.18010 -0.40000
O 	O 	0.95773 0.12054 0.24683 -0.70600
Ni	Ni	0.96593 0.12750 0.28790 1.07600
O 	O 	0.94146 0.02400 0.29897 -0.37200
C 	C 	0.94808 0.49137 0.47783 0.11600
C 	C 	0.93356 0.45698 0.52692 -0.04700
F 	F 	0.93671 0.62631 0.47465 -0.40600
F 	F 	0.93774 0.38130 0.56427 -0.42000
C 	C 	0.93909 0.62322 0.67319 0.02100
F 	F 	0.94798 0.35381 0.97310 -0.39700
C 	C 	0.88879 0.13002 0.78433 -0.00800
H 	H 	0.76738 0.79576 0.79703 0.05800
F 	F 	0.07334 0.72839 0.98247 -0.40000
C 	C 	0.02936 0.46819 0.97867 -0.07200
H 	H 	0.04610 0.33760 0.20030 0.04500
H 	H 	0.93009 0.21053 0.13213 0.04900
H 	H 	0.04282 0.79658 0.63707 0.06900
H 	H 	0.97578 0.30877 0.09960 0.09300
C 	C 	0.96484 0.26005 0.14007 0.03800
O 	O 	0.95792 0.03158 0.20779 -0.70200
H 	H 	0.99007 0.61614 0.97117 0.09500
C 	C 	0.00273 0.64805 0.47362 0.79400
H 	H 	0.97085 0.68217 0.71218 0.03000
C 	C 	0.01164 0.48144 0.43697 0.08800
H 	H 	0.96143 0.17360 0.63226 0.06400
C 	C 	0.99249 0.52484 0.45518 0.04900
H 	H 	0.98854 0.42440 0.43794 0.10300
H 	H 	0.96854 0.07343 0.65912 0.04100
C 	C 	0.01595 0.74767 0.64730 0.04700
C 	C 	0.01110 0.39262 0.96734 0.79400
C 	C 	0.00462 0.81234 0.68998 0.28700
F 	F 	0.03503 0.39674 0.39619 -0.41200
O 	O 	0.94606 0.91874 0.79933 -0.35200
O 	O 	0.98145 0.95672 0.68283 -0.37000
H 	H 	0.97004 0.98889 0.20773 0.14800
C 	C 	0.97936 0.20188 0.18429 0.28400
C 	C 	0.95498 0.97739 0.28342 0.27900
C 	C 	0.98922 0.93421 0.29618 -0.07500
C 	C 	0.98627 0.92216 0.32524 0.00500
H 	H 	0.02271 0.88111 0.36051 0.08200
C 	C 	0.97379 0.48523 0.50439 0.00200
C 	C 	0.96227 0.45073 0.55559 0.76500
C 	C 	0.00640 0.74769 0.67636 -0.05000
C 	C 	0.97505 0.68303 0.68948 -0.03000
C 	C 	0.99446 0.51140 0.97026 0.04900
H 	H 	0.98404 0.49904 0.91436 0.11800
C 	C 	0.01683 0.58346 0.97804 0.08600
F 	F 	0.94881 0.48250 0.86663 -0.43400
C 	C 	0.93369 0.27117 0.80404 -0.04000
C 	C 	0.95465 0.16660 0.78856 -0.06900
H 	H 	0.95154 0.32558 0.81178 0.09100
