data_crystal

_cell_length_a 17.27146
_cell_length_b 17.80543
_cell_length_c 35.60197
_cell_angle_alpha 60.86028
_cell_angle_beta  118.90663
_cell_angle_gamma 133.28926

_symmetry_space_group_name_	'P 1'
_symmetry_space_group_name_H-M	'P 1'

loop_
_symmetry_equiv_pos_as_xyz
  x,y,z

loop_
_atom_site_label
_atom_site_type_symbol
_atom_site_fract_x
_atom_site_fract_y
_atom_site_fract_z
_atom_site_charge
C 	C 	0.75998 0.25569 0.04326 0.11400
N 	N 	0.84058 0.33064 0.06668 -0.11700
C 	C 	0.81534 0.35301 0.08868 0.11600
N 	N 	0.71173 0.28846 0.09323 -0.12500
C 	C 	0.63035 0.21568 0.06894 0.11500
N 	N 	0.65441 0.19970 0.04367 -0.13200
C 	C 	0.73161 0.35801 0.47492 0.11900
N 	N 	0.63390 0.29069 0.48602 -0.13000
C 	C 	0.58566 0.32979 0.48337 0.11600
N 	N 	0.63244 0.43494 0.46769 -0.12900
C 	C 	0.73503 0.50323 0.46160 0.11900
N 	N 	0.78394 0.46475 0.46406 -0.12100
C 	C 	0.28211 0.59133 0.17304 0.10900
N 	N 	0.38757 0.63010 0.18010 -0.13000
C 	C 	0.41109 0.56574 0.18556 0.11100
N 	N 	0.32970 0.46144 0.18672 -0.13000
C 	C 	0.22390 0.42369 0.17648 0.11300
N 	N 	0.19984 0.48865 0.16974 -0.13700
C 	C 	0.27779 0.63506 0.66318 0.11000
N 	N 	0.38302 0.68829 0.66251 -0.13000
C 	C 	0.41906 0.63383 0.66872 0.11100
N 	N 	0.35165 0.52646 0.67812 -0.12900
C 	C 	0.24420 0.47391 0.67382 0.11400
N 	N 	0.20771 0.52783 0.66766 -0.13500
Co	Co	0.03600 0.82345 0.10401 1.15200
Co	Co	0.98241 0.05494 0.07486 1.20500
Co	Co	0.90680 0.85107 0.13640 1.18600
Co	Co	0.10640 0.02707 0.04197 1.17500
C 	C 	0.97079 0.66150 0.07070 0.39600
Co	Co	0.13250 0.88405 0.02460 1.16600
Co	Co	0.78209 0.95211 0.11201 1.17100
C 	C 	0.31436 0.09896 0.03982 0.32100
O 	O 	0.82753 0.89803 0.18050 -0.38300
O 	O 	0.88352 0.94373 0.10098 -0.74200
C 	C 	0.92769 0.92456 0.20231 0.25800
O 	O 	0.97462 0.77547 0.15440 -0.43100
O 	O 	0.10741 0.13556 0.04761 -0.49900
C 	C 	0.00914 0.15510 0.13128 0.23400
O 	O 	0.96875 0.91786 0.07636 -0.53400
C 	C 	0.66670 0.72356 0.13545 0.31400
C 	C 	0.21472 0.80897 0.12049 0.28900
C 	C 	0.02365 0.98619 0.95067 0.17600
O 	O 	0.98284 0.92235 0.18728 -0.35800
O 	O 	0.24360 0.87094 0.08269 -0.38600
O 	O 	0.17637 0.82589 0.13799 -0.39800
O 	O 	0.90316 0.11126 0.11579 -0.34500
O 	O 	0.05525 0.12791 0.12453 -0.41600
O 	O 	0.66666 0.80097 0.10339 -0.38700
O 	O 	0.75047 0.71954 0.14941 -0.36700
O 	O 	0.01785 0.89822 0.96977 -0.37400
O 	O 	0.07210 0.05568 0.97318 -0.35700
O 	O 	0.07615 0.90627 0.05651 -0.78000
C 	C 	0.80555 0.08924 0.02356 0.31600
O 	O 	0.73845 0.99352 0.04397 -0.37900
O 	O 	0.89741 0.11649 0.02271 -0.35700
O 	O 	0.01931 0.72013 0.03769 -0.45500
O 	O 	0.93275 0.69167 0.08033 -0.37900
O 	O 	0.25139 0.04692 0.00877 -0.40500
O 	O 	0.27021 0.09348 0.06331 -0.40100
Co	Co	0.00887 0.87176 0.57279 1.15400
Co	Co	0.00207 0.12637 0.56167 1.14900
Co	Co	0.89520 0.90699 0.61018 1.18600
Co	Co	0.13318 0.09876 0.53083 1.17600
C 	C 	0.91493 0.77814 0.49428 0.30800
Co	Co	0.15064 0.94924 0.51112 1.15800
Co	Co	0.80148 0.02837 0.59722 1.17100
C 	C 	0.34439 0.13038 0.54873 0.31100
O 	O 	0.83206 0.95096 0.66372 -0.38100
O 	O 	0.89203 0.01416 0.58146 -0.73400
C 	C 	0.92427 0.95938 0.68606 0.26000
O 	O 	0.92990 0.80970 0.61916 -0.43100
O 	O 	0.13520 0.20541 0.53936 -0.48100
C 	C 	0.03415 0.20915 0.62710 0.23100
O 	O 	0.97774 0.99126 0.55433 -0.52700
C 	C 	0.65959 0.80113 0.60697 0.31600
C 	C 	0.14484 0.79945 0.59932 0.31200
C 	C 	0.12980 0.12047 0.44100 0.29000
O 	O 	0.97209 0.95361 0.66853 -0.36300
O 	O 	0.11586 0.80668 0.55706 -0.42100
O 	O 	0.12529 0.83973 0.61382 -0.40000
O 	O 	0.93249 0.17842 0.60892 -0.34200
O 	O 	0.07364 0.17857 0.61811 -0.40600
O 	O 	0.67029 0.88764 0.58008 -0.38800
O 	O 	0.73117 0.78513 0.61511 -0.36900
O 	O 	0.19461 0.09054 0.46255 -0.40700
O 	O 	0.09924 0.13660 0.46223 -0.39700
O 	O 	0.08702 0.97414 0.53744 -0.79000
C 	C 	0.84248 0.18775 0.51262 0.30800
O 	O 	0.76819 0.09234 0.53061 -0.37800
O 	O 	0.93642 0.21256 0.51477 -0.33700
O 	O 	0.99357 0.86802 0.47482 -0.35200
O 	O 	0.90205 0.76652 0.53147 -0.34400
O 	O 	0.29790 0.03079 0.55333 -0.38900
O 	O 	0.29860 0.15716 0.55637 -0.38300
C 	C 	0.92805 0.91353 0.79486 0.18900
C 	C 	0.86418 0.88902 0.81816 -0.14800
C 	C 	0.90774 0.96329 0.83973 0.14500
C 	C 	0.01201 0.05847 0.83841 -0.03300
C 	C 	0.07362 0.08518 0.81315 -0.02800
C 	C 	0.03078 0.00958 0.79251 -0.07600
N 	N 	0.88453 0.87637 0.75943 -0.17500
C 	C 	0.95815 0.94867 0.73393 0.08400
C 	C 	0.05016 0.03329 0.75332 -0.09800
N 	N 	0.05866 0.08870 0.87628 -0.17900
C 	C 	0.98605 0.01293 0.90226 0.14400
C 	C 	0.89060 0.93491 0.88012 -0.11300
H 	H 	0.78374 0.81416 0.81984 0.08200
H 	H 	0.15393 0.16008 0.81128 0.04500
H 	H 	0.10285 0.11331 0.73500 0.05500
H 	H 	0.83520 0.85353 0.89671 0.09000
H 	H 	0.80052 0.82330 0.74743 0.10400
H 	H 	0.14332 0.13734 0.88865 0.09400
C 	C 	0.06488 0.02766 0.29637 -0.03700
C 	C 	0.13205 0.12288 0.30913 -0.01400
C 	C 	0.09198 0.13365 0.33109 -0.10500
C 	C 	0.98760 0.05337 0.33902 0.18900
C 	C 	0.91955 0.95954 0.32498 -0.14400
C 	C 	0.96191 0.94669 0.30523 0.14400
N 	N 	0.06906 0.02139 0.26122 -0.17300
C 	C 	0.96891 0.93639 0.24758 0.08700
C 	C 	0.90003 0.88834 0.27406 -0.10000
N 	N 	0.98515 0.05422 0.37605 -0.13300
C 	C 	0.08770 0.13172 0.39295 -0.06900
C 	C 	0.15599 0.18361 0.36547 0.01200
H 	H 	0.21302 0.18572 0.30274 0.04200
H 	H 	0.83836 0.89666 0.33115 0.08000
H 	H 	0.81157 0.84183 0.26343 0.07600
H 	H 	0.24380 0.22404 0.37684 0.03900
H 	H 	0.12286 0.08617 0.24069 0.08600
H 	H 	0.92841 0.98770 0.39516 0.10900
C 	C 	0.10817 0.29698 0.64719 -0.07300
C 	C 	0.16833 0.37506 0.66116 0.00900
C 	C 	0.51006 0.68755 0.65138 0.03100
C 	C 	0.58079 0.73397 0.63314 -0.08900
C 	C 	0.23363 0.69441 0.64709 0.02400
C 	C 	0.19420 0.74337 0.62898 -0.08600
C 	C 	0.14040 0.32640 0.16198 0.00700
C 	C 	0.07818 0.24697 0.14858 -0.07500
C 	C 	0.50910 0.61276 0.17491 0.02900
C 	C 	0.58525 0.65685 0.16037 -0.08600
C 	C 	0.23636 0.72933 0.14446 -0.09000
C 	C 	0.25622 0.66495 0.15930 0.01800
C 	C 	0.82294 0.26684 0.49431 -0.06700
C 	C 	0.78788 0.31622 0.48341 0.03500
C 	C 	0.80103 0.60570 0.46874 0.03700
C 	C 	0.85246 0.68634 0.47897 -0.06900
C 	C 	0.50180 0.26552 0.50652 0.03300
C 	C 	0.43157 0.20917 0.52639 -0.08800
C 	C 	0.80208 0.16815 0.02186 -0.09200
C 	C 	0.78700 0.21650 0.02852 0.04200
C 	C 	0.87887 0.46000 0.08927 0.06500
C 	C 	0.92401 0.55221 0.08343 -0.09400
C 	C 	0.52046 0.17515 0.06188 0.03600
C 	C 	0.42714 0.14196 0.05336 -0.08600
