data_crystal

_cell_length_a 33.71593
_cell_length_b 35.33476
_cell_length_c 14.81019
_cell_angle_alpha 90.39303
_cell_angle_beta  89.54253
_cell_angle_gamma 89.99387

_symmetry_space_group_name_	'P 1'
_symmetry_space_group_name_H-M	'P 1'

loop_
_symmetry_equiv_pos_as_xyz
  x,y,z

loop_
_atom_site_label
_atom_site_type_symbol
_atom_site_fract_x
_atom_site_fract_y
_atom_site_fract_z
_atom_site_charge
Cd	Cd	0.92810 0.78538 0.27992 1.23700
Cd	Cd	0.96386 0.84181 0.46015 1.17800
O 	O 	0.92167 0.71721 0.30607 -0.32600
O 	O 	0.89738 0.74323 0.18437 -0.35100
C 	C 	0.90204 0.71265 0.23183 0.28300
O 	O 	0.92158 0.84552 0.23284 -0.40000
O 	O 	0.97019 0.87018 0.32485 -0.41900
C 	C 	0.94342 0.87452 0.26106 0.27000
C 	C 	0.87533 0.80470 0.42506 0.29100
O 	O 	0.99188 0.79176 0.38013 -0.46100
O 	O 	0.85625 0.79160 0.35527 -0.32400
O 	O 	0.91377 0.80265 0.41911 -0.54000
C 	C 	0.01267 0.79440 0.30565 0.30400
O 	O 	0.99349 0.78676 0.23147 -0.35400
Cd	Cd	0.99754 0.88496 0.93694 1.22800
Cd	Cd	0.02139 0.94524 0.75401 1.18000
O 	O 	0.97104 0.82196 0.90153 -0.32600
O 	O 	0.98579 0.83844 0.04079 -0.32800
C 	C 	0.97235 0.81264 0.98596 0.22200
O 	O 	0.02885 0.93454 0.00111 -0.37100
O 	O 	0.01566 0.97652 0.88689 -0.42000
C 	C 	0.03281 0.96851 0.96436 0.19000
C 	C 	0.06865 0.87166 0.83600 0.29300
O 	O 	0.96227 0.91760 0.80007 -0.46100
O 	O 	0.06880 0.85334 0.91228 -0.32600
O 	O 	0.03560 0.88854 0.81718 -0.54700
C 	C 	0.93690 0.93186 0.85782 0.28800
O 	O 	0.93893 0.91849 0.93957 -0.37300
C 	C 	0.95251 0.70123 0.02617 0.14700
N 	N 	0.97940 0.67677 0.06087 -0.14300
C 	C 	0.97661 0.63916 0.04201 0.14800
N 	N 	0.94749 0.62629 0.98696 -0.16500
C 	C 	0.92044 0.65060 0.95296 0.12400
N 	N 	0.92260 0.68789 0.97417 -0.15400
C 	C 	0.83363 0.61912 0.24909 0.11200
N 	N 	0.83898 0.58806 0.19600 -0.14100
C 	C 	0.83753 0.55292 0.23281 0.12900
N 	N 	0.82516 0.54888 0.31976 -0.14500
C 	C 	0.81649 0.57977 0.37122 0.12800
N 	N 	0.81993 0.61479 0.33476 -0.13700
Cd	Cd	0.95398 0.14030 0.66471 1.23700
Cd	Cd	0.99600 0.09990 0.86510 1.18800
O 	O 	0.91608 0.19684 0.70320 -0.32600
O 	O 	0.91812 0.17616 0.56382 -0.37500
C 	C 	0.90243 0.19983 0.62224 0.28500
O 	O 	0.00024 0.09840 0.61261 -0.37700
O 	O 	0.99676 0.06366 0.74197 -0.43700
C 	C 	0.01647 0.07416 0.66967 0.28300
C 	C 	0.02205 0.17389 0.74191 0.31300
O 	O 	0.93186 0.10890 0.81736 -0.44700
O 	O 	0.01463 0.18873 0.66312 -0.30900
O 	O 	0.99452 0.15226 0.77478 -0.52500
C 	C 	0.91104 0.08494 0.76992 0.30800
O 	O 	0.90780 0.09300 0.68456 -0.37500
Cd	Cd	0.79757 0.99605 0.50710 1.23500
Cd	Cd	0.82187 0.91939 0.36419 1.16400
O 	O 	0.72799 0.01302 0.53934 -0.31700
O 	O 	0.77741 0.04406 0.59856 -0.36100
C 	C 	0.73983 0.04377 0.57966 0.27900
O 	O 	0.86259 0.99261 0.52012 -0.42000
O 	O 	0.87388 0.95810 0.39125 -0.44600
C 	C 	0.88524 0.96974 0.47191 0.27800
C 	C 	0.79514 0.92117 0.57559 0.29400
O 	O 	0.78362 0.97334 0.33929 -0.47200
O 	O 	0.79481 0.94573 0.64228 -0.30400
O 	O 	0.79064 0.93526 0.49601 -0.54900
C 	C 	0.79567 0.00664 0.31350 0.30700
O 	O 	0.80519 0.03015 0.37792 -0.43500
C 	C 	0.79109 0.23670 0.66056 0.10800
N 	N 	0.75787 0.21627 0.64208 -0.13700
C 	C 	0.72468 0.22066 0.69421 0.12600
N 	N 	0.72527 0.24465 0.76594 -0.14300
C 	C 	0.75894 0.26332 0.78804 0.12000
N 	N 	0.79098 0.26100 0.73213 -0.13800
C 	C 	0.68798 0.13974 0.48721 0.11200
N 	N 	0.64838 0.14446 0.49726 -0.14000
C 	C 	0.62867 0.17006 0.44667 0.12800
N 	N 	0.64888 0.19096 0.38504 -0.14400
C 	C 	0.68878 0.18691 0.37575 0.12800
N 	N 	0.70829 0.16114 0.42673 -0.14100
Cd	Cd	0.92897 0.11348 0.09574 1.23600
Cd	Cd	0.87953 0.08060 0.29508 1.17800
O 	O 	0.92407 0.18161 0.07261 -0.34100
O 	O 	0.96719 0.14776 0.99690 -0.49200
C 	C 	0.95544 0.18150 0.02163 0.35600
O 	O 	0.94552 0.05129 0.10623 -0.39500
O 	O 	0.89044 0.03562 0.19073 -0.42400
C 	C 	0.92477 0.02627 0.15392 0.30200
C 	C 	0.96761 0.12042 0.26525 0.31000
O 	O 	0.85823 0.11370 0.16882 -0.44700
O 	O 	0.99090 0.12947 0.19832 -0.30500
O 	O 	0.93061 0.11633 0.24357 -0.54100
C 	C 	0.84450 0.09886 0.09431 0.29000
O 	O 	0.86971 0.09699 0.02696 -0.34800
Cd	Cd	0.15521 0.17229 0.16871 1.24000
Cd	Cd	0.20100 0.11993 0.98866 1.16200
O 	O 	0.18363 0.23497 0.20042 -0.31900
O 	O 	0.12577 0.21855 0.25329 -0.34700
C 	C 	0.14918 0.24624 0.22952 0.27400
O 	O 	0.11392 0.12290 0.14561 -0.37200
O 	O 	0.16054 0.08480 0.07633 -0.42000
C 	C 	0.12331 0.09205 0.09844 0.28300
C 	C 	0.13912 0.19177 0.98649 0.24800
O 	O 	0.22393 0.14389 0.12544 -0.45000
O 	O 	0.11456 0.20819 0.04256 -0.26200
O 	O 	0.16807 0.17383 0.02382 -0.51100
C 	C 	0.22436 0.12572 0.20160 0.29000
O 	O 	0.19587 0.13464 0.25854 -0.35300
C 	C 	0.10654 0.32627 0.06112 0.13800
N 	N 	0.10345 0.31336 0.97463 -0.15200
C 	C 	0.09511 0.33784 0.90690 0.12500
N 	N 	0.08939 0.37502 0.92610 -0.15600
C 	C 	0.09177 0.38792 0.01249 0.13900
N 	N 	0.10007 0.36339 0.08016 -0.14600
C 	C 	0.01978 0.26953 0.11104 0.11200
N 	N 	0.03473 0.26532 0.19560 -0.12900
C 	C 	0.03281 0.29452 0.25596 0.13200
N 	N 	0.01685 0.32800 0.23067 -0.14300
C 	C 	0.00541 0.33345 0.14405 0.13900
N 	N 	0.00798 0.30434 0.08384 -0.13200
Cd	Cd	0.25492 0.99798 0.78852 1.23300
Cd	Cd	0.17341 0.96702 0.92289 1.15600
O 	O 	0.31768 0.96230 0.79271 -0.32500
O 	O 	0.31012 0.01098 0.70373 -0.34300
C 	C 	0.33360 0.98480 0.73369 0.26800
O 	O 	0.20424 0.03305 0.73819 -0.38500
O 	O 	0.16521 0.02512 0.86382 -0.46000
C 	C 	0.16885 0.03246 0.77695 0.27300
C 	C 	0.21054 0.93346 0.73425 0.29800
O 	O 	0.23719 0.98650 0.96068 -0.46900
O 	O 	0.23207 0.94559 0.66654 -0.28600
O 	O 	0.21659 0.94982 0.81109 -0.55200
C 	C 	0.24942 0.02079 0.97700 0.25400
O 	O 	0.26512 0.03874 0.90865 -0.40600
Cd	Cd	0.13566 0.97603 0.44880 1.23600
Cd	Cd	0.06124 0.96635 0.27787 1.18600
O 	O 	0.19868 0.00338 0.39711 -0.32400
O 	O 	0.18794 0.99045 0.54019 -0.36700
C 	C 	0.21200 0.00369 0.47896 0.30700
O 	O 	0.08002 0.96181 0.52635 -0.40800
O 	O 	0.05071 0.93378 0.40418 -0.41800
C 	C 	0.04782 0.95031 0.48362 0.27200
C 	C 	0.09040 0.04032 0.39957 0.30200
O 	O 	0.12320 0.93974 0.29548 -0.45800
O 	O 	0.11230 0.04737 0.46993 -0.29500
O 	O 	0.09874 0.00902 0.35671 -0.51800
C 	C 	0.13076 0.90839 0.33854 0.29100
O 	O 	0.14659 0.91292 0.41802 -0.36100
C 	C 	0.45284 0.99246 0.76021 0.09500
N 	N 	0.46650 0.96786 0.82253 -0.13800
C 	C 	0.50230 0.97333 0.86185 0.11600
N 	N 	0.52604 0.00169 0.83194 -0.13600
C 	C 	0.51316 0.02582 0.76745 0.12800
N 	N 	0.47595 0.02191 0.73365 -0.13300
C 	C 	0.33099 0.01725 0.49769 0.13200
N 	N 	0.34697 0.05015 0.52830 -0.13700
C 	C 	0.38505 0.05908 0.50720 0.13500
N 	N 	0.40695 0.03531 0.45460 -0.14700
C 	C 	0.39089 0.00284 0.42235 0.15900
N 	N 	0.35329 0.99329 0.44627 -0.15600
C 	C 	0.51071 0.95439 0.94911 -0.06800
C 	C 	0.52945 0.97465 0.01959 0.12400
C 	C 	0.51435 0.97166 0.10785 -0.08800
C 	C 	0.48418 0.94552 0.12709 -0.01200
C 	C 	0.47437 0.91795 0.06140 0.10100
C 	C 	0.48821 0.92236 0.97231 -0.08300
N 	N 	0.56296 0.99495 0.00387 -0.19500
H 	H 	0.52487 0.99056 0.16043 0.05100
C 	C 	0.45690 0.95332 0.20379 -0.00000
N 	N 	0.45081 0.88809 0.08286 -0.19800
H 	H 	0.47790 0.90336 0.91972 0.05200
C 	C 	0.42093 0.97168 0.18645 -0.08700
C 	C 	0.39828 0.98740 0.25708 0.09800
C 	C 	0.41086 0.98271 0.34749 -0.06900
C 	C 	0.44540 0.96197 0.36517 -0.04600
C 	C 	0.46855 0.94707 0.29400 0.06400
H 	H 	0.41180 0.97583 0.11715 0.06000
N 	N 	0.36544 0.00814 0.23734 -0.19300
H 	H 	0.45476 0.95812 0.43440 0.04300
N 	N 	0.50166 0.92668 0.31269 -0.19400
H 	H 	0.35597 0.01054 0.17058 0.09600
H 	H 	0.34967 0.02299 0.28700 0.10000
H 	H 	0.51069 0.92305 0.37943 0.08100
H 	H 	0.51806 0.91334 0.26153 0.08600
H 	H 	0.44239 0.86854 0.03333 0.09400
H 	H 	0.44180 0.88338 0.14950 0.09100
H 	H 	0.57946 0.99091 0.94462 0.07400
H 	H 	0.57489 0.01214 0.05455 0.09900
C 	C 	0.25348 0.00839 0.49519 -0.06900
C 	C 	0.28884 0.01236 0.50020 0.02600
C 	C 	0.37586 0.98960 0.73142 -0.07500
C 	C 	0.41135 0.99199 0.73923 0.01000
C 	C 	0.08873 0.32373 0.81379 -0.04900
C 	C 	0.12076 0.31099 0.75882 0.09400
C 	C 	0.11376 0.30082 0.66824 -0.08600
C 	C 	0.07644 0.30672 0.62928 -0.00600
C 	C 	0.04462 0.32018 0.68392 0.07200
C 	C 	0.05082 0.32705 0.77636 -0.05200
N 	N 	0.15828 0.30912 0.79172 -0.20000
H 	H 	0.13793 0.29000 0.62679 0.05400
C 	C 	0.07121 0.29956 0.53067 -0.00200
N 	N 	0.00846 0.32760 0.64782 -0.19000
H 	H 	0.02636 0.33684 0.81844 0.04900
C 	C 	0.04805 0.26871 0.50236 -0.08700
C 	C 	0.03588 0.26534 0.41187 0.10700
C 	C 	0.05069 0.29125 0.34681 -0.04400
C 	C 	0.07806 0.31901 0.37367 -0.05000
C 	C 	0.08695 0.32469 0.46531 0.07000
H 	H 	0.03703 0.24886 0.55207 0.07000
N 	N 	0.00902 0.23821 0.38918 -0.19200
H 	H 	0.09016 0.33821 0.32368 0.05100
N 	N 	0.10940 0.35499 0.49007 -0.19400
H 	H 	0.99853 0.21930 0.43782 0.08500
H 	H 	0.99741 0.23611 0.32435 0.09600
H 	H 	0.12157 0.37280 0.44107 0.08400
H 	H 	0.11407 0.36191 0.55773 0.08800
H 	H 	0.98488 0.33628 0.68925 0.07900
H 	H 	0.00370 0.32628 0.57835 0.09200
H 	H 	0.16480 0.31739 0.85772 0.08600
H 	H 	0.18160 0.29945 0.75077 0.07900
C 	C 	0.21927 0.05635 0.20369 -0.00600
C 	C 	0.24366 0.08854 0.20416 -0.08700
C 	C 	0.28087 0.08549 0.16167 -0.01800
C 	C 	0.28565 0.05957 0.09068 -0.03200
C 	C 	0.25460 0.03453 0.07023 -0.07600
C 	C 	0.22407 0.02957 0.13414 -0.01700
H 	H 	0.19266 0.05573 0.24514 0.05400
H 	H 	0.30274 0.10761 0.17094 0.03200
H 	H 	0.31153 0.06128 0.04706 0.04400
H 	H 	0.20168 0.00802 0.12394 0.01400
C 	C 	0.13206 0.27765 0.18253 -0.06100
C 	C 	0.11968 0.30107 0.13080 0.01600
C 	C 	0.04997 0.09914 0.40845 0.00500
C 	C 	0.05276 0.06051 0.38667 -0.10200
C 	C 	0.01875 0.04114 0.35797 0.00800
C 	C 	0.98395 0.06121 0.34099 -0.02000
C 	C 	0.98458 0.10084 0.34222 -0.13000
C 	C 	0.01537 0.11908 0.38847 0.01100
H 	H 	0.07513 0.11405 0.43662 0.04400
H 	H 	0.01893 0.01073 0.35074 -0.05500
H 	H 	0.95811 0.04629 0.31676 -0.01600
H 	H 	0.01486 0.14955 0.39695 0.03100
C 	C 	0.00316 0.23705 0.06634 0.05900
C 	C 	0.98396 0.21084 0.03783 -0.10900
C 	C 	0.58511 0.16844 0.44397 -0.05000
C 	C 	0.56149 0.19802 0.48041 0.09900
C 	C 	0.52150 0.19096 0.50193 -0.08800
C 	C 	0.50478 0.15528 0.48533 -0.00400
C 	C 	0.52748 0.12700 0.44033 0.07300
C 	C 	0.56728 0.13419 0.41902 -0.05400
N 	N 	0.57676 0.23318 0.49397 -0.20100
H 	H 	0.50358 0.21305 0.53291 0.05000
C 	C 	0.46372 0.14753 0.51554 -0.00800
N 	N 	0.51144 0.09280 0.41851 -0.19400
H 	H 	0.58516 0.11210 0.38779 0.04800
C 	C 	0.43318 0.14960 0.45215 -0.08600
C 	C 	0.40112 0.12435 0.45742 0.10100
C 	C 	0.40033 0.09706 0.52677 -0.05200
C 	C 	0.42530 0.10184 0.60114 -0.05500
C 	C 	0.45692 0.12762 0.59652 0.07400
H 	H 	0.43659 0.16762 0.39364 0.05500
N 	N 	0.37264 0.12475 0.39302 -0.20000
H 	H 	0.42260 0.08302 0.65839 0.05600
N 	N 	0.48111 0.13244 0.66852 -0.19400
H 	H 	0.37432 0.14381 0.33946 0.08600
H 	H 	0.34796 0.10696 0.39729 0.09400
H 	H 	0.47539 0.11824 0.72888 0.08700
H 	H 	0.50465 0.15163 0.66646 0.08700
H 	H 	0.52844 0.07238 0.38451 0.08600
H 	H 	0.48222 0.08593 0.43507 0.09800
H 	H 	0.60563 0.23991 0.47393 0.09300
H 	H 	0.55934 0.25459 0.52289 0.08000
C 	C 	0.53678 0.05979 0.74663 -0.05300
C 	C 	0.55515 0.06457 0.66110 0.10500
C 	C 	0.58274 0.09393 0.64906 -0.08700
C 	C 	0.59254 0.11819 0.72088 -0.00300
C 	C 	0.57225 0.11493 0.80449 0.06400
C 	C 	0.54467 0.08563 0.81656 -0.05400
N 	N 	0.54735 0.04057 0.59122 -0.19900
H 	H 	0.59802 0.09673 0.58488 0.06500
C 	C 	0.62692 0.14402 0.71080 -0.00400
N 	N 	0.57961 0.13934 0.87382 -0.19400
H 	H 	0.52996 0.08235 0.88144 0.04400
C 	C 	0.62042 0.18159 0.68493 -0.08200
C 	C 	0.65244 0.20655 0.67264 0.10000
C 	C 	0.69166 0.19359 0.68642 -0.04600
C 	C 	0.69807 0.15602 0.71249 -0.05300
C 	C 	0.66609 0.13119 0.72609 0.07600
H 	H 	0.59038 0.19141 0.67409 0.05200
N 	N 	0.64535 0.24300 0.64870 -0.19900
H 	H 	0.72804 0.14639 0.72529 0.05400
N 	N 	0.67318 0.09531 0.75466 -0.19400
H 	H 	0.61643 0.25362 0.64874 0.08200
H 	H 	0.66833 0.26087 0.62818 0.08900
H 	H 	0.70222 0.08611 0.76541 0.09000
H 	H 	0.65014 0.07628 0.76712 0.09200
H 	H 	0.56504 0.13623 0.93588 0.07600
H 	H 	0.59932 0.16192 0.86662 0.08300
H 	H 	0.52662 0.01880 0.59717 0.09800
H 	H 	0.56206 0.04366 0.52933 0.08900
C 	C 	0.76418 0.27588 0.88257 -0.02800
C 	C 	0.73221 0.29295 0.92984 0.05900
C 	C 	0.72746 0.28616 0.02265 -0.03900
C 	C 	0.75513 0.26391 0.06852 -0.03000
C 	C 	0.79133 0.25442 0.02526 0.11500
C 	C 	0.79567 0.26064 0.93213 -0.10000
N 	N 	0.70554 0.31482 0.88591 -0.19200
H 	H 	0.70092 0.29587 0.05755 0.04900
C 	C 	0.74207 0.24328 0.15026 0.00700
N 	N 	0.82133 0.23825 0.07212 -0.20100
H 	H 	0.82190 0.25028 0.89709 0.06200
C 	C 	0.72811 0.20612 0.14042 -0.09000
C 	C 	0.71152 0.18679 0.21396 0.10400
C 	C 	0.70931 0.20496 0.29937 -0.05300
C 	C 	0.72452 0.24164 0.31010 -0.05000
C 	C 	0.74110 0.26102 0.23625 0.06500
H 	H 	0.72934 0.19249 0.07460 0.06300
N 	N 	0.69722 0.15110 0.20177 -0.20100
H 	H 	0.72306 0.25533 0.37583 0.04700
N 	N 	0.75624 0.29635 0.24852 -0.19300
H 	H 	0.69803 0.13837 0.13786 0.08900
H 	H 	0.68565 0.13543 0.25534 0.09400
H 	H 	0.75479 0.30948 0.31192 0.08300
H 	H 	0.77028 0.31081 0.19599 0.08800
H 	H 	0.84745 0.22987 0.03915 0.10500
H 	H 	0.81948 0.23505 0.14209 0.09300
H 	H 	0.70980 0.32187 0.81812 0.08600
H 	H 	0.68103 0.32616 0.92023 0.07500
C 	C 	0.76617 0.05713 0.22131 -0.00500
C 	C 	0.78448 0.02146 0.22505 -0.11200
C 	C 	0.80448 0.00817 0.14791 0.01900
C 	C 	0.81726 0.03427 0.08306 -0.02200
C 	C 	0.81054 0.07301 0.09898 -0.07200
C 	C 	0.77905 0.08307 0.15666 -0.03100
H 	H 	0.74694 0.06657 0.27596 0.03400
H 	H 	0.81459 0.97914 0.14436 -0.00300
H 	H 	0.83792 0.02530 0.03072 0.06100
H 	H 	0.77014 0.11242 0.16281 0.03800
C 	C 	0.95083 0.99593 0.51848 -0.01900
C 	C 	0.92680 0.96458 0.49846 -0.08700
C 	C 	0.94285 0.92816 0.50288 -0.03100
C 	C 	0.98297 0.92327 0.52264 -0.04700
C 	C 	0.00832 0.95461 0.52463 -0.11100
C 	C 	0.99162 0.99091 0.53135 -0.07300
H 	H 	0.93852 0.02425 0.51817 0.03300
H 	H 	0.92489 0.90390 0.48600 -0.05300
H 	H 	0.99536 0.89507 0.52420 -0.08100
H 	H 	0.01062 0.01544 0.53556 0.05900
C 	C 	0.70651 0.10720 0.52623 0.01400
C 	C 	0.72138 0.07875 0.55506 -0.07900
C 	C 	0.08918 0.08638 0.65236 -0.00800
C 	C 	0.05766 0.06039 0.65769 -0.08700
C 	C 	0.06593 0.02304 0.68314 -0.00100
C 	C 	0.10277 0.01362 0.71901 -0.01800
C 	C 	0.13299 0.04067 0.72365 -0.08300
C 	C 	0.12679 0.07663 0.68603 -0.00600
H 	H 	0.08379 0.11502 0.62991 0.04000
H 	H 	0.04228 0.00247 0.68535 -0.06100
H 	H 	0.10694 0.98601 0.74859 -0.04500
H 	H 	0.15013 0.09768 0.68781 0.02700
C 	C 	0.07718 0.14331 0.82447 -0.00200
C 	C 	0.06174 0.17516 0.78091 -0.11100
C 	C 	0.08284 0.20928 0.78293 0.00400
C 	C 	0.11551 0.21299 0.83955 -0.01200
C 	C 	0.12638 0.18289 0.89532 -0.10700
C 	C 	0.11059 0.14693 0.87851 -0.03600
H 	H 	0.06246 0.11623 0.81952 -0.06300
H 	H 	0.07199 0.23370 0.74689 0.04100
H 	H 	0.12887 0.24052 0.84919 0.03700
H 	H 	0.12083 0.12278 0.91643 -0.02800
C 	C 	0.82886 0.22396 0.62606 0.01800
C 	C 	0.86238 0.21305 0.61320 -0.08200
C 	C 	0.85508 0.51990 0.18413 -0.05200
C 	C 	0.88812 0.52374 0.12455 0.10500
C 	C 	0.90395 0.49143 0.08268 -0.09000
C 	C 	0.89497 0.45557 0.11622 0.00200
C 	C 	0.86132 0.45115 0.17280 0.07000
C 	C 	0.84065 0.48343 0.20318 -0.05200
N 	N 	0.90749 0.55717 0.11552 -0.20000
H 	H 	0.92796 0.49444 0.03450 0.06200
C 	C 	0.92630 0.42621 0.11256 -0.01100
N 	N 	0.84901 0.41622 0.19890 -0.19400
H 	H 	0.81447 0.48013 0.24540 0.05000
C 	C 	0.95906 0.42996 0.16966 -0.08000
C 	C 	0.98891 0.40238 0.17017 0.09800
C 	C 	0.98374 0.36852 0.11982 -0.05000
C 	C 	0.95301 0.36652 0.05612 -0.05800
C 	C 	0.92462 0.39553 0.05085 0.09000
H 	H 	0.96169 0.45483 0.21250 0.05200
N 	N 	0.02307 0.40921 0.21569 -0.19500
H 	H 	0.95016 0.34171 0.01322 0.06000
N 	N 	0.89557 0.39339 0.98779 -0.20900
H 	H 	0.02576 0.43324 0.25670 0.08400
H 	H 	0.04815 0.39237 0.20556 0.10000
H 	H 	0.89409 0.37020 0.94374 0.07800
H 	H 	0.87463 0.41491 0.98080 0.07800
H 	H 	0.82471 0.41325 0.24253 0.08400
H 	H 	0.86286 0.39171 0.17477 0.09100
H 	H 	0.90877 0.57649 0.16896 0.09500
H 	H 	0.92701 0.56109 0.06131 0.09800
C 	C 	0.00786 0.61299 0.07096 -0.05400
C 	C 	0.04024 0.60475 0.01282 0.11900
C 	C 	0.05977 0.56982 0.02008 -0.06100
C 	C 	0.04695 0.54310 0.08345 -0.00100
C 	C 	0.01877 0.55380 0.15020 0.06800
C 	C 	0.00016 0.58928 0.14448 -0.04200
N 	N 	0.05192 0.62975 0.94849 -0.21200
H 	H 	0.08296 0.56233 0.97203 0.03200
C 	C 	0.05736 0.50278 0.06869 -0.02300
N 	N 	0.00855 0.52975 0.21776 -0.18900
H 	H 	0.97742 0.59709 0.19329 0.04200
C 	C 	0.09225 0.48845 0.10634 -0.07000
C 	C 	0.10495 0.45139 0.08644 0.08400
C 	C 	0.08050 0.42741 0.03352 -0.00800
C 	C 	0.04503 0.44153 0.99823 -0.12700
C 	C 	0.03390 0.47931 0.01253 0.13500
H 	H 	0.11044 0.50669 0.14819 0.05100
N 	N 	0.14121 0.43974 0.11478 -0.19600
H 	H 	0.02620 0.42311 0.95830 0.06300
N 	N 	0.00130 0.49310 0.97033 -0.20900
H 	H 	0.15799 0.45687 0.15779 0.08500
H 	H 	0.15417 0.41486 0.09026 0.09500
H 	H 	0.98443 0.47556 0.92846 0.07400
H 	H 	0.99241 0.52123 0.97802 0.07300
H 	H 	0.98611 0.53698 0.26383 0.07900
H 	H 	0.02341 0.50414 0.22648 0.08500
H 	H 	0.03918 0.65662 0.94443 0.09000
H 	H 	0.07490 0.62291 0.90350 0.08200
C 	C 	0.89516 0.63829 0.87774 -0.05400
C 	C 	0.86257 0.61372 0.89170 0.09900
C 	C 	0.84206 0.59925 0.81676 -0.08900
C 	C 	0.85315 0.60954 0.72881 -0.00500
C 	C 	0.88432 0.63586 0.71538 0.07100
C 	C 	0.90515 0.64975 0.79011 -0.05200
N 	N 	0.85040 0.60457 0.97650 -0.21400
H 	H 	0.81769 0.57966 0.82688 0.05100
C 	C 	0.83342 0.59126 0.65097 -0.00700
N 	N 	0.89450 0.64773 0.63105 -0.19400
H 	H 	0.92974 0.66908 0.77989 0.04700
C 	C 	0.80060 0.60910 0.61221 -0.08700
C 	C 	0.79019 0.60114 0.52239 0.10100
C 	C 	0.81400 0.57606 0.47051 -0.05200
C 	C 	0.84206 0.55346 0.51445 -0.05400
C 	C 	0.85186 0.56076 0.60481 0.07000
H 	H 	0.78471 0.63079 0.64994 0.05400
N 	N 	0.75752 0.61751 0.48636 -0.19900
H 	H 	0.85849 0.53220 0.47654 0.05000
N 	N 	0.87987 0.53934 0.64585 -0.19400
H 	H 	0.74094 0.63721 0.52370 0.08500
H 	H 	0.74730 0.60948 0.42264 0.09300
H 	H 	0.89451 0.51779 0.61023 0.08100
H 	H 	0.88640 0.54306 0.71414 0.08500
H 	H 	0.91804 0.66659 0.62186 0.08500
H 	H 	0.87888 0.63900 0.57405 0.09400
H 	H 	0.86280 0.61745 0.03324 0.11900
H 	H 	0.82731 0.58525 0.98633 0.08400
C 	C 	0.08219 0.99351 0.07552 -0.13900
C 	C 	0.04997 0.00002 0.01824 -0.01400
C 	C 	0.03722 0.03746 0.00402 -0.00800
C 	C 	0.05914 0.06802 0.03818 -0.03700
C 	C 	0.09374 0.06146 0.08763 -0.07100
C 	C 	0.10379 0.02410 0.11061 -0.01800
H 	H 	0.09171 0.96487 0.08944 -0.01400
H 	H 	0.01125 0.04291 0.96359 -0.05600
H 	H 	0.05053 0.09667 0.02150 0.00300
H 	H 	0.12948 0.01870 0.15199 0.01200
C 	C 	0.92594 0.99804 0.90808 -0.05000
C 	C 	0.92036 0.96965 0.84293 -0.07600
C 	C 	0.90451 0.97902 0.75880 -0.05000
C 	C 	0.89702 0.01685 0.73802 0.02800
C 	C 	0.90644 0.04559 0.80039 -0.11000
C 	C 	0.91852 0.03572 0.88738 0.01900
H 	H 	0.93995 0.99139 0.97117 0.04700
H 	H 	0.89981 0.95729 0.70811 0.03900
H 	H 	0.88625 0.02396 0.67167 0.04400
H 	H 	0.92561 0.05749 0.93632 -0.02600
C 	C 	0.14092 0.86063 0.81069 -0.01700
C 	C 	0.10544 0.87767 0.78316 -0.12900
C 	C 	0.10655 0.90386 0.71221 -0.01600
C 	C 	0.14305 0.91804 0.68198 -0.03000
C 	C 	0.17821 0.90630 0.72326 -0.10000
C 	C 	0.17724 0.87471 0.77997 -0.03500
H 	H 	0.14052 0.83835 0.86055 0.03100
H 	H 	0.07938 0.91478 0.68413 -0.05600
H 	H 	0.14363 0.94092 0.63380 0.02000
H 	H 	0.20449 0.86394 0.80839 0.02800
C 	C 	0.96681 0.77413 0.01259 -0.02500
C 	C 	0.96106 0.74091 0.02437 -0.00100
C 	C 	0.90907 0.92173 0.16309 -0.02700
C 	C 	0.94294 0.91067 0.21050 -0.06800
C 	C 	0.97505 0.93604 0.21733 -0.03200
C 	C 	0.97120 0.97346 0.18766 -0.02100
C 	C 	0.93537 0.98572 0.15073 -0.08600
C 	C 	0.90574 0.95887 0.13162 -0.00300
H 	H 	0.88468 0.90219 0.15377 0.01800
H 	H 	0.00237 0.92720 0.24860 -0.03400
H 	H 	0.99525 0.99329 0.19775 -0.03700
H 	H 	0.87939 0.96725 0.09583 0.03300
C 	C 	0.87443 0.85027 0.55572 -0.00500
C 	C 	0.85430 0.82479 0.49932 -0.13200
C 	C 	0.81267 0.82363 0.50350 -0.01700
C 	C 	0.79179 0.85262 0.54745 -0.04000
C 	C 	0.81240 0.88332 0.58487 -0.10000
C 	C 	0.85350 0.87993 0.59775 -0.04400
H 	H 	0.90626 0.84851 0.56288 -0.06600
H 	H 	0.79650 0.80212 0.46658 0.03300
H 	H 	0.75978 0.85369 0.54210 0.02700
H 	H 	0.86967 0.90225 0.63175 0.03300
C 	C 	0.10454 0.84504 0.38384 -0.00500
C 	C 	0.10793 0.87358 0.31839 -0.08600
C 	C 	0.08447 0.87146 0.24054 -0.02300
C 	C 	0.05520 0.84361 0.23295 -0.00800
C 	C 	0.04902 0.81765 0.30317 -0.08200
C 	C 	0.07494 0.81751 0.37671 -0.02500
H 	H 	0.12337 0.84537 0.44275 0.04300
H 	H 	0.08744 0.89254 0.18813 -0.00500
H 	H 	0.03584 0.84370 0.17510 0.05400
H 	H 	0.07117 0.79700 0.43016 0.02800
C 	C 	0.85530 0.65301 0.22842 0.01400
C 	C 	0.87585 0.68085 0.22290 -0.06600
