data_crystal

_cell_length_a 26.26356
_cell_length_b 26.38284
_cell_length_c 35.03019
_cell_angle_alpha 95.49599
_cell_angle_beta  95.49259
_cell_angle_gamma 125.83831

_symmetry_space_group_name_	'P 1'
_symmetry_space_group_name_H-M	'P 1'

loop_
_symmetry_equiv_pos_as_xyz
  x,y,z

loop_
_atom_site_label
_atom_site_type_symbol
_atom_site_fract_x
_atom_site_fract_y
_atom_site_fract_z
_atom_site_charge
C 	C 	0.97303 0.03857 0.98715 0.18700
N 	N 	0.03191 0.06816 0.97772 -0.11400
C 	C 	0.05822 0.03681 0.97403 0.18800
N 	N 	0.02398 0.97469 0.97756 -0.11300
C 	C 	0.96484 0.94478 0.98664 0.18800
N 	N 	0.94016 0.97735 0.99242 -0.11600
C 	C 	0.93543 0.99405 0.47020 0.20000
N 	N 	0.99855 0.03037 0.46836 -0.12600
C 	C 	0.03013 0.00414 0.46813 0.19600
N 	N 	0.99843 0.94139 0.46922 -0.12200
C 	C 	0.93572 0.90529 0.47212 0.19200
N 	N 	0.90437 0.93186 0.47297 -0.11900
Cu	Cu	0.64003 0.24712 0.00115 0.93500
Cu	Cu	0.69383 0.25332 0.91914 0.89100
Cu	Cu	0.68491 0.35452 0.95546 0.90800
Cu	Cu	0.63915 0.36367 0.02955 0.90900
C 	C 	0.65420 0.28967 0.08315 0.29200
O 	O 	0.54588 0.20676 0.99707 -0.33100
C 	C 	0.66807 0.31846 0.86997 0.29300
O 	O 	0.69211 0.34644 0.00872 -0.64100
O 	O 	0.63690 0.25991 0.94641 -0.63500
O 	O 	0.67878 0.20099 0.99878 -0.33800
O 	O 	0.75101 0.26608 0.96293 -0.40700
O 	O 	0.62659 0.31683 0.07370 -0.34800
O 	O 	0.73543 0.44595 0.96872 -0.35100
C 	C 	0.72104 0.47680 0.99165 0.33200
C 	C 	0.52131 0.23520 0.98529 0.32400
O 	O 	0.55910 0.29551 0.98266 -0.35900
O 	O 	0.67411 0.44667 0.01151 -0.35000
O 	O 	0.65563 0.25165 0.05642 -0.33600
C 	C 	0.73182 0.22338 0.98535 0.33300
O 	O 	0.69220 0.36455 0.90066 -0.35200
O 	O 	0.65832 0.26424 0.87340 -0.38800
H 	H 	0.73668 0.37252 0.02334 0.18900
H 	H 	0.59332 0.23671 0.93078 0.19600
Cu	Cu	0.72647 0.32464 0.45055 0.93600
Cu	Cu	0.73385 0.28825 0.53682 0.89000
Cu	Cu	0.62972 0.29573 0.50317 0.90800
Cu	Cu	0.60541 0.31838 0.42326 0.90900
C 	C 	0.67616 0.29939 0.36860 0.29600
O 	O 	0.76216 0.41583 0.44739 -0.33200
C 	C 	0.67772 0.32238 0.58877 0.29500
O 	O 	0.62770 0.27277 0.44908 -0.63800
O 	O 	0.72355 0.33984 0.50635 -0.63600
O 	O 	0.77464 0.28812 0.45478 -0.33700
O 	O 	0.71526 0.22420 0.49590 -0.40800
O 	O 	0.64846 0.32637 0.37776 -0.35600
O 	O 	0.53779 0.24785 0.49665 -0.35000
C 	C 	0.50017 0.24750 0.46852 0.33700
C 	C 	0.73472 0.44131 0.45985 0.32200
O 	O 	0.67552 0.40455 0.46540 -0.36200
O 	O 	0.52282 0.28273 0.44137 -0.35700
O 	O 	0.71281 0.29649 0.39552 -0.33700
C 	C 	0.75412 0.23824 0.47116 0.33400
O 	O 	0.63052 0.30473 0.56010 -0.35200
O 	O 	0.73103 0.33254 0.58169 -0.38900
H 	H 	0.60039 0.22635 0.43885 0.19100
H 	H 	0.74998 0.38523 0.51910 0.19900
C 	C 	0.67597 0.29527 0.69255 -0.03400
C 	C 	0.65616 0.33075 0.70857 0.02900
C 	C 	0.64121 0.36188 0.68481 -0.04900
C 	C 	0.64684 0.35871 0.64536 0.03700
C 	C 	0.66802 0.32424 0.62957 -0.06900
C 	C 	0.68182 0.29227 0.65330 0.01900
C 	C 	0.65328 0.33719 0.75062 0.02800
C 	C 	0.70891 0.38513 0.77748 -0.04800
C 	C 	0.71314 0.38214 0.81727 0.03400
C 	C 	0.66057 0.33109 0.83047 -0.06300
C 	C 	0.60284 0.28684 0.80407 0.01900
C 	C 	0.59892 0.28969 0.76426 -0.02900
C 	C 	0.77271 0.42956 0.84388 0.10500
C 	C 	0.53975 0.24228 0.73735 0.11400
C 	C 	0.69071 0.26206 0.71635 0.10700
C 	C 	0.63199 0.39189 0.62163 0.10700
N 	N 	0.82046 0.46757 0.86517 -0.08000
N 	N 	0.49237 0.20431 0.71576 -0.08500
N 	N 	0.61997 0.41842 0.60265 -0.07100
N 	N 	0.70250 0.23549 0.73545 -0.09600
H 	H 	0.69727 0.26505 0.64113 0.04400
H 	H 	0.62574 0.38898 0.69712 0.07600
H 	H 	0.75027 0.42258 0.76707 0.07200
H 	H 	0.56177 0.24866 0.81430 0.06200
C 	C 	0.61787 0.24512 0.25996 -0.02900
C 	C 	0.67592 0.27434 0.24610 0.03000
C 	C 	0.73363 0.30549 0.27274 -0.04900
C 	C 	0.73446 0.31161 0.31303 0.03700
C 	C 	0.67645 0.28429 0.32694 -0.06200
C 	C 	0.61842 0.24927 0.30016 0.01800
C 	C 	0.67749 0.27946 0.20436 0.02900
C 	C 	0.70004 0.33794 0.19341 -0.04800
C 	C 	0.69631 0.34271 0.15394 0.03300
C 	C 	0.66756 0.28785 0.12482 -0.06000
C 	C 	0.64818 0.23003 0.13586 0.02200
C 	C 	0.65400 0.22589 0.17544 -0.02900
C 	C 	0.72398 0.40439 0.14363 0.08900
C 	C 	0.63556 0.16653 0.18613 0.11700
C 	C 	0.55778 0.21315 0.23319 0.11300
C 	C 	0.79522 0.34899 0.33972 0.11300
N 	N 	0.74625 0.45388 0.13546 -0.08400
N 	N 	0.62078 0.11899 0.19472 -0.08400
N 	N 	0.84390 0.37897 0.36107 -0.07400
N 	N 	0.50968 0.18755 0.21172 -0.08400
H 	H 	0.57376 0.22764 0.31071 0.05100
H 	H 	0.77824 0.32756 0.26210 0.07400
H 	H 	0.71996 0.37965 0.21570 0.07400
H 	H 	0.62731 0.18797 0.11368 0.07100
C 	C 	0.76890 0.51090 0.46528 -0.11300
C 	C 	0.79946 0.54428 0.43571 0.12700
C 	C 	0.83028 0.61019 0.44078 0.06500
C 	C 	0.82226 0.64094 0.47215 0.02200
C 	C 	0.78921 0.60702 0.50071 0.06600
C 	C 	0.76717 0.54362 0.49885 0.12800
C 	C 	0.84781 0.70857 0.47472 0.01300
C 	C 	0.90446 0.75657 0.50123 0.07900
C 	C 	0.92860 0.82058 0.50337 0.10400
C 	C 	0.90221 0.83765 0.47500 -0.05200
C 	C 	0.84630 0.78958 0.44776 0.10400
C 	C 	0.81683 0.72520 0.44956 0.07900
Br	Br	0.77184 0.64651 0.54139 -0.11500
Br	Br	0.79348 0.49922 0.38663 -0.15300
Br	Br	0.99425 0.88399 0.54678 -0.11300
Br	Br	0.73400 0.65977 0.41783 -0.12100
Br	Br	0.73956 0.50347 0.54344 -0.17500
Br	Br	0.88413 0.65858 0.40510 -0.12100
Br	Br	0.95062 0.73491 0.53316 -0.12000
Br	Br	0.81335 0.81132 0.40592 -0.11400
C 	C 	0.90006 0.02118 0.46695 -0.05800
C 	C 	0.88212 0.03658 0.50020 0.10600
C 	C 	0.85339 0.06773 0.49774 0.07800
C 	C 	0.84537 0.08613 0.46252 0.01300
C 	C 	0.86178 0.06920 0.42902 0.07900
C 	C 	0.88737 0.03510 0.43099 0.10600
C 	C 	0.82277 0.12600 0.46129 0.02200
C 	C 	0.75745 0.09742 0.44860 0.06500
C 	C 	0.73586 0.13524 0.44890 0.12900
C 	C 	0.77874 0.20098 0.46433 -0.12000
C 	C 	0.84430 0.22971 0.47647 0.12500
C 	C 	0.86649 0.19247 0.47379 0.06500
Br	Br	0.85096 0.09448 0.38082 -0.11700
Br	Br	0.89924 0.01724 0.54940 -0.12100
Br	Br	0.64806 0.09754 0.42707 -0.15900
Br	Br	0.95674 0.23223 0.48750 -0.12100
Br	Br	0.90350 0.00587 0.38432 -0.11300
Br	Br	0.82552 0.08588 0.54260 -0.13400
Br	Br	0.69748 0.00634 0.43182 -0.11800
Br	Br	0.90302 0.31922 0.49910 -0.17000
C 	C 	0.09925 0.04422 0.46866 -0.05500
C 	C 	0.12215 0.05350 0.43334 0.10500
C 	C 	0.18824 0.08900 0.43386 0.07800
C 	C 	0.23121 0.11301 0.46964 0.01300
C 	C 	0.20823 0.10394 0.50498 0.07900
C 	C 	0.14246 0.07127 0.50451 0.10600
C 	C 	0.30051 0.14757 0.47010 0.02300
C 	C 	0.32590 0.11346 0.46466 0.06600
C 	C 	0.39134 0.14620 0.46380 0.12600
C 	C 	0.43202 0.21323 0.47035 -0.11200
C 	C 	0.40713 0.24742 0.47774 0.12800
C 	C 	0.34109 0.21457 0.47623 0.06600
Br	Br	0.26686 0.13530 0.55389 -0.12100
Br	Br	0.06278 0.01685 0.38430 -0.11200
Br	Br	0.42493 0.09929 0.45226 -0.16500
Br	Br	0.30587 0.26112 0.48197 -0.11400
Br	Br	0.11157 0.06521 0.55290 -0.11200
Br	Br	0.22017 0.10497 0.38568 -0.12000
Br	Br	0.27091 0.02192 0.45863 -0.11900
Br	Br	0.46398 0.33909 0.49200 -0.13900
C 	C 	0.75324 0.54538 0.99169 -0.10700
C 	C 	0.76403 0.56846 0.95631 0.12900
C 	C 	0.80333 0.63436 0.95715 0.06600
C 	C 	0.82073 0.67676 0.99200 0.02400
C 	C 	0.80318 0.65309 0.02658 0.06600
C 	C 	0.77466 0.58852 0.02713 0.12600
C 	C 	0.85695 0.74597 0.99219 0.01300
C 	C 	0.92224 0.78820 0.00959 0.07900
C 	C 	0.95542 0.85400 0.01130 0.10000
C 	C 	0.92704 0.87666 0.98952 -0.04800
C 	C 	0.86288 0.83346 0.96964 0.10400
C 	C 	0.82654 0.76957 0.97419 0.07900
Br	Br	0.81642 0.70856 0.07273 -0.11300
Br	Br	0.71818 0.51072 0.90683 -0.15100
Br	Br	0.03668 0.91286 0.04632 -0.10900
Br	Br	0.73507 0.71481 0.95665 -0.11500
Br	Br	0.77096 0.56106 0.07651 -0.16000
Br	Br	0.83513 0.66649 0.91102 -0.12200
Br	Br	0.96681 0.75577 0.02950 -0.12100
Br	Br	0.82703 0.85941 0.93263 -0.11500
C 	C 	0.76759 0.19731 0.99314 -0.11900
C 	C 	0.73778 0.13185 0.98072 0.12500
C 	C 	0.77372 0.10829 0.98493 0.06500
C 	C 	0.84034 0.15068 0.99830 0.02400
C 	C 	0.86997 0.21586 0.01128 0.06300
C 	C 	0.83308 0.23861 0.01020 0.12700
C 	C 	0.87952 0.12726 0.99638 0.01300
C 	C 	0.89720 0.11091 0.02962 0.07900
C 	C 	0.93161 0.08564 0.02711 0.10300
C 	C 	0.94412 0.07222 0.99074 -0.05000
C 	C 	0.92630 0.08846 0.95748 0.10400
C 	C 	0.89634 0.11828 0.96069 0.07900
Br	Br	0.96132 0.27415 0.02916 -0.12000
Br	Br	0.64910 0.07531 0.95519 -0.16900
Br	Br	0.96365 0.07150 0.07361 -0.11700
Br	Br	0.87800 0.14673 0.91625 -0.13400
Br	Br	0.87153 0.32563 0.03341 -0.16300
Br	Br	0.73202 0.01801 0.97193 -0.11800
Br	Br	0.87253 0.12135 0.07819 -0.11900
Br	Br	0.93927 0.06622 0.90710 -0.12100
C 	C 	0.45121 0.20047 0.97728 -0.11200
C 	C 	0.42134 0.20518 0.94353 0.12700
C 	C 	0.35694 0.18192 0.93951 0.06700
C 	C 	0.31989 0.14585 0.96618 0.02200
C 	C 	0.34788 0.13433 0.99715 0.06700
C 	C 	0.41424 0.16567 0.00453 0.12400
C 	C 	0.25305 0.12406 0.96357 0.01200
C 	C 	0.23880 0.15547 0.99025 0.08000
C 	C 	0.17514 0.12644 0.99454 0.10500
C 	C 	0.12489 0.07076 0.96802 -0.04900
C 	C 	0.13922 0.04455 0.93767 0.10100
C 	C 	0.20305 0.06848 0.93712 0.08000
Br	Br	0.29515 0.07578 0.02954 -0.12000
Br	Br	0.46705 0.23918 0.90167 -0.17900
Br	Br	0.15777 0.15893 0.03921 -0.11600
Br	Br	0.22174 0.02319 0.90180 -0.12000
Br	Br	0.45488 0.16684 0.05392 -0.14900
Br	Br	0.32047 0.20210 0.89877 -0.11700
Br	Br	0.30674 0.23776 0.02130 -0.12600
Br	Br	0.07190 0.97834 0.89585 -0.10900
