data_crystal

_cell_length_a 22.58501
_cell_length_b 22.89000
_cell_length_c 34.29909
_cell_angle_alpha 90.00220
_cell_angle_beta  90.00252
_cell_angle_gamma 92.72025

_symmetry_space_group_name_	'P 1'
_symmetry_space_group_name_H-M	'P 1'

loop_
_symmetry_equiv_pos_as_xyz
  x,y,z

loop_
_atom_site_label
_atom_site_type_symbol
_atom_site_fract_x
_atom_site_fract_y
_atom_site_fract_z
_atom_site_charge
C 	C 	0.93696 0.98795 0.02232 -0.04100
C 	C 	0.94175 0.04794 0.01478 -0.04000
C 	C 	0.98582 0.95296 0.01667 0.00800
C 	C 	0.04102 0.97972 0.00535 -0.00700
C 	C 	0.04537 0.04021 0.99647 -0.00600
C 	C 	0.99481 0.07409 0.99973 0.00700
C 	C 	0.09181 0.94609 0.00284 0.00800
C 	C 	0.14494 0.97207 0.98784 -0.04200
C 	C 	0.10048 0.06682 0.98477 0.00600
C 	C 	0.99875 0.13386 0.98850 -0.00900
C 	C 	0.05371 0.15987 0.97751 -0.04700
C 	C 	0.10494 0.12778 0.97740 -0.00900
C 	C 	0.98132 0.89184 0.02357 -0.00900
C 	C 	0.03278 0.86005 0.02432 -0.04700
C 	C 	0.08807 0.88670 0.01481 -0.00900
C 	C 	0.94596 0.17003 0.98817 0.01200
C 	C 	0.89760 0.15519 0.96376 -0.04500
C 	C 	0.84845 0.19005 0.96308 -0.04200
C 	C 	0.84946 0.24280 0.98403 0.00600
C 	C 	0.89829 0.25820 0.00783 -0.04200
C 	C 	0.94583 0.22154 0.01038 -0.04500
C 	C 	0.16330 0.15974 0.97321 0.01100
C 	C 	0.19800 0.17233 0.00637 -0.04500
C 	C 	0.24836 0.21016 0.00370 -0.04200
C 	C 	0.18031 0.18416 0.93712 -0.04500
C 	C 	0.23082 0.22190 0.93442 -0.04300
C 	C 	0.26518 0.23490 0.96769 0.00600
C 	C 	0.92293 0.85958 0.02688 0.01100
C 	C 	0.90765 0.82951 0.06141 -0.04500
C 	C 	0.85765 0.79097 0.06251 -0.04200
C 	C 	0.82180 0.78304 0.02934 0.00600
C 	C 	0.83624 0.81411 0.99510 -0.04100
C 	C 	0.88652 0.85225 0.99388 -0.04400
C 	C 	0.14167 0.85211 0.01829 0.01200
C 	C 	0.14580 0.80004 0.99706 -0.04600
C 	C 	0.19626 0.76742 0.00028 -0.04100
C 	C 	0.24452 0.78844 0.02285 0.00400
C 	C 	0.23947 0.83911 0.04540 -0.04100
C 	C 	0.18770 0.87012 0.04378 -0.04500
C 	C 	0.14950 0.03184 0.97957 -0.04100
H 	H 	0.89774 0.11618 0.94588 0.03900
H 	H 	0.81033 0.17702 0.94539 0.03700
H 	H 	0.89924 0.29847 0.02446 0.03500
H 	H 	0.98297 0.23354 0.02919 0.03800
H 	H 	0.80908 0.80795 0.96925 0.03800
H 	H 	0.89818 0.87478 0.96698 0.04000
H 	H 	0.84709 0.76688 0.08900 0.03700
H 	H 	0.93557 0.83460 0.08699 0.03900
H 	H 	0.11000 0.78502 0.97797 0.03800
H 	H 	0.19897 0.72715 0.98392 0.03500
H 	H 	0.18400 0.90903 0.06142 0.03900
H 	H 	0.27593 0.85485 0.06371 0.03400
H 	H 	0.18486 0.15432 0.03444 0.03900
H 	H 	0.27366 0.22110 0.02973 0.03700
H 	H 	0.15350 0.17520 0.91142 0.03800
H 	H 	0.24288 0.24150 0.90661 0.03800
H 	H 	0.89556 0.96919 0.03370 0.03900
H 	H 	0.90435 0.07402 0.02145 0.04000
H 	H 	0.05694 0.20597 0.97003 0.04100
H 	H 	0.19096 0.05047 0.96822 0.03800
H 	H 	0.18258 0.94596 0.98178 0.03800
H 	H 	0.02963 0.81394 0.03175 0.04200
C 	C 	0.85367 0.96510 0.51753 -0.04300
C 	C 	0.85882 0.02594 0.51427 -0.04100
C 	C 	0.89684 0.93040 0.50086 0.00700
C 	C 	0.94872 0.95778 0.48497 -0.00900
C 	C 	0.95332 0.01909 0.48100 -0.00600
C 	C 	0.90641 0.05299 0.49341 0.00600
C 	C 	0.99612 0.92388 0.47337 0.00700
C 	C 	0.04482 0.95091 0.45368 -0.04300
C 	C 	0.00484 0.04644 0.46463 0.00600
C 	C 	0.90811 0.11342 0.48475 -0.00900
C 	C 	0.96174 0.14123 0.47249 -0.04600
C 	C 	0.01152 0.10834 0.46461 -0.00900
C 	C 	0.89007 0.86865 0.50062 -0.01000
C 	C 	0.93927 0.83562 0.49222 -0.04600
C 	C 	0.99335 0.86326 0.48114 -0.01000
C 	C 	0.85278 0.14588 0.48387 0.01300
C 	C 	0.80267 0.12237 0.46401 -0.04400
C 	C 	0.74796 0.14736 0.46854 -0.04000
C 	C 	0.74377 0.19904 0.49013 0.00400
C 	C 	0.79532 0.22649 0.50590 -0.03900
C 	C 	0.84914 0.19883 0.50418 -0.04600
C 	C 	0.07138 0.13855 0.46230 0.01200
C 	C 	0.11832 0.11863 0.48488 -0.04500
C 	C 	0.17405 0.14752 0.48347 -0.04200
C 	C 	0.08048 0.18956 0.43980 -0.04500
C 	C 	0.13470 0.22172 0.44159 -0.04100
C 	C 	0.18208 0.20054 0.46315 0.00500
C 	C 	0.83081 0.83847 0.50423 0.01200
C 	C 	0.82210 0.79119 0.53004 -0.04500
C 	C 	0.76914 0.75709 0.52914 -0.04100
C 	C 	0.72388 0.77108 0.50327 0.00500
C 	C 	0.73064 0.82107 0.47985 -0.04100
C 	C 	0.78462 0.85333 0.47919 -0.04600
C 	C 	0.04792 0.83068 0.48415 0.01200
C 	C 	0.05575 0.78181 0.46039 -0.04600
C 	C 	0.10555 0.74867 0.46522 -0.04100
C 	C 	0.14767 0.76406 0.49393 0.00500
C 	C 	0.14056 0.81369 0.51705 -0.04200
C 	C 	0.09046 0.84640 0.51258 -0.04500
C 	C 	0.04839 0.01154 0.44850 -0.04100
H 	H 	0.80561 0.08310 0.44662 0.04000
H 	H 	0.70883 0.12657 0.45531 0.03600
H 	H 	0.79362 0.26892 0.51961 0.03700
H 	H 	0.88776 0.21830 0.51878 0.03800
H 	H 	0.69459 0.83405 0.46147 0.03500
H 	H 	0.79082 0.88947 0.45898 0.03900
H 	H 	0.76362 0.71933 0.54805 0.03800
H 	H 	0.85701 0.77987 0.54994 0.03800
H 	H 	0.02311 0.76939 0.43839 0.03800
H 	H 	0.11144 0.71102 0.44672 0.03600
H 	H 	0.08449 0.88383 0.53127 0.04000
H 	H 	0.17356 0.82648 0.53874 0.03600
H 	H 	0.11152 0.08092 0.50370 0.04000
H 	H 	0.21026 0.13051 0.50005 0.03400
H 	H 	0.04507 0.20521 0.42188 0.03800
H 	H 	0.13982 0.26316 0.42642 0.03600
H 	H 	0.81673 0.94520 0.53365 0.04000
H 	H 	0.82607 0.05192 0.52827 0.03900
H 	H 	0.96486 0.18840 0.46944 0.04000
H 	H 	0.08486 0.03117 0.43182 0.03900
H 	H 	0.07927 0.92498 0.44160 0.04000
H 	H 	0.93570 0.78835 0.49474 0.04000
Ni	Ni	0.51451 0.54389 0.03392 1.09600
O 	O 	0.57792 0.48571 0.02215 -0.70500
Ni	Ni	0.57006 0.47787 0.96366 1.09700
O 	O 	0.52478 0.53842 0.09341 -0.35500
O 	O 	0.51708 0.43891 0.09461 -0.39300
O 	O 	0.57845 0.61156 0.03768 -0.37200
Ni	Ni	0.55784 0.40847 0.04480 1.06900
O 	O 	0.49691 0.66404 0.99765 -0.41400
O 	O 	0.47478 0.40375 0.02129 -0.41700
O 	O 	0.63554 0.42087 0.95630 -0.38000
O 	O 	0.50567 0.53546 0.97548 -0.70400
O 	O 	0.45024 0.60224 0.04119 -0.39300
O 	O 	0.56128 0.48375 0.90415 -0.34900
O 	O 	0.55925 0.58292 0.90094 -0.39300
Ni	Ni	0.52601 0.61325 0.95323 1.06400
H 	H 	0.61821 0.50012 0.02974 0.15500
H 	H 	0.46538 0.52082 0.96798 0.15500
C 	C 	0.46550 0.39625 0.98396 0.29100
O 	O 	0.61000 0.61433 0.97459 -0.42100
C 	C 	0.53237 0.48873 0.11160 0.25100
C 	C 	0.64025 0.37814 0.98155 0.28700
C 	C 	0.62079 0.62206 0.01182 0.28800
C 	C 	0.54444 0.53117 0.88650 0.25200
C 	C 	0.45033 0.64938 0.01933 0.29100
O 	O 	0.50820 0.40851 0.95872 -0.36800
O 	O 	0.59345 0.35948 0.00180 -0.40400
Ni	Ni	0.42878 0.53077 0.52863 1.10000
O 	O 	0.48530 0.46322 0.52945 -0.70100
Ni	Ni	0.48648 0.44170 0.47304 1.10000
O 	O 	0.43614 0.54108 0.58801 -0.35500
O 	O 	0.41124 0.44441 0.59842 -0.39800
O 	O 	0.50478 0.58198 0.52221 -0.39700
Ni	Ni	0.45647 0.39487 0.55827 1.06500
O 	O 	0.34953 0.59084 0.46086 -0.42300
O 	O 	0.38078 0.39001 0.52615 -0.42500
O 	O 	0.54945 0.38226 0.47769 -0.39100
O 	O 	0.42134 0.50019 0.47391 -0.70300
O 	O 	0.37736 0.60298 0.52556 -0.38000
O 	O 	0.49554 0.44210 0.41341 -0.36600
O 	O 	0.50589 0.54166 0.41321 -0.40800
Ni	Ni	0.42702 0.56630 0.43808 1.07000
H 	H 	0.52566 0.47573 0.53830 0.15700
H 	H 	0.38191 0.48001 0.47085 0.16000
C 	C 	0.38012 0.36293 0.49270 0.29800
O 	O 	0.47067 0.63074 0.46957 -0.41100
C 	C 	0.43250 0.49534 0.61141 0.24700
C 	C 	0.54391 0.33963 0.50357 0.28700
C 	C 	0.51289 0.62093 0.49454 0.30600
C 	C 	0.50849 0.49139 0.39487 0.24600
C 	C 	0.34623 0.61846 0.49460 0.29800
O 	O 	0.42360 0.37317 0.46766 -0.37800
O 	O 	0.49487 0.33200 0.52487 -0.41600
C 	C 	0.48873 0.51880 0.77076 0.09200
N 	N 	0.49048 0.47011 0.79326 -0.07700
N 	N 	0.50848 0.47408 0.83020 -0.06300
C 	C 	0.52511 0.52687 0.84572 0.03800
N 	N 	0.52283 0.57567 0.82335 -0.07100
N 	N 	0.50515 0.57166 0.78632 -0.07900
C 	C 	0.44258 0.50306 0.65337 0.03400
N 	N 	0.46386 0.55523 0.66771 -0.06500
N 	N 	0.47744 0.56068 0.70542 -0.07800
C 	C 	0.47044 0.51401 0.72974 0.09100
N 	N 	0.44851 0.46211 0.71545 -0.08000
N 	N 	0.43479 0.45672 0.67782 -0.07500
C 	C 	0.54252 0.48988 0.27555 0.09100
N 	N 	0.54373 0.54121 0.29543 -0.08000
N 	N 	0.53493 0.54152 0.33384 -0.07300
C 	C 	0.52457 0.49055 0.35346 0.03200
N 	N 	0.52470 0.43914 0.33374 -0.06500
N 	N 	0.53364 0.43881 0.29533 -0.07800
C 	C 	0.54059 0.48935 0.15404 0.03800
N 	N 	0.54160 0.43826 0.17409 -0.07100
N 	N 	0.54416 0.43849 0.21289 -0.07800
C 	C 	0.54599 0.48982 0.23277 0.09200
N 	N 	0.54656 0.54099 0.21267 -0.07800
N 	N 	0.54392 0.54075 0.17384 -0.06400
C 	C 	0.30194 0.66295 0.49903 -0.10300
C 	C 	0.29867 0.70946 0.47193 0.07300
C 	C 	0.24778 0.74207 0.47094 -0.08400
C 	C 	0.20167 0.73102 0.49753 0.00500
C 	C 	0.20715 0.68802 0.52679 0.00400
C 	C 	0.25741 0.65429 0.52719 -0.00900
H 	H 	0.24409 0.77635 0.44936 0.04800
H 	H 	0.26034 0.61916 0.54823 0.03600
C 	C 	0.35015 0.72705 0.44519 -0.11800
C 	C 	0.15792 0.67468 0.55594 -0.09500
C 	C 	0.38189 0.78475 0.45795 -0.01100
H 	H 	0.34968 0.81977 0.46069 0.02500
H 	H 	0.41438 0.79865 0.43503 0.02300
C 	C 	0.11299 0.62839 0.53986 -0.02400
H 	H 	0.13550 0.58705 0.53424 0.03000
H 	H 	0.09422 0.64354 0.51190 0.03200
H 	H 	0.38326 0.69316 0.44251 0.04700
H 	H 	0.13518 0.71493 0.56395 0.04900
C 	C 	0.41508 0.77882 0.49641 -0.16500
C 	C 	0.06217 0.61595 0.56848 -0.15700
H 	H 	0.44842 0.74494 0.49387 0.07300
H 	H 	0.43840 0.82119 0.50369 0.05600
H 	H 	0.38380 0.76705 0.52042 0.06600
H 	H 	0.33250 0.73300 0.41525 0.04500
H 	H 	0.07939 0.59963 0.59659 0.05700
H 	H 	0.03076 0.58206 0.55610 0.05500
H 	H 	0.03786 0.65627 0.57380 0.05700
H 	H 	0.17716 0.65824 0.58348 0.04600
C 	C 	0.66967 0.73288 0.50038 0.00500
C 	C 	0.66063 0.69346 0.46883 0.00600
C 	C 	0.60814 0.65830 0.46725 -0.01200
C 	C 	0.56495 0.66167 0.49629 -0.10900
C 	C 	0.57358 0.70141 0.52775 0.07900
C 	C 	0.62711 0.73524 0.52999 -0.08600
H 	H 	0.60195 0.62629 0.44412 0.03600
H 	H 	0.63633 0.76294 0.55503 0.05000
C 	C 	0.70895 0.68381 0.43886 -0.09600
C 	C 	0.52891 0.70298 0.56114 -0.12900
C 	C 	0.68953 0.69695 0.39688 -0.02400
H 	H 	0.64879 0.67039 0.38911 0.03600
H 	H 	0.72503 0.68399 0.37664 0.03000
C 	C 	0.52068 0.76474 0.57752 -0.01000
H 	H 	0.51537 0.79624 0.55327 0.02400
H 	H 	0.56008 0.77936 0.59496 0.02500
H 	H 	0.75099 0.70913 0.44506 0.05100
H 	H 	0.54383 0.67420 0.58494 0.06900
C 	C 	0.67890 0.76157 0.39028 -0.15500
C 	C 	0.46655 0.76600 0.60418 -0.16600
H 	H 	0.71990 0.78866 0.39649 0.05800
H 	H 	0.66639 0.76846 0.35937 0.05700
H 	H 	0.64220 0.77579 0.40905 0.06000
H 	H 	0.72018 0.63709 0.44030 0.04700
H 	H 	0.42547 0.75348 0.58781 0.06300
H 	H 	0.46252 0.81087 0.61589 0.05700
H 	H 	0.47125 0.73542 0.62903 0.06900
H 	H 	0.48464 0.68549 0.55145 0.07300
C 	C 	0.58455 0.29155 0.50100 -0.10700
C 	C 	0.60025 0.26822 0.46446 0.08700
C 	C 	0.65307 0.23887 0.46127 -0.08800
C 	C 	0.68568 0.22566 0.49470 0.00800
C 	C 	0.66233 0.23808 0.53206 0.00200
C 	C 	0.61319 0.27325 0.53477 -0.01200
H 	H 	0.66817 0.22526 0.43282 0.05100
H 	H 	0.59746 0.28655 0.56312 0.01900
C 	C 	0.55769 0.26750 0.43010 -0.12900
C 	C 	0.68528 0.20960 0.56869 -0.09600
C 	C 	0.51798 0.21108 0.42884 -0.00500
H 	H 	0.54522 0.17215 0.43205 0.02500
H 	H 	0.49610 0.20805 0.39982 0.02500
C 	C 	0.71615 0.25471 0.59600 -0.02400
H 	H 	0.68330 0.28516 0.60728 0.02500
H 	H 	0.75088 0.28096 0.58006 0.02900
H 	H 	0.52952 0.30582 0.42957 0.08100
H 	H 	0.71572 0.17432 0.56178 0.04900
C 	C 	0.46968 0.20958 0.46012 -0.16800
C 	C 	0.74485 0.22508 0.63061 -0.15800
H 	H 	0.44305 0.24900 0.45810 0.07800
H 	H 	0.43959 0.17034 0.45579 0.05600
H 	H 	0.48945 0.20707 0.48966 0.07000
H 	H 	0.58379 0.27038 0.40262 0.05900
H 	H 	0.71098 0.19901 0.64752 0.05500
H 	H 	0.76578 0.25885 0.65010 0.05500
H 	H 	0.77963 0.19597 0.62036 0.05700
H 	H 	0.64706 0.18798 0.58433 0.04400
C 	C 	0.23653 0.23807 0.46985 0.00400
C 	C 	0.27188 0.26051 0.43857 0.00500
C 	C 	0.31748 0.30290 0.44642 -0.01400
C 	C 	0.33431 0.31582 0.48500 -0.10400
C 	C 	0.30609 0.28412 0.51593 0.07000
C 	C 	0.25389 0.25074 0.50831 -0.08300
H 	H 	0.34155 0.32373 0.42243 0.03900
H 	H 	0.22865 0.23160 0.53240 0.04800
C 	C 	0.26784 0.23369 0.39813 -0.09600
C 	C 	0.33482 0.27897 0.55570 -0.10600
C 	C 	0.31710 0.19081 0.39108 -0.02300
H 	H 	0.36134 0.21293 0.39614 0.03100
H 	H 	0.31536 0.17682 0.36005 0.02700
C 	C 	0.30361 0.31547 0.58642 -0.03200
H 	H 	0.25702 0.29839 0.59003 0.03100
H 	H 	0.30257 0.36182 0.57700 0.04400
H 	H 	0.22430 0.21114 0.39214 0.04900
H 	H 	0.38302 0.29093 0.55470 0.02900
C 	C 	0.31053 0.13633 0.41680 -0.15600
C 	C 	0.33478 0.31308 0.62585 -0.14900
H 	H 	0.26572 0.11478 0.41332 0.05800
H 	H 	0.34410 0.10487 0.40818 0.05200
H 	H 	0.31791 0.14793 0.44792 0.05900
H 	H 	0.27259 0.26935 0.37618 0.04500
H 	H 	0.33389 0.26740 0.63686 0.05300
H 	H 	0.31174 0.34050 0.64722 0.06300
H 	H 	0.38154 0.32998 0.62331 0.03900
H 	H 	0.33170 0.23227 0.56483 0.04500
C 	C 	0.40122 0.68966 0.02195 -0.11300
C 	C 	0.37214 0.70076 0.05772 0.08100
C 	C 	0.31974 0.73150 0.05714 -0.08900
C 	C 	0.30054 0.75755 0.02268 0.00700
C 	C 	0.33506 0.75414 0.98839 -0.00100
C 	C 	0.38337 0.71790 0.98791 -0.01000
H 	H 	0.29498 0.73694 0.08388 0.04900
H 	H 	0.40779 0.71239 0.96104 0.01200
C 	C 	0.40003 0.68709 0.09684 -0.12100
C 	C 	0.32500 0.79377 0.95378 -0.09300
C 	C 	0.45804 0.72333 0.10440 -0.01400
H 	H 	0.49160 0.71447 0.08177 0.04600
H 	H 	0.47643 0.70967 0.13285 0.03500
C 	C 	0.35172 0.85564 0.96138 -0.02600
H 	H 	0.40049 0.85393 0.96526 0.02800
H 	H 	0.33279 0.87380 0.98845 0.03200
H 	H 	0.36874 0.69558 0.12103 0.05200
H 	H 	0.27716 0.79550 0.94691 0.04800
C 	C 	0.44879 0.78904 0.10592 -0.15800
C 	C 	0.33925 0.89683 0.92767 -0.15700
H 	H 	0.41433 0.79880 0.12778 0.05700
H 	H 	0.49095 0.81260 0.11438 0.05500
H 	H 	0.43531 0.80533 0.07689 0.06200
H 	H 	0.40803 0.63988 0.09927 0.07500
H 	H 	0.35842 0.88046 0.90015 0.05400
H 	H 	0.35966 0.94093 0.93393 0.05300
H 	H 	0.29072 0.90071 0.92397 0.05600
H 	H 	0.34588 0.77585 0.92723 0.04000
C 	C 	0.67425 0.65756 0.02340 -0.09700
C 	C 	0.73158 0.64171 0.01189 0.06900
C 	C 	0.77918 0.68351 0.01395 -0.08000
C 	C 	0.77132 0.73923 0.02961 0.00400
C 	C 	0.71523 0.75303 0.04455 0.00500
C 	C 	0.66715 0.71207 0.04110 -0.01100
H 	H 	0.82253 0.67255 0.00338 0.04800
H 	H 	0.62342 0.72389 0.05044 0.04300
C 	C 	0.74335 0.57984 0.99882 -0.11300
C 	C 	0.70488 0.81268 0.06174 -0.09500
C 	C 	0.78158 0.54759 0.02820 -0.02200
H 	H 	0.82396 0.57296 0.03361 0.02800
H 	H 	0.79286 0.50495 0.01532 0.02400
C 	C 	0.68575 0.85522 0.03008 -0.02500
H 	H 	0.64353 0.83834 0.01660 0.03000
H 	H 	0.72000 0.85922 0.00687 0.03200
H 	H 	0.70219 0.55277 0.99323 0.04000
H 	H 	0.74507 0.83081 0.07695 0.04900
C 	C 	0.74997 0.53579 0.06701 -0.15400
C 	C 	0.67661 0.91588 0.04688 -0.15700
H 	H 	0.70917 0.50771 0.06253 0.04000
H 	H 	0.77970 0.51255 0.08689 0.05400
H 	H 	0.73837 0.57736 0.08116 0.06400
H 	H 	0.76734 0.58244 0.97053 0.05100
H 	H 	0.64170 0.91354 0.06973 0.05400
H 	H 	0.66248 0.94542 0.02332 0.05400
H 	H 	0.71861 0.93449 0.05965 0.05600
H 	H 	0.66961 0.80839 0.08436 0.04600
C 	C 	0.79772 0.28016 0.98314 0.00200
C 	C 	0.77861 0.30603 0.94804 0.00800
C 	C 	0.72521 0.33503 0.94780 -0.01100
C 	C 	0.69493 0.34527 0.98268 -0.09800
C 	C 	0.71898 0.32654 0.01850 0.05900
C 	C 	0.76763 0.29070 0.01802 -0.07700
H 	H 	0.70861 0.35186 0.92055 0.04700
H 	H 	0.78353 0.27282 0.04515 0.04600
C 	C 	0.81772 0.30946 0.91200 -0.09600
C 	C 	0.69625 0.34765 0.05741 -0.10200
C 	C 	0.85084 0.36940 0.90817 -0.02300
H 	H 	0.81899 0.40495 0.90917 0.03200
H 	H 	0.87308 0.37167 0.87927 0.02700
C 	C 	0.65565 0.30064 0.07700 -0.04400
H 	H 	0.68098 0.26109 0.08286 0.03500
H 	H 	0.61801 0.28774 0.05748 0.02400
H 	H 	0.85010 0.27465 0.91078 0.05000
H 	H 	0.67304 0.38914 0.05438 -0.00200
C 	C 	0.89787 0.37992 0.93978 -0.15600
C 	C 	0.63102 0.32253 0.11551 -0.15200
H 	H 	0.92907 0.34384 0.94011 0.05900
H 	H 	0.92345 0.42155 0.93375 0.05400
H 	H 	0.87678 0.38347 0.96887 0.06000
H 	H 	0.78924 0.30250 0.88580 0.04600
H 	H 	0.66772 0.33400 0.13611 0.05900
H 	H 	0.60174 0.28770 0.12886 0.05600
H 	H 	0.60471 0.36160 0.11052 0.02000
H 	H 	0.73475 0.35815 0.07685 0.04400
C 	C 	0.31561 0.27871 0.96564 0.00400
C 	C 	0.37268 0.26322 0.95322 0.00800
C 	C 	0.42052 0.30472 0.95578 -0.01000
C 	C 	0.41274 0.36040 0.97153 -0.09500
C 	C 	0.35498 0.37724 0.98101 0.07000
C 	C 	0.30694 0.33614 0.97792 -0.08000
H 	H 	0.46450 0.29259 0.94722 0.04600
H 	H 	0.26272 0.34871 0.98557 0.04800
C 	C 	0.38359 0.20280 0.93715 -0.09700
C 	C 	0.34325 0.44009 0.99132 -0.11700
C 	C 	0.41989 0.16618 0.96517 -0.02200
H 	H 	0.46218 0.19017 0.97297 0.03100
H 	H 	0.43143 0.12538 0.94995 0.02500
C 	C 	0.33592 0.47673 0.95432 -0.02300
H 	H 	0.29769 0.45839 0.93707 0.03100
H 	H 	0.37640 0.47520 0.93597 0.02300
H 	H 	0.34214 0.17775 0.92915 0.04900
H 	H 	0.37933 0.45996 0.00967 0.04600
C 	C 	0.38608 0.14938 0.00238 -0.15700
C 	C 	0.32516 0.54046 0.96415 -0.15900
H 	H 	0.34316 0.12614 0.99521 0.05900
H 	H 	0.41279 0.11979 0.02014 0.05400
H 	H 	0.37807 0.18891 0.02001 0.06100
H 	H 	0.40891 0.20827 0.90949 0.04800
H 	H 	0.28379 0.54344 0.98140 0.05800
H 	H 	0.32063 0.56580 0.93679 0.04900
H 	H 	0.36293 0.56021 0.98108 0.04200
H 	H 	0.30217 0.44144 0.00914 0.05200
