data_crystal

_cell_length_a 16.34914
_cell_length_b 16.46621
_cell_length_c 35.39459
_cell_angle_alpha 89.87489
_cell_angle_beta  89.87802
_cell_angle_gamma 119.39966

_symmetry_space_group_name_	'P 1'
_symmetry_space_group_name_H-M	'P 1'

loop_
_symmetry_equiv_pos_as_xyz
  x,y,z

loop_
_atom_site_label
_atom_site_type_symbol
_atom_site_fract_x
_atom_site_fract_y
_atom_site_fract_z
_atom_site_charge
Ni	Ni	0.04542 0.91144 0.75503 1.13000
Ni	Ni	0.05712 0.11532 0.75696 1.13100
O 	O 	0.01290 0.17495 0.20986 -0.35300
O 	O 	0.06196 0.91001 0.29832 -0.35200
O 	O 	0.01242 0.18391 0.28982 -0.36500
O 	O 	0.00511 0.02874 0.26313 -0.72300
H 	H 	0.01527 0.04559 0.29002 0.16200
C 	C 	0.06521 0.49622 0.52511 -0.03900
C 	C 	0.07978 0.52081 0.48668 -0.08500
H 	H 	0.04517 0.48501 0.59852 0.11400
Br	Br	0.08381 0.26388 0.66565 -0.18800
C 	C 	0.01006 0.64418 0.01118 -0.02400
C 	C 	0.09800 0.66775 0.99690 -0.08400
C 	C 	0.10146 0.63525 0.96041 0.11100
H 	H 	0.00523 0.68037 0.03593 0.06900
Br	Br	0.07939 0.33296 0.78611 -0.20400
C 	C 	0.20103 0.06696 0.79506 0.25900
C 	C 	0.17410 0.08134 0.70647 0.28500
O 	O 	0.14053 0.97780 0.79692 -0.31700
O 	O 	0.17177 0.12993 0.78938 -0.32700
O 	O 	0.15432 0.99616 0.71650 -0.29700
O 	O 	0.10959 0.10403 0.70801 -0.36500
C 	C 	0.25202 0.84121 0.42014 0.31300
C 	C 	0.17735 0.56970 0.47411 0.29100
C 	C 	0.22005 0.59415 0.34077 0.31800
O 	O 	0.29672 0.83872 0.45209 -0.34800
O 	O 	0.25148 0.79635 0.38939 -0.37100
O 	O 	0.20132 0.55721 0.37473 -0.39100
O 	O 	0.22976 0.65166 0.48941 -0.36800
O 	O 	0.21545 0.52494 0.45562 -0.37100
H 	H 	0.25140 0.67709 0.41941 0.16600
C 	C 	0.19459 0.65876 0.14898 0.32800
C 	C 	0.14641 0.41407 0.07350 0.33300
C 	C 	0.16489 0.66920 0.02454 0.31400
Ni	Ni	0.31244 0.74993 0.08403 1.12300
O 	O 	0.22844 0.74743 0.04052 -0.37200
O 	O 	0.24066 0.61539 0.15888 -0.35000
O 	O 	0.19324 0.68078 0.11383 -0.37000
O 	O 	0.15856 0.47282 0.10017 -0.35800
O 	O 	0.19945 0.44451 0.04294 -0.37400
O 	O 	0.16228 0.59101 0.03218 -0.38200
C 	C 	0.05661 0.15311 0.18389 0.30500
C 	C 	0.10079 0.24384 0.28155 0.31000
C 	C 	0.08786 0.90133 0.21742 0.32000
C 	C 	0.12540 0.98710 0.31611 0.31400
Ni	Ni	0.13244 0.08992 0.24610 1.12400
O 	O 	0.15445 0.98429 0.22825 -0.32600
O 	O 	0.09279 0.09955 0.19255 -0.35300
O 	O 	0.16750 0.06981 0.29867 -0.36100
O 	O 	0.15129 0.22064 0.25864 -0.34200
C 	C 	0.06532 0.19037 0.14485 -0.04700
C 	C 	0.14839 0.22087 0.12317 0.11200
C 	C 	0.16443 0.27905 0.09180 -0.02900
C 	C 	0.10413 0.31507 0.08436 -0.10300
C 	C 	0.01452 0.27116 0.10113 0.16700
Br	Br	0.24409 0.19062 0.13679 -0.22500
C 	C 	0.04599 0.75421 0.18310 -0.02000
C 	C 	0.11072 0.82809 0.20555 -0.07900
C 	C 	0.19210 0.82649 0.21838 0.12700
C 	C 	0.21446 0.76080 0.20343 -0.03100
C 	C 	0.15438 0.69399 0.17744 -0.08400
C 	C 	0.06578 0.68533 0.17058 0.13800
C 	C 	0.25854 0.50329 0.29705 -0.04500
C 	C 	0.19303 0.52906 0.30908 -0.07300
C 	C 	0.09745 0.46732 0.30282 0.11900
C 	C 	0.06816 0.37523 0.29223 -0.00900
C 	C 	0.13410 0.34392 0.28858 -0.08400
C 	C 	0.23072 0.40955 0.29061 0.13100
Br	Br	0.00576 0.50565 0.31186 -0.20300
C 	C 	0.28827 0.99306 0.39394 0.06000
C 	C 	0.22510 0.91380 0.41472 -0.11000
C 	C 	0.12891 0.88480 0.41155 0.15300
C 	C 	0.09621 0.91386 0.38040 -0.05800
C 	C 	0.16014 0.97718 0.35389 -0.01000
C 	C 	0.25722 0.02210 0.36243 0.04400
Br	Br	0.04062 0.79481 0.44615 -0.21600
H 	H 	0.11229 0.47741 0.53934 0.05900
H 	H 	0.06186 0.53918 0.41378 0.11600
H 	H 	0.27326 0.35980 0.51843 0.10600
H 	H 	0.29009 0.47583 0.51570 0.10900
C 	C 	0.26838 0.11951 0.64758 -0.03200
C 	C 	0.25975 0.14322 0.68482 -0.05500
H 	H 	0.21641 0.05317 0.63602 0.07500
Br	Br	0.04774 0.72749 0.72153 -0.22900
N 	N 	0.18162 0.67799 0.93969 -0.20200
H 	H 	0.18596 0.65173 0.91336 0.10700
H 	H 	0.23914 0.73956 0.94920 0.11300
H 	H 	0.26693 0.32286 0.94436 0.10400
C 	C 	0.30526 0.11383 0.85117 -0.03500
C 	C 	0.29485 0.09654 0.81221 -0.04600
H 	H 	0.25100 0.11886 0.86692 0.07600
O 	O 	0.28565 0.68300 0.33524 -0.35300
O 	O 	0.31849 0.69613 0.41850 -0.71400
C 	C 	0.02359 0.55277 0.94715 -0.02800
N 	N 	0.31731 0.43057 0.51267 -0.20200
Br	Br	0.08011 0.81978 0.85798 -0.19000
Ni	Ni	0.30554 0.57790 0.40932 1.12200
H 	H 	0.02137 0.88402 0.37594 0.09300
Br	Br	0.32493 0.37178 0.29185 -0.19000
H 	H 	0.22949 0.30503 0.07620 0.07000
Br	Br	0.33758 0.16411 0.57120 -0.23400
Br	Br	0.34499 0.03531 0.74262 -0.21600
C 	C 	0.33989 0.18504 0.62434 0.13700
H 	H 	0.36617 0.37120 0.91290 0.11300
Br	Br	0.29063 0.28803 0.74008 -0.21200
H 	H 	0.33201 0.55279 0.29929 0.09700
C 	C 	0.31847 0.23711 0.69654 0.13000
N 	N 	0.33963 0.36104 0.94043 -0.20100
C 	C 	0.01739 0.54489 0.46869 0.13100
N 	N 	0.02030 0.55647 0.43063 -0.19500
C 	C 	0.36100 0.07716 0.79374 0.12100
Br	Br	0.39057 0.13580 0.92377 -0.24100
Br	Br	0.26772 0.90466 0.25888 -0.18100
H 	H 	0.34257 0.90370 0.99710 0.05700
H 	H 	0.37415 0.05938 0.01003 0.10000
H 	H 	0.28466 0.35262 0.01078 0.05900
C 	C 	0.38232 0.11792 0.87041 0.12600
H 	H 	0.28078 0.76481 0.21057 0.07800
H 	H 	0.30096 0.97943 0.50992 0.12600
H 	H 	0.34326 0.98457 0.55720 0.13000
Ni	Ni	0.29289 0.55771 0.11892 1.11900
Br	Br	0.35023 0.11667 0.33018 -0.18600
H 	H 	0.36294 0.02090 0.39757 0.02700
Ni	Ni	0.35368 0.74837 0.46667 1.11600
O 	O 	0.31783 0.63843 0.07737 -0.71100
N 	N 	0.35580 0.99055 0.52809 -0.18500
Ni	Ni	0.36078 0.78056 0.37589 1.12900
H 	H 	0.02878 0.52179 0.92091 0.06900
Ni	Ni	0.27847 0.58386 0.02867 1.12300
H 	H 	0.40265 0.00741 0.45603 0.07000
H 	H 	0.40123 0.32975 0.51221 0.07200
O 	O 	0.39848 0.77901 0.13096 -0.36200
O 	O 	0.40496 0.66610 0.49288 -0.35100
C 	C 	0.40922 0.46333 0.50386 0.11400
C 	C 	0.39451 0.29791 0.67399 -0.01900
C 	C 	0.39787 0.39948 0.97037 0.12900
O 	O 	0.34711 0.48221 0.08866 -0.35500
C 	C 	0.41271 0.26658 0.64025 -0.08000
C 	C 	0.36020 0.38866 0.00703 -0.05200
O 	O 	0.39564 0.61162 0.36480 -0.37000
H 	H 	0.38630 0.66561 0.07552 0.17800
O 	O 	0.42113 0.60465 0.43808 -0.39000
O 	O 	0.42159 0.65198 0.14024 -0.34800
O 	O 	0.35127 0.70744 0.99923 -0.37200
C 	C 	0.39034 0.50404 0.05482 0.30900
C 	C 	0.41294 0.79135 0.01284 0.30400
O 	O 	0.39127 0.56902 0.03305 -0.38100
C 	C 	0.41530 0.93170 0.98863 0.00900
C 	C 	0.00286 0.51321 0.54663 0.14200
C 	C 	0.41788 0.44227 0.03679 -0.08800
O 	O 	0.00005 0.88042 0.21948 -0.37400
O 	O 	0.42233 0.80879 0.04934 -0.38100
C 	C 	0.42498 0.60820 0.47452 0.31300
H 	H 	0.99408 0.32747 0.28802 0.05300
C 	C 	0.99529 0.20895 0.13130 -0.08400
C 	C 	0.43944 0.00564 0.51411 0.11000
C 	C 	0.44004 0.08648 0.81340 -0.02600
N 	N 	0.44576 0.08356 0.00584 -0.19000
C 	C 	0.45881 0.12291 0.84988 -0.07300
Br	Br	0.97373 0.58333 0.14134 -0.21900
H 	H 	0.98046 0.75071 0.17499 0.06500
N 	N 	0.99989 0.50319 0.58478 -0.21900
Br	Br	0.92174 0.30381 0.08601 -0.22200
H 	H 	0.73839 0.03591 0.48789 0.11100
O 	O 	0.98896 0.98492 0.76570 -0.70500
H 	H 	0.99657 0.99016 0.79335 0.16400
H 	H 	0.92826 0.18011 0.14579 0.08000
C 	C 	0.55078 0.20644 0.85642 0.28700
C 	C 	0.78873 0.55731 0.92256 0.30600
C 	C 	0.79350 0.37299 0.82692 0.32600
C 	C 	0.53435 0.40590 0.93864 0.31700
C 	C 	0.86591 0.41147 0.95952 0.31500
C 	C 	0.62461 0.16425 0.96197 0.29500
Ni	Ni	0.65940 0.40968 0.87221 1.12000
Ni	Ni	0.67638 0.36610 0.96276 1.12200
Ni	Ni	0.74748 0.28093 0.89848 1.11700
O 	O 	0.54994 0.28668 0.85530 -0.34500
O 	O 	0.63189 0.20135 0.86128 -0.34800
O 	O 	0.79281 0.37164 0.98065 -0.38800
O 	O 	0.78440 0.51489 0.89094 -0.37000
O 	O 	0.73728 0.51009 0.95267 -0.36600
O 	O 	0.69914 0.18585 0.94056 -0.38400
O 	O 	0.72017 0.38421 0.82379 -0.33700
O 	O 	0.82597 0.37622 0.85998 -0.39100
O 	O 	0.61330 0.23031 0.97883 -0.35600
O 	O 	0.58130 0.45198 0.90788 -0.35000
O 	O 	0.54697 0.34060 0.95224 -0.38400
O 	O 	0.86745 0.36982 0.92775 -0.35600
O 	O 	0.67714 0.33846 0.91103 -0.71500
H 	H 	0.61574 0.28290 0.91336 0.16500
C 	C 	0.83879 0.46430 0.53688 0.29600
C 	C 	0.53756 0.10176 0.56638 0.31300
C 	C 	0.58399 0.38725 0.52303 0.31800
C 	C 	0.78908 0.19627 0.58909 0.28800
C 	C 	0.50920 0.28773 0.63257 0.33100
C 	C 	0.76290 0.42466 0.66602 0.30300
Ni	Ni	0.68052 0.27190 0.53737 1.11400
Ni	Ni	0.65197 0.23202 0.62781 1.12800
Ni	Ni	0.68256 0.42589 0.59369 1.12200
O 	O 	0.80637 0.38060 0.52253 -0.38000
O 	O 	0.78135 0.49344 0.55117 -0.37000
O 	O 	0.52539 0.21763 0.63347 -0.36900
O 	O 	0.54691 0.17777 0.55252 -0.37700
O 	O 	0.58630 0.10842 0.59708 -0.35900
O 	O 	0.78143 0.46469 0.63264 -0.39500
O 	O 	0.62758 0.34723 0.50664 -0.35800
O 	O 	0.57281 0.38172 0.55914 -0.38600
O 	O 	0.70917 0.33172 0.67021 -0.33500
O 	O 	0.74418 0.19038 0.55614 -0.35400
O 	O 	0.76998 0.22678 0.62057 -0.37600
O 	O 	0.57972 0.37460 0.63370 -0.36900
O 	O 	0.69649 0.31992 0.58652 -0.71400
H 	H 	0.76482 0.34763 0.58974 0.16400
C 	C 	0.87360 0.77466 0.72022 0.31400
C 	C 	0.90140 0.82814 0.82083 0.28300
C 	C 	0.91353 0.06240 0.69699 0.26500
C 	C 	0.90227 0.11687 0.79385 0.30200
Ni	Ni	0.85383 0.92673 0.76085 1.12600
O 	O 	0.85922 0.97421 0.70747 -0.34000
O 	O 	0.95751 0.83974 0.71129 -0.35800
O 	O 	0.81904 0.79666 0.73999 -0.36500
O 	O 	0.98962 0.13605 0.79967 -0.37400
O 	O 	0.83648 0.03040 0.78539 -0.38700
O 	O 	0.95063 0.81184 0.79443 -0.33300
O 	O 	0.84934 0.86759 0.81181 -0.35600
O 	O 	0.96414 0.12606 0.72233 -0.35000
C 	C 	0.49588 0.91199 0.43309 0.29600
C 	C 	0.47471 0.69235 0.36240 0.32000
O 	O 	0.48523 0.83519 0.44674 -0.37100
O 	O 	0.44403 0.90623 0.40361 -0.34800
O 	O 	0.47561 0.77164 0.36723 -0.37300
C 	C 	0.45524 0.74304 0.13764 0.29800
C 	C 	0.82020 0.92811 0.31337 0.31300
C 	C 	0.80507 0.90376 0.21532 0.31700
Ni	Ni	0.92965 0.08156 0.25198 1.10300
Ni	Ni	0.94960 0.89767 0.26790 1.12100
O 	O 	0.82432 0.99740 0.29210 -0.33000
O 	O 	0.89101 0.91205 0.31520 -0.37600
O 	O 	0.86573 0.99013 0.20863 -0.35800
O 	O 	0.82234 0.85491 0.24086 -0.36700
C 	C 	0.69940 0.80576 0.16427 -0.02500
C 	C 	0.71395 0.86305 0.19556 -0.08200
C 	C 	0.65119 0.89802 0.20202 0.12600
C 	C 	0.56859 0.86424 0.18087 -0.02900
C 	C 	0.55198 0.80310 0.15085 -0.07100
C 	C 	0.62212 0.78089 0.14064 0.12800
Br	Br	0.61539 0.72079 0.09347 -0.22700
H 	H 	0.75095 0.78504 0.15699 0.07200
H 	H 	0.51669 0.88438 0.18829 0.08200
Br	Br	0.67930 0.99635 0.23736 -0.22800
C 	C 	0.65994 0.80092 0.30050 -0.03500
C 	C 	0.72876 0.85435 0.32711 -0.07200
C 	C 	0.71899 0.81983 0.36443 0.12500
C 	C 	0.63703 0.73773 0.37484 -0.02900
C 	C 	0.56167 0.69711 0.34947 -0.07800
C 	C 	0.58317 0.71641 0.31110 0.13000
Br	Br	0.51360 0.62671 0.27325 -0.20600
H 	H 	0.66912 0.82147 0.27129 0.08300
H 	H 	0.62590 0.71600 0.40421 0.07200
Br	Br	0.81275 0.88692 0.40196 -0.20800
C 	C 	0.58995 0.01703 0.52427 -0.04400
C 	C 	0.51523 0.02706 0.53853 -0.11400
C 	C 	0.45273 0.00501 0.47493 -0.10600
C 	C 	0.52318 0.98834 0.46083 -0.02500
C 	C 	0.59908 0.00766 0.48499 0.06500
N 	N 	0.67988 0.01576 0.47069 -0.19400
H 	H 	0.64487 0.02527 0.54305 0.07500
H 	H 	0.68689 0.00804 0.44176 0.10100
C 	C 	0.95450 0.56055 0.49056 -0.04100
C 	C 	0.93620 0.52955 0.52807 -0.10200
H 	H 	0.90762 0.58000 0.47659 0.06500
H 	H 	0.95408 0.51596 0.60108 0.10700
H 	H 	0.97750 0.57862 0.41743 0.10600
C 	C 	0.44663 0.40231 0.50478 -0.03600
C 	C 	0.54371 0.43620 0.50124 -0.09000
C 	C 	0.60201 0.53076 0.49094 0.11300
C 	C 	0.56406 0.59141 0.48878 -0.03600
C 	C 	0.46735 0.55799 0.49388 -0.08800
H 	H 	0.60883 0.66330 0.48017 0.06500
N 	N 	0.69423 0.56361 0.48275 -0.20100
H 	H 	0.72180 0.51852 0.48041 0.11300
H 	H 	0.73828 0.63427 0.47679 0.10900
C 	C 	0.93909 0.21307 0.61016 -0.02600
C 	C 	0.85219 0.15579 0.59292 -0.07800
C 	C 	0.81137 0.05955 0.60015 0.11400
C 	C 	0.82746 0.02987 0.63517 -0.08000
C 	C 	0.90188 0.09249 0.65817 -0.04600
C 	C 	0.96356 0.18311 0.64349 0.10800
H 	H 	0.98074 0.28501 0.60113 0.05700
H 	H 	0.78808 0.95669 0.64266 0.10700
Br	Br	0.77743 0.97474 0.55895 -0.19500
H 	H 	0.44122 0.36817 0.68345 0.08900
C 	C 	0.75367 0.60406 0.72120 -0.03500
C 	C 	0.84808 0.67395 0.71703 -0.07900
C 	C 	0.91675 0.64581 0.71147 0.12100
C 	C 	0.88795 0.55257 0.70217 -0.03300
C 	C 	0.79215 0.48708 0.69908 -0.06900
C 	C 	0.72736 0.51021 0.71483 0.12100
Br	Br	0.60528 0.41458 0.72972 -0.19300
H 	H 	0.70098 0.62219 0.72970 0.07500
H 	H 	0.94002 0.53321 0.69406 0.07100
C 	C 	0.94060 0.50913 0.96883 -0.09100
C 	C 	0.93261 0.55884 0.00092 0.10200
N 	N 	0.85601 0.52133 0.02397 -0.18700
H 	H 	0.78841 0.48919 0.01310 0.07400
H 	H 	0.86330 0.54039 0.05243 0.11100
C 	C 	0.60298 0.00353 0.96812 -0.09500
C 	C 	0.56812 0.06545 0.97500 -0.05500
C 	C 	0.47461 0.02856 0.98839 0.08200
C 	C 	0.45364 0.87207 0.98737 -0.11000
C 	C 	0.54639 0.90725 0.97430 0.17000
N 	N 	0.58188 0.84910 0.96811 -0.20700
H 	H 	0.67438 0.03017 0.95815 0.07100
H 	H 	0.65165 0.87557 0.95956 0.12000
H 	H 	0.53959 0.77690 0.97067 0.12300
H 	H 	0.49282 0.14173 0.02123 0.11400
C 	C 	0.55345 0.49118 0.99681 -0.03500
C 	C 	0.49634 0.44636 0.96529 -0.08700
C 	C 	0.51427 0.47657 0.03305 0.11700
N 	N 	0.57040 0.50381 0.06395 -0.19800
H 	H 	0.62881 0.52555 0.99403 0.06500
H 	H 	0.64316 0.53331 0.06114 0.10400
H 	H 	0.54147 0.49334 0.09108 0.11900
C 	C 	0.78446 0.17161 0.78362 -0.04400
C 	C 	0.87836 0.19419 0.79065 -0.07600
C 	C 	0.94749 0.29021 0.79225 0.11200
C 	C 	0.91882 0.35785 0.79477 -0.02700
C 	C 	0.82293 0.33097 0.79660 -0.09000
C 	C 	0.75889 0.24159 0.78384 0.12400
Br	Br	0.64587 0.22016 0.75962 -0.20100
H 	H 	0.73218 0.10079 0.77678 0.07000
H 	H 	0.97086 0.43006 0.79955 0.07400
H 	H 	0.49003 0.07194 0.79921 0.08100
C 	C 	0.92794 0.70634 0.90817 -0.02500
C 	C 	0.83423 0.65980 0.92066 -0.08500
C 	C 	0.77824 0.69929 0.91043 0.12800
C 	C 	0.80108 0.75583 0.87816 -0.04500
C 	C 	0.88566 0.78223 0.85868 -0.06000
C 	C 	0.95312 0.76383 0.87590 0.11100
H 	H 	0.97725 0.68716 0.91975 0.06200
H 	H 	0.75261 0.77802 0.86811 0.07900
Br	Br	0.67168 0.67777 0.93996 -0.22800
