data_crystal

_cell_length_a 18.97628
_cell_length_b 15.93920
_cell_length_c 41.89809
_cell_angle_alpha 90.84661
_cell_angle_beta  91.18350
_cell_angle_gamma 110.92794

_symmetry_space_group_name_	'P 1'
_symmetry_space_group_name_H-M	'P 1'

loop_
_symmetry_equiv_pos_as_xyz
  x,y,z

loop_
_atom_site_label
_atom_site_type_symbol
_atom_site_fract_x
_atom_site_fract_y
_atom_site_fract_z
_atom_site_charge
Ni	Ni	0.58582 0.21271 0.89990 1.10300
O 	O 	0.62877 0.33127 0.87681 -0.70200
Ni	Ni	0.72478 0.32392 0.86041 1.10600
O 	O 	0.49510 0.24377 0.91456 -0.34300
O 	O 	0.57363 0.37397 0.93871 -0.39300
O 	O 	0.53176 0.16290 0.85764 -0.38700
Ni	Ni	0.65381 0.43589 0.90509 1.07400
O 	O 	0.63310 0.02845 0.91050 -0.38900
O 	O 	0.72204 0.39385 0.93354 -0.40700
O 	O 	0.75599 0.43995 0.83554 -0.32400
O 	O 	0.68727 0.21210 0.88814 -0.70000
O 	O 	0.53951 0.08789 0.91919 -0.34500
O 	O 	0.80909 0.29005 0.83995 -0.34500
O 	O 	0.72943 0.14674 0.82807 -0.37000
Ni	Ni	0.67299 0.09332 0.86934 1.08100
H 	H 	0.59552 0.33559 0.85888 0.17400
H 	H 	0.71890 0.22081 0.90786 0.16000
C 	C 	0.78976 0.40201 0.92511 0.31200
O 	O 	0.56842 0.04460 0.84629 -0.37200
C 	C 	0.50518 0.31597 0.93248 0.29100
C 	C 	0.75101 0.51343 0.84889 0.30900
C 	C 	0.51502 0.07892 0.84896 0.35700
C 	C 	0.79822 0.20754 0.82996 0.32300
C 	C 	0.57685 0.03521 0.92744 0.30800
O 	O 	0.80438 0.39255 0.89504 -0.35900
O 	O 	0.74342 0.51789 0.88024 -0.39900
Ni	Ni	0.61826 0.42400 0.59256 1.10500
O 	O 	0.69343 0.43733 0.55680 -0.69900
Ni	Ni	0.76452 0.38440 0.57657 1.10300
O 	O 	0.57921 0.52078 0.57637 -0.34700
O 	O 	0.69936 0.61696 0.57146 -0.40200
O 	O 	0.53581 0.32866 0.56469 -0.34600
Ni	Ni	0.75229 0.55582 0.54134 1.08100
O 	O 	0.51638 0.24651 0.62180 -0.38100
O 	O 	0.85111 0.59646 0.56842 -0.35500
O 	O 	0.85218 0.42196 0.54467 -0.35700
O 	O 	0.68096 0.35653 0.60961 -0.69800
O 	O 	0.54434 0.39846 0.62880 -0.34900
O 	O 	0.81392 0.30679 0.60026 -0.35800
O 	O 	0.70327 0.18602 0.59961 -0.36700
Ni	Ni	0.61621 0.23074 0.61095 1.08700
H 	H 	0.66824 0.39936 0.53802 0.16300
H 	H 	0.70102 0.37949 0.63129 0.17400
C 	C 	0.85827 0.57214 0.59781 0.33900
O 	O 	0.59217 0.22374 0.56346 -0.40200
C 	C 	0.62670 0.59844 0.56716 0.30400
C 	C 	0.85325 0.46715 0.51812 0.31700
C 	C 	0.54527 0.25849 0.55109 0.30600
C 	C 	0.77317 0.22636 0.61037 0.32100
C 	C 	0.50944 0.31524 0.63804 0.32600
O 	O 	0.82155 0.48976 0.60683 -0.38700
O 	O 	0.79724 0.49351 0.50991 -0.40300
Ni	Ni	0.13804 0.05943 0.75299 1.10800
O 	O 	0.05867 0.06082 0.71996 -0.70300
Ni	Ni	0.96915 0.95801 0.73415 1.10600
O 	O 	0.21832 0.16603 0.73213 -0.32400
O 	O 	0.19753 0.08820 0.68432 -0.38000
O 	O 	0.09940 0.14424 0.77857 -0.36700
Ni	Ni	0.08063 0.03961 0.67624 1.08900
O 	O 	0.15294 0.92837 0.81430 -0.39400
O 	O 	0.08130 0.91398 0.68429 -0.40200
O 	O 	0.89343 0.98152 0.70402 -0.35600
O 	O 	0.05449 0.94172 0.76147 -0.70200
O 	O 	0.21297 0.06240 0.78925 -0.33300
O 	O 	0.88182 0.86471 0.75731 -0.34700
O 	O 	0.93340 0.91559 0.80654 -0.37900
Ni	Ni	0.04597 0.92874 0.80797 1.07800
H 	H 	0.04809 0.11723 0.72139 0.17500
H 	H 	0.06876 0.89242 0.75251 0.17400
C 	C 	0.01810 0.84557 0.68680 0.34000
O 	O 	0.07562 0.05943 0.82266 -0.36100
C 	C 	0.23473 0.16082 0.70185 0.32000
C 	C 	0.91640 0.01216 0.67542 0.32200
C 	C 	0.06096 0.11753 0.80447 0.33500
C 	C 	0.88472 0.85327 0.78824 0.32900
C 	C 	0.21503 0.98972 0.80336 0.32900
O 	O 	0.96342 0.85239 0.70412 -0.34400
O 	O 	0.96955 0.99023 0.66126 -0.36300
Ni	Ni	0.37610 0.81159 0.40849 1.10100
O 	O 	0.32981 0.68191 0.39187 -0.70300
Ni	Ni	0.24006 0.68592 0.36714 1.10900
O 	O 	0.46081 0.78428 0.43238 -0.35400
O 	O 	0.37254 0.67284 0.45890 -0.39600
O 	O 	0.43360 0.83211 0.36706 -0.37300
Ni	Ni	0.29539 0.59352 0.42478 1.07600
O 	O 	0.33480 0.00157 0.40505 -0.38800
O 	O 	0.22395 0.65050 0.44273 -0.40700
O 	O 	0.20832 0.55938 0.34819 -0.33200
O 	O 	0.27787 0.81017 0.38978 -0.69800
O 	O 	0.42564 0.94489 0.42112 -0.37500
O 	O 	0.16567 0.71247 0.33622 -0.34600
O 	O 	0.25032 0.84968 0.32401 -0.37000
Ni	Ni	0.30076 0.92069 0.36535 1.07900
H 	H 	0.36391 0.66561 0.37750 0.18900
H 	H 	0.24455 0.81176 0.40746 0.16000
C 	C 	0.15809 0.63527 0.42913 0.31200
O 	O 	0.41018 0.95585 0.34969 -0.37700
C 	C 	0.44356 0.71886 0.45299 0.29100
C 	C 	0.20899 0.49230 0.36629 0.32400
C 	C 	0.45406 0.90757 0.35163 0.35600
C 	C 	0.18014 0.79276 0.32455 0.33000
C 	C 	0.38715 0.99826 0.42585 0.29200
O 	O 	0.15110 0.63790 0.39791 -0.35800
O 	O 	0.21047 0.50076 0.39794 -0.40000
Ni	Ni	0.34929 0.59588 0.08330 1.10600
O 	O 	0.26129 0.58200 0.05220 -0.70100
Ni	Ni	0.19721 0.63098 0.07857 1.10200
O 	O 	0.38366 0.50223 0.06082 -0.34600
O 	O 	0.26362 0.40181 0.05880 -0.39800
O 	O 	0.42097 0.69333 0.05483 -0.34600
Ni	Ni	0.19850 0.46339 0.03575 1.08200
O 	O 	0.45821 0.77296 0.11328 -0.38500
O 	O 	0.11135 0.41963 0.06722 -0.35200
O 	O 	0.09828 0.59122 0.05108 -0.36200
O 	O 	0.29290 0.66091 0.10681 -0.70000
O 	O 	0.43569 0.62168 0.11558 -0.34700
O 	O 	0.15627 0.70601 0.10818 -0.35900
O 	O 	0.26371 0.82981 0.10406 -0.36900
Ni	Ni	0.35539 0.78766 0.10846 1.08600
H 	H 	0.27887 0.62140 0.03376 0.16500
H 	H 	0.28201 0.63770 0.12865 0.17500
C 	C 	0.11687 0.44098 0.09785 0.33400
O 	O 	0.36263 0.79541 0.06027 -0.40200
C 	C 	0.33457 0.42395 0.05121 0.30300
C 	C 	0.08992 0.55178 0.02237 0.32000
C 	C 	0.40718 0.76393 0.04465 0.30400
C 	C 	0.19861 0.78855 0.11755 0.31900
C 	C 	0.47018 0.70432 0.12686 0.32700
O 	O 	0.15424 0.52388 0.10786 -0.38600
O 	O 	0.14276 0.52678 0.01009 -0.40700
Ni	Ni	0.84148 0.94550 0.24776 1.10400
O 	O 	0.92708 0.96099 0.21745 -0.70000
Ni	Ni	0.00964 0.06466 0.23835 1.10400
O 	O 	0.77173 0.84079 0.22028 -0.33500
O 	O 	0.79098 0.93031 0.17668 -0.38600
O 	O 	0.88322 0.85990 0.27059 -0.36600
Ni	Ni	0.90839 0.98533 0.17347 1.09600
O 	O 	0.80748 0.05163 0.31279 -0.34000
O 	O 	0.90310 0.10782 0.18411 -0.39900
O 	O 	0.09303 0.05676 0.20988 -0.35300
O 	O 	0.91738 0.06420 0.26357 -0.69200
O 	O 	0.75922 0.92279 0.28101 -0.35000
O 	O 	0.08914 0.15392 0.26866 -0.34900
O 	O 	0.03210 0.08217 0.31284 -0.36500
Ni	Ni	0.91824 0.06296 0.31047 1.10000
H 	H 	0.94199 0.90749 0.21753 0.18400
H 	H 	0.90017 0.11264 0.25624 0.17800
C 	C 	0.96531 0.17677 0.18969 0.35100
O 	O 	0.89407 0.93017 0.31859 -0.35300
C 	C 	0.75427 0.85375 0.19068 0.32500
C 	C 	0.07354 0.02418 0.18042 0.32500
C 	C 	0.91610 0.88085 0.29879 0.33900
C 	C 	0.08133 0.15256 0.29980 0.31600
C 	C 	0.74913 0.98526 0.29957 0.31600
O 	O 	0.01085 0.17650 0.21375 -0.34100
O 	O 	0.02073 0.04302 0.16407 -0.36900
C 	C 	0.07325 0.39945 0.15348 -0.09000
C 	C 	0.07042 0.37497 0.12092 -0.11300
C 	C 	0.02415 0.28730 0.11081 0.33300
C 	C 	0.98469 0.22462 0.13320 -0.07200
C 	C 	0.99141 0.24790 0.16587 -0.12500
C 	C 	0.03388 0.33652 0.17575 0.34800
F 	F 	0.03847 0.36118 0.20711 -0.42400
H 	H 	0.10703 0.46691 0.16170 0.11100
H 	H 	0.95172 0.15659 0.12526 0.08500
F 	F 	0.01844 0.26199 0.07950 -0.43300
C 	C 	0.54452 0.75950 0.17692 -0.09000
C 	C 	0.53951 0.72332 0.14595 -0.11700
C 	C 	0.60434 0.71866 0.13166 0.35100
C 	C 	0.67456 0.75634 0.14734 -0.08700
C 	C 	0.68023 0.79787 0.17746 -0.11800
C 	C 	0.61461 0.79643 0.19273 0.35100
F 	F 	0.61946 0.83654 0.22192 -0.43600
H 	H 	0.49458 0.76278 0.18814 0.09700
H 	H 	0.72492 0.75660 0.13554 0.09900
F 	F 	0.59985 0.68280 0.10176 -0.42300
C 	C 	0.08756 0.82640 0.13385 -0.08500
C 	C 	0.16511 0.84245 0.13674 -0.11700
C 	C 	0.21150 0.91440 0.15632 0.34400
C 	C 	0.18122 0.97260 0.17122 -0.07900
C 	C 	0.10447 0.95920 0.16688 -0.13500
C 	C 	0.05727 0.88409 0.14893 0.33700
F 	F 	0.98194 0.86686 0.14620 -0.49100
H 	H 	0.05097 0.77050 0.11926 0.10800
H 	H 	0.21773 0.02907 0.18559 0.11900
F 	F 	0.28591 0.92815 0.16075 -0.45100
C 	C 	0.61195 0.88934 0.30228 -0.09100
C 	C 	0.67100 0.97084 0.31020 -0.09800
C 	C 	0.65501 0.03654 0.32859 0.33800
C 	C 	0.58233 0.01804 0.34043 -0.06800
C 	C 	0.52494 0.93457 0.33384 -0.13100
C 	C 	0.53960 0.87160 0.31386 0.36000
F 	F 	0.48403 0.79186 0.30634 -0.42400
H 	H 	0.62242 0.83853 0.28773 0.14400
H 	H 	0.57144 0.06745 0.35560 0.10200
F 	F 	0.70940 0.11785 0.33510 -0.42300
C 	C 	0.18409 0.30264 0.30712 -0.08100
C 	C 	0.12187 0.23414 0.31952 -0.12500
C 	C 	0.09416 0.24815 0.34934 0.33100
C 	C 	0.12528 0.33132 0.36529 -0.08500
C 	C 	0.18394 0.40146 0.35175 -0.12200
C 	C 	0.21466 0.38603 0.32303 0.34300
F 	F 	0.27347 0.45227 0.31032 -0.42800
H 	H 	0.20755 0.29208 0.28472 0.11700
H 	H 	0.10166 0.34234 0.38760 0.10400
F 	F 	0.03511 0.18270 0.36224 -0.46700
C 	C 	0.04181 0.87918 0.28313 -0.08400
C 	C 	0.98542 0.86215 0.30600 -0.13300
C 	C 	0.99644 0.82932 0.33586 0.36000
C 	C 	0.06184 0.81052 0.34230 -0.09900
C 	C 	0.11704 0.82464 0.31906 -0.13600
C 	C 	0.10742 0.86066 0.28964 0.34000
F 	F 	0.16040 0.87517 0.26701 -0.42900
H 	H 	0.03492 0.90704 0.26036 0.05000
H 	H 	0.06909 0.78342 0.36520 0.09200
F 	F 	0.94294 0.81335 0.35831 -0.42500
C 	C 	0.41196 0.06467 0.45112 -0.07000
C 	C 	0.43639 0.11726 0.47313 0.04500
C 	C 	0.46953 0.17379 0.49973 0.05200
C 	C 	0.50193 0.21638 0.52304 -0.07900
C 	C 	0.09195 0.59753 0.44770 -0.07600
C 	C 	0.03764 0.56431 0.46391 0.04900
C 	C 	0.97446 0.52607 0.48316 0.06700
C 	C 	0.91983 0.49633 0.49944 -0.07200
C 	C 	0.49955 0.71400 0.47547 -0.07600
C 	C 	0.53875 0.70069 0.49620 0.04100
C 	C 	0.57593 0.67466 0.52141 0.05300
C 	C 	0.60163 0.64402 0.54281 -0.10600
C 	C 	0.88580 0.18480 0.62161 -0.08300
C 	C 	0.81052 0.17331 0.62762 -0.12100
C 	C 	0.77003 0.10850 0.64937 0.34300
C 	C 	0.80416 0.05467 0.66443 -0.07900
C 	C 	0.87928 0.06563 0.65824 -0.12400
C 	C 	0.92022 0.13164 0.63691 0.33900
F 	F 	0.99391 0.14587 0.63164 -0.47000
H 	H 	0.91756 0.23449 0.60489 0.11000
H 	H 	0.77223 0.00458 0.68099 0.12000
F 	F 	0.69791 0.09858 0.65625 -0.45500
C 	C 	0.44309 0.26157 0.68850 -0.08700
C 	C 	0.44320 0.29712 0.65808 -0.11600
C 	C 	0.37612 0.30211 0.64499 0.35000
C 	C 	0.30834 0.26461 0.66096 -0.09100
C 	C 	0.30709 0.22256 0.69023 -0.11000
C 	C 	0.37542 0.22538 0.70474 0.34700
F 	F 	0.37563 0.18807 0.73363 -0.40700
H 	H 	0.49479 0.25858 0.69899 0.09500
H 	H 	0.25613 0.26391 0.64976 0.09400
F 	F 	0.37571 0.33783 0.61580 -0.42500
C 	C 	0.91285 0.61687 0.65297 -0.08900
C 	C 	0.91437 0.63553 0.62025 -0.11800
C 	C 	0.96695 0.71695 0.60960 0.34700
C 	C 	0.00981 0.78282 0.63179 -0.08700
C 	C 	0.00060 0.76814 0.66463 -0.13100
C 	C 	0.95643 0.68246 0.67500 0.35600
F 	F 	0.95107 0.66523 0.70668 -0.43400
H 	H 	0.87540 0.55304 0.66153 0.10900
H 	H 	0.04588 0.84769 0.62346 0.09100
F 	F 	0.97559 0.73309 0.57793 -0.43000
C 	C 	0.02001 0.52889 0.00498 -0.08700
C 	C 	0.96415 0.50324 0.98814 0.06500
C 	C 	0.90213 0.46862 0.96678 0.05100
C 	C 	0.85067 0.43770 0.94781 -0.08100
C 	C 	0.44833 0.81400 0.01851 -0.07400
C 	C 	0.48128 0.86051 0.99712 0.05200
C 	C 	0.51757 0.91895 0.97259 0.05300
C 	C 	0.54616 0.97118 0.95192 -0.06600
C 	C 	0.44813 0.31579 0.95432 -0.06600
C 	C 	0.40967 0.32613 0.97540 0.04200
C 	C 	0.37523 0.34980 0.00178 0.05700
C 	C 	0.35339 0.37911 0.02465 -0.10100
C 	C 	0.93651 0.12519 0.78740 -0.06900
C 	C 	0.99474 0.14299 0.81069 -0.13600
C 	C 	0.98720 0.17976 0.84052 0.36000
C 	C 	0.92258 0.19978 0.84680 -0.09300
C 	C 	0.86423 0.18179 0.82357 -0.11900
C 	C 	0.87127 0.14386 0.79386 0.34000
F 	F 	0.81570 0.12661 0.77108 -0.42300
H 	H 	0.94122 0.09550 0.76449 0.04400
H 	H 	0.91777 0.22913 0.86977 0.09400
F 	F 	0.04275 0.19702 0.86332 -0.43300
C 	C 	0.30415 0.97627 0.84579 -0.08000
C 	C 	0.28925 0.98757 0.81352 -0.12000
C 	C 	0.34860 0.01002 0.79195 0.35300
C 	C 	0.42311 0.03113 0.80321 -0.07700
C 	C 	0.43866 0.02891 0.83599 -0.11800
C 	C 	0.37855 0.99668 0.85699 0.33800
F 	F 	0.39258 0.99087 0.88861 -0.43400
H 	H 	0.25867 0.95693 0.86254 0.10200
H 	H 	0.46896 0.05423 0.78671 0.11200
F 	F 	0.33434 0.01447 0.76027 -0.41600
C 	C 	0.77533 0.67813 0.84603 -0.09600
C 	C 	0.77610 0.59872 0.83109 -0.11800
C 	C 	0.80465 0.60286 0.80008 0.34400
C 	C 	0.83696 0.68595 0.78556 -0.09300
C 	C 	0.84100 0.76555 0.80162 -0.13400
C 	C 	0.80818 0.76102 0.83154 0.34000
F 	F 	0.80847 0.83704 0.84669 -0.44200
H 	H 	0.75063 0.67592 0.86922 0.08900
H 	H 	0.86109 0.68867 0.76220 0.12400
F 	F 	0.80209 0.52701 0.78416 -0.41800
