data_crystal

_cell_length_a 16.49397
_cell_length_b 16.12115
_cell_length_c 34.00697
_cell_angle_alpha 90.97732
_cell_angle_beta  91.07939
_cell_angle_gamma 113.30273

_symmetry_space_group_name_	'P 1'
_symmetry_space_group_name_H-M	'P 1'

loop_
_symmetry_equiv_pos_as_xyz
  x,y,z

loop_
_atom_site_label
_atom_site_type_symbol
_atom_site_fract_x
_atom_site_fract_y
_atom_site_fract_z
_atom_site_charge
Ni	Ni	0.81362 0.38409 0.89558 1.10700
O 	O 	0.68996 0.30923 0.87323 -0.70200
Ni	Ni	0.61305 0.33256 0.91289 1.10600
O 	O 	0.87375 0.31368 0.86531 -0.31800
O 	O 	0.77393 0.18206 0.88820 -0.36600
O 	O 	0.83991 0.47228 0.84911 -0.32400
Ni	Ni	0.65372 0.17872 0.86727 1.09700
O 	O 	0.89491 0.58901 0.92381 -0.36300
O 	O 	0.58980 0.11571 0.91714 -0.35100
O 	O 	0.49132 0.23887 0.89458 -0.35100
O 	O 	0.73692 0.41948 0.93190 -0.69400
O 	O 	0.93164 0.46677 0.91990 -0.33000
O 	O 	0.55368 0.38601 0.95275 -0.34200
O 	O 	0.62916 0.52822 0.93058 -0.36900
Ni	Ni	0.76109 0.54783 0.92656 1.08300
H 	H 	0.68101 0.33380 0.84780 0.18600
H 	H 	0.74862 0.40733 0.95941 0.16100
C 	C 	0.57805 0.15591 0.94930 0.30000
O 	O 	0.74727 0.53903 0.86718 -0.37600
C 	C 	0.84640 0.22574 0.86902 0.35800
C 	C 	0.47549 0.18291 0.86361 0.39100
C 	C 	0.81244 0.53855 0.84598 0.39100
C 	C 	0.57776 0.47402 0.95657 0.28300
C 	C 	0.93608 0.54067 0.93859 0.30400
O 	O 	0.61893 0.24403 0.95445 -0.38400
O 	O 	0.53961 0.17513 0.84310 -0.37000
Ni	Ni	0.64278 0.21073 0.62636 1.10600
O 	O 	0.72110 0.33775 0.64690 -0.70100
Ni	Ni	0.70204 0.41518 0.60549 1.10500
O 	O 	0.71192 0.14800 0.65585 -0.32400
O 	O 	0.83655 0.24674 0.62889 -0.38100
O 	O 	0.55810 0.19014 0.67325 -0.32400
Ni	Ni	0.84811 0.37049 0.65209 1.09900
O 	O 	0.44277 0.13530 0.59763 -0.37600
O 	O 	0.90705 0.43693 0.60216 -0.35000
O 	O 	0.80015 0.53847 0.62092 -0.35300
O 	O 	0.61074 0.28974 0.58915 -0.69600
O 	O 	0.55674 0.09000 0.60396 -0.33200
O 	O 	0.65175 0.47604 0.56493 -0.35300
O 	O 	0.51413 0.40987 0.59044 -0.37500
Ni	Ni	0.48755 0.27267 0.59431 1.07800
H 	H 	0.69860 0.35064 0.67207 0.18600
H 	H 	0.62036 0.27538 0.56171 0.16300
C 	C 	0.86845 0.43020 0.56736 0.30600
O 	O 	0.49735 0.28775 0.65365 -0.37800
C 	C 	0.79675 0.17384 0.64920 0.35700
C 	C 	0.85218 0.55507 0.65285 0.40100
C 	C 	0.49432 0.22014 0.67513 0.38900
C 	C 	0.56734 0.46137 0.56414 0.28200
C 	C 	0.48822 0.09018 0.58368 0.29800
O 	O 	0.78180 0.39667 0.56340 -0.38200
O 	O 	0.85549 0.48958 0.67485 -0.36900
C 	C 	0.06879 0.98796 0.72027 -0.03600
H 	H 	0.07700 0.99682 0.68805 0.12500
C 	C 	0.04928 0.96540 0.79772 -0.03800
H 	H 	0.04179 0.95600 0.82995 0.12400
C 	C 	0.01180 0.03257 0.73950 0.10200
C 	C 	0.02442 0.88965 0.73299 0.11000
C 	C 	0.15524 0.02502 0.74493 0.09400
C 	C 	0.00336 0.02248 0.77942 0.10200
C 	C 	0.01352 0.87768 0.77264 0.11500
C 	C 	0.14477 0.01269 0.78454 0.09300
Ni	Ni	0.28629 0.66659 0.41491 1.10400
O 	O 	0.34970 0.80197 0.42678 -0.69800
Ni	Ni	0.30432 0.85334 0.38210 1.10800
O 	O 	0.34705 0.63856 0.46279 -0.35900
O 	O 	0.48366 0.72263 0.43924 -0.38000
O 	O 	0.18710 0.66961 0.44999 -0.38200
Ni	Ni	0.47790 0.84652 0.42608 1.07800
O 	O 	0.15305 0.54732 0.34493 -0.37700
O 	O 	0.47894 0.81318 0.36813 -0.38600
O 	O 	0.36163 0.98455 0.40021 -0.28800
O 	O 	0.25538 0.71942 0.36692 -0.70100
O 	O 	0.21564 0.53065 0.40413 -0.36700
O 	O 	0.22196 0.88300 0.34415 -0.33100
O 	O 	0.10280 0.77107 0.36975 -0.39000
Ni	Ni	0.12837 0.65790 0.35667 1.10400
H 	H 	0.33118 0.81889 0.45215 0.16800
H 	H 	0.28763 0.70910 0.34436 0.19000
C 	C 	0.47121 0.86660 0.34117 0.38500
O 	O 	0.06918 0.59835 0.40748 -0.33700
C 	C 	0.43359 0.66642 0.46520 0.28400
C 	C 	0.43519 0.00878 0.42141 0.24900
C 	C 	0.10316 0.61745 0.44349 0.30800
C 	C 	0.13604 0.84370 0.34859 0.39300
C 	C 	0.16258 0.49617 0.37303 0.41200
O 	O 	0.39971 0.88460 0.33916 -0.32000
O 	O 	0.49405 0.97513 0.41239 -0.33200
Ni	Ni	0.37054 0.75412 0.11553 1.10500
O 	O 	0.24674 0.66330 0.09811 -0.69300
Ni	Ni	0.16960 0.69354 0.13638 1.10600
O 	O 	0.43065 0.70365 0.07470 -0.33500
O 	O 	0.36158 0.56107 0.09726 -0.36700
O 	O 	0.36107 0.84051 0.07366 -0.37900
Ni	Ni	0.22903 0.53642 0.10317 1.08600
O 	O 	0.44355 0.92029 0.18122 -0.35200
O 	O 	0.24968 0.54933 0.16241 -0.36600
O 	O 	0.05129 0.60571 0.11412 -0.33500
O 	O 	0.29377 0.77526 0.15624 -0.69800
O 	O 	0.49180 0.85064 0.13237 -0.33300
O 	O 	0.10692 0.75854 0.16863 -0.32800
O 	O 	0.19702 0.89242 0.14361 -0.37500
Ni	Ni	0.32253 0.90517 0.16089 1.11000
H 	H 	0.23199 0.67456 0.07091 0.16200
H 	H 	0.30655 0.75373 0.18178 0.18600
C 	C 	0.18429 0.54352 0.18477 0.37700
O 	O 	0.37130 0.96604 0.10872 -0.35000
C 	C 	0.40979 0.61622 0.07081 0.28100
C 	C 	0.04925 0.53298 0.09525 0.29400
C 	C 	0.39617 0.92893 0.07907 0.29900
C 	C 	0.12904 0.84568 0.16470 0.39700
C 	C 	0.50645 0.91780 0.15832 0.37000
O 	O 	0.15188 0.60625 0.18292 -0.32200
O 	O 	0.09550 0.48894 0.10918 -0.37500
C 	C 	0.92819 0.11282 0.22640 -0.06200
H 	H 	0.94371 0.12295 0.19475 0.12700
C 	C 	0.89184 0.08839 0.30255 -0.06900
H 	H 	0.87643 0.07853 0.33424 0.12100
C 	C 	0.95325 0.04026 0.24594 0.09100
C 	C 	0.97362 0.19724 0.25281 0.10400
C 	C 	0.83047 0.08390 0.23594 0.09300
C 	C 	0.93473 0.02785 0.28507 0.07500
C 	C 	0.95637 0.18438 0.29209 0.12200
C 	C 	0.81096 0.06968 0.27506 0.12400
C 	C 	0.15506 0.38061 0.19853 0.29200
C 	C 	0.13500 0.45708 0.20548 -0.19400
C 	C 	0.06279 0.44799 0.22926 0.29800
C 	C 	0.00938 0.36333 0.24399 0.23000
C 	C 	0.02909 0.28727 0.23642 -0.08300
C 	C 	0.10173 0.29650 0.21337 0.25000
F 	F 	0.12094 0.22376 0.20522 -0.34300
F 	F 	0.22563 0.38719 0.17693 -0.38600
F 	F 	0.93748 0.35500 0.26498 -0.34100
F 	F 	0.04408 0.52081 0.23812 -0.37100
C 	C 	0.66921 0.95875 0.15632 0.33500
C 	C 	0.59806 0.98060 0.16739 -0.18800
C 	C 	0.61521 0.05912 0.19070 0.26500
C 	C 	0.69811 0.10352 0.20882 0.23100
C 	C 	0.76227 0.06762 0.20477 -0.08000
C 	C 	0.75176 0.00371 0.17456 0.19700
F 	F 	0.82140 0.98635 0.16249 -0.32600
F 	F 	0.65818 0.89346 0.12851 -0.36600
F 	F 	0.71491 0.17862 0.23170 -0.32900
F 	F 	0.55126 0.09091 0.19633 -0.38100
C 	C 	0.09049 0.02058 0.22763 0.16500
C 	C 	0.99835 0.99103 0.22439 -0.01000
C 	C 	0.94860 0.90948 0.20400 0.23200
C 	C 	0.99112 0.86099 0.18498 0.34100
C 	C 	0.08355 0.89273 0.18684 -0.24000
C 	C 	0.13296 0.97200 0.20877 0.36800
F 	F 	0.22210 0.00075 0.21252 -0.43300
F 	F 	0.13839 0.09380 0.25068 -0.30500
F 	F 	0.94254 0.78336 0.16462 -0.36000
F 	F 	0.85914 0.87417 0.20493 -0.28800
C 	C 	0.58782 0.01417 0.32141 0.25900
C 	C 	0.54952 0.91919 0.31781 -0.16700
C 	C 	0.59466 0.87444 0.29746 0.28100
C 	C 	0.67854 0.92367 0.28246 0.26800
C 	C 	0.71921 0.01791 0.28854 -0.13200
C 	C 	0.67332 0.06288 0.30802 0.26700
F 	F 	0.71164 0.15378 0.31413 -0.31600
F 	F 	0.54349 0.05917 0.33903 -0.36300
F 	F 	0.72072 0.87960 0.26252 -0.32700
F 	F 	0.55791 0.78311 0.29277 -0.36600
C 	C 	0.15749 0.35342 0.34495 0.31300
C 	C 	0.11801 0.39902 0.36797 -0.22100
C 	C 	0.02695 0.35863 0.37422 0.30800
C 	C 	0.97375 0.28404 0.35104 0.24500
C 	C 	0.01225 0.24829 0.32266 -0.06700
C 	C 	0.10477 0.27860 0.32193 0.24500
F 	F 	0.14314 0.23752 0.29788 -0.31600
F 	F 	0.24654 0.38794 0.34141 -0.37400
F 	F 	0.88462 0.25124 0.35393 -0.33900
F 	F 	0.98914 0.39798 0.39947 -0.39000
C 	C 	0.00012 0.83961 0.31426 0.30900
C 	C 	0.07885 0.88867 0.33566 -0.23100
C 	C 	0.09786 0.97804 0.34792 0.37000
C 	C 	0.04203 0.01998 0.33634 0.18300
C 	C 	0.97045 0.97504 0.31018 -0.02100
C 	C 	0.94483 0.88218 0.30251 0.21200
F 	F 	0.86741 0.83384 0.28306 -0.31200
F 	F 	0.97804 0.75125 0.30436 -0.38200
F 	F 	0.05473 0.10184 0.35212 -0.36100
F 	F 	0.16869 0.02310 0.37218 -0.40500
C 	C 	0.52670 0.10413 0.47553 -0.05800
C 	C 	0.44197 0.05228 0.46032 -0.07800
C 	C 	0.37146 0.01791 0.48654 0.07800
C 	C 	0.39009 0.01755 0.52685 -0.07300
C 	C 	0.47657 0.06225 0.54192 -0.10200
C 	C 	0.54651 0.10129 0.51551 0.09100
N 	N 	0.63242 0.13062 0.52784 -0.21200
H 	H 	0.58007 0.13503 0.45543 0.08400
H 	H 	0.33617 0.98960 0.54694 0.09800
N 	N 	0.28622 0.99045 0.47352 -0.18400
H 	H 	0.68255 0.17190 0.50998 0.10100
H 	H 	0.65092 0.10301 0.55214 0.09300
H 	H 	0.27053 0.01357 0.44716 0.12100
H 	H 	0.23454 0.95499 0.49194 0.10900
C 	C 	0.90997 0.54053 0.51302 -0.03000
C 	C 	0.92400 0.47172 0.53312 -0.07200
C 	C 	0.99853 0.45241 0.52416 0.13600
C 	C 	0.05998 0.50567 0.49701 -0.02400
C 	C 	0.04619 0.57473 0.47706 -0.06500
C 	C 	0.97072 0.59286 0.48538 0.13400
N 	N 	0.95737 0.66180 0.46783 -0.19500
H 	H 	0.85349 0.55599 0.52001 0.07400
H 	H 	0.11657 0.49038 0.49005 0.07700
N 	N 	0.00981 0.38099 0.54035 -0.19500
H 	H 	0.90048 0.67332 0.47327 0.12200
H 	H 	0.00440 0.70628 0.44968 0.12000
H 	H 	0.96076 0.33422 0.55693 0.13300
H 	H 	0.06650 0.36914 0.53485 0.12900
C 	C 	0.52181 0.65620 0.52309 -0.04100
C 	C 	0.47175 0.61517 0.48909 -0.07600
C 	C 	0.45601 0.52437 0.47901 0.13000
C 	C 	0.48703 0.47504 0.50435 -0.03900
C 	C 	0.53590 0.51555 0.53865 -0.08200
C 	C 	0.55385 0.60714 0.54820 0.13900
N 	N 	0.60050 0.64786 0.58158 -0.19800
H 	H 	0.53444 0.72604 0.53046 0.06100
H 	H 	0.47411 0.40509 0.49704 0.04800
N 	N 	0.41272 0.48479 0.44479 -0.19600
H 	H 	0.61417 0.71576 0.58809 0.14600
H 	H 	0.62277 0.61262 0.60158 0.15500
H 	H 	0.39508 0.52148 0.42375 0.13000
H 	H 	0.39888 0.41686 0.43828 0.13200
C 	C 	0.86332 0.02807 0.71850 0.21600
C 	C 	0.95577 0.06620 0.71544 -0.07300
C 	C 	0.99489 0.13411 0.68838 0.24000
C 	C 	0.94275 0.16555 0.66522 0.29000
C 	C 	0.85034 0.13140 0.66983 -0.20700
C 	C 	0.81091 0.06059 0.69599 0.30500
F 	F 	0.72186 0.02255 0.69940 -0.36200
F 	F 	0.82408 0.95833 0.74278 -0.29100
F 	F 	0.98220 0.22920 0.63824 -0.39400
F 	F 	0.08396 0.17065 0.68485 -0.34900
C 	C 	0.36789 0.21693 0.71600 0.30000
C 	C 	0.41300 0.16976 0.69728 -0.20800
C 	C 	0.37328 0.07463 0.69470 0.30700
C 	C 	0.28863 0.02782 0.70943 0.21400
C 	C 	0.24308 0.07522 0.72732 -0.07700
C 	C 	0.28321 0.16997 0.73061 0.23400
F 	F 	0.24000 0.21670 0.74777 -0.31100
F 	F 	0.40576 0.30842 0.71970 -0.36100
F 	F 	0.25091 0.93633 0.70622 -0.30300
F 	F 	0.41519 0.02759 0.67668 -0.36900
C 	C 	0.87019 0.71426 0.66313 0.30900
C 	C 	0.90601 0.64853 0.66477 -0.21700
C 	C 	0.99009 0.67046 0.68217 0.30800
C 	C 	0.03243 0.75281 0.70229 0.23300
C 	C 	0.99189 0.81436 0.70426 -0.08500
C 	C 	0.91388 0.79758 0.68240 0.24200
F 	F 	0.87750 0.85970 0.68200 -0.34300
F 	F 	0.79048 0.69527 0.64508 -0.38500
F 	F 	0.11016 0.77061 0.72194 -0.30600
F 	F 	0.02897 0.61032 0.68084 -0.37200
C 	C 	0.05309 0.55388 0.98668 -0.02500
C 	C 	0.97088 0.55748 0.97918 -0.08900
C 	C 	0.91294 0.54738 0.01065 0.09600
C 	C 	0.93225 0.51956 0.04710 -0.03000
C 	C 	0.01448 0.51600 0.05461 -0.09300
C 	C 	0.07236 0.52598 0.02312 0.09300
N 	N 	0.14356 0.50406 0.02704 -0.21100
H 	H 	0.09784 0.56232 0.96266 0.08100
H 	H 	0.88742 0.51098 0.07109 0.07700
N 	N 	0.84138 0.56871 0.00664 -0.20700
H 	H 	0.19220 0.52312 0.00583 0.08600
H 	H 	0.14532 0.45813 0.04789 0.04400
H 	H 	0.83771 0.61165 0.98477 0.04200
H 	H 	0.79402 0.55180 0.02840 0.09200
C 	C 	0.41203 0.96307 0.00728 -0.00600
C 	C 	0.44427 0.98773 0.04610 -0.05000
C 	C 	0.52042 0.06950 0.05314 0.10400
C 	C 	0.56233 0.12312 0.02120 -0.03800
C 	C 	0.52887 0.09928 0.98255 -0.06000
C 	C 	0.45074 0.01983 0.97575 0.08400
N 	N 	0.41007 0.99989 0.93964 -0.16300
H 	H 	0.35361 0.90170 0.00169 0.06400
H 	H 	0.62169 0.18365 0.02662 0.06600
N 	N 	0.55466 0.09649 0.09010 -0.19600
H 	H 	0.35663 0.93831 0.93415 0.13600
H 	H 	0.42607 0.04776 0.91782 0.12000
H 	H 	0.52332 0.06282 0.11477 0.12700
H 	H 	0.61278 0.15425 0.09457 0.12200
C 	C 	0.48453 0.55727 0.97334 -0.02600
C 	C 	0.53568 0.51056 0.98605 -0.07400
C 	C 	0.54728 0.50057 0.02683 0.11700
C 	C 	0.50587 0.53622 0.05403 -0.03100
C 	C 	0.45405 0.58223 0.04132 -0.07200
C 	C 	0.44237 0.59214 0.00054 0.11400
N 	N 	0.38921 0.63285 0.98725 -0.19300
H 	H 	0.47597 0.56492 0.94210 0.08900
H 	H 	0.51462 0.52873 0.08527 0.08900
N 	N 	0.59920 0.45844 0.04008 -0.19800
H 	H 	0.38241 0.64117 0.95712 0.12600
H 	H 	0.35239 0.65448 0.00639 0.09300
H 	H 	0.63437 0.43481 0.02088 0.08900
H 	H 	0.60629 0.45047 0.07022 0.11900
C 	C 	0.00056 0.17005 0.80203 0.25000
C 	C 	0.96701 0.07548 0.80417 -0.08000
C 	C 	0.89950 0.03125 0.83023 0.22300
C 	C 	0.86301 0.08044 0.85278 0.29500
C 	C 	0.89270 0.17492 0.84895 -0.19800
C 	C 	0.96357 0.21954 0.82408 0.29400
F 	F 	0.99672 0.31078 0.82119 -0.35100
F 	F 	0.06943 0.21416 0.77863 -0.31600
F 	F 	0.79881 0.03614 0.87832 -0.38700
F 	F 	0.86785 0.94005 0.83313 -0.32500
C 	C 	0.23946 0.12750 0.83326 0.23700
C 	C 	0.21925 0.04533 0.81279 -0.08500
C 	C 	0.27747 0.00157 0.81488 0.20800
C 	C 	0.35952 0.04427 0.83381 0.30300
C 	C 	0.38413 0.13159 0.85031 -0.22400
C 	C 	0.32228 0.17142 0.85147 0.30800
F 	F 	0.34427 0.25486 0.86818 -0.37000
F 	F 	0.18100 0.16759 0.83321 -0.34100
F 	F 	0.41619 0.00197 0.83530 -0.38900
F 	F 	0.25658 0.92017 0.79637 -0.28900
C 	C 	0.82050 0.66565 0.80248 0.30200
C 	C 	0.86401 0.61956 0.82316 -0.20500
C 	C 	0.95701 0.65728 0.82598 0.30500
C 	C 	0.00542 0.74134 0.80963 0.24100
C 	C 	0.96177 0.78812 0.78980 -0.08000
C 	C 	0.86910 0.74958 0.78604 0.24000
F 	F 	0.82601 0.79384 0.76686 -0.30900
F 	F 	0.73107 0.62944 0.79856 -0.36000
F 	F 	0.09482 0.77758 0.81334 -0.32000
F 	F 	0.00045 0.61420 0.84584 -0.36100
