data_crystal

_cell_length_a 26.73467
_cell_length_b 28.87521
_cell_length_c 30.16409
_cell_angle_alpha 60.71216
_cell_angle_beta  118.96819
_cell_angle_gamma 133.20698

_symmetry_space_group_name_	'P 1'
_symmetry_space_group_name_H-M	'P 1'

loop_
_symmetry_equiv_pos_as_xyz
  x,y,z

loop_
_atom_site_label
_atom_site_type_symbol
_atom_site_fract_x
_atom_site_fract_y
_atom_site_fract_z
_atom_site_charge
C 	C 	0.78075 0.35823 0.01470 0.04900
C 	C 	0.81276 0.42566 0.00306 -0.08700
C 	C 	0.79080 0.44659 0.01896 0.04500
C 	C 	0.73679 0.40029 0.04577 -0.08900
C 	C 	0.70432 0.33337 0.05680 0.04900
C 	C 	0.72718 0.31234 0.04222 -0.09100
H 	H 	0.85448 0.46135 0.98216 0.04800
H 	H 	0.71959 0.41643 0.05773 0.05300
H 	H 	0.70283 0.26047 0.05162 0.05200
C 	C 	0.75058 0.30668 0.54524 0.04500
C 	C 	0.77805 0.37102 0.53983 -0.09200
C 	C 	0.75060 0.38192 0.56036 0.04600
C 	C 	0.69481 0.32857 0.58502 -0.09000
C 	C 	0.66586 0.26438 0.58907 0.04600
C 	C 	0.69427 0.25341 0.56967 -0.09100
H 	H 	0.82020 0.41215 0.51966 0.04900
H 	H 	0.67224 0.33712 0.59944 0.05100
H 	H 	0.67215 0.20368 0.57295 0.04900
C 	C 	0.30732 0.65110 0.29919 0.04400
C 	C 	0.26263 0.58703 0.29303 -0.09000
C 	C 	0.28963 0.56326 0.28677 0.04500
C 	C 	0.35921 0.60520 0.28192 -0.08900
C 	C 	0.40567 0.66722 0.29204 0.04400
C 	C 	0.37960 0.69002 0.30105 -0.08900
H 	H 	0.20729 0.55608 0.29292 0.04900
H 	H 	0.37781 0.58854 0.27210 0.05100
H 	H 	0.41477 0.73839 0.30797 0.05200
C 	C 	0.21930 0.62344 0.75147 0.04400
C 	C 	0.28797 0.65708 0.74765 -0.09000
C 	C 	0.30080 0.63142 0.72825 0.04600
C 	C 	0.24411 0.57500 0.70962 -0.08900
C 	C 	0.17882 0.53633 0.72109 0.04500
C 	C 	0.16539 0.56160 0.74022 -0.09000
H 	H 	0.33087 0.70254 0.75981 0.05100
H 	H 	0.25311 0.55688 0.69211 0.05200
H 	H 	0.11372 0.53317 0.74683 0.04800
Co	Co	0.12076 0.00124 0.17571 1.18300
Co	Co	0.05281 0.04579 0.19996 1.18500
C 	C 	0.13771 0.89686 0.21301 0.31000
Co	Co	0.14213 0.96705 0.10125 1.16900
O 	O 	0.05173 0.17201 0.17702 -0.38300
C 	C 	0.10428 0.17122 0.21429 0.30100
O 	O 	0.11848 0.01889 0.23174 -0.45900
C 	C 	0.26144 0.08292 0.14630 0.30200
O 	O 	0.12287 0.13751 0.21668 -0.37900
O 	O 	0.22579 0.06366 0.10257 -0.38300
O 	O 	0.22935 0.06829 0.17852 -0.38400
O 	O 	0.98698 0.98098 0.25185 -0.37200
O 	O 	0.09241 0.98928 0.11662 -0.75800
C 	C 	0.83509 0.94288 0.16746 0.32300
O 	O 	0.17958 0.93726 0.18063 -0.41400
O 	O 	0.09879 0.90921 0.21336 -0.40300
O 	O 	0.10989 0.99419 0.01977 -0.36700
Co	Co	0.07173 0.97666 0.66352 1.18800
Co	Co	0.99589 0.01363 0.68654 1.18000
C 	C 	0.10334 0.87927 0.72016 0.31300
Co	Co	0.07575 0.90972 0.60472 1.17000
C 	C 	0.99170 0.12558 0.66897 0.28600
O 	O 	0.08562 0.02200 0.70703 -0.45700
C 	C 	0.19518 0.04334 0.61892 0.29800
O 	O 	0.03152 0.10841 0.67729 -0.36900
O 	O 	0.15196 0.00903 0.58351 -0.38100
O 	O 	0.17142 0.04717 0.64595 -0.38200
O 	O 	0.96956 0.95849 0.75843 -0.38700
O 	O 	0.03104 0.94147 0.61411 -0.76400
C 	C 	0.76135 0.85269 0.67758 0.29800
O 	O 	0.79264 0.85587 0.65175 -0.39300
O 	O 	0.13338 0.90796 0.68180 -0.41500
O 	O 	0.06804 0.89622 0.71947 -0.40300
O 	O 	0.01848 0.90439 0.52730 -0.39400
C 	C 	0.05232 0.02315 0.85525 0.09600
C 	C 	0.07397 0.03333 0.90455 0.09700
Br	Br	0.16657 0.10930 0.92485 -0.21000
Br	Br	0.11864 0.07959 0.81181 -0.22800
C 	C 	0.02953 0.97341 0.36855 0.08300
C 	C 	0.04182 0.97159 0.42029 0.09900
Br	Br	0.13396 0.99875 0.46656 -0.23300
Br	Br	0.09370 0.97822 0.35106 -0.22700
C 	C 	0.05428 0.38201 0.67601 -0.07500
C 	C 	0.08254 0.34745 0.71471 -0.01100
C 	C 	0.13186 0.36935 0.76047 0.04400
C 	C 	0.15376 0.42679 0.76587 -0.06300
C 	C 	0.13238 0.46569 0.72429 -0.03300
C 	C 	0.07887 0.44116 0.68049 0.05400
C 	C 	0.06246 0.28998 0.70598 0.00200
C 	C 	0.16627 0.33536 0.80110 -0.18500
H 	H 	0.19325 0.44492 0.80021 0.04100
C 	C 	0.05211 0.48034 0.63664 -0.18600
H 	H 	0.01507 0.36407 0.64153 0.04500
C 	C 	0.00816 0.22599 0.72666 0.04000
C 	C 	0.99055 0.17238 0.71808 -0.03100
C 	C 	0.02300 0.18188 0.68630 -0.08700
C 	C 	0.07699 0.24602 0.66518 0.09600
C 	C 	0.09725 0.29959 0.67611 -0.09000
C 	C 	0.96584 0.21496 0.75487 -0.18800
H 	H 	0.94871 0.12313 0.73386 0.04000
C 	C 	0.11174 0.25773 0.63003 -0.20200
H 	H 	0.13913 0.34894 0.66049 0.05000
H 	H 	0.00090 0.44917 0.61148 0.06100
H 	H 	0.09117 0.52074 0.61216 0.06500
H 	H 	0.04363 0.50140 0.65257 0.06300
H 	H 	0.19912 0.34079 0.78400 0.07300
H 	H 	0.12572 0.28246 0.81497 0.07600
H 	H 	0.20086 0.35647 0.83575 0.06600
H 	H 	0.92456 0.16198 0.76805 0.06500
H 	H 	0.93918 0.23947 0.72835 0.06200
H 	H 	0.00083 0.23514 0.78991 0.07200
H 	H 	0.15020 0.31089 0.61452 0.06600
H 	H 	0.07130 0.23616 0.59610 0.07100
H 	H 	0.14063 0.23512 0.65225 0.08500
C 	C 	0.56588 0.74510 0.65575 -0.09300
C 	C 	0.56200 0.72625 0.70727 0.00500
C 	C 	0.62068 0.73238 0.74901 0.03200
C 	C 	0.68324 0.76130 0.73786 -0.01400
C 	C 	0.69128 0.79265 0.68628 -0.10300
C 	C 	0.63064 0.77926 0.64479 0.09500
C 	C 	0.49830 0.70442 0.71680 -0.01100
C 	C 	0.61797 0.71072 0.80509 -0.17900
H 	H 	0.72848 0.76636 0.76963 0.05800
C 	C 	0.63590 0.80609 0.58883 -0.20900
H 	H 	0.51967 0.73693 0.62396 0.05000
C 	C 	0.48121 0.74836 0.69961 0.04500
C 	C 	0.41720 0.72461 0.70496 -0.06200
C 	C 	0.37389 0.65954 0.73181 -0.03100
C 	C 	0.39710 0.61902 0.75596 0.05500
C 	C 	0.45528 0.63970 0.74414 -0.07400
C 	C 	0.52963 0.81981 0.67425 -0.18200
H 	H 	0.40058 0.75640 0.68745 0.04200
C 	C 	0.35969 0.55351 0.79363 -0.18700
H 	H 	0.46825 0.60594 0.75754 0.04500
H 	H 	0.58297 0.78177 0.56208 0.07000
H 	H 	0.66776 0.79748 0.58452 0.08100
H 	H 	0.66097 0.85952 0.57664 0.07800
H 	H 	0.58419 0.65639 0.81782 0.06400
H 	H 	0.59684 0.73024 0.80942 0.07300
H 	H 	0.67129 0.72889 0.83181 0.08100
H 	H 	0.51750 0.84961 0.67445 0.06300
H 	H 	0.52326 0.82558 0.63306 0.06500
H 	H 	0.58554 0.83975 0.69572 0.06900
H 	H 	0.31854 0.51428 0.77222 0.06500
H 	H 	0.33500 0.55342 0.81457 0.06600
H 	H 	0.39765 0.54214 0.82376 0.06300
C 	C 	0.18743 0.79542 0.80714 -0.09900
C 	C 	0.13635 0.73813 0.78909 0.01000
C 	C 	0.06557 0.71731 0.76863 0.02300
C 	C 	0.05072 0.76138 0.75534 -0.01400
C 	C 	0.10594 0.82532 0.76172 -0.11600
C 	C 	0.17196 0.83875 0.79451 0.10300
C 	C 	0.15979 0.71010 0.78006 -0.01400
C 	C 	0.00761 0.65204 0.75488 -0.17000
H 	H 	0.99807 0.74872 0.73424 0.04400
C 	C 	0.22890 0.90288 0.81005 -0.20900
H 	H 	0.24080 0.80931 0.82642 0.05100
C 	C 	0.17590 0.73314 0.73197 0.04600
C 	C 	0.19644 0.70496 0.72370 -0.06300
C 	C 	0.20257 0.65521 0.76301 -0.03100
C 	C 	0.18978 0.63434 0.81202 0.05200
C 	C 	0.16746 0.66139 0.81988 -0.07300
C 	C 	0.17084 0.78745 0.68931 -0.18300
H 	H 	0.20698 0.72126 0.68637 0.04400
C 	C 	0.19828 0.58240 0.85547 -0.18500
H 	H 	0.15589 0.64443 0.85691 0.04400
H 	H 	0.26160 0.93961 0.78077 0.07500
H 	H 	0.26343 0.89658 0.84896 0.06900
H 	H 	0.20565 0.92157 0.81272 0.08100
H 	H 	0.01643 0.61422 0.78399 0.06100
H 	H 	0.00589 0.65662 0.71549 0.06300
H 	H 	0.18782 0.80148 0.65500 0.06200
H 	H 	0.20537 0.83180 0.70412 0.06600
H 	H 	0.11547 0.77136 0.67573 0.06500
H 	H 	0.24919 0.59354 0.86018 0.06500
H 	H 	0.15414 0.53380 0.84639 0.06300
H 	H 	0.19824 0.57970 0.89348 0.06100
C 	C 	0.15942 0.26265 0.30111 -0.09900
C 	C 	0.19809 0.32691 0.27135 0.01100
C 	C 	0.22551 0.33979 0.23350 0.02100
C 	C 	0.20032 0.28712 0.21795 -0.00800
C 	C 	0.15381 0.22232 0.24338 -0.10900
C 	C 	0.14094 0.21067 0.28926 0.10600
C 	C 	0.20834 0.37988 0.27938 -0.01300
C 	C 	0.28043 0.40890 0.20927 -0.17000
H 	H 	0.21395 0.29658 0.18450 0.04000
C 	C 	0.10568 0.14307 0.32472 -0.22200
H 	H 	0.14293 0.25297 0.33299 0.05600
C 	C 	0.17625 0.41156 0.24026 0.04500
C 	C 	0.19912 0.47026 0.24434 -0.06300
C 	C 	0.24750 0.49318 0.28945 -0.03200
C 	C 	0.26667 0.45315 0.33293 0.05300
C 	C 	0.25053 0.39890 0.32659 -0.07400
C 	C 	0.11831 0.38350 0.19434 -0.18200
H 	H 	0.18122 0.49910 0.21184 0.04200
C 	C 	0.30764 0.47007 0.38515 -0.18500
H 	H 	0.27138 0.37197 0.35813 0.04500
H 	H 	0.04879 0.12031 0.31631 0.09500
H 	H 	0.12982 0.14557 0.36628 0.08700
H 	H 	0.11220 0.11196 0.31979 0.09800
H 	H 	0.31715 0.43936 0.23813 0.06300
H 	H 	0.25459 0.43141 0.17524 0.06000
H 	H 	0.31269 0.40935 0.19567 0.06100
H 	H 	0.08413 0.39996 0.17818 0.06000
H 	H 	0.08390 0.32907 0.20625 0.06900
H 	H 	0.14137 0.39987 0.16295 0.06300
H 	H 	0.29423 0.42488 0.41745 0.06100
H 	H 	0.29505 0.49603 0.39089 0.06400
H 	H 	0.36497 0.50156 0.38777 0.06100
C 	C 	0.64839 0.81678 0.18403 -0.09600
C 	C 	0.66158 0.80339 0.23843 0.00900
C 	C 	0.73016 0.82220 0.26959 0.03800
C 	C 	0.78546 0.86064 0.24505 -0.00700
C 	C 	0.77421 0.88464 0.19063 -0.10900
C 	C 	0.70437 0.85779 0.15971 0.10500
C 	C 	0.60483 0.77471 0.26152 -0.01100
C 	C 	0.74489 0.80201 0.32856 -0.17800
H 	H 	0.83808 0.87526 0.26848 0.05100
C 	C 	0.68817 0.86983 0.10141 -0.20700
H 	H 	0.59486 0.79773 0.16040 0.05100
C 	C 	0.57512 0.80774 0.24637 0.05100
C 	C 	0.51080 0.77321 0.25815 -0.06300
C 	C 	0.48101 0.70932 0.29063 -0.02900
C 	C 	0.51958 0.68257 0.31464 0.05500
C 	C 	0.57638 0.71195 0.29558 -0.07300
C 	C 	0.60990 0.87852 0.21591 -0.18800
H 	H 	0.48320 0.79540 0.24092 0.04300
C 	C 	0.50089 0.62330 0.36038 -0.18600
H 	H 	0.59842 0.68603 0.30738 0.04400
H 	H 	0.66241 0.89522 0.08128 0.07000
H 	H 	0.65109 0.82212 0.09091 0.07200
H 	H 	0.73562 0.89945 0.08661 0.07900
H 	H 	0.72059 0.74872 0.34267 0.06300
H 	H 	0.72389 0.81376 0.34244 0.08800
H 	H 	0.80239 0.82792 0.34662 0.08100
H 	H 	0.59411 0.90194 0.22149 0.07000
H 	H 	0.59392 0.88160 0.17361 0.06800
H 	H 	0.66831 0.90690 0.22933 0.08600
H 	H 	0.46762 0.57853 0.34651 0.06100
H 	H 	0.47261 0.61808 0.38179 0.06500
H 	H 	0.54957 0.62799 0.38857 0.06200
C 	C 	0.21241 0.80452 0.31075 -0.09900
C 	C 	0.17655 0.75633 0.28506 0.01000
C 	C 	0.11172 0.74064 0.24825 0.02200
C 	C 	0.09224 0.78271 0.22947 -0.01500
C 	C 	0.13539 0.83824 0.24873 -0.11300
C 	C 	0.19069 0.84435 0.29381 0.10300
C 	C 	0.21283 0.73129 0.28992 -0.01400
C 	C 	0.06642 0.68270 0.22570 -0.17000
H 	H 	0.04721 0.77553 0.19678 0.04000
C 	C 	0.22834 0.89431 0.32303 -0.21000
H 	H 	0.25944 0.81356 0.34182 0.05300
C 	C 	0.24957 0.75946 0.25226 0.04500
C 	C 	0.27943 0.73219 0.25566 -0.06300
C 	C 	0.27726 0.68005 0.29791 -0.03000
C 	C 	0.24571 0.65553 0.33797 0.05200
C 	C 	0.21172 0.68000 0.33274 -0.07300
C 	C 	0.25654 0.81818 0.20817 -0.18100
H 	H 	0.30453 0.75161 0.22538 0.04300
C 	C 	0.24712 0.60287 0.38582 -0.18500
H 	H 	0.18477 0.65939 0.36215 0.04500
H 	H 	0.23019 0.87022 0.36536 0.07500
H 	H 	0.20138 0.91729 0.30961 0.08500
H 	H 	0.28325 0.93309 0.31806 0.07100
H 	H 	0.06573 0.64033 0.25649 0.06200
H 	H 	0.08728 0.69591 0.19412 0.05900
H 	H 	0.01099 0.66695 0.20921 0.05800
H 	H 	0.29449 0.83949 0.18640 0.06100
H 	H 	0.27620 0.85720 0.22373 0.06700
H 	H 	0.20456 0.80364 0.18021 0.06300
H 	H 	0.29963 0.61240 0.40004 0.06500
H 	H 	0.20590 0.55432 0.37640 0.06200
H 	H 	0.23689 0.60117 0.41835 0.06100
C 	C 	0.76833 0.25409 0.46489 -0.07400
C 	C 	0.80396 0.22681 0.50481 -0.01400
C 	C 	0.83896 0.24310 0.55356 0.04300
C 	C 	0.82815 0.27751 0.56415 -0.06300
C 	C 	0.78213 0.29451 0.52717 -0.03300
C 	C 	0.75622 0.28724 0.47592 0.05300
C 	C 	0.79286 0.17204 0.49914 0.01000
C 	C 	0.88434 0.22065 0.59532 -0.18100
H 	H 	0.85114 0.28656 0.60259 0.03900
C 	C 	0.71068 0.30950 0.43438 -0.18600
H 	H 	0.74475 0.24451 0.42662 0.04300
C 	C 	0.73047 0.10788 0.50763 0.01900
C 	C 	0.73001 0.05415 0.51970 -0.01500
C 	C 	0.66621 0.09638 0.50755 -0.16900
H 	H 	0.68376 0.00474 0.52937 0.03200
H 	H 	0.70344 0.30929 0.39495 0.06100
H 	H 	0.73563 0.36034 0.43323 0.06500
H 	H 	0.65794 0.27629 0.44294 0.06500
H 	H 	0.92774 0.23990 0.58046 0.06900
H 	H 	0.85201 0.16624 0.60737 0.06800
H 	H 	0.90880 0.23869 0.63055 0.06200
H 	H 	0.62159 0.04345 0.51416 0.05500
H 	H 	0.64816 0.12208 0.46918 0.06000
H 	H 	0.67890 0.11473 0.53906 0.06100
C 	C 	0.85907 0.54583 0.58789 -0.07100
C 	C 	0.80745 0.55702 0.56627 -0.01400
C 	C 	0.74166 0.51631 0.53540 0.04400
C 	C 	0.72905 0.46540 0.52660 -0.06200
C 	C 	0.77693 0.44898 0.55378 -0.03200
C 	C 	0.84337 0.49051 0.58378 0.05200
C 	C 	0.82334 0.61219 0.57551 0.01200
C 	C 	0.68440 0.52613 0.51250 -0.18100
H 	H 	0.67901 0.43463 0.50228 0.04300
C 	C 	0.83480 0.61260 0.62633 0.01700
C 	C 	0.81921 0.55236 0.67100 -0.16800
H 	H 	0.87383 0.42523 0.63767 0.06300
H 	H 	0.69655 0.56858 0.47783 0.06200
H 	H 	0.67963 0.53475 0.54190 0.06500
H 	H 	0.63213 0.48220 0.49998 0.06000
H 	H 	0.81305 0.55499 0.70341 0.05700
H 	H 	0.76920 0.50759 0.65799 0.06100
C 	C 	0.53322 0.16965 0.66616 -0.07400
C 	C 	0.47073 0.14341 0.62763 -0.01300
C 	C 	0.47211 0.14215 0.58201 0.04500
C 	C 	0.53729 0.17656 0.57187 -0.06300
C 	C 	0.60043 0.20941 0.60785 -0.03200
C 	C 	0.59783 0.19973 0.65758 0.05200
C 	C 	0.40532 0.12231 0.63321 0.00800
C 	C 	0.40471 0.10818 0.54248 -0.18400
H 	H 	0.53906 0.18151 0.53453 0.04200
C 	C 	0.66417 0.22531 0.70021 -0.18500
H 	H 	0.53179 0.16811 0.70220 0.04300
C 	C 	0.36355 0.06035 0.66497 0.02800
C 	C 	0.29720 0.03799 0.66392 -0.03100
C 	C 	0.27105 0.07549 0.63025 -0.10500
C 	C 	0.31484 0.13939 0.60145 0.10500
C 	C 	0.38207 0.16255 0.60343 -0.09500
C 	C 	0.38816 0.01683 0.69827 -0.18300
H 	H 	0.26431 0.98981 0.68718 0.04500
C 	C 	0.28855 0.18132 0.56620 -0.20800
H 	H 	0.41507 0.21074 0.57996 0.05200
H 	H 	0.70312 0.22410 0.69732 0.06400
H 	H 	0.65228 0.19466 0.73935 0.06000
H 	H 	0.68798 0.27646 0.69720 0.06200
H 	H 	0.38516 0.13907 0.51882 0.07400
H 	H 	0.36369 0.05984 0.56240 0.07200
H 	H 	0.41318 0.09920 0.51569 0.06600
H 	H 	0.34824 0.96902 0.71952 0.06500
H 	H 	0.43753 0.04119 0.72776 0.06200
H 	H 	0.39798 0.00670 0.67331 0.06200
H 	H 	0.26422 0.18133 0.58736 0.07900
H 	H 	0.24867 0.16183 0.53129 0.08300
H 	H 	0.33222 0.23301 0.55284 0.06800
C 	C 	0.86618 0.29057 0.02171 -0.07000
C 	C 	0.82221 0.26280 0.97851 -0.01600
C 	C 	0.77189 0.27558 0.94263 0.04100
C 	C 	0.76198 0.31094 0.95315 -0.06000
C 	C 	0.80293 0.33508 0.99821 -0.03900
C 	C 	0.85753 0.32733 0.03150 0.05700
C 	C 	0.82507 0.21555 0.97409 0.00900
C 	C 	0.72633 0.24896 0.89459 -0.17900
H 	H 	0.72054 0.31747 0.92735 0.04000
C 	C 	0.90400 0.35496 0.07907 -0.18600
C 	C 	0.88335 0.23744 0.96080 0.02100
C 	C 	0.79176 0.10429 0.00629 0.09700
C 	C 	0.77638 0.14810 0.99260 -0.09900
H 	H 	0.72905 0.13031 0.99972 0.04900
H 	H 	0.87260 0.32774 0.10825 0.06600
H 	H 	0.68529 0.19546 0.90587 0.06100
H 	H 	0.75891 0.25778 0.87475 0.06100
H 	H 	0.69968 0.27310 0.86595 0.05800
H 	H 	0.90141 0.32824 0.90498 0.05900
H 	H 	0.74633 0.00281 0.02037 0.07200
C 	C 	0.80546 0.59887 0.98242 -0.07600
C 	C 	0.86575 0.63098 0.02021 -0.01000
C 	C 	0.88896 0.55252 0.04382 -0.06200
C 	C 	0.82533 0.51712 0.00929 -0.02800
C 	C 	0.78655 0.54361 0.97529 0.05100
C 	C 	0.88248 0.68690 0.02931 0.01600
C 	C 	0.72174 0.51007 0.93423 -0.18500
H 	H 	0.77286 0.61647 0.95893 0.04900
C 	C 	0.86570 0.67680 0.07218 -0.09800
H 	H 	0.83399 0.62728 0.09483 0.05200
H 	H 	0.71056 0.54521 0.90189 0.06400
H 	H 	0.67547 0.46986 0.95201 0.06400
H 	H 	0.72928 0.48949 0.91696 0.06500
H 	H 	0.88458 0.73422 0.92286 0.07600
H 	H 	0.83440 0.66587 0.14856 0.06900
C 	C 	0.44346 0.13313 0.17799 -0.09800
C 	C 	0.47348 0.19560 0.14384 0.00900
C 	C 	0.44065 0.22730 0.12236 0.02400
C 	C 	0.37256 0.19168 0.12816 -0.00900
C 	C 	0.33891 0.12623 0.15721 -0.11000
C 	C 	0.37745 0.09919 0.18647 0.10000
C 	C 	0.53266 0.22305 0.12464 -0.01100
C 	C 	0.47549 0.29714 0.08994 -0.17200
H 	H 	0.34410 0.21349 0.10735 0.04100
C 	C 	0.34616 0.03203 0.22327 -0.21900
H 	H 	0.46992 0.10970 0.19610 0.04900
C 	C 	0.60253 0.25324 0.15538 0.04100
C 	C 	0.65796 0.28285 0.13442 -0.06000
C 	C 	0.64482 0.28550 0.08249 -0.03400
C 	C 	0.57451 0.25236 0.05274 0.05900
C 	C 	0.51889 0.22027 0.07454 -0.07500
C 	C 	0.61837 0.25571 0.20976 -0.17900
H 	H 	0.71192 0.30746 0.15740 0.04100
C 	C 	0.55879 0.25341 0.99711 -0.19100
H 	H 	0.46487 0.19529 0.05172 0.05200
H 	H 	0.31033 0.02160 0.24085 0.08200
H 	H 	0.38833 0.02848 0.25587 0.06600
H 	H 	0.31669 0.99459 0.20184 0.08100
H 	H 	0.46763 0.29840 0.04980 0.06700
H 	H 	0.53295 0.32745 0.10775 0.06300
H 	H 	0.45285 0.31958 0.08736 0.06200
H 	H 	0.67604 0.28469 0.22735 0.05900
H 	H 	0.59361 0.20530 0.23548 0.06200
H 	H 	0.59747 0.27893 0.20860 0.06300
H 	H 	0.50123 0.22611 0.97899 0.06700
H 	H 	0.57827 0.23018 0.99621 0.06500
H 	H 	0.58479 0.30474 0.97298 0.06600
O 	O 	0.04842 0.03324 0.12899 -0.57200
O 	O 	0.98150 0.98606 0.62064 -0.58000
C 	C 	0.79184 0.06376 0.52599 -0.11300
H 	H 	0.82131 0.66590 0.49459 0.05400
H 	H 	0.90568 0.28172 0.04869 0.04600
C 	C 	0.85887 0.12925 0.00565 -0.10700
C 	C 	0.74075 0.03258 0.02837 -0.20900
H 	H 	0.68546 0.01705 0.01018 0.06400
H 	H 	0.75103 0.02283 0.07124 0.07300
H 	H 	0.85372 0.74595 0.12320 0.08800
O 	O 	0.79791 0.89356 0.70696 -0.38000
C 	C 	0.05214 0.99207 0.99304 0.31400
O 	O 	0.05639 0.87012 0.10258 -0.40300
C 	C 	0.99659 0.94143 0.49339 0.33000
O 	O 	0.78222 0.98135 0.60693 -0.40500
C 	C 	0.98942 0.95624 0.43650 -0.11400
O 	O 	0.99475 0.81271 0.62722 -0.39800
H 	H 	0.91970 0.53312 0.06902 0.04100
H 	H 	0.80831 0.75739 0.46435 0.07800
Br	Br	0.83968 0.85894 0.84700 -0.23600
C 	C 	0.89716 0.47570 0.61192 -0.18500
H 	H 	0.86318 0.54798 0.68628 0.05800
C 	C 	0.89949 0.19357 0.97628 -0.01300
C 	C 	0.90988 0.60971 0.04925 0.04300
C 	C 	0.83156 0.66659 0.53381 -0.09900
C 	C 	0.93200 0.30836 0.93488 -0.16900
C 	C 	0.89289 0.73052 0.08760 0.10900
C 	C 	0.87505 0.71866 0.13415 -0.20900
C 	C 	0.92082 0.75100 0.99833 0.02000
C 	C 	0.93504 0.76290 0.94978 -0.17200
O 	O 	0.84863 0.00106 0.15344 -0.41600
O 	O 	0.86993 0.93503 0.15558 -0.40800
C 	C 	0.86424 0.67092 0.63569 -0.00700
H 	H 	0.87942 0.67350 0.67532 0.03400
O 	O 	0.92141 0.95794 0.06771 -0.45200
C 	C 	0.89680 0.10287 0.05092 0.30400
O 	O 	0.90154 0.06220 0.04703 -0.38700
O 	O 	0.85820 0.90691 0.56024 -0.46000
C 	C 	0.80171 0.01190 0.56284 0.28800
O 	O 	0.83264 0.99844 0.55287 -0.38000
Br	Br	0.88461 0.89816 0.95466 -0.23500
Br	Br	0.84984 0.91917 0.41945 -0.23700
Br	Br	0.85284 0.98008 0.29395 -0.23300
C 	C 	0.84974 0.12776 0.50854 0.10300
C 	C 	0.84932 0.18158 0.49468 -0.09700
C 	C 	0.87745 0.72689 0.59437 -0.11500
C 	C 	0.85405 0.72229 0.54254 0.10400
C 	C 	0.85577 0.77736 0.49646 -0.21500
H 	H 	0.91576 0.48062 0.58300 0.06200
H 	H 	0.85563 0.80921 0.50680 0.08600
H 	H 	0.92648 0.40766 0.06790 0.06400
H 	H 	0.94885 0.35109 0.09775 0.06000
C 	C 	0.93879 0.79502 0.06034 -0.10700
C 	C 	0.98178 0.97316 0.83689 -0.11300
H 	H 	0.94388 0.50998 0.63695 0.05900
H 	H 	0.91058 0.57883 0.60970 0.04500
C 	C 	0.94978 0.80451 0.01465 0.00600
H 	H 	0.96211 0.31408 0.91480 0.05800
H 	H 	0.96992 0.33740 0.96473 0.06100
Co	Co	0.94092 0.00952 0.10875 1.17800
O 	O 	0.93999 0.13392 0.08805 -0.39600
O 	O 	0.96870 0.86892 0.10070 -0.39500
Co	Co	0.86803 0.94245 0.60954 1.18600
Co	Co	0.85650 0.99379 0.67741 1.17300
O 	O 	0.90486 0.81833 0.60780 -0.40100
H 	H 	0.89540 0.23103 0.48482 0.05000
H 	H 	0.90331 0.80679 0.48184 0.09000
H 	H 	0.94853 0.21181 0.97164 0.03800
C 	C 	0.97684 0.64535 0.08834 -0.18100
H 	H 	0.98592 0.85374 0.99426 0.03700
H 	H 	0.96345 0.63696 0.12232 0.06300
H 	H 	0.96203 0.81543 0.92821 0.07800
H 	H 	0.96919 0.74809 0.96056 0.06500
H 	H 	0.92294 0.73509 0.16661 0.07900
H 	H 	0.95554 0.63487 0.75469 0.05800
C 	C 	0.02595 0.99147 0.93692 -0.10400
O 	O 	0.92378 0.09237 0.64644 -0.40300
H 	H 	0.95065 0.19115 0.48832 0.06500
Co	Co	0.01029 0.96702 0.08294 1.18600
Co	Co	0.95105 0.08741 0.16587 1.16700
O 	O 	0.99242 0.05671 0.15124 -0.76800
C 	C 	0.97402 0.00157 0.27321 0.29100
C 	C 	0.99032 0.84981 0.08601 0.30400
O 	O 	0.96932 0.05104 0.24672 -0.39600
O 	O 	0.03085 0.00943 0.00986 -0.37300
Co	Co	0.94894 0.91793 0.57978 1.18900
O 	O 	0.91180 0.98567 0.65391 -0.75800
C 	C 	0.95400 0.97613 0.78019 0.35700
C 	C 	0.92837 0.79138 0.60611 0.30600
O 	O 	0.92495 0.00754 0.75085 -0.41200
O 	O 	0.97416 0.95949 0.50835 -0.37400
C 	C 	0.93385 0.93193 0.86909 0.10100
C 	C 	0.95469 0.94371 0.91743 0.09100
C 	C 	0.92315 0.96529 0.34532 0.08600
C 	C 	0.97229 0.97430 0.32973 -0.09600
C 	C 	0.92822 0.95011 0.39878 0.09700
C 	C 	0.91340 0.13934 0.50743 -0.20600
H 	H 	0.89674 0.10813 0.48484 0.08200
H 	H 	0.94219 0.12804 0.54787 0.07500
H 	H 	0.00909 0.69878 0.07017 0.06600
H 	H 	0.00975 0.62799 0.10276 0.06000
