data_crystal

_cell_length_a 19.17680
_cell_length_b 17.21390
_cell_length_c 36.83147
_cell_angle_alpha 88.32252
_cell_angle_beta  88.44743
_cell_angle_gamma 107.56107

_symmetry_space_group_name_	'P 1'
_symmetry_space_group_name_H-M	'P 1'

loop_
_symmetry_equiv_pos_as_xyz
  x,y,z

loop_
_atom_site_label
_atom_site_type_symbol
_atom_site_fract_x
_atom_site_fract_y
_atom_site_fract_z
_atom_site_charge
Zn	Zn	0.58174 0.31436 0.89599 1.22400
Zn	Zn	0.69851 0.44730 0.94368 1.20300
C 	C 	0.79342 0.24416 0.83730 0.29200
Zn	Zn	0.74969 0.37476 0.87636 1.22400
Zn	Zn	0.62937 0.20479 0.84621 1.19300
H 	H 	0.69761 0.30104 0.93605 0.18700
C 	C 	0.72285 0.53269 0.86686 0.32700
O 	O 	0.52048 0.15632 0.84713 -0.45500
O 	O 	0.48900 0.26944 0.86374 -0.38700
O 	O 	0.68577 0.34267 0.92037 -0.79100
O 	O 	0.59685 0.43197 0.96204 -0.46500
O 	O 	0.54384 0.21519 0.92770 -0.43800
O 	O 	0.54058 0.40312 0.90812 -0.43300
O 	O 	0.62789 0.16185 0.90280 -0.41900
O 	O 	0.80118 0.51679 0.93719 -0.45200
H 	H 	0.63559 0.35242 0.83304 0.17600
O 	O 	0.84482 0.42591 0.90690 -0.40700
O 	O 	0.64793 0.32201 0.85389 -0.80000
O 	O 	0.72919 0.19009 0.84540 -0.44700
O 	O 	0.75902 0.48415 0.85459 -0.44100
O 	O 	0.81107 0.31857 0.84987 -0.42800
O 	O 	0.67567 0.50893 0.89461 -0.39900
C 	C 	0.47206 0.19696 0.84952 0.28600
C 	C 	0.54462 0.43503 0.94030 0.35300
C 	C 	0.57478 0.15706 0.92681 0.32800
C 	C 	0.85622 0.49247 0.92546 0.33200
Zn	Zn	0.64979 0.40850 0.55682 1.22200
Zn	Zn	0.49683 0.28400 0.51844 1.19600
C 	C 	0.68451 0.15895 0.61710 0.34300
Zn	Zn	0.58434 0.21930 0.57284 1.22300
Zn	Zn	0.72338 0.33987 0.61575 1.19400
H 	H 	0.62862 0.28380 0.51174 0.17600
C 	C 	0.43955 0.22068 0.59605 0.28900
O 	O 	0.78994 0.45295 0.60826 -0.45900
O 	O 	0.70342 0.50933 0.58893 -0.39400
O 	O 	0.59944 0.29781 0.53168 -0.79100
O 	O 	0.49371 0.39778 0.51302 -0.45100
O 	O 	0.74380 0.41842 0.53119 -0.44500
O 	O 	0.59713 0.48088 0.53658 -0.42700
O 	O 	0.76372 0.31155 0.56314 -0.41500
O 	O 	0.44563 0.16534 0.51862 -0.46400
H 	H 	0.59113 0.34589 0.61747 0.18200
O 	O 	0.53912 0.11968 0.53854 -0.38700
O 	O 	0.62378 0.33178 0.59924 -0.78900
O 	O 	0.70995 0.22651 0.63478 -0.47200
O 	O 	0.49125 0.18657 0.60176 -0.43200
O 	O 	0.65476 0.15992 0.58537 -0.41700
O 	O 	0.45235 0.28449 0.57349 -0.40800
C 	C 	0.76673 0.51679 0.60367 0.29300
C 	C 	0.55229 0.46176 0.50955 0.31100
C 	C 	0.78037 0.36536 0.53553 0.32200
C 	C 	0.47807 0.10803 0.52096 0.32300
Zn	Zn	0.92858 0.91169 0.73374 1.22200
Zn	Zn	0.03769 0.92095 0.80326 1.19200
C 	C 	0.15384 0.07054 0.66256 0.33000
Zn	Zn	0.08446 0.03516 0.73659 1.22800
Zn	Zn	0.99167 0.99345 0.65975 1.19000
H 	H 	0.06175 0.88159 0.73757 0.17900
C 	C 	0.00194 0.08608 0.79327 0.33600
O 	O 	0.88653 0.95662 0.64975 -0.45100
O 	O 	0.83412 0.92836 0.70793 -0.36900
O 	O 	0.03714 0.91808 0.74906 -0.78900
O 	O 	0.94292 0.83614 0.81632 -0.45400
O 	O 	0.91392 0.80813 0.71019 -0.43500
O 	O 	0.87152 0.89037 0.78048 -0.42400
O 	O 	0.98309 0.86309 0.65969 -0.41200
O 	O 	0.12710 0.00499 0.81968 -0.44100
H 	H 	0.96255 0.05848 0.71577 0.17700
O 	O 	0.18176 0.03903 0.76331 -0.39900
O 	O 	0.98599 0.01533 0.71179 -0.79900
O 	O 	0.09998 0.01178 0.64940 -0.44000
O 	O 	0.05989 0.11018 0.77097 -0.41100
O 	O 	0.15025 0.09419 0.69607 -0.41600
O 	O 	0.97904 0.01076 0.80679 -0.40500
C 	C 	0.83291 0.95424 0.67360 0.28400
C 	C 	0.87820 0.83512 0.80471 0.30300
C 	C 	0.92826 0.80556 0.67555 0.33300
C 	C 	0.18553 0.03969 0.79874 0.34100
Zn	Zn	0.32412 0.70714 0.39359 1.22500
Zn	Zn	0.19104 0.56100 0.44103 1.19600
C 	C 	0.12697 0.79138 0.33126 0.31100
Zn	Zn	0.15693 0.66364 0.37976 1.22300
Zn	Zn	0.28628 0.80324 0.33125 1.19700
H 	H 	0.21162 0.71447 0.43867 0.17600
C 	C 	0.16237 0.50263 0.36277 0.28600
O 	O 	0.39327 0.85506 0.33517 -0.46200
O 	O 	0.42059 0.74427 0.35911 -0.38800
O 	O 	0.22044 0.67553 0.42119 -0.78900
O 	O 	0.28486 0.54751 0.45740 -0.45300
O 	O 	0.35138 0.81576 0.41399 -0.44700
O 	O 	0.36736 0.62869 0.41590 -0.43300
O 	O 	0.26783 0.85832 0.38210 -0.41800
O 	O 	0.08403 0.51120 0.43637 -0.46300
H 	H 	0.26877 0.65150 0.33531 0.18700
O 	O 	0.06000 0.62511 0.41408 -0.40200
O 	O 	0.26005 0.69128 0.35236 -0.79500
O 	O 	0.19043 0.80954 0.31309 -0.45800
O 	O 	0.12706 0.55666 0.35714 -0.42800
O 	O 	0.11676 0.75189 0.36315 -0.42900
O 	O 	0.20899 0.51144 0.38915 -0.40800
C 	C 	0.44015 0.81390 0.34021 0.33500
C 	C 	0.34994 0.59915 0.44942 0.32200
C 	C 	0.31251 0.86638 0.40936 0.31900
C 	C 	0.03843 0.55409 0.43186 0.33500
Zn	Zn	0.20875 0.73499 0.08098 1.22400
Zn	Zn	0.35048 0.84189 0.12772 1.19600
C 	C 	0.35687 0.58393 0.03675 0.35900
Zn	Zn	0.37408 0.74630 0.06389 1.22300
Zn	Zn	0.23220 0.63450 0.01827 1.19900
H 	H 	0.30672 0.68750 0.12275 0.18200
C 	C 	0.39287 0.91817 0.04946 0.35800
O 	O 	0.15512 0.66605 0.99466 -0.46000
O 	O 	0.11543 0.71844 0.04586 -0.38000
O 	O 	0.30802 0.73497 0.10660 -0.78500
O 	O 	0.25927 0.86029 0.14649 -0.47100
O 	O 	0.15745 0.63044 0.10750 -0.43200
O 	O 	0.18679 0.83545 0.09697 -0.42700
O 	O 	0.14148 0.56330 0.05459 -0.39400
O 	O 	0.45876 0.87878 0.12130 -0.46000
H 	H 	0.27597 0.78446 0.02320 0.17900
O 	O 	0.47002 0.76446 0.09482 -0.39600
O 	O 	0.27444 0.73850 0.04031 -0.80800
O 	O 	0.28660 0.56894 0.04376 -0.48400
O 	O 	0.41749 0.85651 0.04202 -0.45800
O 	O 	0.40202 0.65847 0.03910 -0.45500
O 	O 	0.34680 0.91260 0.07745 -0.43500
C 	C 	0.10583 0.69237 0.01211 0.32000
C 	C 	0.21145 0.87831 0.12568 0.31400
C 	C 	0.13245 0.56264 0.09007 0.30200
C 	C 	0.49965 0.83422 0.11027 0.29800
Zn	Zn	0.99269 0.15257 0.22149 1.22400
Zn	Zn	0.86989 0.10913 0.28999 1.19900
C 	C 	0.79311 0.97589 0.14845 0.31100
Zn	Zn	0.84859 0.00695 0.22287 1.22800
Zn	Zn	0.94966 0.08375 0.14687 1.19600
H 	H 	0.84937 0.15502 0.22467 0.18900
C 	C 	0.92674 0.95775 0.28167 0.31000
O 	O 	0.05317 0.14927 0.13909 -0.43900
O 	O 	0.09765 0.16437 0.19617 -0.36800
O 	O 	0.87856 0.12280 0.23596 -0.78300
O 	O 	0.95465 0.20177 0.30391 -0.45000
O 	O 	0.99674 0.25804 0.19876 -0.43100
O 	O 	0.04049 0.16823 0.26834 -0.42200
O 	O 	0.92526 0.19978 0.15279 -0.41300
O 	O 	0.78510 0.01258 0.30528 -0.42100
H 	H 	0.98193 0.01179 0.20200 0.18000
O 	O 	0.74299 0.98010 0.24862 -0.40000
O 	O 	0.95186 0.04889 0.19842 -0.79900
O 	O 	0.84304 0.04174 0.13449 -0.43800
O 	O 	0.87741 0.93207 0.25701 -0.43100
O 	O 	0.79716 0.94773 0.18172 -0.42900
O 	O 	0.94101 0.03184 0.29381 -0.38000
C 	C 	0.10189 0.14151 0.16239 0.31600
C 	C 	0.02325 0.21402 0.29295 0.35600
C 	C 	0.96953 0.26464 0.16712 0.34500
C 	C 	0.73169 0.97685 0.28402 0.27200
C 	C 	0.08539 0.48714 0.10933 -0.03400
C 	C 	0.07093 0.41197 0.09242 -0.03200
C 	C 	0.02705 0.34026 0.11013 0.03800
C 	C 	0.99791 0.34197 0.14532 -0.13500
C 	C 	0.00903 0.41786 0.16168 0.16000
C 	C 	0.05313 0.48989 0.14379 -0.06800
H 	H 	0.01897 0.28263 0.09719 0.03500
H 	H 	0.06168 0.54770 0.15662 0.07700
H 	H 	0.09498 0.40873 0.06577 0.05500
Br	Br	0.96201 0.42484 0.20765 -0.25900
C 	C 	0.57982 0.86805 0.11135 -0.04500
C 	C 	0.61307 0.95253 0.10635 -0.01900
C 	C 	0.68617 0.98743 0.11482 -0.00800
C 	C 	0.72683 0.93827 0.12828 -0.10800
C 	C 	0.69624 0.85258 0.12879 0.14000
C 	C 	0.62254 0.81786 0.12079 -0.05800
H 	H 	0.70963 0.05318 0.11326 0.05200
H 	H 	0.59806 0.75229 0.12318 0.07700
H 	H 	0.58132 0.99156 0.09745 0.04200
Br	Br	0.75448 0.78232 0.13982 -0.24400
C 	C 	0.18435 0.94660 0.13503 -0.06800
C 	C 	0.16136 0.95347 0.17091 -0.04400
C 	C 	0.14102 0.02153 0.18070 0.02500
C 	C 	0.14270 0.08337 0.15461 -0.13100
C 	C 	0.17064 0.07910 0.11912 0.13300
C 	C 	0.18994 0.01007 0.10932 -0.04300
H 	H 	0.12071 0.02437 0.20822 0.02700
H 	H 	0.21120 0.00686 0.08202 0.07100
H 	H 	0.15856 0.90560 0.19119 0.04200
Br	Br	0.18692 0.16886 0.08443 -0.24100
C 	C 	0.65915 0.93057 0.30004 -0.02300
C 	C 	0.63321 0.95499 0.33242 -0.05900
C 	C 	0.56225 0.91503 0.34603 0.03600
C 	C 	0.51668 0.84995 0.32758 -0.12600
C 	C 	0.54326 0.82362 0.29570 0.14700
C 	C 	0.61428 0.86389 0.28208 -0.06900
H 	H 	0.54219 0.93558 0.37061 0.03000
H 	H 	0.63428 0.84377 0.25738 0.08500
H 	H 	0.66727 0.00625 0.34655 0.06300
Br	Br	0.48257 0.73453 0.26979 -0.27600
C 	C 	0.14450 0.42828 0.34180 -0.03800
C 	C 	0.12699 0.43136 0.30518 -0.02300
C 	C 	0.09546 0.35926 0.28741 0.02200
C 	C 	0.07980 0.28371 0.30633 -0.11900
C 	C 	0.10453 0.28028 0.34176 0.14600
C 	C 	0.13696 0.35255 0.35938 -0.05900
H 	H 	0.07812 0.36234 0.25979 0.04700
H 	H 	0.15244 0.34972 0.38735 0.07100
H 	H 	0.13483 0.48955 0.29097 0.04700
Br	Br	0.09051 0.17740 0.36715 -0.21700
C 	C 	0.07026 0.82656 0.31826 -0.04500
C 	C 	0.06598 0.84350 0.28098 -0.02700
C 	C 	0.01604 0.88242 0.26894 0.02500
C 	C 	0.97018 0.90539 0.29400 -0.11300
C 	C 	0.97208 0.88532 0.33125 0.14100
C 	C 	0.02200 0.84614 0.34322 -0.05000
H 	H 	0.01462 0.89704 0.24021 0.01700
H 	H 	0.02421 0.83250 0.37199 0.08100
H 	H 	0.10194 0.82745 0.26136 0.04300
Br	Br	0.90601 0.90958 0.36608 -0.23300
C 	C 	0.44409 0.02837 0.50526 -0.13600
C 	C 	0.38969 0.01799 0.48187 0.02500
C 	C 	0.36287 0.94072 0.46300 -0.00900
C 	C 	0.32356 0.93623 0.43305 -0.14700
H 	H 	0.37977 0.88866 0.47211 0.04000
H 	H 	0.46644 0.97862 0.51131 0.07200
H 	H 	0.30370 0.98667 0.42480 0.07600
H 	H 	0.36796 0.06794 0.47518 0.03700
C 	C 	0.84642 0.37357 0.51236 -0.14800
C 	C 	0.86455 0.42855 0.48428 0.00900
C 	C 	0.93921 0.45384 0.46736 0.01500
C 	C 	0.96174 0.52138 0.44549 -0.16100
H 	H 	0.97692 0.41999 0.47427 0.03600
H 	H 	0.88362 0.33970 0.52006 0.08100
H 	H 	0.92381 0.55521 0.43898 0.08600
H 	H 	0.82581 0.45963 0.47557 0.04200
C 	C 	0.55201 0.52538 0.48236 -0.14600
C 	C 	0.52227 0.58356 0.49110 0.01900
C 	C 	0.47555 0.60882 0.46504 0.01600
C 	C 	0.40762 0.60660 0.47572 -0.15500
H 	H 	0.49168 0.61559 0.43630 0.04900
H 	H 	0.55823 0.51283 0.45391 0.06800
H 	H 	0.39164 0.59792 0.50447 0.07600
H 	H 	0.51815 0.59782 0.51953 0.04400
C 	C 	0.77010 0.97891 0.66118 -0.04700
C 	C 	0.73637 0.02113 0.68430 -0.01800
C 	C 	0.69885 0.07210 0.66964 0.01900
C 	C 	0.69691 0.08335 0.63172 -0.12500
C 	C 	0.72092 0.03095 0.60889 0.16100
C 	C 	0.75567 0.97761 0.62401 -0.08300
H 	H 	0.67680 0.10827 0.68765 0.02400
H 	H 	0.77671 0.93992 0.60636 0.08100
H 	H 	0.74425 0.01985 0.71330 0.04600
Br	Br	0.71018 0.03257 0.55714 -0.21700
C 	C 	0.36487 0.18197 0.61183 -0.03400
C 	C 	0.33881 0.09695 0.61798 -0.04000
C 	C 	0.26760 0.05984 0.63211 0.05000
C 	C 	0.22169 0.10719 0.64045 -0.12600
C 	C 	0.24670 0.19214 0.63294 0.14900
C 	C 	0.31804 0.22911 0.61877 -0.06800
H 	H 	0.24902 0.99455 0.63776 0.01100
H 	H 	0.33711 0.29451 0.61343 0.07600
H 	H 	0.37364 0.05951 0.61177 0.05900
Br	Br	0.18382 0.25847 0.64144 -0.25600
C 	C 	0.80743 0.59462 0.61912 -0.04500
C 	C 	0.88378 0.62578 0.61396 -0.02900
C 	C 	0.92281 0.69613 0.63148 0.01700
C 	C 	0.88606 0.73464 0.65510 -0.11800
C 	C 	0.80881 0.70298 0.65995 0.14000
C 	C 	0.77035 0.63452 0.64142 -0.06500
H 	H 	0.98174 0.71927 0.62745 0.03300
H 	H 	0.71144 0.61045 0.64552 0.06800
H 	H 	0.91295 0.59531 0.59660 0.04500
Br	Br	0.75372 0.75007 0.69204 -0.24900
C 	C 	0.03444 0.68155 0.99577 -0.13200
C 	C 	0.02101 0.64857 0.96311 0.01200
C 	C 	0.94551 0.60673 0.95309 0.00700
C 	C 	0.93169 0.54119 0.93238 -0.15000
H 	H 	0.90082 0.62582 0.96467 0.04900
H 	H 	0.98986 0.69034 0.01236 0.07400
H 	H 	0.97670 0.52169 0.92149 0.08000
H 	H 	0.06602 0.64342 0.94571 0.03800
C 	C 	0.55499 0.08965 0.95456 -0.14700
C 	C 	0.49549 0.07585 0.97695 0.00100
C 	C 	0.47270 0.00177 0.00122 0.05500
C 	C 	0.41583 0.98992 0.02763 -0.22700
H 	H 	0.50100 0.95606 0.99845 0.02600
H 	H 	0.58756 0.04777 0.95545 0.08400
H 	H 	0.39088 0.03796 0.03201 0.11000
H 	H 	0.46272 0.11754 0.97658 0.05100
C 	C 	0.38122 0.52484 0.02409 -0.20900
C 	C 	0.44109 0.54361 0.99623 0.02600
C 	C 	0.46795 0.48191 0.98426 0.01400
C 	C 	0.49908 0.48653 0.94936 -0.15300
H 	H 	0.46273 0.42856 0.00194 0.03900
H 	H 	0.34740 0.46180 0.02846 0.09900
H 	H 	0.49254 0.53097 0.92921 0.08800
H 	H 	0.45736 0.60271 0.98174 0.03300
C 	C 	0.85188 0.21505 0.82131 -0.04400
C 	C 	0.83543 0.15713 0.79434 -0.02900
C 	C 	0.88704 0.11945 0.78323 0.02100
C 	C 	0.95582 0.13930 0.79888 -0.12100
C 	C 	0.97428 0.20121 0.82424 0.14000
C 	C 	0.92237 0.23908 0.83529 -0.05800
H 	H 	0.87229 0.07187 0.76369 0.01800
H 	H 	0.93584 0.28445 0.85586 0.07600
H 	H 	0.78173 0.13928 0.78285 0.03000
Br	Br	0.06842 0.23143 0.84562 -0.20700
C 	C 	0.39665 0.15819 0.83864 -0.03300
C 	C 	0.36189 0.07529 0.84725 -0.04000
C 	C 	0.29125 0.03770 0.83569 0.04900
C 	C 	0.25509 0.08230 0.81502 -0.12400
C 	C 	0.28904 0.16624 0.80732 0.15100
C 	C 	0.35945 0.20380 0.81931 -0.06700
H 	H 	0.26547 0.97329 0.84189 0.00100
H 	H 	0.38572 0.26808 0.81298 0.07400
H 	H 	0.38969 0.03992 0.86278 0.05400
Br	Br	0.23994 0.23074 0.78082 -0.20800
C 	C 	0.81368 0.76875 0.81786 -0.04000
C 	C 	0.78602 0.70185 0.79603 -0.03300
C 	C 	0.74776 0.62553 0.81192 0.02600
C 	C 	0.73749 0.61526 0.84988 -0.11600
C 	C 	0.75639 0.68506 0.87125 0.14400
C 	C 	0.79408 0.76139 0.85502 -0.06000
H 	H 	0.73129 0.57311 0.79500 0.03000
H 	H 	0.81325 0.81368 0.87185 0.06900
H 	H 	0.80034 0.70700 0.76724 0.05800
Br	Br	0.73620 0.67747 0.92284 -0.26400
