data_crystal

_cell_length_a 18.46107
_cell_length_b 18.81661
_cell_length_c 34.50814
_cell_angle_alpha 95.42995
_cell_angle_beta  95.43064
_cell_angle_gamma 126.40464

_symmetry_space_group_name_	'P 1'
_symmetry_space_group_name_H-M	'P 1'

loop_
_symmetry_equiv_pos_as_xyz
  x,y,z

loop_
_atom_site_label
_atom_site_type_symbol
_atom_site_fract_x
_atom_site_fract_y
_atom_site_fract_z
_atom_site_charge
C 	C 	0.90563 0.98961 0.95877 0.16800
N 	N 	0.86122 0.90072 0.96001 -0.13900
C 	C 	0.90738 0.86501 0.95806 0.14500
N 	N 	0.99725 0.91829 0.95541 -0.13700
C 	C 	0.04149 0.00671 0.95474 0.13900
N 	N 	0.99578 0.04226 0.95644 -0.14300
C 	C 	0.94178 0.03766 0.50445 0.12600
N 	N 	0.88854 0.94893 0.50632 -0.12600
C 	C 	0.92620 0.90541 0.50857 0.13900
N 	N 	0.01696 0.95051 0.50912 -0.13000
C 	C 	0.07026 0.03885 0.50690 0.13200
N 	N 	0.03275 0.08267 0.50456 -0.12800
Cu	Cu	0.76439 0.34071 0.96074 0.92700
Cu	Cu	0.74920 0.27964 0.04741 0.87400
Cu	Cu	0.60950 0.29005 0.00523 0.89700
Cu	Cu	0.59335 0.32754 0.92386 0.89800
C 	C 	0.71030 0.30942 0.87624 0.28000
O 	O 	0.81481 0.47074 0.95798 -0.35400
C 	C 	0.66063 0.32922 0.09320 0.27800
O 	O 	0.62073 0.26327 0.95214 -0.63800
O 	O 	0.74498 0.35600 0.01525 -0.64400
O 	O 	0.82701 0.28362 0.96967 -0.36900
O 	O 	0.72532 0.19007 0.00633 -0.42800
O 	O 	0.66899 0.34637 0.88257 -0.37200
O 	O 	0.47768 0.21849 0.99252 -0.37300
C 	C 	0.42934 0.21931 0.96201 0.31500
C 	C 	0.76892 0.50162 0.96684 0.30200
O 	O 	0.68288 0.44507 0.97007 -0.39300
O 	O 	0.46786 0.27000 0.93530 -0.39300
O 	O 	0.75973 0.30745 0.90579 -0.35800
C 	C 	0.78664 0.20914 0.98432 0.30200
O 	O 	0.59626 0.29713 0.06141 -0.37600
O 	O 	0.73739 0.34015 0.09085 -0.41400
H 	H 	0.58399 0.19829 0.94098 0.16600
H 	H 	0.77972 0.41915 0.02903 0.17400
Cu	Cu	0.60952 0.20202 0.50563 0.92900
Cu	Cu	0.66523 0.21110 0.41802 0.87200
Cu	Cu	0.65602 0.35067 0.45953 0.89900
Cu	Cu	0.62223 0.36924 0.54197 0.89900
C 	C 	0.65470 0.26415 0.58980 0.27700
O 	O 	0.47903 0.15091 0.51042 -0.36000
C 	C 	0.61514 0.29753 0.37158 0.27900
O 	O 	0.68708 0.34287 0.51275 -0.63900
O 	O 	0.58970 0.21782 0.45089 -0.64100
O 	O 	0.66174 0.13685 0.49545 -0.36600
O 	O 	0.75787 0.23352 0.45818 -0.44000
O 	O 	0.61326 0.30142 0.58466 -0.37100
O 	O 	0.72719 0.48002 0.47132 -0.38300
C 	C 	0.72665 0.52715 0.50207 0.31900
C 	C 	0.44491 0.19311 0.50130 0.30700
O 	O 	0.49985 0.27728 0.49746 -0.39500
O 	O 	0.67265 0.48848 0.52787 -0.39100
O 	O 	0.64820 0.20923 0.56037 -0.35000
C 	C 	0.73801 0.17544 0.48147 0.30700
O 	O 	0.64568 0.36083 0.40304 -0.38000
O 	O 	0.60217 0.22169 0.37480 -0.41600
H 	H 	0.75370 0.37973 0.52326 0.16800
H 	H 	0.52471 0.18272 0.43778 0.17400
C 	C 	0.84009 0.43173 0.72194 -0.04100
C 	C 	0.84811 0.43812 0.76308 -0.03900
C 	C 	0.78801 0.36222 0.77932 0.01900
C 	C 	0.72259 0.27821 0.75407 -0.00700
C 	C 	0.71485 0.27168 0.71265 -0.00700
C 	C 	0.77204 0.34931 0.69655 0.02000
C 	C 	0.64624 0.18868 0.68733 0.01900
C 	C 	0.58877 0.11195 0.70362 -0.04000
C 	C 	0.59615 0.11854 0.74478 -0.04100
C 	C 	0.66129 0.20187 0.77015 0.01900
C 	C 	0.66255 0.21098 0.81113 -0.02900
C 	C 	0.72385 0.29571 0.83587 -0.05100
C 	C 	0.78890 0.37031 0.82022 -0.02100
C 	C 	0.75691 0.34464 0.65547 -0.03000
C 	C 	0.68490 0.26336 0.63050 -0.05100
C 	C 	0.63242 0.18469 0.64621 -0.02000
H 	H 	0.88537 0.49143 0.70985 0.04300
H 	H 	0.89952 0.50266 0.78226 0.04400
H 	H 	0.53674 0.04761 0.68443 0.04300
H 	H 	0.54972 0.05921 0.75686 0.04000
H 	H 	0.61301 0.15338 0.82348 0.03500
H 	H 	0.83672 0.43547 0.83959 0.05300
H 	H 	0.79797 0.40497 0.64309 0.03500
H 	H 	0.57733 0.12184 0.62673 0.05300
C 	C 	0.46077 0.18988 0.23210 -0.04100
C 	C 	0.46714 0.19498 0.19222 -0.04200
C 	C 	0.54627 0.26889 0.18194 0.01800
C 	C 	0.61740 0.34049 0.21195 -0.00800
C 	C 	0.61049 0.33584 0.25209 -0.00800
C 	C 	0.53319 0.25892 0.26219 0.01600
C 	C 	0.68327 0.40571 0.28214 0.01700
C 	C 	0.76065 0.48144 0.27182 -0.04200
C 	C 	0.76797 0.48556 0.23195 -0.04200
C 	C 	0.69770 0.41429 0.20191 0.01700
C 	C 	0.70879 0.41356 0.16222 -0.02600
C 	C 	0.64037 0.33967 0.13264 -0.05700
C 	C 	0.55749 0.26962 0.14228 -0.02700
C 	C 	0.53162 0.24978 0.30206 -0.02500
C 	C 	0.60670 0.31673 0.33177 -0.06000
C 	C 	0.68020 0.39649 0.32196 -0.02800
H 	H 	0.40037 0.13123 0.23956 0.03900
H 	H 	0.41153 0.14025 0.16936 0.04200
H 	H 	0.81634 0.53608 0.29468 0.04100
H 	H 	0.82924 0.54330 0.22452 0.04100
H 	H 	0.77195 0.46844 0.15455 0.04200
H 	H 	0.50428 0.21318 0.11928 0.04800
H 	H 	0.47408 0.18906 0.30985 0.04100
H 	H 	0.73756 0.44861 0.34505 0.04400
C 	C 	0.86843 0.80880 0.50825 -0.04000
C 	C 	0.88349 0.77698 0.54080 -0.09100
C 	C 	0.83701 0.68478 0.53900 0.18500
C 	C 	0.77614 0.62387 0.50414 -0.11900
C 	C 	0.76007 0.65560 0.47178 -0.04000
C 	C 	0.80605 0.74779 0.47371 0.14000
H 	H 	0.93241 0.82392 0.56728 0.07100
O 	O 	0.85447 0.65460 0.57059 -0.29800
H 	H 	0.71189 0.60876 0.44512 0.06200
O 	O 	0.79007 0.77822 0.44184 -0.27400
H 	H 	0.83537 0.78824 0.42530 0.15000
H 	H 	0.81054 0.64540 0.58778 0.15000
C 	C 	0.79777 0.14852 0.48931 -0.12300
C 	C 	0.84656 0.14850 0.46043 -0.04500
C 	C 	0.89725 0.11593 0.46601 0.13600
C 	C 	0.90009 0.08369 0.50080 -0.03700
C 	C 	0.85472 0.08724 0.53041 -0.09300
C 	C 	0.80475 0.12066 0.52508 0.18400
H 	H 	0.84296 0.17119 0.43310 0.04600
O 	O 	0.94324 0.11484 0.43724 -0.27600
H 	H 	0.85738 0.06313 0.55743 0.07000
O 	O 	0.76165 0.12463 0.55456 -0.27700
H 	H 	0.80691 0.18512 0.57135 0.15000
H 	H 	0.89893 0.05566 0.41933 0.14700
C 	C 	0.16832 0.08644 0.50722 -0.04000
C 	C 	0.22111 0.08202 0.53746 -0.09300
C 	C 	0.31058 0.11404 0.53507 0.18300
C 	C 	0.34842 0.15188 0.50234 -0.12200
C 	C 	0.29640 0.15828 0.47253 -0.04400
C 	C 	0.20667 0.12592 0.47490 0.13800
H 	H 	0.19210 0.05232 0.56259 0.06900
O 	O 	0.36246 0.11237 0.56565 -0.28600
H 	H 	0.32549 0.18818 0.44746 0.05400
O 	O 	0.15504 0.12862 0.44461 -0.27600
H 	H 	0.16649 0.18719 0.45196 0.15700
H 	H 	0.34967 0.05297 0.55919 0.15500
C 	C 	0.86050 0.76841 0.95806 -0.04300
C 	C 	0.86678 0.71751 0.92798 -0.08900
C 	C 	0.84100 0.63206 0.93151 0.18000
C 	C 	0.80726 0.59592 0.96518 -0.11700
C 	C 	0.79847 0.64570 0.99475 -0.04100
C 	C 	0.82482 0.73153 0.99130 0.14200
H 	H 	0.89389 0.74523 0.90222 0.07100
O 	O 	0.84466 0.58230 0.90113 -0.28700
H 	H 	0.77111 0.61783 0.02045 0.05200
O 	O 	0.82004 0.78091 0.02139 -0.28000
H 	H 	0.75821 0.76538 0.01454 0.15000
H 	H 	0.90714 0.59900 0.90708 0.15400
C 	C 	0.85825 0.03071 0.96216 -0.06400
C 	C 	0.83297 0.04037 0.99818 -0.07200
C 	C 	0.81104 0.09946 0.00585 0.16300
C 	C 	0.81106 0.14740 0.97667 -0.10800
C 	C 	0.83226 0.13443 0.93991 -0.05100
C 	C 	0.85537 0.07616 0.93253 0.14700
H 	H 	0.83531 0.00596 0.02118 0.06000
O 	O 	0.79118 0.11138 0.04212 -0.29800
H 	H 	0.83099 0.16953 0.91701 0.06800
O 	O 	0.87898 0.06669 0.89694 -0.27600
H 	H 	0.82090 0.01521 0.87954 0.14600
H 	H 	0.85091 0.16150 0.05898 0.13000
C 	C 	0.33020 0.16797 0.95948 -0.12000
C 	C 	0.27025 0.10372 0.92542 -0.03800
C 	C 	0.17546 0.05146 0.92344 0.12500
C 	C 	0.14022 0.06506 0.95530 -0.03700
C 	C 	0.20014 0.13126 0.98884 -0.08800
C 	C 	0.29491 0.18269 0.99104 0.18900
H 	H 	0.29717 0.09310 0.90078 0.04900
O 	O 	0.11732 0.98879 0.88995 -0.26000
H 	H 	0.17321 0.14174 0.01350 0.06800
O 	O 	0.35295 0.24610 0.02436 -0.28700
H 	H 	0.36416 0.30247 0.01910 0.14800
H 	H 	0.10758 0.93262 0.89443 0.15000
