data_crystal

_cell_length_a 26.03233
_cell_length_b 26.53954
_cell_length_c 26.31104
_cell_angle_alpha 95.48521
_cell_angle_beta  95.48627
_cell_angle_gamma 125.66453

_symmetry_space_group_name_	'P 1'
_symmetry_space_group_name_H-M	'P 1'

loop_
_symmetry_equiv_pos_as_xyz
  x,y,z

loop_
_atom_site_label
_atom_site_type_symbol
_atom_site_fract_x
_atom_site_fract_y
_atom_site_fract_z
_atom_site_charge
C 	C 	0.04696 0.02265 0.43494 0.01800
H 	H 	0.92062 0.05619 0.35483 0.04000
C 	C 	0.94683 0.01066 0.43327 0.01600
H 	H 	0.13804 0.09997 0.52002 0.04100
H 	H 	0.94452 0.07155 0.92854 0.04500
C 	C 	0.92366 0.07628 0.96080 -0.06300
C 	C 	0.90574 0.06356 0.39015 -0.05000
C 	C 	0.91219 0.03917 0.43328 0.01500
C 	C 	0.95975 0.02263 0.00854 0.01900
C 	C 	0.05058 0.01839 0.00766 0.01900
C 	C 	0.01278 0.04825 0.43179 -0.06400
C 	C 	0.11706 0.06346 0.43797 0.01400
H 	H 	0.89328 0.02568 0.51067 0.04600
H 	H 	0.13446 0.01799 0.07618 0.04000
C 	C 	0.15798 0.09959 0.48579 -0.04900
C 	C 	0.88975 0.04598 0.47781 -0.07000
C 	C 	0.93232 0.05792 0.00706 0.00700
H 	H 	0.11102 0.03922 0.35599 0.04700
C 	C 	0.88390 0.09574 0.95449 0.02900
C 	C 	0.02572 0.05332 0.00917 -0.06700
C 	C 	0.14295 0.06567 0.39327 -0.07000
C 	C 	0.11968 0.04986 0.00760 0.01100
C 	C 	0.15589 0.04271 0.04507 -0.05000
H 	H 	0.83804 0.05998 0.55546 0.03900
C 	C 	0.86399 0.08000 0.48047 0.03200
H 	H 	0.24160 0.05066 0.06684 0.03200
C 	C 	0.83849 0.08371 0.52400 -0.05600
C 	C 	0.88008 0.09747 0.39230 -0.02800
C 	C 	0.21828 0.06375 0.04097 -0.02500
H 	H 	0.03775 0.09770 0.42947 0.04800
C 	C 	0.90425 0.06251 0.04838 -0.04600
H 	H 	0.90955 0.04689 0.08378 0.03900
C 	C 	0.14687 0.07978 0.96641 -0.06700
H 	H 	0.20449 0.08496 0.31359 0.04000
C 	C 	0.20994 0.10223 0.39660 0.03200
C 	C 	0.86518 0.08247 0.04294 -0.03500
H 	H 	0.11812 0.08362 0.93660 0.04600
H 	H 	0.83882 0.07875 0.07342 0.03500
H 	H 	0.88960 0.10131 0.87358 0.03800
C 	C 	0.85589 0.10115 0.99642 -0.01000
C 	C 	0.24745 0.09658 0.00096 -0.02600
C 	C 	0.86851 0.10567 0.90574 -0.05300
C 	C 	0.20995 0.10198 0.96220 0.03800
H 	H 	0.05738 0.10388 0.01064 0.04700
C 	C 	0.86303 0.10985 0.43881 -0.01600
C 	C 	0.23593 0.10846 0.35132 -0.05400
H 	H 	0.87099 0.11126 0.35719 0.03400
C 	C 	0.81241 0.11694 0.52694 -0.03500
H 	H 	0.79171 0.11809 0.56049 0.03000
H 	H 	0.81104 0.12387 0.85896 0.03100
C 	C 	0.82392 0.11855 0.89744 -0.03600
H 	H 	0.25499 0.16716 0.52600 0.03400
C 	C 	0.00918 0.95288 0.00507 -0.06500
C 	C 	0.94352 0.92240 0.00468 0.02000
C 	C 	0.91893 0.95727 0.00659 -0.06700
H 	H 	0.02798 0.92561 0.00297 0.04800
H 	H 	0.86785 0.93341 0.00546 0.04800
C 	C 	0.91506 0.94708 0.43791 -0.06500
C 	C 	0.94923 0.92119 0.44072 0.01700
C 	C 	0.01502 0.95903 0.43855 -0.06300
H 	H 	0.86435 0.91823 0.44006 0.04700
H 	H 	0.04158 0.93927 0.44063 0.04800
Cu	Cu	0.64023 0.24502 0.00163 0.92200
Cu	Cu	0.67123 0.23081 0.88573 0.87200
Cu	Cu	0.65030 0.33533 0.93277 0.91000
Cu	Cu	0.61940 0.34802 0.03725 0.89300
C 	C 	0.65871 0.29201 0.11047 0.29400
O 	O 	0.54487 0.19451 0.00497 -0.36400
C 	C 	0.66619 0.31588 0.83033 0.29400
O 	O 	0.67607 0.33991 0.00470 -0.64300
O 	O 	0.62161 0.24638 0.92695 -0.63200
O 	O 	0.69987 0.22040 0.99952 -0.37400
O 	O 	0.65920 0.16435 0.91676 -0.42500
O 	O 	0.62085 0.30858 0.09782 -0.38800
O 	O 	0.68454 0.42301 0.94024 -0.38000
C 	C 	0.68230 0.45530 0.98026 0.28700
C 	C 	0.51043 0.21329 0.98805 0.28000
O 	O 	0.53945 0.27099 0.97926 -0.39400
O 	O 	0.64256 0.42655 0.01264 -0.39600
O 	O 	0.66760 0.26008 0.07534 -0.36400
C 	C 	0.69162 0.17712 0.96337 0.28300
O 	O 	0.63504 0.32891 0.85844 -0.38100
O 	O 	0.70420 0.30366 0.85265 -0.43400
H 	H 	0.72238 0.37304 0.01886 0.15700
H 	H 	0.57533 0.21585 0.91143 0.15800
Cu	Cu	0.75345 0.35430 0.43853 0.92600
Cu	Cu	0.74974 0.30694 0.54959 0.86800
Cu	Cu	0.65152 0.32108 0.50556 0.89600
Cu	Cu	0.63235 0.35111 0.40162 0.89300
C 	C 	0.70167 0.32944 0.33004 0.29200
O 	O 	0.79104 0.44636 0.43770 -0.36000
C 	C 	0.69383 0.34112 0.61964 0.29200
O 	O 	0.65309 0.30306 0.43364 -0.63900
O 	O 	0.74630 0.36470 0.51264 -0.64000
O 	O 	0.79842 0.31363 0.44306 -0.37200
O 	O 	0.73012 0.24677 0.49169 -0.44300
O 	O 	0.67699 0.35956 0.34206 -0.38700
O 	O 	0.55877 0.27282 0.49436 -0.38400
C 	C 	0.52273 0.27372 0.45605 0.28600
C 	C 	0.76197 0.47060 0.45343 0.28000
O 	O 	0.70256 0.43316 0.46086 -0.39200
O 	O 	0.54845 0.31503 0.42476 -0.39400
O 	O 	0.74351 0.33168 0.36474 -0.36100
C 	C 	0.77287 0.26147 0.46207 0.28400
O 	O 	0.64882 0.32722 0.58062 -0.38600
O 	O 	0.74620 0.34724 0.61151 -0.42400
H 	H 	0.62565 0.25751 0.41815 0.16100
H 	H 	0.77273 0.40875 0.53201 0.17200
C 	C 	0.62355 0.29234 0.68407 -0.04600
C 	C 	0.68188 0.34300 0.67326 -0.09800
C 	C 	0.73147 0.38979 0.71476 0.10500
C 	C 	0.72513 0.38054 0.76611 -0.04200
C 	C 	0.66870 0.32727 0.77669 -0.10000
C 	C 	0.61641 0.28391 0.73549 0.09700
N 	N 	0.55992 0.23343 0.74484 -0.20100
H 	H 	0.58473 0.25754 0.65227 0.04500
H 	H 	0.76417 0.41497 0.79792 0.04400
N 	N 	0.78425 0.44427 0.70561 -0.19900
H 	H 	0.52191 0.20131 0.71407 0.07800
H 	H 	0.55286 0.22574 0.78255 0.07400
H 	H 	0.78680 0.45572 0.66860 0.08800
H 	H 	0.82197 0.47741 0.73622 0.08000
C 	C 	0.74723 0.34834 0.24961 -0.04000
C 	C 	0.69642 0.30880 0.27471 -0.09000
C 	C 	0.63678 0.25652 0.24491 0.09900
C 	C 	0.62654 0.24928 0.19054 -0.03900
C 	C 	0.67529 0.29268 0.16566 -0.09100
C 	C 	0.73726 0.34067 0.19512 0.10100
N 	N 	0.78691 0.38006 0.17152 -0.20000
H 	H 	0.79361 0.38725 0.27256 0.05100
H 	H 	0.57980 0.21101 0.16765 0.04700
N 	N 	0.58913 0.21349 0.26830 -0.20000
H 	H 	0.83210 0.41643 0.19368 0.08200
H 	H 	0.78165 0.37406 0.13109 0.08100
H 	H 	0.59678 0.21549 0.30837 0.07200
H 	H 	0.54436 0.17613 0.24618 0.08000
C 	C 	0.79040 0.53716 0.45202 -0.07800
C 	C 	0.85151 0.58530 0.48116 0.00700
C 	C 	0.87768 0.64868 0.48092 -0.05900
C 	C 	0.84206 0.66468 0.45207 0.01500
C 	C 	0.78286 0.61572 0.41915 -0.00000
C 	C 	0.75645 0.55239 0.42070 -0.01100
C 	C 	0.75190 0.63048 0.38368 -0.03300
C 	C 	0.77954 0.69316 0.37987 -0.05400
C 	C 	0.83630 0.74242 0.41392 0.03300
C 	C 	0.86595 0.72863 0.45249 -0.01600
C 	C 	0.91610 0.77848 0.49190 -0.02800
C 	C 	0.94165 0.84103 0.48880 -0.04900
C 	C 	0.91676 0.85490 0.44726 0.01500
C 	C 	0.86309 0.80551 0.41059 -0.07000
H 	H 	0.87897 0.57369 0.50389 0.02600
H 	H 	0.92662 0.68459 0.50089 0.04200
H 	H 	0.71017 0.51490 0.39666 0.02700
H 	H 	0.70705 0.59314 0.35795 0.03400
H 	H 	0.75599 0.70347 0.35097 0.04000
H 	H 	0.93341 0.76914 0.52607 0.03400
H 	H 	0.98102 0.87889 0.51875 0.04000
H 	H 	0.84262 0.81616 0.37932 0.04600
C 	C 	0.79806 0.22400 0.45625 -0.08600
C 	C 	0.82911 0.22623 0.41486 0.00800
C 	C 	0.85225 0.19016 0.40933 -0.05900
C 	C 	0.84236 0.14916 0.44428 0.01500
C 	C 	0.81468 0.15023 0.48784 -0.00300
C 	C 	0.79150 0.18637 0.49286 -0.01600
H 	H 	0.83602 0.25642 0.38718 0.04000
H 	H 	0.88051 0.19693 0.37964 0.04300
H 	H 	0.76955 0.18623 0.52593 0.02100
C 	C 	0.22466 0.13583 0.48965 -0.02800
C 	C 	0.25133 0.13425 0.44573 -0.01600
C 	C 	0.30244 0.14626 0.35422 -0.03500
C 	C 	0.34414 0.17516 0.40264 0.00000
C 	C 	0.31877 0.16662 0.44901 0.01400
C 	C 	0.36075 0.18720 0.49703 -0.05800
C 	C 	0.42710 0.22220 0.49917 0.00600
C 	C 	0.45257 0.23517 0.45351 -0.07600
C 	C 	0.41096 0.21085 0.40526 -0.01600
H 	H 	0.32161 0.15189 0.31867 0.03400
H 	H 	0.34232 0.17369 0.53229 0.04200
H 	H 	0.45873 0.23901 0.53648 0.03900
H 	H 	0.43050 0.21875 0.36979 0.03200
C 	C 	0.90010 0.85353 0.00057 0.00800
C 	C 	0.87099 0.82760 0.04247 -0.04600
C 	C 	0.83109 0.76225 0.03927 -0.03400
C 	C 	0.82218 0.72192 0.99461 -0.01000
C 	C 	0.84679 0.74813 0.95064 0.02900
C 	C 	0.88691 0.81385 0.95435 -0.06300
C 	C 	0.82987 0.70844 0.90320 -0.05200
C 	C 	0.78939 0.64308 0.89905 -0.03500
C 	C 	0.76853 0.61628 0.94302 0.00300
C 	C 	0.78700 0.65562 0.99181 0.01500
C 	C 	0.77394 0.62830 0.03682 -0.06000
C 	C 	0.73805 0.56294 0.03259 0.00000
C 	C 	0.71674 0.52383 0.98391 -0.07200
C 	C 	0.73183 0.55061 0.93918 -0.01600
H 	H 	0.87874 0.85815 0.07740 0.03900
H 	H 	0.80492 0.74344 0.07030 0.03500
H 	H 	0.90750 0.83414 0.92126 0.04600
H 	H 	0.84739 0.72827 0.86917 0.04000
H 	H 	0.77577 0.61316 0.86176 0.03700
H 	H 	0.79462 0.65733 0.07521 0.04100
H 	H 	0.72884 0.54284 0.06754 0.02700
H 	H 	0.71607 0.52050 0.90152 0.04800
C 	C 	0.73102 0.15415 0.97172 -0.07800
C 	C 	0.75205 0.15256 0.02223 0.00300
C 	C 	0.79516 0.13772 0.03122 -0.06100
C 	C 	0.81536 0.12068 0.98914 0.01600
C 	C 	0.79691 0.12581 0.93855 -0.00100
C 	C 	0.75346 0.14061 0.92996 -0.01700
H 	H 	0.73662 0.16487 0.05494 0.04000
H 	H 	0.81551 0.14349 0.07095 0.04300
H 	H 	0.73911 0.14397 0.89109 0.02500
C 	C 	0.23473 0.12698 0.91855 -0.05700
C 	C 	0.29616 0.14671 0.91275 -0.03100
C 	C 	0.33552 0.14512 0.95182 -0.00300
C 	C 	0.31238 0.12186 0.99719 0.02400
C 	C 	0.35567 0.12793 0.03863 -0.06400
C 	C 	0.41868 0.15229 0.03336 0.00300
C 	C 	0.44104 0.17457 0.98828 -0.07600
C 	C 	0.39911 0.16984 0.94725 -0.01500
H 	H 	0.20581 0.13021 0.88845 0.04100
H 	H 	0.31390 0.16488 0.87823 0.03500
H 	H 	0.34270 0.11839 0.07615 0.04200
H 	H 	0.45150 0.15786 0.06593 0.03500
H 	H 	0.41687 0.18804 0.91269 0.03300
