data_crystal

_cell_length_a 18.67033
_cell_length_b 18.93298
_cell_length_c 26.01222
_cell_angle_alpha 95.42657
_cell_angle_beta  95.42592
_cell_angle_gamma 126.42137

_symmetry_space_group_name_	'P 1'
_symmetry_space_group_name_H-M	'P 1'

loop_
_symmetry_equiv_pos_as_xyz
  x,y,z

loop_
_atom_site_label
_atom_site_type_symbol
_atom_site_fract_x
_atom_site_fract_y
_atom_site_fract_z
_atom_site_charge
C 	C 	0.92410 0.01203 0.99672 0.02600
C 	C 	0.01604 0.05851 0.99387 -0.05700
C 	C 	0.05354 0.01268 0.99104 0.02600
C 	C 	0.99869 0.92049 0.98937 -0.05000
C 	C 	0.90811 0.87481 0.99452 0.02900
C 	C 	0.87130 0.92101 0.99928 -0.04500
H 	H 	0.05773 0.12945 0.99323 0.06000
H 	H 	0.02725 0.88476 0.98566 0.05900
H 	H 	0.80081 0.88553 0.00280 0.05500
C 	C 	0.94231 0.03365 0.46826 0.03200
C 	C 	0.03637 0.08783 0.47166 -0.06100
C 	C 	0.08090 0.04941 0.46628 0.03300
C 	C 	0.03173 0.95652 0.46009 -0.05800
C 	C 	0.93851 0.90209 0.46024 0.03800
C 	C 	0.89316 0.94049 0.46337 -0.05500
H 	H 	0.07460 0.15983 0.47711 0.06100
H 	H 	0.06611 0.92667 0.45576 0.06100
H 	H 	0.82068 0.89847 0.46221 0.06100
Cu	Cu	0.59376 0.17952 0.00596 0.92800
Cu	Cu	0.64097 0.17224 0.88840 0.88300
Cu	Cu	0.63631 0.31859 0.93718 0.90200
Cu	Cu	0.60268 0.34679 0.04603 0.90100
C 	C 	0.64208 0.25400 0.11601 0.29000
O 	O 	0.46433 0.12823 0.01231 -0.35800
C 	C 	0.59546 0.25336 0.82133 0.28600
O 	O 	0.66755 0.31849 0.00972 -0.63800
O 	O 	0.57092 0.18679 0.93158 -0.63700
O 	O 	0.64781 0.11554 0.99713 -0.35900
O 	O 	0.73581 0.20316 0.94221 -0.42600
O 	O 	0.59907 0.28845 0.10673 -0.37000
O 	O 	0.70448 0.44722 0.94845 -0.37000
C 	C 	0.70437 0.49613 0.98822 0.30000
C 	C 	0.42863 0.16674 0.99638 0.29200
O 	O 	0.48120 0.24902 0.98871 -0.38200
O 	O 	0.64735 0.45956 0.02087 -0.38600
O 	O 	0.63433 0.19525 0.07950 -0.35000
C 	C 	0.71945 0.14914 0.97511 0.29300
O 	O 	0.62828 0.32114 0.86052 -0.36900
O 	O 	0.57448 0.17675 0.83078 -0.40400
H 	H 	0.73351 0.35669 0.02378 0.17000
H 	H 	0.50607 0.15064 0.91517 0.18400
Cu	Cu	0.78615 0.37272 0.44682 0.92800
Cu	Cu	0.77813 0.31382 0.56206 0.88400
Cu	Cu	0.64916 0.34880 0.51286 0.90200
Cu	Cu	0.60947 0.35217 0.39863 0.90500
C 	C 	0.71729 0.32616 0.33596 0.29300
O 	O 	0.82934 0.49916 0.43998 -0.34700
C 	C 	0.69206 0.35830 0.62522 0.28500
O 	O 	0.64524 0.30049 0.44210 -0.63100
O 	O 	0.77815 0.39411 0.52101 -0.63600
O 	O 	0.85047 0.31810 0.45729 -0.35600
O 	O 	0.75123 0.22544 0.50621 -0.42500
O 	O 	0.68340 0.36929 0.34448 -0.37300
O 	O 	0.52681 0.31540 0.50286 -0.36600
C 	C 	0.46399 0.26854 0.45989 0.29200
C 	C 	0.78436 0.53014 0.45291 0.27700
O 	O 	0.69825 0.47457 0.45635 -0.38600
O 	O 	0.48542 0.27537 0.41284 -0.38000
O 	O 	0.77364 0.33173 0.37363 -0.34900
C 	C 	0.81203 0.24476 0.47723 0.29100
O 	O 	0.65194 0.37421 0.58863 -0.35600
O 	O 	0.76938 0.37318 0.62137 -0.39500
H 	H 	0.60721 0.23442 0.43395 0.16800
H 	H 	0.82132 0.45770 0.53846 0.18000
C 	C 	0.59994 0.26895 0.76640 -0.06800
C 	C 	0.61374 0.21927 0.73085 -0.02700
C 	C 	0.63659 0.24379 0.68262 0.04800
C 	C 	0.64885 0.32066 0.67002 -0.07900
C 	C 	0.62622 0.36501 0.70285 -0.01100
C 	C 	0.59903 0.33777 0.75026 0.03600
S 	S 	0.64798 0.17658 0.63788 -0.09400
S 	S 	0.55434 0.38265 0.78536 0.00100
H 	H 	0.46261 0.33121 0.76784 0.04700
H 	H 	0.56588 0.11193 0.60595 0.04700
H 	H 	0.60943 0.16297 0.74137 0.04900
H 	H 	0.63033 0.42094 0.69179 0.05800
C 	C 	0.67546 0.26059 0.17099 -0.06300
C 	C 	0.61731 0.19449 0.19861 -0.01300
C 	C 	0.63582 0.21139 0.25365 0.04000
C 	C 	0.71351 0.29485 0.28128 -0.06600
C 	C 	0.77727 0.35607 0.25350 -0.01000
C 	C 	0.75834 0.33959 0.19847 0.03800
S 	S 	0.55903 0.12948 0.28761 -0.04600
S 	S 	0.83721 0.41968 0.16448 -0.03400
H 	H 	0.89606 0.40198 0.15368 0.05000
H 	H 	0.58309 0.07536 0.29649 0.05000
H 	H 	0.55487 0.13225 0.17742 0.05900
H 	H 	0.83863 0.41925 0.27470 0.05900
C 	C 	0.88898 0.80442 0.45770 0.01200
C 	C 	0.86625 0.74875 0.40934 -0.03600
C 	C 	0.83686 0.66044 0.40812 0.01700
C 	C 	0.82607 0.62608 0.45507 -0.07200
C 	C 	0.84558 0.68072 0.50324 0.01800
C 	C 	0.87733 0.76986 0.50458 -0.03500
C 	C 	0.87345 0.78261 0.36083 0.09800
C 	C 	0.83401 0.64552 0.55149 0.07700
C 	C 	0.89943 0.82654 0.55427 0.10100
C 	C 	0.81766 0.60498 0.35853 0.08400
N 	N 	0.91713 0.87189 0.59388 -0.10000
N 	N 	0.80252 0.56096 0.31891 -0.10200
N 	N 	0.82472 0.61736 0.58996 -0.10800
N 	N 	0.87926 0.80977 0.32217 -0.10200
C 	C 	0.89599 0.07583 0.47028 0.01300
C 	C 	0.89876 0.11721 0.51919 -0.03900
C 	C 	0.87785 0.17770 0.52134 0.02100
C 	C 	0.84700 0.19176 0.47442 -0.08300
C 	C 	0.84016 0.14706 0.42538 0.02200
C 	C 	0.86492 0.08941 0.42335 -0.03800
C 	C 	0.92449 0.09839 0.56740 0.09700
C 	C 	0.80718 0.15981 0.37709 0.08600
C 	C 	0.85961 0.04491 0.37299 0.09900
C 	C 	0.89094 0.22772 0.57174 0.05400
N 	N 	0.85544 0.00935 0.33285 -0.10300
N 	N 	0.90139 0.26759 0.61197 -0.13300
N 	N 	0.78095 0.16991 0.33848 -0.10200
N 	N 	0.94504 0.08330 0.60582 -0.10400
C 	C 	0.36704 0.21741 0.46424 -0.07500
C 	C 	0.33333 0.16331 0.50288 0.01800
C 	C 	0.24046 0.11239 0.50534 -0.03700
C 	C 	0.17944 0.10691 0.46558 0.01200
C 	C 	0.21278 0.15819 0.42586 -0.03700
C 	C 	0.30673 0.21911 0.42811 0.02100
C 	C 	0.39338 0.15808 0.53914 0.08000
C 	C 	0.15037 0.14650 0.38195 0.09800
C 	C 	0.34138 0.28694 0.39561 0.08700
C 	C 	0.20800 0.06717 0.54926 0.09500
N 	N 	0.36893 0.34106 0.36968 -0.10800
N 	N 	0.18199 0.03105 0.58426 -0.10700
N 	N 	0.10052 0.13711 0.34695 -0.10300
N 	N 	0.44121 0.15390 0.56812 -0.11900
C 	C 	0.85158 0.77782 0.99473 0.02100
C 	C 	0.77909 0.71667 0.95257 -0.03900
C 	C 	0.72760 0.62439 0.95216 0.02400
C 	C 	0.75565 0.59273 0.98996 -0.07400
C 	C 	0.82846 0.65363 0.03187 0.01700
C 	C 	0.87344 0.74595 0.03561 -0.04200
C 	C 	0.75876 0.74855 0.90915 0.09900
C 	C 	0.85722 0.62123 0.07095 0.07300
C 	C 	0.94100 0.80808 0.08185 0.09900
C 	C 	0.64204 0.56281 0.91576 0.08800
N 	N 	0.99487 0.85763 0.11873 -0.10200
N 	N 	0.57343 0.51388 0.88697 -0.10500
N 	N 	0.88022 0.59543 0.10214 -0.11300
N 	N 	0.74248 0.77391 0.87449 -0.10400
C 	C 	0.88016 0.05579 0.99104 0.02000
C 	C 	0.87268 0.09710 0.03604 -0.04400
C 	C 	0.82003 0.12784 0.03096 0.01900
C 	C 	0.77350 0.11573 0.98089 -0.07900
C 	C 	0.78156 0.07466 0.93590 0.02100
C 	C 	0.83755 0.04792 0.94085 -0.03700
C 	C 	0.91910 0.10782 0.08748 0.09800
C 	C 	0.72958 0.05689 0.88479 0.05700
C 	C 	0.85159 0.01235 0.89428 0.09400
C 	C 	0.81470 0.17282 0.07707 0.08400
N 	N 	0.86295 0.98409 0.85716 -0.09500
N 	N 	0.81058 0.20866 0.11394 -0.10400
N 	N 	0.68812 0.04268 0.84402 -0.13400
N 	N 	0.95619 0.11631 0.12850 -0.10400
C 	C 	0.15171 0.06160 0.99280 0.01900
C 	C 	0.20915 0.08616 0.04110 -0.04300
C 	C 	0.29816 0.11456 0.04191 0.01600
C 	C 	0.33152 0.12301 0.99460 -0.07700
C 	C 	0.27499 0.10143 0.94642 0.02000
C 	C 	0.18523 0.07104 0.94557 -0.04000
C 	C 	0.17642 0.08228 0.08995 0.09800
C 	C 	0.30910 0.10987 0.89772 0.07500
C 	C 	0.12702 0.04892 0.89613 0.09800
C 	C 	0.35574 0.13579 0.09148 0.08100
N 	N 	0.08048 0.03124 0.85672 -0.10400
N 	N 	0.40149 0.15260 0.13105 -0.10400
N 	N 	0.33634 0.11667 0.85889 -0.11200
N 	N 	0.15023 0.07923 0.12889 -0.10300
