data_crystal

_cell_length_a 26.80760
_cell_length_b 28.26695
_cell_length_c 29.69049
_cell_angle_alpha 89.92792
_cell_angle_beta  89.92319
_cell_angle_gamma 90.90771

_symmetry_space_group_name_	'P 1'
_symmetry_space_group_name_H-M	'P 1'

loop_
_symmetry_equiv_pos_as_xyz
  x,y,z

loop_
_atom_site_label
_atom_site_type_symbol
_atom_site_fract_x
_atom_site_fract_y
_atom_site_fract_z
_atom_site_charge
Zn	Zn	0.52521 0.49101 0.98812 1.22200
C 	C 	0.57015 0.56625 0.93680 0.31400
O 	O 	0.58811 0.45990 0.97350 -0.44300
O 	O 	0.60937 0.55585 0.96109 -0.45700
O 	O 	0.62550 0.48946 0.03645 -0.50600
C 	C 	0.50090 0.57322 0.03826 0.31800
O 	O 	0.49739 0.52702 0.03764 -0.47400
O 	O 	0.54487 0.59374 0.03441 -0.48900
C 	C 	0.62592 0.46075 0.00162 0.33400
O 	O 	0.49928 0.42345 0.02850 -0.31700
Zn	Zn	0.60463 0.55519 0.03019 1.16700
O 	O 	0.52840 0.54200 0.94284 -0.43500
C 	C 	0.46801 0.41681 0.99579 0.25900
O 	O 	0.47027 0.44762 0.96354 -0.38100
Zn	Zn	0.30347 0.17662 0.04096 1.22500
C 	C 	0.33653 0.17047 0.13193 0.30300
O 	O 	0.25560 0.13434 0.07012 -0.45200
O 	O 	0.29470 0.18806 0.14726 -0.43900
O 	O 	0.20415 0.19439 0.08869 -0.49600
C 	C 	0.32499 0.27516 0.04675 0.32100
O 	O 	0.30830 0.24156 0.02016 -0.46800
O 	O 	0.31251 0.27518 0.08950 -0.48700
C 	C 	0.21223 0.14890 0.08433 0.32300
O 	O 	0.26957 0.15812 0.96932 -0.32200
Zn	Zn	0.25577 0.23782 0.11124 1.17400
O 	O 	0.35116 0.18020 0.09069 -0.44100
C 	C 	0.30908 0.13268 0.96462 0.26400
O 	O 	0.33977 0.13340 0.99817 -0.38400
C 	C 	0.45719 0.04025 0.74939 0.14800
C 	C 	0.49934 0.02214 0.77093 -0.11000
H 	H 	0.52863 0.00630 0.75107 0.07200
C 	C 	0.50268 0.02270 0.81804 0.05900
C 	C 	0.46448 0.04302 0.84343 -0.10200
C 	C 	0.42183 0.06038 0.82215 0.09000
C 	C 	0.41845 0.05946 0.77503 -0.11400
H 	H 	0.38541 0.07248 0.75839 0.08800
N 	N 	0.45261 0.03666 0.70127 -0.18600
C 	C 	0.42166 0.00262 0.68307 0.22400
C 	C 	0.42153 0.99460 0.63629 -0.10900
C 	C 	0.45460 0.02056 0.60872 0.07700
C 	C 	0.48350 0.05743 0.62749 -0.08700
C 	C 	0.48149 0.06541 0.67424 0.20300
C 	C 	0.38810 0.96194 0.61674 0.01900
C 	C 	0.38904 0.95375 0.57041 -0.06000
C 	C 	0.42654 0.97491 0.54308 0.00600
C 	C 	0.45805 0.01029 0.56217 -0.02200
C 	C 	0.49155 0.03677 0.53475 0.01300
C 	C 	0.51314 0.08624 0.59933 0.01300
C 	C 	0.51589 0.07701 0.55325 -0.05800
C 	C 	0.43164 0.96331 0.49664 0.01800
C 	C 	0.46555 0.98964 0.46945 -0.03700
C 	C 	0.49782 0.02403 0.48886 0.02500
O 	O 	0.50823 0.10005 0.69225 -0.20400
O 	O 	0.39311 0.97633 0.70963 -0.21700
H 	H 	0.53331 0.11654 0.61284 0.04200
H 	H 	0.53490 0.10256 0.53194 0.04500
H 	H 	0.36006 0.94400 0.63711 0.04000
H 	H 	0.35899 0.93300 0.55589 0.04600
C 	C 	0.53706 0.04336 0.46240 -0.05600
C 	C 	0.53883 0.03493 0.41613 0.00200
C 	C 	0.50354 0.00462 0.39581 -0.05400
C 	C 	0.46834 0.98042 0.42269 0.04600
C 	C 	0.40517 0.92479 0.47705 -0.05900
C 	C 	0.40585 0.91795 0.43049 0.00800
C 	C 	0.43639 0.94655 0.40294 -0.07700
C 	C 	0.50304 0.99770 0.34889 0.17100
N 	N 	0.46751 0.96876 0.32963 -0.17700
C 	C 	0.43614 0.94146 0.35577 0.19300
C 	C 	0.46022 0.97033 0.28173 0.13000
C 	C 	0.43582 0.00875 0.26238 -0.10500
C 	C 	0.43102 0.01204 0.21555 0.09700
C 	C 	0.45048 0.97658 0.18793 -0.10000
C 	C 	0.47472 0.93778 0.20716 0.03600
C 	C 	0.47933 0.93466 0.25420 -0.09700
O 	O 	0.53575 0.02031 0.32319 -0.19200
O 	O 	0.40439 0.91167 0.33656 -0.20500
H 	H 	0.42137 0.03641 0.28378 0.07100
H 	H 	0.49834 0.90504 0.26930 0.06600
H 	H 	0.56752 0.06299 0.47767 0.04500
H 	H 	0.56832 0.05141 0.39632 0.04500
H 	H 	0.38616 0.89865 0.49763 0.04500
H 	H 	0.38372 0.88934 0.41614 0.04200
H 	H 	0.44748 0.97955 0.15161 0.06200
H 	H 	0.46680 0.04326 0.87991 0.06400
Zn	Zn	0.61008 0.83983 0.99534 1.22100
C 	C 	0.57036 0.81390 0.08155 0.34800
O 	O 	0.65929 0.86478 0.03793 -0.45000
O 	O 	0.61113 0.79109 0.09182 -0.45600
O 	O 	0.70653 0.79850 0.03879 -0.50400
C 	C 	0.59166 0.74507 0.96483 0.30900
O 	O 	0.60466 0.78795 0.95239 -0.46200
O 	O 	0.59460 0.73266 0.00729 -0.49400
C 	C 	0.70227 0.84435 0.04430 0.32600
O 	O 	0.64901 0.88306 0.93636 -0.33500
Zn	Zn	0.65022 0.75439 0.04390 1.16900
O 	O 	0.55855 0.82026 0.03904 -0.43000
C 	C 	0.61066 0.91033 0.93912 0.31700
O 	O 	0.57821 0.89841 0.96952 -0.38700
Zn	Zn	0.21380 0.68239 0.99291 1.21800
C 	C 	0.20071 0.63685 0.07938 0.35300
O 	O 	0.18571 0.74691 0.99587 -0.46100
O 	O 	0.24020 0.65917 0.09535 -0.45500
O 	O 	0.18709 0.74781 0.07233 -0.48800
C 	C 	0.31726 0.67466 0.01785 0.31900
O 	O 	0.27811 0.65141 0.00222 -0.44500
O 	O 	0.31164 0.71639 0.03623 -0.50900
C 	C 	0.16893 0.76367 0.03426 0.31300
O 	O 	0.23724 0.69333 0.91622 -0.32000
Zn	Zn	0.25600 0.72811 0.07641 1.17100
O 	O 	0.17777 0.65335 0.04376 -0.43200
C 	C 	0.20010 0.66458 0.90787 0.26500
O 	O 	0.17568 0.64989 0.94284 -0.38300
C 	C 	0.10742 0.52079 0.69049 0.14000
C 	C 	0.13586 0.55216 0.71711 -0.10800
H 	H 	0.16460 0.57418 0.70166 0.08400
C 	C 	0.12725 0.55461 0.76373 0.08300
C 	C 	0.08961 0.52625 0.78332 -0.08900
C 	C 	0.06250 0.49368 0.75708 0.03000
C 	C 	0.07136 0.49117 0.71064 -0.09600
H 	H 	0.05044 0.46615 0.69012 0.06800
N 	N 	0.11448 0.51936 0.64250 -0.18100
C 	C 	0.14914 0.48955 0.62455 0.19800
C 	C 	0.14846 0.47904 0.57816 -0.08000
C 	C 	0.11191 0.49927 0.55070 0.06200
C 	C 	0.08029 0.53358 0.56879 -0.08100
C 	C 	0.08256 0.54366 0.61519 0.19800
C 	C 	0.18397 0.44918 0.55892 0.01100
C 	C 	0.18152 0.43767 0.51322 -0.05800
C 	C 	0.14094 0.45262 0.48653 0.01600
C 	C 	0.10742 0.48572 0.50495 -0.03000
C 	C 	0.07057 0.50665 0.47762 0.01800
C 	C 	0.04727 0.55743 0.54037 0.01100
C 	C 	0.04365 0.54527 0.49494 -0.05800
C 	C 	0.13442 0.43700 0.44124 0.01600
C 	C 	0.09703 0.45757 0.41418 -0.02900
C 	C 	0.06318 0.49010 0.43291 0.01200
O 	O 	0.05250 0.57519 0.63276 -0.20000
O 	O 	0.18190 0.46925 0.65109 -0.20100
H 	H 	0.02501 0.58614 0.55313 0.04400
H 	H 	0.02180 0.56741 0.47309 0.04700
H 	H 	0.21445 0.43586 0.57895 0.04400
H 	H 	0.21255 0.41932 0.49851 0.04600
C 	C 	0.02131 0.50352 0.40720 -0.04700
C 	C 	0.01779 0.49138 0.36176 0.02200
C 	C 	0.05406 0.46291 0.34177 -0.08500
C 	C 	0.09232 0.44426 0.36838 0.06200
C 	C 	0.16279 0.39977 0.42296 -0.05800
C 	C 	0.15973 0.38878 0.37717 0.01000
C 	C 	0.12541 0.41181 0.34940 -0.08300
C 	C 	0.05262 0.45243 0.29544 0.19900
N 	N 	0.08890 0.42518 0.27642 -0.18100
C 	C 	0.12312 0.40258 0.30278 0.19800
C 	C 	0.09467 0.42505 0.22828 0.12600
C 	C 	0.06715 0.39281 0.20186 -0.08800
C 	C 	0.06706 0.39734 0.15475 0.01400
C 	C 	0.09509 0.43379 0.13422 -0.06300
C 	C 	0.12197 0.46642 0.16060 0.01900
C 	C 	0.12285 0.46112 0.20748 -0.09200
O 	O 	0.01755 0.47056 0.26988 -0.20300
O 	O 	0.15508 0.37348 0.28418 -0.21300
H 	H 	0.04432 0.36570 0.21799 0.06500
H 	H 	0.14274 0.48685 0.22804 0.06300
H 	H 	0.99027 0.52132 0.42261 0.03100
H 	H 	0.98617 0.50342 0.34243 0.02800
H 	H 	0.18528 0.37761 0.44419 0.04600
H 	H 	0.18318 0.36130 0.36370 0.04000
H 	H 	0.09368 0.43834 0.09796 0.05500
H 	H 	0.08229 0.52876 0.81917 0.05900
Zn	Zn	0.90127 0.33518 0.93718 1.22400
C 	C 	0.91897 0.37479 0.84863 0.36300
O 	O 	0.83590 0.35367 0.95998 -0.45700
O 	O 	0.89169 0.34223 0.82853 -0.45400
O 	O 	0.80709 0.37101 0.88973 -0.48900
C 	C 	0.89538 0.24472 0.89538 0.31600
O 	O 	0.92559 0.28050 0.90460 -0.45800
O 	O 	0.85346 0.25183 0.87371 -0.49200
C 	C 	0.80202 0.37222 0.93373 0.31100
O 	O 	0.91652 0.29299 0.00511 -0.33200
Zn	Zn	0.82886 0.31408 0.85890 1.17400
O 	O 	0.91160 0.38447 0.89128 -0.44100
C 	C 	0.94853 0.32688 0.01308 0.33400
O 	O 	0.95139 0.35966 0.98284 -0.39300
Zn	Zn	0.97126 0.99800 0.03022 1.21600
C 	C 	0.01961 0.90898 0.04732 0.32500
O 	O 	0.91237 0.95704 0.03011 -0.45300
O 	O 	0.98445 0.90322 0.07779 -0.46000
O 	O 	0.90007 0.96670 0.10516 -0.50400
C 	C 	0.04487 0.02143 0.09528 0.33300
O 	O 	0.00909 0.03802 0.07054 -0.47400
O 	O 	0.03566 0.98592 0.12243 -0.48500
C 	C 	0.88309 0.95409 0.06532 0.32800
O 	O 	0.91965 0.06355 0.02369 -0.31900
Zn	Zn	0.96946 0.95609 0.12337 1.16800
O 	O 	0.02070 0.94733 0.02195 -0.42900
C 	C 	0.93751 0.06810 0.98334 0.26400
O 	O 	0.96805 0.03538 0.97064 -0.38300
C 	C 	0.92693 0.11040 0.95594 -0.05500
C 	C 	0.96579 0.13829 0.93668 -0.00200
C 	C 	0.95422 0.18032 0.91393 -0.00300
H 	H 	0.98391 0.20129 0.89856 0.04300
C 	C 	0.90541 0.19742 0.91425 -0.09200
C 	C 	0.86720 0.17096 0.93605 0.03100
C 	C 	0.87823 0.12768 0.95624 -0.03000
H 	H 	0.84956 0.10918 0.97533 0.05100
C 	C 	0.81631 0.18980 0.94090 0.01000
C 	C 	0.80649 0.22463 0.97324 -0.05900
C 	C 	0.75871 0.24346 0.97678 -0.03600
C 	C 	0.72043 0.22704 0.94864 -0.04500
C 	C 	0.72985 0.19175 0.91691 -0.03300
C 	C 	0.77768 0.17309 0.91300 -0.04900
C 	C 	0.01854 0.12924 0.94737 0.04200
C 	C 	0.03881 0.14628 0.98794 -0.05700
C 	C 	0.09044 0.14681 0.99449 -0.01800
C 	C 	0.12201 0.12958 0.96098 -0.03800
C 	C 	0.10193 0.11153 0.92096 -0.01300
C 	C 	0.05030 0.11136 0.91408 -0.05200
H 	H 	0.10599 0.16111 0.02530 0.04600
H 	H 	0.16196 0.12988 0.96617 0.04900
H 	H 	0.12638 0.09783 0.89522 0.03900
H 	H 	0.03509 0.09846 0.88254 0.05400
H 	H 	0.01468 0.16064 0.01365 0.06100
H 	H 	0.83582 0.23714 0.99544 0.05100
H 	H 	0.75137 0.27080 0.00130 0.04400
H 	H 	0.78484 0.14603 0.88811 0.04000
H 	H 	0.70014 0.17897 0.89525 0.03000
H 	H 	0.68346 0.24165 0.95143 0.03400
C 	C 	0.02626 0.46087 0.77868 0.07800
C 	C 	0.97641 0.45917 0.76424 -0.12100
C 	C 	0.94168 0.42970 0.78615 0.07700
C 	C 	0.95635 0.40213 0.82298 -0.19800
C 	C 	0.00653 0.40292 0.83683 0.24700
C 	C 	0.04129 0.43211 0.81461 -0.16100
H 	H 	0.90311 0.42927 0.77526 0.00900
H 	H 	0.07986 0.43271 0.82556 0.08500
H 	H 	0.96441 0.48126 0.73658 0.05900
O 	O 	0.02135 0.37608 0.87281 -0.30000
H 	H 	0.03117 0.34530 0.85977 0.15700
C 	C 	0.03243 0.36849 0.12724 0.07800
C 	C 	0.98240 0.38175 0.12354 -0.11700
C 	C 	0.95284 0.36402 0.08847 0.07000
C 	C 	0.97294 0.33263 0.05700 -0.18000
C 	C 	0.02129 0.31525 0.06365 0.23800
C 	C 	0.05110 0.33358 0.09849 -0.15900
H 	H 	0.91541 0.37717 0.08396 0.01700
H 	H 	0.08947 0.32254 0.10163 0.07100
H 	H 	0.96748 0.40829 0.14593 0.06000
O 	O 	0.04085 0.28324 0.03405 -0.29900
H 	H 	0.03264 0.25171 0.04703 0.15100
C 	C 	0.13232 0.80280 0.03524 -0.08500
C 	C 	0.09723 0.80968 0.00018 0.02700
C 	C 	0.06256 0.84642 0.00355 -0.00700
H 	H 	0.03660 0.85245 0.97623 0.03700
C 	C 	0.05914 0.87330 0.04309 -0.08200
C 	C 	0.09231 0.86449 0.07910 0.02200
C 	C 	0.13032 0.83159 0.07369 -0.01800
H 	H 	0.15703 0.82677 0.10064 0.03100
C 	C 	0.08591 0.88703 0.12367 0.01200
C 	C 	0.12190 0.91954 0.13958 -0.04400
C 	C 	0.11756 0.93861 0.18281 -0.01800
C 	C 	0.07806 0.92446 0.21076 -0.04200
C 	C 	0.04327 0.89065 0.19579 -0.04900
C 	C 	0.04765 0.87129 0.15267 -0.07200
C 	C 	0.09317 0.77638 0.96206 0.01800
C 	C 	0.10846 0.79055 0.91882 -0.04200
C 	C 	0.10165 0.76004 0.88223 -0.01900
C 	C 	0.07960 0.71536 0.88866 -0.03500
C 	C 	0.06478 0.70093 0.93175 -0.01000
C 	C 	0.07132 0.73138 0.96842 -0.05400
H 	H 	0.11326 0.77108 0.84886 0.03600
H 	H 	0.07409 0.69190 0.86026 0.04000
H 	H 	0.04808 0.66620 0.93672 0.04100
H 	H 	0.05929 0.72017 0.00166 0.06000
H 	H 	0.12524 0.82525 0.91357 0.04200
H 	H 	0.15358 0.92930 0.11889 0.04000
H 	H 	0.14491 0.96425 0.19469 0.03500
H 	H 	0.02146 0.84404 0.14183 0.04500
H 	H 	0.01317 0.87914 0.21774 0.01800
H 	H 	0.07465 0.93937 0.24416 0.03100
C 	C 	0.19593 0.63915 0.86494 -0.03100
C 	C 	0.20308 0.59015 0.86423 -0.02500
C 	C 	0.18618 0.56319 0.82783 -0.01100
C 	C 	0.15937 0.58451 0.79291 -0.07300
C 	C 	0.15578 0.63421 0.79171 0.15900
C 	C 	0.17539 0.66146 0.82723 -0.08600
H 	H 	0.19028 0.52511 0.82855 0.03700
H 	H 	0.17140 0.69952 0.82682 0.06500
H 	H 	0.21927 0.57260 0.89306 0.04400
O 	O 	0.13172 0.65600 0.75681 -0.28500
H 	H 	0.09638 0.65802 0.76649 0.14800
C 	C 	0.14230 0.51006 0.13995 0.06100
C 	C 	0.19402 0.51723 0.13608 -0.09800
C 	C 	0.21312 0.55926 0.11742 0.06000
C 	C 	0.18063 0.59448 0.10252 -0.17400
C 	C 	0.12870 0.58774 0.10756 0.22500
C 	C 	0.10979 0.54545 0.12579 -0.15000
H 	H 	0.25307 0.56408 0.11383 0.02000
H 	H 	0.06982 0.54035 0.12934 0.08400
H 	H 	0.21937 0.49017 0.14729 0.05400
O 	O 	0.09640 0.62226 0.09431 -0.28900
H 	H 	0.09199 0.64259 0.12118 0.14900
C 	C 	0.74711 0.87379 0.05112 -0.08500
C 	C 	0.77646 0.86910 0.09014 0.02200
C 	C 	0.81994 0.89678 0.09508 -0.01300
H 	H 	0.84313 0.89222 0.12464 0.02600
C 	C 	0.83427 0.92944 0.06156 -0.09100
C 	C 	0.80348 0.93525 0.02320 0.03700
C 	C 	0.76051 0.90704 0.01826 -0.01400
H 	H 	0.73731 0.91110 0.98863 0.04200
C 	C 	0.81380 0.97228 0.98913 -0.00400
C 	C 	0.84474 0.96228 0.95221 -0.03100
C 	C 	0.84631 0.99274 0.91507 -0.03900
C 	C 	0.81533 0.03199 0.91360 -0.01600
C 	C 	0.78371 0.04158 0.94980 -0.03100
C 	C 	0.78393 0.01263 0.98801 -0.03100
C 	C 	0.76140 0.83598 0.12633 0.00900
C 	C 	0.78317 0.79128 0.12922 -0.05500
C 	C 	0.76723 0.75916 0.16230 -0.03400
C 	C 	0.72967 0.77159 0.19260 -0.04600
C 	C 	0.70817 0.81626 0.19003 -0.02400
C 	C 	0.72404 0.84850 0.15704 -0.05000
H 	H 	0.78384 0.72457 0.16435 0.02100
H 	H 	0.71725 0.74662 0.21807 0.03000
H 	H 	0.67910 0.82582 0.21348 0.03100
H 	H 	0.70706 0.88297 0.15504 0.04500
H 	H 	0.81196 0.78129 0.10559 0.03700
H 	H 	0.86645 0.93028 0.95181 0.04700
H 	H 	0.87068 0.98527 0.88696 0.03700
H 	H 	0.75901 0.02013 0.01577 0.05200
H 	H 	0.75950 0.07183 0.94852 0.03700
H 	H 	0.81596 0.05509 0.88450 0.03400
C 	C 	0.54230 0.99629 0.84111 0.01600
C 	C 	0.54674 0.94753 0.83354 -0.07500
C 	C 	0.57388 0.91982 0.86344 0.04300
C 	C 	0.59641 0.94051 0.90132 -0.14500
C 	C 	0.59660 0.98996 0.90628 0.18400
C 	C 	0.56972 0.01778 0.87603 -0.10600
H 	H 	0.57435 0.88178 0.85896 0.02800
H 	H 	0.56775 0.05565 0.88129 0.06700
H 	H 	0.52636 0.93062 0.80632 0.05100
O 	O 	0.62016 0.01080 0.94231 -0.28500
H 	H 	0.65461 0.01790 0.93179 0.14700
C 	C 	0.49803 0.90208 0.17792 0.05400
C 	C 	0.54941 0.89408 0.18089 -0.09500
C 	C 	0.57242 0.86355 0.15066 0.05900
C 	C 	0.54445 0.84087 0.11680 -0.17300
C 	C 	0.49247 0.84723 0.11496 0.21900
C 	C 	0.46949 0.87794 0.14537 -0.14800
H 	H 	0.61238 0.85902 0.15241 0.02400
H 	H 	0.42963 0.88338 0.14332 0.07400
H 	H 	0.57178 0.91259 0.20582 0.05500
O 	O 	0.46428 0.82441 0.08291 -0.29400
H 	H 	0.45222 0.79485 0.09760 0.13700
C 	C 	0.17116 0.11418 0.09013 -0.08600
C 	C 	0.13565 0.11843 0.12509 0.02300
C 	C 	0.09717 0.08451 0.12926 -0.01200
H 	H 	0.06930 0.08829 0.15548 0.03700
C 	C 	0.09238 0.04771 0.09786 -0.08500
C 	C 	0.12868 0.04299 0.06358 0.02100
C 	C 	0.16835 0.07546 0.06087 -0.01200
H 	H 	0.19577 0.07194 0.03421 0.04900
C 	C 	0.12385 0.00648 0.02818 0.02800
C 	C 	0.09328 0.01465 0.99075 -0.04800
C 	C 	0.09446 0.98416 0.95371 -0.02100
C 	C 	0.12573 0.94508 0.95409 -0.03100
C 	C 	0.15682 0.93714 0.99098 -0.02400
C 	C 	0.15675 0.96832 0.02751 -0.04800
C 	C 	0.13739 0.15894 0.15646 0.01300
C 	C 	0.10437 0.19657 0.15090 -0.05000
C 	C 	0.10753 0.23593 0.17930 -0.02800
C 	C 	0.14359 0.23789 0.21327 -0.05300
C 	C 	0.17636 0.20035 0.21908 -0.03300
C 	C 	0.17319 0.16081 0.19089 -0.05800
H 	H 	0.08214 0.26497 0.17494 0.03400
H 	H 	0.14613 0.26848 0.23509 0.04400
H 	H 	0.20429 0.20195 0.24535 0.03300
H 	H 	0.19889 0.13200 0.19537 0.04700
H 	H 	0.07681 0.19557 0.12423 0.04500
H 	H 	0.06789 0.04394 0.99082 0.04800
H 	H 	0.07050 0.99040 0.92507 0.03900
H 	H 	0.18366 0.96406 0.05426 0.04000
H 	H 	0.18149 0.90719 0.99101 0.03100
H 	H 	0.12592 0.92099 0.92579 0.03600
C 	C 	0.32325 0.11255 0.92116 -0.03000
C 	C 	0.33086 0.06381 0.91770 -0.02600
C 	C 	0.35824 0.04583 0.88175 -0.00800
C 	C 	0.37963 0.07668 0.84976 -0.07500
C 	C 	0.36726 0.12491 0.85047 0.16000
C 	C 	0.33839 0.14257 0.88589 -0.08300
H 	H 	0.36617 0.00838 0.88067 0.03900
H 	H 	0.33131 0.18016 0.88776 0.06900
H 	H 	0.31810 0.04021 0.94425 0.04300
O 	O 	0.38469 0.15503 0.81755 -0.28500
H 	H 	0.41732 0.16718 0.82867 0.14500
C 	C 	0.36122 0.13265 0.15711 -0.04900
C 	C 	0.41296 0.12699 0.15337 -0.01900
C 	C 	0.43563 0.08755 0.17241 -0.01200
C 	C 	0.40680 0.05341 0.19539 -0.07400
C 	C 	0.35506 0.05950 0.20005 0.15800
C 	C 	0.33244 0.09898 0.18087 -0.07600
H 	H 	0.47559 0.08341 0.16918 0.03900
H 	H 	0.29233 0.10260 0.18325 0.06900
H 	H 	0.43553 0.15289 0.13532 0.04300
O 	O 	0.32626 0.02580 0.22150 -0.28500
H 	H 	0.32451 0.03622 0.25334 0.14700
C 	C 	0.42579 0.38366 0.00047 -0.03900
C 	C 	0.38447 0.39516 0.02762 0.00800
C 	C 	0.35046 0.35959 0.04064 -0.00200
H 	H 	0.31856 0.36850 0.06131 0.03100
C 	C 	0.35861 0.31234 0.02889 -0.09700
C 	C 	0.39990 0.30096 0.00140 0.05500
C 	C 	0.43107 0.33734 0.98501 -0.05100
H 	H 	0.46196 0.32892 0.96306 0.04900
C 	C 	0.41496 0.25129 0.99482 -0.00800
C 	C 	0.43316 0.22515 0.03140 -0.04200
C 	C 	0.45281 0.18021 0.02442 -0.01100
C 	C 	0.45558 0.16168 0.98090 -0.03800
C 	C 	0.43828 0.18784 0.94431 -0.01800
C 	C 	0.41731 0.23225 0.95122 -0.04200
C 	C 	0.37789 0.44371 0.04465 0.01900
C 	C 	0.39837 0.45690 0.08635 -0.04400
C 	C 	0.38739 0.50087 0.10507 -0.01700
C 	C 	0.35621 0.53193 0.08221 -0.03300
C 	C 	0.33568 0.51894 0.04070 -0.02200
C 	C 	0.34670 0.47503 0.02173 -0.03900
H 	H 	0.40226 0.51046 0.13771 0.03100
H 	H 	0.34771 0.56592 0.09681 0.04000
H 	H 	0.31091 0.54274 0.02340 0.04500
H 	H 	0.33021 0.46494 0.98980 0.03900
H 	H 	0.42191 0.43269 0.10460 0.05000
H 	H 	0.43301 0.24006 0.06499 0.05100
H 	H 	0.46662 0.16007 0.05267 0.03900
H 	H 	0.40414 0.25237 0.92265 0.04400
H 	H 	0.44157 0.17390 0.91057 0.03200
H 	H 	0.47133 0.12712 0.97549 0.04500
C 	C 	0.45544 0.60119 0.03259 -0.07900
C 	C 	0.44042 0.63396 0.06555 0.01900
C 	C 	0.39517 0.65770 0.06025 -0.01800
H 	H 	0.38265 0.68137 0.08650 0.02300
C 	C 	0.36604 0.65102 0.02130 -0.08300
C 	C 	0.38325 0.62087 0.98681 0.02100
C 	C 	0.42631 0.59435 0.99391 -0.02600
H 	H 	0.43800 0.56928 0.96857 0.03900
C 	C 	0.35942 0.61992 0.94176 0.01900
C 	C 	0.35761 0.66139 0.91575 -0.04400
C 	C 	0.34100 0.65949 0.87117 -0.01000
C 	C 	0.32627 0.61626 0.85226 -0.03500
C 	C 	0.32768 0.57489 0.87802 -0.01800
C 	C 	0.34389 0.57664 0.92273 -0.04500
C 	C 	0.47218 0.64449 0.10515 0.01100
C 	C 	0.49486 0.68936 0.10991 -0.05400
C 	C 	0.52454 0.69939 0.14749 -0.03200
C 	C 	0.53167 0.66482 0.18047 -0.04500
C 	C 	0.50893 0.62022 0.17603 -0.02900
C 	C 	0.47907 0.61006 0.13858 -0.05400
H 	H 	0.54188 0.73400 0.15114 0.03400
H 	H 	0.55471 0.67263 0.20951 0.03000
H 	H 	0.51441 0.59352 0.20164 0.02700
H 	H 	0.46165 0.57547 0.13538 0.04100
H 	H 	0.48937 0.71641 0.08470 0.04300
H 	H 	0.36925 0.69491 0.92998 0.04900
H 	H 	0.33959 0.69155 0.85129 0.04000
H 	H 	0.34558 0.54431 0.94217 0.04300
H 	H 	0.31603 0.54146 0.86338 0.03600
H 	H 	0.31327 0.61488 0.81778 0.04400
C 	C 	0.67196 0.43538 0.99004 -0.09500
C 	C 	0.66961 0.38901 0.97229 0.03000
C 	C 	0.71220 0.36954 0.95265 -0.02200
H 	H 	0.71009 0.33454 0.93780 0.01900
C 	C 	0.75787 0.39404 0.95370 -0.08700
C 	C 	0.76138 0.43848 0.97498 0.02700
C 	C 	0.71824 0.45940 0.99223 -0.02100
H 	H 	0.72053 0.49469 0.00646 0.02400
C 	C 	0.81022 0.46276 0.98003 0.00400
C 	C 	0.83256 0.48552 0.94294 -0.04400
C 	C 	0.88098 0.50427 0.94644 -0.01700
C 	C 	0.90728 0.50027 0.98688 -0.04200
C 	C 	0.88511 0.47772 0.02395 -0.01400
C 	C 	0.83662 0.45909 0.02064 -0.04000
C 	C 	0.62458 0.35875 0.97818 0.00900
C 	C 	0.60978 0.34442 0.02157 -0.03700
C 	C 	0.57354 0.30874 0.02695 -0.01000
C 	C 	0.55235 0.28696 0.98917 -0.04600
C 	C 	0.56541 0.30244 0.94596 -0.02100
C 	C 	0.60117 0.33849 0.94039 -0.04400
H 	H 	0.56272 0.29722 0.06039 0.03500
H 	H 	0.52581 0.25815 0.99335 0.04200
H 	H 	0.54825 0.28607 0.91678 0.03200
H 	H 	0.61205 0.34947 0.90676 0.04100
H 	H 	0.62761 0.35971 0.05098 0.04500
H 	H 	0.81293 0.48755 0.91116 0.04500
H 	H 	0.89831 0.52145 0.91768 0.03500
H 	H 	0.82000 0.44088 0.04922 0.04200
H 	H 	0.90567 0.47432 0.05511 0.03300
H 	H 	0.94489 0.51448 0.98943 0.04100
C 	C 	0.58095 0.70888 0.93081 -0.09000
C 	C 	0.53257 0.68927 0.92768 0.02600
C 	C 	0.52663 0.64074 0.91906 -0.01800
H 	H 	0.48990 0.62435 0.92079 0.04800
C 	C 	0.56912 0.61271 0.91409 -0.08800
C 	C 	0.61481 0.63553 0.90308 0.01900
C 	C 	0.62081 0.68391 0.91246 -0.02800
H 	H 	0.65741 0.70062 0.91004 0.02500
C 	C 	0.65768 0.60796 0.88673 0.01300
C 	C 	0.65356 0.58159 0.84683 -0.04100
C 	C 	0.69305 0.55344 0.83272 -0.02100
C 	C 	0.73671 0.55145 0.85830 -0.03400
C 	C 	0.74101 0.57764 0.89806 -0.02700
C 	C 	0.70168 0.60589 0.91231 -0.04300
C 	C 	0.48873 0.71874 0.93629 0.01600
C 	C 	0.46939 0.74694 0.90175 -0.04500
C 	C 	0.43183 0.77925 0.91124 -0.02100
C 	C 	0.41342 0.78340 0.95514 -0.03200
C 	C 	0.43226 0.75497 0.98950 -0.01800
C 	C 	0.46987 0.72271 0.98011 -0.04800
H 	H 	0.41706 0.80113 0.88461 0.03600
H 	H 	0.38428 0.80834 0.96243 0.03700
H 	H 	0.41769 0.75788 0.02335 0.04600
H 	H 	0.48535 0.70176 0.00696 0.06000
H 	H 	0.48406 0.74441 0.86784 0.04600
H 	H 	0.61972 0.58271 0.82698 0.04500
H 	H 	0.68976 0.53307 0.80199 0.03300
H 	H 	0.70497 0.62542 0.94357 0.01200
H 	H 	0.77477 0.57594 0.91792 0.02700
H 	H 	0.76722 0.52966 0.84728 0.03500
