data_crystal

_cell_length_a 36.71894
_cell_length_b 41.83802
_cell_length_c 22.27791
_cell_angle_alpha 89.82298
_cell_angle_beta  89.99988
_cell_angle_gamma 89.99987

_symmetry_space_group_name_	'P 1'
_symmetry_space_group_name_H-M	'P 1'

loop_
_symmetry_equiv_pos_as_xyz
  x,y,z

loop_
_atom_site_label
_atom_site_type_symbol
_atom_site_fract_x
_atom_site_fract_y
_atom_site_fract_z
_atom_site_charge
C 	C 	0.48407 0.56513 0.83475 0.10200
N 	N 	0.46813 0.53834 0.85572 -0.17200
C 	C 	0.43223 0.54129 0.84465 0.10300
C 	C 	0.40445 0.52210 0.87674 -0.07500
C 	C 	0.40900 0.48715 0.88282 0.09100
C 	C 	0.37056 0.53725 0.89800 0.04300
C 	C 	0.36862 0.54969 0.95627 -0.05500
C 	C 	0.33565 0.56164 0.97815 -0.02600
C 	C 	0.30466 0.56191 0.94133 0.02200
C 	C 	0.33965 0.53770 0.86109 -0.05000
N 	N 	0.43317 0.47035 0.85008 -0.12600
C 	C 	0.39658 0.46951 0.93127 -0.05900
C 	C 	0.43548 0.44156 0.87719 0.09000
C 	C 	0.46507 0.41858 0.86456 -0.07300
C 	C 	0.46046 0.38456 0.88116 0.04000
C 	C 	0.42572 0.33533 0.87582 -0.03000
C 	C 	0.48478 0.36999 0.92139 -0.05100
C 	C 	0.47946 0.33822 0.93900 -0.03700
C 	C 	0.44972 0.32088 0.91668 0.02200
N 	N 	0.51637 0.45604 0.84748 -0.17200
C 	C 	0.54998 0.45335 0.82384 0.10200
C 	C 	0.55338 0.42472 0.79325 -0.06000
C 	C 	0.52024 0.40934 0.79864 -0.06000
C 	C 	0.58124 0.47227 0.84597 -0.07300
C 	C 	0.61622 0.45645 0.86012 0.04100
C 	C 	0.68197 0.45496 0.85025 -0.02900
C 	C 	0.68413 0.43411 0.89952 0.02100
C 	C 	0.65208 0.42285 0.92657 -0.03600
C 	C 	0.61820 0.43407 0.90703 -0.05200
N 	N 	0.55008 0.52423 0.82940 -0.12700
C 	C 	0.57873 0.55388 0.89921 -0.06000
C 	C 	0.55112 0.55284 0.85703 0.09000
C 	C 	0.52051 0.57573 0.85506 -0.07400
C 	C 	0.52700 0.60967 0.86964 0.04000
C 	C 	0.54837 0.62866 0.83149 -0.05000
C 	C 	0.55372 0.66099 0.84436 -0.03700
C 	C 	0.53791 0.67451 0.89570 0.02100
C 	C 	0.51716 0.65530 0.93455 -0.03000
C 	C 	0.51152 0.62304 0.92132 -0.05200
C 	C 	0.45823 0.58538 0.80993 -0.06000
C 	C 	0.42507 0.57016 0.81632 -0.06100
C 	C 	0.30685 0.55016 0.88256 -0.03000
C 	C 	0.41360 0.44026 0.92768 -0.05900
C 	C 	0.49819 0.42930 0.83235 0.10200
C 	C 	0.59583 0.52464 0.89679 -0.05900
C 	C 	0.57777 0.50727 0.85322 0.09000
C 	C 	0.64814 0.46609 0.83061 -0.05000
H 	H 	0.47905 0.52402 0.88979 0.09400
H 	H 	0.51014 0.47010 0.88479 0.09300
H 	H 	0.56969 0.67565 0.81403 0.04700
H 	H 	0.50509 0.66547 0.97455 0.05200
H 	H 	0.56042 0.61847 0.79149 0.05000
H 	H 	0.49509 0.60846 0.95110 0.04800
H 	H 	0.33404 0.57025 0.02387 0.03600
H 	H 	0.34097 0.52812 0.81601 0.05400
H 	H 	0.28298 0.55015 0.85396 0.05700
H 	H 	0.39240 0.54935 0.98506 0.04800
H 	H 	0.49816 0.32721 0.97050 0.04600
H 	H 	0.50754 0.38337 0.93940 0.04600
C 	C 	0.43105 0.36705 0.85817 -0.05000
H 	H 	0.40285 0.32201 0.85803 0.05100
H 	H 	0.70659 0.46348 0.82869 0.05100
H 	H 	0.64681 0.48303 0.79380 0.05200
H 	H 	0.59365 0.42631 0.92977 0.04600
H 	H 	0.65351 0.40655 0.96437 0.04400
H 	H 	0.46145 0.61096 0.80461 0.05200
H 	H 	0.39905 0.58230 0.81668 0.05400
H 	H 	0.38577 0.47961 0.97224 0.05100
H 	H 	0.41794 0.42439 0.96550 0.05200
H 	H 	0.57893 0.41274 0.78420 0.05300
H 	H 	0.51651 0.38379 0.79418 0.05300
H 	H 	0.57906 0.56947 0.93790 0.05100
H 	H 	0.61138 0.51430 0.93330 0.05200
H 	H 	0.41226 0.37807 0.82685 0.05200
Co	Co	0.39778 0.13070 0.95654 1.18700
Co	Co	0.40798 0.05511 0.95857 1.12200
O 	O 	0.38739 0.17833 0.96077 -0.37600
O 	O 	0.44243 0.16793 0.98350 -0.28800
O 	O 	0.35190 0.11076 0.92957 -0.41400
O 	O 	0.40432 0.07284 0.87614 -0.42800
C 	C 	0.33641 0.08753 0.96028 0.33200
C 	C 	0.41823 0.19001 0.97704 0.31200
O 	O 	0.35619 0.06518 0.98611 -0.42300
O 	O 	0.42741 0.12292 0.88620 -0.42400
C 	C 	0.42657 0.09541 0.85811 0.33300
O 	O 	0.39531 0.11814 0.03962 -0.42300
O 	O 	0.43555 0.07845 0.02097 -0.44700
C 	C 	0.41811 0.09649 0.05950 0.34200
C 	C 	0.52036 0.02568 0.50485 0.02000
C 	C 	0.54072 0.99688 0.50137 0.01500
C 	C 	0.49261 0.03183 0.46291 -0.05200
C 	C 	0.48395 0.00902 0.41904 0.01900
C 	C 	0.53275 0.97444 0.45633 -0.05000
C 	C 	0.50400 0.98002 0.41596 0.02000
H 	H 	0.54841 0.95256 0.45336 0.05800
H 	H 	0.47745 0.05401 0.46503 0.06100
C 	C 	0.49341 0.95667 0.37381 -0.01200
C 	C 	0.46534 0.96238 0.33238 0.01800
C 	C 	0.46767 0.94262 0.28051 -0.04200
C 	C 	0.49789 0.92223 0.28127 0.02100
S 	S 	0.52112 0.92933 0.34417 0.03000
H 	H 	0.45079 0.94568 0.24115 0.05500
C 	C 	0.45452 0.01377 0.37923 -0.01300
C 	C 	0.44599 0.99133 0.33468 0.01900
C 	C 	0.42714 0.00498 0.28486 -0.04700
C 	C 	0.42161 0.03796 0.29026 0.03500
S 	S 	0.44050 0.04942 0.35481 0.02400
H 	H 	0.42226 0.99243 0.24329 0.05900
C 	C 	0.55407 0.04068 0.59571 0.01900
C 	C 	0.52820 0.04759 0.55110 -0.01700
S 	S 	0.49765 0.07229 0.58114 0.03600
C 	C 	0.51638 0.07684 0.64871 0.03300
C 	C 	0.54793 0.05794 0.64994 -0.05700
C 	C 	0.56821 0.99100 0.54440 -0.01000
C 	C 	0.57378 0.01184 0.59294 0.01400
C 	C 	0.58897 0.99628 0.64432 -0.04900
C 	C 	0.59435 0.96343 0.63647 0.03600
S 	S 	0.58059 0.95458 0.56714 0.01500
H 	H 	0.59099 0.00738 0.68795 0.06300
H 	H 	0.56333 0.05405 0.69066 0.05900
Co	Co	0.59911 0.86542 0.95761 1.18400
Co	Co	0.51567 0.87172 0.93517 1.11200
O 	O 	0.65409 0.86084 0.96469 -0.36800
O 	O 	0.63844 0.90922 0.94936 -0.31200
O 	O 	0.57869 0.82225 0.96981 -0.39900
O 	O 	0.52526 0.86255 0.02136 -0.44200
C 	C 	0.55462 0.81006 0.93254 0.32900
C 	C 	0.66521 0.88968 0.95628 0.31600
O 	O 	0.53294 0.82893 0.90153 -0.41600
O 	O 	0.58134 0.88555 0.02998 -0.43200
C 	C 	0.54924 0.87876 0.05265 0.33400
O 	O 	0.59301 0.86853 0.87213 -0.42400
O 	O 	0.54503 0.90157 0.88575 -0.45100
C 	C 	0.57096 0.89042 0.85113 0.34400
Co	Co	0.09891 0.63047 0.02316 1.18100
Co	Co	0.01424 0.62928 0.00810 1.10800
O 	O 	0.15403 0.62992 0.03229 -0.37400
O 	O 	0.13345 0.58433 0.00723 -0.30800
O 	O 	0.08311 0.67468 0.03894 -0.41300
O 	O 	0.03915 0.59841 0.95426 -0.44200
C 	C 	0.05751 0.68845 0.00662 0.31900
C 	C 	0.16208 0.60066 0.02032 0.32000
O 	O 	0.03480 0.67110 0.97474 -0.40500
O 	O 	0.08889 0.62906 0.93838 -0.42700
C 	C 	0.06542 0.60807 0.91868 0.34600
O 	O 	0.08338 0.61116 0.09782 -0.40500
O 	O 	0.02770 0.63519 0.09343 -0.46100
C 	C 	0.05101 0.61643 0.12097 0.33000
C 	C 	0.98305 0.48741 0.48858 0.02300
C 	C 	0.00462 0.51559 0.48571 0.01800
C 	C 	0.99050 0.46404 0.53233 -0.04800
C 	C 	0.01797 0.46923 0.57524 0.02100
C 	C 	0.03319 0.52005 0.52676 -0.04900
C 	C 	0.03934 0.49751 0.57259 0.01900
H 	H 	0.04993 0.54132 0.52401 0.05900
H 	H 	0.97447 0.44232 0.53386 0.05900
C 	C 	0.06578 0.50294 0.61750 -0.01100
C 	C 	0.06938 0.48218 0.66688 0.01900
C 	C 	0.08355 0.49763 0.71900 -0.04500
C 	C 	0.09010 0.53030 0.71075 0.03600
S 	S 	0.07852 0.53917 0.64030 0.02100
H 	H 	0.08415 0.48666 0.76297 0.06500
C 	C 	0.02420 0.44713 0.62217 -0.01200
C 	C 	0.04880 0.45382 0.66881 0.01900
C 	C 	0.04070 0.43686 0.72285 -0.04200
C 	C 	0.00914 0.41821 0.71913 0.01900
S 	S 	0.99255 0.42261 0.64997 0.03200
H 	H 	0.05432 0.44119 0.76506 0.05900
C 	C 	0.94543 0.50760 0.40552 0.01800
C 	C 	0.95302 0.48439 0.44939 -0.01200
S 	S 	0.93592 0.44974 0.42541 0.03500
C 	C 	0.91674 0.46290 0.36205 0.02000
C 	C 	0.92466 0.49550 0.35661 -0.04400
C 	C 	0.99531 0.53958 0.44375 -0.01100
C 	C 	0.96676 0.53542 0.40271 0.01900
C 	C 	0.97005 0.55525 0.35089 -0.05000
C 	C 	0.00128 0.57444 0.35163 0.03300
S 	S 	0.02446 0.56580 0.41400 0.03100
H 	H 	0.95295 0.55306 0.31161 0.05500
H 	H 	0.91973 0.50869 0.31561 0.05300
Co	Co	0.88798 0.37097 0.02686 1.18400
Co	Co	0.89591 0.44576 0.02078 1.10000
O 	O 	0.88189 0.32282 0.02141 -0.36200
O 	O 	0.93778 0.33600 0.03107 -0.29800
O 	O 	0.83817 0.38863 0.02433 -0.41000
O 	O 	0.87507 0.43160 0.09868 -0.44600
C 	C 	0.82897 0.41140 0.98637 0.34300
C 	C 	0.91497 0.31290 0.02422 0.31800
O 	O 	0.85327 0.43227 0.96768 -0.42700
O 	O 	0.90049 0.38217 0.10858 -0.42100
C 	C 	0.89109 0.40977 0.13179 0.33500
O 	O 	0.90252 0.38125 0.94609 -0.40800
O 	O 	0.93612 0.42258 0.98072 -0.46500
C 	C 	0.92876 0.40199 0.93812 0.34500
C 	C 	0.98849 0.93360 0.10247 0.10300
N 	N 	0.97122 0.96087 0.08752 -0.17300
C 	C 	0.93692 0.95818 0.10827 0.10400
C 	C 	0.90667 0.97791 0.08471 -0.07800
C 	C 	0.91052 0.01307 0.08180 0.09400
C 	C 	0.87214 0.96270 0.06604 0.04900
C 	C 	0.87185 0.94068 0.01866 -0.07400
C 	C 	0.83901 0.92710 0.99976 -0.01600
C 	C 	0.80630 0.93532 0.02835 0.01100
C 	C 	0.83945 0.97074 0.09486 -0.05700
N 	N 	0.93776 0.02886 0.10942 -0.12700
C 	C 	0.89409 0.03202 0.03862 -0.07000
C 	C 	0.93802 0.05828 0.08462 0.08900
C 	C 	0.96886 0.08067 0.09145 -0.07400
C 	C 	0.96305 0.11512 0.08093 0.04200
C 	C 	0.93596 0.16548 0.11083 -0.03100
C 	C 	0.97761 0.12986 0.02969 -0.05800
C 	C 	0.97098 0.16225 0.01864 -0.04200
C 	C 	0.95022 0.18017 0.05930 0.02300
N 	N 	0.02076 0.04278 0.08933 -0.17300
C 	C 	0.05642 0.04490 0.10293 0.10300
C 	C 	0.06330 0.07250 0.13519 -0.06100
C 	C 	0.03022 0.08788 0.14133 -0.06000
C 	C 	0.08467 0.02613 0.07127 -0.07900
C 	C 	0.12010 0.04079 0.05575 0.05200
C 	C 	0.18609 0.03978 0.06045 -0.01800
C 	C 	0.18778 0.06460 0.01815 -0.00200
C 	C 	0.15551 0.07831 0.99629 -0.00800
C 	C 	0.12174 0.06633 0.01484 -0.07800
N 	N 	0.05501 0.97393 0.09194 -0.12800
C 	C 	0.07327 0.94664 0.01025 -0.06600
C 	C 	0.05205 0.94626 0.06153 0.09200
C 	C 	0.02243 0.92311 0.07245 -0.07700
C 	C 	0.02813 0.88904 0.05802 0.04200
C 	C 	0.05581 0.87174 0.08685 -0.05100
C 	C 	0.06066 0.83932 0.07442 -0.03200
C 	C 	0.03803 0.82399 0.03274 0.02300
C 	C 	0.01062 0.84139 0.00332 -0.04600
C 	C 	0.00570 0.87382 0.01591 -0.05900
C 	C 	0.96516 0.91331 0.13324 -0.06100
C 	C 	0.93215 0.92902 0.13689 -0.06100
C 	C 	0.80665 0.95711 0.07606 -0.02500
C 	C 	0.91173 0.06104 0.04047 -0.05600
C 	C 	0.00470 0.06892 0.11254 0.10100
C 	C 	0.09059 0.97583 0.00958 -0.06600
C 	C 	0.07897 0.99168 0.06045 0.09300
C 	C 	0.15240 0.02796 0.07927 -0.05900
H 	H 	0.97882 0.97561 0.05167 0.09300
H 	H 	0.01044 0.02980 0.05309 0.09200
H 	H 	0.08174 0.82601 0.09761 0.05100
H 	H 	0.99305 0.82975 0.97101 0.05000
H 	H 	0.07323 0.88333 0.11945 0.05200
H 	H 	0.98436 0.88707 0.99327 0.05200
H 	H 	0.83896 0.91024 0.96296 0.04100
H 	H 	0.83946 0.98761 0.13165 0.05400
H 	H 	0.78149 0.96362 0.09830 0.05100
H 	H 	0.89698 0.93433 0.99619 0.05500
H 	H 	0.98196 0.17342 0.97862 0.04900
H 	H 	0.99370 0.11615 0.99816 0.05100
C 	C 	0.94225 0.13302 0.12151 -0.05100
H 	H 	0.91985 0.17917 0.14235 0.05200
H 	H 	0.21091 0.02924 0.07784 0.04900
H 	H 	0.15139 0.00845 0.11132 0.05500
H 	H 	0.09693 0.07645 0.99659 0.05600
H 	H 	0.15661 0.09767 0.96394 0.03600
H 	H 	0.96838 0.88765 0.13664 0.05200
H 	H 	0.90618 0.91724 0.14322 0.05300
H 	H 	0.87958 0.02303 0.99989 0.05900
H 	H 	0.91282 0.07781 0.00340 0.04800
H 	H 	0.08953 0.08420 0.13828 0.05300
H 	H 	0.02725 0.11323 0.14957 0.05300
H 	H 	0.06827 0.93224 0.97080 0.05600
H 	H 	0.10112 0.98736 0.96962 0.05700
H 	H 	0.93095 0.12178 0.16122 0.05300
C 	C 	0.92489 0.27895 0.03103 -0.10400
C 	C 	0.90501 0.25504 0.00081 0.16000
C 	C 	0.91354 0.22277 0.01027 -0.10500
C 	C 	0.94278 0.21418 0.04735 -0.00700
C 	C 	0.96390 0.23806 0.07495 0.09900
C 	C 	0.95441 0.27029 0.06766 -0.02500
H 	H 	0.89724 0.20441 0.98902 0.07500
H 	H 	0.96976 0.28850 0.09115 0.06800
O 	O 	0.87539 0.26308 0.96557 -0.18000
O 	O 	0.99171 0.22976 0.11379 -0.18400
C 	C 	0.88723 0.26621 0.90562 -0.03600
H 	H 	0.90807 0.28538 0.90075 0.07400
H 	H 	0.86356 0.27316 0.87752 0.06200
H 	H 	0.89780 0.24314 0.88789 0.05000
C 	C 	0.02483 0.23022 0.08175 -0.02900
H 	H 	0.02458 0.21310 0.04359 0.04200
H 	H 	0.04699 0.22270 0.11254 0.05100
H 	H 	0.03149 0.25475 0.06559 0.04900
C 	C 	0.98524 0.41337 0.77140 0.00600
C 	C 	0.96635 0.43930 0.79711 0.13000
C 	C 	0.94715 0.43502 0.85068 -0.01800
C 	C 	0.94656 0.40511 0.87922 -0.12200
C 	C 	0.96448 0.37894 0.85257 0.20900
C 	C 	0.98360 0.38320 0.79873 -0.10400
H 	H 	0.93300 0.45511 0.87059 0.05000
H 	H 	0.99803 0.36320 0.77904 0.08700
Cl	Cl	0.96706 0.47748 0.76333 -0.32100
Cl	Cl	0.96492 0.34115 0.88760 -0.32700
C 	C 	0.89793 0.41616 0.19554 -0.12300
C 	C 	0.86878 0.42183 0.23512 0.20500
C 	C 	0.87552 0.43477 0.29190 -0.10400
C 	C 	0.91114 0.44239 0.30936 0.00300
C 	C 	0.94052 0.43452 0.27138 0.13200
C 	C 	0.93377 0.42112 0.21502 -0.02800
H 	H 	0.85289 0.44025 0.32138 0.08700
H 	H 	0.95633 0.41625 0.18502 0.06400
Cl	Cl	0.82364 0.41331 0.21370 -0.32300
Cl	Cl	0.98578 0.44308 0.29228 -0.31700
C 	C 	0.04200 0.78941 0.02195 -0.01400
C 	C 	0.07368 0.77727 0.99448 0.10200
C 	C 	0.07880 0.74413 0.99039 -0.01500
C 	C 	0.05188 0.72308 0.01113 -0.12400
C 	C 	0.02009 0.73523 0.03810 0.16900
C 	C 	0.01483 0.76834 0.04174 -0.10300
H 	H 	0.10362 0.73484 0.97071 0.05600
H 	H 	0.99016 0.77760 0.06195 0.06700
O 	O 	0.10097 0.79776 0.97584 -0.18600
O 	O 	0.99334 0.71468 0.05862 -0.21900
C 	C 	0.09516 0.80527 0.91484 -0.02800
H 	H 	0.09704 0.78360 0.88609 0.04700
H 	H 	0.11686 0.82198 0.90004 0.05100
H 	H 	0.06860 0.81760 0.90786 0.04500
C 	C 	0.99890 0.70934 0.12052 -0.02600
H 	H 	0.02656 0.69963 0.13005 0.05300
H 	H 	0.97890 0.69126 0.13617 0.04600
H 	H 	0.99412 0.73154 0.14678 0.04700
C 	C 	0.07254 0.59103 0.86215 -0.11700
C 	C 	0.04431 0.58571 0.82056 0.20900
C 	C 	0.05061 0.56668 0.77014 -0.09900
C 	C 	0.08510 0.55321 0.76012 0.00300
C 	C 	0.11365 0.55948 0.80051 0.13500
C 	C 	0.10737 0.57851 0.85101 -0.02100
H 	H 	0.02846 0.56182 0.73932 0.09600
H 	H 	0.12936 0.58291 0.88234 0.07400
Cl	Cl	0.00118 0.60345 0.83014 -0.34700
Cl	Cl	0.15731 0.54317 0.78892 -0.32300
C 	C 	0.04328 0.60601 0.18282 -0.11900
C 	C 	0.04511 0.57343 0.19879 0.19900
C 	C 	0.03313 0.56348 0.25548 -0.10200
C 	C 	0.01901 0.58573 0.29633 0.00100
C 	C 	0.01883 0.61841 0.28149 0.13300
C 	C 	0.03095 0.62843 0.22495 -0.02300
H 	H 	0.03362 0.53829 0.26702 0.09300
H 	H 	0.03005 0.65358 0.21329 0.06700
Cl	Cl	0.06027 0.54456 0.14706 -0.32900
Cl	Cl	0.00239 0.64698 0.33268 -0.31700
C 	C 	0.77152 0.92165 0.00758 -0.01400
C 	C 	0.75319 0.89863 0.04255 0.10200
C 	C 	0.71829 0.88845 0.02570 -0.03500
C 	C 	0.70192 0.90046 0.97337 -0.10000
C 	C 	0.72057 0.92307 0.93782 0.15800
C 	C 	0.75577 0.93277 0.95416 -0.08800
H 	H 	0.70383 0.87145 0.05373 0.06300
H 	H 	0.77038 0.94966 0.92612 0.06900
O 	O 	0.76810 0.88803 0.09598 -0.18600
O 	O 	0.70578 0.93341 0.88408 -0.18200
C 	C 	0.78790 0.85981 0.08464 -0.02700
H 	H 	0.76980 0.84031 0.06837 0.04500
H 	H 	0.80030 0.85157 0.12738 0.05000
H 	H 	0.81056 0.86404 0.05235 0.04100
C 	C 	0.69052 0.96402 0.89259 -0.03500
H 	H 	0.67077 0.96457 0.93053 0.06500
H 	H 	0.67536 0.97077 0.85140 0.07500
H 	H 	0.71218 0.98225 0.89945 0.05300
C 	C 	0.59012 0.94083 0.68687 0.00000
C 	C 	0.61880 0.93588 0.72779 0.13600
C 	C 	0.61275 0.91821 0.78035 -0.02100
C 	C 	0.57817 0.90547 0.79256 -0.11700
C 	C 	0.55001 0.90904 0.75016 0.20800
C 	C 	0.55598 0.92688 0.69793 -0.10000
H 	H 	0.63466 0.91519 0.81249 0.07800
H 	H 	0.53375 0.93062 0.66668 0.08600
Cl	Cl	0.66231 0.95203 0.71407 -0.31400
Cl	Cl	0.50728 0.89080 0.76138 -0.35900
C 	C 	0.51537 0.91069 0.22600 0.00200
C 	C 	0.53162 0.93224 0.18523 0.13100
C 	C 	0.54393 0.92130 0.12954 -0.02700
C 	C 	0.54029 0.88899 0.11405 -0.12200
C 	C 	0.52622 0.86712 0.15637 0.20300
C 	C 	0.51364 0.87811 0.21191 -0.10400
H 	H 	0.55546 0.93810 0.09764 0.06900
H 	H 	0.50199 0.86136 0.24378 0.08600
Cl	Cl	0.53647 0.97304 0.20311 -0.31600
Cl	Cl	0.52542 0.82580 0.14134 -0.32700
C 	C 	0.22334 0.07487 0.99433 0.01300
C 	C 	0.24040 0.05709 0.94872 0.09000
C 	C 	0.27722 0.06244 0.93561 -0.02000
C 	C 	0.29664 0.08633 0.96574 -0.11600
C 	C 	0.27863 0.10613 0.00724 0.16400
C 	C 	0.24219 0.09990 0.02220 -0.11200
H 	H 	0.29099 0.04724 0.90347 0.04900
H 	H 	0.22909 0.11371 0.05717 0.07300
O 	O 	0.22233 0.03192 0.92194 -0.18500
O 	O 	0.29788 0.12895 0.03881 -0.19500
C 	C 	0.20651 0.04302 0.86810 -0.02800
H 	H 	0.18670 0.06268 0.87631 0.04200
H 	H 	0.19123 0.02302 0.84735 0.04900
H 	H 	0.22769 0.05076 0.83536 0.04500
C 	C 	0.29357 0.15863 0.00953 -0.03700
H 	H 	0.30354 0.15788 0.96234 0.05700
H 	H 	0.31016 0.17670 0.03353 0.05800
H 	H 	0.26471 0.16678 0.01098 0.04600
C 	C 	0.44944 0.09045 0.80446 -0.12300
C 	C 	0.46750 0.06111 0.79508 0.21000
C 	C 	0.48858 0.05673 0.74360 -0.10300
C 	C 	0.49384 0.08195 0.70274 0.00300
C 	C 	0.47680 0.11158 0.71304 0.13300
C 	C 	0.45434 0.11557 0.76326 -0.01800
H 	H 	0.50128 0.03373 0.73570 0.08700
H 	H 	0.44080 0.13826 0.77036 0.06800
Cl	Cl	0.46619 0.03034 0.84932 -0.39800
Cl	Cl	0.48416 0.14420 0.66436 -0.31600
C 	C 	0.41872 0.08814 0.12362 -0.12100
C 	C 	0.45206 0.08383 0.15379 0.20400
C 	C 	0.45265 0.06919 0.21030 -0.09900
C 	C 	0.42013 0.05899 0.23731 0.00100
C 	C 	0.38663 0.06553 0.20921 0.13500
C 	C 	0.38603 0.08021 0.15270 -0.02700
H 	H 	0.47851 0.06463 0.23218 0.09500
H 	H 	0.36022 0.08398 0.13011 0.07700
Cl	Cl	0.49329 0.09667 0.12126 -0.30500
Cl	Cl	0.34528 0.05439 0.24343 -0.31600
C 	C 	0.42800 0.22353 0.96478 -0.11000
C 	C 	0.45812 0.23115 0.92797 0.16500
C 	C 	0.46627 0.26323 0.91548 -0.09900
C 	C 	0.44349 0.28765 0.93638 -0.00600
C 	C 	0.41372 0.28011 0.97371 0.09600
C 	C 	0.40570 0.24807 0.98668 -0.01800
H 	H 	0.48962 0.26902 0.88773 0.07100
H 	H 	0.38208 0.24232 0.01384 0.05100
O 	O 	0.48067 0.20731 0.90655 -0.18000
O 	O 	0.39058 0.30392 0.99340 -0.18100
C 	C 	0.46881 0.19864 0.84859 -0.03100
H 	H 	0.44019 0.18983 0.84890 0.05500
H 	H 	0.48618 0.17878 0.83233 0.07000
H 	H 	0.47187 0.21883 0.81629 0.05300
C 	C 	0.40248 0.31416 0.05037 -0.03400
H 	H 	0.40086 0.29451 0.08410 0.04600
H 	H 	0.38418 0.33357 0.06580 0.04900
H 	H 	0.43056 0.32417 0.04854 0.04300
C 	C 	0.19886 0.59080 0.00098 -0.11600
C 	C 	0.20993 0.55862 0.00617 0.15900
C 	C 	0.24563 0.54998 0.99087 -0.09000
C 	C 	0.26933 0.57249 0.96547 -0.00600
C 	C 	0.25820 0.60452 0.95928 0.10000
C 	C 	0.22292 0.61348 0.97656 -0.01700
H 	H 	0.25441 0.52542 0.99662 0.07000
H 	H 	0.21418 0.63799 0.97024 0.06300
O 	O 	0.18663 0.53599 0.03018 -0.18700
O 	O 	0.28049 0.62643 0.93075 -0.18600
C 	C 	0.17121 0.51826 0.98271 -0.01500
H 	H 	0.15799 0.53382 0.94837 0.06800
H 	H 	0.14976 0.50245 0.00147 0.06100
H 	H 	0.19197 0.50267 0.96118 0.05200
C 	C 	0.29944 0.64398 0.97477 -0.01100
H 	H 	0.28047 0.65867 0.00222 0.03800
H 	H 	0.31837 0.66065 0.95177 0.04800
H 	H 	0.31618 0.62823 0.00418 0.03400
C 	C 	0.71978 0.42704 0.92683 -0.00300
C 	C 	0.73783 0.45050 0.96088 0.09200
C 	C 	0.77347 0.44502 0.98072 -0.00800
C 	C 	0.79057 0.41567 0.96967 -0.12200
C 	C 	0.77154 0.39131 0.93935 0.17300
C 	C 	0.73656 0.39745 0.91663 -0.10300
H 	H 	0.78795 0.46375 0.00431 0.03800
H 	H 	0.72276 0.37938 0.89032 0.07100
O 	O 	0.72198 0.48009 0.96959 -0.18300
O 	O 	0.78875 0.36285 0.92577 -0.19500
C 	C 	0.70378 0.47976 0.02533 -0.03400
H 	H 	0.68206 0.46120 0.02683 0.04200
H 	H 	0.69035 0.50326 0.03163 0.04600
H 	H 	0.72323 0.47641 0.06320 0.04700
C 	C 	0.77787 0.33954 0.96802 -0.02300
H 	H 	0.78344 0.34711 0.01503 0.05600
H 	H 	0.79382 0.31745 0.95989 0.06300
H 	H 	0.74857 0.33341 0.96252 0.04700
C 	C 	0.55035 0.77502 0.92790 -0.11100
C 	C 	0.58089 0.75454 0.93050 0.16900
C 	C 	0.57663 0.72181 0.91877 -0.10000
C 	C 	0.54199 0.70904 0.90754 -0.00600
C 	C 	0.51145 0.72939 0.90581 0.09700
C 	C 	0.51564 0.76206 0.91756 -0.02100
H 	H 	0.60029 0.70633 0.91876 0.06900
H 	H 	0.49188 0.77743 0.91751 0.05200
O 	O 	0.61543 0.76695 0.93869 -0.19500
O 	O 	0.47703 0.71700 0.89644 -0.18800
C 	C 	0.62563 0.76230 0.99917 -0.00300
H 	H 	0.60536 0.77251 0.03104 0.05500
H 	H 	0.65181 0.77485 0.00700 0.04800
H 	H 	0.63012 0.73651 0.00906 0.03600
C 	C 	0.46905 0.71885 0.83460 -0.02800
H 	H 	0.46816 0.74411 0.81875 0.04700
H 	H 	0.44166 0.70844 0.82705 0.04900
H 	H 	0.48871 0.70474 0.80736 0.04500
