data_crystal

_cell_length_a 24.88370
_cell_length_b 26.15960
_cell_length_c 37.47687
_cell_angle_alpha 60.79410
_cell_angle_beta  118.91777
_cell_angle_gamma 133.25788

_symmetry_space_group_name_	'P 1'
_symmetry_space_group_name_H-M	'P 1'

loop_
_symmetry_equiv_pos_as_xyz
  x,y,z

loop_
_atom_site_label
_atom_site_type_symbol
_atom_site_fract_x
_atom_site_fract_y
_atom_site_fract_z
_atom_site_charge
C 	C 	0.77319 0.31013 0.03965 0.04100
C 	C 	0.69939 0.25852 0.04622 -0.08200
C 	C 	0.66823 0.27744 0.05607 0.03400
C 	C 	0.71031 0.34797 0.05898 -0.07900
C 	C 	0.78352 0.40019 0.05203 0.03300
C 	C 	0.81543 0.38144 0.04235 -0.07900
H 	H 	0.66666 0.20361 0.04414 0.04900
H 	H 	0.68561 0.36257 0.06615 0.05400
H 	H 	0.87239 0.42165 0.03722 0.05300
C 	C 	0.68566 0.30770 0.50498 0.03100
C 	C 	0.73596 0.37768 0.51188 -0.07800
C 	C 	0.70694 0.41102 0.50875 0.04400
C 	C 	0.62873 0.37558 0.49786 -0.07900
C 	C 	0.57906 0.30339 0.49606 0.03200
C 	C 	0.60691 0.27078 0.49702 -0.07600
H 	H 	0.79675 0.40455 0.52110 0.05200
H 	H 	0.60672 0.40111 0.49623 0.05400
H 	H 	0.56789 0.21551 0.49399 0.04700
C 	C 	0.31676 0.63727 0.22562 0.03400
C 	C 	0.39457 0.67950 0.22753 -0.07800
C 	C 	0.42357 0.65038 0.22566 0.04600
C 	C 	0.37735 0.57730 0.22653 -0.07900
C 	C 	0.29979 0.53495 0.22379 0.03400
C 	C 	0.26914 0.56474 0.22331 -0.07600
H 	H 	0.43135 0.73591 0.22810 0.05600
H 	H 	0.40032 0.55482 0.22548 0.05500
H 	H 	0.20854 0.53272 0.21966 0.05100
C 	C 	0.23856 0.65741 0.66160 0.04800
C 	C 	0.31316 0.70196 0.65720 -0.08200
C 	C 	0.33648 0.67671 0.64622 0.05000
C 	C 	0.28549 0.60772 0.63912 -0.08100
C 	C 	0.21173 0.56196 0.64454 0.03700
C 	C 	0.18784 0.58675 0.65577 -0.08000
H 	H 	0.35285 0.75589 0.66243 0.05900
H 	H 	0.30419 0.58819 0.63110 0.05600
H 	H 	0.13073 0.55146 0.66005 0.05400
Co	Co	0.09129 0.01829 0.07490 1.16900
Co	Co	0.96025 0.92219 0.16542 1.19400
Co	Co	0.04724 0.07114 0.11426 1.18100
Co	Co	0.00573 0.86989 0.12682 1.18700
C 	C 	0.23263 0.03302 0.08473 0.26400
Co	Co	0.08329 0.89930 0.06253 1.17200
Co	Co	0.95353 0.04054 0.16815 1.15300
C 	C 	0.92134 0.78801 0.05947 0.31500
O 	O 	0.97559 0.12950 0.11729 -0.41500
O 	O 	0.99359 0.00950 0.15014 -0.79000
C 	C 	0.95339 0.12410 0.07901 0.30300
O 	O 	0.10369 0.10425 0.07377 -0.47300
O 	O 	0.95080 0.83698 0.16811 -0.46400
C 	C 	0.81502 0.90583 0.14306 0.29600
O 	O 	0.04945 0.97644 0.13198 -0.55500
C 	C 	0.11663 0.15837 0.17686 0.31300
C 	C 	0.05782 0.00458 0.99049 0.22700
C 	C 	0.08899 0.80897 0.15052 0.32300
O 	O 	0.96698 0.09056 0.07092 -0.40600
O 	O 	0.10463 0.98657 0.01033 -0.35100
O 	O 	0.03462 0.01155 0.01204 -0.38600
O 	O 	0.84658 0.97513 0.13459 -0.37400
O 	O 	0.84672 0.88407 0.13937 -0.38600
O 	O 	0.06548 0.10139 0.19872 -0.40400
O 	O 	0.12691 0.15342 0.14707 -0.37900
O 	O 	0.06222 0.80729 0.11101 -0.40600
O 	O 	0.07304 0.83286 0.16528 -0.38000
O 	O 	0.06171 0.93231 0.09191 -0.74500
C 	C 	0.96956 0.93336 0.24563 0.28000
O 	O 	0.92579 0.95469 0.22113 -0.38700
O 	O 	0.99140 0.91598 0.22986 -0.36700
O 	O 	0.19421 0.96217 0.09332 -0.35700
O 	O 	0.20462 0.06425 0.08191 -0.38000
O 	O 	0.96890 0.84195 0.03523 -0.39400
O 	O 	0.91421 0.79997 0.08712 -0.38600
Co	Co	0.02161 0.01212 0.55452 1.16600
Co	Co	0.93531 0.93326 0.66359 1.19500
Co	Co	0.98641 0.06875 0.59677 1.17600
Co	Co	0.98174 0.88173 0.62542 1.18100
C 	C 	0.16676 0.06969 0.54536 0.33000
Co	Co	0.05783 0.91045 0.56040 1.17800
Co	Co	0.93434 0.05058 0.67021 1.15400
C 	C 	0.92440 0.76582 0.59120 0.30500
O 	O 	0.93355 0.13029 0.61692 -0.41600
O 	O 	0.94988 0.01345 0.64003 -0.79600
C 	C 	0.89523 0.11792 0.57950 0.31900
O 	O 	0.01814 0.09228 0.54678 -0.47300
O 	O 	0.93526 0.85135 0.67052 -0.46700
C 	C 	0.78799 0.90799 0.65230 0.28900
O 	O 	0.95439 0.96156 0.60117 -0.56600
C 	C 	0.08565 0.17143 0.65409 0.31400
C 	C 	0.96762 0.95051 0.48066 0.24600
C 	C 	0.12289 0.88795 0.65138 0.29600
O 	O 	0.90469 0.08891 0.56444 -0.40000
O 	O 	0.96943 0.89524 0.50786 -0.37700
O 	O 	0.97446 0.99558 0.49294 -0.34100
O 	O 	0.81957 0.97483 0.65151 -0.36600
O 	O 	0.82791 0.88099 0.67022 -0.37800
O 	O 	0.05115 0.12068 0.68476 -0.40300
O 	O 	0.08403 0.15428 0.62526 -0.39000
O 	O 	0.14133 0.93025 0.61509 -0.38000
O 	O 	0.07941 0.88535 0.66411 -0.37900
O 	O 	0.01299 0.93425 0.58031 -0.74100
C 	C 	0.98866 0.96789 0.74439 0.25300
O 	O 	0.93474 0.97645 0.72723 -0.37200
O 	O 	0.00867 0.96041 0.72123 -0.35900
O 	O 	0.12479 0.01607 0.52807 -0.43900
O 	O 	0.13805 0.07304 0.56514 -0.41700
O 	O 	0.99543 0.80230 0.59160 -0.41300
O 	O 	0.90406 0.78822 0.60401 -0.38900
C 	C 	0.04526 0.03521 0.88515 0.02000
C 	C 	0.09069 0.05906 0.86061 -0.05600
C 	C 	0.07017 0.00853 0.84369 -0.04300
C 	C 	0.00645 0.93759 0.85035 0.14400
C 	C 	0.96100 0.91388 0.87483 -0.12000
C 	C 	0.98085 0.96464 0.89122 0.06500
N 	N 	0.07293 0.06299 0.91738 -0.14200
C 	C 	0.02680 0.01045 0.94459 -0.02100
C 	C 	0.96863 0.94839 0.92901 -0.02800
N 	N 	0.97835 0.90960 0.81815 -0.17200
C 	C 	0.02267 0.96250 0.79008 0.05900
C 	C 	0.08085 0.02496 0.80531 -0.08400
H 	H 	0.14047 0.11453 0.85528 0.04400
H 	H 	0.91123 0.85840 0.88019 0.06400
H 	H 	0.93922 0.89400 0.94865 0.05300
H 	H 	0.10855 0.07928 0.78528 0.05200
H 	H 	0.12982 0.10514 0.92626 0.08200
H 	H 	0.92165 0.86654 0.80997 0.09200
C 	C 	0.92226 0.92036 0.38409 0.02600
C 	C 	0.90227 0.86941 0.36779 -0.04100
C 	C 	0.95291 0.89049 0.34808 -0.03600
C 	C 	0.01984 0.95977 0.34402 0.16600
C 	C 	0.03998 0.01061 0.36055 -0.22100
C 	C 	0.98894 0.98975 0.37987 0.15200
N 	N 	0.90045 0.90200 0.41770 -0.15200
C 	C 	0.95281 0.95954 0.43525 0.07400
C 	C 	0.00933 0.01505 0.41265 -0.17500
N 	N 	0.04082 0.97857 0.30992 -0.13900
C 	C 	0.98749 0.92177 0.29169 -0.00400
C 	C 	0.93154 0.86602 0.31466 -0.02300
H 	H 	0.84978 0.81537 0.37067 0.04400
H 	H 	0.09245 0.06467 0.35766 0.08000
H 	H 	0.06717 0.05535 0.42609 0.07500
H 	H 	0.87332 0.82627 0.30122 0.04200
H 	H 	0.86589 0.84862 0.43405 0.09000
H 	H 	0.07508 0.03214 0.29366 0.06400
C 	C 	0.13116 0.36015 0.64246 -0.00800
C 	C 	0.12605 0.40918 0.60435 -0.03100
C 	C 	0.14126 0.47161 0.60436 -0.03800
C 	C 	0.10720 0.24226 0.64629 -0.11400
C 	C 	0.16034 0.43299 0.68018 -0.03800
C 	C 	0.14499 0.37058 0.68016 -0.03300
C 	C 	0.11963 0.29760 0.64309 0.05100
C 	C 	0.16333 0.48608 0.64258 -0.00100
H 	H 	0.11258 0.40020 0.57489 0.04300
H 	H 	0.14207 0.51158 0.57500 0.04200
H 	H 	0.17610 0.44287 0.70981 0.04100
H 	H 	0.14624 0.33149 0.70963 0.03800
C 	C 	0.55381 0.78485 0.64306 0.04000
C 	C 	0.58589 0.84454 0.61019 -0.06500
C 	C 	0.66108 0.88059 0.61080 0.01800
C 	C 	0.41410 0.71911 0.64493 -0.02200
C 	C 	0.67064 0.79434 0.67572 0.01800
C 	C 	0.59538 0.75828 0.67503 -0.06700
C 	C 	0.47811 0.75043 0.64392 -0.01500
C 	C 	0.70490 0.85760 0.64457 -0.08100
H 	H 	0.55335 0.86421 0.58478 0.05500
H 	H 	0.68662 0.92882 0.58628 0.04200
H 	H 	0.70362 0.77574 0.70184 0.03800
H 	H 	0.57015 0.71095 0.70000 0.05100
C 	C 	0.18243 0.75191 0.68481 0.03900
C 	C 	0.10811 0.72086 0.68334 -0.06600
C 	C 	0.09045 0.76397 0.68005 0.01800
C 	C 	0.21421 0.68553 0.67096 -0.02200
C 	C 	0.22207 0.86746 0.68310 0.02100
C 	C 	0.24006 0.82419 0.68723 -0.06600
C 	C 	0.19790 0.71352 0.67795 -0.01600
C 	C 	0.14614 0.83892 0.67605 -0.08700
H 	H 	0.06337 0.66453 0.68254 0.05000
H 	H 	0.03217 0.74044 0.67664 0.03400
H 	H 	0.26614 0.92472 0.68145 0.04100
H 	H 	0.29807 0.84821 0.68957 0.05400
C 	C 	0.20454 0.34444 0.19742 -0.00800
C 	C 	0.23111 0.34797 0.23930 -0.03300
C 	C 	0.25343 0.40669 0.24857 -0.03900
C 	C 	0.15450 0.22803 0.18191 -0.11100
C 	C 	0.21815 0.45634 0.17430 -0.03800
C 	C 	0.19569 0.39747 0.16504 -0.03200
C 	C 	0.17954 0.28271 0.18817 0.04700
C 	C 	0.25031 0.46287 0.21598 -0.00100
H 	H 	0.23561 0.30582 0.26464 0.03800
H 	H 	0.27778 0.41092 0.28087 0.04000
H 	H 	0.21519 0.49922 0.14887 0.04200
H 	H 	0.17266 0.39380 0.13268 0.04100
C 	C 	0.61570 0.77446 0.18577 0.04200
C 	C 	0.62372 0.82769 0.14787 -0.06800
C 	C 	0.68578 0.86648 0.13155 0.02300
C 	C 	0.49434 0.69739 0.21392 -0.02100
C 	C 	0.73008 0.79638 0.18992 0.02000
C 	C 	0.66795 0.75764 0.20625 -0.06900
C 	C 	0.55084 0.73355 0.20191 -0.01700
C 	C 	0.74053 0.85253 0.15318 -0.08900
H 	H 	0.58236 0.83960 0.13130 0.05500
H 	H 	0.69295 0.90934 0.10298 0.04100
H 	H 	0.77221 0.78543 0.20702 0.02900
H 	H 	0.66108 0.71532 0.23509 0.05000
C 	C 	0.21780 0.73509 0.20828 -0.00400
C 	C 	0.27109 0.77036 0.18583 -0.03000
C 	C 	0.30291 0.73838 0.19136 -0.03600
C 	C 	0.13381 0.78184 0.17755 -0.10400
C 	C 	0.23335 0.63799 0.24479 -0.03700
C 	C 	0.19969 0.66922 0.23823 -0.03100
C 	C 	0.17193 0.75954 0.19440 0.05200
C 	C 	0.28398 0.67173 0.22068 0.00100
H 	H 	0.28490 0.82092 0.16236 0.04700
H 	H 	0.34090 0.76461 0.17210 0.04300
H 	H 	0.21911 0.58719 0.26801 0.04000
H 	H 	0.15814 0.64121 0.25554 0.04200
C 	C 	0.77211 0.19809 0.52278 -0.01100
C 	C 	0.79726 0.26691 0.49508 -0.03200
C 	C 	0.76850 0.30249 0.48879 -0.04000
C 	C 	0.84977 0.14456 0.55357 -0.11800
C 	C 	0.68906 0.20030 0.53767 -0.04100
C 	C 	0.71657 0.16434 0.54317 -0.03400
C 	C 	0.81361 0.16885 0.53707 0.04500
C 	C 	0.71521 0.26985 0.51068 -0.00100
H 	H 	0.84069 0.29380 0.47945 0.03900
H 	H 	0.78834 0.35563 0.46740 0.04000
H 	H 	0.64847 0.17465 0.55502 0.03400
H 	H 	0.69737 0.11154 0.56496 0.03100
C 	C 	0.81636 0.58418 0.55159 0.04000
C 	C 	0.80361 0.63702 0.52442 -0.07000
C 	C 	0.82966 0.69209 0.53922 0.01900
C 	C 	0.75486 0.47473 0.52390 -0.02300
C 	C 	0.87655 0.63882 0.60906 0.02300
C 	C 	0.85045 0.58371 0.59426 -0.07200
C 	C 	0.78616 0.52568 0.53668 -0.02100
C 	C 	0.86977 0.69537 0.58112 -0.09400
H 	H 	0.77460 0.63615 0.49169 0.04900
H 	H 	0.82372 0.73521 0.51737 0.03200
H 	H 	0.90672 0.64030 0.64160 0.02600
H 	H 	0.85782 0.54139 0.61585 0.04800
C 	C 	0.37768 0.20304 0.52712 -0.01200
C 	C 	0.38901 0.24741 0.48678 -0.03200
C 	C 	0.45144 0.27485 0.47494 -0.04100
C 	C 	0.24371 0.12423 0.54188 -0.12400
C 	C 	0.49076 0.21260 0.54350 -0.04100
C 	C 	0.42849 0.18538 0.55532 -0.03300
C 	C 	0.30628 0.16336 0.53611 0.05200
C 	C 	0.50346 0.25868 0.50354 -0.00100
H 	H 	0.34877 0.25964 0.46434 0.03800
H 	H 	0.46099 0.31085 0.44413 0.03900
H 	H 	0.53103 0.20045 0.56604 0.03600
H 	H 	0.41898 0.14947 0.58616 0.03400
C 	C 	0.85763 0.23345 0.02433 0.03600
C 	C 	0.80966 0.15922 0.02630 -0.07100
C 	C 	0.84039 0.12345 0.03613 0.01300
C 	C 	0.80637 0.28814 0.03250 -0.02500
C 	C 	0.96511 0.23744 0.03587 0.01400
C 	C 	0.93464 0.27328 0.02636 -0.06700
C 	C 	0.83075 0.26513 0.02782 -0.02200
C 	C 	0.91936 0.16138 0.04527 -0.09200
H 	H 	0.74952 0.12820 0.02339 0.04200
H 	H 	0.80383 0.06502 0.04169 0.02300
H 	H 	0.02589 0.26790 0.04115 0.03600
H 	H 	0.97192 0.33108 0.02353 0.04800
C 	C 	0.85437 0.59586 0.05924 -0.00800
C 	C 	0.82929 0.58371 0.01983 -0.02900
C 	C 	0.81498 0.52368 0.01704 -0.03400
C 	C 	0.89063 0.71588 0.06204 -0.11200
C 	C 	0.85494 0.48990 0.09294 -0.03800
C 	C 	0.86941 0.55008 0.09570 -0.03200
C 	C 	0.87187 0.65950 0.06175 0.05100
C 	C 	0.82482 0.47481 0.05368 -0.00200
H 	H 	0.81987 0.62017 0.99136 0.03700
H 	H 	0.79177 0.51272 0.98658 0.03700
H 	H 	0.86281 0.45265 0.12147 0.03900
H 	H 	0.89123 0.56039 0.12620 0.04200
C 	C 	0.44626 0.14917 0.07269 -0.00300
C 	C 	0.50750 0.16152 0.10783 -0.03800
C 	C 	0.57955 0.19880 0.10280 -0.03800
C 	C 	0.30910 0.07719 0.08140 -0.09900
C 	C 	0.52863 0.20880 0.02766 -0.03300
C 	C 	0.45660 0.17150 0.03273 -0.03900
C 	C 	0.37215 0.11107 0.07776 0.03300
C 	C 	0.59074 0.22410 0.06254 -0.00600
H 	H 	0.49957 0.14320 0.13892 0.03700
H 	H 	0.62724 0.21048 0.12991 0.03600
H 	H 	0.53679 0.22835 0.99645 0.03400
H 	H 	0.40911 0.16092 0.00552 0.03900
