data_crystal

_cell_length_a 19.39067
_cell_length_b 17.47040
_cell_length_c 34.09557
_cell_angle_alpha 88.28976
_cell_angle_beta  88.42546
_cell_angle_gamma 107.44641

_symmetry_space_group_name_	'P 1'
_symmetry_space_group_name_H-M	'P 1'

loop_
_symmetry_equiv_pos_as_xyz
  x,y,z

loop_
_atom_site_label
_atom_site_type_symbol
_atom_site_fract_x
_atom_site_fract_y
_atom_site_fract_z
_atom_site_charge
Zn	Zn	0.57348 0.32775 0.88821 1.22500
Zn	Zn	0.68374 0.46735 0.93700 1.20800
C 	C 	0.77686 0.22366 0.85027 0.27200
Zn	Zn	0.74249 0.36656 0.88086 1.22400
Zn	Zn	0.61836 0.19724 0.84925 1.19400
H 	H 	0.66974 0.31746 0.94457 0.19000
C 	C 	0.73135 0.52040 0.85071 0.33900
O 	O 	0.51249 0.16064 0.83976 -0.43900
O 	O 	0.49013 0.28138 0.84820 -0.36700
O 	O 	0.66760 0.35505 0.92266 -0.78800
O 	O 	0.58349 0.46710 0.94756 -0.42300
O 	O 	0.52079 0.24341 0.92696 -0.36300
O 	O 	0.53822 0.42296 0.88846 -0.39300
O 	O 	0.59136 0.16485 0.91188 -0.39200
O 	O 	0.78692 0.52689 0.93247 -0.41400
H 	H 	0.64403 0.34190 0.82502 0.17800
O 	O 	0.82865 0.42105 0.91910 -0.36700
O 	O 	0.64693 0.31557 0.85078 -0.79500
O 	O 	0.71183 0.17499 0.86030 -0.43300
O 	O 	0.76724 0.46738 0.84814 -0.39800
O 	O 	0.80073 0.29452 0.86616 -0.40600
O 	O 	0.67742 0.50896 0.87670 -0.37600
C 	C 	0.46953 0.20665 0.83680 0.30100
C 	C 	0.53813 0.46550 0.91963 0.32600
C 	C 	0.53566 0.17553 0.93155 0.27900
C 	C 	0.83796 0.49219 0.93381 0.30500
Zn	Zn	0.65219 0.40483 0.55636 1.22300
Zn	Zn	0.52452 0.30213 0.49891 1.20800
C 	C 	0.69348 0.14940 0.59912 0.28100
Zn	Zn	0.58357 0.21834 0.56629 1.22800
Zn	Zn	0.74923 0.32709 0.59570 1.19200
H 	H 	0.64715 0.28540 0.50446 0.20900
C 	C 	0.44278 0.24217 0.57987 0.28600
O 	O 	0.80491 0.44251 0.60102 -0.45400
O 	O 	0.71150 0.49724 0.59340 -0.38200
O 	O 	0.61351 0.29895 0.52344 -0.79200
O 	O 	0.54646 0.42014 0.49166 -0.45900
O 	O 	0.73170 0.44620 0.51785 -0.44200
O 	O 	0.57738 0.46032 0.55349 -0.43000
O 	O 	0.77657 0.34303 0.53233 -0.40200
O 	O 	0.46308 0.19171 0.49287 -0.44400
H 	H 	0.62525 0.33059 0.62121 0.17700
O 	O 	0.52695 0.12482 0.52889 -0.33000
O 	O 	0.64541 0.31982 0.59569 -0.79500
O 	O 	0.74641 0.21361 0.58721 -0.43600
O 	O 	0.49204 0.21247 0.59440 -0.42900
O 	O 	0.62762 0.13705 0.58632 -0.38900
O 	O 	0.46137 0.30234 0.55341 -0.38800
C 	C 	0.77922 0.50459 0.60233 0.28100
C 	C 	0.54449 0.46663 0.52085 0.33600
C 	C 	0.77904 0.40805 0.51110 0.31900
C 	C 	0.48166 0.12670 0.50093 0.31300
Zn	Zn	0.94103 0.90663 0.71054 1.21800
Zn	Zn	0.04749 0.93637 0.78665 1.19800
C 	C 	0.14936 0.09443 0.63947 0.32700
Zn	Zn	0.07470 0.05614 0.71654 1.23200
Zn	Zn	0.99269 0.99773 0.63126 1.17600
H 	H 	0.08390 0.91450 0.71543 0.18200
C 	C 	0.98054 0.08020 0.78042 0.29300
O 	O 	0.89012 0.94655 0.62003 -0.45900
O 	O 	0.84145 0.89413 0.68124 -0.38200
O 	O 	0.05022 0.93963 0.72833 -0.79200
O 	O 	0.96408 0.83747 0.79898 -0.43000
O 	O 	0.95115 0.81237 0.68569 -0.45300
O 	O 	0.88423 0.87481 0.75995 -0.43400
O 	O 	0.00085 0.87424 0.62775 -0.37200
O 	O 	0.12649 0.02931 0.80497 -0.42600
H 	H 	0.94558 0.04567 0.69286 0.18100
O 	O 	0.17472 0.08362 0.74482 -0.39700
O 	O 	0.97923 0.01381 0.68801 -0.79500
O 	O 	0.10276 0.03529 0.62160 -0.40600
O 	O 	0.03312 0.11627 0.75462 -0.40200
O 	O 	0.13020 0.12296 0.67195 -0.43000
O 	O 	0.97127 0.00563 0.79297 -0.38500
C 	C 	0.83716 0.93118 0.64721 0.33600
C 	C 	0.89864 0.82399 0.78537 0.29900
C 	C 	0.95934 0.81056 0.64773 0.32000
C 	C 	0.18181 0.07204 0.78250 0.35000
Zn	Zn	0.31770 0.68422 0.39446 1.22400
Zn	Zn	0.17828 0.56210 0.44304 1.21100
C 	C 	0.14012 0.77991 0.31897 0.29900
Zn	Zn	0.16016 0.64088 0.36462 1.22500
Zn	Zn	0.29770 0.80021 0.33302 1.19100
H 	H 	0.19608 0.71096 0.42814 0.18900
C 	C 	0.18128 0.48236 0.36293 0.29000
O 	O 	0.40522 0.83647 0.33599 -0.47000
O 	O 	0.42167 0.72177 0.36431 -0.39000
O 	O 	0.20846 0.66735 0.41448 -0.79000
O 	O 	0.26724 0.56943 0.47175 -0.39100
O 	O 	0.35252 0.77697 0.42660 -0.43900
O 	O 	0.34366 0.59247 0.41754 -0.41700
O 	O 	0.29237 0.84698 0.39160 -0.41400
O 	O 	0.07890 0.50120 0.43034 -0.39600
H 	H 	0.28490 0.65255 0.32535 0.17900
O 	O 	0.05425 0.59908 0.39248 -0.38100
O 	O 	0.26871 0.68379 0.34547 -0.80300
O 	O 	0.20389 0.82559 0.32948 -0.45800
O 	O 	0.15058 0.53260 0.34668 -0.40700
O 	O 	0.11774 0.70210 0.32771 -0.42700
O 	O 	0.21472 0.49871 0.39624 -0.37100
C 	C 	0.44769 0.79231 0.34526 0.33900
C 	C 	0.32898 0.56989 0.45486 0.31200
C 	C 	0.33656 0.84321 0.41952 0.31300
C 	C 	0.03218 0.53377 0.41545 0.33300
Zn	Zn	0.20372 0.72850 0.07352 1.21900
Zn	Zn	0.34166 0.84230 0.12173 1.19400
C 	C 	0.36961 0.59957 0.01034 0.30100
Zn	Zn	0.36813 0.73959 0.05537 1.22300
Zn	Zn	0.22263 0.59783 0.02176 1.20300
H 	H 	0.30244 0.68934 0.12082 0.18100
C 	C 	0.38715 0.90866 0.03595 0.35200
O 	O 	0.11812 0.57937 0.02236 -0.44200
O 	O 	0.11262 0.70519 0.03614 -0.38200
O 	O 	0.30282 0.73318 0.10167 -0.78600
O 	O 	0.25032 0.86144 0.13928 -0.47200
O 	O 	0.14545 0.63471 0.10791 -0.42800
O 	O 	0.18648 0.83420 0.08323 -0.41700
O 	O 	0.21117 0.55902 0.08314 -0.41100
O 	O 	0.44833 0.88193 0.11651 -0.46700
H 	H 	0.26396 0.74807 0.00633 0.18000
O 	O 	0.46443 0.77089 0.08849 -0.39500
O 	O 	0.26625 0.71393 0.02967 -0.78700
O 	O 	0.30527 0.55593 0.02312 -0.44900
O 	O 	0.40398 0.84376 0.02668 -0.45000
O 	O 	0.40766 0.65837 0.03147 -0.41500
O 	O 	0.34053 0.90640 0.06532 -0.42700
C 	C 	0.08643 0.63586 0.01919 0.30600
C 	C 	0.20400 0.87606 0.11509 0.29200
C 	C 	0.15583 0.56423 0.10454 0.33400
C 	C 	0.49121 0.84170 0.10365 0.29500
Zn	Zn	0.98796 0.14380 0.22067 1.22200
Zn	Zn	0.87485 0.09057 0.29886 1.20800
C 	C 	0.78257 0.98333 0.14558 0.28100
Zn	Zn	0.84807 0.99844 0.22321 1.21200
Zn	Zn	0.93841 0.08495 0.13892 1.19300
H 	H 	0.84609 0.14195 0.23109 0.18900
C 	C 	0.93725 0.94812 0.27943 0.28100
O 	O 	0.04120 0.14351 0.12750 -0.44100
O 	O 	0.08921 0.15984 0.18832 -0.36000
O 	O 	0.87696 0.11004 0.24087 -0.77200
O 	O 	0.96082 0.18081 0.31349 -0.43600
O 	O 	0.98652 0.24949 0.20166 -0.42600
O 	O 	0.04104 0.15381 0.26928 -0.41800
O 	O 	0.92413 0.20423 0.14731 -0.39400
O 	O 	0.79277 0.99300 0.31542 -0.44900
H 	H 	0.97677 0.00991 0.19465 0.17900
O 	O 	0.74653 0.96359 0.25478 -0.40800
O 	O 	0.94619 0.04616 0.19337 -0.79800
O 	O 	0.83054 0.04962 0.13080 -0.41000
O 	O 	0.88412 0.92307 0.25517 -0.44300
O 	O 	0.79408 0.94712 0.17811 -0.45100
O 	O 	0.94666 0.01574 0.29759 -0.37400
C 	C 	0.09010 0.13486 0.15194 0.33100
C 	C 	0.02739 0.19461 0.29885 0.37900
C 	C 	0.96818 0.26286 0.16618 0.26900
C 	C 	0.73892 0.95688 0.29324 0.27900
C 	C 	0.00008 0.34336 0.14698 -0.00100
C 	C 	0.01568 0.41201 0.16972 -0.00800
C 	C 	0.06434 0.48481 0.15527 0.03100
C 	C 	0.09856 0.48971 0.11809 -0.14300
C 	C 	0.07944 0.42211 0.09426 0.21200
C 	C 	0.02935 0.35006 0.10853 -0.10000
H 	H 	0.07749 0.53637 0.17365 0.03900
H 	H 	0.01710 0.29790 0.09054 0.08600
H 	H 	0.99269 0.40801 0.19931 0.03800
O 	O 	0.10912 0.42642 0.05697 -0.30200
H 	H 	0.15153 0.40625 0.05961 0.16000
C 	C 	0.57007 0.87750 0.10595 -0.03800
C 	C 	0.61414 0.82914 0.11462 -0.03300
C 	C 	0.68612 0.86440 0.12418 0.02400
C 	C 	0.71456 0.94837 0.12551 -0.13000
C 	C 	0.67207 0.99699 0.11365 0.14900
C 	C 	0.60037 0.96144 0.10350 -0.08200
H 	H 	0.71881 0.82636 0.13244 0.03300
H 	H 	0.56740 0.99928 0.09535 0.06000
H 	H 	0.59184 0.76433 0.11581 0.05500
O 	O 	0.69975 0.07911 0.11302 -0.25100
H 	H 	0.68786 0.09496 0.13946 0.15100
C 	C 	0.17233 0.94081 0.12373 0.00000
C 	C 	0.15141 0.95040 0.16255 -0.10800
C 	C 	0.13012 0.01728 0.17222 0.09000
C 	C 	0.12808 0.07507 0.14315 -0.18800
C 	C 	0.15071 0.06658 0.10422 0.25700
C 	C 	0.17275 0.99958 0.09470 -0.16000
H 	H 	0.11242 0.02246 0.20206 0.03000
H 	H 	0.19159 0.99435 0.06496 0.09700
H 	H 	0.15186 0.90598 0.18534 0.05700
O 	O 	0.15384 0.12499 0.07583 -0.27600
H 	H 	0.10746 0.10639 0.06229 0.16300
C 	C 	0.66907 0.90887 0.31163 -0.00400
C 	C 	0.63321 0.94335 0.33897 -0.09300
C 	C 	0.56193 0.90309 0.35156 0.07300
C 	C 	0.52637 0.82683 0.33784 -0.16100
C 	C 	0.56396 0.78976 0.31246 0.20900
C 	C 	0.63480 0.83129 0.29902 -0.10700
H 	H 	0.53322 0.93272 0.37058 0.04400
H 	H 	0.66241 0.80391 0.27814 0.07800
H 	H 	0.65920 0.00307 0.34896 0.11600
O 	O 	0.53001 0.71547 0.29863 -0.30500
H 	H 	0.54075 0.67666 0.31751 0.16100
C 	C 	0.16717 0.40212 0.34711 0.00600
C 	C 	0.13476 0.33421 0.37165 -0.01900
C 	C 	0.09351 0.26303 0.35558 0.07700
C 	C 	0.08641 0.25864 0.31479 -0.14800
C 	C 	0.12799 0.32270 0.29001 0.21700
C 	C 	0.16818 0.39429 0.30627 -0.09400
H 	H 	0.06356 0.21307 0.37490 0.06700
H 	H 	0.19533 0.44571 0.28707 0.07200
H 	H 	0.13593 0.33872 0.40326 0.11500
O 	O 	0.12375 0.31840 0.25000 -0.29100
H 	H 	0.16344 0.29700 0.24148 0.16400
C 	C 	0.08874 0.81912 0.30273 -0.05900
C 	C 	0.01424 0.77800 0.30248 0.03700
C 	C 	0.96497 0.81954 0.29300 -0.02200
C 	C 	0.98950 0.90269 0.28476 -0.14800
C 	C 	0.06432 0.94311 0.28388 0.17100
C 	C 	0.11343 0.90058 0.29095 -0.08300
H 	H 	0.90761 0.78769 0.29363 0.04700
H 	H 	0.17086 0.93224 0.28931 0.05500
H 	H 	0.99426 0.71460 0.31066 0.02500
O 	O 	0.08958 0.02441 0.27661 -0.26800
H 	H 	0.09695 0.04786 0.30289 0.17700
C 	C 	0.37358 0.91521 0.44050 -0.07800
C 	C 	0.33517 0.96511 0.45499 -0.03700
C 	C 	0.37057 0.03242 0.47574 0.02200
C 	C 	0.44551 0.05252 0.48093 -0.00100
C 	C 	0.48535 0.00391 0.46477 -0.07600
C 	C 	0.44784 0.93306 0.44662 0.03000
H 	H 	0.33977 0.06944 0.48769 0.05500
H 	H 	0.47650 0.89222 0.43669 0.07000
H 	H 	0.27757 0.95096 0.45084 0.04600
C 	C 	0.56717 0.02633 0.46718 0.80300
F 	F 	0.59617 0.98275 0.44175 -0.49000
F 	F 	0.59887 0.10686 0.45713 -0.47000
F 	F 	0.58486 0.01044 0.50493 -0.44300
C 	C 	0.83565 0.43919 0.48006 -0.10400
C 	C 	0.86261 0.52221 0.47181 0.02500
C 	C 	0.92198 0.55314 0.44585 -0.04500
C 	C 	0.95552 0.50155 0.42812 -0.00300
C 	C 	0.92136 0.41740 0.43139 -0.12000
C 	C 	0.86364 0.38673 0.45902 0.08900
H 	H 	0.94571 0.61763 0.44215 0.04100
H 	H 	0.84089 0.32241 0.46421 0.07100
H 	H 	0.84002 0.56316 0.48714 0.03800
C 	C 	0.94832 0.35990 0.40730 0.78400
F 	F 	0.99850 0.33526 0.42818 -0.46500
F 	F 	0.89154 0.29299 0.39932 -0.45800
F 	F 	0.97979 0.39574 0.37177 -0.46600
C 	C 	0.49391 0.51338 0.51942 -0.11200
C 	C 	0.51086 0.58160 0.49423 0.04000
C 	C 	0.45632 0.60090 0.47410 -0.04700
C 	C 	0.38441 0.55153 0.47872 0.02700
C 	C 	0.36642 0.48658 0.50713 -0.12700
C 	C 	0.42148 0.47414 0.53002 0.09000
H 	H 	0.47029 0.65246 0.45369 0.06300
H 	H 	0.40874 0.42686 0.55276 0.06600
H 	H 	0.56690 0.61507 0.48735 0.03800
C 	C 	0.29008 0.42901 0.51223 0.78600
F 	F 	0.26085 0.40769 0.47610 -0.46300
F 	F 	0.28943 0.35894 0.53251 -0.46500
F 	F 	0.24696 0.46486 0.53322 -0.45600
C 	C 	0.71246 0.08103 0.61640 -0.01800
C 	C 	0.74324 0.08694 0.65328 -0.05700
C 	C 	0.77520 0.02951 0.66631 0.07600
C 	C 	0.77888 0.96744 0.64193 -0.18900
C 	C 	0.74100 0.95664 0.60688 0.17800
C 	C 	0.70741 0.01324 0.59434 -0.05400
H 	H 	0.80319 0.03768 0.69364 0.02400
H 	H 	0.68131 0.00689 0.56641 0.12600
H 	H 	0.74559 0.13809 0.67098 0.02700
O 	O 	0.73829 0.89194 0.58445 -0.26900
H 	H 	0.77939 0.91103 0.56501 0.16200
C 	C 	0.36696 0.21068 0.59523 -0.01200
C 	C 	0.35256 0.18789 0.63515 -0.03100
C 	C 	0.28204 0.14745 0.64900 0.03900
C 	C 	0.22449 0.12947 0.62324 -0.13600
C 	C 	0.23848 0.15320 0.58317 0.21700
C 	C 	0.30967 0.19302 0.56926 -0.07900
H 	H 	0.27209 0.13026 0.67991 0.04600
H 	H 	0.32038 0.20865 0.53822 0.10200
H 	H 	0.39621 0.20068 0.65546 0.05600
O 	O 	0.18312 0.13720 0.55752 -0.28000
H 	H 	0.16564 0.18506 0.55749 0.18500
C 	C 	0.82881 0.58402 0.61181 -0.02200
C 	C 	0.88402 0.58852 0.63824 -0.04200
C 	C 	0.93317 0.66272 0.64621 0.03500
C 	C 	0.92728 0.73393 0.62842 -0.14500
C 	C 	0.87532 0.72902 0.59965 0.19500
C 	C 	0.82571 0.65435 0.59183 -0.09400
H 	H 	0.97326 0.66533 0.66807 0.03300
H 	H 	0.78524 0.65132 0.57014 0.08200
H 	H 	0.88809 0.53458 0.65325 0.04800
O 	O 	0.87014 0.79738 0.58080 -0.28200
H 	H 	0.90228 0.80489 0.55695 0.14300
C 	C 	0.01624 0.61601 0.00121 -0.08000
C 	C 	0.95997 0.55207 0.01790 -0.00500
C 	C 	0.90451 0.50879 0.99490 -0.03400
C 	C 	0.90305 0.53035 0.95512 0.02400
C 	C 	0.95751 0.59782 0.93839 -0.14900
C 	C 	0.01275 0.64164 0.96219 0.11300
H 	H 	0.86193 0.45866 0.00814 0.03300
H 	H 	0.05564 0.69242 0.94975 0.05100
H 	H 	0.96207 0.53228 0.04816 0.03900
C 	C 	0.95531 0.62480 0.89582 0.77300
F 	F 	0.90144 0.66110 0.89214 -0.45900
F 	F 	0.02038 0.67919 0.88280 -0.44600
F 	F 	0.94141 0.55968 0.87191 -0.45400
C 	C 	0.42536 0.98540 0.01500 -0.24000
C 	C 	0.50036 0.00615 0.00814 0.17000
C 	C 	0.53604 0.07104 0.98285 -0.10400
C 	C 	0.49733 0.11597 0.96330 0.07100
C 	C 	0.42144 0.09870 0.97227 -0.16900
C 	C 	0.38654 0.03314 0.99835 0.18900
H 	H 	0.59393 0.08507 0.97756 0.08500
H 	H 	0.32886 0.01774 0.00476 0.04900
H 	H 	0.53093 0.97032 0.02160 -0.01500
C 	C 	0.37800 0.15054 0.95543 0.80400
F 	F 	0.38476 0.15494 0.91496 -0.46400
F 	F 	0.30502 0.11949 0.96555 -0.44900
F 	F 	0.40216 0.22680 0.96982 -0.45300
C 	C 	0.40530 0.57052 0.97789 -0.11200
C 	C 	0.37532 0.49234 0.96480 0.03900
C 	C 	0.41418 0.46114 0.93797 -0.04600
C 	C 	0.48376 0.50694 0.92501 0.03700
C 	C 	0.50644 0.59033 0.93114 -0.13500
C 	C 	0.46870 0.62098 0.95928 0.09900
H 	H 	0.39407 0.39831 0.93112 0.09200
H 	H 	0.48935 0.68313 0.96721 0.05800
H 	H 	0.32391 0.45423 0.97702 0.04800
C 	C 	0.57493 0.64471 0.91112 0.78800
F 	F 	0.58492 0.61838 0.87411 -0.45800
F 	F 	0.57130 0.72244 0.90687 -0.46000
F 	F 	0.63345 0.64503 0.93346 -0.48200
C 	C 	0.82957 0.19020 0.82992 -0.03000
C 	C 	0.90456 0.22800 0.83158 -0.02400
C 	C 	0.95387 0.19417 0.81360 -0.00600
C 	C 	0.92894 0.12194 0.79412 -0.12100
C 	C 	0.85392 0.08543 0.79135 0.18600
C 	C 	0.80475 0.12026 0.80861 -0.09100
H 	H 	0.01141 0.22278 0.81594 0.07200
H 	H 	0.74724 0.09206 0.80584 0.06400
H 	H 	0.92481 0.28271 0.84731 0.06500
O 	O 	0.82851 0.01626 0.77132 -0.26700
H 	H 	0.81726 0.97217 0.79172 0.13900
C 	C 	0.39548 0.17232 0.82310 0.01300
C 	C 	0.35776 0.09095 0.83118 -0.04300
C 	C 	0.28637 0.05932 0.81981 0.10700
C 	C 	0.25236 0.10826 0.79966 -0.16500
C 	C 	0.28960 0.19016 0.79211 0.22400
C 	C 	0.36094 0.22180 0.80371 -0.10400
H 	H 	0.25820 0.99621 0.82571 -0.01200
H 	H 	0.38948 0.28469 0.79741 0.09000
H 	H 	0.38338 0.05243 0.84671 0.09100
O 	O 	0.25696 0.23888 0.77253 -0.28600
H 	H 	0.23252 0.26105 0.79329 0.16800
C 	C 	0.84235 0.74970 0.79753 -0.01900
C 	C 	0.80500 0.74431 0.83371 -0.00300
C 	C 	0.76381 0.66950 0.84971 0.06600
C 	C 	0.76010 0.59922 0.82976 -0.10400
C 	C 	0.79255 0.60540 0.79184 0.21200
C 	C 	0.83390 0.68059 0.77596 -0.08000
H 	H 	0.73915 0.66571 0.87885 0.10000
H 	H 	0.86182 0.68469 0.74763 0.07300
H 	H 	0.81093 0.79758 0.85041 0.06700
O 	O 	0.78655 0.53786 0.77101 -0.28200
H 	H 	0.74275 0.53074 0.75545 0.14600
