data_crystal

_cell_length_a 39.06800
_cell_length_b 37.82995
_cell_length_c 21.83114
_cell_angle_alpha 92.51110
_cell_angle_beta  90.40533
_cell_angle_gamma 90.23621

_symmetry_space_group_name_	'P 1'
_symmetry_space_group_name_H-M	'P 1'

loop_
_symmetry_equiv_pos_as_xyz
  x,y,z

loop_
_atom_site_label
_atom_site_type_symbol
_atom_site_fract_x
_atom_site_fract_y
_atom_site_fract_z
_atom_site_charge
Cd	Cd	0.15532 0.87936 0.18560 1.24100
Cd	Cd	0.15796 0.90153 0.34701 1.16200
O 	O 	0.17221 0.81928 0.14943 -0.32000
O 	O 	0.14671 0.85566 0.08975 -0.33900
C 	C 	0.15340 0.82287 0.10067 0.28700
O 	O 	0.12707 0.93055 0.19488 -0.39100
O 	O 	0.14677 0.94880 0.29046 -0.42900
C 	C 	0.12374 0.95014 0.24612 0.29200
C 	C 	0.10461 0.85191 0.26418 0.32800
O 	O 	0.19988 0.88777 0.27465 -0.46500
O 	O 	0.09552 0.84839 0.20676 -0.30500
O 	O 	0.13550 0.86338 0.27420 -0.55300
C 	C 	0.21576 0.91065 0.24213 0.31400
O 	O 	0.20666 0.91031 0.18438 -0.35100
Cd	Cd	0.93245 0.95457 0.08490 1.24200
Cd	Cd	0.99769 0.00592 0.16621 1.15500
O 	O 	0.95193 0.90929 0.00841 -0.32800
O 	O 	0.89730 0.91626 0.02996 -0.35600
C 	C 	0.92048 0.89941 0.99767 0.29000
O 	O 	0.90529 0.99145 0.14954 -0.39000
O 	O 	0.94569 0.03093 0.18714 -0.40700
C 	C 	0.91713 0.02432 0.15567 0.30500
C 	C 	0.97400 0.92158 0.17083 0.25000
O 	O 	0.98466 0.99572 0.06200 -0.54100
O 	O 	0.94758 0.90094 0.15827 -0.32800
O 	O 	0.96863 0.95405 0.15847 -0.57500
C 	C 	0.96439 0.01286 0.02595 0.31500
O 	O 	0.93301 0.00089 0.02237 -0.37000
C 	C 	0.89876 0.78833 0.75434 0.12900
N 	N 	0.89829 0.75386 0.76897 -0.14200
C 	C 	0.90309 0.72790 0.72508 0.13000
N 	N 	0.90837 0.73652 0.66619 -0.14300
C 	C 	0.90801 0.77090 0.65085 0.12900
N 	N 	0.90328 0.79693 0.69503 -0.13800
C 	C 	0.01463 0.72894 0.13994 0.13000
N 	N 	0.00072 0.74215 0.19294 -0.13800
C 	C 	0.97489 0.72458 0.21988 0.12500
N 	N 	0.96260 0.69396 0.19308 -0.14300
C 	C 	0.97675 0.68040 0.14045 0.12400
N 	N 	0.00281 0.69797 0.11400 -0.13900
Cd	Cd	0.91239 0.96944 0.67118 1.24600
Cd	Cd	0.96260 0.03988 0.60930 1.13900
O 	O 	0.86250 0.98597 0.73507 -0.33100
O 	O 	0.87427 0.93028 0.70957 -0.34300
C 	C 	0.85422 0.95277 0.73826 0.29300
O 	O 	0.95359 0.94370 0.61605 -0.37900
O 	O 	0.99117 0.98784 0.59270 -0.41400
C 	C 	0.98465 0.95797 0.61985 0.31000
C 	C 	0.88381 0.01049 0.58004 0.31400
O 	O 	0.94773 0.02545 0.70866 -0.56800
O 	O 	0.86479 0.98208 0.58435 -0.28200
O 	O 	0.91456 0.00640 0.59989 -0.56600
C 	C 	0.96383 0.00536 0.74639 0.31200
O 	O 	0.95274 0.97273 0.74703 -0.36500
Cd	Cd	0.91610 0.91771 0.47537 1.24400
Cd	Cd	0.95154 0.92119 0.32484 1.16800
O 	O 	0.87449 0.87054 0.49370 -0.32700
O 	O 	0.89130 0.90760 0.56739 -0.36700
C 	C 	0.87018 0.88239 0.54984 0.30500
O 	O 	0.95890 0.95693 0.48654 -0.38200
O 	O 	0.96460 0.96888 0.38520 -0.45100
C 	C 	0.97782 0.96727 0.44062 0.28500
C 	C 	0.96780 0.86924 0.43720 0.31900
O 	O 	0.89649 0.92905 0.36206 -0.45800
O 	O 	0.96368 0.86917 0.49652 -0.29900
O 	O 	0.94524 0.88684 0.40757 -0.54600
C 	C 	0.88279 0.95841 0.38342 0.31600
O 	O 	0.88056 0.96157 0.44289 -0.36100
C 	C 	0.72306 0.91337 0.91959 0.12800
N 	N 	0.69238 0.90524 0.89268 -0.14300
C 	C 	0.66377 0.90347 0.92736 0.13000
N 	N 	0.66618 0.90810 0.98921 -0.14600
C 	C 	0.69683 0.91528 0.01650 0.13300
N 	N 	0.72524 0.91876 0.98155 -0.14200
C 	C 	0.70616 0.89950 0.55315 0.12900
N 	N 	0.70067 0.90123 0.49199 -0.14000
C 	C 	0.67180 0.91614 0.47036 0.12900
N 	N 	0.64735 0.92778 0.51019 -0.14300
C 	C 	0.65229 0.92518 0.57166 0.12700
N 	N 	0.68195 0.91149 0.59309 -0.14100
Cd	Cd	0.97414 0.15513 0.23009 1.23800
Cd	Cd	0.97188 0.12014 0.37933 1.15000
O 	O 	0.94659 0.21239 0.21355 -0.32600
O 	O 	0.97832 0.18621 0.14295 -0.36000
C 	C 	0.96049 0.21391 0.15983 0.29500
O 	O 	0.00980 0.10882 0.22370 -0.41500
O 	O 	0.98760 0.08026 0.30522 -0.45700
C 	C 	0.01226 0.08448 0.26523 0.28900
C 	C 	0.01927 0.18279 0.32393 0.32800
O 	O 	0.92938 0.13428 0.30979 -0.47100
O 	O 	0.02822 0.19313 0.27005 -0.30900
O 	O 	0.98999 0.16671 0.32542 -0.55900
C 	C 	0.91650 0.11298 0.26712 0.31900
O 	O 	0.92792 0.11739 0.21189 -0.36000
Cd	Cd	0.92844 0.18449 0.82873 1.24100
Cd	Cd	0.94571 0.09654 0.77725 1.16600
O 	O 	0.94116 0.23253 0.75991 -0.33300
O 	O 	0.91603 0.24300 0.84866 -0.35400
C 	C 	0.92783 0.25556 0.79841 0.29500
O 	O 	0.90520 0.15111 0.89998 -0.38600
O 	O 	0.94030 0.10340 0.87999 -0.42200
C 	C 	0.91541 0.11878 0.91173 0.30700
C 	C 	0.88387 0.14963 0.74212 0.32100
O 	O 	0.98075 0.14583 0.79100 -0.47600
O 	O 	0.86885 0.17811 0.76456 -0.29800
O 	O 	0.91541 0.14565 0.75796 -0.57300
C 	C 	0.99684 0.15567 0.84128 0.31300
O 	O 	0.98157 0.17946 0.87645 -0.35600
C 	C 	0.96843 0.41713 0.71746 0.12800
N 	N 	0.96187 0.44927 0.74488 -0.14100
C 	C 	0.97035 0.47926 0.71622 0.12700
N 	N 	0.98461 0.47691 0.65960 -0.14300
C 	C 	0.99185 0.44480 0.63284 0.12400
N 	N 	0.98353 0.41496 0.66168 -0.14100
C 	C 	0.00566 0.37954 0.12372 0.13600
N 	N 	0.02110 0.39003 0.17734 -0.14200
C 	C 	0.02904 0.42459 0.18928 0.13000
N 	N 	0.02235 0.44852 0.14639 -0.14600
C 	C 	0.00602 0.43844 0.09332 0.13600
N 	N 	0.99726 0.40388 0.08223 -0.14400
Cd	Cd	0.14482 0.97559 0.94914 1.24100
Cd	Cd	0.06409 0.99658 0.01201 1.16400
O 	O 	0.19739 0.98838 0.00949 -0.32100
O 	O 	0.19885 0.95961 0.91962 -0.35400
C 	C 	0.21564 0.97255 0.96715 0.29200
O 	O 	0.10730 0.95044 0.88344 -0.39100
O 	O 	0.06244 0.98738 0.90885 -0.42200
C 	C 	0.07566 0.96130 0.87447 0.31100
C 	C 	0.11620 0.93226 0.03890 0.32500
O 	O 	0.11117 0.03144 0.99143 -0.47100
O 	O 	0.14074 0.91516 0.01020 -0.28800
O 	O 	0.11245 0.96491 0.02571 -0.55800
C 	C 	0.11713 0.04634 0.94000 0.31600
O 	O 	0.13786 0.02930 0.90258 -0.35900
Cd	Cd	0.19459 0.08652 0.53003 1.24000
Cd	Cd	0.16593 0.09682 0.37673 1.16100
O 	O 	0.24015 0.12575 0.57197 -0.32400
O 	O 	0.21635 0.08589 0.62733 -0.35700
C 	C 	0.24113 0.10867 0.62230 0.29400
O 	O 	0.14796 0.05204 0.52212 -0.39300
O 	O 	0.14783 0.04650 0.41725 -0.44100
C 	C 	0.13162 0.04501 0.46977 0.29300
C 	C 	0.14972 0.14288 0.50318 0.32200
O 	O 	0.21879 0.08229 0.41735 -0.46600
O 	O 	0.15116 0.13861 0.56230 -0.30800
O 	O 	0.17178 0.12495 0.47088 -0.55200
C 	C 	0.22988 0.05084 0.42894 0.31900
O 	O 	0.22721 0.04184 0.48562 -0.36900
C 	C 	0.38197 0.98667 0.02806 0.13100
N 	N 	0.38633 0.00252 0.08453 -0.14200
C 	C 	0.41711 0.00130 0.11338 0.12800
N 	N 	0.44326 0.98316 0.08647 -0.14400
C 	C 	0.43958 0.96854 0.02879 0.13300
N 	N 	0.40895 0.97092 0.99910 -0.14400
C 	C 	0.40231 0.06867 0.63766 0.12700
N 	N 	0.41187 0.07392 0.57911 -0.14200
C 	C 	0.44231 0.06163 0.55789 0.12900
N 	N 	0.46358 0.04477 0.59611 -0.14400
C 	C 	0.45376 0.03830 0.65407 0.13000
N 	N 	0.42293 0.05012 0.67492 -0.14100
C 	C 	0.42142 0.01758 0.17561 -0.04900
C 	C 	0.44930 0.04054 0.19045 0.10000
C 	C 	0.45577 0.05077 0.25206 -0.08600
C 	C 	0.43381 0.04014 0.29836 -0.00600
C 	C 	0.40403 0.02018 0.28272 0.07300
C 	C 	0.39850 0.00849 0.22156 -0.05600
N 	N 	0.46922 0.05365 0.14582 -0.19900
H 	H 	0.47798 0.06699 0.26402 0.05300
C 	C 	0.44342 0.04795 0.36327 -0.00500
N 	N 	0.38076 0.01212 0.32611 -0.19500
H 	H 	0.37660 0.99175 0.20988 0.05400
C 	C 	0.43627 0.08141 0.39016 -0.08700
C 	C 	0.43987 0.08779 0.45375 0.10200
C 	C 	0.44866 0.05951 0.49115 -0.05100
C 	C 	0.45895 0.02708 0.46351 -0.05300
C 	C 	0.45700 0.02126 0.39969 0.06900
H 	H 	0.42745 0.10238 0.36169 0.05500
N 	N 	0.43581 0.12113 0.47837 -0.19900
H 	H 	0.46707 0.00579 0.49187 0.05100
N 	N 	0.46774 0.98991 0.37378 -0.19300
H 	H 	0.42777 0.14155 0.45097 0.08600
H 	H 	0.44246 0.12749 0.52395 0.09400
H 	H 	0.47660 0.96987 0.40122 0.08500
H 	H 	0.46848 0.98553 0.32625 0.09000
H 	H 	0.35938 0.99646 0.31444 0.08700
H 	H 	0.38302 0.02215 0.37127 0.09100
H 	H 	0.46253 0.05035 0.09954 0.09200
H 	H 	0.49075 0.06911 0.15735 0.08400
C 	C 	0.36801 0.07736 0.65563 -0.02900
C 	C 	0.33832 0.08502 0.66227 -0.00400
C 	C 	0.30335 0.09397 0.65955 0.05400
C 	C 	0.27409 0.10117 0.64778 -0.09400
C 	C 	0.25234 0.97331 0.96979 -0.09000
C 	C 	0.28298 0.97514 0.97609 0.05500
C 	C 	0.31838 0.97840 0.98855 -0.00600
C 	C 	0.34794 0.98191 0.00387 -0.02500
C 	C 	0.00491 0.44226 0.56966 -0.04200
C 	C 	0.03600 0.45885 0.55379 0.09900
C 	C 	0.04539 0.45946 0.49184 -0.08700
C 	C 	0.02499 0.44269 0.44609 -0.00100
C 	C 	0.99511 0.42407 0.46247 0.07000
C 	C 	0.98519 0.42444 0.52409 -0.05700
N 	N 	0.05729 0.47336 0.59771 -0.19800
H 	H 	0.06865 0.47300 0.47922 0.05400
C 	C 	0.03440 0.44577 0.38099 -0.00700
N 	N 	0.97589 0.40587 0.41935 -0.19400
H 	H 	0.96171 0.41122 0.53651 0.05200
C 	C 	0.05693 0.42101 0.35398 -0.08600
C 	C 	0.05929 0.41704 0.28989 0.10200
C 	C 	0.03747 0.43698 0.25276 -0.05100
C 	C 	0.01868 0.46504 0.27981 -0.05400
C 	C 	0.01724 0.46986 0.34383 0.07400
H 	H 	0.07163 0.40391 0.38275 0.05500
N 	N 	0.08272 0.39453 0.26430 -0.19800
H 	H 	0.00344 0.48177 0.25125 0.05000
N 	N 	0.99876 0.49704 0.36931 -0.19600
H 	H 	0.09775 0.37874 0.29185 0.08600
H 	H 	0.08743 0.39386 0.21723 0.09400
H 	H 	0.98519 0.51401 0.34156 0.08200
H 	H 	0.99859 0.50228 0.41667 0.08800
H 	H 	0.95346 0.39292 0.43176 0.08600
H 	H 	0.98329 0.40369 0.37350 0.09100
H 	H 	0.05296 0.47004 0.64423 0.09100
H 	H 	0.07945 0.48683 0.58543 0.08400
C 	C 	0.02444 0.13484 0.86388 -0.12300
C 	C 	0.04705 0.11604 0.88121 0.02400
C 	C 	0.07271 0.09279 0.90073 0.02800
C 	C 	0.09368 0.07204 0.91786 -0.13100
C 	C 	0.93322 0.29271 0.79176 -0.09400
C 	C 	0.93949 0.32306 0.78138 0.05300
C 	C 	0.94848 0.35734 0.76398 -0.00400
C 	C 	0.95719 0.38537 0.74491 -0.03000
C 	C 	0.04464 0.17765 0.37029 -0.17900
C 	C 	0.06707 0.17212 0.40668 0.00300
C 	C 	0.09464 0.16400 0.44548 -0.00200
C 	C 	0.11929 0.15539 0.47454 -0.16900
C 	C 	0.99408 0.34359 0.11551 -0.03300
C 	C 	0.98514 0.31305 0.11542 0.00100
C 	C 	0.97562 0.27751 0.12314 0.05400
C 	C 	0.96827 0.24783 0.13634 -0.08900
C 	C 	0.62682 0.94001 0.61502 -0.04900
C 	C 	0.61801 0.97623 0.61535 0.10100
C 	C 	0.58894 0.98801 0.64738 -0.08300
C 	C 	0.56950 0.96461 0.68144 -0.00800
C 	C 	0.58097 0.92942 0.68730 0.07000
C 	C 	0.60936 0.91731 0.65331 -0.05300
N 	N 	0.63753 0.99982 0.58562 -0.19700
H 	H 	0.58075 0.01523 0.64416 0.05500
C 	C 	0.53467 0.97555 0.70139 -0.00200
N 	N 	0.56484 0.90722 0.72517 -0.19400
H 	H 	0.61721 0.88992 0.65526 0.05000
C 	C 	0.50621 0.95914 0.67251 -0.08800
C 	C 	0.47529 0.97755 0.66770 0.10600
C 	C 	0.47368 0.01325 0.68919 -0.05300
C 	C 	0.49938 0.02659 0.72901 -0.05000
C 	C 	0.52989 0.00759 0.73614 0.06700
H 	H 	0.50895 0.93337 0.64937 0.05500
N 	N 	0.44792 0.96173 0.63900 -0.20000
H 	H 	0.49705 0.05305 0.74968 0.04800
N 	N 	0.55489 0.02072 0.77437 -0.19400
H 	H 	0.44965 0.93584 0.62053 0.08500
H 	H 	0.42439 0.97464 0.63667 0.09400
H 	H 	0.55171 0.04496 0.79844 0.08400
H 	H 	0.57720 0.00641 0.78191 0.08200
H 	H 	0.57321 0.88119 0.72873 0.08600
H 	H 	0.54459 0.91589 0.75285 0.08700
H 	H 	0.66105 0.99261 0.56651 0.09300
H 	H 	0.63003 0.02626 0.58391 0.08500
C 	C 	0.62987 0.89708 0.89867 -0.05300
C 	C 	0.61446 0.92359 0.86416 0.10100
C 	C 	0.57922 0.92996 0.87045 -0.08700
C 	C 	0.55950 0.90940 0.90903 -0.00800
C 	C 	0.57359 0.87785 0.93089 0.07100
C 	C 	0.60875 0.87148 0.92376 -0.05300
N 	N 	0.63325 0.94302 0.82564 -0.20000
H 	H 	0.56779 0.95256 0.84944 0.05400
C 	C 	0.52876 0.92541 0.93823 -0.00200
N 	N 	0.55400 0.85461 0.96121 -0.19400
H 	H 	0.62028 0.84895 0.94488 0.04800
C 	C 	0.49608 0.91357 0.91954 -0.09000
C 	C 	0.46695 0.92455 0.95260 0.10400
C 	C 	0.46989 0.95306 0.99694 -0.05600
C 	C 	0.50246 0.96703 0.01167 -0.04500
C 	C 	0.53200 0.95203 0.98566 0.06600
H 	H 	0.49364 0.89332 0.88304 0.05200
N 	N 	0.43734 0.90578 0.94540 -0.19900
H 	H 	0.50495 0.98902 0.04500 0.04900
N 	N 	0.56331 0.96287 0.00714 -0.19100
H 	H 	0.43441 0.88724 0.90878 0.08600
H 	H 	0.41876 0.90634 0.97953 0.09600
H 	H 	0.56536 0.98349 0.04045 0.08400
H 	H 	0.58574 0.95008 0.99328 0.09100
H 	H 	0.56495 0.83209 0.97916 0.08300
H 	H 	0.52767 0.85811 0.96587 0.08700
H 	H 	0.65820 0.93584 0.81404 0.10000
H 	H 	0.62212 0.96393 0.80312 0.08600
C 	C 	0.66984 0.92486 0.40523 -0.05000
C 	C 	0.69320 0.94928 0.38114 0.10300
C 	C 	0.69778 0.94989 0.31745 -0.08600
C 	C 	0.67795 0.92813 0.27739 -0.00500
C 	C 	0.65211 0.90632 0.30130 0.07000
C 	C 	0.64864 0.90456 0.36521 -0.05200
N 	N 	0.71113 0.97227 0.41891 -0.19900
H 	H 	0.71683 0.96736 0.29901 0.05700
C 	C 	0.68573 0.92700 0.21079 -0.00500
N 	N 	0.63067 0.88707 0.26334 -0.19400
H 	H 	0.63016 0.88649 0.38373 0.04800
C 	C 	0.70503 0.89880 0.18568 -0.08500
C 	C 	0.71130 0.89570 0.12233 0.10200
C 	C 	0.69851 0.92179 0.08363 -0.05000
C 	C 	0.68129 0.95125 0.10946 -0.05100
C 	C 	0.67415 0.95383 0.17250 0.07000
H 	H 	0.71456 0.87874 0.21537 0.05700
N 	N 	0.72909 0.86740 0.09900 -0.20000
H 	H 	0.67175 0.97134 0.07983 0.04900
N 	N 	0.65546 0.98157 0.19552 -0.19300
H 	H 	0.73788 0.84798 0.12781 0.08700
H 	H 	0.73476 0.86455 0.05243 0.09700
H 	H 	0.64724 0.00134 0.16692 0.08200
H 	H 	0.64851 0.98364 0.24160 0.08800
H 	H 	0.61228 0.87036 0.28135 0.08400
H 	H 	0.63136 0.88922 0.21585 0.08900
H 	H 	0.70621 0.97450 0.46588 0.09400
H 	H 	0.72929 0.98930 0.40105 0.08900
C 	C 	0.88497 0.98976 0.34921 -0.13500
C 	C 	0.88874 0.01735 0.32467 0.02300
C 	C 	0.89562 0.05053 0.30054 0.02800
C 	C 	0.90384 0.07912 0.28334 -0.13300
C 	C 	0.01035 0.98411 0.45336 -0.13100
C 	C 	0.03801 0.99801 0.46134 -0.00000
C 	C 	0.07066 0.01421 0.46765 -0.00100
C 	C 	0.09855 0.02813 0.47029 -0.12700
C 	C 	0.74012 0.89248 0.57440 -0.02600
C 	C 	0.77012 0.88786 0.58377 -0.00100
C 	C 	0.80596 0.88411 0.58370 0.06100
C 	C 	0.83615 0.88243 0.57364 -0.09000
C 	C 	0.00702 0.94867 0.66905 -0.11600
C 	C 	0.02487 0.94562 0.71381 0.04300
C 	C 	0.04405 0.94715 0.76895 0.03400
C 	C 	0.05910 0.95201 0.81703 -0.09300
C 	C 	0.86884 0.04429 0.59445 -0.16100
C 	C 	0.86228 0.07258 0.61886 0.00300
C 	C 	0.86226 0.10338 0.65758 0.00500
C 	C 	0.86877 0.12659 0.69545 -0.15700
C 	C 	0.82702 0.94164 0.77720 -0.08700
C 	C 	0.80389 0.93368 0.81039 0.05400
C 	C 	0.77635 0.92567 0.84930 -0.00000
C 	C 	0.75236 0.91969 0.88196 -0.02800
C 	C 	0.96890 0.64368 0.11955 -0.04900
C 	C 	0.95803 0.63534 0.05863 0.10000
C 	C 	0.95842 0.59993 0.03622 -0.08400
C 	C 	0.96806 0.57279 0.07448 -0.00500
C 	C 	0.97611 0.58097 0.13700 0.07200
C 	C 	0.97623 0.61638 0.15887 -0.05300
N 	N 	0.94632 0.66097 0.02215 -0.19800
H 	H 	0.95145 0.59353 0.98884 0.05000
C 	C 	0.97261 0.53648 0.04776 -0.00800
N 	N 	0.98448 0.55510 0.17585 -0.19400
H 	H 	0.98365 0.62281 0.20604 0.04700
C 	C 	0.00524 0.52618 0.02779 -0.08200
C 	C 	0.01526 0.49067 0.03029 0.10700
C 	C 	0.99246 0.46586 0.05429 -0.05800
C 	C 	0.95773 0.47471 0.05955 -0.05100
C 	C 	0.94753 0.51019 0.05654 0.07100
H 	H 	0.02377 0.54613 0.01594 0.05600
N 	N 	0.04728 0.48087 0.01292 -0.19900
H 	H 	0.93944 0.45490 0.07298 0.05100
N 	N 	0.91420 0.51906 0.06528 -0.19400
H 	H 	0.06464 0.49956 0.99754 0.08500
H 	H 	0.05475 0.45437 0.01270 0.09400
H 	H 	0.89600 0.49970 0.07437 0.08500
H 	H 	0.90593 0.54507 0.06108 0.08800
H 	H 	0.99060 0.56151 0.22170 0.08200
H 	H 	0.98494 0.52847 0.16133 0.09100
H 	H 	0.94379 0.68714 0.03872 0.09400
H 	H 	0.93802 0.65456 0.97743 0.08400
C 	C 	0.90672 0.69083 0.74255 -0.05000
C 	C 	0.89057 0.66282 0.70810 0.10200
C 	C 	0.90052 0.62783 0.71719 -0.08600
C 	C 	0.92421 0.62020 0.76336 -0.00500
C 	C 	0.93719 0.64794 0.80260 0.06900
C 	C 	0.92897 0.68309 0.79087 -0.05300
N 	N 	0.86491 0.66927 0.66770 -0.19900
H 	H 	0.88986 0.60646 0.68820 0.05600
C 	C 	0.93808 0.58385 0.76554 -0.00600
N 	N 	0.95756 0.64098 0.85136 -0.19500
H 	H 	0.94050 0.70450 0.81864 0.05200
C 	C 	0.97216 0.57775 0.74844 -0.08500
C 	C 	0.98458 0.54314 0.74068 0.09800
C 	C 	0.96163 0.51428 0.74411 -0.04900
C 	C 	0.92836 0.52025 0.76598 -0.05300
C 	C 	0.91668 0.55487 0.77848 0.07000
H 	H 	0.98900 0.59999 0.74097 0.05500
N 	N 	0.01857 0.53771 0.73138 -0.19600
H 	H 	0.91115 0.49805 0.77134 0.05200
N 	N 	0.88512 0.56011 0.80304 -0.19400
H 	H 	0.03509 0.55909 0.72562 0.08500
H 	H 	0.02918 0.51250 0.73359 0.09100
H 	H 	0.86896 0.53863 0.81035 0.08400
H 	H 	0.87690 0.58534 0.81748 0.08700
H 	H 	0.96898 0.66165 0.87758 0.08300
H 	H 	0.96115 0.61516 0.86515 0.08500
H 	H 	0.85387 0.69429 0.66581 0.09300
H 	H 	0.85433 0.64864 0.64023 0.08500
C 	C 	0.91269 0.77962 0.58620 -0.04700
C 	C 	0.94535 0.78924 0.56450 0.11000
C 	C 	0.95248 0.78497 0.50159 -0.07900
C 	C 	0.92748 0.77179 0.46011 -0.00400
C 	C 	0.89377 0.76588 0.48098 0.07500
C 	C 	0.88665 0.77027 0.54390 -0.04800
N 	N 	0.97010 0.80190 0.60381 -0.19800
H 	H 	0.97801 0.79054 0.48523 0.06000
C 	C 	0.93813 0.75952 0.39754 -0.00400
N 	N 	0.86837 0.75535 0.44122 -0.19400
H 	H 	0.86129 0.76409 0.56040 0.05000
C 	C 	0.95418 0.72655 0.38981 -0.08600
C 	C 	0.96760 0.71527 0.33277 0.10100
C 	C 	0.96299 0.73652 0.28148 -0.04800
C 	C 	0.94682 0.76947 0.28907 -0.05400
C 	C 	0.93429 0.78123 0.34667 0.06700
H 	H 	0.95731 0.71014 0.42895 0.05500
N 	N 	0.98592 0.68475 0.32818 -0.19900
H 	H 	0.94362 0.78585 0.24991 0.04600
N 	N 	0.91806 0.81294 0.35245 -0.19400
H 	H 	0.98778 0.66844 0.36548 0.08300
H 	H 	0.99993 0.67782 0.28898 0.09200
H 	H 	0.91588 0.82905 0.31494 0.06600
H 	H 	0.90712 0.82173 0.39381 0.09700
H 	H 	0.84373 0.75043 0.45720 0.08700
H 	H 	0.87261 0.75255 0.39412 0.09100
H 	H 	0.96520 0.80678 0.65033 0.10000
H 	H 	0.99443 0.80806 0.58761 0.09300
C 	C 	0.90698 0.04947 0.11139 -0.10600
C 	C 	0.90281 0.06914 0.06986 0.04600
C 	C 	0.90290 0.08944 0.01690 0.04000
C 	C 	0.90673 0.10427 0.96951 -0.09500
C 	C 	0.97815 0.02618 0.97132 -0.16900
C 	C 	0.98430 0.03113 0.91870 0.03100
C 	C 	0.98396 0.02887 0.85459 0.02400
C 	C 	0.97747 0.02073 0.80213 -0.20100
C 	C 	0.00760 0.90849 0.15768 -0.16100
C 	C 	0.03572 0.90397 0.13667 0.01400
C 	C 	0.06673 0.90648 0.10453 0.02000
C 	C 	0.09087 0.91503 0.07442 -0.15300
C 	C 	0.89995 0.81529 0.80283 -0.02500
C 	C 	0.90218 0.83611 0.84621 0.00000
C 	C 	0.90644 0.85891 0.89885 0.05400
C 	C 	0.91177 0.87756 0.94422 -0.08900
C 	C 	0.10048 0.97959 0.24671 -0.12400
C 	C 	0.08083 0.00421 0.24848 -0.04100
C 	C 	0.05753 0.03282 0.25220 -0.05800
C 	C 	0.03719 0.05676 0.25700 -0.20000
C 	C 	0.07938 0.85318 0.31112 -0.17300
C 	C 	0.05607 0.85474 0.34667 0.01700
C 	C 	0.02674 0.85775 0.38330 0.00700
C 	C 	0.00030 0.86192 0.41029 -0.15600
C 	C 	0.22634 0.94328 0.27217 -0.13600
C 	C 	0.23145 0.97008 0.30259 0.02300
C 	C 	0.23360 0.00002 0.34306 0.01900
C 	C 	0.23291 0.02410 0.38088 -0.13900
C 	C 	0.12625 0.79764 0.09029 -0.08700
C 	C 	0.10128 0.77887 0.09137 0.05800
C 	C 	0.07100 0.75960 0.10193 0.00200
C 	C 	0.04508 0.74494 0.11687 -0.02600
