data_crystal

_cell_length_a 26.29553
_cell_length_b 26.23584
_cell_length_c 34.16895
_cell_angle_alpha 95.48954
_cell_angle_beta  95.48677
_cell_angle_gamma 125.83409

_symmetry_space_group_name_	'P 1'
_symmetry_space_group_name_H-M	'P 1'

loop_
_symmetry_equiv_pos_as_xyz
  x,y,z

loop_
_atom_site_label
_atom_site_type_symbol
_atom_site_fract_x
_atom_site_fract_y
_atom_site_fract_z
_atom_site_charge
C 	C 	0.93674 0.03191 0.98862 0.11900
N 	N 	0.00005 0.06459 0.98803 -0.14000
C 	C 	0.02768 0.03415 0.98977 0.12600
N 	N 	0.99131 0.97051 0.99037 -0.14600
C 	C 	0.92776 0.93753 0.98989 0.12500
N 	N 	0.90054 0.96827 0.98913 -0.14200
C 	C 	0.97530 0.00362 0.45834 0.11600
N 	N 	0.03579 0.03346 0.45154 -0.14100
C 	C 	0.06195 0.00171 0.44990 0.12300
N 	N 	0.02689 0.93940 0.45371 -0.13900
C 	C 	0.96548 0.90855 0.45872 0.12100
N 	N 	0.93993 0.94090 0.46162 -0.14300
Cu	Cu	0.60022 0.23336 0.00052 0.92600
Cu	Cu	0.63323 0.22998 0.91096 0.86700
Cu	Cu	0.63719 0.33781 0.95180 0.89600
Cu	Cu	0.62788 0.36402 0.03736 0.89200
C 	C 	0.63994 0.28162 0.08528 0.29400
O 	O 	0.51344 0.20911 0.00791 -0.37000
C 	C 	0.60611 0.29750 0.86324 0.29300
O 	O 	0.66250 0.33344 0.00529 -0.64100
O 	O 	0.58538 0.24277 0.94496 -0.64300
O 	O 	0.62685 0.17722 0.98979 -0.37900
O 	O 	0.69561 0.23928 0.95045 -0.44400
O 	O 	0.61720 0.31458 0.08071 -0.39500
O 	O 	0.69237 0.43025 0.96110 -0.39000
C 	C 	0.69109 0.46775 0.98900 0.30500
C 	C 	0.49520 0.24493 0.99999 0.29500
O 	O 	0.53747 0.30422 0.99565 -0.40000
O 	O 	0.67613 0.45151 0.02394 -0.40100
O 	O 	0.62919 0.23869 0.05542 -0.36800
C 	C 	0.67866 0.19859 0.97491 0.29800
O 	O 	0.62193 0.34105 0.89470 -0.38600
O 	O 	0.59270 0.24155 0.86714 -0.42700
H 	H 	0.70889 0.35526 0.01351 0.15900
H 	H 	0.54005 0.22049 0.93265 0.17100
Cu	Cu	0.77146 0.34244 0.45947 0.92700
Cu	Cu	0.75268 0.28083 0.54060 0.86900
Cu	Cu	0.65534 0.28952 0.49938 0.89600
Cu	Cu	0.65030 0.33066 0.42149 0.89300
C 	C 	0.74094 0.33222 0.37499 0.29600
O 	O 	0.80097 0.43417 0.46296 -0.36600
C 	C 	0.68220 0.30426 0.58757 0.29600
O 	O 	0.67092 0.28236 0.44620 -0.63900
O 	O 	0.75021 0.34074 0.51348 -0.64200
O 	O 	0.82112 0.30748 0.46678 -0.37900
O 	O 	0.74537 0.22811 0.49515 -0.44600
O 	O 	0.70974 0.35602 0.38276 -0.39300
O 	O 	0.56394 0.23594 0.48230 -0.39000
C 	C 	0.53263 0.24667 0.45602 0.30300
C 	C 	0.76549 0.45096 0.47455 0.29100
O 	O 	0.70449 0.40663 0.47358 -0.40500
O 	O 	0.55888 0.27936 0.42754 -0.39900
O 	O 	0.77606 0.33005 0.40410 -0.37000
C 	C 	0.79319 0.25040 0.47604 0.29800
O 	O 	0.63915 0.28218 0.55455 -0.39300
O 	O 	0.73649 0.31239 0.58662 -0.42500
H 	H 	0.64867 0.23786 0.43189 0.16400
H 	H 	0.77091 0.38309 0.53063 0.16800
C 	C 	0.62378 0.34561 0.67386 -0.09500
C 	C 	0.63305 0.31569 0.70260 0.00400
C 	C 	0.65701 0.28081 0.69320 0.02000
C 	C 	0.67220 0.27717 0.65532 -0.01400
C 	C 	0.66436 0.30823 0.62679 -0.11200
C 	C 	0.64051 0.34334 0.63621 0.09800
C 	C 	0.61927 0.32237 0.74298 0.00300
C 	C 	0.66650 0.24750 0.72352 -0.16800
H 	H 	0.69009 0.24996 0.64794 0.02700
C 	C 	0.63265 0.37820 0.60639 -0.20300
H 	H 	0.60483 0.37183 0.68113 0.05000
C 	C 	0.66808 0.37177 0.77426 0.02300
C 	C 	0.66079 0.36611 0.81413 -0.01900
C 	C 	0.60501 0.31253 0.82286 -0.11300
C 	C 	0.55244 0.26885 0.79151 0.09800
C 	C 	0.56034 0.27356 0.75165 -0.09500
C 	C 	0.72993 0.42760 0.76538 -0.17100
H 	H 	0.70014 0.40121 0.83830 0.03300
C 	C 	0.48902 0.21546 0.80024 -0.20100
H 	H 	0.52191 0.23716 0.72745 0.05000
H 	H 	0.62403 0.41174 0.62062 0.06500
H 	H 	0.59131 0.34316 0.58197 0.07700
H 	H 	0.67651 0.40687 0.59353 0.06600
H 	H 	0.62015 0.21115 0.73183 0.05900
H 	H 	0.70062 0.28290 0.75075 0.05700
H 	H 	0.68600 0.22265 0.71161 0.05300
H 	H 	0.75888 0.46650 0.79212 0.05800
H 	H 	0.72023 0.44794 0.74126 0.06300
H 	H 	0.75838 0.41156 0.75579 0.05900
H 	H 	0.44948 0.19927 0.77525 0.06400
H 	H 	0.47894 0.23166 0.82770 0.07100
H 	H 	0.48941 0.17420 0.80428 0.07000
C 	C 	0.73963 0.29197 0.17800 -0.09300
C 	C 	0.70345 0.28728 0.20695 0.00200
C 	C 	0.64406 0.27587 0.19533 0.02400
C 	C 	0.62272 0.27121 0.15505 -0.01400
C 	C 	0.66029 0.27906 0.12633 -0.10700
C 	C 	0.71876 0.28837 0.13769 0.09400
C 	C 	0.73063 0.30051 0.24982 0.00400
C 	C 	0.60463 0.27134 0.22606 -0.17100
H 	H 	0.57733 0.26283 0.14611 0.03800
C 	C 	0.75921 0.29508 0.10719 -0.20200
H 	H 	0.78484 0.30004 0.18703 0.04900
C 	C 	0.71221 0.24989 0.27058 0.02200
C 	C 	0.72065 0.26167 0.31253 -0.01900
C 	C 	0.74966 0.32366 0.33364 -0.11200
C 	C 	0.77805 0.37563 0.31316 0.10300
C 	C 	0.76719 0.36351 0.27120 -0.09700
C 	C 	0.67951 0.18280 0.24810 -0.17200
H 	H 	0.70157 0.22215 0.32851 0.02800
C 	C 	0.81634 0.44362 0.33565 -0.20600
H 	H 	0.78395 0.40271 0.25516 0.05100
H 	H 	0.73412 0.24906 0.08582 0.08300
H 	H 	0.80605 0.30802 0.12148 0.06500
H 	H 	0.76882 0.33332 0.09055 0.06100
H 	H 	0.63125 0.31756 0.24743 0.06300
H 	H 	0.59359 0.23276 0.24274 0.06000
H 	H 	0.55852 0.26022 0.21196 0.05800
H 	H 	0.68040 0.15210 0.26799 0.05800
H 	H 	0.70411 0.18328 0.22331 0.06400
H 	H 	0.62902 0.16123 0.23557 0.06000
H 	H 	0.84972 0.47778 0.31774 0.06700
H 	H 	0.84549 0.45010 0.36409 0.08300
H 	H 	0.78365 0.45565 0.34236 0.07800
C 	C 	0.79012 0.51878 0.47975 -0.11600
C 	C 	0.85301 0.56868 0.50020 0.12500
C 	C 	0.87847 0.63244 0.49798 -0.10100
C 	C 	0.84067 0.64730 0.47830 0.00400
C 	C 	0.77593 0.59784 0.46121 0.05300
C 	C 	0.75161 0.53397 0.46150 -0.02300
N 	N 	0.88812 0.55601 0.52318 -0.20300
H 	H 	0.92758 0.67065 0.51200 0.05500
C 	C 	0.87053 0.71414 0.47326 -0.01000
N 	N 	0.73698 0.61131 0.44445 -0.19200
H 	H 	0.70290 0.49587 0.44667 0.03000
C 	C 	0.89023 0.73171 0.43704 -0.08500
C 	C 	0.91675 0.79393 0.43050 0.09700
C 	C 	0.92718 0.84040 0.46174 -0.05000
C 	C 	0.90630 0.82255 0.49768 -0.05500
C 	C 	0.87760 0.75962 0.50370 0.06900
H 	H 	0.88348 0.69636 0.41349 0.05100
N 	N 	0.93049 0.80828 0.39392 -0.19900
H 	H 	0.91366 0.85808 0.52139 0.04600
N 	N 	0.85691 0.74326 0.53862 -0.19500
H 	H 	0.92503 0.77447 0.37154 0.08100
H 	H 	0.94382 0.85183 0.38673 0.08800
H 	H 	0.86280 0.77733 0.56101 0.07900
H 	H 	0.83427 0.69666 0.54379 0.08400
H 	H 	0.68968 0.57435 0.43097 0.07700
H 	H 	0.75256 0.65838 0.44558 0.08500
H 	H 	0.86762 0.51065 0.53009 0.08000
H 	H 	0.93558 0.59274 0.53650 0.07900
C 	C 	0.82234 0.21663 0.47203 -0.12500
C 	C 	0.84037 0.20696 0.43583 0.13000
C 	C 	0.86835 0.17490 0.43388 -0.10400
C 	C 	0.87220 0.14653 0.46571 0.00600
C 	C 	0.85149 0.15371 0.50118 0.05000
C 	C 	0.82918 0.19080 0.50450 -0.02000
N 	N 	0.82826 0.22538 0.40246 -0.20600
H 	H 	0.88423 0.16923 0.40674 0.05600
C 	C 	0.89895 0.11022 0.46190 -0.01300
N 	N 	0.85187 0.12432 0.53183 -0.19100
H 	H 	0.81543 0.19818 0.53220 0.01500
C 	C 	0.96046 0.13787 0.48300 -0.08300
C 	C 	0.98357 0.10156 0.48544 0.09100
C 	C 	0.94797 0.03920 0.46194 -0.04700
C 	C 	0.88720 0.01216 0.43977 -0.06200
C 	C 	0.86157 0.04645 0.44030 0.07200
H 	H 	0.98857 0.18638 0.49993 0.05000
N 	N 	0.03779 0.12525 0.51202 -0.19500
H 	H 	0.85975 0.96430 0.42198 0.05100
N 	N 	0.80106 0.01771 0.42040 -0.19700
H 	H 	0.06588 0.17268 0.52730 0.08300
H 	H 	0.04989 0.09572 0.52006 0.09100
H 	H 	0.77420 0.97088 0.40425 0.08200
H 	H 	0.77967 0.04092 0.42116 0.08500
H 	H 	0.83824 0.13150 0.55834 0.07300
H 	H 	0.86353 0.09251 0.52929 0.08400
H 	H 	0.79858 0.23958 0.40075 0.10100
H 	H 	0.84503 0.22133 0.37668 0.08400
C 	C 	0.13020 0.03669 0.44886 -0.05000
C 	C 	0.15452 0.05935 0.41415 0.09800
C 	C 	0.22050 0.09508 0.41507 -0.08500
C 	C 	0.26206 0.10709 0.44960 -0.01000
C 	C 	0.23767 0.08428 0.48427 0.07100
C 	C 	0.17181 0.04899 0.48343 -0.05500
N 	N 	0.11485 0.04596 0.37972 -0.19900
H 	H 	0.23947 0.11261 0.38859 0.05100
C 	C 	0.33087 0.14253 0.44884 0.00400
N 	N 	0.27712 0.09620 0.51841 -0.19500
H 	H 	0.15290 0.03162 0.50996 0.04600
C 	C 	0.37059 0.20951 0.45883 -0.10000
C 	C 	0.43694 0.24460 0.46190 0.12400
C 	C 	0.46358 0.21179 0.45383 -0.11400
C 	C 	0.42369 0.14487 0.44308 -0.02000
C 	C 	0.35741 0.10980 0.44021 0.05400
H 	H 	0.34993 0.23431 0.46529 0.05500
N 	N 	0.47476 0.30941 0.47346 -0.20400
H 	H 	0.44430 0.12001 0.43664 0.03700
N 	N 	0.31964 0.04490 0.42921 -0.19100
H 	H 	0.45449 0.33319 0.47882 0.08000
H 	H 	0.52447 0.33674 0.47800 0.08200
H 	H 	0.33984 0.02115 0.42349 0.07900
H 	H 	0.27000 0.01744 0.42569 0.08600
H 	H 	0.25849 0.07862 0.54370 0.08100
H 	H 	0.32650 0.12332 0.52038 0.08700
H 	H 	0.06531 0.01656 0.37730 0.09000
H 	H 	0.13344 0.06392 0.35449 0.08200
C 	C 	0.72128 0.53474 0.98495 -0.11200
C 	C 	0.68999 0.56326 0.99118 0.12500
C 	C 	0.72317 0.62912 0.99186 -0.09900
C 	C 	0.78573 0.66617 0.98459 0.00400
C 	C 	0.81604 0.63710 0.97658 0.05500
C 	C 	0.78349 0.57161 0.97700 -0.02000
N 	N 	0.62778 0.52752 0.99544 -0.20200
H 	H 	0.69986 0.65145 0.99743 0.05600
C 	C 	0.81929 0.73556 0.98599 -0.00600
N 	N 	0.87626 0.67169 0.96860 -0.19200
H 	H 	0.80717 0.54955 0.97188 0.03900
C 	C 	0.85612 0.77806 0.02235 -0.08900
C 	C 	0.89041 0.84437 0.02460 0.09400
C 	C 	0.88830 0.86837 0.98958 -0.04700
C 	C 	0.85010 0.82583 0.95347 -0.05500
C 	C 	0.81544 0.75948 0.95126 0.06900
H 	H 	0.85824 0.75944 0.04897 0.05100
N 	N 	0.92455 0.88454 0.06046 -0.19900
H 	H 	0.84814 0.84446 0.92682 0.04600
N 	N 	0.77919 0.71921 0.91574 -0.19400
H 	H 	0.92681 0.86641 0.08598 0.08000
H 	H 	0.94791 0.93379 0.06362 0.08700
H 	H 	0.77697 0.73741 0.89025 0.08000
H 	H 	0.75276 0.66964 0.91300 0.08700
H 	H 	0.89832 0.64983 0.96297 0.07900
H 	H 	0.90160 0.72030 0.96757 0.08600
H 	H 	0.59992 0.47767 0.99123 0.08400
H 	H 	0.60579 0.54937 0.00142 0.07800
C 	C 	0.71742 0.17636 0.98516 -0.11600
C 	C 	0.78350 0.22047 0.00144 0.12100
C 	C 	0.82147 0.19901 0.00360 -0.10500
C 	C 	0.79421 0.13417 0.99113 0.00700
C 	C 	0.72728 0.08929 0.97794 0.05400
C 	C 	0.68956 0.11100 0.97494 -0.02500
N 	N 	0.81041 0.28297 0.01577 -0.20400
H 	H 	0.87246 0.23294 0.01486 0.05300
C 	C 	0.83642 0.11410 0.99110 -0.00800
N 	N 	0.69912 0.02559 0.96782 -0.19300
H 	H 	0.63865 0.07711 0.96340 0.03400
C 	C 	0.85396 0.10044 0.02638 -0.08800
C 	C 	0.89028 0.07711 0.02680 0.09200
C 	C 	0.90802 0.06596 0.99094 -0.04500
C 	C 	0.89311 0.08248 0.95615 -0.05600
C 	C 	0.85774 0.10689 0.95588 0.06900
H 	H 	0.83883 0.10748 0.05352 0.05100
N 	N 	0.90846 0.06613 0.06170 -0.19800
H 	H 	0.90781 0.07494 0.92892 0.04500
N 	N 	0.84410 0.12285 0.92176 -0.19400
H 	H 	0.89363 0.07277 0.08778 0.07900
H 	H 	0.93899 0.05289 0.06364 0.08400
H 	H 	0.85910 0.11630 0.89574 0.07800
H 	H 	0.81946 0.14277 0.92080 0.08300
H 	H 	0.64985 0.99300 0.95744 0.08100
H 	H 	0.72544 0.00761 0.97074 0.08700
H 	H 	0.78263 0.29924 0.01785 0.07900
H 	H 	0.85954 0.31556 0.02669 0.07600
C 	C 	0.09666 0.06948 0.98971 -0.04600
C 	C 	0.14304 0.12587 0.01824 0.09400
C 	C 	0.20797 0.15877 0.01629 -0.08800
C 	C 	0.22777 0.13324 0.98906 -0.00800
C 	C 	0.18155 0.07557 0.96151 0.07000
C 	C 	0.11640 0.04532 0.96142 -0.05500
N 	N 	0.12599 0.14686 0.04865 -0.19800
H 	H 	0.24352 0.20264 0.03755 0.05100
C 	C 	0.29704 0.16436 0.99217 0.00700
N 	N 	0.19928 0.04874 0.93539 -0.19400
H 	H 	0.08089 0.00207 0.93968 0.04800
C 	C 	0.32881 0.15741 0.02412 -0.10500
C 	C 	0.39469 0.18772 0.02894 0.12500
C 	C 	0.42803 0.22007 0.99891 -0.11400
C 	C 	0.39650 0.22777 0.96719 -0.02500
C 	C 	0.33161 0.20172 0.96412 0.05300
H 	H 	0.30258 0.13022 0.04613 0.05600
N 	N 	0.42606 0.18835 0.06327 -0.20400
H 	H 	0.42242 0.25395 0.94476 0.03600
N 	N 	0.30292 0.21255 0.93424 -0.19200
H 	H 	0.40056 0.16098 0.08402 0.08200
H 	H 	0.47578 0.21950 0.07114 0.09700
H 	H 	0.32851 0.23906 0.91322 0.07900
H 	H 	0.25552 0.19599 0.93199 0.08600
H 	H 	0.16473 0.00658 0.91490 0.08000
H 	H 	0.24719 0.06871 0.93542 0.08600
H 	H 	0.08004 0.11851 0.05499 0.08900
H 	H 	0.16013 0.19042 0.06809 0.08100
