data_crystal

_cell_length_a 29.90776
_cell_length_b 30.72374
_cell_length_c 39.48791
_cell_angle_alpha 61.05712
_cell_angle_beta  118.66386
_cell_angle_gamma 133.23189

_symmetry_space_group_name_	'P 1'
_symmetry_space_group_name_H-M	'P 1'

loop_
_symmetry_equiv_pos_as_xyz
  x,y,z

loop_
_atom_site_label
_atom_site_type_symbol
_atom_site_fract_x
_atom_site_fract_y
_atom_site_fract_z
_atom_site_charge
C 	C 	0.70660 0.27511 0.06534 0.13000
N 	N 	0.64699 0.24327 0.06845 -0.14100
C 	C 	0.63336 0.26878 0.07869 0.13300
N 	N 	0.67885 0.32557 0.08566 -0.14000
C 	C 	0.73777 0.35782 0.08192 0.13400
N 	N 	0.75192 0.33278 0.07170 -0.14000
C 	C 	0.70624 0.27479 0.56578 0.13000
N 	N 	0.64685 0.24284 0.56932 -0.14100
C 	C 	0.63352 0.26834 0.57983 0.13300
N 	N 	0.67908 0.32523 0.58664 -0.14100
C 	C 	0.73775 0.35762 0.58241 0.13300
N 	N 	0.75159 0.33259 0.57191 -0.14100
C 	C 	0.28112 0.66734 0.19080 0.13300
N 	N 	0.24096 0.60988 0.18429 -0.13700
C 	C 	0.26350 0.58807 0.17872 0.13600
N 	N 	0.32537 0.62329 0.17969 -0.14000
C 	C 	0.36543 0.68000 0.18639 0.13700
N 	N 	0.34353 0.70232 0.19198 -0.13600
C 	C 	0.28058 0.66734 0.69062 0.13300
N 	N 	0.34296 0.70250 0.69163 -0.13600
C 	C 	0.36490 0.68031 0.68593 0.13700
N 	N 	0.32491 0.62356 0.67931 -0.14000
C 	C 	0.26311 0.58816 0.67854 0.13600
N 	N 	0.24052 0.60983 0.68422 -0.13700
Co	Co	0.03456 0.01024 0.07441 1.16200
Co	Co	0.96109 0.93693 0.17866 1.18400
Co	Co	0.98043 0.04215 0.10826 1.15500
Co	Co	0.01622 0.90568 0.14472 1.19200
C 	C 	0.16118 0.07322 0.06697 0.32800
Co	Co	0.08295 0.93839 0.08141 1.17900
Co	Co	0.92837 0.02169 0.17448 1.13600
C 	C 	0.98116 0.80933 0.11584 0.30300
O 	O 	0.85355 0.99900 0.12576 -0.33000
O 	O 	0.95714 0.99719 0.15177 -0.72500
C 	C 	0.86293 0.03450 0.09008 0.24700
O 	O 	0.01514 0.06813 0.06329 -0.47000
O 	O 	0.97955 0.87841 0.18917 -0.46600
C 	C 	0.84354 0.88533 0.19573 0.32200
O 	O 	0.97720 0.96054 0.11953 -0.56800
C 	C 	0.03415 0.14386 0.13954 0.34800
C 	C 	0.99957 0.95961 0.00631 0.24600
C 	C 	0.14105 0.92621 0.16646 0.31600
O 	O 	0.90200 0.04495 0.07521 -0.38500
O 	O 	0.00686 0.91669 0.03323 -0.36100
O 	O 	0.00024 0.99584 0.01661 -0.32000
O 	O 	0.87987 0.93372 0.20978 -0.40000
O 	O 	0.86690 0.87548 0.18133 -0.38500
O 	O 	0.97618 0.11240 0.14174 -0.43800
O 	O 	0.04989 0.12037 0.13049 -0.40400
O 	O 	0.15397 0.96244 0.13173 -0.37500
O 	O 	0.10347 0.92077 0.17940 -0.37300
O 	O 	0.03706 0.94931 0.10026 -0.73400
C 	C 	0.01425 0.99813 0.24533 0.32300
O 	O 	0.00784 0.04212 0.22011 -0.42600
O 	O 	0.01609 0.96601 0.23281 -0.36500
O 	O 	0.13054 0.02945 0.04977 -0.44000
O 	O 	0.13175 0.07156 0.08433 -0.41700
O 	O 	0.03992 0.84667 0.11294 -0.39000
O 	O 	0.96027 0.82375 0.12876 -0.38900
Co	Co	0.03475 0.01106 0.57442 1.16300
Co	Co	0.96030 0.93633 0.67848 1.18400
Co	Co	0.98056 0.04240 0.60864 1.15600
Co	Co	0.01544 0.90563 0.64414 1.19200
C 	C 	0.16161 0.07395 0.56745 0.32800
Co	Co	0.08282 0.93926 0.58085 1.17900
Co	Co	0.92829 0.02120 0.67507 1.13600
C 	C 	0.98048 0.80990 0.61464 0.30300
O 	O 	0.85375 0.99942 0.62613 -0.33000
O 	O 	0.95688 0.99693 0.65200 -0.72600
C 	C 	0.86341 0.03523 0.59055 0.24800
O 	O 	0.01561 0.06898 0.56367 -0.47000
O 	O 	0.97831 0.87768 0.68853 -0.46500
C 	C 	0.84271 0.88485 0.69543 0.32200
O 	O 	0.97679 0.96073 0.61930 -0.56800
C 	C 	0.03462 0.14353 0.64066 0.34800
C 	C 	0.00038 0.96188 0.50573 0.29500
C 	C 	0.14010 0.92583 0.66608 0.31600
O 	O 	0.90249 0.04575 0.57564 -0.38500
O 	O 	0.00721 0.91854 0.53234 -0.37700
O 	O 	0.00097 0.99773 0.51637 -0.33600
O 	O 	0.87915 0.93291 0.70985 -0.40000
O 	O 	0.86603 0.87512 0.68091 -0.38500
O 	O 	0.97667 0.11219 0.64284 -0.43800
O 	O 	0.05018 0.12007 0.63141 -0.40400
O 	O 	0.15343 0.96238 0.63148 -0.37500
O 	O 	0.10248 0.92039 0.67897 -0.37400
O 	O 	0.03676 0.94983 0.59985 -0.73400
C 	C 	0.01332 0.99625 0.74579 0.32300
O 	O 	0.00737 0.04065 0.72096 -0.42500
O 	O 	0.01528 0.96466 0.73286 -0.36500
O 	O 	0.13103 0.03064 0.54985 -0.44100
O 	O 	0.13199 0.07199 0.58484 -0.41700
O 	O 	0.03930 0.84726 0.61184 -0.38900
O 	O 	0.95951 0.82415 0.62763 -0.38900
C 	C 	0.99189 0.96803 0.96385 -0.02100
C 	C 	0.03372 0.02565 0.94188 -0.03200
C 	C 	0.03969 0.03069 0.90666 -0.09600
C 	C 	0.00500 0.97740 0.89345 0.06100
C 	C 	0.95815 0.92042 0.91335 -0.00600
C 	C 	0.95249 0.91595 0.94860 -0.02200
C 	C 	0.91728 0.86840 0.89793 -0.03400
C 	C 	0.92200 0.87216 0.86293 -0.03900
C 	C 	0.96974 0.92718 0.84362 0.00300
C 	C 	0.01360 0.97969 0.85961 0.05500
C 	C 	0.06605 0.03164 0.84262 -0.09000
C 	C 	0.06951 0.03439 0.80730 -0.04400
C 	C 	0.02215 0.98488 0.78894 -0.00700
C 	C 	0.97398 0.93030 0.80823 -0.03900
H 	H 	0.06335 0.06643 0.95275 0.04100
H 	H 	0.06968 0.07608 0.88941 0.04900
H 	H 	0.91895 0.87154 0.96491 0.04700
H 	H 	0.88094 0.82492 0.91280 0.04100
H 	H 	0.88880 0.83172 0.85110 0.04300
H 	H 	0.10506 0.06914 0.85699 0.04500
H 	H 	0.10802 0.07611 0.79340 0.04100
H 	H 	0.93791 0.89143 0.79466 0.04800
C 	C 	0.99422 0.97181 0.46334 -0.04600
C 	C 	0.94725 0.92204 0.44524 0.01100
C 	C 	0.95118 0.92441 0.41024 -0.07300
C 	C 	0.00401 0.97606 0.39349 0.06500
C 	C 	0.04829 0.02844 0.40969 -0.03700
C 	C 	0.04338 0.02578 0.44463 -0.04500
C 	C 	0.09697 0.08299 0.39092 -0.03400
C 	C 	0.10203 0.08661 0.35612 -0.04200
C 	C 	0.06030 0.03495 0.34022 -0.02400
C 	C 	0.01259 0.97829 0.35965 0.05200
C 	C 	0.97662 0.92528 0.34573 -0.05800
C 	C 	0.98189 0.93066 0.31011 -0.01800
C 	C 	0.02437 0.98825 0.28850 -0.00500
C 	C 	0.06561 0.03963 0.30476 -0.06800
H 	H 	0.90825 0.88067 0.45885 0.03600
H 	H 	0.91218 0.88693 0.39587 0.05000
H 	H 	0.07940 0.06466 0.45819 0.04400
H 	H 	0.13061 0.12323 0.40299 0.03800
H 	H 	0.13910 0.12980 0.34165 0.03900
H 	H 	0.94603 0.87986 0.36265 0.04500
H 	H 	0.95095 0.89031 0.29852 0.04200
H 	H 	0.09981 0.08394 0.28880 0.04900
C 	C 	0.13628 0.31655 0.65136 -0.01100
C 	C 	0.12791 0.35962 0.61870 -0.02500
C 	C 	0.14488 0.41129 0.62444 -0.04200
C 	C 	0.17003 0.42009 0.66290 0.01900
C 	C 	0.17891 0.37732 0.69549 -0.04300
C 	C 	0.16212 0.32578 0.68974 -0.02600
C 	C 	0.10733 0.25775 0.64649 0.05700
C 	C 	0.07791 0.20652 0.64324 -0.11500
C 	C 	0.19603 0.47751 0.66825 0.00700
C 	C 	0.22285 0.52714 0.67295 -0.03400
H 	H 	0.10702 0.35243 0.58899 0.04400
H 	H 	0.13901 0.44470 0.59897 0.04900
H 	H 	0.19948 0.38433 0.72523 0.04600
H 	H 	0.16784 0.29231 0.71525 0.03900
C 	C 	0.54592 0.76317 0.68960 0.02000
C 	C 	0.58137 0.74582 0.72444 -0.04100
C 	C 	0.63752 0.76166 0.72400 -0.02600
C 	C 	0.65858 0.79488 0.68869 -0.00700
C 	C 	0.62285 0.81180 0.65377 -0.02400
C 	C 	0.56665 0.79590 0.65421 -0.03900
C 	C 	0.48405 0.73951 0.68884 0.01000
C 	C 	0.43059 0.71556 0.68784 -0.03300
C 	C 	0.72160 0.82090 0.68998 0.05600
C 	C 	0.77609 0.84698 0.69190 -0.10600
H 	H 	0.56513 0.71954 0.75177 0.04800
H 	H 	0.66527 0.74919 0.75128 0.04200
H 	H 	0.63924 0.83834 0.62649 0.05000
H 	H 	0.53897 0.80852 0.62696 0.05300
C 	C 	0.21755 0.74114 0.70376 0.02000
C 	C 	0.26122 0.79114 0.72148 -0.03900
C 	C 	0.24279 0.82265 0.72142 -0.02500
C 	C 	0.18053 0.80439 0.70367 -0.00400
C 	C 	0.13613 0.75249 0.68768 -0.02600
C 	C 	0.15459 0.72101 0.68770 -0.04000
C 	C 	0.23843 0.71345 0.69952 0.00900
C 	C 	0.25692 0.69163 0.69559 -0.03000
C 	C 	0.16541 0.84517 0.69501 0.05700
C 	C 	0.15341 0.88103 0.68438 -0.10200
H 	H 	0.30988 0.80683 0.73420 0.05200
H 	H 	0.27757 0.86278 0.73369 0.05000
H 	H 	0.08799 0.73811 0.67370 0.04900
H 	H 	0.12036 0.68222 0.67417 0.05000
C 	C 	0.13586 0.31668 0.15068 -0.01100
C 	C 	0.16150 0.32560 0.18914 -0.02600
C 	C 	0.17847 0.37713 0.19503 -0.04300
C 	C 	0.16997 0.42019 0.16252 0.01900
C 	C 	0.14498 0.41168 0.12400 -0.04200
C 	C 	0.12783 0.36001 0.11811 -0.02500
C 	C 	0.10685 0.25796 0.14563 0.05700
C 	C 	0.07742 0.20680 0.14224 -0.11500
C 	C 	0.19615 0.47757 0.16805 0.00700
C 	C 	0.22310 0.52714 0.17291 -0.03400
H 	H 	0.16695 0.29192 0.21458 0.03900
H 	H 	0.19890 0.38391 0.22483 0.04600
H 	H 	0.13939 0.44530 0.09858 0.04900
H 	H 	0.10709 0.35306 0.08834 0.04400
C 	C 	0.65935 0.79487 0.18923 -0.00700
C 	C 	0.62348 0.81157 0.15428 -0.02400
C 	C 	0.56718 0.79549 0.15470 -0.03900
C 	C 	0.54650 0.76282 0.19011 0.02000
C 	C 	0.58209 0.74568 0.22498 -0.04100
C 	C 	0.63834 0.76169 0.22455 -0.02600
C 	C 	0.72243 0.82104 0.19049 0.05600
C 	C 	0.77693 0.84727 0.19234 -0.10600
C 	C 	0.48460 0.73910 0.18936 0.01000
C 	C 	0.43114 0.71517 0.18835 -0.03300
H 	H 	0.63982 0.83806 0.12698 0.05000
H 	H 	0.53941 0.80796 0.12744 0.05200
H 	H 	0.56589 0.71944 0.25232 0.04800
H 	H 	0.66620 0.74939 0.25185 0.04200
C 	C 	0.21841 0.74153 0.20389 0.02000
C 	C 	0.26223 0.79165 0.22151 -0.03900
C 	C 	0.24389 0.82321 0.22152 -0.02500
C 	C 	0.18159 0.80487 0.20393 -0.00400
C 	C 	0.13707 0.75288 0.18803 -0.02600
C 	C 	0.15543 0.72136 0.18798 -0.04000
C 	C 	0.23914 0.71369 0.19965 0.00800
C 	C 	0.25753 0.69175 0.19572 -0.03000
C 	C 	0.16648 0.84563 0.19537 0.05700
C 	C 	0.15444 0.88146 0.18479 -0.10200
H 	H 	0.31090 0.80739 0.23411 0.05200
H 	H 	0.27876 0.86342 0.23370 0.05000
H 	H 	0.08890 0.73844 0.17417 0.04900
H 	H 	0.12110 0.68249 0.17452 0.05000
C 	C 	0.75299 0.19428 0.54411 0.01400
C 	C 	0.70972 0.13183 0.54368 -0.04600
C 	C 	0.72957 0.10139 0.54412 -0.03400
C 	C 	0.79283 0.13321 0.54514 -0.00800
C 	C 	0.83497 0.19665 0.54277 -0.03300
C 	C 	0.81512 0.22709 0.54231 -0.04500
C 	C 	0.73558 0.22287 0.55069 0.00100
C 	C 	0.72178 0.24657 0.55717 -0.04000
C 	C 	0.81701 0.09902 0.55702 0.03000
C 	C 	0.83790 0.07000 0.57020 -0.10000
H 	H 	0.66143 0.10623 0.54467 0.03800
H 	H 	0.69658 0.05240 0.54586 0.03000
H 	H 	0.88393 0.22170 0.54348 0.03800
H 	H 	0.84874 0.27553 0.54223 0.04300
C 	C 	0.89074 0.64006 0.60380 -0.00800
C 	C 	0.90270 0.59898 0.63594 -0.03000
C 	C 	0.88145 0.54516 0.63052 -0.04300
C 	C 	0.84844 0.53236 0.59287 0.01600
C 	C 	0.83796 0.57428 0.56054 -0.04300
C 	C 	0.85899 0.62794 0.56600 -0.02900
C 	C 	0.91771 0.69805 0.60851 0.04600
C 	C 	0.94370 0.74820 0.61176 -0.10500
C 	C 	0.81529 0.47184 0.58902 0.00500
C 	C 	0.78288 0.42006 0.58585 -0.04000
H 	H 	0.92852 0.60874 0.66508 0.03800
H 	H 	0.88922 0.51272 0.65576 0.04300
H 	H 	0.81192 0.56444 0.53143 0.04500
H 	H 	0.85074 0.66013 0.54082 0.04100
C 	C 	0.46064 0.19999 0.58179 0.01500
C 	C 	0.43353 0.15607 0.61446 -0.04700
C 	C 	0.37811 0.14044 0.61596 -0.02900
C 	C 	0.34956 0.16866 0.58479 -0.01400
C 	C 	0.37839 0.21460 0.55305 -0.02800
C 	C 	0.43368 0.23014 0.55152 -0.04500
C 	C 	0.51938 0.21858 0.58108 0.00200
C 	C 	0.57032 0.23822 0.58037 -0.04100
C 	C 	0.28488 0.14079 0.58075 0.05300
C 	C 	0.22907 0.11312 0.57566 -0.12300
H 	H 	0.45496 0.13365 0.63848 0.03900
H 	H 	0.35596 0.10456 0.64050 0.03400
H 	H 	0.35651 0.23641 0.52872 0.03900
H 	H 	0.45527 0.26527 0.52664 0.04500
C 	C 	0.79328 0.13326 0.04500 -0.00800
C 	C 	0.72994 0.10170 0.04365 -0.03500
C 	C 	0.71023 0.13223 0.04326 -0.04600
C 	C 	0.75373 0.19453 0.04409 0.01400
C 	C 	0.81601 0.22711 0.04268 -0.04500
C 	C 	0.83572 0.19657 0.04309 -0.03300
C 	C 	0.81713 0.09882 0.05674 0.03000
C 	C 	0.83773 0.06956 0.06981 -0.10000
C 	C 	0.73628 0.22318 0.05055 0.00100
C 	C 	0.72237 0.24691 0.05691 -0.04000
H 	H 	0.69673 0.05280 0.04505 0.03000
H 	H 	0.66184 0.10681 0.04395 0.03800
H 	H 	0.84981 0.27543 0.04292 0.04300
H 	H 	0.88474 0.22142 0.04408 0.03800
C 	C 	0.84869 0.53200 0.09348 0.01600
C 	C 	0.83943 0.57465 0.06108 -0.04300
C 	C 	0.86048 0.62822 0.06667 -0.02900
C 	C 	0.89102 0.63954 0.10468 -0.00800
C 	C 	0.90174 0.59771 0.13692 -0.03000
C 	C 	0.88046 0.54398 0.13136 -0.04300
C 	C 	0.81547 0.47166 0.08928 0.00500
C 	C 	0.78300 0.42006 0.08578 -0.04000
C 	C 	0.91815 0.69747 0.10959 0.04600
C 	C 	0.94425 0.74760 0.11294 -0.10500
H 	H 	0.81434 0.56546 0.03178 0.04500
H 	H 	0.85322 0.66099 0.04144 0.04000
H 	H 	0.92662 0.60683 0.16624 0.03800
H 	H 	0.88725 0.51097 0.15665 0.04300
C 	C 	0.34904 0.16871 0.08333 -0.01400
C 	C 	0.37835 0.14149 0.11489 -0.03000
C 	C 	0.43377 0.15712 0.11339 -0.04700
C 	C 	0.46013 0.20004 0.08032 0.01500
C 	C 	0.43238 0.22919 0.04959 -0.04500
C 	C 	0.37708 0.21366 0.05112 -0.02800
C 	C 	0.28441 0.14064 0.07958 0.05200
C 	C 	0.22861 0.11274 0.07479 -0.12300
C 	C 	0.51900 0.21884 0.07966 0.00200
C 	C 	0.57004 0.23858 0.07905 -0.04100
H 	H 	0.35681 0.10637 0.13979 0.03400
H 	H 	0.45582 0.13550 0.13774 0.03900
H 	H 	0.45338 0.26356 0.02438 0.04500
H 	H 	0.35460 0.23467 0.02648 0.03900
