data_crystal

_cell_length_a 17.33469
_cell_length_b 17.43744
_cell_length_c 66.98704
_cell_angle_alpha 89.55044
_cell_angle_beta  89.54752
_cell_angle_gamma 119.46749

_symmetry_space_group_name_	'P 1'
_symmetry_space_group_name_H-M	'P 1'

loop_
_symmetry_equiv_pos_as_xyz
  x,y,z

loop_
_atom_site_label
_atom_site_type_symbol
_atom_site_fract_x
_atom_site_fract_y
_atom_site_fract_z
_atom_site_charge
C 	C 	0.23411 0.82914 0.01057 0.28600
C 	C 	0.35910 0.59183 0.03169 0.30100
Ni	Ni	0.25125 0.67058 0.02015 1.12000
O 	O 	0.19044 0.74335 0.01457 -0.36800
O 	O 	0.30774 0.73486 0.04585 -0.38600
O 	O 	0.28187 0.57592 0.02534 -0.38300
H 	H 	0.36506 0.80494 0.01163 0.14100
C 	C 	0.16638 0.13668 0.18733 0.30600
C 	C 	0.19912 0.13209 0.24363 0.29100
C 	C 	0.04065 0.86627 0.18297 0.31100
C 	C 	0.07548 0.84246 0.24116 0.29100
Ni	Ni	0.15388 0.99099 0.21270 1.11100
O 	O 	0.10523 0.88380 0.19545 -0.39000
O 	O 	0.13709 0.16430 0.20234 -0.36800
O 	O 	0.15684 0.05723 0.18752 -0.37300
O 	O 	0.14995 0.91531 0.23606 -0.38900
O 	O 	0.22640 0.10691 0.22758 -0.36700
C 	C 	0.21020 0.19526 0.16987 -0.08500
C 	C 	0.21776 0.15947 0.15168 0.01900
C 	C 	0.25810 0.21427 0.13507 -0.06600
C 	C 	0.29104 0.30519 0.13640 0.04100
C 	C 	0.28631 0.34152 0.15468 -0.06800
C 	C 	0.24611 0.28688 0.17136 0.01800
C 	C 	0.31588 0.35870 0.11848 -0.01700
C 	C 	0.33696 0.40517 0.10374 -0.01800
C 	C 	0.35246 0.46106 0.08650 0.04300
C 	C 	0.30012 0.50077 0.08406 -0.07000
C 	C 	0.30384 0.54419 0.06629 0.02300
C 	C 	0.36300 0.55210 0.05092 -0.09700
C 	C 	0.41845 0.51528 0.05357 0.02300
C 	C 	0.41265 0.46907 0.07134 -0.07000
H 	H 	0.19102 0.08908 0.15029 0.04800
H 	H 	0.26092 0.18557 0.12097 0.05700
H 	H 	0.31136 0.41180 0.15581 0.05000
H 	H 	0.24249 0.31577 0.18535 0.03800
H 	H 	0.25383 0.49514 0.09572 0.05300
H 	H 	0.26017 0.57157 0.06439 0.02700
H 	H 	0.46373 0.52000 0.04177 0.03800
H 	H 	0.45334 0.43826 0.07310 0.05400
C 	C 	0.05801 0.87080 0.16130 -0.09600
C 	C 	0.12085 0.84948 0.15378 0.02000
C 	C 	0.14594 0.86436 0.13364 -0.07400
C 	C 	0.10843 0.90053 0.12082 0.04000
C 	C 	0.04447 0.92044 0.12814 -0.07800
C 	C 	0.01915 0.90551 0.14832 0.02700
C 	C 	0.13439 0.91501 0.10005 -0.02600
C 	C 	0.15882 0.92549 0.08285 -0.02100
C 	C 	0.18947 0.93312 0.06251 0.03700
C 	C 	0.12924 0.91032 0.04685 -0.06700
C 	C 	0.14989 0.88907 0.02818 0.01800
C 	C 	0.23009 0.88891 0.02525 -0.08100
C 	C 	0.29420 0.92206 0.04022 0.01600
C 	C 	0.27422 0.94498 0.05871 -0.06700
H 	H 	0.15106 0.82238 0.16360 0.03400
H 	H 	0.19490 0.84813 0.12802 0.04800
H 	H 	0.01498 0.94817 0.11829 0.04700
H 	H 	0.06411 0.90280 0.04952 0.04900
H 	H 	0.10023 0.86470 0.01665 0.03500
H 	H 	0.35542 0.92032 0.03837 0.03300
H 	H 	0.32190 0.96436 0.07063 0.04400
C 	C 	0.26435 0.18439 0.25873 -0.07900
C 	C 	0.33986 0.26386 0.25317 0.02000
H 	H 	0.35730 0.28001 0.23754 0.03800
H 	H 	0.44346 0.38927 0.26315 0.05100
C 	C 	0.06647 0.80244 0.26112 -0.09400
C 	C 	0.00507 0.71287 0.26444 0.03300
H 	H 	0.96952 0.67103 0.25207 0.03100
C 	C 	0.39072 0.75946 0.05125 0.27800
Ni	Ni	0.46405 0.76184 0.01056 1.11700
O 	O 	0.43082 0.63931 0.02069 -0.38900
O 	O 	0.45875 0.80045 0.03861 -0.38600
C 	C 	0.91141 0.95231 0.25363 0.25000
C 	C 	0.87192 0.96682 0.19661 0.26600
O 	O 	0.92295 0.01764 0.24128 -0.33200
O 	O 	0.90684 0.87874 0.24683 -0.37100
O 	O 	0.94719 0.04148 0.19669 -0.34900
O 	O 	0.85470 0.90604 0.21031 -0.37900
O 	O 	0.96323 0.85237 0.18970 -0.39300
C 	C 	0.41144 0.76308 0.07256 -0.08400
C 	C 	0.47248 0.73701 0.07863 0.01500
C 	C 	0.51117 0.76001 0.09733 -0.06800
C 	C 	0.49273 0.81293 0.10983 0.03700
C 	C 	0.42783 0.83486 0.10444 -0.06900
C 	C 	0.38644 0.80909 0.08587 0.01600
C 	C 	0.54936 0.85413 0.12654 -0.02000
C 	C 	0.60085 0.88511 0.14003 -0.03000
C 	C 	0.66676 0.91953 0.15534 0.04700
C 	C 	0.75565 0.97638 0.15002 -0.09800
C 	C 	0.82272 0.99465 0.16375 -0.01600
C 	C 	0.80124 0.95630 0.18292 -0.07400
C 	C 	0.71174 0.90347 0.18857 0.01200
C 	C 	0.64486 0.88502 0.17479 -0.07200
H 	H 	0.49461 0.70417 0.06831 0.03000
H 	H 	0.56044 0.74192 0.10152 0.04900
H 	H 	0.41231 0.87494 0.11416 0.04500
H 	H 	0.33936 0.82957 0.08139 0.03300
H 	H 	0.77310 0.00327 0.13498 0.08000
H 	H 	0.89138 0.03576 0.15922 0.06400
H 	H 	0.69406 0.87512 0.20348 0.03800
H 	H 	0.57630 0.84120 0.17903 0.04900
C 	C 	0.89332 0.95663 0.27494 -0.07700
C 	C 	0.82612 0.97453 0.28096 0.00900
H 	H 	0.79234 0.99306 0.27002 0.03100
H 	H 	0.50974 0.19276 0.99531 0.06900
O 	O 	0.45550 0.03511 0.01061 -0.27000
H 	H 	0.48946 0.05051 0.02319 0.15500
Ni	Ni	0.03083 0.08102 0.22112 1.11900
Ni	Ni	0.94298 0.86757 0.21868 1.11900
O 	O 	0.00854 0.80546 0.22856 -0.37800
O 	O 	0.12211 0.13129 0.24397 -0.36600
O 	O 	0.04504 0.98130 0.22159 -0.72500
H 	H 	0.05446 0.97918 0.23600 0.14200
H 	H 	0.97152 0.92347 0.15396 0.02700
C 	C 	0.39750 0.37884 0.30200 -0.01700
C 	C 	0.36257 0.30834 0.28782 0.04100
C 	C 	0.29209 0.22577 0.29353 -0.06500
C 	C 	0.24294 0.16407 0.27903 0.02000
C 	C 	0.38856 0.32590 0.26768 -0.06700
H 	H 	0.49420 0.44438 0.34998 0.05200
H 	H 	0.27220 0.21128 0.30909 0.05500
H 	H 	0.18533 0.10249 0.28349 0.03700
C 	C 	0.98908 0.67713 0.28376 -0.08400
C 	C 	0.03436 0.73038 0.29990 0.05100
C 	C 	0.09600 0.81955 0.29665 -0.07600
C 	C 	0.11233 0.85544 0.27733 0.02000
H 	H 	0.94218 0.60784 0.28614 0.05400
H 	H 	0.13161 0.86101 0.30907 0.04700
H 	H 	0.15867 0.92494 0.27507 0.02500
C 	C 	0.79937 0.96415 0.30104 -0.06700
C 	C 	0.83992 0.93620 0.31518 0.03200
C 	C 	0.90981 0.92240 0.30932 -0.06700
C 	C 	0.93651 0.93270 0.28928 0.00900
H 	H 	0.74560 0.97547 0.30549 0.04500
H 	H 	0.94195 0.90147 0.32018 0.04500
H 	H 	0.98921 0.91988 0.28481 0.02700
C 	C 	0.02402 0.69196 0.31949 -0.02400
C 	C 	0.44441 0.60590 0.36046 -0.08800
C 	C 	0.47522 0.54581 0.36331 0.01600
C 	C 	0.47749 0.49583 0.34732 -0.06700
C 	C 	0.44965 0.50636 0.32841 0.04100
C 	C 	0.43133 0.57520 0.32501 -0.06900
C 	C 	0.42894 0.62510 0.34102 0.02300
C 	C 	0.42151 0.43657 0.31414 -0.01800
H 	H 	0.49023 0.53256 0.37819 0.03400
H 	H 	0.41204 0.58543 0.31031 0.05100
C 	C 	0.01715 0.66209 0.33610 -0.01400
C 	C 	0.01693 0.62914 0.35585 0.03600
C 	C 	0.04416 0.68761 0.37185 -0.06300
C 	C 	0.05773 0.53472 0.37430 0.01800
C 	C 	0.01560 0.54849 0.35805 -0.05800
H 	H 	0.04156 0.74832 0.37073 0.04800
H 	H 	0.06547 0.47674 0.37473 0.04000
H 	H 	0.99074 0.50077 0.34617 0.04700
C 	C 	0.80584 0.91593 0.33537 -0.01700
C 	C 	0.77673 0.89918 0.35223 -0.03500
C 	C 	0.73933 0.87841 0.37213 0.06200
C 	C 	0.69539 0.79076 0.37900 -0.08000
H 	H 	0.69738 0.73969 0.37027 0.05400
C 	C 	0.18513 0.61443 0.39652 0.28800
C 	C 	0.40526 0.62771 0.37741 0.30400
Ni	Ni	0.37928 0.75010 0.40428 1.11300
O 	O 	0.26019 0.67994 0.38901 -0.36800
O 	O 	0.18369 0.54810 0.40685 -0.37300
O 	O 	0.44183 0.70941 0.38358 -0.37600
O 	O 	0.32520 0.56957 0.38349 -0.37900
H 	H 	0.40722 0.67299 0.33857 0.03200
C 	C 	0.08637 0.67385 0.38807 0.01400
C 	C 	0.10230 0.60236 0.38806 -0.07800
H 	H 	0.11635 0.72431 0.39927 0.03200
O 	O 	0.50179 0.83441 0.41613 -0.37800
C 	C 	0.73741 0.94405 0.38369 -0.12300
C 	C 	0.68527 0.92118 0.40109 0.04100
C 	C 	0.63423 0.83237 0.40695 -0.10400
C 	C 	0.64386 0.76793 0.39652 0.03100
H 	H 	0.77254 0.01220 0.37867 0.08900
H 	H 	0.67981 0.97175 0.40924 0.02100
H 	H 	0.60564 0.69922 0.40101 0.03200
C 	C 	0.44901 0.54125 0.43091 0.32100
C 	C 	0.23086 0.52912 0.45456 0.29600
Ni	Ni	0.29380 0.53880 0.41271 1.12200
O 	O 	0.42585 0.56835 0.44695 -0.37300
O 	O 	0.24707 0.48623 0.44028 -0.36300
O 	O 	0.29494 0.60535 0.46141 -0.37800
O 	O 	0.40069 0.52208 0.41471 -0.39100
O 	O 	0.34790 0.65612 0.42223 -0.71600
H 	H 	0.29431 0.65417 0.42781 0.14600
O 	O 	0.29770 0.93469 0.42792 -0.27800
H 	H 	0.23302 0.91038 0.42991 0.14400
C 	C 	0.14085 0.48998 0.46334 -0.09000
C 	C 	0.09952 0.54152 0.46515 -0.07300
H 	H 	0.13632 0.61148 0.46173 0.06500
H 	H 	0.45418 0.40443 0.41279 0.06700
C 	C 	0.61754 0.37446 0.46131 0.31600
C 	C 	0.47450 0.12901 0.47975 0.31400
Ni	Ni	0.67165 0.24032 0.47309 1.11500
O 	O 	0.67955 0.35158 0.45915 -0.36100
O 	O 	0.54742 0.32808 0.47286 -0.36700
O 	O 	0.80906 0.29305 0.47223 -0.37600
O 	O 	0.53763 0.17183 0.46638 -0.36400
C 	C 	0.55677 0.80558 0.42016 0.30700
C 	C 	0.35504 0.81492 0.44424 0.29700
Ni	Ni	0.41140 0.67574 0.44646 1.12200
O 	O 	0.53344 0.73993 0.43295 -0.37500
O 	O 	0.32884 0.80182 0.42534 -0.36200
O 	O 	0.41401 0.79292 0.45083 -0.37300
C 	C 	0.40322 0.04059 0.47487 -0.07300
C 	C 	0.36329 0.02698 0.45613 -0.02100
C 	C 	0.33151 0.94563 0.44677 0.13300
C 	C 	0.34095 0.87815 0.45623 -0.09300
C 	C 	0.36101 0.88593 0.47667 -0.05600
C 	C 	0.39338 0.96757 0.48596 0.13300
H 	H 	0.36463 0.08172 0.44803 0.07300
H 	H 	0.36063 0.83160 0.48473 0.06200
O 	O 	0.42511 0.97813 0.50501 -0.29500
C 	C 	0.51833 0.51563 0.43247 -0.10600
C 	C 	0.50567 0.43750 0.42371 -0.05500
C 	C 	0.55353 0.39725 0.43053 0.16800
C 	C 	0.61197 0.43396 0.44659 -0.09900
C 	C 	0.63702 0.52000 0.45238 -0.06300
C 	C 	0.59042 0.56117 0.44535 0.17200
O 	O 	0.53428 0.31630 0.42341 -0.27500
H 	H 	0.68590 0.55111 0.46392 0.06600
O 	O 	0.61129 0.64299 0.45216 -0.28700
H 	H 	0.65660 0.68515 0.44261 0.15100
H 	H 	0.57676 0.32896 0.41220 0.14800
C 	C 	0.96024 0.41091 0.47425 -0.13800
C 	C 	0.00940 0.50232 0.47037 0.19800
O 	O 	0.96944 0.55331 0.47150 -0.28800
H 	H 	0.94693 0.55278 0.45791 0.15100
C 	C 	0.09231 0.39906 0.46777 0.15600
O 	O 	0.13231 0.34810 0.46663 -0.26800
H 	H 	0.15596 0.34973 0.48015 0.15200
C 	C 	0.71564 0.15478 0.50704 0.28200
C 	C 	0.86543 0.36872 0.47994 0.33400
C 	C 	0.68192 0.45939 0.52164 0.29900
Ni	Ni	0.55230 0.29748 0.50192 1.12100
Ni	Ni	0.74968 0.33786 0.51505 1.11700
O 	O 	0.67288 0.13863 0.48975 -0.34900
O 	O 	0.77601 0.23613 0.51197 -0.37700
O 	O 	0.61166 0.42514 0.51017 -0.38700
O 	O 	0.83887 0.40596 0.49306 -0.37300
O 	O 	0.53510 0.25684 0.53066 -0.37900
O 	O 	0.46530 0.16991 0.49532 -0.36200
O 	O 	0.75148 0.45300 0.51680 -0.38300
O 	O 	0.65096 0.27853 0.49807 -0.70700
H 	H 	0.62049 0.22222 0.50544 0.14400
H 	H 	0.37431 0.96717 0.51381 0.14300
C 	C 	0.68850 0.08453 0.52209 -0.07600
C 	C 	0.75020 0.05961 0.52832 0.02200
C 	C 	0.61483 0.06445 0.53440 0.02000
H 	H 	0.80627 0.07280 0.51877 0.03900
H 	H 	0.56607 0.08232 0.52967 0.04800
H 	H 	0.60119 0.55777 0.52948 0.03600
C 	C 	0.00228 0.35985 0.47301 -0.02400
H 	H 	0.96535 0.28977 0.47627 0.05800
C 	C 	0.06166 0.11372 0.73949 0.28900
C 	C 	0.05510 0.10414 0.68267 0.30000
Ni	Ni	0.95529 0.95761 0.71186 1.08600
Ni	Ni	0.94244 0.13798 0.71167 1.11600
O 	O 	0.06549 0.05944 0.72612 -0.35500
O 	O 	0.01576 0.15503 0.73621 -0.37300
O 	O 	0.00089 0.01910 0.68434 -0.36100
O 	O 	0.05303 0.15871 0.69594 -0.36900
O 	O 	0.88808 0.01346 0.71608 -0.69400
H 	H 	0.89042 0.01461 0.73073 0.14300
C 	C 	0.12942 0.13637 0.66815 -0.08400
C 	C 	0.11681 0.09622 0.64946 0.02000
C 	C 	0.18893 0.11987 0.63650 -0.06600
C 	C 	0.27429 0.18389 0.64207 0.04200
C 	C 	0.28708 0.22494 0.66060 -0.06800
C 	C 	0.21495 0.20136 0.67361 0.01900
C 	C 	0.34739 0.21188 0.62810 -0.01800
H 	H 	0.05124 0.04640 0.64502 0.04200
H 	H 	0.17832 0.08868 0.62208 0.05700
H 	H 	0.35271 0.27516 0.66493 0.05000
H 	H 	0.22591 0.23215 0.68807 0.03900
C 	C 	0.21129 0.16206 0.75351 0.02000
H 	H 	0.23262 0.14783 0.73945 0.04000
C 	C 	0.59829 0.28484 0.54419 0.28000
O 	O 	0.67546 0.28744 0.54054 -0.38800
Ni	Ni	0.76193 0.94790 0.71369 1.10100
O 	O 	0.74660 0.03439 0.69653 -0.37000
O 	O 	0.84815 0.14595 0.72848 -0.37700
O 	O 	0.74425 0.00400 0.73797 -0.36500
O 	O 	0.90130 0.88562 0.73810 -0.39000
O 	O 	0.75653 0.84585 0.73021 -0.37900
C 	C 	0.74581 0.02787 0.54778 -0.06300
C 	C 	0.67948 0.02057 0.56103 0.04200
C 	C 	0.61069 0.03316 0.55390 -0.05900
C 	C 	0.69224 0.01886 0.58223 -0.01400
C 	C 	0.70461 0.01743 0.59989 -0.01600
C 	C 	0.72442 0.02101 0.62083 0.04600
C 	C 	0.66404 0.01887 0.63519 -0.06600
C 	C 	0.68875 0.03567 0.65524 0.02500
C 	C 	0.77448 0.05599 0.66093 -0.08400
H 	H 	0.79799 0.01587 0.55300 0.05500
H 	H 	0.55788 0.02564 0.56390 0.05600
H 	H 	0.59888 0.00636 0.63079 0.05500
H 	H 	0.64212 0.03505 0.66619 0.04000
C 	C 	0.40675 0.23347 0.61599 -0.01700
C 	C 	0.47364 0.26121 0.60045 0.04000
C 	C 	0.48264 0.32607 0.58675 -0.06600
C 	C 	0.52952 0.33847 0.56891 0.01600
C 	C 	0.57211 0.28932 0.56495 -0.08100
C 	C 	0.56981 0.22971 0.57951 0.01800
C 	C 	0.51972 0.21490 0.59714 -0.06700
H 	H 	0.44769 0.36245 0.58923 0.05100
H 	H 	0.52657 0.38101 0.55747 0.03200
H 	H 	0.60161 0.19070 0.57662 0.03600
H 	H 	0.51367 0.16489 0.60774 0.05200
C 	C 	0.79422 0.80460 0.66514 -0.10000
C 	C 	0.83898 0.85149 0.64781 0.01800
C 	C 	0.81232 0.81298 0.62911 -0.07700
C 	C 	0.74154 0.72686 0.62766 0.04100
C 	C 	0.69755 0.67946 0.64498 -0.07500
C 	C 	0.72373 0.71825 0.66367 0.02500
C 	C 	0.72345 0.68263 0.60889 -0.02500
C 	C 	0.70771 0.64487 0.59323 -0.02400
C 	C 	0.69653 0.59607 0.57533 0.04000
C 	C 	0.74007 0.54713 0.57358 -0.07300
C 	C 	0.73511 0.50336 0.55602 0.02300
C 	C 	0.68460 0.50608 0.54003 -0.10000
C 	C 	0.63982 0.55453 0.54176 0.02100
C 	C 	0.64594 0.59973 0.55946 -0.07300
H 	H 	0.89302 0.91848 0.64881 0.01100
H 	H 	0.84753 0.84962 0.61580 0.03900
H 	H 	0.64374 0.61224 0.64399 0.05000
H 	H 	0.68788 0.68204 0.67696 0.03000
H 	H 	0.77888 0.54383 0.58583 0.04900
H 	H 	0.76963 0.46593 0.55493 0.02300
H 	H 	0.61212 0.63777 0.56074 0.04800
H 	H 	0.89960 0.06971 0.65085 0.03500
C 	C 	0.80835 0.85154 0.68386 0.30700
C 	C 	0.81717 0.85509 0.74351 0.27700
C 	C 	0.80256 0.07715 0.68182 0.30500
C 	C 	0.80058 0.08660 0.74255 0.28700
O 	O 	0.86005 0.84664 0.69740 -0.38700
O 	O 	0.75892 0.88718 0.68790 -0.40200
O 	O 	0.88508 0.13601 0.68560 -0.38800
C 	C 	0.83381 0.05569 0.64658 0.02600
C 	C 	0.80859 0.03758 0.62667 -0.06600
H 	H 	0.85544 0.03883 0.61568 0.05300
O 	O 	0.00554 0.46306 0.99817 -0.28500
O 	O 	0.35124 0.75085 0.00443 -0.70500
H 	H 	0.86938 0.02974 0.77113 0.03000
C 	C 	0.31030 0.27038 0.80187 -0.01700
C 	C 	0.24695 0.22586 0.78649 0.04200
C 	C 	0.15845 0.20373 0.78955 -0.06500
C 	C 	0.09678 0.16240 0.77454 0.02000
C 	C 	0.12309 0.14275 0.75630 -0.07900
C 	C 	0.27312 0.20367 0.76859 -0.06600
H 	H 	0.13764 0.21974 0.80347 0.05400
H 	H 	0.02912 0.14803 0.77686 0.03900
H 	H 	0.34140 0.21976 0.76623 0.05200
H 	H 	0.87175 0.75778 0.76469 0.03100
C 	C 	0.77972 0.14460 0.87776 -0.06400
C 	C 	0.71441 0.09724 0.86369 0.04500
C 	C 	0.62513 0.06546 0.86883 -0.06300
C 	C 	0.73954 0.10235 0.84298 -0.01500
C 	C 	0.76065 0.10667 0.82565 -0.01700
C 	C 	0.78474 0.11423 0.80483 0.04300
C 	C 	0.76149 0.16259 0.79175 -0.06900
C 	C 	0.77495 0.16110 0.77116 0.02300
C 	C 	0.81157 0.11116 0.76360 -0.08900
C 	C 	0.82687 0.06936 0.79739 -0.06800
H 	H 	0.84863 0.16571 0.87442 0.05100
H 	H 	0.57347 0.02472 0.85853 0.05900
H 	H 	0.73003 0.19858 0.79746 0.05200
H 	H 	0.75229 0.19452 0.76108 0.03400
C 	C 	0.52416 0.38898 0.86564 -0.08300
C 	C 	0.56283 0.40337 0.84650 0.02000
C 	C 	0.50967 0.38230 0.82961 -0.06800
C 	C 	0.41807 0.34794 0.83182 0.04100
C 	C 	0.38125 0.34329 0.85078 -0.06600
C 	C 	0.36073 0.30616 0.81530 -0.01700
H 	H 	0.63272 0.42469 0.84474 0.03600
H 	H 	0.53892 0.38800 0.81493 0.05100
H 	H 	0.31071 0.31884 0.85254 0.05300
C 	C 	0.74160 0.72625 0.86486 0.03800
C 	C 	0.74629 0.74414 0.84370 -0.02300
C 	C 	0.75123 0.75985 0.82601 -0.02600
C 	C 	0.76046 0.77637 0.80475 0.03600
C 	C 	0.78871 0.81823 0.76382 -0.08800
C 	C 	0.73116 0.83727 0.77491 0.00700
C 	C 	0.71781 0.81719 0.79538 -0.07200
H 	H 	0.87804 0.82345 0.87006 0.04300
H 	H 	0.69998 0.87107 0.76790 0.02600
H 	H 	0.67583 0.83494 0.80397 0.04300
C 	C 	0.84056 0.06813 0.77685 0.02000
H 	H 	0.84609 0.03278 0.80741 0.05700
C 	C 	0.81415 0.75322 0.79349 -0.07300
C 	C 	0.82829 0.77406 0.77313 0.01600
H 	H 	0.84640 0.72062 0.80059 0.04600
O 	O 	0.18405 0.58789 0.99760 -0.37000
H 	H 	0.60443 0.62403 0.86463 0.05300
C 	C 	0.15943 0.61203 0.98142 0.33000
Ni	Ni	0.32743 0.78299 0.97893 1.11200
O 	O 	0.28701 0.86114 0.99455 -0.36000
O 	O 	0.35546 0.69329 0.96492 -0.36600
O 	O 	0.19313 0.69535 0.97678 -0.37800
C 	C 	0.01037 0.47883 0.97798 0.18400
C 	C 	0.08896 0.54549 0.96907 -0.10800
C 	C 	0.09409 0.55645 0.94824 -0.05600
H 	H 	0.15589 0.60384 0.94108 0.06300
H 	H 	0.32620 0.50166 0.97967 0.07000
H 	H 	0.29826 0.33762 0.95998 0.15400
C 	C 	0.76133 0.59943 0.91642 0.28700
C 	C 	0.60977 0.27455 0.96262 0.32400
C 	C 	0.85564 0.45277 0.93806 0.32800
C 	C 	0.50494 0.42111 0.94484 0.30700
C 	C 	0.66014 0.23361 0.90484 0.31300
C 	C 	0.57198 0.38262 0.88296 0.28700
Ni	Ni	0.69471 0.46356 0.94930 1.11300
Ni	Ni	0.54728 0.29680 0.92355 1.12200
Ni	Ni	0.73794 0.42662 0.90397 1.12200
O 	O 	0.72104 0.57983 0.93420 -0.36900
O 	O 	0.80310 0.55783 0.91001 -0.37000
O 	O 	0.60147 0.21884 0.91912 -0.37300
O 	O 	0.68144 0.35193 0.96412 -0.37300
O 	O 	0.54054 0.26681 0.95304 -0.37100
O 	O 	0.65814 0.44017 0.88431 -0.38400
O 	O 	0.82795 0.50508 0.94509 -0.37300
O 	O 	0.82074 0.40655 0.92190 -0.38000
O 	O 	0.53371 0.30793 0.89369 -0.37600
O 	O 	0.56584 0.43023 0.95783 -0.36500
O 	O 	0.47950 0.36157 0.93046 -0.37300
O 	O 	0.69115 0.30460 0.89349 -0.38800
O 	O 	0.65435 0.40586 0.92474 -0.71100
H 	H 	0.63021 0.44212 0.91933 0.14100
C 	C 	0.41726 0.67584 0.97118 0.31300
C 	C 	0.50800 0.92907 0.98857 0.27500
O 	O 	0.48293 0.73284 0.98224 -0.37800
O 	O 	0.45750 0.88087 0.97407 -0.37300
O 	O 	0.53051 0.89290 0.00318 -0.37300
H 	H 	0.87162 0.38944 0.97376 0.06300
C 	C 	0.60352 0.19757 0.97326 -0.11000
C 	C 	0.54201 0.15866 0.98896 -0.04500
C 	C 	0.51806 0.07354 0.99574 0.15700
C 	C 	0.55341 0.02561 0.98633 -0.06100
C 	C 	0.62089 0.06752 0.97188 -0.06500
C 	C 	0.64719 0.15397 0.96559 0.17700
H 	H 	0.64987 0.03171 0.96483 0.08000
O 	O 	0.71075 0.19305 0.95089 -0.28000
H 	H 	0.76762 0.22547 0.95803 0.15000
C 	C 	0.46369 0.47666 0.94690 -0.10400
C 	C 	0.50792 0.56228 0.93882 -0.06500
C 	C 	0.49031 0.62711 0.94610 0.17500
C 	C 	0.42660 0.60599 0.96133 -0.10400
C 	C 	0.37658 0.51861 0.96817 -0.05800
C 	C 	0.39480 0.45381 0.96096 0.17200
H 	H 	0.56115 0.58049 0.92810 0.05900
O 	O 	0.53618 0.71134 0.93847 -0.28400
O 	O 	0.34990 0.36993 0.96878 -0.27600
H 	H 	0.59049 0.74148 0.94660 0.15300
C 	C 	0.67110 0.16065 0.89756 -0.07800
C 	C 	0.75765 0.17505 0.89495 0.02200
C 	C 	0.60334 0.09619 0.88602 0.02600
H 	H 	0.80992 0.22016 0.90461 0.03800
H 	H 	0.53516 0.07985 0.88868 0.04000
C 	C 	0.43419 0.36389 0.86766 0.01700
H 	H 	0.40423 0.35507 0.88236 0.03500
C 	C 	0.74776 0.65649 0.90232 -0.09000
C 	C 	0.66758 0.62164 0.89195 0.02100
C 	C 	0.66466 0.65614 0.87323 -0.06600
C 	C 	0.81866 0.76800 0.87626 -0.07100
C 	C 	0.82168 0.73330 0.89497 0.02000
H 	H 	0.61018 0.56205 0.89733 0.02600
H 	H 	0.88363 0.76169 0.90295 0.03000
H 	H 	0.03139 0.48493 0.91023 0.15000
C 	C 	0.93569 0.45818 0.94639 -0.11700
C 	C 	0.93408 0.43470 0.96652 -0.06800
C 	C 	0.01761 0.51214 0.93683 0.18300
O 	O 	0.02122 0.53008 0.91677 -0.28500
H 	H 	0.02057 0.41540 0.99988 0.15700
