data_crystal

_cell_length_a 26.26708
_cell_length_b 26.29536
_cell_length_c 26.27873
_cell_angle_alpha 95.49032
_cell_angle_beta  95.48966
_cell_angle_gamma 125.79805

_symmetry_space_group_name_	'P 1'
_symmetry_space_group_name_H-M	'P 1'

loop_
_symmetry_equiv_pos_as_xyz
  x,y,z

loop_
_atom_site_label
_atom_site_type_symbol
_atom_site_fract_x
_atom_site_fract_y
_atom_site_fract_z
_atom_site_charge
C 	C 	0.95446 0.01921 0.98444 0.12800
N 	N 	0.01907 0.05340 0.99035 -0.11100
C 	C 	0.04697 0.02341 0.99491 0.13600
N 	N 	0.02822 0.04886 0.43953 -0.11400
C 	C 	0.85787 0.07126 0.41420 -0.05100
C 	C 	0.89743 0.13506 0.44040 0.01800
C 	C 	0.98132 0.12394 0.46656 -0.05200
C 	C 	0.94171 0.05992 0.44078 -0.01000
C 	C 	0.88016 0.03402 0.41316 0.08500
H 	H 	0.80994 0.05068 0.39426 0.08500
O 	O 	0.81920 0.14505 0.31158 -0.07400
C 	C 	0.21748 0.11793 0.41063 -0.05600
C 	C 	0.25211 0.10921 0.44815 0.02000
C 	C 	0.22044 0.06782 0.48288 0.07600
C 	C 	0.15498 0.03715 0.48075 -0.03000
C 	C 	0.12029 0.04602 0.44337 -0.02400
C 	C 	0.15158 0.08552 0.40728 0.10400
N 	N 	0.25462 0.05673 0.52031 -0.01900
H 	H 	0.13111 0.00645 0.50830 0.07800
N 	N 	0.11627 0.09125 0.36622 -0.02100
N 	N 	0.30514 0.08103 0.36821 -0.01700
O 	O 	0.07076 0.04097 0.33233 -0.05800
O 	O 	0.25325 0.06630 0.56948 -0.07700
O 	O 	0.28367 0.03318 0.50494 -0.07000
O 	O 	0.30858 0.09174 0.32090 -0.07700
O 	O 	0.26657 0.02294 0.37606 -0.07000
C 	C 	0.84447 0.09036 0.97460 0.00700
C 	C 	0.83826 0.04947 0.93159 0.08300
C 	C 	0.87818 0.03044 0.93372 -0.05600
C 	C 	0.92349 0.05077 0.97874 -0.02000
C 	C 	0.93119 0.09340 0.02103 0.10200
N 	N 	0.79040 0.02593 0.88616 -0.02800
C 	C 	0.75372 0.08602 0.00348 0.06700
N 	N 	0.74503 0.04205 0.03625 -0.02500
O 	O 	0.80674 0.03562 0.84090 -0.08300
O 	O 	0.74695 0.05512 0.08571 -0.07400
C 	C 	0.11700 0.06000 0.00227 -0.00500
C 	C 	0.14990 0.04954 0.04042 0.09900
C 	C 	0.21360 0.07387 0.04001 -0.05400
H 	H 	0.23819 0.06421 0.06843 0.08800
H 	H 	0.67603 0.08579 0.02399 0.07000
O 	O 	0.95817 0.09419 0.10971 -0.06700
C 	C 	0.96595 0.02129 0.44192 0.12500
C 	C 	0.05187 0.01495 0.44304 0.14500
O 	O 	0.09235 0.03217 0.10902 -0.06300
C 	C 	0.89176 0.11307 0.01872 -0.04600
N 	N 	0.97712 0.11466 0.06724 -0.02800
C 	C 	0.71337 0.10464 0.00098 0.01100
C 	C 	0.24585 0.11106 0.00343 0.02300
C 	C 	0.14995 0.09922 0.96693 -0.04000
C 	C 	0.80208 0.11020 0.97328 0.02500
H 	H 	0.28734 0.07305 0.92927 0.09200
N 	N 	0.11881 0.01460 0.07989 -0.02900
O 	O 	0.43130 0.08185 0.92179 -0.09500
C 	C 	0.34686 0.13245 0.41138 0.06100
H 	H 	0.02897 0.14450 0.48720 0.09500
C 	C 	0.32582 0.10954 0.96060 -0.08100
H 	H 	0.12519 0.10824 0.93807 0.08400
C 	C 	0.31244 0.13446 0.00250 0.04300
N 	N 	0.40199 0.10763 0.91491 -0.02900
C 	C 	0.21435 0.12528 0.96760 0.07300
C 	C 	0.32188 0.14501 0.45182 0.03400
C 	C 	0.38884 0.13202 0.95874 0.12900
O 	O 	0.38095 0.10738 0.86795 -0.08500
O 	O 	0.13266 0.14730 0.36053 -0.06600
H 	H 	0.89733 0.14532 0.05155 0.08700
H 	H 	0.24164 0.14922 0.38351 0.09000
O 	O 	0.63940 0.14810 0.91966 -0.39200
C 	C 	0.72011 0.14622 0.96797 -0.09500
O 	O 	0.22437 0.14580 0.88195 -0.07800
C 	C 	0.80964 0.15287 0.94117 -0.06800
O 	O 	0.03748 0.15818 0.06795 -0.05300
H 	H 	0.87205 0.99755 0.90114 0.10300
O 	O 	0.73024 0.99084 0.88947 -0.05400
O 	O 	0.73071 0.98707 0.01607 -0.04700
N 	N 	0.86619 0.17567 0.35131 -0.01700
O 	O 	0.92329 0.19609 0.34476 -0.06900
N 	N 	0.01012 0.95930 0.99242 -0.10700
C 	C 	0.94575 0.92522 0.98626 0.15000
N 	N 	0.91800 0.95520 0.98246 -0.11100
N 	N 	0.92749 0.95967 0.44880 -0.10700
C 	C 	0.95114 0.92564 0.45207 0.14700
N 	N 	0.01325 0.95341 0.44936 -0.11000
Cu	Cu	0.63149 0.23822 0.00335 0.93200
Cu	Cu	0.65287 0.21311 0.88486 0.89700
Cu	Cu	0.64502 0.32867 0.93131 0.91800
Cu	Cu	0.61942 0.34927 0.03711 0.90800
C 	C 	0.66057 0.29616 0.11120 0.30700
O 	O 	0.53800 0.19184 0.00948 -0.33200
C 	C 	0.65638 0.30249 0.82846 0.30300
O 	O 	0.67133 0.33493 0.00359 -0.63200
O 	O 	0.61087 0.23718 0.92803 -0.62600
O 	O 	0.68649 0.20824 0.00109 -0.33900
O 	O 	0.62321 0.31322 0.09944 -0.36100
O 	O 	0.68424 0.41854 0.93694 -0.34300
C 	C 	0.68489 0.45355 0.97688 0.30100
C 	C 	0.50575 0.21307 0.99348 0.29800
O 	O 	0.53624 0.27044 0.98234 -0.38100
O 	O 	0.64406 0.42695 0.00873 -0.36000
O 	O 	0.66117 0.25608 0.07726 -0.34000
C 	C 	0.67627 0.16382 0.96444 0.30300
O 	O 	0.62839 0.31965 0.85653 -0.35200
O 	O 	0.69059 0.28640 0.85095 -0.38500
H 	H 	0.71783 0.36689 0.01674 0.19600
H 	H 	0.56433 0.20841 0.91423 0.17800
Cu	Cu	0.75747 0.35761 0.43959 0.93400
Cu	Cu	0.75291 0.30227 0.54712 0.89300
Cu	Cu	0.65433 0.31521 0.50571 0.90300
Cu	Cu	0.63213 0.34448 0.40333 0.90300
C 	C 	0.70986 0.33876 0.33126 0.30800
O 	O 	0.78634 0.44883 0.44172 -0.33200
C 	C 	0.68991 0.32565 0.61812 0.29900
O 	O 	0.65733 0.29860 0.43367 -0.63800
O 	O 	0.74880 0.36263 0.51363 -0.63400
O 	O 	0.80960 0.32466 0.44287 -0.34200
O 	O 	0.74259 0.24903 0.48709 -0.40800
O 	O 	0.68123 0.36404 0.34556 -0.36900
O 	O 	0.56200 0.26301 0.49525 -0.35200
C 	C 	0.52366 0.26019 0.45674 0.31400
C 	C 	0.75434 0.46781 0.46116 0.29800
O 	O 	0.69524 0.42501 0.46645 -0.38200
O 	O 	0.54563 0.29756 0.42185 -0.37000
O 	O 	0.74977 0.33850 0.36563 -0.33700
C 	C 	0.78834 0.27140 0.45997 0.31000
O 	O 	0.65417 0.32789 0.58066 -0.34200
O 	O 	0.74322 0.33415 0.61103 -0.38600
H 	H 	0.63233 0.25286 0.41771 0.18500
H 	H 	0.77375 0.40607 0.53498 0.19800
C 	C 	0.61142 0.26695 0.73389 -0.03200
C 	C 	0.66056 0.31386 0.77485 -0.07800
C 	C 	0.71598 0.36852 0.76386 0.13200
C 	C 	0.72357 0.37380 0.71218 -0.03000
C 	C 	0.67615 0.32495 0.67117 -0.06900
C 	C 	0.61895 0.27211 0.68214 0.12500
Br	Br	0.55235 0.20445 0.62727 -0.19800
H 	H 	0.56830 0.22522 0.74224 0.06700
H 	H 	0.76712 0.41516 0.70395 0.08200
Br	Br	0.78203 0.43615 0.81893 -0.17900
C 	C 	0.66255 0.25509 0.19213 -0.02700
C 	C 	0.68687 0.30710 0.16645 -0.07300
C 	C 	0.72875 0.36966 0.19550 0.12500
C 	C 	0.74060 0.37969 0.24990 -0.02600
C 	C 	0.71117 0.32770 0.27569 -0.07400
C 	C 	0.67456 0.26518 0.24663 0.12400
Br	Br	0.63769 0.19297 0.28071 -0.21500
H 	H 	0.63149 0.20678 0.16992 0.08200
H 	H 	0.77043 0.42799 0.27217 0.08200
Br	Br	0.76915 0.44196 0.16145 -0.21600
C 	C 	0.84250 0.74593 0.41825 -0.05600
C 	C 	0.85124 0.73039 0.46635 0.02100
C 	C 	0.88634 0.77895 0.51107 0.07600
C 	C 	0.91591 0.84278 0.50650 -0.03000
C 	C 	0.90970 0.85855 0.45796 -0.02200
C 	C 	0.87123 0.80967 0.41392 0.10500
C 	C 	0.82618 0.66367 0.46913 0.03200
N 	N 	0.89252 0.76365 0.56107 -0.01900
H 	H 	0.94482 0.88026 0.54058 0.07800
N 	N 	0.86225 0.82468 0.36448 -0.02200
H 	H 	0.81474 0.70866 0.38391 0.08900
C 	C 	0.75986 0.61476 0.45918 0.06200
C 	C 	0.73703 0.55121 0.45752 -0.00200
C 	C 	0.77967 0.53582 0.46717 -0.08400
C 	C 	0.84603 0.58532 0.48015 0.12600
C 	C 	0.86889 0.64867 0.47979 -0.06900
N 	N 	0.71549 0.62945 0.45068 -0.01700
H 	H 	0.68598 0.51372 0.44827 0.06600
N 	N 	0.89013 0.57184 0.49556 -0.02200
H 	H 	0.91993 0.68636 0.48840 0.09200
O 	O 	0.80520 0.80260 0.34141 -0.05500
O 	O 	0.91020 0.85601 0.34066 -0.06100
O 	O 	0.94885 0.79227 0.58950 -0.07800
O 	O 	0.84177 0.72391 0.57945 -0.06900
O 	O 	0.88593 0.54603 0.53629 -0.09100
O 	O 	0.93763 0.59024 0.47154 -0.07500
O 	O 	0.67159 0.60110 0.40878 -0.07800
O 	O 	0.71647 0.66814 0.48625 -0.06600
C 	C 	0.96006 0.16188 0.46560 0.07200
C 	C 	0.87142 0.17207 0.44510 0.03000
N 	N 	0.00227 0.22777 0.49029 -0.01300
N 	N 	0.84118 0.97095 0.38247 -0.01200
C 	C 	0.85603 0.19102 0.40127 0.06300
C 	C 	0.83069 0.22534 0.40671 0.00300
C 	C 	0.82181 0.24203 0.45563 -0.08700
C 	C 	0.84014 0.22566 0.49976 0.12100
C 	C 	0.86309 0.18938 0.49400 -0.06800
H 	H 	0.81732 0.23837 0.37278 0.07700
N 	N 	0.83730 0.24748 0.55072 -0.03100
H 	H 	0.87585 0.17583 0.52788 0.08800
O 	O 	0.78450 0.92855 0.39147 -0.06000
O 	O 	0.86032 0.95741 0.34303 -0.04800
O 	O 	0.03029 0.24372 0.53867 -0.07200
O 	O 	0.01557 0.27194 0.46357 -0.05900
O 	O 	0.87004 0.30835 0.56874 -0.12900
O 	O 	0.80605 0.20676 0.58059 -0.10300
C 	C 	0.41302 0.17044 0.41348 0.00100
C 	C 	0.45462 0.21978 0.45616 -0.08500
C 	C 	0.42977 0.23133 0.49725 0.13300
C 	C 	0.36357 0.19394 0.49481 -0.07100
H 	H 	0.43211 0.16114 0.38209 0.06400
N 	N 	0.47152 0.28206 0.54086 -0.02300
H 	H 	0.34446 0.20381 0.52587 0.09200
O 	O 	0.50809 0.34079 0.53394 -0.07800
O 	O 	0.46880 0.27014 0.58783 -0.06300
C 	C 	0.81937 0.74738 0.94308 -0.05300
C 	C 	0.83064 0.72463 0.98561 0.01200
C 	C 	0.87963 0.76803 0.02851 0.08500
C 	C 	0.91767 0.83349 0.02789 -0.02200
C 	C 	0.90639 0.85624 0.98541 -0.02900
C 	C 	0.85698 0.81293 0.94272 0.10300
C 	C 	0.79309 0.65520 0.98391 0.03400
N 	N 	0.89060 0.74572 0.07289 -0.01900
H 	H 	0.95531 0.86679 0.06094 0.09000
N 	N 	0.84584 0.83524 0.89843 -0.02200
H 	H 	0.78207 0.71403 0.90987 0.08900
C 	C 	0.72786 0.61893 0.98724 0.06200
C 	C 	0.69277 0.55293 0.98456 0.00100
C 	C 	0.72248 0.52291 0.97969 -0.08000
C 	C 	0.78811 0.55949 0.97751 0.12700
C 	C 	0.82266 0.62516 0.97858 -0.07000
N 	N 	0.69722 0.64906 0.99365 -0.02100
H 	H 	0.64241 0.52503 0.98648 0.07400
N 	N 	0.82033 0.53052 0.97621 -0.02700
H 	H 	0.87297 0.65312 0.97642 0.09100
O 	O 	0.78958 0.82071 0.88285 -0.06700
O 	O 	0.89064 0.86634 0.87163 -0.07700
O 	O 	0.94724 0.76161 0.08946 -0.06900
O 	O 	0.84513 0.71317 0.09877 -0.06300
O 	O 	0.85469 0.53897 0.94087 -0.06700
O 	O 	0.82082 0.50151 0.01346 -0.08400
O 	O 	0.64639 0.62964 0.96065 -0.07400
O 	O 	0.71753 0.69289 0.03435 -0.05800
C 	C 	0.76907 0.17110 0.93841 0.12000
N 	N 	0.77825 0.21561 0.90607 -0.03500
H 	H 	0.84721 0.17207 0.91838 0.08900
O 	O 	0.79380 0.27096 0.92679 -0.12300
O 	O 	0.77610 0.20283 0.85651 -0.10200
C 	C 	0.36237 0.18063 0.04386 0.05600
C 	C 	0.42506 0.20212 0.04241 0.01200
C 	C 	0.43888 0.17946 0.99942 -0.09700
N 	N 	0.34982 0.20710 0.08670 -0.01700
H 	H 	0.46356 0.23882 0.07366 0.05600
N 	N 	0.24748 0.16575 0.93161 -0.01800
O 	O 	0.36651 0.20441 0.13401 -0.08000
O 	O 	0.32609 0.23800 0.07875 -0.06800
O 	O 	0.11963 0.96712 0.08834 -0.05300
O 	O 	0.29856 0.22389 0.94868 -0.07400
