data_crystal

_cell_length_a 27.81962
_cell_length_b 28.02901
_cell_length_c 34.88076
_cell_angle_alpha 95.49792
_cell_angle_beta  95.49326
_cell_angle_gamma 125.64878

_symmetry_space_group_name_	'P 1'
_symmetry_space_group_name_H-M	'P 1'

loop_
_symmetry_equiv_pos_as_xyz
  x,y,z

loop_
_atom_site_label
_atom_site_type_symbol
_atom_site_fract_x
_atom_site_fract_y
_atom_site_fract_z
_atom_site_charge
C 	C 	0.96948 0.01751 0.99298 0.12200
N 	N 	0.93690 0.95774 0.99206 -0.13100
C 	C 	0.96307 0.92965 0.98768 0.13300
N 	N 	0.02173 0.96123 0.98423 -0.12700
C 	C 	0.05441 0.02091 0.98513 0.13300
N 	N 	0.02833 0.04920 0.98951 -0.13100
C 	C 	0.94455 0.01461 0.45524 0.12400
N 	N 	0.91276 0.95585 0.45787 -0.13000
C 	C 	0.94123 0.92972 0.46059 0.13300
N 	N 	0.00119 0.96225 0.46069 -0.12700
C 	C 	0.03284 0.02080 0.45809 0.13300
N 	N 	0.00457 0.04700 0.45537 -0.13100
Cu	Cu	0.63995 0.23596 0.99974 0.93000
Cu	Cu	0.68549 0.23357 0.91662 0.87700
Cu	Cu	0.67745 0.33067 0.94846 0.90200
Cu	Cu	0.64361 0.34891 0.02485 0.90100
C 	C 	0.65920 0.28330 0.08114 0.33400
O 	O 	0.55239 0.20271 0.99869 -0.34500
C 	C 	0.65719 0.28777 0.86303 0.33700
O 	O 	0.69043 0.32904 0.00307 -0.63700
O 	O 	0.63298 0.24223 0.94375 -0.63900
O 	O 	0.67552 0.19131 0.99798 -0.35500
O 	O 	0.74205 0.25013 0.96059 -0.43400
O 	O 	0.63254 0.30780 0.07052 -0.37300
O 	O 	0.72458 0.41696 0.95702 -0.36400
C 	C 	0.72017 0.45018 0.98383 0.30700
C 	C 	0.53024 0.22905 0.98404 0.30200
O 	O 	0.56669 0.28434 0.97900 -0.38100
O 	O 	0.67932 0.42636 0.00644 -0.37600
O 	O 	0.65956 0.24562 0.05549 -0.32500
C 	C 	0.72584 0.21267 0.98489 0.30700
O 	O 	0.67879 0.33327 0.89207 -0.35300
O 	O 	0.64845 0.23796 0.86964 -0.41300
H 	H 	0.73333 0.35394 0.01601 0.17000
H 	H 	0.59125 0.21889 0.92885 0.18300
Cu	Cu	0.73571 0.35146 0.45190 0.93200
Cu	Cu	0.73459 0.30893 0.53639 0.88000
Cu	Cu	0.63741 0.31498 0.50051 0.90100
Cu	Cu	0.62068 0.34371 0.42190 0.89900
C 	C 	0.69115 0.32861 0.36938 0.33400
O 	O 	0.76754 0.43756 0.45081 -0.34200
C 	C 	0.67644 0.33687 0.58687 0.33900
O 	O 	0.64149 0.29975 0.44667 -0.64000
O 	O 	0.72679 0.35996 0.50720 -0.63900
O 	O 	0.78180 0.31752 0.45700 -0.35200
O 	O 	0.72061 0.25202 0.49398 -0.43100
O 	O 	0.66476 0.35412 0.37772 -0.37400
O 	O 	0.55037 0.26672 0.49041 -0.37300
C 	C 	0.51691 0.26885 0.46211 0.31100
C 	C 	0.73913 0.45877 0.46325 0.30200
O 	O 	0.68294 0.42193 0.46724 -0.38400
O 	O 	0.54082 0.30708 0.43798 -0.38400
O 	O 	0.72871 0.33021 0.39670 -0.32700
C 	C 	0.75952 0.26781 0.47056 0.30800
O 	O 	0.63253 0.31720 0.55677 -0.38100
O 	O 	0.72741 0.34608 0.58185 -0.38300
H 	H 	0.61746 0.25685 0.43469 0.17000
H 	H 	0.74949 0.40162 0.52153 0.18800
C 	C 	0.63643 0.34540 0.77367 -0.14500
C 	C 	0.64906 0.31752 0.74509 0.01300
C 	C 	0.66174 0.27806 0.75484 0.29200
C 	C 	0.66299 0.26746 0.79309 -0.06100
C 	C 	0.65159 0.29618 0.82209 -0.14400
C 	C 	0.63737 0.33463 0.81203 0.36900
C 	C 	0.65109 0.33101 0.70525 0.00900
F 	F 	0.67395 0.25082 0.72733 -0.42600
H 	H 	0.67418 0.23791 0.80039 0.08500
F 	F 	0.62395 0.36105 0.83922 -0.44000
H 	H 	0.62614 0.37555 0.76622 0.11700
C 	C 	0.60218 0.29069 0.67459 0.29700
C 	C 	0.60907 0.29554 0.63564 -0.06100
C 	C 	0.66499 0.34050 0.62707 -0.14300
C 	C 	0.71215 0.38406 0.65787 0.36900
C 	C 	0.70516 0.37917 0.69680 -0.14400
F 	F 	0.54910 0.24482 0.68250 -0.42100
H 	H 	0.57201 0.26232 0.61216 0.09400
F 	F 	0.76534 0.42993 0.65008 -0.44300
H 	H 	0.74273 0.41116 0.72038 0.11300
C 	C 	0.74313 0.32234 0.27407 -0.13700
C 	C 	0.68903 0.29328 0.24708 0.01100
C 	C 	0.63498 0.27072 0.26068 0.28800
C 	C 	0.63555 0.27974 0.30087 -0.06000
C 	C 	0.69004 0.31153 0.32784 -0.14000
C 	C 	0.74382 0.33168 0.31431 0.37200
C 	C 	0.68978 0.29186 0.20477 0.01100
F 	F 	0.58229 0.24229 0.23486 -0.42500
H 	H 	0.59380 0.26347 0.31102 0.08000
F 	F 	0.79705 0.36288 0.33991 -0.43100
H 	H 	0.78496 0.33953 0.26378 0.12200
C 	C 	0.71333 0.34442 0.18957 0.28800
C 	C 	0.70614 0.34178 0.14905 -0.06000
C 	C 	0.67518 0.28667 0.12331 -0.14000
C 	C 	0.65422 0.23441 0.13854 0.37200
C 	C 	0.66173 0.23716 0.17913 -0.13700
F 	F 	0.74086 0.39767 0.21408 -0.42500
H 	H 	0.72301 0.38237 0.13760 0.07900
F 	F 	0.62390 0.18064 0.11412 -0.43000
H 	H 	0.64383 0.19648 0.19066 0.12200
C 	C 	0.85493 0.75380 0.46722 0.02100
C 	C 	0.87731 0.73909 0.49802 -0.03800
C 	C 	0.85429 0.67943 0.49811 -0.02400
C 	C 	0.80885 0.63426 0.46739 -0.00100
C 	C 	0.78572 0.64886 0.43697 -0.02400
C 	C 	0.80875 0.70849 0.43687 -0.03800
C 	C 	0.88291 0.81562 0.46506 0.01100
C 	C 	0.90818 0.86759 0.46306 -0.02800
C 	C 	0.78599 0.57292 0.46690 0.05500
C 	C 	0.76562 0.52112 0.46572 -0.09200
H 	H 	0.91317 0.77388 0.52151 0.05300
H 	H 	0.87218 0.66848 0.52183 0.05000
H 	H 	0.75036 0.61414 0.41323 0.05000
H 	H 	0.79137 0.71950 0.41289 0.05300
C 	C 	0.82093 0.16749 0.45263 -0.00400
C 	C 	0.87738 0.19172 0.44241 -0.02400
C 	C 	0.90022 0.15851 0.44108 -0.04000
C 	C 	0.86674 0.10095 0.45001 0.02100
C 	C 	0.80971 0.07621 0.45936 -0.04000
C 	C 	0.78684 0.10939 0.46065 -0.02500
C 	C 	0.79978 0.20361 0.45757 0.05500
C 	C 	0.78176 0.23338 0.46279 -0.10100
C 	C 	0.89232 0.06867 0.45151 0.00700
C 	C 	0.91516 0.04301 0.45310 -0.02900
H 	H 	0.90402 0.23659 0.43620 0.05100
H 	H 	0.94432 0.17792 0.43377 0.05100
H 	H 	0.78353 0.03174 0.46623 0.05000
H 	H 	0.74317 0.09036 0.46859 0.04600
C 	C 	0.33673 0.17662 0.46053 -0.00300
C 	C 	0.31502 0.16856 0.49578 -0.02400
C 	C 	0.25337 0.13818 0.49526 -0.03800
C 	C 	0.21322 0.11579 0.45948 0.02100
C 	C 	0.23495 0.12397 0.42424 -0.03900
C 	C 	0.29660 0.15435 0.42476 -0.02500
C 	C 	0.40026 0.20857 0.46110 0.05500
C 	C 	0.45350 0.23576 0.46157 -0.09600
C 	C 	0.14961 0.08303 0.45889 0.01100
C 	C 	0.09631 0.05503 0.45847 -0.02900
H 	H 	0.34581 0.18579 0.52355 0.05300
H 	H 	0.23685 0.13189 0.52261 0.05400
H 	H 	0.20414 0.10665 0.39647 0.05200
H 	H 	0.31311 0.16056 0.39740 0.04800
C 	C 	0.81108 0.62852 0.98449 -0.00600
C 	C 	0.83425 0.66832 0.02035 -0.02100
C 	C 	0.86339 0.72930 0.02095 -0.03400
C 	C 	0.86941 0.75071 0.98569 0.01600
C 	C 	0.84615 0.71090 0.94983 -0.03700
C 	C 	0.81700 0.64990 0.94923 -0.02400
C 	C 	0.77985 0.56559 0.98390 0.05500
C 	C 	0.75308 0.51288 0.98369 -0.09100
C 	C 	0.90137 0.81374 0.98637 0.01100
C 	C 	0.92895 0.86662 0.98698 -0.03100
H 	H 	0.82964 0.65204 0.04772 0.04800
H 	H 	0.88145 0.75987 0.04878 0.05200
H 	H 	0.85084 0.72719 0.92247 0.05300
H 	H 	0.79899 0.61933 0.92140 0.05400
C 	C 	0.82159 0.14611 0.00261 0.00400
C 	C 	0.79286 0.08649 0.00679 -0.02600
C 	C 	0.82454 0.06193 0.00693 -0.04200
C 	C 	0.88508 0.09687 0.00283 0.03000
C 	C 	0.91427 0.15694 0.99972 -0.04600
C 	C 	0.88260 0.18152 0.99962 -0.03100
C 	C 	0.78731 0.16939 0.99790 0.04700
C 	C 	0.75892 0.18898 0.99274 -0.10200
C 	C 	0.91620 0.07018 0.99979 -0.00100
C 	C 	0.94123 0.04684 0.99683 -0.02700
H 	H 	0.74571 0.05882 0.00908 0.05100
H 	H 	0.80171 0.01550 0.00946 0.05300
H 	H 	0.96110 0.18428 0.99666 0.05000
H 	H 	0.90512 0.22763 0.99634 0.04500
C 	C 	0.35240 0.15681 0.97719 -0.00600
C 	C 	0.33718 0.18559 0.00290 -0.01900
C 	C 	0.27670 0.16116 0.00283 -0.03400
C 	C 	0.23117 0.10791 0.97701 0.01700
C 	C 	0.24643 0.07981 0.95072 -0.03800
C 	C 	0.30693 0.10422 0.95081 -0.02300
C 	C 	0.41462 0.18064 0.97858 0.05600
C 	C 	0.46713 0.20177 0.98056 -0.09400
C 	C 	0.16899 0.07950 0.97966 0.01100
C 	C 	0.11677 0.05399 0.98210 -0.03000
H 	H 	0.37213 0.22642 0.02326 0.05000
H 	H 	0.26527 0.18306 0.02330 0.05300
H 	H 	0.21146 0.03854 0.93074 0.05200
H 	H 	0.31835 0.08185 0.93075 0.04900
