data_crystal

_cell_length_a 26.31000
_cell_length_b 26.16730
_cell_length_c 34.60995
_cell_angle_alpha 95.49649
_cell_angle_beta  95.49387
_cell_angle_gamma 125.85099

_symmetry_space_group_name_	'P 1'
_symmetry_space_group_name_H-M	'P 1'

loop_
_symmetry_equiv_pos_as_xyz
  x,y,z

loop_
_atom_site_label
_atom_site_type_symbol
_atom_site_fract_x
_atom_site_fract_y
_atom_site_fract_z
_atom_site_charge
C 	C 	0.95906 0.02014 0.98600 0.09500
C 	C 	0.02168 0.04746 0.98025 -0.07100
C 	C 	0.04323 0.00948 0.97686 0.10400
C 	C 	0.00099 0.94359 0.97684 -0.06600
C 	C 	0.93897 0.91657 0.98318 0.10800
C 	C 	0.91859 0.95510 0.98875 -0.07000
H 	H 	0.05358 0.09799 0.97883 0.10300
H 	H 	0.01704 0.91385 0.97321 0.10100
H 	H 	0.87064 0.93411 0.99395 0.10000
C 	C 	0.94994 0.00888 0.45692 0.09600
C 	C 	0.00967 0.04304 0.44542 -0.06900
C 	C 	0.04925 0.02382 0.45157 0.09900
C 	C 	0.02573 0.96616 0.46512 -0.06200
C 	C 	0.96353 0.92862 0.47305 0.10100
C 	C 	0.92698 0.95173 0.47084 -0.06600
H 	H 	0.02662 0.08626 0.43364 0.10000
H 	H 	0.05538 0.95014 0.46898 0.10300
H 	H 	0.88033 0.92463 0.47905 0.10100
Cu	Cu	0.63139 0.23077 0.00364 0.93800
Cu	Cu	0.70990 0.27652 0.93240 0.89000
Cu	Cu	0.64325 0.32424 0.95367 0.90300
Cu	Cu	0.62139 0.34248 0.03550 0.92000
C 	C 	0.64401 0.27083 0.08613 0.30900
O 	O 	0.53594 0.18794 0.00009 -0.31700
C 	C 	0.65035 0.30269 0.87070 0.30700
O 	O 	0.67317 0.32951 0.00879 -0.63400
O 	O 	0.62782 0.24026 0.94810 -0.64100
O 	O 	0.67761 0.19204 0.00029 -0.32300
O 	O 	0.75656 0.27941 0.97913 -0.39600
O 	O 	0.60812 0.28891 0.07608 -0.34600
O 	O 	0.65151 0.40363 0.95912 -0.34100
C 	C 	0.67833 0.44745 0.99162 0.33300
C 	C 	0.50936 0.21499 0.98776 0.31900
O 	O 	0.54545 0.27627 0.98583 -0.37300
O 	O 	0.66689 0.43130 0.02635 -0.34700
O 	O 	0.65145 0.23734 0.05953 -0.32200
C 	C 	0.73542 0.22621 0.99230 0.32800
O 	O 	0.62504 0.31743 0.89668 -0.34100
O 	O 	0.67775 0.27510 0.87975 -0.37900
H 	H 	0.71986 0.36143 0.01801 0.18300
H 	H 	0.58923 0.20543 0.92870 0.20800
Cu	Cu	0.74718 0.34453 0.46120 0.93700
Cu	Cu	0.70681 0.26399 0.53337 0.89200
Cu	Cu	0.63589 0.30429 0.50286 0.90300
Cu	Cu	0.64222 0.36354 0.43158 0.90900
C 	C 	0.71401 0.34278 0.37915 0.30500
O 	O 	0.79751 0.44137 0.47137 -0.32300
C 	C 	0.66104 0.31166 0.58845 0.31200
O 	O 	0.64890 0.30181 0.44982 -0.64200
O 	O 	0.72768 0.34071 0.51509 -0.63800
O 	O 	0.78233 0.29458 0.46222 -0.33100
O 	O 	0.69682 0.21583 0.48475 -0.40300
O 	O 	0.69346 0.37678 0.38943 -0.34700
O 	O 	0.54588 0.26248 0.48770 -0.35700
C 	C 	0.52064 0.27967 0.46207 0.33100
C 	C 	0.77207 0.47013 0.48186 0.32200
O 	O 	0.71074 0.43583 0.48255 -0.35600
O 	O 	0.55704 0.33095 0.44618 -0.34700
O 	O 	0.74840 0.33589 0.40561 -0.31700
C 	C 	0.74714 0.23559 0.46880 0.32900
O 	O 	0.62705 0.31268 0.55816 -0.35200
O 	O 	0.69728 0.29281 0.58340 -0.37000
H 	H 	0.62032 0.25840 0.43311 0.18300
H 	H 	0.75410 0.38103 0.53499 0.20900
C 	C 	0.65433 0.32666 0.62892 -0.07800
C 	C 	0.70844 0.36495 0.65947 0.15300
C 	C 	0.70085 0.36513 0.69891 -0.07500
C 	C 	0.63960 0.32935 0.70817 0.02800
C 	C 	0.58573 0.29847 0.67768 0.09500
C 	C 	0.59319 0.29620 0.63818 -0.00500
H 	H 	0.74257 0.39162 0.72236 0.09600
C 	C 	0.63239 0.31893 0.74911 0.02900
H 	H 	0.55138 0.26846 0.61480 0.09300
C 	C 	0.64967 0.36988 0.77863 -0.07500
C 	C 	0.65392 0.36469 0.81854 0.14800
C 	C 	0.63846 0.30696 0.82904 -0.07900
C 	C 	0.61763 0.25484 0.79928 -0.00500
C 	C 	0.61604 0.26101 0.75961 0.09100
H 	H 	0.66266 0.41463 0.77068 0.10000
H 	H 	0.60511 0.21018 0.80712 0.08400
Br	Br	0.50176 0.25798 0.68948 -0.14000
Br	Br	0.79278 0.41916 0.64790 -0.17400
Br	Br	0.68634 0.43884 0.85811 -0.16300
Br	Br	0.59590 0.19135 0.72052 -0.15900
C 	C 	0.66555 0.27766 0.12842 -0.08100
C 	C 	0.64611 0.22352 0.14565 0.15700
C 	C 	0.66110 0.23104 0.18671 -0.07100
C 	C 	0.69153 0.29122 0.21100 0.02900
C 	C 	0.71220 0.34539 0.19374 0.08900
C 	C 	0.70012 0.33849 0.15265 -0.00600
H 	H 	0.64550 0.18934 0.19991 0.10200
C 	C 	0.69564 0.29606 0.25425 0.02900
H 	H 	0.71534 0.38023 0.13956 0.06700
C 	C 	0.75496 0.32555 0.27892 -0.07000
C 	C 	0.76194 0.34072 0.31993 0.15600
C 	C 	0.70797 0.32232 0.33673 -0.07800
C 	C 	0.64794 0.28888 0.31210 -0.00800
C 	C 	0.64170 0.27674 0.27108 0.08900
H 	H 	0.79649 0.34019 0.26605 0.10200
H 	H 	0.60631 0.27436 0.32484 0.07000
Br	Br	0.75342 0.42859 0.22584 -0.15500
Br	Br	0.59327 0.13830 0.11445 -0.13800
Br	Br	0.84635 0.39220 0.35154 -0.13000
Br	Br	0.55976 0.23720 0.23844 -0.15200
C 	C 	0.93517 0.86316 0.48113 -0.04100
C 	C 	0.96022 0.85473 0.51579 0.08500
C 	C 	0.93936 0.79273 0.52053 0.08300
C 	C 	0.88753 0.73858 0.49331 0.00900
C 	C 	0.85779 0.74701 0.46114 0.08200
C 	C 	0.88487 0.80887 0.45324 0.09100
C 	C 	0.86839 0.67334 0.49598 0.02300
C 	C 	0.88444 0.64350 0.46903 0.06700
C 	C 	0.85165 0.57665 0.46322 0.12300
C 	C 	0.81116 0.54122 0.48941 -0.10800
C 	C 	0.80368 0.57363 0.52075 0.12500
C 	C 	0.82807 0.63829 0.52211 0.06700
Br	Br	0.78007 0.67367 0.42785 -0.12600
Br	Br	0.02097 0.92757 0.55730 -0.11300
Br	Br	0.85587 0.53358 0.41651 -0.12500
Br	Br	0.80309 0.67740 0.55792 -0.11300
Br	Br	0.85794 0.81874 0.40249 -0.11900
Br	Br	0.98383 0.78220 0.56286 -0.11400
Br	Br	0.95024 0.69419 0.43940 -0.11600
Br	Br	0.76415 0.53101 0.56311 -0.14800
C 	C 	0.76871 0.19463 0.46305 -0.11700
C 	C 	0.76487 0.15767 0.49157 0.13100
C 	C 	0.78308 0.11724 0.48481 0.06600
C 	C 	0.81824 0.12420 0.45496 0.02400
C 	C 	0.82529 0.16359 0.42764 0.06600
C 	C 	0.79521 0.19367 0.42959 0.13100
C 	C 	0.85237 0.09488 0.45466 0.00800
C 	C 	0.90537 0.11903 0.48465 0.08100
C 	C 	0.93150 0.08548 0.48800 0.09100
C 	C 	0.91364 0.03566 0.45715 -0.04300
C 	C 	0.86300 0.01355 0.42579 0.08400
C 	C 	0.82960 0.04032 0.42607 0.08300
Br	Br	0.87883 0.17927 0.38913 -0.11800
Br	Br	0.74499 0.16961 0.54238 -0.21800
Br	Br	0.98519 0.10218 0.53669 -0.12400
Br	Br	0.75142 0.00071 0.38864 -0.12100
Br	Br	0.78449 0.22716 0.38479 -0.13900
Br	Br	0.76034 0.05268 0.51658 -0.12000
Br	Br	0.94336 0.19901 0.52028 -0.12100
Br	Br	0.84083 0.94842 0.38202 -0.11000
C 	C 	0.11623 0.06517 0.44507 -0.03900
C 	C 	0.15956 0.12904 0.46615 0.09000
C 	C 	0.22246 0.16738 0.45953 0.08200
C 	C 	0.24651 0.13866 0.43969 0.00800
C 	C 	0.20401 0.07434 0.41956 0.08400
C 	C 	0.13811 0.03995 0.41925 0.08200
C 	C 	0.31662 0.17329 0.44456 0.02400
C 	C 	0.34842 0.19829 0.41303 0.06800
C 	C 	0.41484 0.23021 0.41801 0.12700
C 	C 	0.45094 0.24730 0.45624 -0.10900
C 	C 	0.41920 0.22891 0.48859 0.12900
C 	C 	0.35238 0.18583 0.48184 0.06400
Br	Br	0.23614 0.03198 0.39509 -0.12300
Br	Br	0.13670 0.16083 0.50833 -0.11900
Br	Br	0.45462 0.24483 0.37217 -0.16900
Br	Br	0.30998 0.14275 0.52331 -0.12100
Br	Br	0.07800 0.96124 0.38159 -0.11300
Br	Br	0.27616 0.25888 0.47833 -0.11400
Br	Br	0.30183 0.19167 0.36393 -0.10800
Br	Br	0.46598 0.26978 0.54201 -0.14200
C 	C 	0.89521 0.84759 0.98396 -0.05000
C 	C 	0.85877 0.80301 0.94841 0.09300
C 	C 	0.81968 0.73695 0.94892 0.08100
C 	C 	0.81772 0.71546 0.98490 0.00600
C 	C 	0.85283 0.76010 0.02058 0.08300
C 	C 	0.89133 0.82618 0.02012 0.09500
C 	C 	0.78096 0.64603 0.98506 0.02500
C 	C 	0.71710 0.61083 0.99037 0.06700
C 	C 	0.68296 0.54527 0.99192 0.13200
C 	C 	0.71280 0.51508 0.98834 -0.11100
C 	C 	0.77596 0.54979 0.98185 0.13100
C 	C 	0.81017 0.61533 0.98039 0.06600
Br	Br	0.84876 0.73040 0.06992 -0.11500
Br	Br	0.86337 0.83266 0.89902 -0.12000
Br	Br	0.59492 0.49637 0.99809 -0.12600
Br	Br	0.89729 0.66350 0.97238 -0.12200
Br	Br	0.93929 0.88756 0.06892 -0.11700
Br	Br	0.76928 0.67560 0.90035 -0.11200
Br	Br	0.67680 0.65274 0.99571 -0.11100
Br	Br	0.81563 0.50739 0.97534 -0.19800
C 	C 	0.77382 0.20159 0.99395 -0.11800
C 	C 	0.77697 0.17319 0.02594 0.13300
C 	C 	0.80776 0.14377 0.02499 0.06800
C 	C 	0.84511 0.15279 0.99604 0.02200
C 	C 	0.84897 0.18882 0.96728 0.06600
C 	C 	0.80799 0.20659 0.96354 0.13200
C 	C 	0.87540 0.11970 0.99349 0.00500
C 	C 	0.93124 0.14263 0.02049 0.08600
C 	C 	0.95780 0.10904 0.01894 0.08800
C 	C 	0.93431 0.05842 0.98693 -0.04300
C 	C 	0.88291 0.04047 0.95752 0.08300
C 	C 	0.85000 0.06689 0.96281 0.08300
Br	Br	0.91021 0.21355 0.93296 -0.11800
Br	Br	0.74538 0.18026 0.07266 -0.13100
Br	Br	0.02281 0.12927 0.06195 -0.11700
Br	Br	0.76888 0.02912 0.92915 -0.12600
Br	Br	0.79140 0.22761 0.91422 -0.22000
Br	Br	0.79609 0.08867 0.06195 -0.11600
Br	Br	0.97239 0.22099 0.05852 -0.11800
Br	Br	0.86038 0.98302 0.90896 -0.11100
C 	C 	0.11131 0.03936 0.97659 -0.04700
C 	C 	0.14982 0.04320 0.00970 0.09400
C 	C 	0.21186 0.06329 0.00762 0.08300
C 	C 	0.23878 0.08809 0.97465 0.00600
C 	C 	0.20134 0.08718 0.94219 0.08200
C 	C 	0.13676 0.06007 0.94244 0.09200
C 	C 	0.30802 0.12130 0.97613 0.02700
C 	C 	0.35221 0.18320 0.99911 0.05900
C 	C 	0.41745 0.21052 0.00624 0.14000
C 	C 	0.43998 0.18106 0.98501 -0.11200
C 	C 	0.39597 0.12072 0.95992 0.13000
C 	C 	0.32991 0.08944 0.95713 0.06600
Br	Br	0.23911 0.12492 0.89811 -0.11500
Br	Br	0.11895 0.02483 0.05864 -0.11900
Br	Br	0.47453 0.28417 0.04809 -0.18100
Br	Br	0.26952 0.00259 0.92826 -0.11500
Br	Br	0.08269 0.04926 0.89569 -0.12500
Br	Br	0.26008 0.05665 0.04978 -0.11300
Br	Br	0.32320 0.23070 0.02059 -0.10700
Br	Br	0.42588 0.08247 0.92798 -0.15600
