data_crystal

_cell_length_a 16.31611
_cell_length_b 16.30772
_cell_length_c 36.83793
_cell_angle_alpha 89.87898
_cell_angle_beta  89.88128
_cell_angle_gamma 119.41262

_symmetry_space_group_name_	'P 1'
_symmetry_space_group_name_H-M	'P 1'

loop_
_symmetry_equiv_pos_as_xyz
  x,y,z

loop_
_atom_site_label
_atom_site_type_symbol
_atom_site_fract_x
_atom_site_fract_y
_atom_site_fract_z
_atom_site_charge
S 	S 	0.11860 0.25710 0.04753 0.03400
H 	H 	0.01196 0.20265 0.66329 0.01400
H 	H 	0.04964 0.84779 0.86143 0.01000
F 	F 	0.08635 0.41359 0.90136 -0.40100
H 	H 	0.04922 0.29628 0.57697 0.06400
S 	S 	0.07551 0.73282 0.91418 -0.02900
H 	H 	0.07063 0.66141 0.89310 0.05900
C 	C 	0.08158 0.41992 0.93796 0.22500
H 	H 	0.05205 0.71808 0.24740 0.04800
O 	O 	0.07530 0.20928 0.26478 -0.38400
Ni	Ni	0.04140 0.94092 0.76708 1.08100
Ni	Ni	0.04279 0.14083 0.76170 1.10000
C 	C 	0.04495 0.67068 0.51556 0.24600
C 	C 	0.06032 0.65601 0.47923 -0.24000
C 	C 	0.15416 0.49579 0.95619 0.28200
C 	C 	0.14597 0.50740 0.99371 -0.21100
O 	O 	0.13098 0.01880 0.80815 -0.37800
O 	O 	0.16372 0.17009 0.79079 -0.37300
O 	O 	0.15280 0.02626 0.73204 -0.36900
O 	O 	0.09142 0.11844 0.71483 -0.40900
C 	C 	0.14897 0.66050 0.46876 0.42700
O 	O 	0.15101 0.58182 0.46384 -0.37500
C 	C 	0.22494 0.58317 0.01327 0.40100
O 	O 	0.21211 0.64683 0.03089 -0.35100
C 	C 	0.11734 0.17092 0.18423 0.30300
C 	C 	0.10375 0.18019 0.29287 0.28400
C 	C 	0.04366 0.88254 0.19307 0.25000
C 	C 	0.00373 0.84461 0.27460 0.23300
Ni	Ni	0.10565 0.04054 0.24222 1.12200
O 	O 	0.10092 0.97318 0.19628 -0.39200
O 	O 	0.15870 0.16200 0.21337 -0.37500
O 	O 	0.08108 0.92850 0.27339 -0.38600
O 	O 	0.13137 0.11692 0.28862 -0.36800
C 	C 	0.17425 0.21659 0.15104 -0.06900
C 	C 	0.12871 0.20712 0.11767 -0.00400
C 	C 	0.17454 0.27283 0.08959 0.03900
C 	C 	0.08142 0.82004 0.18096 -0.05200
C 	C 	0.02442 0.74011 0.15999 -0.06500
C 	C 	0.05705 0.67890 0.14896 0.01600
C 	C 	0.12374 0.33831 0.38755 -0.05100
C 	C 	0.10349 0.21874 0.32923 -0.06400
C 	C 	0.03065 0.23795 0.33804 -0.05800
C 	C 	0.04064 0.29771 0.36697 0.01000
C 	C 	0.01216 0.76996 0.29412 -0.04200
C 	C 	0.05678 0.72593 0.27658 -0.03500
C 	C 	0.11203 0.69689 0.29632 0.04500
S 	S 	0.16215 0.63786 0.27313 -0.02500
F 	F 	0.11879 0.71634 0.53841 -0.35800
H 	H 	0.06118 0.05382 0.62632 0.04600
F 	F 	0.23010 0.56037 0.93722 -0.39300
S 	S 	0.01065 0.31986 0.60540 -0.04100
C 	C 	0.26311 0.35244 0.09590 -0.03400
H 	H 	0.24554 0.70247 0.25758 0.04500
C 	C 	0.18966 0.11010 0.80519 0.28600
C 	C 	0.15902 0.09832 0.71371 0.31200
C 	C 	0.15661 0.43103 0.40468 0.29700
C 	C 	0.19177 0.69966 0.35701 0.30900
O 	O 	0.17090 0.50126 0.38386 -0.37300
O 	O 	0.19704 0.44769 0.43675 -0.32200
O 	O 	0.19439 0.71596 0.39181 -0.36500
O 	O 	0.22532 0.74248 0.46454 -0.36200
C 	C 	0.19474 0.65351 0.13728 0.30900
C 	C 	0.28317 0.44478 0.08102 0.29500
O 	O 	0.18804 0.64818 0.10232 -0.36900
O 	O 	0.25599 0.49303 0.10088 -0.35500
O 	O 	0.30928 0.60167 0.00372 -0.36200
C 	C 	0.31267 0.35289 0.12714 -0.01200
C 	C 	0.27121 0.28217 0.15330 0.05100
C 	C 	0.14949 0.69930 0.15747 -0.07600
C 	C 	0.20457 0.77577 0.18011 -0.02000
C 	C 	0.17136 0.83580 0.19214 0.03800
C 	C 	0.18802 0.30544 0.38282 -0.02100
C 	C 	0.18064 0.24898 0.35307 0.04000
C 	C 	0.12069 0.71033 0.33450 -0.06700
C 	C 	0.06287 0.74013 0.35209 0.00400
C 	C 	0.00745 0.76747 0.33216 0.00000
S 	S 	0.12702 0.02798 0.63496 0.03800
H 	H 	0.22192 0.17062 0.87397 0.05900
O 	O 	0.03095 0.15732 0.18668 -0.37700
H 	H 	0.37571 0.21525 0.17527 0.06600
S 	S 	0.34347 0.27403 0.18698 0.01200
S 	S 	0.24057 0.92569 0.22302 -0.07900
Ni	Ni	0.27186 0.57867 0.46007 1.13400
Ni	Ni	0.29796 0.73154 0.07078 1.12800
O 	O 	0.25149 0.63033 0.15373 -0.36200
O 	O 	0.34988 0.48784 0.05556 -0.33800
H 	H 	0.06467 0.74695 0.38133 0.07800
F 	F 	0.30959 0.78344 0.55227 -0.36000
C 	C 	0.23755 0.15061 0.68846 -0.07700
C 	C 	0.22884 0.12675 0.65142 0.04400
C 	C 	0.27997 0.14803 0.82483 -0.06400
C 	C 	0.28223 0.17036 0.86168 -0.01300
H 	H 	0.29702 0.00708 0.20432 0.06800
O 	O 	0.25054 0.67472 0.34273 -0.36300
H 	H 	0.27461 0.79025 0.18764 0.05300
H 	H 	0.24874 0.33113 0.40005 0.08900
F 	F 	0.27666 0.35227 0.46883 -0.40500
O 	O 	0.38596 0.81991 0.03323 -0.35700
O 	O 	0.36526 0.66689 0.08036 -0.70300
H 	H 	0.37955 0.41313 0.13319 0.08900
S 	S 	0.27180 0.22292 0.34487 0.01100
C 	C 	0.31585 0.23367 0.70028 -0.01900
C 	C 	0.30209 0.18174 0.62730 -0.00900
H 	H 	0.31952 0.25598 0.72823 0.04400
H 	H 	0.29720 0.16052 0.59915 0.08900
F 	F 	0.47233 0.98095 0.06924 -0.42300
H 	H 	0.25108 0.14019 0.36194 0.05600
Ni	Ni	0.31272 0.77042 0.42176 1.12500
Ni	Ni	0.35488 0.61077 0.12705 1.11200
Ni	Ni	0.40947 0.62907 0.03943 1.12800
H 	H 	0.31066 0.00531 0.76469 0.04900
Ni	Ni	0.30681 0.60344 0.37263 1.11500
O 	O 	0.34011 0.68630 0.49635 -0.33700
O 	O 	0.31985 0.65817 0.41837 -0.71900
F 	F 	0.48123 0.39636 0.09243 -0.39500
S 	S 	0.35378 0.20067 0.93049 0.03300
O 	O 	0.37301 0.81955 0.11408 -0.32600
C 	C 	0.35562 0.13955 0.81002 0.03300
C 	C 	0.35936 0.18652 0.88332 0.03400
S 	S 	0.35208 0.10151 0.76516 -0.02300
F 	F 	0.34710 0.24900 0.50074 -0.38400
F 	F 	0.38456 0.94820 0.59079 -0.39000
H 	H 	0.42706 0.72193 0.08292 0.13800
C 	C 	0.36362 0.36822 0.45925 0.26400
O 	O 	0.36233 0.51723 0.39225 -0.35400
H 	H 	0.38686 0.29384 0.93824 0.07100
C 	C 	0.38504 0.25936 0.63990 -0.06400
C 	C 	0.38971 0.28785 0.67633 0.03600
H 	H 	0.43481 0.93131 0.20630 0.03300
O 	O 	0.38465 0.56120 0.45343 -0.36000
C 	C 	0.47121 0.83276 0.02815 0.37100
F 	F 	0.47685 0.35571 0.01976 -0.38500
C 	C 	0.40152 0.84858 0.54766 0.28800
H 	H 	0.38810 0.68431 0.42167 0.17500
C 	C 	0.39165 0.51263 0.42599 0.39000
O 	O 	0.46317 0.57472 0.11756 -0.36900
C 	C 	0.40803 0.77462 0.48962 0.39700
C 	C 	0.40067 0.31721 0.47637 0.27100
H 	H 	0.05673 0.15142 0.11406 0.05700
O 	O 	0.39926 0.82763 0.37720 -0.36600
C 	C 	0.44642 0.82043 0.13161 0.26700
O 	O 	0.43978 0.74386 0.14724 -0.35900
O 	O 	0.41861 0.81491 0.45727 -0.37200
C 	C 	0.06975 0.43673 0.01300 0.23500
C 	C 	0.41885 0.44078 0.43458 -0.20400
C 	C 	0.43462 0.16029 0.83130 -0.01800
C 	C 	0.43937 0.18870 0.86746 -0.05800
C 	C 	0.43995 0.93228 0.56757 0.23700
O 	O 	0.43818 0.71460 0.35958 -0.35200
C 	C 	0.45553 0.83640 0.52058 -0.20800
F 	F 	0.06472 0.44182 0.04966 -0.41300
H 	H 	0.03919 0.26386 0.05289 0.08600
C 	C 	0.46176 0.80385 0.36491 0.29100
S 	S 	0.43780 0.86100 0.28717 -0.02700
H 	H 	0.42040 0.93507 0.28788 0.04200
H 	H 	0.47493 0.46535 0.68844 0.04500
C 	C 	0.47204 0.28953 0.61898 0.31500
O 	O 	0.48374 0.76136 0.01809 -0.32400
H 	H 	0.99136 0.90209 0.36050 0.04400
F 	F 	0.99721 0.59944 0.42024 -0.38900
S 	S 	0.93890 0.80682 0.35533 0.07600
H 	H 	0.99307 0.33224 0.79340 0.06900
H 	H 	0.97601 0.53211 0.76736 0.04200
C 	C 	0.98373 0.61477 0.45538 0.32100
S 	S 	0.48488 0.99526 0.17964 0.00000
H 	H 	0.98964 0.02324 0.80211 0.17600
O 	O 	0.97935 0.17085 0.80212 -0.34700
S 	S 	0.96940 0.49474 0.80129 0.02300
C 	C 	0.54216 0.00276 0.04466 0.31800
C 	C 	0.52588 0.46651 0.06804 0.27800
F 	F 	0.58720 0.16485 0.05051 -0.36500
O 	O 	0.98091 0.01246 0.77572 -0.68100
H 	H 	0.96876 0.21110 0.32106 0.08400
H 	H 	0.96639 0.40281 0.35708 0.07200
H 	H 	0.70866 0.80965 0.65757 0.05700
H 	H 	0.97013 0.00669 0.26882 0.16300
S 	S 	0.98015 0.57509 0.12563 0.07800
O 	O 	0.97890 0.01617 0.24235 -0.68800
S 	S 	0.68132 0.75438 0.68812 -0.02300
S 	S 	0.95034 0.32418 0.37627 0.07800
H 	H 	0.98813 0.59250 0.08902 0.07900
H 	H 	0.95439 0.72520 0.15225 0.10500
O 	O 	0.91817 0.83492 0.26980 -0.34100
O 	O 	0.95169 0.84936 0.19393 -0.33400
C 	C 	0.53270 0.24554 0.88452 0.29000
C 	C 	0.86088 0.59284 0.92846 0.31100
C 	C 	0.77642 0.37520 0.84508 0.31100
C 	C 	0.64634 0.46657 0.98304 0.38800
C 	C 	0.91262 0.35562 0.93963 0.40200
C 	C 	0.68929 0.20072 0.98440 0.39400
Ni	Ni	0.68655 0.43875 0.90128 1.11400
Ni	Ni	0.79130 0.41480 0.97114 1.13400
Ni	Ni	0.72163 0.26132 0.90922 1.12900
O 	O 	0.55183 0.32906 0.89693 -0.36600
O 	O 	0.60112 0.22353 0.87844 -0.36100
O 	O 	0.89994 0.42781 0.94261 -0.38300
O 	O 	0.82666 0.53769 0.90083 -0.37000
O 	O 	0.84023 0.55619 0.96132 -0.32500
O 	O 	0.65173 0.18255 0.95158 -0.37100
O 	O 	0.70989 0.39788 0.84938 -0.35900
O 	O 	0.80978 0.35589 0.87345 -0.36900
O 	O 	0.75865 0.28646 0.99388 -0.31200
O 	O 	0.65651 0.49721 0.94833 -0.35400
O 	O 	0.68091 0.41333 0.99462 -0.35200
O 	O 	0.84071 0.27298 0.93174 -0.33200
O 	O 	0.70695 0.35805 0.93175 -0.71700
H 	H 	0.64527 0.32146 0.94378 0.18900
C 	C 	0.79781 0.48822 0.52151 0.39500
C 	C 	0.56136 0.10094 0.56954 0.40100
C 	C 	0.54512 0.32274 0.50059 0.39700
C 	C 	0.79460 0.24071 0.59643 0.29200
C 	C 	0.71763 0.47736 0.63923 0.29300
Ni	Ni	0.69023 0.27936 0.53282 1.12900
Ni	Ni	0.63870 0.26920 0.61885 1.12300
Ni	Ni	0.62362 0.41939 0.56859 1.12700
O 	O 	0.80336 0.40973 0.52064 -0.34200
O 	O 	0.71575 0.48608 0.52640 -0.34200
O 	O 	0.50276 0.22994 0.61487 -0.36700
O 	O 	0.56682 0.15649 0.54302 -0.35300
O 	O 	0.59985 0.13593 0.60120 -0.37100
O 	O 	0.71745 0.50319 0.60512 -0.35600
O 	O 	0.61914 0.31355 0.49326 -0.31500
O 	O 	0.52413 0.32958 0.53429 -0.36100
O 	O 	0.67264 0.38675 0.64976 -0.37200
O 	O 	0.77195 0.23097 0.56116 -0.30200
O 	O 	0.77071 0.28921 0.61863 -0.37000
O 	O 	0.52231 0.37730 0.60763 -0.37100
O 	O 	0.67388 0.33689 0.57442 -0.71700
H 	H 	0.73992 0.38262 0.57994 0.17500
C 	C 	0.86985 0.81147 0.72635 0.30400
C 	C 	0.90237 0.85288 0.82979 0.29000
C 	C 	0.88601 0.07329 0.70942 0.34900
C 	C 	0.88768 0.14073 0.79967 0.29300
Ni	Ni	0.84595 0.94746 0.77381 1.11100
O 	O 	0.83679 0.98647 0.72232 -0.40600
O 	O 	0.95987 0.87035 0.72263 -0.35900
O 	O 	0.82281 0.82113 0.75350 -0.37100
O 	O 	0.82655 0.04909 0.79842 -0.35400
O 	O 	0.94709 0.83660 0.80294 -0.35500
O 	O 	0.84854 0.89159 0.82309 -0.36600
O 	O 	0.94297 0.14297 0.73045 -0.38200
C 	C 	0.52715 0.60844 0.09114 0.39000
O 	O 	0.52574 0.66674 0.06788 -0.39200
C 	C 	0.79622 0.97511 0.28232 0.25700
C 	C 	0.80283 0.99203 0.18411 0.27500
Ni	Ni	0.95629 0.11830 0.23553 1.12900
Ni	Ni	0.88419 0.89456 0.22812 1.11600
O 	O 	0.86786 0.06319 0.28051 -0.33900
O 	O 	0.78516 0.90827 0.25845 -0.36100
O 	O 	0.83019 0.05843 0.20833 -0.34500
O 	O 	0.83997 0.93588 0.18299 -0.35700
C 	C 	0.71740 0.97069 0.16278 -0.04900
C 	C 	0.65297 0.99648 0.17707 -0.05200
C 	C 	0.56575 0.96587 0.16046 0.05300
C 	C 	0.53989 0.90411 0.13100 -0.04100
C 	C 	0.61133 0.89662 0.11225 -0.01600
C 	C 	0.69982 0.92845 0.12826 0.03500
S 	S 	0.78866 0.92115 0.10371 0.05900
H 	H 	0.83798 0.00135 0.08339 0.08500
H 	H 	0.66918 0.03732 0.20180 0.08600
H 	H 	0.59427 0.85497 0.08777 0.06600
C 	C 	0.54737 0.87591 0.34651 -0.05800
C 	C 	0.63469 0.91006 0.36383 -0.01600
C 	C 	0.71845 0.95122 0.34344 0.03700
C 	C 	0.71456 0.95645 0.30533 -0.05600
C 	C 	0.62837 0.93216 0.28867 -0.02100
C 	C 	0.54512 0.89299 0.30909 0.04100
S 	S 	0.82692 0.99411 0.36585 -0.00200
H 	H 	0.84300 0.92080 0.37278 0.05600
H 	H 	0.63714 0.89988 0.39282 0.07600
H 	H 	0.62551 0.93974 0.25954 0.04800
C 	C 	0.53288 0.00276 0.56105 -0.14400
C 	C 	0.59096 0.98307 0.53870 0.20400
C 	C 	0.55223 0.90021 0.51839 0.29400
F 	F 	0.60688 0.88584 0.49425 -0.39600
F 	F 	0.68303 0.04794 0.53422 -0.37700
C 	C 	0.89231 0.57721 0.46886 0.27100
C 	C 	0.87708 0.57308 0.50645 -0.18900
C 	C 	0.95302 0.62894 0.52923 0.31000
F 	F 	0.93859 0.63226 0.56539 -0.39200
F 	F 	0.81856 0.53098 0.44607 -0.34400
C 	C 	0.49542 0.34263 0.47124 -0.19200
C 	C 	0.54658 0.40620 0.44314 0.27300
C 	C 	0.50845 0.45561 0.42498 0.27900
F 	F 	0.56119 0.52247 0.40006 -0.38300
F 	F 	0.63447 0.42343 0.43463 -0.34600
C 	C 	0.82673 0.17882 0.61279 -0.03300
C 	C 	0.75870 0.09061 0.62600 -0.03600
C 	C 	0.77462 0.05489 0.65814 0.08800
C 	C 	0.86683 0.09666 0.67254 -0.09900
C 	C 	0.94013 0.17298 0.65379 0.04600
C 	C 	0.91978 0.21669 0.62506 0.05000
S 	S 	0.67652 0.97023 0.68261 -0.07000
H 	H 	0.63537 0.01395 0.70072 0.06500
H 	H 	0.68969 0.05520 0.61389 0.09400
S 	S 	0.48871 0.38948 0.69259 -0.02100
C 	C 	0.74815 0.55133 0.66706 -0.05700
C 	C 	0.70036 0.60284 0.66971 -0.01800
C 	C 	0.73945 0.68781 0.68875 0.04500
C 	C 	0.82720 0.72177 0.70601 -0.06600
C 	C 	0.87317 0.66800 0.70483 -0.00900
C 	C 	0.83404 0.58304 0.68547 0.04400
S 	S 	0.89412 0.51822 0.68390 -0.01200
H 	H 	0.95147 0.54482 0.65392 0.08100
H 	H 	0.63503 0.57946 0.65509 0.05300
H 	H 	0.93942 0.69232 0.71888 0.05300
C 	C 	0.99833 0.36075 0.99422 0.28400
C 	C 	0.99677 0.36308 0.95613 -0.15000
F 	F 	0.92356 0.29330 0.01274 -0.37700
C 	C 	0.62811 0.95575 0.00360 0.26400
C 	C 	0.55012 0.93088 0.02640 -0.22600
C 	C 	0.60167 0.09700 0.03552 0.26300
C 	C 	0.66791 0.11998 0.00775 -0.16600
C 	C 	0.68790 0.05053 0.99482 0.28700
F 	F 	0.75861 0.07381 0.97048 -0.37400
F 	F 	0.64286 0.88848 0.98824 -0.38900
C 	C 	0.67909 0.59312 0.02684 0.26900
C 	C 	0.61324 0.50683 0.01121 -0.19100
C 	C 	0.53498 0.44405 0.03213 0.26700
C 	C 	0.57873 0.55963 0.07987 -0.20500
C 	C 	0.66527 0.61564 0.06229 0.28300
F 	F 	0.72803 0.69997 0.07664 -0.39100
F 	F 	0.75943 0.65190 0.00871 -0.38900
C 	C 	0.85314 0.21093 0.79645 -0.05800
C 	C 	0.91849 0.30802 0.79613 -0.01100
C 	C 	0.88726 0.37387 0.80061 0.04300
C 	C 	0.79285 0.34225 0.81018 -0.07600
C 	C 	0.72685 0.25072 0.79992 -0.02600
C 	C 	0.75551 0.18322 0.79421 0.03600
S 	S 	0.67003 0.06913 0.78102 -0.02500
H 	H 	0.63169 0.01447 0.81132 0.05500
H 	H 	0.65266 0.22885 0.80112 0.05100
H 	H 	0.49381 0.15768 0.81922 0.05200
C 	C 	0.90552 0.81777 0.86700 -0.07600
C 	C 	0.98501 0.81057 0.87697 0.03100
C 	C 	0.97857 0.74876 0.90482 0.05500
C 	C 	0.89209 0.69319 0.92254 -0.04700
C 	C 	0.82211 0.71903 0.91909 -0.02200
C 	C 	0.82594 0.77772 0.89040 0.04900
S 	S 	0.73102 0.79917 0.88448 0.00600
H 	H 	0.74741 0.87747 0.90380 0.08100
H 	H 	0.75887 0.68367 0.93548 0.09100
