data_crystal

_cell_length_a 20.60200
_cell_length_b 21.48452
_cell_length_c 31.50901
_cell_angle_alpha 60.70913
_cell_angle_beta  119.00444
_cell_angle_gamma 133.28055

_symmetry_space_group_name_	'P 1'
_symmetry_space_group_name_H-M	'P 1'

loop_
_symmetry_equiv_pos_as_xyz
  x,y,z

loop_
_atom_site_label
_atom_site_type_symbol
_atom_site_fract_x
_atom_site_fract_y
_atom_site_fract_z
_atom_site_charge
N 	N 	0.23505 0.56786 0.19504 -0.13300
C 	C 	0.27202 0.54183 0.18685 0.11700
C 	C 	0.23178 0.55614 0.65557 0.11600
N 	N 	0.20590 0.58199 0.67291 -0.13400
Co	Co	0.07065 0.01436 0.05793 1.16800
C 	C 	0.25070 0.04412 0.07589 0.23700
Co	Co	0.08428 0.86971 0.06061 1.17700
O 	O 	0.06662 0.11397 0.04735 -0.46300
C 	C 	0.09361 0.22340 0.14397 0.30300
C 	C 	0.10990 0.78300 0.16798 0.30200
O 	O 	0.10520 0.96555 0.99399 -0.38200
O 	O 	0.11311 0.18829 0.13122 -0.38400
O 	O 	0.07014 0.76840 0.12376 -0.40100
O 	O 	0.10113 0.82852 0.17912 -0.37200
O 	O 	0.04328 0.91141 0.08430 -0.72600
C 	C 	0.03008 1.00000 0.27205 0.32300
O 	O 	0.21599 0.95950 0.09258 -0.35600
O 	O 	0.21233 0.07503 0.07617 -0.38700
Co	Co	0.05581 0.02612 0.54948 1.17300
Co	Co	0.00861 0.09784 0.59687 1.18800
C 	C 	0.23062 0.08554 0.54448 0.30800
Co	Co	0.08951 0.89399 0.55689 1.18400
O 	O 	0.06055 0.12883 0.54248 -0.45900
C 	C 	0.10776 0.21615 0.66773 0.29100
C 	C 	0.15922 0.85548 0.66532 0.28800
O 	O 	0.05569 0.15091 0.69966 -0.37500
O 	O 	0.11605 0.20023 0.63494 -0.37300
O 	O 	0.18598 0.91062 0.62364 -0.37800
O 	O 	0.10726 0.85334 0.68046 -0.36100
O 	O 	0.03828 0.92742 0.57957 -0.71800
O 	O 	0.17781 0.02270 0.52163 -0.42500
O 	O 	0.19602 0.09109 0.56729 -0.40700
N 	N 	0.15373 0.08782 0.81854 -0.02100
O 	O 	0.17689 0.05455 0.80818 -0.10800
C 	C 	0.09730 0.04769 0.35150 0.04000
C 	C 	0.08161 0.04358 0.39230 -0.02500
H 	H 	0.13573 0.09388 0.41314 0.06100
N 	N 	0.18318 0.12010 0.33750 -0.01500
O 	O 	0.22057 0.19971 0.33682 -0.11600
O 	O 	0.22699 0.10569 0.32879 -0.11700
C 	C 	0.15255 0.43987 0.61396 -0.03900
C 	C 	0.17952 0.46265 0.65761 0.00100
C 	C 	0.18488 0.40469 0.70424 -0.03800
C 	C 	0.17001 0.32849 0.70757 0.00300
C 	C 	0.14592 0.30690 0.66413 -0.07000
C 	C 	0.13666 0.36295 0.61720 0.01000
H 	H 	0.14845 0.48411 0.57759 0.05200
H 	H 	0.20648 0.42154 0.73825 0.05200
H 	H 	0.17505 0.28499 0.74399 0.05700
H 	H 	0.11496 0.34602 0.58321 0.04200
C 	C 	0.30139 0.77856 0.70900 -0.04000
C 	C 	0.23498 0.69961 0.69300 0.00200
C 	C 	0.14164 0.66018 0.68487 -0.03900
C 	C 	0.11588 0.70468 0.68683 0.00500
C 	C 	0.18248 0.79150 0.69293 -0.07100
C 	C 	0.27523 0.82438 0.70863 0.01000
H 	H 	0.08905 0.59737 0.67493 0.05700
H 	H 	0.04391 0.67454 0.67953 0.04900
C 	C 	0.15823 0.38127 0.11461 0.01200
C 	C 	0.16235 0.31233 0.15274 -0.07500
C 	C 	0.20039 0.31938 0.20247 0.00500
C 	C 	0.22457 0.38897 0.21436 -0.03600
C 	C 	0.21587 0.45549 0.17642 0.00000
C 	C 	0.18250 0.45099 0.12642 -0.04000
H 	H 	0.12906 0.37716 0.07596 0.04000
H 	H 	0.20447 0.26714 0.23241 0.05600
H 	H 	0.25369 0.39310 0.25299 0.05700
C 	C 	0.30119 0.77288 0.20571 -0.04100
C 	C 	0.25088 0.68208 0.21047 0.00300
C 	C 	0.16259 0.62446 0.21910 -0.04100
C 	C 	0.12171 0.65833 0.21703 0.01100
C 	C 	0.16626 0.75016 0.20331 -0.07400
C 	C 	0.25952 0.80623 0.20320 0.00600
H 	H 	0.12427 0.55395 0.22569 0.05500
H 	H 	0.05098 0.61351 0.21973 0.04300
H 	H 	0.29655 0.87695 0.19488 0.04700
H 	H 	0.29324 0.17953 0.99316 0.05800
C 	C 	0.29033 0.64882 0.20484 0.11300
C 	C 	0.26397 0.66629 0.67847 0.11400
C 	C 	0.04476 0.98154 0.96467 0.33200
O 	O 	0.03446 0.07027 0.23985 -0.40300
O 	O 	0.02080 0.94426 0.25726 -0.34300
O 	O 	0.01044 0.01449 0.47399 -0.37000
O 	O 	0.00697 0.76246 0.59116 -0.38000
C 	C 	0.08709 0.04544 0.88346 -0.08200
C 	C 	0.07722 0.03053 0.84076 0.09200
H 	H 	0.15231 0.10046 0.89831 0.06900
C 	C 	0.02895 0.98064 0.32482 0.00700
H 	H 	0.17882 0.50346 0.09646 0.05100
O 	O 	0.20726 0.17212 0.81497 -0.11300
O 	O 	0.01485 0.00037 0.98289 -0.38300
O 	O 	0.00127 0.95349 0.74602 -0.31500
C 	C 	0.01733 0.98519 0.91003 0.00600
Co	Co	0.00687 0.08124 0.09844 1.18700
O 	O 	0.00892 0.18491 0.14183 -0.39400
C 	C 	0.99932 0.97242 0.40813 -0.07400
C 	C 	0.99599 0.95462 0.46005 0.30700
Co	Co	0.99750 0.86374 0.63272 1.16900
O 	O 	0.98748 0.88279 0.49283 -0.39000
Co	Co	0.99466 0.84345 0.13411 1.17200
O 	O 	0.82175 0.76414 0.92662 -0.10000
H 	H 	0.31458 0.18650 0.46847 0.04300
C 	C 	0.96525 0.96235 0.76651 0.27400
C 	C 	0.92436 0.89712 0.84830 -0.01500
C 	C 	0.99369 0.95775 0.82146 -0.06600
H 	H 	0.85938 0.84154 0.83382 0.06200
H 	H 	0.32766 0.88942 0.71584 0.04600
C 	C 	0.33737 0.10536 0.06045 -0.05000
C 	C 	0.71348 0.29012 0.01671 0.11500
N 	N 	0.62046 0.23549 0.00912 -0.14100
C 	C 	0.57558 0.26178 0.00829 0.12200
N 	N 	0.62320 0.34470 0.01132 -0.14000
C 	C 	0.71592 0.39621 0.02397 0.11300
N 	N 	0.76151 0.36942 0.02606 -0.13900
C 	C 	0.71944 0.29028 0.53545 0.11000
N 	N 	0.63063 0.23378 0.53920 -0.13900
C 	C 	0.60118 0.25301 0.55841 0.11400
N 	N 	0.65970 0.32840 0.57335 -0.13600
C 	C 	0.74552 0.38825 0.56610 0.11500
N 	N 	0.77619 0.36944 0.54730 -0.13800
N 	N 	0.36200 0.59631 0.18762 -0.13500
C 	C 	0.41659 0.67603 0.19694 0.11800
N 	N 	0.38144 0.70213 0.20619 -0.13500
N 	N 	0.34893 0.72154 0.66951 -0.13500
C 	C 	0.37427 0.69490 0.65293 0.11900
N 	N 	0.31455 0.61383 0.64436 -0.13500
Co	Co	0.95532 0.91975 0.18342 1.18400
Co	Co	0.92696 0.05481 0.17864 1.15700
C 	C 	0.89442 0.72001 0.06553 0.29100
O 	O 	0.82554 0.03358 0.11391 -0.40400
O 	O 	0.96610 0.01555 0.15171 -0.77900
C 	C 	0.84793 0.09251 0.07193 0.28100
O 	O 	0.95251 0.81747 0.19148 -0.46700
C 	C 	0.78784 0.86123 0.19987 0.30900
O 	O 	0.98549 0.95568 0.11086 -0.57800
O 	O 	0.90579 0.10648 0.05438 -0.38300
O 	O 	0.84402 0.92916 0.21899 -0.40300
O 	O 	0.81690 0.84823 0.17787 -0.38500
O 	O 	0.94605 0.78651 0.03345 -0.38700
O 	O 	0.89159 0.73302 0.10219 -0.37600
Co	Co	0.93336 0.92861 0.67335 1.18800
Co	Co	0.91723 0.06839 0.67189 1.15700
C 	C 	0.92161 0.72152 0.58966 0.27100
O 	O 	0.93201 0.17176 0.60978 -0.42200
O 	O 	0.95298 0.02737 0.64410 -0.79400
C 	C 	0.89583 0.16166 0.56444 0.30200
O 	O 	0.94003 0.83076 0.68489 -0.46600
C 	C 	0.74631 0.89471 0.64945 0.28900
O 	O 	0.97248 0.96742 0.60342 -0.57600
O 	O 	0.91183 0.12517 0.55050 -0.39900
O 	O 	0.78479 0.97982 0.63928 -0.37200
O 	O 	0.79510 0.86219 0.66965 -0.37300
O 	O 	0.89999 0.97220 0.73838 -0.38600
O 	O 	0.89987 0.75087 0.60552 -0.37900
C 	C 	0.93493 0.91098 0.89155 0.04900
N 	N 	0.86202 0.84813 0.91705 -0.01700
O 	O 	0.83135 0.87446 0.92733 -0.09400
C 	C 	0.94735 0.90877 0.34123 -0.08100
C 	C 	0.93122 0.90516 0.38163 0.10600
N 	N 	0.84493 0.83327 0.39522 -0.02300
H 	H 	0.89373 0.85777 0.32086 0.07100
O 	O 	0.79974 0.84862 0.40179 -0.10200
O 	O 	0.80848 0.75312 0.39750 -0.11600
C 	C 	0.52666 0.72302 0.69156 -0.03900
C 	C 	0.46993 0.74705 0.65216 0.00100
C 	C 	0.50070 0.81164 0.60903 -0.04000
C 	C 	0.58891 0.85422 0.60602 0.01000
C 	C 	0.64747 0.83323 0.64644 -0.07200
C 	C 	0.61493 0.76567 0.68865 0.00900
H 	H 	0.50224 0.67122 0.72444 0.05300
H 	H 	0.45618 0.82853 0.57775 0.05300
H 	H 	0.61304 0.90582 0.57305 0.04400
H 	H 	0.65954 0.74920 0.72022 0.04600
H 	H 	0.37365 0.80738 0.71873 0.05700
C 	C 	0.53657 0.75875 0.15284 -0.04100
C 	C 	0.51329 0.73353 0.19652 0.00200
C 	C 	0.57943 0.74418 0.24193 -0.04000
C 	C 	0.66752 0.77824 0.24388 0.01400
C 	C 	0.69097 0.80377 0.20017 -0.08300
C 	C 	0.62475 0.79302 0.15474 0.01500
H 	H 	0.48538 0.74933 0.11767 0.05200
H 	H 	0.56162 0.72304 0.27607 0.05800
H 	H 	0.71851 0.78724 0.27912 0.04700
H 	H 	0.64255 0.81433 0.12056 0.04500
H 	H 	0.37091 0.81842 0.20136 0.05600
C 	C 	0.70503 0.17304 0.52350 -0.04900
C 	C 	0.75629 0.26189 0.52327 0.00100
C 	C 	0.84628 0.32084 0.51670 -0.04900
C 	C 	0.88836 0.28877 0.51830 0.01200
C 	C 	0.84260 0.19739 0.52900 -0.08900
C 	C 	0.74786 0.14149 0.52541 0.00700
H 	H 	0.63382 0.12717 0.52542 0.04700
H 	H 	0.88536 0.39055 0.51308 0.04800
H 	H 	0.96034 0.33375 0.51793 0.02500
H 	H 	0.71002 0.07143 0.53065 0.02500
C 	C 	0.84446 0.56141 0.62415 0.00200
C 	C 	0.85574 0.63229 0.58214 -0.06700
C 	C 	0.83314 0.62254 0.53494 -0.00200
C 	C 	0.80689 0.54591 0.53040 -0.03600
C 	C 	0.79951 0.47656 0.57276 -0.00600
C 	C 	0.81840 0.48484 0.61969 -0.04100
H 	H 	0.86200 0.56799 0.66088 0.03300
H 	H 	0.84196 0.67689 0.50217 0.05400
H 	H 	0.78926 0.53927 0.49368 0.05200
H 	H 	0.81012 0.43067 0.65251 0.04400
C 	C 	0.35964 0.18174 0.50498 0.01400
C 	C 	0.32913 0.14269 0.54855 -0.08800
C 	C 	0.38784 0.13624 0.59548 0.01100
C 	C 	0.47450 0.16495 0.59871 -0.04600
C 	C 	0.50369 0.20141 0.55504 -0.00200
C 	C 	0.44557 0.20923 0.50819 -0.04300
H 	H 	0.36460 0.10492 0.62939 0.03400
H 	H 	0.51987 0.16076 0.63517 0.04400
H 	H 	0.46846 0.23976 0.47425 0.05500
C 	C 	0.81614 0.24379 0.07496 -0.03700
C 	C 	0.76250 0.25479 0.02697 -0.02600
C 	C 	0.74620 0.22130 0.99130 -0.00300
C 	C 	0.78149 0.17493 0.00440 -0.03600
C 	C 	0.83076 0.15953 0.05360 -0.06900
C 	C 	0.84714 0.19414 0.08872 0.00000
H 	H 	0.82803 0.26803 0.10296 0.04100
H 	H 	0.70447 0.22910 0.95400 0.04100
H 	H 	0.76626 0.14723 0.97714 0.05100
H 	H 	0.87747 0.17676 0.12774 0.00800
C 	C 	0.85959 0.54002 0.04467 -0.04700
C 	C 	0.76558 0.47424 0.04217 0.00100
C 	C 	0.71743 0.48450 0.05543 -0.04400
C 	C 	0.76119 0.56255 0.06691 0.01200
C 	C 	0.85354 0.63046 0.06606 -0.07800
C 	C 	0.90346 0.61719 0.05702 0.01300
H 	H 	0.89822 0.53285 0.03554 0.04700
H 	H 	0.64559 0.43293 0.05570 0.05200
H 	H 	0.72220 0.57149 0.07432 0.04100
H 	H 	0.97546 0.66875 0.05709 0.01600
C 	C 	0.47545 0.13142 0.06544 -0.02800
C 	C 	0.48519 0.19574 0.01995 -0.03400
C 	C 	0.41853 0.21225 0.99387 0.00900
C 	C 	0.34522 0.16756 0.01412 -0.04700
C 	C 	0.40323 0.08792 0.08605 -0.01700
H 	H 	0.52705 0.11895 0.08635 0.03900
H 	H 	0.42558 0.26223 0.95884 0.04400
H 	H 	0.39731 0.03915 0.12156 0.03300
