data_crystal

_cell_length_a 35.03642
_cell_length_b 30.85673
_cell_length_c 42.35462
_cell_angle_alpha 103.57343
_cell_angle_beta  115.73141
_cell_angle_gamma 112.64295

_symmetry_space_group_name_	'P 1'
_symmetry_space_group_name_H-M	'P 1'

loop_
_symmetry_equiv_pos_as_xyz
  x,y,z

loop_
_atom_site_label
_atom_site_type_symbol
_atom_site_fract_x
_atom_site_fract_y
_atom_site_fract_z
_atom_site_charge
Zn	Zn	0.04129 0.06041 0.89369 1.19500
O 	O 	0.04043 0.97337 0.83608 -0.50000
C 	C 	0.01333 0.99479 0.05485 0.32600
O 	O 	0.01351 0.03433 0.04801 -0.46700
O 	O 	0.02437 0.00709 0.98306 -0.89600
C 	C 	0.02769 0.00122 0.81961 0.35700
Zn	Zn	0.04101 0.06014 0.39447 1.19400
O 	O 	0.02941 0.96983 0.32972 -0.49900
O 	O 	0.05878 0.07011 0.44963 -0.78500
C 	C 	0.02725 0.99347 0.55993 0.32500
O 	O 	0.03261 0.03618 0.55613 -0.46400
O 	O 	0.03261 0.00543 0.48581 -0.89400
C 	C 	0.01841 0.00063 0.31613 0.34800
C 	C 	0.03094 0.98881 0.65653 -0.03500
C 	C 	0.02950 0.99320 0.72281 -0.04400
C 	C 	0.02873 0.99624 0.75696 0.06500
C 	C 	0.02816 0.99883 0.78557 -0.15100
C 	C 	0.03139 0.99073 0.62306 0.05300
C 	C 	0.03042 0.99155 0.59442 -0.12400
C 	C 	0.01980 0.99917 0.22012 -0.05700
C 	C 	0.02133 0.99603 0.15403 -0.03300
C 	C 	0.05318 0.04467 0.18975 -0.02500
C 	C 	0.05243 0.04624 0.22274 -0.01100
C 	C 	0.01902 0.99522 0.11912 0.05200
C 	C 	0.01720 0.99469 0.08994 -0.12500
C 	C 	0.01941 0.00058 0.25418 0.07900
C 	C 	0.01867 0.00114 0.28246 -0.13900
O 	O 	0.05251 0.07087 0.94723 -0.78600
Zn	Zn	0.12113 0.11170 0.98418 1.18600
O 	O 	0.03705 0.91012 0.89193 -0.50400
C 	C 	0.18597 0.09384 0.96828 0.29800
C 	C 	0.12491 0.17883 0.94487 0.31300
O 	O 	0.18501 0.11927 0.99723 -0.46200
O 	O 	0.14332 0.05969 0.93224 -0.33400
O 	O 	0.07753 0.98439 0.95040 -0.45900
O 	O 	0.09534 0.13422 0.91021 -0.45200
O 	O 	0.13505 0.17731 0.97829 -0.46100
C 	C 	0.07234 0.94013 0.93063 0.30800
H 	H 	0.06119 0.02758 0.00489 0.16100
Zn	Zn	0.12728 0.10186 0.48030 1.18600
O 	O 	0.03239 0.90667 0.38550 -0.50600
C 	C 	0.17577 0.06843 0.45128 0.30400
C 	C 	0.13308 0.17511 0.44542 0.31500
O 	O 	0.18270 0.09594 0.48431 -0.45900
O 	O 	0.13112 0.04317 0.41688 -0.34600
O 	O 	0.07711 0.97915 0.44616 -0.46500
O 	O 	0.09516 0.13272 0.40963 -0.45400
O 	O 	0.14889 0.17081 0.47836 -0.46000
C 	C 	0.07156 0.93682 0.42321 0.31800
H 	H 	0.06957 0.02254 0.50553 0.16300
C 	C 	0.07683 0.01729 0.69478 -0.02100
C 	C 	0.07611 0.01946 0.72787 -0.01600
H 	H 	0.11298 0.03842 0.69899 0.04000
H 	H 	0.11172 0.04190 0.75741 0.04100
H 	H 	0.07802 0.08133 0.19181 0.04000
H 	H 	0.07705 0.08400 0.25022 0.03700
C 	C 	0.16088 0.22771 0.44830 -0.09100
C 	C 	0.16291 0.23049 0.41637 0.01400
H 	H 	0.14382 0.19413 0.38929 0.04100
C 	C 	0.11473 0.93090 0.43706 -0.10900
C 	C 	0.13942 0.93322 0.47439 0.01700
C 	C 	0.18028 0.92714 0.48727 -0.05800
H 	H 	0.12653 0.93892 0.49316 0.01000
H 	H 	0.19856 0.92810 0.51587 0.04800
C 	C 	0.16873 0.27838 0.97841 0.01200
C 	C 	0.15139 0.23115 0.94694 -0.09100
H 	H 	0.16076 0.27651 0.00025 0.03100
C 	C 	0.09621 0.87488 0.93707 0.01100
C 	C 	0.11049 0.92829 0.95046 -0.10200
C 	C 	0.13331 0.86331 0.95022 -0.05300
H 	H 	0.12175 0.82188 0.93845 0.05000
H 	H 	0.05640 0.84228 0.91547 0.02600
H 	H 	0.11477 0.92474 0.38515 0.02300
C 	C 	0.19050 0.28028 0.41959 -0.05000
H 	H 	0.19236 0.28179 0.39497 0.05200
C 	C 	0.13257 0.92486 0.41347 0.02100
C 	C 	0.19682 0.32828 0.98204 -0.05200
H 	H 	0.21076 0.36437 0.00694 0.05100
C 	C 	0.16214 0.97004 0.97928 -0.00400
H 	H 	0.17899 0.03323 0.38776 0.04300
H 	H 	0.17359 0.01139 0.99066 0.03900
H 	H 	0.20668 0.02576 0.93745 0.04000
C 	C 	0.18636 0.27532 0.48333 0.01300
H 	H 	0.18462 0.27383 0.50800 0.03000
C 	C 	0.19711 0.91936 0.46306 0.01100
C 	C 	0.17369 0.91939 0.42647 -0.05600
C 	C 	0.16147 0.23436 0.91858 0.01300
H 	H 	0.14847 0.19833 0.89418 0.04200
C 	C 	0.18523 0.90508 0.97696 0.00600
C 	C 	0.19942 0.95853 0.99217 -0.05000
C 	C 	0.21934 0.07122 0.45219 -0.08100
C 	C 	0.21532 0.05376 0.41645 0.01000
C 	C 	0.23495 0.10723 0.97516 -0.08300
C 	C 	0.21395 0.32509 0.48655 -0.05100
C 	C 	0.21638 0.32786 0.45477 0.00900
C 	C 	0.23661 0.90747 0.47457 0.09700
N 	N 	0.23671 0.87488 0.49125 -0.08400
H 	H 	0.18652 0.91387 0.40764 0.05200
C 	C 	0.20768 0.33160 0.95410 0.00900
C 	C 	0.18940 0.28429 0.92211 -0.05000
N 	N 	0.21523 0.84651 0.98825 -0.08500
C 	C 	0.22442 0.89278 0.98695 0.09800
C 	C 	0.23861 0.06734 0.95529 0.01200
H 	H 	0.27473 0.19181 0.01463 0.03700
N 	N 	0.22989 0.38822 0.42605 -0.08400
N 	N 	0.23801 0.42673 0.97662 -0.08400
N 	N 	0.24648 0.83087 0.99074 -0.08500
H 	H 	0.23926 0.99113 0.01343 0.04700
C 	C 	0.27708 0.16070 0.99905 0.01100
C 	C 	0.24617 0.38044 0.45844 0.10000
H 	H 	0.23312 0.36148 0.51364 0.05100
N 	N 	0.26769 0.85803 0.49660 -0.08500
C 	C 	0.23859 0.38453 0.95862 0.10000
H 	H 	0.19683 0.28614 0.90000 0.05300
C 	C 	0.26637 0.09546 0.48893 0.01400
C 	C 	0.25875 0.06529 0.41767 -0.04600
H 	H 	0.26966 0.10695 0.51665 0.03800
H 	H 	0.25546 0.05405 0.38994 0.05400
N 	N 	0.25638 0.43590 0.42951 -0.08500
N 	N 	0.26960 0.92414 0.46463 -0.08400
N 	N 	0.26712 0.47486 0.98192 -0.08500
N 	N 	0.26706 0.92412 0.98996 -0.08500
C 	C 	0.28311 0.08116 0.95766 -0.04600
N 	N 	0.28993 0.42163 0.49431 -0.08300
N 	N 	0.26896 0.39187 0.94586 -0.08300
H 	H 	0.25338 0.76839 0.93299 0.04300
H 	H 	0.28521 0.05007 0.94177 0.05700
C 	C 	0.29943 0.87323 0.48539 0.10500
H 	H 	0.34615 0.84915 0.54223 0.04400
C 	C 	0.28812 0.86127 0.99238 0.10500
C 	C 	0.32146 0.17462 0.00124 -0.04700
C 	C 	0.29997 0.47719 0.46544 0.10600
N 	N 	0.30056 0.90726 0.46995 -0.08500
N 	N 	0.29853 0.90862 0.99272 -0.08500
C 	C 	0.30982 0.10690 0.49014 -0.04600
C 	C 	0.30665 0.09409 0.45463 0.01000
C 	C 	0.32424 0.13512 0.97968 0.00900
N 	N 	0.31642 0.46930 0.49776 -0.08500
H 	H 	0.31194 0.49962 0.41073 0.04500
C 	C 	0.29760 0.48224 0.96930 0.10600
N 	N 	0.29792 0.43999 0.95102 -0.08400
H 	H 	0.35178 0.57881 0.03470 0.04500
C 	C 	0.29367 0.79011 0.95666 -0.02300
H 	H 	0.35289 0.21637 0.01847 0.05400
C 	C 	0.32893 0.84927 0.48663 -0.01100
C 	C 	0.34952 0.83789 0.51781 -0.02400
C 	C 	0.31805 0.84011 0.98907 -0.01200
H 	H 	0.30159 0.72859 0.93017 0.04200
C 	C 	0.32824 0.53062 0.46963 -0.01100
C 	C 	0.33000 0.53520 0.43797 -0.02400
C 	C 	0.35400 0.58197 0.01053 -0.02300
C 	C 	0.32960 0.53553 0.97506 -0.01200
H 	H 	0.34618 0.12718 0.51877 0.05400
C 	C 	0.32098 0.76760 0.95504 -0.04100
C 	C 	0.35358 0.11570 0.45633 0.10300
N 	N 	0.35275 0.09041 0.42488 -0.08100
H 	H 	0.34667 0.69894 0.48163 0.05200
C 	C 	0.35500 0.58580 0.44138 -0.04100
H 	H 	0.35545 0.58886 0.41656 0.04200
C 	C 	0.33434 0.83512 0.45550 -0.02400
H 	H 	0.31836 0.84332 0.43112 0.04500
C 	C 	0.33388 0.54032 0.94440 -0.02400
H 	H 	0.31533 0.50482 0.91692 0.04500
C 	C 	0.35265 0.57727 0.50500 -0.02400
H 	H 	0.35143 0.57438 0.52959 0.04500
O 	O 	0.00983 0.95543 0.03027 -0.44500
O 	O 	0.01803 0.95204 0.53237 -0.44300
H 	H 	0.34889 0.70177 0.98846 0.05300
C 	C 	0.35891 0.80871 0.45506 -0.04100
C 	C 	0.36037 0.59105 0.94847 -0.04100
O 	O 	0.01948 0.03502 0.83624 -0.45200
O 	O 	0.01330 0.03534 0.33576 -0.45200
Zn	Zn	0.00894 0.99727 0.93148 1.20800
Zn	Zn	0.01253 0.99712 0.43355 1.20700
Zn	Zn	0.01194 0.94216 0.86255 1.17900
Zn	Zn	0.00526 0.93977 0.35870 1.17900
Zn	Zn	0.00494 0.03508 0.50472 1.19800
H 	H 	0.36193 0.79698 0.43048 0.04200
H 	H 	0.36193 0.59430 0.92408 0.04200
N 	N 	0.36154 0.12274 0.94353 -0.08100
C 	C 	0.37045 0.86835 0.01916 -0.02300
C 	C 	0.37421 0.81158 0.51739 -0.04100
C 	C 	0.37283 0.79457 0.98608 0.00300
C 	C 	0.36824 0.15067 0.97758 0.10200
C 	C 	0.37764 0.62779 0.50836 -0.04100
C 	C 	0.38063 0.63264 0.01463 -0.04100
C 	C 	0.37848 0.79632 0.48577 0.00300
C 	C 	0.37848 0.63226 0.47642 0.00300
C 	C 	0.38025 0.71526 0.48172 -0.07400
C 	C 	0.38147 0.71847 0.98733 -0.07400
H 	H 	0.38964 0.80265 0.54144 0.04100
H 	H 	0.38966 0.90715 0.04417 0.04300
C 	C 	0.38296 0.63739 0.98327 0.00300
H 	H 	0.39836 0.66819 0.04177 0.04200
C 	C 	0.39774 0.84554 0.01776 -0.04100
H 	H 	0.39576 0.66347 0.53557 0.04100
C 	C 	0.39968 0.76743 0.98696 0.03000
C 	C 	0.40188 0.76580 0.48409 0.03000
C 	C 	0.40143 0.68538 0.47886 0.03000
N 	N 	0.39612 0.16433 0.48714 -0.08200
N 	N 	0.41477 0.19568 0.00827 -0.08200
C 	C 	0.40432 0.69032 0.98519 0.03000
N 	N 	0.39249 0.11391 0.42359 -0.08300
N 	N 	0.39982 0.14000 0.93989 -0.08300
C 	C 	0.60515 0.27763 0.94962 0.03100
C 	C 	0.62111 0.32774 0.95105 -0.07400
C 	C 	0.65968 0.35118 0.94602 0.03100
C 	C 	0.68217 0.32443 0.93946 -0.07400
C 	C 	0.66610 0.27424 0.93777 0.03200
C 	C 	0.62760 0.25085 0.94289 -0.07400
H 	H 	0.60360 0.34836 0.95605 0.05300
H 	H 	0.71185 0.34246 0.93537 0.05500
H 	H 	0.61518 0.21204 0.94166 0.05500
C 	C 	0.59627 0.27225 0.43968 0.03100
C 	C 	0.60724 0.31848 0.43547 -0.07400
C 	C 	0.64548 0.34168 0.43003 0.03100
C 	C 	0.67263 0.31859 0.42876 -0.07400
C 	C 	0.66197 0.27262 0.43319 0.03200
C 	C 	0.62385 0.24956 0.43874 -0.07400
H 	H 	0.58599 0.33611 0.43624 0.05300
H 	H 	0.70210 0.33645 0.42444 0.05400
H 	H 	0.61552 0.21398 0.44216 0.05400
C 	C 	0.46492 0.76101 0.98345 0.03000
C 	C 	0.44174 0.78892 0.98539 -0.07400
C 	C 	0.44616 0.71171 0.98336 -0.07400
H 	H 	0.45561 0.82651 0.98472 0.05200
H 	H 	0.46381 0.68993 0.98158 0.05200
C 	C 	0.46594 0.75659 0.48041 0.03000
C 	C 	0.44490 0.78653 0.48367 -0.07400
C 	C 	0.44420 0.70602 0.47808 -0.07400
H 	H 	0.46188 0.82578 0.48580 0.05200
H 	H 	0.46040 0.68280 0.47557 0.05200
O 	O 	0.99304 0.98717 0.87955 -0.86700
Zn	Zn	0.89862 0.89792 0.89379 1.17600
Zn	Zn	0.98724 0.93350 0.97196 1.19300
C 	C 	0.89724 0.82308 0.92837 0.31800
C 	C 	0.86799 0.93638 0.93849 0.31400
O 	O 	0.94079 0.01307 0.91314 -0.45200
Zn	Zn	0.98873 0.03038 0.99571 1.20500
O 	O 	0.94677 0.85714 0.95627 -0.45400
O 	O 	0.87308 0.82992 0.89784 -0.46000
O 	O 	0.85560 0.91676 0.90197 -0.48200
O 	O 	0.91292 0.95115 0.96845 -0.47200
O 	O 	0.96524 0.92359 0.91587 -0.79200
C 	C 	0.93778 0.04867 0.93455 0.32000
O 	O 	0.95837 0.06345 0.97257 -0.48500
H 	H 	0.95701 0.97359 0.85978 0.15000
O 	O 	0.99198 0.98773 0.38088 -0.86800
Zn	Zn	0.90180 0.90584 0.40046 1.17600
Zn	Zn	0.99112 0.93179 0.47333 1.19300
C 	C 	0.89577 0.82492 0.42937 0.31800
C 	C 	0.88250 0.94972 0.45300 0.31600
O 	O 	0.95055 0.02080 0.42335 -0.45500
O 	O 	0.94578 0.85558 0.45614 -0.45200
O 	O 	0.87223 0.83639 0.40188 -0.46100
O 	O 	0.86606 0.93110 0.41536 -0.48000
O 	O 	0.92723 0.96038 0.47979 -0.47300
O 	O 	0.96576 0.92420 0.41737 -0.79100
C 	C 	0.95446 0.05989 0.44838 0.31900
O 	O 	0.97893 0.07391 0.48651 -0.48200
H 	H 	0.95610 0.97625 0.36335 0.14700
C 	C 	0.98364 0.96396 0.68447 -0.01400
C 	C 	0.98436 0.96178 0.65140 -0.01700
H 	H 	0.94747 0.94333 0.68031 0.03600
H 	H 	0.94873 0.93983 0.62192 0.04000
C 	C 	0.98839 0.95043 0.18455 -0.00800
C 	C 	0.98914 0.94886 0.15157 -0.02100
H 	H 	0.96330 0.91383 0.18240 0.03400
H 	H 	0.96427 0.91116 0.12401 0.04200
C 	C 	0.51052 0.77811 0.47905 0.00300
C 	C 	0.55673 0.78845 0.50918 -0.04100
C 	C 	0.59956 0.81103 0.50884 -0.02400
C 	C 	0.59659 0.82359 0.47838 -0.01100
C 	C 	0.50734 0.79003 0.44835 -0.04100
C 	C 	0.64192 0.84793 0.47822 0.10600
N 	N 	0.67486 0.83244 0.48966 -0.08500
N 	N 	0.71517 0.85355 0.48868 -0.08400
C 	C 	0.72383 0.89092 0.47634 0.10000
N 	N 	0.69110 0.90675 0.46521 -0.08400
N 	N 	0.65073 0.88555 0.46613 -0.08500
C 	C 	0.76716 0.91234 0.47341 0.00900
C 	C 	0.85087 0.93146 0.49419 0.01300
C 	C 	0.84543 0.94238 0.46263 -0.09400
C 	C 	0.80193 0.94122 0.43797 0.01500
C 	C 	0.76293 0.92611 0.44323 -0.05200
C 	C 	0.55016 0.81273 0.44803 -0.02400
C 	C 	0.81197 0.91652 0.49953 -0.05000
H 	H 	0.55963 0.77964 0.53313 0.04100
H 	H 	0.63520 0.81945 0.53255 0.04400
H 	H 	0.54715 0.82154 0.42407 0.04500
H 	H 	0.47173 0.78186 0.42481 0.04200
H 	H 	0.81633 0.90736 0.52357 0.05200
H 	H 	0.88444 0.93279 0.51380 0.04000
H 	H 	0.72882 0.92354 0.42306 0.05200
H 	H 	0.79770 0.95066 0.41406 0.03100
C 	C 	0.50732 0.78216 0.97961 0.00300
C 	C 	0.55549 0.82758 0.01224 -0.04100
C 	C 	0.59589 0.84719 0.00871 -0.02400
C 	C 	0.58834 0.82167 0.97235 -0.01200
C 	C 	0.49963 0.75675 0.94329 -0.04100
C 	C 	0.63114 0.84178 0.96862 0.10600
N 	N 	0.67048 0.89430 0.99187 -0.08500
N 	N 	0.70845 0.91249 0.98788 -0.08300
C 	C 	0.70801 0.87877 0.96036 0.10000
N 	N 	0.66886 0.82628 0.93728 -0.08300
N 	N 	0.63109 0.80802 0.94144 -0.08500
C 	C 	0.74916 0.89898 0.95507 0.01000
C 	C 	0.83938 0.94609 0.98315 0.01300
C 	C 	0.82745 0.92764 0.94436 -0.09300
C 	C 	0.77618 0.89754 0.91109 0.01400
C 	C 	0.73732 0.88302 0.91644 -0.05100
C 	C 	0.53982 0.77645 0.93959 -0.02400
C 	C 	0.80039 0.93176 0.98845 -0.05000
H 	H 	0.56173 0.84740 0.04042 0.04100
H 	H 	0.63309 0.88179 0.03435 0.04500
H 	H 	0.53313 0.75671 0.91121 0.04600
H 	H 	0.46245 0.72182 0.91788 0.04200
H 	H 	0.81000 0.94479 0.01844 0.05300
H 	H 	0.87872 0.97049 0.00916 0.03600
H 	H 	0.69793 0.85871 0.89049 0.05100
H 	H 	0.76626 0.88417 0.88100 0.03300
H 	H 	0.43779 0.86677 0.04181 0.04100
C 	C 	0.69114 0.24896 0.43232 0.00400
C 	C 	0.66614 0.19638 0.40273 -0.04000
C 	C 	0.69414 0.17486 0.40084 -0.02300
C 	C 	0.74748 0.20589 0.42843 -0.01000
C 	C 	0.74427 0.27970 0.46021 -0.04000
C 	C 	0.77729 0.18347 0.42647 0.10800
N 	N 	0.76029 0.14548 0.39096 -0.08300
N 	N 	0.78790 0.12624 0.38919 -0.08200
C 	C 	0.83348 0.14483 0.42280 0.10100
N 	N 	0.85036 0.18265 0.45826 -0.08100
N 	N 	0.82266 0.20161 0.46008 -0.08300
C 	C 	0.86381 0.12324 0.42124 0.01100
C 	C 	0.87052 0.04665 0.40644 0.01600
C 	C 	0.92383 0.08114 0.43282 -0.10200
C 	C 	0.94693 0.13678 0.45015 0.01800
C 	C 	0.91706 0.15777 0.44430 -0.05100
C 	C 	0.77234 0.25844 0.45818 -0.02300
C 	C 	0.84053 0.06761 0.40083 -0.05200
H 	H 	0.62510 0.17239 0.38100 0.04400
H 	H 	0.67435 0.13406 0.37806 0.04800
H 	H 	0.81345 0.28302 0.47950 0.04800
H 	H 	0.76386 0.32027 0.48326 0.04400
H 	H 	0.79941 0.04054 0.38246 0.05200
H 	H 	0.85230 0.00360 0.39224 0.02900
H 	H 	0.93539 0.20084 0.45920 0.05400
H 	H 	0.98810 0.16375 0.46992 0.02600
C 	C 	0.65755 0.39040 0.42588 0.00400
C 	C 	0.68351 0.43999 0.45933 -0.04100
C 	C 	0.70346 0.48749 0.45747 -0.02300
C 	C 	0.69765 0.48571 0.42213 -0.01100
C 	C 	0.64904 0.38844 0.38986 -0.04100
C 	C 	0.72490 0.53558 0.42180 0.10700
N 	N 	0.72797 0.58012 0.44093 -0.08400
N 	N 	0.75445 0.62580 0.44199 -0.08200
C 	C 	0.77889 0.62831 0.42419 0.10000
N 	N 	0.77567 0.58374 0.40496 -0.08300
N 	N 	0.74900 0.53803 0.40374 -0.08400
C 	C 	0.80915 0.67905 0.42612 0.01000
C 	C 	0.81830 0.75857 0.42074 0.01400
C 	C 	0.86601 0.77469 0.42816 -0.09000
C 	C 	0.88533 0.74298 0.43483 0.01700
C 	C 	0.85695 0.69527 0.43366 -0.05000
C 	C 	0.66904 0.43587 0.38799 -0.02300
C 	C 	0.79007 0.71106 0.41986 -0.05000
H 	H 	0.69010 0.44186 0.48723 0.04300
H 	H 	0.72522 0.52568 0.48396 0.04600
H 	H 	0.66338 0.43393 0.36031 0.04600
H 	H 	0.62855 0.35026 0.36375 0.04400
H 	H 	0.75317 0.69887 0.41388 0.05300
H 	H 	0.80329 0.78308 0.41601 0.03500
H 	H 	0.87223 0.67109 0.43884 0.05400
H 	H 	0.92209 0.75500 0.44055 0.03700
N 	N 	0.43594 0.18772 0.48592 -0.08300
C 	C 	0.43431 0.16329 0.45378 0.10800
C 	C 	0.47586 0.19171 0.45034 -0.01000
C 	C 	0.56623 0.24899 0.48055 -0.04000
C 	C 	0.55487 0.24656 0.44383 0.00400
C 	C 	0.50394 0.21706 0.41049 -0.04100
C 	C 	0.46459 0.18966 0.41368 -0.02300
C 	C 	0.52688 0.22181 0.48384 -0.02300
H 	H 	0.53605 0.22364 0.51226 0.04700
H 	H 	0.60551 0.27157 0.50641 0.04400
H 	H 	0.42536 0.16717 0.38776 0.04600
H 	H 	0.49489 0.21490 0.38201 0.04300
C 	C 	0.68980 0.24637 0.93072 0.00400
C 	C 	0.74003 0.26570 0.96079 -0.04000
C 	C 	0.76427 0.24232 0.95307 -0.02300
C 	C 	0.73851 0.19944 0.91506 -0.01000
C 	C 	0.66358 0.20282 0.89304 -0.04000
C 	C 	0.76466 0.17573 0.90665 0.10800
N 	N 	0.81581 0.20652 0.92549 -0.08300
N 	N 	0.84021 0.18433 0.92081 -0.08200
C 	C 	0.81417 0.13069 0.89693 0.10100
N 	N 	0.76270 0.10022 0.87685 -0.08200
N 	N 	0.73832 0.12240 0.88170 -0.08300
C 	C 	0.84222 0.10501 0.89704 0.01400
C 	C 	0.92312 0.11524 0.91829 0.01900
C 	C 	0.90310 0.06376 0.91441 -0.10600
C 	C 	0.85129 0.03109 0.89815 0.03100
C 	C 	0.82096 0.05159 0.88959 -0.05700
C 	C 	0.68781 0.17946 0.88519 -0.02300
C 	C 	0.89273 0.13567 0.90930 -0.05400
H 	H 	0.76048 0.29925 0.99000 0.04400
H 	H 	0.80303 0.25751 0.97662 0.04800
H 	H 	0.66751 0.14651 0.85573 0.04800
H 	H 	0.62480 0.18780 0.86961 0.04400
H 	H 	0.90912 0.17615 0.91360 0.05500
H 	H 	0.96292 0.14043 0.93018 0.02000
H 	H 	0.78178 0.02687 0.87925 0.05800
H 	H 	0.83521 0.99089 0.89430 0.02200
C 	C 	0.86917 0.77429 0.92971 -0.08800
C 	C 	0.88945 0.77244 0.96582 0.01400
C 	C 	0.86207 0.72733 0.96766 -0.04800
C 	C 	0.81392 0.68357 0.93350 0.01000
C 	C 	0.82111 0.73035 0.89546 0.01400
C 	C 	0.78516 0.63577 0.93544 0.10100
N 	N 	0.79081 0.64061 0.97016 -0.08300
N 	N 	0.76706 0.59719 0.97253 -0.08400
C 	C 	0.73673 0.54768 0.94019 0.10700
N 	N 	0.73030 0.54291 0.90526 -0.08400
N 	N 	0.75419 0.58631 0.90292 -0.08300
C 	C 	0.71426 0.49939 0.94378 -0.01100
C 	C 	0.72398 0.44910 0.97966 -0.04100
C 	C 	0.67612 0.40336 0.94694 0.00400
C 	C 	0.64639 0.40641 0.91339 -0.04100
C 	C 	0.66539 0.45421 0.91178 -0.02300
C 	C 	0.79362 0.68533 0.89738 -0.05000
C 	C 	0.74296 0.49696 0.97815 -0.02400
H 	H 	0.92619 0.80617 0.99260 0.04300
H 	H 	0.87848 0.72632 0.99562 0.05400
H 	H 	0.75638 0.65203 0.87085 0.05200
H 	H 	0.80495 0.73102 0.86736 0.03400
H 	H 	0.78068 0.53154 0.00307 0.04700
H 	H 	0.74710 0.44708 0.00573 0.04400
H 	H 	0.64253 0.45583 0.88538 0.04500
H 	H 	0.60928 0.37129 0.88807 0.04300
C 	C 	0.44592 0.18583 0.97013 0.10700
N 	N 	0.45303 0.21303 0.00459 -0.08300
C 	C 	0.48678 0.20772 0.96462 -0.01000
C 	C 	0.51328 0.22372 0.92190 -0.04000
C 	C 	0.56449 0.25291 0.95467 0.00400
C 	C 	0.57684 0.25905 0.99235 -0.04100
C 	C 	0.53817 0.23656 0.99734 -0.02400
C 	C 	0.47456 0.20119 0.92680 -0.02300
H 	H 	0.43515 0.17945 0.90137 0.04700
H 	H 	0.50350 0.21881 0.89270 0.04300
H 	H 	0.54815 0.24150 0.02658 0.04700
H 	H 	0.61636 0.28145 0.01777 0.04400
