data_crystal

_cell_length_a 16.67922
_cell_length_b 15.60926
_cell_length_c 34.16870
_cell_angle_alpha 90.94921
_cell_angle_beta  91.04429
_cell_angle_gamma 113.30097

_symmetry_space_group_name_	'P 1'
_symmetry_space_group_name_H-M	'P 1'

loop_
_symmetry_equiv_pos_as_xyz
  x,y,z

loop_
_atom_site_label
_atom_site_type_symbol
_atom_site_fract_x
_atom_site_fract_y
_atom_site_fract_z
_atom_site_charge
Ni	Ni	0.80265 0.38608 0.88202 1.10300
O 	O 	0.67906 0.28868 0.87053 -0.70200
Ni	Ni	0.61238 0.31396 0.91381 1.10300
O 	O 	0.86286 0.31563 0.85100 -0.37400
O 	O 	0.78875 0.18621 0.88570 -0.40900
O 	O 	0.79621 0.45690 0.83215 -0.37400
Ni	Ni	0.65934 0.15665 0.87178 1.07800
O 	O 	0.87023 0.60559 0.90607 -0.36900
O 	O 	0.62179 0.10597 0.92677 -0.39000
O 	O 	0.49672 0.19880 0.90697 -0.35900
O 	O 	0.73240 0.42152 0.92163 -0.68700
O 	O 	0.92007 0.49088 0.89527 -0.37700
O 	O 	0.55756 0.37032 0.95481 -0.30400
O 	O 	0.60586 0.50991 0.92385 -0.39700
Ni	Ni	0.73864 0.54826 0.91436 1.10200
H 	H 	0.65624 0.30151 0.84533 0.15900
H 	H 	0.75615 0.41852 0.94810 0.18300
C 	C 	0.61720 0.15499 0.95762 0.34900
O 	O 	0.71605 0.53373 0.85566 -0.40200
C 	C 	0.84868 0.22965 0.86045 0.28500
C 	C 	0.47461 0.13886 0.87667 0.29500
C 	C 	0.77701 0.53110 0.83258 0.29500
C 	C 	0.56651 0.45799 0.95351 0.31600
C 	C 	0.92076 0.56226 0.91659 0.31900
O 	O 	0.64871 0.24640 0.95701 -0.36500
O 	O 	0.53287 0.12118 0.85576 -0.40700
Ni	Ni	0.66766 0.21939 0.63683 1.10300
O 	O 	0.71553 0.35748 0.65194 -0.70400
Ni	Ni	0.69095 0.41327 0.60328 1.10100
O 	O 	0.74391 0.18761 0.67677 -0.37500
O 	O 	0.86513 0.30258 0.65321 -0.40400
O 	O 	0.57043 0.19033 0.67785 -0.36600
Ni	Ni	0.83953 0.42007 0.66506 1.07600
O 	O 	0.48106 0.09724 0.60812 -0.37700
O 	O 	0.90055 0.48381 0.61499 -0.36000
O 	O 	0.76265 0.55352 0.61544 -0.36900
O 	O 	0.62726 0.27325 0.59112 -0.69500
O 	O 	0.61059 0.08384 0.61889 -0.37600
O 	O 	0.63517 0.44479 0.55452 -0.36800
O 	O 	0.49809 0.35631 0.57538 -0.38000
Ni	Ni	0.50048 0.22898 0.59116 1.08400
H 	H 	0.68147 0.36837 0.67346 0.16500
H 	H 	0.64635 0.25476 0.56626 0.16900
C 	C 	0.87386 0.45584 0.57872 0.33500
O 	O 	0.50289 0.27253 0.64731 -0.41500
C 	C 	0.82914 0.22698 0.67381 0.27800
C 	C 	0.80611 0.58765 0.64897 0.30200
C 	C 	0.50599 0.21917 0.67578 0.30000
C 	C 	0.54949 0.41041 0.54905 0.32000
C 	C 	0.53597 0.05822 0.59917 0.33000
O 	O 	0.79057 0.40645 0.57040 -0.39100
O 	O 	0.81296 0.53297 0.67676 -0.41300
C 	C 	0.08763 0.00203 0.72218 -0.04000
H 	H 	0.09736 0.01786 0.69059 0.05000
C 	C 	0.06539 0.96380 0.79780 -0.03800
H 	H 	0.05615 0.94538 0.82909 0.05100
C 	C 	0.04526 0.05901 0.74471 -0.00500
C 	C 	0.02869 0.90013 0.73076 -0.00400
C 	C 	0.17214 0.01969 0.74575 -0.00100
C 	C 	0.03287 0.03821 0.78398 -0.00300
C 	C 	0.01809 0.88038 0.76979 -0.00300
C 	C 	0.16078 0.00217 0.78490 -0.00200
Ni	Ni	0.26347 0.64625 0.40820 1.09900
O 	O 	0.36153 0.76874 0.42778 -0.69000
Ni	Ni	0.33773 0.86492 0.39575 1.10100
O 	O 	0.30978 0.56607 0.44165 -0.36700
O 	O 	0.44257 0.63254 0.41411 -0.38700
O 	O 	0.19253 0.65464 0.45561 -0.38700
Ni	Ni	0.47924 0.77553 0.41778 1.09300
O 	O 	0.08223 0.59325 0.35362 -0.40900
O 	O 	0.45557 0.76787 0.35921 -0.41500
O 	O 	0.43398 0.98032 0.41977 -0.36900
O 	O 	0.24589 0.74110 0.37368 -0.69700
O 	O 	0.16136 0.52706 0.38880 -0.38200
O 	O 	0.28160 0.94733 0.37021 -0.36600
O 	O 	0.15514 0.85890 0.39824 -0.40500
Ni	Ni	0.12304 0.72508 0.37593 1.07600
H 	H 	0.35568 0.77920 0.45603 0.17100
H 	H 	0.25953 0.73026 0.34643 0.15500
C 	C 	0.46999 0.84497 0.34123 0.30000
O 	O 	0.07543 0.67600 0.42959 -0.36600
C 	C 	0.39226 0.57822 0.44027 0.32900
C 	C 	0.50001 0.96855 0.43689 0.33800
C 	C 	0.10778 0.63209 0.45351 0.33800
C 	C 	0.19936 0.92987 0.37676 0.28900
C 	C 	0.08618 0.52264 0.37334 0.30700
O 	O 	0.41648 0.88700 0.34709 -0.36300
O 	O 	0.53613 0.91799 0.41875 -0.37500
Ni	Ni	0.35987 0.74159 0.11130 1.10300
O 	O 	0.23643 0.66755 0.08899 -0.69300
Ni	Ni	0.16446 0.70844 0.12544 1.10300
O 	O 	0.41285 0.68550 0.06949 -0.31500
O 	O 	0.32504 0.53729 0.08639 -0.39900
O 	O 	0.36525 0.84309 0.07310 -0.36700
Ni	Ni	0.19822 0.53212 0.08850 1.09600
O 	O 	0.44274 0.89620 0.18297 -0.41800
O 	O 	0.19965 0.52275 0.14801 -0.40700
O 	O 	0.04740 0.64008 0.09759 -0.37800
O 	O 	0.28608 0.76930 0.15105 -0.70200
O 	O 	0.48362 0.82408 0.13191 -0.35700
O 	O 	0.11245 0.78525 0.15750 -0.37600
O 	O 	0.22206 0.91930 0.13922 -0.40800
Ni	Ni	0.33274 0.90442 0.16096 1.07200
H 	H 	0.23014 0.68773 0.06220 0.19200
H 	H 	0.28890 0.73758 0.17557 0.15700
C 	C 	0.13748 0.53133 0.16860 0.29700
O 	O 	0.40047 0.97177 0.11328 -0.39700
C 	C 	0.38385 0.59469 0.06333 0.32400
C 	C 	0.03777 0.56723 0.07511 0.32800
C 	C 	0.41134 0.93187 0.08077 0.35000
C 	C 	0.14627 0.87657 0.15555 0.28200
C 	C 	0.50342 0.88729 0.16089 0.30000
O 	O 	0.12477 0.60945 0.16844 -0.37200
O 	O 	0.06809 0.50523 0.08695 -0.38100
C 	C 	0.92261 0.11663 0.23028 -0.04000
H 	H 	0.92879 0.13034 0.19841 0.04700
C 	C 	0.90573 0.08384 0.30659 -0.03900
H 	H 	0.89930 0.07027 0.33840 0.04900
C 	C 	0.98099 0.07023 0.24671 0.00100
C 	C 	0.94724 0.20443 0.25672 -0.00200
C 	C 	0.83018 0.05209 0.24278 -0.00600
C 	C 	0.97150 0.05153 0.28598 -0.00200
C 	C 	0.93530 0.18706 0.29603 -0.00200
C 	C 	0.82093 0.03653 0.28214 0.00100
C 	C 	0.08662 0.45608 0.19519 -0.09100
C 	C 	0.13007 0.42788 0.22452 -0.00200
C 	C 	0.08373 0.35247 0.24822 -0.00600
C 	C 	0.99340 0.29969 0.24060 0.01900
C 	C 	0.95014 0.32942 0.21169 -0.07400
C 	C 	0.99512 0.40932 0.19033 0.05300
S 	S 	0.13887 0.32906 0.28826 -0.03400
S 	S 	0.93567 0.44987 0.15785 -0.01500
H 	H 	0.91247 0.51412 0.17698 0.04800
H 	H 	0.14969 0.39334 0.31778 0.04200
H 	H 	0.19984 0.46552 0.22937 0.03900
H 	H 	0.88131 0.28948 0.20542 0.05200
C 	C 	0.59422 0.93046 0.17491 -0.08600
C 	C 	0.63476 0.87340 0.18868 0.00600
C 	C 	0.71527 0.91230 0.20852 -0.00700
C 	C 	0.75685 0.01014 0.21411 0.02000
C 	C 	0.72067 0.06754 0.19643 -0.07400
C 	C 	0.63887 0.02820 0.17734 0.05900
S 	S 	0.76188 0.83751 0.22682 -0.02800
S 	S 	0.59337 0.10176 0.15649 -0.04300
H 	H 	0.61474 0.11410 0.11786 0.05800
H 	H 	0.71519 0.79041 0.25784 0.04100
H 	H 	0.60151 0.79816 0.18562 0.04400
H 	H 	0.75334 0.14267 0.19983 0.05300
C 	C 	0.02664 0.02915 0.21999 0.02000
C 	C 	0.97805 0.96424 0.19074 -0.07500
C 	C 	0.01633 0.91424 0.16909 0.05800
C 	C 	0.10515 0.93173 0.17582 -0.09800
C 	C 	0.15583 0.00404 0.20182 -0.00100
C 	C 	0.11783 0.05523 0.22277 -0.00900
S 	S 	0.95320 0.83243 0.13294 -0.01900
S 	S 	0.18631 0.15898 0.24710 -0.02900
H 	H 	0.22694 0.13894 0.27869 0.04000
H 	H 	0.96077 0.87570 0.09782 0.04800
H 	H 	0.91055 0.95249 0.18488 0.06000
H 	H 	0.22527 0.02129 0.20539 0.01300
C 	C 	0.56009 0.89786 0.32622 -0.08900
C 	C 	0.62638 0.86667 0.33606 0.00100
C 	C 	0.71202 0.91389 0.32383 -0.00500
C 	C 	0.73323 0.99329 0.30060 0.02100
C 	C 	0.66893 0.02846 0.29275 -0.06700
C 	C 	0.58211 0.97980 0.30404 0.06300
S 	S 	0.79163 0.87219 0.33814 -0.02900
S 	S 	0.50240 0.02010 0.28827 -0.02000
H 	H 	0.46720 0.97890 0.25288 0.03100
H 	H 	0.82966 0.91334 0.37323 0.04700
H 	H 	0.61157 0.80559 0.35376 0.03000
H 	H 	0.68577 0.09225 0.27671 0.05800
C 	C 	0.94197 0.25959 0.32606 0.02200
C 	C 	0.98909 0.26564 0.36115 -0.06800
C 	C 	0.02271 0.34977 0.38265 0.06000
C 	C 	0.01518 0.42930 0.36691 -0.07000
C 	C 	0.95022 0.41608 0.33787 0.00800
C 	C 	0.91053 0.32932 0.31845 -0.00400
S 	S 	0.06648 0.35289 0.43019 -0.00400
S 	S 	0.81292 0.30308 0.29116 -0.02200
H 	H 	0.82755 0.35964 0.25959 0.03500
H 	H 	0.00198 0.33663 0.45683 0.05700
H 	H 	0.00209 0.20671 0.37094 0.05400
H 	H 	0.93290 0.47339 0.32958 0.05200
C 	C 	0.15049 0.96599 0.35022 -0.10600
C 	C 	0.08921 0.90346 0.32381 0.00200
C 	C 	0.02797 0.92855 0.30414 -0.01200
C 	C 	0.03142 0.02009 0.30873 0.02100
C 	C 	0.09370 0.08328 0.33481 -0.07800
C 	C 	0.15315 0.05674 0.35555 0.05900
S 	S 	0.94389 0.84243 0.27649 -0.03400
S 	S 	0.23041 0.13772 0.38796 -0.02000
H 	H 	0.19587 0.13056 0.42443 0.05400
H 	H 	0.97746 0.81896 0.24371 0.04100
H 	H 	0.08638 0.83316 0.32006 -0.01700
H 	H 	0.09781 0.15397 0.33801 0.05600
C 	C 	0.60168 0.03091 0.53807 -0.09800
C 	C 	0.52715 0.01275 0.56055 -0.14800
C 	C 	0.44397 0.96801 0.54286 0.33100
C 	C 	0.43535 0.95381 0.50243 -0.09200
C 	C 	0.50984 0.97966 0.47951 -0.16100
C 	C 	0.59302 0.01456 0.49763 0.34200
F 	F 	0.66550 0.03703 0.47586 -0.44400
H 	H 	0.66637 0.06316 0.55154 0.08400
H 	H 	0.37070 0.92416 0.48880 0.06600
F 	F 	0.37135 0.94290 0.56469 -0.44300
C 	C 	0.90613 0.47809 0.50698 -0.09200
C 	C 	0.93677 0.49137 0.54618 -0.11800
C 	C 	0.02682 0.54320 0.55425 0.33400
C 	C 	0.08335 0.58580 0.52383 -0.08500
C 	C 	0.05137 0.57662 0.48501 -0.12500
C 	C 	0.96290 0.52010 0.47664 0.33600
F 	F 	0.93154 0.50674 0.43910 -0.45000
H 	H 	0.83791 0.43672 0.49995 0.10400
H 	H 	0.15152 0.62791 0.53068 0.10500
F 	F 	0.05972 0.55282 0.59145 -0.44200
C 	C 	0.55040 0.54829 0.51328 -0.09100
C 	C 	0.51115 0.45222 0.51977 -0.12100
C 	C 	0.43102 0.39783 0.50076 0.33200
C 	C 	0.39053 0.43961 0.47575 -0.07900
C 	C 	0.43006 0.53560 0.46927 -0.13800
C 	C 	0.50999 0.58990 0.48832 0.34000
F 	F 	0.54787 0.68336 0.48302 -0.48800
H 	H 	0.61125 0.59118 0.52831 0.10200
H 	H 	0.32940 0.39707 0.46083 0.09300
F 	F 	0.39296 0.30445 0.50621 -0.46100
C 	C 	0.88428 0.18381 0.69137 -0.09000
C 	C 	0.95176 0.23681 0.71757 0.00300
C 	C 	0.01045 0.20089 0.73224 -0.00600
C 	C 	0.99767 0.10776 0.72294 0.02200
C 	C 	0.93473 0.05802 0.69406 -0.07800
C 	C 	0.87665 0.09434 0.67900 0.06100
S 	S 	0.10489 0.27692 0.75727 -0.03000
S 	S 	0.79683 0.02839 0.64368 -0.02500
H 	H 	0.82919 0.05108 0.60699 0.04800
H 	H 	0.08605 0.29000 0.79516 0.04300
H 	H 	0.96030 0.30746 0.72563 0.02600
H 	H 	0.93151 0.99174 0.68296 0.05800
C 	C 	0.25966 0.07078 0.72884 0.02200
C 	C 	0.28173 0.16197 0.71613 -0.07500
C 	C 	0.36671 0.21575 0.70464 0.05700
C 	C 	0.42697 0.17358 0.69947 -0.09200
C 	C 	0.40385 0.08080 0.71087 0.00300
C 	C 	0.32090 0.02941 0.72558 -0.00400
S 	S 	0.39884 0.33709 0.70036 -0.04300
S 	S 	0.29239 0.91134 0.73647 -0.02100
H 	H 	0.33439 0.90479 0.77038 0.03900
H 	H 	0.38000 0.35613 0.66313 0.05300
H 	H 	0.23398 0.19294 0.71722 0.05800
H 	H 	0.44902 0.04723 0.70685 0.05700
C 	C 	0.96984 0.83753 0.69997 0.01900
C 	C 	0.87949 0.81364 0.70144 -0.07500
C 	C 	0.82194 0.73889 0.67863 0.06000
C 	C 	0.85496 0.68793 0.65425 -0.08700
C 	C 	0.94451 0.72427 0.64684 -0.00100
C 	C 	0.00256 0.79795 0.67015 -0.00900
S 	S 	0.70871 0.70610 0.68248 -0.04600
S 	S 	0.11531 0.83814 0.66221 0.00100
H 	H 	0.14785 0.77932 0.67916 0.04700
H 	H 	0.68092 0.75335 0.65563 0.05100
H 	H 	0.85414 0.85142 0.72112 0.05200
H 	H 	0.96974 0.68879 0.62594 0.06500
C 	C 	0.02959 0.55481 0.96517 -0.09300
C 	C 	0.95582 0.57402 0.95689 -0.14900
C 	C 	0.90894 0.59078 0.98789 0.32600
C 	C 	0.93439 0.58544 0.02653 -0.08000
C 	C 	0.00652 0.56348 0.03468 -0.15200
C 	C 	0.05460 0.54896 0.00383 0.33700
F 	F 	0.12681 0.53141 0.01136 -0.50200
H 	H 	0.06659 0.54264 0.94154 0.09800
H 	H 	0.89786 0.59819 0.05023 0.09700
F 	F 	0.83699 0.60894 0.98060 -0.51100
C 	C 	0.58025 0.02086 0.00247 -0.07900
C 	C 	0.57405 0.10538 0.99293 -0.13100
C 	C 	0.51571 0.13374 0.01327 0.34400
C 	C 	0.46284 0.07703 0.04192 -0.08600
C 	C 	0.46661 0.99087 0.05022 -0.12800
C 	C 	0.52660 0.96370 0.03079 0.33900
F 	F 	0.53360 0.88241 0.03958 -0.42500
H 	H 	0.62533 0.99843 0.98727 0.09700
H 	H 	0.41751 0.09919 0.05706 0.10200
F 	F 	0.50689 0.21369 0.00393 -0.41100
C 	C 	0.48490 0.55747 0.96999 -0.09100
C 	C 	0.51943 0.49284 0.98168 -0.11700
C 	C 	0.50846 0.46122 0.02037 0.34400
C 	C 	0.46208 0.49265 0.04667 -0.08700
C 	C 	0.42804 0.55748 0.03497 -0.11700
C 	C 	0.43980 0.58997 0.99653 0.34200
F 	F 	0.40665 0.65229 0.98477 -0.42700
H 	H 	0.49239 0.58203 0.94026 0.09900
H 	H 	0.45452 0.46835 0.07644 0.09800
F 	F 	0.54512 0.40251 0.03284 -0.41000
C 	C 	0.89483 0.17940 0.84099 -0.09900
C 	C 	0.97267 0.18231 0.85805 0.00600
C 	C 	0.01184 0.12442 0.84366 -0.01200
C 	C 	0.97733 0.07005 0.80912 0.02200
C 	C 	0.89313 0.05699 0.79580 -0.07400
C 	C 	0.85363 0.11463 0.81023 0.05600
S 	S 	0.08978 0.10568 0.87369 -0.02200
S 	S 	0.75439 0.10755 0.78870 -0.07900
H 	H 	0.68613 0.04554 0.80868 0.00500
H 	H 	0.15961 0.18822 0.88134 0.04400
H 	H 	0.00026 0.22598 0.88395 0.04200
H 	H 	0.86118 0.00666 0.77237 0.05500
C 	C 	0.23410 0.03671 0.81400 0.02100
C 	C 	0.26145 0.97271 0.83219 -0.07400
C 	C 	0.33785 0.00462 0.85557 0.05900
C 	C 	0.38424 0.10119 0.86242 -0.08800
C 	C 	0.34946 0.16343 0.84917 0.00000
C 	C 	0.27705 0.13282 0.82386 -0.00700
S 	S 	0.37381 0.92353 0.87670 -0.02700
S 	S 	0.24180 0.21582 0.80502 -0.03400
H 	H 	0.30632 0.27841 0.78350 0.03900
H 	H 	0.33993 0.90237 0.91322 0.05800
H 	H 	0.22551 0.89849 0.82678 0.05800
H 	H 	0.38336 0.23744 0.85593 0.03600
C 	C 	0.83443 0.61723 0.81206 -0.08900
C 	C 	0.91925 0.62757 0.80189 -0.00200
C 	C 	0.97890 0.71230 0.78762 -0.00500
C 	C 	0.95513 0.78907 0.78428 0.02000
C 	C 	0.87122 0.77958 0.79490 -0.07100
C 	C 	0.80911 0.69290 0.80612 0.05300
S 	S 	0.08379 0.72177 0.77497 -0.03100
S 	S 	0.69884 0.67773 0.80783 -0.03800
H 	H 	0.65911 0.64643 0.77194 0.04300
H 	H 	0.08065 0.68955 0.73722 0.03700
H 	H 	0.93962 0.57032 0.80579 0.04900
H 	H 	0.85280 0.83859 0.79263 0.05200
