data_crystal

_cell_length_a 15.48922
_cell_length_b 14.91130
_cell_length_c 33.16908
_cell_angle_alpha 95.40282
_cell_angle_beta  95.40355
_cell_angle_gamma 126.68469

_symmetry_space_group_name_	'P 1'
_symmetry_space_group_name_H-M	'P 1'

loop_
_symmetry_equiv_pos_as_xyz
  x,y,z

loop_
_atom_site_label
_atom_site_type_symbol
_atom_site_fract_x
_atom_site_fract_y
_atom_site_fract_z
_atom_site_charge
C 	C 	0.87907 0.01958 0.96166 0.10200
N 	N 	0.98972 0.09368 0.96540 -0.14300
C 	C 	0.04928 0.05463 0.96418 0.11700
N 	N 	0.99794 0.94103 0.95797 -0.13100
C 	C 	0.88785 0.86672 0.95472 0.12700
N 	N 	0.82817 0.90589 0.95693 -0.12700
C 	C 	0.98753 0.07479 0.49239 0.09400
N 	N 	0.09725 0.13571 0.49400 -0.13200
C 	C 	0.14393 0.08241 0.49258 0.10500
N 	N 	0.08016 0.96741 0.48866 -0.12100
C 	C 	0.97074 0.90598 0.48730 0.11700
N 	N 	0.92408 0.95957 0.48904 -0.12400
Cu	Cu	0.74083 0.36512 0.95218 0.92900
Cu	Cu	0.77221 0.29506 0.04028 0.86900
Cu	Cu	0.57763 0.28435 0.01099 0.89600
Cu	Cu	0.52084 0.33364 0.93062 0.89600
C 	C 	0.63047 0.30259 0.86857 0.25200
O 	O 	0.78913 0.52516 0.95166 -0.35900
C 	C 	0.67328 0.33570 0.09963 0.25500
O 	O 	0.57159 0.25800 0.95293 -0.63700
O 	O 	0.73931 0.38154 0.01195 -0.64400
O 	O 	0.83214 0.31192 0.95213 -0.37300
O 	O 	0.74041 0.18689 0.99438 -0.43800
O 	O 	0.58361 0.34917 0.87955 -0.37300
O 	O 	0.41991 0.18331 0.00542 -0.39100
C 	C 	0.35163 0.18516 0.97915 0.31500
C 	C 	0.73780 0.56025 0.96817 0.29600
O 	O 	0.64024 0.48621 0.97613 -0.38900
O 	O 	0.38715 0.26266 0.95545 -0.39700
O 	O 	0.71462 0.32315 0.89340 -0.33600
C 	C 	0.80199 0.21954 0.96616 0.30600
O 	O 	0.58418 0.28411 0.07085 -0.36700
O 	O 	0.76627 0.36352 0.09033 -0.41000
H 	H 	0.52925 0.17670 0.94014 0.16400
H 	H 	0.77899 0.46078 0.02671 0.17300
Cu	Cu	0.63997 0.19736 0.51831 0.92700
Cu	Cu	0.72075 0.19710 0.43012 0.87200
Cu	Cu	0.70407 0.37917 0.46575 0.89800
Cu	Cu	0.64040 0.40626 0.54777 0.89700
C 	C 	0.63026 0.25012 0.60143 0.25800
O 	O 	0.47875 0.12092 0.51630 -0.37300
C 	C 	0.66871 0.30193 0.37589 0.25600
O 	O 	0.72615 0.37430 0.52300 -0.63700
O 	O 	0.62706 0.21122 0.45981 -0.64200
O 	O 	0.70629 0.11611 0.51710 -0.37400
O 	O 	0.82282 0.22482 0.47561 -0.44000
O 	O 	0.64293 0.34542 0.59899 -0.36100
O 	O 	0.78458 0.54294 0.47597 -0.38000
C 	C 	0.76801 0.60004 0.50297 0.30300
C 	C 	0.43385 0.16901 0.50564 0.30200
O 	O 	0.49571 0.27609 0.50170 -0.39100
O 	O 	0.69165 0.54769 0.52564 -0.39100
O 	O 	0.66987 0.21415 0.57670 -0.35600
C 	C 	0.79211 0.15065 0.50013 0.30300
O 	O 	0.71179 0.38813 0.40689 -0.36700
O 	O 	0.65256 0.20709 0.38167 -0.40900
H 	H 	0.80427 0.42329 0.53662 0.16800
H 	H 	0.55055 0.16534 0.44462 0.17100
C 	C 	0.60831 0.17149 0.76922 0.11200
C 	C 	0.65536 0.16550 0.73593 -0.08400
C 	C 	0.60202 0.14721 0.69594 0.00600
C 	C 	0.51653 0.15358 0.68955 0.11900
C 	C 	0.47464 0.16802 0.72309 -0.09000
C 	C 	0.51671 0.16776 0.76238 0.01300
O 	O 	0.66802 0.22088 0.80931 -0.18500
C 	C 	0.60473 0.24847 0.82534 0.04600
C 	C 	0.51456 0.21686 0.79786 -0.06600
O 	O 	0.50576 0.18563 0.65256 -0.19400
C 	C 	0.59273 0.19784 0.63750 0.04700
C 	C 	0.65094 0.17588 0.66305 -0.05400
H 	H 	0.73401 0.18166 0.74117 0.06600
H 	H 	0.41676 0.18637 0.71907 0.06700
H 	H 	0.47141 0.25285 0.80072 0.05400
H 	H 	0.73537 0.20993 0.66302 0.05700
C 	C 	0.62586 0.26621 0.19653 0.11300
C 	C 	0.56802 0.21039 0.22717 -0.08900
C 	C 	0.62499 0.25565 0.26810 0.00500
C 	C 	0.72613 0.36014 0.27889 0.11500
C 	C 	0.77953 0.42151 0.24844 -0.08900
C 	C 	0.73044 0.36678 0.20717 0.00600
O 	O 	0.57592 0.24406 0.15604 -0.19300
C 	C 	0.66245 0.34036 0.14311 0.03900
C 	C 	0.75245 0.41690 0.17424 -0.05900
O 	O 	0.75436 0.40874 0.32032 -0.19300
C 	C 	0.66080 0.32088 0.33357 0.04000
C 	C 	0.58070 0.23238 0.30195 -0.05800
H 	H 	0.48220 0.13726 0.21956 0.06200
H 	H 	0.85406 0.50843 0.25652 0.06500
H 	H 	0.83373 0.48517 0.16983 0.05100
H 	H 	0.51274 0.14837 0.30583 0.04800
C 	C 	0.90275 0.78098 0.48146 -0.01900
C 	C 	0.82500 0.72295 0.50400 -0.12300
H 	H 	0.92444 0.73758 0.46174 0.05700
H 	H 	0.80626 0.76752 0.52476 0.08100
C 	C 	0.93683 0.13270 0.48965 -0.01900
C 	C 	0.84605 0.09626 0.50511 -0.14100
H 	H 	0.97664 0.20863 0.47602 0.04200
H 	H 	0.81025 0.02468 0.52108 0.07800
C 	C 	0.31354 0.10050 0.49641 -0.13300
C 	C 	0.26416 0.15030 0.49658 -0.01800
H 	H 	0.26492 0.00841 0.49205 0.07800
H 	H 	0.31324 0.24253 0.50127 0.04800
C 	C 	0.78613 0.68153 0.97525 -0.11500
C 	C 	0.83339 0.74418 0.94662 -0.02500
H 	H 	0.77731 0.71838 0.00293 0.06600
H 	H 	0.84085 0.70689 0.91867 0.05700
C 	C 	0.81522 0.06287 0.96511 -0.01900
C 	C 	0.85172 0.16395 0.95507 -0.13700
H 	H 	0.73935 0.01328 0.97684 0.04300
H 	H 	0.92191 0.20827 0.93983 0.08300
C 	C 	0.16833 0.13517 0.96692 -0.02000
C 	C 	0.23416 0.10926 0.98042 -0.13000
H 	H 	0.20293 0.21738 0.95829 0.05400
H 	H 	0.20101 0.03162 0.99253 0.08000
