data_crystal

_cell_length_a 20.00672
_cell_length_b 16.77417
_cell_length_c 41.72542
_cell_angle_alpha 88.37018
_cell_angle_beta  88.49829
_cell_angle_gamma 107.78646

_symmetry_space_group_name_	'P 1'
_symmetry_space_group_name_H-M	'P 1'

loop_
_symmetry_equiv_pos_as_xyz
  x,y,z

loop_
_atom_site_label
_atom_site_type_symbol
_atom_site_fract_x
_atom_site_fract_y
_atom_site_fract_z
_atom_site_charge
Zn	Zn	0.03182 0.98945 0.80324 1.20300
O 	O 	0.04195 0.99285 0.75589 -0.78200
O 	O 	0.02906 0.18058 0.77436 -0.39600
O 	O 	0.05477 0.10804 0.16745 -0.44500
C 	C 	0.00238 0.17332 0.30295 0.36500
C 	C 	0.01733 0.31524 0.17754 -0.00900
C 	C 	0.04877 0.41397 0.13179 0.03600
H 	H 	0.03992 0.43056 0.10733 0.04000
C 	C 	0.03778 0.32936 0.30325 0.22100
H 	H 	0.06678 0.46190 0.30973 0.09300
H 	H 	0.03952 0.60037 0.96204 0.06100
O 	O 	0.02297 0.12560 0.28285 -0.41000
C 	C 	0.05021 0.78507 0.29783 0.05800
C 	C 	0.02092 0.51435 0.45359 -0.09400
C 	C 	0.03996 0.65420 0.02040 0.08500
C 	C 	0.00578 0.33848 0.14612 -0.02800
H 	H 	0.07613 0.96619 0.74726 0.20200
Zn	Zn	0.06974 0.11344 0.74527 1.23100
C 	C 	0.03852 0.84058 0.35018 0.22900
H 	H 	0.07591 0.75328 0.28165 0.02600
C 	C 	0.08078 0.53942 0.43166 0.32000
C 	C 	0.08847 0.66110 0.03770 -0.12100
C 	C 	0.05158 0.25387 0.31135 -0.14700
C 	C 	0.07824 0.40430 0.31579 -0.08800
C 	C 	0.07268 0.79928 0.32937 -0.14000
O 	O 	0.10962 0.08387 0.81858 -0.45100
O 	O 	0.09715 0.07306 0.66996 -0.42900
O 	O 	0.12009 0.49006 0.42816 -0.45500
O 	O 	0.09568 0.61126 0.41527 -0.37900
O 	O 	0.08845 0.13210 0.21939 -0.33800
C 	C 	0.09786 0.10487 0.19054 0.31100
C 	C 	0.10454 0.46655 0.14853 -0.13600
C 	C 	0.11453 0.44464 0.18050 0.21400
C 	C 	0.07065 0.36999 0.19489 -0.08400
H 	H 	0.08006 0.35292 0.21922 0.10700
Cl	Cl	0.06693 0.86377 0.38944 -0.31000
C 	C 	0.14633 0.13119 0.68436 0.27600
O 	O 	0.12980 0.17185 0.70838 -0.42600
C 	C 	0.13563 0.77783 0.33922 0.34900
O 	O 	0.13008 0.53797 0.35743 -0.42600
O 	O 	0.13434 0.73947 0.36739 -0.40900
O 	O 	0.15373 0.69689 0.08513 -0.38100
C 	C 	0.14785 0.66311 0.05643 0.33700
C 	C 	0.14685 0.05554 0.18558 -0.12500
C 	C 	0.14845 0.99159 0.20813 0.17400
Cl	Cl	0.12354 0.99439 0.24883 -0.35300
C 	C 	0.13068 0.40441 0.33748 -0.01900
C 	C 	0.10861 0.25540 0.33037 0.04700
O 	O 	0.16411 0.13997 0.77075 -0.38200
C 	C 	0.16739 0.11790 0.80096 0.34200
Zn	Zn	0.17329 0.64638 0.37672 1.22500
C 	C 	0.16100 0.47887 0.35651 0.28200
O 	O 	0.17740 0.61147 0.14405 -0.42000
O 	O 	0.17540 0.52845 0.10142 -0.40100
C 	C 	0.15670 0.53778 0.13115 0.35600
Cl	Cl	0.18480 0.50672 0.20222 -0.34700
C 	C 	0.17182 0.92523 0.19837 -0.08200
C 	C 	0.19667 0.92342 0.16673 -0.03900
C 	C 	0.20039 0.99010 0.14511 -0.04900
C 	C 	0.17678 0.05641 0.15463 0.03500
H 	H 	0.17177 0.87562 0.21562 0.07500
H 	H 	0.17791 0.10624 0.13731 0.03700
C 	C 	0.14779 0.33023 0.34359 -0.04000
H 	H 	0.12037 0.19789 0.33625 0.04700
O 	O 	0.19565 0.81407 0.32320 -0.44200
O 	O 	0.19269 0.62586 0.04527 -0.46200
O 	O 	0.21627 0.82045 0.13108 -0.41900
H 	H 	0.22237 0.99116 0.12103 0.05200
H 	H 	0.19503 0.13844 0.62264 0.05000
H 	H 	0.21290 0.20768 0.85312 0.03800
Zn	Zn	0.22380 0.53295 0.42232 1.19600
C 	C 	0.23034 0.85995 0.15830 0.30800
C 	C 	0.22024 0.15375 0.67259 -0.01600
C 	C 	0.23638 0.13409 0.81528 -0.14100
O 	O 	0.21518 0.48281 0.37447 -0.40600
Zn	Zn	0.23551 0.71330 0.12032 1.22600
H 	H 	0.25131 0.69157 0.42302 0.18200
H 	H 	0.18935 0.32967 0.35963 0.06000
C 	C 	0.25276 0.18556 0.84163 0.03900
C 	C 	0.23657 0.15673 0.63961 -0.03900
O 	O 	0.24931 0.65150 0.40585 -0.78900
Cl	Cl	0.26796 0.03280 0.76987 -0.33600
H 	H 	0.26272 0.17472 0.71983 0.10800
O 	O 	0.27443 0.84375 0.17826 -0.46700
C 	C 	0.27482 0.17762 0.69429 -0.08600
Zn	Zn	0.26460 0.59864 0.06989 1.20200
H 	H 	0.25693 0.63387 0.32603 0.18500
O 	O 	0.25910 0.67361 0.34335 -0.79400
C 	C 	0.28845 0.10445 0.80092 0.20900
O 	O 	0.29544 0.84216 0.37609 -0.40400
Zn	Zn	0.28835 0.79249 0.32795 1.19600
C 	C 	0.30650 0.18666 0.62830 0.03800
C 	C 	0.32143 0.21207 0.85224 -0.03500
O 	O 	0.30399 0.70744 0.08809 -0.80500
H 	H 	0.30958 0.75211 0.07130 0.17700
H 	H 	0.31827 0.19084 0.60270 0.03000
H 	H 	0.33389 0.25380 0.87207 0.05700
O 	O 	0.31691 0.51268 0.42632 -0.45200
H 	H 	0.31815 0.66385 0.16392 0.19900
O 	O 	0.32388 0.71112 0.14825 -0.78400
O 	O 	0.31570 0.53445 0.09469 -0.46400
Zn	Zn	0.33472 0.67731 0.37226 1.22500
C 	C 	0.34505 0.20667 0.68306 0.21900
C 	C 	0.34649 0.84123 0.39533 0.31600
C 	C 	0.35725 0.13129 0.81159 -0.08000
C 	C 	0.36250 0.89777 0.42121 -0.10300
C 	C 	0.36102 0.21298 0.64984 -0.13700
Zn	Zn	0.36316 0.82378 0.16520 1.19700
H 	H 	0.35847 0.39284 0.99996 0.04700
O 	O 	0.36574 0.88987 0.11857 -0.42000
C 	C 	0.37442 0.18714 0.83662 -0.02300
O 	O 	0.37155 0.58458 0.38095 -0.43700
C 	C 	0.37655 0.94470 0.44312 0.04600
C 	C 	0.37439 0.55695 0.41035 0.33900
O 	O 	0.37942 0.78468 0.39257 -0.43800
H 	H 	0.38765 0.06300 0.46644 0.04300
C 	C 	0.38373 0.55117 0.09023 0.32900
O 	O 	0.39338 0.83576 0.32251 -0.45000
C 	C 	0.39387 0.00105 0.46922 -0.00800
Zn	Zn	0.39435 0.71731 0.11408 1.22300
H 	H 	0.39765 0.11075 0.79975 0.08800
O 	O 	0.98222 0.21754 0.22256 -0.41800
Zn	Zn	0.98408 0.11056 0.24016 1.22900
C 	C 	0.99670 0.81504 0.28661 -0.04600
C 	C 	0.98412 0.86890 0.33898 -0.09600
H 	H 	0.95902 0.90196 0.35491 0.09400
Zn	Zn	0.99279 0.05846 0.67396 1.19900
H 	H 	0.94950 0.16793 0.85708 0.03300
Zn	Zn	0.55346 0.35405 0.88222 1.22500
Zn	Zn	0.67351 0.52279 0.91292 1.19600
C 	C 	0.75157 0.25363 0.84518 0.29100
Zn	Zn	0.71627 0.39164 0.87512 1.22300
Zn	Zn	0.59655 0.22812 0.84309 1.19700
H 	H 	0.64961 0.36711 0.92815 0.17600
C 	C 	0.72444 0.54849 0.84227 0.28600
O 	O 	0.49158 0.18041 0.84571 -0.44100
O 	O 	0.46964 0.30508 0.85155 -0.39200
O 	O 	0.64643 0.39851 0.90810 -0.78300
O 	O 	0.58221 0.54662 0.91682 -0.44900
O 	O 	0.51820 0.25486 0.91167 -0.43900
O 	O 	0.51224 0.44402 0.88791 -0.43200
O 	O 	0.60042 0.19476 0.89414 -0.40900
O 	O 	0.77741 0.56645 0.91025 -0.46300
H 	H 	0.62034 0.38359 0.82947 0.18900
O 	O 	0.80102 0.44216 0.90619 -0.39700
O 	O 	0.62343 0.35071 0.84915 -0.79100
O 	O 	0.69038 0.20987 0.83424 -0.42900
O 	O 	0.75464 0.48904 0.84504 -0.42600
O 	O 	0.75446 0.29651 0.87132 -0.42500
O 	O 	0.67129 0.54732 0.86170 -0.41000
C 	C 	0.44829 0.22589 0.84445 0.29200
C 	C 	0.52317 0.48632 0.91414 0.34100
C 	C 	0.55303 0.20058 0.91585 0.32100
C 	C 	0.81751 0.51916 0.91620 0.33000
Zn	Zn	0.63768 0.44863 0.60813 1.22300
Zn	Zn	0.49216 0.32937 0.57057 1.19500
C 	C 	0.66564 0.18374 0.65560 0.30700
Zn	Zn	0.57248 0.25187 0.61669 1.22300
Zn	Zn	0.69955 0.36728 0.66004 1.20000
H 	H 	0.61830 0.32864 0.56458 0.17300
C 	C 	0.43347 0.25206 0.63722 0.34900
O 	O 	0.76655 0.48278 0.65673 -0.44800
O 	O 	0.68800 0.54654 0.63905 -0.39000
O 	O 	0.58981 0.33981 0.58267 -0.78800
O 	O 	0.49053 0.44677 0.57074 -0.44900
O 	O 	0.72952 0.45850 0.58737 -0.44300
O 	O 	0.59289 0.52873 0.59035 -0.41800
O 	O 	0.74322 0.34317 0.61372 -0.41200
O 	O 	0.44461 0.20774 0.56693 -0.46600
H 	H 	0.57363 0.37524 0.65920 0.20300
O 	O 	0.53310 0.15669 0.58265 -0.38900
O 	O 	0.60679 0.36340 0.64338 -0.78500
O 	O 	0.68046 0.24793 0.67443 -0.44800
O 	O 	0.48039 0.21237 0.64030 -0.41600
O 	O 	0.63970 0.18893 0.62713 -0.42000
O 	O 	0.44818 0.32096 0.61916 -0.41500
C 	C 	0.74820 0.55081 0.65182 0.35100
C 	C 	0.54845 0.50989 0.56707 0.31900
C 	C 	0.75971 0.39924 0.58963 0.32300
C 	C 	0.47869 0.15219 0.56483 0.33300
Zn	Zn	0.94057 0.95876 0.73652 1.23000
C 	C 	0.97588 0.14523 0.79482 0.32200
O 	O 	0.89364 0.03064 0.66353 -0.43800
O 	O 	0.84773 0.94328 0.70815 -0.35800
O 	O 	0.94821 0.88823 0.81212 -0.43700
O 	O 	0.96327 0.86904 0.71585 -0.43100
O 	O 	0.87892 0.92156 0.77446 -0.42500
O 	O 	0.97542 0.92327 0.66510 -0.38900
H 	H 	0.94441 0.10182 0.72458 0.21700
O 	O 	0.97840 0.07089 0.72045 -0.81000
O 	O 	0.96100 0.06571 0.80405 -0.40100
C 	C 	0.84075 0.99375 0.68407 0.30800
C 	C 	0.89107 0.86766 0.79520 0.35100
C 	C 	0.95127 0.85906 0.68558 0.30300
O 	O 	0.41130 0.71061 0.33435 -0.39600
C 	C 	0.43467 0.78774 0.32257 0.28700
C 	C 	0.41124 0.88944 0.09508 0.33100
O 	O 	0.46716 0.86229 0.16274 -0.45900
O 	O 	0.47990 0.73978 0.14558 -0.39500
O 	O 	0.43957 0.82841 0.09352 -0.44400
O 	O 	0.42637 0.62507 0.09716 -0.43500
C 	C 	0.50692 0.81421 0.15738 0.29300
Zn	Zn	0.85772 0.05855 0.29754 1.20300
C 	C 	0.80208 0.94304 0.17429 0.33100
Zn	Zn	0.85304 0.95503 0.23809 1.22200
Zn	Zn	0.95408 0.04539 0.17218 1.19600
H 	H 	0.84532 0.10270 0.23887 0.18700
C 	C 	0.92131 0.90819 0.29342 0.29000
O 	O 	0.87368 0.07255 0.25030 -0.78100
O 	O 	0.93585 0.15455 0.31265 -0.43700
O 	O 	0.94081 0.17114 0.17430 -0.39200
O 	O 	0.77500 0.95817 0.30734 -0.44300
H 	H 	0.98298 0.97122 0.22162 0.18300
O 	O 	0.74727 0.91805 0.25623 -0.40500
O 	O 	0.95263 0.00723 0.21807 -0.79100
O 	O 	0.85100 0.00857 0.16109 -0.43000
O 	O 	0.88122 0.88014 0.26902 -0.41800
O 	O 	0.81564 0.90077 0.19884 -0.44100
O 	O 	0.92684 0.98228 0.30475 -0.39900
C 	C 	0.97802 0.23158 0.19196 0.28800
C 	C 	0.72813 0.92349 0.28622 0.34300
H 	H 	0.96433 0.29780 0.13258 0.04600
C 	C 	0.72943 0.92282 0.16431 -0.13500
C 	C 	0.70265 0.85691 0.14347 0.20800
C 	C 	0.62992 0.82032 0.14160 -0.08200
C 	C 	0.58355 0.84913 0.16051 -0.02900
C 	C 	0.61057 0.91685 0.18036 -0.03000
C 	C 	0.68293 0.95413 0.18186 0.02000
H 	H 	0.60965 0.76990 0.12540 0.09000
H 	H 	0.70302 0.00427 0.19822 0.02900
Cl	Cl	0.75979 0.81834 0.12016 -0.34300
H 	H 	0.57548 0.94001 0.19499 0.04200
C 	C 	0.65345 0.88961 0.29623 -0.14200
C 	C 	0.63138 0.82993 0.32186 0.20900
C 	C 	0.55993 0.79776 0.33059 -0.08400
C 	C 	0.50993 0.82386 0.31371 -0.02700
C 	C 	0.53199 0.88312 0.28818 -0.04100
C 	C 	0.60334 0.91554 0.27940 0.03000
H 	H 	0.54327 0.75223 0.35045 0.09000
H 	H 	0.61976 0.96094 0.25949 0.01900
Cl	Cl	0.69209 0.79168 0.34220 -0.31700
H 	H 	0.49387 0.90326 0.27486 0.03700
Cl	Cl	0.96798 0.33058 0.27856 -0.35500
C 	C 	0.96508 0.85963 0.30682 -0.00500
H 	H 	0.98255 0.80742 0.26174 0.05600
C 	C 	0.45790 0.08811 0.54180 -0.13600
C 	C 	0.44022 0.03698 0.52145 0.10100
C 	C 	0.41907 0.97834 0.49625 -0.10100
H 	H 	0.42535 0.91644 0.49911 0.06100
C 	C 	0.97146 0.49327 0.47248 0.05400
C 	C 	0.91274 0.46952 0.49533 -0.04600
C 	C 	0.91172 0.41745 0.52044 -0.05900
C 	C 	0.85846 0.40483 0.54570 0.07100
C 	C 	0.81357 0.39895 0.56629 -0.11900
H 	H 	0.95324 0.38866 0.52296 0.04900
H 	H 	0.87105 0.49810 0.49291 0.05200
C 	C 	0.44063 0.57485 0.42526 -0.13900
C 	C 	0.49454 0.59030 0.43934 0.08100
C 	C 	0.55541 0.60623 0.45858 -0.05600
C 	C 	0.55728 0.64897 0.48523 -0.05600
C 	C 	0.55991 0.60752 0.51553 0.07300
C 	C 	0.55681 0.56616 0.53985 -0.13500
H 	H 	0.53554 0.70096 0.48512 0.05200
H 	H 	0.58673 0.56368 0.45684 0.05100
C 	C 	0.77303 0.00956 0.67978 -0.11500
C 	C 	0.74414 0.04595 0.70448 0.19900
C 	C 	0.70173 0.09592 0.69679 -0.07600
C 	C 	0.68851 0.11051 0.66459 -0.02900
C 	C 	0.70776 0.06334 0.64082 -0.03500
C 	C 	0.74903 0.01207 0.64852 0.04400
H 	H 	0.68290 0.12766 0.71564 0.08500
H 	H 	0.76813 0.98097 0.62955 0.02800
Cl	Cl	0.76586 0.03620 0.74477 -0.31700
H 	H 	0.69513 0.07078 0.61605 0.06300
Cl	Cl	0.41218 0.23737 0.71081 -0.33100
C 	C 	0.79675 0.63256 0.65962 -0.13500
C 	C 	0.79382 0.66427 0.69026 0.21200
C 	C 	0.84362 0.73894 0.69825 -0.07500
C 	C 	0.89748 0.78221 0.67602 -0.02600
C 	C 	0.89955 0.75145 0.64522 -0.03400
C 	C 	0.84939 0.67677 0.63707 0.03700
H 	H 	0.84044 0.76335 0.72182 0.09200
H 	H 	0.85209 0.65259 0.61343 0.03500
Cl	Cl	0.72868 0.61026 0.71913 -0.34100
H 	H 	0.94049 0.78436 0.62781 0.05300
C 	C 	0.98365 0.64064 0.99842 -0.06300
C 	C 	0.98997 0.60897 0.96981 -0.06600
C 	C 	0.92973 0.57829 0.95038 0.07600
C 	C 	0.87896 0.55138 0.93445 -0.12700
H 	H 	0.93426 0.64947 0.00629 0.05100
C 	C 	0.53926 0.14765 0.94450 -0.11400
C 	C 	0.52601 0.10383 0.96874 0.06900
C 	C 	0.50942 0.05101 0.99763 -0.04700
C 	C 	0.46199 0.05963 0.01949 -0.06600
C 	C 	0.44208 0.00250 0.04714 0.09700
C 	C 	0.42673 0.95253 0.06959 -0.14700
H 	H 	0.43677 0.10805 0.01614 0.05500
H 	H 	0.53458 0.00255 0.00106 0.05300
C 	C 	0.40920 0.49944 0.06964 -0.14300
C 	C 	0.42910 0.45923 0.05027 0.07300
C 	C 	0.45204 0.41720 0.02470 -0.05700
C 	C 	0.41465 0.40203 0.99825 -0.06700
C 	C 	0.45013 0.42604 0.96750 0.08300
C 	C 	0.48206 0.45172 0.94259 -0.17000
H 	H 	0.50676 0.41871 0.02361 0.04500
C 	C 	0.93144 0.19403 0.80757 -0.12300
C 	C 	0.89056 0.22669 0.78693 0.21300
C 	C 	0.83219 0.24693 0.79940 -0.07800
C 	C 	0.81602 0.23847 0.83249 -0.02700
C 	C 	0.86061 0.21373 0.85326 -0.03000
C 	C 	0.91784 0.19146 0.84087 0.03300
H 	H 	0.79939 0.26901 0.78332 0.07600
Cl	Cl	0.91205 0.24376 0.74563 -0.35500
H 	H 	0.84938 0.20846 0.87891 0.05700
C 	C 	0.84154 0.78296 0.79911 -0.14600
C 	C 	0.86458 0.71260 0.79446 0.21100
C 	C 	0.82262 0.63331 0.80564 -0.07900
C 	C 	0.75789 0.62396 0.82164 -0.01800
C 	C 	0.73115 0.69237 0.82207 -0.03800
C 	C 	0.77309 0.77168 0.81101 0.04700
H 	H 	0.84186 0.57993 0.80322 0.09400
H 	H 	0.75385 0.82507 0.81342 0.04400
Cl	Cl	0.94622 0.72316 0.77501 -0.34400
H 	H 	0.67956 0.68522 0.83268 0.06200
