data_crystal

_cell_length_a 22.52290
_cell_length_b 22.65799
_cell_length_c 23.37000
_cell_angle_alpha 95.47010
_cell_angle_beta  95.47085
_cell_angle_gamma 126.00868

_symmetry_space_group_name_	'P 1'
_symmetry_space_group_name_H-M	'P 1'

loop_
_symmetry_equiv_pos_as_xyz
  x,y,z

loop_
_atom_site_label
_atom_site_type_symbol
_atom_site_fract_x
_atom_site_fract_y
_atom_site_fract_z
_atom_site_charge
C 	C 	0.97612 0.04616 0.00805 0.10200
N 	N 	0.05048 0.08000 0.01141 -0.13400
C 	C 	0.07658 0.03907 0.01121 0.10800
N 	N 	0.99473 0.04023 0.43989 -0.14600
C 	C 	0.03739 0.01650 0.44858 0.11300
Cu	Cu	0.63287 0.23292 0.00809 0.92900
Cu	Cu	0.69925 0.22747 0.89042 0.86600
Cu	Cu	0.67629 0.34117 0.92333 0.89400
Cu	Cu	0.63347 0.37195 0.03291 0.89600
C 	C 	0.64810 0.29724 0.12588 0.28200
O 	O 	0.52339 0.18982 0.00215 -0.35500
C 	C 	0.66975 0.28799 0.80057 0.27700
O 	O 	0.69395 0.34715 0.00641 -0.63700
O 	O 	0.62642 0.23325 0.92292 -0.64300
O 	O 	0.67834 0.17959 0.01438 -0.36100
O 	O 	0.76455 0.25187 0.96078 -0.44000
O 	O 	0.61564 0.32534 0.10385 -0.38000
O 	O 	0.73169 0.44738 0.92861 -0.38200
C 	C 	0.72974 0.49206 0.96777 0.27600
C 	C 	0.49530 0.21970 0.97624 0.27300
O 	O 	0.54046 0.28656 0.96471 -0.39400
O 	O 	0.67896 0.46569 0.00162 -0.38500
O 	O 	0.65466 0.25187 0.09218 -0.35500
C 	C 	0.74198 0.20531 0.99718 0.26400
O 	O 	0.66763 0.33428 0.83776 -0.37300
O 	O 	0.65947 0.22827 0.81500 -0.41900
H 	H 	0.74724 0.38067 0.02572 0.16500
H 	H 	0.57544 0.20015 0.89889 0.17400
Cu	Cu	0.73495 0.33613 0.42024 0.92700
Cu	Cu	0.74906 0.27949 0.54130 0.86700
Cu	Cu	0.63058 0.29689 0.50844 0.89600
Cu	Cu	0.59225 0.33117 0.39688 0.89400
C 	C 	0.66482 0.31420 0.30236 0.28300
O 	O 	0.77620 0.44407 0.42212 -0.35800
C 	C 	0.69065 0.31119 0.63139 0.27800
O 	O 	0.62084 0.27465 0.42523 -0.64000
O 	O 	0.73882 0.34781 0.50604 -0.63900
O 	O 	0.78887 0.29094 0.41451 -0.37000
O 	O 	0.72056 0.21025 0.47284 -0.44400
O 	O 	0.63497 0.34505 0.32394 -0.38300
O 	O 	0.52409 0.24029 0.50598 -0.38300
C 	C 	0.47675 0.24002 0.46767 0.28700
C 	C 	0.74541 0.47209 0.44647 0.28100
O 	O 	0.68019 0.42746 0.46127 -0.39200
O 	O 	0.50045 0.28782 0.43156 -0.39400
O 	O 	0.71180 0.30951 0.33627 -0.35500
C 	C 	0.76458 0.22950 0.43441 0.28400
O 	O 	0.64132 0.30980 0.59448 -0.37300
O 	O 	0.75094 0.32309 0.61590 -0.41900
H 	H 	0.58745 0.22103 0.40782 0.16400
H 	H 	0.77195 0.39955 0.52814 0.17500
C 	C 	0.68148 0.30544 0.69106 -0.05000
C 	C 	0.67516 0.29841 0.74112 -0.04900
C 	C 	0.65714 0.29992 0.18795 -0.04100
C 	C 	0.66195 0.30477 0.24028 -0.04100
C 	C 	0.77166 0.54731 0.44043 -0.07700
C 	C 	0.74249 0.55801 0.39009 0.01100
C 	C 	0.76509 0.62897 0.38445 -0.06500
C 	C 	0.81745 0.69016 0.42907 0.03200
C 	C 	0.84694 0.67965 0.47998 -0.00100
C 	C 	0.82363 0.60800 0.48547 -0.01200
C 	C 	0.90001 0.74102 0.52425 -0.03900
C 	C 	0.84203 0.76197 0.42293 -0.05400
H 	H 	0.70201 0.51113 0.35535 0.02700
H 	H 	0.74211 0.63633 0.34526 0.04600
H 	H 	0.84581 0.59951 0.52448 0.03200
H 	H 	0.92272 0.73365 0.56359 0.03800
H 	H 	0.82049 0.77042 0.38354 0.04900
C 	C 	0.79402 0.18731 0.41973 -0.08300
C 	C 	0.85806 0.21904 0.39426 0.00600
C 	C 	0.89222 0.18398 0.38853 -0.06300
C 	C 	0.86320 0.11715 0.40868 0.02200
C 	C 	0.79698 0.08328 0.43181 0.00700
C 	C 	0.76192 0.11778 0.43620 -0.02200
C 	C 	0.76831 0.01688 0.45250 -0.06300
C 	C 	0.87450 0.02103 0.43198 -0.02700
C 	C 	0.90106 0.08525 0.40801 -0.04500
H 	H 	0.88271 0.27189 0.38044 0.03900
H 	H 	0.94241 0.20989 0.36988 0.04400
H 	H 	0.71122 0.09185 0.45421 0.03600
H 	H 	0.95191 0.11126 0.39019 0.04600
C 	C 	0.11836 0.06693 0.44838 -0.00700
C 	C 	0.14665 0.12401 0.41564 -0.02900
C 	C 	0.22283 0.17018 0.41380 -0.04000
C 	C 	0.27164 0.15958 0.44431 -0.00000
C 	C 	0.24369 0.10261 0.47756 0.03100
C 	C 	0.16729 0.05694 0.47983 -0.05400
C 	C 	0.29236 0.09158 0.50764 -0.06500
C 	C 	0.36815 0.13633 0.50443 0.00900
C 	C 	0.39651 0.19327 0.47149 -0.07600
C 	C 	0.34792 0.20483 0.44160 -0.01500
H 	H 	0.10947 0.13198 0.39091 0.04300
H 	H 	0.24371 0.21375 0.38817 0.03900
H 	H 	0.27144 0.04794 0.53320 0.04500
H 	H 	0.40472 0.12633 0.52727 0.03600
H 	H 	0.36931 0.24877 0.41628 0.04200
C 	C 	0.78792 0.73969 0.01809 -0.03600
C 	C 	0.80564 0.69441 0.99290 -0.00300
C 	C 	0.87157 0.72656 0.96945 0.02800
C 	C 	0.88960 0.68142 0.94466 -0.06400
C 	C 	0.84311 0.60502 0.94381 0.00600
C 	C 	0.77759 0.57262 0.96731 -0.07100
C 	C 	0.75872 0.61754 0.99144 -0.02500
H 	H 	0.73740 0.71557 0.03612 0.04000
H 	H 	0.94005 0.70555 0.92653 0.04300
H 	H 	0.85855 0.57115 0.92547 0.03300
H 	H 	0.70783 0.59282 0.00907 0.05000
C 	C 	0.78305 0.17474 0.01239 -0.05800
C 	C 	0.75205 0.11460 0.04205 -0.00300
C 	C 	0.78634 0.08005 0.05015 -0.05700
C 	C 	0.85188 0.10494 0.02851 0.02100
C 	C 	0.88501 0.16719 0.00080 0.02200
C 	C 	0.85102 0.20241 0.99357 -0.04700
C 	C 	0.95044 0.19199 0.97901 -0.05400
C 	C 	0.98124 0.15364 0.98273 -0.04200
C 	C 	0.94732 0.09035 0.00868 0.00200
C 	C 	0.88356 0.06716 0.03278 -0.05300
H 	H 	0.70053 0.09351 0.05777 0.04400
H 	H 	0.87634 0.24997 0.97200 0.03900
H 	H 	0.97666 0.24007 0.95810 0.03600
H 	H 	0.03044 0.17213 0.96412 0.04600
C 	C 	0.15684 0.07519 0.01576 0.00300
C 	C 	0.19493 0.06742 0.06191 -0.03100
C 	C 	0.26867 0.09317 0.06279 -0.03900
C 	C 	0.30502 0.12656 0.01724 0.00500
C 	C 	0.26732 0.13554 0.97102 0.02500
C 	C 	0.19339 0.11024 0.97076 -0.06300
C 	C 	0.30379 0.16896 0.92547 -0.06600
C 	C 	0.37745 0.19414 0.92617 0.00800
C 	C 	0.41533 0.18589 0.97223 -0.08500
C 	C 	0.37866 0.15136 0.01741 -0.00700
H 	H 	0.29720 0.08639 0.09860 0.04000
H 	H 	0.16372 0.11581 0.93490 0.04800
H 	H 	0.27536 0.17585 0.88968 0.04500
H 	H 	0.40531 0.22067 0.89113 0.03200
H 	H 	0.40808 0.14569 0.05339 0.04500
H 	H 	0.16689 0.04028 0.09669 0.04300
H 	H 	0.14596 0.01373 0.50589 0.04900
C 	C 	0.91909 0.80355 0.97176 -0.04900
H 	H 	0.76103 0.03296 0.07221 0.04400
H 	H 	0.85811 0.01926 0.05398 0.04800
C 	C 	0.92517 0.81246 0.51737 -0.03000
C 	C 	0.83588 0.81647 0.02087 -0.01700
C 	C 	0.89694 0.82329 0.46652 -0.00600
H 	H 	0.71705 0.99000 0.46973 0.04500
C 	C 	0.80701 0.98620 0.45294 -0.00700
H 	H 	0.78547 0.93645 0.47108 0.03800
N 	N 	0.02846 0.96449 0.00758 -0.13000
C 	C 	0.95413 0.93030 0.00327 0.12000
N 	N 	0.92808 0.97124 0.00353 -0.13500
C 	C 	0.91995 0.99346 0.43872 0.12500
N 	N 	0.00525 0.94602 0.45705 -0.13100
C 	C 	0.93074 0.89908 0.45626 0.10900
N 	N 	0.88789 0.92252 0.44653 -0.14000
H 	H 	0.96754 0.85964 0.55121 0.04000
C 	C 	0.90193 0.84888 0.99813 -0.02400
H 	H 	0.82223 0.85087 0.04154 0.04100
H 	H 	0.96937 0.82818 0.95326 0.04700
