data_crystal

_cell_length_a 27.17046
_cell_length_b 28.87154
_cell_length_c 30.66797
_cell_angle_alpha 61.05718
_cell_angle_beta  118.66181
_cell_angle_gamma 133.25787

_symmetry_space_group_name_	'P 1'
_symmetry_space_group_name_H-M	'P 1'

loop_
_symmetry_equiv_pos_as_xyz
  x,y,z

loop_
_atom_site_label
_atom_site_type_symbol
_atom_site_fract_x
_atom_site_fract_y
_atom_site_fract_z
_atom_site_charge
C 	C 	0.72644 0.32280 0.01135 0.14300
N 	N 	0.77324 0.37761 0.02985 -0.13100
C 	C 	0.75076 0.40504 0.03403 0.14300
N 	N 	0.68214 0.37804 0.01955 -0.14200
C 	C 	0.63524 0.32293 0.00214 0.12800
N 	N 	0.65743 0.29564 0.99748 -0.12200
C 	C 	0.76041 0.34161 0.54771 0.15100
N 	N 	0.69444 0.28702 0.55025 -0.13700
C 	C 	0.64936 0.28952 0.55517 0.15500
N 	N 	0.66990 0.34676 0.55663 -0.13700
C 	C 	0.73684 0.40023 0.55783 0.15000
N 	N 	0.78235 0.39793 0.55293 -0.14200
C 	C 	0.26610 0.64069 0.26309 0.14500
N 	N 	0.33501 0.67134 0.27034 -0.13300
C 	C 	0.35541 0.64527 0.26167 0.14500
N 	N 	0.30711 0.58859 0.24630 -0.14700
C 	C 	0.23862 0.55797 0.23888 0.14800
N 	N 	0.21785 0.58375 0.24744 -0.13000
C 	C 	0.26474 0.62943 0.76103 0.14600
N 	N 	0.23420 0.56426 0.77144 -0.13300
C 	C 	0.26662 0.54516 0.76901 0.15200
N 	N 	0.32834 0.59079 0.75551 -0.13700
C 	C 	0.35953 0.65537 0.74617 0.15200
N 	N 	0.32758 0.67489 0.74849 -0.14000
Co	Co	0.10471 0.99743 0.16346 1.18900
Co	Co	0.90404 0.96237 0.12461 1.18500
Co	Co	0.03511 0.02723 0.20054 1.19000
C 	C 	0.16072 0.92139 0.21364 0.32800
Co	Co	0.10091 0.92959 0.10323 1.17600
O 	O 	0.00063 0.09563 0.22539 -0.39000
C 	C 	0.05066 0.14055 0.20089 0.33500
O 	O 	0.12322 0.03996 0.21135 -0.45500
O 	O 	0.88464 0.91479 0.08033 -0.45900
C 	C 	0.86735 0.06025 0.08127 0.32400
C 	C 	0.20034 0.07621 0.08879 0.30600
O 	O 	0.07554 0.12420 0.18746 -0.38200
O 	O 	0.15905 0.02731 0.06630 -0.35200
O 	O 	0.19292 0.06969 0.13203 -0.36300
O 	O 	0.86339 0.01632 0.07275 -0.37700
O 	O 	0.01861 0.97805 0.27577 -0.36800
O 	O 	0.93768 0.82657 0.12457 -0.37500
O 	O 	0.05705 0.95679 0.11780 -0.76100
C 	C 	0.79211 0.88470 0.17711 0.33400
O 	O 	0.80657 0.94174 0.16811 -0.39300
O 	O 	0.83300 0.88149 0.16899 -0.39500
O 	O 	0.17808 0.94884 0.16997 -0.39900
O 	O 	0.11869 0.92640 0.21794 -0.38900
O 	O 	0.02621 0.90407 0.03599 -0.39500
Co	Co	0.08178 0.95924 0.67460 1.18700
Co	Co	0.93719 0.00911 0.62028 1.18800
Co	Co	0.04423 0.01628 0.71601 1.19300
C 	C 	0.05085 0.82700 0.70074 0.32900
Co	Co	0.05228 0.89622 0.59218 1.17400
O 	O 	0.04296 0.09691 0.75747 -0.38900
C 	C 	0.10308 0.13299 0.74673 0.32600
O 	O 	0.10747 0.99225 0.73288 -0.45300
O 	O 	0.91171 0.97685 0.56192 -0.46000
C 	C 	0.95728 0.13757 0.59815 0.31700
C 	C 	0.19598 0.99577 0.64284 0.32100
C 	C 	0.89904 0.82080 0.56713 0.33200
O 	O 	0.11645 0.11013 0.72869 -0.37600
O 	O 	0.15330 0.93588 0.63673 -0.39300
O 	O 	0.17905 0.01535 0.66103 -0.36100
O 	O 	0.93879 0.09317 0.57926 -0.37200
O 	O 	0.90078 0.85175 0.58889 -0.39900
O 	O 	0.03951 0.94428 0.61569 -0.75100
C 	C 	0.81636 0.95242 0.65323 0.33200
O 	O 	0.85196 0.01283 0.65522 -0.40700
O 	O 	0.84505 0.93588 0.64463 -0.39200
O 	O 	0.01842 0.81840 0.65411 -0.37700
O 	O 	0.05263 0.86426 0.71577 -0.37900
O 	O 	0.08246 0.97766 0.53147 -0.37300
C 	C 	0.04858 0.98082 0.92825 0.35100
C 	C 	0.03831 0.97896 0.87946 -0.07900
H 	H 	0.08294 0.00509 0.86502 0.10000
F 	F 	0.11417 0.01323 0.95727 -0.44300
C 	C 	0.06127 0.01635 0.37072 -0.06400
C 	C 	0.07493 0.02415 0.41814 0.33300
F 	F 	0.14070 0.06931 0.43985 -0.43600
H 	H 	0.10298 0.04797 0.35134 0.09500
H 	H 	0.91140 0.90781 0.43899 0.09700
F 	F 	0.87468 0.88238 0.35329 -0.43600
C 	C 	0.18960 0.25486 0.81646 -0.11400
C 	C 	0.20042 0.30926 0.77494 0.01000
C 	C 	0.20014 0.31065 0.72824 0.12500
C 	C 	0.17885 0.25413 0.72123 -0.03300
C 	C 	0.15766 0.19641 0.76052 -0.12100
C 	C 	0.17007 0.19916 0.80969 0.19900
C 	C 	0.20980 0.36355 0.78007 -0.00300
O 	O 	0.22168 0.36722 0.68993 -0.26600
H 	H 	0.17298 0.25358 0.68391 0.06500
O 	O 	0.15510 0.14464 0.84973 -0.27700
H 	H 	0.19332 0.25461 0.85337 0.07800
C 	C 	0.16183 0.37887 0.74942 0.13500
C 	C 	0.17614 0.43539 0.75007 -0.06200
C 	C 	0.23682 0.47539 0.78245 -0.05700
C 	C 	0.27870 0.45416 0.81851 0.16600
C 	C 	0.26625 0.39952 0.81628 -0.09800
O 	O 	0.10249 0.34020 0.71747 -0.27700
H 	H 	0.14235 0.45017 0.72323 0.07200
O 	O 	0.33537 0.49012 0.85309 -0.27800
H 	H 	0.30155 0.38618 0.84180 0.07600
H 	H 	0.19860 0.14789 0.86573 0.17500
H 	H 	0.06699 0.30679 0.73817 0.15500
H 	H 	0.31800 0.47141 0.88376 0.15600
H 	H 	0.17873 0.36350 0.66688 0.16000
C 	C 	0.62730 0.81415 0.65551 -0.11200
C 	C 	0.62202 0.82161 0.69474 0.01300
C 	C 	0.68175 0.86819 0.72279 0.12300
C 	C 	0.74595 0.90724 0.71137 -0.01500
C 	C 	0.75118 0.90195 0.67082 -0.12500
C 	C 	0.69170 0.85421 0.64343 0.20000
C 	C 	0.55441 0.77932 0.70764 -0.00300
O 	O 	0.67746 0.87530 0.76170 -0.25300
H 	H 	0.79147 0.94357 0.73287 0.06700
O 	O 	0.69556 0.84901 0.60319 -0.28600
H 	H 	0.58146 0.77781 0.63410 0.07700
C 	C 	0.50256 0.78908 0.67512 0.13100
C 	C 	0.44035 0.75139 0.68951 -0.06100
C 	C 	0.42933 0.70356 0.73602 -0.05800
C 	C 	0.48222 0.69542 0.76918 0.17000
C 	C 	0.54411 0.73288 0.75475 -0.09400
O 	O 	0.51341 0.83665 0.63005 -0.27400
H 	H 	0.39993 0.75798 0.66380 0.06700
O 	O 	0.47404 0.65190 0.81629 -0.27100
H 	H 	0.58450 0.72621 0.78044 0.08800
H 	H 	0.70491 0.81591 0.61829 0.16000
H 	H 	0.49478 0.81430 0.60381 0.15000
H 	H 	0.45661 0.61094 0.81132 0.16600
H 	H 	0.66827 0.90867 0.74528 0.15100
C 	C 	0.17523 0.65180 0.80584 -0.09300
C 	C 	0.17065 0.70071 0.76459 -0.00400
C 	C 	0.19431 0.72403 0.72139 0.13800
C 	C 	0.22366 0.69957 0.72015 -0.06300
C 	C 	0.22899 0.65112 0.76153 -0.05500
C 	C 	0.20463 0.62721 0.80461 0.16600
C 	C 	0.13877 0.72604 0.76561 0.01300
O 	O 	0.19003 0.77172 0.68073 -0.27600
H 	H 	0.24240 0.71839 0.68692 0.06900
O 	O 	0.20946 0.57995 0.84547 -0.27400
H 	H 	0.15640 0.63308 0.83897 0.07500
C 	C 	0.06605 0.69020 0.75350 0.10900
C 	C 	0.03602 0.72134 0.74004 -0.00600
C 	C 	0.07820 0.78850 0.73766 -0.12800
C 	C 	0.15045 0.82127 0.75732 0.19600
C 	C 	0.18060 0.79024 0.77063 -0.11100
O 	O 	0.02431 0.62660 0.75029 -0.26300
H 	H 	0.98010 0.69488 0.72679 0.05400
O 	O 	0.19232 0.88579 0.75824 -0.29300
H 	H 	0.23667 0.81751 0.78164 0.08300
H 	H 	0.25522 0.60431 0.86867 0.15500
H 	H 	0.01516 0.59940 0.78489 0.15300
H 	H 	0.19657 0.88481 0.79260 0.15900
H 	H 	0.14403 0.74773 0.65759 0.15500
C 	C 	0.16187 0.30511 0.22721 -0.11700
C 	C 	0.11856 0.32553 0.19596 0.01600
C 	C 	0.05947 0.29045 0.15993 0.11100
C 	C 	0.04203 0.23342 0.15741 -0.00500
C 	C 	0.08191 0.20979 0.19180 -0.13300
C 	C 	0.14365 0.24735 0.22531 0.20400
C 	C 	0.13444 0.38270 0.20200 -0.00400
O 	O 	0.01837 0.31146 0.12749 -0.24700
H 	H 	0.99523 0.20554 0.13067 0.04400
O 	O 	0.18352 0.22525 0.25881 -0.28200
H 	H 	0.20847 0.33290 0.25413 0.07700
C 	C 	0.12948 0.37971 0.24708 0.13400
C 	C 	0.15543 0.43696 0.25613 -0.06100
C 	C 	0.18760 0.49743 0.22094 -0.05400
C 	C 	0.18566 0.49899 0.17354 0.16700
C 	C 	0.15928 0.44175 0.16428 -0.09400
O 	O 	0.09955 0.32102 0.28232 -0.26500
H 	H 	0.15513 0.43504 0.29219 0.07100
O 	O 	0.21145 0.55691 0.13682 -0.27500
H 	H 	0.16095 0.44391 0.12869 0.08000
H 	H 	0.21777 0.24437 0.24049 0.15700
H 	H 	0.13846 0.31838 0.30707 0.15500
H 	H 	0.26072 0.57583 0.14271 0.15100
H 	H 	0.98280 0.28941 0.14576 0.13700
C 	C 	0.67068 0.76490 0.26306 -0.10400
C 	C 	0.60936 0.75608 0.22770 0.00900
C 	C 	0.60479 0.77407 0.17497 0.11600
C 	C 	0.66410 0.80889 0.15789 -0.02600
C 	C 	0.72771 0.82492 0.19320 -0.12300
C 	C 	0.72908 0.79732 0.24579 0.19300
C 	C 	0.55172 0.73194 0.24556 -0.00300
O 	O 	0.54361 0.76127 0.13999 -0.27200
H 	H 	0.66194 0.82800 0.11716 0.06100
O 	O 	0.78922 0.80691 0.28057 -0.24300
H 	H 	0.67392 0.74883 0.30382 0.09600
C 	C 	0.51507 0.66795 0.27598 0.13100
C 	C 	0.45536 0.64290 0.28721 -0.06200
C 	C 	0.42934 0.67981 0.26577 -0.05700
C 	C 	0.46877 0.74547 0.23840 0.16600
C 	C 	0.53043 0.77163 0.22929 -0.09100
O 	O 	0.53663 0.62932 0.29389 -0.27300
H 	H 	0.42640 0.59291 0.30955 0.06800
O 	O 	0.44619 0.78354 0.21924 -0.27300
H 	H 	0.55988 0.82181 0.20741 0.08300
H 	H 	0.78676 0.76892 0.28529 0.15400
H 	H 	0.51248 0.60582 0.26698 0.14800
H 	H 	0.41744 0.77705 0.18430 0.15400
H 	H 	0.51854 0.71747 0.13537 0.14600
C 	C 	0.13609 0.76224 0.27700 -0.11800
C 	C 	0.20226 0.78362 0.28079 0.01100
C 	C 	0.25821 0.85036 0.27811 0.12100
C 	C 	0.24590 0.89587 0.26510 -0.03100
C 	C 	0.17778 0.87562 0.25293 -0.12500
C 	C 	0.12417 0.80807 0.26432 0.19600
C 	C 	0.21057 0.73878 0.27912 -0.00400
O 	O 	0.32364 0.87206 0.28311 -0.26600
H 	H 	0.28829 0.94772 0.25894 0.06500
O 	O 	0.05878 0.78691 0.25868 -0.28000
H 	H 	0.09319 0.71060 0.28114 0.08100
C 	C 	0.25210 0.72017 0.32099 0.13900
C 	C 	0.26937 0.68735 0.31578 -0.06200
C 	C 	0.24372 0.67110 0.26944 -0.05200
C 	C 	0.19930 0.68680 0.22844 0.16500
C 	C 	0.18259 0.72011 0.23353 -0.09400
O 	O 	0.27781 0.73598 0.36641 -0.27600
H 	H 	0.30296 0.67483 0.34771 0.07100
O 	O 	0.17278 0.67031 0.18318 -0.27400
H 	H 	0.14982 0.73348 0.20136 0.07200
H 	H 	0.05772 0.78148 0.29279 0.15800
H 	H 	0.24222 0.69831 0.38664 0.15100
H 	H 	0.20720 0.70834 0.16208 0.15500
H 	H 	0.34696 0.87241 0.31975 0.16100
C 	C 	0.83468 0.31384 0.49392 -0.09200
C 	C 	0.87357 0.29542 0.53902 -0.01100
C 	C 	0.88433 0.30312 0.58553 0.13000
C 	C 	0.85269 0.32512 0.58712 -0.06400
C 	C 	0.80892 0.33801 0.54287 -0.06000
C 	C 	0.80225 0.33495 0.49573 0.16400
C 	C 	0.89562 0.26070 0.53886 0.01400
O 	O 	0.92437 0.28765 0.62966 -0.27900
H 	H 	0.85881 0.32827 0.62342 0.06600
O 	O 	0.76050 0.34853 0.45196 -0.27700
H 	H 	0.82703 0.30901 0.45786 0.08100
C 	C 	0.84603 0.19559 0.53377 0.11300
C 	C 	0.86762 0.15760 0.54584 -0.03100
C 	C 	0.93821 0.18315 0.56527 -0.12000
C 	C 	0.98801 0.25026 0.56498 0.18700
C 	C 	0.96655 0.28894 0.55121 -0.12800
O 	O 	0.77643 0.16824 0.51892 -0.26500
H 	H 	0.82899 0.10644 0.54466 0.06600
H 	H 	0.00507 0.33975 0.55336 0.10000
H 	H 	0.79147 0.39613 0.43689 0.15100
H 	H 	0.76164 0.14848 0.55114 0.14800
H 	H 	0.89177 0.24058 0.64502 0.14300
C 	C 	0.74077 0.50857 0.59722 -0.09700
C 	C 	0.78856 0.57092 0.57137 -0.00200
C 	C 	0.82649 0.57788 0.54675 0.13400
C 	C 	0.81148 0.52203 0.54405 -0.06400
C 	C 	0.76039 0.45920 0.56727 -0.05500
C 	C 	0.72759 0.45296 0.59625 0.16700
C 	C 	0.80077 0.62907 0.57194 0.01300
O 	O 	0.88071 0.63899 0.52796 -0.27800
H 	H 	0.83884 0.52769 0.52324 0.06700
O 	O 	0.68537 0.39299 0.62562 -0.27300
H 	H 	0.71390 0.50315 0.61832 0.07500
C 	C 	0.78353 0.66734 0.52633 0.11900
C 	C 	0.80626 0.72810 0.52604 -0.02600
C 	C 	0.84530 0.75025 0.57117 -0.12900
C 	C 	0.84960 0.70602 0.61804 0.19800
C 	C 	0.83022 0.64678 0.61823 -0.11600
O 	O 	0.74288 0.64466 0.48263 -0.26700
H 	H 	0.79855 0.76018 0.49005 0.06400
H 	H 	0.83967 0.61555 0.65409 0.07900
H 	H 	0.63725 0.37675 0.60489 0.15800
H 	H 	0.77560 0.66612 0.46195 0.15100
H 	H 	0.86170 0.65002 0.49067 0.14700
C 	C 	0.52003 0.15855 0.63616 -0.09500
C 	C 	0.45801 0.14246 0.59865 -0.00300
C 	C 	0.45866 0.16472 0.54658 0.13000
C 	C 	0.52199 0.20836 0.53225 -0.06000
C 	C 	0.58452 0.22891 0.56968 -0.06100
C 	C 	0.58307 0.20088 0.62184 0.16900
C 	C 	0.39354 0.10627 0.61373 0.01300
O 	O 	0.39787 0.14676 0.50959 -0.26600
H 	H 	0.52272 0.22906 0.49199 0.07000
O 	O 	0.64391 0.21944 0.65882 -0.27500
H 	H 	0.51969 0.14036 0.67639 0.08500
C 	C 	0.36231 0.04076 0.64233 0.11700
C 	C 	0.30051 0.00655 0.65559 -0.02100
C 	C 	0.26787 0.03642 0.63872 -0.11300
C 	C 	0.30011 0.10253 0.61127 0.20300
C 	C 	0.36329 0.13748 0.59961 -0.10600
O 	O 	0.39215 0.01011 0.65737 -0.26400
H 	H 	0.27655 0.95592 0.67743 0.07000
O 	O 	0.26944 0.13275 0.59511 -0.28200
H 	H 	0.38798 0.18841 0.57850 0.08900
H 	H 	0.65262 0.18783 0.66627 0.15300
H 	H 	0.37181 0.98984 0.62917 0.14700
H 	H 	0.23964 0.12526 0.56055 0.17500
H 	H 	0.38111 0.10606 0.50464 0.15500
C 	C 	0.74641 0.10495 0.02285 -0.11600
C 	C 	0.79419 0.17334 0.00887 0.01700
C 	C 	0.85853 0.20044 0.00336 0.10000
C 	C 	0.87818 0.15984 0.01848 -0.02500
C 	C 	0.83472 0.09257 0.04047 -0.12700
C 	C 	0.76619 0.06442 0.03794 0.19600
C 	C 	0.78107 0.21615 0.00755 -0.01700
O 	O 	0.90452 0.26701 0.98725 -0.25800
O 	O 	0.72140 0.99817 0.05631 -0.29000
H 	H 	0.69563 0.08345 0.02527 0.08500
C 	C 	0.73640 0.22989 0.96487 0.14300
C 	C 	0.72069 0.26674 0.96563 -0.05400
C 	C 	0.74984 0.29068 0.00869 -0.06200
C 	C 	0.79648 0.27869 0.05074 0.16500
C 	C 	0.81169 0.24144 0.05002 -0.08900
O 	O 	0.70629 0.20566 0.92305 -0.27300
H 	H 	0.68514 0.27600 0.93296 0.07000
O 	O 	0.82393 0.29983 0.09377 -0.27600
H 	H 	0.84633 0.23117 0.08296 0.07500
H 	H 	0.69604 0.97933 0.02624 0.15600
H 	H 	0.73911 0.23986 0.90020 0.15100
H 	H 	0.86920 0.34303 0.08893 0.15700
H 	H 	0.89381 0.27607 0.94946 0.14700
C 	C 	0.87100 0.57675 0.04940 -0.09600
C 	C 	0.85348 0.56603 0.09129 -0.00800
C 	C 	0.81281 0.50162 0.11973 0.14100
C 	C 	0.78676 0.44857 0.10441 -0.06700
C 	C 	0.79882 0.45896 0.05973 -0.05200
C 	C 	0.84334 0.52346 0.03330 0.15200
C 	C 	0.87596 0.62219 0.10428 0.00900
O 	O 	0.79421 0.49022 0.16021 -0.27300
H 	H 	0.75279 0.39902 0.12513 0.07200
O 	O 	0.85831 0.53456 0.99093 -0.26800
H 	H 	0.90406 0.62632 0.02825 0.06900
C 	C 	0.92681 0.64168 0.14909 0.12100
C 	C 	0.94948 0.69619 0.16011 -0.03800
C 	C 	0.92572 0.73479 0.12486 -0.10900
C 	C 	0.87283 0.71382 0.08097 0.18800
C 	C 	0.84751 0.65717 0.07121 -0.11000
O 	O 	0.95530 0.60817 0.18178 -0.27700
O 	O 	0.84721 0.74953 0.04684 -0.28400
H 	H 	0.80734 0.64168 0.03709 0.07900
H 	H 	0.82225 0.53798 0.96142 0.15300
H 	H 	0.87633 0.78088 0.02133 0.15000
H 	H 	0.82905 0.48655 0.19106 0.16200
C 	C 	0.38698 0.19886 0.08290 -0.10700
C 	C 	0.37930 0.21223 0.03044 -0.00700
C 	C 	0.31448 0.19510 0.99651 0.15800
C 	C 	0.25645 0.15830 0.01586 -0.06400
C 	C 	0.26224 0.13648 0.06904 -0.09900
C 	C 	0.32874 0.16114 0.10234 0.18400
C 	C 	0.43664 0.23647 0.01241 -0.01300
O 	O 	0.30651 0.20928 0.94495 -0.26900
H 	H 	0.20580 0.14176 0.98974 0.09800
O 	O 	0.33613 0.14319 0.15426 -0.27600
H 	H 	0.43745 0.21427 0.10900 0.07700
C 	C 	0.47505 0.30134 0.98386 0.15200
C 	C 	0.53556 0.32664 0.97371 -0.07500
C 	C 	0.56058 0.28895 0.99471 -0.03100
C 	C 	0.51869 0.22219 0.01921 0.14700
C 	C 	0.45687 0.19624 0.02779 -0.08800
O 	O 	0.45459 0.34061 0.96698 -0.28000
H 	H 	0.56611 0.37736 0.95307 0.07400
O 	O 	0.54087 0.18376 0.03861 -0.27100
H 	H 	0.42639 0.14564 0.04866 0.07800
H 	H 	0.34380 0.17779 0.16172 0.15500
H 	H 	0.47797 0.36236 0.99492 0.15400
H 	H 	0.52129 0.16320 0.01082 0.15400
H 	H 	0.31185 0.25120 0.93036 0.15600
Co	Co	0.90593 0.01871 0.19507 1.17100
O 	O 	0.01154 0.99870 0.13191 -0.57500
O 	O 	0.91453 0.95582 0.26440 -0.35200
C 	C 	0.03590 0.98720 0.49580 0.34500
O 	O 	0.02782 0.00801 0.63930 -0.56300
C 	C 	0.92405 0.91517 0.91677 -0.08100
C 	C 	0.91372 0.91348 0.86786 0.33300
F 	F 	0.84802 0.88016 0.83923 -0.43800
H 	H 	0.87947 0.88858 0.93147 0.09300
H 	H 	0.83802 0.70650 0.67387 0.15400
O 	O 	0.99656 0.95141 0.77878 -0.39000
C 	C 	0.02063 0.98595 0.44264 -0.11000
H 	H 	0.98939 0.71123 0.19437 0.06900
O 	O 	0.91623 0.96841 0.75943 -0.37200
H 	H 	0.99638 0.63028 0.16964 0.14700
O 	O 	0.87786 0.72287 0.66340 -0.28800
O 	O 	0.03607 0.83538 0.14195 -0.37000
H 	H 	0.07148 0.27472 0.61657 0.15900
H 	H 	0.93023 0.18175 0.01844 0.05100
O 	O 	0.90515 0.08068 0.12378 -0.40100
Co	Co	0.94972 0.05566 0.70431 1.16700
O 	O 	0.98800 0.13905 0.64668 -0.40300
C 	C 	0.96804 0.80328 0.12724 0.29600
Co	Co	0.97206 0.92474 0.09333 1.18000
O 	O 	0.95292 0.00424 0.17006 -0.76800
Co	Co	0.97434 0.95219 0.57944 1.18000
O 	O 	0.98223 0.02845 0.67716 -0.76900
C 	C 	0.96126 0.95604 0.79344 0.33400
O 	O 	0.95114 0.85056 0.54819 -0.41300
C 	C 	0.93991 0.92985 0.37336 0.34200
C 	C 	0.95327 0.93894 0.41985 -0.11100
C 	C 	0.00166 0.93789 0.00269 0.36700
C 	C 	0.99356 0.96952 0.34769 -0.14200
O 	O 	0.05760 0.27762 0.57946 -0.27200
C 	C 	0.97608 0.97036 0.29314 0.31400
O 	O 	0.97765 0.95400 0.01768 -0.40200
O 	O 	0.99758 0.99114 0.50764 -0.38300
C 	C 	0.99143 0.94871 0.94734 -0.15100
C 	C 	0.97098 0.94578 0.84870 -0.13600
