data_crystal

_cell_length_a 20.83562
_cell_length_b 21.48056
_cell_length_c 38.86505
_cell_angle_alpha 60.71713
_cell_angle_beta  119.02529
_cell_angle_gamma 133.29390

_symmetry_space_group_name_	'P 1'
_symmetry_space_group_name_H-M	'P 1'

loop_
_symmetry_equiv_pos_as_xyz
  x,y,z

loop_
_atom_site_label
_atom_site_type_symbol
_atom_site_fract_x
_atom_site_fract_y
_atom_site_fract_z
_atom_site_charge
H 	H 	0.16491 0.54790 0.15180 0.09200
H 	H 	0.12813 0.53723 0.62935 0.09200
Co	Co	0.03275 0.10907 0.07788 1.18600
Co	Co	0.10714 0.05211 0.04838 1.17800
Co	Co	0.12337 0.91247 0.04672 1.17800
C 	C 	0.28549 0.08340 0.06653 0.28200
O 	O 	0.10740 0.15217 0.04186 -0.44800
C 	C 	0.11765 0.21816 0.13656 0.31200
C 	C 	0.13402 0.81472 0.13340 0.31300
O 	O 	0.10496 0.80669 0.09663 -0.40000
O 	O 	0.11671 0.85422 0.14180 -0.36600
O 	O 	0.06076 0.15132 0.15976 -0.36200
O 	O 	0.13278 0.20520 0.11181 -0.36900
O 	O 	0.07407 0.94681 0.06529 -0.74400
O 	O 	0.25202 0.99960 0.07636 -0.34000
O 	O 	0.24544 0.10765 0.07013 -0.37000
Co	Co	0.03398 0.99736 0.53951 1.19700
Co	Co	0.08337 0.87571 0.54690 1.17800
C 	C 	0.21081 0.07136 0.53258 0.32400
O 	O 	0.01247 0.08671 0.52677 -0.45200
C 	C 	0.03203 0.20043 0.59865 0.31900
C 	C 	0.16211 0.84625 0.63375 0.31000
O 	O 	0.18447 0.89999 0.59908 -0.37500
O 	O 	0.10937 0.84114 0.64663 -0.35800
O 	O 	0.05607 0.16417 0.59230 -0.37600
O 	O 	0.02990 0.90444 0.56619 -0.75000
O 	O 	0.16238 0.00617 0.51587 -0.41300
O 	O 	0.17326 0.07665 0.54934 -0.39300
C 	C 	0.12109 0.07556 0.87490 0.09900
C 	C 	0.13549 0.09570 0.90834 -0.00600
H 	H 	0.20266 0.14856 0.92050 0.07300
C 	C 	0.03897 0.94675 0.78275 0.00100
Br	Br	0.21754 0.15069 0.84786 -0.17600
C 	C 	0.03593 0.96685 0.32971 0.05600
C 	C 	0.04152 0.91216 0.32285 0.08400
C 	C 	0.03206 0.91862 0.28304 -0.00200
H 	H 	0.03386 0.87476 0.27780 0.07900
C 	C 	0.06612 0.01209 0.42036 -0.04700
C 	C 	0.08902 0.01383 0.39130 0.07200
H 	H 	0.11623 0.06278 0.43706 0.08600
Br	Br	0.06104 0.82813 0.36720 -0.16800
Br	Br	0.20999 0.10403 0.38313 -0.18700
C 	C 	0.12377 0.43242 0.58328 0.06600
C 	C 	0.09214 0.35800 0.57437 -0.00400
C 	C 	0.09808 0.29018 0.60542 -0.08400
C 	C 	0.14080 0.30006 0.64560 0.11900
N 	N 	0.15965 0.23869 0.67712 -0.02200
H 	H 	0.05831 0.35074 0.54345 0.07000
N 	N 	0.11848 0.50123 0.55092 -0.01700
O 	O 	0.19500 0.21461 0.67079 -0.08400
O 	O 	0.07397 0.52363 0.55070 -0.08200
C 	C 	0.14951 0.64514 0.66031 0.06400
C 	C 	0.12432 0.69549 0.65627 -0.00600
C 	C 	0.18968 0.78555 0.65620 -0.08300
C 	C 	0.28200 0.82098 0.66657 0.12400
H 	H 	0.05429 0.66402 0.65393 0.07500
N 	N 	0.09085 0.55113 0.67376 -0.01900
O 	O 	0.11958 0.50994 0.70755 -0.07800
O 	O 	0.00700 0.50724 0.65355 -0.08900
C 	C 	0.15221 0.36783 0.10335 -0.00700
C 	C 	0.16484 0.30844 0.13856 -0.08200
C 	C 	0.20121 0.32664 0.17673 0.12500
C 	C 	0.21981 0.40089 0.17929 -0.06500
H 	H 	0.12174 0.35316 0.07403 0.07100
H 	H 	0.24961 0.41532 0.20862 0.08700
N 	N 	0.22174 0.27107 0.21291 -0.02100
O 	O 	0.11384 0.52659 0.06599 -0.08700
O 	O 	0.26493 0.24688 0.21345 -0.07700
O 	O 	0.20363 0.25044 0.24617 -0.07200
C 	C 	0.31499 0.80001 0.15960 -0.06500
C 	C 	0.18946 0.65527 0.18596 0.06600
C 	C 	0.14984 0.69389 0.18033 -0.00400
C 	C 	0.19207 0.78518 0.16364 -0.08100
C 	C 	0.28189 0.83833 0.16041 0.11800
N 	N 	0.33751 0.93189 0.15528 -0.02300
H 	H 	0.08391 0.65222 0.18665 0.07000
O 	O 	0.06780 0.50463 0.20279 -0.07400
O 	O 	0.27124 0.24608 0.42757 -0.07600
C 	C 	0.29943 0.66688 0.16639 0.06600
C 	C 	0.26814 0.55458 0.14639 0.06800
C 	C 	0.23681 0.58554 0.15494 -0.06700
C 	C 	0.26546 0.64920 0.64877 0.06200
C 	C 	0.19959 0.56744 0.63711 -0.06500
C 	C 	0.22772 0.52904 0.63187 0.06700
C 	C 	0.16683 0.37140 0.65480 -0.06500
C 	C 	0.16282 0.44019 0.62375 0.00300
H 	H 	0.19928 0.37804 0.68581 0.08800
O 	O 	0.14968 0.21355 0.71324 -0.07700
O 	O 	0.15261 0.53710 0.52026 -0.07400
C 	C 	0.30681 0.77176 0.66931 -0.06700
C 	C 	0.23992 0.68834 0.65996 0.01000
C 	C 	0.21088 0.46219 0.14406 0.00500
C 	C 	0.17403 0.44386 0.10593 0.06600
N 	N 	0.16111 0.50374 0.06960 -0.01700
O 	O 	0.19471 0.53373 0.03973 -0.07400
C 	C 	0.26762 0.70751 0.17112 0.00700
N 	N 	0.15478 0.56614 0.20941 -0.02000
O 	O 	0.20951 0.54772 0.23940 -0.08000
C 	C 	0.30731 0.13698 0.53279 -0.09200
H 	H 	0.31660 0.15144 0.99253 0.07300
C 	C 	0.09163 0.03440 0.97210 0.33100
O 	O 	0.14905 0.01469 0.99523 -0.41300
O 	O 	0.06352 0.05309 0.98728 -0.36700
H 	H 	0.06926 0.92324 0.78094 0.08000
C 	C 	0.02828 0.03156 0.29742 -0.10300
H 	H 	0.02644 0.07516 0.30290 0.10200
C 	C 	0.02414 0.94917 0.36886 0.03700
C 	C 	0.05007 0.95011 0.82070 0.07700
Br	Br	0.11093 0.90458 0.86895 -0.15600
O 	O 	0.01192 0.74439 0.57741 -0.40200
N 	N 	0.27789 0.22826 0.46583 -0.02700
O 	O 	0.23936 0.24285 0.47627 -0.08300
C 	C 	0.06592 0.04315 0.92837 -0.12000
C 	C 	0.03617 0.00193 0.86118 -0.03700
C 	C 	0.31934 0.57297 0.63630 -0.07700
C 	C 	0.01621 0.98650 0.82288 0.09400
C 	C 	0.33352 0.19956 0.49638 0.12300
O 	O 	0.32672 0.96387 0.17151 -0.05700
O 	O 	0.01664 0.41314 0.98182 -0.07000
Co	Co	0.01486 0.87254 0.10131 1.18800
O 	O 	0.34082 0.93206 0.69466 -0.06500
H 	H 	0.34084 0.54202 0.63355 0.07600
C 	C 	0.01194 0.97581 0.24987 -0.06900
O 	O 	0.00983 0.95303 0.19291 -0.37000
C 	C 	0.01022 0.03304 0.25770 0.14600
H 	H 	0.34937 0.07267 0.59287 0.07000
N 	N 	0.35101 0.90721 0.67424 -0.02500
O 	O 	0.00015 0.98182 0.08098 -0.55900
C 	C 	0.99855 0.99351 0.70665 0.34400
C 	C 	0.35811 0.60891 0.14416 -0.07400
O 	O 	0.99661 0.05802 0.67791 -0.38500
O 	O 	0.99587 0.93802 0.69839 -0.36500
Co	Co	0.99323 0.84056 0.60946 1.19000
C 	C 	0.99209 0.97724 0.74714 -0.07300
C 	C 	0.37403 0.15049 0.05615 -0.07500
H 	H 	0.37634 0.84225 0.14928 0.08600
O 	O 	0.98103 0.97642 0.48095 -0.34200
H 	H 	0.38072 0.58752 0.13502 0.07800
C 	C 	0.37781 0.17067 0.01665 -0.02700
O 	O 	0.40301 0.98459 0.13686 -0.06800
O 	O 	0.42276 0.79391 0.04250 -0.07200
C 	C 	0.98181 0.94139 0.43035 -0.06000
O 	O 	0.94818 0.15625 0.59945 -0.39500
O 	O 	0.41467 0.19570 0.12804 -0.07700
Br	Br	0.96986 0.10445 0.21575 -0.26300
C 	C 	0.36813 0.11899 0.56441 -0.00700
Co	Co	0.95672 0.05143 0.56958 1.17600
C 	C 	0.95093 0.00576 0.75051 0.14800
Br	Br	0.87532 0.03850 0.70485 -0.30100
O 	O 	0.42607 0.95913 0.66266 -0.06000
N 	N 	0.45486 0.17139 0.12586 -0.02200
O 	O 	0.50488 0.15107 0.15869 -0.07300
O 	O 	0.90585 0.96746 0.18529 -0.36500
C 	C 	0.97278 0.96170 0.20845 0.32900
C 	C 	0.96475 0.01124 0.78799 -0.12700
H 	H 	0.93631 0.03658 0.78988 0.10000
C 	C 	0.45454 0.17905 0.08697 0.12300
C 	C 	0.74267 0.30244 0.02050 0.06500
C 	C 	0.65117 0.25750 0.01913 -0.06700
C 	C 	0.62825 0.29118 0.03094 0.06800
C 	C 	0.69295 0.37540 0.03780 -0.07700
C 	C 	0.78195 0.42447 0.03563 0.06600
C 	C 	0.80808 0.38738 0.02826 -0.07400
H 	H 	0.59867 0.19589 0.00995 0.08800
H 	H 	0.67381 0.40319 0.04478 0.07600
H 	H 	0.87849 0.42386 0.02889 0.07900
C 	C 	0.67928 0.25365 0.51949 0.06700
C 	C 	0.58767 0.22164 0.50882 -0.06900
C 	C 	0.56443 0.26016 0.51690 0.06500
C 	C 	0.63202 0.33925 0.52865 -0.07300
C 	C 	0.72318 0.37432 0.53807 0.06700
C 	C 	0.74739 0.32996 0.53508 -0.06300
H 	H 	0.53434 0.16389 0.49657 0.07300
H 	H 	0.61347 0.37115 0.53282 0.07700
H 	H 	0.81769 0.35364 0.54529 0.08700
C 	C 	0.39245 0.71475 0.16898 -0.07200
C 	C 	0.41975 0.68941 0.15453 0.06700
H 	H 	0.44292 0.77309 0.18076 0.07700
C 	C 	0.38344 0.65662 0.64351 0.06900
C 	C 	0.35667 0.69637 0.64812 -0.06800
H 	H 	0.40618 0.76454 0.64952 0.07900
Co	Co	0.94657 0.93195 0.13418 1.19600
C 	C 	0.93278 0.76083 0.04361 0.31000
Co	Co	0.92631 0.06894 0.13373 1.17500
O 	O 	0.96808 0.03309 0.11193 -0.77500
O 	O 	0.95049 0.83355 0.14153 -0.43900
C 	C 	0.76278 0.89467 0.11923 0.30800
O 	O 	0.79847 0.97969 0.10529 -0.36300
O 	O 	0.80610 0.86305 0.12554 -0.34500
C 	C 	0.91502 0.16872 0.04720 0.31600
O 	O 	0.94418 0.17537 0.08429 -0.39700
O 	O 	0.93992 0.13908 0.03670 -0.36700
O 	O 	0.98921 0.83063 0.02032 -0.36300
O 	O 	0.92101 0.76844 0.07200 -0.35800
Co	Co	0.92558 0.90017 0.64240 1.18800
C 	C 	0.92712 0.69785 0.57779 0.31900
Co	Co	0.88054 0.02752 0.63331 1.17600
O 	O 	0.91975 0.98763 0.61253 -0.73100
O 	O 	0.94575 0.81018 0.65447 -0.43600
O 	O 	0.95067 0.93149 0.58366 -0.56100
C 	C 	0.75560 0.83142 0.65524 0.31800
C 	C 	0.97423 0.92052 0.47091 0.31300
O 	O 	0.80855 0.90106 0.66934 -0.36800
O 	O 	0.78958 0.81443 0.64274 -0.35800
O 	O 	0.97470 0.85350 0.49820 -0.37700
C 	C 	0.78774 0.04670 0.54794 0.27300
O 	O 	0.77306 0.99508 0.58406 -0.33200
O 	O 	0.84724 0.06358 0.53395 -0.35400
O 	O 	0.90148 0.72461 0.58982 -0.35800
C 	C 	0.97810 0.97840 0.91092 0.16900
C 	C 	0.96422 0.95520 0.87869 -0.03900
H 	H 	0.89679 0.90305 0.86625 0.09100
Br	Br	0.87623 0.92337 0.92991 -0.16300
C 	C 	0.93821 0.88062 0.37750 -0.07100
C 	C 	0.91677 0.87673 0.40786 0.14200
H 	H 	0.88682 0.83213 0.35954 0.09700
Br	Br	0.79793 0.78266 0.41821 -0.18300
C 	C 	0.50404 0.71474 0.61469 -0.06200
C 	C 	0.47974 0.70213 0.64674 0.00300
C 	C 	0.54450 0.72059 0.68371 0.06900
C 	C 	0.63350 0.75561 0.68747 -0.00000
C 	C 	0.65870 0.77151 0.65489 -0.08500
C 	C 	0.59224 0.74667 0.61905 0.12800
N 	N 	0.61302 0.75045 0.58770 -0.02300
H 	H 	0.45368 0.69769 0.58666 0.08700
H 	H 	0.68388 0.77272 0.71549 0.07800
N 	N 	0.51987 0.70285 0.71767 -0.02000
O 	O 	0.57927 0.67782 0.58139 -0.07600
O 	O 	0.65942 0.82580 0.56343 -0.07300
O 	O 	0.46289 0.62195 0.73524 -0.08000
O 	O 	0.55936 0.76701 0.73282 -0.07500
H 	H 	0.37729 0.79640 0.68109 0.08800
C 	C 	0.57926 0.74040 0.17646 -0.06400
C 	C 	0.51104 0.74993 0.14700 0.00000
C 	C 	0.52368 0.80220 0.10751 0.07200
C 	C 	0.60321 0.84263 0.09770 -0.00300
C 	C 	0.67184 0.83357 0.12716 -0.08000
C 	C 	0.65907 0.78107 0.16672 0.12000
N 	N 	0.72749 0.76991 0.19729 -0.02400
H 	H 	0.56889 0.69856 0.20659 0.08200
H 	H 	0.61308 0.88390 0.06745 0.07700
N 	N 	0.45464 0.81257 0.07695 -0.01600
O 	O 	0.76434 0.79497 0.23045 -0.08000
O 	O 	0.74303 0.72338 0.19464 -0.08100
O 	O 	0.42744 0.84542 0.08266 -0.07800
C 	C 	0.64374 0.10753 0.53117 -0.06000
C 	C 	0.70151 0.20024 0.51916 0.00100
C 	C 	0.77844 0.24059 0.50636 0.06700
C 	C 	0.80333 0.18887 0.51177 -0.01300
C 	C 	0.74746 0.09646 0.52600 -0.06700
C 	C 	0.66260 0.05616 0.53118 0.09100
N 	N 	0.59749 0.96216 0.53895 -0.00800
H 	H 	0.58384 0.07492 0.54051 0.07700
H 	H 	0.86699 0.22088 0.50588 0.07100
N 	N 	0.82795 0.33213 0.48581 -0.02000
O 	O 	0.56007 0.91882 0.56934 -0.08200
O 	O 	0.57267 0.92038 0.51455 -0.06100
O 	O 	0.91600 0.38305 0.49714 -0.07700
O 	O 	0.78579 0.36259 0.45346 -0.07000
C 	C 	0.80163 0.45721 0.58943 -0.06300
C 	C 	0.79210 0.45819 0.55079 0.00300
C 	C 	0.82207 0.53821 0.52071 0.07000
C 	C 	0.85369 0.61374 0.52826 -0.00800
C 	C 	0.86247 0.61282 0.56665 -0.08300
C 	C 	0.83407 0.53323 0.59712 0.12200
N 	N 	0.83564 0.52857 0.63554 -0.02700
H 	H 	0.77692 0.39553 0.61251 0.08800
H 	H 	0.87710 0.67501 0.50490 0.07500
N 	N 	0.81733 0.54218 0.48176 -0.02000
O 	O 	0.79082 0.54861 0.63708 -0.07400
O 	O 	0.87348 0.49532 0.66900 -0.07400
O 	O 	0.77428 0.57101 0.44899 -0.07100
O 	O 	0.86152 0.52304 0.47891 -0.06500
C 	C 	0.41478 0.23427 0.49013 -0.06600
C 	C 	0.47204 0.21036 0.52065 -0.00000
C 	C 	0.44938 0.15401 0.55832 0.06300
H 	H 	0.43501 0.28233 0.46216 0.08800
N 	N 	0.51006 0.13397 0.59083 -0.01700
O 	O 	0.55319 0.16559 0.62250 -0.08200
O 	O 	0.51970 0.08155 0.58945 -0.09900
C 	C 	0.83894 0.31025 0.99461 -0.05600
C 	C 	0.77079 0.25933 0.01550 -0.00300
C 	C 	0.73316 0.16829 0.03310 0.06200
C 	C 	0.76441 0.13183 0.02926 -0.01000
C 	C 	0.84777 0.18732 0.01905 -0.09500
C 	C 	0.87927 0.27520 0.99721 0.12800
N 	N 	0.95625 0.33078 0.98034 -0.02700
H 	H 	0.86307 0.37773 0.97780 0.08200
H 	H 	0.73412 0.06201 0.04210 0.05900
N 	N 	0.67386 0.11620 0.05959 -0.02200
O 	O 	0.96527 0.29940 0.96290 -0.07100
O 	O 	0.59525 0.04263 0.05262 -0.09700
O 	O 	0.70316 0.13616 0.09335 -0.09500
C 	C 	0.90560 0.61424 0.07732 -0.00500
C 	C 	0.89213 0.67264 0.04179 -0.08700
C 	C 	0.85764 0.65451 0.00387 0.11800
C 	C 	0.83855 0.57973 0.00186 -0.07800
C 	C 	0.84434 0.51751 0.03742 0.00600
C 	C 	0.88307 0.53748 0.07528 0.06100
N 	N 	0.89661 0.47826 0.11186 -0.01800
H 	H 	0.93606 0.62962 0.10646 0.06600
H 	H 	0.80906 0.56489 0.97266 0.09200
N 	N 	0.83551 0.70832 0.96761 -0.01900
O 	O 	0.93770 0.44980 0.11441 -0.08400
O 	O 	0.87101 0.45547 0.14315 -0.08100
O 	O 	0.76993 0.70959 0.96255 -0.06200
O 	O 	0.87260 0.74667 0.93767 -0.07800
C 	C 	0.53567 0.21804 0.07906 -0.06400
C 	C 	0.53902 0.23597 0.03978 0.00200
C 	C 	0.45984 0.21383 0.00822 0.06300
H 	H 	0.59730 0.23835 0.10303 0.08700
N 	N 	0.46255 0.23576 0.96751 -0.01600
O 	O 	0.41038 0.17397 0.94848 -0.07800
O 	O 	0.51068 0.31800 0.94825 -0.07900
