data_crystal

_cell_length_a 17.76991
_cell_length_b 16.46352
_cell_length_c 50.34449
_cell_angle_alpha 90.76080
_cell_angle_beta  91.02522
_cell_angle_gamma 110.84645

_symmetry_space_group_name_	'P 1'
_symmetry_space_group_name_H-M	'P 1'

loop_
_symmetry_equiv_pos_as_xyz
  x,y,z

loop_
_atom_site_label
_atom_site_type_symbol
_atom_site_fract_x
_atom_site_fract_y
_atom_site_fract_z
_atom_site_charge
O 	O 	0.09923 0.90513 0.75748 -0.69600
Ni	Ni	0.12725 0.01478 0.77960 1.09900
O 	O 	0.13397 0.79955 0.71577 -0.38600
Ni	Ni	0.19825 0.90194 0.74201 1.07300
O 	O 	0.19431 0.00134 0.71898 -0.41500
O 	O 	0.21713 0.99938 0.80218 -0.37100
O 	O 	0.03954 0.02811 0.75560 -0.71300
O 	O 	0.12688 0.11757 0.80322 -0.35300
H 	H 	0.07249 0.85285 0.76798 0.15900
H 	H 	0.05712 0.08509 0.74683 0.16700
C 	C 	0.21753 0.08181 0.72876 0.26700
C 	C 	0.06357 0.78932 0.70439 0.29300
C 	C 	0.28393 0.00038 0.79125 0.27700
C 	C 	0.05825 0.11772 0.81268 0.27400
O 	O 	0.21058 0.09706 0.75449 -0.36300
O 	O 	0.28659 0.98961 0.76531 -0.39600
Ni	Ni	0.34747 0.78390 0.40247 1.10600
O 	O 	0.33623 0.68814 0.37427 -0.69700
Ni	Ni	0.21891 0.65696 0.36410 1.09800
O 	O 	0.45305 0.78436 0.41909 -0.34600
O 	O 	0.45298 0.64867 0.41070 -0.38800
O 	O 	0.41334 0.87941 0.37742 -0.35400
Ni	Ni	0.34734 0.58228 0.38891 1.07300
O 	O 	0.30960 0.95402 0.39685 -0.38200
O 	O 	0.27913 0.59011 0.42026 -0.40800
O 	O 	0.21142 0.55884 0.33818 -0.38800
O 	O 	0.23413 0.75872 0.38977 -0.70900
O 	O 	0.35061 0.87938 0.42868 -0.34600
O 	O 	0.10403 0.64884 0.35340 -0.34900
O 	O 	0.14565 0.79244 0.34342 -0.41300
Ni	Ni	0.23212 0.86278 0.37155 1.07100
H 	H 	0.37069 0.70840 0.35875 0.15900
H 	H 	0.19646 0.74365 0.40470 0.18300
C 	C 	0.20087 0.57027 0.41755 0.30000
O 	O 	0.31908 0.86796 0.34486 -0.40600
C 	C 	0.45879 0.71223 0.42766 0.31100
C 	C 	0.22505 0.48961 0.34610 0.28800
C 	C 	0.39407 0.88274 0.35230 0.28400
C 	C 	0.08761 0.71948 0.34916 0.28000
C 	C 	0.32122 0.93948 0.42212 0.30700
O 	O 	0.16766 0.56904 0.39373 -0.34900
O 	O 	0.25150 0.48681 0.37066 -0.39400
Ni	Ni	0.36042 0.62995 0.12884 1.09900
O 	O 	0.26049 0.60724 0.10437 -0.69600
Ni	Ni	0.20154 0.67377 0.12413 1.10300
O 	O 	0.40244 0.54563 0.10889 -0.34800
O 	O 	0.28196 0.43668 0.10240 -0.38000
O 	O 	0.42807 0.72113 0.10261 -0.36300
Ni	Ni	0.18930 0.48506 0.10011 1.08800
O 	O 	0.48271 0.80610 0.14719 -0.40200
O 	O 	0.17639 0.47275 0.14002 -0.40400
O 	O 	0.10747 0.65102 0.09787 -0.35700
O 	O 	0.30182 0.69690 0.14830 -0.69900
O 	O 	0.45874 0.66243 0.15399 -0.36200
O 	O 	0.16164 0.75790 0.14529 -0.34400
O 	O 	0.28155 0.86995 0.14617 -0.39600
Ni	Ni	0.37323 0.82031 0.14670 1.06800
H 	H 	0.27519 0.63157 0.08661 0.18000
H 	H 	0.28924 0.67705 0.16672 0.16300
C 	C 	0.12654 0.50130 0.15255 0.29100
O 	O 	0.36798 0.82158 0.10634 -0.40100
C 	C 	0.35380 0.48207 0.09401 0.31500
C 	C 	0.08137 0.57751 0.08416 0.31200
C 	C 	0.40431 0.78064 0.09191 0.30700
C 	C 	0.21182 0.82929 0.15674 0.27600
C 	C 	0.49806 0.74485 0.16029 0.28000
O 	O 	0.12655 0.58050 0.14876 -0.35300
O 	O 	0.08386 0.50593 0.09484 -0.38500
O 	O 	0.05200 0.15968 0.26417 -0.36300
O 	O 	0.10549 0.02118 0.25842 -0.39600
O 	O 	0.03774 0.04084 0.22123 -0.35700
O 	O 	0.95386 0.92683 0.32040 -0.40500
Ni	Ni	0.02235 0.97501 0.28741 1.06700
O 	O 	0.03958 0.09391 0.30407 -0.40400
C 	C 	0.05804 0.16466 0.29020 0.28600
C 	C 	0.08715 0.00766 0.23269 0.27800
C 	C 	0.07592 0.44715 0.17333 -0.05700
C 	C 	0.11350 0.42000 0.19410 -0.00400
C 	C 	0.06949 0.35214 0.21036 0.00700
C 	C 	0.98461 0.31207 0.20659 -0.05300
C 	C 	0.94586 0.34551 0.18726 -0.00700
C 	C 	0.99113 0.41214 0.17046 0.00600
H 	H 	0.17845 0.44900 0.19682 0.04700
C 	C 	0.95032 0.44191 0.14982 0.09500
C 	C 	0.11350 0.32484 0.23040 0.09200
N 	N 	0.91765 0.46580 0.13327 -0.09400
N 	N 	0.15314 0.30671 0.24596 -0.09600
C 	C 	0.18209 0.87538 0.17692 -0.06200
C 	C 	0.19697 0.96445 0.17416 -0.01100
C 	C 	0.17283 0.01065 0.19367 0.01200
C 	C 	0.13137 0.96715 0.21594 -0.06800
C 	C 	0.12006 0.87925 0.21939 -0.01200
C 	C 	0.14502 0.83306 0.20001 -0.00000
H 	H 	0.22732 0.99777 0.15677 0.06000
H 	H 	0.08893 0.84594 0.23668 0.02100
C 	C 	0.13337 0.74272 0.20416 0.07500
C 	C 	0.19148 0.10298 0.19085 0.09800
N 	N 	0.12404 0.67039 0.20750 -0.11000
C 	C 	0.10213 0.24928 0.30352 -0.06000
C 	C 	0.17524 0.26141 0.31710 -0.00200
C 	C 	0.21735 0.34026 0.33054 0.00400
C 	C 	0.18486 0.40707 0.33109 -0.05800
C 	C 	0.11218 0.39491 0.31735 -0.00600
C 	C 	0.07145 0.31755 0.30331 0.00700
H 	H 	0.19979 0.20976 0.31693 0.04600
H 	H 	0.08673 0.44584 0.31775 0.05900
C 	C 	0.99855 0.30991 0.28876 0.06500
C 	C 	0.29482 0.35289 0.34288 0.07600
N 	N 	0.35689 0.36294 0.35276 -0.11600
C 	C 	0.88419 0.77746 0.32995 -0.06000
C 	C 	0.90546 0.78023 0.35695 -0.00900
C 	C 	0.97016 0.75538 0.36469 0.01100
C 	C 	0.00335 0.71377 0.34596 -0.06800
C 	C 	0.96340 0.68698 0.32128 -0.00600
C 	C 	0.90237 0.71779 0.31336 -0.01000
H 	H 	0.98494 0.64977 0.30738 0.04500
C 	C 	0.86755 0.69844 0.28687 0.07100
C 	C 	0.00945 0.78443 0.39025 0.06500
N 	N 	0.83963 0.68304 0.26562 -0.11100
N 	N 	0.04104 0.80838 0.41068 -0.11400
H 	H 	0.31221 0.17227 0.52973 0.09600
C 	C 	0.31910 0.00219 0.44271 -0.10200
C 	C 	0.27470 0.96991 0.46544 -0.00100
C 	C 	0.29896 0.01271 0.48996 0.08200
H 	H 	0.22707 0.90654 0.46460 0.06400
Br	Br	0.24723 0.95732 0.52149 -0.17800
C 	C 	0.14936 0.52898 0.44010 -0.08600
C 	C 	0.07610 0.54177 0.44482 0.14700
C 	C 	0.03383 0.50985 0.46792 -0.08100
C 	C 	0.06268 0.46390 0.48624 0.02400
C 	C 	0.13304 0.44679 0.48090 0.08900
C 	C 	0.17618 0.47960 0.45803 -0.00700
H 	H 	0.23094 0.46705 0.45427 0.06800
H 	H 	0.93362 0.31839 0.49367 0.08900
Br	Br	0.17139 0.37911 0.50468 -0.19100
Br	Br	0.03173 0.60164 0.42024 -0.23000
C 	C 	0.48995 0.71061 0.45479 -0.09800
C 	C 	0.44372 0.71490 0.47689 0.15200
C 	C 	0.47161 0.70737 0.50253 -0.07800
C 	C 	0.56631 0.70539 0.45881 -0.00300
H 	H 	0.43381 0.70560 0.51934 0.10000
H 	H 	0.60347 0.70556 0.44196 0.07000
H 	H 	0.51937 0.52744 0.51439 0.08800
Br	Br	0.33997 0.72531 0.47247 -0.23200
N 	N 	0.06003 0.18511 0.69833 -0.11600
C 	C 	0.39749 0.25151 0.68055 -0.05000
C 	C 	0.32126 0.20521 0.66919 -0.00700
C 	C 	0.25857 0.15466 0.68505 0.00800
C 	C 	0.27143 0.15281 0.71276 -0.05600
C 	C 	0.34369 0.21016 0.72440 -0.00900
C 	C 	0.40685 0.25918 0.70839 -0.00400
H 	H 	0.31278 0.20278 0.64779 0.07600
H 	H 	0.35306 0.21161 0.74575 0.05700
C 	C 	0.48251 0.31335 0.72065 0.07300
C 	C 	0.18277 0.10172 0.67258 0.09300
N 	N 	0.54313 0.35677 0.73047 -0.11600
N 	N 	0.12219 0.05914 0.66254 -0.09700
C 	C 	0.12095 0.73066 0.65650 0.09800
N 	N 	0.18531 0.76684 0.64906 -0.09800
C 	C 	0.02393 0.52798 0.01144 -0.08200
C 	C 	0.06274 0.53199 0.03607 0.15900
C 	C 	0.04200 0.57355 0.05796 -0.10100
C 	C 	0.98668 0.61585 0.05433 0.00200
H 	H 	0.97211 0.64992 0.07089 0.07800
Br	Br	0.14754 0.48543 0.03885 -0.30700
C 	C 	0.43764 0.81752 0.06645 -0.09500
C 	C 	0.38719 0.80911 0.04388 0.15100
C 	C 	0.41959 0.85005 0.02040 -0.07700
C 	C 	0.50056 0.90506 0.01974 0.02800
C 	C 	0.51976 0.86812 0.06529 -0.00400
H 	H 	0.38061 0.84328 0.00306 0.09700
H 	H 	0.55860 0.87539 0.08270 0.07100
H 	H 	0.45329 0.03665 0.00618 0.08800
Br	Br	0.27307 0.74789 0.04514 -0.23900
C 	C 	0.37370 0.47321 0.06622 -0.11000
C 	C 	0.39479 0.40258 0.05770 0.15700
C 	C 	0.41514 0.39644 0.03122 -0.08400
C 	C 	0.41377 0.45984 0.01304 0.02800
C 	C 	0.37215 0.53645 0.04803 -0.00500
H 	H 	0.43261 0.34272 0.02478 0.09400
Br	Br	0.39811 0.31517 0.08208 -0.20500
C 	C 	0.06399 0.11984 0.87139 0.09400
N 	N 	0.08620 0.07361 0.88374 -0.09500
C 	C 	0.50355 0.12024 0.83620 -0.05600
C 	C 	0.45848 0.17007 0.82772 -0.01300
C 	C 	0.38698 0.13178 0.81293 0.01600
C 	C 	0.36028 0.04236 0.80612 -0.07300
C 	C 	0.40768 0.99345 0.81322 0.01500
C 	C 	0.47892 0.03171 0.82839 -0.01700
H 	H 	0.47756 0.23821 0.83359 0.03500
H 	H 	0.38817 0.92519 0.80748 0.03200
C 	C 	0.34092 0.18468 0.80514 0.08700
N 	N 	0.30446 0.22763 0.79902 -0.09900
Ni	Ni	0.62218 0.28904 0.90098 1.10700
O 	O 	0.64793 0.36200 0.86715 -0.69600
Ni	Ni	0.76256 0.36835 0.86247 1.09800
O 	O 	0.52245 0.31692 0.91068 -0.33300
O 	O 	0.54009 0.44509 0.89055 -0.38600
O 	O 	0.54777 0.18308 0.87951 -0.35400
Ni	Ni	0.65099 0.48215 0.87223 1.07200
O 	O 	0.62586 0.10328 0.90853 -0.39300
O 	O 	0.71094 0.49534 0.90794 -0.39400
O 	O 	0.78907 0.44748 0.83054 -0.37600
O 	O 	0.73147 0.28776 0.89391 -0.71100
O 	O 	0.60463 0.21186 0.93306 -0.34000
O 	O 	0.87144 0.35226 0.86025 -0.35500
O 	O 	0.81086 0.20454 0.85644 -0.40600
Ni	Ni	0.71843 0.16819 0.88390 1.06800
H 	H 	0.61378 0.33360 0.85151 0.15800
H 	H 	0.76828 0.30866 0.90954 0.17000
C 	C 	0.78153 0.48644 0.90991 0.28800
O 	O 	0.64027 0.15886 0.85285 -0.40900
C 	C 	0.52408 0.39717 0.91185 0.31400
C 	C 	0.77727 0.52171 0.83110 0.28000
C 	C 	0.56694 0.15726 0.85670 0.28100
C 	C 	0.87666 0.27458 0.85893 0.27200
C 	C 	0.60915 0.13374 0.93139 0.29900
O 	O 	0.81690 0.47178 0.88844 -0.36200
O 	O 	0.75474 0.54904 0.85325 -0.39600
Ni	Ni	0.59215 0.37689 0.62837 1.10600
O 	O 	0.67952 0.38840 0.60091 -0.69500
Ni	Ni	0.75075 0.33829 0.62062 1.10200
O 	O 	0.55397 0.47050 0.61217 -0.33600
O 	O 	0.68317 0.56208 0.60891 -0.40400
O 	O 	0.50822 0.28577 0.60428 -0.33800
Ni	Ni	0.74758 0.50120 0.58799 1.08500
O 	O 	0.47758 0.20503 0.65044 -0.38800
O 	O 	0.84625 0.54105 0.61359 -0.38600
O 	O 	0.85101 0.37560 0.59697 -0.36300
O 	O 	0.65405 0.31008 0.64507 -0.70100
O 	O 	0.50565 0.35198 0.65627 -0.35500
O 	O 	0.79792 0.26384 0.64290 -0.35800
O 	O 	0.68130 0.14626 0.63836 -0.38400
Ni	Ni	0.58495 0.18807 0.64428 1.07500
H 	H 	0.65706 0.34980 0.58530 0.17800
H 	H 	0.67018 0.33088 0.66359 0.16700
C 	C 	0.84566 0.52007 0.63871 0.30000
O 	O 	0.56614 0.18228 0.60426 -0.40300
C 	C 	0.60660 0.54174 0.60263 0.30100
C 	C 	0.85220 0.40363 0.57230 0.31300
C 	C 	0.51864 0.21804 0.59306 0.31100
C 	C 	0.75231 0.18518 0.65008 0.27000
C 	C 	0.46844 0.27092 0.66379 0.27300
O 	O 	0.80411 0.44106 0.64629 -0.38400
O 	O 	0.80166 0.44080 0.56380 -0.39300
Ni	Ni	0.02619 0.93247 0.72941 1.10600
O 	O 	0.04334 0.85664 0.69953 -0.35900
O 	O 	0.92841 0.83103 0.74255 -0.36800
O 	O 	0.86694 0.96386 0.73930 -0.39500
O 	O 	0.94968 0.96405 0.70481 -0.34800
O 	O 	0.99248 0.04831 0.80989 -0.40700
Ni	Ni	0.93716 0.00521 0.77301 1.06500
O 	O 	0.92539 0.88351 0.78458 -0.40100
C 	C 	0.91197 0.81798 0.76784 0.28800
C 	C 	0.89392 0.98925 0.71530 0.28600
Ni	Ni	0.95700 0.07130 0.24325 1.10300
O 	O 	0.87708 0.09494 0.26849 -0.70500
Ni	Ni	0.83620 0.97906 0.28622 1.10100
O 	O 	0.96208 0.16244 0.21541 -0.35900
O 	O 	0.86309 0.21413 0.22656 -0.38200
Ni	Ni	0.78733 0.11025 0.24896 1.07100
O 	O 	0.78766 0.01116 0.22410 -0.41700
O 	O 	0.74501 0.99752 0.30624 -0.37700
O 	O 	0.92793 0.96582 0.26529 -0.70700
O 	O 	0.82272 0.86693 0.30652 -0.35000
H 	H 	0.90104 0.14103 0.28207 0.16800
H 	H 	0.91049 0.91231 0.25401 0.16600
C 	C 	0.75507 0.92911 0.23136 0.27400
C 	C 	0.93838 0.22820 0.21953 0.29200
C 	C 	0.68460 0.00874 0.29340 0.28000
C 	C 	0.88645 0.85963 0.31849 0.27300
O 	O 	0.75630 0.90772 0.25673 -0.36200
O 	O 	0.68932 0.02528 0.26770 -0.40400
H 	H 	0.88106 0.31664 0.18431 0.05300
C 	C 	0.57061 0.76954 0.17771 -0.06100
C 	C 	0.64508 0.82203 0.16766 -0.00500
C 	C 	0.70893 0.86907 0.18501 0.00200
C 	C 	0.69769 0.86498 0.21272 -0.05700
C 	C 	0.62635 0.80469 0.22262 -0.01200
C 	C 	0.56319 0.75678 0.20527 -0.00000
H 	H 	0.65212 0.82916 0.14636 0.06100
H 	H 	0.61817 0.79856 0.24386 0.06100
C 	C 	0.48921 0.69831 0.21603 0.07100
C 	C 	0.78592 0.91960 0.17424 0.08900
N 	N 	0.42994 0.65148 0.22465 -0.11700
N 	N 	0.84762 0.96009 0.16561 -0.10000
N 	N 	0.20635 0.17690 0.18861 -0.09700
C 	C 	0.45876 0.91208 0.33281 -0.06300
C 	C 	0.49637 0.85459 0.32462 -0.00800
C 	C 	0.56884 0.88493 0.31104 0.00500
C 	C 	0.60412 0.97406 0.30518 -0.05200
C 	C 	0.56372 0.03064 0.31175 -0.01700
C 	C 	0.49138 0.00019 0.32563 0.01100
H 	H 	0.47071 0.78658 0.32964 0.02400
H 	H 	0.58970 0.09875 0.30675 0.03900
C 	C 	0.45192 0.06002 0.33287 0.08900
C 	C 	0.60739 0.82430 0.30370 0.08600
N 	N 	0.42027 0.10794 0.33866 -0.10100
N 	N 	0.63799 0.77539 0.29795 -0.10100
N 	N 	0.94032 0.30609 0.27732 -0.13300
H 	H 	0.88354 0.81748 0.37073 0.05600
C 	C 	0.47669 0.18211 0.56759 -0.08800
C 	C 	0.40129 0.18833 0.56079 0.15900
C 	C 	0.36870 0.16489 0.53515 -0.07600
C 	C 	0.40532 0.12596 0.51714 0.02600
C 	C 	0.47775 0.11447 0.52446 0.08700
C 	C 	0.51410 0.14471 0.54927 -0.00900
C 	C 	0.36483 0.09185 0.49141 0.02700
H 	H 	0.57148 0.13889 0.55432 0.07700
C 	C 	0.39902 0.13196 0.46790 -0.08100
C 	C 	0.37764 0.08674 0.44357 0.15600
H 	H 	0.44703 0.19502 0.46882 0.09000
Br	Br	0.52611 0.05415 0.50132 -0.17300
Br	Br	0.33692 0.21795 0.58680 -0.18700
Br	Br	0.43454 0.13800 0.41237 -0.20100
H 	H 	0.97867 0.52153 0.47177 0.08900
C 	C 	0.01954 0.43580 0.51124 0.02700
C 	C 	0.94975 0.36102 0.51108 -0.08100
C 	C 	0.89811 0.34406 0.53264 0.14800
C 	C 	0.91644 0.40206 0.55463 -0.09400
C 	C 	0.99047 0.47150 0.55597 -0.00500
C 	C 	0.04157 0.48934 0.53426 0.08300
H 	H 	0.00552 0.51547 0.57308 0.06500
Br	Br	0.80045 0.24407 0.53114 -0.21200
Br	Br	0.13839 0.59040 0.53570 -0.18000
C 	C 	0.54498 0.69493 0.50641 0.03000
C 	C 	0.59444 0.69878 0.48454 0.08300
C 	C 	0.55944 0.65683 0.53144 0.02400
C 	C 	0.54201 0.56720 0.53217 -0.08200
C 	C 	0.55640 0.52878 0.55525 0.14300
C 	C 	0.58467 0.57976 0.57866 -0.11400
C 	C 	0.60036 0.66959 0.57813 -0.00800
C 	C 	0.58821 0.70839 0.55458 0.08200
H 	H 	0.62337 0.70949 0.59584 0.06700
Br	Br	0.69946 0.69227 0.48948 -0.20300
Br	Br	0.54422 0.40864 0.55331 -0.26700
Br	Br	0.61334 0.83179 0.55421 -0.18000
C 	C 	0.85757 0.04075 0.69944 -0.07800
C 	C 	0.77359 0.01460 0.69698 -0.01800
C 	C 	0.73815 0.06258 0.68173 0.00400
C 	C 	0.78750 0.13469 0.66728 -0.05900
C 	C 	0.87166 0.16115 0.67017 -0.01000
C 	C 	0.90658 0.11692 0.68699 0.00900
H 	H 	0.73576 0.95759 0.70727 0.06100
H 	H 	0.91009 0.21765 0.65982 0.06400
C 	C 	0.99184 0.15450 0.69323 0.06700
C 	C 	0.65190 0.04053 0.68241 0.06000
N 	N 	0.58281 0.02280 0.68301 -0.13900
C 	C 	0.90551 0.57994 0.65747 -0.06200
C 	C 	0.98488 0.62238 0.64930 0.00300
C 	C 	0.04062 0.68551 0.66578 0.00800
C 	C 	0.01715 0.70641 0.69080 -0.06200
C 	C 	0.94008 0.65862 0.69988 -0.00700
C 	C 	0.88376 0.59658 0.68327 0.00900
H 	H 	0.00277 0.60745 0.62987 0.05600
H 	H 	0.92238 0.67347 0.71933 0.04900
C 	C 	0.80268 0.55398 0.69233 0.08400
N 	N 	0.73777 0.51992 0.69961 -0.11500
C 	C 	0.82785 0.50984 0.93525 -0.09700
C 	C 	0.79324 0.47318 0.95932 0.14300
C 	C 	0.95259 0.59135 0.95930 0.08400
C 	C 	0.90748 0.56922 0.93546 -0.00900
H 	H 	0.81277 0.46364 0.00122 0.09200
C 	C 	0.96700 0.56816 0.00802 0.03000
H 	H 	0.93407 0.59890 0.91715 0.07700
C 	C 	0.94991 0.61421 0.02943 0.08200
Br	Br	0.05972 0.67625 0.95907 -0.18500
Br	Br	0.68461 0.39299 0.96054 -0.26700
Br	Br	0.87734 0.67618 0.02492 -0.17300
C 	C 	0.55085 0.91420 0.04240 0.08900
C 	C 	0.51772 0.08019 0.97028 0.14900
C 	C 	0.57769 0.07258 0.95329 -0.08100
C 	C 	0.60833 0.00579 0.95742 -0.03400
H 	H 	0.65237 0.99752 0.94408 0.06800
Br	Br	0.66015 0.99451 0.04324 -0.18600
Br	Br	0.45421 0.14993 0.96142 -0.17900
C 	C 	0.39043 0.52915 0.02142 0.09100
H 	H 	0.35620 0.59104 0.05454 0.05400
C 	C 	0.38477 0.39244 0.96773 -0.08000
C 	C 	0.41014 0.37807 0.94252 0.15800
C 	C 	0.48930 0.42556 0.93483 -0.09000
C 	C 	0.53972 0.49208 0.95159 -0.00800
H 	H 	0.59992 0.53037 0.94544 0.07300
Br	Br	0.33543 0.29481 0.91866 -0.18800
Br	Br	0.59145 0.58622 0.00105 -0.16200
C 	C 	0.05567 0.19099 0.82900 -0.06000
C 	C 	0.04095 0.25888 0.81606 -0.01900
C 	C 	0.98895 0.29633 0.82724 0.00400
C 	C 	0.95413 0.26720 0.85198 -0.05900
C 	C 	0.98394 0.21420 0.86725 -0.01400
C 	C 	0.03631 0.17751 0.85598 0.01100
H 	H 	0.06143 0.27465 0.79596 0.03700
H 	H 	0.96174 0.19640 0.88707 0.03500
C 	C 	0.96745 0.35982 0.81246 0.08600
N 	N 	0.95025 0.41070 0.80062 -0.10600
C 	C 	0.52466 0.97900 0.83666 0.10100
N 	N 	0.56130 0.93676 0.84329 -0.11700
C 	C 	0.81576 0.58595 0.81090 -0.05900
C 	C 	0.76831 0.60387 0.79089 -0.01700
C 	C 	0.80187 0.67477 0.77426 0.00900
C 	C 	0.88307 0.72922 0.77809 -0.07300
C 	C 	0.93207 0.70605 0.79637 -0.00700
C 	C 	0.89890 0.63477 0.81276 0.00800
H 	H 	0.70486 0.56437 0.78882 0.03400
H 	H 	0.99502 0.74667 0.79896 0.02700
C 	C 	0.94991 0.61425 0.83221 0.09700
C 	C 	0.75208 0.69283 0.75389 0.08400
N 	N 	0.99068 0.59773 0.84779 -0.09700
N 	N 	0.71226 0.70732 0.73754 -0.10200
H 	H 	0.32436 0.35466 0.97381 0.09100
C 	C 	0.58155 0.94886 0.97851 0.09900
Br	Br	0.61537 0.85061 0.98116 -0.17300
C 	C 	0.51557 0.50433 0.97714 0.09300
C 	C 	0.83899 0.49382 0.98293 -0.07900
C 	C 	0.91852 0.55248 0.98311 0.02400
C 	C 	0.43791 0.45359 0.98541 0.02800
C 	C 	0.49696 0.02841 0.99266 -0.08900
H 	H 	0.03782 0.49323 0.99492 0.09200
C 	C 	0.52824 0.96254 0.99689 0.03000
Br	Br	0.38231 0.61383 0.99677 -0.17700
