data_crystal

_cell_length_a 20.45867
_cell_length_b 21.00899
_cell_length_c 38.80388
_cell_angle_alpha 60.67249
_cell_angle_beta  119.10269
_cell_angle_gamma 133.32592

_symmetry_space_group_name_	'P 1'
_symmetry_space_group_name_H-M	'P 1'

loop_
_symmetry_equiv_pos_as_xyz
  x,y,z

loop_
_atom_site_label
_atom_site_type_symbol
_atom_site_fract_x
_atom_site_fract_y
_atom_site_fract_z
_atom_site_charge
Co	Co	0.02781 0.10358 0.07831 1.18100
Co	Co	0.08512 0.03309 0.04460 1.17100
Co	Co	0.10452 0.88620 0.04951 1.18500
C 	C 	0.25637 0.08345 0.03742 0.36400
O 	O 	0.08809 0.13821 0.03718 -0.45300
C 	C 	0.11663 0.21483 0.13903 0.34000
C 	C 	0.16561 0.83729 0.13907 0.33500
O 	O 	0.19599 0.89461 0.10570 -0.34300
O 	O 	0.09769 0.82154 0.14667 -0.33200
O 	O 	0.05294 0.14496 0.15977 -0.40900
O 	O 	0.12387 0.20965 0.10798 -0.35100
O 	O 	0.06828 0.93209 0.06959 -0.74300
O 	O 	0.19979 0.01473 0.02136 -0.42900
O 	O 	0.22502 0.10322 0.05069 -0.38400
Co	Co	0.01453 0.09113 0.58091 1.17800
Co	Co	0.07369 0.02345 0.54694 1.17100
Co	Co	0.07581 0.87145 0.54424 1.17600
C 	C 	0.24779 0.04163 0.56473 0.30500
O 	O 	0.08471 0.13056 0.54311 -0.45200
C 	C 	0.11077 0.20473 0.63997 0.34500
C 	C 	0.08603 0.77309 0.63131 0.35600
O 	O 	0.05409 0.76314 0.59455 -0.40300
O 	O 	0.07379 0.81813 0.63937 -0.36600
O 	O 	0.05427 0.14084 0.66422 -0.40500
O 	O 	0.12278 0.18475 0.61678 -0.37500
O 	O 	0.03304 0.91367 0.56291 -0.74700
O 	O 	0.20789 0.95459 0.57513 -0.31000
O 	O 	0.21325 0.07377 0.56760 -0.37400
C 	C 	0.10397 0.01221 0.89325 0.04500
C 	C 	0.10176 0.02962 0.92320 -0.05700
C 	C 	0.02149 0.95477 0.82959 0.03200
N 	N 	0.18408 0.03310 0.89418 -0.19000
H 	H 	0.16563 0.06703 0.94420 0.06200
C 	C 	0.07835 0.03025 0.80287 -0.12500
C 	C 	0.07619 0.02021 0.76901 0.10800
H 	H 	0.12607 0.09634 0.80901 0.07700
N 	N 	0.14397 0.08878 0.74853 -0.20000
H 	H 	0.19575 0.15033 0.75675 0.13600
H 	H 	0.14909 0.07929 0.72615 0.12500
H 	H 	0.24577 0.07059 0.91407 0.10800
H 	H 	0.18481 0.00693 0.87752 0.09600
N 	N 	0.09627 0.12684 0.33291 -0.18800
C 	C 	0.03589 0.95834 0.27601 -0.02300
C 	C 	0.04857 0.96719 0.31306 0.07500
H 	H 	0.09520 0.98679 0.26679 0.06900
N 	N 	0.13171 0.99577 0.34042 -0.16900
H 	H 	0.18804 0.01732 0.33305 0.08000
H 	H 	0.13965 0.99154 0.36999 0.11600
H 	H 	0.14858 0.19116 0.33840 0.11800
H 	H 	0.07565 0.12061 0.30363 0.09500
C 	C 	0.13341 0.34922 0.61877 -0.07200
C 	C 	0.16863 0.29796 0.64282 -0.13800
C 	C 	0.23987 0.32292 0.67775 0.36200
F 	F 	0.28039 0.27936 0.69947 -0.44300
H 	H 	0.08001 0.33227 0.59110 0.09600
C 	C 	0.13628 0.60614 0.67885 0.32200
C 	C 	0.08880 0.64008 0.67038 -0.06400
C 	C 	0.13547 0.73334 0.66279 -0.13200
C 	C 	0.23246 0.78915 0.67212 0.36600
H 	H 	0.01414 0.59523 0.66540 0.10000
F 	F 	0.08861 0.51651 0.68377 -0.40600
C 	C 	0.21750 0.30801 0.18860 -0.07200
C 	C 	0.17392 0.30220 0.14794 -0.13800
C 	C 	0.16250 0.36972 0.11886 0.35700
H 	H 	0.22502 0.25534 0.21149 0.09100
F 	F 	0.12012 0.36509 0.07942 -0.43800
C 	C 	0.29665 0.82588 0.17989 -0.06800
C 	C 	0.20073 0.78228 0.16584 -0.11600
C 	C 	0.14252 0.69032 0.16658 0.35000
C 	C 	0.18008 0.64736 0.17415 -0.10900
H 	H 	0.34226 0.89573 0.18119 0.12900
H 	H 	0.13401 0.57847 0.17151 0.11600
F 	F 	0.04935 0.64487 0.15629 -0.40700
C 	C 	0.31569 0.65755 0.18118 0.18500
N 	N 	0.26226 0.56835 0.18241 -0.13800
C 	C 	0.29721 0.53522 0.17946 0.19300
N 	N 	0.38493 0.59051 0.17574 -0.13600
N 	N 	0.40167 0.71380 0.17426 -0.09400
C 	C 	0.28115 0.63599 0.68088 0.18700
N 	N 	0.37295 0.69649 0.68132 -0.12300
N 	N 	0.37150 0.58633 0.67886 -0.13900
C 	C 	0.27951 0.52703 0.67593 0.18900
N 	N 	0.23361 0.55148 0.67693 -0.09400
C 	C 	0.26762 0.39083 0.69114 -0.12100
C 	C 	0.22982 0.43988 0.66805 -0.05300
C 	C 	0.16293 0.41908 0.63149 0.32100
H 	H 	0.32179 0.40829 0.71860 0.11300
F 	F 	0.12869 0.46831 0.60764 -0.39900
C 	C 	0.28059 0.75576 0.68080 -0.10800
C 	C 	0.23210 0.66540 0.68110 -0.04700
F 	F 	0.27961 0.87819 0.66827 -0.39200
H 	H 	0.35510 0.80137 0.68535 0.13600
C 	C 	0.19146 0.44027 0.13064 -0.11600
C 	C 	0.23626 0.44675 0.17117 -0.06700
C 	C 	0.24732 0.37910 0.20025 0.31500
F 	F 	0.29113 0.38471 0.23954 -0.42800
H 	H 	0.18416 0.49309 0.10777 0.11500
C 	C 	0.27649 0.69518 0.18256 -0.05500
C 	C 	0.33457 0.78246 0.18860 0.33100
F 	F 	0.42759 0.82607 0.20191 -0.40400
C 	C 	0.40373 0.20303 0.49285 0.31900
C 	C 	0.33416 0.16068 0.51121 -0.08100
C 	C 	0.33254 0.10334 0.55039 -0.12200
C 	C 	0.40196 0.08946 0.57125 0.35300
F 	F 	0.40145 0.03419 0.60924 -0.41000
H 	H 	0.27944 0.16972 0.49434 0.09100
F 	F 	0.40461 0.25873 0.45495 -0.42800
C 	C 	0.36347 0.21216 0.99319 -0.06500
C 	C 	0.34993 0.14946 0.03099 -0.14700
C 	C 	0.41476 0.12986 0.05551 0.35700
H 	H 	0.31294 0.22647 0.97363 0.09200
F 	F 	0.40250 0.06898 0.09213 -0.44200
C 	C 	0.41768 0.67168 0.67988 0.19000
O 	O 	0.04005 0.98999 0.09990 -0.55600
O 	O 	0.01135 0.75267 0.07429 -0.38600
C 	C 	0.04906 0.00092 0.46946 0.22300
O 	O 	0.10441 0.97636 0.49217 -0.35000
O 	O 	0.02657 0.02516 0.48527 -0.37400
C 	C 	0.02117 0.96769 0.86424 0.03100
C 	C 	0.01129 0.99965 0.42602 -0.02500
C 	C 	0.05130 0.05521 0.36225 0.03700
C 	C 	0.06839 0.06949 0.39863 -0.06700
H 	H 	0.12684 0.13431 0.40584 0.07300
C 	C 	0.01332 0.95863 0.97283 0.33500
C 	C 	0.01718 0.98722 0.93022 -0.07700
O 	O 	0.00649 0.88388 0.99614 -0.38600
O 	O 	0.01245 0.00530 0.98655 -0.41600
Co	Co	0.00718 0.85891 0.10524 1.19300
C 	C 	0.00435 0.93813 0.75709 -0.07500
O 	O 	0.99241 0.92847 0.69380 -0.36500
C 	C 	0.43565 0.68009 0.17102 0.18600
C 	C 	0.98508 0.96614 0.35648 0.04900
C 	C 	0.97306 0.94378 0.32151 0.01200
O 	O 	0.88218 0.96229 0.18090 -0.38600
C 	C 	0.93641 0.93735 0.20623 0.31900
O 	O 	0.96891 0.91937 0.19258 -0.35400
O 	O 	0.90209 0.95619 0.69349 -0.36500
C 	C 	0.96464 0.94031 0.71326 0.32600
C 	C 	0.94704 0.91514 0.25048 -0.09100
C 	C 	0.48944 0.16898 0.04144 -0.11500
C 	C 	0.43769 0.25081 0.97898 0.31800
C 	C 	0.72492 0.31185 0.99810 0.17900
N 	N 	0.63226 0.25805 0.99532 -0.14100
C 	C 	0.59311 0.29133 0.99452 0.19300
N 	N 	0.64563 0.37859 0.99481 -0.12100
C 	C 	0.73853 0.42905 0.00249 0.19100
N 	N 	0.77882 0.39596 0.00407 -0.11100
C 	C 	0.69477 0.28870 0.49867 0.18200
N 	N 	0.60450 0.22848 0.50088 -0.14200
C 	C 	0.56119 0.25634 0.50108 0.19100
N 	N 	0.60729 0.34428 0.49809 -0.12700
C 	C 	0.69849 0.40315 0.49909 0.18700
N 	N 	0.74244 0.37572 0.49909 -0.09300
Co	Co	0.92997 0.92131 0.13128 1.20100
C 	C 	0.92532 0.72028 0.06659 0.37800
Co	Co	0.91763 0.06896 0.13018 1.16900
O 	O 	0.96702 0.02987 0.11398 -0.77300
O 	O 	0.92921 0.81726 0.13972 -0.41600
C 	C 	0.75012 0.89951 0.10669 0.33600
O 	O 	0.78862 0.98631 0.09725 -0.34100
O 	O 	0.79013 0.87046 0.10574 -0.33800
C 	C 	0.91291 0.16921 0.04414 0.35500
O 	O 	0.94412 0.17922 0.08073 -0.37700
O 	O 	0.92589 0.12385 0.03679 -0.36600
O 	O 	0.90545 0.76337 0.07100 -0.37200
Co	Co	0.97331 0.84055 0.59907 1.19600
Co	Co	0.91909 0.90902 0.63516 1.20000
C 	C 	0.87849 0.72422 0.54018 0.34800
Co	Co	0.91634 0.05715 0.64010 1.16800
O 	O 	0.94844 0.01532 0.61507 -0.76700
O 	O 	0.91130 0.80325 0.63994 -0.43100
O 	O 	0.96779 0.95769 0.58023 -0.54500
C 	C 	0.74332 0.88132 0.62695 0.34400
O 	O 	0.78305 0.96846 0.61260 -0.34600
O 	O 	0.77987 0.84402 0.63068 -0.33300
C 	C 	0.89887 0.15626 0.55242 0.35300
O 	O 	0.93009 0.16381 0.58970 -0.39700
O 	O 	0.92643 0.12982 0.54083 -0.36300
O 	O 	0.93841 0.79254 0.51753 -0.38000
O 	O 	0.87192 0.73438 0.56957 -0.35600
C 	C 	0.93496 0.94662 0.90039 0.15300
C 	C 	0.93817 0.93980 0.86690 -0.08400
N 	N 	0.85294 0.91370 0.90382 -0.20300
H 	H 	0.87547 0.91006 0.84367 0.07900
C 	C 	0.95130 0.86129 0.78483 -0.00800
C 	C 	0.96245 0.86820 0.82200 0.08500
H 	H 	0.89861 0.79684 0.77682 0.08000
N 	N 	0.91775 0.79197 0.85025 -0.19200
H 	H 	0.87095 0.72887 0.84364 0.12800
H 	H 	0.93289 0.79408 0.87970 0.12500
H 	H 	0.84962 0.92229 0.92712 0.12600
H 	H 	0.79181 0.88119 0.88244 0.11900
C 	C 	0.93254 0.91776 0.41498 0.13500
C 	C 	0.92534 0.89823 0.38296 -0.09300
N 	N 	0.86261 0.85896 0.43422 -0.19900
H 	H 	0.87152 0.83084 0.37801 0.07600
C 	C 	0.88397 0.89559 0.29712 -0.08900
C 	C 	0.87024 0.87355 0.26431 0.14900
H 	H 	0.82494 0.87365 0.30408 0.07700
N 	N 	0.78333 0.81291 0.24592 -0.20500
H 	H 	0.72597 0.78629 0.25439 0.11500
H 	H 	0.77280 0.78741 0.22503 0.13800
H 	H 	0.86271 0.87597 0.45544 0.13800
H 	H 	0.80458 0.79811 0.42611 0.14300
C 	C 	0.57815 0.72595 0.69484 -0.11100
C 	C 	0.50900 0.73979 0.67091 -0.06400
C 	C 	0.51816 0.80120 0.63261 0.32900
C 	C 	0.59168 0.84265 0.61717 -0.07400
C 	C 	0.65824 0.82513 0.64023 -0.12300
C 	C 	0.65189 0.76756 0.67946 0.35500
F 	F 	0.71820 0.75347 0.70303 -0.43700
H 	H 	0.57190 0.67891 0.72452 0.11100
H 	H 	0.59734 0.88898 0.58731 0.13700
F 	F 	0.45222 0.81584 0.60918 -0.40900
C 	C 	0.60250 0.86086 0.10324 -0.07600
C 	C 	0.66055 0.83463 0.11763 -0.11900
C 	C 	0.64317 0.75698 0.14935 0.34800
C 	C 	0.57560 0.71231 0.16939 -0.11700
C 	C 	0.51968 0.74042 0.15603 -0.05900
C 	C 	0.53292 0.81455 0.12245 0.32700
F 	F 	0.47661 0.84001 0.10759 -0.40900
H 	H 	0.61339 0.91917 0.07794 0.13700
H 	H 	0.56476 0.65399 0.19469 0.11400
F 	F 	0.69420 0.72675 0.16187 -0.44200
C 	C 	0.88746 0.28396 0.51077 -0.06200
C 	C 	0.84381 0.19060 0.52244 -0.13400
C 	C 	0.74731 0.13155 0.51685 0.35500
C 	C 	0.69744 0.16431 0.50630 -0.11800
C 	C 	0.74349 0.25692 0.50052 -0.05100
C 	C 	0.83787 0.31733 0.49978 0.32400
F 	F 	0.88218 0.40791 0.48937 -0.40000
H 	H 	0.96147 0.33050 0.51343 0.10900
H 	H 	0.62382 0.11702 0.50449 0.11300
F 	F 	0.70301 0.04133 0.52546 -0.44600
C 	C 	0.85548 0.58157 0.55678 -0.07000
C 	C 	0.82196 0.63423 0.53413 -0.13500
C 	C 	0.74998 0.61199 0.49915 0.36200
C 	C 	0.71638 0.54191 0.48536 -0.11800
C 	C 	0.75126 0.49034 0.50747 -0.05100
C 	C 	0.82112 0.51060 0.54337 0.32300
F 	F 	0.85321 0.45937 0.56608 -0.39800
H 	H 	0.91043 0.59754 0.58412 0.10700
H 	H 	0.66049 0.52519 0.45832 0.12200
F 	F 	0.71268 0.65851 0.47844 -0.43900
C 	C 	0.47152 0.13184 0.55290 -0.11100
C 	C 	0.47414 0.19050 0.51401 -0.06800
H 	H 	0.52627 0.12286 0.56981 0.11500
C 	C 	0.90364 0.29767 0.00069 -0.06800
C 	C 	0.85817 0.20375 0.01296 -0.12600
C 	C 	0.76243 0.14724 0.00960 0.34900
C 	C 	0.71795 0.18267 0.00328 -0.12000
C 	C 	0.76780 0.27598 0.99788 -0.05400
C 	C 	0.85935 0.33391 0.99362 0.32500
F 	F 	0.90606 0.42486 0.98337 -0.40900
H 	H 	0.97635 0.34261 0.00082 0.12800
H 	H 	0.64584 0.13704 0.00414 0.11000
F 	F 	0.71435 0.05682 0.01660 -0.44600
C 	C 	0.81118 0.49286 0.06076 -0.10900
C 	C 	0.79344 0.50720 0.01880 -0.05900
C 	C 	0.80180 0.58679 0.99242 0.33000
C 	C 	0.83030 0.65214 0.00804 -0.08000
C 	C 	0.85356 0.64008 0.05023 -0.13000
C 	C 	0.83792 0.55742 0.07621 0.36900
F 	F 	0.85519 0.54238 0.11693 -0.39800
H 	H 	0.80036 0.42977 0.08128 0.11500
H 	H 	0.84059 0.71499 0.98749 0.10300
F 	F 	0.78069 0.60010 0.95157 -0.42100
C 	C 	0.50179 0.23017 0.00321 -0.07200
F 	F 	0.44886 0.31035 0.94201 -0.42100
H 	H 	0.53984 0.15449 0.06096 0.11000
