data_crystal

_cell_length_a 32.17840
_cell_length_b 28.54303
_cell_length_c 48.97500
_cell_angle_alpha 103.61090
_cell_angle_beta  115.75267
_cell_angle_gamma 112.57193

_symmetry_space_group_name_	'P 1'
_symmetry_space_group_name_H-M	'P 1'

loop_
_symmetry_equiv_pos_as_xyz
  x,y,z

loop_
_atom_site_label
_atom_site_type_symbol
_atom_site_fract_x
_atom_site_fract_y
_atom_site_fract_z
_atom_site_charge
C 	C 	0.57359 0.25017 0.92062 0.03500
C 	C 	0.63689 0.24188 0.90859 0.04600
C 	C 	0.59675 0.21957 0.91473 -0.08100
H 	H 	0.58405 0.17894 0.91537 0.05100
C 	C 	0.56703 0.24934 0.41791 0.03100
C 	C 	0.63350 0.24433 0.40820 0.03100
C 	C 	0.59276 0.22091 0.41380 -0.07700
H 	H 	0.58194 0.18138 0.41564 0.04800
Zn	Zn	0.14350 0.11977 0.99077 1.18400
Zn	Zn	0.05066 0.07340 0.91604 1.19000
O 	O 	0.02166 0.04702 0.86546 -0.45100
C 	C 	0.19877 0.08915 0.96561 0.32300
C 	C 	0.14835 0.19851 0.96088 0.33500
O 	O 	0.20585 0.11812 0.99412 -0.46700
O 	O 	0.14901 0.05648 0.93630 -0.35800
O 	O 	0.06859 0.08362 0.96343 -0.78900
O 	O 	0.11009 0.15226 0.92983 -0.45900
O 	O 	0.16404 0.19423 0.98940 -0.46500
O 	O 	0.94930 0.02872 0.93864 -0.47300
C 	C 	0.94892 0.06760 0.95927 0.32100
O 	O 	0.97534 0.08350 0.99238 -0.49400
C 	C 	0.02693 0.00909 0.84845 0.29300
Zn	Zn	0.13873 0.11911 0.48993 1.18300
Zn	Zn	0.04747 0.07312 0.41500 1.19000
O 	O 	0.02047 0.04716 0.36478 -0.45100
C 	C 	0.19432 0.08936 0.46482 0.32200
C 	C 	0.14505 0.19830 0.46048 0.33500
O 	O 	0.20140 0.11825 0.49335 -0.46900
O 	O 	0.14442 0.05595 0.43561 -0.36100
O 	O 	0.06378 0.08262 0.46205 -0.78800
O 	O 	0.10736 0.15219 0.42935 -0.45900
O 	O 	0.15925 0.19381 0.48886 -0.46600
O 	O 	0.94356 0.02740 0.43557 -0.47600
C 	C 	0.94103 0.06437 0.45577 0.34000
O 	O 	0.96667 0.07996 0.48879 -0.49800
C 	C 	0.02704 0.00993 0.34843 0.29300
C 	C 	0.04615 0.05878 0.81566 0.02200
C 	C 	0.04777 0.05760 0.78744 -0.07400
H 	H 	0.08705 0.09132 0.61835 0.02600
H 	H 	0.09031 0.09208 0.66966 0.04400
H 	H 	0.06494 0.09748 0.78637 0.04500
H 	H 	0.06267 0.09971 0.83639 0.03300
C 	C 	0.01425 0.02935 0.21364 -0.04700
C 	C 	0.01820 0.02840 0.18623 -0.04700
H 	H 	0.99744 0.04285 0.16963 0.04400
C 	C 	0.03536 0.01005 0.26358 0.01400
C 	C 	0.02749 0.00971 0.31846 -0.11400
C 	C 	0.05024 0.06173 0.31748 0.02000
C 	C 	0.05429 0.06191 0.29020 -0.07000
H 	H 	0.06594 0.10217 0.33822 0.03300
H 	H 	0.07275 0.10240 0.28997 0.04400
H 	H 	0.10520 0.09912 0.17412 0.04200
H 	H 	0.10098 0.09648 0.12226 0.02300
H 	H 	0.99032 0.04435 0.21798 0.04300
C 	C 	0.20266 0.30010 0.46629 0.05000
C 	C 	0.17597 0.25359 0.46348 -0.12200
C 	C 	0.20422 0.30041 0.96627 0.05100
C 	C 	0.17826 0.25378 0.96357 -0.12200
C 	C 	0.66435 0.21771 0.40726 -0.00500
C 	C 	0.63754 0.16304 0.37963 -0.03700
C 	C 	0.66731 0.13844 0.37853 -0.04400
C 	C 	0.72404 0.16838 0.40507 0.00500
C 	C 	0.75072 0.22300 0.43271 -0.04200
C 	C 	0.72102 0.24755 0.43378 -0.03700
C 	C 	0.75511 0.14169 0.40482 0.00900
C 	C 	0.80194 0.16981 0.40500 -0.04700
C 	C 	0.83695 0.15004 0.41079 -0.03000
C 	C 	0.82518 0.10190 0.41623 -0.01900
C 	C 	0.77660 0.07164 0.41390 -0.03000
C 	C 	0.74165 0.09146 0.40822 -0.04700
C 	C 	0.86615 0.08829 0.42869 0.05200
C 	C 	0.90053 0.07733 0.44041 -0.13900
H 	H 	0.59381 0.13979 0.35899 0.03400
H 	H 	0.64634 0.09620 0.35713 0.03500
H 	H 	0.79436 0.24613 0.45350 0.03900
H 	H 	0.81227 0.20820 0.40195 0.03900
H 	H 	0.87427 0.17344 0.41235 0.03300
H 	H 	0.76712 0.03420 0.41792 0.03400
H 	H 	0.70546 0.06927 0.40794 0.03700
C 	C 	0.52607 0.22611 0.42537 -0.00500
C 	C 	0.47078 0.20675 0.40164 -0.03700
C 	C 	0.43217 0.18567 0.40900 -0.04300
C 	C 	0.44854 0.18378 0.44016 0.00600
C 	C 	0.50375 0.20273 0.46377 -0.04300
C 	C 	0.54237 0.22381 0.45640 -0.03700
C 	C 	0.40831 0.16384 0.44852 0.00800
C 	C 	0.36133 0.10671 0.42762 -0.04600
C 	C 	0.32040 0.08948 0.43346 -0.03100
C 	C 	0.32622 0.12921 0.46024 -0.01300
C 	C 	0.37416 0.18560 0.48200 -0.03100
C 	C 	0.41512 0.20288 0.47619 -0.04500
C 	C 	0.28051 0.11426 0.46286 0.04800
C 	C 	0.24153 0.10248 0.46425 -0.11700
H 	H 	0.38968 0.17137 0.39069 0.03800
H 	H 	0.51674 0.20138 0.48787 0.03700
H 	H 	0.58501 0.23877 0.47490 0.03600
H 	H 	0.35597 0.07610 0.40640 0.03700
H 	H 	0.28348 0.04577 0.41658 0.03400
H 	H 	0.37893 0.21655 0.50275 0.03600
H 	H 	0.45133 0.24703 0.49253 0.03900
C 	C 	0.91076 0.08518 0.94424 -0.11400
C 	C 	0.85775 0.04464 0.91299 0.02400
C 	C 	0.81876 0.05908 0.90133 -0.07800
C 	C 	0.83265 0.11428 0.92066 0.03100
C 	C 	0.88641 0.15561 0.95101 -0.07500
C 	C 	0.92526 0.14112 0.96276 0.02400
C 	C 	0.78998 0.12750 0.91069 -0.00700
C 	C 	0.79596 0.17197 0.90198 -0.03500
C 	C 	0.76052 0.19080 0.89791 -0.04700
C 	C 	0.71889 0.16528 0.90249 0.01700
C 	C 	0.71108 0.11892 0.90946 -0.04800
C 	C 	0.74647 0.10000 0.91351 -0.03400
C 	C 	0.68827 0.19054 0.90364 -0.01500
C 	C 	0.66407 0.21314 0.90548 -0.03100
H 	H 	0.77743 0.02702 0.87775 0.04100
H 	H 	0.89753 0.19841 0.96603 0.04700
H 	H 	0.96626 0.17296 0.98668 0.02400
H 	H 	0.82917 0.19315 0.89950 0.03500
H 	H 	0.76660 0.22649 0.89234 0.04000
H 	H 	0.67883 0.09883 0.91290 0.03800
H 	H 	0.74146 0.06555 0.92017 0.03400
C 	C 	0.53254 0.22750 0.92809 -0.00600
C 	C 	0.54800 0.22290 0.95841 -0.03600
C 	C 	0.50911 0.20160 0.96556 -0.04300
C 	C 	0.45448 0.18471 0.94242 0.00600
C 	C 	0.43898 0.18909 0.91203 -0.04300
C 	C 	0.47786 0.21042 0.90490 -0.03600
C 	C 	0.41389 0.16407 0.95046 0.00900
C 	C 	0.36623 0.10736 0.92870 -0.04600
C 	C 	0.32499 0.08970 0.93427 -0.03100
C 	C 	0.33115 0.12858 0.96160 -0.01400
C 	C 	0.37977 0.18443 0.98421 -0.02800
C 	C 	0.42105 0.20214 0.97869 -0.04600
C 	C 	0.28518 0.11361 0.96396 0.04800
C 	C 	0.24606 0.10196 0.96518 -0.11700
H 	H 	0.52144 0.19837 0.98908 0.03700
H 	H 	0.39695 0.17643 0.89411 0.03800
H 	H 	0.46554 0.21367 0.88139 0.03600
H 	H 	0.36060 0.07748 0.90704 0.03700
H 	H 	0.28757 0.04639 0.91673 0.03400
H 	H 	0.38483 0.21472 0.00541 0.03500
H 	H 	0.45781 0.24593 0.99571 0.03900
C 	C 	0.59059 0.30307 0.92018 -0.07900
C 	C 	0.63074 0.32535 0.91397 0.03400
C 	C 	0.65357 0.29447 0.90798 -0.08200
H 	H 	0.57319 0.32711 0.92509 0.05000
H 	H 	0.68530 0.31213 0.90375 0.05200
C 	C 	0.58178 0.30102 0.41608 -0.07700
C 	C 	0.62231 0.32431 0.41029 0.03100
C 	C 	0.64773 0.29563 0.40607 -0.07700
H 	H 	0.56249 0.32349 0.41972 0.04900
H 	H 	0.67966 0.31405 0.40210 0.05000
C 	C 	0.33103 0.52349 0.48315 0.00600
C 	C 	0.33238 0.53038 0.45603 -0.04300
C 	C 	0.29819 0.46501 0.47793 0.00900
C 	C 	0.24034 0.43036 0.45332 -0.04600
C 	C 	0.20892 0.37590 0.44935 -0.03000
C 	C 	0.23510 0.35576 0.46994 -0.01400
C 	C 	0.29290 0.39005 0.49431 -0.03000
C 	C 	0.32437 0.44452 0.49831 -0.04600
H 	H 	0.35838 0.56772 0.53587 0.03800
H 	H 	0.31130 0.49274 0.43164 0.03800
H 	H 	0.21971 0.44590 0.43759 0.03800
H 	H 	0.16427 0.34958 0.43043 0.03400
H 	H 	0.31342 0.37467 0.51025 0.03600
H 	H 	0.36899 0.47086 0.51730 0.03900
C 	C 	0.33364 0.53122 0.95655 -0.04300
C 	C 	0.32969 0.52453 0.98299 0.00700
C 	C 	0.29761 0.46606 0.97800 0.00800
C 	C 	0.32409 0.44730 0.99966 -0.04400
C 	C 	0.29333 0.39260 0.99563 -0.02900
C 	C 	0.23596 0.35631 0.96994 -0.01400
C 	C 	0.20949 0.37474 0.94810 -0.03000
C 	C 	0.24019 0.42945 0.95210 -0.04600
H 	H 	0.31450 0.49351 0.93275 0.03800
H 	H 	0.36840 0.47516 0.01964 0.03800
H 	H 	0.31408 0.37855 0.01256 0.03500
H 	H 	0.16515 0.34689 0.92817 0.03400
H 	H 	0.21934 0.44363 0.93534 0.03800
H 	H 	0.74196 0.28968 0.45527 0.03700
C 	C 	0.64091 0.38066 0.41090 -0.00500
C 	C 	0.63383 0.38427 0.38128 -0.03700
C 	C 	0.65924 0.43837 0.38328 -0.04300
C 	C 	0.69194 0.48927 0.41492 0.00600
C 	C 	0.69676 0.48567 0.44413 -0.04200
C 	C 	0.67131 0.43155 0.44212 -0.03600
C 	C 	0.72436 0.54592 0.41811 0.00900
C 	C 	0.76625 0.55749 0.41308 -0.04500
H 	H 	0.61009 0.34518 0.35701 0.03500
H 	H 	0.65473 0.44076 0.36049 0.03700
H 	H 	0.72173 0.52474 0.46864 0.03900
H 	H 	0.67695 0.42917 0.46511 0.03700
H 	H 	0.77434 0.52460 0.40636 0.03900
H 	H 	0.45781 0.20821 0.37758 0.03500
C 	C 	0.65121 0.38249 0.91556 -0.00600
C 	C 	0.68322 0.43289 0.94734 -0.03500
C 	C 	0.70941 0.48740 0.94994 -0.04300
C 	C 	0.70371 0.49190 0.92076 0.00600
C 	C 	0.66970 0.44156 0.88865 -0.04300
C 	C 	0.64356 0.38706 0.88606 -0.03600
C 	C 	0.73612 0.54891 0.92428 0.00900
C 	C 	0.77682 0.56034 0.91815 -0.04500
H 	H 	0.68933 0.42977 0.97025 0.03700
H 	H 	0.73543 0.52604 0.97482 0.04000
H 	H 	0.66455 0.44464 0.86589 0.03800
H 	H 	0.61860 0.34837 0.86136 0.03600
H 	H 	0.78427 0.52723 0.91058 0.04000
H 	H 	0.59017 0.23609 0.97649 0.03600
Zn	Zn	0.00608 0.04378 0.00930 1.19300
H 	H 	0.07822 0.03202 0.01152 0.15700
Zn	Zn	0.99715 0.04028 0.50595 1.20000
H 	H 	0.07052 0.02961 0.50947 0.15900
C 	C 	0.08122 0.05777 0.15119 -0.07100
H 	H 	0.18407 0.00955 0.49534 0.00100
O 	O 	0.03695 0.04634 0.05420 -0.47500
O 	O 	0.02634 0.04186 0.55060 -0.49000
C 	C 	0.06578 0.05060 0.61770 0.00200
C 	C 	0.06789 0.05106 0.64687 -0.08600
C 	C 	0.04061 0.01034 0.23514 -0.01600
C 	C 	0.07869 0.05623 0.12175 0.01800
H 	H 	0.12515 0.04514 0.71292 0.03900
H 	H 	0.12015 0.04914 0.76226 0.03200
C 	C 	0.08237 0.02857 0.73669 -0.02300
O 	O 	0.03814 0.01337 0.99394 -0.90600
C 	C 	0.04835 0.00824 0.18001 -0.01600
C 	C 	0.05143 0.00617 0.15065 0.01300
O 	O 	0.03064 0.01102 0.49143 -0.90900
C 	C 	0.08519 0.02620 0.70875 -0.06800
C 	C 	0.04599 0.00301 0.09140 -0.11200
C 	C 	0.03526 0.00199 0.05869 0.30000
Zn	Zn	0.01257 0.00332 0.44705 1.20900
Zn	Zn	0.01805 0.00462 0.94910 1.20900
C 	C 	0.02471 0.00746 0.81754 -0.11600
C 	C 	0.02772 0.00511 0.76082 0.02200
C 	C 	0.03082 0.00402 0.73157 -0.03800
H 	H 	0.84609 0.00136 0.89840 0.00900
H 	H 	0.35231 0.56899 0.03441 0.03800
C 	C 	0.35905 0.57259 0.51476 -0.04300
C 	C 	0.35510 0.57373 0.01384 -0.04400
H 	H 	0.68229 0.58047 0.43097 0.03900
H 	H 	0.69583 0.58386 0.93913 0.03900
C 	C 	0.35990 0.58590 0.46010 -0.03600
C 	C 	0.71457 0.58902 0.42708 -0.04500
C 	C 	0.36167 0.58664 0.96062 -0.03700
H 	H 	0.35942 0.59077 0.43870 0.03700
H 	H 	0.36355 0.59135 0.93979 0.03600
C 	C 	0.72717 0.59229 0.93437 -0.04500
C 	C 	0.79817 0.61176 0.41710 -0.03000
H 	H 	0.83050 0.62037 0.41325 0.03600
C 	C 	0.80825 0.61467 0.92205 -0.03000
H 	H 	0.83958 0.62312 0.91727 0.03600
C 	C 	0.07119 0.99063 0.22908 -0.02300
C 	C 	0.38656 0.62808 0.51882 -0.03600
C 	C 	0.38596 0.63578 0.99115 -0.00300
C 	C 	0.38314 0.62912 0.01791 -0.03800
C 	C 	0.07489 0.98943 0.20155 -0.02400
C 	C 	0.38625 0.63495 0.49130 -0.00500
C 	C 	0.74656 0.64332 0.43111 -0.02900
C 	C 	0.78850 0.65481 0.42621 -0.01300
C 	C 	0.79930 0.65794 0.93215 -0.01300
C 	C 	0.75869 0.64665 0.93828 -0.02900
H 	H 	0.40698 0.66571 0.54304 0.03700
H 	H 	0.40190 0.66682 0.04160 0.03600
H 	H 	0.73881 0.67641 0.43808 0.03800
H 	H 	0.75150 0.67992 0.94604 0.03700
C 	C 	0.41086 0.69384 0.99410 0.03100
H 	H 	0.47678 0.69349 0.99255 0.04900
C 	C 	0.40870 0.69293 0.49397 0.03400
H 	H 	0.34713 0.70233 0.49694 0.05200
H 	H 	0.47404 0.69532 0.49047 0.05000
C 	C 	0.82152 0.71073 0.43044 0.05300
C 	C 	0.38647 0.72485 0.99597 -0.07600
C 	C 	0.45780 0.71737 0.99392 -0.07600
H 	H 	0.34967 0.70629 0.99557 0.05000
C 	C 	0.38297 0.72213 0.49648 -0.08100
C 	C 	0.45443 0.71811 0.49276 -0.07900
H 	H 	0.48620 0.72363 0.94352 0.03600
C 	C 	0.83148 0.71376 0.93596 0.05300
H 	H 	0.09196 0.97618 0.24566 0.03800
H 	H 	0.09836 0.97392 0.19696 0.03800
C 	C 	0.48003 0.77161 0.99528 0.03100
C 	C 	0.40857 0.77907 0.99741 0.03100
C 	C 	0.47433 0.77239 0.49400 0.03400
C 	C 	0.40248 0.77606 0.49754 0.04600
H 	H 	0.60968 0.78518 0.43300 0.03900
C 	C 	0.52428 0.76474 0.96474 -0.03600
H 	H 	0.56628 0.76340 0.94065 0.03900
C 	C 	0.84898 0.75754 0.43390 -0.12000
C 	C 	0.85823 0.76044 0.93901 -0.12000
C 	C 	0.45541 0.80244 0.99712 -0.07600
C 	C 	0.44829 0.80137 0.49648 -0.08100
C 	C 	0.88952 0.81598 0.94248 0.34000
C 	C 	0.88109 0.81327 0.43787 0.34000
O 	O 	0.85758 0.82657 0.41403 -0.46600
C 	C 	0.52124 0.79796 0.49151 -0.00500
C 	C 	0.57333 0.81129 0.51675 -0.03500
C 	C 	0.51362 0.80795 0.46348 -0.03500
H 	H 	0.57970 0.80403 0.53857 0.03700
H 	H 	0.47356 0.79773 0.44384 0.03800
H 	H 	0.68550 0.81820 0.42587 0.03700
C 	C 	0.37347 0.80382 0.49785 -0.02900
H 	H 	0.13061 0.80739 0.43846 0.04600
H 	H 	0.27784 0.79920 0.51604 0.04000
C 	C 	0.52805 0.79530 0.99367 -0.00300
C 	C 	0.56956 0.78733 0.96306 -0.04300
H 	H 	0.68094 0.79687 0.99296 0.04000
C 	C 	0.38089 0.80994 0.99747 -0.00300
C 	C 	0.35536 0.81792 0.96900 -0.03600
H 	H 	0.35849 0.80429 0.94776 0.03800
H 	H 	0.22458 0.80442 0.99082 0.03900
O 	O 	0.86493 0.82883 0.91868 -0.46600
C 	C 	0.61718 0.83358 0.51370 -0.04200
C 	C 	0.55749 0.83035 0.46048 -0.04200
C 	C 	0.64795 0.82740 0.45217 -0.04500
H 	H 	0.55108 0.83752 0.43862 0.04000
C 	C 	0.27863 0.82913 0.50584 -0.04700
C 	C 	0.34758 0.82525 0.49757 -0.01300
H 	H 	0.05898 0.82917 0.41931 0.02200
H 	H 	0.21313 0.82996 0.50741 0.03600
C 	C 	0.69414 0.83516 0.98989 -0.04400
H 	H 	0.75815 0.83239 0.98716 0.03900
C 	C 	0.37649 0.82770 0.02481 -0.03700
H 	H 	0.39638 0.82206 0.04700 0.03700
H 	H 	0.15634 0.83086 0.97872 0.03400
C 	C 	0.69091 0.84609 0.44816 -0.02900
H 	H 	0.47216 0.84408 0.99784 0.05100
H 	H 	0.46330 0.84311 0.49722 0.05300
O 	O 	0.94284 0.85148 0.96827 -0.45600
O 	O 	0.93412 0.84851 0.46419 -0.45600
C 	C 	0.60933 0.84279 0.48541 0.00700
H 	H 	0.65699 0.84290 0.53302 0.04000
C 	C 	0.14232 0.85147 0.45103 -0.07800
C 	C 	0.24195 0.84648 0.50092 -0.03300
C 	C 	0.31490 0.84882 0.49654 0.01900
C 	C 	0.57744 0.84883 0.02083 -0.03700
C 	C 	0.61896 0.84076 0.99024 0.00800
C 	C 	0.32408 0.84160 0.96731 -0.04200
C 	C 	0.23255 0.84306 0.98826 -0.04500
H 	H 	0.30325 0.84610 0.94477 0.04000
C 	C 	0.73792 0.85535 0.98667 -0.02900
C 	C 	0.65457 0.86294 0.48104 0.01000
C 	C 	0.10176 0.86387 0.44012 0.02700
C 	C 	0.62269 0.87151 0.01908 -0.04300
C 	C 	0.66702 0.86393 0.98871 0.01000
C 	C 	0.34521 0.85141 0.02313 -0.04300
C 	C 	0.31809 0.85753 0.99409 0.00800
C 	C 	0.19388 0.85800 0.98137 -0.02900
H 	H 	0.34119 0.86401 0.04405 0.03900
H 	H 	0.98488 0.90432 0.56428 0.04400
H 	H 	0.98966 0.90529 0.61605 0.05400
C 	C 	0.24132 0.88366 0.48664 -0.00700
C 	C 	0.31579 0.88768 0.48350 -0.04600
H 	H 	0.58081 0.87269 0.04330 0.03800
C 	C 	0.28043 0.87679 0.99058 0.01000
O 	O 	0.04053 0.90650 0.90843 -0.50300
Zn	Zn	0.89725 0.90560 0.91954 1.17700
O 	O 	0.03558 0.90502 0.40724 -0.50100
Zn	Zn	0.89081 0.90392 0.41571 1.17700
H 	H 	0.98955 0.91295 0.74182 0.05200
C 	C 	0.74083 0.90036 0.47296 -0.01200
C 	C 	0.78552 0.91859 0.46915 0.05500
C 	C 	0.19808 0.89610 0.47739 0.03700
C 	C 	0.27917 0.90515 0.47861 -0.03200
H 	H 	0.34380 0.90318 0.47631 0.04300
C 	C 	0.75487 0.90439 0.98224 -0.01100
C 	C 	0.20281 0.90671 0.97678 -0.01600
H 	H 	0.99337 0.90981 0.06838 0.04100
C 	C 	0.68472 0.91371 0.98494 -0.04400
O 	O 	0.85688 0.93067 0.93219 -0.47600
O 	O 	0.96707 0.92580 0.93478 -0.78900
Zn	Zn	0.98461 0.93119 0.47972 1.19300
O 	O 	0.84932 0.92824 0.42747 -0.47500
O 	O 	0.96095 0.92427 0.43193 -0.79000
H 	H 	0.99851 0.91271 0.12055 0.05300
C 	C 	0.70452 0.91744 0.50580 -0.04400
C 	C 	0.82205 0.93200 0.46516 -0.11800
C 	C 	0.79740 0.92257 0.97654 0.05600
H 	H 	0.66073 0.91271 0.04023 0.04100
C 	C 	0.15993 0.91790 0.96544 0.05500
H 	H 	0.98682 0.91490 0.79161 0.02000
C 	C 	0.01107 0.94591 0.61664 -0.07700
H 	H 	0.94216 0.95805 0.69416 0.03300
Zn	Zn	0.99266 0.93391 0.98302 1.19300
C 	C 	0.00873 0.94539 0.58738 0.01100
C 	C 	0.72849 0.93382 0.98165 -0.02800
C 	C 	0.83249 0.93587 0.97130 -0.11800
C 	C 	0.87348 0.94906 0.96445 0.34000
O 	O 	0.92251 0.96198 0.98810 -0.46800
O 	O 	0.02351 0.95639 0.03430 -0.42500
C 	C 	0.08090 0.93745 0.94157 0.33700
C 	C 	0.86429 0.94542 0.45937 0.33900
O 	O 	0.91284 0.95808 0.48359 -0.46800
O 	O 	0.01405 0.95252 0.53070 -0.44000
C 	C 	0.07517 0.93529 0.44059 0.32000
C 	C 	0.03947 0.99876 0.64619 0.04300
C 	C 	0.03483 0.99778 0.58742 -0.08200
C 	C 	0.02132 0.95280 0.12107 -0.06000
C 	C 	0.01862 0.95118 0.09155 0.02700
H 	H 	0.98974 0.91728 0.29186 0.02000
H 	H 	0.99625 0.91756 0.24356 0.05000
C 	C 	0.74754 0.93607 0.50176 -0.02800
H 	H 	0.70998 0.94528 0.52812 0.04200
C 	C 	0.11658 0.92110 0.45542 -0.12200
C 	C 	0.21271 0.95292 0.49369 -0.08400
H 	H 	0.27904 0.93393 0.46761 0.04100
H 	H 	0.74134 0.97175 0.97820 0.04100
H 	H 	0.66402 0.93622 0.98401 0.04200
C 	C 	0.29025 0.92674 0.98719 -0.04400
C 	C 	0.25151 0.94159 0.98027 -0.02800
C 	C 	0.12378 0.92685 0.95504 -0.13400
H 	H 	0.32728 0.95329 0.98919 0.04300
Zn	Zn	0.01263 0.94358 0.88542 1.18300
Zn	Zn	0.00953 0.94322 0.38434 1.18300
C 	C 	0.00529 0.95369 0.76234 -0.06700
C 	C 	0.00386 0.95485 0.79058 0.02800
C 	C 	0.17209 0.96534 0.48294 0.05000
C 	C 	0.01161 0.95792 0.26421 -0.06200
C 	C 	0.02484 0.99748 0.55496 0.33100
H 	H 	0.78605 0.97806 0.52106 0.04100
C 	C 	0.03647 0.99942 0.67549 0.01500
O 	O 	0.03931 0.97619 0.86055 -0.46300
O 	O 	0.03837 0.97651 0.36047 -0.46200
C 	C 	0.98493 0.97493 0.67041 -0.04600
C 	C 	0.98212 0.97711 0.69833 -0.00000
H 	H 	0.94713 0.95464 0.64490 0.04400
H 	H 	0.25872 0.97939 0.97680 0.04300
O 	O 	0.99709 0.99489 0.90383 -0.86000
O 	O 	0.08831 0.98491 0.96071 -0.45200
H 	H 	0.95805 0.98223 0.88822 0.15200
O 	O 	0.99344 0.99440 0.40218 -0.86000
O 	O 	0.08276 0.98311 0.45958 -0.44900
H 	H 	0.95452 0.98175 0.38616 0.15200
C 	C 	0.00782 0.95776 0.29155 0.02700
H 	H 	0.25562 0.98757 0.51429 0.05400
