data_crystal

_cell_length_a 15.27294
_cell_length_b 15.01893
_cell_length_c 45.11586
_cell_angle_alpha 95.40048
_cell_angle_beta  95.39582
_cell_angle_gamma 126.69922

_symmetry_space_group_name_	'P 1'
_symmetry_space_group_name_H-M	'P 1'

loop_
_symmetry_equiv_pos_as_xyz
  x,y,z

loop_
_atom_site_label
_atom_site_type_symbol
_atom_site_fract_x
_atom_site_fract_y
_atom_site_fract_z
_atom_site_charge
C 	C 	0.08878 0.05860 0.49268 0.10800
C 	C 	0.94536 0.04115 0.99997 0.09000
C 	C 	0.09932 0.04160 0.99847 0.10900
N 	N 	0.05529 0.09801 0.99926 -0.12500
C 	C 	0.92218 0.03725 0.48554 0.08900
N 	N 	0.03353 0.10146 0.48662 -0.12600
Cu	Cu	0.78236 0.35326 0.96854 0.92900
Cu	Cu	0.77762 0.26624 0.03339 0.87100
Cu	Cu	0.60689 0.29178 0.00741 0.89700
Cu	Cu	0.58576 0.36259 0.94904 0.89500
C 	C 	0.70606 0.33117 0.90559 0.30600
O 	O 	0.85417 0.51823 0.96975 -0.36800
C 	C 	0.67938 0.32567 0.07353 0.30800
O 	O 	0.61052 0.26686 0.96538 -0.64100
O 	O 	0.77002 0.36723 0.01187 -0.64100
O 	O 	0.86350 0.28743 0.96979 -0.37300
O 	O 	0.75521 0.16557 0.99964 -0.44200
O 	O 	0.66450 0.38324 0.91422 -0.38200
O 	O 	0.44782 0.21183 0.00003 -0.38700
C 	C 	0.39274 0.23310 0.98144 0.30700
O 	O 	0.70954 0.50409 0.98522 -0.39300
O 	O 	0.43991 0.30095 0.96179 -0.39400
O 	O 	0.76450 0.31749 0.92547 -0.36100
C 	C 	0.83180 0.20087 0.98289 0.30600
O 	O 	0.59737 0.28701 0.05062 -0.39000
O 	O 	0.76880 0.33527 0.06956 -0.42200
H 	H 	0.55954 0.18659 0.95506 0.16600
H 	H 	0.81702 0.44555 0.02355 0.17000
Cu	Cu	0.58875 0.17538 0.50694 0.92900
Cu	Cu	0.63678 0.14958 0.43862 0.86600
Cu	Cu	0.61473 0.32722 0.46270 0.89600
Cu	Cu	0.60877 0.39385 0.52609 0.89400
C 	C 	0.65539 0.28175 0.56959 0.30900
O 	O 	0.43685 0.12063 0.51402 -0.37000
C 	C 	0.56745 0.23982 0.39778 0.30000
O 	O 	0.67783 0.34702 0.50394 -0.64300
O 	O 	0.54733 0.16536 0.46330 -0.64100
O 	O 	0.64060 0.08183 0.50319 -0.37700
O 	O 	0.74852 0.17752 0.46943 -0.44400
O 	O 	0.60673 0.32807 0.56286 -0.38300
O 	O 	0.69104 0.48690 0.46273 -0.38700
C 	C 	0.38798 0.16068 0.50223 0.30400
O 	O 	0.44814 0.26441 0.49681 -0.39500
O 	O 	0.65351 0.21232 0.54885 -0.36400
C 	C 	0.72199 0.10947 0.48893 0.30800
O 	O 	0.56208 0.30177 0.41922 -0.37800
O 	O 	0.55923 0.15034 0.40282 -0.42000
H 	H 	0.76011 0.39722 0.50878 0.16300
H 	H 	0.46669 0.11250 0.45476 0.17300
C 	C 	0.72522 0.28192 0.65912 -0.00700
C 	C 	0.65736 0.18237 0.67049 -0.03000
C 	C 	0.66685 0.18603 0.70180 -0.04300
C 	C 	0.74441 0.28936 0.72190 0.00900
C 	C 	0.81682 0.38769 0.71042 -0.04300
C 	C 	0.80705 0.38394 0.67912 -0.03100
C 	C 	0.74142 0.29690 0.75459 0.00900
C 	C 	0.76315 0.23651 0.77170 -0.04300
C 	C 	0.75613 0.24077 0.80246 -0.03100
C 	C 	0.72728 0.30527 0.81620 -0.00700
C 	C 	0.70593 0.36576 0.79915 -0.03000
C 	C 	0.71284 0.36156 0.76847 -0.04200
C 	C 	0.72055 0.31070 0.84786 0.04600
C 	C 	0.71386 0.31799 0.87427 -0.10200
C 	C 	0.70207 0.28194 0.62744 0.04700
C 	C 	0.68275 0.28203 0.60091 -0.10200
H 	H 	0.59437 0.10300 0.65514 0.04100
H 	H 	0.61094 0.10955 0.71042 0.04100
H 	H 	0.87791 0.46763 0.72576 0.04100
H 	H 	0.86033 0.46109 0.67049 0.03800
H 	H 	0.78521 0.18629 0.76119 0.04000
H 	H 	0.77301 0.19398 0.81553 0.03900
H 	H 	0.68368 0.41586 0.80965 0.04200
H 	H 	0.69498 0.40767 0.75540 0.04300
C 	C 	0.63059 0.35348 0.16023 -0.01000
C 	C 	0.71966 0.40055 0.18436 -0.03200
C 	C 	0.70125 0.39545 0.21413 -0.04400
C 	C 	0.59348 0.34332 0.21997 0.00900
C 	C 	0.50518 0.30065 0.19587 -0.04400
C 	C 	0.52372 0.30564 0.16608 -0.03100
C 	C 	0.57188 0.32512 0.25088 0.00800
C 	C 	0.62689 0.41768 0.27501 -0.04400
C 	C 	0.61779 0.39989 0.30481 -0.03100
C 	C 	0.55348 0.28959 0.31065 -0.00900
C 	C 	0.49438 0.19711 0.28649 -0.03200
C 	C 	0.50357 0.21474 0.25670 -0.04400
C 	C 	0.55686 0.27146 0.34138 0.04400
C 	C 	0.55996 0.25673 0.36715 -0.11000
C 	C 	0.64697 0.34453 0.12949 0.04600
C 	C 	0.66182 0.33759 0.10387 -0.11200
H 	H 	0.80255 0.43797 0.18000 0.03600
H 	H 	0.77000 0.42870 0.23255 0.03800
H 	H 	0.42188 0.26118 0.20016 0.04100
H 	H 	0.45452 0.26951 0.14754 0.04000
H 	H 	0.67894 0.50320 0.27075 0.04000
H 	H 	0.66327 0.47181 0.32338 0.03900
H 	H 	0.44415 0.11159 0.29083 0.03700
H 	H 	0.46067 0.14270 0.23824 0.03900
C 	C 	0.86387 0.08597 0.47987 -0.01600
C 	C 	0.77984 0.05973 0.49399 -0.14400
H 	H 	0.89437 0.14905 0.46549 0.03700
H 	H 	0.75338 0.00080 0.50955 0.08200
C 	C 	0.21094 0.13183 0.49568 -0.01000
C 	C 	0.26581 0.08784 0.49490 -0.15000
H 	H 	0.25663 0.22292 0.49896 0.04800
C 	C 	0.89875 0.10224 0.00332 -0.01700
C 	C 	0.88906 0.14974 0.98079 -0.14400
H 	H 	0.86242 0.09915 0.02315 0.02200
H 	H 	0.92646 0.15379 0.96111 0.07900
C 	C 	0.27526 0.18131 0.98278 -0.12800
C 	C 	0.21957 0.10294 0.99994 -0.01600
H 	H 	0.23261 0.20438 0.96869 0.08100
H 	H 	0.26055 0.07609 0.01304 0.05200
O 	O 	0.67388 0.53793 0.51066 -0.39100
C 	C 	0.81470 0.56585 0.98269 0.30000
C 	C 	0.71453 0.56448 0.48550 0.30600
H 	H 	0.22014 0.99674 0.49122 0.09500
N 	N 	0.87985 0.92844 0.99977 -0.12800
C 	C 	0.92313 0.87178 0.99852 0.10700
N 	N 	0.03330 0.92890 0.99831 -0.11800
N 	N 	0.86520 0.92849 0.48969 -0.12600
C 	C 	0.92016 0.88517 0.49573 0.10500
N 	N 	0.03210 0.95085 0.49774 -0.11900
C 	C 	0.85931 0.76872 0.50126 -0.01700
C 	C 	0.77258 0.68146 0.48066 -0.12800
H 	H 	0.88965 0.75340 0.52142 0.04000
H 	H 	0.74862 0.69606 0.45928 0.07900
C 	C 	0.88860 0.68857 0.99374 -0.13400
C 	C 	0.84850 0.74743 0.99473 -0.01700
H 	H 	0.97779 0.73250 0.99815 0.07700
H 	H 	0.75919 0.70307 0.99079 0.04800
