data_crystal

_cell_length_a 23.41753
_cell_length_b 22.90748
_cell_length_c 23.63418
_cell_angle_alpha 90.00025
_cell_angle_beta  90.00474
_cell_angle_gamma 90.00014

_symmetry_space_group_name_	'P 1'
_symmetry_space_group_name_H-M	'P 1'

loop_
_symmetry_equiv_pos_as_xyz
  x,y,z

loop_
_atom_site_label
_atom_site_type_symbol
_atom_site_fract_x
_atom_site_fract_y
_atom_site_fract_z
_atom_site_charge
C 	C 	0.30245 0.39470 0.17007 0.31500
C 	C 	0.19415 0.57657 0.31437 0.33900
C 	C 	0.17944 0.37559 0.28330 0.33900
C 	C 	0.31103 0.57891 0.20746 0.31500
C 	C 	0.07823 0.48930 0.20256 0.34400
C 	C 	0.19300 0.51233 0.07763 0.32200
Ni	Ni	0.26243 0.47361 0.26720 1.11400
Ni	Ni	0.18277 0.56114 0.19211 1.12000
Ni	Ni	0.17941 0.42300 0.16786 1.12400
O 	O 	0.29956 0.40107 0.22625 -0.35600
O 	O 	0.25567 0.39551 0.13830 -0.38400
O 	O 	0.10164 0.53441 0.17621 -0.38200
O 	O 	0.24052 0.54421 0.31991 -0.36900
O 	O 	0.15805 0.56663 0.27343 -0.40200
O 	O 	0.16141 0.46815 0.09625 -0.38600
O 	O 	0.20198 0.42188 0.30745 -0.37700
O 	O 	0.19089 0.36353 0.23028 -0.38500
O 	O 	0.20067 0.55967 0.10896 -0.39300
O 	O 	0.32309 0.52954 0.23426 -0.37900
O 	O 	0.25891 0.60307 0.21004 -0.37200
O 	O 	0.10295 0.43794 0.20194 -0.39900
O 	O 	0.21787 0.48740 0.20236 -0.71400
H 	H 	0.24848 0.49246 0.17430 0.14500
C 	C 	0.82674 0.41783 0.31745 0.31500
C 	C 	0.69076 0.58187 0.17642 0.33800
C 	C 	0.73693 0.37289 0.18652 0.34300
C 	C 	0.78602 0.59493 0.29591 0.31200
C 	C 	0.82195 0.47881 0.08085 0.33800
C 	C 	0.93286 0.53135 0.19973 0.31800
Ni	Ni	0.73245 0.48372 0.25288 1.11300
Ni	Ni	0.81449 0.56735 0.17401 1.11900
Ni	Ni	0.84787 0.43274 0.19452 1.12300
O 	O 	0.77138 0.42093 0.30476 -0.36700
O 	O 	0.86673 0.42010 0.27734 -0.38000
O 	O 	0.83894 0.53086 0.09929 -0.38100
O 	O 	0.67640 0.54323 0.21511 -0.37000
O 	O 	0.73448 0.57225 0.14324 -0.39800
O 	O 	0.91966 0.47952 0.17789 -0.38200
O 	O 	0.70545 0.41931 0.19650 -0.37000
O 	O 	0.78874 0.36955 0.20711 -0.38500
O 	O 	0.89646 0.57554 0.19793 -0.39100
O 	O 	0.75164 0.55078 0.30867 -0.37800
O 	O 	0.78924 0.61598 0.24319 -0.37500
O 	O 	0.82431 0.43239 0.11352 -0.39700
O 	O 	0.80272 0.49797 0.21618 -0.71500
H 	H 	0.82649 0.50885 0.24874 0.13900
C 	C 	0.58088 0.79632 0.32310 0.31800
C 	C 	0.38464 0.71038 0.18723 0.33800
C 	C 	0.57093 0.67839 0.20326 0.33500
C 	C 	0.39232 0.82299 0.30621 0.31800
C 	C 	0.51400 0.80751 0.08744 0.34600
C 	C 	0.51170 0.92993 0.19831 0.31300
Ni	Ni	0.47859 0.73232 0.27239 1.11600
Ni	Ni	0.43396 0.82948 0.18383 1.12200
Ni	Ni	0.56830 0.80913 0.19899 1.12100
O 	O 	0.55516 0.74490 0.31686 -0.37400
O 	O 	0.59585 0.82806 0.27836 -0.37400
O 	O 	0.47332 0.84156 0.10805 -0.38800
O 	O 	0.39892 0.70811 0.24103 -0.37000
O 	O 	0.40392 0.75222 0.15427 -0.39200
O 	O 	0.55449 0.89568 0.17999 -0.38100
O 	O 	0.51646 0.67598 0.21547 -0.38700
O 	O 	0.60033 0.72681 0.21245 -0.37000
O 	O 	0.45901 0.90971 0.20577 -0.38800
O 	O 	0.43260 0.78688 0.32473 -0.37600
O 	O 	0.37834 0.82588 0.25134 -0.37600
O 	O 	0.55007 0.78097 0.12107 -0.40200
O 	O 	0.49370 0.79825 0.22846 -0.72200
H 	H 	0.49502 0.82839 0.25813 0.15400
C 	C 	0.61709 0.29261 0.16183 0.31800
C 	C 	0.42540 0.23859 0.32122 0.33600
C 	C 	0.61118 0.18684 0.28646 0.33900
C 	C 	0.43328 0.34155 0.19837 0.31800
C 	C 	0.47776 0.08724 0.20333 0.34100
C 	C 	0.47160 0.19788 0.08222 0.32000
Ni	Ni	0.53061 0.28306 0.25922 1.11500
Ni	Ni	0.42866 0.20885 0.19936 1.12200
Ni	Ni	0.55913 0.17794 0.17181 1.12200
O 	O 	0.60853 0.29819 0.21727 -0.36500
O 	O 	0.59703 0.24695 0.13340 -0.38700
O 	O 	0.43412 0.12093 0.18888 -0.38500
O 	O 	0.46010 0.28296 0.31309 -0.37700
O 	O 	0.42267 0.19550 0.28429 -0.38200
O 	O 	0.50990 0.16087 0.10312 -0.38900
O 	O 	0.56669 0.21580 0.30531 -0.38000
O 	O 	0.62143 0.18362 0.23178 -0.38400
O 	O 	0.42873 0.21738 0.11406 -0.38500
O 	O 	0.48630 0.34862 0.21741 -0.37800
O 	O 	0.40292 0.29378 0.21062 -0.36800
O 	O 	0.52821 0.10954 0.21437 -0.39500
O 	O 	0.50621 0.23244 0.20187 -0.71700
H 	H 	0.50545 0.26008 0.17004 0.15100
C 	C 	0.61749 0.15466 0.70870 0.33100
C 	C 	0.42347 0.30449 0.76950 0.32900
C 	C 	0.60943 0.28697 0.78661 0.32800
C 	C 	0.39783 0.18588 0.71890 0.31600
C 	C 	0.52348 0.20201 0.93479 0.32800
C 	C 	0.49162 0.07979 0.84383 0.31600
Ni	Ni	0.51747 0.23170 0.71940 1.11200
Ni	Ni	0.44682 0.19870 0.83685 1.11800
Ni	Ni	0.58398 0.16748 0.82931 1.11700
O 	O 	0.56840 0.16748 0.68547 -0.37600
O 	O 	0.61918 0.13002 0.75905 -0.38400
O 	O 	0.48029 0.22776 0.90968 -0.38100
O 	O 	0.46644 0.30401 0.73403 -0.39100
O 	O 	0.42974 0.28348 0.82069 -0.38500
O 	O 	0.54735 0.08983 0.85000 -0.37600
O 	O 	0.58968 0.28011 0.73523 -0.38700
O 	O 	0.63019 0.24167 0.81453 -0.37100
O 	O 	0.45364 0.11615 0.86515 -0.38900
O 	O 	0.44757 0.18435 0.69315 -0.38200
O 	O 	0.39316 0.17221 0.77334 -0.38800
O 	O 	0.57279 0.19771 0.90858 -0.38600
O 	O 	0.51518 0.19459 0.79123 -0.69700
H 	H 	0.50657 0.15677 0.77348 0.12800
C 	C 	0.84065 0.30226 0.58823 0.32100
C 	C 	0.69519 0.20347 0.41029 0.34000
C 	C 	0.70880 0.21380 0.59785 0.34300
C 	C 	0.83715 0.29474 0.39613 0.32000
C 	C 	0.78231 0.06919 0.49351 0.34200
C 	C 	0.92418 0.15700 0.48956 0.31700
Ni	Ni	0.75633 0.27648 0.49543 1.11400
Ni	Ni	0.81589 0.17097 0.42550 1.12300
Ni	Ni	0.82209 0.17204 0.56136 1.12200
O 	O 	0.81997 0.32057 0.53901 -0.38300
O 	O 	0.83090 0.24811 0.60761 -0.37300
O 	O 	0.76845 0.10318 0.45087 -0.39800
O 	O 	0.69009 0.22872 0.45983 -0.38300
O 	O 	0.74524 0.20110 0.38519 -0.38000
O 	O 	0.90568 0.16910 0.54162 -0.38300
O 	O 	0.71951 0.26480 0.57467 -0.38200
O 	O 	0.73893 0.16737 0.58443 -0.38600
O 	O 	0.88977 0.13360 0.45113 -0.38800
O 	O 	0.78481 0.30458 0.41588 -0.36800
O 	O 	0.85750 0.24075 0.39218 -0.38300
O 	O 	0.81596 0.08796 0.53471 -0.37800
O 	O 	0.80768 0.21400 0.49372 -0.71800
H 	H 	0.84378 0.23586 0.49199 0.15200
C 	C 	0.16833 0.30726 0.41073 0.32100
C 	C 	0.30853 0.21149 0.59439 0.34700
C 	C 	0.29953 0.20670 0.40801 0.33600
C 	C 	0.17285 0.30619 0.60349 0.31600
C 	C 	0.21489 0.07618 0.50811 0.34100
C 	C 	0.07791 0.16848 0.51258 0.32100
Ni	Ni	0.25236 0.28046 0.50318 1.11400
Ni	Ni	0.18783 0.18025 0.57549 1.12300
Ni	Ni	0.18017 0.17847 0.44028 1.12200
O 	O 	0.19271 0.32773 0.45733 -0.38100
O 	O 	0.17867 0.25317 0.39221 -0.37700
O 	O 	0.23224 0.10963 0.55013 -0.39200
O 	O 	0.31461 0.23044 0.54243 -0.38900
O 	O 	0.25777 0.20881 0.61753 -0.38700
O 	O 	0.09665 0.18243 0.46093 -0.38500
O 	O 	0.28956 0.26051 0.42520 -0.37500
O 	O 	0.26338 0.16447 0.41980 -0.38800
O 	O 	0.11246 0.14540 0.55108 -0.38800
O 	O 	0.22464 0.31439 0.58124 -0.36600
O 	O 	0.14978 0.25307 0.60694 -0.38100
O 	O 	0.17864 0.09616 0.47019 -0.38600
O 	O 	0.19712 0.22177 0.50667 -0.71900
H 	H 	0.16241 0.24595 0.50807 0.15400
C 	C 	0.18842 0.43500 0.67972 0.32100
C 	C 	0.33232 0.57529 0.83124 0.34100
C 	C 	0.29421 0.39032 0.79157 0.34500
C 	C 	0.22772 0.63509 0.73959 0.33500
C 	C 	0.19711 0.47594 0.92753 0.34200
C 	C 	0.08481 0.52242 0.82198 0.32000
Ni	Ni	0.27489 0.50844 0.74108 1.11500
Ni	Ni	0.20410 0.56838 0.84340 1.12300
Ni	Ni	0.17815 0.43626 0.80930 1.12400
O 	O 	0.21904 0.48383 0.67710 -0.37800
O 	O 	0.18304 0.40472 0.72788 -0.37200
O 	O 	0.22905 0.51860 0.90822 -0.39200
O 	O 	0.33075 0.52397 0.80700 -0.38600
O 	O 	0.28452 0.60364 0.84251 -0.37900
O 	O 	0.10104 0.47261 0.79738 -0.38500
O 	O 	0.29498 0.42048 0.74444 -0.38200
O 	O 	0.25396 0.39891 0.82926 -0.38800
O 	O 	0.11950 0.55187 0.85654 -0.38300
O 	O 	0.27002 0.59869 0.72616 -0.37900
O 	O 	0.18792 0.62160 0.77726 -0.38800
O 	O 	0.16446 0.44547 0.89316 -0.38800
O 	O 	0.21112 0.50883 0.78827 -0.72000
H 	H 	0.18210 0.52201 0.76095 0.16200
C 	C 	0.18689 0.72768 0.63491 0.32600
C 	C 	0.31276 0.81089 0.43047 0.34500
C 	C 	0.28690 0.83226 0.61914 0.33400
C 	C 	0.21654 0.67407 0.43461 0.31600
C 	C 	0.18779 0.92395 0.48431 0.33600
C 	C 	0.07079 0.79899 0.48855 0.31800
Ni	Ni	0.26745 0.74351 0.53072 1.11500
Ni	Ni	0.18600 0.80479 0.43750 1.12200
Ni	Ni	0.16696 0.83328 0.56905 1.12200
O 	O 	0.23502 0.71253 0.60804 -0.37300
O 	O 	0.14671 0.75933 0.61033 -0.39400
O 	O 	0.16143 0.88856 0.44892 -0.38800
O 	O 	0.31397 0.76102 0.45787 -0.38400
O 	O 	0.26434 0.83814 0.42096 -0.38900
O 	O 	0.09001 0.83680 0.52744 -0.37400
O 	O 	0.30525 0.81400 0.56999 -0.39000
O 	O 	0.23167 0.84041 0.62801 -0.38200
O 	O 	0.10409 0.78011 0.44671 -0.38900
O 	O 	0.23596 0.67213 0.48725 -0.37800
O 	O 	0.21093 0.72451 0.40635 -0.37000
O 	O 	0.19517 0.90887 0.53740 -0.38800
O 	O 	0.20050 0.78334 0.51369 -0.72200
H 	H 	0.17386 0.75009 0.51589 0.15600
C 	C 	0.81134 0.71569 0.38465 0.32000
C 	C 	0.67556 0.78749 0.58289 0.33400
C 	C 	0.69642 0.82815 0.40626 0.33900
C 	C 	0.79309 0.66805 0.57747 0.32000
C 	C 	0.78697 0.91885 0.53602 0.33300
C 	C 	0.91763 0.81130 0.52135 0.31100
Ni	Ni	0.72909 0.72983 0.48188 1.11500
Ni	Ni	0.80209 0.79854 0.57800 1.12200
Ni	Ni	0.81680 0.83327 0.44705 1.12100
O 	O 	0.78658 0.68885 0.42824 -0.37700
O 	O 	0.81537 0.77387 0.38166 -0.37500
O 	O 	0.77294 0.88108 0.57567 -0.39300
O 	O 	0.66894 0.77582 0.52875 -0.38500
O 	O 	0.72407 0.77537 0.60862 -0.37400
O 	O 	0.89824 0.81250 0.46810 -0.37700
O 	O 	0.70235 0.77148 0.40910 -0.37900
O 	O 	0.73782 0.86296 0.42347 -0.38900
O 	O 	0.88422 0.82537 0.56508 -0.37900
O 	O 	0.74380 0.67469 0.55061 -0.37700
O 	O 	0.82504 0.71392 0.59245 -0.37700
O 	O 	0.82398 0.90478 0.49626 -0.38200
O 	O 	0.79000 0.77853 0.50105 -0.72200
H 	H 	0.82139 0.75013 0.49781 0.15100
C 	C 	0.61695 0.70718 0.82535 0.32400
C 	C 	0.41720 0.80717 0.70301 0.33500
C 	C 	0.60673 0.81680 0.71415 0.33600
C 	C 	0.41215 0.70647 0.83632 0.31200
C 	C 	0.50895 0.93605 0.80062 0.34000
C 	C 	0.49796 0.83834 0.93579 0.30800
Ni	Ni	0.51230 0.73721 0.75606 1.11100
Ni	Ni	0.43815 0.83338 0.82467 1.12200
Ni	Ni	0.57470 0.83366 0.83646 1.12400
O 	O 	0.56550 0.68868 0.80907 -0.37800
O 	O 	0.62699 0.76241 0.83992 -0.38200
O 	O 	0.46195 0.90791 0.78627 -0.38800
O 	O 	0.46928 0.78712 0.69563 -0.38800
O 	O 	0.39465 0.80863 0.75389 -0.38400
O 	O 	0.55046 0.82458 0.91826 -0.37200
O 	O 	0.58869 0.76249 0.71814 -0.37700
O 	O 	0.60257 0.85336 0.75713 -0.38900
O 	O 	0.46133 0.86471 0.90151 -0.37800
O 	O 	0.43548 0.69884 0.78505 -0.36800
O 	O 	0.40696 0.75925 0.85942 -0.38100
O 	O 	0.54305 0.91463 0.83937 -0.38700
O 	O 	0.50837 0.79239 0.81358 -0.72200
H 	H 	0.50709 0.76536 0.84597 0.15200
C 	C 	0.82650 0.57704 0.69251 0.32000
C 	C 	0.71127 0.38761 0.82445 0.33800
C 	C 	0.70138 0.57520 0.79949 0.33500
C 	C 	0.83350 0.37459 0.71773 0.31600
C 	C 	0.81231 0.50975 0.92978 0.33200
C 	C 	0.93567 0.49043 0.81873 0.31700
Ni	Ni	0.75224 0.47450 0.73707 1.11400
Ni	Ni	0.83159 0.42230 0.83759 1.12300
Ni	Ni	0.82762 0.56034 0.81703 1.12200
O 	O 	0.77553 0.55053 0.69196 -0.37000
O 	O 	0.85705 0.58177 0.73951 -0.38800
O 	O 	0.84284 0.46462 0.91215 -0.37800
O 	O 	0.71699 0.39808 0.76986 -0.36900
O 	O 	0.74995 0.40565 0.86068 -0.38900
O 	O 	0.90805 0.53579 0.84143 -0.37600
O 	O 	0.69389 0.52049 0.78524 -0.38500
O 	O 	0.75230 0.59997 0.79459 -0.37600
O 	O 	0.91405 0.43696 0.82071 -0.38600
O 	O 	0.80630 0.41877 0.69287 -0.37300
O 	O 	0.82598 0.36292 0.77256 -0.37500
O 	O 	0.79425 0.54960 0.89417 -0.39500
O 	O 	0.81158 0.48479 0.78866 -0.72000
H 	H 	0.84331 0.48189 0.76157 0.14900
C 	C 	0.65522 0.60751 0.81221 -0.11800
C 	C 	0.66049 0.66925 0.82977 -0.10700
H 	H 	0.61320 0.58731 0.81107 0.08800
H 	H 	0.70162 0.68504 0.84476 0.08600
C 	C 	0.84342 0.60761 0.64712 -0.11300
C 	C 	0.80547 0.61499 0.59780 -0.11100
H 	H 	0.88343 0.63165 0.64865 0.08600
H 	H 	0.78015 0.57786 0.58387 0.08000
C 	C 	0.62999 0.80323 0.61353 -0.11300
C 	C 	0.63685 0.83320 0.66864 -0.11500
H 	H 	0.58776 0.80154 0.59450 0.08100
H 	H 	0.66109 0.87365 0.66997 0.08400
C 	C 	0.01437 0.78789 0.48523 -0.11600
C 	C 	0.97413 0.80573 0.53079 -0.10200
H 	H 	0.99812 0.76314 0.44940 0.08800
H 	H 	0.99046 0.81200 0.57344 0.08200
C 	C 	0.32377 0.83813 0.66264 -0.11900
C 	C 	0.38511 0.82046 0.65737 -0.12100
H 	H 	0.30770 0.85272 0.70342 0.08700
H 	H 	0.40406 0.81690 0.61551 0.08500
C 	C 	0.98685 0.49772 0.79506 -0.11000
C 	C 	0.02954 0.53767 0.82012 -0.11200
H 	H 	0.00139 0.46493 0.76505 0.08500
H 	H 	0.01531 0.57668 0.84223 0.08600
C 	C 	0.38252 0.60300 0.83607 -0.12200
C 	C 	0.38569 0.66176 0.86194 -0.10400
H 	H 	0.42127 0.58256 0.82027 0.08200
H 	H 	0.36321 0.66948 0.90151 0.08400
C 	C 	0.22998 0.68906 0.71998 -0.11800
C 	C 	0.18080 0.71286 0.68909 -0.11800
H 	H 	0.27181 0.70751 0.71081 0.09100
H 	H 	0.14093 0.72129 0.71115 0.08300
C 	C 	0.20176 0.97797 0.46770 -0.10900
C 	C 	0.22915 0.01962 0.50778 -0.12000
H 	H 	0.19211 0.99193 0.42478 0.08500
H 	H 	0.25794 0.00301 0.54011 0.09300
C 	C 	0.14702 0.35047 0.63043 -0.10900
C 	C 	0.17220 0.40990 0.63106 -0.11200
H 	H 	0.10769 0.34253 0.65361 0.08000
H 	H 	0.18144 0.43139 0.59108 0.08000
C 	C 	0.76687 0.01294 0.49148 -0.12200
C 	C 	0.77070 0.97455 0.54161 -0.10700
H 	H 	0.74694 0.99600 0.45329 0.08600
H 	H 	0.75133 0.98896 0.58102 0.08400
C 	C 	0.97973 0.16147 0.47772 -0.10900
C 	C 	0.02213 0.16874 0.52348 -0.11700
H 	H 	0.99422 0.15351 0.43467 0.08600
H 	H 	0.00837 0.16368 0.56717 0.08800
C 	C 	0.86021 0.33493 0.68533 -0.10800
C 	C 	0.86311 0.34226 0.62308 -0.11300
H 	H 	0.87741 0.29554 0.70450 0.08300
H 	H 	0.87323 0.38527 0.60635 0.08300
C 	C 	0.47331 0.03343 0.81446 -0.11700
C 	C 	0.51377 0.99226 0.78836 -0.11100
H 	H 	0.42773 0.02505 0.81100 0.08600
H 	H 	0.55590 0.00856 0.77721 0.08700
C 	C 	0.37875 0.33825 0.75779 -0.12000
C 	C 	0.33280 0.34844 0.79988 -0.12000
H 	H 	0.37619 0.35879 0.71636 0.08700
H 	H 	0.33089 0.32228 0.83823 0.08600
C 	C 	0.35478 0.20074 0.62543 -0.12800
C 	C 	0.35070 0.18830 0.68722 -0.11000
H 	H 	0.39650 0.20391 0.60543 0.08900
H 	H 	0.30916 0.18357 0.70725 0.08600
C 	C 	0.66811 0.35425 0.84254 -0.11400
C 	C 	0.62005 0.34124 0.80435 -0.11100
H 	H 	0.66656 0.33975 0.88629 0.08900
H 	H 	0.60056 0.37749 0.78173 0.08200
C 	C 	0.66551 0.16327 0.67938 -0.11300
C 	C 	0.66705 0.21005 0.63597 -0.11800
H 	H 	0.70527 0.14393 0.69397 0.08200
H 	H 	0.63729 0.24628 0.63974 0.08200
C 	C 	0.47231 0.21024 0.02664 -0.12500
C 	C 	0.52277 0.19464 0.99116 -0.09600
H 	H 	0.43760 0.23554 0.00843 0.08800
H 	H 	0.56098 0.17788 0.01171 0.07500
C 	C 	0.34530 0.19515 0.37547 -0.11800
C 	C 	0.39041 0.23978 0.36626 -0.11400
H 	H 	0.35064 0.15167 0.35779 0.08900
H 	H 	0.39376 0.27603 0.39581 0.08400
C 	C 	0.65067 0.16787 0.32290 -0.11400
C 	C 	0.64838 0.18511 0.38328 -0.12100
H 	H 	0.68810 0.14505 0.30698 0.08500
H 	H 	0.60720 0.18784 0.40440 0.09100
C 	C 	0.52016 0.98793 0.20113 -0.10000
C 	C 	0.47057 0.02916 0.20391 -0.12400
H 	H 	0.56312 0.00510 0.19589 0.07700
H 	H 	0.42752 0.01199 0.19942 0.09100
C 	C 	0.52209 0.80342 0.03141 -0.13700
C 	C 	0.48421 0.83352 0.99066 -0.08400
H 	H 	0.55724 0.77699 0.01561 0.09200
H 	H 	0.44308 0.84994 0.00496 0.07500
C 	C 	0.59843 0.81210 0.37480 -0.10800
C 	C 	0.64898 0.85030 0.38301 -0.11900
H 	H 	0.58290 0.78763 0.41112 0.07600
H 	H 	0.64556 0.89687 0.37497 0.08600
C 	C 	0.35763 0.84777 0.34433 -0.10600
C 	C 	0.36002 0.82903 0.40447 -0.12100
H 	H 	0.32270 0.87535 0.33007 0.08300
H 	H 	0.40102 0.81564 0.42178 0.08800
C 	C 	0.80499 0.51858 0.98533 -0.09400
C 	C 	0.81241 0.47006 0.02567 -0.12400
H 	H 	0.78751 0.55983 0.00015 0.07600
H 	H 	0.80656 0.42558 0.01052 0.08600
C 	C 	0.86655 0.33876 0.37270 -0.11400
C 	C 	0.84087 0.39752 0.36826 -0.10800
H 	H 	0.90750 0.33025 0.35267 0.08500
H 	H 	0.81663 0.41321 0.40444 0.07400
C 	C 	0.71478 0.32610 0.16089 -0.12000
C 	C 	0.65663 0.32575 0.13714 -0.10300
H 	H 	0.74081 0.28710 0.15614 0.08200
H 	H 	0.65281 0.33385 0.09202 0.07700
C 	C 	0.65684 0.62804 0.16668 -0.11500
C 	C 	0.59744 0.62890 0.18811 -0.11300
H 	H 	0.67098 0.66232 0.13812 0.07900
H 	H 	0.57345 0.58822 0.18844 0.08600
C 	C 	0.81469 0.62052 0.33804 -0.11700
C 	C 	0.82506 0.68414 0.33877 -0.10900
H 	H 	0.81970 0.59658 0.37749 0.08300
H 	H 	0.84066 0.70582 0.30089 0.08400
C 	C 	0.98730 0.54220 0.21347 -0.10000
C 	C 	0.02625 0.49329 0.22562 -0.12500
H 	H 	0.00129 0.58672 0.22129 0.07900
H 	H 	0.00927 0.45573 0.24826 0.08500
C 	C 	0.19284 0.46713 0.98322 -0.11200
C 	C 	0.21117 0.51272 0.02403 -0.12400
H 	H 	0.16909 0.42943 0.99833 0.09000
H 	H 	0.23689 0.54924 0.00937 0.08500
C 	C 	0.35197 0.38024 0.14565 -0.11300
C 	C 	0.40681 0.38740 0.17543 -0.11300
H 	H 	0.35272 0.36938 0.10090 0.07900
H 	H 	0.42913 0.42883 0.17193 0.07800
C 	C 	0.14877 0.33790 0.31404 -0.11800
C 	C 	0.14368 0.34547 0.37586 -0.11200
H 	H 	0.13211 0.29851 0.29441 0.08400
H 	H 	0.13222 0.38835 0.39204 0.08600
C 	C 	0.34981 0.66967 0.16593 -0.11600
C 	C 	0.35503 0.60904 0.18613 -0.11000
H 	H 	0.32881 0.67744 0.12564 0.08000
H 	H 	0.39744 0.58966 0.18739 0.08000
C 	C 	0.21232 0.62343 0.40637 -0.10300
C 	C 	0.18301 0.61977 0.35109 -0.12200
H 	H 	0.22641 0.58332 0.42667 0.08300
H 	H 	0.14803 0.64968 0.34231 0.08200
