data_crystal

_cell_length_a 15.76259
_cell_length_b 16.66528
_cell_length_c 48.36691
_cell_angle_alpha 90.20310
_cell_angle_beta  90.21923
_cell_angle_gamma 119.38297

_symmetry_space_group_name_	'P 1'
_symmetry_space_group_name_H-M	'P 1'

loop_
_symmetry_equiv_pos_as_xyz
  x,y,z

loop_
_atom_site_label
_atom_site_type_symbol
_atom_site_fract_x
_atom_site_fract_y
_atom_site_fract_z
_atom_site_charge
C 	C 	0.20744 0.06274 0.75427 0.30900
C 	C 	0.14806 0.99371 0.82750 0.32700
Ni	Ni	0.05066 0.06049 0.78539 1.14200
Ni	Ni	0.06568 0.87816 0.77806 1.13600
O 	O 	0.13432 0.07864 0.75290 -0.33300
O 	O 	0.10483 0.90866 0.81756 -0.30500
O 	O 	0.15130 0.06418 0.81330 -0.28300
O 	O 	0.19696 0.98726 0.76647 -0.28800
C 	C 	0.14988 0.52421 0.43317 0.27600
C 	C 	0.40104 0.86454 0.37753 0.32700
C 	C 	0.25109 0.55195 0.36137 0.33700
C 	C 	0.31790 0.84012 0.44695 0.29400
Ni	Ni	0.24516 0.69412 0.39884 1.12700
Ni	Ni	0.35624 0.57892 0.41228 1.12700
O 	O 	0.14773 0.59937 0.42552 -0.35100
O 	O 	0.20752 0.49687 0.42041 -0.34900
O 	O 	0.34802 0.77823 0.37097 -0.30500
O 	O 	0.44460 0.88622 0.40190 -0.34800
O 	O 	0.19426 0.58234 0.37096 -0.29700
O 	O 	0.33810 0.58560 0.37147 -0.31300
O 	O 	0.26342 0.80668 0.42399 -0.33700
O 	O 	0.34207 0.68380 0.41897 -0.71300
H 	H 	0.31421 0.66908 0.43766 0.16100
C 	C 	0.35449 0.55686 0.07534 0.31400
C 	C 	0.27607 0.47307 0.15377 0.30300
C 	C 	0.23226 0.73063 0.08430 0.31900
C 	C 	0.19081 0.70480 0.15820 0.29800
Ni	Ni	0.22803 0.58493 0.11563 1.12200
Ni	Ni	0.37678 0.79320 0.12962 1.12900
O 	O 	0.25148 0.66397 0.08297 -0.41400
O 	O 	0.27376 0.51475 0.09008 -0.36700
O 	O 	0.28470 0.76499 0.16057 -0.32200
O 	O 	0.15477 0.63788 0.13860 -0.33400
O 	O 	0.36137 0.50533 0.14078 -0.32000
O 	O 	0.20853 0.49322 0.14538 -0.34200
O 	O 	0.27169 0.79124 0.10434 -0.33400
O 	O 	0.34837 0.66791 0.13194 -0.72400
H 	H 	0.33125 0.65396 0.15158 0.20700
C 	C 	0.09960 0.88560 0.24004 0.30400
C 	C 	0.14555 0.21078 0.30597 0.31500
C 	C 	0.16817 0.95650 0.31405 0.31800
C 	C 	0.10338 0.17567 0.23139 0.31000
Ni	Ni	0.16944 0.07590 0.26911 1.12600
O 	O 	0.17412 0.96167 0.25106 -0.30500
O 	O 	0.00959 0.84990 0.24946 -0.27400
O 	O 	0.19722 0.20320 0.28581 -0.32100
O 	O 	0.05853 0.14315 0.31124 -0.30000
O 	O 	0.18904 0.04040 0.30832 -0.29900
O 	O 	0.09539 0.88593 0.30139 -0.27500
O 	O 	0.14632 0.12456 0.23231 -0.31300
O 	O 	0.04721 0.17646 0.25215 -0.32300
O 	O 	0.03364 0.00878 0.27137 -0.71700
H 	H 	0.01670 0.99529 0.25164 0.20300
C 	C 	0.20918 0.34101 0.22087 0.06100
C 	C 	0.14203 0.25239 0.21142 0.01800
C 	C 	0.12640 0.23518 0.18265 -0.09300
C 	C 	0.18188 0.30640 0.16393 0.05900
C 	C 	0.24548 0.39612 0.17341 0.01100
C 	C 	0.25999 0.41360 0.20218 -0.08500
C 	C 	0.32929 0.50970 0.21292 0.78600
H 	H 	0.22451 0.35239 0.24278 0.09500
H 	H 	0.17208 0.29331 0.14187 0.08200
C 	C 	0.05248 0.14059 0.17186 0.79700
F 	F 	0.33739 0.51234 0.24147 -0.36900
F 	F 	0.29605 0.56924 0.20512 -0.40400
F 	F 	0.08990 0.08130 0.17439 -0.40100
F 	F 	0.02999 0.14352 0.14431 -0.42500
C 	C 	0.12887 0.69665 0.20507 0.06600
C 	C 	0.12478 0.71689 0.17717 0.03000
C 	C 	0.09599 0.78285 0.17070 -0.08400
C 	C 	0.10276 0.84595 0.19111 0.06800
C 	C 	0.11865 0.83299 0.21878 0.03500
C 	C 	0.12931 0.75594 0.22608 -0.06500
C 	C 	0.14199 0.73741 0.25606 0.78800
H 	H 	0.14291 0.64097 0.21020 0.13200
H 	H 	0.08989 0.90220 0.18576 0.13800
C 	C 	0.05007 0.78060 0.14304 0.79600
F 	F 	0.16531 0.66784 0.25855 -0.34400
F 	F 	0.05656 0.71171 0.27026 -0.40300
F 	F 	0.21640 0.81584 0.26806 -0.40200
F 	F 	0.11921 0.80821 0.12258 -0.45200
C 	C 	0.17250 0.37033 0.30527 0.06300
C 	C 	0.17838 0.30029 0.31973 0.02000
C 	C 	0.19966 0.31080 0.34833 -0.07900
C 	C 	0.20882 0.38872 0.36219 0.07100
C 	C 	0.20858 0.46125 0.34761 0.00700
C 	C 	0.18925 0.45189 0.31886 -0.06000
C 	C 	0.18814 0.52907 0.30262 0.78400
H 	H 	0.15152 0.35973 0.28368 0.09300
H 	H 	0.22239 0.39574 0.38423 0.06400
C 	C 	0.20650 0.23643 0.36455 0.78500
F 	F 	0.15920 0.50343 0.27545 -0.36900
F 	F 	0.28043 0.60510 0.30258 -0.33100
F 	F 	0.12401 0.55294 0.31460 -0.38400
F 	F 	0.25769 0.20289 0.34982 -0.40100
F 	F 	0.25418 0.26985 0.38957 -0.42400
C 	C 	0.30689 0.94563 0.37617 0.05600
C 	C 	0.37724 0.92947 0.36378 -0.00300
C 	C 	0.39149 0.94264 0.33504 -0.06300
C 	C 	0.32009 0.94789 0.31879 0.06800
C 	C 	0.23698 0.94257 0.33117 0.03800
C 	C 	0.23057 0.94209 0.36027 -0.09000
C 	C 	0.14251 0.93733 0.37426 0.78800
H 	H 	0.30509 0.95006 0.39834 0.08200
H 	H 	0.32959 0.95703 0.29664 0.13000
C 	C 	0.47736 0.94218 0.32137 0.78000
F 	F 	0.14430 0.92642 0.40259 -0.41500
F 	F 	0.05847 0.86350 0.36383 -0.40600
F 	F 	0.55669 0.97696 0.33916 -0.41400
F 	F 	0.50445 0.99611 0.29788 -0.38600
C 	C 	0.32865 0.92452 0.45960 -0.07700
C 	C 	0.29482 0.92008 0.48675 0.11500
C 	C 	0.20143 0.83815 0.49594 -0.21500
H 	H 	0.21627 0.78298 0.50313 0.08200
H 	H 	0.14785 0.81109 0.47864 0.11000
H 	H 	0.16831 0.85756 0.51312 0.09500
H 	H 	0.05434 0.59776 0.53863 0.07300
C 	C 	0.98111 0.46124 0.44803 -0.04800
C 	C 	0.06942 0.46076 0.45125 -0.04700
C 	C 	0.09091 0.43928 0.47763 0.08500
C 	C 	0.04019 0.44509 0.50093 -0.05300
H 	H 	0.95641 0.46516 0.42738 0.07700
C 	C 	0.16866 0.41284 0.48119 -0.21100
H 	H 	0.05798 0.43104 0.52137 0.05300
H 	H 	0.15418 0.36865 0.49964 0.08500
H 	H 	0.24012 0.47564 0.48382 0.08800
H 	H 	0.17116 0.37357 0.46290 0.11600
C 	C 	0.26588 0.53440 0.55155 -0.18200
H 	H 	0.34190 0.65558 0.50931 0.03700
H 	H 	0.40038 0.48374 0.65106 0.17000
H 	H 	0.22251 0.56288 0.54175 0.06900
H 	H 	0.28649 0.56378 0.57271 0.08500
C 	C 	0.36836 0.25519 0.70733 -0.09800
C 	C 	0.29016 0.17163 0.71607 0.06600
C 	C 	0.29918 0.12746 0.73970 0.02400
C 	C 	0.39293 0.16301 0.75232 -0.05800
C 	C 	0.40717 0.12132 0.77856 0.78500
H 	H 	0.21918 0.14698 0.70653 0.13000
C 	C 	0.34846 0.32339 0.69249 0.78900
F 	F 	0.38021 0.02990 0.77403 -0.38900
F 	F 	0.35167 0.12818 0.79948 -0.41700
F 	F 	0.34079 0.30481 0.66452 -0.45000
F 	F 	0.42192 0.41234 0.69774 -0.43300
F 	F 	0.26187 0.31663 0.70146 -0.39500
C 	C 	0.08133 0.65669 0.02480 -0.10500
C 	C 	0.05605 0.64344 0.08163 0.00400
C 	C 	0.14195 0.71523 0.07085 -0.07700
C 	C 	0.14413 0.73010 0.04219 0.11600
H 	H 	0.04527 0.63880 0.10360 0.11100
C 	C 	0.22052 0.81891 0.02996 -0.21600
H 	H 	0.08816 0.66413 0.00253 0.07200
H 	H 	0.19195 0.83532 0.01105 0.08900
H 	H 	0.28567 0.81336 0.02444 0.07800
H 	H 	0.24214 0.87648 0.04495 0.09900
C 	C 	0.36045 0.04870 0.99589 -0.22100
H 	H 	0.29782 0.00665 0.00952 0.08800
H 	H 	0.34177 0.09451 0.98380 0.10700
C 	C 	0.39427 0.47224 0.04052 -0.00900
C 	C 	0.35685 0.53171 0.04610 -0.10300
C 	C 	0.36672 0.59546 0.02546 0.11000
H 	H 	0.38139 0.41807 0.05505 0.05400
C 	C 	0.30547 0.64134 0.02585 -0.21800
H 	H 	0.29108 0.65588 0.00446 0.08300
H 	H 	0.23387 0.59580 0.03543 0.09100
H 	H 	0.39285 0.50065 0.95213 0.08700
C 	C 	0.28173 0.07797 0.89593 0.06400
C 	C 	0.36220 0.01389 0.86805 -0.07600
C 	C 	0.29001 0.98954 0.84768 0.09100
C 	C 	0.21703 0.01402 0.85052 0.04100
C 	C 	0.20859 0.05303 0.87566 -0.07600
C 	C 	0.12717 0.07551 0.87999 0.77800
H 	H 	0.29305 0.95521 0.82893 0.12900
F 	F 	0.12068 0.09563 0.90744 -0.42800
F 	F 	0.03860 0.00153 0.87234 -0.37600
F 	F 	0.14447 0.15101 0.86421 -0.41300
F 	F 	0.41140 0.91273 0.84759 -0.38400
H 	H 	0.06344 0.68732 0.57981 0.12100
C 	C 	0.46417 0.48971 0.63966 -0.23100
H 	H 	0.51667 0.56400 0.63671 0.11100
H 	H 	0.50162 0.46179 0.65237 0.15200
H 	H 	0.21843 0.45857 0.55283 0.07800
H 	H 	0.08382 0.46791 0.01416 0.04900
H 	H 	0.34483 0.70747 0.03733 0.09300
H 	H 	0.28091 0.11504 0.91430 0.07100
O 	O 	0.03333 0.85312 0.73759 -0.31400
F 	F 	0.42083 0.53949 0.20201 -0.41900
H 	H 	0.42985 0.55920 0.59396 0.07000
F 	F 	0.02638 0.11824 0.68792 -0.39100
H 	H 	0.05927 0.37337 0.95636 0.10700
H 	H 	0.07529 0.33414 0.98975 0.08800
H 	H 	0.02427 0.59320 0.60391 0.12800
H 	H 	0.37147 0.00272 0.98145 0.10000
C 	C 	0.36386 0.06820 0.89075 0.00900
H 	H 	0.33628 0.97658 0.52799 0.06700
H 	H 	0.42772 0.98689 0.03798 0.06100
O 	O 	0.38223 0.81531 0.45441 -0.38800
O 	O 	0.45433 0.80474 0.09570 -0.39300
C 	C 	0.35639 0.98522 0.50635 -0.08000
C 	C 	0.57597 0.11163 0.11096 -0.19100
H 	H 	0.54222 0.07637 0.13063 0.09600
H 	H 	0.52262 0.12683 0.10057 0.08900
C 	C 	0.44943 0.56310 0.94161 -0.19700
H 	H 	0.44400 0.54765 0.91911 0.11400
H 	H 	0.43424 0.62083 0.94473 0.10400
C 	C 	0.44347 0.99151 0.86360 0.78900
F 	F 	0.47629 0.97618 0.88852 -0.42800
C 	C 	0.54812 0.21438 0.97689 0.29600
C 	C 	0.45741 0.13899 0.90211 0.31700
Ni	Ni	0.55455 0.32730 0.92558 1.11600
O 	O 	0.49628 0.23498 0.95921 -0.36700
O 	O 	0.48552 0.22484 0.89644 -0.32200
O 	O 	0.50221 0.11823 0.92149 -0.32600
C 	C 	0.53873 0.30238 0.69371 0.31100
C 	C 	0.49444 0.33281 0.61981 0.29900
Ni	Ni	0.55251 0.19944 0.64833 1.13000
O 	O 	0.56906 0.37696 0.67826 -0.32000
O 	O 	0.46584 0.25371 0.63399 -0.32500
O 	O 	0.56263 0.24086 0.68717 -0.33400
C 	C 	0.55239 0.71541 0.39105 0.31800
C 	C 	0.44614 0.64856 0.46635 0.29200
Ni	Ni	0.46139 0.79360 0.42618 1.12600
O 	O 	0.52996 0.78053 0.39359 -0.34000
O 	O 	0.38869 0.57414 0.45174 -0.38300
O 	O 	0.50559 0.72864 0.45411 -0.37200
O 	O 	0.50137 0.63561 0.40378 -0.32900
C 	C 	0.51387 0.78283 0.17353 0.31700
C 	C 	0.54402 0.82339 0.09849 0.31000
Ni	Ni	0.45303 0.64369 0.12876 1.12500
O 	O 	0.48496 0.69548 0.16829 -0.29400
O 	O 	0.49542 0.83451 0.15594 -0.33300
O 	O 	0.43800 0.60838 0.08752 -0.36800
O 	O 	0.56410 0.77350 0.11556 -0.34600
C 	C 	0.48320 0.83032 0.23040 0.77800
F 	F 	0.41230 0.73869 0.23116 -0.34600
F 	F 	0.45423 0.87662 0.21233 -0.41700
F 	F 	0.49186 0.86824 0.25642 -0.35400
C 	C 	0.64299 0.73803 0.37634 0.00900
C 	C 	0.63998 0.72826 0.34724 -0.07300
C 	C 	0.55235 0.65060 0.33298 0.77800
F 	F 	0.48314 0.67719 0.32831 -0.36500
F 	F 	0.51248 0.57211 0.34907 -0.41900
F 	F 	0.57841 0.62906 0.30789 -0.39300
F 	F 	0.45229 0.85289 0.31412 -0.34600
C 	C 	0.52439 0.10353 0.51965 0.01000
C 	C 	0.44824 0.05623 0.49839 -0.00100
C 	C 	0.47419 0.22580 0.52484 -0.17900
C 	C 	0.47065 0.07216 0.47006 0.04900
C 	C 	0.40731 0.00789 0.45064 -0.01500
H 	H 	0.42916 0.01525 0.42923 0.06700
H 	H 	0.39718 0.18153 0.53094 0.07700
H 	H 	0.47763 0.23559 0.50212 0.07400
H 	H 	0.50237 0.29480 0.53458 0.06400
C 	C 	0.41415 0.48879 0.59068 -0.09200
C 	C 	0.38817 0.44973 0.56439 0.01000
C 	C 	0.35841 0.35536 0.56087 0.03900
C 	C 	0.37644 0.30780 0.58221 -0.01500
C 	C 	0.42224 0.35387 0.60687 -0.05700
C 	C 	0.43074 0.44187 0.61207 0.14000
C 	C 	0.41003 0.51159 0.54022 0.00500
H 	H 	0.36377 0.23857 0.57853 0.05700
C 	C 	0.35617 0.55744 0.53516 0.03300
C 	C 	0.38538 0.62307 0.51392 -0.01900
C 	C 	0.45962 0.63495 0.49569 -0.10100
C 	C 	0.52038 0.59802 0.50283 0.11400
C 	C 	0.49385 0.53483 0.52464 -0.09000
H 	H 	0.25323 0.32459 0.52830 0.08000
F 	F 	0.55331 0.06804 0.72277 -0.41300
C 	C 	0.47437 0.23813 0.73977 0.07100
C 	C 	0.46335 0.27788 0.71533 0.04100
H 	H 	0.54714 0.26018 0.74750 0.16600
F 	F 	0.50331 0.16618 0.78733 -0.33600
C 	C 	0.47426 0.05983 0.03431 -0.09100
C 	C 	0.56257 0.10869 0.04902 0.00800
C 	C 	0.61853 0.20529 0.04556 0.03800
C 	C 	0.58828 0.24818 0.02591 -0.01500
C 	C 	0.51857 0.19451 0.00598 -0.10700
C 	C 	0.45081 0.10332 0.01306 0.11600
C 	C 	0.60222 0.05627 0.06403 0.00700
C 	C 	0.60178 0.05191 0.09332 0.03800
C 	C 	0.62382 0.98865 0.10609 -0.01400
C 	C 	0.61923 0.91574 0.09042 -0.09500
C 	C 	0.64084 0.93138 0.06208 0.12000
C 	C 	0.63025 0.00102 0.04879 -0.09300
H 	H 	0.62417 0.98504 0.12846 0.07000
H 	H 	0.63651 0.00756 0.02649 0.06700
H 	H 	0.64290 0.17704 0.11608 0.09200
H 	H 	0.58405 0.80860 0.03712 0.08700
C 	C 	0.43940 0.62093 0.00538 -0.09600
C 	C 	0.48841 0.57060 0.00223 0.01000
C 	C 	0.45971 0.49076 0.01847 0.03400
C 	C 	0.56876 0.60107 0.98173 0.00200
C 	C 	0.50200 0.42819 0.01341 -0.17800
H 	H 	0.45745 0.67966 0.99225 0.06500
C 	C 	0.54897 0.58911 0.95294 0.05500
H 	H 	0.60713 0.58419 0.91305 0.07700
H 	H 	0.57746 0.46062 0.02169 0.07200
H 	H 	0.50254 0.41457 0.99094 0.07500
H 	H 	0.45831 0.36060 0.02367 0.07700
F 	F 	0.51965 0.06388 0.85014 -0.38200
F 	F 	0.50630 0.39030 0.82665 -0.39700
F 	F 	0.05495 0.86864 0.67969 -0.39300
H 	H 	0.89302 0.56149 0.44587 0.09600
C 	C 	0.30933 0.30613 0.53447 -0.18300
H 	H 	0.27227 0.23021 0.53702 0.08600
O 	O 	0.58545 0.39961 0.61962 -0.39500
C 	C 	0.65543 0.86335 0.04509 -0.21800
O 	O 	0.61438 0.19331 0.96822 -0.37600
O 	O 	0.58706 0.42525 0.89388 -0.33900
O 	O 	0.63967 0.43657 0.95095 -0.39200
O 	O 	0.54770 0.13871 0.61222 -0.36300
C 	C 	0.59555 0.82915 0.19292 0.01200
C 	C 	0.57865 0.83784 0.22115 -0.06300
C 	C 	0.53269 0.18104 0.53377 0.02700
H 	H 	0.62894 0.32209 0.02348 0.03200
H 	H 	0.68951 0.83117 0.05776 0.10500
C 	C 	0.62266 0.59695 0.93494 -0.01400
C 	C 	0.66544 0.63472 0.99088 -0.08400
H 	H 	0.36383 0.32625 0.51772 0.07600
H 	H 	0.57809 0.00710 0.51648 0.06300
F 	F 	0.14049 0.01779 0.36924 -0.35000
F 	F 	0.57613 0.43499 0.78518 -0.40400
C 	C 	0.56716 0.15018 0.46076 -0.18800
H 	H 	0.56741 0.16143 0.43813 0.10000
C 	C 	0.64210 0.43238 0.87252 0.32700
Ni	Ni	0.64922 0.19366 0.92838 1.13000
O 	O 	0.66631 0.31409 0.92539 -0.71100
Ni	Ni	0.67907 0.41774 0.64950 1.12300
O 	O 	0.60873 0.11916 0.66269 -0.32200
H 	H 	0.69879 0.83519 0.16295 0.09100
C 	C 	0.73013 0.80423 0.38877 0.05900
C 	C 	0.71436 0.79732 0.33122 0.06300
H 	H 	0.73606 0.80640 0.41114 0.07500
C 	C 	0.58094 0.06402 0.52817 -0.09800
H 	H 	0.53814 0.50326 0.52939 0.05700
H 	H 	0.58395 0.57210 0.46700 0.10000
H 	H 	0.69382 0.29692 0.07949 0.07600
H 	H 	0.70404 0.89818 0.02733 0.09500
H 	H 	0.68467 0.65475 0.01232 0.06100
C 	C 	0.59164 0.41759 0.81217 0.77800
F 	F 	0.61314 0.34665 0.81209 -0.34500
C 	C 	0.70482 0.59666 0.94608 -0.07500
C 	C 	0.68570 0.83983 0.18473 0.06800
H 	H 	0.62612 0.13425 0.46574 0.08400
F 	F 	0.62416 0.06551 0.76272 -0.37600
C 	C 	0.71004 0.26291 0.06214 -0.18600
H 	H 	0.58280 0.21538 0.47119 0.07500
C 	C 	0.71058 0.51270 0.94068 0.28900
O 	O 	0.68724 0.38498 0.87229 -0.30600
O 	O 	0.66381 0.18390 0.88788 -0.31800
H 	H 	0.69239 0.33627 0.94392 0.15600
C 	C 	0.62804 0.15299 0.59955 0.29500
C 	C 	0.68933 0.15253 0.67755 0.32000
O 	O 	0.67019 0.30547 0.63720 -0.71000
H 	H 	0.65710 0.30673 0.61735 0.15800
C 	C 	0.65003 0.84993 0.24086 0.06700
H 	H 	0.63827 0.85721 0.26259 0.12000
H 	H 	0.70926 0.79302 0.30888 0.09600
C 	C 	0.58840 0.21092 0.55805 -0.01200
H 	H 	0.64545 0.99330 0.57871 0.11000
C 	C 	0.60759 0.61803 0.48544 -0.21700
H 	H 	0.64496 0.69090 0.47858 0.10500
C 	C 	0.64133 0.10536 0.73681 0.78000
C 	C 	0.73558 0.63737 0.97230 0.11100
C 	C 	0.68018 0.51404 0.85449 0.00200
C 	C 	0.67483 0.50232 0.82546 -0.06000
F 	F 	0.67791 0.19914 0.73995 -0.37300
O 	O 	0.76728 0.42680 0.68080 -0.33800
C 	C 	0.62944 0.16022 0.56938 -0.11500
C 	C 	0.63489 0.09298 0.55292 0.11700
H 	H 	0.58743 0.26507 0.57028 0.03200
H 	H 	0.69933 0.41027 0.55306 0.03400
H 	H 	0.68477 0.33568 0.50657 0.06400
H 	H 	0.74343 0.22283 0.07039 0.08100
H 	H 	0.74686 0.61227 0.88746 0.08300
C 	C 	0.74877 0.59929 0.86572 0.06000
O 	O 	0.76979 0.51149 0.92079 -0.34200
O 	O 	0.75636 0.23779 0.67474 -0.31900
C 	C 	0.79463 0.87234 0.34388 0.02000
C 	C 	0.80063 0.87779 0.37311 -0.07800
H 	H 	0.66122 0.60676 0.49735 0.08400
C 	C 	0.71616 0.09091 0.69186 0.00900
C 	C 	0.71391 0.08830 0.72103 -0.07400
H 	H 	0.74119 0.35819 0.98721 0.03700
H 	H 	0.74936 0.49530 0.00734 0.07100
H 	H 	0.76570 0.31662 0.04885 0.07100
C 	C 	0.74878 0.56948 0.80885 0.06500
C 	C 	0.68935 0.04546 0.56296 -0.22900
C 	C 	0.74811 0.22722 0.87583 0.32900
Ni	Ni	0.77559 0.39820 0.90397 1.13300
O 	O 	0.70957 0.17505 0.61379 -0.35800
C 	C 	0.73926 0.85829 0.23256 0.03100
C 	C 	0.75416 0.84629 0.20449 -0.07800
F 	F 	0.82708 0.41627 0.74085 -0.37200
H 	H 	0.76745 0.46549 0.04160 0.07000
F 	F 	0.69868 0.86547 0.83568 -0.40000
F 	F 	0.66015 0.89719 0.87719 -0.40100
H 	H 	0.74637 0.55990 0.78661 0.10600
O 	O 	0.79310 0.24651 0.93909 -0.36000
Ni	Ni	0.78652 0.29901 0.63661 1.12100
O 	O 	0.79300 0.48808 0.62180 -0.35900
F 	F 	0.85017 0.97120 0.41401 -0.43300
H 	H 	0.70470 0.01045 0.54568 0.09300
C 	C 	0.77737 0.44892 0.55023 -0.01000
C 	C 	0.75762 0.34323 0.51068 -0.17800
H 	H 	0.74967 0.28368 0.52283 0.07600
C 	C 	0.77863 0.06727 0.67792 0.05300
H 	H 	0.77468 0.06196 0.65555 0.07700
C 	C 	0.81603 0.38245 0.99285 -0.03000
C 	C 	0.80532 0.50120 0.02247 -0.19000
C 	C 	0.84149 0.68337 0.98017 -0.21900
H 	H 	0.85311 0.70505 0.00223 0.08700
C 	C 	0.75339 0.08404 0.86637 0.08700
H 	H 	0.72395 0.06112 0.88686 0.08600
F 	F 	0.76176 0.31285 0.82501 -0.36400
C 	C 	0.82485 0.66462 0.84945 -0.08600
C 	C 	0.99897 0.62799 0.58914 -0.27400
O 	O 	0.81115 0.31286 0.88288 -0.30200
C 	C 	0.85934 0.45799 0.67636 0.32600
C 	C 	0.81149 0.45049 0.59953 0.29200
H 	H 	0.78833 0.34014 0.49048 0.07400
C 	C 	0.78669 0.08003 0.73553 0.06700
H 	H 	0.78615 0.07931 0.75787 0.09200
H 	H 	0.88269 0.74552 0.96725 0.12600
H 	H 	0.87101 0.63589 0.97662 0.09500
C 	C 	0.77757 0.17333 0.85793 0.01900
C 	C 	0.73363 0.92633 0.85778 0.78600
C 	C 	0.82165 0.65223 0.82051 0.03200
H 	H 	0.76031 0.09636 0.57222 0.10700
H 	H 	0.85238 0.57545 0.02713 0.07800
O 	O 	0.81872 0.77450 0.79602 -0.29800
F 	F 	0.83494 0.81051 0.16844 -0.39500
C 	C 	0.87946 0.96227 0.38777 0.78700
C 	C 	0.76499 0.02371 0.84850 -0.07300
C 	C 	0.84880 0.33259 0.94851 0.28700
C 	C 	0.92459 0.47317 0.73515 0.78100
F 	F 	0.90487 0.82618 0.85601 -0.38400
O 	O 	0.86971 0.40411 0.93261 -0.35500
O 	O 	0.82397 0.37804 0.60176 -0.37000
O 	O 	0.86894 0.77285 0.74052 -0.31900
O 	O 	0.81635 0.95531 0.78790 -0.29600
C 	C 	0.87759 0.93618 0.32645 0.32700
C 	C 	0.82348 0.90611 0.25103 0.29800
O 	O 	0.86655 0.99233 0.30939 -0.31800
O 	O 	0.84092 0.85783 0.27014 -0.32600
C 	C 	0.84193 0.83810 0.19577 0.78000
F 	F 	0.84888 0.77337 0.21200 -0.42000
C 	C 	0.81875 0.43058 0.52700 0.02400
C 	C 	0.83681 0.49817 0.57269 -0.10800
C 	C 	0.86225 0.45766 0.01093 0.04600
C 	C 	0.87039 0.35073 0.97815 -0.09100
H 	H 	0.85763 0.46629 0.07979 0.08100
C 	C 	0.81629 0.20360 0.83119 -0.05100
C 	C 	0.83969 0.29810 0.82079 0.78000
O 	O 	0.88617 0.42264 0.65618 -0.33100
C 	C 	0.86972 0.73353 0.80262 0.29700
Ni	Ni	0.86042 0.87203 0.76553 1.12900
C 	C 	0.92872 0.54670 0.68887 -0.00100
C 	C 	0.93636 0.55365 0.71793 -0.07900
F 	F 	0.97546 0.50395 0.75984 -0.38300
C 	C 	0.81381 0.05739 0.82324 0.03500
F 	F 	0.90782 0.74087 0.89144 -0.42400
F 	F 	0.90114 0.04165 0.37339 -0.40100
C 	C 	0.85633 0.06649 0.69207 -0.07900
C 	C 	0.90924 0.74796 0.86290 0.78200
F 	F 	0.89436 0.79408 0.66961 -0.40600
O 	O 	0.86649 0.99734 0.25180 -0.32300
C 	C 	0.85878 0.07037 0.72133 0.01100
C 	C 	0.94196 0.63136 0.73102 0.05500
H 	H 	0.93654 0.63265 0.75328 0.09000
F 	F 	0.96000 0.42314 0.72121 -0.39700
C 	C 	0.83808 0.14653 0.81465 0.06400
F 	F 	0.85931 0.30682 0.79274 -0.35900
F 	F 	0.96207 0.95417 0.39015 -0.36600
C 	C 	0.97732 0.55301 0.54231 -0.12600
C 	C 	0.86124 0.01134 0.80947 0.29900
H 	H 	0.93097 0.41618 0.06815 0.06800
F 	F 	0.81234 0.92384 0.86951 -0.37500
H 	H 	0.87905 0.17325 0.79578 0.09900
F 	F 	0.92051 0.36505 0.83467 -0.40400
C 	C 	0.02079 0.33336 0.97495 -0.19000
F 	F 	0.91911 0.97251 0.67525 -0.38000
C 	C 	0.95048 0.78389 0.72972 0.31800
O 	O 	0.91113 0.96328 0.73335 -0.30400
O 	O 	0.94930 0.91928 0.32293 -0.31300
F 	F 	0.92564 0.92207 0.19899 -0.41100
H 	H 	0.79904 0.47049 0.46571 0.08000
C 	C 	0.95474 0.62654 0.67345 0.05000
C 	C 	0.95093 0.70587 0.71539 0.00500
C 	C 	0.93206 0.47539 0.07905 -0.17300
C 	C 	0.92256 0.04525 0.73710 0.31300
F 	F 	0.93975 0.09143 0.64894 -0.43200
C 	C 	0.93632 0.06214 0.67587 0.76400
C 	C 	0.96447 0.70655 0.68644 -0.09100
H 	H 	0.95551 0.62260 0.65113 0.06700
O 	O 	0.95070 0.75026 0.78888 -0.32300
H 	H 	0.88774 0.57684 0.48223 0.08100
C 	C 	0.96058 0.49024 0.01823 -0.03100
H 	H 	0.95593 0.47427 0.10062 0.08000
C 	C 	0.92049 0.48455 0.52273 0.02600
C 	C 	0.96434 0.37479 0.98790 0.08300
F 	F 	0.01056 0.83868 0.14260 -0.38000
Ni	Ni	0.96552 0.07312 0.28028 1.12300
H 	H 	0.97124 0.26058 0.96884 0.10000
Ni	Ni	0.97525 0.88739 0.28535 1.13300
C 	C 	0.93561 0.56067 0.56727 0.13700
C 	C 	0.87651 0.52516 0.46601 -0.19500
C 	C 	0.97874 0.78803 0.66918 0.76800
F 	F 	0.99616 0.75648 0.85364 -0.42300
H 	H 	0.96488 0.91437 0.80219 0.21000
O 	O 	0.95446 0.04268 0.81504 -0.30400
O 	O 	0.96640 0.09181 0.75977 -0.33200
F 	F 	0.00007 0.77939 0.64197 -0.43400
F 	F 	0.96699 0.10656 0.18674 -0.42700
C 	C 	0.94160 0.48360 0.47078 0.06000
O 	O 	0.98336 0.93020 0.78272 -0.72900
F 	F 	0.97574 0.69223 0.13771 -0.44500
C 	C 	0.99999 0.56546 0.06529 0.00700
C 	C 	0.96802 0.47114 0.49778 -0.03400
C 	C 	0.00956 0.44553 0.00771 -0.05200
C 	C 	0.01353 0.57185 0.03635 0.03800
H 	H 	0.95743 0.65538 0.60048 0.14300
F 	F 	0.11363 0.16556 0.36972 -0.35500
