data_crystal

_cell_length_a 22.09274
_cell_length_b 20.63105
_cell_length_c 51.10259
_cell_angle_alpha 89.89421
_cell_angle_beta  89.89622
_cell_angle_gamma 119.42046

_symmetry_space_group_name_	'P 1'
_symmetry_space_group_name_H-M	'P 1'

loop_
_symmetry_equiv_pos_as_xyz
  x,y,z

loop_
_atom_site_label
_atom_site_type_symbol
_atom_site_fract_x
_atom_site_fract_y
_atom_site_fract_z
_atom_site_charge
C 	C 	0.61403 0.29041 0.87874 0.31900
C 	C 	0.83415 0.56351 0.92270 0.34700
C 	C 	0.78752 0.42923 0.84883 0.34600
C 	C 	0.66245 0.42286 0.95358 0.30100
C 	C 	0.89768 0.39736 0.91658 0.32100
C 	C 	0.71988 0.24220 0.93986 0.29100
Ni	Ni	0.71216 0.44570 0.89537 1.12300
Ni	Ni	0.78835 0.41076 0.94306 1.12300
Ni	Ni	0.76112 0.32159 0.88973 1.12900
O 	O 	0.61861 0.35412 0.88626 -0.34000
O 	O 	0.66969 0.28817 0.86936 -0.34200
O 	O 	0.87974 0.44457 0.92559 -0.38100
O 	O 	0.81057 0.53506 0.89973 -0.35400
O 	O 	0.81405 0.52083 0.94370 -0.35900
O 	O 	0.71474 0.23581 0.91407 -0.36700
O 	O 	0.73586 0.43992 0.85584 -0.32800
O 	O 	0.81786 0.40954 0.86639 -0.36900
O 	O 	0.76918 0.30454 0.95117 -0.37300
O 	O 	0.67745 0.46470 0.93184 -0.34100
O 	O 	0.69972 0.39127 0.96064 -0.37300
O 	O 	0.85203 0.33622 0.90471 -0.35300
O 	O 	0.73638 0.37950 0.91165 -0.71700
H 	H 	0.69123 0.34105 0.91860 0.16600
C 	C 	0.72948 0.38559 0.51063 0.29500
C 	C 	0.53967 0.15985 0.58404 0.30800
C 	C 	0.53652 0.29192 0.51589 0.31600
C 	C 	0.72981 0.25790 0.58925 0.33600
C 	C 	0.53582 0.36912 0.59385 0.35100
C 	C 	0.73160 0.48307 0.59440 0.33100
Ni	Ni	0.63512 0.25302 0.54301 1.11400
Ni	Ni	0.63454 0.31651 0.60061 1.13200
Ni	Ni	0.63707 0.40949 0.55036 1.12700
O 	O 	0.72361 0.32622 0.52292 -0.36300
O 	O 	0.68693 0.41316 0.51560 -0.35900
O 	O 	0.54199 0.31043 0.59871 -0.37500
O 	O 	0.54095 0.18798 0.56117 -0.37700
O 	O 	0.58272 0.20253 0.60219 -0.34100
O 	O 	0.72420 0.48379 0.56857 -0.36000
O 	O 	0.58054 0.26732 0.51216 -0.37100
O 	O 	0.54360 0.33486 0.53577 -0.36700
O 	O 	0.68543 0.42744 0.60938 -0.34500
O 	O 	0.68833 0.21917 0.56938 -0.36100
O 	O 	0.72169 0.30869 0.60230 -0.34900
O 	O 	0.58233 0.42428 0.57947 -0.35200
O 	O 	0.65384 0.33434 0.56421 -0.72100
H 	H 	0.70507 0.36096 0.56427 0.17500
C 	C 	0.17671 0.12333 0.79357 0.32800
C 	C 	0.96871 0.90378 0.71986 0.34100
C 	C 	0.17012 0.11617 0.71801 0.34400
C 	C 	0.96774 0.91906 0.79486 0.31500
C 	C 	0.99365 0.12905 0.71216 0.33500
C 	C 	0.95990 0.13996 0.77949 0.31900
Ni	Ni	0.08606 0.99595 0.75652 1.13300
Ni	Ni	0.94613 0.00878 0.75241 1.12200
Ni	Ni	0.09396 0.15818 0.75559 1.13200
O 	O 	0.17481 0.07514 0.77600 -0.34000
O 	O 	0.14461 0.16289 0.78950 -0.33100
O 	O 	0.94354 0.08420 0.72804 -0.35800
O 	O 	0.00997 0.90161 0.73774 -0.33000
O 	O 	0.95268 0.95700 0.71972 -0.34000
O 	O 	0.02733 0.18463 0.77446 -0.32900
O 	O 	0.13155 0.04374 0.72074 -0.34100
O 	O 	0.17673 0.16052 0.73745 -0.35200
O 	O 	0.93263 0.06662 0.78129 -0.35100
O 	O 	0.03417 0.94007 0.79030 -0.31500
O 	O 	0.92621 0.91923 0.77591 -0.32900
O 	O 	0.05936 0.16278 0.71951 -0.34800
O 	O 	0.04159 0.05357 0.76059 -0.72500
H 	H 	0.03796 0.05444 0.77978 0.16900
C 	C 	0.17926 0.70899 0.43396 0.32500
C 	C 	0.25982 0.48822 0.47401 0.30800
C 	C 	0.32304 0.73211 0.47658 0.30900
C 	C 	0.10447 0.45631 0.43358 0.28800
C 	C 	0.40115 0.64822 0.41217 0.34500
C 	C 	0.24941 0.59392 0.37082 0.32600
Ni	Ni	0.19866 0.58931 0.46516 1.11800
Ni	Ni	0.25646 0.52326 0.41936 1.12600
Ni	Ni	0.30087 0.69471 0.41924 1.13800
O 	O 	0.17665 0.67716 0.45723 -0.34800
O 	O 	0.21653 0.70606 0.41420 -0.35100
O 	O 	0.35470 0.58119 0.40408 -0.34900
O 	O 	0.20841 0.50015 0.48046 -0.34900
O 	O 	0.29910 0.52244 0.45394 -0.37600
O 	O 	0.29597 0.65964 0.38102 -0.33100
O 	O 	0.29306 0.66109 0.48161 -0.37200
O 	O 	0.31869 0.75570 0.45298 -0.34300
O 	O 	0.21965 0.53233 0.38496 -0.37300
O 	O 	0.10659 0.50698 0.45002 -0.35400
O 	O 	0.15814 0.44385 0.43112 -0.35700
O 	O 	0.38198 0.68245 0.42865 -0.37100
O 	O 	0.23700 0.59835 0.43154 -0.71600
H 	H 	0.19641 0.58769 0.42070 0.17000
C 	C 	0.49157 0.61299 0.08900 0.29800
C 	C 	0.27027 0.67377 0.13216 0.34700
C 	C 	0.30809 0.49191 0.09902 0.35200
C 	C 	0.46140 0.80697 0.12387 0.31400
C 	C 	0.25953 0.62385 0.04401 0.31700
C 	C 	0.44200 0.77483 0.03946 0.29900
Ni	Ni	0.38835 0.64092 0.12301 1.12700
Ni	Ni	0.34568 0.73726 0.08395 1.13300
Ni	Ni	0.37954 0.61609 0.06014 1.12400
O 	O 	0.46022 0.60509 0.11217 -0.32700
O 	O 	0.47777 0.64319 0.06875 -0.38200
O 	O 	0.28371 0.69310 0.05191 -0.35900
O 	O 	0.32252 0.67046 0.14316 -0.32900
O 	O 	0.26392 0.67045 0.10676 -0.35800
O 	O 	0.41081 0.70223 0.03389 -0.37700
O 	O 	0.30372 0.53814 0.11533 -0.34900
O 	O 	0.35054 0.51693 0.07876 -0.37300
O 	O 	0.42316 0.80072 0.05978 -0.36200
O 	O 	0.46430 0.74756 0.13206 -0.33800
O 	O 	0.40212 0.80173 0.11527 -0.33000
O 	O 	0.27893 0.58110 0.05571 -0.37200
O 	O 	0.38753 0.67664 0.08911 -0.71500
H 	H 	0.43674 0.71470 0.08726 0.16600
C 	C 	0.80994 0.92442 0.29298 0.32600
C 	C 	0.02663 0.08341 0.21432 0.36200
C 	C 	0.83127 0.89666 0.21913 0.34300
C 	C 	0.04064 0.14804 0.28163 0.34300
C 	C 	0.01662 0.87514 0.23722 0.36200
C 	C 	0.99583 0.90561 0.30906 0.32000
Ni	Ni	0.90794 0.02996 0.25268 1.11400
Ni	Ni	0.04552 0.01446 0.26301 1.12300
Ni	Ni	0.89661 0.86984 0.26534 1.13100
O 	O 	0.84454 0.99568 0.28587 -0.32200
O 	O 	0.80994 0.87201 0.27794 -0.34400
O 	O 	0.04436 0.94740 0.23437 -0.34700
O 	O 	0.95894 0.05188 0.21693 -0.36500
O 	O 	0.06638 0.09205 0.23461 -0.35500
O 	O 	0.92915 0.87086 0.30209 -0.34900
O 	O 	0.82380 0.94340 0.23424 -0.33900
O 	O 	0.86620 0.86405 0.22732 -0.33900
O 	O 	0.04711 0.94706 0.29222 -0.32500
O 	O 	0.98359 0.13265 0.26807 -0.34800
O 	O 	0.05696 0.09598 0.28810 -0.34900
O 	O 	0.96597 0.83849 0.25401 -0.35900
O 	O 	0.94887 0.97584 0.26584 -0.71700
H 	H 	0.94683 0.98547 0.28462 0.17200
C 	C 	0.05885 0.12728 0.19046 -0.10700
C 	C 	0.09436 0.10506 0.17281 0.13200
C 	C 	0.12956 0.15039 0.15119 0.07100
C 	C 	0.13251 0.21962 0.14802 0.02200
C 	C 	0.09241 0.23888 0.16435 0.06800
C 	C 	0.05540 0.19267 0.18551 0.13700
C 	C 	0.18696 0.27731 0.13122 0.02000
C 	C 	0.25282 0.32469 0.14188 0.06400
C 	C 	0.29724 0.39257 0.12953 0.12600
C 	C 	0.27583 0.41288 0.10641 -0.12300
C 	C 	0.21493 0.36026 0.09368 0.12900
C 	C 	0.17020 0.29225 0.10616 0.06600
Br	Br	0.09165 0.33094 0.15854 -0.11200
Br	Br	0.09497 0.01292 0.17817 -0.14300
Br	Br	0.38554 0.45944 0.14513 -0.17300
Br	Br	0.08456 0.22140 0.08975 -0.13000
Br	Br	0.00274 0.22090 0.20843 -0.14200
Br	Br	0.17644 0.11953 0.12648 -0.12800
Br	Br	0.27983 0.29886 0.17448 -0.11700
Br	Br	0.19119 0.38320 0.05994 -0.17500
C 	C 	0.79543 0.87697 0.19384 -0.10100
C 	C 	0.81928 0.93184 0.17433 0.11900
C 	C 	0.77198 0.94777 0.16168 0.08700
C 	C 	0.70068 0.89511 0.16261 0.01200
C 	C 	0.67873 0.82753 0.17634 0.07000
C 	C 	0.72573 0.82010 0.19303 0.12700
C 	C 	0.64884 0.91133 0.15030 0.02300
C 	C 	0.60003 0.91892 0.16605 0.06900
C 	C 	0.53544 0.90275 0.15519 0.12700
C 	C 	0.52171 0.87998 0.12898 -0.09900
C 	C 	0.57908 0.90159 0.11249 0.11600
C 	C 	0.64017 0.90735 0.12287 0.06900
Br	Br	0.58585 0.74577 0.17191 -0.14300
Br	Br	0.91238 0.97330 0.16152 -0.12300
Br	Br	0.46220 0.89814 0.17682 -0.11200
Br	Br	0.70493 0.89773 0.10016 -0.15800
Br	Br	0.69405 0.73587 0.21616 -0.13000
Br	Br	0.80397 0.04484 0.14658 -0.15900
Br	Br	0.62071 0.94823 0.20208 -0.10700
Br	Br	0.57512 0.92737 0.07684 -0.19100
C 	C 	0.04854 0.83603 0.22390 -0.10500
C 	C 	0.01352 0.78690 0.20316 0.13600
C 	C 	0.04420 0.74976 0.19043 0.07600
C 	C 	0.11141 0.76461 0.19750 0.02100
C 	C 	0.14530 0.81154 0.21886 0.07000
C 	C 	0.11357 0.84659 0.23223 0.13400
C 	C 	0.15007 0.73963 0.18031 0.02300
C 	C 	0.15030 0.67271 0.18567 0.06900
C 	C 	0.18853 0.65028 0.16958 0.12900
C 	C 	0.22641 0.69470 0.14804 -0.11100
C 	C 	0.22353 0.76021 0.14209 0.13600
C 	C 	0.18678 0.78328 0.15857 0.06500
Br	Br	0.23625 0.82960 0.22917 -0.10300
Br	Br	0.92526 0.77346 0.19132 -0.13800
Br	Br	0.18622 0.55698 0.17624 -0.11800
Br	Br	0.18740 0.87572 0.15164 -0.10400
Br	Br	0.15884 0.90842 0.26212 -0.13400
Br	Br	0.99513 0.67979 0.16286 -0.13800
Br	Br	0.09842 0.61212 0.21512 -0.10500
Br	Br	0.26861 0.81819 0.11121 -0.20400
C 	C 	0.75467 0.90091 0.31273 -0.10000
C 	C 	0.68516 0.86904 0.30448 0.12700
C 	C 	0.63087 0.82611 0.32199 0.06800
C 	C 	0.64591 0.81732 0.34813 0.01900
C 	C 	0.71528 0.85409 0.35690 0.07100
C 	C 	0.76960 0.89610 0.33918 0.12000
C 	C 	0.58833 0.77593 0.36696 0.02200
C 	C 	0.55342 0.81086 0.37777 0.06700
C 	C 	0.48948 0.76837 0.39050 0.13400
C 	C 	0.46663 0.69264 0.39701 -0.11300
C 	C 	0.50699 0.66018 0.38895 0.13600
C 	C 	0.56527 0.70044 0.37258 0.06900
Br	Br	0.73560 0.84713 0.39316 -0.13200
Br	Br	0.66465 0.88353 0.26896 -0.11400
Br	Br	0.43054 0.81219 0.39559 -0.21500
Br	Br	0.61244 0.65193 0.35738 -0.12700
Br	Br	0.86443 0.94668 0.35102 -0.14000
Br	Br	0.53589 0.77945 0.31019 -0.10200
Br	Br	0.59269 0.91729 0.37447 -0.12600
Br	Br	0.48477 0.56249 0.40115 -0.17000
C 	C 	0.08477 0.22521 0.29087 -0.10300
C 	C 	0.13120 0.28013 0.27332 0.12700
C 	C 	0.15492 0.35560 0.27848 0.07100
C 	C 	0.14667 0.37762 0.30362 0.01700
C 	C 	0.10620 0.32288 0.32241 0.07000
C 	C 	0.07136 0.24706 0.31535 0.12400
C 	C 	0.18499 0.45751 0.31099 0.02000
C 	C 	0.25640 0.49199 0.31707 0.06700
C 	C 	0.28712 0.55974 0.33074 0.12400
C 	C 	0.24437 0.58421 0.34235 -0.09700
C 	C 	0.17925 0.56148 0.33090 0.12200
C 	C 	0.14880 0.49702 0.31522 0.07100
Br	Br	0.09984 0.35141 0.35781 -0.17300
Br	Br	0.17119 0.25365 0.24473 -0.13700
Br	Br	0.38518 0.61253 0.33707 -0.12900
Br	Br	0.05747 0.46101 0.30073 -0.12000
Br	Br	0.00240 0.17412 0.33845 -0.14200
Br	Br	0.19674 0.42836 0.25091 -0.09900
Br	Br	0.30947 0.44282 0.30957 -0.12600
Br	Br	0.12765 0.61022 0.34065 -0.13700
C 	C 	0.01411 0.88215 0.33366 -0.09300
C 	C 	0.03365 0.92869 0.35577 0.13900
C 	C 	0.04346 0.90251 0.37995 0.07200
C 	C 	0.04450 0.83489 0.38115 0.02200
C 	C 	0.02325 0.78744 0.35923 0.06800
C 	C 	0.00833 0.81115 0.33549 0.13300
C 	C 	0.08151 0.82138 0.40285 0.01700
C 	C 	0.15451 0.85614 0.40231 0.06500
C 	C 	0.18870 0.82711 0.41739 0.12400
C 	C 	0.14961 0.75922 0.43107 -0.11000
C 	C 	0.07781 0.73183 0.43493 0.12300
C 	C 	0.04419 0.76483 0.42138 0.07300
Br	Br	0.01578 0.69047 0.36163 -0.12900
Br	Br	0.05556 0.03083 0.35219 -0.16000
Br	Br	0.28899 0.87625 0.41707 -0.16400
Br	Br	0.94677 0.73024 0.42695 -0.14600
Br	Br	0.98445 0.74833 0.30500 -0.14300
Br	Br	0.05770 0.95995 0.41129 -0.12100
Br	Br	0.20725 0.93870 0.37886 -0.12200
Br	Br	0.02495 0.64681 0.45715 -0.18800
C 	C 	0.37188 0.89611 0.52182 -0.06800
C 	C 	0.40786 0.88180 0.54151 0.02600
C 	C 	0.41097 0.81520 0.54086 -0.00800
C 	C 	0.38765 0.76986 0.51865 0.00700
C 	C 	0.35295 0.78513 0.49856 -0.08000
C 	C 	0.33965 0.84511 0.50160 0.06000
C 	C 	0.44450 0.93873 0.56191 0.00300
S 	S 	0.43816 0.78499 0.56843 0.02100
H 	H 	0.39398 0.72105 0.51747 0.05500
S 	S 	0.27321 0.84883 0.48398 0.02300
H 	H 	0.36622 0.94536 0.52291 0.06500
C 	C 	0.51773 0.98176 0.56167 0.02800
C 	C 	0.55024 0.04882 0.57535 -0.03300
C 	C 	0.51076 0.07899 0.58577 -0.05700
C 	C 	0.43874 0.03256 0.58894 0.02800
C 	C 	0.40611 0.96153 0.57766 -0.02800
S 	S 	0.56854 0.95830 0.54134 0.00300
H 	H 	0.60626 0.08214 0.57470 0.06700
S 	S 	0.38845 0.06495 0.60516 0.02200
H 	H 	0.35012 0.92717 0.57896 0.06600
H 	H 	0.21075 0.80579 0.49626 0.05700
H 	H 	0.57213 0.98689 0.51680 0.05000
H 	H 	0.38587 0.04952 0.63136 0.06900
H 	H 	0.50631 0.80292 0.56563 0.05600
C 	C 	0.92458 0.33129 0.44293 -0.05800
C 	C 	0.90384 0.38045 0.43256 0.01900
C 	C 	0.94234 0.42728 0.41163 -0.00700
C 	C 	0.00770 0.43561 0.40554 0.01400
C 	C 	0.03694 0.40454 0.42229 -0.05700
C 	C 	0.99127 0.34258 0.43738 0.04300
C 	C 	0.85815 0.39847 0.44851 0.02200
S 	S 	0.91291 0.48131 0.39505 0.03900
H 	H 	0.04033 0.47680 0.39116 0.06700
S 	S 	0.02084 0.28719 0.45284 0.01800
H 	H 	0.89240 0.29028 0.45743 0.06400
C 	C 	0.78565 0.36037 0.44496 -0.00400
C 	C 	0.74266 0.36673 0.46380 0.00500
C 	C 	0.77141 0.40853 0.48661 -0.07300
C 	C 	0.84388 0.45400 0.48833 0.06000
C 	C 	0.88697 0.44817 0.46948 -0.05600
S 	S 	0.74803 0.30175 0.41784 0.00400
H 	H 	0.68667 0.33364 0.46192 0.05100
S 	S 	0.88125 0.51520 0.51484 0.01700
H 	H 	0.94287 0.47885 0.47195 0.07700
H 	H 	0.00992 0.22947 0.43671 0.06300
H 	H 	0.73705 0.23198 0.42376 0.04900
H 	H 	0.89131 0.47832 0.53522 0.06500
H 	H 	0.87338 0.44217 0.37408 0.05900
C 	C 	0.35677 0.23635 0.49903 -0.05700
C 	C 	0.37080 0.30028 0.48468 0.02200
C 	C 	0.43528 0.33996 0.47173 -0.00700
C 	C 	0.48941 0.32580 0.47801 0.00700
C 	C 	0.47952 0.27346 0.49744 -0.08700
C 	C 	0.41108 0.22212 0.50513 0.06700
C 	C 	0.32639 0.33494 0.48842 0.02600
S 	S 	0.44988 0.41034 0.44903 0.01500
H 	H 	0.54107 0.36156 0.47021 0.05000
S 	S 	0.39440 0.14507 0.52487 0.00500
H 	H 	0.30561 0.20192 0.50743 0.07700
C 	C 	0.26634 0.31304 0.47322 -0.00500
C 	C 	0.23520 0.35812 0.47242 0.00400
C 	C 	0.26536 0.42637 0.48576 -0.08100
C 	C 	0.31860 0.44207 0.50389 0.06400
C 	C 	0.34946 0.39691 0.50494 -0.05900
S 	S 	0.23274 0.23259 0.45373 0.01000
H 	H 	0.19205 0.34401 0.45927 0.05100
S 	S 	0.35102 0.52183 0.52372 0.00700
H 	H 	0.39466 0.41308 0.51716 0.08000
H 	H 	0.38117 0.08556 0.50930 0.03900
H 	H 	0.26563 0.25041 0.42991 0.05200
H 	H 	0.40199 0.58150 0.51042 0.05300
H 	H 	0.42978 0.37960 0.42468 0.05800
C 	C 	0.97456 0.15710 0.68877 -0.09700
C 	C 	0.94329 0.11003 0.66708 0.13100
C 	C 	0.92310 0.13643 0.64534 0.07100
C 	C 	0.92315 0.20436 0.64687 0.02000
C 	C 	0.95725 0.25309 0.66777 0.07200
C 	C 	0.98330 0.22968 0.68871 0.12200
C 	C 	0.87296 0.21491 0.63088 0.02000
C 	C 	0.89391 0.25534 0.60722 0.06900
C 	C 	0.84537 0.26500 0.59227 0.12800
C 	C 	0.77581 0.23286 0.60071 -0.11300
C 	C 	0.75412 0.18754 0.62328 0.12700
C 	C 	0.80300 0.18104 0.63884 0.06400
Br	Br	0.96382 0.34979 0.66846 -0.11000
Br	Br	0.92303 0.00799 0.66776 -0.14300
Br	Br	0.87414 0.32338 0.56056 -0.18900
Br	Br	0.77451 0.12715 0.67158 -0.11600
Br	Br	0.02525 0.29449 0.71828 -0.12800
Br	Br	0.88998 0.07708 0.61407 -0.13600
Br	Br	0.98892 0.29779 0.59553 -0.13400
Br	Br	0.65738 0.13385 0.63288 -0.16100
C 	C 	0.47769 0.37360 0.60567 -0.11800
C 	C 	0.41095 0.32268 0.59708 0.13200
C 	C 	0.35970 0.27948 0.61540 0.06200
C 	C 	0.37029 0.30040 0.64197 0.02000
C 	C 	0.43060 0.36645 0.64930 0.06600
C 	C 	0.48546 0.40220 0.63116 0.12500
C 	C 	0.31972 0.25203 0.66198 0.01800
C 	C 	0.25243 0.24291 0.66221 0.07000
C 	C 	0.19955 0.18274 0.67565 0.12500
C 	C 	0.21663 0.14717 0.69531 -0.10600
C 	C 	0.28478 0.15821 0.69643 0.12900
C 	C 	0.33518 0.20694 0.67843 0.06900
Br	Br	0.43812 0.40651 0.68391 -0.11100
Br	Br	0.39184 0.30941 0.56045 -0.19600
Br	Br	0.10755 0.13587 0.66191 -0.13500
Br	Br	0.42307 0.20889 0.67534 -0.14100
Br	Br	0.57290 0.48500 0.64166 -0.12800
Br	Br	0.28065 0.18696 0.60472 -0.14800
Br	Br	0.23251 0.31222 0.64410 -0.12500
Br	Br	0.30904 0.10780 0.72267 -0.13600
C 	C 	0.93929 0.84519 0.69980 -0.10000
C 	C 	0.97956 0.84809 0.67792 0.12300
C 	C 	0.95143 0.79170 0.65892 0.06700
C 	C 	0.88400 0.73097 0.66224 0.02200
C 	C 	0.84411 0.72761 0.68428 0.06900
C 	C 	0.87069 0.78618 0.70246 0.13000
C 	C 	0.85346 0.67273 0.64186 0.01900
C 	C 	0.80923 0.67632 0.62282 0.06700
C 	C 	0.77114 0.61539 0.60621 0.13100
C 	C 	0.78103 0.55281 0.60743 -0.10600
C 	C 	0.83161 0.55343 0.62431 0.12300
C 	C 	0.86586 0.61195 0.64224 0.06800
Br	Br	0.75321 0.64243 0.68955 -0.10600
Br	Br	0.07238 0.93021 0.67356 -0.11300
Br	Br	0.70222 0.61579 0.58314 -0.15600
Br	Br	0.92753 0.60761 0.66798 -0.11800
Br	Br	0.81205 0.78758 0.73019 -0.13000
Br	Br	0.00456 0.79815 0.62805 -0.11400
Br	Br	0.79995 0.76432 0.61995 -0.11400
Br	Br	0.85478 0.47479 0.62242 -0.15000
C 	C 	0.02873 0.40662 0.96249 -0.05200
C 	C 	0.08116 0.47916 0.95669 0.01800
C 	C 	0.08218 0.51013 0.93202 -0.00100
C 	C 	0.02490 0.47361 0.91538 0.02600
C 	C 	0.96615 0.40786 0.92367 -0.08500
C 	C 	0.97190 0.37008 0.94569 0.04900
C 	C 	0.13076 0.52425 0.97728 0.02400
S 	S 	0.15333 0.59557 0.92226 0.02600
H 	H 	0.02287 0.50040 0.89739 0.07700
S 	S 	0.90606 0.27932 0.95334 -0.00600
H 	H 	0.03040 0.38029 0.98065 0.07000
C 	C 	0.11474 0.56601 0.99505 -0.00500
C 	C 	0.15973 0.60289 0.01590 0.01200
C 	C 	0.22050 0.59831 0.01924 -0.08700
C 	C 	0.23852 0.56044 0.00030 0.07700
C 	C 	0.19313 0.52304 0.97976 -0.06900
S 	S 	0.03822 0.57172 0.99157 0.00600
H 	H 	0.14609 0.63270 0.03006 0.06100
S 	S 	0.31841 0.56092 0.00157 -0.06200
H 	H 	0.20622 0.49252 0.96570 0.07300
H 	H 	0.91992 0.22893 0.94115 0.06300
H 	H 	0.05199 0.63221 0.97637 0.06100
H 	H 	0.36665 0.61887 0.98678 0.05800
H 	H 	0.14686 0.65291 0.93278 0.06000
C 	C 	0.60665 0.03844 0.95527 -0.08500
C 	C 	0.62446 0.03369 0.98112 0.00800
C 	C 	0.67528 0.09845 0.99376 -0.00300
C 	C 	0.70554 0.16723 0.98055 0.00000
C 	C 	0.68201 0.17259 0.95549 -0.07700
C 	C 	0.62762 0.10763 0.94393 0.06300
C 	C 	0.57792 0.96606 0.99623 0.03600
S 	S 	0.70067 0.09430 0.02605 0.00700
H 	H 	0.74677 0.21616 0.98985 0.05400
S 	S 	0.57709 0.11297 0.91827 0.00900
H 	H 	0.56771 0.98869 0.94554 0.08500
C 	C 	0.50906 0.94924 0.00145 0.01400
C 	C 	0.46118 0.87920 0.01104 0.00700
C 	C 	0.48299 0.82898 0.01907 -0.07300
C 	C 	0.55142 0.84471 0.01343 0.06600
C 	C 	0.59827 0.91275 0.00164 -0.06000
S 	S 	0.48315 0.01695 0.99730 -0.02100
H 	H 	0.40816 0.86659 0.01484 0.06100
S 	S 	0.57967 0.78117 0.02191 -0.01400
H 	H 	0.65053 0.92444 0.99689 0.07700
H 	H 	0.51697 0.10658 0.92840 0.05400
H 	H 	0.45944 0.01335 0.97229 0.04500
H 	H 	0.60344 0.79393 0.04715 0.06700
H 	H 	0.65684 0.10222 0.04311 0.05600
C 	C 	0.61175 0.56971 0.05358 -0.06200
C 	C 	0.56213 0.49936 0.04433 0.01800
C 	C 	0.49864 0.45903 0.05795 -0.00100
C 	C 	0.48323 0.49277 0.07869 0.00100
C 	C 	0.52587 0.56897 0.08351 -0.06800
C 	C 	0.59359 0.60490 0.07304 0.05300
C 	C 	0.57496 0.47116 0.01943 0.01800
S 	S 	0.43522 0.36982 0.04762 0.00700
H 	H 	0.43349 0.46263 0.08849 0.07200
S 	S 	0.65386 0.69589 0.08269 0.01100
H 	H 	0.66255 0.59900 0.04440 0.06800
C 	C 	0.57876 0.50687 0.99536 0.00400
C 	C 	0.59982 0.48520 0.97265 0.00600
C 	C 	0.61556 0.42701 0.97363 -0.06500
C 	C 	0.59872 0.38299 0.99663 0.06100
C 	C 	0.58393 0.40853 0.01976 -0.06400
S 	S 	0.55644 0.57779 0.99336 -0.00600
H 	H 	0.60593 0.51508 0.95451 0.07300
S 	S 	0.58951 0.29313 0.99611 -0.00600
H 	H 	0.57757 0.37851 0.03791 0.06700
H 	H 	0.68987 0.69319 0.10408 0.06800
H 	H 	0.61424 0.64520 0.99796 0.05500
H 	H 	0.52156 0.24166 0.99135 0.05900
H 	H 	0.39399 0.37677 0.02910 0.05200
C 	C 	0.79875 0.41865 0.82112 -0.10800
C 	C 	0.86770 0.45183 0.81197 0.12900
C 	C 	0.89009 0.40828 0.79813 0.06800
C 	C 	0.84312 0.33213 0.79406 0.02100
C 	C 	0.77126 0.30608 0.79728 0.06200
C 	C 	0.74942 0.35294 0.80894 0.12100
C 	C 	0.86960 0.27856 0.79127 0.01400
C 	C 	0.86082 0.24003 0.76766 0.07500
C 	C 	0.87446 0.18050 0.76683 0.12000
C 	C 	0.91680 0.17444 0.78616 -0.09700
C 	C 	0.92967 0.21591 0.80940 0.12300
C 	C 	0.90141 0.26363 0.81269 0.07100
Br	Br	0.70394 0.20609 0.78757 -0.11200
Br	Br	0.93272 0.55229 0.82187 -0.12200
Br	Br	0.82050 0.09852 0.74398 -0.14500
Br	Br	0.90464 0.30652 0.84649 -0.17900
Br	Br	0.65406 0.32991 0.80724 -0.11600
Br	Br	0.98467 0.45084 0.78612 -0.11800
Br	Br	0.83530 0.27175 0.73611 -0.10400
Br	Br	0.98663 0.20847 0.83642 -0.13800
C 	C 	0.22908 0.14580 0.81448 -0.09800
C 	C 	0.22431 0.09159 0.83247 0.12200
C 	C 	0.28428 0.09975 0.84493 0.07200
C 	C 	0.34786 0.16580 0.84164 0.01800
C 	C 	0.35097 0.22414 0.82627 0.06900
C 	C 	0.29204 0.21363 0.81222 0.12800
C 	C 	0.41097 0.17501 0.85504 0.02000
C 	C 	0.42451 0.20059 0.88104 0.06500
C 	C 	0.49005 0.22240 0.89188 0.12500
C 	C 	0.54348 0.22572 0.87588 -0.11400
C 	C 	0.52489 0.18361 0.85278 0.13200
C 	C 	0.45956 0.16170 0.84150 0.06600
Br	Br	0.43639 0.31780 0.82411 -0.12000
Br	Br	0.13573 0.00586 0.83985 -0.14900
Br	Br	0.50842 0.25212 0.92798 -0.21600
Br	Br	0.43772 0.11649 0.80739 -0.11200
Br	Br	0.29899 0.29003 0.78858 -0.13200
Br	Br	0.28007 0.01928 0.86563 -0.13600
Br	Br	0.35557 0.21115 0.90091 -0.14300
Br	Br	0.57964 0.14047 0.84087 -0.14200
C 	C 	0.87254 0.64489 0.92505 -0.11900
C 	C 	0.93946 0.68314 0.91407 0.12800
C 	C 	0.95747 0.74549 0.89795 0.05700
C 	C 	0.90809 0.76857 0.89322 0.02400
C 	C 	0.84899 0.74152 0.90951 0.06300
C 	C 	0.83393 0.68217 0.92675 0.12600
C 	C 	0.91042 0.80628 0.86819 0.01600
C 	C 	0.93951 0.88416 0.86717 0.07400
C 	C 	0.94857 0.91994 0.84284 0.13600
C 	C 	0.93652 0.87931 0.81950 -0.09700
C 	C 	0.90505 0.80117 0.82054 0.12600
C 	C 	0.88856 0.76454 0.84490 0.07000
Br	Br	0.78563 0.77996 0.90617 -0.14100
Br	Br	0.00133 0.64323 0.91788 -0.17800
Br	Br	0.97691 0.02423 0.84139 -0.17100
Br	Br	0.83625 0.65736 0.84647 -0.13900
Br	Br	0.75853 0.64871 0.95131 -0.18900
Br	Br	0.04653 0.79525 0.88069 -0.10400
Br	Br	0.97083 0.94199 0.89882 -0.11500
Br	Br	0.88971 0.74488 0.78880 -0.11600
