data_crystal

_cell_length_a 25.79783
_cell_length_b 25.42092
_cell_length_c 34.93411
_cell_angle_alpha 95.54035
_cell_angle_beta  95.54387
_cell_angle_gamma 125.69103

_symmetry_space_group_name_	'P 1'
_symmetry_space_group_name_H-M	'P 1'

loop_
_symmetry_equiv_pos_as_xyz
  x,y,z

loop_
_atom_site_label
_atom_site_type_symbol
_atom_site_fract_x
_atom_site_fract_y
_atom_site_fract_z
_atom_site_charge
C 	C 	0.98023 0.03249 0.99453 0.03900
C 	C 	0.93389 0.96363 0.98803 -0.07300
C 	C 	0.95250 0.92234 0.97989 0.03100
C 	C 	0.01707 0.94998 0.97664 -0.07100
C 	C 	0.06315 0.01859 0.98206 0.03200
C 	C 	0.04487 0.05978 0.99174 -0.07200
H 	H 	0.88339 0.94223 0.98861 0.05500
H 	H 	0.03156 0.91820 0.97019 0.05100
H 	H 	0.08097 0.11290 0.99756 0.05600
C 	C 	0.94281 0.00517 0.46462 0.03100
C 	C 	0.91504 0.93933 0.46784 -0.07000
C 	C 	0.95361 0.91668 0.46968 0.03200
C 	C 	0.01984 0.96037 0.46753 -0.06900
C 	C 	0.04678 0.02499 0.46261 0.03200
C 	C 	0.00816 0.04705 0.46061 -0.07100
H 	H 	0.86398 0.90628 0.46926 0.05000
H 	H 	0.05078 0.94460 0.47006 0.05300
H 	H 	0.02935 0.09722 0.45689 0.05200
Cu	Cu	0.64547 0.23404 0.00222 0.92600
Cu	Cu	0.69603 0.22321 0.92108 0.87200
Cu	Cu	0.67445 0.32453 0.94311 0.89900
Cu	Cu	0.63270 0.34970 0.01591 0.89100
C 	C 	0.66151 0.29597 0.08027 0.29200
O 	O 	0.54907 0.18785 0.00012 -0.36600
C 	C 	0.65284 0.26417 0.86092 0.29200
O 	O 	0.68971 0.33335 0.99880 -0.63200
O 	O 	0.63528 0.23008 0.94500 -0.63900
O 	O 	0.69402 0.19573 0.00688 -0.38100
O 	O 	0.76121 0.25634 0.96627 -0.44100
O 	O 	0.62698 0.31498 0.06561 -0.38100
O 	O 	0.71687 0.41764 0.94544 -0.37700
C 	C 	0.70709 0.45413 0.96859 0.29100
C 	C 	0.51865 0.20841 0.98220 0.28800
O 	O 	0.55236 0.26696 0.97272 -0.39000
O 	O 	0.66239 0.42801 0.99083 -0.39000
O 	O 	0.66787 0.25546 0.05820 -0.36200
C 	C 	0.74963 0.22328 0.99490 0.30500
O 	O 	0.67675 0.31846 0.88663 -0.38500
O 	O 	0.65111 0.21485 0.87151 -0.41800
H 	H 	0.73584 0.36602 0.01174 0.15800
H 	H 	0.58998 0.19919 0.93035 0.17300
Cu	Cu	0.72566 0.33959 0.44979 0.92800
Cu	Cu	0.70507 0.25895 0.52179 0.87000
Cu	Cu	0.61663 0.29312 0.49634 0.89500
Cu	Cu	0.61280 0.35258 0.42548 0.89600
C 	C 	0.68821 0.34230 0.37055 0.29200
O 	O 	0.76751 0.43763 0.46101 -0.36100
C 	C 	0.64993 0.28963 0.57909 0.29500
O 	O 	0.62449 0.29076 0.44204 -0.63500
O 	O 	0.71090 0.33173 0.50403 -0.64300
O 	O 	0.77148 0.29800 0.44726 -0.36600
O 	O 	0.69630 0.21174 0.47309 -0.43800
O 	O 	0.66691 0.37528 0.38409 -0.37900
O 	O 	0.52558 0.25653 0.48572 -0.38000
C 	C 	0.50241 0.28379 0.46747 0.28800
C 	C 	0.74099 0.46146 0.47930 0.27900
O 	O 	0.67796 0.42407 0.47830 -0.38900
O 	O 	0.52262 0.30769 0.43567 -0.38800
O 	O 	0.72361 0.33282 0.39452 -0.36100
C 	C 	0.74499 0.23832 0.45432 0.28800
O 	O 	0.60529 0.27773 0.55014 -0.38900
O 	O 	0.69833 0.28781 0.57235 -0.41600
H 	H 	0.59591 0.24605 0.42557 0.16400
H 	H 	0.73862 0.37357 0.52339 0.17200
C 	C 	0.68156 0.34322 0.68848 -0.07300
C 	C 	0.62940 0.28570 0.69852 0.01300
C 	C 	0.57889 0.23381 0.66877 -0.00700
C 	C 	0.58377 0.23770 0.62943 -0.00300
C 	C 	0.63889 0.29274 0.61950 -0.09500
C 	C 	0.68668 0.34693 0.64915 0.05800
C 	C 	0.63240 0.27685 0.73966 0.01300
S 	S 	0.51084 0.16259 0.68046 -0.04300
H 	H 	0.54619 0.19654 0.60662 0.03700
S 	S 	0.75283 0.41967 0.63739 -0.05900
H 	H 	0.71956 0.38395 0.71134 0.05400
C 	C 	0.66496 0.25156 0.75416 -0.00700
C 	C 	0.66954 0.24578 0.79351 -0.00300
C 	C 	0.64178 0.26481 0.81878 -0.09400
C 	C 	0.60683 0.28759 0.80385 0.05800
C 	C 	0.60307 0.29423 0.76453 -0.07300
S 	S 	0.70022 0.22702 0.72328 -0.04600
H 	H 	0.69601 0.22780 0.80472 0.03100
S 	S 	0.56487 0.30463 0.83341 -0.05000
H 	H 	0.57690 0.31244 0.75318 0.05400
H 	H 	0.73606 0.46086 0.63156 0.03700
H 	H 	0.65448 0.16257 0.70515 0.03200
H 	H 	0.50352 0.24809 0.83119 0.03500
H 	H 	0.52422 0.11852 0.68520 0.03300
C 	C 	0.63097 0.29726 0.26057 -0.07400
C 	C 	0.68920 0.32034 0.24749 0.01400
C 	C 	0.74665 0.34810 0.27490 -0.00600
C 	C 	0.74563 0.35415 0.31503 0.00000
C 	C 	0.68754 0.33203 0.32817 -0.09100
C 	C 	0.62957 0.30196 0.30063 0.05700
C 	C 	0.68948 0.31562 0.20501 0.01400
S 	S 	0.81980 0.37449 0.25932 -0.03700
H 	H 	0.79021 0.37679 0.33604 0.04800
S 	S 	0.55450 0.26705 0.31581 -0.07700
H 	H 	0.58656 0.27494 0.23947 0.05300
C 	C 	0.66488 0.25501 0.18103 -0.00700
C 	C 	0.65827 0.24968 0.14033 -0.00100
C 	C 	0.67692 0.30463 0.12323 -0.08900
C 	C 	0.70585 0.36638 0.14748 0.05800
C 	C 	0.71097 0.37126 0.18812 -0.07300
S 	S 	0.64209 0.18551 0.20163 -0.03800
H 	H 	0.63704 0.20234 0.12191 0.04700
S 	S 	0.73832 0.43830 0.12752 -0.07400
H 	H 	0.73139 0.41830 0.20664 0.05500
H 	H 	0.52754 0.20296 0.31896 0.03400
H 	H 	0.57855 0.15210 0.20588 0.03500
H 	H 	0.80173 0.46574 0.12507 0.03500
H 	H 	0.82287 0.32239 0.25311 0.03800
C 	C 	0.92325 0.75469 0.49540 0.00400
C 	C 	0.91790 0.69638 0.49196 -0.05700
C 	C 	0.86641 0.64314 0.50544 0.01500
C 	C 	0.81903 0.64726 0.51897 0.00100
C 	C 	0.81968 0.70253 0.51706 -0.06100
C 	C 	0.87415 0.75770 0.50662 0.02600
S 	S 	0.96430 0.81332 0.46975 -0.01500
C 	C 	0.92470 0.84710 0.47334 -0.00200
C 	C 	0.87571 0.81063 0.49505 -0.06000
S 	S 	0.75230 0.57073 0.51561 0.01400
C 	C 	0.78192 0.53050 0.50002 -0.07600
C 	C 	0.84565 0.57746 0.49492 -0.02200
H 	H 	0.95063 0.69149 0.47755 0.04700
H 	H 	0.77810 0.70139 0.52155 0.04600
H 	H 	0.84269 0.82158 0.50227 0.04500
H 	H 	0.87215 0.56481 0.47904 0.04600
C 	C 	0.83409 0.06413 0.44373 -0.00000
C 	C 	0.78000 0.06492 0.43825 -0.05500
C 	C 	0.78862 0.12292 0.45452 0.01000
C 	C 	0.84831 0.17580 0.47787 0.00300
C 	C 	0.90177 0.17427 0.48388 -0.06400
C 	C 	0.89293 0.11633 0.46784 0.02800
S 	S 	0.83177 0.99693 0.43996 -0.01000
C 	C 	0.90476 0.03143 0.46797 -0.00500
C 	C 	0.93306 0.09838 0.48130 -0.06200
S 	S 	0.85296 0.24380 0.47847 -0.00200
C 	C 	0.78020 0.20968 0.45073 -0.07900
C 	C 	0.74932 0.14162 0.44015 -0.02100
H 	H 	0.73406 0.02344 0.42056 0.04400
H 	H 	0.94800 0.21596 0.50120 0.04600
H 	H 	0.98003 0.13232 0.50050 0.04500
H 	H 	0.70115 0.10734 0.42233 0.03700
C 	C 	0.34082 0.22897 0.50326 -0.00000
C 	C 	0.28423 0.18130 0.51591 -0.06000
C 	C 	0.22428 0.15658 0.49283 0.02600
C 	C 	0.22175 0.17720 0.45721 0.00300
C 	C 	0.27802 0.21687 0.44182 -0.05600
C 	C 	0.33820 0.24447 0.46583 0.01500
S 	S 	0.41287 0.24468 0.51674 0.02600
C 	C 	0.44415 0.27485 0.47767 -0.07600
C 	C 	0.39658 0.27035 0.45132 -0.02000
S 	S 	0.14782 0.12149 0.43037 -0.01300
C 	C 	0.11675 0.07080 0.46244 -0.00400
C 	C 	0.16480 0.09727 0.49604 -0.06100
H 	H 	0.28672 0.16121 0.54142 0.04700
H 	H 	0.27495 0.22309 0.41164 0.04600
H 	H 	0.40058 0.27691 0.42129 0.04300
H 	H 	0.15743 0.07446 0.52159 0.04600
C 	C 	0.77848 0.62264 0.93438 0.00100
C 	C 	0.82566 0.68247 0.92399 -0.06000
C 	C 	0.83632 0.74005 0.94297 0.02700
C 	C 	0.80200 0.73736 0.97267 0.00800
C 	C 	0.76167 0.67900 0.98661 -0.04800
C 	C 	0.74912 0.62104 0.96664 0.01000
S 	S 	0.77750 0.55630 0.92846 0.02800
C 	C 	0.73987 0.52348 0.96527 -0.08000
C 	C 	0.72621 0.56443 0.98355 -0.00900
S 	S 	0.84389 0.81242 0.00012 -0.02900
C 	C 	0.90481 0.85026 0.97545 0.00500
C 	C 	0.89371 0.80414 0.94409 -0.06300
H 	H 	0.85618 0.68477 0.90395 0.04700
H 	H 	0.74454 0.67957 0.01367 0.04000
H 	H 	0.70344 0.55549 0.00903 0.03300
H 	H 	0.92695 0.81543 0.92409 0.04600
C 	C 	0.84493 0.15765 0.03339 0.00300
C 	C 	0.84521 0.10285 0.03447 -0.06200
C 	C 	0.88572 0.09745 0.01321 0.01900
C 	C 	0.92106 0.14304 0.98949 0.00400
C 	C 	0.92224 0.19861 0.98903 -0.04600
C 	C 	0.88128 0.20403 0.00995 -0.00700
S 	S 	0.78171 0.15786 0.03855 0.02400
C 	C 	0.79929 0.21785 0.01382 -0.10000
C 	C 	0.85586 0.23825 0.99921 -0.00100
S 	S 	0.97916 0.13708 0.97922 -0.00700
C 	C 	0.96115 0.07629 0.00346 -0.01700
C 	C 	0.90744 0.05892 0.02070 -0.05800
H 	H 	0.81560 0.06628 0.05161 0.04600
H 	H 	0.95112 0.23441 0.97131 0.04100
H 	H 	0.87176 0.26824 0.97681 0.03200
H 	H 	0.88634 0.02166 0.03880 0.04300
C 	C 	0.34912 0.13010 0.00926 -0.01000
C 	C 	0.28775 0.08454 0.01787 -0.05600
C 	C 	0.23819 0.09017 0.00522 0.01700
C 	C 	0.24953 0.13747 0.98256 0.01300
C 	C 	0.30782 0.17550 0.96881 -0.06300
C 	C 	0.35855 0.17277 0.98355 0.02600
S 	S 	0.40750 0.12050 0.00962 0.01800
C 	C 	0.44799 0.17113 0.97888 -0.07200
C 	C 	0.41438 0.19639 0.96669 -0.02900
S 	S 	0.17804 0.11521 0.95997 -0.01600
C 	C 	0.13081 0.04708 0.97853 0.00300
C 	C 	0.17132 0.03983 0.00348 -0.06700
H 	H 	0.27816 0.04457 0.03221 0.04500
H 	H 	0.31249 0.20363 0.94625 0.04800
H 	H 	0.43045 0.23164 0.94727 0.04200
H 	H 	0.15340 0.00016 0.01979 0.04500
