data_crystal

_cell_length_a 18.65224
_cell_length_b 18.82620
_cell_length_c 30.97278
_cell_angle_alpha 95.39766
_cell_angle_beta  95.39744
_cell_angle_gamma 126.43497

_symmetry_space_group_name_	'P 1'
_symmetry_space_group_name_H-M	'P 1'

loop_
_symmetry_equiv_pos_as_xyz
  x,y,z

loop_
_atom_site_label
_atom_site_type_symbol
_atom_site_fract_x
_atom_site_fract_y
_atom_site_fract_z
_atom_site_charge
C 	C 	0.86324 0.92800 0.96368 0.06000
C 	C 	0.95815 0.98007 0.97061 0.00400
C 	C 	0.00063 0.93917 0.97483 0.07700
C 	C 	0.94863 0.84653 0.97343 -0.02100
C 	C 	0.85407 0.79393 0.96742 0.06800
C 	C 	0.81092 0.83451 0.96221 -0.01100
H 	H 	0.99877 0.05204 0.97190 0.11100
H 	H 	0.98171 0.81489 0.97583 0.10900
H 	H 	0.73756 0.79380 0.95680 0.10600
C 	C 	0.99372 0.10825 0.50432 0.09600
C 	C 	0.08637 0.16725 0.50194 -0.03000
C 	C 	0.13579 0.13359 0.49657 0.08700
C 	C 	0.09201 0.04129 0.49222 -0.05400
C 	C 	0.99966 0.98237 0.49348 0.11900
C 	C 	0.95123 0.01602 0.50095 -0.07000
H 	H 	0.11945 0.23840 0.50386 0.12700
H 	H 	0.13014 0.01534 0.48825 0.11200
H 	H 	0.88007 0.97034 0.50303 0.13800
Cu	Cu	0.69404 0.25856 0.93838 0.93400
Cu	Cu	0.75246 0.24681 0.04412 0.93700
Cu	Cu	0.56320 0.19990 0.00363 0.92200
Cu	Cu	0.51258 0.23954 0.91564 0.94100
C 	C 	0.61898 0.24042 0.84830 0.30200
O 	O 	0.74572 0.38890 0.93612 -0.30500
C 	C 	0.63958 0.25085 0.09862 0.29300
O 	O 	0.55568 0.18241 0.94119 -0.63200
O 	O 	0.69718 0.28028 0.00325 -0.61400
O 	O 	0.74657 0.19088 0.93473 -0.31300
O 	O 	0.81866 0.23320 0.00612 -0.32600
O 	O 	0.54204 0.22294 0.85679 -0.29800
O 	O 	0.43299 0.12273 0.99840 -0.33100
C 	C 	0.37964 0.13020 0.97137 0.30500
C 	C 	0.70111 0.42030 0.94612 0.29700
O 	O 	0.62162 0.36745 0.95712 -0.33900
O 	O 	0.41381 0.19842 0.95038 -0.31100
O 	O 	0.66685 0.22552 0.87493 -0.32200
C 	C 	0.77692 0.17376 0.96929 0.29000
O 	O 	0.56990 0.19161 0.06663 -0.34100
O 	O 	0.72323 0.29240 0.09187 -0.35500
H 	H 	0.52020 0.11813 0.92756 0.22000
H 	H 	0.72192 0.34330 0.01412 0.18000
Cu	Cu	0.66869 0.29150 0.51973 0.93600
Cu	Cu	0.71529 0.26160 0.42294 0.93200
Cu	Cu	0.72057 0.41827 0.45261 0.90800
Cu	Cu	0.70354 0.47870 0.54405 0.93900
C 	C 	0.69562 0.37003 0.60987 0.30200
O 	O 	0.54065 0.24935 0.52292 -0.30600
C 	C 	0.67412 0.33415 0.35768 0.28600
O 	O 	0.75276 0.42910 0.51496 -0.63000
O 	O 	0.64682 0.28713 0.45499 -0.62400
O 	O 	0.71722 0.22036 0.52032 -0.30600
O 	O 	0.80583 0.29380 0.47088 -0.36700
O 	O 	0.72512 0.45010 0.60184 -0.30300
O 	O 	0.80003 0.54687 0.45476 -0.33300
C 	C 	0.80725 0.60517 0.48563 0.30900
C 	C 	0.51375 0.29771 0.51358 0.30100
O 	O 	0.57064 0.37671 0.50353 -0.33800
O 	O 	0.74660 0.57872 0.51127 -0.31300
O 	O 	0.70325 0.31641 0.58324 -0.32300
C 	C 	0.78473 0.24167 0.50009 0.30200
O 	O 	0.70419 0.40604 0.38739 -0.34500
O 	O 	0.65454 0.26005 0.36960 -0.35100
H 	H 	0.81859 0.46196 0.52544 0.22100
H 	H 	0.58235 0.25309 0.44089 0.20100
C 	C 	0.63842 0.25466 0.80330 -0.01100
C 	C 	0.68110 0.22282 0.78294 0.02200
C 	C 	0.69849 0.23627 0.74019 -0.02400
C 	C 	0.67545 0.28363 0.71782 0.04200
C 	C 	0.63429 0.31719 0.73863 0.05600
C 	C 	0.61326 0.29987 0.78049 0.00600
C 	C 	0.61621 0.36915 0.71773 -0.01300
C 	C 	0.63845 0.38769 0.67643 0.04400
C 	C 	0.67503 0.35094 0.65426 -0.01300
C 	C 	0.69403 0.29906 0.67515 -0.00100
H 	H 	0.69968 0.18663 0.79988 0.08700
H 	H 	0.73047 0.21049 0.72473 0.09200
H 	H 	0.57813 0.32233 0.79548 0.12500
H 	H 	0.58630 0.39666 0.73384 0.12100
H 	H 	0.62693 0.43062 0.66152 0.12000
H 	H 	0.72459 0.27252 0.65880 0.08700
C 	C 	0.66780 0.33885 0.31025 -0.03700
C 	C 	0.73410 0.41813 0.29626 0.02200
C 	C 	0.73832 0.41839 0.25139 -0.03100
C 	C 	0.67609 0.33940 0.21997 0.03900
C 	C 	0.60601 0.26090 0.23360 0.03900
C 	C 	0.60193 0.26113 0.27869 -0.00400
C 	C 	0.54301 0.18225 0.20216 -0.02900
C 	C 	0.55192 0.18018 0.15783 0.02600
C 	C 	0.62408 0.25669 0.14436 -0.03900
C 	C 	0.68480 0.33696 0.17534 -0.00600
H 	H 	0.78476 0.47864 0.32028 0.07800
H 	H 	0.79143 0.47943 0.24125 0.09100
H 	H 	0.54944 0.20034 0.28931 0.08400
H 	H 	0.48823 0.12203 0.21215 0.09000
H 	H 	0.50432 0.11812 0.13420 0.08400
H 	H 	0.73953 0.39665 0.16490 0.08000
C 	C 	0.97240 0.85456 0.52534 0.02100
C 	C 	0.95506 0.88553 0.48940 0.07000
C 	C 	0.89981 0.82480 0.44924 -0.11000
C 	C 	0.85522 0.73242 0.44766 0.07700
C 	C 	0.86953 0.70127 0.48440 0.00200
C 	C 	0.93386 0.76333 0.52236 -0.06600
C 	C 	0.95800 0.73199 0.56064 0.77100
H 	H 	0.01617 0.90186 0.55564 0.12000
H 	H 	0.80637 0.68425 0.41857 0.09600
C 	C 	0.88457 0.85758 0.40890 0.78500
F 	F 	0.04018 0.80203 0.58704 -0.39300
F 	F 	0.96541 0.66555 0.54527 -0.43600
F 	F 	0.89138 0.69846 0.58612 -0.42700
F 	F 	0.96656 0.92942 0.40071 -0.37900
F 	F 	0.83098 0.88414 0.41596 -0.40600
F 	F 	0.84169 0.79082 0.37153 -0.39600
C 	C 	0.88692 0.21843 0.54252 0.07800
C 	C 	0.82559 0.19463 0.50395 -0.00300
C 	C 	0.81464 0.13656 0.46692 -0.06800
C 	C 	0.87534 0.11552 0.46677 0.02400
C 	C 	0.93805 0.14060 0.50490 0.07800
C 	C 	0.94070 0.18848 0.54404 -0.11900
C 	C 	0.00274 0.21048 0.58684 0.78800
H 	H 	0.89458 0.26237 0.57085 0.09100
H 	H 	0.87264 0.07777 0.43713 0.13200
C 	C 	0.74128 0.10012 0.42661 0.76900
F 	F 	0.98328 0.24250 0.62238 -0.40600
F 	F 	0.09192 0.27554 0.58364 -0.41800
F 	F 	0.99251 0.13439 0.59537 -0.41700
F 	F 	0.77219 0.16241 0.39911 -0.47300
F 	F 	0.66307 0.08180 0.43866 -0.45900
F 	F 	0.71893 0.02093 0.40338 -0.39400
C 	C 	0.29068 0.23320 0.54141 0.01700
C 	C 	0.23517 0.19505 0.49947 0.08200
C 	C 	0.27365 0.19832 0.46172 -0.12300
C 	C 	0.36332 0.22669 0.46725 0.07900
C 	C 	0.41723 0.25945 0.50945 -0.00400
C 	C 	0.38188 0.26604 0.54684 -0.06500
C 	C 	0.44101 0.30693 0.59243 0.77200
H 	H 	0.26110 0.23233 0.57002 0.12300
H 	H 	0.39155 0.22392 0.43866 0.07800
C 	C 	0.21776 0.16626 0.41562 0.79100
F 	F 	0.39516 0.30913 0.62454 -0.40900
F 	F 	0.51561 0.39416 0.59279 -0.45600
F 	F 	0.46963 0.25671 0.60303 -0.44300
F 	F 	0.16034 0.19007 0.41345 -0.40500
F 	F 	0.16682 0.07384 0.40453 -0.39700
F 	F 	0.27304 0.20428 0.38490 -0.40700
C 	C 	0.76813 0.64303 0.92027 0.01300
C 	C 	0.80061 0.69513 0.96280 0.08700
C 	C 	0.79891 0.65590 0.99991 -0.12800
C 	C 	0.77543 0.56894 0.99339 0.07300
C 	C 	0.74474 0.51734 0.95082 -0.00300
C 	C 	0.73981 0.55415 0.91382 -0.06500
C 	C 	0.70117 0.49759 0.86776 0.77100
H 	H 	0.76824 0.67316 0.89211 0.11900
H 	H 	0.77832 0.54010 0.02158 0.08000
C 	C 	0.82641 0.70798 0.04647 0.79500
F 	F 	0.70746 0.54666 0.83573 -0.41700
F 	F 	0.61064 0.42709 0.86519 -0.45800
F 	F 	0.74810 0.46403 0.85879 -0.44200
F 	F 	0.79463 0.75826 0.04918 -0.40200
F 	F 	0.91989 0.76470 0.05837 -0.38900
F 	F 	0.79101 0.65054 0.07636 -0.40900
C 	C 	0.81203 0.08172 0.92687 0.09300
C 	C 	0.78166 0.09743 0.96378 -0.00400
C 	C 	0.75879 0.04169 0.99589 -0.08200
C 	C 	0.78302 0.98359 0.99465 0.02600
C 	C 	0.81918 0.97239 0.95924 0.11300
C 	C 	0.82550 0.01542 0.92302 -0.16100
C 	C 	0.85057 0.99419 0.88111 0.82800
H 	H 	0.82673 0.12216 0.90154 0.09200
H 	H 	0.77631 0.94910 0.02189 0.13100
C 	C 	0.71136 0.04555 0.03225 0.76200
F 	F 	0.81877 0.01371 0.84548 -0.41600
F 	F 	0.81283 0.90394 0.87158 -0.41900
F 	F 	0.94385 0.04505 0.88614 -0.43300
F 	F 	0.64661 0.05561 0.01629 -0.49400
F 	F 	0.77450 0.11689 0.06604 -0.46300
F 	F 	0.66764 0.96718 0.04927 -0.38800
C 	C 	0.25507 0.07934 0.01286 0.08600
C 	C 	0.28239 0.07488 0.97267 -0.00500
C 	C 	0.21681 0.02426 0.93341 -0.07900
C 	C 	0.12589 0.98661 0.93450 0.03800
C 	C 	0.09834 0.99085 0.97459 0.10000
C 	C 	0.16309 0.03684 0.01437 -0.13300
C 	C 	0.13433 0.04181 0.05816 0.77600
H 	H 	0.30600 0.11787 0.04272 0.09000
H 	H 	0.07567 0.95189 0.90424 0.12300
C 	C 	0.24380 0.01247 0.89007 0.75000
F 	F 	0.20725 0.08885 0.09310 -0.40700
F 	F 	0.07257 0.95609 0.06610 -0.36600
F 	F 	0.09465 0.08471 0.05692 -0.41300
F 	F 	0.30593 0.99493 0.89655 -0.41700
F 	F 	0.28181 0.08993 0.87268 -0.42400
F 	F 	0.16946 0.94137 0.85958 -0.38100
