data_crystal

_cell_length_a 19.28784
_cell_length_b 17.29505
_cell_length_c 33.38927
_cell_angle_alpha 88.29339
_cell_angle_beta  88.42540
_cell_angle_gamma 107.45947

_symmetry_space_group_name_	'P 1'
_symmetry_space_group_name_H-M	'P 1'

loop_
_symmetry_equiv_pos_as_xyz
  x,y,z

loop_
_atom_site_label
_atom_site_type_symbol
_atom_site_fract_x
_atom_site_fract_y
_atom_site_fract_z
_atom_site_charge
Zn	Zn	0.57328 0.33734 0.88283 1.22100
Zn	Zn	0.68623 0.47195 0.93559 1.19500
C 	C 	0.77333 0.22789 0.84043 0.28000
Zn	Zn	0.74200 0.36837 0.87771 1.21900
Zn	Zn	0.61476 0.20682 0.84048 1.19000
H 	H 	0.66544 0.31900 0.94168 0.17700
C 	C 	0.74214 0.52960 0.84947 0.29200
O 	O 	0.50764 0.17487 0.83362 -0.46300
O 	O 	0.49168 0.30013 0.84009 -0.40100
O 	O 	0.66541 0.35830 0.91952 -0.79100
O 	O 	0.58812 0.48024 0.94717 -0.47200
O 	O 	0.51684 0.24637 0.91841 -0.44000
O 	O 	0.54108 0.43450 0.88723 -0.43600
O 	O 	0.59407 0.17279 0.90473 -0.41000
O 	O 	0.79076 0.52606 0.93335 -0.47100
H 	H 	0.64719 0.35559 0.81895 0.16900
O 	O 	0.82872 0.41728 0.91787 -0.39800
O 	O 	0.64772 0.32588 0.84469 -0.79800
O 	O 	0.70692 0.17746 0.84584 -0.45000
O 	O 	0.77244 0.47120 0.84555 -0.44400
O 	O 	0.79589 0.29088 0.86335 -0.42800
O 	O 	0.68563 0.51957 0.87439 -0.41600
C 	C 	0.46949 0.22569 0.82742 0.29200
C 	C 	0.53527 0.46614 0.92197 0.31100
C 	C 	0.53860 0.18272 0.92561 0.29100
C 	C 	0.83999 0.48810 0.93432 0.28400
Zn	Zn	0.64964 0.38370 0.56401 1.22300
Zn	Zn	0.54626 0.25719 0.50190 1.20100
C 	C 	0.69138 0.14054 0.62763 0.28800
Zn	Zn	0.58130 0.19791 0.58615 1.22300
Zn	Zn	0.73473 0.32160 0.62233 1.19100
H 	H 	0.66493 0.25040 0.52681 0.17700
C 	C 	0.43721 0.21489 0.57819 0.28800
O 	O 	0.78269 0.43897 0.62749 -0.47200
O 	O 	0.69801 0.49017 0.59752 -0.39000
O 	O 	0.62393 0.26617 0.53883 -0.79600
O 	O 	0.56892 0.37282 0.48568 -0.47500
O 	O 	0.73638 0.41946 0.52948 -0.44400
O 	O 	0.57451 0.43251 0.54582 -0.43100
O 	O 	0.78779 0.33502 0.56221 -0.41300
O 	O 	0.49389 0.14316 0.49663 -0.46600
H 	H 	0.60587 0.32800 0.63275 0.17100
O 	O 	0.53134 0.09082 0.55315 -0.38700
O 	O 	0.63296 0.31080 0.61087 -0.80200
O 	O 	0.73991 0.20966 0.61637 -0.46900
O 	O 	0.48350 0.19956 0.60322 -0.44200
O 	O 	0.62198 0.12677 0.62010 -0.43100
O 	O 	0.46084 0.26459 0.54642 -0.40500
C 	C 	0.76057 0.50103 0.61562 0.29300
C 	C 	0.55165 0.42419 0.50891 0.31000
C 	C 	0.79179 0.39265 0.53493 0.30000
C 	C 	0.48441 0.08517 0.52443 0.29200
Zn	Zn	0.94534 0.90412 0.71288 1.21800
Zn	Zn	0.05946 0.96103 0.78568 1.18600
C 	C 	0.14073 0.08528 0.62787 0.28200
Zn	Zn	0.07219 0.06428 0.70785 1.22900
Zn	Zn	0.98435 0.97687 0.62548 1.17400
H 	H 	0.09185 0.92609 0.71461 0.17100
C 	C 	0.97956 0.09406 0.77264 0.26900
O 	O 	0.88154 0.91065 0.62041 -0.46100
O 	O 	0.84102 0.87426 0.68553 -0.38700
O 	O 	0.05683 0.95110 0.72683 -0.80100
O 	O 	0.98178 0.85981 0.80447 -0.48000
O 	O 	0.96237 0.80757 0.69280 -0.45900
O 	O 	0.89324 0.88127 0.76526 -0.45200
O 	O 	0.99975 0.85568 0.62964 -0.41700
O 	O 	0.13390 0.06425 0.79752 -0.44700
H 	H 	0.93907 0.03613 0.68631 0.17400
O 	O 	0.17555 0.10845 0.73366 -0.40100
O 	O 	0.97496 0.00613 0.68244 -0.78400
O 	O 	0.09505 0.01951 0.61313 -0.41700
O 	O 	0.02737 0.12830 0.74338 -0.41400
O 	O 	0.12045 0.12178 0.65805 -0.44000
O 	O 	0.97719 0.02320 0.78908 -0.39600
C 	C 	0.83304 0.90566 0.64988 0.28200
C 	C 	0.91363 0.83903 0.79356 0.30900
C 	C 	0.96102 0.79706 0.65441 0.30500
C 	C 	0.18710 0.10254 0.77202 0.29700
Zn	Zn	0.32441 0.69388 0.39218 1.22200
Zn	Zn	0.19589 0.55103 0.44106 1.19900
C 	C 	0.13473 0.81015 0.33939 0.29900
Zn	Zn	0.15812 0.66353 0.37932 1.22200
Zn	Zn	0.29336 0.82947 0.34703 1.18800
H 	H 	0.21358 0.70054 0.44612 0.17900
C 	C 	0.16828 0.50773 0.35317 0.29100
O 	O 	0.40165 0.86467 0.34820 -0.46800
O 	O 	0.41933 0.73980 0.35374 -0.39400
O 	O 	0.22211 0.66671 0.42425 -0.79100
O 	O 	0.28988 0.54294 0.45897 -0.47800
O 	O 	0.36690 0.78083 0.42829 -0.44600
O 	O 	0.35605 0.59710 0.40148 -0.44300
O 	O 	0.28656 0.84806 0.41175 -0.42300
O 	O 	0.09217 0.49914 0.43379 -0.47200
H 	H 	0.26908 0.68449 0.32476 0.17100
O 	O 	0.06137 0.61251 0.41678 -0.39900
O 	O 	0.26086 0.70963 0.35000 -0.79800
O 	O 	0.20109 0.85902 0.34375 -0.46400
O 	O 	0.13592 0.56441 0.34827 -0.43800
O 	O 	0.10896 0.74383 0.36250 -0.43000
O 	O 	0.21613 0.51354 0.38125 -0.41900
C 	C 	0.44218 0.81671 0.34154 0.28800
C 	C 	0.35031 0.56010 0.43697 0.34000
C 	C 	0.33247 0.83302 0.43716 0.31300
C 	C 	0.04574 0.54071 0.43515 0.33900
Zn	Zn	0.20551 0.73604 0.07144 1.22200
Zn	Zn	0.34375 0.85079 0.12447 1.19100
C 	C 	0.36661 0.60248 0.01641 0.32700
Zn	Zn	0.37313 0.75485 0.05553 1.22200
Zn	Zn	0.23749 0.64340 0.99998 1.19500
H 	H 	0.30426 0.69690 0.11977 0.17000
C 	C 	0.39213 0.92541 0.03800 0.27200
O 	O 	0.15902 0.67121 0.97482 -0.47900
O 	O 	0.11271 0.71291 0.03205 -0.37700
O 	O 	0.30465 0.74306 0.10140 -0.78500
O 	O 	0.25119 0.86817 0.14196 -0.48700
O 	O 	0.15848 0.62880 0.09888 -0.44000
O 	O 	0.17550 0.83180 0.08947 -0.42900
O 	O 	0.15103 0.56307 0.04003 -0.39200
O 	O 	0.45139 0.88989 0.12088 -0.47800
H 	H 	0.27604 0.79091 0.00945 0.17200
O 	O 	0.46713 0.77868 0.09114 -0.40700
O 	O 	0.27468 0.74397 0.02750 -0.80200
O 	O 	0.29635 0.58041 0.02390 -0.48000
O 	O 	0.41515 0.86300 0.03027 -0.44900
O 	O 	0.40870 0.67092 0.02988 -0.44200
O 	O 	0.34548 0.92162 0.06833 -0.42500
C 	C 	0.10403 0.68178 0.99583 0.31700
C 	C 	0.20529 0.88371 0.11709 0.31300
C 	C 	0.13803 0.56164 0.07898 0.31100
C 	C 	0.49424 0.84943 0.10728 0.29800
Zn	Zn	0.98535 0.15081 0.21440 1.22000
Zn	Zn	0.86075 0.09579 0.28967 1.20000
C 	C 	0.79074 0.97755 0.13689 0.24300
Zn	Zn	0.85113 0.99740 0.21514 1.21100
Zn	Zn	0.94488 0.08709 0.13006 1.19300
H 	H 	0.83951 0.13985 0.21754 0.17900
C 	C 	0.93545 0.95856 0.27898 0.24300
O 	O 	0.04775 0.15284 0.12222 -0.43500
O 	O 	0.09101 0.16842 0.18540 -0.36600
O 	O 	0.87138 0.11174 0.23041 -0.77700
O 	O 	0.94055 0.19074 0.30620 -0.47500
O 	O 	0.98268 0.25563 0.19219 -0.44600
O 	O 	0.03147 0.16806 0.26666 -0.42900
O 	O 	0.92533 0.20580 0.13581 -0.40100
O 	O 	0.78016 0.99503 0.30450 -0.48000
H 	H 	0.98356 0.01656 0.19041 0.18400
O 	O 	0.74376 0.95638 0.24177 -0.41300
O 	O 	0.95082 0.05054 0.18701 -0.79200
O 	O 	0.83609 0.04439 0.11972 -0.41100
O 	O 	0.88798 0.92795 0.25172 -0.43800
O 	O 	0.80995 0.94104 0.16767 -0.45200
O 	O 	0.93786 0.02748 0.29525 -0.37800
C 	C 	0.09441 0.14288 0.14846 0.27100
C 	C 	0.00952 0.21013 0.29399 0.33200
C 	C 	0.96758 0.26663 0.15504 0.27600
C 	C 	0.72865 0.96006 0.28013 0.28600
C 	C 	0.00865 0.46546 0.11116 0.04100
H 	H 	0.97556 0.50754 0.10722 0.00700
C 	C 	0.02277 0.42887 0.15201 -0.03400
H 	H 	0.00076 0.44008 0.18162 0.04500
C 	C 	0.99334 0.38084 0.09266 -0.07300
H 	H 	0.94751 0.35266 0.07321 0.04500
C 	C 	0.00802 0.34535 0.13320 -0.01900
C 	C 	0.08999 0.48453 0.09935 -0.08600
C 	C 	0.07521 0.40098 0.08054 0.02300
H 	H 	0.09728 0.38943 0.05101 0.03500
C 	C 	0.08939 0.36479 0.12129 -0.03300
H 	H 	0.12298 0.32326 0.12534 0.05100
C 	C 	0.10450 0.44887 0.13984 0.00400
H 	H 	0.15032 0.47696 0.15931 0.02600
C 	C 	0.61400 0.97488 0.11240 -0.04800
H 	H 	0.58861 0.02400 0.10763 0.06600
C 	C 	0.67709 0.96215 0.08622 -0.05700
H 	H 	0.70467 0.00121 0.05995 0.06800
C 	C 	0.65179 0.96009 0.15085 -0.01200
H 	H 	0.65886 0.99803 0.17757 0.01600
C 	C 	0.71382 0.94700 0.12468 -0.05600
C 	C 	0.57417 0.88319 0.11212 -0.06700
C 	C 	0.61125 0.86837 0.15041 -0.00900
H 	H 	0.58388 0.82939 0.17677 0.02700
C 	C 	0.67383 0.85534 0.12425 -0.01500
H 	H 	0.69910 0.80614 0.12912 0.03600
C 	C 	0.63587 0.86995 0.08570 -0.00300
H 	H 	0.62849 0.83212 0.05894 0.03000
C 	C 	0.08096 0.99414 0.12624 -0.04000
H 	H 	0.02206 0.97747 0.12024 -0.02700
C 	C 	0.11568 0.94955 0.15689 -0.03500
H 	H 	0.08575 0.89554 0.17597 0.03000
C 	C 	0.14197 0.99679 0.09471 -0.03200
H 	H 	0.13373 0.98164 0.06276 0.03000
C 	C 	0.17623 0.95284 0.12540 -0.09000
C 	C 	0.12742 0.07613 0.14158 -0.06700
C 	C 	0.18801 0.07938 0.11009 0.01000
H 	H 	0.21791 0.13342 0.09102 0.03300
C 	C 	0.22290 0.03461 0.14073 0.01000
H 	H 	0.28185 0.05072 0.14653 0.02900
C 	C 	0.16172 0.03217 0.17233 0.00800
H 	H 	0.16980 0.04713 0.20431 0.03600
C 	C 	0.54715 0.93856 0.30553 -0.00600
H 	H 	0.51498 0.98148 0.30111 0.01000
C 	C 	0.58444 0.90457 0.27164 -0.02600
H 	H 	0.58351 0.91982 0.23919 0.02600
C 	C 	0.61634 0.95452 0.33029 -0.06700
H 	H 	0.64201 0.01091 0.34616 0.06100
C 	C 	0.65290 0.92013 0.29656 -0.05900
C 	C 	0.51861 0.85281 0.32529 -0.07500
C 	C 	0.58697 0.86833 0.35024 0.00600
H 	H 	0.58738 0.85309 0.38275 0.02800
C 	C 	0.62455 0.83439 0.31627 -0.01400
H 	H 	0.65708 0.79181 0.32056 0.03600
C 	C 	0.55505 0.81834 0.29155 -0.00900
H 	H 	0.52925 0.76200 0.27566 0.02700
C 	C 	0.03975 0.36596 0.30294 0.01900
H 	H 	0.99172 0.37276 0.28729 0.01000
C 	C 	0.11981 0.41232 0.29119 -0.02100
H 	H 	0.13837 0.45833 0.26616 0.03200
C 	C 	0.05476 0.38163 0.34752 -0.01800
H 	H 	0.01939 0.40222 0.36885 0.04900
C 	C 	0.13447 0.42745 0.33575 -0.06200
C 	C 	0.06027 0.28691 0.30779 -0.08500
C 	C 	0.07516 0.30226 0.35229 -0.00100
H 	H 	0.05642 0.25641 0.37737 0.03500
C 	C 	0.15558 0.34875 0.34067 -0.01700
H 	H 	0.20371 0.34252 0.35640 0.03500
C 	C 	0.14005 0.33211 0.29573 -0.00400
H 	H 	0.17461 0.31078 0.27424 0.03700
C 	C 	0.01387 0.85182 0.27055 0.00100
H 	H 	0.99696 0.82880 0.24054 0.01100
C 	C 	0.00294 0.79949 0.31016 0.03000
H 	H 	0.97798 0.73269 0.31300 0.01500
C 	C 	0.09269 0.89753 0.28191 -0.00900
H 	H 	0.14161 0.91166 0.26144 0.01100
C 	C 	0.08093 0.84599 0.32128 -0.08700
C 	C 	0.98660 0.91447 0.29266 -0.06800
C 	C 	0.06473 0.96068 0.30370 -0.06000
H 	H 	0.08994 0.02747 0.30088 0.07900
C 	C 	0.05349 0.90873 0.34314 0.02800
H 	H 	0.07025 0.93211 0.37311 0.02300
C 	C 	0.97499 0.86288 0.33193 -0.04900
H 	H 	0.92606 0.84885 0.35238 0.03800
C 	C 	0.42816 0.00818 0.51862 -0.01300
C 	C 	0.36257 0.01007 0.50201 0.00900
C 	C 	0.32350 0.94605 0.47941 -0.03300
C 	C 	0.34882 0.87883 0.47435 -0.12500
C 	C 	0.40290 0.86815 0.50004 0.13100
C 	C 	0.44547 0.93509 0.52020 -0.11600
H 	H 	0.27744 0.95194 0.46312 0.03400
H 	H 	0.49272 0.93090 0.53593 0.05600
H 	H 	0.34629 0.06477 0.50291 0.03300
N 	N 	0.41080 0.79359 0.50726 -0.20100
H 	H 	0.37084 0.74120 0.49935 0.08300
H 	H 	0.45377 0.78702 0.52406 0.08100
C 	C 	0.85761 0.42520 0.50924 -0.05200
C 	C 	0.85164 0.43728 0.46791 -0.03200
C 	C 	0.91266 0.47953 0.44411 0.02300
C 	C 	0.98027 0.51082 0.46136 -0.14600
C 	C 	0.98615 0.50115 0.50333 0.10300
C 	C 	0.92498 0.45614 0.52673 -0.06400
H 	H 	0.90777 0.48624 0.41203 0.02200
H 	H 	0.92905 0.44883 0.55888 0.04200
H 	H 	0.79950 0.41416 0.45424 0.03700
N 	N 	0.04968 0.53667 0.52136 -0.19300
H 	H 	0.09424 0.57613 0.50537 0.04200
H 	H 	0.05409 0.52750 0.55215 0.07700
C 	C 	0.49636 0.46001 0.49577 -0.05200
C 	C 	0.51436 0.54401 0.48875 -0.02900
C 	C 	0.46970 0.57667 0.46580 0.01900
C 	C 	0.40672 0.52555 0.44963 -0.13400
C 	C 	0.38994 0.44063 0.45549 0.13100
C 	C 	0.43277 0.40894 0.48028 -0.06800
H 	H 	0.48262 0.64194 0.46174 0.02400
H 	H 	0.41957 0.34377 0.48512 0.03900
H 	H 	0.56405 0.58380 0.50006 0.04100
N 	N 	0.33322 0.38944 0.43697 -0.20600
H 	H 	0.30454 0.41102 0.41546 0.09300
H 	H 	0.31920 0.32680 0.44276 0.08100
C 	C 	0.78263 0.07865 0.66451 -0.00400
H 	H 	0.80722 0.13129 0.68318 0.01400
C 	C 	0.82302 0.04805 0.63104 0.00600
H 	H 	0.88140 0.07510 0.62204 -0.01800
C 	C 	0.74646 0.99042 0.68064 -0.03700
H 	H 	0.74179 0.96954 0.71265 0.02400
C 	C 	0.78670 0.96038 0.64695 -0.10500
C 	C 	0.71903 0.07067 0.63655 -0.04900
C 	C 	0.68186 0.98324 0.65257 -0.03500
H 	H 	0.62331 0.95742 0.66135 0.02700
C 	C 	0.72301 0.95194 0.61906 -0.02800
H 	H 	0.69893 0.89919 0.60038 0.02900
C 	C 	0.75928 0.04011 0.60311 0.01000
H 	H 	0.76454 0.06104 0.57109 0.03200
C 	C 	0.32010 0.09173 0.60026 -0.01300
H 	H 	0.34747 0.04366 0.60053 0.04100
C 	C 	0.25451 0.09244 0.57456 -0.01400
H 	H 	0.22733 0.04478 0.55374 0.04200
C 	C 	0.28277 0.11689 0.63709 -0.01200
H 	H 	0.27880 0.08916 0.66783 0.03500
C 	C 	0.21800 0.11796 0.61133 -0.06100
C 	C 	0.35691 0.18209 0.58862 -0.06500
C 	C 	0.32015 0.20731 0.62533 -0.00700
H 	H 	0.34724 0.25479 0.64626 0.03300
C 	C 	0.25479 0.20830 0.59962 -0.01300
H 	H 	0.22747 0.25640 0.59935 0.03400
C 	C 	0.29243 0.18325 0.56264 -0.01400
H 	H 	0.29687 0.21112 0.53191 0.03200
C 	C 	0.92082 0.63908 0.64048 -0.01000
H 	H 	0.97228 0.62722 0.64852 0.02300
C 	C 	0.88407 0.62111 0.59972 -0.01600
H 	H 	0.90468 0.59402 0.57400 0.03300
C 	C 	0.84633 0.60225 0.66263 -0.01400
H 	H 	0.83570 0.55990 0.68932 0.02600
C 	C 	0.80978 0.58470 0.62209 -0.06500
C 	C 	0.90774 0.72237 0.63928 -0.07400
C 	C 	0.83318 0.68585 0.66150 -0.01100
H 	H 	0.81193 0.71179 0.68742 0.04000
C 	C 	0.79615 0.66785 0.62081 -0.00900
H 	H 	0.74454 0.67941 0.61286 0.03900
C 	C 	0.87138 0.70574 0.59863 -0.00600
H 	H 	0.88246 0.74885 0.57225 0.03100
C 	C 	0.91145 0.53108 0.94868 -0.02900
C 	C 	0.92442 0.52495 0.98952 -0.07700
C 	C 	0.98298 0.58153 0.00620 0.04000
C 	C 	0.03048 0.64397 0.98206 -0.13700
C 	C 	0.01524 0.65292 0.94127 0.15000
C 	C 	0.95757 0.59434 0.92456 -0.09900
H 	H 	0.99377 0.57429 0.03752 0.02300
H 	H 	0.94611 0.60057 0.89326 0.05400
H 	H 	0.88783 0.47753 0.00863 0.04500
N 	N 	0.05501 0.71831 0.91834 -0.20700
H 	H 	0.09350 0.76652 0.93098 0.07900
H 	H 	0.04559 0.72300 0.88782 0.07800
C 	C 	0.49993 0.12187 0.95684 -0.05000
C 	C 	0.53879 0.09382 0.98572 -0.03800
C 	C 	0.50201 0.03553 0.01505 0.01600
C 	C 	0.42587 0.00267 0.01531 -0.06600
C 	C 	0.38594 0.03391 0.98742 0.09700
C 	C 	0.42358 0.09375 0.95847 -0.05900
H 	H 	0.53306 0.01240 0.03634 0.04500
H 	H 	0.39343 0.11714 0.93673 0.05300
H 	H 	0.59763 0.11674 0.98532 0.03800
N 	N 	0.31201 0.00616 0.98783 -0.18500
H 	H 	0.28230 0.96362 0.00956 0.06700
H 	H 	0.28325 0.02833 0.96656 0.08300
C 	C 	0.46989 0.48687 0.93320 -0.05300
C 	C 	0.46860 0.56621 0.92519 -0.03300
C 	C 	0.43245 0.60268 0.95188 0.01600
C 	C 	0.39626 0.55952 0.98645 -0.16100
C 	C 	0.38873 0.47566 0.99151 0.12200
C 	C 	0.42348 0.43932 0.96354 -0.07100
H 	H 	0.43528 0.66573 0.94667 0.00300
H 	H 	0.42169 0.37643 0.96837 0.04500
H 	H 	0.50192 0.60234 0.90064 0.03700
N 	N 	0.35191 0.43103 0.02396 -0.20000
H 	H 	0.33119 0.45753 0.04724 0.09900
H 	H 	0.34552 0.36889 0.02676 0.08800
C 	C 	0.93692 0.18235 0.82697 -0.01300
H 	H 	0.98576 0.19569 0.84548 0.03200
C 	C 	0.85886 0.13284 0.84133 -0.00100
H 	H 	0.84248 0.10550 0.87196 0.03900
C 	C 	0.90709 0.24673 0.80638 -0.01300
H 	H 	0.93050 0.31345 0.80829 0.02900
C 	C 	0.82959 0.19657 0.82066 -0.07000
C 	C 	0.92694 0.13545 0.78807 -0.05800
C 	C 	0.89781 0.19914 0.76714 -0.02200
H 	H 	0.91424 0.22609 0.73645 0.02200
C 	C 	0.81947 0.14975 0.78168 -0.01800
H 	H 	0.77058 0.13621 0.76319 0.01600
C 	C 	0.84925 0.08566 0.80228 -0.01400
H 	H 	0.82546 0.01895 0.80041 0.05200
C 	C 	0.28375 0.19850 0.81970 -0.00800
H 	H 	0.24634 0.22516 0.83627 0.03700
C 	C 	0.35133 0.24670 0.79348 -0.01200
H 	H 	0.37092 0.31367 0.78870 0.03700
C 	C 	0.32826 0.14667 0.83866 -0.00800
H 	H 	0.32885 0.13121 0.87113 0.03300
C 	C 	0.39477 0.19435 0.81225 -0.06800
C 	C 	0.26198 0.13704 0.78654 -0.07200
C 	C 	0.30549 0.08480 0.80529 -0.01400
H 	H 	0.28588 0.01782 0.81006 0.02300
C 	C 	0.37295 0.13290 0.77907 -0.01500
H 	H 	0.41029 0.10618 0.76246 0.02700
C 	C 	0.32853 0.18475 0.76010 -0.01200
H 	H 	0.32811 0.20028 0.72761 0.03600
C 	C 	0.76976 0.65669 0.79491 -0.01300
H 	H 	0.72569 0.63213 0.77384 0.02800
C 	C 	0.85244 0.68123 0.78418 -0.01500
H 	H 	0.87716 0.67807 0.75408 0.03000
C 	C 	0.78149 0.73567 0.81832 -0.00800
H 	H 	0.74773 0.77746 0.81637 0.02900
C 	C 	0.86348 0.75868 0.80783 -0.08000
C 	C 	0.78282 0.61287 0.83341 -0.06600
C 	C 	0.79379 0.69040 0.85704 -0.01400
H 	H 	0.76932 0.69351 0.88721 0.02700
C 	C 	0.87618 0.71453 0.84629 -0.01000
H 	H 	0.92008 0.73871 0.86752 0.02500
C 	C 	0.86486 0.63649 0.82278 -0.01200
H 	H 	0.89933 0.59541 0.82434 0.03200
