data_crystal

_cell_length_a 20.63273
_cell_length_b 17.03709
_cell_length_c 49.96819
_cell_angle_alpha 90.74904
_cell_angle_beta  91.44837
_cell_angle_gamma 111.05431

_symmetry_space_group_name_	'P 1'
_symmetry_space_group_name_H-M	'P 1'

loop_
_symmetry_equiv_pos_as_xyz
  x,y,z

loop_
_atom_site_label
_atom_site_type_symbol
_atom_site_fract_x
_atom_site_fract_y
_atom_site_fract_z
_atom_site_charge
O 	O 	0.04052 0.85547 0.70803 -0.71300
Ni	Ni	0.08936 0.92367 0.67744 1.09700
O 	O 	0.09513 0.97630 0.75189 -0.36800
O 	O 	0.08432 0.12357 0.74571 -0.40100
O 	O 	0.11923 0.83237 0.66114 -0.37900
O 	O 	0.05043 0.00694 0.69483 -0.69300
O 	O 	0.15348 0.00868 0.65207 -0.35700
O 	O 	0.17292 0.13597 0.67251 -0.39600
Ni	Ni	0.12147 0.11191 0.70859 1.07000
H 	H 	0.07167 0.83595 0.71928 0.15800
O 	O 	0.17934 0.04640 0.72288 -0.41600
C 	C 	0.07208 0.75776 0.65475 0.28100
C 	C 	0.15927 0.99708 0.74348 0.26800
C 	C 	0.19654 0.08365 0.65998 0.30100
O 	O 	0.18087 0.71325 0.38800 -0.34300
O 	O 	0.21620 0.57129 0.39096 -0.35700
O 	O 	0.20878 0.51967 0.44044 -0.38100
O 	O 	0.18798 0.64343 0.43939 -0.36000
C 	C 	0.19507 0.77125 0.36981 0.29200
C 	C 	0.17173 0.56566 0.44756 0.33200
O 	O 	0.09837 0.62756 0.99691 -0.35500
O 	O 	0.15565 0.73180 0.04408 -0.35600
C 	C 	0.12812 0.49572 0.03139 0.32000
C 	C 	0.07793 0.56702 0.97811 0.31900
C 	C 	0.19166 0.80897 0.05257 0.29500
O 	O 	0.16773 0.57077 0.03995 -0.39600
O 	O 	0.12346 0.54939 0.96340 -0.38200
O 	O 	0.01431 0.12929 0.26312 -0.35900
O 	O 	0.09103 0.20224 0.23226 -0.41000
Ni	Ni	0.03451 0.19336 0.19655 1.06600
O 	O 	0.07082 0.10103 0.18515 -0.41100
C 	C 	0.04019 0.04713 0.16567 0.30400
C 	C 	0.06419 0.19810 0.25597 0.29700
O 	O 	0.00244 0.20363 0.15810 -0.39600
C 	C 	0.07724 0.44367 0.04909 -0.08000
C 	C 	0.03578 0.40116 0.06459 0.05800
H 	H 	0.00815 0.45448 0.11240 0.05300
C 	C 	0.12995 0.91347 0.11603 0.02700
C 	C 	0.16931 0.99635 0.12423 -0.07400
C 	C 	0.14276 0.03840 0.14269 0.03900
C 	C 	0.16886 0.84434 0.07490 -0.09800
C 	C 	0.03984 0.91272 0.14617 0.03000
C 	C 	0.06651 0.87076 0.12782 -0.06500
C 	C 	0.15117 0.87542 0.09377 0.03900
C 	C 	0.07651 0.99781 0.15281 -0.10700
H 	H 	0.21901 0.02933 0.11546 0.06000
H 	H 	0.17173 0.10390 0.14783 0.03200
H 	H 	0.98893 0.88052 0.15410 0.01400
H 	H 	0.03637 0.80621 0.12188 0.05500
C 	C 	0.17095 0.36771 0.31418 0.01600
C 	C 	0.16537 0.44715 0.31547 -0.05200
C 	C 	0.10197 0.25802 0.27631 -0.09900
C 	C 	0.23979 0.39920 0.35564 0.01700
C 	C 	0.20942 0.34451 0.33399 -0.05000
C 	C 	0.13373 0.30820 0.29349 0.04400
C 	C 	0.23155 0.47740 0.35764 -0.07700
H 	H 	0.26748 0.37950 0.37131 0.04800
H 	H 	0.21432 0.28331 0.33297 0.05700
C 	C 	0.03883 0.77419 0.31874 0.02400
C 	C 	0.04110 0.75564 0.29147 -0.04900
C 	C 	0.13992 0.77178 0.35189 -0.08800
C 	C 	0.98913 0.80621 0.32759 -0.05700
C 	C 	0.09339 0.77199 0.33687 0.04300
H 	H 	0.07821 0.72888 0.28453 0.04200
H 	H 	0.98589 0.81884 0.34872 0.06300
C 	C 	0.04403 0.49120 0.43825 0.11100
C 	C 	0.10050 0.52116 0.45695 -0.10000
C 	C 	0.08999 0.50008 0.48408 0.10000
Br	Br	0.16674 0.54088 0.50975 -0.20600
Br	Br	0.05656 0.52076 0.40115 -0.17000
H 	H 	0.05775 0.59263 0.65676 0.02000
C 	C 	0.00380 0.53367 0.96909 -0.08700
Br	Br	0.02361 0.70774 0.95765 -0.17300
Br	Br	0.01133 0.36836 0.97761 -0.19500
C 	C 	0.21277 0.98390 0.76116 -0.09500
H 	H 	0.14668 0.94599 0.79528 0.04800
O 	O 	0.62919 0.23808 0.87055 -0.70300
Ni	Ni	0.55156 0.24738 0.89165 1.10600
Ni	Ni	0.62355 0.12239 0.86850 1.07500
O 	O 	0.61735 0.10659 0.90895 -0.38600
O 	O 	0.47395 0.17821 0.86584 -0.35800
O 	O 	0.63570 0.31180 0.91613 -0.69800
O 	O 	0.48383 0.28890 0.91170 -0.34400
O 	O 	0.55837 0.42474 0.90914 -0.39500
H 	H 	0.62594 0.25774 0.85218 0.15700
H 	H 	0.63894 0.27834 0.93181 0.18900
C 	C 	0.55912 0.09575 0.92106 0.33200
C 	C 	0.47808 0.11168 0.85314 0.28500
C 	C 	0.49871 0.36968 0.91643 0.32300
O 	O 	0.52327 0.14454 0.91612 -0.34700
O 	O 	0.51732 0.07131 0.86309 -0.37800
Ni	Ni	0.64014 0.33297 0.52410 1.10200
O 	O 	0.60288 0.41264 0.50364 -0.35100
O 	O 	0.70940 0.51761 0.50517 -0.38800
O 	O 	0.57323 0.23767 0.49947 -0.34700
O 	O 	0.54507 0.16902 0.55033 -0.38700
O 	O 	0.69554 0.27658 0.54450 -0.69700
O 	O 	0.56173 0.30945 0.55035 -0.36100
Ni	Ni	0.63942 0.15704 0.54615 1.07100
H 	H 	0.70737 0.30153 0.56280 0.15700
O 	O 	0.62701 0.14312 0.50584 -0.40100
C 	C 	0.64331 0.48922 0.49776 0.32200
C 	C 	0.58204 0.16718 0.49277 0.33300
C 	C 	0.53643 0.23521 0.56157 0.27800
Ni	Ni	0.25646 0.68777 0.40961 1.10300
O 	O 	0.32958 0.72576 0.38071 -0.70200
Ni	Ni	0.41344 0.71881 0.40074 1.10000
O 	O 	0.25013 0.84028 0.37300 -0.39400
Ni	Ni	0.35129 0.84266 0.37030 1.06800
O 	O 	0.36958 0.88607 0.40899 -0.39800
O 	O 	0.48155 0.75695 0.37036 -0.36000
O 	O 	0.33965 0.67961 0.42937 -0.70100
O 	O 	0.48717 0.69228 0.42360 -0.33800
O 	O 	0.41592 0.56003 0.43404 -0.38400
Ni	Ni	0.31510 0.55889 0.43674 1.07800
H 	H 	0.31790 0.68829 0.36461 0.15000
H 	H 	0.35152 0.71521 0.44590 0.18300
C 	C 	0.42742 0.89317 0.42204 0.32900
O 	O 	0.30440 0.52296 0.39743 -0.40300
C 	C 	0.48488 0.82245 0.35594 0.29600
C 	C 	0.25429 0.52980 0.38218 0.28400
C 	C 	0.47256 0.62608 0.43887 0.32200
O 	O 	0.45778 0.83785 0.41826 -0.34800
O 	O 	0.45505 0.87484 0.36415 -0.39200
Ni	Ni	0.34407 0.66196 0.01340 1.10300
O 	O 	0.25450 0.63810 0.99066 -0.69700
Ni	Ni	0.19510 0.67295 0.01616 1.10100
O 	O 	0.38302 0.59082 0.98982 -0.34500
O 	O 	0.28198 0.47770 0.99071 -0.38500
O 	O 	0.40089 0.76176 0.99011 -0.34300
Ni	Ni	0.20363 0.52086 0.97914 1.08900
O 	O 	0.43564 0.82861 0.04274 -0.38300
O 	O 	0.14667 0.45970 0.01106 -0.36600
O 	O 	0.28894 0.70962 0.03671 -0.69800
O 	O 	0.42926 0.69206 0.03830 -0.35800
O 	O 	0.24593 0.85598 0.03960 -0.39200
Ni	Ni	0.33721 0.83105 0.04009 1.07800
H 	H 	0.26335 0.67471 0.97491 0.17900
H 	H 	0.28457 0.68438 0.05462 0.15800
O 	O 	0.34073 0.84667 0.99994 -0.39200
C 	C 	0.34533 0.51349 0.98225 0.32500
C 	C 	0.38858 0.83164 0.98645 0.33100
C 	C 	0.45036 0.76421 0.05182 0.29000
C 	C 	0.60320 0.81556 0.10957 0.02000
C 	C 	0.62820 0.75398 0.11862 -0.05600
C 	C 	0.50393 0.77974 0.07208 -0.08700
C 	C 	0.63323 0.89843 0.11947 -0.05500
C 	C 	0.54899 0.79491 0.08922 0.04300
H 	H 	0.60488 0.68964 0.11113 0.05700
H 	H 	0.61370 0.94617 0.11269 0.05500
C 	C 	0.64185 0.91304 0.30328 0.02100
C 	C 	0.53934 0.85228 0.33701 -0.07900
C 	C 	0.62756 0.91712 0.27587 -0.05600
C 	C 	0.58570 0.87947 0.32148 0.04300
H 	H 	0.57429 0.89696 0.26827 0.04500
C 	C 	0.19569 0.50195 0.33708 0.01400
H 	H 	0.13623 0.46572 0.30006 0.04600
H 	H 	0.18994 0.56268 0.33817 0.03300
C 	C 	0.56792 0.09453 0.44837 0.10500
C 	C 	0.53743 0.11123 0.47154 -0.10700
C 	C 	0.46758 0.06283 0.47655 0.10800
C 	C 	0.43170 0.99082 0.46052 0.09700
C 	C 	0.46413 0.97032 0.43839 -0.11000
C 	C 	0.53168 0.02410 0.43184 0.10900
Br	Br	0.57490 0.00215 0.40028 -0.16700
Br	Br	0.65960 0.16879 0.43927 -0.19700
Br	Br	0.34015 0.91721 0.47004 -0.20400
Br	Br	0.42073 0.09566 0.50506 -0.17200
C 	C 	0.52660 0.61100 0.48267 0.09700
C 	C 	0.52948 0.61385 0.45457 -0.10000
C 	C 	0.57996 0.59081 0.44145 0.10800
C 	C 	0.62210 0.55646 0.45615 0.10500
C 	C 	0.61336 0.54454 0.48384 -0.11100
C 	C 	0.56838 0.57602 0.49732 0.11100
Br	Br	0.56338 0.56986 0.53575 -0.19400
Br	Br	0.46398 0.65301 0.50088 -0.22300
Br	Br	0.68936 0.52167 0.43818 -0.24900
Br	Br	0.58868 0.60194 0.40321 -0.17400
C 	C 	0.37318 0.17762 0.61742 0.01900
C 	C 	0.42366 0.14066 0.61968 -0.05200
C 	C 	0.47864 0.16221 0.60209 0.01200
C 	C 	0.25963 0.11904 0.64570 -0.09000
C 	C 	0.43458 0.26068 0.58056 0.02100
C 	C 	0.37943 0.23881 0.59815 -0.04900
C 	C 	0.31176 0.14692 0.63308 0.04400
C 	C 	0.48362 0.22103 0.58209 -0.07300
H 	H 	0.41932 0.09354 0.63459 0.04900
H 	H 	0.51658 0.13188 0.60365 0.01700
H 	H 	0.43772 0.30609 0.56521 0.06100
H 	H 	0.34059 0.26773 0.59630 0.06000
C 	C 	0.50005 0.94227 0.92899 0.10400
C 	C 	0.53059 0.02514 0.93942 -0.09800
C 	C 	0.52018 0.04243 0.96621 0.11200
C 	C 	0.47265 0.98011 0.98152 0.10500
C 	C 	0.43653 0.89891 0.97014 -0.10200
C 	C 	0.45067 0.88029 0.94381 0.10600
Br	Br	0.39869 0.77207 0.92725 -0.17800
Br	Br	0.52780 0.91271 0.89493 -0.22200
Br	Br	0.45737 0.00694 0.01792 -0.22500
Br	Br	0.57253 0.15147 0.98205 -0.17200
C 	C 	0.40166 0.42237 0.92185 0.11000
C 	C 	0.45370 0.39728 0.93350 -0.11100
C 	C 	0.46444 0.40151 0.96150 0.10000
C 	C 	0.42534 0.43460 0.97776 0.11200
C 	C 	0.37646 0.46480 0.96597 -0.10900
C 	C 	0.36316 0.45648 0.93810 0.10600
Br	Br	0.29388 0.49459 0.92215 -0.23700
Br	Br	0.38388 0.41091 0.88365 -0.18100
Br	Br	0.43865 0.43885 0.01618 -0.18000
Br	Br	0.53401 0.36393 0.97747 -0.23500
C 	C 	0.32235 0.00217 0.79791 0.03700
C 	C 	0.25380 0.97340 0.80646 -0.06800
C 	C 	0.19905 0.96394 0.78816 0.02200
C 	C 	0.42473 0.06915 0.83356 -0.07800
C 	C 	0.28061 0.00269 0.75217 0.02600
C 	C 	0.33528 0.01241 0.77056 -0.06400
C 	C 	0.37863 0.03651 0.81723 0.03900
H 	H 	0.24328 0.96346 0.82754 0.06500
H 	H 	0.29159 0.01426 0.73120 0.03100
H 	H 	0.38808 0.03273 0.76371 0.04900
C 	C 	0.06339 0.61895 0.63695 0.01100
Ni	Ni	0.65064 0.42785 0.92751 1.09000
C 	C 	0.08827 0.70651 0.63409 -0.07600
C 	C 	0.02318 0.45048 0.49256 0.10300
C 	C 	0.10080 0.73875 0.60822 0.02200
H 	H 	0.12442 0.80602 0.60559 0.05100
C 	C 	0.07093 0.68628 0.58598 -0.04900
H 	H 	0.07252 0.71332 0.56639 0.06600
C 	C 	0.03396 0.56621 0.61474 -0.05300
Ni	Ni	0.71258 0.31962 0.89165 1.10400
O 	O 	0.73186 0.15640 0.87119 -0.39000
O 	O 	0.69794 0.40550 0.86654 -0.40000
O 	O 	0.72197 0.34879 0.49955 -0.69800
H 	H 	0.70598 0.31402 0.48298 0.18400
C 	C 	0.71090 0.94085 0.31297 -0.05100
C 	C 	0.68209 0.94565 0.25806 0.00900
H 	H 	0.67033 0.94681 0.23685 0.03300
H 	H 	0.65644 0.48223 0.82355 0.03500
C 	C 	0.68471 0.77584 0.13685 0.01800
H 	H 	0.72237 0.93891 0.33418 0.06700
O 	O 	0.70938 0.50534 0.89894 -0.37400
C 	C 	0.70999 0.48362 0.87364 0.31000
O 	O 	0.72340 0.11861 0.54240 -0.39300
C 	C 	0.68974 0.92045 0.13763 0.01500
H 	H 	0.71020 0.03980 0.58849 0.01700
C 	C 	0.70484 0.53437 0.82755 0.01600
C 	C 	0.71661 0.85966 0.14602 -0.08300
H 	H 	0.70507 0.72834 0.14311 0.03900
H 	H 	0.71363 0.98513 0.14476 0.03200
C 	C 	0.73538 0.54883 0.85347 -0.07600
H 	H 	0.71593 0.57047 0.78633 0.04800
C 	C 	0.03152 0.60125 0.58969 0.03200
O 	O 	0.73923 0.43612 0.94808 -0.37400
Ni	Ni	0.77747 0.46448 0.48987 1.08700
C 	C 	0.75146 0.96983 0.26754 -0.08100
C 	C 	0.73871 0.58406 0.80643 -0.05400
O 	O 	0.77888 0.29888 0.86527 -0.36100
C 	C 	0.77531 0.22218 0.85894 0.27200
Ni	Ni	0.78182 0.30178 0.52168 1.10300
C 	C 	0.76550 0.96928 0.29523 0.01600
H 	H 	0.75515 0.95697 0.61884 0.04200
C 	C 	0.78359 0.15925 0.55452 0.27700
C 	C 	0.76557 0.05267 0.58989 0.00900
H 	H 	0.00676 0.49956 0.61756 0.05400
O 	O 	0.79511 0.41073 0.91111 -0.36600
C 	C 	0.79601 0.43508 0.93644 0.33100
C 	C 	0.78149 0.88562 0.16225 0.28700
C 	C 	0.79099 0.00595 0.60717 -0.04600
C 	C 	0.79755 0.61741 0.85840 0.01800
O 	O 	0.79379 0.94248 0.22534 -0.43100
C 	C 	0.80306 0.64882 0.81109 0.01600
O 	O 	0.82597 0.40277 0.54704 -0.39200
O 	O 	0.82237 0.23458 0.54662 -0.35300
C 	C 	0.80804 0.98361 0.24842 0.28600
C 	C 	0.81141 0.11520 0.57423 -0.08000
C 	C 	0.82928 0.21195 0.84203 -0.07500
H 	H 	0.83436 0.31597 0.81670 0.03800
H 	H 	0.82166 0.62930 0.87828 0.06300
O 	O 	0.79197 0.83087 0.17852 -0.40200
O 	O 	0.84618 0.51771 0.52140 -0.38300
H 	H 	0.81855 0.98759 0.30292 0.05100
H 	H 	0.83932 0.10833 0.86412 0.05200
C 	C 	0.83138 0.66710 0.83723 -0.04900
Br	Br	0.85396 0.63278 0.94182 -0.19300
C 	C 	0.85521 0.26731 0.82097 0.00900
C 	C 	0.84176 0.69355 0.78893 0.04000
O 	O 	0.84879 0.42824 0.47129 -0.37900
O 	O 	0.83467 0.94848 0.15381 -0.36800
C 	C 	0.85753 0.15005 0.84753 0.01200
C 	C 	0.86782 0.47576 0.53916 0.32000
Ni	Ni	0.84158 0.86121 0.21612 1.06800
C 	C 	0.86231 0.02163 0.60904 0.02100
O 	O 	0.01202 0.89478 0.64834 -0.36800
O 	O 	0.87107 0.33478 0.49972 -0.35000
C 	C 	0.86337 0.46954 0.95112 -0.10700
Br	Br	0.84262 0.29538 0.96126 -0.19700
C 	C 	0.87494 0.73167 0.77063 -0.09800
H 	H 	0.88070 0.71794 0.84104 0.05900
H 	H 	0.01516 0.01947 0.68373 0.16300
Br	Br	0.01298 0.40392 0.52781 -0.19000
O 	O 	0.87341 0.02234 0.25697 -0.36400
O 	O 	0.87257 0.85684 0.25513 -0.41200
C 	C 	0.88314 0.13240 0.57674 0.01700
O 	O 	0.89471 0.75704 0.72445 -0.41000
C 	C 	0.88821 0.97026 0.62550 0.03200
C 	C 	0.90670 0.25853 0.80488 -0.05100
C 	C 	0.89338 0.40055 0.48389 0.31500
O 	O 	0.88494 0.12923 0.15579 -0.37500
C 	C 	0.90016 0.55700 0.95219 0.10900
C 	C 	0.90927 0.14162 0.83146 -0.04600
C 	C 	0.01769 0.10067 0.75104 0.32000
O 	O 	0.00515 0.74252 0.65843 -0.39900
H 	H 	0.92416 0.29925 0.78799 0.04500
Ni	Ni	0.89878 0.03914 0.17941 1.09800
C 	C 	0.91295 0.92905 0.63877 -0.10600
C 	C 	0.90844 0.08563 0.59408 -0.05400
C 	C 	0.89555 0.41451 0.96027 0.10700
O 	O 	0.91723 0.83749 0.67377 -0.41300
C 	C 	0.91545 0.77964 0.74949 0.29600
H 	H 	0.91909 0.18048 0.56483 0.05700
H 	H 	0.90783 0.14469 0.09822 0.05200
C 	C 	0.92723 0.52089 0.55599 -0.08000
C 	C 	0.93271 0.19443 0.80967 0.01300
H 	H 	0.92899 0.09167 0.83525 0.06000
Br	Br	0.90631 0.38037 0.42049 -0.16600
H 	H 	0.91705 0.14674 0.21723 0.15800
O 	O 	0.92175 0.95627 0.20425 -0.69700
H 	H 	0.91282 0.85913 0.31584 0.04300
C 	C 	0.92757 0.21240 0.10125 0.02000
C 	C 	0.93315 0.24737 0.12721 -0.07400
C 	C 	0.94776 0.88418 0.65377 0.30100
C 	C 	0.93792 0.87489 0.26291 0.28500
C 	C 	0.93893 0.19685 0.15009 0.27400
O 	O 	0.95974 0.85555 0.75544 -0.37100
O 	O 	0.94615 0.11661 0.21005 -0.71400
C 	C 	0.97057 0.17096 0.78926 0.05100
Ni	Ni	0.96101 0.76198 0.69296 1.06300
H 	H 	0.96379 0.09824 0.59557 0.05700
C 	C 	0.94728 0.82833 0.30897 0.02400
C 	C 	0.95582 0.81965 0.28145 -0.08500
C 	C 	0.95625 0.26416 0.07976 -0.04800
O 	O 	0.97414 0.02614 0.74363 -0.39500
C 	C 	0.96574 0.42756 0.47421 -0.10000
C 	C 	0.95661 0.33520 0.13057 0.00900
H 	H 	0.95727 0.23602 0.06027 0.06700
H 	H 	0.95941 0.36315 0.15037 0.01600
Ni	Ni	0.96243 0.03431 0.23616 1.09700
H 	H 	0.95674 0.93493 0.19717 0.15000
C 	C 	0.97607 0.55750 0.57081 0.05000
Ni	Ni	0.00763 0.93976 0.72684 1.09700
C 	C 	0.97075 0.58909 0.96054 0.09400
C 	C 	0.96605 0.44600 0.96856 0.08900
C 	C 	0.99638 0.14395 0.77176 -0.10700
O 	O 	0.97945 0.04235 0.15583 -0.37400
O 	O 	0.98304 0.95126 0.26042 -0.38400
C 	C 	0.97779 0.44069 0.44671 0.09800
C 	C 	0.98489 0.38699 0.10908 -0.05800
C 	C 	0.99937 0.77791 0.27286 -0.00000
H 	H 	0.00536 0.76941 0.25166 0.02000
C 	C 	0.98882 0.35119 0.08404 0.01800
