data_crystal

_cell_length_a 26.21532
_cell_length_b 26.35460
_cell_length_c 34.90353
_cell_angle_alpha 95.50731
_cell_angle_beta  95.50466
_cell_angle_gamma 125.85807

_symmetry_space_group_name_	'P 1'
_symmetry_space_group_name_H-M	'P 1'

loop_
_symmetry_equiv_pos_as_xyz
  x,y,z

loop_
_atom_site_label
_atom_site_type_symbol
_atom_site_fract_x
_atom_site_fract_y
_atom_site_fract_z
_atom_site_charge
C 	C 	0.98916 0.04385 0.99709 0.12800
N 	N 	0.95593 0.98060 0.99754 -0.12900
C 	C 	0.98697 0.95387 0.00054 0.15700
N 	N 	0.05151 0.99059 0.00362 -0.11500
C 	C 	0.08518 0.05401 0.00386 0.14300
N 	N 	0.05395 0.08064 0.00028 -0.13300
C 	C 	0.92065 0.99101 0.46211 0.16500
N 	N 	0.88758 0.92920 0.46656 -0.12600
C 	C 	0.91802 0.90175 0.46985 0.15100
N 	N 	0.98153 0.93626 0.46882 -0.14100
C 	C 	0.01455 0.99789 0.46428 0.17700
N 	N 	0.98411 0.02523 0.46099 -0.16000
Cu	Cu	0.65682 0.25085 0.99946 0.92900
Cu	Cu	0.69125 0.25146 0.91201 0.88100
Cu	Cu	0.69077 0.35486 0.95222 0.90200
Cu	Cu	0.68114 0.37869 0.03643 0.90600
C 	C 	0.67594 0.28542 0.08276 0.33500
O 	O 	0.56783 0.22059 0.00636 -0.34000
C 	C 	0.66124 0.31676 0.86561 0.33500
O 	O 	0.71697 0.35083 0.00430 -0.63400
O 	O 	0.64070 0.26027 0.94508 -0.63900
O 	O 	0.68845 0.19896 0.98959 -0.36000
O 	O 	0.75484 0.26416 0.95136 -0.42700
O 	O 	0.68778 0.34159 0.08241 -0.35900
O 	O 	0.74558 0.44679 0.96156 -0.37200
C 	C 	0.74589 0.48396 0.98993 0.31000
C 	C 	0.54780 0.25533 0.00103 0.31800
O 	O 	0.58848 0.31487 0.99748 -0.39200
O 	O 	0.71663 0.46214 0.01974 -0.36200
O 	O 	0.68411 0.25672 0.05350 -0.33700
C 	C 	0.73945 0.22167 0.97364 0.31600
O 	O 	0.67315 0.35795 0.89654 -0.35800
O 	O 	0.64958 0.26168 0.86899 -0.39500
H 	H 	0.76370 0.37355 0.01230 0.18500
H 	H 	0.59508 0.23706 0.93291 0.18700
Cu	Cu	0.71718 0.32662 0.44798 0.93300
Cu	Cu	0.71280 0.28059 0.53208 0.88100
Cu	Cu	0.61360 0.29130 0.49614 0.90200
Cu	Cu	0.59326 0.31351 0.41588 0.90400
C 	C 	0.67293 0.30215 0.36488 0.33400
O 	O 	0.74870 0.41711 0.44574 -0.34200
C 	C 	0.65066 0.31064 0.58224 0.33500
O 	O 	0.61697 0.26972 0.44282 -0.64000
O 	O 	0.70811 0.33720 0.50307 -0.64000
O 	O 	0.76798 0.29304 0.45447 -0.34700
O 	O 	0.70076 0.22142 0.48981 -0.42800
O 	O 	0.64161 0.32592 0.37238 -0.35900
O 	O 	0.52119 0.24065 0.48708 -0.37300
C 	C 	0.48443 0.24271 0.45956 0.31500
C 	C 	0.71773 0.43912 0.45754 0.30500
O 	O 	0.65726 0.39907 0.46048 -0.38500
O 	O 	0.50578 0.26971 0.42892 -0.36700
O 	O 	0.71054 0.30256 0.39315 -0.33800
C 	C 	0.74417 0.23982 0.46771 0.31200
O 	O 	0.61126 0.30473 0.55232 -0.35800
O 	O 	0.70420 0.31875 0.57781 -0.39500
H 	H 	0.59166 0.22344 0.43242 0.18300
H 	H 	0.73334 0.38173 0.51745 0.18600
C 	C 	0.65777 0.33127 0.82623 -0.12000
C 	C 	0.71105 0.35595 0.80774 0.12300
C 	C 	0.70436 0.35751 0.76751 0.06500
C 	C 	0.64459 0.33558 0.74594 0.01800
C 	C 	0.59310 0.31708 0.76536 0.06600
C 	C 	0.59948 0.31423 0.80547 0.12800
C 	C 	0.63422 0.32567 0.70255 0.01800
C 	C 	0.65141 0.37683 0.68339 0.06600
C 	C 	0.65372 0.37104 0.64317 0.12800
C 	C 	0.63723 0.31356 0.62201 -0.11900
C 	C 	0.61389 0.26054 0.64032 0.12400
C 	C 	0.61307 0.26673 0.68067 0.06500
Br	Br	0.51354 0.29394 0.73667 -0.14700
Br	Br	0.79286 0.38637 0.83753 -0.21500
Br	Br	0.68158 0.44234 0.61735 -0.18600
Br	Br	0.58555 0.19538 0.70641 -0.16200
Br	Br	0.52811 0.28537 0.83176 -0.18400
Br	Br	0.77618 0.38706 0.74149 -0.16000
Br	Br	0.67343 0.45513 0.71257 -0.14700
Br	Br	0.58382 0.17966 0.61004 -0.21700
C 	C 	0.67958 0.29126 0.32404 -0.11300
C 	C 	0.70835 0.34223 0.30355 0.12500
C 	C 	0.70578 0.33034 0.26304 0.06500
C 	C 	0.67789 0.26800 0.24335 0.01700
C 	C 	0.65438 0.21799 0.26454 0.06900
C 	C 	0.65429 0.22942 0.30480 0.12200
C 	C 	0.67073 0.25485 0.20014 0.01800
C 	C 	0.61499 0.23827 0.17595 0.06700
C 	C 	0.61439 0.24167 0.13596 0.12200
C 	C 	0.67007 0.26344 0.12045 -0.11100
C 	C 	0.72342 0.27356 0.14370 0.12600
C 	C 	0.72306 0.26782 0.18339 0.06700
Br	Br	0.62184 0.13398 0.23827 -0.14700
Br	Br	0.75355 0.42861 0.33131 -0.15800
Br	Br	0.53795 0.21809 0.10253 -0.19400
Br	Br	0.79524 0.28058 0.21537 -0.14500
Br	Br	0.61808 0.16023 0.33335 -0.19100
Br	Br	0.73867 0.39905 0.23416 -0.15600
Br	Br	0.54091 0.21446 0.19816 -0.15900
Br	Br	0.79845 0.29940 0.12201 -0.15800
C 	C 	0.82349 0.61374 0.44930 -0.11000
C 	C 	0.79988 0.63814 0.47331 0.00900
C 	C 	0.75248 0.59834 0.49428 0.12900
C 	C 	0.72726 0.53384 0.48998 -0.03400
C 	C 	0.74944 0.50866 0.46497 -0.11200
C 	C 	0.79905 0.54957 0.44527 0.19400
C 	C 	0.82462 0.70535 0.47602 0.00100
O 	O 	0.72919 0.62184 0.51798 -0.26100
H 	H 	0.69007 0.50331 0.50584 0.07300
O 	O 	0.82169 0.52641 0.42071 -0.25800
H 	H 	0.86055 0.64452 0.43343 0.08300
C 	C 	0.87911 0.75332 0.50409 0.13500
C 	C 	0.90741 0.81757 0.50321 -0.05800
C 	C 	0.88230 0.83445 0.47403 -0.05200
C 	C 	0.82648 0.78633 0.44670 0.17000
C 	C 	0.79758 0.72207 0.44804 -0.09200
O 	O 	0.90469 0.73748 0.53243 -0.26900
H 	H 	0.94986 0.85430 0.52466 0.07500
O 	O 	0.80069 0.80195 0.41833 -0.26700
H 	H 	0.75539 0.68522 0.42647 0.08500
H 	H 	0.85915 0.53357 0.43717 0.16300
H 	H 	0.93679 0.73532 0.52107 0.15500
H 	H 	0.82168 0.80408 0.39573 0.15800
H 	H 	0.75679 0.63718 0.54421 0.16700
C 	C 	0.82874 0.05582 0.48511 -0.09300
C 	C 	0.83560 0.08822 0.45410 -0.00400
C 	C 	0.86703 0.08531 0.42445 0.13700
C 	C 	0.89340 0.05212 0.42675 -0.05900
C 	C 	0.88787 0.02091 0.45825 -0.06400
C 	C 	0.85492 0.02243 0.48737 0.15900
C 	C 	0.81228 0.12742 0.45369 0.01300
O 	O 	0.87374 0.11652 0.39387 -0.26700
H 	H 	0.91862 0.05107 0.40419 0.06900
O 	O 	0.84866 0.99176 0.51819 -0.25400
H 	H 	0.80423 0.05762 0.50791 0.07100
C 	C 	0.74620 0.09827 0.44509 0.11900
C 	C 	0.72436 0.13567 0.44778 -0.02500
C 	C 	0.76806 0.20216 0.45941 -0.11800
C 	C 	0.83432 0.23144 0.46689 0.19400
C 	C 	0.85613 0.19404 0.46376 -0.10700
O 	O 	0.70298 0.03338 0.43340 -0.26000
H 	H 	0.67334 0.11285 0.44151 0.06900
O 	O 	0.87775 0.29645 0.47773 -0.27200
H 	H 	0.90713 0.21675 0.47014 0.08600
H 	H 	0.88670 0.02376 0.53881 0.14400
H 	H 	0.69080 0.01660 0.45783 0.15200
H 	H 	0.88484 0.30528 0.50677 0.14300
H 	H 	0.83531 0.08512 0.37335 0.16400
C 	C 	0.31726 0.19900 0.44891 -0.11000
C 	C 	0.28440 0.14133 0.46262 0.01200
C 	C 	0.31754 0.11771 0.47617 0.12500
C 	C 	0.38279 0.15096 0.47504 -0.02800
C 	C 	0.41580 0.20858 0.46113 -0.11300
C 	C 	0.38290 0.23316 0.44868 0.19700
C 	C 	0.21512 0.10549 0.46251 -0.00100
O 	O 	0.28586 0.06132 0.48964 -0.26500
H 	H 	0.40758 0.13161 0.48467 0.07100
O 	O 	0.41468 0.29031 0.43610 -0.27900
H 	H 	0.29197 0.21753 0.43863 0.07900
C 	C 	0.19297 0.12755 0.48984 0.13000
C 	C 	0.12727 0.09234 0.49012 -0.05400
C 	C 	0.08333 0.03515 0.46320 -0.07200
C 	C 	0.10542 0.01364 0.43545 0.16300
C 	C 	0.17113 0.04871 0.43529 -0.09200
O 	O 	0.23565 0.18213 0.51727 -0.26600
H 	H 	0.11055 0.10908 0.51159 0.06900
O 	O 	0.06293 0.95799 0.40879 -0.26400
H 	H 	0.18794 0.03171 0.41404 0.08300
H 	H 	0.43029 0.32298 0.45991 0.15900
H 	H 	0.24035 0.21694 0.50526 0.15300
H 	H 	0.05089 0.97067 0.38576 0.15900
H 	H 	0.28973 0.07334 0.51816 0.16300
C 	C 	0.78516 0.64787 0.99911 -0.11800
C 	C 	0.84615 0.68300 0.98930 0.01600
C 	C 	0.87291 0.65209 0.97777 0.12300
C 	C 	0.83950 0.58677 0.97745 -0.02800
C 	C 	0.77900 0.55179 0.98810 -0.11300
C 	C 	0.75113 0.58236 0.99801 0.19400
C 	C 	0.88242 0.75238 0.99194 -0.01000
O 	O 	0.93250 0.68604 0.96796 -0.26400
H 	H 	0.86112 0.56356 0.96955 0.07000
O 	O 	0.69099 0.54840 0.00704 -0.27000
H 	H 	0.76415 0.67144 0.00766 0.08600
C 	C 	0.86488 0.77691 0.96379 0.13600
C 	C 	0.89893 0.84286 0.96694 -0.05900
C 	C 	0.95038 0.88468 0.99818 -0.06200
C 	C 	0.96742 0.86007 0.02660 0.16700
C 	C 	0.93364 0.79412 0.02326 -0.08200
O 	O 	0.81590 0.73653 0.93247 -0.26600
H 	H 	0.88584 0.86153 0.94483 0.07800
O 	O 	0.01747 0.90041 0.05739 -0.25100
H 	H 	0.94701 0.77537 0.04515 0.08400
H 	H 	0.66121 0.53351 0.98176 0.15500
H 	H 	0.77687 0.72784 0.94097 0.15400
H 	H 	0.99810 0.90729 0.07843 0.15300
H 	H 	0.92468 0.68424 0.93932 0.16400
C 	C 	0.86111 0.06426 0.96498 -0.09000
C 	C 	0.88553 0.12279 0.98854 -0.01200
C 	C 	0.94522 0.15660 0.01401 0.14700
C 	C 	0.97933 0.13102 0.01636 -0.06800
C 	C 	0.95479 0.07226 0.99286 -0.05300
C 	C 	0.89596 0.03954 0.96644 0.15300
C 	C 	0.84953 0.14964 0.98531 0.00900
O 	O 	0.96963 0.21395 0.03720 -0.26800
H 	H 	0.02446 0.15651 0.03680 0.08100
O 	O 	0.87224 0.98317 0.94224 -0.26700
H 	H 	0.81538 0.03828 0.94510 0.06900
C 	C 	0.84439 0.17218 0.95133 0.11500
C 	C 	0.80805 0.19512 0.94770 -0.02900
C 	C 	0.77647 0.19588 0.97784 -0.12900
C 	C 	0.78203 0.17367 0.01207 0.20400
C 	C 	0.81851 0.15071 0.01562 -0.10200
O 	O 	0.87654 0.17368 0.92215 -0.26700
H 	H 	0.80422 0.21210 0.92129 0.05200
O 	O 	0.75447 0.17708 0.04274 -0.25900
H 	H 	0.82259 0.13364 0.04194 0.09100
H 	H 	0.88997 0.99544 0.91807 0.15700
H 	H 	0.84567 0.13272 0.90352 0.14700
H 	H 	0.71204 0.13490 0.03866 0.16800
H 	H 	0.99558 0.24657 0.02140 0.16200
C 	C 	0.25781 0.11904 0.03518 -0.09600
C 	C 	0.28499 0.15153 0.00489 0.00300
C 	C 	0.24788 0.15737 0.97639 0.13500
C 	C 	0.18305 0.12805 0.97729 -0.06800
C 	C 	0.15509 0.09315 0.00666 -0.04700
C 	C 	0.19325 0.09032 0.03636 0.16700
C 	C 	0.35213 0.17875 0.00286 0.02000
O 	O 	0.27418 0.18943 0.94675 -0.26700
H 	H 	0.15406 0.13064 0.95442 0.07400
O 	O 	0.16696 0.05773 0.06583 -0.26600
H 	H 	0.28659 0.11545 0.05760 0.08400
C 	C 	0.40193 0.24126 0.02229 0.12300
C 	C 	0.46567 0.26616 0.02116 -0.02200
C 	C 	0.48031 0.22871 0.00116 -0.10800
C 	C 	0.43033 0.16624 0.98141 0.19700
C 	C 	0.36653 0.14139 0.98256 -0.11100
O 	O 	0.38830 0.27847 0.04181 -0.26600
H 	H 	0.50382 0.31431 0.03639 0.06400
O 	O 	0.44369 0.12932 0.96119 -0.27800
H 	H 	0.32823 0.09309 0.96765 0.08800
H 	H 	0.17261 0.08962 0.08689 0.15700
H 	H 	0.38806 0.27045 0.06901 0.15900
H 	H 	0.44418 0.13828 0.93421 0.15500
H 	H 	0.29140 0.23419 0.95675 0.16100
