data_crystal

_cell_length_a 18.43153
_cell_length_b 18.86140
_cell_length_c 26.46043
_cell_angle_alpha 95.42481
_cell_angle_beta  95.42556
_cell_angle_gamma 126.41358

_symmetry_space_group_name_	'P 1'
_symmetry_space_group_name_H-M	'P 1'

loop_
_symmetry_equiv_pos_as_xyz
  x,y,z

loop_
_atom_site_label
_atom_site_type_symbol
_atom_site_fract_x
_atom_site_fract_y
_atom_site_fract_z
_atom_site_charge
C 	C 	0.92782 0.00773 0.98155 0.06100
N 	N 	0.01965 0.06595 0.98245 -0.05000
C 	C 	0.06949 0.03466 0.97893 0.12500
N 	N 	0.02791 0.94587 0.97558 -0.01500
C 	C 	0.93685 0.88803 0.97552 0.15500
N 	N 	0.88705 0.91910 0.97936 -0.03400
C 	C 	0.91375 0.01283 0.46031 0.07800
N 	N 	0.00491 0.06601 0.45952 -0.04500
C 	C 	0.05237 0.03222 0.46263 0.12800
N 	N 	0.00834 0.94456 0.46496 -0.01500
C 	C 	0.91717 0.89063 0.46530 0.15400
N 	N 	0.86923 0.92442 0.46240 -0.03200
Cu	Cu	0.60729 0.19539 0.01346 0.93900
Cu	Cu	0.64873 0.17188 0.89727 0.89100
Cu	Cu	0.67006 0.33423 0.94330 0.90600
Cu	Cu	0.64027 0.37752 0.04850 0.94100
C 	C 	0.65389 0.27187 0.12196 0.30100
O 	O 	0.48018 0.15867 0.01943 -0.31100
C 	C 	0.61649 0.26179 0.83025 0.30100
O 	O 	0.69559 0.33402 0.01508 -0.63000
O 	O 	0.58733 0.20125 0.93948 -0.63800
O 	O 	0.65016 0.11964 0.00678 -0.30500
O 	O 	0.74145 0.19732 0.95052 -0.39200
O 	O 	0.62548 0.31946 0.11038 -0.28500
O 	O 	0.75528 0.46299 0.95290 -0.34300
C 	C 	0.75781 0.51907 0.98833 0.29600
C 	C 	0.45297 0.20465 0.00326 0.31900
O 	O 	0.51301 0.28485 0.99377 -0.35300
O 	O 	0.69791 0.48997 0.01972 -0.28700
O 	O 	0.64739 0.21324 0.08627 -0.29900
C 	C 	0.72045 0.14452 0.98426 0.30500
O 	O 	0.66609 0.33342 0.86784 -0.36100
O 	O 	0.58847 0.18266 0.83954 -0.38500
H 	H 	0.76145 0.36613 0.02942 0.22600
H 	H 	0.52289 0.17245 0.92351 0.19000
Cu	Cu	0.76641 0.36080 0.44937 0.93600
Cu	Cu	0.76175 0.30047 0.56178 0.88800
Cu	Cu	0.62451 0.32262 0.51630 0.90800
Cu	Cu	0.59282 0.34925 0.40865 0.94400
C 	C 	0.69610 0.32014 0.33987 0.30200
O 	O 	0.81829 0.49035 0.44437 -0.30500
C 	C 	0.67699 0.34215 0.62844 0.29600
O 	O 	0.62366 0.28716 0.44541 -0.63300
O 	O 	0.75860 0.38123 0.52290 -0.63200
O 	O 	0.82828 0.30246 0.45706 -0.29800
O 	O 	0.72888 0.21055 0.50579 -0.40200
O 	O 	0.65596 0.35779 0.34958 -0.28000
O 	O 	0.49312 0.25644 0.50678 -0.34100
C 	C 	0.43992 0.24674 0.46535 0.30800
C 	C 	0.77545 0.52362 0.45782 0.29100
O 	O 	0.69094 0.46998 0.46525 -0.33600
O 	O 	0.47395 0.29964 0.43116 -0.29200
O 	O 	0.75078 0.32162 0.37679 -0.28900
C 	C 	0.78710 0.22749 0.47528 0.30700
O 	O 	0.62542 0.34408 0.59113 -0.33800
O 	O 	0.75505 0.35844 0.62191 -0.37700
H 	H 	0.58446 0.22150 0.43284 0.22600
H 	H 	0.79840 0.44471 0.54082 0.19900
C 	C 	0.64392 0.37248 0.71347 -0.03000
C 	C 	0.64299 0.31355 0.67637 -0.06900
C 	C 	0.61622 0.22988 0.68706 0.12100
C 	C 	0.60185 0.21138 0.73678 -0.02800
C 	C 	0.61020 0.27353 0.77551 -0.07800
C 	C 	0.62298 0.35091 0.76220 0.14800
N 	N 	0.60985 0.40125 0.79446 -0.19600
H 	H 	0.65993 0.43462 0.70432 0.10000
H 	H 	0.58666 0.14942 0.74564 0.07400
N 	N 	0.60411 0.16703 0.64975 -0.19400
H 	H 	0.62610 0.46175 0.78624 0.15800
H 	H 	0.57611 0.37713 0.82531 0.13500
H 	H 	0.60728 0.17574 0.61142 0.07900
H 	H 	0.58769 0.10673 0.65847 0.12200
C 	C 	0.75726 0.34643 0.20729 -0.02300
C 	C 	0.67497 0.27088 0.17692 -0.04000
C 	C 	0.60746 0.20304 0.20109 0.16600
C 	C 	0.61992 0.21678 0.25532 -0.02300
C 	C 	0.69804 0.29670 0.28556 -0.03600
C 	C 	0.76966 0.36016 0.26151 0.16800
N 	N 	0.84947 0.43508 0.29005 -0.18900
H 	H 	0.81011 0.39697 0.18869 0.10300
H 	H 	0.56643 0.16696 0.27393 0.10500
N 	N 	0.52994 0.12565 0.17265 -0.19000
H 	H 	0.90072 0.48286 0.27189 0.16300
H 	H 	0.86243 0.44578 0.33034 0.16900
H 	H 	0.51993 0.11160 0.13245 0.16600
H 	H 	0.47930 0.07734 0.19088 0.16100
C 	C 	0.82159 0.73324 0.41920 0.03400
C 	C 	0.87005 0.79463 0.46593 0.07900
C 	C 	0.88839 0.76683 0.51014 -0.09400
C 	C 	0.86421 0.67992 0.50538 0.06700
C 	C 	0.81744 0.61907 0.45832 0.00700
C 	C 	0.79732 0.64633 0.41439 -0.07100
C 	C 	0.74915 0.58259 0.36259 0.78100
H 	H 	0.80652 0.75479 0.38589 0.11900
H 	H 	0.87985 0.65871 0.53868 0.08600
C 	C 	0.93762 0.83088 0.56182 0.75400
F 	F 	0.74851 0.62558 0.32313 -0.39400
F 	F 	0.65926 0.51426 0.36503 -0.44300
F 	F 	0.79372 0.54659 0.35035 -0.43400
F 	F 	0.90560 0.88042 0.57055 -0.33600
F 	F 	0.03079 0.88850 0.56205 -0.32300
F 	F 	0.92365 0.78498 0.60216 -0.38400
C 	C 	0.83820 0.14623 0.51447 0.07200
C 	C 	0.81790 0.17073 0.46985 -0.00900
C 	C 	0.81660 0.13224 0.42071 -0.06400
C 	C 	0.84441 0.07676 0.41804 0.01700
C 	C 	0.86548 0.05317 0.46285 0.08500
C 	C 	0.85725 0.08413 0.51116 -0.10700
C 	C 	0.86819 0.05055 0.55911 0.74000
H 	H 	0.83772 0.17483 0.55181 0.06500
H 	H 	0.85192 0.05358 0.38126 0.10100
C 	C 	0.78797 0.15159 0.37132 0.77400
F 	F 	0.84988 0.08255 0.60142 -0.41200
F 	F 	0.95698 0.07817 0.57125 -0.36900
F 	F 	0.80780 0.95789 0.55016 -0.32300
F 	F 	0.85489 0.23942 0.36718 -0.41700
F 	F 	0.70557 0.13810 0.37158 -0.43600
F 	F 	0.77609 0.09589 0.32800 -0.41500
C 	C 	0.18313 0.07486 0.42043 0.02800
C 	C 	0.15128 0.09008 0.46304 0.08300
C 	C 	0.21447 0.15570 0.50704 -0.10400
C 	C 	0.30873 0.20815 0.50615 0.07600
C 	C 	0.34066 0.19156 0.46402 0.00600
C 	C 	0.27758 0.12229 0.42133 -0.06700
C 	C 	0.31056 0.10005 0.37629 0.77400
H 	H 	0.13389 0.02478 0.38688 0.10900
H 	H 	0.35775 0.26209 0.53829 0.10000
C 	C 	0.18159 0.17098 0.55449 0.79100
F 	F 	0.24016 0.01895 0.34474 -0.40600
F 	F 	0.37919 0.09371 0.39416 -0.44500
F 	F 	0.34406 0.16645 0.34690 -0.41200
F 	F 	0.12137 0.09053 0.57019 -0.35700
F 	F 	0.13781 0.20837 0.54294 -0.37600
F 	F 	0.25372 0.22842 0.59558 -0.39300
C 	C 	0.89665 0.77042 0.02639 0.04300
C 	C 	0.89499 0.79406 0.97794 0.07100
C 	C 	0.85793 0.72879 0.93236 -0.10000
C 	C 	0.81556 0.63898 0.93654 0.07400
C 	C 	0.81467 0.61485 0.98517 -0.00100
C 	C 	0.86229 0.68234 0.03034 -0.05800
C 	C 	0.87544 0.66100 0.08282 0.77500
H 	H 	0.92644 0.82129 0.06105 0.11500
H 	H 	0.78140 0.58727 0.90206 0.09000
C 	C 	0.86722 0.75541 0.87961 0.78800
F 	F 	0.95059 0.73684 0.11605 -0.39300
F 	F 	0.89048 0.59716 0.07846 -0.42900
F 	F 	0.79829 0.62949 0.10429 -0.40500
F 	F 	0.95909 0.81249 0.87660 -0.37500
F 	F 	0.82837 0.79849 0.87208 -0.35000
F 	F 	0.82411 0.68175 0.83998 -0.40600
C 	C 	0.88943 0.09988 0.02659 0.01200
C 	C 	0.87234 0.04053 0.98264 0.10100
C 	C 	0.80039 0.01067 0.94095 -0.19400
C 	C 	0.74374 0.03683 0.94569 0.09800
C 	C 	0.76352 0.09945 0.98834 -0.03400
C 	C 	0.83552 0.12985 0.02993 -0.04600
C 	C 	0.85561 0.19507 0.07737 0.76900
H 	H 	0.94470 0.12245 0.05817 0.10500
H 	H 	0.68642 0.01176 0.91490 0.04300
C 	C 	0.78136 0.94846 0.89213 0.85800
F 	F 	0.92380 0.21172 0.11526 -0.41000
F 	F 	0.77719 0.15997 0.09814 -0.41800
F 	F 	0.88395 0.27571 0.06372 -0.42400
F 	F 	0.73343 0.86176 0.90114 -0.37500
F 	F 	0.86235 0.97405 0.87700 -0.34800
F 	F 	0.72924 0.94980 0.85150 -0.38200
C 	C 	0.30356 0.13966 0.94780 0.07400
C 	C 	0.35582 0.16797 0.99757 -0.02500
C 	C 	0.31716 0.16848 0.04128 -0.05600
C 	C 	0.22347 0.13090 0.03421 0.03400
C 	C 	0.16982 0.09729 0.98449 0.07200
C 	C 	0.21179 0.10828 0.94084 -0.10100
C 	C 	0.15757 0.08182 0.88674 0.73800
H 	H 	0.33450 0.14204 0.91451 0.07400
H 	H 	0.19095 0.12372 0.06740 0.11300
C 	C 	0.37524 0.20798 0.09528 0.77600
F 	F 	0.21529 0.12273 0.85198 -0.39400
F 	F 	0.10104 0.10744 0.88580 -0.37000
F 	F 	0.10456 0.98994 0.87091 -0.29000
F 	F 	0.45131 0.29539 0.09720 -0.42800
F 	F 	0.40362 0.15755 0.10801 -0.43300
F 	F 	0.32699 0.20906 0.13202 -0.39500
