data_crystal

_cell_length_a 17.62669
_cell_length_b 26.05068
_cell_length_c 25.93201
_cell_angle_alpha 90.00748
_cell_angle_beta  90.00119
_cell_angle_gamma 89.98980

_symmetry_space_group_name_	'P 1'
_symmetry_space_group_name_H-M	'P 1'

loop_
_symmetry_equiv_pos_as_xyz
  x,y,z

loop_
_atom_site_label
_atom_site_type_symbol
_atom_site_fract_x
_atom_site_fract_y
_atom_site_fract_z
_atom_site_charge
Cu	Cu	0.08741 0.85947 0.09551 0.92900
Cu	Cu	0.00176 0.84816 0.20662 0.87300
Cu	Cu	0.92158 0.82825 0.10620 0.89100
Cu	Cu	0.99392 0.81588 0.00152 0.88100
C 	C 	0.16031 0.80804 0.01156 0.24000
O 	O 	0.07128 0.91961 0.04782 -0.36500
C 	C 	0.84058 0.85886 0.20033 0.27500
O 	O 	0.01056 0.80191 0.07230 -0.63400
O 	O 	0.99717 0.87652 0.13706 -0.64900
O 	O 	0.16185 0.85792 0.15255 -0.36900
O 	O 	0.08923 0.80539 0.20167 -0.42900
O 	O 	0.10300 0.82032 0.98139 -0.34700
O 	O 	0.85294 0.77776 0.07703 -0.38100
C 	C 	0.84474 0.76815 0.02735 0.27600
C 	C 	0.00531 0.93012 0.02681 0.31200
O 	O 	0.95531 0.89343 0.01949 -0.40800
O 	O 	0.90205 0.77207 0.99477 -0.36900
O 	O 	0.16887 0.83015 0.05684 -0.34800
C 	C 	0.15553 0.82541 0.19072 0.28700
O 	O 	0.83685 0.85001 0.15018 -0.37600
O 	O 	0.90347 0.87564 0.22196 -0.41400
H 	H 	0.02275 0.76575 0.08066 0.16400
H 	H 	0.98111 0.91292 0.13572 0.17100
Cu	Cu	0.39770 0.85940 0.38867 0.92900
Cu	Cu	0.48334 0.84810 0.27755 0.86800
Cu	Cu	0.56354 0.82817 0.37795 0.89500
Cu	Cu	0.49121 0.81577 0.48263 0.89500
C 	C 	0.32483 0.80796 0.47259 0.28200
O 	O 	0.41384 0.91951 0.43639 -0.35600
C 	C 	0.64452 0.85881 0.28384 0.27500
O 	O 	0.47457 0.80182 0.41184 -0.64000
O 	O 	0.48792 0.87644 0.34712 -0.64200
O 	O 	0.32326 0.85787 0.33163 -0.36800
O 	O 	0.39587 0.80534 0.28248 -0.43200
O 	O 	0.38213 0.82023 0.50276 -0.37700
O 	O 	0.63222 0.77768 0.40710 -0.37900
C 	C 	0.64041 0.76805 0.45677 0.28500
C 	C 	0.47983 0.93001 0.45738 0.27400
O 	O 	0.52983 0.89331 0.46470 -0.38700
O 	O 	0.58307 0.77192 0.48934 -0.38600
O 	O 	0.31625 0.83007 0.42733 -0.35300
C 	C 	0.32958 0.82537 0.29344 0.28800
O 	O 	0.64826 0.84994 0.33397 -0.37500
O 	O 	0.58161 0.87558 0.26222 -0.41000
H 	H 	0.46239 0.76566 0.40346 0.16400
H 	H 	0.50397 0.91284 0.34848 0.17300
Cu	Cu	0.08746 0.14009 0.88866 0.93200
Cu	Cu	0.00182 0.15139 0.77755 0.87500
Cu	Cu	0.92162 0.17132 0.87795 0.89300
Cu	Cu	0.99396 0.18373 0.98263 0.89400
C 	C 	0.16034 0.19154 0.97259 0.29100
O 	O 	0.07132 0.07997 0.93637 -0.35100
C 	C 	0.84064 0.14069 0.78383 0.27500
O 	O 	0.01060 0.19767 0.91184 -0.63100
O 	O 	0.99723 0.12305 0.84711 -0.64900
O 	O 	0.16190 0.14161 0.83162 -0.36600
O 	O 	0.08928 0.19414 0.78249 -0.42700
O 	O 	0.10304 0.17927 0.00276 -0.39300
O 	O 	0.85295 0.22182 0.90711 -0.38000
C 	C 	0.84476 0.23145 0.95679 0.29300
C 	C 	0.00534 0.06948 0.95737 0.28700
O 	O 	0.95534 0.10619 0.96469 -0.39300
O 	O 	0.90210 0.22757 0.98936 -0.38500
O 	O 	0.16891 0.16941 0.92732 -0.35200
C 	C 	0.15557 0.17412 0.79344 0.28800
O 	O 	0.83690 0.14955 0.83397 -0.37400
O 	O 	0.90354 0.12391 0.76221 -0.41300
H 	H 	0.02278 0.23383 0.90347 0.16700
H 	H 	0.98118 0.08665 0.84846 0.17300
Cu	Cu	0.39775 0.14006 0.59550 0.92900
Cu	Cu	0.48339 0.15138 0.70661 0.86900
Cu	Cu	0.56358 0.17127 0.60620 0.89500
Cu	Cu	0.49124 0.18363 0.50152 0.89500
C 	C 	0.32486 0.19148 0.51155 0.28200
O 	O 	0.41388 0.07992 0.54780 -0.35600
C 	C 	0.64457 0.14067 0.70032 0.27500
O 	O 	0.47460 0.19762 0.57230 -0.64000
O 	O 	0.48798 0.12302 0.63705 -0.64100
O 	O 	0.32330 0.14161 0.65254 -0.36700
O 	O 	0.39591 0.19414 0.70167 -0.43000
O 	O 	0.38216 0.17918 0.48139 -0.37700
O 	O 	0.63223 0.22175 0.57704 -0.37800
C 	C 	0.64043 0.23136 0.52736 0.28500
C 	C 	0.47986 0.06940 0.52681 0.27600
O 	O 	0.52986 0.10609 0.51948 -0.38800
O 	O 	0.58310 0.22745 0.49478 -0.38600
O 	O 	0.31629 0.16938 0.55683 -0.35300
C 	C 	0.32962 0.17412 0.69072 0.28800
O 	O 	0.64831 0.14951 0.65018 -0.37400
O 	O 	0.58168 0.12390 0.72195 -0.40800
H 	H 	0.46241 0.23378 0.58066 0.16400
H 	H 	0.50404 0.08662 0.63570 0.17400
Cu	Cu	0.89775 0.64006 0.59550 0.92800
Cu	Cu	0.98339 0.65138 0.70661 0.86500
Cu	Cu	0.06357 0.67127 0.60620 0.90000
Cu	Cu	0.99124 0.68363 0.50152 0.89000
C 	C 	0.82486 0.69148 0.51155 0.28200
O 	O 	0.91388 0.57992 0.54780 -0.35500
C 	C 	0.14457 0.64067 0.70032 0.27600
O 	O 	0.97460 0.69762 0.57230 -0.64400
O 	O 	0.98798 0.62302 0.63705 -0.65500
O 	O 	0.82330 0.64161 0.65254 -0.36900
O 	O 	0.89591 0.69414 0.70167 -0.43200
O 	O 	0.88216 0.67918 0.48139 -0.38000
O 	O 	0.13224 0.72175 0.57704 -0.37500
C 	C 	0.14043 0.73136 0.52736 0.28500
C 	C 	0.97986 0.56940 0.52681 0.26200
O 	O 	0.02986 0.60609 0.51948 -0.37300
O 	O 	0.08311 0.72745 0.49478 -0.38000
O 	O 	0.81629 0.66938 0.55683 -0.35400
C 	C 	0.82962 0.67412 0.69072 0.28800
O 	O 	0.14831 0.64951 0.65018 -0.37100
O 	O 	0.08168 0.62390 0.72195 -0.40200
H 	H 	0.96241 0.73378 0.58066 0.16300
H 	H 	0.00404 0.58662 0.63570 0.18600
Cu	Cu	0.58746 0.64009 0.88866 0.92900
Cu	Cu	0.50182 0.65139 0.77755 0.86900
Cu	Cu	0.42162 0.67132 0.87795 0.89500
Cu	Cu	0.49396 0.68373 0.98263 0.89900
C 	C 	0.66034 0.69154 0.97259 0.29100
O 	O 	0.57132 0.57997 0.93637 -0.35000
C 	C 	0.34064 0.64069 0.78383 0.27600
O 	O 	0.51060 0.69767 0.91184 -0.63900
O 	O 	0.49723 0.62305 0.84711 -0.64100
O 	O 	0.66190 0.64161 0.83162 -0.36800
O 	O 	0.58928 0.69414 0.78249 -0.43100
O 	O 	0.60304 0.67927 0.00276 -0.39900
O 	O 	0.35295 0.72182 0.90711 -0.37800
C 	C 	0.34476 0.73145 0.95679 0.29300
C 	C 	0.50534 0.56948 0.95737 0.26300
O 	O 	0.45534 0.60619 0.96469 -0.38000
O 	O 	0.40210 0.72757 0.98936 -0.38200
O 	O 	0.66891 0.66941 0.92732 -0.35400
C 	C 	0.65557 0.67412 0.79344 0.28800
O 	O 	0.33690 0.64955 0.83397 -0.37200
O 	O 	0.40354 0.62391 0.76221 -0.40800
H 	H 	0.52278 0.73383 0.90347 0.16600
H 	H 	0.48118 0.58665 0.84846 0.17500
Cu	Cu	0.89770 0.35940 0.38867 0.92800
Cu	Cu	0.98334 0.34810 0.27755 0.86400
Cu	Cu	0.06354 0.32817 0.37795 0.90000
Cu	Cu	0.99121 0.31577 0.48263 0.89000
C 	C 	0.82483 0.30796 0.47259 0.28200
O 	O 	0.91384 0.41951 0.43639 -0.35500
C 	C 	0.14452 0.35881 0.28384 0.27500
O 	O 	0.97457 0.30182 0.41184 -0.64400
O 	O 	0.98792 0.37644 0.34712 -0.65500
O 	O 	0.82326 0.35787 0.33163 -0.37000
O 	O 	0.89587 0.30534 0.28248 -0.43500
O 	O 	0.88213 0.32023 0.50276 -0.37900
O 	O 	0.13222 0.27768 0.40710 -0.37600
C 	C 	0.14041 0.26805 0.45677 0.28500
C 	C 	0.97983 0.43001 0.45738 0.26200
O 	O 	0.02983 0.39331 0.46470 -0.37300
O 	O 	0.08307 0.27192 0.48934 -0.38000
O 	O 	0.81625 0.33007 0.42733 -0.35500
C 	C 	0.82958 0.32537 0.29344 0.28800
O 	O 	0.14826 0.34994 0.33397 -0.37200
O 	O 	0.08161 0.37558 0.26222 -0.40400
H 	H 	0.96239 0.26566 0.40346 0.16200
H 	H 	0.00397 0.41284 0.34848 0.18600
Cu	Cu	0.58741 0.35947 0.09551 0.92800
Cu	Cu	0.50176 0.34816 0.20662 0.86800
Cu	Cu	0.42158 0.32825 0.10620 0.89400
Cu	Cu	0.49392 0.31588 0.00152 0.88600
C 	C 	0.66031 0.30804 0.01156 0.23900
O 	O 	0.57128 0.41961 0.04782 -0.36400
C 	C 	0.34058 0.35886 0.20033 0.27500
O 	O 	0.51056 0.30191 0.07230 -0.64200
O 	O 	0.49717 0.37652 0.13706 -0.64200
O 	O 	0.66185 0.35792 0.15255 -0.37100
O 	O 	0.58923 0.30539 0.20167 -0.43200
O 	O 	0.60301 0.32032 0.98139 -0.35200
O 	O 	0.35294 0.27776 0.07703 -0.37800
C 	C 	0.34474 0.26815 0.02735 0.27600
C 	C 	0.50531 0.43012 0.02681 0.28800
O 	O 	0.45531 0.39343 0.01949 -0.39500
O 	O 	0.40205 0.27207 0.99477 -0.36600
O 	O 	0.66887 0.33015 0.05684 -0.35000
C 	C 	0.65553 0.32541 0.19072 0.28700
O 	O 	0.33685 0.35001 0.15018 -0.37500
O 	O 	0.40348 0.37564 0.22196 -0.40900
H 	H 	0.52275 0.26575 0.08066 0.16200
H 	H 	0.48111 0.41292 0.13572 0.17300
C 	C 	0.71661 0.32112 0.22696 -0.05700
C 	C 	0.76850 0.32111 0.25720 -0.05700
C 	C 	0.27148 0.36018 0.22965 -0.04600
C 	C 	0.21362 0.36017 0.25452 -0.04500
C 	C 	0.49534 0.52055 0.98180 -0.00600
C 	C 	0.49533 0.47906 0.00238 -0.08500
C 	C 	0.98984 0.47895 0.48181 -0.04600
C 	C 	0.98985 0.52045 0.50238 -0.04600
C 	C 	0.21368 0.63934 0.72964 -0.04300
C 	C 	0.27153 0.63934 0.75451 -0.04400
C 	C 	0.76854 0.67839 0.72697 -0.05500
C 	C 	0.71666 0.67839 0.75720 -0.05400
C 	C 	0.20697 0.24120 0.47364 -0.04100
C 	C 	0.26151 0.21847 0.48990 -0.04200
C 	C 	0.76149 0.28095 0.49424 -0.04300
C 	C 	0.70696 0.25822 0.51049 -0.04300
C 	C 	0.27821 0.24128 0.01048 -0.07100
C 	C 	0.22368 0.21855 0.99423 -0.01200
C 	C 	0.77821 0.25831 0.97366 -0.05500
C 	C 	0.72366 0.28104 0.98991 -0.01000
C 	C 	0.21666 0.17839 0.75720 -0.05200
C 	C 	0.26854 0.17839 0.72697 -0.05300
C 	C 	0.71368 0.13934 0.72964 -0.04500
C 	C 	0.77153 0.13934 0.75451 -0.04600
C 	C 	0.70697 0.74120 0.47364 -0.04300
C 	C 	0.76151 0.71847 0.48990 -0.04300
C 	C 	0.26149 0.78095 0.49424 -0.04100
C 	C 	0.20696 0.75822 0.51049 -0.04100
C 	C 	0.48984 0.97896 0.48181 -0.04300
C 	C 	0.48985 0.02045 0.50238 -0.04800
C 	C 	0.77821 0.74128 0.01048 -0.07300
C 	C 	0.72368 0.71855 0.99423 -0.01400
C 	C 	0.27821 0.75831 0.97366 -0.05300
C 	C 	0.22366 0.78104 0.98991 -0.00800
C 	C 	0.99534 0.02055 0.98180 -0.02000
C 	C 	0.99533 0.97906 0.00238 -0.09400
C 	C 	0.21661 0.82112 0.22696 -0.05400
C 	C 	0.26850 0.82111 0.25720 -0.05500
C 	C 	0.77148 0.86018 0.22965 -0.04800
C 	C 	0.71363 0.86017 0.25452 -0.04700
