data_crystal

_cell_length_a 20.85421
_cell_length_b 21.32987
_cell_length_c 31.27619
_cell_angle_alpha 60.82756
_cell_angle_beta  118.86640
_cell_angle_gamma 133.24569

_symmetry_space_group_name_	'P 1'
_symmetry_space_group_name_H-M	'P 1'

loop_
_symmetry_equiv_pos_as_xyz
  x,y,z

loop_
_atom_site_label
_atom_site_type_symbol
_atom_site_fract_x
_atom_site_fract_y
_atom_site_fract_z
_atom_site_charge
C 	C 	0.30893 0.68594 0.18588 0.02500
C 	C 	0.40048 0.71890 0.19811 -0.06500
C 	C 	0.35526 0.59923 0.17393 -0.06600
C 	C 	0.26425 0.56167 0.16498 0.02500
C 	C 	0.24031 0.60573 0.16973 -0.06500
H 	H 	0.37333 0.56610 0.16933 0.05700
H 	H 	0.16965 0.57874 0.16025 0.04900
C 	C 	0.27600 0.65793 0.70348 0.02500
C 	C 	0.21956 0.57560 0.69075 -0.06500
C 	C 	0.25658 0.55175 0.67876 0.02500
C 	C 	0.34665 0.61202 0.67556 -0.06600
C 	C 	0.36967 0.71246 0.70612 -0.06500
H 	H 	0.14797 0.53117 0.68963 0.04900
H 	H 	0.37366 0.59530 0.66390 0.05600
Co	Co	0.04987 0.02269 0.04668 1.15600
C 	C 	0.22475 0.10816 0.02923 0.31400
Co	Co	0.11000 0.91272 0.05195 1.17700
O 	O 	0.02511 0.10803 0.03521 -0.47700
C 	C 	0.05324 0.21740 0.13460 0.30100
C 	C 	0.20498 0.89612 0.15714 0.29300
O 	O 	0.07744 0.18825 0.12024 -0.39100
O 	O 	0.21739 0.94959 0.11258 -0.38200
O 	O 	0.15226 0.88240 0.17795 -0.36900
O 	O 	0.05515 0.93516 0.07977 -0.73400
O 	O 	0.17624 0.04187 0.00914 -0.42800
O 	O 	0.18860 0.11042 0.05291 -0.41000
Co	Co	0.07170 0.01715 0.56038 1.16500
Co	Co	0.01875 0.09573 0.59919 1.17400
C 	C 	0.24066 0.02811 0.58599 0.22400
Co	Co	0.06872 0.85965 0.56340 1.17400
O 	O 	0.08528 0.12619 0.55312 -0.46500
C 	C 	0.11492 0.21333 0.67107 0.29400
C 	C 	0.08115 0.77124 0.67145 0.29900
O 	O 	0.10133 0.95869 0.49773 -0.40300
O 	O 	0.05833 0.14949 0.70058 -0.38700
O 	O 	0.12447 0.19541 0.63980 -0.38000
O 	O 	0.04357 0.75563 0.62709 -0.41000
O 	O 	0.07350 0.82036 0.68025 -0.38300
O 	O 	0.03068 0.90915 0.58330 -0.73800
O 	O 	0.19925 0.94170 0.59965 -0.34800
O 	O 	0.20777 0.06293 0.58746 -0.38500
C 	C 	0.04603 0.01357 0.84054 0.05100
C 	C 	0.03886 0.02249 0.87982 0.04900
Br	Br	0.11578 0.13726 0.89275 -0.22300
Br	Br	0.15673 0.09888 0.81833 -0.22900
C 	C 	0.10813 0.07912 0.38716 0.12300
C 	C 	0.11558 0.07760 0.34486 0.09100
Br	Br	0.21780 0.17831 0.31518 -0.21400
Br	Br	0.19375 0.18554 0.41089 -0.23000
C 	C 	0.21903 0.40068 0.72076 -0.05500
C 	C 	0.20659 0.45987 0.67673 0.01700
C 	C 	0.17199 0.44116 0.62990 -0.05800
C 	C 	0.15109 0.36472 0.62729 0.01200
C 	C 	0.16421 0.30588 0.67151 -0.07900
C 	C 	0.20073 0.32601 0.71806 0.01200
H 	H 	0.24789 0.41528 0.75702 0.05600
H 	H 	0.16413 0.48730 0.59543 0.04900
H 	H 	0.12157 0.34968 0.59110 0.03700
H 	H 	0.21161 0.28172 0.75249 0.06000
C 	C 	0.23487 0.81044 0.69966 0.01000
C 	C 	0.14603 0.74919 0.70601 -0.07900
C 	C 	0.11173 0.65889 0.72596 0.01400
C 	C 	0.15727 0.62939 0.72889 -0.05600
C 	C 	0.23675 0.68993 0.71092 0.02000
C 	C 	0.27713 0.78159 0.69813 -0.05400
H 	H 	0.26654 0.88082 0.68948 0.05000
H 	H 	0.04541 0.61049 0.73421 0.03200
H 	H 	0.12906 0.55951 0.74357 0.04800
H 	H 	0.33859 0.83042 0.68465 0.04900
C 	C 	0.18045 0.46425 0.10773 -0.05900
C 	C 	0.19536 0.47294 0.15412 0.01900
C 	C 	0.16788 0.39744 0.19446 -0.05500
C 	C 	0.13014 0.31556 0.18938 0.01500
C 	C 	0.11671 0.30704 0.14339 -0.08000
C 	C 	0.14179 0.38191 0.10250 0.01500
H 	H 	0.20252 0.52214 0.07641 0.04900
H 	H 	0.18011 0.40314 0.23065 0.05700
H 	H 	0.10838 0.25783 0.22080 0.05000
H 	H 	0.12906 0.37595 0.06628 0.03400
C 	C 	0.20747 0.69869 0.19966 -0.05600
C 	C 	0.28643 0.73987 0.18601 0.02000
C 	C 	0.34521 0.83336 0.17276 -0.05600
C 	C 	0.32532 0.88425 0.17264 0.01300
C 	C 	0.24205 0.84368 0.18063 -0.07800
C 	C 	0.18470 0.75030 0.19615 0.01400
H 	H 	0.16295 0.62710 0.21207 0.04800
H 	H 	0.40505 0.86703 0.16085 0.05300
H 	H 	0.37099 0.95602 0.16136 0.04800
H 	H 	0.12042 0.71746 0.20286 0.03900
C 	C 	0.43256 0.20781 0.52052 -0.03700
C 	C 	0.38635 0.05672 0.60078 -0.07800
C 	C 	0.33124 0.08631 0.57646 -0.03900
C 	C 	0.35534 0.16260 0.53658 -0.00900
H 	H 	0.45119 0.26745 0.49010 0.05500
H 	H 	0.36850 0.99770 0.63153 0.09000
H 	H 	0.31359 0.18613 0.51752 0.05700
C 	C 	0.43522 0.24788 0.98679 -0.04400
C 	C 	0.38086 0.15706 0.07750 0.01300
C 	C 	0.32238 0.16986 0.03245 -0.10400
C 	C 	0.35222 0.21948 0.98756 0.03200
H 	H 	0.35978 0.12078 0.11267 0.02800
H 	H 	0.30895 0.23202 0.95273 0.05400
C 	C 	0.42324 0.67802 0.18953 0.02700
C 	C 	0.40379 0.69093 0.69027 0.02800
H 	H 	0.41577 0.77133 0.72025 0.05600
Co	Co	0.03153 0.87467 0.13797 1.18200
O 	O 	0.03845 0.96725 0.25509 -0.31200
O 	O 	0.04854 0.78210 0.09402 -0.40900
C 	C 	0.05239 0.98796 0.46670 0.44600
O 	O 	0.02877 0.01460 0.48377 -0.42300
C 	C 	0.03695 0.00354 0.41145 -0.22200
C 	C 	0.04962 0.00168 0.32496 -0.14200
C 	C 	0.03374 0.01317 0.27018 0.27400
O 	O 	0.02033 0.07355 0.23740 -0.38700
H 	H 	0.45385 0.77713 0.21319 0.05600
H 	H 	0.45712 0.28560 0.95180 0.05600
H 	H 	0.48402 0.85365 0.62697 0.05300
O 	O 	0.99009 0.99579 0.97359 -0.30900
Co	Co	0.97970 0.07330 0.09381 1.17200
O 	O 	0.99598 0.87953 0.99443 -0.36700
O 	O 	0.96976 0.16896 0.13802 -0.40100
C 	C 	0.95357 0.95291 0.76411 0.32800
C 	C 	0.70337 0.27430 0.03488 0.01700
C 	C 	0.61110 0.23243 0.02856 -0.06800
C 	C 	0.58505 0.27526 0.03217 0.02400
C 	C 	0.65021 0.36004 0.04069 -0.06700
C 	C 	0.74179 0.40104 0.04848 0.01900
C 	C 	0.76865 0.35939 0.04446 -0.06500
H 	H 	0.56064 0.16541 0.02345 0.04300
H 	H 	0.62979 0.39274 0.04349 0.05600
H 	H 	0.84003 0.39071 0.05143 0.05100
C 	C 	0.70964 0.27381 0.52617 0.02300
C 	C 	0.61628 0.21860 0.52476 -0.07000
C 	C 	0.58268 0.24173 0.53989 0.03100
C 	C 	0.63998 0.32227 0.55280 -0.07100
C 	C 	0.72992 0.38153 0.54960 0.02600
C 	C 	0.76626 0.35656 0.53819 -0.06700
H 	H 	0.57015 0.15818 0.51215 0.04600
H 	H 	0.61360 0.34027 0.56399 0.05600
H 	H 	0.83784 0.40057 0.53933 0.05000
Co	Co	0.96313 0.92571 0.18567 1.19900
Co	Co	0.90553 0.03814 0.18041 1.15200
C 	C 	0.96522 0.73211 0.09812 0.30700
O 	O 	0.79815 0.99827 0.11985 -0.33200
O 	O 	0.95267 0.00989 0.15121 -0.78500
C 	C 	0.80946 0.05648 0.07651 0.23000
O 	O 	0.99201 0.84330 0.19813 -0.44900
C 	C 	0.79267 0.84224 0.20957 0.31100
O 	O 	0.98117 0.95835 0.10946 -0.55200
C 	C 	0.98619 0.94163 0.96028 0.31400
O 	O 	0.86679 0.07983 0.05459 -0.36900
O 	O 	0.84195 0.91203 0.22657 -0.37300
O 	O 	0.82809 0.83294 0.18959 -0.37300
O 	O 	0.94169 0.75501 0.11760 -0.38100
Co	Co	0.92372 0.92020 0.66998 1.19900
Co	Co	0.97471 0.84224 0.63009 1.18700
Co	Co	0.92293 0.07279 0.66863 1.15400
C 	C 	0.87635 0.71895 0.56071 0.29200
O 	O 	0.94605 0.17853 0.60590 -0.41300
O 	O 	0.95579 0.02526 0.64329 -0.78900
C 	C 	0.91182 0.16727 0.56056 0.29900
O 	O 	0.91636 0.81366 0.68001 -0.45300
C 	C 	0.75077 0.90119 0.65090 0.29400
O 	O 	0.97414 0.96160 0.60397 -0.54600
O 	O 	0.93014 0.13078 0.54807 -0.38900
O 	O 	0.79254 0.98779 0.63379 -0.36400
O 	O 	0.78628 0.86231 0.65774 -0.36300
O 	O 	0.89736 0.97400 0.73485 -0.37400
O 	O 	0.98423 0.93697 0.74452 -0.34900
O 	O 	0.93310 0.78450 0.53125 -0.36800
O 	O 	0.87298 0.73276 0.59693 -0.36500
C 	C 	0.90445 0.86655 0.84528 0.09700
C 	C 	0.97436 0.93947 0.81964 -0.05000
C 	C 	0.96979 0.94950 0.90603 -0.04300
C 	C 	0.90054 0.87246 0.88719 0.09200
Br	Br	0.79822 0.77658 0.91744 -0.19200
Br	Br	0.81441 0.75829 0.82310 -0.20900
C 	C 	0.96912 0.93008 0.38975 0.16000
C 	C 	0.98109 0.92539 0.35075 0.13000
Br	Br	0.91107 0.81245 0.33720 -0.20900
Br	Br	0.85673 0.83978 0.41035 -0.21000
C 	C 	0.52666 0.83090 0.64822 -0.05400
C 	C 	0.49878 0.75253 0.68668 0.02100
C 	C 	0.55434 0.72334 0.71353 -0.05100
C 	C 	0.63412 0.76906 0.69998 0.01700
C 	C 	0.66082 0.84617 0.66055 -0.07300
C 	C 	0.60691 0.87724 0.63503 0.01500
H 	H 	0.53332 0.66271 0.74328 0.05900
H 	H 	0.67529 0.74476 0.72029 0.05800
H 	H 	0.62691 0.93706 0.60479 0.04900
C 	C 	0.57709 0.72096 0.24293 -0.05400
C 	C 	0.51852 0.71906 0.19504 0.02100
C 	C 	0.54718 0.74502 0.15316 -0.05600
C 	C 	0.63457 0.77525 0.15895 0.01800
C 	C 	0.69499 0.78195 0.20642 -0.08000
C 	C 	0.66475 0.75192 0.24864 0.01800
H 	H 	0.55479 0.69852 0.27572 0.05800
H 	H 	0.50169 0.74188 0.11612 0.05300
H 	H 	0.65709 0.79867 0.12603 0.04500
H 	H 	0.71073 0.75680 0.28552 0.06100
C 	C 	0.71140 0.15132 0.53305 -0.06200
C 	C 	0.74893 0.24241 0.51838 0.01700
C 	C 	0.82792 0.30366 0.49984 -0.06000
C 	C 	0.87668 0.27617 0.50477 0.01500
C 	C 	0.84512 0.18684 0.52636 -0.08900
C 	C 	0.75659 0.12398 0.53337 0.00500
H 	H 	0.65016 0.10198 0.54676 0.03400
H 	H 	0.85364 0.37284 0.48357 0.04900
H 	H 	0.94287 0.32554 0.49630 0.03300
H 	H 	0.72742 0.05399 0.54528 0.02400
C 	C 	0.81709 0.49087 0.59945 -0.05700
C 	C 	0.78156 0.47304 0.55229 0.01600
C 	C 	0.77109 0.53374 0.50862 -0.05300
C 	C 	0.79195 0.60913 0.51205 0.01200
C 	C 	0.82836 0.62774 0.55902 -0.07500
C 	C 	0.84002 0.56761 0.60283 0.01200
H 	H 	0.82378 0.44366 0.63359 0.04600
H 	H 	0.74176 0.51979 0.47211 0.05700
H 	H 	0.78204 0.65446 0.47797 0.06100
H 	H 	0.86962 0.58169 0.63932 0.04100
C 	C 	0.48889 0.17954 0.54573 -0.00200
C 	C 	0.46424 0.10270 0.58525 -0.02600
H 	H 	0.50765 0.08086 0.60546 0.02400
C 	C 	0.76371 0.15941 0.01421 -0.00400
C 	C 	0.78762 0.11790 0.06417 -0.07500
C 	C 	0.78462 0.12955 0.10372 0.01500
C 	C 	0.75789 0.18083 0.09376 -0.06700
C 	C 	0.73284 0.22124 0.04423 0.02200
C 	C 	0.73611 0.21093 0.00422 -0.07400
H 	H 	0.76485 0.15076 0.98327 0.04700
H 	H 	0.80282 0.09832 0.14250 -0.01400
H 	H 	0.75596 0.18861 0.12478 0.04300
H 	H 	0.71703 0.24218 0.96567 0.06100
C 	C 	0.82147 0.48701 0.11132 -0.06500
C 	C 	0.80904 0.48571 0.06332 0.02800
C 	C 	0.84400 0.56545 0.02636 -0.07700
C 	C 	0.88933 0.64546 0.03682 0.02800
C 	C 	0.90067 0.64682 0.08451 -0.08800
C 	C 	0.86669 0.56720 0.12178 0.02100
H 	H 	0.79356 0.42551 0.13998 0.04800
H 	H 	0.83352 0.56511 0.98897 0.07600
H 	H 	0.91765 0.70682 0.00821 0.04400
H 	H 	0.87732 0.56765 0.15916 0.03500
C 	C 	0.49072 0.22942 0.03119 0.00300
C 	C 	0.46385 0.18521 0.07676 -0.06200
H 	H 	0.50804 0.17410 0.11170 0.04000
