data_crystal

_cell_length_a 11.43605
_cell_length_b 13.56274
_cell_length_c 28.84725
_cell_angle_alpha 83.18507
_cell_angle_beta  83.18508
_cell_angle_gamma 77.41044

_symmetry_space_group_name_	'P 1'
_symmetry_space_group_name_H-M	'P 1'

loop_
_symmetry_equiv_pos_as_xyz
  x,y,z

loop_
_atom_site_label
_atom_site_type_symbol
_atom_site_fract_x
_atom_site_fract_y
_atom_site_fract_z
_atom_site_charge
Zn	Zn	0.83904 0.16355 0.93620 1.17100
Zn	Zn	0.82126 0.16598 0.03320 1.18900
O 	O 	0.61282 0.10382 0.01242 -0.52900
O 	O 	0.66236 0.17687 0.07134 -0.41300
O 	O 	0.76161 0.86117 0.97654 -0.41400
C 	C 	0.77641 0.02039 0.88167 0.18100
O 	O 	0.84903 0.01900 0.04167 -1.00100
C 	C 	0.71589 0.34407 0.98961 0.39800
O 	O 	0.73708 0.08713 0.91251 -0.44800
O 	O 	0.70825 0.95794 0.87519 -0.10900
O 	O 	0.94787 0.13796 0.98061 -0.77800
O 	O 	0.94223 0.89883 0.94434 -0.40700
O 	O 	0.79934 0.30803 0.01759 -0.52400
O 	O 	0.70798 0.29130 0.95465 -0.44100
Zn	Zn	0.12622 0.78460 0.07719 1.18700
Zn	Zn	0.17810 0.84407 0.97601 1.21600
Zn	Zn	0.99956 0.00136 0.00732 1.16000
C 	C 	0.26297 0.64537 0.00595 0.16600
C 	C 	0.19098 0.91925 0.11890 0.23200
O 	O 	0.06673 0.11336 0.06752 -0.39000
Zn	Zn	0.26055 0.02754 0.01008 1.17600
O 	O 	0.18964 0.70118 0.97757 -0.39100
O 	O 	0.25765 0.67022 0.04919 -0.42700
O 	O 	0.21127 0.82052 0.11994 -0.47100
O 	O 	0.26126 0.96927 0.09051 -0.31400
C 	C 	0.40064 0.90899 0.94675 0.26600
O 	O 	0.04949 0.85997 0.03061 -0.78700
C 	C 	0.15035 0.17399 0.06199 0.25500
O 	O 	0.33358 0.84991 0.93465 -0.38100
O 	O 	0.39622 0.92260 0.99114 -0.41100
O 	O 	0.23744 0.15773 0.02841 -0.45600
O 	O 	0.14889 0.98590 0.97640 -0.79900
Zn	Zn	0.73777 0.98029 0.00860 1.19000
C 	C 	0.58583 0.13412 0.05462 0.29700
C 	C 	0.85785 0.84051 0.94689 0.25900
H 	H 	0.14602 0.02002 0.94411 0.14200
H 	H 	0.85105 0.99061 0.07489 0.21800
Zn	Zn	0.33610 0.66480 0.31791 1.17300
Zn	Zn	0.34448 0.68089 0.22118 1.19600
O 	O 	0.48952 0.83835 0.22951 -0.46900
O 	O 	0.35594 0.81045 0.18326 -0.41500
O 	O 	0.74475 0.67471 0.26080 -0.48300
C 	C 	0.49993 0.74068 0.36661 0.24800
O 	O 	0.51599 0.62941 0.20939 -0.90900
C 	C 	0.13307 0.78440 0.26454 0.28600
O 	O 	0.41722 0.76375 0.33704 -0.42700
O 	O 	0.57118 0.80375 0.36795 -0.15700
O 	O 	0.36122 0.57080 0.27321 -0.76500
O 	O 	0.63463 0.57970 0.31205 -0.41300
O 	O 	0.17300 0.71882 0.23397 -0.44800
O 	O 	0.18097 0.77070 0.30476 -0.40600
Zn	Zn	0.77720 0.38606 0.18458 1.18200
Zn	Zn	0.69901 0.35046 0.28943 1.20100
Zn	Zn	0.52374 0.51089 0.25074 1.21000
C 	C 	0.92779 0.25447 0.25716 0.29300
C 	C 	0.61567 0.33353 0.14162 0.23000
O 	O 	0.39168 0.44244 0.19191 -0.37500
Zn	Zn	0.48475 0.29559 0.25445 1.20800
O 	O 	0.87183 0.31997 0.28612 -0.48600
O 	O 	0.90320 0.26856 0.21294 -0.44900
O 	O 	0.73277 0.31810 0.13956 -0.47500
O 	O 	0.55741 0.27892 0.17358 -0.33600
C 	C 	0.61006 0.16960 0.31908 0.28300
O 	O 	0.69179 0.45250 0.23192 -0.81400
C 	C 	0.31905 0.37212 0.20100 0.25000
O 	O 	0.67255 0.22807 0.33470 -0.42400
O 	O 	0.59903 0.17741 0.27439 -0.47500
O 	O 	0.33132 0.31218 0.23933 -0.44700
O 	O 	0.53123 0.39192 0.28840 -0.91100
Zn	Zn	0.61238 0.71478 0.22452 1.18500
C 	C 	0.42387 0.86872 0.19436 0.28000
C 	C 	0.72377 0.63406 0.30350 0.25400
H 	H 	0.48719 0.40003 0.31987 0.18900
H 	H 	0.53669 0.61181 0.17665 0.15000
C 	C 	0.25086 0.33778 0.16401 0.05600
N 	N 	0.19027 0.26031 0.17743 -0.05400
N 	N 	0.14897 0.21392 0.14583 -0.05800
C 	C 	0.16399 0.24388 0.09918 0.05300
N 	N 	0.22025 0.32434 0.08578 -0.06400
N 	N 	0.26208 0.37066 0.11752 -0.06700
C 	C 	0.42826 0.99208 0.91286 0.07000
N 	N 	0.46237 0.07191 0.92786 -0.10700
N 	N 	0.50557 0.13931 0.89695 -0.05200
C 	C 	0.52107 0.12526 0.85072 0.01000
N 	N 	0.47041 0.05459 0.83556 -0.08000
N 	N 	0.42255 0.98974 0.86638 -0.02200
C 	C 	0.07946 0.88651 0.24588 0.11500
N 	N 	0.99291 0.89450 0.21638 -0.11800
N 	N 	0.01110 0.93504 0.17236 -0.06200
C 	C 	0.11572 0.96666 0.15840 0.06700
N 	N 	0.17221 0.99386 0.19221 -0.02700
N 	N 	0.15366 0.95371 0.23636 -0.04800
C 	C 	0.60871 0.40951 0.01034 -0.03300
N 	N 	0.51773 0.36315 0.02903 -0.05500
N 	N 	0.49479 0.35242 0.07569 -0.04600
C 	C 	0.55528 0.39637 0.10250 0.03900
N 	N 	0.60470 0.47484 0.08132 -0.10300
N 	N 	0.62964 0.48247 0.03480 -0.06500
C 	C 	0.78576 0.66840 0.84254 0.04900
N 	N 	0.85438 0.74078 0.83079 -0.06200
N 	N 	0.89037 0.78705 0.86386 -0.06300
C 	C 	0.85746 0.76468 0.91029 0.05500
N 	N 	0.79631 0.68703 0.92214 -0.05700
N 	N 	0.76326 0.63860 0.88901 -0.06500
C 	C 	0.96832 0.15168 0.77773 -0.02600
N 	N 	0.91180 0.08058 0.76706 -0.06700
N 	N 	0.86612 0.02133 0.80139 -0.07200
C 	C 	0.87660 0.03277 0.84668 0.02600
N 	N 	0.95867 0.08483 0.85578 -0.17000
N 	N 	0.00881 0.14008 0.82087 -0.02000
C 	C 	0.37703 0.59474 0.98381 0.11900
N 	N 	0.37260 0.55375 0.94345 -0.07100
N 	N 	0.42481 0.59143 0.90345 -0.13200
C 	C 	0.49522 0.65951 0.90488 0.03000
N 	N 	0.53062 0.67070 0.94696 -0.04200
N 	N 	0.47257 0.63708 0.98639 -0.05800
C 	C 	0.46119 0.94065 0.15813 0.06700
N 	N 	0.49421 0.91230 0.11437 -0.09000
N 	N 	0.51729 0.97992 0.07938 -0.07900
C 	C 	0.51605 0.07630 0.08763 -0.04100
N 	N 	0.48137 0.10531 0.13149 -0.04200
N 	N 	0.45232 0.03851 0.16623 -0.08900
Zn	Zn	0.83904 0.16355 0.43620 1.16500
Zn	Zn	0.82126 0.16598 0.53320 1.19500
O 	O 	0.61282 0.10382 0.51242 -0.50500
O 	O 	0.66236 0.17687 0.57134 -0.41000
O 	O 	0.76161 0.86118 0.47654 -0.44000
C 	C 	0.77641 0.02039 0.38167 0.18200
O 	O 	0.84903 0.01900 0.54167 -0.98800
C 	C 	0.71589 0.34407 0.48961 0.27900
O 	O 	0.73708 0.08713 0.41251 -0.45800
O 	O 	0.70825 0.95794 0.37519 -0.11100
O 	O 	0.94787 0.13796 0.48061 -0.81400
O 	O 	0.94223 0.89883 0.44434 -0.42100
O 	O 	0.79934 0.30803 0.51759 -0.46000
O 	O 	0.70798 0.29130 0.45465 -0.43300
Zn	Zn	0.12622 0.78460 0.57719 1.19100
Zn	Zn	0.17811 0.84407 0.47601 1.20900
Zn	Zn	0.99956 0.00136 0.50732 1.17700
C 	C 	0.26297 0.64537 0.50595 0.28400
C 	C 	0.19098 0.91925 0.61891 0.23200
O 	O 	0.06673 0.11336 0.56752 -0.38200
Zn	Zn	0.26055 0.02754 0.51008 1.19300
O 	O 	0.18964 0.70118 0.47757 -0.45300
O 	O 	0.25765 0.67022 0.54919 -0.43700
O 	O 	0.21127 0.82052 0.61994 -0.46600
O 	O 	0.26126 0.96927 0.59051 -0.30600
C 	C 	0.40064 0.90899 0.44675 0.26800
O 	O 	0.04949 0.85997 0.53061 -0.75900
C 	C 	0.15035 0.17399 0.56199 0.25600
O 	O 	0.33358 0.84991 0.43465 -0.38500
O 	O 	0.39622 0.92260 0.49114 -0.44100
O 	O 	0.23744 0.15773 0.52841 -0.43800
O 	O 	0.14889 0.98590 0.47640 -0.82900
Zn	Zn	0.73777 0.98029 0.50860 1.20400
C 	C 	0.58583 0.13412 0.55462 0.29700
C 	C 	0.85785 0.84051 0.44689 0.25800
H 	H 	0.14602 0.02002 0.44411 0.14400
H 	H 	0.85105 0.99061 0.57489 0.21700
Zn	Zn	0.33610 0.66480 0.81791 1.17300
Zn	Zn	0.34448 0.68089 0.72118 1.19600
O 	O 	0.48952 0.83835 0.72951 -0.46900
O 	O 	0.35594 0.81045 0.68325 -0.41300
O 	O 	0.74475 0.67471 0.76080 -0.48200
C 	C 	0.49993 0.74068 0.86661 0.24900
O 	O 	0.51599 0.62941 0.70939 -0.90900
C 	C 	0.13306 0.78441 0.76454 0.28600
O 	O 	0.41722 0.76375 0.83704 -0.42700
O 	O 	0.57119 0.80375 0.86795 -0.15700
O 	O 	0.36122 0.57080 0.77321 -0.76400
O 	O 	0.63463 0.57970 0.81205 -0.41100
O 	O 	0.17300 0.71882 0.73397 -0.44700
O 	O 	0.18097 0.77070 0.80476 -0.40600
Zn	Zn	0.77720 0.38606 0.68458 1.18300
Zn	Zn	0.69901 0.35046 0.78943 1.20100
Zn	Zn	0.52374 0.51089 0.75074 1.21000
C 	C 	0.92779 0.25447 0.75716 0.29300
C 	C 	0.61567 0.33353 0.64162 0.23000
O 	O 	0.39168 0.44244 0.69191 -0.37400
Zn	Zn	0.48475 0.29559 0.75445 1.20900
O 	O 	0.87183 0.31997 0.78612 -0.48400
O 	O 	0.90320 0.26856 0.71294 -0.44900
O 	O 	0.73277 0.31810 0.63956 -0.47400
O 	O 	0.55741 0.27892 0.67358 -0.33600
C 	C 	0.61006 0.16960 0.81908 0.28300
O 	O 	0.69179 0.45250 0.73193 -0.81300
C 	C 	0.31905 0.37212 0.70100 0.25100
O 	O 	0.67255 0.22807 0.83470 -0.42100
O 	O 	0.59903 0.17741 0.77439 -0.47500
O 	O 	0.33131 0.31218 0.73933 -0.44700
O 	O 	0.53123 0.39192 0.78840 -0.91100
Zn	Zn	0.61238 0.71478 0.72452 1.18600
C 	C 	0.42387 0.86872 0.69436 0.28000
C 	C 	0.72377 0.63406 0.80350 0.25400
H 	H 	0.48719 0.40003 0.81987 0.19100
H 	H 	0.53669 0.61181 0.67665 0.15200
C 	C 	0.25086 0.33778 0.66401 0.05600
N 	N 	0.19027 0.26031 0.67743 -0.05400
N 	N 	0.14897 0.21392 0.64583 -0.05900
C 	C 	0.16399 0.24388 0.59918 0.05600
N 	N 	0.22025 0.32434 0.58578 -0.05900
N 	N 	0.26208 0.37066 0.61752 -0.06500
C 	C 	0.42826 0.99208 0.41286 0.06500
N 	N 	0.46237 0.07191 0.42786 -0.11500
N 	N 	0.50557 0.13931 0.39695 -0.05700
C 	C 	0.52107 0.12526 0.35072 0.00900
N 	N 	0.47041 0.05459 0.33556 -0.08000
N 	N 	0.42255 0.98974 0.36638 -0.02200
C 	C 	0.07946 0.88651 0.74588 0.11400
N 	N 	0.99291 0.89450 0.71638 -0.11700
N 	N 	0.01110 0.93504 0.67236 -0.06200
C 	C 	0.11572 0.96667 0.65840 0.06700
N 	N 	0.17221 0.99386 0.69222 -0.02700
N 	N 	0.15366 0.95371 0.73636 -0.04800
C 	C 	0.60871 0.40951 0.51034 0.04700
N 	N 	0.51773 0.36315 0.52903 -0.05500
N 	N 	0.49479 0.35242 0.57569 -0.04300
C 	C 	0.55528 0.39637 0.60250 0.03900
N 	N 	0.60469 0.47484 0.58132 -0.09800
N 	N 	0.62964 0.48247 0.53480 -0.06300
C 	C 	0.78576 0.66840 0.34254 0.04700
N 	N 	0.85438 0.74078 0.33079 -0.06300
N 	N 	0.89037 0.78705 0.36386 -0.06300
C 	C 	0.85746 0.76468 0.41029 0.05000
N 	N 	0.79631 0.68703 0.42214 -0.06300
N 	N 	0.76326 0.63861 0.38901 -0.06800
C 	C 	0.96832 0.15168 0.27773 -0.02800
N 	N 	0.91180 0.08058 0.26706 -0.06700
N 	N 	0.86612 0.02133 0.30139 -0.07200
C 	C 	0.87660 0.03277 0.34669 0.02500
N 	N 	0.95867 0.08483 0.35578 -0.17200
N 	N 	0.00881 0.14008 0.32087 -0.02000
C 	C 	0.37703 0.59474 0.48381 0.04000
N 	N 	0.37260 0.55375 0.44345 -0.06800
N 	N 	0.42481 0.59143 0.40345 -0.13500
C 	C 	0.49522 0.65951 0.40488 0.03000
N 	N 	0.53062 0.67070 0.44696 -0.04800
N 	N 	0.47257 0.63708 0.48639 -0.06200
C 	C 	0.46119 0.94065 0.65813 0.06800
N 	N 	0.49421 0.91230 0.61437 -0.08600
N 	N 	0.51729 0.97992 0.57938 -0.07300
C 	C 	0.51605 0.07630 0.58763 -0.03800
N 	N 	0.48137 0.10531 0.63149 -0.04200
N 	N 	0.45232 0.03851 0.66624 -0.08900
