data_crystal

_cell_length_a 45.03697
_cell_length_b 38.55041
_cell_length_c 27.12846
_cell_angle_alpha 89.94668
_cell_angle_beta  89.93199
_cell_angle_gamma 90.50840

_symmetry_space_group_name_	'P 1'
_symmetry_space_group_name_H-M	'P 1'

loop_
_symmetry_equiv_pos_as_xyz
  x,y,z

loop_
_atom_site_label
_atom_site_type_symbol
_atom_site_fract_x
_atom_site_fract_y
_atom_site_fract_z
_atom_site_charge
Zn	Zn	0.48952 0.49447 0.01798 1.21800
C 	C 	0.50332 0.56753 0.01063 0.29000
O 	O 	0.51706 0.47829 0.06879 -0.47700
O 	O 	0.48383 0.57124 0.04637 -0.44900
O 	O 	0.52540 0.52982 0.10649 -0.49700
C 	C 	0.43261 0.51507 0.05201 0.32100
O 	O 	0.44988 0.51348 0.01315 -0.45800
O 	O 	0.44435 0.51690 0.09624 -0.50600
C 	C 	0.53534 0.50004 0.09046 0.31900
O 	O 	0.46609 0.43969 0.01824 -0.34000
Zn	Zn	0.48299 0.53905 0.10713 1.16900
O 	O 	0.51139 0.53633 0.99635 -0.41800
C 	C 	0.47991 0.43455 0.97696 0.29200
O 	O 	0.49670 0.45995 0.96199 -0.38100
Zn	Zn	0.41930 0.06501 0.00159 1.21700
C 	C 	0.36026 0.03509 0.01129 0.30900
O 	O 	0.44106 0.05495 0.06285 -0.46200
O 	O 	0.37112 0.00562 0.99540 -0.43800
O 	O 	0.41077 0.00988 0.08377 -0.49200
C 	C 	0.42883 0.01573 0.92468 0.31500
O 	O 	0.41438 0.04395 0.93669 -0.44900
O 	O 	0.43418 0.99198 0.95815 -0.50300
C 	C 	0.43117 0.03279 0.09601 0.30100
O 	O 	0.46237 0.09289 0.96931 -0.32700
Zn	Zn	0.41175 0.98824 0.01919 1.16600
O 	O 	0.37827 0.06007 0.02582 -0.43900
C 	C 	0.44772 0.12122 0.97680 0.29800
O 	O 	0.42146 0.11744 0.99532 -0.38100
C 	C 	0.53548 0.99136 0.32825 0.14300
C 	C 	0.51058 0.00325 0.30238 -0.11600
H 	H 	0.49093 0.01116 0.32238 0.07400
C 	C 	0.51129 0.00526 0.25079 0.07500
C 	C 	0.53677 0.99511 0.22515 -0.10800
C 	C 	0.56160 0.98310 0.25081 0.07400
C 	C 	0.56091 0.98102 0.30238 -0.11900
H 	H 	0.58015 0.97194 0.32239 0.07300
N 	N 	0.53521 0.99061 0.38123 -0.18100
C 	C 	0.52705 0.96064 0.40524 0.19000
C 	C 	0.52700 0.95931 0.45712 -0.06100
C 	C 	0.53523 0.98902 0.48397 0.02900
C 	C 	0.54340 0.01955 0.45887 -0.05900
C 	C 	0.54330 0.01983 0.40697 0.19200
C 	C 	0.51888 0.92877 0.48246 -0.01300
C 	C 	0.51901 0.92793 0.53402 -0.01300
C 	C 	0.52723 0.95764 0.56110 -0.06000
C 	C 	0.53530 0.98820 0.53600 0.02900
C 	C 	0.54346 0.01794 0.56284 -0.05800
C 	C 	0.55157 0.04927 0.48595 -0.01300
C 	C 	0.55159 0.04848 0.53750 -0.01300
C 	C 	0.52749 0.95731 0.61301 0.19000
N 	N 	0.53543 0.98659 0.63874 -0.18100
C 	C 	0.54334 0.01664 0.61471 0.19200
C 	C 	0.53535 0.98583 0.69171 0.14500
C 	C 	0.50932 0.99366 0.71777 -0.11800
C 	C 	0.50946 0.99384 0.76943 0.07200
C 	C 	0.53546 0.98556 0.79497 -0.10400
C 	C 	0.56143 0.97748 0.76911 0.07400
C 	C 	0.56143 0.97780 0.71744 -0.11900
O 	O 	0.55108 0.04826 0.38297 -0.20500
O 	O 	0.51925 0.93300 0.37960 -0.20400
O 	O 	0.52009 0.92876 0.63702 -0.20400
O 	O 	0.55082 0.04441 0.64034 -0.20300
H 	H 	0.58155 0.97191 0.69728 0.07400
H 	H 	0.48922 0.99994 0.69786 0.07300
H 	H 	0.55791 0.07304 0.46723 0.04900
H 	H 	0.55795 0.07165 0.55758 0.05000
H 	H 	0.51248 0.90561 0.46238 0.04900
H 	H 	0.51270 0.90415 0.55274 0.04900
H 	H 	0.53554 0.98560 0.83496 0.06200
H 	H 	0.53730 0.99663 0.18522 0.05700
Zn	Zn	0.65321 0.91673 0.00537 1.21800
C 	C 	0.71211 0.94747 0.01237 0.31400
O 	O 	0.63207 0.92971 0.06624 -0.46100
O 	O 	0.70083 0.97536 0.99213 -0.44000
O 	O 	0.66220 0.97599 0.08154 -0.49500
C 	C 	0.64299 0.96220 0.92399 0.31300
O 	O 	0.65770 0.93474 0.93844 -0.44700
O 	O 	0.63758 0.98735 0.95521 -0.50100
C 	C 	0.64207 0.95360 0.09668 0.30200
O 	O 	0.60949 0.88855 0.97704 -0.33000
Zn	Zn	0.66055 0.99430 0.01498 1.16700
O 	O 	0.69450 0.92239 0.02808 -0.43700
C 	C 	0.62379 0.86017 0.98588 0.31000
O 	O 	0.65018 0.86401 0.00380 -0.39800
Zn	Zn	0.10351 0.57516 0.98391 1.22400
C 	C 	0.06453 0.63345 0.96806 0.32100
O 	O 	0.09407 0.55506 0.04934 -0.45900
O 	O 	0.04373 0.61161 0.95352 -0.45200
O 	O 	0.04899 0.58063 0.05302 -0.49900
C 	C 	0.07013 0.54664 0.90400 0.31500
O 	O 	0.09141 0.56869 0.91526 -0.44300
O 	O 	0.05297 0.53415 0.93886 -0.50900
C 	C 	0.07092 0.56493 0.07515 0.30200
O 	O 	0.13894 0.53096 0.97118 -0.32000
Zn	Zn	0.03679 0.56477 0.98862 1.17300
O 	O 	0.08760 0.62208 0.99284 -0.43300
C 	C 	0.15837 0.55545 0.97852 0.30100
O 	O 	0.14770 0.58574 0.98786 -0.38300
C 	C 	0.97111 0.50965 0.66687 0.14600
C 	C 	0.99701 0.51881 0.69261 -0.11800
H 	H 	0.01760 0.52304 0.67270 0.07400
C 	C 	0.99624 0.52241 0.74395 0.07400
C 	C 	0.96959 0.51675 0.76954 -0.10400
C 	C 	0.94374 0.50724 0.74402 0.07300
C 	C 	0.94451 0.50371 0.69261 -0.11800
H 	H 	0.92462 0.49621 0.67270 0.07400
N 	N 	0.97192 0.50609 0.61418 -0.18000
C 	C 	0.98091 0.47535 0.59380 0.19000
C 	C 	0.98302 0.47185 0.54228 -0.06000
C 	C 	0.97547 0.50001 0.51202 0.03100
C 	C 	0.96581 0.53113 0.53341 -0.06100
C 	C 	0.96418 0.53371 0.58508 0.19100
C 	C 	0.99272 0.44074 0.52066 -0.01300
C 	C 	0.99501 0.43790 0.46941 -0.01200
C 	C 	0.98758 0.46609 0.43893 -0.06100
C 	C 	0.97769 0.49711 0.46030 0.03100
C 	C 	0.97010 0.52526 0.43005 -0.06100
C 	C 	0.95812 0.55921 0.50291 -0.01300
C 	C 	0.96023 0.55629 0.45165 -0.01300
C 	C 	0.98997 0.46383 0.38729 0.19100
N 	N 	0.98257 0.49159 0.35822 -0.17900
C 	C 	0.97260 0.52193 0.37856 0.19000
C 	C 	0.98537 0.48890 0.30561 0.13900
C 	C 	0.01085 0.50190 0.28194 -0.11200
C 	C 	0.01294 0.50091 0.23043 0.06400
C 	C 	0.98975 0.48632 0.20273 -0.08600
C 	C 	0.96409 0.47375 0.22618 0.03400
C 	C 	0.96197 0.47490 0.27769 -0.09900
O 	O 	0.95541 0.56286 0.60565 -0.20500
O 	O 	0.98772 0.44904 0.62263 -0.20100
O 	O 	0.99947 0.43499 0.36675 -0.20200
O 	O 	0.96533 0.54805 0.34972 -0.20500
H 	H 	0.94202 0.46561 0.29599 0.06900
H 	H 	0.02857 0.51351 0.30350 0.07200
H 	H 	0.95055 0.58335 0.51875 0.04900
H 	H 	0.95424 0.57824 0.42889 0.04800
H 	H 	0.99858 0.41874 0.54342 0.05000
H 	H 	0.00259 0.41376 0.45357 0.04900
H 	H 	0.99110 0.48620 0.16280 0.04800
H 	H 	0.96911 0.51908 0.80938 0.05400
Zn	Zn	0.86049 0.42273 0.98263 1.22200
C 	C 	0.80798 0.46146 0.00728 0.32500
O 	O 	0.87549 0.44047 0.91905 -0.45700
O 	O 	0.82557 0.48532 0.02617 -0.45400
O 	O 	0.85281 0.49250 0.92591 -0.49000
C 	C 	0.88592 0.45393 0.06855 0.34800
O 	O 	0.86632 0.43104 0.05311 -0.46500
O 	O 	0.89290 0.48068 0.04081 -0.52600
C 	C 	0.86689 0.46972 0.89900 0.30400
O 	O 	0.90262 0.38683 0.98616 -0.33000
Zn	Zn	0.86509 0.49995 0.99349 1.17300
O 	O 	0.81872 0.43708 0.97865 -0.42500
C 	C 	0.88423 0.36184 0.97595 0.29700
O 	O 	0.85678 0.37060 0.97033 -0.38000
Zn	Zn	0.02438 0.01937 0.03655 1.22100
C 	C 	0.03767 0.94662 0.02490 0.32500
O 	O 	0.99280 0.01956 0.08645 -0.47400
O 	O 	0.05552 0.95042 0.06284 -0.45200
O 	O 	0.00198 0.96727 0.12083 -0.49600
C 	C 	0.08360 0.02457 0.07292 0.34800
O 	O 	0.06743 0.02124 0.03307 -0.45600
O 	O 	0.07225 0.01703 0.11622 -0.50900
C 	C 	0.98304 0.99051 0.10577 0.33800
O 	O 	0.02585 0.08045 0.03881 -0.33600
Zn	Zn	0.04407 0.97864 0.12437 1.17000
O 	O 	0.01945 0.97156 0.01210 -0.43800
C 	C 	0.01167 0.07896 0.99725 0.29100
O 	O 	0.00613 0.04794 0.98105 -0.37800
C 	C 	0.99663 0.10963 0.97711 -0.07600
C 	C 	0.00942 0.14267 0.98330 0.01400
C 	C 	0.99310 0.17235 0.97244 -0.06100
C 	C 	0.96383 0.16930 0.95525 0.02800
C 	C 	0.95160 0.13629 0.94632 -0.06200
C 	C 	0.96797 0.10655 0.95704 0.01500
C 	C 	0.94521 0.20046 0.95112 0.00100
C 	C 	0.92117 0.20499 0.98341 -0.02800
C 	C 	0.90640 0.23673 0.98504 -0.02100
C 	C 	0.91553 0.26407 0.95435 -0.00700
C 	C 	0.93855 0.25903 0.92036 -0.03100
C 	C 	0.95334 0.22731 0.91870 -0.03800
C 	C 	0.90347 0.29820 0.96129 0.04800
C 	C 	0.89420 0.32708 0.96775 -0.09400
H 	H 	0.03166 0.14537 0.99806 0.04200
H 	H 	0.00280 0.19773 0.97914 0.04900
H 	H 	0.92913 0.13368 0.93253 0.04900
H 	H 	0.95789 0.08120 0.95181 0.04300
H 	H 	0.91469 0.18441 0.00855 0.03100
H 	H 	0.88855 0.24040 0.01128 0.03100
H 	H 	0.94563 0.28002 0.89635 0.04300
H 	H 	0.97171 0.22397 0.89338 0.04200
C 	C 	0.87878 0.47989 0.85020 -0.07100
C 	C 	0.88994 0.45448 0.81829 -0.00500
C 	C 	0.90871 0.46392 0.77941 -0.02900
C 	C 	0.91639 0.49885 0.77183 -0.04900
C 	C 	0.90166 0.52483 0.79913 0.08200
C 	C 	0.88314 0.51512 0.83863 -0.05400
H 	H 	0.91905 0.44388 0.75748 0.04300
H 	H 	0.87327 0.53496 0.86154 0.03400
H 	H 	0.88555 0.42725 0.82537 0.04600
N 	N 	0.90552 0.55896 0.78797 -0.19800
H 	H 	0.91765 0.56672 0.75695 0.09000
H 	H 	0.89548 0.57810 0.80938 0.07700
C 	C 	0.93852 0.46251 0.19627 0.04200
C 	C 	0.91457 0.48494 0.18956 -0.08800
C 	C 	0.89463 0.47941 0.15091 0.04800
C 	C 	0.89846 0.45140 0.11857 -0.15400
C 	C 	0.91988 0.42591 0.12992 0.15100
C 	C 	0.94037 0.43221 0.16797 -0.12200
H 	H 	0.87759 0.49843 0.14372 0.01100
H 	H 	0.95822 0.41409 0.17455 0.06300
H 	H 	0.91263 0.50802 0.21206 0.05300
N 	N 	0.92079 0.39550 0.10472 -0.21000
H 	H 	0.90327 0.38775 0.08211 0.10400
H 	H 	0.93803 0.37802 0.11068 0.08900
C 	C 	0.06094 0.67107 0.95969 -0.09900
C 	C 	0.04012 0.68318 0.92524 0.01800
C 	C 	0.03558 0.71881 0.91949 -0.06900
C 	C 	0.05193 0.74264 0.94781 0.02500
C 	C 	0.07328 0.73063 0.98117 -0.05700
C 	C 	0.07779 0.69508 0.98709 0.03000
C 	C 	0.04539 0.77999 0.94517 0.00300
C 	C 	0.06770 0.80363 0.93102 -0.03900
C 	C 	0.06386 0.83916 0.93878 -0.03200
C 	C 	0.03770 0.85124 0.96060 -0.00500
C 	C 	0.01446 0.82792 0.97094 -0.03300
C 	C 	0.01827 0.79239 0.96323 -0.03900
C 	C 	0.03687 0.88583 0.98041 0.04700
C 	C 	0.03685 0.91407 0.99942 -0.09800
H 	H 	0.02734 0.66504 0.90316 0.02900
H 	H 	0.01914 0.72787 0.89347 0.04600
H 	H 	0.08592 0.74887 0.00333 0.03600
H 	H 	0.09395 0.68624 0.01373 0.02900
H 	H 	0.08854 0.79435 0.91631 0.04200
H 	H 	0.08184 0.85706 0.93026 0.04200
H 	H 	0.99406 0.83709 0.98745 0.04200
H 	H 	0.00079 0.77437 0.97380 0.04000
C 	C 	0.06102 0.54229 0.85253 -0.06900
C 	C 	0.05787 0.50881 0.83314 -0.00700
C 	C 	0.03946 0.50295 0.79256 -0.02800
C 	C 	0.02360 0.53042 0.77164 -0.05100
C 	C 	0.03000 0.56484 0.78667 0.08500
C 	C 	0.04883 0.57050 0.82721 -0.05200
H 	H 	0.03543 0.47660 0.78020 0.04200
H 	H 	0.05218 0.59660 0.84118 0.05100
H 	H 	0.06789 0.48697 0.85175 0.03800
N 	N 	0.01752 0.59231 0.76331 -0.19800
H 	H 	0.00457 0.58891 0.73176 0.09200
H 	H 	0.02147 0.61758 0.77576 0.08400
C 	C 	0.06626 0.55131 0.12525 -0.07300
C 	C 	0.05059 0.57113 0.15972 -0.00900
C 	C 	0.03645 0.55496 0.19951 -0.03200
C 	C 	0.03761 0.51880 0.20481 -0.04800
C 	C 	0.05758 0.49975 0.17528 0.08300
C 	C 	0.07166 0.51619 0.13520 -0.05400
H 	H 	0.02220 0.57004 0.22334 0.04100
H 	H 	0.08510 0.50113 0.11003 0.04800
H 	H 	0.04739 0.59862 0.15351 0.03700
N 	N 	0.06261 0.46564 0.18444 -0.19800
H 	H 	0.05358 0.45341 0.21547 0.09100
H 	H 	0.07649 0.45132 0.16140 0.08300
C 	C 	0.74423 0.94611 0.02257 -0.12000
C 	C 	0.75466 0.92900 0.06483 0.03200
C 	C 	0.78475 0.93075 0.07725 -0.08100
C 	C 	0.80470 0.94947 0.04746 0.04400
C 	C 	0.79449 0.96565 0.00444 -0.11000
C 	C 	0.76440 0.96399 0.99203 0.05900
C 	C 	0.83605 0.95323 0.06219 -0.00700
C 	C 	0.85852 0.93886 0.03299 -0.03800
C 	C 	0.88834 0.94470 0.04486 -0.03300
C 	C 	0.89587 0.96495 0.08595 -0.01100
C 	C 	0.87346 0.97857 0.11591 -0.03300
C 	C 	0.84361 0.97269 0.10412 -0.03800
C 	C 	0.92649 0.97381 0.09511 0.05400
C 	C 	0.95225 0.98140 0.10109 -0.12300
H 	H 	0.73935 0.91518 0.08880 0.03500
H 	H 	0.79250 0.91799 0.11037 0.05000
H 	H 	0.80978 0.98004 0.98110 0.06500
H 	H 	0.75672 0.97696 0.95904 0.02500
H 	H 	0.85288 0.92364 0.00072 0.03800
H 	H 	0.90557 0.93407 0.02157 0.03900
H 	H 	0.87912 0.99426 0.14772 0.03700
H 	H 	0.82640 0.98388 0.12689 0.03800
C 	C 	0.62909 0.96288 0.87493 -0.06400
C 	C 	0.62744 0.99427 0.84898 -0.00900
C 	C 	0.60758 0.99773 0.80984 -0.03000
C 	C 	0.58889 0.97000 0.79660 -0.04900
C 	C 	0.59315 0.93705 0.81852 0.09000
C 	C 	0.61329 0.93378 0.85780 -0.04900
H 	H 	0.60506 0.02280 0.79229 0.04300
H 	H 	0.61545 0.90909 0.87654 0.05900
H 	H 	0.64031 0.01659 0.86096 0.03400
N 	N 	0.57764 0.90879 0.80265 -0.19800
H 	H 	0.56373 0.91011 0.77194 0.09400
H 	H 	0.58011 0.88481 0.82012 0.08900
C 	C 	0.62716 0.95885 0.14466 -0.07000
C 	C 	0.60950 0.93234 0.16514 -0.00800
C 	C 	0.59032 0.93951 0.20425 -0.02900
C 	C 	0.58846 0.97325 0.22322 -0.05000
C 	C 	0.60880 0.99899 0.20682 0.08200
C 	C 	0.62796 0.99160 0.16736 -0.05600
H 	H 	0.57537 0.91939 0.21755 0.03900
H 	H 	0.64255 0.01178 0.15316 0.03800
H 	H 	0.60962 0.90655 0.14932 0.04300
N 	N 	0.60963 0.03090 0.22813 -0.19700
H 	H 	0.59672 0.03654 0.25905 0.09300
H 	H 	0.62398 0.05017 0.21473 0.08000
C 	C 	0.32785 0.03901 0.01690 -0.10400
C 	C 	0.31638 0.06235 0.05171 0.01900
C 	C 	0.28573 0.06467 0.05893 -0.06400
C 	C 	0.26624 0.04374 0.03146 0.01200
C 	C 	0.27761 0.02095 0.99598 -0.05500
C 	C 	0.30825 0.01862 0.98867 0.02700
C 	C 	0.23403 0.04470 0.04112 0.00900
C 	C 	0.21438 0.05493 0.00382 -0.05400
C 	C 	0.18373 0.05351 0.01192 -0.03900
C 	C 	0.17254 0.04191 0.05732 -0.01000
C 	C 	0.19215 0.03259 0.09506 -0.03100
C 	C 	0.22280 0.03399 0.08702 -0.04500
C 	C 	0.14107 0.03683 0.06374 0.05300
C 	C 	0.11478 0.03173 0.06842 -0.12400
H 	H 	0.33119 0.07821 0.07383 0.03900
H 	H 	0.27713 0.08246 0.08624 0.04700
H 	H 	0.26271 0.00471 0.97456 0.04700
H 	H 	0.31674 0.00084 0.96127 0.03300
H 	H 	0.22285 0.06348 0.96840 0.05300
H 	H 	0.16869 0.06075 0.98258 0.05200
H 	H 	0.18365 0.02356 0.13023 0.03500
H 	H 	0.23780 0.02605 0.11604 0.03900
C 	C 	0.44262 0.01275 0.87567 -0.06300
C 	C 	0.44437 0.98021 0.85289 -0.00800
C 	C 	0.46397 0.97508 0.81371 -0.03100
C 	C 	0.48231 0.00230 0.79726 -0.04400
C 	C 	0.47803 0.03616 0.81610 0.09000
C 	C 	0.45812 0.04110 0.85540 -0.04800
H 	H 	0.46653 0.94927 0.79858 0.04000
H 	H 	0.45590 0.06661 0.87170 0.05900
H 	H 	0.43174 0.95839 0.86732 0.03100
N 	N 	0.49334 0.06374 0.79735 -0.19800
H 	H 	0.50715 0.06111 0.76667 0.09600
H 	H 	0.49082 0.08845 0.81255 0.09000
C 	C 	0.44637 0.03000 0.14419 -0.06800
C 	C 	0.44319 0.99977 0.17275 -0.01700
C 	C 	0.46249 0.99356 0.21197 -0.03200
C 	C 	0.48519 0.01739 0.22308 -0.04900
C 	C 	0.48590 0.04992 0.19884 0.08600
C 	C 	0.46657 0.05588 0.15916 -0.04900
H 	H 	0.46120 0.96902 0.23140 0.03700
H 	H 	0.46787 0.08022 0.13917 0.05500
H 	H 	0.42690 0.98014 0.16291 0.02700
N 	N 	0.50530 0.07520 0.21309 -0.19800
H 	H 	0.51864 0.07219 0.24423 0.09200
H 	H 	0.50648 0.09872 0.19394 0.08400
C 	C 	0.48084 0.39994 0.95436 -0.08000
C 	C 	0.45464 0.38016 0.95091 0.01600
C 	C 	0.45593 0.34475 0.94039 -0.06200
C 	C 	0.48347 0.32873 0.93333 0.02600
C 	C 	0.50955 0.34899 0.93328 -0.06300
C 	C 	0.50822 0.38453 0.94360 0.01600
C 	C 	0.48516 0.29050 0.93226 0.00700
C 	C 	0.46940 0.27165 0.89642 -0.04200
C 	C 	0.46549 0.23579 0.90159 -0.02800
C 	C 	0.47741 0.21855 0.94245 -0.01100
C 	C 	0.49498 0.23693 0.97629 -0.01300
C 	C 	0.49887 0.27279 0.97122 -0.04600
C 	C 	0.46815 0.18351 0.95342 0.04900
C 	C 	0.45938 0.15474 0.96364 -0.09600
H 	H 	0.43335 0.39190 0.95856 0.03700
H 	H 	0.43565 0.32941 0.94016 0.05000
H 	H 	0.53090 0.33697 0.92725 0.04800
H 	H 	0.52859 0.39960 0.94591 0.03800
H 	H 	0.45905 0.28499 0.86586 0.04200
H 	H 	0.45209 0.22170 0.87502 0.04100
H 	H 	0.50446 0.22375 0.00778 0.02600
H 	H 	0.51122 0.28703 0.99897 0.04600
C 	C 	0.40009 0.51580 0.04584 -0.08500
C 	C 	0.38230 0.53338 0.08008 0.00900
C 	C 	0.35174 0.53626 0.07221 -0.05800
C 	C 	0.33868 0.52154 0.03011 0.00400
C 	C 	0.35627 0.50311 0.99662 -0.02600
C 	C 	0.38682 0.50022 0.00444 -0.01700
C 	C 	0.30689 0.52687 0.01989 0.00700
C 	C 	0.28718 0.49847 0.01864 -0.04400
C 	C 	0.25704 0.50364 0.00894 -0.02900
C 	C 	0.24646 0.53720 0.00037 -0.01500
C 	C 	0.26615 0.56554 0.00132 -0.04300
C 	C 	0.29626 0.56041 0.01102 -0.04000
C 	C 	0.21529 0.54276 0.99201 0.06000
C 	C 	0.18926 0.54814 0.98550 -0.09600
H 	H 	0.39221 0.54553 0.11215 0.02200
H 	H 	0.33828 0.55034 0.09843 0.04200
H 	H 	0.34636 0.49156 0.96411 0.04300
H 	H 	0.40021 0.48611 0.97814 0.05400
H 	H 	0.29518 0.47248 0.02543 0.04000
H 	H 	0.24192 0.48161 0.00835 0.03800
H 	H 	0.25811 0.59155 0.99476 0.05200
H 	H 	0.31134 0.58247 0.01158 0.03700
C 	C 	0.56752 0.49310 0.09043 -0.10300
C 	C 	0.58803 0.52077 0.08873 0.02000
C 	C 	0.61827 0.51429 0.08213 -0.07000
C 	C 	0.62831 0.48012 0.07722 0.02600
C 	C 	0.60802 0.45241 0.08064 -0.06900
C 	C 	0.57777 0.45884 0.08728 0.01900
C 	C 	0.65985 0.47348 0.06628 0.00400
C 	C 	0.66804 0.45903 0.02082 -0.05000
C 	C 	0.69805 0.45476 0.00916 -0.04200
C 	C 	0.72002 0.46486 0.04288 -0.00600
C 	C 	0.71186 0.47864 0.08869 -0.03300
C 	C 	0.68188 0.48294 0.10038 -0.04100
C 	C 	0.75092 0.46274 0.02960 0.04600
C 	C 	0.77691 0.46170 0.01899 -0.11200
H 	H 	0.58047 0.54733 0.09080 0.02900
H 	H 	0.63379 0.53585 0.07957 0.04500
H 	H 	0.61563 0.42592 0.07742 0.04600
H 	H 	0.56226 0.43723 0.08908 0.03300
H 	H 	0.65119 0.45171 0.99422 0.05200
H 	H 	0.70419 0.44409 0.97368 0.05200
H 	H 	0.72874 0.48647 0.11496 0.03900
H 	H 	0.67577 0.49397 0.13565 0.03900
C 	C 	0.51764 0.59848 0.98933 -0.07700
C 	C 	0.50031 0.62716 0.97645 0.01200
C 	C 	0.51375 0.65941 0.96781 -0.06200
C 	C 	0.54463 0.66333 0.97234 0.02200
C 	C 	0.56216 0.63410 0.98160 -0.06100
C 	C 	0.54871 0.60174 0.98988 0.01100
C 	C 	0.55810 0.69839 0.97315 0.01400
C 	C 	0.57949 0.70802 0.93790 -0.04100
C 	C 	0.59255 0.74110 0.93946 -0.03400
C 	C 	0.58430 0.76467 0.97625 0.00700
C 	C 	0.56288 0.75512 0.01131 -0.04500
C 	C 	0.54985 0.72211 0.00984 -0.05200
C 	C 	0.59827 0.79840 0.97880 0.04400
C 	C 	0.60989 0.82664 0.98172 -0.09600
H 	H 	0.47633 0.62481 0.97526 0.03700
H 	H 	0.50007 0.68168 0.95972 0.04700
H 	H 	0.58605 0.63677 0.98472 0.04700
H 	H 	0.56232 0.57974 0.99963 0.03800
H 	H 	0.58598 0.68993 0.90941 0.04200
H 	H 	0.60913 0.74830 0.91225 0.04200
H 	H 	0.55645 0.77318 0.03991 0.03800
H 	H 	0.53351 0.71484 0.03742 0.03600
