data_crystal

_cell_length_a 17.58090
_cell_length_b 16.11804
_cell_length_c 36.88609
_cell_angle_alpha 90.02439
_cell_angle_beta  90.02785
_cell_angle_gamma 119.39752

_symmetry_space_group_name_	'P 1'
_symmetry_space_group_name_H-M	'P 1'

loop_
_symmetry_equiv_pos_as_xyz
  x,y,z

loop_
_atom_site_label
_atom_site_type_symbol
_atom_site_fract_x
_atom_site_fract_y
_atom_site_fract_z
_atom_site_charge
C 	C 	0.21066 0.08326 0.80886 0.31300
C 	C 	0.23342 0.09459 0.72697 0.30100
Ni	Ni	0.08541 0.91924 0.76466 1.11800
Ni	Ni	0.10207 0.13468 0.75933 1.12700
O 	O 	0.15012 0.99345 0.81063 -0.36300
O 	O 	0.19171 0.14955 0.79822 -0.34900
O 	O 	0.19938 0.00260 0.73447 -0.33700
O 	O 	0.18302 0.13236 0.72111 -0.36000
C 	C 	0.15512 0.41902 0.42620 0.32300
C 	C 	0.20501 0.65836 0.35572 0.33000
C 	C 	0.21437 0.69197 0.47570 0.32700
Ni	Ni	0.30163 0.58338 0.46557 1.12400
Ni	Ni	0.33355 0.75227 0.41212 1.12700
O 	O 	0.20137 0.60709 0.46869 -0.38000
O 	O 	0.17136 0.48014 0.40057 -0.36500
O 	O 	0.21009 0.44307 0.45381 -0.34600
O 	O 	0.24683 0.61529 0.34349 -0.35000
O 	O 	0.21443 0.68580 0.38939 -0.36900
O 	O 	0.27556 0.76606 0.45820 -0.36400
C 	C 	0.27576 0.73495 0.16766 0.30300
C 	C 	0.24629 0.40843 0.09227 0.31400
C 	C 	0.08446 0.47590 0.09469 0.32300
Ni	Ni	0.25433 0.54851 0.14253 1.11700
Ni	Ni	0.24804 0.57568 0.05504 1.12600
O 	O 	0.22590 0.64117 0.16989 -0.35700
O 	O 	0.30034 0.47317 0.11423 -0.37200
O 	O 	0.21051 0.43442 0.06629 -0.34300
O 	O 	0.12307 0.46045 0.12346 -0.35000
O 	O 	0.12874 0.54540 0.07159 -0.36900
O 	O 	0.28192 0.63010 0.10227 -0.70900
H 	H 	0.23914 0.65175 0.10612 0.17200
C 	C 	0.07875 0.17962 0.20658 0.30500
C 	C 	0.04884 0.16441 0.31838 0.29900
C 	C 	0.07150 0.88697 0.29851 0.32200
C 	C 	0.08281 0.90955 0.21765 0.29900
Ni	Ni	0.10698 0.06929 0.26424 1.13100
O 	O 	0.12698 0.18542 0.23490 -0.34900
O 	O 	0.12227 0.00373 0.22060 -0.35400
O 	O 	0.01104 0.18422 0.29145 -0.33400
O 	O 	0.10353 0.13281 0.31126 -0.35300
O 	O 	0.12451 0.97914 0.29677 -0.35600
C 	C 	0.06955 0.21419 0.14055 -0.02200
C 	C 	0.11986 0.21085 0.16981 -0.07800
C 	C 	0.20888 0.23804 0.16314 0.12400
C 	C 	0.24806 0.28421 0.13058 -0.03300
C 	C 	0.20173 0.30907 0.10597 -0.08000
C 	C 	0.11028 0.25807 0.10777 0.12600
Br	Br	0.04297 0.22581 0.06411 -0.18300
Br	Br	0.27740 0.20840 0.19585 -0.21100
C 	C 	0.18012 0.74892 0.21285 -0.02700
C 	C 	0.24626 0.79415 0.18696 -0.06400
C 	C 	0.26272 0.88307 0.17298 0.13200
C 	C 	0.20643 0.91840 0.18178 -0.02700
C 	C 	0.13291 0.86515 0.20379 -0.06300
C 	C 	0.11690 0.77600 0.21710 0.12200
Br	Br	0.00444 0.68287 0.23528 -0.20000
H 	H 	0.17058 0.68408 0.22576 0.08400
H 	H 	0.22009 0.98741 0.17161 0.09300
C 	C 	0.01920 0.29943 0.39713 0.00600
C 	C 	0.09357 0.31811 0.41757 -0.09100
C 	C 	0.12621 0.25477 0.41371 0.13500
C 	C 	0.10776 0.19988 0.38204 -0.04700
C 	C 	0.05001 0.20164 0.35581 -0.05000
H 	H 	0.13850 0.15660 0.37782 0.08900
Br	Br	0.18613 0.23397 0.45290 -0.19400
C 	C 	0.22007 0.77855 0.31109 -0.03400
C 	C 	0.16512 0.69607 0.33062 -0.08300
C 	C 	0.07744 0.67131 0.33571 0.13800
C 	C 	0.04886 0.73553 0.32652 -0.01500
C 	C 	0.10598 0.82313 0.30998 -0.07600
C 	C 	0.19244 0.84371 0.30163 0.12300
C 	C 	0.05892 0.65058 0.55985 0.08100
C 	C 	0.12319 0.68927 0.53236 0.05100
C 	C 	0.16997 0.70292 0.50649 -0.07200
C 	C 	0.37190 0.24927 0.73050 -0.03400
C 	C 	0.32818 0.15315 0.71962 -0.07500
Br	Br	0.31958 0.98734 0.68311 -0.18100
H 	H 	0.33858 0.27668 0.74726 0.07100
C 	C 	0.35503 0.09063 0.80542 -0.03800
C 	C 	0.29756 0.11240 0.82420 -0.07900
C 	C 	0.32644 0.16865 0.85570 0.13100
H 	H 	0.33192 0.04293 0.78236 0.07400
Br	Br	0.24729 0.19010 0.88486 -0.18200
Br	Br	0.07029 0.84775 0.64368 -0.16900
H 	H 	0.04381 0.78464 0.86147 0.09000
Br	Br	0.03883 0.68009 0.92882 -0.16800
Ni	Ni	0.29405 0.54864 0.37867 1.11800
Br	Br	0.27557 0.96021 0.27839 -0.20400
H 	H 	0.28717 0.79642 0.30609 0.08400
H 	H 	0.31747 0.31176 0.12673 0.08200
C 	C 	0.41396 0.20924 0.86624 -0.03100
C 	C 	0.37981 0.47471 0.43577 0.31000
C 	C 	0.45002 0.79224 0.47326 0.30600
O 	O 	0.39604 0.77015 0.36295 -0.34600
O 	O 	0.44605 0.80725 0.43847 -0.36900
O 	O 	0.39025 0.71173 0.48980 -0.35500
O 	O 	0.33384 0.45758 0.40487 -0.34700
O 	O 	0.39276 0.54496 0.45775 -0.37200
O 	O 	0.33189 0.63393 0.41800 -0.71200
H 	H 	0.39464 0.65440 0.41790 0.17500
C 	C 	0.29385 0.78529 0.04640 0.31400
Ni	Ni	0.38684 0.74923 0.10302 1.12700
O 	O 	0.35656 0.77389 0.15436 -0.34000
O 	O 	0.36576 0.59419 0.04377 -0.37800
O 	O 	0.31488 0.79964 0.08081 -0.37300
O 	O 	0.37215 0.61411 0.17215 -0.33900
O 	O 	0.27065 0.70132 0.03035 -0.35400
Br	Br	0.44800 0.77419 0.23123 -0.19900
Br	Br	0.36509 0.96166 0.14483 -0.20300
C 	C 	0.46099 0.32564 0.49472 0.06200
C 	C 	0.42623 0.36109 0.46806 0.05700
C 	C 	0.40249 0.40623 0.44967 -0.05800
C 	C 	0.46066 0.17829 0.68948 -0.02100
C 	C 	0.45678 0.31132 0.71826 0.13500
C 	C 	0.37440 0.11696 0.69988 0.13100
C 	C 	0.35944 0.94712 0.01116 0.04900
C 	C 	0.32315 0.86917 0.02475 -0.06300
C 	C 	0.47372 0.19621 0.84509 -0.07700
C 	C 	0.44349 0.13457 0.81501 0.12900
H 	H 	0.43650 0.25476 0.88997 0.06800
O 	O 	0.41401 0.63786 0.35601 -0.36000
C 	C 	0.41239 0.04021 0.99780 0.06600
H 	H 	0.04063 0.29391 0.83676 0.10200
Br	Br	0.01571 0.43911 0.87600 -0.16400
Br	Br	0.51130 0.44366 0.73095 -0.18700
C 	C 	0.55609 0.32198 0.54913 0.32600
O 	O 	0.54697 0.24677 0.56720 -0.36300
C 	C 	0.44567 0.73138 0.35428 0.30000
C 	C 	0.44881 0.66662 0.15679 0.32000
C 	C 	0.43068 0.67805 0.03591 0.32500
O 	O 	0.45338 0.68761 0.12252 -0.37700
O 	O 	0.44246 0.75454 0.05378 -0.36900
H 	H 	0.50509 0.67056 0.29918 0.08600
C 	C 	0.50771 0.87442 0.49425 -0.05700
C 	C 	0.49893 0.31291 0.51958 -0.07500
C 	C 	0.49944 0.27678 0.69573 -0.08200
H 	H 	0.49430 0.15071 0.67307 0.05900
C 	C 	0.46431 0.11646 0.98543 -0.07200
H 	H 	0.03477 0.99686 0.73073 0.14900
C 	C 	0.55623 0.95236 0.50656 0.04500
C 	C 	0.56761 0.26031 0.85080 0.30100
C 	C 	0.53088 0.19702 0.96655 0.31200
O 	O 	0.55054 0.17971 0.93395 -0.38000
C 	C 	0.56935 0.34151 0.67102 0.33000
O 	O 	0.55804 0.32301 0.63660 -0.37300
C 	C 	0.53019 0.70909 0.17823 -0.07900
C 	C 	0.52839 0.78779 0.33433 -0.06700
C 	C 	0.52556 0.66972 0.98266 0.05500
C 	C 	0.48753 0.68451 0.00682 -0.07600
Br	Br	0.52278 0.11516 0.78510 -0.18700
O 	O 	0.03779 0.16337 0.79796 -0.35100
O 	O 	0.03532 0.99929 0.75743 -0.70000
C 	C 	0.60162 0.51242 0.92649 0.31100
O 	O 	0.59811 0.35341 0.84842 -0.34800
O 	O 	0.58194 0.43940 0.94799 -0.37700
C 	C 	0.54409 0.77542 0.20605 0.12700
C 	C 	0.55320 0.73989 0.30930 -0.02800
C 	C 	0.58190 0.58349 0.93972 -0.07200
C 	C 	0.55977 0.63139 0.95713 0.05300
O 	O 	0.03189 0.15108 0.71877 -0.33600
C 	C 	0.60979 0.04723 0.51858 0.07200
O 	O 	0.58345 0.27706 0.98501 -0.36500
H 	H 	0.59995 0.33456 0.91266 0.16500
Ni	Ni	0.61596 0.25604 0.61337 1.12500
O 	O 	0.62173 0.40610 0.55573 -0.37700
Br	Br	0.55892 0.95691 0.37512 -0.20800
C 	C 	0.59042 0.88086 0.34529 0.12800
Br	Br	0.64909 0.70058 0.63126 -0.18000
O 	O 	0.61870 0.22556 0.86207 -0.35200
H 	H 	0.59239 0.65621 0.14182 0.08000
O 	O 	0.65376 0.53075 0.89763 -0.35100
C 	C 	0.60232 0.70631 0.16337 -0.02800
C 	C 	0.65056 0.12684 0.53079 -0.07400
O 	O 	0.64919 0.39460 0.68332 -0.33900
C 	C 	0.62948 0.84247 0.21633 -0.03500
Br	Br	0.02882 0.32815 0.73349 -0.20200
H 	H 	0.63961 0.89306 0.23769 0.07100
C 	C 	0.64055 0.77542 0.30014 0.11900
O 	O 	0.01840 0.84041 0.71894 -0.31800
Br	Br	0.65721 0.04958 0.64833 -0.19100
H 	H 	0.99920 0.18073 0.14283 0.07400
C 	C 	0.99917 0.40414 0.08290 -0.07900
O 	O 	0.99667 0.85656 0.22048 -0.35500
O 	O 	0.99709 0.16013 0.21166 -0.35900
O 	O 	0.66141 0.23479 0.66231 -0.34600
C 	C 	0.99834 0.24341 0.36556 0.09700
O 	O 	0.66294 0.35996 0.91630 -0.71000
O 	O 	0.98708 0.85431 0.29952 -0.38300
H 	H 	0.98590 0.00631 0.22860 0.13700
O 	O 	0.98286 0.00731 0.25527 -0.70500
H 	H 	0.98189 0.71696 0.33216 0.07800
H 	H 	0.98486 0.33831 0.40294 0.07200
Br	Br	0.99696 0.55175 0.35748 -0.20100
Br	Br	0.89407 0.21652 0.33951 -0.20300
C 	C 	0.82536 0.57913 0.93108 0.32500
C 	C 	0.81149 0.34811 0.86193 0.32800
C 	C 	0.76810 0.31042 0.98367 0.32500
Ni	Ni	0.70784 0.44692 0.87737 1.11800
Ni	Ni	0.67376 0.40793 0.96414 1.12400
Ni	Ni	0.67050 0.24626 0.91359 1.12400
O 	O 	0.77639 0.39343 0.97654 -0.37800
O 	O 	0.82117 0.51950 0.90659 -0.36300
O 	O 	0.76276 0.54998 0.95561 -0.36200
O 	O 	0.77001 0.38836 0.84698 -0.35400
O 	O 	0.79463 0.31845 0.89542 -0.36400
O 	O 	0.71873 0.23607 0.96303 -0.36200
C 	C 	0.74563 0.27556 0.67166 0.30000
C 	C 	0.75466 0.59592 0.59996 0.32300
C 	C 	0.91464 0.52978 0.59322 0.31500
C 	C 	0.68962 0.21335 0.55158 0.31600
Ni	Ni	0.75824 0.45895 0.64850 1.11700
Ni	Ni	0.74167 0.42530 0.56065 1.12300
O 	O 	0.79464 0.36943 0.67294 -0.36100
O 	O 	0.70599 0.53296 0.62365 -0.35800
O 	O 	0.78159 0.56728 0.57158 -0.36000
O 	O 	0.68026 0.20305 0.58672 -0.37400
O 	O 	0.71231 0.29728 0.53552 -0.36000
O 	O 	0.88381 0.54519 0.62439 -0.35400
O 	O 	0.86529 0.45871 0.57132 -0.37700
O 	O 	0.72097 0.37442 0.60864 -0.70700
H 	H 	0.76448 0.35296 0.60983 0.17200
C 	C 	0.93807 0.82331 0.71225 0.27300
C 	C 	0.94279 0.83333 0.82104 0.31700
C 	C 	0.95339 0.13316 0.79660 0.29400
C 	C 	0.94548 0.10108 0.71527 0.28100
Ni	Ni	0.91226 0.94554 0.76526 1.12200
O 	O 	0.88906 0.82362 0.73938 -0.36500
O 	O 	0.90272 0.00726 0.71945 -0.36900
O 	O 	0.98685 0.81407 0.79675 -0.36600
O 	O 	0.92193 0.89933 0.81491 -0.35400
O 	O 	0.89801 0.04179 0.79470 -0.34200
C 	C 	0.79496 0.91222 0.29873 0.28900
C 	C 	0.78907 0.89777 0.21691 0.30100
Ni	Ni	0.92397 0.07936 0.25599 1.11600
Ni	Ni	0.92180 0.87225 0.25873 1.12700
O 	O 	0.84261 0.00563 0.29878 -0.35100
O 	O 	0.83301 0.85951 0.29692 -0.34400
O 	O 	0.82176 0.99100 0.22093 -0.36100
O 	O 	0.83992 0.85908 0.21794 -0.34900
C 	C 	0.70150 0.84154 0.20036 -0.06700
C 	C 	0.68731 0.77557 0.17242 0.13100
Br	Br	0.78177 0.78762 0.14250 -0.18800
C 	C 	0.67709 0.92055 0.33353 -0.03600
C 	C 	0.70347 0.86788 0.31152 -0.07200
Br	Br	0.67135 0.69293 0.27384 -0.21600
H 	H 	0.72428 0.99190 0.34209 0.09000
C 	C 	0.99655 0.60189 0.57871 -0.09800
C 	C 	0.85306 0.26624 0.71181 -0.02500
C 	C 	0.78179 0.21878 0.68818 -0.06600
C 	C 	0.76419 0.13011 0.67350 0.13100
C 	C 	0.82232 0.09561 0.67999 -0.02900
C 	C 	0.89789 0.14837 0.70108 -0.06200
C 	C 	0.91593 0.23801 0.71464 0.11200
H 	H 	0.86474 0.33171 0.72489 0.07900
H 	H 	0.80727 0.02633 0.66954 0.08600
C 	C 	0.89820 0.73686 0.61400 -0.02600
C 	C 	0.80689 0.69516 0.61319 -0.09100
C 	C 	0.76771 0.72923 0.63789 0.12900
C 	C 	0.81275 0.77663 0.66936 -0.04300
C 	C 	0.89932 0.79638 0.67498 -0.06700
C 	C 	0.94502 0.78574 0.64517 0.10700
H 	H 	0.93205 0.72610 0.59160 0.07400
H 	H 	0.77946 0.79500 0.68988 0.07900
C 	C 	0.93389 0.35661 0.06526 0.06500
C 	C 	0.86682 0.31854 0.03874 0.05700
C 	C 	0.81735 0.30371 0.01367 -0.06900
C 	C 	0.80424 0.23743 0.81447 -0.03200
C 	C 	0.85500 0.31068 0.83866 -0.08400
C 	C 	0.94151 0.33286 0.84573 0.12700
C 	C 	0.97419 0.27687 0.83078 -0.04600
C 	C 	0.92027 0.19689 0.80939 -0.05800
C 	C 	0.83410 0.17763 0.80114 0.12000
Br	Br	0.75287 0.06738 0.77391 -0.19500
H 	H 	0.73814 0.22173 0.80842 0.08900
C 	C 	0.82724 0.72365 0.90978 -0.03500
C 	C 	0.87511 0.68046 0.92146 -0.08400
C 	C 	0.95930 0.71446 0.90696 0.12400
C 	C 	0.98124 0.76406 0.87394 -0.04700
C 	C 	0.92126 0.78498 0.85676 -0.07500
C 	C 	0.84429 0.76702 0.87564 0.12300
Br	Br	0.75477 0.78540 0.85328 -0.20300
H 	H 	0.76791 0.70882 0.92388 0.08000
