data_crystal

_cell_length_a 20.08959
_cell_length_b 21.02922
_cell_length_c 41.16083
_cell_angle_alpha 60.67796
_cell_angle_beta  119.05518
_cell_angle_gamma 133.36589

_symmetry_space_group_name_	'P 1'
_symmetry_space_group_name_H-M	'P 1'

loop_
_symmetry_equiv_pos_as_xyz
  x,y,z

loop_
_atom_site_label
_atom_site_type_symbol
_atom_site_fract_x
_atom_site_fract_y
_atom_site_fract_z
_atom_site_charge
C 	C 	0.71678 0.30686 0.99574 0.12100
N 	N 	0.62430 0.27406 0.98219 -0.14600
C 	C 	0.59333 0.31027 0.98569 0.12200
N 	N 	0.65653 0.39069 0.99465 -0.13800
C 	C 	0.74873 0.42453 0.00877 0.11600
N 	N 	0.77920 0.38064 0.01086 -0.14600
C 	C 	0.72053 0.28081 0.52228 0.12000
N 	N 	0.62969 0.25310 0.50864 -0.14400
C 	C 	0.60660 0.30131 0.50774 0.12200
N 	N 	0.67514 0.38127 0.51724 -0.14100
C 	C 	0.76572 0.40989 0.53109 0.12100
N 	N 	0.78914 0.35932 0.53409 -0.14500
C 	C 	0.29707 0.63172 0.17256 0.12000
N 	N 	0.23253 0.54535 0.16826 -0.14200
C 	C 	0.26074 0.50495 0.16572 0.12300
N 	N 	0.35268 0.54957 0.16875 -0.14200
C 	C 	0.41436 0.63771 0.16864 0.12500
N 	N 	0.38670 0.67922 0.17032 -0.14100
C 	C 	0.30800 0.68295 0.63504 0.12300
N 	N 	0.39309 0.71973 0.63178 -0.14200
C 	C 	0.40339 0.67400 0.62236 0.12600
N 	N 	0.32783 0.59329 0.61429 -0.14200
C 	C 	0.24228 0.55636 0.61671 0.12500
N 	N 	0.23196 0.60073 0.62729 -0.14100
Co	Co	0.01845 0.86012 0.10287 1.19300
Co	Co	0.99719 0.08407 0.06549 1.16600
Co	Co	0.94754 0.92328 0.13123 1.19200
Co	Co	0.07205 0.02194 0.03818 1.16500
C 	C 	0.93674 0.71321 0.07059 0.27700
Co	Co	0.11199 0.88452 0.04807 1.17700
Co	Co	0.89554 0.04885 0.12097 1.15500
C 	C 	0.25180 0.08674 0.03003 0.31700
O 	O 	0.00362 0.06947 0.16921 -0.38600
O 	O 	0.95536 0.01942 0.10551 -0.79300
C 	C 	0.00359 0.00063 0.19528 0.25600
O 	O 	0.95818 0.82509 0.14198 -0.48300
O 	O 	0.05458 0.11693 0.02565 -0.46700
C 	C 	0.06151 0.22828 0.09454 0.34200
O 	O 	0.03798 0.98844 0.09180 -0.54400
C 	C 	0.76307 0.84923 0.13498 0.32200
C 	C 	0.18140 0.84521 0.13164 0.30000
C 	C 	0.00375 0.93800 0.97562 0.34200
O 	O 	0.99833 0.94372 0.18644 -0.35700
O 	O 	0.21062 0.89951 0.09967 -0.38000
O 	O 	0.12626 0.84430 0.14122 -0.37200
O 	O 	0.97209 0.18254 0.09189 -0.43900
O 	O 	0.09076 0.20132 0.08461 -0.39000
O 	O 	0.81095 0.91639 0.14999 -0.39300
O 	O 	0.80320 0.84646 0.11878 -0.40100
O 	O 	0.00467 0.86868 0.99976 -0.39100
O 	O 	0.99547 0.98243 0.98615 -0.39700
O 	O 	0.06988 0.92853 0.06566 -0.73600
C 	C 	0.82005 0.07703 0.03823 0.30100
O 	O 	0.79470 0.02273 0.07070 -0.41800
O 	O 	0.87787 0.08288 0.02789 -0.40300
O 	O 	0.02506 0.75110 0.07504 -0.38800
O 	O 	0.91408 0.75186 0.07681 -0.40300
O 	O 	0.20063 0.01421 0.01803 -0.43800
O 	O 	0.21353 0.10439 0.03992 -0.40600
Co	Co	0.04565 0.88471 0.59980 1.18900
Co	Co	0.97525 0.07131 0.56560 1.16500
Co	Co	0.96753 0.92627 0.63541 1.18500
Co	Co	0.05681 0.03069 0.53033 1.16500
C 	C 	0.97258 0.73446 0.57206 0.28100
Co	Co	0.11941 0.91542 0.53517 1.18200
Co	Co	0.88622 0.02137 0.63055 1.14400
C 	C 	0.23256 0.11579 0.51151 0.31500
O 	O 	0.00704 0.06261 0.67333 -0.38000
O 	O 	0.95300 0.00971 0.60962 -0.79700
C 	C 	0.02438 0.00417 0.69947 0.20300
O 	O 	0.00100 0.84598 0.64512 -0.45800
O 	O 	0.02069 0.10969 0.52032 -0.46700
C 	C 	0.02457 0.21138 0.59271 0.34200
O 	O 	0.04241 0.99960 0.58852 -0.54700
C 	C 	0.78175 0.82353 0.64773 0.31700
C 	C 	0.22223 0.90225 0.61575 0.30300
C 	C 	0.97890 0.93718 0.46961 0.31500
O 	O 	0.02590 0.95287 0.68995 -0.31600
O 	O 	0.23551 0.95054 0.58083 -0.37500
O 	O 	0.17350 0.89988 0.62989 -0.37800
O 	O 	0.93878 0.15293 0.59799 -0.43700
O 	O 	0.05633 0.19262 0.57945 -0.39100
O 	O 	0.82530 0.88869 0.66326 -0.40100
O 	O 	0.82520 0.82943 0.62970 -0.40800
O 	O 	0.99511 0.87731 0.49415 -0.40800
O 	O 	0.96925 0.97898 0.48117 -0.37800
O 	O 	0.07584 0.94969 0.55759 -0.73300
C 	C 	0.78576 0.03073 0.55031 0.23800
O 	O 	0.77378 0.97811 0.58466 -0.34300
O 	O 	0.84078 0.04328 0.53541 -0.39400
O 	O 	0.05848 0.78464 0.56859 -0.38500
O 	O 	0.94611 0.76646 0.58052 -0.40600
O 	O 	0.18393 0.04404 0.49949 -0.43000
O 	O 	0.19171 0.12944 0.52205 -0.40200
C 	C 	0.01108 0.97195 0.87086 0.04200
C 	C 	0.01380 0.90716 0.87062 -0.03100
C 	C 	0.02290 0.91195 0.83767 -0.04700
C 	C 	0.02941 0.98155 0.80474 0.06700
C 	C 	0.02714 0.04661 0.80503 -0.08700
C 	C 	0.01809 0.04185 0.83800 -0.07200
C 	C 	0.03045 0.98257 0.76955 0.00600
C 	C 	0.03089 0.98932 0.73869 -0.01400
C 	C 	0.00629 0.96867 0.90570 0.05100
C 	C 	0.00268 0.95891 0.93646 -0.09100
H 	H 	0.00897 0.85315 0.89598 0.04600
H 	H 	0.02381 0.86102 0.83768 0.05200
H 	H 	0.03148 0.10034 0.77961 0.04400
H 	H 	0.01679 0.09256 0.83796 0.04200
C 	C 	0.98565 0.97027 0.29725 0.07000
C 	C 	0.96615 0.89476 0.32847 -0.05500
C 	C 	0.95593 0.89033 0.36102 -0.03200
C 	C 	0.96507 0.96137 0.36258 0.03300
C 	C 	0.98317 0.03630 0.33111 -0.06400
C 	C 	0.99334 0.04071 0.29852 -0.12800
C 	C 	0.96743 0.96160 0.39825 0.04300
C 	C 	0.96910 0.95422 0.42966 -0.09800
C 	C 	0.99301 0.97396 0.26297 0.01000
C 	C 	0.99987 0.98267 0.23318 -0.05800
H 	H 	0.95907 0.83962 0.32763 0.04500
H 	H 	0.94264 0.83241 0.38532 0.03700
H 	H 	0.99120 0.09185 0.33210 0.02900
H 	H 	0.00753 0.09901 0.27436 0.07100
C 	C 	0.12168 0.45316 0.57415 -0.07500
C 	C 	0.16404 0.46464 0.61159 -0.02900
C 	C 	0.15523 0.39041 0.64277 0.08000
C 	C 	0.11636 0.31046 0.63586 -0.02600
C 	C 	0.08180 0.30176 0.59831 -0.11500
C 	C 	0.08376 0.37364 0.56705 0.13400
N 	N 	0.05196 0.36782 0.53029 -0.20400
H 	H 	0.12655 0.50956 0.55021 0.05900
H 	H 	0.11072 0.25386 0.65984 0.04400
N 	N 	0.18556 0.39618 0.67945 -0.19500
H 	H 	0.03341 0.31430 0.52400 0.10200
H 	H 	0.04922 0.41922 0.50740 0.09200
H 	H 	0.20960 0.45284 0.68533 0.09200
H 	H 	0.18225 0.34235 0.70251 0.08300
C 	C 	0.54852 0.68893 0.66611 -0.07600
C 	C 	0.49745 0.70244 0.62845 -0.03400
C 	C 	0.53371 0.73539 0.59728 0.08300
C 	C 	0.62383 0.76039 0.60460 -0.02400
C 	C 	0.67961 0.75831 0.64214 -0.11500
C 	C 	0.63862 0.71453 0.67319 0.12400
N 	N 	0.68616 0.69805 0.70980 -0.20300
H 	H 	0.51792 0.65830 0.68993 0.05300
H 	H 	0.65409 0.79007 0.58081 0.05500
N 	N 	0.48415 0.74637 0.56040 -0.19500
H 	H 	0.65704 0.66866 0.73285 0.08400
H 	H 	0.75085 0.71128 0.71554 0.09000
H 	H 	0.41864 0.73218 0.55390 0.09700
H 	H 	0.51177 0.77077 0.53763 0.09400
C 	C 	0.20873 0.69485 0.64882 -0.07400
C 	C 	0.29717 0.73372 0.64558 -0.03200
C 	C 	0.37051 0.82544 0.64707 0.08300
C 	C 	0.34705 0.88149 0.63958 -0.02800
C 	C 	0.25516 0.84427 0.63776 -0.10400
C 	C 	0.18973 0.74895 0.64776 0.12600
N 	N 	0.11113 0.70919 0.65779 -0.20200
H 	H 	0.15487 0.62273 0.65237 0.06100
H 	H 	0.40033 0.95385 0.63540 0.05400
N 	N 	0.46241 0.85689 0.65966 -0.19300
H 	H 	0.06253 0.63900 0.66413 0.09400
H 	H 	0.10223 0.74608 0.66326 0.09600
H 	H 	0.48144 0.81274 0.67698 0.09500
H 	H 	0.51575 0.92610 0.65664 0.09100
C 	C 	0.15259 0.43797 0.11043 -0.07700
C 	C 	0.19214 0.42520 0.15002 -0.03100
C 	C 	0.19448 0.34946 0.17034 0.07900
C 	C 	0.16765 0.29430 0.15019 -0.02500
C 	C 	0.12854 0.30735 0.11059 -0.11900
C 	C 	0.12590 0.38287 0.09029 0.13200
N 	N 	0.09918 0.40352 0.05137 -0.20300
H 	H 	0.15148 0.49647 0.09466 0.05700
H 	H 	0.17034 0.23674 0.16586 0.04800
N 	N 	0.22285 0.32974 0.20924 -0.19500
H 	H 	0.09451 0.45777 0.03642 0.09100
H 	H 	0.08736 0.36862 0.03564 0.09600
H 	H 	0.23741 0.36630 0.22498 0.09000
H 	H 	0.22720 0.27528 0.22420 0.08500
C 	C 	0.57584 0.68449 0.18766 -0.07600
C 	C 	0.50360 0.69069 0.15912 -0.03100
C 	C 	0.51048 0.73129 0.12037 0.08200
C 	C 	0.59281 0.77059 0.11158 -0.02500
C 	C 	0.66883 0.77283 0.14081 -0.11300
C 	C 	0.65718 0.72265 0.17854 0.12800
N 	N 	0.72525 0.71311 0.20626 -0.20200
H 	H 	0.56774 0.64807 0.21689 0.05400
H 	H 	0.60095 0.80671 0.08234 0.04900
N 	N 	0.43888 0.73347 0.09164 -0.19500
H 	H 	0.71824 0.67908 0.23455 0.08600
H 	H 	0.78418 0.73691 0.19966 0.09200
H 	H 	0.37689 0.70581 0.09711 0.09500
H 	H 	0.44489 0.76358 0.06320 0.08700
C 	C 	0.30539 0.81971 0.16951 -0.02800
C 	C 	0.20936 0.78341 0.15660 -0.10100
C 	C 	0.14211 0.68917 0.15978 0.12300
C 	C 	0.17112 0.63819 0.16646 -0.07600
C 	C 	0.26734 0.67723 0.17531 -0.03200
C 	C 	0.33423 0.76474 0.18221 0.08300
N 	N 	0.42294 0.79275 0.20381 -0.19300
H 	H 	0.35759 0.89035 0.16997 0.05300
H 	H 	0.11868 0.56837 0.16480 0.06100
N 	N 	0.05102 0.64683 0.15800 -0.20000
H 	H 	0.47378 0.85948 0.20624 0.09200
H 	H 	0.43905 0.74650 0.22154 0.09700
H 	H 	0.02918 0.68082 0.15692 0.10000
H 	H 	0.00257 0.57720 0.16083 0.09600
C 	C 	0.80120 0.24336 0.51124 -0.06400
C 	C 	0.74070 0.21783 0.53011 -0.04600
C 	C 	0.68421 0.12633 0.54956 0.09800
C 	C 	0.68357 0.06165 0.54710 -0.11300
C 	C 	0.75158 0.08811 0.53238 -0.07400
C 	C 	0.80364 0.17827 0.51058 0.10100
N 	N 	0.84612 0.20016 0.48563 -0.20100
H 	H 	0.84126 0.31237 0.49476 0.04500
H 	H 	0.63771 0.99130 0.56105 0.09800
N 	N 	0.63334 0.10082 0.57187 -0.20100
H 	H 	0.88758 0.26724 0.47084 0.07400
H 	H 	0.82919 0.15023 0.47723 0.09000
H 	H 	0.64302 0.14854 0.57891 0.08300
H 	H 	0.58780 0.03263 0.58447 0.06600
C 	C 	0.89156 0.65050 0.52377 -0.04000
C 	C 	0.90390 0.64768 0.56098 -0.09500
C 	C 	0.87785 0.56556 0.58945 0.11000
C 	C 	0.84742 0.49060 0.58091 -0.07200
C 	C 	0.83669 0.49445 0.54373 -0.03800
C 	C 	0.86447 0.57698 0.51567 0.08300
N 	N 	0.86368 0.58551 0.48056 -0.19600
H 	H 	0.91055 0.71274 0.50171 0.05100
H 	H 	0.82471 0.42696 0.60242 0.04600
N 	N 	0.87898 0.55724 0.62457 -0.20400
H 	H 	0.88063 0.64550 0.45925 0.08300
H 	H 	0.84967 0.53389 0.47461 0.08700
H 	H 	0.89393 0.60918 0.63066 0.08700
H 	H 	0.86211 0.49730 0.64589 0.07600
C 	C 	0.35634 0.22715 0.47557 -0.02400
C 	C 	0.33220 0.18333 0.51100 -0.11500
C 	C 	0.40109 0.18463 0.54523 0.11700
C 	C 	0.48831 0.21828 0.54332 -0.07500
C 	C 	0.51030 0.25650 0.50786 -0.03400
C 	C 	0.44482 0.26327 0.47361 0.07700
N 	N 	0.46559 0.30255 0.43885 -0.19500
H 	H 	0.30387 0.22771 0.44933 0.04400
H 	H 	0.54040 0.21681 0.56959 0.04700
N 	N 	0.38331 0.15253 0.58000 -0.20100
H 	H 	0.41693 0.30786 0.41373 0.08400
H 	H 	0.52954 0.32727 0.43635 0.08900
H 	H 	0.32169 0.13307 0.58231 0.08600
H 	H 	0.43285 0.14951 0.60526 0.07800
C 	C 	0.85356 0.22971 0.00511 -0.03200
C 	C 	0.78701 0.13528 0.01451 -0.11900
C 	C 	0.69448 0.09940 0.01178 0.12100
C 	C 	0.67553 0.15579 0.00823 -0.08500
C 	C 	0.74340 0.25013 0.00126 -0.04000
C 	C 	0.83085 0.28776 0.99653 0.08100
N 	N 	0.89025 0.37764 0.98175 -0.19500
H 	H 	0.92336 0.25812 0.00508 0.03600
H 	H 	0.60694 0.12598 0.01033 0.04700
N 	N 	0.62394 0.01021 0.01346 -0.25500
H 	H 	0.95542 0.40478 0.97941 0.07500
H 	H 	0.86922 0.41983 0.96936 0.08700
H 	H 	0.63450 0.96841 0.01305 0.13300
H 	H 	0.55651 0.98271 0.01342 0.12200
C 	C 	0.85142 0.64890 0.01485 -0.04600
C 	C 	0.86444 0.63386 0.05397 -0.09500
C 	C 	0.83934 0.54774 0.07817 0.11100
C 	C 	0.81806 0.48443 0.06447 -0.07300
C 	C 	0.81170 0.50223 0.02576 -0.03700
C 	C 	0.83287 0.58723 0.00123 0.07900
N 	N 	0.83423 0.60949 0.96437 -0.19400
H 	H 	0.86290 0.71186 0.99539 0.05600
H 	H 	0.79825 0.41819 0.08313 0.04800
N 	N 	0.83219 0.52430 0.11407 -0.20300
H 	H 	0.84675 0.67106 0.94587 0.08100
H 	H 	0.82665 0.56745 0.95427 0.08500
H 	H 	0.84106 0.56782 0.12374 0.08600
H 	H 	0.81501 0.46112 0.13229 0.07700
C 	C 	0.35755 0.22287 0.98829 -0.01800
C 	C 	0.34643 0.15778 0.02337 -0.12000
C 	C 	0.41775 0.14491 0.04590 0.11800
C 	C 	0.49190 0.18706 0.03061 -0.08300
C 	C 	0.50193 0.25008 0.99497 -0.02900
C 	C 	0.43445 0.26874 0.97363 0.07400
N 	N 	0.44160 0.32837 0.93866 -0.19400
H 	H 	0.30289 0.23323 0.97113 0.04200
H 	H 	0.54575 0.17553 0.04765 0.04900
N 	N 	0.41553 0.09260 0.08239 -0.20600
H 	H 	0.39259 0.34328 0.92343 0.08500
H 	H 	0.49419 0.35856 0.92583 0.08900
H 	H 	0.36727 0.06918 0.09590 0.08500
H 	H 	0.46559 0.07906 0.09834 0.07400
