data_crystal

_cell_length_a 20.52831
_cell_length_b 21.24675
_cell_length_c 38.78803
_cell_angle_alpha 60.67898
_cell_angle_beta  119.01820
_cell_angle_gamma 133.26089

_symmetry_space_group_name_	'P 1'
_symmetry_space_group_name_H-M	'P 1'

loop_
_symmetry_equiv_pos_as_xyz
  x,y,z

loop_
_atom_site_label
_atom_site_type_symbol
_atom_site_fract_x
_atom_site_fract_y
_atom_site_fract_z
_atom_site_charge
Co	Co	0.06861 0.02926 0.04515 1.16700
Co	Co	0.07199 0.88001 0.04181 1.17700
C 	C 	0.24084 0.03913 0.07179 0.25500
O 	O 	0.08014 0.13481 0.04241 -0.44300
C 	C 	0.08350 0.18871 0.13999 0.31100
C 	C 	0.05640 0.76543 0.12519 0.32400
O 	O 	0.03344 0.76412 0.08773 -0.39200
O 	O 	0.04047 0.80669 0.13363 -0.36200
O 	O 	0.01887 0.12370 0.16020 -0.39800
O 	O 	0.10053 0.17171 0.11765 -0.36100
O 	O 	0.02324 0.91977 0.05815 -0.73300
O 	O 	0.19830 0.95299 0.07890 -0.32600
O 	O 	0.20377 0.06907 0.07400 -0.38100
Co	Co	0.04790 0.00198 0.53895 1.16500
Co	Co	0.08533 0.87206 0.54306 1.17700
C 	C 	0.20760 0.06960 0.51710 0.26900
O 	O 	0.07917 0.10731 0.68823 -0.38400
C 	C 	0.09779 0.05045 0.71563 0.26000
O 	O 	0.02963 0.09372 0.52823 -0.44300
C 	C 	0.08309 0.23255 0.60062 0.31900
C 	C 	0.20644 0.87435 0.62409 0.31200
O 	O 	0.09721 0.99954 0.70454 -0.32200
O 	O 	0.20774 0.91465 0.58568 -0.36600
O 	O 	0.16752 0.87690 0.64230 -0.35400
O 	O 	0.10152 0.19456 0.59126 -0.35800
O 	O 	0.05178 0.91247 0.56749 -0.73100
O 	O 	0.14689 0.99781 0.50327 -0.34600
O 	O 	0.18434 0.08336 0.53764 -0.37700
C 	C 	0.16220 0.13065 0.80036 -0.08500
C 	C 	0.12501 0.04841 0.75909 -0.14100
C 	C 	0.17918 0.12925 0.76992 0.11300
C 	C 	0.25123 0.21495 0.74755 -0.21800
H 	H 	0.19365 0.19403 0.80449 0.06100
C 	C 	0.17495 0.10263 0.88979 0.04600
C 	C 	0.16325 0.11400 0.91859 -0.03700
C 	C 	0.26994 0.13796 0.89168 -0.18700
H 	H 	0.22316 0.15334 0.93973 0.06500
H 	H 	0.28085 0.20177 0.73655 0.10500
H 	H 	0.30865 0.26040 0.76801 0.08700
H 	H 	0.22040 0.24881 0.72145 0.10100
H 	H 	0.31355 0.14152 0.92315 0.08800
H 	H 	0.30354 0.20599 0.87137 0.08800
H 	H 	0.26717 0.09363 0.88281 0.07400
C 	C 	0.01774 0.99627 0.29472 0.08500
C 	C 	0.01357 0.98876 0.25944 0.05100
C 	C 	0.09830 0.07949 0.30990 -0.23400
H 	H 	0.06495 0.04511 0.24192 0.01000
C 	C 	0.02572 0.82121 0.46550 -0.16300
H 	H 	0.02786 0.86747 0.38815 0.08300
H 	H 	0.13932 0.06306 0.33975 0.08200
H 	H 	0.07366 0.10851 0.31342 0.08800
H 	H 	0.14431 0.13124 0.28848 0.08900
H 	H 	0.08203 0.85924 0.48868 0.01200
H 	H 	0.05391 0.80335 0.45639 0.08800
C 	C 	0.27895 0.42907 0.64537 -0.06500
C 	C 	0.11830 0.38091 0.58344 -0.01900
C 	C 	0.15022 0.32768 0.60186 -0.08200
C 	C 	0.23485 0.35659 0.63065 0.13500
Br	Br	0.29430 0.30154 0.64850 -0.22800
H 	H 	0.34136 0.44711 0.66938 0.07800
H 	H 	0.05364 0.36005 0.56084 0.08600
C 	C 	0.36283 0.82046 0.64562 -0.05900
C 	C 	0.30278 0.72659 0.65363 -0.01200
C 	C 	0.21805 0.68184 0.66190 0.10600
C 	C 	0.19135 0.73160 0.65794 -0.02200
C 	C 	0.24868 0.82551 0.64647 -0.08100
C 	C 	0.33761 0.86907 0.64374 0.14100
H 	H 	0.12411 0.69711 0.66180 0.08500
C 	C 	0.15557 0.29045 0.18163 -0.02100
C 	C 	0.14011 0.28033 0.14451 -0.09100
C 	C 	0.17968 0.36855 0.18368 0.09800
Br	Br	0.20062 0.37887 0.23516 -0.20700
H 	H 	0.14534 0.23601 0.20868 0.06000
C 	C 	0.09727 0.59848 0.16269 -0.06500
C 	C 	0.19343 0.65553 0.16813 -0.01100
C 	C 	0.24287 0.73759 0.17700 0.10500
C 	C 	0.19538 0.77010 0.17021 -0.01800
C 	C 	0.09897 0.71912 0.15705 -0.08500
C 	C 	0.05100 0.62863 0.15963 0.15100
H 	H 	0.23374 0.83680 0.17283 0.09400
Br	Br	0.37076 0.79786 0.20462 -0.14300
C 	C 	0.24015 0.63326 0.16046 0.14800
C 	C 	0.23774 0.52871 0.15175 0.15200
N 	N 	0.19707 0.54749 0.16093 -0.12600
C 	C 	0.33445 0.67778 0.65636 0.14900
N 	N 	0.27458 0.60243 0.64217 -0.11200
C 	C 	0.30818 0.56977 0.63761 0.15100
C 	C 	0.24656 0.48182 0.62768 -0.01400
C 	C 	0.16681 0.45853 0.59547 0.10400
Br	Br	0.12346 0.53174 0.56662 -0.18100
Br	Br	0.14002 0.55432 0.68063 -0.18100
C 	C 	0.15641 0.35291 0.10998 0.13900
C 	C 	0.17665 0.42936 0.11165 -0.06000
C 	C 	0.18964 0.43850 0.14846 -0.02000
H 	H 	0.18813 0.48436 0.08479 0.08600
Br	Br	0.16045 0.35321 0.06150 -0.19400
H 	H 	0.05806 0.53187 0.15970 0.08900
C 	C 	0.33497 0.07738 0.51883 -0.02200
C 	C 	0.30473 0.12159 0.51719 -0.08400
C 	C 	0.36353 0.21523 0.51002 0.13700
H 	H 	0.28842 0.00601 0.52187 0.04400
Br	Br	0.32148 0.28108 0.50071 -0.19700
C 	C 	0.33661 0.17028 0.02293 -0.02800
C 	C 	0.32798 0.10264 0.05883 -0.08400
C 	C 	0.39490 0.08602 0.07760 0.13100
H 	H 	0.28587 0.18403 0.00847 0.05900
Br	Br	0.39813 0.00908 0.13110 -0.23900
N 	N 	0.32224 0.69966 0.14940 -0.11500
N 	N 	0.32054 0.59494 0.14228 -0.13200
N 	N 	0.40028 0.61404 0.64590 -0.12900
C 	C 	0.07153 0.02422 0.96916 0.23300
O 	O 	0.11849 0.99174 0.99460 -0.34200
O 	O 	0.04214 0.04511 0.98293 -0.37000
Co	Co	0.04166 0.86361 0.61606 1.19300
O 	O 	0.03175 0.74691 0.58278 -0.38700
C 	C 	0.07608 0.05997 0.92606 -0.04500
C 	C 	0.10780 0.05085 0.82644 -0.04400
C 	C 	0.07355 0.96791 0.78602 0.03000
C 	C 	0.09700 0.05471 0.86079 0.00500
C 	C 	0.06829 0.96857 0.82086 0.08900
H 	H 	0.03382 0.90507 0.77886 0.05700
H 	H 	0.05790 0.88917 0.88272 0.09700
C 	C 	0.36278 0.67997 0.14093 0.15300
O 	O 	0.02434 0.85034 0.66708 -0.43600
C 	C 	0.01919 0.88178 0.85109 -0.18800
H 	H 	0.01279 0.82845 0.84788 0.09900
C 	C 	0.00893 0.01522 0.86313 -0.09200
O 	O 	0.00389 0.18616 0.60879 -0.38700
Co	Co	0.00023 0.93810 0.65543 1.20500
H 	H 	0.39837 0.76603 0.06659 0.08700
C 	C 	0.99691 0.88989 0.39100 -0.10200
Co	Co	0.99732 0.07063 0.57718 1.17400
C 	C 	0.40847 0.21809 0.00472 0.08900
Co	Co	0.99881 0.09206 0.07565 1.17500
Br	Br	0.92105 0.54784 0.15508 -0.22100
C 	C 	0.99383 0.87588 0.42959 0.10000
Br	Br	0.42402 0.99643 0.63480 -0.14500
H 	H 	0.42932 0.85612 0.64052 0.10300
N 	N 	0.42645 0.71742 0.66686 -0.13100
C 	C 	0.95507 0.92641 0.35588 0.04100
O 	O 	0.94415 0.91286 0.18281 -0.38100
C 	C 	0.93910 0.91199 0.24470 -0.12900
C 	C 	0.94686 0.92516 0.31585 -0.01500
H 	H 	0.96702 0.75724 0.47865 0.07200
Br	Br	0.92372 0.53716 0.67121 -0.21100
O 	O 	0.85305 0.94337 0.17833 -0.39300
C 	C 	0.91050 0.92191 0.20043 0.32200
C 	C 	0.68707 0.28405 0.00650 0.14100
N 	N 	0.74118 0.36957 0.00966 -0.13100
C 	C 	0.70339 0.40156 0.01091 0.15100
N 	N 	0.61333 0.34744 0.01078 -0.12700
C 	C 	0.56029 0.26152 0.00987 0.14700
N 	N 	0.59613 0.23091 0.00593 -0.12500
C 	C 	0.71067 0.26006 0.53753 0.15300
N 	N 	0.62037 0.22723 0.52135 -0.11600
C 	C 	0.58628 0.26168 0.52330 0.15400
N 	N 	0.64428 0.33331 0.53912 -0.13000
C 	C 	0.73574 0.37131 0.55245 0.15100
N 	N 	0.76932 0.33375 0.55248 -0.13000
C 	C 	0.45924 0.68735 0.66041 0.15200
Co	Co	0.95180 0.84328 0.08961 1.18600
Co	Co	0.88561 0.90645 0.12208 1.19900
C 	C 	0.87265 0.74263 0.02718 0.30500
Co	Co	0.88483 0.05266 0.12888 1.14800
O 	O 	0.92197 0.01382 0.10500 -0.79600
O 	O 	0.87611 0.80166 0.12544 -0.44300
O 	O 	0.95163 0.96225 0.07187 -0.55000
C 	C 	0.70976 0.88804 0.10564 0.31200
O 	O 	0.75536 0.97528 0.09516 -0.34800
O 	O 	0.74533 0.84909 0.11059 -0.35400
C 	C 	0.89281 0.16813 0.04429 0.32200
O 	O 	0.91649 0.16804 0.08226 -0.40600
O 	O 	0.92026 0.14077 0.03336 -0.37300
O 	O 	0.93965 0.81150 0.00821 -0.39500
O 	O 	0.85528 0.75205 0.05279 -0.34800
C 	C 	0.95402 0.70088 0.59215 0.30600
Co	Co	0.95169 0.06219 0.64954 1.15400
O 	O 	0.98146 0.01793 0.62496 -0.79100
O 	O 	0.99324 0.95018 0.59259 -0.55500
C 	C 	0.84236 0.86586 0.68279 0.32900
C 	C 	0.95509 0.89854 0.47451 0.30100
O 	O 	0.89694 0.94160 0.69276 -0.37200
O 	O 	0.87259 0.84673 0.66882 -0.37500
O 	O 	0.95912 0.83550 0.50466 -0.39700
O 	O 	0.97273 0.96459 0.48223 -0.34000
C 	C 	0.83051 0.05787 0.56831 0.29200
O 	O 	0.82995 0.01376 0.60660 -0.41300
O 	O 	0.87714 0.06743 0.54914 -0.35900
O 	O 	0.94071 0.73549 0.60659 -0.36800
C 	C 	0.99769 0.01510 0.89636 0.00500
C 	C 	0.90243 0.96129 0.90160 -0.14100
H 	H 	0.94910 0.98232 0.83991 0.09000
H 	H 	0.94902 0.86012 0.84603 0.09200
H 	H 	0.89907 0.99698 0.91344 0.10100
H 	H 	0.88414 0.89564 0.92326 0.08600
H 	H 	0.85061 0.94990 0.87214 0.08600
C 	C 	0.87704 0.84559 0.30304 -0.08400
C 	C 	0.87538 0.83717 0.26881 0.12000
C 	C 	0.80183 0.74971 0.25682 -0.22000
H 	H 	0.82523 0.78927 0.32037 0.06900
C 	C 	0.91474 0.95629 0.35913 -0.00000
C 	C 	0.91798 0.94951 0.39800 0.01400
C 	C 	0.95623 0.90869 0.43354 -0.09400
C 	C 	0.86513 0.99188 0.32150 -0.02200
H 	H 	0.88807 0.97337 0.40048 0.06400
H 	H 	0.73896 0.74675 0.23742 0.09700
H 	H 	0.78424 0.69299 0.28423 0.09400
H 	H 	0.82549 0.74134 0.23997 0.09500
H 	H 	0.84221 0.01742 0.32895 0.01100
H 	H 	0.80348 0.93792 0.30583 0.06400
H 	H 	0.91118 0.04760 0.30042 0.00500
C 	C 	0.68475 0.80540 0.63942 -0.01200
C 	C 	0.74329 0.81281 0.67836 -0.09700
C 	C 	0.70868 0.78155 0.71133 0.14500
C 	C 	0.61628 0.74398 0.70493 -0.06400
C 	C 	0.55831 0.73806 0.66580 -0.01700
C 	C 	0.59362 0.77111 0.63277 0.10000
Br	Br	0.52000 0.77519 0.57796 -0.17700
H 	H 	0.71141 0.83042 0.61388 0.07800
H 	H 	0.58911 0.71769 0.73051 0.08200
Br	Br	0.78560 0.78639 0.76549 -0.22900
C 	C 	0.45937 0.77932 0.09110 -0.05500
C 	C 	0.45377 0.74954 0.13150 -0.01200
C 	C 	0.53315 0.76632 0.16312 0.10500
C 	C 	0.61515 0.80732 0.15446 -0.02300
C 	C 	0.61952 0.83298 0.11433 -0.08500
C 	C 	0.54147 0.82018 0.08243 0.14600
Br	Br	0.54435 0.85414 0.02706 -0.17800
H 	H 	0.67600 0.82069 0.17893 0.06300
Br	Br	0.52972 0.73010 0.21865 -0.18800
C 	C 	0.80928 0.24635 0.52533 -0.05400
C 	C 	0.74115 0.20815 0.54381 -0.03100
C 	C 	0.69250 0.11636 0.56310 0.12900
C 	C 	0.70895 0.06357 0.56198 -0.10400
C 	C 	0.78452 0.10298 0.54830 -0.06300
C 	C 	0.83107 0.19433 0.52733 0.12300
Br	Br	0.91806 0.24753 0.49818 -0.22400
H 	H 	0.84428 0.31592 0.50884 0.08100
H 	H 	0.67038 0.99298 0.57676 0.14100
Br	Br	0.61283 0.06415 0.59605 -0.23200
C 	C 	0.83538 0.46045 0.60386 -0.05800
C 	C 	0.79807 0.45765 0.56281 -0.02100
C 	C 	0.80085 0.53172 0.53276 0.10300
C 	C 	0.83776 0.60584 0.54389 -0.03000
C 	C 	0.88071 0.61147 0.58449 -0.08400
C 	C 	0.87622 0.53676 0.61478 0.13700
H 	H 	0.83023 0.40249 0.62737 0.08200
H 	H 	0.83934 0.66221 0.52043 0.07100
Br	Br	0.75665 0.53381 0.47603 -0.21500
C 	C 	0.45368 0.26217 0.50796 -0.06100
C 	C 	0.48545 0.21683 0.51207 -0.01600
C 	C 	0.42159 0.12504 0.51295 0.10500
Br	Br	0.44123 0.06755 0.49693 -0.21100
H 	H 	0.49964 0.33386 0.50389 0.09000
C 	C 	0.81267 0.31066 0.99249 -0.05800
C 	C 	0.72833 0.24934 0.00414 -0.02600
C 	C 	0.68830 0.15653 0.01551 0.09900
C 	C 	0.73635 0.12941 0.01755 -0.03000
C 	C 	0.82843 0.19179 0.01501 -0.10000
C 	C 	0.86262 0.28215 0.99801 0.14500
Br	Br	0.97695 0.36728 0.98201 -0.19500
H 	H 	0.84095 0.38086 0.98033 0.08900
H 	H 	0.70579 0.05902 0.02625 0.06800
Br	Br	0.57374 0.06479 0.03221 -0.24200
C 	C 	0.82646 0.64805 0.98805 -0.01800
C 	C 	0.81899 0.65315 0.02074 -0.09200
C 	C 	0.77672 0.57410 0.05084 0.14300
C 	C 	0.75582 0.49594 0.05102 -0.05600
C 	C 	0.76114 0.49039 0.01796 -0.02900
C 	C 	0.79776 0.56746 0.98657 0.10800
Br	Br	0.80659 0.56359 0.94066 -0.21000
H 	H 	0.85579 0.70720 0.96395 0.06700
H 	H 	0.72538 0.43621 0.07476 0.08600
Br	Br	0.72937 0.56506 0.08663 -0.18800
C 	C 	0.46484 0.13156 0.05872 -0.06600
C 	C 	0.47304 0.19852 0.02255 -0.02100
Br	Br	0.41828 0.31109 0.95579 -0.20900
H 	H 	0.51682 0.11931 0.07377 0.08600
