data_crystal

_cell_length_a 17.15011
_cell_length_b 17.91448
_cell_length_c 37.08771
_cell_angle_alpha 60.69338
_cell_angle_beta  119.01049
_cell_angle_gamma 133.46077

_symmetry_space_group_name_	'P 1'
_symmetry_space_group_name_H-M	'P 1'

loop_
_symmetry_equiv_pos_as_xyz
  x,y,z

loop_
_atom_site_label
_atom_site_type_symbol
_atom_site_fract_x
_atom_site_fract_y
_atom_site_fract_z
_atom_site_charge
C 	C 	0.72167 0.30723 0.99683 0.04800
C 	C 	0.61913 0.22866 0.00801 -0.07700
C 	C 	0.56227 0.25752 0.00899 0.00300
C 	C 	0.60204 0.36364 0.99495 -0.04200
C 	C 	0.70597 0.44279 0.98564 0.02000
C 	C 	0.76473 0.41472 0.98537 -0.06300
H 	H 	0.58856 0.14608 0.01943 0.04800
H 	H 	0.55768 0.38548 0.99583 0.05600
H 	H 	0.84730 0.47609 0.97977 0.05900
C 	C 	0.72017 0.31282 0.48961 0.00900
C 	C 	0.61282 0.24004 0.49620 -0.05400
C 	C 	0.56021 0.27627 0.49477 0.00900
C 	C 	0.60693 0.38403 0.48038 -0.05200
C 	C 	0.71667 0.45722 0.47737 0.01000
C 	C 	0.77228 0.42212 0.48017 -0.05100
H 	H 	0.57567 0.15575 0.50711 0.04300
H 	H 	0.56450 0.41135 0.47846 0.05300
H 	H 	0.85867 0.47861 0.47902 0.05200
C 	C 	0.25184 0.61543 0.16255 0.01000
C 	C 	0.20455 0.50863 0.16825 -0.05200
C 	C 	0.26630 0.48333 0.16811 0.00700
C 	C 	0.37456 0.56337 0.16365 -0.05100
C 	C 	0.41684 0.66916 0.15340 0.01000
C 	C 	0.35884 0.69541 0.15536 -0.05200
H 	H 	0.11888 0.44702 0.17019 0.04500
H 	H 	0.42142 0.54384 0.16306 0.05200
H 	H 	0.39246 0.77815 0.14742 0.05600
C 	C 	0.27208 0.61940 0.67148 0.01100
C 	C 	0.21679 0.51201 0.67452 -0.05000
C 	C 	0.27592 0.47887 0.67870 0.00700
C 	C 	0.38948 0.55052 0.68289 -0.04900
C 	C 	0.43920 0.65833 0.67203 0.00900
C 	C 	0.38407 0.69256 0.67014 -0.05000
H 	H 	0.12783 0.45689 0.67059 0.04700
H 	H 	0.43488 0.52441 0.68654 0.05200
H 	H 	0.42405 0.77687 0.66267 0.05500
Co	Co	0.95430 0.82364 0.07503 1.19100
Co	Co	0.03204 0.11340 0.07897 1.17500
Co	Co	0.87583 0.88554 0.11515 1.19400
Co	Co	0.11454 0.05051 0.04057 1.16600
C 	C 	0.86528 0.73272 0.00018 0.27800
Co	Co	0.10609 0.87806 0.02588 1.17200
Co	Co	0.88318 0.04917 0.13414 1.15900
C 	C 	0.30904 0.04534 0.06870 0.27000
O 	O 	0.82359 0.90395 0.17773 -0.39700
O 	O 	0.93033 0.01404 0.10518 -0.77700
C 	C 	0.88555 0.87080 0.20033 0.30400
O 	O 	0.85520 0.76376 0.11095 -0.46300
O 	O 	0.13751 0.17304 0.04580 -0.47400
C 	C 	0.12271 0.19429 0.15645 0.31500
O 	O 	0.96752 0.96723 0.06492 -0.55700
C 	C 	0.67403 0.87540 0.09715 0.31400
C 	C 	0.06261 0.71884 0.10739 0.32100
C 	C 	0.12821 0.06750 0.95854 0.29500
O 	O 	0.92999 0.86713 0.18099 -0.38300
O 	O 	0.03987 0.72883 0.06708 -0.41600
O 	O 	0.04918 0.76711 0.11936 -0.39100
O 	O 	0.03806 0.11172 0.17336 -0.41800
O 	O 	0.14741 0.18732 0.12972 -0.39500
O 	O 	0.73359 0.97819 0.09196 -0.37100
O 	O 	0.71114 0.83289 0.09485 -0.37200
O 	O 	0.17934 0.02340 0.98340 -0.41700
O 	O 	0.09403 0.08931 0.97484 -0.38400
O 	O 	0.04927 0.92075 0.04625 -0.74800
C 	C 	0.92079 0.21402 0.05268 0.31400
O 	O 	0.94228 0.19921 0.09351 -0.40700
O 	O 	0.95161 0.18598 0.03788 -0.38300
O 	O 	0.95323 0.81637 0.98477 -0.35800
O 	O 	0.84151 0.73311 0.02949 -0.36700
O 	O 	0.25155 0.94440 0.07100 -0.35300
O 	O 	0.26847 0.07946 0.07450 -0.39600
Co	Co	0.97592 0.83208 0.57775 1.19200
Co	Co	0.02675 0.11124 0.57791 1.17500
Co	Co	0.89142 0.88349 0.61997 1.19400
Co	Co	0.11708 0.05994 0.53799 1.16900
C 	C 	0.88933 0.73572 0.50497 0.31400
Co	Co	0.12822 0.89877 0.52519 1.17700
Co	Co	0.88032 0.03744 0.63669 1.15900
C 	C 	0.32476 0.07817 0.56171 0.27500
O 	O 	0.84576 0.90024 0.68485 -0.39800
O 	O 	0.93190 0.00869 0.60692 -0.77500
C 	C 	0.92123 0.88298 0.70566 0.32600
O 	O 	0.88169 0.76716 0.61681 -0.46000
O 	O 	0.12846 0.17696 0.54175 -0.47100
C 	C 	0.11689 0.20257 0.65181 0.31900
O 	O 	0.97315 0.96697 0.56622 -0.55600
C 	C 	0.67883 0.84891 0.60811 0.31800
C 	C 	0.10226 0.74554 0.60932 0.32100
C 	C 	0.11654 0.06972 0.45467 0.32600
O 	O 	0.96271 0.88107 0.68430 -0.38700
O 	O 	0.07987 0.75403 0.56913 -0.41000
O 	O 	0.08296 0.78949 0.62096 -0.39000
O 	O 	0.03816 0.11860 0.67138 -0.42100
O 	O 	0.14271 0.19583 0.62543 -0.39500
O 	O 	0.72968 0.95122 0.59839 -0.37600
O 	O 	0.72216 0.80986 0.60780 -0.37100
O 	O 	0.18160 0.04008 0.47862 -0.43000
O 	O 	0.08153 0.08805 0.47214 -0.40200
O 	O 	0.06432 0.93215 0.54657 -0.74700
C 	C 	0.89577 0.19230 0.55174 0.31800
O 	O 	0.91826 0.18042 0.59247 -0.40600
O 	O 	0.93375 0.17065 0.53731 -0.38200
O 	O 	0.97287 0.82184 0.48764 -0.38700
O 	O 	0.86602 0.73335 0.53528 -0.37300
O 	O 	0.27430 0.97723 0.56752 -0.35600
O 	O 	0.28027 0.10979 0.56657 -0.39200
C 	C 	0.11211 0.03810 0.78629 -0.21400
C 	C 	0.04238 0.98215 0.81352 0.14800
C 	C 	0.94837 0.87714 0.81205 -0.11100
C 	C 	0.91596 0.83538 0.77973 0.06400
C 	C 	0.97890 0.89679 0.74943 -0.13800
C 	C 	0.08347 0.99218 0.75631 0.16100
C 	C 	0.06714 0.03332 0.84335 -0.06400
H 	H 	0.89809 0.82934 0.83482 0.06900
H 	H 	0.83737 0.75897 0.77619 0.02400
H 	H 	0.13732 0.03642 0.73533 -0.01700
H 	H 	0.18573 0.11845 0.78700 0.08400
C 	C 	0.17668 0.10105 0.86435 -0.02800
C 	C 	0.19805 0.13501 0.89702 -0.00500
C 	C 	0.11066 0.09233 0.91230 -0.07300
C 	C 	0.00242 0.03761 0.88768 -0.02200
C 	C 	0.98076 0.00926 0.85295 -0.04500
H 	H 	0.24494 0.12218 0.85732 0.03300
H 	H 	0.28261 0.18226 0.91444 0.04100
H 	H 	0.93410 0.00808 0.89781 0.04400
H 	H 	0.89645 0.96416 0.83499 0.06800
C 	C 	0.05500 0.94862 0.30248 -0.04800
C 	C 	0.97120 0.91937 0.31601 0.00600
C 	C 	0.86025 0.84440 0.29854 -0.04800
C 	C 	0.83438 0.80605 0.26647 0.01000
C 	C 	0.91635 0.85361 0.24684 -0.07400
C 	C 	0.02758 0.91803 0.26729 0.00800
C 	C 	0.99927 0.97076 0.34679 0.10100
H 	H 	0.79355 0.82061 0.30766 0.04600
H 	H 	0.74829 0.75140 0.25240 0.03700
H 	H 	0.09259 0.95159 0.25390 0.04900
H 	H 	0.14107 0.99805 0.31802 0.05600
C 	C 	0.92884 0.91679 0.37352 -0.10700
C 	C 	0.95707 0.96449 0.40264 0.10800
C 	C 	0.06326 0.05717 0.41075 -0.17700
C 	C 	0.12963 0.11574 0.38202 0.06600
C 	C 	0.09614 0.07438 0.34931 -0.15100
H 	H 	0.85495 0.83653 0.37321 0.06400
H 	H 	0.90099 0.92310 0.42224 0.03000
H 	H 	0.21013 0.19013 0.38660 0.01700
H 	H 	0.14702 0.12181 0.32682 0.05800
C 	C 	0.21949 0.38173 0.66877 0.04700
C 	C 	0.17608 0.30191 0.66021 -0.11300
C 	C 	0.52529 0.72818 0.65001 0.05200
C 	C 	0.59441 0.78220 0.63045 -0.10900
C 	C 	0.20898 0.65945 0.65694 0.04600
C 	C 	0.15914 0.69806 0.63920 -0.10000
C 	C 	0.17509 0.29617 0.16097 -0.11500
C 	C 	0.21429 0.38003 0.16483 0.04500
C 	C 	0.58196 0.80735 0.11566 -0.10500
C 	C 	0.50700 0.74766 0.13289 0.04900
C 	C 	0.12640 0.67789 0.13593 -0.10300
C 	C 	0.18201 0.64585 0.15154 0.04400
C 	C 	0.78584 0.27529 0.50507 0.04300
C 	C 	0.83791 0.23907 0.52311 -0.10400
C 	C 	0.77846 0.55891 0.48443 0.04700
C 	C 	0.82740 0.64024 0.49305 -0.10200
C 	C 	0.47699 0.20875 0.51815 0.04100
C 	C 	0.40888 0.15227 0.53854 -0.10900
C 	C 	0.85362 0.25137 0.02514 -0.09600
C 	C 	0.79425 0.27924 0.00912 0.01600
C 	C 	0.76193 0.54851 0.98727 0.03600
C 	C 	0.80743 0.63367 0.99176 -0.07200
C 	C 	0.47420 0.18174 0.03080 0.03500
C 	C 	0.40040 0.12040 0.04892 -0.11000
