data_crystal

_cell_length_a 17.95019
_cell_length_b 16.66695
_cell_length_c 45.63319
_cell_angle_alpha 90.77638
_cell_angle_beta  91.05861
_cell_angle_gamma 110.89216

_symmetry_space_group_name_	'P 1'
_symmetry_space_group_name_H-M	'P 1'

loop_
_symmetry_equiv_pos_as_xyz
  x,y,z

loop_
_atom_site_label
_atom_site_type_symbol
_atom_site_fract_x
_atom_site_fract_y
_atom_site_fract_z
_atom_site_charge
O 	O 	0.09944 0.89183 0.74644 -0.69900
Ni	Ni	0.11546 0.00464 0.76705 1.09300
O 	O 	0.15854 0.79223 0.70446 -0.40300
Ni	Ni	0.20485 0.89392 0.73476 1.06600
O 	O 	0.20756 0.98848 0.70651 -0.41500
O 	O 	0.19635 0.99876 0.79811 -0.38700
O 	O 	0.03518 0.00544 0.73506 -0.71800
O 	O 	0.10645 0.11108 0.78778 -0.36500
H 	H 	0.07370 0.84242 0.75906 0.15500
H 	H 	0.05439 0.05747 0.72300 0.15400
C 	C 	0.22952 0.06862 0.71633 0.27200
C 	C 	0.08325 0.76066 0.69565 0.29500
C 	C 	0.26573 0.99642 0.79046 0.30200
C 	C 	0.03620 0.11526 0.79321 0.26200
O 	O 	0.20561 0.08661 0.74219 -0.37000
O 	O 	0.27944 0.98527 0.76275 -0.41600
Ni	Ni	0.34706 0.75646 0.41453 1.09900
O 	O 	0.33627 0.68621 0.37621 -0.69900
Ni	Ni	0.22478 0.67615 0.36360 1.09600
O 	O 	0.44322 0.73300 0.43173 -0.36700
O 	O 	0.43564 0.60729 0.40972 -0.40500
O 	O 	0.42572 0.86450 0.39570 -0.36300
Ni	Ni	0.33302 0.56845 0.38304 1.06500
O 	O 	0.33042 0.93375 0.42313 -0.40300
O 	O 	0.26166 0.55846 0.41816 -0.42300
O 	O 	0.21416 0.59761 0.32806 -0.39100
O 	O 	0.24105 0.75428 0.39966 -0.71000
O 	O 	0.34974 0.82879 0.45082 -0.37700
O 	O 	0.11753 0.68815 0.35287 -0.37100
O 	O 	0.17195 0.83444 0.35437 -0.41500
Ni	Ni	0.25330 0.87195 0.38953 1.06600
H 	H 	0.37567 0.71520 0.36132 0.15600
H 	H 	0.19933 0.73150 0.41440 0.15600
C 	C 	0.18841 0.55790 0.41485 0.27100
O 	O 	0.34283 0.88672 0.36080 -0.41300
C 	C 	0.44385 0.65494 0.43360 0.30400
C 	C 	0.21986 0.52188 0.33113 0.28800
C 	C 	0.10882 0.76320 0.35418 0.28800
O 	O 	0.16220 0.57322 0.38901 -0.37000
O 	O 	0.23730 0.49837 0.35706 -0.41000
Ni	Ni	0.35226 0.65919 0.11615 1.09700
O 	O 	0.25732 0.62776 0.08664 -0.69800
Ni	Ni	0.18880 0.68659 0.10595 1.09700
O 	O 	0.40313 0.57792 0.09826 -0.36300
O 	O 	0.28898 0.46391 0.08970 -0.40800
O 	O 	0.42490 0.74785 0.08777 -0.37300
Ni	Ni	0.19367 0.50428 0.08316 1.06600
O 	O 	0.45928 0.83915 0.13843 -0.40600
O 	O 	0.17550 0.49465 0.12702 -0.41200
O 	O 	0.09842 0.65462 0.07532 -0.38200
O 	O 	0.28519 0.72054 0.13430 -0.70400
O 	O 	0.14052 0.76567 0.12696 -0.36700
O 	O 	0.25279 0.88283 0.12153 -0.40900
Ni	Ni	0.34804 0.84409 0.13134 1.06500
H 	H 	0.27355 0.65171 0.06705 0.14800
H 	H 	0.27122 0.70309 0.15473 0.15800
C 	C 	0.11947 0.51714 0.13843 0.29200
O 	O 	0.35629 0.83877 0.08713 -0.42000
C 	C 	0.36088 0.51135 0.08196 0.28300
C 	C 	0.07591 0.57932 0.06184 0.28500
C 	C 	0.40591 0.80820 0.07493 0.30700
C 	C 	0.18208 0.84699 0.13257 0.28400
O 	O 	0.11635 0.59387 0.13361 -0.36300
O 	O 	0.08519 0.51381 0.07508 -0.41200
O 	O 	0.03114 0.20094 0.23896 -0.37700
O 	O 	0.08210 0.06584 0.23120 -0.40500
O 	O 	0.98788 0.06598 0.19636 -0.36200
O 	O 	0.98161 0.98836 0.31110 -0.39900
Ni	Ni	0.02459 0.02787 0.26974 1.06100
O 	O 	0.04648 0.15040 0.28403 -0.42000
C 	C 	0.05993 0.21421 0.26598 0.29400
C 	C 	0.04768 0.04256 0.20488 0.26500
C 	C 	0.05384 0.45253 0.15422 -0.06700
C 	C 	0.03656 0.47052 0.18296 -0.03600
C 	C 	0.97784 0.40799 0.19882 0.05200
C 	C 	0.93404 0.32738 0.18549 -0.08000
C 	C 	0.00749 0.37308 0.14063 0.03400
S 	S 	0.95994 0.43178 0.23509 -0.04700
S 	S 	0.02894 0.34420 0.10540 -0.07600
H 	H 	0.08414 0.30506 0.10771 0.03100
H 	H 	0.90181 0.46721 0.23507 0.03900
H 	H 	0.07025 0.53209 0.19331 0.04500
C 	C 	0.08314 0.00054 0.18356 -0.08100
C 	C 	0.03267 0.93416 0.16535 -0.03500
C 	C 	0.06411 0.88634 0.14724 0.04300
C 	C 	0.14677 0.90116 0.14889 -0.08700
C 	C 	0.19739 0.97033 0.16607 -0.01300
C 	C 	0.16648 0.02219 0.18235 0.02100
S 	S 	0.00069 0.81483 0.12088 -0.02600
S 	S 	0.23285 0.11821 0.19860 -0.03700
H 	H 	0.25373 0.10243 0.22637 0.02900
H 	H 	0.00155 0.85742 0.09535 0.03800
H 	H 	0.96879 0.91970 0.16525 0.05400
H 	H 	0.26125 0.98451 0.16646 0.02100
H 	H 	0.39280 0.07515 0.33327 0.02900
C 	C 	0.10272 0.30202 0.27681 -0.07900
C 	C 	0.05912 0.34980 0.28804 -0.03500
C 	C 	0.09747 0.42560 0.30419 0.04300
C 	C 	0.18090 0.45455 0.30902 -0.07800
C 	C 	0.22516 0.41002 0.29594 -0.02900
C 	C 	0.18647 0.33385 0.27988 0.04100
S 	S 	0.03967 0.48037 0.31987 -0.03600
S 	S 	0.24324 0.27789 0.26431 -0.06100
H 	H 	0.26195 0.30480 0.23626 0.04400
H 	H 	0.01992 0.45193 0.34771 0.04500
H 	H 	0.99476 0.32581 0.28546 0.03400
H 	H 	0.28939 0.43281 0.29924 0.02600
C 	C 	0.92303 0.84382 0.32738 -0.06400
C 	C 	0.94158 0.84630 0.35744 -0.03500
C 	C 	0.99624 0.80985 0.36762 0.06300
C 	C 	0.03008 0.76826 0.34765 -0.11400
C 	C 	0.99748 0.74943 0.31913 0.01600
C 	C 	0.94293 0.78620 0.30903 0.00800
S 	S 	0.02523 0.82071 0.40496 -0.09500
S 	S 	0.90787 0.76850 0.27239 -0.04900
H 	H 	0.95926 0.82935 0.25516 0.00000
H 	H 	0.09121 0.89368 0.40925 0.00600
H 	H 	0.01946 0.71249 0.30412 0.02900
H 	H 	0.38913 0.07434 0.45319 0.03800
C 	C 	0.02692 0.47374 0.48561 0.00100
C 	C 	0.09345 0.44878 0.48403 -0.05500
C 	C 	0.14571 0.47533 0.46078 0.00800
C 	C 	0.06429 0.55107 0.44031 0.00700
C 	C 	0.01213 0.52438 0.46360 -0.06800
C 	C 	0.13179 0.52728 0.43888 -0.08500
H 	H 	0.10526 0.40968 0.50099 0.04400
H 	H 	0.19696 0.45560 0.45983 0.03400
H 	H 	0.05298 0.59145 0.42370 0.02800
C 	C 	0.47802 0.63299 0.45958 -0.10000
H 	H 	0.42049 0.53538 0.52767 0.04700
C 	C 	0.44671 0.23778 0.68065 -0.08000
C 	C 	0.38038 0.19771 0.66192 -0.02200
C 	C 	0.30732 0.14588 0.67336 0.03400
C 	C 	0.30063 0.13344 0.70384 -0.07200
C 	C 	0.36549 0.17843 0.72261 -0.02900
C 	C 	0.43780 0.23138 0.71122 0.03900
S 	S 	0.22466 0.09868 0.64939 -0.05700
S 	S 	0.51604 0.29085 0.73551 -0.05200
H 	H 	0.22282 0.01933 0.64025 0.03900
H 	H 	0.38644 0.20428 0.63839 0.05300
H 	H 	0.36065 0.16963 0.74606 0.05300
S 	S 	0.15954 0.68900 0.64563 -0.04200
H 	H 	0.15330 0.75129 0.62750 0.04100
C 	C 	0.97340 0.47991 0.99039 -0.04800
C 	C 	0.02147 0.49573 0.01576 -0.00100
C 	C 	0.98084 0.61576 0.02856 0.02700
C 	C 	0.02520 0.56346 0.03508 -0.09900
H 	H 	0.97060 0.42719 0.97571 0.03900
H 	H 	0.05609 0.45556 0.02035 0.01000
H 	H 	0.98286 0.66804 0.04329 0.04300
C 	C 	0.45247 0.85394 0.05103 -0.10100
C 	C 	0.49066 0.89649 0.03150 0.03600
C 	C 	0.45079 0.55313 0.03947 0.00700
C 	C 	0.36695 0.40340 0.04463 0.00600
C 	C 	0.39509 0.48849 0.05549 -0.09500
H 	H 	0.47240 0.61918 0.04744 0.04100
H 	H 	0.32448 0.35280 0.05685 0.03100
C 	C 	0.43279 0.15667 0.83542 -0.02900
C 	C 	0.35950 0.11916 0.82053 0.04500
C 	C 	0.33479 0.03265 0.81068 -0.09800
C 	C 	0.38356 0.98478 0.81644 -0.00300
S 	S 	0.29934 0.18130 0.81459 -0.02900
H 	H 	0.32184 0.22815 0.78974 0.04000
H 	H 	0.45124 0.22289 0.84313 0.03200
H 	H 	0.36511 0.91857 0.80872 0.02300
Ni	Ni	0.62474 0.27833 0.90768 1.09900
O 	O 	0.63478 0.34974 0.87029 -0.69800
Ni	Ni	0.74530 0.35890 0.85880 1.09600
O 	O 	0.53072 0.30425 0.92453 -0.36900
O 	O 	0.53600 0.42724 0.90231 -0.40500
O 	O 	0.54353 0.17256 0.88683 -0.36900
Ni	Ni	0.63855 0.46793 0.87765 1.06700
O 	O 	0.63474 0.09642 0.91231 -0.40800
O 	O 	0.70954 0.47929 0.91404 -0.41800
O 	O 	0.75758 0.43912 0.82437 -0.38900
O 	O 	0.72896 0.27902 0.89343 -0.71300
O 	O 	0.62149 0.20228 0.94253 -0.37900
O 	O 	0.85148 0.34535 0.84972 -0.36700
O 	O 	0.79221 0.19927 0.84637 -0.41500
Ni	Ni	0.71335 0.16141 0.88095 1.06300
H 	H 	0.59517 0.32085 0.85459 0.15500
H 	H 	0.77149 0.30012 0.90879 0.15600
C 	C 	0.78062 0.47403 0.91210 0.28700
O 	O 	0.62293 0.15070 0.85159 -0.41700
C 	C 	0.53041 0.38263 0.92622 0.30700
C 	C 	0.75421 0.51594 0.82822 0.28700
C 	C 	0.55250 0.14695 0.86031 0.28800
C 	C 	0.85710 0.26907 0.84713 0.27800
C 	C 	0.62785 0.12604 0.93896 0.28300
O 	O 	0.80769 0.46048 0.88653 -0.37100
O 	O 	0.73486 0.53887 0.85397 -0.40600
Ni	Ni	0.63104 0.37039 0.61914 1.10000
O 	O 	0.71695 0.39409 0.58778 -0.69800
Ni	Ni	0.77863 0.32164 0.60142 1.09900
O 	O 	0.58247 0.45213 0.60012 -0.36300
O 	O 	0.70219 0.56153 0.59672 -0.40400
O 	O 	0.56249 0.27854 0.59000 -0.39000
Ni	Ni	0.79047 0.51274 0.58671 1.06800
O 	O 	0.58299 0.24654 0.67620 -0.42100
O 	O 	0.81875 0.51281 0.63021 -0.41100
O 	O 	0.85350 0.34301 0.56697 -0.37700
O 	O 	0.70214 0.31040 0.63513 -0.70100
O 	O 	0.53976 0.33742 0.64871 -0.37100
O 	O 	0.81633 0.22566 0.61579 -0.37200
O 	O 	0.68802 0.13351 0.61781 -0.41800
Ni	Ni	0.63671 0.19458 0.64685 1.06800
H 	H 	0.69359 0.37457 0.56796 0.15400
H 	H 	0.73116 0.34268 0.65273 0.15600
C 	C 	0.86873 0.47673 0.63937 0.28500
O 	O 	0.53743 0.16481 0.62025 -0.40700
C 	C 	0.62799 0.52245 0.58741 0.28000
C 	C 	0.88611 0.42181 0.55725 0.29500
C 	C 	0.53733 0.19557 0.59402 0.31400
C 	C 	0.76488 0.14771 0.61972 0.27300
C 	C 	0.52638 0.27543 0.66804 0.29800
O 	O 	0.87145 0.40738 0.62600 -0.36600
O 	O 	0.88923 0.48842 0.57399 -0.40800
Ni	Ni	0.02806 0.90098 0.71163 1.09800
O 	O 	0.04877 0.81184 0.68536 -0.37700
O 	O 	0.93178 0.80579 0.72925 -0.37000
O 	O 	0.86491 0.92539 0.71364 -0.40300
O 	O 	0.95381 0.91618 0.67962 -0.36500
O 	O 	0.97159 0.04632 0.79029 -0.40200
Ni	Ni	0.92894 0.98706 0.74999 1.07100
O 	O 	0.91641 0.87600 0.77074 -0.40500
C 	C 	0.91308 0.80512 0.75706 0.28900
C 	C 	0.89308 0.93864 0.68685 0.27900
C 	C 	0.41434 0.89164 0.36969 0.28400
C 	C 	0.33347 0.89969 0.44901 0.27700
O 	O 	0.44307 0.69892 0.14659 -0.37500
C 	C 	0.47437 0.78079 0.15433 0.28300
Ni	Ni	0.92613 0.10369 0.22698 1.10700
O 	O 	0.86948 0.13733 0.26137 -0.70000
Ni	Ni	0.84272 0.02818 0.28367 1.09600
O 	O 	0.90121 0.17886 0.19634 -0.37600
O 	O 	0.83360 0.25115 0.22046 -0.39800
Ni	Ni	0.77053 0.15005 0.24806 1.06700
O 	O 	0.75975 0.05026 0.21982 -0.43100
O 	O 	0.76383 0.04845 0.31168 -0.39600
O 	O 	0.91820 0.00930 0.25403 -0.71600
O 	O 	0.84614 0.92420 0.30679 -0.35900
H 	H 	0.90310 0.18748 0.27331 0.16100
H 	H 	0.89525 0.95285 0.24372 0.16900
C 	C 	0.73529 0.97015 0.22903 0.27800
C 	C 	0.89231 0.25116 0.20332 0.30200
C 	C 	0.69525 0.05021 0.30176 0.29300
C 	C 	0.91625 0.92115 0.31454 0.27100
O 	O 	0.74933 0.95254 0.25654 -0.36800
O 	O 	0.68589 0.06653 0.27389 -0.41400
C 	C 	0.94540 0.31383 0.15575 -0.00400
H 	H 	0.90998 0.25342 0.14502 0.05100
C 	C 	0.67354 0.90375 0.21143 -0.07200
C 	C 	0.59766 0.86435 0.22314 -0.02600
C 	C 	0.53278 0.81701 0.20497 0.03400
C 	C 	0.54351 0.80930 0.17473 -0.07600
C 	C 	0.62060 0.84208 0.16350 -0.01700
C 	C 	0.68574 0.88875 0.18175 0.03500
S 	S 	0.43777 0.77087 0.22011 -0.08500
S 	S 	0.78213 0.92739 0.16730 -0.04800
H 	H 	0.79830 0.00895 0.15737 0.04100
H 	H 	0.42684 0.68895 0.22856 0.03900
H 	H 	0.58808 0.87508 0.24602 0.05100
H 	H 	0.62938 0.83411 0.14035 0.05300
C 	C 	0.62322 0.00933 0.31911 -0.08800
C 	C 	0.57552 0.05669 0.32692 -0.02000
C 	C 	0.50632 0.01879 0.34306 0.02700
C 	C 	0.48360 0.93188 0.35105 -0.06300
C 	C 	0.53085 0.88446 0.34298 -0.03000
C 	C 	0.59981 0.92209 0.32689 0.05100
S 	S 	0.45078 0.08179 0.35410 -0.05800
S 	S 	0.65498 0.85843 0.31613 -0.02300
H 	H 	0.62253 0.81369 0.29079 0.03900
H 	H 	0.59274 0.12335 0.32077 0.03000
H 	H 	0.51390 0.81792 0.34925 0.03200
H 	H 	0.92140 0.88536 0.37223 0.05200
C 	C 	0.40173 0.05199 0.52680 -0.00600
C 	C 	0.40842 0.09221 0.49973 -0.04600
C 	C 	0.37946 0.04317 0.47418 -0.00800
C 	C 	0.48768 0.14105 0.57157 -0.11100
C 	C 	0.32958 0.91467 0.50316 0.00100
C 	C 	0.35918 0.96380 0.52865 -0.03700
C 	C 	0.44715 0.09899 0.55165 0.04700
C 	C 	0.34380 0.95345 0.47565 -0.06800
H 	H 	0.43986 0.16086 0.49829 0.04200
H 	H 	0.29950 0.84583 0.50464 0.03500
H 	H 	0.35226 0.93267 0.54965 0.04400
C 	C 	0.93516 0.43655 0.53195 -0.10900
C 	C 	0.97673 0.45218 0.51076 0.05000
H 	H 	0.96093 0.54421 0.46476 0.05100
C 	C 	0.53656 0.59615 0.50913 0.01500
C 	C 	0.48435 0.55338 0.53103 -0.05900
C 	C 	0.51434 0.53282 0.55723 0.01700
C 	C 	0.64928 0.59999 0.54003 0.01000
C 	C 	0.61908 0.62047 0.51384 -0.06000
C 	C 	0.50533 0.61592 0.48197 0.03800
C 	C 	0.59698 0.55473 0.56170 -0.09300
H 	H 	0.47330 0.49882 0.57385 0.04200
H 	H 	0.71310 0.61701 0.54307 0.00200
H 	H 	0.65983 0.65433 0.49711 0.04700
C 	C 	0.85462 0.97595 0.66456 -0.07600
C 	C 	0.90216 0.03212 0.64396 -0.03900
C 	C 	0.87093 0.08213 0.62671 0.03700
C 	C 	0.79270 0.08025 0.63144 -0.08200
C 	C 	0.74281 0.01746 0.64973 -0.04300
C 	C 	0.77264 0.96355 0.66553 0.03900
S 	S 	0.92764 0.14035 0.59776 -0.02100
S 	S 	0.70561 0.87646 0.68416 -0.04800
H 	H 	0.67863 0.80607 0.66565 0.04400
H 	H 	0.91075 0.08967 0.57284 0.03700
H 	H 	0.96395 0.03817 0.64171 0.04600
H 	H 	0.68101 0.01125 0.65202 0.02300
H 	H 	0.56165 0.24285 0.74253 0.03300
C 	C 	0.93499 0.52620 0.65917 -0.05900
C 	C 	0.01106 0.56494 0.64763 -0.04500
C 	C 	0.06703 0.63660 0.66187 0.05200
C 	C 	0.04682 0.66896 0.68804 -0.09800
C 	C 	0.97657 0.62051 0.70205 -0.00600
C 	C 	0.92008 0.54974 0.68756 0.03400
S 	S 	0.83024 0.49265 0.70478 -0.06200
H 	H 	0.77448 0.52864 0.69806 0.04000
H 	H 	0.02425 0.54395 0.62639 0.05500
H 	H 	0.96277 0.64242 0.72304 0.04000
C 	C 	0.92877 0.53159 0.98408 0.01200
C 	C 	0.83335 0.49574 0.93722 -0.10800
C 	C 	0.93270 0.59970 0.00312 -0.05800
C 	C 	0.87705 0.51288 0.95853 0.03700
H 	H 	0.89809 0.63978 0.99836 0.05000
C 	C 	0.53491 0.95088 0.00859 0.02700
C 	C 	0.52508 0.92052 0.97947 -0.06400
C 	C 	0.55877 0.97672 0.95677 0.02400
C 	C 	0.61509 0.09333 0.99239 0.01600
C 	C 	0.58146 0.03694 0.01504 -0.06900
C 	C 	0.60229 0.06410 0.96305 -0.09200
H 	H 	0.48939 0.85406 0.97430 0.04600
H 	H 	0.54840 0.95296 0.93429 0.03700
H 	H 	0.64949 0.16010 0.99762 0.03200
H 	H 	0.58971 0.06083 0.03753 0.04900
C 	C 	0.44738 0.44849 0.00163 0.01100
C 	C 	0.47676 0.53309 0.01263 -0.05700
C 	C 	0.49992 0.40817 0.95202 -0.10500
C 	C 	0.39303 0.38359 0.01778 -0.05900
C 	C 	0.47556 0.42746 0.97440 0.04000
H 	H 	0.51938 0.58342 0.00033 0.04600
H 	H 	0.37091 0.31779 0.00953 0.04700
C 	C 	0.93152 0.26275 0.83649 -0.08400
C 	C 	0.97085 0.21972 0.85340 -0.01100
C 	C 	0.02173 0.18404 0.84002 0.02100
C 	C 	0.03091 0.18916 0.80947 -0.06500
C 	C 	0.00541 0.24726 0.79409 -0.05500
C 	C 	0.95441 0.28309 0.80730 0.05300
S 	S 	0.06749 0.12610 0.86111 -0.04900
S 	S 	0.91508 0.34765 0.78649 -0.03500
H 	H 	0.84451 0.29705 0.77323 0.02900
H 	H 	0.14199 0.17971 0.87023 0.04100
H 	H 	0.95740 0.20862 0.87638 0.02200
H 	H 	0.01722 0.25630 0.77092 0.02900
C 	C 	0.48170 0.10898 0.84106 -0.07500
C 	C 	0.45635 0.02206 0.83181 0.02200
S 	S 	0.51365 0.95841 0.84015 -0.04700
H 	H 	0.56636 0.96465 0.81820 0.03100
C 	C 	0.88218 0.72315 0.77273 -0.08700
C 	C 	0.81421 0.65660 0.76156 -0.02000
C 	C 	0.77227 0.58756 0.77930 0.03200
C 	C 	0.79937 0.58429 0.80832 -0.07000
C 	C 	0.87027 0.64750 0.81868 -0.02800
C 	C 	0.91177 0.71656 0.80117 0.05400
S 	S 	0.68394 0.50848 0.76547 -0.06400
S 	S 	0.00066 0.79446 0.81521 -0.10600
H 	H 	0.98352 0.85878 0.82924 0.05600
H 	H 	0.70073 0.44004 0.75452 0.04000
H 	H 	0.79162 0.66070 0.73965 0.04800
H 	H 	0.89269 0.64351 0.84064 0.05900
