data_crystal

_cell_length_a 38.21185
_cell_length_b 38.28236
_cell_length_c 20.37615
_cell_angle_alpha 89.99766
_cell_angle_beta  90.00509
_cell_angle_gamma 119.99993

_symmetry_space_group_name_	'P 1'
_symmetry_space_group_name_H-M	'P 1'

loop_
_symmetry_equiv_pos_as_xyz
  x,y,z

loop_
_atom_site_label
_atom_site_type_symbol
_atom_site_fract_x
_atom_site_fract_y
_atom_site_fract_z
_atom_site_charge
Zn	Zn	0.48142 0.24060 0.99992 1.19300
Zn	Zn	0.41340 0.15116 0.01169 1.22900
Zn	Zn	0.41343 0.26218 0.98815 1.21100
P 	P 	0.41873 0.21513 0.09862 0.30200
P 	P 	0.41871 0.20350 0.90122 0.29900
C 	C 	0.34558 0.27263 0.99413 0.21100
C 	C 	0.50052 0.32200 0.99300 0.24000
C 	C 	0.50048 0.17823 0.00685 0.31800
O 	O 	0.46290 0.22213 0.08900 -0.41100
O 	O 	0.46290 0.24058 0.91084 -0.42800
O 	O 	0.38748 0.17727 0.05607 -0.39200
O 	O 	0.38749 0.21020 0.94376 -0.42300
O 	O 	0.41769 0.25537 0.08109 -0.37700
O 	O 	0.41765 0.16222 0.91875 -0.41200
O 	O 	0.38477 0.29180 0.98399 -0.37800
O 	O 	0.32612 0.09286 0.99665 -0.24700
O 	O 	0.32621 0.23345 0.00364 -0.15100
O 	O 	0.46775 0.30696 0.95592 -0.39900
O 	O 	0.46771 0.16057 0.04392 -0.39900
O 	O 	0.51200 0.29801 0.01910 -0.35800
O 	O 	0.51197 0.21368 0.98074 -0.44300
C 	C 	0.34549 0.07300 0.00595 0.30400
O 	O 	0.38470 0.09292 0.01585 -0.37500
Zn	Zn	0.48142 0.24060 0.49992 1.20600
Zn	Zn	0.41340 0.15116 0.51168 1.21900
Zn	Zn	0.41343 0.26218 0.48816 1.22000
P 	P 	0.41873 0.21513 0.59862 0.30100
P 	P 	0.41871 0.20350 0.40122 0.30200
C 	C 	0.34558 0.27263 0.49413 0.25800
C 	C 	0.50052 0.32200 0.49301 0.28000
C 	C 	0.50048 0.17823 0.50685 0.28000
O 	O 	0.46290 0.22213 0.58900 -0.42200
O 	O 	0.46290 0.24059 0.41085 -0.42000
O 	O 	0.38748 0.17726 0.55607 -0.40800
O 	O 	0.38749 0.21020 0.44376 -0.40600
O 	O 	0.41769 0.25537 0.58109 -0.39500
O 	O 	0.41765 0.16222 0.41875 -0.39300
O 	O 	0.38477 0.29180 0.48400 -0.37500
O 	O 	0.32612 0.09286 0.49664 -0.19900
O 	O 	0.32621 0.23345 0.50364 -0.19900
O 	O 	0.46775 0.30696 0.45593 -0.39800
O 	O 	0.46771 0.16057 0.54392 -0.39900
O 	O 	0.51200 0.29801 0.51911 -0.40200
O 	O 	0.51197 0.21368 0.48074 -0.40200
C 	C 	0.34549 0.07300 0.50595 0.25800
O 	O 	0.38470 0.09292 0.51585 -0.37600
Zn	Zn	0.22931 0.73580 0.99994 1.19400
Zn	Zn	0.13966 0.71404 0.01169 1.23000
Zn	Zn	0.25072 0.82518 0.98818 1.21200
P 	P 	0.20368 0.77280 0.09864 0.30300
P 	P 	0.19203 0.76114 0.90123 0.30000
C 	C 	0.26078 0.90321 0.99347 0.21200
C 	C 	0.31082 0.79827 0.99296 0.24100
C 	C 	0.16697 0.65433 0.00689 0.31900
O 	O 	0.21079 0.73576 0.08902 -0.41000
O 	O 	0.22926 0.75424 0.91086 -0.42700
O 	O 	0.16572 0.76602 0.05607 -0.39100
O 	O 	0.19864 0.79897 0.94378 -0.42200
O 	O 	0.24393 0.81411 0.08111 -0.37700
O 	O 	0.15074 0.72085 0.91875 -0.41100
O 	O 	0.28020 0.88342 0.98401 -0.37700
O 	O 	0.08125 0.74279 0.99667 -0.24700
O 	O 	0.22147 0.88321 0.00237 -0.15000
O 	O 	0.29568 0.81589 0.95593 -0.39800
O 	O 	0.14920 0.66932 0.04394 -0.39800
O 	O 	0.28682 0.76282 0.01913 -0.35700
O 	O 	0.20247 0.67839 0.98077 -0.44200
C 	C 	0.06136 0.70359 0.00596 0.30600
O 	O 	0.08132 0.68439 0.01583 -0.37400
Zn	Zn	0.22931 0.73579 0.49995 1.20700
Zn	Zn	0.13966 0.71404 0.51169 1.22000
Zn	Zn	0.25072 0.82518 0.48818 1.22100
P 	P 	0.20368 0.77279 0.59864 0.30100
P 	P 	0.19203 0.76114 0.40123 0.30200
C 	C 	0.26078 0.90320 0.49347 0.25800
C 	C 	0.31082 0.79827 0.49297 0.28000
C 	C 	0.16697 0.65433 0.50689 0.28000
O 	O 	0.21079 0.73576 0.58902 -0.42200
O 	O 	0.22926 0.75424 0.41086 -0.42000
O 	O 	0.16572 0.76602 0.55607 -0.40800
O 	O 	0.19864 0.79897 0.44378 -0.40600
O 	O 	0.24393 0.81411 0.58111 -0.39500
O 	O 	0.15074 0.72085 0.41875 -0.39400
O 	O 	0.28021 0.88342 0.48401 -0.37500
O 	O 	0.08125 0.74279 0.49666 -0.19900
O 	O 	0.22147 0.88320 0.50237 -0.19900
O 	O 	0.29568 0.81589 0.45593 -0.39800
O 	O 	0.14920 0.66931 0.54394 -0.39900
O 	O 	0.28682 0.76282 0.51914 -0.40200
O 	O 	0.20247 0.67839 0.48078 -0.40200
C 	C 	0.06136 0.70359 0.50595 0.25900
O 	O 	0.08132 0.68439 0.51583 -0.37700
Zn	Zn	0.72350 0.48261 0.99994 1.19400
Zn	Zn	0.70192 0.55049 0.01170 1.23000
Zn	Zn	0.81309 0.55045 0.98820 1.21200
P 	P 	0.76068 0.54514 0.09866 0.30300
P 	P 	0.74901 0.54516 0.90124 0.30000
C 	C 	0.89126 0.61836 0.99352 0.21200
C 	C 	0.78594 0.46351 0.99294 0.24100
C 	C 	0.64194 0.46355 0.00695 0.31900
O 	O 	0.72350 0.50106 0.08903 -0.41000
O 	O 	0.74199 0.50106 0.91086 -0.42700
O 	O 	0.75400 0.57633 0.05608 -0.39100
O 	O 	0.78693 0.57632 0.94381 -0.42200
O 	O 	0.80201 0.54616 0.08113 -0.37600
O 	O 	0.70870 0.54620 0.91876 -0.41100
O 	O 	0.87143 0.57919 0.98406 -0.37700
O 	O 	0.73118 0.63770 0.99795 -0.24600
O 	O 	0.87123 0.63760 0.00243 -0.15000
O 	O 	0.80368 0.49624 0.95593 -0.39800
O 	O 	0.65701 0.49629 0.04395 -0.39700
O 	O 	0.75045 0.45209 0.01911 -0.35700
O 	O 	0.66599 0.45213 0.98076 -0.44200
C 	C 	0.69186 0.61846 0.00663 0.30500
O 	O 	0.67240 0.57926 0.01585 -0.37300
Zn	Zn	0.72350 0.48261 0.49994 1.20600
Zn	Zn	0.70192 0.55049 0.51170 1.22000
Zn	Zn	0.81308 0.55045 0.48820 1.22100
P 	P 	0.76068 0.54515 0.59866 0.30100
P 	P 	0.74901 0.54516 0.40124 0.30200
C 	C 	0.89126 0.61836 0.49351 0.25800
C 	C 	0.78594 0.46351 0.49294 0.28000
C 	C 	0.64194 0.46355 0.50696 0.28000
O 	O 	0.72350 0.50106 0.58903 -0.42200
O 	O 	0.74199 0.50106 0.41086 -0.42000
O 	O 	0.75400 0.57633 0.55608 -0.40700
O 	O 	0.78693 0.57632 0.44381 -0.40600
O 	O 	0.80201 0.54616 0.58113 -0.39500
O 	O 	0.70870 0.54619 0.41876 -0.39300
O 	O 	0.87143 0.57919 0.48405 -0.37500
O 	O 	0.73118 0.63770 0.49795 -0.19800
O 	O 	0.87123 0.63760 0.50241 -0.19800
O 	O 	0.80368 0.49624 0.45593 -0.39800
O 	O 	0.65701 0.49629 0.54396 -0.39900
O 	O 	0.75045 0.45209 0.51911 -0.40200
O 	O 	0.66598 0.45213 0.48077 -0.40200
C 	C 	0.69186 0.61846 0.50663 0.25800
O 	O 	0.67240 0.57926 0.51586 -0.37600
Zn	Zn	0.47142 0.73583 0.99994 1.19400
Zn	Zn	0.53941 0.71424 0.98819 1.21200
Zn	Zn	0.53945 0.82527 0.01171 1.23000
P 	P 	0.53412 0.77293 0.90125 0.30000
P 	P 	0.53412 0.76130 0.09865 0.30300
C 	C 	0.60735 0.90343 0.00595 0.30500
C 	C 	0.45236 0.79820 0.00686 0.31900
C 	C 	0.45232 0.65443 0.99303 0.24100
O 	O 	0.48994 0.73584 0.91087 -0.42700
O 	O 	0.48994 0.75430 0.08902 -0.41000
O 	O 	0.56535 0.76622 0.94380 -0.42200
O 	O 	0.56536 0.79916 0.05611 -0.39100
O 	O 	0.53518 0.81421 0.91877 -0.41100
O 	O 	0.53516 0.72106 0.08112 -0.37600
O 	O 	0.56815 0.88351 0.01587 -0.37400
O 	O 	0.62662 0.74298 0.00368 -0.15000
O 	O 	0.62672 0.88357 0.99664 -0.24600
O 	O 	0.48513 0.81586 0.04393 -0.39800
O 	O 	0.48508 0.66946 0.95596 -0.39800
O 	O 	0.44088 0.76275 0.98074 -0.44200
O 	O 	0.44084 0.67842 0.01913 -0.35700
C 	C 	0.60725 0.70380 0.99417 0.21200
O 	O 	0.56807 0.68462 0.98404 -0.37700
Zn	Zn	0.47142 0.73583 0.49994 1.20700
Zn	Zn	0.53941 0.71424 0.48819 1.22100
Zn	Zn	0.53945 0.82527 0.51171 1.22000
P 	P 	0.53412 0.77293 0.40125 0.30200
P 	P 	0.53412 0.76129 0.59865 0.30100
C 	C 	0.60735 0.90343 0.50596 0.25800
C 	C 	0.45236 0.79820 0.50686 0.28000
C 	C 	0.45232 0.65442 0.49303 0.28000
O 	O 	0.48994 0.73584 0.41086 -0.42000
O 	O 	0.48994 0.75430 0.58902 -0.42200
O 	O 	0.56535 0.76622 0.44380 -0.40600
O 	O 	0.56536 0.79916 0.55611 -0.40700
O 	O 	0.53518 0.81421 0.41877 -0.39300
O 	O 	0.53515 0.72106 0.58112 -0.39500
O 	O 	0.56815 0.88351 0.51587 -0.37600
O 	O 	0.62662 0.74297 0.50368 -0.19900
O 	O 	0.62672 0.88357 0.49665 -0.19800
O 	O 	0.48513 0.81586 0.54393 -0.39900
O 	O 	0.48508 0.66946 0.45595 -0.39800
O 	O 	0.44088 0.76275 0.48074 -0.40200
O 	O 	0.44084 0.67842 0.51912 -0.40200
C 	C 	0.60725 0.70379 0.49417 0.25800
O 	O 	0.56807 0.68462 0.48404 -0.37500
Zn	Zn	0.72354 0.24063 0.99996 1.19400
Zn	Zn	0.70212 0.15125 0.98819 1.21200
Zn	Zn	0.81318 0.26238 0.01172 1.23000
P 	P 	0.76081 0.21529 0.90125 0.30000
P 	P 	0.74917 0.20363 0.09866 0.30300
C 	C 	0.89149 0.27283 0.00595 0.30400
C 	C 	0.78588 0.32210 0.00692 0.31900
C 	C 	0.64203 0.17816 0.99297 0.24100
O 	O 	0.72358 0.22219 0.91087 -0.42700
O 	O 	0.74206 0.24067 0.08904 -0.41000
O 	O 	0.75420 0.17746 0.94381 -0.42200
O 	O 	0.78713 0.21040 0.05610 -0.39100
O 	O 	0.80210 0.25558 0.91878 -0.41100
O 	O 	0.70891 0.16231 0.08112 -0.37700
O 	O 	0.87152 0.29203 0.01586 -0.37300
O 	O 	0.73137 0.09322 0.00236 -0.15000
O 	O 	0.87159 0.23363 0.99663 -0.24600
O 	O 	0.80364 0.30711 0.04397 -0.39700
O 	O 	0.65716 0.16054 0.95594 -0.39800
O 	O 	0.75038 0.29804 0.98079 -0.44200
O 	O 	0.66602 0.21361 0.01914 -0.35700
C 	C 	0.69206 0.07322 0.99347 0.21200
O 	O 	0.67264 0.09301 0.98402 -0.37700
Zn	Zn	0.72354 0.24063 0.49995 1.20700
Zn	Zn	0.70213 0.15125 0.48819 1.22100
Zn	Zn	0.81318 0.26238 0.51172 1.22100
P 	P 	0.76081 0.21529 0.40125 0.30200
P 	P 	0.74917 0.20363 0.59866 0.30100
C 	C 	0.89148 0.27283 0.50596 0.25800
C 	C 	0.78588 0.32209 0.50692 0.28000
C 	C 	0.64203 0.17816 0.49296 0.28000
O 	O 	0.72358 0.22219 0.41087 -0.42000
O 	O 	0.74206 0.24067 0.58903 -0.42200
O 	O 	0.75420 0.17746 0.44381 -0.40600
O 	O 	0.78713 0.21040 0.55611 -0.40700
O 	O 	0.80210 0.25557 0.41878 -0.39300
O 	O 	0.70891 0.16231 0.58112 -0.39500
O 	O 	0.87152 0.29203 0.51587 -0.37600
O 	O 	0.73137 0.09322 0.50237 -0.19900
O 	O 	0.87159 0.23363 0.49665 -0.19800
O 	O 	0.80364 0.30711 0.54396 -0.39900
O 	O 	0.65716 0.16053 0.45594 -0.39800
O 	O 	0.75038 0.29804 0.48078 -0.40200
O 	O 	0.66602 0.21361 0.51913 -0.40200
C 	C 	0.69206 0.07322 0.49348 0.25800
O 	O 	0.67263 0.09301 0.48402 -0.37500
Zn	Zn	0.22934 0.49382 0.99992 1.19400
Zn	Zn	0.13975 0.42598 0.98816 1.21200
Zn	Zn	0.25092 0.42594 0.01169 1.23000
P 	P 	0.20383 0.43127 0.90122 0.30000
P 	P 	0.19217 0.43128 0.09864 0.30300
C 	C 	0.26098 0.35797 0.00661 0.30500
C 	C 	0.31091 0.51288 0.00696 0.31900
C 	C 	0.16690 0.51292 0.99290 0.24100
O 	O 	0.21085 0.47537 0.91084 -0.42700
O 	O 	0.22934 0.47536 0.08901 -0.41000
O 	O 	0.16591 0.40010 0.94379 -0.42200
O 	O 	0.19884 0.40009 0.05607 -0.39100
O 	O 	0.24414 0.43023 0.91876 -0.41100
O 	O 	0.15083 0.43027 0.08110 -0.37700
O 	O 	0.28044 0.39716 0.01586 -0.37400
O 	O 	0.08161 0.33882 0.00235 -0.15100
O 	O 	0.22166 0.33873 0.99791 -0.24600
O 	O 	0.29583 0.48014 0.04396 -0.39700
O 	O 	0.14916 0.48018 0.95590 -0.39800
O 	O 	0.28686 0.52430 0.98076 -0.44200
O 	O 	0.20240 0.52433 0.01908 -0.35700
C 	C 	0.06158 0.35806 0.99346 0.21300
O 	O 	0.08141 0.39724 0.98401 -0.37800
Zn	Zn	0.22934 0.49382 0.49992 1.20600
Zn	Zn	0.13975 0.42598 0.48816 1.22100
Zn	Zn	0.25092 0.42594 0.51169 1.22000
P 	P 	0.20383 0.43127 0.40122 0.30200
P 	P 	0.19217 0.43128 0.59864 0.30100
C 	C 	0.26098 0.35797 0.50661 0.25800
C 	C 	0.31091 0.51288 0.50696 0.28000
C 	C 	0.16690 0.51292 0.49290 0.28000
O 	O 	0.21085 0.47536 0.41084 -0.42000
O 	O 	0.22934 0.47536 0.58901 -0.42200
O 	O 	0.16591 0.40010 0.44379 -0.40600
O 	O 	0.19884 0.40009 0.55607 -0.40800
O 	O 	0.24414 0.43023 0.41876 -0.39300
O 	O 	0.15083 0.43027 0.58110 -0.39500
O 	O 	0.28044 0.39716 0.51585 -0.37600
O 	O 	0.08161 0.33882 0.50236 -0.20000
O 	O 	0.22166 0.33873 0.49791 -0.19900
O 	O 	0.29583 0.48014 0.54396 -0.39900
O 	O 	0.14916 0.48018 0.45590 -0.39800
O 	O 	0.28686 0.52430 0.48076 -0.40200
O 	O 	0.20240 0.52433 0.51908 -0.40200
C 	C 	0.06158 0.35806 0.49347 0.25900
O 	O 	0.08141 0.39724 0.48401 -0.37600
C 	C 	0.18951 0.41922 0.68380 0.09300
N 	N 	0.22090 0.41839 0.71320 -0.06100
N 	N 	0.22324 0.41825 0.77844 -0.05200
C 	C 	0.19440 0.41921 0.81605 0.09200
N 	N 	0.16219 0.41839 0.78666 -0.06200
N 	N 	0.15971 0.41826 0.72142 -0.05100
C 	C 	0.18951 0.41922 0.18380 0.09700
N 	N 	0.22089 0.41839 0.21319 -0.05900
N 	N 	0.22324 0.41825 0.27844 -0.04900
C 	C 	0.19440 0.41921 0.31605 0.09500
N 	N 	0.16219 0.41839 0.28666 -0.05900
N 	N 	0.15971 0.41826 0.22142 -0.04800
C 	C 	0.93577 0.29511 0.50348 0.07300
N 	N 	0.95651 0.27490 0.50116 -0.04500
N 	N 	0.99671 0.29505 0.49774 -0.04300
C 	C 	0.01729 0.33597 0.49591 0.06800
N 	N 	0.99657 0.35621 0.49801 -0.04500
N 	N 	0.95635 0.33606 0.50186 -0.04700
C 	C 	0.93577 0.29511 0.00347 0.07200
N 	N 	0.95635 0.33606 0.00186 -0.02500
N 	N 	0.99657 0.35622 0.99800 -0.06700
C 	C 	0.01729 0.33597 0.99590 0.07000
N 	N 	0.99671 0.29505 0.99772 -0.06800
N 	N 	0.95651 0.27490 0.00115 -0.02000
C 	C 	0.75861 0.20101 0.68383 0.09300
N 	N 	0.72980 0.17124 0.72144 -0.05100
N 	N 	0.73213 0.17371 0.78668 -0.06200
C 	C 	0.76348 0.20590 0.81608 0.09200
N 	N 	0.79326 0.23472 0.77846 -0.05200
N 	N 	0.79079 0.23238 0.71322 -0.06100
C 	C 	0.76349 0.20590 0.31608 0.09600
N 	N 	0.73214 0.17371 0.28669 -0.05900
N 	N 	0.72980 0.17124 0.22144 -0.04800
C 	C 	0.75861 0.20101 0.18383 0.09700
N 	N 	0.79079 0.23237 0.21322 -0.05900
N 	N 	0.79326 0.23472 0.27847 -0.04900
C 	C 	0.42500 0.61087 0.49655 0.06300
N 	N 	0.40679 0.59017 0.44108 -0.04500
N 	N 	0.37193 0.55543 0.44462 -0.04800
C 	C 	0.35452 0.54026 0.50375 0.06300
N 	N 	0.37501 0.55873 0.55925 -0.04700
N 	N 	0.40968 0.59365 0.55571 -0.05000
C 	C 	0.66991 0.02901 0.49593 0.07300
N 	N 	0.62890 0.00832 0.49802 -0.04700
N 	N 	0.60887 0.96818 0.50187 -0.04700
C 	C 	0.62932 0.94764 0.50348 0.07300
N 	N 	0.67030 0.96833 0.50117 -0.04500
N 	N 	0.69033 0.00846 0.49775 -0.04500
C 	C 	0.42500 0.61087 0.99655 0.03600
N 	N 	0.40679 0.59017 0.94108 -0.04700
N 	N 	0.37193 0.55543 0.94463 -0.07200
C 	C 	0.35452 0.54026 0.00375 0.09100
N 	N 	0.37501 0.55873 0.05926 -0.04500
N 	N 	0.40968 0.59365 0.05572 -0.02600
C 	C 	0.66991 0.02901 0.99592 0.07500
N 	N 	0.62890 0.00832 0.99802 -0.06900
N 	N 	0.60888 0.96818 0.00186 -0.02500
C 	C 	0.62932 0.94764 0.00347 0.07200
N 	N 	0.67031 0.96834 0.00115 -0.02000
N 	N 	0.69033 0.00847 0.99774 -0.07000
C 	C 	0.54618 0.77069 0.68383 0.09300
N 	N 	0.54712 0.74189 0.72144 -0.05100
N 	N 	0.54699 0.74423 0.78668 -0.06200
C 	C 	0.54619 0.77557 0.81607 0.09200
N 	N 	0.54717 0.80532 0.77846 -0.05200
N 	N 	0.54703 0.80285 0.71322 -0.06100
C 	C 	0.54619 0.77557 0.31607 0.09600
N 	N 	0.54700 0.74423 0.28668 -0.05900
N 	N 	0.54713 0.74189 0.22144 -0.04800
C 	C 	0.54619 0.77069 0.18383 0.09700
N 	N 	0.54703 0.80285 0.21322 -0.05900
N 	N 	0.54716 0.80532 0.27846 -0.04900
C 	C 	0.80208 0.36563 0.50347 0.06300
N 	N 	0.80405 0.38287 0.44430 -0.04800
N 	N 	0.80427 0.41775 0.44075 -0.04500
C 	C 	0.80215 0.43614 0.49624 0.06300
N 	N 	0.80430 0.42095 0.55538 -0.05000
N 	N 	0.80445 0.38626 0.55893 -0.04700
C 	C 	0.66973 0.64058 0.50421 0.07300
N 	N 	0.69017 0.68150 0.50263 -0.04500
N 	N 	0.67017 0.70168 0.49922 -0.04500
C 	C 	0.62919 0.68149 0.49666 0.07300
N 	N 	0.60873 0.64054 0.49803 -0.04700
N 	N 	0.62873 0.62035 0.50188 -0.04700
C 	C 	0.80209 0.36563 0.00347 0.09100
N 	N 	0.80444 0.38626 0.05894 -0.04500
N 	N 	0.80429 0.42095 0.05539 -0.02600
C 	C 	0.80215 0.43615 0.99624 0.03600
N 	N 	0.80428 0.41775 0.94075 -0.04700
N 	N 	0.80406 0.38288 0.94431 -0.07200
C 	C 	0.62919 0.68149 0.99667 0.07500
N 	N 	0.67017 0.70168 0.99922 -0.07000
N 	N 	0.69017 0.68150 0.00263 -0.02000
C 	C 	0.66973 0.64058 0.00421 0.07200
N 	N 	0.62873 0.62036 0.00188 -0.02500
N 	N 	0.60873 0.64054 0.99803 -0.06900
C 	C 	0.76333 0.55721 0.68383 0.09300
N 	N 	0.73195 0.55804 0.71320 -0.06100
N 	N 	0.72960 0.55817 0.77844 -0.05200
C 	C 	0.75844 0.55722 0.81607 0.09200
N 	N 	0.79066 0.55804 0.78669 -0.06100
N 	N 	0.79313 0.55816 0.72145 -0.05100
C 	C 	0.75844 0.55721 0.31607 0.09600
N 	N 	0.72960 0.55817 0.27844 -0.04900
N 	N 	0.73194 0.55803 0.21320 -0.05900
C 	C 	0.76333 0.55721 0.18383 0.09700
N 	N 	0.79313 0.55817 0.22145 -0.04800
N 	N 	0.79065 0.55804 0.28669 -0.05900
C 	C 	0.35445 0.81453 0.49624 0.06300
N 	N 	0.37500 0.81666 0.44074 -0.04500
N 	N 	0.40972 0.81645 0.44428 -0.04800
C 	C 	0.42503 0.81447 0.50343 0.06300
N 	N 	0.40675 0.81685 0.55891 -0.04700
N 	N 	0.37184 0.81671 0.55538 -0.05000
C 	C 	0.15076 0.61079 0.50343 0.06300
N 	N 	0.14840 0.59017 0.55890 -0.04700
N 	N 	0.14855 0.55547 0.55535 -0.05000
C 	C 	0.15069 0.54028 0.49620 0.06300
N 	N 	0.14856 0.55868 0.44072 -0.04600
N 	N 	0.14878 0.59355 0.44427 -0.04900
C 	C 	0.93554 0.64046 0.49595 0.07400
N 	N 	0.95613 0.68138 0.49778 -0.04500
N 	N 	0.99633 0.70152 0.50119 -0.04300
C 	C 	0.01707 0.68131 0.50348 0.06800
N 	N 	0.99649 0.64036 0.50186 -0.04500
N 	N 	0.95627 0.62021 0.49802 -0.04700
C 	C 	0.42503 0.81447 0.00343 0.09100
N 	N 	0.40972 0.81645 0.94428 -0.07200
N 	N 	0.37500 0.81666 0.94074 -0.04800
C 	C 	0.35445 0.81453 0.99624 0.03600
N 	N 	0.37184 0.81671 0.05538 -0.02600
N 	N 	0.40675 0.81685 0.05891 -0.04500
C 	C 	0.15069 0.54028 0.99620 0.03600
N 	N 	0.14858 0.55868 0.94071 -0.04800
N 	N 	0.14880 0.59356 0.94427 -0.07200
C 	C 	0.15076 0.61080 0.00343 0.09100
N 	N 	0.14839 0.59016 0.05890 -0.04500
N 	N 	0.14854 0.55547 0.05535 -0.02600
C 	C 	0.01707 0.68131 0.00349 0.06700
N 	N 	0.99650 0.64036 0.00186 -0.02300
N 	N 	0.95628 0.62021 0.99802 -0.06900
C 	C 	0.93555 0.64046 0.99595 0.07600
N 	N 	0.95613 0.68138 0.99779 -0.07000
N 	N 	0.99634 0.70152 0.00120 -0.01800
C 	C 	0.18935 0.77052 0.81605 0.09200
N 	N 	0.15959 0.74170 0.77843 -0.05200
N 	N 	0.16206 0.74404 0.71319 -0.06200
C 	C 	0.19424 0.77542 0.68381 0.09300
N 	N 	0.22304 0.80520 0.72143 -0.05100
N 	N 	0.22070 0.80272 0.78667 -0.06200
C 	C 	0.19424 0.77542 0.18381 0.09700
N 	N 	0.22305 0.80519 0.22143 -0.04800
N 	N 	0.22071 0.80271 0.28667 -0.05900
C 	C 	0.18935 0.77052 0.31605 0.09500
N 	N 	0.15959 0.74170 0.27843 -0.04900
N 	N 	0.16206 0.74405 0.21319 -0.05900
C 	C 	0.52784 0.36555 0.49652 0.06300
N 	N 	0.54317 0.38277 0.55569 -0.05000
N 	N 	0.57784 0.41769 0.55924 -0.04700
C 	C 	0.59832 0.43617 0.50374 0.06300
N 	N 	0.58090 0.42100 0.44461 -0.04800
N 	N 	0.54605 0.38626 0.44106 -0.04500
C 	C 	0.52782 0.16196 0.50343 0.06300
N 	N 	0.54312 0.15998 0.44427 -0.04800
N 	N 	0.57784 0.15976 0.44074 -0.04500
C 	C 	0.59839 0.16190 0.49624 0.06300
N 	N 	0.58101 0.15972 0.55537 -0.05000
N 	N 	0.54610 0.15958 0.55890 -0.04700
C 	C 	0.32353 0.02879 0.50346 0.07300
N 	N 	0.28254 0.00809 0.50116 -0.04500
N 	N 	0.26252 0.96796 0.49775 -0.04500
C 	C 	0.28293 0.94741 0.49592 0.07300
N 	N 	0.32394 0.96810 0.49800 -0.04700
N 	N 	0.34397 0.00825 0.50185 -0.04700
C 	C 	0.32365 0.29494 0.49663 0.07300
N 	N 	0.28267 0.27475 0.49917 -0.04500
N 	N 	0.26267 0.29492 0.50259 -0.04500
C 	C 	0.28311 0.33585 0.50418 0.07300
N 	N 	0.32411 0.35607 0.50186 -0.04700
N 	N 	0.34411 0.33589 0.49801 -0.04700
C 	C 	0.40666 0.20574 0.68380 0.09300
N 	N 	0.40583 0.17358 0.71319 -0.06100
N 	N 	0.40569 0.17111 0.77843 -0.05200
C 	C 	0.40665 0.20086 0.81604 0.09200
N 	N 	0.40583 0.23219 0.78664 -0.06200
N 	N 	0.40570 0.23453 0.72140 -0.05100
C 	C 	0.40665 0.20086 0.31604 0.09600
N 	N 	0.40569 0.17111 0.27843 -0.04900
N 	N 	0.40583 0.17358 0.21319 -0.05900
C 	C 	0.40666 0.20574 0.18380 0.09700
N 	N 	0.40570 0.23453 0.22140 -0.04800
N 	N 	0.40583 0.23219 0.28664 -0.05900
C 	C 	0.59832 0.43617 0.00373 0.09100
N 	N 	0.58091 0.42099 0.94460 -0.07200
N 	N 	0.54605 0.38625 0.94105 -0.04700
C 	C 	0.52784 0.36556 0.99652 0.03600
N 	N 	0.54316 0.38278 0.05569 -0.02600
N 	N 	0.57783 0.41770 0.05923 -0.04500
C 	C 	0.52782 0.16196 0.00343 0.09100
N 	N 	0.54611 0.15959 0.05891 -0.04500
N 	N 	0.58101 0.15974 0.05538 -0.02600
C 	C 	0.59840 0.16190 0.99625 0.03600
N 	N 	0.57783 0.15975 0.94075 -0.04700
N 	N 	0.54311 0.15996 0.94428 -0.07200
C 	C 	0.28293 0.94741 0.99592 0.07500
N 	N 	0.32394 0.96810 0.99801 -0.06900
N 	N 	0.34397 0.00825 0.00185 -0.02500
C 	C 	0.32353 0.02879 0.00347 0.07200
N 	N 	0.28254 0.00809 0.00116 -0.02000
N 	N 	0.26252 0.96796 0.99775 -0.07000
C 	C 	0.32365 0.29494 0.99662 0.07500
N 	N 	0.34411 0.33589 0.99801 -0.06900
N 	N 	0.32411 0.35607 0.00186 -0.02500
C 	C 	0.28311 0.33585 0.00418 0.07200
N 	N 	0.26267 0.29492 0.00259 -0.02000
N 	N 	0.28267 0.27475 0.99917 -0.07000
