data_crystal

_cell_length_a 24.79506
_cell_length_b 24.61325
_cell_length_c 34.99134
_cell_angle_alpha 95.48406
_cell_angle_beta  95.48655
_cell_angle_gamma 125.81043

_symmetry_space_group_name_	'P 1'
_symmetry_space_group_name_H-M	'P 1'

loop_
_symmetry_equiv_pos_as_xyz
  x,y,z

loop_
_atom_site_label
_atom_site_type_symbol
_atom_site_fract_x
_atom_site_fract_y
_atom_site_fract_z
_atom_site_charge
C 	C 	0.06365 0.11767 0.01066 -0.03400
C 	C 	0.09004 0.08083 0.00484 -0.01300
C 	C 	0.04622 0.00926 0.99697 -0.02300
H 	H 	0.09762 0.17289 0.01819 0.04300
H 	H 	0.06672 0.98079 0.99371 0.04900
C 	C 	0.02931 0.99265 0.48370 -0.03400
H 	H 	0.01230 0.06688 0.47411 0.04400
H 	H 	0.03065 0.90765 0.49168 0.03500
C 	C 	0.10330 0.04213 0.48820 0.13200
H 	H 	0.13479 0.00429 0.53275 0.06400
O 	O 	0.13234 0.08156 0.45984 -0.21800
H 	H 	0.02422 0.20248 0.98253 0.05500
C 	C 	0.14838 0.04280 0.51505 -0.10900
C 	C 	0.19845 0.10397 0.47115 0.11400
C 	C 	0.20864 0.08228 0.50424 0.02800
O 	O 	0.19480 0.08831 0.02346 -0.21500
C 	C 	0.16386 0.11690 0.00921 0.12500
C 	C 	0.20441 0.17224 0.99182 -0.10900
H 	H 	0.18574 0.18881 0.97003 0.06100
C 	C 	0.24263 0.12293 0.44462 -0.08600
C 	C 	0.29390 0.11476 0.45122 0.01000
C 	C 	0.26075 0.07518 0.51116 -0.09400
H 	H 	0.23533 0.14043 0.41874 0.06700
H 	H 	0.26802 0.05755 0.53698 0.07000
C 	C 	0.30958 0.21184 0.96924 -0.09600
C 	C 	0.26369 0.18142 0.99464 0.02500
C 	C 	0.25742 0.13137 0.01291 0.11500
C 	C 	0.30035 0.11259 0.00843 -0.08500
H 	H 	0.31358 0.25064 0.95469 0.06800
H 	H 	0.29643 0.07396 0.02313 0.06800
C 	C 	0.30490 0.09422 0.48453 0.11800
C 	C 	0.35333 0.19389 0.96520 0.11800
C 	C 	0.34683 0.14344 0.98333 0.00700
C 	C 	0.35309 0.15211 0.43920 -0.06100
O 	O 	0.37113 0.11634 0.49534 -0.18400
H 	H 	0.36646 0.19016 0.42116 0.05600
C 	C 	0.40708 0.15454 0.98766 -0.06100
C 	C 	0.39866 0.15302 0.46566 0.04300
O 	O 	0.41707 0.23875 0.95632 -0.19300
H 	H 	0.42489 0.13798 0.00997 0.06300
C 	C 	0.44866 0.21151 0.97172 0.04200
C 	C 	0.47195 0.19890 0.46709 0.25500
O 	O 	0.49620 0.24711 0.44582 -0.38100
O 	O 	0.51252 0.19909 0.49447 -0.35000
C 	C 	0.99913 0.92369 0.48444 -0.01500
C 	C 	0.98872 0.01335 0.47408 -0.00600
H 	H 	0.97983 0.87264 0.95029 0.06300
C 	C 	0.99356 0.08299 0.00811 -0.01100
C 	C 	0.97615 0.97449 0.99419 -0.02000
C 	C 	0.95013 0.01149 0.99979 -0.01700
H 	H 	0.89601 0.98457 0.99765 0.05900
C 	C 	0.91799 0.96537 0.46429 -0.02600
C 	C 	0.92832 0.87522 0.47508 -0.02400
C 	C 	0.88779 0.89641 0.46537 -0.01200
H 	H 	0.83317 0.85930 0.45803 0.05900
Cu	Cu	0.65235 0.27320 0.00197 0.93000
Cu	Cu	0.71195 0.27371 0.92209 0.87500
Cu	Cu	0.68982 0.37655 0.94831 0.89800
Cu	Cu	0.64318 0.39443 0.02196 0.89600
C 	C 	0.66194 0.32456 0.08185 0.31000
O 	O 	0.55174 0.22727 0.99786 -0.35300
C 	C 	0.67138 0.32365 0.86472 0.31100
O 	O 	0.70189 0.37771 0.00347 -0.63900
O 	O 	0.64659 0.27734 0.94573 -0.64200
O 	O 	0.70155 0.23192 0.00446 -0.35700
O 	O 	0.77631 0.30172 0.96789 -0.41300
O 	O 	0.63081 0.35002 0.06869 -0.38700
O 	O 	0.73680 0.47409 0.95487 -0.35400
C 	C 	0.73250 0.51039 0.98303 0.25200
C 	C 	0.52289 0.25224 0.98118 0.24800
O 	O 	0.56025 0.31551 0.97570 -0.36700
O 	O 	0.68151 0.48133 0.00210 -0.37900
O 	O 	0.67139 0.28721 0.05781 -0.35100
C 	C 	0.76111 0.26278 0.99419 0.25200
O 	O 	0.69382 0.37690 0.89219 -0.38500
O 	O 	0.66932 0.27141 0.87304 -0.40300
H 	H 	0.74955 0.40917 0.01740 0.16900
H 	H 	0.60025 0.24728 0.92988 0.17900
Cu	Cu	0.70525 0.28509 0.43949 0.92800
Cu	Cu	0.72113 0.24366 0.52380 0.87400
Cu	Cu	0.60941 0.25192 0.49740 0.89900
Cu	Cu	0.57326 0.27741 0.41814 0.89800
C 	C 	0.65545 0.27766 0.36091 0.31500
O 	O 	0.74631 0.38420 0.43783 -0.34400
C 	C 	0.67351 0.28728 0.58078 0.30700
O 	O 	0.60172 0.23067 0.44201 -0.63500
O 	O 	0.70782 0.30040 0.49631 -0.64100
O 	O 	0.74925 0.23838 0.43834 -0.34800
O 	O 	0.68946 0.17203 0.48119 -0.42900
O 	O 	0.59786 0.26608 0.36675 -0.37600
C 	C 	0.71548 0.41093 0.44740 0.25300
O 	O 	0.65514 0.37261 0.45624 -0.37800
O 	O 	0.68574 0.25974 0.38385 -0.36300
C 	C 	0.72355 0.18241 0.45281 0.25500
O 	O 	0.61719 0.25806 0.55469 -0.37200
O 	O 	0.72660 0.29321 0.57113 -0.41700
H 	H 	0.57324 0.18110 0.43138 0.16900
H 	H 	0.73605 0.34895 0.50928 0.17700
C 	C 	0.63250 0.33583 0.67384 -0.11400
C 	C 	0.66455 0.32122 0.70171 0.00600
C 	C 	0.70235 0.29891 0.69015 0.12100
C 	C 	0.70600 0.28908 0.65074 -0.03500
C 	C 	0.67275 0.30218 0.62255 -0.12100
C 	C 	0.63704 0.32711 0.63439 0.19200
C 	C 	0.65718 0.32741 0.74287 0.00400
O 	O 	0.73359 0.28414 0.71718 -0.27500
H 	H 	0.73355 0.26986 0.64200 0.05200
O 	O 	0.60587 0.34210 0.60746 -0.28300
H 	H 	0.60393 0.35375 0.68273 0.07400
C 	C 	0.70707 0.38734 0.76995 0.11700
C 	C 	0.70869 0.38756 0.81008 -0.03400
C 	C 	0.66053 0.32818 0.82336 -0.12200
C 	C 	0.60686 0.27041 0.79616 0.19300
C 	C 	0.60561 0.27010 0.75606 -0.11000
O 	O 	0.75700 0.44419 0.75732 -0.27700
H 	H 	0.74949 0.43271 0.83081 0.06200
O 	O 	0.55742 0.21313 0.80872 -0.28800
H 	H 	0.56624 0.22424 0.73525 0.07800
H 	H 	0.64033 0.39078 0.60637 0.14500
H 	H 	0.73923 0.47081 0.75360 0.14600
H 	H 	0.52163 0.21901 0.81164 0.14700
H 	H 	0.77965 0.32737 0.72661 0.15100
C 	C 	0.70066 0.36288 0.27343 -0.11300
C 	C 	0.68757 0.31012 0.24522 0.00600
C 	C 	0.67198 0.24971 0.25640 0.12200
C 	C 	0.66621 0.24114 0.29517 -0.02800
C 	C 	0.67454 0.29201 0.32270 -0.11800
C 	C 	0.69405 0.35396 0.31206 0.19300
C 	C 	0.68162 0.31472 0.20350 0.00400
O 	O 	0.66142 0.19867 0.22936 -0.27000
H 	H 	0.65219 0.19370 0.30337 0.06400
O 	O 	0.70330 0.40448 0.33890 -0.29800
H 	H 	0.71323 0.40973 0.26504 0.07200
C 	C 	0.62325 0.30396 0.18347 0.11600
C 	C 	0.61731 0.30754 0.14382 -0.03400
C 	C 	0.66958 0.32232 0.12384 -0.11800
C 	C 	0.72832 0.33370 0.14398 0.18900
C 	C 	0.73397 0.32954 0.18367 -0.10800
O 	O 	0.57087 0.28742 0.20230 -0.27300
H 	H 	0.57157 0.29783 0.12844 0.06200
O 	O 	0.77977 0.34797 0.12485 -0.28000
H 	H 	0.77904 0.33788 0.19900 0.08000
H 	H 	0.75184 0.43312 0.35137 0.15900
H 	H 	0.58008 0.33156 0.21275 0.14600
H 	H 	0.81037 0.39839 0.12800 0.14300
H 	H 	0.61221 0.16905 0.21834 0.15400
C 	C 	0.82570 0.69840 0.47910 0.11300
C 	C 	0.76324 0.63353 0.47038 -0.08600
C 	C 	0.76087 0.57899 0.45155 0.01000
C 	C 	0.81856 0.58727 0.44379 0.11900
C 	C 	0.88094 0.65225 0.45231 -0.09600
C 	C 	0.88333 0.70669 0.47132 0.02900
O 	O 	0.83073 0.75806 0.48292 -0.21500
C 	C 	0.89657 0.80246 0.47599 0.12800
C 	C 	0.92815 0.77227 0.46888 -0.10900
O 	O 	0.81384 0.52776 0.44062 -0.19000
C 	C 	0.74855 0.48387 0.44834 0.04100
C 	C 	0.71648 0.51365 0.45458 -0.06000
H 	H 	0.71779 0.62620 0.47688 0.06700
H 	H 	0.92642 0.65959 0.44587 0.06900
H 	H 	0.96958 0.79148 0.45309 0.06300
H 	H 	0.67402 0.49412 0.46953 0.05500
C 	C 	0.80984 0.01492 0.46112 0.11300
C 	C 	0.74924 0.00720 0.46111 -0.08500
C 	C 	0.73842 0.04685 0.43992 0.00800
C 	C 	0.78675 0.09364 0.42045 0.11900
C 	C 	0.84593 0.09873 0.41917 -0.09500
C 	C 	0.85725 0.06086 0.44149 0.02800
O 	O 	0.81842 0.96640 0.47045 -0.21500
C 	C 	0.87553 0.98769 0.45384 0.12600
C 	C 	0.89828 0.04353 0.43615 -0.10600
O 	O 	0.78472 0.14824 0.41685 -0.18500
C 	C 	0.73239 0.13107 0.43704 0.03800
C 	C 	0.70405 0.07046 0.45043 -0.05800
H 	H 	0.71207 0.97205 0.47718 0.06400
H 	H 	0.88396 0.13470 0.40380 0.07200
H 	H 	0.93332 0.06100 0.41601 0.06600
H 	H 	0.67726 0.05758 0.47469 0.05100
C 	C 	0.85352 0.79878 0.99466 0.10800
C 	C 	0.81772 0.74593 0.01547 -0.08200
C 	C 	0.82076 0.69077 0.00889 0.01000
C 	C 	0.85356 0.68537 0.98076 0.11700
C 	C 	0.88930 0.73815 0.95986 -0.09500
C 	C 	0.88666 0.79361 0.96660 0.03000
O 	O 	0.87786 0.86527 0.00925 -0.21000
C 	C 	0.93004 0.89940 0.98818 0.12500
C 	C 	0.93536 0.85731 0.96247 -0.10700
O 	O 	0.82946 0.61880 0.96651 -0.18700
C 	C 	0.77831 0.58509 0.98833 0.04100
C 	C 	0.77285 0.62736 0.01372 -0.05800
H 	H 	0.79089 0.74910 0.03720 0.06700
H 	H 	0.91621 0.73498 0.93819 0.07000
H 	H 	0.72788 0.61196 0.02536 0.05600
C 	C 	0.89458 0.25037 0.01630 0.11800
C 	C 	0.94203 0.24524 0.00088 -0.09000
C 	C 	0.93601 0.18512 0.00150 0.02100
C 	C 	0.88898 0.13451 0.01920 0.11600
C 	C 	0.84227 0.13977 0.03530 -0.08700
C 	C 	0.84713 0.19941 0.03420 0.01100
O 	O 	0.87560 0.28897 0.00244 -0.19200
C 	C 	0.81158 0.25514 0.01254 0.04400
C 	C 	0.79433 0.20203 0.03164 -0.05300
O 	O 	0.90413 0.09100 0.02918 -0.21200
C 	C 	0.96547 0.12102 0.01577 0.12000
C 	C 	0.98582 0.17861 0.00042 -0.09600
H 	H 	0.97975 0.28501 0.98705 0.06500
H 	H 	0.80397 0.09928 0.04851 0.07000
H 	H 	0.74282 0.15908 0.03204 0.06100
