data_crystal

_cell_length_a 19.15983
_cell_length_b 17.24546
_cell_length_c 35.69435
_cell_angle_alpha 88.29367
_cell_angle_beta  88.43904
_cell_angle_gamma 107.43701

_symmetry_space_group_name_	'P 1'
_symmetry_space_group_name_H-M	'P 1'

loop_
_symmetry_equiv_pos_as_xyz
  x,y,z

loop_
_atom_site_label
_atom_site_type_symbol
_atom_site_fract_x
_atom_site_fract_y
_atom_site_fract_z
_atom_site_charge
Zn	Zn	0.58022 0.31618 0.88616 1.22400
Zn	Zn	0.68157 0.46431 0.93344 1.20000
C 	C 	0.80146 0.24043 0.84796 0.27800
Zn	Zn	0.75180 0.37576 0.87777 1.22100
Zn	Zn	0.63930 0.19531 0.84795 1.19100
H 	H 	0.68286 0.31690 0.93883 0.18600
C 	C 	0.72332 0.52526 0.85119 0.29000
O 	O 	0.53231 0.14539 0.84051 -0.46300
O 	O 	0.49738 0.26045 0.84873 -0.39800
O 	O 	0.67609 0.35376 0.91839 -0.79000
O 	O 	0.57730 0.45015 0.94413 -0.46100
O 	O 	0.53428 0.22677 0.92269 -0.43100
O 	O 	0.53406 0.40420 0.88739 -0.42300
O 	O 	0.61746 0.16119 0.90789 -0.40600
O 	O 	0.78305 0.53481 0.92873 -0.45500
H 	H 	0.65048 0.33943 0.82514 0.17000
O 	O 	0.83680 0.43757 0.91428 -0.39100
O 	O 	0.65694 0.31417 0.84956 -0.79600
O 	O 	0.73871 0.18543 0.85774 -0.44900
O 	O 	0.76608 0.47833 0.84748 -0.43500
O 	O 	0.81934 0.31325 0.86239 -0.42500
O 	O 	0.66926 0.50646 0.87658 -0.41500
C 	C 	0.48179 0.18354 0.83995 0.29200
C 	C 	0.53065 0.44511 0.91751 0.29800
C 	C 	0.55856 0.16396 0.92697 0.27800
C 	C 	0.83868 0.50590 0.93037 0.27700
Zn	Zn	0.64933 0.41724 0.54567 1.22100
Zn	Zn	0.49015 0.29072 0.51365 1.19400
C 	C 	0.69642 0.17062 0.60283 0.32500
Zn	Zn	0.59077 0.22680 0.56160 1.22100
Zn	Zn	0.73945 0.35160 0.59937 1.19200
H 	H 	0.62156 0.29442 0.49767 0.17300
C 	C 	0.45136 0.22615 0.59443 0.29000
O 	O 	0.79983 0.46671 0.59130 -0.46400
O 	O 	0.70589 0.51751 0.57815 -0.39600
O 	O 	0.59636 0.30670 0.52029 -0.78800
O 	O 	0.48291 0.40212 0.51143 -0.44500
O 	O 	0.73809 0.43375 0.51339 -0.42900
O 	O 	0.59042 0.48754 0.52988 -0.41400
O 	O 	0.77070 0.33014 0.54214 -0.40900
O 	O 	0.44067 0.17246 0.51579 -0.46000
H 	H 	0.60599 0.35095 0.60980 0.17600
O 	O 	0.53970 0.12778 0.52668 -0.38200
O 	O 	0.63496 0.33862 0.58866 -0.78700
O 	O 	0.73714 0.23942 0.61595 -0.46800
O 	O 	0.50367 0.19156 0.59627 -0.43500
O 	O 	0.66479 0.17015 0.57051 -0.44000
O 	O 	0.46119 0.29163 0.57275 -0.41500
C 	C 	0.77218 0.52768 0.59020 0.29400
C 	C 	0.53963 0.46662 0.50487 0.26200
C 	C 	0.78105 0.38694 0.51513 0.27000
C 	C 	0.47501 0.11743 0.51217 0.26300
Zn	Zn	0.93314 0.91963 0.72552 1.22800
Zn	Zn	0.03920 0.92040 0.79827 1.19700
C 	C 	0.16270 0.06747 0.65731 0.31500
Zn	Zn	0.08863 0.04018 0.73153 1.21900
Zn	Zn	0.99854 0.00627 0.65079 1.18600
H 	H 	0.06516 0.88756 0.72978 0.17700
C 	C 	0.00754 0.08853 0.79187 0.32200
O 	O 	0.89392 0.97546 0.63914 -0.44700
O 	O 	0.83979 0.93953 0.69864 -0.38100
O 	O 	0.04024 0.92301 0.74228 -0.77700
O 	O 	0.94282 0.83721 0.81056 -0.45400
O 	O 	0.91996 0.81808 0.70017 -0.45300
O 	O 	0.87548 0.89579 0.77310 -0.43300
O 	O 	0.98512 0.87525 0.64733 -0.40000
O 	O 	0.13042 0.99981 0.81576 -0.44200
H 	H 	0.96807 0.06664 0.71001 0.17100
O 	O 	0.18611 0.04046 0.75819 -0.41600
O 	O 	0.99156 0.02389 0.70505 -0.82300
O 	O 	0.10643 0.01993 0.63998 -0.46100
O 	O 	0.06475 0.11337 0.76832 -0.44600
O 	O 	0.15360 0.09859 0.68961 -0.45100
O 	O 	0.98309 0.01207 0.80397 -0.43100
C 	C 	0.83849 0.96725 0.66352 0.27500
C 	C 	0.88000 0.83617 0.79601 0.33000
C 	C 	0.93116 0.81747 0.66406 0.32500
C 	C 	0.19018 0.02932 0.79443 0.29600
Zn	Zn	0.32026 0.70719 0.38063 1.22700
Zn	Zn	0.20952 0.56217 0.43442 1.19800
C 	C 	0.10900 0.79542 0.33915 0.30900
Zn	Zn	0.15021 0.65616 0.37497 1.22300
Zn	Zn	0.27169 0.83108 0.33734 1.19200
H 	H 	0.21488 0.71250 0.43373 0.18800
C 	C 	0.17533 0.50352 0.35389 0.28700
O 	O 	0.38088 0.87616 0.32971 -0.44900
O 	O 	0.40796 0.75667 0.34093 -0.38600
O 	O 	0.22193 0.67459 0.41473 -0.78600
O 	O 	0.31173 0.56709 0.44640 -0.45500
O 	O 	0.36547 0.79703 0.41248 -0.40900
O 	O 	0.36129 0.61770 0.38860 -0.44600
O 	O 	0.28434 0.86371 0.39626 -0.42800
O 	O 	0.10559 0.49686 0.43297 -0.47600
H 	H 	0.25577 0.68477 0.32060 0.17200
O 	O 	0.05963 0.59849 0.41347 -0.37700
O 	O 	0.24832 0.71159 0.34387 -0.79800
O 	O 	0.17339 0.84820 0.34477 -0.44900
O 	O 	0.13478 0.55261 0.34910 -0.42300
O 	O 	0.08822 0.72340 0.35708 -0.41100
O 	O 	0.22543 0.51739 0.37948 -0.41200
C 	C 	0.42829 0.83390 0.32961 0.29500
C 	C 	0.36869 0.59256 0.42287 0.39500
C 	C 	0.33993 0.85871 0.41596 0.38300
C 	C 	0.05122 0.52832 0.43157 0.37500
Zn	Zn	0.20727 0.72413 0.06793 1.21900
Zn	Zn	0.35930 0.83713 0.10591 1.19900
C 	C 	0.35416 0.57738 0.00100 0.35600
Zn	Zn	0.36800 0.72050 0.04539 1.22500
Zn	Zn	0.20981 0.58679 0.01732 1.19800
H 	H 	0.30949 0.68237 0.11051 0.17900
C 	C 	0.39459 0.89032 0.02167 0.35000
O 	O 	0.10556 0.57439 0.02435 -0.46900
O 	O 	0.11080 0.70585 0.03555 -0.39800
O 	O 	0.30958 0.72488 0.09124 -0.78800
O 	O 	0.27465 0.86847 0.12577 -0.47200
O 	O 	0.14977 0.63077 0.10233 -0.41200
O 	O 	0.19591 0.83351 0.07754 -0.43400
O 	O 	0.21085 0.55171 0.07587 -0.41400
O 	O 	0.46615 0.86617 0.09620 -0.45000
H 	H 	0.26041 0.73872 0.00192 0.17300
O 	O 	0.46960 0.74484 0.07355 -0.39100
O 	O 	0.26283 0.70328 0.02388 -0.78400
O 	O 	0.28707 0.53545 0.01119 -0.47300
O 	O 	0.40920 0.82192 0.01531 -0.43300
O 	O 	0.39473 0.62782 0.02445 -0.40500
O 	O 	0.35289 0.89547 0.05105 -0.39200
C 	C 	0.07799 0.63514 0.02117 0.37400
C 	C 	0.22305 0.88119 0.10529 0.34200
C 	C 	0.15811 0.55841 0.09843 0.28600
C 	C 	0.50233 0.81442 0.08878 0.31700
Zn	Zn	0.98981 0.14707 0.21327 1.22200
Zn	Zn	0.87099 0.12436 0.28546 1.19300
C 	C 	0.78119 0.96851 0.14344 0.32000
Zn	Zn	0.83972 0.01230 0.21938 1.21500
Zn	Zn	0.93742 0.07397 0.13863 1.18900
H 	H 	0.85081 0.16279 0.21696 0.18100
C 	C 	0.91646 0.96390 0.28126 0.31200
O 	O 	0.04207 0.13263 0.12790 -0.45400
O 	O 	0.09076 0.14612 0.18610 -0.37600
O 	O 	0.87768 0.12912 0.22953 -0.79100
O 	O 	0.96210 0.21295 0.29658 -0.45900
O 	O 	0.99924 0.25130 0.18740 -0.45000
O 	O 	0.04072 0.16514 0.26092 -0.43800
O 	O 	0.91950 0.19400 0.14303 -0.41700
O 	O 	0.78092 0.03661 0.30433 -0.48000
H 	H 	0.96863 0.00283 0.19625 0.16600
O 	O 	0.73684 0.99832 0.24677 -0.41100
O 	O 	0.94127 0.04262 0.19221 -0.80800
O 	O 	0.82973 0.03370 0.12769 -0.47400
O 	O 	0.86563 0.93852 0.25649 -0.43500
O 	O 	0.78124 0.95022 0.17959 -0.43500
O 	O 	0.93400 0.03897 0.29265 -0.42800
C 	C 	0.09206 0.12380 0.15095 0.27300
C 	C 	0.02913 0.21732 0.28479 0.33600
C 	C 	0.96901 0.25755 0.15562 0.33300
C 	C 	0.72689 0.99860 0.28322 0.35400
C 	C 	0.09719 0.48413 0.10947 -0.02600
C 	C 	0.05345 0.48109 0.14191 -0.02700
C 	C 	0.00083 0.40803 0.15385 0.04100
C 	C 	0.99261 0.33652 0.13404 -0.13100
C 	C 	0.02937 0.34266 0.09855 0.14200
C 	C 	0.08287 0.41577 0.08710 -0.05600
H 	H 	0.97117 0.40517 0.18040 0.02700
H 	H 	0.11300 0.41941 0.06062 0.04600
H 	H 	0.06215 0.53411 0.15877 0.05000
N 	N 	0.01407 0.27884 0.07550 -0.19900
H 	H 	0.96754 0.22897 0.08012 0.08200
H 	H 	0.04581 0.28148 0.05094 0.08400
C 	C 	0.72019 0.91948 0.12153 -0.06500
C 	C 	0.69277 0.95535 0.09190 0.00900
C 	C 	0.62465 0.91502 0.07768 0.00800
C 	C 	0.58214 0.83949 0.09366 -0.10800
C 	C 	0.61335 0.79911 0.12064 0.11800
C 	C 	0.68286 0.83919 0.13384 -0.05600
H 	H 	0.60226 0.94540 0.05620 0.05500
H 	H 	0.70614 0.80936 0.15517 0.05500
H 	H 	0.72204 0.01627 0.08129 0.02600
N 	N 	0.57629 0.72337 0.13483 -0.20400
H 	H 	0.52550 0.69083 0.12507 0.09500
H 	H 	0.59905 0.69538 0.15555 0.08600
C 	C 	0.13507 0.06938 0.14065 -0.04900
C 	C 	0.13586 0.00493 0.16532 -0.06900
C 	C 	0.16259 0.94283 0.15307 0.04400
C 	C 	0.19022 0.94469 0.11613 -0.12000
C 	C 	0.19281 0.01167 0.09143 0.11800
C 	C 	0.16407 0.07294 0.10388 -0.07400
H 	H 	0.16175 0.89281 0.17236 0.01800
H 	H 	0.16358 0.12290 0.08481 0.05600
H 	H 	0.11282 0.00107 0.19363 0.03300
N 	N 	0.22371 0.01838 0.05623 -0.21300
H 	H 	0.24876 0.97635 0.04664 0.13100
H 	H 	0.22436 0.06748 0.03819 0.09100
C 	C 	0.50614 0.87509 0.31930 -0.02000
C 	C 	0.53766 0.95761 0.32649 -0.03400
C 	C 	0.61159 0.99632 0.31722 0.06500
C 	C 	0.65499 0.95321 0.30055 -0.14200
C 	C 	0.62461 0.86874 0.29529 0.14800
C 	C 	0.54993 0.83075 0.30406 -0.07600
H 	H 	0.63450 0.06072 0.32172 -0.00100
H 	H 	0.52614 0.76659 0.29919 0.06300
H 	H 	0.50491 0.99190 0.33925 0.07000
N 	N 	0.66702 0.82371 0.28252 -0.20600
H 	H 	0.72378 0.84826 0.27928 0.10600
H 	H 	0.64368 0.76221 0.27724 0.09100
C 	C 	0.15738 0.42680 0.33431 -0.03700
C 	C 	0.13703 0.35262 0.35503 -0.03100
C 	C 	0.10382 0.28018 0.33743 0.02600
C 	C 	0.09120 0.28123 0.29892 -0.12900
C 	C 	0.12264 0.35395 0.27714 0.12800
C 	C 	0.15255 0.42718 0.29523 -0.06700
H 	H 	0.08229 0.22428 0.35427 0.02800
H 	H 	0.17161 0.48416 0.27895 0.04700
H 	H 	0.14220 0.35169 0.38519 0.04200
N 	N 	0.12467 0.35353 0.23911 -0.20400
H 	H 	0.11447 0.29903 0.22529 0.09800
H 	H 	0.14227 0.40807 0.22309 0.09000
C 	C 	0.95646 0.90904 0.29539 -0.04700
C 	C 	0.95956 0.89533 0.33410 -0.02200
C 	C 	0.00654 0.85405 0.34806 0.02700
C 	C 	0.05187 0.82686 0.32352 -0.11100
C 	C 	0.04665 0.83722 0.28423 0.11600
C 	C 	0.99862 0.87833 0.27050 -0.06000
H 	H 	0.00973 0.84583 0.37811 0.04300
H 	H 	0.99594 0.88863 0.24052 0.04000
H 	H 	0.92691 0.91860 0.35348 0.05200
N 	N 	0.08735 0.80814 0.25969 -0.20200
H 	H 	0.12149 0.77493 0.26895 0.06200
H 	H 	0.08394 0.81717 0.23079 0.08000
C 	C 	0.44061 0.04406 0.49145 0.02600
C 	C 	0.36390 0.01458 0.49024 -0.11200
C 	C 	0.33097 0.95453 0.46537 0.10900
C 	C 	0.37432 0.92262 0.44181 -0.22900
C 	C 	0.45103 0.95010 0.44390 0.43200
C 	C 	0.48387 0.01024 0.46874 -0.20700
H 	H 	0.27182 0.93271 0.46450 0.01400
H 	H 	0.54304 0.03283 0.46922 0.11400
H 	H 	0.32984 0.03941 0.50806 0.06300
F 	F 	0.49379 0.92040 0.42096 -0.45000
C 	C 	0.84780 0.40782 0.49062 0.00700
C 	C 	0.91422 0.40463 0.50516 -0.07100
C 	C 	0.98035 0.44306 0.48556 0.06300
C 	C 	0.98084 0.48494 0.45112 -0.21500
C 	C 	0.91414 0.48391 0.43543 0.39300
C 	C 	0.84797 0.44517 0.45503 -0.16500
H 	H 	0.03138 0.44237 0.49771 0.00800
H 	H 	0.79690 0.44660 0.44315 0.10400
H 	H 	0.91502 0.37604 0.53252 0.04700
F 	F 	0.91330 0.52022 0.40124 -0.45300
C 	C 	0.53201 0.52789 0.47752 0.00700
C 	C 	0.51974 0.50583 0.44018 -0.07800
C 	C 	0.47325 0.53691 0.41903 0.07700
C 	C 	0.44040 0.59099 0.43512 -0.21700
C 	C 	0.46613 0.62636 0.46899 0.39900
C 	C 	0.51218 0.59472 0.49022 -0.15700
H 	H 	0.45663 0.51231 0.39198 0.01900
H 	H 	0.52505 0.61555 0.51827 0.11700
H 	H 	0.53849 0.45722 0.42932 0.03100
F 	F 	0.43991 0.68474 0.48322 -0.45200
C 	C 	0.77450 0.99013 0.65106 -0.02200
C 	C 	0.75814 0.98648 0.61290 -0.01200
C 	C 	0.72245 0.03877 0.59729 -0.00200
C 	C 	0.70157 0.09371 0.61992 -0.12700
C 	C 	0.70352 0.08434 0.65940 0.12500
C 	C 	0.74173 0.03370 0.67475 -0.10000
H 	H 	0.71731 0.04182 0.56717 0.04400
H 	H 	0.75006 0.03266 0.70467 0.05200
H 	H 	0.77916 0.94879 0.59471 0.05100
N 	N 	0.66992 0.12464 0.68243 -0.20300
H 	H 	0.63671 0.15762 0.67172 0.07100
H 	H 	0.67416 0.12035 0.71151 0.06600
C 	C 	0.37722 0.18246 0.61010 -0.04300
C 	C 	0.31521 0.18808 0.59143 -0.03200
C 	C 	0.24499 0.14464 0.60526 0.01900
C 	C 	0.23550 0.09519 0.63804 -0.12800
C 	C 	0.29783 0.08514 0.65570 0.12900
C 	C 	0.36833 0.13030 0.64197 -0.06800
H 	H 	0.19775 0.15211 0.59131 0.01700
H 	H 	0.41608 0.12407 0.65589 0.05400
H 	H 	0.32136 0.22613 0.56611 0.03400
N 	N 	0.29033 0.03100 0.68512 -0.21000
H 	H 	0.23934 0.99052 0.69329 0.09900
H 	H 	0.33629 0.02632 0.69903 0.08400
C 	C 	0.81154 0.60441 0.60713 -0.04700
C 	C 	0.88561 0.64323 0.59766 -0.03000
C 	C 	0.92363 0.71422 0.61533 0.01700
C 	C 	0.88821 0.74676 0.64303 -0.12400
C 	C 	0.81239 0.70792 0.65200 0.12900
C 	C 	0.77554 0.63664 0.63424 -0.07100
H 	H 	0.98113 0.74273 0.60814 0.03600
H 	H 	0.71833 0.60623 0.64157 0.05100
H 	H 	0.91389 0.61824 0.57673 0.04600
N 	N 	0.77445 0.73922 0.67702 -0.20500
H 	H 	0.79425 0.79871 0.68518 0.10400
H 	H 	0.72135 0.70585 0.68617 0.08900
C 	C 	0.89823 0.54394 0.95476 -0.00500
C 	C 	0.95328 0.61448 0.94231 -0.06900
C 	C 	0.00796 0.65340 0.96650 0.06500
C 	C 	0.00817 0.62139 0.00309 -0.21500
C 	C 	0.94840 0.55626 0.01661 0.38300
C 	C 	0.89434 0.51687 0.99234 -0.15600
H 	H 	0.05318 0.70447 0.95591 0.00800
H 	H 	0.84969 0.46489 0.00266 0.08000
H 	H 	0.95453 0.63821 0.91376 0.04900
F 	F 	0.94630 0.52671 0.05245 -0.45700
C 	C 	0.51712 0.09431 0.95156 0.00200
C 	C 	0.49340 0.01640 0.93720 -0.08500
C 	C 	0.44875 0.95112 0.95930 0.08100
C 	C 	0.42861 0.96241 0.99647 -0.17100
C 	C 	0.45109 0.04110 0.01063 0.34700
C 	C 	0.49464 0.10676 0.98809 -0.14800
H 	H 	0.43109 0.89123 0.94777 0.03300
H 	H 	0.51155 0.16711 0.99918 0.09800
H 	H 	0.50858 0.00658 0.90867 0.05200
F 	F 	0.43291 0.05364 0.04648 -0.46700
C 	C 	0.47410 0.48458 0.92209 -0.00100
C 	C 	0.40375 0.43696 0.93393 -0.06700
C 	C 	0.36198 0.46870 0.95815 0.06600
C 	C 	0.38999 0.54908 0.96965 -0.21500
C 	C 	0.45402 0.60071 0.95187 0.38600
C 	C 	0.49557 0.56846 0.92770 -0.16100
H 	H 	0.31029 0.42934 0.96984 0.02100
H 	H 	0.54830 0.60675 0.91665 0.09800
H 	H 	0.38516 0.37285 0.92806 0.05200
F 	F 	0.47754 0.68098 0.95929 -0.46400
C 	C 	0.85954 0.21285 0.82990 -0.04600
C 	C 	0.84368 0.16347 0.79890 -0.04000
C 	C 	0.89551 0.12929 0.78422 0.01900
C 	C 	0.96378 0.14322 0.80056 -0.13500
C 	C 	0.98216 0.19762 0.83025 0.12700
C 	C 	0.92953 0.23197 0.84478 -0.06800
H 	H 	0.88105 0.08809 0.76139 0.00700
H 	H 	0.94241 0.27147 0.86832 0.06000
H 	H 	0.79030 0.14970 0.78676 0.01600
N 	N 	0.04949 0.21621 0.84516 -0.20400
H 	H 	0.09057 0.19435 0.83398 0.09800
H 	H 	0.06197 0.25469 0.86771 0.08500
C 	C 	0.40610 0.13850 0.83084 -0.04700
C 	C 	0.34705 0.16118 0.84601 -0.02900
C 	C 	0.27554 0.12060 0.83640 0.01500
C 	C 	0.26202 0.05690 0.81148 -0.12000
C 	C 	0.32076 0.02964 0.79834 0.10300
C 	C 	0.39266 0.07185 0.80757 -0.06400
H 	H 	0.23084 0.14116 0.84700 0.03100
H 	H 	0.43797 0.05286 0.79653 0.04400
H 	H 	0.35659 0.21095 0.86495 0.04900
N 	N 	0.30830 0.96239 0.77750 -0.19000
H 	H 	0.25519 0.92579 0.77294 0.07700
H 	H 	0.35205 0.94435 0.76676 0.08500
C 	C 	0.74367 0.60572 0.83146 -0.04100
C 	C 	0.77814 0.61675 0.79572 -0.03000
C 	C 	0.81364 0.69517 0.78103 0.01500
C 	C 	0.81684 0.76314 0.80238 -0.13300
C 	C 	0.77331 0.75277 0.83583 0.13700
C 	C 	0.73723 0.67374 0.85033 -0.06900
H 	H 	0.84456 0.70269 0.75461 0.02800
H 	H 	0.70756 0.66543 0.87719 0.05600
H 	H 	0.78079 0.56463 0.78018 0.03700
N 	N 	0.76745 0.81822 0.85450 -0.20600
H 	H 	0.79067 0.87731 0.84328 0.10700
H 	H 	0.73732 0.81032 0.87993 0.09600
