data_crystal

_cell_length_a 17.02488
_cell_length_b 14.57524
_cell_length_c 36.84639
_cell_angle_alpha 89.87581
_cell_angle_beta  89.87835
_cell_angle_gamma 119.40682

_symmetry_space_group_name_	'P 1'
_symmetry_space_group_name_H-M	'P 1'

loop_
_symmetry_equiv_pos_as_xyz
  x,y,z

loop_
_atom_site_label
_atom_site_type_symbol
_atom_site_fract_x
_atom_site_fract_y
_atom_site_fract_z
_atom_site_charge
H 	H 	0.06914 0.82550 0.87631 0.05000
H 	H 	0.00044 0.27089 0.25275 0.07400
N 	N 	0.00865 0.47148 0.30554 -0.06100
N 	N 	0.12227 0.71702 0.60209 -0.08700
N 	N 	0.07961 0.72167 0.95906 -0.07300
O 	O 	0.00807 0.79301 0.27410 -0.35600
Ni	Ni	0.08985 0.92117 0.75909 1.09600
Ni	Ni	0.12337 0.16603 0.75988 1.12600
H 	H 	0.01420 0.22195 0.04697 0.10700
C 	C 	0.06916 0.33809 0.49722 0.06800
F 	F 	0.03907 0.18862 0.55079 -0.37300
C 	C 	0.24708 0.09927 0.79794 0.29300
C 	C 	0.20609 0.08323 0.70529 0.38100
O 	O 	0.21995 0.01811 0.77622 -0.35000
O 	O 	0.22211 0.17227 0.79327 -0.35200
O 	O 	0.13997 0.98530 0.70835 -0.42800
O 	O 	0.19443 0.16264 0.71548 -0.35200
C 	C 	0.20778 0.80197 0.39495 0.29200
C 	C 	0.15586 0.47404 0.45102 0.28900
O 	O 	0.20057 0.73309 0.37083 -0.35700
O 	O 	0.16831 0.57064 0.45668 -0.30800
C 	C 	0.18373 0.37438 0.06670 0.30000
C 	C 	0.08796 0.59257 0.08530 0.31700
O 	O 	0.14610 0.68291 0.10010 -0.32700
O 	O 	0.17935 0.55919 0.14268 -0.38900
O 	O 	0.20483 0.40986 0.09935 -0.36600
O 	O 	0.11602 0.53382 0.07005 -0.36300
C 	C 	0.03610 0.02325 0.13896 0.38000
C 	C 	0.06826 0.14451 0.23451 0.29800
C 	C 	0.05374 0.73717 0.20602 0.30500
C 	C 	0.06861 0.88935 0.28477 0.27300
Ni	Ni	0.09285 0.96360 0.20770 1.11100
O 	O 	0.11187 0.83735 0.19898 -0.36400
O 	O 	0.06960 0.96646 0.15333 -0.39400
O 	O 	0.12284 0.96179 0.26072 -0.39100
O 	O 	0.11349 0.11471 0.21240 -0.33900
C 	C 	0.06975 0.07556 0.10309 -0.03100
C 	C 	0.16246 0.12536 0.09566 0.02800
C 	C 	0.14979 0.26067 0.06112 -0.00700
C 	C 	0.05597 0.19463 0.06010 0.02200
C 	C 	0.01537 0.10254 0.08152 0.02600
C 	C 	0.08955 0.66177 0.21302 -0.05800
C 	C 	0.18063 0.70211 0.22342 -0.01700
C 	C 	0.07923 0.48859 0.20773 -0.00800
C 	C 	0.03652 0.55099 0.20808 0.02300
H 	H 	0.21987 0.78294 0.23248 0.04900
H 	H 	0.03981 0.40565 0.20117 0.06200
C 	C 	0.11656 0.24752 0.25357 -0.04500
C 	C 	0.06840 0.29988 0.26277 0.00000
C 	C 	0.10576 0.38691 0.28590 0.01900
C 	C 	0.19376 0.42534 0.29926 -0.03900
C 	C 	0.05181 0.43384 0.29683 0.14000
C 	C 	0.09561 0.90613 0.32355 -0.03900
C 	C 	0.18506 0.97781 0.33209 -0.06100
C 	C 	0.17273 0.87305 0.38546 -0.03100
C 	C 	0.07870 0.82712 0.38331 0.00300
C 	C 	0.03940 0.83833 0.35133 0.03000
H 	H 	0.03676 0.76971 0.40360 0.09600
C 	C 	0.07060 0.38482 0.46371 0.05100
H 	H 	0.13064 0.34374 0.50780 0.14800
F 	F 	0.04015 0.37918 0.38792 -0.42700
H 	H 	0.22012 0.98892 0.64391 -0.00200
H 	H 	0.05351 0.79757 0.67922 0.05200
C 	C 	0.01401 0.72619 0.04696 0.80200
F 	F 	0.10086 0.77339 0.03347 -0.44900
F 	F 	0.01529 0.76699 0.08099 -0.43500
N 	N 	0.08077 0.42192 0.77271 -0.10900
H 	H 	0.27576 0.18799 0.86337 0.09200
H 	H 	0.06107 0.02588 0.79369 0.14500
O 	O 	0.07368 0.20893 0.80309 -0.34200
O 	O 	0.04415 0.85888 0.81107 -0.36600
C 	C 	0.20282 0.21740 0.07432 0.02900
O 	O 	0.20707 0.44145 0.03928 -0.28200
C 	C 	0.22066 0.63706 0.22191 -0.00300
O 	O 	0.23888 0.80211 0.42800 -0.34600
C 	C 	0.17394 0.53806 0.20521 -0.07100
C 	C 	0.22517 0.49643 0.33067 0.28900
O 	O 	0.22511 0.58777 0.32854 -0.34400
O 	O 	0.22598 0.45443 0.36248 -0.32400
O 	O 	0.22438 0.45748 0.44200 -0.28700
H 	H 	0.22268 0.59830 0.39779 0.18500
C 	C 	0.20736 0.52766 0.16930 0.31300
H 	H 	0.20447 0.09974 0.10957 0.08000
C 	C 	0.24503 0.37930 0.28766 -0.00700
C 	C 	0.20662 0.28935 0.26565 0.01300
C 	C 	0.22507 0.96017 0.36235 -0.04300
H 	H 	0.22630 0.04047 0.31321 0.12100
F 	F 	0.31929 0.38338 0.56001 -0.40800
F 	F 	0.29945 0.39503 0.50047 -0.41700
C 	C 	0.28982 0.10629 0.68525 -0.10000
C 	C 	0.28486 0.05132 0.65318 0.12500
F 	F 	0.26553 0.51361 0.96450 -0.45200
F 	F 	0.29839 0.39172 0.98654 -0.40600
C 	C 	0.32410 0.12374 0.82209 -0.04400
C 	C 	0.33039 0.17463 0.85483 0.01000
O 	O 	0.04884 0.01877 0.76745 -0.66300
F 	F 	0.24038 0.09238 0.00821 -0.39500
F 	F 	0.30153 0.41969 0.92671 -0.43000
Ni	Ni	0.29081 0.70431 0.44683 1.12000
Ni	Ni	0.30713 0.71839 0.35765 1.12700
O 	O 	0.28814 0.64159 0.40143 -0.71900
Ni	Ni	0.26142 0.70171 0.12320 1.12600
Ni	Ni	0.23499 0.59596 0.04593 1.14100
O 	O 	0.28241 0.52354 0.16434 -0.35600
C 	C 	0.29990 0.27664 0.07185 0.14500
C 	C 	0.25878 0.23829 0.25727 0.10000
C 	C 	0.33529 0.45306 0.53169 0.78000
F 	F 	0.29143 0.50909 0.53972 -0.43000
C 	C 	0.35579 0.02609 0.59852 0.23100
N 	N 	0.35005 0.98243 0.57162 -0.13500
H 	H 	0.25952 0.93278 0.01642 0.13900
C 	C 	0.31977 0.46835 0.96026 0.78400
O 	O 	0.25639 0.74773 0.04117 -0.30100
C 	C 	0.06256 0.72477 0.61367 0.12100
O 	O 	0.04379 0.19116 0.72543 -0.33800
O 	O 	0.30114 0.63293 0.09001 -0.72100
H 	H 	0.03530 0.32457 0.68251 0.10200
F 	F 	0.32121 0.10984 0.95788 -0.42100
C 	C 	0.36287 0.08032 0.63213 -0.04700
Ni	Ni	0.31786 0.53270 0.40094 1.13300
O 	O 	0.34048 0.62995 0.48090 -0.31200
C 	C 	0.32148 0.83155 0.05862 0.27700
Ni	Ni	0.33011 0.53403 0.10963 1.11500
H 	H 	0.31327 0.40974 0.29764 0.05600
N 	N 	0.30084 0.19767 0.25061 -0.09400
C 	C 	0.32123 0.02322 0.36609 0.18900
F 	F 	0.36924 0.16530 0.45552 -0.41400
C 	C 	0.37516 0.18573 0.69747 0.04200
C 	C 	0.38365 0.24971 0.72868 0.08400
C 	C 	0.33087 0.97931 0.02221 -0.05900
C 	C 	0.32689 0.13432 0.99430 0.75400
C 	C 	0.40896 0.21506 0.87539 0.02700
C 	C 	0.39361 0.10095 0.81221 0.01500
C 	C 	0.39027 0.04775 0.77871 0.10800
C 	C 	0.41783 0.28036 0.90600 0.14400
N 	N 	0.38792 0.00512 0.75193 -0.09000
N 	N 	0.42334 0.33253 0.93045 -0.03600
O 	O 	0.32840 0.83267 0.09440 -0.32900
O 	O 	0.35299 0.63939 0.02269 -0.30400
F 	F 	0.02517 0.31312 0.58129 -0.41400
N 	N 	0.37780 0.32363 0.07020 -0.07300
C 	C 	0.37524 0.93191 0.03931 0.07300
H 	H 	0.37499 0.00336 0.43850 0.06300
C 	C 	0.30813 0.67170 0.23758 0.09000
N 	N 	0.39181 0.30241 0.75342 -0.09800
O 	O 	0.39130 0.86613 0.37900 -0.37900
C 	C 	0.39854 0.58949 0.02813 0.31200
O 	O 	0.38431 0.52678 0.05742 -0.31500
O 	O 	0.37019 0.73486 0.15821 -0.34600
H 	H 	0.36029 0.69127 0.08252 0.21500
F 	F 	0.41960 0.15152 0.51055 -0.42100
C 	C 	0.37723 0.08743 0.01362 0.01100
F 	F 	0.36878 0.24221 0.99843 -0.41400
C 	C 	0.41811 0.55206 0.96348 -0.08500
H 	H 	0.44426 0.56042 0.90543 0.08100
C 	C 	0.46997 0.13598 0.83422 0.00200
C 	C 	0.40450 0.60978 0.47140 0.32000
N 	N 	0.37823 0.69948 0.25036 -0.10600
C 	C 	0.43863 0.88709 0.40958 0.37200
O 	O 	0.41913 0.60047 0.43718 -0.33900
O 	O 	0.42081 0.81384 0.43370 -0.36700
O 	O 	0.40958 0.71624 0.33363 -0.38600
N 	N 	0.39861 0.07646 0.36746 -0.08100
C 	C 	0.44800 0.04296 0.43900 0.19700
C 	C 	0.44544 0.18796 0.47548 0.80100
C 	C 	0.43533 0.52798 0.52610 -0.08000
H 	H 	0.47628 0.44942 0.56550 0.09200
C 	C 	0.44699 0.16232 0.64393 -0.01000
C 	C 	0.45293 0.20832 0.67784 -0.02400
C 	C 	0.47240 0.59087 0.93191 0.06200
C 	C 	0.45757 0.59398 0.99813 0.01900
C 	C 	0.48099 0.19923 0.86437 -0.04000
O 	O 	0.41928 0.58562 0.36353 -0.35900
C 	C 	0.44239 0.72139 0.15215 0.31400
O 	O 	0.44476 0.66557 0.12486 -0.35200
H 	H 	0.45248 0.58428 0.20014 0.05100
C 	C 	0.49882 0.51287 0.54584 0.05700
C 	C 	0.46625 0.60750 0.49894 0.00700
C 	C 	0.47098 0.14796 0.02114 -0.02600
C 	C 	0.46862 0.99278 0.04645 -0.17700
H 	H 	0.52462 0.12238 0.82594 0.06700
C 	C 	0.52412 0.21638 0.61870 0.29100
C 	C 	0.45873 0.68049 0.34829 0.31700
C 	C 	0.49535 0.13609 0.45890 -0.15100
C 	C 	0.49343 0.99659 0.42158 -0.20200
F 	F 	0.49989 0.29633 0.47611 -0.43000
H 	H 	0.51805 0.26911 0.68748 0.05400
C 	C 	0.51155 0.10231 0.04182 0.14800
F 	F 	0.49293 0.84565 0.04146 -0.44300
C 	C 	0.03388 0.74501 0.94289 0.15600
C 	C 	0.57266 0.27168 0.87699 0.27700
C 	C 	0.53085 0.23325 0.99645 0.30300
O 	O 	0.55584 0.31841 0.61370 -0.35300
C 	C 	0.52286 0.94123 0.05867 0.76100
F 	F 	0.51415 0.92517 0.09573 -0.45700
C 	C 	0.51026 0.74438 0.18074 -0.05800
O 	O 	0.55282 0.20547 0.96570 -0.34100
O 	O 	0.55142 0.33287 0.00328 -0.29800
O 	O 	0.57598 0.49708 0.95645 -0.35900
C 	C 	0.51461 0.65747 0.19546 -0.00700
C 	C 	0.56570 0.64328 0.93619 0.00700
C 	C 	0.54813 0.67559 0.99886 0.05300
O 	O 	0.60681 0.37339 0.86976 -0.35600
C 	C 	0.60430 0.57354 0.93302 0.29000
H 	H 	0.60437 0.36928 0.93406 0.16600
O 	O 	0.57284 0.16984 0.61028 -0.33500
N 	N 	0.53109 0.95609 0.32359 -0.09400
C 	C 	0.55897 0.67519 0.49435 0.05800
C 	C 	0.59646 0.71167 0.96603 -0.10300
C 	C 	0.03179 0.37631 0.79625 0.11000
C 	C 	0.59083 0.57131 0.53755 0.01400
O 	O 	0.59966 0.18552 0.52990 -0.31900
C 	C 	0.58724 0.93762 0.17419 0.06100
N 	N 	0.58497 0.01503 0.17010 0.00600
C 	C 	0.55188 0.72494 0.33376 -0.02800
H 	H 	0.55319 0.57768 0.33746 0.07700
C 	C 	0.56067 0.89965 0.32225 0.14400
C 	C 	0.58780 0.17582 0.46532 0.07400
C 	C 	0.58864 0.04311 0.42564 0.11200
H 	H 	0.58193 0.73706 0.47403 0.10700
H 	H 	0.58160 0.14988 0.04934 0.11000
H 	H 	0.57530 0.72106 0.02344 0.10800
F 	F 	0.62237 0.88515 0.97445 -0.41400
N 	N 	0.00078 0.47345 0.61658 -0.05100
O 	O 	0.62194 0.23460 0.89331 -0.33700
H 	H 	0.63524 0.34164 0.56012 0.18400
C 	C 	0.59020 0.84128 0.17942 0.03900
F 	F 	0.59319 0.89019 0.40198 -0.43500
F 	F 	0.61338 0.00378 0.05034 -0.33500
C 	C 	0.58782 0.65792 0.32727 -0.00000
C 	C 	0.62944 0.23558 0.49832 0.28800
O 	O 	0.66582 0.58764 0.90783 -0.35100
C 	C 	0.59769 0.65802 0.19701 0.01100
C 	C 	0.59838 0.82997 0.31991 0.02800
C 	C 	0.62206 0.65803 0.51333 -0.08600
C 	C 	0.66073 0.82763 0.96093 0.78100
F 	F 	0.68029 0.85297 0.92458 -0.46300
C 	C 	0.64947 0.52832 0.54834 0.29900
Ni	Ni	0.66038 0.46678 0.98342 1.12900
C 	C 	0.59800 0.56107 0.20470 0.09800
N 	N 	0.59797 0.48313 0.21080 -0.08300
C 	C 	0.63501 0.13699 0.44535 -0.02300
F 	F 	0.71229 0.01118 0.43181 -0.34100
C 	C 	0.64315 0.99687 0.40870 0.60700
O 	O 	0.67711 0.53832 0.58272 -0.35000
O 	O 	0.66883 0.40208 0.93966 -0.71400
O 	O 	0.68172 0.49228 0.52251 -0.29500
F 	F 	0.01020 0.50491 0.40796 -0.43700
Ni	Ni	0.67714 0.27848 0.94473 1.13100
Ni	Ni	0.69225 0.42486 0.61299 1.11300
Ni	Ni	0.67878 0.21967 0.57365 1.13400
O 	O 	0.69417 0.35811 0.57027 -0.72200
C 	C 	0.66389 0.69094 0.30500 0.02100
Ni	Ni	0.71873 0.48411 0.89692 1.11400
O 	O 	0.70755 0.32781 0.65055 -0.37300
O 	O 	0.70965 0.32280 0.49507 -0.34000
C 	C 	0.67374 0.84407 0.18123 0.00100
H 	H 	0.71838 0.22248 0.71396 0.05700
N 	N 	0.72975 0.82365 0.67154 -0.09800
C 	C 	0.67843 0.86494 0.30058 0.01000
C 	C 	0.67829 0.75117 0.18812 -0.06100
C 	C 	0.69168 0.61552 0.29470 0.10100
H 	H 	0.70756 0.17371 0.44825 0.12600
F 	F 	0.73958 0.85543 0.97961 -0.43900
N 	N 	0.72533 0.09876 0.92987 -0.04300
F 	F 	0.73138 0.25361 0.08023 -0.42100
O 	O 	0.73453 0.44344 0.01883 -0.35500
C 	C 	0.70942 0.79544 0.29147 -0.05700
C 	C 	0.72161 0.72547 0.50451 0.78300
F 	F 	0.68110 0.04953 0.37663 -0.36100
H 	H 	0.71460 0.94585 0.29101 0.06600
N 	N 	0.71398 0.55509 0.28653 -0.09100
O 	O 	0.73768 0.30216 0.99424 -0.30600
F 	F 	0.74578 0.67617 0.47828 -0.42300
N 	N 	0.76551 0.12094 0.79104 -0.09300
N 	N 	0.76609 0.87900 0.84354 -0.10600
O 	O 	0.76599 0.61846 0.97201 -0.32200
F 	F 	0.74020 0.82332 0.49148 -0.41300
H 	H 	0.73511 0.91831 0.17695 0.02500
Ni	Ni	0.77108 0.44192 0.53182 1.13300
C 	C 	0.78575 0.80498 0.66283 0.10400
H 	H 	0.78292 0.78120 0.92667 0.12000
C 	C 	0.76606 0.29511 0.64517 0.30700
H 	H 	0.79377 0.72160 0.60016 0.10700
C 	C 	0.78063 0.14889 0.90885 0.11600
O 	O 	0.78217 0.40813 0.87209 -0.36200
O 	O 	0.77541 0.22626 0.53956 -0.31500
O 	O 	0.77023 0.25515 0.61382 -0.33300
F 	F 	0.77380 0.74174 0.53499 -0.44200
C 	C 	0.78781 0.24567 0.70732 0.00500
C 	C 	0.79766 0.16298 0.76392 0.09500
C 	C 	0.77887 0.39523 0.01045 0.30300
C 	C 	0.76816 0.75489 0.18536 0.29900
C 	C 	0.81242 0.85619 0.85956 0.10000
O 	O 	0.80406 0.34779 0.92534 -0.36500
C 	C 	0.78827 0.83227 0.26732 0.29800
O 	O 	0.78897 0.69959 0.20826 -0.34400
F 	F 	0.80952 0.21704 0.03858 -0.39900
C 	C 	0.81637 0.27521 0.06921 0.78700
C 	C 	0.81909 0.36248 0.89067 0.31200
O 	O 	0.80226 0.90453 0.24210 -0.37500
C 	C 	0.82569 0.29901 0.67480 -0.06200
O 	O 	0.82915 0.56406 0.92912 -0.38000
O 	O 	0.83058 0.51395 0.61243 -0.37600
C 	C 	0.83323 0.63923 0.94889 0.29300
C 	C 	0.83707 0.21515 0.72994 0.00400
C 	C 	0.85019 0.73793 0.61749 -0.01700
C 	C 	0.84548 0.79169 0.91580 -0.02400
O 	O 	0.84679 0.58499 0.55670 -0.31600
C 	C 	0.84972 0.21149 0.88257 0.03600
C 	C 	0.85549 0.78155 0.65182 0.02000
N 	N 	0.84052 0.98905 0.08371 -0.10200
O 	O 	0.83341 0.83687 0.16966 -0.36200
F 	F 	0.85430 0.24400 0.09640 -0.43400
H 	H 	0.85378 0.33596 0.46191 0.07600
C 	C 	0.85449 0.31075 0.53413 0.31800
O 	O 	0.85007 0.80671 0.27535 -0.37500
C 	C 	0.86462 0.31199 0.87171 -0.06700
C 	C 	0.86896 0.59540 0.59118 0.30100
C 	C 	0.86940 0.82701 0.87981 0.02100
O 	O 	0.86657 0.40394 0.54289 -0.36100
C 	C 	0.00510 0.81354 0.88667 0.03300
C 	C 	0.86708 0.43521 0.02766 0.00800
N 	N 	0.86314 0.46026 0.19840 -0.07500
N 	N 	0.86473 0.74186 0.34677 -0.07400
C 	C 	0.87321 0.39189 0.06142 -0.09300
H 	H 	0.88829 0.09276 0.87545 0.10100
O 	O 	0.88926 0.88127 0.72421 -0.37300
C 	C 	0.89003 0.74659 0.93415 -0.00800
C 	C 	0.89826 0.16845 0.86619 -0.00400
O 	O 	0.89999 0.06748 0.74087 -0.33200
F 	F 	0.89711 0.34139 0.39649 -0.41300
O 	O 	0.90467 0.84139 0.80129 -0.37400
F 	F 	0.90168 0.16451 0.56352 -0.40700
C 	C 	0.90865 0.69961 0.60817 -0.02900
Ni	Ni	0.90329 0.96691 0.20156 1.09900
Ni	Ni	0.90868 0.76163 0.23756 1.12400
C 	C 	0.91283 0.33342 0.47141 0.07400
C 	C 	0.91658 0.30515 0.50751 0.00600
C 	C 	0.91820 0.33710 0.66808 0.03700
C 	C 	0.91832 0.03952 0.08272 0.22700
O 	O 	0.98820 0.05283 0.15882 -0.34900
O 	O 	0.97935 0.09776 0.23319 -0.33300
O 	O 	0.96616 0.70287 0.20416 -0.36200
H 	H 	0.97662 0.93673 0.24385 0.12800
C 	C 	0.98868 0.23926 0.55404 0.76800
C 	C 	0.99063 0.29362 0.51874 -0.07500
C 	C 	0.98851 0.36841 0.44870 -0.10500
O 	O 	0.96814 0.90366 0.21995 -0.71100
C 	C 	0.98397 0.39892 0.40978 0.76900
C 	C 	0.99430 0.56408 0.07969 0.00200
C 	C 	0.97655 0.60857 0.04950 -0.11400
C 	C 	0.94031 0.50084 0.20272 0.09700
F 	F 	0.96140 0.74998 0.02447 -0.44700
H 	H 	0.93566 0.42807 0.11453 0.07900
C 	C 	0.93044 0.46002 0.08862 0.06000
C 	C 	0.92663 0.82513 0.71430 0.30100
C 	C 	0.96701 0.84753 0.82404 0.26600
C 	C 	0.95935 0.16532 0.73267 0.27100
C 	C 	0.98835 0.15969 0.81456 0.26000
Ni	Ni	0.92122 0.96651 0.77077 1.09200
O 	O 	0.97146 0.80242 0.73796 -0.38400
O 	O 	0.94017 0.05540 0.81497 -0.34300
C 	C 	0.94258 0.78513 0.34841 0.10600
C 	C 	0.92343 0.23337 0.71882 -0.03400
C 	C 	0.96631 0.30220 0.68957 -0.01900
C 	C 	0.96408 0.41271 0.63949 0.11600
C 	C 	0.92589 0.79611 0.67564 -0.06800
C 	C 	0.99551 0.77936 0.66243 -0.00800
C 	C 	0.98847 0.73511 0.62808 -0.00800
C 	C 	0.92807 0.54221 0.02077 0.06600
H 	H 	0.92524 0.57621 0.99506 0.06000
C 	C 	0.92551 0.36561 0.84342 0.01400
C 	C 	0.97074 0.31976 0.82568 -0.01600
C 	C 	0.95552 0.21907 0.83660 -0.02500
H 	H 	0.93776 0.44308 0.83519 0.04700
C 	C 	0.94701 0.83015 0.86397 -0.08700
C 	C 	0.97788 0.77414 0.92203 -0.02500
