data_crystal

_cell_length_a 29.35916
_cell_length_b 26.76912
_cell_length_c 29.66626
_cell_angle_alpha 89.92593
_cell_angle_beta  89.91486
_cell_angle_gamma 90.90117

_symmetry_space_group_name_	'P 1'
_symmetry_space_group_name_H-M	'P 1'

loop_
_symmetry_equiv_pos_as_xyz
  x,y,z

loop_
_atom_site_label
_atom_site_type_symbol
_atom_site_fract_x
_atom_site_fract_y
_atom_site_fract_z
_atom_site_charge
Zn	Zn	0.50368 0.49790 0.98329 1.22700
C 	C 	0.54676 0.59004 0.95364 0.31500
O 	O 	0.54160 0.48351 0.03579 -0.48000
O 	O 	0.51782 0.61081 0.98147 -0.44600
O 	O 	0.57261 0.55935 0.04994 -0.48800
C 	C 	0.42811 0.55790 0.00333 0.29700
O 	O 	0.45008 0.53604 0.97060 -0.43400
O 	O 	0.44771 0.56448 0.04274 -0.50200
C 	C 	0.57765 0.51133 0.04391 0.31900
O 	O 	0.45354 0.43348 0.00583 -0.33400
Zn	Zn	0.51137 0.58681 0.04712 1.16800
O 	O 	0.54674 0.54103 0.94894 -0.43100
C 	C 	0.47070 0.40793 0.97306 0.28400
O 	O 	0.50214 0.43082 0.94975 -0.38200
Zn	Zn	0.35166 0.12659 0.00806 1.21900
C 	C 	0.38613 0.11078 0.09758 0.31200
O 	O 	0.28469 0.12991 0.00901 -0.46300
O 	O 	0.38258 0.15823 0.10777 -0.44500
O 	O 	0.28302 0.14581 0.08444 -0.49000
C 	C 	0.39442 0.22314 0.01416 0.30800
O 	O 	0.40226 0.17506 0.01102 -0.45700
O 	O 	0.35964 0.23908 0.03759 -0.50900
C 	C 	0.26237 0.13097 0.04748 0.30600
O 	O 	0.35559 0.13776 0.92870 -0.31800
Zn	Zn	0.32867 0.19899 0.08309 1.17100
O 	O 	0.36114 0.09153 0.06528 -0.44100
C 	C 	0.36721 0.09113 0.92789 0.27300
O 	O 	0.36612 0.06913 0.96665 -0.38600
C 	C 	0.52663 0.98053 0.73809 0.12900
C 	C 	0.56304 0.95857 0.76110 -0.10000
H 	H 	0.58878 0.93876 0.74238 0.06600
C 	C 	0.56617 0.96274 0.80809 0.04500
C 	C 	0.53387 0.99055 0.83163 -0.09000
C 	C 	0.49582 0.00957 0.80935 0.05100
C 	C 	0.49268 0.00550 0.76233 -0.09500
H 	H 	0.46427 0.02166 0.74457 0.06700
N 	N 	0.52462 0.97828 0.68970 -0.18300
C 	C 	0.49826 0.94211 0.66931 0.19400
C 	C 	0.49741 0.93811 0.62195 -0.07900
C 	C 	0.52480 0.97056 0.59590 0.05100
C 	C 	0.54977 0.00897 0.61721 -0.07200
C 	C 	0.54945 0.01213 0.66461 0.19900
C 	C 	0.46843 0.90347 0.60043 0.00700
C 	C 	0.46788 0.89997 0.55350 -0.05700
C 	C 	0.49927 0.92805 0.52706 0.01200
C 	C 	0.52624 0.96548 0.54836 -0.02400
C 	C 	0.55308 0.99926 0.52240 0.00600
C 	C 	0.57334 0.04461 0.59099 0.00400
C 	C 	0.57351 0.04097 0.54408 -0.04800
C 	C 	0.50263 0.92132 0.47954 0.01600
C 	C 	0.52966 0.95503 0.45366 -0.03100
C 	C 	0.55694 0.99207 0.47505 0.01200
O 	O 	0.57338 0.04752 0.68499 -0.20400
O 	O 	0.47404 0.91060 0.69416 -0.20600
H 	H 	0.59043 0.07619 0.60676 0.04300
H 	H 	0.58744 0.07195 0.52490 0.04300
H 	H 	0.44500 0.88036 0.61989 0.04100
H 	H 	0.44138 0.87747 0.53804 0.04300
C 	C 	0.58906 0.01940 0.44888 -0.05500
C 	C 	0.58883 0.01586 0.40196 0.01500
C 	C 	0.55911 0.98214 0.38024 -0.08800
C 	C 	0.53091 0.95033 0.40609 0.06100
C 	C 	0.48137 0.88029 0.45752 -0.06000
C 	C 	0.48087 0.87748 0.41054 0.00900
C 	C 	0.50485 0.91298 0.38453 -0.08400
C 	C 	0.55815 0.97856 0.33288 0.19100
N 	N 	0.53015 0.94408 0.31223 -0.18200
C 	C 	0.50446 0.91079 0.33707 0.19600
C 	C 	0.52707 0.94351 0.26385 0.13500
C 	C 	0.49852 0.97713 0.24175 -0.10800
C 	C 	0.49764 0.97904 0.19453 0.03900
C 	C 	0.52341 0.94512 0.16952 -0.08200
C 	C 	0.55204 0.91131 0.19143 0.04100
C 	C 	0.55407 0.91089 0.23869 -0.10100
O 	O 	0.58386 0.00886 0.30826 -0.20000
O 	O 	0.47877 0.87710 0.31642 -0.21000
H 	H 	0.47760 0.00201 0.26138 0.07000
H 	H 	0.57707 0.88611 0.25594 0.06500
H 	H 	0.61578 0.04138 0.46462 0.04500
H 	H 	0.61286 0.03840 0.38267 0.04100
H 	H 	0.46733 0.84915 0.47639 0.04400
H 	H 	0.46305 0.84652 0.39453 0.03900
H 	H 	0.52220 0.94596 0.13301 0.04600
H 	H 	0.53756 0.99605 0.86765 0.05000
Zn	Zn	0.71708 0.82584 0.99152 1.22300
C 	C 	0.67703 0.81343 0.07926 0.31200
O 	O 	0.78336 0.83453 0.99732 -0.44900
O 	O 	0.68686 0.76577 0.08048 -0.44600
O 	O 	0.78473 0.79874 0.06710 -0.48500
C 	C 	0.68661 0.72489 0.97596 0.31800
O 	O 	0.67346 0.77113 0.98211 -0.46000
O 	O 	0.72281 0.70883 0.99704 -0.49500
C 	C 	0.80303 0.82876 0.03677 0.29900
O 	O 	0.71845 0.83438 0.91166 -0.32200
Zn	Zn	0.74673 0.74133 0.05088 1.16900
O 	O 	0.70036 0.84375 0.05307 -0.45000
C 	C 	0.69925 0.87703 0.91920 0.27300
O 	O 	0.69526 0.88844 0.96130 -0.39000
Zn	Zn	0.16342 0.67352 0.97182 1.22700
C 	C 	0.16652 0.66576 0.06819 0.31400
O 	O 	0.14750 0.74101 0.95327 -0.46600
O 	O 	0.20540 0.68970 0.07301 -0.45000
O 	O 	0.16196 0.77477 0.02224 -0.49900
C 	C 	0.25921 0.65939 0.98334 0.32700
O 	O 	0.21925 0.63660 0.98142 -0.45400
O 	O 	0.26181 0.70815 0.98815 -0.50600
C 	C 	0.14042 0.77571 0.98344 0.33200
O 	O 	0.16304 0.64900 0.89460 -0.31900
Zn	Zn	0.22205 0.74553 0.02738 1.16900
O 	O 	0.14059 0.67556 0.03364 -0.45100
C 	C 	0.12556 0.62548 0.90562 0.27500
O 	O 	0.11400 0.62906 0.94738 -0.39400
C 	C 	0.95474 0.52989 0.72127 0.13600
C 	C 	0.98655 0.55964 0.74465 -0.09800
H 	H 	0.01501 0.57653 0.72666 0.06300
C 	C 	0.98272 0.56551 0.79137 0.04700
C 	C 	0.94573 0.54335 0.81410 -0.08200
C 	C 	0.91716 0.50898 0.79192 0.04400
C 	C 	0.92037 0.50393 0.74500 -0.09900
H 	H 	0.89739 0.47886 0.72716 0.06700
N 	N 	0.95936 0.52344 0.67347 -0.18200
C 	C 	0.98680 0.48655 0.65730 0.19900
C 	C 	0.99773 0.48460 0.61114 -0.07700
C 	C 	0.97830 0.51917 0.58142 0.05700
C 	C 	0.94980 0.55637 0.59852 -0.08000
C 	C 	0.93971 0.55710 0.64492 0.19700
C 	C 	0.02988 0.45079 0.59495 0.00400
C 	C 	0.04203 0.45073 0.54950 -0.05500
C 	C 	0.01911 0.48140 0.51826 0.00800
C 	C 	0.98873 0.51768 0.53479 -0.02200
C 	C 	0.97051 0.55407 0.50547 0.01100
C 	C 	0.93418 0.59402 0.56975 0.00800
C 	C 	0.94612 0.59421 0.52425 -0.05600
C 	C 	0.02771 0.47833 0.47114 0.02000
C 	C 	0.00959 0.51479 0.44186 -0.03800
C 	C 	0.97909 0.55097 0.45835 0.02300
O 	O 	0.91197 0.59094 0.66114 -0.20400
O 	O 	0.00381 0.45343 0.68531 -0.20900
H 	H 	0.91438 0.62455 0.58292 0.04200
H 	H 	0.93853 0.62700 0.50457 0.04400
H 	H 	0.04713 0.42588 0.61787 0.04200
H 	H 	0.07095 0.42894 0.53945 0.04300
C 	C 	0.95615 0.58158 0.42709 -0.06400
C 	C 	0.96852 0.58175 0.38170 0.01600
C 	C 	0.00095 0.54820 0.36559 -0.08900
C 	C 	0.02028 0.51354 0.39529 0.06500
C 	C 	0.05214 0.43824 0.45233 -0.06200
C 	C 	0.06437 0.43867 0.40690 0.01100
C 	C 	0.04898 0.47652 0.37821 -0.08500
C 	C 	0.01235 0.54667 0.31952 0.19500
N 	N 	0.04027 0.51018 0.30342 -0.18300
C 	C 	0.05958 0.47623 0.33193 0.19800
C 	C 	0.04598 0.50460 0.25564 0.13600
C 	C 	0.01500 0.47486 0.23122 -0.10600
C 	C 	0.01946 0.47044 0.18442 0.04200
C 	C 	0.05647 0.49368 0.16268 -0.08200
C 	C 	0.08490 0.52715 0.18610 0.04200
C 	C 	0.08039 0.53163 0.23295 -0.10100
O 	O 	0.99542 0.57988 0.29155 -0.20600
O 	O 	0.08758 0.44260 0.31577 -0.20800
H 	H 	0.98647 0.45712 0.24844 0.06800
H 	H 	0.10222 0.55727 0.25150 0.06500
H 	H 	0.92708 0.60318 0.43708 0.04500
H 	H 	0.95130 0.60665 0.35876 0.03800
H 	H 	0.05954 0.40532 0.47191 0.04500
H 	H 	0.08423 0.40820 0.39372 0.04000
H 	H 	0.05967 0.49080 0.12637 0.04800
H 	H 	0.94217 0.54863 0.85014 0.05000
Zn	Zn	0.83036 0.37158 0.00459 1.22200
C 	C 	0.82402 0.37720 0.90861 0.31100
O 	O 	0.78276 0.42147 0.99727 -0.43700
O 	O 	0.78015 0.36758 0.90955 -0.43900
O 	O 	0.72715 0.36119 0.99741 -0.49400
C 	C 	0.83059 0.26544 0.99418 0.34100
O 	O 	0.83271 0.30256 0.02296 -0.48200
O 	O 	0.80637 0.26967 0.95718 -0.49100
C 	C 	0.73975 0.40825 0.00141 0.30200
O 	O 	0.83784 0.39168 0.08220 -0.32300
Zn	Zn	0.75519 0.31520 0.95519 1.17300
O 	O 	0.84962 0.36288 0.94211 -0.44400
C 	C 	0.87596 0.41279 0.06980 0.27300
O 	O 	0.88519 0.41004 0.02733 -0.39600
Zn	Zn	0.99301 0.02197 0.05014 1.22500
C 	C 	0.03458 0.92945 0.02874 0.29500
O 	O 	0.94973 0.00087 0.09663 -0.46900
O 	O 	0.06176 0.93908 0.06308 -0.45300
O 	O 	0.98330 0.93252 0.12470 -0.49300
C 	C 	0.08249 0.05092 0.07749 0.32700
O 	O 	0.05582 0.04360 0.04271 -0.44900
O 	O 	0.07045 0.03390 0.11736 -0.50800
C 	C 	0.94708 0.95371 0.10820 0.31200
O 	O 	0.97657 0.10573 0.06453 -0.32900
Zn	Zn	0.04125 0.96829 0.12397 1.16700
O 	O 	0.99951 0.95785 0.02023 -0.43800
C 	C 	0.95239 0.10358 0.02801 0.27800
O 	O 	0.95228 0.06079 0.00765 -0.38600
C 	C 	0.85627 0.21935 0.00318 -0.11700
C 	C 	0.86772 0.20552 0.04781 0.03300
C 	C 	0.89918 0.16779 0.05510 -0.03000
H 	H 	0.90870 0.15828 0.08933 0.05000
C 	C 	0.91749 0.14128 0.01883 -0.07300
C 	C 	0.90322 0.15216 0.97444 0.02000
C 	C 	0.87306 0.19141 0.96689 0.00100
H 	H 	0.86375 0.20109 0.93265 0.04000
C 	C 	0.92014 0.12338 0.93565 0.02300
C 	C 	0.95918 0.13970 0.91227 -0.04700
C 	C 	0.97625 0.11125 0.87674 -0.01500
C 	C 	0.95428 0.06666 0.86428 -0.03800
C 	C 	0.91485 0.05075 0.88698 -0.01600
C 	C 	0.89756 0.07920 0.92242 -0.03800
C 	C 	0.84675 0.22997 0.08722 0.01400
C 	C 	0.87331 0.26098 0.11523 -0.03900
C 	C 	0.85304 0.28626 0.15106 -0.01700
C 	C 	0.80642 0.28011 0.15947 -0.03300
C 	C 	0.78000 0.24852 0.13215 -0.02500
C 	C 	0.80007 0.22337 0.09612 -0.04600
H 	H 	0.87343 0.31077 0.17219 0.03500
H 	H 	0.79076 0.29978 0.18717 0.03700
H 	H 	0.74394 0.24367 0.13881 0.02900
H 	H 	0.77938 0.19915 0.07494 0.03000
H 	H 	0.90943 0.26592 0.10883 0.04100
H 	H 	0.97616 0.17433 0.92157 0.04400
H 	H 	0.00660 0.12368 0.85896 0.02800
H 	H 	0.86724 0.06647 0.94016 0.04800
H 	H 	0.89780 0.01630 0.87722 0.03800
H 	H 	0.96775 0.04448 0.83700 0.03900
C 	C 	0.88995 0.39967 0.85115 0.00900
H 	H 	0.90922 0.36458 0.85512 0.03500
C 	C 	0.90745 0.45223 0.86419 -0.04400
H 	H 	0.94149 0.46042 0.87895 0.04200
C 	C 	0.87152 0.42029 0.80606 -0.04800
H 	H 	0.87578 0.40232 0.77265 0.04200
C 	C 	0.88883 0.47284 0.81942 0.00700
C 	C 	0.84418 0.41109 0.87380 -0.08100
C 	C 	0.82517 0.43115 0.82914 0.00800
H 	H 	0.79142 0.42160 0.81453 0.03000
C 	C 	0.84293 0.48427 0.84196 -0.04700
H 	H 	0.82371 0.51941 0.83814 0.04000
C 	C 	0.86150 0.46353 0.88694 0.00600
H 	H 	0.85728 0.48103 0.92056 0.03000
C 	C 	0.98552 0.42657 0.11048 -0.04100
H 	H 	0.01821 0.41586 0.09460 0.03400
C 	C 	0.95088 0.46320 0.09033 0.00000
H 	H 	0.95470 0.48307 0.05763 0.03200
C 	C 	0.94636 0.38971 0.12278 0.00200
H 	H 	0.94656 0.34884 0.11668 0.02900
C 	C 	0.91209 0.42652 0.10288 -0.06700
C 	C 	0.98001 0.45201 0.15662 0.00700
C 	C 	0.94122 0.41524 0.16941 -0.04400
H 	H 	0.93750 0.39530 0.20207 0.03900
C 	C 	0.90624 0.45178 0.14896 0.00100
H 	H 	0.87324 0.46206 0.16443 0.03200
C 	C 	0.94552 0.48866 0.13667 -0.04600
H 	H 	0.94557 0.52962 0.14255 0.03900
C 	C 	0.10423 0.81176 0.97640 -0.10700
C 	C 	0.06029 0.80245 0.99417 0.07000
C 	C 	0.03169 0.84269 0.00271 -0.07100
H 	H 	0.99930 0.83624 0.01942 0.05000
C 	C 	0.04788 0.89156 0.99629 -0.04300
C 	C 	0.08728 0.89986 0.97006 0.00500
C 	C 	0.11569 0.85964 0.96045 -0.00200
H 	H 	0.14814 0.86621 0.94378 0.02400
C 	C 	0.10056 0.95118 0.95596 0.02900
C 	C 	0.07041 0.97981 0.93023 -0.05800
C 	C 	0.08142 0.02945 0.91962 -0.00400
C 	C 	0.12266 0.05059 0.93415 -0.03900
C 	C 	0.15294 0.02220 0.95943 -0.00300
C 	C 	0.14185 0.97274 0.97074 -0.05600
C 	C 	0.04594 0.75161 0.00832 -0.02100
C 	C 	0.03796 0.71427 0.97598 -0.02600
C 	C 	0.02370 0.66647 0.98954 -0.01100
C 	C 	0.01741 0.65577 0.03528 -0.04100
C 	C 	0.02458 0.69310 0.06752 -0.02100
C 	C 	0.03909 0.74084 0.05419 -0.02800
H 	H 	0.01713 0.63785 0.96459 0.03800
H 	H 	0.00624 0.61879 0.04568 0.03300
H 	H 	0.01859 0.68516 0.10281 0.03100
H 	H 	0.04485 0.76948 0.07939 0.03300
H 	H 	0.04264 0.72234 0.94046 0.04200
H 	H 	0.03830 0.96376 0.91897 0.05100
H 	H 	0.05803 0.05150 0.90006 0.03200
H 	H 	0.16495 0.95146 0.99143 0.04100
H 	H 	0.18486 0.03865 0.97045 0.03800
H 	H 	0.13125 0.08892 0.92565 0.04000
C 	C 	0.05096 0.57603 0.88505 0.00100
H 	H 	0.04635 0.55785 0.91846 0.03500
C 	C 	0.05615 0.54807 0.83995 -0.04400
H 	H 	0.05523 0.50684 0.83585 0.04300
C 	C 	0.01735 0.61250 0.86317 -0.04800
H 	H 	0.98483 0.62487 0.87836 0.03900
C 	C 	0.02260 0.58454 0.81824 0.00300
C 	C 	0.09072 0.61103 0.87143 -0.06600
C 	C 	0.05739 0.64766 0.84971 0.00300
H 	H 	0.05831 0.68885 0.85405 0.03200
C 	C 	0.06230 0.61958 0.80424 -0.04200
H 	H 	0.06664 0.63768 0.77078 0.04000
C 	C 	0.09638 0.58323 0.82655 0.00200
H 	H 	0.12923 0.57129 0.81181 0.03500
C 	C 	0.17609 0.59581 0.13476 0.00700
H 	H 	0.21378 0.59429 0.13714 0.02700
C 	C 	0.14405 0.55187 0.12089 -0.05000
H 	H 	0.15508 0.51355 0.11230 0.03700
C 	C 	0.14313 0.60891 0.17401 -0.04800
H 	H 	0.15362 0.61777 0.20907 0.03700
C 	C 	0.11145 0.56542 0.15948 0.00700
C 	C 	0.14936 0.63056 0.10349 -0.08400
C 	C 	0.11690 0.64430 0.14205 0.00900
H 	H 	0.10576 0.68265 0.15034 0.02400
C 	C 	0.08516 0.60049 0.12807 -0.04500
H 	H 	0.04748 0.60175 0.12558 0.03800
C 	C 	0.11772 0.58699 0.08937 0.00500
H 	H 	0.10704 0.57801 0.05436 0.03000
C 	C 	0.84090 0.86206 0.05003 -0.07700
C 	C 	0.88470 0.84285 0.05698 0.01800
C 	C 	0.91825 0.87235 0.07796 -0.01300
H 	H 	0.95173 0.85703 0.08357 0.04000
C 	C 	0.90922 0.92183 0.09072 -0.09100
C 	C 	0.86528 0.94136 0.08300 0.02900
C 	C 	0.83167 0.91133 0.06243 -0.02100
H 	H 	0.79768 0.92577 0.05767 0.04100
C 	C 	0.85336 0.99225 0.09782 -0.00100
C 	C 	0.85135 0.00372 0.14395 -0.02100
C 	C 	0.83796 0.05118 0.15787 -0.02900
C 	C 	0.82559 0.08693 0.12594 -0.03100
C 	C 	0.82682 0.07540 0.08001 -0.02500
C 	C 	0.84133 0.02846 0.06586 -0.03000
C 	C 	0.89601 0.79223 0.04125 0.00100
C 	C 	0.89254 0.75142 0.07085 -0.06200
C 	C 	0.90004 0.70304 0.05502 -0.02300
C 	C 	0.91119 0.69532 0.00975 -0.07200
C 	C 	0.91596 0.73604 0.98047 -0.00500
C 	C 	0.90834 0.78446 0.99611 -0.04400
H 	H 	0.89705 0.67154 0.07779 0.02000
H 	H 	0.91661 0.65782 0.99747 0.04800
H 	H 	0.92544 0.73007 0.94565 0.02900
H 	H 	0.91162 0.81582 0.97316 0.04900
H 	H 	0.88330 0.75711 0.10581 0.03700
H 	H 	0.86004 0.97588 0.16891 0.03200
H 	H 	0.83678 0.06011 0.19342 0.03500
H 	H 	0.84278 0.02003 0.03018 0.04300
H 	H 	0.81656 0.10284 0.05536 0.03400
H 	H 	0.81487 0.12348 0.13681 0.03600
C 	C 	0.63495 0.89482 0.81968 -0.04200
H 	H 	0.63446 0.87536 0.78667 0.04200
C 	C 	0.62597 0.86955 0.86602 0.00300
H 	H 	0.61838 0.82921 0.87144 0.03400
C 	C 	0.67652 0.92356 0.84000 0.00200
H 	H 	0.71056 0.92777 0.82397 0.03200
C 	C 	0.66685 0.89864 0.88584 -0.06500
C 	C 	0.60390 0.93806 0.83371 0.00600
C 	C 	0.64488 0.96701 0.85347 -0.05200
H 	H 	0.65239 0.00738 0.84820 0.04600
C 	C 	0.63567 0.94180 0.89952 0.00300
H 	H 	0.63582 0.96138 0.93249 0.03700
C 	C 	0.59463 0.91282 0.87958 -0.04500
H 	H 	0.56082 0.90816 0.89603 0.03800
C 	C 	0.65617 0.86291 0.15462 0.00800
H 	H 	0.69117 0.86687 0.16844 0.02900
C 	C 	0.61514 0.83762 0.17907 -0.04900
H 	H 	0.61615 0.82069 0.21321 0.03700
C 	C 	0.62553 0.90647 0.13997 -0.04400
H 	H 	0.63484 0.94677 0.14202 0.04100
C 	C 	0.58486 0.88113 0.16401 0.00700
C 	C 	0.64317 0.83481 0.11124 -0.08300
C 	C 	0.61277 0.87817 0.09638 0.00500
H 	H 	0.61186 0.89481 0.06209 0.02700
C 	C 	0.57188 0.85286 0.12058 -0.05100
H 	H 	0.53694 0.84891 0.10662 0.03100
C 	C 	0.60262 0.80908 0.13510 0.00600
H 	H 	0.59347 0.76877 0.13283 0.02000
C 	C 	0.12842 0.07212 0.07054 -0.09000
C 	C 	0.13455 0.12136 0.05429 0.02400
C 	C 	0.17855 0.13934 0.04421 -0.02400
H 	H 	0.18343 0.17756 0.03278 0.02400
C 	C 	0.21641 0.10889 0.05058 -0.08500
C 	C 	0.21016 0.05934 0.06582 0.02000
C 	C 	0.16626 0.04142 0.07615 -0.01700
H 	H 	0.16141 0.00313 0.08742 0.02200
C 	C 	0.24945 0.02586 0.07057 0.01200
C 	C 	0.26511 0.01266 0.11357 -0.03600
C 	C 	0.30303 0.98209 0.11800 -0.03400
C 	C 	0.32552 0.96479 0.07962 -0.03400
C 	C 	0.31014 0.97800 0.03674 -0.03000
C 	C 	0.27209 0.00832 0.03212 -0.05300
C 	C 	0.09533 0.15497 0.04947 0.01500
C 	C 	0.08046 0.16926 0.00647 -0.05300
C 	C 	0.04364 0.20142 0.00201 -0.02800
C 	C 	0.02121 0.21894 0.04034 -0.03500
C 	C 	0.03596 0.20489 0.08324 -0.01400
C 	C 	0.07305 0.17312 0.08790 -0.04500
H 	H 	0.03278 0.21314 0.96889 0.03900
H 	H 	0.99235 0.24330 0.03679 0.04000
H 	H 	0.01852 0.21842 0.11288 0.03100
H 	H 	0.08435 0.16244 0.12125 0.04200
H 	H 	0.09752 0.15568 0.97662 0.05000
H 	H 	0.24813 0.02636 0.14344 0.03600
H 	H 	0.31505 0.97191 0.15118 0.02800
H 	H 	0.26061 0.01872 0.99879 0.05400
H 	H 	0.32778 0.96487 0.00707 0.03000
H 	H 	0.35490 0.94118 0.08311 0.02600
C 	C 	0.44746 0.05891 0.90486 0.00000
H 	H 	0.46316 0.06414 0.93859 0.03500
C 	C 	0.46463 0.08363 0.86083 -0.04300
H 	H 	0.49477 0.10899 0.85787 0.04100
C 	C 	0.44146 0.00844 0.88045 -0.03600
H 	H 	0.45233 0.97175 0.89382 0.03300
C 	C 	0.45859 0.03321 0.83655 0.00300
C 	C 	0.39829 0.07208 0.89211 -0.06500
C 	C 	0.39209 0.02174 0.86784 0.00700
H 	H 	0.36197 0.99636 0.87097 0.02500
C 	C 	0.40941 0.04631 0.82344 -0.04500
H 	H 	0.39369 0.04100 0.78974 0.04100
C 	C 	0.41504 0.09716 0.84830 0.00300
H 	H 	0.40394 0.13389 0.83528 0.03300
C 	C 	0.43617 0.02935 0.10572 0.00400
H 	H 	0.43121 0.01508 0.07091 0.03100
C 	C 	0.42200 0.00142 0.14933 -0.03800
H 	H 	0.40600 0.96362 0.15103 0.03000
C 	C 	0.48251 0.04375 0.12712 -0.04900
H 	H 	0.51616 0.04113 0.11022 0.03900
C 	C 	0.46806 0.01601 0.17050 0.01000
C 	C 	0.41581 0.07754 0.12490 -0.08000
C 	C 	0.46185 0.09233 0.14600 0.00700
H 	H 	0.47806 0.13004 0.14441 0.03000
C 	C 	0.44775 0.06430 0.18975 -0.04700
H 	H 	0.45256 0.07902 0.22441 0.04000
C 	C 	0.40126 0.04999 0.16820 0.00500
H 	H 	0.36752 0.05283 0.18486 0.02700
C 	C 	0.42451 0.25978 0.99150 -0.06500
C 	C 	0.40830 0.28753 0.95448 0.02200
C 	C 	0.42803 0.33430 0.94434 -0.02500
H 	H 	0.41345 0.35721 0.91802 0.04100
C 	C 	0.46365 0.35350 0.97079 -0.05500
C 	C 	0.48413 0.32243 0.00316 0.00600
C 	C 	0.46444 0.27564 0.01330 -0.02800
H 	H 	0.47824 0.25336 0.04047 0.03800
C 	C 	0.52482 0.33967 0.02813 0.02400
C 	C 	0.56777 0.33917 0.00740 -0.06500
C 	C 	0.60659 0.35313 0.03180 -0.01600
C 	C 	0.60265 0.36831 0.07667 -0.03800
C 	C 	0.55981 0.36949 0.09728 -0.01600
C 	C 	0.52090 0.35522 0.07310 -0.04800
C 	C 	0.37037 0.26822 0.92658 0.01400
C 	C 	0.32508 0.27541 0.94003 -0.05100
C 	C 	0.28926 0.25771 0.91314 -0.02100
C 	C 	0.29846 0.23367 0.87239 -0.03300
C 	C 	0.34351 0.22726 0.85847 -0.01300
C 	C 	0.37947 0.24429 0.88556 -0.04100
H 	H 	0.25437 0.26283 0.92378 0.03000
H 	H 	0.27069 0.22011 0.85156 0.03900
H 	H 	0.35056 0.20888 0.82681 0.03400
H 	H 	0.41431 0.23882 0.87477 0.04500
H 	H 	0.31769 0.29464 0.97124 0.04100
H 	H 	0.57108 0.32738 0.97264 0.05100
H 	H 	0.63972 0.35187 0.01603 0.02800
H 	H 	0.48782 0.35603 0.08929 0.04300
H 	H 	0.55679 0.38117 0.13205 0.02800
H 	H 	0.63278 0.37912 0.09547 0.03900
C 	C 	0.30154 0.63017 0.98074 -0.10200
C 	C 	0.34296 0.65281 0.96613 0.03400
C 	C 	0.38421 0.62899 0.97439 -0.03700
H 	H 	0.41612 0.64720 0.96497 0.04400
C 	C 	0.38446 0.58139 0.99391 -0.05200
C 	C 	0.34303 0.55585 0.00248 -0.01400
C 	C 	0.30177 0.58087 0.99715 0.01900
H 	H 	0.27002 0.56219 0.00625 0.03000
C 	C 	0.34251 0.50192 0.01304 0.01600
C 	C 	0.34986 0.48551 0.05735 -0.05000
C 	C 	0.35256 0.43436 0.06659 -0.01300
C 	C 	0.34770 0.39952 0.03175 -0.04900
C 	C 	0.33988 0.41575 0.98767 -0.00200
C 	C 	0.33738 0.46682 0.97824 -0.03900
C 	C 	0.34325 0.70023 0.94053 0.01400
C 	C 	0.35956 0.74441 0.96070 -0.04900
C 	C 	0.35609 0.78999 0.93797 -0.03100
C 	C 	0.33696 0.79156 0.89487 -0.04100
C 	C 	0.32134 0.74753 0.87436 -0.02500
C 	C 	0.32460 0.70188 0.89701 -0.04300
H 	H 	0.36835 0.82408 0.95371 0.02500
H 	H 	0.33443 0.82685 0.87729 0.03400
H 	H 	0.30668 0.74878 0.84094 0.03500
H 	H 	0.31204 0.66797 0.88110 0.04700
H 	H 	0.37410 0.74351 0.99423 0.03000
H 	H 	0.35417 0.51233 0.08438 0.04100
H 	H 	0.35873 0.42176 0.10068 0.02400
H 	H 	0.33207 0.47916 0.94388 0.04800
H 	H 	0.33620 0.38880 0.96072 0.03100
H 	H 	0.35029 0.35999 0.03886 0.03500
C 	C 	0.62275 0.49211 0.03180 -0.10100
C 	C 	0.65883 0.49104 0.06328 0.02500
C 	C 	0.69947 0.46686 0.05186 -0.02200
H 	H 	0.72600 0.46270 0.07691 0.03800
C 	C 	0.70494 0.44608 0.00880 -0.09200
C 	C 	0.67111 0.45301 0.97606 0.02800
C 	C 	0.62921 0.47260 0.98850 -0.00400
H 	H 	0.60162 0.47267 0.96437 0.03400
C 	C 	0.67978 0.44091 0.92838 0.01300
C 	C 	0.70473 0.47446 0.90122 -0.04200
C 	C 	0.71102 0.46425 0.85548 -0.01700
C 	C 	0.69307 0.42022 0.83686 -0.03500
C 	C 	0.66856 0.38645 0.86393 -0.02700
C 	C 	0.66166 0.39684 0.90958 -0.06000
C 	C 	0.65445 0.51475 0.10806 0.01000
C 	C 	0.68120 0.55699 0.11888 -0.04900
C 	C 	0.67693 0.57951 0.16115 -0.02700
C 	C 	0.64633 0.55976 0.19288 -0.04200
C 	C 	0.62003 0.51736 0.18247 -0.02800
C 	C 	0.62415 0.49472 0.14025 -0.05000
H 	H 	0.69742 0.61220 0.16934 0.02100
H 	H 	0.64308 0.57725 0.22558 0.03200
H 	H 	0.59645 0.50203 0.20713 0.02700
H 	H 	0.60361 0.46199 0.13244 0.04000
H 	H 	0.70535 0.57219 0.09471 0.02800
H 	H 	0.71875 0.50859 0.91542 0.04900
H 	H 	0.72992 0.49041 0.83449 0.03300
H 	H 	0.64227 0.37079 0.93027 0.03100
H 	H 	0.65475 0.35235 0.84948 0.02300
H 	H 	0.69823 0.41222 0.80148 0.03600
C 	C 	0.65673 0.68922 0.95070 -0.08400
C 	C 	0.66579 0.63731 0.94932 0.02400
C 	C 	0.62968 0.60326 0.94218 -0.01800
H 	H 	0.63577 0.56354 0.94378 0.04800
C 	C 	0.58528 0.62053 0.93637 -0.08500
C 	C 	0.57899 0.67155 0.92653 0.02100
C 	C 	0.61491 0.70578 0.93386 -0.01800
H 	H 	0.60953 0.74536 0.92868 0.04600
C 	C 	0.53473 0.68936 0.90946 0.01800
C 	C 	0.51226 0.72834 0.93151 -0.04900
C 	C 	0.47153 0.74654 0.91413 -0.02000
C 	C 	0.45252 0.72528 0.87533 -0.03700
C 	C 	0.47418 0.68574 0.85384 -0.01800
C 	C 	0.51534 0.66795 0.87062 -0.04400
C 	C 	0.71269 0.61833 0.95275 0.01800
C 	C 	0.74477 0.62929 0.91887 -0.04700
C 	C 	0.78837 0.60906 0.92105 -0.02300
C 	C 	0.80005 0.57787 0.95693 -0.04400
C 	C 	0.76811 0.56663 0.99058 -0.01300
C 	C 	0.72447 0.58667 0.98848 -0.04600
H 	H 	0.81305 0.61743 0.89485 0.03200
H 	H 	0.83385 0.56242 0.95864 0.03800
H 	H 	0.77707 0.54214 0.01813 0.02700
H 	H 	0.69966 0.57725 0.01422 0.03500
H 	H 	0.73582 0.65309 0.89079 0.04600
H 	H 	0.52650 0.74469 0.96187 0.03800
H 	H 	0.45493 0.77740 0.93053 0.03100
H 	H 	0.53232 0.63786 0.85331 0.04700
H 	H 	0.45932 0.66924 0.82388 0.03600
H 	H 	0.42125 0.73973 0.86167 0.04200
