data_crystal

_cell_length_a 21.72371
_cell_length_b 21.99647
_cell_length_c 54.21890
_cell_angle_alpha 90.07416
_cell_angle_beta  90.07814
_cell_angle_gamma 119.36443

_symmetry_space_group_name_	'P 1'
_symmetry_space_group_name_H-M	'P 1'

loop_
_symmetry_equiv_pos_as_xyz
  x,y,z

loop_
_atom_site_label
_atom_site_type_symbol
_atom_site_fract_x
_atom_site_fract_y
_atom_site_fract_z
_atom_site_charge
C 	C 	0.58336 0.33548 0.93778 0.29000
C 	C 	0.82418 0.28891 0.91102 0.27700
C 	C 	0.78639 0.45993 0.93670 0.30900
C 	C 	0.64133 0.16150 0.91305 0.31800
C 	C 	0.79815 0.43184 0.86138 0.27900
C 	C 	0.59726 0.29532 0.85717 0.25400
Ni	Ni	0.70743 0.30412 0.93555 1.11400
Ni	Ni	0.71780 0.28388 0.87666 1.12200
Ni	Ni	0.68316 0.40085 0.89606 1.12000
O 	O 	0.63646 0.33453 0.94989 -0.36700
O 	O 	0.59062 0.35825 0.91465 -0.38000
O 	O 	0.76094 0.36690 0.85374 -0.37000
O 	O 	0.77967 0.26878 0.92958 -0.36300
O 	O 	0.81462 0.31938 0.89182 -0.36400
O 	O 	0.63356 0.36287 0.86308 -0.37000
O 	O 	0.79214 0.40388 0.93997 -0.37300
O 	O 	0.72798 0.45488 0.92760 -0.38000
O 	O 	0.62554 0.25391 0.85929 -0.35400
O 	O 	0.63189 0.20126 0.92929 -0.37600
O 	O 	0.68196 0.18776 0.89305 -0.37200
O 	O 	0.77988 0.45303 0.88126 -0.37300
O 	O 	0.68672 0.31823 0.90321 -0.72000
H 	H 	0.63584 0.28439 0.90254 0.16000
C 	C 	0.76054 0.46418 0.65673 0.25500
C 	C 	0.64289 0.16366 0.64474 0.27700
C 	C 	0.82300 0.35715 0.61867 0.32900
C 	C 	0.56584 0.25570 0.68089 0.25800
C 	C 	0.62837 0.26215 0.57630 0.30900
C 	C 	0.56456 0.37140 0.61192 0.30700
Ni	Ni	0.71662 0.31217 0.65953 1.11300
Ni	Ni	0.57337 0.24319 0.62656 1.12200
Ni	Ni	0.70585 0.38491 0.60897 1.12200
O 	O 	0.73993 0.41055 0.67201 -0.35400
O 	O 	0.77459 0.45901 0.63318 -0.35600
O 	O 	0.60811 0.22044 0.59550 -0.38400
O 	O 	0.70323 0.22126 0.64350 -0.36100
O 	O 	0.58336 0.16560 0.64375 -0.36600
O 	O 	0.63355 0.41583 0.61239 -0.38500
O 	O 	0.81530 0.36302 0.64243 -0.36500
O 	O 	0.77300 0.34761 0.60307 -0.38400
O 	O 	0.53909 0.30297 0.60871 -0.37700
O 	O 	0.62780 0.25681 0.68258 -0.35900
O 	O 	0.53685 0.25580 0.65929 -0.36300
O 	O 	0.65140 0.32941 0.57908 -0.38300
O 	O 	0.66047 0.32219 0.63542 -0.71800
H 	H 	0.64302 0.34882 0.64492 0.16100
C 	C 	0.94981 0.85440 0.79848 0.28100
C 	C 	0.89376 0.05822 0.74448 0.27600
C 	C 	0.91708 0.88030 0.73376 0.26900
C 	C 	0.95133 0.07168 0.81341 0.25000
C 	C 	0.12265 0.07581 0.73029 0.26700
C 	C 	0.15999 0.09968 0.78530 0.25100
Ni	Ni	0.89611 0.95169 0.77797 1.10000
Ni	Ni	0.03450 0.10202 0.76626 1.11400
Ni	Ni	0.04766 0.96155 0.76418 1.10200
O 	O 	0.89520 0.86355 0.79322 -0.35600
O 	O 	0.01571 0.90426 0.79536 -0.39300
O 	O 	0.10137 0.11943 0.73779 -0.37400
O 	O 	0.86737 0.02294 0.76477 -0.33800
O 	O 	0.96158 0.08655 0.73989 -0.36000
O 	O 	0.13838 0.03211 0.78148 -0.35700
O 	O 	0.88082 0.90872 0.74282 -0.36200
O 	O 	0.96711 0.87809 0.74688 -0.37100
O 	O 	0.11466 0.12257 0.78951 -0.36700
O 	O 	0.90961 0.00308 0.81151 -0.32400
O 	O 	0.97414 0.11162 0.79339 -0.35500
O 	O 	0.08056 0.00832 0.73157 -0.36500
O 	O 	0.99512 0.00521 0.77388 -0.68600
H 	H 	0.00925 0.00973 0.79135 0.14800
C 	C 	0.36161 0.66253 0.47927 0.29100
C 	C 	0.18057 0.66806 0.39597 0.27900
C 	C 	0.22234 0.52697 0.45369 0.30800
C 	C 	0.33064 0.81845 0.42728 0.29500
C 	C 	0.31054 0.57626 0.37714 0.27800
C 	C 	0.47612 0.74643 0.40356 0.25700
Ni	Ni	0.25006 0.67057 0.44496 1.11300
Ni	Ni	0.33064 0.71385 0.39169 1.11900
Ni	Ni	0.36098 0.61724 0.42801 1.12100
O 	O 	0.30317 0.66793 0.47710 -0.37300
O 	O 	0.40220 0.66866 0.46003 -0.38400
O 	O 	0.34463 0.64338 0.37215 -0.37000
O 	O 	0.17945 0.67598 0.41994 -0.34700
O 	O 	0.22611 0.65278 0.38608 -0.37600
O 	O 	0.44948 0.67853 0.40788 -0.35900
O 	O 	0.19763 0.56309 0.44238 -0.37800
O 	O 	0.28800 0.54116 0.45020 -0.37900
O 	O 	0.43575 0.77194 0.39539 -0.37800
O 	O 	0.29655 0.77833 0.44627 -0.36700
O 	O 	0.31660 0.79419 0.40430 -0.37700
O 	O 	0.30979 0.55375 0.39962 -0.36900
O 	O 	0.32377 0.67943 0.42432 -0.71100
H 	H 	0.36291 0.72136 0.43186 0.15100
C 	C 	0.46686 0.75820 0.14246 0.25400
C 	C 	0.29854 0.55462 0.06612 0.33000
C 	C 	0.47140 0.76531 0.07108 0.30900
C 	C 	0.26952 0.53003 0.13372 0.25900
C 	C 	0.25776 0.73136 0.06760 0.32800
C 	C 	0.24531 0.72709 0.13713 0.25600
Ni	Ni	0.39913 0.64318 0.10490 1.11400
Ni	Ni	0.24086 0.62041 0.10053 1.12100
Ni	Ni	0.37066 0.77487 0.10542 1.12100
O 	O 	0.44563 0.69134 0.13797 -0.36200
O 	O 	0.46017 0.79868 0.12555 -0.35300
O 	O 	0.25032 0.66866 0.06840 -0.39200
O 	O 	0.36178 0.60693 0.06983 -0.38600
O 	O 	0.24674 0.54325 0.08126 -0.37700
O 	O 	0.31439 0.77109 0.13528 -0.37300
O 	O 	0.48228 0.72958 0.08822 -0.37100
O 	O 	0.42031 0.78050 0.07322 -0.38100
O 	O 	0.20927 0.68134 0.11925 -0.35800
O 	O 	0.32799 0.54604 0.12083 -0.34600
O 	O 	0.23337 0.56387 0.13078 -0.37300
O 	O 	0.29402 0.77757 0.08481 -0.38000
O 	O 	0.33670 0.67764 0.10964 -0.71900
H 	H 	0.33250 0.67449 0.12775 0.16200
C 	C 	0.05502 0.92072 0.24194 0.25600
C 	C 	0.07523 0.15273 0.30581 0.27600
C 	C 	0.06521 0.94575 0.30969 0.24600
C 	C 	0.07121 0.14474 0.23620 0.25700
C 	C 	0.87252 0.95828 0.31153 0.24500
C 	C 	0.85796 0.94946 0.24077 0.21900
Ni	Ni	0.09808 0.05626 0.27224 1.12000
Ni	Ni	0.95357 0.06507 0.27347 1.12300
Ni	Ni	0.94581 0.91671 0.27577 1.11600
O 	O 	0.10437 0.97336 0.25520 -0.35400
O 	O 	0.98640 0.89889 0.24469 -0.37000
O 	O 	0.87042 0.00014 0.29459 -0.32900
O 	O 	0.11695 0.14883 0.28917 -0.34800
O 	O 	0.00667 0.10998 0.30517 -0.36400
O 	O 	0.85839 0.90691 0.25818 -0.35500
O 	O 	0.09131 0.01307 0.30682 -0.33000
O 	O 	0.01981 0.90182 0.29364 -0.35700
O 	O 	0.89252 0.01853 0.24372 -0.34300
O 	O 	0.10517 0.10887 0.23965 -0.35500
O 	O 	0.02825 0.14700 0.25332 -0.35200
O 	O 	0.91387 0.93078 0.30892 -0.38000
O 	O 	0.00028 0.01260 0.26799 -0.71600
H 	H 	0.99758 0.00962 0.24986 0.16900
C 	C 	0.11820 0.29374 0.20018 0.12000
C 	C 	0.10664 0.33936 0.18543 -0.08800
C 	C 	0.15450 0.37409 0.16629 0.01500
C 	C 	0.21358 0.36697 0.16268 0.11600
C 	C 	0.22443 0.32035 0.17727 -0.08400
C 	C 	0.17682 0.28635 0.19657 0.01300
O 	O 	0.06441 0.23935 0.21319 -0.18600
C 	C 	0.09608 0.19783 0.21672 0.05300
C 	C 	0.16299 0.22551 0.20675 -0.05600
O 	O 	0.26871 0.42357 0.15083 -0.18500
C 	C 	0.23750 0.46582 0.14848 0.05000
C 	C 	0.16952 0.43652 0.15740 -0.05900
H 	H 	0.06124 0.34640 0.18840 0.07000
H 	H 	0.27004 0.31355 0.17447 0.07000
H 	H 	0.19200 0.19779 0.20365 0.06400
H 	H 	0.14223 0.46500 0.16218 0.06100
C 	C 	0.60622 0.86660 0.18244 0.11900
C 	C 	0.67515 0.92313 0.18445 -0.09700
C 	C 	0.72802 0.91028 0.19381 0.03000
C 	C 	0.71273 0.84530 0.20223 0.11100
C 	C 	0.64360 0.78933 0.20077 -0.08400
C 	C 	0.59057 0.80212 0.19159 0.01000
O 	O 	0.55883 0.86406 0.16462 -0.19000
C 	C 	0.51408 0.79177 0.16368 0.04900
C 	C 	0.53239 0.75469 0.17983 -0.05800
O 	O 	0.76142 0.84650 0.21910 -0.19000
C 	C 	0.80622 0.91861 0.22060 0.07100
C 	C 	0.78680 0.95722 0.20559 -0.10700
H 	H 	0.68771 0.97442 0.17790 0.06500
H 	H 	0.63115 0.73801 0.20726 0.06900
H 	H 	0.51797 0.70033 0.17754 0.06300
H 	H 	0.80103 0.01120 0.20877 0.09500
C 	C 	0.14079 0.78087 0.16974 0.11500
C 	C 	0.07949 0.78196 0.17722 -0.08700
C 	C 	0.07756 0.80426 0.20139 0.01200
C 	C 	0.13524 0.82789 0.21697 0.11700
C 	C 	0.19599 0.82599 0.20945 -0.08700
C 	C 	0.19792 0.80446 0.18530 0.01200
O 	O 	0.14186 0.73971 0.15041 -0.18600
C 	C 	0.20554 0.74105 0.15609 0.04900
C 	C 	0.23757 0.77736 0.17741 -0.06000
O 	O 	0.13736 0.87344 0.23511 -0.18300
C 	C 	0.07636 0.87590 0.22864 0.05000
C 	C 	0.04008 0.83486 0.20868 -0.05800
H 	H 	0.03473 0.76495 0.16490 0.06700
H 	H 	0.24124 0.84377 0.22159 0.06800
H 	H 	0.29117 0.79371 0.18326 0.06000
H 	H 	0.00377 0.84269 0.19716 0.05700
C 	C 	0.65469 0.81588 0.38757 0.11500
C 	C 	0.70077 0.80621 0.37197 -0.08600
C 	C 	0.73326 0.85410 0.35282 0.01300
C 	C 	0.72630 0.91250 0.35040 0.11800
C 	C 	0.68306 0.92425 0.36660 -0.08900
C 	C 	0.64839 0.87532 0.38545 0.01000
O 	O 	0.59629 0.75979 0.39820 -0.18700
C 	C 	0.55330 0.79005 0.40138 0.04700
C 	C 	0.58447 0.85914 0.39425 -0.06100
O 	O 	0.77910 0.96513 0.33641 -0.19300
C 	C 	0.81934 0.93272 0.33121 0.05100
C 	C 	0.79227 0.86655 0.34098 -0.06000
H 	H 	0.70685 0.76037 0.37361 0.06800
H 	H 	0.67636 0.96964 0.36458 0.06300
H 	H 	0.55566 0.88585 0.38910 0.05800
H 	H 	0.82014 0.83729 0.34288 0.05800
C 	C 	0.20147 0.43444 0.33975 0.12000
C 	C 	0.13388 0.37570 0.33802 -0.08400
C 	C 	0.12815 0.30934 0.33931 0.01300
C 	C 	0.18705 0.30125 0.34046 0.12000
C 	C 	0.25458 0.35988 0.34193 -0.08400
C 	C 	0.26043 0.42628 0.34071 0.01300
O 	O 	0.21227 0.49750 0.34942 -0.18400
C 	C 	0.28268 0.52555 0.35692 0.04600
C 	C 	0.31180 0.48361 0.35161 -0.05200
O 	O 	0.17614 0.23762 0.33145 -0.18200
C 	C 	0.10544 0.20881 0.32424 0.04800
C 	C 	0.07631 0.25117 0.32890 -0.05200
H 	H 	0.08728 0.38154 0.33684 0.07200
H 	H 	0.30114 0.35397 0.34315 0.07100
H 	H 	0.35579 0.48510 0.36161 0.05800
H 	H 	0.03212 0.24888 0.31879 0.05800
C 	C 	0.14309 0.85461 0.33556 0.11800
C 	C 	0.15465 0.79784 0.33231 -0.08600
C 	C 	0.12544 0.74333 0.34951 0.01200
C 	C 	0.08984 0.74692 0.37003 0.11700
C 	C 	0.07627 0.80270 0.37284 -0.08600
C 	C 	0.10595 0.85735 0.35569 0.01200
O 	O 	0.14404 0.89538 0.31593 -0.18600
C 	C 	0.10203 0.92112 0.32589 0.05000
C 	C 	0.07896 0.89869 0.34958 -0.06200
O 	O 	0.09365 0.70979 0.39013 -0.18300
C 	C 	0.13675 0.68545 0.38001 0.04100
C 	C 	0.15467 0.70412 0.35567 -0.05200
H 	H 	0.18405 0.79544 0.31657 0.06900
H 	H 	0.04696 0.80524 0.38857 0.06600
H 	H 	0.03152 0.89502 0.35755 0.05400
H 	H 	0.20116 0.70788 0.34683 0.05100
C 	C 	0.61497 0.23173 0.55124 -0.08400
C 	C 	0.61118 0.16688 0.54724 0.01900
C 	C 	0.58925 0.13356 0.52438 -0.06300
C 	C 	0.57131 0.16487 0.50520 0.03200
C 	C 	0.57893 0.23144 0.50872 -0.06500
C 	C 	0.60062 0.26475 0.53162 0.01900
C 	C 	0.53717 0.12461 0.48260 -0.00200
C 	C 	0.46723 0.10709 0.47706 -0.02600
C 	C 	0.42855 0.05492 0.45972 -0.04400
C 	C 	0.45931 0.01960 0.44797 0.04200
C 	C 	0.53138 0.04248 0.45147 -0.04500
C 	C 	0.57028 0.09491 0.46872 -0.02600
C 	C 	0.41436 0.95111 0.43791 0.00100
C 	C 	0.37611 0.89150 0.43168 -0.08200
H 	H 	0.62353 0.14147 0.56201 0.04700
H 	H 	0.58375 0.08225 0.52186 0.05600
H 	H 	0.56592 0.25640 0.49396 0.05100
H 	H 	0.60380 0.31500 0.53434 0.04100
H 	H 	0.44142 0.13052 0.48734 0.04400
H 	H 	0.37315 0.03835 0.45686 0.05800
H 	H 	0.55598 0.01627 0.44216 0.05700
H 	H 	0.62484 0.10939 0.47235 0.04500
C 	C 	0.18175 0.48026 0.47419 -0.08900
C 	C 	0.21688 0.46325 0.49248 0.01800
C 	C 	0.18284 0.43286 0.51459 -0.06600
C 	C 	0.11300 0.41759 0.51840 0.02700
C 	C 	0.07592 0.42888 0.49938 -0.06400
C 	C 	0.11008 0.46002 0.47735 0.01500
C 	C 	0.08125 0.39745 0.54304 0.00300
C 	C 	0.02446 0.33029 0.54696 -0.04500
C 	C 	0.98173 0.31671 0.56775 -0.02300
C 	C 	0.99498 0.37052 0.58446 0.00100
C 	C 	0.05668 0.43508 0.58208 -0.03800
C 	C 	0.09983 0.44854 0.56141 -0.03700
C 	C 	0.93776 0.36575 0.59914 0.05400
C 	C 	0.88683 0.36198 0.60934 -0.10000
H 	H 	0.27173 0.47708 0.49017 0.04000
H 	H 	0.21160 0.42366 0.52911 0.04700
H 	H 	0.02152 0.41628 0.50209 0.05000
H 	H 	0.08157 0.47071 0.46315 0.04000
H 	H 	0.01073 0.28999 0.53315 0.04600
H 	H 	0.93493 0.26612 0.56973 0.04700
H 	H 	0.06816 0.47660 0.59517 0.04300
H 	H 	0.14471 0.50015 0.55880 0.03900
C 	C 	0.37901 0.64522 0.50368 -0.08300
C 	C 	0.44483 0.64947 0.50784 0.01300
C 	C 	0.45599 0.62033 0.52910 -0.06400
C 	C 	0.40153 0.58677 0.54637 0.02600
C 	C 	0.33767 0.58692 0.54314 -0.06600
C 	C 	0.32660 0.61654 0.52202 0.01300
C 	C 	0.40830 0.54417 0.56592 0.00200
C 	C 	0.37085 0.47117 0.56401 -0.03700
C 	C 	0.39053 0.43089 0.57843 -0.03100
C 	C 	0.44765 0.46341 0.59478 -0.00400
C 	C 	0.47939 0.53555 0.59876 -0.03100
C 	C 	0.45998 0.57594 0.58428 -0.03900
C 	C 	0.48413 0.42706 0.60242 0.04800
C 	C 	0.51869 0.39962 0.60744 -0.09500
H 	H 	0.48651 0.67319 0.49427 0.03900
H 	H 	0.50583 0.62106 0.53162 0.04900
H 	H 	0.29551 0.56148 0.55646 0.04600
H 	H 	0.27580 0.61359 0.51930 0.03700
H 	H 	0.32992 0.44607 0.55017 0.04000
H 	H 	0.36489 0.37498 0.57554 0.04400
H 	H 	0.52278 0.56097 0.61171 0.04300
H 	H 	0.48806 0.63219 0.58627 0.04100
C 	C 	0.76168 0.07944 0.71388 0.11900
C 	C 	0.69179 0.06405 0.70997 -0.08600
C 	C 	0.66702 0.05599 0.68551 0.01400
C 	C 	0.71001 0.06165 0.66578 0.12000
C 	C 	0.77861 0.07277 0.67009 -0.08200
C 	C 	0.80450 0.08673 0.69427 0.01200
O 	O 	0.78622 0.06958 0.73636 -0.18000
C 	C 	0.84843 0.07212 0.72806 0.04700
C 	C 	0.85951 0.08161 0.70297 -0.05200
O 	O 	0.69405 0.08559 0.64438 -0.18300
C 	C 	0.64296 0.10080 0.65348 0.04300
C 	C 	0.62384 0.07955 0.67758 -0.05500
H 	H 	0.65842 0.06050 0.72535 0.07300
H 	H 	0.81280 0.07751 0.65483 0.07300
H 	H 	0.89203 0.06667 0.69223 0.06700
H 	H 	0.60052 0.10192 0.68973 0.05800
C 	C 	0.42677 0.22920 0.71812 0.11900
C 	C 	0.36726 0.23827 0.71651 -0.08500
C 	C 	0.30167 0.17950 0.71173 0.01000
C 	C 	0.29307 0.11346 0.71174 0.11900
C 	C 	0.35150 0.10346 0.71495 -0.08900
C 	C 	0.41850 0.16266 0.71817 0.01200
O 	O 	0.49218 0.27983 0.70953 -0.19000
C 	C 	0.52075 0.23754 0.70272 0.05100
C 	C 	0.47830 0.16816 0.70878 -0.05700
O 	O 	0.22407 0.06125 0.71595 -0.19000
C 	C 	0.19239 0.10306 0.71873 0.04000
C 	C 	0.23856 0.17380 0.71642 -0.05400
H 	H 	0.37299 0.29003 0.71673 0.06800
H 	H 	0.34533 0.05153 0.71456 0.07000
H 	H 	0.48080 0.12566 0.69953 0.05800
H 	H 	0.23082 0.21456 0.72458 0.05800
C 	C 	0.85366 0.63589 0.68030 0.11700
C 	C 	0.90436 0.70670 0.67920 -0.08600
C 	C 	0.88469 0.75578 0.68689 0.01200
C 	C 	0.81790 0.73538 0.69593 0.11700
C 	C 	0.76701 0.66433 0.69666 -0.08600
C 	C 	0.78783 0.61551 0.68995 0.01500
O 	O 	0.85682 0.58565 0.66561 -0.18500
C 	C 	0.78607 0.53370 0.66727 0.05100
C 	C 	0.74468 0.55063 0.68179 -0.05900
O 	O 	0.81543 0.78343 0.71197 -0.18600
C 	C 	0.88728 0.83276 0.71268 0.04600
C 	C 	0.92876 0.81713 0.69757 -0.05800
H 	H 	0.95698 0.72309 0.67231 0.06700
H 	H 	0.71451 0.64767 0.70371 0.06800
H 	H 	0.68757 0.52566 0.68095 0.05600
H 	H 	0.98479 0.83657 0.70032 0.05700
C 	C 	0.84400 0.52790 0.94501 -0.08300
C 	C 	0.82915 0.57463 0.95788 0.01800
C 	C 	0.88356 0.63242 0.96994 -0.06700
C 	C 	0.95297 0.64332 0.96941 0.03600
C 	C 	0.96840 0.59991 0.95469 -0.05600
C 	C 	0.91427 0.54278 0.94248 0.02000
C 	C 	0.00633 0.69158 0.98725 -0.01400
C 	C 	0.07624 0.73543 0.97956 -0.03300
C 	C 	0.13133 0.76125 0.99681 -0.03700
C 	C 	0.11656 0.74482 0.02185 -0.00100
C 	C 	0.04622 0.71020 0.02983 -0.04400
C 	C 	0.99122 0.68325 0.01261 -0.01900
C 	C 	0.17065 0.74741 0.03790 0.04900
C 	C 	0.21259 0.74341 0.05143 -0.10400
H 	H 	0.77522 0.56440 0.95959 0.03700
H 	H 	0.87121 0.66654 0.98072 0.04900
H 	H 	0.02173 0.60800 0.95389 0.04600
H 	H 	0.92656 0.50820 0.93195 0.04900
H 	H 	0.08838 0.74477 0.96009 0.03700
H 	H 	0.18555 0.78960 0.99051 0.04100
H 	H 	0.03428 0.69885 0.04924 0.04600
H 	H 	0.93742 0.65106 0.01889 0.03900
C 	C 	0.51429 0.78594 0.04866 -0.08600
C 	C 	0.49036 0.74244 0.02784 0.01800
C 	C 	0.51522 0.76991 0.00439 -0.06400
C 	C 	0.56411 0.84105 0.00169 0.02800
C 	C 	0.59396 0.88235 0.02280 -0.06500
C 	C 	0.56901 0.85485 0.04620 0.01800
C 	C 	0.57359 0.87490 0.97744 0.00000
C 	C 	0.51589 0.87571 0.96604 -0.04100
C 	C 	0.52722 0.92426 0.94754 -0.02500
C 	C 	0.59617 0.97214 0.94032 -0.03300
C 	C 	0.65302 0.96563 0.94953 -0.06200
C 	C 	0.64179 0.91710 0.96806 -0.03100
C 	C 	0.60971 0.03611 0.92858 0.08900
C 	C 	0.62272 0.09214 0.92050 -0.10900
H 	H 	0.44881 0.68875 0.02961 0.04100
H 	H 	0.49305 0.73710 0.98826 0.04900
H 	H 	0.63264 0.93709 0.02097 0.04600
H 	H 	0.58855 0.88855 0.06223 0.03100
H 	H 	0.46280 0.84244 0.97280 0.04300
H 	H 	0.48282 0.92806 0.94018 0.03400
H 	H 	0.70646 0.00160 0.94368 0.06900
H 	H 	0.68655 0.91567 0.97628 0.03500
C 	C 	0.52169 0.32728 0.95199 -0.07800
C 	C 	0.45791 0.30987 0.93983 0.01500
C 	C 	0.40380 0.31416 0.95232 -0.06200
C 	C 	0.41291 0.33579 0.97707 0.02700
C 	C 	0.47464 0.34850 0.98966 -0.06200
C 	C 	0.52863 0.34408 0.97723 0.01500
C 	C 	0.36250 0.35371 0.98887 0.00500
C 	C 	0.33365 0.32580 0.01202 -0.03800
C 	C 	0.30210 0.35623 0.02621 -0.02900
C 	C 	0.29889 0.41441 0.01727 -0.00600
C 	C 	0.32029 0.43702 0.99305 -0.03000
C 	C 	0.35221 0.40697 0.97891 -0.03800
C 	C 	0.29080 0.46015 0.03440 0.05300
C 	C 	0.29043 0.50165 0.04887 -0.10600
H 	H 	0.45108 0.29512 0.92053 0.03900
H 	H 	0.35588 0.30306 0.94254 0.05100
H 	H 	0.48218 0.36499 0.00878 0.05000
H 	H 	0.57713 0.35699 0.98695 0.04100
H 	H 	0.33957 0.28344 0.01965 0.04600
H 	H 	0.28467 0.33763 0.04477 0.04600
H 	H 	0.31708 0.48132 0.98584 0.04200
H 	H 	0.37318 0.42824 0.96089 0.04300
C 	C 	0.95596 0.25133 0.89215 0.11800
C 	C 	0.99639 0.25204 0.87191 -0.08100
C 	C 	0.99136 0.18876 0.86431 0.02800
C 	C 	0.94090 0.12587 0.87402 0.11400
C 	C 	0.89779 0.12490 0.89343 -0.08100
C 	C 	0.91013 0.18896 0.90339 0.01100
O 	O 	0.93872 0.30371 0.89581 -0.18300
C 	C 	0.87771 0.26682 0.90992 0.04200
C 	C 	0.86060 0.19870 0.91466 -0.05300
O 	O 	0.91989 0.06961 0.85800 -0.18000
C 	C 	0.96164 0.10506 0.83772 0.06900
C 	C 	0.00439 0.17573 0.84130 -0.08200
H 	H 	0.02619 0.29922 0.86125 0.06300
H 	H 	0.85281 0.07630 0.89923 0.07200
H 	H 	0.80757 0.15721 0.91864 0.06100
H 	H 	0.02569 0.21410 0.82667 0.06300
C 	C 	0.44019 0.20157 0.82271 0.11900
C 	C 	0.40112 0.16669 0.80171 -0.08500
C 	C 	0.34637 0.17907 0.79420 0.01500
C 	C 	0.32897 0.22203 0.80762 0.11500
C 	C 	0.36988 0.25877 0.82813 -0.08500
C 	C 	0.42344 0.24502 0.83585 0.01300
O 	O 	0.50819 0.21319 0.82696 -0.18200
C 	C 	0.53119 0.26950 0.84329 0.05100
C 	C 	0.48101 0.28851 0.84882 -0.06200
O 	O 	0.25869 0.20539 0.80519 -0.18700
C 	C 	0.23543 0.14740 0.78970 0.05000
C 	C 	0.28723 0.13182 0.78284 -0.06000
H 	H 	0.41351 0.13188 0.79139 0.07200
H 	H 	0.35749 0.29339 0.83857 0.06700
H 	H 	0.49128 0.33765 0.85695 0.05600
H 	H 	0.27763 0.08121 0.77642 0.06500
C 	C 	0.88111 0.67524 0.81021 0.12100
C 	C 	0.85282 0.60506 0.80359 -0.08900
C 	C 	0.87385 0.56382 0.81709 0.01400
C 	C 	0.92014 0.59118 0.83680 0.11500
C 	C 	0.95183 0.66273 0.84227 -0.08200
C 	C 	0.92816 0.70256 0.82942 0.00400
O 	O 	0.88188 0.72497 0.79431 -0.18200
C 	C 	0.93582 0.78469 0.80555 0.03600
C 	C 	0.96356 0.77198 0.82655 -0.04300
O 	O 	0.90950 0.54251 0.85492 -0.18400
C 	C 	0.85066 0.48435 0.84497 0.04500
C 	C 	0.83065 0.49614 0.82211 -0.05500
H 	H 	0.81503 0.58301 0.78863 0.07100
H 	H 	0.98891 0.68497 0.85741 0.06700
H 	H 	0.01365 0.80778 0.83505 0.04400
H 	H 	0.77759 0.46621 0.81471 0.06200
