data_crystal

_cell_length_a 26.14917
_cell_length_b 26.47802
_cell_length_c 21.30732
_cell_angle_alpha 95.48271
_cell_angle_beta  95.48299
_cell_angle_gamma 125.83410

_symmetry_space_group_name_	'P 1'
_symmetry_space_group_name_H-M	'P 1'

loop_
_symmetry_equiv_pos_as_xyz
  x,y,z

loop_
_atom_site_label
_atom_site_type_symbol
_atom_site_fract_x
_atom_site_fract_y
_atom_site_fract_z
_atom_site_charge
C 	C 	0.13134 0.08554 0.04034 0.15800
C 	C 	0.09468 0.10845 0.03820 -0.10600
C 	C 	0.14758 0.04872 0.49723 0.06500
C 	C 	0.04285 0.00539 0.43488 0.12600
C 	C 	0.08188 0.01988 0.49454 -0.09000
C 	C 	0.05341 0.00289 0.55483 0.77700
F 	F 	0.10082 0.03298 0.60947 -0.34700
C 	C 	0.22081 0.15244 0.98394 0.07500
C 	C 	0.07070 0.02414 0.38056 0.03400
H 	H 	0.04006 0.01165 0.33496 0.15000
F 	F 	0.01402 0.02127 0.56074 -0.34200
H 	H 	0.18527 0.14223 0.94389 0.14100
F 	F 	0.26184 0.21860 0.88517 -0.34300
C 	C 	0.20086 0.12887 0.03995 0.03500
H 	H 	0.17716 0.05584 0.54136 0.13600
C 	C 	0.28578 0.18694 0.97847 -0.05500
H 	H 	0.11814 0.15881 0.04127 0.16600
C 	C 	0.17594 0.06984 0.44365 0.08200
C 	C 	0.13735 0.05791 0.38456 -0.06000
C 	C 	0.16634 0.07753 0.32484 0.78600
F 	F 	0.18373 0.03961 0.30333 -0.36100
F 	F 	0.21995 0.14027 0.33804 -0.35300
F 	F 	0.12311 0.07128 0.27587 -0.33600
F 	F 	0.06135 0.13091 0.91067 -0.34900
C 	C 	0.24695 0.14238 0.09272 -0.07600
C 	C 	0.22844 0.12502 0.15693 0.78600
F 	F 	0.28172 0.16060 0.20597 -0.35700
F 	F 	0.20109 0.06157 0.15502 -0.36400
F 	F 	0.18520 0.13652 0.17123 -0.35500
F 	F 	0.21725 0.19649 0.45999 -0.36000
C 	C 	0.02753 0.06608 0.02913 0.27000
H 	H 	0.23601 0.01993 0.41169 0.14100
F 	F 	0.01085 0.26713 0.07126 -0.31500
C 	C 	0.30616 0.21286 0.91763 0.78300
C 	C 	0.24621 0.10411 0.44992 0.10600
F 	F 	0.24311 0.18563 0.55922 -0.37400
C 	C 	0.26594 0.20608 0.50400 0.79000
C 	C 	0.26961 0.07062 0.42928 0.04000
C 	C 	0.10076 0.02032 0.03575 -0.10400
C 	C 	0.31035 0.17020 0.08444 0.05600
F 	F 	0.31099 0.17216 0.87755 -0.37600
C 	C 	0.28966 0.16973 0.47652 -0.08900
C 	C 	0.33023 0.19279 0.02799 0.07000
F 	F 	0.30972 0.00332 0.37750 -0.36700
F 	F 	0.31449 0.27070 0.51941 -0.36100
C 	C 	0.33553 0.10245 0.42936 -0.04700
H 	H 	0.34425 0.17388 0.12169 0.12300
F 	F 	0.00277 0.33803 0.03232 -0.33000
F 	F 	0.00423 0.26839 0.96531 -0.32200
H 	H 	0.12873 0.00221 0.03525 0.14800
C 	C 	0.35579 0.20084 0.47942 0.08900
H 	H 	0.97180 0.04905 0.42572 0.09000
C 	C 	0.80910 0.04176 0.33980 -0.04400
C 	C 	0.83603 0.00922 0.34737 -0.03000
C 	C 	0.80402 0.06102 0.27588 0.77800
C 	C 	0.65306 0.00279 0.37755 0.74900
F 	F 	0.74597 0.05121 0.25960 -0.36400
C 	C 	0.96630 0.09996 0.07524 0.09000
C 	C 	0.98864 0.08969 0.02184 -0.05400
H 	H 	0.97662 0.08880 0.12015 0.11100
H 	H 	0.78994 0.06956 0.98543 0.14100
F 	F 	0.97717 0.02736 0.89378 -0.40300
F 	F 	0.83702 0.08561 0.11512 -0.37500
F 	F 	0.92753 0.12197 0.18304 -0.36700
F 	F 	0.68410 0.03091 0.93837 -0.36800
C 	C 	0.82645 0.01169 0.46023 -0.15500
F 	F 	0.81730 0.01932 0.57158 -0.38800
F 	F 	0.80819 0.02601 0.22689 -0.35500
F 	F 	0.67247 0.09398 0.00323 -0.39200
C 	C 	0.90298 0.13061 0.12806 0.79500
C 	C 	0.93056 0.12403 0.07085 -0.09900
C 	C 	0.70214 0.09193 0.95374 0.79700
F 	F 	0.68048 0.10456 0.90000 -0.41500
F 	F 	0.36472 0.27234 0.93169 -0.35100
C 	C 	0.80024 0.04488 0.45290 0.08600
C 	C 	0.79192 0.06043 0.39357 0.06100
C 	C 	0.76970 0.10048 0.38987 0.10700
H 	H 	0.78718 0.05978 0.49361 0.11600
C 	C 	0.70379 0.07395 0.38471 -0.09100
C 	C 	0.68596 0.11463 0.39292 0.07600
C 	C 	0.73244 0.18073 0.40694 0.00600
C 	C 	0.81570 0.16642 0.39883 0.03100
H 	H 	0.63598 0.09492 0.39193 0.10400
H 	H 	0.86576 0.18588 0.40133 0.13800
F 	F 	0.89963 0.02205 0.54534 -0.39500
F 	F 	0.85343 0.12451 0.27995 -0.37100
C 	C 	0.37871 0.16836 0.45419 0.01800
C 	C 	0.35961 0.06623 0.40282 0.77900
F 	F 	0.39999 0.06795 0.45135 -0.39900
F 	F 	0.39287 0.09340 0.35449 -0.40800
C 	C 	0.93868 0.12655 0.95786 0.05000
C 	C 	0.91769 0.13836 0.01165 0.08100
C 	C 	0.97339 0.10144 0.96198 -0.03000
C 	C 	0.87952 0.16300 0.00438 0.07300
C 	C 	0.99527 0.08859 0.90290 0.73500
H 	H 	0.92775 0.13702 0.91274 0.13100
C 	C 	0.80469 0.20627 0.98057 0.00200
C 	C 	0.77453 0.14033 0.97439 -0.05700
C 	C 	0.81242 0.11967 0.98832 0.06800
F 	F 	0.96852 0.09514 0.84790 -0.36700
F 	F 	0.91748 0.19031 0.14050 -0.37000
C 	C 	0.40518 0.17901 0.97999 0.05600
C 	C 	0.39621 0.21785 0.01917 0.08200
C 	C 	0.46654 0.20174 0.96823 -0.03200
C 	C 	0.47361 0.16243 0.91817 0.77700
H 	H 	0.36397 0.13132 0.95779 0.13600
F 	F 	0.51672 0.20059 0.88091 -0.41900
F 	F 	0.41561 0.11675 0.87738 -0.36700
Cu	Cu	0.69351 0.27316 0.00808 0.93500
Cu	Cu	0.72439 0.26406 0.86200 0.91600
O 	O 	0.60383 0.24622 0.01223 -0.29300
O 	O 	0.68527 0.28653 0.91937 -0.62400
O 	O 	0.72090 0.21710 0.99632 -0.25600
O 	O 	0.78521 0.27050 0.92548 -0.37600
C 	C 	0.58684 0.28285 0.00109 0.26700
O 	O 	0.71227 0.27695 0.09795 -0.32100
C 	C 	0.76735 0.23045 0.96526 0.30700
O 	O 	0.68718 0.28265 0.79445 -0.35000
H 	H 	0.64120 0.27010 0.89978 0.24300
Cu	Cu	0.69676 0.26491 0.54617 0.91600
Cu	Cu	0.57850 0.25533 0.49746 0.91700
C 	C 	0.63509 0.28835 0.63421 0.33100
O 	O 	0.57579 0.24412 0.40691 -0.63700
O 	O 	0.72624 0.26832 0.40336 -0.26900
O 	O 	0.67778 0.20396 0.47528 -0.37800
O 	O 	0.48591 0.20106 0.48834 -0.29800
C 	C 	0.44681 0.20508 0.44876 0.30900
O 	O 	0.46890 0.25009 0.41393 -0.31000
O 	O 	0.65852 0.28106 0.31461 -0.32000
C 	C 	0.71294 0.22029 0.43050 0.29800
O 	O 	0.58267 0.25110 0.58952 -0.34100
H 	H 	0.55007 0.19931 0.38476 0.22600
C 	C 	0.62974 0.30415 0.69343 -0.08400
H 	H 	0.58245 0.28474 0.70434 0.13800
C 	C 	0.66449 0.27123 0.18463 -0.08400
H 	H 	0.66036 0.22900 0.19197 0.13800
C 	C 	0.79799 0.20720 0.40801 -0.05900
C 	C 	0.84908 0.27861 0.41934 0.78000
H 	H 	0.38972 0.25087 0.50015 0.11400
C 	C 	0.90987 0.22875 0.00852 -0.10300
C 	C 	0.87181 0.24965 0.99725 0.12500
C 	C 	0.98267 0.27610 0.01958 0.67600
H 	H 	0.89440 0.29979 0.00019 0.06800
C 	C 	0.44999 0.27937 0.05063 -0.09900
C 	C 	0.51197 0.29917 0.04453 0.07900
C 	C 	0.52075 0.26102 0.00377 -0.01200
C 	C 	0.44202 0.32232 0.09423 0.78900
F 	F 	0.49494 0.13224 0.94819 -0.38600
F 	F 	0.42921 0.30134 0.15170 -0.40100
F 	F 	0.39231 0.32253 0.06586 -0.36200
O 	O 	0.69081 0.30347 0.62310 -0.35200
H 	H 	0.55368 0.34393 0.07238 0.08300
C 	C 	0.69544 0.30256 0.13938 0.32700
C 	C 	0.70546 0.34086 0.79419 0.33200
O 	O 	0.63041 0.34169 0.99563 -0.30000
Cu	Cu	0.67467 0.30169 0.40657 0.94500
Cu	Cu	0.54873 0.29065 0.37685 0.92500
C 	C 	0.62077 0.28749 0.27564 0.33100
O 	O 	0.67347 0.30962 0.49968 -0.62800
O 	O 	0.58772 0.30634 0.29788 -0.33700
C 	C 	0.68692 0.35443 0.74177 -0.08200
C 	C 	0.62289 0.28422 0.21299 -0.08400
H 	H 	0.59541 0.29428 0.18221 0.10300
F 	F 	0.91020 0.29465 0.42275 -0.37700
F 	F 	0.84769 0.30695 0.47651 -0.41900
F 	F 	0.83805 0.30270 0.36932 -0.38500
F 	F 	0.49718 0.38434 0.10718 -0.37400
H 	H 	0.69539 0.35358 0.52255 0.23800
O 	O 	0.75774 0.37266 0.02041 -0.64500
O 	O 	0.71441 0.36147 0.14104 -0.33800
Cu	Cu	0.74557 0.38132 0.93352 0.92500
O 	O 	0.74775 0.38752 0.84237 -0.33100
O 	O 	0.62004 0.37289 0.44979 -0.34100
H 	H 	0.80302 0.39257 0.03941 0.20000
H 	H 	0.70891 0.40364 0.73850 0.14700
Cu	Cu	0.71959 0.40299 0.06548 0.91400
O 	O 	0.70562 0.39252 0.40892 -0.28500
C 	C 	0.67696 0.41356 0.43648 0.29800
H 	H 	0.61305 0.45072 0.37796 0.09000
C 	C 	0.99731 0.00113 0.02647 -0.23700
F 	F 	0.01802 0.93814 0.55190 -0.35700
F 	F 	0.06227 0.96624 0.16017 -0.31600
C 	C 	0.03399 0.97831 0.03058 0.22100
F 	F 	0.04615 0.77172 0.01407 -0.35700
F 	F 	0.03600 0.69237 0.05498 -0.36100
F 	F 	0.02019 0.75638 0.11189 -0.36800
C 	C 	0.01143 0.72644 0.05075 0.83300
H 	H 	0.00281 0.89877 0.92265 0.20200
C 	C 	0.00197 0.90952 0.02370 0.15500
C 	C 	0.94277 0.99805 0.42239 0.03300
H 	H 	0.85164 0.99673 0.30733 0.15800
C 	C 	0.84461 0.99397 0.40677 0.15800
C 	C 	0.83565 0.99588 0.52513 0.84200
F 	F 	0.65527 0.98490 0.43602 -0.36800
C 	C 	0.97242 0.96806 0.42781 0.02900
F 	F 	0.59205 0.98563 0.35760 -0.34900
F 	F 	0.79905 0.93082 0.52038 -0.38700
F 	F 	0.66312 0.96969 0.33261 -0.34200
H 	H 	0.94541 0.96837 0.01992 0.18200
C 	C 	0.87567 0.96225 0.41309 0.04200
C 	C 	0.93484 0.90210 0.42267 0.00500
C 	C 	0.86776 0.86608 0.41270 0.06900
C 	C 	0.83816 0.89613 0.40726 0.00800
H 	H 	0.95774 0.87886 0.42673 0.11900
H 	H 	0.78623 0.86827 0.39929 0.13700
O 	O 	0.80641 0.47244 0.95362 -0.31100
C 	C 	0.80207 0.50940 0.99531 0.32600
O 	O 	0.76232 0.48670 0.03651 -0.32500
C 	C 	0.79212 0.69143 0.36724 0.06300
C 	C 	0.77117 0.67042 0.42393 0.08000
C 	C 	0.77739 0.71289 0.47542 -0.06500
C 	C 	0.80780 0.77662 0.47000 0.04000
C 	C 	0.82883 0.79751 0.41333 0.09200
C 	C 	0.81769 0.75382 0.36007 -0.09600
C 	C 	0.74525 0.60448 0.42975 0.10400
C 	C 	0.75645 0.69187 0.53800 0.78400
H 	H 	0.81699 0.81066 0.51055 0.14700
C 	C 	0.83583 0.77424 0.29662 0.78800
H 	H 	0.78858 0.65901 0.32880 0.12100
C 	C 	0.68137 0.55287 0.40073 -0.09700
C 	C 	0.66036 0.49077 0.40339 0.08400
C 	C 	0.70048 0.47964 0.43731 0.00600
C 	C 	0.76292 0.53144 0.46965 -0.05000
C 	C 	0.78578 0.59324 0.46254 0.03400
C 	C 	0.63707 0.56339 0.36285 0.79100
C 	C 	0.80549 0.52109 0.51097 0.77800
H 	H 	0.83511 0.63292 0.48285 0.13500
F 	F 	0.80660 0.72237 0.24727 -0.37900
F 	F 	0.90162 0.80903 0.30150 -0.39900
F 	F 	0.81663 0.81091 0.28049 -0.39000
F 	F 	0.79995 0.68603 0.57197 -0.37700
F 	F 	0.69611 0.63426 0.52633 -0.36100
F 	F 	0.75355 0.73535 0.57583 -0.35000
F 	F 	0.82798 0.49611 0.47214 -0.40000
F 	F 	0.77126 0.47977 0.55124 -0.42100
F 	F 	0.85777 0.57732 0.54904 -0.37100
F 	F 	0.57394 0.50950 0.35047 -0.36700
F 	F 	0.65588 0.57875 0.30489 -0.38700
F 	F 	0.63893 0.61190 0.39661 -0.36000
C 	C 	0.84222 0.66848 0.97486 0.06100
C 	C 	0.90820 0.70905 0.00034 0.10000
C 	C 	0.94033 0.68347 0.02111 -0.13700
C 	C 	0.90460 0.61760 0.01832 0.06600
C 	C 	0.83873 0.57720 0.99254 0.03100
C 	C 	0.80776 0.60239 0.96751 -0.05200
C 	C 	0.94245 0.77850 0.00788 0.03000
H 	H 	0.92764 0.59770 0.03759 0.09000
C 	C 	0.73746 0.55915 0.93520 0.78100
H 	H 	0.81783 0.68865 0.96084 0.14200
C 	C 	0.96193 0.80968 0.95491 -0.00800
C 	C 	0.99008 0.87479 0.96324 -0.07000
C 	C 	0.98419 0.87877 0.07702 -0.14400
C 	C 	0.95245 0.81291 0.06788 0.08600
C 	C 	0.94898 0.77303 0.88862 0.76400
C 	C 	0.99777 0.91582 0.14322 0.76000
H 	H 	0.93543 0.78809 0.10740 0.12500
F 	F 	0.72062 0.59122 0.90173 -0.35800
F 	F 	0.69947 0.53555 0.98113 -0.38100
F 	F 	0.72513 0.50916 0.89194 -0.40700
F 	F 	0.98248 0.87855 0.18975 -0.37000
F 	F 	0.96184 0.93863 0.14285 -0.40100
F 	F 	0.98316 0.81342 0.84756 -0.36800
F 	F 	0.88428 0.73722 0.86262 -0.37300
F 	F 	0.96682 0.73330 0.89206 -0.36600
