data_crystal

_cell_length_a 29.39328
_cell_length_b 28.33159
_cell_length_c 37.54304
_cell_angle_alpha 89.93160
_cell_angle_beta  89.92569
_cell_angle_gamma 90.82162

_symmetry_space_group_name_	'P 1'
_symmetry_space_group_name_H-M	'P 1'

loop_
_symmetry_equiv_pos_as_xyz
  x,y,z

loop_
_atom_site_label
_atom_site_type_symbol
_atom_site_fract_x
_atom_site_fract_y
_atom_site_fract_z
_atom_site_charge
Zn	Zn	0.50450 0.51524 0.99267 1.22200
C 	C 	0.55358 0.42877 0.00146 0.32100
O 	O 	0.54252 0.54992 0.95853 -0.47600
O 	O 	0.53040 0.41419 0.97351 -0.40600
O 	O 	0.57934 0.48905 0.93375 -0.48600
C 	C 	0.43359 0.45677 0.96469 0.33400
O 	O 	0.45507 0.46964 0.99372 -0.40700
O 	O 	0.45403 0.46050 0.93357 -0.48900
C 	C 	0.58051 0.53144 0.94755 0.32300
O 	O 	0.44832 0.57246 0.98602 -0.30800
Zn	Zn	0.52061 0.45570 0.92928 1.17100
O 	O 	0.55065 0.47283 0.01243 -0.38800
C 	C 	0.46158 0.58778 0.01686 0.28600
O 	O 	0.49475 0.56501 0.03136 -0.30300
Zn	Zn	0.25804 0.24061 0.00429 1.22400
C 	C 	0.28398 0.24915 0.07805 0.33400
O 	O 	0.19304 0.22372 0.00675 -0.45800
O 	O 	0.27003 0.29302 0.07636 -0.38100
O 	O 	0.17754 0.25534 0.06079 -0.47300
C 	C 	0.28290 0.33810 0.99939 0.29900
O 	O 	0.29865 0.29525 0.00218 -0.41100
O 	O 	0.24088 0.34668 0.00897 -0.41600
C 	C 	0.17177 0.22146 0.03745 0.32900
O 	O 	0.25315 0.24560 0.94164 -0.32300
Zn	Zn	0.21231 0.31217 0.04863 1.18900
O 	O 	0.27566 0.21945 0.05189 -0.41700
C 	C 	0.27379 0.20547 0.94179 0.29800
O 	O 	0.28411 0.18902 0.97287 -0.36700
C 	C 	0.50663 0.99239 0.63052 0.12600
C 	C 	0.53992 0.96725 0.64902 -0.10400
H 	H 	0.56559 0.94819 0.63437 0.07100
C 	C 	0.54011 0.96703 0.68634 0.05400
C 	C 	0.50667 0.99150 0.70512 -0.10600
C 	C 	0.47323 0.01646 0.68673 0.07300
C 	C 	0.47337 0.01713 0.64940 -0.09300
H 	H 	0.44771 0.03658 0.63505 0.07400
N 	N 	0.50666 0.99279 0.59225 -0.18300
C 	C 	0.47964 0.96106 0.57413 0.18800
C 	C 	0.48026 0.95995 0.53665 -0.05700
C 	C 	0.50889 0.99157 0.51805 0.02000
C 	C 	0.53616 0.02404 0.53696 -0.04500
C 	C 	0.53434 0.02432 0.57443 0.20000
C 	C 	0.45288 0.92761 0.51756 -0.01200
C 	C 	0.45415 0.92687 0.48033 -0.01300
C 	C 	0.48285 0.95842 0.46156 -0.05600
C 	C 	0.51030 0.99071 0.48048 0.01900
C 	C 	0.53913 0.02215 0.46189 -0.04400
C 	C 	0.56491 0.05555 0.51820 -0.01100
C 	C 	0.56643 0.05457 0.48097 -0.01100
C 	C 	0.48446 0.95834 0.42409 0.18800
N 	N 	0.51265 0.98939 0.40629 -0.18300
C 	C 	0.54006 0.02075 0.42442 0.20000
C 	C 	0.51289 0.98967 0.36801 0.12800
C 	C 	0.53939 0.95724 0.34926 -0.10500
C 	C 	0.53960 0.95755 0.31192 0.06000
C 	C 	0.51324 0.99027 0.29339 -0.10500
C 	C 	0.48669 0.02267 0.31207 0.07200
C 	C 	0.48657 0.02237 0.34940 -0.09200
O 	O 	0.55943 0.05489 0.59250 -0.19500
O 	O 	0.45324 0.93129 0.59193 -0.19900
O 	O 	0.45856 0.92853 0.40599 -0.19700
O 	O 	0.56730 0.04973 0.40665 -0.19100
H 	H 	0.46601 0.04730 0.36395 0.07500
H 	H 	0.55975 0.93203 0.36371 0.07400
H 	H 	0.58618 0.08079 0.53234 0.05500
H 	H 	0.58882 0.07910 0.46708 0.05700
H 	H 	0.43057 0.90300 0.53146 0.05300
H 	H 	0.43278 0.90171 0.46619 0.05300
H 	H 	0.51334 0.99049 0.26450 0.06300
H 	H 	0.50667 0.99114 0.73401 0.05700
Zn	Zn	0.76050 0.73805 0.99858 1.22200
C 	C 	0.73389 0.73103 0.07265 0.34500
O 	O 	0.82560 0.75602 0.00059 -0.41700
O 	O 	0.74842 0.68736 0.07201 -0.36800
O 	O 	0.84114 0.72332 0.05435 -0.45100
C 	C 	0.73305 0.64062 0.99473 0.31000
O 	O 	0.71885 0.68411 0.99675 -0.42100
O 	O 	0.77413 0.63022 0.00558 -0.44400
C 	C 	0.84804 0.75679 0.03077 0.31400
O 	O 	0.76545 0.73238 0.93595 -0.32000
Zn	Zn	0.80455 0.66736 0.04292 1.18300
O 	O 	0.74210 0.75989 0.04586 -0.35700
C 	C 	0.74487 0.77255 0.93584 0.29600
O 	O 	0.73454 0.78928 0.96682 -0.33400
Zn	Zn	0.26713 0.76468 0.98885 1.22100
C 	C 	0.24811 0.79670 0.06020 0.34300
O 	O 	0.26386 0.82014 0.95804 -0.47500
O 	O 	0.28977 0.81403 0.06232 -0.43100
O 	O 	0.27268 0.87642 0.99994 -0.47100
C 	C 	0.35417 0.74605 0.01892 0.33800
O 	O 	0.31165 0.73164 0.01698 -0.44100
O 	O 	0.36531 0.78974 0.01030 -0.49300
C 	C 	0.25145 0.86037 0.97168 0.33200
O 	O 	0.29077 0.71963 0.93947 -0.31800
Zn	Zn	0.32445 0.84255 0.01932 1.17800
O 	O 	0.23005 0.78643 0.02907 -0.41600
C 	C 	0.24952 0.70256 0.93964 0.28200
O 	O 	0.22359 0.71831 0.96477 -0.36400
C 	C 	0.01419 0.56036 0.36177 0.13900
C 	C 	0.98924 0.52831 0.34075 -0.10200
H 	H 	0.97067 0.49942 0.35327 0.07500
C 	C 	0.98869 0.53343 0.30361 0.06200
C 	C 	0.01284 0.57075 0.28756 -0.09200
C 	C 	0.03790 0.60280 0.30842 0.05800
C 	C 	0.03861 0.59754 0.34558 -0.10500
H 	H 	0.05822 0.62199 0.36184 0.07400
N 	N 	0.01531 0.55461 0.39983 -0.17900
C 	C 	0.04449 0.52267 0.41461 0.19000
C 	C 	0.04469 0.51506 0.45168 -0.05700
C 	C 	0.01522 0.54104 0.47339 0.02900
C 	C 	0.98616 0.57425 0.45796 -0.05400
C 	C 	0.98662 0.58055 0.42074 0.19300
C 	C 	0.07366 0.48174 0.46728 -0.01100
C 	C 	0.07297 0.47425 0.50411 -0.01100
C 	C 	0.04339 0.50006 0.52598 -0.05800
C 	C 	0.01469 0.53365 0.51059 0.02900
C 	C 	0.98533 0.55973 0.53232 -0.05500
C 	C 	0.95692 0.60042 0.47987 -0.01100
C 	C 	0.95654 0.59326 0.51674 -0.01100
C 	C 	0.04191 0.49271 0.56307 0.19000
N 	N 	0.01296 0.51836 0.58396 -0.18000
C 	C 	0.98513 0.55171 0.56935 0.19300
C 	C 	0.01152 0.50993 0.62173 0.14100
C 	C 	0.97724 0.48080 0.63635 -0.10400
C 	C 	0.97584 0.47263 0.67317 0.06200
C 	C 	0.00877 0.49347 0.69530 -0.09700
C 	C 	0.04286 0.52266 0.68084 0.07300
C 	C 	0.04428 0.53097 0.64406 -0.10900
O 	O 	0.95911 0.61117 0.40587 -0.19400
O 	O 	0.07235 0.49892 0.39398 -0.19500
O 	O 	0.06821 0.46083 0.57778 -0.19600
O 	O 	0.95811 0.57633 0.59008 -0.19600
H 	H 	0.07054 0.55373 0.63277 0.07600
H 	H 	0.95183 0.46477 0.61913 0.07400
H 	H 	0.93439 0.62630 0.46845 0.05500
H 	H 	0.93373 0.61374 0.53308 0.05400
H 	H 	0.09665 0.46143 0.45096 0.05500
H 	H 	0.09546 0.44834 0.51552 0.05400
H 	H 	0.00748 0.48739 0.72383 0.06200
H 	H 	0.01296 0.57424 0.25878 0.06100
Zn	Zn	0.78099 0.27276 0.99521 1.22200
C 	C 	0.76491 0.28249 0.91964 0.33900
O 	O 	0.72322 0.28534 0.01939 -0.44000
O 	O 	0.74911 0.23888 0.91945 -0.44200
O 	O 	0.67822 0.26810 0.97190 -0.48800
C 	C 	0.79949 0.17628 0.97952 0.31700
O 	O 	0.81452 0.21986 0.97614 -0.44300
O 	O 	0.75558 0.16719 0.98005 -0.42800
C 	C 	0.68546 0.29132 0.00159 0.34500
O 	O 	0.81350 0.25489 0.05106 -0.26000
Zn	Zn	0.71129 0.21097 0.96090 1.18100
O 	O 	0.77016 0.30545 0.94981 -0.44000
C 	C 	0.83360 0.29575 0.04819 0.28700
O 	O 	0.82458 0.31903 0.01945 -0.36600
Zn	Zn	0.01104 0.99315 0.01753 1.21700
C 	C 	0.08795 0.93640 0.99962 0.29700
O 	O 	0.96957 0.94896 0.04234 -0.45600
O 	O 	0.10265 0.94659 0.03186 -0.36500
O 	O 	0.02217 0.89811 0.06282 -0.45000
C 	C 	0.07510 0.04830 0.05709 0.31700
O 	O 	0.06112 0.03721 0.02509 -0.41800
O 	O 	0.06687 0.01956 0.08386 -0.43700
C 	C 	0.98126 0.90588 0.05060 0.34100
O 	O 	0.96360 0.05486 0.03475 -0.31500
Zn	Zn	0.06161 0.95115 0.07607 1.18200
O 	O 	0.04661 0.94805 0.98956 -0.38700
C 	C 	0.94853 0.05371 0.00232 0.31100
O 	O 	0.96719 0.02269 0.98172 -0.36600
C 	C 	0.90595 0.07701 0.99278 -0.10400
C 	C 	0.90348 0.10427 0.96180 0.03300
C 	C 	0.86683 0.13431 0.95653 -0.03900
C 	C 	0.83224 0.13753 0.98225 0.01400
C 	C 	0.83284 0.10735 0.01249 -0.10800
C 	C 	0.86972 0.07679 0.01710 0.10400
H 	H 	0.86622 0.15664 0.93309 0.05700
H 	H 	0.87109 0.05387 0.04019 0.08200
H 	H 	0.93104 0.10397 0.94261 0.04200
C 	C 	0.79431 0.10729 0.03956 0.78700
F 	F 	0.80349 0.07856 0.06846 -0.42700
F 	F 	0.78758 0.15243 0.05230 -0.44700
F 	F 	0.75476 0.09074 0.02371 -0.43300
C 	C 	0.93927 0.44339 0.68899 -0.00900
C 	C 	0.94964 0.39952 0.70405 -0.02800
C 	C 	0.91889 0.37731 0.72725 -0.04000
C 	C 	0.87742 0.39875 0.73546 0.01100
C 	C 	0.86541 0.44057 0.71796 -0.04100
C 	C 	0.89627 0.46283 0.69480 -0.02800
C 	C 	0.84971 0.38090 0.76553 0.01200
C 	C 	0.84392 0.40902 0.79594 -0.04200
C 	C 	0.82327 0.39007 0.82641 -0.02700
C 	C 	0.80827 0.34292 0.82673 -0.00900
C 	C 	0.81234 0.31531 0.79596 -0.02700
C 	C 	0.83293 0.33425 0.76541 -0.04200
C 	C 	0.79202 0.32190 0.85937 0.05600
C 	C 	0.77927 0.30412 0.88688 -0.11100
H 	H 	0.98260 0.38400 0.69939 0.04500
H 	H 	0.92832 0.34477 0.74032 0.04600
H 	H 	0.83312 0.45696 0.72360 0.04500
H 	H 	0.88778 0.49649 0.68300 0.04600
H 	H 	0.85685 0.44502 0.79637 0.04500
H 	H 	0.82008 0.41166 0.85007 0.04400
H 	H 	0.80061 0.27888 0.79597 0.04400
H 	H 	0.83695 0.31234 0.74202 0.04600
C 	C 	0.96427 0.49883 0.28120 -0.01000
C 	C 	0.98318 0.45439 0.27496 -0.02100
C 	C 	0.96554 0.42532 0.24809 -0.04200
C 	C 	0.92885 0.44048 0.22734 0.01500
C 	C 	0.90819 0.48361 0.23511 -0.04100
C 	C 	0.92584 0.51267 0.26193 -0.02500
C 	C 	0.91470 0.41337 0.19566 0.01200
C 	C 	0.89449 0.36847 0.19945 -0.03400
C 	C 	0.88008 0.34340 0.16932 -0.02600
C 	C 	0.88591 0.36303 0.13529 0.00700
C 	C 	0.90674 0.40753 0.13146 -0.02800
C 	C 	0.92113 0.43262 0.16152 -0.03600
C 	C 	0.86838 0.33869 0.10447 0.05100
C 	C 	0.85301 0.31885 0.07868 -0.06500
H 	H 	0.01278 0.44335 0.28980 0.04500
H 	H 	0.98148 0.39188 0.24248 0.05100
H 	H 	0.87943 0.49530 0.21955 0.05300
H 	H 	0.91085 0.54680 0.26674 0.04700
H 	H 	0.88950 0.35328 0.22568 0.05200
H 	H 	0.86393 0.30902 0.17247 0.06000
H 	H 	0.91135 0.42292 0.10523 0.05100
H 	H 	0.93706 0.46709 0.15834 0.04800
C 	C 	0.20617 0.87849 0.96318 -0.11900
C 	C 	0.19995 0.92703 0.95876 0.05500
C 	C 	0.15661 0.94598 0.96279 -0.04400
C 	C 	0.12016 0.91692 0.97381 0.05100
C 	C 	0.12445 0.86740 0.97095 -0.13800
C 	C 	0.16800 0.84843 0.96623 0.10700
H 	H 	0.15267 0.98392 0.96200 0.08900
H 	H 	0.17266 0.81061 0.96808 0.05000
H 	H 	0.22900 0.95039 0.95470 0.04000
C 	C 	0.08440 0.83474 0.97850 0.78300
F 	F 	0.09014 0.79153 0.96204 -0.45500
F 	F 	0.08082 0.82766 0.01484 -0.46000
F 	F 	0.04446 0.85385 0.96591 -0.45300
C 	C 	0.23052 0.67747 0.90842 -0.06300
C 	C 	0.25964 0.65996 0.88195 0.01300
C 	C 	0.24162 0.64073 0.85062 -0.05700
C 	C 	0.19438 0.63862 0.84552 0.02800
C 	C 	0.16523 0.65449 0.87243 -0.05300
C 	C 	0.18316 0.67374 0.90375 0.01500
C 	C 	0.17534 0.62036 0.81185 0.00300
C 	C 	0.15007 0.65003 0.78965 -0.03300
C 	C 	0.12780 0.63156 0.75977 -0.04000
C 	C 	0.13074 0.58338 0.75184 0.01900
C 	C 	0.15773 0.55417 0.77302 -0.04000
C 	C 	0.18000 0.57259 0.80293 -0.03300
C 	C 	0.10140 0.56284 0.72521 -0.00200
C 	C 	0.07547 0.54498 0.70416 -0.03000
H 	H 	0.29620 0.66188 0.88539 0.04800
H 	H 	0.26437 0.62811 0.83011 0.05000
H 	H 	0.12868 0.65236 0.86891 0.06000
H 	H 	0.16022 0.68666 0.92400 0.06900
H 	H 	0.14673 0.68709 0.79609 0.04800
H 	H 	0.10704 0.65438 0.74350 0.04800
H 	H 	0.16018 0.51688 0.76705 0.04700
H 	H 	0.19966 0.54948 0.81978 0.04600
C 	C 	0.06535 0.64013 0.29094 -0.00800
C 	C 	0.11297 0.63732 0.29080 -0.02700
C 	C 	0.13864 0.66457 0.26683 -0.04000
C 	C 	0.11683 0.69465 0.24272 0.01300
C 	C 	0.06962 0.70062 0.24515 -0.04000
C 	C 	0.04400 0.67359 0.26927 -0.02800
C 	C 	0.14213 0.71422 0.21195 0.01300
C 	C 	0.16220 0.68361 0.18731 -0.03500
C 	C 	0.18344 0.70167 0.15682 -0.02100
C 	C 	0.18470 0.75042 0.15062 0.00000
C 	C 	0.16511 0.78119 0.17531 -0.02500
C 	C 	0.14386 0.76315 0.20593 -0.03900
C 	C 	0.20627 0.76865 0.11890 0.06800
C 	C 	0.22494 0.78231 0.09213 -0.08900
H 	H 	0.12985 0.61203 0.30775 0.04900
H 	H 	0.17521 0.66046 0.26569 0.05300
H 	H 	0.05249 0.72421 0.22700 0.04700
H 	H 	0.00730 0.67659 0.26961 0.04400
H 	H 	0.16065 0.64577 0.19152 0.05600
H 	H 	0.19863 0.67772 0.13788 0.06600
H 	H 	0.16613 0.81897 0.17074 0.04600
H 	H 	0.12846 0.78708 0.22476 0.04600
C 	C 	0.94735 0.86696 0.04829 -0.08900
C 	C 	0.96081 0.82136 0.03883 0.03500
C 	C 	0.92823 0.78560 0.03345 -0.03000
C 	C 	0.88179 0.79476 0.03784 0.02700
C 	C 	0.86796 0.84023 0.04896 -0.12000
C 	C 	0.90106 0.87619 0.05354 0.09000
H 	H 	0.93911 0.75079 0.02548 0.06100
H 	H 	0.89093 0.91133 0.06128 0.07700
H 	H 	0.99643 0.81379 0.03487 0.10100
C 	C 	0.81837 0.85002 0.05695 0.78600
F 	F 	0.80293 0.81952 0.08323 -0.45200
F 	F 	0.81214 0.89572 0.06883 -0.43400
F 	F 	0.79265 0.84371 0.02648 -0.45000
C 	C 	0.57492 0.94081 0.70599 -0.00200
C 	C 	0.57320 0.89131 0.70676 -0.03400
C 	C 	0.60006 0.86659 0.73095 -0.03800
C 	C 	0.62872 0.89124 0.75457 0.00600
C 	C 	0.63273 0.94055 0.75205 -0.03300
C 	C 	0.60600 0.96522 0.72780 -0.05100
C 	C 	0.65020 0.86624 0.78448 0.01100
C 	C 	0.69763 0.86805 0.78885 -0.04000
C 	C 	0.71749 0.84814 0.81907 -0.02900
C 	C 	0.69008 0.82627 0.84502 0.00200
C 	C 	0.64286 0.82351 0.84031 -0.02900
C 	C 	0.62296 0.84345 0.81018 -0.04000
C 	C 	0.71017 0.80761 0.87689 0.04900
C 	C 	0.72632 0.79180 0.90378 -0.07400
H 	H 	0.54956 0.87215 0.68980 0.04500
H 	H 	0.59725 0.82846 0.73232 0.04400
H 	H 	0.65501 0.95988 0.76999 0.04100
H 	H 	0.60791 0.00343 0.72708 0.05900
H 	H 	0.71896 0.88546 0.76912 0.04600
H 	H 	0.75407 0.85019 0.82249 0.05000
H 	H 	0.62150 0.80650 0.86022 0.04700
H 	H 	0.58631 0.84213 0.80717 0.04400
C 	C 	0.56731 0.92364 0.29204 -0.01000
C 	C 	0.55340 0.87616 0.28979 -0.02600
C 	C 	0.57568 0.84549 0.26664 -0.04100
C 	C 	0.61205 0.86212 0.24562 0.01600
C 	C 	0.62725 0.90908 0.24912 -0.04000
C 	C 	0.60498 0.93969 0.27225 -0.02500
C 	C 	0.63183 0.83167 0.21797 0.01400
C 	C 	0.67834 0.82117 0.21875 -0.03200
C 	C 	0.69822 0.79722 0.19029 -0.02000
C 	C 	0.67173 0.78355 0.16095 0.01500
C 	C 	0.62497 0.79242 0.16074 -0.02100
C 	C 	0.60505 0.81640 0.18916 -0.03100
C 	C 	0.69313 0.76386 0.12995 0.07600
C 	C 	0.71145 0.74835 0.10381 -0.03500
H 	H 	0.52441 0.86345 0.30507 0.04800
H 	H 	0.56397 0.80919 0.26436 0.05300
H 	H 	0.65536 0.92222 0.23306 0.05700
H 	H 	0.61606 0.97626 0.27396 0.04800
H 	H 	0.69924 0.83254 0.24098 0.05200
H 	H 	0.73439 0.79033 0.19067 0.06300
H 	H 	0.60427 0.78184 0.13817 0.06500
H 	H 	0.56912 0.82437 0.18829 0.05200
C 	C 	0.14832 0.17744 0.04801 -0.11000
C 	C 	0.10223 0.17761 0.05746 0.04000
C 	C 	0.07908 0.13506 0.06428 -0.04800
C 	C 	0.10199 0.09199 0.06232 0.03300
C 	C 	0.14977 0.09223 0.05705 -0.13000
C 	C 	0.17220 0.13499 0.04842 0.10100
H 	H 	0.04271 0.13534 0.06903 0.06300
H 	H 	0.20806 0.13522 0.04163 0.06100
H 	H 	0.08383 0.21047 0.05800 0.03300
C 	C 	0.17630 0.04674 0.05788 0.79100
F 	F 	0.17010 0.02294 0.02614 -0.45500
F 	F 	0.22237 0.05559 0.06246 -0.44900
F 	F 	0.16174 0.01834 0.08576 -0.47100
C 	C 	0.43859 0.04236 0.70684 -0.01900
C 	C 	0.40665 0.01740 0.72764 -0.00300
C 	C 	0.38073 0.04107 0.75301 -0.05100
C 	C 	0.38644 0.08993 0.75769 0.01700
C 	C 	0.41585 0.11538 0.73500 -0.04600
C 	C 	0.44187 0.09165 0.70968 -0.02300
C 	C 	0.36593 0.11327 0.78878 0.00900
C 	C 	0.39399 0.13275 0.81536 -0.03800
C 	C 	0.37481 0.15167 0.84617 -0.03000
C 	C 	0.32750 0.15119 0.85068 0.00100
C 	C 	0.29934 0.13238 0.82398 -0.02900
C 	C 	0.31849 0.11346 0.79309 -0.03800
C 	C 	0.30796 0.16985 0.88279 0.05000
C 	C 	0.29215 0.18580 0.90977 -0.08100
H 	H 	0.40358 0.97936 0.72537 0.02700
H 	H 	0.35783 0.02115 0.77017 0.05200
H 	H 	0.41995 0.15323 0.73802 0.04600
H 	H 	0.46618 0.11126 0.69352 0.04300
H 	H 	0.43066 0.13244 0.81241 0.04500
H 	H 	0.39676 0.16631 0.86667 0.04900
H 	H 	0.26270 0.13210 0.82724 0.04900
H 	H 	0.29654 0.09855 0.77272 0.04700
C 	C 	0.45886 0.05667 0.29241 -0.00900
C 	C 	0.42148 0.04068 0.27238 -0.02300
C 	C 	0.39838 0.07185 0.25021 -0.04000
C 	C 	0.41248 0.11929 0.24789 0.01600
C 	C 	0.44875 0.13571 0.26900 -0.03900
C 	C 	0.47185 0.10449 0.29120 -0.02300
C 	C 	0.39155 0.15066 0.22141 0.01400
C 	C 	0.41738 0.16774 0.19255 -0.03100
C 	C 	0.39627 0.19203 0.16483 -0.01900
C 	C 	0.34926 0.19942 0.16580 0.00800
C 	C 	0.32375 0.18424 0.19534 -0.02200
C 	C 	0.34483 0.15998 0.22310 -0.03500
C 	C 	0.32660 0.21838 0.13512 0.07200
C 	C 	0.30734 0.23306 0.10915 -0.07200
H 	H 	0.41110 0.00385 0.27331 0.05000
H 	H 	0.37040 0.05885 0.23403 0.05400
H 	H 	0.45967 0.17235 0.26757 0.05500
H 	H 	0.50062 0.11714 0.30667 0.05100
H 	H 	0.45348 0.16077 0.19102 0.06000
H 	H 	0.41622 0.20381 0.14212 0.07300
H 	H 	0.28740 0.19002 0.19632 0.05400
H 	H 	0.32467 0.14727 0.24540 0.05100
C 	C 	0.38805 0.43439 0.96769 -0.07800
C 	C 	0.37607 0.39612 0.94590 0.03100
C 	C 	0.33849 0.36752 0.95450 -0.03100
C 	C 	0.31277 0.37631 0.98533 0.01800
C 	C 	0.32192 0.41783 0.00547 -0.08100
C 	C 	0.35944 0.44681 0.99602 0.06400
H 	H 	0.33101 0.33666 0.93839 0.05900
H 	H 	0.36767 0.47791 0.01162 0.12500
H 	H 	0.39734 0.38683 0.92346 0.03600
C 	C 	0.29238 0.43101 0.03709 0.77700
F 	F 	0.30773 0.47201 0.05345 -0.39900
F 	F 	0.24828 0.43834 0.02577 -0.45300
F 	F 	0.29261 0.39530 0.06223 -0.45500
C 	C 	0.38960 0.71206 0.02851 -0.11500
C 	C 	0.43202 0.71367 0.01143 0.05200
C 	C 	0.46034 0.67452 0.01267 -0.04300
C 	C 	0.44611 0.63332 0.03052 0.05400
C 	C 	0.40769 0.63492 0.05313 -0.13000
C 	C 	0.37881 0.67401 0.05114 0.10700
H 	H 	0.49105 0.67441 0.99668 0.05800
H 	H 	0.34692 0.67378 0.06568 0.07100
H 	H 	0.44152 0.74367 0.99497 0.02700
C 	C 	0.39466 0.59299 0.07624 0.79100
F 	F 	0.36584 0.60617 0.10356 -0.42800
F 	F 	0.37285 0.55918 0.05565 -0.41500
F 	F 	0.43304 0.57366 0.09139 -0.41600
C 	C 	0.65317 0.32720 0.01310 -0.11200
C 	C 	0.66628 0.37496 0.01316 0.04600
C 	C 	0.63328 0.40986 0.01540 -0.04500
C 	C 	0.58706 0.39709 0.01742 0.04200
C 	C 	0.57493 0.34945 0.02453 -0.12700
C 	C 	0.60788 0.31443 0.02029 0.10600
H 	H 	0.64325 0.44655 0.01180 0.07800
H 	H 	0.59808 0.27742 0.02157 0.05700
H 	H 	0.70155 0.38504 0.00881 0.04200
C 	C 	0.52644 0.33540 0.03382 0.79200
F 	F 	0.50269 0.32496 0.00299 -0.44400
F 	F 	0.52582 0.29600 0.05566 -0.43600
F 	F 	0.50485 0.37148 0.05170 -0.42000
C 	C 	0.62399 0.55165 0.96026 -0.10600
C 	C 	0.65774 0.56602 0.93604 0.02800
C 	C 	0.69578 0.59185 0.94791 -0.04300
C 	C 	0.70082 0.60277 0.98421 0.01200
C 	C 	0.66927 0.58384 0.00919 -0.10000
C 	C 	0.63011 0.56001 0.99675 0.06400
H 	H 	0.72015 0.60546 0.92867 0.05100
H 	H 	0.60374 0.54921 0.01534 0.07200
H 	H 	0.65348 0.55923 0.90784 0.02800
C 	C 	0.67527 0.59223 0.04881 0.78300
F 	F 	0.66284 0.63784 0.05694 -0.44100
F 	F 	0.64855 0.56127 0.06864 -0.43500
F 	F 	0.72007 0.58560 0.05862 -0.47100
