data_crystal

_cell_length_a 26.17457
_cell_length_b 26.38919
_cell_length_c 26.59936
_cell_angle_alpha 95.48741
_cell_angle_beta  95.48704
_cell_angle_gamma 125.83519

_symmetry_space_group_name_	'P 1'
_symmetry_space_group_name_H-M	'P 1'

loop_
_symmetry_equiv_pos_as_xyz
  x,y,z

loop_
_atom_site_label
_atom_site_type_symbol
_atom_site_fract_x
_atom_site_fract_y
_atom_site_fract_z
_atom_site_charge
C 	C 	0.95618 0.02214 0.98967 0.10300
N 	N 	0.92168 0.95792 0.98427 -0.13300
C 	C 	0.95151 0.92983 0.98188 0.10800
N 	N 	0.01601 0.96610 0.98492 -0.12900
C 	C 	0.05075 0.03026 0.99016 0.11300
N 	N 	0.02083 0.05837 0.99248 -0.13200
C 	C 	0.94996 0.00922 0.44088 0.10100
N 	N 	0.91147 0.94651 0.44447 -0.13500
C 	C 	0.93680 0.91404 0.44838 0.11000
N 	N 	0.00021 0.94413 0.44858 -0.13100
C 	C 	0.03868 0.00649 0.44511 0.11300
N 	N 	0.01340 0.03880 0.44096 -0.13400
Cu	Cu	0.62814 0.23606 0.00415 0.92400
Cu	Cu	0.66822 0.22700 0.89253 0.87200
Cu	Cu	0.66237 0.33334 0.93451 0.89900
Cu	Cu	0.64260 0.36157 0.03932 0.89200
C 	C 	0.65611 0.28870 0.11150 0.28900
O 	O 	0.53762 0.20700 0.00760 -0.37100
C 	C 	0.64801 0.29086 0.82387 0.28500
O 	O 	0.68547 0.33491 0.00579 -0.64200
O 	O 	0.61562 0.23953 0.93040 -0.63700
O 	O 	0.66124 0.18449 0.99956 -0.36900
O 	O 	0.73012 0.24419 0.94830 -0.43900
O 	O 	0.63026 0.31727 0.09888 -0.38600
O 	O 	0.71307 0.42489 0.94241 -0.38700
C 	C 	0.70946 0.46284 0.97556 0.30300
C 	C 	0.51581 0.23710 0.98957 0.29100
O 	O 	0.55635 0.29549 0.98205 -0.39600
O 	O 	0.68650 0.44608 0.01815 -0.40300
O 	O 	0.65456 0.24831 0.07681 -0.36100
C 	C 	0.71365 0.20538 0.98100 0.28600
O 	O 	0.65038 0.33118 0.85948 -0.37500
O 	O 	0.63015 0.23481 0.83216 -0.41300
H 	H 	0.73219 0.36036 0.01894 0.16300
H 	H 	0.57027 0.21403 0.91272 0.17200
Cu	Cu	0.74216 0.34452 0.43609 0.92600
Cu	Cu	0.75804 0.31203 0.55030 0.87200
Cu	Cu	0.64383 0.30476 0.50726 0.89700
Cu	Cu	0.61465 0.32933 0.40365 0.89400
C 	C 	0.68631 0.31568 0.32898 0.28700
O 	O 	0.77180 0.43468 0.43218 -0.36200
C 	C 	0.69586 0.33436 0.61960 0.28400
O 	O 	0.64283 0.28695 0.43526 -0.63800
O 	O 	0.73896 0.35770 0.51010 -0.63900
O 	O 	0.79373 0.31052 0.43998 -0.37100
O 	O 	0.73804 0.24793 0.49615 -0.44200
O 	O 	0.65591 0.33952 0.34212 -0.38500
O 	O 	0.55112 0.24996 0.49867 -0.38000
C 	C 	0.51193 0.24730 0.46137 0.28900
C 	C 	0.74088 0.45593 0.44963 0.28000
O 	O 	0.68342 0.41552 0.45951 -0.39200
O 	O 	0.53355 0.28980 0.43102 -0.39500
O 	O 	0.72830 0.31823 0.36319 -0.36000
C 	C 	0.77613 0.26200 0.46285 0.28900
O 	O 	0.64494 0.30722 0.58248 -0.37900
O 	O 	0.75200 0.35416 0.60867 -0.42000
H 	H 	0.61809 0.24112 0.42045 0.16200
H 	H 	0.76162 0.40268 0.52665 0.17300
C 	C 	0.68707 0.32966 0.67366 -0.07800
C 	C 	0.72202 0.31572 0.70498 -0.02900
C 	C 	0.71166 0.30602 0.75482 0.04200
C 	C 	0.66428 0.30816 0.77362 -0.08300
C 	C 	0.63117 0.32486 0.74346 -0.01900
C 	C 	0.64292 0.33654 0.69387 0.03600
S 	S 	0.76012 0.29355 0.79403 -0.10800
S 	S 	0.60535 0.36363 0.65925 -0.03800
H 	H 	0.64346 0.42880 0.67024 0.03500
H 	H 	0.81292 0.35092 0.82133 0.03300
H 	H 	0.75691 0.31161 0.69026 0.03200
H 	H 	0.59610 0.32847 0.75842 0.04600
C 	C 	0.67039 0.28847 0.16629 -0.07400
C 	C 	0.72668 0.34245 0.19725 -0.02700
C 	C 	0.73491 0.34973 0.25093 0.03900
C 	C 	0.68636 0.30237 0.27402 -0.07300
C 	C 	0.63229 0.24630 0.24299 -0.02800
C 	C 	0.62395 0.23912 0.18931 0.04000
S 	S 	0.80462 0.41976 0.28878 -0.03800
S 	S 	0.55369 0.16962 0.15149 -0.03800
H 	H 	0.50803 0.17940 0.14165 0.03900
H 	H 	0.79324 0.46364 0.30036 0.04000
H 	H 	0.76285 0.38011 0.17963 0.03300
H 	H 	0.59523 0.20948 0.26063 0.03300
C 	C 	0.81797 0.73562 0.41622 -0.04500
C 	C 	0.84065 0.71849 0.45621 0.00600
C 	C 	0.88892 0.76574 0.49706 -0.04500
C 	C 	0.91680 0.82982 0.49655 -0.02200
C 	C 	0.89684 0.84734 0.45510 -0.01900
C 	C 	0.84592 0.79987 0.41573 -0.02300
C 	C 	0.81527 0.65136 0.45456 0.02400
H 	H 	0.90589 0.75293 0.52859 0.04000
H 	H 	0.95577 0.86608 0.52734 0.03800
H 	H 	0.83012 0.81280 0.38354 0.03900
H 	H 	0.78013 0.69940 0.38479 0.04000
C 	C 	0.75115 0.60594 0.45831 -0.06500
C 	C 	0.72724 0.54254 0.45741 0.01000
C 	C 	0.76726 0.52372 0.45258 -0.08800
C 	C 	0.83166 0.56943 0.44905 0.01100
C 	C 	0.85551 0.63292 0.45005 -0.06500
H 	H 	0.71984 0.61977 0.46206 0.04500
H 	H 	0.67742 0.50800 0.45995 0.03000
H 	H 	0.86325 0.55592 0.44554 0.03400
H 	H 	0.90518 0.66775 0.44719 0.04500
C 	C 	0.83735 0.05438 0.41719 -0.03900
C 	C 	0.87752 0.11918 0.44006 -0.00100
C 	C 	0.94133 0.14770 0.46254 -0.03800
C 	C 	0.96458 0.11170 0.46315 -0.04000
C 	C 	0.92438 0.04661 0.44087 -0.00900
C 	C 	0.86066 0.01820 0.41756 -0.03600
C 	C 	0.85125 0.15559 0.44532 0.02700
H 	H 	0.97259 0.19758 0.48050 0.03600
H 	H 	0.01368 0.13428 0.48154 0.05100
H 	H 	0.82930 0.96833 0.39963 0.04700
H 	H 	0.78786 0.03184 0.39997 0.03800
C 	C 	0.83601 0.17473 0.40244 -0.06800
C 	C 	0.81344 0.21143 0.40823 0.01800
C 	C 	0.80573 0.22888 0.45690 -0.09800
C 	C 	0.82180 0.21024 0.49972 0.01600
C 	C 	0.84426 0.17375 0.49392 -0.07100
H 	H 	0.84177 0.16136 0.36479 0.04700
H 	H 	0.80087 0.22517 0.37484 0.03600
H 	H 	0.81655 0.22380 0.53754 0.00700
H 	H 	0.85633 0.15959 0.52727 0.04400
C 	C 	0.20531 0.05027 0.47808 -0.04100
C 	C 	0.24050 0.10246 0.45370 0.00400
C 	C 	0.20947 0.12341 0.42675 -0.04300
C 	C 	0.14365 0.09209 0.42383 -0.02400
C 	C 	0.10826 0.03972 0.44817 -0.01600
C 	C 	0.13959 0.01917 0.47551 -0.03100
C 	C 	0.30977 0.13499 0.45607 0.02600
H 	H 	0.23637 0.16391 0.40802 0.04100
H 	H 	0.12015 0.10824 0.40233 0.04200
H 	H 	0.11314 0.97938 0.49504 0.04800
H 	H 	0.22886 0.03372 0.49891 0.03900
C 	C 	0.35208 0.16396 0.50370 -0.06600
C 	C 	0.41818 0.19837 0.50568 0.01600
C 	C 	0.44246 0.20444 0.46001 -0.08800
C 	C 	0.39997 0.17371 0.41253 0.01400
C 	C 	0.33392 0.13896 0.41058 -0.06600
H 	H 	0.33386 0.16102 0.53905 0.04700
H 	H 	0.45056 0.22207 0.54254 0.03800
H 	H 	0.41821 0.17760 0.37710 0.02200
H 	H 	0.30156 0.11593 0.37369 0.04500
C 	C 	0.90555 0.76804 0.99720 -0.02000
C 	C 	0.84333 0.72779 0.96770 -0.00400
C 	C 	0.81673 0.75392 0.94259 -0.03700
C 	C 	0.85200 0.81989 0.94717 -0.03000
C 	C 	0.91421 0.86027 0.97692 -0.00300
C 	C 	0.94084 0.83394 0.00180 -0.04800
C 	C 	0.80527 0.65848 0.96478 0.02900
H 	H 	0.76875 0.72314 0.91963 0.04000
H 	H 	0.83116 0.83955 0.92733 0.04300
H 	H 	0.98854 0.86455 0.02522 0.04300
H 	H 	0.92622 0.74825 0.01707 0.02900
C 	C 	0.82655 0.62482 0.94333 -0.06800
C 	C 	0.79409 0.56033 0.94529 0.01900
C 	C 	0.74003 0.52898 0.96878 -0.09200
C 	C 	0.71735 0.56218 0.98838 0.02400
C 	C 	0.74990 0.62665 0.98646 -0.06200
H 	H 	0.86900 0.64895 0.92612 0.04700
H 	H 	0.81205 0.53531 0.92990 0.03300
H 	H 	0.67506 0.53828 0.00578 0.02300
H 	H 	0.73298 0.65223 0.00291 0.04000
C 	C 	0.85261 0.19626 0.99593 -0.05600
C 	C 	0.82251 0.13375 0.00402 0.01600
C 	C 	0.75834 0.09742 0.01059 -0.06200
C 	C 	0.72348 0.12207 0.00596 0.00000
C 	C 	0.75260 0.18331 0.99483 -0.08200
C 	C 	0.81796 0.22103 0.99162 0.00700
C 	C 	0.85638 0.10461 0.00114 -0.00600
H 	H 	0.73495 0.04945 0.01771 0.04200
H 	H 	0.67329 0.09263 0.00902 0.03400
H 	H 	0.84144 0.26890 0.98422 0.03100
H 	H 	0.90224 0.22490 0.99123 0.04300
C 	C 	0.83132 0.05046 0.96369 -0.03000
C 	C 	0.86450 0.02427 0.95942 -0.03900
C 	C 	0.92333 0.05216 0.99233 -0.00400
C 	C 	0.94875 0.10668 0.02952 -0.03800
C 	C 	0.91529 0.13265 0.03403 -0.03900
H 	H 	0.78640 0.02901 0.93761 0.03600
H 	H 	0.84459 0.98241 0.93039 0.04700
H 	H 	0.99380 0.12827 0.05546 0.04000
H 	H 	0.93509 0.17449 0.06305 0.03700
C 	C 	0.36359 0.22202 0.99366 -0.05900
C 	C 	0.31755 0.15574 0.98519 0.02200
C 	C 	0.33622 0.11615 0.97502 -0.06400
C 	C 	0.40072 0.14265 0.97509 0.01600
C 	C 	0.44711 0.20902 0.98498 -0.09200
C 	C 	0.42800 0.24856 0.99341 0.02100
C 	C 	0.25036 0.12779 0.98925 0.01500
H 	H 	0.30088 0.06488 0.96774 0.04700
H 	H 	0.41464 0.11161 0.96784 0.03100
H 	H 	0.46326 0.29984 0.00122 0.02000
H 	H 	0.34968 0.25298 0.00156 0.03800
C 	C 	0.22189 0.08847 0.02523 -0.05300
C 	C 	0.15729 0.05900 0.02717 -0.02800
C 	C 	0.12062 0.06890 0.99342 -0.01200
C 	C 	0.14974 0.11040 0.95894 -0.02200
C 	C 	0.21434 0.13955 0.95671 -0.04600
H 	H 	0.24959 0.08005 0.05118 0.04100
H 	H 	0.13537 0.02745 0.05423 0.03900
H 	H 	0.12182 0.11825 0.93264 0.04100
H 	H 	0.23597 0.17013 0.92900 0.04200
