data_crystal

_cell_length_a 40.38408
_cell_length_b 38.20165
_cell_length_c 19.40844
_cell_angle_alpha 92.63283
_cell_angle_beta  85.30938
_cell_angle_gamma 123.85613

_symmetry_space_group_name_	'P 1'
_symmetry_space_group_name_H-M	'P 1'

loop_
_symmetry_equiv_pos_as_xyz
  x,y,z

loop_
_atom_site_label
_atom_site_type_symbol
_atom_site_fract_x
_atom_site_fract_y
_atom_site_fract_z
_atom_site_charge
C 	C 	0.00018 0.00431 0.93937 0.02200
C 	C 	0.99933 0.03596 0.90666 -0.02100
S 	S 	0.90668 0.97829 0.80422 -0.00600
C 	C 	0.92236 0.90847 0.85800 -0.05700
C 	C 	0.03821 0.01845 0.96247 -0.06000
S 	S 	0.04532 0.07970 0.90503 -0.00800
H 	H 	0.97975 0.08577 0.83938 0.04500
H 	H 	0.90092 0.89497 0.81864 0.04700
C 	C 	0.06679 0.06118 0.94798 0.00100
H 	H 	0.04535 0.99771 0.98300 0.04500
C 	C 	0.19263 0.11867 0.95833 0.01600
C 	C 	0.16846 0.07723 0.93383 -0.04500
C 	C 	0.12755 0.05868 0.92889 -0.03800
C 	C 	0.11046 0.08157 0.94773 0.00900
C 	C 	0.13501 0.12365 0.96917 -0.03900
C 	C 	0.17588 0.14208 0.97467 -0.04500
H 	H 	0.18130 0.05928 0.91926 0.03800
H 	H 	0.10925 0.02664 0.91012 0.03700
H 	H 	0.12226 0.14175 0.98325 0.03800
H 	H 	0.19433 0.17421 0.99306 0.03900
C 	C 	0.85805 0.07921 0.74969 0.01100
C 	C 	0.85306 0.04386 0.71443 -0.03900
C 	C 	0.87541 0.02797 0.73017 -0.03800
C 	C 	0.90320 0.04737 0.78115 0.01000
C 	C 	0.90786 0.08252 0.81698 -0.04000
C 	C 	0.88550 0.09841 0.80111 -0.04200
H 	H 	0.83228 0.02909 0.67412 0.04000
H 	H 	0.87174 0.00111 0.70165 0.04300
H 	H 	0.88906 0.12526 0.82952 0.03900
C 	C 	0.87916 0.75394 0.87699 0.01100
C 	C 	0.92076 0.78024 0.86332 -0.04000
C 	C 	0.94024 0.82403 0.86740 -0.03800
C 	C 	0.91829 0.84186 0.88485 0.01100
C 	C 	0.87679 0.81554 0.89943 -0.04100
C 	C 	0.85736 0.77183 0.89564 -0.04200
H 	H 	0.93786 0.76679 0.84844 0.03800
H 	H 	0.85961 0.82897 0.91368 0.03900
H 	H 	0.82534 0.75183 0.90730 0.03900
C 	C 	0.03493 0.01634 0.74330 0.02500
C 	C 	0.03488 0.04855 0.71154 -0.02100
S 	S 	0.94158 0.99462 0.61234 -0.00800
C 	C 	0.95526 0.92157 0.66263 -0.06000
C 	C 	0.07188 0.03001 0.77031 -0.05700
S 	S 	0.08022 0.09252 0.71485 -0.00600
C 	C 	0.96261 0.04675 0.60836 0.00200
H 	H 	0.01732 0.10082 0.64914 0.04600
H 	H 	0.93295 0.90820 0.62479 0.04900
C 	C 	0.10027 0.07323 0.75982 0.00200
H 	H 	0.07840 0.00902 0.79187 0.04600
C 	C 	0.22717 0.13928 0.75955 0.01100
C 	C 	0.20442 0.09640 0.74167 -0.04000
C 	C 	0.16277 0.07417 0.74417 -0.03900
C 	C 	0.14353 0.09457 0.76527 0.01300
C 	C 	0.16615 0.13660 0.78754 -0.03700
C 	C 	0.20777 0.15889 0.78453 -0.04100
H 	H 	0.21908 0.08091 0.72249 0.04100
H 	H 	0.14565 0.04168 0.72706 0.04000
H 	H 	0.15151 0.15226 0.80580 0.04100
H 	H 	0.22503 0.19185 0.79920 0.03800
C 	C 	0.90040 0.10360 0.56204 0.01200
C 	C 	0.92887 0.12178 0.61186 -0.03900
C 	C 	0.94900 0.10324 0.62743 -0.03700
C 	C 	0.94131 0.06657 0.59248 0.01100
C 	C 	0.91321 0.04880 0.54192 -0.03900
C 	C 	0.89281 0.06714 0.52694 -0.04100
H 	H 	0.93466 0.14965 0.63980 0.03900
H 	H 	0.90735 0.02094 0.51384 0.04300
H 	H 	0.87120 0.05309 0.48788 0.04200
C 	C 	0.90883 0.76553 0.68655 0.01200
C 	C 	0.95064 0.79115 0.67618 -0.04100
C 	C 	0.97069 0.83502 0.67873 -0.03800
C 	C 	0.94911 0.85369 0.69104 0.01100
C 	C 	0.90744 0.82807 0.70416 -0.03800
C 	C 	0.88741 0.78419 0.70212 -0.04000
H 	H 	0.96749 0.77710 0.66440 0.04100
H 	H 	0.89060 0.84211 0.71605 0.03900
H 	H 	0.85524 0.76470 0.71191 0.03900
Co	Co	0.68478 0.30571 0.93476 1.18000
O 	O 	0.72514 0.30471 0.86168 -0.38400
Co	Co	0.60231 0.29949 0.99926 1.17200
O 	O 	0.62628 0.27245 0.91467 -0.46800
O 	O 	0.64459 0.36113 0.99096 -0.42300
O 	O 	0.69140 0.25362 0.93202 -0.35700
C 	C 	0.67951 0.37850 0.95461 0.33600
O 	O 	0.58847 0.29262 0.89264 -0.36000
C 	C 	0.53332 0.25735 0.06755 0.28500
C 	C 	0.67344 0.31532 0.07068 0.28200
O 	O 	0.55814 0.29783 0.06649 -0.36100
O 	O 	0.54849 0.24012 0.03019 -0.33700
O 	O 	0.70685 0.32793 0.03481 -0.34900
O 	O 	0.64278 0.28947 0.03560 -0.43900
O 	O 	0.68683 0.35655 0.90874 -0.53800
C 	C 	0.71850 0.26950 0.88148 0.29200
C 	C 	0.61077 0.27997 0.86676 0.30400
H 	H 	0.70173 0.37010 0.86293 0.17500
Co	Co	0.71650 0.32643 0.46255 1.18200
O 	O 	0.75983 0.31902 0.41084 -0.38000
Co	Co	0.64109 0.33875 0.49572 1.18400
O 	O 	0.66707 0.31178 0.41384 -0.46100
O 	O 	0.69056 0.39480 0.51419 -0.41500
O 	O 	0.70735 0.26551 0.45586 -0.35300
C 	C 	0.72801 0.40765 0.49497 0.33700
O 	O 	0.64529 0.34894 0.38708 -0.36100
C 	C 	0.56742 0.30502 0.53881 0.29400
C 	C 	0.68560 0.32317 0.59176 0.32100
O 	O 	0.59698 0.34239 0.55308 -0.37400
O 	O 	0.57959 0.28550 0.49988 -0.34900
O 	O 	0.72084 0.33142 0.57280 -0.37000
O 	O 	0.66289 0.30938 0.54083 -0.47100
O 	O 	0.73653 0.38656 0.44890 -0.53500
C 	C 	0.74104 0.27895 0.42146 0.29400
C 	C 	0.66516 0.33265 0.36527 0.31700
H 	H 	0.76005 0.40270 0.41377 0.17000
C 	C 	0.62950 0.29053 0.79608 -0.07000
C 	C 	0.63283 0.32338 0.75992 -0.02300
C 	C 	0.65259 0.33471 0.69433 0.01100
C 	C 	0.66871 0.31297 0.66343 -0.13700
C 	C 	0.66467 0.27902 0.69912 0.14000
C 	C 	0.64591 0.26889 0.76605 -0.07600
H 	H 	0.65498 0.36021 0.66693 0.02300
H 	H 	0.64326 0.24344 0.79412 0.05300
H 	H 	0.62068 0.34062 0.78305 0.04700
N 	N 	0.67747 0.25532 0.66893 -0.20500
H 	H 	0.68711 0.25846 0.61674 0.10800
H 	H 	0.67599 0.23174 0.69708 0.09300
C 	C 	0.67098 0.31603 0.14699 -0.04100
C 	C 	0.70605 0.33916 0.18254 -0.03000
C 	C 	0.70389 0.34179 0.25455 0.02200
C 	C 	0.66675 0.32170 0.29208 -0.13500
C 	C 	0.63125 0.29608 0.25699 0.14300
C 	C 	0.63366 0.29429 0.18440 -0.07300
H 	H 	0.73118 0.36097 0.28108 0.01800
H 	H 	0.60652 0.27581 0.15727 0.05400
H 	H 	0.73504 0.35591 0.15429 0.05500
N 	N 	0.59504 0.27265 0.29261 -0.20400
H 	H 	0.59263 0.26994 0.34635 0.10800
H 	H 	0.56888 0.25525 0.26632 0.09400
C 	C 	0.84966 0.63294 0.64950 0.08700
C 	C 	0.87732 0.65226 0.70035 -0.06700
C 	C 	0.89650 0.69553 0.71298 -0.02100
C 	C 	0.88732 0.71949 0.67591 -0.00500
C 	C 	0.85861 0.69971 0.62660 -0.02300
C 	C 	0.83981 0.65662 0.61359 -0.06600
H 	H 	0.88438 0.63392 0.72928 0.05600
H 	H 	0.91831 0.71035 0.75166 0.03500
H 	H 	0.85136 0.71787 0.59755 0.03700
H 	H 	0.81790 0.64167 0.57511 0.05700
N 	N 	0.83178 0.58968 0.63430 -0.08600
N 	N 	0.83436 0.57825 0.57397 -0.08800
C 	C 	0.75999 0.45057 0.51477 -0.12400
C 	C 	0.78064 0.48241 0.46463 0.04200
C 	C 	0.80636 0.52439 0.48459 -0.09800
C 	C 	0.81123 0.53505 0.55472 0.10800
C 	C 	0.79186 0.50293 0.60494 -0.09500
C 	C 	0.76617 0.46091 0.58492 0.04300
H 	H 	0.77563 0.47487 0.41040 0.02100
H 	H 	0.82148 0.54888 0.44562 0.06400
H 	H 	0.79613 0.51052 0.65929 0.06700
H 	H 	0.75033 0.43651 0.62401 0.02300
C 	C 	0.80400 0.22046 0.44839 0.10400
C 	C 	0.82426 0.26088 0.41966 -0.09100
C 	C 	0.80358 0.27954 0.40849 0.03100
C 	C 	0.76228 0.25777 0.42595 -0.09500
C 	C 	0.74167 0.21644 0.45173 0.03000
C 	C 	0.76239 0.19787 0.46290 -0.08700
H 	H 	0.85617 0.27808 0.40687 0.06200
H 	H 	0.81979 0.31110 0.38734 0.03700
H 	H 	0.70969 0.19887 0.46398 0.03900
H 	H 	0.74615 0.16603 0.48286 0.06600
N 	N 	0.82552 0.20225 0.46046 -0.08700
N 	N 	0.81399 0.17604 0.50778 -0.08400
C 	C 	0.87810 0.12239 0.54735 -0.00400
C 	C 	0.83613 0.09803 0.55403 -0.02100
C 	C 	0.81508 0.11594 0.54082 -0.06600
C 	C 	0.83567 0.15809 0.51995 0.08700
C 	C 	0.87767 0.18269 0.51421 -0.06500
C 	C 	0.89877 0.16484 0.52746 -0.02400
H 	H 	0.81988 0.06548 0.57063 0.03600
H 	H 	0.78274 0.09711 0.54704 0.05600
H 	H 	0.89391 0.21561 0.49987 0.05700
H 	H 	0.93114 0.18396 0.52227 0.03700
C 	C 	0.45556 0.24413 0.65821 0.10500
C 	C 	0.48961 0.27907 0.68531 -0.09200
C 	C 	0.52646 0.29852 0.64710 0.03400
C 	C 	0.52952 0.28273 0.58171 -0.09600
C 	C 	0.49580 0.24627 0.55643 0.03200
C 	C 	0.45898 0.22699 0.59458 -0.08900
H 	H 	0.48724 0.29199 0.73490 0.06300
H 	H 	0.55248 0.32604 0.66802 0.03600
H 	H 	0.49789 0.23350 0.50648 0.03500
H 	H 	0.43290 0.19938 0.57403 0.06500
N 	N 	0.41755 0.22799 0.69274 -0.08900
N 	N 	0.38945 0.22199 0.66021 -0.08500
C 	C 	0.27068 0.16485 0.74242 -0.00500
C 	C 	0.28718 0.19776 0.69432 -0.02300
C 	C 	0.32719 0.21808 0.67002 -0.06900
C 	C 	0.35116 0.20591 0.69360 0.08600
C 	C 	0.33522 0.17422 0.74411 -0.06600
C 	C 	0.29513 0.15389 0.76863 -0.02400
H 	H 	0.26857 0.20642 0.67367 0.03700
H 	H 	0.33926 0.24237 0.63098 0.05500
H 	H 	0.35343 0.16438 0.76247 0.05700
H 	H 	0.28280 0.12885 0.80640 0.03700
C 	C 	0.76053 0.51215 0.93872 0.10700
C 	C 	0.77419 0.48736 0.95621 -0.10000
C 	C 	0.74749 0.44372 0.96318 0.03600
C 	C 	0.70677 0.42472 0.95399 -0.12700
C 	C 	0.69287 0.44973 0.93864 0.04300
C 	C 	0.71967 0.49331 0.93097 -0.09800
H 	H 	0.80558 0.50185 0.96339 0.05900
H 	H 	0.75846 0.42463 0.97513 0.01500
H 	H 	0.66151 0.43532 0.93113 0.02600
H 	H 	0.70879 0.51245 0.91886 0.06400
N 	N 	0.78768 0.55627 0.93186 -0.09100
N 	N 	0.78928 0.57464 0.87898 -0.08500
C 	C 	0.85839 0.70767 0.87246 -0.00500
C 	C 	0.82565 0.68414 0.83140 -0.02200
C 	C 	0.80371 0.64013 0.83202 -0.06800
C 	C 	0.81395 0.61924 0.87415 0.08400
C 	C 	0.84804 0.64277 0.91234 -0.06600
C 	C 	0.86996 0.68678 0.91186 -0.02500
H 	H 	0.81709 0.69997 0.79939 0.03500
H 	H 	0.77821 0.62220 0.80089 0.05500
H 	H 	0.85715 0.62698 0.94314 0.05400
H 	H 	0.89538 0.70461 0.94323 0.03400
C 	C 	0.75896 0.20154 0.76255 0.10400
C 	C 	0.76686 0.23941 0.73745 -0.09300
C 	C 	0.75229 0.26083 0.77483 0.02900
C 	C 	0.72986 0.24460 0.83813 -0.10000
C 	C 	0.72050 0.20571 0.86177 0.02900
C 	C 	0.73504 0.18432 0.82428 -0.09100
H 	H 	0.78533 0.25290 0.69000 0.06300
H 	H 	0.75922 0.29048 0.75534 0.03800
H 	H 	0.70308 0.19269 0.91028 0.03500
H 	H 	0.72915 0.15530 0.84465 0.06300
N 	N 	0.77988 0.18437 0.73157 -0.08800
N 	N 	0.76382 0.14547 0.72974 -0.08500
C 	C 	0.83374 0.09541 0.73430 -0.00500
C 	C 	0.79187 0.06867 0.73939 -0.02400
C 	C 	0.76879 0.08501 0.73262 -0.07000
C 	C 	0.78723 0.12819 0.72158 0.08400
C 	C 	0.82918 0.15445 0.71130 -0.06400
C 	C 	0.85227 0.13813 0.71811 -0.02300
H 	H 	0.77724 0.03554 0.75107 0.03500
H 	H 	0.73653 0.06448 0.73952 0.05300
H 	H 	0.84391 0.18758 0.69971 0.05900
H 	H 	0.88454 0.15880 0.71194 0.03500
C 	C 	0.40847 0.20660 0.06830 0.10700
C 	C 	0.43360 0.24429 0.10338 -0.08800
C 	C 	0.47408 0.25984 0.10670 0.03000
C 	C 	0.48962 0.23757 0.07515 -0.08900
C 	C 	0.46360 0.19821 0.04446 0.03100
C 	C 	0.42329 0.18298 0.04068 -0.08600
H 	H 	0.42204 0.26214 0.12627 0.06500
H 	H 	0.49351 0.28970 0.13208 0.03900
H 	H 	0.47483 0.18007 0.02149 0.04500
H 	H 	0.40370 0.15319 0.01525 0.06800
N 	N 	0.36836 0.19266 0.06039 -0.08600
N 	N 	0.35587 0.18677 0.00151 -0.06700
C 	C 	0.23494 0.13671 0.97036 -0.02600
C 	C 	0.26557 0.17373 0.93623 -0.02400
C 	C 	0.30558 0.19029 0.94685 -0.06000
C 	C 	0.31527 0.17078 0.99319 0.04400
C 	C 	0.28470 0.13391 0.02769 -0.03800
C 	C 	0.24470 0.11697 0.01638 -0.00400
H 	H 	0.25842 0.18954 0.90133 0.03600
H 	H 	0.32906 0.21832 0.91918 0.05000
H 	H 	0.29197 0.11819 0.06260 0.05400
H 	H 	0.22131 0.08856 0.04337 0.04000
C 	C 	0.93838 0.88788 0.88430 0.00300
C 	C 	0.92638 0.02994 0.79768 0.00200
C 	C 	0.97023 0.89991 0.68942 0.00300
C 	C 	0.94058 0.95048 0.88209 0.02300
C 	C 	0.97891 0.99644 0.64699 -0.02000
C 	C 	0.97508 0.96398 0.68562 0.02500
C 	C 	0.94364 0.98219 0.84325 -0.02000
H 	H 	0.92804 0.09697 0.85811 0.03800
H 	H 	0.97220 0.84411 0.85520 0.04100
S 	S 	0.00624 0.93245 0.74151 -0.00900
H 	H 	0.96938 0.11654 0.66835 0.04000
H 	H 	0.00290 0.85451 0.66946 0.04000
C 	C 	0.00403 0.97422 0.73254 -0.02000
C 	C 	0.96270 0.05212 0.83010 -0.05900
C 	C 	0.00861 0.03894 0.66017 0.02300
C 	C 	0.99953 0.06738 0.63811 -0.05600
C 	C 	0.97232 0.02487 0.85571 0.02500
S 	S 	0.97312 0.92069 0.93816 -0.01200
C 	C 	0.96947 0.96169 0.92972 -0.02100
