data_crystal

_cell_length_a 16.53557
_cell_length_b 19.17886
_cell_length_c 67.51329
_cell_angle_alpha 89.46921
_cell_angle_beta  89.47610
_cell_angle_gamma 119.61334

_symmetry_space_group_name_	'P 1'
_symmetry_space_group_name_H-M	'P 1'

loop_
_symmetry_equiv_pos_as_xyz
  x,y,z

loop_
_atom_site_label
_atom_site_type_symbol
_atom_site_fract_x
_atom_site_fract_y
_atom_site_fract_z
_atom_site_charge
C 	C 	0.00149 0.19891 0.14619 0.03500
C 	C 	0.01321 0.40243 0.10713 -0.02600
H 	H 	0.01509 0.82212 0.06409 0.04700
C 	C 	0.01770 0.93081 0.10384 0.02600
C 	C 	0.01769 0.44255 0.08944 -0.02700
H 	H 	0.02123 0.22148 0.11474 0.06100
O 	O 	0.00762 0.12682 0.18301 -0.38000
C 	C 	0.99811 0.41079 0.03782 -0.06500
C 	C 	0.56534 0.79532 0.00446 0.30700
H 	H 	0.71774 0.94403 0.00801 0.06300
O 	O 	0.43252 0.61948 0.00861 -0.35800
O 	O 	0.33302 0.83300 0.00462 -0.34700
C 	C 	0.64848 0.81848 0.01628 -0.05200
O 	O 	0.17200 0.67056 0.00577 -0.35800
H 	H 	0.07392 0.43995 0.01015 0.08700
O 	O 	0.49508 0.79523 0.01328 -0.37500
C 	C 	0.70796 0.90053 0.01948 0.01700
C 	C 	0.16301 0.60210 0.01333 0.29800
Ni	Ni	0.37109 0.68975 0.01632 1.11600
O 	O 	0.23654 0.59460 0.01772 -0.35200
H 	H 	0.22668 0.89384 0.01179 0.07400
H 	H 	0.60258 0.69972 0.02814 0.08000
C 	C 	0.64387 0.76339 0.03072 0.01100
C 	C 	0.04711 0.46167 0.02184 0.03500
C 	C 	0.31987 0.81778 0.02362 0.31100
C 	C 	0.07368 0.54338 0.02248 -0.06800
O 	O 	0.31636 0.75280 0.03101 -0.37400
C 	C 	0.23740 0.89587 0.02763 0.03200
C 	C 	0.74099 0.92712 0.03855 -0.04900
H 	H 	0.77869 0.99085 0.04141 0.06000
H 	H 	0.98759 0.35038 0.03829 0.06500
C 	C 	0.29024 0.86415 0.03594 -0.07500
H 	H 	0.14740 0.94465 0.03345 0.07500
C 	C 	0.03300 0.56913 0.03692 0.03300
C 	C 	0.67470 0.78937 0.04989 -0.05100
H 	H 	0.04923 0.63121 0.03711 0.04500
C 	C 	0.19238 0.92464 0.03989 -0.05500
C 	C 	0.71581 0.87127 0.05427 0.02500
C 	C 	0.98249 0.51790 0.05276 -0.07300
C 	C 	0.97292 0.44100 0.05418 0.03800
C 	C 	0.30465 0.86856 0.05644 0.02400
H 	H 	0.65850 0.74536 0.06164 0.05000
C 	C 	0.20014 0.92228 0.06050 0.04100
H 	H 	0.34738 0.84636 0.06296 0.03700
H 	H 	0.65097 0.96811 0.06774 0.05000
H 	H 	0.95876 0.54053 0.06481 0.05300
H 	H 	0.84564 0.28679 0.06444 0.04700
C 	C 	0.25982 0.89763 0.06867 -0.06400
C 	C 	0.71507 0.89644 0.07502 0.00700
C 	C 	0.95809 0.40110 0.07382 -0.00400
C 	C 	0.04113 0.87117 0.07442 -0.01500
C 	C 	0.13462 0.93183 0.07345 -0.00800
C 	C 	0.89223 0.31938 0.07633 -0.03500
C 	C 	0.67578 0.94500 0.07949 -0.03800
H 	H 	0.06959 0.50528 0.08762 0.04300
C 	C 	0.98304 0.87037 0.08963 -0.06000
C 	C 	0.16751 0.99532 0.08678 -0.00700
H 	H 	0.23941 0.04284 0.08599 0.02900
H 	H 	0.26719 0.89669 0.08459 0.05300
C 	C 	0.74355 0.86467 0.09056 -0.03700
H 	H 	0.77281 0.82642 0.08739 0.04100
H 	H 	0.91294 0.82028 0.09109 0.04600
C 	C 	0.88834 0.27907 0.09404 -0.03300
H 	H 	0.83847 0.21575 0.09575 0.03700
C 	C 	0.66544 0.96166 0.09918 -0.03200
C 	C 	0.10910 0.99502 0.10189 -0.02800
H 	H 	0.63461 0.99880 0.10239 0.04600
C 	C 	0.94965 0.32036 0.10939 -0.01100
C 	C 	0.73123 0.87988 0.11027 -0.03500
H 	H 	0.13637 0.04222 0.11274 0.03100
C 	C 	0.69329 0.92938 0.11470 -0.00100
H 	H 	0.95878 0.03018 0.11823 0.02900
H 	H 	0.06049 0.43478 0.11895 0.04200
C 	C 	0.96421 0.92056 0.12221 0.01100
H 	H 	0.75117 0.85317 0.12210 0.04400
C 	C 	0.94847 0.27779 0.12776 0.03800
C 	C 	0.99231 0.23115 0.12822 -0.09000
C 	C 	0.94445 0.98052 0.12815 -0.04300
H 	H 	0.95661 0.80819 0.13046 0.04600
H 	H 	0.75597 0.07738 0.13016 0.04600
C 	C 	0.94236 0.85518 0.13497 -0.06100
C 	C 	0.68500 0.94917 0.13555 0.04200
C 	C 	0.72245 0.02951 0.14112 -0.07800
C 	C 	0.91194 0.29045 0.14530 -0.07400
H 	H 	0.87809 0.32650 0.14506 0.04900
H 	H 	0.61017 0.82563 0.14580 0.04900
H 	H 	0.03728 0.16449 0.14635 0.03200
C 	C 	0.90897 0.97772 0.14716 0.02800
C 	C 	0.64147 0.88795 0.14997 -0.05800
H 	H 	0.89611 0.02520 0.15186 0.01600
C 	C 	0.90842 0.85330 0.15408 0.01800
C 	C 	0.89559 0.91641 0.16050 -0.09100
C 	C 	0.71939 0.04855 0.16095 -0.01500
C 	C 	0.92046 0.25794 0.16324 0.01900
C 	C 	0.96548 0.21200 0.16385 -0.09500
H 	H 	0.89728 0.80524 0.16427 0.03300
H 	H 	0.74844 0.11077 0.16495 0.04200
C 	C 	0.63997 0.90708 0.16989 0.00400
H 	H 	0.89117 0.26785 0.17662 0.03200
C 	C 	0.68238 0.98775 0.17564 -0.04500
C 	C 	0.88807 0.92739 0.18162 0.29500
C 	C 	0.97167 0.17559 0.18284 0.28000
H 	H 	0.60849 0.85923 0.18089 0.03900
O 	O 	0.96475 0.96174 0.19220 -0.37300
O 	O 	0.80500 0.89611 0.19024 -0.37200
C 	C 	0.69980 0.00903 0.19690 0.24000
H 	H 	0.00858 0.15296 0.33594 0.04900
C 	C 	0.00754 0.73935 0.31402 -0.02300
Ni	Ni	0.00474 0.06430 0.20756 1.11800
O 	O 	0.01276 0.01004 0.23292 -0.39800
F 	F 	0.01609 0.55353 0.45716 -0.37100
H 	H 	0.02007 0.14591 0.37230 0.05900
H 	H 	0.00947 0.14367 0.76641 0.04300
C 	C 	0.01664 0.44326 0.93244 -0.18300
F 	F 	0.01872 0.51323 0.90267 -0.40900
C 	C 	0.02067 0.04135 0.74041 0.30300
C 	C 	0.02172 0.95028 0.68994 0.32500
O 	O 	0.02097 0.01633 0.69565 -0.38500
F 	F 	0.02635 0.36823 0.95992 -0.37200
O 	O 	0.02571 0.97923 0.73381 -0.35100
H 	H 	0.02924 0.25292 0.27241 0.04000
F 	F 	0.60771 0.61757 0.99930 -0.40300
Ni	Ni	0.90233 0.02060 0.70542 1.10100
Ni	Ni	0.91293 0.87267 0.72676 1.11800
O 	O 	0.98356 0.88404 0.70119 -0.40300
O 	O 	0.95972 0.05928 0.73311 -0.39700
C 	C 	0.35336 0.69870 0.38911 0.29500
C 	C 	0.56470 0.68331 0.38129 0.30800
C 	C 	0.33407 0.60815 0.45159 0.38500
Ni	Ni	0.43566 0.61759 0.41483 1.13000
O 	O 	0.41258 0.77306 0.39460 -0.34600
O 	O 	0.37306 0.63920 0.39110 -0.36200
O 	O 	0.32543 0.58547 0.43283 -0.35700
O 	O 	0.55566 0.74747 0.38001 -0.36800
O 	O 	0.55031 0.64559 0.39830 -0.36200
O 	O 	0.41656 0.64264 0.46044 -0.33200
O 	O 	0.48541 0.57171 0.43528 -0.34800
O 	O 	0.48514 0.72450 0.42351 -0.72200
H 	H 	0.42713 0.72609 0.42575 0.17800
C 	C 	0.25090 0.64242 0.95131 0.38400
Ni	Ni	0.26828 0.74531 0.98471 1.13000
O 	O 	0.20556 0.66718 0.96301 -0.36300
O 	O 	0.34270 0.68684 0.94809 -0.34100
O 	O 	0.34398 0.82771 0.96355 -0.34700
O 	O 	0.34563 0.70034 0.98986 -0.72400
H 	H 	0.30213 0.64386 0.98689 0.18400
O 	O 	0.06895 0.16859 0.22187 -0.38900
C 	C 	0.56687 0.64254 0.36307 -0.08000
C 	C 	0.58907 0.58069 0.36407 0.01800
C 	C 	0.56180 0.52446 0.34898 -0.05500
C 	C 	0.51320 0.53031 0.33272 0.02700
C 	C 	0.50258 0.59814 0.33047 -0.06200
C 	C 	0.52959 0.65422 0.34555 0.01700
C 	C 	0.45877 0.45990 0.32033 0.00600
C 	C 	0.38422 0.39053 0.32885 -0.03600
C 	C 	0.31776 0.33180 0.31680 -0.03200
C 	C 	0.32548 0.34191 0.29615 -0.00100
C 	C 	0.40412 0.40789 0.28762 -0.03500
C 	C 	0.47066 0.46661 0.29968 -0.03800
C 	C 	0.24684 0.28921 0.28363 0.03100
C 	C 	0.16245 0.28974 0.28525 -0.06800
C 	C 	0.18942 0.20469 0.25488 0.02100
C 	C 	0.25883 0.24444 0.26878 -0.06900
H 	H 	0.62178 0.57308 0.37712 0.07600
H 	H 	0.57300 0.47360 0.35054 0.06600
H 	H 	0.46700 0.60418 0.31773 0.04900
H 	H 	0.51479 0.70313 0.34424 0.04200
H 	H 	0.37482 0.38446 0.34480 0.05500
H 	H 	0.25807 0.28033 0.32350 0.04400
H 	H 	0.41122 0.41564 0.27166 0.04100
H 	H 	0.52869 0.51938 0.29297 0.04100
H 	H 	0.20003 0.17117 0.24329 0.03100
H 	H 	0.32301 0.24234 0.26768 0.04900
C 	C 	0.03802 0.94403 0.26935 0.05800
C 	C 	0.06481 0.90932 0.28437 -0.08400
C 	C 	0.03476 0.82693 0.28425 0.04900
C 	C 	0.97603 0.77912 0.26924 -0.08400
C 	C 	0.94924 0.81375 0.25417 0.03100
C 	C 	0.06850 0.79159 0.29932 -0.00600
C 	C 	0.16249 0.81203 0.29933 -0.03000
C 	C 	0.19583 0.78202 0.31418 -0.03600
C 	C 	0.13546 0.73125 0.32917 0.00600
C 	C 	0.04094 0.70938 0.32893 -0.02900
C 	C 	0.17287 0.70602 0.34585 0.03100
C 	C 	0.17359 0.73472 0.36493 -0.04900
C 	C 	0.22598 0.72543 0.37980 0.02400
C 	C 	0.27829 0.68758 0.37571 -0.06100
C 	C 	0.27081 0.65260 0.35714 0.01500
C 	C 	0.21841 0.66192 0.34225 -0.05700
H 	H 	0.06155 0.00771 0.26965 0.01600
H 	H 	0.10955 0.94656 0.29601 0.06200
H 	H 	0.95250 0.71545 0.26904 0.05200
H 	H 	0.20991 0.85195 0.28798 0.04500
H 	H 	0.26898 0.79959 0.31429 0.04700
H 	H 	0.99375 0.67016 0.34041 0.04500
H 	H 	0.13766 0.76792 0.36794 0.06800
H 	H 	0.22998 0.75149 0.39418 0.07700
H 	H 	0.31033 0.62276 0.35381 0.04200
H 	H 	0.21694 0.63830 0.32766 0.04900
C 	C 	0.08632 0.54433 0.46460 0.28000
C 	C 	0.17680 0.59131 0.45705 0.27800
C 	C 	0.24877 0.57851 0.46371 -0.18700
C 	C 	0.23147 0.52453 0.47952 0.27900
F 	F 	0.30078 0.51284 0.48644 -0.37600
F 	F 	0.19360 0.64592 0.44237 -0.38900
C 	C 	0.27368 0.98120 0.62655 -0.02500
C 	C 	0.25541 0.98841 0.60662 0.01100
C 	C 	0.20509 0.97074 0.64209 0.06300
C 	C 	0.17753 0.02872 0.64434 -0.09100
C 	C 	0.11598 0.02105 0.65963 0.00400
C 	C 	0.08223 0.95578 0.67302 -0.07100
C 	C 	0.10822 0.89670 0.67043 0.02200
C 	C 	0.16918 0.90418 0.65502 -0.07400
H 	H 	0.18812 0.97996 0.60240 0.04400
H 	H 	0.20472 0.08025 0.63438 0.05400
H 	H 	0.09521 0.06620 0.66114 0.03700
H 	H 	0.08254 0.84571 0.68051 0.04100
H 	H 	0.18925 0.85866 0.65326 0.05400
C 	C 	0.06349 0.50716 0.91878 0.27500
C 	C 	0.15320 0.56946 0.92294 0.27800
C 	C 	0.19597 0.56737 0.94064 -0.18900
C 	C 	0.15781 0.49506 0.95157 0.27100
F 	F 	0.20147 0.48982 0.96796 -0.37700
F 	F 	0.19307 0.63621 0.91117 -0.38300
C 	C 	0.09481 0.09929 0.75325 -0.08500
C 	C 	0.07758 0.14853 0.76584 0.01800
C 	C 	0.14792 0.20338 0.77798 -0.06400
C 	C 	0.23608 0.20947 0.77767 0.02900
C 	C 	0.25380 0.16109 0.76493 -0.06600
C 	C 	0.18360 0.10628 0.75277 0.01600
C 	C 	0.30735 0.26193 0.79174 0.00200
H 	H 	0.13361 0.24039 0.78783 0.05500
H 	H 	0.32150 0.16506 0.76469 0.04900
H 	H 	0.19836 0.06951 0.74294 0.03600
H 	H 	0.40057 0.34377 0.76920 0.04100
C 	C 	0.14097 0.47792 0.48717 0.27700
H 	H 	0.23129 0.19114 0.81745 0.04700
C 	C 	0.04037 0.17711 0.23941 0.31400
C 	C 	0.10767 0.21005 0.25560 -0.09100
H 	H 	0.15215 0.32336 0.29686 0.05100
C 	C 	0.98101 0.89665 0.25401 -0.11100
H 	H 	0.90527 0.77639 0.24246 0.03400
C 	C 	0.29371 0.24384 0.81207 -0.03400
C 	C 	0.83492 0.55444 0.93678 0.27500
C 	C 	0.60755 0.21289 0.94993 0.39600
C 	C 	0.91448 0.40447 0.93457 0.39400
C 	C 	0.56050 0.39135 0.95983 0.39200
C 	C 	0.64768 0.27985 0.88730 0.29400
C 	C 	0.63837 0.43419 0.88787 0.28000
Ni	Ni	0.74124 0.38907 0.95519 1.12300
Ni	Ni	0.57380 0.31707 0.92240 1.12700
Ni	Ni	0.79031 0.42489 0.90778 1.13100
O 	O 	0.79530 0.51374 0.95348 -0.31200
O 	O 	0.87074 0.52549 0.92378 -0.33900
O 	O 	0.59610 0.24880 0.90336 -0.36600
O 	O 	0.69365 0.26589 0.95471 -0.33300
O 	O 	0.54843 0.23642 0.94456 -0.34300
O 	O 	0.72578 0.47619 0.89368 -0.38200
O 	O 	0.87903 0.41502 0.95103 -0.34700
O 	O 	0.86228 0.37439 0.91905 -0.34600
O 	O 	0.56951 0.38853 0.90049 -0.37200
O 	O 	0.61412 0.36576 0.96763 -0.33800
O 	O 	0.52957 0.37259 0.94155 -0.34900
O 	O 	0.73686 0.33310 0.88862 -0.36000
O 	O 	0.70019 0.38695 0.92884 -0.70300
H 	H 	0.68958 0.43293 0.92924 0.13700
C 	C 	0.84425 0.19300 0.49213 0.28700
C 	C 	0.70635 0.40326 0.46554 0.41100
C 	C 	0.97107 0.42300 0.48327 0.40400
C 	C 	0.58025 0.16998 0.47225 0.36800
C 	C 	0.77978 0.43871 0.52464 0.31600
C 	C 	0.66526 0.20965 0.53605 0.29400
Ni	Ni	0.78621 0.29316 0.46847 1.12200
Ni	Ni	0.64516 0.30118 0.50155 1.12700
Ni	Ni	0.84084 0.32222 0.51514 1.12600
O 	O 	0.80384 0.19483 0.47535 -0.35400
O 	O 	0.89634 0.26022 0.50174 -0.35000
O 	O 	0.71632 0.41524 0.51080 -0.34600
O 	O 	0.78041 0.39684 0.46151 -0.33000
O 	O 	0.63446 0.34501 0.47489 -0.35800
O 	O 	0.75211 0.22679 0.53191 -0.38000
O 	O 	0.93008 0.36220 0.47119 -0.35500
O 	O 	0.93136 0.42386 0.50015 -0.36700
O 	O 	0.63147 0.25593 0.52956 -0.36600
O 	O 	0.64713 0.22299 0.46031 -0.32900
O 	O 	0.56277 0.19100 0.48987 -0.34000
O 	O 	0.80571 0.38919 0.53197 -0.38400
O 	O 	0.74974 0.28962 0.49517 -0.71400
H 	H 	0.71921 0.23138 0.49754 0.14800
C 	C 	0.73560 0.01434 0.72626 0.28100
C 	C 	0.74789 0.92728 0.67697 0.28300
C 	C 	0.77046 0.83081 0.75815 0.30800
C 	C 	0.76163 0.73547 0.70567 0.28800
Ni	Ni	0.71344 0.85586 0.71834 1.12000
O 	O 	0.70770 0.79905 0.74418 -0.38200
O 	O 	0.79891 0.04967 0.71217 -0.37400
O 	O 	0.72088 0.94685 0.73445 -0.36900
O 	O 	0.81862 0.75641 0.72099 -0.38200
O 	O 	0.69811 0.75831 0.70441 -0.38300
O 	O 	0.83599 0.98486 0.67843 -0.36400
O 	O 	0.69055 0.90215 0.69272 -0.37200
O 	O 	0.85980 0.87192 0.75367 -0.38900
O 	O 	0.84357 0.91143 0.71271 -0.70900
H 	H 	0.84294 0.88844 0.69972 0.14700
C 	C 	0.70785 0.86563 0.42981 0.30800
C 	C 	0.49444 0.87501 0.44150 0.36700
C 	C 	0.57135 0.61095 0.44167 0.39800
Ni	Ni	0.54477 0.80724 0.40469 1.11900
Ni	Ni	0.53291 0.74211 0.44975 1.13300
O 	O 	0.60802 0.68630 0.44687 -0.34700
O 	O 	0.67210 0.82515 0.41380 -0.37100
O 	O 	0.65548 0.84817 0.44590 -0.34500
O 	O 	0.54710 0.89078 0.42512 -0.34400
O 	O 	0.47344 0.81149 0.45303 -0.32800
C 	C 	0.42297 0.58089 0.99167 0.40700
C 	C 	0.43509 0.87269 0.96429 0.39300
Ni	Ni	0.43891 0.72193 0.97015 1.13100
O 	O 	0.48812 0.83979 0.96577 -0.35100
O 	O 	0.55196 0.75420 0.98807 -0.33100
O 	O 	0.40958 0.60788 0.97460 -0.35100
C 	C 	0.95597 0.93411 0.23771 0.32100
C 	C 	0.77777 0.01448 0.25444 0.27700
Ni	Ni	0.78904 0.92823 0.21875 1.11400
Ni	Ni	0.86011 0.12313 0.22044 1.11800
O 	O 	0.68363 0.95223 0.21026 -0.34400
O 	O 	0.75169 0.08568 0.20156 -0.36800
O 	O 	0.88164 0.88979 0.22717 -0.37600
O 	O 	0.95130 0.19958 0.19967 -0.38000
O 	O 	0.77194 0.94723 0.24842 -0.35800
O 	O 	0.76455 0.06042 0.24189 -0.37800
O 	O 	0.95569 0.16590 0.24191 -0.39600
O 	O 	0.87864 0.03614 0.21260 -0.71300
H 	H 	0.86243 0.03545 0.19864 0.13100
C 	C 	0.80227 0.03954 0.27518 -0.07300
C 	C 	0.77898 0.09387 0.28379 0.00900
C 	C 	0.80232 0.11728 0.30344 -0.06100
C 	C 	0.84892 0.08647 0.31470 0.02100
C 	C 	0.87560 0.03485 0.30583 -0.05400
C 	C 	0.85249 0.01155 0.28620 -0.01300
C 	C 	0.85873 0.09947 0.33631 0.00500
C 	C 	0.94622 0.12980 0.34511 -0.04200
C 	C 	0.95276 0.12600 0.36573 -0.04500
C 	C 	0.87177 0.09119 0.37767 0.00900
C 	C 	0.78539 0.06797 0.36892 -0.03500
C 	C 	0.77898 0.07202 0.34838 -0.03400
C 	C 	0.87417 0.06397 0.39818 0.03000
C 	C 	0.81960 0.07200 0.41312 -0.05300
C 	C 	0.77839 0.01268 0.42797 -0.00300
C 	C 	0.79055 0.94523 0.42743 -0.05900
C 	C 	0.86597 0.95103 0.41636 0.04100
C 	C 	0.90655 0.00948 0.40135 -0.07700
H 	H 	0.74149 0.11693 0.27540 0.03700
H 	H 	0.78202 0.15766 0.31008 0.05000
H 	H 	0.91171 0.01078 0.31435 0.04100
H 	H 	0.87323 0.97142 0.27960 0.05500
H 	H 	0.72230 0.04145 0.37792 0.04800
H 	H 	0.71123 0.04933 0.34178 0.04500
H 	H 	0.79990 0.11796 0.41182 0.06400
H 	H 	0.72659 0.01310 0.43784 0.05700
H 	H 	0.88234 0.90291 0.41712 0.05300
H 	H 	0.95410 0.00599 0.39079 0.05600
C 	C 	0.09297 0.25012 0.27133 0.02100
H 	H 	0.93477 0.72306 0.31409 0.03800
C 	C 	0.50690 0.07509 0.44456 0.27900
C 	C 	0.51981 0.08808 0.46504 -0.19000
C 	C 	0.49322 0.02200 0.47783 0.24800
C 	C 	0.47477 0.94817 0.47017 0.28300
C 	C 	0.47976 0.93963 0.44952 -0.16200
C 	C 	0.48667 0.00094 0.43682 0.23300
F 	F 	0.47811 0.98990 0.41695 -0.37600
F 	F 	0.51895 0.13561 0.43211 -0.37400
F 	F 	0.45675 0.88656 0.48282 -0.38700
F 	F 	0.49164 0.03065 0.49772 -0.41500
C 	C 	0.06746 0.48503 0.47905 -0.18800
F 	F 	0.12367 0.42215 0.50157 -0.39200
C 	C 	0.64600 0.45404 0.43888 0.28100
C 	C 	0.69623 0.46820 0.45644 -0.19000
C 	C 	0.71708 0.53644 0.46751 0.27900
C 	C 	0.67929 0.58511 0.46234 0.27900
C 	C 	0.62202 0.56689 0.44567 -0.19100
C 	C 	0.60948 0.50343 0.43344 0.27700
F 	F 	0.56022 0.48855 0.41651 -0.39900
F 	F 	0.62813 0.38967 0.42768 -0.37500
F 	F 	0.69427 0.64726 0.47412 -0.38400
F 	F 	0.76941 0.55286 0.48401 -0.38400
C 	C 	0.81284 0.11613 0.50272 -0.07800
C 	C 	0.71712 0.06199 0.50486 0.02700
C 	C 	0.68345 0.00942 0.52124 -0.06700
C 	C 	0.74552 0.01009 0.53536 0.00900
C 	C 	0.84152 0.05518 0.53153 -0.04900
C 	C 	0.87509 0.10763 0.51518 0.01700
C 	C 	0.71167 0.97805 0.55553 0.05300
C 	C 	0.71354 0.02964 0.57032 -0.06500
C 	C 	0.69424 0.00324 0.59004 -0.04800
C 	C 	0.67449 0.92525 0.59526 0.01900
C 	C 	0.66765 0.87216 0.58028 -0.02900
C 	C 	0.68639 0.89859 0.56048 -0.04500
C 	C 	0.67465 0.90361 0.61638 0.02600
C 	C 	0.61984 0.91613 0.63039 -0.05900
C 	C 	0.63767 0.91640 0.65065 0.01600
C 	C 	0.70968 0.90325 0.65702 -0.07800
C 	C 	0.75712 0.88184 0.64318 0.01300
C 	C 	0.74024 0.88261 0.62295 -0.06000
H 	H 	0.66850 0.06585 0.49494 0.05700
H 	H 	0.60912 0.97228 0.52364 0.10100
H 	H 	0.89014 0.05424 0.54203 0.04900
H 	H 	0.94937 0.14693 0.51325 0.05400
H 	H 	0.73425 0.09136 0.56666 0.05600
H 	H 	0.69948 0.04475 0.60140 0.03900
H 	H 	0.65137 0.81153 0.58407 0.04600
H 	H 	0.68433 0.85821 0.54913 0.06500
H 	H 	0.56707 0.93002 0.62554 0.05200
H 	H 	0.59951 0.93173 0.66123 0.04000
H 	H 	0.81129 0.86960 0.64799 0.03000
H 	H 	0.78232 0.87196 0.61233 0.04700
C 	C 	0.61628 0.15444 0.55261 -0.07500
C 	C 	0.63048 0.18362 0.57195 0.01600
C 	C 	0.56863 0.13785 0.58719 -0.06200
C 	C 	0.49217 0.06238 0.58316 0.02600
C 	C 	0.48379 0.02997 0.56423 -0.07700
C 	C 	0.54499 0.07634 0.54894 0.01700
C 	C 	0.41394 0.02423 0.59758 0.02300
C 	C 	0.43023 0.01171 0.61732 -0.07800
C 	C 	0.36049 0.99058 0.63177 0.00800
C 	C 	0.32526 0.01014 0.59221 -0.07500
H 	H 	0.68628 0.24359 0.57496 0.03700
H 	H 	0.57678 0.16312 0.60180 0.04600
H 	H 	0.42668 0.97079 0.56109 0.08600
H 	H 	0.53434 0.05299 0.53411 0.07200
H 	H 	0.49808 0.02171 0.62160 0.04100
H 	H 	0.37502 0.98445 0.64711 0.03500
H 	H 	0.31176 0.01953 0.57703 0.05900
C 	C 	0.77468 0.69349 0.68883 -0.08800
C 	C 	0.86397 0.70647 0.68398 0.01200
C 	C 	0.88436 0.69341 0.66468 -0.06500
C 	C 	0.81464 0.66437 0.65039 0.02700
C 	C 	0.72292 0.64154 0.65596 -0.06600
C 	C 	0.70285 0.65543 0.67515 0.01700
C 	C 	0.83802 0.66144 0.62945 -0.00000
C 	C 	0.82254 0.70707 0.61516 -0.03500
C 	C 	0.82967 0.69459 0.59501 -0.03800
C 	C 	0.85267 0.63663 0.58903 0.00500
C 	C 	0.87450 0.59512 0.60335 -0.03800
C 	C 	0.86714 0.60748 0.62347 -0.03600
C 	C 	0.84086 0.61092 0.56827 0.03100
C 	C 	0.75146 0.57227 0.56019 -0.05400
C 	C 	0.73324 0.52326 0.54374 0.02900
C 	C 	0.80413 0.51222 0.53546 -0.05600
C 	C 	0.89603 0.56048 0.54165 0.02500
C 	C 	0.91438 0.60977 0.55804 -0.05400
H 	H 	0.91873 0.73073 0.69480 0.03300
H 	H 	0.95484 0.70857 0.66067 0.04300
H 	H 	0.66790 0.61602 0.64519 0.05100
H 	H 	0.63256 0.64131 0.67899 0.03900
H 	H 	0.80149 0.74986 0.61968 0.03900
H 	H 	0.81368 0.72756 0.58408 0.04700
H 	H 	0.89258 0.55037 0.59887 0.04300
H 	H 	0.88008 0.57258 0.63441 0.03900
H 	H 	0.69460 0.57471 0.56763 0.05700
H 	H 	0.66244 0.48819 0.53866 0.05600
H 	H 	0.95195 0.55464 0.53485 0.05600
H 	H 	0.98435 0.64185 0.56373 0.05600
C 	C 	0.06771 0.43335 0.94762 0.28400
C 	C 	0.60573 0.08314 0.94602 0.25500
C 	C 	0.57043 0.12783 0.95532 -0.19300
C 	C 	0.49051 0.08851 0.96752 0.28100
C 	C 	0.44444 0.00506 0.96985 0.23600
C 	C 	0.47911 0.96000 0.96043 -0.17100
C 	C 	0.56024 0.99958 0.94849 0.29500
F 	F 	0.59345 0.95689 0.93885 -0.38100
F 	F 	0.68200 0.12027 0.93396 -0.38200
F 	F 	0.36639 0.96810 0.98137 -0.38200
F 	F 	0.45683 0.13132 0.97695 -0.38000
C 	C 	0.39083 0.44446 0.98319 0.27700
C 	C 	0.45226 0.52029 0.99078 -0.19900
C 	C 	0.54754 0.54512 0.99171 0.27200
C 	C 	0.58225 0.49963 0.98278 0.26700
C 	C 	0.52211 0.42952 0.97271 -0.19900
C 	C 	0.42570 0.39971 0.97389 0.28400
F 	F 	0.36614 0.32860 0.96555 -0.37000
F 	F 	0.29780 0.41679 0.98363 -0.35500
F 	F 	0.67518 0.52671 0.98272 -0.40400
C 	C 	0.61013 0.24492 0.86789 -0.07600
C 	C 	0.51597 0.21716 0.86371 0.01600
C 	C 	0.48282 0.19257 0.84458 -0.05900
C 	C 	0.54382 0.19681 0.82947 0.02700
C 	C 	0.63759 0.22432 0.83365 -0.06100
C 	C 	0.67041 0.24755 0.85276 0.01700
C 	C 	0.50897 0.16596 0.80968 0.00400
C 	C 	0.47753 0.08488 0.80592 -0.03800
C 	C 	0.48845 0.06160 0.78700 -0.03400
C 	C 	0.52965 0.11939 0.77173 -0.00500
C 	C 	0.54297 0.19675 0.77465 -0.03700
C 	C 	0.53297 0.22012 0.79366 -0.03900
C 	C 	0.57883 0.10491 0.75527 0.03400
C 	C 	0.53285 0.03411 0.74439 -0.08600
C 	C 	0.58424 0.00701 0.73361 -0.00400
C 	C 	0.68179 0.05149 0.73326 -0.08100
C 	C 	0.72711 0.12669 0.74218 0.01600
C 	C 	0.67593 0.15330 0.75321 -0.06700
H 	H 	0.46907 0.21632 0.87514 0.03900
H 	H 	0.40998 0.17027 0.84152 0.05200
H 	H 	0.68481 0.22666 0.82209 0.05100
H 	H 	0.74302 0.26846 0.85575 0.05200
H 	H 	0.45480 0.04174 0.81808 0.04800
H 	H 	0.47386 0.00064 0.78475 0.03900
H 	H 	0.56977 0.24080 0.76269 0.03800
H 	H 	0.55323 0.28219 0.79626 0.04000
H 	H 	0.45782 0.99740 0.74539 0.06900
H 	H 	0.54852 0.94967 0.72631 0.04400
H 	H 	0.80236 0.16207 0.74170 0.03100
H 	H 	0.71233 0.20865 0.76131 0.04700
C 	C 	0.38921 0.32968 0.78490 -0.03600
C 	C 	0.45644 0.37945 0.79838 -0.03900
C 	C 	0.44224 0.36151 0.81874 0.00400
C 	C 	0.36073 0.29335 0.82550 -0.03600
C 	C 	0.51371 0.41185 0.83305 0.02500
C 	C 	0.59740 0.40998 0.83383 -0.06100
C 	C 	0.64815 0.43000 0.85133 0.00800
C 	C 	0.61405 0.45004 0.86815 -0.08100
C 	C 	0.53988 0.46539 0.86621 0.01900
C 	C 	0.48994 0.44660 0.84864 -0.06100
H 	H 	0.51948 0.43156 0.79301 0.04000
H 	H 	0.34985 0.27836 0.84117 0.04800
H 	H 	0.61881 0.38660 0.82155 0.04600
H 	H 	0.70849 0.42214 0.85238 0.03500
H 	H 	0.51616 0.48535 0.87882 0.04800
H 	H 	0.42787 0.45203 0.84781 0.06000
C 	C 	0.74203 0.81034 0.77914 -0.08400
C 	C 	0.79086 0.86657 0.79383 0.02200
C 	C 	0.77708 0.84331 0.81381 -0.06300
C 	C 	0.71406 0.76360 0.81935 0.03300
C 	C 	0.66039 0.70871 0.80478 -0.06400
C 	C 	0.67431 0.73199 0.78475 0.01900
C 	C 	0.71329 0.73550 0.83989 0.00200
C 	C 	0.69737 0.77346 0.85598 -0.02800
C 	C 	0.71122 0.75552 0.87539 -0.03300
C 	C 	0.74111 0.69966 0.87883 0.01100
C 	C 	0.75316 0.65935 0.86283 -0.03600
C 	C 	0.73872 0.67673 0.84348 -0.03100
C 	C 	0.76575 0.68675 0.89894 0.03300
C 	C 	0.69663 0.63081 0.91184 -0.04700
C 	C 	0.72128 0.59748 0.92762 0.01800
C 	C 	0.81457 0.61703 0.92986 -0.05700
C 	C 	0.88399 0.68314 0.91923 0.02100
C 	C 	0.85964 0.71749 0.90367 -0.04800
H 	H 	0.84208 0.92759 0.78971 0.04200
H 	H 	0.81849 0.88632 0.82492 0.05800
H 	H 	0.61066 0.64727 0.80890 0.05100
H 	H 	0.63563 0.68814 0.77358 0.03900
H 	H 	0.67684 0.81834 0.85340 0.05600
H 	H 	0.70113 0.78653 0.88767 0.06600
H 	H 	0.77641 0.61624 0.86536 0.05600
H 	H 	0.75094 0.64686 0.83122 0.04300
H 	H 	0.62382 0.60842 0.90871 0.06300
H 	H 	0.66707 0.54978 0.93653 0.05500
H 	H 	0.95662 0.70166 0.92147 0.06300
H 	H 	0.91370 0.76299 0.89424 0.06400
