data_crystal

_cell_length_a 23.82602
_cell_length_b 23.04351
_cell_length_c 65.50358
_cell_angle_alpha 90.46838
_cell_angle_beta  90.98192
_cell_angle_gamma 110.47487

_symmetry_space_group_name_	'P 1'
_symmetry_space_group_name_H-M	'P 1'

loop_
_symmetry_equiv_pos_as_xyz
  x,y,z

loop_
_atom_site_label
_atom_site_type_symbol
_atom_site_fract_x
_atom_site_fract_y
_atom_site_fract_z
_atom_site_charge
O 	O 	0.72298 0.38402 0.61826 -0.69900
O 	O 	0.61213 0.29308 0.61640 -0.38500
Ni	Ni	0.77306 0.47102 0.62004 1.06800
H 	H 	0.70923 0.37249 0.60395 0.15800
C 	C 	0.64824 0.47235 0.61955 0.30100
C 	C 	0.58890 0.23341 0.61947 0.32300
Ni	Ni	0.39033 0.78470 0.40881 1.10100
O 	O 	0.37189 0.71793 0.38598 -0.69600
Ni	Ni	0.28707 0.71169 0.37859 1.10100
O 	O 	0.46120 0.76811 0.42258 -0.35500
O 	O 	0.44913 0.67094 0.41146 -0.39600
O 	O 	0.45111 0.84923 0.39101 -0.35100
Ni	Ni	0.36668 0.63642 0.39638 1.07300
O 	O 	0.38228 0.91710 0.40657 -0.38900
O 	O 	0.32208 0.65029 0.42124 -0.42100
O 	O 	0.26585 0.63858 0.35857 -0.35100
O 	O 	0.31032 0.78375 0.39882 -0.71000
O 	O 	0.40231 0.85289 0.42993 -0.36600
O 	O 	0.20874 0.72569 0.37119 -0.34700
O 	O 	0.26069 0.82467 0.36141 -0.39400
Ni	Ni	0.32165 0.86246 0.38549 1.07000
H 	H 	0.39863 0.73036 0.37417 0.16900
H 	H 	0.28186 0.77700 0.41015 0.15800
C 	C 	0.26669 0.64962 0.41966 0.29100
O 	O 	0.38559 0.85651 0.36618 -0.40400
C 	C 	0.45944 0.71181 0.42636 0.31000
C 	C 	0.27228 0.58657 0.36406 0.30800
C 	C 	0.44025 0.86367 0.37235 0.31200
C 	C 	0.20949 0.77835 0.36336 0.29400
C 	C 	0.38616 0.90067 0.42574 0.29500
O 	O 	0.24247 0.65355 0.40162 -0.35900
O 	O 	0.28868 0.58049 0.38296 -0.40600
Ni	Ni	0.30055 0.65623 0.13509 1.10100
O 	O 	0.23426 0.64091 0.11342 -0.70600
Ni	Ni	0.18086 0.67925 0.12695 1.10200
O 	O 	0.34516 0.61333 0.11746 -0.35900
O 	O 	0.26202 0.52613 0.11450 -0.39400
O 	O 	0.34605 0.73859 0.12077 -0.36400
Ni	Ni	0.18857 0.55314 0.10894 1.07500
O 	O 	0.37215 0.77542 0.15828 -0.40000
O 	O 	0.16763 0.53974 0.13903 -0.39300
O 	O 	0.12308 0.66665 0.10270 -0.36200
O 	O 	0.24190 0.68502 0.15033 -0.69600
O 	O 	0.36638 0.67493 0.15710 -0.36300
O 	O 	0.14055 0.73825 0.13859 -0.34400
O 	O 	0.20504 0.78125 0.16526 -0.39000
Ni	Ni	0.28542 0.77118 0.15846 1.07800
H 	H 	0.24910 0.66129 0.10034 0.15700
H 	H 	0.22489 0.65846 0.16212 0.17900
C 	C 	0.12380 0.55478 0.14644 0.31000
O 	O 	0.28817 0.79680 0.12867 -0.42000
C 	C 	0.31592 0.55973 0.10855 0.30200
C 	C 	0.10480 0.61318 0.09270 0.29500
C 	C 	0.32142 0.77987 0.11562 0.28500
C 	C 	0.16526 0.78436 0.15165 0.31300
C 	C 	0.38956 0.73081 0.16514 0.31100
O 	O 	0.11661 0.60669 0.14104 -0.35100
O 	O 	0.10883 0.56302 0.10131 -0.38800
Ni	Ni	0.03320 0.05509 0.27889 1.08700
O 	O 	0.08038 0.08405 0.25282 -0.35900
O 	O 	0.05008 0.19702 0.26561 -0.34900
C 	C 	0.05392 0.07941 0.23489 0.31200
C 	C 	0.06896 0.19344 0.28451 0.30500
O 	O 	0.01892 0.11097 0.23106 -0.36400
O 	O 	0.06996 0.14057 0.29223 -0.37500
C 	C 	0.07895 0.51079 0.15949 -0.08600
C 	C 	0.05822 0.44637 0.15533 0.14800
C 	C 	0.01960 0.40553 0.16886 -0.06200
C 	C 	0.99731 0.42808 0.18568 0.00000
C 	C 	0.01354 0.49254 0.18874 0.10600
C 	C 	0.05524 0.53346 0.17595 -0.01700
H 	H 	0.00665 0.35601 0.16626 0.09000
C 	C 	0.96337 0.38405 0.20126 0.03800
H 	H 	0.06920 0.58292 0.17884 0.08500
C 	C 	0.99039 0.38371 0.22042 -0.09400
C 	C 	0.96843 0.33234 0.23301 0.15300
H 	H 	0.03035 0.42194 0.22507 0.10500
Br	Br	0.97764 0.52550 0.20977 -0.18800
Br	Br	0.07689 0.41329 0.13036 -0.24300
Br	Br	0.00464 0.33455 0.25949 -0.19800
C 	C 	0.44628 0.74771 0.17686 -0.09500
C 	C 	0.44966 0.71935 0.19561 0.14500
C 	C 	0.50215 0.74151 0.20767 -0.07700
C 	C 	0.55079 0.79255 0.20138 0.02400
C 	C 	0.54797 0.81955 0.18237 0.08400
C 	C 	0.49616 0.79663 0.17015 -0.00800
H 	H 	0.50441 0.72033 0.22223 0.09300
C 	C 	0.60355 0.81936 0.21505 0.02400
H 	H 	0.49405 0.81802 0.15561 0.07300
C 	C 	0.65609 0.80748 0.21097 -0.07600
C 	C 	0.71133 0.84703 0.21879 0.15300
C 	C 	0.71362 0.89710 0.23176 -0.07900
C 	C 	0.66009 0.90364 0.23796 -0.01100
C 	C 	0.60518 0.86552 0.22949 0.09000
H 	H 	0.65466 0.77082 0.20027 0.09000
H 	H 	0.66147 0.94091 0.24839 0.06300
Br	Br	0.61360 0.88960 0.17321 -0.20600
Br	Br	0.38214 0.65285 0.20554 -0.21600
Br	Br	0.53353 0.88069 0.23644 -0.18500
C 	C 	0.06714 0.04281 0.21831 -0.10000
C 	C 	0.12553 0.04229 0.21542 0.14800
C 	C 	0.13485 0.00172 0.20097 -0.06300
C 	C 	0.08716 0.96401 0.18858 0.01500
C 	C 	0.03005 0.96845 0.19031 0.08300
C 	C 	0.02009 0.00695 0.20531 0.00500
H 	H 	0.17920 0.99933 0.19939 0.08100
C 	C 	0.09586 0.91524 0.17566 0.03200
C 	C 	0.07193 0.85337 0.18175 -0.08200
C 	C 	0.08888 0.80803 0.17208 0.15500
C 	C 	0.13167 0.82484 0.15661 -0.09400
C 	C 	0.15132 0.88548 0.14926 -0.01300
C 	C 	0.13316 0.93066 0.15860 0.07700
H 	H 	0.04193 0.84097 0.19453 0.09500
H 	H 	0.18305 0.89825 0.13697 0.05700
Br	Br	0.19383 0.10006 0.22959 -0.17400
Br	Br	0.05597 0.72389 0.18104 -0.18600
Br	Br	0.16028 0.01317 0.14809 -0.19000
C 	C 	0.73283 0.99968 0.28989 -0.10600
C 	C 	0.71326 0.93782 0.29679 0.14500
C 	C 	0.66586 0.91739 0.31038 -0.07600
C 	C 	0.63476 0.95626 0.31618 0.01600
C 	C 	0.65214 0.01680 0.30855 0.09100
C 	C 	0.70146 0.03854 0.29578 -0.00400
H 	H 	0.65208 0.87049 0.31603 0.08900
C 	C 	0.58436 0.93330 0.33042 0.02700
H 	H 	0.71536 0.08576 0.29046 0.07300
C 	C 	0.59198 0.95508 0.35070 -0.08200
C 	C 	0.54478 0.93424 0.36438 0.14900
C 	C 	0.49019 0.88820 0.35807 -0.09700
C 	C 	0.48278 0.86625 0.33778 -0.01100
C 	C 	0.52915 0.88914 0.32391 0.08100
H 	H 	0.63420 0.98949 0.35572 0.08800
H 	H 	0.44081 0.83146 0.33276 0.06700
Br	Br	0.60806 0.07000 0.31494 -0.18900
Br	Br	0.55419 0.97350 0.39085 -0.20200
Br	Br	0.51564 0.86078 0.29600 -0.18300
C 	C 	0.24285 0.53009 0.35164 -0.09100
C 	C 	0.24911 0.52987 0.33026 0.14800
C 	C 	0.21997 0.47560 0.31890 -0.07900
C 	C 	0.18635 0.42098 0.32872 0.02500
C 	C 	0.18219 0.42054 0.35012 0.08700
C 	C 	0.20915 0.47517 0.36139 -0.01000
H 	H 	0.22419 0.47564 0.30245 0.09300
C 	C 	0.15648 0.36415 0.31657 0.02600
H 	H 	0.20419 0.47483 0.37781 0.07400
C 	C 	0.19022 0.32955 0.30929 -0.08000
C 	C 	0.16206 0.27353 0.29878 0.15200
C 	C 	0.09935 0.25116 0.29591 -0.08500
C 	C 	0.06570 0.28582 0.30316 -0.00600
C 	C 	0.09408 0.34289 0.31299 0.09400
H 	H 	0.23835 0.34616 0.31184 0.08600
Br	Br	0.14105 0.34534 0.36426 -0.19900
Br	Br	0.30055 0.60142 0.31641 -0.20800
Br	Br	0.21015 0.22940 0.28786 -0.18500
C 	C 	0.15447 0.78321 0.35384 -0.09000
C 	C 	0.11356 0.73390 0.34217 0.14700
C 	C 	0.06634 0.74346 0.33134 -0.07400
C 	C 	0.06271 0.80284 0.33034 0.01800
C 	C 	0.10255 0.85146 0.34229 0.08700
C 	C 	0.14655 0.84078 0.35447 -0.01600
H 	H 	0.03510 0.70570 0.32244 0.09500
C 	C 	0.02153 0.81538 0.31523 0.03600
H 	H 	0.17692 0.87848 0.36363 0.04800
C 	C 	0.03520 0.82006 0.29432 0.07800
Br	Br	0.10079 0.93411 0.34100 -0.22600
Br	Br	0.12442 0.65553 0.33877 -0.17500
Br	Br	0.09883 0.79582 0.28397 -0.18600
C 	C 	0.38852 0.01071 0.47482 0.02100
C 	C 	0.35040 0.98288 0.49078 -0.05400
C 	C 	0.36076 0.01001 0.51029 -0.01500
C 	C 	0.40914 0.06529 0.51389 0.00100
C 	C 	0.44392 0.09587 0.49749 -0.02900
C 	C 	0.43360 0.06860 0.47800 -0.03700
C 	C 	0.42809 0.08684 0.53496 0.01800
C 	C 	0.45211 0.05231 0.54772 -0.04000
C 	C 	0.47923 0.07728 0.56644 -0.02400
C 	C 	0.48238 0.13677 0.57250 -0.00100
C 	C 	0.45509 0.16965 0.56036 -0.02400
C 	C 	0.42812 0.14482 0.54162 -0.04100
C 	C 	0.52005 0.16739 0.58959 0.05900
C 	C 	0.55103 0.19547 0.60369 -0.08900
C 	C 	0.38877 0.97481 0.45680 0.03700
C 	C 	0.38728 0.94287 0.44202 -0.09100
H 	H 	0.31495 0.93844 0.48837 0.04800
H 	H 	0.33301 0.98662 0.52278 0.03800
H 	H 	0.48095 0.13902 0.50008 0.04600
H 	H 	0.46287 0.09073 0.46568 0.05600
H 	H 	0.45200 0.00731 0.54274 0.05100
H 	H 	0.49993 0.05145 0.57580 0.05100
H 	H 	0.45698 0.21552 0.56505 0.05100
H 	H 	0.40915 0.17152 0.53196 0.04900
C 	C 	0.15794 0.58908 0.46840 -0.00300
C 	C 	0.18304 0.58829 0.48786 -0.02800
C 	C 	0.14591 0.56415 0.50436 -0.04000
C 	C 	0.08339 0.54072 0.50149 0.01300
C 	C 	0.05836 0.54183 0.48200 -0.03900
C 	C 	0.09555 0.56590 0.46551 -0.02600
C 	C 	0.19627 0.61112 0.45121 0.04800
C 	C 	0.22829 0.62955 0.43682 -0.09600
H 	H 	0.23125 0.60590 0.49019 0.04300
H 	H 	0.16568 0.56345 0.51933 0.04800
H 	H 	0.07585 0.56620 0.45049 0.05200
C 	C 	0.51966 0.67527 0.48165 -0.00500
C 	C 	0.48794 0.67981 0.49906 -0.02700
C 	C 	0.50343 0.66174 0.51802 -0.04100
C 	C 	0.55077 0.63902 0.51968 0.01200
C 	C 	0.58357 0.63617 0.50234 -0.04000
C 	C 	0.56803 0.65426 0.48338 -0.02700
C 	C 	0.56390 0.61504 0.53929 0.01200
C 	C 	0.52161 0.56218 0.54766 -0.04000
C 	C 	0.53624 0.53576 0.56517 -0.02600
C 	C 	0.59317 0.56199 0.57440 -0.00500
C 	C 	0.63457 0.61620 0.56654 -0.02800
C 	C 	0.62000 0.64267 0.54903 -0.04000
C 	C 	0.61125 0.52999 0.59056 0.05200
C 	C 	0.62718 0.50384 0.60409 -0.10900
C 	C 	0.50003 0.68831 0.46189 0.05300
C 	C 	0.48262 0.69952 0.44553 -0.10000
H 	H 	0.45058 0.69619 0.49783 0.04400
H 	H 	0.47811 0.66447 0.53135 0.04800
H 	H 	0.62018 0.61865 0.50347 0.04500
H 	H 	0.59278 0.65072 0.46998 0.04700
H 	H 	0.47810 0.54063 0.54027 0.04700
H 	H 	0.50398 0.49391 0.57119 0.05000
H 	H 	0.67862 0.63683 0.57364 0.04200
H 	H 	0.65272 0.68381 0.54278 0.04700
C 	C 	0.00123 0.58961 0.04107 0.00300
C 	C 	0.02811 0.60658 0.02212 -0.01200
C 	C 	0.03781 0.59871 0.05931 0.05200
C 	C 	0.06828 0.60624 0.07463 -0.09400
H 	H 	0.91819 0.54542 0.05663 0.05300
H 	H 	0.07602 0.63086 0.02129 0.03900
C 	C 	0.52899 0.00603 0.00998 -0.01800
C 	C 	0.46640 0.98385 0.01190 -0.00100
C 	C 	0.43853 0.94779 0.02998 0.02000
C 	C 	0.44511 0.89066 0.03385 -0.04400
C 	C 	0.41905 0.85672 0.05101 -0.02500
C 	C 	0.38620 0.87958 0.06442 -0.00500
C 	C 	0.37914 0.93639 0.06051 -0.02200
C 	C 	0.40520 0.97041 0.04334 -0.05100
C 	C 	0.36187 0.84578 0.08263 0.04800
C 	C 	0.34224 0.81619 0.09769 -0.09600
H 	H 	0.55719 0.99694 0.02176 0.03900
H 	H 	0.47038 0.87257 0.02358 0.04700
H 	H 	0.42476 0.81287 0.05394 0.04400
H 	H 	0.35397 0.95448 0.07083 0.04700
H 	H 	0.39988 0.01448 0.04051 0.05800
C 	C 	0.38279 0.50614 0.05792 -0.00600
C 	C 	0.42340 0.55081 0.04585 -0.02700
C 	C 	0.44103 0.53358 0.02721 -0.04100
C 	C 	0.41815 0.47152 0.02055 0.01200
C 	C 	0.37856 0.42664 0.03288 -0.04000
C 	C 	0.36091 0.44395 0.05150 -0.02700
C 	C 	0.43555 0.45356 0.00069 0.01200
C 	C 	0.35982 0.52481 0.07597 0.05300
C 	C 	0.34054 0.54040 0.09110 -0.11000
H 	H 	0.44041 0.59901 0.05072 0.04500
H 	H 	0.47176 0.56850 0.01781 0.04600
H 	H 	0.36118 0.37850 0.02796 0.04900
H 	H 	0.32946 0.40922 0.06077 0.04900
H 	H 	0.52946 0.48054 0.00907 0.04700
Br	Br	0.78314 0.83556 0.20977 -0.18900
Br	Br	0.74658 0.87865 0.28668 -0.19200
C 	C 	0.77041 0.94817 0.23590 0.29500
C 	C 	0.78561 0.02409 0.27653 0.31200
O 	O 	0.85159 0.46030 0.61187 -0.40300
O 	O 	0.79159 0.07394 0.26584 -0.39500
O 	O 	0.83269 0.35706 0.60536 -0.36100
C 	C 	0.85452 0.41543 0.59962 0.29200
O 	O 	0.77896 0.00105 0.22625 -0.38600
O 	O 	0.81599 0.93454 0.24374 -0.34500
Br	Br	0.83729 0.14959 0.61150 -0.21600
O 	O 	0.83285 0.00880 0.28047 -0.35500
Ni	Ni	0.82565 0.08850 0.23712 1.07700
C 	C 	0.89425 0.43173 0.58267 -0.09800
C 	C 	0.92770 0.44828 0.56854 0.04900
Ni	Ni	0.88843 0.99755 0.25841 1.10000
Br	Br	0.88927 0.89534 0.32023 -0.21000
O 	O 	0.90088 0.92728 0.27509 -0.33200
O 	O 	0.86727 0.18369 0.24310 -0.39200
H 	H 	0.85100 0.24329 0.20309 0.05200
O 	O 	0.89873 0.06998 0.24040 -0.70100
C 	C 	0.96863 0.47053 0.55203 -0.01100
H 	H 	0.90868 0.05851 0.22670 0.16300
H 	H 	0.00803 0.56299 0.56484 0.04700
H 	H 	0.93810 0.38348 0.53530 0.04900
C 	C 	0.00742 0.53240 0.55212 -0.01700
C 	C 	0.96801 0.43135 0.53548 -0.03700
Br	Br	0.86459 0.33975 0.17175 -0.19900
H 	H 	0.94294 0.07923 0.28562 0.16400
C 	C 	0.88927 0.28283 0.20814 -0.01100
C 	C 	0.95467 0.92353 0.27682 0.28500
C 	C 	0.91642 0.21806 0.23380 0.29200
C 	C 	0.94640 0.86283 0.30905 0.14600
C 	C 	0.96469 0.87349 0.28858 -0.10200
H 	H 	0.85693 0.51666 0.02488 0.04800
O 	O 	0.95733 0.06662 0.27282 -0.70200
C 	C 	0.92128 0.27926 0.22597 -0.09400
C 	C 	0.90966 0.33547 0.19589 0.07800
C 	C 	0.93177 0.55698 0.00502 0.01900
C 	C 	0.04500 0.55524 0.53565 -0.04100
C 	C 	0.00568 0.45413 0.51899 -0.02800
C 	C 	0.90458 0.54224 0.02404 -0.04100
Ni	Ni	0.97212 0.13595 0.25321 1.10000
H 	H 	0.96102 0.82572 0.33792 0.08700
C 	C 	0.97352 0.83184 0.32204 -0.09200
H 	H 	0.01016 0.52428 0.47964 0.05000
H 	H 	0.07439 0.60330 0.53577 0.04800
O 	O 	0.00024 0.96466 0.26794 -0.40000
O 	O 	0.96460 0.20261 0.23411 -0.35800
H 	H 	0.00493 0.42358 0.50625 0.04900
C 	C 	0.00512 0.84694 0.28102 0.00200
C 	C 	0.04415 0.51629 0.51898 0.01100
H 	H 	0.01741 0.85247 0.26511 0.07200
H 	H 	0.01744 0.26868 0.30095 0.06800
C 	C 	0.99348 0.59031 0.00413 -0.06500
H 	H 	0.97542 0.00831 0.20708 0.04300
Br	Br	0.04716 0.39171 0.32111 -0.16800
C 	C 	0.93925 0.55853 0.04201 -0.03400
Br	Br	0.96520 0.92260 0.17218 -0.20300
O 	O 	0.61518 0.41570 0.62457 -0.35200
O 	O 	0.70201 0.49901 0.62774 -0.40000
Ni	Ni	0.77152 0.33372 0.62802 1.10300
Ni	Ni	0.65346 0.35832 0.63830 1.10300
O 	O 	0.70642 0.19532 0.63762 -0.40500
O 	O 	0.58786 0.21090 0.63783 -0.38200
O 	O 	0.80193 0.26453 0.63720 -0.34900
C 	C 	0.82069 0.13443 0.63992 0.15400
C 	C 	0.76435 0.20802 0.64020 0.30500
H 	H 	0.87005 0.07212 0.64218 0.08600
O 	O 	0.83613 0.39375 0.64720 -0.34900
Br	Br	0.45099 0.22766 0.64834 -0.20600
O 	O 	0.70884 0.31835 0.65033 -0.69900
O 	O 	0.78877 0.46340 0.65034 -0.41200
C 	C 	0.78591 0.16297 0.65039 -0.10400
H 	H 	0.89100 0.56260 0.65029 0.04800
C 	C 	0.84320 0.09395 0.65026 -0.08300
O 	O 	0.58017 0.32625 0.65693 -0.35100
C 	C 	0.83058 0.44243 0.65636 0.31700
Ni	Ni	0.66080 0.23340 0.65727 1.07900
H 	H 	0.72716 0.34099 0.66305 0.17400
C 	C 	0.90526 0.54592 0.66416 -0.00200
C 	C 	0.88049 0.48310 0.66904 -0.10000
C 	C 	0.77367 0.15036 0.67107 -0.00600
C 	C 	0.83161 0.08202 0.67103 0.02500
Br	Br	0.97197 0.67468 0.67143 -0.21100
C 	C 	0.57479 0.28916 0.67277 0.31400
Br	Br	0.74479 0.94185 0.67441 -0.19700
C 	C 	0.46355 0.24498 0.67713 0.14800
O 	O 	0.61721 0.26698 0.67796 -0.40100
C 	C 	0.94577 0.58789 0.67754 0.07900
C 	C 	0.52150 0.27490 0.68558 -0.09200
H 	H 	0.37018 0.19937 0.68344 0.08900
H 	H 	0.74717 0.17251 0.67920 0.03100
C 	C 	0.79683 0.11066 0.68147 0.08600
C 	C 	0.85826 0.04184 0.68201 0.03300
H 	H 	0.94443 0.11434 0.68618 0.09000
C 	C 	0.82348 0.98005 0.68634 0.07800
C 	C 	0.90096 0.46118 0.68665 0.15400
C 	C 	0.41425 0.22464 0.68992 -0.08100
C 	C 	0.91708 0.06723 0.68982 -0.08500
Br	Br	0.86836 0.37541 0.69390 -0.21800
C 	C 	0.96407 0.56674 0.69572 0.03000
H 	H 	0.08355 0.63203 0.69755 0.08700
C 	C 	0.84587 0.94618 0.69982 0.00100
C 	C 	0.94362 0.50302 0.69971 -0.08200
C 	C 	0.93977 0.03313 0.70311 0.15500
H 	H 	0.81805 0.89952 0.70379 0.07800
C 	C 	0.52874 0.28694 0.70669 -0.00900
Br	Br	0.15961 0.76123 0.70842 -0.22700
C 	C 	0.90327 0.97308 0.70873 -0.10500
C 	C 	0.05774 0.64792 0.70828 -0.05700
C 	C 	0.42191 0.23372 0.71113 0.02700
Br	Br	0.78192 0.09747 0.71009 -0.19100
C 	C 	0.99767 0.61163 0.71164 0.00500
H 	H 	0.57299 0.31105 0.71323 0.07100
Br	Br	0.01971 0.07050 0.71415 -0.25400
H 	H 	0.95820 0.48648 0.71354 0.09300
Br	Br	0.32126 0.29517 0.71501 -0.18100
C 	C 	0.08120 0.70848 0.71621 0.14300
C 	C 	0.47922 0.26686 0.71946 0.08400
O 	O 	0.96105 0.91469 0.72238 -0.36600
H 	H 	0.07207 0.96310 0.72434 0.18000
C 	C 	0.37178 0.20049 0.72451 0.02600
C 	C 	0.32023 0.21697 0.72519 0.08700
C 	C 	0.92177 0.94165 0.72562 0.31700
O 	O 	0.01478 0.81920 0.72616 -0.35500
C 	C 	0.96617 0.63039 0.72681 0.09800
C 	C 	0.04522 0.73111 0.72847 -0.07000
O 	O 	0.19827 0.01569 0.73048 -0.38000
C 	C 	0.05791 0.79793 0.73071 0.29100
H 	H 	0.22659 0.18675 0.73234 0.08800
C 	C 	0.26704 0.17540 0.73299 -0.00800
C 	C 	0.37151 0.14595 0.73387 -0.07500
H 	H 	0.41171 0.13409 0.73404 0.09500
Br	Br	0.88707 0.57835 0.73423 -0.20100
C 	C 	0.99039 0.68993 0.73530 -0.02600
O 	O 	0.07645 0.94792 0.73816 -0.70300
Ni	Ni	0.14855 0.92702 0.73815 1.08400
Br	Br	0.80447 0.71425 0.73849 -0.17900
C 	C 	0.26493 0.11728 0.74008 -0.07800
O 	O 	0.10451 0.83173 0.74207 -0.38100
C 	C 	0.20643 0.06661 0.74164 0.30000
C 	C 	0.31862 0.10456 0.74176 0.14600
O 	O 	0.89054 0.93034 0.74229 -0.37800
Ni	Ni	0.99873 0.88064 0.74567 1.09600
H 	H 	0.96421 0.70600 0.74585 0.06800
Br	Br	0.49067 0.28483 0.74821 -0.18200
O 	O 	0.15998 0.08049 0.74835 -0.34000
O 	O 	0.91660 0.81719 0.75252 -0.36000
Br	Br	0.32036 0.02981 0.75399 -0.21700
Ni	Ni	0.08149 0.01560 0.75798 1.11400
O 	O 	0.96775 0.04666 0.76336 -0.39800
H 	H 	0.76914 0.60559 0.76537 0.09700
C 	C 	0.82239 0.70282 0.76658 0.14900
O 	O 	0.00710 0.94423 0.76743 -0.69000
O 	O 	0.17503 0.93657 0.76820 -0.38100
C 	C 	0.89082 0.81440 0.77042 0.30200
Ni	Ni	0.92966 0.95392 0.77066 1.07700
O 	O 	0.06382 0.08137 0.77565 -0.33400
C 	C 	0.00951 0.08415 0.77551 0.33000
C 	C 	0.79567 0.64415 0.77504 -0.07600
Br	Br	0.07462 0.23063 0.77728 -0.17800
C 	C 	0.85784 0.75305 0.77909 -0.09300
C 	C 	0.17608 0.98314 0.78011 0.30300
H 	H 	0.01699 0.92751 0.78033 0.15900
O 	O 	0.89111 0.86512 0.78040 -0.39400
O 	O 	0.12727 0.99639 0.78218 -0.36700
C 	C 	0.99124 0.11507 0.79252 -0.13400
C 	C 	0.01199 0.18013 0.79428 0.18200
Br	Br	0.20764 0.12520 0.79477 -0.18900
C 	C 	0.22406 0.00513 0.79602 -0.07100
Br	Br	0.44041 0.13101 0.79711 -0.17800
C 	C 	0.80087 0.63561 0.79606 0.02400
H 	H 	0.23708 0.91695 0.79780 0.08000
C 	C 	0.86317 0.74416 0.80011 -0.01500
Br	Br	0.66129 0.60481 0.80149 -0.19500
C 	C 	0.24504 0.06743 0.80310 0.14200
C 	C 	0.25339 0.96508 0.80273 -0.01500
H 	H 	0.85405 0.21319 0.80326 0.09000
C 	C 	0.76949 0.57418 0.80494 0.02600
H 	H 	0.93161 0.02921 0.80458 0.00700
H 	H 	0.84913 0.55011 0.80676 0.09000
C 	C 	0.94681 0.07934 0.80560 0.00700
C 	C 	0.98507 0.20874 0.80805 -0.10300
C 	C 	0.83439 0.68610 0.80865 0.08500
H 	H 	0.99948 0.25884 0.80883 0.09300
C 	C 	0.70824 0.55563 0.80949 0.08600
C 	C 	0.80227 0.53661 0.81062 -0.07700
H 	H 	0.88996 0.78244 0.80985 0.06200
Br	Br	0.75167 0.25086 0.81446 -0.19400
C 	C 	0.30512 0.98738 0.81508 0.08500
C 	C 	0.29544 0.08880 0.81610 -0.07400
C 	C 	0.85624 0.21721 0.81978 -0.07800
C 	C 	0.68150 0.50216 0.82084 -0.01100
C 	C 	0.93732 0.17285 0.81998 0.03800
C 	C 	0.91930 0.10777 0.81910 0.07400
C 	C 	0.32664 0.04971 0.82164 0.02900
H 	H 	0.31145 0.13656 0.82145 0.08800
Br	Br	0.34731 0.93268 0.82204 -0.19300
C 	C 	0.77612 0.48417 0.82253 0.15400
C 	C 	0.43543 0.11420 0.82583 0.08300
H 	H 	0.63487 0.48933 0.82491 0.05100
C 	C 	0.71561 0.46765 0.82819 -0.08900
C 	C 	0.81279 0.23338 0.83004 0.15300
H 	H 	0.52658 0.17349 0.83197 0.06300
C 	C 	0.90057 0.20285 0.83076 0.01900
Br	Br	0.82536 0.43912 0.83222 -0.18400
C 	C 	0.38190 0.07459 0.83428 0.02700
Br	Br	0.85422 0.05679 0.83514 -0.20500
C 	C 	0.48598 0.14165 0.83842 -0.01100
Br	Br	0.84032 0.67699 0.83765 -0.20700
O 	O 	0.69533 0.36778 0.84362 -0.35400
C 	C 	0.69117 0.42311 0.84464 0.30600
C 	C 	0.81343 0.23520 0.85154 -0.08500
C 	C 	0.90428 0.20991 0.85218 0.09200
C 	C 	0.38036 0.06077 0.85511 -0.08100
C 	C 	0.48397 0.12922 0.85938 -0.09800
H 	H 	0.33953 0.02942 0.86157 0.09000
O 	O 	0.67819 0.44397 0.86204 -0.39400
C 	C 	0.76310 0.24269 0.86249 0.29500
C 	C 	0.86027 0.22532 0.86250 -0.01500
O 	O 	0.71396 0.19355 0.86426 -0.38600
O 	O 	0.76121 0.29889 0.86438 -0.34500
H 	H 	0.56995 0.28954 0.86489 0.16600
O 	O 	0.58944 0.16450 0.86763 -0.40100
C 	C 	0.43143 0.08661 0.86758 0.15200
Ni	Ni	0.68266 0.31416 0.86904 1.10200
Br	Br	0.96820 0.19719 0.86755 -0.20500
C 	C 	0.53586 0.16270 0.87264 0.31000
O 	O 	0.59949 0.31193 0.87563 -0.69700
Ni	Ni	0.60426 0.39872 0.87860 1.07300
H 	H 	0.86176 0.22823 0.87904 0.05400
O 	O 	0.73051 0.39048 0.88686 -0.35600
O 	O 	0.52758 0.18801 0.88983 -0.35400
Ni	Ni	0.65580 0.17565 0.88892 1.07100
O 	O 	0.52605 0.37581 0.89512 -0.39100
O 	O 	0.66772 0.26243 0.89474 -0.71100
Br	Br	0.42975 0.05951 0.89531 -0.20300
Ni	Ni	0.58907 0.26624 0.90305 1.10000
C 	C 	0.71005 0.40612 0.90388 0.29000
O 	O 	0.65575 0.40853 0.90448 -0.41700
H 	H 	0.69890 0.27965 0.90553 0.15900
O 	O 	0.59517 0.13566 0.91133 -0.38600
C 	C 	0.51991 0.34681 0.91255 0.30900
O 	O 	0.51867 0.28960 0.91302 -0.35800
C 	C 	0.75099 0.43273 0.92051 -0.09800
O 	O 	0.58430 0.21759 0.92908 -0.37400
C 	C 	0.58904 0.16223 0.92882 0.30000
C 	C 	0.49949 0.37131 0.92989 -0.09900
C 	C 	0.78448 0.45572 0.93467 0.04900
C 	C 	0.56709 0.12328 0.94612 -0.08400
C 	C 	0.48419 0.39116 0.94503 0.05500
H 	H 	0.88110 0.43023 0.94724 0.04600
H 	H 	0.37435 0.38872 0.95490 0.05000
C 	C 	0.82379 0.48390 0.95166 -0.00300
C 	C 	0.87211 0.46493 0.95656 -0.02800
C 	C 	0.54631 0.09145 0.96063 0.05100
H 	H 	0.77533 0.54393 0.95998 0.04600
C 	C 	0.46812 0.41554 0.96339 -0.00400
C 	C 	0.40832 0.40918 0.96664 -0.02500
C 	C 	0.81254 0.52892 0.96375 -0.02800
H 	H 	0.42861 0.04010 0.96781 0.05700
C 	C 	0.90834 0.48994 0.97374 -0.03800
C 	C 	0.51927 0.05317 0.97771 0.00300
H 	H 	0.94497 0.47422 0.97766 0.04500
H 	H 	0.55812 0.44703 0.97620 0.04300
C 	C 	0.45677 0.03056 0.97951 -0.02100
C 	C 	0.51179 0.44205 0.97863 -0.02700
C 	C 	0.84873 0.55398 0.98093 -0.03800
C 	C 	0.39204 0.42820 0.98523 -0.04000
H 	H 	0.34565 0.42282 0.98771 0.04800
C 	C 	0.89639 0.53411 0.98611 0.00800
H 	H 	0.60364 0.05802 0.99170 0.04800
C 	C 	0.55531 0.04060 0.99294 -0.03400
H 	H 	0.01474 0.60239 0.98950 0.06100
H 	H 	0.83935 0.58825 0.99035 0.04700
C 	C 	0.43042 0.99603 0.99653 -0.04200
H 	H 	0.38209 0.97880 0.99777 0.04800
C 	C 	0.49558 0.46096 0.99724 -0.04000
