data_crystal

_cell_length_a 20.46289
_cell_length_b 21.89288
_cell_length_c 39.70624
_cell_angle_alpha 60.64683
_cell_angle_beta  119.12280
_cell_angle_gamma 133.30449

_symmetry_space_group_name_	'P 1'
_symmetry_space_group_name_H-M	'P 1'

loop_
_symmetry_equiv_pos_as_xyz
  x,y,z

loop_
_atom_site_label
_atom_site_type_symbol
_atom_site_fract_x
_atom_site_fract_y
_atom_site_fract_z
_atom_site_charge
O 	O 	0.00301 0.98296 0.58795 -0.55300
C 	C 	0.00557 0.01579 0.90199 -0.00200
C 	C 	0.00366 0.96221 0.82202 0.06300
H 	H 	0.00906 0.09255 0.33323 0.10000
C 	C 	0.00029 0.99112 0.20646 0.35900
O 	O 	0.99055 0.76902 0.55926 -0.40000
O 	O 	0.01734 0.11307 0.52236 -0.44500
C 	C 	0.01458 0.96648 0.86133 0.06800
C 	C 	0.78849 0.32067 0.02883 0.04100
C 	C 	0.70106 0.25842 0.03793 -0.06700
C 	C 	0.66708 0.28081 0.04998 0.04300
C 	C 	0.72519 0.36095 0.05858 -0.06800
C 	C 	0.80714 0.42689 0.04575 0.04100
C 	C 	0.83888 0.40751 0.03006 -0.06400
H 	H 	0.65894 0.19322 0.03499 0.06200
H 	H 	0.70153 0.37523 0.07116 0.06400
H 	H 	0.90027 0.45898 0.01846 0.06700
C 	C 	0.70691 0.29230 0.52139 0.04000
C 	C 	0.76714 0.37217 0.53203 -0.06300
C 	C 	0.72974 0.40472 0.53474 0.04200
C 	C 	0.63468 0.35494 0.52992 -0.06700
C 	C 	0.57550 0.27722 0.51905 0.04300
C 	C 	0.61082 0.24872 0.51226 -0.06400
H 	H 	0.84136 0.40771 0.53846 0.06700
H 	H 	0.60639 0.37766 0.53407 0.06500
H 	H 	0.56381 0.18963 0.50238 0.06300
C 	C 	0.30615 0.64703 0.16967 0.04200
C 	C 	0.24646 0.57150 0.15505 -0.06100
C 	C 	0.28396 0.53524 0.15546 0.04200
C 	C 	0.37913 0.57701 0.16766 -0.06800
C 	C 	0.43774 0.65767 0.17543 0.04400
C 	C 	0.40210 0.68560 0.18254 -0.06400
H 	H 	0.17304 0.54201 0.14353 0.07000
H 	H 	0.40809 0.55155 0.16631 0.06400
H 	H 	0.44907 0.73933 0.19626 0.07200
C 	C 	0.24061 0.63293 0.65061 0.04400
C 	C 	0.18672 0.54524 0.65062 -0.06500
C 	C 	0.22873 0.51249 0.65245 0.04500
C 	C 	0.32380 0.56578 0.65609 -0.06700
C 	C 	0.37531 0.65379 0.65244 0.04500
C 	C 	0.33489 0.68692 0.65124 -0.06600
H 	H 	0.11277 0.50434 0.64752 0.06900
H 	H 	0.35631 0.54009 0.65822 0.06600
H 	H 	0.37512 0.75564 0.64827 0.06900
Co	Co	0.02183 0.86355 0.10583 1.18900
Co	Co	0.04075 0.10100 0.07597 1.18200
Co	Co	0.95994 0.93251 0.13671 1.19100
Co	Co	0.10658 0.03256 0.04727 1.17200
C 	C 	0.92778 0.75044 0.04874 0.28900
Co	Co	0.12359 0.89239 0.05159 1.18400
Co	Co	0.93011 0.06967 0.12746 1.16300
C 	C 	0.29124 0.06248 0.06390 0.25600
O 	O 	0.01934 0.06595 0.18184 -0.41200
O 	O 	0.98335 0.03310 0.11294 -0.76900
O 	O 	0.95741 0.83122 0.14430 -0.44400
O 	O 	0.10526 0.13255 0.03780 -0.45100
C 	C 	0.11461 0.23271 0.11527 0.30200
O 	O 	0.05591 0.99188 0.09957 -0.55200
C 	C 	0.77931 0.87941 0.13300 0.31400
C 	C 	0.13312 0.79351 0.13630 0.29900
C 	C 	0.08162 0.99723 0.97615 0.34400
O 	O 	0.99238 0.93572 0.19625 -0.35400
O 	O 	0.10260 0.78715 0.09998 -0.39100
O 	O 	0.11549 0.83065 0.14587 -0.35700
O 	O 	0.02752 0.19973 0.10735 -0.39700
O 	O 	0.13899 0.20420 0.10380 -0.36900
O 	O 	0.82724 0.94293 0.14939 -0.38900
O 	O 	0.81926 0.87385 0.11770 -0.38300
O 	O 	0.14889 0.99163 0.00074 -0.38300
O 	O 	0.04217 0.00749 0.98963 -0.39600
O 	O 	0.08388 0.93323 0.07110 -0.74600
C 	C 	0.88579 0.12687 0.04076 0.29200
O 	O 	0.84692 0.06905 0.07079 -0.39200
O 	O 	0.94231 0.12676 0.03286 -0.37100
O 	O 	0.98669 0.81331 0.02597 -0.37100
O 	O 	0.91603 0.76721 0.07299 -0.36800
O 	O 	0.25303 0.97900 0.07973 -0.34900
O 	O 	0.24934 0.09688 0.05637 -0.36000
Co	Co	0.98747 0.86414 0.59606 1.18400
Co	Co	0.98606 0.08666 0.57154 1.18100
Co	Co	0.92279 0.92018 0.63304 1.19200
Co	Co	0.02233 0.01860 0.52759 1.17200
C 	C 	0.90608 0.72514 0.56147 0.30700
Co	Co	0.06358 0.89771 0.52890 1.18800
Co	Co	0.90897 0.05750 0.63606 1.16300
C 	C 	0.19205 0.08908 0.50976 0.31400
O 	O 	0.89975 0.96562 0.68903 -0.38300
O 	O 	0.94640 0.02030 0.61303 -0.77800
C 	C 	0.96288 0.95217 0.70942 0.31600
O 	O 	0.92959 0.82615 0.63872 -0.44300
C 	C 	0.09646 0.20874 0.62691 0.29300
C 	C 	0.74186 0.88235 0.62688 0.29500
C 	C 	0.15158 0.86423 0.61180 0.29300
C 	C 	0.94197 0.93734 0.45798 0.29500
O 	O 	0.98826 0.93449 0.69221 -0.35400
O 	O 	0.17058 0.92491 0.57888 -0.36400
O 	O 	0.09459 0.84617 0.62821 -0.34600
O 	O 	0.04858 0.14292 0.65360 -0.38600
O 	O 	0.09142 0.19746 0.59506 -0.35900
O 	O 	0.77368 0.96452 0.61470 -0.36100
O 	O 	0.78040 0.85636 0.62286 -0.36700
O 	O 	0.94936 0.87403 0.48308 -0.38200
O 	O 	0.94479 0.98585 0.47101 -0.33200
O 	O 	0.02297 0.92987 0.55302 -0.73400
C 	C 	0.86539 0.13693 0.55048 0.30800
O 	O 	0.91054 0.15367 0.58537 -0.40700
O 	O 	0.87249 0.09257 0.54055 -0.38500
O 	O 	0.88388 0.75797 0.57112 -0.38000
O 	O 	0.13771 0.02231 0.49491 -0.40800
O 	O 	0.16003 0.10033 0.52643 -0.38300
C 	C 	0.04459 0.92109 0.89617 -0.07500
C 	C 	0.99020 0.01074 0.86410 0.01900
C 	C 	0.04040 0.97335 0.93715 -0.06400
C 	C 	0.05556 0.92207 0.93363 0.13000
N 	N 	0.94621 0.04701 0.82912 -0.01200
H 	H 	0.99247 0.05431 0.90375 0.06100
N 	N 	0.08570 0.87319 0.96808 -0.03500
H 	H 	0.05980 0.88428 0.89432 0.09300
C 	C 	0.07957 0.02081 0.80416 0.03800
C 	C 	0.07168 0.00969 0.76980 -0.02700
C 	C 	0.98971 0.93963 0.75336 -0.05900
C 	C 	0.91927 0.87491 0.77461 0.12300
C 	C 	0.92490 0.88838 0.80758 -0.08000
N 	N 	0.16585 0.08978 0.82151 -0.01600
H 	H 	0.12744 0.05857 0.75462 0.07000
N 	N 	0.84006 0.79667 0.76180 -0.02400
H 	H 	0.86929 0.83955 0.82289 0.09200
O 	O 	0.17369 0.90763 0.98149 -0.10400
O 	O 	0.02686 0.78957 0.97828 -0.10200
O 	O 	0.86966 0.02827 0.82799 -0.09500
O 	O 	0.98543 0.10286 0.79942 -0.09100
O 	O 	0.84977 0.75986 0.74867 -0.08800
O 	O 	0.75901 0.75992 0.76511 -0.08700
O 	O 	0.24124 0.09749 0.83091 -0.08800
O 	O 	0.17027 0.14860 0.82504 -0.07800
C 	C 	0.01386 0.94603 0.31489 -0.05600
C 	C 	0.95201 0.96052 0.31000 0.01800
C 	C 	0.89852 0.97396 0.27163 0.06600
C 	C 	0.90875 0.97506 0.23869 0.00600
C 	C 	0.97330 0.96442 0.24302 -0.10000
C 	C 	0.02541 0.94875 0.28162 0.14000
C 	C 	0.93802 0.95476 0.34569 0.05900
N 	N 	0.83473 0.98830 0.26569 -0.00300
H 	H 	0.86933 0.98855 0.20932 0.05300
N 	N 	0.09080 0.93663 0.28734 -0.01100
H 	H 	0.05389 0.93371 0.34437 0.09000
C 	C 	0.88363 0.87348 0.37004 0.05900
C 	C 	0.87061 0.86852 0.40322 -0.01000
C 	C 	0.91610 0.94390 0.41436 -0.04100
C 	C 	0.96009 0.02490 0.38712 0.09200
C 	C 	0.97348 0.03022 0.35358 -0.10500
N 	N 	0.84348 0.79549 0.36196 -0.01600
H 	H 	0.83129 0.80553 0.42233 0.07700
N 	N 	0.98064 0.09913 0.39049 -0.02500
O 	O 	0.08135 0.86453 0.30968 -0.06800
O 	O 	0.16405 0.00028 0.27317 -0.10800
O 	O 	0.84537 0.06074 0.24297 -0.11900
O 	O 	0.76243 0.92668 0.28061 -0.07300
O 	O 	0.91830 0.09231 0.39628 -0.08800
O 	O 	0.05539 0.17543 0.38189 -0.07700
O 	O 	0.86322 0.74164 0.38882 -0.08600
O 	O 	0.78219 0.77530 0.32898 -0.07500
C 	C 	0.17401 0.42452 0.64760 0.01200
C 	C 	0.13204 0.41192 0.60880 -0.03300
C 	C 	0.12771 0.35402 0.59991 0.02000
C 	C 	0.14878 0.29677 0.63094 -0.07300
C 	C 	0.19161 0.31016 0.66960 0.02100
C 	C 	0.19457 0.36689 0.67858 -0.03500
C 	C 	0.08993 0.45552 0.57853 0.10300
C 	C 	0.23323 0.26598 0.69993 0.09500
C 	C 	0.22327 0.36933 0.71950 0.10800
C 	C 	0.10910 0.35833 0.55899 0.09700
N 	N 	0.24619 0.37130 0.75216 -0.09100
N 	N 	0.09511 0.36224 0.52629 -0.09300
N 	N 	0.26671 0.23093 0.72414 -0.09600
N 	N 	0.05540 0.48954 0.55425 -0.10100
C 	C 	0.64963 0.81757 0.63572 -0.06400
C 	C 	0.63484 0.81820 0.66690 0.02500
C 	C 	0.54623 0.75940 0.67412 -0.03000
C 	C 	0.46941 0.71259 0.64594 0.01300
C 	C 	0.48284 0.71795 0.61259 -0.03100
C 	C 	0.57307 0.76514 0.60920 0.02600
C 	C 	0.70759 0.88477 0.68878 0.09600
C 	C 	0.40396 0.67757 0.58117 0.10400
C 	C 	0.58677 0.76335 0.57720 0.10100
C 	C 	0.53425 0.74680 0.71070 0.11000
N 	N 	0.59765 0.76193 0.55166 -0.09700
N 	N 	0.52465 0.73672 0.73986 -0.09300
N 	N 	0.34094 0.64528 0.55617 -0.09800
N 	N 	0.76411 0.93765 0.70644 -0.09300
C 	C 	0.19568 0.67362 0.64065 0.01400
C 	C 	0.17505 0.71519 0.60088 -0.03400
C 	C 	0.16817 0.78163 0.59168 0.02800
C 	C 	0.16702 0.79797 0.62211 -0.06900
C 	C 	0.17984 0.75035 0.66192 0.02500
C 	C 	0.19410 0.68831 0.67108 -0.03100
C 	C 	0.17016 0.69563 0.56932 0.10400
C 	C 	0.18395 0.76844 0.69374 0.10600
C 	C 	0.20855 0.64058 0.71185 0.11000
C 	C 	0.16821 0.83598 0.55136 0.05300
N 	N 	0.22011 0.60242 0.74440 -0.09400
N 	N 	0.16857 0.87888 0.51915 -0.13300
N 	N 	0.18724 0.78282 0.71917 -0.08600
N 	N 	0.16685 0.68080 0.54406 -0.09500
C 	C 	0.22569 0.45438 0.14233 0.01600
C 	C 	0.23510 0.46090 0.10737 -0.03300
C 	C 	0.22504 0.39299 0.10427 0.02100
C 	C 	0.18454 0.31157 0.13096 -0.07200
C 	C 	0.18191 0.30649 0.16712 0.01600
C 	C 	0.19407 0.37460 0.17126 -0.03200
C 	C 	0.25661 0.53784 0.07501 0.10600
C 	C 	0.18083 0.23818 0.20163 0.08900
C 	C 	0.17987 0.36445 0.20654 0.10300
C 	C 	0.26867 0.41045 0.07789 0.09700
N 	N 	0.16860 0.35613 0.23480 -0.09500
N 	N 	0.30389 0.42447 0.05689 -0.09300
N 	N 	0.18120 0.18450 0.22961 -0.09300
N 	N 	0.27343 0.59903 0.04897 -0.09600
C 	C 	0.52857 0.72003 0.16529 0.01600
C 	C 	0.53248 0.76339 0.12496 -0.03200
C 	C 	0.60999 0.80204 0.11256 0.02500
C 	C 	0.68741 0.80493 0.14077 -0.07900
C 	C 	0.68129 0.75697 0.18048 0.02700
C 	C 	0.60375 0.71776 0.19308 -0.03400
C 	C 	0.45609 0.76723 0.09618 0.11000
C 	C 	0.75690 0.75134 0.20871 0.08800
C 	C 	0.60120 0.67510 0.23463 0.10900
C 	C 	0.61148 0.84145 0.07083 0.09500
N 	N 	0.59911 0.64105 0.26778 -0.09100
N 	N 	0.61269 0.87284 0.03753 -0.08500
N 	N 	0.81722 0.74686 0.23127 -0.09000
N 	N 	0.39526 0.77049 0.07321 -0.09400
C 	C 	0.26935 0.68867 0.16974 0.01500
C 	C 	0.31621 0.78029 0.15672 -0.02900
C 	C 	0.28418 0.81789 0.15931 0.01600
C 	C 	0.19513 0.76601 0.16488 -0.06500
C 	C 	0.15541 0.67728 0.18346 0.02000
C 	C 	0.19259 0.63831 0.18617 -0.03000
C 	C 	0.39563 0.83577 0.14021 0.10500
C 	C 	0.08495 0.62926 0.20419 0.09900
C 	C 	0.15665 0.54930 0.20841 0.10600
C 	C 	0.34476 0.90864 0.15877 0.10000
N 	N 	0.12776 0.47819 0.22625 -0.09300
N 	N 	0.39357 0.98115 0.15863 -0.08600
N 	N 	0.02933 0.59069 0.22125 -0.08600
N 	N 	0.45963 0.88032 0.12733 -0.09700
C 	C 	0.74290 0.24859 0.52387 0.01400
C 	C 	0.70499 0.16083 0.54520 -0.04100
C 	C 	0.72189 0.11398 0.54004 0.02800
C 	C 	0.79825 0.15850 0.52554 -0.08200
C 	C 	0.83050 0.24291 0.50096 0.02300
C 	C 	0.80270 0.28838 0.49992 -0.03400
C 	C 	0.65447 0.12077 0.57431 0.09200
C 	C 	0.88617 0.27999 0.47482 0.09200
C 	C 	0.83357 0.37405 0.47378 0.10400
C 	C 	0.65647 0.02114 0.54607 0.05100
N 	N 	0.85824 0.44250 0.45290 -0.09600
N 	N 	0.60323 0.94685 0.55055 -0.07000
N 	N 	0.93021 0.30947 0.45370 -0.09000
N 	N 	0.61413 0.08872 0.59757 -0.11100
C 	C 	0.84157 0.63410 0.55906 -0.07600
C 	C 	0.78647 0.61662 0.52151 0.02000
C 	C 	0.76928 0.55296 0.51109 -0.03400
C 	C 	0.78801 0.49283 0.54078 0.01300
C 	C 	0.83705 0.50584 0.57958 -0.03500
C 	C 	0.86206 0.57525 0.58888 0.02300
C 	C 	0.74674 0.66363 0.49383 0.09100
C 	C 	0.86178 0.44797 0.60987 0.09800
C 	C 	0.91121 0.58775 0.62887 0.08600
C 	C 	0.72965 0.54733 0.47005 0.10600
N 	N 	0.95041 0.59771 0.66079 -0.10000
N 	N 	0.69798 0.54273 0.43730 -0.09200
N 	N 	0.88160 0.40181 0.63403 -0.10800
N 	N 	0.71461 0.70091 0.47187 -0.09500
C 	C 	0.47596 0.22374 0.51657 0.01200
C 	C 	0.44587 0.18577 0.55147 -0.03600
C 	C 	0.35562 0.15184 0.54878 0.02200
C 	C 	0.29166 0.14619 0.51147 -0.08100
C 	C 	0.32090 0.18067 0.47662 0.02500
C 	C 	0.41364 0.22202 0.47914 -0.03600
C 	C 	0.50801 0.18150 0.59015 0.10000
C 	C 	0.25487 0.17024 0.43841 0.09500
C 	C 	0.44535 0.26387 0.44314 0.10200
C 	C 	0.32813 0.12126 0.58451 0.08900
N 	N 	0.47073 0.29730 0.41446 -0.09900
N 	N 	0.30630 0.09692 0.61302 -0.10800
N 	N 	0.20281 0.16174 0.40778 -0.09400
N 	N 	0.55767 0.17819 0.62098 -0.10300
C 	C 	0.87339 0.19808 0.01849 -0.07400
C 	C 	0.94238 0.27817 0.02858 0.00600
C 	C 	0.91675 0.31714 0.03470 -0.02900
C 	C 	0.82519 0.29370 0.01739 0.00700
C 	C 	0.76366 0.23199 0.99410 -0.03100
C 	C 	0.78430 0.17827 0.99808 0.02100
C 	C 	0.03094 0.33062 0.02022 0.10300
C 	C 	0.68369 0.22802 0.96456 0.10100
C 	C 	0.71542 0.10503 0.98037 0.09200
C 	C 	0.98177 0.37482 0.06096 0.08600
N 	N 	0.66034 0.04657 0.96612 -0.09700
N 	N 	0.03338 0.42092 0.08202 -0.10500
N 	N 	0.61980 0.22488 0.94097 -0.09900
N 	N 	0.10098 0.37298 0.01245 -0.10000
C 	C 	0.87722 0.65962 0.04800 -0.06700
C 	C 	0.88784 0.60124 0.08334 0.01700
C 	C 	0.88630 0.53684 0.08204 -0.03400
C 	C 	0.85330 0.51745 0.04544 0.01300
C 	C 	0.83517 0.57189 0.00985 -0.03300
C 	C 	0.84406 0.64086 0.01124 0.02200
C 	C 	0.88921 0.60094 0.12017 0.08700
C 	C 	0.80562 0.55596 0.97187 0.11200
C 	C 	0.81772 0.69173 0.97492 0.10900
C 	C 	0.91573 0.48852 0.11843 0.09700
N 	N 	0.79688 0.73246 0.94593 -0.09100
N 	N 	0.93919 0.44985 0.14748 -0.10500
N 	N 	0.78201 0.54318 0.94156 -0.09800
N 	N 	0.88907 0.60069 0.14933 -0.09900
C 	C 	0.56744 0.22388 0.04972 0.00700
C 	C 	0.52432 0.13607 0.07044 -0.02200
C 	C 	0.42862 0.08163 0.06553 -0.01900
C 	C 	0.38241 0.11802 0.05408 -0.05200
C 	C 	0.42353 0.20602 0.03257 0.01500
C 	C 	0.51419 0.25712 0.02812 -0.03300
C 	C 	0.57829 0.10291 0.09838 0.09000
C 	C 	0.37062 0.24131 0.01153 0.09500
C 	C 	0.55013 0.34088 0.99970 0.10600
C 	C 	0.37689 0.99649 0.06041 0.13300
N 	N 	0.57870 0.40766 0.97703 -0.10000
N 	N 	0.33498 0.92874 0.05577 -0.10900
N 	N 	0.32859 0.26973 0.99464 -0.09200
N 	N 	0.62179 0.07678 0.12074 -0.10800
