data_crystal

_cell_length_a 23.74623
_cell_length_b 22.43217
_cell_length_c 56.79854
_cell_angle_alpha 89.72360
_cell_angle_beta  89.74170
_cell_angle_gamma 119.78283

_symmetry_space_group_name_	'P 1'
_symmetry_space_group_name_H-M	'P 1'

loop_
_symmetry_equiv_pos_as_xyz
  x,y,z

loop_
_atom_site_label
_atom_site_type_symbol
_atom_site_fract_x
_atom_site_fract_y
_atom_site_fract_z
_atom_site_charge
Ni	Ni	0.02510 0.95973 0.72013 1.09500
Ni	Ni	0.02332 0.10371 0.73030 1.11000
O 	O 	0.10677 0.01902 0.74118 -0.37400
O 	O 	0.08094 0.09958 0.75571 -0.39200
O 	O 	0.06883 0.02663 0.69227 -0.39300
O 	O 	0.10087 0.13191 0.70814 -0.38600
C 	C 	0.08584 0.09539 0.20131 0.30600
C 	C 	0.13677 0.15676 0.26809 0.28800
C 	C 	0.04365 0.89331 0.22337 0.31100
C 	C 	0.07385 0.94976 0.28716 0.28600
Ni	Ni	0.11245 0.03161 0.24237 1.12200
O 	O 	0.07630 0.95874 0.21776 -0.40500
O 	O 	0.13045 0.10187 0.21642 -0.37800
O 	O 	0.00957 0.92150 0.28602 -0.39200
O 	O 	0.11026 0.96576 0.26769 -0.38900
O 	O 	0.09930 0.16430 0.25250 -0.37300
O 	O 	0.15732 0.11223 0.26457 -0.38000
O 	O 	0.00052 0.87094 0.24062 -0.39200
C 	C 	0.10109 0.10547 0.17578 -0.08800
C 	C 	0.05129 0.09020 0.15954 0.02100
C 	C 	0.06608 0.10800 0.13581 -0.07500
C 	C 	0.13067 0.14071 0.12793 0.04700
H 	H 	0.02746 0.09857 0.12369 0.04700
H 	H 	0.10976 0.14339 0.09001 0.04300
H 	H 	0.10310 0.26058 0.08617 0.04900
C 	C 	0.06284 0.84609 0.21299 -0.09500
C 	C 	0.03479 0.73068 0.20126 -0.09300
C 	C 	0.01586 0.77760 0.20857 0.01400
H 	H 	0.99824 0.67787 0.19796 0.06600
H 	H 	0.06741 0.67958 0.15898 0.04100
C 	C 	0.15709 0.19959 0.28940 -0.09100
C 	C 	0.11867 0.22606 0.29820 0.02000
C 	C 	0.13418 0.26116 0.31952 -0.07600
C 	C 	0.18862 0.27097 0.33216 0.04800
H 	H 	0.07590 0.21809 0.28881 0.02800
H 	H 	0.10389 0.28092 0.32622 0.04700
H 	H 	0.16445 0.29542 0.36706 0.04400
C 	C 	0.10457 0.95718 0.31033 -0.09800
C 	C 	0.07019 0.91140 0.32883 0.02000
C 	C 	0.09896 0.91945 0.35090 -0.07500
H 	H 	0.02149 0.86921 0.32608 0.03100
H 	H 	0.07238 0.88318 0.36493 0.04500
C 	C 	0.96071 0.53689 0.44367 -0.03600
C 	C 	0.01669 0.60120 0.44645 0.00200
C 	C 	0.03106 0.63383 0.46852 -0.02500
S 	S 	0.11040 0.68751 0.46911 0.02500
C 	C 	0.07199 0.62445 0.43156 -0.01500
H 	H 	0.94831 0.51181 0.42672 0.04700
C 	C 	0.04229 0.56403 0.97053 -0.08700
C 	C 	0.05856 0.57424 0.99448 0.03100
C 	C 	0.02160 0.52273 0.01112 -0.02900
S 	S 	0.06755 0.53610 0.03456 0.02800
H 	H 	0.06900 0.60419 0.95762 0.04700
C 	C 	0.54599 0.31320 0.94281 0.31000
O 	O 	0.53550 0.25014 0.94058 -0.38600
C 	C 	0.49548 0.21318 0.51757 0.28300
O 	O 	0.49616 0.27286 0.51638 -0.37600
C 	C 	0.12364 0.07884 0.75159 0.28900
C 	C 	0.11392 0.09013 0.69605 0.30500
C 	C 	0.28488 0.58156 0.41821 0.28900
C 	C 	0.30813 0.76023 0.49644 0.30200
C 	C 	0.19107 0.67574 0.43763 0.30400
C 	C 	0.41113 0.66869 0.47912 0.28200
C 	C 	0.35741 0.86585 0.43436 0.30400
C 	C 	0.46387 0.78688 0.41389 0.28900
Ni	Ni	0.27882 0.64205 0.46475 1.11200
Ni	Ni	0.41073 0.79338 0.46144 1.11900
Ni	Ni	0.32172 0.73093 0.41568 1.12000
O 	O 	0.28634 0.57496 0.44142 -0.37300
O 	O 	0.27261 0.62816 0.40866 -0.37800
O 	O 	0.37628 0.85839 0.45541 -0.38500
O 	O 	0.26105 0.70438 0.48706 -0.37600
O 	O 	0.36869 0.77518 0.49378 -0.38000
O 	O 	0.40736 0.74351 0.40397 -0.38400
O 	O 	0.19855 0.62488 0.44527 -0.37600
O 	O 	0.23735 0.72702 0.42554 -0.38500
O 	O 	0.46730 0.82600 0.43202 -0.38000
O 	O 	0.35133 0.64741 0.48688 -0.36600
O 	O 	0.44853 0.73304 0.47157 -0.37400
O 	O 	0.36350 0.83356 0.41622 -0.38900
O 	O 	0.34223 0.71506 0.44648 -0.71200
H 	H 	0.36742 0.69317 0.44163 0.14400
C 	C 	0.41591 0.57178 0.03514 0.28900
C 	C 	0.24478 0.60675 0.10472 0.31200
C 	C 	0.24359 0.46238 0.05013 0.30900
C 	C 	0.42467 0.72208 0.09406 0.28800
C 	C 	0.19866 0.62151 0.03226 0.30800
C 	C 	0.37820 0.75345 0.01957 0.28700
Ni	Ni	0.33838 0.57660 0.07881 1.11300
Ni	Ni	0.30876 0.69783 0.06444 1.12000
Ni	Ni	0.30776 0.59753 0.02480 1.12100
O 	O 	0.38732 0.54362 0.05576 -0.37200
O 	O 	0.39645 0.60683 0.02174 -0.38100
O 	O 	0.24148 0.68279 0.03989 -0.38500
O 	O 	0.29392 0.59601 0.10725 -0.37400
O 	O 	0.23469 0.62768 0.08449 -0.39000
O 	O 	0.33739 0.69243 0.01015 -0.37700
O 	O 	0.24898 0.49667 0.06926 -0.38200
O 	O 	0.27557 0.49536 0.03098 -0.37700
O 	O 	0.37656 0.76567 0.04235 -0.38500
O 	O 	0.42191 0.66239 0.09006 -0.37300
O 	O 	0.37192 0.72881 0.09239 -0.37800
O 	O 	0.21520 0.57471 0.02824 -0.38800
O 	O 	0.33466 0.63376 0.05546 -0.71800
H 	H 	0.38124 0.66516 0.05252 0.16200
C 	C 	0.17989 0.14975 0.14368 -0.07300
C 	C 	0.16530 0.13312 0.16758 0.02100
C 	C 	0.14619 0.16868 0.10354 -0.05200
C 	C 	0.19709 0.23136 0.09907 -0.05300
C 	C 	0.19734 0.27212 0.07851 0.04700
C 	C 	0.25389 0.30758 0.06478 -0.07700
C 	C 	0.26439 0.36476 0.05137 0.01900
C 	C 	0.21970 0.38841 0.05247 -0.09500
C 	C 	0.15896 0.34662 0.06311 0.02300
C 	C 	0.14779 0.28866 0.07615 -0.07600
H 	H 	0.22942 0.17052 0.13754 0.04900
H 	H 	0.20402 0.14297 0.17969 0.03600
H 	H 	0.23529 0.25624 0.11198 0.04400
H 	H 	0.29172 0.29405 0.06587 0.04800
H 	H 	0.31023 0.39478 0.04222 0.03500
H 	H 	0.12298 0.36293 0.06334 0.03000
C 	C 	0.48211 0.77515 0.10632 -0.08500
C 	C 	0.47464 0.80564 0.12674 0.01900
C 	C 	0.52671 0.84005 0.14216 -0.07500
C 	C 	0.54362 0.78500 0.10040 0.01900
H 	H 	0.42757 0.79897 0.13145 0.03300
H 	H 	0.51954 0.86043 0.15845 0.04700
H 	H 	0.55025 0.76275 0.08446 0.03200
C 	C 	0.12885 0.86730 0.20984 0.02700
C 	C 	0.14774 0.82022 0.20278 -0.08100
C 	C 	0.10086 0.75188 0.19840 0.05500
C 	C 	0.12132 0.70327 0.19024 -0.05900
C 	C 	0.10472 0.67557 0.16874 -0.05100
C 	C 	0.13956 0.64425 0.15710 0.04600
C 	C 	0.10633 0.59106 0.14097 -0.07700
C 	C 	0.14083 0.57347 0.12515 0.02400
C 	C 	0.20885 0.60852 0.12546 -0.09700
C 	C 	0.24180 0.65661 0.14315 0.02200
C 	C 	0.20754 0.67529 0.15868 -0.07600
H 	H 	0.16560 0.91977 0.21351 0.02000
H 	H 	0.19883 0.83696 0.20058 0.04800
H 	H 	0.15647 0.69696 0.20056 0.04400
H 	H 	0.05396 0.56620 0.13975 0.04700
H 	H 	0.11489 0.53557 0.11172 0.03100
H 	H 	0.29436 0.68370 0.14361 0.03300
H 	H 	0.23422 0.71709 0.17077 0.04700
C 	C 	0.52386 0.80690 0.40064 -0.08500
C 	C 	0.57933 0.81671 0.41266 0.01800
C 	C 	0.64064 0.85472 0.40219 -0.07400
C 	C 	0.59108 0.86909 0.36697 -0.07600
C 	C 	0.52977 0.83053 0.37734 0.02300
H 	H 	0.57523 0.79804 0.43057 0.02800
H 	H 	0.59545 0.89002 0.34940 0.04800
H 	H 	0.48728 0.82303 0.36785 0.03200
C 	C 	0.22738 0.24489 0.32341 -0.07600
C 	C 	0.21176 0.20944 0.30209 0.02100
C 	C 	0.20396 0.30794 0.35469 -0.05300
C 	C 	0.26085 0.36589 0.35759 -0.05200
C 	C 	0.26558 0.41902 0.37395 0.04700
C 	C 	0.31549 0.44738 0.39059 -0.07400
C 	C 	0.32125 0.49981 0.40542 0.01900
C 	C 	0.27778 0.52485 0.40337 -0.08500
C 	C 	0.22803 0.49644 0.38670 0.02100
C 	C 	0.22213 0.44410 0.37201 -0.07500
H 	H 	0.26912 0.25151 0.33321 0.05000
H 	H 	0.24184 0.18925 0.29556 0.03400
H 	H 	0.30163 0.37764 0.34597 0.04500
H 	H 	0.34969 0.42888 0.39203 0.05100
H 	H 	0.36006 0.52170 0.41816 0.03300
H 	H 	0.19391 0.51503 0.38510 0.03600
H 	H 	0.18419 0.42345 0.35891 0.04800
C 	C 	0.16239 0.97308 0.35469 0.03500
C 	C 	0.19589 0.02044 0.33646 -0.06300
C 	C 	0.16736 0.01211 0.31433 0.02600
C 	C 	0.19385 0.97824 0.37765 -0.05500
C 	C 	0.25324 0.98464 0.37862 -0.04600
C 	C 	0.27878 0.97139 0.40065 0.02200
C 	C 	0.34616 0.00496 0.40402 -0.03800
C 	C 	0.37320 0.97621 0.41896 -0.00100
C 	C 	0.33300 0.91362 0.43050 -0.08100
C 	C 	0.26570 0.88744 0.43055 0.00900
C 	C 	0.23841 0.91504 0.41525 -0.06100
H 	H 	0.24397 0.06356 0.33941 0.04800
H 	H 	0.19379 0.04880 0.30041 0.03300
H 	H 	0.16560 0.96934 0.39370 0.04000
H 	H 	0.28215 0.99587 0.36260 0.03900
H 	H 	0.37785 0.04986 0.39352 0.04500
H 	H 	0.42544 0.99855 0.41952 0.03500
H 	H 	0.23415 0.84092 0.44033 0.03900
H 	H 	0.18622 0.88899 0.41331 0.04500
C 	C 	0.29246 0.91947 0.51319 0.00000
C 	C 	0.30789 0.98619 0.50652 -0.06900
C 	C 	0.35050 0.04084 0.52084 0.02800
C 	C 	0.37896 0.02836 0.54051 0.01400
C 	C 	0.37220 0.96347 0.54458 -0.07200
C 	C 	0.32722 0.90839 0.53100 0.01700
S 	S 	0.26528 0.85360 0.49484 0.02400
C 	C 	0.29309 0.80781 0.50889 -0.07600
C 	C 	0.32815 0.84590 0.52847 -0.02100
S 	S 	0.44457 0.10179 0.54732 0.01300
C 	C 	0.43821 0.15232 0.52701 -0.06900
C 	C 	0.38402 0.11055 0.51314 -0.02200
H 	H 	0.29051 0.99561 0.49009 0.04700
H 	H 	0.40354 0.95689 0.55685 0.04400
H 	H 	0.36067 0.83435 0.53826 0.04200
H 	H 	0.37555 0.12694 0.49619 0.04600
C 	C 	0.12969 0.67412 0.44206 -0.08100
H 	H 	0.07185 0.59688 0.41592 0.03700
C 	C 	0.48667 0.56934 0.45643 0.01400
C 	C 	0.42840 0.50999 0.46248 0.00000
C 	C 	0.42473 0.44590 0.46432 -0.05700
C 	C 	0.47834 0.44036 0.45676 0.01600
C 	C 	0.48920 0.38642 0.46440 -0.02200
S 	S 	0.38389 0.53377 0.47824 0.01700
C 	C 	0.43442 0.61889 0.47744 -0.07200
C 	C 	0.48960 0.63090 0.46438 -0.02300
H 	H 	0.38341 0.40296 0.47279 0.04500
H 	H 	0.45351 0.34298 0.47463 0.04100
C 	C 	0.55631 0.30112 0.60478 -0.08600
C 	C 	0.50997 0.23141 0.60732 0.02000
C 	C 	0.46689 0.20910 0.62640 -0.07200
C 	C 	0.47113 0.25622 0.64356 0.04600
C 	C 	0.52317 0.32394 0.64258 -0.07400
C 	C 	0.56568 0.34635 0.62325 0.02200
C 	C 	0.41483 0.23977 0.65907 -0.05000
C 	C 	0.37694 0.17613 0.66783 -0.05400
C 	C 	0.30978 0.15372 0.67549 0.04800
C 	C 	0.29705 0.19183 0.69205 -0.07800
C 	C 	0.23310 0.17269 0.69803 0.02200
C 	C 	0.18111 0.11424 0.68790 -0.09900
C 	C 	0.19409 0.07576 0.67152 0.02000
C 	C 	0.25810 0.09522 0.66548 -0.07800
H 	H 	0.50357 0.19568 0.59343 0.02900
H 	H 	0.42724 0.15660 0.62679 0.04900
H 	H 	0.52785 0.36046 0.65592 0.04800
H 	H 	0.40102 0.27881 0.66168 0.04400
H 	H 	0.39215 0.13791 0.66636 0.04300
H 	H 	0.33668 0.23616 0.70032 0.04900
H 	H 	0.22410 0.20220 0.71103 0.03300
H 	H 	0.15468 0.03067 0.66351 0.03100
H 	H 	0.26752 0.06543 0.65271 0.04800
C 	C 	0.13396 0.60763 0.02546 -0.07500
C 	C 	0.12155 0.62228 0.00258 -0.02700
H 	H 	0.15981 0.65773 0.99084 0.04200
C 	C 	0.56291 0.04805 0.00538 0.01100
C 	C 	0.55789 0.98314 0.00393 -0.06800
C 	C 	0.49716 0.92653 0.99877 0.01600
C 	C 	0.44447 0.93582 0.99365 0.00700
C 	C 	0.44829 0.99965 0.99636 -0.08900
C 	C 	0.50912 0.05682 0.00120 0.03700
C 	C 	0.52673 0.12412 0.99334 -0.02800
S 	S 	0.37725 0.86062 0.99690 0.01500
C 	C 	0.41124 0.81292 0.00380 -0.06600
C 	C 	0.47876 0.85751 0.00460 -0.02400
H 	H 	0.40629 0.00554 0.99331 0.06200
H 	H 	0.49171 0.13611 0.98573 0.04700
H 	H 	0.51163 0.84329 0.01274 0.04000
C 	C 	0.45297 0.36643 0.98533 -0.00100
C 	C 	0.45565 0.39183 0.00803 -0.05500
C 	C 	0.47498 0.46157 0.01042 0.01600
C 	C 	0.49556 0.50525 0.99067 -0.00100
C 	C 	0.49119 0.47965 0.96797 -0.05400
C 	C 	0.47241 0.41009 0.96550 0.01500
C 	C 	0.49430 0.32458 0.95175 -0.07800
C 	C 	0.49406 0.38571 0.94649 -0.01800
S 	S 	0.48772 0.57277 0.99696 0.02300
C 	C 	0.46063 0.55162 0.02472 -0.07100
C 	C 	0.45602 0.48784 0.02969 -0.02100
H 	H 	0.50503 0.51350 0.95276 0.04500
H 	H 	0.52025 0.41796 0.93153 0.04400
H 	H 	0.43035 0.45683 0.04494 0.04300
C 	C 	0.18934 0.11808 0.76174 -0.08800
C 	C 	0.24039 0.11005 0.75268 0.01800
C 	C 	0.30272 0.14760 0.76203 -0.07500
C 	C 	0.31454 0.19291 0.78074 0.04600
C 	C 	0.26410 0.20228 0.78940 -0.07600
C 	C 	0.20174 0.16486 0.78005 0.01700
C 	C 	0.37958 0.23076 0.79142 -0.05300
C 	C 	0.40911 0.19705 0.79971 -0.05200
C 	C 	0.46580 0.23089 0.81553 0.04700
C 	C 	0.46620 0.27244 0.83406 -0.07500
C 	C 	0.51334 0.29355 0.85153 0.02200
C 	C 	0.55966 0.27205 0.85106 -0.09300
C 	C 	0.56172 0.23400 0.83186 0.02100
C 	C 	0.51483 0.21332 0.81421 -0.07600
H 	H 	0.23203 0.07546 0.73819 0.03400
H 	H 	0.34179 0.14155 0.75472 0.04900
H 	H 	0.27297 0.23772 0.80366 0.04600
H 	H 	0.16308 0.17185 0.78721 0.03300
H 	H 	0.40012 0.28527 0.79484 0.04200
H 	H 	0.38963 0.14304 0.79563 0.04400
H 	H 	0.42810 0.28543 0.83562 0.04800
H 	H 	0.51187 0.32379 0.86609 0.03500
H 	H 	0.51509 0.18136 0.80001 0.04900
O 	O 	0.53835 0.31848 0.56456 -0.38500
O 	O 	0.03058 0.01899 0.25204 -0.71200
H 	H 	0.04107 0.03173 0.26863 0.14200
C 	C 	0.64677 0.88301 0.37962 0.04700
S 	S 	0.46637 0.30221 0.97933 0.02400
H 	H 	0.44182 0.35811 0.02327 0.04500
O 	O 	0.03153 0.09116 0.20885 -0.38000
H 	H 	0.60229 0.40009 0.62171 0.03500
H 	H 	0.53018 0.68168 0.46078 0.04300
C 	C 	0.81724 0.38676 0.94016 0.28700
C 	C 	0.59817 0.27978 0.87224 0.30900
C 	C 	0.72660 0.46723 0.91167 0.30900
C 	C 	0.68755 0.19199 0.89836 0.28900
C 	C 	0.61793 0.21339 0.96964 0.28900
Ni	Ni	0.72684 0.34098 0.89680 1.11300
Ni	Ni	0.59080 0.22562 0.92003 1.12100
Ni	Ni	0.68321 0.35951 0.94921 1.12100
O 	O 	0.80951 0.39940 0.91773 -0.36700
O 	O 	0.76930 0.36543 0.95593 -0.37900
O 	O 	0.65836 0.29253 0.87029 -0.37100
O 	O 	0.57085 0.27094 0.89301 -0.38800
O 	O 	0.63378 0.27924 0.97249 -0.37500
O 	O 	0.70516 0.41943 0.89567 -0.38000
O 	O 	0.73713 0.45353 0.93325 -0.37600
O 	O 	0.60779 0.18474 0.94857 -0.38600
O 	O 	0.73775 0.25497 0.89574 -0.37200
O 	O 	0.62688 0.18052 0.89784 -0.37700
O 	O 	0.60474 0.36589 0.94078 -0.39300
O 	O 	0.67559 0.30157 0.92382 -0.71800
H 	H 	0.69780 0.27852 0.93071 0.16100
C 	C 	0.68981 0.24179 0.54223 0.28900
C 	C 	0.58241 0.38004 0.48155 0.30500
C 	C 	0.77164 0.40569 0.50470 0.31000
C 	C 	0.67871 0.49430 0.54539 0.31300
C 	C 	0.58124 0.32850 0.58119 0.29100
Ni	Ni	0.63418 0.29192 0.50201 1.11300
Ni	Ni	0.56465 0.36105 0.53246 1.12000
Ni	Ni	0.69851 0.37701 0.54979 1.12100
O 	O 	0.68709 0.25108 0.51902 -0.36400
O 	O 	0.68849 0.28468 0.55799 -0.38200
O 	O 	0.61582 0.45322 0.54844 -0.38400
O 	O 	0.58331 0.32212 0.47918 -0.36300
O 	O 	0.59716 0.41206 0.50164 -0.38500
O 	O 	0.64417 0.37376 0.57829 -0.38200
O 	O 	0.71912 0.37946 0.49185 -0.37300
O 	O 	0.76868 0.38672 0.52681 -0.38100
O 	O 	0.54412 0.20666 0.50893 -0.36600
O 	O 	0.71578 0.46937 0.53884 -0.39600
O 	O 	0.62474 0.32835 0.53060 -0.71500
H 	H 	0.60117 0.28578 0.53995 0.15500
C 	C 	0.58665 0.84432 0.13730 0.04600
C 	C 	0.59530 0.81819 0.11596 -0.07300
C 	C 	0.63588 0.86590 0.15613 -0.05200
C 	C 	0.69987 0.90138 0.15124 -0.05300
C 	C 	0.74819 0.91506 0.16981 0.04600
C 	C 	0.79875 0.90099 0.16569 -0.07400
C 	C 	0.84521 0.91469 0.18305 0.01900
C 	C 	0.84188 0.94333 0.20457 -0.08600
C 	C 	0.79128 0.95745 0.20865 0.01800
C 	C 	0.74500 0.94389 0.19131 -0.07400
H 	H 	0.64076 0.81993 0.11205 0.04900
H 	H 	0.61943 0.85174 0.17425 0.04300
H 	H 	0.71670 0.91693 0.13324 0.04200
H 	H 	0.80201 0.87941 0.14906 0.04900
H 	H 	0.78816 0.97954 0.22519 0.03400
H 	H 	0.70711 0.95648 0.19449 0.04800
C 	C 	0.71122 0.93150 0.36993 -0.05200
C 	C 	0.75014 0.90874 0.36173 -0.05700
C 	C 	0.80695 0.95243 0.34653 0.05700
C 	C 	0.80297 0.99479 0.32900 -0.10700
C 	C 	0.85006 0.02290 0.31124 0.04600
C 	C 	0.90009 0.00700 0.31028 -0.08000
C 	C 	0.90739 0.97004 0.32885 0.00800
C 	C 	0.86103 0.94293 0.34693 -0.07500
H 	H 	0.68345 0.86451 0.41196 0.04900
H 	H 	0.72421 0.98489 0.36744 0.04100
H 	H 	0.73834 0.85613 0.36541 0.04600
H 	H 	0.76122 0.00204 0.32817 0.06700
H 	H 	0.84432 0.05185 0.29704 0.03000
H 	H 	0.86516 0.91119 0.36048 0.05000
C 	C 	0.53507 0.49896 0.44878 -0.00200
C 	C 	0.54149 0.56459 0.45008 -0.05300
S 	S 	0.59611 0.48372 0.45249 0.02900
C 	C 	0.55466 0.40330 0.46311 -0.07400
H 	H 	0.58846 0.61036 0.44783 0.04600
C 	C 	0.70932 0.19261 0.55059 -0.08300
C 	C 	0.77045 0.20225 0.54414 0.02100
C 	C 	0.77270 0.14346 0.57992 0.04700
C 	C 	0.70832 0.12676 0.58482 -0.07100
C 	C 	0.67654 0.15030 0.56999 0.02000
C 	C 	0.81318 0.13714 0.59857 -0.05000
C 	C 	0.78900 0.08278 0.61335 -0.05200
C 	C 	0.78850 0.07021 0.65697 -0.07400
C 	C 	0.81918 0.07135 0.67806 0.02100
H 	H 	0.68461 0.10007 0.60098 0.04900
H 	H 	0.62870 0.14120 0.57485 0.03000
H 	H 	0.74079 0.03938 0.61045 0.04500
H 	H 	0.73817 0.05774 0.65730 0.05000
H 	H 	0.79215 0.05961 0.69446 0.03700
C 	C 	0.70943 0.56611 0.55342 -0.09400
C 	C 	0.67251 0.59876 0.55645 0.02600
C 	C 	0.70012 0.66345 0.56696 -0.07700
C 	C 	0.76478 0.69603 0.57455 0.04800
C 	C 	0.80244 0.66458 0.57047 -0.07600
C 	C 	0.77522 0.60064 0.55970 0.02400
C 	C 	0.78866 0.75594 0.59034 -0.05100
C 	C 	0.85190 0.80365 0.59108 -0.05400
C 	C 	0.87958 0.84171 0.61294 0.04900
C 	C 	0.85916 0.88623 0.62169 -0.07700
H 	H 	0.62212 0.57348 0.55119 0.03400
H 	H 	0.67056 0.68710 0.57001 0.04900
H 	H 	0.85179 0.68783 0.57679 0.04900
H 	H 	0.80458 0.57648 0.55729 0.03000
H 	H 	0.75534 0.75700 0.60331 0.04400
H 	H 	0.88474 0.80596 0.57726 0.04400
H 	H 	0.82908 0.89942 0.61107 0.04700
S 	S 	0.62888 0.12083 0.99772 0.02200
C 	C 	0.59395 0.16700 0.99001 -0.06400
H 	H 	0.59979 0.97697 0.00678 0.04600
C 	C 	0.69910 0.13397 0.89584 -0.08400
C 	C 	0.74818 0.13251 0.90906 0.02000
C 	C 	0.77518 0.09286 0.90157 -0.07000
C 	C 	0.75389 0.05553 0.88059 0.04200
C 	C 	0.69840 0.04893 0.86952 -0.07000
C 	C 	0.67118 0.08834 0.87707 0.02100
C 	C 	0.79569 0.03490 0.86783 -0.02800
C 	C 	0.85771 0.08180 0.86283 -0.05800
C 	C 	0.88769 0.07846 0.84045 0.05100
C 	C 	0.88764 0.01815 0.83398 -0.06100
H 	H 	0.76844 0.16573 0.92414 0.03200
H 	H 	0.81578 0.09528 0.91102 0.05200
H 	H 	0.67996 0.01801 0.85384 0.05100
H 	H 	0.63198 0.08760 0.86714 0.03600
H 	H 	0.77243 0.98689 0.85819 0.02600
H 	H 	0.88094 0.12985 0.87245 0.04900
H 	H 	0.87269 0.97629 0.84650 0.03700
H 	H 	0.59738 0.21729 0.83124 0.03600
C 	C 	0.75213 0.53878 0.90397 -0.09300
C 	C 	0.81814 0.58654 0.90696 0.02100
C 	C 	0.84866 0.64488 0.89242 -0.07500
C 	C 	0.81331 0.65613 0.87492 0.04700
C 	C 	0.74577 0.61208 0.87375 -0.07500
C 	C 	0.71532 0.55433 0.88846 0.02300
C 	C 	0.84861 0.70482 0.85534 -0.05200
C 	C 	0.82422 0.74050 0.84455 -0.05300
C 	C 	0.84910 0.77268 0.82120 0.04600
C 	C 	0.80581 0.75758 0.80251 -0.07500
C 	C 	0.82882 0.78611 0.78018 0.01900
H 	H 	0.84696 0.57567 0.91913 0.03800
H 	H 	0.71759 0.61962 0.86034 0.04800
H 	H 	0.66400 0.51850 0.88636 0.03200
H 	H 	0.78099 0.73922 0.85159 0.04100
H 	H 	0.75435 0.72301 0.80522 0.04700
H 	H 	0.79481 0.77342 0.76588 0.03400
H 	H 	0.00117 0.06599 0.16538 0.03600
C 	C 	0.82260 0.08539 0.63555 0.04800
C 	C 	0.87493 0.91119 0.64459 0.02000
H 	H 	0.85762 0.94436 0.65131 0.03400
C 	C 	0.80219 0.17814 0.55884 -0.07200
C 	C 	0.92020 0.82674 0.62654 -0.07600
H 	H 	0.93712 0.79334 0.61970 0.04900
H 	H 	0.85818 0.35856 0.98323 0.04600
H 	H 	0.91204 0.18095 0.82951 0.05200
H 	H 	0.93992 0.16740 0.78880 0.03700
C 	C 	0.91965 0.90992 0.68423 0.30500
C 	C 	0.91937 0.86466 0.75319 0.28800
C 	C 	0.91437 0.08073 0.69991 0.30400
C 	C 	0.92386 0.04959 0.76914 0.31000
Ni	Ni	0.88845 0.96055 0.72787 1.11500
O 	O 	0.87766 0.03934 0.71678 -0.38100
O 	O 	0.95327 0.89127 0.69771 -0.37300
O 	O 	0.88481 0.93462 0.69361 -0.39000
O 	O 	0.95859 0.10197 0.75445 -0.37600
O 	O 	0.88320 0.98741 0.76105 -0.40200
O 	O 	0.87870 0.86901 0.73837 -0.37900
C 	C 	0.93219 0.01211 0.28775 0.30300
C 	C 	0.89369 0.96343 0.22208 0.29000
Ni	Ni	0.00644 0.08480 0.24417 1.10700
Ni	Ni	0.96453 0.92556 0.25651 1.12500
O 	O 	0.96974 0.07379 0.27826 -0.36700
O 	O 	0.90894 0.95601 0.27469 -0.38500
O 	O 	0.91081 0.01851 0.23480 -0.35500
O 	O 	0.91928 0.92385 0.22593 -0.37400
H 	H 	0.88452 0.90450 0.17955 0.03800
H 	H 	0.94646 0.95824 0.32842 0.03400
C 	C 	0.92507 0.50334 0.46385 0.00300
C 	C 	0.94013 0.53461 0.48593 0.00400
S 	S 	0.84942 0.43793 0.46457 0.03100
C 	C 	0.83510 0.44438 0.49310 -0.07700
C 	C 	0.88930 0.50133 0.50267 -0.00900
H 	H 	0.88950 0.52185 0.51991 0.04000
C 	C 	0.88425 0.08684 0.67795 -0.08500
C 	C 	0.91851 0.10214 0.65646 0.02200
C 	C 	0.88774 0.10112 0.63535 -0.07200
H 	H 	0.79586 0.23375 0.52894 0.03900
H 	H 	0.85131 0.19028 0.55460 0.05200
H 	H 	0.86235 0.17930 0.60099 0.04600
H 	H 	0.91417 0.11145 0.61886 0.05300
C 	C 	0.93556 0.85109 0.64955 0.02300
C 	C 	0.91078 0.89120 0.65906 -0.09100
H 	H 	0.96501 0.83700 0.66016 0.03400
C 	C 	0.95699 0.44716 0.98018 0.00200
S 	S 	0.94746 0.48409 0.93981 0.02300
C 	C 	0.88320 0.41006 0.94875 -0.07000
C 	C 	0.89553 0.39664 0.97180 -0.01500
H 	H 	0.94578 0.41756 0.01704 0.04400
C 	C 	0.91030 0.13356 0.82445 -0.07600
C 	C 	0.92611 0.12586 0.80137 0.02700
C 	C 	0.92005 0.06314 0.79424 -0.09400
C 	C 	0.90372 0.01050 0.81094 0.04000
H 	H 	0.90119 0.96274 0.80584 0.02000
C 	C 	0.89547 0.83080 0.77636 -0.08700
C 	C 	0.93872 0.84679 0.79521 0.01700
C 	C 	0.91561 0.81809 0.81754 -0.07400
H 	H 	0.90054 0.67896 0.89377 0.05000
H 	H 	0.89329 0.70839 0.84878 0.04500
H 	H 	0.94930 0.83150 0.83199 0.04900
H 	H 	0.96479 0.76060 0.21101 0.04500
O 	O 	0.98127 0.00560 0.72989 -0.67600
H 	H 	0.98427 0.99825 0.74683 0.12700
O 	O 	0.98041 0.88694 0.74689 -0.36600
O 	O 	0.97771 0.11659 0.70248 -0.37200
C 	C 	0.99390 0.60029 0.48863 -0.00800
H 	H 	0.00713 0.62407 0.50578 0.02200
H 	H 	0.96827 0.11279 0.65601 0.04500
C 	C 	0.99290 0.49916 0.96362 0.02800
C 	C 	0.97231 0.45787 0.00416 -0.02200
H 	H 	0.99001 0.88249 0.79271 0.03600
