data_crystal

_cell_length_a 18.43572
_cell_length_b 18.95890
_cell_length_c 36.10250
_cell_angle_alpha 95.42211
_cell_angle_beta  95.42423
_cell_angle_gamma 126.57759

_symmetry_space_group_name_	'P 1'
_symmetry_space_group_name_H-M	'P 1'

loop_
_symmetry_equiv_pos_as_xyz
  x,y,z

loop_
_atom_site_label
_atom_site_type_symbol
_atom_site_fract_x
_atom_site_fract_y
_atom_site_fract_z
_atom_site_charge
C 	C 	0.92056 0.00770 0.98510 -0.05400
C 	C 	0.01461 0.05895 0.98404 0.10300
C 	C 	0.05611 0.01739 0.97874 -0.01900
C 	C 	0.00531 0.92521 0.97741 0.11600
C 	C 	0.91248 0.87383 0.98045 -0.03500
C 	C 	0.86890 0.91451 0.98292 0.08400
H 	H 	0.05500 0.13090 0.98665 0.10500
H 	H 	0.03796 0.89334 0.97389 0.09100
H 	H 	0.79607 0.87441 0.98362 0.09600
C 	C 	0.94029 0.02334 0.48335 -0.06100
C 	C 	0.03524 0.07319 0.48459 0.10700
C 	C 	0.07698 0.03100 0.48601 -0.02200
C 	C 	0.02366 0.93921 0.48650 0.12400
C 	C 	0.92811 0.88865 0.48331 -0.03400
C 	C 	0.88659 0.93081 0.48144 0.08400
H 	H 	0.07664 0.14457 0.48510 0.10300
H 	H 	0.05656 0.90757 0.48979 0.10200
H 	H 	0.81279 0.89199 0.47956 0.08900
Cu	Cu	0.77031 0.35040 0.96590 0.93800
Cu	Cu	0.74278 0.28149 0.04681 0.89600
Cu	Cu	0.62544 0.32240 0.00954 0.92000
Cu	Cu	0.59137 0.32395 0.92656 0.93600
C 	C 	0.71328 0.30855 0.88485 0.31500
O 	O 	0.81242 0.47650 0.96106 -0.30000
C 	C 	0.66374 0.34199 0.09216 0.32000
O 	O 	0.62660 0.27408 0.95962 -0.62800
O 	O 	0.75591 0.36899 0.01840 -0.63400
O 	O 	0.83531 0.29685 0.97592 -0.30100
O 	O 	0.72557 0.19767 0.00678 -0.37300
O 	O 	0.67233 0.34564 0.88942 -0.29500
O 	O 	0.50073 0.28627 0.99936 -0.29800
C 	C 	0.43988 0.23390 0.96816 0.30500
C 	C 	0.76279 0.50404 0.96820 0.28600
O 	O 	0.67461 0.44578 0.96872 -0.34100
O 	O 	0.46335 0.24630 0.93466 -0.33000
O 	O 	0.76480 0.31173 0.91383 -0.28000
C 	C 	0.79230 0.22074 0.98831 0.30200
O 	O 	0.62686 0.35513 0.06299 -0.30800
O 	O 	0.73284 0.33883 0.09039 -0.37100
H 	H 	0.58948 0.20807 0.95402 0.22000
H 	H 	0.79868 0.43166 0.03228 0.19500
Cu	Cu	0.62199 0.20397 0.50851 0.93800
Cu	Cu	0.67465 0.21432 0.42419 0.92200
Cu	Cu	0.63773 0.33353 0.46079 0.90400
Cu	Cu	0.65496 0.38237 0.54410 0.94000
C 	C 	0.67774 0.27121 0.58879 0.31400
O 	O 	0.49758 0.16734 0.51773 -0.29700
C 	C 	0.60456 0.28421 0.37844 0.30100
O 	O 	0.69917 0.34202 0.50997 -0.63500
O 	O 	0.59121 0.20727 0.45532 -0.63200
O 	O 	0.66773 0.13338 0.49807 -0.31300
O 	O 	0.76332 0.22972 0.46226 -0.36800
O 	O 	0.63983 0.31118 0.58390 -0.30000
O 	O 	0.67271 0.45429 0.46704 -0.33500
C 	C 	0.72267 0.51888 0.49712 0.30700
C 	C 	0.46621 0.21144 0.50800 0.28700
O 	O 	0.52338 0.29654 0.50578 -0.32900
O 	O 	0.73168 0.50187 0.53104 -0.30300
O 	O 	0.67335 0.21953 0.56018 -0.32700
C 	C 	0.73910 0.16590 0.48144 0.30700
O 	O 	0.59155 0.32070 0.40751 -0.33200
O 	O 	0.60977 0.21840 0.38083 -0.34500
H 	H 	0.76690 0.37827 0.51304 0.18500
H 	H 	0.52527 0.16365 0.44349 0.20700
C 	C 	0.73310 0.25340 0.69810 0.02600
C 	C 	0.66637 0.17848 0.71227 -0.00600
C 	C 	0.67049 0.18293 0.75140 -0.00900
C 	C 	0.74135 0.26228 0.77646 0.03500
C 	C 	0.81298 0.33381 0.76235 -0.01000
C 	C 	0.80885 0.32938 0.72324 -0.00800
C 	C 	0.73143 0.27647 0.81496 0.08700
C 	C 	0.72415 0.28945 0.84727 -0.01100
C 	C 	0.71483 0.25881 0.65921 0.08400
C 	C 	0.69964 0.26344 0.62666 -0.03900
H 	H 	0.60827 0.11892 0.69303 0.09000
H 	H 	0.61553 0.12677 0.76208 0.09100
H 	H 	0.86877 0.39496 0.78155 0.09000
H 	H 	0.86146 0.38715 0.71254 0.08100
C 	C 	0.60349 0.35508 0.19720 0.02700
C 	C 	0.52283 0.28086 0.20585 -0.01000
C 	C 	0.51485 0.27301 0.24366 -0.00900
C 	C 	0.58750 0.33938 0.27292 0.02700
C 	C 	0.66398 0.41766 0.26427 -0.01200
C 	C 	0.67197 0.42549 0.22647 -0.01000
C 	C 	0.59159 0.32005 0.31034 0.08000
C 	C 	0.59572 0.30452 0.34177 -0.04400
C 	C 	0.62341 0.35119 0.15978 0.08300
C 	C 	0.64046 0.34828 0.12850 -0.03700
H 	H 	0.46890 0.22669 0.18338 0.09700
H 	H 	0.45482 0.21285 0.25011 0.09200
H 	H 	0.71988 0.46992 0.28673 0.09100
H 	H 	0.73398 0.48373 0.22003 0.08600
C 	C 	0.82987 0.76530 0.51691 -0.00600
C 	C 	0.87202 0.79289 0.48541 0.12100
C 	C 	0.85686 0.72844 0.45571 -0.14300
C 	C 	0.81064 0.63975 0.46089 0.08800
C 	C 	0.76848 0.61217 0.49242 -0.01100
C 	C 	0.77149 0.67433 0.51902 -0.05100
C 	C 	0.71284 0.64480 0.54945 0.77300
H 	H 	0.84084 0.81479 0.53933 0.12900
H 	H 	0.80762 0.59198 0.44041 0.07600
C 	C 	0.89369 0.75407 0.41943 0.79600
F 	F 	0.70014 0.70731 0.56215 -0.38800
F 	F 	0.75597 0.63548 0.57991 -0.40800
F 	F 	0.62667 0.56450 0.53553 -0.40700
F 	F 	0.98536 0.78919 0.42544 -0.41300
F 	F 	0.88459 0.81621 0.40762 -0.39900
F 	F 	0.84604 0.68010 0.39038 -0.41500
C 	C 	0.83670 0.13533 0.51639 0.08400
C 	C 	0.78769 0.12648 0.48189 -0.01400
C 	C 	0.78993 0.08465 0.44784 -0.06000
C 	C 	0.84846 0.06027 0.44870 -0.00400
C 	C 	0.89594 0.06721 0.48319 0.11800
C 	C 	0.89003 0.10477 0.51755 -0.14000
C 	C 	0.94112 0.11297 0.55530 0.76300
H 	H 	0.83394 0.16704 0.54224 0.08600
H 	H 	0.85452 0.03246 0.42259 0.12100
C 	C 	0.73146 0.06727 0.41045 0.76700
F 	F 	0.92542 0.14999 0.58542 -0.41500
F 	F 	0.03467 0.16712 0.55564 -0.38500
F 	F 	0.91262 0.02938 0.56078 -0.43200
F 	F 	0.77205 0.14575 0.39654 -0.46100
F 	F 	0.64382 0.03547 0.41526 -0.45600
F 	F 	0.72274 0.00396 0.38376 -0.40600
C 	C 	0.23032 0.12216 0.52763 0.00000
C 	C 	0.17778 0.08439 0.49087 0.12000
C 	C 	0.22091 0.09221 0.45943 -0.12700
C 	C 	0.31518 0.13153 0.46583 0.08100
C 	C 	0.36726 0.16750 0.50265 -0.00200
C 	C 	0.32539 0.16517 0.53388 -0.05100
C 	C 	0.38191 0.20784 0.57381 0.77300
H 	H 	0.19645 0.11650 0.55136 0.13200
H 	H 	0.34846 0.13454 0.44219 0.07700
C 	C 	0.16623 0.05693 0.41923 0.77500
F 	F 	0.32929 0.20170 0.60012 -0.39000
F 	F 	0.45225 0.29750 0.57545 -0.41500
F 	F 	0.41916 0.16550 0.58385 -0.41500
F 	F 	0.11670 0.08949 0.41389 -0.39900
F 	F 	0.10617 0.96461 0.41277 -0.34500
F 	F 	0.22287 0.08269 0.39268 -0.40200
C 	C 	0.81957 0.71965 0.94314 -0.00100
C 	C 	0.86032 0.77624 0.97876 0.11100
C 	C 	0.86769 0.74261 0.01118 -0.12800
C 	C 	0.84084 0.65493 0.00673 0.07900
C 	C 	0.80305 0.59941 0.97091 -0.00600
C 	C 	0.79258 0.63196 0.93866 -0.06100
C 	C 	0.75322 0.57348 0.89948 0.77500
H 	H 	0.81308 0.74570 0.91863 0.12000
H 	H 	0.84820 0.62925 0.03121 0.07600
C 	C 	0.90726 0.80113 0.05032 0.76100
F 	F 	0.75727 0.61998 0.87138 -0.40200
F 	F 	0.66214 0.50181 0.89760 -0.44400
F 	F 	0.80256 0.54206 0.89220 -0.42200
F 	F 	0.86730 0.84313 0.05573 -0.38200
F 	F 	0.00121 0.86508 0.05393 -0.36800
F 	F 	0.89108 0.75156 0.07858 -0.40800
C 	C 	0.84114 0.06034 0.95227 -0.00300
C 	C 	0.87587 0.05181 0.98647 0.11300
C 	C 	0.88243 0.09850 0.02120 -0.13200
C 	C 	0.86102 0.15841 0.02076 0.08100
C 	C 	0.82691 0.16754 0.98662 -0.01500
C 	C 	0.81475 0.11657 0.95197 -0.05300
C 	C 	0.77742 0.12475 0.91463 0.77200
H 	H 	0.83762 0.02530 0.92583 0.11900
H 	H 	0.86960 0.19732 0.04711 0.06300
C 	C 	0.91510 0.08678 0.05868 0.74100
F 	F 	0.76204 0.06329 0.88468 -0.41000
F 	F 	0.84003 0.20960 0.90740 -0.41500
F 	F 	0.69473 0.10989 0.91623 -0.43300
F 	F 	0.00819 0.12756 0.06317 -0.37400
F 	F 	0.86789 0.99684 0.05951 -0.36500
F 	F 	0.90040 0.12420 0.08905 -0.41600
C 	C 	0.27752 0.16695 0.94218 0.08500
C 	C 	0.34114 0.17418 0.97017 0.00100
C 	C 	0.30931 0.12373 0.99946 -0.06600
C 	C 	0.21708 0.07856 0.00317 0.01300
C 	C 	0.15356 0.07045 0.97492 0.11300
C 	C 	0.18300 0.10979 0.94267 -0.13200
C 	C 	0.11473 0.09321 0.90920 0.79300
H 	H 	0.30174 0.20561 0.91988 0.10100
H 	H 	0.19393 0.04763 0.02761 0.12700
C 	C 	0.37259 0.11798 0.02694 0.77600
F 	F 	0.15366 0.11405 0.87713 -0.39400
F 	F 	0.08756 0.14594 0.91761 -0.40900
F 	F 	0.03820 0.00421 0.90064 -0.41200
F 	F 	0.42326 0.19297 0.05543 -0.43100
F 	F 	0.43153 0.11153 0.00855 -0.46000
F 	F 	0.32253 0.04314 0.04336 -0.40900
