data_crystal

_cell_length_a 41.22873
_cell_length_b 41.97900
_cell_length_c 32.96867
_cell_angle_alpha 89.96765
_cell_angle_beta  89.95398
_cell_angle_gamma 87.81631

_symmetry_space_group_name_	'P 1'
_symmetry_space_group_name_H-M	'P 1'

loop_
_symmetry_equiv_pos_as_xyz
  x,y,z

loop_
_atom_site_label
_atom_site_type_symbol
_atom_site_fract_x
_atom_site_fract_y
_atom_site_fract_z
_atom_site_charge
C 	C 	0.46162 0.55652 0.97576 -0.04200
C 	C 	0.49328 0.56713 0.97651 -0.04100
C 	C 	0.45574 0.52365 0.97619 0.00800
C 	C 	0.48228 0.50132 0.97489 -0.00800
C 	C 	0.51441 0.51206 0.97610 -0.00700
C 	C 	0.51997 0.54517 0.97727 0.00800
C 	C 	0.47674 0.46822 0.97300 0.00900
C 	C 	0.50346 0.44634 0.97140 -0.04100
C 	C 	0.54092 0.48967 0.97662 0.00900
C 	C 	0.55224 0.55560 0.97932 -0.01100
C 	C 	0.57820 0.53320 0.98101 -0.04400
C 	C 	0.57285 0.50051 0.98062 -0.01100
C 	C 	0.42373 0.51265 0.97772 -0.01200
C 	C 	0.41843 0.48002 0.97474 -0.04300
C 	C 	0.44447 0.45772 0.97283 -0.01100
C 	C 	0.55941 0.58984 0.98086 0.02000
C 	C 	0.56490 0.60653 0.94478 -0.05000
C 	C 	0.57832 0.63663 0.94603 -0.02900
C 	C 	0.58656 0.65018 0.98340 -0.01300
C 	C 	0.57936 0.63423 0.01957 -0.03200
C 	C 	0.56579 0.60421 0.01828 -0.05300
C 	C 	0.60070 0.47796 0.98700 0.02000
C 	C 	0.60500 0.46274 0.02459 -0.05200
C 	C 	0.63102 0.44097 0.03045 -0.03500
C 	C 	0.62310 0.47198 0.95566 -0.04900
C 	C 	0.64934 0.45047 0.96163 -0.03100
C 	C 	0.65325 0.43465 0.99894 -0.00700
C 	C 	0.39578 0.53461 0.98632 0.02300
C 	C 	0.39100 0.54668 0.02562 -0.05600
C 	C 	0.36328 0.56549 0.03464 -0.02600
C 	C 	0.33991 0.57203 0.00455 -0.02100
C 	C 	0.34482 0.56011 0.96515 -0.02300
C 	C 	0.37270 0.54152 0.95606 -0.05300
C 	C 	0.43740 0.42343 0.97341 0.02000
C 	C 	0.43392 0.40682 0.93685 -0.04900
C 	C 	0.42207 0.37601 0.93702 -0.03100
C 	C 	0.41323 0.36174 0.97376 -0.01000
C 	C 	0.41787 0.37796 0.01043 -0.03400
C 	C 	0.43000 0.40861 0.01023 -0.05200
C 	C 	0.53509 0.45692 0.97295 -0.04100
H 	H 	0.55995 0.59566 0.91575 0.04200
H 	H 	0.58334 0.64894 0.91795 0.03700
H 	H 	0.58546 0.64450 0.04858 0.03500
H 	H 	0.56158 0.59150 0.04629 0.04100
H 	H 	0.32686 0.56496 0.94175 0.03600
H 	H 	0.37615 0.53212 0.92571 0.04300
H 	H 	0.35984 0.57482 0.06504 0.03300
H 	H 	0.40865 0.54125 0.04920 0.04200
H 	H 	0.43958 0.41810 0.90827 0.04200
H 	H 	0.41904 0.36356 0.90858 0.03700
H 	H 	0.43256 0.42130 0.03859 0.04100
H 	H 	0.41114 0.36722 0.03896 0.03500
H 	H 	0.58791 0.46748 0.04904 0.04200
H 	H 	0.63375 0.42878 0.05929 0.03600
H 	H 	0.62007 0.48388 0.92666 0.04100
H 	H 	0.66654 0.44595 0.93724 0.03700
H 	H 	0.44169 0.57405 0.97449 0.04200
H 	H 	0.49687 0.59253 0.97651 0.04200
H 	H 	0.60281 0.54130 0.98354 0.04300
H 	H 	0.55503 0.43947 0.97091 0.04200
H 	H 	0.49991 0.42101 0.96887 0.04200
H 	H 	0.39380 0.47180 0.97557 0.04300
Zn	Zn	0.32800 0.18190 0.97367 1.22000
C 	C 	0.33687 0.17479 0.06006 0.32200
O 	O 	0.29125 0.15539 0.98774 -0.44700
O 	O 	0.30659 0.18513 0.06464 -0.45300
O 	O 	0.25669 0.19800 0.99880 -0.50600
C 	C 	0.34172 0.24757 0.98882 0.34000
O 	O 	0.33675 0.22630 0.96053 -0.47300
O 	O 	0.32697 0.24573 0.02393 -0.50400
C 	C 	0.26154 0.16751 0.99101 0.31600
O 	O 	0.31649 0.17472 0.90397 -0.32700
Zn	Zn	0.28759 0.22218 0.02992 1.16800
O 	O 	0.35175 0.17863 0.02520 -0.44900
C 	C 	0.34196 0.15553 0.90424 0.28400
O 	O 	0.35654 0.15237 0.93883 -0.38800
C 	C 	0.49888 0.97350 0.50815 0.01100
C 	C 	0.47297 0.99687 0.50785 0.01100
C 	C 	0.52385 0.97485 0.47920 -0.05400
C 	C 	0.52325 0.99923 0.44993 0.01100
C 	C 	0.47233 0.02119 0.47850 -0.05400
C 	C 	0.49727 0.02253 0.44954 0.01000
H 	H 	0.45255 0.03893 0.47821 0.05000
H 	H 	0.54358 0.95707 0.47944 0.05000
C 	C 	0.49760 0.04716 0.42032 -0.01300
C 	C 	0.52110 0.04732 0.38952 0.00800
C 	C 	0.51104 0.06544 0.35490 -0.05500
C 	C 	0.47979 0.07938 0.35921 0.00300
S 	S 	0.46495 0.06802 0.40382 -0.01000
H 	H 	0.52471 0.06626 0.32693 0.04300
C 	C 	0.54845 0.00162 0.42112 -0.01300
C 	C 	0.54668 0.02433 0.38987 0.00800
C 	C 	0.56620 0.01575 0.35562 -0.05500
C 	C 	0.58327 0.98651 0.36071 0.00300
S 	S 	0.57280 0.97141 0.40546 -0.00900
H 	H 	0.56542 0.02849 0.32710 0.04300
C 	C 	0.47503 0.94870 0.56813 0.00800
C 	C 	0.49855 0.94886 0.53735 -0.01300
S 	S 	0.53134 0.92845 0.55426 -0.00900
C 	C 	0.51666 0.91724 0.59899 0.00300
C 	C 	0.48527 0.93088 0.60295 -0.05500
C 	C 	0.44788 0.99468 0.53682 -0.01300
C 	C 	0.44952 0.97181 0.56789 0.00800
C 	C 	0.43043 0.98062 0.60245 -0.05500
C 	C 	0.41412 0.01033 0.59809 0.00300
S 	S 	0.42444 0.02530 0.55322 -0.00900
H 	H 	0.43115 0.96766 0.63082 0.04400
H 	H 	0.47199 0.93080 0.63124 0.04400
Zn	Zn	0.67663 0.82685 0.97905 1.22000
C 	C 	0.67458 0.83670 0.06556 0.32100
O 	O 	0.71481 0.85286 0.98751 -0.44600
O 	O 	0.70459 0.82503 0.06743 -0.45300
O 	O 	0.74897 0.80965 0.99667 -0.50600
C 	C 	0.66312 0.76156 0.99794 0.34300
O 	O 	0.66612 0.78248 0.96870 -0.47200
O 	O 	0.67977 0.76415 0.03153 -0.50300
C 	C 	0.74439 0.84015 0.98875 0.31500
O 	O 	0.68305 0.83200 0.90804 -0.32700
Zn	Zn	0.71999 0.78681 0.03225 1.16800
O 	O 	0.65691 0.83179 0.03310 -0.44600
C 	C 	0.65801 0.85164 0.91024 0.28400
O 	O 	0.64606 0.85597 0.94623 -0.38600
Zn	Zn	0.16105 0.66454 0.02802 1.22100
C 	C 	0.14609 0.65896 0.11342 0.32300
O 	O 	0.15337 0.70948 0.01329 -0.47100
O 	O 	0.17610 0.66685 0.12072 -0.45100
O 	O 	0.15834 0.72776 0.07783 -0.49900
C 	C 	0.22640 0.64817 0.04787 0.34500
O 	O 	0.19707 0.63726 0.04650 -0.46500
O 	O 	0.23085 0.67757 0.05946 -0.51400
C 	C 	0.14796 0.73180 0.04054 0.33900
O 	O 	0.18004 0.65416 0.96143 -0.32900
Zn	Zn	0.19777 0.70256 0.08877 1.17100
O 	O 	0.13378 0.66264 0.07682 -0.44000
C 	C 	0.15269 0.64036 0.95640 0.28500
O 	O 	0.13362 0.64064 0.98763 -0.38500
C 	C 	0.95361 0.50996 0.49960 0.01100
C 	C 	0.97807 0.53293 0.50094 0.01100
C 	C 	0.95449 0.48439 0.52718 -0.05400
C 	C 	0.97939 0.48156 0.55619 0.01000
C 	C 	0.00268 0.53038 0.53038 -0.05500
C 	C 	0.00347 0.50489 0.55809 0.01100
H 	H 	0.02113 0.54804 0.53166 0.05000
H 	H 	0.93598 0.46680 0.52600 0.05000
C 	C 	0.02841 0.50137 0.58733 -0.01300
C 	C 	0.02837 0.47693 0.61640 0.00800
C 	C 	0.04630 0.48406 0.65198 -0.05500
C 	C 	0.06012 0.51401 0.65042 0.00300
S 	S 	0.04901 0.53123 0.60672 -0.00900
H 	H 	0.04620 0.46977 0.67928 0.04400
C 	C 	0.98150 0.45545 0.58325 -0.01300
C 	C 	0.00474 0.45380 0.61433 0.00700
C 	C 	0.99578 0.43401 0.64731 -0.05500
C 	C 	0.96563 0.42042 0.64164 0.00300
S 	S 	0.95034 0.43386 0.59765 -0.01100
H 	H 	0.00881 0.43246 0.67574 0.04400
C 	C 	0.92911 0.53740 0.44069 0.00700
C 	C 	0.92852 0.51365 0.47061 -0.01300
S 	S 	0.90668 0.48414 0.45265 -0.00900
C 	C 	0.89578 0.50068 0.40847 0.00200
C 	C 	0.91065 0.53008 0.40560 -0.05500
C 	C 	0.97669 0.55837 0.47283 -0.01300
C 	C 	0.95344 0.55989 0.44173 0.00700
C 	C 	0.96313 0.57822 0.40772 -0.05500
C 	C 	0.99390 0.59077 0.41251 0.00300
S 	S 	0.00867 0.57820 0.45706 -0.00900
H 	H 	0.94995 0.57953 0.37939 0.04300
H 	H 	0.91088 0.54380 0.37784 0.04300
Zn	Zn	0.82623 0.32677 0.03368 1.22000
C 	C 	0.83501 0.33076 0.94713 0.32300
O 	O 	0.78871 0.35415 0.01818 -0.45700
O 	O 	0.80470 0.32244 0.94357 -0.45000
O 	O 	0.75582 0.31240 0.01073 -0.51700
C 	C 	0.84219 0.26055 0.02041 0.33900
O 	O 	0.83611 0.28238 0.04813 -0.47700
O 	O 	0.82693 0.26176 0.98557 -0.49900
C 	C 	0.75950 0.34296 0.01644 0.34800
O 	O 	0.81378 0.33547 0.10291 -0.33300
Zn	Zn	0.78673 0.28655 0.97899 1.17200
O 	O 	0.85001 0.32777 0.98219 -0.44400
C 	C 	0.83838 0.35387 0.10252 0.28300
O 	O 	0.85325 0.35599 0.06808 -0.38900
C 	C 	0.94261 0.00620 0.98512 -0.04100
C 	C 	0.95312 0.03726 0.98887 -0.03900
C 	C 	0.96517 0.98020 0.98335 0.00800
C 	C 	0.99884 0.98591 0.98442 -0.00800
C 	C 	0.00950 0.01749 0.98725 -0.00500
C 	C 	0.98652 0.04322 0.99070 0.00600
C 	C 	0.02182 0.96005 0.98322 0.00900
C 	C 	0.05520 0.96616 0.98207 -0.04100
C 	C 	0.04317 0.02326 0.98696 0.00600
C 	C 	0.99743 0.07454 0.99571 -0.00400
C 	C 	0.03064 0.08012 0.99469 -0.04800
C 	C 	0.05356 0.05498 0.98994 -0.00700
C 	C 	0.95480 0.94845 0.98076 -0.00900
C 	C 	0.97777 0.92306 0.98047 -0.04400
C 	C 	0.01096 0.92849 0.98307 -0.01200
C 	C 	0.97445 0.10167 0.00309 0.00800
C 	C 	0.96548 0.12225 0.97120 -0.04500
C 	C 	0.94455 0.14855 0.97841 -0.02600
C 	C 	0.93250 0.15450 0.01760 -0.02000
C 	C 	0.94139 0.13384 0.04949 -0.03000
C 	C 	0.96239 0.10756 0.04228 -0.04700
C 	C 	0.08831 0.06246 0.98808 0.01200
C 	C 	0.10517 0.06881 0.02395 -0.04400
C 	C 	0.13564 0.08230 0.02221 -0.05200
C 	C 	0.10294 0.06807 0.95043 -0.04000
C 	C 	0.13347 0.08147 0.94868 -0.04900
C 	C 	0.14956 0.08939 0.98456 0.02600
C 	C 	0.91998 0.94115 0.98005 0.01300
C 	C 	0.90401 0.93399 0.01634 -0.04400
C 	C 	0.87324 0.92111 0.01536 -0.05200
C 	C 	0.85812 0.91542 0.97807 0.02600
C 	C 	0.87342 0.92400 0.94185 -0.04900
C 	C 	0.90426 0.93681 0.94284 -0.04100
C 	C 	0.03369 0.90104 0.98980 0.02300
C 	C 	0.04245 0.88075 0.95752 -0.05400
C 	C 	0.06230 0.85359 0.96448 -0.02200
C 	C 	0.07343 0.84653 0.00380 -0.02400
C 	C 	0.06499 0.86707 0.03597 -0.02500
C 	C 	0.04513 0.89418 0.02900 -0.05700
C 	C 	0.06573 0.99731 0.98400 -0.03900
H 	H 	0.97479 0.11786 0.94089 0.04100
H 	H 	0.93765 0.16432 0.95358 0.03600
H 	H 	0.93216 0.13827 0.07983 0.03600
H 	H 	0.96935 0.09179 0.06707 0.04100
H 	H 	0.86188 0.91980 0.91293 0.04200
H 	H 	0.91641 0.94225 0.91467 0.04000
H 	H 	0.86157 0.91463 0.04348 0.04100
H 	H 	0.91599 0.93725 0.04520 0.03900
H 	H 	0.03363 0.88589 0.92717 0.04300
H 	H 	0.06884 0.83791 0.93944 0.03600
H 	H 	0.03832 0.90970 0.05410 0.04300
H 	H 	0.07346 0.86176 0.06642 0.03400
H 	H 	0.09407 0.06454 0.05314 0.03900
H 	H 	0.14794 0.08824 0.05007 0.04100
H 	H 	0.09010 0.06324 0.92258 0.04000
H 	H 	0.14410 0.08673 0.91948 0.04300
H 	H 	0.91679 0.00254 0.98374 0.04100
H 	H 	0.93509 0.05666 0.99000 0.04200
H 	H 	0.03875 0.10429 0.99780 0.04500
H 	H 	0.09155 0.00107 0.98340 0.04100
H 	H 	0.07318 0.94681 0.97927 0.04200
H 	H 	0.96967 0.89877 0.97969 0.04400
C 	C 	0.91044 0.18221 0.02505 0.06100
C 	C 	0.87764 0.17778 0.03351 -0.09700
C 	C 	0.85574 0.20391 0.03500 0.05100
C 	C 	0.86639 0.23478 0.02811 -0.15500
C 	C 	0.89993 0.23962 0.02246 0.15500
C 	C 	0.92170 0.21311 0.02070 -0.13000
H 	H 	0.83017 0.20006 0.03976 0.00700
H 	H 	0.94727 0.21648 0.01513 0.06200
H 	H 	0.86890 0.15395 0.03736 0.05100
N 	N 	0.91126 0.26946 0.01823 -0.20900
H 	H 	0.89605 0.28971 0.02165 0.09200
H 	H 	0.93587 0.27268 0.01260 0.08600
C 	C 	0.88701 0.36210 0.84283 0.10400
C 	C 	0.90336 0.34550 0.87397 -0.09600
C 	C 	0.88641 0.33524 0.90797 0.03600
C 	C 	0.85283 0.34168 0.91126 -0.10800
C 	C 	0.83640 0.35855 0.88020 0.03400
C 	C 	0.85343 0.36890 0.84624 -0.09300
H 	H 	0.92926 0.34046 0.87172 0.05900
H 	H 	0.89934 0.32207 0.93159 0.03200
H 	H 	0.81058 0.36400 0.88259 0.03000
H 	H 	0.84061 0.38241 0.82286 0.06300
N 	N 	0.90484 0.37298 0.80905 -0.08900
N 	N 	0.89131 0.37843 0.77582 -0.08700
C 	C 	0.94574 0.40880 0.67534 0.00200
C 	C 	0.91509 0.42310 0.68378 -0.02400
C 	C 	0.89700 0.41269 0.71681 -0.06700
C 	C 	0.90957 0.38842 0.74205 0.08400
C 	C 	0.93995 0.37376 0.73328 -0.06400
C 	C 	0.95799 0.38399 0.70016 -0.02600
H 	H 	0.90553 0.44259 0.66527 0.03800
H 	H 	0.87345 0.42387 0.72322 0.05200
H 	H 	0.94954 0.35447 0.75212 0.05500
H 	H 	0.98152 0.37270 0.69382 0.03700
C 	C 	0.86353 0.41063 0.20502 0.10200
C 	C 	0.83309 0.39671 0.20333 -0.08800
C 	C 	0.82497 0.37799 0.17005 0.02600
C 	C 	0.84708 0.37324 0.13796 -0.08900
C 	C 	0.87737 0.38744 0.13958 0.02800
C 	C 	0.88543 0.40616 0.17288 -0.09200
H 	H 	0.81563 0.40068 0.22754 0.06200
H 	H 	0.80135 0.36756 0.16901 0.03400
H 	H 	0.89469 0.38395 0.11512 0.03600
H 	H 	0.90877 0.41713 0.17380 0.05900
N 	N 	0.87173 0.43036 0.23805 -0.08900
N 	N 	0.86191 0.42462 0.27300 -0.08600
C 	C 	0.88697 0.48163 0.37297 0.00200
C 	C 	0.85745 0.46611 0.37256 -0.02500
C 	C 	0.84920 0.44745 0.33927 -0.06700
C 	C 	0.87028 0.44424 0.30610 0.08300
C 	C 	0.90016 0.45933 0.30677 -0.06400
C 	C 	0.90841 0.47800 0.34002 -0.02600
H 	H 	0.84091 0.46850 0.39803 0.03700
H 	H 	0.82637 0.43551 0.33921 0.05200
H 	H 	0.91709 0.45628 0.28182 0.05500
H 	H 	0.93162 0.48926 0.34043 0.03700
C 	C 	0.09324 0.81727 0.01149 0.06200
C 	C 	0.07974 0.78742 0.00651 -0.10000
C 	C 	0.09801 0.75964 0.01532 0.05500
C 	C 	0.13003 0.76135 0.02923 -0.15200
C 	C 	0.14426 0.79146 0.03292 0.14700
C 	C 	0.12541 0.81927 0.02465 -0.12800
H 	H 	0.08709 0.73671 0.01201 0.02200
H 	H 	0.13591 0.84242 0.02792 0.06000
H 	H 	0.05487 0.78577 0.99634 0.05800
N 	N 	0.17605 0.79376 0.04317 -0.20600
H 	H 	0.19152 0.77360 0.04577 0.05400
H 	H 	0.18597 0.81610 0.04708 0.07600
C 	C 	0.08382 0.56574 0.75745 0.08400
C 	C 	0.05337 0.55237 0.75382 -0.06700
C 	C 	0.04544 0.53567 0.71875 -0.02500
C 	C 	0.06792 0.53241 0.68686 0.00200
C 	C 	0.09802 0.54668 0.68991 -0.02600
C 	C 	0.10597 0.56333 0.72504 -0.06400
H 	H 	0.03597 0.55467 0.77838 0.05300
H 	H 	0.02186 0.52529 0.71635 0.03800
H 	H 	0.11535 0.54466 0.66523 0.03800
H 	H 	0.12923 0.57436 0.72707 0.05600
N 	N 	0.09165 0.58233 0.79335 -0.08600
N 	N 	0.11984 0.58090 0.80711 -0.08900
C 	C 	0.14396 0.62523 0.91764 -0.08700
C 	C 	0.16686 0.62219 0.88613 0.02700
C 	C 	0.15862 0.60776 0.84952 -0.09100
C 	C 	0.12744 0.59650 0.84384 0.10200
C 	C 	0.10457 0.59921 0.87542 -0.08700
C 	C 	0.11274 0.61364 0.91204 0.02600
H 	H 	0.19110 0.63079 0.89003 0.03700
H 	H 	0.17650 0.60533 0.82552 0.05900
H 	H 	0.08062 0.58988 0.87174 0.06300
H 	H 	0.09482 0.61571 0.93603 0.03900
C 	C 	0.08679 0.62833 0.21186 0.10400
C 	C 	0.07241 0.63906 0.17568 -0.09600
C 	C 	0.09170 0.64870 0.14335 0.03500
C 	C 	0.12571 0.64732 0.14680 -0.10700
C 	C 	0.14014 0.63559 0.18272 0.03200
C 	C 	0.12078 0.62607 0.21504 -0.09400
H 	H 	0.04622 0.64038 0.17283 0.06000
H 	H 	0.08017 0.65763 0.11588 0.03500
H 	H 	0.16632 0.63380 0.18562 0.02800
H 	H 	0.13215 0.61689 0.24248 0.06200
N 	N 	0.06691 0.61903 0.24454 -0.09000
N 	N 	0.07478 0.62460 0.28029 -0.08700
C 	C 	0.01485 0.59921 0.37825 0.00100
C 	C 	0.03326 0.62657 0.38045 -0.02500
C 	C 	0.05309 0.63483 0.34796 -0.06800
C 	C 	0.05454 0.61594 0.31296 0.08300
C 	C 	0.03676 0.58806 0.31112 -0.06400
C 	C 	0.01697 0.57976 0.34361 -0.02600
H 	H 	0.03207 0.64153 0.40722 0.03700
H 	H 	0.06714 0.65605 0.34983 0.05200
H 	H 	0.03848 0.57275 0.28472 0.05600
H 	H 	0.00356 0.55810 0.34201 0.03700
C 	C 	0.77262 0.86035 0.98269 -0.07200
C 	C 	0.80231 0.84669 0.96927 -0.00600
C 	C 	0.82969 0.86513 0.96643 -0.03800
C 	C 	0.82789 0.89755 0.97683 -0.03200
C 	C 	0.79766 0.91194 0.98863 0.07700
C 	C 	0.77028 0.89305 0.99184 -0.03900
H 	H 	0.85263 0.85403 0.95699 0.03800
H 	H 	0.74733 0.90376 0.00192 0.05100
H 	H 	0.80429 0.82164 0.96142 0.03400
N 	N 	0.79469 0.94373 0.99650 -0.19400
H 	H 	0.81403 0.95870 0.99211 0.08700
H 	H 	0.77250 0.95397 0.00612 0.08100
C 	C 	0.57643 0.89257 0.70117 0.08300
C 	C 	0.57380 0.87129 0.66875 -0.06700
C 	C 	0.55450 0.87950 0.63520 -0.02500
C 	C 	0.53767 0.90913 0.63382 0.00200
C 	C 	0.54103 0.93092 0.66570 -0.02600
C 	C 	0.56041 0.92276 0.69917 -0.06300
H 	H 	0.58643 0.84820 0.66980 0.05300
H 	H 	0.55234 0.86270 0.61050 0.03800
H 	H 	0.52872 0.95417 0.66447 0.03800
H 	H 	0.56298 0.93985 0.72344 0.05600
N 	N 	0.59537 0.88343 0.73550 -0.08600
N 	N 	0.59124 0.89708 0.76881 -0.08900
C 	C 	0.64156 0.86464 0.87364 -0.08700
C 	C 	0.65557 0.85988 0.83512 0.02600
C 	C 	0.63921 0.87085 0.80037 -0.08700
C 	C 	0.60854 0.88649 0.80379 0.10100
C 	C 	0.59510 0.89214 0.84221 -0.09100
C 	C 	0.61142 0.88124 0.87699 0.02700
H 	H 	0.67904 0.84764 0.83204 0.03800
H 	H 	0.65034 0.86720 0.77089 0.06300
H 	H 	0.57174 0.90465 0.84508 0.06000
H 	H 	0.60044 0.88541 0.90646 0.03900
C 	C 	0.61981 0.92831 0.26307 0.08300
C 	C 	0.63880 0.93303 0.29758 -0.06700
C 	C 	0.62685 0.95214 0.32937 -0.02500
C 	C 	0.59574 0.96670 0.32691 0.00200
C 	C 	0.57642 0.96163 0.29262 -0.02700
C 	C 	0.58832 0.94242 0.26088 -0.06300
H 	H 	0.66288 0.92193 0.29970 0.05100
H 	H 	0.64181 0.95570 0.35586 0.03800
H 	H 	0.55209 0.97221 0.29079 0.03700
H 	H 	0.57302 0.93829 0.23488 0.05500
N 	N 	0.63222 0.90845 0.23138 -0.08600
N 	N 	0.62119 0.91083 0.19624 -0.09000
C 	C 	0.66076 0.85550 0.09981 -0.10600
C 	C 	0.62706 0.86163 0.10262 0.03500
C 	C 	0.61410 0.87983 0.13470 -0.09600
C 	C 	0.63453 0.89171 0.16451 0.10400
C 	C 	0.66823 0.88585 0.16166 -0.09400
C 	C 	0.68127 0.86777 0.12956 0.03200
H 	H 	0.61088 0.85228 0.08006 0.03400
H 	H 	0.58814 0.88459 0.13649 0.05900
H 	H 	0.68430 0.89560 0.18404 0.06100
H 	H 	0.70732 0.86366 0.12759 0.02800
C 	C 	0.23351 0.14678 0.98667 -0.07100
C 	C 	0.20296 0.16001 0.97592 -0.00600
C 	C 	0.17602 0.14090 0.97407 -0.03800
C 	C 	0.17914 0.10822 0.98279 -0.03200
C 	C 	0.21014 0.09434 0.99211 0.07700
C 	C 	0.23708 0.11389 0.99434 -0.03900
H 	H 	0.15247 0.15164 0.96658 0.03800
H 	H 	0.26068 0.10351 0.00239 0.05200
H 	H 	0.19999 0.18523 0.96925 0.03400
N 	N 	0.21427 0.06243 0.99850 -0.19400
H 	H 	0.19517 0.04705 0.99489 0.08700
H 	H 	0.23707 0.05252 0.00622 0.08100
C 	C 	0.37261 0.10105 0.80013 0.10200
C 	C 	0.39274 0.10261 0.83416 -0.09100
C 	C 	0.38296 0.12071 0.86788 0.02800
C 	C 	0.35267 0.13724 0.86804 -0.08700
C 	C 	0.33244 0.13568 0.83386 0.02600
C 	C 	0.34228 0.11754 0.80014 -0.08700
H 	H 	0.41599 0.08970 0.83448 0.05900
H 	H 	0.39890 0.12178 0.89391 0.03800
H 	H 	0.30892 0.14810 0.83359 0.03700
H 	H 	0.32619 0.11594 0.77434 0.06200
N 	N 	0.38228 0.08136 0.76701 -0.08900
N 	N 	0.37401 0.08843 0.73165 -0.08600
C 	C 	0.40402 0.03057 0.63265 0.00200
C 	C 	0.37379 0.04708 0.63194 -0.02500
C 	C 	0.36399 0.06624 0.66476 -0.06700
C 	C 	0.38422 0.06892 0.69859 0.08400
C 	C 	0.41488 0.05307 0.69888 -0.06400
C 	C 	0.42469 0.03393 0.66609 -0.02600
H 	H 	0.35784 0.04493 0.60607 0.03800
H 	H 	0.34057 0.07880 0.66407 0.05200
H 	H 	0.43114 0.05576 0.72433 0.05600
H 	H 	0.44845 0.02198 0.66651 0.03700
C 	C 	0.41987 0.11186 0.26035 0.08400
C 	C 	0.41858 0.12783 0.29760 -0.06800
C 	C 	0.43824 0.11724 0.32979 -0.02500
C 	C 	0.45916 0.09034 0.32507 0.00200
C 	C 	0.45985 0.07380 0.28800 -0.02600
C 	C 	0.44028 0.08452 0.25578 -0.06400
H 	H 	0.40254 0.14864 0.30147 0.05100
H 	H 	0.43735 0.13004 0.35832 0.03800
H 	H 	0.47519 0.05247 0.28431 0.03600
H 	H 	0.44076 0.07148 0.22744 0.05500
N 	N 	0.39982 0.12286 0.22799 -0.08700
N 	N 	0.41019 0.12251 0.19243 -0.09000
C 	C 	0.35470 0.16026 0.09457 -0.10900
C 	C 	0.38001 0.13756 0.08769 0.03700
C 	C 	0.39788 0.12478 0.12027 -0.09700
C 	C 	0.39062 0.13441 0.15999 0.10400
C 	C 	0.36522 0.15712 0.16698 -0.09400
C 	C 	0.34724 0.16980 0.13443 0.03500
H 	H 	0.38589 0.12984 0.05711 0.03100
H 	H 	0.41755 0.10751 0.11464 0.06000
H 	H 	0.35976 0.16530 0.19746 0.06100
H 	H 	0.32802 0.18754 0.14015 0.02000
C 	C 	0.39726 0.33073 0.97374 0.05300
C 	C 	0.36850 0.32713 0.95178 -0.09000
C 	C 	0.35151 0.29907 0.95503 0.04500
C 	C 	0.36280 0.27436 0.98060 -0.14800
C 	C 	0.39273 0.27712 0.00124 0.14400
C 	C 	0.40967 0.30545 0.99770 -0.11600
H 	H 	0.32881 0.29703 0.93884 0.01400
H 	H 	0.43232 0.30792 0.01388 0.05700
H 	H 	0.35876 0.34649 0.93315 0.05100
N 	N 	0.40541 0.25268 0.02406 -0.20800
H 	H 	0.39450 0.23067 0.02526 0.09900
H 	H 	0.42704 0.25525 0.04004 0.08600
C 	C 	0.31021 0.59111 0.01437 0.05400
C 	C 	0.28910 0.58082 0.04459 -0.09200
C 	C 	0.26133 0.59919 0.05459 0.04900
C 	C 	0.25419 0.62797 0.03433 -0.15200
C 	C 	0.27458 0.63773 0.00231 0.14600
C 	C 	0.30296 0.61953 0.99336 -0.11900
H 	H 	0.24560 0.59132 0.07866 0.02300
H 	H 	0.31915 0.62727 0.96968 0.06100
H 	H 	0.29435 0.55865 0.06055 0.05200
N 	N 	0.26654 0.66379 0.97935 -0.20500
H 	H 	0.24406 0.67585 0.98229 0.09100
H 	H 	0.28231 0.67140 0.95679 0.08500
C 	C 	0.68001 0.41078 0.00458 0.05200
C 	C 	0.68271 0.38424 0.97891 -0.09200
C 	C 	0.70811 0.36170 0.98388 0.05600
C 	C 	0.73095 0.36511 0.01496 -0.16000
C 	C 	0.72733 0.39100 0.04245 0.15800
C 	C 	0.70241 0.41422 0.03612 -0.12800
H 	H 	0.71047 0.34186 0.96293 0.00700
H 	H 	0.70002 0.43458 0.05629 0.06200
H 	H 	0.66522 0.38120 0.95485 0.05000
N 	N 	0.74663 0.39291 0.07572 -0.20900
H 	H 	0.76193 0.37383 0.08464 0.10000
H 	H 	0.74494 0.41292 0.09457 0.08800
C 	C 	0.60539 0.67947 0.98457 0.06100
C 	C 	0.59340 0.70640 0.00569 -0.09600
C 	C 	0.61220 0.73327 0.00928 0.04700
C 	C 	0.64318 0.73364 0.99168 -0.14800
C 	C 	0.65523 0.70672 0.96960 0.14700
C 	C 	0.63612 0.67980 0.96627 -0.12600
H 	H 	0.60279 0.75377 0.02613 0.02100
H 	H 	0.64543 0.65891 0.95009 0.06100
H 	H 	0.56963 0.70639 0.01972 0.05200
N 	N 	0.68513 0.70638 0.95203 -0.20800
H 	H 	0.70007 0.72582 0.95415 0.07100
H 	H 	0.69378 0.68638 0.93590 0.08100
