data_crystal

_cell_length_a 27.56335
_cell_length_b 28.21935
_cell_length_c 26.40405
_cell_angle_alpha 95.53435
_cell_angle_beta  95.53653
_cell_angle_gamma 125.62489

_symmetry_space_group_name_	'P 1'
_symmetry_space_group_name_H-M	'P 1'

loop_
_symmetry_equiv_pos_as_xyz
  x,y,z

loop_
_atom_site_label
_atom_site_type_symbol
_atom_site_fract_x
_atom_site_fract_y
_atom_site_fract_z
_atom_site_charge
C 	C 	0.06109 0.03635 0.98522 0.14100
N 	N 	0.03468 0.06437 0.99046 -0.13700
N 	N 	0.98622 0.02016 0.43840 -0.13600
Cu	Cu	0.65086 0.25712 0.00349 0.93400
Cu	Cu	0.70396 0.26499 0.89615 0.88500
Cu	Cu	0.69089 0.35634 0.94205 0.90700
Cu	Cu	0.65319 0.36716 0.04248 0.90100
C 	C 	0.66340 0.29481 0.11194 0.29000
O 	O 	0.56227 0.22374 0.99994 -0.30800
C 	C 	0.67181 0.31972 0.82879 0.30200
O 	O 	0.70208 0.35005 0.01310 -0.64300
O 	O 	0.64724 0.26849 0.93092 -0.63700
O 	O 	0.68637 0.21274 0.99874 -0.33800
O 	O 	0.75763 0.27662 0.95494 -0.42500
O 	O 	0.63754 0.32042 0.09907 -0.34100
O 	O 	0.73772 0.44184 0.95743 -0.36600
C 	C 	0.73162 0.47282 0.99357 0.32000
C 	C 	0.54089 0.25111 0.98153 0.30800
O 	O 	0.57837 0.30722 0.97845 -0.36800
O 	O 	0.69164 0.44737 0.02426 -0.38200
O 	O 	0.66763 0.26159 0.07656 -0.30600
C 	C 	0.73871 0.23605 0.98390 0.31100
O 	O 	0.69368 0.36344 0.86863 -0.35700
O 	O 	0.66946 0.27245 0.83399 -0.35900
H 	H 	0.74502 0.37426 0.03111 0.17500
H 	H 	0.60588 0.24566 0.90970 0.21400
Cu	Cu	0.72514 0.32964 0.43852 0.93600
Cu	Cu	0.72090 0.28379 0.54875 0.88500
Cu	Cu	0.62721 0.29632 0.50329 0.90500
Cu	Cu	0.61272 0.32858 0.40093 0.90200
C 	C 	0.68310 0.31383 0.32990 0.29100
O 	O 	0.76103 0.41653 0.43900 -0.30600
C 	C 	0.66869 0.31926 0.61665 0.30100
O 	O 	0.63046 0.28170 0.43176 -0.63900
O 	O 	0.71684 0.33760 0.51182 -0.63800
O 	O 	0.76759 0.29151 0.44327 -0.33800
O 	O 	0.70362 0.22709 0.49130 -0.42600
O 	O 	0.65753 0.33983 0.34261 -0.34200
O 	O 	0.53963 0.25151 0.49042 -0.36400
C 	C 	0.50700 0.25436 0.45249 0.31200
C 	C 	0.73406 0.43930 0.45599 0.30600
O 	O 	0.67755 0.40398 0.46208 -0.37100
O 	O 	0.53251 0.29400 0.42226 -0.37700
O 	O 	0.71694 0.30944 0.36528 -0.30500
C 	C 	0.74287 0.24151 0.46054 0.30700
O 	O 	0.62301 0.29754 0.57759 -0.35800
O 	O 	0.71695 0.32181 0.61023 -0.35700
H 	H 	0.60464 0.23922 0.41515 0.17500
H 	H 	0.74129 0.37883 0.53149 0.21200
C 	C 	0.70893 0.37883 0.75946 0.05400
C 	C 	0.66135 0.32914 0.77612 0.00100
C 	C 	0.60811 0.28444 0.73983 -0.09700
C 	C 	0.60912 0.28369 0.68665 0.05300
C 	C 	0.66034 0.32959 0.66986 0.00100
C 	C 	0.70748 0.38066 0.70636 -0.09700
C 	C 	0.75804 0.43570 0.68914 0.78100
H 	H 	0.74856 0.41451 0.78756 0.07800
H 	H 	0.57162 0.24579 0.65849 0.07800
C 	C 	0.55161 0.23557 0.75728 0.78100
F 	F 	0.78260 0.48576 0.72654 -0.43900
F 	F 	0.73639 0.44385 0.64382 -0.45100
F 	F 	0.80346 0.43015 0.68109 -0.44800
F 	F 	0.54450 0.25703 0.80318 -0.45300
F 	F 	0.55613 0.19029 0.76443 -0.45000
F 	F 	0.50017 0.21268 0.72049 -0.43900
C 	C 	0.72771 0.34093 0.19924 0.04600
C 	C 	0.67445 0.29206 0.16680 0.00500
C 	C 	0.62870 0.24513 0.18833 -0.09200
C 	C 	0.63464 0.25122 0.24254 0.04600
C 	C 	0.68556 0.30252 0.27501 0.00500
C 	C 	0.73415 0.34651 0.25343 -0.09200
C 	C 	0.79172 0.40042 0.28810 0.77900
H 	H 	0.76292 0.37590 0.18214 0.06800
H 	H 	0.59836 0.21735 0.25964 0.06900
C 	C 	0.57263 0.18971 0.15364 0.77900
F 	F 	0.83509 0.43608 0.25978 -0.44400
F 	F 	0.81665 0.38233 0.32200 -0.43300
F 	F 	0.77831 0.43412 0.31609 -0.44300
F 	F 	0.58982 0.16434 0.11928 -0.43300
F 	F 	0.53929 0.20433 0.12614 -0.44100
F 	F 	0.53547 0.14760 0.18187 -0.44300
C 	C 	0.80508 0.61274 0.45427 0.01100
C 	C 	0.83707 0.64043 0.41547 -0.02400
C 	C 	0.79362 0.64334 0.49031 -0.02500
C 	C 	0.78106 0.55184 0.45535 0.06400
C 	C 	0.76091 0.50087 0.45634 -0.06200
H 	H 	0.84572 0.61694 0.38724 0.07100
H 	H 	0.76851 0.62208 0.52019 0.06100
C 	C 	0.79943 0.13672 0.44005 -0.00000
C 	C 	0.83498 0.14176 0.40338 -0.02200
C 	C 	0.78066 0.17493 0.44523 0.05800
C 	C 	0.76393 0.20591 0.45104 -0.09300
H 	H 	0.84676 0.17288 0.37740 0.05800
C 	C 	0.32416 0.15983 0.44574 0.00100
C 	C 	0.29777 0.18931 0.45363 -0.02100
C 	C 	0.23513 0.15669 0.45196 -0.03600
C 	C 	0.19870 0.09451 0.44239 0.02300
C 	C 	0.22506 0.06506 0.43420 -0.03600
C 	C 	0.28766 0.09766 0.43588 -0.02100
C 	C 	0.13450 0.06085 0.44194 0.01500
C 	C 	0.08064 0.03178 0.44138 -0.02800
C 	C 	0.38870 0.19329 0.44815 0.06000
C 	C 	0.44272 0.22110 0.45012 -0.08800
H 	H 	0.32573 0.23739 0.46123 0.05300
H 	H 	0.21504 0.17974 0.45834 0.05500
H 	H 	0.19715 0.01699 0.42679 0.05700
H 	H 	0.30777 0.07459 0.42969 0.05400
C 	C 	0.82068 0.64998 0.99718 0.00600
C 	C 	0.78976 0.58754 0.99596 0.06200
C 	C 	0.76352 0.53520 0.99498 -0.08800
H 	H 	0.74242 0.64755 0.00733 0.05200
C 	C 	0.83132 0.16572 0.00566 -0.00600
C 	C 	0.80091 0.10649 0.01158 -0.02100
C 	C 	0.83161 0.08081 0.01260 -0.03800
C 	C 	0.79816 0.19016 0.99868 0.06600
C 	C 	0.77091 0.21114 0.99277 -0.09700
H 	H 	0.75321 0.07998 0.01420 0.05500
H 	H 	0.80749 0.03465 0.01613 0.05500
C 	C 	0.23792 0.12499 0.96904 0.02800
C 	C 	0.25440 0.09759 0.93498 -0.03300
C 	C 	0.31578 0.12389 0.93452 -0.01900
C 	C 	0.36082 0.17768 0.96808 0.01400
C 	C 	0.34427 0.20613 0.00071 -0.02500
C 	C 	0.28295 0.17983 0.00120 -0.03900
C 	C 	0.42387 0.20202 0.97130 0.06800
C 	C 	0.47709 0.22370 0.97507 -0.06200
C 	C 	0.17549 0.09435 0.97447 0.01600
C 	C 	0.12321 0.06872 0.97905 -0.02700
H 	H 	0.21979 0.05523 0.90989 0.06000
H 	H 	0.32826 0.10183 0.90897 0.06500
H 	H 	0.37889 0.24791 0.02655 0.05500
H 	H 	0.27053 0.20130 0.02754 0.05500
C 	C 	0.97619 0.03360 0.99742 0.14500
C 	C 	0.85657 0.10746 0.40097 -0.03600
C 	C 	0.84271 0.06800 0.43522 0.02200
C 	C 	0.80576 0.06180 0.47089 -0.03800
C 	C 	0.78416 0.09606 0.47329 -0.02400
C 	C 	0.87059 0.03779 0.43670 0.01300
C 	C 	0.89434 0.01289 0.43737 -0.02800
H 	H 	0.88510 0.11251 0.37326 0.05500
H 	H 	0.79485 0.03145 0.49750 0.05300
H 	H 	0.75649 0.09173 0.50160 0.04800
H 	H 	0.90595 0.66668 0.98716 0.05600
C 	C 	0.89282 0.11427 0.00770 0.02200
C 	C 	0.92375 0.17403 0.00345 -0.04300
C 	C 	0.89305 0.19971 0.00243 -0.02600
C 	C 	0.92284 0.08639 0.00424 0.01400
C 	C 	0.94754 0.06261 0.00139 -0.03600
H 	H 	0.97115 0.20024 0.99989 0.05800
H 	H 	0.91688 0.24557 0.99795 0.05300
C 	C 	0.78958 0.67497 0.00306 -0.02600
C 	C 	0.88165 0.68572 0.99171 -0.02100
C 	C 	0.85780 0.69852 0.41285 -0.03200
C 	C 	0.81441 0.70152 0.48771 -0.03200
H 	H 	0.88301 0.71979 0.38302 0.05700
H 	H 	0.80593 0.72509 0.51601 0.05600
C 	C 	0.84664 0.72927 0.44900 0.02000
C 	C 	0.01657 0.99590 0.44096 0.13900
C 	C 	0.92568 0.98626 0.43865 0.13800
N 	N 	0.02915 0.97782 0.98709 -0.13500
N 	N 	0.98650 0.93779 0.44382 -0.13500
C 	C 	0.81927 0.73546 0.00314 -0.04100
H 	H 	0.79492 0.75447 0.00749 0.05400
N 	N 	0.94422 0.97491 0.99916 -0.13600
C 	C 	0.97080 0.94709 0.99405 0.14200
C 	C 	0.92606 0.90369 0.44412 0.14000
N 	N 	0.89544 0.92786 0.44156 -0.13500
C 	C 	0.87237 0.79069 0.44860 0.01600
C 	C 	0.89489 0.84199 0.44667 -0.02800
C 	C 	0.88013 0.77110 0.99734 0.02800
C 	C 	0.91131 0.74617 0.99179 -0.03600
C 	C 	0.91052 0.83308 0.99644 0.01500
C 	C 	0.93725 0.88512 0.99552 -0.02700
H 	H 	0.95841 0.77353 0.98732 0.05900
