data_crystal

_cell_length_a 20.48940
_cell_length_b 21.40726
_cell_length_c 39.02184
_cell_angle_alpha 60.79884
_cell_angle_beta  119.01507
_cell_angle_gamma 133.33749

_symmetry_space_group_name_	'P 1'
_symmetry_space_group_name_H-M	'P 1'

loop_
_symmetry_equiv_pos_as_xyz
  x,y,z

loop_
_atom_site_label
_atom_site_type_symbol
_atom_site_fract_x
_atom_site_fract_y
_atom_site_fract_z
_atom_site_charge
Co	Co	0.04405 0.99800 0.04698 1.19000
Co	Co	0.09185 0.87390 0.05463 1.17600
C 	C 	0.22942 0.06598 0.05058 0.33100
O 	O 	0.03321 0.09260 0.03861 -0.44700
C 	C 	0.07334 0.17253 0.13812 0.31100
C 	C 	0.14860 0.82581 0.14265 0.31400
O 	O 	0.18175 0.88461 0.11067 -0.38400
O 	O 	0.09057 0.82052 0.15231 -0.37200
O 	O 	0.02542 0.10663 0.16517 -0.39300
O 	O 	0.08297 0.15749 0.11195 -0.36600
O 	O 	0.03102 0.90024 0.07111 -0.74800
O 	O 	0.18261 0.00689 0.03060 -0.41700
O 	O 	0.18621 0.07049 0.06460 -0.39600
Co	Co	0.03784 0.11398 0.57951 1.19700
Co	Co	0.10728 0.05550 0.54595 1.18200
Co	Co	0.13829 0.92011 0.55041 1.17300
C 	C 	0.28930 0.11048 0.54855 0.32500
O 	O 	0.10343 0.15387 0.53933 -0.45200
C 	C 	0.11931 0.21738 0.64111 0.31200
C 	C 	0.17803 0.85384 0.63881 0.31200
O 	O 	0.21747 0.91789 0.60881 -0.39100
O 	O 	0.10795 0.83754 0.64477 -0.36200
O 	O 	0.05654 0.14640 0.66175 -0.37800
O 	O 	0.13212 0.21359 0.61169 -0.36600
O 	O 	0.08971 0.95570 0.56900 -0.75100
O 	O 	0.23932 0.04988 0.52901 -0.41900
O 	O 	0.24962 0.12654 0.55841 -0.38100
C 	C 	0.05873 0.94874 0.89262 -0.04800
S 	S 	0.14626 0.93056 0.97209 -0.05700
H 	H 	0.09932 0.93672 0.88987 0.05800
C 	C 	0.05295 0.02564 0.79627 -0.00100
C 	C 	0.04601 0.01460 0.76169 0.00300
S 	S 	0.14348 0.12803 0.80936 -0.01500
H 	H 	0.09608 0.06925 0.74350 0.05700
H 	H 	0.11556 0.18207 0.79061 0.04500
C 	C 	0.03049 0.97781 0.32609 0.02600
C 	C 	0.07289 0.04658 0.29389 -0.00400
C 	C 	0.06663 0.02604 0.26281 -0.02200
S 	S 	0.12643 0.15756 0.29002 -0.03000
H 	H 	0.10107 0.07910 0.23880 0.05500
C 	C 	0.13088 0.06731 0.41635 0.05500
C 	C 	0.12352 0.04903 0.38421 -0.08000
S 	S 	0.23974 0.14820 0.43976 -0.04400
H 	H 	0.18558 0.07644 0.37757 0.05900
H 	H 	0.06241 0.17539 0.26871 0.04800
C 	C 	0.23310 0.39031 0.69327 -0.08600
C 	C 	0.20631 0.31603 0.68662 0.18300
C 	C 	0.16684 0.30393 0.64718 -0.11000
H 	H 	0.26664 0.40074 0.72352 0.07300
O 	O 	0.21774 0.25473 0.71879 -0.28900
H 	H 	0.28006 0.27476 0.72167 0.15400
C 	C 	0.17543 0.66134 0.66289 -0.09000
C 	C 	0.14266 0.70509 0.65897 0.18400
C 	C 	0.20530 0.79296 0.66281 -0.11400
C 	C 	0.29948 0.82892 0.67885 -0.04200
H 	H 	0.12658 0.59678 0.65638 0.08100
O 	O 	0.04951 0.66420 0.64850 -0.28000
C 	C 	0.11313 0.26346 0.13645 -0.11100
C 	C 	0.12488 0.39969 0.09739 -0.08700
C 	C 	0.11009 0.32379 0.09908 0.18700
H 	H 	0.12526 0.44698 0.06860 0.07700
O 	O 	0.09727 0.31131 0.06443 -0.28000
H 	H 	0.02975 0.27730 0.05288 0.15600
C 	C 	0.25888 0.78594 0.17837 0.18400
C 	C 	0.16695 0.75798 0.16424 -0.11300
C 	C 	0.09653 0.67184 0.15832 -0.04500
C 	C 	0.11775 0.62410 0.15587 0.14300
H 	H 	0.02510 0.64527 0.15189 0.08300
O 	O 	0.04746 0.54503 0.14500 -0.26000
H 	H 	0.03208 0.56085 0.11502 0.15500
N 	N 	0.17871 0.53933 0.14722 -0.12400
N 	N 	0.25194 0.57767 0.67020 -0.13800
C 	C 	0.22366 0.45456 0.66069 -0.04200
C 	C 	0.15456 0.36671 0.61478 -0.04400
C 	C 	0.27098 0.70284 0.67327 -0.03700
C 	C 	0.13353 0.28178 0.17187 -0.04500
C 	C 	0.14835 0.41933 0.13299 -0.03400
C 	C 	0.21112 0.65852 0.16424 -0.03600
C 	C 	0.23840 0.62386 0.15205 0.13400
C 	C 	0.20320 0.51289 0.13267 0.13700
C 	C 	0.28440 0.54509 0.66526 0.14700
O 	O 	0.04972 0.00318 0.59850 -0.57800
C 	C 	0.05766 0.99914 0.47237 0.30800
O 	O 	0.04934 0.03907 0.48627 -0.38200
O 	O 	0.03992 0.78688 0.56858 -0.38900
C 	C 	0.06716 0.94833 0.93048 0.05400
C 	C 	0.03675 0.99759 0.35996 0.03400
C 	C 	0.05125 0.02307 0.42874 -0.08800
C 	C 	0.18058 0.44050 0.62152 0.14800
H 	H 	0.12237 0.35704 0.58445 0.08300
O 	O 	0.16984 0.50220 0.58934 -0.27000
H 	H 	0.10793 0.48296 0.58657 0.15800
C 	C 	0.14953 0.35817 0.17018 0.14000
H 	H 	0.13564 0.23586 0.20083 0.06100
H 	H 	0.24427 0.18971 0.97014 0.15600
C 	C 	0.28050 0.73565 0.17899 -0.08900
O 	O 	0.00704 0.99174 0.98664 -0.36000
O 	O 	0.00737 0.73992 0.07816 -0.39900
O 	O 	0.05105 0.92576 0.49454 -0.38700
C 	C 	0.01233 0.96127 0.93484 -0.06900
H 	H 	0.10310 0.84156 0.98930 0.02600
O 	O 	0.16923 0.37424 0.20521 -0.27200
C 	C 	0.00281 0.93812 0.97580 0.31100
H 	H 	0.23714 0.40659 0.21560 0.14900
H 	H 	0.03099 0.63333 0.67447 0.15800
Co	Co	0.02151 0.87802 0.60185 1.19300
N 	N 	0.28615 0.57010 0.12347 -0.13700
H 	H 	0.25673 0.22961 0.41915 0.04100
O 	O 	0.28984 0.22851 0.98929 -0.27800
O 	O 	0.01477 0.36382 0.50745 -0.27100
H 	H 	0.01618 0.37996 0.47917 0.15800
C 	C 	0.00706 0.93795 0.25996 -0.04900
C 	C 	0.30644 0.66542 0.66912 0.14000
O 	O 	0.99385 0.86559 0.00144 -0.41400
C 	C 	0.99758 0.96292 0.85841 -0.00700
H 	H 	0.32772 0.27714 0.48479 0.15100
Co	Co	0.97602 0.05407 0.08192 1.17000
C 	C 	0.96428 0.97580 0.40322 0.00100
O 	O 	0.98996 0.91750 0.19885 -0.38900
H 	H 	0.92872 0.78752 0.46659 0.15100
C 	C 	0.33260 0.78424 0.68433 0.13900
C 	C 	0.95674 0.96468 0.36841 -0.02000
H 	H 	0.92315 0.09352 0.80128 0.03500
O 	O 	0.37899 0.29766 0.50868 -0.27900
O 	O 	0.88515 0.92330 0.20047 -0.38500
C 	C 	0.95643 0.92068 0.21914 0.28500
C 	C 	0.94270 0.94110 0.70502 0.30900
O 	O 	0.97539 0.92534 0.69049 -0.38300
C 	C 	0.98591 0.95620 0.81925 0.01700
C 	C 	0.97040 0.93648 0.74848 -0.09800
O 	O 	0.32868 0.86642 0.18795 -0.28000
H 	H 	0.33695 0.85373 0.21727 0.15500
H 	H 	0.34802 0.89449 0.68432 0.06300
H 	H 	0.35209 0.75985 0.18851 0.07700
C 	C 	0.41792 0.25571 0.52029 0.18800
C 	C 	0.38765 0.17449 0.54915 -0.11700
C 	C 	0.32624 0.13613 0.04976 -0.11800
O 	O 	0.88639 0.96306 0.68088 -0.40700
C 	C 	0.68632 0.26493 0.01657 0.13800
N 	N 	0.74970 0.34891 0.02202 -0.13800
C 	C 	0.72124 0.39062 0.02205 0.14600
N 	N 	0.63068 0.34850 0.01702 -0.14000
C 	C 	0.56922 0.26225 0.01650 0.14000
N 	N 	0.59631 0.22055 0.01534 -0.13500
C 	C 	0.75124 0.33032 0.50662 0.13500
N 	N 	0.66112 0.27849 0.50799 -0.12700
C 	C 	0.62672 0.31460 0.50830 0.14200
N 	N 	0.68024 0.40233 0.50469 -0.14300
C 	C 	0.77151 0.45184 0.50833 0.14000
N 	N 	0.80778 0.41629 0.50912 -0.13800
N 	N 	0.32414 0.67807 0.14528 -0.14100
C 	C 	0.34795 0.65078 0.13126 0.14500
N 	N 	0.39115 0.72018 0.66119 -0.13900
C 	C 	0.42347 0.68681 0.65700 0.14700
N 	N 	0.37051 0.59944 0.65962 -0.13100
Co	Co	0.98045 0.82915 0.11050 1.17800
Co	Co	0.90878 0.88413 0.14325 1.18500
C 	C 	0.91923 0.69758 0.07314 0.30900
Co	Co	0.88690 0.01605 0.14633 1.16100
O 	O 	0.92178 0.98074 0.11992 -0.75800
O 	O 	0.91474 0.78715 0.15083 -0.46600
O 	O 	0.94667 0.92717 0.08601 -0.58400
C 	C 	0.71891 0.83752 0.13118 0.31600
O 	O 	0.75305 0.92131 0.12302 -0.37000
O 	O 	0.77219 0.81024 0.14638 -0.37400
C 	C 	0.84983 0.10293 0.05879 0.31900
O 	O 	0.88731 0.11456 0.09537 -0.41500
O 	O 	0.87400 0.07569 0.04599 -0.39300
O 	O 	0.88999 0.72134 0.08504 -0.38400
Co	Co	0.93714 0.93111 0.62906 1.18700
C 	C 	0.95298 0.75481 0.55812 0.31000
Co	Co	0.92186 0.07093 0.63168 1.16000
O 	O 	0.97349 0.03744 0.61368 -0.78000
O 	O 	0.93647 0.83119 0.63418 -0.46500
C 	C 	0.75599 0.90665 0.60571 0.31600
O 	O 	0.79421 0.99138 0.59767 -0.38500
O 	O 	0.79701 0.87977 0.60430 -0.38400
C 	C 	0.92205 0.17741 0.54717 0.32100
O 	O 	0.94902 0.18192 0.58425 -0.41800
O 	O 	0.93837 0.13734 0.53841 -0.39800
O 	O 	0.92769 0.78994 0.56468 -0.38800
C 	C 	0.94661 0.98095 0.86189 0.02000
C 	C 	0.95430 0.98014 0.90004 -0.02400
S 	S 	0.87329 0.00456 0.81894 -0.05800
H 	H 	0.91239 0.99062 0.90276 0.05300
C 	C 	0.90665 0.86524 0.77285 0.05900
C 	C 	0.91449 0.87546 0.80791 -0.07300
S 	S 	0.81612 0.76319 0.75952 -0.04000
H 	H 	0.86508 0.82047 0.82640 0.06000
H 	H 	0.84528 0.71061 0.77635 0.04500
C 	C 	0.98504 0.88982 0.32689 -0.07500
C 	C 	0.97134 0.86953 0.29363 0.03900
S 	S 	0.90603 0.75816 0.29369 -0.03200
H 	H 	0.95721 0.83689 0.35261 0.05300
S 	S 	0.84739 0.91068 0.33566 -0.02000
H 	H 	0.90228 0.94339 0.41162 0.04900
H 	H 	0.96374 0.73366 0.30977 0.04000
H 	H 	0.80694 0.82164 0.34745 0.04100
C 	C 	0.51062 0.74599 0.64484 -0.04200
C 	C 	0.52005 0.80915 0.60779 -0.08800
C 	C 	0.59654 0.85672 0.59274 0.18500
C 	C 	0.66475 0.84142 0.61493 -0.11400
C 	C 	0.65320 0.77557 0.65114 -0.04100
C 	C 	0.57757 0.72916 0.66654 0.14300
H 	H 	0.46703 0.82009 0.59019 0.07300
O 	O 	0.60360 0.91680 0.55592 -0.27700
H 	H 	0.70534 0.76345 0.66841 0.06000
O 	O 	0.56823 0.66616 0.70248 -0.27200
H 	H 	0.59988 0.69808 0.72352 0.15100
H 	H 	0.63126 0.97211 0.56156 0.15300
O 	O 	0.42449 0.81921 0.70126 -0.27000
H 	H 	0.45585 0.86413 0.67875 0.15200
C 	C 	0.62120 0.77197 0.13147 -0.11100
C 	C 	0.55570 0.76960 0.09482 -0.03800
C 	C 	0.46792 0.73561 0.09447 0.14500
C 	C 	0.44411 0.70112 0.13108 -0.04300
C 	C 	0.50785 0.69902 0.16779 -0.08600
C 	C 	0.59558 0.73291 0.16811 0.18300
H 	H 	0.57482 0.79921 0.06646 0.06000
O 	O 	0.40488 0.73484 0.05835 -0.27400
H 	H 	0.48876 0.66964 0.19614 0.07000
O 	O 	0.65879 0.73427 0.20424 -0.28200
H 	H 	0.65116 0.67833 0.21210 0.15500
H 	H 	0.41477 0.79210 0.05007 0.15200
C 	C 	0.78945 0.29232 0.50449 -0.03900
C 	C 	0.88201 0.34702 0.50226 -0.08500
C 	C 	0.92298 0.31003 0.50706 0.16100
C 	C 	0.87327 0.21744 0.51624 -0.11200
C 	C 	0.77735 0.16527 0.51069 -0.05000
C 	C 	0.73538 0.20124 0.50604 0.13800
H 	H 	0.92332 0.41784 0.49809 0.07000
H 	H 	0.73669 0.09469 0.51445 0.06400
O 	O 	0.64210 0.14749 0.50269 -0.27200
H 	H 	0.63474 0.11773 0.53087 0.14300
C 	C 	0.83092 0.53387 0.52123 -0.04400
C 	C 	0.83898 0.60964 0.49202 -0.08800
C 	C 	0.86473 0.67830 0.50328 0.17600
C 	C 	0.88484 0.67272 0.54427 -0.10500
C 	C 	0.87013 0.59423 0.57297 -0.04300
C 	C 	0.84806 0.52723 0.56203 0.14500
H 	H 	0.82111 0.61363 0.46028 0.06600
O 	O 	0.86954 0.75057 0.47407 -0.28400
H 	H 	0.88164 0.58745 0.60438 0.06800
O 	O 	0.84046 0.45372 0.59119 -0.27900
H 	H 	0.77550 0.41187 0.59356 0.15400
C 	C 	0.53753 0.25869 0.51871 -0.04000
C 	C 	0.48832 0.29438 0.50337 -0.09100
C 	C 	0.44048 0.14205 0.56664 -0.04300
C 	C 	0.51428 0.18290 0.55126 0.14000
H 	H 	0.50786 0.35486 0.47956 0.07400
H 	H 	0.41961 0.08086 0.59005 0.05300
O 	O 	0.56540 0.15052 0.56905 -0.27900
H 	H 	0.53261 0.10390 0.55538 0.14400
C 	C 	0.79031 0.13253 0.03084 -0.11800
C 	C 	0.83210 0.22216 0.01011 -0.04200
C 	C 	0.79680 0.26579 0.00363 0.13100
C 	C 	0.71657 0.21831 0.01651 -0.03600
C 	C 	0.66668 0.12569 0.03083 -0.08800
C 	C 	0.70223 0.08270 0.03700 0.16600
H 	H 	0.89605 0.25981 0.00196 0.04900
O 	O 	0.83948 0.35380 0.98395 -0.26300
H 	H 	0.60242 0.08727 0.03893 0.07500
O 	O 	0.65533 0.99309 0.05325 -0.27300
H 	H 	0.61577 0.96621 0.02974 0.15100
H 	H 	0.89053 0.38635 0.00511 0.14200
C 	C 	0.85499 0.61630 0.05927 -0.11600
C 	C 	0.84090 0.62373 0.01888 -0.05400
C 	C 	0.80901 0.55273 0.00734 0.13700
C 	C 	0.78755 0.47209 0.03593 -0.04600
C 	C 	0.80303 0.46512 0.07644 -0.08900
C 	C 	0.83325 0.53554 0.08783 0.18300
H 	H 	0.85882 0.68614 0.99672 0.06700
O 	O 	0.79366 0.56059 0.96755 -0.27000
H 	H 	0.78531 0.40274 0.09860 0.07000
O 	O 	0.84517 0.52647 0.12733 -0.29300
H 	H 	0.78533 0.50434 0.12904 0.15600
H 	H 	0.85233 0.58221 0.96480 0.14800
C 	C 	0.48090 0.21137 0.02588 -0.04000
C 	C 	0.42310 0.23876 0.00164 -0.09500
C 	C 	0.34710 0.20265 0.01381 0.18700
C 	C 	0.38992 0.11648 0.07611 -0.04500
C 	C 	0.46597 0.15236 0.06401 0.14100
H 	H 	0.43763 0.28875 0.97345 0.08100
H 	H 	0.37559 0.06674 0.10437 0.06700
O 	O 	0.52496 0.12878 0.08927 -0.27600
H 	H 	0.57308 0.17270 0.10599 0.14900
