data_crystal

_cell_length_a 17.97375
_cell_length_b 16.72435
_cell_length_c 61.83710
_cell_angle_alpha 89.54715
_cell_angle_beta  89.54958
_cell_angle_gamma 119.50112

_symmetry_space_group_name_	'P 1'
_symmetry_space_group_name_H-M	'P 1'

loop_
_symmetry_equiv_pos_as_xyz
  x,y,z

loop_
_atom_site_label
_atom_site_type_symbol
_atom_site_fract_x
_atom_site_fract_y
_atom_site_fract_z
_atom_site_charge
Ni	Ni	0.36767 0.86444 0.01551 1.12400
O 	O 	0.42381 0.79544 0.01051 -0.71900
H 	H 	0.37430 0.73634 0.00661 0.17500
O 	O 	0.11474 0.57257 0.00338 -0.10400
C 	C 	0.63225 0.86496 0.01383 0.31400
O 	O 	0.48648 0.66699 0.01578 -0.36800
H 	H 	0.69509 0.74647 0.00973 0.04600
N 	N 	0.68308 0.12888 0.00630 -0.02000
H 	H 	0.57327 0.58522 0.01162 0.06300
O 	O 	0.58409 0.86565 0.02960 -0.37400
C 	C 	0.73116 0.80465 0.02007 0.02200
C 	C 	0.71771 0.88042 0.01921 -0.08400
H 	H 	0.76472 0.01922 0.03000 0.05500
O 	O 	0.64781 0.09581 0.02510 -0.10000
C 	C 	0.27669 0.69047 0.04414 0.29900
O 	O 	0.33426 0.66446 0.04007 -0.36600
O 	O 	0.29215 0.77603 0.03986 -0.37000
O 	O 	0.45550 0.94620 0.03709 -0.37800
Ni	Ni	0.46208 0.75756 0.03441 1.11400
C 	C 	0.78084 0.79783 0.03657 -0.06900
C 	C 	0.77094 0.95822 0.03130 0.02800
C 	C 	0.45858 0.91613 0.05648 0.31200
H 	H 	0.17721 0.50514 0.04365 0.05300
H 	H 	0.49393 0.09435 0.05735 0.04800
C 	C 	0.81915 0.86813 0.05182 0.04700
C 	C 	0.81995 0.95167 0.04793 -0.06400
H 	H 	0.78308 0.73467 0.03865 0.06200
O 	O 	0.44671 0.83260 0.05917 -0.37500
C 	C 	0.20583 0.63251 0.05905 -0.07400
C 	C 	0.16731 0.53654 0.05784 0.02200
H 	H 	0.85147 0.00834 0.05895 0.05200
C 	C 	0.19012 0.67191 0.07728 0.01900
C 	C 	0.12279 0.48144 0.07569 -0.06700
H 	H 	0.21849 0.74584 0.07834 0.03900
H 	H 	0.09970 0.40822 0.07517 0.05100
C 	C 	0.45865 0.96908 0.07550 -0.08300
C 	C 	0.47202 0.05881 0.07278 0.01400
C 	C 	0.83786 0.84550 0.07372 -0.04800
C 	C 	0.45220 0.10078 0.08959 -0.06900
H 	H 	0.45776 0.16762 0.08691 0.05300
C 	C 	0.89281 0.91102 0.08702 -0.05000
H 	H 	0.93941 0.97794 0.08051 0.04700
H 	H 	0.80073 0.77513 0.07971 0.04700
C 	C 	0.11456 0.52183 0.09477 0.04400
C 	C 	0.14508 0.61679 0.09510 -0.07000
H 	H 	0.98355 0.35263 0.10208 0.05700
C 	C 	0.43436 0.92620 0.09596 0.01800
H 	H 	0.42571 0.85798 0.09853 0.03700
C 	C 	0.08865 0.46866 0.11533 -0.04600
H 	H 	0.13815 0.64856 0.10961 0.04800
C 	C 	0.42102 0.05460 0.10942 0.04100
C 	C 	0.41535 0.96860 0.11280 -0.06700
C 	C 	0.88985 0.89431 0.11069 0.04700
H 	H 	0.02721 0.96545 0.11376 0.04600
C 	C 	0.02228 0.38257 0.11631 -0.06400
C 	C 	0.38009 0.08797 0.12491 -0.04900
H 	H 	0.39137 0.93223 0.12808 0.04800
H 	H 	0.33002 0.10101 0.11916 0.04300
H 	H 	0.99376 0.20827 0.11676 0.05000
C 	C 	0.81116 0.85141 0.12200 -0.07300
C 	C 	0.96621 0.93063 0.12225 -0.07000
H 	H 	0.75168 0.82554 0.11334 0.05100
C 	C 	0.99343 0.23361 0.13281 -0.06700
C 	C 	0.00791 0.32328 0.13552 0.04500
H 	H 	0.12634 0.49929 0.12967 0.04200
C 	C 	0.39644 0.09143 0.14614 -0.05400
H 	H 	0.31598 0.19405 0.14724 0.04900
C 	C 	0.80913 0.84441 0.14459 0.02200
C 	C 	0.96425 0.92360 0.14483 0.02600
C 	C 	0.97847 0.17634 0.15080 0.02300
C 	C 	0.00690 0.35516 0.15643 -0.08700
H 	H 	0.44865 0.08135 0.15162 0.04500
H 	H 	0.96656 0.10688 0.14848 0.03400
C 	C 	0.88568 0.88089 0.15616 -0.09000
H 	H 	0.74808 0.81126 0.15307 0.03600
H 	H 	0.02388 0.95344 0.15353 0.03100
H 	H 	0.01587 0.42351 0.15870 0.05100
C 	C 	0.33359 0.08731 0.16229 0.04900
C 	C 	0.29458 0.14184 0.15986 -0.07600
C 	C 	0.97714 0.20791 0.17168 -0.09300
C 	C 	0.99237 0.29798 0.17444 0.03600
C 	C 	0.30832 0.02360 0.17943 -0.07900
C 	C 	0.22631 0.12740 0.17340 0.01900
H 	H 	0.19467 0.16750 0.17083 0.03400
H 	H 	0.33913 0.98246 0.18168 0.05100
C 	C 	0.88429 0.87764 0.18008 0.30100
C 	C 	0.19808 0.06019 0.18992 -0.09100
C 	C 	0.95054 0.14353 0.19018 0.30800
O 	O 	0.88069 0.06385 0.18846 -0.38000
H 	H 	0.99013 0.32263 0.19045 0.03600
C 	C 	0.24084 0.00983 0.19313 0.01900
O 	O 	0.81731 0.86912 0.19089 -0.37200
O 	O 	0.94840 0.87801 0.19034 -0.37700
C 	C 	0.12336 0.04159 0.20360 0.30200
O 	O 	0.09753 0.10273 0.20443 -0.39900
H 	H 	0.22126 0.95924 0.20609 0.03900
O 	O 	0.98408 0.17373 0.20922 -0.37800
O 	O 	0.09055 0.97008 0.21689 -0.38700
Ni	Ni	0.82878 0.96673 0.21323 1.11200
Ni	Ni	0.02495 0.10578 0.22889 1.11500
Ni	Ni	0.96405 0.89190 0.22284 1.12100
O 	O 	0.84121 0.78811 0.22807 -0.37300
O 	O 	0.93180 0.98461 0.22497 -0.70900
O 	O 	0.75996 0.85813 0.23452 -0.37700
C 	C 	0.78219 0.79569 0.23953 0.28800
O 	O 	0.82820 0.06225 0.23516 -0.36300
H 	H 	0.91123 0.97037 0.24001 0.13600
H 	H 	0.61254 0.68312 0.23507 0.03400
O 	O 	0.08026 0.06289 0.25139 -0.38200
O 	O 	0.95919 0.12953 0.25218 -0.37200
O 	O 	0.99121 0.90538 0.25462 -0.37800
C 	C 	0.63675 0.67401 0.25034 0.02400
C 	C 	0.87461 0.08678 0.25308 0.28500
C 	C 	0.03715 0.98742 0.26360 0.27800
C 	C 	0.72501 0.71984 0.25403 -0.08400
C 	C 	0.57927 0.62330 0.26696 -0.07300
H 	H 	0.51150 0.59559 0.26441 0.04900
C 	C 	0.83309 0.05937 0.27444 -0.09000
C 	C 	0.75562 0.70623 0.27370 0.01500
H 	H 	0.82371 0.74109 0.27669 0.03000
H 	H 	0.81450 0.92182 0.27332 0.02600
H 	H 	0.84441 0.19109 0.28140 0.03300
C 	C 	0.82097 0.97664 0.28363 0.01800
C 	C 	0.83816 0.12811 0.28819 0.02500
C 	C 	0.05356 0.99255 0.28710 -0.07800
H 	H 	0.10138 0.13913 0.28890 0.03400
H 	H 	0.00519 0.84647 0.29136 0.03500
C 	C 	0.60965 0.61544 0.28733 0.04800
C 	C 	0.69815 0.65404 0.29028 -0.07200
H 	H 	0.44549 0.47904 0.29043 0.04300
O 	O 	0.75655 0.13573 0.00142 -0.10500
C 	C 	0.09047 0.07769 0.29758 0.01100
C 	C 	0.03560 0.91300 0.29899 0.01200
H 	H 	0.32554 0.53036 0.30071 0.04900
C 	C 	0.83207 0.97047 0.30581 -0.07000
C 	C 	0.55167 0.58377 0.30653 -0.05000
C 	C 	0.46920 0.51782 0.30520 -0.05100
H 	H 	0.72251 0.64818 0.30584 0.05100
C 	C 	0.84884 0.12209 0.31043 -0.07200
C 	C 	0.11593 0.08426 0.31912 -0.07300
C 	C 	0.06072 0.91953 0.32052 -0.06800
C 	C 	0.33835 0.52131 0.31738 -0.07400
H 	H 	0.83210 0.91015 0.31234 0.05200
C 	C 	0.85175 0.04560 0.31910 0.04800
H 	H 	0.86219 0.18017 0.32052 0.05300
C 	C 	0.40729 0.50750 0.32235 0.04700
H 	H 	0.57552 0.61917 0.32174 0.04800
C 	C 	0.10312 0.00564 0.33056 0.04000
H 	H 	0.14785 0.15086 0.32672 0.04700
H 	H 	0.05101 0.85820 0.32903 0.04900
C 	C 	0.28966 0.53008 0.33401 0.02200
H 	H 	0.23985 0.54622 0.33008 0.03300
C 	C 	0.89296 0.05224 0.34017 -0.04800
H 	H 	0.94088 0.03070 0.34128 0.04900
C 	C 	0.42171 0.49328 0.34395 -0.07000
H 	H 	0.47296 0.47950 0.34793 0.05500
C 	C 	0.14638 0.01560 0.35148 -0.05600
H 	H 	0.21148 0.07147 0.35327 0.04900
C 	C 	0.87781 0.09178 0.35718 -0.05500
H 	H 	0.05264 0.18337 0.35438 0.05200
H 	H 	0.82265 0.10217 0.35716 0.04900
H 	H 	0.27284 0.97765 0.35994 0.05500
C 	C 	0.30928 0.52427 0.35567 -0.08500
C 	C 	0.11043 0.95063 0.36706 -0.04300
H 	H 	0.04156 0.90515 0.36715 0.04400
C 	C 	0.37296 0.50183 0.36055 0.01600
C 	C 	0.02789 0.18442 0.37033 -0.08700
C 	C 	0.93982 0.13098 0.37500 0.06500
C 	C 	0.24124 0.93700 0.37426 -0.06600
C 	C 	0.27404 0.55603 0.37291 0.28500
O 	O 	0.19026 0.51091 0.37704 -0.38100
C 	C 	0.16300 0.92800 0.38164 0.05300
H 	H 	0.33014 0.88666 0.37698 0.03700
H 	H 	0.38697 0.49467 0.37722 0.03900
H 	H 	0.14862 0.29383 0.38099 0.02800
C 	C 	0.08257 0.24708 0.38548 0.02800
C 	C 	0.27392 0.88514 0.38393 0.03300
O 	O 	0.32521 0.63575 0.38224 -0.37300
O 	O 	0.19374 0.67023 0.39158 -0.38800
C 	C 	0.90982 0.13214 0.39593 -0.08000
Ni	Ni	0.13913 0.54054 0.40292 1.12000
H 	H 	0.84261 0.08950 0.39996 0.06000
C 	C 	0.22818 0.82283 0.40069 -0.08200
C 	C 	0.12526 0.87690 0.40064 -0.06300
C 	C 	0.23814 0.74175 0.40381 0.30700
C 	C 	0.04952 0.25785 0.40516 -0.09600
H 	H 	0.06667 0.87174 0.40699 0.06000
O 	O 	0.06271 0.40550 0.41103 -0.37700
H 	H 	0.23846 0.50169 0.41273 0.14200
C 	C 	0.96469 0.19492 0.41103 0.04300
C 	C 	0.15746 0.82400 0.41006 0.03000
C 	C 	0.09156 0.34794 0.41541 0.29100
Ni	Ni	0.33824 0.65125 0.41477 1.12300
O 	O 	0.30296 0.74861 0.41501 -0.38100
O 	O 	0.38966 0.56713 0.41660 -0.36400
O 	O 	0.22884 0.54729 0.42033 -0.71400
H 	H 	0.12318 0.77815 0.42350 0.04100
H 	H 	0.32869 0.33422 0.41993 0.05700
O 	O 	0.08630 0.57838 0.42732 -0.38200
H 	H 	0.93907 0.20087 0.42648 0.03900
O 	O 	0.42262 0.18313 0.42478 -0.08300
C 	C 	0.14933 0.05047 0.73867 0.27600
C 	C 	0.08324 0.89679 0.68929 0.30800
Ni	Ni	0.97864 0.88735 0.72864 1.11200
Ni	Ni	0.07596 0.06710 0.69658 1.11600
O 	O 	0.08206 0.97719 0.74729 -0.36300
O 	O 	0.16083 0.06075 0.71736 -0.38300
O 	O 	0.07021 0.87606 0.71004 -0.37000
O 	O 	0.06368 0.95591 0.68059 -0.38700
O 	O 	0.98258 0.99148 0.71537 -0.69900
H 	H 	0.00134 0.03137 0.72805 0.13300
C 	C 	0.06095 0.53367 0.44598 0.30500
Ni	Ni	0.20244 0.48902 0.44763 1.11800
O 	O 	0.14483 0.36337 0.43165 -0.36400
O 	O 	0.24574 0.60983 0.46489 -0.34700
O 	O 	0.07965 0.46923 0.45094 -0.35700
C 	C 	0.51108 0.00967 0.99034 0.30800
C 	C 	0.30557 0.77149 0.97403 0.29600
O 	O 	0.28277 0.79320 0.99262 -0.36300
O 	O 	0.38682 0.81584 0.96697 -0.36300
O 	O 	0.42784 0.96758 0.99370 -0.37500
O 	O 	0.40327 0.67645 0.50194 -0.08400
C 	C 	0.92756 0.54264 0.45019 -0.03100
C 	C 	0.99871 0.54382 0.45966 -0.06200
C 	C 	0.00027 0.53494 0.48231 0.08300
N 	N 	0.07794 0.55558 0.49292 -0.02000
H 	H 	0.92835 0.55755 0.43308 0.06600
O 	O 	0.13756 0.64064 0.49492 -0.09300
O 	O 	0.08500 0.49053 0.50269 -0.10900
C 	C 	0.23857 0.83495 0.64834 0.05000
C 	C 	0.25811 0.85157 0.67034 -0.07600
C 	C 	0.20371 0.86508 0.68425 0.02300
C 	C 	0.12958 0.86217 0.67620 -0.09300
C 	C 	0.10611 0.83679 0.65470 0.02400
C 	C 	0.16003 0.82225 0.64088 -0.07600
H 	H 	0.31770 0.85926 0.67637 0.05100
H 	H 	0.22175 0.88318 0.70093 0.03800
H 	H 	0.04798 0.83223 0.64846 0.03400
H 	H 	0.14366 0.80760 0.62400 0.05100
C 	C 	0.09288 0.57884 0.95621 -0.02500
C 	C 	0.15740 0.68845 0.92647 0.10100
C 	C 	0.23275 0.73627 0.93840 -0.02600
C 	C 	0.23717 0.70813 0.95954 -0.06400
C 	C 	0.16853 0.62586 0.96796 0.09900
N 	N 	0.17420 0.59183 0.98887 -0.02100
H 	H 	0.28674 0.79699 0.93142 0.07300
O 	O 	0.23650 0.57581 0.99304 -0.09600
O 	O 	0.38496 0.56745 0.93709 -0.09800
O 	O 	0.31518 0.48689 0.96698 -0.08100
C 	C 	0.42093 0.31942 0.79017 -0.05300
C 	C 	0.35203 0.24610 0.77759 0.04800
C 	C 	0.26694 0.20721 0.78481 -0.07500
C 	C 	0.20099 0.13981 0.77262 0.01600
C 	C 	0.21939 0.11253 0.75280 -0.08500
C 	C 	0.30479 0.15067 0.74573 0.01900
C 	C 	0.37077 0.21720 0.75806 -0.07500
H 	H 	0.41561 0.37930 0.79446 0.04500
H 	H 	0.25185 0.22956 0.79980 0.04800
H 	H 	0.13543 0.11188 0.77811 0.02600
H 	H 	0.31997 0.12954 0.73057 0.03400
H 	H 	0.43626 0.24727 0.75228 0.04900
H 	H 	0.99284 0.98661 0.82552 0.05300
H 	H 	0.99975 0.97284 0.78607 0.03300
C 	C 	0.90336 0.73247 0.91063 0.28600
C 	C 	0.71361 0.36483 0.95344 0.31400
C 	C 	0.99674 0.57983 0.92731 0.31500
C 	C 	0.65082 0.51779 0.94555 0.30100
C 	C 	0.80540 0.36394 0.88480 0.30900
C 	C 	0.71017 0.49552 0.86686 0.29600
Ni	Ni	0.83389 0.56674 0.94212 1.11600
Ni	Ni	0.69204 0.41534 0.90996 1.12900
Ni	Ni	0.87755 0.55925 0.89135 1.12300
O 	O 	0.91423 0.70079 0.92957 -0.35300
O 	O 	0.89375 0.68725 0.89234 -0.36700
O 	O 	0.72704 0.34976 0.88807 -0.37700
O 	O 	0.76090 0.44777 0.96128 -0.34700
O 	O 	0.71953 0.34945 0.93308 -0.37400
O 	O 	0.79379 0.52310 0.86617 -0.38000
O 	O 	0.93021 0.53301 0.94001 -0.37000
O 	O 	0.98744 0.61350 0.90890 -0.35400
O 	O 	0.66657 0.47540 0.88529 -0.38400
O 	O 	0.73014 0.58697 0.94539 -0.36600
O 	O 	0.62324 0.45020 0.93110 -0.34900
O 	O 	0.87145 0.43684 0.89258 -0.38600
O 	O 	0.79439 0.52774 0.91399 -0.71500
H 	H 	0.77199 0.56933 0.91037 0.16100
C 	C 	0.72985 0.18642 0.51284 0.28600
C 	C 	0.50545 0.29901 0.46786 0.32100
C 	C 	0.76573 0.41918 0.49412 0.31900
C 	C 	0.46743 0.05670 0.48365 0.29000
C 	C 	0.54638 0.37439 0.53791 0.31200
C 	C 	0.50165 0.13706 0.55139 0.29000
Ni	Ni	0.62996 0.23653 0.48032 1.11500
Ni	Ni	0.46909 0.20665 0.51067 1.12400
Ni	Ni	0.65623 0.29744 0.53055 1.12100
O 	O 	0.73120 0.22286 0.49346 -0.36300
O 	O 	0.70348 0.21025 0.53054 -0.38000
O 	O 	0.47650 0.29661 0.53360 -0.37400
O 	O 	0.54028 0.24976 0.46170 -0.34800
O 	O 	0.49007 0.30502 0.48839 -0.37100
O 	O 	0.56754 0.22168 0.55389 -0.38400
O 	O 	0.69909 0.37815 0.48172 -0.36400
O 	O 	0.76443 0.38481 0.51346 -0.37600
O 	O 	0.44895 0.11696 0.53478 -0.38400
O 	O 	0.54893 0.09636 0.47751 -0.36200
O 	O 	0.42968 0.10654 0.48767 -0.34900
O 	O 	0.61953 0.39206 0.52919 -0.38800
O 	O 	0.58285 0.22649 0.50805 -0.71400
H 	H 	0.57325 0.16530 0.51236 0.15400
C 	C 	0.81646 0.79936 0.70347 0.30400
C 	C 	0.88102 0.95294 0.75695 0.29200
C 	C 	0.94026 0.02030 0.66489 0.30700
C 	C 	0.01702 0.18513 0.71643 0.28700
Ni	Ni	0.87926 0.99473 0.71020 1.12200
O 	O 	0.87404 0.97530 0.67802 -0.38600
O 	O 	0.88392 0.79251 0.70867 -0.37300
O 	O 	0.80023 0.85778 0.71363 -0.38000
O 	O 	0.08631 0.18080 0.71061 -0.38000
O 	O 	0.94327 0.13338 0.70669 -0.38200
O 	O 	0.88695 0.88018 0.75092 -0.36700
O 	O 	0.86526 0.00246 0.74267 -0.38300
O 	O 	0.01294 0.08659 0.67219 -0.39000
C 	C 	0.31916 0.68349 0.46048 0.31600
C 	C 	0.37171 0.50562 0.43240 0.29700
O 	O 	0.37188 0.68088 0.44610 -0.35700
O 	O 	0.32346 0.50014 0.44936 -0.35000
C 	C 	0.46698 0.64297 0.99509 0.30700
Ni	Ni	0.48767 0.82446 0.98411 1.12400
O 	O 	0.54956 0.96205 0.98614 -0.36200
O 	O 	0.59844 0.83103 0.99493 -0.36900
O 	O 	0.44240 0.68824 0.98195 -0.36000
C 	C 	0.44897 0.90201 0.49081 -0.02900
C 	C 	0.41553 0.95589 0.48247 -0.06600
C 	C 	0.33975 0.91382 0.47035 0.10000
C 	C 	0.30274 0.82059 0.46527 -0.02000
C 	C 	0.34225 0.76984 0.47147 -0.07000
C 	C 	0.41335 0.80946 0.48518 0.10400
N 	N 	0.45100 0.75660 0.49291 -0.02000
H 	H 	0.50503 0.93313 0.50091 0.06000
H 	H 	0.24637 0.78930 0.45527 0.06800
N 	N 	0.30377 0.96676 0.46183 -0.01800
O 	O 	0.53352 0.79078 0.49201 -0.09100
O 	O 	0.31039 0.98588 0.44124 -0.07900
O 	O 	0.25500 0.98512 0.47404 -0.08700
C 	C 	0.92508 0.50509 0.49450 -0.01300
C 	C 	0.84902 0.48696 0.48425 -0.08100
C 	C 	0.85355 0.51754 0.46265 0.09900
H 	H 	0.92497 0.49143 0.51166 0.06600
N 	N 	0.78493 0.52678 0.45372 -0.02000
O 	O 	0.75894 0.57778 0.46328 -0.09100
O 	O 	0.75245 0.48950 0.43528 -0.10500
C 	C 	0.38665 0.36705 0.42933 -0.03000
C 	C 	0.42366 0.46059 0.43415 -0.07300
C 	C 	0.50130 0.50386 0.44538 0.10800
C 	C 	0.53420 0.45080 0.45434 -0.02300
C 	C 	0.49074 0.35521 0.45199 -0.07000
C 	C 	0.42023 0.31409 0.43811 0.09800
N 	N 	0.37958 0.21772 0.43392 -0.02200
H 	H 	0.58964 0.48296 0.46460 0.08700
N 	N 	0.54312 0.60063 0.44921 -0.01900
O 	O 	0.29797 0.16606 0.43756 -0.09100
O 	O 	0.56093 0.63109 0.46884 -0.07500
O 	O 	0.56753 0.65841 0.43299 -0.09000
C 	C 	0.77674 0.13632 0.51583 -0.07500
C 	C 	0.85741 0.18183 0.52536 0.02000
C 	C 	0.88448 0.13323 0.53860 -0.06100
C 	C 	0.83209 0.03757 0.54167 0.03400
C 	C 	0.75925 0.99070 0.52883 -0.05200
C 	C 	0.73141 0.04002 0.51602 0.01100
C 	C 	0.84049 0.99049 0.56129 -0.03300
C 	C 	0.91361 0.02543 0.57251 -0.05900
C 	C 	0.91313 0.00716 0.59608 0.04700
C 	C 	0.98624 0.01258 0.60551 -0.07200
C 	C 	0.99378 0.01352 0.62802 0.02800
C 	C 	0.92810 0.00869 0.64136 -0.09700
C 	C 	0.85294 0.99808 0.63203 0.03100
C 	C 	0.84585 0.99863 0.60954 -0.07300
H 	H 	0.89462 0.25616 0.52458 0.04400
H 	H 	0.94230 0.17116 0.54777 0.05300
H 	H 	0.71998 0.91673 0.53029 0.05900
H 	H 	0.67035 0.00380 0.50803 0.04000
H 	H 	0.78334 0.93153 0.56788 0.04300
H 	H 	0.97414 0.07125 0.56451 0.05000
H 	H 	0.03846 0.01911 0.59538 0.04700
H 	H 	0.05138 0.01979 0.63508 0.02600
H 	H 	0.80152 0.99355 0.64216 0.03200
H 	H 	0.78984 0.99674 0.60264 0.05200
C 	C 	0.47431 0.07178 0.56991 -0.09300
C 	C 	0.39059 0.99712 0.57098 0.03200
C 	C 	0.35961 0.94526 0.59001 -0.07700
C 	C 	0.41260 0.96595 0.60813 0.05800
C 	C 	0.49854 0.03495 0.60636 -0.08600
C 	C 	0.52936 0.08758 0.58734 0.02500
C 	C 	0.37473 0.93058 0.62986 -0.05300
C 	C 	0.30522 0.84734 0.63251 -0.05200
H 	H 	0.34795 0.98200 0.55746 0.04400
H 	H 	0.29291 0.89290 0.59106 0.05400
H 	H 	0.54034 0.05090 0.62010 0.04900
H 	H 	0.59515 0.14251 0.58647 0.03200
H 	H 	0.39580 0.97845 0.64321 0.04600
H 	H 	0.28883 0.79604 0.62005 0.04600
C 	C 	0.54703 0.42793 0.55688 -0.08900
C 	C 	0.61406 0.51841 0.55926 0.02200
C 	C 	0.63077 0.55993 0.57951 -0.07200
C 	C 	0.57901 0.51226 0.59751 0.04800
C 	C 	0.50720 0.42545 0.59464 -0.07400
C 	C 	0.49096 0.38361 0.57442 0.02400
C 	C 	0.60702 0.54569 0.61972 -0.05100
C 	C 	0.64203 0.63523 0.62449 -0.05200
C 	C 	0.67998 0.66948 0.64592 0.05000
C 	C 	0.66329 0.73240 0.65672 -0.07600
C 	C 	0.70430 0.77103 0.67611 0.02600
C 	C 	0.76420 0.74870 0.68469 -0.09000
C 	C 	0.77959 0.68416 0.67405 0.02300
C 	C 	0.73811 0.64520 0.65472 -0.07500
H 	H 	0.65650 0.55444 0.54573 0.04500
H 	H 	0.68667 0.62687 0.58143 0.05300
H 	H 	0.46624 0.38847 0.60833 0.05000
H 	H 	0.43809 0.31438 0.57280 0.04100
H 	H 	0.59922 0.49631 0.63232 0.04400
H 	H 	0.64141 0.68339 0.61268 0.04600
H 	H 	0.61915 0.75218 0.64998 0.05000
H 	H 	0.69139 0.82044 0.68408 0.03100
H 	H 	0.82511 0.66570 0.68044 0.03800
H 	H 	0.75283 0.59800 0.64631 0.05100
C 	C 	0.08422 0.61340 0.93617 -0.07500
H 	H 	0.03961 0.51733 0.96313 0.07300
N 	N 	0.15654 0.71449 0.90443 -0.01700
O 	O 	0.16936 0.79632 0.89976 -0.10200
O 	O 	0.15082 0.65956 0.88896 -0.10100
C 	C 	0.69364 0.25255 0.98261 -0.02000
C 	C 	0.65733 0.28693 0.96781 -0.06900
C 	C 	0.56867 0.23588 0.96385 0.09600
C 	C 	0.51936 0.14865 0.97321 -0.02400
C 	C 	0.55767 0.10975 0.98593 -0.07300
C 	C 	0.64440 0.16403 0.99167 0.09800
H 	H 	0.76107 0.29245 0.98624 0.07200
H 	H 	0.45222 0.10857 0.96927 0.07000
N 	N 	0.52915 0.27024 0.94941 -0.02100
O 	O 	0.52623 0.25247 0.92889 -0.13200
O 	O 	0.48161 0.30206 0.95720 -0.09400
C 	C 	0.51444 0.51918 0.95160 -0.02400
C 	C 	0.58806 0.52282 0.96011 -0.06300
C 	C 	0.60557 0.54059 0.98226 0.09500
C 	C 	0.55684 0.56751 0.99485 -0.02500
C 	C 	0.49149 0.57827 0.98539 -0.07100
C 	C 	0.46450 0.54423 0.96436 0.10000
N 	N 	0.38616 0.53406 0.95608 -0.01800
H 	H 	0.49713 0.49923 0.93496 0.07300
N 	N 	0.67291 0.53159 0.99200 -0.02200
O 	O 	0.74565 0.60448 0.99583 -0.11700
O 	O 	0.65820 0.45191 0.99930 -0.09500
C 	C 	0.01688 0.23048 0.73680 -0.09500
C 	C 	0.07554 0.24231 0.75307 0.01900
C 	C 	0.06116 0.26040 0.77428 -0.07700
C 	C 	0.98885 0.26817 0.77930 0.05200
C 	C 	0.93486 0.26521 0.76268 -0.07500
C 	C 	0.94892 0.24669 0.74153 0.02500
C 	C 	0.96972 0.27959 0.80195 -0.05100
C 	C 	0.89259 0.22275 0.81081 -0.05100
C 	C 	0.86507 0.24547 0.83134 0.04700
C 	C 	0.78529 0.24111 0.83260 -0.07500
C 	C 	0.76277 0.27345 0.85085 0.02200
C 	C 	0.81999 0.31051 0.86808 -0.08800
C 	C 	0.89661 0.30716 0.86761 0.02200
C 	C 	0.91879 0.27409 0.84936 -0.07200
H 	H 	0.13020 0.23376 0.74949 0.03400
H 	H 	0.10468 0.26541 0.78690 0.04900
H 	H 	0.88086 0.27512 0.76626 0.04900
H 	H 	0.90486 0.24110 0.72900 0.03200
H 	H 	0.01799 0.33607 0.81119 0.04500
H 	H 	0.84513 0.16653 0.80135 0.04400
H 	H 	0.74226 0.21644 0.81902 0.04700
H 	H 	0.70277 0.27404 0.85110 0.03900
H 	H 	0.94009 0.33269 0.88108 0.04500
H 	H 	0.97847 0.27282 0.84904 0.05200
C 	C 	0.66182 0.47073 0.84651 -0.08400
C 	C 	0.68967 0.43899 0.82894 0.01900
C 	C 	0.63360 0.39161 0.81220 -0.07300
C 	C 	0.54936 0.37585 0.81278 0.04700
C 	C 	0.52351 0.41331 0.82960 -0.07000
C 	C 	0.58010 0.46221 0.84607 0.02000
C 	C 	0.48590 0.30926 0.79763 -0.04900
H 	H 	0.75285 0.44591 0.82887 0.03700
H 	H 	0.65448 0.36354 0.79929 0.04700
H 	H 	0.45834 0.40041 0.83059 0.05200
H 	H 	0.55849 0.48847 0.85922 0.04300
H 	H 	0.49200 0.25046 0.79268 0.04400
C 	C 	0.91899 0.82689 0.90890 -0.07200
C 	C 	0.84843 0.84132 0.90841 0.01700
C 	C 	0.85140 0.91192 0.89546 -0.06600
C 	C 	0.92501 0.96772 0.88294 0.05300
C 	C 	0.00027 0.96472 0.88701 -0.05500
C 	C 	0.99735 0.89461 0.90011 0.02000
C 	C 	0.91974 0.01469 0.86303 -0.06100
C 	C 	0.85656 0.96915 0.84884 -0.04000
C 	C 	0.87206 0.98586 0.82527 0.04700
C 	C 	0.94313 0.98591 0.81559 -0.07000
C 	C 	0.94697 0.97775 0.79320 0.01600
C 	C 	0.88098 0.97161 0.78016 -0.08500
C 	C 	0.81254 0.97726 0.78962 0.02300
C 	C 	0.80746 0.98294 0.81212 -0.07400
H 	H 	0.78855 0.79196 0.91605 0.03800
H 	H 	0.79458 0.91829 0.89380 0.05600
H 	H 	0.05888 0.01077 0.87837 0.04500
H 	H 	0.05349 0.88664 0.90125 0.05200
H 	H 	0.97637 0.07759 0.85778 0.04700
H 	H 	0.79682 0.91052 0.85430 0.04700
H 	H 	0.76162 0.97354 0.77966 0.03500
H 	H 	0.75227 0.98270 0.81937 0.05300
