data_crystal

_cell_length_a 35.20979
_cell_length_b 35.72966
_cell_length_c 35.02272
_cell_angle_alpha 95.55145
_cell_angle_beta  95.55754
_cell_angle_gamma 125.37391

_symmetry_space_group_name_	'P 1'
_symmetry_space_group_name_H-M	'P 1'

loop_
_symmetry_equiv_pos_as_xyz
  x,y,z

loop_
_atom_site_label
_atom_site_type_symbol
_atom_site_fract_x
_atom_site_fract_y
_atom_site_fract_z
_atom_site_charge
C 	C 	0.97670 0.02394 0.00340 0.12000
N 	N 	0.95070 0.97672 0.99989 -0.13700
C 	C 	0.97185 0.95495 0.99613 0.12200
N 	N 	0.01907 0.98051 0.99601 -0.13900
C 	C 	0.04514 0.02761 0.99932 0.12400
N 	N 	0.02393 0.04931 0.00299 -0.14200
C 	C 	0.94961 0.99566 0.44315 0.12100
N 	N 	0.92505 0.94933 0.44421 -0.14000
C 	C 	0.94746 0.92861 0.44394 0.12100
N 	N 	0.99445 0.95432 0.44279 -0.14000
C 	C 	0.01911 0.00056 0.44181 0.12200
N 	N 	0.99661 0.02115 0.44193 -0.14000
Cu	Cu	0.65049 0.26603 0.99547 0.93100
Cu	Cu	0.69474 0.26594 0.91723 0.87400
Cu	Cu	0.67985 0.33790 0.94209 0.90100
Cu	Cu	0.64441 0.35006 0.01356 0.89600
C 	C 	0.65781 0.30369 0.07461 0.30300
O 	O 	0.58001 0.23511 0.98970 -0.35800
C 	C 	0.67119 0.30305 0.85894 0.30800
O 	O 	0.68626 0.33815 0.99702 -0.63600
O 	O 	0.64854 0.26949 0.93931 -0.63900
O 	O 	0.68264 0.23498 0.99940 -0.36100
O 	O 	0.73693 0.28211 0.96414 -0.43400
O 	O 	0.63562 0.32080 0.06085 -0.38200
O 	O 	0.71316 0.40495 0.94913 -0.37100
C 	C 	0.70458 0.42933 0.97278 0.29300
C 	C 	0.56041 0.25288 0.97284 0.28500
O 	O 	0.58744 0.29593 0.96687 -0.38300
O 	O 	0.66963 0.40876 0.99258 -0.38700
O 	O 	0.66139 0.27485 0.05132 -0.34200
C 	C 	0.72377 0.25303 0.98861 0.29400
O 	O 	0.68531 0.33900 0.88647 -0.36900
O 	O 	0.66741 0.26609 0.86765 -0.41100
H 	H 	0.71930 0.35949 0.01172 0.17000
H 	H 	0.61645 0.24945 0.92279 0.18100
Cu	Cu	0.72176 0.33327 0.44475 0.93000
Cu	Cu	0.71636 0.29161 0.52514 0.87600
Cu	Cu	0.64503 0.30557 0.49350 0.89900
Cu	Cu	0.63622 0.33673 0.41893 0.89800
C 	C 	0.69140 0.32725 0.36364 0.30600
O 	O 	0.75166 0.40232 0.44830 -0.35000
C 	C 	0.67616 0.31846 0.57843 0.30700
O 	O 	0.64808 0.29696 0.43938 -0.64100
O 	O 	0.71476 0.33664 0.50004 -0.64100
O 	O 	0.75428 0.30254 0.44593 -0.36600
O 	O 	0.70344 0.24923 0.48000 -0.43500
O 	O 	0.67141 0.34739 0.37480 -0.36700
O 	O 	0.57689 0.27178 0.48349 -0.37700
C 	C 	0.55237 0.27709 0.45637 0.29200
C 	C 	0.73186 0.42099 0.46284 0.28700
O 	O 	0.68729 0.39378 0.46661 -0.38700
O 	O 	0.57354 0.30986 0.43500 -0.38800
O 	O 	0.71597 0.32048 0.38929 -0.35300
C 	C 	0.73464 0.26203 0.45705 0.29000
O 	O 	0.64092 0.30337 0.54914 -0.38200
O 	O 	0.71321 0.31940 0.57292 -0.39500
H 	H 	0.62739 0.26401 0.42549 0.16800
H 	H 	0.73425 0.36850 0.51612 0.18500
C 	C 	0.64444 0.33299 0.76372 -0.07300
C 	C 	0.66519 0.31921 0.73924 0.02700
C 	C 	0.68698 0.29931 0.75391 0.05400
C 	C 	0.68845 0.29401 0.79294 -0.00300
C 	C 	0.66778 0.30776 0.81758 -0.09300
C 	C 	0.64512 0.32689 0.80271 0.12100
C 	C 	0.66438 0.32585 0.69826 0.02300
N 	N 	0.70789 0.28462 0.72919 -0.01600
H 	H 	0.70597 0.27937 0.80418 0.05100
N 	N 	0.62174 0.33901 0.82674 -0.02200
H 	H 	0.62720 0.34783 0.75235 0.08100
C 	C 	0.62371 0.29350 0.66940 0.05800
C 	C 	0.62667 0.29400 0.62983 -0.00500
C 	C 	0.67004 0.32627 0.61882 -0.08900
C 	C 	0.70921 0.36185 0.64769 0.11800
C 	C 	0.70624 0.36123 0.68727 -0.07100
N 	N 	0.57982 0.25899 0.68016 -0.01700
H 	H 	0.59597 0.26743 0.60776 0.06300
N 	N 	0.75210 0.39845 0.63688 -0.02200
H 	H 	0.73700 0.38733 0.70949 0.07900
O 	O 	0.63300 0.38106 0.83145 -0.10000
O 	O 	0.58686 0.30715 0.84157 -0.10800
O 	O 	0.75266 0.30254 0.73840 -0.10700
O 	O 	0.68153 0.25106 0.69902 -0.09700
O 	O 	0.75069 0.42245 0.61185 -0.11100
O 	O 	0.79278 0.40935 0.65355 -0.10100
O 	O 	0.54287 0.25855 0.67099 -0.10100
O 	O 	0.57574 0.22575 0.69616 -0.09300
C 	C 	0.71611 0.35880 0.26486 -0.07300
C 	C 	0.69076 0.31434 0.24129 0.02500
C 	C 	0.67140 0.27453 0.25876 0.05900
C 	C 	0.67454 0.27938 0.29939 -0.00600
C 	C 	0.69665 0.32355 0.32261 -0.08700
C 	C 	0.71947 0.36367 0.30544 0.12200
C 	C 	0.68099 0.30948 0.19845 0.02600
N 	N 	0.64778 0.22909 0.23530 -0.01600
H 	H 	0.65794 0.24856 0.31263 0.05400
N 	N 	0.74597 0.40939 0.32919 -0.02300
H 	H 	0.73232 0.38957 0.25155 0.07800
C 	C 	0.64551 0.31255 0.18064 0.05700
C 	C 	0.63831 0.31063 0.14031 -0.00600
C 	C 	0.66670 0.30639 0.11736 -0.08700
C 	C 	0.70289 0.30418 0.13540 0.11600
C 	C 	0.70925 0.30494 0.17571 -0.07200
N 	N 	0.61727 0.31853 0.20362 -0.01600
H 	H 	0.61023 0.31203 0.12680 0.06300
N 	N 	0.73438 0.30297 0.11323 -0.02100
H 	H 	0.73709 0.30337 0.18951 0.07900
O 	O 	0.73776 0.43910 0.32094 -0.10000
O 	O 	0.78013 0.42222 0.35766 -0.09800
O 	O 	0.66328 0.20432 0.24089 -0.10100
O 	O 	0.60862 0.21096 0.21068 -0.09100
O 	O 	0.76235 0.33805 0.09680 -0.11400
O 	O 	0.73751 0.26835 0.11183 -0.09600
O 	O 	0.61708 0.35483 0.20360 -0.10400
O 	O 	0.58951 0.28632 0.22257 -0.09400
C 	C 	0.92107 0.87839 0.44491 -0.02300
C 	C 	0.88908 0.85841 0.47056 -0.01300
C 	C 	0.86807 0.81199 0.47447 -0.05300
C 	C 	0.87876 0.78528 0.45267 0.03400
C 	C 	0.90939 0.80468 0.42613 -0.05300
C 	C 	0.93046 0.85101 0.42223 -0.01300
C 	C 	0.85976 0.73856 0.45846 -0.02100
C 	C 	0.84451 0.69937 0.46256 0.00100
C 	C 	0.82741 0.65345 0.46661 0.00500
C 	C 	0.81319 0.61413 0.46931 -0.02400
C 	C 	0.79635 0.56697 0.47149 0.04700
C 	C 	0.75982 0.54032 0.49186 -0.06600
C 	C 	0.74031 0.49313 0.49075 0.01800
C 	C 	0.75703 0.47216 0.46894 -0.08200
C 	C 	0.79520 0.49965 0.45006 0.02100
C 	C 	0.81464 0.54680 0.45127 -0.06400
H 	H 	0.88158 0.87917 0.48826 0.04200
H 	H 	0.84420 0.79711 0.49490 0.05000
H 	H 	0.91749 0.78409 0.40895 0.05000
H 	H 	0.95460 0.86584 0.40198 0.04100
H 	H 	0.74584 0.55585 0.50789 0.05500
H 	H 	0.71158 0.47269 0.50614 0.04000
H 	H 	0.80880 0.48421 0.43338 0.05600
H 	H 	0.84316 0.56734 0.43570 0.05900
C 	C 	0.75091 0.23300 0.44702 -0.09300
C 	C 	0.72206 0.18512 0.44850 0.01900
C 	C 	0.73965 0.15884 0.44387 -0.07100
C 	C 	0.78604 0.18005 0.43754 0.04800
C 	C 	0.81417 0.22724 0.43421 -0.07000
C 	C 	0.79669 0.25365 0.43887 0.02100
C 	C 	0.80588 0.15434 0.43730 -0.02800
C 	C 	0.82237 0.13271 0.43711 0.00500
C 	C 	0.84217 0.10786 0.43775 -0.00000
C 	C 	0.85973 0.08726 0.43888 -0.02100
C 	C 	0.88167 0.06358 0.44083 0.03400
C 	C 	0.85699 0.01709 0.42168 -0.05200
C 	C 	0.87877 0.99450 0.42301 -0.01400
C 	C 	0.92548 0.01837 0.44349 -0.02200
C 	C 	0.94980 0.06475 0.46311 -0.01300
C 	C 	0.92797 0.08722 0.46173 -0.05300
H 	H 	0.68636 0.16847 0.45397 0.03300
H 	H 	0.71755 0.12225 0.44610 0.05400
H 	H 	0.84998 0.24379 0.42904 0.05500
H 	H 	0.81929 0.29044 0.43741 0.04100
H 	H 	0.82112 0.99857 0.40554 0.04900
H 	H 	0.85968 0.95882 0.40756 0.04300
H 	H 	0.98563 0.08341 0.47939 0.04200
H 	H 	0.94714 0.12308 0.47679 0.04900
C 	C 	0.07027 0.02839 0.44100 -0.02300
C 	C 	0.08872 0.00811 0.42095 -0.01300
C 	C 	0.13746 0.03385 0.42154 -0.05300
C 	C 	0.16811 0.08001 0.44209 0.03400
C 	C 	0.14981 0.10059 0.46166 -0.05300
C 	C 	0.10107 0.07492 0.46113 -0.01300
C 	C 	0.21844 0.10597 0.44372 -0.02100
C 	C 	0.26059 0.12773 0.44511 0.00100
C 	C 	0.30993 0.15310 0.44683 0.00500
C 	C 	0.35207 0.17467 0.44832 -0.02700
C 	C 	0.40240 0.20033 0.45012 0.04900
C 	C 	0.42562 0.18093 0.46179 -0.06900
C 	C 	0.47454 0.20589 0.46369 0.02100
C 	C 	0.50064 0.25054 0.45394 -0.08500
C 	C 	0.47715 0.26981 0.44213 0.02100
C 	C 	0.42823 0.24475 0.44025 -0.07000
H 	H 	0.06533 0.97245 0.40493 0.04200
H 	H 	0.15139 0.01780 0.40621 0.05000
H 	H 	0.17335 0.13630 0.47758 0.05000
H 	H 	0.08739 0.09093 0.47691 0.04200
H 	H 	0.40580 0.14653 0.46937 0.05500
H 	H 	0.49208 0.19041 0.47251 0.03600
H 	H 	0.49681 0.30435 0.43484 0.03900
H 	H 	0.41046 0.25996 0.43123 0.05500
C 	C 	0.72960 0.47963 0.97244 -0.08300
C 	C 	0.70667 0.50076 0.97857 0.02200
C 	C 	0.73088 0.54870 0.97968 -0.06900
C 	C 	0.77811 0.57593 0.97464 0.04900
C 	C 	0.80098 0.55496 0.96805 -0.06900
C 	C 	0.77682 0.50695 0.96691 0.02100
C 	C 	0.80324 0.62551 0.97678 -0.02600
C 	C 	0.82382 0.66697 0.97866 0.00500
C 	C 	0.84771 0.71550 0.98097 0.00100
C 	C 	0.86820 0.75696 0.98294 -0.02200
C 	C 	0.89306 0.80652 0.98520 0.03700
C 	C 	0.88094 0.83084 0.00854 -0.05600
C 	C 	0.90606 0.87923 0.01162 -0.01600
C 	C 	0.94357 0.90361 0.99137 -0.02000
C 	C 	0.95509 0.87894 0.96754 -0.01300
C 	C 	0.92996 0.83062 0.96454 -0.05300
H 	H 	0.67008 0.48007 0.98237 0.04000
H 	H 	0.71293 0.56468 0.98461 0.05500
H 	H 	0.83752 0.57584 0.96408 0.05500
H 	H 	0.79502 0.49118 0.96233 0.03700
H 	H 	0.85237 0.81237 0.02457 0.04900
H 	H 	0.89694 0.89781 0.03025 0.04100
H 	H 	0.98354 0.89719 0.95138 0.04300
H 	H 	0.93936 0.81199 0.94631 0.05000
C 	C 	0.75217 0.23600 0.99970 -0.08400
C 	C 	0.73392 0.19799 0.01926 0.01900
C 	C 	0.75801 0.17807 0.02496 -0.06500
C 	C 	0.80057 0.19611 0.01144 0.04300
C 	C 	0.82009 0.23543 0.99382 -0.06400
C 	C 	0.79620 0.25547 0.98812 0.01500
C 	C 	0.82265 0.17254 0.01323 -0.02600
C 	C 	0.84192 0.15356 0.01431 0.00300
C 	C 	0.86482 0.13165 0.01448 -0.00100
C 	C 	0.88463 0.11321 0.01385 -0.02100
C 	C 	0.90861 0.09149 0.01228 0.03100
C 	C 	0.89271 0.05197 0.02908 -0.05300
C 	C 	0.91507 0.03003 0.02642 -0.01300
C 	C 	0.95353 0.04749 0.00684 -0.02500
C 	C 	0.96953 0.08734 0.99027 -0.01000
C 	C 	0.94714 0.10920 0.99301 -0.05000
H 	H 	0.70056 0.18310 0.02913 0.05000
H 	H 	0.74300 0.14798 0.03905 0.05600
H 	H 	0.85327 0.24987 0.98368 0.05200
H 	H 	0.81140 0.28541 0.97385 0.03400
H 	H 	0.86295 0.03812 0.04406 0.04900
H 	H 	0.90265 0.99965 0.03970 0.04100
H 	H 	0.99887 0.10100 0.97482 0.04200
H 	H 	0.95953 0.13969 0.97987 0.04900
C 	C 	0.09609 0.05483 0.99811 -0.02100
C 	C 	0.11613 0.08955 0.97513 -0.01300
C 	C 	0.16323 0.11165 0.97057 -0.05400
C 	C 	0.19057 0.09934 0.98907 0.03800
C 	C 	0.17116 0.06595 0.01311 -0.05600
C 	C 	0.12412 0.04376 0.01763 -0.01500
C 	C 	0.23787 0.11946 0.98222 -0.02200
C 	C 	0.27756 0.13563 0.97712 0.00200
C 	C 	0.32405 0.15371 0.97178 0.00500
C 	C 	0.36389 0.16871 0.96796 -0.02500
C 	C 	0.41171 0.18636 0.96450 0.04700
C 	C 	0.43902 0.22588 0.94774 -0.06700
C 	C 	0.48706 0.24617 0.94840 0.01700
C 	C 	0.50828 0.22727 0.96628 -0.08500
C 	C 	0.48000 0.18606 0.98110 0.01900
C 	C 	0.43200 0.16586 0.98031 -0.06800
H 	H 	0.09486 0.09839 0.95990 0.04100
H 	H 	0.17812 0.13766 0.95210 0.05000
H 	H 	0.19226 0.05659 0.02779 0.05000
H 	H 	0.10925 0.01748 0.03585 0.04200
H 	H 	0.42337 0.24156 0.93501 0.05600
H 	H 	0.50798 0.27722 0.93595 0.04200
H 	H 	0.49546 0.17050 0.99436 0.04400
H 	H 	0.41090 0.13496 0.99293 0.05600
