data_crystal

_cell_length_a 26.13627
_cell_length_b 26.21349
_cell_length_c 34.93925
_cell_angle_alpha 95.54117
_cell_angle_beta  95.54233
_cell_angle_gamma 125.68129

_symmetry_space_group_name_	'P 1'
_symmetry_space_group_name_H-M	'P 1'

loop_
_symmetry_equiv_pos_as_xyz
  x,y,z

loop_
_atom_site_label
_atom_site_type_symbol
_atom_site_fract_x
_atom_site_fract_y
_atom_site_fract_z
_atom_site_charge
C 	C 	0.99760 0.04175 0.99699 0.11100
N 	N 	0.96038 0.97678 0.99002 -0.13900
C 	C 	0.98770 0.94587 0.98817 0.11600
N 	N 	0.05243 0.98015 0.99308 -0.14100
C 	C 	0.08985 0.04497 0.99942 0.10500
N 	N 	0.06245 0.07587 0.00137 -0.13700
C 	C 	0.92331 0.00085 0.46271 0.10900
N 	N 	0.88821 0.93928 0.46852 -0.13800
C 	C 	0.91487 0.90753 0.46910 0.10900
N 	N 	0.97624 0.93730 0.46384 -0.13400
C 	C 	0.01159 0.99876 0.45857 0.10100
N 	N 	0.98487 0.03019 0.45768 -0.13500
Cu	Cu	0.66950 0.25542 0.00385 0.92700
Cu	Cu	0.70159 0.24045 0.91670 0.87000
Cu	Cu	0.69684 0.34754 0.94750 0.89600
Cu	Cu	0.67681 0.37887 0.02839 0.89500
C 	C 	0.68291 0.30162 0.08447 0.29800
O 	O 	0.57738 0.21713 0.00828 -0.36900
C 	C 	0.65987 0.28961 0.86300 0.29700
O 	O 	0.72034 0.35357 0.00228 -0.63700
O 	O 	0.65160 0.25412 0.94730 -0.64300
O 	O 	0.70978 0.21007 0.00174 -0.37000
O 	O 	0.76950 0.26519 0.95759 -0.43900
O 	O 	0.68975 0.35452 0.07911 -0.38700
O 	O 	0.74536 0.43927 0.95182 -0.37900
C 	C 	0.74140 0.47647 0.97774 0.27700
C 	C 	0.55096 0.24511 0.99858 0.27200
O 	O 	0.58634 0.30266 0.99056 -0.39300
O 	O 	0.70103 0.45249 0.00228 -0.39100
O 	O 	0.69728 0.27296 0.05926 -0.36800
C 	C 	0.75908 0.22996 0.98434 0.27600
O 	O 	0.68872 0.34212 0.89005 -0.39000
O 	O 	0.65345 0.23830 0.87112 -0.42200
H 	H 	0.76724 0.38069 0.01209 0.16600
H 	H 	0.60547 0.22792 0.93540 0.17100
Cu	Cu	0.71739 0.33704 0.45191 0.92600
Cu	Cu	0.70973 0.28584 0.53461 0.86900
Cu	Cu	0.60757 0.29156 0.49654 0.89600
Cu	Cu	0.59329 0.32357 0.41809 0.89300
C 	C 	0.67734 0.31751 0.36881 0.29700
O 	O 	0.74815 0.42873 0.45257 -0.35900
C 	C 	0.64450 0.31415 0.58311 0.29700
O 	O 	0.61657 0.27802 0.44348 -0.64100
O 	O 	0.70300 0.34194 0.50618 -0.64200
O 	O 	0.76813 0.30264 0.45832 -0.37100
O 	O 	0.69893 0.22822 0.49165 -0.44000
O 	O 	0.64582 0.34127 0.37640 -0.38900
O 	O 	0.51497 0.23764 0.48394 -0.38400
C 	C 	0.47946 0.24006 0.45558 0.28300
C 	C 	0.71416 0.44793 0.46348 0.27400
O 	O 	0.65363 0.40558 0.46523 -0.39300
O 	O 	0.50502 0.27836 0.43002 -0.39400
O 	O 	0.71536 0.31830 0.39709 -0.36300
C 	C 	0.74329 0.24791 0.47016 0.27800
O 	O 	0.59852 0.29133 0.55215 -0.38900
O 	O 	0.69863 0.32242 0.57994 -0.42300
H 	H 	0.59304 0.23254 0.43107 0.16200
H 	H 	0.72544 0.38573 0.52138 0.17100
C 	C 	0.64665 0.29277 0.82155 -0.11300
C 	C 	0.61270 0.31705 0.80946 0.12700
C 	C 	0.60750 0.32575 0.77056 -0.09900
C 	C 	0.63221 0.30715 0.74316 0.00100
C 	C 	0.66407 0.28069 0.75493 0.05600
C 	C 	0.67106 0.27395 0.79404 -0.02300
N 	N 	0.58309 0.32981 0.83447 -0.20200
H 	H 	0.58258 0.34539 0.76133 0.05600
C 	C 	0.62455 0.31555 0.70217 0.00000
N 	N 	0.68848 0.26214 0.72898 -0.19200
H 	H 	0.69678 0.25510 0.80327 0.03100
C 	C 	0.67345 0.37205 0.69130 -0.09800
C 	C 	0.67661 0.37530 0.65162 0.12600
C 	C 	0.63096 0.32045 0.62261 -0.11400
C 	C 	0.57768 0.26700 0.63332 -0.02500
C 	C 	0.57384 0.26413 0.67297 0.05700
H 	H 	0.71064 0.41257 0.71376 0.05600
N 	N 	0.72315 0.43106 0.64153 -0.20300
H 	H 	0.54105 0.22602 0.61092 0.04100
N 	N 	0.52233 0.21145 0.68281 -0.19200
H 	H 	0.75821 0.47070 0.66312 0.08200
H 	H 	0.72327 0.43640 0.61229 0.08600
H 	H 	0.48610 0.17278 0.66111 0.08000
H 	H 	0.51684 0.20908 0.71194 0.08600
H 	H 	0.71179 0.24257 0.73799 0.07700
H 	H 	0.68477 0.26692 0.69973 0.08400
H 	H 	0.57933 0.31671 0.86192 0.08500
H 	H 	0.56047 0.35020 0.82578 0.08300
C 	C 	0.67687 0.28561 0.12390 -0.10700
C 	C 	0.62544 0.27480 0.14132 0.12300
C 	C 	0.62823 0.27403 0.18156 -0.09600
C 	C 	0.68051 0.28213 0.20435 0.00000
C 	C 	0.72858 0.28625 0.18613 0.05900
C 	C 	0.72654 0.28847 0.14602 -0.02300
N 	N 	0.57315 0.26457 0.11954 -0.20400
H 	H 	0.59034 0.26865 0.19538 0.05500
C 	C 	0.68727 0.29222 0.24755 -0.00000
N 	N 	0.77721 0.28919 0.20704 -0.19200
H 	H 	0.76498 0.29488 0.13237 0.04800
C 	C 	0.65608 0.23887 0.26576 -0.09600
C 	C 	0.65494 0.24625 0.30599 0.12100
C 	C 	0.68515 0.30823 0.32814 -0.10600
C 	C 	0.71887 0.36172 0.31029 -0.02100
C 	C 	0.72030 0.35444 0.27018 0.06000
H 	H 	0.63161 0.19138 0.24844 0.05500
N 	N 	0.62423 0.19372 0.32296 -0.20400
H 	H 	0.74294 0.40920 0.32754 0.04600
N 	N 	0.75285 0.40721 0.25355 -0.19200
H 	H 	0.60125 0.14809 0.30623 0.08200
H 	H 	0.62356 0.19759 0.35290 0.08200
H 	H 	0.77641 0.45285 0.27044 0.08400
H 	H 	0.75576 0.40373 0.22395 0.08900
H 	H 	0.81341 0.29390 0.19357 0.08400
H 	H 	0.77885 0.28540 0.23653 0.08900
H 	H 	0.56765 0.26054 0.08917 0.08600
H 	H 	0.53612 0.25825 0.13279 0.08300
C 	C 	0.72443 0.68239 0.43388 -0.05100
C 	C 	0.69719 0.61749 0.43207 -0.03700
C 	C 	0.73141 0.59902 0.45213 0.00900
C 	C 	0.79282 0.64611 0.47496 0.00000
C 	C 	0.81990 0.71143 0.47720 -0.02300
C 	C 	0.78610 0.72966 0.45596 0.03300
C 	C 	0.88162 0.75849 0.49964 0.03400
C 	C 	0.91532 0.74002 0.52034 -0.05100
C 	C 	0.88871 0.67519 0.51781 -0.03700
C 	C 	0.82784 0.62797 0.49482 0.01000
C 	C 	0.80190 0.56292 0.49100 -0.02300
C 	C 	0.74093 0.51603 0.46805 -0.06400
C 	C 	0.70548 0.53411 0.44906 -0.02200
C 	C 	0.81548 0.79481 0.45578 -0.06100
C 	C 	0.87837 0.84153 0.47648 0.00600
C 	C 	0.91004 0.82335 0.49978 -0.06000
H 	H 	0.69781 0.69582 0.41772 0.04100
H 	H 	0.64977 0.58164 0.41464 0.03500
H 	H 	0.96263 0.77588 0.53788 0.04100
H 	H 	0.91574 0.66178 0.53349 0.03600
H 	H 	0.82889 0.54878 0.50589 0.03600
H 	H 	0.65842 0.49775 0.43129 0.03200
H 	H 	0.79082 0.80885 0.43809 0.04900
H 	H 	0.95798 0.85962 0.51652 0.05000
C 	C 	0.92825 0.24126 0.47621 -0.04100
C 	C 	0.95332 0.20651 0.47723 -0.04400
C 	C 	0.91209 0.13931 0.47004 0.03000
C 	C 	0.84518 0.10680 0.46144 -0.02100
C 	C 	0.81988 0.14182 0.46069 -0.00300
C 	C 	0.86161 0.20931 0.46824 0.01100
C 	C 	0.75291 0.10938 0.45310 0.00900
C 	C 	0.71169 0.04216 0.44540 -0.03900
C 	C 	0.73683 0.00736 0.44572 -0.05000
C 	C 	0.80350 0.03931 0.45393 0.03200
C 	C 	0.82900 0.00462 0.45473 -0.06000
C 	C 	0.89586 0.03699 0.46338 0.00500
C 	C 	0.93709 0.10439 0.47140 -0.05900
C 	C 	0.83617 0.24401 0.46882 -0.02600
C 	C 	0.76948 0.21179 0.46286 -0.06900
C 	C 	0.72797 0.14453 0.45424 -0.02400
H 	H 	0.96072 0.29307 0.48197 0.03800
H 	H 	0.00486 0.23192 0.48368 0.03500
H 	H 	0.66014 0.01677 0.43937 0.03500
H 	H 	0.70436 0.95555 0.43980 0.03900
H 	H 	0.79703 0.95276 0.44823 0.05000
H 	H 	0.98858 0.12960 0.47869 0.05200
H 	H 	0.86813 0.29587 0.47551 0.03900
H 	H 	0.67646 0.11975 0.44925 0.03700
C 	C 	0.28157 0.06167 0.49142 -0.03800
C 	C 	0.21612 0.02815 0.49208 -0.05000
C 	C 	0.18071 0.04659 0.47361 0.03300
C 	C 	0.21123 0.09882 0.45408 -0.02300
C 	C 	0.27721 0.13276 0.45357 -0.00100
C 	C 	0.31251 0.11420 0.47241 0.01000
C 	C 	0.30796 0.18558 0.43454 0.01000
C 	C 	0.27240 0.20361 0.41573 -0.03800
C 	C 	0.20679 0.16972 0.41608 -0.05200
C 	C 	0.17594 0.11749 0.43534 0.03300
C 	C 	0.11040 0.08402 0.43635 -0.06200
C 	C 	0.08004 0.03249 0.45631 0.00700
C 	C 	0.11536 0.01381 0.47477 -0.06100
C 	C 	0.37838 0.14869 0.47233 -0.02500
C 	C 	0.40949 0.20214 0.45400 -0.06200
C 	C 	0.37397 0.22012 0.43488 -0.02500
H 	H 	0.30825 0.04694 0.50590 0.03600
H 	H 	0.19302 0.98794 0.50706 0.03900
H 	H 	0.29556 0.24402 0.40091 0.03600
H 	H 	0.18008 0.18435 0.40152 0.04000
H 	H 	0.08308 0.09797 0.42167 0.05000
H 	H 	0.09221 0.97446 0.49048 0.04800
H 	H 	0.40544 0.13413 0.48656 0.04300
H 	H 	0.39784 0.26143 0.42083 0.04300
C 	C 	0.75801 0.67446 0.00203 -0.03600
C 	C 	0.79266 0.74041 0.00368 -0.04800
C 	C 	0.85166 0.77459 0.99104 0.02900
C 	C 	0.87541 0.74196 0.97593 -0.01900
C 	C 	0.84071 0.67561 0.97450 -0.00300
C 	C 	0.78205 0.64188 0.98787 0.00900
C 	C 	0.86527 0.64324 0.96038 0.01300
C 	C 	0.92359 0.67719 0.94692 -0.04200
C 	C 	0.95787 0.74305 0.94812 -0.04100
C 	C 	0.93442 0.77585 0.96296 0.02700
C 	C 	0.96984 0.84226 0.96568 -0.05100
C 	C 	0.94739 0.87529 0.98203 0.00100
C 	C 	0.88778 0.84111 0.99409 -0.06000
C 	C 	0.74874 0.57630 0.98762 -0.02600
C 	C 	0.77410 0.54425 0.97477 -0.06000
C 	C 	0.83186 0.57764 0.96061 -0.02700
H 	H 	0.71277 0.64885 0.01216 0.03700
H 	H 	0.77379 0.76496 0.01509 0.04000
H 	H 	0.94268 0.65271 0.93578 0.03800
H 	H 	0.00302 0.76863 0.93788 0.03400
H 	H 	0.01509 0.86833 0.95553 0.04500
H 	H 	0.87034 0.86641 0.00669 0.05200
H 	H 	0.70345 0.55030 0.99773 0.04300
H 	H 	0.85140 0.55297 0.95064 0.04300
C 	C 	0.95244 0.24361 0.96970 -0.04500
C 	C 	0.98568 0.21681 0.97104 -0.04000
C 	C 	0.96138 0.16069 0.98619 0.02200
C 	C 	0.90391 0.13209 0.00089 -0.01200
C 	C 	0.87034 0.15897 0.99942 -0.01200
C 	C 	0.89436 0.21452 0.98338 0.01400
C 	C 	0.81200 0.12940 0.01316 0.01600
C 	C 	0.78851 0.07417 0.02920 -0.04100
C 	C 	0.82194 0.04759 0.03076 -0.04800
C 	C 	0.87923 0.07584 0.01624 0.02800
C 	C 	0.91137 0.04775 0.01613 -0.05800
C 	C 	0.96752 0.07493 0.00030 0.00600
C 	C 	0.99302 0.13201 0.98600 -0.05300
C 	C 	0.85924 0.23937 0.98029 -0.03000
C 	C 	0.79964 0.20842 0.99240 -0.07000
C 	C 	0.77700 0.15438 0.00973 -0.02600
H 	H 	0.97152 0.28657 0.95756 0.03700
H 	H 	0.03002 0.23943 0.95994 0.03300
H 	H 	0.74399 0.05135 0.04010 0.03800
H 	H 	0.80283 0.00461 0.04287 0.04000
H 	H 	0.89241 0.00443 0.02790 0.05000
H 	H 	0.03635 0.15305 0.97384 0.04400
H 	H 	0.87758 0.28195 0.96779 0.03900
H 	H 	0.73141 0.13075 0.01944 0.04600
C 	C 	0.28965 0.19750 0.95419 -0.05000
C 	C 	0.35325 0.22239 0.95217 -0.04100
C 	C 	0.38527 0.20410 0.97491 0.01200
C 	C 	0.35318 0.16058 0.99993 -0.01000
C 	C 	0.28916 0.13550 0.00197 -0.01500
C 	C 	0.25720 0.15384 0.97888 0.02800
C 	C 	0.25683 0.09143 0.02667 0.03000
C 	C 	0.28899 0.07348 0.04960 -0.04900
C 	C 	0.35269 0.09866 0.04775 -0.04100
C 	C 	0.38504 0.14205 0.02290 0.01500
C 	C 	0.44905 0.16772 0.02110 -0.02700
C 	C 	0.48159 0.21219 0.99680 -0.06900
C 	C 	0.44917 0.22935 0.97323 -0.02800
C 	C 	0.19271 0.12700 0.98001 -0.06300
C 	C 	0.15981 0.08128 0.00349 0.01000
C 	C 	0.19235 0.06472 0.02743 -0.06100
H 	H 	0.26558 0.21193 0.93637 0.03900
H 	H 	0.37758 0.25594 0.93292 0.03600
H 	H 	0.26459 0.03976 0.06876 0.04000
H 	H 	0.37681 0.08431 0.06562 0.03700
H 	H 	0.47401 0.15449 0.03931 0.04300
H 	H 	0.47396 0.26292 0.95403 0.04000
H 	H 	0.16745 0.13967 0.96155 0.04800
H 	H 	0.16694 0.02987 0.04584 0.05000
