data_crystal

_cell_length_a 27.10897
_cell_length_b 29.10757
_cell_length_c 44.08647
_cell_angle_alpha 60.83297
_cell_angle_beta  118.87539
_cell_angle_gamma 133.24306

_symmetry_space_group_name_	'P 1'
_symmetry_space_group_name_H-M	'P 1'

loop_
_symmetry_equiv_pos_as_xyz
  x,y,z

loop_
_atom_site_label
_atom_site_type_symbol
_atom_site_fract_x
_atom_site_fract_y
_atom_site_fract_z
_atom_site_charge
Co	Co	0.00780 0.90524 0.61199 1.17600
C 	C 	0.01930 0.01578 0.95048 -0.14800
C 	C 	0.00714 0.01397 0.33425 -0.05300
C 	C 	0.00955 0.02250 0.36384 -0.05500
O 	O 	0.03095 0.94486 0.00682 -0.41300
O 	O 	0.02629 0.02160 0.00585 -0.41500
C 	C 	0.00141 0.95987 0.33763 -0.00900
C 	C 	0.00575 0.97683 0.39688 -0.00100
C 	C 	0.01212 0.98664 0.42825 0.04300
H 	H 	0.01121 0.79273 0.66201 0.06200
C 	C 	0.03135 0.99671 0.98972 0.34000
Co	Co	0.01829 0.06078 0.09181 1.17800
O 	O 	0.03184 0.84290 0.06960 -0.42300
O 	O 	0.01698 0.01497 0.50049 -0.40300
C 	C 	0.01907 0.98969 0.45668 -0.11100
H 	H 	0.02468 0.73657 0.70084 0.06400
C 	C 	0.01027 0.01380 0.88456 -0.00500
C 	C 	0.00761 0.00702 0.85228 -0.00900
H 	H 	0.01455 0.06457 0.36101 0.03500
Co	Co	0.02760 0.90376 0.10895 1.18000
O 	O 	0.01821 0.08051 0.16121 -0.40800
C 	C 	0.03043 0.98544 0.49328 0.33300
O 	O 	0.04049 0.94185 0.51808 -0.41400
C 	C 	0.00512 0.24890 0.56573 -0.01700
C 	C 	0.01725 0.26206 0.15549 -0.18600
H 	H 	0.00925 0.04907 0.30876 0.03100
H 	H 	0.04912 0.84887 0.52980 0.05800
O 	O 	0.01910 0.12345 0.59044 -0.42500
H 	H 	0.02074 0.32024 0.67086 0.05800
H 	H 	0.02150 0.30532 0.13425 0.05900
H 	H 	0.02719 0.26708 0.18164 0.06100
C 	C 	0.02550 0.30498 0.57004 0.00400
H 	H 	0.01773 0.38243 0.53006 0.04900
Co	Co	0.03679 0.02172 0.55150 1.17400
H 	H 	0.00740 0.55502 0.09168 0.04900
O 	O 	0.04410 0.99106 0.10923 -0.58000
O 	O 	0.04441 0.95994 0.57635 -0.75300
C 	C 	0.03988 0.98878 0.25521 0.02200
C 	C 	0.03654 0.21716 0.59081 -0.13100
C 	C 	0.03942 0.31775 0.65452 -0.19300
H 	H 	0.00098 0.31164 0.98830 0.04800
C 	C 	0.04529 0.20703 0.14340 -0.03200
C 	C 	0.04788 0.99711 0.28650 -0.06400
C 	C 	0.00043 0.99163 0.79151 -0.06100
C 	C 	0.99994 0.92289 0.40020 -0.02700
O 	O 	0.99957 0.07308 0.53533 -0.47100
C 	C 	0.05072 0.78833 0.68556 -0.20200
C 	C 	0.05046 0.99110 0.82320 -0.01700
C 	C 	0.99802 0.91454 0.37083 -0.02600
H 	H 	0.99758 0.88763 0.42568 0.03700
O 	O 	0.05963 0.85869 0.58846 -0.41600
C 	C 	0.99555 0.14662 0.59494 0.33300
H 	H 	0.99393 0.87284 0.37390 0.03600
C 	C 	0.99600 0.94913 0.30605 0.04800
H 	H 	0.99282 0.28459 0.63708 0.07200
C 	C 	0.98427 0.33260 0.54578 -0.14200
C 	C 	0.99969 0.98933 0.75909 0.08100
H 	H 	0.99015 0.17459 0.13226 0.04000
O 	O 	0.98849 0.92779 0.19231 -0.38100
C 	C 	0.99509 0.99056 0.72997 -0.12400
C 	C 	0.77827 0.32744 0.03422 0.12000
N 	N 	0.71940 0.28806 0.04612 -0.14600
C 	C 	0.70999 0.31084 0.06197 0.12000
N 	N 	0.76048 0.37208 0.06653 -0.14500
C 	C 	0.81250 0.41443 0.04925 0.12100
N 	N 	0.82290 0.39173 0.03391 -0.14400
C 	C 	0.72865 0.28745 0.55530 0.11900
N 	N 	0.77488 0.35223 0.55375 -0.14600
C 	C 	0.76122 0.38064 0.56257 0.12200
N 	N 	0.70066 0.34482 0.57177 -0.14500
C 	C 	0.65404 0.28046 0.57299 0.12100
N 	N 	0.66886 0.25131 0.56563 -0.14700
C 	C 	0.30186 0.61757 0.21244 0.11900
N 	N 	0.36323 0.65443 0.20336 -0.14500
C 	C 	0.38597 0.62507 0.20303 0.12000
N 	N 	0.34658 0.55925 0.21122 -0.14400
C 	C 	0.28138 0.52310 0.21511 0.12300
N 	N 	0.26034 0.55190 0.21753 -0.14600
C 	C 	0.22476 0.63638 0.65333 0.11800
N 	N 	0.29436 0.66483 0.66266 -0.14400
C 	C 	0.31804 0.63993 0.65854 0.12100
N 	N 	0.27238 0.58749 0.64457 -0.14600
C 	C 	0.20309 0.55861 0.63540 0.12000
N 	N 	0.17892 0.58255 0.64011 -0.14600
Co	Co	0.07909 0.03330 0.05867 1.17700
Co	Co	0.95911 0.92834 0.13862 1.19100
C 	C 	0.21448 0.08261 0.05245 0.31400
Co	Co	0.10378 0.94280 0.05319 1.17000
Co	Co	0.91932 0.01264 0.13738 1.16100
C 	C 	0.96661 0.81661 0.06564 0.32800
O 	O 	0.92413 0.08647 0.09226 -0.41600
O 	O 	0.97272 0.00065 0.12321 -0.77400
C 	C 	0.90979 0.08282 0.06024 0.31400
O 	O 	0.07268 0.10043 0.05621 -0.47800
O 	O 	0.97295 0.86410 0.14446 -0.46700
C 	C 	0.81035 0.88445 0.12003 0.30100
C 	C 	0.06196 0.13511 0.14177 0.29900
C 	C 	0.14642 0.89319 0.12968 0.29900
O 	O 	0.93351 0.06055 0.05516 -0.40600
O 	O 	0.82752 0.94329 0.11125 -0.39400
O 	O 	0.85117 0.87571 0.11849 -0.39600
O 	O 	0.07786 0.13551 0.11724 -0.39100
O 	O 	0.17087 0.94238 0.10248 -0.39600
O 	O 	0.09843 0.87935 0.14058 -0.38400
O 	O 	0.07097 0.96311 0.07639 -0.75600
C 	C 	0.95883 0.93452 0.20491 0.30300
O 	O 	0.90770 0.93964 0.18410 -0.40600
O 	O 	0.17566 0.04021 0.03341 -0.42800
O 	O 	0.18563 0.09093 0.06448 -0.40200
O 	O 	0.95136 0.84001 0.07628 -0.40200
Co	Co	0.93265 0.93096 0.63635 1.18500
Co	Co	0.95087 0.03961 0.57215 1.17800
C 	C 	0.18826 0.09781 0.56095 0.31400
Co	Co	0.11154 0.95851 0.56619 1.16900
Co	Co	0.88381 0.01376 0.62783 1.15700
C 	C 	0.99168 0.81756 0.58466 0.31900
O 	O 	0.80278 0.98667 0.58365 -0.37700
O 	O 	0.92339 0.99150 0.61043 -0.74800
C 	C 	0.81435 0.02225 0.55142 0.27000
O 	O 	0.95483 0.86953 0.64751 -0.46500
C 	C 	0.79811 0.86891 0.65002 0.31100
O 	O 	0.95937 0.95939 0.58562 -0.57300
C 	C 	0.14766 0.92745 0.64398 0.30100
O 	O 	0.85814 0.03051 0.54018 -0.38900
O 	O 	0.83311 0.92119 0.66053 -0.40900
O 	O 	0.82847 0.86210 0.63805 -0.39400
O 	O 	0.93102 0.10925 0.59739 -0.42100
O 	O 	0.17422 0.97159 0.61624 -0.39700
O 	O 	0.09975 0.92097 0.65012 -0.39900
C 	C 	0.98381 0.99760 0.69283 0.33800
O 	O 	0.97205 0.04070 0.66882 -0.42300
O 	O 	0.99063 0.96509 0.68355 -0.38800
O 	O 	0.16887 0.05832 0.54465 -0.42400
O 	O 	0.14145 0.09110 0.56805 -0.41800
O 	O 	0.95882 0.82554 0.59417 -0.39300
C 	C 	0.07726 0.06259 0.93517 0.02200
C 	C 	0.07293 0.06141 0.90248 -0.07000
C 	C 	0.95054 0.97132 0.89807 -0.04400
C 	C 	0.95486 0.97303 0.93056 0.05700
C 	C 	0.95763 0.00747 0.82049 -0.08000
C 	C 	0.95392 0.99955 0.79037 0.04800
C 	C 	0.05386 0.99844 0.85355 -0.03500
H 	H 	0.12717 0.09641 0.94998 0.02000
H 	H 	0.11888 0.09596 0.89179 0.03900
H 	H 	0.90147 0.93514 0.88423 0.04400
H 	H 	0.90936 0.93737 0.94170 0.02100
H 	H 	0.92189 0.01431 0.81902 0.04200
H 	H 	0.91545 0.00055 0.76594 -0.00000
H 	H 	0.08694 0.98546 0.82434 0.03200
H 	H 	0.09221 0.99729 0.87798 0.03900
C 	C 	0.97978 0.93264 0.24303 -0.08300
C 	C 	0.93050 0.88278 0.26400 0.01900
C 	C 	0.93833 0.89107 0.29520 -0.07200
H 	H 	0.88383 0.83926 0.25493 0.02500
H 	H 	0.89831 0.85328 0.31021 0.04700
H 	H 	0.09345 0.04151 0.29498 0.03000
H 	H 	0.07824 0.02779 0.23928 0.01500
C 	C 	0.11896 0.30564 0.62076 -0.10200
C 	C 	0.08222 0.33299 0.59814 0.01400
C 	C 	0.09637 0.24766 0.61740 0.10500
C 	C 	0.10296 0.39061 0.60438 -0.01400
H 	H 	0.96046 0.22650 0.54476 0.03900
C 	C 	0.13350 0.21659 0.64361 -0.21100
H 	H 	0.16364 0.32822 0.64176 0.05100
C 	C 	0.08493 0.38403 0.63221 0.04100
C 	C 	0.11228 0.44013 0.64011 -0.05200
C 	C 	0.15492 0.50220 0.61970 -0.04700
C 	C 	0.16404 0.50786 0.58876 0.06500
C 	C 	0.14094 0.45237 0.58233 -0.07700
H 	H 	0.10363 0.43554 0.66332 0.04000
C 	C 	0.20247 0.57345 0.56385 -0.18900
H 	H 	0.15279 0.45728 0.56023 0.04500
H 	H 	0.10064 0.17227 0.66226 0.07700
H 	H 	0.18406 0.25025 0.65958 0.06600
H 	H 	0.14459 0.20322 0.62918 0.07900
H 	H 	0.96441 0.33429 0.56186 0.06100
H 	H 	0.93869 0.30257 0.52669 0.05500
H 	H 	0.06931 0.29708 0.67276 0.06400
H 	H 	0.25934 0.59683 0.57375 0.07100
H 	H 	0.19164 0.60545 0.56194 0.06700
H 	H 	0.18579 0.56855 0.53647 0.06100
C 	C 	0.48464 0.65874 0.68563 -0.07900
C 	C 	0.52756 0.72357 0.66779 -0.00900
C 	C 	0.50543 0.76410 0.65202 0.03900
C 	C 	0.43779 0.73720 0.65133 -0.04900
C 	C 	0.39347 0.67133 0.66756 -0.04700
C 	C 	0.41929 0.63335 0.68727 0.06700
C 	C 	0.59554 0.74866 0.66550 0.00800
C 	C 	0.55239 0.83510 0.63456 -0.17900
H 	H 	0.41869 0.76684 0.63686 0.04400
C 	C 	0.37654 0.56504 0.70905 -0.18900
H 	H 	0.50227 0.62808 0.69842 0.04600
C 	C 	0.65352 0.76560 0.69501 0.02100
C 	C 	0.71903 0.79623 0.69080 -0.01100
C 	C 	0.72824 0.81395 0.65710 -0.11500
C 	C 	0.66912 0.79107 0.62861 0.10300
C 	C 	0.60302 0.75837 0.63310 -0.09700
C 	C 	0.64640 0.75350 0.73055 -0.17100
H 	H 	0.76408 0.81122 0.71310 0.04000
C 	C 	0.67661 0.80459 0.59288 -0.21200
H 	H 	0.55785 0.74301 0.61091 0.05200
H 	H 	0.41069 0.55119 0.73144 0.06200
H 	H 	0.34126 0.53034 0.69185 0.07100
H 	H 	0.34523 0.56082 0.72093 0.06900
H 	H 	0.55565 0.84006 0.60886 0.06400
H 	H 	0.60543 0.85817 0.65232 0.06600
H 	H 	0.53255 0.86213 0.62906 0.06200
H 	H 	0.69754 0.77371 0.75011 0.06100
H 	H 	0.61196 0.70040 0.74194 0.06200
H 	H 	0.62403 0.77692 0.72714 0.06400
H 	H 	0.70707 0.78898 0.59642 0.08300
H 	H 	0.70341 0.85735 0.57980 0.08500
H 	H 	0.62514 0.77766 0.57477 0.06900
C 	C 	0.15295 0.72656 0.63270 -0.07800
C 	C 	0.17421 0.73601 0.66640 -0.00800
C 	C 	0.20215 0.70406 0.69663 0.03700
C 	C 	0.21586 0.66936 0.69208 -0.04900
C 	C 	0.19933 0.66383 0.65798 -0.04500
C 	C 	0.16527 0.69070 0.62818 0.06300
C 	C 	0.17342 0.78450 0.66921 0.00700
C 	C 	0.21971 0.70876 0.73354 -0.17800
H 	H 	0.24070 0.64772 0.71503 0.04200
C 	C 	0.14253 0.68184 0.59159 -0.18800
H 	H 	0.12900 0.74906 0.60974 0.04800
C 	C 	0.23152 0.85057 0.66557 0.02300
C 	C 	0.22639 0.89677 0.66383 -0.01700
C 	C 	0.16317 0.87841 0.66401 -0.11400
C 	C 	0.10968 0.81120 0.67384 0.10000
C 	C 	0.11358 0.76495 0.67435 -0.09200
C 	C 	0.29717 0.87274 0.66091 -0.17300
H 	H 	0.26963 0.94791 0.65904 0.03900
H 	H 	0.07024 0.71384 0.67889 0.04900
H 	H 	0.12089 0.70939 0.57086 0.06000
H 	H 	0.10135 0.62958 0.59162 0.06800
H 	H 	0.18750 0.69950 0.58394 0.06700
H 	H 	0.17463 0.69646 0.73817 0.06300
H 	H 	0.26531 0.75890 0.73645 0.06300
H 	H 	0.23244 0.67450 0.75457 0.06000
H 	H 	0.33938 0.92490 0.66095 0.06200
H 	H 	0.28647 0.86616 0.63510 0.06400
H 	H 	0.31655 0.84420 0.68306 0.06400
H 	H 	0.07061 0.81733 0.70337 0.07900
C 	C 	0.17016 0.40689 0.15774 -0.08000
C 	C 	0.16750 0.35242 0.18301 -0.00700
C 	C 	0.19038 0.34975 0.21985 0.03600
C 	C 	0.22259 0.40473 0.23060 -0.04800
C 	C 	0.22909 0.46074 0.20512 -0.04800
C 	C 	0.19823 0.46003 0.16862 0.06600
C 	C 	0.14077 0.29848 0.17058 0.00400
C 	C 	0.18344 0.28973 0.24762 -0.17700
H 	H 	0.24538 0.40498 0.25866 0.04000
C 	C 	0.19965 0.51784 0.14097 -0.18900
H 	H 	0.15095 0.40811 0.12953 0.04500
C 	C 	0.06891 0.25579 0.15655 0.02800
C 	C 	0.09143 0.19682 0.14669 -0.10800
C 	C 	0.16350 0.23985 0.16039 0.09700
C 	C 	0.18777 0.29129 0.17160 -0.09400
C 	C 	0.21436 0.23054 0.16372 -0.20300
H 	H 	0.24309 0.32502 0.18175 0.05000
H 	H 	0.18122 0.53311 0.14944 0.06800
H 	H 	0.16506 0.50615 0.11470 0.06000
H 	H 	0.25350 0.55896 0.13739 0.07000
H 	H 	0.22213 0.28600 0.24837 0.06200
H 	H 	0.13018 0.24550 0.24130 0.06200
H 	H 	0.19246 0.29115 0.27465 0.05900
H 	H 	0.96294 0.21848 0.14980 0.06200
H 	H 	0.21302 0.23500 0.13689 0.07700
H 	H 	0.20073 0.18176 0.18110 0.07000
H 	H 	0.26859 0.26752 0.17567 0.06400
C 	C 	0.66355 0.74100 0.16490 -0.09600
C 	C 	0.61465 0.75501 0.14425 0.00800
C 	C 	0.62422 0.80153 0.11109 0.02100
C 	C 	0.68461 0.83574 0.10014 -0.01200
C 	C 	0.73823 0.82861 0.12326 -0.11100
C 	C 	0.72528 0.77721 0.15452 0.09900
C 	C 	0.55532 0.72296 0.15836 -0.00900
C 	C 	0.57367 0.81919 0.08899 -0.17100
H 	H 	0.69294 0.87259 0.07509 0.03800
C 	C 	0.77860 0.76327 0.17790 -0.20800
H 	H 	0.65468 0.70349 0.18970 0.05200
C 	C 	0.49005 0.66652 0.14860 0.03800
C 	C 	0.43397 0.63882 0.16112 -0.04800
C 	C 	0.44354 0.66298 0.18588 -0.04600
C 	C 	0.50975 0.71839 0.19661 0.06600
C 	C 	0.56456 0.74902 0.18188 -0.07800
C 	C 	0.48063 0.63435 0.12593 -0.17800
H 	H 	0.38313 0.59675 0.15259 0.04300
C 	C 	0.52206 0.74608 0.22290 -0.19000
H 	H 	0.61482 0.79267 0.18912 0.04800
H 	H 	0.79470 0.75798 0.16161 0.07900
H 	H 	0.75737 0.71730 0.19898 0.06800
H 	H 	0.82484 0.80343 0.19118 0.07500
H 	H 	0.57545 0.84252 0.10364 0.06400
H 	H 	0.51987 0.77514 0.08340 0.06100
H 	H 	0.58644 0.85368 0.06289 0.05900
H 	H 	0.42697 0.58922 0.12174 0.06000
H 	H 	0.51741 0.62099 0.13927 0.06500
H 	H 	0.49059 0.66784 0.09932 0.06300
H 	H 	0.57857 0.78127 0.23325 0.06400
H 	H 	0.50015 0.70694 0.24630 0.06900
H 	H 	0.49757 0.77198 0.20947 0.06900
C 	C 	0.29296 0.73516 0.22106 -0.07900
C 	C 	0.22778 0.71948 0.19825 -0.00800
C 	C 	0.18267 0.66369 0.18487 0.03600
C 	C 	0.20728 0.63019 0.19021 -0.04800
C 	C 	0.27473 0.64913 0.21064 -0.04700
C 	C 	0.31577 0.69878 0.22846 0.06700
C 	C 	0.21326 0.76824 0.18267 0.00700
C 	C 	0.11025 0.64283 0.16250 -0.17600
H 	H 	0.17460 0.59051 0.17760 0.04000
C 	C 	0.38441 0.71452 0.25452 -0.19000
H 	H 	0.32692 0.77703 0.23206 0.04800
C 	C 	0.18568 0.77238 0.20067 0.02200
C 	C 	0.16647 0.81517 0.18348 -0.01600
C 	C 	0.17204 0.85198 0.14809 -0.10500
C 	C 	0.19939 0.84682 0.13010 0.09500
C 	C 	0.22298 0.80770 0.14841 -0.09300
C 	C 	0.17597 0.73093 0.23792 -0.17100
H 	H 	0.14637 0.81914 0.19752 0.04200
C 	C 	0.20205 0.88099 0.09127 -0.19300
H 	H 	0.24562 0.80515 0.13513 0.05200
H 	H 	0.39753 0.73693 0.27414 0.06300
H 	H 	0.42627 0.74942 0.23983 0.06800
H 	H 	0.38258 0.66994 0.26995 0.06900
H 	H 	0.11278 0.67351 0.13472 0.06100
H 	H 	0.08542 0.64752 0.17376 0.06100
H 	H 	0.07643 0.59113 0.16176 0.05600
H 	H 	0.15308 0.73930 0.24818 0.05900
H 	H 	0.22705 0.74259 0.25640 0.06200
H 	H 	0.14043 0.67864 0.23801 0.06000
H 	H 	0.24309 0.93412 0.08833 0.07200
H 	H 	0.15068 0.87098 0.07456 0.04000
H 	H 	0.21490 0.86364 0.08052 0.06200
C 	C 	0.80630 0.16334 0.50622 -0.09000
C 	C 	0.75362 0.13919 0.52018 -0.00300
C 	C 	0.70520 0.07129 0.53136 0.03900
C 	C 	0.71852 0.02973 0.53505 -0.05700
C 	C 	0.78023 0.05569 0.52850 -0.09600
C 	C 	0.81846 0.12135 0.50917 0.09100
C 	C 	0.75533 0.18470 0.52768 -0.00500
C 	C 	0.64308 0.04350 0.54245 -0.20500
H 	H 	0.68494 0.97805 0.54665 0.05800
C 	C 	0.87176 0.14679 0.49182 -0.20000
H 	H 	0.83966 0.21498 0.49458 0.04700
C 	C 	0.79035 0.19920 0.56151 0.03500
C 	C 	0.78268 0.23456 0.56983 -0.04900
C 	C 	0.74208 0.25686 0.54459 -0.04700
C 	C 	0.71202 0.24713 0.50977 0.06600
C 	C 	0.71814 0.21028 0.50175 -0.08100
C 	C 	0.83279 0.17414 0.58940 -0.17800
H 	H 	0.80706 0.24350 0.59623 0.03900
C 	C 	0.67027 0.27277 0.48173 -0.19000
H 	H 	0.69232 0.19996 0.47564 0.04500
H 	H 	0.92018 0.15488 0.51224 0.07300
H 	H 	0.88521 0.19368 0.47165 0.06700
H 	H 	0.85082 0.11168 0.47776 0.07900
H 	H 	0.61664 0.06705 0.52252 0.06500
H 	H 	0.66022 0.05171 0.56894 0.06200
H 	H 	0.60430 0.99038 0.54435 0.07700
H 	H 	0.86439 0.19699 0.61230 0.05700
H 	H 	0.86927 0.18531 0.57781 0.07100
H 	H 	0.79764 0.12069 0.59964 0.05600
H 	H 	0.69661 0.32310 0.48206 0.07000
H 	H 	0.61778 0.24067 0.48679 0.06300
H 	H 	0.66408 0.27427 0.45451 0.06100
C 	C 	0.90496 0.54045 0.58797 -0.07900
C 	C 	0.87340 0.57287 0.56762 -0.00800
C 	C 	0.81182 0.54684 0.54078 0.03800
C 	C 	0.78110 0.48724 0.53588 -0.04700
C 	C 	0.80818 0.45124 0.55890 -0.04800
C 	C 	0.87263 0.47950 0.58390 0.06900
C 	C 	0.90634 0.63533 0.57362 0.00900
C 	C 	0.77807 0.58186 0.51776 -0.17800
H 	H 	0.73292 0.46637 0.51584 0.04200
C 	C 	0.90551 0.44380 0.60719 -0.19300
H 	H 	0.95377 0.56194 0.60755 0.05000
C 	C 	0.89389 0.63678 0.60070 0.02200
C 	C 	0.91965 0.69660 0.60318 -0.01100
C 	C 	0.95557 0.75443 0.57831 -0.11000
C 	C 	0.96527 0.75208 0.55038 0.09800
C 	C 	0.94417 0.69320 0.54964 -0.09500
C 	C 	0.85370 0.57490 0.62703 -0.17100
H 	H 	0.91294 0.69830 0.62486 0.03800
C 	C 	0.99360 0.81093 0.52006 -0.19000
H 	H 	0.95352 0.69172 0.52893 0.05100
H 	H 	0.95831 0.47458 0.62325 0.06900
H 	H 	0.91098 0.42959 0.59036 0.07500
H 	H 	0.87264 0.39952 0.62586 0.07000
H 	H 	0.81183 0.62769 0.49999 0.06500
H 	H 	0.76973 0.59328 0.53477 0.06500
H 	H 	0.72652 0.55185 0.50070 0.06100
H 	H 	0.84699 0.58409 0.64599 0.06000
H 	H 	0.88189 0.55225 0.64280 0.06400
H 	H 	0.80108 0.54027 0.61262 0.06300
H 	H 	0.99063 0.79895 0.49858 0.06600
H 	H 	0.96209 0.82977 0.50790 0.08500
C 	C 	0.46152 0.18491 0.56381 -0.07800
C 	C 	0.46480 0.20840 0.58645 -0.01000
C 	C 	0.52893 0.24449 0.60954 0.03700
C 	C 	0.58888 0.25784 0.60878 -0.04900
C 	C 	0.58758 0.24306 0.58233 -0.04700
C 	C 	0.52265 0.20410 0.56038 0.06300
C 	C 	0.40141 0.19788 0.58417 0.00800
C 	C 	0.53419 0.27003 0.63445 -0.17700
H 	H 	0.63803 0.28481 0.62683 0.04300
C 	C 	0.51834 0.18590 0.53205 -0.18700
H 	H 	0.41165 0.15490 0.54720 0.04300
C 	C 	0.37029 0.22513 0.55233 0.02000
C 	C 	0.30015 0.19809 0.54630 -0.01000
C 	C 	0.26284 0.14737 0.57260 -0.12100
C 	C 	0.29965 0.13250 0.60727 0.10200
C 	C 	0.36728 0.15434 0.61225 -0.09900
C 	C 	0.40975 0.27951 0.52379 -0.17000
H 	H 	0.27322 0.21280 0.52022 0.03300
C 	C 	0.27042 0.09935 0.63940 -0.20300
H 	H 	0.39265 0.13653 0.63766 0.04800
H 	H 	0.46373 0.15580 0.51717 0.05700
H 	H 	0.53925 0.15702 0.54447 0.06800
H 	H 	0.54808 0.23055 0.51238 0.06500
H 	H 	0.51030 0.22943 0.65698 0.06000
H 	H 	0.50745 0.29404 0.62001 0.06300
H 	H 	0.58930 0.30675 0.64574 0.06000
H 	H 	0.38777 0.30780 0.50674 0.05900
H 	H 	0.40642 0.25910 0.50663 0.06100
H 	H 	0.46532 0.31383 0.53592 0.06300
H 	H 	0.27997 0.06193 0.65780 0.07100
H 	H 	0.21365 0.07528 0.63223 0.07600
H 	H 	0.29686 0.13604 0.65384 0.06600
C 	C 	0.85481 0.24635 0.04804 -0.07800
C 	C 	0.82913 0.23534 0.01422 -0.00800
C 	C 	0.78936 0.25763 0.98626 0.03600
C 	C 	0.77413 0.28891 0.99298 -0.05000
C 	C 	0.79872 0.29867 0.02703 -0.04500
C 	C 	0.83945 0.27737 0.05476 0.06500
C 	C 	0.84104 0.19703 0.00913 0.01200
C 	C 	0.76148 0.24655 0.94968 -0.17700
H 	H 	0.74246 0.30494 0.97184 0.04100
C 	C 	0.86610 0.28717 0.09159 -0.18900
H 	H 	0.88575 0.22960 0.06935 0.04700
C 	C 	0.90754 0.22493 0.00710 0.01800
C 	C 	0.92678 0.18427 0.01723 -0.00500
C 	C 	0.88065 0.11682 0.02973 -0.12500
C 	C 	0.80987 0.08915 0.02342 0.11500
C 	C 	0.79076 0.12951 0.01408 -0.10500
C 	C 	0.96042 0.29770 0.99806 -0.15800
H 	H 	0.98020 0.20561 0.01968 0.03700
C 	C 	0.75670 0.01644 0.03173 -0.26800
H 	H 	0.73834 0.10804 0.01354 0.04900
H 	H 	0.89352 0.26437 0.11080 0.06000
H 	H 	0.82203 0.26471 0.10202 0.06700
H 	H 	0.90306 0.33998 0.09049 0.06900
H 	H 	0.72035 0.19390 0.95081 0.06000
H 	H 	0.80403 0.26364 0.94014 0.06200
H 	H 	0.73864 0.27343 0.92981 0.05900
H 	H 	0.98595 0.31601 0.02221 0.06400
H 	H 	0.93510 0.32156 0.97662 0.06000
H 	H 	0.70460 0.00294 0.01396 0.07100
H 	H 	0.75341 0.99818 0.05991 0.10000
H 	H 	0.77086 0.99232 0.02761 0.10700
C 	C 	0.88435 0.69999 0.01567 -0.09700
C 	C 	0.87108 0.64446 0.04383 0.01100
C 	C 	0.86858 0.64070 0.07636 0.02000
C 	C 	0.89090 0.69657 0.08207 -0.00700
C 	C 	0.91215 0.75455 0.05511 -0.12000
C 	C 	0.89979 0.75315 0.02048 0.10700
C 	C 	0.86288 0.59183 0.03960 -0.01000
C 	C 	0.84636 0.57887 0.10569 -0.17000
H 	H 	0.89702 0.69635 0.10833 0.03500
C 	C 	0.90763 0.80983 0.98908 -0.21500
H 	H 	0.88374 0.70228 0.99021 0.05100
C 	C 	0.80371 0.55220 0.01615 0.04000
C 	C 	0.79624 0.50116 0.01398 -0.04700
C 	C 	0.84143 0.48359 0.03828 -0.04400
C 	C 	0.90352 0.52621 0.05939 0.06200
C 	C 	0.91421 0.58064 0.05959 -0.07400
C 	C 	0.74722 0.56239 0.99450 -0.18200
H 	H 	0.75035 0.47002 0.99643 0.04100
C 	C 	0.95541 0.51087 0.08397 -0.17300
H 	H 	0.96092 0.61256 0.07655 0.04800
H 	H 	0.86860 0.79244 0.96462 0.07100
H 	H 	0.96048 0.84191 0.98441 0.08300
H 	H 	0.89892 0.83789 0.99363 0.08700
H 	H 	0.89034 0.57469 0.12062 0.06300
H 	H 	0.80118 0.53578 0.09443 0.06400
H 	H 	0.83016 0.57839 0.12474 0.06000
H 	H 	0.69908 0.52015 0.98317 0.06000
H 	H 	0.76533 0.60624 0.97201 0.06300
H 	H 	0.73301 0.56831 0.01148 0.06500
H 	H 	0.96181 0.49185 0.07057 0.06700
H 	H 	0.93701 0.47380 0.10856 0.06400
C 	C 	0.40681 0.16207 0.09376 -0.10000
C 	C 	0.43026 0.18367 0.06410 0.00800
C 	C 	0.38395 0.17788 0.03009 0.01800
C 	C 	0.31522 0.15201 0.02614 -0.01000
C 	C 	0.29036 0.12678 0.05606 -0.12100
C 	C 	0.33698 0.13319 0.09012 0.10200
C 	C 	0.50450 0.21601 0.06840 -0.01000
C 	C 	0.40729 0.19809 0.99809 -0.17200
H 	H 	0.27972 0.14807 0.99996 0.03300
C 	C 	0.31255 0.10880 0.12263 -0.20700
H 	H 	0.44296 0.16764 0.11971 0.05000
C 	C 	0.55126 0.28439 0.05994 0.03900
C 	C 	0.61721 0.31419 0.05701 -0.05000
C 	C 	0.63983 0.27686 0.06579 -0.04500
C 	C 	0.59567 0.20842 0.07841 0.06300
C 	C 	0.52728 0.17839 0.07835 -0.07800
C 	C 	0.53019 0.32578 0.05282 -0.17800
H 	H 	0.65098 0.36667 0.04764 0.04500
C 	C 	0.62048 0.16720 0.09170 -0.18700
H 	H 	0.49157 0.12576 0.08569 0.04300
H 	H 	0.29376 0.13542 0.11914 0.07600
H 	H 	0.35517 0.11633 0.14724 0.06400
H 	H 	0.26990 0.05589 0.12676 0.07600
H 	H 	0.43045 0.17378 0.00401 0.06200
H 	H 	0.44658 0.25161 0.99120 0.06000
H 	H 	0.36311 0.18443 0.97429 0.05500
H 	H 	0.57582 0.37740 0.05227 0.06000
H 	H 	0.50626 0.30804 0.07420 0.06500
H 	H 	0.49220 0.32397 0.02666 0.06200
H 	H 	0.58712 0.11873 0.10845 0.05800
H 	H 	0.67446 0.19068 0.10851 0.06600
H 	H 	0.61861 0.15975 0.06865 0.06800
