data_crystal

_cell_length_a 25.02780
_cell_length_b 26.25742
_cell_length_c 30.95554
_cell_angle_alpha 61.02169
_cell_angle_beta  118.59897
_cell_angle_gamma 133.20449

_symmetry_space_group_name_	'P 1'
_symmetry_space_group_name_H-M	'P 1'

loop_
_symmetry_equiv_pos_as_xyz
  x,y,z

loop_
_atom_site_label
_atom_site_type_symbol
_atom_site_fract_x
_atom_site_fract_y
_atom_site_fract_z
_atom_site_charge
C 	C 	0.73490 0.30693 0.05139 0.13100
N 	N 	0.77432 0.37579 0.05408 -0.13600
C 	C 	0.74011 0.39384 0.06167 0.13300
N 	N 	0.66783 0.34403 0.06600 -0.13800
C 	C 	0.62892 0.27610 0.06341 0.12500
N 	N 	0.66243 0.25726 0.05644 -0.13600
C 	C 	0.74861 0.31971 0.53417 0.13100
N 	N 	0.67679 0.27481 0.53990 -0.13600
C 	C 	0.64866 0.30072 0.54484 0.13700
N 	N 	0.69172 0.37094 0.54384 -0.13900
C 	C 	0.76402 0.41548 0.54033 0.13300
N 	N 	0.79326 0.39009 0.53564 -0.13800
C 	C 	0.26824 0.64129 0.24951 0.11900
N 	N 	0.33895 0.68771 0.24110 -0.13900
C 	C 	0.36708 0.66307 0.23448 0.13500
N 	N 	0.32527 0.59272 0.23634 -0.13900
C 	C 	0.25439 0.54648 0.24295 0.13400
N 	N 	0.22518 0.57043 0.24945 -0.13600
C 	C 	0.27476 0.65228 0.72946 0.12800
N 	N 	0.22996 0.58141 0.72928 -0.13400
C 	C 	0.25593 0.55627 0.72049 0.12100
N 	N 	0.32576 0.60149 0.71209 -0.13800
C 	C 	0.37037 0.67156 0.71224 0.13200
N 	N 	0.34510 0.69737 0.72084 -0.13900
Co	Co	0.08457 0.96476 0.16189 1.17400
Co	Co	0.89384 0.97423 0.11334 1.16600
Co	Co	0.03275 0.02682 0.19504 1.19700
Co	Co	0.95282 0.92638 0.07398 1.17300
C 	C 	0.07911 0.82919 0.19766 0.31100
Co	Co	0.06238 0.89150 0.08818 1.18400
Co	Co	0.90695 0.03728 0.18909 1.17800
C 	C 	0.02014 0.96934 0.98893 0.29400
O 	O 	0.99145 0.14208 0.16318 -0.41000
O 	O 	0.94837 0.01248 0.16299 -0.74600
C 	C 	0.06290 0.16826 0.18526 0.31100
O 	O 	0.11347 0.01474 0.21139 -0.43700
O 	O 	0.86943 0.93324 0.05975 -0.47500
C 	C 	0.84963 0.07165 0.07834 0.30100
O 	O 	0.00356 0.99468 0.12635 -0.58400
C 	C 	0.99129 0.99184 0.28702 0.22300
C 	C 	0.21048 0.01941 0.12469 0.36100
C 	C 	0.89720 0.78575 0.07014 0.30400
O 	O 	0.09225 0.13595 0.19290 -0.36800
O 	O 	0.17381 0.95183 0.12672 -0.42600
O 	O 	0.18406 0.03895 0.13702 -0.37500
O 	O 	0.82943 0.03672 0.12136 -0.39800
O 	O 	0.88063 0.05661 0.06617 -0.37000
O 	O 	0.97967 0.04130 0.26005 -0.36800
O 	O 	0.00241 0.96780 0.26523 -0.35600
O 	O 	0.95370 0.82620 0.04922 -0.40000
O 	O 	0.88988 0.81441 0.09034 -0.39800
O 	O 	0.03395 0.93463 0.10817 -0.74900
C 	C 	0.77986 0.88901 0.17790 0.29100
O 	O 	0.82880 0.92802 0.21167 -0.39300
O 	O 	0.80218 0.88639 0.14801 -0.39000
O 	O 	0.03664 0.81312 0.15391 -0.38900
O 	O 	0.08628 0.87475 0.21177 -0.38300
O 	O 	0.07945 0.97324 0.02320 -0.36700
O 	O 	0.97236 0.96599 0.00072 -0.39000
Co	Co	0.11659 0.98416 0.66619 1.17300
Co	Co	0.91596 0.98229 0.61445 1.16400
Co	Co	0.04801 0.02711 0.70188 1.19200
Co	Co	0.98112 0.93067 0.58380 1.16500
C 	C 	0.15979 0.88648 0.70666 0.30100
Co	Co	0.11196 0.92187 0.59576 1.16700
Co	Co	0.92041 0.04204 0.68732 1.18900
C 	C 	0.02115 0.95510 0.49367 0.31600
O 	O 	0.02400 0.10969 0.72934 -0.36600
O 	O 	0.96627 0.01777 0.66521 -0.74700
C 	C 	0.08433 0.15696 0.71140 0.31800
O 	O 	0.13387 0.02175 0.71915 -0.44500
O 	O 	0.89328 0.93303 0.56726 -0.48100
C 	C 	0.90366 0.10854 0.57715 0.29200
O 	O 	0.02686 0.00265 0.63174 -0.54900
C 	C 	0.96706 0.96487 0.78439 0.27400
C 	C 	0.23790 0.07212 0.60518 0.29400
C 	C 	0.95742 0.79043 0.60256 0.26200
O 	O 	0.10754 0.13601 0.69720 -0.37300
O 	O 	0.18789 0.03141 0.57232 -0.35600
O 	O 	0.22054 0.06323 0.64429 -0.35700
O 	O 	0.94212 0.12267 0.62207 -0.39000
O 	O 	0.89311 0.05924 0.56482 -0.35900
O 	O 	0.90655 0.95841 0.75065 -0.38700
O 	O 	0.01461 0.96855 0.77223 -0.36900
O 	O 	0.02907 0.81655 0.62245 -0.37200
O 	O 	0.92915 0.81923 0.60226 -0.38900
O 	O 	0.06864 0.95252 0.61410 -0.76400
C 	C 	0.78436 0.90905 0.65247 0.30700
O 	O 	0.81195 0.97476 0.64846 -0.42200
O 	O 	0.82396 0.89696 0.64730 -0.40500
O 	O 	0.18589 0.92451 0.66581 -0.41900
O 	O 	0.11722 0.89441 0.71272 -0.39500
O 	O 	0.04048 0.91157 0.52419 -0.40000
O 	O 	0.00066 0.97579 0.51091 -0.37200
C 	C 	0.97161 0.99833 0.89452 -0.12700
C 	C 	0.00529 0.96663 0.93665 -0.02800
C 	C 	0.02560 0.93324 0.92863 0.10500
C 	C 	0.01546 0.93557 0.87901 0.00300
C 	C 	0.98144 0.96704 0.83682 -0.11800
C 	C 	0.95865 0.99817 0.84506 0.12800
Br	Br	0.91043 0.04186 0.79019 -0.25800
H 	H 	0.95554 0.02369 0.89998 0.11400
H 	H 	0.03162 0.91028 0.87358 0.06400
Br	Br	0.06072 0.87826 0.98418 -0.28100
C 	C 	0.06845 0.02956 0.36800 -0.02700
C 	C 	0.00539 0.97421 0.34304 -0.04600
C 	C 	0.94539 0.91466 0.36725 0.08700
C 	C 	0.94696 0.91298 0.41402 -0.05200
C 	C 	0.00921 0.96933 0.43827 -0.09200
C 	C 	0.06974 0.02825 0.41447 0.15000
Br	Br	0.15437 0.10832 0.44440 -0.23400
H 	H 	0.11454 0.07626 0.34958 0.06700
H 	H 	0.90089 0.86636 0.43243 0.05700
Br	Br	0.86037 0.83515 0.33686 -0.25000
C 	C 	0.17416 0.35652 0.71323 0.00700
C 	C 	0.15613 0.40047 0.66996 -0.03500
C 	C 	0.17348 0.46186 0.67353 -0.01800
C 	C 	0.12567 0.23145 0.70948 -0.08900
C 	C 	0.22231 0.43305 0.76418 -0.01800
C 	C 	0.20514 0.37178 0.76059 -0.03400
C 	C 	0.15096 0.29017 0.71029 0.05200
C 	C 	0.20967 0.48024 0.72034 -0.01400
H 	H 	0.12941 0.38762 0.63346 0.05000
H 	H 	0.16331 0.49766 0.63935 0.04600
H 	H 	0.25015 0.44641 0.80056 0.04500
H 	H 	0.21660 0.33664 0.79460 0.05200
C 	C 	0.57307 0.78402 0.68271 0.03600
C 	C 	0.63196 0.78277 0.72201 -0.06400
C 	C 	0.69913 0.81534 0.71120 0.01900
C 	C 	0.44390 0.71781 0.70256 -0.03300
C 	C 	0.64669 0.84582 0.62150 0.02100
C 	C 	0.57956 0.81326 0.63230 -0.06700
C 	C 	0.50364 0.75011 0.69377 -0.00200
C 	C 	0.70818 0.85020 0.66109 -0.09200
H 	H 	0.62645 0.75802 0.76099 0.05300
H 	H 	0.74602 0.81808 0.74212 0.03800
H 	H 	0.65279 0.87228 0.58263 0.02500
H 	H 	0.53331 0.81222 0.60152 0.05000
C 	C 	0.20447 0.74044 0.75074 0.03500
C 	C 	0.12905 0.71615 0.73381 -0.06200
C 	C 	0.11056 0.75849 0.72981 0.01500
C 	C 	0.24737 0.68025 0.73778 -0.02900
C 	C 	0.24109 0.84575 0.76404 0.01700
C 	C 	0.25965 0.80319 0.76871 -0.06500
C 	C 	0.22667 0.70618 0.74415 -0.00200
C 	C 	0.16782 0.82729 0.73968 -0.08700
H 	H 	0.08528 0.66642 0.72150 0.05600
H 	H 	0.05279 0.74089 0.71435 0.04600
H 	H 	0.28559 0.89726 0.77387 0.02600
H 	H 	0.31772 0.82141 0.78347 0.04900
C 	C 	0.15317 0.35515 0.21933 0.03800
C 	C 	0.13708 0.35570 0.16912 -0.06300
C 	C 	0.11721 0.29791 0.15832 0.02400
C 	C 	0.20892 0.47451 0.23742 -0.02800
C 	C 	0.13262 0.23982 0.24809 0.02000
C 	C 	0.15304 0.29800 0.25893 -0.06100
C 	C 	0.18024 0.41810 0.23034 0.00400
C 	C 	0.11187 0.23821 0.19753 -0.08500
H 	H 	0.13957 0.40075 0.13834 0.05600
H 	H 	0.10153 0.29757 0.11915 0.03800
H 	H 	0.12848 0.19407 0.27877 0.04200
H 	H 	0.16795 0.29816 0.29803 0.06100
C 	C 	0.56732 0.77759 0.20148 0.03400
C 	C 	0.58680 0.83038 0.15633 -0.06400
C 	C 	0.65291 0.86113 0.14508 0.01100
C 	C 	0.43941 0.71123 0.22278 -0.03400
C 	C 	0.67745 0.78296 0.22235 0.02200
C 	C 	0.61154 0.75238 0.23363 -0.06100
C 	C 	0.49846 0.74436 0.21276 0.00000
C 	C 	0.70021 0.83969 0.17918 -0.08300
H 	H 	0.55159 0.84850 0.13039 0.04800
H 	H 	0.66975 0.90472 0.11150 0.02600
H 	H 	0.71296 0.76530 0.24861 0.05100
H 	H 	0.59545 0.70978 0.26776 0.05700
C 	C 	0.17968 0.72895 0.25979 0.00200
C 	C 	0.25772 0.76602 0.26992 -0.03700
C 	C 	0.28669 0.73595 0.26903 -0.02300
C 	C 	0.11982 0.79773 0.22903 -0.09900
C 	C 	0.15968 0.62978 0.25002 -0.02100
C 	C 	0.13098 0.65970 0.25150 -0.03500
C 	C 	0.14920 0.76735 0.24650 0.04600
C 	C 	0.23773 0.66864 0.25721 -0.01200
H 	H 	0.29597 0.81945 0.27638 0.04200
H 	H 	0.34709 0.76592 0.27625 0.04500
H 	H 	0.12093 0.57762 0.24148 0.05100
H 	H 	0.07056 0.63054 0.24349 0.05000
C 	C 	0.81948 0.22655 0.52102 0.03500
C 	C 	0.89384 0.26291 0.52023 -0.06300
C 	C 	0.91904 0.22392 0.52900 0.01700
C 	C 	0.77760 0.29151 0.52833 -0.02900
C 	C 	0.79388 0.11307 0.53396 0.01500
C 	C 	0.76849 0.15203 0.52494 -0.05900
C 	C 	0.79785 0.26355 0.52424 0.00000
C 	C 	0.87080 0.14809 0.54058 -0.07800
H 	H 	0.93329 0.32074 0.51577 0.04900
H 	H 	0.97812 0.25207 0.53239 0.03200
H 	H 	0.75539 0.05481 0.54140 0.04600
H 	H 	0.71026 0.12357 0.52411 0.05900
C 	C 	0.86626 0.60455 0.56757 0.03300
C 	C 	0.86585 0.66158 0.52827 -0.06200
C 	C 	0.88559 0.71907 0.53952 0.01000
C 	C 	0.81056 0.48647 0.54781 -0.03200
C 	C 	0.90116 0.66040 0.62912 0.01400
C 	C 	0.88183 0.60318 0.61791 -0.06500
C 	C 	0.83951 0.54220 0.55599 -0.00000
C 	C 	0.90675 0.72039 0.59019 -0.07900
H 	H 	0.85099 0.66186 0.48906 0.05600
H 	H 	0.88935 0.76478 0.50906 0.03300
H 	H 	0.91652 0.66023 0.66837 0.02800
H 	H 	0.87938 0.55798 0.64846 0.04900
C 	C 	0.44880 0.18613 0.57802 0.03600
C 	C 	0.43345 0.13798 0.62520 -0.05900
C 	C 	0.36763 0.10669 0.63704 0.01600
C 	C 	0.57637 0.25339 0.55615 -0.03000
C 	C 	0.33509 0.17532 0.55602 0.02000
C 	C 	0.40071 0.20642 0.54415 -0.05700
C 	C 	0.51745 0.22015 0.56624 0.00600
C 	C 	0.31652 0.12288 0.60151 -0.07500
H 	H 	0.47172 0.12387 0.65232 0.05700
H 	H 	0.35399 0.06641 0.67239 0.04600
H 	H 	0.29674 0.18924 0.52875 0.05400
H 	H 	0.41366 0.24564 0.50835 0.05900
C 	C 	0.81140 0.22423 0.03167 0.03100
C 	C 	0.75438 0.16053 0.01484 -0.05100
C 	C 	0.77000 0.11457 0.02176 0.01600
C 	C 	0.76925 0.28552 0.04363 -0.03000
C 	C 	0.90159 0.20035 0.05567 0.01100
C 	C 	0.88584 0.24584 0.04969 -0.06100
C 	C 	0.79129 0.26058 0.03769 0.00200
C 	C 	0.84254 0.13142 0.04623 -0.08100
H 	H 	0.69694 0.14411 0.99957 0.04900
H 	H 	0.72408 0.06253 0.01291 0.04200
H 	H 	0.95863 0.21589 0.07214 0.03700
H 	H 	0.93087 0.29585 0.06155 0.04700
C 	C 	0.81699 0.58529 0.06989 0.03400
C 	C 	0.85293 0.60449 0.11625 -0.06200
C 	C 	0.86728 0.66480 0.11911 0.01600
C 	C 	0.77853 0.46566 0.06428 -0.03200
C 	C 	0.80389 0.68288 0.03067 0.02800
C 	C 	0.78949 0.62270 0.02775 -0.05600
C 	C 	0.79985 0.52180 0.06701 0.00100
C 	C 	0.84804 0.70766 0.07525 -0.08800
H 	H 	0.87099 0.57370 0.14981 0.04900
H 	H 	0.89903 0.68162 0.15435 0.03700
H 	H 	0.78697 0.71430 0.99679 0.02800
H 	H 	0.75826 0.60612 0.99240 0.04700
C 	C 	0.41557 0.14815 0.09398 0.00200
C 	C 	0.43055 0.20035 0.04806 -0.03200
C 	C 	0.49794 0.23767 0.03553 -0.01700
C 	C 	0.28421 0.07016 0.11501 -0.10400
C 	C 	0.53408 0.16825 0.11366 -0.01800
C 	C 	0.46659 0.13091 0.12619 -0.03200
C 	C 	0.34481 0.10759 0.10581 0.06500
C 	C 	0.55102 0.22328 0.06899 -0.01400
H 	H 	0.39040 0.21255 0.02231 0.05200
H 	H 	0.51047 0.28004 0.00089 0.04700
H 	H 	0.57475 0.15688 0.13986 0.04800
H 	H 	0.45439 0.08917 0.16115 0.05200
