data_crystal

_cell_length_a 30.10119
_cell_length_b 30.32805
_cell_length_c 26.54668
_cell_angle_alpha 95.52203
_cell_angle_beta  95.51700
_cell_angle_gamma 125.59082

_symmetry_space_group_name_	'P 1'
_symmetry_space_group_name_H-M	'P 1'

loop_
_symmetry_equiv_pos_as_xyz
  x,y,z

loop_
_atom_site_label
_atom_site_type_symbol
_atom_site_fract_x
_atom_site_fract_y
_atom_site_fract_z
_atom_site_charge
C 	C 	0.03155 0.01619 0.41655 0.03200
C 	C 	0.90836 0.02055 0.40391 -0.01000
C 	C 	0.89183 0.02733 0.35582 -0.03100
H 	H 	0.91281 0.01823 0.07419 0.03500
C 	C 	0.97004 0.02291 0.99921 0.03100
H 	H 	0.89899 0.01236 0.32110 0.03500
C 	C 	0.05123 0.02594 0.98892 0.03300
H 	H 	0.13016 0.02878 0.05103 0.03700
C 	C 	0.99919 0.03538 0.41048 -0.07700
H 	H 	0.91241 0.03577 0.48598 0.03600
C 	C 	0.89928 0.04041 0.44865 -0.03000
C 	C 	0.91462 0.04346 0.04703 -0.03100
C 	C 	0.94407 0.05146 0.00669 -0.00400
C 	C 	0.14611 0.05308 0.02120 -0.02800
C 	C 	0.02700 0.05328 0.99752 -0.08000
H 	H 	0.11061 0.05350 0.50101 0.03700
C 	C 	0.01848 0.96820 0.98239 -0.07800
C 	C 	0.96182 0.93781 0.98470 0.03500
C 	C 	0.93757 0.96513 0.99279 -0.07800
H 	H 	0.05235 0.09795 0.00306 0.05200
H 	H 	0.03713 0.94700 0.97580 0.05100
H 	H 	0.89352 0.94150 0.99377 0.05000
C 	C 	0.94157 0.99937 0.40809 0.03500
C 	C 	0.00619 0.96075 0.41967 -0.07800
C 	C 	0.94851 0.92440 0.41688 0.03500
C 	C 	0.91619 0.94383 0.41134 -0.07900
H 	H 	0.01885 0.07838 0.40833 0.05100
H 	H 	0.03129 0.94592 0.42441 0.05200
H 	H 	0.87163 0.91595 0.40953 0.05100
Cu	Cu	0.64832 0.25116 0.00475 0.92900
Cu	Cu	0.69858 0.26350 0.89862 0.86800
Cu	Cu	0.66767 0.33457 0.93713 0.89700
Cu	Cu	0.63417 0.34418 0.03716 0.89500
C 	C 	0.66006 0.29106 0.11136 0.28800
O 	O 	0.56545 0.21025 0.00228 -0.35700
C 	C 	0.66243 0.30552 0.82637 0.28400
O 	O 	0.68437 0.33563 0.00888 -0.64000
O 	O 	0.64006 0.25599 0.93103 -0.64100
O 	O 	0.69063 0.21944 0.00339 -0.36900
O 	O 	0.75036 0.28208 0.95838 -0.43900
O 	O 	0.62908 0.30698 0.09675 -0.38000
O 	O 	0.70039 0.41241 0.94651 -0.38000
C 	C 	0.69378 0.44006 0.98284 0.29200
C 	C 	0.53858 0.22848 0.98242 0.28300
O 	O 	0.56646 0.28002 0.97623 -0.39200
O 	O 	0.65882 0.41490 0.01447 -0.39000
O 	O 	0.66682 0.26108 0.07807 -0.35400
C 	C 	0.73842 0.24546 0.98761 0.29000
O 	O 	0.65528 0.33273 0.86270 -0.37300
O 	O 	0.66420 0.26436 0.83471 -0.41400
H 	H 	0.72400 0.36313 0.02531 0.17100
H 	H 	0.60224 0.22929 0.91003 0.17900
Cu	Cu	0.73320 0.34019 0.43758 0.92900
Cu	Cu	0.72821 0.29495 0.54558 0.86800
Cu	Cu	0.64773 0.31432 0.50558 0.89800
Cu	Cu	0.63084 0.34124 0.40368 0.89500
C 	C 	0.68977 0.32251 0.33046 0.28800
O 	O 	0.76706 0.42092 0.43774 -0.35800
C 	C 	0.68081 0.32514 0.61678 0.28300
O 	O 	0.64697 0.29724 0.43392 -0.64100
O 	O 	0.72865 0.34879 0.51127 -0.64100
O 	O 	0.77073 0.30363 0.44049 -0.37000
O 	O 	0.71102 0.24289 0.48698 -0.44000
O 	O 	0.66893 0.34903 0.34396 -0.38100
O 	O 	0.56813 0.27513 0.49689 -0.38000
C 	C 	0.53662 0.27509 0.45858 0.29300
C 	C 	0.74414 0.44348 0.45618 0.28400
O 	O 	0.69260 0.41178 0.46331 -0.39200
O 	O 	0.55851 0.31038 0.42679 -0.39100
O 	O 	0.72331 0.32048 0.36446 -0.35400
C 	C 	0.74656 0.25610 0.45590 0.29100
O 	O 	0.65017 0.32804 0.57996 -0.37200
O 	O 	0.72499 0.32819 0.60871 -0.41300
H 	H 	0.62206 0.25739 0.41858 0.17000
H 	H 	0.75317 0.38697 0.53136 0.17900
C 	C 	0.66033 0.31609 0.77332 -0.06800
C 	C 	0.61667 0.27433 0.73342 0.00200
C 	C 	0.62137 0.27914 0.68155 -0.00400
C 	C 	0.66964 0.32580 0.66975 -0.06800
C 	C 	0.70969 0.37060 0.70961 0.00200
C 	C 	0.70503 0.36574 0.76148 -0.00400
C 	C 	0.56701 0.22665 0.74578 0.08200
C 	C 	0.75542 0.42161 0.69720 0.08200
C 	C 	0.74676 0.41124 0.80263 0.07300
C 	C 	0.57728 0.23554 0.64038 0.07300
N 	N 	0.78003 0.44754 0.83549 -0.12000
N 	N 	0.54211 0.20078 0.60752 -0.12000
N 	N 	0.79190 0.46230 0.68727 -0.11800
N 	N 	0.52738 0.18862 0.75568 -0.11800
C 	C 	0.68832 0.30900 0.27516 -0.06300
C 	C 	0.64158 0.25893 0.24510 -0.00300
C 	C 	0.63414 0.25111 0.19088 0.00400
C 	C 	0.67365 0.29333 0.16687 -0.06300
C 	C 	0.72320 0.34079 0.19699 -0.00300
C 	C 	0.73049 0.34877 0.25121 0.00400
C 	C 	0.60071 0.21597 0.26998 0.07100
C 	C 	0.76610 0.38186 0.17214 0.07200
C 	C 	0.78055 0.39853 0.28233 0.08900
C 	C 	0.58522 0.20033 0.15976 0.08900
N 	N 	0.82046 0.43822 0.30719 -0.11300
N 	N 	0.54619 0.15984 0.13489 -0.11300
N 	N 	0.80029 0.41461 0.15227 -0.12200
N 	N 	0.56813 0.18172 0.28989 -0.12300
C 	C 	0.92230 0.86607 0.41995 -0.00800
C 	C 	0.92486 0.83250 0.38195 -0.03000
C 	C 	0.90803 0.78004 0.38862 -0.05300
C 	C 	0.88773 0.76031 0.43296 0.02900
C 	C 	0.88347 0.79320 0.47028 -0.05200
C 	C 	0.90052 0.84581 0.46367 -0.03000
C 	C 	0.87527 0.70717 0.44192 -0.04600
C 	C 	0.82601 0.66769 0.45308 -0.05500
C 	C 	0.81141 0.61258 0.45752 0.04700
C 	C 	0.78307 0.58621 0.49640 -0.07500
C 	C 	0.76366 0.53182 0.49765 0.01800
C 	C 	0.77220 0.50315 0.45983 -0.09000
C 	C 	0.80214 0.53011 0.42188 0.01800
C 	C 	0.82107 0.58428 0.42033 -0.07300
H 	H 	0.94150 0.84775 0.34801 0.03700
H 	H 	0.91152 0.75501 0.35966 0.04200
H 	H 	0.86856 0.77870 0.50503 0.04200
H 	H 	0.89866 0.87154 0.49335 0.03600
H 	H 	0.90527 0.69898 0.43609 0.04200
H 	H 	0.79643 0.67628 0.45972 0.04400
H 	H 	0.77519 0.60753 0.52513 0.04900
H 	H 	0.74089 0.51154 0.52730 0.03200
H 	H 	0.80848 0.50827 0.39215 0.04400
H 	H 	0.84147 0.60351 0.38920 0.05000
C 	C 	0.86800 0.05537 0.35265 -0.05300
C 	C 	0.86025 0.07661 0.39752 0.02800
C 	C 	0.87577 0.06870 0.44560 -0.05200
C 	C 	0.84100 0.11161 0.39438 -0.04500
C 	C 	0.80414 0.10701 0.42250 -0.05700
C 	C 	0.78845 0.14510 0.42301 0.04800
C 	C 	0.82945 0.20241 0.42921 -0.07700
C 	C 	0.81519 0.23865 0.43695 0.02000
C 	C 	0.76009 0.21807 0.43951 -0.09700
C 	C 	0.71887 0.16079 0.43144 0.02200
C 	C 	0.73304 0.12455 0.42340 -0.07800
H 	H 	0.85654 0.06151 0.31544 0.04200
H 	H 	0.87136 0.08606 0.48069 0.04100
H 	H 	0.85627 0.14059 0.36804 0.04200
H 	H 	0.78430 0.07401 0.44448 0.04300
H 	H 	0.87261 0.21897 0.43004 0.04900
H 	H 	0.84739 0.28277 0.44325 0.03100
H 	H 	0.67606 0.14438 0.43264 0.03000
H 	H 	0.70112 0.08051 0.41868 0.04800
C 	C 	0.09223 0.05436 0.42053 -0.00800
C 	C 	0.11476 0.07524 0.37731 -0.03000
C 	C 	0.17241 0.10942 0.38049 -0.05200
C 	C 	0.20789 0.12257 0.42676 0.02800
C 	C 	0.18532 0.10318 0.47052 -0.05200
C 	C 	0.12771 0.06889 0.46728 -0.03000
C 	C 	0.26869 0.15764 0.42942 -0.04500
C 	C 	0.29978 0.14288 0.44984 -0.05600
C 	C 	0.36046 0.17763 0.45206 0.04900
C 	C 	0.39623 0.19201 0.49849 -0.07400
C 	C 	0.45371 0.22399 0.50078 0.02100
C 	C 	0.47594 0.24134 0.45636 -0.08800
C 	C 	0.43993 0.22604 0.40963 0.01900
C 	C 	0.38249 0.19420 0.40746 -0.07500
H 	H 	0.08761 0.06445 0.34115 0.03600
H 	H 	0.18946 0.12495 0.34679 0.04100
H 	H 	0.21237 0.11466 0.50696 0.04200
H 	H 	0.28779 0.19432 0.41215 0.04100
H 	H 	0.28071 0.10613 0.46699 0.04500
H 	H 	0.37953 0.17880 0.53294 0.05100
H 	H 	0.48090 0.23559 0.53715 0.04500
H 	H 	0.45637 0.23825 0.37487 0.02900
H 	H 	0.35509 0.18191 0.37103 0.04900
C 	C 	0.72015 0.49923 0.98360 -0.09000
C 	C 	0.73020 0.53381 0.02923 0.02100
C 	C 	0.75467 0.58970 0.02992 -0.07400
C 	C 	0.77005 0.61179 0.98529 0.04700
C 	C 	0.75946 0.57720 0.93946 -0.07400
C 	C 	0.73490 0.52127 0.93866 0.02000
C 	C 	0.79539 0.67080 0.98640 -0.05800
C 	C 	0.84274 0.70316 0.96863 -0.04400
C 	C 	0.86973 0.76281 0.97197 0.02600
C 	C 	0.88961 0.78739 0.92935 -0.05200
C 	C 	0.91849 0.84438 0.93311 -0.02900
C 	C 	0.92815 0.87735 0.97969 -0.01000
C 	C 	0.90806 0.85283 0.02229 -0.02800
C 	C 	0.87933 0.79588 0.01861 -0.05000
H 	H 	0.71935 0.51750 0.06423 0.02900
H 	H 	0.76218 0.61596 0.06532 0.04800
H 	H 	0.76976 0.59351 0.90438 0.05200
H 	H 	0.72668 0.49501 0.90298 0.04500
H 	H 	0.77701 0.68862 0.00465 0.04600
H 	H 	0.86093 0.68525 0.95014 0.04200
H 	H 	0.88295 0.76236 0.89339 0.04200
H 	H 	0.93393 0.86301 0.90005 0.03700
H 	H 	0.91579 0.87806 0.05854 0.03600
H 	H 	0.86561 0.77765 0.05224 0.04200
C 	C 	0.88662 0.06723 0.05184 -0.05200
C 	C 	0.88866 0.10004 0.01700 0.02900
C 	C 	0.91885 0.10878 0.97714 -0.05400
C 	C 	0.94644 0.08464 0.97204 -0.03300
C 	C 	0.85525 0.12118 0.01966 -0.04600
C 	C 	0.87851 0.17487 0.02039 -0.05700
C 	C 	0.84380 0.19454 0.01391 0.05200
C 	C 	0.85245 0.22844 0.97793 -0.08300
C 	C 	0.81880 0.24584 0.97003 0.02000
C 	C 	0.77624 0.22987 0.99844 -0.10100
C 	C 	0.76899 0.19763 0.03598 0.02500
C 	C 	0.80277 0.18025 0.04383 -0.07800
H 	H 	0.86310 0.05990 0.08246 0.04200
H 	H 	0.91982 0.13317 0.94940 0.04100
H 	H 	0.96864 0.09072 0.94053 0.03600
H 	H 	0.81118 0.09246 0.02033 0.04100
H 	H 	0.92275 0.20340 0.02021 0.04500
H 	H 	0.88462 0.24045 0.95531 0.04600
H 	H 	0.82527 0.27097 0.94120 0.01900
H 	H 	0.73724 0.18598 0.05902 0.04100
H 	H 	0.79705 0.15573 0.07309 0.05100
C 	C 	0.47726 0.19378 0.97430 -0.09100
C 	C 	0.44859 0.15257 0.00365 0.02000
C 	C 	0.39132 0.12435 0.00064 -0.07200
C 	C 	0.36217 0.13724 0.96863 0.04500
C 	C 	0.39017 0.17629 0.93717 -0.07400
C 	C 	0.44749 0.20462 0.94018 0.01700
C 	C 	0.30214 0.10904 0.96783 -0.05500
C 	C 	0.28123 0.13784 0.97253 -0.04600
C 	C 	0.22263 0.11028 0.97768 0.02600
C 	C 	0.18818 0.11659 0.94470 -0.05300
C 	C 	0.13247 0.09006 0.94906 -0.03000
C 	C 	0.11104 0.05767 0.98697 -0.01000
C 	C 	0.20164 0.07928 0.01662 -0.05000
H 	H 	0.47087 0.14352 0.02994 0.04400
H 	H 	0.36984 0.09343 0.02422 0.05000
H 	H 	0.36765 0.18493 0.91067 0.04900
H 	H 	0.46882 0.23536 0.91642 0.03300
H 	H 	0.27573 0.06498 0.96798 0.04400
H 	H 	0.30728 0.18184 0.97217 0.04100
H 	H 	0.20429 0.14123 0.91513 0.04100
H 	H 	0.10577 0.09392 0.92248 0.03500
H 	H 	0.22835 0.07549 0.04326 0.04300
