data_crystal

_cell_length_a 24.39244
_cell_length_b 24.61471
_cell_length_c 33.38980
_cell_angle_alpha 95.47693
_cell_angle_beta  95.47736
_cell_angle_gamma 125.81908

_symmetry_space_group_name_	'P 1'
_symmetry_space_group_name_H-M	'P 1'

loop_
_symmetry_equiv_pos_as_xyz
  x,y,z

loop_
_atom_site_label
_atom_site_type_symbol
_atom_site_fract_x
_atom_site_fract_y
_atom_site_fract_z
_atom_site_charge
C 	C 	0.02102 0.99052 0.93650 0.09400
C 	C 	0.08159 0.04970 0.51307 0.09800
N 	N 	0.04810 0.07646 0.50287 -0.13400
C 	C 	0.25647 0.17206 0.50671 0.07400
C 	C 	0.29649 0.21725 0.48143 -0.08000
C 	C 	0.33678 0.20505 0.46087 0.01000
C 	C 	0.33962 0.15151 0.46675 0.07800
C 	C 	0.29940 0.10608 0.49187 -0.08800
C 	C 	0.25841 0.11779 0.51205 0.02100
N 	N 	0.19520 0.15683 0.51174 -0.16300
C 	C 	0.15733 0.09275 0.51958 0.05500
C 	C 	0.19493 0.06677 0.52005 -0.07400
H 	H 	0.29515 0.25959 0.47726 0.05200
H 	H 	0.30080 0.06378 0.49605 0.05200
H 	H 	0.17226 0.01292 0.51335 0.05300
H 	H 	0.17440 0.17988 0.49927 0.08800
C 	C 	0.26529 0.16182 0.96994 -0.08900
C 	C 	0.20445 0.11003 0.94251 0.02100
C 	C 	0.19049 0.04707 0.92903 0.07100
C 	C 	0.23778 0.03425 0.94198 -0.08300
N 	N 	0.12208 0.99789 0.92030 -0.16200
C 	C 	0.09201 0.02857 0.92861 0.05400
C 	C 	0.14161 0.09836 0.94246 -0.07400
H 	H 	0.27600 0.21070 0.98048 0.05300
H 	H 	0.22719 0.98542 0.93147 0.05200
H 	H 	0.13410 0.13027 0.96211 0.05400
H 	H 	0.09905 0.94625 0.92013 0.08700
N 	N 	0.04537 0.98439 0.51923 -0.13400
C 	C 	0.31179 0.14839 0.98337 0.07800
C 	C 	0.29746 0.08524 0.97037 0.00900
N 	N 	0.40130 0.16744 0.46198 -0.15300
C 	C 	0.39956 0.25584 0.45208 -0.04300
H 	H 	0.42173 0.30959 0.45817 0.04800
C 	C 	0.36007 0.09569 0.97306 -0.04300
H 	H 	0.36885 0.06330 0.95510 0.04200
H 	H 	0.42316 0.14581 0.47515 0.08400
C 	C 	0.43798 0.23084 0.45310 -0.00200
N 	N 	0.38021 0.19698 0.99396 -0.15300
H 	H 	0.40481 0.24902 0.99465 0.08300
C 	C 	0.40952 0.16507 0.98772 -0.00100
C 	C 	0.48387 0.20134 0.98993 0.25700
C 	C 	0.51344 0.27545 0.46042 0.26000
O 	O 	0.51266 0.17244 0.00142 -0.35700
O 	O 	0.54737 0.27236 0.49227 -0.37300
O 	O 	0.54521 0.32580 0.43989 -0.38900
H 	H 	0.02104 0.87108 0.53716 0.08600
O 	O 	0.52255 0.26558 0.98608 -0.38100
H 	H 	0.54354 0.20702 0.69975 0.05200
H 	H 	0.54229 0.20031 0.78548 0.04500
H 	H 	0.56601 0.18572 0.22652 0.05400
H 	H 	0.55580 0.18124 0.13917 0.05000
H 	H 	0.03121 0.16898 0.47922 0.05000
H 	H 	0.55360 0.20034 0.92818 0.17300
H 	H 	0.58260 0.24225 0.62579 0.08200
C 	C 	0.58557 0.25203 0.78477 -0.04500
H 	H 	0.60369 0.22923 0.31079 0.07500
C 	C 	0.59662 0.25009 0.71171 -0.08300
C 	C 	0.60940 0.23798 0.22709 -0.08200
O 	O 	0.60183 0.22709 0.94290 -0.63900
C 	C 	0.60843 0.22411 0.15236 -0.04100
O 	O 	0.60468 0.29042 0.07862 -0.37800
Cu	Cu	0.61333 0.21581 0.00051 0.92600
Cu	Cu	0.61225 0.33981 0.03302 0.89300
H 	H 	0.62337 0.25960 0.43523 0.16200
N 	N 	0.61993 0.28730 0.64662 -0.15200
O 	O 	0.61611 0.22943 0.86521 -0.41500
C 	C 	0.62334 0.27089 0.75389 0.00800
C 	C 	0.62889 0.26276 0.19091 0.01100
Cu	Cu	0.63521 0.36272 0.42248 0.89300
C 	C 	0.62768 0.28759 0.86058 0.26100
C 	C 	0.62842 0.30326 0.81918 -0.00200
O 	O 	0.63765 0.32364 0.56300 -0.37700
C 	C 	0.63837 0.26479 0.08689 0.25900
O 	O 	0.63789 0.22334 0.05832 -0.35100
C 	C 	0.64093 0.28969 0.68585 0.07200
Cu	Cu	0.64644 0.32409 0.50455 0.89600
N 	N 	0.64890 0.26469 0.30067 -0.15400
O 	O 	0.65282 0.30837 0.44843 -0.63900
C 	C 	0.65048 0.28343 0.26410 0.07600
O 	O 	0.65007 0.42921 0.01575 -0.39100
Cu	Cu	0.65078 0.32813 0.95096 0.89600
O 	O 	0.65112 0.33673 0.89249 -0.37700
C 	C 	0.65828 0.26608 0.12997 0.00500
O 	O 	0.65844 0.16956 0.99462 -0.36300
Cu	Cu	0.66179 0.22250 0.91152 0.87000
O 	O 	0.66678 0.32190 0.00707 -0.64000
H 	H 	0.66678 0.55181 0.00232 0.04800
H 	H 	0.66899 0.06548 0.98249 0.08600
C 	C 	0.67140 0.34610 0.63632 -0.00100
N 	N 	0.99343 0.02375 0.94573 -0.13100
N 	N 	0.98213 0.92165 0.93302 -0.13000
H 	H 	0.96161 0.11116 0.93356 0.08800
C 	C 	0.92747 0.98818 0.95200 0.10000
N 	N 	0.88945 0.91956 0.94918 -0.13300
C 	C 	0.91649 0.88616 0.93964 0.09900
C 	C 	0.97868 0.03856 0.49898 0.10000
N 	N 	0.94237 0.97296 0.50487 -0.13200
C 	C 	0.97570 0.94561 0.51474 0.10000
O 	O 	0.72912 0.24281 0.95581 -0.43800
O 	O 	0.70335 0.42635 0.96314 -0.37300
C 	C 	0.70051 0.46035 0.99492 0.26400
C 	C 	0.71425 0.19708 0.97857 0.26200
H 	H 	0.71601 0.35092 0.02022 0.16200
Cu	Cu	0.75981 0.36075 0.45508 0.92600
Cu	Cu	0.75250 0.31255 0.54404 0.87000
C 	C 	0.71050 0.33612 0.36867 0.25900
O 	O 	0.80438 0.46078 0.45429 -0.35400
C 	C 	0.68724 0.34690 0.59493 0.26100
O 	O 	0.74834 0.37221 0.51266 -0.64000
O 	O 	0.80537 0.31489 0.46091 -0.36400
O 	O 	0.73108 0.24536 0.49977 -0.43800
O 	O 	0.68491 0.36978 0.37689 -0.37700
C 	C 	0.77524 0.48955 0.46533 0.25600
O 	O 	0.71051 0.45144 0.46938 -0.38100
O 	O 	0.75224 0.33649 0.39725 -0.35000
C 	C 	0.77681 0.25938 0.47681 0.26200
O 	O 	0.74586 0.35820 0.59030 -0.41500
H 	H 	0.77548 0.42002 0.52736 0.17300
C 	C 	0.68536 0.33376 0.76966 0.07200
C 	C 	0.72513 0.37781 0.74380 -0.08300
C 	C 	0.70430 0.35129 0.70161 0.00800
C 	C 	0.72305 0.38871 0.67072 -0.04500
N 	N 	0.68766 0.35446 0.80889 -0.15200
H 	H 	0.76840 0.43048 0.75576 0.05200
H 	H 	0.77515 0.43178 0.67000 0.04500
H 	H 	0.73306 0.39158 0.82974 0.08200
C 	C 	0.69167 0.32417 0.19149 0.07600
C 	C 	0.73768 0.36467 0.22849 -0.08200
C 	C 	0.71271 0.34534 0.26466 0.01100
N 	N 	0.71051 0.32556 0.15490 -0.15400
C 	C 	0.70908 0.31621 0.32560 0.00600
C 	C 	0.75168 0.36545 0.30320 -0.04100
H 	H 	0.79052 0.40743 0.22905 0.05400
H 	H 	0.79515 0.41752 0.31638 0.05100
H 	H 	0.74654 0.37027 0.14479 0.07500
C 	C 	0.92002 0.77876 0.52425 0.07200
C 	C 	0.93624 0.73352 0.51439 -0.08100
C 	C 	0.88887 0.67423 0.48501 0.00900
C 	C 	0.82584 0.65841 0.46787 0.07800
C 	C 	0.80892 0.70283 0.47822 -0.08800
C 	C 	0.85709 0.76317 0.50681 0.02100
N 	N 	0.96811 0.84680 0.53393 -0.16100
C 	C 	0.93685 0.87509 0.52236 0.05500
C 	C 	0.86775 0.82468 0.50537 -0.07300
N 	N 	0.77860 0.59042 0.45646 -0.15300
C 	C 	0.81129 0.56286 0.46619 -0.00100
C 	C 	0.87982 0.61307 0.48408 -0.04300
H 	H 	0.98500 0.74533 0.52803 0.05200
H 	H 	0.76013 0.69089 0.46453 0.05400
H 	H 	0.83742 0.83130 0.48336 0.05500
H 	H 	0.91068 0.60529 0.50473 0.04200
H 	H 	0.72540 0.56471 0.45281 0.08200
C 	C 	0.88770 0.10714 0.51203 0.07200
C 	C 	0.82861 0.10417 0.51299 -0.08100
C 	C 	0.83318 0.16209 0.50650 0.00400
C 	C 	0.88940 0.21547 0.49324 0.07300
C 	C 	0.94416 0.21357 0.48643 -0.08500
C 	C 	0.94441 0.16109 0.49934 0.01800
N 	N 	0.88673 0.05170 0.50640 -0.16300
C 	C 	0.94376 0.07029 0.49121 0.05300
C 	C 	0.97900 0.13726 0.48471 -0.06600
N 	N 	0.87169 0.24973 0.47352 -0.15200
C 	C 	0.80467 0.22000 0.47525 -0.00800
C 	C 	0.77838 0.16309 0.49386 -0.04700
H 	H 	0.78054 0.05789 0.51644 0.05100
H 	H 	0.98268 0.24903 0.47004 0.05500
H 	H 	0.73099 0.13704 0.50575 0.04000
H 	H 	0.85840 0.00982 0.52073 0.08800
H 	H 	0.90664 0.29911 0.46823 0.08700
C 	C 	0.79684 0.71401 0.94994 0.07400
C 	C 	0.75545 0.67529 0.97716 -0.08200
C 	C 	0.77020 0.63547 0.99580 0.01100
C 	C 	0.82267 0.63221 0.98641 0.07800
C 	C 	0.86444 0.67132 0.95945 -0.08700
C 	C 	0.84995 0.71147 0.94099 0.02200
N 	N 	0.81106 0.77452 0.94553 -0.16300
C 	C 	0.87339 0.81124 0.93442 0.05600
C 	C 	0.89924 0.77374 0.93128 -0.07300
N 	N 	0.80753 0.57113 0.99028 -0.15200
C 	C 	0.74564 0.53517 0.00195 -0.00400
C 	C 	0.72090 0.57354 0.00580 -0.04400
H 	H 	0.71397 0.67704 0.98410 0.05300
H 	H 	0.90590 0.66954 0.95249 0.05300
H 	H 	0.95350 0.79597 0.93505 0.05500
H 	H 	0.79000 0.79582 0.96023 0.08900
H 	H 	0.82756 0.54916 0.97505 0.08600
C 	C 	0.75405 0.08269 0.95829 0.07300
C 	C 	0.75305 0.02612 0.96298 -0.08700
C 	C 	0.80598 0.02550 0.95043 0.01800
C 	C 	0.86274 0.08282 0.94001 0.07200
C 	C 	0.86815 0.14295 0.94108 -0.08000
C 	C 	0.81012 0.13949 0.94714 0.00300
N 	N 	0.71969 0.09999 0.97848 -0.15200
C 	C 	0.75207 0.16746 0.97918 -0.00800
C 	C 	0.81064 0.19415 0.96166 -0.04700
N 	N 	0.91742 0.08178 0.94612 -0.16200
C 	C 	0.89564 0.02307 0.95937 0.05300
C 	C 	0.82721 0.98835 0.96401 -0.06900
H 	H 	0.71519 0.98646 0.97777 0.05600
H 	H 	0.91627 0.19081 0.93950 0.05200
H 	H 	0.83918 0.24273 0.95163 0.04100
H 	H 	0.79338 0.93579 0.96784 0.05400
