data_crystal

_cell_length_a 16.82069
_cell_length_b 23.77480
_cell_length_c 13.10993
_cell_angle_alpha 90.00009
_cell_angle_beta  90.00039
_cell_angle_gamma 90.00669

_symmetry_space_group_name_	'P 1'
_symmetry_space_group_name_H-M	'P 1'

loop_
_symmetry_equiv_pos_as_xyz
  x,y,z

loop_
_atom_site_label
_atom_site_type_symbol
_atom_site_fract_x
_atom_site_fract_y
_atom_site_fract_z
_atom_site_charge
Cu	Cu	0.57823 0.37338 0.93625 0.89200
Cu	Cu	0.60486 0.33658 0.70059 0.86100
Cu	Cu	0.45349 0.32123 0.79266 0.88300
Cu	Cu	0.39225 0.38937 0.97196 0.86800
C 	C 	0.51375 0.46869 0.03410 0.19800
O 	O 	0.55396 0.32114 0.05546 -0.31300
C 	C 	0.51283 0.24216 0.63491 0.18700
O 	O 	0.46707 0.39216 0.86457 -0.64800
O 	O 	0.56714 0.31250 0.83422 -0.64800
O 	O 	0.68677 0.39782 0.89716 -0.37900
O 	O 	0.64697 0.40789 0.73405 -0.40900
O 	O 	0.44997 0.44110 0.06283 -0.33500
O 	O 	0.34377 0.33445 0.74962 -0.36400
C 	C 	0.28459 0.35252 0.80760 0.20900
C 	C 	0.48751 0.29209 0.06017 0.29900
O 	O 	0.42864 0.30351 0.99800 -0.46500
O 	O 	0.29746 0.38659 0.88491 -0.39100
O 	O 	0.57985 0.44126 0.01523 -0.27300
C 	C 	0.70322 0.41105 0.80266 0.19800
O 	O 	0.45368 0.25621 0.69716 -0.35300
O 	O 	0.58443 0.26398 0.64598 -0.39500
H 	H 	0.46383 0.42585 0.82035 0.14800
H 	H 	0.58202 0.27399 0.85574 0.15500
Cu	Cu	0.57822 0.61990 0.13602 0.92600
Cu	Cu	0.60486 0.65673 0.37165 0.86100
Cu	Cu	0.45349 0.67205 0.27959 0.88700
Cu	Cu	0.39223 0.60386 0.10033 0.90400
C 	C 	0.51374 0.52456 0.03823 0.19900
O 	O 	0.55395 0.67212 0.01678 -0.32400
C 	C 	0.51284 0.75113 0.43731 0.18700
O 	O 	0.46706 0.60111 0.20771 -0.63400
O 	O 	0.56714 0.68078 0.23801 -0.64200
O 	O 	0.68676 0.59547 0.17512 -0.33700
O 	O 	0.64694 0.58541 0.33823 -0.40300
O 	O 	0.44995 0.55212 0.00949 -0.34500
O 	O 	0.34377 0.65882 0.32265 -0.36000
C 	C 	0.28459 0.64074 0.26467 0.21600
C 	C 	0.48749 0.70114 0.01205 0.29200
O 	O 	0.42862 0.68972 0.07423 -0.37400
O 	O 	0.29745 0.60665 0.18739 -0.35900
O 	O 	0.57984 0.55201 0.05706 -0.30300
C 	C 	0.70320 0.58223 0.26961 0.20200
O 	O 	0.45369 0.73708 0.37506 -0.34300
O 	O 	0.58444 0.72933 0.42624 -0.39100
H 	H 	0.46383 0.56742 0.25195 0.15900
H 	H 	0.58201 0.71930 0.21648 0.18100
Cu	Cu	0.91122 0.37336 0.63600 0.92300
Cu	Cu	0.88457 0.33652 0.87164 0.85200
Cu	Cu	0.03595 0.32122 0.77959 0.88200
Cu	Cu	0.09721 0.38942 0.60031 0.89600
C 	C 	0.97568 0.46871 0.53821 0.19200
O 	O 	0.93551 0.32114 0.51677 -0.32900
C 	C 	0.97661 0.24213 0.93730 0.07300
O 	O 	0.02238 0.39216 0.70769 -0.63400
O 	O 	0.92231 0.31248 0.73801 -0.64400
O 	O 	0.80268 0.39777 0.67510 -0.34900
O 	O 	0.84247 0.40783 0.83823 -0.41800
O 	O 	0.03947 0.44115 0.50947 -0.36600
O 	O 	0.14569 0.33445 0.82261 -0.37600
C 	C 	0.20484 0.35251 0.76458 0.20900
C 	C 	0.00197 0.29212 0.51204 0.19800
O 	O 	0.06084 0.30356 0.57421 -0.37700
O 	O 	0.19197 0.38665 0.68738 -0.37500
O 	O 	0.90958 0.44125 0.55705 -0.31700
C 	C 	0.78623 0.41102 0.76959 0.19600
O 	O 	0.03577 0.25619 0.87506 -0.34500
O 	O 	0.90501 0.26391 0.92622 -0.39600
H 	H 	0.02560 0.42584 0.75193 0.15000
H 	H 	0.90744 0.27396 0.71647 0.16800
Cu	Cu	0.91121 0.61989 0.43626 0.92400
Cu	Cu	0.88457 0.65670 0.20060 0.86900
Cu	Cu	0.03595 0.67203 0.29266 0.88800
Cu	Cu	0.09720 0.60387 0.47198 0.89500
C 	C 	0.97567 0.52458 0.53412 0.19500
O 	O 	0.93550 0.67213 0.55547 -0.33500
C 	C 	0.97662 0.75110 0.13492 0.19900
O 	O 	0.02237 0.60110 0.36459 -0.63300
O 	O 	0.92231 0.68076 0.33423 -0.64200
O 	O 	0.80266 0.59546 0.39717 -0.34900
O 	O 	0.84244 0.58539 0.23404 -0.39100
O 	O 	0.03945 0.55216 0.56286 -0.37500
O 	O 	0.14569 0.65880 0.24965 -0.35100
C 	C 	0.20484 0.64075 0.30768 0.21300
C 	C 	0.00195 0.70117 0.56018 0.19500
O 	O 	0.06083 0.68973 0.49802 -0.37600
O 	O 	0.19196 0.60664 0.38492 -0.37100
O 	O 	0.90957 0.55201 0.51524 -0.32100
C 	C 	0.78621 0.58223 0.30268 0.20200
O 	O 	0.03578 0.73705 0.19716 -0.34100
O 	O 	0.90502 0.72930 0.14599 -0.38000
H 	H 	0.02559 0.56741 0.32037 0.16500
H 	H 	0.90744 0.71928 0.35575 0.17300
Cu	Cu	0.41054 0.87320 0.63207 0.92200
Cu	Cu	0.38374 0.83692 0.86798 0.85500
Cu	Cu	0.53619 0.82346 0.77716 0.88200
Cu	Cu	0.59736 0.89011 0.59603 0.89500
C 	C 	0.47464 0.96868 0.53522 0.19500
O 	O 	0.43504 0.81968 0.51320 -0.32300
C 	C 	0.47675 0.74505 0.93510 0.10000
O 	O 	0.52197 0.89313 0.70289 -0.63500
O 	O 	0.42286 0.81316 0.73485 -0.64400
O 	O 	0.30169 0.89824 0.67364 -0.34800
O 	O 	0.34311 0.90849 0.83597 -0.41900
O 	O 	0.53902 0.94194 0.50587 -0.36600
O 	O 	0.64480 0.83888 0.82217 -0.37700
C 	C 	0.70487 0.85530 0.76409 0.20900
C 	C 	0.50291 0.79205 0.50650 0.19000
O 	O 	0.56154 0.80407 0.56897 -0.37000
O 	O 	0.69331 0.88666 0.68256 -0.37200
O 	O 	0.40868 0.94058 0.55172 -0.31800
C 	C 	0.28620 0.91185 0.76857 0.19500
O 	O 	0.53665 0.75968 0.87475 -0.35600
O 	O 	0.40455 0.76454 0.92028 -0.40700
H 	H 	0.52473 0.92720 0.74620 0.15200
H 	H 	0.40922 0.77440 0.71345 0.16800
Cu	Cu	0.41054 0.12006 0.44019 0.92200
Cu	Cu	0.38376 0.15630 0.20426 0.87100
Cu	Cu	0.53620 0.16980 0.29508 0.88800
Cu	Cu	0.59735 0.10319 0.47626 0.89400
C 	C 	0.47463 0.02461 0.53709 0.18800
O 	O 	0.43504 0.17360 0.55904 -0.32900
C 	C 	0.47677 0.24818 0.13712 0.17700
O 	O 	0.52197 0.10013 0.36939 -0.63300
O 	O 	0.42287 0.18008 0.33738 -0.64200
O 	O 	0.30168 0.09501 0.39863 -0.34800
O 	O 	0.34309 0.08474 0.23631 -0.39300
O 	O 	0.53901 0.05137 0.56645 -0.37500
O 	O 	0.64481 0.15437 0.25009 -0.35100
C 	C 	0.70488 0.13797 0.30818 0.21300
C 	C 	0.50290 0.20124 0.56573 0.18700
O 	O 	0.56153 0.18923 0.50327 -0.36900
O 	O 	0.69330 0.10663 0.38974 -0.37000
O 	O 	0.40867 0.05269 0.52056 -0.32100
C 	C 	0.28618 0.08140 0.30371 0.20100
O 	O 	0.53667 0.23356 0.19747 -0.33900
O 	O 	0.40457 0.22868 0.15193 -0.37100
H 	H 	0.52473 0.06606 0.32610 0.16500
H 	H 	0.40923 0.21885 0.35876 0.17400
Cu	Cu	0.07895 0.87320 0.94020 0.88800
Cu	Cu	0.10573 0.83695 0.70427 0.86400
Cu	Cu	0.95328 0.82347 0.79509 0.87800
Cu	Cu	0.89214 0.89009 0.97628 0.85500
C 	C 	0.01487 0.96866 0.03711 0.20300
O 	O 	0.05443 0.81966 0.05905 -0.28700
C 	C 	0.01270 0.74508 0.63713 0.19500
O 	O 	0.96752 0.89314 0.86941 -0.65600
O 	O 	0.06661 0.81318 0.83739 -0.65200
O 	O 	0.18781 0.89824 0.89865 -0.37800
O 	O 	0.14642 0.90851 0.73630 -0.40900
O 	O 	0.95050 0.94190 0.06648 -0.33800
O 	O 	0.84466 0.83889 0.75012 -0.36600
C 	C 	0.78461 0.85528 0.80825 0.20500
C 	C 	0.98657 0.79202 0.06574 0.18600
O 	O 	0.92793 0.80405 0.00328 -0.31600
O 	O 	0.79620 0.88669 0.88973 -0.39400
O 	O 	0.08083 0.94057 0.02058 -0.27600
C 	C 	0.20331 0.91185 0.80373 0.19700
O 	O 	0.95280 0.75971 0.69747 -0.36100
O 	O 	0.08490 0.76458 0.65195 -0.40200
H 	H 	0.96477 0.92721 0.82612 0.15100
H 	H 	0.08025 0.77441 0.85877 0.15400
Cu	Cu	0.07894 0.12007 0.13205 0.92500
Cu	Cu	0.10576 0.15636 0.36796 0.86300
Cu	Cu	0.95329 0.16980 0.27715 0.88800
Cu	Cu	0.89213 0.10313 0.09601 0.90200
C 	C 	0.01486 0.02458 0.03521 0.19000
O 	O 	0.05442 0.17358 0.01319 -0.32200
C 	C 	0.01272 0.24821 0.43508 0.19500
O 	O 	0.96752 0.10013 0.20287 -0.63400
O 	O 	0.06661 0.18010 0.23484 -0.64300
O 	O 	0.18780 0.09504 0.17363 -0.33600
O 	O 	0.14640 0.08479 0.33597 -0.40500
O 	O 	0.95048 0.05131 0.00585 -0.34400
O 	O 	0.84467 0.15437 0.32214 -0.36000
C 	C 	0.78462 0.13797 0.26402 0.21500
C 	C 	0.98655 0.20121 0.00649 0.30400
O 	O 	0.92792 0.18918 0.06895 -0.37200
O 	O 	0.79619 0.10655 0.18256 -0.35800
O 	O 	0.08082 0.05269 0.05171 -0.30300
C 	C 	0.20329 0.08143 0.26855 0.20100
O 	O 	0.95281 0.23358 0.37474 -0.34800
O 	O 	0.08492 0.22874 0.42025 -0.39700
H 	H 	0.96477 0.06606 0.24618 0.15900
H 	H 	0.08025 0.21887 0.21343 0.18200
