data_crystal

_cell_length_a 29.31983
_cell_length_b 30.79828
_cell_length_c 39.31053
_cell_angle_alpha 60.97831
_cell_angle_beta  118.73668
_cell_angle_gamma 133.22202

_symmetry_space_group_name_	'P 1'
_symmetry_space_group_name_H-M	'P 1'

loop_
_symmetry_equiv_pos_as_xyz
  x,y,z

loop_
_atom_site_label
_atom_site_type_symbol
_atom_site_fract_x
_atom_site_fract_y
_atom_site_fract_z
_atom_site_charge
C 	C 	0.71599 0.31636 0.02332 0.13000
N 	N 	0.65424 0.27564 0.02744 -0.14100
C 	C 	0.62799 0.29417 0.03288 0.13400
N 	N 	0.66327 0.35286 0.03437 -0.14200
C 	C 	0.72510 0.39321 0.03127 0.13300
N 	N 	0.75190 0.37512 0.02583 -0.14000
C 	C 	0.72906 0.31095 0.52998 0.13100
N 	N 	0.76431 0.36890 0.53370 -0.13900
C 	C 	0.73611 0.38581 0.53886 0.13400
N 	N 	0.67354 0.34512 0.54045 -0.14100
C 	C 	0.63891 0.28715 0.53786 0.13500
N 	N 	0.66657 0.26977 0.53272 -0.14000
C 	C 	0.26035 0.63880 0.22528 0.13200
N 	N 	0.32191 0.68063 0.22071 -0.13800
C 	C 	0.34746 0.66492 0.21168 0.13600
N 	N 	0.31182 0.60780 0.20720 -0.14000
C 	C 	0.25067 0.56577 0.21174 0.13400
N 	N 	0.22445 0.58102 0.22081 -0.13800
C 	C 	0.28243 0.62931 0.74298 0.13100
N 	N 	0.34539 0.66860 0.74139 -0.13800
C 	C 	0.37248 0.64848 0.73873 0.13600
N 	N 	0.33701 0.58957 0.73774 -0.14000
C 	C 	0.27377 0.55086 0.73741 0.13400
N 	N 	0.24587 0.57053 0.73995 -0.13700
Co	Co	0.05052 0.01624 0.08728 1.17800
Co	Co	0.94392 0.94115 0.17482 1.18900
Co	Co	0.01159 0.06435 0.12126 1.18300
Co	Co	0.98121 0.89274 0.14002 1.18400
C 	C 	0.17339 0.03003 0.10659 0.29100
Co	Co	0.05412 0.91311 0.08673 1.17200
Co	Co	0.94267 0.04229 0.17915 1.16300
C 	C 	0.91633 0.81265 0.08285 0.31300
O 	O 	0.95664 0.11678 0.13053 -0.41100
O 	O 	0.96468 0.01289 0.15492 -0.77300
C 	C 	0.93585 0.11316 0.09352 0.32200
O 	O 	0.05894 0.08967 0.08327 -0.46500
O 	O 	0.93783 0.86849 0.18006 -0.46400
C 	C 	0.81982 0.92378 0.16298 0.31300
O 	O 	0.97771 0.97291 0.12066 -0.57400
C 	C 	0.07991 0.14024 0.18090 0.31500
C 	C 	0.03592 0.99940 0.01174 0.34800
C 	C 	0.06095 0.84831 0.17246 0.32400
O 	O 	0.95241 0.09263 0.08208 -0.38900
O 	O 	0.07457 0.98323 0.03497 -0.40800
O 	O 	0.01894 0.01615 0.02639 -0.40200
O 	O 	0.84950 0.98372 0.15138 -0.38500
O 	O 	0.84691 0.89814 0.16946 -0.37500
O 	O 	0.03948 0.09629 0.20418 -0.40200
O 	O 	0.08762 0.12753 0.15695 -0.38800
O 	O 	0.03833 0.84039 0.13659 -0.40800
O 	O 	0.05098 0.87802 0.18028 -0.38900
O 	O 	0.02338 0.94229 0.10409 -0.75100
C 	C 	0.97188 0.96127 0.25173 0.28500
O 	O 	0.92878 0.97235 0.23120 -0.39500
O 	O 	0.99337 0.95422 0.23318 -0.38200
O 	O 	0.14633 0.97092 0.11606 -0.37500
O 	O 	0.14766 0.05038 0.10939 -0.39300
O 	O 	0.95789 0.85944 0.06044 -0.39700
O 	O 	0.91138 0.81947 0.11179 -0.37600
Co	Co	0.06131 0.00694 0.59297 1.17800
Co	Co	0.96014 0.93981 0.68119 1.18800
Co	Co	0.01377 0.05605 0.61906 1.18400
Co	Co	0.99738 0.88687 0.64979 1.18400
C 	C 	0.18414 0.02105 0.61166 0.28900
Co	Co	0.06432 0.90172 0.59537 1.17300
Co	Co	0.94124 0.03857 0.67128 1.16500
C 	C 	0.92726 0.80119 0.59510 0.31100
O 	O 	0.88078 0.03168 0.61519 -0.39900
O 	O 	0.97123 0.00763 0.65500 -0.76800
C 	C 	0.90444 0.07153 0.58334 0.31200
O 	O 	0.06613 0.08031 0.58493 -0.46600
O 	O 	0.96087 0.86869 0.69172 -0.46300
C 	C 	0.83689 0.90386 0.68347 0.32900
O 	O 	0.99040 0.96546 0.62715 -0.57600
C 	C 	0.06827 0.15179 0.65558 0.32300
C 	C 	0.04579 0.98665 0.51846 0.34900
C 	C 	0.07712 0.84279 0.68174 0.32300
O 	O 	0.95064 0.07980 0.57648 -0.37900
O 	O 	0.08301 0.96893 0.54230 -0.40900
O 	O 	0.02786 0.00288 0.53280 -0.40400
O 	O 	0.87372 0.95113 0.69854 -0.41000
O 	O 	0.86179 0.89074 0.67275 -0.38700
O 	O 	0.00791 0.12950 0.64695 -0.40900
O 	O 	0.08387 0.12413 0.65073 -0.39600
O 	O 	0.05100 0.83159 0.64663 -0.40800
O 	O 	0.06957 0.87490 0.68898 -0.38800
O 	O 	0.03548 0.93337 0.61192 -0.75100
C 	C 	0.00366 0.99244 0.74978 0.30100
O 	O 	0.00740 0.04232 0.72536 -0.40200
O 	O 	0.00665 0.96025 0.73815 -0.37400
O 	O 	0.15765 0.96183 0.62242 -0.37400
O 	O 	0.15873 0.04213 0.61404 -0.39300
O 	O 	0.96724 0.84657 0.57139 -0.39300
O 	O 	0.92609 0.81003 0.62481 -0.37500
C 	C 	0.96408 0.93845 0.92304 -0.08500
C 	C 	0.00537 0.99027 0.89762 0.05700
C 	C 	0.04735 0.04793 0.90654 -0.09800
C 	C 	0.05160 0.05268 0.94199 0.04200
C 	C 	0.01337 0.00008 0.96873 -0.13500
C 	C 	0.96724 0.94364 0.95784 0.04700
C 	C 	0.00515 0.98393 0.86190 0.03300
H 	H 	0.07794 0.08881 0.88666 0.05300
H 	H 	0.08741 0.09660 0.94978 0.02300
H 	H 	0.93711 0.90266 0.97792 0.02900
H 	H 	0.93111 0.89370 0.91670 0.05300
C 	C 	0.06336 0.01287 0.85353 -0.07300
C 	C 	0.06301 0.01016 0.81865 -0.00700
C 	C 	0.00454 0.97748 0.79206 -0.05300
C 	C 	0.94646 0.94485 0.80203 -0.00300
C 	C 	0.94668 0.94885 0.83624 -0.05900
H 	H 	0.10890 0.03853 0.87352 0.04600
H 	H 	0.10825 0.03590 0.81139 0.03500
H 	H 	0.90096 0.91953 0.78189 0.03900
H 	H 	0.90133 0.92614 0.84206 0.04700
C 	C 	0.05467 0.03074 0.33777 -0.06800
C 	C 	0.01778 0.98029 0.36584 0.03100
C 	C 	0.97604 0.92108 0.35925 -0.05800
C 	C 	0.96722 0.91333 0.32355 -0.00100
C 	C 	0.00086 0.96439 0.29429 -0.04400
C 	C 	0.04767 0.02244 0.30299 -0.01900
C 	C 	0.02341 0.98954 0.40236 0.05900
H 	H 	0.94923 0.88122 0.38121 0.04600
H 	H 	0.93126 0.86810 0.31762 0.03600
H 	H 	0.07532 0.06211 0.28137 0.04600
H 	H 	0.08733 0.07671 0.34217 0.04500
C 	C 	0.08404 0.03044 0.42380 -0.10000
C 	C 	0.08979 0.03684 0.45895 0.04300
C 	C 	0.03569 0.00001 0.47465 -0.13700
C 	C 	0.97456 0.96197 0.45202 0.05200
C 	C 	0.96833 0.95722 0.41588 -0.08700
H 	H 	0.12711 0.05571 0.41415 0.05300
H 	H 	0.13726 0.06672 0.47584 0.02400
H 	H 	0.93225 0.93334 0.46349 0.02700
H 	H 	0.92090 0.92730 0.39904 0.05400
C 	C 	0.17313 0.30606 0.69151 -0.00800
C 	C 	0.17942 0.29999 0.73103 -0.02800
C 	C 	0.18964 0.34488 0.74055 -0.04300
C 	C 	0.19324 0.39597 0.71059 0.01800
C 	C 	0.18820 0.40260 0.67128 -0.04200
C 	C 	0.17839 0.35798 0.66181 -0.02700
C 	C 	0.14619 0.25331 0.67983 0.05100
C 	C 	0.11603 0.20751 0.66909 -0.10800
C 	C 	0.21321 0.44659 0.72121 0.00600
C 	C 	0.23603 0.49226 0.72920 -0.03500
H 	H 	0.17445 0.25965 0.75413 0.04000
H 	H 	0.19510 0.34003 0.77122 0.04500
H 	H 	0.19253 0.44265 0.64808 0.04700
H 	H 	0.17267 0.36277 0.63109 0.04300
C 	C 	0.65588 0.79561 0.69773 -0.00900
C 	C 	0.61184 0.80846 0.66888 -0.02600
C 	C 	0.55779 0.78598 0.67856 -0.04200
C 	C 	0.54764 0.75075 0.71718 0.01800
C 	C 	0.59131 0.73739 0.74587 -0.04200
C 	C 	0.64519 0.75967 0.73616 -0.02600
C 	C 	0.71743 0.82877 0.69049 0.05500
C 	C 	0.77105 0.86042 0.68611 -0.11000
C 	C 	0.48771 0.72029 0.72545 0.00800
C 	C 	0.43595 0.69048 0.73199 -0.03600
H 	H 	0.62021 0.83698 0.63926 0.04400
H 	H 	0.52357 0.79548 0.65595 0.04800
H 	H 	0.58313 0.70915 0.77556 0.04700
H 	H 	0.67947 0.75029 0.75883 0.04100
C 	C 	0.21330 0.70072 0.75335 0.01900
C 	C 	0.14974 0.66656 0.75548 -0.04200
C 	C 	0.12684 0.69611 0.75292 -0.02700
C 	C 	0.16714 0.76013 0.74776 -0.00600
C 	C 	0.23203 0.79342 0.74865 -0.02700
C 	C 	0.25499 0.76386 0.75137 -0.04200
C 	C 	0.23464 0.67220 0.75022 0.00600
C 	C 	0.25460 0.65080 0.74703 -0.03300
C 	C 	0.13847 0.79243 0.73088 0.05200
C 	C 	0.11196 0.81757 0.71183 -0.10300
H 	H 	0.11734 0.61763 0.75760 0.04700
H 	H 	0.07666 0.66978 0.75233 0.04300
H 	H 	0.26371 0.84279 0.74472 0.04500
H 	H 	0.30448 0.79055 0.75031 0.04900
C 	C 	0.17324 0.40191 0.19892 0.01800
C 	C 	0.13884 0.38747 0.16154 -0.04200
C 	C 	0.12837 0.34005 0.15501 -0.02700
C 	C 	0.15274 0.30714 0.18572 -0.00800
C 	C 	0.18732 0.32180 0.22301 -0.02800
C 	C 	0.19746 0.36891 0.22959 -0.04300
C 	C 	0.19299 0.45673 0.20378 0.00600
C 	C 	0.21516 0.50499 0.20776 -0.03500
C 	C 	0.13287 0.25192 0.18139 0.05100
C 	C 	0.11207 0.20276 0.17976 -0.11000
H 	H 	0.12091 0.41338 0.13740 0.04700
H 	H 	0.10053 0.32834 0.12632 0.04300
H 	H 	0.20537 0.29598 0.24715 0.04100
H 	H 	0.22507 0.38040 0.25835 0.04600
C 	C 	0.64282 0.82598 0.18088 -0.00600
C 	C 	0.59502 0.83077 0.14920 -0.02700
C 	C 	0.53777 0.80540 0.15643 -0.04100
C 	C 	0.52812 0.77524 0.19539 0.01800
C 	C 	0.57631 0.77117 0.22714 -0.04200
C 	C 	0.63355 0.79654 0.21991 -0.02700
C 	C 	0.70390 0.85681 0.17400 0.05100
C 	C 	0.75615 0.88534 0.16863 -0.10200
C 	C 	0.46557 0.74062 0.20179 0.00800
C 	C 	0.41213 0.70830 0.20669 -0.03600
H 	H 	0.60226 0.85431 0.11903 0.04500
H 	H 	0.50046 0.80813 0.13165 0.04800
H 	H 	0.56893 0.74732 0.25728 0.04700
H 	H 	0.67071 0.79349 0.24465 0.04200
C 	C 	0.14397 0.75930 0.24052 -0.00600
C 	C 	0.10264 0.69625 0.24212 -0.02700
C 	C 	0.12595 0.66752 0.24405 -0.04200
C 	C 	0.19092 0.70144 0.24503 0.01900
C 	C 	0.23340 0.76287 0.24733 -0.04200
C 	C 	0.21002 0.79165 0.24518 -0.02700
C 	C 	0.11684 0.79305 0.22288 0.05300
C 	C 	0.09231 0.81998 0.20313 -0.10300
C 	C 	0.21267 0.67572 0.23909 0.00600
C 	C 	0.23278 0.65693 0.23315 -0.03300
H 	H 	0.05160 0.67057 0.23884 0.04300
H 	H 	0.09288 0.61978 0.24290 0.04700
H 	H 	0.28393 0.78924 0.24876 0.04900
H 	H 	0.24256 0.84021 0.24427 0.04500
C 	C 	0.80783 0.24988 0.51918 0.01700
C 	C 	0.87339 0.27476 0.53510 -0.04300
C 	C 	0.89640 0.24434 0.53946 -0.02800
C 	C 	0.85389 0.18869 0.52815 -0.00900
C 	C 	0.78934 0.16643 0.50939 -0.02900
C 	C 	0.76636 0.19692 0.50495 -0.04400
C 	C 	0.78174 0.27389 0.52208 0.00400
C 	C 	0.75860 0.29197 0.52538 -0.03600
C 	C 	0.87271 0.14858 0.54361 0.04800
C 	C 	0.88768 0.11383 0.55972 -0.10900
H 	H 	0.90595 0.31604 0.54579 0.04600
H 	H 	0.94644 0.26210 0.55382 0.04200
H 	H 	0.75614 0.12364 0.50038 0.03900
H 	H 	0.71573 0.17773 0.49219 0.04500
C 	C 	0.84469 0.63729 0.58032 -0.00800
C 	C 	0.81130 0.62769 0.54167 -0.02800
C 	C 	0.79878 0.58184 0.53194 -0.04200
C 	C 	0.81933 0.54507 0.56084 0.01700
C 	C 	0.85235 0.55433 0.59960 -0.04200
C 	C 	0.86517 0.60044 0.60929 -0.02800
C 	C 	0.86807 0.69159 0.58789 0.05000
C 	C 	0.89193 0.73997 0.59242 -0.10500
C 	C 	0.79693 0.49167 0.55264 0.00600
C 	C 	0.77288 0.44470 0.54596 -0.03700
H 	H 	0.79624 0.65661 0.51890 0.04200
H 	H 	0.77218 0.57426 0.50211 0.04600
H 	H 	0.86736 0.52536 0.62235 0.04600
H 	H 	0.89201 0.60822 0.63906 0.04200
C 	C 	0.35604 0.12635 0.58464 -0.00700
C 	C 	0.40592 0.12232 0.61369 -0.02900
C 	C 	0.45988 0.14707 0.60275 -0.04300
C 	C 	0.46424 0.17594 0.56271 0.01600
C 	C 	0.41413 0.17957 0.53362 -0.04300
C 	C 	0.36012 0.15475 0.54455 -0.02900
C 	C 	0.29709 0.09381 0.59498 0.04400
C 	C 	0.24630 0.06305 0.60311 -0.10300
C 	C 	0.52410 0.21049 0.55275 0.00600
C 	C 	0.57578 0.24305 0.54529 -0.03900
H 	H 	0.40261 0.09947 0.64464 0.04000
H 	H 	0.49883 0.14484 0.62552 0.04400
H 	H 	0.41753 0.20258 0.50269 0.04500
H 	H 	0.32120 0.15705 0.52180 0.04000
C 	C 	0.79341 0.25327 0.01320 0.01700
C 	C 	0.85957 0.28920 0.01637 -0.04400
C 	C 	0.88723 0.26229 0.02202 -0.02700
C 	C 	0.84894 0.19918 0.02490 -0.00900
C 	C 	0.78200 0.16459 0.01821 -0.02800
C 	C 	0.75432 0.19153 0.01247 -0.04400
C 	C 	0.76702 0.27739 0.01564 0.00400
C 	C 	0.74434 0.29610 0.01875 -0.03600
C 	C 	0.87897 0.16794 0.04439 0.05000
C 	C 	0.90471 0.14225 0.06446 -0.10900
H 	H 	0.89006 0.33718 0.01640 0.04600
H 	H 	0.93896 0.28958 0.02688 0.04100
H 	H 	0.75187 0.11592 0.02010 0.03900
H 	H 	0.70296 0.16360 0.00945 0.04500
C 	C 	0.81173 0.55606 0.04991 0.01700
C 	C 	0.79498 0.59515 0.01961 -0.04100
C 	C 	0.80794 0.64217 0.02823 -0.02800
C 	C 	0.83782 0.65050 0.06722 -0.00800
C 	C 	0.85503 0.61173 0.09749 -0.02800
C 	C 	0.84188 0.56454 0.08888 -0.04200
C 	C 	0.78782 0.50130 0.04263 0.00700
C 	C 	0.76274 0.45324 0.03696 -0.03700
C 	C 	0.85994 0.70446 0.07456 0.05000
C 	C 	0.88257 0.75226 0.07932 -0.10700
H 	H 	0.77075 0.58835 0.98954 0.04500
H 	H 	0.79555 0.67263 0.00448 0.04200
H 	H 	0.87926 0.61856 0.12755 0.04200
H 	H 	0.85407 0.53395 0.11265 0.04600
C 	C 	0.34669 0.13651 0.08101 -0.00700
C 	C 	0.35137 0.16604 0.04105 -0.02900
C 	C 	0.40524 0.19063 0.03007 -0.04200
C 	C 	0.45467 0.18574 0.05899 0.01600
C 	C 	0.44994 0.15612 0.09895 -0.04300
C 	C 	0.39606 0.13151 0.10992 -0.02900
C 	C 	0.28739 0.10351 0.09113 0.04500
C 	C 	0.23617 0.07240 0.09883 -0.10400
C 	C 	0.51416 0.21924 0.04891 0.00600
C 	C 	0.56540 0.25095 0.04107 -0.03900
H 	H 	0.31292 0.16921 0.01840 0.04000
H 	H 	0.40898 0.21429 0.99923 0.04400
H 	H 	0.48841 0.15298 0.12160 0.04400
H 	H 	0.39232 0.10787 0.14077 0.04000
