data_crystal

_cell_length_a 18.50777
_cell_length_b 18.79283
_cell_length_c 39.45047
_cell_angle_alpha 95.44269
_cell_angle_beta  95.44244
_cell_angle_gamma 126.43143

_symmetry_space_group_name_	'P 1'
_symmetry_space_group_name_H-M	'P 1'

loop_
_symmetry_equiv_pos_as_xyz
  x,y,z

loop_
_atom_site_label
_atom_site_type_symbol
_atom_site_fract_x
_atom_site_fract_y
_atom_site_fract_z
_atom_site_charge
C 	C 	0.90831 0.00522 0.97048 0.11500
N 	N 	0.86401 0.91617 0.97120 -0.13700
C 	C 	0.90995 0.88049 0.96925 0.11700
N 	N 	0.00007 0.93428 0.96747 -0.13200
C 	C 	0.04387 0.02279 0.96669 0.12300
N 	N 	0.99806 0.05812 0.96825 -0.14500
C 	C 	0.94784 0.02740 0.50291 0.10900
N 	N 	0.03888 0.07254 0.50365 -0.13600
C 	C 	0.07570 0.02805 0.50522 0.11700
N 	N 	0.02133 0.93850 0.50527 -0.13200
C 	C 	0.93056 0.89338 0.50428 0.11600
N 	N 	0.89392 0.93798 0.50356 -0.13600
Cu	Cu	0.76466 0.35388 0.96719 0.92700
Cu	Cu	0.74401 0.29031 0.04252 0.86900
Cu	Cu	0.60767 0.30171 0.00468 0.89500
Cu	Cu	0.59286 0.33708 0.93313 0.89400
C 	C 	0.70928 0.31608 0.89324 0.28800
O 	O 	0.81266 0.48280 0.96424 -0.36000
C 	C 	0.65349 0.33944 0.08181 0.28700
O 	O 	0.62098 0.27429 0.95876 -0.63900
O 	O 	0.74288 0.36862 0.01453 -0.64400
O 	O 	0.83020 0.30069 0.97627 -0.37200
O 	O 	0.72604 0.20359 0.00675 -0.44200
O 	O 	0.66970 0.35507 0.89775 -0.38600
O 	O 	0.47632 0.22870 0.99262 -0.38700
C 	C 	0.42956 0.23613 0.96768 0.30200
C 	C 	0.76662 0.51314 0.97225 0.28600
O 	O 	0.67957 0.45590 0.97354 -0.39500
O 	O 	0.46539 0.27553 0.94141 -0.39600
O 	O 	0.76271 0.32045 0.91943 -0.36400
C 	C 	0.79064 0.22608 0.98893 0.29800
O 	O 	0.59263 0.31261 0.05339 -0.38900
O 	O 	0.72945 0.34856 0.08044 -0.42300
H 	H 	0.58518 0.20914 0.94929 0.16600
H 	H 	0.77705 0.43158 0.02686 0.17000
Cu	Cu	0.61523 0.19175 0.50462 0.92800
Cu	Cu	0.67054 0.19702 0.42779 0.87000
Cu	Cu	0.65703 0.33516 0.46198 0.89800
Cu	Cu	0.62162 0.35730 0.53354 0.89500
C 	C 	0.65674 0.25730 0.57801 0.30400
O 	O 	0.48399 0.13800 0.50837 -0.36300
C 	C 	0.60993 0.27349 0.38563 0.30600
O 	O 	0.68875 0.33184 0.50919 -0.64000
O 	O 	0.59384 0.20285 0.45603 -0.64200
O 	O 	0.67220 0.13028 0.49759 -0.37600
O 	O 	0.76452 0.22501 0.46356 -0.44200
O 	O 	0.61431 0.29311 0.57221 -0.38800
O 	O 	0.72591 0.46447 0.47067 -0.38300
C 	C 	0.72691 0.51255 0.49768 0.29900
C 	C 	0.44732 0.17673 0.49854 0.29100
O 	O 	0.50021 0.26084 0.49471 -0.39500
O 	O 	0.66908 0.47419 0.51905 -0.39400
O 	O 	0.65467 0.20396 0.55294 -0.36700
C 	C 	0.74721 0.16884 0.48458 0.29800
O 	O 	0.64537 0.34058 0.41215 -0.38900
O 	O 	0.60483 0.20161 0.38890 -0.42300
H 	H 	0.75530 0.37064 0.51854 0.16100
H 	H 	0.52884 0.16579 0.44450 0.17000
C 	C 	0.71245 0.28829 0.85757 -0.08700
C 	C 	0.63420 0.24423 0.83156 0.01300
C 	C 	0.63975 0.22977 0.79684 -0.06600
C 	C 	0.72364 0.25915 0.78774 0.02600
C 	C 	0.80092 0.29890 0.81387 -0.06700
C 	C 	0.79534 0.31328 0.84868 0.01600
C 	C 	0.73225 0.25655 0.75091 0.00100
C 	C 	0.78660 0.33731 0.73858 -0.04000
C 	C 	0.78101 0.33618 0.70292 -0.03400
C 	C 	0.72119 0.25443 0.67936 -0.00800
C 	C 	0.67146 0.17328 0.69164 -0.03300
C 	C 	0.67712 0.17427 0.72731 -0.04100
C 	C 	0.70139 0.25476 0.64321 0.04300
C 	C 	0.68233 0.25566 0.61325 -0.10700
H 	H 	0.56961 0.22351 0.83817 0.02000
H 	H 	0.57963 0.19874 0.77688 0.04500
H 	H 	0.86581 0.32107 0.80713 0.04500
H 	H 	0.85618 0.34699 0.86852 0.03800
H 	H 	0.82973 0.40117 0.75656 0.03900
H 	H 	0.82013 0.39917 0.69362 0.03600
H 	H 	0.62557 0.10972 0.67358 0.04000
H 	H 	0.63578 0.11146 0.73656 0.03800
C 	C 	0.63253 0.35223 0.11606 -0.09100
C 	C 	0.54130 0.30276 0.12076 0.01100
C 	C 	0.52178 0.30132 0.15420 -0.06700
C 	C 	0.59319 0.34921 0.18321 0.02400
C 	C 	0.68415 0.40412 0.17838 -0.06700
C 	C 	0.70371 0.40600 0.14499 0.01200
C 	C 	0.57355 0.33319 0.21830 0.00100
C 	C 	0.60892 0.40611 0.24540 -0.04100
C 	C 	0.60561 0.39295 0.27971 -0.03300
C 	C 	0.56629 0.30682 0.28709 -0.00900
C 	C 	0.52548 0.23309 0.25990 -0.03400
C 	C 	0.52915 0.24616 0.22563 -0.04100
C 	C 	0.57869 0.29592 0.32231 0.04400
C 	C 	0.59158 0.28602 0.35144 -0.11300
H 	H 	0.48557 0.26218 0.09868 0.03500
H 	H 	0.45127 0.26009 0.15762 0.04400
H 	H 	0.73982 0.44216 0.20056 0.04300
H 	H 	0.77433 0.44666 0.14170 0.02900
H 	H 	0.64216 0.47337 0.24002 0.03800
H 	H 	0.63673 0.45023 0.30060 0.03800
H 	H 	0.49447 0.16621 0.26539 0.03600
H 	H 	0.50134 0.18932 0.20494 0.03700
C 	C 	0.88221 0.76369 0.53231 -0.07400
C 	C 	0.87199 0.79595 0.50306 -0.03100
C 	C 	0.81404 0.73475 0.47184 0.08000
C 	C 	0.76729 0.64223 0.47066 -0.02900
C 	C 	0.77937 0.61014 0.49967 -0.10300
C 	C 	0.83859 0.67151 0.53067 0.11600
N 	N 	0.85649 0.64288 0.55843 -0.20100
H 	H 	0.92752 0.81098 0.55604 0.05200
H 	H 	0.72142 0.59495 0.44702 0.04900
N 	N 	0.80404 0.76430 0.44284 -0.19500
H 	H 	0.89768 0.68832 0.58160 0.08100
H 	H 	0.83330 0.57648 0.55689 0.07500
H 	H 	0.83964 0.83273 0.44240 0.09100
H 	H 	0.76061 0.71834 0.42003 0.08400
C 	C 	0.81709 0.10158 0.46048 -0.02700
C 	C 	0.80531 0.13989 0.48963 -0.11500
C 	C 	0.84822 0.14900 0.52316 0.12500
C 	C 	0.89685 0.11374 0.52694 -0.08000
C 	C 	0.90604 0.07283 0.49782 -0.02800
C 	C 	0.86768 0.06849 0.46420 0.07200
N 	N 	0.87889 0.03248 0.43545 -0.19400
H 	H 	0.78572 0.09639 0.43478 0.02100
H 	H 	0.92738 0.11792 0.55263 0.05300
N 	N 	0.84494 0.19324 0.55163 -0.20200
H 	H 	0.84854 0.02775 0.41076 0.07600
H 	H 	0.91914 0.01056 0.43720 0.08400
H 	H 	0.81759 0.22809 0.54942 0.09700
H 	H 	0.87371 0.19649 0.57638 0.08700
C 	C 	0.20661 0.10343 0.47490 -0.07500
C 	C 	0.17355 0.07548 0.50528 -0.03200
C 	C 	0.23027 0.07899 0.53317 0.08000
C 	C 	0.31723 0.10568 0.52937 -0.03200
C 	C 	0.35012 0.13288 0.49887 -0.10600
C 	C 	0.29366 0.13013 0.47106 0.11700
N 	N 	0.32123 0.14979 0.44027 -0.20100
H 	H 	0.16260 0.09981 0.45345 0.05300
H 	H 	0.36114 0.10925 0.55085 0.04900
N 	N 	0.20245 0.05894 0.56390 -0.19500
H 	H 	0.28054 0.15067 0.42030 0.08400
H 	H 	0.38112 0.16058 0.43531 0.08200
H 	H 	0.14185 0.04690 0.56864 0.09100
H 	H 	0.24335 0.05863 0.58398 0.08500
C 	C 	0.83388 0.64364 0.94241 -0.03600
C 	C 	0.80682 0.60871 0.97255 -0.09700
C 	C 	0.80720 0.66152 0.00085 0.10500
C 	C 	0.83376 0.74791 0.99816 -0.06400
C 	C 	0.86211 0.78319 0.96818 -0.03500
C 	C 	0.85900 0.72929 0.93956 0.08100
N 	N 	0.87781 0.75846 0.90902 -0.19500
H 	H 	0.83162 0.60247 0.92048 0.04800
H 	H 	0.83647 0.78933 0.02011 0.04900
N 	N 	0.78522 0.63112 0.03101 -0.20000
H 	H 	0.87914 0.72008 0.88846 0.08300
H 	H 	0.88721 0.81728 0.90487 0.08600
H 	H 	0.77295 0.57096 0.03497 0.08000
H 	H 	0.78323 0.66938 0.05139 0.08200
C 	C 	0.81539 0.13220 0.95071 -0.03000
C 	C 	0.82093 0.16912 0.98434 -0.10200
C 	C 	0.84651 0.14400 0.01323 0.10800
C 	C 	0.86267 0.07995 0.00776 -0.07600
C 	C 	0.86131 0.04626 0.97427 -0.03000
C 	C 	0.83473 0.07044 0.94537 0.07800
N 	N 	0.82698 0.03409 0.91249 -0.19800
H 	H 	0.79432 0.15020 0.92858 0.04700
H 	H 	0.88344 0.06166 0.02987 0.04900
N 	N 	0.86011 0.18426 0.04619 -0.19800
H 	H 	0.80990 0.05407 0.89126 0.08300
H 	H 	0.83512 0.98385 0.90766 0.09300
H 	H 	0.86166 0.24075 0.05117 0.04700
H 	H 	0.87463 0.16234 0.06735 0.07400
C 	C 	0.26923 0.12338 0.93700 -0.02900
C 	C 	0.33106 0.18811 0.96647 -0.10500
C 	C 	0.29787 0.20259 0.99516 0.12200
C 	C 	0.20346 0.14760 0.99468 -0.07100
C 	C 	0.14183 0.08122 0.96560 -0.03300
C 	C 	0.17467 0.07064 0.93604 0.07900
N 	N 	0.11598 0.01117 0.90657 -0.19800
H 	H 	0.29482 0.11341 0.91483 0.04100
H 	H 	0.17780 0.15676 0.01698 0.05200
N 	N 	0.35590 0.27034 0.02279 -0.20200
H 	H 	0.14099 0.00189 0.88527 0.08200
H 	H 	0.04542 0.97593 0.90401 0.09500
H 	H 	0.42515 0.31836 0.02242 0.09100
H 	H 	0.33112 0.27794 0.04449 0.08500
