data_crystal

_cell_length_a 15.59485
_cell_length_b 15.88502
_cell_length_c 26.70155
_cell_angle_alpha 95.38003
_cell_angle_beta  95.38073
_cell_angle_gamma 126.72284

_symmetry_space_group_name_	'P 1'
_symmetry_space_group_name_H-M	'P 1'

loop_
_symmetry_equiv_pos_as_xyz
  x,y,z

loop_
_atom_site_label
_atom_site_type_symbol
_atom_site_fract_x
_atom_site_fract_y
_atom_site_fract_z
_atom_site_charge
N 	N 	0.98163 0.89115 0.94980 -0.11300
N 	N 	0.06958 0.11753 0.50168 -0.11800
C 	C 	0.87191 0.97449 0.94973 0.13000
N 	N 	0.97872 0.03622 0.94657 -0.11600
C 	C 	0.03339 0.99493 0.94702 0.13300
C 	C 	0.87507 0.82744 0.95287 0.14200
N 	N 	0.81884 0.86889 0.95339 -0.11400
C 	C 	0.96183 0.06403 0.50400 0.13100
C 	C 	0.11212 0.06320 0.50050 0.14200
N 	N 	0.04752 0.95741 0.50104 -0.11500
C 	C 	0.94115 0.90482 0.50292 0.13600
N 	N 	0.89825 0.95781 0.50456 -0.11800
Cu	Cu	0.74604 0.32292 0.94502 0.93800
Cu	Cu	0.72386 0.22950 0.05204 0.88000
Cu	Cu	0.57496 0.27141 0.00994 0.89500
Cu	Cu	0.54525 0.31715 0.90508 0.91100
C 	C 	0.67705 0.29965 0.83695 0.29300
O 	O 	0.80699 0.48220 0.94666 -0.28500
C 	C 	0.64511 0.30291 0.12267 0.29900
O 	O 	0.57668 0.23688 0.93868 -0.62700
O 	O 	0.73196 0.33539 0.01755 -0.65000
O 	O 	0.80917 0.24152 0.94890 -0.31600
O 	O 	0.68501 0.12626 0.99421 -0.39700
O 	O 	0.63225 0.34542 0.84974 -0.33400
O 	O 	0.42028 0.20152 0.99905 -0.34000
C 	C 	0.35912 0.18632 0.95623 0.31100
C 	C 	0.75307 0.51779 0.96159 0.29600
O 	O 	0.65255 0.44922 0.96725 -0.36200
O 	O 	0.39991 0.24853 0.92218 -0.36000
O 	O 	0.73258 0.28769 0.87214 -0.30200
C 	C 	0.75550 0.14846 0.96450 0.29300
O 	O 	0.57124 0.28354 0.08437 -0.34400
O 	O 	0.72540 0.29996 0.11443 -0.35400
H 	H 	0.52937 0.15937 0.92422 0.18200
H 	H 	0.78057 0.40910 0.03779 0.21300
Cu	Cu	0.62902 0.20889 0.51359 0.93600
Cu	Cu	0.71822 0.22446 0.40549 0.88800
Cu	Cu	0.68038 0.37491 0.44759 0.90700
Cu	Cu	0.63326 0.40452 0.55168 0.90900
C 	C 	0.65583 0.27957 0.62157 0.29300
O 	O 	0.46887 0.14674 0.51318 -0.29500
C 	C 	0.64582 0.30393 0.33491 0.29900
O 	O 	0.71648 0.37486 0.51879 -0.63600
O 	O 	0.61309 0.22021 0.44071 -0.63700
O 	O 	0.70435 0.14128 0.50905 -0.32400
O 	O 	0.82255 0.25973 0.46299 -0.41100
O 	O 	0.60949 0.32394 0.60882 -0.33400
O 	O 	0.75458 0.52714 0.45804 -0.35400
C 	C 	0.75907 0.58643 0.49791 0.31400
C 	C 	0.43001 0.19590 0.49667 0.29900
O 	O 	0.49733 0.29464 0.49052 -0.37000
O 	O 	0.69631 0.54470 0.53212 -0.36400
O 	O 	0.66780 0.22480 0.58641 -0.30100
C 	C 	0.79767 0.19015 0.49277 0.29900
O 	O 	0.66717 0.37745 0.37309 -0.33800
O 	O 	0.64664 0.22390 0.34327 -0.35000
H 	H 	0.79543 0.42214 0.53332 0.18300
H 	H 	0.53756 0.17263 0.42097 0.21700
C 	C 	0.59662 0.19161 0.74909 0.04900
C 	C 	0.68550 0.28386 0.78271 0.01100
C 	C 	0.77363 0.36708 0.76297 -0.08700
C 	C 	0.76549 0.36073 0.70951 0.04900
C 	C 	0.67274 0.27203 0.67588 0.01100
C 	C 	0.58969 0.18410 0.69561 -0.08700
C 	C 	0.49161 0.08436 0.65980 0.78000
H 	H 	0.53049 0.12775 0.76466 0.07800
H 	H 	0.82913 0.42691 0.69396 0.07800
C 	C 	0.87392 0.46476 0.79878 0.78000
F 	F 	0.42419 0.00478 0.68621 -0.42800
F 	F 	0.52581 0.04421 0.62564 -0.42600
F 	F 	0.43159 0.10911 0.63291 -0.43300
F 	F 	0.91606 0.43337 0.83367 -0.42600
F 	F 	0.84633 0.52233 0.82484 -0.43300
F 	F 	0.95488 0.53145 0.77245 -0.42900
C 	C 	0.54008 0.23356 0.19247 0.05400
C 	C 	0.63158 0.31820 0.17607 0.00600
C 	C 	0.71636 0.40998 0.21247 -0.09100
C 	C 	0.71718 0.40672 0.26505 0.05300
C 	C 	0.63063 0.31716 0.28145 0.00800
C 	C 	0.53683 0.23435 0.24505 -0.09100
C 	C 	0.43566 0.14374 0.26184 0.78100
H 	H 	0.47369 0.16476 0.16442 0.08000
H 	H 	0.78749 0.47163 0.29309 0.08300
C 	C 	0.80912 0.50897 0.19568 0.78100
F 	F 	0.34443 0.09584 0.22397 -0.42300
F 	F 	0.41771 0.18127 0.30539 -0.43700
F 	F 	0.44821 0.06754 0.27197 -0.43300
F 	F 	0.77128 0.52713 0.15222 -0.44000
F 	F 	0.88600 0.49567 0.18540 -0.43600
F 	F 	0.85867 0.59860 0.23361 -0.42300
C 	C 	0.87371 0.79263 0.50112 0.05200
C 	C 	0.82041 0.69821 0.49949 -0.05300
C 	C 	0.91195 0.11669 0.50181 0.04500
C 	C 	0.86155 0.15216 0.49876 -0.05600
C 	C 	0.31846 0.15209 0.49746 -0.02900
C 	C 	0.22522 0.11612 0.49868 0.05200
C 	C 	0.79294 0.62645 0.95901 -0.02200
C 	C 	0.82427 0.71664 0.95646 0.05200
C 	C 	0.78817 0.07976 0.95722 -0.04800
C 	C 	0.81928 0.02528 0.95332 0.04800
C 	C 	0.24451 0.11937 0.95279 -0.05000
C 	C 	0.14786 0.06306 0.94983 0.06000
