data_crystal

_cell_length_a 26.05629
_cell_length_b 26.61142
_cell_length_c 34.55591
_cell_angle_alpha 95.50000
_cell_angle_beta  95.49696
_cell_angle_gamma 125.83510

_symmetry_space_group_name_	'P 1'
_symmetry_space_group_name_H-M	'P 1'

loop_
_symmetry_equiv_pos_as_xyz
  x,y,z

loop_
_atom_site_label
_atom_site_type_symbol
_atom_site_fract_x
_atom_site_fract_y
_atom_site_fract_z
_atom_site_charge
C 	C 	0.91819 0.99160 0.99584 0.07300
C 	C 	0.87688 0.92551 0.98928 -0.09200
C 	C 	0.90184 0.89133 0.98512 0.07600
C 	C 	0.96809 0.92308 0.98705 -0.09000
C 	C 	0.00968 0.98915 0.99353 0.07000
C 	C 	0.98471 0.02351 0.99799 -0.09000
H 	H 	0.82545 0.90077 0.98751 0.06600
H 	H 	0.98732 0.89646 0.98374 0.06900
H 	H 	0.01679 0.07466 0.00312 0.05900
C 	C 	0.98057 0.03527 0.46406 0.08200
C 	C 	0.04766 0.07216 0.46705 -0.10000
C 	C 	0.07993 0.04505 0.47198 0.08000
C 	C 	0.04519 0.98104 0.47432 -0.09700
C 	C 	0.97813 0.94386 0.47140 0.08100
C 	C 	0.94574 0.97101 0.46632 -0.10300
H 	H 	0.07463 0.12175 0.46531 0.07100
H 	H 	0.07018 0.96004 0.47803 0.07000
H 	H 	0.89384 0.94230 0.46391 0.06100
Cu	Cu	0.60484 0.22358 0.99974 0.92400
Cu	Cu	0.63207 0.19413 0.91303 0.87300
Cu	Cu	0.61104 0.30169 0.93875 0.91100
Cu	Cu	0.58467 0.32930 0.01729 0.90200
C 	C 	0.63117 0.28754 0.07977 0.29200
O 	O 	0.51013 0.17399 0.00377 -0.36000
C 	C 	0.62693 0.27133 0.86301 0.29500
O 	O 	0.63962 0.31632 0.99454 -0.64200
O 	O 	0.58327 0.21453 0.94154 -0.63200
O 	O 	0.66489 0.19952 0.00256 -0.36700
O 	O 	0.62203 0.13386 0.94253 -0.42900
O 	O 	0.59269 0.30256 0.06814 -0.38000
O 	O 	0.64473 0.38801 0.93758 -0.38200
C 	C 	0.64225 0.42427 0.96497 0.30900
C 	C 	0.47487 0.19110 0.98978 0.30700
O 	O 	0.50259 0.24541 0.97811 -0.38800
O 	O 	0.60336 0.40025 0.99069 -0.37800
O 	O 	0.63455 0.24793 0.05602 -0.35800
C 	C 	0.65615 0.15279 0.97831 0.30900
O 	O 	0.59406 0.28523 0.88168 -0.38200
O 	O 	0.66510 0.26201 0.88328 -0.43000
H 	H 	0.68624 0.35032 0.00387 0.16100
H 	H 	0.53661 0.18268 0.93091 0.16000
Cu	Cu	0.78625 0.37818 0.45509 0.92900
Cu	Cu	0.77941 0.31940 0.53520 0.86600
Cu	Cu	0.68527 0.34096 0.50647 0.89600
Cu	Cu	0.66087 0.36785 0.42857 0.89600
C 	C 	0.73928 0.36313 0.37295 0.29800
O 	O 	0.81735 0.46909 0.45763 -0.35100
C 	C 	0.71827 0.34472 0.59033 0.28800
O 	O 	0.68556 0.32196 0.45143 -0.64100
O 	O 	0.77937 0.38282 0.51150 -0.64000
O 	O 	0.83594 0.34274 0.45629 -0.36800
O 	O 	0.76649 0.26652 0.48858 -0.44300
O 	O 	0.71008 0.38748 0.38445 -0.38900
O 	O 	0.59279 0.29371 0.50057 -0.39600
C 	C 	0.55453 0.29616 0.47412 0.31600
C 	C 	0.78578 0.48889 0.47219 0.30100
O 	O 	0.72598 0.44746 0.47643 -0.40100
O 	O 	0.57294 0.31982 0.44184 -0.38300
O 	O 	0.77717 0.35947 0.39879 -0.35900
C 	C 	0.81079 0.28759 0.46656 0.31400
O 	O 	0.68929 0.35691 0.56348 -0.38200
O 	O 	0.77010 0.34904 0.58495 -0.41900
H 	H 	0.65912 0.27639 0.43993 0.16900
H 	H 	0.80676 0.42561 0.52814 0.17700
C 	C 	0.64741 0.25264 0.75655 -0.08900
C 	C 	0.65427 0.30510 0.74515 0.00200
C 	C 	0.64617 0.34320 0.77116 0.02800
C 	C 	0.63671 0.33130 0.80955 -0.01500
C 	C 	0.63217 0.28006 0.82156 -0.10700
C 	C 	0.63431 0.23854 0.79411 0.09100
C 	C 	0.67075 0.32015 0.70596 0.00400
C 	C 	0.64816 0.39680 0.75825 -0.17500
H 	H 	0.63377 0.36243 0.83027 0.04800
C 	C 	0.62328 0.17962 0.80466 -0.19400
H 	H 	0.65229 0.22273 0.73612 0.05000
C 	C 	0.73568 0.36101 0.70160 0.02500
C 	C 	0.75013 0.37113 0.66373 -0.01600
C 	C 	0.70086 0.33926 0.63003 -0.10700
C 	C 	0.63571 0.29828 0.63450 0.09500
C 	C 	0.62130 0.29024 0.67258 -0.09300
C 	C 	0.78971 0.39173 0.73700 -0.17300
H 	H 	0.79996 0.40280 0.66037 0.04100
C 	C 	0.58146 0.26252 0.59895 -0.20400
H 	H 	0.57153 0.25929 0.67619 0.05300
H 	H 	0.66773 0.19200 0.82324 0.05600
H 	H 	0.61074 0.14538 0.77771 0.06300
H 	H 	0.58266 0.15553 0.82088 0.04300
H 	H 	0.61254 0.37907 0.73051 0.06900
H 	H 	0.69705 0.43364 0.75305 0.06700
H 	H 	0.63624 0.41903 0.78095 0.06700
H 	H 	0.83762 0.42403 0.72884 0.06300
H 	H 	0.78916 0.35494 0.75009 0.06600
H 	H 	0.78411 0.41984 0.75966 0.06600
H 	H 	0.53489 0.22605 0.60716 0.07300
H 	H 	0.59135 0.23785 0.57658 0.06800
H 	H 	0.57568 0.29563 0.58560 0.09100
C 	C 	0.73833 0.32808 0.17808 -0.09200
C 	C 	0.69777 0.32021 0.20460 0.00400
C 	C 	0.63594 0.30314 0.19024 0.02800
C 	C 	0.61474 0.29198 0.14936 -0.01400
C 	C 	0.65526 0.29994 0.12268 -0.10300
C 	C 	0.71821 0.31951 0.13723 0.10000
C 	C 	0.72153 0.33308 0.24765 0.00500
C 	C 	0.59274 0.29748 0.21844 -0.17500
H 	H 	0.56652 0.27695 0.13825 0.04500
C 	C 	0.76391 0.33089 0.10952 -0.20800
H 	H 	0.78595 0.34169 0.18930 0.05600
C 	C 	0.70496 0.28329 0.26788 0.02900
C 	C 	0.71431 0.29441 0.30941 -0.01700
C 	C 	0.74252 0.35503 0.33073 -0.10600
C 	C 	0.76749 0.40633 0.31060 0.10700
C 	C 	0.75537 0.39468 0.26908 -0.09500
C 	C 	0.67445 0.21785 0.24532 -0.17600
H 	H 	0.69741 0.25549 0.32502 0.03900
C 	C 	0.80445 0.47309 0.33308 -0.21000
H 	H 	0.77017 0.43322 0.25343 0.05600
H 	H 	0.74979 0.28503 0.09366 0.09900
H 	H 	0.81431 0.35795 0.12586 0.07500
H 	H 	0.76339 0.35873 0.08772 0.07200
H 	H 	0.61730 0.34290 0.23941 0.06900
H 	H 	0.58082 0.25969 0.23536 0.06600
H 	H 	0.54677 0.28566 0.20257 0.06600
H 	H 	0.67462 0.18731 0.26503 0.06900
H 	H 	0.70158 0.21998 0.22183 0.07200
H 	H 	0.62379 0.19572 0.23152 0.06700
H 	H 	0.83517 0.50772 0.31478 0.07600
H 	H 	0.83676 0.48100 0.36018 0.09200
H 	H 	0.77024 0.48234 0.34149 0.08500
C 	C 	0.90391 0.66745 0.48777 -0.11500
C 	C 	0.86230 0.68331 0.47750 0.00900
C 	C 	0.79545 0.63570 0.46758 0.11700
C 	C 	0.77076 0.57252 0.46659 -0.03600
C 	C 	0.81235 0.55624 0.47602 -0.12300
C 	C 	0.87919 0.60430 0.48751 0.19000
C 	C 	0.88898 0.74961 0.47600 -0.00900
O 	O 	0.75428 0.65062 0.45757 -0.27600
H 	H 	0.71930 0.53605 0.45771 0.05100
O 	O 	0.92047 0.58968 0.49798 -0.28800
H 	H 	0.95545 0.70407 0.49580 0.07200
C 	C 	0.91114 0.79366 0.51111 0.13300
C 	C 	0.93723 0.85659 0.50934 -0.07600
C 	C 	0.94190 0.87606 0.47270 -0.05300
C 	C 	0.91818 0.83165 0.43755 0.15400
C 	C 	0.89214 0.76876 0.43931 -0.09100
O 	O 	0.90616 0.77504 0.54709 -0.28100
H 	H 	0.95520 0.89056 0.53650 0.06100
O 	O 	0.92304 0.85024 0.40156 -0.27900
H 	H 	0.87491 0.73498 0.41216 0.07400
H 	H 	0.92356 0.59111 0.52695 0.14200
H 	H 	0.94735 0.78170 0.55620 0.14400
H 	H 	0.88248 0.84500 0.39298 0.14800
H 	H 	0.74272 0.65843 0.48282 0.14900
C 	C 	0.81382 0.14903 0.43796 -0.12100
C 	C 	0.87913 0.17664 0.45095 0.01100
C 	C 	0.92318 0.24233 0.46429 0.11800
C 	C 	0.90119 0.27946 0.46628 -0.03400
C 	C 	0.83516 0.25119 0.45591 -0.13100
C 	C 	0.79163 0.18589 0.44062 0.19500
C 	C 	0.90046 0.13618 0.45331 -0.01100
O 	O 	0.98766 0.27029 0.47546 -0.27100
H 	H 	0.93511 0.32975 0.47770 0.05200
O 	O 	0.72756 0.15824 0.42775 -0.29500
H 	H 	0.77991 0.09863 0.42691 0.07100
C 	C 	0.90248 0.11417 0.48845 0.13300
C 	C 	0.92607 0.07871 0.49124 -0.07600
C 	C 	0.94712 0.06444 0.45899 -0.05300
C 	C 	0.94229 0.08401 0.42323 0.15300
C 	C 	0.91939 0.12011 0.42060 -0.09200
O 	O 	0.88389 0.12945 0.52061 -0.28600
H 	H 	0.92961 0.06375 0.51883 0.06100
O 	O 	0.96229 0.07000 0.39136 -0.28200
H 	H 	0.91715 0.13628 0.39331 0.07300
H 	H 	0.70665 0.14226 0.45072 0.14600
H 	H 	0.83723 0.09489 0.51768 0.14100
H 	H 	0.92364 0.02885 0.37627 0.14800
H 	H 	0.99420 0.27022 0.50421 0.14900
C 	C 	0.24163 0.11354 0.44265 -0.09700
C 	C 	0.28386 0.15657 0.47731 -0.01100
C 	C 	0.25906 0.16296 0.51029 0.14000
C 	C 	0.19231 0.12667 0.50832 -0.07800
C 	C 	0.15008 0.08344 0.47370 -0.05100
C 	C 	0.17492 0.07726 0.44067 0.15500
C 	C 	0.35401 0.19431 0.47908 0.01100
O 	O 	0.29996 0.20564 0.54413 -0.28000
H 	H 	0.17337 0.13191 0.53374 0.06200
O 	O 	0.13405 0.03492 0.40671 -0.28100
H 	H 	0.26058 0.10827 0.41725 0.06900
C 	C 	0.38810 0.17141 0.49221 0.11200
C 	C 	0.45406 0.20586 0.49171 -0.03300
C 	C 	0.48627 0.26286 0.47757 -0.12700
C 	C 	0.45246 0.28680 0.46573 0.19400
C 	C 	0.38643 0.25215 0.46616 -0.11600
O 	O 	0.35716 0.11573 0.50599 -0.27900
H 	H 	0.47980 0.18747 0.50143 0.05100
O 	O 	0.48364 0.34359 0.45330 -0.29100
H 	H 	0.36036 0.27015 0.45629 0.07800
H 	H 	0.12513 0.05875 0.39054 0.15300
H 	H 	0.34148 0.08257 0.48245 0.14500
H 	H 	0.49938 0.37561 0.47753 0.14800
H 	H 	0.30869 0.18194 0.56057 0.15200
C 	C 	0.67861 0.58431 0.96627 -0.12100
C 	C 	0.74456 0.62139 0.96513 0.01000
C 	C 	0.77589 0.59299 0.96155 0.11900
C 	C 	0.74168 0.52816 0.96055 -0.03500
C 	C 	0.67618 0.49130 0.96303 -0.12600
C 	C 	0.64417 0.51933 0.96487 0.19500
C 	C 	0.78144 0.69029 0.96980 -0.01000
O 	O 	0.84062 0.62904 0.96088 -0.27300
H 	H 	0.76646 0.50679 0.95883 0.05000
O 	O 	0.57957 0.48348 0.96588 -0.28600
H 	H 	0.65420 0.60599 0.96861 0.07300
C 	C 	0.79811 0.71960 0.93667 0.13600
C 	C 	0.83716 0.78546 0.94180 -0.07700
C 	C 	0.85875 0.82220 0.97980 -0.05000
C 	C 	0.84025 0.79281 0.01276 0.15500
C 	C 	0.80201 0.72702 0.00769 -0.09300
O 	O 	0.77805 0.68401 0.89946 -0.28300
H 	H 	0.85104 0.80800 0.91631 0.06400
O 	O 	0.86161 0.82843 0.05009 -0.28100
H 	H 	0.78905 0.70454 0.03327 0.07200
H 	H 	0.55751 0.46917 0.93779 0.14900
H 	H 	0.73608 0.67512 0.88923 0.14400
H 	H 	0.82826 0.83435 0.05448 0.15200
H 	H 	0.84356 0.62891 0.93247 0.15400
C 	C 	0.82635 0.04979 0.03185 -0.09100
C 	C 	0.81863 0.07379 0.99923 -0.01200
C 	C 	0.84981 0.07713 0.96745 0.13400
C 	C 	0.88633 0.05418 0.96778 -0.07800
C 	C 	0.89119 0.02702 0.99942 -0.05000
C 	C 	0.86281 0.02677 0.03216 0.15300
C 	C 	0.77553 0.09265 0.99752 0.00900
O 	O 	0.84462 0.10282 0.93609 -0.28300
H 	H 	0.90871 0.05517 0.94270 0.06300
O 	O 	0.86812 0.00126 0.06359 -0.28400
H 	H 	0.80295 0.04776 0.05658 0.07300
C 	C 	0.70992 0.04852 0.98021 0.11200
C 	C 	0.67036 0.06791 0.97578 -0.03300
C 	C 	0.69605 0.13145 0.98801 -0.13100
C 	C 	0.76162 0.17536 0.00617 0.19100
C 	C 	0.80075 0.15558 0.01118 -0.11400
O 	O 	0.68431 0.98633 0.96790 -0.27300
H 	H 	0.61996 0.03374 0.96213 0.05500
O 	O 	0.78773 0.23768 0.01852 -0.28900
H 	H 	0.85122 0.18961 0.02472 0.07500
H 	H 	0.90764 0.03682 0.08216 0.14900
H 	H 	0.68923 0.98268 0.93988 0.13900
H 	H 	0.80416 0.25810 0.99555 0.13500
H 	H 	0.80639 0.06697 0.91683 0.14100
C 	C 	0.17375 0.07511 0.96502 -0.09400
C 	C 	0.20890 0.07165 0.99664 -0.01200
C 	C 	0.17937 0.04395 0.02822 0.14000
C 	C 	0.11503 0.01978 0.02795 -0.07700
C 	C 	0.07945 0.02209 0.99596 -0.04800
C 	C 	0.10923 0.05052 0.96460 0.15100
C 	C 	0.27733 0.09924 0.99732 0.01300
O 	O 	0.21361 0.04126 0.05962 -0.28000
H 	H 	0.09233 0.99801 0.05221 0.06600
O 	O 	0.07456 0.05173 0.93270 -0.28500
H 	H 	0.19643 0.09672 0.94072 0.06600
C 	C 	0.29478 0.06873 0.97236 0.11100
C 	C 	0.35998 0.09742 0.97153 -0.02900
C 	C 	0.40774 0.15675 0.99510 -0.13000
C 	C 	0.39033 0.18584 0.02131 0.20000
C 	C 	0.32531 0.15729 0.02209 -0.11600
O 	O 	0.24831 0.01057 0.94928 -0.27300
H 	H 	0.37321 0.07442 0.95170 0.04700
O 	O 	0.43681 0.24327 0.04519 -0.31200
H 	H 	0.31211 0.18069 0.04159 0.08000
H 	H 	0.08071 0.09226 0.93924 0.14400
H 	H 	0.23758 0.01929 0.92365 0.14400
H 	H 	0.44832 0.23333 0.07003 0.15400
H 	H 	0.20699 0.00062 0.05234 0.15300
