data_crystal

_cell_length_a 24.85033
_cell_length_b 24.59251
_cell_length_c 26.57726
_cell_angle_alpha 95.44015
_cell_angle_beta  95.44135
_cell_angle_gamma 125.84001

_symmetry_space_group_name_	'P 1'
_symmetry_space_group_name_H-M	'P 1'

loop_
_symmetry_equiv_pos_as_xyz
  x,y,z

loop_
_atom_site_label
_atom_site_type_symbol
_atom_site_fract_x
_atom_site_fract_y
_atom_site_fract_z
_atom_site_charge
C 	C 	0.08322 0.05163 0.01285 -0.00700
C 	C 	0.04467 0.02122 0.47892 -0.00700
C 	C 	0.11820 0.06279 0.48081 0.11900
C 	C 	0.15934 0.04828 0.50412 -0.09800
O 	O 	0.18904 0.06169 0.03678 -0.21400
H 	H 	0.28868 0.04540 0.03325 0.06600
H 	H 	0.27391 0.05145 0.51317 0.06800
C 	C 	0.05577 0.08712 0.02169 -0.04100
H 	H 	0.04438 0.10883 0.48956 0.05000
C 	C 	0.27034 0.08395 0.49052 -0.09300
C 	C 	0.22086 0.09426 0.49399 0.02300
C 	C 	0.24984 0.10295 0.02008 0.11100
C 	C 	0.29139 0.08285 0.01293 -0.08800
C 	C 	0.15693 0.08900 0.01784 0.11800
H 	H 	0.72945 0.01228 0.45998 0.06500
O 	O 	0.15103 0.11844 0.45575 -0.21700
H 	H 	0.41352 0.10537 0.01026 0.05700
H 	H 	0.68914 0.09233 0.44862 0.05000
H 	H 	0.71514 0.10868 0.02413 0.05400
H 	H 	0.78134 0.05087 0.05210 0.06500
C 	C 	0.77438 0.05532 0.44960 -0.08800
C 	C 	0.77119 0.09925 0.42142 0.00700
H 	H 	0.08898 0.14239 0.03158 0.04200
C 	C 	0.21528 0.13484 0.46478 0.11500
C 	C 	0.31737 0.11975 0.45895 0.11700
C 	C 	0.33469 0.11063 0.97741 0.01000
C 	C 	0.25436 0.15132 0.99458 0.02800
C 	C 	0.19539 0.14234 0.99250 -0.10200
C 	C 	0.72842 0.11517 0.42569 -0.05900
C 	C 	0.76618 0.14637 0.01861 -0.05200
C 	C 	0.82215 0.09383 0.03815 -0.08200
C 	C 	0.81190 0.13503 0.01222 -0.00100
C 	C 	0.31127 0.15970 0.42937 0.00900
O 	O 	0.38208 0.13718 0.46842 -0.18900
C 	C 	0.39422 0.12069 0.98094 -0.05600
C 	C 	0.82853 0.15518 0.40894 0.11800
C 	C 	0.26199 0.17020 0.43300 -0.08700
O 	O 	0.84385 0.01834 0.47493 -0.21400
C 	C 	0.83725 0.06847 0.46369 0.11100
H 	H 	0.17489 0.15690 0.96345 0.06100
C 	C 	0.86324 0.18996 0.99460 0.12100
C 	C 	0.01348 0.05356 0.48077 -0.03300
C 	C 	0.76100 0.18058 0.41573 0.03600
H 	H 	0.25843 0.20271 0.41035 0.06600
H 	H 	0.01725 0.17368 0.99099 0.05900
C 	C 	0.33982 0.15965 0.95232 0.11800
C 	C 	0.29729 0.17881 0.95878 -0.09500
C 	C 	0.43418 0.17589 0.95768 0.04000
C 	C 	0.41416 0.19202 0.44242 0.04100
O 	O 	0.53774 0.19237 0.99054 -0.35200
O 	O 	0.68706 0.19759 0.00129 -0.36600
C 	C 	0.88613 0.10782 0.04306 0.11200
O 	O 	0.89523 0.05768 0.04745 -0.21500
C 	C 	0.89419 0.12430 0.45142 0.02700
C 	C 	0.89088 0.16664 0.42162 -0.09600
H 	H 	0.63343 0.20109 0.15777 0.04800
C 	C 	0.37247 0.20568 0.41892 -0.06000
C 	C 	0.78951 0.20671 0.00160 0.02800
O 	O 	0.82454 0.20836 0.40319 -0.18900
O 	O 	0.40199 0.20271 0.93781 -0.19200
C 	C 	0.91030 0.04968 0.46756 0.12300
H 	H 	0.56277 0.20596 0.73722 0.03800
H 	H 	0.64434 0.21298 0.25227 0.04100
O 	O 	0.70307 0.20747 0.46843 -0.43100
C 	C 	0.50828 0.21654 0.96826 0.24900
H 	H 	0.58814 0.21526 0.90190 0.17500
H 	H 	0.56595 0.20893 0.64499 0.04300
H 	H 	0.30003 0.21635 0.93857 0.06800
C 	C 	0.74498 0.22540 0.98556 0.26100
C 	C 	0.74285 0.22491 0.43450 0.25600
H 	H 	0.93607 0.20993 0.41170 0.07000
H 	H 	0.59273 0.22843 0.40255 0.16700
C 	C 	0.94043 0.11256 0.45311 -0.10600
C 	C 	0.92731 0.20456 0.99995 -0.09500
O 	O 	0.52473 0.23329 0.48406 -0.35700
O 	O 	0.85239 0.23805 0.98654 -0.19400
C 	C 	0.94277 0.01503 0.47024 -0.00700
C 	C 	0.48800 0.23869 0.44860 0.25500
C 	C 	0.93794 0.16357 0.02591 0.02500
Cu	Cu	0.63853 0.23982 0.99715 0.92800
O 	O 	0.65834 0.24119 0.82776 -0.41500
Cu	Cu	0.69927 0.24123 0.89210 0.87300
O 	O 	0.63419 0.24514 0.92304 -0.63900
H 	H 	0.38943 0.25474 0.40961 0.05600
C 	C 	0.60559 0.25004 0.72574 -0.01000
C 	C 	0.65284 0.24980 0.18092 -0.00600
O 	O 	0.65559 0.25330 0.07097 -0.35700
C 	C 	0.60735 0.25181 0.67347 -0.01200
C 	C 	0.65881 0.25645 0.23448 -0.01200
C 	C 	0.95688 0.08834 0.03052 0.12000
O 	O 	0.76151 0.26701 0.95285 -0.41800
Cu	Cu	0.72854 0.27062 0.52915 0.87300
H 	H 	0.96776 0.24713 0.98544 0.06700
O 	O 	0.62226 0.27618 0.42156 -0.64000
H 	H 	0.98195 0.13565 0.43229 0.06500
O 	O 	0.54494 0.27972 0.96066 -0.36500
O 	O 	0.61989 0.27847 0.56727 -0.38200
C 	C 	0.98250 0.15122 0.01743 -0.10400
O 	O 	0.77116 0.28470 0.42093 -0.35000
Cu	Cu	0.62182 0.28550 0.49389 0.89800
C 	C 	0.98577 0.05111 0.01969 -0.00400
O 	O 	0.51593 0.29136 0.42468 -0.38500
C 	C 	0.64976 0.29489 0.10116 0.28000
C 	C 	0.66467 0.29566 0.81706 0.28300
C 	C 	0.67225 0.30212 0.60408 0.28200
C 	C 	0.66034 0.30364 0.76305 -0.06800
C 	C 	0.66823 0.30488 0.15729 -0.06400
C 	C 	0.66436 0.30671 0.65811 -0.06700
H 	H 	0.14228 0.99996 0.51499 0.05500
C 	C 	0.04081 0.98012 0.00261 -0.03500
H 	H 	0.06214 0.95271 0.99645 0.06500
H 	H 	0.02884 0.92434 0.46784 0.03900
Cu	Cu	0.62573 0.35957 0.02205 0.89400
O 	O 	0.61399 0.31510 0.08321 -0.38000
Cu	Cu	0.60238 0.33345 0.39834 0.89400
O 	O 	0.64785 0.35024 0.33732 -0.38000
O 	O 	0.67917 0.41711 0.45946 -0.38200
C 	C 	0.67587 0.32210 0.31943 0.28300
O 	O 	0.68581 0.34785 0.85382 -0.38300
Cu	Cu	0.67727 0.34481 0.92691 0.89800
C 	C 	0.71506 0.36089 0.74768 -0.01100
C 	C 	0.71731 0.36216 0.69540 -0.01100
C 	C 	0.67991 0.31803 0.26457 -0.05900
C 	C 	0.69948 0.37425 0.24120 -0.00800
C 	C 	0.69378 0.36774 0.18786 -0.01000
H 	H 	0.69917 0.53634 0.48808 0.05300
O 	O 	0.68640 0.34459 0.99933 -0.63500
O 	O 	0.72310 0.44249 0.93646 -0.36700
C 	C 	0.71571 0.47717 0.97265 0.25300
O 	O 	0.66297 0.44626 0.99568 -0.36600
Cu	Cu	0.72644 0.33041 0.42427 0.92900
O 	O 	0.72124 0.33451 0.49825 -0.64000
O 	O 	0.71315 0.31245 0.35063 -0.35400
O 	O 	0.72721 0.31070 0.59351 -0.41500
H 	H 	0.73347 0.37662 0.01854 0.16300
O 	O 	0.76862 0.43118 0.43006 -0.33800
C 	C 	0.74090 0.45769 0.45063 0.25000
H 	H 	0.74882 0.38102 0.51937 0.17600
H 	H 	0.75742 0.40277 0.77618 0.03900
H 	H 	0.76118 0.40519 0.68394 0.03700
H 	H 	0.71736 0.42250 0.26426 0.04700
H 	H 	0.70702 0.41093 0.17011 0.03100
C 	C 	0.74293 0.56029 0.46969 -0.06000
H 	H 	0.74098 0.67081 0.49357 0.06600
C 	C 	0.76820 0.67118 0.46393 -0.08500
C 	C 	0.77220 0.53046 0.45197 0.03900
O 	O 	0.75754 0.59119 0.02141 -0.19500
C 	C 	0.76085 0.55213 0.98176 0.04700
C 	C 	0.76509 0.61366 0.44614 0.00500
C 	C 	0.81755 0.58865 0.95989 -0.06200
H 	H 	0.82305 0.57223 0.92268 0.05900
H 	H 	0.79563 0.71676 0.06448 0.06800
O 	O 	0.83290 0.79477 0.46917 -0.21400
C 	C 	0.81167 0.73093 0.44478 0.11100
O 	O 	0.81805 0.56650 0.41977 -0.18800
H 	H 	0.84852 0.91340 0.45372 0.06200
C 	C 	0.81031 0.61782 0.41759 0.11800
C 	C 	0.81722 0.65462 0.02088 0.11300
C 	C 	0.85347 0.73338 0.41274 0.02700
C 	C 	0.82852 0.71614 0.04083 -0.09200
C 	C 	0.85790 0.67922 0.40221 -0.09600
C 	C 	0.85324 0.65335 0.98488 0.01300
C 	C 	0.88094 0.77589 0.02628 0.02200
H 	H 	0.87986 0.85749 0.06171 0.06400
H 	H 	0.88976 0.95126 0.00824 0.05200
C 	C 	0.89209 0.83534 0.44960 0.12200
C 	C 	0.88760 0.83427 0.02926 -0.10600
C 	C 	0.90317 0.94346 0.46151 -0.02900
C 	C 	0.90448 0.79940 0.41583 -0.10500
H 	H 	0.89852 0.68551 0.38490 0.06900
C 	C 	0.89733 0.71137 0.96418 -0.08900
C 	C 	0.91314 0.77376 0.98772 0.11800
H 	H 	0.91650 0.70777 0.93006 0.06700
C 	C 	0.93410 0.91059 0.46081 -0.00900
C 	C 	0.92814 0.86862 0.99443 0.12600
C 	C 	0.94369 0.97935 0.00971 -0.03600
O 	O 	0.94422 0.83122 0.96511 -0.21600
H 	H 	0.95272 0.81879 0.40483 0.06100
C 	C 	0.00493 0.94961 0.46948 -0.04200
C 	C 	0.97129 0.94382 0.00174 -0.01200
