data_crystal

_cell_length_a 18.63076
_cell_length_b 18.65079
_cell_length_c 26.28776
_cell_angle_alpha 95.42491
_cell_angle_beta  95.42417
_cell_angle_gamma 126.42244

_symmetry_space_group_name_	'P 1'
_symmetry_space_group_name_H-M	'P 1'

loop_
_symmetry_equiv_pos_as_xyz
  x,y,z

loop_
_atom_site_label
_atom_site_type_symbol
_atom_site_fract_x
_atom_site_fract_y
_atom_site_fract_z
_atom_site_charge
C 	C 	0.96230 0.04575 0.00647 0.12200
N 	N 	0.05264 0.09228 0.00647 -0.14300
C 	C 	0.09098 0.04910 0.00953 0.12500
C 	C 	0.03858 0.01120 0.45816 0.12500
N 	N 	0.99593 0.04993 0.45864 -0.13800
Cu	Cu	0.61944 0.19866 0.00313 0.92700
Cu	Cu	0.68061 0.20917 0.88939 0.87100
C 	C 	0.65260 0.25615 0.11381 0.28200
O 	O 	0.48869 0.14715 0.00633 -0.36400
C 	C 	0.63714 0.29990 0.82786 0.28000
O 	O 	0.69717 0.34066 0.01348 -0.64200
O 	O 	0.60453 0.21649 0.93104 -0.64100
O 	O 	0.67450 0.13494 0.99236 -0.37400
O 	O 	0.77067 0.23289 0.94372 -0.44200
O 	O 	0.61485 0.29657 0.10501 -0.38500
C 	C 	0.45606 0.19033 0.99312 0.29200
O 	O 	0.51196 0.27545 0.98854 -0.39400
O 	O 	0.65247 0.20464 0.07558 -0.36400
C 	C 	0.75056 0.17431 0.97433 0.29700
O 	O 	0.62142 0.22206 0.83193 -0.42100
H 	H 	0.54088 0.18250 0.91281 0.17100
Cu	Cu	0.74947 0.33880 0.43890 0.92600
Cu	Cu	0.75687 0.29884 0.55721 0.86900
Cu	Cu	0.60775 0.29749 0.50520 0.89600
Cu	Cu	0.56493 0.30112 0.39342 0.89400
C 	C 	0.67768 0.28247 0.32908 0.28500
C 	C 	0.66906 0.34440 0.61969 0.27800
O 	O 	0.60838 0.25390 0.43583 -0.63800
O 	O 	0.82268 0.29380 0.45215 -0.37300
O 	O 	0.73295 0.20517 0.50618 -0.44100
O 	O 	0.63372 0.31646 0.33662 -0.38900
O 	O 	0.47697 0.22302 0.49656 -0.38800
C 	C 	0.42119 0.21646 0.45807 0.30000
O 	O 	0.44181 0.22919 0.41132 -0.39500
O 	O 	0.73607 0.29279 0.36735 -0.36200
C 	C 	0.79101 0.22385 0.47547 0.29800
O 	O 	0.60912 0.32753 0.57961 -0.37800
O 	O 	0.74727 0.36264 0.61355 -0.42100
H 	H 	0.57499 0.18742 0.42703 0.16700
C 	C 	0.63352 0.32161 0.77575 -0.07200
C 	C 	0.56266 0.25531 0.73485 -0.01300
C 	C 	0.57002 0.26720 0.68335 -0.01700
C 	C 	0.64899 0.34464 0.67239 -0.07200
H 	H 	0.50395 0.19279 0.74278 0.03300
H 	H 	0.51723 0.21343 0.65192 0.03300
C 	C 	0.75156 0.31488 0.20064 -0.01600
C 	C 	0.66909 0.24619 0.16733 -0.06500
C 	C 	0.59650 0.17806 0.18797 -0.00700
C 	C 	0.60289 0.18432 0.24184 -0.01400
C 	C 	0.68209 0.25844 0.27536 -0.06600
C 	C 	0.75823 0.32071 0.25457 -0.00700
H 	H 	0.53291 0.12394 0.16244 0.03900
H 	H 	0.54412 0.13510 0.25751 0.02700
C 	C 	0.87232 0.08742 0.50899 -0.07500
C 	C 	0.86107 0.04266 0.45961 -0.02700
C 	C 	0.82781 0.05881 0.41492 0.07700
C 	C 	0.80998 0.12236 0.42054 -0.02900
C 	C 	0.82437 0.16942 0.46993 -0.10700
C 	C 	0.85850 0.15373 0.51449 0.11200
N 	N 	0.88189 0.20484 0.56225 -0.19900
H 	H 	0.89869 0.07562 0.54312 0.05100
H 	H 	0.78272 0.13348 0.38649 0.04700
N 	N 	0.81239 0.01329 0.36666 -0.19200
H 	H 	0.90290 0.19006 0.59528 0.07400
H 	H 	0.88447 0.26260 0.56669 0.04700
H 	H 	0.79003 0.02717 0.33372 0.08500
C 	C 	0.17955 0.13865 0.43375 -0.07600
C 	C 	0.13811 0.06868 0.46248 -0.03300
C 	C 	0.19253 0.05561 0.49550 0.07900
C 	C 	0.28498 0.10399 0.49334 -0.03000
C 	C 	0.32608 0.17272 0.46367 -0.10400
C 	C 	0.27391 0.19455 0.43679 0.11900
N 	N 	0.31432 0.27111 0.41608 -0.20100
H 	H 	0.13859 0.15125 0.41007 0.05600
H 	H 	0.32526 0.08909 0.51552 0.04800
H 	H 	0.27498 0.28375 0.39357 0.08300
H 	H 	0.38445 0.32185 0.42537 0.08500
C 	C 	0.90778 0.13035 0.04041 -0.08000
C 	C 	0.91825 0.08888 0.99747 -0.02600
C 	C 	0.87607 0.07843 0.94678 0.07500
C 	C 	0.82060 0.10582 0.94028 -0.02800
C 	C 	0.80820 0.14525 0.98328 -0.11100
C 	C 	0.85424 0.16011 0.03378 0.12200
N 	N 	0.84881 0.20417 0.07577 -0.20200
H 	H 	0.94064 0.13869 0.07917 0.05400
H 	H 	0.78694 0.09644 0.90153 0.02100
N 	N 	0.88858 0.04226 0.90425 -0.19400
H 	H 	0.88071 0.21221 0.11306 0.08700
H 	H 	0.81581 0.23356 0.07177 0.09500
H 	H 	0.93321 0.02572 0.90742 0.08800
H 	H 	0.85513 0.03245 0.86708 0.07700
C 	C 	0.21882 0.12385 0.96208 -0.07000
C 	C 	0.18813 0.09784 0.00849 -0.03800
C 	C 	0.24615 0.10288 0.04993 0.08200
C 	C 	0.33120 0.12738 0.04276 -0.03700
C 	C 	0.36114 0.15124 0.99590 -0.10200
C 	C 	0.30423 0.14893 0.95493 0.11400
N 	N 	0.32964 0.16740 0.90815 -0.20100
H 	H 	0.17409 0.11967 0.93032 0.05100
H 	H 	0.37576 0.13137 0.07455 0.04800
N 	N 	0.22130 0.08606 0.09697 -0.19500
H 	H 	0.28846 0.16817 0.87867 0.08200
H 	H 	0.38856 0.17780 0.89989 0.08300
H 	H 	0.16230 0.07579 0.10500 0.09000
H 	H 	0.26301 0.08670 0.12685 0.08300
Cu	Cu	0.67287 0.35096 0.94320 0.89800
O 	O 	0.74168 0.36621 0.51170 -0.64100
O 	O 	0.66877 0.36380 0.86935 -0.38500
Cu	Cu	0.63048 0.36743 0.04898 0.89400
H 	H 	0.80849 0.36707 0.18499 0.02600
H 	H 	0.82018 0.37763 0.28013 0.04000
H 	H 	0.76249 0.37719 0.02900 0.16100
N 	N 	0.15777 0.00068 0.53106 -0.18900
N 	N 	0.03873 0.95946 0.01134 -0.14500
C 	C 	0.94869 0.91298 0.01083 0.12200
N 	N 	0.91068 0.95633 0.00909 -0.14500
C 	C 	0.90463 0.99811 0.45482 0.11300
N 	N 	0.85560 0.90683 0.45181 -0.14300
C 	C 	0.89821 0.86763 0.45086 0.11900
N 	N 	0.98933 0.91972 0.45274 -0.14300
O 	O 	0.74617 0.48140 0.95964 -0.38600
C 	C 	0.74403 0.52852 0.99945 0.30400
O 	O 	0.68406 0.48863 0.03011 -0.39800
O 	O 	0.78392 0.46160 0.42728 -0.36100
C 	C 	0.73650 0.48962 0.44056 0.28700
O 	O 	0.65212 0.43076 0.44657 -0.40000
H 	H 	0.77661 0.43149 0.52663 0.17100
C 	C 	0.70783 0.40337 0.76498 -0.01600
C 	C 	0.71586 0.41457 0.71346 -0.01200
H 	H 	0.76225 0.45576 0.79629 0.03700
H 	H 	0.77626 0.47552 0.70545 0.03500
C 	C 	0.82691 0.64705 0.49019 -0.03200
C 	C 	0.77463 0.58569 0.44325 -0.10300
C 	C 	0.75603 0.61591 0.39996 0.11700
C 	C 	0.79229 0.70776 0.40431 -0.07500
C 	C 	0.84693 0.76966 0.45077 -0.03200
C 	C 	0.86184 0.73852 0.49472 0.07800
N 	N 	0.90801 0.79557 0.54151 -0.19500
H 	H 	0.83934 0.62334 0.52358 0.03300
H 	H 	0.78041 0.73164 0.37082 0.05100
N 	N 	0.70471 0.55768 0.35403 -0.20200
H 	H 	0.92191 0.77312 0.57325 0.07900
H 	H 	0.92722 0.86137 0.54742 0.08600
H 	H 	0.67810 0.48948 0.34907 0.08500
H 	H 	0.69123 0.58061 0.32240 0.08200
H 	H 	0.82021 0.96225 0.36146 0.08700
H 	H 	0.09567 0.97847 0.54108 0.08500
H 	H 	0.19647 0.98614 0.55240 0.07700
C 	C 	0.78605 0.66018 0.95951 -0.02700
C 	C 	0.79638 0.62698 0.00305 -0.10700
C 	C 	0.85518 0.68816 0.04974 0.11600
C 	C 	0.90055 0.78142 0.05222 -0.07400
C 	C 	0.89159 0.81466 0.00837 -0.03500
C 	C 	0.83422 0.75361 0.96135 0.08000
N 	N 	0.82632 0.78415 0.91769 -0.19500
H 	H 	0.74073 0.61304 0.92386 0.04700
H 	H 	0.94546 0.82861 0.08794 0.05100
N 	N 	0.87074 0.65827 0.09160 -0.20100
H 	H 	0.78275 0.73826 0.88346 0.08200
H 	H 	0.86422 0.85325 0.91682 0.08900
H 	H 	0.84515 0.59064 0.08955 0.07600
H 	H 	0.91203 0.70374 0.12638 0.08100
