data_crystal

_cell_length_a 27.03389
_cell_length_b 29.10229
_cell_length_c 22.13949
_cell_angle_alpha 61.62364
_cell_angle_beta  118.04521
_cell_angle_gamma 133.18534

_symmetry_space_group_name_	'P 1'
_symmetry_space_group_name_H-M	'P 1'

loop_
_symmetry_equiv_pos_as_xyz
  x,y,z

loop_
_atom_site_label
_atom_site_type_symbol
_atom_site_fract_x
_atom_site_fract_y
_atom_site_fract_z
_atom_site_charge
C 	C 	0.74666 0.36031 0.99261 0.13100
N 	N 	0.67843 0.31157 0.99416 -0.13100
C 	C 	0.63820 0.32343 0.99490 0.11800
N 	N 	0.66502 0.38501 0.98822 -0.13300
C 	C 	0.73452 0.43211 0.99546 0.12200
N 	N 	0.77574 0.42000 0.99692 -0.12900
C 	C 	0.77431 0.30348 0.60646 0.13000
N 	N 	0.82127 0.36141 0.62480 -0.13200
C 	C 	0.80041 0.38148 0.64631 0.13200
N 	N 	0.73349 0.34311 0.65072 -0.13400
C 	C 	0.68575 0.28755 0.62843 0.13300
N 	N 	0.70610 0.26741 0.60642 -0.13200
C 	C 	0.25977 0.64157 0.38092 0.12700
N 	N 	0.32603 0.68670 0.37113 -0.13200
C 	C 	0.35850 0.66801 0.36723 0.13000
N 	N 	0.32593 0.60420 0.37713 -0.13600
C 	C 	0.25685 0.56090 0.37529 0.12800
N 	N 	0.22365 0.57931 0.37858 -0.13400
C 	C 	0.24018 0.59848 0.87297 0.12700
N 	N 	0.30621 0.64244 0.86307 -0.13500
C 	C 	0.33929 0.62231 0.86383 0.13100
N 	N 	0.30631 0.55842 0.87375 -0.13400
C 	C 	0.24027 0.51409 0.88310 0.12900
N 	N 	0.20660 0.53408 0.88206 -0.13600
Co	Co	0.08581 0.99621 0.20966 1.17900
Co	Co	0.90079 0.98744 0.14889 1.18100
Co	Co	0.02954 0.04167 0.25951 1.18700
Co	Co	0.96365 0.95533 0.09073 1.18900
C 	C 	0.08777 0.87944 0.26591 0.29900
Co	Co	0.06759 0.92665 0.11098 1.16500
Co	Co	0.90380 0.03405 0.25997 1.17400
C 	C 	0.02300 0.99366 0.96967 0.15100
O 	O 	0.97772 0.13136 0.22657 -0.37700
O 	O 	0.94869 0.02166 0.21841 -0.74200
C 	C 	0.04490 0.15935 0.25420 0.28000
O 	O 	0.11061 0.04160 0.27731 -0.43900
O 	O 	0.88323 0.95635 0.07132 -0.45800
C 	C 	0.85329 0.06810 0.10550 0.30700
O 	O 	0.00640 0.01664 0.16224 -0.57200
C 	C 	0.99129 0.00045 0.39300 0.29500
C 	C 	0.20247 0.04927 0.15374 0.32600
C 	C 	0.91391 0.82774 0.08836 0.31000
O 	O 	0.07646 0.13707 0.25794 -0.36200
O 	O 	0.17164 0.98853 0.15796 -0.42100
O 	O 	0.17675 0.06445 0.17306 -0.37500
O 	O 	0.83318 0.03403 0.16509 -0.39900
O 	O 	0.88150 0.05602 0.08554 -0.36500
O 	O 	0.97002 0.03728 0.35988 -0.37100
O 	O 	0.00353 0.98434 0.35734 -0.40000
O 	O 	0.96729 0.86187 0.06144 -0.39300
O 	O 	0.90768 0.85505 0.11516 -0.39000
O 	O 	0.03950 0.96597 0.13697 -0.76900
C 	C 	0.79380 0.90051 0.23934 0.29400
O 	O 	0.83573 0.93423 0.28787 -0.39300
O 	O 	0.81873 0.90270 0.19784 -0.38100
O 	O 	0.05059 0.86046 0.20671 -0.39100
O 	O 	0.08442 0.91600 0.28135 -0.38600
O 	O 	0.07635 0.99231 0.01388 -0.34200
O 	O 	0.98660 0.99692 0.99098 -0.33000
Co	Co	0.09838 0.98411 0.70750 1.18000
Co	Co	0.90725 0.95879 0.67091 1.18300
Co	Co	0.04350 0.02159 0.77041 1.18400
Co	Co	0.96195 0.92115 0.60984 1.18700
C 	C 	0.11280 0.87537 0.75138 0.29500
Co	Co	0.08460 0.93332 0.59374 1.17100
Co	Co	0.92809 0.03457 0.76062 1.18000
C 	C 	0.01006 0.98438 0.47116 0.15900
O 	O 	0.00419 0.12761 0.71657 -0.39200
O 	O 	0.96060 0.99851 0.73606 -0.76200
C 	C 	0.06991 0.14935 0.74024 0.29600
O 	O 	0.12446 0.02388 0.78177 -0.45100
O 	O 	0.87773 0.91040 0.60456 -0.46400
C 	C 	0.87203 0.05091 0.60641 0.30700
O 	O 	0.99417 0.94928 0.70934 -0.57600
C 	C 	0.01612 0.00803 0.89986 0.23900
C 	C 	0.20398 0.06338 0.62378 0.30500
C 	C 	0.94272 0.81346 0.59258 0.30400
O 	O 	0.09086 0.12146 0.73536 -0.38300
O 	O 	0.18632 0.00693 0.63001 -0.38100
O 	O 	0.16818 0.06628 0.64511 -0.38100
O 	O 	0.85512 0.02687 0.66622 -0.39400
O 	O 	0.90334 0.03510 0.59771 -0.38400
O 	O 	0.99738 0.04653 0.85782 -0.35500
O 	O 	0.03819 0.99184 0.87577 -0.37500
O 	O 	0.98566 0.86134 0.55147 -0.38600
O 	O 	0.92134 0.82558 0.62225 -0.37500
O 	O 	0.04481 0.94568 0.64200 -0.77900
C 	C 	0.80621 0.89865 0.75941 0.29600
O 	O 	0.85723 0.93803 0.80163 -0.38700
O 	O 	0.81864 0.89118 0.71427 -0.37200
O 	O 	0.08865 0.86726 0.68693 -0.38200
O 	O 	0.13751 0.92937 0.76346 -0.38400
O 	O 	0.07204 0.99688 0.50307 -0.34300
O 	O 	0.97373 0.97554 0.50576 -0.33700
C 	C 	0.12305 0.36174 0.82197 -0.02700
C 	C 	0.16605 0.34079 0.85566 0.01500
C 	C 	0.22297 0.36733 0.91107 -0.04300
C 	C 	0.23975 0.41706 0.92961 0.00300
C 	C 	0.20394 0.44532 0.88802 -0.01800
C 	C 	0.14275 0.41448 0.83764 -0.01800
C 	C 	0.15526 0.29525 0.82935 0.02400
C 	C 	0.15921 0.31278 0.75980 -0.05600
C 	C 	0.14131 0.26773 0.73157 0.02900
C 	C 	0.11994 0.20486 0.77335 -0.08000
C 	C 	0.12901 0.19217 0.84592 0.00500
C 	C 	0.14228 0.23510 0.87342 -0.03400
C 	C 	0.14941 0.28770 0.66152 0.08400
C 	C 	0.13871 0.21551 0.94553 0.08100
C 	C 	0.05959 0.33028 0.77043 0.08800
C 	C 	0.29515 0.44025 0.99020 0.08400
N 	N 	0.15666 0.30437 0.60550 -0.10000
N 	N 	0.13582 0.19973 0.00330 -0.10500
N 	N 	0.33951 0.45878 0.03878 -0.08900
N 	N 	0.00883 0.30508 0.72907 -0.11800
H 	H 	0.11305 0.43409 0.80746 0.04900
H 	H 	0.25519 0.35037 0.93860 0.05700
H 	H 	0.17468 0.36089 0.72729 0.06000
H 	H 	0.12112 0.14696 0.88015 0.04600
C 	C 	0.47718 0.73991 0.75923 -0.02400
C 	C 	0.53441 0.74153 0.81080 0.01300
C 	C 	0.52906 0.70907 0.88113 -0.04300
C 	C 	0.46661 0.67350 0.90004 0.00300
C 	C 	0.40854 0.66974 0.84802 -0.01900
C 	C 	0.41464 0.70412 0.77813 -0.01600
C 	C 	0.60200 0.78166 0.79274 0.03000
C 	C 	0.64453 0.84886 0.78387 -0.06300
C 	C 	0.70997 0.88785 0.76980 0.03700
C 	C 	0.73418 0.85920 0.76578 -0.08500
C 	C 	0.69071 0.79199 0.77266 0.01800
C 	C 	0.62475 0.75307 0.78616 -0.04200
C 	C 	0.75161 0.95731 0.75899 0.04500
C 	C 	0.58087 0.68395 0.79341 0.10200
C 	C 	0.48228 0.77469 0.68683 0.09400
C 	C 	0.46274 0.64174 0.97310 0.08300
N 	N 	0.78463 0.01286 0.75052 -0.10600
N 	N 	0.54569 0.62855 0.79926 -0.10500
N 	N 	0.45966 0.61636 0.03163 -0.09000
N 	N 	0.48659 0.80272 0.62892 -0.10400
H 	H 	0.36996 0.70126 0.73807 0.04900
H 	H 	0.57372 0.71187 0.92115 0.05500
H 	H 	0.62660 0.87080 0.78822 0.06000
H 	H 	0.70884 0.76983 0.76919 0.04900
C 	C 	0.21129 0.80562 0.85633 -0.04200
C 	C 	0.15571 0.73960 0.85691 0.02800
C 	C 	0.08755 0.71814 0.84393 -0.06400
C 	C 	0.07379 0.76312 0.82120 0.03400
C 	C 	0.12818 0.83022 0.80866 -0.08300
C 	C 	0.19724 0.85061 0.83261 0.01500
C 	C 	0.16723 0.69549 0.85930 0.01100
C 	C 	0.17633 0.65446 0.92360 -0.04400
C 	C 	0.19449 0.61768 0.92781 0.00100
C 	C 	0.20330 0.62171 0.86703 -0.01900
C 	C 	0.18916 0.65908 0.80196 -0.02000
C 	C 	0.17198 0.69643 0.79786 -0.02500
C 	C 	0.20576 0.57735 0.99494 0.07900
C 	C 	0.16300 0.73825 0.73106 0.08500
C 	C 	0.28252 0.82801 0.87624 0.09300
C 	C 	0.00325 0.74042 0.80717 0.05200
N 	N 	0.21476 0.54500 0.04872 -0.09300
N 	N 	0.15612 0.77193 0.67753 -0.11100
N 	N 	0.94679 0.72241 0.79598 -0.09200
N 	N 	0.33959 0.84589 0.89218 -0.11200
H 	H 	0.23970 0.90202 0.82633 0.04300
H 	H 	0.04493 0.66700 0.84769 0.06100
H 	H 	0.17126 0.65258 0.97065 0.05200
H 	H 	0.19525 0.66181 0.75503 0.04700
C 	C 	0.21166 0.45353 0.28189 -0.02300
C 	C 	0.16240 0.39125 0.31661 0.01300
C 	C 	0.14011 0.38486 0.36793 -0.04300
C 	C 	0.16798 0.44007 0.38588 -0.00200
C 	C 	0.21655 0.50241 0.35012 -0.01800
C 	C 	0.23502 0.50839 0.29576 -0.01600
C 	C 	0.13428 0.33250 0.29969 0.02600
C 	C 	0.15163 0.29030 0.35012 -0.05600
C 	C 	0.12687 0.23532 0.33457 0.02400
C 	C 	0.08727 0.22408 0.26651 -0.07100
C 	C 	0.07393 0.26884 0.21490 0.01200
C 	C 	0.09377 0.32066 0.23211 -0.03900
C 	C 	0.13776 0.18837 0.39021 0.08200
C 	C 	0.06963 0.35965 0.18121 0.09200
C 	C 	0.24136 0.46147 0.23480 0.09700
C 	C 	0.14789 0.43212 0.44207 0.09100
N 	N 	0.14638 0.15080 0.43519 -0.09800
N 	N 	0.05026 0.39082 0.14043 -0.11400
N 	N 	0.13176 0.42571 0.48710 -0.10700
N 	N 	0.26519 0.46775 0.19722 -0.09900
H 	H 	0.27118 0.55617 0.26706 0.05000
H 	H 	0.10221 0.33694 0.39479 0.05600
H 	H 	0.18305 0.29945 0.40205 0.06100
H 	H 	0.04320 0.26033 0.16271 0.04400
C 	C 	0.46518 0.73442 0.24677 -0.02400
C 	C 	0.53320 0.77279 0.28587 0.01100
C 	C 	0.54277 0.78711 0.34455 -0.04100
C 	C 	0.48517 0.75752 0.36891 -0.00200
C 	C 	0.41740 0.71550 0.33252 -0.01700
C 	C 	0.40802 0.70854 0.26863 -0.01700
C 	C 	0.59452 0.79580 0.26771 0.02700
C 	C 	0.61142 0.83966 0.20299 -0.05800
C 	C 	0.67177 0.86517 0.18739 0.02400
C 	C 	0.71934 0.85221 0.23952 -0.08100
C 	C 	0.69937 0.80379 0.30127 0.01700
C 	C 	0.63665 0.77473 0.31511 -0.04100
C 	C 	0.68434 0.90419 0.11773 0.07300
C 	C 	0.61611 0.72373 0.37804 0.09700
C 	C 	0.45336 0.71798 0.18682 0.09100
C 	C 	0.49612 0.76896 0.43228 0.09000
N 	N 	0.69415 0.93516 0.06175 -0.11000
N 	N 	0.59961 0.68287 0.42845 -0.10700
N 	N 	0.50486 0.77810 0.48307 -0.10100
N 	N 	0.44387 0.70478 0.13882 -0.10300
H 	H 	0.35571 0.67836 0.23897 0.04700
H 	H 	0.59505 0.81885 0.37302 0.05200
H 	H 	0.57776 0.85403 0.16500 0.05800
H 	H 	0.73452 0.79149 0.34033 0.04600
C 	C 	0.20711 0.83522 0.32829 -0.03900
C 	C 	0.17050 0.77363 0.37314 0.02600
C 	C 	0.11918 0.75649 0.39767 -0.05800
C 	C 	0.09919 0.79746 0.37141 0.03100
C 	C 	0.12826 0.85414 0.31775 -0.08000
C 	C 	0.18544 0.87474 0.30040 0.00700
C 	C 	0.17964 0.72441 0.38685 0.01100
C 	C 	0.23338 0.72325 0.44220 -0.04200
C 	C 	0.25646 0.69160 0.44398 -0.00200
C 	C 	0.22596 0.66128 0.38949 -0.01500
C 	C 	0.16750 0.65664 0.33842 -0.02000
C 	C 	0.14395 0.68772 0.33707 -0.02500
C 	C 	0.31117 0.69014 0.50193 0.09100
C 	C 	0.08501 0.68413 0.28268 0.08700
C 	C 	0.26444 0.85658 0.30732 0.09200
C 	C 	0.04944 0.78134 0.39996 0.08500
N 	N 	0.35492 0.68878 0.54835 -0.10100
N 	N 	0.03782 0.68133 0.23916 -0.11700
N 	N 	0.00964 0.76843 0.42300 -0.10600
N 	N 	0.31035 0.87364 0.29055 -0.11300
H 	H 	0.20880 0.91862 0.26008 0.04100
H 	H 	0.09328 0.71055 0.43512 0.05600
H 	H 	0.25949 0.74970 0.48184 0.05400
H 	H 	0.14239 0.63148 0.29781 0.05000
C 	C 	0.77655 0.11912 0.52646 -0.03800
C 	C 	0.83399 0.18355 0.53161 0.02800
C 	C 	0.89971 0.20636 0.53189 -0.05500
C 	C 	0.90975 0.16267 0.53818 0.02200
C 	C 	0.85572 0.09574 0.55036 -0.08000
C 	C 	0.78758 0.07593 0.53375 0.01700
C 	C 	0.82805 0.22266 0.54950 0.01400
C 	C 	0.84220 0.21914 0.62065 -0.03600
C 	C 	0.82690 0.24719 0.63971 0.00000
C 	C 	0.79731 0.27946 0.58717 -0.01300
C 	C 	0.78579 0.28533 0.51587 -0.01700
C 	C 	0.80128 0.25738 0.49678 -0.02100
C 	C 	0.84004 0.24118 0.71341 0.09800
C 	C 	0.78860 0.26368 0.42314 0.09400
C 	C 	0.70702 0.09590 0.51858 0.10200
C 	C 	0.97511 0.18638 0.53236 0.10400
N 	N 	0.85056 0.23639 0.77243 -0.10100
N 	N 	0.77842 0.26868 0.36414 -0.10100
N 	N 	0.02718 0.20496 0.52716 -0.11600
N 	N 	0.65133 0.07735 0.51228 -0.10400
H 	H 	0.74434 0.02499 0.53649 0.04900
H 	H 	0.94326 0.25705 0.53032 0.06500
H 	H 	0.86305 0.19272 0.66128 0.05900
H 	H 	0.76376 0.31075 0.47532 0.05500
C 	C 	0.85277 0.63128 0.65485 -0.03700
C 	C 	0.90042 0.62695 0.65168 0.02400
C 	C 	0.96427 0.68359 0.63583 -0.04400
C 	C 	0.97772 0.74411 0.61383 0.04500
C 	C 	0.92967 0.74926 0.61579 -0.08000
C 	C 	0.86814 0.69240 0.63806 0.01900
C 	C 	0.87935 0.56457 0.65185 0.01600
C 	C 	0.86324 0.55353 0.58775 -0.04300
C 	C 	0.84716 0.49696 0.58629 -0.00100
C 	C 	0.84458 0.44944 0.64928 -0.01700
C 	C 	0.86581 0.46271 0.71387 -0.01700
C 	C 	0.88320 0.51997 0.71550 -0.02500
C 	C 	0.82979 0.48640 0.51942 0.08900
C 	C 	0.90351 0.53186 0.78252 0.09200
C 	C 	0.78780 0.57335 0.67446 0.10200
C 	C 	0.03834 0.79948 0.58468 0.05700
N 	N 	0.81583 0.47787 0.46589 -0.10500
N 	N 	0.91970 0.54117 0.83634 -0.10600
N 	N 	0.08683 0.84361 0.56118 -0.12500
N 	N 	0.73576 0.52688 0.69024 -0.10600
H 	H 	0.83129 0.69549 0.64030 0.05100
H 	H 	0.00123 0.68009 0.63454 0.04900
H 	H 	0.86323 0.58913 0.53892 0.05900
H 	H 	0.86469 0.42662 0.76258 0.05200
C 	C 	0.39456 0.19408 0.65580 -0.04000
C 	C 	0.41092 0.19459 0.60352 0.02900
C 	C 	0.35780 0.16612 0.54764 -0.05700
C 	C 	0.28818 0.13031 0.54793 0.03200
C 	C 	0.27108 0.12218 0.60535 -0.07700
C 	C 	0.32459 0.15848 0.65593 0.01600
C 	C 	0.48215 0.21898 0.61020 0.01300
C 	C 	0.50682 0.18227 0.66055 -0.04000
C 	C 	0.57150 0.20133 0.66368 -0.00100
C 	C 	0.61157 0.25708 0.61533 -0.01600
C 	C 	0.58537 0.29199 0.56308 -0.01600
C 	C 	0.52180 0.27413 0.56119 -0.02400
C 	C 	0.59709 0.16428 0.71759 0.09400
C 	C 	0.49846 0.31365 0.51002 0.09300
C 	C 	0.44901 0.22832 0.71040 0.09800
C 	C 	0.23459 0.09759 0.49197 0.08100
N 	N 	0.61766 0.13467 0.76079 -0.10000
N 	N 	0.47972 0.34528 0.46904 -0.10400
N 	N 	0.19233 0.07161 0.44679 -0.09800
N 	N 	0.49266 0.25574 0.75417 -0.11000
H 	H 	0.31189 0.15444 0.69879 0.04600
H 	H 	0.37058 0.16878 0.50582 0.06200
H 	H 	0.47557 0.13887 0.69719 0.05700
H 	H 	0.61643 0.33521 0.52615 0.05300
C 	C 	0.77327 0.15617 0.02709 -0.03600
C 	C 	0.83245 0.22133 0.01590 0.02500
C 	C 	0.89515 0.23521 0.02126 -0.05300
C 	C 	0.90043 0.18463 0.04244 0.02300
C 	C 	0.84310 0.11950 0.06082 -0.07500
C 	C 	0.77890 0.10578 0.04942 0.01500
C 	C 	0.83059 0.27460 0.00537 0.02400
C 	C 	0.84773 0.29303 0.06445 -0.04500
C 	C 	0.82758 0.32845 0.05927 0.01000
C 	C 	0.79018 0.34592 0.99430 -0.02300
C 	C 	0.78117 0.33472 0.93358 -0.01100
C 	C 	0.80117 0.29915 0.93878 -0.03300
C 	C 	0.84216 0.34365 0.12161 0.09300
C 	C 	0.78860 0.28566 0.87611 0.09300
C 	C 	0.70716 0.14063 0.01834 0.10100
C 	C 	0.96513 0.20005 0.04645 0.10000
N 	N 	0.85381 0.35584 0.17153 -0.09800
N 	N 	0.77853 0.27483 0.82591 -0.10500
N 	N 	0.01698 0.21243 0.04964 -0.11500
N 	N 	0.65425 0.12827 0.01129 -0.10400
H 	H 	0.73418 0.05583 0.06167 0.05400
H 	H 	0.94026 0.28529 0.01081 0.06300
H 	H 	0.87288 0.27637 0.11529 0.05800
H 	H 	0.75458 0.35008 0.88301 0.05200
C 	C 	0.75419 0.52769 0.08460 -0.02200
C 	C 	0.79818 0.59207 0.04840 0.01900
C 	C 	0.82765 0.60428 0.99965 -0.04300
C 	C 	0.81019 0.55260 0.98392 -0.01000
C 	C 	0.76551 0.48818 0.01977 0.00100
C 	C 	0.74053 0.47674 0.07220 -0.01900
C 	C 	0.81502 0.64715 0.06255 0.02700
C 	C 	0.85074 0.65923 0.13012 -0.05500
C 	C 	0.87008 0.71276 0.14333 0.03000
C 	C 	0.86097 0.75877 0.08721 -0.08400
C 	C 	0.81842 0.74297 0.02184 0.02200
C 	C 	0.79498 0.68715 0.00932 -0.03500
C 	C 	0.89945 0.72035 0.21451 0.08800
C 	C 	0.75111 0.67168 0.94179 0.08700
C 	C 	0.72016 0.51313 0.13218 0.09300
C 	C 	0.83612 0.56600 0.92924 0.09500
N 	N 	0.92258 0.72610 0.27174 -0.09600
N 	N 	0.71597 0.65927 0.88769 -0.10900
N 	N 	0.85676 0.57662 0.88536 -0.10000
N 	N 	0.69291 0.50148 0.17027 -0.10500
H 	H 	0.70676 0.42742 0.10045 0.05800
H 	H 	0.86269 0.65385 0.97273 0.05500
H 	H 	0.86351 0.62702 0.17228 0.06500
H 	H 	0.80826 0.77673 0.97909 0.03600
C 	C 	0.34625 0.18213 0.05703 -0.03100
C 	C 	0.39282 0.16504 0.09551 0.03200
C 	C 	0.38256 0.11929 0.16051 -0.06200
C 	C 	0.32549 0.08913 0.18564 0.03700
C 	C 	0.27337 0.09832 0.14186 -0.08700
C 	C 	0.28540 0.14689 0.07907 0.01700
C 	C 	0.45585 0.19873 0.07171 0.00400
C 	C 	0.52160 0.23079 0.11656 -0.03300
C 	C 	0.58170 0.26352 0.09520 -0.01100
C 	C 	0.57699 0.27023 0.02572 0.01000
C 	C 	0.51148 0.23471 0.98242 -0.04800
C 	C 	0.45080 0.19682 0.00624 0.00600
C 	C 	0.64829 0.29024 0.14480 0.09100
C 	C 	0.38413 0.15517 0.96427 0.07800
C 	C 	0.36138 0.23655 0.99639 0.08600
C 	C 	0.32344 0.05307 0.25815 0.08000
N 	N 	0.70162 0.31159 0.18453 -0.10100
N 	N 	0.33071 0.12181 0.93064 -0.10500
N 	N 	0.32227 0.02464 0.31646 -0.10000
N 	N 	0.37345 0.28014 0.94780 -0.10800
H 	H 	0.24664 0.15606 0.04653 0.04700
H 	H 	0.42013 0.10856 0.19234 0.06200
H 	H 	0.52584 0.23003 0.16822 0.05300
H 	H 	0.50768 0.23770 0.92983 0.06300
