data_crystal

_cell_length_a 20.62557
_cell_length_b 29.47330
_cell_length_c 28.49896
_cell_angle_alpha 90.00988
_cell_angle_beta  89.99985
_cell_angle_gamma 89.98887

_symmetry_space_group_name_	'P 1'
_symmetry_space_group_name_H-M	'P 1'

loop_
_symmetry_equiv_pos_as_xyz
  x,y,z

loop_
_atom_site_label
_atom_site_type_symbol
_atom_site_fract_x
_atom_site_fract_y
_atom_site_fract_z
_atom_site_charge
Cu	Cu	0.06856 0.85775 0.08980 0.93700
Cu	Cu	0.00098 0.85126 0.19432 0.88900
Cu	Cu	0.93026 0.82695 0.10669 0.90900
Cu	Cu	0.98420 0.81108 0.01053 0.91100
C 	C 	0.12771 0.81189 0.01216 0.30300
O 	O 	0.04582 0.90791 0.04396 -0.33600
C 	C 	0.86175 0.85893 0.18902 0.32500
O 	O 	0.00525 0.80341 0.07473 -0.63600
O 	O 	0.99379 0.87252 0.12992 -0.63700
O 	O 	0.13658 0.86057 0.13916 -0.33100
O 	O 	0.07854 0.81679 0.18969 -0.39900
O 	O 	0.07478 0.81912 0.98732 -0.32400
O 	O 	0.87115 0.77997 0.08618 -0.34500
C 	C 	0.86058 0.76948 0.04187 0.33400
C 	C 	0.98676 0.91330 0.02734 0.32600
O 	O 	0.94674 0.87864 0.02544 -0.36400
O 	O 	0.90827 0.76922 0.01091 -0.35200
O 	O 	0.13669 0.83238 0.05274 -0.32900
C 	C 	0.13321 0.83644 0.17781 0.33000
O 	O 	0.85934 0.85169 0.14338 -0.34100
O 	O 	0.91544 0.87324 0.20949 -0.37000
H 	H 	0.01788 0.77231 0.08418 0.19800
H 	H 	0.97821 0.90413 0.12765 0.21000
Cu	Cu	0.41631 0.85803 0.39243 0.93800
Cu	Cu	0.48358 0.85163 0.28781 0.88900
Cu	Cu	0.55468 0.82732 0.37541 0.90800
Cu	Cu	0.50085 0.81143 0.47163 0.91300
C 	C 	0.35735 0.81217 0.47011 0.33000
O 	O 	0.43905 0.90822 0.43825 -0.32900
C 	C 	0.62275 0.85917 0.29280 0.32500
O 	O 	0.47976 0.80374 0.40743 -0.63500
O 	O 	0.49098 0.87283 0.35223 -0.63800
O 	O 	0.34818 0.86081 0.34314 -0.33000
O 	O 	0.40618 0.81705 0.29254 -0.39900
O 	O 	0.41030 0.81943 0.49491 -0.34100
O 	O 	0.61393 0.78041 0.39594 -0.34400
C 	C 	0.62452 0.76995 0.44026 0.33100
C 	C 	0.49813 0.91363 0.45483 0.32000
O 	O 	0.53819 0.87899 0.45670 -0.36000
O 	O 	0.57681 0.76959 0.47118 -0.34900
O 	O 	0.34828 0.83263 0.42953 -0.33100
C 	C 	0.35148 0.83662 0.30451 0.33000
O 	O 	0.62547 0.85188 0.33843 -0.34100
O 	O 	0.56901 0.87369 0.27259 -0.37100
H 	H 	0.46716 0.77263 0.39798 0.19800
H 	H 	0.50650 0.90446 0.35450 0.20900
Cu	Cu	0.07148 0.14801 0.88532 0.93700
Cu	Cu	0.00241 0.15968 0.78219 0.90300
Cu	Cu	0.93705 0.18933 0.87071 0.91000
Cu	Cu	0.99113 0.18686 0.97088 0.91800
C 	C 	0.13458 0.18468 0.96623 0.32200
O 	O 	0.04961 0.09326 0.92527 -0.32500
C 	C 	0.86611 0.15573 0.78747 0.32600
O 	O 	0.01223 0.20198 0.90835 -0.63200
O 	O 	0.99351 0.13968 0.84620 -0.63600
O 	O 	0.13618 0.15151 0.83355 -0.33600
O 	O 	0.07358 0.19940 0.79089 -0.39500
O 	O 	0.08246 0.17553 0.99140 -0.33800
O 	O 	0.88447 0.23577 0.89944 -0.34300
C 	C 	0.87077 0.23658 0.94463 0.32800
C 	C 	0.99134 0.08734 0.94301 0.31400
O 	O 	0.95193 0.12213 0.94747 -0.34700
O 	O 	0.91622 0.22956 0.97653 -0.34000
O 	O 	0.14196 0.16751 0.92381 -0.32200
C 	C 	0.13058 0.18206 0.80024 0.32600
O 	O 	0.87010 0.18638 0.82128 -0.35300
O 	O 	0.91831 0.13544 0.77133 -0.36600
H 	H 	0.02954 0.23304 0.90409 0.19700
H 	H 	0.97275 0.10957 0.84902 0.20300
Cu	Cu	0.41336 0.14822 0.59717 0.93800
Cu	Cu	0.48241 0.15980 0.70032 0.90400
Cu	Cu	0.54777 0.18952 0.61183 0.90900
Cu	Cu	0.49368 0.18715 0.51166 0.91700
C 	C 	0.35022 0.18495 0.51630 0.32600
O 	O 	0.43525 0.09351 0.55716 -0.32600
C 	C 	0.61871 0.15584 0.69504 0.32600
O 	O 	0.47257 0.20221 0.57422 -0.63200
O 	O 	0.49132 0.13986 0.63628 -0.63700
O 	O 	0.34865 0.15167 0.64894 -0.33600
O 	O 	0.41120 0.19952 0.69167 -0.39500
O 	O 	0.40236 0.17582 0.49112 -0.34100
O 	O 	0.60035 0.23597 0.58316 -0.34300
C 	C 	0.61402 0.23682 0.53797 0.32800
C 	C 	0.49352 0.08761 0.53941 0.31700
O 	O 	0.53291 0.12240 0.53498 -0.35000
O 	O 	0.56855 0.22986 0.50607 -0.34300
O 	O 	0.34286 0.16776 0.55871 -0.32300
C 	C 	0.35422 0.18218 0.68231 0.32600
O 	O 	0.61472 0.18651 0.66126 -0.35300
O 	O 	0.56652 0.13554 0.71116 -0.36700
H 	H 	0.45526 0.23327 0.57852 0.19600
H 	H 	0.51210 0.10975 0.63343 0.20300
Cu	Cu	0.91628 0.64748 0.59151 0.93900
Cu	Cu	0.98227 0.64869 0.69769 0.90100
Cu	Cu	0.05106 0.68603 0.61129 0.90900
Cu	Cu	0.00112 0.68804 0.50984 0.91500
C 	C 	0.85716 0.68806 0.51088 0.32600
O 	O 	0.93757 0.59451 0.54905 -0.32500
C 	C 	0.11958 0.64743 0.69354 0.32500
O 	O 	0.97800 0.70126 0.57251 -0.63200
O 	O 	0.99258 0.63580 0.63186 -0.63300
O 	O 	0.84848 0.64747 0.64089 -0.33200
O 	O 	0.90925 0.68748 0.69314 -0.39800
O 	O 	0.91029 0.67922 0.48665 -0.34100
O 	O 	0.10620 0.73274 0.58567 -0.34200
C 	C 	0.12152 0.73511 0.54078 0.32700
C 	C 	0.99684 0.58741 0.53385 0.31700
O 	O 	0.03769 0.62153 0.53070 -0.34900
O 	O 	0.07708 0.72998 0.50776 -0.34400
O 	O 	0.84799 0.67026 0.55282 -0.33000
C 	C 	0.85302 0.67123 0.67972 0.33200
O 	O 	0.11558 0.68051 0.66229 -0.35400
O 	O 	0.06760 0.62499 0.70696 -0.36700
H 	H 	0.96132 0.73238 0.57758 0.19700
H 	H 	0.01358 0.60613 0.62662 0.20000
Cu	Cu	0.56869 0.64703 0.89068 0.93900
Cu	Cu	0.50267 0.64837 0.78453 0.90000
Cu	Cu	0.43399 0.68575 0.87096 0.91000
Cu	Cu	0.48401 0.68771 0.97240 0.91600
C 	C 	0.62797 0.68752 0.97131 0.31800
O 	O 	0.54731 0.59409 0.93313 -0.32200
C 	C 	0.36536 0.64725 0.78870 0.32500
O 	O 	0.50710 0.70089 0.90973 -0.63300
O 	O 	0.49235 0.63545 0.85035 -0.63500
O 	O 	0.63643 0.64695 0.84126 -0.33100
O 	O 	0.57573 0.68710 0.78909 -0.39900
O 	O 	0.57483 0.67874 0.99555 -0.33600
O 	O 	0.37894 0.73252 0.89663 -0.34200
C 	C 	0.36366 0.73489 0.94152 0.32700
C 	C 	0.48804 0.58708 0.94837 0.31000
O 	O 	0.44727 0.62126 0.95153 -0.34500
O 	O 	0.40814 0.72976 0.97451 -0.34200
O 	O 	0.63706 0.66973 0.92934 -0.32500
C 	C 	0.63195 0.67084 0.80251 0.33200
O 	O 	0.36941 0.68031 0.81999 -0.35400
O 	O 	0.41730 0.62476 0.77526 -0.36700
H 	H 	0.52385 0.73199 0.90466 0.19700
H 	H 	0.47131 0.60580 0.85558 0.20200
Cu	Cu	0.91546 0.35769 0.39204 0.93800
Cu	Cu	0.98436 0.34910 0.28847 0.89000
Cu	Cu	0.05278 0.32380 0.37671 0.90800
Cu	Cu	0.99514 0.30920 0.47247 0.91500
C 	C 	0.85188 0.31280 0.46838 0.32900
O 	O 	0.93937 0.40735 0.43802 -0.33000
C 	C 	0.12346 0.35404 0.29399 0.32500
O 	O 	0.97591 0.30200 0.40788 -0.63400
O 	O 	0.99170 0.37067 0.35273 -0.63700
O 	O 	0.84910 0.36171 0.34188 -0.33200
O 	O 	0.90591 0.31572 0.29282 -0.40000
O 	O 	0.90416 0.31879 0.49425 -0.33900
O 	O 	0.10909 0.27571 0.39859 -0.34400
C 	C 	0.11791 0.26566 0.44320 0.33100
C 	C 	0.99834 0.41146 0.45517 0.32300
O 	O 	0.03640 0.37580 0.45813 -0.36100
O 	O 	0.06902 0.26573 0.47311 -0.34500
O 	O 	0.84504 0.33402 0.42802 -0.33100
C 	C 	0.85171 0.33626 0.30416 0.33100
O 	O 	0.12555 0.34554 0.33945 -0.33900
O 	O 	0.07040 0.36986 0.27392 -0.37300
H 	H 	0.96196 0.27124 0.39822 0.19900
H 	H 	0.00851 0.40198 0.35496 0.20800
Cu	Cu	0.56921 0.35753 0.09048 0.93700
Cu	Cu	0.50026 0.34903 0.19403 0.89000
Cu	Cu	0.43191 0.32365 0.10579 0.90800
Cu	Cu	0.48959 0.30899 0.01005 0.91100
C 	C 	0.63285 0.31259 0.01417 0.30300
O 	O 	0.54531 0.40716 0.04447 -0.33400
C 	C 	0.36116 0.35397 0.18847 0.32500
O 	O 	0.50880 0.30184 0.07465 -0.63500
O 	O 	0.49294 0.37054 0.12976 -0.63800
O 	O 	0.63554 0.36159 0.14065 -0.33300
O 	O 	0.57872 0.31565 0.18972 -0.40000
O 	O 	0.58057 0.31856 0.98829 -0.32200
O 	O 	0.37564 0.27554 0.08393 -0.34400
C 	C 	0.36683 0.26547 0.03931 0.33100
C 	C 	0.48636 0.41126 0.02729 0.32400
O 	O 	0.44831 0.37561 0.02435 -0.36300
O 	O 	0.41572 0.26554 0.00940 -0.34800
O 	O 	0.63965 0.33384 0.05453 -0.32800
C 	C 	0.63292 0.33618 0.17839 0.33100
O 	O 	0.35909 0.34541 0.14301 -0.34000
O 	O 	0.41420 0.36982 0.20854 -0.37200
H 	H 	0.52276 0.27108 0.08431 0.19800
H 	H 	0.47610 0.40185 0.12750 0.20900
C 	C 	0.77080 0.37714 0.25468 0.10600
C 	C 	0.79652 0.33586 0.27132 -0.10800
C 	C 	0.76829 0.29442 0.25734 0.10600
C 	C 	0.71634 0.29440 0.22528 0.10600
C 	C 	0.68808 0.33581 0.21125 -0.10900
C 	C 	0.71376 0.37712 0.22787 0.10600
Br	Br	0.66803 0.43334 0.21727 -0.16700
Br	Br	0.81647 0.43338 0.26525 -0.16700
Br	Br	0.68645 0.23796 0.19866 -0.14300
Br	Br	0.79823 0.23801 0.28401 -0.14200
C 	C 	0.21345 0.31299 0.25434 0.10400
C 	C 	0.18446 0.35436 0.26735 -0.09700
C 	C 	0.21359 0.39579 0.25454 0.10900
C 	C 	0.27097 0.39577 0.22784 0.10900
C 	C 	0.30015 0.35433 0.21509 -0.09700
C 	C 	0.27119 0.31297 0.22816 0.10400
Br	Br	0.31114 0.25627 0.21045 -0.17200
Br	Br	0.17353 0.25631 0.27212 -0.17200
Br	Br	0.30843 0.45240 0.20740 -0.12300
Br	Br	0.17609 0.45245 0.27489 -0.12300
C 	C 	0.44682 0.53454 0.01083 0.09300
C 	C 	0.46903 0.54125 0.96442 -0.07500
C 	C 	0.48270 0.50319 0.93595 0.10200
C 	C 	0.48398 0.45953 0.95581 0.13000
C 	C 	0.46807 0.45356 0.00335 -0.11600
C 	C 	0.44375 0.49033 0.02940 0.11500
Br	Br	0.40418 0.47989 0.08961 -0.16200
Br	Br	0.42594 0.58569 0.05035 -0.16100
Br	Br	0.50998 0.40806 0.91843 -0.15200
Br	Br	0.49941 0.51070 0.86986 -0.17100
C 	C 	0.03812 0.53470 0.47153 0.11100
C 	C 	0.01578 0.54153 0.51789 -0.09500
C 	C 	0.00193 0.50352 0.54639 0.10900
C 	C 	0.00061 0.45984 0.52659 0.11100
C 	C 	0.01664 0.45377 0.47908 -0.09700
C 	C 	0.04113 0.49047 0.45302 0.10700
Br	Br	0.08082 0.47987 0.39288 -0.15900
Br	Br	0.05928 0.58576 0.43198 -0.15500
Br	Br	0.97441 0.40845 0.56399 -0.15400
Br	Br	0.98501 0.51116 0.61244 -0.17100
C 	C 	0.23964 0.63632 0.69193 0.10700
C 	C 	0.18188 0.63978 0.71810 -0.09600
C 	C 	0.18492 0.64023 0.76767 0.10900
C 	C 	0.24527 0.63629 0.79030 0.10700
C 	C 	0.30304 0.63969 0.76414 -0.09600
C 	C 	0.30000 0.64017 0.71457 0.10900
Br	Br	0.37680 0.65116 0.67756 -0.17400
Br	Br	0.23617 0.62450 0.62540 -0.15200
Br	Br	0.24872 0.62443 0.85682 -0.14900
Br	Br	0.10814 0.65131 0.80469 -0.17100
C 	C 	0.76956 0.71308 0.72624 0.10700
C 	C 	0.79804 0.67167 0.71252 -0.10900
C 	C 	0.77162 0.63034 0.72827 0.10700
C 	C 	0.71368 0.63024 0.75396 0.10700
C 	C 	0.68704 0.67148 0.76982 -0.10900
C 	C 	0.71535 0.71298 0.75627 0.10700
Br	Br	0.68133 0.76945 0.78006 -0.14900
Br	Br	0.80337 0.76969 0.70268 -0.15000
Br	Br	0.66832 0.57385 0.76446 -0.16500
Br	Br	0.81726 0.57407 0.71757 -0.16500
C 	C 	0.23332 0.27184 0.46788 0.10600
C 	C 	0.17935 0.24442 0.45743 -0.09300
C 	C 	0.18364 0.19695 0.46218 0.11100
C 	C 	0.24079 0.17714 0.47977 0.11300
C 	C 	0.29345 0.20487 0.49282 -0.09300
C 	C 	0.29029 0.25209 0.48575 0.10700
Br	Br	0.36354 0.28976 0.50170 -0.18300
Br	Br	0.22858 0.33659 0.45840 -0.15300
Br	Br	0.24754 0.11207 0.48523 -0.12200
Br	Br	0.11156 0.15914 0.44396 -0.13000
C 	C 	0.78106 0.24622 0.48417 0.10600
C 	C 	0.79407 0.29271 0.49019 -0.09500
C 	C 	0.74926 0.32058 0.51387 0.11000
C 	C 	0.68998 0.30238 0.52950 0.11000
C 	C 	0.67648 0.25594 0.52276 -0.09400
C 	C 	0.72232 0.22781 0.50049 0.10600
Br	Br	0.70426 0.16407 0.49208 -0.14200
Br	Br	0.84354 0.20795 0.45298 -0.16400
Br	Br	0.62597 0.34147 0.55788 -0.13500
Br	Br	0.76925 0.38366 0.52479 -0.12000
C 	C 	0.30119 0.19673 0.02031 0.11500
C 	C 	0.30541 0.24420 0.02509 -0.09400
C 	C 	0.25139 0.27160 0.01469 0.09400
C 	C 	0.19443 0.25183 0.99684 0.11600
C 	C 	0.19134 0.20461 0.98973 -0.07800
C 	C 	0.24404 0.17690 0.00273 0.09000
Br	Br	0.23739 0.11183 0.99722 -0.10600
Br	Br	0.37333 0.15894 0.03847 -0.13800
Br	Br	0.12111 0.28948 0.98097 -0.17700
Br	Br	0.25604 0.33635 0.02422 -0.15900
C 	C 	0.73552 0.32036 0.96875 0.10600
C 	C 	0.69069 0.29250 0.99238 -0.08000
C 	C 	0.70370 0.24600 0.99837 0.11200
C 	C 	0.76245 0.22758 0.98207 0.10600
C 	C 	0.80831 0.25572 0.95984 -0.09300
C 	C 	0.79482 0.30216 0.95314 0.11100
Br	Br	0.85887 0.34126 0.92485 -0.13200
Br	Br	0.71552 0.38345 0.95785 -0.11300
Br	Br	0.78051 0.16384 0.99042 -0.13300
Br	Br	0.64118 0.20773 0.02950 -0.17700
C 	C 	0.24863 0.19750 0.79014 0.11100
C 	C 	0.18675 0.19252 0.76991 -0.10400
C 	C 	0.18058 0.19269 0.72043 0.10800
C 	C 	0.23616 0.19757 0.69243 0.11100
C 	C 	0.29804 0.19259 0.71265 -0.10400
C 	C 	0.30421 0.19270 0.76214 0.10800
Br	Br	0.38650 0.18087 0.79204 -0.20200
Br	Br	0.25720 0.21378 0.85540 -0.14300
Br	Br	0.22756 0.21393 0.62720 -0.14600
Br	Br	0.09831 0.18086 0.69050 -0.20400
C 	C 	0.73862 0.14501 0.69216 0.10800
C 	C 	0.68145 0.14878 0.71893 -0.09700
C 	C 	0.68557 0.14969 0.76847 0.10900
C 	C 	0.74620 0.14495 0.79032 0.10800
C 	C 	0.80338 0.14872 0.76356 -0.09700
C 	C 	0.79926 0.14968 0.71402 0.10900
Br	Br	0.87437 0.16330 0.67610 -0.15900
Br	Br	0.73409 0.13113 0.62608 -0.14900
Br	Br	0.75072 0.13099 0.85638 -0.14800
Br	Br	0.61047 0.16332 0.80641 -0.15800
C 	C 	0.79750 0.75590 0.48157 0.10500
C 	C 	0.80133 0.70845 0.48656 -0.09600
C 	C 	0.74942 0.68091 0.47164 0.11000
C 	C 	0.69191 0.70102 0.45502 0.10900
C 	C 	0.68659 0.74862 0.45298 -0.09500
C 	C 	0.74015 0.77598 0.46469 0.10400
Br	Br	0.73431 0.84103 0.45836 -0.15300
Br	Br	0.87034 0.79334 0.49898 -0.18000
Br	Br	0.62056 0.66351 0.43479 -0.13500
Br	Br	0.75763 0.61573 0.47339 -0.12500
C 	C 	0.28824 0.74501 0.48691 0.10600
C 	C 	0.30111 0.79145 0.49333 -0.09600
C 	C 	0.25743 0.81872 0.51878 0.11000
C 	C 	0.19889 0.80012 0.53532 0.10900
C 	C 	0.18493 0.75392 0.52743 -0.09400
C 	C 	0.23016 0.72622 0.50394 0.10500
Br	Br	0.21180 0.66268 0.49440 -0.14200
Br	Br	0.34990 0.70736 0.45409 -0.16500
Br	Br	0.13637 0.83843 0.56645 -0.13600
Br	Br	0.27767 0.88162 0.53050 -0.12400
C 	C 	0.53285 0.99456 0.45252 0.10700
C 	C 	0.51491 0.95623 0.47887 -0.09500
C 	C 	0.50392 0.96051 0.52740 0.11200
C 	C 	0.50461 0.00369 0.54844 0.11000
C 	C 	0.51189 0.04279 0.52040 -0.09500
C 	C 	0.52828 0.03809 0.47251 0.11200
Br	Br	0.53897 0.09093 0.43323 -0.16400
Br	Br	0.56624 0.98726 0.38989 -0.15900
Br	Br	0.49672 0.00925 0.61559 -0.17200
Br	Br	0.48531 0.90742 0.56460 -0.16000
C 	C 	0.74464 0.77533 0.01815 0.11300
C 	C 	0.79857 0.74805 0.02917 -0.10300
C 	C 	0.79364 0.70046 0.02653 0.11700
C 	C 	0.73613 0.68032 0.00995 0.08900
C 	C 	0.68386 0.70784 0.99563 -0.06100
C 	C 	0.68733 0.75524 0.00123 0.07500
Br	Br	0.61407 0.79261 0.98457 -0.16400
Br	Br	0.74988 0.84030 0.02555 -0.16100
Br	Br	0.72837 0.61514 0.00755 -0.13200
Br	Br	0.86546 0.66298 0.04597 -0.13900
C 	C 	0.25503 0.72599 0.97836 0.10500
C 	C 	0.30026 0.75370 0.95491 -0.09400
C 	C 	0.28628 0.79991 0.94706 0.11100
C 	C 	0.22770 0.81849 0.96358 0.10600
C 	C 	0.18401 0.79121 0.98898 -0.08100
C 	C 	0.19692 0.74476 0.99537 0.11200
Br	Br	0.13526 0.70709 0.02812 -0.17900
Br	Br	0.27344 0.66245 0.98787 -0.13400
Br	Br	0.20742 0.88140 0.95190 -0.11800
Br	Br	0.34880 0.83824 0.91599 -0.13400
C 	C 	0.98107 0.96023 0.95483 0.13000
C 	C 	0.96993 0.95590 0.00333 -0.11500
C 	C 	0.95183 0.99419 0.02970 0.11500
C 	C 	0.95643 0.03774 0.00979 0.09500
C 	C 	0.97298 0.04250 0.96193 -0.07700
C 	C 	0.98038 0.00343 0.93385 0.10200
Br	Br	0.98845 0.00905 0.86671 -0.16900
Br	Br	0.99988 0.90718 0.91758 -0.15600
Br	Br	0.94561 0.09054 0.04913 -0.17000
Br	Br	0.91814 0.98681 0.09223 -0.16200
C 	C 	0.21650 0.79478 0.22507 0.10500
C 	C 	0.18851 0.83617 0.21068 -0.10800
C 	C 	0.21407 0.87752 0.22733 0.10500
C 	C 	0.27035 0.87757 0.25508 0.10500
C 	C 	0.29608 0.83627 0.27173 -0.10800
C 	C 	0.26821 0.79483 0.25738 0.10500
Br	Br	0.29850 0.73840 0.28377 -0.14200
Br	Br	0.18638 0.73828 0.19872 -0.14300
Br	Br	0.31486 0.93397 0.26726 -0.16900
Br	Br	0.16936 0.93384 0.21513 -0.17000
C 	C 	0.77168 0.90088 0.22834 0.10900
C 	C 	0.80082 0.85940 0.21568 -0.09700
C 	C 	0.77100 0.81808 0.22779 0.10400
C 	C 	0.71238 0.81814 0.25287 0.10400
C 	C 	0.68348 0.85952 0.26591 -0.09700
C 	C 	0.71338 0.90093 0.25401 0.10900
Br	Br	0.67551 0.95755 0.27409 -0.12200
Br	Br	0.81049 0.95748 0.20920 -0.12200
Br	Br	0.67119 0.76150 0.26923 -0.17400
Br	Br	0.81096 0.76134 0.21019 -0.17300
