data_crystal

_cell_length_a 45.36761
_cell_length_b 46.00210
_cell_length_c 30.59473
_cell_angle_alpha 89.96424
_cell_angle_beta  89.95352
_cell_angle_gamma 90.49357

_symmetry_space_group_name_	'P 1'
_symmetry_space_group_name_H-M	'P 1'

loop_
_symmetry_equiv_pos_as_xyz
  x,y,z

loop_
_atom_site_label
_atom_site_type_symbol
_atom_site_fract_x
_atom_site_fract_y
_atom_site_fract_z
_atom_site_charge
Zn	Zn	0.47346 0.49242 0.02624 1.22000
C 	C 	0.48958 0.55311 0.03471 0.32200
O 	O 	0.50193 0.47144 0.06237 -0.47300
O 	O 	0.47399 0.55307 0.07099 -0.45000
O 	O 	0.51602 0.50921 0.10510 -0.49100
C 	C 	0.42053 0.50838 0.06957 0.32600
O 	O 	0.43492 0.50990 0.03242 -0.45400
O 	O 	0.43494 0.50404 0.10620 -0.50400
C 	C 	0.52256 0.48529 0.08412 0.31700
O 	O 	0.44830 0.44823 0.01367 -0.33100
Zn	Zn	0.47491 0.51912 0.11493 1.17100
O 	O 	0.49603 0.52845 0.01520 -0.43900
C 	C 	0.46092 0.44864 0.97558 0.28700
O 	O 	0.47725 0.47133 0.96790 -0.37700
Zn	Zn	0.45168 0.09738 0.98417 1.22500
C 	C 	0.45872 0.09406 0.07722 0.30700
O 	O 	0.41588 0.07603 0.00238 -0.44600
O 	O 	0.43254 0.10543 0.08274 -0.44200
O 	O 	0.38889 0.11721 0.01045 -0.50600
C 	C 	0.46586 0.15852 0.98994 0.31800
O 	O 	0.46159 0.13645 0.96337 -0.45700
O 	O 	0.45643 0.15698 0.03043 -0.49600
C 	C 	0.39024 0.08900 0.00450 0.31300
O 	O 	0.44153 0.08516 0.91027 -0.31300
Zn	Zn	0.41860 0.13886 0.04297 1.17200
O 	O 	0.47283 0.09794 0.04017 -0.43700
C 	C 	0.46357 0.06756 0.91445 0.26900
O 	O 	0.47630 0.06759 0.95222 -0.37200
C 	C 	0.53343 0.97032 0.72328 0.14700
C 	C 	0.55002 0.94970 0.74621 -0.09900
H 	H 	0.56298 0.93394 0.72841 0.07300
C 	C 	0.55013 0.94976 0.79205 0.04800
C 	C 	0.53347 0.97033 0.81483 -0.08200
C 	C 	0.51747 0.99138 0.79203 0.08600
C 	C 	0.51718 0.99115 0.74624 -0.10800
H 	H 	0.50487 0.00742 0.72847 0.08000
N 	N 	0.53378 0.97069 0.67631 -0.18100
C 	C 	0.51235 0.95587 0.65366 0.19900
C 	C 	0.51121 0.95756 0.60772 -0.07900
C 	C 	0.53197 0.97489 0.58541 0.06200
C 	C 	0.55485 0.98843 0.60892 -0.07800
C 	C 	0.55524 0.98630 0.65484 0.19800
C 	C 	0.49030 0.94146 0.58388 0.01200
C 	C 	0.48932 0.94348 0.53839 -0.05600
C 	C 	0.50769 0.96352 0.51590 0.01700
C 	C 	0.53029 0.97806 0.53941 -0.02700
C 	C 	0.55198 0.99474 0.51712 0.01700
C 	C 	0.57746 0.00302 0.58628 0.01200
C 	C 	0.57670 0.00510 0.54080 -0.05500
C 	C 	0.50494 0.96820 0.47010 0.01700
C 	C 	0.52668 0.98479 0.44780 -0.02700
C 	C 	0.54924 0.99939 0.47131 0.01700
O 	O 	0.57606 0.99971 0.67734 -0.19000
O 	O 	0.49252 0.94027 0.67502 -0.19800
H 	H 	0.59624 0.01196 0.60370 0.04800
H 	H 	0.59605 0.01337 0.52421 0.04900
H 	H 	0.47535 0.92659 0.60036 0.04600
H 	H 	0.47538 0.92833 0.52088 0.04800
C 	C 	0.56764 0.01938 0.44877 -0.05600
C 	C 	0.56684 0.02117 0.40326 0.01200
C 	C 	0.54604 0.00492 0.37943 -0.07800
C 	C 	0.52514 0.98779 0.40176 0.06200
C 	C 	0.48020 0.95788 0.44639 -0.05600
C 	C 	0.47953 0.95984 0.40088 0.01200
C 	C 	0.50228 0.97423 0.37824 -0.07800
C 	C 	0.54521 0.00620 0.33346 0.19900
N 	N 	0.52390 0.99122 0.31080 -0.18100
C 	C 	0.50211 0.97606 0.33228 0.19800
C 	C 	0.52487 0.99076 0.26385 0.14600
C 	C 	0.51041 0.01226 0.23969 -0.10400
C 	C 	0.51163 0.01196 0.19388 0.08500
C 	C 	0.52764 0.99030 0.17233 -0.08500
C 	C 	0.54243 0.96897 0.19645 0.04500
C 	C 	0.54081 0.96912 0.24222 -0.09900
O 	O 	0.56528 0.02147 0.31206 -0.19800
O 	O 	0.48120 0.96279 0.30977 -0.18900
H 	H 	0.49838 0.02916 0.25651 0.08300
H 	H 	0.55217 0.95269 0.26102 0.07300
H 	H 	0.58146 0.03466 0.46625 0.04900
H 	H 	0.58184 0.03596 0.38673 0.04700
H 	H 	0.46080 0.94973 0.46297 0.04800
H 	H 	0.46076 0.95091 0.38344 0.04800
H 	H 	0.52901 0.99036 0.13693 0.06600
H 	H 	0.53381 0.97062 0.85029 0.07200
Zn	Zn	0.63416 0.88681 0.00276 1.22000
C 	C 	0.61562 0.89564 0.09228 0.35300
O 	O 	0.67576 0.89943 0.99806 -0.44600
O 	O 	0.62723 0.87057 0.10290 -0.43900
O 	O 	0.68411 0.89585 0.07110 -0.47300
C 	C 	0.62535 0.82644 0.02238 0.32500
O 	O 	0.61189 0.85102 0.01413 -0.44600
O 	O 	0.65237 0.82675 0.03762 -0.50700
C 	C 	0.69135 0.90647 0.03275 0.30400
O 	O 	0.63395 0.87332 0.92779 -0.31300
Zn	Zn	0.66661 0.85743 0.07592 1.17500
O 	O 	0.62293 0.90845 0.05543 -0.43200
C 	C 	0.61845 0.89666 0.92255 0.30900
O 	O 	0.61302 0.91122 0.95769 -0.37000
Zn	Zn	0.07034 0.61426 0.99656 1.22500
C 	C 	0.05902 0.61543 0.08943 0.34900
O 	O 	0.06058 0.65227 0.97082 -0.45800
O 	O 	0.08331 0.63030 0.09702 -0.43600
O 	O 	0.06136 0.67592 0.03594 -0.49600
C 	C 	0.12970 0.60876 0.02740 0.32900
O 	O 	0.10472 0.59483 0.02078 -0.44300
O 	O 	0.13054 0.63728 0.02719 -0.50800
C 	C 	0.05275 0.67445 0.99509 0.31700
O 	O 	0.08574 0.59735 0.92693 -0.31400
Zn	Zn	0.09926 0.66030 0.05280 1.17200
O 	O 	0.04681 0.61599 0.05051 -0.44400
C 	C 	0.06125 0.58256 0.92764 0.26900
O 	O 	0.04508 0.58593 0.96204 -0.37300
C 	C 	0.98371 0.51306 0.27142 0.13500
C 	C 	0.96709 0.49311 0.24680 -0.09300
H 	H 	0.95558 0.47542 0.26310 0.07000
C 	C 	0.96540 0.49605 0.20123 0.03200
C 	C 	0.98030 0.51907 0.18047 -0.06900
C 	C 	0.99741 0.53865 0.20489 0.03300
C 	C 	0.99905 0.53569 0.25040 -0.09300
H 	H 	0.01214 0.55088 0.26946 0.07000
N 	N 	0.98468 0.51055 0.31820 -0.18000
C 	C 	0.00730 0.49567 0.33749 0.19800
C 	C 	0.00865 0.49307 0.38331 -0.07900
C 	C 	0.98658 0.50581 0.40901 0.06200
C 	C 	0.96352 0.52090 0.38874 -0.08000
C 	C 	0.96296 0.52309 0.34285 0.19800
C 	C 	0.03193 0.47832 0.40369 0.01200
C 	C 	0.03262 0.47535 0.44913 -0.05600
C 	C 	0.00944 0.48627 0.47507 0.01700
C 	C 	0.98756 0.50346 0.45503 -0.02800
C 	C 	0.96667 0.51833 0.48083 0.01700
C 	C 	0.94120 0.53324 0.41447 0.01200
C 	C 	0.94246 0.53157 0.46002 -0.05700
C 	C 	0.00830 0.48153 0.52092 0.01700
C 	C 	0.98954 0.49885 0.54686 -0.02700
C 	C 	0.96983 0.51849 0.52698 0.01700
O 	O 	0.94155 0.53739 0.32347 -0.20200
O 	O 	0.02778 0.48366 0.31299 -0.19700
H 	H 	0.92258 0.54383 0.39929 0.04500
H 	H 	0.92392 0.53936 0.47875 0.04900
H 	H 	0.04979 0.46946 0.38448 0.04700
H 	H 	0.05187 0.46582 0.46400 0.04900
C 	C 	0.95477 0.53862 0.55350 -0.05500
C 	C 	0.95630 0.53668 0.59900 0.01200
C 	C 	0.97366 0.51526 0.61896 -0.07700
C 	C 	0.99048 0.49651 0.59289 0.06200
C 	C 	0.02440 0.45908 0.54114 -0.05600
C 	C 	0.02471 0.45639 0.58663 0.01100
C 	C 	0.00820 0.47539 0.61280 -0.07800
C 	C 	0.97475 0.51250 0.66474 0.19800
N 	N 	0.99211 0.49174 0.68370 -0.18000
C 	C 	0.00877 0.47335 0.65873 0.19800
C 	C 	0.99272 0.48916 0.73049 0.14600
C 	C 	0.01140 0.50726 0.75510 -0.10600
C 	C 	0.00989 0.50690 0.80084 0.08400
C 	C 	0.99064 0.48747 0.82194 -0.08200
C 	C 	0.97147 0.46981 0.79749 0.04600
C 	C 	0.97276 0.47044 0.75172 -0.09800
O 	O 	0.95888 0.52983 0.68954 -0.18600
O 	O 	0.02543 0.45374 0.67782 -0.19900
H 	H 	0.02600 0.52249 0.73862 0.08000
H 	H 	0.95760 0.45727 0.73265 0.07400
H 	H 	0.94301 0.55662 0.53919 0.04900
H 	H 	0.94424 0.55215 0.61865 0.04900
H 	H 	0.03553 0.44283 0.52185 0.04900
H 	H 	0.03751 0.43921 0.60138 0.04700
H 	H 	0.98912 0.48757 0.85733 0.06800
H 	H 	0.97886 0.52156 0.14527 0.05400
Zn	Zn	0.88043 0.40043 0.00152 1.22200
C 	C 	0.82251 0.42609 0.00402 0.30600
O 	O 	0.87755 0.41460 0.94085 -0.43900
O 	O 	0.83441 0.44845 0.98372 -0.42600
O 	O 	0.89684 0.45970 0.95366 -0.48400
C 	C 	0.89403 0.43512 0.07785 0.33800
O 	O 	0.90039 0.41155 0.05569 -0.43600
O 	O 	0.87279 0.45208 0.06458 -0.49900
C 	C 	0.89242 0.43755 0.92742 0.35800
O 	O 	0.92468 0.37678 0.98265 -0.30600
Zn	Zn	0.87334 0.46664 0.00541 1.17600
O 	O 	0.83939 0.40580 0.02070 -0.42900
C 	C 	0.90901 0.35307 0.98427 0.27600
O 	O 	0.88153 0.35638 0.99445 -0.37200
Zn	Zn	0.03236 0.01489 0.00145 1.21900
C 	C 	0.03786 0.95510 0.97465 0.32600
O 	O 	0.00131 0.01241 0.04611 -0.47100
O 	O 	0.05721 0.95312 0.00651 -0.45700
O 	O 	0.00696 0.96515 0.06500 -0.49500
C 	C 	0.09169 0.00959 0.03135 0.31900
O 	O 	0.07504 0.01230 0.99657 -0.44100
O 	O 	0.08012 0.00007 0.06806 -0.50400
C 	C 	0.98969 0.98720 0.05693 0.31800
O 	O 	0.03971 0.06442 0.01826 -0.33200
Zn	Zn	0.04942 0.97020 0.06776 1.17100
O 	O 	0.02267 0.97910 0.96925 -0.43100
C 	C 	0.02575 0.06943 0.98208 0.28600
O 	O 	0.01700 0.04658 0.96081 -0.37800
C 	C 	0.92205 0.32411 0.97732 -0.06200
C 	C 	0.95281 0.32092 0.97646 0.00600
C 	C 	0.96519 0.29342 0.97127 -0.03900
C 	C 	0.94696 0.26878 0.96676 0.00800
C 	C 	0.90381 0.29952 0.97199 0.00700
C 	C 	0.96006 0.23961 0.96400 0.10600
N 	N 	0.98372 0.23283 0.98901 -0.07900
N 	N 	0.99512 0.20626 0.98748 -0.08000
C 	C 	0.98330 0.18570 0.96074 0.10500
N 	N 	0.95976 0.19257 0.93541 -0.08000
N 	N 	0.94828 0.21913 0.93708 -0.08000
C 	C 	0.99521 0.15585 0.96061 0.01000
C 	C 	0.03497 0.12270 0.97786 0.01100
C 	C 	0.01617 0.09887 0.97030 -0.07000
C 	C 	0.98729 0.10360 0.95566 0.01100
C 	C 	0.97680 0.13195 0.95101 -0.04300
C 	C 	0.91621 0.27201 0.96669 -0.04000
C 	C 	0.02464 0.15102 0.97277 -0.04300
H 	H 	0.96718 0.33968 0.98031 0.05500
H 	H 	0.98895 0.29126 0.97088 0.05700
H 	H 	0.90191 0.25316 0.96338 0.05700
H 	H 	0.88005 0.30166 0.97213 0.05200
H 	H 	0.03937 0.16919 0.97908 0.05600
H 	H 	0.05745 0.11928 0.98850 0.04300
H 	H 	0.95410 0.13526 0.94139 0.05700
H 	H 	0.97259 0.08535 0.94964 0.04600
C 	C 	0.94735 0.45416 0.81984 0.04400
C 	C 	0.95382 0.43092 0.84780 -0.07500
C 	C 	0.93356 0.42241 0.87989 0.04700
C 	C 	0.90694 0.43739 0.88460 -0.13600
C 	C 	0.89881 0.45787 0.85271 0.16700
C 	C 	0.91906 0.46620 0.82042 -0.10700
H 	H 	0.93969 0.40601 0.90354 0.03700
H 	H 	0.91357 0.48350 0.79785 0.09000
H 	H 	0.97537 0.42096 0.84684 0.05900
Br	Br	0.86093 0.47605 0.85469 -0.24400
C 	C 	0.94819 0.47501 0.17495 0.04400
C 	C 	0.91782 0.47164 0.18199 -0.08300
C 	C 	0.90051 0.45634 0.15185 0.04600
C 	C 	0.91330 0.44474 0.11392 -0.14700
C 	C 	0.94421 0.44665 0.10821 0.15700
C 	C 	0.96147 0.46109 0.13935 -0.11200
H 	H 	0.87690 0.45477 0.15686 0.02900
H 	H 	0.98507 0.46303 0.13443 0.08200
H 	H 	0.90740 0.48199 0.20972 0.05700
Br	Br	0.96310 0.43263 0.05611 -0.26100
C 	C 	0.03753 0.69939 0.97516 -0.07700
C 	C 	0.04174 0.70601 0.93075 0.00400
C 	C 	0.03178 0.73241 0.91379 -0.04000
C 	C 	0.01759 0.75247 0.94111 -0.00200
C 	C 	0.02113 0.71831 0.00147 -0.01600
C 	C 	0.01296 0.78265 0.92613 0.10600
N 	N 	0.03261 0.79534 0.89840 -0.08300
N 	N 	0.03284 0.82406 0.89281 -0.08200
C 	C 	0.01355 0.84099 0.91501 0.10100
N 	N 	0.99243 0.82807 0.94001 -0.08200
N 	N 	0.99209 0.79933 0.94540 -0.08200
C 	C 	0.01907 0.87260 0.91894 0.01000
C 	C 	0.05412 0.91161 0.93353 0.01700
C 	C 	0.03112 0.92932 0.94808 -0.09100
C 	C 	0.00184 0.91966 0.94380 0.01600
C 	C 	0.99582 0.89140 0.92927 -0.04900
C 	C 	0.01122 0.74470 0.98458 -0.02200
C 	C 	0.04815 0.88342 0.91887 -0.05000
H 	H 	0.05385 0.69135 0.90981 0.04400
H 	H 	0.03606 0.73770 0.87985 0.05300
H 	H 	0.99986 0.75969 0.00592 0.03900
H 	H 	0.01693 0.71305 0.03544 0.04200
H 	H 	0.06631 0.86944 0.91010 0.05500
H 	H 	0.07677 0.91912 0.93577 0.03800
H 	H 	0.97321 0.88368 0.92810 0.05500
H 	H 	0.98386 0.93333 0.95436 0.04000
C 	C 	0.05043 0.56649 0.88937 -0.03900
C 	C 	0.06665 0.54323 0.87251 -0.01200
C 	C 	0.05401 0.52470 0.84135 -0.02100
C 	C 	0.02520 0.52951 0.82652 -0.04200
C 	C 	0.00980 0.55417 0.84100 0.10700
C 	C 	0.02237 0.57240 0.87258 -0.04600
H 	H 	0.06613 0.50594 0.83007 0.04400
H 	H 	0.01003 0.59075 0.88484 0.07300
H 	H 	0.08847 0.53870 0.88502 0.04700
Br	Br	0.97122 0.56274 0.81893 -0.22400
C 	C 	0.01452 0.56149 0.18234 0.04500
C 	C 	0.99994 0.58495 0.16301 -0.08200
C 	C 	0.01504 0.60351 0.13443 0.04700
C 	C 	0.04486 0.59879 0.12484 -0.13900
C 	C 	0.05995 0.57608 0.14604 0.16200
C 	C 	0.04473 0.55769 0.17491 -0.11100
H 	H 	0.00330 0.62103 0.11861 0.02800
H 	H 	0.05607 0.53960 0.18992 0.08400
H 	H 	0.97662 0.58811 0.16881 0.05500
Br	Br	0.10063 0.56833 0.13344 -0.24200
C 	C 	0.71855 0.92405 0.02817 -0.09300
C 	C 	0.72989 0.93920 0.06437 0.01100
C 	C 	0.75803 0.95173 0.06258 -0.04500
C 	C 	0.77512 0.94940 0.02444 -0.00000
C 	C 	0.73478 0.92344 0.98908 0.01800
C 	C 	0.80648 0.95842 0.02475 0.10300
N 	N 	0.81599 0.97972 0.05222 -0.08200
N 	N 	0.84471 0.98540 0.05644 -0.08200
C 	C 	0.86476 0.96998 0.03325 0.10100
N 	N 	0.85521 0.94931 0.00481 -0.08300
N 	N 	0.82652 0.94357 0.00069 -0.08500
C 	C 	0.89663 0.97435 0.04086 0.01000
C 	C 	0.93824 0.00628 0.05664 0.01500
C 	C 	0.95751 0.98260 0.05384 -0.09500
C 	C 	0.94607 0.95471 0.04520 0.01500
C 	C 	0.91585 0.95062 0.03879 -0.05200
C 	C 	0.76290 0.93609 0.98720 -0.03800
C 	C 	0.90796 0.00218 0.05018 -0.05000
H 	H 	0.71726 0.94052 0.09438 0.05300
H 	H 	0.76696 0.96223 0.09141 0.05600
H 	H 	0.77548 0.93485 0.95716 0.05500
H 	H 	0.72614 0.91222 0.96067 0.04200
H 	H 	0.89339 0.02068 0.05180 0.05500
H 	H 	0.94671 0.02790 0.06346 0.04000
H 	H 	0.90737 0.92897 0.03223 0.05200
H 	H 	0.96065 0.93627 0.04254 0.03400
C 	C 	0.56910 0.92964 0.81649 0.04100
C 	C 	0.59957 0.93483 0.81846 -0.07000
C 	C 	0.61651 0.92150 0.85083 0.04100
C 	C 	0.60309 0.90297 0.88149 -0.11600
C 	C 	0.57310 0.89547 0.87669 0.16000
C 	C 	0.55625 0.90876 0.84413 -0.10500
H 	H 	0.63967 0.92709 0.85387 0.03400
H 	H 	0.53283 0.90414 0.84200 0.08200
H 	H 	0.60977 0.95063 0.79682 0.06400
Br	Br	0.55441 0.86851 0.91601 -0.23700
C 	C 	0.56094 0.94749 0.17378 0.04400
C 	C 	0.54829 0.92819 0.14354 -0.07700
C 	C 	0.56621 0.91005 0.11855 0.04900
C 	C 	0.59692 0.91098 0.12365 -0.13700
C 	C 	0.60958 0.92945 0.15531 0.16600
C 	C 	0.59156 0.94759 0.18027 -0.11000
H 	H 	0.55630 0.89591 0.09426 0.03100
H 	H 	0.60142 0.96236 0.20378 0.08300
H 	H 	0.52464 0.92777 0.13864 0.06200
Br	Br	0.65150 0.93102 0.16369 -0.25700
C 	C 	0.36287 0.07220 0.99878 -0.07600
C 	C 	0.35660 0.04851 0.02623 0.00800
C 	C 	0.32834 0.03604 0.02653 -0.06000
C 	C 	0.30625 0.04705 0.99909 0.03000
C 	C 	0.34131 0.08211 0.96965 0.01600
C 	C 	0.27550 0.03684 0.00363 0.08500
N 	N 	0.26384 0.03211 0.04394 -0.08100
N 	N 	0.23509 0.02677 0.04861 -0.08300
C 	C 	0.21714 0.02610 0.01311 0.09600
N 	N 	0.22893 0.03003 0.97271 -0.07700
N 	N 	0.25767 0.03537 0.96804 -0.07500
C 	C 	0.18500 0.02241 0.01853 0.00400
C 	C 	0.14324 0.00040 0.05616 0.01700
C 	C 	0.12374 0.01500 0.02823 -0.10100
C 	C 	0.13505 0.03371 0.99591 0.02700
C 	C 	0.16550 0.03738 0.99106 -0.04300
C 	C 	0.31318 0.06955 0.96969 -0.05400
C 	C 	0.17369 0.00408 0.05132 -0.05200
H 	H 	0.37317 0.04060 0.04867 0.04200
H 	H 	0.32344 0.01832 0.04880 0.05800
H 	H 	0.29643 0.07815 0.94816 0.05700
H 	H 	0.34607 0.10019 0.94798 0.03600
H 	H 	0.18848 0.99232 0.07262 0.05100
H 	H 	0.13485 0.98574 0.08104 0.02200
H 	H 	0.17391 0.05199 0.96614 0.05500
H 	H 	0.12028 0.04541 0.97451 0.04200
C 	C 	0.47602 0.05187 0.87712 -0.03800
C 	C 	0.45896 0.03113 0.85479 -0.01200
C 	C 	0.47223 0.01250 0.82464 -0.02000
C 	C 	0.50259 0.01469 0.81632 -0.04200
C 	C 	0.51921 0.03709 0.83609 0.10800
C 	C 	0.50594 0.05537 0.86672 -0.04600
H 	H 	0.45919 0.99556 0.80918 0.04500
H 	H 	0.51904 0.07187 0.88314 0.07400
H 	H 	0.43574 0.02852 0.86231 0.04800
Br	Br	0.56016 0.04264 0.82221 -0.22300
C 	C 	0.47147 0.07540 0.11129 -0.06100
C 	C 	0.50180 0.07668 0.11992 -0.00400
C 	C 	0.51458 0.05670 0.14845 -0.02600
C 	C 	0.49723 0.03503 0.16833 -0.04000
C 	C 	0.46658 0.03424 0.16079 0.10200
C 	C 	0.45381 0.05457 0.13260 -0.04100
H 	H 	0.53813 0.05756 0.15423 0.04600
H 	H 	0.43036 0.05343 0.12599 0.06800
H 	H 	0.51558 0.09286 0.10396 0.04700
Br	Br	0.44209 0.00476 0.18696 -0.23200
C 	C 	0.46460 0.42158 0.95067 -0.07000
C 	C 	0.44106 0.40171 0.94773 0.01000
C 	C 	0.44612 0.37308 0.93467 -0.04300
C 	C 	0.47484 0.36402 0.92465 0.00800
C 	C 	0.49277 0.41328 0.93657 0.01000
C 	C 	0.48136 0.33275 0.92118 0.10300
N 	N 	0.46135 0.31427 0.90301 -0.08200
N 	N 	0.46423 0.28563 0.90764 -0.08300
C 	C 	0.48718 0.27463 0.93062 0.10600
N 	N 	0.50802 0.29305 0.94677 -0.08000
N 	N 	0.50517 0.32168 0.94208 -0.08000
C 	C 	0.48707 0.24369 0.94331 -0.00200
C 	C 	0.47124 0.19408 0.92869 0.00400
C 	C 	0.47664 0.18657 0.97248 -0.07900
C 	C 	0.48940 0.20721 0.00064 -0.01600
C 	C 	0.49459 0.23562 0.98615 -0.02100
C 	C 	0.49789 0.38458 0.92375 -0.04300
C 	C 	0.47636 0.22251 0.91422 -0.04000
H 	H 	0.41912 0.40803 0.95775 0.04300
H 	H 	0.42803 0.35755 0.93488 0.05500
H 	H 	0.52001 0.37805 0.91498 0.05600
H 	H 	0.51108 0.42852 0.93815 0.04600
H 	H 	0.47112 0.22829 0.88081 0.05300
H 	H 	0.46181 0.17828 0.90636 0.04400
H 	H 	0.50317 0.25166 0.00883 0.04100
H 	H 	0.49437 0.20153 0.03419 0.04300
C 	C 	0.15649 0.59254 0.03787 -0.08600
C 	C 	0.17281 0.59976 0.07525 0.02500
C 	C 	0.19980 0.58643 0.08327 -0.05000
C 	C 	0.21102 0.56602 0.05356 0.01600
C 	C 	0.16679 0.57103 0.00937 0.01500
C 	C 	0.24119 0.55468 0.05930 0.10100
N 	N 	0.26180 0.57069 0.08094 -0.08300
N 	N 	0.28929 0.56111 0.08476 -0.08300
C 	C 	0.29706 0.53528 0.06693 0.10100
N 	N 	0.27644 0.51914 0.04552 -0.08200
N 	N 	0.24888 0.52867 0.04185 -0.08200
C 	C 	0.32790 0.52554 0.06916 0.01100
C 	C 	0.37474 0.52441 0.10752 0.01700
C 	C 	0.38834 0.51264 0.07036 -0.09400
C 	C 	0.37130 0.50630 0.03318 0.02000
C 	C 	0.34123 0.51271 0.03260 -0.05100
C 	C 	0.19403 0.55791 0.01701 -0.05600
C 	C 	0.34469 0.53083 0.10691 -0.05200
H 	H 	0.16470 0.61594 0.09789 0.02700
H 	H 	0.21219 0.59231 0.11224 0.05600
H 	H 	0.20227 0.54213 0.99386 0.06500
H 	H 	0.15419 0.56517 0.98057 0.04700
H 	H 	0.33455 0.54032 0.13557 0.05200
H 	H 	0.38757 0.52930 0.13648 0.02500
H 	H 	0.32852 0.50846 0.00330 0.05400
H 	H 	0.38141 0.49675 0.00455 0.04100
C 	C 	0.55325 0.47470 0.08300 -0.09400
C 	C 	0.55947 0.44728 0.06506 0.01400
C 	C 	0.58863 0.43851 0.05945 -0.04900
C 	C 	0.61195 0.45691 0.07197 0.01000
C 	C 	0.57663 0.49267 0.09699 0.01400
C 	C 	0.64263 0.44870 0.06251 0.10100
N 	N 	0.64965 0.43659 0.02344 -0.08200
N 	N 	0.67758 0.43039 0.01400 -0.08200
C 	C 	0.69926 0.43596 0.04347 0.10300
N 	N 	0.69219 0.44771 0.08278 -0.08300
N 	N 	0.66427 0.45405 0.09213 -0.08300
C 	C 	0.73033 0.43091 0.03193 0.00000
C 	C 	0.77103 0.43661 0.98095 0.02000
C 	C 	0.79053 0.42547 0.01225 -0.09100
C 	C 	0.77959 0.41607 0.05287 0.01300
C 	C 	0.74964 0.41890 0.06273 -0.04500
C 	C 	0.60581 0.48378 0.09155 -0.05100
C 	C 	0.74106 0.43924 0.99069 -0.03700
H 	H 	0.54173 0.43293 0.05478 0.04100
H 	H 	0.59310 0.41751 0.04499 0.05400
H 	H 	0.62364 0.49817 0.10138 0.05200
H 	H 	0.57227 0.51381 0.11101 0.03600
H 	H 	0.72636 0.44848 0.96662 0.05700
H 	H 	0.77918 0.44368 0.94935 0.04700
H 	H 	0.74154 0.41205 0.09446 0.05300
H 	H 	0.79441 0.40746 0.07732 0.04300
C 	C 	0.50079 0.58089 0.01693 -0.10300
C 	C 	0.52808 0.58208 0.99528 0.03100
C 	C 	0.54067 0.60894 0.98410 -0.05700
C 	C 	0.52615 0.63489 0.99462 0.02500
C 	C 	0.48544 0.60673 0.02490 0.02300
C 	C 	0.54146 0.66318 0.98942 0.10000
N 	N 	0.57110 0.66508 0.99511 -0.08000
N 	N 	0.58448 0.69095 0.99657 -0.08200
C 	C 	0.56863 0.71571 0.99248 0.11400
N 	N 	0.53916 0.71381 0.98520 -0.08000
N 	N 	0.52577 0.68792 0.98365 -0.07900
C 	C 	0.58278 0.74422 0.00029 -0.00800
C 	C 	0.61765 0.77413 0.04072 0.01500
C 	C 	0.61001 0.79842 0.01545 -0.09600
C 	C 	0.58839 0.79554 0.98286 0.02400
C 	C 	0.57479 0.76857 0.97536 -0.03300
C 	C 	0.49804 0.63357 0.01387 -0.06600
C 	C 	0.60416 0.74721 0.03315 -0.04500
H 	H 	0.54005 0.56230 0.98854 0.04200
H 	H 	0.56205 0.60959 0.96831 0.05900
H 	H 	0.48642 0.65335 0.02184 0.05600
H 	H 	0.46405 0.60607 0.04068 0.03500
H 	H 	0.61015 0.72873 0.05313 0.04900
H 	H 	0.63400 0.77612 0.06636 0.02600
H 	H 	0.55838 0.76653 0.94982 0.05900
H 	H 	0.58250 0.81401 0.96285 0.06100
