data_crystal

_cell_length_a 27.63557
_cell_length_b 28.32065
_cell_length_c 26.52531
_cell_angle_alpha 95.51419
_cell_angle_beta  95.51553
_cell_angle_gamma 125.65819

_symmetry_space_group_name_	'P 1'
_symmetry_space_group_name_H-M	'P 1'

loop_
_symmetry_equiv_pos_as_xyz
  x,y,z

loop_
_atom_site_label
_atom_site_type_symbol
_atom_site_fract_x
_atom_site_fract_y
_atom_site_fract_z
_atom_site_charge
C 	C 	0.04726 0.02432 0.97498 0.05100
C 	C 	0.01978 0.05258 0.98246 -0.08400
H 	H 	0.04592 0.10011 0.98502 0.05500
C 	C 	0.00429 0.03469 0.43930 -0.08500
H 	H 	0.02899 0.08119 0.43712 0.05800
Cu	Cu	0.63853 0.24681 0.00367 0.93100
Cu	Cu	0.68674 0.24722 0.89550 0.87200
Cu	Cu	0.67113 0.33813 0.93496 0.89900
Cu	Cu	0.64462 0.36005 0.03696 0.90300
C 	C 	0.66239 0.29668 0.11012 0.30400
O 	O 	0.55130 0.21610 0.00339 -0.35400
C 	C 	0.66041 0.30193 0.82410 0.29700
O 	O 	0.69010 0.33905 0.00662 -0.63600
O 	O 	0.63010 0.25141 0.92976 -0.64100
O 	O 	0.67223 0.20100 0.00084 -0.36200
O 	O 	0.74136 0.26097 0.95412 -0.43500
O 	O 	0.63376 0.31918 0.09656 -0.36800
O 	O 	0.71692 0.42317 0.94316 -0.36800
C 	C 	0.71505 0.45797 0.97849 0.30800
C 	C 	0.52943 0.24210 0.98314 0.29700
O 	O 	0.56635 0.29702 0.97698 -0.39400
O 	O 	0.68251 0.43790 0.01501 -0.37600
O 	O 	0.65992 0.25714 0.07697 -0.35100
C 	C 	0.72318 0.22203 0.98439 0.30500
O 	O 	0.65790 0.33560 0.86030 -0.36000
O 	O 	0.65274 0.25301 0.83231 -0.41200
H 	H 	0.73397 0.36419 0.02155 0.18200
H 	H 	0.58813 0.22639 0.90975 0.17700
Cu	Cu	0.74152 0.34305 0.43529 0.92900
Cu	Cu	0.73813 0.29347 0.54253 0.87400
Cu	Cu	0.64649 0.30996 0.50289 0.90000
Cu	Cu	0.62807 0.34126 0.40228 0.89900
C 	C 	0.69607 0.32812 0.32837 0.30700
O 	O 	0.77620 0.42973 0.43748 -0.35700
C 	C 	0.68427 0.32122 0.61453 0.30000
O 	O 	0.64713 0.29447 0.43104 -0.63800
O 	O 	0.73545 0.34983 0.50899 -0.63900
O 	O 	0.78444 0.30549 0.43690 -0.36400
O 	O 	0.72073 0.23918 0.48336 -0.43400
O 	O 	0.67164 0.35435 0.34330 -0.37700
O 	O 	0.55920 0.26571 0.49305 -0.36700
C 	C 	0.52493 0.26723 0.45595 0.31100
C 	C 	0.74938 0.45163 0.45639 0.30100
O 	O 	0.69345 0.41572 0.46340 -0.39200
O 	O 	0.54844 0.30543 0.42451 -0.38700
O 	O 	0.73151 0.32407 0.36188 -0.34700
C 	C 	0.76018 0.25500 0.45287 0.31100
O 	O 	0.64654 0.31863 0.57755 -0.36000
O 	O 	0.73391 0.32805 0.60565 -0.41300
H 	H 	0.62094 0.25205 0.41470 0.18000
H 	H 	0.76095 0.39054 0.52950 0.17800
C 	C 	0.72080 0.36639 0.70771 -0.02500
C 	C 	0.67361 0.32202 0.66783 -0.07800
C 	C 	0.61856 0.27542 0.67982 0.09100
C 	C 	0.61285 0.27166 0.73148 -0.02500
C 	C 	0.66165 0.31381 0.77131 -0.07700
C 	C 	0.71493 0.36273 0.75933 0.08900
N 	N 	0.76434 0.40731 0.79952 -0.02600
H 	H 	0.76269 0.40307 0.69868 0.06100
H 	H 	0.57142 0.23442 0.74056 0.06000
N 	N 	0.56945 0.23024 0.63971 -0.01900
O 	O 	0.81612 0.41551 0.80372 -0.12100
O 	O 	0.75915 0.44294 0.82908 -0.09700
O 	O 	0.57443 0.19339 0.61189 -0.12400
O 	O 	0.51801 0.22280 0.63397 -0.10100
C 	C 	0.72954 0.36862 0.24965 -0.02100
C 	C 	0.69811 0.31926 0.27339 -0.07400
C 	C 	0.66337 0.26189 0.24324 0.09300
C 	C 	0.65643 0.25460 0.18934 -0.02200
C 	C 	0.68331 0.30415 0.16540 -0.07200
C 	C 	0.72265 0.36139 0.19585 0.09000
N 	N 	0.75461 0.41234 0.17212 -0.02400
H 	H 	0.75804 0.41277 0.27295 0.06600
H 	H 	0.62711 0.21044 0.16609 0.07000
N 	N 	0.63329 0.21095 0.26704 -0.02100
O 	O 	0.75362 0.45705 0.18601 -0.11500
O 	O 	0.78692 0.41515 0.13831 -0.12300
O 	O 	0.59023 0.19992 0.29160 -0.12100
O 	O 	0.64534 0.17297 0.26038 -0.10100
C 	C 	0.81109 0.64003 0.40861 -0.02600
C 	C 	0.81678 0.62392 0.45595 -0.00700
C 	C 	0.84231 0.66594 0.50171 -0.02700
C 	C 	0.79441 0.56370 0.45760 0.04900
C 	C 	0.77527 0.51300 0.45777 -0.10400
H 	H 	0.79093 0.60768 0.37311 0.04500
H 	H 	0.84639 0.65372 0.53850 0.04200
C 	C 	0.81807 0.15215 0.42986 -0.00800
C 	C 	0.78681 0.09853 0.44784 -0.02700
C 	C 	0.89155 0.13643 0.40791 -0.04500
C 	C 	0.86994 0.17054 0.40912 -0.02600
C 	C 	0.79942 0.19019 0.43634 0.05200
C 	C 	0.78218 0.22055 0.44258 -0.10900
H 	H 	0.74658 0.08392 0.46382 0.04100
H 	H 	0.89429 0.21182 0.39504 0.04400
C 	C 	0.34318 0.17329 0.45309 -0.00500
C 	C 	0.30547 0.16705 0.40958 -0.02700
C 	C 	0.24303 0.13495 0.40795 -0.04400
C 	C 	0.21809 0.10899 0.44984 0.02200
C 	C 	0.25584 0.11552 0.49348 -0.04300
C 	C 	0.31829 0.14762 0.49511 -0.02600
C 	C 	0.15362 0.07431 0.44751 -0.00800
C 	C 	0.09967 0.04520 0.44585 -0.02700
C 	C 	0.40739 0.20617 0.45462 0.05300
C 	C 	0.46109 0.23380 0.45543 -0.09500
H 	H 	0.32445 0.18690 0.37700 0.04300
H 	H 	0.21409 0.13002 0.37407 0.04600
H 	H 	0.23683 0.09550 0.52598 0.04700
H 	H 	0.34721 0.15239 0.52892 0.05000
C 	C 	0.80204 0.63190 0.97046 -0.00500
C 	C 	0.77147 0.57046 0.97295 0.05300
C 	C 	0.74591 0.51900 0.97505 -0.09300
H 	H 	0.71941 0.62247 0.94616 0.04300
C 	C 	0.81396 0.15037 0.00552 -0.00200
C 	C 	0.78246 0.08988 0.00627 -0.02700
C 	C 	0.81297 0.06420 0.00571 -0.04700
C 	C 	0.78128 0.17512 0.99883 0.04300
C 	C 	0.75450 0.19644 0.99323 -0.11100
H 	H 	0.73410 0.06246 0.00583 0.04400
H 	H 	0.78804 0.01712 0.00502 0.04700
C 	C 	0.34949 0.16794 0.96866 -0.01400
C 	C 	0.33201 0.19475 0.00184 -0.02000
C 	C 	0.27055 0.16843 0.00087 -0.04000
C 	C 	0.22634 0.11523 0.96671 0.01700
C 	C 	0.24384 0.08942 0.93239 -0.04500
C 	C 	0.30532 0.11574 0.93337 -0.02500
C 	C 	0.16343 0.08450 0.96994 -0.00900
C 	C 	0.11051 0.05809 0.97207 -0.02800
C 	C 	0.41256 0.19271 0.97247 0.05000
C 	C 	0.46573 0.21454 0.97662 -0.10700
H 	H 	0.36597 0.23531 0.02904 0.04200
H 	H 	0.25734 0.18865 0.02748 0.04600
H 	H 	0.20986 0.04831 0.90582 0.04500
H 	H 	0.31853 0.09497 0.90740 0.04100
C 	C 	0.95847 0.01936 0.98671 0.04800
C 	C 	0.80843 0.06445 0.44665 -0.04500
C 	C 	0.86140 0.08379 0.42746 0.02200
C 	C 	0.88744 0.05218 0.43134 -0.00900
C 	C 	0.91056 0.02692 0.43399 -0.02800
H 	H 	0.78479 0.02379 0.46173 0.04500
H 	H 	0.93246 0.15163 0.39289 0.04600
C 	C 	0.87508 0.09891 0.00440 0.03000
C 	C 	0.90705 0.15983 0.00570 -0.04700
C 	C 	0.87655 0.18551 0.00626 -0.02700
C 	C 	0.90503 0.07142 0.99840 -0.01900
C 	C 	0.92974 0.04801 0.99337 -0.02400
H 	H 	0.95515 0.18700 0.00499 0.04700
H 	H 	0.90123 0.23234 0.00582 0.04400
H 	H 	0.89159 0.65551 0.99473 0.04500
C 	C 	0.76842 0.65280 0.95663 -0.02600
C 	C 	0.86535 0.67139 0.98396 -0.02500
C 	C 	0.03523 0.00956 0.44398 0.05300
C 	C 	0.83174 0.69811 0.40691 -0.04400
C 	C 	0.94154 0.99998 0.43766 0.05300
C 	C 	0.01352 0.96303 0.97169 -0.08300
H 	H 	0.03493 0.94123 0.96615 0.05800
C 	C 	0.00354 0.94968 0.44693 -0.08400
H 	H 	0.02764 0.93029 0.45050 0.05900
C 	C 	0.79802 0.71312 0.95692 -0.04500
H 	H 	0.77178 0.72909 0.94652 0.04500
C 	C 	0.92481 0.95799 0.98356 -0.08400
C 	C 	0.95243 0.92989 0.97609 0.05100
H 	H 	0.87740 0.93226 0.98693 0.05700
C 	C 	0.90962 0.93975 0.44060 -0.08500
C 	C 	0.94084 0.91465 0.44525 0.05200
H 	H 	0.86108 0.91277 0.43939 0.05800
C 	C 	0.85815 0.74041 0.45254 0.02200
C 	C 	0.86298 0.72408 0.50001 -0.04500
C 	C 	0.88589 0.80166 0.45013 -0.00900
C 	C 	0.90906 0.85289 0.44796 -0.02600
H 	H 	0.82816 0.71043 0.37005 0.04800
H 	H 	0.88365 0.75657 0.53544 0.04600
C 	C 	0.86131 0.75268 0.97105 0.02200
C 	C 	0.89493 0.73166 0.98425 -0.04400
C 	C 	0.89182 0.81488 0.97247 -0.01000
C 	C 	0.91863 0.86721 0.97402 -0.02700
H 	H 	0.94391 0.76203 0.99507 0.04600
