data_crystal

_cell_length_a 35.25135
_cell_length_b 35.69546
_cell_length_c 26.49662
_cell_angle_alpha 95.53802
_cell_angle_beta  95.53920
_cell_angle_gamma 125.38118

_symmetry_space_group_name_	'P 1'
_symmetry_space_group_name_H-M	'P 1'

loop_
_symmetry_equiv_pos_as_xyz
  x,y,z

loop_
_atom_site_label
_atom_site_type_symbol
_atom_site_fract_x
_atom_site_fract_y
_atom_site_fract_z
_atom_site_charge
C 	C 	0.98222 0.02854 0.99910 0.13300
N 	N 	0.02846 0.05301 0.99452 -0.14000
C 	C 	0.04926 0.03091 0.99034 0.13200
C 	C 	0.02000 0.00253 0.42307 0.13200
N 	N 	0.99780 0.02324 0.41899 -0.14200
Cu	Cu	0.65626 0.26983 0.99372 0.92800
Cu	Cu	0.69671 0.27190 0.88652 0.87000
Cu	Cu	0.68474 0.34451 0.92714 0.89700
Cu	Cu	0.65358 0.35546 0.02584 0.89300
C 	C 	0.66923 0.30656 0.10029 0.29100
O 	O 	0.58651 0.24083 0.98990 -0.36300
C 	C 	0.67175 0.31246 0.81520 0.29300
O 	O 	0.69326 0.34258 0.99901 -0.63700
O 	O 	0.65233 0.27555 0.92009 -0.64000
O 	O 	0.68636 0.23675 0.99282 -0.37400
O 	O 	0.73992 0.28475 0.94595 -0.44300
O 	O 	0.64592 0.32350 0.08590 -0.38300
O 	O 	0.71947 0.41184 0.93922 -0.38300
C 	C 	0.71404 0.43632 0.97448 0.31100
C 	C 	0.56755 0.26012 0.97033 0.30200
O 	O 	0.59484 0.30371 0.96428 -0.39200
O 	O 	0.67997 0.41590 0.00163 -0.39800
O 	O 	0.66975 0.27666 0.06732 -0.36000
C 	C 	0.72673 0.25464 0.97706 0.31100
O 	O 	0.68776 0.34770 0.85354 -0.38800
O 	O 	0.66861 0.27496 0.82327 -0.42000
H 	H 	0.72670 0.36295 0.01719 0.15900
H 	H 	0.61987 0.25648 0.89930 0.17100
Cu	Cu	0.72265 0.33626 0.42603 0.92800
Cu	Cu	0.72038 0.29593 0.53287 0.87100
Cu	Cu	0.64528 0.30488 0.49064 0.89700
Cu	Cu	0.63414 0.33537 0.39194 0.89400
C 	C 	0.68904 0.32643 0.31871 0.29200
O 	O 	0.75000 0.40486 0.43038 -0.36300
C 	C 	0.67653 0.31762 0.60294 0.29300
O 	O 	0.64870 0.29744 0.41909 -0.64100
O 	O 	0.71548 0.33900 0.49919 -0.64100
O 	O 	0.75743 0.30770 0.42757 -0.37400
O 	O 	0.70851 0.25389 0.47346 -0.44400
O 	O 	0.66875 0.34630 0.33315 -0.38400
O 	O 	0.57692 0.26861 0.47718 -0.38300
C 	C 	0.55160 0.27351 0.44209 0.30800
C 	C 	0.72865 0.42197 0.44895 0.30100
O 	O 	0.68446 0.39352 0.45435 -0.39300
O 	O 	0.57162 0.30664 0.41412 -0.39400
O 	O 	0.71714 0.32385 0.35266 -0.36000
C 	C 	0.73940 0.26759 0.44280 0.30800
O 	O 	0.64107 0.30118 0.56405 -0.38800
O 	O 	0.71553 0.32254 0.59562 -0.42000
H 	H 	0.62918 0.26453 0.40063 0.16200
H 	H 	0.73369 0.37089 0.52021 0.17100
C 	C 	0.70298 0.35944 0.74666 -0.04600
C 	C 	0.66604 0.31897 0.76156 -0.09600
C 	C 	0.62716 0.28244 0.72358 0.10500
C 	C 	0.62940 0.28400 0.67112 -0.04600
C 	C 	0.66895 0.32227 0.65627 -0.09600
C 	C 	0.70428 0.36178 0.69420 0.10600
N 	N 	0.73913 0.40205 0.68048 -0.19900
H 	H 	0.73170 0.38847 0.77585 0.04900
H 	H 	0.60113 0.25461 0.64192 0.04800
N 	N 	0.58752 0.24625 0.73723 -0.19900
H 	H 	0.76618 0.43050 0.70866 0.08200
H 	H 	0.73847 0.40624 0.64201 0.08600
H 	H 	0.58294 0.24653 0.77559 0.08600
H 	H 	0.55975 0.21841 0.70905 0.08200
C 	C 	0.66024 0.27105 0.17837 -0.04000
C 	C 	0.68339 0.31109 0.15593 -0.08900
C 	C 	0.71477 0.35578 0.18790 0.10100
C 	C 	0.71816 0.35993 0.24161 -0.03900
C 	C 	0.69176 0.32017 0.26384 -0.08900
C 	C 	0.66429 0.27515 0.23224 0.10200
N 	N 	0.64118 0.23590 0.25320 -0.20000
H 	H 	0.63729 0.23671 0.15382 0.05400
H 	H 	0.74054 0.39432 0.26613 0.05100
N 	N 	0.74179 0.39469 0.16726 -0.19900
H 	H 	0.62010 0.20281 0.22947 0.08400
H 	H 	0.64469 0.23773 0.29311 0.08400
H 	H 	0.74278 0.39235 0.12788 0.07000
H 	H 	0.76359 0.42778 0.19096 0.08100
C 	C 	0.74982 0.47090 0.45244 -0.11100
C 	C 	0.78984 0.19089 0.41629 -0.01200
C 	C 	0.76828 0.14878 0.43469 -0.03100
C 	C 	0.78687 0.12326 0.43104 -0.04500
C 	C 	0.82715 0.13965 0.40885 0.01100
C 	C 	0.84799 0.18124 0.38922 -0.04500
C 	C 	0.82939 0.20679 0.39299 -0.03000
C 	C 	0.84885 0.11455 0.40856 0.00500
C 	C 	0.82291 0.06800 0.38243 -0.03800
C 	C 	0.84282 0.04364 0.38410 -0.04000
C 	C 	0.88875 0.06566 0.41185 0.01200
C 	C 	0.91481 0.11221 0.43764 -0.04000
C 	C 	0.89495 0.13658 0.43606 -0.03800
C 	C 	0.90939 0.04069 0.41366 0.00600
C 	C 	0.92755 0.02065 0.41584 -0.04100
C 	C 	0.77304 0.21905 0.42426 0.04700
C 	C 	0.75796 0.24161 0.43168 -0.12000
H 	H 	0.73768 0.13627 0.45273 0.03500
H 	H 	0.77057 0.09128 0.44639 0.04000
H 	H 	0.87891 0.19404 0.37171 0.04200
H 	H 	0.84619 0.23927 0.37859 0.04000
H 	H 	0.78734 0.05070 0.36102 0.04000
H 	H 	0.82252 0.00770 0.36393 0.04300
H 	H 	0.95038 0.12948 0.45909 0.04300
H 	H 	0.91516 0.17237 0.45663 0.03900
C 	C 	0.16253 0.07747 0.42850 0.01300
C 	C 	0.18266 0.09853 0.38709 -0.04000
C 	C 	0.23143 0.12309 0.38902 -0.03800
C 	C 	0.26035 0.12669 0.43241 0.00500
C 	C 	0.24013 0.10573 0.47392 -0.03800
C 	C 	0.19138 0.08122 0.47195 -0.04000
C 	C 	0.31174 0.15235 0.43438 0.01100
C 	C 	0.32866 0.13655 0.39854 -0.04400
C 	C 	0.37739 0.16088 0.40045 -0.03000
C 	C 	0.40949 0.20109 0.43817 -0.00900
C 	C 	0.39269 0.21685 0.47409 -0.03000
C 	C 	0.34396 0.19258 0.47221 -0.04400
C 	C 	0.45963 0.22652 0.43958 0.04600
C 	C 	0.50161 0.24779 0.44073 -0.10800
C 	C 	0.11219 0.05128 0.42608 0.00500
C 	C 	0.07009 0.02925 0.42453 -0.03900
H 	H 	0.16055 0.09578 0.35339 0.04300
H 	H 	0.24675 0.13935 0.35690 0.04000
H 	H 	0.26214 0.10823 0.50753 0.04000
H 	H 	0.17603 0.06498 0.50408 0.04300
H 	H 	0.30408 0.10541 0.36936 0.04100
H 	H 	0.39016 0.14852 0.37257 0.03700
H 	H 	0.41732 0.24796 0.50333 0.04000
H 	H 	0.33123 0.20511 0.49995 0.04200
C 	C 	0.73955 0.48566 0.97625 -0.10800
C 	C 	0.91721 0.09279 0.00737 0.00900
C 	C 	0.86990 0.06839 0.98278 -0.03700
C 	C 	0.84738 0.09021 0.98410 -0.03600
C 	C 	0.87206 0.13661 0.01012 0.00300
C 	C 	0.91931 0.16084 0.03521 -0.03800
C 	C 	0.94181 0.13897 0.03380 -0.03900
C 	C 	0.84894 0.16029 0.00951 0.00900
C 	C 	0.80822 0.14292 0.03117 -0.04600
C 	C 	0.78446 0.16344 0.02741 -0.02700
C 	C 	0.80129 0.20145 0.00207 -0.02000
C 	C 	0.84261 0.21956 0.98157 -0.02600
C 	C 	0.86636 0.19906 0.98524 -0.04400
C 	C 	0.77463 0.21997 0.99417 0.05300
C 	C 	0.75278 0.23594 0.98718 -0.12300
C 	C 	0.94065 0.07060 0.00482 0.00700
C 	C 	0.95984 0.05160 0.00239 -0.04300
H 	H 	0.85067 0.03266 0.96231 0.04300
H 	H 	0.81098 0.07130 0.96441 0.03900
H 	H 	0.93861 0.19662 0.05552 0.04000
H 	H 	0.97837 0.15800 0.05300 0.04200
H 	H 	0.79467 0.11319 0.05028 0.04100
H 	H 	0.75257 0.14930 0.04342 0.03800
H 	H 	0.85582 0.24895 0.96193 0.03500
H 	H 	0.89772 0.21268 0.96835 0.04100
C 	C 	0.42621 0.19621 0.96242 -0.00700
C 	C 	0.40468 0.17188 0.00148 -0.03300
C 	C 	0.35739 0.15326 0.00264 -0.04700
C 	C 	0.33132 0.15890 0.96473 0.01300
C 	C 	0.35268 0.18255 0.92509 -0.04400
C 	C 	0.40002 0.20118 0.92398 -0.03100
C 	C 	0.28178 0.14018 0.96672 0.00700
C 	C 	0.27110 0.15721 0.00883 -0.04000
C 	C 	0.22392 0.13720 0.01252 -0.04300
C 	C 	0.18719 0.10013 0.97415 0.01600
C 	C 	0.19781 0.08395 0.93138 -0.04000
C 	C 	0.24496 0.10390 0.92765 -0.03800
C 	C 	0.13872 0.07655 0.98038 0.00500
C 	C 	0.09794 0.05640 0.98498 -0.03800
C 	C 	0.47593 0.21862 0.96383 0.04600
C 	C 	0.51760 0.23709 0.96583 -0.11100
H 	H 	0.42475 0.16794 0.03134 0.04000
H 	H 	0.34108 0.13468 0.03312 0.04100
H 	H 	0.33279 0.18697 0.89558 0.04200
H 	H 	0.41648 0.22002 0.89371 0.03800
H 	H 	0.29931 0.18545 0.03898 0.04000
H 	H 	0.21596 0.14993 0.04565 0.04300
H 	H 	0.16956 0.05531 0.90156 0.04300
H 	H 	0.25286 0.09056 0.89499 0.04000
C 	C 	0.76659 0.51161 0.45361 0.04500
C 	C 	0.76044 0.52712 0.97814 0.04600
H 	H 	0.80992 0.56075 0.38118 0.03900
C 	C 	0.78691 0.56019 0.45397 -0.00900
C 	C 	0.80755 0.58074 0.41254 -0.03000
H 	H 	0.77770 0.57223 0.89820 0.04000
C 	C 	0.78544 0.57669 0.98092 -0.00600
H 	H 	0.76782 0.57058 0.52637 0.03800
C 	C 	0.78388 0.58628 0.49430 -0.03000
H 	H 	0.79850 0.59244 0.06426 0.03700
C 	C 	0.79124 0.59509 0.93554 -0.03000
C 	C 	0.80298 0.60648 0.02903 -0.03300
C 	C 	0.95059 0.99818 0.41879 0.13600
N 	N 	0.02387 0.98443 0.99064 -0.13900
C 	C 	0.97770 0.95996 0.99515 0.13400
N 	N 	0.95682 0.98198 0.99933 -0.13900
N 	N 	0.92558 0.95235 0.42286 -0.14000
C 	C 	0.94789 0.93167 0.42691 0.13300
N 	N 	0.99505 0.95680 0.42706 -0.14000
C 	C 	0.82473 0.62702 0.41115 -0.04400
C 	C 	0.82131 0.65309 0.45122 0.01100
C 	C 	0.80104 0.63261 0.49296 -0.04400
C 	C 	0.83953 0.70198 0.44971 0.00500
C 	C 	0.82021 0.71225 0.40922 -0.03800
C 	C 	0.83975 0.75877 0.40577 -0.04000
C 	C 	0.87862 0.79529 0.44279 0.01300
C 	C 	0.89708 0.78508 0.48403 -0.04000
C 	C 	0.87763 0.73860 0.48750 -0.03800
C 	C 	0.90186 0.84312 0.43642 0.00500
C 	C 	0.92196 0.88344 0.43198 -0.03900
H 	H 	0.84067 0.64263 0.37899 0.04100
H 	H 	0.79829 0.65245 0.52409 0.04100
H 	H 	0.79055 0.68422 0.38007 0.04000
H 	H 	0.82524 0.76639 0.37381 0.04300
H 	H 	0.92714 0.81314 0.51280 0.04300
H 	H 	0.89279 0.73106 0.51890 0.04000
C 	C 	0.90422 0.82002 0.99361 0.01600
C 	C 	0.92826 0.80319 0.01500 -0.04300
C 	C 	0.90457 0.75517 0.01287 -0.04000
C 	C 	0.85664 0.72369 0.98933 0.00700
C 	C 	0.83250 0.74064 0.96832 -0.03800
C 	C 	0.85626 0.78870 0.97045 -0.04000
C 	C 	0.83188 0.67300 0.98641 0.01300
C 	C 	0.82613 0.65450 0.03180 -0.04700
C 	C 	0.81441 0.64312 0.93824 -0.04400
C 	C 	0.92926 0.86929 0.99393 0.00600
C 	C 	0.95088 0.91068 0.99462 -0.03800
H 	H 	0.96538 0.82724 0.03289 0.04300
H 	H 	0.92352 0.74240 0.02910 0.04000
H 	H 	0.79543 0.71661 0.95032 0.04100
H 	H 	0.83747 0.80150 0.95383 0.04400
H 	H 	0.83942 0.67728 0.06914 0.04100
H 	H 	0.81891 0.65713 0.90300 0.04200
