data_crystal

_cell_length_a 27.34890
_cell_length_b 29.07872
_cell_length_c 39.29329
_cell_angle_alpha 60.88418
_cell_angle_beta  118.82722
_cell_angle_gamma 133.31021

_symmetry_space_group_name_	'P 1'
_symmetry_space_group_name_H-M	'P 1'

loop_
_symmetry_equiv_pos_as_xyz
  x,y,z

loop_
_atom_site_label
_atom_site_type_symbol
_atom_site_fract_x
_atom_site_fract_y
_atom_site_fract_z
_atom_site_charge
C 	C 	0.74849 0.33349 0.02187 0.07700
C 	C 	0.67879 0.30387 0.01750 -0.09800
C 	C 	0.66002 0.33917 0.01639 0.08000
C 	C 	0.71057 0.40491 0.01720 -0.10200
C 	C 	0.78049 0.43096 0.02844 0.07600
H 	H 	0.63994 0.25318 0.01627 0.07600
H 	H 	0.69581 0.43296 0.01482 0.06500
C 	C 	0.72721 0.28712 0.54870 0.07900
C 	C 	0.65691 0.23704 0.54865 -0.09500
C 	C 	0.61949 0.24524 0.55725 0.08100
C 	C 	0.65160 0.30395 0.56463 -0.09500
C 	C 	0.72255 0.35241 0.56726 0.08100
H 	H 	0.63202 0.19149 0.54288 0.07100
H 	H 	0.62203 0.31058 0.57044 0.07700
C 	C 	0.29012 0.65382 0.21415 0.07800
C 	C 	0.24192 0.59636 0.20063 -0.08800
C 	C 	0.26496 0.56978 0.19565 0.07800
C 	C 	0.33569 0.59915 0.20547 -0.09900
C 	C 	0.38390 0.65672 0.21841 0.08100
C 	C 	0.36110 0.68317 0.22376 -0.09100
H 	H 	0.18709 0.57380 0.19282 0.07100
H 	H 	0.35335 0.57903 0.20097 0.06900
H 	H 	0.39846 0.72817 0.23345 0.06600
C 	C 	0.24311 0.61656 0.70387 0.07700
C 	C 	0.21453 0.55053 0.71186 -0.08900
C 	C 	0.24478 0.53401 0.70350 0.07600
C 	C 	0.30306 0.58333 0.68725 -0.10200
C 	C 	0.33174 0.64886 0.67950 0.07800
C 	C 	0.30164 0.66550 0.68762 -0.09100
H 	H 	0.16919 0.51252 0.72427 0.07300
H 	H 	0.32642 0.57063 0.68084 0.06800
H 	H 	0.32374 0.71635 0.68140 0.07500
Co	Co	0.05445 0.02643 0.06359 1.19800
Co	Co	0.99762 0.06660 0.09505 1.18900
C 	C 	0.19216 0.09190 0.05167 0.33600
Co	Co	0.11050 0.94720 0.07745 1.16700
O 	O 	0.02548 0.08369 0.04826 -0.44300
C 	C 	0.06447 0.17566 0.13238 0.31500
C 	C 	0.17303 0.93668 0.16385 0.31800
O 	O 	0.03945 0.13206 0.16440 -0.37000
O 	O 	0.06324 0.15962 0.10524 -0.36400
O 	O 	0.18743 0.97357 0.12843 -0.38600
O 	O 	0.12830 0.92849 0.17505 -0.36900
O 	O 	0.06826 0.96921 0.09487 -0.76700
O 	O 	0.16209 0.03987 0.04111 -0.38600
O 	O 	0.15616 0.09962 0.05891 -0.37400
Co	Co	0.03671 0.98823 0.57561 1.17800
Co	Co	0.00799 0.05586 0.60512 1.19000
C 	C 	0.14566 0.97618 0.58962 0.28900
Co	Co	0.99799 0.86179 0.56512 1.17100
O 	O 	0.06897 0.07416 0.57787 -0.43800
C 	C 	0.07126 0.14975 0.64920 0.32200
C 	C 	0.05847 0.83264 0.65442 0.32600
O 	O 	0.01036 0.13857 0.63387 -0.40700
O 	O 	0.08173 0.11484 0.64503 -0.37900
O 	O 	0.02111 0.80958 0.62214 -0.40100
O 	O 	0.04969 0.86623 0.66164 -0.39700
O 	O 	0.10123 0.93816 0.56441 -0.39500
O 	O 	0.12604 0.99329 0.60364 -0.39500
C 	C 	0.01343 0.02176 0.89317 0.08500
C 	C 	0.01811 0.02040 0.93112 0.13200
C 	C 	0.04132 0.98789 0.83764 0.04700
C 	C 	0.03763 0.98929 0.79998 0.10400
Br	Br	0.04457 0.10196 0.85194 -0.16100
Br	Br	0.12026 0.02840 0.78662 -0.15900
Br	Br	0.06841 0.10082 0.94440 -0.19300
Br	Br	0.12682 0.01580 0.87802 -0.14200
C 	C 	0.09722 0.02871 0.41983 0.07400
C 	C 	0.08979 0.02955 0.45259 0.10500
C 	C 	0.08314 0.06367 0.28833 0.10900
C 	C 	0.08151 0.06601 0.32274 0.06900
Br	Br	0.18280 0.05060 0.42183 -0.16100
Br	Br	0.12035 0.14809 0.32888 -0.16100
Br	Br	0.17011 0.07414 0.49224 -0.17500
Br	Br	0.14072 0.14265 0.25341 -0.19200
C 	C 	0.14027 0.37327 0.68080 -0.09500
C 	C 	0.18546 0.35528 0.70454 -0.00900
C 	C 	0.24184 0.38859 0.73401 0.14500
C 	C 	0.25576 0.44270 0.73730 -0.07600
C 	C 	0.21498 0.46517 0.71049 -0.04600
C 	C 	0.15513 0.42832 0.68343 0.15600
C 	C 	0.17635 0.30495 0.69626 0.01400
O 	O 	0.28626 0.37139 0.75762 -0.27000
H 	H 	0.30144 0.47027 0.75860 0.07000
O 	O 	0.11252 0.44740 0.65851 -0.27900
H 	H 	0.09536 0.34639 0.65897 0.07500
C 	C 	0.14799 0.24161 0.72142 0.12500
C 	C 	0.12584 0.19107 0.70887 -0.03100
C 	C 	0.12710 0.20233 0.67015 -0.11200
C 	C 	0.16352 0.26696 0.64736 0.19700
C 	C 	0.18827 0.31810 0.66054 -0.11000
O 	O 	0.13968 0.22851 0.75759 -0.25700
H 	H 	0.10075 0.14185 0.72748 0.08400
O 	O 	0.17127 0.27978 0.61107 -0.27900
H 	H 	0.21280 0.36731 0.64177 0.08100
H 	H 	0.13057 0.47673 0.63393 0.15400
H 	H 	0.09288 0.21600 0.75185 0.16000
H 	H 	0.13091 0.27899 0.59100 0.15500
H 	H 	0.26878 0.34044 0.78225 0.17000
C 	C 	0.52106 0.77206 0.68033 -0.09600
C 	C 	0.52044 0.77296 0.64413 -0.00900
C 	C 	0.45727 0.74139 0.61682 0.14200
C 	C 	0.39507 0.70514 0.62716 -0.07600
C 	C 	0.39560 0.69991 0.66478 -0.04900
C 	C 	0.45897 0.73522 0.69090 0.15700
C 	C 	0.58568 0.80292 0.63641 0.01700
O 	O 	0.45614 0.74283 0.58105 -0.27200
H 	H 	0.34641 0.67846 0.60678 0.06800
O 	O 	0.46028 0.73243 0.72719 -0.28000
H 	H 	0.56978 0.79777 0.70100 0.07900
C 	C 	0.62379 0.86854 0.61557 0.12000
C 	C 	0.69178 0.90043 0.61541 -0.02800
C 	C 	0.61402 0.76829 0.65429 -0.11200
O 	O 	0.59510 0.90188 0.59593 -0.27300
H 	H 	0.58402 0.71714 0.66944 0.08500
H 	H 	0.46206 0.69519 0.74627 0.15500
H 	H 	0.60687 0.92148 0.61589 0.14800
H 	H 	0.45698 0.78133 0.56177 0.16000
C 	C 	0.13082 0.66187 0.68610 -0.09400
C 	C 	0.16983 0.69876 0.71438 -0.01100
C 	C 	0.22709 0.70013 0.74303 0.14500
C 	C 	0.24727 0.66789 0.74175 -0.07600
C 	C 	0.21125 0.63501 0.71158 -0.04600
C 	C 	0.15122 0.62995 0.68466 0.15300
C 	C 	0.15504 0.74145 0.71094 0.01400
O 	O 	0.26349 0.73305 0.77222 -0.27300
H 	H 	0.29291 0.67111 0.76300 0.07200
O 	O 	0.11525 0.59778 0.65513 -0.28000
H 	H 	0.08629 0.66014 0.66415 0.07000
C 	C 	0.19161 0.80741 0.68996 0.11600
C 	C 	0.16690 0.84333 0.67843 -0.03300
C 	C 	0.10343 0.81259 0.68503 -0.12300
C 	C 	0.07437 0.75111 0.71218 0.20300
C 	C 	0.09868 0.71463 0.72399 -0.11400
O 	O 	0.25028 0.83626 0.67981 -0.27300
H 	H 	0.19451 0.89363 0.66200 0.05200
O 	O 	0.02087 0.72571 0.72603 -0.28000
H 	H 	0.07237 0.66502 0.74204 0.08300
H 	H 	0.07979 0.55217 0.66688 0.15300
H 	H 	0.23421 0.82956 0.65290 0.15200
H 	H 	0.04304 0.74070 0.75076 0.15900
H 	H 	0.30099 0.77767 0.76098 0.16200
C 	C 	0.15503 0.39841 0.18781 -0.09200
C 	C 	0.16335 0.41028 0.15115 -0.00700
C 	C 	0.19194 0.47336 0.12576 0.14100
C 	C 	0.21667 0.52481 0.13846 -0.07400
C 	C 	0.21605 0.51426 0.17716 -0.04700
C 	C 	0.18216 0.45030 0.20113 0.15700
C 	C 	0.14614 0.35753 0.14072 0.01200
O 	O 	0.19708 0.48507 0.08891 -0.27200
H 	H 	0.24139 0.57385 0.11949 0.07200
O 	O 	0.17747 0.43873 0.23808 -0.27600
H 	H 	0.13058 0.34940 0.20683 0.07800
C 	C 	0.18459 0.33187 0.16322 0.12300
C 	C 	0.16196 0.27587 0.15690 -0.02500
C 	C 	0.10034 0.24443 0.12888 -0.11200
C 	C 	0.06578 0.27378 0.10378 0.19200
C 	C 	0.08885 0.33025 0.10974 -0.10800
O 	O 	0.24432 0.36159 0.19125 -0.26700
H 	H 	0.19038 0.25498 0.17525 0.07900
O 	O 	0.00862 0.24657 0.07399 -0.28000
H 	H 	0.06040 0.35113 0.09139 0.08800
H 	H 	0.21923 0.44123 0.25711 0.15600
H 	H 	0.23012 0.33918 0.21692 0.16100
H 	H 	0.96852 0.22132 0.08523 0.15800
H 	H 	0.24275 0.49604 0.09361 0.15700
C 	C 	0.55280 0.77733 0.18774 -0.09300
C 	C 	0.58439 0.74538 0.21225 -0.00900
C 	C 	0.55459 0.68948 0.24282 0.14200
C 	C 	0.49193 0.66433 0.24749 -0.07500
C 	C 	0.45763 0.69347 0.22097 -0.04800
C 	C 	0.48953 0.75150 0.19184 0.15500
C 	C 	0.64917 0.77138 0.20604 0.01500
O 	O 	0.58647 0.65931 0.26803 -0.26800
H 	H 	0.46808 0.62011 0.27033 0.07000
O 	O 	0.45645 0.78025 0.16542 -0.27900
H 	H 	0.57653 0.82138 0.16479 0.06900
C 	C 	0.64966 0.77102 0.17050 0.11600
C 	C 	0.71240 0.80989 0.15999 -0.02300
C 	C 	0.71177 0.80511 0.23273 -0.10700
O 	O 	0.58888 0.73341 0.14583 -0.26600
H 	H 	0.71230 0.81228 0.13156 0.06400
H 	H 	0.71177 0.80391 0.26074 0.09300
H 	H 	0.47323 0.81283 0.17784 0.14900
H 	H 	0.57456 0.76227 0.12605 0.14900
H 	H 	0.56785 0.62677 0.25485 0.16000
C 	C 	0.22553 0.75431 0.17766 -0.09300
C 	C 	0.24243 0.76705 0.21338 -0.01100
C 	C 	0.26946 0.73787 0.24987 0.14300
C 	C 	0.28106 0.69754 0.25027 -0.07600
C 	C 	0.26704 0.68712 0.21428 -0.04500
C 	C 	0.23798 0.71481 0.17793 0.15400
C 	C 	0.23412 0.81299 0.21203 0.01400
O 	O 	0.28430 0.74850 0.28513 -0.27300
H 	H 	0.30291 0.67597 0.27839 0.07000
O 	O 	0.22573 0.70660 0.14240 -0.27900
H 	H 	0.20424 0.77637 0.14951 0.06600
C 	C 	0.28188 0.88046 0.19844 0.11300
C 	C 	0.26532 0.92271 0.18745 -0.03300
C 	C 	0.20051 0.89781 0.18903 -0.12500
C 	C 	0.15670 0.83136 0.20751 0.19700
C 	C 	0.17340 0.78918 0.21853 -0.11500
O 	O 	0.34411 0.90498 0.19507 -0.27200
H 	H 	0.30090 0.97426 0.17513 0.06500
O 	O 	0.09480 0.80648 0.21154 -0.29100
H 	H 	0.13721 0.73739 0.22996 0.08600
H 	H 	0.17683 0.66825 0.13746 0.15000
H 	H 	0.33592 0.90595 0.16730 0.14600
H 	H 	0.10482 0.80954 0.23850 0.16500
H 	H 	0.33307 0.78749 0.28877 0.15700
H 	H 	0.75392 0.14354 0.49469 0.07900
C 	C 	0.76551 0.28929 0.50148 -0.07300
H 	H 	0.73857 0.30928 0.47668 0.06900
H 	H 	0.75216 0.24599 0.44593 0.15100
O 	O 	0.70591 0.56265 0.53932 -0.26500
O 	O 	0.72397 0.34341 0.64353 -0.28500
C 	C 	0.47453 0.11135 0.60989 -0.09500
C 	C 	0.41993 0.11287 0.57995 0.00900
C 	C 	0.42833 0.14942 0.54064 0.13300
C 	C 	0.49277 0.18814 0.53225 -0.06800
C 	C 	0.54893 0.19043 0.56288 -0.05000
C 	C 	0.53897 0.15007 0.60152 0.16300
C 	C 	0.35351 0.07516 0.58955 -0.01400
O 	O 	0.37452 0.14969 0.51082 -0.25700
H 	H 	0.50004 0.21901 0.50242 0.07200
O 	O 	0.59275 0.14974 0.63135 -0.27700
H 	H 	0.46753 0.08145 0.63990 0.08600
C 	C 	0.30457 0.00880 0.58983 0.19200
C 	C 	0.23837 0.97522 0.59364 -0.10700
C 	C 	0.21986 0.00747 0.59686 -0.04600
C 	C 	0.27055 0.07312 0.59923 0.17700
C 	C 	0.33699 0.10669 0.59537 -0.08000
O 	O 	0.32110 0.97682 0.58580 -0.30100
H 	H 	0.20022 0.92457 0.59228 0.07400
O 	O 	0.25405 0.10586 0.60235 -0.26300
H 	H 	0.37496 0.15784 0.59555 0.08200
H 	H 	0.61560 0.18397 0.64450 0.16000
H 	H 	0.30858 0.98186 0.55656 0.15400
H 	H 	0.26512 0.10034 0.63151 0.16000
H 	H 	0.34975 0.11335 0.49899 0.16700
H 	H 	0.71004 0.08571 0.04157 0.07800
C 	C 	0.74303 0.28168 0.98340 -0.06900
O 	O 	0.72846 0.22545 0.94664 -0.27300
H 	H 	0.71521 0.29915 0.95684 0.07200
H 	H 	0.68092 0.18472 0.94729 0.15500
H 	H 	0.81789 0.42470 0.10693 0.07100
C 	C 	0.46615 0.23947 0.00118 -0.10400
C 	C 	0.46342 0.25111 0.03081 -0.00200
C 	C 	0.52517 0.29025 0.05605 0.13500
C 	C 	0.58836 0.31434 0.05305 -0.07100
C 	C 	0.59161 0.30516 0.02241 -0.05700
C 	C 	0.53004 0.26820 0.99602 0.17000
C 	C 	0.39593 0.21776 0.03772 0.01300
O 	O 	0.52366 0.30380 0.08432 -0.27400
H 	H 	0.63535 0.34199 0.07386 0.06800
O 	O 	0.53209 0.25960 0.96548 -0.28300
H 	H 	0.41882 0.20817 0.98220 0.08300
C 	C 	0.34591 0.22666 0.00695 0.11700
C 	C 	0.28015 0.19009 0.01303 -0.02700
C 	C 	0.26444 0.14550 0.04983 -0.12100
C 	C 	0.31696 0.14257 0.08184 0.19500
C 	C 	0.38141 0.17649 0.07533 -0.10800
O 	O 	0.36160 0.27187 0.97137 -0.26200
H 	H 	0.24044 0.19403 0.98853 0.08000
O 	O 	0.30405 0.10349 0.11899 -0.28000
H 	H 	0.41991 0.17011 0.09942 0.09000
H 	H 	0.53499 0.29637 0.94232 0.15800
H 	H 	0.34504 0.24720 0.95300 0.15700
H 	H 	0.31622 0.13165 0.13318 0.16200
H 	H 	0.52667 0.34445 0.07065 0.15600
O 	O 	0.03682 0.00588 0.12155 -0.56700
O 	O 	0.02991 0.98351 0.22122 -0.36300
C 	C 	0.00884 0.97166 0.49502 0.27500
O 	O 	0.02072 0.00775 0.51335 -0.32200
O 	O 	0.97441 0.03494 0.70676 -0.36400
C 	C 	0.02395 0.00112 0.45503 -0.06100
C 	C 	0.04101 0.00909 0.38644 0.02700
C 	C 	0.04824 0.00784 0.35156 0.03500
C 	C 	0.04328 0.00336 0.27966 -0.06200
C 	C 	0.68258 0.80049 0.65501 0.20700
C 	C 	0.01224 0.99988 0.23720 0.29200
O 	O 	0.85713 0.50563 0.14219 -0.27100
C 	C 	0.76708 0.27752 0.54101 -0.04900
O 	O 	0.79559 0.28568 0.45509 -0.27000
C 	C 	0.83623 0.47354 0.08805 -0.07700
C 	C 	0.79712 0.27363 0.49384 0.13700
C 	C 	0.74877 0.40244 0.61595 0.15600
H 	H 	0.76552 0.34517 0.66212 0.15500
H 	H 	0.72665 0.58503 0.51624 0.16700
C 	C 	0.75293 0.24132 0.98187 0.14400
C 	C 	0.76725 0.29800 0.01935 -0.04900
H 	H 	0.90209 0.51307 0.15883 0.16500
C 	C 	0.79990 0.39623 0.02934 -0.09000
C 	C 	0.76031 0.34450 0.55864 -0.09500
C 	C 	0.72288 0.86780 0.63713 -0.11600
H 	H 	0.72176 0.95172 0.60047 0.05800
O 	O 	0.71034 0.76642 0.67377 -0.27700
H 	H 	0.72826 0.76775 0.70228 0.17300
C 	C 	0.77434 0.84475 0.22195 0.19400
O 	O 	0.77998 0.06581 0.50417 -0.27800
H 	H 	0.78021 0.07405 0.47659 0.16300
H 	H 	0.76552 0.19701 0.61899 0.15700
C 	C 	0.75709 0.41032 0.58032 -0.04900
H 	H 	0.70476 0.97750 0.04383 0.13700
H 	H 	0.78949 0.25530 0.10319 0.15300
C 	C 	0.85872 0.52133 0.10351 0.14400
C 	C 	0.83024 0.48645 0.04734 -0.04400
Co	Co	0.03824 0.92110 0.13712 1.18500
H 	H 	0.75075 0.44609 0.64825 0.07600
O 	O 	0.73782 0.00297 0.06448 -0.26800
H 	H 	0.81518 0.38211 0.56031 0.07200
C 	C 	0.77448 0.84979 0.18450 -0.11600
C 	C 	0.80807 0.16279 0.50625 -0.11400
C 	C 	0.83121 0.24666 0.52593 -0.00600
C 	C 	0.80286 0.25236 0.57307 0.15600
O 	O 	0.80633 0.24229 0.61186 -0.27700
C 	C 	0.75912 0.59313 0.56929 0.12700
C 	C 	0.77719 0.65053 0.57063 -0.02700
C 	C 	0.78686 0.51420 0.59412 -0.00700
H 	H 	0.75335 0.67373 0.54607 0.07000
C 	C 	0.78796 0.47232 0.55412 -0.07300
C 	C 	0.76162 0.45372 0.62211 -0.09400
H 	H 	0.79662 0.47939 0.52727 0.07000
C 	C 	0.75517 0.10611 0.03332 -0.11400
C 	C 	0.79680 0.17293 0.01562 0.01200
C 	C 	0.77512 0.06665 0.04358 0.19100
C 	C 	0.78844 0.21789 0.01626 -0.01200
C 	C 	0.80327 0.27491 0.05368 0.15400
C 	C 	0.81439 0.23568 0.05189 -0.08900
O 	O 	0.82753 0.29047 0.08900 -0.28100
H 	H 	0.81033 0.63192 0.06286 0.08600
H 	H 	0.80599 0.55652 0.96849 0.15700
C 	C 	0.83515 0.23750 0.56547 -0.08900
O 	O 	0.98711 0.90683 0.58677 -0.75800
O 	O 	0.99450 0.98392 0.01424 -0.37100
C 	C 	0.97101 0.98166 0.72890 0.30800
O 	O 	0.02636 0.91934 0.02937 -0.38100
O 	O 	0.97097 0.90791 0.50754 -0.35400
H 	H 	0.85410 0.41711 0.03649 0.07900
Co	Co	0.97525 0.95709 0.16638 1.18400
Co	Co	0.93946 0.04834 0.15929 1.17600
C 	C 	0.99694 0.81407 0.11294 0.33300
O 	O 	0.91508 0.09804 0.10244 -0.40600
O 	O 	0.97838 0.02480 0.14052 -0.74700
C 	C 	0.88257 0.07507 0.07080 0.33500
O 	O 	0.99131 0.89171 0.17816 -0.44600
C 	C 	0.83512 0.90564 0.16762 0.31900
C 	C 	0.00909 0.95887 0.00279 0.31500
O 	O 	0.90088 0.04793 0.06511 -0.38600
O 	O 	0.84340 0.96175 0.15097 -0.39600
O 	O 	0.86885 0.89524 0.16015 -0.38700
O 	O 	0.95813 0.00068 0.21881 -0.36300
O 	O 	0.06188 0.85178 0.11162 -0.40600
O 	O 	0.97210 0.83661 0.11732 -0.38100
Co	Co	0.93344 0.93247 0.66081 1.18500
Co	Co	0.96407 0.86776 0.63085 1.18700
Co	Co	0.92190 0.04535 0.64712 1.17500
C 	C 	0.87041 0.75168 0.59459 0.32400
O 	O 	0.87368 0.05182 0.58718 -0.38100
O 	O 	0.95042 0.00575 0.63409 -0.74600
C 	C 	0.90969 0.09669 0.55971 0.32200
O 	O 	0.93972 0.85907 0.67599 -0.45100
C 	C 	0.79878 0.90649 0.64751 0.32700
O 	O 	0.96124 0.95450 0.60635 -0.57500
O 	O 	0.96336 0.10379 0.55980 -0.36900
O 	O 	0.83409 0.95510 0.66339 -0.39600
O 	O 	0.82809 0.88237 0.65057 -0.37300
O 	O 	0.98403 0.95674 0.71628 -0.36900
O 	O 	0.89393 0.78923 0.56201 -0.37800
O 	O 	0.87915 0.77632 0.61951 -0.36800
C 	C 	0.98803 0.96031 0.95968 -0.12200
C 	C 	0.95104 0.90213 0.94900 0.12500
C 	C 	0.95593 0.90456 0.91406 0.06800
C 	C 	0.98529 0.96414 0.88534 -0.00500
C 	C 	0.98202 0.96520 0.84585 0.02500
C 	C 	0.97342 0.96252 0.77199 -0.10500
C 	C 	0.91319 0.93146 0.78302 0.11500
C 	C 	0.91822 0.93865 0.81772 0.06400
Br	Br	0.89004 0.81946 0.98068 -0.19800
Br	Br	0.83841 0.91470 0.82581 -0.16900
Br	Br	0.92526 0.82677 0.90648 -0.16600
Br	Br	0.82408 0.87421 0.75279 -0.20900
C 	C 	0.96894 0.98564 0.42072 0.10000
C 	C 	0.97791 0.99100 0.38610 0.05800
C 	C 	0.01953 0.94812 0.34635 0.05000
C 	C 	0.01577 0.94571 0.31002 0.09700
Br	Br	0.88162 0.95717 0.42132 -0.17800
Br	Br	0.97058 0.86349 0.30109 -0.16700
Br	Br	0.90386 0.97300 0.33851 -0.18000
Br	Br	0.98443 0.86987 0.38854 -0.16600
O 	O 	0.83520 0.87984 0.24760 -0.26600
H 	H 	0.84053 0.91985 0.24253 0.15700
C 	C 	0.85611 0.22119 0.51853 0.01200
C 	C 	0.92672 0.24729 0.53143 0.11700
C 	C 	0.94702 0.20987 0.53823 -0.03100
C 	C 	0.89694 0.14616 0.53293 -0.12300
C 	C 	0.82856 0.12569 0.51286 0.19700
O 	O 	0.97506 0.30648 0.54102 -0.27200
H 	H 	0.00055 0.22750 0.55185 0.06000
H 	H 	0.86138 0.21681 0.59033 0.07500
H 	H 	0.99017 0.33889 0.51596 0.15700
C 	C 	0.84105 0.59201 0.63291 -0.11600
C 	C 	0.79499 0.56653 0.59909 0.01100
C 	C 	0.83018 0.68087 0.60186 -0.12200
C 	C 	0.85679 0.64782 0.63490 0.19400
O 	O 	0.90273 0.67305 0.66771 -0.27700
H 	H 	0.86641 0.56995 0.65698 0.07800
C 	C 	0.80463 0.52466 0.56153 0.13800
O 	O 	0.83632 0.58547 0.53628 -0.27700
H 	H 	0.87402 0.65301 0.68604 0.16500
H 	H 	0.88658 0.60690 0.54806 0.15200
C 	C 	0.85235 0.19767 0.00257 0.11900
C 	C 	0.87181 0.15780 0.01277 -0.02600
C 	C 	0.83880 0.09496 0.03803 -0.12000
O 	O 	0.89149 0.26208 0.98322 -0.25500
H 	H 	0.91855 0.17892 0.00598 0.07000
H 	H 	0.84222 0.21819 0.07842 0.07200
H 	H 	0.86992 0.26346 0.95429 0.16200
C 	C 	0.87826 0.59848 0.03881 -0.09400
C 	C 	0.87834 0.58372 0.07857 -0.00800
C 	C 	0.85387 0.55003 0.02308 0.15100
C 	C 	0.90235 0.63478 0.09459 0.01400
O 	O 	0.85155 0.56448 0.98372 -0.26800
H 	H 	0.89563 0.64709 0.01982 0.08300
C 	C 	0.96709 0.66391 0.12140 0.12200
C 	C 	0.99241 0.71625 0.13338 -0.02300
C 	C 	0.95647 0.74384 0.11615 -0.11600
C 	C 	0.88838 0.71019 0.09310 0.20400
C 	C 	0.86183 0.65630 0.08183 -0.10700
O 	O 	0.00652 0.64234 0.13519 -0.27700
H 	H 	0.04327 0.73944 0.15311 0.06600
O 	O 	0.84658 0.72732 0.08353 -0.28000
H 	H 	0.03564 0.66879 0.11574 0.14700
H 	H 	0.85387 0.76021 0.05757 0.17500
