data_crystal

_cell_length_a 13.82977
_cell_length_b 14.33593
_cell_length_c 33.76536
_cell_angle_alpha 89.99911
_cell_angle_beta  90.00249
_cell_angle_gamma 119.36840

_symmetry_space_group_name_	'P 1'
_symmetry_space_group_name_H-M	'P 1'

loop_
_symmetry_equiv_pos_as_xyz
  x,y,z

loop_
_atom_site_label
_atom_site_type_symbol
_atom_site_fract_x
_atom_site_fract_y
_atom_site_fract_z
_atom_site_charge
C 	C 	0.42389 0.10860 0.85716 0.31900
C 	C 	0.72260 0.56670 0.87872 0.34100
C 	C 	0.69829 0.24920 0.82309 0.33000
C 	C 	0.45620 0.39388 0.93188 0.28800
C 	C 	0.85962 0.37288 0.93419 0.30400
C 	C 	0.59139 0.20212 0.98948 0.28900
Ni	Ni	0.55922 0.34183 0.85950 1.11200
Ni	Ni	0.67564 0.41049 0.94533 1.12400
Ni	Ni	0.64362 0.19443 0.90565 1.12100
O 	O 	0.42060 0.19597 0.86567 -0.38300
O 	O 	0.50467 0.09086 0.87152 -0.37300
O 	O 	0.82218 0.43804 0.92518 -0.38700
O 	O 	0.69882 0.49019 0.85285 -0.38200
O 	O 	0.69728 0.54426 0.91636 -0.38500
O 	O 	0.56501 0.13969 0.95768 -0.37900
O 	O 	0.61729 0.27169 0.81639 -0.37500
O 	O 	0.74011 0.26152 0.85832 -0.39000
O 	O 	0.66699 0.30535 0.98770 -0.38100
O 	O 	0.48420 0.41303 0.89355 -0.36100
O 	O 	0.52355 0.38746 0.95850 -0.37700
O 	O 	0.79050 0.26831 0.93574 -0.36800
O 	O 	0.60257 0.30297 0.90647 -0.71400
H 	H 	0.53068 0.26003 0.91968 0.16300
C 	C 	0.42771 0.17884 0.65090 0.32400
C 	C 	0.82220 0.36738 0.54129 0.31300
C 	C 	0.60210 0.05912 0.61964 0.30800
C 	C 	0.66399 0.45986 0.55903 0.28900
C 	C 	0.88378 0.29711 0.65831 0.33700
C 	C 	0.74149 0.46993 0.69936 0.31700
Ni	Ni	0.59876 0.24183 0.58222 1.11400
Ni	Ni	0.81912 0.44243 0.62039 1.11900
Ni	Ni	0.65595 0.23952 0.67562 1.12200
O 	O 	0.45193 0.15597 0.61521 -0.37900
O 	O 	0.50444 0.22620 0.67873 -0.38900
O 	O 	0.90890 0.39835 0.65512 -0.38400
O 	O 	0.71581 0.30297 0.53615 -0.37300
O 	O 	0.86482 0.37810 0.57637 -0.39500
O 	O 	0.72828 0.37458 0.70969 -0.37800
O 	O 	0.64970 0.13142 0.59234 -0.38200
O 	O 	0.57709 0.08558 0.65400 -0.37100
O 	O 	0.79188 0.51753 0.66578 -0.37300
O 	O 	0.57878 0.37315 0.57302 -0.37400
O 	O 	0.75848 0.51096 0.57993 -0.36800
O 	O 	0.79367 0.22887 0.67700 -0.38000
O 	O 	0.67785 0.31845 0.62731 -0.71100
H 	H 	0.63591 0.35502 0.63467 0.15600
C 	C 	0.78961 0.72196 0.72269 0.32500
C 	C 	0.19578 0.06086 0.80096 0.34100
C 	C 	0.78158 0.78019 0.80914 0.31800
C 	C 	0.18685 0.03311 0.71348 0.30300
C 	C 	0.86463 0.13323 0.78707 0.32700
C 	C 	0.91490 0.10287 0.68269 0.33600
Ni	Ni	0.00044 0.87172 0.76845 1.10900
Ni	Ni	0.05305 0.12122 0.75274 1.11500
Ni	Ni	0.80061 0.92886 0.74221 1.11800
O 	O 	0.88940 0.74147 0.73391 -0.37000
O 	O 	0.77430 0.80014 0.70956 -0.38700
O 	O 	0.96104 0.13888 0.79509 -0.38000
O 	O 	0.12153 0.96329 0.80932 -0.37800
O 	O 	0.16494 0.13268 0.79462 -0.38900
O 	O 	0.83073 0.00576 0.68941 -0.37900
O 	O 	0.88911 0.82850 0.81466 -0.36900
O 	O 	0.73500 0.82919 0.79020 -0.38100
O 	O 	0.97466 0.16353 0.71220 -0.39000
O 	O 	0.12589 0.93113 0.72527 -0.37400
O 	O 	0.14451 0.09886 0.71027 -0.38400
O 	O 	0.78405 0.04735 0.76966 -0.37400
O 	O 	0.95485 0.96936 0.74968 -0.69500
H 	H 	0.96484 0.95899 0.72142 0.14000
C 	C 	0.58513 0.89761 0.36468 0.32000
C 	C 	0.27412 0.43977 0.37969 0.34300
C 	C 	0.31036 0.77148 0.33213 0.32900
C 	C 	0.54325 0.59489 0.43172 0.28700
C 	C 	0.15145 0.63752 0.44134 0.30500
C 	C 	0.42634 0.78755 0.49793 0.28900
Ni	Ni	0.44298 0.66512 0.36350 1.11300
Ni	Ni	0.32935 0.58767 0.44937 1.12400
Ni	Ni	0.37159 0.81388 0.41580 1.12000
O 	O 	0.58537 0.80768 0.37091 -0.38500
O 	O 	0.51091 0.91886 0.38253 -0.37600
O 	O 	0.18326 0.56816 0.43164 -0.38600
O 	O 	0.30011 0.51998 0.35535 -0.38300
O 	O 	0.30139 0.45670 0.41730 -0.38900
O 	O 	0.45186 0.85726 0.46836 -0.38000
O 	O 	0.38702 0.74411 0.32366 -0.37700
O 	O 	0.27230 0.76106 0.36807 -0.38900
O 	O 	0.34424 0.68780 0.49436 -0.38300
O 	O 	0.51477 0.58443 0.39341 -0.36100
O 	O 	0.48040 0.60362 0.45974 -0.37400
O 	O 	0.22585 0.73981 0.44606 -0.37400
O 	O 	0.40410 0.69979 0.41220 -0.71500
H 	H 	0.47704 0.73833 0.42511 0.16100
C 	C 	0.57043 0.81335 0.15082 0.32500
C 	C 	0.17739 0.64458 0.04000 0.31300
C 	C 	0.41892 0.94917 0.11907 0.30700
C 	C 	0.32400 0.53951 0.05600 0.28900
C 	C 	0.11650 0.71139 0.15705 0.33700
C 	C 	0.24880 0.53255 0.19784 0.31900
Ni	Ni	0.40144 0.75991 0.08090 1.11300
Ni	Ni	0.17694 0.56351 0.11874 1.12000
Ni	Ni	0.34433 0.76353 0.17393 1.12200
O 	O 	0.55009 0.83303 0.11391 -0.38200
O 	O 	0.49089 0.76667 0.17779 -0.38900
O 	O 	0.09215 0.61030 0.15477 -0.38500
O 	O 	0.28387 0.70881 0.03512 -0.37300
O 	O 	0.13415 0.63195 0.07515 -0.39300
O 	O 	0.26264 0.62840 0.20757 -0.37900
O 	O 	0.36017 0.87648 0.09324 -0.38100
O 	O 	0.43596 0.91857 0.15384 -0.37100
O 	O 	0.20223 0.48612 0.16370 -0.37300
O 	O 	0.41274 0.62499 0.06893 -0.37400
O 	O 	0.23181 0.49104 0.07808 -0.37100
O 	O 	0.21213 0.78379 0.17162 -0.37800
O 	O 	0.32115 0.68358 0.12565 -0.71200
H 	H 	0.36076 0.64434 0.13251 0.16000
C 	C 	0.20181 0.28081 0.22255 0.32400
C 	C 	0.80247 0.94266 0.30375 0.34300
C 	C 	0.21436 0.22764 0.30908 0.31900
C 	C 	0.80749 0.96395 0.21501 0.30200
C 	C 	0.13739 0.88048 0.29290 0.32500
C 	C 	0.08176 0.90092 0.18557 0.33700
Ni	Ni	0.99400 0.13025 0.26942 1.11000
Ni	Ni	0.94563 0.88223 0.25566 1.11500
Ni	Ni	0.19609 0.07708 0.24336 1.11900
O 	O 	0.10120 0.25929 0.23361 -0.37000
O 	O 	0.21963 0.20370 0.20999 -0.38700
O 	O 	0.03937 0.87295 0.29951 -0.38000
O 	O 	0.87914 0.03921 0.31188 -0.38000
O 	O 	0.82989 0.86898 0.29621 -0.39000
O 	O 	0.16568 0.99846 0.19110 -0.38000
O 	O 	0.10716 0.17746 0.31498 -0.37100
O 	O 	0.26218 0.17933 0.29057 -0.38100
O 	O 	0.02732 0.84135 0.21604 -0.39100
O 	O 	0.86483 0.06576 0.22754 -0.37400
O 	O 	0.85257 0.90019 0.21260 -0.38400
O 	O 	0.21380 0.95994 0.27138 -0.37400
O 	O 	0.04123 0.03425 0.25091 -0.69600
H 	H 	0.02999 0.04313 0.22263 0.14200
C 	C 	0.27815 0.38208 0.21422 -0.11600
C 	C 	0.26347 0.47409 0.22565 -0.10900
H 	H 	0.35498 0.39800 0.19976 0.07800
H 	H 	0.28266 0.50387 0.25584 0.07800
C 	C 	0.71030 0.93304 0.19723 -0.11000
C 	C 	0.67557 0.85991 0.16277 -0.11500
H 	H 	0.66595 0.97656 0.20336 0.07800
H 	H 	0.73892 0.87015 0.14142 0.08200
C 	C 	0.06972 0.85411 0.15023 -0.11500
C 	C 	0.04031 0.73975 0.14794 -0.10500
H 	H 	0.10601 0.90379 0.12424 0.08200
H 	H 	0.96000 0.68099 0.13633 0.07400
C 	C 	0.65264 0.96241 0.33637 -0.10900
C 	C 	0.69497 0.91560 0.30594 -0.13200
H 	H 	0.66017 0.04056 0.33145 0.07700
H 	H 	0.63462 0.84104 0.29206 0.07200
C 	C 	0.27704 0.31700 0.32967 -0.11400
C 	C 	0.23155 0.34037 0.36577 -0.12300
H 	H 	0.36533 0.36395 0.32343 0.07300
H 	H 	0.18401 0.27429 0.38596 0.09100
C 	C 	0.26699 0.80607 0.30346 -0.11100
C 	C 	0.16203 0.81070 0.31117 -0.11200
H 	H 	0.30318 0.82303 0.27398 0.07500
H 	H 	0.10140 0.75251 0.33148 0.09000
C 	C 	0.46720 0.82817 0.53803 -0.07100
C 	C 	0.39442 0.83105 0.56631 -0.02300
C 	C 	0.43652 0.88814 0.60162 0.03500
C 	C 	0.55210 0.94653 0.60749 -0.08100
C 	C 	0.61872 0.91829 0.58469 -0.01600
C 	C 	0.57842 0.86437 0.54867 0.03600
S 	S 	0.34475 0.88809 0.63754 -0.02400
S 	S 	0.66791 0.84495 0.51713 -0.03600
H 	H 	0.71795 0.93005 0.49168 0.04200
H 	H 	0.31877 0.80629 0.66379 0.03900
H 	H 	0.30609 0.79102 0.56059 0.04600
H 	H 	0.70612 0.95275 0.59164 0.04800
C 	C 	0.88645 0.44749 0.51059 -0.08900
C 	C 	0.95351 0.55525 0.52165 -0.01600
C 	C 	0.02241 0.63057 0.49381 0.03700
C 	C 	0.03788 0.59547 0.45678 -0.07100
C 	C 	0.95612 0.49446 0.44333 -0.02600
C 	C 	0.88279 0.41857 0.47039 0.04400
S 	S 	0.07707 0.76775 0.50366 -0.02800
S 	S 	0.79561 0.28635 0.45428 -0.03100
H 	H 	0.84930 0.22817 0.45874 0.04200
H 	H 	0.18246 0.81049 0.51833 0.04400
H 	H 	0.95196 0.58043 0.55176 0.02800
H 	H 	0.95975 0.47023 0.41320 0.05200
C 	C 	0.62100 0.55986 0.44471 -0.06500
C 	C 	0.57659 0.45063 0.45126 -0.02600
C 	C 	0.58846 0.41456 0.48839 0.05300
C 	C 	0.66099 0.49045 0.51701 -0.07300
C 	C 	0.72910 0.59720 0.50488 -0.01600
C 	C 	0.71239 0.63029 0.46761 0.03400
S 	S 	0.50689 0.27662 0.49870 -0.07600
S 	S 	0.80993 0.75533 0.44838 -0.02800
H 	H 	0.76211 0.81806 0.44212 0.04500
H 	H 	0.55229 0.22099 0.48107 0.04400
H 	H 	0.51646 0.39433 0.43048 0.05400
H 	H 	0.79324 0.65409 0.52435 0.05200
C 	C 	0.95413 0.26469 0.64543 -0.10700
C 	C 	0.92138 0.14910 0.64753 -0.11400
H 	H 	0.02981 0.32018 0.63012 0.07600
H 	H 	0.87992 0.09899 0.62209 0.08100
C 	C 	0.32160 0.13177 0.66155 -0.11400
C 	C 	0.28500 0.06234 0.69699 -0.11000
H 	H 	0.25979 0.11853 0.63909 0.08200
H 	H 	0.32902 0.01976 0.70509 0.07700
C 	C 	0.71158 0.62099 0.71464 -0.11700
C 	C 	0.72364 0.52774 0.72661 -0.10700
H 	H 	0.63517 0.60631 0.70017 0.07700
H 	H 	0.70078 0.49706 0.75658 0.07700
C 	C 	0.97113 0.41981 0.95218 -0.07000
C 	C 	0.04984 0.52397 0.94040 -0.02600
C 	C 	0.11661 0.59974 0.96880 0.04100
C 	C 	0.11309 0.56738 0.00853 -0.08700
C 	C 	0.04831 0.45874 0.01830 -0.01400
C 	C 	0.98399 0.38426 0.98956 0.03400
S 	S 	0.19018 0.73582 0.95534 -0.02500
S 	S 	0.92533 0.24766 0.00023 -0.02100
H 	H 	0.85119 0.22618 0.03037 0.03900
H 	H 	0.27926 0.75421 0.93228 0.03800
H 	H 	0.04755 0.55003 0.91044 0.05200
H 	H 	0.04625 0.43223 0.04846 0.02900
C 	C 	0.56016 0.15168 0.02877 -0.07000
C 	C 	0.49323 0.17447 0.05385 -0.02300
C 	C 	0.46100 0.12414 0.09102 0.03700
C 	C 	0.49962 0.05441 0.10339 -0.07600
C 	C 	0.59022 0.05936 0.08314 -0.03600
C 	C 	0.60565 0.08930 0.04333 0.03900
S 	S 	0.36817 0.14392 0.12062 -0.02600
S 	S 	0.65261 0.02416 0.01069 -0.05000
H 	H 	0.74783 0.02920 0.02488 0.03900
H 	H 	0.26217 0.07912 0.10745 0.04600
H 	H 	0.46274 0.22725 0.04392 0.04500
H 	H 	0.63388 0.02103 0.09552 0.05300
C 	C 	0.37115 0.41669 0.94726 -0.06500
C 	C 	0.39828 0.52394 0.94860 -0.02500
C 	C 	0.38868 0.56772 0.98431 0.04700
C 	C 	0.32631 0.49795 0.01594 -0.07200
C 	C 	0.27158 0.38691 0.00939 -0.01700
C 	C 	0.29457 0.34594 0.97513 0.03300
S 	S 	0.47071 0.70736 0.99069 -0.06700
S 	S 	0.23769 0.20686 0.96956 -0.02800
H 	H 	0.30767 0.17559 0.98620 0.04100
H 	H 	0.42339 0.76006 0.97236 0.04400
H 	H 	0.44760 0.57705 0.92488 0.05300
H 	H 	0.21786 0.33258 0.03202 0.05100
C 	C 	0.84595 0.21217 0.80019 -0.11200
C 	C 	0.73842 0.21292 0.79397 -0.10900
H 	H 	0.91152 0.27822 0.81658 0.09000
H 	H 	0.69774 0.19167 0.76527 0.07000
C 	C 	0.35285 0.04398 0.82949 -0.10600
C 	C 	0.30439 0.09063 0.80127 -0.13200
H 	H 	0.34759 0.96752 0.82284 0.07500
H 	H 	0.36164 0.16636 0.78734 0.07300
C 	C 	0.71746 0.69150 0.82995 -0.11300
C 	C 	0.76068 0.66738 0.86651 -0.12100
H 	H 	0.62923 0.64565 0.82349 0.07200
H 	H 	0.80319 0.73181 0.88780 0.09000
