data_crystal

_cell_length_a 18.24967
_cell_length_b 18.75478
_cell_length_c 17.74116
_cell_angle_alpha 95.44595
_cell_angle_beta  95.44151
_cell_angle_gamma 126.38616

_symmetry_space_group_name_	'P 1'
_symmetry_space_group_name_H-M	'P 1'

loop_
_symmetry_equiv_pos_as_xyz
  x,y,z

loop_
_atom_site_label
_atom_site_type_symbol
_atom_site_fract_x
_atom_site_fract_y
_atom_site_fract_z
_atom_site_charge
C 	C 	0.96087 0.04592 0.01175 0.03700
C 	C 	0.05346 0.08336 0.00722 -0.05300
C 	C 	0.07832 0.02662 0.98901 0.00300
C 	C 	0.01096 0.93298 0.97556 -0.06700
C 	C 	0.91897 0.89544 0.98036 0.03200
C 	C 	0.89382 0.95178 0.99803 -0.10800
H 	H 	0.10567 0.15597 0.01778 0.04800
H 	H 	0.03040 0.88928 0.96236 0.04500
H 	H 	0.82221 0.92246 0.00070 0.06900
C 	C 	0.89903 0.98648 0.40283 0.02900
C 	C 	0.99594 0.05007 0.42117 -0.07300
C 	C 	0.05132 0.02249 0.43717 0.01600
C 	C 	0.01021 0.93125 0.43547 -0.06400
C 	C 	0.91374 0.86703 0.41869 0.02000
C 	C 	0.85762 0.89436 0.40204 -0.07100
H 	H 	0.02826 0.12113 0.42382 0.04700
H 	H 	0.05338 0.91015 0.44758 0.04800
H 	H 	0.78282 0.84481 0.38935 0.04700
Cu	Cu	0.64121 0.22927 0.03104 0.93000
Cu	Cu	0.77636 0.28859 0.90598 0.85500
Cu	Cu	0.66750 0.34638 0.91121 0.88300
Cu	Cu	0.59111 0.36466 0.04766 0.89900
C 	C 	0.63085 0.29796 0.17819 0.19500
O 	O 	0.49940 0.14882 0.00721 -0.34500
C 	C 	0.70213 0.30087 0.76161 0.19100
O 	O 	0.68813 0.36213 0.02303 -0.63000
O 	O 	0.64970 0.23244 0.92094 -0.64900
O 	O 	0.71952 0.18878 0.05348 -0.35700
O 	O 	0.83398 0.30601 0.00723 -0.43000
O 	O 	0.57367 0.30997 0.14155 -0.35700
O 	O 	0.69576 0.46333 0.90627 -0.38500
C 	C 	0.69089 0.51231 0.96131 0.27200
C 	C 	0.45383 0.17301 0.96967 0.27000
O 	O 	0.50012 0.25377 0.95302 -0.40800
O 	O 	0.62963 0.47402 0.00658 -0.37800
O 	O 	0.65344 0.25097 0.14142 -0.32100
C 	C 	0.80399 0.23550 0.03913 0.29100
O 	O 	0.66088 0.32884 0.79830 -0.34400
O 	O 	0.74047 0.26866 0.79725 -0.39700
H 	H 	0.75142 0.41400 0.04973 0.15900
H 	H 	0.59932 0.17913 0.88196 0.17700
Cu	Cu	0.74153 0.32975 0.40355 0.92300
Cu	Cu	0.73341 0.23525 0.55121 0.86500
Cu	Cu	0.62564 0.30015 0.53002 0.89200
Cu	Cu	0.59085 0.36319 0.39041 0.89500
C 	C 	0.65236 0.31978 0.25519 0.19500
O 	O 	0.81568 0.46741 0.41281 -0.35800
C 	C 	0.70094 0.29967 0.68594 0.19100
O 	O 	0.60540 0.27707 0.41855 -0.63400
O 	O 	0.75188 0.33927 0.51750 -0.63700
O 	O 	0.78149 0.25030 0.38374 -0.36400
O 	O 	0.68168 0.15648 0.45530 -0.44500
O 	O 	0.63443 0.37181 0.29031 -0.35900
O 	O 	0.49840 0.25312 0.53391 -0.38100
C 	C 	0.44866 0.26283 0.48292 0.28900
C 	C 	0.78990 0.51099 0.45029 0.28200
O 	O 	0.71184 0.46463 0.47516 -0.39600
O 	O 	0.48900 0.33061 0.44582 -0.39600
O 	O 	0.70572 0.30357 0.29293 -0.32300
C 	C 	0.73691 0.17212 0.40671 0.28600
O 	O 	0.64764 0.31376 0.64439 -0.34200
O 	O 	0.75783 0.28954 0.65509 -0.39400
H 	H 	0.55447 0.21379 0.39374 0.16300
H 	H 	0.80350 0.39845 0.54954 0.17500
C 	C 	0.87182 0.71718 0.36340 -0.06300
C 	C 	0.87243 0.77220 0.42346 0.01600
C 	C 	0.85304 0.74371 0.49407 -0.06300
C 	C 	0.83359 0.66145 0.50475 0.00900
C 	C 	0.83190 0.60575 0.44455 -0.08900
C 	C 	0.85164 0.63440 0.37384 0.00800
H 	H 	0.88873 0.73933 0.30916 0.04400
H 	H 	0.85558 0.78652 0.54147 0.04300
H 	H 	0.81773 0.64000 0.55939 0.03000
H 	H 	0.84873 0.59153 0.32627 0.03500
C 	C 	0.82517 0.12697 0.34307 0.00800
C 	C 	0.76647 0.11344 0.39516 -0.09200
C 	C 	0.73974 0.04651 0.44019 -0.00400
C 	C 	0.77754 0.99981 0.43826 -0.05100
C 	C 	0.84146 0.01802 0.39047 0.00300
C 	C 	0.86178 0.07889 0.34023 -0.05800
H 	H 	0.84409 0.17583 0.30601 0.04000
H 	H 	0.69246 0.03307 0.47911 0.01800
H 	H 	0.76059 0.95275 0.47683 0.03800
H 	H 	0.90915 0.09191 0.30148 0.04200
C 	C 	0.19698 0.13424 0.39319 -0.06500
C 	C 	0.15287 0.08867 0.45153 0.01900
C 	C 	0.20606 0.10203 0.52157 -0.06500
C 	C 	0.30285 0.15945 0.53251 0.01300
C 	C 	0.34697 0.20405 0.47348 -0.09200
C 	C 	0.29338 0.19148 0.40399 0.01200
H 	H 	0.15642 0.12374 0.33877 0.04400
H 	H 	0.17239 0.06720 0.56707 0.04300
H 	H 	0.34326 0.16921 0.58669 0.03600
H 	H 	0.32651 0.22482 0.35771 0.02300
C 	C 	0.82929 0.74043 0.90257 -0.05800
C 	C 	0.85047 0.79715 0.97196 -0.00700
C 	C 	0.81438 0.75973 0.03600 -0.04300
C 	C 	0.76080 0.66666 0.03186 0.02300
C 	C 	0.74236 0.60987 0.96339 -0.10200
C 	C 	0.77553 0.64714 0.89825 0.00900
H 	H 	0.85648 0.76886 0.85264 0.04100
H 	H 	0.83067 0.80308 0.08986 0.04300
H 	H 	0.73578 0.63891 0.08258 0.02600
H 	H 	0.76050 0.60415 0.84462 0.03800
C 	C 	0.94763 0.16425 0.97680 -0.08300
C 	C 	0.93277 0.10486 0.02654 0.03100
C 	C 	0.88244 0.09486 0.08530 -0.06500
C 	C 	0.84283 0.13980 0.09123 0.01400
C 	C 	0.85410 0.19594 0.03903 -0.08200
C 	C 	0.90894 0.20982 0.98317 -0.00800
H 	H 	0.98625 0.17257 0.93130 0.03900
H 	H 	0.87189 0.05040 0.12497 0.04500
H 	H 	0.80238 0.12989 0.13558 0.03900
H 	H 	0.91869 0.25322 0.94269 0.00000
C 	C 	0.22728 0.05520 0.03971 -0.04900
C 	C 	0.17496 0.06475 0.98428 0.00100
C 	C 	0.21111 0.10108 0.91983 -0.06400
C 	C 	0.29985 0.12979 0.91182 0.00900
C 	C 	0.35374 0.12326 0.96863 -0.10600
C 	C 	0.31609 0.08404 0.03186 0.02500
H 	H 	0.19913 0.02553 0.08893 0.04300
H 	H 	0.17029 0.10662 0.87576 0.04100
H 	H 	0.32781 0.15951 0.86257 0.03000
H 	H 	0.35693 0.07918 0.07651 0.03500
