data_crystal

_cell_length_a 24.77270
_cell_length_b 22.83592
_cell_length_c 46.94900
_cell_angle_alpha 88.60179
_cell_angle_beta  88.72576
_cell_angle_gamma 107.50214

_symmetry_space_group_name_	'P 1'
_symmetry_space_group_name_H-M	'P 1'

loop_
_symmetry_equiv_pos_as_xyz
  x,y,z

loop_
_atom_site_label
_atom_site_type_symbol
_atom_site_fract_x
_atom_site_fract_y
_atom_site_fract_z
_atom_site_charge
Zn	Zn	0.59017 0.32654 0.87982 1.22200
Zn	Zn	0.68524 0.43511 0.91102 1.19700
C 	C 	0.74592 0.24896 0.84196 0.32000
Zn	Zn	0.72149 0.35760 0.86740 1.22000
Zn	Zn	0.62133 0.22870 0.84758 1.19100
H 	H 	0.67507 0.32073 0.91603 0.18200
C 	C 	0.70666 0.47410 0.84776 0.32400
O 	O 	0.53704 0.19866 0.84683 -0.46300
O 	O 	0.51865 0.29017 0.85404 -0.39400
O 	O 	0.66930 0.34849 0.90066 -0.78900
O 	O 	0.60982 0.43513 0.92476 -0.47900
O 	O 	0.55612 0.25925 0.90768 -0.44000
O 	O 	0.56079 0.39774 0.88504 -0.42700
O 	O 	0.61506 0.20540 0.89342 -0.41500
O 	O 	0.76533 0.47984 0.90305 -0.46800
H 	H 	0.63589 0.33920 0.83109 0.17500
O 	O 	0.79508 0.39794 0.89214 -0.39700
O 	O 	0.64235 0.31920 0.84910 -0.79600
O 	O 	0.69566 0.21115 0.84941 -0.45500
O 	O 	0.73596 0.43507 0.84437 -0.43600
O 	O 	0.76488 0.30328 0.85340 -0.42900
O 	O 	0.66851 0.46523 0.86865 -0.42000
C 	C 	0.50277 0.23307 0.84552 0.32500
C 	C 	0.56568 0.42797 0.90886 0.34900
C 	C 	0.57445 0.21146 0.91048 0.32700
C 	C 	0.80434 0.45206 0.90343 0.32600
Zn	Zn	0.65395 0.38781 0.58301 1.22200
Zn	Zn	0.52915 0.29539 0.55831 1.19400
C 	C 	0.69888 0.19659 0.61420 0.34300
Zn	Zn	0.61124 0.24239 0.58893 1.22100
Zn	Zn	0.72245 0.33055 0.62124 1.19500
H 	H 	0.62981 0.30245 0.54253 0.17200
C 	C 	0.50443 0.23193 0.61731 0.32900
O 	O 	0.77062 0.41733 0.61799 -0.46400
O 	O 	0.69970 0.45968 0.60970 -0.40000
O 	O 	0.61185 0.30796 0.56091 -0.78800
O 	O 	0.52346 0.37872 0.56376 -0.45500
O 	O 	0.72224 0.40161 0.55853 -0.44300
O 	O 	0.61042 0.44433 0.57235 -0.42000
O 	O 	0.74729 0.32004 0.57691 -0.41300
O 	O 	0.49341 0.20571 0.55480 -0.46500
H 	H 	0.61948 0.32891 0.62987 0.18200
O 	O 	0.57205 0.17330 0.55936 -0.39300
O 	O 	0.64240 0.32312 0.61324 -0.78700
O 	O 	0.71746 0.24358 0.63075 -0.46900
O 	O 	0.54542 0.20680 0.61544 -0.43500
O 	O 	0.67149 0.20119 0.59094 -0.43200
O 	O 	0.50986 0.28426 0.60378 -0.42000
C 	C 	0.75145 0.46502 0.61764 0.33000
C 	C 	0.56543 0.42779 0.55662 0.31100
C 	C 	0.75271 0.36356 0.55706 0.32000
C 	C 	0.52149 0.16657 0.54906 0.32000
Zn	Zn	0.95658 0.91217 0.72503 1.22500
Zn	Zn	0.03593 0.93567 0.78243 1.19800
C 	C 	0.13080 0.03708 0.67495 0.31100
Zn	Zn	0.06813 0.01922 0.72933 1.22000
Zn	Zn	0.00623 0.97176 0.66694 1.19500
H 	H 	0.06493 0.90722 0.73261 0.18200
C 	C 	0.99725 0.05298 0.77230 0.30100
O 	O 	0.92698 0.92814 0.65737 -0.45500
O 	O 	0.88174 0.90787 0.70156 -0.37600
O 	O 	0.04058 0.93095 0.74017 -0.78300
O 	O 	0.96594 0.86599 0.79191 -0.45500
O 	O 	0.95850 0.83511 0.70898 -0.44400
O 	O 	0.90915 0.89559 0.76024 -0.42800
O 	O 	0.01723 0.88020 0.67165 -0.40700
O 	O 	0.09995 0.00552 0.79561 -0.46300
H 	H 	0.97071 0.01983 0.70869 0.16100
O 	O 	0.14396 0.03504 0.75207 -0.41200
O 	O 	0.99428 0.99183 0.70711 -0.78900
O 	O 	0.09181 0.99905 0.65976 -0.43400
O 	O 	0.04007 0.07397 0.75390 -0.43100
O 	O 	0.11669 0.06334 0.69730 -0.44700
O 	O 	0.98254 0.99579 0.78210 -0.39800
C 	C 	0.88313 0.92577 0.67439 0.32000
C 	C 	0.91628 0.85745 0.78031 0.34100
C 	C 	0.97908 0.83222 0.68345 0.33700
C 	C 	0.14555 0.03348 0.77995 0.33100
Zn	Zn	0.31158 0.69658 0.37683 1.22300
Zn	Zn	0.21695 0.57950 0.40974 1.19700
C 	C 	0.15464 0.77141 0.34033 0.32200
Zn	Zn	0.18026 0.66398 0.36835 1.22100
Zn	Zn	0.27985 0.79378 0.34294 1.19400
H 	H 	0.22607 0.69327 0.41583 0.18100
C 	C 	0.19496 0.55064 0.34695 0.32200
O 	O 	0.36411 0.82680 0.34220 -0.46100
O 	O 	0.38346 0.73560 0.34916 -0.39700
O 	O 	0.23257 0.66836 0.39989 -0.78700
O 	O 	0.29176 0.57357 0.42101 -0.46600
O 	O 	0.34138 0.76429 0.40274 -0.44200
O 	O 	0.34315 0.62804 0.38281 -0.43400
O 	O 	0.27874 0.81343 0.38832 -0.41500
O 	O 	0.13613 0.53661 0.40457 -0.46500
H 	H 	0.26604 0.68344 0.32943 0.17500
O 	O 	0.10698 0.62044 0.39543 -0.39400
O 	O 	0.25920 0.70327 0.34711 -0.79500
O 	O 	0.20552 0.81101 0.34223 -0.45200
O 	O 	0.16482 0.58932 0.34532 -0.43500
O 	O 	0.13790 0.72232 0.35757 -0.42500
O 	O 	0.23367 0.55711 0.36636 -0.41800
C 	C 	0.39930 0.79364 0.34051 0.32600
C 	C 	0.34061 0.60037 0.40787 0.34100
C 	C 	0.31827 0.80847 0.40559 0.32700
C 	C 	0.09747 0.56478 0.40662 0.32500
Zn	Zn	0.21211 0.72330 0.09378 1.22000
Zn	Zn	0.31746 0.81855 0.12715 1.19600
C 	C 	0.34349 0.61559 0.05883 0.31300
Zn	Zn	0.34113 0.72884 0.08556 1.22200
Zn	Zn	0.22776 0.61373 0.06371 1.19600
H 	H 	0.28666 0.70171 0.13293 0.18400
C 	C 	0.35097 0.85188 0.06302 0.32100
O 	O 	0.14581 0.60104 0.06236 -0.46600
O 	O 	0.14342 0.70028 0.06467 -0.38600
O 	O 	0.28781 0.73140 0.11705 -0.78600
O 	O 	0.24552 0.83484 0.13729 -0.47500
O 	O 	0.16460 0.65812 0.12077 -0.42700
O 	O 	0.19825 0.80489 0.09621 -0.42700
O 	O 	0.21753 0.59642 0.10941 -0.41800
O 	O 	0.40100 0.84917 0.12328 -0.46500
H 	H 	0.26219 0.72563 0.04653 0.17300
O 	O 	0.41496 0.75857 0.11093 -0.40100
O 	O 	0.26276 0.70405 0.06502 -0.78700
O 	O 	0.29302 0.58255 0.06793 -0.45600
O 	O 	0.36993 0.80405 0.06157 -0.44300
O 	O 	0.37259 0.66278 0.07326 -0.41900
O 	O 	0.31527 0.85556 0.08370 -0.41300
C 	C 	0.12442 0.64473 0.05441 0.31700
C 	C 	0.20844 0.83981 0.11865 0.34600
C 	C 	0.17412 0.60479 0.12322 0.32700
C 	C 	0.43458 0.81493 0.11991 0.33300
Zn	Zn	0.96531 0.13363 0.22581 1.22400
Zn	Zn	0.87713 0.09460 0.28242 1.19400
C 	C 	0.80000 0.01677 0.17111 0.29600
Zn	Zn	0.85330 0.02585 0.22698 1.22000
Zn	Zn	0.92315 0.09340 0.16660 1.19100
H 	H 	0.85573 0.13661 0.23368 0.17900
C 	C 	0.91622 0.97942 0.26936 0.34000
O 	O 	0.00302 0.14231 0.15891 -0.45500
O 	O 	0.04343 0.14438 0.20236 -0.37400
O 	O 	0.87899 0.11088 0.24043 -0.78800
O 	O 	0.94596 0.16068 0.29395 -0.45600
O 	O 	0.96665 0.21559 0.21261 -0.44400
O 	O 	0.00674 0.13908 0.26125 -0.42500
O 	O 	0.90803 0.18134 0.17604 -0.41300
O 	O 	0.81058 0.02208 0.29342 -0.47800
H 	H 	0.95353 0.03125 0.20546 0.17400
O 	O 	0.77375 0.00380 0.24918 -0.42800
O 	O 	0.93019 0.05966 0.20535 -0.80500
O 	O 	0.83883 0.06462 0.15907 -0.44900
O 	O 	0.87748 0.96437 0.24987 -0.43200
O 	O 	0.81026 0.98829 0.19407 -0.42600
O 	O 	0.92997 0.03397 0.28051 -0.42600
C 	C 	0.04336 0.13369 0.17477 0.31800
C 	C 	0.99702 0.17245 0.28211 0.32800
C 	C 	0.94406 0.22647 0.18902 0.33600
C 	C 	0.76738 0.99919 0.27702 0.36200
C 	C 	0.12980 0.55178 0.13408 -0.11100
C 	C 	0.09383 0.50500 0.14183 0.06600
C 	C 	0.05376 0.44805 0.15015 -0.02000
C 	C 	0.02210 0.39807 0.15731 -0.01000
C 	C 	0.98883 0.33825 0.16650 0.05800
C 	C 	0.96501 0.28683 0.17572 -0.11200
C 	C 	0.49415 0.84173 0.12387 -0.11400
C 	C 	0.54337 0.86802 0.12774 0.06700
C 	C 	0.59996 0.90144 0.13327 -0.02100
C 	C 	0.64739 0.93065 0.13919 -0.01100
C 	C 	0.70193 0.96409 0.14793 0.05500
C 	C 	0.74750 0.99032 0.15730 -0.09100
C 	C 	0.18092 0.88615 0.12243 -0.11300
C 	C 	0.16058 0.92647 0.12786 0.05800
C 	C 	0.13867 0.97396 0.13623 0.00500
C 	C 	0.12012 0.01378 0.14455 -0.05200
C 	C 	0.09705 0.05872 0.15511 0.06900
C 	C 	0.07468 0.09477 0.16428 -0.14400
C 	C 	0.45738 0.82310 0.33204 -0.11200
C 	C 	0.50602 0.84881 0.32497 0.06300
C 	C 	0.56268 0.87981 0.31646 -0.01600
C 	C 	0.61065 0.90684 0.30874 -0.02200
C 	C 	0.66623 0.93894 0.29889 0.07300
C 	C 	0.71294 0.96650 0.28954 -0.12400
C 	C 	0.03949 0.22812 0.28893 -0.11200
C 	C 	0.07163 0.27676 0.29530 0.06700
C 	C 	0.10521 0.33503 0.30367 -0.01800
C 	C 	0.13054 0.38524 0.31177 -0.01700
C 	C 	0.15645 0.44391 0.32250 0.06400
C 	C 	0.17559 0.49332 0.33291 -0.10900
C 	C 	0.94627 0.93718 0.27767 -0.11000
C 	C 	0.97369 0.90465 0.28565 0.06400
C 	C 	0.00807 0.86987 0.29598 -0.01200
C 	C 	0.03918 0.84298 0.30546 -0.01800
C 	C 	0.07756 0.81474 0.31719 0.06500
C 	C 	0.11190 0.79341 0.32760 -0.11200
C 	C 	0.36780 0.99282 0.47271 -0.00300
H 	H 	0.32765 0.00074 0.46626 0.02300
C 	C 	0.38966 0.94024 0.46280 -0.01200
C 	C 	0.36135 0.89332 0.44283 0.05400
C 	C 	0.42793 0.03816 0.46724 -0.04900
H 	H 	0.43787 0.08431 0.45662 0.03600
C 	C 	0.44937 0.98490 0.45706 -0.01600
H 	H 	0.47631 0.98636 0.43767 0.03900
C 	C 	0.38323 0.98049 0.50364 -0.02300
H 	H 	0.35633 0.97911 0.52303 0.04200
C 	C 	0.44295 0.02512 0.49786 -0.01700
C 	C 	0.47241 0.07361 0.51686 0.04700
C 	C 	0.46481 0.97255 0.48795 -0.02000
H 	H 	0.50497 0.96465 0.49438 0.04200
C 	C 	0.40464 0.92711 0.49341 -0.02800
H 	H 	0.39468 0.88092 0.50399 0.03900
C 	C 	0.49570 0.11510 0.53191 -0.11600
C 	C 	0.34019 0.85471 0.42599 -0.11200
C 	C 	0.87184 0.43039 0.46518 -0.02900
H 	H 	0.83076 0.41317 0.45451 0.03600
C 	C 	0.88108 0.42241 0.49714 -0.00300
C 	C 	0.83606 0.39447 0.51851 0.04600
C 	C 	0.92567 0.41136 0.45830 -0.02800
H 	H 	0.92964 0.37930 0.44154 0.03600
C 	C 	0.93410 0.40294 0.49063 -0.02900
H 	H 	0.94427 0.36337 0.50088 0.03500
C 	C 	0.90841 0.49854 0.46613 -0.02700
H 	H 	0.89821 0.53813 0.45592 0.03900
C 	C 	0.96143 0.47911 0.45959 -0.00900
C 	C 	0.00748 0.51126 0.43945 0.05300
C 	C 	0.97059 0.47110 0.49156 -0.03200
H 	H 	0.01163 0.48834 0.50227 0.03700
C 	C 	0.91696 0.49014 0.49835 -0.02800
H 	H 	0.91312 0.52235 0.51508 0.04000
C 	C 	0.04731 0.53687 0.42384 -0.11900
C 	C 	0.79835 0.37676 0.53625 -0.10800
C 	C 	0.49619 0.51959 0.44957 -0.02900
H 	H 	0.49900 0.49667 0.42924 0.03700
C 	C 	0.46519 0.56771 0.45416 -0.00600
C 	C 	0.42793 0.58483 0.43406 0.05400
C 	C 	0.46928 0.48696 0.47793 -0.02900
H 	H 	0.45018 0.43657 0.48135 0.03000
C 	C 	0.43805 0.53517 0.48232 -0.02800
H 	H 	0.39276 0.52476 0.48900 0.03600
C 	C 	0.54722 0.56007 0.46589 -0.02900
H 	H 	0.59257 0.57011 0.45946 0.03800
C 	C 	0.51958 0.52760 0.49397 -0.00700
C 	C 	0.54324 0.49914 0.51675 0.04700
C 	C 	0.48853 0.57568 0.49855 -0.02700
H 	H 	0.48550 0.59844 0.51889 0.04000
C 	C 	0.51545 0.60879 0.47009 -0.02700
H 	H 	0.53414 0.65917 0.46654 0.04000
C 	C 	0.55638 0.46955 0.53541 -0.12400
C 	C 	0.39079 0.59411 0.42031 -0.11900
C 	C 	0.71525 0.14239 0.61996 -0.11800
C 	C 	0.73207 0.09976 0.62661 0.05800
C 	C 	0.75548 0.05363 0.63594 -0.01300
C 	C 	0.77891 0.01785 0.64472 -0.04600
C 	C 	0.81059 0.98054 0.65544 0.08400
C 	C 	0.84151 0.95294 0.66443 -0.13000
C 	C 	0.18840 0.05898 0.66416 -0.11200
C 	C 	0.23750 0.08036 0.65661 0.05900
C 	C 	0.29527 0.10828 0.64887 -0.01900
C 	C 	0.34436 0.13414 0.64259 -0.02100
C 	C 	0.40135 0.16654 0.63500 0.06400
C 	C 	0.44912 0.19569 0.62770 -0.11500
C 	C 	0.95437 0.77853 0.66738 -0.11500
C 	C 	0.92808 0.73208 0.65612 0.06800
C 	C 	0.89292 0.67690 0.64523 -0.01800
C 	C 	0.86077 0.62937 0.63749 -0.01700
C 	C 	0.82196 0.57309 0.62982 0.06400
C 	C 	0.78908 0.52432 0.62404 -0.11300
C 	C 	0.97060 0.61822 0.97645 -0.03100
H 	H 	0.97182 0.66706 0.97781 0.03900
C 	C 	0.00569 0.58652 0.99419 -0.00000
C 	C 	0.04643 0.61380 0.01585 0.04600
C 	C 	0.91781 0.56188 0.98260 -0.02700
H 	H 	0.87478 0.56379 0.98860 0.03400
C 	C 	0.95355 0.53065 0.00063 -0.03200
H 	H 	0.94071 0.50769 0.02190 0.03800
C 	C 	0.98531 0.58741 0.94948 -0.03000
H 	H 	0.99805 0.61025 0.92819 0.03800
C 	C 	0.93322 0.53152 0.95600 -0.00600
C 	C 	0.89089 0.50078 0.93566 0.04800
C 	C 	0.96835 0.49993 0.97377 -0.03100
H 	H 	0.96716 0.45108 0.97245 0.03600
C 	C 	0.02114 0.55618 0.96760 -0.02500
H 	H 	0.06418 0.55425 0.96162 0.03300
C 	C 	0.85311 0.47694 0.92012 -0.12100
C 	C 	0.08122 0.63130 0.03372 -0.11500
C 	C 	0.44127 0.98174 0.97522 -0.01300
H 	H 	0.42531 0.93700 0.96473 0.03700
C 	C 	0.43037 0.99330 0.00665 0.01200
C 	C 	0.39856 0.94490 0.02712 0.04600
C 	C 	0.50438 0.01897 0.97797 -0.03800
H 	H 	0.54105 0.00567 0.96946 0.03800
C 	C 	0.49307 0.02985 0.00969 -0.03800
H 	H 	0.51989 0.02477 0.02767 0.03800
C 	C 	0.42728 0.04133 0.96657 -0.03800
H 	H 	0.40048 0.04639 0.94859 0.03900
C 	C 	0.48998 0.07786 0.96962 -0.00100
C 	C 	0.52253 0.12492 0.94875 0.04600
C 	C 	0.47911 0.08948 0.00104 -0.02600
H 	H 	0.49511 0.13424 0.01151 0.03600
C 	C 	0.41592 0.05217 0.99832 -0.03800
H 	H 	0.37923 0.06542 0.00684 0.03900
C 	C 	0.54762 0.16401 0.93138 -0.11000
C 	C 	0.37492 0.90342 0.04370 -0.10200
C 	C 	0.47236 0.57841 0.97850 -0.02800
H 	H 	0.50170 0.62383 0.98380 0.03900
C 	C 	0.41404 0.54781 0.99277 -0.00800
C 	C 	0.39038 0.57385 0.01627 0.04800
C 	C 	0.44662 0.56060 0.94899 -0.02800
H 	H 	0.45493 0.59074 0.92946 0.03800
C 	C 	0.38756 0.53039 0.96367 -0.03000
H 	H 	0.34700 0.53657 0.95675 0.03200
C 	C 	0.48521 0.51647 0.98130 -0.02700
H 	H 	0.52572 0.51048 0.98845 0.03800
C 	C 	0.45907 0.49887 0.95210 -0.00600
C 	C 	0.48962 0.47167 0.93203 0.05600
C 	C 	0.40072 0.46817 0.96639 -0.02800
H 	H 	0.37149 0.42268 0.96112 0.03800
C 	C 	0.42660 0.48617 0.99581 -0.02800
H 	H 	0.41845 0.45595 0.01532 0.03900
C 	C 	0.52122 0.45039 0.91908 -0.11900
C 	C 	0.37025 0.59381 0.03590 -0.12900
C 	C 	0.78668 0.22354 0.82914 -0.11800
C 	C 	0.82110 0.20184 0.81884 0.06200
C 	C 	0.86120 0.17535 0.80738 -0.02300
C 	C 	0.89475 0.15117 0.79819 -0.01800
C 	C 	0.93275 0.12038 0.78821 0.05700
C 	C 	0.96348 0.09138 0.78046 -0.10800
C 	C 	0.19727 0.06505 0.79334 -0.11800
C 	C 	0.24203 0.09212 0.80326 0.06500
C 	C 	0.29567 0.12392 0.81359 -0.02100
C 	C 	0.34229 0.15066 0.82158 -0.01900
C 	C 	0.39766 0.18104 0.83023 0.06200
C 	C 	0.44545 0.20572 0.83727 -0.11300
C 	C 	0.72678 0.53357 0.83374 -0.10900
C 	C 	0.74708 0.58433 0.82315 0.06300
C 	C 	0.77478 0.64411 0.81198 -0.01600
C 	C 	0.80184 0.69489 0.80340 -0.01900
C 	C 	0.83759 0.75347 0.79441 0.07100
C 	C 	0.87160 0.80208 0.78756 -0.11700
