data_crystal

_cell_length_a 27.18929
_cell_length_b 27.20435
_cell_length_c 28.83173
_cell_angle_alpha 90.00259
_cell_angle_beta  89.99890
_cell_angle_gamma 120.00031

_symmetry_space_group_name_	'P 1'
_symmetry_space_group_name_H-M	'P 1'

loop_
_symmetry_equiv_pos_as_xyz
  x,y,z

loop_
_atom_site_label
_atom_site_type_symbol
_atom_site_fract_x
_atom_site_fract_y
_atom_site_fract_z
_atom_site_charge
Zn	Zn	0.32927 0.15651 0.66425 1.20100
Zn	Zn	0.24372 0.03039 0.67397 1.22100
Zn	Zn	0.42289 0.12732 0.65818 1.22400
P 	P 	0.32277 0.07580 0.59592 0.32000
P 	P 	0.34269 0.08878 0.73619 0.32400
C 	C 	0.52217 0.11815 0.67115 0.31400
C 	C 	0.44184 0.24465 0.65684 0.33200
C 	C 	0.21401 0.12194 0.67468 0.32900
O 	O 	0.29795 0.11663 0.60477 -0.39900
O 	O 	0.36081 0.15267 0.72525 -0.39800
O 	O 	0.29905 0.02679 0.63411 -0.42000
O 	O 	0.37236 0.06705 0.70007 -0.40700
O 	O 	0.39055 0.11415 0.59680 -0.40000
O 	O 	0.27479 0.05235 0.73496 -0.40500
O 	O 	0.49751 0.13919 0.64534 -0.35800
O 	O 	0.17794 0.92109 0.61875 -0.20100
O 	O 	0.49245 0.07906 0.70218 -0.20700
O 	O 	0.45230 0.20843 0.67898 -0.38300
O 	O 	0.20706 0.07590 0.65334 -0.40500
O 	O 	0.39101 0.22737 0.64002 -0.41700
O 	O 	0.26500 0.16117 0.68744 -0.40300
C 	C 	0.14889 0.92144 0.65501 0.31300
O 	O 	0.17304 0.96201 0.68590 -0.36500
Zn	Zn	0.48480 0.01723 0.99676 1.19800
Zn	Zn	0.44769 0.10489 0.00680 1.22300
Zn	Zn	0.36065 0.92477 0.99263 1.22300
P 	P 	0.40971 0.02413 0.93025 0.31100
P 	P 	0.40602 0.00683 0.07018 0.29300
C 	C 	0.25406 0.82458 0.01080 0.32200
C 	C 	0.45812 0.90403 0.99020 0.32500
C 	C 	0.56850 0.13139 0.00524 0.33200
O 	O 	0.47551 0.04806 0.93722 -0.42200
O 	O 	0.45073 0.98741 0.05859 -0.36800
O 	O 	0.38678 0.04815 0.96992 -0.42300
O 	O 	0.35355 0.97686 0.03498 -0.37900
O 	O 	0.37890 0.95630 0.93059 -0.37100
O 	O 	0.43840 0.07498 0.06845 -0.40200
O 	O 	0.29583 0.85061 0.98111 -0.37000
O 	O 	0.47172 0.19498 0.93760 -0.20600
O 	O 	0.24858 0.85296 0.04532 -0.19700
O 	O 	0.41176 0.89415 0.01264 -0.38400
O 	O 	0.52960 0.13941 0.98472 -0.42100
O 	O 	0.49126 0.95419 0.97223 -0.40400
O 	O 	0.55552 0.08027 0.01852 -0.39700
C 	C 	0.46582 0.21196 0.97882 0.30500
O 	O 	0.45033 0.17675 0.01407 -0.38400
Zn	Zn	0.18519 0.86866 0.32840 1.20100
Zn	Zn	0.22689 0.99452 0.32736 1.22400
Zn	Zn	0.30670 0.89389 0.33730 1.22300
P 	P 	0.25818 0.94180 0.40198 0.32000
P 	P 	0.27011 0.94136 0.26210 0.32000
C 	C 	0.39186 0.86996 0.30860 0.31100
C 	C 	0.20527 0.77733 0.33229 0.32900
C 	C 	0.10449 0.90332 0.32500 0.33100
O 	O 	0.19266 0.90243 0.39129 -0.40000
O 	O 	0.22379 0.87651 0.26795 -0.40800
O 	O 	0.28445 0.99328 0.36611 -0.40000
O 	O 	0.31735 0.95844 0.30118 -0.40200
O 	O 	0.28708 0.90287 0.39980 -0.37400
O 	O 	0.23816 0.97752 0.26431 -0.37000
O 	O 	0.37208 0.88436 0.34448 -0.36700
O 	O 	0.19978 0.05818 0.39817 -0.22000
O 	O 	0.37271 0.87017 0.26684 -0.20100
O 	O 	0.25433 0.81384 0.31309 -0.38500
O 	O 	0.14376 0.94827 0.34735 -0.39100
O 	O 	0.17165 0.79493 0.34827 -0.41500
O 	O 	0.11810 0.86854 0.30511 -0.41200
C 	C 	0.20705 0.08206 0.35724 0.30600
O 	O 	0.22741 0.06582 0.32288 -0.37000
Zn	Zn	0.81504 0.67060 0.65988 1.20600
Zn	Zn	0.78961 0.76671 0.66882 1.22000
Zn	Zn	0.68904 0.58704 0.65473 1.22100
P 	P 	0.74808 0.68465 0.59054 0.32000
P 	P 	0.73618 0.66762 0.73023 0.32200
C 	C 	0.59613 0.48286 0.68259 0.31400
C 	C 	0.77926 0.55545 0.65864 0.33000
C 	C 	0.90655 0.78041 0.66803 0.32100
O 	O 	0.81242 0.70344 0.59965 -0.38800
O 	O 	0.77798 0.64407 0.72078 -0.39200
O 	O 	0.72859 0.71626 0.62676 -0.40300
O 	O 	0.68825 0.64541 0.69137 -0.43600
O 	O 	0.71188 0.61653 0.59314 -0.41300
O 	O 	0.77305 0.73545 0.73135 -0.37900
O 	O 	0.61817 0.51720 0.64706 -0.39400
O 	O 	0.74910 0.84010 0.61792 -0.18800
O 	O 	0.61673 0.50048 0.72433 -0.21000
O 	O 	0.73272 0.54933 0.67835 -0.40500
O 	O 	0.87130 0.79436 0.64835 -0.37900
O 	O 	0.81361 0.60284 0.63723 -0.40800
O 	O 	0.88765 0.72866 0.68298 -0.39600
C 	C 	0.78708 0.86900 0.64993 0.31800
O 	O 	0.80270 0.84256 0.67936 -0.38700
Zn	Zn	0.52333 0.53781 0.99420 1.20300
Zn	Zn	0.64681 0.56824 0.00577 1.22300
Zn	Zn	0.56438 0.66404 0.98475 1.21900
P 	P 	0.60818 0.60674 0.92547 0.32200
P 	P 	0.59642 0.61923 0.06453 0.32200
C 	C 	0.54633 0.75270 0.01220 0.31100
C 	C 	0.44223 0.57150 0.98628 0.33200
C 	C 	0.54715 0.44983 0.00504 0.35100
O 	O 	0.56160 0.54268 0.93498 -0.40200
O 	O 	0.53155 0.57623 0.05397 -0.38400
O 	O 	0.65599 0.62833 0.96461 -0.43000
O 	O 	0.62207 0.66755 0.02582 -0.42500
O 	O 	0.57722 0.64381 0.92310 -0.37900
O 	O 	0.62937 0.58412 0.06747 -0.37300
O 	O 	0.56278 0.73369 0.97706 -0.38000
O 	O 	0.70821 0.53884 0.93654 -0.20900
O 	O 	0.54345 0.73194 0.05387 -0.21500
O 	O 	0.48194 0.61844 0.00602 -0.38800
O 	O 	0.59533 0.48654 0.98494 -0.41300
O 	O 	0.45535 0.53479 0.96960 -0.40600
O 	O 	0.51172 0.46628 0.01858 -0.40200
C 	C 	0.73054 0.54272 0.97769 0.30600
O 	O 	0.71259 0.55951 0.01332 -0.37400
Zn	Zn	0.66711 0.82400 0.33358 1.20400
Zn	Zn	0.75620 0.78814 0.32188 1.22100
Zn	Zn	0.57651 0.69893 0.33879 1.22300
P 	P 	0.67614 0.75133 0.40043 0.32100
P 	P 	0.65694 0.74256 0.26132 0.32000
C 	C 	0.46493 0.61408 0.31630 0.30400
C 	C 	0.55236 0.79383 0.33717 0.32900
C 	C 	0.78018 0.90924 0.32531 0.32700
O 	O 	0.69944 0.81692 0.39316 -0.40300
O 	O 	0.63902 0.78862 0.27214 -0.39200
O 	O 	0.70123 0.72858 0.36136 -0.41500
O 	O 	0.63016 0.69281 0.29891 -0.42000
O 	O 	0.60813 0.72024 0.40037 -0.38600
O 	O 	0.72506 0.77394 0.25959 -0.37200
O 	O 	0.50352 0.63232 0.34914 -0.38800
O 	O 	0.84554 0.81486 0.39306 -0.20200
O 	O 	0.48068 0.62695 0.27285 -0.19500
O 	O 	0.54431 0.74746 0.31594 -0.40300
O 	O 	0.78996 0.87024 0.34321 -0.38500
O 	O 	0.60152 0.82777 0.35665 -0.40100
O 	O 	0.72901 0.89515 0.31126 -0.40000
C 	C 	0.86480 0.81278 0.35176 0.31000
O 	O 	0.82963 0.79335 0.31637 -0.37200
Zn	Zn	0.85040 0.19390 0.67271 1.20100
Zn	Zn	0.97375 0.22790 0.67911 1.22300
Zn	Zn	0.88464 0.31778 0.66407 1.22000
P 	P 	0.93260 0.26669 0.60248 0.32200
P 	P 	0.92072 0.27322 0.74286 0.32400
C 	C 	0.87573 0.41318 0.69049 0.31100
C 	C 	0.76470 0.22069 0.66337 0.33500
C 	C 	0.87880 0.10863 0.67740 0.32800
O 	O 	0.88769 0.20207 0.61195 -0.40500
O 	O 	0.85553 0.23070 0.73338 -0.38000
O 	O 	0.98061 0.28931 0.64137 -0.42900
O 	O 	0.94377 0.32372 0.70586 -0.41200
O 	O 	0.89941 0.30147 0.60164 -0.37600
O 	O 	0.95268 0.23710 0.74077 -0.40200
O 	O 	0.87840 0.38468 0.65484 -0.37200
O 	O 	0.04967 0.21680 0.60978 -0.20700
O 	O 	0.89925 0.41225 0.72997 -0.20300
O 	O 	0.80191 0.26823 0.68412 -0.37500
O 	O 	0.92528 0.14685 0.65610 -0.40300
O 	O 	0.78038 0.18524 0.64853 -0.41700
O 	O 	0.84403 0.12368 0.69523 -0.40400
C 	C 	0.06118 0.20781 0.65211 0.30800
O 	O 	0.04045 0.22170 0.68760 -0.40400
Zn	Zn	0.00201 0.49339 0.00289 1.19700
Zn	Zn	0.09485 0.46329 0.99725 1.22000
Zn	Zn	0.91473 0.36907 0.00791 1.22600
P 	P 	0.01099 0.42296 0.07283 0.31100
P 	P 	0.99816 0.41444 0.93285 0.32700
C 	C 	0.80841 0.27892 0.97999 0.30500
C 	C 	0.88721 0.46189 0.00551 0.34900
C 	C 	0.11426 0.58194 0.99773 0.32000
O 	O 	0.03256 0.48806 0.06439 -0.40500
O 	O 	0.97457 0.45643 0.94122 -0.41400
O 	O 	0.03959 0.40187 0.03547 -0.41000
O 	O 	0.97176 0.36508 0.97063 -0.40500
O 	O 	0.94296 0.39003 0.07034 -0.37000
O 	O 	0.06618 0.45147 0.93452 -0.38100
O 	O 	0.84258 0.30091 0.01566 -0.36900
O 	O 	0.19156 0.50241 0.06476 -0.20400
O 	O 	0.82959 0.28816 0.93787 -0.19300
O 	O 	0.88051 0.41589 0.98440 -0.40500
O 	O 	0.12544 0.54522 0.01832 -0.38100
O 	O 	0.93623 0.49709 0.02445 -0.41700
O 	O 	0.06364 0.56486 0.98066 -0.42800
C 	C 	0.20684 0.49404 0.02363 0.31000
O 	O 	0.16855 0.46951 0.99090 -0.37000
Zn	Zn	0.14773 0.35040 0.33892 1.20400
Zn	Zn	0.02520 0.25602 0.32782 1.21900
Zn	Zn	0.10514 0.43478 0.34719 1.22100
P 	P 	0.05985 0.33375 0.40645 0.32400
P 	P 	0.07802 0.35736 0.26698 0.32200
C 	C 	0.10063 0.53395 0.32297 0.31000
C 	C 	0.22752 0.46539 0.35154 0.32900
C 	C 	0.12412 0.23776 0.33237 0.33000
O 	O 	0.10790 0.31795 0.39805 -0.38900
O 	O 	0.14311 0.38256 0.27867 -0.39700
O 	O 	0.01328 0.30700 0.36643 -0.43300
O 	O 	0.05024 0.38102 0.30319 -0.41100
O 	O 	0.08934 0.40147 0.40869 -0.37700
O 	O 	0.04884 0.28945 0.26730 -0.41100
O 	O 	0.10704 0.50593 0.35728 -0.37000
O 	O 	0.93974 0.17073 0.39241 -0.22200
O 	O 	0.07583 0.50724 0.28450 -0.20700
O 	O 	0.18870 0.47256 0.32989 -0.40400
O 	O 	0.07569 0.22644 0.35196 -0.40900
O 	O 	0.21496 0.41436 0.36485 -0.38800
O 	O 	0.15856 0.28887 0.31648 -0.40600
C 	C 	0.93055 0.14960 0.35027 0.31000
O 	O 	0.96084 0.18193 0.31569 -0.37000
C 	C 	0.03005 0.40591 0.12799 -0.02800
C 	C 	0.00473 0.34869 0.14214 0.16800
C 	C 	0.02223 0.33465 0.18291 -0.05200
C 	C 	0.06628 0.37644 0.20964 -0.03100
C 	C 	0.09457 0.43330 0.19401 0.18000
C 	C 	0.07562 0.44789 0.15367 -0.05800
H 	H 	0.00073 0.29080 0.19412 0.10500
H 	H 	0.09748 0.49146 0.14163 0.11500
Cl	Cl	0.95242 0.29317 0.10815 -0.25600
Cl	Cl	0.15668 0.48546 0.22155 -0.28400
C 	C 	0.93594 0.30587 0.79970 -0.03600
C 	C 	0.90568 0.33126 0.81777 0.18300
C 	C 	0.92737 0.36797 0.85613 -0.05900
C 	C 	0.97748 0.37735 0.87806 -0.01000
C 	C 	0.00517 0.34850 0.86178 0.14400
C 	C 	0.98495 0.31412 0.82257 -0.01400
H 	H 	0.90380 0.38704 0.87009 0.11000
H 	H 	0.00818 0.29433 0.80947 0.08600
Cl	Cl	0.83786 0.31263 0.79672 -0.23600
Cl	Cl	0.06387 0.35239 0.89129 -0.26900
C 	C 	0.96740 0.27530 0.54715 -0.01300
C 	C 	0.93621 0.26016 0.50550 0.17300
C 	C 	0.96476 0.27561 0.46289 -0.03300
C 	C 	0.02443 0.30544 0.46120 -0.04700
C 	C 	0.05555 0.31790 0.50282 0.18900
C 	C 	0.02701 0.30291 0.54539 -0.07300
H 	H 	0.94035 0.26570 0.43115 0.10300
H 	H 	0.05149 0.31435 0.57715 0.10300
Cl	Cl	0.86137 0.22250 0.50584 -0.25600
Cl	Cl	0.13038 0.35361 0.50257 -0.24000
C 	C 	0.40413 0.58043 0.32846 -0.06900
C 	C 	0.36311 0.58854 0.30506 0.18300
C 	C 	0.30538 0.55257 0.31435 -0.03600
C 	C 	0.28803 0.51035 0.34863 -0.07400
C 	C 	0.32958 0.50806 0.37650 0.18700
C 	C 	0.38708 0.54143 0.36515 -0.04100
H 	H 	0.27406 0.55722 0.29456 0.11300
H 	H 	0.41858 0.53741 0.38524 0.10500
Cl	Cl	0.38327 0.64621 0.26694 -0.25000
Cl	Cl	0.31085 0.46756 0.42791 -0.24000
C 	C 	0.82273 0.97000 0.33050 -0.04800
C 	C 	0.85350 0.99148 0.37224 0.20000
C 	C 	0.88925 0.04997 0.37774 -0.05300
C 	C 	0.89290 0.08795 0.34312 -0.06800
C 	C 	0.86115 0.06658 0.30191 0.19600
C 	C 	0.82769 0.00793 0.29537 -0.07100
H 	H 	0.91359 0.06599 0.40945 0.10800
H 	H 	0.80364 0.99183 0.26354 0.12900
Cl	Cl	0.84493 0.94651 0.41937 -0.23600
Cl	Cl	0.85886 0.11240 0.25981 -0.25500
C 	C 	0.62934 0.70973 0.20574 -0.02900
C 	C 	0.64773 0.74158 0.16453 0.18200
C 	C 	0.63485 0.71374 0.12168 -0.05300
C 	C 	0.60347 0.65415 0.11938 -0.02800
C 	C 	0.58159 0.62259 0.16041 0.18200
C 	C 	0.59423 0.65046 0.20321 -0.05200
H 	H 	0.65039 0.73859 0.09024 0.10000
H 	H 	0.57812 0.62564 0.23460 0.10100
Cl	Cl	0.68690 0.81634 0.16577 -0.24900
Cl	Cl	0.53916 0.54802 0.15915 -0.23800
C 	C 	0.77065 0.52223 0.98473 -0.06700
C 	C 	0.82765 0.55540 0.97097 0.18100
C 	C 	0.86521 0.53495 0.97735 -0.02400
C 	C 	0.84626 0.48124 0.99710 -0.09500
C 	C 	0.78886 0.44751 0.00996 0.20500
C 	C 	0.75139 0.46820 0.00379 -0.03700
H 	H 	0.90922 0.56083 0.96691 0.09100
H 	H 	0.70721 0.44211 0.01355 0.10900
Cl	Cl	0.85263 0.62285 0.94588 -0.25000
Cl	Cl	0.76360 0.37997 0.03495 -0.27500
C 	C 	0.38237 0.55242 0.99620 -0.08100
C 	C 	0.35562 0.51863 0.03543 0.19800
C 	C 	0.29821 0.49955 0.04394 -0.04100
C 	C 	0.26710 0.51415 0.01378 -0.05800
C 	C 	0.29429 0.54918 0.97513 0.18300
C 	C 	0.35141 0.56713 0.96607 -0.03000
H 	H 	0.27772 0.47319 0.07397 0.10300
H 	H 	0.37171 0.59264 0.93563 0.10800
Cl	Cl	0.39359 0.49987 0.07424 -0.26100
Cl	Cl	0.25847 0.57382 0.93945 -0.27100
C 	C 	0.64287 0.61301 0.87065 -0.03100
C 	C 	0.61193 0.59847 0.82891 0.18200
C 	C 	0.64070 0.61301 0.78650 -0.05300
C 	C 	0.70036 0.64179 0.78508 -0.03200
C 	C 	0.73116 0.65293 0.82672 0.18100
C 	C 	0.70236 0.63841 0.86917 -0.05200
H 	H 	0.61646 0.60277 0.75465 0.10200
H 	H 	0.72653 0.64826 0.90104 0.10500
Cl	Cl	0.53709 0.56218 0.82892 -0.24500
Cl	Cl	0.80582 0.68548 0.82660 -0.23600
C 	C 	0.80832 0.93021 0.65606 -0.07800
C 	C 	0.83085 0.96824 0.61835 0.20500
C 	C 	0.85605 0.02673 0.62599 -0.05500
C 	C 	0.85886 0.04791 0.67087 -0.06800
C 	C 	0.83716 0.01007 0.70855 0.16700
C 	C 	0.81171 0.95162 0.70097 -0.01600
H 	H 	0.87250 0.05569 0.59683 0.11100
H 	H 	0.79517 0.92276 0.73020 0.09600
Cl	Cl	0.82904 0.94366 0.56151 -0.22500
Cl	Cl	0.84355 0.03544 0.76574 -0.26700
C 	C 	0.80032 0.51715 0.67163 -0.08200
C 	C 	0.85120 0.53761 0.69697 0.19400
C 	C 	0.87515 0.50309 0.70340 -0.04000
C 	C 	0.84812 0.44767 0.68575 -0.06500
C 	C 	0.79482 0.42572 0.66367 0.18700
C 	C 	0.77156 0.46078 0.65632 -0.03200
H 	H 	0.91512 0.51959 0.72176 0.10300
H 	H 	0.73145 0.44435 0.63818 0.08600
Cl	Cl	0.88442 0.60578 0.72216 -0.27300
Cl	Cl	0.75531 0.35380 0.64720 -0.27100
C 	C 	0.69742 0.73353 0.45396 -0.03200
C 	C 	0.67501 0.67602 0.46612 0.18000
C 	C 	0.69518 0.66163 0.50516 -0.05700
C 	C 	0.73720 0.70377 0.53313 -0.02600
C 	C 	0.76276 0.76103 0.51921 0.17900
C 	C 	0.74215 0.77578 0.48008 -0.05100
H 	H 	0.67682 0.61732 0.51438 0.10700
H 	H 	0.76195 0.81978 0.46940 0.12500
Cl	Cl	0.62213 0.62086 0.43223 -0.28100
Cl	Cl	0.82372 0.81375 0.54741 -0.24300
C 	C 	0.43251 0.85002 0.31552 -0.06200
C 	C 	0.41543 0.79732 0.33687 0.19100
C 	C 	0.45503 0.77949 0.34408 -0.02900
C 	C 	0.51158 0.81366 0.32986 -0.07600
C 	C 	0.52807 0.86541 0.30687 0.19600
C 	C 	0.48861 0.88348 0.30019 -0.03700
H 	H 	0.44175 0.73890 0.36052 0.09200
H 	H 	0.50152 0.92346 0.28281 0.10500
Cl	Cl	0.34408 0.75224 0.35307 -0.27100
Cl	Cl	0.59705 0.90645 0.28390 -0.26100
C 	C 	0.04421 0.88338 0.33410 -0.06500
C 	C 	0.01473 0.84213 0.36847 0.17300
C 	C 	0.95602 0.81873 0.37344 -0.01700
C 	C 	0.92625 0.83647 0.34468 -0.07400
C 	C 	0.95616 0.87947 0.31152 0.20900
C 	C 	0.01472 0.90185 0.30582 -0.05700
H 	H 	0.93351 0.78671 0.39974 0.10100
H 	H 	0.03713 0.93324 0.27913 0.11300
Cl	Cl	0.05091 0.81942 0.40563 -0.28000
Cl	Cl	0.92161 0.90805 0.27878 -0.26700
C 	C 	0.18790 0.12336 0.34908 -0.06900
C 	C 	0.14892 0.11481 0.31331 0.18800
C 	C 	0.12802 0.15226 0.30835 -0.03800
C 	C 	0.14554 0.19823 0.33869 -0.08000
C 	C 	0.18429 0.20677 0.37445 0.19000
C 	C 	0.20521 0.16936 0.37951 -0.03900
H 	H 	0.09799 0.14547 0.28093 0.08700
H 	H 	0.23468 0.17586 0.40734 0.10000
Cl	Cl	0.12406 0.05619 0.27561 -0.29800
Cl	Cl	0.20607 0.26354 0.41378 -0.25600
C 	C 	0.18454 0.71580 0.33077 -0.07300
C 	C 	0.18563 0.68883 0.28923 0.19400
C 	C 	0.15786 0.62946 0.28704 -0.04200
C 	C 	0.12771 0.59639 0.32549 -0.06700
C 	C 	0.12637 0.62340 0.36683 0.18600
C 	C 	0.15583 0.68264 0.36955 -0.03400
H 	H 	0.15962 0.60903 0.25530 0.11200
H 	H 	0.15439 0.70305 0.40142 0.10100
Cl	Cl	0.21903 0.72835 0.23891 -0.24800
Cl	Cl	0.08447 0.58387 0.41437 -0.26200
C 	C 	0.37786 0.98714 0.12838 0.00400
C 	C 	0.34332 0.92973 0.14126 0.17400
C 	C 	0.30842 0.91575 0.18075 -0.05200
C 	C 	0.30947 0.95877 0.20842 -0.01700
C 	C 	0.34806 0.01605 0.19766 0.17000
C 	C 	0.38206 0.02971 0.15822 -0.07400
H 	H 	0.28196 0.87166 0.19056 0.11500
H 	H 	0.41080 0.07393 0.15019 0.11400
Cl	Cl	0.34845 0.87573 0.11200 -0.27800
Cl	Cl	0.35560 0.07174 0.23385 -0.27500
C 	C 	0.15464 0.64331 0.00102 -0.06400
C 	C 	0.17540 0.66967 0.04443 0.18900
C 	C 	0.20668 0.72899 0.04744 -0.04100
C 	C 	0.21677 0.76254 0.00770 -0.06100
C 	C 	0.19525 0.73615 0.96453 0.18100
C 	C 	0.16541 0.67694 0.96130 -0.04100
H 	H 	0.22342 0.74899 0.08070 0.11200
H 	H 	0.14869 0.65697 0.92802 0.10000
Cl	Cl	0.16048 0.62930 0.09568 -0.25600
Cl	Cl	0.20196 0.77659 0.91468 -0.24600
C 	C 	0.62894 0.17578 0.00264 -0.07300
C 	C 	0.66794 0.17812 0.03604 0.19000
C 	C 	0.72624 0.21075 0.02765 -0.03100
C 	C 	0.74650 0.24421 0.98753 -0.06400
C 	C 	0.70745 0.24692 0.95673 0.18900
C 	C 	0.64904 0.21177 0.96387 -0.04100
H 	H 	0.75588 0.21050 0.05266 0.11000
H 	H 	0.61936 0.21197 0.93890 0.10300
Cl	Cl	0.64450 0.14296 0.08974 -0.24800
Cl	Cl	0.73058 0.29687 0.91121 -0.24100
C 	C 	0.48463 0.27223 0.98677 -0.07200
C 	C 	0.46278 0.30019 0.95991 0.18200
C 	C 	0.48353 0.35827 0.96620 -0.02500
C 	C 	0.52592 0.38889 0.99919 -0.09400
C 	C 	0.54727 0.36090 0.02648 0.19700
C 	C 	0.52657 0.30277 0.02020 -0.03600
H 	H 	0.46671 0.37968 0.94537 0.09400
H 	H 	0.54362 0.28148 0.04091 0.09600
Cl	Cl	0.40812 0.26265 0.91927 -0.25400
Cl	Cl	0.59896 0.39787 0.06936 -0.27900
C 	C 	0.48025 0.86515 0.99621 -0.08300
C 	C 	0.52412 0.87765 0.02818 0.20100
C 	C 	0.54662 0.84152 0.03210 -0.04200
C 	C 	0.52570 0.79276 0.00440 -0.05900
C 	C 	0.48148 0.78011 0.97256 0.18100
C 	C 	0.45905 0.81636 0.96867 -0.03200
H 	H 	0.58005 0.85105 0.05706 0.10700
H 	H 	0.42513 0.80657 0.94416 0.09200
Cl	Cl	0.55036 0.93781 0.06435 -0.25100
Cl	Cl	0.45216 0.71796 0.93865 -0.28500
C 	C 	0.39192 0.04538 0.87651 -0.03100
C 	C 	0.33456 0.02555 0.86535 0.16900
C 	C 	0.32065 0.04398 0.82496 -0.04900
C 	C 	0.36309 0.08079 0.79421 -0.02700
C 	C 	0.42065 0.10378 0.80674 0.18000
C 	C 	0.43481 0.08552 0.84765 -0.05300
H 	H 	0.27636 0.02809 0.81688 0.11100
H 	H 	0.47902 0.10324 0.85720 0.10300
Cl	Cl	0.27906 0.97714 0.90157 -0.24300
Cl	Cl	0.47503 0.15874 0.77413 -0.29300
C 	C 	0.58435 0.14337 0.66896 -0.06400
C 	C 	0.61322 0.16013 0.62611 0.19200
C 	C 	0.67258 0.18996 0.62515 -0.03000
C 	C 	0.70379 0.20118 0.66630 -0.06700
C 	C 	0.67501 0.18351 0.70905 0.19100
C 	C 	0.61565 0.15550 0.71023 -0.03700
H 	H 	0.69450 0.20216 0.59210 0.10400
H 	H 	0.59385 0.14320 0.74332 0.10600
Cl	Cl	0.57581 0.14023 0.57314 -0.25000
Cl	Cl	0.71249 0.19300 0.76116 -0.23800
C 	C 	0.09623 0.18118 0.65997 -0.07100
C 	C 	0.09243 0.13805 0.63033 0.18400
C 	C 	0.12943 0.11687 0.63652 -0.03900
C 	C 	0.16813 0.13592 0.67357 -0.07900
C 	C 	0.16647 0.17338 0.70653 0.18700
C 	C 	0.13214 0.19725 0.69874 -0.04100
H 	H 	0.12847 0.08605 0.61216 0.11000
H 	H 	0.13311 0.22808 0.72310 0.10100
Cl	Cl	0.03875 0.10676 0.58788 -0.26500
Cl	Cl	0.20432 0.18797 0.75914 -0.26000
C 	C 	0.08736 0.88143 0.65779 -0.06800
C 	C 	0.06101 0.85961 0.70095 0.19400
C 	C 	0.00179 0.82951 0.70415 -0.06900
C 	C 	0.96822 0.81861 0.66439 -0.05400
C 	C 	0.99459 0.83763 0.62079 0.19800
C 	C 	0.05382 0.86969 0.61785 -0.05100
H 	H 	0.98178 0.81307 0.73747 0.12100
H 	H 	0.07376 0.88588 0.58447 0.11100
Cl	Cl	0.10153 0.86636 0.75077 -0.25200
Cl	Cl	0.95442 0.81862 0.56926 -0.23000
C 	C 	0.48125 0.30584 0.66209 -0.07500
C 	C 	0.53827 0.33030 0.64786 0.18800
C 	C 	0.57526 0.38852 0.65388 -0.03500
C 	C 	0.55606 0.42249 0.67465 -0.07200
C 	C 	0.49923 0.39805 0.68910 0.18600
C 	C 	0.46200 0.34003 0.68248 -0.03100
H 	H 	0.61914 0.40727 0.64292 0.08700
H 	H 	0.41825 0.32131 0.69382 0.09700
Cl	Cl	0.56378 0.28871 0.62184 -0.26300
Cl	Cl	0.47405 0.43974 0.71539 -0.25100
C 	C 	0.30358 0.04162 0.53974 -0.02800
C 	C 	0.24691 0.01374 0.52349 0.16400
C 	C 	0.23255 0.98058 0.48296 -0.04000
C 	C 	0.27434 0.97572 0.45812 -0.01800
C 	C 	0.33111 0.00513 0.47382 0.16500
C 	C 	0.34503 0.03697 0.51448 -0.05300
H 	H 	0.18928 0.95996 0.47022 0.11000
H 	H 	0.38851 0.05786 0.52667 0.11000
Cl	Cl	0.19416 0.02230 0.55152 -0.29900
Cl	Cl	0.38633 0.00466 0.44200 -0.27500
