data_crystal

_cell_length_a 16.33334
_cell_length_b 17.50528
_cell_length_c 45.35619
_cell_angle_alpha 90.27764
_cell_angle_beta  90.27901
_cell_angle_gamma 119.24681

_symmetry_space_group_name_	'P 1'
_symmetry_space_group_name_H-M	'P 1'

loop_
_symmetry_equiv_pos_as_xyz
  x,y,z

loop_
_atom_site_label
_atom_site_type_symbol
_atom_site_fract_x
_atom_site_fract_y
_atom_site_fract_z
_atom_site_charge
C 	C 	0.20617 0.08047 0.72570 0.30400
C 	C 	0.23737 0.08534 0.80453 0.25200
Ni	Ni	0.09660 0.11461 0.76909 1.11700
Ni	Ni	0.10030 0.93382 0.76800 1.13200
O 	O 	0.14171 0.10435 0.72900 -0.38700
O 	O 	0.19510 0.99874 0.80026 -0.33000
O 	O 	0.22046 0.13792 0.78733 -0.37100
O 	O 	0.19728 0.00949 0.73848 -0.38900
H 	H 	0.04981 0.00248 0.79992 0.11700
C 	C 	0.16827 0.43835 0.48397 0.32300
C 	C 	0.16173 0.43386 0.40067 0.30500
Ni	Ni	0.14376 0.55998 0.44331 1.11700
O 	O 	0.11719 0.47699 0.47870 -0.37300
O 	O 	0.16500 0.63151 0.40510 -0.36400
O 	O 	0.10518 0.44677 0.41802 -0.35700
O 	O 	0.14498 0.66020 0.47001 -0.37000
C 	C 	0.07043 0.61823 0.15164 0.32900
O 	O 	0.09580 0.57970 0.17205 -0.38800
O 	O 	0.09662 0.62179 0.12378 -0.38900
C 	C 	0.07589 0.87066 0.25331 0.28300
C 	C 	0.02506 0.12908 0.32482 0.29600
C 	C 	0.03572 0.87524 0.33544 0.29100
C 	C 	0.05948 0.11879 0.24310 0.27200
Ni	Ni	0.08832 0.01779 0.29191 1.09900
O 	O 	0.12053 0.92426 0.27558 -0.34800
O 	O 	0.09237 0.12989 0.30910 -0.36800
O 	O 	0.05996 0.95841 0.33294 -0.34100
O 	O 	0.10814 0.08014 0.25177 -0.37300
C 	C 	0.10203 0.18813 0.22052 -0.04900
C 	C 	0.05067 0.18512 0.19501 -0.01100
C 	C 	0.08626 0.25770 0.17590 0.01000
C 	C 	0.17771 0.32834 0.18043 -0.06400
C 	C 	0.19515 0.25719 0.22416 0.00100
C 	C 	0.02976 0.25902 0.15137 0.07900
C 	C 	0.24070 0.82435 0.18976 -0.06400
C 	C 	0.17726 0.85249 0.18020 0.00000
C 	C 	0.12099 0.86519 0.20102 0.00300
C 	C 	0.13162 0.85382 0.23134 -0.05700
C 	C 	0.20339 0.83636 0.24076 0.00400
C 	C 	0.26372 0.83109 0.21995 0.00400
C 	C 	0.21072 0.81736 0.27145 0.10400
C 	C 	0.35175 0.83747 0.22936 0.10500
C 	C 	0.05319 0.89086 0.19133 0.08300
N 	N 	0.42209 0.84258 0.23683 -0.09700
N 	N 	0.99907 0.91131 0.18362 -0.09300
N 	N 	0.21657 0.80192 0.29590 -0.09900
C 	C 	0.04828 0.20029 0.34661 -0.05900
C 	C 	0.10799 0.21063 0.37066 0.00300
C 	C 	0.14811 0.28853 0.38757 0.00600
C 	C 	0.12309 0.35383 0.38190 -0.06300
C 	C 	0.05878 0.34118 0.35895 0.00900
C 	C 	0.02209 0.26484 0.34114 -0.00500
C 	C 	0.12733 0.14055 0.37826 0.08700
C 	C 	0.03272 0.40791 0.35307 0.09300
C 	C 	0.21641 0.30196 0.41042 0.08100
N 	N 	0.01201 0.46121 0.34840 -0.10100
N 	N 	0.14292 0.08484 0.38445 -0.11200
C 	C 	0.16208 0.76181 0.38945 -0.06800
C 	C 	0.06509 0.73267 0.39204 0.01800
C 	C 	0.02345 0.77244 0.37534 -0.00900
C 	C 	0.07998 0.84780 0.35857 -0.03900
C 	C 	0.17852 0.88330 0.35899 -0.01000
C 	C 	0.00838 0.66306 0.41233 0.07500
H 	H 	0.14265 0.78043 0.50634 0.08700
C 	C 	0.13272 0.50498 0.61722 0.02600
C 	C 	0.11569 0.41851 0.61408 -0.03400
C 	C 	0.10835 0.38249 0.58594 -0.03800
C 	C 	0.12046 0.43339 0.56087 0.00900
C 	C 	0.14341 0.52141 0.56414 -0.03500
C 	C 	0.14990 0.55714 0.59222 -0.03700
C 	C 	0.09452 0.39182 0.53158 0.01300
C 	C 	0.16437 0.40268 0.51168 -0.16100
H 	H 	0.09041 0.31443 0.58361 0.04700
H 	H 	0.15260 0.56109 0.54486 0.04800
H 	H 	0.16456 0.62432 0.59448 0.05100
H 	H 	0.02479 0.37333 0.52318 0.04100
H 	H 	0.22125 0.39165 0.51889 0.08600
N 	N 	0.14302 0.19986 0.67173 -0.10700
C 	C 	0.00548 0.64528 0.15948 -0.17700
C 	C 	0.22932 0.02342 0.86437 0.04800
N 	N 	0.15905 0.97068 0.87408 -0.07800
C 	C 	0.13056 0.79256 0.82851 0.10000
N 	N 	0.12934 0.61279 0.86691 -0.09900
N 	N 	0.19661 0.81912 0.81389 -0.10100
O 	O 	0.16197 0.45642 0.17309 -0.36900
O 	O 	0.03518 0.99515 0.77866 -0.67900
C 	C 	0.24799 0.26381 0.25075 0.09900
C 	C 	0.32044 0.12642 0.82457 -0.04900
C 	C 	0.31761 0.09004 0.85257 0.01000
C 	C 	0.20531 0.71717 0.40578 0.31100
C 	C 	0.21863 0.72818 0.48287 0.33000
Ni	Ni	0.32432 0.52733 0.44008 1.12400
O 	O 	0.21724 0.42722 0.46264 -0.37600
O 	O 	0.27399 0.76303 0.42448 -0.37600
O 	O 	0.25253 0.48703 0.40152 -0.37100
O 	O 	0.30449 0.73823 0.48185 -0.39000
O 	O 	0.27296 0.60136 0.44917 -0.71500
H 	H 	0.27428 0.59868 0.47083 0.15500
C 	C 	0.20690 0.41340 0.16599 0.29600
C 	C 	0.22977 0.54282 0.06769 0.34300
C 	C 	0.26256 0.76791 0.17040 0.29800
Ni	Ni	0.23271 0.67625 0.11248 1.12000
Ni	Ni	0.22373 0.58809 0.17590 1.12300
O 	O 	0.28695 0.45063 0.15104 -0.36200
O 	O 	0.26002 0.77416 0.14154 -0.36800
O 	O 	0.24383 0.49587 0.08805 -0.38300
O 	O 	0.20043 0.59963 0.07492 -0.38600
O 	O 	0.29146 0.71727 0.18234 -0.38800
O 	O 	0.24919 0.59236 0.13479 -0.71000
H 	H 	0.18993 0.54013 0.12888 0.15900
C 	C 	0.23519 0.32231 0.20250 0.00600
C 	C 	0.33588 0.37952 0.20193 0.10100
N 	N 	0.29018 0.26919 0.27197 -0.10500
C 	C 	0.17559 0.87549 0.14964 0.09700
N 	N 	0.17424 0.89401 0.12525 -0.11000
N 	N 	0.27109 0.31232 0.42855 -0.12000
C 	C 	0.21884 0.83758 0.37295 0.02000
C 	C 	0.23807 0.96460 0.34389 0.14400
C 	C 	0.31773 0.86591 0.36907 0.09900
N 	N 	0.28560 0.02945 0.33182 -0.15200
C 	C 	0.28870 0.95396 0.50953 0.04300
C 	C 	0.31366 0.03635 0.49771 -0.07800
C 	C 	0.39608 0.10578 0.54301 0.01400
C 	C 	0.35865 0.02336 0.55634 -0.07700
C 	C 	0.30489 0.94751 0.53963 0.00100
C 	C 	0.27362 0.88228 0.48929 0.01300
C 	C 	0.20707 0.79534 0.49495 -0.15900
H 	H 	0.37668 0.01794 0.57896 0.05200
H 	H 	0.28348 0.88414 0.54934 0.04600
H 	H 	0.05628 0.52018 0.68745 0.09500
C 	C 	0.29205 0.13383 0.70753 -0.05900
C 	C 	0.29392 0.19192 0.68540 0.00300
C 	C 	0.37252 0.12340 0.71142 0.00700
C 	C 	0.20992 0.19623 0.67784 0.09700
C 	C 	0.38414 0.08180 0.73750 0.09900
N 	N 	0.39383 0.04875 0.75826 -0.10800
C 	C 	0.33331 0.49978 0.00212 -0.00000
C 	C 	0.32568 0.42869 0.98554 -0.03300
C 	C 	0.39096 0.44204 0.96349 -0.03700
C 	C 	0.28247 0.48352 0.03038 0.03200
C 	C 	0.24553 0.53404 0.03907 -0.19100
H 	H 	0.27242 0.36262 0.99083 0.04100
H 	H 	0.38790 0.38594 0.95225 0.04600
H 	H 	0.28055 0.43333 0.04487 0.03500
H 	H 	0.23737 0.57581 0.02299 0.09300
C 	C 	0.39926 0.12436 0.87030 0.00100
C 	C 	0.40282 0.20309 0.81595 0.00200
C 	C 	0.40215 0.07645 0.89592 0.09200
C 	C 	0.41012 0.23977 0.78680 0.10400
N 	N 	0.41650 0.26987 0.76369 -0.10400
N 	N 	0.40452 0.03820 0.91636 -0.11900
C 	C 	0.36728 0.11218 0.51443 -0.03000
N 	N 	0.09902 0.31648 0.77465 -0.11300
C 	C 	0.12961 0.54036 0.64659 0.01700
O 	O 	0.34082 0.58773 0.19040 -0.37500
Ni	Ni	0.35841 0.72211 0.44407 1.12400
O 	O 	0.39883 0.70753 0.40397 -0.37800
O 	O 	0.40304 0.56989 0.47686 -0.39200
O 	O 	0.44121 0.60510 0.41650 -0.36900
C 	C 	0.42393 0.64229 0.18014 0.30500
Ni	Ni	0.33798 0.55836 0.12232 1.11300
O 	O 	0.41376 0.64849 0.08956 -0.39100
O 	O 	0.36996 0.74889 0.10249 -0.39200
N 	N 	0.41636 0.42479 0.20133 -0.10400
N 	N 	0.38086 0.53100 0.25172 -0.10000
N 	N 	0.34534 0.66015 0.32929 -0.09500
N 	N 	0.39655 0.88838 0.36595 -0.09700
C 	C 	0.47511 0.18290 0.55696 0.01600
C 	C 	0.55619 0.17994 0.56551 -0.16700
H 	H 	0.29883 0.04197 0.47475 0.04900
H 	H 	0.39270 0.17572 0.50436 0.04300
H 	H 	0.47350 0.24421 0.55782 0.03900
H 	H 	0.55660 0.11806 0.56448 0.09000
H 	H 	0.32168 0.89686 0.47097 0.04500
H 	H 	0.47542 0.54739 0.52259 0.04200
C 	C 	0.37777 0.24347 0.66963 0.00700
C 	C 	0.45419 0.22722 0.67253 -0.06200
C 	C 	0.44573 0.15989 0.69108 0.00500
C 	C 	0.38560 0.31361 0.65092 0.09200
N 	N 	0.39188 0.36963 0.63599 -0.11300
H 	H 	0.41147 0.90100 0.01064 0.05800
C 	C 	0.46535 0.52666 0.95812 0.01300
C 	C 	0.46747 0.59842 0.97274 -0.03900
C 	C 	0.40205 0.58519 0.99467 -0.03000
H 	H 	0.40884 0.64086 0.00721 0.04300
H 	H 	0.49704 0.47961 0.90112 0.09600
C 	C 	0.47881 0.20390 0.86257 -0.06100
C 	C 	0.47850 0.24495 0.83577 0.00800
O 	O 	0.05114 0.13629 0.80804 -0.37800
C 	C 	0.41424 0.72247 0.08476 0.36800
H 	H 	0.52391 0.66407 0.96860 0.05000
C 	C 	0.08453 0.64750 0.86689 0.10400
C 	C 	0.56115 0.24596 0.88272 0.29900
O 	O 	0.54746 0.25499 0.91132 -0.37300
C 	C 	0.63496 0.25359 0.57671 0.34500
C 	C 	0.54644 0.28713 0.65939 0.30500
O 	O 	0.55230 0.30069 0.63087 -0.37200
C 	C 	0.45221 0.67172 0.40018 0.30400
C 	C 	0.46064 0.65414 0.48274 0.33300
O 	O 	0.46682 0.71692 0.46483 -0.38500
O 	O 	0.44254 0.63779 0.15229 -0.36000
C 	C 	0.50012 0.70232 0.20064 -0.06200
C 	C 	0.44016 0.59318 0.24098 0.10300
N 	N 	0.51778 0.85829 0.14813 -0.09200
C 	C 	0.42104 0.69195 0.33866 0.10400
C 	C 	0.53692 0.61170 0.52052 0.01600
C 	C 	0.50704 0.12255 0.68760 0.08900
N 	N 	0.55457 0.09108 0.68498 -0.10400
C 	C 	0.48683 0.92720 0.01043 -0.07100
C 	C 	0.53939 0.98135 0.98744 0.04600
C 	C 	0.47568 0.85367 0.05807 0.02600
C 	C 	0.47087 0.77612 0.06383 -0.19500
H 	H 	0.50431 0.99686 0.97004 0.04800
H 	H 	0.43238 0.87459 0.07004 0.04700
C 	C 	0.55160 0.53786 0.94382 0.02000
C 	C 	0.54782 0.49033 0.91844 -0.16800
C 	C 	0.55441 0.33177 0.82893 0.08700
C 	C 	0.53615 0.82810 0.16800 0.10100
H 	H 	0.19427 0.59279 0.65583 0.04100
O 	O 	0.64195 0.33126 0.57451 -0.38200
C 	C 	0.60432 0.45129 0.91634 0.35100
C 	C 	0.51460 0.67168 0.22785 0.01100
C 	C 	0.51594 0.73187 0.35042 0.00900
C 	C 	0.53204 0.71310 0.37944 -0.06000
C 	C 	0.53122 0.67630 0.50396 -0.15600
C 	C 	0.53131 0.90707 0.03315 0.04000
H 	H 	0.51177 0.75501 0.05062 0.09600
H 	H 	0.61764 0.57313 0.95586 0.04900
N 	N 	0.61473 0.40088 0.82332 -0.12100
C 	C 	0.04799 0.75924 0.84689 0.00500
O 	O 	0.61943 0.42645 0.89036 -0.38600
O 	O 	0.63169 0.42970 0.94062 -0.39900
C 	C 	0.55949 0.79079 0.19299 0.01800
H 	H 	0.10434 0.37830 0.63336 0.05700
C 	C 	0.04585 0.29246 0.79380 0.08700
O 	O 	0.64541 0.28706 0.87100 -0.38000
Ni	Ni	0.64736 0.32351 0.94304 1.12300
Ni	Ni	0.66384 0.40866 0.61155 1.11500
O 	O 	0.70346 0.24467 0.58858 -0.38200
O 	O 	0.61733 0.33649 0.67693 -0.36200
H 	H 	0.58846 0.74337 0.50515 0.09600
H 	H 	0.60906 0.51071 0.50191 0.04900
N 	N 	0.56040 0.85517 0.28561 -0.09600
H 	H 	0.66081 0.06509 0.94173 0.03600
C 	C 	0.59940 0.72116 0.24344 0.00200
C 	C 	0.59196 0.78876 0.33275 0.00500
C 	C 	0.62538 0.74730 0.38990 0.00500
C 	C 	0.57453 0.82543 0.30646 0.10200
C 	C 	0.62918 0.62152 0.52840 0.01300
C 	C 	0.63723 0.01747 0.98728 -0.10000
O 	O 	0.01611 0.83307 0.79489 -0.36100
C 	C 	0.64346 0.72621 0.41924 0.10100
C 	C 	0.04842 0.50364 0.66412 -0.15600
H 	H 	0.99977 0.78455 0.09151 0.05700
C 	C 	0.62908 0.94152 0.03274 -0.08300
N 	N 	0.65835 0.70943 0.44261 -0.10400
O 	O 	0.67368 0.22363 0.95042 -0.37900
C 	C 	0.65582 0.56272 0.51674 -0.03300
H 	H 	0.67046 0.73480 0.55655 0.05200
N 	N 	0.67858 0.13898 0.88913 -0.11100
C 	C 	0.61787 0.68463 0.26968 0.09300
H 	H 	0.66409 0.92662 0.05031 0.07000
O 	O 	0.67134 0.49029 0.64676 -0.35700
C 	C 	0.63835 0.84456 0.21085 -0.01000
C 	C 	0.02878 0.69127 0.86699 0.00400
C 	C 	0.69057 0.68916 0.54739 -0.03300
C 	C 	0.68194 0.99656 0.00983 0.08700
C 	C 	0.69184 0.07824 0.96366 0.05100
N 	N 	0.63221 0.65487 0.29050 -0.10900
C 	C 	0.66497 0.80659 0.23385 -0.04200
N 	N 	0.03190 0.48351 0.81393 -0.10000
O 	O 	0.71638 0.37330 0.98186 -0.39500
O 	O 	0.71071 0.24089 0.66123 -0.38400
C 	C 	0.68490 0.81678 0.34232 -0.05400
C 	C 	0.70140 0.80238 0.37177 0.00900
Ni	Ni	0.73301 0.41191 0.88140 1.12500
C 	C 	0.68207 0.93884 0.20836 0.15400
N 	N 	0.54661 0.54069 0.69734 -0.09900
O 	O 	0.76722 0.50961 0.58712 -0.37200
C 	C 	0.74346 0.57176 0.52372 -0.03100
C 	C 	0.75695 0.23517 0.95938 0.33100
O 	O 	0.75230 0.36905 0.91753 -0.71600
H 	H 	0.74703 0.31358 0.91057 0.16300
O 	O 	0.75926 0.39272 0.62869 -0.71500
C 	C 	0.74767 0.16717 0.87599 0.08500
C 	C 	0.77793 0.69747 0.55475 -0.03400
C 	C 	0.76162 0.16344 0.97065 -0.17500
H 	H 	0.75732 0.02300 0.00967 -0.00500
C 	C 	0.74601 0.53262 0.66431 0.28500
Ni	Ni	0.75265 0.36680 0.66930 1.12700
N 	N 	0.71610 0.01414 0.20643 -0.13600
C 	C 	0.62629 0.58761 0.69479 0.10200
H 	H 	0.74086 0.45889 0.02865 0.09700
C 	C 	0.77314 0.21790 0.65413 0.30700
H 	H 	0.76405 0.52702 0.51407 0.05600
N 	N 	0.76964 0.11326 0.78039 -0.10500
N 	N 	0.74014 0.28317 0.72777 -0.12600
C 	C 	0.78297 0.45483 0.98544 0.37400
C 	C 	0.80413 0.63804 0.54328 0.02400
C 	C 	0.76213 0.23474 0.71798 0.07900
C 	C 	0.77887 0.62466 0.67212 -0.05900
C 	C 	0.76406 0.85574 0.32113 0.30200
C 	C 	0.76296 0.85087 0.24614 0.28300
C 	C 	0.72609 0.64628 0.69158 0.00600
C 	C 	0.79161 0.12000 0.75593 0.09400
O 	O 	0.78422 0.49123 0.67837 -0.36300
C 	C 	0.78975 0.17391 0.70586 0.01000
O 	O 	0.01694 0.87344 0.73262 -0.35800
C 	C 	0.79383 0.16376 0.67491 -0.06300
O 	O 	0.83165 0.42476 0.57115 -0.37900
Ni	Ni	0.82269 0.34603 0.60560 1.12300
H 	H 	0.80912 0.45432 0.62954 0.15300
O 	O 	0.77225 0.91961 0.30387 -0.36300
C 	C 	0.79499 0.85189 0.38431 0.10600
C 	C 	0.79353 0.49325 0.01190 -0.20200
H 	H 	0.81519 0.17387 0.98693 0.09000
N 	N 	0.77582 0.98019 0.86381 -0.06800
N 	N 	0.08023 0.89130 0.66699 -0.09200
N 	N 	0.82172 0.70756 0.93986 -0.10700
H 	H 	0.82470 0.74940 0.56960 0.05500
O 	O 	0.81028 0.53703 0.89501 -0.37900
C 	C 	0.83546 0.50209 0.57386 0.32700
O 	O 	0.83207 0.25858 0.63259 -0.37200
N 	N 	0.80964 0.06705 0.60807 -0.11500
C 	C 	0.77182 0.72319 0.70889 0.00700
C 	C 	0.71736 0.75316 0.72560 0.09800
N 	N 	0.67382 0.77714 0.73891 -0.10400
O 	O 	0.83049 0.31509 0.96338 -0.37300
O 	O 	0.79914 0.80061 0.25420 -0.36600
C 	C 	0.81713 0.08508 0.63289 0.09100
O 	O 	0.81570 0.93765 0.24534 -0.35000
C 	C 	0.81772 0.12821 0.72514 0.00400
C 	C 	0.82650 0.10766 0.66399 0.00300
C 	C 	0.81466 0.05271 0.85664 0.05900
O 	O 	0.84664 0.49304 0.96501 -0.38700
O 	O 	0.84636 0.40706 0.86379 -0.36000
O 	O 	0.82381 0.82531 0.32024 -0.37200
C 	C 	0.87226 0.68764 0.66592 0.00200
C 	C 	0.83355 0.20137 0.85924 -0.00400
H 	H 	0.84515 0.46717 0.06744 0.04800
C 	C 	0.92387 0.67027 0.64339 0.08300
C 	C 	0.86619 0.71599 0.91910 0.09800
N 	N 	0.96550 0.65656 0.62553 -0.11300
C 	C 	0.87812 0.35447 0.87357 0.28200
Ni	Ni	0.87376 0.42110 0.93408 1.11500
N 	N 	0.86968 0.89167 0.39430 -0.09300
N 	N 	0.84100 0.69909 0.37252 -0.10400
C 	C 	0.89641 0.64674 0.55117 0.02000
C 	C 	0.86544 0.08565 0.71415 -0.05800
C 	C 	0.86652 0.07214 0.68353 0.01300
C 	C 	0.87055 0.77470 0.70770 -0.05600
C 	C 	0.86230 0.14359 0.84762 0.02200
C 	C 	0.90584 0.57381 0.55897 -0.15600
C 	C 	0.87143 0.56876 0.01910 0.04100
O 	O 	0.89078 0.39890 0.67197 -0.38000
O 	O 	0.88255 0.82128 0.75893 -0.35800
C 	C 	0.91733 0.76457 0.68308 0.00900
C 	C 	0.87640 0.53630 0.07263 -0.02900
C 	C 	0.88509 0.29154 0.85323 -0.05400
O 	O 	0.88205 0.97697 0.74144 -0.33500
Ni	Ni	0.88681 0.00565 0.28145 1.10500
H 	H 	0.88376 0.51628 0.11897 0.05800
C 	C 	0.90151 0.57607 0.89751 0.30600
C 	C 	0.89372 0.59753 0.05021 0.00100
O 	O 	0.90991 0.36128 0.90096 -0.36100
O 	O 	0.89283 0.03296 0.80410 -0.36900
Ni	Ni	0.90035 0.82820 0.28510 1.12500
N 	N 	0.89921 0.04094 0.18058 -0.11100
N 	N 	0.90658 0.91977 0.88762 -0.09400
Ni	Ni	0.90380 0.93287 0.78159 1.12300
C 	C 	0.90060 0.56430 0.10177 -0.02900
N 	N 	0.90953 0.24505 0.29724 -0.11000
C 	C 	0.90910 0.02240 0.67214 0.05500
H 	H 	0.92040 0.60875 0.00216 0.04100
C 	C 	0.91824 0.05999 0.73460 0.27300
C 	C 	0.92508 0.82754 0.73387 0.30200
C 	C 	0.92187 0.72638 0.89310 0.00800
C 	C 	0.92146 0.86384 0.88100 0.10700
C 	C 	0.92199 0.73211 0.37380 0.11000
O 	O 	0.94374 0.43788 0.62386 -0.38500
H 	H 	0.95926 0.70830 0.54672 0.03700
O 	O 	0.92099 0.87403 0.81948 -0.34200
O 	O 	0.93767 0.06760 0.32085 -0.37800
O 	O 	0.94331 0.53445 0.90856 -0.35800
C 	C 	0.94081 0.79417 0.87296 0.00400
C 	C 	0.93911 0.68712 0.05718 -0.02900
C 	C 	0.93624 0.17403 0.82698 -0.06200
C 	C 	0.95797 0.44799 0.65292 0.33000
H 	H 	0.97123 0.57445 0.55413 0.08600
N 	N 	0.94311 0.98273 0.66301 -0.07000
C 	C 	0.94766 0.65408 0.10863 0.02300
C 	C 	0.95678 0.66805 0.88776 -0.06400
C 	C 	0.95947 0.25385 0.31673 0.10000
O 	O 	0.96244 0.95134 0.27966 -0.70200
H 	H 	0.95389 0.73494 0.04004 0.04800
C 	C 	0.95434 0.32140 0.83125 0.00200
C 	C 	0.96620 0.10508 0.18708 0.09800
H 	H 	0.94882 0.72899 0.14807 0.03900
H 	H 	0.96867 0.95048 0.25807 0.16900
C 	C 	0.96155 0.11144 0.81271 0.29800
N 	N 	0.96303 0.60754 0.42850 -0.11200
C 	C 	0.96549 0.71524 0.08630 -0.04100
C 	C 	0.00792 0.83509 0.67415 0.10600
C 	C 	0.97124 0.68418 0.13952 0.02500
C 	C 	0.97923 0.26261 0.81781 0.01100
O 	O 	0.98325 0.82002 0.25340 -0.35300
C 	C 	0.98119 0.84333 0.81994 0.28400
O 	O 	0.98602 0.11208 0.25835 -0.35500
O 	O 	0.98639 0.12161 0.75053 -0.36600
N 	N 	0.98468 0.26013 0.13179 -0.10200
O 	O 	0.99210 0.82022 0.31366 -0.35500
C 	C 	0.99757 0.41163 0.82170 0.10400
C 	C 	0.99215 0.80084 0.84723 -0.04800
H 	H 	0.99109 0.64735 0.18274 0.10000
