data_crystal

_cell_length_a 18.68891
_cell_length_b 18.86636
_cell_length_c 39.84758
_cell_angle_alpha 95.44269
_cell_angle_beta  95.44244
_cell_angle_gamma 126.43143

_symmetry_space_group_name_	'P 1'
_symmetry_space_group_name_H-M	'P 1'

loop_
_symmetry_equiv_pos_as_xyz
  x,y,z

loop_
_atom_site_label
_atom_site_type_symbol
_atom_site_fract_x
_atom_site_fract_y
_atom_site_fract_z
_atom_site_charge
C 	C 	0.90509 0.00028 0.97047 0.04500
C 	C 	0.85926 0.90866 0.97136 -0.08900
C 	C 	0.90662 0.87214 0.97112 0.04100
C 	C 	0.99976 0.92785 0.97103 -0.07700
C 	C 	0.04486 0.01860 0.96962 0.03600
C 	C 	0.99756 0.05461 0.96925 -0.07300
H 	H 	0.78757 0.86624 0.97211 0.05300
H 	H 	0.03668 0.90018 0.97136 0.04900
H 	H 	0.03295 0.12521 0.96854 0.05000
C 	C 	0.95134 0.03621 0.50282 0.05700
C 	C 	0.04459 0.08395 0.50326 -0.10100
C 	C 	0.08318 0.03884 0.50340 0.05600
C 	C 	0.02847 0.94637 0.50274 -0.10400
C 	C 	0.93587 0.89900 0.50259 0.05600
C 	C 	0.89764 0.94418 0.50339 -0.10000
H 	H 	0.08637 0.15515 0.50284 0.05500
H 	H 	0.05791 0.91119 0.50214 0.05700
H 	H 	0.82564 0.90719 0.50300 0.05700
Cu	Cu	0.75532 0.34384 0.96517 0.92700
Cu	Cu	0.73949 0.27828 0.03931 0.87000
Cu	Cu	0.60430 0.29333 0.00488 0.89500
Cu	Cu	0.58642 0.33280 0.93512 0.89400
C 	C 	0.69620 0.31048 0.89227 0.28700
O 	O 	0.80537 0.47333 0.96342 -0.36200
C 	C 	0.65499 0.32808 0.08106 0.28700
O 	O 	0.61345 0.26708 0.95857 -0.64000
O 	O 	0.73799 0.35818 0.01290 -0.64300
O 	O 	0.81896 0.28882 0.97185 -0.37200
O 	O 	0.71795 0.19247 0.00267 -0.44200
O 	O 	0.65825 0.34997 0.89845 -0.38700
O 	O 	0.47421 0.22243 0.99429 -0.38900
C 	C 	0.42727 0.23161 0.97061 0.30400
C 	C 	0.76233 0.50519 0.97294 0.28900
O 	O 	0.67690 0.44953 0.97542 -0.39800
O 	O 	0.46278 0.27575 0.94559 -0.39900
O 	O 	0.74881 0.31126 0.91720 -0.36300
C 	C 	0.78072 0.21464 0.98441 0.30000
O 	O 	0.59308 0.30271 0.05372 -0.38900
O 	O 	0.72919 0.33628 0.07823 -0.42200
H 	H 	0.57637 0.20231 0.94864 0.16600
H 	H 	0.77334 0.42075 0.02548 0.17000
Cu	Cu	0.61832 0.20026 0.50576 0.92700
Cu	Cu	0.67689 0.20252 0.43055 0.87000
Cu	Cu	0.66179 0.34062 0.46173 0.89700
Cu	Cu	0.62403 0.36627 0.53173 0.89400
C 	C 	0.65522 0.26788 0.57814 0.30400
O 	O 	0.48766 0.14729 0.50840 -0.36300
C 	C 	0.61948 0.27649 0.38629 0.30500
O 	O 	0.69136 0.33947 0.50904 -0.64000
O 	O 	0.59895 0.20892 0.45707 -0.64100
O 	O 	0.67569 0.13908 0.50077 -0.37500
O 	O 	0.76831 0.23236 0.46715 -0.44300
O 	O 	0.61459 0.30434 0.57104 -0.38900
O 	O 	0.73035 0.46948 0.46928 -0.38400
C 	C 	0.73145 0.51857 0.49559 0.29900
C 	C 	0.45187 0.18567 0.49770 0.29200
O 	O 	0.50478 0.26869 0.49309 -0.39600
O 	O 	0.67220 0.48158 0.51613 -0.39600
O 	O 	0.65567 0.21501 0.55405 -0.36700
C 	C 	0.75024 0.17649 0.48808 0.29800
O 	O 	0.65138 0.34357 0.41207 -0.38800
O 	O 	0.61356 0.20507 0.39085 -0.42300
H 	H 	0.75707 0.37831 0.51867 0.16100
H 	H 	0.53490 0.17162 0.44522 0.17000
C 	C 	0.69824 0.28599 0.85631 -0.08700
C 	C 	0.62068 0.24569 0.83091 0.01200
C 	C 	0.62534 0.23428 0.79623 -0.06600
C 	C 	0.70761 0.26298 0.78656 0.02600
C 	C 	0.78423 0.29940 0.81196 -0.06700
C 	C 	0.77955 0.31070 0.84672 0.01600
C 	C 	0.71508 0.26181 0.74996 0.00100
C 	C 	0.76998 0.34287 0.73825 -0.04100
C 	C 	0.76601 0.34305 0.70303 -0.03400
C 	C 	0.70726 0.26229 0.67929 -0.00800
C 	C 	0.65594 0.18088 0.69096 -0.03300
C 	C 	0.65993 0.18058 0.72619 -0.04100
C 	C 	0.69171 0.26384 0.64332 0.04200
C 	C 	0.67639 0.26554 0.61342 -0.10700
H 	H 	0.55733 0.22536 0.83802 0.02000
H 	H 	0.56574 0.20583 0.77684 0.04400
H 	H 	0.84788 0.32107 0.80476 0.04600
H 	H 	0.83989 0.34171 0.86605 0.03800
H 	H 	0.81292 0.40594 0.75636 0.03900
H 	H 	0.80613 0.40623 0.69421 0.03600
H 	H 	0.61068 0.11812 0.67277 0.04000
H 	H 	0.61794 0.11758 0.73496 0.03800
C 	C 	0.63743 0.34055 0.11571 -0.09100
C 	C 	0.54818 0.29115 0.12165 0.01000
C 	C 	0.53207 0.29048 0.15526 -0.06700
C 	C 	0.60496 0.33919 0.18321 0.02400
C 	C 	0.69392 0.39330 0.17720 -0.06800
C 	C 	0.71007 0.39433 0.14365 0.01100
C 	C 	0.58880 0.32612 0.21850 0.00100
C 	C 	0.62458 0.40035 0.24466 -0.04200
C 	C 	0.62194 0.38972 0.27893 -0.03400
C 	C 	0.58300 0.30482 0.28721 -0.01000
C 	C 	0.54292 0.22997 0.26098 -0.03400
C 	C 	0.54585 0.24051 0.22675 -0.04200
C 	C 	0.59334 0.29600 0.32255 0.04300
C 	C 	0.60408 0.28761 0.35184 -0.11300
H 	H 	0.49136 0.25030 0.10037 0.03400
H 	H 	0.46307 0.24967 0.15959 0.04300
H 	H 	0.75069 0.43180 0.19856 0.04300
H 	H 	0.77919 0.43465 0.13944 0.02900
H 	H 	0.65697 0.46658 0.23857 0.03700
H 	H 	0.65270 0.44788 0.29906 0.03700
H 	H 	0.51242 0.16407 0.26717 0.03600
H 	H 	0.51798 0.18273 0.20681 0.03700
C 	C 	0.88295 0.76842 0.53041 -0.08500
C 	C 	0.87867 0.80135 0.50082 -0.02400
C 	C 	0.82714 0.74113 0.46918 0.06700
C 	C 	0.78023 0.64885 0.46796 -0.02600
C 	C 	0.78584 0.61605 0.49745 -0.10700
C 	C 	0.83964 0.67659 0.52883 0.11800
N 	N 	0.85285 0.64752 0.55706 -0.20100
H 	H 	0.92355 0.81499 0.55447 0.05100
H 	H 	0.73879 0.60232 0.44398 0.04800
N 	N 	0.82298 0.77139 0.43992 -0.19400
H 	H 	0.88953 0.69217 0.58046 0.07900
H 	H 	0.83105 0.58180 0.55572 0.07300
H 	H 	0.85820 0.83966 0.43968 0.08300
H 	H 	0.78438 0.72621 0.41676 0.08100
C 	C 	0.81516 0.10608 0.46303 -0.02400
C 	C 	0.80514 0.14438 0.49237 -0.11800
C 	C 	0.84971 0.15380 0.52518 0.12700
C 	C 	0.89980 0.12048 0.52799 -0.08900
C 	C 	0.90813 0.08048 0.49865 -0.02100
C 	C 	0.86693 0.07478 0.46578 0.06300
N 	N 	0.87668 0.03926 0.43680 -0.19300
H 	H 	0.78224 0.10033 0.43789 0.01700
H 	H 	0.93192 0.12519 0.55312 0.05300
N 	N 	0.84629 0.19614 0.55390 -0.20400
H 	H 	0.84431 0.03352 0.41269 0.07600
H 	H 	0.91770 0.01872 0.43778 0.08400
H 	H 	0.81570 0.22769 0.55251 0.09800
H 	H 	0.87724 0.20042 0.57807 0.08600
C 	C 	0.21128 0.10608 0.47226 -0.08600
C 	C 	0.18069 0.08752 0.50337 -0.02500
C 	C 	0.23949 0.10053 0.53255 0.06800
C 	C 	0.32577 0.12636 0.52945 -0.03000
C 	C 	0.35593 0.14358 0.49822 -0.10900
C 	C 	0.29794 0.13268 0.46920 0.11900
N 	N 	0.32383 0.14479 0.43817 -0.20200
H 	H 	0.16587 0.09554 0.44989 0.04900
H 	H 	0.37100 0.13663 0.55183 0.04600
N 	N 	0.21393 0.08958 0.56366 -0.19400
H 	H 	0.28166 0.13910 0.41713 0.08100
H 	H 	0.38437 0.15685 0.43429 0.08100
H 	H 	0.15321 0.07734 0.56739 0.08500
H 	H 	0.25646 0.09637 0.58485 0.08200
C 	C 	0.82248 0.63339 0.94279 -0.03000
C 	C 	0.80304 0.60052 0.97342 -0.10600
C 	C 	0.81121 0.65530 0.00277 0.11600
C 	C 	0.83821 0.74181 0.00073 -0.09000
C 	C 	0.85885 0.77504 0.97020 -0.01700
C 	C 	0.84803 0.71922 0.94062 0.06500
N 	N 	0.86074 0.74714 0.91000 -0.19400
H 	H 	0.81426 0.59067 0.92013 0.04500
H 	H 	0.84691 0.78477 0.02340 0.05000
N 	N 	0.79592 0.62645 0.03317 -0.20200
H 	H 	0.85582 0.70695 0.88856 0.08100
H 	H 	0.87233 0.80728 0.90684 0.08200
H 	H 	0.78261 0.56559 0.03630 0.07900
H 	H 	0.79994 0.66639 0.05446 0.08000
C 	C 	0.80706 0.12054 0.94808 -0.02500
C 	C 	0.81406 0.16076 0.98093 -0.10900
C 	C 	0.84388 0.14145 0.01028 0.11300
C 	C 	0.86190 0.07904 0.00613 -0.08900
C 	C 	0.85855 0.04165 0.97337 -0.01600
C 	C 	0.82862 0.06070 0.94399 0.06500
N 	N 	0.81986 0.02139 0.91188 -0.19100
H 	H 	0.78312 0.13440 0.92563 0.04400
H 	H 	0.88536 0.06477 0.02858 0.05100
N 	N 	0.85952 0.18568 0.04234 -0.19900
H 	H 	0.80008 0.03752 0.89029 0.08300
H 	H 	0.83018 0.97278 0.90804 0.08000
H 	H 	0.85962 0.24124 0.04610 0.04200
H 	H 	0.87716 0.16794 0.06393 0.07400
C 	C 	0.26844 0.12589 0.93956 -0.02400
C 	C 	0.32985 0.18351 0.96991 -0.11200
C 	C 	0.29719 0.19107 0.99966 0.12700
C 	C 	0.20369 0.13547 0.99913 -0.08900
C 	C 	0.14242 0.07655 0.96898 -0.01500
C 	C 	0.17482 0.07321 0.93863 0.06200
N 	N 	0.11661 0.02014 0.90856 -0.19000
H 	H 	0.29361 0.12125 0.91667 0.03700
H 	H 	0.17838 0.13910 0.02213 0.05000
N 	N 	0.35481 0.25329 0.02831 -0.20300
H 	H 	0.14132 0.01672 0.88649 0.07900
H 	H 	0.04665 0.98347 0.90651 0.07800
H 	H 	0.42306 0.30317 0.02817 0.09200
H 	H 	0.33049 0.25521 0.05068 0.08200
