data_crystal

_cell_length_a 27.28740
_cell_length_b 23.88110
_cell_length_c 30.01506
_cell_angle_alpha 104.06357
_cell_angle_beta  115.94303
_cell_angle_gamma 111.27993

_symmetry_space_group_name_	'P 1'
_symmetry_space_group_name_H-M	'P 1'

loop_
_symmetry_equiv_pos_as_xyz
  x,y,z

loop_
_atom_site_label
_atom_site_type_symbol
_atom_site_fract_x
_atom_site_fract_y
_atom_site_fract_z
_atom_site_charge
Zn	Zn	0.24864 0.21648 0.05760 1.18500
Zn	Zn	0.14299 0.16755 0.93706 1.19100
O 	O 	0.12145 0.05259 0.83670 -0.48900
O 	O 	0.10497 0.14076 0.85382 -0.44200
O 	O 	0.14844 0.97849 0.92238 -0.47200
O 	O 	0.08257 0.07353 0.91528 -0.88500
O 	O 	0.25191 0.14764 0.96462 -0.38700
O 	O 	0.16172 0.17579 0.01337 -0.77400
O 	O 	0.19216 0.06268 0.00851 -0.45400
O 	O 	0.21077 0.26297 0.96186 -0.45900
Zn	Zn	0.07697 0.98889 0.03657 1.20000
Zn	Zn	0.10519 0.08076 0.98745 1.21200
Zn	Zn	0.08611 0.11669 0.08463 1.20100
C 	C 	0.10311 0.04741 0.15044 0.32300
O 	O 	0.04719 0.98592 0.96002 -0.78200
O 	O 	0.11193 0.00955 0.11834 -0.44900
O 	O 	0.11150 0.10604 0.15225 -0.47000
O 	O 	0.04665 0.16271 0.05831 -0.49700
O 	O 	0.12745 0.08583 0.05932 -0.88800
Zn	Zn	0.10588 0.01768 0.88531 1.17900
C 	C 	0.10016 0.08964 0.81900 0.31000
C 	C 	0.19218 0.01325 0.97724 0.28500
H 	H 	0.17421 0.10826 0.08852 0.16000
Zn	Zn	0.06581 0.08189 0.44760 1.18400
C 	C 	0.14620 0.05041 0.42508 0.29100
C 	C 	0.06392 0.15205 0.37829 0.31600
O 	O 	0.14472 0.08292 0.46615 -0.46600
O 	O 	0.09234 0.00887 0.37403 -0.34100
O 	O 	0.01897 0.93001 0.42123 -0.44800
O 	O 	0.00615 0.10011 0.33318 -0.45300
O 	O 	0.08477 0.15854 0.42916 -0.46200
C 	C 	0.01513 0.87244 0.39874 0.32900
C 	C 	0.06740 0.07124 0.75880 -0.11300
C 	C 	0.09871 0.06844 0.73186 0.05800
C 	C 	0.06247 0.03931 0.67273 -0.02200
H 	H 	0.08615 0.03670 0.65189 0.02200
C 	C 	0.17146 0.10101 0.76562 -0.11900
C 	C 	0.20718 0.17497 0.77668 -0.01100
H 	H 	0.18501 0.17735 0.73662 0.02200
H 	H 	0.19179 0.09957 0.80609 0.06500
H 	H 	0.15844 0.21448 0.80315 0.07300
H 	H 	0.18238 0.07059 0.74135 0.04500
C 	C 	0.07108 0.01744 0.17482 -0.12900
C 	C 	0.09099 0.05657 0.23005 0.07900
C 	C 	0.05293 0.02947 0.24808 -0.04900
C 	C 	0.01588 0.95056 0.14028 0.02000
H 	H 	0.06802 0.05919 0.29034 0.04300
C 	C 	0.15624 0.12341 0.27264 -0.12500
H 	H 	0.19059 0.08365 0.32966 0.03600
H 	H 	0.17363 0.15166 0.25317 0.06700
H 	H 	0.18494 0.02079 0.24633 0.06900
H 	H 	0.15145 0.15836 0.30023 0.05800
C 	C 	0.10434 0.30129 0.34955 -0.07400
C 	C 	0.09995 0.21046 0.37357 -0.10200
C 	C 	0.06831 0.23765 0.34405 0.02600
H 	H 	0.07975 0.32371 0.32908 0.05600
H 	H 	0.01610 0.21137 0.31939 0.03300
C 	C 	0.10380 0.78439 0.43920 -0.07500
C 	C 	0.16820 0.83999 0.47441 0.05200
C 	C 	0.13111 0.91806 0.47032 0.02700
C 	C 	0.06683 0.86213 0.43125 -0.11500
C 	C 	0.05335 0.79541 0.41782 0.02900
H 	H 	0.09294 0.73248 0.42629 0.05700
H 	H 	0.14210 0.96989 0.48254 0.03100
H 	H 	0.00387 0.75191 0.38894 0.02900
C 	C 	0.24444 0.94717 0.97144 0.05000
C 	C 	0.24700 0.00386 0.00274 -0.12200
H 	H 	0.20137 0.90839 0.92949 0.02600
H 	H 	0.17028 0.96713 0.37053 0.05600
C 	C 	0.20786 0.22495 0.82021 -0.16400
C 	C 	0.18167 0.90698 0.49130 -0.07600
C 	C 	0.25717 0.31516 0.01363 0.32400
H 	H 	0.22717 0.22114 0.85975 0.06900
C 	C 	0.20784 0.11231 0.31021 -0.01200
C 	C 	0.16751 0.24440 0.40444 0.02100
H 	H 	0.29500 0.89643 0.96961 0.05700
H 	H 	0.03668 0.05779 0.88910 0.15000
C 	C 	0.17210 0.33776 0.38422 0.04900
C 	C 	0.22618 0.07429 0.27794 -0.16100
H 	H 	0.24125 0.10093 0.25641 0.06200
C 	C 	0.21173 0.01914 0.39970 -0.01300
C 	C 	0.20864 0.06713 0.43439 -0.08600
C 	C 	0.29760 0.94039 0.99415 -0.09700
H 	H 	0.29118 0.34808 0.94654 0.02900
N 	N 	0.20606 0.77940 0.54612 -0.11400
O 	O 	0.27361 0.30649 0.05860 -0.46100
H 	H 	0.19227 0.22279 0.42602 0.02300
C 	C 	0.22064 0.82751 0.48697 -0.02100
C 	C 	0.20346 0.30786 0.40975 -0.07600
N 	N 	0.21148 0.38402 0.31766 -0.11600
C 	C 	0.20986 0.41037 0.40024 -0.02300
H 	H 	0.25804 0.19172 0.79280 0.02200
H 	H 	0.23935 0.27811 0.83041 0.05800
H 	H 	0.30639 0.08399 0.93738 0.02700
H 	H 	0.21154 0.44735 0.47451 0.04000
C 	C 	0.23390 0.79420 0.51883 0.04200
H 	H 	0.24132 0.86476 0.43454 0.04600
H 	H 	0.25165 0.16316 0.34491 0.02600
H 	H 	0.23127 0.95027 0.51896 0.05700
C 	C 	0.29347 0.38420 0.02132 -0.09500
C 	C 	0.22616 0.46154 0.44870 -0.03600
C 	C 	0.22975 0.42979 0.36790 0.04100
S 	S 	0.23244 0.73326 0.56795 0.08700
C 	C 	0.30863 0.39244 0.98331 0.01900
C 	C 	0.25033 0.83827 0.45888 -0.03400
S 	S 	0.24113 0.43636 0.29708 0.07600
C 	C 	0.30951 0.17869 0.01192 0.31800
H 	H 	0.26705 0.07237 0.30767 0.06300
C 	C 	0.30328 0.05312 0.05750 0.03900
C 	C 	0.26681 0.03932 0.39992 -0.06100
H 	H 	0.26673 0.00310 0.37002 0.04600
H 	H 	0.30533 0.43677 0.09851 0.02900
H 	H 	0.30614 0.09704 0.08237 0.01500
C 	C 	0.26357 0.13366 0.47332 0.01100
H 	H 	0.26224 0.17098 0.50094 0.02900
O 	O 	0.31958 0.21148 0.06006 -0.46500
H 	H 	0.25576 0.33521 0.43579 0.04900
C 	C 	0.31711 0.44236 0.06911 0.02500
H 	H 	0.33557 0.57923 0.98204 0.03400
C 	C 	0.26077 0.53126 0.46386 -0.01700
C 	C 	0.26510 0.50092 0.38329 0.05900
O 	O 	0.02154 0.10591 0.97079 -0.47800
O 	O 	0.01820 0.89071 0.00909 -0.43600
C 	C 	0.27243 0.76617 0.51868 0.06000
N 	N 	0.27597 0.51427 0.34567 -0.11200
C 	C 	0.28812 0.81082 0.45870 -0.01400
N 	N 	0.27684 0.72826 0.54607 -0.11200
C 	C 	0.28009 0.55146 0.43098 -0.04200
H 	H 	0.27240 0.56954 0.50123 0.04400
C 	C 	0.34804 0.45816 0.99363 -0.08200
C 	C 	0.35281 0.13212 0.96578 0.01200
H 	H 	0.35988 0.46400 0.96432 0.04800
N 	N 	0.29306 0.66394 0.46169 -0.13800
C 	C 	0.29701 0.77188 0.48657 -0.04000
C 	C 	0.35390 0.99002 0.04838 0.08900
H 	H 	0.30757 0.81688 0.43432 0.04600
C 	C 	0.35629 0.50794 0.07928 -0.07300
C 	C 	0.35655 0.04636 0.08001 -0.10600
C 	C 	0.31907 0.15353 0.47423 -0.07100
C 	C 	0.31988 0.10742 0.43568 0.03800
C 	C 	0.36390 0.18404 0.01009 -0.08900
C 	C 	0.31387 0.62436 0.44610 0.13700
C 	C 	0.32415 0.73123 0.47593 0.13800
C 	C 	0.37255 0.51612 0.04197 0.05600
H 	H 	0.39017 0.10485 0.92001 0.04500
C 	C 	0.38593 0.61139 0.01784 -0.02800
H 	H 	0.37408 0.55239 0.11619 0.05600
C 	C 	0.40036 0.14371 0.95613 -0.07200
H 	H 	0.36262 0.21653 0.41835 0.03600
H 	H 	0.40036 0.69823 0.00307 0.04200
H 	H 	0.36029 0.20572 0.50299 0.04700
C 	C 	0.37160 0.13273 0.42705 -0.02200
C 	C 	0.00193 0.04943 0.72670 -0.00000
C 	C 	0.38508 0.18798 0.41525 -0.04100
C 	C 	0.40978 0.98231 0.07203 -0.03700
C 	C 	0.41329 0.58558 0.05247 -0.02600
H 	H 	0.43319 0.00126 0.01491 0.02400
N 	N 	0.36586 0.65215 0.44461 -0.13900
H 	H 	0.39985 0.08492 0.12196 0.06400
N 	N 	0.39412 0.95691 0.14016 -0.11100
C 	C 	0.42288 0.67944 0.02999 -0.01900
N 	N 	0.37587 0.75874 0.47399 -0.13800
C 	C 	0.01521 0.14526 0.00451 0.35500
C 	C 	0.42524 0.24482 0.04806 0.01800
N 	N 	0.40053 0.05078 0.44250 -0.11600
C 	C 	0.40283 0.09811 0.42421 0.03700
C 	C 	0.44300 0.98482 0.04676 -0.00400
C 	C 	0.39679 0.71927 0.45836 0.13800
H 	H 	0.39697 0.66378 0.36832 0.04500
H 	H 	0.43484 0.28482 0.08303 0.03500
C 	C 	0.42462 0.96267 0.11408 0.05400
H 	H 	0.44220 0.24197 0.90866 0.03600
C 	C 	0.42608 0.20559 0.39774 -0.02000
S 	S 	0.42499 0.92403 0.17771 0.10300
C 	C 	0.45948 0.20696 0.99105 0.04000
H 	H 	0.43361 0.24679 0.38715 0.04200
C 	C 	0.47281 0.25627 0.03846 -0.06100
C 	C 	0.44565 0.11682 0.40729 0.05700
S 	S 	0.45176 0.03640 0.43576 0.07700
C 	C 	0.44199 0.71171 0.40222 -0.01600
C 	C 	0.45641 0.16982 0.39318 -0.04300
C 	C 	0.46839 0.93936 0.12732 0.05800
C 	C 	0.47857 0.62810 0.09832 0.04200
C 	C 	0.44942 0.74763 0.45186 -0.04200
C 	C 	0.48772 0.24518 0.93081 -0.03400
C 	C 	0.48638 0.96250 0.06005 -0.02600
N 	N 	0.47451 0.91454 0.16462 -0.11000
C 	C 	0.48821 0.72317 0.07687 -0.04200
C 	C 	0.50275 0.22557 0.97326 -0.03300
N 	N 	0.47900 0.08509 0.41171 -0.11400
C 	C 	0.49715 0.93669 0.09865 -0.03000
N 	N 	0.50042 0.83478 0.09585 -0.13800
H 	H 	0.50887 0.96197 0.03797 0.05100
H 	H 	0.48609 0.70805 0.35783 0.04300
N 	N 	0.50818 0.61015 0.13711 -0.11200
C 	C 	0.49825 0.18817 0.37354 0.13300
H 	H 	0.51875 0.30492 0.06608 0.05300
N 	N 	0.50161 0.13924 0.34291 -0.13900
C 	C 	0.51634 0.69744 0.11056 0.05700
C 	C 	0.49271 0.73711 0.39610 -0.03600
H 	H 	0.51974 0.28678 0.88562 0.03800
C 	C 	0.52494 0.79522 0.09083 0.13500
C 	C 	0.53214 0.27117 0.91793 -0.02300
S 	S 	0.51243 0.42294 0.35336 0.07400
C 	C 	0.52964 0.89853 0.10192 0.13600
C 	C 	0.50757 0.81005 0.49457 0.05900
N 	N 	0.51737 0.35749 0.35612 -0.11500
N 	N 	0.52231 0.84459 0.54659 -0.11000
N 	N 	0.53266 0.25401 0.38533 -0.14000
C 	C 	0.56154 0.22979 0.00108 0.05700
C 	C 	0.54066 0.15630 0.32553 0.13400
H 	H 	0.55253 0.06247 0.35814 0.04500
C 	C 	0.55545 0.10688 0.30374 -0.04200
C 	C 	0.55203 0.79889 0.43951 -0.02200
N 	N 	0.56094 0.14383 0.23631 -0.11300
C 	C 	0.55938 0.83585 0.48833 0.04100
N 	N 	0.58290 0.21781 0.04604 -0.11600
C 	C 	0.56583 0.06616 0.32937 -0.02000
C 	C 	0.56995 0.27091 0.36635 0.13400
C 	C 	0.57103 0.10829 0.26514 0.05700
N 	N 	0.57907 0.81956 0.09190 -0.14400
N 	N 	0.57715 0.73715 0.15965 -0.11900
S 	S 	0.57852 0.68215 0.18299 0.05500
N 	N 	0.57439 0.22214 0.33701 -0.13900
N 	N 	0.58345 0.92250 0.10250 -0.13300
C 	C 	0.58065 0.38278 0.37624 0.05800
C 	C 	0.59247 0.27780 0.94702 -0.03700
N 	N 	0.58354 0.48306 0.37486 -0.11300
S 	S 	0.59549 0.13298 0.20494 0.08700
C 	C 	0.59849 0.03471 0.32189 -0.03900
C 	C 	0.60684 0.25612 0.98787 0.04200
S 	S 	0.59821 0.90425 0.57979 0.08700
C 	C 	0.60519 0.07704 0.25824 0.04000
C 	C 	0.60838 0.88319 0.09756 0.13500
C 	C 	0.60647 0.82152 0.43467 0.05000
H 	H 	0.60181 0.90527 0.42193 0.05700
C 	C 	0.60752 0.34258 0.37939 -0.04300
H 	H 	0.60968 0.00762 0.34512 0.03700
C 	C 	0.61679 0.45143 0.38641 0.04000
H 	H 	0.61325 0.92233 0.25068 0.06100
H 	H 	0.00017 0.92087 0.09777 0.04100
N 	N 	0.61710 0.89182 0.53510 -0.11600
H 	H 	0.99901 0.99771 0.49459 0.16400
C 	C 	0.99750 0.96318 0.21331 -0.06800
C 	C 	0.99658 0.01585 0.64052 -0.11500
O 	O 	0.97774 0.03311 0.40165 -0.80300
O 	O 	0.97066 0.82883 0.34482 -0.50800
O 	O 	0.97350 0.89889 0.25896 -0.47000
Zn	Zn	0.95262 0.00747 0.32178 1.18900
N 	N 	0.66985 0.27749 0.92627 -0.14000
C 	C 	0.63981 0.30870 0.93541 0.13400
N 	N 	0.65427 0.36907 0.93466 -0.14100
C 	C 	0.69779 0.39746 0.92374 0.13600
N 	N 	0.72638 0.36520 0.91315 -0.13800
C 	C 	0.71377 0.30614 0.91579 0.13500
N 	N 	0.66603 0.26629 0.02202 -0.10400
C 	C 	0.83009 0.22082 0.92226 -0.02900
C 	C 	0.85839 0.29166 0.94527 0.04100
C 	C 	0.81948 0.32038 0.94126 0.05700
C 	C 	0.75276 0.27748 0.91365 -0.04100
C 	C 	0.72427 0.20599 0.88746 -0.01900
C 	C 	0.76256 0.17800 0.89186 -0.03600
N 	N 	0.92376 0.33721 0.98082 -0.11900
N 	N 	0.85273 0.38974 0.97365 -0.11300
C 	C 	0.78923 0.60157 0.94791 -0.02400
C 	C 	0.75185 0.54457 0.89415 -0.03800
C 	C 	0.71760 0.47773 0.88520 -0.01800
C 	C 	0.71961 0.46644 0.92971 -0.04300
C 	C 	0.75285 0.52304 0.98225 0.05500
C 	C 	0.78819 0.59130 0.99146 0.03400
H 	H 	0.75140 0.55173 0.85972 0.03900
H 	H 	0.69168 0.43454 0.84412 0.03800
N 	N 	0.76290 0.51746 0.02927 -0.10600
N 	N 	0.82733 0.64232 0.04605 -0.11700
S 	S 	0.65619 0.24094 0.06509 0.09000
S 	S 	0.92715 0.40890 0.00368 0.09700
S 	S 	0.81415 0.59790 0.07774 0.06700
H 	H 	0.67259 0.17191 0.86496 0.03900
H 	H 	0.73985 0.12295 0.87340 0.03500
C 	C 	0.62188 0.04355 0.28896 -0.01700
N 	N 	0.62391 0.08690 0.22400 -0.11100
C 	C 	0.67893 0.47858 0.39923 -0.02300
C 	C 	0.70631 0.43857 0.40394 -0.03800
C 	C 	0.67110 0.37141 0.39423 -0.01700
H 	H 	0.75451 0.45891 0.41403 0.03900
H 	H 	0.69325 0.34166 0.39781 0.04100
C 	C 	0.75554 0.94990 0.06686 -0.03000
C 	C 	0.70448 0.88070 0.03662 -0.03600
C 	C 	0.65798 0.85876 0.04813 -0.02100
C 	C 	0.66127 0.90545 0.09023 -0.04500
C 	C 	0.71287 0.97388 0.12157 0.06700
C 	C 	0.76001 0.99632 0.10956 0.05500
H 	H 	0.70019 0.84381 0.00356 0.03600
H 	H 	0.61847 0.80558 0.02317 0.04000
N 	N 	0.72176 0.02298 0.16419 -0.12100
N 	N 	0.80777 0.06418 0.14186 -0.12400
S 	S 	0.78721 0.08981 0.18270 0.07300
Zn	Zn	0.96304 0.95804 0.93118 1.17700
C 	C 	0.95516 0.85365 0.96951 0.30000
C 	C 	0.93311 0.00320 0.00473 0.28600
O 	O 	0.92966 0.86573 0.92702 -0.46200
O 	O 	0.91052 0.98000 0.95120 -0.45800
O 	O 	0.99003 0.01470 0.04027 -0.49600
O 	O 	0.92973 0.96327 0.24352 -0.44700
O 	O 	0.90422 0.91704 0.31339 -0.87000
Zn	Zn	0.79504 0.82345 0.34914 1.17800
Zn	Zn	0.90796 0.88252 0.46106 1.18700
Zn	Zn	0.92832 0.94312 0.38940 1.21900
C 	C 	0.80055 0.73698 0.40600 0.31900
C 	C 	0.75750 0.87952 0.41203 0.32500
O 	O 	0.83611 0.95673 0.35562 -0.45800
Zn	Zn	0.90586 0.00365 0.47817 1.19200
O 	O 	0.85721 0.79032 0.45153 -0.45500
O 	O 	0.76820 0.74076 0.36003 -0.46200
O 	O 	0.74010 0.84960 0.36029 -0.47600
O 	O 	0.81745 0.90639 0.45466 -0.48000
C 	C 	0.96140 0.98950 0.57903 0.34700
O 	O 	0.87883 0.85405 0.37882 -0.79300
C 	C 	0.82807 0.00340 0.37981 0.30600
O 	O 	0.94784 0.92926 0.54680 -0.43800
O 	O 	0.94730 0.02825 0.55779 -0.49400
O 	O 	0.85790 0.03357 0.43469 -0.49700
O 	O 	0.95191 0.96963 0.46460 -0.89500
Zn	Zn	0.93470 0.86179 0.29594 1.18500
C 	C 	0.96101 0.93619 0.23516 0.30200
H 	H 	0.85703 0.89398 0.28551 0.14800
C 	C 	0.96636 0.02278 0.66783 0.01200
H 	H 	0.97811 0.05166 0.74745 0.00500
C 	C 	0.89558 0.99960 0.63463 -0.04300
C 	C 	0.85159 0.92208 0.60957 -0.03700
H 	H 	0.86636 0.90732 0.64341 0.02900
H 	H 	0.85593 0.89428 0.57735 0.04500
H 	H 	0.88285 0.01394 0.60050 0.03300
C 	C 	0.78094 0.90002 0.58184 -0.15400
H 	H 	0.77429 0.92315 0.61395 0.06100
H 	H 	0.74998 0.84342 0.56160 0.06000
H 	H 	0.76535 0.91619 0.54911 0.07100
H 	H 	0.88631 0.02678 0.66278 0.02000
C 	C 	0.97958 0.92254 0.15948 0.02900
C 	C 	0.92032 0.85022 0.12123 -0.10100
C 	C 	0.85874 0.85037 0.08818 -0.02500
H 	H 	0.85950 0.86757 0.05709 0.03900
H 	H 	0.85623 0.88622 0.11735 0.03900
H 	H 	0.91618 0.82369 0.14632 0.04900
C 	C 	0.79807 0.77926 0.05672 -0.15800
H 	H 	0.79895 0.74177 0.02740 0.06900
H 	H 	0.75463 0.78067 0.03184 0.05800
H 	H 	0.79451 0.76225 0.08709 0.05100
H 	H 	0.92529 0.81981 0.09079 0.05500
C 	C 	0.63774 0.78572 0.43815 -0.07800
C 	C 	0.62597 0.87758 0.42494 -0.07300
C 	C 	0.67612 0.89726 0.41822 0.02600
C 	C 	0.70729 0.86137 0.42173 -0.10600
C 	C 	0.68802 0.80563 0.43176 0.02700
H 	H 	0.62305 0.74252 0.44582 0.05200
H 	H 	0.69039 0.93996 0.40989 0.03000
H 	H 	0.71188 0.77761 0.43438 0.02600
C 	C 	0.86863 0.00257 0.09366 -0.08800
C 	C 	0.80254 0.97247 0.05272 0.06800
C 	C 	0.78057 0.95913 0.99712 -0.07900
C 	C 	0.82357 0.97196 0.98183 0.01100
C 	C 	0.88912 0.99842 0.02208 -0.06400
C 	C 	0.91179 0.01626 0.07861 -0.00300
H 	H 	0.88624 0.01314 0.13670 0.05500
H 	H 	0.72989 0.93728 0.96544 0.05200
H 	H 	0.80555 0.95990 0.93849 0.03700
H 	H 	0.96253 0.03901 0.11064 0.03300
C 	C 	0.73872 0.08921 0.33470 -0.07200
C 	C 	0.67465 0.03280 0.29804 0.03400
C 	C 	0.66250 0.96627 0.28001 -0.05600
C 	C 	0.71371 0.95638 0.30307 0.04500
C 	C 	0.77715 0.01301 0.34474 -0.12900
C 	C 	0.78972 0.07937 0.35829 0.02900
H 	H 	0.74865 0.14079 0.34810 0.05200
H 	H 	0.70362 0.90483 0.29098 0.02400
H 	H 	0.83870 0.12340 0.38929 0.01800
C 	C 	0.74328 0.60646 0.45062 -0.07400
C 	C 	0.71288 0.54511 0.40233 0.04900
C 	C 	0.71353 0.54710 0.35629 -0.07500
C 	C 	0.74337 0.60987 0.35805 0.02600
C 	C 	0.77315 0.67134 0.40601 -0.10200
C 	C 	0.77349 0.66944 0.45254 0.02400
H 	H 	0.74294 0.60533 0.48636 0.05000
H 	H 	0.69023 0.49994 0.31889 0.05200
H 	H 	0.74309 0.61075 0.32202 0.02300
H 	H 	0.79581 0.71652 0.48957 0.02800
C 	C 	0.90681 0.19292 0.91524 -0.09100
C 	C 	0.87078 0.19227 0.93728 0.06000
C 	C 	0.87945 0.17196 0.97881 -0.10100
C 	C 	0.92606 0.15574 0.00023 0.06500
C 	C 	0.96405 0.15908 0.97990 -0.15500
C 	C 	0.95317 0.17610 0.93634 0.04100
H 	H 	0.90023 0.20839 0.88302 0.05000
H 	H 	0.85160 0.17108 0.99587 0.05700
H 	H 	0.93318 0.14136 0.03308 0.01900
H 	H 	0.98178 0.17811 0.91995 0.00000
C 	C 	0.93993 0.75863 0.99390 0.01300
C 	C 	0.91375 0.79202 0.96817 -0.09700
C 	C 	0.84724 0.76559 0.94008 0.01900
C 	C 	0.80680 0.70428 0.93478 -0.07900
C 	C 	0.83263 0.66972 0.95872 0.04500
C 	C 	0.89946 0.69766 0.98910 -0.07900
H 	H 	0.99124 0.77889 0.01639 0.03800
H 	H 	0.82678 0.79217 0.92180 0.02800
H 	H 	0.75533 0.68339 0.91179 0.04600
H 	H 	0.91976 0.67122 0.00778 0.05900
