data_crystal

_cell_length_a 25.55840
_cell_length_b 26.79035
_cell_length_c 36.85624
_cell_angle_alpha 95.50106
_cell_angle_beta  95.49938
_cell_angle_gamma 125.83520

_symmetry_space_group_name_	'P 1'
_symmetry_space_group_name_H-M	'P 1'

loop_
_symmetry_equiv_pos_as_xyz
  x,y,z

loop_
_atom_site_label
_atom_site_type_symbol
_atom_site_fract_x
_atom_site_fract_y
_atom_site_fract_z
_atom_site_charge
C 	C 	0.96799 0.02606 0.00410 0.18600
N 	N 	0.03435 0.05913 0.00945 -0.12000
C 	C 	0.06176 0.02852 0.00663 0.18700
C 	C 	0.95658 0.93200 0.99375 0.19400
C 	C 	0.92414 0.99023 0.45989 0.19400
N 	N 	0.99081 0.02683 0.46582 -0.12300
C 	C 	0.02275 0.00084 0.47038 0.19400
N 	N 	0.98806 0.93828 0.46937 -0.12200
C 	C 	0.92142 0.90141 0.46340 0.19200
N 	N 	0.88931 0.92732 0.45841 -0.11800
Cu	Cu	0.66991 0.27765 0.00729 0.92900
Cu	Cu	0.67694 0.23250 0.92374 0.89600
Cu	Cu	0.66163 0.34422 0.94685 0.92100
Cu	Cu	0.65616 0.38803 0.02487 0.91000
C 	C 	0.69120 0.33510 0.08164 0.31100
O 	O 	0.57807 0.23060 0.01867 -0.34100
C 	C 	0.66324 0.30234 0.87462 0.31100
O 	O 	0.70203 0.36712 0.99809 -0.62400
O 	O 	0.63523 0.25952 0.95339 -0.62500
O 	O 	0.72990 0.25277 0.00683 -0.35100
O 	O 	0.67354 0.17825 0.95416 -0.38500
O 	O 	0.68923 0.38134 0.07423 -0.34500
O 	O 	0.69425 0.42823 0.94168 -0.34400
C 	C 	0.69900 0.46834 0.96801 0.33200
C 	C 	0.54052 0.24807 0.01065 0.31900
O 	O 	0.56379 0.29979 0.99766 -0.35500
O 	O 	0.66366 0.44889 0.99434 -0.34800
O 	O 	0.70961 0.30994 0.05857 -0.33800
C 	C 	0.71459 0.20173 0.98594 0.34300
O 	O 	0.63395 0.31959 0.89372 -0.35300
O 	O 	0.70435 0.29427 0.89207 -0.39700
H 	H 	0.75020 0.39983 0.00289 0.18600
H 	H 	0.58688 0.22806 0.94723 0.18700
Cu	Cu	0.73884 0.34121 0.44966 0.93500
Cu	Cu	0.75728 0.30560 0.53029 0.88800
Cu	Cu	0.64610 0.30974 0.50443 0.90600
Cu	Cu	0.60693 0.32473 0.43020 0.91400
C 	C 	0.67766 0.31292 0.37341 0.31300
O 	O 	0.76676 0.42904 0.44634 -0.33000
C 	C 	0.69992 0.33289 0.58360 0.30600
O 	O 	0.63831 0.28451 0.45251 -0.63900
O 	O 	0.74190 0.35619 0.50363 -0.63500
O 	O 	0.79276 0.30937 0.45019 -0.33400
O 	O 	0.73763 0.24430 0.48985 -0.40800
O 	O 	0.64576 0.33474 0.38438 -0.34700
O 	O 	0.55225 0.25857 0.50313 -0.35400
C 	C 	0.50790 0.25338 0.47808 0.33800
C 	C 	0.73662 0.45038 0.46069 0.32400
O 	O 	0.67905 0.41103 0.46948 -0.36400
O 	O 	0.52392 0.28421 0.45022 -0.35100
O 	O 	0.71963 0.31280 0.39717 -0.33600
C 	C 	0.77498 0.25991 0.46476 0.33200
O 	O 	0.65672 0.32949 0.55859 -0.35000
O 	O 	0.75472 0.34454 0.57556 -0.38600
H 	H 	0.61184 0.23866 0.44366 0.19600
H 	H 	0.76865 0.40075 0.51596 0.20200
C 	C 	0.66373 0.31542 0.76531 0.00900
C 	C 	0.69713 0.37424 0.75482 -0.01900
C 	C 	0.70213 0.37885 0.71764 -0.02000
C 	C 	0.67372 0.32465 0.69083 0.01100
C 	C 	0.63880 0.26574 0.70119 -0.02200
C 	C 	0.63382 0.26114 0.73834 -0.02100
C 	C 	0.68367 0.32955 0.65318 0.06500
C 	C 	0.69111 0.33206 0.62143 -0.07700
C 	C 	0.66331 0.31100 0.80390 0.06700
C 	C 	0.66278 0.30699 0.83617 -0.08200
H 	H 	0.72021 0.41641 0.77552 0.06800
H 	H 	0.72906 0.42454 0.70982 0.06800
H 	H 	0.61660 0.22363 0.68059 0.06300
H 	H 	0.60779 0.21551 0.74623 0.06100
C 	C 	0.68452 0.29707 0.26315 0.01400
C 	C 	0.62603 0.26304 0.23681 -0.01900
C 	C 	0.62810 0.26720 0.19938 -0.01900
C 	C 	0.68865 0.30538 0.18813 0.01500
C 	C 	0.74723 0.33693 0.21418 -0.01900
C 	C 	0.74516 0.33276 0.25162 -0.01800
C 	C 	0.69048 0.31610 0.15059 0.06800
C 	C 	0.69131 0.32466 0.11908 -0.06400
C 	C 	0.68215 0.30168 0.30210 0.06800
C 	C 	0.68007 0.30549 0.33470 -0.06600
H 	H 	0.57897 0.23519 0.24549 0.06900
H 	H 	0.58261 0.24233 0.17935 0.07100
H 	H 	0.79425 0.36616 0.20563 0.06900
H 	H 	0.79061 0.35902 0.27181 0.07000
C 	C 	0.88426 0.83303 0.46053 -0.05200
C 	C 	0.88497 0.79749 0.43009 0.10400
C 	C 	0.86136 0.73518 0.43067 0.07900
C 	C 	0.83305 0.70696 0.46063 0.01300
C 	C 	0.82801 0.74112 0.48982 0.07900
C 	C 	0.85499 0.80455 0.49021 0.10400
C 	C 	0.80800 0.64113 0.46122 0.02300
C 	C 	0.74477 0.59128 0.44159 0.06600
C 	C 	0.72271 0.52898 0.43995 0.13100
C 	C 	0.76157 0.51606 0.46065 -0.11100
C 	C 	0.82402 0.56596 0.48134 0.12800
C 	C 	0.84796 0.62843 0.48073 0.06600
Br	Br	0.78432 0.70093 0.52924 -0.11900
Br	Br	0.91738 0.83410 0.38736 -0.11400
Br	Br	0.64147 0.46186 0.40733 -0.18500
Br	Br	0.93570 0.69668 0.50623 -0.11900
Br	Br	0.85451 0.85318 0.53211 -0.11200
Br	Br	0.86922 0.68889 0.39094 -0.12200
Br	Br	0.68823 0.60851 0.41716 -0.11400
Br	Br	0.87566 0.54883 0.51159 -0.16900
C 	C 	0.88991 0.01890 0.45471 -0.05300
C 	C 	0.87110 0.03647 0.48522 0.10400
C 	C 	0.84822 0.07283 0.48182 0.07900
C 	C 	0.84647 0.09366 0.44832 0.01200
C 	C 	0.86289 0.07405 0.41739 0.07900
C 	C 	0.88308 0.03545 0.42037 0.10400
C 	C 	0.83009 0.13830 0.44623 0.02300
C 	C 	0.76471 0.11576 0.43378 0.06500
C 	C 	0.74804 0.15746 0.43605 0.12900
C 	C 	0.79584 0.22099 0.45262 -0.11600
C 	C 	0.86203 0.24429 0.46267 0.12300
C 	C 	0.87927 0.20308 0.45887 0.06500
Br	Br	0.85961 0.10171 0.37136 -0.11500
Br	Br	0.87923 0.01281 0.53205 -0.11600
Br	Br	0.65999 0.12800 0.41611 -0.16200
Br	Br	0.96993 0.23489 0.47178 -0.12100
Br	Br	0.90093 0.00471 0.37745 -0.11100
Br	Br	0.82008 0.09495 0.52312 -0.13700
Br	Br	0.69772 0.02750 0.41505 -0.11800
Br	Br	0.92844 0.33195 0.48344 -0.16200
C 	C 	0.43925 0.21702 0.48334 -0.11100
C 	C 	0.39997 0.15105 0.47681 0.12600
C 	C 	0.33266 0.11620 0.47822 0.06600
C 	C 	0.30423 0.14725 0.48502 0.02300
C 	C 	0.34408 0.21325 0.49306 0.06600
C 	C 	0.41178 0.24809 0.49289 0.12800
C 	C 	0.23200 0.11061 0.48146 0.01300
C 	C 	0.19244 0.09302 0.44644 0.07800
C 	C 	0.12375 0.05666 0.44278 0.10500
C 	C 	0.09466 0.03982 0.47435 -0.05400
C 	C 	0.13424 0.05854 0.50949 0.10400
C 	C 	0.20283 0.09315 0.51298 0.07900
Br	Br	0.30540 0.25573 0.50333 -0.11500
Br	Br	0.43788 0.10851 0.46445 -0.16400
Br	Br	0.06921 0.02801 0.39438 -0.10800
Br	Br	0.25695 0.11625 0.56077 -0.12300
Br	Br	0.46731 0.33831 0.50650 -0.14000
Br	Br	0.27897 0.02590 0.47030 -0.11900
Br	Br	0.23265 0.11898 0.40355 -0.12000
Br	Br	0.09436 0.03734 0.55284 -0.11900
C 	C 	0.73445 0.53410 0.96403 -0.11200
C 	C 	0.69955 0.55826 0.95512 0.12900
C 	C 	0.73371 0.62305 0.95669 0.06700
C 	C 	0.80281 0.66331 0.96613 0.02100
C 	C 	0.83782 0.63836 0.97186 0.06700
C 	C 	0.80363 0.57382 0.97114 0.12500
C 	C 	0.83841 0.73194 0.97262 0.02000
C 	C 	0.86077 0.76463 0.94320 0.07800
C 	C 	0.89860 0.83037 0.95003 0.10400
C 	C 	0.91469 0.86336 0.98631 -0.04700
C 	C 	0.89126 0.83067 0.01557 0.09800
C 	C 	0.85258 0.76492 0.00867 0.07100
Br	Br	0.93264 0.69311 0.98157 -0.11700
Br	Br	0.60524 0.50234 0.93981 -0.13200
Br	Br	0.92829 0.87546 0.90977 -0.11400
Br	Br	0.81935 0.71974 0.04855 -0.12800
Br	Br	0.85142 0.54002 0.98126 -0.17500
Br	Br	0.68609 0.65709 0.94694 -0.11200
Br	Br	0.84023 0.71919 0.89376 -0.12000
Br	Br	0.91356 0.87628 0.06524 -0.11400
C 	C 	0.93789 0.05880 0.00398 -0.06100
C 	C 	0.93387 0.08464 0.03775 0.10500
C 	C 	0.89943 0.11064 0.03760 0.07900
C 	C 	0.86738 0.10904 0.00371 0.00600
C 	C 	0.87195 0.08364 0.96994 0.08400
C 	C 	0.90848 0.05990 0.97007 0.11100
C 	C 	0.82995 0.13513 0.00344 0.01300
C 	C 	0.76297 0.09677 0.00603 0.06900
C 	C 	0.72575 0.11966 0.00187 0.11800
C 	C 	0.75489 0.18002 0.99382 -0.10900
C 	C 	0.82217 0.21869 0.99178 0.12400
C 	C 	0.86006 0.19693 0.99783 0.07500
Br	Br	0.82715 0.08058 0.92359 -0.12900
Br	Br	0.97395 0.08267 0.08416 -0.11500
Br	Br	0.63513 0.06882 0.00764 -0.14400
Br	Br	0.95315 0.25128 0.99786 -0.11500
Br	Br	0.89594 0.14841 0.08368 -0.11900
Br	Br	0.72209 0.01242 0.01435 -0.12100
Br	Br	0.86131 0.29970 0.97810 -0.17700
C 	C 	0.13350 0.06400 0.01180 -0.06000
C 	C 	0.16759 0.05940 0.04206 0.10400
C 	C 	0.23450 0.08593 0.04423 0.08000
C 	C 	0.26850 0.12098 0.01762 0.00600
C 	C 	0.23530 0.12890 0.98864 0.08400
C 	C 	0.16742 0.09881 0.98506 0.11100
C 	C 	0.33908 0.14944 0.01997 0.01700
C 	C 	0.38696 0.20860 0.04254 0.06500
C 	C 	0.45385 0.23805 0.04216 0.12800
C 	C 	0.47265 0.21069 0.01718 -0.12300
C 	C 	0.42509 0.15008 0.99605 0.13600
C 	C 	0.35840 0.11887 0.99815 0.07100
Br	Br	0.28309 0.18108 0.95395 -0.12200
Br	Br	0.12298 0.01847 0.08108 -0.11500
Br	Br	0.52000 0.31481 0.07670 -0.19600
Br	Br	0.29323 0.03473 0.97073 -0.11600
Br	Br	0.12025 0.10246 0.94253 -0.11300
Br	Br	0.27939 0.07320 0.08311 -0.12300
Br	Br	0.36064 0.25026 0.07275 -0.12100
Br	Br	0.45084 0.11089 0.96317 -0.16800
N 	N 	0.02279 0.96496 0.99861 -0.11500
N 	N 	0.92921 0.96252 0.99645 -0.11600
Br	Br	0.91931 0.02970 0.92382 -0.11300
