data_crystal

_cell_length_a 36.30344
_cell_length_b 27.30761
_cell_length_c 33.31526
_cell_angle_alpha 91.54923
_cell_angle_beta  89.99966
_cell_angle_gamma 130.19577

_symmetry_space_group_name_	'P 1'
_symmetry_space_group_name_H-M	'P 1'

loop_
_symmetry_equiv_pos_as_xyz
  x,y,z

loop_
_atom_site_label
_atom_site_type_symbol
_atom_site_fract_x
_atom_site_fract_y
_atom_site_fract_z
_atom_site_charge
Zn	Zn	0.28035 0.62919 0.73890 1.22200
Zn	Zn	0.25268 0.53388 0.81244 1.19600
C 	C 	0.39985 0.60520 0.69289 0.30800
Zn	Zn	0.34354 0.59304 0.76365 1.22100
Zn	Zn	0.35061 0.65735 0.67610 1.19300
H 	H 	0.25671 0.51065 0.73881 0.18500
C 	C 	0.35492 0.66539 0.83544 0.31000
O 	O 	0.32442 0.69611 0.65313 -0.46100
O 	O 	0.29804 0.71148 0.71112 -0.39200
O 	O 	0.27458 0.54972 0.75652 -0.79000
O 	O 	0.20647 0.54991 0.80955 -0.46800
O 	O 	0.23148 0.57650 0.69586 -0.43700
O 	O 	0.25703 0.65051 0.78444 -0.42900
O 	O 	0.28014 0.56349 0.66450 -0.41700
O 	O 	0.28651 0.51265 0.84440 -0.45900
H 	H 	0.37036 0.70753 0.74636 0.17600
O 	O 	0.32897 0.51380 0.79321 -0.40100
O 	O 	0.34692 0.66323 0.73488 -0.79700
O 	O 	0.37210 0.60665 0.66842 -0.45700
O 	O 	0.37444 0.64708 0.81323 -0.44100
O 	O 	0.38917 0.59207 0.73114 -0.42800
O 	O 	0.30816 0.63379 0.83311 -0.41600
C 	C 	0.31135 0.72480 0.67338 0.31100
C 	C 	0.22050 0.60774 0.80708 0.33100
C 	C 	0.23991 0.55417 0.66527 0.31800
C 	C 	0.31083 0.49629 0.82927 0.31700
Zn	Zn	0.67854 0.42667 0.26624 1.22300
Zn	Zn	0.74275 0.52146 0.19213 1.19600
C 	C 	0.81986 0.44686 0.30967 0.30800
Zn	Zn	0.77571 0.46097 0.23992 1.22300
Zn	Zn	0.72169 0.39831 0.32838 1.19400
H 	H 	0.77050 0.54454 0.26553 0.18500
C 	C 	0.71512 0.38856 0.16888 0.31100
O 	O 	0.65810 0.35983 0.35178 -0.46100
O 	O 	0.61638 0.34457 0.29417 -0.39200
O 	O 	0.74986 0.50548 0.24787 -0.78900
O 	O 	0.68137 0.50638 0.19614 -0.46700
O 	O 	0.68167 0.47978 0.30948 -0.43700
O 	O 	0.63426 0.40575 0.22117 -0.43100
O 	O 	0.74318 0.49271 0.34037 -0.41600
O 	O 	0.79620 0.54138 0.15906 -0.45900
H 	H 	0.69140 0.34741 0.25841 0.17700
O 	O 	0.83772 0.53919 0.20952 -0.40400
O 	O 	0.71149 0.39189 0.26969 -0.79800
O 	O 	0.79242 0.44812 0.33473 -0.45500
O 	O 	0.75255 0.40613 0.19053 -0.44000
O 	O 	0.82237 0.46135 0.27167 -0.42900
O 	O 	0.70005 0.42136 0.17148 -0.41600
C 	C 	0.61697 0.32997 0.33153 0.30900
C 	C 	0.63913 0.44873 0.19888 0.33100
C 	C 	0.71265 0.50320 0.33953 0.31600
C 	C 	0.83606 0.55570 0.17328 0.31700
C 	C 	0.15235 0.65578 0.88319 0.14100
C 	C 	0.16164 0.61657 0.89691 -0.10200
H 	H 	0.14973 0.59606 0.92624 0.07000
C 	C 	0.18504 0.60235 0.87244 0.05000
H 	H 	0.19170 0.57159 0.88331 0.02000
C 	C 	0.19928 0.62707 0.83385 -0.11000
C 	C 	0.19160 0.66834 0.82064 0.04800
H 	H 	0.20267 0.68801 0.79103 0.03600
C 	C 	0.16810 0.68255 0.84526 -0.09700
H 	H 	0.16111 0.71303 0.83458 0.07500
N 	N 	0.12380 0.66463 0.90685 -0.17700
C 	C 	0.14485 0.70754 0.93904 0.19100
C 	C 	0.11595 0.70581 0.96818 -0.05700
C 	C 	0.06554 0.66134 0.96304 0.03100
C 	C 	0.04478 0.62162 0.92812 -0.05700
C 	C 	0.07491 0.62476 0.89974 0.19100
C 	C 	0.13658 0.74602 0.00302 -0.01100
C 	C 	0.10709 0.74013 0.03304 -0.01000
C 	C 	0.05651 0.69399 0.02868 -0.05900
C 	C 	0.03580 0.65534 0.99333 0.03400
C 	C 	0.98538 0.60962 0.98864 -0.06000
C 	C 	0.99427 0.57766 0.92288 -0.01300
C 	C 	0.96480 0.57164 0.95292 -0.01000
C 	C 	0.02621 0.68483 0.05948 0.19200
N 	N 	0.97707 0.63790 0.05521 -0.17800
C 	C 	0.95631 0.60160 0.02019 0.19100
C 	C 	0.94687 0.62490 0.08837 0.14000
C 	C 	0.93895 0.58424 0.11842 -0.09800
C 	C 	0.90451 0.56428 0.14760 0.04700
C 	C 	0.87746 0.58454 0.14675 -0.10500
C 	C 	0.88716 0.62780 0.11781 0.04500
C 	C 	0.92183 0.64800 0.08881 -0.09700
O 	O 	0.05591 0.58720 0.86708 -0.19500
O 	O 	0.19221 0.74888 0.94345 -0.19500
O 	O 	0.04513 0.72080 0.09279 -0.19500
O 	O 	0.90895 0.55802 0.01645 -0.19500
H 	H 	0.92808 0.67979 0.06583 0.07100
H 	H 	0.86705 0.64454 0.11720 0.02300
H 	H 	0.95833 0.56644 0.11826 0.07100
H 	H 	0.89747 0.53102 0.16980 0.03500
H 	H 	0.97767 0.54741 0.89585 0.05400
H 	H 	0.92599 0.53692 0.94850 0.05400
H 	H 	0.17539 0.78124 0.00723 0.05400
H 	H 	0.12370 0.77098 0.05983 0.05400
C 	C 	0.15111 0.50004 0.56136 0.14100
C 	C 	0.13070 0.48398 0.59947 -0.09900
H 	H 	0.09360 0.46361 0.60288 0.07100
C 	C 	0.15887 0.49739 0.63341 0.04700
H 	H 	0.14319 0.48688 0.66287 0.03200
C 	C 	0.20776 0.52713 0.62947 -0.10800
C 	C 	0.22719 0.53908 0.59095 0.04700
H 	H 	0.26481 0.56183 0.58741 0.02600
C 	C 	0.19895 0.52569 0.55706 -0.09900
H 	H 	0.21478 0.53784 0.52764 0.07200
N 	N 	0.12485 0.49685 0.52767 -0.17800
C 	C 	0.12880 0.54913 0.51977 0.19200
C 	C 	0.09982 0.54504 0.48950 -0.05900
C 	C 	0.06755 0.48731 0.46696 0.03200
C 	C 	0.06562 0.43521 0.47406 -0.05800
C 	C 	0.09502 0.44104 0.50478 0.19100
C 	C 	0.10187 0.59726 0.48206 -0.01000
C 	C 	0.07089 0.59113 0.45338 -0.01100
C 	C 	0.03741 0.53272 0.43162 -0.05800
C 	C 	0.03646 0.48124 0.43786 0.03200
C 	C 	0.00369 0.42322 0.41571 -0.05800
C 	C 	0.03370 0.37778 0.45097 -0.01100
C 	C 	0.00304 0.37188 0.42196 -0.01000
C 	C 	0.00375 0.52422 0.40460 0.19200
N 	N 	0.97001 0.46599 0.38500 -0.17800
C 	C 	0.97101 0.41689 0.38853 0.19000
C 	C 	0.93056 0.45447 0.36353 0.13900
C 	C 	0.88566 0.42086 0.38163 -0.10000
C 	C 	0.84888 0.41603 0.36313 0.04300
C 	C 	0.85685 0.44557 0.32651 -0.10700
C 	C 	0.90123 0.47683 0.30749 0.04500
C 	C 	0.93787 0.48107 0.32594 -0.09700
O 	O 	0.09329 0.39238 0.51205 -0.19600
O 	O 	0.15921 0.60302 0.54117 -0.19900
O 	O 	0.00342 0.57161 0.39926 -0.19400
O 	O 	0.94041 0.36302 0.36719 -0.19700
H 	H 	0.97242 0.50672 0.31171 0.07300
H 	H 	0.90787 0.49942 0.27909 0.03900
H 	H 	0.87976 0.39989 0.41053 0.06900
H 	H 	0.81449 0.39048 0.37768 0.01400
H 	H 	0.03219 0.33742 0.45564 0.05400
H 	H 	0.97840 0.32704 0.40483 0.05200
H 	H 	0.12701 0.64243 0.49876 0.05300
H 	H 	0.07266 0.63166 0.44848 0.05500
C 	C 	0.49137 0.17916 0.39303 0.13700
C 	C 	0.52978 0.23479 0.41434 -0.09700
H 	H 	0.52999 0.23670 0.44686 0.07200
C 	C 	0.56933 0.28632 0.39392 0.04200
H 	H 	0.59942 0.32828 0.41086 0.03800
C 	C 	0.57118 0.28233 0.35194 -0.10100
C 	C 	0.53091 0.22886 0.33035 0.04000
H 	H 	0.53147 0.22557 0.29791 0.03500
C 	C 	0.49099 0.17758 0.35086 -0.09400
H 	H 	0.46105 0.13515 0.33418 0.07300
N 	N 	0.45646 0.12145 0.41425 -0.17700
C 	C 	0.42352 0.11730 0.43776 0.19100
C 	C 	0.39706 0.06878 0.46597 -0.05700
C 	C 	0.40313 0.02307 0.46833 0.03200
C 	C 	0.43376 0.02466 0.44155 -0.05800
C 	C 	0.46013 0.07445 0.41427 0.19100
C 	C 	0.36612 0.06674 0.49278 -0.01100
C 	C 	0.34295 0.02101 0.52254 -0.01000
C 	C 	0.35023 0.97646 0.52586 -0.05900
C 	C 	0.37963 0.97681 0.49822 0.03200
C 	C 	0.38657 0.93202 0.50104 -0.05900
C 	C 	0.43903 0.97803 0.44352 -0.01300
C 	C 	0.41562 0.93208 0.47302 -0.01100
C 	C 	0.32948 0.93240 0.55699 0.19100
N 	N 	0.33853 0.89102 0.56046 -0.17700
C 	C 	0.36533 0.88889 0.53253 0.19200
C 	C 	0.32182 0.85139 0.59481 0.13900
C 	C 	0.35003 0.87598 0.63031 -0.09700
C 	C 	0.34282 0.83422 0.65900 0.04100
C 	C 	0.30756 0.76772 0.65217 -0.10100
C 	C 	0.27575 0.74362 0.61897 0.04700
C 	C 	0.28269 0.78542 0.59048 -0.09400
O 	O 	0.49029 0.07773 0.38998 -0.20000
O 	O 	0.41776 0.16006 0.43479 -0.19300
O 	O 	0.30196 0.93163 0.58324 -0.19400
O 	O 	0.37233 0.84739 0.53591 -0.19900
H 	H 	0.26020 0.76619 0.56348 0.07800
H 	H 	0.24785 0.69229 0.61377 0.04000
H 	H 	0.37981 0.92700 0.63416 0.06900
H 	H 	0.36708 0.85335 0.68489 0.02400
H 	H 	0.46174 0.97775 0.42260 0.05200
H 	H 	0.42066 0.89713 0.47430 0.05200
H 	H 	0.36051 0.10108 0.49108 0.05500
H 	H 	0.31985 0.02087 0.54321 0.05500
C 	C 	0.44478 0.83294 0.91319 0.13900
C 	C 	0.46083 0.80032 0.90041 -0.09700
H 	H 	0.49593 0.81737 0.91019 0.07100
C 	C 	0.43155 0.74560 0.87509 0.04100
H 	H 	0.44420 0.72048 0.86574 0.03700
C 	C 	0.38592 0.72313 0.86225 -0.10300
C 	C 	0.36998 0.75605 0.87514 0.04000
H 	H 	0.33508 0.73968 0.86530 0.04000
C 	C 	0.39930 0.81064 0.90053 -0.09600
H 	H 	0.38681 0.83577 0.91032 0.07300
N 	N 	0.47491 0.88921 0.93921 -0.17700
C 	C 	0.50477 0.94866 0.92283 0.19000
C 	C 	0.53329 0.00442 0.94788 -0.05500
C 	C 	0.53113 0.99849 0.98975 0.02900
C 	C 	0.50100 0.93730 0.00606 -0.05700
C 	C 	0.47288 0.88265 0.98005 0.19100
C 	C 	0.56361 0.06587 0.93169 -0.01200
C 	C 	0.59112 0.12073 0.95706 -0.01000
C 	C 	0.58879 0.11507 0.99905 -0.05800
C 	C 	0.55896 0.05387 0.01536 0.03400
C 	C 	0.55669 0.04794 0.05723 -0.05800
C 	C 	0.49916 0.93162 0.04804 -0.01100
C 	C 	0.52680 0.98648 0.07341 -0.01200
C 	C 	0.61557 0.16975 0.02509 0.19200
N 	N 	0.61238 0.16322 0.06595 -0.17700
C 	C 	0.58414 0.10374 0.08230 0.19100
C 	C 	0.63814 0.21957 0.09203 0.13900
C 	C 	0.68607 0.25135 0.10369 -0.09600
C 	C 	0.71126 0.30645 0.12882 0.04200
C 	C 	0.68857 0.33012 0.14257 -0.10300
C 	C 	0.64041 0.29792 0.13090 0.04000
C 	C 	0.61541 0.24298 0.10571 -0.09600
O 	O 	0.44423 0.82496 0.99498 -0.19300
O 	O 	0.50655 0.95354 0.88349 -0.19800
O 	O 	0.64347 0.22746 0.01018 -0.19300
O 	O 	0.58246 0.09886 0.12164 -0.19700
H 	H 	0.57836 0.21849 0.09680 0.07300
H 	H 	0.62225 0.31518 0.14150 0.04000
H 	H 	0.70377 0.23343 0.09313 0.07100
H 	H 	0.74845 0.33097 0.13726 0.03700
H 	H 	0.47628 0.88483 0.06115 0.05400
H 	H 	0.52472 0.98099 0.10562 0.05300
H 	H 	0.56585 0.07136 0.89948 0.05400
H 	H 	0.61407 0.16752 0.94395 0.05400
C 	C 	0.52264 0.39621 0.12296 0.14100
C 	C 	0.51287 0.36615 0.15958 -0.09700
H 	H 	0.47598 0.33080 0.16905 0.07500
C 	C 	0.55084 0.38272 0.18434 0.04800
H 	H 	0.54301 0.35995 0.21286 0.03700
C 	C 	0.59882 0.42962 0.17257 -0.11100
C 	C 	0.60830 0.45847 0.13543 0.04900
H 	H 	0.64506 0.49374 0.12559 0.02000
C 	C 	0.57040 0.44189 0.11084 -0.10200
H 	H 	0.57805 0.46509 0.08253 0.07000
N 	N 	0.48415 0.38298 0.09880 -0.17800
C 	C 	0.46895 0.41700 0.10647 0.19200
C 	C 	0.44137 0.41814 0.07744 -0.05800
C 	C 	0.42807 0.38202 0.04133 0.03200
C 	C 	0.43993 0.34251 0.03567 -0.05800
C 	C 	0.46754 0.34272 0.06548 0.19100
C 	C 	0.42888 0.45703 0.08318 -0.01100
C 	C 	0.40542 0.46215 0.05244 -0.01100
C 	C 	0.39397 0.42829 0.01551 -0.05800
C 	C 	0.40431 0.38707 0.01034 0.03200
C 	C 	0.39222 0.35235 0.97379 -0.05800
C 	C 	0.42594 0.30574 0.99964 -0.01100
C 	C 	0.40228 0.31065 0.96893 -0.01100
C 	C 	0.37359 0.43641 0.98323 0.19100
N 	N 	0.36419 0.40464 0.94702 -0.17700
C 	C 	0.37144 0.36133 0.94229 0.19100
C 	C 	0.34873 0.41932 0.91313 0.14100
C 	C 	0.30095 0.39477 0.91005 -0.09700
C 	C 	0.28782 0.41745 0.88111 0.04600
C 	C 	0.32235 0.46444 0.85477 -0.10500
C 	C 	0.36939 0.48584 0.85619 0.04800
C 	C 	0.38256 0.46354 0.88539 -0.09800
O 	O 	0.47922 0.30620 0.06057 -0.19500
O 	O 	0.48221 0.45123 0.14030 -0.19500
O 	O 	0.36479 0.47616 0.98738 -0.19400
O 	O 	0.35975 0.32896 0.90786 -0.19500
H 	H 	0.41947 0.48242 0.88754 0.07200
H 	H 	0.39631 0.52195 0.83595 0.03600
H 	H 	0.27458 0.36019 0.93118 0.07200
H 	H 	0.25122 0.39989 0.87990 0.02200
H 	H 	0.43403 0.27416 0.99504 0.05500
H 	H 	0.39248 0.28268 0.94122 0.05500
H 	H 	0.43801 0.48424 0.11113 0.05400
H 	H 	0.39681 0.49313 0.05724 0.05400
C 	C 	0.50624 0.60215 0.64067 0.13900
C 	C 	0.46599 0.58214 0.61781 -0.09900
H 	H 	0.46211 0.56691 0.58663 0.07000
C 	C 	0.43087 0.58199 0.63501 0.04200
H 	H 	0.39985 0.56610 0.61696 0.03500
C 	C 	0.43578 0.60224 0.67536 -0.10600
C 	C 	0.47592 0.62159 0.69842 0.04100
H 	H 	0.48031 0.63757 0.72950 0.03100
C 	C 	0.51101 0.62147 0.68109 -0.09600
H 	H 	0.54203 0.63682 0.69889 0.07200
N 	N 	0.54262 0.60318 0.62245 -0.17800
C 	C 	0.58149 0.65828 0.60539 0.19100
C 	C 	0.61102 0.65637 0.57920 -0.05900
C 	C 	0.60093 0.59784 0.57169 0.03200
C 	C 	0.56360 0.54317 0.59217 -0.05800
C 	C 	0.53520 0.54723 0.61840 0.19100
C 	C 	0.64907 0.71129 0.55915 -0.01100
C 	C 	0.67520 0.70703 0.53054 -0.01100
C 	C 	0.66362 0.64775 0.52148 -0.05800
C 	C 	0.62708 0.59345 0.54267 0.03200
C 	C 	0.61559 0.53429 0.53396 -0.05800
C 	C 	0.55390 0.48476 0.58480 -0.01100
C 	C 	0.57963 0.48032 0.55586 -0.01000
C 	C 	0.68678 0.64126 0.49053 0.19100
N 	N 	0.67244 0.58208 0.48025 -0.17700
C 	C 	0.63905 0.52954 0.50243 0.19200
C 	C 	0.68946 0.57378 0.44385 0.13900
C 	C 	0.66920 0.56936 0.40672 -0.09800
C 	C 	0.67969 0.55103 0.37196 0.04400
C 	C 	0.71004 0.53592 0.37412 -0.10400
C 	C 	0.73299 0.54483 0.41095 0.04100
C 	C 	0.72276 0.56380 0.44563 -0.09600
O 	O 	0.50007 0.49640 0.63788 -0.19300
O 	O 	0.58994 0.71258 0.61219 -0.19900
O 	O 	0.72142 0.69186 0.47060 -0.19600
O 	O 	0.62750 0.47381 0.49310 -0.19700
H 	H 	0.73902 0.56802 0.47417 0.07200
H 	H 	0.75714 0.53452 0.41310 0.03200
H 	H 	0.64392 0.57781 0.40512 0.07100
H 	H 	0.66275 0.54620 0.34366 0.03600
H 	H 	0.52586 0.44242 0.60086 0.05400
H 	H 	0.57101 0.43464 0.55015 0.05400
H 	H 	0.65800 0.75711 0.56515 0.05200
H 	H 	0.70383 0.74964 0.51501 0.05300
