data_crystal

_cell_length_a 15.53041
_cell_length_b 15.53446
_cell_length_c 12.58953
_cell_angle_alpha 89.99209
_cell_angle_beta  89.99045
_cell_angle_gamma 89.98246

_symmetry_space_group_name_	'P 1'
_symmetry_space_group_name_H-M	'P 1'

loop_
_symmetry_equiv_pos_as_xyz
  x,y,z

loop_
_atom_site_label
_atom_site_type_symbol
_atom_site_fract_x
_atom_site_fract_y
_atom_site_fract_z
_atom_site_charge
Co	Co	0.92802 0.92472 0.88375 1.15600
Co	Co	0.06141 0.05692 0.14265 1.19600
Co	Co	0.92857 0.92607 0.14392 1.17000
Co	Co	0.05961 0.05653 0.88267 1.17900
C 	C 	0.80319 0.96569 0.70715 0.32800
Co	Co	0.98965 0.99762 0.65251 1.13500
Co	Co	0.98829 0.99534 0.37388 1.12500
C 	C 	0.17561 0.00671 0.71068 0.43400
O 	O 	0.94414 0.86897 0.37677 -0.41200
O 	O 	0.98620 0.00112 0.20754 -0.71500
C 	C 	0.97883 0.80970 0.31586 0.32900
O 	O 	0.88255 0.86441 0.01433 -0.42800
O 	O 	0.12146 0.10273 0.01203 -0.40300
C 	C 	0.17463 0.98425 0.31488 0.30800
O 	O 	0.96849 0.01698 0.01348 -0.49300
C 	C 	0.80087 0.99607 0.31096 0.24400
C 	C 	0.00129 0.81088 0.71153 0.33500
C 	C 	0.98973 0.18468 0.71566 0.32900
O 	O 	0.99368 0.82603 0.21508 -0.39600
O 	O 	0.03532 0.87192 0.65228 -0.39700
O 	O 	0.99297 0.82157 0.81518 -0.42300
O 	O 	0.11372 0.95025 0.37434 -0.39600
O 	O 	0.16389 0.99204 0.21116 -0.40300
O 	O 	0.86304 0.04023 0.35786 -0.31600
O 	O 	0.81556 0.94199 0.23102 -0.36500
O 	O 	0.94527 0.12272 0.66878 -0.36600
O 	O 	0.04391 0.16974 0.79545 -0.39600
O 	O 	0.98449 0.99936 0.81890 -0.81500
C 	C 	0.02025 0.18232 0.31953 0.32300
O 	O 	0.03752 0.11976 0.38658 -0.39200
O 	O 	0.03349 0.17285 0.21674 -0.37000
O 	O 	0.86576 0.94813 0.64023 -0.42300
O 	O 	0.81264 0.95289 0.81000 -0.42000
O 	O 	0.11638 0.04158 0.64986 -0.40400
O 	O 	0.15923 0.99168 0.81141 -0.47300
C 	C 	0.99567 0.57446 0.45675 -0.00200
C 	C 	0.99307 0.57506 0.56888 -0.01100
C 	C 	0.98912 0.49721 0.62482 -0.03200
C 	C 	0.98949 0.41884 0.56982 -0.01000
C 	C 	0.99512 0.41820 0.45803 0.00700
C 	C 	0.99726 0.49601 0.40188 -0.03300
H 	H 	0.00033 0.49553 0.31578 0.06100
H 	H 	0.98641 0.49761 0.71095 0.04200
C 	C 	0.56728 0.99097 0.56859 -0.03800
C 	C 	0.56668 0.99677 0.45682 0.03700
C 	C 	0.48831 0.99721 0.40177 -0.12500
C 	C 	0.41042 0.99310 0.45766 0.03700
C 	C 	0.41097 0.99031 0.56979 -0.04900
C 	C 	0.48943 0.98871 0.62470 -0.01400
H 	H 	0.48988 0.98550 0.71079 0.03000
H 	H 	0.48795 0.00002 0.31565 0.12800
C 	C 	0.26023 0.98779 0.35771 -0.08800
C 	C 	0.32983 0.99048 0.40012 0.03300
C 	C 	0.33099 0.99325 0.62823 0.09700
C 	C 	0.26142 0.99789 0.67025 -0.18900
C 	C 	0.71625 0.99891 0.35610 -0.07100
C 	C 	0.64682 0.99888 0.39875 0.02200
C 	C 	0.64798 0.98340 0.62493 0.06400
C 	C 	0.71790 0.97597 0.66545 -0.12700
C 	C 	0.00262 0.33751 0.40170 0.05700
C 	C 	0.01000 0.26761 0.36117 -0.08700
C 	C 	0.98714 0.26932 0.67058 -0.10200
C 	C 	0.98730 0.33874 0.62793 0.06300
C 	C 	0.98775 0.72393 0.35630 -0.09600
C 	C 	0.99253 0.65439 0.39829 0.06600
C 	C 	0.99555 0.65568 0.62632 0.06300
C 	C 	0.99807 0.72531 0.66865 -0.11800
