data_crystal

_cell_length_a 24.59297
_cell_length_b 23.93175
_cell_length_c 28.27919
_cell_angle_alpha 95.49031
_cell_angle_beta  95.48576
_cell_angle_gamma 125.85744

_symmetry_space_group_name_	'P 1'
_symmetry_space_group_name_H-M	'P 1'

loop_
_symmetry_equiv_pos_as_xyz
  x,y,z

loop_
_atom_site_label
_atom_site_type_symbol
_atom_site_fract_x
_atom_site_fract_y
_atom_site_fract_z
_atom_site_charge
C 	C 	0.84617 0.01099 0.46606 -0.07900
C 	C 	0.95151 0.01533 0.48519 0.09500
H 	H 	0.74557 0.00485 0.99727 0.05100
N 	N 	0.85736 0.01741 0.97303 -0.16500
H 	H 	0.15289 0.00773 0.52340 0.05400
C 	C 	0.05592 0.03087 0.49185 0.09400
C 	C 	0.96583 0.03092 0.98635 0.09700
C 	C 	0.91468 0.04660 0.48663 0.05800
H 	H 	0.17209 0.04766 0.06437 0.05400
C 	C 	0.78902 0.05644 0.42675 -0.09100
C 	C 	0.07313 0.05505 0.01003 0.08400
N 	N 	0.02033 0.05758 0.48814 -0.13100
C 	C 	0.92428 0.05399 0.97029 0.05700
C 	C 	0.17200 0.05908 0.51563 -0.07400
H 	H 	0.27992 0.05002 0.50930 0.05400
C 	C 	0.83752 0.06269 0.46187 0.02000
C 	C 	0.78990 0.05589 0.99379 -0.06900
C 	C 	0.84150 0.06237 0.97159 0.07000
N 	N 	0.03515 0.07613 0.99402 -0.12500
C 	C 	0.13088 0.07781 0.49855 0.05600
H 	H 	0.70616 0.09205 0.39913 0.08300
C 	C 	0.18926 0.09645 0.05267 -0.07500
H 	H 	0.69074 0.07693 0.00070 0.03600
C 	C 	0.27548 0.08416 0.48950 -0.08800
C 	C 	0.80522 0.11759 0.41089 0.07600
H 	H 	0.30382 0.09887 0.06900 0.05400
C 	C 	0.14790 0.10615 0.02325 0.04900
N 	N 	0.94743 0.11683 0.49454 -0.16300
C 	C 	0.23316 0.10290 0.50052 0.02200
N 	N 	0.75828 0.12865 0.39920 -0.15200
C 	C 	0.90081 0.12682 0.47916 0.07000
C 	C 	0.95157 0.12304 0.96665 -0.07100
C 	C 	0.79772 0.11731 0.01195 -0.00500
C 	C 	0.89830 0.12795 0.96714 0.01800
H 	H 	0.39913 0.11684 0.48069 0.09300
C 	C 	0.31331 0.11226 0.45300 0.07800
C 	C 	0.74403 0.12156 0.01198 -0.03600
H 	H 	0.00011 0.15424 0.49745 0.08900
C 	C 	0.30690 0.13753 0.04992 -0.08800
N 	N 	0.16445 0.13086 0.47396 -0.16300
N 	N 	0.37561 0.12771 0.45422 -0.15300
C 	C 	0.25500 0.14615 0.04620 0.02500
H 	H 	0.42306 0.14425 0.03748 0.09100
C 	C 	0.86938 0.18137 0.42712 0.00800
H 	H 	0.14031 0.14079 0.44724 0.08800
C 	C 	0.22663 0.14602 0.47479 0.07300
N 	N 	0.18524 0.15865 0.99897 -0.14900
N 	N 	0.40183 0.16057 0.01387 -0.15800
H 	H 	0.16582 0.16324 0.96623 0.08800
H 	H 	0.00504 0.16705 0.97812 0.05600
C 	C 	0.91795 0.18732 0.46199 -0.08400
C 	C 	0.30706 0.15567 0.42741 0.01000
C 	C 	0.36023 0.17691 0.02496 0.06600
C 	C 	0.79175 0.19905 0.40791 -0.00700
C 	C 	0.25065 0.18321 0.01274 0.04900
O 	O 	0.66797 0.18320 0.99939 -0.36400
C 	C 	0.85396 0.18280 0.00671 0.06700
O 	O 	0.52472 0.18885 0.98925 -0.34900
C 	C 	0.90618 0.18939 0.98528 -0.07700
C 	C 	0.26432 0.17403 0.43818 -0.08100
C 	C 	0.42803 0.19115 0.97588 0.01000
C 	C 	0.76995 0.18958 0.00645 -0.02000
C 	C 	0.40969 0.18132 0.43012 -0.00000
H 	H 	0.56820 0.19509 0.90272 0.17600
H 	H 	0.73960 0.00643 0.41349 0.05200
O 	O 	0.70810 0.19932 0.44517 -0.43300
C 	C 	0.36862 0.20000 0.41279 -0.04600
N 	N 	0.04160 0.98825 0.01756 -0.12900
Cu	Cu	0.62457 0.36340 0.00642 0.88600
O 	O 	0.61572 0.22590 0.92110 -0.64100
O 	O 	0.61699 0.32994 0.06937 -0.38900
C 	C 	0.49725 0.21640 0.96948 0.25600
O 	O 	0.53657 0.27619 0.95502 -0.38200
Cu	Cu	0.61857 0.27153 0.48212 0.89600
Cu	Cu	0.60734 0.33919 0.40116 0.89400
O 	O 	0.62651 0.27636 0.41560 -0.63900
O 	O 	0.52013 0.21832 0.46891 -0.37400
C 	C 	0.48482 0.22873 0.43761 0.26300
O 	O 	0.51477 0.28612 0.41858 -0.38800
O 	O 	0.61000 0.25147 0.54830 -0.38600
H 	H 	0.59858 0.23018 0.39348 0.16300
H 	H 	0.25983 0.20813 0.41836 0.05200
H 	H 	0.38791 0.25168 0.40565 0.04900
C 	C 	0.29966 0.21471 0.98303 -0.06600
C 	C 	0.35724 0.21576 0.99296 0.01800
C 	C 	0.39866 0.22317 0.96056 -0.05300
H 	H 	0.29141 0.23393 0.95204 0.05000
H 	H 	0.41814 0.26162 0.93720 0.04900
Cu	Cu	0.62489 0.23171 0.99200 0.93100
O 	O 	0.63489 0.20626 0.83141 -0.41900
N 	N 	0.02259 0.96153 0.49215 -0.13100
O 	O 	0.66073 0.37043 0.34808 -0.38500
Cu	Cu	0.67761 0.21299 0.89373 0.87100
Cu	Cu	0.66379 0.32728 0.91727 0.89700
C 	C 	0.64688 0.30348 0.08789 0.30100
C 	C 	0.64316 0.26071 0.81636 0.30300
O 	O 	0.67916 0.33805 0.98616 -0.62800
O 	O 	0.65871 0.44434 0.97224 -0.38300
O 	O 	0.64807 0.25578 0.06125 -0.36600
O 	O 	0.66413 0.31788 0.84707 -0.38500
C 	C 	0.68733 0.34147 0.32862 0.30100
C 	C 	0.65910 0.26511 0.58244 0.30400
O 	O 	0.67587 0.41309 0.46693 -0.38200
C 	C 	0.64979 0.26533 0.63177 -0.09900
C 	C 	0.64445 0.26492 0.67369 0.03300
C 	C 	0.64107 0.26386 0.72318 0.03300
C 	C 	0.64065 0.26257 0.76567 -0.09900
C 	C 	0.68364 0.33311 0.27722 -0.09400
C 	C 	0.67842 0.32627 0.23386 0.03400
C 	C 	0.66989 0.31837 0.18299 0.03300
C 	C 	0.66053 0.31163 0.13954 -0.09300
H 	H 	0.67883 0.56324 0.96833 0.09000
O 	O 	0.71536 0.42719 0.91905 -0.37200
C 	C 	0.70639 0.46891 0.94530 0.26300
O 	O 	0.71937 0.32124 0.49055 -0.64200
O 	O 	0.72980 0.33541 0.35565 -0.35800
H 	H 	0.70195 0.54027 0.49781 0.08500
N 	N 	0.72057 0.58061 0.95124 -0.15200
C 	C 	0.74181 0.54160 0.93786 0.00400
O 	O 	0.74320 0.24370 0.95055 -0.43300
C 	C 	0.72629 0.20760 0.98554 0.27600
H 	H 	0.72790 0.37022 0.00201 0.15200
Cu	Cu	0.73355 0.33603 0.42384 0.92700
Cu	Cu	0.71991 0.24527 0.50786 0.87000
C 	C 	0.74151 0.45796 0.46728 0.25500
C 	C 	0.75734 0.23056 0.42042 0.26300
O 	O 	0.71213 0.26904 0.57187 -0.41900
H 	H 	0.74627 0.36428 0.51584 0.17400
C 	C 	0.77496 0.64818 0.95671 0.07700
H 	H 	0.73941 0.69880 0.99699 0.05400
O 	O 	0.77256 0.43871 0.44258 -0.35400
O 	O 	0.78426 0.29541 0.41520 -0.36200
N 	N 	0.75233 0.55984 0.51114 -0.15200
H 	H 	0.74640 0.67053 0.51885 0.05400
C 	C 	0.78327 0.70204 0.98895 -0.07400
C 	C 	0.80405 0.62843 0.52661 0.07600
C 	C 	0.79646 0.68203 0.52397 -0.08500
C 	C 	0.78101 0.52826 0.49784 -0.00000
H 	H 	0.82281 0.81624 0.51234 0.05500
C 	C 	0.86100 0.23344 0.42489 -0.04400
H 	H 	0.81480 0.95921 0.44343 0.05900
C 	C 	0.83135 0.65262 0.94628 0.00900
C 	C 	0.84975 0.75959 0.01111 0.00900
C 	C 	0.81045 0.58452 0.93437 -0.04200
H 	H 	0.83576 0.84176 0.01865 0.05000
N 	N 	0.83684 0.22658 0.00351 -0.15600
H 	H 	0.83086 0.97265 0.98862 0.09400
C 	C 	0.85538 0.74976 0.52434 0.02000
C 	C 	0.85626 0.80192 0.50602 -0.07200
C 	C 	0.85159 0.57675 0.50452 -0.04800
H 	H 	0.89415 0.28508 0.44772 0.03900
C 	C 	0.87014 0.82742 0.02255 -0.07100
H 	H 	0.84422 0.56949 0.93900 0.04600
H 	H 	0.86249 0.27033 0.98685 0.09100
C 	C 	0.86625 0.64066 0.52326 0.01200
H 	H 	0.88377 0.57062 0.48450 0.05200
C 	C 	0.90627 0.76445 0.00031 0.06200
C 	C 	0.89793 0.71016 0.96842 -0.06900
N 	N 	0.93468 0.96427 0.99390 -0.12200
N 	N 	0.91814 0.94567 0.48572 -0.13000
C 	C 	0.91641 0.76094 0.51900 0.07500
C 	C 	0.92180 0.70561 0.51546 -0.08200
C 	C 	0.91916 0.84403 0.49173 0.05600
C 	C 	0.93845 0.87081 0.01823 0.05700
C 	C 	0.95386 0.91874 0.48917 0.09900
N 	N 	0.95424 0.81727 0.49852 -0.16300
H 	H 	0.96741 0.23730 0.47531 0.05100
H 	H 	0.94176 0.71337 0.96035 0.05200
C 	C 	0.97241 0.94278 0.00938 0.08800
N 	N 	0.96021 0.83224 0.00504 -0.16800
H 	H 	0.95050 0.24041 0.98178 0.05300
H 	H 	0.96544 0.71159 0.50396 0.05400
H 	H 	0.00529 0.84176 0.49565 0.08900
H 	H 	0.00105 0.84957 0.98692 0.09700
