data_crystal

_cell_length_a 17.88906
_cell_length_b 19.56523
_cell_length_c 26.58217
_cell_angle_alpha 95.44057
_cell_angle_beta  95.44124
_cell_angle_gamma 126.41710

_symmetry_space_group_name_	'P 1'
_symmetry_space_group_name_H-M	'P 1'

loop_
_symmetry_equiv_pos_as_xyz
  x,y,z

loop_
_atom_site_label
_atom_site_type_symbol
_atom_site_fract_x
_atom_site_fract_y
_atom_site_fract_z
_atom_site_charge
C 	C 	0.93953 0.02210 0.97854 0.12700
N 	N 	0.03128 0.06454 0.97303 -0.10300
C 	C 	0.06532 0.01949 0.96224 0.14600
N 	N 	0.00698 0.93201 0.95615 -0.10600
C 	C 	0.91663 0.88969 0.96330 0.18500
N 	N 	0.88315 0.93476 0.97501 -0.07000
C 	C 	0.92151 0.01168 0.47884 0.12700
N 	N 	0.01086 0.05839 0.46904 -0.09800
C 	C 	0.05347 0.02043 0.46141 0.14200
N 	N 	0.00477 0.93455 0.46128 -0.10400
C 	C 	0.91505 0.88728 0.47018 0.18500
N 	N 	0.87394 0.92611 0.47982 -0.07100
Cu	Cu	0.65207 0.24333 0.01287 0.93600
Cu	Cu	0.75352 0.25586 0.91363 0.88200
Cu	Cu	0.69875 0.36796 0.93844 0.89800
Cu	Cu	0.62690 0.38859 0.03113 0.90600
C 	C 	0.65482 0.30999 0.11510 0.28700
O 	O 	0.51024 0.17962 0.00377 -0.30500
C 	C 	0.68608 0.30017 0.83059 0.28500
O 	O 	0.71635 0.37466 0.01154 -0.63500
O 	O 	0.64922 0.24544 0.93828 -0.64200
O 	O 	0.71647 0.18823 0.02132 -0.34800
O 	O 	0.82810 0.27841 0.97729 -0.42000
O 	O 	0.60789 0.33599 0.09414 -0.36000
O 	O 	0.75482 0.48962 0.94365 -0.34100
C 	C 	0.73319 0.53224 0.97254 0.32700
C 	C 	0.46794 0.20596 0.97826 0.31100
O 	O 	0.51876 0.28492 0.96915 -0.38900
O 	O 	0.67067 0.49479 0.00292 -0.36500
O 	O 	0.67361 0.26459 0.08663 -0.33700
C 	C 	0.79548 0.21746 0.00471 0.35900
O 	O 	0.70205 0.36418 0.86411 -0.35300
O 	O 	0.70049 0.24570 0.84520 -0.39300
H 	H 	0.78220 0.41881 0.03025 0.18200
H 	H 	0.58686 0.20234 0.91549 0.18800
Cu	Cu	0.62430 0.22450 0.50814 0.93400
Cu	Cu	0.73468 0.24435 0.41277 0.88200
Cu	Cu	0.69037 0.36249 0.44129 0.90200
Cu	Cu	0.61809 0.38095 0.53422 0.90500
C 	C 	0.63005 0.28693 0.61179 0.28600
O 	O 	0.48469 0.17108 0.49556 -0.33700
C 	C 	0.68900 0.30831 0.33236 0.28500
O 	O 	0.70141 0.35949 0.51347 -0.63800
O 	O 	0.63063 0.23674 0.43530 -0.63900
O 	O 	0.67929 0.16097 0.51341 -0.35600
O 	O 	0.80139 0.25751 0.47702 -0.40900
O 	O 	0.58734 0.31791 0.59287 -0.36200
O 	O 	0.75614 0.48645 0.45182 -0.34000
C 	C 	0.73588 0.53026 0.48070 0.34000
C 	C 	0.45234 0.20746 0.47223 0.34200
O 	O 	0.51105 0.28876 0.46801 -0.38800
O 	O 	0.67922 0.49614 0.51432 -0.37400
O 	O 	0.63824 0.23491 0.58159 -0.34000
C 	C 	0.76244 0.19277 0.50164 0.35100
O 	O 	0.69651 0.36598 0.36754 -0.34500
O 	O 	0.69190 0.24622 0.34493 -0.39600
H 	H 	0.76688 0.39830 0.53348 0.18500
H 	H 	0.56984 0.19848 0.41053 0.19800
C 	C 	0.64449 0.29084 0.66779 -0.05200
C 	C 	0.58852 0.21495 0.68755 0.00100
C 	C 	0.59768 0.21790 0.74080 0.00800
C 	C 	0.66563 0.29740 0.77491 -0.05000
C 	C 	0.72012 0.37361 0.75510 -0.00400
C 	C 	0.70981 0.37075 0.70183 0.01200
H 	H 	0.53650 0.15379 0.66144 0.06200
H 	H 	0.77227 0.43485 0.78110 0.07600
C 	C 	0.76801 0.44984 0.68235 0.09000
C 	C 	0.53476 0.13967 0.76015 0.09600
N 	N 	0.81459 0.51315 0.66671 -0.10000
N 	N 	0.48435 0.07700 0.77564 -0.10100
C 	C 	0.66196 0.31012 0.17073 -0.05000
C 	C 	0.73502 0.38579 0.20542 -0.00500
C 	C 	0.74258 0.38739 0.25860 0.01200
C 	C 	0.67582 0.31250 0.27738 -0.04900
C 	C 	0.60119 0.23767 0.24258 -0.00500
C 	C 	0.59386 0.23611 0.18950 0.01500
H 	H 	0.78655 0.44319 0.19099 0.05200
H 	H 	0.54947 0.18019 0.25689 0.05900
C 	C 	0.51587 0.15845 0.15454 0.10500
C 	C 	0.82054 0.46520 0.29345 0.11100
N 	N 	0.45342 0.09629 0.12650 -0.07400
N 	N 	0.88302 0.52754 0.32134 -0.07600
C 	C 	0.84715 0.73771 0.42853 -0.11000
C 	C 	0.86455 0.79525 0.47198 -0.05200
C 	C 	0.83983 0.76581 0.51813 0.32600
C 	C 	0.79914 0.67972 0.52098 -0.06900
C 	C 	0.78160 0.62177 0.47754 -0.12500
C 	C 	0.80505 0.65113 0.43102 0.36000
F 	F 	0.78529 0.59559 0.38804 -0.42500
H 	H 	0.86607 0.76009 0.39276 0.11800
H 	H 	0.78199 0.65820 0.55712 0.10800
F 	F 	0.85770 0.82125 0.56064 -0.40600
C 	C 	0.74149 0.05506 0.48071 -0.05100
C 	C 	0.79953 0.14294 0.50380 -0.16100
C 	C 	0.89595 0.18541 0.52247 0.38000
C 	C 	0.93474 0.14140 0.51607 -0.15600
C 	C 	0.87788 0.05479 0.49029 -0.01700
C 	C 	0.78040 0.01125 0.47349 0.26300
F 	F 	0.72424 0.92793 0.44799 -0.37800
H 	H 	0.66703 0.02181 0.46603 0.08300
H 	H 	0.00939 0.17507 0.53041 0.16100
F 	F 	0.95246 0.26986 0.54595 -0.43200
C 	C 	0.18942 0.03475 0.43121 -0.17800
C 	C 	0.15463 0.07329 0.45739 -0.03000
C 	C 	0.21844 0.15978 0.48369 0.30500
C 	C 	0.31553 0.20510 0.48566 -0.05700
C 	C 	0.35026 0.16441 0.46248 -0.14800
C 	C 	0.28680 0.07971 0.43427 0.38100
F 	F 	0.31954 0.04052 0.41045 -0.44800
H 	H 	0.14110 0.96910 0.40963 0.16200
H 	H 	0.36418 0.27065 0.50738 0.08900
F 	F 	0.18704 0.19850 0.50959 -0.41900
C 	C 	0.78832 0.67960 0.01136 -0.06000
C 	C 	0.77557 0.62293 0.96877 -0.13600
C 	C 	0.80175 0.65301 0.92272 0.36100
C 	C 	0.84371 0.73957 0.92027 -0.11000
C 	C 	0.85866 0.79650 0.96333 -0.06200
C 	C 	0.82921 0.76577 0.00860 0.33500
F 	F 	0.84414 0.82039 0.05070 -0.40600
H 	H 	0.76820 0.65728 0.04699 0.10200
H 	H 	0.86593 0.76279 0.88511 0.12100
F 	F 	0.78568 0.59841 0.88026 -0.42600
C 	C 	0.96270 0.15910 0.01177 -0.12900
C 	C 	0.90134 0.07094 0.98859 -0.03800
C 	C 	0.80386 0.03028 0.97406 0.27400
C 	C 	0.76904 0.07742 0.98232 -0.07200
C 	C 	0.83085 0.16595 0.00376 -0.14300
C 	C 	0.92778 0.20652 0.01885 0.36900
F 	F 	0.98828 0.29199 0.04010 -0.42900
H 	H 	0.03754 0.19112 0.02398 0.14200
H 	H 	0.69430 0.04583 0.96999 0.08400
F 	F 	0.74335 0.94616 0.95003 -0.37900
C 	C 	0.31876 0.18727 0.94802 -0.07200
C 	C 	0.36323 0.15349 0.96879 -0.13300
C 	C 	0.30782 0.07279 0.98420 0.36200
C 	C 	0.21116 0.02993 0.98216 -0.17200
C 	C 	0.16755 0.06540 0.96339 -0.03700
C 	C 	0.22153 0.14351 0.94527 0.30800
F 	F 	0.17983 0.17656 0.92447 -0.41800
H 	H 	0.35966 0.24803 0.93459 0.10200
H 	H 	0.17019 0.96929 0.99574 0.16000
F 	F 	0.34743 0.03584 0.00140 -0.42400
