data_crystal

_cell_length_a 26.27913
_cell_length_b 26.43804
_cell_length_c 34.10154
_cell_angle_alpha 95.49832
_cell_angle_beta  95.49859
_cell_angle_gamma 125.82758

_symmetry_space_group_name_	'P 1'
_symmetry_space_group_name_H-M	'P 1'

loop_
_symmetry_equiv_pos_as_xyz
  x,y,z

loop_
_atom_site_label
_atom_site_type_symbol
_atom_site_fract_x
_atom_site_fract_y
_atom_site_fract_z
_atom_site_charge
C 	C 	0.96983 0.03953 0.00997 0.07700
C 	C 	0.93939 0.97816 0.01845 -0.07400
C 	C 	0.96600 0.94568 0.01214 0.07000
C 	C 	0.02762 0.97810 0.00329 -0.07000
C 	C 	0.06075 0.04137 0.99815 0.07000
C 	C 	0.03044 0.07088 0.99939 -0.07400
H 	H 	0.89301 0.95414 0.02717 0.08500
H 	H 	0.04948 0.95399 0.99999 0.06700
H 	H 	0.05392 0.11796 0.99228 0.08400
C 	C 	0.93954 0.99489 0.44995 0.07800
C 	C 	0.00358 0.02603 0.44594 -0.07700
C 	C 	0.03145 0.99437 0.44784 0.08300
C 	C 	0.99431 0.93021 0.45091 -0.08400
C 	C 	0.92971 0.89799 0.45333 0.08200
C 	C 	0.90290 0.93092 0.45439 -0.07700
H 	H 	0.03233 0.07554 0.44299 0.08300
H 	H 	0.01573 0.90547 0.45169 0.08200
H 	H 	0.85389 0.90692 0.45848 0.08400
Cu	Cu	0.63369 0.23957 0.99617 0.93000
Cu	Cu	0.68124 0.25335 0.90936 0.88800
Cu	Cu	0.67839 0.35288 0.95518 0.90100
Cu	Cu	0.64207 0.35812 0.03542 0.90100
C 	C 	0.65825 0.27716 0.08197 0.28700
O 	O 	0.54114 0.20273 0.99649 -0.33800
C 	C 	0.65009 0.32214 0.86702 0.28900
O 	O 	0.68965 0.33941 0.00806 -0.63800
O 	O 	0.62735 0.25823 0.94183 -0.63800
O 	O 	0.66882 0.19104 0.98612 -0.35900
O 	O 	0.74008 0.26168 0.95132 -0.41000
O 	O 	0.63156 0.30638 0.07725 -0.36300
O 	O 	0.73207 0.44375 0.97214 -0.35800
C 	C 	0.71982 0.47422 0.99781 0.29700
C 	C 	0.51878 0.23515 0.99017 0.30400
O 	O 	0.55823 0.29563 0.98855 -0.38400
O 	O 	0.67973 0.44488 0.02253 -0.37200
O 	O 	0.65291 0.23811 0.05168 -0.33900
C 	C 	0.72135 0.21552 0.97136 0.30800
O 	O 	0.68133 0.36717 0.89950 -0.36400
O 	O 	0.64329 0.26848 0.86584 -0.39300
H 	H 	0.73493 0.36304 0.02119 0.17500
H 	H 	0.58326 0.23732 0.92734 0.18200
Cu	Cu	0.73952 0.33284 0.45569 0.93200
Cu	Cu	0.73491 0.29207 0.54407 0.89100
Cu	Cu	0.63110 0.29198 0.50212 0.90200
Cu	Cu	0.61537 0.31742 0.42004 0.90100
C 	C 	0.69493 0.30323 0.37068 0.28900
O 	O 	0.76932 0.42249 0.45187 -0.33600
C 	C 	0.67137 0.32634 0.59040 0.29200
O 	O 	0.63895 0.27420 0.44819 -0.63800
O 	O 	0.72646 0.34327 0.51129 -0.63600
O 	O 	0.79166 0.30096 0.46501 -0.35300
O 	O 	0.72443 0.23232 0.50227 -0.40600
O 	O 	0.66565 0.32942 0.37691 -0.37100
O 	O 	0.53864 0.23751 0.48997 -0.35900
C 	C 	0.50319 0.23659 0.45924 0.31500
C 	C 	0.73670 0.44280 0.46318 0.30300
O 	O 	0.67696 0.40144 0.46642 -0.38600
O 	O 	0.52881 0.27577 0.43375 -0.37900
O 	O 	0.73567 0.30880 0.39992 -0.34600
C 	C 	0.76984 0.25049 0.48143 0.30600
O 	O 	0.62364 0.29631 0.55922 -0.37100
O 	O 	0.72472 0.33278 0.58864 -0.39200
H 	H 	0.61511 0.22847 0.43687 0.18100
H 	H 	0.74872 0.38769 0.52510 0.19100
C 	C 	0.59886 0.31647 0.75483 0.00500
C 	C 	0.58176 0.28458 0.71512 -0.04800
C 	C 	0.62605 0.31365 0.68987 0.02500
C 	C 	0.68675 0.37021 0.70473 0.00100
C 	C 	0.70375 0.40322 0.74391 -0.04600
C 	C 	0.65989 0.37422 0.76964 0.02500
S 	S 	0.57195 0.28037 0.79325 0.04900
C 	C 	0.63295 0.33656 0.82975 -0.06400
C 	C 	0.67877 0.38569 0.81187 -0.01200
S 	S 	0.72064 0.40067 0.66623 0.05400
C 	C 	0.66064 0.34299 0.62942 -0.06800
C 	C 	0.61118 0.29756 0.64746 -0.01600
H 	H 	0.53569 0.23907 0.70434 0.06000
H 	H 	0.75074 0.44770 0.75475 0.06100
H 	H 	0.72748 0.42204 0.82737 0.06300
H 	H 	0.56788 0.25343 0.63081 0.05700
C 	C 	0.70772 0.32007 0.19651 0.00700
C 	C 	0.74156 0.34631 0.23609 -0.04700
C 	C 	0.70914 0.31504 0.26618 0.02500
C 	C 	0.64741 0.25821 0.25626 0.00700
C 	C 	0.61787 0.22703 0.21645 -0.04700
C 	C 	0.64848 0.26024 0.18643 0.02700
S 	S 	0.73803 0.33864 0.15525 0.03200
C 	C 	0.67687 0.27348 0.12279 -0.05800
C 	C 	0.63068 0.23385 0.14501 -0.01200
S 	S 	0.62858 0.22663 0.29700 0.03800
C 	C 	0.69630 0.28456 0.32924 -0.06200
C 	C 	0.73697 0.33035 0.30718 -0.01200
H 	H 	0.79076 0.38845 0.24308 0.06100
H 	H 	0.57377 0.17918 0.20918 0.06400
H 	H 	0.58410 0.19056 0.13137 0.06900
H 	H 	0.78193 0.37542 0.32089 0.05800
C 	C 	0.76222 0.50982 0.46422 -0.09700
C 	C 	0.82611 0.56008 0.48207 0.15000
C 	C 	0.84952 0.62292 0.48077 -0.08300
C 	C 	0.80912 0.63643 0.46336 0.03000
C 	C 	0.74469 0.58650 0.44721 0.08100
C 	C 	0.72180 0.52366 0.44724 -0.00800
H 	H 	0.89897 0.66136 0.49371 0.09000
C 	C 	0.83539 0.70264 0.46039 0.01100
H 	H 	0.67249 0.48542 0.43383 0.06000
C 	C 	0.84784 0.72226 0.42347 -0.06100
C 	C 	0.87406 0.78506 0.42021 0.11200
C 	C 	0.89031 0.82956 0.45447 -0.02200
C 	C 	0.87591 0.80951 0.49111 -0.05100
C 	C 	0.84811 0.74621 0.49415 0.10200
H 	H 	0.83693 0.68856 0.39725 0.08600
H 	H 	0.88775 0.84346 0.51746 0.07900
Br	Br	0.68685 0.60331 0.42562 -0.18900
Br	Br	0.88074 0.54462 0.51093 -0.22000
Br	Br	0.88683 0.80920 0.36866 -0.19100
Br	Br	0.82747 0.72005 0.54448 -0.19300
C 	C 	0.91317 0.03133 0.45347 -0.02100
C 	C 	0.85926 0.01393 0.42606 0.11000
C 	C 	0.83563 0.04949 0.43014 -0.05900
C 	C 	0.86804 0.10512 0.45936 0.01200
C 	C 	0.92377 0.12423 0.48536 0.10100
C 	C 	0.94467 0.08626 0.48321 -0.05300
H 	H 	0.79284 0.03466 0.40998 0.08800
C 	C 	0.84141 0.14113 0.46415 0.03000
H 	H 	0.98655 0.10035 0.50407 0.08100
C 	C 	0.81759 0.14268 0.49894 -0.08200
C 	C 	0.79869 0.18179 0.50631 0.15300
C 	C 	0.79629 0.21428 0.47635 -0.09800
C 	C 	0.81852 0.21126 0.44096 -0.00700
C 	C 	0.84252 0.17626 0.43521 0.08200
H 	H 	0.81735 0.11630 0.52146 0.09300
H 	H 	0.81765 0.23650 0.41798 0.07600
Br	Br	0.97383 0.20363 0.52268 -0.19000
Br	Br	0.82027 0.94510 0.38113 -0.18700
Br	Br	0.78550 0.19681 0.55940 -0.25800
Br	Br	0.87900 0.17929 0.38852 -0.18700
C 	C 	0.10058 0.02951 0.44934 -0.02300
C 	C 	0.14324 0.05759 0.48644 0.11200
C 	C 	0.20866 0.08962 0.48745 -0.06200
C 	C 	0.23211 0.09451 0.45169 0.01100
C 	C 	0.18944 0.06627 0.41458 0.10400
C 	C 	0.12392 0.03388 0.41358 -0.05000
H 	H 	0.24144 0.11141 0.51604 0.08500
C 	C 	0.30150 0.13094 0.45336 0.03000
H 	H 	0.09112 0.01209 0.38500 0.08500
C 	C 	0.32980 0.09953 0.45367 -0.08300
C 	C 	0.39572 0.13352 0.45551 0.15000
C 	C 	0.43395 0.19981 0.45767 -0.09500
C 	C 	0.40553 0.23113 0.45746 -0.00600
C 	C 	0.33964 0.19707 0.45527 0.08300
H 	H 	0.30044 0.04856 0.45207 0.09000
H 	H 	0.43476 0.28211 0.45908 0.07100
Br	Br	0.21994 0.07210 0.36503 -0.18600
Br	Br	0.11296 0.05312 0.53600 -0.20500
Br	Br	0.43199 0.08816 0.45300 -0.22200
Br	Br	0.30241 0.24154 0.45459 -0.18400
C 	C 	0.75401 0.54367 0.00067 -0.07900
C 	C 	0.77801 0.57371 0.96778 0.14300
C 	C 	0.81637 0.63997 0.97308 -0.09000
C 	C 	0.82517 0.67660 0.00922 0.03300
C 	C 	0.79609 0.64633 0.04070 0.08800
C 	C 	0.76314 0.58065 0.03694 -0.01400
H 	H 	0.83648 0.66290 0.94821 0.08700
C 	C 	0.85976 0.74587 0.01224 0.01600
H 	H 	0.74373 0.55826 0.06209 0.07100
C 	C 	0.83430 0.76815 0.98731 -0.06900
C 	C 	0.86936 0.83282 0.98602 0.10600
C 	C 	0.92815 0.87686 0.01275 -0.01500
C 	C 	0.95286 0.85466 0.03851 -0.05200
C 	C 	0.92034 0.78941 0.03712 0.10500
H 	H 	0.78849 0.73470 0.96737 0.08500
H 	H 	0.99854 0.88806 0.05857 0.08000
Br	Br	0.79753 0.69315 0.08805 -0.18100
Br	Br	0.75106 0.52610 0.91414 -0.21200
Br	Br	0.83969 0.85873 0.94437 -0.21500
Br	Br	0.96146 0.76065 0.06709 -0.18900
C 	C 	0.93434 0.06687 0.00662 -0.01000
C 	C 	0.95639 0.12423 0.03159 0.10300
C 	C 	0.92316 0.15022 0.02656 -0.05000
C 	C 	0.86574 0.11746 0.99865 0.00300
C 	C 	0.84206 0.05857 0.97517 0.10700
C 	C 	0.87722 0.03453 0.97847 -0.06300
H 	H 	0.94128 0.19530 0.04492 0.08500
C 	C 	0.83196 0.14617 0.99300 0.02800
H 	H 	0.85975 0.99022 0.95940 0.09000
C 	C 	0.83070 0.16814 0.95737 -0.08400
C 	C 	0.79281 0.18838 0.94914 0.15400
C 	C 	0.76025 0.19243 0.97856 -0.10500
C 	C 	0.76371 0.17278 0.01494 -0.00100
C 	C 	0.79813 0.14844 0.02189 0.08500
H 	H 	0.85640 0.16609 0.93500 0.09200
H 	H 	0.73883 0.17555 0.03766 0.07500
Br	Br	0.76060 0.00910 0.93952 -0.18900
Br	Br	0.02874 0.16529 0.07451 -0.17400
Br	Br	0.78022 0.20225 0.89588 -0.25800
Br	Br	0.79601 0.11596 0.07021 -0.18600
C 	C 	0.44961 0.20428 0.98615 -0.10300
C 	C 	0.41323 0.16214 0.01151 0.15300
C 	C 	0.34826 0.13512 0.00784 -0.08100
C 	C 	0.31985 0.15292 0.98124 0.02600
C 	C 	0.35645 0.19642 0.95683 0.08500
C 	C 	0.42051 0.22053 0.95863 -0.01100
H 	H 	0.32047 0.10255 0.02718 0.08800
C 	C 	0.25370 0.13052 0.98221 0.00700
H 	H 	0.44816 0.25325 0.93932 0.06600
C 	C 	0.24140 0.15435 0.01555 -0.05900
C 	C 	0.17862 0.12636 0.02081 0.11300
C 	C 	0.12709 0.07633 0.99118 -0.02400
C 	C 	0.13945 0.05492 0.95666 -0.05300
C 	C 	0.20231 0.08051 0.95258 0.10500
H 	H 	0.28083 0.19251 0.03854 0.08300
H 	H 	0.10005 0.01632 0.93386 0.07800
Br	Br	0.32077 0.22584 0.92231 -0.18800
Br	Br	0.45233 0.14668 0.05461 -0.20800
Br	Br	0.16464 0.15279 0.07048 -0.18300
Br	Br	0.21683 0.04387 0.90769 -0.19000
