data_crystal

_cell_length_a 20.65724
_cell_length_b 18.99980
_cell_length_c 44.09622
_cell_angle_alpha 90.72398
_cell_angle_beta  90.81241
_cell_angle_gamma 113.76622

_symmetry_space_group_name_	'P 1'
_symmetry_space_group_name_H-M	'P 1'

loop_
_symmetry_equiv_pos_as_xyz
  x,y,z

loop_
_atom_site_label
_atom_site_type_symbol
_atom_site_fract_x
_atom_site_fract_y
_atom_site_fract_z
_atom_site_charge
O 	O 	0.48430 0.27665 0.53894 -0.39300
C 	C 	0.04638 0.01491 0.69524 -0.06000
H 	H 	0.05104 0.02368 0.67058 0.08400
C 	C 	0.04022 0.00381 0.75525 -0.04600
H 	H 	0.03848 0.99977 0.78037 0.06000
C 	C 	0.03432 0.93459 0.70723 0.01500
C 	C 	0.11333 0.06892 0.71218 0.03200
C 	C 	0.03043 0.92867 0.73842 0.00300
C 	C 	0.10991 0.06407 0.74304 0.01600
Ni	Ni	0.22203 0.68493 0.41582 1.10200
O 	O 	0.31595 0.72244 0.39354 -0.70400
Ni	Ni	0.38249 0.72285 0.42719 1.10000
O 	O 	0.16653 0.69561 0.37827 -0.34700
O 	O 	0.24352 0.81828 0.36983 -0.38200
O 	O 	0.19771 0.57451 0.40003 -0.35000
Ni	Ni	0.34499 0.82846 0.38019 1.08400
O 	O 	0.15180 0.54166 0.45438 -0.39100
O 	O 	0.33125 0.86158 0.42269 -0.41700
O 	O 	0.47169 0.76046 0.40178 -0.36200
O 	O 	0.28935 0.68874 0.45021 -0.69700
O 	O 	0.13167 0.64640 0.44022 -0.37600
O 	O 	0.43826 0.69962 0.46148 -0.35800
O 	O 	0.35592 0.59628 0.48492 -0.39400
Ni	Ni	0.25840 0.58283 0.46503 1.06800
H 	H 	0.31787 0.68856 0.37678 0.18400
H 	H 	0.28997 0.72536 0.46650 0.16400
C 	C 	0.38166 0.87737 0.44311 0.30000
O 	O 	0.28110 0.54516 0.42470 -0.42200
C 	C 	0.19397 0.75354 0.35981 0.31200
C 	C 	0.48596 0.82019 0.38414 0.30700
C 	C 	0.24283 0.54150 0.40011 0.29800
C 	C 	0.41949 0.63129 0.47329 0.28900
C 	C 	0.11306 0.58276 0.45572 0.29100
O 	O 	0.41553 0.83207 0.44604 -0.35600
O 	O 	0.45145 0.86495 0.38715 -0.39700
Ni	Ni	0.38632 0.74460 0.04076 1.10200
O 	O 	0.31383 0.68850 0.00715 -0.70600
Ni	Ni	0.22597 0.69512 0.02340 1.09900
O 	O 	0.46410 0.71742 0.02161 -0.35000
O 	O 	0.39373 0.58952 0.01893 -0.39400
O 	O 	0.43158 0.84622 0.01655 -0.35400
Ni	Ni	0.29296 0.57766 0.00574 1.06800
O 	O 	0.41614 0.89469 0.08154 -0.40500
O 	O 	0.27292 0.55999 0.05094 -0.38800
O 	O 	0.16126 0.63973 0.98776 -0.37400
O 	O 	0.29712 0.74739 0.05807 -0.70300
O 	O 	0.45225 0.79561 0.07645 -0.36000
O 	O 	0.14535 0.71889 0.04086 -0.34900
O 	O 	0.21451 0.84511 0.05029 -0.40000
Ni	Ni	0.31314 0.85491 0.06612 1.07100
H 	H 	0.32621 0.71262 0.98709 0.16200
H 	H 	0.28491 0.71823 0.07709 0.17100
C 	C 	0.21734 0.56441 0.06312 0.30700
O 	O 	0.34563 0.89022 0.02386 -0.40800
C 	C 	0.45199 0.64750 0.01174 0.28500
C 	C 	0.15433 0.57041 0.97902 0.28800
C 	C 	0.40998 0.90293 0.01620 0.30400
C 	C 	0.15554 0.78449 0.05431 0.30400
C 	C 	0.44956 0.85354 0.09234 0.31200
O 	O 	0.18094 0.59598 0.04813 -0.36100
O 	O 	0.18723 0.53437 0.99429 -0.40000
C 	C 	0.04572 0.22717 0.19941 0.01300
C 	C 	0.07397 0.36091 0.18660 -0.05200
C 	C 	0.10720 0.35215 0.16016 0.00600
C 	C 	0.11213 0.28175 0.15399 0.11300
C 	C 	0.08057 0.21970 0.17320 -0.05800
C 	C 	0.13199 0.41480 0.13783 0.03400
H 	H 	0.08009 0.16443 0.16691 0.09300
C 	C 	0.20226 0.46934 0.13936 -0.08200
C 	C 	0.22969 0.52155 0.11586 0.15000
C 	C 	0.18675 0.51866 0.09027 -0.09300
C 	C 	0.11518 0.46737 0.08975 -0.00200
C 	C 	0.08768 0.41575 0.11338 0.08000
H 	H 	0.23608 0.47007 0.15848 0.09200
H 	H 	0.08142 0.46576 0.07048 0.07400
Br	Br	0.15910 0.26799 0.11856 -0.19100
Br	Br	0.32490 0.59809 0.11971 -0.24100
H 	H 	0.43690 0.86079 0.15291 0.05800
C 	C 	0.09384 0.79601 0.06539 -0.10000
C 	C 	0.05599 0.75454 0.09024 0.14300
C 	C 	0.01085 0.78047 0.10570 -0.09500
C 	C 	0.00628 0.84937 0.09737 0.02700
C 	C 	0.03335 0.88164 0.06935 0.08000
C 	C 	0.07772 0.85537 0.05358 -0.01100
H 	H 	0.10307 0.88416 0.03322 0.07100
C 	C 	0.05928 0.94476 0.13873 -0.06500
C 	C 	0.05440 0.98973 0.16301 0.09400
H 	H 	0.11032 0.94510 0.13307 0.07600
Br	Br	0.01790 0.96822 0.05453 -0.19100
Br	Br	0.07065 0.66748 0.10526 -0.22800
Br	Br	0.14036 0.05743 0.18284 -0.20400
H 	H 	0.50012 0.79794 0.32483 0.06100
C 	C 	0.06306 0.19684 0.26696 0.00900
C 	C 	0.13770 0.22960 0.26636 0.10000
C 	C 	0.17670 0.27650 0.29049 -0.05700
C 	C 	0.14238 0.29215 0.31514 0.00900
C 	C 	0.06819 0.25662 0.31649 0.11300
H 	H 	0.23389 0.30373 0.28946 0.08400
C 	C 	0.18213 0.35813 0.33522 0.03200
C 	C 	0.19261 0.43165 0.32577 -0.08600
C 	C 	0.21857 0.49396 0.34602 0.15300
C 	C 	0.23503 0.48302 0.37637 -0.09800
C 	C 	0.23161 0.41048 0.38484 -0.00800
C 	C 	0.20494 0.34795 0.36439 0.08300
H 	H 	0.17758 0.43982 0.30285 0.09300
H 	H 	0.24574 0.40163 0.40780 0.06200
Br	Br	0.18802 0.21212 0.23309 -0.19500
Br	Br	0.23004 0.59264 0.33145 -0.23900
Br	Br	0.19765 0.24876 0.37698 -0.19900
C 	C 	0.02860 0.95474 0.23444 -0.00900
C 	C 	0.02259 0.82539 0.24219 -0.07600
C 	C 	0.07852 0.85462 0.26349 0.01600
C 	C 	0.11356 0.93476 0.26816 0.10200
C 	C 	0.09040 0.98406 0.25262 -0.04800
C 	C 	0.09689 0.80144 0.28249 0.02900
H 	H 	0.11690 0.04547 0.25686 0.09100
C 	C 	0.16365 0.79946 0.27967 -0.07900
C 	C 	0.19484 0.77839 0.30432 0.15700
C 	C 	0.15673 0.75366 0.33122 -0.09100
C 	C 	0.08542 0.74220 0.33176 0.00100
C 	C 	0.05536 0.76635 0.30760 0.07800
H 	H 	0.19432 0.82231 0.25963 0.09200
H 	H 	0.05479 0.71970 0.35184 0.07100
Br	Br	0.18891 0.97805 0.29784 -0.19500
Br	Br	0.29143 0.79024 0.30176 -0.25800
C 	C 	0.40984 0.06656 0.48151 -0.03300
C 	C 	0.41538 0.95632 0.45500 -0.08500
C 	C 	0.37800 0.98833 0.47327 0.11500
N 	N 	0.31283 0.94392 0.48381 -0.19700
H 	H 	0.38260 0.09088 0.49646 0.05800
H 	H 	0.28518 0.96846 0.49687 0.10400
H 	H 	0.28978 0.88452 0.47986 0.09400
C 	C 	0.03913 0.54600 0.46680 -0.07800
C 	C 	0.02303 0.50028 0.49302 0.10400
N 	N 	0.07525 0.50033 0.51219 -0.19000
H 	H 	0.06318 0.46317 0.53052 0.09300
H 	H 	0.12719 0.54100 0.51050 0.07000
C 	C 	0.50152 0.56652 0.46559 -0.04000
C 	C 	0.47679 0.60964 0.48457 -0.08400
H 	H 	0.47953 0.55104 0.44278 0.04600
H 	H 	0.45251 0.70143 0.52470 0.11300
H 	H 	0.55590 0.48596 0.43508 0.08800
C 	C 	0.45811 0.24067 0.59082 -0.10000
C 	C 	0.47141 0.27546 0.61999 0.15200
C 	C 	0.42151 0.24537 0.64275 -0.08600
C 	C 	0.35775 0.18172 0.63656 0.03400
C 	C 	0.34480 0.14669 0.60747 0.08100
C 	C 	0.39518 0.17567 0.58494 -0.00400
H 	H 	0.43127 0.27309 0.66498 0.09400
C 	C 	0.30122 0.15845 0.65922 0.00800
H 	H 	0.38501 0.14810 0.56267 0.06700
C 	C 	0.25732 0.19835 0.66112 -0.05900
C 	C 	0.19709 0.17094 0.67897 0.10800
C 	C 	0.18150 0.10415 0.69613 -0.00100
C 	C 	0.22605 0.06462 0.69446 -0.05900
C 	C 	0.28669 0.09255 0.67675 0.10900
H 	H 	0.26823 0.24893 0.64757 0.08200
H 	H 	0.21218 0.01069 0.70603 0.07700
Br	Br	0.25731 0.06097 0.59775 -0.19800
Br	Br	0.13394 0.22177 0.67728 -0.18200
Br	Br	0.34803 0.03897 0.67618 -0.18100
H 	H 	0.10400 0.83955 0.71304 0.08600
C 	C 	0.04483 0.45199 0.97097 -0.05000
C 	C 	0.09142 0.52361 0.96030 -0.07900
C 	C 	0.07060 0.55562 0.93513 0.10500
N 	N 	0.11825 0.61726 0.92079 -0.19500
H 	H 	0.06186 0.42476 0.98904 0.06800
H 	H 	0.10202 0.64255 0.90297 0.10100
H 	H 	0.17220 0.63831 0.92627 0.09100
C 	C 	0.45484 0.97784 0.00239 -0.07800
C 	C 	0.46839 0.04975 0.01723 0.12000
N 	N 	0.44300 0.05313 0.04526 -0.19200
H 	H 	0.45668 0.10609 0.05651 0.10100
H 	H 	0.40723 0.00448 0.05563 0.08000
C 	C 	0.55212 0.57499 0.95929 0.11600
C 	C 	0.51679 0.61960 0.97004 -0.04200
C 	C 	0.51141 0.63036 0.00124 -0.08600
H 	H 	0.48852 0.64068 0.95414 0.04300
N 	N 	0.55117 0.55979 0.92899 -0.19500
H 	H 	0.57208 0.52220 0.92033 0.09800
H 	H 	0.52753 0.58431 0.91368 0.10100
C 	C 	0.40491 0.24494 0.88859 -0.11200
C 	C 	0.33859 0.18312 0.89088 0.15500
C 	C 	0.29054 0.16402 0.86644 -0.08800
C 	C 	0.30894 0.20526 0.83951 0.03100
C 	C 	0.37264 0.27117 0.83825 0.07800
C 	C 	0.41983 0.29137 0.86300 -0.01400
H 	H 	0.24034 0.11480 0.86779 0.08900
C 	C 	0.26457 0.17518 0.81213 0.00500
C 	C 	0.21838 0.20826 0.80272 -0.05500
C 	C 	0.17323 0.17762 0.77767 0.09700
C 	C 	0.17003 0.10952 0.76343 0.00500
C 	C 	0.21985 0.07996 0.77143 -0.06200
C 	C 	0.26732 0.11264 0.79561 0.11100
H 	H 	0.21864 0.25879 0.81451 0.08500
H 	H 	0.22116 0.03102 0.75913 0.08900
Br	Br	0.39832 0.33091 0.80214 -0.19600
Br	Br	0.31356 0.12334 0.92698 -0.20900
Br	Br	0.12436 0.23518 0.76090 -0.17200
Br	Br	0.33572 0.07145 0.80568 -0.19300
Br	Br	0.12932 0.88631 0.78549 -0.21500
C 	C 	0.02919 0.83596 0.77906 0.08100
C 	C 	0.06127 0.81989 0.69628 -0.05500
H 	H 	0.07024 0.41518 0.19148 0.08400
H 	H 	0.01540 0.76677 0.81874 0.07100
C 	C 	0.04249 0.29881 0.20607 0.10100
C 	C 	0.55384 0.54220 0.47596 0.09400
N 	N 	0.57744 0.50109 0.45699 -0.20600
H 	H 	0.00853 0.11404 0.79172 0.07900
C 	C 	0.46267 0.25256 0.90955 0.30700
C 	C 	0.48186 0.97750 0.97350 -0.03000
H 	H 	0.47127 0.92299 0.96204 0.05900
H 	H 	0.47037 0.34007 0.86149 0.04600
O 	O 	0.49288 0.31569 0.92634 -0.36900
C 	C 	0.50874 0.27210 0.56617 0.33200
C 	C 	0.49131 0.88649 0.14569 -0.00900
C 	C 	0.47886 0.11215 0.47264 -0.09100
C 	C 	0.48282 0.00316 0.44479 -0.04200
C 	C 	0.50867 0.63383 0.51371 0.12500
N 	N 	0.48954 0.68036 0.53188 -0.19800
C 	C 	0.50964 0.11896 0.00284 -0.03700
H 	H 	0.52260 0.17336 0.01477 0.06600
C 	C 	0.02979 0.86947 0.68682 -0.01100
Br	Br	0.07395 0.67497 0.70081 -0.17700
H 	H 	0.52890 0.65787 0.06049 0.12400
C 	C 	0.54989 0.60488 0.02197 0.12900
C 	C 	0.51544 0.04635 0.95776 0.11400
O 	O 	0.58828 0.41965 0.97193 -0.37000
O 	O 	0.48549 0.19672 0.91084 -0.38800
O 	O 	0.51864 0.24897 0.47895 -0.40600
O 	O 	0.56478 0.44307 0.53148 -0.40300
Ni	Ni	0.54289 0.34509 0.50514 1.07500
C 	C 	0.51825 0.18369 0.48941 0.29900
C 	C 	0.50646 0.89074 0.11473 -0.09600
C 	C 	0.54635 0.91464 0.16737 0.08500
Br	Br	0.52404 0.91356 0.20947 -0.16800
C 	C 	0.55199 0.84912 0.36727 -0.09700
C 	C 	0.54910 0.83655 0.33581 -0.01200
C 	C 	0.51449 0.08112 0.45308 0.12100
H 	H 	0.50999 0.97924 0.42970 0.08100
C 	C 	0.56037 0.60862 0.52415 -0.04000
C 	C 	0.58037 0.55955 0.50618 -0.08200
H 	H 	0.51264 0.69694 0.55348 0.10900
H 	H 	0.61886 0.48594 0.46348 0.07100
Br	Br	0.55472 0.36716 0.62866 -0.21900
C 	C 	0.53322 0.11853 0.97320 -0.07500
C 	C 	0.58599 0.56100 0.01131 -0.04600
C 	C 	0.58574 0.54401 0.98030 -0.07700
N 	N 	0.55166 0.62163 0.05213 -0.19900
H 	H 	0.52415 0.99155 0.91760 0.10300
Ni	Ni	0.59712 0.35150 0.93718 1.10200
C 	C 	0.57842 0.19344 0.95896 0.30000
C 	C 	0.62147 0.49498 0.97010 0.27300
O 	O 	0.56917 0.25686 0.96569 -0.35500
O 	O 	0.57414 0.27947 0.57015 -0.37800
O 	O 	0.54356 0.17945 0.51669 -0.37200
C 	C 	0.60928 0.50938 0.52152 0.27900
C 	C 	0.57703 0.92639 0.10539 0.15600
C 	C 	0.60867 0.87479 0.31834 0.08200
Br	Br	0.60390 0.85275 0.27556 -0.16800
N 	N 	0.57921 0.12594 0.44224 -0.20000
H 	H 	0.58176 0.62335 0.54708 0.06600
N 	N 	0.52554 0.04243 0.92751 -0.18600
H 	H 	0.52360 0.08446 0.91305 0.04900
H 	H 	0.61389 0.53956 0.02724 0.05500
H 	H 	0.57810 0.60041 0.06748 0.11200
C 	C 	0.02041 0.13825 0.24413 0.01600
C 	C 	0.02909 0.20866 0.29266 -0.06600
H 	H 	0.04407 0.68504 0.61979 0.08600
C 	C 	0.61576 0.89948 0.38140 0.15100
Br	Br	0.62349 0.91353 0.42470 -0.20500
Ni	Ni	0.58078 0.20623 0.89410 1.08000
H 	H 	0.60634 0.10197 0.42857 0.11100
H 	H 	0.61073 0.34067 0.88087 0.16600
C 	C 	0.61709 0.94466 0.15798 0.03300
Br	Br	0.59922 0.94306 0.06319 -0.20100
H 	H 	0.60219 0.18524 0.44648 0.09300
C 	C 	0.03364 0.74318 0.68598 0.09500
Br	Br	0.59907 0.06942 0.83386 -0.24700
O 	O 	0.62529 0.31730 0.89819 -0.69800
O 	O 	0.61650 0.19310 0.93580 -0.40300
Ni	Ni	0.63259 0.26317 0.53581 1.10100
O 	O 	0.63988 0.35275 0.51054 -0.69900
C 	C 	0.63193 0.95168 0.12700 -0.08700
O 	O 	0.67819 0.52520 0.95332 -0.39400
O 	O 	0.64987 0.18179 0.56069 -0.35800
O 	O 	0.67708 0.52272 0.51970 -0.35300
H 	H 	0.65955 0.34822 0.49062 0.16100
Br	Br	0.65488 0.81031 0.18412 -0.16900
C 	C 	0.67151 0.92768 0.33228 0.03400
C 	C 	0.67491 0.93910 0.36384 -0.08700
Br	Br	0.69849 0.09315 0.30702 -0.18900
O 	O 	0.67109 0.19927 0.87698 -0.38400
O 	O 	0.70243 0.38149 0.94480 -0.70500
H 	H 	0.68632 0.97716 0.11973 0.09100
C 	C 	0.67623 0.97072 0.18020 0.01100
H 	H 	0.69087 0.08944 0.17813 0.08500
H 	H 	0.66244 0.13823 0.61753 0.07300
H 	H 	0.70743 0.35320 0.57868 0.16900
H 	H 	0.71041 0.34690 0.95960 0.16800
O 	O 	0.71578 0.35001 0.55675 -0.70000
Ni	Ni	0.71178 0.44167 0.53603 1.10400
C 	C 	0.71289 0.04972 0.18597 -0.05800
C 	C 	0.70453 0.91920 0.19078 0.11200
H 	H 	0.72390 0.97776 0.37478 0.09100
C 	C 	0.70110 0.11599 0.61100 -0.01500
C 	C 	0.69480 0.13156 0.82295 0.15500
H 	H 	0.71310 0.03530 0.80545 0.09000
Br	Br	0.69396 0.07112 0.67334 -0.18700
O 	O 	0.73038 0.45675 0.88309 -0.39400
C 	C 	0.70817 0.24544 0.85579 0.29600
C 	C 	0.71276 0.17970 0.56137 0.29700
C 	C 	0.73643 0.96284 0.31456 0.00700
Br	Br	0.01917 0.27546 0.35022 -0.19300
Ni	Ni	0.73299 0.36234 0.90386 1.10100
Ni	Ni	0.76087 0.48899 0.95567 1.07700
C 	C 	0.75359 0.03393 0.30040 0.11000
C 	C 	0.72648 0.12542 0.58131 -0.10000
C 	C 	0.72921 0.08286 0.63283 0.08000
C 	C 	0.73243 0.09743 0.80682 -0.08600
C 	C 	0.72513 0.21189 0.82822 -0.09500
Br	Br	0.76408 0.68756 0.89433 -0.21800
O 	O 	0.74401 0.31897 0.86238 -0.36300
C 	C 	0.77722 0.52643 0.88906 0.33000
O 	O 	0.76377 0.22652 0.54449 -0.39000
O 	O 	0.78728 0.52196 0.56281 -0.35300
C 	C 	0.78021 0.07822 0.19959 0.10100
C 	C 	0.77101 0.94752 0.20526 -0.06300
C 	C 	0.77840 0.92178 0.30994 -0.05600
H 	H 	0.76612 0.86786 0.32138 0.08700
C 	C 	0.77309 0.09165 0.57262 0.14500
Br	Br	0.76831 0.88801 0.63298 -0.18100
H 	H 	0.79582 0.49794 0.63106 0.05900
H 	H 	0.76150 0.02550 0.75262 0.08800
O 	O 	0.78690 0.46878 0.50212 -0.35700
Br	Br	0.78733 0.68610 0.75737 -0.16400
O 	O 	0.80427 0.54632 0.91662 -0.37700
H 	H 	0.79338 0.90784 0.21275 0.09500
C 	C 	0.78419 0.06054 0.62513 0.03300
Br	Br	0.79308 0.08249 0.53070 -0.19900
C 	C 	0.78128 0.25783 0.81009 -0.00300
O 	O 	0.80298 0.35800 0.50584 -0.40700
C 	C 	0.81066 0.06128 0.28065 -0.06300
C 	C 	0.81006 0.65348 0.86343 0.15100
C 	C 	0.80861 0.57866 0.86363 -0.09900
Ni	Ni	0.80697 0.34542 0.55141 1.07300
C 	C 	0.81020 0.02704 0.20877 -0.00100
H 	H 	0.80689 0.48383 0.44417 0.10600
C 	C 	0.80311 0.06119 0.59469 -0.08600
C 	C 	0.79549 0.14347 0.79277 0.03300
H 	H 	0.80036 0.31995 0.81127 0.08100
H 	H 	0.82394 0.11618 0.26992 0.09200
Br	Br	0.81229 0.90286 0.73884 -0.20600
C 	C 	0.82295 0.42718 0.49518 0.30200
Br	Br	0.83113 0.18720 0.20425 -0.18900
C 	C 	0.83361 0.94728 0.28946 0.10500
Br	Br	0.84161 0.57390 0.69164 -0.16100
C 	C 	0.81610 0.04672 0.76050 -0.05900
C 	C 	0.81516 0.22351 0.79158 0.08800
C 	C 	0.83853 0.55375 0.83955 -0.00400
H 	H 	0.83699 0.49604 0.83940 0.07100
O 	O 	0.84412 0.45875 0.95950 -0.40100
O 	O 	0.84147 0.41638 0.90958 -0.37200
C 	C 	0.83982 0.50587 0.57372 0.29600
C 	C 	0.83042 0.05089 0.64901 0.00700
C 	C 	0.83334 0.97914 0.65365 0.11200
C 	C 	0.84972 0.53959 0.62843 -0.01500
C 	C 	0.84364 0.70338 0.83990 -0.08700
H 	H 	0.84567 0.76127 0.84012 0.09000
C 	C 	0.84886 0.01651 0.27380 -0.00000
H 	H 	0.84305 0.04061 0.58837 0.09600
C 	C 	0.84259 0.10819 0.78154 0.01300
Br	Br	0.85016 0.84115 0.10444 -0.18300
O 	O 	0.86323 0.46110 0.55814 -0.39100
N 	N 	0.86004 0.51860 0.44063 -0.19800
C 	C 	0.85798 0.00817 0.75185 0.10400
C 	C 	0.87179 0.60352 0.81599 0.07900
C 	C 	0.87509 0.44177 0.93603 0.29800
C 	C 	0.87529 0.67912 0.81629 0.03800
H 	H 	0.87232 0.55561 0.42225 0.10800
H 	H 	0.87216 0.17048 0.66286 0.08200
C 	C 	0.88132 0.54951 0.59999 -0.10100
H 	H 	0.87884 0.32060 0.96165 0.09800
C 	C 	0.00197 0.15588 0.21594 0.02400
H 	H 	0.87757 0.94807 0.15736 0.08100
C 	C 	0.87511 0.11535 0.66604 -0.05500
C 	C 	0.88680 0.58525 0.65324 0.08200
C 	C 	0.88517 0.74739 0.76680 0.11800
C 	C 	0.88414 0.05620 0.22029 0.02000
C 	C 	0.88327 0.97345 0.67409 -0.04900
H 	H 	0.88491 0.91800 0.67784 0.08900
Br	Br	0.88497 0.88481 0.28302 -0.18800
Br	Br	0.88727 0.28622 0.76488 -0.15200
C 	C 	0.89656 0.46606 0.48404 -0.09100
H 	H 	0.90302 0.74761 0.63910 0.08900
H 	H 	0.89985 0.81478 0.72649 0.09100
C 	C 	0.90093 0.04005 0.24876 0.02100
Br	Br	0.90478 0.82777 0.20807 -0.19800
Br	Br	0.91251 0.56735 0.78366 -0.16100
C 	C 	0.91249 0.51346 0.45826 0.12700
C 	C 	0.91084 0.12858 0.79452 0.11200
C 	C 	0.91727 0.73529 0.79350 -0.00100
C 	C 	0.92477 0.80552 0.74692 -0.06400
C 	C 	0.92326 0.10917 0.68724 0.10500
C 	C 	0.92841 0.94737 0.15215 -0.05600
C 	C 	0.92950 0.03842 0.69053 0.00300
N 	N 	0.93001 0.34902 0.97071 -0.20000
C 	C 	0.93349 0.90167 0.12791 0.11200
H 	H 	0.93252 0.09978 0.17547 0.06800
C 	C 	0.93077 0.04111 0.75914 0.00400
H 	H 	0.93994 0.41995 0.51961 0.02900
Br	Br	0.94175 0.19428 0.82999 -0.19000
C 	C 	0.99912 0.89943 0.12155 0.02000
H 	H 	0.99558 0.58785 0.42980 0.07200
H 	H 	0.98645 0.75262 0.12636 0.09900
Br	Br	0.97556 0.19647 0.71270 -0.15500
H 	H 	0.99669 0.76388 0.23797 0.10000
Br	Br	0.99002 0.34522 0.11141 -0.18300
C 	C 	0.98766 0.98753 0.17107 0.01400
C 	C 	0.98248 0.02435 0.74056 0.02400
C 	C 	0.99482 0.87418 0.22890 0.13100
C 	C 	0.98674 0.03233 0.70962 0.03800
C 	C 	0.94662 0.08653 0.19849 -0.04200
C 	C 	0.97893 0.05444 0.25366 -0.04700
H 	H 	0.99285 0.04197 0.27683 0.07400
C 	C 	0.97826 0.02557 0.19930 0.01200
C 	C 	0.99222 0.00672 0.22795 0.04300
Br	Br	0.99171 0.31254 0.24011 -0.18200
H 	H 	0.97195 0.18108 0.29391 0.08900
Br	Br	0.95873 0.75356 0.30997 -0.17200
C 	C 	0.95194 0.45739 0.50026 -0.01100
C 	C 	0.98366 0.55317 0.44997 -0.03100
C 	C 	0.95315 0.59918 0.59730 0.15000
C 	C 	0.99030 0.64309 0.62243 -0.07700
C 	C 	0.95466 0.64308 0.64925 0.03200
C 	C 	0.97487 0.71641 0.66585 0.02200
C 	C 	0.94542 0.76703 0.65605 -0.06500
C 	C 	0.98004 0.84520 0.66252 0.10700
Br	Br	0.99887 0.61535 0.55880 -0.21500
Br	Br	0.98340 0.91300 0.63014 -0.20700
C 	C 	0.99976 0.52292 0.92486 -0.02400
C 	C 	0.95064 0.45773 0.93880 -0.09000
C 	C 	0.97455 0.41838 0.96018 0.12900
H 	H 	0.98208 0.55071 0.90719 0.06200
H 	H 	0.94722 0.32147 0.98738 0.10800
C 	C 	0.95532 0.09646 0.78260 -0.04300
C 	C 	0.99575 0.85332 0.75390 0.01900
C 	C 	0.98970 0.77818 0.79895 -0.03300
