data_crystal

_cell_length_a 24.24095
_cell_length_b 19.88104
_cell_length_c 73.97712
_cell_angle_alpha 89.62356
_cell_angle_beta  89.63329
_cell_angle_gamma 119.51952

_symmetry_space_group_name_	'P 1'
_symmetry_space_group_name_H-M	'P 1'

loop_
_symmetry_equiv_pos_as_xyz
  x,y,z

loop_
_atom_site_label
_atom_site_type_symbol
_atom_site_fract_x
_atom_site_fract_y
_atom_site_fract_z
_atom_site_charge
O 	O 	0.19746 0.56488 0.00306 -0.38100
C 	C 	0.19080 0.62559 0.00579 0.28300
C 	C 	0.07285 0.55837 0.00714 -0.03900
C 	C 	0.38002 0.52729 0.00195 0.26500
O 	O 	0.23968 0.69243 0.01013 -0.37600
O 	O 	0.23991 0.45767 0.00445 -0.37400
O 	O 	0.37129 0.76729 0.00743 -0.37700
C 	C 	0.42606 0.43801 0.00006 -0.04500
H 	H 	0.06931 0.51187 0.01569 0.05300
H 	H 	0.36609 0.64780 0.01520 0.16200
H 	H 	0.39689 0.39963 0.01086 0.05300
O 	O 	0.32162 0.61943 0.01939 -0.71900
C 	C 	0.21474 0.43130 0.02056 0.32700
O 	O 	0.35617 0.50157 0.01850 -0.36600
Ni	Ni	0.30945 0.70256 0.02672 1.12100
C 	C 	0.18088 0.34993 0.02444 -0.11100
O 	O 	0.23286 0.47758 0.03426 -0.38600
Ni	Ni	0.32711 0.55711 0.03746 1.11400
C 	C 	0.15473 0.28627 0.03124 0.05100
O 	O 	0.24101 0.63857 0.04517 -0.38700
O 	O 	0.41686 0.64894 0.04205 -0.37500
O 	O 	0.37933 0.73536 0.04580 -0.37300
C 	C 	0.42669 0.71917 0.04580 0.30500
H 	H 	0.03683 0.22463 0.04545 0.04100
C 	C 	0.11937 0.21269 0.04037 -0.00900
H 	H 	0.19258 0.18130 0.03785 0.03900
C 	C 	0.25236 0.60953 0.05970 0.33100
C 	C 	0.06374 0.19717 0.04973 -0.02900
O 	O 	0.29996 0.59585 0.06008 -0.37600
C 	C 	0.48298 0.76922 0.05550 -0.09700
C 	C 	0.15121 0.17280 0.04545 -0.03000
H 	H 	0.63360 0.79211 0.06474 0.04200
C 	C 	0.52927 0.80677 0.06451 0.04600
C 	C 	0.21500 0.59781 0.07566 -0.10900
C 	C 	0.13592 0.13178 0.06188 -0.04300
C 	C 	0.04833 0.15636 0.06615 -0.04200
C 	C 	0.63326 0.83090 0.07491 -0.03000
H 	H 	0.00933 0.15207 0.07427 0.04100
C 	C 	0.58516 0.85065 0.07510 -0.00600
H 	H 	0.16484 0.10776 0.06663 0.04100
C 	C 	0.08766 0.12910 0.07301 0.00900
C 	C 	0.18325 0.59008 0.08890 0.05400
H 	H 	0.05624 0.52271 0.09054 0.04000
H 	H 	0.71253 0.83649 0.08910 0.04200
C 	C 	0.67794 0.85596 0.08872 -0.04200
C 	C 	0.58584 0.90198 0.08810 -0.03000
H 	H 	0.54937 0.91846 0.08818 0.04200
C 	C 	0.07961 0.55003 0.10299 -0.02600
C 	C 	0.14520 0.58074 0.10467 -0.01100
H 	H 	0.98846 0.02280 0.09337 0.04400
C 	C 	0.08665 0.11316 0.09264 0.01000
H 	H 	0.99487 0.53997 0.11504 0.04700
C 	C 	0.67482 0.90117 0.10275 0.00900
H 	H 	0.18415 0.20154 0.09664 0.04200
C 	C 	0.02997 0.05921 0.10127 -0.04600
C 	C 	0.63059 0.92726 0.10189 -0.04200
C 	C 	0.04487 0.55989 0.11685 -0.05000
H 	H 	0.80277 0.97826 0.10652 0.04200
C 	C 	0.14021 0.15946 0.10311 -0.04200
C 	C 	0.17470 0.61413 0.12097 -0.02700
H 	H 	0.22522 0.63667 0.12249 0.04100
H 	H 	0.62870 0.96361 0.11245 0.04300
C 	C 	0.77745 0.95198 0.11901 -0.04300
C 	C 	0.07581 0.60110 0.13238 0.01300
C 	C 	0.71091 0.91132 0.11943 0.01000
C 	C 	0.02599 0.05461 0.12018 -0.03300
C 	C 	0.14015 0.62436 0.13480 -0.04400
C 	C 	0.13618 0.15462 0.12200 -0.03000
H 	H 	0.02678 0.69207 0.12246 0.04200
H 	H 	0.98147 0.01457 0.12672 0.04300
H 	H 	0.86275 0.99076 0.13438 0.04100
C 	C 	0.04492 0.63242 0.14419 0.00800
C 	C 	0.07868 0.10363 0.13058 -0.00500
C 	C 	0.02634 0.68364 0.13696 -0.04200
H 	H 	0.17720 0.19237 0.12993 0.04200
C 	C 	0.81138 0.95875 0.13476 -0.02900
H 	H 	0.16434 0.65518 0.14685 0.04400
C 	C 	0.67866 0.87709 0.13567 -0.04200
H 	H 	0.62731 0.84477 0.13607 0.04300
H 	H 	0.05667 0.58122 0.16871 0.04200
C 	C 	0.04351 0.62158 0.16299 -0.04200
C 	C 	0.01194 0.72842 0.14844 -0.02900
H 	H 	0.00077 0.77059 0.14274 0.04100
C 	C 	0.77896 0.92477 0.15097 -0.00800
C 	C 	0.71259 0.88388 0.15137 -0.02900
C 	C 	0.07218 0.10603 0.14995 0.04900
C 	C 	0.02930 0.66669 0.17446 -0.02900
C 	C 	0.01599 0.72232 0.16718 -0.00800
H 	H 	0.03152 0.66085 0.18897 0.04200
H 	H 	0.68726 0.85767 0.16387 0.04200
C 	C 	0.81358 0.93504 0.16739 0.05200
C 	C 	0.01440 0.77909 0.17873 0.05200
C 	C 	0.06553 0.10696 0.16612 -0.10000
C 	C 	0.84215 0.94331 0.18121 -0.10300
C 	C 	0.01310 0.82651 0.18848 -0.10500
C 	C 	0.05451 0.10701 0.18525 0.31900
C 	C 	0.01296 0.88324 0.20023 0.32400
O 	O 	0.05389 0.95649 0.19722 -0.39100
C 	C 	0.87630 0.95588 0.19772 0.32300
O 	O 	0.00554 0.11268 0.19086 -0.37600
O 	O 	0.89592 0.90748 0.20272 -0.37900
O 	O 	0.09873 0.11542 0.19664 -0.37600
O 	O 	0.98120 0.86045 0.21554 -0.38200
O 	O 	0.88469 0.01339 0.20809 -0.37500
Ni	Ni	0.08177 0.03681 0.21658 1.12000
Ni	Ni	0.97372 0.09234 0.21754 1.11500
Ni	Ni	0.93765 0.91377 0.22692 1.12200
O 	O 	0.99957 0.01970 0.22322 -0.70700
O 	O 	0.06086 0.18191 0.22639 -0.36800
O 	O 	0.07978 0.96333 0.23624 -0.37400
O 	O 	0.87516 0.93998 0.23935 -0.37300
H 	H 	0.00757 0.03306 0.23605 0.13600
O 	O 	0.12315 0.12786 0.23354 -0.37400
C 	C 	0.09636 0.16960 0.23804 0.30600
O 	O 	0.93148 0.07254 0.24303 -0.37200
O 	O 	0.98097 0.91384 0.25018 -0.37200
C 	C 	0.04376 0.94543 0.25110 0.29400
C 	C 	0.88925 0.00256 0.24893 0.30500
H 	H 	0.68430 0.94642 0.26141 0.04400
C 	C 	0.84361 0.99636 0.26220 -0.09200
C 	C 	0.09605 0.18848 0.25670 -0.11100
C 	C 	0.07267 0.95303 0.26841 -0.09500
C 	C 	0.80159 0.98706 0.27246 0.04600
C 	C 	0.68936 0.94998 0.27598 -0.03000
H 	H 	0.58984 0.90629 0.28087 0.04300
C 	C 	0.09564 0.19947 0.27269 0.05200
C 	C 	0.09807 0.96104 0.28284 0.04200
C 	C 	0.74879 0.97458 0.28375 -0.00400
C 	C 	0.63585 0.92707 0.28698 -0.04200
H 	H 	0.20520 0.08632 0.29341 0.04200
C 	C 	0.12906 0.97158 0.30000 -0.00400
C 	C 	0.18563 0.04008 0.30341 -0.03400
C 	C 	0.09523 0.20878 0.29196 -0.00800
H 	H 	0.09385 0.31643 0.29024 0.04100
C 	C 	0.75497 0.97933 0.30258 -0.03000
C 	C 	0.64150 0.92890 0.30584 0.01000
H 	H 	0.09580 0.10276 0.29811 0.04200
H 	H 	0.05981 0.85963 0.31061 0.04100
H 	H 	0.80077 0.99841 0.30869 0.04200
C 	C 	0.09528 0.27380 0.29913 -0.02900
C 	C 	0.09673 0.15368 0.30357 -0.02900
C 	C 	0.10368 0.91255 0.31310 -0.03200
C 	C 	0.70146 0.95663 0.31361 -0.04200
H 	H 	0.60592 0.00743 0.32852 0.04100
C 	C 	0.58439 0.89695 0.31743 0.00900
C 	C 	0.21757 0.04865 0.31966 -0.04300
H 	H 	0.26171 0.10130 0.32209 0.04100
C 	C 	0.57436 0.94549 0.32902 -0.04100
H 	H 	0.54951 0.77907 0.30894 0.04300
C 	C 	0.54249 0.81693 0.31798 -0.04200
H 	H 	0.70627 0.95844 0.32818 0.04300
C 	C 	0.13558 0.92097 0.32934 -0.04200
C 	C 	0.09845 0.28473 0.31782 -0.04300
C 	C 	0.19313 0.98865 0.33260 0.00900
H 	H 	0.30952 0.00071 0.33398 0.04200
C 	C 	0.10036 0.16479 0.32227 -0.04300
C 	C 	0.52525 0.91381 0.34185 -0.03100
H 	H 	0.09992 0.33609 0.32324 0.04300
H 	H 	0.11639 0.87419 0.33920 0.04200
H 	H 	0.51958 0.95147 0.35129 0.04200
C 	C 	0.49349 0.78527 0.33085 -0.03000
H 	H 	0.10299 0.12283 0.33112 0.04200
C 	C 	0.10175 0.23070 0.32947 0.01000
C 	C 	0.48616 0.83344 0.34322 -0.00600
C 	C 	0.28797 0.99475 0.34719 -0.04200
H 	H 	0.46327 0.72312 0.33177 0.04100
C 	C 	0.22991 0.99390 0.34890 0.00900
H 	H 	0.35842 0.97763 0.36074 0.04200
C 	C 	0.11195 0.24678 0.34895 0.00900
H 	H 	0.20488 0.25679 0.34892 0.04200
C 	C 	0.31582 0.98197 0.36239 -0.02900
C 	C 	0.44700 0.80055 0.35907 0.04700
H 	H 	0.02105 0.23925 0.35380 0.04100
C 	C 	0.20324 0.98770 0.36615 -0.04400
H 	H 	0.15918 0.98872 0.36767 0.04100
C 	C 	0.17084 0.26606 0.35649 -0.04200
C 	C 	0.06749 0.25636 0.35922 -0.04300
C 	C 	0.41509 0.77598 0.37260 -0.09800
C 	C 	0.28567 0.96790 0.37933 -0.01000
C 	C 	0.23114 0.97487 0.38132 -0.03000
C 	C 	0.18829 0.30447 0.37301 -0.03000
C 	C 	0.08505 0.29477 0.37574 -0.03000
H 	H 	0.23589 0.32516 0.37797 0.04000
C 	C 	0.14726 0.32449 0.38191 -0.00700
C 	C 	0.30130 0.92916 0.39324 0.05300
C 	C 	0.38272 0.75117 0.38967 0.30900
H 	H 	0.05226 0.30787 0.38282 0.04100
H 	H 	0.20794 0.96513 0.39441 0.03900
O 	O 	0.32475 0.74330 0.39130 -0.38000
C 	C 	0.17365 0.39151 0.39324 0.04700
C 	C 	0.31418 0.89672 0.40493 -0.11500
O 	O 	0.41717 0.75461 0.40389 -0.38800
O 	O 	0.23662 0.58250 0.40150 -0.38000
C 	C 	0.19504 0.44759 0.40273 -0.10000
Ni	Ni	0.25900 0.68684 0.41148 1.12100
C 	C 	0.32376 0.84909 0.41777 0.32900
C 	C 	0.22150 0.52047 0.41168 0.30500
O 	O 	0.38032 0.85532 0.41880 -0.38000
H 	H 	0.33109 0.64891 0.41839 0.16000
O 	O 	0.27418 0.78480 0.42288 -0.39900
O 	O 	0.31791 0.67759 0.42652 -0.71500
Ni	Ni	0.39632 0.77121 0.42911 1.12000
O 	O 	0.17816 0.62904 0.42680 -0.36800
O 	O 	0.21821 0.52200 0.42968 -0.37100
H 	H 	0.40079 0.48717 0.42973 0.05300
H 	H 	0.06713 0.64610 0.43565 0.08700
C 	C 	0.44767 0.53309 0.43316 -0.04600
H 	H 	0.47206 0.40814 0.43349 0.05500
C 	C 	0.46467 0.61041 0.43593 0.00800
C 	C 	0.41682 0.63543 0.43758 0.26000
O 	O 	0.43595 0.71001 0.44041 -0.36700
C 	C 	0.50757 0.46372 0.43853 -0.08200
O 	O 	0.35687 0.58148 0.44038 -0.36800
C 	C 	0.49317 0.52262 0.44171 0.01300
C 	C 	0.17599 0.63413 0.44448 0.28400
N 	N 	0.06437 0.60634 0.44543 -0.14900
C 	C 	0.56769 0.47646 0.44374 0.07700
N 	N 	0.52100 0.64726 0.44459 -0.15200
H 	H 	0.95248 0.60823 0.44721 0.05500
Ni	Ni	0.28659 0.60862 0.44625 1.11200
C 	C 	0.53734 0.59313 0.44834 0.07900
C 	C 	0.61325 0.54877 0.45008 0.01400
O 	O 	0.37107 0.79349 0.45349 -0.37300
H 	H 	0.53826 0.69965 0.45138 0.09200
N 	N 	0.57589 0.42038 0.45141 -0.15100
C 	C 	0.59898 0.60897 0.45224 -0.08200
O 	O 	0.22460 0.64617 0.45425 -0.37500
C 	C 	0.11483 0.60838 0.45360 -0.00000
H 	H 	0.53946 0.36317 0.45301 0.08800
C 	C 	0.96159 0.57632 0.45758 -0.07500
H 	H 	0.63358 0.66443 0.45756 0.05600
C 	C 	0.01413 0.56455 0.45642 0.07300
C 	C 	0.65016 0.53507 0.46208 -0.04400
C 	C 	0.62499 0.45523 0.46291 0.00400
O 	O 	0.34693 0.67786 0.46653 -0.36400
C 	C 	0.36341 0.75117 0.46793 0.27800
H 	H 	0.84774 0.57716 0.47080 0.05100
C 	C 	0.09687 0.56555 0.46958 -0.04000
H 	H 	0.67572 0.57342 0.47308 0.05700
C 	C 	0.92357 0.54880 0.47320 0.01000
C 	C 	0.03258 0.53769 0.47141 0.00300
H 	H 	0.31226 0.83335 0.48188 0.09500
C 	C 	0.88121 0.57099 0.47931 -0.04400
C 	C 	0.62574 0.41702 0.47988 0.27800
O 	O 	0.64509 0.36587 0.47997 -0.36300
C 	C 	0.37341 0.78689 0.48573 0.00300
H 	H 	0.12858 0.57106 0.48043 0.04600
N 	N 	0.34664 0.83070 0.48985 -0.15100
C 	C 	0.94249 0.52348 0.48808 0.07400
C 	C 	0.99995 0.52285 0.48799 -0.06600
H 	H 	0.35275 0.97035 0.49628 0.05500
H 	H 	0.46987 0.80723 0.48903 0.04800
C 	C 	0.43190 0.81617 0.49408 -0.04500
O 	O 	0.60782 0.43572 0.49490 -0.37100
C 	C 	0.39398 0.96391 0.49860 -0.08400
H 	H 	0.44505 0.13197 0.49859 0.05300
O 	O 	0.76009 0.48115 0.49610 -0.37900
C 	C 	0.87248 0.55252 0.49779 -0.00200
C 	C 	0.38859 0.89011 0.49981 0.07800
C 	C 	0.45487 0.02814 0.49849 0.01600
Ni	Ni	0.70404 0.36375 0.50014 1.11100
C 	C 	0.47058 0.10285 0.50289 -0.04500
C 	C 	0.50759 0.02071 0.50150 0.08300
C 	C 	0.44223 0.88258 0.50285 0.01300
H 	H 	0.01978 0.51474 0.50035 0.04700
O 	O 	0.63860 0.24721 0.50282 -0.36500
N 	N 	0.91320 0.52805 0.50311 -0.15000
O 	O 	0.55378 0.26993 0.50391 -0.36800
C 	C 	0.57761 0.22257 0.50592 0.26000
C 	C 	0.50262 0.94827 0.50422 -0.08800
C 	C 	0.80930 0.51996 0.50623 0.28200
C 	C 	0.53426 0.13880 0.50779 0.00800
N 	N 	0.55554 0.08726 0.50753 -0.15300
H 	H 	0.54440 0.94279 0.50635 0.05500
H 	H 	0.60301 0.10082 0.50789 0.09400
H 	H 	0.90844 0.49691 0.51501 0.09700
O 	O 	0.77311 0.35801 0.51650 -0.37300
Ni	Ni	0.58385 0.37093 0.51784 1.12100
O 	O 	0.66567 0.37979 0.52046 -0.71300
O 	O 	0.80352 0.50992 0.52388 -0.36800
H 	H 	0.65424 0.33208 0.52736 0.15800
O 	O 	0.69727 0.53321 0.52805 -0.39500
O 	O 	0.59038 0.46469 0.53062 -0.37800
C 	C 	0.64410 0.52899 0.53320 0.32900
C 	C 	0.76981 0.34702 0.53442 0.30500
Ni	Ni	0.71837 0.45466 0.53750 1.12100
O 	O 	0.55998 0.31603 0.54184 -0.38500
C 	C 	0.80515 0.31474 0.54266 -0.10000
O 	O 	0.74503 0.37790 0.54539 -0.38300
C 	C 	0.64668 0.57849 0.54753 -0.11500
C 	C 	0.83306 0.29088 0.55179 0.04600
C 	C 	0.59498 0.34429 0.55654 0.30600
O 	O 	0.64709 0.41376 0.55649 -0.38100
C 	C 	0.86634 0.26230 0.56269 -0.00700
H 	H 	0.95479 0.37026 0.56225 0.04100
C 	C 	0.65252 0.61720 0.56059 0.05400
C 	C 	0.13007 0.62104 0.00146 0.00200
H 	H 	0.78543 0.14813 0.56620 0.04100
C 	C 	0.92737 0.31428 0.56880 -0.02800
H 	H 	0.72803 0.77026 0.56472 0.04000
C 	C 	0.83213 0.18934 0.57101 -0.02900
C 	C 	0.56631 0.30973 0.57356 -0.09800
C 	C 	0.65814 0.66121 0.57649 -0.01100
C 	C 	0.70529 0.73911 0.57709 -0.02900
C 	C 	0.95039 0.29756 0.58452 -0.04400
C 	C 	0.85514 0.17242 0.58669 -0.04400
C 	C 	0.53841 0.27960 0.58740 0.04700
H 	H 	0.99557 0.34048 0.58988 0.04400
H 	H 	0.82645 0.11782 0.59369 0.04400
H 	H 	0.46072 0.12746 0.59264 0.04200
C 	C 	0.91272 0.22830 0.59409 0.01500
H 	H 	0.59071 0.56229 0.59220 0.04200
C 	C 	0.62803 0.62214 0.59255 -0.02900
C 	C 	0.72764 0.77464 0.59375 -0.04400
H 	H 	0.76697 0.83327 0.59413 0.04200
C 	C 	0.50460 0.24234 0.60377 -0.00600
C 	C 	0.46149 0.16278 0.60384 -0.03000
H 	H 	0.01703 0.22357 0.60571 0.03200
C 	C 	0.65033 0.65758 0.60922 -0.04300
C 	C 	0.70255 0.73247 0.60986 0.00900
C 	C 	0.92875 0.21938 0.61288 -0.00000
C 	C 	0.98551 0.21949 0.61663 -0.01900
H 	H 	0.38096 0.06895 0.61715 0.04300
C 	C 	0.41615 0.12971 0.61767 -0.04200
C 	C 	0.50592 0.28727 0.61845 -0.03000
H 	H 	0.53958 0.34866 0.61860 0.04100
H 	H 	0.81779 0.75215 0.61849 0.04300
H 	H 	0.62973 0.62513 0.62161 0.04200
H 	H 	0.84488 0.21503 0.62447 0.04200
H 	H 	0.29194 0.12589 0.62223 0.04300
C 	C 	0.88845 0.21431 0.62719 -0.03400
C 	C 	0.73651 0.76197 0.62695 0.00900
C 	C 	0.79659 0.76904 0.62921 -0.04300
C 	C 	0.41384 0.17609 0.63153 0.01000
C 	C 	0.46063 0.25428 0.63230 -0.04200
C 	C 	0.00170 0.21446 0.63455 -0.05400
C 	C 	0.29833 0.12527 0.63670 -0.04200
H 	H 	0.04547 0.21429 0.63732 0.04700
H 	H 	0.66233 0.77648 0.63950 0.04100
C 	C 	0.70897 0.78252 0.64105 -0.04300
C 	C 	0.35825 0.14590 0.64372 0.01000
H 	H 	0.20167 0.09372 0.64287 0.04100
H 	H 	0.45972 0.29039 0.64307 0.04200
C 	C 	0.90467 0.20928 0.64506 -0.03800
C 	C 	0.82977 0.79887 0.64522 -0.02900
H 	H 	0.87679 0.80593 0.64667 0.04200
C 	C 	0.24728 0.10729 0.64838 -0.02900
C 	C 	0.96131 0.20943 0.64879 0.01200
H 	H 	0.87315 0.20522 0.65599 0.04500
C 	C 	0.74226 0.81248 0.65706 -0.02900
C 	C 	0.80314 0.82180 0.65906 -0.00800
C 	C 	0.36593 0.14488 0.66247 -0.04300
C 	C 	0.25579 0.10976 0.66711 -0.00800
C 	C 	0.97691 0.20195 0.66722 0.04400
H 	H 	0.41187 0.16018 0.66801 0.04300
H 	H 	0.72141 0.83019 0.66771 0.04000
C 	C 	0.31481 0.12684 0.67414 -0.02900
C 	C 	0.84090 0.86291 0.67432 0.05100
C 	C 	0.20581 0.10118 0.67912 0.05100
C 	C 	0.98943 0.19565 0.68270 -0.08600
C 	C 	0.87178 0.89746 0.68720 -0.10500
H 	H 	0.32156 0.12832 0.68863 0.04200
C 	C 	0.16510 0.09435 0.68959 -0.10400
C 	C 	0.00323 0.18563 0.70107 0.30900
C 	C 	0.90830 0.94327 0.70206 0.32100
C 	C 	0.11919 0.08842 0.70271 0.32500
O 	O 	0.06423 0.02452 0.70367 -0.37600
O 	O 	0.91653 0.01305 0.70382 -0.38200
O 	O 	0.06053 0.19968 0.70525 -0.38300
O 	O 	0.95890 0.16436 0.71358 -0.37700
O 	O 	0.93215 0.91470 0.71374 -0.36900
H 	H 	0.43110 0.30145 0.99406 0.05400
C 	C 	0.42191 0.50153 0.99374 0.00700
C 	C 	0.12694 0.08766 0.75320 0.30900
Ni	Ni	0.01553 0.98217 0.72799 1.10700
Ni	Ni	0.08101 0.16998 0.72935 1.12200
O 	O 	0.10190 0.02745 0.74206 -0.36500
O 	O 	0.11374 0.14487 0.75204 -0.38200
O 	O 	0.13812 0.13851 0.71593 -0.38100
C 	C 	0.22618 0.11275 0.77264 0.04600
C 	C 	0.17994 0.09958 0.76400 -0.09700
H 	H 	0.34542 0.21849 0.76340 0.04200
C 	C 	0.64719 0.22762 0.96457 0.27700
C 	C 	0.55624 0.30303 0.94031 0.26000
C 	C 	0.73780 0.20741 0.91415 0.33200
C 	C 	0.63469 0.26801 0.88792 0.30500
Ni	Ni	0.62667 0.22124 0.92604 1.12100
O 	O 	0.67580 0.17668 0.91333 -0.38200
O 	O 	0.65026 0.29526 0.96624 -0.35900
O 	O 	0.66396 0.21014 0.94933 -0.38100
O 	O 	0.69709 0.29474 0.88901 -0.37900
O 	O 	0.59575 0.23189 0.90174 -0.38500
O 	O 	0.60734 0.37142 0.94274 -0.36800
O 	O 	0.55963 0.23789 0.93962 -0.36900
O 	O 	0.68357 0.32960 0.92562 -0.71600
H 	H 	0.65831 0.34708 0.91869 0.16000
C 	C 	0.36621 0.74545 0.99031 0.25900
Ni	Ni	0.28140 0.57290 0.99736 1.12000
O 	O 	0.35948 0.56501 0.99155 -0.37600
O 	O 	0.31745 0.67879 0.98462 -0.37000
C 	C 	0.02905 0.54865 0.99410 0.00500
C 	C 	0.06105 0.60625 0.98111 0.08100
C 	C 	0.04130 0.59451 0.96301 -0.09200
N 	N 	0.12223 0.65045 0.98575 -0.15200
H 	H 	0.06544 0.63953 0.95289 0.05500
H 	H 	0.15891 0.68161 0.97642 0.08800
C 	C 	0.51798 0.05829 0.98110 0.07300
C 	C 	0.45847 0.00372 0.97444 -0.07800
C 	C 	0.44848 0.92998 0.97000 0.00600
C 	C 	0.49544 0.91037 0.97271 0.08100
C 	C 	0.55524 0.96526 0.97914 -0.08800
C 	C 	0.56522 0.03899 0.98356 0.01900
N 	N 	0.54392 0.13454 0.97764 -0.15200
C 	C 	0.60761 0.16433 0.97721 -0.00000
C 	C 	0.62243 0.10642 0.98116 -0.04700
N 	N 	0.46910 0.83443 0.97664 -0.15300
C 	C 	0.40543 0.80506 0.97695 0.00800
C 	C 	0.39109 0.86283 0.97242 -0.04200
H 	H 	0.42148 0.01857 0.97252 0.05400
H 	H 	0.59228 0.95047 0.98103 0.05600
H 	H 	0.66557 0.10774 0.97663 0.05400
H 	H 	0.34801 0.86219 0.97675 0.04900
H 	H 	0.52050 0.15873 0.97065 0.09200
H 	H 	0.49217 0.81061 0.98399 0.08700
C 	C 	0.45823 0.46484 0.97137 0.07800
C 	C 	0.45591 0.44089 0.95348 -0.08300
C 	C 	0.44813 0.36700 0.95047 0.01500
C 	C 	0.44086 0.31784 0.96493 0.07600
C 	C 	0.43789 0.33992 0.98279 -0.08200
C 	C 	0.44984 0.41545 0.98571 0.01200
N 	N 	0.44164 0.51748 0.97629 -0.15200
N 	N 	0.46790 0.27468 0.96083 -0.15200
C 	C 	0.49467 0.29740 0.94420 0.00900
C 	C 	0.48102 0.35259 0.93714 -0.04700
H 	H 	0.46227 0.47947 0.94227 0.05400
H 	H 	0.51018 0.39500 0.92695 0.05000
H 	H 	0.42792 0.54695 0.96722 0.09300
H 	H 	0.48456 0.25114 0.97063 0.08800
C 	C 	0.81613 0.08084 0.87194 -0.02800
C 	C 	0.79871 0.14756 0.89713 0.05500
C 	C 	0.76815 0.17033 0.90531 -0.11100
H 	H 	0.76594 0.05090 0.86897 0.04300
C 	C 	0.54372 0.23965 0.84008 -0.00500
C 	C 	0.51790 0.16755 0.83167 -0.03000
C 	C 	0.47074 0.14702 0.81867 -0.04200
C 	C 	0.44926 0.19864 0.81398 0.01000
C 	C 	0.47858 0.27298 0.82140 -0.04200
C 	C 	0.52574 0.29342 0.83439 -0.03000
C 	C 	0.39251 0.17261 0.80266 0.01000
C 	C 	0.33345 0.11324 0.80889 -0.04200
C 	C 	0.27880 0.09236 0.79881 -0.03000
C 	C 	0.28284 0.13064 0.78247 -0.00500
C 	C 	0.34194 0.18879 0.77605 -0.03000
C 	C 	0.39661 0.20974 0.78611 -0.04200
C 	C 	0.57813 0.25211 0.85666 0.04600
C 	C 	0.60686 0.26159 0.87052 -0.09600
H 	H 	0.53187 0.12583 0.83588 0.04300
H 	H 	0.44922 0.09000 0.81278 0.04300
H 	H 	0.46285 0.31360 0.81771 0.04200
H 	H 	0.54573 0.34947 0.84073 0.04000
H 	H 	0.32975 0.08440 0.82168 0.04300
H 	H 	0.23331 0.04730 0.80385 0.04100
H 	H 	0.44196 0.25541 0.78116 0.04200
Ni	Ni	0.69636 0.38523 0.94712 1.11300
H 	H 	0.84229 0.05915 0.84573 0.04300
O 	O 	0.77293 0.27955 0.91865 -0.39700
C 	C 	0.83803 0.12315 0.88788 -0.00900
C 	C 	0.85942 0.08525 0.85878 -0.04300
Ni	Ni	0.75352 0.36036 0.90966 1.12100
O 	O 	0.74210 0.45075 0.90270 -0.38100
H 	H 	0.65632 0.63936 0.88357 0.04000
H 	H 	0.67227 0.72036 0.85650 0.04100
O 	O 	0.74333 0.49056 0.93232 -0.36500
C 	C 	0.73860 0.49848 0.91452 0.30300
O 	O 	0.78103 0.38935 0.95358 -0.36800
H 	H 	0.73686 0.69793 0.82765 0.04300
C 	C 	0.70375 0.68423 0.87988 -0.03000
C 	C 	0.90289 0.15949 0.89182 -0.02800
C 	C 	0.92482 0.13066 0.86171 0.01000
C 	C 	0.71282 0.72967 0.86442 -0.04300
C 	C 	0.74424 0.56900 0.90745 -0.09800
H 	H 	0.77039 0.74548 0.79641 0.04200
H 	H 	0.92016 0.19059 0.90435 0.04200
O 	O 	0.82447 0.43645 0.92581 -0.37200
C 	C 	0.96880 0.15647 0.84613 0.01100
C 	C 	0.94631 0.16365 0.87871 -0.04300
H 	H 	0.98551 0.27378 0.84650 0.04300
C 	C 	0.76512 0.75952 0.82507 -0.04200
C 	C 	0.74992 0.62454 0.89916 0.04600
C 	C 	0.83041 0.42043 0.94271 0.28100
H 	H 	0.96286 0.04565 0.84202 0.04400
C 	C 	0.78421 0.78645 0.80736 -0.03000
C 	C 	0.99055 0.23083 0.83883 -0.03700
C 	C 	0.75622 0.69061 0.88924 -0.00600
C 	C 	0.97770 0.10244 0.83631 -0.04800
C 	C 	0.77448 0.78205 0.85835 0.00900
H 	H 	0.86386 0.38005 0.97484 0.09600
H 	H 	0.99668 0.19735 0.88126 0.04300
C 	C 	0.78543 0.81164 0.83951 0.00900
C 	C 	0.01214 0.24699 0.82092 -0.03200
C 	C 	0.99956 0.11880 0.81842 -0.01400
H 	H 	0.02350 0.30221 0.81488 0.04000
C 	C 	0.89340 0.44158 0.94983 0.00500
C 	C 	0.01215 0.18897 0.81029 -0.01800
H 	H 	0.00113 0.07429 0.81042 0.03500
C 	C 	0.82357 0.86558 0.80393 -0.00500
C 	C 	0.81704 0.75070 0.88471 -0.03000
C 	C 	0.85248 0.89171 0.78631 0.04500
N 	N 	0.90100 0.41492 0.96596 -0.15000
O 	O 	0.93747 0.12629 0.75032 -0.38100
O 	O 	0.88214 0.96228 0.74158 -0.37600
C 	C 	0.82628 0.79599 0.86922 -0.04100
C 	C 	0.00855 0.19309 0.79097 0.05900
C 	C 	0.87677 0.91377 0.77158 -0.09800
Ni	Ni	0.92873 0.06586 0.72788 1.12400
C 	C 	0.00467 0.19206 0.77475 -0.11800
C 	C 	0.82217 0.89124 0.83593 -0.04400
H 	H 	0.85782 0.75757 0.89216 0.04200
C 	C 	0.84073 0.91813 0.81817 -0.03300
C 	C 	0.99342 0.18164 0.75574 0.32200
C 	C 	0.90853 0.94049 0.75440 0.30000
C 	C 	0.94878 0.50813 0.94459 -0.04700
H 	H 	0.95025 0.55271 0.93576 0.05400
H 	H 	0.87403 0.83778 0.86495 0.04100
H 	H 	0.83819 0.93188 0.84694 0.03900
C 	C 	0.96062 0.46366 0.97116 0.07500
H 	H 	0.95420 0.43119 0.99944 0.05500
O 	O 	0.04060 0.22087 0.74403 -0.38300
H 	H 	0.87009 0.97952 0.81556 0.03900
C 	C 	0.97849 0.47632 0.98935 -0.07400
C 	C 	0.99174 0.52150 0.95824 0.02100
H 	H 	0.00641 0.06803 0.74530 0.14700
O 	O 	0.95908 0.93307 0.75092 -0.36700
O 	O 	0.00802 0.07045 0.73202 -0.71500
