data_crystal

_cell_length_a 20.65903
_cell_length_b 21.34039
_cell_length_c 39.38166
_cell_angle_alpha 60.64886
_cell_angle_beta  119.04278
_cell_angle_gamma 133.36698

_symmetry_space_group_name_	'P 1'
_symmetry_space_group_name_H-M	'P 1'

loop_
_symmetry_equiv_pos_as_xyz
  x,y,z

loop_
_atom_site_label
_atom_site_type_symbol
_atom_site_fract_x
_atom_site_fract_y
_atom_site_fract_z
_atom_site_charge
H 	H 	0.14902 0.58081 0.11176 0.05300
H 	H 	0.16809 0.52467 0.66145 0.05000
Co	Co	0.03206 0.02275 0.03015 1.16300
Co	Co	0.08873 0.91740 0.02646 1.16700
C 	C 	0.20564 0.11186 0.01361 0.30200
O 	O 	0.01182 0.10721 0.02618 -0.48600
C 	C 	0.04037 0.20249 0.11133 0.27500
C 	C 	0.19404 0.90143 0.10919 0.29600
O 	O 	0.02657 0.94669 0.19924 -0.38700
O 	O 	0.20238 0.95348 0.07311 -0.38400
O 	O 	0.14647 0.89034 0.12788 -0.36900
O 	O 	0.06426 0.17576 0.09810 -0.40200
O 	O 	0.03759 0.93486 0.05338 -0.75200
O 	O 	0.15368 0.04953 0.99466 -0.42200
O 	O 	0.17075 0.11150 0.03417 -0.40600
Co	Co	0.01179 0.08698 0.57323 1.16800
Co	Co	0.08556 0.02268 0.54692 1.16900
Co	Co	0.09681 0.87594 0.54875 1.16700
O 	O 	0.08635 0.12552 0.53837 -0.47000
C 	C 	0.08495 0.22784 0.60707 0.27500
C 	C 	0.11718 0.78746 0.63501 0.30100
O 	O 	0.07885 0.77212 0.59964 -0.41400
O 	O 	0.10635 0.83345 0.64256 -0.38300
O 	O 	0.10934 0.18889 0.60303 -0.38700
O 	O 	0.05240 0.91681 0.56612 -0.75900
O 	O 	0.22782 0.96354 0.57671 -0.36400
O 	O 	0.22509 0.07718 0.56803 -0.38800
C 	C 	0.06687 0.04966 0.79986 -0.05600
C 	C 	0.13192 0.12247 0.81740 -0.02400
C 	C 	0.11831 0.12159 0.84932 -0.04900
C 	C 	0.03951 0.04782 0.86428 -0.01700
C 	C 	0.02755 0.04496 0.89759 -0.09600
C 	C 	0.07867 0.05182 0.76678 -0.02400
H 	H 	0.19298 0.18007 0.80624 0.04000
H 	H 	0.16950 0.17813 0.86255 0.04500
H 	H 	0.08002 0.09976 0.91198 0.05800
H 	H 	0.13782 0.11049 0.75456 0.04900
C 	C 	0.04287 0.98393 0.32704 -0.02000
C 	C 	0.11082 0.07113 0.37331 -0.03800
C 	C 	0.18343 0.14090 0.35395 -0.02200
C 	C 	0.18630 0.13228 0.32167 -0.04700
C 	C 	0.11615 0.05409 0.30796 0.00700
C 	C 	0.11622 0.04714 0.27411 -0.04600
C 	C 	0.11019 0.07780 0.40709 0.02600
H 	H 	0.23819 0.20168 0.36406 0.04100
H 	H 	0.24276 0.18688 0.30711 0.04900
H 	H 	0.17071 0.10279 0.25847 0.05200
H 	H 	0.16640 0.13702 0.41826 0.03600
C 	C 	0.15326 0.31129 0.62045 -0.07400
C 	C 	0.14797 0.38330 0.59633 0.00300
C 	C 	0.22592 0.37004 0.67847 -0.05800
C 	C 	0.19877 0.30888 0.66116 0.01700
H 	H 	0.25952 0.36661 0.71006 0.05000
C 	C 	0.22330 0.24779 0.68463 0.07800
N 	N 	0.24345 0.19916 0.70326 -0.11500
C 	C 	0.19777 0.64490 0.69371 -0.05400
C 	C 	0.15951 0.68532 0.68819 0.02000
C 	C 	0.18723 0.77004 0.66175 -0.07400
H 	H 	0.17512 0.57920 0.71359 0.05000
C 	C 	0.09520 0.64133 0.71105 0.07600
N 	N 	0.04396 0.60615 0.72960 -0.10900
C 	C 	0.14074 0.39783 0.14433 -0.05500
C 	C 	0.10901 0.31334 0.14675 0.02000
C 	C 	0.09999 0.29568 0.11380 -0.07800
H 	H 	0.14945 0.41103 0.17013 0.05200
C 	C 	0.08595 0.24517 0.18341 0.06300
C 	C 	0.20787 0.70874 0.15065 -0.05500
C 	C 	0.19062 0.76357 0.14937 0.02200
C 	C 	0.23681 0.85376 0.12771 -0.07500
H 	H 	0.17274 0.63976 0.16747 0.05100
C 	C 	0.13221 0.72899 0.17320 0.07700
N 	N 	0.04132 0.34160 0.49830 -0.13600
C 	C 	0.21992 0.60576 0.11965 -0.06800
C 	C 	0.24156 0.55895 0.66957 -0.06600
O 	O 	0.00928 0.07018 0.67932 -0.42600
C 	C 	0.06594 0.99568 0.47255 0.37600
O 	O 	0.12306 0.97520 0.49638 -0.41300
O 	O 	0.03785 0.01665 0.48670 -0.42100
C 	C 	0.04034 0.99237 0.35989 0.02300
C 	C 	0.04245 0.00469 0.42896 -0.18100
C 	C 	0.17940 0.44736 0.61298 -0.03800
C 	C 	0.21865 0.44116 0.65447 0.01000
H 	H 	0.11503 0.38706 0.56486 0.04200
C 	C 	0.17083 0.46787 0.11075 0.01400
C 	C 	0.12461 0.36460 0.07904 0.00400
H 	H 	0.11384 0.35099 0.05288 0.03700
C 	C 	0.04068 0.97326 0.25750 -0.05500
Co	Co	0.01927 0.87260 0.09999 1.17400
O 	O 	0.03176 0.78627 0.05868 -0.43500
C 	C 	0.17323 0.52065 0.58695 0.08200
C 	C 	0.15833 0.44989 0.07712 -0.03900
N 	N 	0.08599 0.70165 0.19255 -0.10700
C 	C 	0.01903 0.98622 0.21360 0.31200
N 	N 	0.16830 0.57935 0.56611 -0.11900
O 	O 	0.00988 0.95137 0.69413 -0.38800
O 	O 	0.00663 0.04816 0.18961 -0.42600
C 	C 	0.24187 0.55910 0.11665 0.03300
C 	C 	0.00594 0.99936 0.70488 0.31500
C 	C 	0.01063 0.98153 0.74740 -0.07600
C 	C 	0.18160 0.51923 0.04077 0.08500
N 	N 	0.20032 0.57488 0.01166 -0.11400
N 	N 	0.06773 0.19156 0.21304 -0.11800
Co	Co	0.00016 0.84803 0.60428 1.17300
C 	C 	0.26462 0.04888 0.56675 0.26100
C 	C 	0.26467 0.68916 0.67332 0.01400
C 	C 	0.26621 0.81986 0.64844 0.00100
N 	N 	0.27446 0.22647 0.47637 -0.11400
O 	O 	0.99833 0.19132 0.59998 -0.38100
Co	Co	0.96712 0.06412 0.07443 1.17900
O 	O 	0.96986 0.00358 0.97076 -0.37500
O 	O 	0.95684 0.15219 0.11540 -0.38800
C 	C 	0.29853 0.77784 0.65017 -0.03400
H 	H 	0.29528 0.88854 0.63213 0.05300
C 	C 	0.30902 0.89012 0.11294 0.00600
H 	H 	0.34897 0.96058 0.09849 0.05100
H 	H 	0.29296 0.20632 0.95497 0.03400
C 	C 	0.69100 0.26259 0.03066 0.03500
C 	C 	0.75059 0.35627 0.02444 -0.06600
C 	C 	0.72702 0.39953 0.02877 0.03200
C 	C 	0.63796 0.35399 0.03042 -0.07000
C 	C 	0.57521 0.26337 0.03245 0.03300
C 	C 	0.60300 0.21627 0.03538 -0.07200
H 	H 	0.81449 0.39507 0.01651 0.06200
H 	H 	0.61782 0.38898 0.03088 0.05800
H 	H 	0.55624 0.14445 0.04102 0.04900
C 	C 	0.72700 0.28329 0.51537 0.03200
C 	C 	0.64625 0.22184 0.52966 -0.06600
C 	C 	0.61324 0.25223 0.53717 0.03400
C 	C 	0.66605 0.34133 0.53612 -0.07100
C 	C 	0.74943 0.40214 0.52536 0.03400
C 	C 	0.77838 0.37471 0.51293 -0.06700
H 	H 	0.60967 0.15100 0.53517 0.05600
H 	H 	0.64207 0.36368 0.54385 0.05900
H 	H 	0.83929 0.42387 0.50127 0.05900
C 	C 	0.29076 0.68527 0.13279 0.03100
C 	C 	0.33332 0.59328 0.12537 -0.06700
C 	C 	0.40305 0.66990 0.13944 0.03300
C 	C 	0.38186 0.71349 0.14510 -0.06300
H 	H 	0.35021 0.55821 0.12243 0.05800
H 	H 	0.43646 0.77181 0.15711 0.06100
C 	C 	0.30154 0.64381 0.67755 0.03100
C 	C 	0.27772 0.52107 0.67009 0.03000
C 	C 	0.37240 0.56664 0.67963 -0.06800
C 	C 	0.43118 0.65337 0.68353 0.03300
C 	C 	0.39697 0.68876 0.68630 -0.06500
H 	H 	0.40002 0.53900 0.67872 0.05900
H 	H 	0.44409 0.75349 0.69268 0.06200
Co	Co	0.94883 0.91073 0.14348 1.19200
C 	C 	0.94968 0.73332 0.06497 0.33600
Co	Co	0.89032 0.01959 0.14461 1.15700
O 	O 	0.93507 0.99412 0.11807 -0.71800
O 	O 	0.98181 0.83415 0.14979 -0.43100
O 	O 	0.96472 0.95050 0.08156 -0.54700
C 	C 	0.77434 0.82283 0.16140 0.30600
C 	C 	0.96038 0.94945 0.95771 0.30400
O 	O 	0.82257 0.88859 0.17757 -0.39300
O 	O 	0.81380 0.81380 0.14772 -0.37700
O 	O 	0.96982 0.88593 0.98304 -0.37300
C 	C 	0.79711 0.04954 0.05937 0.24500
O 	O 	0.78136 0.99469 0.09483 -0.34000
O 	O 	0.84840 0.06023 0.04317 -0.36800
O 	O 	0.92835 0.75391 0.08285 -0.37200
Co	Co	0.94468 0.92062 0.63740 1.19800
C 	C 	0.90369 0.72802 0.54778 0.29200
Co	Co	0.91056 0.05949 0.62662 1.16800
O 	O 	0.95473 0.01697 0.60996 -0.76200
O 	O 	0.94930 0.81994 0.64718 -0.43600
O 	O 	0.98570 0.95857 0.58259 -0.53900
C 	C 	0.76947 0.86178 0.64357 0.30900
O 	O 	0.82066 0.93245 0.65673 -0.38600
O 	O 	0.80478 0.84584 0.63106 -0.37300
C 	C 	0.84920 0.09992 0.53834 0.29000
O 	O 	0.81924 0.04427 0.57137 -0.39200
O 	O 	0.91460 0.11263 0.53085 -0.36000
O 	O 	0.96039 0.79562 0.52423 -0.37200
O 	O 	0.90008 0.73841 0.57780 -0.35100
C 	C 	0.84317 0.82846 0.81205 -0.02000
C 	C 	0.83005 0.82711 0.84432 -0.04300
C 	C 	0.89520 0.89987 0.86193 0.03000
C 	C 	0.97385 0.97453 0.84685 0.02900
C 	C 	0.98772 0.97540 0.81462 0.06800
C 	C 	0.92187 0.90235 0.79702 -0.00800
C 	C 	0.95242 0.96792 0.91464 0.01600
C 	C 	0.88435 0.89717 0.89551 -0.03700
C 	C 	0.93397 0.90536 0.76367 0.02900
H 	H 	0.79198 0.77197 0.79880 0.04800
H 	H 	0.76933 0.76922 0.85567 0.05500
H 	H 	0.82630 0.83768 0.90842 0.05600
H 	H 	0.88119 0.85117 0.74892 0.03900
C 	C 	0.89779 0.84341 0.36576 -0.01900
C 	C 	0.89915 0.83588 0.33261 -0.04700
C 	C 	0.97140 0.90598 0.31301 0.05500
C 	C 	0.96810 0.92156 0.37955 0.00900
C 	C 	0.97089 0.90063 0.27842 0.00000
C 	C 	0.96904 0.92821 0.41385 0.07800
H 	H 	0.84204 0.78828 0.38069 0.04600
H 	H 	0.84382 0.77554 0.32218 0.05300
H 	H 	0.91279 0.84323 0.26605 0.04800
H 	H 	0.91664 0.87154 0.43048 0.03100
C 	C 	0.52144 0.71237 0.67445 0.01900
C 	C 	0.52773 0.75782 0.63442 -0.05400
C 	C 	0.60397 0.79567 0.62241 0.02700
C 	C 	0.67731 0.79224 0.65093 -0.08200
C 	C 	0.66924 0.74333 0.69057 0.01600
C 	C 	0.59287 0.70519 0.70264 -0.04000
H 	H 	0.47112 0.76013 0.61225 0.06300
H 	H 	0.72538 0.74014 0.71263 0.03800
C 	C 	0.58873 0.65968 0.74413 0.08800
C 	C 	0.60708 0.83907 0.58073 0.08300
N 	N 	0.58539 0.62323 0.77738 -0.11400
N 	N 	0.60946 0.87372 0.54733 -0.09500
C 	C 	0.35922 0.82324 0.62501 0.08800
N 	N 	0.40780 0.85979 0.60482 -0.11000
C 	C 	0.49877 0.70730 0.14565 0.01800
C 	C 	0.53155 0.74154 0.11224 -0.05600
C 	C 	0.61799 0.76702 0.11730 0.03000
C 	C 	0.67483 0.76337 0.15608 -0.08800
C 	C 	0.63963 0.72349 0.18953 0.01600
C 	C 	0.55216 0.69583 0.18453 -0.04100
H 	H 	0.48881 0.74672 0.08229 0.06400
H 	H 	0.68264 0.71897 0.21948 0.04100
C 	C 	0.51785 0.65617 0.21941 0.09000
C 	C 	0.64884 0.79894 0.08248 0.08600
N 	N 	0.49032 0.62440 0.24734 -0.11400
N 	N 	0.67353 0.82451 0.05458 -0.10300
C 	C 	0.27120 0.74324 0.13061 0.01400
C 	C 	0.32096 0.83483 0.11108 -0.03700
C 	C 	0.37921 0.87145 0.08652 0.08700
N 	N 	0.42586 0.90085 0.06687 -0.11100
C 	C 	0.75924 0.25084 0.50482 0.01300
C 	C 	0.85368 0.29287 0.51232 -0.04900
C 	C 	0.88245 0.24968 0.51200 0.01000
C 	C 	0.81963 0.15884 0.51265 -0.07300
C 	C 	0.72588 0.12159 0.49946 0.00600
C 	C 	0.69625 0.17070 0.49222 -0.03800
H 	H 	0.90435 0.35795 0.51849 0.05400
H 	H 	0.67632 0.05448 0.49544 0.04200
C 	C 	0.60507 0.14387 0.46841 0.08600
C 	C 	0.97093 0.30090 0.50471 0.11900
N 	N 	0.53201 0.12238 0.44932 -0.11800
C 	C 	0.80718 0.49353 0.52926 0.01500
C 	C 	0.84604 0.50601 0.56814 -0.05400
C 	C 	0.86186 0.57404 0.57542 0.02500
C 	C 	0.85108 0.63834 0.54304 -0.07600
C 	C 	0.81508 0.62757 0.50394 0.00900
C 	C 	0.79536 0.55711 0.49687 -0.03700
H 	H 	0.85428 0.45666 0.59326 0.05700
H 	H 	0.80701 0.67696 0.47876 0.04400
C 	C 	0.76083 0.54921 0.45626 0.08900
C 	C 	0.88284 0.57366 0.61617 0.08800
N 	N 	0.73318 0.54289 0.42373 -0.11400
N 	N 	0.89893 0.57298 0.64882 -0.09700
C 	C 	0.52059 0.19248 0.54375 0.01300
C 	C 	0.45653 0.21004 0.51547 -0.05600
C 	C 	0.37859 0.17399 0.52538 0.01800
C 	C 	0.35918 0.11256 0.56239 -0.07500
C 	C 	0.42381 0.09607 0.59098 0.00600
C 	C 	0.50369 0.13478 0.58171 -0.04000
H 	H 	0.47071 0.25660 0.48666 0.05400
H 	H 	0.41015 0.05044 0.61997 0.03400
C 	C 	0.56828 0.11542 0.61140 0.08400
C 	C 	0.32063 0.20291 0.49808 0.07000
N 	N 	0.61999 0.09987 0.63517 -0.12100
C 	C 	0.77082 0.11083 0.04093 -0.05400
C 	C 	0.83749 0.19824 0.04518 -0.00800
C 	C 	0.81282 0.24229 0.04772 -0.02700
C 	C 	0.72020 0.21266 0.03240 0.00300
C 	C 	0.65427 0.13291 0.01945 -0.03600
C 	C 	0.67815 0.07877 0.02672 -0.03200
H 	H 	0.90899 0.22907 0.04988 0.05400
H 	H 	0.58444 0.11198 0.00469 0.04000
C 	C 	0.60760 0.99159 0.01884 0.13700
C 	C 	0.87838 0.30563 0.07223 0.08700
N 	N 	0.55102 0.92170 0.01255 -0.11200
N 	N 	0.93096 0.35624 0.09192 -0.11000
C 	C 	0.79764 0.48717 0.03808 0.02100
C 	C 	0.82496 0.49043 0.07785 -0.05800
C 	C 	0.86451 0.56818 0.08649 0.03300
C 	C 	0.88496 0.64630 0.05556 -0.08800
C 	C 	0.86097 0.64401 0.01594 0.00800
C 	C 	0.81745 0.56505 0.00708 -0.04700
H 	H 	0.80855 0.43017 0.10172 0.05700
H 	H 	0.87802 0.70437 0.99210 0.04900
C 	C 	0.79206 0.56412 0.96600 0.10400
C 	C 	0.87872 0.56563 0.12671 0.08200
N 	N 	0.77169 0.56337 0.93308 -0.11100
N 	N 	0.88928 0.56294 0.15893 -0.09400
C 	C 	0.30506 0.16870 0.01840 -0.10200
C 	C 	0.33721 0.20343 0.98472 0.02000
C 	C 	0.42225 0.22676 0.98926 -0.03400
C 	C 	0.47867 0.22024 0.02787 0.00300
C 	C 	0.44935 0.19114 0.06150 -0.06200
C 	C 	0.36385 0.16720 0.05697 0.02800
H 	H 	0.49446 0.18985 0.09111 0.05000
C 	C 	0.33717 0.14133 0.09201 0.07400
C 	C 	0.45145 0.25747 0.95410 0.08800
N 	N 	0.31591 0.12062 0.12012 -0.12100
N 	N 	0.47493 0.28209 0.92598 -0.11200
