data_crystal

_cell_length_a 33.65518
_cell_length_b 33.97919
_cell_length_c 26.60118
_cell_angle_alpha 95.56724
_cell_angle_beta  95.56497
_cell_angle_gamma 125.48088

_symmetry_space_group_name_	'P 1'
_symmetry_space_group_name_H-M	'P 1'

loop_
_symmetry_equiv_pos_as_xyz
  x,y,z

loop_
_atom_site_label
_atom_site_type_symbol
_atom_site_fract_x
_atom_site_fract_y
_atom_site_fract_z
_atom_site_charge
N 	N 	0.02305 0.04721 0.99606 -0.13900
C 	C 	0.04551 0.02467 0.99138 0.11700
N 	N 	0.01904 0.97550 0.99006 -0.13500
N 	N 	0.00972 0.03653 0.42678 -0.13800
C 	C 	0.03130 0.01329 0.43271 0.11600
N 	N 	0.00335 0.96551 0.43811 -0.13600
C 	C 	0.48150 0.23169 0.49545 0.01700
C 	C 	0.43051 0.20567 0.49478 -0.06100
C 	C 	0.39711 0.18701 0.44785 0.02800
C 	C 	0.41496 0.19321 0.40156 -0.06200
C 	C 	0.46591 0.21944 0.40223 0.01500
C 	C 	0.34374 0.16269 0.44722 0.00200
C 	C 	0.31589 0.11968 0.46758 -0.03600
C 	C 	0.26508 0.09609 0.46586 -0.03900
C 	C 	0.24167 0.11518 0.44355 0.00600
C 	C 	0.26963 0.15842 0.42360 -0.03900
C 	C 	0.32046 0.18216 0.42558 -0.03600
C 	C 	0.18772 0.08937 0.44015 0.01400
C 	C 	0.16977 0.11340 0.46369 -0.04700
C 	C 	0.11865 0.08888 0.46054 -0.01900
C 	C 	0.08504 0.03999 0.43404 -0.01900
C 	C 	0.10304 0.01613 0.41019 -0.02200
C 	C 	0.15411 0.04074 0.41314 -0.04600
H 	H 	0.41708 0.20099 0.53073 0.05300
H 	H 	0.38940 0.17833 0.36511 0.05000
H 	H 	0.47934 0.22473 0.36628 0.03500
H 	H 	0.33351 0.10436 0.48432 0.04300
H 	H 	0.24387 0.06289 0.48165 0.04200
H 	H 	0.25188 0.17338 0.40619 0.04200
H 	H 	0.34173 0.21555 0.41011 0.04200
H 	H 	0.19543 0.15091 0.48474 0.04400
H 	H 	0.10525 0.10758 0.47942 0.04100
H 	H 	0.07746 0.97858 0.38921 0.04500
H 	H 	0.16758 0.02206 0.39437 0.04400
H 	H 	0.00252 0.90142 0.03843 0.04500
C 	C 	0.47613 0.23656 0.92823 0.01200
C 	C 	0.42566 0.21581 0.92438 -0.06100
C 	C 	0.39646 0.17856 0.95164 0.02400
C 	C 	0.41766 0.16098 0.98135 -0.05200
C 	C 	0.46811 0.18174 0.98536 0.02200
C 	C 	0.34442 0.15969 0.95131 0.00400
C 	C 	0.33354 0.19049 0.97443 -0.03600
C 	C 	0.28475 0.17124 0.97943 -0.03600
C 	C 	0.24651 0.12107 0.96137 0.00400
C 	C 	0.25708 0.09073 0.93635 -0.03600
C 	C 	0.30584 0.10996 0.93138 -0.03700
C 	C 	0.19632 0.09948 0.97217 0.02400
C 	C 	0.16674 0.11162 0.94832 -0.04900
C 	C 	0.11797 0.08865 0.95619 -0.01900
C 	C 	0.09846 0.05329 0.98788 -0.01200
C 	C 	0.12879 0.04259 0.01317 -0.02600
C 	C 	0.17745 0.06556 0.00533 -0.05700
H 	H 	0.40943 0.22919 0.90086 0.05000
H 	H 	0.39531 0.13210 0.00241 0.04400
H 	H 	0.48426 0.16878 0.00968 0.04500
H 	H 	0.36309 0.22896 0.98985 0.04400
H 	H 	0.27690 0.19495 0.99866 0.04300
H 	H 	0.22768 0.05204 0.92186 0.04300
H 	H 	0.31384 0.08602 0.91308 0.04300
H 	H 	0.18116 0.13803 0.92291 0.04500
H 	H 	0.09494 0.09722 0.93646 0.04200
H 	H 	0.11440 0.01594 0.03833 0.04000
H 	H 	0.20032 0.05654 0.02450 0.04400
C 	C 	0.97414 0.02057 0.99939 0.12400
C 	C 	0.97026 0.94873 0.99332 0.11500
N 	N 	0.94781 0.97127 0.99783 -0.13800
C 	C 	0.96024 0.01202 0.42602 0.11200
C 	C 	0.95394 0.94081 0.43755 0.11600
N 	N 	0.93230 0.96403 0.43126 -0.13800
Cu	Cu	0.64450 0.25546 0.99313 0.93300
Cu	Cu	0.68174 0.24998 0.88474 0.88500
Cu	Cu	0.67674 0.33290 0.92466 0.90300
Cu	Cu	0.64410 0.34696 0.02233 0.89500
C 	C 	0.65824 0.29561 0.09891 0.33100
O 	O 	0.57177 0.22637 0.98989 -0.34900
C 	C 	0.66715 0.29859 0.81365 0.32600
O 	O 	0.68478 0.33185 0.99658 -0.62900
O 	O 	0.63975 0.25990 0.91939 -0.63800
O 	O 	0.67407 0.21881 0.99344 -0.35900
O 	O 	0.72856 0.26455 0.94291 -0.42400
O 	O 	0.63550 0.31479 0.08354 -0.37400
O 	O 	0.71451 0.40387 0.93602 -0.36700
C 	C 	0.70704 0.43024 0.96812 0.29300
C 	C 	0.55232 0.24654 0.96912 0.28400
O 	O 	0.58157 0.29202 0.96196 -0.38200
O 	O 	0.67170 0.40943 0.99585 -0.38200
O 	O 	0.65944 0.26438 0.06651 -0.34800
C 	C 	0.71537 0.23507 0.97626 0.28600
O 	O 	0.68215 0.33564 0.85117 -0.36200
O 	O 	0.65248 0.25535 0.82353 -0.39600
H 	H 	0.71977 0.35289 0.01497 0.17100
H 	H 	0.60537 0.24085 0.89967 0.17900
Cu	Cu	0.73216 0.34740 0.42416 0.93000
Cu	Cu	0.74605 0.32039 0.53694 0.88700
Cu	Cu	0.65534 0.31377 0.49481 0.90200
Cu	Cu	0.63348 0.33691 0.39349 0.90000
C 	C 	0.68813 0.32645 0.31779 0.33000
O 	O 	0.75499 0.41725 0.42253 -0.34900
C 	C 	0.69408 0.33076 0.60654 0.32600
O 	O 	0.65515 0.30269 0.42271 -0.63700
O 	O 	0.72926 0.35542 0.49829 -0.63700
O 	O 	0.77400 0.32302 0.42613 -0.36100
O 	O 	0.73311 0.27265 0.48173 -0.42400
O 	O 	0.66542 0.34580 0.33185 -0.37100
O 	O 	0.58347 0.27120 0.48530 -0.36800
C 	C 	0.55332 0.27162 0.44992 0.29100
C 	C 	0.73176 0.43397 0.44181 0.28200
O 	O 	0.68684 0.40278 0.45069 -0.38300
O 	O 	0.57049 0.30563 0.42088 -0.38400
O 	O 	0.72173 0.32889 0.35102 -0.34500
C 	C 	0.76234 0.28542 0.44794 0.29000
O 	O 	0.65526 0.31254 0.56943 -0.36200
O 	O 	0.73847 0.34974 0.59597 -0.39600
H 	H 	0.63608 0.26756 0.40645 0.17800
H 	H 	0.74626 0.38989 0.51572 0.17800
C 	C 	0.70206 0.29589 0.73582 0.10500
C 	C 	0.67452 0.30798 0.76104 -0.11200
C 	C 	0.65353 0.32816 0.73543 0.10400
C 	C 	0.66161 0.33760 0.68552 0.10400
C 	C 	0.68607 0.32203 0.65921 -0.11300
C 	C 	0.70359 0.29846 0.68370 0.10500
Br	Br	0.72507 0.26530 0.64479 -0.26300
Br	Br	0.74162 0.28034 0.77371 -0.25400
Br	Br	0.64127 0.37371 0.65441 -0.20300
Br	Br	0.61182 0.34057 0.76743 -0.20500
C 	C 	0.71508 0.34109 0.18370 0.09900
C 	C 	0.67041 0.29878 0.15443 -0.11000
C 	C 	0.63512 0.26217 0.17914 0.10600
C 	C 	0.64301 0.26959 0.23320 0.09800
C 	C 	0.68556 0.31397 0.26249 -0.10900
C 	C 	0.72248 0.34900 0.23776 0.10500
Br	Br	0.78195 0.40889 0.27792 -0.19500
Br	Br	0.76559 0.38856 0.14952 -0.23500
Br	Br	0.59517 0.21947 0.26738 -0.23300
Br	Br	0.57505 0.20293 0.13889 -0.20000
C 	C 	0.75395 0.48712 0.44848 -0.08000
C 	C 	0.80252 0.52101 0.44027 0.01500
C 	C 	0.82175 0.57044 0.44214 -0.06100
C 	C 	0.79273 0.58655 0.45227 0.02700
C 	C 	0.74484 0.55316 0.46197 -0.06200
C 	C 	0.72558 0.50377 0.46026 0.01200
C 	C 	0.81199 0.63811 0.45139 0.00200
C 	C 	0.82448 0.65704 0.40619 -0.03600
C 	C 	0.84338 0.70603 0.40550 -0.03900
C 	C 	0.84980 0.73650 0.44996 0.00600
C 	C 	0.83642 0.71731 0.49490 -0.03900
C 	C 	0.81768 0.66835 0.49563 -0.03600
C 	C 	0.87379 0.78931 0.45049 0.01500
C 	C 	0.85242 0.80403 0.41633 -0.04800
C 	C 	0.87756 0.85386 0.41361 -0.01900
C 	C 	0.92432 0.88931 0.44493 -0.02000
C 	C 	0.94466 0.87467 0.48053 -0.01900
C 	C 	0.91957 0.82495 0.48321 -0.04800
H 	H 	0.82520 0.50905 0.43186 0.04600
H 	H 	0.85904 0.59611 0.43526 0.05100
H 	H 	0.72222 0.56528 0.47000 0.04900
H 	H 	0.68824 0.47834 0.46708 0.03800
H 	H 	0.81977 0.63386 0.37169 0.04400
H 	H 	0.85382 0.72055 0.37071 0.04200
H 	H 	0.84113 0.74049 0.52938 0.04200
H 	H 	0.80804 0.65405 0.53068 0.04200
H 	H 	0.81685 0.77683 0.39124 0.04400
H 	H 	0.86143 0.86468 0.38604 0.04000
H 	H 	0.98037 0.90174 0.50544 0.04200
H 	H 	0.93630 0.81399 0.50983 0.04400
C 	C 	0.93742 0.03806 0.42143 -0.01900
C 	C 	0.96334 0.08706 0.44694 -0.02000
C 	C 	0.94246 0.11230 0.44168 -0.04700
C 	C 	0.89554 0.08896 0.41067 0.01400
C 	C 	0.86955 0.03997 0.38513 -0.04700
C 	C 	0.89034 0.01457 0.39060 -0.02300
C 	C 	0.87293 0.11533 0.40657 0.00600
C 	C 	0.82789 0.09717 0.42315 -0.03900
C 	C 	0.80941 0.12491 0.42500 -0.03600
C 	C 	0.83598 0.17124 0.41065 0.00100
C 	C 	0.87983 0.18841 0.39184 -0.03600
C 	C 	0.89817 0.16051 0.38967 -0.03900
C 	C 	0.82052 0.20363 0.42021 0.02900
C 	C 	0.81910 0.21875 0.47055 -0.06400
C 	C 	0.80170 0.24690 0.47964 0.01700
C 	C 	0.78573 0.26049 0.43852 -0.08800
C 	C 	0.78888 0.24700 0.38829 0.02000
C 	C 	0.80612 0.21852 0.37914 -0.06300
H 	H 	0.99949 0.10546 0.47119 0.04000
H 	H 	0.96255 0.14987 0.46209 0.04300
H 	H 	0.83333 0.02162 0.36105 0.04300
H 	H 	0.87013 0.97692 0.37040 0.04300
H 	H 	0.80801 0.06230 0.43610 0.04200
H 	H 	0.77524 0.11110 0.43907 0.04300
H 	H 	0.90050 0.22401 0.38046 0.04200
H 	H 	0.93263 0.17457 0.37615 0.04100
H 	H 	0.83092 0.20815 0.50258 0.05100
H 	H 	0.80009 0.25770 0.51865 0.02400
H 	H 	0.77669 0.25729 0.35626 0.04700
H 	H 	0.80738 0.20729 0.34015 0.05200
C 	C 	0.49950 0.23947 0.44919 -0.07900
H 	H 	0.50707 0.24708 0.53196 0.05100
C 	C 	0.73363 0.48317 0.96744 -0.07800
C 	C 	0.78226 0.51111 0.95769 0.01800
C 	C 	0.80810 0.56171 0.95929 -0.06000
C 	C 	0.78555 0.58474 0.97068 0.02700
C 	C 	0.73672 0.55675 0.97950 -0.06000
C 	C 	0.71084 0.50624 0.97785 0.01700
C 	C 	0.81343 0.63835 0.97473 0.01100
C 	C 	0.82610 0.66835 0.02240 -0.04500
C 	C 	0.85093 0.71899 0.02601 -0.04600
C 	C 	0.86327 0.74003 0.98197 0.01300
C 	C 	0.85078 0.71007 0.93432 -0.03800
C 	C 	0.82598 0.65940 0.93072 -0.03700
C 	C 	0.89011 0.79352 0.98596 0.02000
C 	C 	0.93895 0.82599 0.01372 -0.05300
C 	C 	0.96477 0.87670 0.01691 -0.03300
C 	C 	0.94197 0.89544 0.99232 -0.00900
C 	C 	0.89279 0.86293 0.96515 -0.02100
C 	C 	0.86701 0.81216 0.96193 -0.04700
H 	H 	0.80034 0.49385 0.94976 0.04200
H 	H 	0.84583 0.58311 0.95242 0.05200
H 	H 	0.71890 0.57420 0.98787 0.05100
H 	H 	0.67308 0.48504 0.98462 0.04100
H 	H 	0.81656 0.65238 0.05657 0.04200
H 	H 	0.86048 0.74187 0.06295 0.04100
H 	H 	0.86041 0.72607 0.90018 0.04300
H 	H 	0.81618 0.63646 0.89374 0.04500
H 	H 	0.95700 0.81188 0.03251 0.04300
H 	H 	0.87487 0.87690 0.94581 0.04400
H 	H 	0.82919 0.78732 0.94062 0.04500
C 	C 	0.94967 0.04505 0.00476 -0.03800
C 	C 	0.90961 0.02612 0.03090 -0.01800
C 	C 	0.88522 0.04812 0.03427 -0.05000
C 	C 	0.90075 0.08935 0.01184 0.00900
C 	C 	0.94128 0.10889 0.98656 -0.04300
C 	C 	0.96561 0.08683 0.98294 -0.00800
C 	C 	0.87334 0.11086 0.01301 -0.00200
C 	C 	0.82545 0.08517 0.98341 -0.03100
C 	C 	0.80015 0.10634 0.98280 -0.02900
C 	C 	0.82246 0.15333 0.01201 -0.00400
C 	C 	0.87000 0.17861 0.04245 -0.03700
C 	C 	0.89540 0.15751 0.04283 -0.03900
C 	C 	0.79720 0.17710 0.00837 0.01500
C 	C 	0.74966 0.15414 0.02041 -0.05600
C 	C 	0.72359 0.17401 0.01181 -0.00000
C 	C 	0.74490 0.21714 0.99113 -0.07100
C 	C 	0.79347 0.24130 0.98146 0.00700
C 	C 	0.81934 0.22125 0.98980 -0.04800
H 	H 	0.89736 0.99441 0.04861 0.04100
H 	H 	0.85408 0.03296 0.05408 0.04300
H 	H 	0.95342 0.14068 0.96902 0.04500
H 	H 	0.99622 0.10170 0.96241 0.03900
H 	H 	0.80816 0.04913 0.96027 0.04200
H 	H 	0.76362 0.08664 0.95892 0.04200
H 	H 	0.88744 0.21478 0.06535 0.04100
H 	H 	0.93227 0.17748 0.06601 0.04000
H 	H 	0.73251 0.12037 0.03541 0.04700
H 	H 	0.68638 0.15513 0.01993 0.04600
H 	H 	0.81084 0.27512 0.96653 0.04300
H 	H 	0.85612 0.23938 0.98062 0.04800
C 	C 	0.49794 0.22043 0.95972 -0.08300
H 	H 	0.49841 0.26570 0.90744 0.04100
