data_crystal

_cell_length_a 26.18013
_cell_length_b 26.40601
_cell_length_c 34.92973
_cell_angle_alpha 95.50519
_cell_angle_beta  95.50258
_cell_angle_gamma 125.83422

_symmetry_space_group_name_	'P 1'
_symmetry_space_group_name_H-M	'P 1'

loop_
_symmetry_equiv_pos_as_xyz
  x,y,z

loop_
_atom_site_label
_atom_site_type_symbol
_atom_site_fract_x
_atom_site_fract_y
_atom_site_fract_z
_atom_site_charge
C 	C 	0.99087 0.05522 0.00255 0.14700
N 	N 	0.05567 0.09145 0.00565 -0.13800
C 	C 	0.08630 0.06413 0.00821 0.12800
N 	N 	0.05210 0.00072 0.00750 -0.13300
C 	C 	0.98746 0.96437 0.00417 0.12600
N 	N 	0.95688 0.99167 0.00173 -0.14000
C 	C 	0.92148 0.98186 0.45866 0.11100
N 	N 	0.88658 0.91896 0.46059 -0.13200
C 	C 	0.91641 0.89100 0.46486 0.12600
N 	N 	0.98070 0.92564 0.46655 -0.13200
C 	C 	0.01559 0.98822 0.46436 0.11000
N 	N 	0.98590 0.01628 0.46063 -0.12400
Cu	Cu	0.65837 0.26256 0.99929 0.93100
Cu	Cu	0.69854 0.26415 0.91316 0.89000
Cu	Cu	0.69910 0.36906 0.95310 0.90500
Cu	Cu	0.67639 0.38754 0.03516 0.91500
C 	C 	0.66755 0.29337 0.08174 0.30800
O 	O 	0.56692 0.22868 0.00212 -0.30800
C 	C 	0.66724 0.32860 0.86661 0.30700
O 	O 	0.71720 0.36249 0.00599 -0.63200
O 	O 	0.64757 0.27434 0.94489 -0.63900
O 	O 	0.69245 0.21261 0.99167 -0.35400
O 	O 	0.76085 0.27681 0.95372 -0.42000
O 	O 	0.68036 0.34989 0.08147 -0.31600
O 	O 	0.75380 0.46088 0.96467 -0.36500
C 	C 	0.74965 0.49555 0.99226 0.28900
C 	C 	0.54658 0.26318 0.99728 0.30500
O 	O 	0.58706 0.32246 0.99358 -0.37100
O 	O 	0.71002 0.46945 0.01705 -0.36300
O 	O 	0.68022 0.26685 0.05394 -0.33500
C 	C 	0.74461 0.23534 0.97687 0.28700
O 	O 	0.69526 0.37580 0.89718 -0.35600
O 	O 	0.65787 0.27443 0.86948 -0.33900
H 	H 	0.76341 0.38533 0.01652 0.18200
H 	H 	0.60255 0.25237 0.93176 0.21000
Cu	Cu	0.71541 0.31629 0.44577 0.93500
Cu	Cu	0.72137 0.27055 0.52921 0.88400
Cu	Cu	0.61734 0.27947 0.49920 0.91100
Cu	Cu	0.59403 0.31236 0.42273 0.90900
C 	C 	0.66330 0.29691 0.36471 0.30900
O 	O 	0.75147 0.40886 0.44640 -0.34500
C 	C 	0.66873 0.30559 0.58395 0.30800
O 	O 	0.61609 0.26365 0.44427 -0.63600
O 	O 	0.71169 0.32558 0.50210 -0.63600
O 	O 	0.76107 0.27639 0.44641 -0.33900
O 	O 	0.69909 0.20877 0.48531 -0.41900
O 	O 	0.63613 0.32362 0.37616 -0.35700
O 	O 	0.52499 0.23019 0.49259 -0.35000
C 	C 	0.48779 0.23291 0.46581 0.29900
C 	C 	0.72391 0.43283 0.46132 0.28500
O 	O 	0.66518 0.39454 0.46759 -0.36400
O 	O 	0.51182 0.27474 0.44226 -0.36500
O 	O 	0.70242 0.29445 0.38999 -0.30400
C 	C 	0.73752 0.22350 0.46004 0.30200
O 	O 	0.61795 0.28006 0.55594 -0.32800
O 	O 	0.72050 0.31207 0.57658 -0.37700
H 	H 	0.58874 0.21807 0.43185 0.20600
H 	H 	0.73761 0.36998 0.51660 0.20200
C 	C 	0.59672 0.29934 0.76072 0.03800
C 	C 	0.65269 0.34226 0.74679 0.08800
C 	C 	0.70890 0.39189 0.77367 -0.10600
C 	C 	0.71151 0.38977 0.81386 0.07900
C 	C 	0.65796 0.34115 0.82728 0.00100
C 	C 	0.59840 0.29949 0.80109 -0.06600
C 	C 	0.65411 0.33043 0.70466 0.09400
C 	C 	0.76675 0.44528 0.75945 0.78900
H 	H 	0.75618 0.42348 0.83444 0.08100
C 	C 	0.53746 0.25264 0.81564 0.77800
H 	H 	0.55288 0.26348 0.73998 0.10700
C 	C 	0.66871 0.28915 0.69018 -0.11200
C 	C 	0.67233 0.28132 0.65040 0.07800
C 	C 	0.66254 0.31431 0.62518 -0.00600
C 	C 	0.64766 0.35536 0.63961 -0.06300
C 	C 	0.64066 0.36056 0.67896 0.03200
C 	C 	0.67714 0.25093 0.71656 0.78900
H 	H 	0.68241 0.24913 0.63878 0.07200
C 	C 	0.63774 0.39243 0.61308 0.77600
H 	H 	0.62619 0.38927 0.68997 0.11400
F 	F 	0.53364 0.19899 0.81964 -0.42200
F 	F 	0.48383 0.23464 0.78956 -0.42700
F 	F 	0.53671 0.27953 0.85140 -0.44900
F 	F 	0.74855 0.47333 0.73582 -0.42500
F 	F 	0.79272 0.42145 0.73831 -0.40700
F 	F 	0.81393 0.49209 0.79031 -0.42800
F 	F 	0.57971 0.35139 0.58740 -0.44500
F 	F 	0.68673 0.42211 0.59201 -0.44700
F 	F 	0.63718 0.43907 0.63438 -0.42100
F 	F 	0.69514 0.21681 0.69755 -0.43200
F 	F 	0.61992 0.20826 0.72829 -0.43100
F 	F 	0.72411 0.29090 0.74927 -0.41700
C 	C 	0.60481 0.24923 0.17490 0.03800
C 	C 	0.65869 0.26155 0.19852 0.08800
C 	C 	0.70859 0.26853 0.18107 -0.10300
C 	C 	0.70914 0.27514 0.14155 0.08100
C 	C 	0.65856 0.27024 0.11905 0.00600
C 	C 	0.60342 0.25156 0.13481 -0.07000
C 	C 	0.66455 0.27205 0.24169 0.09600
C 	C 	0.76148 0.27002 0.20461 0.78900
H 	H 	0.75009 0.28693 0.12875 0.08700
C 	C 	0.54372 0.23519 0.10910 0.77700
H 	H 	0.56533 0.24073 0.18820 0.10500
C 	C 	0.69009 0.33283 0.26340 -0.11200
C 	C 	0.69065 0.33991 0.30387 0.07700
C 	C 	0.66533 0.28766 0.32274 -0.00300
C 	C 	0.63929 0.22682 0.30105 -0.06900
C 	C 	0.63958 0.21981 0.26061 0.03000
C 	C 	0.71198 0.38898 0.24306 0.78900
H 	H 	0.70974 0.38601 0.32080 0.08100
C 	C 	0.61156 0.16957 0.32095 0.77600
H 	H 	0.61957 0.17353 0.24356 0.11800
F 	F 	0.55438 0.29002 0.09987 -0.44900
F 	F 	0.49145 0.20564 0.12764 -0.43400
F 	F 	0.52854 0.19409 0.07499 -0.44900
F 	F 	0.73487 0.21619 0.22108 -0.42800
F 	F 	0.79747 0.32329 0.23410 -0.40300
F 	F 	0.80223 0.27155 0.18142 -0.42700
F 	F 	0.58227 0.11359 0.29419 -0.42400
F 	F 	0.56605 0.16355 0.34134 -0.45800
F 	F 	0.66011 0.17721 0.34673 -0.42900
F 	F 	0.74196 0.44519 0.26972 -0.43100
F 	F 	0.65948 0.37843 0.22001 -0.43400
F 	F 	0.75512 0.39702 0.21977 -0.41000
C 	C 	0.76568 0.59493 0.49629 -0.04700
C 	C 	0.80123 0.62880 0.46857 0.02900
C 	C 	0.81498 0.59943 0.44007 -0.05000
C 	C 	0.79217 0.53622 0.43876 0.01800
C 	C 	0.75508 0.50167 0.46584 -0.06700
C 	C 	0.74263 0.53164 0.49491 0.01700
C 	C 	0.82544 0.69554 0.46995 0.01700
H 	H 	0.84303 0.62547 0.41883 0.06700
H 	H 	0.80178 0.51362 0.41602 0.06200
H 	H 	0.71448 0.50569 0.51615 0.07900
H 	H 	0.75540 0.61744 0.51865 0.07000
C 	C 	0.80176 0.71202 0.43964 -0.03900
C 	C 	0.82873 0.77599 0.43925 -0.01200
C 	C 	0.87988 0.82389 0.46898 -0.01400
C 	C 	0.90157 0.80709 0.50014 -0.01100
C 	C 	0.87441 0.74322 0.50064 -0.03900
H 	H 	0.76347 0.67544 0.41601 0.06000
H 	H 	0.81162 0.78839 0.41506 0.05300
H 	H 	0.94077 0.84368 0.52338 0.05300
H 	H 	0.89264 0.73093 0.52431 0.06100
C 	C 	0.89242 0.10571 0.47596 -0.02900
C 	C 	0.83651 0.07902 0.44816 0.00400
C 	C 	0.80716 0.01904 0.42471 -0.01100
C 	C 	0.83381 0.98635 0.42886 -0.04000
C 	C 	0.89030 0.01359 0.45628 0.01100
C 	C 	0.91926 0.07330 0.47990 -0.02400
C 	C 	0.80740 0.11287 0.44482 0.03900
H 	H 	0.76394 0.99793 0.40319 0.05100
H 	H 	0.81127 0.94052 0.41028 0.05900
H 	H 	0.96260 0.09460 0.50135 0.05700
H 	H 	0.91487 0.15142 0.49467 0.05200
C 	C 	0.74480 0.08435 0.45146 -0.05400
C 	C 	0.72042 0.11936 0.45381 0.02800
C 	C 	0.75867 0.18360 0.45002 -0.06700
C 	C 	0.81986 0.21096 0.44096 0.02700
C 	C 	0.84406 0.17570 0.43831 -0.05300
H 	H 	0.71584 0.03575 0.45617 0.06400
H 	H 	0.67253 0.09712 0.45984 0.05600
H 	H 	0.84970 0.26018 0.43752 0.05900
H 	H 	0.89203 0.19784 0.43243 0.06600
C 	C 	0.18609 0.04066 0.48536 -0.04000
C 	C 	0.21800 0.09395 0.46736 0.01600
C 	C 	0.18370 0.11348 0.44920 -0.03800
C 	C 	0.11784 0.07938 0.44847 -0.01600
C 	C 	0.08564 0.02561 0.46618 -0.00700
C 	C 	0.12037 0.00686 0.48497 -0.00600
C 	C 	0.28713 0.12874 0.46700 0.03000
H 	H 	0.20803 0.15487 0.43548 0.05600
H 	H 	0.09178 0.09430 0.43369 0.05400
H 	H 	0.09650 0.96610 0.49926 0.04700
H 	H 	0.21213 0.02518 0.49942 0.05900
C 	C 	0.33147 0.15514 0.50235 -0.05000
C 	C 	0.39694 0.18816 0.50199 0.02300
C 	C 	0.41868 0.19552 0.46626 -0.06600
C 	C 	0.37428 0.16889 0.43093 0.02000
C 	C 	0.30880 0.13541 0.43129 -0.05300
H 	H 	0.31526 0.15049 0.53008 0.06700
H 	H 	0.43080 0.20902 0.52946 0.07500
H 	H 	0.39050 0.17395 0.40319 0.05000
H 	H 	0.27490 0.11463 0.40384 0.06100
C 	C 	0.87511 0.66433 0.98077 -0.05500
C 	C 	0.84853 0.69455 0.99380 0.02800
C 	C 	0.78888 0.65908 0.00544 -0.04900
C 	C 	0.75633 0.59404 0.00453 0.03000
C 	C 	0.78325 0.56381 0.99206 -0.07900
C 	C 	0.84261 0.59921 0.97989 0.02400
C 	C 	0.88401 0.76362 0.99641 0.00500
H 	H 	0.76805 0.68207 0.01556 0.06200
H 	H 	0.71013 0.56715 0.01347 0.05200
H 	H 	0.86398 0.57653 0.97030 0.05100
H 	H 	0.92111 0.69140 0.97159 0.06400
C 	C 	0.94303 0.80580 0.02221 -0.02800
C 	C 	0.97622 0.87136 0.02527 -0.01300
C 	C 	0.95066 0.89537 0.00253 -0.00400
C 	C 	0.89123 0.85310 0.97698 -0.02400
C 	C 	0.85810 0.78749 0.97391 -0.03300
H 	H 	0.96300 0.78774 0.04003 0.05600
H 	H 	0.02173 0.90350 0.04536 0.04900
H 	H 	0.87127 0.87102 0.95903 0.05300
H 	H 	0.81249 0.75520 0.95392 0.05600
C 	C 	0.95061 0.17036 0.02133 -0.03800
C 	C 	0.89041 0.13742 0.99674 0.01700
C 	C 	0.86411 0.07827 0.97337 -0.04400
C 	C 	0.89733 0.05190 0.97489 -0.00400
C 	C 	0.95733 0.08452 0.99971 -0.03600
C 	C 	0.98400 0.14409 0.02276 0.00700
C 	C 	0.85529 0.16524 0.99492 0.01600
H 	H 	0.81803 0.05286 0.95395 0.05700
H 	H 	0.87653 0.00622 0.95666 0.05000
H 	H 	0.03003 0.16951 0.04224 0.04900
H 	H 	0.97129 0.21605 0.03949 0.06300
C 	C 	0.79386 0.13251 0.00433 -0.02600
C 	C 	0.75836 0.15620 0.99950 -0.00300
C 	C 	0.78403 0.21300 0.98525 -0.06700
C 	C 	0.84653 0.24688 0.97724 0.01200
C 	C 	0.88183 0.22298 0.98193 -0.04700
H 	H 	0.77324 0.08819 0.01478 0.06100
H 	H 	0.71043 0.12966 0.00603 0.07100
H 	H 	0.86750 0.29131 0.96691 0.04900
H 	H 	0.92932 0.24871 0.97474 0.05800
C 	C 	0.36771 0.14530 0.99158 -0.05600
C 	C 	0.35150 0.18604 0.00252 0.05100
C 	C 	0.39904 0.25201 0.01068 -0.05000
C 	C 	0.46245 0.27714 0.00837 0.05100
C 	C 	0.47901 0.23646 0.99784 -0.05900
C 	C 	0.43120 0.17037 0.98928 0.04900
C 	C 	0.28507 0.15952 0.00637 0.02400
H 	H 	0.38698 0.28378 0.01933 0.07000
H 	H 	0.49891 0.32818 0.01547 0.05600
H 	H 	0.44313 0.13843 0.98089 0.06600
H 	H 	0.33116 0.09424 0.98501 0.07000
C 	C 	0.24928 0.17179 0.98187 -0.04500
C 	C 	0.18503 0.14349 0.98399 -0.01800
C 	C 	0.15609 0.10248 0.01050 -0.00700
C 	C 	0.19280 0.09251 0.03614 -0.01000
C 	C 	0.25698 0.12091 0.03408 -0.03600
H 	H 	0.27078 0.20200 0.96059 0.05900
H 	H 	0.15716 0.15148 0.96404 0.05300
H 	H 	0.17113 0.06156 0.05705 0.05600
H 	H 	0.28462 0.11213 0.05360 0.07500
