data_crystal

_cell_length_a 27.94100
_cell_length_b 28.74628
_cell_length_c 30.22278
_cell_angle_alpha 60.73503
_cell_angle_beta  118.94069
_cell_angle_gamma 133.27883

_symmetry_space_group_name_	'P 1'
_symmetry_space_group_name_H-M	'P 1'

loop_
_symmetry_equiv_pos_as_xyz
  x,y,z

loop_
_atom_site_label
_atom_site_type_symbol
_atom_site_fract_x
_atom_site_fract_y
_atom_site_fract_z
_atom_site_charge
O 	O 	0.00626 0.13692 0.17453 -0.37700
O 	O 	0.01320 0.99862 0.02742 -0.37300
C 	C 	0.00475 0.98198 0.85968 -0.02200
C 	C 	0.00756 0.00595 0.30789 0.33500
O 	O 	0.00630 0.87949 0.55158 -0.38000
O 	O 	0.01245 0.96728 0.54370 -0.39000
C 	C 	0.00838 0.98463 0.36399 -0.06500
O 	O 	0.00165 0.95989 0.17077 -0.57100
O 	O 	0.01088 0.89909 0.64525 -0.74800
C 	C 	0.03049 0.99879 0.95549 -0.06000
C 	C 	0.01798 0.93776 0.52547 0.29800
O 	O 	0.04122 0.11412 0.73966 -0.39200
O 	O 	0.03295 0.99074 0.78981 -0.34900
C 	C 	0.02008 0.96148 0.47002 -0.04800
O 	O 	0.02885 0.98882 0.29167 -0.38900
Co	Co	0.03971 0.02260 0.71234 1.19200
Co	Co	0.02763 0.84612 0.63293 1.17500
C 	C 	0.04840 0.99714 0.01087 0.29900
Co	Co	0.04544 0.02922 0.21700 1.19100
O 	O 	0.05487 0.94767 0.13417 -0.75500
C 	C 	0.06134 0.98164 0.40281 -0.02400
O 	O 	0.04161 0.80677 0.71201 -0.37900
C 	C 	0.06817 0.03437 0.87974 -0.04200
C 	C 	0.06720 0.96954 0.45569 0.08600
C 	C 	0.07014 0.15898 0.19488 0.29100
Co	Co	0.07392 0.95287 0.68256 1.18400
O 	O 	0.00141 0.86069 0.06934 -0.37900
H 	H 	0.07269 0.73119 0.81897 0.04600
C 	C 	0.08105 0.04351 0.92696 0.10200
O 	O 	0.08265 0.85638 0.17969 -0.38700
H 	H 	0.08682 0.25113 0.63560 0.05000
H 	H 	0.08610 0.64116 0.86120 0.04200
H 	H 	0.07621 0.75019 0.28707 0.04300
H 	H 	0.08021 0.65391 0.33467 0.04100
C 	C 	0.08860 0.15087 0.71452 0.29900
O 	O 	0.99512 0.04969 0.27655 -0.40800
O 	O 	0.11104 0.91240 0.52699 -0.11500
O 	O 	0.09192 0.12417 0.69183 -0.39100
C 	C 	0.72552 0.30852 0.02672 0.02300
C 	C 	0.76425 0.37608 0.02341 -0.07000
C 	C 	0.73822 0.39984 0.02960 0.02400
C 	C 	0.67274 0.35695 0.03703 -0.07000
C 	C 	0.63346 0.28986 0.04001 0.02400
C 	C 	0.65996 0.26532 0.03535 -0.06900
H 	H 	0.81463 0.40978 0.01671 0.04700
H 	H 	0.65305 0.37550 0.04219 0.05100
H 	H 	0.63018 0.21306 0.03894 0.05000
C 	C 	0.68890 0.29163 0.51297 0.02200
C 	C 	0.72693 0.35625 0.51763 -0.06800
C 	C 	0.69400 0.37896 0.51525 0.02200
C 	C 	0.62394 0.33673 0.50988 -0.06800
C 	C 	0.58665 0.27131 0.50913 0.02400
C 	C 	0.61812 0.25052 0.50644 -0.06800
H 	H 	0.78157 0.38759 0.52492 0.04600
H 	H 	0.59943 0.35327 0.51090 0.05000
H 	H 	0.58816 0.20104 0.50251 0.04900
C 	C 	0.31456 0.65079 0.30572 0.02400
C 	C 	0.38408 0.68536 0.31166 -0.06900
C 	C 	0.40733 0.65699 0.30841 0.02400
C 	C 	0.36278 0.59115 0.30611 -0.06900
C 	C 	0.29370 0.55558 0.30118 0.02400
C 	C 	0.26924 0.58561 0.30018 -0.06800
H 	H 	0.41940 0.73562 0.31563 0.04900
H 	H 	0.38097 0.56915 0.30390 0.05100
H 	H 	0.21531 0.55930 0.29347 0.05000
C 	C 	0.29155 0.64887 0.78056 0.02400
C 	C 	0.36075 0.68752 0.78295 -0.06900
C 	C 	0.38593 0.66394 0.77551 0.02500
C 	C 	0.34348 0.59937 0.77070 -0.06900
C 	C 	0.27490 0.55945 0.76988 0.02500
C 	C 	0.24843 0.58431 0.77418 -0.06900
H 	H 	0.39427 0.73718 0.78784 0.04900
H 	H 	0.36315 0.58107 0.76518 0.05200
H 	H 	0.19481 0.55434 0.77153 0.05100
Co	Co	0.10251 0.98369 0.18408 1.18600
Co	Co	0.92257 0.97884 0.13403 1.17900
Co	Co	0.98198 0.93962 0.09771 1.17000
C 	C 	0.12066 0.87363 0.22428 0.29000
Co	Co	0.09528 0.92636 0.10977 1.16900
Co	Co	0.93041 0.04151 0.20282 1.17400
O 	O 	0.96677 0.00931 0.18634 -0.77300
O 	O 	0.12440 0.02825 0.23314 -0.46100
O 	O 	0.90365 0.94161 0.08084 -0.47800
C 	C 	0.88710 0.07082 0.08806 0.29700
C 	C 	0.21645 0.05284 0.13966 0.30900
C 	C 	0.94620 0.81987 0.08638 0.27100
O 	O 	0.09303 0.13100 0.19470 -0.38500
O 	O 	0.19382 0.99290 0.14541 -0.41100
O 	O 	0.18062 0.06238 0.14620 -0.39200
O 	O 	0.86449 0.03990 0.13017 -0.39600
O 	O 	0.92502 0.06147 0.08452 -0.39600
O 	O 	0.92816 0.84113 0.10128 -0.38900
C 	C 	0.81875 0.89898 0.20003 0.28500
O 	O 	0.86030 0.94183 0.22927 -0.37500
O 	O 	0.82981 0.91181 0.15567 -0.38100
O 	O 	0.12764 0.91754 0.23592 -0.37600
O 	O 	0.10270 0.99957 0.04213 -0.37800
Co	Co	0.92166 0.98867 0.62486 1.17700
Co	Co	0.95642 0.91627 0.59821 1.17100
C 	C 	0.09404 0.84355 0.74402 0.29500
Co	Co	0.94108 0.04993 0.70540 1.16800
O 	O 	0.96460 0.01111 0.68188 -0.75800
O 	O 	0.11357 0.01877 0.72023 -0.46200
O 	O 	0.90488 0.95556 0.56915 -0.47400
C 	C 	0.92184 0.10696 0.59168 0.29000
O 	O 	0.98237 0.94707 0.66763 -0.59200
C 	C 	0.98858 0.98072 0.80553 0.24500
C 	C 	0.16015 0.98405 0.62656 0.28600
C 	C 	0.88044 0.77626 0.59138 0.29000
O 	O 	0.13149 0.92010 0.64153 -0.39600
O 	O 	0.13730 0.00796 0.63273 -0.39300
O 	O 	0.95460 0.12227 0.63678 -0.39900
O 	O 	0.93171 0.07674 0.57841 -0.38600
O 	O 	0.93368 0.97622 0.77259 -0.37600
O 	O 	0.92713 0.77067 0.62946 -0.39800
O 	O 	0.87507 0.82229 0.58359 -0.38100
C 	C 	0.80892 0.93089 0.66822 0.30000
O 	O 	0.83925 0.99044 0.67060 -0.40900
O 	O 	0.82760 0.92174 0.64226 -0.38900
O 	O 	0.10369 0.89465 0.74581 -0.37700
C 	C 	0.96667 0.94703 0.93503 -0.04900
C 	C 	0.95380 0.93768 0.88786 0.06000
N 	N 	0.88972 0.88190 0.86965 -0.01600
H 	H 	0.92807 0.91171 0.95719 0.05500
H 	H 	0.10680 0.06979 0.85759 0.06900
N 	N 	0.14539 0.09879 0.94552 -0.02000
O 	O 	0.88701 0.84041 0.86031 -0.12100
O 	O 	0.83406 0.86977 0.86640 -0.12300
O 	O 	0.20073 0.11071 0.94829 -0.11700
O 	O 	0.14865 0.13980 0.95608 -0.10800
C 	C 	0.96763 0.96508 0.43109 -0.05700
C 	C 	0.96057 0.97499 0.37863 0.07500
N 	N 	0.90290 0.97212 0.34062 -0.02800
H 	H 	0.93010 0.95693 0.44178 0.05800
H 	H 	0.09875 0.98972 0.39205 0.06300
N 	N 	0.12246 0.96793 0.49428 -0.02400
O 	O 	0.84688 0.91553 0.33214 -0.11700
O 	O 	0.90319 0.02390 0.32085 -0.11700
O 	O 	0.18403 0.01815 0.48982 -0.10900
C 	C 	0.13734 0.22150 0.71244 -0.07200
C 	C 	0.18530 0.24114 0.75831 0.01000
C 	C 	0.20784 0.29714 0.76779 -0.05200
C 	C 	0.18168 0.33367 0.73142 0.01500
C 	C 	0.14348 0.32085 0.68142 0.00600
C 	C 	0.12125 0.26449 0.67224 -0.01400
C 	C 	0.12649 0.36338 0.64172 -0.03300
C 	C 	0.14661 0.41809 0.65142 -0.05000
C 	C 	0.18012 0.42869 0.70181 0.03300
C 	C 	0.19435 0.38418 0.74297 -0.01200
C 	C 	0.21691 0.38890 0.79466 -0.02700
C 	C 	0.23555 0.44306 0.80409 -0.04500
C 	C 	0.23108 0.49258 0.76244 0.01300
C 	C 	0.19970 0.48339 0.71165 -0.06600
H 	H 	0.20097 0.21007 0.78848 0.03700
H 	H 	0.24599 0.31215 0.80287 0.04800
H 	H 	0.09818 0.35444 0.60310 0.04200
H 	H 	0.13472 0.45145 0.61991 0.04400
H 	H 	0.21861 0.35033 0.82757 0.04300
H 	H 	0.25711 0.44845 0.84368 0.04500
H 	H 	0.19404 0.52055 0.67956 0.04900
C 	C 	0.45310 0.70964 0.76430 0.01300
C 	C 	0.46472 0.75977 0.71808 -0.04700
C 	C 	0.52240 0.79442 0.70129 -0.02800
C 	C 	0.56835 0.77771 0.72989 -0.01300
C 	C 	0.56077 0.73291 0.77965 0.03300
C 	C 	0.50229 0.69792 0.79605 -0.06800
C 	C 	0.61206 0.72433 0.81264 -0.04900
C 	C 	0.67103 0.76041 0.79691 -0.03200
C 	C 	0.67768 0.80232 0.74668 0.01100
C 	C 	0.62414 0.80758 0.71152 0.01400
C 	C 	0.62667 0.84031 0.65864 -0.05800
C 	C 	0.68602 0.87667 0.64343 0.01100
C 	C 	0.74244 0.87887 0.68014 -0.07500
C 	C 	0.73729 0.83932 0.73107 -0.01600
H 	H 	0.42804 0.77073 0.69442 0.04100
H 	H 	0.53214 0.83542 0.66719 0.03500
H 	H 	0.49429 0.66071 0.83276 0.04900
H 	H 	0.60694 0.69078 0.85104 0.04400
H 	H 	0.71115 0.75491 0.82356 0.05300
H 	H 	0.58261 0.83637 0.62910 0.04300
H 	H 	0.68894 0.90500 0.60341 0.03000
H 	H 	0.78041 0.83937 0.75894 0.05500
C 	C 	0.14304 0.82788 0.77723 -0.07500
C 	C 	0.20631 0.86978 0.76566 0.00400
C 	C 	0.23734 0.84348 0.77190 -0.05600
C 	C 	0.20540 0.77484 0.79089 0.01400
C 	C 	0.15074 0.73606 0.81392 0.00400
C 	C 	0.11919 0.76268 0.80651 -0.01100
C 	C 	0.12635 0.67050 0.84179 -0.03200
C 	C 	0.15355 0.64234 0.84455 -0.05100
C 	C 	0.20181 0.67765 0.81620 0.03300
C 	C 	0.22613 0.74365 0.78721 -0.01300
C 	C 	0.26374 0.77383 0.75097 -0.02800
C 	C 	0.28178 0.74125 0.74721 -0.04600
C 	C 	0.26387 0.67863 0.77999 0.01400
C 	C 	0.22327 0.64659 0.81415 -0.06700
H 	H 	0.22839 0.92167 0.74744 0.03300
H 	H 	0.28597 0.87643 0.76249 0.04200
H 	H 	0.13470 0.59189 0.86678 0.04500
H 	H 	0.27601 0.82078 0.72374 0.03600
H 	H 	0.31019 0.76498 0.71886 0.04100
H 	H 	0.20804 0.59762 0.83871 0.04900
C 	C 	0.24682 0.48990 0.29066 0.01400
C 	C 	0.25234 0.43916 0.32823 -0.04600
C 	C 	0.22867 0.38591 0.31390 -0.02600
C 	C 	0.19438 0.38004 0.26176 -0.01300
C 	C 	0.18657 0.43040 0.22425 0.03400
C 	C 	0.21083 0.48366 0.23941 -0.06700
C 	C 	0.15893 0.42961 0.17144 -0.05100
C 	C 	0.14044 0.38063 0.15496 -0.03200
C 	C 	0.14527 0.32900 0.19123 0.00400
C 	C 	0.17064 0.32700 0.24525 0.01600
C 	C 	0.16870 0.27091 0.28122 -0.05200
C 	C 	0.14475 0.21997 0.26353 0.00800
C 	C 	0.11784 0.22132 0.21040 -0.07200
C 	C 	0.12100 0.27711 0.17423 -0.01000
H 	H 	0.28065 0.44402 0.36785 0.04300
H 	H 	0.24201 0.35285 0.34258 0.03700
H 	H 	0.20672 0.52311 0.21034 0.04900
H 	H 	0.15342 0.46829 0.14271 0.04400
H 	H 	0.12096 0.38216 0.11371 0.04000
H 	H 	0.18036 0.26361 0.32266 0.04800
H 	H 	0.14127 0.17638 0.29175 0.03900
H 	H 	0.09994 0.27797 0.13303 0.04300
C 	C 	0.47357 0.69904 0.29654 0.01400
C 	C 	0.48354 0.74382 0.24766 -0.04600
C 	C 	0.53789 0.77122 0.22998 -0.02700
C 	C 	0.58248 0.75294 0.26079 -0.01300
C 	C 	0.57729 0.71446 0.31267 0.03400
C 	C 	0.52185 0.68637 0.32982 -0.06800
C 	C 	0.62812 0.70558 0.34699 -0.05100
C 	C 	0.68476 0.73594 0.33066 -0.02900
C 	C 	0.68920 0.77192 0.27881 0.00800
C 	C 	0.63544 0.77617 0.24255 0.01600
C 	C 	0.63564 0.80253 0.18908 -0.05500
C 	C 	0.69413 0.83615 0.17372 0.00600
C 	C 	0.75209 0.84238 0.21125 -0.06900
C 	C 	0.74763 0.80552 0.26297 -0.00900
H 	H 	0.44761 0.75556 0.22250 0.04100
H 	H 	0.54621 0.80802 0.19327 0.03600
H 	H 	0.51523 0.65335 0.36833 0.04900
H 	H 	0.62477 0.67674 0.38688 0.04500
H 	H 	0.72508 0.73118 0.35835 0.04100
H 	H 	0.59079 0.79644 0.15944 0.04400
H 	H 	0.69583 0.86114 0.13308 0.03800
H 	H 	0.79127 0.80706 0.29148 0.04500
C 	C 	0.16064 0.84771 0.25969 -0.07200
C 	C 	0.22833 0.88648 0.25810 0.00200
C 	C 	0.25892 0.85662 0.27182 -0.05500
C 	C 	0.22161 0.78729 0.28723 0.01400
C 	C 	0.15876 0.74979 0.29875 0.00400
C 	C 	0.12750 0.77990 0.28346 -0.01200
C 	C 	0.12722 0.68254 0.32400 -0.03300
C 	C 	0.15641 0.65198 0.33587 -0.05100
C 	C 	0.21433 0.68678 0.31869 0.03300
C 	C 	0.24555 0.75427 0.29184 -0.01400
C 	C 	0.29393 0.78463 0.26513 -0.02800
C 	C 	0.31453 0.75011 0.26862 -0.04700
C 	C 	0.28890 0.68540 0.29987 0.01400
C 	C 	0.23881 0.65388 0.32507 -0.06700
H 	H 	0.25569 0.93943 0.24272 0.03600
H 	H 	0.31147 0.88742 0.27107 0.04200
H 	H 	0.13204 0.60028 0.35622 0.04400
H 	H 	0.31252 0.83326 0.23902 0.03500
H 	H 	0.34997 0.77352 0.24637 0.04000
H 	H 	0.21799 0.60358 0.34858 0.04800
C 	C 	0.72325 0.26432 0.52007 0.01300
C 	C 	0.70044 0.19921 0.54933 -0.04600
C 	C 	0.72732 0.17070 0.55208 -0.02900
C 	C 	0.77969 0.20768 0.52712 -0.01400
C 	C 	0.80843 0.27555 0.50319 0.03100
C 	C 	0.77767 0.30254 0.49711 -0.06700
C 	C 	0.86956 0.31640 0.48830 -0.05400
C 	C 	0.90371 0.29110 0.49914 -0.03500
C 	C 	0.87443 0.22346 0.52085 0.00000
C 	C 	0.80941 0.18053 0.53055 0.01400
C 	C 	0.77530 0.11190 0.54214 -0.05400
C 	C 	0.81007 0.08703 0.55337 0.00300
C 	C 	0.87924 0.12996 0.55424 -0.07500
C 	C 	0.90993 0.19815 0.53413 -0.01100
H 	H 	0.66204 0.17064 0.57040 0.04000
H 	H 	0.71007 0.12134 0.57629 0.03700
H 	H 	0.79659 0.35313 0.47526 0.04400
H 	H 	0.89225 0.36848 0.47041 0.03800
H 	H 	0.95272 0.32413 0.49018 0.03200
H 	H 	0.72200 0.07783 0.54167 0.04500
H 	H 	0.78459 0.03420 0.56557 0.03800
H 	H 	0.96257 0.23160 0.53239 0.03400
C 	C 	0.73293 0.44358 0.52537 0.01200
C 	C 	0.74746 0.49950 0.48345 -0.04800
C 	C 	0.76230 0.55478 0.48795 -0.02900
C 	C 	0.76466 0.55561 0.53549 -0.01500
C 	C 	0.74892 0.49843 0.57742 0.03100
C 	C 	0.73750 0.44484 0.57308 -0.06900
C 	C 	0.74012 0.49333 0.62185 -0.05300
C 	C 	0.74726 0.54430 0.62557 -0.03400
C 	C 	0.76897 0.60379 0.58702 0.00300
C 	C 	0.77911 0.61081 0.54177 0.01200
C 	C 	0.80888 0.67396 0.50676 -0.05500
C 	C 	0.83073 0.72856 0.51820 0.00000
C 	C 	0.82588 0.72192 0.56527 -0.07200
C 	C 	0.78759 0.65853 0.59596 -0.01100
H 	H 	0.74234 0.49836 0.44602 0.04100
H 	H 	0.76623 0.59386 0.45327 0.03500
H 	H 	0.72559 0.40130 0.60535 0.04700
H 	H 	0.72619 0.44892 0.65331 0.04100
H 	H 	0.73913 0.53871 0.66000 0.03800
H 	H 	0.82071 0.68258 0.47325 0.04200
H 	H 	0.85863 0.77728 0.49333 0.03500
H 	H 	0.78120 0.65311 0.63126 0.04200
C 	C 	0.51966 0.22212 0.52214 0.01400
C 	C 	0.51113 0.17169 0.56807 -0.04600
C 	C 	0.45464 0.13404 0.58763 -0.02600
C 	C 	0.40325 0.14377 0.55989 -0.01200
C 	C 	0.41283 0.19609 0.51441 0.03500
C 	C 	0.46956 0.23316 0.49467 -0.06700
C 	C 	0.36783 0.21324 0.49084 -0.04900
C 	C 	0.31404 0.17963 0.51230 -0.02900
C 	C 	0.30146 0.12536 0.55563 0.01100
C 	C 	0.34414 0.10492 0.57819 0.02000
C 	C 	0.32443 0.04421 0.61579 -0.05400
C 	C 	0.26746 0.00807 0.63402 0.02000
C 	C 	0.22625 0.02915 0.61309 -0.06100
C 	C 	0.24393 0.08844 0.57447 -0.00700
H 	H 	0.55072 0.16456 0.59065 0.04100
H 	H 	0.45385 0.10114 0.62607 0.03600
H 	H 	0.47660 0.27288 0.45958 0.04800
H 	H 	0.37550 0.25388 0.45649 0.04300
H 	H 	0.28090 0.19475 0.49421 0.04200
H 	H 	0.35003 0.02240 0.62847 0.04700
H 	H 	0.25338 0.96154 0.66278 0.03200
H 	H 	0.21100 0.10376 0.55696 0.04900
C 	C 	0.75454 0.28275 0.02285 0.01300
C 	C 	0.71752 0.24176 0.98924 -0.04600
C 	C 	0.74396 0.21610 0.98647 -0.02700
C 	C 	0.80748 0.22960 0.01871 -0.01500
C 	C 	0.84769 0.27674 0.04805 0.03200
C 	C 	0.82008 0.30092 0.05161 -0.06800
C 	C 	0.91514 0.29963 0.07319 -0.05400
C 	C 	0.94194 0.27348 0.07216 -0.03500
C 	C 	0.90052 0.22058 0.04935 0.00200
C 	C 	0.83255 0.19774 0.02234 0.01400
C 	C 	0.78973 0.13936 0.00534 -0.05600
C 	C 	0.81284 0.10270 0.01839 0.00900
C 	C 	0.87783 0.12230 0.04957 -0.07600
C 	C 	0.92380 0.18528 0.05871 -0.01700
H 	H 	0.66865 0.23069 0.96446 0.04200
H 	H 	0.71668 0.18927 0.95723 0.03600
H 	H 	0.84950 0.33369 0.07681 0.04500
H 	H 	0.94698 0.33775 0.09381 0.03800
H 	H 	0.99404 0.29154 0.09223 0.03100
H 	H 	0.73713 0.11884 0.98624 0.04500
H 	H 	0.77749 0.05508 0.00936 0.03400
H 	H 	0.97552 0.20256 0.07978 0.04100
C 	C 	0.89874 0.75264 0.07975 -0.06800
C 	C 	0.89856 0.70148 0.12222 -0.00000
C 	C 	0.87277 0.64337 0.11398 -0.05500
C 	C 	0.84863 0.63679 0.06266 0.01000
C 	C 	0.83997 0.68442 0.02055 0.00800
C 	C 	0.86614 0.74264 0.02925 -0.01800
C 	C 	0.80580 0.67357 0.97028 -0.03500
C 	C 	0.78026 0.61598 0.96145 -0.04700
C 	C 	0.79226 0.57035 0.00201 0.02800
C 	C 	0.83015 0.58243 0.05230 -0.01200
C 	C 	0.85146 0.54207 0.08984 -0.03000
C 	C 	0.82624 0.48499 0.08031 -0.04700
C 	C 	0.78111 0.46835 0.03295 0.01000
C 	C 	0.76688 0.51266 0.99293 -0.06400
H 	H 	0.92133 0.70795 0.16155 0.03000
H 	H 	0.87023 0.60341 0.14743 0.04100
H 	H 	0.86428 0.78150 0.99655 0.04800
H 	H 	0.79804 0.70936 0.93807 0.05200
H 	H 	0.75218 0.60747 0.92270 0.04300
H 	H 	0.88873 0.55544 0.12561 0.03300
H 	H 	0.83959 0.45220 0.11063 0.03900
H 	H 	0.73376 0.50078 0.95562 0.04700
C 	C 	0.56576 0.24534 0.05058 0.01300
C 	C 	0.55516 0.20107 0.09956 -0.04600
C 	C 	0.49933 0.17305 0.11587 -0.02800
C 	C 	0.45459 0.19120 0.08391 -0.01100
C 	C 	0.46113 0.22980 0.03224 0.03200
C 	C 	0.51678 0.25677 0.01598 -0.06700
C 	C 	0.41220 0.24123 0.99743 -0.04600
C 	C 	0.35618 0.21370 0.01298 -0.03300
C 	C 	0.34948 0.17653 0.06426 0.01300
C 	C 	0.40106 0.16890 0.10113 0.01300
C 	C 	0.39859 0.14096 0.15419 -0.05500
C 	C 	0.34008 0.10994 0.16833 0.01000
C 	C 	0.28430 0.10799 0.13017 -0.07500
C 	C 	0.29106 0.14558 0.07899 -0.01400
H 	H 	0.59148 0.19010 0.12580 0.04300
H 	H 	0.49028 0.13616 0.15246 0.03700
H 	H 	0.52383 0.28928 0.97738 0.04900
H 	H 	0.41697 0.27066 0.95784 0.04500
H 	H 	0.31816 0.22185 0.98515 0.05700
H 	H 	0.44186 0.14418 0.18457 0.04400
H 	H 	0.33653 0.08384 0.20857 0.03300
H 	H 	0.24904 0.14662 0.04989 0.06300
