data_crystal

_cell_length_a 24.86139
_cell_length_b 22.13125
_cell_length_c 31.74953
_cell_angle_alpha 104.02659
_cell_angle_beta  115.93305
_cell_angle_gamma 111.52236

_symmetry_space_group_name_	'P 1'
_symmetry_space_group_name_H-M	'P 1'

loop_
_symmetry_equiv_pos_as_xyz
  x,y,z

loop_
_atom_site_label
_atom_site_type_symbol
_atom_site_fract_x
_atom_site_fract_y
_atom_site_fract_z
_atom_site_charge
C 	C 	0.74831 0.51545 0.96626 0.02900
C 	C 	0.79999 0.51589 0.00926 -0.01900
C 	C 	0.78146 0.45549 0.01863 -0.05500
C 	C 	0.71134 0.39385 0.98491 0.08000
C 	C 	0.65902 0.39417 0.94244 -0.05900
C 	C 	0.67750 0.45504 0.93349 -0.01300
N 	N 	0.69461 0.32987 0.99304 -0.14000
C 	C 	0.50647 0.24051 0.98692 0.03100
C 	C 	0.50495 0.20543 0.94287 -0.01500
C 	C 	0.56637 0.23451 0.94436 -0.05900
C 	C 	0.63050 0.29830 0.99061 0.08000
C 	C 	0.63202 0.33221 0.03492 -0.05200
C 	C 	0.57029 0.30360 0.03307 -0.01700
C 	C 	0.74478 0.18783 0.92511 0.04000
C 	C 	0.75771 0.20272 0.97526 -0.02100
C 	C 	0.73875 0.24734 0.99643 -0.05800
C 	C 	0.70683 0.27767 0.96786 0.08200
C 	C 	0.69041 0.25944 0.91620 -0.05800
C 	C 	0.70999 0.21525 0.89525 -0.02300
H 	H 	0.85472 0.56261 0.03493 0.05800
H 	H 	0.82188 0.45576 0.05146 0.06300
H 	H 	0.60473 0.34676 0.91575 0.06400
H 	H 	0.63720 0.45460 0.90043 0.06500
H 	H 	0.45578 0.15658 0.90709 0.06100
H 	H 	0.56373 0.20854 0.90934 0.06000
H 	H 	0.68107 0.38120 0.07062 0.06200
H 	H 	0.57183 0.33093 0.06726 0.05800
H 	H 	0.78439 0.18146 0.99847 0.07300
H 	H 	0.75069 0.26021 0.03581 0.06600
H 	H 	0.66268 0.27933 0.89242 0.06200
H 	H 	0.69917 0.20331 0.85625 0.05800
C 	C 	0.69089 0.49498 0.41802 0.03600
C 	C 	0.71152 0.49912 0.46791 -0.01900
C 	C 	0.69329 0.43470 0.47257 -0.05800
C 	C 	0.65469 0.36582 0.42753 0.08200
C 	C 	0.62813 0.36100 0.37677 -0.06000
C 	C 	0.64644 0.42550 0.37213 -0.02300
N 	N 	0.65024 0.30278 0.43467 -0.14100
C 	C 	0.47743 0.19844 0.44324 0.03700
C 	C 	0.46459 0.20464 0.39733 -0.02000
C 	C 	0.52048 0.23475 0.39255 -0.06000
C 	C 	0.58988 0.25944 0.43400 0.08200
C 	C 	0.60141 0.24828 0.47798 -0.05800
C 	C 	0.54551 0.21819 0.48274 -0.02200
C 	C 	0.73184 0.18740 0.38418 0.03600
C 	C 	0.65843 0.15003 0.36046 -0.02600
C 	C 	0.62939 0.18848 0.37346 -0.06100
C 	C 	0.67396 0.26487 0.41032 0.08000
C 	C 	0.74502 0.30339 0.42755 -0.05700
C 	C 	0.77347 0.26495 0.41380 -0.02100
H 	H 	0.74522 0.55255 0.50349 0.05900
H 	H 	0.71272 0.43860 0.51163 0.06100
H 	H 	0.59712 0.30784 0.34152 0.05700
H 	H 	0.62954 0.42180 0.33333 0.05700
H 	H 	0.41187 0.18858 0.36630 0.05900
H 	H 	0.51021 0.24016 0.35730 0.05700
H 	H 	0.65450 0.26621 0.50967 0.06200
H 	H 	0.55569 0.21296 0.51810 0.06100
H 	H 	0.62515 0.09032 0.33579 0.05100
H 	H 	0.57323 0.15845 0.35646 0.05800
H 	H 	0.77935 0.36255 0.45447 0.06100
H 	H 	0.82979 0.29463 0.43092 0.06500
C 	C 	0.33486 0.53994 0.98250 0.02400
C 	C 	0.36679 0.59664 0.03318 -0.00700
C 	C 	0.40494 0.67087 0.04618 -0.06200
C 	C 	0.41118 0.68927 0.00861 0.09400
C 	C 	0.38004 0.63227 0.95796 -0.06900
C 	C 	0.34189 0.55797 0.94502 -0.01300
N 	N 	0.44731 0.76636 0.02191 -0.14400
C 	C 	0.60259 0.83532 0.98986 0.02500
C 	C 	0.53378 0.81692 0.95306 -0.00900
C 	C 	0.48220 0.79373 0.96302 -0.06700
C 	C 	0.49928 0.78913 0.01026 0.09500
C 	C 	0.56822 0.80776 0.04693 -0.05900
C 	C 	0.61965 0.83084 0.03686 -0.00700
C 	C 	0.31669 0.85455 0.99438 0.02800
C 	C 	0.38498 0.89420 0.04222 -0.00800
C 	C 	0.42828 0.86568 0.05040 -0.05900
C 	C 	0.40367 0.79721 0.01098 0.09300
C 	C 	0.33546 0.75811 0.96253 -0.06900
C 	C 	0.29223 0.78662 0.95450 -0.01400
H 	H 	0.36155 0.58316 0.06234 0.05900
H 	H 	0.42882 0.71428 0.08522 0.06500
H 	H 	0.38413 0.64544 0.92841 0.06300
H 	H 	0.31735 0.51450 0.90577 0.05900
H 	H 	0.52006 0.81977 0.91648 0.06300
H 	H 	0.42898 0.77821 0.93375 0.06400
H 	H 	0.58185 0.80440 0.08332 0.06400
H 	H 	0.67261 0.84470 0.06538 0.05900
H 	H 	0.40441 0.94695 0.07308 0.06900
H 	H 	0.48066 0.89622 0.08770 0.06800
H 	H 	0.31628 0.70638 0.93098 0.05800
H 	H 	0.23978 0.75604 0.91721 0.05500
C 	C 	0.32557 0.55163 0.48979 0.03400
C 	C 	0.37660 0.60666 0.54350 -0.02300
C 	C 	0.41771 0.68030 0.55656 -0.05800
C 	C 	0.40864 0.69960 0.51616 0.08000
C 	C 	0.35788 0.64424 0.46221 -0.05800
C 	C 	0.31603 0.57077 0.44919 -0.01600
N 	N 	0.45080 0.77627 0.53049 -0.13800
C 	C 	0.60721 0.83473 0.49799 0.03600
C 	C 	0.58534 0.88288 0.50879 -0.02000
C 	C 	0.53337 0.86327 0.51851 -0.05400
C 	C 	0.50001 0.79339 0.51525 0.08100
C 	C 	0.52456 0.74644 0.50628 -0.05400
C 	C 	0.57697 0.76674 0.49706 -0.01700
C 	C 	0.31117 0.85330 0.49373 0.04100
C 	C 	0.35171 0.86294 0.54521 -0.01700
C 	C 	0.39968 0.84023 0.55763 -0.05400
C 	C 	0.40724 0.80720 0.51867 0.08200
C 	C 	0.36782 0.79934 0.46734 -0.05700
C 	C 	0.32004 0.82233 0.45504 -0.01900
H 	H 	0.38420 0.59234 0.57508 0.05800
H 	H 	0.45664 0.72255 0.59810 0.06100
H 	H 	0.35177 0.65795 0.43063 0.06200
H 	H 	0.27663 0.52864 0.40761 0.06300
H 	H 	0.60973 0.93633 0.51080 0.06600
H 	H 	0.52036 0.90316 0.52985 0.07000
H 	H 	0.50475 0.69528 0.50792 0.06800
H 	H 	0.59497 0.73007 0.49008 0.07300
H 	H 	0.34520 0.88691 0.57532 0.06400
H 	H 	0.42970 0.84645 0.59716 0.06500
H 	H 	0.37382 0.77502 0.43704 0.06300
H 	H 	0.28921 0.81514 0.41527 0.06500
Zn	Zn	0.16391 0.15722 0.00248 1.19300
Zn	Zn	0.05186 0.08581 0.88227 1.19800
O 	O 	0.04499 0.95904 0.80065 -0.42500
O 	O 	0.01939 0.04896 0.80517 -0.41000
O 	O 	0.05331 0.88214 0.88236 -0.48600
C 	C 	0.24892 0.13055 0.97456 0.33300
O 	O 	0.98594 0.98543 0.86481 -0.85500
C 	C 	0.16983 0.24884 0.94916 0.35300
O 	O 	0.25060 0.16312 0.01597 -0.43600
O 	O 	0.18751 0.08545 0.92748 -0.36100
O 	O 	0.06816 0.10273 0.95419 -0.77100
O 	O 	0.10882 0.98567 0.95979 -0.42000
O 	O 	0.12579 0.18717 0.90263 -0.42200
O 	O 	0.18353 0.24759 0.99389 -0.44000
Zn	Zn	0.85964 0.86626 0.88954 1.18100
Zn	Zn	0.98585 0.91888 0.99355 1.20100
Zn	Zn	0.01050 0.00168 0.93511 1.20700
C 	C 	0.86190 0.76747 0.93892 0.34900
C 	C 	0.81784 0.92017 0.95119 0.35800
O 	O 	0.91257 0.02135 0.91009 -0.46600
Zn	Zn	0.98560 0.05272 0.02194 1.20400
O 	O 	0.93087 0.81489 0.97580 -0.42200
O 	O 	0.82754 0.77323 0.89611 -0.44900
O 	O 	0.79959 0.89263 0.90215 -0.46800
O 	O 	0.88269 0.94475 0.99108 -0.43600
C 	C 	0.02447 0.01070 0.10436 0.26600
O 	O 	0.95252 0.90088 0.91721 -0.77200
C 	C 	0.90847 0.07198 0.93820 0.35000
O 	O 	0.01849 0.95367 0.07222 -0.35300
O 	O 	0.02509 0.06463 0.09350 -0.42800
O 	O 	0.94041 0.09621 0.98959 -0.46000
O 	O 	0.03528 0.01874 0.00515 -0.90200
Zn	Zn	0.01216 0.92212 0.84128 1.18900
C 	C 	0.03232 0.00332 0.78241 0.25900
C 	C 	0.10525 0.92671 0.93319 0.34700
H 	H 	0.08703 0.04760 0.03366 0.17100
H 	H 	0.93537 0.96703 0.83895 0.17000
Zn	Zn	0.17061 0.15903 0.50228 1.19100
Zn	Zn	0.05162 0.09509 0.38552 1.19500
O 	O 	0.04335 0.97139 0.30223 -0.41900
O 	O 	0.01722 0.06076 0.30793 -0.41400
O 	O 	0.04364 0.88146 0.37516 -0.46200
C 	C 	0.24699 0.13413 0.46308 0.32900
O 	O 	0.98487 0.99447 0.36703 -0.85400
C 	C 	0.16858 0.25684 0.45414 0.35200
O 	O 	0.25324 0.16283 0.50757 -0.43300
O 	O 	0.18379 0.09313 0.41725 -0.35100
O 	O 	0.07432 0.10847 0.45863 -0.77800
O 	O 	0.10446 0.98300 0.45512 -0.43600
O 	O 	0.12619 0.19647 0.40707 -0.43600
O 	O 	0.18969 0.25282 0.49879 -0.42100
Zn	Zn	0.86028 0.88516 0.39445 1.18200
Zn	Zn	0.98225 0.91773 0.49066 1.19600
Zn	Zn	0.01228 0.00754 0.43726 1.20800
C 	C 	0.84872 0.76880 0.42757 0.35400
C 	C 	0.83011 0.93202 0.46676 0.35800
O 	O 	0.92141 0.03759 0.42110 -0.47500
Zn	Zn	0.99880 0.05794 0.53090 1.20500
O 	O 	0.91697 0.81312 0.46791 -0.42100
O 	O 	0.81845 0.78585 0.39057 -0.44900
O 	O 	0.81088 0.91769 0.41809 -0.46300
O 	O 	0.89535 0.95271 0.50309 -0.43100
C 	C 	0.03733 0.00793 0.60791 0.27000
O 	O 	0.94871 0.90725 0.41595 -0.77100
C 	C 	0.91711 0.08314 0.45340 0.34300
O 	O 	0.01914 0.94678 0.57010 -0.36900
O 	O 	0.04419 0.06595 0.60109 -0.42300
O 	O 	0.95685 0.10769 0.50495 -0.45400
O 	O 	0.04006 0.01893 0.50689 -0.91100
Zn	Zn	0.00724 0.92921 0.33943 1.19200
C 	C 	0.02794 0.01409 0.28349 0.25800
C 	C 	0.09513 0.92112 0.42639 0.34600
H 	H 	0.09165 0.04244 0.53365 0.17200
H 	H 	0.93437 0.97773 0.34286 0.16500
C 	C 	0.04532 0.00978 0.65689 0.04200
N 	N 	0.05642 0.06943 0.69275 -0.04300
N 	N 	0.05259 0.06742 0.73297 -0.04600
C 	C 	0.03819 0.00595 0.73884 0.03200
N 	N 	0.02913 0.94698 0.70395 -0.04200
N 	N 	0.03194 0.94858 0.66320 -0.03700
C 	C 	0.03097 0.01450 0.15328 0.03900
N 	N 	0.03139 0.96034 0.16606 -0.02900
N 	N 	0.03093 0.96052 0.20793 -0.03700
C 	C 	0.02908 0.01430 0.23772 0.02900
N 	N 	0.02896 0.06857 0.22506 -0.05200
N 	N 	0.02995 0.06870 0.18347 -0.05200
C 	C 	0.28111 0.47420 0.47619 -0.00100
C 	C 	0.29142 0.41942 0.45453 0.14000
C 	C 	0.25113 0.34716 0.44441 -0.01100
C 	C 	0.20238 0.32958 0.45749 -0.10900
C 	C 	0.19092 0.38381 0.47800 0.20500
C 	C 	0.22998 0.45566 0.48698 -0.09600
H 	H 	0.25963 0.30532 0.42817 0.08800
H 	H 	0.22130 0.49741 0.50307 0.08900
Cl	Cl	0.35709 0.44140 0.44246 -0.29900
Cl	Cl	0.12721 0.36223 0.49207 -0.32400
C 	C 	0.77415 0.90495 0.47603 -0.11100
C 	C 	0.78987 0.93494 0.52775 0.23600
C 	C 	0.73498 0.91088 0.53434 -0.10100
C 	C 	0.66449 0.85719 0.49025 0.00400
C 	C 	0.64891 0.82588 0.43907 0.13900
C 	C 	0.70349 0.84942 0.43220 -0.01800
H 	H 	0.74713 0.93453 0.57389 0.09800
H 	H 	0.69081 0.82447 0.39260 0.07400
Cl	Cl	0.87717 0.00408 0.58466 -0.32500
Cl	Cl	0.56087 0.75792 0.38290 -0.29600
C 	C 	0.15076 0.90483 0.44893 -0.13300
C 	C 	0.13235 0.83164 0.43733 0.20500
C 	C 	0.18520 0.81552 0.45243 -0.09800
C 	C 	0.25657 0.87185 0.47946 -0.00300
C 	C 	0.27539 0.94539 0.49281 0.14900
C 	C 	0.22267 0.96168 0.47821 0.00900
H 	H 	0.17075 0.75908 0.44310 0.09000
H 	H 	0.23745 0.01826 0.48836 0.03700
Cl	Cl	0.04379 0.76014 0.40577 -0.30100
Cl	Cl	0.36455 0.01731 0.52651 -0.33400
C 	C 	0.29206 0.46169 0.96822 0.00300
C 	C 	0.32540 0.42558 0.98762 0.13400
C 	C 	0.28468 0.35497 0.97979 -0.01600
C 	C 	0.21061 0.31941 0.95202 -0.11300
C 	C 	0.17685 0.35384 0.93017 0.20700
C 	C 	0.21768 0.42482 0.93847 -0.09800
H 	H 	0.31076 0.32812 0.99592 0.07000
H 	H 	0.19173 0.45210 0.92297 0.09000
Cl	Cl	0.41812 0.46821 0.02180 -0.29100
Cl	Cl	0.08379 0.30993 0.89404 -0.29800
C 	C 	0.76122 0.89915 0.95940 -0.11800
C 	C 	0.75733 0.95351 0.98958 0.23600
C 	C 	0.70470 0.93218 0.99873 -0.10600
C 	C 	0.65619 0.85689 0.97835 0.01100
C 	C 	0.66009 0.80261 0.94812 0.13700
C 	C 	0.71205 0.82388 0.93842 -0.00400
H 	H 	0.70179 0.97413 0.02194 0.10700
H 	H 	0.71524 0.78186 0.91555 0.07500
Cl	Cl	0.81744 0.04840 0.01566 -0.35400
Cl	Cl	0.60119 0.70775 0.92318 -0.30200
C 	C 	0.27067 0.88420 0.98573 -0.00500
C 	C 	0.26241 0.91826 0.95324 0.14900
C 	C 	0.21041 0.93551 0.93843 -0.01300
C 	C 	0.16719 0.92025 0.95654 -0.11400
C 	C 	0.17863 0.89079 0.99191 0.19800
C 	C 	0.23015 0.87266 0.00625 -0.07600
H 	H 	0.20260 0.95943 0.91192 0.07500
H 	H 	0.23717 0.84757 0.03202 0.08900
Cl	Cl	0.31707 0.93984 0.93096 -0.29500
Cl	Cl	0.12692 0.87365 0.01687 -0.34300
C 	C 	0.76736 0.14659 0.39305 -0.00300
C 	C 	0.80369 0.14071 0.37008 0.13200
C 	C 	0.85024 0.11680 0.38846 -0.02300
C 	C 	0.86249 0.10093 0.43084 -0.12400
C 	C 	0.82399 0.10488 0.45252 0.20500
C 	C 	0.77514 0.12493 0.43213 -0.10200
H 	H 	0.87877 0.11320 0.37111 0.05400
H 	H 	0.74679 0.12900 0.44959 0.08700
Cl	Cl	0.79200 0.16391 0.31881 -0.31900
Cl	Cl	0.83866 0.08929 0.50719 -0.31900
C 	C 	0.72645 0.56222 0.41542 -0.00300
C 	C 	0.70871 0.61567 0.42204 0.13700
C 	C 	0.74859 0.68285 0.42536 -0.01900
C 	C 	0.80626 0.69723 0.42233 -0.11500
C 	C 	0.82254 0.64285 0.41405 0.20500
C 	C 	0.78268 0.57575 0.41067 -0.09800
H 	H 	0.73534 0.72429 0.43101 0.07100
H 	H 	0.79619 0.53449 0.40530 0.08900
Cl	Cl	0.63668 0.59910 0.42613 -0.30300
Cl	Cl	0.89179 0.65741 0.40673 -0.29200
C 	C 	0.31055 0.15049 0.46404 -0.10800
C 	C 	0.36713 0.22434 0.48888 0.20500
C 	C 	0.42272 0.23910 0.48341 -0.09400
C 	C 	0.42246 0.18103 0.45319 -0.00200
C 	C 	0.36763 0.10721 0.43025 0.14400
C 	C 	0.31176 0.09226 0.43547 -0.01600
H 	H 	0.46524 0.29600 0.50145 0.09200
H 	H 	0.26873 0.03536 0.41667 0.07000
Cl	Cl	0.36726 0.29924 0.52441 -0.31400
Cl	Cl	0.36822 0.03302 0.39476 -0.31300
C 	C 	0.77418 0.14995 0.90669 -0.00800
C 	C 	0.74483 0.07391 0.89043 0.15400
C 	C 	0.78600 0.04415 0.89166 -0.05700
C 	C 	0.85701 0.09049 0.91091 -0.11200
C 	C 	0.88172 0.16302 0.91836 0.20000
C 	C 	0.84017 0.19259 0.91619 -0.09100
H 	H 	0.76506 0.98685 0.88263 0.10300
H 	H 	0.86164 0.25038 0.92625 0.09200
Cl	Cl	0.65892 0.01693 0.87278 -0.32700
Cl	Cl	0.96733 0.21943 0.93533 -0.32100
C 	C 	0.76896 0.57755 0.95488 0.00200
C 	C 	0.77673 0.57037 0.91288 0.13600
C 	C 	0.80408 0.63220 0.90636 -0.01500
C 	C 	0.82506 0.70155 0.94203 -0.11400
C 	C 	0.81512 0.70823 0.98290 0.20500
C 	C 	0.78675 0.64621 0.98894 -0.09800
H 	H 	0.81133 0.62686 0.87467 0.07100
H 	H 	0.78022 0.65176 0.02099 0.09400
Cl	Cl	0.75555 0.48505 0.86974 -0.30900
Cl	Cl	0.83877 0.79429 0.02720 -0.31000
C 	C 	0.31486 0.15822 0.97806 -0.12000
C 	C 	0.36920 0.15017 0.01097 0.21200
C 	C 	0.43140 0.17657 0.01323 -0.09200
C 	C 	0.44061 0.21277 0.98398 -0.00400
C 	C 	0.38714 0.22290 0.95246 0.13800
C 	C 	0.32418 0.19453 0.94894 -0.02100
H 	H 	0.47274 0.16928 0.03791 0.08900
H 	H 	0.28294 0.20205 0.92437 0.07300
Cl	Cl	0.36025 0.10750 0.04972 -0.33100
Cl	Cl	0.39955 0.27352 0.91883 -0.30000
