data_crystal

_cell_length_a 20.82976
_cell_length_b 21.64115
_cell_length_c 39.08050
_cell_angle_alpha 60.52267
_cell_angle_beta  119.18014
_cell_angle_gamma 133.22906

_symmetry_space_group_name_	'P 1'
_symmetry_space_group_name_H-M	'P 1'

loop_
_symmetry_equiv_pos_as_xyz
  x,y,z

loop_
_atom_site_label
_atom_site_type_symbol
_atom_site_fract_x
_atom_site_fract_y
_atom_site_fract_z
_atom_site_charge
H 	H 	0.15446 0.52097 0.16079 0.06300
Co	Co	0.00598 0.08896 0.08210 1.17400
Co	Co	0.07279 0.04101 0.04266 1.16800
Co	Co	0.12105 0.92145 0.04660 1.17900
O 	O 	0.05758 0.13046 0.03614 -0.45700
C 	C 	0.11914 0.20239 0.14303 0.28900
C 	C 	0.16549 0.85511 0.13449 0.29400
O 	O 	0.01332 0.93046 0.19913 -0.38100
O 	O 	0.20319 0.91844 0.10424 -0.37000
O 	O 	0.10656 0.84788 0.14392 -0.36500
O 	O 	0.07348 0.13780 0.17119 -0.39200
O 	O 	0.11988 0.18542 0.11457 -0.37500
O 	O 	0.06103 0.94429 0.06500 -0.74000
O 	O 	0.21449 0.05426 0.02628 -0.42800
O 	O 	0.21274 0.11272 0.06079 -0.39800
Co	Co	0.00947 0.07356 0.58437 1.17600
Co	Co	0.06316 0.01051 0.54489 1.16200
Co	Co	0.08493 0.87109 0.54731 1.16900
O 	O 	0.05474 0.10533 0.53804 -0.46300
C 	C 	0.12764 0.19208 0.64389 0.29300
C 	C 	0.12981 0.80338 0.63541 0.29400
O 	O 	0.16650 0.86586 0.60483 -0.37600
O 	O 	0.06591 0.79120 0.64349 -0.36300
O 	O 	0.07979 0.12699 0.67122 -0.39700
O 	O 	0.12232 0.17728 0.61271 -0.36600
O 	O 	0.04499 0.91064 0.56794 -0.74100
O 	O 	0.18679 0.99861 0.52562 -0.36800
O 	O 	0.20175 0.07882 0.55471 -0.38200
C 	C 	0.03209 0.96888 0.82847 0.02900
C 	C 	0.07794 0.03927 0.79771 -0.02500
C 	C 	0.08289 0.02270 0.76888 -0.05000
C 	C 	0.02709 0.93716 0.76474 -0.04900
S 	S 	0.12016 0.14667 0.79197 -0.02200
H 	H 	0.11938 0.07699 0.74599 0.05900
H 	H 	0.17629 0.07017 0.88011 0.07000
H 	H 	0.05349 0.15903 0.76747 0.03300
C 	C 	0.10424 0.02476 0.30858 -0.10300
C 	C 	0.03851 0.95972 0.33164 0.04600
C 	C 	0.02547 0.92924 0.26523 -0.06400
C 	C 	0.10167 0.00643 0.27785 0.02200
S 	S 	0.19511 0.07827 0.25646 -0.01900
H 	H 	0.15811 0.08860 0.31502 0.06300
C 	C 	0.11441 0.00012 0.39859 -0.02300
C 	C 	0.11206 0.01183 0.43009 -0.05600
S 	S 	0.20673 0.00471 0.40419 -0.04900
H 	H 	0.16918 0.02825 0.45580 0.04900
C 	C 	0.17445 0.28329 0.64407 -0.07700
C 	C 	0.16680 0.40815 0.61373 -0.03700
C 	C 	0.15251 0.33813 0.60958 0.02000
C 	C 	0.13407 0.45755 0.57938 0.09900
C 	C 	0.12055 0.32608 0.56959 0.08900
N 	N 	0.09520 0.31682 0.53760 -0.10800
N 	N 	0.10799 0.49698 0.55195 -0.10700
C 	C 	0.13008 0.62999 0.64128 -0.03200
C 	C 	0.09359 0.66032 0.64601 0.00100
C 	C 	0.15199 0.73898 0.65753 -0.06900
C 	C 	0.07435 0.57120 0.61528 0.08900
N 	N 	0.02942 0.52422 0.59447 -0.11200
C 	C 	0.16099 0.29445 0.14055 -0.07400
C 	C 	0.13160 0.34323 0.10567 0.01900
C 	C 	0.14393 0.41397 0.10825 -0.03600
C 	C 	0.09893 0.32781 0.06646 0.08300
C 	C 	0.10373 0.45674 0.07399 0.09800
N 	N 	0.07153 0.49084 0.04665 -0.10900
N 	N 	0.07328 0.31605 0.03504 -0.10900
C 	C 	0.14056 0.66799 0.13625 -0.03700
C 	C 	0.11392 0.70542 0.14293 0.02100
C 	C 	0.18034 0.78494 0.15441 -0.07400
C 	C 	0.07719 0.60976 0.10952 0.09500
C 	C 	0.02405 0.65242 0.14850 0.07600
N 	N 	0.02630 0.56327 0.08809 -0.11300
H 	H 	0.16400 0.49591 0.67065 0.06200
C 	C 	0.03601 0.99345 0.96839 0.39300
O 	O 	0.03790 0.04204 0.98120 -0.40700
O 	O 	0.03268 0.78753 0.06489 -0.40900
O 	O 	0.01754 0.96278 0.60039 -0.56100
C 	C 	0.03048 0.98510 0.86127 0.07400
C 	C 	0.03222 0.01417 0.92525 -0.19400
C 	C 	0.11303 0.06085 0.91423 0.09300
C 	C 	0.11251 0.04049 0.88510 -0.13600
C 	C 	0.04096 0.97957 0.36429 0.03500
O 	O 	0.02880 0.92147 0.99245 -0.39800
C 	C 	0.21560 0.56814 0.14972 -0.06400
C 	C 	0.21555 0.43228 0.65082 0.00900
C 	C 	0.19697 0.44436 0.14383 0.01000
C 	C 	0.22399 0.30785 0.68114 0.01700
Co	Co	0.00410 0.86662 0.10170 1.18300
S 	S 	0.21474 0.14703 0.93547 -0.03300
C 	C 	0.21612 0.32649 0.17565 0.01700
C 	C 	0.03304 0.99308 0.43056 -0.03300
C 	C 	0.01272 0.95680 0.47065 0.27700
O 	O 	0.00862 0.99972 0.48423 -0.35000
C 	C 	0.22263 0.66257 0.65959 0.00900
N 	N 	0.22805 0.21891 0.44559 -0.10800
C 	C 	0.22507 0.54674 0.65940 -0.06500
N 	N 	0.00829 0.81075 0.96648 -0.11600
C 	C 	0.22640 0.39567 0.17847 -0.03700
C 	C 	0.23103 0.69308 0.15348 0.01200
C 	C 	0.99987 0.60263 0.64756 0.10800
C 	C 	0.23782 0.06292 0.54278 0.26700
O 	O 	0.99584 0.90469 0.70406 -0.36200
H 	H 	0.27133 0.12174 0.96029 0.04400
C 	C 	0.98589 0.93570 0.22128 0.31800
N 	N 	0.29469 0.32351 0.97389 -0.10100
C 	C 	0.96724 0.86028 0.29149 0.00900
C 	C 	0.97319 0.87507 0.32457 -0.00200
H 	H 	0.94404 0.75258 0.38969 0.05200
C 	C 	0.25782 0.11055 0.04711 0.30700
O 	O 	0.92428 0.95011 0.20404 -0.38500
O 	O 	0.92019 0.94598 0.70340 -0.38400
C 	C 	0.97644 0.92473 0.72311 0.30400
H 	H 	0.25387 0.05516 0.27845 0.04200
H 	H 	0.27379 0.08919 0.38938 0.04700
C 	C 	0.70834 0.29684 0.01416 0.04200
C 	C 	0.61548 0.25086 0.01118 -0.06900
C 	C 	0.58570 0.29201 0.01217 0.04300
C 	C 	0.64560 0.38111 0.01041 -0.06900
C 	C 	0.73821 0.42446 0.01751 0.04200
C 	C 	0.76973 0.38381 0.01784 -0.06700
H 	H 	0.56865 0.18208 0.01135 0.05700
H 	H 	0.62185 0.41386 0.00929 0.06200
H 	H 	0.84202 0.41686 0.02414 0.07100
C 	C 	0.71369 0.28831 0.51237 0.04000
C 	C 	0.61893 0.23287 0.50796 -0.06600
C 	C 	0.57595 0.26248 0.50770 0.04200
C 	C 	0.62516 0.34963 0.50698 -0.06700
C 	C 	0.71939 0.40268 0.51522 0.04200
C 	C 	0.76416 0.37373 0.51640 -0.06400
H 	H 	0.58046 0.16503 0.50839 0.05700
H 	H 	0.59092 0.37293 0.50522 0.06300
H 	H 	0.83760 0.41459 0.52312 0.07000
C 	C 	0.26463 0.65905 0.14503 0.03900
C 	C 	0.34860 0.71794 0.13420 -0.06500
C 	C 	0.38441 0.68636 0.13003 0.04100
C 	C 	0.33102 0.59862 0.13023 -0.06800
C 	C 	0.24746 0.53886 0.14050 0.04100
H 	H 	0.38754 0.78748 0.13067 0.06600
H 	H 	0.35740 0.57551 0.12505 0.06300
C 	C 	0.26581 0.63603 0.65311 0.04100
C 	C 	0.26332 0.52377 0.65052 0.04200
C 	C 	0.34625 0.58832 0.63962 -0.06900
C 	C 	0.39118 0.67574 0.63692 0.04200
C 	C 	0.34869 0.70051 0.64108 -0.06600
H 	H 	0.37762 0.56998 0.63464 0.06300
H 	H 	0.38139 0.76924 0.63636 0.06600
Co	Co	0.93667 0.91446 0.14029 1.19500
C 	C 	0.94575 0.74811 0.05756 0.31500
Co	Co	0.93525 0.05064 0.15297 1.16700
O 	O 	0.96062 0.01539 0.12236 -0.77800
O 	O 	0.93375 0.81751 0.14131 -0.44400
O 	O 	0.97631 0.96598 0.08225 -0.55200
C 	C 	0.75975 0.87938 0.13466 0.29600
O 	O 	0.80105 0.96389 0.12754 -0.35600
O 	O 	0.80142 0.84673 0.14041 -0.36300
C 	C 	0.89356 0.14282 0.06966 0.30000
O 	O 	0.94269 0.15481 0.10555 -0.40000
O 	O 	0.90447 0.11180 0.05231 -0.36400
O 	O 	0.91630 0.77090 0.06953 -0.37300
Co	Co	0.98343 0.83620 0.60337 1.19100
Co	Co	0.93219 0.90018 0.64279 1.19400
C 	C 	0.89960 0.71325 0.55608 0.30400
Co	Co	0.94138 0.04762 0.65212 1.16800
O 	O 	0.96799 0.00560 0.62594 -0.77200
O 	O 	0.91633 0.79643 0.64233 -0.44800
C 	C 	0.76336 0.88018 0.63381 0.29400
O 	O 	0.80585 0.96494 0.62638 -0.35500
O 	O 	0.79541 0.84918 0.62910 -0.37400
O 	O 	0.99827 0.88072 0.49234 -0.37300
C 	C 	0.90516 0.13811 0.56841 0.30200
O 	O 	0.95728 0.15280 0.60350 -0.40100
O 	O 	0.90613 0.09478 0.55373 -0.37200
O 	O 	0.98332 0.74027 0.56503 -0.39700
O 	O 	0.88158 0.74868 0.56667 -0.38100
C 	C 	0.99370 0.88338 0.82965 -0.05100
C 	C 	0.99057 0.86735 0.79773 0.05600
S 	S 	0.94420 0.76073 0.80011 -0.00300
H 	H 	0.96491 0.82944 0.85480 0.06500
C 	C 	0.94805 0.94838 0.86787 -0.03300
C 	C 	0.94938 0.96125 0.90041 0.09400
S 	S 	0.84335 0.88792 0.83551 0.00600
H 	H 	0.88616 0.92637 0.90763 0.03500
H 	H 	0.85269 0.71560 0.78368 0.05200
H 	H 	0.82458 0.94393 0.80322 0.05300
S 	S 	0.90014 0.78703 0.35714 0.00300
H 	H 	0.91262 0.79729 0.28427 0.05500
C 	C 	0.96336 0.98103 0.39477 0.05400
C 	C 	0.96786 0.97499 0.36170 -0.05200
S 	S 	0.87180 0.97579 0.39054 0.01100
H 	H 	0.91319 0.96381 0.33462 0.06500
H 	H 	0.80190 0.89070 0.40259 0.05300
C 	C 	0.24079 0.37973 0.68495 -0.03800
C 	C 	0.26313 0.26310 0.71439 0.08400
C 	C 	0.28586 0.40092 0.72380 0.09500
N 	N 	0.32184 0.41790 0.75479 -0.10400
N 	N 	0.29477 0.22772 0.74092 -0.10600
C 	C 	0.48809 0.73839 0.63589 0.01200
C 	C 	0.55427 0.74187 0.67244 -0.03100
C 	C 	0.64343 0.78406 0.67179 0.01700
C 	C 	0.66694 0.82278 0.63455 -0.06700
C 	C 	0.60123 0.82113 0.59793 0.02300
C 	C 	0.51223 0.77983 0.59863 -0.03400
C 	C 	0.52944 0.69869 0.71083 0.10200
C 	C 	0.62585 0.86355 0.55955 0.09600
C 	C 	0.44504 0.77895 0.56105 0.10100
C 	C 	0.71136 0.78926 0.70953 0.08600
N 	N 	0.39136 0.77817 0.53107 -0.10400
N 	N 	0.76482 0.79306 0.73991 -0.10500
N 	N 	0.64562 0.89753 0.52896 -0.09600
N 	N 	0.50959 0.66401 0.74145 -0.10000
C 	C 	0.24159 0.76691 0.67922 0.02000
C 	C 	0.27531 0.72498 0.68235 -0.03300
C 	C 	0.29692 0.83497 0.69998 0.09900
C 	C 	0.36104 0.74257 0.71020 0.10200
N 	N 	0.42952 0.75679 0.73247 -0.09900
N 	N 	0.92515 0.55555 0.64959 -0.10400
N 	N 	0.34107 0.88908 0.71675 -0.08700
C 	C 	0.27132 0.41958 0.21659 0.09600
C 	C 	0.27572 0.30092 0.20495 0.08700
N 	N 	0.32500 0.28235 0.22826 -0.10500
N 	N 	0.30713 0.43865 0.24704 -0.10300
C 	C 	0.48234 0.74157 0.13140 0.01200
C 	C 	0.54250 0.73123 0.16815 -0.03100
C 	C 	0.63064 0.76809 0.16839 0.01900
C 	C 	0.66127 0.82039 0.13237 -0.06700
C 	C 	0.60132 0.83134 0.09562 0.02300
C 	C 	0.51207 0.79203 0.09517 -0.03300
C 	C 	0.51346 0.68249 0.20575 0.10300
C 	C 	0.63209 0.88421 0.05837 0.09300
C 	C 	0.45077 0.80336 0.05743 0.10100
C 	C 	0.69041 0.75346 0.20588 0.09300
N 	N 	0.40178 0.81234 0.02732 -0.10400
N 	N 	0.73796 0.74163 0.23583 -0.10300
N 	N 	0.65677 0.92654 0.02869 -0.09400
N 	N 	0.49026 0.64362 0.23572 -0.09900
C 	C 	0.26811 0.80578 0.17508 0.02200
C 	C 	0.29161 0.75592 0.17687 -0.03500
C 	C 	0.32980 0.87061 0.19834 0.10000
C 	C 	0.37425 0.76502 0.20450 0.10200
N 	N 	0.44025 0.77231 0.22657 -0.10000
N 	N 	0.95260 0.60950 0.15376 -0.09400
N 	N 	0.37911 0.92180 0.21730 -0.08600
C 	C 	0.76144 0.24851 0.52501 0.01300
C 	C 	0.78712 0.21426 0.56623 -0.03600
C 	C 	0.80926 0.15686 0.57854 0.02300
C 	C 	0.83360 0.15389 0.55120 -0.07700
C 	C 	0.81263 0.19247 0.50949 0.02000
C 	C 	0.77240 0.23619 0.49624 -0.03500
C 	C 	0.79514 0.24141 0.59628 0.10200
C 	C 	0.83278 0.18827 0.48040 0.09300
C 	C 	0.74513 0.27034 0.45347 0.10000
C 	C 	0.81248 0.10547 0.62016 0.06000
N 	N 	0.72331 0.29766 0.41930 -0.10500
N 	N 	0.81500 0.06596 0.65366 -0.14000
N 	N 	0.84889 0.18496 0.45713 -0.10000
N 	N 	0.80212 0.26341 0.62028 -0.10200
C 	C 	0.82602 0.63484 0.53955 -0.07500
C 	C 	0.82521 0.63804 0.50242 0.01600
C 	C 	0.80400 0.56519 0.49725 -0.03400
C 	C 	0.77026 0.48479 0.52665 0.01300
C 	C 	0.76075 0.47932 0.56180 -0.03400
C 	C 	0.78164 0.55278 0.56626 0.02300
C 	C 	0.83452 0.71122 0.46811 0.08500
C 	C 	0.72821 0.39792 0.59291 0.10500
C 	C 	0.75360 0.54317 0.59698 0.09400
C 	C 	0.81356 0.57200 0.46096 0.09700
N 	N 	0.73117 0.53553 0.62151 -0.09800
N 	N 	0.82100 0.57705 0.43204 -0.10900
N 	N 	0.70209 0.33293 0.61774 -0.10100
N 	N 	0.84074 0.76872 0.44017 -0.10500
C 	C 	0.33088 0.13110 0.53722 -0.07000
C 	C 	0.40038 0.12319 0.56685 0.01100
C 	C 	0.47448 0.15348 0.55569 -0.03400
C 	C 	0.48418 0.20029 0.51547 0.00600
C 	C 	0.41496 0.20936 0.48604 -0.03700
C 	C 	0.34281 0.18150 0.49767 0.01400
C 	C 	0.39499 0.08295 0.60879 0.08100
C 	C 	0.41868 0.24807 0.44386 0.09200
C 	C 	0.27904 0.20235 0.46870 0.07900
C 	C 	0.53981 0.13526 0.58539 0.09400
N 	N 	0.59149 0.12012 0.60921 -0.10900
N 	N 	0.42164 0.27894 0.41019 -0.10900
N 	N 	0.39073 0.05102 0.64229 -0.10600
C 	C 	0.74454 0.24691 0.02605 0.00300
C 	C 	0.76317 0.24252 0.99724 -0.02100
C 	C 	0.80493 0.20055 0.01021 0.00700
C 	C 	0.82074 0.15687 0.05149 -0.07200
C 	C 	0.78777 0.15108 0.07820 0.01800
C 	C 	0.76418 0.20666 0.06694 -0.03200
C 	C 	0.74238 0.28319 0.95481 0.09800
C 	C 	0.78330 0.09234 0.11829 0.06400
C 	C 	0.77012 0.23004 0.09791 0.10000
C 	C 	0.83190 0.20332 0.98135 0.10600
N 	N 	0.77555 0.24919 0.12261 -0.10200
N 	N 	0.85344 0.20560 0.95826 -0.09800
N 	N 	0.77922 0.04675 0.15062 -0.13300
N 	N 	0.72575 0.31572 0.92092 -0.10200
C 	C 	0.88195 0.66813 0.04235 -0.07600
C 	C 	0.82041 0.58815 0.06501 0.02400
C 	C 	0.79146 0.50914 0.06288 -0.03500
C 	C 	0.80170 0.50719 0.03032 0.01600
C 	C 	0.85552 0.58654 0.00461 -0.03600
C 	C 	0.89833 0.66692 0.01139 0.01800
C 	C 	0.78270 0.58665 0.08850 0.09600
C 	C 	0.86602 0.58569 0.97078 0.10700
C 	C 	0.95956 0.74768 0.98667 0.09500
C 	C 	0.74993 0.42950 0.09375 0.10400
N 	N 	0.71666 0.36587 0.11833 -0.10200
N 	N 	0.87438 0.58499 0.94381 -0.10500
N 	N 	0.75243 0.58531 0.10725 -0.09800
C 	C 	0.49687 0.24100 0.02126 -0.00200
C 	C 	0.48270 0.18421 0.06019 -0.03100
C 	C 	0.41640 0.16109 0.07437 0.01300
C 	C 	0.35424 0.18115 0.04777 -0.07800
C 	C 	0.37652 0.24744 0.01219 0.00700
C 	C 	0.44058 0.27005 0.99669 -0.02400
C 	C 	0.53116 0.14482 0.08441 0.09200
C 	C 	0.33107 0.28975 0.99090 0.09500
C 	C 	0.44791 0.32189 0.95547 0.09100
C 	C 	0.41154 0.11627 0.11619 0.08300
N 	N 	0.45375 0.36323 0.92258 -0.10400
N 	N 	0.40777 0.08093 0.14968 -0.10600
N 	N 	0.56870 0.11214 0.10391 -0.11200
