data_crystal

_cell_length_a 20.86695
_cell_length_b 21.34381
_cell_length_c 39.65159
_cell_angle_alpha 60.71102
_cell_angle_beta  119.06860
_cell_angle_gamma 133.26556

_symmetry_space_group_name_	'P 1'
_symmetry_space_group_name_H-M	'P 1'

loop_
_symmetry_equiv_pos_as_xyz
  x,y,z

loop_
_atom_site_label
_atom_site_type_symbol
_atom_site_fract_x
_atom_site_fract_y
_atom_site_fract_z
_atom_site_charge
H 	H 	0.14397 0.51626 0.15494 0.06200
Co	Co	0.05460 0.02206 0.04285 1.17900
Co	Co	0.08290 0.88759 0.04589 1.17100
O 	O 	0.04746 0.12008 0.03429 -0.45800
C 	C 	0.07229 0.21533 0.11519 0.29500
C 	C 	0.12642 0.82625 0.13289 0.29500
O 	O 	0.16372 0.88703 0.10283 -0.38500
O 	O 	0.06923 0.82236 0.14139 -0.37900
O 	O 	0.08711 0.17647 0.10499 -0.38700
O 	O 	0.02768 0.91810 0.06261 -0.76600
O 	O 	0.18067 0.02110 0.02602 -0.39800
O 	O 	0.19362 0.07997 0.06500 -0.38300
Co	Co	0.04149 0.10785 0.57631 1.17900
Co	Co	0.10526 0.04681 0.54308 1.18400
Co	Co	0.10340 0.90405 0.53371 1.17000
O 	O 	0.01857 0.07006 0.68028 -0.38500
O 	O 	0.11137 0.14973 0.53896 -0.45800
C 	C 	0.10038 0.23525 0.61525 0.31000
C 	C 	0.13052 0.80144 0.61683 0.29800
O 	O 	0.08883 0.79667 0.58008 -0.40800
O 	O 	0.11698 0.83199 0.63340 -0.36100
O 	O 	0.13175 0.21017 0.60596 -0.37200
O 	O 	0.08030 0.94420 0.56284 -0.76400
C 	C 	0.05112 0.95975 0.78091 -0.04400
C 	C 	0.05312 0.95754 0.81784 0.06100
H 	H 	0.09742 0.95352 0.77982 0.05900
N 	N 	0.10950 0.94258 0.85168 -0.19200
H 	H 	0.15263 0.93478 0.85053 0.09900
H 	H 	0.10972 0.93663 0.87947 0.09900
H 	H 	0.14436 0.12285 0.82987 0.09600
C 	C 	0.06227 0.98167 0.28092 0.12400
C 	C 	0.06510 0.99172 0.31455 -0.10500
N 	N 	0.13666 0.99999 0.27853 -0.20200
H 	H 	0.12694 0.01499 0.33780 0.06900
C 	C 	0.04132 0.07063 0.35723 -0.10800
C 	C 	0.04884 0.08410 0.39100 0.14200
H 	H 	0.07279 0.12733 0.33355 0.06900
N 	N 	0.09396 0.16776 0.39304 -0.20400
H 	H 	0.12484 0.22242 0.37033 0.10200
H 	H 	0.09668 0.17890 0.41675 0.10500
H 	H 	0.13488 0.98868 0.25517 0.10400
H 	H 	0.19658 0.02374 0.30070 0.10300
C 	C 	0.16140 0.31102 0.63418 -0.08000
C 	C 	0.13528 0.36533 0.62438 0.02900
C 	C 	0.19976 0.44519 0.63540 -0.03700
C 	C 	0.04134 0.32650 0.61801 0.07500
C 	C 	0.20346 0.52323 0.60807 0.10600
N 	N 	0.20709 0.58599 0.58625 -0.10500
C 	C 	0.17372 0.75173 0.64120 -0.06600
C 	C 	0.14246 0.68000 0.62903 0.01500
C 	C 	0.18002 0.63287 0.65197 -0.03200
C 	C 	0.08923 0.66768 0.58922 0.09100
C 	C 	0.12259 0.53901 0.65449 0.09700
N 	N 	0.07576 0.46377 0.65650 -0.10900
C 	C 	0.16598 0.30833 0.16311 0.01500
C 	C 	0.14666 0.30200 0.12513 -0.07500
C 	C 	0.17047 0.24120 0.19794 0.08300
N 	N 	0.17502 0.18827 0.22601 -0.10400
C 	C 	0.14453 0.75824 0.15544 -0.07300
C 	C 	0.12505 0.65475 0.13526 -0.03100
C 	C 	0.08717 0.68097 0.14208 0.00100
C 	C 	0.07881 0.61589 0.10207 0.09200
N 	N 	0.04237 0.58550 0.07533 -0.10600
N 	N 	0.09168 0.35940 0.52453 -0.10200
N 	N 	0.00742 0.35914 0.01434 -0.11200
N 	N 	0.01117 0.76058 0.98811 -0.12100
O 	O 	0.02148 0.02323 0.98210 -0.35300
O 	O 	0.06180 0.00018 0.59855 -0.57800
C 	C 	0.05760 0.01985 0.46451 0.31400
O 	O 	0.11954 0.00597 0.48311 -0.40500
O 	O 	0.02879 0.02657 0.48515 -0.39000
C 	C 	0.07045 0.04971 0.87325 0.06300
C 	C 	0.06776 0.05157 0.90782 -0.04200
N 	N 	0.14193 0.12009 0.85627 -0.19200
H 	H 	0.12588 0.10547 0.92217 0.05900
H 	H 	0.19534 0.17428 0.86900 0.09700
C 	C 	0.17099 0.37865 0.09390 0.02200
C 	C 	0.18800 0.38355 0.16740 -0.03500
C 	C 	0.00574 0.96594 0.96842 0.26300
Co	Co	0.02723 0.87093 0.60065 1.17800
C 	C 	0.20223 0.38752 0.20612 0.09300
N 	N 	0.04830 0.65827 0.55723 -0.11400
N 	N 	0.21361 0.39075 0.23701 -0.11000
C 	C 	0.18611 0.45127 0.09679 -0.03400
C 	C 	0.18544 0.38443 0.05999 0.09300
O 	O 	0.01409 0.19812 0.60451 -0.41700
C 	C 	0.19847 0.45586 0.13413 0.01100
C 	C 	0.21088 0.56685 0.14904 -0.06400
C 	C 	0.19033 0.52186 0.06168 0.10500
N 	N 	0.19712 0.38901 0.03293 -0.09800
C 	C 	0.21527 0.68267 0.15570 0.01100
C 	C 	0.01655 0.32230 0.52291 0.07400
C 	C 	0.01017 0.01052 0.42260 -0.11800
N 	N 	0.19371 0.57829 0.03368 -0.10100
N 	N 	0.01491 0.47831 0.53392 -0.11700
C 	C 	0.00501 0.99559 0.70569 0.26200
O 	O 	0.23744 0.98841 0.55916 -0.38600
C 	C 	0.99857 0.97438 0.85683 0.01200
O 	O 	0.99486 0.89116 0.99193 -0.36300
C 	C 	0.23605 0.32055 0.66690 0.02100
O 	O 	0.99614 0.05306 0.18504 -0.38500
O 	O 	0.98924 0.18362 0.11109 -0.39400
C 	C 	0.99290 0.98195 0.92512 -0.06500
O 	O 	0.24054 0.11060 0.54474 -0.36700
C 	C 	0.99137 0.62349 0.14000 0.10800
Co	Co	0.98098 0.08055 0.07289 1.18900
O 	O 	0.98844 0.75363 0.06516 -0.39000
C 	C 	0.99599 0.97070 0.81902 0.01300
C 	C 	0.98652 0.97871 0.20820 0.29800
C 	C 	0.99214 0.97326 0.74542 -0.05600
N 	N 	0.27506 0.18286 0.44514 -0.10500
H 	H 	0.24096 0.51097 0.70875 0.06300
C 	C 	0.23254 0.07117 0.05095 0.29900
O 	O 	0.97863 0.92690 0.19433 -0.37000
C 	C 	0.27956 0.07491 0.55013 0.29700
O 	O 	0.99974 0.93976 0.69577 -0.34000
C 	C 	0.98203 0.95257 0.25009 -0.08200
N 	N 	0.96634 0.29489 0.61372 -0.10000
C 	C 	0.23323 0.78453 0.17756 0.02000
C 	C 	0.32715 0.17698 0.47386 0.08600
N 	N 	0.23442 0.90541 0.04449 -0.13500
C 	C 	0.25512 0.78410 0.67148 0.01400
C 	C 	0.68672 0.25723 0.04127 0.04500
C 	C 	0.70290 0.34076 0.01989 -0.07900
C 	C 	0.68973 0.37951 0.03421 0.04600
C 	C 	0.63786 0.32431 0.06288 -0.06900
C 	C 	0.60080 0.23323 0.07690 0.04100
C 	C 	0.63814 0.20473 0.07097 -0.07100
H 	H 	0.72207 0.37304 0.99196 0.07500
H 	H 	0.62565 0.35199 0.07375 0.06500
H 	H 	0.63459 0.14579 0.09061 0.06300
C 	C 	0.76131 0.31057 0.51838 0.03900
C 	C 	0.80122 0.40105 0.51317 -0.06100
C 	C 	0.76669 0.42167 0.52634 0.04100
C 	C 	0.68530 0.35481 0.53805 -0.06800
C 	C 	0.63979 0.26730 0.53890 0.04100
C 	C 	0.68090 0.24384 0.53245 -0.06400
H 	H 	0.85395 0.45418 0.49711 0.06800
H 	H 	0.65555 0.37153 0.54539 0.06300
H 	H 	0.64889 0.17439 0.53704 0.06100
C 	C 	0.25850 0.65568 0.14938 0.04100
C 	C 	0.25028 0.54434 0.14057 0.04200
C 	C 	0.33949 0.60677 0.13703 -0.06900
C 	C 	0.38814 0.69341 0.13857 0.04300
C 	C 	0.34674 0.71946 0.14276 -0.06600
H 	H 	0.37158 0.58765 0.13307 0.06400
H 	H 	0.38340 0.78830 0.14160 0.06700
C 	C 	0.32925 0.65071 0.68098 0.03900
C 	C 	0.41037 0.71448 0.66730 -0.06400
C 	C 	0.45424 0.68623 0.66633 0.04000
C 	C 	0.41414 0.59605 0.67568 -0.06800
C 	C 	0.33033 0.53336 0.68486 0.04000
C 	C 	0.29647 0.56045 0.69414 -0.06700
H 	H 	0.43763 0.78415 0.65679 0.06100
H 	H 	0.44409 0.57494 0.67154 0.06300
Co	Co	0.97038 0.84442 0.09903 1.19100
Co	Co	0.91529 0.91027 0.13481 1.18400
C 	C 	0.90237 0.71925 0.05577 0.29900
Co	Co	0.89745 0.05133 0.13461 1.17100
O 	O 	0.93097 0.00975 0.11152 -0.75400
O 	O 	0.91004 0.80738 0.13947 -0.44800
O 	O 	0.95417 0.95354 0.07862 -0.57300
C 	C 	0.74841 0.85876 0.14278 0.31300
O 	O 	0.80483 0.92241 0.16114 -0.41000
O 	O 	0.77824 0.84208 0.12780 -0.37600
C 	C 	0.82812 0.10197 0.04837 0.28900
O 	O 	0.80260 0.04315 0.08134 -0.38500
O 	O 	0.89007 0.11781 0.03693 -0.35600
O 	O 	0.87583 0.74313 0.06887 -0.36800
Co	Co	0.96557 0.93310 0.63627 1.18300
C 	C 	0.91500 0.75849 0.53964 0.29300
Co	Co	0.92593 0.06604 0.62667 1.17600
O 	O 	0.98192 0.03330 0.61190 -0.74600
O 	O 	0.97318 0.83571 0.64381 -0.44000
C 	C 	0.78427 0.87285 0.63220 0.30900
O 	O 	0.83253 0.93539 0.65014 -0.40500
O 	O 	0.82467 0.86353 0.61931 -0.38200
C 	C 	0.88001 0.12235 0.53987 0.29400
O 	O 	0.84300 0.06161 0.57021 -0.38200
O 	O 	0.94145 0.12925 0.53267 -0.35900
O 	O 	0.96532 0.82301 0.51366 -0.38100
O 	O 	0.91313 0.77631 0.56710 -0.36700
C 	C 	0.91687 0.91263 0.90564 0.12800
C 	C 	0.92215 0.90719 0.87310 -0.08800
N 	N 	0.83887 0.85038 0.91840 -0.19900
H 	H 	0.86524 0.85153 0.85967 0.06800
C 	C 	0.93261 0.97702 0.78432 -0.08700
C 	C 	0.93107 0.98051 0.74759 0.11800
H 	H 	0.88640 0.98340 0.78542 0.06600
N 	N 	0.87088 0.99112 0.71462 -0.18900
H 	H 	0.81167 0.97155 0.71740 0.09500
H 	H 	0.88931 0.03278 0.68768 0.05600
H 	H 	0.83052 0.85660 0.94027 0.10800
H 	H 	0.78432 0.79682 0.90536 0.10100
C 	C 	0.98882 0.97235 0.31815 0.01300
C 	C 	0.90726 0.93881 0.28830 0.07000
C 	C 	0.90382 0.92535 0.25580 -0.03300
C 	C 	0.99420 0.98456 0.35415 0.01700
N 	N 	0.83258 0.92127 0.29002 -0.19200
H 	H 	0.84169 0.90101 0.23306 0.05700
C 	C 	0.95248 0.92490 0.41660 -0.01100
C 	C 	0.94909 0.91073 0.38430 0.06300
H 	H 	0.91824 0.86842 0.43943 0.05800
N 	N 	0.90490 0.82644 0.38320 -0.19100
H 	H 	0.87081 0.77238 0.40521 0.10000
H 	H 	0.90655 0.81374 0.36146 0.10200
H 	H 	0.77179 0.89352 0.26869 0.09700
H 	H 	0.83463 0.93745 0.31162 0.10000
C 	C 	0.26732 0.45129 0.67061 0.01300
C 	C 	0.28541 0.38758 0.68685 -0.03800
C 	C 	0.35367 0.39087 0.72352 0.09500
C 	C 	0.25787 0.25874 0.68173 0.09000
N 	N 	0.27526 0.20929 0.69362 -0.10500
N 	N 	0.40825 0.39358 0.75280 -0.10800
C 	C 	0.54332 0.74941 0.65608 0.01000
C 	C 	0.61749 0.75232 0.68659 -0.03800
C 	C 	0.68307 0.76362 0.67781 0.02400
C 	C 	0.69189 0.79992 0.63833 -0.07900
C 	C 	0.61869 0.79801 0.60732 0.01700
C 	C 	0.54550 0.77511 0.61606 -0.03600
C 	C 	0.62323 0.73869 0.72727 0.09700
C 	C 	0.61896 0.81992 0.56658 0.08800
C 	C 	0.47143 0.77547 0.58409 0.09700
C 	C 	0.74866 0.74847 0.70971 0.08700
N 	N 	0.41221 0.77572 0.55858 -0.10500
N 	N 	0.80115 0.73657 0.73516 -0.10000
N 	N 	0.61918 0.83711 0.53405 -0.09600
N 	N 	0.62780 0.72787 0.75973 -0.11000
C 	C 	0.27022 0.67576 0.67461 0.01100
C 	C 	0.30674 0.75031 0.68605 -0.03400
C 	C 	0.39347 0.78851 0.71428 0.09600
C 	C 	0.28477 0.84942 0.68822 0.09400
N 	N 	0.30825 0.90120 0.70186 -0.09800
N 	N 	0.46285 0.81903 0.73684 -0.10600
C 	C 	0.65157 0.80313 0.14113 -0.08400
C 	C 	0.62455 0.76252 0.17685 0.02300
C 	C 	0.54509 0.74353 0.17655 -0.03900
C 	C 	0.48569 0.75320 0.14004 0.01200
C 	C 	0.51262 0.79332 0.10423 -0.03700
C 	C 	0.59212 0.81193 0.10466 0.02100
C 	C 	0.67610 0.73597 0.21353 0.08100
C 	C 	0.45696 0.81285 0.06696 0.10300
C 	C 	0.60975 0.83385 0.06790 0.09200
C 	C 	0.52094 0.70795 0.21371 0.09800
N 	N 	0.62411 0.85064 0.03875 -0.10000
N 	N 	0.50171 0.67930 0.24339 -0.10300
N 	N 	0.41252 0.82850 0.03721 -0.10100
N 	N 	0.71700 0.71446 0.24280 -0.10400
C 	C 	0.26566 0.74097 0.18053 -0.03400
C 	C 	0.29174 0.85781 0.19586 0.08800
C 	C 	0.34662 0.75190 0.21039 0.09700
N 	N 	0.91464 0.57707 0.13851 -0.10500
N 	N 	0.41133 0.76082 0.23431 -0.10400
N 	N 	0.33853 0.91648 0.21043 -0.10300
C 	C 	0.79962 0.28408 0.50736 0.01700
C 	C 	0.89372 0.32190 0.51920 -0.04000
C 	C 	0.92255 0.27625 0.52066 0.03400
C 	C 	0.85814 0.18873 0.51584 -0.07500
C 	C 	0.76732 0.15909 0.49726 0.02100
C 	C 	0.73973 0.21021 0.49048 -0.03800
C 	C 	0.96088 0.40877 0.52740 0.11800
C 	C 	0.70330 0.07816 0.48389 0.09000
C 	C 	0.65304 0.19081 0.46405 0.09900
N 	N 	0.58375 0.17511 0.44289 -0.10400
N 	N 	0.65202 0.01366 0.47303 -0.09600
C 	C 	0.86102 0.66478 0.53811 -0.07200
C 	C 	0.87420 0.60367 0.57185 0.02200
C 	C 	0.85347 0.52924 0.56727 -0.03100
C 	C 	0.81569 0.51320 0.52907 0.01500
C 	C 	0.79870 0.57239 0.49571 -0.03600
C 	C 	0.81456 0.64355 0.50082 0.01800
C 	C 	0.90650 0.61561 0.61134 0.08800
C 	C 	0.76168 0.55816 0.45631 0.09400
C 	C 	0.77510 0.68894 0.46898 0.08200
C 	C 	0.86894 0.46773 0.60199 0.10400
N 	N 	0.74298 0.72471 0.44359 -0.10500
N 	N 	0.88089 0.41839 0.62967 -0.10000
N 	N 	0.73213 0.54675 0.42485 -0.10700
N 	N 	0.93211 0.62483 0.64292 -0.10200
C 	C 	0.37446 0.13347 0.54728 -0.07300
C 	C 	0.39300 0.17022 0.50968 0.01600
C 	C 	0.47646 0.20247 0.50686 -0.03500
C 	C 	0.54405 0.20312 0.54166 0.01000
C 	C 	0.52484 0.16502 0.57921 -0.03600
C 	C 	0.44209 0.13450 0.58202 0.02100
C 	C 	0.59163 0.15998 0.61500 0.09800
C 	C 	0.42831 0.10860 0.62050 0.08700
C 	C 	0.49510 0.24015 0.46808 0.09900
N 	N 	0.41759 0.08845 0.65120 -0.09900
N 	N 	0.51003 0.27050 0.43714 -0.10200
N 	N 	0.64502 0.15603 0.64354 -0.10600
C 	C 	0.79494 0.15856 0.02681 -0.06500
C 	C 	0.85215 0.24353 0.03321 0.00500
C 	C 	0.81843 0.27114 0.04225 -0.03000
C 	C 	0.72382 0.22604 0.03361 0.00300
C 	C 	0.66485 0.15103 0.01771 -0.02700
C 	C 	0.70069 0.11738 0.01432 0.00600
C 	C 	0.93876 0.30737 0.02318 0.11000
C 	C 	0.56807 0.10825 0.00526 0.08800
C 	C 	0.64195 0.04551 0.99516 0.10600
C 	C 	0.88013 0.33719 0.06504 0.09700
N 	N 	0.59460 0.98857 0.97944 -0.09600
N 	N 	0.92953 0.38945 0.08360 -0.10300
N 	N 	0.49079 0.07409 0.99534 -0.09600
C 	C 	0.83605 0.64681 0.03393 -0.07100
C 	C 	0.74221 0.58804 0.03232 0.01800
C 	C 	0.68866 0.50771 0.02128 -0.03200
C 	C 	0.73140 0.47808 0.02048 0.00700
C 	C 	0.82160 0.54315 0.01545 -0.02700
C 	C 	0.86955 0.62986 0.01817 0.01900
C 	C 	0.69963 0.61197 0.03889 0.09400
C 	C 	0.86277 0.52467 0.00427 0.09300
C 	C 	0.94836 0.70268 0.00147 0.08800
C 	C 	0.59101 0.45919 0.00815 0.08500
N 	N 	0.51301 0.42031 0.99771 -0.09900
N 	N 	0.89657 0.51125 0.99508 -0.09300
N 	N 	0.66534 0.63090 0.04410 -0.10100
C 	C 	0.51338 0.16736 0.09087 0.01300
C 	C 	0.48636 0.19689 0.10303 -0.03600
C 	C 	0.39527 0.16812 0.08942 0.02100
C 	C 	0.32826 0.09699 0.07036 -0.07300
C 	C 	0.35428 0.05182 0.06852 0.02500
C 	C 	0.44623 0.08456 0.08103 -0.03500
C 	C 	0.54859 0.24676 0.13324 0.09700
C 	C 	0.28725 0.97038 0.05512 0.07000
C 	C 	0.46865 0.02545 0.09127 0.09800
C 	C 	0.37232 0.21387 0.09375 0.09300
N 	N 	0.48575 0.97757 0.09944 -0.11600
N 	N 	0.35424 0.25063 0.09723 -0.10000
N 	N 	0.59837 0.28665 0.15738 -0.10400
