data_crystal

_cell_length_a 26.15164
_cell_length_b 26.33337
_cell_length_c 35.14285
_cell_angle_alpha 95.50055
_cell_angle_beta  95.50048
_cell_angle_gamma 125.76388

_symmetry_space_group_name_	'P 1'
_symmetry_space_group_name_H-M	'P 1'

loop_
_symmetry_equiv_pos_as_xyz
  x,y,z

loop_
_atom_site_label
_atom_site_type_symbol
_atom_site_fract_x
_atom_site_fract_y
_atom_site_fract_z
_atom_site_charge
C 	C 	0.98043 0.03433 0.00171 0.11600
N 	N 	0.94272 0.96969 0.99674 -0.14000
C 	C 	0.96891 0.93806 0.99299 0.11700
N 	N 	0.03293 0.97115 0.99420 -0.13900
C 	C 	0.07080 0.03558 0.99877 0.11200
N 	N 	0.04459 0.06727 0.00247 -0.13900
C 	C 	0.92273 0.99677 0.45013 0.11600
N 	N 	0.89031 0.93350 0.45078 -0.13800
C 	C 	0.92268 0.90778 0.45363 0.11500
N 	N 	0.98727 0.94539 0.45617 -0.13500
C 	C 	0.01973 0.00847 0.45579 0.11200
N 	N 	0.98745 0.03406 0.45271 -0.13700
Cu	Cu	0.65247 0.24726 0.00406 0.93100
Cu	Cu	0.70163 0.24594 0.92172 0.87400
Cu	Cu	0.68457 0.34388 0.95114 0.90000
Cu	Cu	0.64698 0.36182 0.02657 0.89700
C 	C 	0.66517 0.29435 0.08445 0.30800
O 	O 	0.55781 0.20615 0.00296 -0.34800
C 	C 	0.66453 0.29632 0.86678 0.31100
O 	O 	0.70050 0.34524 0.00575 -0.63900
O 	O 	0.64275 0.25079 0.94802 -0.64000
O 	O 	0.69624 0.20546 0.00381 -0.36000
O 	O 	0.76385 0.26948 0.96581 -0.43600
O 	O 	0.63603 0.31909 0.07253 -0.37600
O 	O 	0.72964 0.43510 0.95814 -0.37200
C 	C 	0.72375 0.46959 0.98473 0.28400
C 	C 	0.53064 0.23080 0.98801 0.27600
O 	O 	0.56691 0.28910 0.98138 -0.38500
O 	O 	0.68038 0.44280 0.00723 -0.38600
O 	O 	0.67521 0.26146 0.05954 -0.34600
C 	C 	0.74995 0.23070 0.99045 0.28200
O 	O 	0.68481 0.34487 0.89488 -0.36900
O 	O 	0.65924 0.24558 0.87440 -0.41100
H 	H 	0.74631 0.37445 0.01846 0.16700
H 	H 	0.59805 0.22318 0.93334 0.18100
Cu	Cu	0.72113 0.33373 0.45203 0.93000
Cu	Cu	0.71938 0.28596 0.53515 0.87600
Cu	Cu	0.61919 0.29836 0.50171 0.89900
Cu	Cu	0.60355 0.33418 0.42521 0.89600
C 	C 	0.67742 0.31920 0.37054 0.30800
O 	O 	0.76031 0.42714 0.45233 -0.34900
C 	C 	0.66277 0.32028 0.58691 0.31100
O 	O 	0.62165 0.28318 0.44778 -0.64100
O 	O 	0.71380 0.34289 0.50739 -0.64000
O 	O 	0.76541 0.29254 0.45488 -0.36000
O 	O 	0.69956 0.22425 0.49203 -0.43400
O 	O 	0.64967 0.34607 0.38061 -0.37700
O 	O 	0.52689 0.25038 0.49235 -0.37700
C 	C 	0.49248 0.25516 0.46483 0.28500
C 	C 	0.73291 0.45253 0.46541 0.27800
O 	O 	0.67351 0.41514 0.47071 -0.38600
O 	O 	0.51999 0.29864 0.44262 -0.38800
O 	O 	0.71053 0.31115 0.39688 -0.34600
C 	C 	0.73965 0.23893 0.46798 0.28200
O 	O 	0.61487 0.29828 0.55761 -0.38200
O 	O 	0.71529 0.32683 0.58130 -0.39700
H 	H 	0.59393 0.23765 0.43513 0.16700
H 	H 	0.73974 0.38727 0.52196 0.18400
C 	C 	0.65967 0.30410 0.82591 -0.10100
C 	C 	0.62204 0.32244 0.81075 0.14900
C 	C 	0.61912 0.33026 0.77188 -0.08400
C 	C 	0.65235 0.31865 0.74777 0.02200
C 	C 	0.68964 0.30007 0.76290 0.08300
C 	C 	0.69327 0.29310 0.80177 -0.01200
H 	H 	0.58997 0.34408 0.76022 0.08300
C 	C 	0.64649 0.32405 0.70638 0.02100
H 	H 	0.72247 0.27924 0.81329 0.05100
C 	C 	0.69485 0.37977 0.69468 -0.08300
C 	C 	0.69803 0.38073 0.65518 0.14900
C 	C 	0.65223 0.32559 0.62705 -0.10000
C 	C 	0.60040 0.27206 0.63857 -0.01300
C 	C 	0.59749 0.27095 0.67806 0.08400
H 	H 	0.73162 0.42140 0.71637 0.08100
H 	H 	0.56418 0.23000 0.61698 0.05900
Br	Br	0.73523 0.28305 0.73070 -0.22900
Br	Br	0.57123 0.33315 0.84175 -0.23900
Br	Br	0.76481 0.45780 0.64018 -0.24100
Br	Br	0.52829 0.19521 0.69288 -0.22200
C 	C 	0.67926 0.30699 0.32897 -0.09600
C 	C 	0.73777 0.33081 0.31618 0.14900
C 	C 	0.73835 0.32320 0.27626 -0.08300
C 	C 	0.68213 0.29593 0.24886 0.02200
C 	C 	0.62377 0.27171 0.26158 0.08300
C 	C 	0.62245 0.27630 0.30139 -0.01500
H 	H 	0.78328 0.34168 0.26654 0.08300
C 	C 	0.68553 0.29714 0.20714 0.02200
H 	H 	0.57741 0.25782 0.31097 0.05200
C 	C 	0.66024 0.24042 0.18122 -0.08300
C 	C 	0.65416 0.23867 0.14099 0.14900
C 	C 	0.67745 0.29535 0.12651 -0.09600
C 	C 	0.70663 0.35281 0.15274 -0.01500
C 	C 	0.70969 0.35379 0.19277 0.08300
H 	H 	0.64200 0.19684 0.19224 0.08300
H 	H 	0.72481 0.39649 0.14187 0.05200
Br	Br	0.54592 0.23536 0.22512 -0.22400
Br	Br	0.81825 0.37953 0.35214 -0.22500
Br	Br	0.60828 0.15745 0.10670 -0.22700
Br	Br	0.74365 0.43229 0.22713 -0.22300
C 	C 	0.88811 0.83921 0.45344 -0.00500
C 	C 	0.85089 0.81156 0.48171 -0.02800
C 	C 	0.82692 0.74943 0.48596 -0.03300
C 	C 	0.83722 0.71255 0.46042 -0.00400
C 	C 	0.87659 0.74157 0.43265 0.02700
C 	C 	0.90009 0.80385 0.42864 -0.04900
C 	C 	0.89468 0.70935 0.41046 -0.04300
C 	C 	0.87500 0.64908 0.41576 -0.03400
C 	C 	0.83360 0.61804 0.44164 0.01200
C 	C 	0.81216 0.64838 0.46316 0.01100
C 	C 	0.76386 0.61279 0.48497 -0.04900
C 	C 	0.74161 0.55066 0.48776 0.00300
C 	C 	0.76414 0.52134 0.46725 -0.06600
C 	C 	0.81092 0.55559 0.44474 -0.01700
H 	H 	0.84342 0.83945 0.50189 0.04500
H 	H 	0.80454 0.73231 0.51069 0.04200
H 	H 	0.92982 0.82575 0.40717 0.05200
H 	H 	0.92543 0.73176 0.38958 0.04800
H 	H 	0.89086 0.62573 0.39893 0.05000
H 	H 	0.74038 0.63102 0.49772 0.04600
H 	H 	0.70479 0.52436 0.50476 0.04200
H 	H 	0.82753 0.53271 0.42819 0.06000
C 	C 	0.75848 0.19689 0.45761 -0.07300
C 	C 	0.72127 0.13399 0.46408 0.00300
C 	C 	0.74258 0.09639 0.45890 -0.05300
C 	C 	0.80298 0.12213 0.44855 0.01200
C 	C 	0.83657 0.18261 0.43747 0.00900
C 	C 	0.81493 0.22022 0.44288 -0.01600
C 	C 	0.89096 0.20458 0.42080 -0.03400
C 	C 	0.91331 0.16800 0.41592 -0.04500
C 	C 	0.88431 0.11078 0.42999 0.02700
C 	C 	0.82999 0.08820 0.44765 -0.00600
C 	C 	0.80746 0.03572 0.46665 -0.03300
C 	C 	0.83580 0.00420 0.46578 -0.03000
C 	C 	0.88815 0.02537 0.44710 -0.00500
C 	C 	0.91136 0.07783 0.42854 -0.04900
H 	H 	0.67550 0.11396 0.47296 0.03600
H 	H 	0.71069 0.04680 0.46120 0.04500
H 	H 	0.84248 0.26778 0.43621 0.05500
H 	H 	0.91577 0.24998 0.41124 0.04600
H 	H 	0.95490 0.18545 0.40244 0.04600
H 	H 	0.77113 0.02170 0.48422 0.04000
H 	H 	0.81873 0.96497 0.48118 0.04700
H 	H 	0.95191 0.09434 0.41410 0.05100
C 	C 	0.42230 0.21786 0.46281 -0.06900
C 	C 	0.38335 0.21429 0.43065 0.00400
C 	C 	0.31734 0.18056 0.42898 -0.05300
C 	C 	0.28928 0.15132 0.46024 0.01200
C 	C 	0.32765 0.15021 0.49100 0.00800
C 	C 	0.39407 0.18495 0.49269 -0.01600
C 	C 	0.29901 0.11272 0.51899 -0.03400
C 	C 	0.23270 0.07559 0.51647 -0.04600
C 	C 	0.19428 0.07854 0.48744 0.02800
C 	C 	0.22277 0.11938 0.46043 -0.00600
C 	C 	0.18494 0.12974 0.43583 -0.03300
C 	C 	0.11884 0.09387 0.43463 -0.02900
C 	C 	0.08983 0.04897 0.45882 -0.00500
C 	C 	0.12777 0.04230 0.48574 -0.05000
H 	H 	0.40398 0.23659 0.40644 0.03700
H 	H 	0.28812 0.17449 0.40250 0.04500
H 	H 	0.42357 0.18591 0.51707 0.05300
H 	H 	0.32807 0.11107 0.54227 0.04500
H 	H 	0.21124 0.04533 0.53765 0.04700
H 	H 	0.20660 0.16730 0.41905 0.04100
H 	H 	0.09013 0.10101 0.41481 0.04400
H 	H 	0.10562 0.00951 0.50561 0.05200
C 	C 	0.92809 0.86800 0.98759 -0.00700
C 	C 	0.94192 0.83339 0.96363 -0.02700
C 	C 	0.90699 0.76758 0.96090 -0.03300
C 	C 	0.85918 0.73563 0.98353 -0.00600
C 	C 	0.84077 0.76949 0.00438 0.02800
C 	C 	0.87631 0.83573 0.00705 -0.04800
C 	C 	0.78650 0.73671 0.02173 -0.04500
C 	C 	0.75062 0.67084 0.01880 -0.03500
C 	C 	0.77073 0.63717 0.00072 0.01200
C 	C 	0.82707 0.66986 0.98453 0.01100
C 	C 	0.85213 0.63722 0.97224 -0.05100
C 	C 	0.81799 0.57201 0.97199 0.00600
C 	C 	0.75962 0.53862 0.98525 -0.06600
C 	C 	0.73639 0.57148 0.99993 -0.01900
H 	H 	0.97937 0.85745 0.94668 0.04700
H 	H 	0.91524 0.74158 0.93986 0.04300
H 	H 	0.86421 0.86215 0.02461 0.05100
H 	H 	0.77142 0.76219 0.03701 0.04500
H 	H 	0.70793 0.64613 0.03160 0.04300
H 	H 	0.89938 0.66248 0.96495 0.04600
H 	H 	0.83789 0.54775 0.96238 0.04000
H 	H 	0.69196 0.54613 0.01098 0.05000
C 	C 	0.79117 0.21029 0.99966 -0.07700
C 	C 	0.77478 0.16563 0.02399 0.00700
C 	C 	0.80969 0.14121 0.02918 -0.05300
C 	C 	0.85978 0.15885 0.00844 0.01300
C 	C 	0.88083 0.20920 0.98765 0.00500
C 	C 	0.84601 0.23402 0.98297 -0.01900
C 	C 	0.93646 0.23436 0.97180 -0.03600
C 	C 	0.97020 0.20869 0.97516 -0.04300
C 	C 	0.94704 0.15510 0.99251 0.02400
C 	C 	0.89058 0.12854 0.00855 -0.00400
C 	C 	0.86372 0.07002 0.02134 -0.03300
C 	C 	0.89478 0.04129 0.02072 -0.02900
C 	C 	0.95143 0.06842 0.00569 -0.00400
C 	C 	0.97784 0.12574 0.99206 -0.04800
H 	H 	0.73521 0.15001 0.03914 0.05300
H 	H 	0.79948 0.11123 0.05059 0.04900
H 	H 	0.86111 0.27111 0.96591 0.03800
H 	H 	0.95378 0.27415 0.95686 0.04000
H 	H 	0.01341 0.22924 0.96299 0.04200
H 	H 	0.81722 0.04459 0.02964 0.04100
H 	H 	0.87367 0.99678 0.03104 0.04700
H 	H 	0.02086 0.14613 0.97965 0.04900
C 	C 	0.13987 0.07055 0.99911 -0.00700
C 	C 	0.16755 0.10821 0.97113 -0.02800
C 	C 	0.23019 0.13261 0.96682 -0.03400
C 	C 	0.26765 0.12251 0.99215 -0.00500
C 	C 	0.23861 0.08271 0.01962 0.02800
C 	C 	0.17567 0.05851 0.02358 -0.04800
C 	C 	0.27151 0.06498 0.04157 -0.04400
C 	C 	0.33256 0.08560 0.03638 -0.03400
C 	C 	0.36363 0.12747 0.01083 0.01300
C 	C 	0.33249 0.14837 0.98949 0.01000
C 	C 	0.36794 0.19686 0.96795 -0.04900
C 	C 	0.43075 0.21993 0.96521 0.00100
C 	C 	0.46103 0.19828 0.98573 -0.06700
C 	C 	0.42686 0.15116 0.00791 -0.01700
H 	H 	0.13925 0.11564 0.95116 0.04400
H 	H 	0.24725 0.15519 0.94218 0.04200
H 	H 	0.15365 0.02829 0.04475 0.05100
H 	H 	0.24907 0.03386 0.06221 0.04700
H 	H 	0.35649 0.07010 0.05304 0.04900
H 	H 	0.34905 0.21985 0.95538 0.04700
H 	H 	0.45686 0.25683 0.94836 0.04600
H 	H 	0.45036 0.13500 0.02434 0.05900
