data_crystal

_cell_length_a 30.84942
_cell_length_b 30.93359
_cell_length_c 43.43965
_cell_angle_alpha 95.53162
_cell_angle_beta  95.52899
_cell_angle_gamma 125.52314

_symmetry_space_group_name_	'P 1'
_symmetry_space_group_name_H-M	'P 1'

loop_
_symmetry_equiv_pos_as_xyz
  x,y,z

loop_
_atom_site_label
_atom_site_type_symbol
_atom_site_fract_x
_atom_site_fract_y
_atom_site_fract_z
_atom_site_charge
C 	C 	0.05009 0.02514 0.99763 0.11500
N 	N 	0.02589 0.05037 0.99923 -0.13900
N 	N 	0.00783 0.03978 0.46018 -0.13900
C 	C 	0.03282 0.01534 0.46042 0.11500
Cu	Cu	0.63889 0.24454 0.99828 0.92700
Cu	Cu	0.68073 0.24553 0.93148 0.87000
Cu	Cu	0.67252 0.33200 0.95851 0.89700
Cu	Cu	0.64296 0.34671 0.02054 0.89400
C 	C 	0.65673 0.28515 0.06422 0.28600
O 	O 	0.56022 0.21484 0.99774 -0.36300
C 	C 	0.65390 0.29544 0.88949 0.28700
O 	O 	0.68476 0.32901 0.00207 -0.64000
O 	O 	0.63274 0.25190 0.95362 -0.64100
O 	O 	0.67010 0.20339 0.99561 -0.37600
O 	O 	0.63294 0.30796 0.05651 -0.38300
C 	C 	0.54048 0.23935 0.98666 0.30200
O 	O 	0.57347 0.28982 0.98345 -0.39400
O 	O 	0.65657 0.25145 0.04291 -0.36000
C 	C 	0.71563 0.22302 0.98532 0.30900
O 	O 	0.67243 0.33570 0.91330 -0.38600
O 	O 	0.64787 0.25079 0.89394 -0.42000
H 	H 	0.59523 0.23100 0.94156 0.17300
Cu	Cu	0.73129 0.34360 0.45937 0.92800
Cu	Cu	0.73107 0.30227 0.52622 0.87000
Cu	Cu	0.64519 0.31199 0.50004 0.89700
Cu	Cu	0.62992 0.34148 0.43818 0.89400
C 	C 	0.69197 0.32918 0.39350 0.28800
C 	C 	0.68313 0.33060 0.56893 0.28700
O 	O 	0.64695 0.29907 0.45629 -0.64100
O 	O 	0.72525 0.35058 0.50424 -0.64100
O 	O 	0.66824 0.35178 0.40185 -0.38600
O 	O 	0.56696 0.27057 0.49293 -0.38400
C 	C 	0.53716 0.27386 0.47069 0.30800
O 	O 	0.68831 0.41055 0.47505 -0.39400
O 	O 	0.55918 0.31003 0.45228 -0.39500
O 	O 	0.72281 0.32530 0.41466 -0.36100
O 	O 	0.64256 0.31286 0.54542 -0.38600
O 	O 	0.72744 0.33607 0.56396 -0.42100
H 	H 	0.62412 0.26042 0.44611 0.16400
C 	C 	0.64624 0.30326 0.85691 -0.08900
C 	C 	0.61118 0.25822 0.83254 0.01200
C 	C 	0.60999 0.26481 0.80116 -0.06700
C 	C 	0.64358 0.31647 0.79381 0.02600
C 	C 	0.67625 0.36182 0.81815 -0.06600
C 	C 	0.67757 0.35530 0.84958 0.01200
C 	C 	0.64857 0.32245 0.76080 -0.00100
C 	C 	0.67322 0.30329 0.74465 -0.03900
C 	C 	0.67844 0.30918 0.71346 -0.03900
C 	C 	0.65903 0.33425 0.69809 -0.00100
C 	C 	0.63427 0.35338 0.71419 -0.03900
C 	C 	0.62920 0.34764 0.74549 -0.03900
C 	C 	0.66427 0.33990 0.66507 0.02600
C 	C 	0.61834 0.30779 0.64098 -0.06600
C 	C 	0.62416 0.30692 0.60942 0.01200
C 	C 	0.67605 0.33813 0.60171 -0.08900
C 	C 	0.72167 0.37272 0.62586 0.01200
C 	C 	0.71578 0.37347 0.65738 -0.06700
H 	H 	0.58585 0.21797 0.83786 0.03000
H 	H 	0.58410 0.22963 0.78251 0.04500
H 	H 	0.68847 0.28399 0.75633 0.03700
H 	H 	0.69742 0.29411 0.70117 0.03700
H 	H 	0.57836 0.28200 0.64671 0.04600
H 	H 	0.58853 0.28032 0.59108 0.03700
C 	C 	0.67144 0.28694 0.09794 -0.08400
C 	C 	0.66311 0.24138 0.10828 0.01600
C 	C 	0.67203 0.24158 0.14052 -0.06500
C 	C 	0.68939 0.28729 0.16268 0.02600
C 	C 	0.69947 0.33340 0.15232 -0.06600
C 	C 	0.69069 0.33328 0.12014 0.01200
C 	C 	0.69387 0.28587 0.19669 0.00000
C 	C 	0.64764 0.24914 0.20870 -0.03800
C 	C 	0.64996 0.25291 0.24124 -0.03800
C 	C 	0.69846 0.29351 0.26202 -0.00000
C 	C 	0.74535 0.32846 0.25003 -0.03800
C 	C 	0.74311 0.32457 0.21750 -0.03800
C 	C 	0.69858 0.30338 0.29592 0.02600
C 	C 	0.69510 0.26766 0.31492 -0.06500
C 	C 	0.69352 0.27635 0.34691 0.01300
C 	C 	0.69491 0.32056 0.36001 -0.08400
C 	C 	0.69880 0.35644 0.34095 0.01400
C 	C 	0.70068 0.34790 0.30909 -0.06600
H 	H 	0.64832 0.20534 0.09145 0.04100
H 	H 	0.66451 0.20592 0.14828 0.04700
H 	H 	0.60946 0.21903 0.19285 0.04000
H 	H 	0.61360 0.22566 0.25030 0.03900
H 	H 	0.69342 0.23314 0.30491 0.04600
H 	H 	0.69051 0.24838 0.36136 0.03300
H 	H 	0.99394 0.11085 0.49064 0.03800
C 	C 	0.09160 0.04710 0.46079 -0.02000
C 	C 	0.12700 0.10016 0.47812 -0.02000
C 	C 	0.18295 0.12923 0.47965 -0.04800
C 	C 	0.20398 0.10556 0.46385 0.01200
C 	C 	0.16861 0.05289 0.44615 -0.04700
C 	C 	0.11271 0.02380 0.44462 -0.02400
C 	C 	0.26301 0.13574 0.46598 0.00800
C 	C 	0.29018 0.11660 0.47999 -0.04300
C 	C 	0.34595 0.14449 0.48130 -0.03100
C 	C 	0.37486 0.19166 0.46865 -0.00900
C 	C 	0.34789 0.21103 0.45485 -0.03100
C 	C 	0.29213 0.18317 0.45350 -0.04300
C 	C 	0.43213 0.22002 0.46962 0.04600
C 	C 	0.48010 0.24425 0.47023 -0.10900
H 	H 	0.11130 0.11851 0.49086 0.04000
H 	H 	0.21000 0.16989 0.49338 0.04200
H 	H 	0.18448 0.03452 0.43362 0.04100
H 	H 	0.26807 0.08013 0.48980 0.04000
H 	H 	0.36660 0.12936 0.49206 0.03800
H 	H 	0.37005 0.24751 0.44504 0.03900
H 	H 	0.27147 0.19815 0.44256 0.04100
H 	H 	0.98957 0.10226 0.97110 0.03800
C 	C 	0.10829 0.05606 0.99657 -0.02200
C 	C 	0.13085 0.09324 0.97622 -0.02000
C 	C 	0.18460 0.11782 0.97261 -0.04800
C 	C 	0.21616 0.10552 0.98938 0.01200
C 	C 	0.19417 0.06983 0.01051 -0.04800
C 	C 	0.14053 0.04521 0.01408 -0.01900
C 	C 	0.27196 0.12931 0.98455 0.00800
C 	C 	0.28573 0.09566 0.97293 -0.04300
C 	C 	0.33967 0.11758 0.97123 -0.03100
C 	C 	0.38010 0.17325 0.98101 -0.00900
C 	C 	0.36618 0.20714 0.99167 -0.03000
C 	C 	0.31228 0.18526 0.99343 -0.04400
C 	C 	0.43623 0.19521 0.98204 0.04600
C 	C 	0.48360 0.21458 0.98368 -0.11100
H 	H 	0.10636 0.10189 0.96255 0.03900
H 	H 	0.20135 0.14560 0.95637 0.04200
H 	H 	0.21851 0.06078 0.02394 0.04200
H 	H 	0.25481 0.05245 0.96578 0.04100
H 	H 	0.35011 0.09117 0.96286 0.03800
H 	H 	0.39724 0.25026 0.99920 0.03800
H 	H 	0.30207 0.21157 0.00242 0.04200
C 	C 	0.97240 0.02172 0.00096 0.11200
C 	C 	0.95367 0.01049 0.45990 0.11000
O 	O 	0.73098 0.25809 0.96651 -0.44300
H 	H 	0.72346 0.35114 0.01230 0.16300
O 	O 	0.76231 0.42238 0.45984 -0.36300
O 	O 	0.77099 0.31075 0.46141 -0.37500
O 	O 	0.71619 0.25124 0.49103 -0.44400
C 	C 	0.75063 0.26537 0.47184 0.30900
H 	H 	0.74687 0.38812 0.51621 0.17300
C 	C 	0.92674 0.03732 0.45954 -0.01900
C 	C 	0.95396 0.09024 0.47638 -0.02200
C 	C 	0.92958 0.11667 0.47497 -0.04800
C 	C 	0.87778 0.09055 0.45668 0.01100
C 	C 	0.85028 0.03748 0.44007 -0.04600
C 	C 	0.87461 0.01093 0.44152 -0.02600
C 	C 	0.85208 0.11855 0.45535 0.00800
C 	C 	0.80394 0.09807 0.46688 -0.04400
C 	C 	0.78183 0.12675 0.46785 -0.03200
C 	C 	0.80769 0.17609 0.45731 -0.01200
C 	C 	0.85499 0.19593 0.44502 -0.03100
C 	C 	0.87709 0.16722 0.44397 -0.04400
C 	C 	0.78781 0.20807 0.46126 0.04600
C 	C 	0.77101 0.23452 0.46550 -0.12100
H 	H 	0.95086 0.15740 0.48818 0.04000
H 	H 	0.81027 0.01697 0.42589 0.04100
H 	H 	0.78433 0.06058 0.47573 0.03900
H 	H 	0.74524 0.11116 0.47738 0.03500
H 	H 	0.87516 0.23400 0.43679 0.03900
H 	H 	0.91403 0.18315 0.43478 0.04000
C 	C 	0.94608 0.04905 0.00316 -0.02000
C 	C 	0.95909 0.08968 0.98569 -0.02200
C 	C 	0.93158 0.11307 0.98627 -0.04900
C 	C 	0.89097 0.09617 0.00439 0.01200
C 	C 	0.87893 0.05657 0.02247 -0.04800
C 	C 	0.90629 0.03309 0.02185 -0.02100
C 	C 	0.85948 0.11826 0.00340 0.00800
C 	C 	0.80336 0.08390 0.99180 -0.04500
C 	C 	0.77374 0.10498 0.99000 -0.03000
C 	C 	0.79998 0.16052 0.99973 -0.01300
C 	C 	0.85588 0.19483 0.01171 -0.02900
C 	C 	0.88557 0.17377 0.01358 -0.04500
C 	C 	0.77014 0.18272 0.99558 0.04700
C 	C 	0.74516 0.20114 0.99137 -0.12100
H 	H 	0.94111 0.14356 0.97219 0.04000
H 	H 	0.84802 0.04364 0.03677 0.04200
H 	H 	0.78286 0.04101 0.98382 0.04000
H 	H 	0.73056 0.07826 0.98061 0.03600
H 	H 	0.87646 0.23783 0.01923 0.03700
H 	H 	0.92880 0.20058 0.02275 0.04000
N 	N 	0.02067 0.97127 0.99753 -0.13700
N 	N 	0.00354 0.96149 0.46032 -0.13700
O 	O 	0.71501 0.41015 0.96629 -0.38400
C 	C 	0.71156 0.43980 0.98849 0.30800
O 	O 	0.67550 0.41783 0.00703 -0.39500
C 	C 	0.73850 0.44289 0.47100 0.30100
H 	H 	0.08581 0.98316 0.43084 0.04400
H 	H 	0.00159 0.88999 0.02707 0.04400
H 	H 	0.12378 0.01715 0.03017 0.03900
N 	N 	0.94319 0.96776 0.00085 -0.13800
C 	C 	0.96728 0.94248 0.99912 0.11400
C 	C 	0.94944 0.93198 0.46003 0.11500
N 	N 	0.92449 0.95652 0.45988 -0.13800
H 	H 	0.70209 0.40191 0.81269 0.04600
H 	H 	0.70454 0.39049 0.86808 0.03700
H 	H 	0.61914 0.37276 0.70249 0.03900
H 	H 	0.61013 0.36258 0.75779 0.03900
H 	H 	0.76181 0.39796 0.62026 0.03000
H 	H 	0.75141 0.39895 0.67584 0.04500
H 	H 	0.71293 0.36890 0.16923 0.04500
H 	H 	0.69800 0.36893 0.11248 0.02300
H 	H 	0.78307 0.35969 0.26592 0.04000
H 	H 	0.77919 0.35268 0.20847 0.03800
H 	H 	0.70063 0.39111 0.35084 0.03500
H 	H 	0.70334 0.37564 0.29457 0.04600
C 	C 	0.91806 0.87343 0.45956 -0.02100
C 	C 	0.92849 0.84218 0.44064 -0.02000
C 	C 	0.90311 0.78791 0.44254 -0.04900
C 	C 	0.86701 0.76426 0.46334 0.01300
C 	C 	0.85545 0.79500 0.48170 -0.04800
C 	C 	0.88076 0.84937 0.47975 -0.02000
C 	C 	0.84211 0.70760 0.46621 0.00700
C 	C 	0.85619 0.69555 0.49412 -0.04300
C 	C 	0.83585 0.64215 0.49594 -0.03100
C 	C 	0.80135 0.60058 0.46989 -0.00900
C 	C 	0.78659 0.61245 0.44219 -0.03100
C 	C 	0.80687 0.66576 0.44034 -0.04300
C 	C 	0.78085 0.54564 0.47147 0.04500
C 	C 	0.76243 0.49907 0.47183 -0.11100
H 	H 	0.95681 0.86017 0.42476 0.03800
H 	H 	0.91209 0.76441 0.42818 0.04200
H 	H 	0.82731 0.77694 0.49766 0.04200
H 	H 	0.87250 0.87310 0.49453 0.04000
H 	H 	0.88355 0.72761 0.51418 0.04100
H 	H 	0.84723 0.63322 0.51749 0.03700
H 	H 	0.75967 0.58045 0.42202 0.03800
H 	H 	0.79570 0.67465 0.41872 0.04100
H 	H 	0.85332 0.97027 0.42823 0.04400
C 	C 	0.93571 0.88397 0.99906 -0.02000
C 	C 	0.96021 0.86307 0.01416 -0.02500
C 	C 	0.93141 0.80735 0.01261 -0.04600
C 	C 	0.87784 0.77196 0.99597 0.01100
C 	C 	0.85294 0.79279 0.98133 -0.04700
C 	C 	0.88172 0.84856 0.98289 -0.02100
C 	C 	0.84803 0.71310 0.99368 0.00700
C 	C 	0.80171 0.68391 0.00722 -0.04300
C 	C 	0.77430 0.62833 0.00576 -0.03000
C 	C 	0.79302 0.60162 0.99075 -0.01000
C 	C 	0.83905 0.63060 0.97702 -0.03100
C 	C 	0.86649 0.68618 0.97846 -0.04300
C 	C 	0.76508 0.54452 0.98962 0.04600
C 	C 	0.74109 0.49670 0.98894 -0.10900
H 	H 	0.95074 0.79165 0.02427 0.04100
H 	H 	0.81157 0.76573 0.96844 0.04200
H 	H 	0.86243 0.86411 0.97100 0.04100
H 	H 	0.78727 0.70436 0.01910 0.04100
H 	H 	0.73869 0.60612 0.01639 0.03900
H 	H 	0.85365 0.61015 0.96533 0.03800
H 	H 	0.90209 0.70835 0.96782 0.04000
H 	H 	0.89643 0.00237 0.03580 0.04000
