data_crystal

_cell_length_a 27.65118
_cell_length_b 29.21159
_cell_length_c 40.24912
_cell_angle_alpha 60.89684
_cell_angle_beta  118.80844
_cell_angle_gamma 133.18766

_symmetry_space_group_name_	'P 1'
_symmetry_space_group_name_H-M	'P 1'

loop_
_symmetry_equiv_pos_as_xyz
  x,y,z

loop_
_atom_site_label
_atom_site_type_symbol
_atom_site_fract_x
_atom_site_fract_y
_atom_site_fract_z
_atom_site_charge
C 	C 	0.27999 0.61829 0.22591 0.06800
C 	C 	0.24776 0.55343 0.22730 -0.08700
C 	C 	0.28159 0.53861 0.22153 0.07700
C 	C 	0.35168 0.58295 0.22463 -0.10200
C 	C 	0.38530 0.64664 0.22418 0.07200
C 	C 	0.34872 0.66544 0.22232 -0.09300
H 	H 	0.19881 0.51451 0.23449 0.06700
H 	H 	0.37893 0.56954 0.22348 0.06500
H 	H 	0.37326 0.71628 0.21739 0.07200
C 	C 	0.26344 0.63764 0.70406 0.07400
C 	C 	0.22084 0.57703 0.69535 -0.09500
C 	C 	0.24969 0.55492 0.69168 0.07500
C 	C 	0.32059 0.59171 0.69878 -0.09400
C 	C 	0.36182 0.65487 0.70242 0.07600
C 	C 	0.33372 0.67734 0.70619 -0.09200
H 	H 	0.16601 0.54827 0.69063 0.06600
H 	H 	0.34291 0.57407 0.69675 0.06800
H 	H 	0.36584 0.72612 0.70952 0.06600
Co	Co	0.06231 0.00827 0.07422 1.18100
Co	Co	0.01365 0.05899 0.10180 1.19000
C 	C 	0.18977 0.01891 0.09047 0.29500
Co	Co	0.05937 0.89706 0.07152 1.17500
O 	O 	0.06738 0.08519 0.06711 -0.45900
C 	C 	0.07723 0.16293 0.13648 0.33100
C 	C 	0.06386 0.82184 0.15481 0.32400
O 	O 	0.08110 0.97159 0.02126 -0.40500
O 	O 	0.01383 0.13826 0.13161 -0.40800
O 	O 	0.09104 0.13210 0.13121 -0.39200
O 	O 	0.04069 0.81810 0.11859 -0.41300
O 	O 	0.05972 0.85657 0.16403 -0.38100
O 	O 	0.03295 0.92997 0.09113 -0.75100
O 	O 	0.15823 0.95577 0.10008 -0.36800
O 	O 	0.16531 0.04384 0.09260 -0.39200
Co	Co	0.05209 0.01898 0.56793 1.18300
Co	Co	0.99305 0.05794 0.59631 1.18300
C 	C 	0.19566 0.05991 0.58482 0.32000
Co	Co	0.08442 0.92625 0.57449 1.17800
O 	O 	0.04013 0.08667 0.55685 -0.46000
C 	C 	0.05554 0.16350 0.62997 0.33900
C 	C 	0.10597 0.87101 0.66072 0.33200
O 	O 	0.09011 0.99093 0.51986 -0.40300
O 	O 	0.99286 0.13469 0.62995 -0.40900
O 	O 	0.06996 0.13457 0.62309 -0.39400
O 	O 	0.08499 0.85972 0.62701 -0.39500
O 	O 	0.08569 0.89664 0.66565 -0.39200
O 	O 	0.03895 0.94666 0.58930 -0.75400
O 	O 	0.17792 0.00036 0.59754 -0.39700
O 	O 	0.15833 0.07282 0.58535 -0.39300
C 	C 	0.01458 0.97875 0.89942 0.04200
C 	C 	0.06039 0.04185 0.87987 -0.06500
C 	C 	0.06486 0.05368 0.84282 -0.02300
C 	C 	0.01930 0.96349 0.94168 -0.00300
H 	H 	0.09380 0.08154 0.89369 0.04900
H 	H 	0.09967 0.10279 0.82791 0.04100
H 	H 	0.02174 0.92293 0.96150 0.03500
H 	H 	0.02123 0.94299 0.78797 0.09300
C 	C 	0.01978 0.98056 0.40079 0.03400
C 	C 	0.06027 0.04364 0.37889 -0.05900
C 	C 	0.06342 0.05383 0.34189 -0.02300
C 	C 	0.02616 0.96871 0.44280 0.03200
H 	H 	0.09059 0.08479 0.39085 0.05400
H 	H 	0.09417 0.10289 0.32520 0.04300
H 	H 	0.03686 0.93386 0.46437 0.03500
H 	H 	0.02634 0.94132 0.29093 0.09500
C 	C 	0.17649 0.30728 0.67117 -0.11000
C 	C 	0.15014 0.34306 0.64416 0.00800
C 	C 	0.10724 0.32761 0.60785 0.12200
C 	C 	0.08822 0.27484 0.59995 -0.03100
C 	C 	0.10511 0.23277 0.62947 -0.12400
C 	C 	0.15346 0.25176 0.66412 0.19200
C 	C 	0.16695 0.39622 0.65403 -0.00700
O 	O 	0.08203 0.36263 0.58058 -0.27400
H 	H 	0.05347 0.26220 0.57245 0.07400
O 	O 	0.17327 0.21297 0.69267 -0.28900
H 	H 	0.21264 0.32090 0.69826 0.07100
C 	C 	0.15209 0.38427 0.68759 0.13200
C 	C 	0.17261 0.43587 0.69789 -0.07500
C 	C 	0.20673 0.49918 0.67455 -0.05100
C 	C 	0.21419 0.50953 0.63875 0.15400
C 	C 	0.19707 0.45891 0.62947 -0.09200
O 	O 	0.11622 0.32226 0.70975 -0.27600
H 	H 	0.16496 0.42706 0.72498 0.06400
O 	O 	0.24391 0.57054 0.61446 -0.28400
H 	H 	0.20808 0.46863 0.60339 0.08300
H 	H 	0.21436 0.22891 0.68697 0.15300
H 	H 	0.15122 0.31677 0.73133 0.14500
H 	H 	0.20559 0.57367 0.59652 0.15200
H 	H 	0.03846 0.34053 0.58642 0.15900
C 	C 	0.43626 0.71942 0.65675 -0.07800
C 	C 	0.43035 0.70023 0.69483 -0.04700
H 	H 	0.39169 0.70842 0.63257 0.07400
H 	H 	0.47198 0.65245 0.77484 0.15000
C 	C 	0.22829 0.83237 0.70806 -0.11500
C 	C 	0.18149 0.76466 0.71567 0.01100
C 	C 	0.11674 0.73533 0.71905 0.12000
C 	C 	0.09653 0.77390 0.70984 -0.03100
C 	C 	0.13858 0.84103 0.69433 -0.12300
C 	C 	0.20734 0.87062 0.69818 0.19300
C 	C 	0.19632 0.72590 0.71375 -0.01000
O 	O 	0.07218 0.66915 0.72972 -0.26900
H 	H 	0.04465 0.75074 0.70940 0.05700
O 	O 	0.25139 0.93672 0.68673 -0.28900
H 	H 	0.27934 0.85546 0.70705 0.07500
C 	C 	0.17648 0.71322 0.67801 0.13400
C 	C 	0.19505 0.68085 0.67557 -0.07600
C 	C 	0.23429 0.66168 0.70847 -0.04700
C 	C 	0.25240 0.67266 0.74452 0.15300
C 	C 	0.23317 0.70445 0.74704 -0.09100
O 	O 	0.13861 0.73212 0.64549 -0.28000
H 	H 	0.18079 0.67255 0.64777 0.06400
O 	O 	0.28800 0.65155 0.77740 -0.27800
H 	H 	0.24795 0.71335 0.77473 0.07500
H 	H 	0.27365 0.95192 0.71079 0.15600
H 	H 	0.17242 0.77653 0.63241 0.15100
H 	H 	0.33676 0.68876 0.77860 0.15100
H 	H 	0.04529 0.65527 0.70485 0.15200
C 	C 	0.14431 0.32895 0.12641 -0.11300
C 	C 	0.18545 0.33688 0.16409 0.01200
C 	C 	0.20514 0.29491 0.18856 0.11500
C 	C 	0.17676 0.24108 0.17698 -0.03100
C 	C 	0.13026 0.22990 0.14070 -0.12400
C 	C 	0.11933 0.27746 0.11416 0.19900
C 	C 	0.20612 0.38809 0.17802 -0.00800
O 	O 	0.24941 0.30459 0.22440 -0.27400
H 	H 	0.18698 0.20566 0.19736 0.05900
O 	O 	0.07980 0.27096 0.07703 -0.27800
H 	H 	0.12898 0.36091 0.10717 0.07700
C 	C 	0.23752 0.45266 0.15561 0.13400
C 	C 	0.25238 0.49963 0.16744 -0.07600
C 	C 	0.24302 0.48476 0.20365 -0.04700
C 	C 	0.21040 0.42009 0.22580 0.15200
C 	C 	0.19076 0.37179 0.21252 -0.08900
O 	O 	0.25843 0.47091 0.12381 -0.27500
H 	H 	0.27687 0.54922 0.15001 0.06400
O 	O 	0.20106 0.40452 0.26132 -0.28200
H 	H 	0.16474 0.32194 0.22940 0.07700
H 	H 	0.03345 0.25039 0.07827 0.16900
H 	H 	0.22303 0.47336 0.10066 0.14900
H 	H 	0.15512 0.39285 0.25557 0.14600
H 	H 	0.29548 0.33298 0.21958 0.15200
C 	C 	0.50363 0.67872 0.25367 -0.07600
C 	C 	0.45857 0.69372 0.22409 -0.04800
C 	C 	0.47972 0.74266 0.19005 0.15400
H 	H 	0.48838 0.64208 0.28032 0.06600
O 	O 	0.43771 0.76002 0.16141 -0.28200
H 	H 	0.41005 0.73143 0.14346 0.15200
C 	C 	0.13902 0.61800 0.22386 -0.08800
C 	C 	0.17546 0.68189 0.22541 -0.01000
C 	C 	0.24741 0.72132 0.23252 0.13700
C 	C 	0.28021 0.69566 0.23874 -0.07800
C 	C 	0.24278 0.63742 0.22838 -0.03900
C 	C 	0.17041 0.59999 0.21880 0.14900
C 	C 	0.13755 0.70921 0.21452 0.00900
O 	O 	0.28576 0.78485 0.23269 -0.28000
H 	H 	0.33479 0.72229 0.25039 0.06700
O 	O 	0.13109 0.55337 0.19881 -0.27900
H 	H 	0.08493 0.58410 0.22283 0.08000
C 	C 	0.07554 0.68954 0.18555 0.11100
C 	C 	0.04150 0.71552 0.17582 -0.02300
C 	C 	0.07677 0.77359 0.18512 -0.12500
C 	C 	0.13703 0.79244 0.21503 0.19500
C 	C 	0.16413 0.75682 0.23178 -0.11200
O 	O 	0.05110 0.64933 0.16451 -0.27500
O 	O 	0.16938 0.84505 0.22796 -0.28100
H 	H 	0.20651 0.76752 0.25718 0.09200
H 	H 	0.10599 0.51160 0.21743 0.14500
H 	H 	0.07277 0.67835 0.14193 0.14800
H 	H 	0.20298 0.88238 0.21173 0.15900
H 	H 	0.28936 0.80961 0.20523 0.15300
H 	H 	0.02608 0.73457 0.63054 0.16200
C 	C 	0.51256 0.25726 0.56502 -0.09000
C 	C 	0.44678 0.21870 0.54331 -0.01000
C 	C 	0.43839 0.20822 0.50963 0.13400
C 	C 	0.49569 0.23866 0.49706 -0.07700
C 	C 	0.38691 0.18615 0.55729 0.00900
O 	O 	0.37430 0.16908 0.48869 -0.27800
H 	H 	0.48900 0.23235 0.47040 0.06600
H 	H 	0.51940 0.26479 0.59125 0.07900
C 	C 	0.37780 0.14128 0.59390 0.11400
C 	C 	0.31841 0.10684 0.60553 -0.03000
C 	C 	0.26556 0.11318 0.57972 -0.12400
C 	C 	0.27689 0.16176 0.54456 0.19300
C 	C 	0.33772 0.19839 0.53357 -0.11100
O 	O 	0.42618 0.12992 0.61793 -0.27200
H 	H 	0.31108 0.07123 0.63337 0.06800
O 	O 	0.22638 0.16969 0.51940 -0.29300
H 	H 	0.34543 0.23442 0.50591 0.08300
H 	H 	0.41314 0.09446 0.61040 0.14600
H 	H 	0.23470 0.20270 0.52684 0.15500
H 	H 	0.36330 0.12500 0.50045 0.14600
C 	C 	0.47325 0.20304 0.03416 -0.09900
C 	C 	0.45910 0.16683 0.07128 -0.01000
C 	C 	0.50870 0.16049 0.10316 0.14100
C 	C 	0.57286 0.19251 0.09796 -0.07700
C 	C 	0.53677 0.23394 0.02885 0.15400
C 	C 	0.39010 0.13059 0.07567 0.00900
O 	O 	0.49388 0.12158 0.13905 -0.27700
O 	O 	0.55063 0.27081 0.99258 -0.28400
H 	H 	0.43479 0.20706 0.00936 0.06900
C 	C 	0.37827 0.14946 0.09562 0.11900
C 	C 	0.31210 0.11436 0.09934 -0.03500
C 	C 	0.25742 0.06174 0.08219 -0.11500
C 	C 	0.26907 0.04585 0.06013 0.17700
C 	C 	0.33526 0.07914 0.05783 -0.11100
O 	O 	0.43140 0.20112 0.11221 -0.27600
H 	H 	0.30367 0.12724 0.11616 0.06200
O 	O 	0.21579 0.99653 0.04162 -0.28000
H 	H 	0.34394 0.06535 0.04174 0.07200
H 	H 	0.43425 0.23935 0.09157 0.14800
H 	H 	0.20182 0.01777 0.01459 0.13900
H 	H 	0.50914 0.15066 0.15338 0.15900
C 	C 	0.01847 0.98336 0.76820 -0.17000
C 	C 	0.02254 0.98092 0.27062 -0.16800
C 	C 	0.01736 0.99471 0.23201 0.35400
C 	C 	0.01042 0.99636 0.72923 0.35300
C 	C 	0.49830 0.74890 0.65007 0.14600
C 	C 	0.48815 0.71380 0.72614 0.15300
O 	O 	0.50188 0.76280 0.61315 -0.27300
O 	O 	0.48350 0.69672 0.76338 -0.28300
H 	H 	0.51242 0.80666 0.60020 0.16300
H 	H 	0.53832 0.24106 0.98000 0.14800
C 	C 	0.04093 0.98972 0.99930 0.32800
O 	O 	0.02356 0.00604 0.01493 -0.39400
O 	O 	0.02116 0.04755 0.20820 -0.40800
O 	O 	0.01614 0.95903 0.21931 -0.38700
C 	C 	0.04043 0.99684 0.49726 0.35600
O 	O 	0.01551 0.00866 0.51073 -0.39800
O 	O 	0.01075 0.04739 0.70550 -0.40300
O 	O 	0.00895 0.96132 0.71583 -0.38600
C 	C 	0.02396 0.00264 0.82477 -0.01200
C 	C 	0.02181 0.99859 0.95618 -0.12200
C 	C 	0.02004 0.01823 0.78260 0.01500
H 	H 	0.02024 0.06037 0.76330 0.03800
C 	C 	0.02617 0.00119 0.32607 -0.01000
C 	C 	0.02033 0.00051 0.45483 -0.17600
C 	C 	0.01997 0.01410 0.28389 0.02000
H 	H 	0.01590 0.05361 0.26363 0.03500
O 	O 	0.02280 0.75632 0.60225 -0.29100
C 	C 	0.58766 0.23057 0.06106 -0.05200
C 	C 	0.56142 0.27773 0.51865 -0.04600
C 	C 	0.56967 0.28541 0.55341 0.15200
H 	H 	0.61178 0.18947 0.12284 0.06400
H 	H 	0.57583 0.70554 0.15060 0.14800
C 	C 	0.55077 0.74472 0.71934 -0.09600
C 	C 	0.55569 0.76099 0.68151 -0.01100
C 	C 	0.58406 0.75126 0.21223 -0.01100
C 	C 	0.56399 0.70416 0.24694 0.13500
C 	C 	0.54326 0.77267 0.18486 -0.08900
O 	O 	0.60245 0.68181 0.27388 -0.28100
H 	H 	0.55969 0.81100 0.15890 0.08200
H 	H 	0.58467 0.64461 0.26586 0.14700
C 	C 	0.68512 0.26100 0.04597 -0.09700
C 	C 	0.65880 0.27674 0.05766 0.07800
H 	H 	0.65732 0.21134 0.04571 0.06100
H 	H 	0.67560 0.35202 0.06884 0.06900
C 	C 	0.64495 0.28503 0.50414 -0.08700
C 	C 	0.62138 0.31569 0.50318 0.07600
C 	C 	0.66275 0.38320 0.49548 -0.09200
H 	H 	0.61271 0.23275 0.50938 0.07000
H 	H 	0.64379 0.40696 0.49376 0.06200
C 	C 	0.62185 0.79376 0.67456 0.01300
H 	H 	0.59526 0.75532 0.74352 0.06900
O 	O 	0.63416 0.89454 0.64373 -0.27200
C 	C 	0.64873 0.77953 0.20507 0.01200
O 	O 	0.58990 0.75025 0.14324 -0.27200
O 	O 	0.63359 0.31897 0.57659 -0.27100
H 	H 	0.64721 0.36359 0.56885 0.15400
H 	H 	0.61892 0.70765 0.70064 0.07800
C 	C 	0.69573 0.34024 0.05921 -0.09400
C 	C 	0.65958 0.86019 0.65639 0.11800
H 	H 	0.65036 0.91072 0.66629 0.14800
C 	C 	0.64968 0.78054 0.16995 0.11200
H 	H 	0.68970 0.44657 0.99415 0.07100
C 	C 	0.64825 0.75910 0.68709 -0.11400
H 	H 	0.65805 0.06754 0.51334 0.14600
H 	H 	0.64891 0.22901 0.97183 0.14500
H 	H 	0.68584 0.08344 0.01100 0.14400
O 	O 	0.70256 0.54190 0.99745 -0.28000
H 	H 	0.67182 0.51641 0.01512 0.15500
O 	O 	0.69122 0.27022 0.96366 -0.28100
C 	C 	0.71202 0.32169 0.50099 0.07600
C 	C 	0.73217 0.41833 0.49859 0.07600
C 	C 	0.71357 0.79127 0.68335 0.19700
C 	C 	0.70995 0.80661 0.23322 -0.11500
C 	C 	0.71223 0.81480 0.16157 -0.02800
H 	H 	0.70994 0.80565 0.26048 0.08800
O 	O 	0.66225 0.26292 0.44160 -0.28500
O 	O 	0.69106 0.08113 0.53789 -0.27400
H 	H 	0.73728 0.62688 0.50814 0.14400
O 	O 	0.71944 0.09547 0.03580 -0.27700
C 	C 	0.73714 0.47641 0.01300 -0.07700
H 	H 	0.71303 0.82004 0.13323 0.06200
C 	C 	0.71047 0.25911 0.47410 0.15200
H 	H 	0.68840 0.30222 0.42226 0.14900
H 	H 	0.73649 0.21572 0.96279 0.06800
C 	C 	0.74658 0.30977 0.03363 0.07600
Co	Co	0.00026 0.89409 0.62701 1.18900
H 	H 	0.95181 0.18929 0.99099 0.15400
H 	H 	0.99235 0.69746 0.15507 0.05100
H 	H 	0.85985 0.31343 0.07546 0.06500
C 	C 	0.75385 0.38991 0.04398 0.08000
C 	C 	0.78023 0.37464 0.03180 -0.09200
H 	H 	0.82585 0.41282 0.02050 0.06600
C 	C 	0.75630 0.38829 0.49934 -0.09500
H 	H 	0.80985 0.41558 0.50089 0.06200
Co	Co	0.96144 0.93727 0.16361 1.18900
Co	Co	0.98977 0.87854 0.12699 1.18500
Co	Co	0.94634 0.04271 0.15765 1.16600
C 	C 	0.91152 0.79560 0.06820 0.31600
O 	O 	0.87645 0.03378 0.10451 -0.39500
O 	O 	0.97334 0.00899 0.13896 -0.76900
C 	C 	0.89622 0.07222 0.07129 0.31200
O 	O 	0.95482 0.85950 0.17001 -0.45800
C 	C 	0.83788 0.89846 0.17590 0.33000
O 	O 	0.99007 0.96454 0.10948 -0.58100
O 	O 	0.94269 0.07981 0.06261 -0.37100
O 	O 	0.87780 0.95189 0.18732 -0.39400
O 	O 	0.85905 0.88842 0.15860 -0.39000
O 	O 	0.95656 0.84346 0.04644 -0.39300
O 	O 	0.91045 0.80362 0.09792 -0.37800
Co	Co	0.95244 0.93844 0.66039 1.18800
Co	Co	0.93128 0.03788 0.65734 1.16600
C 	C 	0.94668 0.80392 0.57969 0.31400
O 	O 	0.85705 0.02628 0.60596 -0.40100
O 	O 	0.95893 0.00789 0.63588 -0.76800
C 	C 	0.87353 0.06483 0.57204 0.31800
O 	O 	0.95679 0.86700 0.66812 -0.45900
C 	C 	0.82587 0.89586 0.67098 0.32700
O 	O 	0.97801 0.96703 0.60451 -0.57600
O 	O 	0.91552 0.07079 0.56021 -0.37600
O 	O 	0.86774 0.94440 0.68729 -0.41000
O 	O 	0.84931 0.88289 0.65743 -0.37600
O 	O 	0.98497 0.85374 0.55472 -0.38600
O 	O 	0.93584 0.81168 0.60504 -0.37800
C 	C 	0.97793 0.93954 0.84424 -0.01500
C 	C 	0.97368 0.92766 0.88140 -0.05800
H 	H 	0.94442 0.89990 0.83037 0.03900
H 	H 	0.93903 0.87853 0.89638 0.04700
H 	H 	0.01276 0.03510 0.93650 0.06900
C 	C 	0.98537 0.93800 0.34788 -0.01300
C 	C 	0.98288 0.92777 0.38518 -0.05300
H 	H 	0.95449 0.89693 0.33575 0.04400
H 	H 	0.95246 0.87874 0.40200 0.05100
H 	H 	0.00330 0.03072 0.43349 0.08900
C 	C 	0.72362 0.89173 0.65152 -0.03000
C 	C 	0.75218 0.85827 0.66627 -0.12500
H 	H 	0.75290 0.94327 0.63834 0.05800
O 	O 	0.73989 0.75742 0.69696 -0.28200
H 	H 	0.76335 0.75918 0.72473 0.14900
C 	C 	0.77361 0.84552 0.18881 -0.12900
C 	C 	0.77160 0.83640 0.22601 0.19800
O 	O 	0.83079 0.86117 0.25431 -0.28800
H 	H 	0.83689 0.82600 0.26916 0.14900
C 	C 	0.73101 0.22355 0.47848 -0.09300
C 	C 	0.77934 0.21828 0.51191 -0.01000
C 	C 	0.80815 0.24985 0.54079 0.13900
C 	C 	0.78756 0.28529 0.53647 -0.07700
C 	C 	0.73779 0.28907 0.50357 -0.04800
C 	C 	0.79602 0.17579 0.51815 0.00900
O 	O 	0.85659 0.24625 0.57322 -0.28100
H 	H 	0.80917 0.30861 0.55913 0.06600
H 	H 	0.70861 0.19928 0.45617 0.06800
C 	C 	0.75308 0.10870 0.53356 0.11300
C 	C 	0.77577 0.07060 0.54729 -0.03300
C 	C 	0.84146 0.09910 0.54596 -0.12600
C 	C 	0.88090 0.16476 0.52623 0.19400
C 	C 	0.85850 0.20304 0.51293 -0.11400
H 	H 	0.74385 0.01958 0.56107 0.06000
O 	O 	0.94333 0.19267 0.52231 -0.29400
H 	H 	0.89101 0.25442 0.50008 0.07900
H 	H 	0.93414 0.18769 0.49680 0.15500
H 	H 	0.83071 0.20752 0.59286 0.15100
C 	C 	0.92665 0.66862 0.57214 -0.11500
C 	C 	0.85742 0.63213 0.55391 0.01300
C 	C 	0.81498 0.64581 0.55047 0.11700
C 	C 	0.84341 0.69914 0.56253 -0.02800
C 	C 	0.91379 0.73841 0.57829 -0.12100
C 	C 	0.95465 0.72071 0.58495 0.18900
C 	C 	0.82961 0.57888 0.53924 -0.00800
O 	O 	0.74580 0.60624 0.53642 -0.27100
H 	H 	0.81125 0.71149 0.55805 0.05900
H 	H 	0.95911 0.65702 0.57600 0.07800
C 	C 	0.81407 0.58615 0.49890 0.13600
C 	C 	0.78901 0.53562 0.48548 -0.07800
C 	C 	0.77995 0.47809 0.51213 -0.05000
C 	C 	0.80175 0.47360 0.55255 0.15200
C 	C 	0.82507 0.52325 0.56592 -0.09500
O 	O 	0.82541 0.64323 0.47272 -0.27800
H 	H 	0.77355 0.53995 0.45433 0.06300
O 	O 	0.79497 0.41830 0.57898 -0.27500
H 	H 	0.83933 0.51838 0.59707 0.07300
H 	H 	0.78104 0.63658 0.46318 0.14500
H 	H 	0.83858 0.42576 0.58435 0.14700
C 	C 	0.76381 0.23744 0.98722 -0.09200
C 	C 	0.81634 0.23255 0.01580 -0.00800
C 	C 	0.85279 0.26247 0.04684 0.13900
C 	C 	0.83326 0.29271 0.05065 -0.07700
C 	C 	0.77667 0.29228 0.02410 -0.04600
C 	C 	0.74349 0.26671 0.99142 0.15200
C 	C 	0.82579 0.18775 0.01688 0.00500
O 	O 	0.90646 0.26080 0.07400 -0.28200
C 	C 	0.78016 0.12065 0.03098 0.11300
C 	C 	0.79953 0.08021 0.04371 -0.03700
C 	C 	0.86472 0.10652 0.04299 -0.12100
C 	C 	0.90488 0.17143 0.02247 0.18700
C 	C 	0.88604 0.21223 0.01026 -0.11100
H 	H 	0.76610 0.02930 0.05708 0.06000
O 	O 	0.96460 0.19613 0.01665 -0.27900
H 	H 	0.92002 0.26344 0.99770 0.08000
H 	H 	0.88608 0.22074 0.09473 0.14600
C 	C 	0.85882 0.55307 0.06205 -0.09100
C 	C 	0.81046 0.56670 0.04256 -0.01200
C 	C 	0.74994 0.52877 0.01729 0.14000
C 	C 	0.78110 0.45765 0.03651 -0.04800
C 	C 	0.84381 0.49805 0.05965 0.15300
C 	C 	0.82329 0.62061 0.04863 0.01200
O 	O 	0.88818 0.48135 0.08210 -0.28100
H 	H 	0.90703 0.58388 0.08008 0.06800
C 	C 	0.83538 0.62226 0.08643 0.11300
C 	C 	0.85555 0.67726 0.09229 -0.03200
C 	C 	0.86436 0.73091 0.06071 -0.12200
C 	C 	0.84325 0.72538 0.02242 0.19500
C 	C 	0.82462 0.67120 0.01660 -0.11500
O 	O 	0.82672 0.56999 0.11750 -0.27000
H 	H 	0.86910 0.67995 0.12175 0.05900
O 	O 	0.84139 0.77323 0.99071 -0.28200
H 	H 	0.81304 0.66937 0.98725 0.08200
H 	H 	0.91906 0.50270 0.06544 0.14700
H 	H 	0.87280 0.57968 0.13012 0.14900
H 	H 	0.88451 0.80055 0.98259 0.15000
