data_crystal

_cell_length_a 25.28727
_cell_length_b 25.83368
_cell_length_c 17.53262
_cell_angle_alpha 95.48700
_cell_angle_beta  95.48403
_cell_angle_gamma 125.83880

_symmetry_space_group_name_	'P 1'
_symmetry_space_group_name_H-M	'P 1'

loop_
_symmetry_equiv_pos_as_xyz
  x,y,z

loop_
_atom_site_label
_atom_site_type_symbol
_atom_site_fract_x
_atom_site_fract_y
_atom_site_fract_z
_atom_site_charge
C 	C 	0.04814 0.02724 0.83057 0.13000
N 	N 	0.01986 0.05677 0.85038 -0.10900
C 	C 	0.04016 0.01806 0.57090 0.12900
N 	N 	0.00877 0.04349 0.54671 -0.11700
C 	C 	0.50617 0.26673 0.47668 0.30800
C 	C 	0.35920 0.15389 0.56936 -0.11600
C 	C 	0.31280 0.16265 0.53664 0.01300
C 	C 	0.32972 0.20528 0.48361 0.11700
C 	C 	0.39299 0.23935 0.46442 -0.02900
C 	C 	0.43941 0.23033 0.49676 -0.12200
C 	C 	0.42202 0.18692 0.54907 0.19400
C 	C 	0.24506 0.12396 0.55392 -0.00900
O 	O 	0.28470 0.21423 0.45118 -0.26700
H 	H 	0.40601 0.27296 0.42463 0.06100
O 	O 	0.46643 0.17688 0.58057 -0.29200
H 	H 	0.34616 0.12064 0.60967 0.07500
C 	C 	0.20050 0.05703 0.52287 0.14600
C 	C 	0.13416 0.02215 0.53145 -0.09000
C 	C 	0.11167 0.05356 0.57095 -0.04500
C 	C 	0.15713 0.11974 0.60591 0.16300
C 	C 	0.22361 0.15468 0.59725 -0.08500
O 	O 	0.22083 0.02648 0.48021 -0.28400
O 	O 	0.13628 0.15080 0.64636 -0.27000
H 	H 	0.25813 0.20596 0.62270 0.08400
H 	H 	0.45803 0.14009 0.54382 0.13400
H 	H 	0.14276 0.14621 0.70130 0.16000
H 	H 	0.25985 0.18097 0.40260 0.15100
C 	C 	0.34644 0.12453 0.92353 -0.11900
C 	C 	0.32633 0.14670 0.86576 0.00800
C 	C 	0.37371 0.19500 0.82855 0.12400
C 	C 	0.44104 0.22264 0.85142 -0.03700
C 	C 	0.46206 0.20428 0.91366 -0.11700
C 	C 	0.41395 0.15369 0.94858 0.19900
C 	C 	0.25660 0.12332 0.84952 -0.00600
O 	O 	0.35489 0.21845 0.77365 -0.26800
H 	H 	0.47726 0.26043 0.82295 0.06900
O 	O 	0.43268 0.13331 0.00781 -0.28900
H 	H 	0.30985 0.08648 0.95143 0.07700
C 	C 	0.21201 0.07484 0.78417 0.13600
C 	C 	0.14416 0.04666 0.77534 -0.07200
C 	C 	0.12028 0.06637 0.83162 -0.05100
C 	C 	0.16564 0.11732 0.89494 0.16200
C 	C 	0.23349 0.14592 0.90308 -0.09500
O 	O 	0.23461 0.05498 0.72892 -0.28600
O 	O 	0.14361 0.13803 0.95005 -0.26800
H 	H 	0.26789 0.18406 0.95282 0.07600
H 	H 	0.43793 0.16005 0.05660 0.15100
H 	H 	0.13479 0.11087 0.99039 0.15300
H 	H 	0.34481 0.19087 0.72311 0.15600
H 	H 	0.23529 0.00911 0.51831 0.14900
H 	H 	0.23209 0.01826 0.74620 0.15000
N 	N 	0.00396 0.95568 0.58194 -0.12000
O 	O 	0.55722 0.22001 0.99174 -0.33900
C 	C 	0.53377 0.24413 0.94831 0.29300
O 	O 	0.55810 0.29205 0.53242 -0.36500
O 	O 	0.51365 0.28219 0.40697 -0.39100
N 	N 	0.01195 0.96156 0.82072 -0.11200
O 	O 	0.57251 0.30577 0.94201 -0.39200
H 	H 	0.10980 0.00795 0.72611 0.06900
H 	H 	0.09961 0.97111 0.50485 0.09000
H 	H 	0.58945 0.23389 0.38335 0.16000
H 	H 	0.62764 0.22347 0.87099 0.18400
Cu	Cu	0.60084 0.33529 0.37436 0.90000
O 	O 	0.61965 0.33223 0.13125 -0.35500
O 	O 	0.62237 0.28088 0.40528 -0.63600
H 	H 	0.69975 0.57407 0.04129 0.14300
Cu	Cu	0.65630 0.26161 0.01984 0.92700
Cu	Cu	0.64490 0.37866 0.04177 0.89900
C 	C 	0.65343 0.31543 0.16879 0.19700
O 	O 	0.66505 0.26125 0.90990 -0.64200
Cu	Cu	0.63919 0.30233 0.51903 0.89200
O 	O 	0.64709 0.35937 0.28388 -0.35500
O 	O 	0.65724 0.31042 0.63214 -0.33500
O 	O 	0.67792 0.55733 0.98553 -0.27700
O 	O 	0.69853 0.46475 0.01105 -0.39500
O 	O 	0.66511 0.27749 0.13111 -0.31900
O 	O 	0.67558 0.32838 0.78572 -0.33800
C 	C 	0.66498 0.32684 0.24666 0.19800
Cu	Cu	0.68263 0.34500 0.89861 0.89300
C 	C 	0.68765 0.29001 0.67017 0.19600
H 	H 	0.68851 0.10269 0.31916 0.06000
C 	C 	0.69762 0.29978 0.74783 0.19600
O 	O 	0.70263 0.35997 0.01235 -0.64100
Cu	Cu	0.69252 0.23409 0.52292 0.86300
O 	O 	0.68485 0.19690 0.42042 -0.43900
O 	O 	0.67606 0.40809 0.47230 -0.39900
O 	O 	0.67857 0.11074 0.95083 -0.28000
H 	H 	0.67589 0.12247 0.89908 0.13000
O 	O 	0.69973 0.21891 0.04177 -0.34400
O 	O 	0.69204 0.42402 0.88537 -0.37700
C 	C 	0.71357 0.47360 0.94120 0.32400
O 	O 	0.70456 0.31641 0.28453 -0.31800
O 	O 	0.71036 0.26184 0.63322 -0.38500
C 	C 	0.72868 0.57884 0.94480 0.19900
O 	O 	0.72764 0.27874 0.78486 -0.38600
H 	H 	0.74573 0.67055 0.94169 0.07600
Cu	Cu	0.72259 0.32706 0.39600 0.93000
O 	O 	0.72494 0.32054 0.50659 -0.64600
O 	O 	0.72930 0.03106 0.33938 -0.27300
H 	H 	0.74213 0.02806 0.28834 0.15600
C 	C 	0.73743 0.22426 0.38793 0.31500
C 	C 	0.73825 0.12932 0.35312 -0.03200
H 	H 	0.72707 0.61555 0.62127 0.15800
H 	H 	0.73165 0.50419 0.59625 0.06200
H 	H 	0.75030 0.39269 0.03552 0.15800
C 	C 	0.73843 0.44690 0.46402 0.29200
C 	C 	0.75988 0.63973 0.92307 -0.11500
C 	C 	0.74751 0.53891 0.92171 -0.12500
Cu	Cu	0.75415 0.29425 0.89541 0.86300
C 	C 	0.76547 0.09638 0.36836 0.11700
O 	O 	0.76517 0.28332 0.37416 -0.34300
C 	C 	0.74494 0.14179 0.97775 0.20000
C 	C 	0.75934 0.24427 0.02662 0.31000
O 	O 	0.76390 0.42409 0.42187 -0.34400
H 	H 	0.76367 0.35784 0.54470 0.18300
H 	H 	0.74331 0.06256 0.92264 0.08200
C 	C 	0.76322 0.53872 0.56121 -0.03900
C 	C 	0.77340 0.19552 0.38530 -0.13000
C 	C 	0.77705 0.51753 0.49429 -0.11700
O 	O 	0.76884 0.62234 0.64288 -0.27200
H 	H 	0.78121 0.70057 0.44958 0.07000
H 	H 	0.72284 0.70020 0.80339 0.15100
C 	C 	0.78661 0.60354 0.58051 0.11700
C 	C 	0.77371 0.11075 0.95861 -0.12200
O 	O 	0.78933 0.29740 0.99731 -0.43000
C 	C 	0.78454 0.20526 0.02256 -0.14600
C 	C 	0.79711 0.56033 0.87650 -0.02900
O 	O 	0.75195 0.69883 0.77047 -0.27000
H 	H 	0.80068 0.53364 0.34142 0.14800
H 	H 	0.78813 0.05233 0.52439 0.06600
H 	H 	0.81183 0.52988 0.85847 0.04800
O 	O 	0.01014 0.88556 0.93066 -0.25600
C 	C 	0.82048 0.73572 0.49834 -0.09800
C 	C 	0.81956 0.56342 0.45042 0.18800
C 	C 	0.80986 0.66127 0.87846 0.01500
C 	C 	0.81550 0.74506 0.81071 0.13500
C 	C 	0.82741 0.64879 0.53541 0.01000
C 	C 	0.82807 0.62108 0.85460 0.12000
O 	O 	0.82113 0.82012 0.45132 -0.27000
O 	O 	0.83503 0.54436 0.38580 -0.27900
C 	C 	0.82825 0.12959 0.41641 0.00900
C 	C 	0.82812 0.05667 0.50014 -0.08300
H 	H 	0.82595 0.82226 0.75906 0.07300
H 	H 	0.00547 0.90323 0.98022 0.15700
C 	C 	0.84534 0.62885 0.47196 -0.11400
C 	C 	0.83822 0.22969 0.42891 0.18500
C 	C 	0.84202 0.14289 0.98271 0.02900
O 	O 	0.83097 0.03961 0.04443 -0.29100
O 	O 	0.83003 0.99072 0.58617 -0.23800
C 	C 	0.84775 0.71600 0.55102 -0.00800
C 	C 	0.84609 0.80131 0.50589 0.16100
C 	C 	0.85357 0.09367 0.44169 -0.01200
C 	C 	0.85521 0.02642 0.52875 0.13400
C 	C 	0.84666 0.72792 0.86227 -0.01000
C 	C 	0.85003 0.80934 0.79905 -0.07200
H 	H 	0.85495 0.62517 0.75688 0.16200
C 	C 	0.85201 0.23554 0.05095 -0.02300
H 	H 	0.84795 0.82964 0.40979 0.15000
C 	C 	0.86545 0.19671 0.44393 -0.11600
H 	H 	0.86340 0.29727 0.51148 0.12900
C 	C 	0.86591 0.06169 0.98521 0.16100
H 	H 	0.86431 0.06566 0.09326 0.15700
H 	H 	0.85614 0.02206 0.63600 0.12600
O 	O 	0.87421 0.29483 0.45895 -0.28200
O 	O 	0.87777 0.64208 0.81226 -0.27500
C 	C 	0.87329 0.11317 0.95380 -0.02100
H 	H 	0.87742 0.66371 0.43755 0.07500
C 	C 	0.88092 0.20484 0.03071 0.09500
H 	H 	0.88270 0.28407 0.08608 0.05500
H 	H 	0.88699 0.99207 0.97942 0.09100
C 	C 	0.89298 0.03175 0.95485 -0.10200
C 	C 	0.95601 0.02078 0.86174 0.10700
C 	C 	0.89728 0.76145 0.61548 0.14300
C 	C 	0.92169 0.82674 0.62436 -0.07100
C 	C 	0.89833 0.84766 0.56815 -0.04900
O 	O 	0.92511 0.74312 0.66684 -0.27500
H 	H 	0.90003 0.73286 0.71013 0.16500
H 	H 	0.91452 0.22286 0.47950 0.07100
C 	C 	0.90500 0.09859 0.40994 0.13700
C 	C 	0.93162 0.06783 0.43786 -0.07400
C 	C 	0.90789 0.03269 0.49832 -0.03800
O 	O 	0.92836 0.13228 0.35048 -0.27700
H 	H 	0.97129 0.07191 0.41305 0.06700
H 	H 	0.96590 0.17729 0.37645 0.15000
C 	C 	0.91234 0.77519 0.90115 -0.08700
H 	H 	0.93650 0.76224 0.94097 0.07400
C 	C 	0.90904 0.13525 0.89315 -0.08800
C 	C 	0.92825 0.05331 0.89357 -0.03600
C 	C 	0.93634 0.10548 0.86281 0.15100
O 	O 	0.97131 0.12779 0.80365 -0.27500
H 	H 	0.91507 0.17510 0.86895 0.06200
O 	O 	0.94708 0.23531 0.05823 -0.26700
H 	H 	0.93791 0.10241 0.75479 0.14200
H 	H 	0.97056 0.26168 0.01900 0.14000
H 	H 	0.96121 0.86174 0.67299 0.07100
C 	C 	0.91517 0.85697 0.83958 -0.05000
C 	C 	0.94644 0.83956 0.89056 0.14200
C 	C 	0.94864 0.92553 0.83334 0.12600
N 	N 	0.90525 0.94374 0.54297 -0.11000
C 	C 	0.93660 0.91803 0.56702 0.12800
N 	N 	0.92051 0.95514 0.85288 -0.12800
C 	C 	0.94139 0.00658 0.53271 0.10800
