data_crystal

_cell_length_a 35.91107
_cell_length_b 32.38656
_cell_length_c 19.87519
_cell_angle_alpha 92.66130
_cell_angle_beta  85.31992
_cell_angle_gamma 124.19526

_symmetry_space_group_name_	'P 1'
_symmetry_space_group_name_H-M	'P 1'

loop_
_symmetry_equiv_pos_as_xyz
  x,y,z

loop_
_atom_site_label
_atom_site_type_symbol
_atom_site_fract_x
_atom_site_fract_y
_atom_site_fract_z
_atom_site_charge
C 	C 	0.93235 0.85179 0.88087 -0.00700
C 	C 	0.96457 0.87537 0.82655 -0.02500
C 	C 	0.99290 0.92743 0.82366 -0.06800
C 	C 	0.98919 0.95649 0.87475 0.07500
C 	C 	0.95717 0.93277 0.92970 -0.07200
C 	C 	0.92882 0.88071 0.93248 -0.02500
N 	N 	0.01713 0.01028 0.86898 -0.14300
C 	C 	0.94135 0.07465 0.89579 -0.00500
C 	C 	0.96415 0.07440 0.94970 -0.02300
C 	C 	0.98979 0.05406 0.94109 -0.06900
C 	C 	0.99287 0.03386 0.87821 0.08100
C 	C 	0.97079 0.03516 0.82427 -0.07200
C 	C 	0.94499 0.05519 0.83300 -0.02300
C 	C 	0.14740 0.08278 0.94437 0.00100
C 	C 	0.14057 0.10220 0.88857 -0.02700
C 	C 	0.09735 0.07926 0.86581 -0.06800
C 	C 	0.06054 0.03631 0.89791 0.07500
C 	C 	0.06704 0.01837 0.95611 -0.06200
C 	C 	0.11032 0.04136 0.97883 -0.03300
C 	C 	0.85845 0.13155 0.91842 0.00200
C 	C 	0.83916 0.08079 0.90416 -0.03300
C 	C 	0.86613 0.06210 0.89795 -0.04200
C 	C 	0.91267 0.09403 0.90545 0.01500
C 	C 	0.93200 0.14476 0.91970 -0.04300
C 	C 	0.90501 0.16348 0.92602 -0.02800
C 	C 	0.84837 0.69219 0.89179 0.00100
C 	C 	0.84586 0.71695 0.83802 -0.03300
C 	C 	0.87297 0.76908 0.83478 -0.04300
C 	C 	0.90324 0.79681 0.88475 0.01400
C 	C 	0.90581 0.77201 0.93837 -0.04400
C 	C 	0.87832 0.71993 0.94205 -0.02900
C 	C 	0.28014 0.13867 0.00298 0.01200
C 	C 	0.26818 0.12065 0.93723 -0.04100
C 	C 	0.22510 0.10311 0.91789 -0.03600
C 	C 	0.19364 0.10373 0.96393 0.00500
C 	C 	0.20599 0.12304 0.02912 -0.03400
C 	C 	0.24914 0.14056 0.04851 -0.03400
H 	H 	0.96795 0.85337 0.78691 0.03600
H 	H 	0.01787 0.94518 0.78182 0.04900
H 	H 	0.95452 0.95459 0.97031 0.04800
H 	H 	0.90417 0.86282 0.97480 0.03700
H 	H 	0.96139 0.08918 0.99849 0.03800
H 	H 	0.00621 0.05281 0.98351 0.04800
H 	H 	0.97339 0.02022 0.77574 0.05400
H 	H 	0.92756 0.05530 0.79108 0.03700
H 	H 	0.16887 0.13455 0.86214 0.03700
H 	H 	0.09251 0.09427 0.82233 0.05000
H 	H 	0.03885 0.98682 0.98365 0.04400
H 	H 	0.11517 0.02640 0.02241 0.04300
H 	H 	0.80337 0.05594 0.89734 0.04300
H 	H 	0.85093 0.02288 0.88686 0.04400
H 	H 	0.96795 0.16974 0.92519 0.04400
H 	H 	0.92023 0.20271 0.93701 0.04800
H 	H 	0.82265 0.69585 0.79915 0.04100
H 	H 	0.87027 0.78789 0.79378 0.04100
H 	H 	0.92918 0.79308 0.97704 0.04300
H 	H 	0.88053 0.70112 0.98368 0.04600
H 	H 	0.29213 0.11979 0.90134 0.04600
H 	H 	0.21597 0.08842 0.86742 0.04100
H 	H 	0.18208 0.12409 0.06484 0.04200
H 	H 	0.25815 0.15471 0.09920 0.04900
C 	C 	0.92078 0.85116 0.62591 -0.00600
C 	C 	0.95505 0.88136 0.57675 -0.02500
C 	C 	0.97761 0.93325 0.58010 -0.06800
C 	C 	0.96618 0.95544 0.63312 0.07500
C 	C 	0.93181 0.92503 0.68202 -0.06800
C 	C 	0.90915 0.87315 0.67841 -0.02400
N 	N 	0.99005 0.00906 0.63884 -0.14100
C 	C 	0.92862 0.07235 0.55175 -0.00400
C 	C 	0.94840 0.08985 0.61376 -0.02400
C 	C 	0.96997 0.07013 0.64065 -0.06900
C 	C 	0.97092 0.03171 0.60705 0.07800
C 	C 	0.95245 0.01529 0.54366 -0.06500
C 	C 	0.93153 0.03567 0.51620 -0.02500
C 	C 	0.13236 0.08120 0.61847 -0.00600
C 	C 	0.10967 0.08066 0.56376 -0.02200
C 	C 	0.06297 0.05766 0.57017 -0.07100
C 	C 	0.03861 0.03579 0.63198 0.08000
C 	C 	0.06168 0.03824 0.68708 -0.07200
C 	C 	0.10811 0.06002 0.68021 -0.02300
C 	C 	0.85045 0.12550 0.49370 0.00400
C 	C 	0.83149 0.07398 0.49554 -0.03300
C 	C 	0.85742 0.05659 0.51232 -0.04100
C 	C 	0.90284 0.09053 0.52595 0.01400
C 	C 	0.92258 0.14199 0.51962 -0.04200
C 	C 	0.89646 0.15940 0.50384 -0.02800
C 	C 	0.84953 0.69239 0.60794 0.00200
C 	C 	0.83961 0.71902 0.56760 -0.02800
C 	C 	0.86255 0.77081 0.57407 -0.04300
C 	C 	0.89577 0.79645 0.62065 0.01300
C 	C 	0.90572 0.76992 0.66109 -0.04300
C 	C 	0.88253 0.71804 0.65504 -0.03400
C 	C 	0.27319 0.13864 0.59926 0.00300
C 	C 	0.24409 0.10404 0.55206 -0.03300
C 	C 	0.19824 0.08554 0.55812 -0.04200
C 	C 	0.18116 0.10230 0.61047 0.01500
C 	C 	0.21045 0.13782 0.65667 -0.04300
C 	C 	0.25619 0.15570 0.65129 -0.02900
H 	H 	0.96394 0.86460 0.53570 0.03900
H 	H 	0.00355 0.95608 0.54133 0.04600
H 	H 	0.92246 0.94164 0.72258 0.05000
H 	H 	0.88216 0.85005 0.71585 0.03600
H 	H 	0.94641 0.11819 0.64165 0.03900
H 	H 	0.98554 0.08426 0.68812 0.05100
H 	H 	0.95470 0.98737 0.51542 0.04600
H 	H 	0.91723 0.02264 0.46761 0.03900
H 	H 	0.12812 0.09736 0.51603 0.03800
H 	H 	0.04569 0.05574 0.52682 0.05000
H 	H 	0.04339 0.02262 0.73500 0.05400
H 	H 	0.12517 0.05988 0.72263 0.03600
H 	H 	0.79637 0.04743 0.48572 0.04300
H 	H 	0.84188 0.01680 0.51658 0.04400
H 	H 	0.95784 0.16850 0.52871 0.04500
H 	H 	0.91162 0.19923 0.50169 0.05000
H 	H 	0.81411 0.69957 0.53127 0.04800
H 	H 	0.85470 0.79105 0.54266 0.04400
H 	H 	0.93160 0.78951 0.69676 0.04100
H 	H 	0.89058 0.69789 0.68628 0.04000
H 	H 	0.25701 0.09156 0.51066 0.04300
H 	H 	0.17591 0.05792 0.52243 0.04300
H 	H 	0.19770 0.15127 0.69701 0.04200
H 	H 	0.27834 0.18254 0.68782 0.04800
Co	Co	0.70670 0.31965 0.97138 1.18200
O 	O 	0.75487 0.31700 0.90808 -0.37300
Co	Co	0.61563 0.31996 0.02213 1.18400
O 	O 	0.64666 0.29654 0.93349 -0.45800
O 	O 	0.67113 0.38662 0.03665 -0.41600
O 	O 	0.70170 0.25069 0.95665 -0.33100
C 	C 	0.70457 0.41044 0.98969 0.31300
O 	O 	0.61366 0.33336 0.91823 -0.35600
C 	C 	0.53289 0.27096 0.07123 0.27200
C 	C 	0.67868 0.31146 0.10208 0.29100
O 	O 	0.56380 0.31715 0.08335 -0.36600
O 	O 	0.54910 0.25201 0.03004 -0.32600
O 	O 	0.71838 0.32520 0.07625 -0.34800
O 	O 	0.64894 0.29191 0.05719 -0.44900
O 	O 	0.72739 0.39128 0.96408 -0.51200
C 	C 	0.73716 0.26997 0.91557 0.27500
C 	C 	0.63934 0.31990 0.89104 0.28800
H 	H 	0.75707 0.41352 0.93683 0.17800
Co	Co	0.70629 0.31934 0.47611 1.18300
O 	O 	0.75421 0.31150 0.42072 -0.37400
Co	Co	0.61753 0.32615 0.51410 1.18400
O 	O 	0.64629 0.29318 0.43587 -0.46100
O 	O 	0.67178 0.39581 0.52137 -0.40300
O 	O 	0.70009 0.24960 0.47600 -0.33300
C 	C 	0.71361 0.41376 0.49624 0.32000
O 	O 	0.61504 0.32949 0.40716 -0.36000
C 	C 	0.53599 0.28246 0.56618 0.27800
C 	C 	0.67898 0.32310 0.60447 0.32100
O 	O 	0.56754 0.32918 0.57128 -0.36600
O 	O 	0.55022 0.25965 0.52912 -0.32900
O 	O 	0.71846 0.33438 0.58119 -0.36200
O 	O 	0.64948 0.30038 0.55978 -0.46400
O 	O 	0.72331 0.38748 0.45404 -0.52700
C 	C 	0.73565 0.26526 0.43607 0.28000
C 	C 	0.63913 0.31233 0.38696 0.32300
H 	H 	0.74757 0.40519 0.41620 0.16900
C 	C 	0.64749 0.31816 0.81739 -0.04800
C 	C 	0.63949 0.34524 0.77460 -0.02500
C 	C 	0.64852 0.34520 0.70503 0.02200
C 	C 	0.66580 0.31827 0.67709 -0.13400
C 	C 	0.67218 0.28902 0.71959 0.14400
C 	C 	0.66411 0.29038 0.78981 -0.07300
H 	H 	0.64301 0.36712 0.67277 0.02800
H 	H 	0.66979 0.26889 0.82264 0.05600
H 	H 	0.62690 0.36703 0.79537 0.05700
N 	N 	0.68436 0.25836 0.69336 -0.20400
H 	H 	0.68467 0.25128 0.64163 0.11400
H 	H 	0.69124 0.23899 0.72523 0.09900
C 	C 	0.66669 0.30512 0.17541 -0.04300
C 	C 	0.70040 0.32109 0.22057 -0.02900
C 	C 	0.69031 0.31999 0.28998 0.02500
C 	C 	0.64648 0.30314 0.31542 -0.13900
C 	C 	0.61140 0.28291 0.27056 0.14600
C 	C 	0.62212 0.28545 0.20056 -0.07300
H 	H 	0.71713 0.33449 0.32396 0.01200
H 	H 	0.59568 0.27153 0.16596 0.05300
H 	H 	0.73481 0.33572 0.20186 0.05800
N 	N 	0.56750 0.25927 0.29428 -0.20400
H 	H 	0.55788 0.25008 0.34526 0.11200
H 	H 	0.54213 0.24691 0.26097 0.09900
C 	C 	0.80168 0.56873 0.52636 0.09600
C 	C 	0.77822 0.53630 0.58141 0.08900
N 	N 	0.75205 0.48623 0.57087 -0.09000
C 	C 	0.74815 0.46706 0.50738 -0.04700
C 	C 	0.77181 0.49967 0.45236 0.04700
N 	N 	0.79833 0.54978 0.46308 -0.11300
N 	N 	0.82537 0.61886 0.53624 -0.11500
N 	N 	0.77952 0.55531 0.64421 -0.10300
H 	H 	0.76745 0.48546 0.40122 0.02600
C 	C 	0.82644 0.63804 0.59906 0.04700
C 	C 	0.80301 0.60553 0.65411 0.00300
H 	H 	0.80239 0.62014 0.70397 0.03900
C 	C 	0.81096 0.20193 0.43862 0.09600
C 	C 	0.77029 0.18197 0.47834 0.09100
N 	N 	0.74625 0.20240 0.47572 -0.08900
C 	C 	0.76130 0.24243 0.43541 -0.02500
C 	C 	0.80172 0.26202 0.39498 0.04200
N 	N 	0.82577 0.24138 0.39746 -0.11100
N 	N 	0.83583 0.18256 0.44305 -0.11400
N 	N 	0.75599 0.14340 0.52074 -0.10300
H 	H 	0.81397 0.29352 0.36208 0.04300
C 	C 	0.82162 0.14391 0.48578 0.04800
C 	C 	0.78088 0.12408 0.52549 0.00400
H 	H 	0.76963 0.09424 0.56095 0.04200
C 	C 	0.39774 0.22657 0.59334 0.09600
C 	C 	0.41176 0.19418 0.57978 0.09100
N 	N 	0.45645 0.21292 0.57171 -0.08900
C 	C 	0.48787 0.26284 0.57731 -0.02300
C 	C 	0.47377 0.29512 0.59232 0.04200
N 	N 	0.42897 0.27632 0.59967 -0.11100
N 	N 	0.35305 0.20799 0.59957 -0.11400
N 	N 	0.38054 0.14434 0.57450 -0.10300
H 	H 	0.49827 0.33490 0.59727 0.04600
C 	C 	0.32162 0.15809 0.59323 0.04800
C 	C 	0.33575 0.12558 0.58147 0.00300
H 	H 	0.31124 0.08567 0.57822 0.04100
C 	C 	0.76675 0.56477 0.95966 0.09200
C 	C 	0.77037 0.53534 0.90888 0.08800
N 	N 	0.74851 0.48543 0.91834 -0.09800
C 	C 	0.72351 0.46361 0.97700 -0.05200
C 	C 	0.71883 0.49296 0.02690 0.05400
N 	N 	0.74064 0.54295 0.01723 -0.11100
N 	N 	0.79122 0.61513 0.95239 -0.11500
N 	N 	0.79787 0.55739 0.85243 -0.10500
H 	H 	0.69911 0.47639 0.07384 0.04100
C 	C 	0.81925 0.63738 0.89622 0.04700
C 	C 	0.82247 0.60785 0.84516 0.00200
H 	H 	0.84539 0.62509 0.80094 0.03800
C 	C 	0.81605 0.21051 0.89213 0.09500
C 	C 	0.77703 0.18814 0.93620 0.09000
N 	N 	0.75165 0.20731 0.94203 -0.08900
C 	C 	0.76384 0.24833 0.90595 -0.02400
C 	C 	0.80261 0.27034 0.86129 0.04000
N 	N 	0.82796 0.25099 0.85532 -0.11100
N 	N 	0.84184 0.19181 0.88711 -0.11400
N 	N 	0.76537 0.14803 0.97359 -0.10300
H 	H 	0.81256 0.30268 0.83172 0.04300
C 	C 	0.83012 0.15143 0.92438 0.04800
C 	C 	0.79116 0.12927 0.96869 0.00300
H 	H 	0.78172 0.09758 0.99932 0.04200
C 	C 	0.41043 0.18519 0.05212 0.09200
C 	C 	0.39621 0.21771 0.06100 0.09600
N 	N 	0.35361 0.20164 0.04702 -0.11300
C 	C 	0.32462 0.15421 0.02452 0.04600
C 	C 	0.33842 0.12123 0.01828 0.00500
N 	N 	0.38110 0.13746 0.03188 -0.10200
N 	N 	0.45415 0.20257 0.05958 -0.08900
N 	N 	0.42595 0.26583 0.07965 -0.11000
H 	H 	0.31552 0.08318 0.00156 0.04300
C 	C 	0.48452 0.25124 0.07559 -0.02100
C 	C 	0.46978 0.28319 0.08759 0.04100
H 	H 	0.49331 0.32195 0.10082 0.04600
