data_crystal

_cell_length_a 15.44184
_cell_length_b 15.07590
_cell_length_c 34.95205
_cell_angle_alpha 95.40323
_cell_angle_beta  95.40719
_cell_angle_gamma 126.41972

_symmetry_space_group_name_	'P 1'
_symmetry_space_group_name_H-M	'P 1'

loop_
_symmetry_equiv_pos_as_xyz
  x,y,z

loop_
_atom_site_label
_atom_site_type_symbol
_atom_site_fract_x
_atom_site_fract_y
_atom_site_fract_z
_atom_site_charge
C 	C 	0.04330 0.99879 0.95713 0.01300
H 	H 	0.02606 0.84529 0.94562 0.04400
H 	H 	0.03525 0.13631 0.96856 0.04000
C 	C 	0.05577 0.11668 0.48833 -0.08300
C 	C 	0.10547 0.06343 0.49011 0.03400
C 	C 	0.04025 0.94671 0.48817 -0.08200
H 	H 	0.10588 0.20694 0.49040 0.04700
H 	H 	0.07808 0.90552 0.49183 0.05000
C 	C 	0.22660 0.13202 0.49722 -0.00200
H 	H 	0.27482 0.21578 0.51499 0.02900
C 	C 	0.23167 0.06472 0.97738 -0.15100
C 	C 	0.16086 0.07224 0.95534 0.00400
H 	H 	0.19045 0.13778 0.93800 0.03500
C 	C 	0.27771 0.09351 0.48197 -0.14500
H 	H 	0.23104 0.01132 0.46332 0.06800
H 	H 	0.20185 0.00235 0.99609 0.07800
C 	C 	0.35024 0.14180 0.97776 0.31700
C 	C 	0.98523 0.88219 0.95202 -0.06200
C 	C 	0.98944 0.04591 0.96387 -0.05900
C 	C 	0.87756 0.97691 0.96599 0.02000
C 	C 	0.82099 0.86049 0.96263 -0.07100
C 	C 	0.87507 0.81324 0.95565 0.02700
H 	H 	0.73530 0.80698 0.96508 0.04600
C 	C 	0.94162 0.05384 0.48408 0.03500
C 	C 	0.92614 0.88315 0.48251 0.03700
C 	C 	0.87663 0.93657 0.48036 -0.08100
H 	H 	0.78806 0.88702 0.47512 0.04900
Cu	Cu	0.74599 0.32635 0.95983 0.92900
Cu	Cu	0.76534 0.24760 0.04288 0.86800
Cu	Cu	0.57440 0.24060 0.01186 0.89600
Cu	Cu	0.52946 0.29908 0.93653 0.89400
C 	C 	0.66240 0.29815 0.87882 0.28500
O 	O 	0.79576 0.48554 0.96096 -0.36600
C 	C 	0.65953 0.28735 0.09658 0.28200
O 	O 	0.57632 0.22059 0.95722 -0.64000
O 	O 	0.73697 0.33652 0.01590 -0.64500
O 	O 	0.83549 0.27088 0.96056 -0.38000
O 	O 	0.73788 0.14389 0.99899 -0.44100
O 	O 	0.60477 0.33113 0.89036 -0.38600
O 	O 	0.41660 0.14036 0.00397 -0.39700
C 	C 	0.74288 0.51936 0.97612 0.29700
O 	O 	0.64342 0.44530 0.98205 -0.39500
O 	O 	0.38799 0.22026 0.95595 -0.40200
O 	O 	0.72615 0.29085 0.90419 -0.36300
C 	C 	0.80200 0.17754 0.97297 0.30700
O 	O 	0.57312 0.23507 0.06798 -0.39000
O 	O 	0.75326 0.31090 0.09015 -0.41900
H 	H 	0.53490 0.14141 0.94404 0.16400
H 	H 	0.77502 0.41354 0.03068 0.16900
Cu	Cu	0.60003 0.18230 0.51128 0.92700
Cu	Cu	0.69239 0.19307 0.42928 0.87100
Cu	Cu	0.66855 0.36636 0.46315 0.89700
Cu	Cu	0.59475 0.38434 0.53805 0.89400
C 	C 	0.62487 0.26144 0.59247 0.28200
O 	O 	0.43887 0.11176 0.50757 -0.36900
C 	C 	0.63992 0.29687 0.37787 0.28400
O 	O 	0.68680 0.35727 0.51717 -0.64000
O 	O 	0.59280 0.20089 0.45603 -0.64100
O 	O 	0.66661 0.10210 0.50941 -0.37800
O 	O 	0.78999 0.21809 0.47354 -0.44500
O 	O 	0.57140 0.30091 0.58174 -0.38400
O 	O 	0.74823 0.52748 0.47407 -0.38900
C 	C 	0.73176 0.58352 0.50000 0.30800
C 	C 	0.39686 0.15837 0.49278 0.30200
O 	O 	0.46084 0.26478 0.49019 -0.39800
O 	O 	0.65805 0.53271 0.52252 -0.40200
O 	O 	0.62885 0.19398 0.56693 -0.35900
C 	C 	0.75678 0.14159 0.49551 0.30700
O 	O 	0.67921 0.37966 0.40776 -0.38900
O 	O 	0.62794 0.20476 0.38266 -0.42000
H 	H 	0.76392 0.40626 0.53116 0.16200
H 	H 	0.51779 0.15565 0.44031 0.16900
C 	C 	0.67652 0.29669 0.83786 -0.07000
C 	C 	0.65970 0.20334 0.81591 0.00200
C 	C 	0.66612 0.19905 0.77618 -0.05200
C 	C 	0.68571 0.28720 0.75760 0.00500
C 	C 	0.71494 0.38642 0.78100 0.00800
C 	C 	0.70737 0.38938 0.82070 -0.01600
C 	C 	0.75244 0.48188 0.76463 -0.04100
C 	C 	0.75711 0.47879 0.72499 -0.04100
C 	C 	0.71762 0.37823 0.70043 0.00800
C 	C 	0.67936 0.28035 0.71631 0.00500
C 	C 	0.62696 0.17692 0.69038 -0.05300
C 	C 	0.61668 0.17243 0.64992 0.00700
C 	C 	0.65508 0.26957 0.63453 -0.07100
C 	C 	0.70868 0.37265 0.65983 -0.01900
H 	H 	0.64161 0.13394 0.82960 0.03200
H 	H 	0.66130 0.13027 0.76076 0.04100
H 	H 	0.72581 0.46389 0.83830 0.04100
H 	H 	0.77846 0.55909 0.78275 0.03800
H 	H 	0.78715 0.55386 0.71298 0.03600
H 	H 	0.58726 0.09891 0.70100 0.04200
H 	H 	0.57313 0.09203 0.63048 0.04000
H 	H 	0.73803 0.44765 0.64778 0.02800
C 	C 	0.64496 0.30010 0.13725 -0.07700
C 	C 	0.55204 0.21187 0.14936 0.00200
C 	C 	0.54331 0.21718 0.18877 -0.05500
C 	C 	0.62602 0.31396 0.21679 0.00300
C 	C 	0.72050 0.40278 0.20443 0.00600
C 	C 	0.72817 0.39610 0.16467 -0.01900
C 	C 	0.80907 0.49412 0.23215 -0.04300
C 	C 	0.80829 0.49505 0.27204 -0.04300
C 	C 	0.71664 0.40744 0.28493 0.00500
C 	C 	0.62164 0.32044 0.25745 0.00400
C 	C 	0.52551 0.24222 0.27140 -0.05500
C 	C 	0.53031 0.23774 0.31123 0.00400
C 	C 	0.62843 0.31585 0.33791 -0.07700
C 	C 	0.71959 0.40426 0.32505 -0.01800
H 	H 	0.48866 0.13629 0.12846 0.03300
H 	H 	0.47586 0.14315 0.19744 0.03800
H 	H 	0.80039 0.46406 0.15525 0.03500
H 	H 	0.88083 0.56266 0.22279 0.03400
H 	H 	0.87971 0.56382 0.29300 0.03500
H 	H 	0.44672 0.18782 0.25203 0.03900
H 	H 	0.45777 0.17290 0.32133 0.02600
H 	H 	0.79431 0.46721 0.34599 0.03600
C 	C 	0.85882 0.75994 0.47735 -0.00600
C 	C 	0.79043 0.70504 0.50189 -0.14300
H 	H 	0.87280 0.71540 0.45563 0.04300
H 	H 	0.77918 0.75088 0.52420 0.07300
C 	C 	0.89020 0.11057 0.48030 -0.00700
C 	C 	0.81372 0.09114 0.50130 -0.15300
H 	H 	0.91779 0.17138 0.46105 0.02700
H 	H 	0.78951 0.03357 0.52168 0.07800
C 	C 	0.81559 0.69085 0.95023 -0.00600
C 	C 	0.78820 0.63818 0.98083 -0.13600
H 	H 	0.80493 0.64565 0.92187 0.03700
H 	H 	0.79650 0.68213 0.00906 0.06100
C 	C 	0.82174 0.02724 0.97504 0.00100
C 	C 	0.84131 0.11403 0.95897 -0.15300
H 	H 	0.76532 0.99382 0.99538 0.02900
H 	H 	0.89151 0.14199 0.93655 0.07900
