data_crystal

_cell_length_a 20.69597
_cell_length_b 21.52596
_cell_length_c 38.89097
_cell_angle_alpha 60.67324
_cell_angle_beta  119.00383
_cell_angle_gamma 133.31738

_symmetry_space_group_name_	'P 1'
_symmetry_space_group_name_H-M	'P 1'

loop_
_symmetry_equiv_pos_as_xyz
  x,y,z

loop_
_atom_site_label
_atom_site_type_symbol
_atom_site_fract_x
_atom_site_fract_y
_atom_site_fract_z
_atom_site_charge
H 	H 	0.14593 0.51978 0.16117 0.15600
H 	H 	0.16849 0.54312 0.64403 0.15300
Co	Co	0.04561 0.01782 0.04037 1.17800
Co	Co	0.09814 0.89992 0.04684 1.19000
C 	C 	0.22610 0.09356 0.03544 0.42500
O 	O 	0.03306 0.11042 0.03213 -0.41600
C 	C 	0.08627 0.19716 0.13281 0.39700
C 	C 	0.16598 0.85933 0.13493 0.39100
O 	O 	0.19371 0.91667 0.10143 -0.32900
O 	O 	0.10971 0.85254 0.14645 -0.32400
O 	O 	0.04155 0.13266 0.16111 -0.39100
O 	O 	0.09142 0.18086 0.10548 -0.34300
O 	O 	0.03923 0.92396 0.06564 -0.73100
O 	O 	0.17948 0.03088 0.01775 -0.42600
O 	O 	0.18626 0.09514 0.05273 -0.38200
Co	Co	0.00429 0.07503 0.58147 1.19800
Co	Co	0.07503 0.02916 0.54264 1.17900
Co	Co	0.09361 0.89838 0.53443 1.19200
C 	C 	0.25455 0.07449 0.54757 0.35800
O 	O 	0.03706 0.04998 0.69766 -0.37400
C 	C 	0.03956 0.98169 0.72026 0.33000
O 	O 	0.06703 0.12181 0.53870 -0.41500
C 	C 	0.08367 0.21047 0.62027 0.42500
C 	C 	0.13368 0.81234 0.62138 0.42000
O 	O 	0.03786 0.93781 0.70418 -0.34100
O 	O 	0.09371 0.79944 0.58497 -0.37700
O 	O 	0.11987 0.85029 0.63280 -0.34500
O 	O 	0.10585 0.17751 0.61036 -0.36300
O 	O 	0.05067 0.92765 0.55961 -0.73700
O 	O 	0.22588 0.99246 0.55776 -0.29600
O 	O 	0.21577 0.09496 0.55530 -0.35800
C 	C 	0.09517 0.99654 0.82406 -0.01100
C 	C 	0.03451 0.94899 0.76308 -0.06100
C 	C 	0.10966 0.99887 0.79142 0.08800
S 	S 	0.22173 0.06421 0.78638 0.01600
H 	H 	0.15321 0.03338 0.84625 0.05200
H 	H 	0.24694 0.14752 0.76389 0.10200
C 	C 	0.09891 0.09200 0.36825 -0.05400
C 	C 	0.09082 0.10324 0.39820 0.07300
S 	S 	0.17070 0.20514 0.41105 0.05100
H 	H 	0.16269 0.13869 0.35888 0.08600
C 	C 	0.07683 0.05790 0.25757 -0.07000
C 	C 	0.03091 0.97111 0.25737 0.01000
C 	C 	0.00515 0.90478 0.29313 0.03100
C 	C 	0.01047 0.92355 0.32481 0.01800
H 	H 	0.10895 0.11142 0.23318 0.11400
H 	H 	0.22891 0.20076 0.44798 0.08000
H 	H 	0.03317 0.79052 0.31455 0.08300
C 	C 	0.15028 0.29878 0.62762 -0.20600
C 	C 	0.18192 0.30536 0.66764 0.29100
C 	C 	0.21014 0.37879 0.67535 0.25000
C 	C 	0.21386 0.45001 0.64320 -0.13900
F 	F 	0.23908 0.38314 0.71430 -0.36300
F 	F 	0.17919 0.23745 0.69918 -0.39900
C 	C 	0.31172 0.79352 0.64105 0.25400
C 	C 	0.26992 0.70313 0.66055 -0.13100
C 	C 	0.19710 0.65763 0.67775 0.25800
C 	C 	0.15980 0.69909 0.67105 0.30400
C 	C 	0.19640 0.78686 0.64805 -0.19000
C 	C 	0.27895 0.83603 0.63767 0.29600
F 	F 	0.32094 0.92327 0.61932 -0.35500
F 	F 	0.08350 0.65177 0.68394 -0.33900
C 	C 	0.17222 0.44124 0.13553 -0.13800
C 	C 	0.19918 0.39061 0.17002 0.24500
C 	C 	0.18050 0.31651 0.16764 0.28800
C 	C 	0.12938 0.28838 0.13143 -0.20300
F 	F 	0.21348 0.27275 0.20043 -0.39200
F 	F 	0.25040 0.41764 0.20500 -0.36700
C 	C 	0.11778 0.70675 0.15117 0.28600
C 	C 	0.18664 0.79329 0.15593 -0.18500
C 	C 	0.27791 0.82252 0.16888 0.30200
C 	C 	0.23105 0.69503 0.15551 -0.12600
C 	C 	0.13879 0.66189 0.14644 0.25300
F 	F 	0.07010 0.58964 0.13125 -0.37500
F 	F 	0.03073 0.66668 0.15053 -0.36100
F 	F 	0.27655 0.10004 0.47479 -0.41000
C 	C 	0.25755 0.65817 0.14410 0.20700
C 	C 	0.20308 0.56659 0.14699 -0.11700
C 	C 	0.22587 0.53589 0.13273 0.22100
C 	C 	0.30330 0.65699 0.66312 0.21800
C 	C 	0.27520 0.53728 0.65163 0.22700
C 	C 	0.24146 0.57551 0.65233 -0.12100
C 	C 	0.15423 0.37007 0.59538 0.30000
C 	C 	0.18498 0.44484 0.60311 0.25600
F 	F 	0.16139 0.57313 0.70020 -0.35400
C 	C 	0.11952 0.41218 0.09953 0.25300
C 	C 	0.10026 0.33762 0.09720 0.29000
F 	F 	0.05274 0.31300 0.06169 -0.36100
C 	C 	0.29926 0.77055 0.17142 0.25200
C 	C 	0.32258 0.16100 0.03549 -0.23300
F 	F 	0.28869 0.24134 0.96880 -0.38100
C 	C 	0.04042 0.01012 0.46228 0.27300
O 	O 	0.10189 0.99480 0.48151 -0.31500
O 	O 	0.01439 0.02301 0.48177 -0.35800
C 	C 	0.00574 0.94934 0.82710 0.02100
C 	C 	0.02448 0.03487 0.89986 0.02500
C 	C 	0.03215 0.03237 0.86649 -0.07800
S 	S 	0.08432 0.13737 0.90856 0.09100
H 	H 	0.07268 0.09344 0.84602 0.08500
C 	C 	0.02414 0.02073 0.35028 0.01600
C 	C 	0.03403 0.00615 0.31953 -0.03100
C 	C 	0.06757 0.07415 0.28511 0.03800
S 	S 	0.08438 0.17420 0.27262 0.03200
H 	H 	0.17495 0.23743 0.28567 0.09000
F 	F 	0.19012 0.51384 0.57165 -0.34900
F 	F 	0.12322 0.36470 0.55646 -0.34700
F 	F 	0.09258 0.46001 0.06588 -0.35100
O 	O 	0.00838 0.94385 0.19691 -0.33700
H 	H 	0.02993 0.16577 0.88888 0.07400
C 	C 	0.30592 0.59434 0.11922 -0.13500
O 	O 	0.02152 0.76756 0.07350 -0.36300
C 	C 	0.01826 0.03311 0.41757 -0.08600
Co	Co	0.00674 0.85419 0.60045 1.20400
H 	H 	0.32564 0.56976 0.11032 0.13300
O 	O 	0.99971 0.16647 0.62161 -0.39400
H 	H 	0.99160 0.87267 0.35245 0.07200
C 	C 	0.34211 0.14397 0.53620 -0.19300
Co	Co	0.98376 0.07422 0.07793 1.19200
S 	S 	0.96231 0.79750 0.29777 0.06300
F 	F 	0.34607 0.90216 0.17788 -0.33000
C 	C 	0.35125 0.14910 0.50114 0.27900
C 	C 	0.34610 0.22038 0.99845 0.31600
F 	F 	0.38020 0.83888 0.62308 -0.34600
O 	O 	0.99491 0.00183 0.98069 -0.36400
C 	C 	0.99089 0.95118 0.86064 0.05100
H 	H 	0.97517 0.76256 0.91759 0.09100
O 	O 	0.90540 0.94906 0.19965 -0.34600
C 	C 	0.97676 0.94781 0.21773 0.27400
F 	F 	0.36643 0.09217 0.10369 -0.36600
C 	C 	0.69358 0.27532 0.01958 0.21300
C 	C 	0.60033 0.23795 0.01101 -0.12800
C 	C 	0.57491 0.27837 0.01608 0.23100
C 	C 	0.64108 0.36076 0.02447 -0.14000
C 	C 	0.73332 0.39742 0.03431 0.22300
C 	C 	0.76035 0.35498 0.03206 -0.12300
H 	H 	0.54803 0.17628 0.00195 0.14200
H 	H 	0.62061 0.39336 0.02663 0.13100
H 	H 	0.83219 0.38270 0.04057 0.15400
C 	C 	0.72296 0.27982 0.52468 0.22100
C 	C 	0.63039 0.24418 0.51612 -0.13100
C 	C 	0.60684 0.28828 0.51928 0.23100
C 	C 	0.67360 0.37443 0.52321 -0.13700
C 	C 	0.76554 0.41225 0.53050 0.23000
C 	C 	0.79109 0.36450 0.53232 -0.12700
H 	H 	0.57716 0.18002 0.50944 0.16400
H 	H 	0.65439 0.41084 0.52273 0.13700
H 	H 	0.86276 0.39218 0.54021 0.15500
C 	C 	0.36627 0.68125 0.12191 0.23000
C 	C 	0.33891 0.71528 0.13064 -0.12600
H 	H 	0.38160 0.78545 0.12763 0.16100
C 	C 	0.39794 0.69838 0.67301 -0.12300
C 	C 	0.42998 0.66320 0.66868 0.23300
C 	C 	0.36894 0.58176 0.65955 -0.13400
H 	H 	0.44637 0.75945 0.68243 0.15500
H 	H 	0.39457 0.55387 0.65738 0.13200
Co	Co	0.99530 0.85465 0.10710 1.19400
Co	Co	0.92492 0.90790 0.14178 1.20000
C 	C 	0.93463 0.72201 0.07075 0.41400
Co	Co	0.90388 0.03981 0.14500 1.17100
O 	O 	0.93602 0.00338 0.11798 -0.78000
O 	O 	0.93419 0.81336 0.14942 -0.40900
O 	O 	0.95741 0.94856 0.08329 -0.54700
C 	C 	0.73713 0.86152 0.12968 0.40200
C 	C 	0.99140 0.94950 0.96951 0.32200
O 	O 	0.77019 0.94373 0.12391 -0.31700
O 	O 	0.79058 0.83458 0.14625 -0.33700
O 	O 	0.99391 0.88297 0.99614 -0.33800
C 	C 	0.85902 0.12110 0.05716 0.41900
O 	O 	0.89999 0.13541 0.09339 -0.38100
O 	O 	0.87908 0.09103 0.04400 -0.34400
O 	O 	0.90586 0.74445 0.08359 -0.34000
Co	Co	0.95933 0.91017 0.64629 1.20000
C 	C 	0.91089 0.73910 0.54239 0.38500
Co	Co	0.92605 0.03439 0.65026 1.17500
O 	O 	0.96318 0.00285 0.62322 -0.76700
O 	O 	0.96453 0.81645 0.64913 -0.40400
O 	O 	0.98475 0.95506 0.58530 -0.54700
C 	C 	0.79183 0.83994 0.66412 0.42400
O 	O 	0.84684 0.90501 0.68139 -0.39500
O 	O 	0.82236 0.82961 0.64593 -0.34900
C 	C 	0.83881 0.07139 0.56381 0.38300
O 	O 	0.82167 0.01434 0.59901 -0.34300
O 	O 	0.89782 0.09097 0.54831 -0.32000
O 	O 	0.95653 0.80978 0.51549 -0.35600
O 	O 	0.90814 0.74541 0.57423 -0.32200
C 	C 	0.93128 0.89926 0.79861 0.00700
C 	C 	0.94769 0.88987 0.77109 -0.00500
S 	S 	0.81980 0.86084 0.79253 0.06100
H 	H 	0.89112 0.84320 0.75284 0.09800
C 	C 	0.93632 0.87244 0.88700 -0.00400
C 	C 	0.91575 0.87604 0.91507 0.01100
C 	C 	0.96932 0.95537 0.92591 -0.03200
S 	S 	0.90702 0.77151 0.89015 0.08200
H 	H 	0.86848 0.81505 0.93312 0.10200
H 	H 	0.76821 0.77213 0.80966 0.08900
C 	C 	0.94139 0.96191 0.36297 0.01700
C 	C 	0.93997 0.96647 0.39751 0.04000
S 	S 	0.83898 0.88588 0.33506 0.07200
H 	H 	0.88043 0.91484 0.41030 0.08000
H 	H 	0.79753 0.92537 0.30512 0.07800
C 	C 	0.58539 0.70054 0.70342 0.24900
C 	C 	0.52584 0.71570 0.66846 -0.14200
C 	C 	0.55078 0.76253 0.63110 0.26500
C 	C 	0.63387 0.79289 0.62869 0.30800
C 	C 	0.69508 0.78108 0.66391 -0.21300
C 	C 	0.66895 0.73184 0.70103 0.29700
F 	F 	0.72520 0.71518 0.73488 -0.39300
F 	F 	0.56060 0.65258 0.73943 -0.36600
F 	F 	0.65640 0.83647 0.59226 -0.34800
F 	F 	0.49241 0.77519 0.59684 -0.33000
C 	C 	0.49033 0.76567 0.08786 0.26700
C 	C 	0.46290 0.72988 0.12366 -0.13800
C 	C 	0.52222 0.72288 0.16138 0.26300
C 	C 	0.60913 0.75410 0.16328 0.29700
C 	C 	0.63909 0.79575 0.12757 -0.18900
C 	C 	0.57765 0.79752 0.08982 0.31000
F 	F 	0.60486 0.83544 0.05500 -0.35400
F 	F 	0.43208 0.76900 0.05120 -0.35100
F 	F 	0.66713 0.75031 0.19999 -0.36900
F 	F 	0.49479 0.68431 0.19621 -0.34900
F 	F 	0.38562 0.79343 0.18928 -0.35000
C 	C 	0.71765 0.08072 0.55403 0.25900
C 	C 	0.79533 0.11779 0.54301 -0.17700
C 	C 	0.84268 0.20666 0.52107 0.28900
C 	C 	0.81669 0.25869 0.51343 0.26100
C 	C 	0.74762 0.22410 0.53019 -0.14200
C 	C 	0.69954 0.13473 0.55127 0.26000
F 	F 	0.63818 0.10112 0.57074 -0.36800
F 	F 	0.66423 0.99295 0.57083 -0.30800
F 	F 	0.85873 0.34236 0.48998 -0.35600
F 	F 	0.91526 0.24336 0.50822 -0.34900
C 	C 	0.88362 0.59197 0.57575 0.29200
C 	C 	0.87540 0.65353 0.54020 -0.19700
C 	C 	0.85225 0.64185 0.50224 0.28500
C 	C 	0.83763 0.57022 0.49999 0.25300
C 	C 	0.83324 0.50296 0.53489 -0.14200
C 	C 	0.86310 0.51726 0.57304 0.26000
F 	F 	0.86416 0.45479 0.60734 -0.34700
F 	F 	0.91198 0.60466 0.61282 -0.35300
F 	F 	0.81447 0.55964 0.46309 -0.36100
F 	F 	0.84311 0.69981 0.46744 -0.37800
C 	C 	0.42028 0.19019 0.56458 0.30300
C 	C 	0.43760 0.19958 0.49471 0.25800
C 	C 	0.51567 0.24056 0.52445 -0.14300
C 	C 	0.50673 0.23630 0.55935 0.25900
F 	F 	0.58179 0.27393 0.58892 -0.35300
F 	F 	0.41231 0.18447 0.59885 -0.36200
F 	F 	0.44544 0.20649 0.46008 -0.37500
C 	C 	0.79118 0.27188 0.00030 0.24200
C 	C 	0.72094 0.22717 0.01899 -0.13200
C 	C 	0.67995 0.13717 0.03891 0.24800
C 	C 	0.71315 0.09501 0.04239 0.29000
C 	C 	0.79443 0.14428 0.03088 -0.19300
C 	C 	0.82810 0.23058 0.00644 0.29400
F 	F 	0.90129 0.27685 0.99149 -0.32100
F 	F 	0.82552 0.35589 0.97734 -0.33300
F 	F 	0.67302 0.00842 0.06172 -0.37900
F 	F 	0.61256 0.09218 0.05749 -0.36900
C 	C 	0.80137 0.48055 0.08356 0.25800
C 	C 	0.80040 0.48018 0.04721 -0.13300
C 	C 	0.84004 0.55975 0.01815 0.24200
C 	C 	0.87464 0.63773 0.02398 0.27900
C 	C 	0.87285 0.63792 0.05965 -0.19600
C 	C 	0.83509 0.55854 0.08924 0.31500
F 	F 	0.83382 0.55745 0.12411 -0.34400
F 	F 	0.76407 0.40398 0.11222 -0.34800
F 	F 	0.91417 0.71430 0.99577 -0.39700
F 	F 	0.84009 0.56059 0.98302 -0.35100
C 	C 	0.38531 0.14463 0.06674 0.29600
C 	C 	0.46361 0.17587 0.05899 0.25900
C 	C 	0.48291 0.22865 0.02061 -0.16600
C 	C 	0.42467 0.25226 0.99064 0.26600
F 	F 	0.44531 0.30753 0.95420 -0.36400
F 	F 	0.52244 0.15716 0.08913 -0.34600
