data_crystal

_cell_length_a 21.10700
_cell_length_b 22.05801
_cell_length_c 39.74934
_cell_angle_alpha 60.75353
_cell_angle_beta  118.98368
_cell_angle_gamma 133.26566

_symmetry_space_group_name_	'P 1'
_symmetry_space_group_name_H-M	'P 1'

loop_
_symmetry_equiv_pos_as_xyz
  x,y,z

loop_
_atom_site_label
_atom_site_type_symbol
_atom_site_fract_x
_atom_site_fract_y
_atom_site_fract_z
_atom_site_charge
C 	C 	0.69733 0.33628 0.96551 0.04500
C 	C 	0.60894 0.28020 0.96987 -0.07900
C 	C 	0.56884 0.31337 0.96764 0.04300
C 	C 	0.61272 0.40189 0.95589 -0.07900
C 	C 	0.70469 0.45612 0.95916 0.04800
C 	C 	0.74602 0.42450 0.96107 -0.07900
H 	H 	0.57469 0.21127 0.97828 0.05000
H 	H 	0.58032 0.42738 0.95287 0.06100
H 	H 	0.81728 0.46664 0.96278 0.06000
C 	C 	0.69639 0.33559 0.46559 0.04500
C 	C 	0.74502 0.42379 0.46116 -0.08000
C 	C 	0.70364 0.45534 0.45927 0.04900
C 	C 	0.61168 0.40106 0.45601 -0.08100
C 	C 	0.56784 0.31255 0.46775 0.04600
C 	C 	0.60801 0.27945 0.46997 -0.08200
H 	H 	0.81628 0.46598 0.46286 0.06000
H 	H 	0.57925 0.42653 0.45299 0.06100
H 	H 	0.57380 0.21052 0.47837 0.05000
C 	C 	0.29643 0.59214 0.22403 0.04900
C 	C 	0.38727 0.63695 0.22634 -0.07700
C 	C 	0.41714 0.59452 0.22816 0.04900
C 	C 	0.35857 0.50595 0.23223 -0.07900
C 	C 	0.26670 0.46357 0.22457 0.04600
C 	C 	0.23554 0.50563 0.22200 -0.07800
H 	H 	0.43270 0.70572 0.22349 0.06600
H 	H 	0.38241 0.47310 0.23446 0.05900
H 	H 	0.16423 0.47324 0.21591 0.05800
C 	C 	0.29514 0.59123 0.72398 0.04900
C 	C 	0.23425 0.50466 0.72204 -0.07800
C 	C 	0.26533 0.46262 0.72452 0.04600
C 	C 	0.35718 0.50510 0.73200 -0.07900
C 	C 	0.41572 0.59368 0.72790 0.04900
C 	C 	0.38591 0.63608 0.72615 -0.07700
H 	H 	0.16295 0.47220 0.71607 0.05800
H 	H 	0.38095 0.47226 0.73415 0.05800
H 	H 	0.43132 0.70487 0.72326 0.06600
Co	Co	0.01382 0.86755 0.10483 1.18900
Co	Co	0.99417 0.07385 0.07944 1.15500
Co	Co	0.91807 0.90434 0.13144 1.18300
Co	Co	0.10396 0.04518 0.05767 1.16200
C 	C 	0.94380 0.77792 0.04131 0.31800
Co	Co	0.13781 0.92174 0.05660 1.19600
Co	Co	0.83229 0.00105 0.11137 1.13100
C 	C 	0.28522 0.08088 0.08188 0.32300
O 	O 	0.86315 0.95125 0.17241 -0.38300
O 	O 	0.90863 0.98592 0.10092 -0.70600
C 	C 	0.94160 0.96514 0.19287 0.33700
O 	O 	0.94960 0.82476 0.14486 -0.45600
O 	O 	0.09760 0.13423 0.05650 -0.47200
C 	C 	0.02129 0.15205 0.13311 0.32200
O 	O 	0.97988 0.96104 0.08079 -0.53900
C 	C 	0.72611 0.81459 0.13018 0.32100
C 	C 	0.13532 0.81678 0.13919 0.32900
C 	C 	0.11124 0.04402 0.98398 0.32100
O 	O 	0.97956 0.95112 0.18144 -0.38300
O 	O 	0.11384 0.81419 0.10295 -0.39700
O 	O 	0.11491 0.85327 0.14650 -0.37500
O 	O 	0.93837 0.12710 0.11519 -0.43100
O 	O 	0.05795 0.13141 0.12533 -0.41900
O 	O 	0.72551 0.87955 0.10402 -0.35800
O 	O 	0.78429 0.80420 0.13432 -0.37300
O 	O 	0.16933 0.02708 0.00832 -0.43100
O 	O 	0.07764 0.05942 0.99710 -0.39600
O 	O 	0.07534 0.94494 0.07161 -0.73300
C 	C 	0.85647 0.11447 0.03151 0.32400
O 	O 	0.79792 0.04071 0.05068 -0.41600
O 	O 	0.93085 0.13109 0.03275 -0.38900
O 	O 	0.01165 0.84650 0.02469 -0.37600
O 	O 	0.93549 0.77127 0.07466 -0.37100
O 	O 	0.25517 0.00054 0.09181 -0.42900
O 	O 	0.24028 0.10036 0.08407 -0.40200
Co	Co	0.01279 0.86684 0.60491 1.18900
Co	Co	0.99308 0.07315 0.57940 1.15500
Co	Co	0.91689 0.90365 0.63139 1.18300
Co	Co	0.10304 0.04448 0.55775 1.16100
C 	C 	0.94273 0.77717 0.54139 0.31900
Co	Co	0.13677 0.92091 0.55671 1.18600
Co	Co	0.83077 0.00022 0.61107 1.13100
C 	C 	0.28424 0.08003 0.58200 0.24600
O 	O 	0.86131 0.95029 0.67209 -0.38400
O 	O 	0.90741 0.98520 0.60080 -0.70600
C 	C 	0.93987 0.96451 0.69261 0.33700
O 	O 	0.94857 0.82413 0.64490 -0.45600
O 	O 	0.09671 0.13354 0.55660 -0.47200
C 	C 	0.01974 0.15113 0.63303 0.32200
O 	O 	0.97888 0.96035 0.58081 -0.53900
C 	C 	0.72468 0.81376 0.62985 0.32100
C 	C 	0.13420 0.81595 0.63928 0.32500
C 	C 	0.11036 0.04329 0.48407 0.32100
O 	O 	0.97803 0.95039 0.68138 -0.38300
O 	O 	0.11271 0.81335 0.60305 -0.40200
O 	O 	0.11383 0.85249 0.64659 -0.37900
O 	O 	0.93684 0.12623 0.61501 -0.43000
O 	O 	0.05655 0.13057 0.62530 -0.41900
O 	O 	0.72414 0.87873 0.60365 -0.35800
O 	O 	0.78304 0.80345 0.63414 -0.37200
O 	O 	0.16837 0.02626 0.50843 -0.43500
O 	O 	0.07686 0.05883 0.49718 -0.39700
O 	O 	0.07434 0.94420 0.57168 -0.73800
C 	C 	0.85543 0.11384 0.53130 0.32300
O 	O 	0.79676 0.04000 0.55037 -0.41600
O 	O 	0.92996 0.13054 0.53266 -0.38900
O 	O 	0.01061 0.84573 0.52478 -0.37600
O 	O 	0.93444 0.77054 0.57474 -0.37100
O 	O 	0.25415 0.99968 0.59192 -0.32400
O 	O 	0.23932 0.09954 0.58420 -0.38800
C 	C 	0.04674 0.02812 0.87194 -0.05600
C 	C 	0.06410 0.09647 0.83783 -0.04300
C 	C 	0.05123 0.08616 0.80228 0.00600
C 	C 	0.02114 0.00749 0.80066 -0.15600
C 	C 	0.00439 0.93952 0.83485 0.05600
C 	C 	0.01721 0.94979 0.87030 0.01200
C 	C 	0.99617 0.99283 0.76283 0.16600
C 	C 	0.97530 0.98054 0.73126 -0.12900
C 	C 	0.06816 0.04055 0.90980 0.05100
C 	C 	0.08469 0.04492 0.94270 -0.12200
H 	H 	0.08812 0.15763 0.83882 0.04400
H 	H 	0.06351 0.13890 0.77597 0.02300
H 	H 	0.98013 0.87823 0.83387 0.03300
H 	H 	0.00466 0.89692 0.89655 0.04900
C 	C 	0.02395 0.01031 0.30044 -0.15900
C 	C 	0.02101 0.07229 0.30024 0.00800
C 	C 	0.03460 0.08199 0.33610 -0.04500
C 	C 	0.05109 0.02970 0.37238 -0.05600
C 	C 	0.05523 0.96862 0.37255 0.01100
C 	C 	0.04166 0.95894 0.33676 0.06300
C 	C 	0.06837 0.04095 0.40981 0.05000
C 	C 	0.08430 0.04477 0.44274 -0.12300
C 	C 	0.99879 0.99299 0.26333 0.16700
C 	C 	0.97720 0.98074 0.23163 -0.12900
H 	H 	0.00693 0.11207 0.27236 0.02100
H 	H 	0.03218 0.12996 0.33558 0.04300
H 	H 	0.06872 0.92842 0.40040 0.05000
H 	H 	0.04341 0.91049 0.33732 0.03000
C 	C 	0.07396 0.21253 0.65620 -0.12000
C 	C 	0.11487 0.26519 0.67437 0.06300
C 	C 	0.16177 0.32948 0.69392 -0.02700
C 	C 	0.20524 0.38787 0.70893 -0.01400
C 	C 	0.49323 0.64181 0.71335 -0.00900
C 	C 	0.55229 0.67810 0.69808 -0.01800
C 	C 	0.61589 0.71988 0.67700 0.07200
C 	C 	0.66692 0.75905 0.65657 -0.10800
C 	C 	0.26209 0.63833 0.71565 -0.01000
C 	C 	0.23449 0.67935 0.70593 -0.01400
C 	C 	0.20109 0.72866 0.68983 0.06900
C 	C 	0.17113 0.77025 0.67047 -0.09800
C 	C 	0.20676 0.38894 0.20891 -0.01300
C 	C 	0.16342 0.33062 0.19388 -0.02700
C 	C 	0.11661 0.26633 0.17435 0.06300
C 	C 	0.07569 0.21360 0.15622 -0.12000
C 	C 	0.66843 0.75982 0.15693 -0.10700
C 	C 	0.61744 0.72064 0.17739 0.07200
C 	C 	0.55383 0.67890 0.19845 -0.01800
C 	C 	0.49474 0.64264 0.21368 -0.00800
C 	C 	0.26336 0.63927 0.21564 -0.01000
C 	C 	0.23574 0.68029 0.20588 -0.01400
C 	C 	0.20229 0.72956 0.18975 0.06900
C 	C 	0.17229 0.77111 0.17037 -0.09600
C 	C 	0.83811 0.17749 0.50976 -0.11900
C 	C 	0.81382 0.22299 0.49529 0.06200
C 	C 	0.77729 0.26794 0.48211 -0.02800
C 	C 	0.74180 0.30085 0.47346 -0.01600
C 	C 	0.88254 0.70433 0.52519 -0.10000
C 	C 	0.83984 0.64780 0.50935 0.06900
C 	C 	0.79502 0.58429 0.49011 -0.01800
C 	C 	0.75597 0.52815 0.47469 -0.01100
C 	C 	0.50153 0.26174 0.48981 -0.01900
C 	C 	0.45113 0.22451 0.51016 -0.02400
C 	C 	0.39504 0.18171 0.53529 0.05300
C 	C 	0.34615 0.14020 0.55704 -0.10700
C 	C 	0.74269 0.30146 0.97342 -0.01400
C 	C 	0.77816 0.26850 0.98212 -0.02900
C 	C 	0.81470 0.22352 0.99536 0.06600
C 	C 	0.83903 0.17804 0.00990 -0.12200
C 	C 	0.75704 0.52893 0.97458 -0.01200
C 	C 	0.79610 0.58506 0.99001 -0.01700
C 	C 	0.84093 0.64856 0.00925 0.06600
C 	C 	0.88362 0.70509 0.02510 -0.10000
C 	C 	0.34713 0.14106 0.05691 -0.13200
C 	C 	0.39602 0.18258 0.03516 0.07200
C 	C 	0.45211 0.22537 0.01004 -0.03500
C 	C 	0.50251 0.26260 0.98969 -0.01100
