data_crystal

_cell_length_a 27.98662
_cell_length_b 27.74559
_cell_length_c 26.74901
_cell_angle_alpha 95.50559
_cell_angle_beta  95.50662
_cell_angle_gamma 125.63988

_symmetry_space_group_name_	'P 1'
_symmetry_space_group_name_H-M	'P 1'

loop_
_symmetry_equiv_pos_as_xyz
  x,y,z

loop_
_atom_site_label
_atom_site_type_symbol
_atom_site_fract_x
_atom_site_fract_y
_atom_site_fract_z
_atom_site_charge
C 	C 	0.06497 0.04621 0.98810 0.13100
N 	N 	0.03829 0.07394 0.99455 -0.12800
N 	N 	0.00617 0.03645 0.44519 -0.13300
C 	C 	0.03315 0.00950 0.45378 0.13400
Cu	Cu	0.64715 0.25765 0.00395 0.92200
Cu	Cu	0.67573 0.23663 0.89138 0.88500
Cu	Cu	0.67270 0.34114 0.92666 0.90100
Cu	Cu	0.66109 0.37871 0.03250 0.89000
C 	C 	0.66601 0.30794 0.10900 0.30300
O 	O 	0.56266 0.22681 0.01104 -0.38300
C 	C 	0.65128 0.28916 0.81811 0.29800
O 	O 	0.69786 0.34972 0.99830 -0.61700
O 	O 	0.62972 0.25325 0.92945 -0.63300
O 	O 	0.68009 0.21019 0.00325 -0.37600
O 	O 	0.73774 0.25848 0.94542 -0.42100
O 	O 	0.67242 0.35733 0.09983 -0.37500
O 	O 	0.72014 0.42739 0.92841 -0.37000
C 	C 	0.72304 0.46627 0.96352 0.31000
C 	C 	0.54006 0.25472 0.99709 0.32100
O 	O 	0.57438 0.30818 0.98526 -0.38700
O 	O 	0.68709 0.44808 0.99706 -0.38100
O 	O 	0.67526 0.27693 0.07603 -0.35000
C 	C 	0.72602 0.22629 0.98132 0.31700
O 	O 	0.65687 0.33148 0.85133 -0.36600
O 	O 	0.63559 0.23779 0.83065 -0.39600
H 	H 	0.74178 0.37405 0.00961 0.16100
H 	H 	0.58660 0.22837 0.91414 0.17800
Cu	Cu	0.72265 0.33035 0.42711 0.92900
Cu	Cu	0.73608 0.28897 0.53517 0.87500
Cu	Cu	0.63460 0.29410 0.50085 0.90100
Cu	Cu	0.60781 0.32517 0.40225 0.90200
C 	C 	0.66863 0.30991 0.32266 0.30300
O 	O 	0.75449 0.41761 0.42796 -0.35800
C 	C 	0.68535 0.31400 0.61050 0.30000
O 	O 	0.63055 0.27943 0.42849 -0.63800
O 	O 	0.72249 0.33935 0.50136 -0.63900
O 	O 	0.76821 0.29561 0.42521 -0.36800
O 	O 	0.71533 0.23081 0.47741 -0.43800
O 	O 	0.64339 0.33498 0.33917 -0.36500
O 	O 	0.54850 0.24668 0.49464 -0.37000
C 	C 	0.51271 0.25026 0.46187 0.31200
C 	C 	0.72960 0.44010 0.44967 0.30300
O 	O 	0.67574 0.40378 0.45952 -0.38400
O 	O 	0.53362 0.29048 0.43160 -0.38100
O 	O 	0.70721 0.30871 0.35417 -0.35600
C 	C 	0.74957 0.24614 0.44305 0.31200
O 	O 	0.63789 0.29410 0.57534 -0.36200
O 	O 	0.73536 0.32727 0.59753 -0.41200
H 	H 	0.60512 0.23621 0.41217 0.17500
H 	H 	0.74653 0.38158 0.52008 0.18000
C 	C 	0.63516 0.31914 0.73678 -0.02500
C 	C 	0.66277 0.29947 0.76616 -0.07600
C 	C 	0.70078 0.28858 0.74542 0.08800
C 	C 	0.70808 0.29405 0.69482 -0.02500
C 	C 	0.67942 0.31224 0.66478 -0.07900
C 	C 	0.64387 0.32635 0.68638 0.09800
N 	N 	0.61814 0.34971 0.65798 -0.01900
H 	H 	0.60702 0.32895 0.75301 0.06800
H 	H 	0.73606 0.28388 0.67879 0.05300
N 	N 	0.73307 0.27309 0.77607 -0.02500
O 	O 	0.56082 0.32318 0.65170 -0.09900
O 	O 	0.65252 0.40002 0.64179 -0.10300
O 	O 	0.72755 0.22386 0.76080 -0.12500
O 	O 	0.77135 0.31041 0.81719 -0.14300
C 	C 	0.72007 0.32472 0.24855 -0.02700
C 	C 	0.66646 0.29862 0.26720 -0.07000
C 	C 	0.61172 0.26808 0.23246 0.09200
C 	C 	0.61177 0.26855 0.18008 -0.02700
C 	C 	0.66574 0.29807 0.16195 -0.07400
C 	C 	0.71995 0.32451 0.19615 0.10000
N 	N 	0.77530 0.35345 0.17805 -0.02200
H 	H 	0.76221 0.34739 0.27494 0.07200
H 	H 	0.56986 0.24695 0.15362 0.05800
N 	N 	0.55606 0.23679 0.25029 -0.02200
O 	O 	0.81735 0.41074 0.19451 -0.10600
O 	O 	0.78546 0.32161 0.14839 -0.09500
O 	O 	0.51670 0.24599 0.23587 -0.11500
O 	O 	0.54333 0.19659 0.27855 -0.12200
C 	C 	0.80011 0.61773 0.45715 -0.00600
C 	C 	0.78075 0.63400 0.41617 -0.02600
C 	C 	0.77675 0.55557 0.45576 0.05200
C 	C 	0.75614 0.50312 0.45361 -0.10300
H 	H 	0.74766 0.59986 0.38370 0.04400
C 	C 	0.81879 0.15309 0.41725 -0.00900
C 	C 	0.78172 0.09030 0.41407 -0.02700
C 	C 	0.80652 0.05876 0.41524 -0.04300
C 	C 	0.79458 0.18654 0.42389 0.05200
C 	C 	0.77418 0.21413 0.43141 -0.11400
H 	H 	0.73397 0.06619 0.41218 0.04200
H 	H 	0.77775 0.01046 0.41399 0.04600
C 	C 	0.21338 0.10071 0.46591 0.01900
C 	C 	0.25244 0.16393 0.47608 -0.04000
C 	C 	0.31379 0.19373 0.47802 -0.02600
C 	C 	0.33628 0.16040 0.46980 -0.00400
C 	C 	0.29733 0.09718 0.46045 -0.02600
C 	C 	0.23599 0.06739 0.45854 -0.04100
C 	C 	0.14999 0.06993 0.46193 0.00800
C 	C 	0.09673 0.04310 0.45830 -0.03500
C 	C 	0.39868 0.19105 0.46800 0.05300
C 	C 	0.45083 0.21748 0.46567 -0.09500
H 	H 	0.23527 0.18996 0.48195 0.04900
H 	H 	0.34367 0.24264 0.48521 0.04700
H 	H 	0.31441 0.07114 0.45400 0.04400
H 	H 	0.20603 0.01847 0.45080 0.04800
C 	C 	0.81487 0.64384 0.95289 -0.00400
C 	C 	0.78336 0.66855 0.94776 -0.02500
C 	C 	0.78329 0.58084 0.95518 0.05300
C 	C 	0.75625 0.52834 0.95829 -0.09600
H 	H 	0.73495 0.63976 0.94254 0.04700
C 	C 	0.79812 0.10372 0.01255 -0.03600
C 	C 	0.82526 0.16381 0.00733 0.01200
C 	C 	0.88601 0.20105 0.00388 -0.05300
C 	C 	0.91896 0.17779 0.00407 -0.03600
C 	C 	0.78959 0.18553 0.00047 0.02000
C 	C 	0.76014 0.20390 0.99291 -0.07400
H 	H 	0.75119 0.07461 0.01517 0.04300
H 	H 	0.90732 0.24753 0.99979 0.06400
H 	H 	0.96553 0.20652 0.00031 0.04300
C 	C 	0.24433 0.13685 0.99280 0.03600
C 	C 	0.26656 0.14492 0.94713 -0.04300
C 	C 	0.32626 0.16746 0.94771 -0.02800
C 	C 	0.36395 0.18192 0.99396 0.00900
C 	C 	0.34195 0.17462 0.03972 -0.04100
C 	C 	0.28226 0.15208 0.03913 -0.05600
C 	C 	0.18143 0.10769 0.99150 0.00500
C 	C 	0.12843 0.08114 0.99015 -0.02700
C 	C 	0.42568 0.20597 0.99468 0.05300
C 	C 	0.47766 0.22723 0.99556 -0.10600
H 	H 	0.23744 0.13291 0.91112 0.05000
H 	H 	0.34307 0.17342 0.91223 0.04500
H 	H 	0.37094 0.18612 0.07567 0.04700
H 	H 	0.26532 0.14563 0.07456 0.04900
C 	C 	0.97820 0.04026 0.99292 0.11600
C 	C 	0.94578 0.00405 0.43986 0.12300
C 	C 	0.84257 0.66211 0.49915 -0.02600
H 	H 	0.85749 0.64982 0.53109 0.04400
C 	C 	0.86850 0.08987 0.41957 0.01900
C 	C 	0.90530 0.15232 0.42086 -0.04300
C 	C 	0.88050 0.18386 0.41974 -0.02700
C 	C 	0.89477 0.05851 0.42593 0.00400
C 	C 	0.91751 0.03308 0.43200 -0.03400
H 	H 	0.95323 0.17664 0.42398 0.04700
H 	H 	0.90946 0.23238 0.42226 0.04200
H 	H 	0.90213 0.66266 0.96373 0.04600
C 	C 	0.89132 0.11721 0.00775 0.02300
C 	C 	0.83108 0.08048 0.01279 -0.04200
C 	C 	0.92360 0.09168 0.00327 -0.02500
C 	C 	0.94939 0.06909 0.99884 -0.00300
H 	H 	0.80943 0.03364 0.01579 0.04400
C 	C 	0.87747 0.68143 0.95969 -0.02500
C 	C 	0.84817 0.73915 0.45812 0.01900
C 	C 	0.80476 0.69459 0.41663 -0.04100
H 	H 	0.79047 0.70696 0.38434 0.04800
C 	C 	0.81442 0.73079 0.95066 -0.04000
H 	H 	0.78982 0.74970 0.94749 0.05100
C 	C 	0.86657 0.72271 0.49962 -0.04100
H 	H 	0.90027 0.75695 0.53176 0.04900
C 	C 	0.90852 0.74366 0.96255 -0.04000
C 	C 	0.87709 0.76854 0.95869 0.02000
H 	H 	0.95699 0.77258 0.96860 0.05100
C 	C 	0.87791 0.80197 0.45595 0.00800
N 	N 	0.03167 0.98513 0.98003 -0.12900
N 	N 	0.99984 0.95025 0.45699 -0.13700
N 	N 	0.94504 0.97909 0.98485 -0.12900
C 	C 	0.97180 0.95158 0.97835 0.13400
C 	C 	0.93956 0.91777 0.45168 0.13600
N 	N 	0.91238 0.94461 0.44309 -0.13300
C 	C 	0.90473 0.85476 0.45398 -0.03400
C 	C 	0.90930 0.83297 0.96508 0.01000
C 	C 	0.93717 0.88705 0.97095 -0.03100
