data_crystal

_cell_length_a 26.14966
_cell_length_b 26.38828
_cell_length_c 26.56777
_cell_angle_alpha 95.51367
_cell_angle_beta  95.51305
_cell_angle_gamma 125.83234

_symmetry_space_group_name_	'P 1'
_symmetry_space_group_name_H-M	'P 1'

loop_
_symmetry_equiv_pos_as_xyz
  x,y,z

loop_
_atom_site_label
_atom_site_type_symbol
_atom_site_fract_x
_atom_site_fract_y
_atom_site_fract_z
_atom_site_charge
C 	C 	0.96777 0.02828 0.97658 0.12300
N 	N 	0.93272 0.96575 0.97988 -0.14500
C 	C 	0.95913 0.93439 0.97579 0.12200
N 	N 	0.02105 0.96594 0.96973 -0.14600
C 	C 	0.05602 0.02829 0.96585 0.12200
N 	N 	0.02868 0.05895 0.96789 -0.14700
C 	C 	0.93503 0.99855 0.44915 0.11900
N 	N 	0.99842 0.03345 0.44666 -0.14400
C 	C 	0.03030 0.00755 0.45177 0.11800
N 	N 	0.99885 0.94696 0.45986 -0.14500
C 	C 	0.93615 0.91271 0.46433 0.12000
N 	N 	0.90406 0.93840 0.45860 -0.14500
Cu	Cu	0.64222 0.24384 0.00483 0.92600
Cu	Cu	0.70205 0.24977 0.90065 0.87100
Cu	Cu	0.68368 0.34659 0.93964 0.89800
Cu	Cu	0.63755 0.35872 0.03641 0.89300
C 	C 	0.65031 0.28724 0.11116 0.30800
O 	O 	0.54709 0.20224 0.99737 -0.36800
C 	C 	0.67268 0.30609 0.82828 0.30600
O 	O 	0.69262 0.34271 0.01129 -0.64300
O 	O 	0.64002 0.25298 0.93178 -0.64000
O 	O 	0.68341 0.20000 0.00557 -0.38500
O 	O 	0.75852 0.26733 0.96137 -0.44700
O 	O 	0.62220 0.31282 0.09531 -0.39200
O 	O 	0.73035 0.43799 0.95263 -0.38400
C 	C 	0.72118 0.47031 0.98689 0.30200
C 	C 	0.52202 0.22948 0.97958 0.28900
O 	O 	0.55978 0.28889 0.97375 -0.39300
O 	O 	0.67404 0.44138 0.01304 -0.40400
O 	O 	0.65728 0.25170 0.07828 -0.36500
C 	C 	0.73938 0.22567 0.99184 0.31100
O 	O 	0.69001 0.35243 0.86651 -0.38300
O 	O 	0.66616 0.25444 0.83697 -0.42400
H 	H 	0.73750 0.37050 0.03048 0.16300
H 	H 	0.59658 0.22692 0.91001 0.17100
Cu	Cu	0.73274 0.33716 0.43506 0.92600
Cu	Cu	0.73436 0.28560 0.54229 0.86800
Cu	Cu	0.63321 0.29957 0.50416 0.89500
Cu	Cu	0.61313 0.33697 0.40509 0.89600
C 	C 	0.67901 0.31739 0.32929 0.30300
O 	O 	0.77056 0.43035 0.43831 -0.36600
C 	C 	0.67957 0.31616 0.61568 0.29900
O 	O 	0.63307 0.28578 0.43207 -0.64000
O 	O 	0.72759 0.34384 0.50896 -0.64200
O 	O 	0.77859 0.29764 0.43509 -0.37600
O 	O 	0.71459 0.22637 0.48322 -0.44700
O 	O 	0.65579 0.34801 0.34448 -0.37800
O 	O 	0.54075 0.25164 0.49437 -0.38200
C 	C 	0.50499 0.25727 0.46019 0.29800
C 	C 	0.74442 0.45506 0.45949 0.28900
O 	O 	0.68445 0.41758 0.46543 -0.39700
O 	O 	0.53041 0.29992 0.43001 -0.39800
O 	O 	0.72097 0.31755 0.36144 -0.36500
C 	C 	0.75426 0.24340 0.45081 0.29600
O 	O 	0.63195 0.29941 0.57849 -0.37800
O 	O 	0.73193 0.32418 0.60549 -0.42500
H 	H 	0.60506 0.24047 0.41486 0.16200
H 	H 	0.75426 0.38772 0.52925 0.16900
C 	C 	0.67144 0.31998 0.66970 -0.10800
C 	C 	0.72209 0.37114 0.70732 -0.06400
C 	C 	0.72055 0.36933 0.75971 0.16500
C 	C 	0.66825 0.31561 0.77477 -0.11300
C 	C 	0.61549 0.26672 0.73723 -0.06000
C 	C 	0.61699 0.26852 0.68485 0.16000
H 	H 	0.76379 0.41130 0.69596 0.05500
O 	O 	0.77233 0.41783 0.79594 -0.29600
H 	H 	0.57444 0.22589 0.74860 0.05300
O 	O 	0.56599 0.21912 0.64857 -0.28200
H 	H 	0.57530 0.18787 0.64212 0.13200
H 	H 	0.76319 0.44893 0.80420 0.15200
C 	C 	0.65717 0.28358 0.16594 -0.10800
C 	C 	0.60275 0.25414 0.18893 -0.05700
C 	C 	0.60948 0.26079 0.24252 0.16200
C 	C 	0.67111 0.29788 0.27361 -0.10600
C 	C 	0.72532 0.32307 0.25044 -0.05900
C 	C 	0.71845 0.31572 0.19667 0.16500
H 	H 	0.55526 0.22791 0.16533 0.05500
O 	O 	0.55593 0.23380 0.26459 -0.30200
H 	H 	0.77293 0.35097 0.27409 0.06400
O 	O 	0.77199 0.34376 0.17454 -0.30000
H 	H 	0.77901 0.31088 0.16745 0.14800
H 	H 	0.54332 0.19097 0.26804 0.13600
C 	C 	0.79370 0.61912 0.51363 -0.09500
C 	C 	0.82901 0.65379 0.47745 0.00600
C 	C 	0.84432 0.62560 0.43983 0.02300
C 	C 	0.81771 0.56083 0.43525 -0.01800
C 	C 	0.77934 0.52497 0.46973 -0.11000
C 	C 	0.77101 0.55563 0.51141 0.09400
C 	C 	0.85049 0.71998 0.47956 -0.00800
C 	C 	0.88811 0.66404 0.40408 -0.17200
H 	H 	0.82574 0.53801 0.40414 0.04400
C 	C 	0.73816 0.52128 0.55348 -0.19900
H 	H 	0.78409 0.64165 0.54367 0.05000
C 	C 	0.81684 0.73385 0.44589 0.03800
C 	C 	0.84430 0.79748 0.44245 -0.04900
C 	C 	0.90279 0.84725 0.47443 -0.04600
C 	C 	0.93157 0.83323 0.51305 0.06600
C 	C 	0.90643 0.76962 0.51400 -0.07900
C 	C 	0.75272 0.68107 0.41269 -0.17800
H 	H 	0.82103 0.80817 0.41397 0.04300
C 	C 	0.98965 0.88559 0.55258 -0.18600
H 	H 	0.93086 0.75876 0.54115 0.04600
H 	H 	0.68527 0.49238 0.54101 0.07200
H 	H 	0.75254 0.55553 0.58936 0.06400
H 	H 	0.75157 0.48995 0.56307 0.06500
H 	H 	0.93294 0.70880 0.42649 0.06400
H 	H 	0.86363 0.67583 0.37649 0.06100
H 	H 	0.90201 0.63752 0.38171 0.06000
H 	H 	0.72801 0.69975 0.39525 0.05900
H 	H 	0.72082 0.64653 0.43613 0.06400
H 	H 	0.75947 0.65594 0.38116 0.06200
H 	H 	0.99344 0.86771 0.58790 0.06100
H 	H 	0.98648 0.92507 0.56436 0.06900
H 	H 	0.03388 0.90411 0.53649 0.06700
C 	C 	0.75887 0.10333 0.41968 -0.09800
C 	C 	0.82493 0.13331 0.43300 0.00700
C 	C 	0.86840 0.20045 0.44483 0.02000
C 	C 	0.84462 0.23633 0.44781 -0.01700
C 	C 	0.77824 0.20607 0.43793 -0.11800
C 	C 	0.73521 0.13933 0.42086 0.09900
C 	C 	0.84808 0.09395 0.43642 -0.00900
C 	C 	0.93990 0.23379 0.45598 -0.17000
H 	H 	0.87770 0.28766 0.45968 0.03100
C 	C 	0.66405 0.10607 0.40527 -0.20200
H 	H 	0.72576 0.05186 0.40927 0.05000
C 	C 	0.85623 0.07638 0.48346 0.03700
C 	C 	0.88309 0.04344 0.48666 -0.04800
C 	C 	0.90055 0.02675 0.44335 -0.04600
C 	C 	0.88803 0.04027 0.39544 0.06500
C 	C 	0.86295 0.07485 0.39259 -0.07900
C 	C 	0.83740 0.09360 0.53041 -0.17600
H 	H 	0.89162 0.03189 0.52313 0.04200
C 	C 	0.90312 0.01975 0.34767 -0.18800
H 	H 	0.85567 0.08755 0.35638 0.04600
H 	H 	0.64214 0.09925 0.44014 0.06800
H 	H 	0.64006 0.05867 0.38051 0.06400
H 	H 	0.65483 0.13429 0.38287 0.07000
H 	H 	0.95422 0.21737 0.42395 0.06400
H 	H 	0.95349 0.22337 0.49229 0.05900
H 	H 	0.96735 0.28623 0.46018 0.05700
H 	H 	0.84353 0.07344 0.56329 0.05700
H 	H 	0.78615 0.07460 0.52161 0.06000
H 	H 	0.86770 0.14613 0.54254 0.05800
H 	H 	0.87775 0.02083 0.31224 0.06100
H 	H 	0.88764 0.97025 0.34530 0.06700
H 	H 	0.95553 0.05226 0.34838 0.06600
C 	C 	0.19330 0.10792 0.41306 -0.07800
C 	C 	0.23335 0.11659 0.45735 -0.00900
C 	C 	0.20693 0.09121 0.50043 0.03800
C 	C 	0.14047 0.05656 0.49819 -0.04900
C 	C 	0.10016 0.04686 0.45357 -0.04600
C 	C 	0.12665 0.07228 0.41042 0.06500
C 	C 	0.30310 0.15226 0.45824 0.00900
C 	C 	0.24944 0.10123 0.54885 -0.17800
H 	H 	0.11997 0.03693 0.53118 0.04000
C 	C 	0.08453 0.06307 0.36210 -0.18800
H 	H 	0.21400 0.12826 0.38035 0.04600
C 	C 	0.32850 0.12097 0.43955 0.02100
C 	C 	0.39491 0.15597 0.44108 -0.01300
C 	C 	0.43598 0.22152 0.46088 -0.10900
C 	C 	0.41071 0.25256 0.48051 0.10300
C 	C 	0.34421 0.21777 0.47821 -0.09700
C 	C 	0.28492 0.05063 0.41737 -0.16900
H 	H 	0.41460 0.13232 0.42633 0.02800
C 	C 	0.45426 0.32272 0.50340 -0.20500
H 	H 	0.32442 0.24153 0.49243 0.05100
H 	H 	0.11031 0.07516 0.32921 0.06000
H 	H 	0.06964 0.09445 0.36874 0.06600
H 	H 	0.04127 0.01271 0.35083 0.06600
H 	H 	0.28410 0.15285 0.56540 0.06600
H 	H 	0.27629 0.08196 0.54005 0.06500
H 	H 	0.22119 0.07688 0.57854 0.05900
H 	H 	0.31245 0.03293 0.40609 0.05700
H 	H 	0.25112 0.04087 0.38257 0.06100
H 	H 	0.25712 0.02356 0.44626 0.06100
H 	H 	0.47301 0.35067 0.47242 0.07400
H 	H 	0.49511 0.33419 0.53207 0.07600
H 	H 	0.42846 0.33765 0.52348 0.06600
C 	C 	0.85422 0.64660 0.00167 -0.10000
C 	C 	0.81901 0.66895 0.98671 0.01200
C 	C 	0.75140 0.62619 0.97287 0.02100
C 	C 	0.72007 0.56136 0.97364 -0.01200
C 	C 	0.75531 0.53885 0.98813 -0.10600
C 	C 	0.82282 0.58189 0.00316 0.09400
C 	C 	0.85354 0.73701 0.98401 -0.00400
C 	C 	0.71277 0.64922 0.95595 -0.17000
H 	H 	0.66824 0.52816 0.96225 0.03700
C 	C 	0.86156 0.55898 0.02013 -0.20700
H 	H 	0.90615 0.67969 0.01215 0.05100
C 	C 	0.86971 0.78207 0.02777 0.03200
C 	C 	0.90309 0.84646 0.02413 -0.05200
C 	C 	0.92063 0.86623 0.97759 -0.04300
C 	C 	0.90306 0.82091 0.93352 0.06700
C 	C 	0.87047 0.75670 0.93735 -0.07900
C 	C 	0.85266 0.76186 0.07850 -0.17600
H 	H 	0.91639 0.88143 0.05776 0.03900
C 	C 	0.92006 0.84093 0.88271 -0.18900
H 	H 	0.85794 0.72186 0.90391 0.04800
H 	H 	0.91212 0.59936 0.03744 0.06400
H 	H 	0.86177 0.53073 0.98649 0.07700
H 	H 	0.84069 0.52902 0.04964 0.06200
H 	H 	0.72449 0.66665 0.91929 0.06300
H 	H 	0.72384 0.68846 0.98582 0.06200
H 	H 	0.66029 0.61070 0.94966 0.05900
H 	H 	0.86617 0.80229 0.10835 0.05800
H 	H 	0.87837 0.74272 0.09261 0.06200
H 	H 	0.80010 0.72455 0.07377 0.06000
H 	H 	0.89406 0.79924 0.85055 0.06200
H 	H 	0.97243 0.86654 0.88445 0.07000
H 	H 	0.90681 0.87255 0.87374 0.06900
C 	C 	0.89700 0.10297 0.03925 -0.08700
C 	C 	0.88028 0.12217 0.99732 0.00400
C 	C 	0.89707 0.11516 0.94952 0.03400
C 	C 	0.92671 0.08518 0.94355 -0.04700
C 	C 	0.94088 0.06347 0.98488 -0.04400
C 	C 	0.92817 0.07452 0.03364 0.06300
C 	C 	0.84311 0.14750 0.00321 -0.00300
C 	C 	0.88232 0.13843 0.90466 -0.17400
H 	H 	0.93786 0.07784 0.90650 0.04100
C 	C 	0.94644 0.05486 0.07942 -0.18800
H 	H 	0.88487 0.10937 0.07606 0.04800
C 	C 	0.77533 0.10666 0.99100 0.02300
C 	C 	0.74159 0.13282 0.98998 -0.00800
C 	C 	0.77459 0.19892 0.00224 -0.13400
C 	C 	0.84185 0.23908 0.01983 0.10200
C 	C 	0.87578 0.21311 0.01904 -0.09700
C 	C 	0.73908 0.03551 0.97718 -0.16500
H 	H 	0.68980 0.10190 0.97778 0.03000
C 	C 	0.87784 0.30962 0.03817 -0.20500
H 	H 	0.92774 0.24410 0.02979 0.04900
H 	H 	0.91330 0.00231 0.07547 0.06800
H 	H 	0.94376 0.07665 0.11604 0.06100
H 	H 	0.99654 0.07051 0.08224 0.06600
H 	H 	0.90385 0.18967 0.91588 0.06100
H 	H 	0.82954 0.11082 0.89240 0.05800
H 	H 	0.90213 0.13307 0.87109 0.05700
H 	H 	0.68640 0.01002 0.97305 0.05700
H 	H 	0.75400 0.01843 0.00782 0.05900
H 	H 	0.74898 0.02294 0.94014 0.05800
H 	H 	0.92520 0.33077 0.06267 0.06500
H 	H 	0.85039 0.31907 0.06171 0.07300
H 	H 	0.88604 0.33363 0.00454 0.06900
C 	C 	0.34767 0.12849 0.99579 -0.07900
C 	C 	0.31983 0.14090 0.95588 0.00100
C 	C 	0.35773 0.18020 0.92241 0.02500
C 	C 	0.42295 0.20558 0.92893 -0.02200
C 	C 	0.45164 0.19536 0.97021 -0.10400
C 	C 	0.41376 0.15758 0.00480 0.08200
C 	C 	0.25200 0.11639 0.95211 -0.00700
C 	C 	0.32980 0.19808 0.88167 -0.17200
H 	H 	0.45196 0.23496 0.90277 0.03600
C 	C 	0.44352 0.14996 0.05229 -0.19900
H 	H 	0.31818 0.09821 0.02133 0.04400
C 	C 	0.20212 0.05671 0.92136 0.03600
C 	C 	0.13803 0.03078 0.92382 -0.04600
C 	C 	0.12319 0.06195 0.95850 -0.04800
C 	C 	0.17340 0.12195 0.98925 0.07000
C 	C 	0.23718 0.14960 0.98420 -0.07400
C 	C 	0.21707 0.01848 0.88881 -0.17600
H 	H 	0.09961 0.98500 0.90012 0.04000
C 	C 	0.15977 0.15591 0.02845 -0.19300
H 	H 	0.27577 0.19573 0.00731 0.04100
H 	H 	0.45741 0.11854 0.04119 0.07900
H 	H 	0.40943 0.12815 0.07913 0.06500
H 	H 	0.48624 0.19702 0.07375 0.07900
H 	H 	0.31611 0.22692 0.90030 0.06300
H 	H 	0.28665 0.15473 0.85628 0.06000
H 	H 	0.36474 0.22649 0.85699 0.05900
H 	H 	0.17309 0.97577 0.86346 0.05800
H 	H 	0.23914 0.00239 0.91414 0.06400
H 	H 	0.25080 0.04763 0.86373 0.06100
H 	H 	0.20457 0.19670 0.05449 0.06100
H 	H 	0.12807 0.12311 0.05299 0.06800
H 	H 	0.13665 0.17471 0.00853 0.07000
