data_crystal

_cell_length_a 18.76302
_cell_length_b 16.97529
_cell_length_c 46.21115
_cell_angle_alpha 90.71536
_cell_angle_beta  91.03278
_cell_angle_gamma 110.82145

_symmetry_space_group_name_	'P 1'
_symmetry_space_group_name_H-M	'P 1'

loop_
_symmetry_equiv_pos_as_xyz
  x,y,z

loop_
_atom_site_label
_atom_site_type_symbol
_atom_site_fract_x
_atom_site_fract_y
_atom_site_fract_z
_atom_site_charge
O 	O 	0.09461 0.89655 0.76110 -0.69400
Ni	Ni	0.11537 0.98117 0.79398 1.10700
O 	O 	0.13770 0.82999 0.70829 -0.34200
Ni	Ni	0.19183 0.90293 0.74480 1.08700
O 	O 	0.19860 0.01864 0.73052 -0.35700
O 	O 	0.19238 0.94552 0.81702 -0.29800
O 	O 	0.03668 0.01210 0.77034 -0.69700
O 	O 	0.10609 0.05800 0.82745 -0.27800
H 	H 	0.06566 0.83902 0.76767 0.17800
H 	H 	0.05407 0.07318 0.76650 0.23500
C 	C 	0.22400 0.08509 0.74827 0.29500
C 	C 	0.07434 0.83253 0.69630 0.29100
C 	C 	0.25568 0.94549 0.80533 0.28400
C 	C 	0.03688 0.04848 0.83592 0.31600
O 	O 	0.20250 0.08025 0.77575 -0.31500
O 	O 	0.26695 0.96142 0.77761 -0.38500
Ni	Ni	0.34989 0.76394 0.40296 1.10500
O 	O 	0.31657 0.66893 0.37266 -0.70500
Ni	Ni	0.21040 0.66410 0.36388 1.11000
O 	O 	0.43081 0.72385 0.42112 -0.35700
O 	O 	0.34391 0.59261 0.42805 -0.39100
O 	O 	0.43204 0.84161 0.37660 -0.34200
Ni	Ni	0.30995 0.55681 0.38498 1.08600
O 	O 	0.35847 0.94945 0.39598 -0.32100
O 	O 	0.19975 0.49983 0.39828 -0.34100
O 	O 	0.16461 0.55069 0.34181 -0.29400
O 	O 	0.25254 0.77230 0.38845 -0.70000
O 	O 	0.37609 0.86280 0.43113 -0.35600
O 	O 	0.11433 0.68882 0.35362 -0.29400
O 	O 	0.18472 0.82046 0.33801 -0.33700
Ni	Ni	0.27464 0.87648 0.36765 1.11500
H 	H 	0.34726 0.68443 0.35502 0.18300
H 	H 	0.21953 0.77195 0.40496 0.20800
C 	C 	0.16140 0.54019 0.41150 0.31400
O 	O 	0.35114 0.85447 0.34085 -0.33600
C 	C 	0.40865 0.65351 0.43555 0.28100
C 	C 	0.20041 0.49865 0.33480 0.29800
C 	C 	0.42030 0.86388 0.35024 0.29600
C 	C 	0.11885 0.76455 0.34584 0.29000
C 	C 	0.36465 0.93232 0.42369 0.28000
O 	O 	0.16168 0.61257 0.40183 -0.35800
O 	O 	0.27068 0.51064 0.34458 -0.36500
Ni	Ni	0.36556 0.63923 0.13298 1.11000
O 	O 	0.27756 0.62172 0.10406 -0.70400
Ni	Ni	0.21578 0.67703 0.12543 1.10800
O 	O 	0.41565 0.57438 0.10765 -0.32800
O 	O 	0.30538 0.46163 0.10074 -0.36500
O 	O 	0.42550 0.74718 0.11085 -0.35100
Ni	Ni	0.21459 0.50421 0.09612 1.07900
O 	O 	0.46828 0.80409 0.16249 -0.36700
O 	O 	0.18885 0.48076 0.13866 -0.36000
O 	O 	0.13875 0.66496 0.09267 -0.34400
O 	O 	0.29767 0.68309 0.15658 -0.69400
O 	O 	0.45419 0.66518 0.16209 -0.30100
O 	O 	0.17016 0.75731 0.14466 -0.32500
O 	O 	0.26380 0.82860 0.17717 -0.30900
Ni	Ni	0.35920 0.80101 0.16624 1.10500
H 	H 	0.29404 0.65110 0.08572 0.17000
H 	H 	0.27782 0.64873 0.17380 0.23400
C 	C 	0.13663 0.50426 0.15069 0.31300
O 	O 	0.35643 0.82954 0.12360 -0.37500
C 	C 	0.37494 0.50637 0.09266 0.28300
C 	C 	0.11245 0.59488 0.07703 0.28300
C 	C 	0.39963 0.80852 0.10498 0.27200
C 	C 	0.20957 0.82766 0.15867 0.30300
C 	C 	0.49298 0.74354 0.17005 0.30600
O 	O 	0.13397 0.57956 0.14597 -0.31400
O 	O 	0.11506 0.52358 0.08731 -0.38600
O 	O 	0.03252 0.19543 0.23535 -0.32100
O 	O 	0.09328 0.06691 0.22957 -0.32800
O 	O 	0.00744 0.06406 0.19329 -0.24800
Ni	Ni	0.03440 0.02796 0.26676 1.10600
O 	O 	0.04566 0.14614 0.28016 -0.37000
C 	C 	0.05798 0.20880 0.26237 0.30700
C 	C 	0.06300 0.04098 0.20345 0.28100
C 	C 	0.01317 0.38564 0.14465 0.07700
C 	C 	0.06973 0.43965 0.16332 0.00700
C 	C 	0.06023 0.43383 0.19364 -0.05800
C 	C 	0.99651 0.36933 0.20466 0.04700
C 	C 	0.94798 0.32396 0.15568 -0.09100
H 	H 	0.02030 0.39133 0.12145 0.07700
H 	H 	0.99123 0.36041 0.22781 0.08200
C 	C 	0.11902 0.49439 0.21417 0.77600
F 	F 	0.12475 0.57625 0.20858 -0.42500
F 	F 	0.18927 0.48685 0.21034 -0.40900
F 	F 	0.09973 0.47862 0.24285 -0.42500
C 	C 	0.17896 0.02633 0.18280 0.06100
C 	C 	0.09915 0.99685 0.18422 0.02800
C 	C 	0.05565 0.91858 0.17074 -0.08700
C 	C 	0.09278 0.86417 0.16182 0.06500
C 	C 	0.17267 0.89080 0.16285 0.01800
C 	C 	0.21580 0.97608 0.17002 -0.08400
C 	C 	0.29985 0.01430 0.16346 0.78000
H 	H 	0.21229 0.08803 0.19182 0.12200
H 	H 	0.05952 0.80040 0.15470 0.11300
F 	F 	0.32229 0.10082 0.16068 -0.40500
F 	F 	0.31458 0.98136 0.13769 -0.45300
F 	F 	0.34255 0.99768 0.18565 -0.43300
F 	F 	0.42953 0.03715 0.34774 -0.44700
F 	F 	0.38531 0.98159 0.30346 -0.42400
C 	C 	0.20467 0.40750 0.29264 0.06200
C 	C 	0.16189 0.42752 0.31432 0.03000
C 	C 	0.08193 0.38185 0.31527 -0.08900
C 	C 	0.04684 0.32213 0.29331 0.08900
C 	C 	0.09063 0.29529 0.27415 -0.00300
C 	C 	0.16955 0.34170 0.27237 -0.05900
C 	C 	0.21684 0.31875 0.24975 0.78100
H 	H 	0.26532 0.44285 0.29172 0.11000
C 	C 	0.03389 0.39400 0.33991 0.79000
F 	F 	0.28789 0.38123 0.24738 -0.38300
F 	F 	0.18019 0.30772 0.22294 -0.39700
F 	F 	0.22684 0.24468 0.25725 -0.41900
F 	F 	0.01684 0.46582 0.33551 -0.41200
F 	F 	0.07195 0.40039 0.36620 -0.44000
C 	C 	0.96349 0.85540 0.35194 0.05300
C 	C 	0.00922 0.75468 0.31360 0.07600
C 	C 	0.04820 0.78053 0.34016 0.01100
C 	C 	0.02041 0.82423 0.36070 -0.08600
C 	C 	0.05666 0.84509 0.39074 0.77900
H 	H 	0.94783 0.89745 0.36620 0.10700
H 	H 	0.02720 0.71592 0.29870 0.10300
F 	F 	0.01377 0.87515 0.40889 -0.41900
F 	F 	0.12855 0.90603 0.38882 -0.48700
F 	F 	0.06283 0.77373 0.40298 -0.45000
C 	C 	0.34847 0.06216 0.48806 -0.02800
C 	C 	0.32759 0.01175 0.46268 0.02700
C 	C 	0.38457 0.00178 0.44513 -0.05200
C 	C 	0.29057 0.07690 0.50537 0.12400
C 	C 	0.24776 0.96671 0.45546 0.09700
N 	N 	0.38019 0.91367 0.54112 -0.09100
N 	N 	0.24443 0.08871 0.51922 -0.07300
N 	N 	0.18397 0.93064 0.44984 -0.04600
C 	C 	0.01846 0.44941 0.48442 0.04800
C 	C 	0.08684 0.43321 0.48230 -0.03300
C 	C 	0.13113 0.45653 0.45734 0.02800
C 	C 	0.10758 0.49770 0.43463 -0.04700
C 	C 	0.03449 0.50418 0.43540 0.04800
C 	C 	0.99111 0.48243 0.46060 -0.04700
C 	C 	0.11212 0.39365 0.50603 0.12200
C 	C 	0.00267 0.52989 0.40993 0.16200
C 	C 	0.19920 0.43563 0.45474 0.10700
N 	N 	0.25319 0.41818 0.45276 -0.09300
N 	N 	0.13226 0.36213 0.52498 -0.07900
C 	C 	0.44987 0.56177 0.50489 -0.03400
C 	C 	0.47261 0.72247 0.48277 0.02200
C 	C 	0.44515 0.65014 0.46421 -0.06200
C 	C 	0.44135 0.57137 0.47499 0.02600
C 	C 	0.43541 0.50251 0.45510 0.09900
C 	C 	0.38087 0.58638 0.57363 0.12200
C 	C 	0.42630 0.47828 0.51692 0.11400
C 	C 	0.49796 0.80639 0.47099 0.11000
N 	N 	0.31660 0.57592 0.57137 -0.08300
N 	N 	0.43084 0.44758 0.43921 -0.08800
N 	N 	0.40675 0.41167 0.52664 -0.09400
C 	C 	0.35720 0.26283 0.70546 0.06400
C 	C 	0.42722 0.25576 0.71324 0.01900
C 	C 	0.43204 0.20956 0.73803 -0.09400
C 	C 	0.36446 0.15780 0.75082 0.05800
C 	C 	0.29329 0.15577 0.74026 0.02100
C 	C 	0.29005 0.21454 0.71939 -0.08800
C 	C 	0.21526 0.22446 0.71167 0.78800
H 	H 	0.35425 0.30112 0.68720 0.10200
H 	H 	0.36708 0.11590 0.76797 0.09300
C 	C 	0.50813 0.20825 0.74908 0.78100
F 	F 	0.22547 0.29474 0.69502 -0.38200
F 	F 	0.17965 0.23348 0.73678 -0.38300
F 	F 	0.16945 0.15376 0.69627 -0.38700
F 	F 	0.56522 0.28589 0.74571 -0.43800
F 	F 	0.50524 0.18963 0.77822 -0.42000
H 	H 	0.05134 0.67155 0.71031 0.09500
C 	C 	0.06480 0.59228 0.05114 -0.05500
C 	C 	0.09855 0.63512 0.02611 0.01800
C 	C 	0.05577 0.62203 0.00003 -0.01700
C 	C 	0.17698 0.69317 0.02729 0.09300
C 	C 	0.09101 0.66325 0.97391 0.12200
N 	N 	0.23943 0.73975 0.02822 -0.09900
N 	N 	0.11905 0.69611 0.95306 -0.06700
C 	C 	0.48406 0.88454 0.03177 -0.02400
C 	C 	0.49986 0.97201 0.03430 0.02400
C 	C 	0.48527 0.00625 0.06054 -0.02000
C 	C 	0.46010 0.95375 0.08451 0.03400
C 	C 	0.43285 0.86500 0.08046 -0.05100
C 	C 	0.44348 0.83067 0.05349 0.02400
C 	C 	0.49460 0.09463 0.06274 0.13500
C 	C 	0.40896 0.74105 0.04727 0.09300
C 	C 	0.47824 0.01273 0.98386 -0.02800
C 	C 	0.39683 0.96841 0.98618 0.12500
C 	C 	0.47092 0.99319 0.93091 0.11400
C 	C 	0.50942 0.85004 0.00678 0.11600
C 	C 	0.47188 0.99072 0.11344 0.14600
N 	N 	0.43990 0.95548 0.91052 -0.06700
N 	N 	0.33187 0.93297 0.98806 -0.07300
N 	N 	0.50199 0.16519 0.06446 -0.07700
N 	N 	0.48183 0.02036 0.13653 -0.04500
N 	N 	0.38154 0.66975 0.04177 -0.12100
C 	C 	0.39696 0.36381 0.03228 -0.02800
C 	C 	0.44488 0.42426 0.01373 0.02200
C 	C 	0.48130 0.50813 0.02370 -0.02900
C 	C 	0.46781 0.53213 0.05175 0.02200
C 	C 	0.41078 0.47471 0.06862 -0.05800
C 	C 	0.38163 0.38852 0.06008 0.02200
C 	C 	0.34225 0.32487 0.08067 0.12300
C 	C 	0.41760 0.40770 0.96003 -0.03100
C 	C 	0.35014 0.42893 0.96426 0.12200
C 	C 	0.39556 0.40509 0.90690 0.12000
C 	C 	0.36379 0.27629 0.02281 0.12100
C 	C 	0.51649 0.61302 0.06387 0.11900
N 	N 	0.35976 0.41169 0.88705 -0.06200
N 	N 	0.29631 0.44590 0.96769 -0.08900
N 	N 	0.55552 0.67759 0.07347 -0.07100
N 	N 	0.31089 0.27397 0.09709 -0.05200
N 	N 	0.33744 0.20645 0.01523 -0.07700
F 	F 	0.05300 0.08214 0.89842 -0.38500
C 	C 	0.41295 0.04880 0.85833 0.07200
C 	C 	0.47409 0.03923 0.84355 0.01600
C 	C 	0.45936 0.97921 0.82051 -0.07500
C 	C 	0.38315 0.93449 0.81163 0.05300
C 	C 	0.32299 0.95295 0.82411 0.02300
C 	C 	0.33743 1.00000 0.85048 -0.09800
C 	C 	0.27388 0.99621 0.87085 0.77600
H 	H 	0.42441 0.09388 0.87623 0.08200
H 	H 	0.37093 0.89123 0.79322 0.09200
F 	F 	0.30186 0.01639 0.89897 -0.41400
F 	F 	0.21950 0.91575 0.87092 -0.41000
F 	F 	0.24044 0.05318 0.86247 -0.40400
Ni	Ni	0.61456 0.26196 0.88168 1.10300
O 	O 	0.65272 0.34683 0.84930 -0.69400
O 	O 	0.52248 0.29640 0.88687 -0.34700
O 	O 	0.56859 0.44027 0.88364 -0.35700
O 	O 	0.56408 0.17985 0.84872 -0.34600
O 	O 	0.67524 0.12267 0.91669 -0.37400
O 	O 	0.57268 0.16817 0.91133 -0.37000
Ni	Ni	0.71223 0.14368 0.87536 1.09100
H 	H 	0.62041 0.32966 0.83149 0.21300
O 	O 	0.60639 0.07182 0.85807 -0.31100
C 	C 	0.53381 0.37113 0.89824 0.28700
C 	C 	0.55153 0.09939 0.85031 0.32000
C 	C 	0.61431 0.13493 0.92706 0.29300
Ni	Ni	0.59237 0.38366 0.65004 1.11100
O 	O 	0.54943 0.47033 0.63371 -0.33900
O 	O 	0.67044 0.56157 0.63007 -0.38300
O 	O 	0.51300 0.29000 0.62542 -0.35000
O 	O 	0.49756 0.21544 0.67672 -0.33200
O 	O 	0.65987 0.32743 0.66706 -0.69400
O 	O 	0.51548 0.35611 0.68236 -0.32500
Ni	Ni	0.60094 0.20708 0.66692 1.12500
O 	O 	0.57723 0.19850 0.62356 -0.38700
C 	C 	0.59696 0.54482 0.62623 0.29200
C 	C 	0.52903 0.22992 0.61193 0.29000
C 	C 	0.48827 0.27791 0.69190 0.29600
C 	C 	0.66841 0.79865 0.21716 0.04800
C 	C 	0.62770 0.82780 0.16100 0.07500
C 	C 	0.57441 0.76758 0.17785 0.00900
C 	C 	0.59782 0.74667 0.20499 -0.07100
C 	C 	0.54592 0.67277 0.22171 0.78000
H 	H 	0.68542 0.78613 0.23860 0.15600
H 	H 	0.61182 0.83886 0.13915 0.09100
F 	F 	0.58281 0.65646 0.24586 -0.38000
F 	F 	0.52192 0.60097 0.20423 -0.39000
F 	F 	0.48303 0.69002 0.23075 -0.42500
C 	C 	0.57823 0.01968 0.30723 0.04200
C 	C 	0.63157 0.97902 0.30669 0.02800
C 	C 	0.61193 0.89693 0.31829 -0.08900
C 	C 	0.53882 0.85749 0.32960 0.06400
C 	C 	0.48681 0.89950 0.33130 0.00800
C 	C 	0.50609 0.98130 0.31961 -0.07300
C 	C 	0.44976 0.02718 0.31971 0.77300
H 	H 	0.59298 0.08131 0.29774 0.09300
H 	H 	0.52323 0.79491 0.33841 0.08600
F 	F 	0.48020 0.10655 0.30798 -0.41000
C 	C 	0.48286 0.09262 0.47818 -0.03000
C 	C 	0.42580 0.09667 0.49700 0.02600
C 	C 	0.46191 0.04851 0.45155 0.03100
C 	C 	0.44662 0.13144 0.52698 0.02500
C 	C 	0.51972 0.04974 0.43096 0.12900
C 	C 	0.47600 0.21930 0.53196 -0.03000
C 	C 	0.49801 0.25221 0.56021 0.02100
C 	C 	0.49232 0.19692 0.58346 -0.06400
C 	C 	0.45757 0.10907 0.57870 0.03100
C 	C 	0.43654 0.07630 0.55040 -0.02700
C 	C 	0.48602 0.27573 0.50780 0.11200
C 	C 	0.44166 0.05266 0.60302 0.11300
C 	C 	0.52661 0.34269 0.56518 0.08500
C 	C 	0.40527 0.98581 0.54527 0.11400
C 	C 	0.56272 0.13137 0.48664 0.11600
N 	N 	0.49417 0.32048 0.48845 -0.09200
N 	N 	0.42897 0.00769 0.62243 -0.07100
N 	N 	0.56573 0.05062 0.41449 -0.06600
N 	N 	0.62645 0.16234 0.49338 -0.09100
C 	C 	0.47616 0.63328 0.52340 0.02500
C 	C 	0.48395 0.71303 0.51257 -0.03100
C 	C 	0.50910 0.62708 0.55249 0.02500
C 	C 	0.50525 0.78573 0.53209 0.11500
C 	C 	0.58867 0.64956 0.55623 -0.03100
C 	C 	0.61953 0.63983 0.58329 0.01100
C 	C 	0.57043 0.59491 0.60512 -0.06800
C 	C 	0.49219 0.58367 0.60286 0.03500
C 	C 	0.46138 0.59947 0.57640 -0.03100
C 	C 	0.63850 0.68080 0.53204 0.10700
C 	C 	0.44450 0.55922 0.62793 0.12500
C 	C 	0.70046 0.68175 0.58932 0.06700
N 	N 	0.67816 0.70571 0.51273 -0.08400
N 	N 	0.40641 0.53969 0.64795 -0.05500
N 	N 	0.52238 0.84366 0.54769 -0.09000
N 	N 	0.51900 0.87370 0.46181 -0.08300
F 	F 	0.63042 0.05937 0.69972 -0.43400
F 	F 	0.52601 0.14740 0.73386 -0.40500
C 	C 	0.52644 0.02635 0.00857 0.02900
C 	C 	0.50972 0.03864 0.95672 0.03800
C 	C 	0.58470 0.09753 0.95518 -0.06400
C 	C 	0.63110 0.12030 0.98061 0.02800
C 	C 	0.60326 0.08103 0.00698 -0.02800
C 	C 	0.70731 0.18313 0.97961 0.10900
C 	C 	0.65396 0.09486 0.03210 0.12800
N 	N 	0.69438 0.10587 0.05216 -0.05100
N 	N 	0.52966 0.82257 0.98683 -0.08600
C 	C 	0.46090 0.39877 0.98422 0.02900
C 	C 	0.53232 0.56989 0.00495 0.11300
C 	C 	0.44043 0.39680 0.93177 0.03700
C 	C 	0.50709 0.37803 0.92774 -0.06900
C 	C 	0.54889 0.36646 0.95200 0.02500
C 	C 	0.52427 0.37402 0.98017 -0.03000
C 	C 	0.61932 0.35101 0.94806 0.06300
C 	C 	0.56452 0.35714 0.00504 0.11200
N 	N 	0.59659 0.34360 0.02488 -0.08300
N 	N 	0.57298 0.61911 0.98997 -0.08700
C 	C 	0.52425 0.96468 0.80483 0.77700
F 	F 	0.56298 0.93036 0.82361 -0.41200
F 	F 	0.57411 0.04017 0.79473 -0.36500
F 	F 	0.49812 0.90983 0.78134 -0.39500
H 	H 	0.67733 0.34930 0.68691 0.23600
F 	F 	0.63762 0.77206 0.33074 -0.40600
N 	N 	0.54937 0.41503 0.56887 -0.13100
C 	C 	0.97823 0.07649 0.89375 0.77800
C 	C 	0.95033 0.78335 0.30553 -0.11100
H 	H 	0.98553 0.29028 0.29290 0.05200
N 	N 	0.11868 0.63267 0.52861 -0.08800
F 	F 	0.95667 0.11278 0.91742 -0.42500
H 	H 	0.64935 0.35818 0.60178 0.16400
F 	F 	0.94925 0.81317 0.25570 -0.46000
C 	C 	0.06479 0.57303 0.53104 0.13000
N 	N 	0.88244 0.23732 0.47770 -0.07800
N 	N 	0.01434 0.38150 0.97779 -0.07000
C 	C 	0.89635 0.29160 0.49472 0.11800
O 	O 	0.98879 0.98706 0.30682 -0.35900
O 	O 	0.06093 0.90279 0.69664 -0.27500
C 	C 	0.97662 0.43485 0.51218 0.01600
F 	F 	0.00278 0.52357 0.71587 -0.36600
F 	F 	0.89976 0.19279 0.13028 -0.38300
F 	F 	0.67546 0.07068 0.74553 -0.36200
F 	F 	0.03498 0.16279 0.72176 -0.39400
F 	F 	0.88796 0.30544 0.10864 -0.42300
C 	C 	0.97112 0.89541 0.16417 0.78700
F 	F 	0.93198 0.88901 0.18959 -0.42500
F 	F 	0.94062 0.81909 0.14925 -0.40000
C 	C 	0.93710 0.84519 0.32308 0.03800
N 	N 	0.97716 0.55047 0.38965 -0.04100
C 	C 	0.98593 0.54523 0.05102 0.02500
C 	C 	0.94842 0.51438 0.07794 0.13100
N 	N 	0.91852 0.49011 0.09946 -0.04900
C 	C 	0.94279 0.31160 0.18591 0.02800
Ni	Ni	0.75444 0.33690 0.84258 1.11900
Ni	Ni	0.66804 0.46397 0.85955 1.08500
O 	O 	0.72991 0.45795 0.89565 -0.39700
O 	O 	0.78348 0.41650 0.80866 -0.26700
O 	O 	0.71909 0.26131 0.87763 -0.70000
O 	O 	0.84553 0.29946 0.83535 -0.26800
O 	O 	0.76707 0.16175 0.83602 -0.33500
H 	H 	0.74857 0.28729 0.89539 0.17000
C 	C 	0.79932 0.45632 0.89396 0.28200
C 	C 	0.77825 0.49166 0.81095 0.27900
C 	C 	0.83614 0.21890 0.83416 0.29200
O 	O 	0.82289 0.43278 0.86969 -0.31800
O 	O 	0.76461 0.51975 0.83634 -0.35900
O 	O 	0.67062 0.39810 0.61811 -0.69600
Ni	Ni	0.74692 0.35948 0.63822 1.10800
Ni	Ni	0.72418 0.50729 0.60149 1.08500
O 	O 	0.82565 0.55080 0.62426 -0.36200
O 	O 	0.83459 0.39824 0.60917 -0.33100
O 	O 	0.80171 0.29512 0.66153 -0.29200
O 	O 	0.69591 0.17525 0.65814 -0.32700
C 	C 	0.83263 0.54043 0.65203 0.30500
C 	C 	0.82661 0.41901 0.58196 0.28800
C 	C 	0.76382 0.21742 0.66964 0.28900
O 	O 	0.79799 0.46642 0.66347 -0.30600
O 	O 	0.77291 0.44870 0.57391 -0.38800
Ni	Ni	0.03310 0.94671 0.73421 1.12100
O 	O 	0.93820 0.83879 0.73708 -0.33100
O 	O 	0.87843 0.96497 0.74745 -0.33000
O 	O 	0.96617 0.99650 0.71147 -0.24900
O 	O 	0.98050 0.97971 0.82786 -0.36100
Ni	Ni	0.93456 0.97112 0.78630 1.09100
O 	O 	0.92250 0.84714 0.78569 -0.36300
C 	C 	0.91271 0.80260 0.76162 0.30000
C 	C 	0.91053 0.01115 0.72498 0.28500
Ni	Ni	0.93867 0.09345 0.22161 1.11800
O 	O 	0.87389 0.11930 0.25351 -0.69700
Ni	Ni	0.85361 0.01485 0.27655 1.11100
O 	O 	0.91333 0.16331 0.19038 -0.27500
O 	O 	0.83243 0.21985 0.21097 -0.31100
Ni	Ni	0.77601 0.11850 0.23789 1.09100
O 	O 	0.77702 0.02255 0.21096 -0.33600
O 	O 	0.76893 0.02500 0.30186 -0.31300
O 	O 	0.93355 0.00336 0.24930 -0.71400
O 	O 	0.86071 0.91702 0.30064 -0.24400
H 	H 	0.90079 0.17084 0.26521 0.17600
H 	H 	0.91586 0.94764 0.23933 0.26200
C 	C 	0.76251 0.94533 0.22074 0.27200
C 	C 	0.89597 0.22890 0.19725 0.29100
C 	C 	0.70253 0.01815 0.29017 0.28800
C 	C 	0.92836 0.91825 0.30924 0.27200
O 	O 	0.77310 0.93298 0.24863 -0.29500
O 	O 	0.69630 0.03089 0.26221 -0.36200
C 	C 	0.88704 0.26725 0.13499 0.78500
F 	F 	0.81535 0.24935 0.14633 -0.39700
C 	C 	0.71339 0.87184 0.20291 0.05200
C 	C 	0.69827 0.87932 0.17312 -0.09500
C 	C 	0.75524 0.94234 0.15421 0.79600
F 	F 	0.82878 0.96310 0.16512 -0.38600
F 	F 	0.73751 0.01457 0.15240 -0.40300
F 	F 	0.75269 0.90868 0.12660 -0.39100
F 	F 	0.96032 0.95669 0.14708 -0.37200
C 	C 	0.66936 0.85257 0.32001 0.78800
F 	F 	0.72974 0.89770 0.33822 -0.42000
F 	F 	0.69568 0.84516 0.29282 -0.41800
F 	F 	0.96587 0.32629 0.34149 -0.43800
C 	C 	0.90994 0.75733 0.27643 0.78700
F 	F 	0.83609 0.75676 0.27745 -0.38900
F 	F 	0.90635 0.67707 0.26850 -0.39400
C 	C 	0.99730 0.49822 0.53405 -0.03400
C 	C 	0.91385 0.35968 0.51602 -0.02400
C 	C 	0.86752 0.35152 0.54032 0.02500
C 	C 	0.88418 0.41831 0.56076 -0.05700
C 	C 	0.95152 0.48946 0.55851 0.03100
C 	C 	0.97316 0.55400 0.58121 0.11900
C 	C 	0.91887 0.49526 0.46226 0.13100
C 	C 	0.80253 0.27473 0.54426 0.09800
N 	N 	0.86122 0.50545 0.46363 -0.08500
N 	N 	0.75069 0.21349 0.54748 -0.09100
N 	N 	0.99055 0.60551 0.59931 -0.06100
N 	N 	0.76509 0.71535 0.59404 -0.06700
C 	C 	0.88013 0.18574 0.68125 0.08000
C 	C 	0.80352 0.17192 0.68663 0.02900
C 	C 	0.76468 0.11179 0.70732 -0.07300
C 	C 	0.79861 0.05582 0.71775 0.06400
C 	C 	0.87542 0.06918 0.71230 0.03900
C 	C 	0.91844 0.14038 0.69607 -0.08400
C 	C 	0.00449 0.16975 0.69491 0.80500
H 	H 	0.91025 0.23254 0.66572 0.11300
H 	H 	0.76567 0.00289 0.73062 0.12300
C 	C 	0.68789 0.10733 0.71860 0.78300
F 	F 	0.03538 0.25355 0.68727 -0.35800
F 	F 	0.02495 0.12178 0.67456 -0.36800
F 	F 	0.68468 0.18723 0.72157 -0.42900
C 	C 	0.89000 0.69287 0.66155 0.06800
C 	C 	0.88568 0.61187 0.66941 0.01000
C 	C 	0.94530 0.60310 0.68705 -0.08900
C 	C 	0.00863 0.67598 0.69499 0.05400
C 	C 	0.01616 0.75499 0.68358 0.01900
C 	C 	0.95937 0.76044 0.66397 -0.09400
C 	C 	0.97373 0.83480 0.64410 0.78100
H 	H 	0.84276 0.70054 0.64954 0.08900
C 	C 	0.94124 0.51753 0.69785 0.77600
F 	F 	0.93437 0.80878 0.61801 -0.42200
F 	F 	0.05038 0.87145 0.63803 -0.40000
F 	F 	0.94887 0.89412 0.65691 -0.40100
F 	F 	0.94132 0.46528 0.67465 -0.41000
F 	F 	0.87550 0.48174 0.71335 -0.39800
C 	C 	0.89881 0.59206 0.95872 -0.02800
C 	C 	0.93748 0.54242 0.97089 0.02700
C 	C 	0.93817 0.46972 0.95603 -0.02400
C 	C 	0.89728 0.44440 0.92964 0.02400
C 	C 	0.85409 0.49088 0.91840 -0.05400
C 	C 	0.85901 0.56766 0.93206 0.03100
C 	C 	0.97892 0.56743 0.99917 0.01800
C 	C 	0.98054 0.42060 0.96812 0.11000
C 	C 	0.82586 0.62306 0.91809 0.11200
C 	C 	0.94314 0.53170 0.02490 -0.02400
C 	C 	0.86279 0.47974 0.02427 0.12600
C 	C 	0.89956 0.66783 0.97378 0.12400
C 	C 	0.90090 0.37157 0.91392 0.10600
N 	N 	0.79869 0.43827 0.02372 -0.08300
N 	N 	0.90433 0.31347 0.90151 -0.09600
N 	N 	0.79942 0.66726 0.90693 -0.08000
N 	N 	0.90021 0.72827 0.98583 -0.07100
N 	N 	0.76814 0.23327 0.97882 -0.08500
N 	N 	0.67571 0.33897 0.94508 -0.12600
C 	C 	0.01902 0.17784 0.81993 0.03600
C 	C 	0.01761 0.12324 0.84262 0.01700
C 	C 	0.97070 0.12092 0.86633 -0.10400
C 	C 	0.91075 0.15160 0.86306 0.06200
C 	C 	0.90323 0.19341 0.83783 -0.00500
C 	C 	0.96001 0.21048 0.81653 -0.09300
C 	C 	0.95791 0.26303 0.79040 0.76700
H 	H 	0.06082 0.18677 0.80324 0.09600
H 	H 	0.86905 0.14150 0.87989 0.03600
F 	F 	0.01265 0.26381 0.77061 -0.36800
F 	F 	0.97161 0.34514 0.79940 -0.35500
F 	F 	0.88735 0.23092 0.77642 -0.40100
F 	F 	0.93192 0.99250 0.89143 -0.42400
C 	C 	0.76256 0.59570 0.77693 0.05300
C 	C 	0.80867 0.55309 0.78791 0.02700
C 	C 	0.88736 0.58254 0.78144 -0.07700
C 	C 	0.92023 0.66207 0.76890 0.06000
C 	C 	0.87557 0.71065 0.76250 -0.00100
C 	C 	0.79538 0.67352 0.76334 -0.08400
C 	C 	0.74521 0.71998 0.75215 0.77800
H 	H 	0.70185 0.57114 0.78083 0.07900
H 	H 	0.98126 0.68880 0.76601 0.05900
C 	C 	0.93624 0.53024 0.78824 0.78300
F 	F 	0.67109 0.66529 0.74702 -0.41600
F 	F 	0.77263 0.75871 0.72639 -0.41800
F 	F 	0.74453 0.78048 0.77235 -0.42600
F 	F 	0.90509 0.45222 0.77455 -0.34200
F 	F 	0.93983 0.51987 0.81781 -0.40700
F 	F 	0.01001 0.56798 0.77874 -0.38300
