data_crystal

_cell_length_a 20.58971
_cell_length_b 21.54232
_cell_length_c 31.48369
_cell_angle_alpha 60.96550
_cell_angle_beta  118.74998
_cell_angle_gamma 133.31133

_symmetry_space_group_name_	'P 1'
_symmetry_space_group_name_H-M	'P 1'

loop_
_symmetry_equiv_pos_as_xyz
  x,y,z

loop_
_atom_site_label
_atom_site_type_symbol
_atom_site_fract_x
_atom_site_fract_y
_atom_site_fract_z
_atom_site_charge
C 	C 	0.00465 0.97767 0.77221 0.32400
O 	O 	0.00191 0.00699 0.97506 -0.38400
C 	C 	0.00733 0.95877 0.82572 -0.03900
Co	Co	0.01048 0.10074 0.09541 1.17800
O 	O 	0.00337 0.92740 0.75726 -0.35200
Co	Co	0.02673 0.86744 0.63211 1.18500
O 	O 	0.00074 0.04334 0.74014 -0.41200
O 	O 	0.02199 0.91533 0.07938 -0.73200
N 	N 	0.00582 0.33915 0.52393 -0.09800
N 	N 	0.00283 0.49915 0.15982 -0.10500
N 	N 	0.11140 0.78364 0.52758 -0.12300
C 	C 	0.01936 0.62681 0.21599 0.10000
O 	O 	0.04057 0.98660 0.62462 -0.54700
C 	C 	0.04121 0.99421 0.45935 0.33900
Co	Co	0.05049 0.01824 0.05076 1.16400
O 	O 	0.06406 0.12616 0.04356 -0.45700
O 	O 	0.06291 0.16477 0.19585 -0.39200
O 	O 	0.05193 0.11549 0.54167 -0.46000
O 	O 	0.07557 0.94177 0.58258 -0.74000
C 	C 	0.06461 0.05147 0.33276 0.08000
C 	C 	0.06224 0.06275 0.37259 -0.08000
C 	C 	0.04718 0.34729 0.56425 0.09300
C 	C 	0.05647 0.20625 0.64202 0.30900
C 	C 	0.03919 0.72585 0.53557 0.08700
Co	Co	0.06412 0.87245 0.05707 1.17500
O 	O 	0.07958 0.83145 0.18034 -0.36200
Co	Co	0.07672 0.03148 0.55212 1.16500
C 	C 	0.07404 0.02966 0.89262 0.08400
C 	C 	0.08232 0.02415 0.85242 -0.08100
H 	H 	0.11243 0.12643 0.38116 0.06800
C 	C 	0.06524 0.64519 0.71892 0.09800
C 	C 	0.05797 0.56443 0.17235 0.10600
O 	O 	0.08511 0.18453 0.62529 -0.37400
O 	O 	0.11656 0.00035 0.48369 -0.44400
C 	C 	0.09935 0.35780 0.61470 0.02000
C 	C 	0.09943 0.68333 0.19643 0.01000
N 	N 	0.01562 0.40546 0.96063 -0.08500
C 	C 	0.11731 0.22405 0.16445 0.28900
O 	O 	0.12296 0.20002 0.13483 -0.37400
Co	Co	0.12145 0.91429 0.55199 1.19100
C 	C 	0.11635 0.29514 0.65009 -0.07200
C 	C 	0.11569 0.49481 0.59211 0.10700
N 	N 	0.10038 0.54527 0.56350 -0.09800
N 	N 	0.10921 0.48506 0.76397 -0.09700
O 	O 	0.00307 0.99715 0.48196 -0.36300
C 	C 	0.00508 0.99063 0.40551 -0.04200
N 	N 	0.13470 0.11780 0.30945 -0.19700
N 	N 	0.99180 0.60479 0.72322 -0.10300
N 	N 	0.12588 0.54096 0.03084 -0.09800
Co	Co	0.99559 0.07390 0.59708 1.17300
O 	O 	0.96999 0.15638 0.64297 -0.39700
C 	C 	0.21911 0.05818 0.04956 0.24800
C 	C 	0.12888 0.82950 0.16555 0.29600
O 	O 	0.96942 0.87213 0.99105 -0.37600
O 	O 	0.15721 0.88349 0.12447 -0.37700
C 	C 	0.96470 0.97209 0.26397 0.29600
O 	O 	0.16088 0.99793 0.02453 -0.36400
O 	O 	0.18899 0.07257 0.07014 -0.39100
C 	C 	0.27183 0.09944 0.55795 0.29400
C 	C 	0.16118 0.82932 0.66092 0.30700
O 	O 	0.12905 0.82113 0.61538 -0.39000
O 	O 	0.13629 0.85763 0.67527 -0.36300
O 	O 	0.24897 0.01847 0.57691 -0.40300
O 	O 	0.21655 0.11850 0.55037 -0.37200
H 	H 	0.14597 0.07417 0.84018 0.06800
N 	N 	0.14625 0.09753 0.91482 -0.19600
H 	H 	0.13870 0.11123 0.93902 0.10800
H 	H 	0.20977 0.14068 0.90566 0.10400
H 	H 	0.14394 0.10807 0.28393 0.10300
H 	H 	0.18449 0.17765 0.31967 0.10600
C 	C 	0.17173 0.30866 0.69806 0.01500
C 	C 	0.13504 0.43175 0.62802 -0.02200
C 	C 	0.19223 0.65238 0.72058 -0.02000
C 	C 	0.15710 0.69582 0.71343 0.01800
C 	C 	0.20930 0.78845 0.69784 -0.06400
C 	C 	0.14609 0.55935 0.74469 0.11100
C 	C 	0.16890 0.31877 0.16084 -0.07200
C 	C 	0.21265 0.34741 0.20479 0.01600
C 	C 	0.21475 0.41369 0.20580 -0.02500
C 	C 	0.15323 0.37300 0.11535 0.01600
C 	C 	0.27216 0.32359 0.24431 0.08500
C 	C 	0.14600 0.36590 0.06966 0.08900
C 	C 	0.24571 0.43281 0.25291 0.10200
N 	N 	0.14148 0.35985 0.03362 -0.10100
N 	N 	0.32095 0.30565 0.27557 -0.10400
C 	C 	0.16076 0.77248 0.19721 -0.06500
C 	C 	0.12697 0.64614 0.18792 -0.02200
N 	N 	0.25837 0.24631 0.43010 -0.10800
N 	N 	0.76574 0.70316 0.95101 -0.10500
C 	C 	0.72336 0.29127 0.04052 0.12300
N 	N 	0.78053 0.36599 0.05741 -0.12900
C 	C 	0.74650 0.38169 0.07630 0.12700
N 	N 	0.65984 0.32001 0.08223 -0.13500
C 	C 	0.60096 0.25263 0.06032 0.13400
N 	N 	0.63233 0.23825 0.03921 -0.13300
C 	C 	0.73841 0.29843 0.52551 0.12900
N 	N 	0.79748 0.37842 0.53640 -0.12800
C 	C 	0.76412 0.41610 0.53560 0.13000
N 	N 	0.67247 0.37470 0.52290 -0.13300
C 	C 	0.61358 0.29168 0.51726 0.13100
N 	N 	0.64635 0.25425 0.51724 -0.13200
C 	C 	0.25435 0.66437 0.17537 0.12800
N 	N 	0.20745 0.57825 0.17635 -0.12700
C 	C 	0.23831 0.55773 0.15854 0.13000
N 	N 	0.31702 0.62146 0.14270 -0.13300
C 	C 	0.36750 0.70460 0.14579 0.13400
N 	N 	0.33399 0.72702 0.15954 -0.12700
C 	C 	0.30160 0.65522 0.70134 0.12900
N 	N 	0.39151 0.69365 0.70710 -0.12700
C 	C 	0.41415 0.65554 0.69808 0.13300
N 	N 	0.34821 0.57687 0.68646 -0.13300
C 	C 	0.25940 0.53574 0.68306 0.13200
N 	N 	0.23526 0.57570 0.68910 -0.12800
Co	Co	0.92840 0.93318 0.17155 1.19600
Co	Co	0.97859 0.85420 0.13158 1.18100
Co	Co	0.92361 0.08272 0.16848 1.15600
C 	C 	0.88967 0.70738 0.08769 0.29900
O 	O 	0.94104 0.18568 0.10567 -0.40700
O 	O 	0.95357 0.03411 0.14200 -0.78900
C 	C 	0.90587 0.17537 0.06043 0.30200
O 	O 	0.92593 0.82956 0.18346 -0.44800
C 	C 	0.74876 0.90746 0.15323 0.29400
O 	O 	0.96711 0.96679 0.10278 -0.55500
C 	C 	0.98694 0.94802 0.96016 0.31600
O 	O 	0.91915 0.13500 0.04771 -0.38100
O 	O 	0.78948 0.99345 0.13733 -0.35500
O 	O 	0.79042 0.87145 0.16514 -0.36300
O 	O 	0.90418 0.98814 0.23557 -0.37600
O 	O 	0.99701 0.95848 0.24390 -0.36400
O 	O 	0.97359 0.74239 0.08983 -0.40300
O 	O 	0.87353 0.74254 0.10298 -0.37100
Co	Co	0.95787 0.91513 0.68190 1.19400
Co	Co	0.89638 0.02222 0.67699 1.16200
C 	C 	0.94179 0.74865 0.56561 0.28500
O 	O 	0.79954 0.99619 0.61140 -0.33200
O 	O 	0.96031 0.00602 0.65195 -0.78000
C 	C 	0.82136 0.05945 0.57140 0.24900
O 	O 	0.97399 0.82669 0.68903 -0.44700
C 	C 	0.77298 0.82973 0.68910 0.30400
O 	O 	0.88202 0.08035 0.55280 -0.36300
O 	O 	0.81725 0.89046 0.71204 -0.38300
O 	O 	0.81585 0.83340 0.66664 -0.38400
O 	O 	0.98558 0.81545 0.53076 -0.38500
O 	O 	0.92853 0.76082 0.59790 -0.37300
C 	C 	0.91451 0.90310 0.88015 -0.04100
C 	C 	0.98964 0.96655 0.90787 -0.04600
C 	C 	0.92480 0.89418 0.84245 0.10700
N 	N 	0.85606 0.82204 0.82363 -0.19600
H 	H 	0.84899 0.85650 0.89011 0.07300
H 	H 	0.79311 0.77687 0.83369 0.10900
H 	H 	0.86700 0.80714 0.80180 0.11200
C 	C 	0.93500 0.89876 0.34982 -0.03900
C 	C 	0.99591 0.97085 0.31840 -0.04500
C 	C 	0.93823 0.90811 0.39276 0.10800
N 	N 	0.87541 0.83827 0.42057 -0.19700
H 	H 	0.88113 0.83652 0.33929 0.06100
H 	H 	0.82879 0.77651 0.41269 0.10500
H 	H 	0.86981 0.84570 0.44879 0.11200
C 	C 	0.19105 0.44530 0.67598 -0.00100
C 	C 	0.20290 0.37978 0.71206 -0.02100
C 	C 	0.24938 0.38704 0.76337 0.10300
C 	C 	0.19913 0.25103 0.73242 0.08800
N 	N 	0.22138 0.20528 0.75973 -0.10900
N 	N 	0.28646 0.39287 0.80431 -0.09900
C 	C 	0.50879 0.70249 0.69614 0.00000
C 	C 	0.56290 0.67485 0.73546 -0.02100
C 	C 	0.64213 0.70101 0.72850 0.01900
C 	C 	0.67341 0.76300 0.68491 -0.07200
C 	C 	0.61359 0.78062 0.64360 0.02000
C 	C 	0.53461 0.75576 0.65002 -0.01900
C 	C 	0.53690 0.61951 0.78288 0.10400
C 	C 	0.63006 0.81878 0.59418 0.10200
C 	C 	0.47925 0.78389 0.60912 0.11200
C 	C 	0.68855 0.66073 0.76472 0.08200
N 	N 	0.43502 0.80629 0.57651 -0.09500
N 	N 	0.72541 0.62825 0.79363 -0.09900
N 	N 	0.64291 0.84895 0.55461 -0.09300
N 	N 	0.51616 0.57536 0.82073 -0.09600
C 	C 	0.27547 0.70137 0.70691 0.00300
C 	C 	0.30171 0.83570 0.69912 0.01600
C 	C 	0.33170 0.79482 0.69715 -0.01900
C 	C 	0.36579 0.92607 0.70244 0.10300
C 	C 	0.41633 0.84935 0.68177 0.11400
N 	N 	0.48396 0.89331 0.66945 -0.09100
N 	N 	0.41780 0.99819 0.70562 -0.08000
C 	C 	0.19272 0.46527 0.16065 -0.00200
C 	C 	0.15981 0.44308 0.11525 -0.02200
C 	C 	0.14054 0.49717 0.06827 0.10300
N 	N 	0.27048 0.44814 0.29052 -0.10000
C 	C 	0.65093 0.84899 0.15317 -0.06400
C 	C 	0.62409 0.82619 0.19510 0.01700
C 	C 	0.53051 0.77492 0.19333 -0.01700
C 	C 	0.46583 0.76234 0.14702 0.00000
C 	C 	0.49329 0.78703 0.10480 -0.01800
C 	C 	0.58374 0.82149 0.10972 0.02100
C 	C 	0.69193 0.85383 0.24027 0.09100
C 	C 	0.42823 0.77534 0.05680 0.11200
C 	C 	0.60481 0.81826 0.07339 0.09900
C 	C 	0.49974 0.72469 0.23953 0.10800
N 	N 	0.62157 0.81522 0.04452 -0.09800
N 	N 	0.47517 0.68413 0.27638 -0.09900
N 	N 	0.37624 0.76597 0.01849 -0.09600
N 	N 	0.74506 0.87540 0.27664 -0.09900
C 	C 	0.22181 0.69088 0.19355 0.00200
C 	C 	0.28590 0.76911 0.21100 -0.02000
C 	C 	0.25528 0.81199 0.21010 0.02000
C 	C 	0.38180 0.80352 0.23173 0.11500
C 	C 	0.32099 0.89863 0.21982 0.10300
N 	N 	0.37345 0.96791 0.22748 -0.08600
N 	N 	0.45874 0.83223 0.24837 -0.09500
N 	N 	0.95639 0.58142 0.23282 -0.10300
C 	C 	0.77390 0.24979 0.53605 -0.00100
C 	C 	0.79804 0.20979 0.58564 -0.02100
C 	C 	0.79719 0.13816 0.59607 0.01600
C 	C 	0.80230 0.12417 0.55810 -0.06300
C 	C 	0.78800 0.17141 0.50810 0.01500
C 	C 	0.77002 0.23162 0.49693 -0.02000
C 	C 	0.82177 0.24097 0.62620 0.10400
C 	C 	0.78673 0.15509 0.46807 0.09600
C 	C 	0.74925 0.27561 0.44559 0.10400
C 	C 	0.78024 0.07419 0.64367 0.03700
N 	N 	0.73266 0.31080 0.40457 -0.10000
N 	N 	0.76637 0.02341 0.68169 -0.14600
N 	N 	0.78570 0.14209 0.43607 -0.10300
N 	N 	0.84098 0.26606 0.65855 -0.10100
C 	C 	0.91012 0.65956 0.56914 -0.06700
C 	C 	0.83776 0.58087 0.59236 0.01500
C 	C 	0.80159 0.49907 0.58841 -0.02100
C 	C 	0.82600 0.49618 0.55467 -0.00300
C 	C 	0.90109 0.57362 0.53385 -0.02100
C 	C 	0.94864 0.65309 0.54539 0.01100
C 	C 	0.79984 0.58304 0.61985 0.10000
C 	C 	0.92704 0.57281 0.49878 0.10600
C 	C 	0.74213 0.41827 0.62032 0.10700
N 	N 	0.69493 0.35417 0.64606 -0.10100
N 	N 	0.94762 0.57220 0.47071 -0.09800
N 	N 	0.76931 0.58438 0.64187 -0.09700
C 	C 	0.52138 0.23603 0.52587 -0.00600
C 	C 	0.45182 0.24295 0.48708 -0.02300
C 	C 	0.37385 0.21199 0.49844 0.01200
C 	C 	0.36411 0.17111 0.54809 -0.07100
C 	C 	0.43957 0.17755 0.58652 0.01700
C 	C 	0.51161 0.19785 0.57553 -0.02200
C 	C 	0.46036 0.28144 0.43578 0.09800
C 	C 	0.44818 0.17476 0.63566 0.09400
C 	C 	0.57351 0.17666 0.61482 0.10400
C 	C 	0.30932 0.23053 0.46040 0.09100
N 	N 	0.62270 0.15939 0.64626 -0.10300
N 	N 	0.45524 0.17341 0.67481 -0.10100
N 	N 	0.46719 0.31217 0.39481 -0.10100
C 	C 	0.76068 0.26516 0.02551 -0.00300
C 	C 	0.84858 0.32739 0.01440 -0.01600
C 	C 	0.88961 0.29783 0.01106 0.00200
C 	C 	0.84849 0.20723 0.02475 -0.07800
C 	C 	0.75411 0.14906 0.02199 0.02700
C 	C 	0.70935 0.17672 0.02314 -0.03300
C 	C 	0.89187 0.42080 0.00095 0.08800
C 	C 	0.70167 0.06498 0.01207 0.03500
C 	C 	0.61049 0.11751 0.01644 0.10200
C 	C 	0.96018 0.35740 0.98350 0.10900
N 	N 	0.53148 0.06980 0.01086 -0.11500
N 	N 	0.65945 0.99822 0.00341 -0.05800
N 	N 	0.92668 0.49549 0.99014 -0.08200
C 	C 	0.79329 0.47117 0.07951 0.00300
C 	C 	0.79352 0.53533 0.03462 -0.03300
C 	C 	0.80003 0.60505 0.03475 0.00000
C 	C 	0.81810 0.61751 0.08010 -0.06700
C 	C 	0.80199 0.54704 0.12224 0.01700
C 	C 	0.80122 0.47979 0.12399 -0.02200
C 	C 	0.77969 0.52584 0.98782 0.12600
C 	C 	0.77685 0.53926 0.16117 0.09800
C 	C 	0.80354 0.41671 0.17084 0.10800
C 	C 	0.78156 0.65996 0.98826 0.11000
N 	N 	0.80544 0.36635 0.20825 -0.10200
N 	N 	0.75641 0.53300 0.19220 -0.09500
N 	N 	0.76827 0.51829 0.95037 -0.09900
C 	C 	0.50208 0.20189 0.05456 -0.01800
C 	C 	0.45060 0.11099 0.07593 -0.00200
C 	C 	0.35656 0.06313 0.07083 -0.04500
C 	C 	0.31817 0.10828 0.05490 -0.05000
C 	C 	0.37131 0.20033 0.03602 0.00000
C 	C 	0.46116 0.24616 0.03286 -0.00900
C 	C 	0.49470 0.06684 0.10441 0.08600
C 	C 	0.33194 0.24713 0.01729 0.08700
C 	C 	0.51071 0.33816 0.00623 0.08100
C 	C 	0.29851 0.96934 0.07534 0.14400
N 	N 	0.55017 0.41151 0.98501 -0.08500
N 	N 	0.25341 0.89474 0.07855 -0.13000
N 	N 	0.30050 0.28443 0.00232 -0.10400
N 	N 	0.52976 0.03152 0.12720 -0.11300
