data_crystal

_cell_length_a 39.37877
_cell_length_b 46.98375
_cell_length_c 22.35523
_cell_angle_alpha 89.93355
_cell_angle_beta  89.94501
_cell_angle_gamma 89.84858

_symmetry_space_group_name_	'P 1'
_symmetry_space_group_name_H-M	'P 1'

loop_
_symmetry_equiv_pos_as_xyz
  x,y,z

loop_
_atom_site_label
_atom_site_type_symbol
_atom_site_fract_x
_atom_site_fract_y
_atom_site_fract_z
_atom_site_charge
C 	C 	0.51810 0.52928 0.87690 0.02400
C 	C 	0.53564 0.50308 0.88531 0.02300
C 	C 	0.48238 0.52979 0.87688 -0.05000
C 	C 	0.46403 0.50447 0.88551 0.02300
C 	C 	0.51731 0.47768 0.89188 -0.04900
C 	C 	0.48165 0.47820 0.89222 0.02200
H 	H 	0.53069 0.45754 0.89438 0.06500
H 	H 	0.46897 0.54951 0.86799 0.06800
C 	C 	0.46266 0.45286 0.89624 -0.01400
C 	C 	0.42717 0.45316 0.89947 0.01800
C 	C 	0.41332 0.42766 0.92375 -0.04400
C 	C 	0.43840 0.40804 0.94117 0.00600
S 	S 	0.47630 0.42233 0.92563 0.04000
H 	H 	0.38641 0.42312 0.92519 0.05700
C 	C 	0.42813 0.50432 0.88489 -0.01300
C 	C 	0.40972 0.47911 0.89488 0.01800
C 	C 	0.37650 0.48403 0.91790 -0.04200
C 	C 	0.36978 0.51293 0.92745 -0.00000
S 	S 	0.40366 0.53160 0.90610 0.04800
H 	H 	0.35869 0.46731 0.92883 0.05700
C 	C 	0.57288 0.55412 0.87014 0.01900
C 	C 	0.53724 0.55420 0.86621 -0.01400
S 	S 	0.52377 0.58735 0.87875 0.05100
C 	C 	0.56179 0.60260 0.88625 0.00400
C 	C 	0.58681 0.58149 0.88197 -0.04400
C 	C 	0.57145 0.50302 0.88347 -0.01500
C 	C 	0.59005 0.52827 0.87868 0.01800
C 	C 	0.62427 0.52551 0.89848 -0.04600
C 	C 	0.63164 0.49819 0.92047 0.00600
S 	S 	0.59652 0.47844 0.91419 0.04300
H 	H 	0.64317 0.54204 0.89373 0.05700
H 	H 	0.61318 0.58514 0.89304 0.05700
C 	C 	0.42311 0.31844 0.96634 0.01800
C 	C 	0.39866 0.33792 0.98662 0.02900
C 	C 	0.40360 0.36715 0.97838 -0.03300
C 	C 	0.43243 0.37706 0.94766 0.04000
C 	C 	0.45599 0.35729 0.92477 -0.02800
C 	C 	0.45145 0.32821 0.93451 0.00500
H 	H 	0.37614 0.33046 0.00961 0.07100
H 	H 	0.38526 0.38206 0.99645 0.07100
H 	H 	0.47776 0.36437 0.89926 0.06600
H 	H 	0.47003 0.31322 0.91745 0.07300
C 	C 	0.27148 0.55006 0.95364 0.01700
C 	C 	0.27527 0.52643 0.91592 0.00800
C 	C 	0.30733 0.51423 0.90724 -0.03100
C 	C 	0.33577 0.52532 0.93705 0.04200
C 	C 	0.33178 0.54863 0.97564 -0.03400
C 	C 	0.29974 0.56082 0.98420 0.02900
H 	H 	0.25345 0.51774 0.89287 0.07500
H 	H 	0.31009 0.49642 0.87689 0.06500
H 	H 	0.35347 0.55719 0.99929 0.07400
H 	H 	0.29689 0.57873 0.01429 0.06500
C 	C 	0.73008 0.46046 0.93988 0.02700
C 	C 	0.72374 0.48772 0.96293 0.00400
C 	C 	0.69179 0.50035 0.95544 -0.02400
C 	C 	0.66628 0.48610 0.92353 0.03600
C 	C 	0.67354 0.45963 0.89707 -0.02400
C 	C 	0.70522 0.44684 0.90552 0.00100
H 	H 	0.74324 0.49880 0.98780 0.08400
H 	H 	0.68667 0.52092 0.97544 0.06700
H 	H 	0.65464 0.44888 0.87026 0.06500
H 	H 	0.71029 0.42614 0.88613 0.07800
C 	C 	0.56966 0.68906 0.94220 0.02600
C 	C 	0.54804 0.67044 0.97301 0.02400
C 	C 	0.54673 0.64172 0.95707 -0.03000
C 	C 	0.56729 0.63137 0.91049 0.04000
C 	C 	0.59096 0.64953 0.88322 -0.02500
C 	C 	0.59226 0.67827 0.89928 0.00500
H 	H 	0.53129 0.67847 0.00761 0.06100
H 	H 	0.52921 0.62769 0.97995 0.07100
H 	H 	0.60734 0.64167 0.84792 0.06800
H 	H 	0.60976 0.69238 0.87654 0.08100
Zn	Zn	0.40461 0.13912 0.00272 1.22300
C 	C 	0.42876 0.19690 0.98968 0.34300
O 	O 	0.41769 0.11916 0.92879 -0.43700
O 	O 	0.45763 0.18774 0.01217 -0.43200
O 	O 	0.46083 0.14929 0.90599 -0.44100
C 	C 	0.45081 0.13249 0.09939 0.32700
O 	O 	0.42297 0.14553 0.08228 -0.42700
O 	O 	0.47557 0.12836 0.06099 -0.49500
C 	C 	0.43940 0.12944 0.88975 0.33300
O 	O 	0.38336 0.09560 0.04035 -0.30600
Zn	Zn	0.47912 0.14966 0.98650 1.18500
O 	O 	0.40501 0.17871 0.97428 -0.35200
C 	C 	0.35367 0.10684 0.03137 0.29000
O 	O 	0.35372 0.13213 0.00841 -0.30800
C 	C 	0.50382 0.98912 0.54872 0.02000
C 	C 	0.49481 0.01851 0.54878 0.02000
C 	C 	0.50619 0.97426 0.49436 -0.05000
C 	C 	0.50084 0.98861 0.43998 0.02100
C 	C 	0.49025 0.03300 0.49439 -0.05000
C 	C 	0.49301 0.01824 0.44000 0.02000
H 	H 	0.48567 0.05575 0.49437 0.06200
H 	H 	0.51088 0.95153 0.49451 0.06200
C 	C 	0.48982 0.03244 0.38452 -0.01400
C 	C 	0.49081 0.01759 0.33037 0.01500
C 	C 	0.47504 0.03239 0.28252 -0.04500
C 	C 	0.46112 0.05858 0.29983 -0.00400
S 	S 	0.46918 0.06301 0.37269 0.03200
H 	H 	0.47400 0.02443 0.23712 0.05400
C 	C 	0.50104 0.97395 0.38479 -0.01400
C 	C 	0.49689 0.98835 0.33043 0.01500
C 	C 	0.50995 0.97320 0.28064 -0.04400
C 	C 	0.52504 0.94725 0.29655 0.00100
S 	S 	0.52121 0.94336 0.37063 0.03600
H 	H 	0.50867 0.98090 0.23502 0.05700
C 	C 	0.50552 0.98975 0.65838 0.01500
C 	C 	0.50787 0.97503 0.60411 -0.01400
S 	S 	0.53170 0.94608 0.61577 0.03200
C 	C 	0.53963 0.95121 0.68844 -0.00600
C 	C 	0.52293 0.97616 0.70603 -0.04500
C 	C 	0.49256 0.03295 0.60406 -0.01400
C 	C 	0.49687 0.01854 0.65848 0.01400
C 	C 	0.48066 0.03218 0.70738 -0.04500
C 	C 	0.46277 0.05665 0.69057 -0.00600
S 	S 	0.46842 0.06157 0.61724 0.03300
H 	H 	0.48113 0.02407 0.75274 0.05400
H 	H 	0.52363 0.98435 0.75128 0.05300
Zn	Zn	0.58690 0.86579 0.00427 1.22500
C 	C 	0.55921 0.80924 0.98999 0.34800
O 	O 	0.57757 0.88685 0.92989 -0.44100
O 	O 	0.52997 0.81952 0.00843 -0.42400
O 	O 	0.53417 0.85807 0.90197 -0.46900
C 	C 	0.53745 0.87414 0.09585 0.32700
O 	O 	0.56528 0.86020 0.08185 -0.40200
O 	O 	0.51474 0.87968 0.05445 -0.49200
C 	C 	0.55681 0.87747 0.88841 0.32000
O 	O 	0.61116 0.90757 0.04484 -0.27300
Zn	Zn	0.51235 0.85852 0.97987 1.18500
O 	O 	0.58381 0.82655 0.97416 -0.37100
C 	C 	0.63995 0.89444 0.03808 0.29500
O 	O 	0.63808 0.86933 0.01456 -0.32400
Zn	Zn	0.08692 0.63196 0.01525 1.22600
C 	C 	0.06090 0.68937 0.01858 0.32100
O 	O 	0.07020 0.61187 0.08657 -0.42800
O 	O 	0.03281 0.67995 0.99400 -0.39000
O 	O 	0.02573 0.64196 0.10118 -0.47400
C 	C 	0.04650 0.62452 0.91096 0.32800
O 	O 	0.07320 0.63761 0.93249 -0.39800
O 	O 	0.02000 0.61996 0.94530 -0.47900
C 	C 	0.04636 0.62223 0.12146 0.31900
O 	O 	0.11257 0.58908 0.98282 -0.26800
Zn	Zn	0.01159 0.64157 0.01800 1.17400
O 	O 	0.08265 0.67150 0.04277 -0.38200
C 	C 	0.14079 0.60105 0.99873 0.30700
O 	O 	0.13817 0.62667 0.01933 -0.32600
C 	C 	0.00342 0.51136 0.57507 0.02100
C 	C 	0.99502 0.48187 0.57640 0.02100
C 	C 	0.00265 0.52638 0.52078 -0.05000
C 	C 	0.99419 0.51229 0.46754 0.01900
C 	C 	0.98587 0.46788 0.52328 -0.05000
C 	C 	0.98494 0.48298 0.46896 0.02100
H 	H 	0.98080 0.44522 0.52381 0.06200
H 	H 	0.00759 0.54906 0.52018 0.06200
C 	C 	0.97744 0.46925 0.41439 -0.01500
C 	C 	0.97617 0.48426 0.36042 0.01500
C 	C 	0.95676 0.47053 0.31565 -0.04500
C 	C 	0.94237 0.44492 0.33519 -0.00500
S 	S 	0.95433 0.43976 0.40633 0.03200
H 	H 	0.95367 0.47874 0.27069 0.05200
C 	C 	0.99296 0.52703 0.41244 -0.01300
C 	C 	0.98469 0.51303 0.35898 0.01400
C 	C 	0.99766 0.52678 0.30728 -0.04500
C 	C 	0.01716 0.55071 0.32090 -0.00500
S 	S 	0.01675 0.55527 0.39488 0.03100
H 	H 	0.99453 0.51872 0.26227 0.05300
C 	C 	0.01329 0.51014 0.68318 0.01600
C 	C 	0.01064 0.52516 0.62960 -0.01400
S 	S 	0.03078 0.55607 0.63801 0.03100
C 	C 	0.04298 0.55171 0.70927 -0.00300
C 	C 	0.03127 0.52501 0.72824 -0.04400
C 	C 	0.99807 0.46694 0.63121 -0.01400
C 	C 	0.00661 0.48103 0.68446 0.01700
C 	C 	0.99600 0.46634 0.73662 -0.04400
C 	C 	0.97823 0.44136 0.72382 0.00200
S 	S 	0.97695 0.43733 0.64958 0.03600
H 	H 	0.99975 0.47424 0.78161 0.05900
H 	H 	0.03452 0.51713 0.77342 0.05700
Zn	Zn	0.90269 0.36423 0.01264 1.22100
C 	C 	0.92593 0.30628 0.02971 0.33300
O 	O 	0.91029 0.38376 0.08945 -0.44800
O 	O 	0.95616 0.31545 0.01395 -0.42500
O 	O 	0.95136 0.35322 0.12082 -0.44400
C 	C 	0.95566 0.37076 0.92687 0.32900
O 	O 	0.92661 0.35808 0.93743 -0.42300
O 	O 	0.97709 0.37505 0.97089 -0.48000
C 	C 	0.92889 0.37305 0.13279 0.33300
O 	O 	0.88391 0.40798 0.97165 -0.26200
Zn	Zn	0.97538 0.35335 0.04507 1.17700
O 	O 	0.90122 0.32449 0.04020 -0.36700
C 	C 	0.85387 0.39675 0.97394 0.28700
O 	O 	0.85256 0.37131 0.99611 -0.32200
C 	C 	0.01826 0.97180 0.08404 0.02300
C 	C 	0.03555 0.99835 0.08402 0.01800
C 	C 	0.98272 0.97111 0.08942 -0.05100
C 	C 	0.96412 0.99662 0.09286 0.02300
C 	C 	0.01700 0.02384 0.08880 -0.04800
C 	C 	0.98136 0.02317 0.09229 0.01900
H 	H 	0.03023 0.04397 0.09191 0.06200
H 	H 	0.96975 0.95087 0.09306 0.06600
C 	C 	0.96218 0.04845 0.09804 -0.01200
C 	C 	0.92653 0.04805 0.09966 0.01700
C 	C 	0.91149 0.07439 0.08225 -0.04500
C 	C 	0.93560 0.09477 0.06526 0.00600
S 	S 	0.97418 0.08032 0.07314 0.03200
H 	H 	0.88447 0.07860 0.08363 0.05500
C 	C 	0.92846 0.99650 0.09953 -0.01400
C 	C 	0.90955 0.02185 0.10043 0.01800
C 	C 	0.87485 0.01799 0.08445 -0.04500
C 	C 	0.86737 0.98975 0.06928 0.00500
S 	S 	0.90284 0.97045 0.07696 0.03800
H 	H 	0.85599 0.03477 0.08567 0.05500
C 	C 	0.07285 0.94701 0.07244 0.01900
C 	C 	0.03755 0.94646 0.08098 -0.01400
S 	S 	0.02334 0.91544 0.05510 0.04400
C 	C 	0.06049 0.90169 0.03351 0.00500
C 	C 	0.08592 0.92155 0.04660 -0.04600
C 	C 	0.07139 0.99835 0.08156 -0.01000
C 	C 	0.08988 0.97315 0.07290 0.01600
C 	C 	0.12285 0.97777 0.04875 -0.04700
C 	C 	0.12943 0.00656 0.03708 0.00700
S 	S 	0.09532 0.02533 0.05772 0.02400
H 	H 	0.14148 0.96107 0.04231 0.06200
H 	H 	0.11264 0.91766 0.03854 0.05800
C 	C 	0.91965 0.18462 0.04789 0.03100
C 	C 	0.89539 0.16555 0.02576 -0.00200
C 	C 	0.90029 0.13619 0.03229 -0.02400
C 	C 	0.92897 0.12575 0.06266 0.03200
C 	C 	0.95211 0.14504 0.08794 -0.02400
C 	C 	0.94754 0.17429 0.08025 -0.00600
H 	H 	0.87319 0.17343 0.00235 0.08300
H 	H 	0.88216 0.12161 0.01278 0.06200
H 	H 	0.97368 0.13744 0.11341 0.06200
H 	H 	0.96589 0.18895 0.09891 0.07200
C 	C 	0.76845 0.95234 0.05829 0.03300
C 	C 	0.77440 0.97926 0.03325 -0.00400
C 	C 	0.80656 0.99169 0.03762 -0.02400
C 	C 	0.83274 0.97763 0.06855 0.03200
C 	C 	0.82607 0.95138 0.09646 -0.02300
C 	C 	0.79414 0.93878 0.09108 -0.00500
H 	H 	0.75433 0.99028 0.00945 0.07800
H 	H 	0.81126 0.01197 0.01611 0.06200
H 	H 	0.84557 0.94070 0.12225 0.06600
H 	H 	0.78945 0.91832 0.11187 0.07900
C 	C 	0.22804 0.04449 0.03393 0.01200
C 	C 	0.22030 0.02373 0.07691 0.00200
C 	C 	0.18836 0.01082 0.07724 -0.02600
C 	C 	0.16378 0.01880 0.03485 0.01700
C 	C 	0.17147 0.03975 0.99223 -0.00900
C 	C 	0.20344 0.05261 0.99189 0.01600
H 	H 	0.23897 0.01772 0.11020 0.07400
H 	H 	0.18250 0.99507 0.11110 0.06100
H 	H 	0.15259 0.04622 0.95967 0.07000
H 	H 	0.20905 0.06897 0.95917 0.08300
C 	C 	0.07069 0.81123 0.02664 0.01400
C 	C 	0.04793 0.82522 0.98838 0.01600
C 	C 	0.04567 0.85489 0.98889 -0.00700
C 	C 	0.06633 0.87084 0.02735 0.02000
C 	C 	0.09042 0.85684 0.06338 -0.02200
C 	C 	0.09283 0.82715 0.06245 0.00300
H 	H 	0.03131 0.81306 0.95953 0.07900
H 	H 	0.02733 0.86548 0.96035 0.07000
H 	H 	0.10648 0.86885 0.09342 0.06400
H 	H 	0.11103 0.81647 0.09109 0.08000
C 	C 	0.92912 0.25867 0.98274 0.09300
C 	C 	0.91933 0.27538 0.03180 -0.03400
C 	C 	0.90614 0.26213 0.08396 -0.06700
C 	C 	0.90332 0.23228 0.08555 0.00300
C 	C 	0.91568 0.21557 0.03841 0.07000
C 	C 	0.92804 0.22878 0.98579 -0.12100
C 	C 	0.94044 0.21106 0.93324 0.78900
H 	H 	0.93847 0.26907 0.94274 0.08400
H 	H 	0.89289 0.22184 0.12468 0.09200
C 	C 	0.89517 0.27959 0.13790 0.77200
F 	F 	0.95174 0.22789 0.88644 -0.42700
F 	F 	0.91426 0.19430 0.91215 -0.43200
F 	F 	0.96708 0.19378 0.95103 -0.43300
F 	F 	0.86630 0.29502 0.12395 -0.42100
F 	F 	0.92079 0.29801 0.15465 -0.44200
F 	F 	0.88787 0.26249 0.18672 -0.43000
C 	C 	0.94093 0.40790 0.77937 -0.04100
C 	C 	0.97364 0.41802 0.76692 0.04600
C 	C 	0.00115 0.40868 0.80171 -0.05800
C 	C 	0.99557 0.39147 0.85177 0.03000
C 	C 	0.96240 0.38347 0.86754 -0.07700
C 	C 	0.93532 0.39059 0.82936 0.04000
H 	H 	0.91959 0.41463 0.75220 0.09800
H 	H 	0.02667 0.41574 0.79144 0.06300
H 	H 	0.01689 0.38526 0.87950 0.04700
H 	H 	0.90977 0.38382 0.83984 0.10500
C 	C 	0.95930 0.40069 0.28177 -0.06100
C 	C 	0.93469 0.42159 0.29369 0.04700
C 	C 	0.90552 0.42318 0.25795 -0.05900
C 	C 	0.90229 0.40567 0.20776 0.03500
C 	C 	0.92845 0.38660 0.19249 -0.07800
C 	C 	0.95616 0.38320 0.23154 0.03000
H 	H 	0.98185 0.39915 0.30934 0.06300
H 	H 	0.88616 0.43900 0.26728 0.07100
H 	H 	0.88015 0.40784 0.17935 0.06400
H 	H 	0.97616 0.36809 0.22135 0.04700
C 	C 	0.09112 0.76456 0.98928 0.01500
C 	C 	0.07091 0.77984 0.02975 0.07600
C 	C 	0.04926 0.76515 0.06985 -0.13700
C 	C 	0.04703 0.73535 0.06624 0.08000
C 	C 	0.06627 0.72017 0.02427 -0.03200
C 	C 	0.08897 0.73471 0.98590 -0.05000
C 	C 	0.11026 0.71848 0.94056 0.76900
H 	H 	0.10788 0.77608 0.95944 0.09700
H 	H 	0.02987 0.72385 0.09543 0.07000
C 	C 	0.02798 0.78128 0.11543 0.79100
F 	F 	0.13044 0.73645 0.90674 -0.41900
F 	F 	0.08924 0.70373 0.90200 -0.42800
F 	F 	0.13126 0.69941 0.96989 -0.42100
F 	F 	0.00482 0.79856 0.08627 -0.44300
F 	F 	0.04873 0.79788 0.15092 -0.43900
F 	F 	0.01015 0.76305 0.15259 -0.43300
C 	C 	0.01826 0.60940 0.81678 0.03400
C 	C 	0.04794 0.61148 0.85120 -0.07600
C 	C 	0.07761 0.59751 0.83214 0.03800
C 	C 	0.07667 0.57948 0.78243 -0.05600
C 	C 	0.04625 0.57565 0.75097 0.04800
C 	C 	0.01743 0.59157 0.76683 -0.06000
H 	H 	0.99541 0.62057 0.83028 0.04600
H 	H 	0.10084 0.59930 0.85775 0.06300
H 	H 	0.09912 0.56744 0.77020 0.07600
H 	H 	0.99386 0.58889 0.74254 0.06400
C 	C 	0.06600 0.59539 0.21133 0.03500
C 	C 	0.03948 0.60853 0.17955 -0.08300
C 	C 	0.00589 0.60557 0.19991 0.02700
C 	C 	0.99872 0.58793 0.24867 -0.06400
C 	C 	0.02505 0.57330 0.27775 0.04600
C 	C 	0.05878 0.57789 0.26032 -0.05400
H 	H 	0.09208 0.59794 0.19685 0.08400
H 	H 	0.98520 0.61579 0.17622 0.03000
H 	H 	0.97260 0.58478 0.26239 0.06100
H 	H 	0.07929 0.56692 0.28305 0.07800
C 	C 	0.69474 0.91010 0.99456 0.08700
C 	C 	0.67268 0.90942 0.04384 -0.01200
C 	C 	0.68220 0.92278 0.09806 -0.07200
C 	C 	0.71257 0.93843 0.10014 0.00800
C 	C 	0.73502 0.93848 0.05145 0.06700
C 	C 	0.72650 0.92360 0.99847 -0.11500
C 	C 	0.75081 0.92266 0.94562 0.78800
H 	H 	0.68706 0.90004 0.95316 0.08600
H 	H 	0.71932 0.95002 0.14028 0.08800
C 	C 	0.66053 0.91988 0.15395 0.77200
F 	F 	0.73975 0.90412 0.90171 -0.42400
F 	F 	0.78258 0.91359 0.96404 -0.42600
F 	F 	0.75348 0.94949 0.92064 -0.43700
F 	F 	0.65267 0.89156 0.16362 -0.43500
F 	F 	0.63092 0.93542 0.14727 -0.45000
F 	F 	0.67726 0.92973 0.20425 -0.43700
C 	C 	0.57750 0.92837 0.76299 -0.06100
C 	C 	0.54714 0.92798 0.73037 0.04600
C 	C 	0.52197 0.90803 0.74468 -0.06200
C 	C 	0.52609 0.89003 0.79400 0.02700
C 	C 	0.55540 0.89196 0.82968 -0.08700
C 	C 	0.58174 0.91033 0.81219 0.03300
H 	H 	0.59722 0.94351 0.75180 0.07100
H 	H 	0.49850 0.90747 0.71945 0.06500
H 	H 	0.50580 0.87559 0.80605 0.04400
H 	H 	0.60495 0.91143 0.83804 0.06100
C 	C 	0.49846 0.91305 0.22608 -0.05900
C 	C 	0.52763 0.92315 0.25503 0.04500
C 	C 	0.55966 0.91302 0.23772 -0.04000
C 	C 	0.56274 0.89488 0.18843 0.03800
C 	C 	0.53380 0.88706 0.15567 -0.07300
C 	C 	0.50152 0.89507 0.17661 0.02900
H 	H 	0.47353 0.92023 0.24010 0.06200
H 	H 	0.58229 0.92033 0.26048 0.10100
H 	H 	0.58769 0.88813 0.17393 0.11400
H 	H 	0.47888 0.88836 0.15307 0.04400
C 	C 	0.31916 0.06542 0.00052 0.05400
C 	C 	0.32238 0.08991 0.03582 0.00100
C 	C 	0.29541 0.09837 0.07381 -0.07500
C 	C 	0.26458 0.08337 0.07181 0.00300
C 	C 	0.26111 0.05921 0.03563 0.08900
C 	C 	0.28885 0.04963 0.00062 -0.14600
C 	C 	0.28584 0.02309 0.96225 0.80200
H 	H 	0.34014 0.05904 0.97209 0.09200
H 	H 	0.24308 0.09054 0.09812 0.09100
C 	C 	0.29904 0.12383 0.11510 0.77500
F 	F 	0.31630 0.01619 0.93484 -0.43700
F 	F 	0.26178 0.02746 0.91814 -0.43700
F 	F 	0.27620 0.00020 0.99724 -0.43700
F 	F 	0.29811 0.14863 0.08178 -0.41800
F 	F 	0.32949 0.12238 0.14582 -0.44200
F 	F 	0.27315 0.12485 0.15699 -0.42900
C 	C 	0.41672 0.09886 0.80782 0.03800
C 	C 	0.44326 0.11546 0.83099 -0.07800
C 	C 	0.47478 0.11580 0.80137 0.03000
C 	C 	0.48049 0.09792 0.75240 -0.06200
C 	C 	0.45474 0.07971 0.73245 0.04700
C 	C 	0.42252 0.08097 0.75892 -0.05800
H 	H 	0.39199 0.09897 0.82910 0.06800
H 	H 	0.49537 0.12881 0.81802 0.04200
H 	H 	0.50540 0.09725 0.73179 0.06300
H 	H 	0.40237 0.06721 0.74326 0.07600
C 	C 	0.48387 0.11442 0.18656 0.03000
C 	C 	0.45234 0.11880 0.15868 -0.08000
C 	C 	0.42298 0.10676 0.18383 0.02900
C 	C 	0.42558 0.08853 0.23312 -0.05100
C 	C 	0.45744 0.08244 0.25796 0.04400
C 	C 	0.48639 0.09631 0.23601 -0.06100
H 	H 	0.50660 0.12412 0.16849 0.04300
H 	H 	0.39842 0.11026 0.16332 0.08900
H 	H 	0.40304 0.07810 0.25017 0.07800
H 	H 	0.51107 0.09197 0.25542 0.06300
C 	C 	0.42990 0.24490 0.03521 0.06600
C 	C 	0.42230 0.22783 0.98557 -0.00200
C 	C 	0.41143 0.24073 0.93137 -0.06500
C 	C 	0.40827 0.27054 0.92867 -0.00200
C 	C 	0.41873 0.28760 0.97656 0.10800
C 	C 	0.42919 0.27476 0.03088 -0.15000
C 	C 	0.43974 0.29285 0.08404 0.79400
H 	H 	0.43732 0.23479 0.07679 0.08700
H 	H 	0.39921 0.28069 0.88815 0.09600
C 	C 	0.40325 0.22295 0.87644 0.77300
F 	F 	0.45036 0.27633 0.13186 -0.42900
F 	F 	0.41255 0.30922 0.10289 -0.43900
F 	F 	0.46630 0.31052 0.06808 -0.44300
F 	F 	0.37360 0.20792 0.88611 -0.41500
F 	F 	0.42947 0.20415 0.86445 -0.44100
F 	F 	0.39876 0.23976 0.82613 -0.42800
C 	C 	0.21716 0.55209 0.00963 -0.01200
C 	C 	0.23758 0.56275 0.96341 0.10400
C 	C 	0.22602 0.58588 0.92812 -0.13200
C 	C 	0.19423 0.59821 0.94081 0.07000
C 	C 	0.17396 0.58769 0.98735 0.01600
C 	C 	0.18556 0.56466 0.02275 -0.08600
C 	C 	0.16412 0.55331 0.07400 0.77500
H 	H 	0.22616 0.53414 0.03569 0.09000
H 	H 	0.18506 0.61599 0.91441 0.09700
C 	C 	0.24763 0.59749 0.87735 0.79200
F 	F 	0.18143 0.53309 0.10730 -0.43800
F 	F 	0.13504 0.54088 0.05146 -0.44300
F 	F 	0.15510 0.57530 0.11200 -0.44000
F 	F 	0.25482 0.57605 0.83693 -0.43800
F 	F 	0.27770 0.60814 0.89991 -0.42800
F 	F 	0.23131 0.61920 0.84675 -0.41800
C 	C 	0.79935 0.41586 0.01227 0.05300
C 	C 	0.82288 0.41398 0.96532 0.02000
C 	C 	0.81634 0.42811 0.91049 -0.07700
C 	C 	0.78705 0.44512 0.90514 0.00300
C 	C 	0.76288 0.44608 0.95118 0.09800
C 	C 	0.76879 0.43105 0.00520 -0.14400
C 	C 	0.74285 0.43157 0.05563 0.79100
H 	H 	0.80487 0.40527 0.05425 0.08900
H 	H 	0.78235 0.45694 0.86431 0.09000
C 	C 	0.83992 0.42442 0.85721 0.77400
F 	F 	0.75191 0.41351 0.10195 -0.42700
F 	F 	0.71145 0.42301 0.03471 -0.44000
F 	F 	0.74024 0.45884 0.07835 -0.44700
F 	F 	0.84554 0.39578 0.84679 -0.44500
F 	F 	0.87053 0.43771 0.86848 -0.44700
F 	F 	0.82628 0.43607 0.80560 -0.44000
C 	C 	0.54274 0.76656 0.93257 0.06900
C 	C 	0.56244 0.77857 0.97811 0.00600
C 	C 	0.58469 0.76122 0.01205 -0.10700
C 	C 	0.58746 0.73209 0.99816 0.05100
C 	C 	0.56749 0.72002 0.95297 0.07500
C 	C 	0.54492 0.73735 0.91954 -0.12600
C 	C 	0.52322 0.72474 0.87003 0.78900
H 	H 	0.52575 0.78014 0.90717 0.07300
H 	H 	0.60495 0.71864 0.02279 0.07300
C 	C 	0.60575 0.77378 0.06237 0.78100
F 	F 	0.50315 0.74515 0.84255 -0.43100
F 	F 	0.50202 0.70410 0.89338 -0.43600
F 	F 	0.54382 0.71266 0.82680 -0.43700
F 	F 	0.58514 0.78900 0.10105 -0.43100
F 	F 	0.63008 0.79175 0.03872 -0.42700
F 	F 	0.62210 0.75286 0.09527 -0.42700
