data_crystal

_cell_length_a 26.16454
_cell_length_b 26.34437
_cell_length_c 45.38247
_cell_angle_alpha 95.50283
_cell_angle_beta  95.50214
_cell_angle_gamma 125.83857

_symmetry_space_group_name_	'P 1'
_symmetry_space_group_name_H-M	'P 1'

loop_
_symmetry_equiv_pos_as_xyz
  x,y,z

loop_
_atom_site_label
_atom_site_type_symbol
_atom_site_fract_x
_atom_site_fract_y
_atom_site_fract_z
_atom_site_charge
N 	N 	0.99262 0.00512 0.47962 -0.12800
C 	C 	0.89631 0.00111 0.47385 -0.05900
Br	Br	0.70627 0.00730 0.47448 -0.12500
C 	C 	0.12862 0.02180 0.51113 0.10200
Br	Br	0.24471 0.05943 0.54992 -0.12900
Br	Br	0.72209 0.02266 0.98571 -0.12500
Br	Br	0.29197 0.13218 0.04922 -0.12700
C 	C 	0.97110 0.05281 0.99418 0.18800
C 	C 	0.06415 0.05990 0.99069 0.19000
C 	C 	0.87317 0.00701 0.44606 0.10300
C 	C 	0.09198 0.01451 0.48402 -0.05900
C 	C 	0.19512 0.05368 0.51370 0.07900
Br	Br	0.94155 0.08916 0.93454 -0.12000
C 	C 	0.17363 0.10245 0.01696 0.10400
N 	N 	0.03535 0.08866 0.99478 -0.11900
C 	C 	0.89458 0.03023 0.50103 0.10500
C 	C 	0.85042 0.04393 0.44546 0.07900
Br	Br	0.92124 0.01751 0.53900 -0.12300
Br	Br	0.81755 0.05120 0.40747 -0.12300
C 	C 	0.92220 0.10241 0.97323 0.10300
C 	C 	0.93950 0.08369 0.99800 -0.05400
Br	Br	0.63610 0.07792 0.97548 -0.16600
Br	Br	0.95230 0.07113 0.06057 -0.11800
C 	C 	0.13400 0.09856 0.99213 -0.05400
C 	C 	0.23909 0.13261 0.01670 0.07900
C 	C 	0.88900 0.12889 0.97647 0.07800
C 	C 	0.92362 0.09152 0.02602 0.10400
C 	C 	0.76292 0.11278 0.99626 0.06500
Br	Br	0.86919 0.15873 0.94318 -0.14100
C 	C 	0.85217 0.07610 0.47265 0.01200
C 	C 	0.87335 0.06843 0.50045 0.07800
Br	Br	0.66789 0.10804 0.48052 -0.20700
C 	C 	0.12222 0.04141 0.45991 0.10600
C 	C 	0.87005 0.13352 0.00403 0.01200
C 	C 	0.88752 0.11495 0.02885 0.07900
C 	C 	0.76996 0.09633 0.47390 0.06600
C 	C 	0.22542 0.08082 0.48963 0.01200
C 	C 	0.72622 0.13577 0.99321 0.12300
Br	Br	0.86068 0.12030 0.06642 -0.12300
C 	C 	0.82983 0.15578 0.00650 0.02300
C 	C 	0.26583 0.16221 0.99241 0.01200
Br	Br	0.28717 0.07172 0.95501 -0.12400
C 	C 	0.83333 0.11930 0.47203 0.02200
C 	C 	0.18911 0.07581 0.46298 0.07800
C 	C 	0.16076 0.12841 0.96791 0.10400
C 	C 	0.75329 0.13838 0.47549 0.12200
Br	Br	0.07156 0.02876 0.42227 -0.11800
C 	C 	0.29533 0.11401 0.49215 0.02300
Br	Br	0.87447 0.11139 0.53769 -0.13700
C 	C 	0.31823 0.08098 0.48035 0.06300
C 	C 	0.33445 0.19256 0.99176 0.02200
C 	C 	0.22699 0.16180 0.96849 0.07900
C 	C 	0.35228 0.15802 0.97614 0.06600
Br	Br	0.30743 0.22435 0.52149 -0.12100
C 	C 	0.33875 0.17932 0.50504 0.06500
C 	C 	0.38387 0.11424 0.47943 0.12500
Br	Br	0.41454 0.07030 0.46088 -0.16800
C 	C 	0.38197 0.25514 0.00760 0.06700
C 	C 	0.41753 0.18608 0.97636 0.12800
Br	Br	0.44138 0.14150 0.95212 -0.17900
Br	Br	0.10619 0.12085 0.93333 -0.11700
C 	C 	0.87924 0.18376 0.47032 0.06400
C 	C 	0.75603 0.20146 0.00187 -0.11800
H 	H 	0.60128 0.22255 0.65340 0.06200
H 	H 	0.59348 0.23101 0.70717 0.06000
Br	Br	0.23126 0.11623 0.43074 -0.12700
O 	O 	0.67065 0.21177 0.00484 -0.33500
C 	C 	0.42692 0.18005 0.49132 -0.11100
H 	H 	0.57762 0.20835 0.29155 0.06500
H 	H 	0.67795 0.21801 0.20475 0.06300
C 	C 	0.44728 0.28147 0.00970 0.13100
H 	H 	0.59068 0.21844 0.23878 0.06300
C 	C 	0.46527 0.24724 0.99376 -0.11200
C 	C 	0.85885 0.22076 0.01690 0.06400
H 	H 	0.67756 0.22686 0.15104 0.06600
O 	O 	0.55402 0.24352 0.00880 -0.33100
C 	C 	0.79944 0.20304 0.47425 -0.12000
C 	C 	0.72124 0.22761 0.99339 0.33300
C 	C 	0.40474 0.21189 0.50536 0.12900
H 	H 	0.58381 0.24212 0.95228 0.20300
Br	Br	0.96600 0.21514 0.46775 -0.12200
H 	H 	0.58589 0.19903 0.45406 0.19200
O 	O 	0.64321 0.25770 0.90435 -0.38800
Cu	Cu	0.68102 0.25261 0.94103 0.88800
O 	O 	0.53371 0.21049 0.50478 -0.34500
C 	C 	0.82151 0.24317 0.01541 0.12800
C 	C 	0.86195 0.22531 0.47085 0.12900
C 	C 	0.49424 0.21614 0.48759 0.32900
Br	Br	0.26473 0.20694 0.93654 -0.12300
C 	C 	0.53366 0.27367 0.99679 0.32300
O 	O 	0.62906 0.26717 0.96269 -0.63700
O 	O 	0.74059 0.26628 0.97403 -0.40800
Cu	Cu	0.64260 0.26762 0.00629 0.93600
C 	C 	0.62228 0.27398 0.69800 -0.03300
C 	C 	0.62688 0.26920 0.66758 -0.01900
C 	C 	0.62366 0.24610 0.28680 -0.01800
O 	O 	0.74410 0.24443 0.45538 -0.32900
C 	C 	0.68693 0.26035 0.19780 -0.03100
C 	C 	0.63111 0.25170 0.25692 -0.03100
C 	C 	0.78275 0.24759 0.47754 0.32600
C 	C 	0.68689 0.26545 0.16741 -0.01800
Br	Br	0.13834 0.06773 0.05158 -0.11900
O 	O 	0.61286 0.24529 0.46249 -0.63900
Br	Br	0.95010 0.27932 0.03201 -0.12300
O 	O 	0.67057 0.28317 0.04885 -0.33700
O 	O 	0.63658 0.25988 0.54826 -0.36800
Cu	Cu	0.62479 0.26216 0.50524 0.91200
O 	O 	0.51618 0.26194 0.47156 -0.35300
O 	O 	0.68189 0.26427 0.41498 -0.33500
O 	O 	0.59727 0.26976 0.40435 -0.34400
C 	C 	0.64922 0.27734 0.39745 0.30800
C 	C 	0.65885 0.28181 0.36693 -0.06400
C 	C 	0.66654 0.28559 0.34124 0.06600
H 	H 	0.55273 0.28641 0.79861 0.06300
Br	Br	0.25936 0.99038 0.46514 -0.11500
Br	Br	0.08775 0.98931 0.54493 -0.11700
H 	H 	0.55412 0.29018 0.74448 0.06200
Br	Br	0.35734 0.30455 0.02654 -0.11700
C 	C 	0.02179 0.97628 0.48038 0.20200
N 	N 	0.02881 0.99540 0.98636 -0.11800
C 	C 	0.96479 0.95962 0.98611 0.19300
N 	N 	0.93590 0.98832 0.98989 -0.11900
C 	C 	0.92760 0.96951 0.47453 0.20000
N 	N 	0.98597 0.91186 0.47642 -0.12300
C 	C 	0.92096 0.87608 0.47135 0.19300
N 	N 	0.89168 0.90489 0.47020 -0.12000
Cu	Cu	0.67766 0.36049 0.96322 0.90500
Cu	Cu	0.66331 0.39712 0.02416 0.91300
C 	C 	0.67254 0.32473 0.06857 0.31200
C 	C 	0.65481 0.31116 0.89845 0.30600
O 	O 	0.70298 0.36562 0.00522 -0.63800
O 	O 	0.64980 0.35563 0.06026 -0.35100
O 	O 	0.73036 0.45182 0.96536 -0.35600
C 	C 	0.73105 0.49329 0.98458 0.33900
O 	O 	0.57534 0.33091 0.99124 -0.36600
O 	O 	0.71104 0.48055 0.01045 -0.35300
O 	O 	0.65863 0.35251 0.91931 -0.35200
H 	H 	0.74980 0.39011 0.01238 0.19400
Cu	Cu	0.70864 0.29432 0.45762 0.93500
Cu	Cu	0.76403 0.29858 0.52893 0.89600
Cu	Cu	0.58213 0.28653 0.44548 0.91600
O 	O 	0.74610 0.38492 0.45276 -0.33700
C 	C 	0.68773 0.30444 0.56854 0.31100
O 	O 	0.71798 0.31723 0.50197 -0.63100
O 	O 	0.81120 0.29361 0.50121 -0.38400
C 	C 	0.71887 0.41175 0.46069 0.32400
O 	O 	0.66473 0.37893 0.47063 -0.35500
O 	O 	0.74581 0.33182 0.56267 -0.38300
H 	H 	0.73582 0.36249 0.50820 0.18900
C 	C 	0.66567 0.32440 0.65569 0.00500
C 	C 	0.65639 0.33411 0.71676 0.01900
C 	C 	0.69376 0.38943 0.70461 -0.03200
C 	C 	0.69843 0.38454 0.67416 -0.01900
C 	C 	0.65653 0.33894 0.74946 0.01900
C 	C 	0.59863 0.31132 0.76007 -0.03200
C 	C 	0.59786 0.30930 0.79073 -0.01900
C 	C 	0.65494 0.33502 0.81095 0.00600
C 	C 	0.71312 0.36486 0.80058 -0.02000
C 	C 	0.71396 0.36679 0.76995 -0.03300
C 	C 	0.65327 0.32636 0.84179 0.06300
C 	C 	0.65326 0.31978 0.86772 -0.07900
C 	C 	0.67429 0.31910 0.62496 0.06500
C 	C 	0.68061 0.31323 0.59917 -0.08100
H 	H 	0.71999 0.43607 0.71886 0.06200
H 	H 	0.72830 0.42743 0.66508 0.06200
H 	H 	0.75746 0.38504 0.81611 0.05900
H 	H 	0.75889 0.38819 0.76201 0.06000
C 	C 	0.67521 0.28969 0.31047 0.01000
C 	C 	0.69027 0.30095 0.25051 0.02000
C 	C 	0.74218 0.34395 0.27423 -0.03000
C 	C 	0.73462 0.33831 0.30413 -0.01800
C 	C 	0.69688 0.30914 0.21904 0.02000
C 	C 	0.69690 0.31933 0.15808 0.00900
C 	C 	0.70920 0.36912 0.17941 -0.01800
C 	C 	0.70917 0.36407 0.20980 -0.03100
C 	C 	0.68905 0.32113 0.12643 0.06600
C 	C 	0.68256 0.32304 0.09999 -0.06900
H 	H 	0.78809 0.38197 0.26952 0.06400
H 	H 	0.77474 0.37209 0.32232 0.06600
H 	H 	0.71710 0.41098 0.17236 0.06400
H 	H 	0.71697 0.40202 0.22602 0.06300
C 	C 	0.74936 0.47907 0.45886 -0.11600
C 	C 	0.71594 0.49495 0.44054 0.12800
C 	C 	0.74037 0.55912 0.44198 0.06600
C 	C 	0.80080 0.60781 0.45986 0.02300
C 	C 	0.83642 0.59211 0.47652 0.06500
C 	C 	0.80989 0.52778 0.47677 0.12900
C 	C 	0.82664 0.67551 0.46140 0.01200
C 	C 	0.85932 0.70844 0.43900 0.07900
C 	C 	0.88510 0.77307 0.44091 0.10400
C 	C 	0.88252 0.80610 0.46634 -0.05400
C 	C 	0.84877 0.77292 0.48846 0.10400
C 	C 	0.81928 0.70723 0.48552 0.07900
Br	Br	0.92149 0.65887 0.49894 -0.12300
Br	Br	0.63818 0.42888 0.41245 -0.19500
Br	Br	0.92260 0.81619 0.40840 -0.11800
Br	Br	0.76908 0.66059 0.51453 -0.12700
Br	Br	0.85499 0.50660 0.50274 -0.17500
Br	Br	0.69049 0.58044 0.42009 -0.12100
Br	Br	0.87039 0.66543 0.40624 -0.12800
Br	Br	0.84581 0.81810 0.52353 -0.11800
Br	Br	0.92308 0.31206 0.46583 -0.13900
Br	Br	0.87457 0.96609 0.40886 -0.11200
Br	Br	0.46507 0.29940 0.52596 -0.15000
C 	C 	0.76335 0.55874 0.97915 -0.11200
C 	C 	0.83070 0.59984 0.98225 0.12800
C 	C 	0.86198 0.66423 0.98012 0.06500
C 	C 	0.82620 0.68809 0.97597 0.02300
C 	C 	0.75870 0.64644 0.97166 0.06700
C 	C 	0.72727 0.58162 0.97288 0.12600
C 	C 	0.85977 0.75756 0.97837 0.01200
C 	C 	0.87964 0.79648 0.00686 0.07900
C 	C 	0.91434 0.86283 0.00939 0.10500
C 	C 	0.92745 0.89014 0.98337 -0.05500
C 	C 	0.90621 0.85113 0.95481 0.10400
C 	C 	0.87300 0.78491 0.95233 0.07900
Br	Br	0.70963 0.67874 0.96488 -0.11800
Br	Br	0.88030 0.56870 0.99098 -0.16200
Br	Br	0.94569 0.91666 0.04859 -0.11000
Br	Br	0.84613 0.73158 0.91338 -0.12700
Br	Br	0.63476 0.52388 0.96585 -0.14900
Br	Br	0.95396 0.72028 0.98342 -0.12300
Br	Br	0.85925 0.75864 0.04236 -0.12400
Br	Br	0.92231 0.88858 0.91913 -0.12100
Br	Br	0.85945 0.33060 0.03240 -0.16500
Br	Br	0.51156 0.36196 0.03634 -0.17800
