data_crystal

_cell_length_a 21.04218
_cell_length_b 20.95217
_cell_length_c 20.84539
_cell_angle_alpha 89.91863
_cell_angle_beta  89.90048
_cell_angle_gamma 89.90049

_symmetry_space_group_name_	'P 1'
_symmetry_space_group_name_H-M	'P 1'

loop_
_symmetry_equiv_pos_as_xyz
  x,y,z

loop_
_atom_site_label
_atom_site_type_symbol
_atom_site_fract_x
_atom_site_fract_y
_atom_site_fract_z
_atom_site_charge
Co	Co	0.96465 0.02740 0.42104 1.16500
Co	Co	0.04774 0.95211 0.59717 1.19800
Co	Co	0.95102 0.04901 0.57533 1.16600
Co	Co	0.06248 0.93223 0.44283 1.19000
C 	C 	0.99758 0.10019 0.30095 0.18500
Co	Co	0.02784 0.95969 0.29501 1.18700
Co	Co	0.98236 0.01816 0.72329 1.13800
C 	C 	0.03533 0.83018 0.35159 0.25800
O 	O 	0.89015 0.05099 0.70886 -0.41700
O 	O 	0.00075 0.01047 0.62466 -0.73100
C 	C 	0.85170 0.02120 0.66940 0.34600
O 	O 	0.91557 0.07502 0.48915 -0.48300
O 	O 	0.09302 0.90066 0.52908 -0.45800
C 	C 	0.98024 0.87771 0.69990 0.29700
O 	O 	0.02612 0.01022 0.50836 -0.55900
C 	C 	0.99322 0.15277 0.67136 0.23300
C 	C 	0.88897 0.95435 0.32259 0.27600
C 	C 	0.16123 0.97957 0.34456 0.26800
O 	O 	0.87191 0.00419 0.61226 -0.41500
O 	O 	0.93672 0.92228 0.29732 -0.41100
O 	O 	0.89085 0.97340 0.38303 -0.39400
O 	O 	0.94898 0.92532 0.72669 -0.38900
O 	O 	0.99517 0.87948 0.63836 -0.42500
O 	O 	0.01807 0.10953 0.71046 -0.33200
O 	O 	0.95607 0.13713 0.62211 -0.38000
O 	O 	0.11733 0.99941 0.30352 -0.37300
O 	O 	0.14796 0.93902 0.39200 -0.37000
O 	O 	0.02184 0.97970 0.39328 -0.74000
C 	C 	0.12331 0.99448 0.71278 0.28500
O 	O 	0.07202 0.98311 0.74698 -0.37500
O 	O 	0.12588 0.97903 0.65147 -0.37500
O 	O 	0.98760 0.04666 0.26979 -0.41200
O 	O 	0.98961 0.10357 0.36359 -0.38800
O 	O 	0.06454 0.86888 0.31179 -0.38100
O 	O 	0.01924 0.85078 0.40900 -0.36900
Co	Co	0.95430 0.41127 0.03624 1.16700
Co	Co	0.05544 0.58069 0.96935 1.19200
Co	Co	0.94848 0.56620 0.05719 1.16600
Co	Co	0.05975 0.42693 0.94764 1.18900
C 	C 	0.87814 0.31787 0.95974 0.28100
Co	Co	0.01465 0.28209 0.97111 1.18800
Co	Co	0.99803 0.71137 0.02790 1.13800
C 	C 	0.15071 0.32199 0.99557 0.27500
O 	O 	0.95274 0.70783 0.11653 -0.43400
O 	O 	0.00509 0.61157 0.02294 -0.72900
C 	C 	0.96658 0.66517 0.16060 0.34900
O 	O 	0.90595 0.48254 0.07978 -0.47400
O 	O 	0.09768 0.51053 0.91860 -0.46400
C 	C 	0.13652 0.68460 0.03328 0.27500
O 	O 	0.02165 0.49412 0.02370 -0.55400
C 	C 	0.86372 0.67095 0.00327 0.26500
C 	C 	0.98185 0.29099 0.11082 0.36200
C 	C 	0.03208 0.33913 0.84216 0.31700
O 	O 	0.96129 0.60357 0.14853 -0.40500
O 	O 	0.97071 0.25962 0.05755 -0.44200
O 	O 	0.96967 0.35261 0.11495 -0.41100
O 	O 	0.08720 0.70344 0.06771 -0.37400
O 	O 	0.13534 0.63110 0.99897 -0.37100
O 	O 	0.90974 0.70923 0.98464 -0.39600
O 	O 	0.87344 0.60855 0.00769 -0.39800
O 	O 	0.05590 0.29671 0.88182 -0.39300
O 	O 	0.01885 0.39701 0.86279 -0.37800
O 	O 	0.01342 0.37998 0.99248 -0.73900
C 	C 	0.01963 0.68995 0.88836 0.31900
O 	O 	0.03881 0.72387 0.93755 -0.38100
O 	O 	0.01251 0.62796 0.89403 -0.38500
O 	O 	0.92530 0.28866 0.93020 -0.39600
O 	O 	0.88316 0.37834 0.97665 -0.39700
O 	O 	0.10337 0.28475 0.01446 -0.37600
O 	O 	0.14174 0.37157 0.95659 -0.37400
Co	Co	0.59653 0.04535 0.04871 1.18600
Co	Co	0.42398 0.96560 0.96515 1.19400
Co	Co	0.44288 0.05694 0.06831 1.18700
Co	Co	0.57799 0.95236 0.94710 1.18700
C 	C 	0.70580 0.98494 0.12744 0.33600
Co	Co	0.72454 0.99022 0.98447 1.17100
Co	Co	0.29731 0.02092 0.03752 1.16600
C 	C 	0.67294 0.00305 0.85177 0.25700
O 	O 	0.30800 0.11111 0.07702 -0.41200
O 	O 	0.39547 0.00803 0.02675 -0.77200
C 	C 	0.34397 0.15371 0.04854 0.33800
O 	O 	0.52746 0.09335 0.09568 -0.46900
O 	O 	0.49297 0.92531 0.91120 -0.46000
C 	C 	0.31683 0.03263 0.89664 0.33300
O 	O 	0.51086 0.98503 0.02552 -0.57700
C 	C 	0.34906 0.00683 0.17098 0.32300
C 	C 	0.69694 0.12895 0.99944 0.34800
C 	C 	0.68255 0.85510 0.96373 0.33400
O 	O 	0.40168 0.13801 0.02978 -0.40000
O 	O 	0.73458 0.08290 0.01936 -0.41200
O 	O 	0.63523 0.11991 0.99719 -0.40500
O 	O 	0.29109 0.06065 0.94696 -0.38600
O 	O 	0.37842 0.01954 0.89537 -0.39400
O 	O 	0.31456 0.97938 0.12587 -0.39300
O 	O 	0.39925 0.04324 0.15751 -0.38200
O 	O 	0.72198 0.89966 0.94420 -0.40300
O 	O 	0.62049 0.86385 0.96056 -0.38800
O 	O 	0.62587 0.99069 0.99887 -0.76300
C 	C 	0.31420 0.88267 0.00544 0.34200
O 	O 	0.27799 0.93289 0.99645 -0.39900
O 	O 	0.37455 0.88339 0.98863 -0.38100
O 	O 	0.72598 0.95337 0.07638 -0.40300
O 	O 	0.65814 0.02686 0.12485 -0.38800
O 	O 	0.71339 0.02732 0.89312 -0.37100
O 	O 	0.61193 0.99890 0.86628 -0.37900
C 	C 	0.79848 0.69467 0.99618 -0.01100
C 	C 	0.76938 0.72496 0.04853 -0.05600
C 	C 	0.72418 0.77297 0.03820 0.03300
C 	C 	0.70778 0.79073 0.97548 -0.14800
C 	C 	0.72962 0.75368 0.92367 0.20400
C 	C 	0.77456 0.70535 0.93426 -0.10100
H 	H 	0.70630 0.80011 0.07861 0.02600
H 	H 	0.79540 0.68073 0.89363 0.07200
H 	H 	0.78635 0.71596 0.09676 0.04500
O 	O 	0.71208 0.76881 0.86214 -0.29500
H 	H 	0.67357 0.74296 0.85368 0.15300
C 	C 	0.81638 0.28581 0.96472 -0.01700
C 	C 	0.78753 0.27922 0.02504 -0.05200
C 	C 	0.74170 0.23200 0.03501 0.03800
C 	C 	0.72398 0.19165 0.98453 -0.15000
C 	C 	0.74626 0.20433 0.92216 0.20000
C 	C 	0.79294 0.25091 0.91249 -0.10200
H 	H 	0.72377 0.22348 0.08303 0.03600
H 	H 	0.81352 0.25720 0.86521 0.08400
H 	H 	0.80448 0.30685 0.06544 0.05400
O 	O 	0.72673 0.16747 0.87163 -0.29200
H 	H 	0.68898 0.18974 0.85395 0.15100
C 	C 	0.19468 0.72335 0.03365 -0.01900
C 	C 	0.20652 0.76519 0.08475 -0.04700
C 	C 	0.25052 0.81441 0.07754 0.03600
C 	C 	0.28368 0.82164 0.01964 -0.15300
C 	C 	0.27737 0.77537 0.97128 0.20900
C 	C 	0.23285 0.72636 0.97839 -0.10000
H 	H 	0.25592 0.84929 0.11544 0.02300
H 	H 	0.22504 0.69347 0.93912 0.08600
H 	H 	0.17909 0.76182 0.12866 0.05000
O 	O 	0.31027 0.78137 0.91473 -0.27800
H 	H 	0.35010 0.75682 0.92115 0.15700
C 	C 	0.21592 0.30005 0.00777 -0.02200
C 	C 	0.23645 0.29140 0.07108 -0.04600
C 	C 	0.28763 0.25083 0.08419 0.03900
C 	C 	0.31720 0.21697 0.03426 -0.15600
C 	C 	0.30311 0.23341 0.97033 0.20400
C 	C 	0.25217 0.27471 0.95723 -0.09900
H 	H 	0.29971 0.24038 0.13362 0.02900
H 	H 	0.23771 0.28268 0.90798 0.07600
H 	H 	0.20982 0.31217 0.11041 0.05100
O 	O 	0.33406 0.20366 0.92070 -0.28800
H 	H 	0.37074 0.23155 0.91050 0.15400
C 	C 	0.69257 0.99988 0.78441 0.00800
C 	C 	0.69946 0.05680 0.74967 -0.05700
C 	C 	0.74628 0.06151 0.70222 0.05100
C 	C 	0.78589 0.00915 0.68921 -0.17100
C 	C 	0.76974 0.94901 0.71438 0.22100
C 	C 	0.72324 0.94458 0.76241 -0.12100
H 	H 	0.75635 0.10756 0.68082 0.02600
H 	H 	0.71598 0.89956 0.78704 0.08400
H 	H 	0.67355 0.09914 0.76412 0.06000
O 	O 	0.80455 0.89607 0.69803 -0.29300
H 	H 	0.78198 0.87717 0.66094 0.15500
C 	C 	0.18254 0.00912 0.74671 -0.02800
C 	C 	0.19025 0.06905 0.77538 -0.04500
C 	C 	0.23877 0.07883 0.81999 0.03700
C 	C 	0.27954 0.02843 0.83703 -0.14800
C 	C 	0.27528 0.96992 0.80408 0.20200
C 	C 	0.22671 0.96045 0.75911 -0.08800
H 	H 	0.24243 0.12452 0.84399 0.04300
H 	H 	0.22123 0.91412 0.73674 0.07900
H 	H 	0.15681 0.10718 0.76539 0.05000
O 	O 	0.31466 0.92013 0.82001 -0.28600
H 	H 	0.35161 0.92395 0.79065 0.15700
C 	C 	0.22793 0.99016 0.32709 -0.00800
C 	C 	0.24711 0.05134 0.30776 -0.05700
C 	C 	0.29629 0.05825 0.26315 0.04100
C 	C 	0.32564 0.00397 0.23716 -0.15700
C 	C 	0.31475 0.94417 0.26590 0.21300
C 	C 	0.26624 0.93754 0.31152 -0.10700
H 	H 	0.30627 0.10502 0.24330 0.03100
H 	H 	0.25413 0.89045 0.32928 0.08100
H 	H 	0.21968 0.09281 0.32196 0.05200
O 	O 	0.34929 0.89178 0.24720 -0.29300
H 	H 	0.32415 0.87154 0.21258 0.15400
C 	C 	0.82918 0.95896 0.28676 -0.01800
C 	C 	0.80644 0.90576 0.25314 -0.04500
C 	C 	0.76137 0.91362 0.20465 0.03100
C 	C 	0.73906 0.97485 0.18884 -0.14100
C 	C 	0.75720 0.02739 0.22686 0.19200
C 	C 	0.80193 0.01909 0.27587 -0.11100
H 	H 	0.74639 0.87257 0.17701 0.02800
H 	H 	0.81886 0.06031 0.30215 0.06900
H 	H 	0.82617 0.85882 0.26223 0.04600
O 	O 	0.73579 0.08761 0.21251 -0.28700
H 	H 	0.69729 0.09367 0.23935 0.15600
C 	C 	0.99952 0.22028 0.68909 -0.10100
C 	C 	0.06037 0.24642 0.69622 0.04800
C 	C 	0.07000 0.29709 0.73868 -0.01500
C 	C 	0.01918 0.32028 0.77565 -0.05900
C 	C 	0.95687 0.30309 0.75848 0.11000
C 	C 	0.94715 0.25246 0.71561 -0.05800
H 	H 	0.11805 0.31249 0.74895 0.04500
H 	H 	0.89952 0.23437 0.70809 0.06200
H 	H 	0.10098 0.22357 0.67387 0.03200
O 	O 	0.90594 0.32980 0.78963 -0.27700
H 	H 	0.89351 0.36702 0.76300 0.14100
C 	C 	0.98577 0.81710 0.73491 -0.11400
C 	C 	0.93458 0.79463 0.77175 0.01100
C 	C 	0.94431 0.74696 0.81764 -0.06200
C 	C 	0.00537 0.72202 0.82762 -0.06000
C 	C 	0.05525 0.73986 0.78636 0.15700
C 	C 	0.04523 0.78719 0.73993 -0.00500
H 	H 	0.90533 0.73262 0.84844 0.05100
H 	H 	0.08478 0.80363 0.71092 0.05700
H 	H 	0.88805 0.81634 0.76718 0.05300
O 	O 	0.11500 0.71501 0.79489 -0.27700
H 	H 	0.11665 0.67664 0.76713 0.15500
C 	C 	0.01177 0.76883 0.32734 0.07600
C 	C 	0.94797 0.76406 0.30858 -0.15100
C 	C 	0.93104 0.72400 0.25770 0.09500
C 	C 	0.97752 0.68687 0.22682 -0.24500
C 	C 	0.03897 0.68355 0.25311 0.29400
C 	C 	0.05579 0.72423 0.30370 -0.15300
H 	H 	0.88297 0.72550 0.23918 0.01100
H 	H 	0.10464 0.72546 0.32005 0.08900
H 	H 	0.91277 0.79602 0.32882 0.07300
O 	O 	0.08352 0.64304 0.22742 -0.29900
H 	H 	0.10661 0.66868 0.19487 0.16100
C 	C 	0.00182 0.15939 0.26393 0.15200
C 	C 	0.05128 0.16723 0.21957 -0.13400
C 	C 	0.04736 0.21467 0.17269 0.16000
C 	C 	0.99374 0.25437 0.16952 -0.26700
C 	C 	0.94678 0.25032 0.21753 0.27300
C 	C 	0.95101 0.20281 0.26465 -0.23200
H 	H 	0.08433 0.21827 0.13661 0.00400
H 	H 	0.91281 0.19722 0.29915 0.10300
H 	H 	0.09118 0.13444 0.21937 0.07400
O 	O 	0.89416 0.28899 0.21522 -0.30900
H 	H 	0.90518 0.32679 0.24151 0.15500
