data_crystal

_cell_length_a 26.06021
_cell_length_b 28.71014
_cell_length_c 30.32987
_cell_angle_alpha 61.10450
_cell_angle_beta  118.54788
_cell_angle_gamma 133.21684

_symmetry_space_group_name_	'P 1'
_symmetry_space_group_name_H-M	'P 1'

loop_
_symmetry_equiv_pos_as_xyz
  x,y,z

loop_
_atom_site_label
_atom_site_type_symbol
_atom_site_fract_x
_atom_site_fract_y
_atom_site_fract_z
_atom_site_charge
C 	C 	0.77039 0.31975 0.02149 0.12800
N 	N 	0.71411 0.27621 0.04509 -0.13500
C 	C 	0.68936 0.29832 0.05513 0.12800
N 	N 	0.72147 0.36376 0.04226 -0.13900
C 	C 	0.77855 0.40743 0.01988 0.12800
N 	N 	0.80316 0.38552 0.00946 -0.13200
C 	C 	0.74092 0.36349 0.48676 0.12800
N 	N 	0.79064 0.41955 0.50416 -0.13400
C 	C 	0.76830 0.44834 0.50802 0.12900
N 	N 	0.69683 0.42040 0.49571 -0.13500
C 	C 	0.64706 0.36367 0.47989 0.13100
N 	N 	0.66922 0.33552 0.47505 -0.13500
C 	C 	0.23498 0.57104 0.29844 0.12800
N 	N 	0.20746 0.50651 0.31113 -0.13400
C 	C 	0.24073 0.48961 0.30478 0.12900
N 	N 	0.30062 0.53716 0.28517 -0.13500
C 	C 	0.32753 0.60133 0.27187 0.13100
N 	N 	0.29474 0.61832 0.27849 -0.13400
C 	C 	0.25587 0.62682 0.80729 0.12800
N 	N 	0.20446 0.57266 0.78720 -0.13600
C 	C 	0.22468 0.54572 0.77813 0.13100
N 	N 	0.29551 0.57157 0.79050 -0.13300
C 	C 	0.34700 0.62668 0.80850 0.13300
N 	N 	0.32722 0.65497 0.81609 -0.13300
Co	Co	0.10166 0.95966 0.18917 1.19000
Co	Co	0.02908 0.00393 0.20857 1.18400
C 	C 	0.14468 0.86962 0.23379 0.30800
Co	Co	0.11583 0.91272 0.11871 1.17000
O 	O 	0.00816 0.12791 0.15352 -0.38300
C 	C 	0.07139 0.14045 0.18291 0.30000
O 	O 	0.10976 0.99362 0.23877 -0.44600
C 	C 	0.22989 0.04486 0.14072 0.29700
O 	O 	0.09193 0.10651 0.18799 -0.38900
O 	O 	0.19421 0.01318 0.10452 -0.38500
O 	O 	0.19543 0.04417 0.16232 -0.38400
O 	O 	0.99095 0.96471 0.27350 -0.37700
O 	O 	0.06112 0.92703 0.13859 -0.75900
O 	O 	0.17482 0.90358 0.19440 -0.40400
O 	O 	0.11366 0.88599 0.24141 -0.37800
Co	Co	0.09926 0.01444 0.66128 1.18400
Co	Co	0.02363 0.04425 0.69593 1.18700
C 	C 	0.13700 0.91731 0.70618 0.29600
Co	Co	0.10115 0.95952 0.58992 1.17600
C 	C 	0.02478 0.16133 0.67743 0.29300
O 	O 	0.11468 0.05406 0.71038 -0.45400
C 	C 	0.21784 0.09449 0.60681 0.30700
O 	O 	0.06312 0.14034 0.68809 -0.36800
O 	O 	0.20447 0.03865 0.61386 -0.40100
O 	O 	0.18789 0.09733 0.62931 -0.37900
O 	O 	0.00196 0.99046 0.76920 -0.36900
O 	O 	0.05395 0.98012 0.61106 -0.75500
O 	O 	0.10965 0.90012 0.66275 -0.38600
O 	O 	0.11457 0.94190 0.71438 -0.37900
O 	O 	0.08380 0.01792 0.51919 -0.39200
C 	C 	0.08890 0.01484 0.93201 -0.00100
C 	C 	0.07328 0.01931 0.87911 -0.00700
C 	C 	0.16332 0.04737 0.96161 0.09000
C 	C 	0.13152 0.05423 0.85514 0.09000
N 	N 	0.17799 0.08212 0.83600 -0.10500
N 	N 	0.22267 0.07333 0.98524 -0.10600
C 	C 	0.92980 0.97990 0.34939 0.00800
C 	C 	0.94557 0.98933 0.39717 0.00200
C 	C 	0.86381 0.96884 0.31119 0.09000
C 	C 	0.90805 0.00651 0.40227 0.09800
N 	N 	0.87806 0.02027 0.40622 -0.10400
N 	N 	0.81112 0.95996 0.28073 -0.10800
C 	C 	0.11941 0.29161 0.74452 -0.03700
C 	C 	0.09772 0.33210 0.70542 0.02700
C 	C 	0.06481 0.32303 0.65494 -0.05600
C 	C 	0.05053 0.27247 0.64398 0.03100
C 	C 	0.06256 0.22648 0.68448 -0.07500
C 	C 	0.09959 0.23778 0.73425 0.01300
C 	C 	0.11517 0.38790 0.71580 0.01400
C 	C 	0.16061 0.45255 0.68881 -0.04300
C 	C 	0.18689 0.50604 0.70355 0.00000
C 	C 	0.17209 0.49514 0.74807 -0.01700
C 	C 	0.11946 0.43091 0.77084 -0.01700
C 	C 	0.08941 0.37727 0.75393 -0.02300
C 	C 	0.23217 0.57226 0.67444 0.09100
C 	C 	0.03253 0.31187 0.77572 0.09500
C 	C 	0.16362 0.30603 0.79459 0.09900
C 	C 	0.02993 0.27154 0.59088 0.08300
N 	N 	0.26852 0.62532 0.65118 -0.10000
N 	N 	0.98696 0.25944 0.79317 -0.10700
N 	N 	0.01419 0.27101 0.54835 -0.10600
N 	N 	0.19904 0.31761 0.83469 -0.10400
H 	H 	0.11132 0.20378 0.76526 0.04800
H 	H 	0.05183 0.35623 0.62401 0.05900
H 	H 	0.17734 0.46121 0.65743 0.05500
H 	H 	0.10500 0.42233 0.80348 0.05300
C 	C 	0.52729 0.75737 0.77378 -0.02200
C 	C 	0.54604 0.71756 0.78153 0.01500
C 	C 	0.50944 0.65213 0.81048 -0.04200
C 	C 	0.44985 0.62441 0.82694 0.00100
C 	C 	0.42361 0.66109 0.81143 -0.01400
C 	C 	0.46544 0.72870 0.78797 -0.01500
C 	C 	0.60349 0.74388 0.75910 0.02800
C 	C 	0.66780 0.75153 0.79208 -0.05700
C 	C 	0.72770 0.78814 0.77194 0.03500
C 	C 	0.72453 0.82055 0.71891 -0.07500
C 	C 	0.65732 0.80445 0.68516 0.01300
C 	C 	0.59638 0.76545 0.70499 -0.03600
C 	C 	0.52740 0.74919 0.66983 0.10200
C 	C 	0.57090 0.82737 0.75107 0.09800
C 	C 	0.41566 0.55829 0.85955 0.09400
N 	N 	0.47212 0.73617 0.64169 -0.10300
N 	N 	0.38824 0.50531 0.88565 -0.10000
N 	N 	0.60588 0.88342 0.73286 -0.10500
H 	H 	0.44772 0.75814 0.77818 0.05800
H 	H 	0.52659 0.62253 0.81941 0.05600
H 	H 	0.67213 0.73140 0.83350 0.06300
H 	H 	0.65371 0.82645 0.64392 0.04600
C 	C 	0.15538 0.69181 0.78316 -0.02300
C 	C 	0.20737 0.74033 0.81180 0.01200
C 	C 	0.26735 0.74121 0.84732 -0.04000
C 	C 	0.28009 0.69959 0.84989 -0.00100
C 	C 	0.23454 0.65923 0.81435 -0.01400
C 	C 	0.17041 0.65344 0.78290 -0.01800
C 	C 	0.20432 0.79549 0.79959 0.02600
C 	C 	0.14854 0.78276 0.81055 -0.05600
C 	C 	0.13140 0.82793 0.78570 0.03000
C 	C 	0.17201 0.88730 0.75093 -0.07300
C 	C 	0.23594 0.90497 0.74831 0.01000
C 	C 	0.25110 0.85875 0.77094 -0.03700
C 	C 	0.06945 0.81113 0.79351 0.08800
C 	C 	0.31196 0.87517 0.76175 0.09700
C 	C 	0.08455 0.67758 0.75743 0.09100
C 	C 	0.33717 0.69595 0.89081 0.09500
N 	N 	0.01977 0.79763 0.79977 -0.10000
N 	N 	0.36069 0.88830 0.75439 -0.10600
N 	N 	0.38289 0.69307 0.92363 -0.10000
N 	N 	0.02756 0.66584 0.73746 -0.11100
H 	H 	0.13248 0.61956 0.75793 0.05600
H 	H 	0.30499 0.77535 0.87207 0.05700
H 	H 	0.11525 0.73581 0.83531 0.06100
H 	H 	0.26949 0.95205 0.72373 0.04500
C 	C 	0.11612 0.33060 0.26763 -0.02500
C 	C 	0.16397 0.31364 0.28702 0.01300
C 	C 	0.22761 0.34355 0.32434 -0.04200
C 	C 	0.24821 0.39589 0.33719 -0.00100
C 	C 	0.20613 0.42005 0.31110 -0.01700
C 	C 	0.13741 0.38373 0.27985 -0.01800
C 	C 	0.15299 0.27214 0.26316 0.02900
C 	C 	0.16133 0.29704 0.21239 -0.05800
C 	C 	0.14300 0.25612 0.18692 0.03500
C 	C 	0.11741 0.19016 0.21271 -0.08600
C 	C 	0.12011 0.16882 0.26577 0.01800
C 	C 	0.13358 0.20792 0.29037 -0.03900
C 	C 	0.15160 0.28229 0.13468 0.08300
C 	C 	0.12214 0.18011 0.34197 0.09900
C 	C 	0.04649 0.29543 0.23355 0.09300
C 	C 	0.31406 0.42639 0.37560 0.09000
N 	N 	0.15872 0.30326 0.09286 -0.10000
N 	N 	0.11284 0.15777 0.38326 -0.11300
N 	N 	0.36684 0.45082 0.40637 -0.10500
N 	N 	0.99075 0.26726 0.20622 -0.10900
H 	H 	0.10318 0.40016 0.26164 0.05500
H 	H 	0.26279 0.32831 0.34136 0.05800
H 	H 	0.17977 0.34755 0.19224 0.06200
H 	H 	0.10640 0.11988 0.28688 0.03800
C 	C 	0.61074 0.74795 0.19639 -0.03900
C 	C 	0.57106 0.77223 0.18124 0.02900
C 	C 	0.59582 0.83604 0.14987 -0.05700
C 	C 	0.66248 0.87753 0.13689 0.02900
C 	C 	0.70511 0.85513 0.15579 -0.07400
C 	C 	0.67745 0.78948 0.18340 0.01800
C 	C 	0.50678 0.73313 0.20148 0.01300
C 	C 	0.51569 0.73917 0.24829 -0.04200
C 	C 	0.45658 0.69851 0.27054 -0.00100
C 	C 	0.38772 0.65141 0.24564 -0.01700
C 	C 	0.37825 0.64761 0.19760 -0.01700
C 	C 	0.43736 0.68822 0.17540 -0.02400
C 	C 	0.46745 0.70401 0.31965 0.09100
C 	C 	0.42665 0.68273 0.12634 0.09300
C 	C 	0.58432 0.68116 0.22654 0.10000
C 	C 	0.68740 0.94342 0.10489 0.07700
N 	N 	0.47612 0.70838 0.35900 -0.10300
N 	N 	0.41813 0.67837 0.08703 -0.10400
N 	N 	0.70721 0.99617 0.07924 -0.10100
N 	N 	0.56310 0.62764 0.25069 -0.10500
H 	H 	0.70960 0.77181 0.19712 0.04500
H 	H 	0.56420 0.85402 0.13692 0.06000
H 	H 	0.56902 0.77447 0.26796 0.05800
H 	H 	0.32508 0.61185 0.17815 0.05300
C 	C 	0.08317 0.69530 0.28530 -0.04200
C 	C 	0.15035 0.70550 0.30300 0.02900
C 	C 	0.21436 0.76756 0.31061 -0.05900
C 	C 	0.21231 0.82103 0.29444 0.03200
C 	C 	0.14587 0.81280 0.26945 -0.08400
C 	C 	0.08125 0.74907 0.26856 0.01600
C 	C 	0.15506 0.65611 0.30436 0.01200
C 	C 	0.13836 0.64480 0.25757 -0.04100
C 	C 	0.15835 0.61121 0.25603 -0.00200
C 	C 	0.19648 0.58952 0.30153 -0.01600
C 	C 	0.20704 0.59521 0.34905 -0.01800
C 	C 	0.18602 0.62799 0.35074 -0.02300
C 	C 	0.14105 0.60049 0.20739 0.08600
C 	C 	0.19735 0.63346 0.40000 0.09300
C 	C 	0.01622 0.63032 0.28258 0.10200
C 	C 	0.27878 0.88459 0.30241 0.08100
N 	N 	0.12719 0.59188 0.16844 -0.10600
N 	N 	0.20642 0.63788 0.43945 -0.10400
N 	N 	0.33209 0.93544 0.30892 -0.10200
N 	N 	0.96261 0.57822 0.28039 -0.10900
H 	H 	0.02975 0.74210 0.25127 0.04900
H 	H 	0.26605 0.77503 0.32629 0.06200
H 	H 	0.11278 0.66484 0.22199 0.05200
H 	H 	0.23443 0.57672 0.38436 0.05400
C 	C 	0.81032 0.26280 0.53747 -0.02400
C 	C 	0.77769 0.23496 0.49558 0.01300
C 	C 	0.74300 0.25769 0.44829 -0.04100
C 	C 	0.73648 0.30467 0.44346 -0.00200
C 	C 	0.76367 0.32832 0.48673 -0.01500
C 	C 	0.80325 0.30933 0.53281 -0.01900
C 	C 	0.77440 0.17814 0.50251 0.02700
C 	C 	0.72051 0.11451 0.52467 -0.05700
C 	C 	0.72706 0.06310 0.54405 0.02500
C 	C 	0.66955 0.99724 0.56480 0.09000
C 	C 	0.84891 0.24209 0.58595 0.08900
C 	C 	0.70209 0.32854 0.39400 0.09300
N 	N 	0.62353 0.94448 0.58146 -0.10100
N 	N 	0.67452 0.34766 0.35436 -0.10100
N 	N 	0.87967 0.22534 0.62478 -0.11300
H 	H 	0.82537 0.32821 0.56588 0.05300
H 	H 	0.67514 0.10568 0.52876 0.05900
C 	C 	0.83403 0.66185 0.57869 -0.05600
C 	C 	0.86735 0.60455 0.56862 0.01300
C 	C 	0.83084 0.49498 0.58429 -0.00200
C 	C 	0.82000 0.50527 0.53106 -0.01700
C 	C 	0.84082 0.56784 0.49812 -0.01700
C 	C 	0.86414 0.61742 0.51654 -0.02300
C 	C 	0.88341 0.68092 0.48160 0.09300
C 	C 	0.79994 0.72538 0.57503 0.08200
N 	N 	0.89889 0.73184 0.45367 -0.10600
N 	N 	0.75647 0.73256 0.56457 -0.10000
H 	H 	0.77804 0.62687 0.56175 0.06000
H 	H 	0.83407 0.57646 0.45735 0.05400
C 	C 	0.47087 0.22975 0.52004 -0.02400
C 	C 	0.44556 0.26624 0.50714 0.01300
C 	C 	0.47789 0.33006 0.47504 -0.04200
C 	C 	0.53918 0.35978 0.45962 -0.00100
C 	C 	0.57038 0.32643 0.47849 -0.01700
C 	C 	0.53315 0.26001 0.50572 -0.01700
C 	C 	0.38707 0.23862 0.52881 0.02700
C 	C 	0.40230 0.23491 0.58100 -0.05800
C 	C 	0.34596 0.19294 0.60636 0.03200
C 	C 	0.27381 0.15528 0.57900 -0.08100
C 	C 	0.25857 0.16669 0.52521 0.01000
C 	C 	0.31485 0.20740 0.50009 -0.03800
C 	C 	0.36272 0.18612 0.66099 0.08200
C 	C 	0.29812 0.21347 0.44563 0.09600
C 	C 	0.43413 0.16174 0.54902 0.09200
C 	C 	0.56972 0.42431 0.42443 0.09200
N 	N 	0.37614 0.18062 0.70476 -0.10100
N 	N 	0.28509 0.21843 0.40204 -0.11300
N 	N 	0.59421 0.47602 0.39625 -0.10200
N 	N 	0.40463 0.10727 0.57224 -0.10800
H 	H 	0.55520 0.23318 0.51859 0.05300
H 	H 	0.45607 0.35690 0.46282 0.05700
H 	H 	0.45808 0.26121 0.60262 0.06000
H 	H 	0.20289 0.14018 0.50359 0.04900
C 	C 	0.81961 0.15944 0.96974 -0.05800
C 	C 	0.83243 0.11376 0.98259 0.03600
C 	C 	0.85179 0.24671 0.99757 0.01700
C 	C 	0.83421 0.28833 0.95609 -0.04400
C 	C 	0.80776 0.31275 0.96334 0.00200
C 	C 	0.79948 0.29591 0.01284 -0.01800
C 	C 	0.81796 0.25494 0.05438 -0.01400
C 	C 	0.84350 0.22995 0.04700 -0.02800
C 	C 	0.78677 0.35294 0.91945 0.09100
C 	C 	0.77485 0.05248 0.96693 0.08300
N 	N 	0.76995 0.38514 0.88429 -0.10400
N 	N 	0.72868 0.00331 0.95443 -0.10000
H 	H 	0.76599 0.14766 0.94967 0.06100
H 	H 	0.83987 0.30071 0.91800 0.05500
H 	H 	0.81204 0.24220 0.09248 0.05400
C 	C 	0.90907 0.57327 0.04849 -0.04200
C 	C 	0.88549 0.51546 0.04229 -0.00200
C 	C 	0.81663 0.47840 0.01087 -0.01900
C 	C 	0.77683 0.50450 0.98067 -0.01500
C 	C 	0.93027 0.49243 0.07072 0.09000
N 	N 	0.96613 0.47396 0.09351 -0.10400
H 	H 	0.96031 0.59994 0.07479 0.05300
H 	H 	0.84295 0.57686 0.11037 0.06000
C 	C 	0.58104 0.23381 0.14473 -0.02400
C 	C 	0.51077 0.18780 0.12027 0.01300
C 	C 	0.50120 0.17075 0.07931 -0.04300
C 	C 	0.56039 0.20285 0.06004 -0.00100
C 	C 	0.63019 0.25210 0.08235 -0.01800
C 	C 	0.64038 0.26495 0.12615 -0.01700
C 	C 	0.44634 0.16082 0.13453 0.02700
C 	C 	0.40615 0.18634 0.10267 -0.05700
C 	C 	0.33737 0.15310 0.10881 0.03300
C 	C 	0.30857 0.09385 0.14724 -0.07800
C 	C 	0.35271 0.07337 0.18322 0.00800
C 	C 	0.42091 0.10577 0.17655 -0.03800
C 	C 	0.29501 0.17802 0.07374 0.08800
C 	C 	0.46289 0.08043 0.21147 0.09700
C 	C 	0.59245 0.25085 0.18787 0.09300
C 	C 	0.54850 0.18702 0.01597 0.08700
N 	N 	0.26102 0.19793 0.04561 -0.09900
N 	N 	0.49654 0.06014 0.23945 -0.10800
N 	N 	0.53899 0.17435 0.98067 -0.10200
N 	N 	0.60155 0.26445 0.22243 -0.10500
H 	H 	0.69422 0.30177 0.14411 0.05200
H 	H 	0.44724 0.13420 0.06123 0.05500
H 	H 	0.42691 0.23021 0.07151 0.06100
H 	H 	0.33137 0.02879 0.21371 0.04500
C 	C 	0.97456 0.99207 0.28443 0.29800
C 	C 	0.01758 0.99412 0.49026 0.30200
C 	C 	0.03230 0.97946 0.95603 -0.05000
C 	C 	0.00050 0.98552 0.43867 -0.05200
C 	C 	0.97744 0.97988 0.33919 -0.06800
C 	C 	0.79357 0.79536 0.80626 0.08900
H 	H 	0.71971 0.23774 0.41559 0.05700
O 	O 	0.06349 0.92091 0.04056 -0.39600
C 	C 	0.81555 0.43277 0.61981 0.08700
O 	O 	0.02946 0.81485 0.13273 -0.38500
C 	C 	0.79052 0.88300 0.70238 0.29900
C 	C 	0.04687 0.96273 0.01331 0.29900
C 	C 	0.78226 0.90247 0.15552 0.29700
N 	N 	0.80326 0.38288 0.64822 -0.10800
C 	C 	0.85984 0.18606 0.09016 0.10100
C 	C 	0.86450 0.59432 0.02365 0.01000
C 	C 	0.87355 0.21657 0.98840 0.02900
C 	C 	0.85357 0.54431 0.60270 -0.04200
H 	H 	0.72507 0.47735 0.95495 0.05300
O 	O 	0.86163 0.04247 0.09366 -0.39500
O 	O 	0.82641 0.93999 0.18879 -0.37400
O 	O 	0.80617 0.90045 0.12654 -0.36600
C 	C 	0.81374 0.03395 0.58281 0.30600
O 	O 	0.80293 0.00898 0.62936 -0.40100
O 	O 	0.82991 0.92825 0.72807 -0.37600
O 	O 	0.81859 0.88460 0.67441 -0.38200
N 	N 	0.85410 0.87569 0.97175 -0.10300
N 	N 	0.81463 0.92083 0.81803 -0.10800
N 	N 	0.84640 0.80127 0.83374 -0.09900
C 	C 	0.79005 0.07624 0.54380 -0.08000
C 	C 	0.88677 0.65465 0.58797 0.02800
C 	C 	0.85418 0.71644 0.58809 0.02900
H 	H 	0.85926 0.53542 0.64330 0.05600
C 	C 	0.89828 0.12437 0.01603 -0.08500
C 	C 	0.79981 0.56169 0.98747 -0.02100
C 	C 	0.88151 0.64495 0.04054 0.02800
C 	C 	0.86854 0.62765 0.08791 -0.06000
C 	C 	0.89058 0.67592 0.10713 0.03000
C 	C 	0.87860 0.65744 0.15666 0.08100
N 	N 	0.86898 0.64268 0.19631 -0.10200
C 	C 	0.82980 0.18808 0.49337 -0.03800
O 	O 	0.00110 0.01471 0.62813 -0.58000
N 	N 	0.87297 0.15094 0.12466 -0.12700
C 	C 	0.98693 0.00831 0.79167 0.28100
O 	O 	0.96515 0.03717 0.24895 -0.39500
O 	O 	0.95378 0.12618 0.65946 -0.38100
O 	O 	0.96499 0.04598 0.76352 -0.39200
Co	Co	0.91211 0.96166 0.11692 1.19100
Co	Co	0.98322 0.91524 0.09823 1.18600
Co	Co	0.91431 0.03641 0.17109 1.17400
O 	O 	0.95191 0.99332 0.16750 -0.76400
O 	O 	0.89760 0.91802 0.07187 -0.45200
C 	C 	0.89579 0.06888 0.05844 0.31100
O 	O 	0.99055 0.93514 0.16559 -0.58000
C 	C 	0.96429 0.79528 0.10270 0.29100
O 	O 	0.93138 0.04874 0.06362 -0.39400
O 	O 	0.93169 0.81920 0.09708 -0.36900
O 	O 	0.03005 0.97946 0.03533 -0.38500
Co	Co	0.88682 0.96870 0.62533 1.19000
Co	Co	0.96483 0.94555 0.58636 1.18700
Co	Co	0.88733 0.02807 0.69435 1.17200
O 	O 	0.93726 0.01686 0.66667 -0.76500
O 	O 	0.86960 0.92409 0.57945 -0.45300
C 	C 	0.95559 0.83292 0.59515 0.29900
O 	O 	0.84462 0.02098 0.57082 -0.38100
O 	O 	0.00200 0.87756 0.56556 -0.38900
O 	O 	0.93803 0.85089 0.61529 -0.38600
O 	O 	0.96478 0.97239 0.50821 -0.36700
C 	C 	0.00143 0.99193 0.84914 -0.03600
C 	C 	0.94534 0.95932 0.87289 -0.00300
C 	C 	0.96037 0.95029 0.92655 0.00200
C 	C 	0.87279 0.93790 0.84197 0.09200
C 	C 	0.90128 0.90886 0.95172 0.08300
C 	C 	0.04019 0.97405 0.43066 0.00400
C 	C 	0.03370 0.97800 0.38021 0.01300
C 	C 	0.08457 0.95469 0.47429 0.08300
C 	C 	0.08706 0.98332 0.37046 0.09300
N 	N 	0.12978 0.98764 0.36278 -0.10000
N 	N 	0.12004 0.93922 0.50899 -0.13200
C 	C 	0.83836 0.13744 0.51494 0.01700
C 	C 	0.87732 0.24962 0.46158 0.10200
N 	N 	0.91529 0.29897 0.43602 -0.10700
H 	H 	0.88466 0.14685 0.51181 0.05000
C 	C 	0.95881 0.69855 0.61186 -0.03800
C 	C 	0.92756 0.76366 0.60768 -0.07500
C 	C 	0.97786 0.75061 0.62406 0.01200
C 	C 	0.01453 0.69358 0.62025 0.10400
N 	N 	0.05912 0.68959 0.62694 -0.11000
H 	H 	0.03386 0.78531 0.64115 0.05000
C 	C 	0.94467 0.23445 0.00975 -0.04100
C 	C 	0.95699 0.18827 0.02285 0.01700
C 	C 	0.00364 0.29758 0.02227 0.10200
N 	N 	0.05077 0.34822 0.03228 -0.10700
H 	H 	0.00991 0.19899 0.04451 0.05300
C 	C 	0.92496 0.74203 0.07838 -0.07900
C 	C 	0.93293 0.75839 0.02927 0.01000
C 	C 	0.91302 0.71059 0.01075 -0.04200
C 	C 	0.92788 0.72979 0.96224 0.10100
C 	C 	0.75522 0.58494 0.95889 0.09500
N 	N 	0.93985 0.74511 0.92343 -0.10400
N 	N 	0.71958 0.60364 0.93598 -0.10800
H 	H 	0.95804 0.80906 0.00663 0.04400
