data_crystal

_cell_length_a 16.21336
_cell_length_b 16.62210
_cell_length_c 48.44455
_cell_angle_alpha 90.20076
_cell_angle_beta  90.21477
_cell_angle_gamma 119.38290

_symmetry_space_group_name_	'P 1'
_symmetry_space_group_name_H-M	'P 1'

loop_
_symmetry_equiv_pos_as_xyz
  x,y,z

loop_
_atom_site_label
_atom_site_type_symbol
_atom_site_fract_x
_atom_site_fract_y
_atom_site_fract_z
_atom_site_charge
Ni	Ni	0.04642 0.11889 0.77771 1.14200
Ni	Ni	0.09518 0.95530 0.77945 1.13500
O 	O 	0.11048 0.12394 0.74223 -0.31600
O 	O 	0.15829 0.02373 0.81412 -0.31000
C 	C 	0.11204 0.93040 0.23904 0.27600
C 	C 	0.01339 0.16514 0.31353 0.29100
C 	C 	0.07815 0.20709 0.24054 0.27200
O 	O 	0.02353 0.90197 0.23155 -0.30000
O 	O 	0.00638 0.85689 0.28704 -0.30300
O 	O 	0.00298 0.18800 0.25596 -0.35900
H 	H 	0.99998 0.02639 0.24285 0.18500
C 	C 	0.08896 0.35478 0.18051 -0.04100
C 	C 	0.05745 0.28107 0.19912 -0.02000
C 	C 	0.11317 0.28600 0.22193 0.04200
C 	C 	0.03251 0.34492 0.15438 0.70200
F 	F 	0.08911 0.36110 0.13148 -0.45000
C 	C 	0.12208 0.78653 0.22571 -0.06100
H 	H 	0.15108 0.67454 0.21826 0.11900
C 	C 	0.01572 0.72270 0.22755 0.68400
C 	C 	0.01254 0.24564 0.32656 -0.04700
C 	C 	0.01125 0.32953 0.36774 -0.02300
H 	H 	0.00077 0.33147 0.38976 0.08900
F 	F 	0.99811 0.11594 0.37154 -0.34400
F 	F 	0.00640 0.92043 0.36321 -0.37500
C 	C 	0.07748 0.55790 0.57210 -0.02000
C 	C 	0.08322 0.51549 0.52294 0.05300
H 	H 	0.14938 0.57078 0.57479 0.05400
C 	C 	0.09287 0.41544 0.48759 0.08000
C 	C 	0.04997 0.42705 0.51134 -0.13600
S 	S 	0.04566 0.30559 0.47216 -0.03700
H 	H 	0.12423 0.70357 0.62802 0.08500
H 	H 	0.16468 0.74435 0.51096 0.04800
C 	C 	0.05493 0.31764 0.02979 -0.03200
H 	H 	0.04228 0.22059 0.98296 0.03400
C 	C 	0.07569 0.40470 0.01984 -0.05100
H 	H 	0.03900 0.40960 0.00171 0.04400
H 	H 	0.02660 0.17018 0.08372 0.06400
F 	F 	0.10583 0.13597 0.86659 -0.42200
F 	F 	0.17340 0.27326 0.84488 -0.39800
F 	F 	0.10345 0.88225 0.85959 -0.41900
O 	O 	0.16844 0.16273 0.80029 -0.25700
C 	C 	0.05478 0.90970 0.30817 0.31600
S 	S 	0.15130 0.59165 0.02340 -0.02100
C 	C 	0.18951 0.12082 0.74201 0.31800
C 	C 	0.19104 0.11361 0.81752 0.30300
O 	O 	0.19981 0.06064 0.75742 -0.31100
C 	C 	0.18940 0.49395 0.44593 0.29300
C 	C 	0.27507 0.79876 0.37024 0.31300
C 	C 	0.14471 0.48876 0.36854 0.30500
C 	C 	0.32024 0.79747 0.44842 0.28900
Ni	Ni	0.19122 0.64103 0.41008 1.11800
Ni	Ni	0.32776 0.55058 0.39905 1.12800
O 	O 	0.13733 0.51363 0.42938 -0.37000
O 	O 	0.26737 0.49441 0.43658 -0.35800
O 	O 	0.22015 0.76393 0.39172 -0.34400
O 	O 	0.35507 0.79622 0.36813 -0.30300
O 	O 	0.14826 0.56929 0.37245 -0.29000
O 	O 	0.19686 0.46501 0.38365 -0.34100
O 	O 	0.23583 0.72112 0.44659 -0.35900
O 	O 	0.36986 0.83620 0.42607 -0.36200
O 	O 	0.31289 0.65389 0.40850 -0.70500
H 	H 	0.32393 0.65367 0.42845 0.13500
C 	C 	0.28740 0.76134 0.18110 0.30300
C 	C 	0.22414 0.55449 0.07850 0.30800
C 	C 	0.21571 0.51225 0.16633 0.32800
C 	C 	0.29580 0.81255 0.08781 0.29800
Ni	Ni	0.21381 0.65268 0.12867 1.12600
Ni	Ni	0.40721 0.71508 0.09430 1.12500
Ni	Ni	0.40212 0.67362 0.15863 1.13200
O 	O 	0.24040 0.75340 0.15786 -0.33800
O 	O 	0.32660 0.70806 0.18606 -0.30700
O 	O 	0.18696 0.54262 0.10308 -0.32500
O 	O 	0.29057 0.63656 0.07074 -0.37300
O 	O 	0.17585 0.56307 0.16197 -0.31500
O 	O 	0.30130 0.53944 0.15747 -0.36000
O 	O 	0.22049 0.73368 0.09488 -0.35900
O 	O 	0.38168 0.82068 0.08638 -0.34200
O 	O 	0.34616 0.70244 0.12850 -0.72200
H 	H 	0.36772 0.76809 0.13230 0.19200
Ni	Ni	0.10612 0.07943 0.27792 1.12600
O 	O 	0.15798 0.00102 0.25674 -0.32100
O 	O 	0.09281 0.17701 0.30248 -0.27400
O 	O 	0.06447 0.99176 0.31093 -0.30300
O 	O 	0.13352 0.17107 0.24594 -0.29600
C 	C 	0.22762 0.44340 0.20981 0.08100
C 	C 	0.17453 0.43695 0.18624 -0.01400
C 	C 	0.19978 0.36766 0.22730 -0.09000
C 	C 	0.26619 0.37191 0.25024 0.78900
H 	H 	0.29315 0.50681 0.21378 0.09900
F 	F 	0.34026 0.46033 0.25405 -0.36900
F 	F 	0.30429 0.31604 0.24352 -0.41600
F 	F 	0.21862 0.34379 0.27499 -0.41700
C 	C 	0.25743 0.94023 0.21840 0.05600
C 	C 	0.16321 0.88477 0.22695 0.01600
C 	C 	0.17947 0.74868 0.21800 0.06700
C 	C 	0.26521 0.80308 0.20468 0.04000
C 	C 	0.30901 0.89998 0.20726 -0.08400
C 	C 	0.40788 0.96064 0.19636 0.78300
H 	H 	0.28934 0.01473 0.21951 0.10800
F 	F 	0.40324 0.97295 0.16831 -0.41600
F 	F 	0.46341 0.91997 0.20105 -0.39800
C 	C 	0.04369 0.32714 0.31128 0.09800
C 	C 	0.06350 0.41336 0.35360 0.04600
C 	C 	0.06358 0.41019 0.32451 -0.10100
C 	C 	0.08334 0.49336 0.30737 0.79300
H 	H 	0.05337 0.32631 0.28921 0.10400
F 	F 	0.02218 0.46637 0.28495 -0.40400
F 	F 	0.17494 0.53376 0.29776 -0.34500
F 	F 	0.07080 0.55740 0.32241 -0.40000
C 	C 	0.16128 0.84153 0.31022 0.06500
C 	C 	0.11923 0.88704 0.32392 0.01800
C 	C 	0.15003 0.92188 0.35111 -0.08700
C 	C 	0.22505 0.91432 0.36294 0.05900
C 	C 	0.25409 0.85529 0.35124 0.01300
C 	C 	0.23085 0.82788 0.32348 -0.08300
C 	C 	0.28373 0.78897 0.30774 0.79600
H 	H 	0.14120 0.81860 0.28910 0.11000
H 	H 	0.25197 0.94406 0.38315 0.08500
C 	C 	0.10298 0.96554 0.36786 0.77900
F 	F 	0.25925 0.77635 0.28002 -0.39300
F 	F 	0.26385 0.70489 0.31875 -0.36900
F 	F 	0.37999 0.84934 0.30989 -0.40300
F 	F 	0.14138 0.05754 0.36087 -0.40100
F 	F 	0.11697 0.96050 0.39587 -0.42700
C 	C 	0.42566 0.80255 0.48614 -0.00200
C 	C 	0.36564 0.83348 0.47557 -0.08700
C 	C 	0.37008 0.91379 0.48688 0.05700
C 	C 	0.43661 0.96344 0.50772 -0.07000
H 	H 	0.42333 0.74209 0.47751 0.03900
S 	S 	0.29321 0.95290 0.47508 0.00100
H 	H 	0.43973 0.02502 0.51646 0.07200
H 	H 	0.33318 0.01015 0.45299 0.07200
S 	S 	0.08877 0.61004 0.62619 0.02100
C 	C 	0.16536 0.59042 0.51229 -0.02100
C 	C 	0.21096 0.57705 0.48985 0.00600
C 	C 	0.17151 0.49218 0.47589 -0.10200
S 	S 	0.20709 0.70322 0.52520 -0.01100
H 	H 	0.27092 0.63549 0.48125 0.03300
S 	S 	0.46809 0.48118 0.60911 0.04400
H 	H 	0.50308 0.56978 0.55675 0.06200
C 	C 	0.44042 0.52950 0.49739 0.00100
C 	C 	0.43535 0.58684 0.47747 -0.00900
S 	S 	0.33512 0.44510 0.51283 -0.00900
H 	H 	0.36922 0.58349 0.47341 0.04000
H 	H 	0.37123 0.43318 0.61019 0.08300
H 	H 	0.29664 0.36635 0.49703 0.05600
C 	C 	0.41856 0.31976 0.71440 0.07200
C 	C 	0.41891 0.28770 0.68768 0.01700
C 	C 	0.33489 0.21139 0.67726 -0.08700
C 	C 	0.26298 0.15505 0.69568 0.07100
C 	C 	0.26626 0.18234 0.72315 0.02900
C 	C 	0.34021 0.27028 0.73185 -0.08200
C 	C 	0.33753 0.31030 0.75971 0.79000
H 	H 	0.48153 0.37974 0.72221 0.11200
H 	H 	0.20391 0.09040 0.68856 0.13000
C 	C 	0.32226 0.18915 0.64673 0.78700
F 	F 	0.40581 0.40248 0.76186 -0.39600
F 	F 	0.35417 0.26227 0.78011 -0.41600
F 	F 	0.25035 0.30450 0.76366 -0.42700
F 	F 	0.35721 0.26969 0.63171 -0.45100
F 	F 	0.22750 0.13499 0.63988 -0.40800
C 	C 	0.10722 0.31149 0.05213 0.01900
C 	C 	0.17145 0.39187 0.06623 0.00500
C 	C 	0.18224 0.47795 0.05856 -0.07200
C 	C 	0.13715 0.48468 0.03443 0.05000
S 	S 	0.09174 0.20400 0.06292 -0.01800
H 	H 	0.20901 0.38696 0.08414 0.08100
H 	H 	0.22759 0.63296 0.00616 0.05500
C 	C 	0.41373 0.18538 0.04450 -0.06500
C 	C 	0.31876 0.12563 0.03771 0.02000
C 	C 	0.27962 0.14694 0.01478 -0.00100
C 	C 	0.34030 0.20770 0.99481 0.00200
C 	C 	0.43863 0.24623 0.99812 -0.07900
C 	C 	0.27658 0.02958 0.04734 0.02100
S 	S 	0.15654 0.08914 0.00919 -0.01500
H 	H 	0.31143 0.21606 0.97550 0.06600
C 	C 	0.29114 0.96521 0.03191 -0.01100
C 	C 	0.29278 0.89188 0.04527 0.00600
C 	C 	0.27980 0.88154 0.07379 -0.06700
C 	C 	0.25252 0.93787 0.08853 0.04500
C 	C 	0.24963 0.01089 0.07508 -0.05100
S 	S 	0.31649 0.98070 0.99636 0.01500
H 	H 	0.30801 0.84487 0.03363 0.05200
S 	S 	0.22658 0.92074 0.12399 0.06500
H 	H 	0.23493 0.05810 0.08679 0.07000
H 	H 	0.23401 0.93470 0.98151 0.05700
H 	H 	0.13243 0.85883 0.12737 0.06100
H 	H 	0.12989 0.00924 0.99463 0.05400
C 	C 	0.35093 0.25178 0.87709 0.07300
C 	C 	0.42985 0.24040 0.87208 0.02100
C 	C 	0.43376 0.19532 0.84770 -0.05500
C 	C 	0.35477 0.15540 0.83005 0.07800
C 	C 	0.27434 0.16349 0.83554 0.05800
C 	C 	0.27209 0.21267 0.85914 -0.07900
C 	C 	0.18557 0.22231 0.86540 0.77900
H 	H 	0.35000 0.28858 0.89549 0.08400
H 	H 	0.35486 0.11623 0.81212 0.12500
F 	F 	0.19432 0.26652 0.89040 -0.43700
F 	F 	0.11054 0.86467 0.69562 -0.41200
C 	C 	0.50561 0.45714 0.57761 0.05600
H 	H 	0.57215 0.56323 0.01050 0.04600
C 	C 	0.49711 0.26248 0.97358 0.29000
C 	C 	0.50365 0.26919 0.89350 0.32200
O 	O 	0.49992 0.32137 0.95467 -0.35600
O 	O 	0.49299 0.21088 0.91325 -0.32600
C 	C 	0.51096 0.31212 0.67493 0.31600
O 	O 	0.52164 0.28932 0.61399 -0.29700
C 	C 	0.45446 0.67276 0.35535 0.31700
C 	C 	0.49424 0.67122 0.43401 0.29100
Ni	Ni	0.41919 0.77148 0.40088 1.13000
O 	O 	0.46220 0.60920 0.41386 -0.36300
O 	O 	0.49299 0.75071 0.43159 -0.35800
O 	O 	0.37618 0.59379 0.36027 -0.30000
C 	C 	0.47421 0.59467 0.11584 0.31500
O 	O 	0.41344 0.59916 0.09908 -0.39200
O 	O 	0.50728 0.80340 0.15574 -0.31800
O 	O 	0.48951 0.63324 0.14054 -0.37100
F 	F 	0.59664 0.02589 0.15711 -0.37000
F 	F 	0.65244 0.02124 0.11495 -0.43100
F 	F 	0.45082 0.04616 0.20928 -0.38700
F 	F 	0.39461 0.71437 0.27905 -0.35900
F 	F 	0.35856 0.58296 0.30162 -0.35500
C 	C 	0.50003 0.93443 0.51704 0.02000
H 	H 	0.49220 0.88261 0.56999 0.06600
C 	C 	0.49341 0.85281 0.50631 -0.00200
C 	C 	0.51600 0.51190 0.55472 -0.06000
C 	C 	0.53692 0.48909 0.52878 0.01700
C 	C 	0.54987 0.41135 0.52615 -0.00000
C 	C 	0.54706 0.36106 0.54971 -0.00800
C 	C 	0.52999 0.38678 0.57579 -0.04700
C 	C 	0.52823 0.53703 0.50413 0.01400
S 	S 	0.57014 0.37670 0.49368 -0.00700
H 	H 	0.56440 0.30599 0.54800 0.05100
C 	C 	0.51308 0.64276 0.46109 -0.07900
H 	H 	0.48501 0.31763 0.48150 0.05400
F 	F 	0.36932 0.14181 0.63959 -0.46700
C 	C 	0.47511 0.24282 0.02426 0.06100
H 	H 	0.44247 0.17588 0.06369 0.08200
C 	C 	0.51532 0.51951 0.07821 0.00200
S 	S 	0.56362 0.49202 0.02661 -0.01300
H 	H 	0.44429 0.49016 0.06975 0.05300
C 	C 	0.51774 0.18146 0.84174 0.77700
F 	F 	0.51957 0.15918 0.81426 -0.35900
O 	O 	0.03573 0.88749 0.74376 -0.33900
C 	C 	0.42978 0.65888 0.28849 0.79400
F 	F 	0.51156 0.11030 0.85781 -0.39100
C 	C 	0.03227 0.52921 0.54631 -0.05800
O 	O 	0.52989 0.20461 0.96843 -0.35700
O 	O 	0.56501 0.35726 0.89630 -0.29400
C 	C 	0.57183 0.36822 0.60011 0.28200
O 	O 	0.56589 0.39544 0.66464 -0.33300
O 	O 	0.53556 0.24878 0.67317 -0.31500
O 	O 	0.49154 0.73752 0.37444 -0.34500
C 	C 	0.56844 0.82952 0.13522 0.30400
O 	O 	0.54203 0.80025 0.10915 -0.34400
C 	C 	0.67498 0.03713 0.14276 0.78100
F 	F 	0.45992 0.62893 0.26603 -0.38800
C 	C 	0.55186 0.95051 0.56612 -0.06100
C 	C 	0.56881 0.98636 0.53936 0.01400
S 	S 	0.57274 0.81502 0.51695 -0.01200
F 	F 	0.51472 0.05383 0.72027 -0.40600
C 	C 	0.53477 0.55789 0.10489 -0.08000
H 	H 	0.68110 0.73172 0.03043 0.04200
F 	F 	0.60179 0.26093 0.84744 -0.36900
Ni	Ni	0.62359 0.41559 0.93427 1.12100
Ni	Ni	0.60248 0.21036 0.93392 1.14000
Ni	Ni	0.57540 0.22209 0.63730 1.14500
O 	O 	0.64576 0.44033 0.61128 -0.37200
C 	C 	0.66951 0.88202 0.14230 0.00300
C 	C 	0.70579 0.97090 0.15370 -0.07700
F 	F 	0.74696 0.12739 0.14592 -0.38900
C 	C 	0.51869 0.67764 0.33319 0.02600
C 	C 	0.51303 0.71335 0.30733 -0.07600
H 	H 	0.64950 0.85119 0.49980 0.05700
C 	C 	0.60142 0.64964 0.46724 0.04400
C 	C 	0.60928 0.59884 0.48934 -0.05700
C 	C 	0.59527 0.08284 0.73635 0.78000
F 	F 	0.63172 0.17521 0.74292 -0.35700
F 	F 	0.56948 0.03203 0.76046 -0.38600
S 	S 	0.59787 0.29841 0.03032 -0.02600
C 	C 	0.58881 0.52878 0.06129 -0.00400
F 	F 	0.58303 0.02454 0.89074 -0.40000
F 	F 	0.65460 0.45407 0.85007 -0.40400
F 	F 	0.99933 0.28936 0.80549 -0.38300
O 	O 	0.61914 0.18614 0.60331 -0.36900
C 	C 	0.65121 0.07105 0.53416 0.00300
O 	O 	0.60174 0.12917 0.65820 -0.32500
C 	C 	0.60963 0.00323 0.58805 0.06200
S 	S 	0.68299 0.11173 0.50023 0.00200
H 	H 	0.67775 0.60664 0.49478 0.06500
H 	H 	0.63074 0.23977 0.02285 0.05000
C 	C 	0.62283 0.58113 0.11709 0.05300
S 	S 	0.58564 0.95669 0.62143 0.02300
F 	F 	0.64742 0.93256 0.88948 -0.41600
O 	O 	0.69097 0.48428 0.97027 -0.36200
C 	C 	0.60742 0.69231 0.34181 0.06600
C 	C 	0.59519 0.78766 0.29620 0.07000
H 	H 	0.61162 0.65466 0.35950 0.09000
H 	H 	0.59093 0.81654 0.27655 0.10600
C 	C 	0.68223 0.57086 0.07179 0.01900
O 	O 	0.65906 0.21075 0.89735 -0.27800
O 	O 	0.67751 0.33934 0.94005 -0.71400
H 	H 	0.67835 0.33826 0.96037 0.15100
C 	C 	0.66041 0.15249 0.67945 0.32300
Ni	Ni	0.69777 0.43876 0.64825 1.12600
H 	H 	0.78200 0.05753 0.18830 0.12000
C 	C 	0.68019 0.09558 0.58361 -0.06300
H 	H 	0.63834 0.91428 0.62648 0.07600
S 	S 	0.63092 0.56842 0.15288 0.11000
C 	C 	0.66721 0.02304 0.89295 0.78300
C 	C 	0.68822 0.16586 0.60353 0.29100
O 	O 	0.69734 0.32780 0.63841 -0.71500
F 	F 	0.70391 0.05100 0.91918 -0.45100
C 	C 	0.66907 0.06981 0.72100 -0.06900
C 	C 	0.76394 0.99422 0.17722 0.04900
H 	H 	0.73767 0.07772 0.48933 0.06600
O 	O 	0.73452 0.52780 0.91469 -0.33700
O 	O 	0.68842 0.17330 0.95507 -0.31700
H 	H 	0.70904 0.33731 0.61846 0.15900
C 	C 	0.71725 0.83262 0.14776 0.06000
H 	H 	0.69918 0.77065 0.13601 0.06100
C 	C 	0.68409 0.81619 0.30843 0.02300
C 	C 	0.68933 0.77080 0.33265 -0.08100
C 	C 	0.70797 0.12430 0.55635 0.00200
S 	S 	0.70216 0.72176 0.44779 0.06100
H 	H 	0.70862 0.67268 0.42592 0.09200
C 	C 	0.67985 0.08345 0.69221 0.00500
C 	C 	0.69815 0.59292 0.10008 -0.05100
C 	C 	0.74014 0.48250 0.83710 0.79400
F 	F 	0.05177 0.84841 0.90307 -0.43700
F 	F 	0.72506 0.48160 0.80893 -0.36400
C 	C 	0.02977 0.56959 0.59438 -0.00400
H 	H 	0.64020 0.64329 0.16732 0.08500
F 	F 	0.99984 0.40768 0.15492 -0.36800
S 	S 	0.77203 0.75402 0.03717 0.02100
C 	C 	0.74646 0.22748 0.89485 0.32100
O 	O 	0.75230 0.19310 0.62409 -0.34100
O 	O 	0.74754 0.44083 0.68651 -0.33100
O 	O 	0.72324 0.23851 0.68312 -0.31300
H 	H 	0.76660 0.19286 0.55255 0.05100
C 	C 	0.73494 0.05483 0.73584 0.06900
H 	H 	0.73181 0.05135 0.75818 0.11800
C 	C 	0.76249 0.59069 0.05324 0.02700
C 	C 	0.73697 0.08667 0.87159 -0.07500
H 	H 	0.74991 0.97728 0.85111 0.10300
F 	F 	0.77198 0.42072 0.84247 -0.37200
C 	C 	0.78024 0.50833 0.97615 0.28400
C 	C 	0.78696 0.65706 0.03227 -0.00200
C 	C 	0.78963 0.51978 0.89641 0.31400
C 	C 	0.78275 0.85939 0.16985 -0.10800
C 	C 	0.74097 0.06021 0.67819 0.04800
H 	H 	0.74596 0.06655 0.65602 0.07800
F 	F 	0.75907 0.42676 0.75079 -0.36100
H 	H 	0.73698 0.17005 0.02055 0.05400
H 	H 	0.78415 0.47988 0.06789 0.08100
H 	H 	0.76771 0.61604 0.10896 0.10700
C 	C 	0.76969 0.04971 0.85084 0.07400
C 	C 	0.77034 0.18331 0.87215 0.03400
O 	O 	0.01434 0.83528 0.80111 -0.36500
C 	C 	0.77192 0.22821 0.96722 0.28900
C 	C 	0.79517 0.93380 0.18707 0.03600
F 	F 	0.75971 0.78598 0.37713 -0.41500
C 	C 	0.79322 0.52548 0.05084 -0.05900
C 	C 	0.02418 0.85015 0.87609 0.71200
H 	H 	0.80204 0.34920 0.02157 0.04300
Ni	Ni	0.80865 0.38901 0.93364 1.12600
O 	O 	0.80891 0.45193 0.89781 -0.31600
Ni	Ni	0.79987 0.31263 0.64973 1.12400
C 	C 	0.77083 0.87658 0.29272 0.31900
O 	O 	0.77592 0.94558 0.27799 -0.33800
C 	C 	0.77985 0.80794 0.34954 0.78800
C 	C 	0.81538 0.64109 0.00644 0.00500
C 	C 	0.82074 0.56022 0.00202 -0.06700
H 	H 	0.82119 0.68459 0.98911 0.06600
C 	C 	0.81211 0.57770 0.84758 -0.08400
O 	O 	0.81539 0.29053 0.91032 -0.35500
O 	O 	0.81289 0.31952 0.96668 -0.38500
F 	F 	0.80450 0.74667 0.19351 -0.40700
C 	C 	0.80649 0.04680 0.72202 0.02500
C 	C 	0.80382 0.18144 0.01226 0.00500
C 	C 	0.82581 0.51255 0.02532 0.05000
H 	H 	0.82615 0.64311 0.80816 0.09200
O 	O 	0.00324 0.99286 0.78475 -0.74300
O 	O 	0.83746 0.50419 0.95706 -0.35100
C 	C 	0.83691 0.46692 0.69021 0.32100
O 	O 	0.83338 0.51188 0.63241 -0.34400
H 	H 	0.81877 0.50861 0.56344 0.05800
C 	C 	0.80593 0.04334 0.69286 -0.08900
C 	C 	0.81745 0.18674 0.98365 -0.04800
C 	C 	0.82893 0.23906 0.85106 0.07800
C 	C 	0.83815 0.59321 0.87584 0.01900
H 	H 	0.00378 0.99564 0.80505 0.17800
F 	F 	0.84746 0.77221 0.14901 -0.43800
O 	O 	0.82930 0.99345 0.79798 -0.32400
C 	C 	0.83764 0.94940 0.21537 0.27600
O 	O 	0.82968 0.87766 0.23018 -0.28300
C 	C 	0.84295 0.81362 0.17338 0.78900
F 	F 	0.83228 0.90315 0.34778 -0.36100
F 	F 	0.83314 0.76934 0.34012 -0.38200
C 	C 	0.83140 0.10660 0.83038 0.03000
C 	C 	0.85133 0.65240 0.82928 0.08200
O 	O 	0.83737 0.85405 0.29150 -0.29300
H 	H 	0.85407 0.31268 0.85165 0.13600
C 	C 	0.85693 0.47388 0.75135 0.78900
S 	S 	0.87368 0.43846 0.02285 0.00800
C 	C 	0.85412 0.20053 0.82905 -0.06100
C 	C 	0.87167 0.47905 0.61414 0.26900
O 	O 	0.87500 0.40225 0.61877 -0.34400
H 	H 	0.84718 0.14159 0.07886 0.08800
O 	O 	0.87648 0.42825 0.67558 -0.30800
O 	O 	0.86069 0.02968 0.22731 -0.33900
F 	F 	0.02590 0.79278 0.65785 -0.43300
Ni	Ni	0.87542 0.90729 0.77897 1.13300
O 	O 	0.87510 0.96005 0.74062 -0.30000
F 	F 	0.86756 0.02882 0.64913 -0.41900
F 	F 	0.84906 0.92961 0.68287 -0.39200
S 	S 	0.86925 0.22205 0.06544 0.09000
F 	F 	0.86602 0.20980 0.78009 -0.40300
C 	C 	0.01964 0.81104 0.68544 0.71500
C 	C 	0.87994 0.04039 0.73831 0.31500
C 	C 	0.88055 0.07059 0.81282 0.29800
O 	O 	0.88438 0.84789 0.81553 -0.32700
O 	O 	0.88527 0.79917 0.75971 -0.33600
F 	F 	0.85552 0.09465 0.35797 -0.38300
C 	C 	0.87280 0.01993 0.67740 0.78300
C 	C 	0.88168 0.20837 0.02993 -0.01800
Ni	Ni	0.89878 0.05881 0.26682 1.14200
C 	C 	0.89208 0.52537 0.56570 -0.03900
S 	S 	0.88826 0.49941 0.50976 -0.01300
C 	C 	0.89703 0.55491 0.70491 0.01900
C 	C 	0.89321 0.56006 0.73391 -0.08400
F 	F 	0.88984 0.41682 0.74131 -0.37300
F 	F 	0.88729 0.49590 0.77847 -0.36200
C 	C 	0.89933 0.18797 0.97337 0.03400
S 	S 	0.91135 0.17322 0.93795 0.12100
F 	F 	0.89139 0.33637 0.80305 -0.34100
C 	C 	0.90718 0.68132 0.88485 0.04400
H 	H 	0.91003 0.64916 0.76853 0.09100
C 	C 	0.90343 0.25955 0.80414 0.78400
C 	C 	0.91859 0.74072 0.83836 -0.00900
C 	C 	0.91799 0.64548 0.74648 0.08000
H 	H 	0.92679 0.69231 0.90651 0.09800
Ni	Ni	0.92446 0.88253 0.25970 1.16300
F 	F 	0.93442 0.87846 0.18071 -0.41300
O 	O 	0.93287 0.09239 0.30689 -0.25700
C 	C 	0.93220 0.53833 0.59217 0.00100
H 	H 	0.91424 0.58233 0.49734 0.06200
C 	C 	0.94208 0.63682 0.68960 0.03300
F 	F 	0.92095 0.16914 0.39755 -0.41300
O 	O 	0.93403 0.10869 0.75525 -0.26900
C 	C 	0.94624 0.81848 0.81941 0.35900
H 	H 	0.95157 0.63280 0.66766 0.09700
C 	C 	0.94929 0.75528 0.86617 -0.03000
C 	C 	0.94126 0.51942 0.54269 0.06300
C 	C 	0.95023 0.72593 0.73064 -0.01300
C 	C 	0.95534 0.80932 0.74370 0.36600
H 	H 	0.95988 0.25786 0.92565 0.07000
C 	C 	0.94023 0.15530 0.37067 0.75900
F 	F 	0.97163 0.86035 0.68700 -0.35300
C 	C 	0.96886 0.72301 0.70217 -0.03000
F 	F 	0.95518 0.25727 0.15167 -0.37600
C 	C 	0.97143 0.23521 0.01856 0.05900
C 	C 	0.97553 0.20961 0.99124 -0.01000
F 	F 	0.96533 0.07806 0.68566 -0.39200
F 	F 	0.98198 0.73197 0.25268 -0.38400
O 	O 	0.97402 0.11833 0.81145 -0.25300
F 	F 	0.97084 0.74262 0.20656 -0.34300
O 	O 	0.98423 0.01257 0.26248 -0.69400
F 	F 	0.99168 0.63079 0.22475 -0.34000
F 	F 	0.98888 0.91077 0.87469 -0.37900
H 	H 	0.98001 0.29559 0.45258 0.11100
C 	C 	0.98818 0.24489 0.35464 0.02700
H 	H 	0.98885 0.36818 0.52013 0.11000
H 	H 	0.99044 0.21874 0.19564 0.14100
