data_crystal

_cell_length_a 29.63057
_cell_length_b 30.83040
_cell_length_c 44.94549
_cell_angle_alpha 95.51885
_cell_angle_beta  95.51788
_cell_angle_gamma 125.63064

_symmetry_space_group_name_	'P 1'
_symmetry_space_group_name_H-M	'P 1'

loop_
_symmetry_equiv_pos_as_xyz
  x,y,z

loop_
_atom_site_label
_atom_site_type_symbol
_atom_site_fract_x
_atom_site_fract_y
_atom_site_fract_z
_atom_site_charge
N 	N 	0.01845 0.04258 0.00279 -0.13700
C 	C 	0.03847 0.01300 0.99804 0.11900
Cu	Cu	0.64490 0.25198 0.99734 0.92900
Cu	Cu	0.64874 0.35269 0.02277 0.89500
O 	O 	0.56302 0.22087 0.99813 -0.36300
C 	C 	0.65695 0.31077 0.89430 0.30700
O 	O 	0.63665 0.26204 0.95487 -0.64200
O 	O 	0.63886 0.31079 0.05602 -0.38700
C 	C 	0.54162 0.24576 0.98912 0.28400
O 	O 	0.57558 0.29716 0.98699 -0.39500
O 	O 	0.65078 0.26553 0.89700 -0.42300
H 	H 	0.59725 0.24113 0.94364 0.17300
Cu	Cu	0.64600 0.31486 0.49930 0.89700
Cu	Cu	0.63409 0.33932 0.43729 0.89400
O 	O 	0.64985 0.29800 0.45786 -0.64000
O 	O 	0.56461 0.27407 0.49098 -0.38200
C 	C 	0.53464 0.27514 0.46768 0.29100
O 	O 	0.55912 0.30954 0.44894 -0.39600
O 	O 	0.64079 0.31992 0.54291 -0.38700
H 	H 	0.62581 0.25868 0.44909 0.16300
C 	C 	0.64797 0.34253 0.80875 -0.01000
C 	C 	0.59622 0.32071 0.78982 -0.03100
C 	C 	0.59447 0.32605 0.75923 -0.04400
C 	C 	0.64452 0.35303 0.74739 0.00800
C 	C 	0.64206 0.35156 0.71429 0.00800
C 	C 	0.61222 0.30148 0.69415 -0.04400
C 	C 	0.61661 0.29990 0.66344 -0.03100
C 	C 	0.65096 0.34829 0.65263 -0.01000
C 	C 	0.66224 0.34630 0.62225 0.04500
C 	C 	0.64923 0.33086 0.83897 0.04500
C 	C 	0.65191 0.32189 0.86436 -0.11300
H 	H 	0.55723 0.29836 0.79854 0.03700
H 	H 	0.55417 0.30793 0.74456 0.04000
H 	H 	0.58738 0.26381 0.70253 0.03900
H 	H 	0.59489 0.26102 0.64830 0.03600
C 	C 	0.64017 0.24749 0.16450 -0.03100
C 	C 	0.64716 0.24794 0.19575 -0.04300
H 	H 	0.59833 0.22891 0.15152 0.04000
H 	H 	0.61072 0.23001 0.20672 0.04000
C 	C 	0.09099 0.04404 0.47865 -0.02500
C 	C 	0.18164 0.06354 0.49800 -0.05800
C 	C 	0.20882 0.10782 0.48304 0.03300
C 	C 	0.17713 0.12137 0.46678 -0.05800
C 	C 	0.11846 0.08943 0.46445 -0.01500
C 	C 	0.27069 0.14066 0.48518 -0.04700
C 	C 	0.29373 0.15260 0.46012 -0.05600
C 	C 	0.35544 0.18391 0.46219 0.04800
C 	C 	0.38418 0.22955 0.44839 -0.07700
C 	C 	0.44258 0.25930 0.45010 0.01900
C 	C 	0.47274 0.24321 0.46533 -0.09100
C 	C 	0.44359 0.19665 0.47851 0.01900
C 	C 	0.38524 0.16709 0.47688 -0.07700
H 	H 	0.20589 0.05342 0.51108 0.04300
H 	H 	0.19792 0.15653 0.45594 0.04400
H 	H 	0.09434 0.09957 0.45127 0.04000
H 	H 	0.29738 0.15235 0.50719 0.04200
H 	H 	0.26715 0.14097 0.43809 0.04300
H 	H 	0.36136 0.24235 0.43665 0.04700
H 	H 	0.46436 0.29511 0.43983 0.03200
H 	H 	0.46603 0.18312 0.48982 0.03100
H 	H 	0.36313 0.13093 0.48684 0.04800
H 	H 	0.00025 0.11326 0.98686 0.04200
C 	C 	0.09844 0.04012 0.99634 -0.02600
C 	C 	0.12733 0.02122 0.00949 -0.01500
C 	C 	0.18207 0.04248 0.00503 -0.05800
C 	C 	0.20882 0.08328 0.98770 0.03200
C 	C 	0.18045 0.10306 0.97500 -0.05800
C 	C 	0.12560 0.08179 0.97948 -0.01500
C 	C 	0.26508 0.10251 0.98140 -0.04700
C 	C 	0.30786 0.15579 0.98634 -0.05600
C 	C 	0.36600 0.17470 0.98434 0.04800
C 	C 	0.39872 0.21704 0.96879 -0.07800
C 	C 	0.45537 0.23851 0.96908 0.01700
C 	C 	0.48013 0.21835 0.98538 -0.09500
C 	C 	0.44688 0.17497 0.00031 0.02100
C 	C 	0.39028 0.15354 0.99999 -0.07900
H 	H 	0.20358 0.02694 0.01488 0.04300
H 	H 	0.20031 0.13389 0.96110 0.04300
H 	H 	0.10359 0.09641 0.96902 0.03700
H 	H 	0.27291 0.07276 0.97529 0.04100
H 	H 	0.30008 0.18570 0.99200 0.04300
H 	H 	0.38042 0.23372 0.95672 0.04700
H 	H 	0.48025 0.27146 0.95712 0.03000
H 	H 	0.46535 0.15911 0.01309 0.03600
H 	H 	0.36577 0.12159 0.01262 0.04900
C 	C 	0.12300 0.03163 0.49573 -0.01600
C 	C 	0.02885 0.00886 0.47508 0.11900
H 	H 	0.65744 0.20708 0.30253 0.03800
H 	H 	0.65542 0.19459 0.24715 0.04000
C 	C 	0.66315 0.28692 0.06187 0.30500
O 	O 	0.66468 0.25625 0.03996 -0.36300
N 	N 	0.00014 0.03058 0.47302 -0.14000
C 	C 	0.67072 0.34308 0.59670 -0.11300
O 	O 	0.67608 0.34595 0.40367 -0.38700
H 	H 	0.68771 0.15285 0.48090 0.02700
C 	C 	0.68124 0.33727 0.56659 0.30700
C 	C 	0.67351 0.28205 0.09279 -0.10400
O 	O 	0.67503 0.34922 0.91823 -0.38800
C 	C 	0.68067 0.27824 0.11900 0.04400
Cu	Cu	0.67718 0.34246 0.96156 0.89700
O 	O 	0.68214 0.42578 0.01201 -0.39500
C 	C 	0.68727 0.27276 0.15029 -0.00800
C 	C 	0.96301 0.01722 0.00435 0.11300
Cu	Cu	0.68642 0.25836 0.93181 0.87000
O 	O 	0.69198 0.33696 0.00292 -0.64100
O 	O 	0.67862 0.21220 0.99219 -0.37500
O 	O 	0.74029 0.27057 0.96453 -0.44300
C 	C 	0.72597 0.23403 0.98175 0.28900
H 	H 	0.73258 0.35920 0.01229 0.16400
Cu	Cu	0.73799 0.34127 0.46258 0.92700
Cu	Cu	0.73226 0.30473 0.52909 0.87000
C 	C 	0.69979 0.32144 0.39801 0.30500
O 	O 	0.77216 0.42029 0.46069 -0.36300
O 	O 	0.72933 0.35208 0.50520 -0.64100
O 	O 	0.77614 0.30550 0.46795 -0.37300
O 	O 	0.71518 0.25005 0.49691 -0.44300
O 	O 	0.69398 0.41049 0.47212 -0.39400
O 	O 	0.73162 0.31993 0.41997 -0.36300
C 	C 	0.75161 0.26052 0.47909 0.28800
O 	O 	0.72765 0.34215 0.56352 -0.42300
H 	H 	0.75210 0.39039 0.51585 0.17300
C 	C 	0.69652 0.37692 0.76677 -0.04400
C 	C 	0.69819 0.37173 0.79733 -0.03100
C 	C 	0.67860 0.39840 0.67234 -0.03100
C 	C 	0.67407 0.40007 0.70307 -0.04400
H 	H 	0.73539 0.39780 0.75790 0.03900
H 	H 	0.73838 0.38893 0.81188 0.03600
H 	H 	0.70494 0.43600 0.66410 0.03700
H 	H 	0.69677 0.43895 0.71834 0.04000
C 	C 	0.71221 0.29478 0.30950 -0.00800
C 	C 	0.68158 0.24233 0.29201 -0.03200
C 	C 	0.68034 0.23526 0.26064 -0.04400
C 	C 	0.70956 0.28069 0.24657 0.00900
C 	C 	0.74230 0.33313 0.26439 -0.04300
C 	C 	0.74365 0.34010 0.29574 -0.03100
C 	C 	0.70139 0.27358 0.21303 0.00800
C 	C 	0.74825 0.29674 0.19849 -0.04400
C 	C 	0.74118 0.29642 0.16721 -0.03200
C 	C 	0.70719 0.30228 0.34082 0.04400
C 	C 	0.70396 0.31013 0.36708 -0.10400
H 	H 	0.76501 0.36848 0.25380 0.04000
H 	H 	0.76765 0.38078 0.30915 0.04000
H 	H 	0.79022 0.31620 0.21155 0.04000
H 	H 	0.77776 0.31577 0.15633 0.03800
C 	C 	0.91229 0.02234 0.46720 -0.02600
C 	C 	0.93199 0.06977 0.48769 -0.01500
C 	C 	0.90775 0.09690 0.48364 -0.05900
C 	C 	0.86320 0.07665 0.45914 0.03300
C 	C 	0.84292 0.02881 0.43888 -0.05900
C 	C 	0.83975 0.10705 0.45370 -0.04800
C 	C 	0.82343 0.12362 0.47624 -0.05700
C 	C 	0.80166 0.15541 0.47127 0.04700
C 	C 	0.74729 0.13541 0.47616 -0.08000
C 	C 	0.72960 0.16868 0.47665 0.01700
C 	C 	0.76665 0.22287 0.47291 -0.09900
C 	C 	0.82012 0.24204 0.46641 0.01800
C 	C 	0.83755 0.20841 0.46561 -0.07800
H 	H 	0.96684 0.08620 0.50644 0.03700
H 	H 	0.92436 0.13424 0.49916 0.04300
H 	H 	0.80877 0.01301 0.41982 0.04300
H 	H 	0.83438 0.11464 0.43097 0.04200
H 	H 	0.82423 0.11199 0.49826 0.04200
H 	H 	0.71921 0.09447 0.48039 0.04600
H 	H 	0.84905 0.28356 0.46325 0.03300
H 	H 	0.87972 0.22428 0.46184 0.04800
C 	C 	0.76119 0.21502 0.98760 -0.09800
C 	C 	0.81514 0.24309 0.97987 0.01600
C 	C 	0.84603 0.22210 0.98224 -0.07900
C 	C 	0.82397 0.17347 0.99290 0.04600
C 	C 	0.77099 0.14629 0.00168 -0.07500
C 	C 	0.73981 0.16704 0.99915 0.01600
C 	C 	0.85380 0.14839 0.99179 -0.05800
C 	C 	0.86620 0.13328 0.01650 -0.04600
C 	C 	0.89336 0.10550 0.01484 0.03000
C 	C 	0.87136 0.05826 0.02705 -0.05700
C 	C 	0.89488 0.03013 0.02425 -0.01800
C 	C 	0.94095 0.04918 0.00931 -0.02100
C 	C 	0.96450 0.09782 0.99824 -0.02400
C 	C 	0.94112 0.12608 0.00121 -0.05300
H 	H 	0.83276 0.28064 0.97147 0.02600
H 	H 	0.88685 0.24332 0.97540 0.04500
H 	H 	0.75324 0.10830 0.00961 0.04800
H 	H 	0.69846 0.14498 0.00536 0.03700
H 	H 	0.86700 0.14352 0.97076 0.04200
H 	H 	0.85267 0.13794 0.03746 0.04100
H 	H 	0.83532 0.04274 0.03820 0.04200
H 	H 	0.95983 0.16367 0.99272 0.04000
C 	C 	0.74700 0.44211 0.46901 0.28300
O 	O 	0.72100 0.42074 0.97074 -0.38400
C 	C 	0.71766 0.44934 0.99313 0.29100
H 	H 	0.83818 0.51260 0.44446 0.03700
C 	C 	0.77522 0.50091 0.47042 -0.09200
H 	H 	0.71879 0.50346 0.49652 0.03000
H 	H 	0.69667 0.51619 0.02172 0.03200
C 	C 	0.74945 0.50861 0.99483 -0.09200
C 	C 	0.75303 0.52574 0.48425 0.01500
H 	H 	0.81063 0.51563 0.96888 0.03200
C 	C 	0.82038 0.53095 0.45514 0.01700
C 	C 	0.79645 0.53680 0.98055 0.02000
C 	C 	0.73261 0.53717 0.01046 0.01900
C 	C 	0.86705 0.00148 0.44303 -0.01600
H 	H 	0.10703 0.98945 0.02279 0.04000
N 	N 	0.00302 0.95812 0.99485 -0.13900
H 	H 	0.10248 0.99733 0.50726 0.04000
N 	N 	0.00015 0.95455 0.47357 -0.13900
C 	C 	0.94767 0.93260 0.99628 0.11600
N 	N 	0.92770 0.96219 0.00100 -0.14000
C 	C 	0.94285 0.99813 0.46926 0.11600
N 	N 	0.91413 0.94362 0.46769 -0.14100
C 	C 	0.94289 0.92181 0.46995 0.11500
C 	C 	0.84101 0.58406 0.45236 -0.07600
C 	C 	0.81718 0.60794 0.46504 0.04600
C 	C 	0.77337 0.57866 0.48125 -0.07500
C 	C 	0.83460 0.66142 0.45867 -0.05500
C 	C 	0.84488 0.70043 0.48079 -0.04800
C 	C 	0.86548 0.75496 0.47473 0.03300
C 	C 	0.84388 0.78121 0.48735 -0.05900
C 	C 	0.86708 0.83487 0.48441 -0.01600
C 	C 	0.91247 0.86293 0.46904 -0.02500
C 	C 	0.93279 0.83601 0.45557 -0.01600
C 	C 	0.90996 0.78264 0.45871 -0.05800
H 	H 	0.87477 0.60625 0.43978 0.04700
H 	H 	0.75385 0.59617 0.49069 0.04700
H 	H 	0.84161 0.66980 0.43595 0.04300
H 	H 	0.83744 0.69200 0.50346 0.04000
H 	H 	0.80982 0.76038 0.49992 0.04300
H 	H 	0.85113 0.85517 0.49504 0.03800
H 	H 	0.96744 0.85701 0.44340 0.03800
H 	H 	0.92802 0.76343 0.44948 0.04300
H 	H 	0.85177 0.96513 0.42694 0.03800
C 	C 	0.90964 0.87298 0.99303 -0.02600
C 	C 	0.86679 0.84838 0.01035 -0.01400
C 	C 	0.83417 0.79227 0.00925 -0.05800
C 	C 	0.84451 0.76044 0.99113 0.03300
C 	C 	0.88553 0.78460 0.97276 -0.05900
C 	C 	0.91801 0.84059 0.97376 -0.01500
C 	C 	0.81238 0.70182 0.99147 -0.04700
C 	C 	0.83942 0.67971 0.99739 -0.05700
C 	C 	0.80780 0.62066 0.99634 0.04700
C 	C 	0.82548 0.59252 0.98137 -0.07700
C 	C 	0.76191 0.59295 0.01141 -0.07600
H 	H 	0.85972 0.87285 0.02523 0.03700
H 	H 	0.80189 0.77376 0.02309 0.04300
H 	H 	0.89255 0.76005 0.95792 0.04400
H 	H 	0.94998 0.85885 0.95973 0.03800
H 	H 	0.76650 0.67695 0.98770 0.04100
H 	H 	0.88534 0.70490 0.00115 0.04400
H 	H 	0.86154 0.61379 0.97020 0.04600
H 	H 	0.74914 0.61464 0.02399 0.04700
H 	H 	0.87709 0.99338 0.03355 0.03900
