data_crystal

_cell_length_a 19.08069
_cell_length_b 16.49238
_cell_length_c 42.48984
_cell_angle_alpha 88.36711
_cell_angle_beta  88.50161
_cell_angle_gamma 107.79251

_symmetry_space_group_name_	'P 1'
_symmetry_space_group_name_H-M	'P 1'

loop_
_symmetry_equiv_pos_as_xyz
  x,y,z

loop_
_atom_site_label
_atom_site_type_symbol
_atom_site_fract_x
_atom_site_fract_y
_atom_site_fract_z
_atom_site_charge
H 	H 	0.03863 0.90779 0.73569 0.18600
O 	O 	0.00288 0.93804 0.74141 -0.78300
Zn	Zn	0.01990 0.16114 0.24046 1.23000
O 	O 	0.03534 0.16337 0.16581 -0.44300
C 	C 	0.08180 0.22738 0.29958 0.31900
C 	C 	0.03881 0.44156 0.20260 0.00300
C 	C 	0.15381 0.37825 0.29617 -0.01500
C 	C 	0.16704 0.53039 0.30451 0.02400
C 	C 	0.04014 0.81058 0.34782 0.04200
C 	C 	0.01926 0.91199 0.30879 -0.01200
H 	H 	0.02010 0.82441 0.41055 0.07600
C 	C 	0.02211 0.51166 0.45729 -0.08800
C 	C 	0.02153 0.12527 0.60706 -0.03800
C 	C 	0.03617 0.09629 0.57777 -0.01400
C 	C 	0.02887 0.64837 0.00714 0.09400
H 	H 	0.02912 0.56236 0.95585 0.06200
H 	H 	0.02486 0.99088 0.16061 -0.01800
O 	O 	0.02120 0.27306 0.22420 -0.42500
C 	C 	0.06651 0.86826 0.13206 0.01700
H 	H 	0.28353 0.59884 0.30263 0.03000
Zn	Zn	0.03850 0.06073 0.72979 1.23200
O 	O 	0.05928 0.03581 0.80515 -0.44600
O 	O 	0.10267 0.02779 0.65831 -0.42300
O 	O 	0.10984 0.12205 0.69720 -0.44300
O 	O 	0.13061 0.49318 0.43470 -0.46000
O 	O 	0.10224 0.61425 0.42168 -0.38900
O 	O 	0.15732 0.75539 0.37989 -0.42300
C 	C 	0.08528 0.53900 0.43623 0.31100
O 	O 	0.13706 0.58961 0.06160 -0.47000
O 	O 	0.15191 0.73201 0.06644 -0.39700
C 	C 	0.12226 0.65944 0.05263 0.33000
O 	O 	0.10943 0.16630 0.20757 -0.36700
O 	O 	0.08704 0.17861 0.27599 -0.42600
C 	C 	0.09417 0.15010 0.17760 0.29000
C 	C 	0.02939 0.45398 0.13719 0.00800
H 	H 	0.02490 0.45946 0.11187 0.03900
C 	C 	0.08221 0.51766 0.15246 -0.08100
C 	C 	0.08557 0.51268 0.18552 0.02200
C 	C 	0.14499 0.57521 0.20172 0.01200
C 	C 	0.20825 0.72351 0.21160 -0.03900
C 	C 	0.14457 0.65995 0.20356 -0.04300
H 	H 	0.01806 0.27048 0.11377 0.07000
H 	H 	0.20839 0.78904 0.21225 0.02300
C 	C 	0.12748 0.09343 0.16079 -0.09700
C 	C 	0.11394 0.95436 0.13933 0.00600
C 	C 	0.08310 0.01116 0.15399 0.00400
C 	C 	0.17637 0.44853 0.31546 0.01900
C 	C 	0.14639 0.29628 0.30841 -0.08500
H 	H 	0.07622 0.15338 0.36503 0.04300
C 	C 	0.11691 0.84057 0.34021 -0.09300
C 	C 	0.09459 0.93655 0.29987 0.00100
C 	C 	0.14306 0.90660 0.31737 -0.00400
C 	C 	0.12190 0.98092 0.26941 0.00500
H 	H 	0.07125 0.87113 0.24215 0.04000
H 	H 	0.06602 0.16624 0.61995 0.03000
H 	H 	0.09192 0.11518 0.56790 0.03100
C 	C 	0.18909 0.90394 0.58084 -0.03000
H 	H 	0.17926 0.01370 0.55486 0.04800
H 	H 	0.17518 0.86242 0.56117 0.03000
C 	C 	0.07137 0.65536 0.02810 -0.14000
H 	H 	0.04177 0.36669 0.69163 0.05800
H 	H 	0.13200 0.38578 0.27330 0.03900
C 	C 	0.22853 0.60281 0.29940 -0.05700
C 	C 	0.04968 0.84793 0.10073 -0.06300
H 	H 	0.06960 0.89585 0.08190 0.05800
C 	C 	0.11364 0.93230 0.24241 -0.05100
H 	H 	0.18424 0.09825 0.28991 0.05900
C 	C 	0.14211 0.08245 0.67807 0.29800
O 	O 	0.12830 0.08716 0.76000 -0.40200
C 	C 	0.12317 0.07474 0.79071 0.31400
C 	C 	0.17040 0.79891 0.35269 0.32100
Zn	Zn	0.20028 0.66287 0.39284 1.22200
C 	C 	0.21232 0.50480 0.36962 0.29400
O 	O 	0.17173 0.55668 0.36938 -0.42500
O 	O 	0.14250 0.65938 0.12993 -0.42500
C 	C 	0.14159 0.57961 0.13342 0.30800
C 	C 	0.20785 0.55377 0.21036 -0.05000
C 	C 	0.27171 0.70239 0.21888 -0.05900
H 	H 	0.32115 0.75180 0.22477 0.01500
C 	C 	0.19038 0.97877 0.13265 -0.08900
C 	C 	0.20111 0.43752 0.34606 -0.07100
C 	C 	0.18150 0.28738 0.33648 0.02700
C 	C 	0.12883 0.14185 0.36187 -0.03600
C 	C 	0.17678 0.06039 0.26919 -0.03500
C 	C 	0.19152 0.98928 0.57727 -0.05800
C 	C 	0.20382 0.87194 0.60989 -0.02300
H 	H 	0.20102 0.80558 0.61272 0.03200
O 	O 	0.23372 0.81251 0.33701 -0.46700
Zn	Zn	0.22348 0.74551 0.10535 1.22100
O 	O 	0.22031 0.86564 0.10572 -0.42500
C 	C 	0.22773 0.91309 0.13068 0.32300
C 	C 	0.27104 0.61736 0.21888 -0.02500
H 	H 	0.20875 0.48856 0.20913 0.04800
C 	C 	0.20129 0.12235 0.14939 0.02800
C 	C 	0.20911 0.35824 0.35512 -0.02300
C 	C 	0.18866 0.20402 0.34680 0.00900
C 	C 	0.13724 0.06505 0.37323 -0.02200
H 	H 	0.09085 0.01677 0.38450 0.04400
H 	H 	0.20158 0.93083 0.31144 0.03300
C 	C 	0.16658 0.95614 0.21781 -0.04000
C 	C 	0.22820 0.01224 0.63138 0.03300
C 	C 	0.21177 0.04366 0.60235 -0.02400
C 	C 	0.22279 0.92568 0.63521 -0.05800
H 	H 	0.21666 0.11057 0.59902 0.04000
H 	H 	0.15563 0.17964 0.83950 0.04400
H 	H 	0.12147 0.79293 0.76895 0.02800
H 	H 	0.14933 0.90756 0.80735 0.01600
C 	C 	0.23287 0.06422 0.13585 -0.01200
C 	C 	0.22764 0.08597 0.24381 -0.02300
Zn	Zn	0.23776 0.54369 0.44013 1.19300
H 	H 	0.24959 0.70094 0.44656 0.17400
O 	O 	0.25859 0.50780 0.39243 -0.41400
Zn	Zn	0.23624 0.58781 0.07288 1.19700
O 	O 	0.19537 0.55537 0.12118 -0.41700
H 	H 	0.31990 0.60094 0.22493 0.03000
C 	C 	0.24481 0.21343 0.15079 0.01200
H 	H 	0.17381 0.25780 0.12037 0.04700
C 	C 	0.22450 0.03194 0.21885 -0.01800
H 	H 	0.16474 0.91385 0.19875 0.04300
C 	C 	0.22410 0.10561 0.67737 -0.07400
H 	H 	0.23583 0.90087 0.65740 0.04200
C 	C 	0.19102 0.09725 0.80854 -0.09200
C 	C 	0.20145 0.15847 0.83161 -0.01000
C 	C 	0.16571 0.85141 0.76377 -0.05200
C 	C 	0.18139 0.91639 0.78540 -0.03900
H 	H 	0.19425 0.81206 0.71857 0.03200
O 	O 	0.26217 0.66779 0.42943 -0.79000
O 	O 	0.26337 0.89840 0.15509 -0.47500
C 	C 	0.22104 0.27609 0.13520 -0.03800
C 	C 	0.30669 0.23822 0.16959 -0.04100
H 	H 	0.32635 0.19073 0.18134 0.03700
H 	H 	0.23249 0.35028 0.37755 0.04500
H 	H 	0.27175 0.14557 0.24430 0.03800
H 	H 	0.23306 0.18347 0.71818 0.05800
C 	C 	0.26447 0.07234 0.65534 0.01800
C 	C 	0.20675 0.86216 0.73537 -0.02200
H 	H 	0.04830 0.78343 0.61365 0.06600
C 	C 	0.25695 0.18887 0.34349 -0.04500
O 	O 	0.30196 0.86561 0.39773 -0.42500
O 	O 	0.30728 0.69802 0.37088 -0.79300
H 	H 	0.30731 0.74336 0.05967 0.17200
O 	O 	0.29451 0.70908 0.07969 -0.77600
H 	H 	0.29109 0.08432 0.12926 0.03800
C 	C 	0.25638 0.36235 0.13975 -0.01800
H 	H 	0.23610 0.41023 0.12871 0.05100
C 	C 	0.20565 0.05082 0.37029 -0.02200
C 	C 	0.26287 0.16221 0.69976 -0.02500
C 	C 	0.24941 0.06585 0.79968 0.05000
C 	C 	0.23730 0.99347 0.77829 -0.03500
C 	C 	0.26431 0.93732 0.72878 -0.05800
H 	H 	0.26369 0.35492 0.84526 0.04700
H 	H 	0.04090 0.86449 0.56445 0.04800
H 	H 	0.26774 0.04776 0.20070 0.03400
H 	H 	0.32042 0.65973 0.35589 0.18400
H 	H 	0.28933 0.69315 0.15540 0.19200
O 	O 	0.30384 0.73915 0.13890 -0.79000
C 	C 	0.34264 0.32472 0.17363 -0.02200
C 	C 	0.26526 0.11232 0.35518 -0.02700
H 	H 	0.30353 0.23652 0.33202 0.04100
H 	H 	0.21231 0.99184 0.37949 0.03700
C 	C 	0.27105 0.19324 0.84431 0.01900
C 	C 	0.27796 0.24761 0.87182 0.02500
C 	C 	0.27724 0.38080 0.89448 -0.01300
C 	C 	0.27207 0.33013 0.86827 -0.04200
C 	C 	0.27983 0.00263 0.75020 0.00300
H 	H 	0.27284 0.44449 0.89172 0.03500
O 	O 	0.01725 0.22325 0.31273 -0.45200
Zn	Zn	0.33066 0.81542 0.35390 1.19800
O 	O 	0.33353 0.52877 0.45234 -0.45700
C 	C 	0.31714 0.38670 0.15893 -0.02800
C 	C 	0.28932 0.21641 0.90173 -0.04400
C 	C 	0.28797 0.34922 0.92426 -0.03300
H 	H 	0.29689 0.94507 0.70707 0.03800
H 	H 	0.29122 0.38819 0.94456 0.03700
C 	C 	0.34219 0.87418 0.42287 0.32100
O 	O 	0.30891 0.52995 0.08441 -0.45600
H 	H 	0.38988 0.34369 0.18838 0.03400
C 	C 	0.34055 0.93757 0.44500 -0.12300
C 	C 	0.34157 0.10018 0.65510 -0.01400
H 	H 	0.32275 0.34406 0.71401 0.04600
C 	C 	0.29462 0.26740 0.92783 -0.01700
H 	H 	0.32455 0.06031 0.74493 0.03300
H 	H 	0.29408 0.15287 0.90469 0.05100
Zn	Zn	0.34997 0.85690 0.15234 1.19700
O 	O 	0.37349 0.91170 0.10413 -0.42300
H 	H 	0.34439 0.45358 0.16244 0.04300
C 	C 	0.34215 0.99079 0.46403 0.04800
C 	C 	0.33998 0.19225 0.69845 0.02300
H 	H 	0.32514 0.57528 0.97245 0.03000
C 	C 	0.31983 0.10411 0.81088 -0.02900
H 	H 	0.30354 0.24335 0.95086 0.03600
C 	C 	0.09626 0.53569 0.29892 -0.04400
Zn	Zn	0.36836 0.71516 0.40787 1.22300
H 	H 	0.37505 0.12090 0.48025 0.04200
H 	H 	0.39548 0.76415 0.30310 -0.02400
H 	H 	0.31799 0.10082 0.35266 0.03200
C 	C 	0.34837 0.05440 0.48720 -0.04800
H 	H 	0.37225 0.07611 0.63779 0.05000
C 	C 	0.33193 0.17007 0.83225 -0.07000
O 	O 	0.38513 0.82625 0.42768 -0.44500
C 	C 	0.37924 0.16492 0.67465 -0.08600
C 	C 	0.36272 0.32646 0.72810 -0.04800
H 	H 	0.30728 0.96476 0.52465 0.03400
C 	C 	0.39661 0.59039 0.45166 0.32200
Zn	Zn	0.38312 0.72613 0.11095 1.22300
C 	C 	0.33526 0.03097 0.51772 -0.04700
C 	C 	0.37920 0.25049 0.72273 0.02300
H 	H 	0.36540 0.08286 0.80275 0.04400
C 	C 	0.37749 0.57585 0.07948 0.33600
C 	C 	0.42238 0.89772 0.08423 0.33600
H 	H 	0.38467 0.43798 0.75596 0.03300
C 	C 	0.38372 0.60126 0.96662 -0.05600
C 	C 	0.42901 0.78594 0.28177 -0.02700
C 	C 	0.37183 0.08823 0.54134 0.06600
C 	C 	0.39783 0.37978 0.75173 -0.01000
H 	H 	0.00152 0.44289 0.78631 0.05300
O 	O 	0.01274 0.86396 0.67417 -0.38900
O 	O 	0.41925 0.63870 0.42600 -0.43400
C 	C 	0.44907 0.95455 0.05741 -0.15200
H 	H 	0.44032 0.91826 0.28824 0.01700
H 	H 	0.42660 0.65979 0.26898 0.03100
H 	H 	0.48866 0.12010 0.00696 0.05200
C 	C 	0.39943 0.60617 0.04775 -0.21000
C 	C 	0.00867 0.74086 0.37143 0.08500
C 	C 	0.40827 0.21299 0.84183 0.30200
O 	O 	0.43674 0.87764 0.35937 -0.45700
O 	O 	0.44316 0.82906 0.08739 -0.44800
O 	O 	0.41070 0.62279 0.10230 -0.42600
C 	C 	0.41319 0.62845 0.02047 0.07600
H 	H 	0.01543 0.50768 0.73235 0.06200
C 	C 	0.47110 0.00136 0.03457 0.09700
C 	C 	0.40636 0.13513 0.56054 -0.12500
H 	H 	0.42158 0.94123 0.61735 0.03300
C 	C 	0.41531 0.55682 0.94456 0.06700
O 	O 	0.42885 0.24762 0.59658 -0.46300
C 	C 	0.45458 0.87287 0.27345 -0.04100
C 	C 	0.44699 0.72715 0.26263 -0.03500
H 	H 	0.38169 0.89513 0.67270 0.03400
C 	C 	0.42798 0.64932 0.98739 -0.07900
O 	O 	0.42683 0.29101 0.85210 -0.39300
O 	O 	0.45695 0.88121 0.15699 -0.46400
C 	C 	0.44962 0.58715 0.47461 -0.12900
C 	C 	0.43187 0.22917 0.74100 -0.06200
C 	C 	0.49594 0.05724 0.00714 -0.07700
C 	C 	0.45551 0.21464 0.66584 0.30900
H 	H 	0.47535 0.16065 0.36865 0.03100
H 	H 	0.46749 0.14751 0.42700 0.03700
C 	C 	0.45001 0.35814 0.76985 -0.05200
H 	H 	0.44527 0.17090 0.73709 0.03900
O 	O 	0.47181 0.29709 0.66081 -0.41800
O 	O 	0.46710 0.76419 0.37997 -0.40200
C 	C 	0.45202 0.18941 0.58259 0.32400
O 	O 	0.46308 0.74835 0.14700 -0.40000
C 	C 	0.44834 0.51830 0.92976 -0.13400
O 	O 	0.45769 0.17239 0.83970 -0.45500
C 	C 	0.46155 0.93527 0.63417 -0.01800
C 	C 	0.43910 0.90964 0.66542 -0.04000
C 	C 	0.46737 0.28322 0.76435 -0.00400
C 	C 	0.49978 0.90144 0.24639 -0.04700
C 	C 	0.21891 0.68061 0.29020 -0.02200
H 	H 	0.26627 0.73657 0.28643 0.01500
C 	C 	0.48636 0.83923 0.36537 0.30700
C 	C 	0.49062 0.82303 0.15952 0.30800
C 	C 	0.49565 0.11093 0.41375 -0.03100
C 	C 	0.49238 0.58320 0.49456 0.06000
C 	C 	0.50017 0.11842 0.38085 -0.02300
H 	H 	0.47705 0.39951 0.78813 0.02900
Zn	Zn	0.49449 0.35548 0.61368 1.19400
C 	C 	0.14833 0.68584 0.28501 -0.03300
O 	O 	0.47819 0.42725 0.89256 -0.42900
C 	C 	0.49220 0.75532 0.23555 -0.04800
H 	H 	0.52081 0.96909 0.24051 0.03400
H 	H 	0.48397 0.68546 0.97990 0.04700
H 	H 	0.04845 0.47988 0.30243 0.04500
C 	C 	0.08722 0.61315 0.28887 -0.02000
H 	H 	0.14118 0.74599 0.27748 0.04200
O 	O 	0.49612 0.22920 0.90275 -0.43700
O 	O 	0.51670 0.46179 0.63721 -0.45900
C 	C 	0.52168 0.02979 0.98123 -0.03300
C 	C 	0.49630 0.47458 0.91739 0.35400
O 	O 	0.50106 0.17540 0.65555 -0.43800
C 	C 	0.52004 0.84288 0.22761 0.00000
H 	H 	0.52314 0.04972 0.45502 0.04200
H 	H 	0.50815 0.26688 0.77826 -0.04100
C 	C 	0.53204 0.07982 0.95217 0.05600
H 	H 	0.50781 0.70954 0.22142 0.04400
C 	C 	0.53652 0.07120 0.36368 -0.04300
C 	C 	0.52711 0.05584 0.42955 -0.02200
H 	H 	0.53781 0.68721 0.54119 0.04700
O 	O 	0.51606 0.17892 0.58887 -0.39800
H 	H 	0.53946 0.07687 0.33817 0.04200
C 	C 	0.53711 0.12388 0.92859 -0.12100
H 	H 	0.52923 0.96708 0.98129 0.02900
Zn	Zn	0.52358 0.33886 0.87865 1.22300
C 	C 	0.53833 0.17937 0.90189 0.32100
C 	C 	0.53563 0.95357 0.62463 -0.05200
H 	H 	0.55265 0.97382 0.60040 0.05000
C 	C 	0.55238 0.62855 0.54314 -0.07300
C 	C 	0.54053 0.57528 0.51926 -0.05700
C 	C 	0.49070 0.90246 0.68724 -0.02000
H 	H 	0.47319 0.88274 0.71144 0.02900
C 	C 	0.56294 0.00792 0.41247 -0.02600
C 	C 	0.56775 0.01546 0.37945 0.02200
C 	C 	0.56746 0.59919 0.57373 0.06800
O 	O 	0.55311 0.47376 0.93380 -0.48200
C 	C 	0.56572 0.84772 0.17128 -0.08000
C 	C 	0.56358 0.87827 0.35421 -0.07900
C 	C 	0.57453 0.56865 0.59910 -0.18500
C 	C 	0.57558 0.52434 0.62850 0.32800
H 	H 	0.55694 0.51776 0.52097 0.03100
Zn	Zn	0.56439 0.22933 0.83098 1.19700
C 	C 	0.57843 0.87367 0.20254 0.02300
H 	H 	0.56873 0.76394 0.33219 0.04200
H 	H 	0.57729 0.38686 0.82412 0.18000
H 	H 	0.58639 0.96455 0.42482 0.03500
O 	O 	0.58532 0.18526 0.87792 -0.41600
Zn	Zn	0.58282 0.23512 0.62653 1.22500
H 	H 	0.54511 0.72173 0.92678 0.03300
O 	O 	0.58800 0.35042 0.84107 -0.79400
H 	H 	0.59503 0.73909 0.68749 0.03500
H 	H 	0.57287 0.71084 0.87015 0.04700
O 	O 	0.59636 0.34838 0.60797 -0.78700
C 	C 	0.60322 0.96275 0.36130 0.01700
C 	C 	0.58789 0.94735 0.64653 0.01900
C 	C 	0.59887 0.82912 0.33738 -0.01800
C 	C 	0.56499 0.92140 0.67790 -0.05400
H 	H 	0.61619 0.84002 0.12590 0.04500
H 	H 	0.61195 0.31589 0.68261 0.18300
H 	H 	0.61340 0.35244 0.58561 0.17400
C 	C 	0.62552 0.86199 0.14970 -0.01400
H 	H 	0.61396 0.75070 0.74479 0.04300
H 	H 	0.05184 0.82081 0.18055 0.03500
O 	O 	0.62426 0.53769 0.87164 -0.42000
C 	C 	0.60010 0.72405 0.91894 -0.02500
H 	H 	0.03284 0.61684 0.28407 0.03500
C 	C 	0.04004 0.80565 0.15627 -0.03500
C 	C 	0.61598 0.71838 0.88693 -0.04700
H 	H 	0.63378 0.80797 0.26808 0.04800
O 	O 	0.63937 0.52575 0.63990 -0.43000
O 	O 	0.62914 0.37006 0.89884 -0.79300
H 	H 	0.04284 0.43720 0.22798 0.04100
H 	H 	0.64270 0.73680 0.96559 0.03300
C 	C 	0.64109 0.72367 0.69759 -0.01700
H 	H 	0.09601 0.67698 0.19748 0.04700
O 	O 	0.63951 0.31393 0.66273 -0.78900
H 	H 	0.60482 0.91717 0.69509 0.04400
C 	C 	0.64916 0.92280 0.21065 -0.02200
C 	C 	0.65524 0.73297 0.94079 -0.04800
H 	H 	0.64112 0.32976 0.91389 0.18200
O 	O 	0.64508 0.16475 0.61424 -0.42800
C 	C 	0.65199 0.73044 0.72992 -0.04100
Zn	Zn	0.65078 0.48387 0.91548 1.20000
H 	H 	0.65856 0.94484 0.23444 0.04300
C 	C 	0.00691 0.76565 0.09370 0.04900
O 	O 	0.66035 0.21985 0.81414 -0.46200
H 	H 	0.66110 0.02570 0.90917 0.03900
H 	H 	0.66122 0.57432 0.78388 0.03200
C 	C 	0.66719 0.97400 0.63709 -0.00300
C 	C 	0.67046 0.55583 0.84698 0.30000
Zn	Zn	0.67295 0.42343 0.63891 1.22400
C 	C 	0.67208 0.86419 0.32634 0.02300
C 	C 	0.67699 0.99760 0.35066 -0.03700
H 	H 	0.68303 0.69535 0.65308 0.05000
C 	C 	0.67578 0.12702 0.63492 0.31900
H 	H 	0.68274 0.85525 0.65227 0.03900
C 	C 	0.68160 0.63569 0.82837 -0.07800
C 	C 	0.68737 0.72182 0.87666 0.01200
C 	C 	0.68046 0.79062 0.27649 -0.04200
C 	C 	0.68396 0.63404 0.79544 -0.01700
C 	C 	0.69011 0.69790 0.67825 -0.02700
Zn	Zn	0.69250 0.39245 0.86086 1.22300
O 	O 	0.69333 0.15970 0.66255 -0.46100
C 	C 	0.69713 0.90626 0.15847 0.02000
H 	H 	0.69705 0.73226 0.23340 0.03600
C 	C 	0.70391 0.71509 0.84291 0.02200
C 	C 	0.70276 0.05743 0.62531 -0.05800
C 	C 	0.70854 0.08002 0.90287 -0.01500
H 	H 	0.70665 0.06330 0.35531 0.03800
C 	C 	0.70851 0.91766 0.64144 -0.00100
H 	H 	0.70861 0.05106 0.85381 0.04800
C 	C 	0.70850 0.94026 0.18873 -0.07600
C 	C 	0.70606 0.81259 0.30671 0.01700
O 	O 	0.71142 0.50645 0.84032 -0.43800
C 	C 	0.71115 0.70944 0.74309 0.01500
C 	C 	0.71103 0.94981 0.33236 -0.07600
C 	C 	0.71601 0.74757 0.25693 -0.01700
C 	C 	0.71846 0.70882 0.77744 0.02100
H 	H 	0.72069 0.12578 0.95001 0.03600
C 	C 	0.72665 0.73732 0.93060 -0.03000
C 	C 	0.72856 0.25989 0.82172 0.32200
Zn	Zn	0.73161 0.28502 0.66824 1.19800
H 	H 	0.73096 0.99481 0.10246 0.03700
H 	H 	0.99846 0.31916 0.74645 0.03900
C 	C 	0.98830 0.32006 0.69616 -0.06000
H 	H 	0.99008 0.02171 0.53828 0.03800
C 	C 	0.99805 0.75973 0.40287 -0.11800
C 	C 	0.95960 0.26216 0.11629 -0.09800
H 	H 	0.93009 0.16256 0.08291 0.02000
C 	C 	0.91000 0.20127 0.09881 -0.01600
H 	H 	0.99038 0.67861 0.72379 0.02500
H 	H 	0.94799 0.71036 0.44829 0.01800
C 	C 	0.95686 0.69556 0.42414 0.01800
C 	C 	0.98619 0.38010 0.15397 -0.00800
C 	C 	0.99471 0.37087 0.18677 -0.08900
O 	O 	0.99219 0.13438 0.75303 -0.44500
H 	H 	0.99487 0.01427 0.22090 0.18000
O 	O 	0.99184 0.04473 0.30862 -0.40500
C 	C 	0.93367 0.31275 0.13678 0.03500
Zn	Zn	0.98133 0.94006 0.78685 1.18400
C 	C 	0.96362 0.29339 0.72712 -0.02800
H 	H 	0.96300 0.30757 0.64711 0.03000
C 	C 	0.99816 0.72313 0.14905 -0.03200
H 	H 	0.97832 0.67473 0.16770 0.02900
C 	C 	0.94388 0.28681 0.67108 -0.01600
C 	C 	0.98193 0.70304 0.11779 -0.07400
H 	H 	0.88413 0.41644 0.81711 0.04500
O 	O 	0.75499 0.54828 0.90669 -0.47000
O 	O 	0.79031 0.43922 0.88733 -0.40400
O 	O 	0.74328 0.31299 0.84504 -0.44100
C 	C 	0.80495 0.50962 0.90299 0.33100
O 	O 	0.81641 0.38814 0.67474 -0.45200
O 	O 	0.74845 0.48045 0.67386 -0.41200
O 	O 	0.75561 0.43559 0.60849 -0.45100
O 	O 	0.76329 0.30098 0.61800 -0.41800
C 	C 	0.81203 0.46581 0.67658 0.30800
C 	C 	0.78059 0.37253 0.60082 0.33100
Zn	Zn	0.90052 0.90885 0.71838 1.22000
Zn	Zn	0.99092 0.98165 0.65867 1.18600
C 	C 	0.93510 0.10388 0.77271 0.30400
O 	O 	0.89630 0.90834 0.64290 -0.45000
O 	O 	0.81602 0.89636 0.68522 -0.38400
O 	O 	0.88800 0.84308 0.79131 -0.46900
O 	O 	0.90950 0.80191 0.70445 -0.44700
O 	O 	0.82429 0.88788 0.75278 -0.43200
H 	H 	0.92303 0.05571 0.69605 0.18800
O 	O 	0.95462 0.01851 0.69888 -0.79600
O 	O 	0.91279 0.02283 0.78161 -0.41600
C 	C 	0.83223 0.91075 0.65464 0.29400
C 	C 	0.82534 0.84084 0.77836 0.31700
C 	C 	0.96136 0.79551 0.68507 0.29400
Zn	Zn	0.92374 0.12898 0.30917 1.19100
C 	C 	0.78332 0.98350 0.19920 0.29000
Zn	Zn	0.87635 0.01317 0.25421 1.22500
Zn	Zn	0.93681 0.09572 0.18226 1.19100
H 	H 	0.88029 0.16775 0.25582 0.17800
C 	C 	0.97403 0.96623 0.29909 0.24900
O 	O 	0.91337 0.13556 0.26302 -0.79600
O 	O 	0.92263 0.21968 0.19409 -0.40400
O 	O 	0.83981 0.03448 0.32910 -0.45000
O 	O 	0.78098 0.99042 0.28365 -0.41600
O 	O 	0.96534 0.05394 0.22308 -0.80800
O 	O 	0.82517 0.05294 0.18373 -0.43700
O 	O 	0.91871 0.93725 0.28020 -0.43100
O 	O 	0.80790 0.94989 0.22331 -0.44700
C 	C 	0.97754 0.28478 0.20267 0.28900
C 	C 	0.78002 0.99375 0.31439 0.29300
C 	C 	0.85787 0.30180 0.13969 -0.05500
C 	C 	0.80849 0.24083 0.12215 -0.01300
C 	C 	0.83461 0.19128 0.10148 -0.04900
H 	H 	0.75007 0.23265 0.12431 0.03300
H 	H 	0.79653 0.14597 0.08724 0.03900
H 	H 	0.83740 0.34077 0.15537 0.04600
C 	C 	0.76006 0.91207 0.13662 0.00600
C 	C 	0.77017 0.96187 0.10857 -0.04400
C 	C 	0.83118 0.96933 0.08844 -0.05100
C 	C 	0.88194 0.92685 0.09618 -0.03900
C 	C 	0.87110 0.87578 0.12380 -0.04300
C 	C 	0.81010 0.86779 0.14388 -0.05600
H 	H 	0.83918 0.00813 0.06688 0.04200
H 	H 	0.80204 0.82792 0.16521 0.04000
H 	H 	0.90969 0.84217 0.12963 0.02900
H 	H 	0.92940 0.93310 0.08069 0.02400
H 	H 	0.99328 0.75038 0.06957 0.00700
H 	H 	0.94977 0.63906 0.11224 0.04600
C 	C 	0.76605 0.78868 0.31757 -0.04400
C 	C 	0.80078 0.74445 0.29808 -0.01700
C 	C 	0.77622 0.72464 0.26769 -0.03900
H 	H 	0.78615 0.80514 0.34088 0.04400
H 	H 	0.84696 0.72594 0.30645 0.03100
H 	H 	0.80373 0.69136 0.25251 0.03300
C 	C 	0.99241 0.84888 0.33280 -0.08800
H 	H 	0.93486 0.83094 0.34041 0.05000
C 	C 	0.97941 0.65699 0.36171 -0.09700
C 	C 	0.93841 0.59300 0.38308 0.00900
C 	C 	0.92592 0.61262 0.41410 -0.05900
H 	H 	0.91517 0.52853 0.37544 0.02100
H 	H 	0.89227 0.56358 0.43034 0.04300
H 	H 	0.98625 0.64211 0.33741 0.04400
C 	C 	0.82667 0.38158 0.57302 -0.13100
C 	C 	0.86609 0.39086 0.54977 0.07000
C 	C 	0.91439 0.40410 0.52228 -0.07000
C 	C 	0.91252 0.46162 0.49975 -0.04200
C 	C 	0.97110 0.48866 0.47613 0.01600
H 	H 	0.87048 0.49362 0.50067 0.03900
H 	H 	0.95637 0.37203 0.52128 0.04300
C 	C 	0.78483 0.94559 0.63498 -0.10800
C 	C 	0.81563 0.02198 0.61663 0.04100
C 	C 	0.77377 0.07726 0.61173 -0.03100
H 	H 	0.79905 0.13930 0.60019 0.05000
C 	C 	0.89198 0.04627 0.60352 -0.00000
C 	C 	0.94953 0.10092 0.61984 -0.12200
C 	C 	0.97874 0.04348 0.56109 -0.06200
C 	C 	0.90666 0.01864 0.57387 -0.01600
H 	H 	0.93880 0.12254 0.64269 0.02100
H 	H 	0.86232 0.97805 0.56076 0.02400
C 	C 	0.87980 0.53835 0.67501 -0.07700
C 	C 	0.91730 0.56912 0.70251 0.01400
C 	C 	0.96372 0.65361 0.70233 -0.01700
C 	C 	0.96294 0.71022 0.67713 -0.08500
C 	C 	0.93404 0.67623 0.64833 0.01700
C 	C 	0.89727 0.58871 0.64715 -0.02300
H 	H 	0.87349 0.56268 0.62533 0.04700
C 	C 	0.93034 0.73274 0.62111 0.02000
C 	C 	0.99513 0.78199 0.60500 -0.07400
C 	C 	0.99109 0.82732 0.57711 -0.05100
C 	C 	0.92262 0.82323 0.56515 -0.03100
C 	C 	0.85796 0.77664 0.58165 -0.01900
C 	C 	0.86157 0.73120 0.60949 -0.04100
C 	C 	0.90467 0.51647 0.73213 0.02200
C 	C 	0.83762 0.49939 0.74945 -0.05800
C 	C 	0.83024 0.46285 0.77992 -0.01700
C 	C 	0.88967 0.44379 0.79337 -0.03600
C 	C 	0.95588 0.45876 0.77601 -0.03900
C 	C 	0.96343 0.49475 0.74542 -0.07200
H 	H 	0.77846 0.44940 0.79311 0.02100
H 	H 	0.79180 0.51575 0.73955 0.04500
H 	H 	0.81111 0.69334 0.62161 0.04700
H 	H 	0.80498 0.77484 0.57265 0.03500
H 	H 	0.91969 0.85631 0.54311 0.02600
C 	C 	0.87052 0.53648 0.92060 -0.14400
C 	C 	0.92295 0.55983 0.93699 0.06800
C 	C 	0.98284 0.58747 0.95806 -0.08400
C 	C 	0.97771 0.63640 0.98209 -0.08100
H 	H 	0.93149 0.66163 0.98423 0.04300
C 	C 	0.89616 0.16060 0.78581 -0.07600
C 	C 	0.86571 0.21011 0.76587 0.01700
C 	C 	0.80995 0.24119 0.77777 -0.01400
H 	H 	0.78486 0.27697 0.76229 0.02000
C 	C 	0.78761 0.22786 0.80969 -0.08800
C 	C 	0.82189 0.18376 0.83003 0.02900
C 	C 	0.87676 0.15186 0.81809 -0.02100
H 	H 	0.90129 0.11555 0.83361 0.03800
C 	C 	0.79666 0.16516 0.86337 0.01500
C 	C 	0.73560 0.09426 0.87164 -0.04200
C 	C 	0.74219 0.13642 0.92591 -0.03800
C 	C 	0.80349 0.20665 0.91782 -0.02300
C 	C 	0.83105 0.22084 0.88664 -0.04000
C 	C 	0.89409 0.23327 0.73309 0.01000
C 	C 	0.84986 0.19962 0.70782 -0.06900
C 	C 	0.87486 0.22650 0.67690 -0.05900
H 	H 	0.84082 0.20072 0.65743 0.02300
H 	H 	0.79615 0.15315 0.71215 0.03300
H 	H 	0.87793 0.27599 0.88044 0.04700
H 	H 	0.82938 0.25035 0.93566 0.03000
C 	C 	0.75632 0.78355 0.79263 -0.08200
C 	C 	0.74223 0.78866 0.82494 -0.01600
H 	H 	0.76599 0.84818 0.83648 0.03300
C 	C 	0.74295 0.73245 0.89856 -0.05200
C 	C 	0.75926 0.68195 0.72374 -0.04600
C 	C 	0.74891 0.67670 0.69135 -0.00500
H 	H 	0.78654 0.65649 0.67644 0.05200
H 	H 	0.80509 0.66576 0.73373 0.05100
H 	H 	0.79834 0.73576 0.89081 0.04700
H 	H 	0.76932 0.74439 0.94753 0.02800
