data_crystal

_cell_length_a 18.51909
_cell_length_b 18.83333
_cell_length_c 33.53714
_cell_angle_alpha 95.41128
_cell_angle_beta  95.41220
_cell_angle_gamma 126.42999

_symmetry_space_group_name_	'P 1'
_symmetry_space_group_name_H-M	'P 1'

loop_
_symmetry_equiv_pos_as_xyz
  x,y,z

loop_
_atom_site_label
_atom_site_type_symbol
_atom_site_fract_x
_atom_site_fract_y
_atom_site_fract_z
_atom_site_charge
C 	C 	0.91356 0.00256 0.96657 0.14300
N 	N 	0.00395 0.05359 0.96519 -0.10500
C 	C 	0.04860 0.01700 0.96631 0.16400
N 	N 	0.00275 0.92895 0.96821 -0.09500
C 	C 	0.91203 0.87691 0.96865 0.17300
N 	N 	0.86714 0.91373 0.96815 -0.09800
C 	C 	0.93878 0.02468 0.48674 0.15100
N 	N 	0.03096 0.07379 0.49052 -0.10300
C 	C 	0.07109 0.03259 0.49327 0.16900
N 	N 	0.01935 0.94308 0.49319 -0.09300
C 	C 	0.92719 0.89382 0.48848 0.17500
N 	N 	0.88697 0.93454 0.48466 -0.10000
Cu	Cu	0.76492 0.34959 0.95964 0.93300
Cu	Cu	0.76160 0.29189 0.04919 0.89200
Cu	Cu	0.61642 0.29728 0.01008 0.90500
Cu	Cu	0.59013 0.33398 0.92691 0.91000
C 	C 	0.69582 0.30823 0.87322 0.26200
O 	O 	0.81486 0.47897 0.95667 -0.33400
C 	C 	0.67593 0.33694 0.10019 0.26500
O 	O 	0.62208 0.27132 0.95442 -0.63700
O 	O 	0.75187 0.36648 0.01704 -0.63800
O 	O 	0.82947 0.29431 0.96648 -0.34200
O 	O 	0.73323 0.20190 0.00599 -0.41700
O 	O 	0.65369 0.34394 0.88052 -0.34400
O 	O 	0.48490 0.22254 0.99947 -0.35800
C 	C 	0.43466 0.22567 0.97010 0.33700
C 	C 	0.77038 0.51021 0.96711 0.32400
O 	O 	0.68588 0.45457 0.97224 -0.36600
O 	O 	0.47169 0.28345 0.94518 -0.35900
O 	O 	0.75416 0.31509 0.90234 -0.32200
C 	C 	0.79194 0.22074 0.98201 0.33500
O 	O 	0.60902 0.30484 0.06876 -0.34900
O 	O 	0.75343 0.35232 0.09519 -0.38300
H 	H 	0.58550 0.20643 0.94284 0.18500
H 	H 	0.78644 0.42966 0.03105 0.20000
Cu	Cu	0.61384 0.20097 0.50875 0.93300
Cu	Cu	0.67661 0.21315 0.42010 0.89200
Cu	Cu	0.63499 0.33293 0.45643 0.90600
Cu	Cu	0.63860 0.37751 0.54523 0.91400
C 	C 	0.65966 0.26722 0.59523 0.26400
O 	O 	0.48640 0.16012 0.51496 -0.33700
C 	C 	0.61459 0.28525 0.36809 0.25400
O 	O 	0.68884 0.33990 0.51097 -0.63300
O 	O 	0.59007 0.20616 0.45100 -0.63700
O 	O 	0.66482 0.13365 0.50018 -0.34100
O 	O 	0.76334 0.23279 0.46340 -0.41100
O 	O 	0.62044 0.30556 0.58816 -0.34900
O 	O 	0.66816 0.45386 0.46322 -0.34600
C 	C 	0.71811 0.51791 0.49581 0.33300
C 	C 	0.45467 0.20411 0.50423 0.31800
O 	O 	0.51131 0.28959 0.50165 -0.37000
O 	O 	0.71630 0.49916 0.53271 -0.36100
O 	O 	0.65813 0.21521 0.56545 -0.32500
C 	C 	0.73949 0.16968 0.48474 0.33600
O 	O 	0.60054 0.32451 0.39787 -0.32800
O 	O 	0.61470 0.21651 0.37232 -0.37700
H 	H 	0.75639 0.37724 0.51626 0.18000
H 	H 	0.52549 0.16192 0.43710 0.19900
C 	C 	0.62962 0.24690 0.69457 0.09800
C 	C 	0.58856 0.20536 0.72684 -0.07300
C 	C 	0.63378 0.25578 0.76637 0.02800
C 	C 	0.72179 0.33494 0.77353 0.09700
C 	C 	0.76802 0.36950 0.74127 -0.07200
C 	C 	0.71621 0.32763 0.70167 0.02500
N 	N 	0.60728 0.20377 0.65607 -0.15000
C 	C 	0.67781 0.25924 0.63742 0.03500
C 	C 	0.74934 0.33470 0.66596 -0.04100
N 	N 	0.76310 0.35271 0.81216 -0.15000
C 	C 	0.69994 0.28718 0.83067 0.03800
C 	C 	0.62014 0.22286 0.80214 -0.04300
H 	H 	0.52642 0.13695 0.72153 0.07900
H 	H 	0.84052 0.42422 0.74668 0.07900
H 	H 	0.80443 0.39747 0.65847 0.06300
H 	H 	0.55364 0.17489 0.80955 0.06700
H 	H 	0.54022 0.15315 0.64091 0.12100
H 	H 	0.82015 0.41638 0.82738 0.12200
C 	C 	0.69995 0.34799 0.20541 0.09100
C 	C 	0.73723 0.38841 0.24673 -0.07400
C 	C 	0.68661 0.33864 0.27525 0.02400
C 	C 	0.59806 0.26098 0.26340 0.09000
C 	C 	0.55557 0.22846 0.22215 -0.07200
C 	C 	0.61151 0.26961 0.19351 0.01900
N 	N 	0.72737 0.39251 0.17438 -0.15000
C 	C 	0.65791 0.34105 0.14180 0.02600
C 	C 	0.58261 0.26631 0.15347 -0.03700
N 	N 	0.55323 0.24354 0.29468 -0.14900
C 	C 	0.61443 0.30793 0.32746 0.03300
C 	C 	0.69681 0.37145 0.31554 -0.04400
H 	H 	0.80053 0.45588 0.25603 0.07800
H 	H 	0.48269 0.17598 0.21294 0.07700
H 	H 	0.52614 0.20575 0.13278 0.06800
H 	H 	0.76206 0.41805 0.33606 0.06600
H 	H 	0.79554 0.44240 0.17280 0.11300
H 	H 	0.49424 0.18032 0.29632 0.11400
C 	C 	0.81225 0.76141 0.51739 0.08100
C 	C 	0.87117 0.79696 0.48909 -0.03800
C 	C 	0.87567 0.73937 0.46120 0.08000
C 	C 	0.82781 0.64834 0.46414 0.12000
C 	C 	0.76616 0.61235 0.49138 -0.11000
C 	C 	0.75411 0.66832 0.51590 0.12000
Br	Br	0.65272 0.61698 0.54433 -0.15700
Br	Br	0.81675 0.84036 0.56043 -0.12000
Br	Br	0.85099 0.57486 0.43269 -0.20800
Br	Br	0.94255 0.78364 0.41747 -0.13500
C 	C 	0.84159 0.05647 0.44917 0.07700
C 	C 	0.89480 0.06887 0.48579 -0.03700
C 	C 	0.89588 0.11324 0.52239 0.07700
C 	C 	0.84373 0.14517 0.52225 0.12100
C 	C 	0.78833 0.13025 0.48578 -0.12000
C 	C 	0.78592 0.08419 0.44939 0.11900
Br	Br	0.70287 0.05514 0.40035 -0.24400
Br	Br	0.84636 0.00271 0.39856 -0.15100
Br	Br	0.84938 0.21072 0.57179 -0.17000
Br	Br	0.96679 0.12793 0.57282 -0.14300
C 	C 	0.20827 0.09930 0.46080 0.08100
C 	C 	0.17047 0.08454 0.49641 -0.03800
C 	C 	0.22634 0.11099 0.53463 0.08000
C 	C 	0.31927 0.14900 0.53717 0.11700
C 	C 	0.35672 0.16171 0.50142 -0.10900
C 	C 	0.30151 0.13831 0.46331 0.11600
Br	Br	0.35340 0.15866 0.41454 -0.19000
Br	Br	0.13164 0.06432 0.40853 -0.12800
Br	Br	0.39558 0.18505 0.58965 -0.17800
Br	Br	0.17521 0.09520 0.58353 -0.13300
C 	C 	0.83729 0.72251 0.93083 0.08000
C 	C 	0.86244 0.78008 0.96797 -0.03600
C 	C 	0.85779 0.74900 0.00492 0.07700
C 	C 	0.83190 0.66186 0.00484 0.11400
C 	C 	0.81038 0.60551 0.96774 -0.10800
C 	C 	0.81381 0.63635 0.93072 0.11400
Br	Br	0.78697 0.56094 0.87986 -0.18000
Br	Br	0.83521 0.76220 0.88006 -0.13000
Br	Br	0.82792 0.62034 0.05560 -0.18700
Br	Br	0.88844 0.82665 0.05566 -0.12500
C 	C 	0.88229 0.09324 0.00928 0.07200
C 	C 	0.86916 0.04615 0.97083 -0.02800
C 	C 	0.82941 0.05555 0.93578 0.05600
C 	C 	0.80558 0.11421 0.93914 0.12300
C 	C 	0.82471 0.16600 0.97740 -0.11800
C 	C 	0.86516 0.15679 0.01232 0.11800
Br	Br	0.90258 0.23532 0.06379 -0.24000
Br	Br	0.92222 0.06922 0.05788 -0.14400
Br	Br	0.74491 0.12191 0.89165 -0.18100
Br	Br	0.80832 0.98845 0.88325 -0.10200
C 	C 	0.27413 0.10868 0.93414 0.12100
C 	C 	0.33603 0.17332 0.96898 -0.11200
C 	C 	0.30333 0.18902 0.00237 0.11800
C 	C 	0.20894 0.13655 0.00179 0.07400
C 	C 	0.14708 0.07316 0.96664 -0.03200
C 	C 	0.17972 0.06075 0.93248 0.05900
Br	Br	0.09501 0.97995 0.88304 -0.08700
Br	Br	0.31872 0.08330 0.88943 -0.20000
Br	Br	0.16444 0.14845 0.04978 -0.12700
Br	Br	0.38759 0.28534 0.04797 -0.15900
