data_crystal

_cell_length_a 26.00658
_cell_length_b 26.58068
_cell_length_c 45.24150
_cell_angle_alpha 95.47869
_cell_angle_beta  95.47776
_cell_angle_gamma 125.86540

_symmetry_space_group_name_	'P 1'
_symmetry_space_group_name_H-M	'P 1'

loop_
_symmetry_equiv_pos_as_xyz
  x,y,z

loop_
_atom_site_label
_atom_site_type_symbol
_atom_site_fract_x
_atom_site_fract_y
_atom_site_fract_z
_atom_site_charge
C 	C 	0.95881 0.01045 0.99970 0.13800
C 	C 	0.05102 0.01599 0.99436 0.14200
N 	N 	0.99727 0.04033 0.46869 -0.12800
H 	H 	0.72720 0.06674 0.44993 0.07100
C 	C 	0.84142 0.06998 0.48649 0.13000
C 	C 	0.86601 0.03507 0.48694 -0.06500
C 	C 	0.89907 0.03433 0.46435 -0.05700
O 	O 	0.81195 0.07278 0.50950 -0.27800
H 	H 	0.76555 0.03691 0.50281 0.14600
C 	C 	0.18874 0.06913 0.45032 0.13500
C 	C 	0.12210 0.03439 0.44920 -0.07100
C 	C 	0.09805 0.05131 0.47141 -0.05300
O 	O 	0.21164 0.05230 0.42836 -0.27900
H 	H 	0.21546 0.07699 0.41248 0.14700
C 	C 	0.86117 0.06348 0.02561 0.13600
C 	C 	0.89353 0.03606 0.02463 -0.06600
C 	C 	0.92604 0.04051 0.00083 -0.05700
O 	O 	0.82911 0.05835 0.04886 -0.27600
H 	H 	0.73080 0.02958 0.98939 0.07900
H 	H 	0.86118 0.09622 0.06464 0.15400
H 	H 	0.14444 0.02673 0.03238 0.07100
H 	H 	0.28227 0.01927 0.97278 0.15700
H 	H 	0.90245 0.02871 0.40223 0.14700
N 	N 	0.02134 0.04421 0.99604 -0.12500
C 	C 	0.76219 0.11756 0.45680 -0.11700
C 	C 	0.82827 0.14514 0.46378 0.01000
C 	C 	0.74092 0.15528 0.45926 0.19400
C 	C 	0.84993 0.10455 0.46329 -0.00700
O 	O 	0.67602 0.12746 0.45307 -0.29200
C 	C 	0.90515 0.06675 0.44048 0.16400
C 	C 	0.88085 0.10187 0.44010 -0.09400
O 	O 	0.93651 0.06568 0.41798 -0.27600
H 	H 	0.88684 0.12774 0.42199 0.07700
H 	H 	0.66618 0.12689 0.43126 0.14600
C 	C 	0.20792 0.13737 0.49643 -0.09200
C 	C 	0.23193 0.12041 0.47420 -0.00800
C 	C 	0.14122 0.10299 0.49514 0.16300
C 	C 	0.30230 0.15723 0.47559 0.01000
O 	O 	0.11833 0.12013 0.51698 -0.27500
C 	C 	0.40000 0.16368 0.48250 0.19300
C 	C 	0.33380 0.13022 0.48250 -0.11200
O 	O 	0.42971 0.13587 0.48843 -0.28500
H 	H 	0.30672 0.08286 0.48742 0.08100
H 	H 	0.11473 0.09588 0.53304 0.15000
H 	H 	0.42585 0.11372 0.46847 0.14600
C 	C 	0.89305 0.09948 0.97868 -0.09700
C 	C 	0.86035 0.09477 0.00240 -0.00800
C 	C 	0.92563 0.07232 0.97774 0.16200
C 	C 	0.82365 0.12099 0.00234 0.00900
O 	O 	0.95703 0.07692 0.95427 -0.27300
C 	C 	0.72127 0.10491 0.99075 0.18900
C 	C 	0.75613 0.08030 0.99408 -0.11200
O 	O 	0.65536 0.06452 0.98181 -0.28200
H 	H 	0.92454 0.03905 0.93857 0.14700
H 	H 	0.64751 0.05732 0.95940 0.13400
C 	C 	0.31596 0.14216 0.98282 0.01000
C 	C 	0.33424 0.10587 0.96994 0.12200
C 	C 	0.39968 0.13328 0.97065 -0.03100
C 	C 	0.24855 0.11172 0.98625 -0.00600
O 	O 	0.28819 0.04374 0.95651 -0.27400
H 	H 	0.41352 0.10501 0.96085 0.05500
C 	C 	0.22603 0.08094 0.01074 0.13300
C 	C 	0.16185 0.05150 0.01378 -0.06500
C 	C 	0.11988 0.05313 0.99271 -0.05400
C 	C 	0.14286 0.08539 0.96862 0.16300
C 	C 	0.20722 0.11487 0.96557 -0.09500
O 	O 	0.26626 0.07801 0.03121 -0.27800
O 	O 	0.10256 0.08809 0.94806 -0.27200
H 	H 	0.22477 0.13952 0.94696 0.07500
H 	H 	0.28695 0.11598 0.04724 0.14700
H 	H 	0.08267 0.05056 0.93185 0.15200
H 	H 	0.24100 0.17708 0.51476 0.07800
C 	C 	0.33761 0.21861 0.46916 0.11400
H 	H 	0.29294 0.23376 0.44023 0.14600
H 	H 	0.89252 0.12354 0.96075 0.06500
C 	C 	0.75404 0.17084 0.99614 -0.12900
O 	O 	0.66413 0.17515 0.99795 -0.36000
H 	H 	0.61864 0.17214 0.09123 0.04500
H 	H 	0.63611 0.17519 0.14622 0.05500
H 	H 	0.69731 0.22444 0.31607 0.05300
C 	C 	0.87348 0.21129 0.47218 0.11700
C 	C 	0.78595 0.22122 0.46895 -0.12900
O 	O 	0.30737 0.24562 0.46250 -0.27000
C 	C 	0.85623 0.18675 0.00864 0.11200
O 	O 	0.53613 0.19182 0.99764 -0.36100
H 	H 	0.69538 0.24146 0.37055 0.03400
C 	C 	0.43563 0.22552 0.47638 -0.12200
C 	C 	0.44717 0.19665 0.98447 -0.12500
O 	O 	0.72265 0.24253 0.49541 -0.42700
C 	C 	0.36315 0.20609 0.99552 -0.11700
C 	C 	0.71918 0.19746 0.98903 0.30900
C 	C 	0.40408 0.25276 0.46993 -0.03200
H 	H 	0.58438 0.21578 0.94548 0.17500
H 	H 	0.61231 0.24905 0.45227 0.16900
C 	C 	0.82137 0.21141 0.00565 -0.03200
C 	C 	0.85225 0.24910 0.47440 -0.03400
O 	O 	0.93838 0.23904 0.47830 -0.26900
H 	H 	0.94864 0.24098 0.50026 0.15000
C 	C 	0.76364 0.25969 0.47689 0.30900
C 	C 	0.51595 0.22342 0.98769 0.30500
O 	O 	0.92200 0.22692 0.01815 -0.27200
C 	C 	0.42858 0.23326 0.99679 0.19700
H 	H 	0.34920 0.23413 0.00550 0.07600
C 	C 	0.64457 0.21693 0.10674 0.02300
C 	C 	0.65434 0.21862 0.13791 -0.06900
H 	H 	0.89359 0.01159 0.04246 0.06600
O 	O 	0.54227 0.25860 0.49692 -0.36900
Cu	Cu	0.62972 0.22519 0.00025 0.92900
C 	C 	0.50531 0.26128 0.47592 0.31200
Cu	Cu	0.68528 0.22956 0.93749 0.87200
O 	O 	0.65120 0.24027 0.90138 -0.41600
O 	O 	0.62802 0.23801 0.95785 -0.63900
O 	O 	0.64541 0.22927 0.04307 -0.35400
H 	H 	0.94013 0.23783 0.99947 0.14500
O 	O 	0.74095 0.24044 0.97191 -0.44200
C 	C 	0.02805 0.01322 0.47048 0.14700
H 	H 	0.57297 0.20692 0.84891 0.03200
H 	H 	0.86111 0.01021 0.50537 0.06400
C 	C 	0.93233 0.00480 0.46718 0.14200
H 	H 	0.56824 0.22305 0.79621 0.05200
C 	C 	0.60554 0.25390 0.84405 0.01900
C 	C 	0.60264 0.26307 0.81419 -0.07100
C 	C 	0.69810 0.26374 0.32592 -0.06900
H 	H 	0.84683 0.26216 0.01020 0.05400
C 	C 	0.64786 0.27009 0.06349 0.28700
C 	C 	0.69712 0.27346 0.35679 0.01900
C 	C 	0.66565 0.27258 0.09579 -0.08300
H 	H 	0.56991 0.27127 0.59193 0.04300
C 	C 	0.68549 0.27590 0.15824 0.04700
C 	C 	0.68820 0.27674 0.19027 -0.02600
H 	H 	0.55917 0.27688 0.64551 0.05400
O 	O 	0.55817 0.28226 0.98507 -0.38000
C 	C 	0.69155 0.27980 0.21723 0.00300
C 	C 	0.69487 0.28578 0.24884 0.00300
H 	H 	0.77503 0.41849 0.61813 0.03300
H 	H 	0.76403 0.42338 0.67169 0.05200
N 	N 	0.92651 0.94881 0.00231 -0.14100
C 	C 	0.95632 0.92068 0.00072 0.14200
N 	N 	0.01821 0.95418 0.99635 -0.12900
N 	N 	0.89819 0.94196 0.46775 -0.14100
C 	C 	0.92904 0.91472 0.46923 0.14700
N 	N 	0.99385 0.95046 0.47055 -0.13500
Cu	Cu	0.67956 0.33230 0.96437 0.89900
Cu	Cu	0.63770 0.34577 0.02233 0.89900
C 	C 	0.66048 0.29371 0.89823 0.29000
O 	O 	0.68781 0.32454 0.00584 -0.64000
O 	O 	0.62135 0.29813 0.05613 -0.38000
O 	O 	0.73346 0.42369 0.97384 -0.38300
C 	C 	0.72691 0.45697 0.99468 0.31600
O 	O 	0.67896 0.42934 0.00979 -0.38600
O 	O 	0.68572 0.34038 0.92167 -0.38600
H 	H 	0.73295 0.34878 0.01680 0.16700
Cu	Cu	0.73924 0.34982 0.46500 0.92900
Cu	Cu	0.73968 0.30181 0.52913 0.87400
Cu	Cu	0.63567 0.30952 0.50372 0.89900
Cu	Cu	0.61537 0.34121 0.44416 0.89500
C 	C 	0.69252 0.33222 0.40175 0.29000
O 	O 	0.77291 0.44132 0.46550 -0.34800
C 	C 	0.68160 0.33364 0.56988 0.28900
O 	O 	0.63836 0.29426 0.46181 -0.64000
O 	O 	0.73130 0.35709 0.50794 -0.64000
O 	O 	0.78802 0.31323 0.46726 -0.37000
O 	O 	0.66272 0.35662 0.40978 -0.38400
C 	C 	0.74179 0.46245 0.47568 0.30300
O 	O 	0.68249 0.42201 0.47980 -0.39600
O 	O 	0.52985 0.30068 0.45674 -0.39500
O 	O 	0.73004 0.32898 0.42210 -0.35800
O 	O 	0.63278 0.31109 0.54730 -0.37900
O 	O 	0.73456 0.34054 0.56531 -0.41500
H 	H 	0.75615 0.40086 0.51941 0.17600
C 	C 	0.65152 0.30495 0.86745 -0.08900
C 	C 	0.64548 0.32327 0.80747 0.04700
C 	C 	0.68930 0.37487 0.83090 -0.07000
C 	C 	0.69227 0.36585 0.86081 0.01900
C 	C 	0.64822 0.33098 0.77642 -0.02800
C 	C 	0.65003 0.33680 0.75035 0.00200
C 	C 	0.65299 0.34252 0.71973 0.00200
C 	C 	0.65624 0.34645 0.69354 -0.02700
C 	C 	0.66100 0.34995 0.66222 0.04600
C 	C 	0.72151 0.39069 0.65430 -0.07100
C 	C 	0.72777 0.38770 0.62394 0.01900
C 	C 	0.67346 0.34368 0.60125 -0.08700
C 	C 	0.61229 0.30525 0.60916 0.01800
C 	C 	0.60619 0.30830 0.63955 -0.06900
H 	H 	0.72232 0.42163 0.82588 0.05400
H 	H 	0.72778 0.40576 0.87861 0.03900
C 	C 	0.70916 0.33183 0.14728 -0.06900
C 	C 	0.69923 0.33020 0.11619 0.01800
C 	C 	0.69719 0.29301 0.27579 -0.02700
C 	C 	0.69928 0.30429 0.30783 0.04700
C 	C 	0.69690 0.32357 0.36964 -0.08400
C 	C 	0.69926 0.36468 0.35150 0.02100
C 	C 	0.70044 0.35502 0.32077 -0.07000
H 	H 	0.73367 0.37634 0.16286 0.05300
H 	H 	0.71637 0.37353 0.10799 0.02600
H 	H 	0.70018 0.40413 0.36120 0.03800
H 	H 	0.70167 0.38672 0.30694 0.05300
C 	C 	0.87018 0.74601 0.44814 -0.10100
C 	C 	0.84103 0.72069 0.47267 -0.00600
C 	C 	0.83544 0.75763 0.49464 0.13700
C 	C 	0.86122 0.82030 0.49254 -0.06500
C 	C 	0.89240 0.84632 0.46855 -0.06000
C 	C 	0.89543 0.80839 0.44590 0.16500
C 	C 	0.81521 0.65497 0.47490 0.01000
O 	O 	0.80726 0.73346 0.51882 -0.27600
H 	H 	0.85883 0.84924 0.51009 0.06600
O 	O 	0.92506 0.83296 0.42210 -0.28100
H 	H 	0.87359 0.71739 0.43088 0.07200
C 	C 	0.74920 0.60568 0.46466 0.11500
C 	C 	0.72549 0.54317 0.46551 -0.03200
C 	C 	0.76744 0.52905 0.47611 -0.12300
C 	C 	0.83350 0.57853 0.48668 0.19300
C 	C 	0.85717 0.64119 0.48585 -0.11300
O 	O 	0.70763 0.61860 0.45410 -0.27600
H 	H 	0.67458 0.50549 0.45733 0.04800
O 	O 	0.87507 0.56580 0.49750 -0.28600
H 	H 	0.90816 0.67902 0.49365 0.07900
H 	H 	0.89038 0.82433 0.40624 0.14900
H 	H 	0.70744 0.61665 0.43209 0.14400
H 	H 	0.87478 0.56759 0.51948 0.14500
H 	H 	0.76095 0.71455 0.51238 0.15700
H 	H 	0.88724 0.29984 0.48160 0.05400
H 	H 	0.08907 0.99448 0.43094 0.07900
H 	H 	0.43107 0.30045 0.46544 0.06000
C 	C 	0.92300 0.76847 0.01721 -0.10000
C 	C 	0.85945 0.72405 0.00145 -0.00800
C 	C 	0.82578 0.74461 0.98757 0.14000
C 	C 	0.85684 0.80922 0.98840 -0.06600
C 	C 	0.92138 0.85364 0.00316 -0.05800
C 	C 	0.95364 0.83306 0.01859 0.16100
C 	C 	0.82808 0.65607 0.99988 0.01300
O 	O 	0.76205 0.70178 0.97396 -0.27500
H 	H 	0.83121 0.82462 0.97695 0.06900
O 	O 	0.01544 0.87600 0.03466 -0.27600
H 	H 	0.94867 0.75287 0.02842 0.07100
C 	C 	0.81568 0.61757 0.97252 0.11700
C 	C 	0.78388 0.55271 0.97104 -0.03100
C 	C 	0.76589 0.52611 0.99700 -0.12200
C 	C 	0.78170 0.56550 0.02477 0.19600
C 	C 	0.81236 0.63010 0.02603 -0.11800
O 	O 	0.83335 0.64303 0.94705 -0.27700
H 	H 	0.77226 0.52298 0.94960 0.06300
O 	O 	0.76951 0.54139 0.05087 -0.30000
H 	H 	0.82374 0.66002 0.04737 0.07600
H 	H 	0.01048 0.88626 0.05537 0.15000
H 	H 	0.87780 0.65598 0.94740 0.14800
H 	H 	0.72740 0.53180 0.05358 0.15400
H 	H 	0.76246 0.69158 0.95235 0.16000
O 	O 	0.47433 0.29523 0.01056 -0.29700
H 	H 	0.48422 0.29413 0.03211 0.14100
