data_crystal

_cell_length_a 18.47807
_cell_length_b 18.98651
_cell_length_c 39.83246
_cell_angle_alpha 95.41852
_cell_angle_beta  95.41827
_cell_angle_gamma 126.41982

_symmetry_space_group_name_	'P 1'
_symmetry_space_group_name_H-M	'P 1'

loop_
_symmetry_equiv_pos_as_xyz
  x,y,z

loop_
_atom_site_label
_atom_site_type_symbol
_atom_site_fract_x
_atom_site_fract_y
_atom_site_fract_z
_atom_site_charge
C 	C 	0.88262 0.98064 0.96564 0.05800
C 	C 	0.83484 0.88863 0.96533 -0.06300
C 	C 	0.88177 0.85119 0.96424 0.06200
C 	C 	0.97566 0.90585 0.96372 -0.06200
C 	C 	0.02286 0.99693 0.96406 0.05700
C 	C 	0.97618 0.03393 0.96444 -0.06100
H 	H 	0.76257 0.84709 0.96646 0.07300
H 	H 	0.01239 0.87770 0.96371 0.07100
H 	H 	0.01330 0.10481 0.96503 0.07200
C 	C 	0.95004 0.03314 0.49765 0.06700
C 	C 	0.04427 0.08771 0.49730 -0.07200
C 	C 	0.09146 0.05098 0.49735 0.06700
C 	C 	0.04441 0.96007 0.49745 -0.07700
C 	C 	0.95087 0.90602 0.49818 0.06800
C 	C 	0.90382 0.94260 0.49861 -0.07100
H 	H 	0.08041 0.15797 0.49679 0.07500
H 	H 	0.08087 0.93164 0.49737 0.07300
H 	H 	0.83111 0.90046 0.49908 0.07700
Cu	Cu	0.74162 0.33187 0.96524 0.93000
Cu	Cu	0.73634 0.27316 0.04055 0.87700
Cu	Cu	0.59515 0.28599 0.00785 0.90300
Cu	Cu	0.57062 0.32259 0.93786 0.90400
C 	C 	0.68384 0.30699 0.89259 0.29500
O 	O 	0.79290 0.46128 0.96308 -0.34900
C 	C 	0.65780 0.32872 0.08353 0.29400
O 	O 	0.59914 0.25762 0.96081 -0.63700
O 	O 	0.72991 0.34912 0.01356 -0.64100
O 	O 	0.80251 0.27276 0.97041 -0.34900
O 	O 	0.70632 0.18279 0.00427 -0.42700
O 	O 	0.64017 0.34038 0.89981 -0.37400
O 	O 	0.46337 0.21711 0.99964 -0.37200
C 	C 	0.41258 0.21299 0.97269 0.31200
C 	C 	0.75016 0.49364 0.97304 0.29900
O 	O 	0.66544 0.43886 0.97741 -0.37800
O 	O 	0.44913 0.26872 0.95111 -0.36900
O 	O 	0.72878 0.29687 0.91704 -0.34400
C 	C 	0.76377 0.19970 0.98359 0.30600
O 	O 	0.58984 0.29576 0.05727 -0.37400
O 	O 	0.73166 0.33547 0.07965 -0.40600
H 	H 	0.56068 0.19305 0.95118 0.18500
H 	H 	0.76676 0.41201 0.02543 0.19100
Cu	Cu	0.62479 0.20782 0.50768 0.93100
Cu	Cu	0.67139 0.20444 0.43022 0.88800
Cu	Cu	0.68251 0.35487 0.46638 0.90300
Cu	Cu	0.65778 0.38529 0.53802 0.90300
C 	C 	0.67570 0.27374 0.58046 0.29100
O 	O 	0.49911 0.17100 0.51309 -0.35100
C 	C 	0.62893 0.29648 0.39045 0.29400
O 	O 	0.71302 0.34722 0.51246 -0.63900
O 	O 	0.60487 0.22221 0.45992 -0.63900
O 	O 	0.66668 0.13351 0.49898 -0.35700
O 	O 	0.76145 0.22115 0.46433 -0.41900
O 	O 	0.64208 0.31776 0.57569 -0.37300
O 	O 	0.76518 0.48320 0.47540 -0.37600
C 	C 	0.76885 0.53583 0.50084 0.31300
C 	C 	0.47185 0.21755 0.50367 0.30300
O 	O 	0.53216 0.30038 0.50050 -0.37900
O 	O 	0.71839 0.50421 0.52478 -0.36900
O 	O 	0.66407 0.21568 0.55514 -0.35300
C 	C 	0.73821 0.16283 0.48441 0.31000
O 	O 	0.66964 0.36253 0.41730 -0.37400
O 	O 	0.61132 0.21924 0.39315 -0.39700
H 	H 	0.77923 0.37914 0.52090 0.17700
H 	H 	0.54030 0.19198 0.44922 0.19700
C 	C 	0.70086 0.30149 0.85746 -0.07200
C 	C 	0.68666 0.22467 0.84068 0.02200
C 	C 	0.69678 0.21749 0.80639 -0.05700
C 	C 	0.72161 0.28726 0.78885 0.04500
C 	C 	0.73869 0.36504 0.80596 -0.06100
C 	C 	0.72831 0.37217 0.84010 0.02300
C 	C 	0.72372 0.27724 0.75274 -0.00800
C 	C 	0.72650 0.27283 0.72255 -0.00900
C 	C 	0.72852 0.27120 0.68644 0.04700
C 	C 	0.77935 0.35164 0.67443 -0.06100
C 	C 	0.76677 0.35193 0.63931 0.02100
C 	C 	0.70361 0.27166 0.61592 -0.07800
C 	C 	0.65777 0.19058 0.62774 0.02600
C 	C 	0.66991 0.19043 0.66296 -0.06200
H 	H 	0.66546 0.16975 0.85384 0.05900
H 	H 	0.68359 0.15715 0.79333 0.06400
H 	H 	0.75838 0.41941 0.79261 0.06200
H 	H 	0.74087 0.43234 0.85298 0.04700
H 	H 	0.82537 0.41431 0.69242 0.06100
H 	H 	0.80325 0.41479 0.63042 0.03600
H 	H 	0.60912 0.12813 0.60989 0.04900
H 	H 	0.63076 0.12788 0.67202 0.06200
C 	C 	0.61366 0.31325 0.35600 -0.07900
C 	C 	0.67397 0.39850 0.34820 0.02000
C 	C 	0.67003 0.41077 0.31418 -0.06300
C 	C 	0.60559 0.33821 0.28779 0.04400
C 	C 	0.54123 0.25455 0.29578 -0.06300
C 	C 	0.54505 0.24207 0.32976 0.02200
C 	C 	0.61253 0.34694 0.25249 -0.01200
C 	C 	0.61766 0.35342 0.22284 -0.01200
C 	C 	0.62540 0.35902 0.18739 0.04500
C 	C 	0.71193 0.41524 0.17870 -0.06400
C 	C 	0.72191 0.40921 0.14442 0.02200
C 	C 	0.64531 0.34654 0.11855 -0.08100
C 	C 	0.55785 0.29440 0.12712 0.02100
C 	C 	0.54809 0.30048 0.16145 -0.06300
H 	H 	0.72661 0.45431 0.36819 0.04700
H 	H 	0.71945 0.47588 0.30822 0.06100
H 	H 	0.49043 0.19837 0.27555 0.05900
H 	H 	0.49659 0.17648 0.33552 0.04800
H 	H 	0.77193 0.46131 0.19861 0.05800
H 	H 	0.78949 0.45129 0.13810 0.04400
H 	H 	0.49800 0.24630 0.10744 0.04700
H 	H 	0.48086 0.25721 0.16795 0.06000
C 	C 	0.90898 0.78464 0.52990 -0.06800
C 	C 	0.90249 0.81106 0.49880 -0.00100
C 	C 	0.85676 0.74771 0.46806 0.06000
C 	C 	0.81637 0.65821 0.46878 -0.00600
C 	C 	0.82121 0.63125 0.49999 -0.08900
C 	C 	0.87001 0.69538 0.53061 0.11700
N 	N 	0.88269 0.67049 0.56223 -0.02300
H 	H 	0.94658 0.83396 0.55341 0.08300
H 	H 	0.77921 0.60927 0.44516 0.06600
N 	N 	0.85244 0.77436 0.43597 -0.01800
O 	O 	0.92139 0.63157 0.56439 -0.10800
O 	O 	0.86173 0.69261 0.58949 -0.09600
O 	O 	0.89202 0.76525 0.41245 -0.09900
O 	O 	0.80298 0.80101 0.42925 -0.10000
C 	C 	0.83749 0.14023 0.52036 -0.00500
C 	C 	0.78776 0.12498 0.48815 -0.09200
C 	C 	0.79244 0.08049 0.45902 0.11300
C 	C 	0.84813 0.05339 0.46230 -0.06700
C 	C 	0.89809 0.06885 0.49445 -0.00100
C 	C 	0.89264 0.11234 0.52367 0.06200
N 	N 	0.94364 0.12899 0.55666 -0.01700
H 	H 	0.83430 0.17477 0.54277 0.06200
H 	H 	0.85107 0.01855 0.43992 0.08000
N 	N 	0.73949 0.06148 0.42614 -0.02900
O 	O 	0.00348 0.21028 0.57346 -0.09000
O 	O 	0.92589 0.06271 0.57089 -0.08800
O 	O 	0.77919 0.08554 0.39974 -0.11300
O 	O 	0.65085 0.01457 0.42210 -0.12700
C 	C 	0.22337 0.10582 0.46807 -0.06700
C 	C 	0.19069 0.10753 0.49828 -0.00300
C 	C 	0.25205 0.15077 0.52999 0.06300
C 	C 	0.34425 0.18736 0.53143 -0.00700
C 	C 	0.37581 0.18146 0.50145 -0.09000
C 	C 	0.31580 0.14310 0.46948 0.11400
N 	N 	0.34816 0.14062 0.43848 -0.02800
H 	H 	0.17640 0.07316 0.44359 0.07600
H 	H 	0.39103 0.21912 0.55595 0.05900
N 	N 	0.22044 0.15599 0.56088 -0.01800
O 	O 	0.31512 0.06443 0.41956 -0.10500
O 	O 	0.40509 0.21420 0.42778 -0.11100
O 	O 	0.16894 0.08481 0.57377 -0.08900
O 	O 	0.24851 0.23294 0.57742 -0.08800
C 	C 	0.80753 0.61701 0.94042 -0.01000
C 	C 	0.78861 0.58713 0.97161 -0.08800
C 	C 	0.79103 0.64113 0.99934 0.11300
C 	C 	0.81323 0.72444 0.99563 -0.06800
C 	C 	0.83412 0.75515 0.96466 0.00200
C 	C 	0.82854 0.69973 0.93658 0.05800
N 	N 	0.84510 0.72778 0.90418 -0.01800
H 	H 	0.80247 0.57447 0.91864 0.06200
H 	H 	0.81862 0.76710 0.01744 0.08200
N 	N 	0.77282 0.61241 0.03155 -0.02300
O 	O 	0.90054 0.72250 0.88829 -0.09900
O 	O 	0.80173 0.75492 0.88986 -0.09800
O 	O 	0.82012 0.59102 0.04738 -0.11200
O 	O 	0.71323 0.61336 0.04612 -0.09700
C 	C 	0.82226 0.12201 0.00729 -0.00700
C 	C 	0.79216 0.14165 0.97849 -0.09400
C 	C 	0.78201 0.09979 0.94532 0.11900
C 	C 	0.80520 0.04141 0.94136 -0.07100
C 	C 	0.83747 0.02352 0.97021 0.00400
C 	C 	0.84456 0.06314 0.00335 0.05800
N 	N 	0.87800 0.04652 0.03310 -0.01700
H 	H 	0.82857 0.15265 0.03287 0.04100
H 	H 	0.80011 0.01161 0.91581 0.07800
N 	N 	0.74683 0.11507 0.91564 -0.02200
O 	O 	0.94993 0.11255 0.05493 -0.08800
O 	O 	0.83377 0.96601 0.03930 -0.09700
O 	O 	0.79488 0.14620 0.89169 -0.09600
O 	O 	0.66398 0.09131 0.91131 -0.10400
C 	C 	0.15860 0.05015 0.93724 -0.07000
C 	C 	0.12261 0.05453 0.96610 0.00300
C 	C 	0.18205 0.11067 0.99726 0.05900
C 	C 	0.27682 0.16196 0.99919 -0.00400
C 	C 	0.31293 0.15705 0.97040 -0.08900
C 	C 	0.25340 0.10049 0.93927 0.11500
N 	N 	0.28894 0.09229 0.90995 -0.02500
H 	H 	0.11284 0.00620 0.91337 0.08100
H 	H 	0.32241 0.20569 0.02311 0.06600
N 	N 	0.14627 0.11545 0.02703 -0.01800
O 	O 	0.33902 0.06503 0.91176 -0.11200
O 	O 	0.26540 0.10541 0.88075 -0.09700
O 	O 	0.09683 0.04520 0.04067 -0.08900
O 	O 	0.16808 0.19137 0.04178 -0.09100
