data_crystal

_cell_length_a 19.35489
_cell_length_b 24.83001
_cell_length_c 34.52714
_cell_angle_alpha 90.00032
_cell_angle_beta  76.95301
_cell_angle_gamma 89.99946

_symmetry_space_group_name_	'P 1'
_symmetry_space_group_name_H-M	'P 1'

loop_
_symmetry_equiv_pos_as_xyz
  x,y,z

loop_
_atom_site_label
_atom_site_type_symbol
_atom_site_fract_x
_atom_site_fract_y
_atom_site_fract_z
_atom_site_charge
Cu	Cu	0.48290 0.47834 0.19571 0.92600
Cu	Cu	0.62774 0.53506 0.21181 0.86200
Cu	Cu	0.50408 0.59975 0.20030 0.89500
Cu	Cu	0.35959 0.56206 0.19540 0.89100
C 	C 	0.33721 0.45151 0.22545 0.25800
O 	O 	0.46376 0.47435 0.14043 -0.35400
C 	C 	0.64682 0.64339 0.18139 0.25500
O 	O 	0.43231 0.54853 0.22277 -0.64000
O 	O 	0.55781 0.53322 0.17905 -0.64000
O 	O 	0.53895 0.42561 0.21937 -0.36800
O 	O 	0.58251 0.48958 0.25462 -0.43000
O 	O 	0.32012 0.48787 0.20145 -0.38200
O 	O 	0.45133 0.66199 0.22511 -0.37800
C 	C 	0.38153 0.66626 0.23269 0.26200
C 	C 	0.45546 0.51790 0.12031 0.25400
O 	O 	0.43733 0.56348 0.13915 -0.38500
O 	O 	0.34366 0.63864 0.21218 -0.38800
O 	O 	0.40331 0.43458 0.22041 -0.35300
C 	C 	0.56837 0.43888 0.24876 0.26200
O 	O 	0.58094 0.64852 0.17731 -0.37600
O 	O 	0.67587 0.59536 0.18210 -0.40700
H 	H 	0.41739 0.54957 0.25215 0.15900
H 	H 	0.57893 0.53498 0.15015 0.17300
Cu	Cu	0.48160 0.38789 0.79599 0.92700
Cu	Cu	0.38788 0.44621 0.74028 0.86500
Cu	Cu	0.50887 0.50225 0.76482 0.89500
Cu	Cu	0.62521 0.44986 0.79718 0.89400
C 	C 	0.61102 0.33281 0.79368 0.26200
O 	O 	0.47549 0.40786 0.85348 -0.35900
C 	C 	0.39281 0.56125 0.74399 0.25400
O 	O 	0.56349 0.43681 0.76257 -0.63500
O 	O 	0.42873 0.45250 0.78688 -0.64300
O 	O 	0.42216 0.33485 0.77548 -0.36900
O 	O 	0.42936 0.38056 0.71776 -0.43200
O 	O 	0.63458 0.37311 0.81185 -0.37900
O 	O 	0.58775 0.54837 0.74063 -0.37800
C 	C 	0.64726 0.55261 0.75298 0.26300
C 	C 	0.48982 0.45690 0.86388 0.25400
O 	O 	0.53742 0.48644 0.83983 -0.38800
O 	O 	0.67699 0.50993 0.76520 -0.38500
O 	O 	0.54284 0.32752 0.79540 -0.35500
C 	C 	0.41807 0.33557 0.73811 0.26400
O 	O 	0.44731 0.56324 0.76103 -0.37400
O 	O 	0.35183 0.51828 0.74753 -0.41200
H 	H 	0.58684 0.42519 0.73532 0.16100
H 	H 	0.39542 0.46686 0.81071 0.17100
Cu	Cu	0.97128 0.99051 0.26664 0.92800
Cu	Cu	0.82733 0.04476 0.24965 0.86700
Cu	Cu	0.94523 0.11116 0.26214 0.89600
Cu	Cu	0.10321 0.07216 0.25104 0.89800
C 	C 	0.11367 0.95376 0.24831 0.26500
O 	O 	0.99623 0.99127 0.32056 -0.35400
C 	C 	0.79727 0.14922 0.28756 0.25700
O 	O 	0.01674 0.05993 0.23492 -0.63200
O 	O 	0.89536 0.04386 0.28326 -0.64100
O 	O 	0.91401 0.93593 0.24613 -0.36700
O 	O 	0.87155 0.99688 0.20809 -0.43300
O 	O 	0.14549 0.99979 0.23682 -0.38800
O 	O 	0.99771 0.17675 0.24449 -0.35600
C 	C 	0.06333 0.18322 0.24811 0.24700
C 	C 	0.02525 0.03297 0.33422 0.24600
O 	O 	0.04244 0.07623 0.31229 -0.38600
O 	O 	0.11201 0.14758 0.23307 -0.38200
O 	O 	0.04905 0.94474 0.24368 -0.37200
C 	C 	0.88595 0.94682 0.21580 0.26400
O 	O 	0.86542 0.15795 0.28595 -0.37500
O 	O 	0.77326 0.10086 0.28125 -0.40800
H 	H 	0.02156 0.05888 0.20577 0.15800
H 	H 	0.87431 0.04531 0.31218 0.17700
Cu	Cu	0.05092 0.88956 0.64526 0.92200
Cu	Cu	0.14499 0.94417 0.70238 0.86100
Cu	Cu	0.01677 0.99729 0.68734 0.88300
Cu	Cu	0.90718 0.95011 0.64839 0.89000
C 	C 	0.92526 0.83150 0.63999 0.26000
O 	O 	0.05724 0.91473 0.58894 -0.36200
C 	C 	0.13495 0.05885 0.70604 0.25500
O 	O 	0.96708 0.93171 0.68249 -0.63500
O 	O 	0.09957 0.95469 0.65811 -0.64700
O 	O 	0.11139 0.83582 0.66409 -0.37500
O 	O 	0.10258 0.87816 0.72324 -0.44100
O 	O 	0.89931 0.87574 0.62742 -0.37400
O 	O 	0.93519 0.03366 0.71922 -0.36800
C 	C 	0.86967 0.03183 0.71395 0.26400
C 	C 	0.03994 0.96416 0.58135 0.24000
O 	O 	0.99410 0.99128 0.60815 -0.37000
O 	O 	0.85427 0.00864 0.68237 -0.38200
O 	O 	0.99257 0.82864 0.64171 -0.34900
C 	C 	0.11349 0.83415 0.70174 0.26400
O 	O 	0.07295 0.06023 0.69597 -0.37200
O 	O 	0.17759 0.01700 0.69744 -0.40700
H 	H 	0.94323 0.91504 0.70807 0.16200
H 	H 	0.12929 0.97401 0.63521 0.17200
C 	C 	0.08647 0.04324 0.49351 0.08600
C 	C 	0.05654 0.07419 0.46741 -0.08800
C 	C 	0.07399 0.06070 0.42692 0.01400
C 	C 	0.10983 0.01308 0.41401 0.09400
C 	C 	0.13276 0.97893 0.44093 -0.09800
C 	C 	0.12560 0.99707 0.48012 -0.00000
N 	N 	0.05701 0.03912 0.53265 -0.14900
C 	C 	0.07694 0.99071 0.54437 -0.01300
C 	C 	0.11935 0.96339 0.51259 -0.04500
N 	N 	0.09110 0.99500 0.38110 -0.16900
C 	C 	0.04257 0.02989 0.37328 0.01400
C 	C 	0.03186 0.07197 0.40044 -0.06900
H 	H 	0.01749 0.10501 0.47858 0.05000
H 	H 	0.15079 0.93840 0.43244 0.05300
H 	H 	0.12450 0.91996 0.51068 0.04800
H 	H 	0.98623 0.09847 0.40621 0.06100
H 	H 	0.01156 0.05999 0.54714 0.08400
H 	H 	0.09928 0.95592 0.36971 0.08400
C 	C 	0.78093 0.65157 0.72100 0.07600
C 	C 	0.84654 0.66011 0.69460 -0.08500
C 	C 	0.85081 0.70004 0.66542 0.01300
C 	C 	0.79207 0.73122 0.66317 0.07300
C 	C 	0.72599 0.72179 0.68903 -0.08400
C 	C 	0.72198 0.68218 0.71841 0.01000
N 	N 	0.76058 0.60324 0.73726 -0.15200
C 	C 	0.68898 0.60253 0.74462 0.00100
C 	C 	0.66291 0.65076 0.73319 -0.04800
N 	N 	0.81291 0.78043 0.64868 -0.15200
C 	C 	0.88453 0.78108 0.64187 0.00600
C 	C 	0.90993 0.73175 0.65183 -0.04600
H 	H 	0.89257 0.63638 0.69660 0.05500
H 	H 	0.67992 0.74549 0.68706 0.05000
H 	H 	0.61229 0.65523 0.72509 0.05300
H 	H 	0.95993 0.72641 0.66052 0.05800
H 	H 	0.79248 0.56879 0.73298 0.08800
H 	H 	0.78110 0.81486 0.65423 0.07900
C 	C 	0.77579 0.13558 0.77379 0.07700
C 	C 	0.78485 0.18993 0.78283 -0.08200
C 	C 	0.74432 0.22854 0.76836 0.01200
C 	C 	0.69335 0.21350 0.74784 0.07700
C 	C 	0.68209 0.15917 0.74021 -0.08300
C 	C 	0.72417 0.12046 0.75353 0.01200
N 	N 	0.83002 0.10036 0.76627 -0.15200
C 	C 	0.81427 0.06327 0.74086 0.00200
C 	C 	0.74859 0.07422 0.73260 -0.04700
N 	N 	0.64198 0.25093 0.75234 -0.15300
C 	C 	0.65970 0.28960 0.77587 -0.00400
C 	C 	0.72289 0.27727 0.78657 -0.04700
H 	H 	0.82433 0.20182 0.79896 0.05400
H 	H 	0.64249 0.14745 0.72411 0.05300
H 	H 	0.73313 0.06175 0.70568 0.05000
H 	H 	0.73771 0.29194 0.81312 0.04900
H 	H 	0.88157 0.10973 0.76865 0.09500
H 	H 	0.59048 0.24373 0.74887 0.09200
C 	C 	0.21368 0.18562 0.71444 0.07200
C 	C 	0.25330 0.22624 0.69124 -0.08400
C 	C 	0.32221 0.23635 0.69610 0.00800
C 	C 	0.35043 0.20720 0.72333 0.07600
C 	C 	0.31108 0.16605 0.74603 -0.08600
C 	C 	0.24168 0.15693 0.74189 0.01200
N 	N 	0.16482 0.15577 0.70193 -0.15100
C 	C 	0.16177 0.10804 0.72110 -0.00000
C 	C 	0.20888 0.10724 0.74610 -0.05200
N 	N 	0.39722 0.23760 0.73706 -0.15200
C 	C 	0.39840 0.28636 0.71947 -0.00700
C 	C 	0.35276 0.28698 0.69358 -0.04600
H 	H 	0.23135 0.24907 0.67012 0.04800
H 	H 	0.33298 0.14312 0.76712 0.05100
H 	H 	0.23205 0.07096 0.75519 0.03900
H 	H 	0.32776 0.32305 0.68551 0.03100
H 	H 	0.15109 0.16104 0.67457 0.08600
H 	H 	0.41115 0.23098 0.76423 0.09300
C 	C 	0.18224 0.70586 0.71529 0.07300
C 	C 	0.22921 0.66822 0.69326 -0.08600
C 	C 	0.29467 0.66027 0.70324 0.01100
C 	C 	0.31141 0.68661 0.73543 0.07200
C 	C 	0.26388 0.72336 0.75808 -0.08500
C 	C 	0.19891 0.73233 0.74757 0.00700
N 	N 	0.13971 0.73682 0.69874 -0.15200
C 	C 	0.13003 0.78338 0.71956 -0.01100
C 	C 	0.16548 0.78183 0.75038 -0.04700
N 	N 	0.35664 0.65667 0.75083 -0.15000
C 	C 	0.36836 0.61116 0.72885 -0.00100
C 	C 	0.33074 0.61194 0.69902 -0.05200
H 	H 	0.21619 0.64723 0.66834 0.04800
H 	H 	0.27697 0.74423 0.78303 0.04700
H 	H 	0.18408 0.81727 0.76329 0.03100
H 	H 	0.31386 0.57622 0.68563 0.03600
H 	H 	0.13511 0.73307 0.66925 0.08900
H 	H 	0.36165 0.65938 0.78030 0.08700
C 	C 	0.24160 0.86909 0.27724 0.07200
C 	C 	0.31033 0.84739 0.26969 -0.08300
C 	C 	0.31754 0.79273 0.27832 0.00800
C 	C 	0.25843 0.75921 0.28794 0.07400
C 	C 	0.18998 0.77989 0.29058 -0.08400
C 	C 	0.18243 0.83587 0.28822 0.00900
N 	N 	0.22499 0.91351 0.25892 -0.15300
C 	C 	0.15636 0.90830 0.25705 -0.00200
C 	C 	0.12768 0.86120 0.27564 -0.04700
N 	N 	0.27655 0.70840 0.27642 -0.15300
C 	C 	0.34670 0.70908 0.25948 -0.00400
C 	C 	0.37407 0.76077 0.25990 -0.04300
H 	H 	0.35580 0.87114 0.25520 0.04900
H 	H 	0.14523 0.75324 0.29173 0.04800
H 	H 	0.08003 0.84171 0.27114 0.04700
H 	H 	0.42030 0.77547 0.23869 0.04800
H 	H 	0.26163 0.93892 0.24077 0.08300
H 	H 	0.24105 0.67941 0.27058 0.07900
C 	C 	0.76897 0.74494 0.19423 0.07300
C 	C 	0.83826 0.76421 0.19031 -0.08400
C 	C 	0.85272 0.81747 0.17730 0.01200
C 	C 	0.79997 0.85012 0.16817 0.07200
C 	C 	0.73127 0.82990 0.17078 -0.08400
C 	C 	0.71642 0.77749 0.18530 0.00800
N 	N 	0.75337 0.69267 0.19033 -0.15500
C 	C 	0.69195 0.69160 0.17791 -0.00100
C 	C 	0.66675 0.74360 0.17515 -0.04500
N 	N 	0.81231 0.90208 0.17554 -0.15100
C 	C 	0.87166 0.90299 0.18999 -0.00500
C 	C 	0.89849 0.85117 0.19127 -0.04300
H 	H 	0.87917 0.73899 0.19762 0.05200
H 	H 	0.69015 0.85494 0.16351 0.04800
H 	H 	0.62791 0.75509 0.15848 0.05100
H 	H 	0.93105 0.83855 0.21138 0.05600
H 	H 	0.78954 0.66086 0.18747 0.08200
H 	H 	0.77279 0.93161 0.18168 0.07000
C 	C 	0.63531 0.35006 0.31261 0.07300
C 	C 	0.69816 0.32779 0.31959 -0.08400
C 	C 	0.70125 0.27161 0.32354 0.01200
C 	C 	0.64937 0.23854 0.31406 0.07400
C 	C 	0.59182 0.26088 0.30111 -0.08400
C 	C 	0.58268 0.31696 0.30397 0.01000
N 	N 	0.63222 0.39930 0.29669 -0.15100
C 	C 	0.57819 0.39780 0.27781 -0.00500
C 	C 	0.54653 0.34720 0.28128 -0.04400
N 	N 	0.67658 0.18965 0.30253 -0.15200
C 	C 	0.74553 0.19136 0.30451 0.00300
C 	C 	0.76318 0.24172 0.31707 -0.04600
H 	H 	0.74385 0.35285 0.31989 0.05100
H 	H 	0.55777 0.23600 0.28756 0.05100
H 	H 	0.51786 0.33056 0.26048 0.05200
H 	H 	0.81614 0.25866 0.31037 0.05400
H 	H 	0.67501 0.42599 0.28962 0.07300
H 	H 	0.65583 0.16312 0.28456 0.08100
C 	C 	0.09871 0.31129 0.28504 0.07200
C 	C 	0.11182 0.36509 0.27323 -0.08400
C 	C 	0.17464 0.38899 0.27862 0.00900
C 	C 	0.22727 0.35824 0.28973 0.07500
C 	C 	0.21707 0.30305 0.29751 -0.08400
C 	C 	0.15014 0.28117 0.29785 0.01200
N 	N 	0.05667 0.27870 0.26923 -0.15100
C 	C 	0.08113 0.22819 0.27164 -0.00500
C 	C 	0.13905 0.22804 0.28913 -0.04800
N 	N 	0.29160 0.37977 0.27468 -0.15200
C 	C 	0.28042 0.42380 0.25398 -0.00300
C 	C 	0.20863 0.43094 0.25570 -0.05000
H 	H 	0.07722 0.38612 0.25763 0.04700
H 	H 	0.26107 0.27738 0.30011 0.05200
H 	H 	0.17970 0.19719 0.28437 0.03900
H 	H 	0.18748 0.45219 0.23352 0.04400
H 	H 	0.02811 0.29102 0.24844 0.08300
H 	H 	0.33921 0.35819 0.26953 0.09200
C 	C 	0.39679 0.49539 0.03218 0.07400
C 	C 	0.37939 0.46225 0.00294 -0.08400
C 	C 	0.39102 0.48247 0.96407 0.01000
C 	C 	0.42862 0.53018 0.95363 0.07300
C 	C 	0.45263 0.56049 0.98239 -0.08300
C 	C 	0.43083 0.54442 0.02222 0.01000
N 	N 	0.41127 0.47611 0.06586 -0.15200
C 	C 	0.45271 0.51301 0.07834 0.00000
C 	C 	0.46746 0.55533 0.05138 -0.04800
N 	N 	0.46317 0.52863 0.91513 -0.15200
C 	C 	0.44792 0.48038 0.90093 -0.00400
C 	C 	0.40347 0.45054 0.93041 -0.04900
H 	H 	0.36274 0.42095 0.00953 0.05300
H 	H 	0.49071 0.59274 0.97376 0.05100
H 	H 	0.49003 0.59388 0.05647 0.04600
H 	H 	0.40047 0.40696 0.93080 0.05100
H 	H 	0.38301 0.44547 0.08332 0.08900
H 	H 	0.50846 0.55129 0.90306 0.08600
