data_crystal

_cell_length_a 18.46322
_cell_length_b 18.84789
_cell_length_c 23.36513
_cell_angle_alpha 95.45581
_cell_angle_beta  95.45843
_cell_angle_gamma 126.34677

_symmetry_space_group_name_	'P 1'
_symmetry_space_group_name_H-M	'P 1'

loop_
_symmetry_equiv_pos_as_xyz
  x,y,z

loop_
_atom_site_label
_atom_site_type_symbol
_atom_site_fract_x
_atom_site_fract_y
_atom_site_fract_z
_atom_site_charge
N 	N 	0.04427 0.07962 0.00533 -0.09700
C 	C 	0.07556 0.03022 0.99891 0.26000
C 	C 	0.04599 0.01420 0.43892 0.27700
Cu	Cu	0.62602 0.21314 0.01738 0.93600
Cu	Cu	0.70848 0.22372 0.89756 0.90900
Cu	Cu	0.66737 0.34729 0.93640 0.91100
Cu	Cu	0.60924 0.36833 0.04800 0.93100
C 	C 	0.64283 0.28323 0.13681 0.28700
O 	O 	0.48917 0.14974 0.01248 -0.32700
C 	C 	0.65690 0.28903 0.81088 0.29200
O 	O 	0.69038 0.35073 0.01904 -0.63600
O 	O 	0.61505 0.21822 0.93259 -0.62900
O 	O 	0.69395 0.16070 0.01980 -0.31600
O 	O 	0.59422 0.30893 0.11674 -0.30300
O 	O 	0.72603 0.47451 0.94591 -0.33000
C 	C 	0.71692 0.52052 0.98698 0.40100
C 	C 	0.44977 0.18271 0.98930 0.40500
O 	O 	0.50088 0.26398 0.97833 -0.36000
O 	O 	0.65251 0.48012 0.01858 -0.33100
O 	O 	0.65412 0.23263 0.10165 -0.29700
O 	O 	0.66183 0.34696 0.85110 -0.31600
O 	O 	0.65132 0.21989 0.82409 -0.36000
H 	H 	0.55258 0.17567 0.90872 0.21400
Cu	Cu	0.75338 0.34081 0.43374 0.93600
Cu	Cu	0.75139 0.26882 0.55654 0.90800
Cu	Cu	0.61799 0.30024 0.51633 0.91200
Cu	Cu	0.58837 0.34858 0.40200 0.92200
C 	C 	0.67771 0.31819 0.31390 0.29600
C 	C 	0.68441 0.31922 0.64239 0.29400
O 	O 	0.61275 0.27476 0.43348 -0.63200
O 	O 	0.75045 0.35503 0.51871 -0.63100
O 	O 	0.71151 0.18220 0.48911 -0.38700
O 	O 	0.64924 0.36401 0.33337 -0.31900
O 	O 	0.48735 0.23952 0.50827 -0.33300
C 	C 	0.43648 0.23864 0.46403 0.40200
O 	O 	0.69406 0.45987 0.46954 -0.35300
O 	O 	0.47297 0.30049 0.43122 -0.33600
O 	O 	0.73127 0.30978 0.34947 -0.29600
O 	O 	0.62093 0.30767 0.60209 -0.31700
O 	O 	0.75661 0.32859 0.62863 -0.36100
H 	H 	0.56951 0.21032 0.41534 0.20200
C 	C 	0.66223 0.30378 0.75170 0.01000
C 	C 	0.67037 0.31277 0.70170 0.00900
C 	C 	0.66103 0.28985 0.19904 0.02500
C 	C 	0.67133 0.30012 0.25174 0.02300
C 	C 	0.18625 0.06448 0.39967 0.27000
C 	C 	0.14565 0.07384 0.44461 -0.13100
C 	C 	0.20089 0.13632 0.49659 0.26800
C 	C 	0.29624 0.18883 0.50366 0.30400
C 	C 	0.33681 0.17960 0.45859 -0.19700
C 	C 	0.28152 0.11754 0.40650 0.29600
F 	F 	0.32030 0.10849 0.36262 -0.37600
F 	F 	0.13323 0.00400 0.34933 -0.33300
F 	F 	0.34925 0.24972 0.55384 -0.35300
F 	F 	0.16204 0.14507 0.54053 -0.34100
F 	F 	0.73672 0.59969 0.88658 -0.35200
C 	C 	0.28318 0.06891 0.94954 0.30900
C 	C 	0.35397 0.14165 0.99259 -0.20000
C 	C 	0.33346 0.18067 0.03599 0.29800
C 	C 	0.24269 0.14663 0.03669 0.25800
C 	C 	0.17155 0.07330 0.99392 -0.10900
C 	C 	0.19229 0.03503 0.94998 0.24500
F 	F 	0.30256 0.03192 0.90678 -0.37200
F 	F 	0.22361 0.18314 0.07999 -0.34100
F 	F 	0.40172 0.25161 0.07760 -0.38900
H 	H 	0.75538 0.39467 0.03861 0.20100
C 	C 	0.77754 0.65415 0.94008 0.30300
C 	C 	0.77143 0.20010 0.00047 0.38300
C 	C 	0.77617 0.51149 0.45729 0.38000
C 	C 	0.76860 0.19909 0.45382 0.38100
C 	C 	0.76902 0.61773 0.99101 -0.18800
F 	F 	0.84076 0.58516 0.35664 -0.36200
F 	F 	0.89189 0.75145 0.34442 -0.33200
C 	C 	0.95592 0.03926 0.01133 0.25300
N 	N 	0.99839 0.04785 0.43567 -0.13200
O 	O 	0.79195 0.25907 0.96705 -0.38100
O 	O 	0.81288 0.47458 0.43589 -0.30700
O 	O 	0.80753 0.27350 0.43236 -0.31100
H 	H 	0.79271 0.41737 0.54102 0.21100
C 	C 	0.84155 0.63718 0.40148 0.29300
C 	C 	0.81574 0.60570 0.45366 -0.19100
C 	C 	0.81343 0.65925 0.49863 0.29500
C 	C 	0.86564 0.72140 0.39468 0.26500
F 	F 	0.78825 0.62979 0.54920 -0.35900
C 	C 	0.80442 0.10170 0.49356 0.28800
C 	C 	0.80091 0.14323 0.44728 -0.19200
C 	C 	0.82414 0.12766 0.39438 0.29600
C 	C 	0.85276 0.07332 0.38844 0.27300
C 	C 	0.85740 0.03311 0.43504 -0.14800
C 	C 	0.83127 0.04617 0.48706 0.27300
F 	F 	0.83669 0.00893 0.53268 -0.34300
F 	F 	0.78494 0.11768 0.54566 -0.39700
F 	F 	0.81853 0.16457 0.34862 -0.35200
C 	C 	0.80854 0.67457 0.04619 0.29500
F 	F 	0.80104 0.64017 0.09570 -0.36400
C 	C 	0.87807 0.09423 0.05866 0.26600
C 	C 	0.91885 0.09007 0.01194 -0.12800
C 	C 	0.91471 0.12564 0.96278 0.26800
C 	C 	0.86718 0.16191 0.95915 0.29600
C 	C 	0.82452 0.16460 0.00539 -0.20300
C 	C 	0.83162 0.13189 0.05561 0.30100
F 	F 	0.79386 0.13683 0.10148 -0.35100
F 	F 	0.88283 0.06108 0.10681 -0.33400
F 	F 	0.85936 0.19101 0.90961 -0.40100
F 	F 	0.95305 0.12108 0.91713 -0.34800
F 	F 	0.87774 0.06115 0.33780 -0.34000
C 	C 	0.82729 0.74679 0.94437 0.26700
C 	C 	0.83735 0.74342 0.49169 0.26700
N 	N 	0.01837 0.94080 0.99797 -0.08700
F 	F 	0.12427 0.96518 0.90767 -0.31400
N 	N 	0.00190 0.92593 0.43960 -0.09600
C 	C 	0.93033 0.90051 0.00353 0.25900
N 	N 	0.89912 0.94965 0.01045 -0.10100
C 	C 	0.90661 0.99355 0.43377 0.30700
N 	N 	0.86239 0.90490 0.43584 -0.10800
C 	C 	0.91040 0.87103 0.43812 0.26800
C 	C 	0.86444 0.77534 0.43991 -0.12400
F 	F 	0.83747 0.79537 0.53620 -0.33100
C 	C 	0.86827 0.80349 0.99947 -0.11400
C 	C 	0.85779 0.76709 0.05035 0.26300
F 	F 	0.83697 0.78177 0.89495 -0.33300
F 	F 	0.89759 0.82176 0.10379 -0.32900
