data_crystal

_cell_length_a 19.00772
_cell_length_b 17.31019
_cell_length_c 47.04971
_cell_angle_alpha 89.61921
_cell_angle_beta  89.62162
_cell_angle_gamma 119.46839

_symmetry_space_group_name_	'P 1'
_symmetry_space_group_name_H-M	'P 1'

loop_
_symmetry_equiv_pos_as_xyz
  x,y,z

loop_
_atom_site_label
_atom_site_type_symbol
_atom_site_fract_x
_atom_site_fract_y
_atom_site_fract_z
_atom_site_charge
O 	O 	0.01645 0.08441 0.69375 -0.38900
O 	O 	0.04053 0.18160 0.74652 -0.38100
Ni	Ni	0.10653 0.14478 0.72138 1.12100
O 	O 	0.13234 0.96405 0.78261 -0.36800
O 	O 	0.07921 0.04035 0.74243 -0.70500
H 	H 	0.10011 0.06878 0.76084 0.15000
C 	C 	0.08321 0.17531 0.16922 0.30600
C 	C 	0.06224 0.16493 0.25398 0.29100
C 	C 	0.99574 0.89770 0.16853 0.29200
O 	O 	0.04758 0.20183 0.18775 -0.36500
C 	C 	0.12094 0.23523 0.06578 -0.04800
C 	C 	0.08432 0.20752 0.11721 -0.01700
H 	H 	0.05983 0.21693 0.05973 0.05900
C 	C 	0.07220 0.17272 0.38304 -0.00100
C 	C 	0.02274 0.14366 0.35905 -0.04200
C 	C 	0.05674 0.13850 0.33309 0.01500
S 	S 	0.05947 0.23046 0.40859 0.05300
C 	C 	0.08211 0.17182 0.28437 -0.07400
C 	C 	0.02478 0.14383 0.30642 -0.01300
C 	C 	0.00739 0.47531 0.45610 -0.06600
Br	Br	0.02768 0.64504 0.47460 -0.20900
C 	C 	0.10246 0.50423 0.96500 -0.03800
C 	C 	0.11228 0.61198 0.92965 0.12000
H 	H 	0.12996 0.48373 0.98137 0.07300
S 	S 	0.12132 0.93481 0.84974 0.04900
H 	H 	0.11624 0.86111 0.90666 0.07200
Ni	Ni	0.14217 0.98398 0.73863 1.10900
C 	C 	0.15713 0.05652 0.67973 0.31500
O 	O 	0.14709 0.98707 0.69440 -0.38100
C 	C 	0.09021 0.52561 0.44363 0.31600
O 	O 	0.10268 0.50325 0.41814 -0.36900
Ni	Ni	0.06568 0.03878 0.21184 1.12500
O 	O 	0.04834 0.93196 0.18925 -0.37500
O 	O 	0.09026 0.10469 0.17414 -0.37400
O 	O 	0.04574 0.96502 0.24712 -0.38200
O 	O 	0.10775 0.15262 0.23496 -0.36800
C 	C 	0.18532 0.27782 0.04624 0.00000
C 	C 	0.13886 0.22579 0.09403 0.02100
S 	S 	0.18220 0.33476 0.01827 0.05300
C 	C 	0.12246 0.22931 0.14378 -0.07000
C 	C 	0.04529 0.63481 0.05794 -0.00600
C 	C 	0.00492 0.84024 0.14809 -0.06300
H 	H 	0.05152 0.67120 0.03838 0.04700
C 	C 	0.13826 0.15962 0.33148 0.00200
C 	C 	0.98738 0.82630 0.27197 -0.08500
C 	C 	0.00584 0.85496 0.30020 0.00300
H 	H 	0.99948 0.90955 0.30846 0.03200
C 	C 	0.14627 0.58862 0.95236 -0.07800
Br	Br	0.17495 0.71970 0.90824 -0.21700
O 	O 	0.24983 0.10664 0.73990 -0.35500
O 	O 	0.20590 0.20973 0.74580 -0.37500
O 	O 	0.17945 0.13200 0.69252 -0.37800
C 	C 	0.18406 0.39203 0.42090 0.28400
O 	O 	0.17694 0.42221 0.44639 -0.35500
O 	O 	0.19897 0.44008 0.39717 -0.37400
O 	O 	0.15159 0.57386 0.46021 -0.35500
C 	C 	0.22859 0.64915 0.96221 0.32100
O 	O 	0.24834 0.72961 0.97072 -0.36300
C 	C 	0.21909 0.26001 0.10242 0.00400
C 	C 	0.26603 0.31995 0.05540 0.02600
S 	S 	0.22154 0.27015 0.13752 0.03700
C 	C 	0.01448 0.60365 0.10684 0.00500
C 	C 	0.00845 0.76445 0.15621 -0.01100
C 	C 	0.15583 0.20419 0.38062 0.02500
C 	C 	0.15569 0.29730 0.41744 -0.06500
S 	S 	0.16873 0.18542 0.29762 0.03700
S 	S 	0.02930 0.76303 0.26524 0.04200
H 	H 	0.08417 0.90127 0.35231 0.05200
C 	C 	0.14167 0.04934 0.64905 -0.05600
C 	C 	0.15485 0.99340 0.63109 -0.05100
H 	H 	0.16916 0.94376 0.63890 0.05800
O 	O 	0.04620 0.85537 0.73564 -0.36200
C 	C 	0.09729 0.60173 0.06478 -0.07500
H 	H 	0.02872 0.75605 0.17688 0.04800
C 	C 	0.18943 0.19700 0.35469 -0.05100
C 	C 	0.25773 0.18082 0.75127 0.28800
Ni	Ni	0.20862 0.56098 0.39531 1.12300
C 	C 	0.17682 0.63670 0.05104 0.31200
O 	O 	0.18660 0.66477 0.02461 -0.38300
O 	O 	0.28279 0.62332 0.96094 -0.37300
C 	C 	0.28343 0.31240 0.08395 -0.05400
C 	C 	0.27959 0.41325 0.01620 -0.07000
C 	C 	0.01026 0.63760 0.13330 -0.04200
S 	S 	0.08352 0.57464 0.09927 0.04000
C 	C 	0.20193 0.27136 0.40060 -0.01800
C 	C 	0.09884 0.86201 0.33814 -0.04500
C 	C 	0.05207 0.82212 0.31408 0.01400
C 	C 	0.06936 0.76762 0.29677 0.00200
C 	C 	0.20414 0.99602 0.58202 -0.08600
C 	C 	0.16422 0.02069 0.60210 0.06100
S 	S 	0.14430 0.13109 0.62925 0.03800
H 	H 	0.21582 0.94187 0.58649 0.06600
H 	H 	0.03547 0.62350 0.15193 0.04800
C 	C 	0.15814 0.09773 0.59769 -0.01000
C 	C 	0.30003 0.50558 0.01150 0.30400
C 	C 	0.31895 0.39348 0.03792 -0.02200
Ni	Ni	0.25005 0.55269 0.46211 1.11300
O 	O 	0.20975 0.67700 0.39633 -0.37800
O 	O 	0.26995 0.53941 0.02929 -0.38000
O 	O 	0.36152 0.55789 0.99470 -0.36600
H 	H 	0.25439 0.22813 0.35188 0.05500
H 	H 	0.26693 0.31252 0.39842 0.04900
C 	C 	0.16772 0.85392 0.34242 -0.00400
C 	C 	0.19906 0.15608 0.57512 -0.03900
C 	C 	0.23796 0.04990 0.55783 0.02300
H 	H 	0.30526 0.34122 0.78204 0.05100
C 	C 	0.13901 0.76083 0.30083 -0.05400
Ni	Ni	0.28921 0.77189 0.01023 1.12100
O 	O 	0.29178 0.60062 0.36269 -0.37700
O 	O 	0.28573 0.59174 0.42469 -0.71600
H 	H 	0.30834 0.55291 0.42010 0.15800
O 	O 	0.23950 0.65209 0.06649 -0.36900
H 	H 	0.34421 0.35156 0.09196 0.06000
H 	H 	0.37916 0.44118 0.04466 0.05900
C 	C 	0.18738 0.80314 0.32432 0.02100
S 	S 	0.20851 0.85787 0.37385 0.05200
H 	H 	0.15409 0.72218 0.28654 0.04900
C 	C 	0.23982 0.13195 0.55519 0.01200
H 	H 	0.20623 0.22220 0.57474 0.05000
C 	C 	0.33319 0.24066 0.76584 -0.06700
C 	C 	0.35100 0.32387 0.77632 -0.01800
C 	C 	0.27185 0.74926 0.38616 0.31000
O 	O 	0.31975 0.67114 0.48550 -0.34500
O 	O 	0.34807 0.53238 0.46683 -0.36200
Ni	Ni	0.34300 0.65615 0.04991 1.11600
Ni	Ni	0.38703 0.68326 0.98202 1.12400
O 	O 	0.38335 0.88011 0.99295 -0.37500
O 	O 	0.31738 0.82548 0.05029 -0.36400
O 	O 	0.35389 0.71774 0.01568 -0.71500
C 	C 	0.25713 0.80250 0.36536 -0.07100
C 	C 	0.23866 0.77531 0.33705 -0.01900
H 	H 	0.24943 0.72472 0.32789 0.04500
S 	S 	0.32019 0.06107 0.54163 0.07100
C 	C 	0.30780 0.19638 0.53945 -0.00800
C 	C 	0.36816 0.61723 0.36415 0.29500
H 	H 	0.35570 0.80691 0.52777 0.07200
C 	C 	0.36090 0.16642 0.53068 -0.07000
H 	H 	0.32575 0.26630 0.53969 0.04800
S 	S 	0.42048 0.24108 0.76056 0.04100
H 	H 	0.42742 0.47705 0.80741 0.05300
H 	H 	0.40510 0.77178 0.01960 0.15200
C 	C 	0.35390 0.75126 0.47368 0.31700
Ni	Ni	0.37991 0.70251 0.41848 1.13600
O 	O 	0.34545 0.76046 0.38815 -0.36300
O 	O 	0.34124 0.75868 0.44707 -0.36600
C 	C 	0.38401 0.84194 0.06441 0.28000
C 	C 	0.43848 0.87716 0.97617 0.31000
O 	O 	0.44785 0.64477 0.04316 -0.35200
O 	O 	0.42342 0.80315 0.96261 -0.35500
Br	Br	0.42558 0.94048 0.91350 -0.21800
C 	C 	0.43496 0.38142 0.77995 0.01900
C 	C 	0.42181 0.58991 0.45762 0.29500
O 	O 	0.40994 0.64485 0.38785 -0.38100
O 	O 	0.40287 0.77864 0.06930 -0.36100
S 	S 	0.40440 0.68408 0.30990 0.03400
C 	C 	0.41356 0.62867 0.33767 -0.06800
C 	C 	0.46608 0.45352 0.79849 -0.04900
C 	C 	0.40891 0.85225 0.51556 -0.02700
O 	O 	0.44025 0.67122 0.44887 -0.33700
C 	C 	0.50184 0.68076 0.02199 0.30700
O 	O 	0.49304 0.72904 0.00205 -0.38800
S 	S 	0.42329 0.92353 0.11546 0.03600
C 	C 	0.42791 0.92481 0.07999 -0.05900
C 	C 	0.42105 0.82932 0.48807 -0.07700
H 	H 	0.45177 0.46991 0.43255 0.06400
C 	C 	0.48252 0.34393 0.77140 -0.00000
C 	C 	0.06304 0.94007 0.79619 0.29100
C 	C 	0.44814 0.22508 0.53231 0.30900
Br	Br	0.44476 0.96509 0.56428 -0.24200
C 	C 	0.48893 0.49964 0.45102 -0.03900
C 	C 	0.50777 0.96218 0.96708 -0.11900
C 	C 	0.50221 0.00539 0.94254 0.16300
C 	C 	0.46289 0.93620 0.52667 0.12400
C 	C 	0.48766 0.57114 0.46432 -0.07100
C 	C 	0.55772 0.64604 0.01582 -0.08000
O 	O 	0.48021 0.25179 0.55745 -0.36600
O 	O 	0.48992 0.26308 0.50903 -0.36000
C 	C 	0.49520 0.65050 0.33857 -0.01900
Br	Br	0.52676 0.35963 0.44440 -0.24700
C 	C 	0.54906 0.09765 0.93991 -0.05500
H 	H 	0.54015 0.13055 0.92184 0.08000
C 	C 	0.59744 0.66684 0.98928 -0.04100
C 	C 	0.55380 0.57450 0.03166 0.12500
H 	H 	0.60992 0.72742 0.97820 0.07100
C 	C 	0.54581 0.48795 0.80767 -0.00400
C 	C 	0.49997 0.73633 0.29883 -0.00100
C 	C 	0.51901 0.99537 0.12234 -0.01300
C 	C 	0.50817 0.98574 0.07236 -0.03800
H 	H 	0.50162 0.83423 0.26953 0.04800
C 	C 	0.49303 0.88897 0.47290 0.14500
C 	C 	0.53269 0.46163 0.46267 0.12900
C 	C 	0.57008 0.51297 0.01812 -0.03700
Br	Br	0.54088 0.56865 0.07226 -0.23800
C 	C 	0.55814 0.37105 0.78345 -0.05200
H 	H 	0.01939 0.17586 0.11478 0.05100
H 	H 	0.52076 0.63533 0.35689 0.05500
H 	H 	0.52416 0.95058 0.16488 0.05100
H 	H 	0.53169 0.98846 0.05116 0.05100
C 	C 	0.53817 0.61132 0.48775 0.12500
Br	Br	0.54196 0.71244 0.50582 -0.20900
C 	C 	0.56857 0.01050 0.98679 0.00600
C 	C 	0.59413 0.52514 0.98937 -0.08200
C 	C 	0.61045 0.60431 0.97522 0.12400
H 	H 	0.56391 0.45591 0.02989 0.07200
S 	S 	0.57814 0.53815 0.83859 0.05200
H 	H 	0.99104 0.67690 0.71028 0.04500
O 	O 	0.57148 0.42790 0.94972 -0.34900
O 	O 	0.58356 0.27546 0.95564 -0.36800
C 	C 	0.53611 0.81781 0.28420 -0.04900
C 	C 	0.54424 0.71412 0.31777 0.02300
C 	C 	0.53037 0.99738 0.51040 -0.08100
Br	Br	0.51704 0.86544 0.43524 -0.29500
H 	H 	0.57632 0.97656 0.00490 0.04000
C 	C 	0.59032 0.44482 0.80143 0.02200
C 	C 	0.03185 0.55491 0.92208 -0.02300
C 	C 	0.06927 0.87847 0.90363 -0.05700
O 	O 	0.53983 0.13958 0.50511 -0.37300
C 	C 	0.55853 0.98769 0.14632 -0.06300
C 	C 	0.55975 0.02387 0.09600 0.05300
C 	C 	0.54783 0.97036 0.48472 -0.04500
C 	C 	0.57699 0.49636 0.48792 -0.07700
C 	C 	0.60179 0.14796 0.96169 -0.06400
H 	H 	0.58791 0.33183 0.78082 0.05000
C 	C 	0.07003 0.92672 0.87953 0.00100
C 	C 	0.60564 0.45739 0.97470 0.30200
O 	O 	0.58611 0.43507 0.53341 -0.36200
C 	C 	0.58321 0.57447 0.49918 -0.03400
Br	Br	0.64495 0.62600 0.93611 -0.24400
C 	C 	0.02238 0.44736 0.95733 0.14000
Ni	Ni	0.60729 0.36211 0.92300 1.12400
O 	O 	0.60363 0.43589 0.88980 -0.36100
C 	C 	0.60269 0.44330 0.50554 0.30600
C 	C 	0.57080 0.09346 0.51637 0.33300
C 	C 	0.61415 0.10334 0.98473 0.11200
C 	C 	0.63264 0.24512 0.96206 0.30400
Ni	Ni	0.59831 0.35105 0.56342 1.11500
Ni	Ni	0.59905 0.27253 0.50021 1.12700
S 	S 	0.58560 0.06691 0.63231 0.06800
O 	O 	0.62034 0.27676 0.89762 -0.38500
O 	O 	0.64645 0.42349 0.98723 -0.36200
C 	C 	0.59368 0.20630 0.60143 0.31400
O 	O 	0.59972 0.28530 0.60073 -0.36400
O 	O 	0.60019 0.17052 0.57787 -0.37200
H 	H 	0.60105 0.01621 0.47258 0.09700
H 	H 	0.61926 0.60357 0.51791 0.07000
C 	C 	0.65012 0.51158 0.84487 -0.06900
C 	C 	0.06270 0.95174 0.82713 -0.06800
C 	C 	0.61865 0.87615 0.28832 0.01800
C 	C 	0.60452 0.17172 0.62861 -0.07700
C 	C 	0.64963 0.45936 0.82208 -0.02300
O 	O 	0.63863 0.40304 0.49327 -0.36200
C 	C 	0.64167 0.01812 0.14433 0.04100
C 	C 	0.64343 0.05566 0.09418 -0.05500
C 	C 	0.62613 0.77398 0.32241 -0.05200
C 	C 	0.98654 0.71265 0.69203 -0.01800
C 	C 	0.66594 0.49280 0.87372 0.29800
O 	O 	0.64323 0.30526 0.53700 -0.71600
C 	C 	0.98909 0.68818 0.66343 0.01700
O 	O 	0.64626 0.13368 0.52497 -0.36900
H 	H 	0.64678 0.94660 0.24715 0.04400
H 	H 	0.65735 0.95296 0.18241 0.05000
H 	H 	0.67382 0.06951 0.07370 0.07100
C 	C 	0.66091 0.85716 0.30902 0.00800
H 	H 	0.66087 0.75768 0.33701 0.05500
Br	Br	0.68726 0.16707 0.01481 -0.22000
H 	H 	0.67928 0.41960 0.82313 0.04800
C 	C 	0.68681 0.29682 0.88328 0.30600
C 	C 	0.68447 0.05750 0.11898 -0.00100
C 	C 	0.66975 0.93752 0.26719 -0.01800
C 	C 	0.65671 0.08344 0.65561 -0.01500
H 	H 	0.65975 0.96000 0.65252 0.03600
S 	S 	0.69000 0.22337 0.83300 0.03800
C 	C 	0.69229 0.22638 0.86847 -0.06800
C 	C 	0.98471 0.83782 0.71918 0.29600
C 	C 	0.68151 0.98573 0.16213 -0.03200
C 	C 	0.96989 0.78264 0.69409 -0.07400
O 	O 	0.70768 0.30046 0.96935 -0.34000
H 	H 	0.71296 0.49411 0.93374 0.15900
H 	H 	0.69191 0.36125 0.53171 0.15100
C 	C 	0.67030 0.22442 0.64608 -0.01900
O 	O 	0.71797 0.44026 0.93266 -0.71400
Ni	Ni	0.69302 0.24048 0.55064 1.12200
O 	O 	0.70313 0.28137 0.48381 -0.35100
C 	C 	0.69312 0.02995 0.65750 -0.02100
O 	O 	0.73986 0.53914 0.88402 -0.37600
O 	O 	0.73585 0.37886 0.87515 -0.39700
O 	O 	0.71638 0.44278 0.57401 -0.36500
C 	C 	0.74884 0.20126 0.87700 -0.01900
C 	C 	0.70115 0.17560 0.66065 0.02500
H 	H 	0.70444 0.29606 0.64386 0.05300
Ni	Ni	0.75376 0.43789 0.97001 1.11600
H 	H 	0.77308 0.21282 0.89831 0.05700
C 	C 	0.75885 0.19308 0.82722 0.00100
C 	C 	0.75387 0.99758 0.15028 -0.08100
O 	O 	0.99850 0.17113 0.24594 -0.37000
O 	O 	0.75249 0.33415 0.58111 -0.37300
C 	C 	0.75208 0.96549 0.27119 -0.06900
C 	C 	0.78732 0.18413 0.85389 0.02700
C 	C 	0.97937 0.74319 0.64347 -0.00100
S 	S 	0.76897 0.05056 0.11914 0.05300
S 	S 	0.75806 0.91541 0.30084 0.02300
H 	H 	0.98891 0.34934 0.44071 0.07400
C 	C 	0.98347 0.88345 0.24980 0.28600
C 	C 	0.99981 0.63753 0.08158 0.00900
C 	C 	0.98467 0.70073 0.13437 0.00500
S 	S 	0.96932 0.82534 0.11508 0.02900
H 	H 	0.96630 0.73023 0.06366 0.05100
C 	C 	0.96003 0.72595 0.10950 0.00600
C 	C 	0.97105 0.69815 0.08284 -0.05000
O 	O 	0.93111 0.84561 0.22876 -0.37800
C 	C 	0.85421 0.62419 0.94554 0.29100
C 	C 	0.89732 0.44194 0.93996 0.33300
Ni	Ni	0.79442 0.47794 0.90245 1.12000
O 	O 	0.81172 0.57706 0.96821 -0.35600
O 	O 	0.87334 0.58703 0.92449 -0.38000
O 	O 	0.86938 0.45629 0.96372 -0.36000
O 	O 	0.85171 0.41386 0.91736 -0.38900
C 	C 	0.77206 0.41923 0.57916 0.28400
C 	C 	0.77541 0.32312 0.49630 0.29600
O 	O 	0.78517 0.30408 0.52288 -0.37000
C 	C 	0.94114 0.05663 0.70115 0.31000
C 	C 	0.01315 0.15198 0.77279 0.29900
Ni	Ni	0.96731 0.97254 0.75249 1.11300
O 	O 	0.91396 0.02225 0.72663 -0.37400
O 	O 	0.94183 0.87774 0.72297 -0.37900
O 	O 	0.98426 0.06742 0.78028 -0.38200
O 	O 	0.99380 0.90434 0.78222 -0.37800
C 	C 	0.80449 0.97581 0.24699 0.27100
C 	C 	0.81769 0.99565 0.16701 0.29800
Ni	Ni	0.93899 0.11478 0.20836 1.11200
Ni	Ni	0.87689 0.90320 0.20637 1.12000
O 	O 	0.82522 0.04318 0.22874 -0.35500
O 	O 	0.81703 0.90838 0.24118 -0.37500
O 	O 	0.88754 0.06821 0.16908 -0.37100
O 	O 	0.79772 0.92882 0.18476 -0.37300
O 	O 	0.92754 0.89949 0.16938 -0.38600
O 	O 	0.95856 0.02016 0.21497 -0.71200
H 	H 	0.95331 0.01642 0.23580 0.15200
H 	H 	0.96228 0.13504 0.35988 0.05200
H 	H 	0.96365 0.13177 0.30369 0.04500
C 	C 	0.89295 0.46854 0.48205 -0.03300
C 	C 	0.84893 0.37594 0.47873 -0.07500
C 	C 	0.88365 0.33354 0.46325 0.12800
C 	C 	0.96233 0.38302 0.45214 -0.04600
C 	C 	0.97161 0.51840 0.47067 0.11000
H 	H 	0.86686 0.50161 0.49409 0.06200
Br	Br	0.82573 0.20740 0.45797 -0.21000
C 	C 	0.81865 0.16188 0.66920 0.01000
C 	C 	0.78220 0.21479 0.66907 -0.05900
C 	C 	0.77468 0.07059 0.66492 0.00100
S 	S 	0.90617 0.18648 0.68390 0.02000
C 	C 	0.89356 0.08358 0.68370 -0.08100
C 	C 	0.81618 0.02527 0.67345 0.01300
H 	H 	0.81729 0.28546 0.67282 0.04900
H 	H 	0.78839 0.95368 0.67476 0.02800
C 	C 	0.94795 0.71218 0.61654 -0.05300
C 	C 	0.93438 0.62811 0.60859 0.02100
C 	C 	0.95021 0.57582 0.62774 -0.00000
C 	C 	0.97291 0.60283 0.65579 -0.05300
S 	S 	0.96349 0.81582 0.66132 0.03200
S 	S 	0.89366 0.47048 0.61835 0.02800
C 	C 	0.85124 0.48665 0.58954 -0.06500
C 	C 	0.87919 0.57798 0.58702 -0.01900
H 	H 	0.92823 0.74897 0.60317 0.05100
H 	H 	0.97140 0.55643 0.67169 0.04700
H 	H 	0.85140 0.60534 0.57317 0.05200
C 	C 	0.98467 0.47575 0.93746 -0.10300
Br	Br	0.96350 0.33299 0.97545 -0.22200
H 	H 	0.00441 0.57523 0.90568 0.05600
C 	C 	0.80939 0.22007 0.80317 -0.05000
C 	C 	0.88746 0.23209 0.80580 0.01700
C 	C 	0.91456 0.21976 0.83217 0.00400
C 	C 	0.86403 0.19184 0.85616 -0.05200
S 	S 	0.98796 0.19625 0.82620 0.03800
C 	C 	0.99203 0.20608 0.79071 -0.07500
C 	C 	0.93199 0.22620 0.78250 -0.01500
H 	H 	0.78831 0.23073 0.78296 0.04900
H 	H 	0.88542 0.18159 0.87636 0.06000
H 	H 	0.91121 0.21966 0.76078 0.04800
C 	C 	0.93675 0.85901 0.91599 -0.01000
C 	C 	0.93389 0.89866 0.89026 -0.05600
C 	C 	0.00161 0.93326 0.87210 0.03400
C 	C 	0.00192 0.84484 0.92208 0.04100
S 	S 	0.85540 0.77704 0.93148 0.05400
C 	C 	0.89664 0.72131 0.94651 -0.06200
C 	C 	0.97981 0.76942 0.93988 -0.03700
C 	C 	0.99740 0.94728 0.84253 -0.03500
H 	H 	0.87811 0.89528 0.88342 0.05400
H 	H 	0.01902 0.74097 0.94263 0.06600
H 	H 	0.94432 0.94279 0.83255 0.04700
