data_crystal

_cell_length_a 25.87869
_cell_length_b 26.39341
_cell_length_c 35.31812
_cell_angle_alpha 95.52630
_cell_angle_beta  95.52544
_cell_angle_gamma 125.82665

_symmetry_space_group_name_	'P 1'
_symmetry_space_group_name_H-M	'P 1'

loop_
_symmetry_equiv_pos_as_xyz
  x,y,z

loop_
_atom_site_label
_atom_site_type_symbol
_atom_site_fract_x
_atom_site_fract_y
_atom_site_fract_z
_atom_site_charge
C 	C 	0.97944 0.02855 0.99376 0.11700
N 	N 	0.93785 0.96413 0.98803 -0.13800
C 	C 	0.96107 0.92954 0.98797 0.12600
N 	N 	0.02592 0.95927 0.99294 -0.13900
C 	C 	0.06773 0.02368 0.99843 0.12500
N 	N 	0.04453 0.05850 0.99951 -0.14300
C 	C 	0.93412 0.00963 0.45586 0.11800
N 	N 	0.89880 0.94609 0.45553 -0.14000
C 	C 	0.92946 0.91905 0.46183 0.12600
N 	N 	0.99525 0.95564 0.46888 -0.14000
C 	C 	0.03057 0.01931 0.47017 0.12100
N 	N 	0.99997 0.04618 0.46326 -0.14500
Cu	Cu	0.66657 0.26308 0.00693 0.92200
Cu	Cu	0.66556 0.21762 0.91737 0.87100
Cu	Cu	0.65350 0.33164 0.94658 0.91000
Cu	Cu	0.65574 0.37604 0.02978 0.89200
C 	C 	0.69375 0.32018 0.08595 0.32900
O 	O 	0.57724 0.21559 0.02124 -0.37500
C 	C 	0.64380 0.28729 0.86862 0.32900
O 	O 	0.69786 0.35434 0.99889 -0.63200
O 	O 	0.62795 0.24527 0.95165 -0.63300
O 	O 	0.72630 0.23883 0.00258 -0.38500
O 	O 	0.66738 0.16318 0.94777 -0.43100
O 	O 	0.68978 0.36670 0.07991 -0.39600
O 	O 	0.68529 0.41719 0.94229 -0.38100
C 	C 	0.69185 0.45828 0.97045 0.29800
C 	C 	0.54062 0.23461 0.01555 0.29500
O 	O 	0.56286 0.28748 0.00262 -0.39800
O 	O 	0.66164 0.43945 0.99999 -0.39400
O 	O 	0.71006 0.29545 0.05980 -0.37700
C 	C 	0.71059 0.18745 0.97986 0.30400
O 	O 	0.61928 0.30635 0.89176 -0.39500
O 	O 	0.68598 0.27833 0.88347 -0.44000
H 	H 	0.74535 0.38736 0.00254 0.15500
H 	H 	0.58013 0.21355 0.94654 0.15800
Cu	Cu	0.72975 0.34816 0.44734 0.92700
Cu	Cu	0.75656 0.30210 0.52545 0.87100
Cu	Cu	0.64286 0.30473 0.50840 0.89700
Cu	Cu	0.60503 0.34330 0.43960 0.89300
C 	C 	0.66153 0.33140 0.37212 0.32400
O 	O 	0.76423 0.44078 0.45156 -0.36300
C 	C 	0.70926 0.32639 0.58819 0.32500
O 	O 	0.63180 0.29379 0.45308 -0.64000
O 	O 	0.73683 0.35478 0.50424 -0.64000
O 	O 	0.77760 0.31107 0.43899 -0.37600
O 	O 	0.72783 0.24183 0.47964 -0.44500
O 	O 	0.63654 0.35695 0.38937 -0.39700
O 	O 	0.55033 0.25345 0.50785 -0.38300
C 	C 	0.50923 0.25838 0.48641 0.29800
C 	C 	0.73937 0.46364 0.47143 0.29400
O 	O 	0.68393 0.42426 0.48217 -0.39400
O 	O 	0.52972 0.30501 0.46679 -0.39900
O 	O 	0.70550 0.32824 0.39188 -0.37200
C 	C 	0.76013 0.25858 0.45120 0.29800
O 	O 	0.65371 0.29965 0.56390 -0.39800
O 	O 	0.76159 0.34072 0.57542 -0.43300
H 	H 	0.60310 0.24884 0.43945 0.15900
H 	H 	0.76334 0.39883 0.51922 0.17000
C 	C 	0.65581 0.27495 0.76216 0.00200
C 	C 	0.70436 0.28209 0.74330 -0.04100
C 	C 	0.70413 0.28991 0.70473 -0.04100
C 	C 	0.65629 0.29270 0.68482 0.00500
C 	C 	0.60676 0.28395 0.70336 -0.04100
C 	C 	0.60586 0.27411 0.74160 -0.03900
C 	C 	0.65410 0.29880 0.64345 0.00800
C 	C 	0.71110 0.33309 0.62812 -0.17300
C 	C 	0.65589 0.26466 0.80272 0.01100
C 	C 	0.63531 0.28932 0.82928 -0.17900
H 	H 	0.74196 0.28084 0.75842 0.03300
H 	H 	0.74018 0.29221 0.69014 0.03500
H 	H 	0.56835 0.28375 0.68795 0.03800
H 	H 	0.56563 0.26443 0.75480 0.03600
H 	H 	0.60715 0.27543 0.62477 0.04000
H 	H 	0.75800 0.36076 0.64748 0.07900
H 	H 	0.67699 0.24162 0.81259 0.02000
H 	H 	0.61232 0.31055 0.81932 0.08600
C 	C 	0.67804 0.29964 0.26859 0.00700
C 	C 	0.73471 0.32806 0.25292 -0.04000
C 	C 	0.73265 0.33458 0.21406 -0.03800
C 	C 	0.67375 0.31228 0.19054 0.00500
C 	C 	0.61656 0.28093 0.20567 -0.04100
C 	C 	0.61846 0.27365 0.24433 -0.04000
C 	C 	0.67270 0.32692 0.15134 0.01200
C 	C 	0.69579 0.30766 0.12339 -0.16900
C 	C 	0.68201 0.30075 0.31078 0.00900
C 	C 	0.65089 0.31999 0.33166 -0.16600
H 	H 	0.78073 0.34725 0.27119 0.04000
H 	H 	0.77711 0.35883 0.20263 0.04100
H 	H 	0.57077 0.26293 0.18759 0.03600
H 	H 	0.57389 0.24912 0.25565 0.03600
H 	H 	0.64918 0.34865 0.14351 0.03000
H 	H 	0.71212 0.27931 0.13022 0.08600
H 	H 	0.71458 0.29284 0.32594 0.04300
H 	H 	0.61955 0.32899 0.31607 0.07900
C 	C 	0.89166 0.85023 0.46119 -0.05000
C 	C 	0.88873 0.80936 0.43057 0.09900
C 	C 	0.86292 0.74654 0.43416 -0.08500
C 	C 	0.83844 0.72347 0.46723 -0.00900
C 	C 	0.83876 0.76353 0.49715 0.07000
C 	C 	0.86528 0.82660 0.49372 -0.05400
N 	N 	0.90989 0.82987 0.39753 -0.19900
H 	H 	0.86146 0.71535 0.41100 0.05400
C 	C 	0.81185 0.65693 0.46992 0.00500
N 	N 	0.81409 0.74197 0.52922 -0.19400
H 	H 	0.86720 0.85796 0.51700 0.04700
C 	C 	0.85366 0.64404 0.48628 -0.09900
C 	C 	0.83043 0.58138 0.48867 0.12600
C 	C 	0.76458 0.53063 0.47311 -0.11400
C 	C 	0.72265 0.54372 0.45726 -0.01900
C 	C 	0.74554 0.60639 0.45555 0.05500
H 	H 	0.90428 0.68299 0.49761 0.05600
N 	N 	0.87104 0.57060 0.50681 -0.20300
H 	H 	0.67215 0.50481 0.44554 0.02900
N 	N 	0.70370 0.61761 0.44004 -0.19100
H 	H 	0.92003 0.60813 0.51714 0.08100
H 	H 	0.85407 0.52557 0.51218 0.08200
H 	H 	0.65490 0.57990 0.42934 0.08000
H 	H 	0.71886 0.66363 0.43861 0.08700
H 	H 	0.81468 0.77197 0.55115 0.08100
H 	H 	0.79397 0.69540 0.53272 0.08700
H 	H 	0.92521 0.87480 0.39286 0.09100
H 	H 	0.90925 0.79997 0.37551 0.08400
C 	C 	0.78475 0.22351 0.43717 -0.12100
C 	C 	0.74151 0.15726 0.42250 0.12700
C 	C 	0.76525 0.12110 0.42116 -0.10200
C 	C 	0.83150 0.15037 0.43335 0.00400
C 	C 	0.87567 0.21757 0.44361 0.05300
C 	C 	0.85173 0.25356 0.44539 -0.02600
N 	N 	0.67736 0.12826 0.40960 -0.20400
H 	H 	0.73182 0.06987 0.41174 0.05500
C 	C 	0.85316 0.11003 0.43866 -0.01000
N 	N 	0.94076 0.24761 0.45242 -0.19200
H 	H 	0.88506 0.30469 0.45536 0.03100
C 	C 	0.87031 0.08969 0.40736 -0.08500
C 	C 	0.89421 0.05418 0.41189 0.09600
C 	C 	0.90123 0.03910 0.44855 -0.04900
C 	C 	0.88167 0.05725 0.47941 -0.05500
C 	C 	0.85760 0.09259 0.47489 0.06900
H 	H 	0.86574 0.10215 0.37949 0.05100
N 	N 	0.90999 0.03454 0.38099 -0.19900
H 	H 	0.88652 0.04504 0.50733 0.04400
N 	N 	0.83928 0.10988 0.50542 -0.19400
H 	H 	0.90590 0.04699 0.35424 0.08000
H 	H 	0.92512 0.00572 0.38291 0.08700
H 	H 	0.84342 0.09735 0.53212 0.07700
H 	H 	0.82027 0.13531 0.50298 0.08100
H 	H 	0.97288 0.29710 0.46093 0.07800
H 	H 	0.96023 0.22247 0.45010 0.08600
H 	H 	0.65932 0.15462 0.40747 0.08600
H 	H 	0.64521 0.07897 0.40008 0.08000
C 	C 	0.10198 0.05874 0.47746 -0.05000
C 	C 	0.13713 0.05966 0.51120 0.09700
C 	C 	0.20399 0.09006 0.51444 -0.08600
C 	C 	0.23689 0.12283 0.48585 -0.01000
C 	C 	0.20232 0.12467 0.45304 0.07000
C 	C 	0.13503 0.09227 0.44913 -0.05500
N 	N 	0.10748 0.03334 0.54100 -0.19900
H 	H 	0.23086 0.08968 0.53981 0.05200
C 	C 	0.30771 0.15566 0.49080 0.00300
N 	N 	0.23327 0.15714 0.42521 -0.19400
H 	H 	0.10810 0.09208 0.42354 0.04700
C 	C 	0.33036 0.12331 0.47436 -0.09900
C 	C 	0.39681 0.15521 0.47429 0.12000
C 	C 	0.44121 0.22056 0.49140 -0.11100
C 	C 	0.41891 0.25172 0.51001 -0.02100
C 	C 	0.35248 0.21995 0.50988 0.05600
H 	H 	0.29595 0.07365 0.46051 0.05400
N 	N 	0.41737 0.12319 0.45719 -0.20400
H 	H 	0.45323 0.30145 0.52374 0.04100
N 	N 	0.33203 0.25162 0.52762 -0.19200
H 	H 	0.38405 0.07518 0.44420 0.07900
H 	H 	0.46641 0.14524 0.45685 0.07900
H 	H 	0.36543 0.29937 0.54112 0.08100
H 	H 	0.28311 0.22921 0.52860 0.08600
H 	H 	0.20723 0.15796 0.40105 0.08000
H 	H 	0.28329 0.18206 0.42725 0.08600
H 	H 	0.05986 0.01707 0.54154 0.08900
H 	H 	0.13317 0.03186 0.56504 0.08100
C 	C 	0.72560 0.52489 0.96591 -0.11400
C 	C 	0.69466 0.55476 0.96743 0.13000
C 	C 	0.73167 0.62082 0.96960 -0.10100
C 	C 	0.79776 0.65657 0.96772 0.00400
C 	C 	0.82739 0.62578 0.96297 0.05600
C 	C 	0.79099 0.56018 0.96241 -0.02300
N 	N 	0.62939 0.52016 0.96541 -0.20400
H 	H 	0.70882 0.64440 0.97226 0.05700
C 	C 	0.83619 0.72652 0.97281 -0.00500
N 	N 	0.89062 0.65889 0.95909 -0.19200
H 	H 	0.81408 0.53677 0.96016 0.03400
C 	C 	0.86920 0.76330 0.00998 -0.09000
C 	C 	0.90900 0.82995 0.01577 0.09500
C 	C 	0.91616 0.86009 0.98357 -0.04500
C 	C 	0.88158 0.82336 0.94658 -0.05400
C 	C 	0.84158 0.75667 0.94079 0.07000
H 	H 	0.86425 0.73991 0.03446 0.05200
N 	N 	0.93964 0.86460 0.05226 -0.19900
H 	H 	0.88665 0.84676 0.92209 0.04700
N 	N 	0.80918 0.72201 0.90450 -0.19400
H 	H 	0.93499 0.84185 0.07573 0.08200
H 	H 	0.96718 0.91415 0.05787 0.09000
H 	H 	0.81381 0.74478 0.88104 0.08200
H 	H 	0.77904 0.67234 0.89914 0.08800
H 	H 	0.91233 0.63588 0.95628 0.08000
H 	H 	0.91852 0.70732 0.95811 0.08800
H 	H 	0.59944 0.47051 0.95870 0.09600
H 	H 	0.60746 0.54292 0.96838 0.08400
C 	C 	0.75341 0.16791 0.98506 -0.12100
C 	C 	0.72813 0.10389 0.98606 0.12700
C 	C 	0.77027 0.08663 0.98805 -0.10100
C 	C 	0.83716 0.13243 0.99038 0.00400
C 	C 	0.86265 0.19674 0.99054 0.05400
C 	C 	0.82042 0.21375 0.98778 -0.02200
N 	N 	0.66407 0.05927 0.98616 -0.20500
H 	H 	0.75106 0.03751 0.98828 0.05600
C 	C 	0.87983 0.11218 0.99198 -0.00600
N 	N 	0.92747 0.24231 0.99337 -0.19200
H 	H 	0.83971 0.26281 0.98718 0.03500
C 	C 	0.89166 0.09379 0.95726 -0.08500
C 	C 	0.92908 0.07117 0.95747 0.09500
C 	C 	0.95369 0.06551 0.99306 -0.04300
C 	C 	0.94460 0.08684 0.02790 -0.06100
C 	C 	0.90784 0.11022 0.02778 0.06600
H 	H 	0.87142 0.09683 0.92997 0.05000
N 	N 	0.94124 0.05507 0.92348 -0.19900
H 	H 	0.96426 0.08315 0.05515 0.04600
N 	N 	0.89936 0.13026 0.06199 -0.19400
H 	H 	0.92139 0.05772 0.89721 0.07900
H 	H 	0.97192 0.04158 0.92287 0.08500
H 	H 	0.91970 0.12801 0.08822 0.08000
H 	H 	0.87322 0.14885 0.06299 0.08600
H 	H 	0.94574 0.28961 0.99325 0.07900
H 	H 	0.96041 0.23154 0.99599 0.08700
H 	H 	0.63250 0.07146 0.98801 0.09100
H 	H 	0.64559 0.01180 0.98577 0.08100
C 	C 	0.13817 0.05554 0.00484 -0.05900
C 	C 	0.17586 0.08910 0.97742 0.10200
C 	C 	0.24193 0.11487 0.98337 -0.08000
C 	C 	0.27016 0.10523 0.01508 -0.01400
C 	C 	0.23235 0.07112 0.04225 0.06800
C 	C 	0.16696 0.04759 0.03716 -0.05300
N 	N 	0.14877 0.09541 0.94494 -0.20000
H 	H 	0.27120 0.14133 0.96276 0.05200
C 	C 	0.33978 0.13232 0.01986 0.00000
N 	N 	0.25809 0.05986 0.07281 -0.19500
H 	H 	0.13789 0.02154 0.05797 0.04400
C 	C 	0.38543 0.18989 0.04576 -0.10000
C 	C 	0.45214 0.22068 0.04779 0.12400
C 	C 	0.47331 0.19521 0.02183 -0.12100
C 	C 	0.42788 0.13560 0.99776 -0.01600
C 	C 	0.36109 0.10334 0.99689 0.05700
H 	H 	0.36898 0.21091 0.06426 0.05500
N 	N 	0.49560 0.27414 0.07498 -0.20500
H 	H 	0.44434 0.11527 0.97869 0.03200
N 	N 	0.31787 0.04486 0.97402 -0.19200
H 	H 	0.47974 0.29398 0.09316 0.07900
H 	H 	0.54512 0.29481 0.07947 0.07300
H 	H 	0.33392 0.02462 0.95636 0.07800
H 	H 	0.26827 0.01816 0.97436 0.08600
H 	H 	0.23000 0.03541 0.09300 0.07900
H 	H 	0.30561 0.07410 0.07651 0.08500
H 	H 	0.09908 0.07346 0.93821 0.08900
H 	H 	0.17739 0.12137 0.92536 0.08200
