data_crystal

_cell_length_a 28.90777
_cell_length_b 26.35488
_cell_length_c 42.19946
_cell_angle_alpha 103.69817
_cell_angle_beta  115.79285
_cell_angle_gamma 112.32705

_symmetry_space_group_name_	'P 1'
_symmetry_space_group_name_H-M	'P 1'

loop_
_symmetry_equiv_pos_as_xyz
  x,y,z

loop_
_atom_site_label
_atom_site_type_symbol
_atom_site_fract_x
_atom_site_fract_y
_atom_site_fract_z
_atom_site_charge
C 	C 	0.57334 0.25443 0.91226 0.05200
C 	C 	0.59399 0.31195 0.91226 -0.08800
C 	C 	0.63774 0.33385 0.90417 0.05200
C 	C 	0.66041 0.29803 0.89575 -0.08800
C 	C 	0.64015 0.24081 0.89601 0.05200
C 	C 	0.59630 0.21879 0.90400 -0.08800
H 	H 	0.57682 0.33996 0.91916 0.05500
H 	H 	0.69502 0.31548 0.89012 0.05400
H 	H 	0.58113 0.17479 0.90467 0.05300
C 	C 	0.57334 0.25443 0.41226 0.05100
C 	C 	0.59399 0.31195 0.41226 -0.08900
C 	C 	0.63774 0.33385 0.40417 0.05100
C 	C 	0.66041 0.29803 0.39575 -0.08900
C 	C 	0.64015 0.24081 0.39601 0.05100
C 	C 	0.59630 0.21879 0.40400 -0.08900
H 	H 	0.57682 0.33996 0.41916 0.05400
H 	H 	0.69502 0.31548 0.39012 0.05400
H 	H 	0.58113 0.17479 0.40466 0.05200
C 	C 	0.47390 0.76602 0.99043 0.05200
C 	C 	0.44614 0.79854 0.99396 -0.08700
C 	C 	0.39435 0.77138 0.99432 0.05300
C 	C 	0.37062 0.71195 0.99146 -0.08800
C 	C 	0.39808 0.67923 0.98779 0.05200
C 	C 	0.44987 0.70631 0.98738 -0.08800
H 	H 	0.46419 0.84435 0.99580 0.05800
H 	H 	0.33019 0.69073 0.99139 0.05600
H 	H 	0.47094 0.68084 0.98426 0.05500
C 	C 	0.47390 0.76602 0.49043 0.05200
C 	C 	0.44614 0.79854 0.49396 -0.08800
C 	C 	0.39435 0.77138 0.49432 0.05300
C 	C 	0.37062 0.71195 0.49146 -0.08800
C 	C 	0.39808 0.67923 0.48779 0.05200
C 	C 	0.44987 0.70631 0.48738 -0.08800
H 	H 	0.46418 0.84434 0.49580 0.05700
H 	H 	0.33019 0.69073 0.49139 0.05600
H 	H 	0.47094 0.68084 0.48426 0.05500
Zn	Zn	0.15349 0.12988 0.99150 1.18400
Zn	Zn	0.05158 0.07756 0.90415 1.19100
O 	O 	0.04429 0.97397 0.84213 -0.45700
O 	O 	0.02160 0.04851 0.84578 -0.44700
O 	O 	0.04370 0.89852 0.89768 -0.49800
C 	C 	0.21698 0.09955 0.96310 0.32200
O 	O 	0.99324 0.99230 0.89003 -0.86500
C 	C 	0.15762 0.21380 0.95607 0.33500
O 	O 	0.22427 0.13096 0.99595 -0.46700
O 	O 	0.16135 0.06054 0.92955 -0.36100
O 	O 	0.07004 0.08880 0.95894 -0.78500
O 	O 	0.09438 0.98319 0.95790 -0.44700
O 	O 	0.11654 0.16340 0.92019 -0.45600
O 	O 	0.17390 0.20975 0.98931 -0.46300
Zn	Zn	0.88034 0.89432 0.90673 1.17700
Zn	Zn	0.98567 0.92678 0.98163 1.19100
Zn	Zn	0.01476 0.00314 0.94237 1.21100
C 	C 	0.87306 0.79788 0.93371 0.34000
C 	C 	0.85026 0.93954 0.95700 0.34000
O 	O 	0.93610 0.02689 0.92762 -0.48300
Zn	Zn	0.99708 0.04455 0.01014 1.19400
O 	O 	0.93177 0.83732 0.96434 -0.45700
O 	O 	0.84551 0.81132 0.90581 -0.46600
O 	O 	0.83291 0.91943 0.91978 -0.47300
O 	O 	0.90501 0.95493 0.98522 -0.46900
C 	C 	0.02605 0.99999 0.06771 0.36500
O 	O 	0.95883 0.91779 0.92576 -0.79100
C 	C 	0.93272 0.06728 0.95038 0.34000
O 	O 	0.01522 0.95095 0.04060 -0.43700
O 	O 	0.03021 0.04846 0.06249 -0.49600
O 	O 	0.96111 0.08529 0.98884 -0.50100
O 	O 	0.03521 0.01293 0.99423 -0.89800
Zn	Zn	0.01305 0.93814 0.87019 1.18600
C 	C 	0.02984 0.00863 0.82736 0.30100
C 	C 	0.08725 0.93200 0.93638 0.33700
H 	H 	0.07967 0.03390 0.01529 0.15300
H 	H 	0.94968 0.97762 0.87118 0.15300
Zn	Zn	0.15349 0.12988 0.49150 1.18300
Zn	Zn	0.05157 0.07756 0.40415 1.19100
O 	O 	0.04429 0.97396 0.34213 -0.45700
O 	O 	0.02160 0.04851 0.34578 -0.44700
O 	O 	0.04370 0.89852 0.39768 -0.49800
C 	C 	0.21698 0.09955 0.46310 0.32200
O 	O 	0.99324 0.99230 0.39003 -0.86400
C 	C 	0.15762 0.21380 0.45607 0.33500
O 	O 	0.22427 0.13096 0.49595 -0.46800
O 	O 	0.16135 0.06054 0.42955 -0.36200
O 	O 	0.07004 0.08880 0.45894 -0.78600
O 	O 	0.09438 0.98319 0.45790 -0.44700
O 	O 	0.11654 0.16340 0.42019 -0.45600
O 	O 	0.17389 0.20975 0.48930 -0.46400
Zn	Zn	0.88034 0.89432 0.40673 1.17700
Zn	Zn	0.98567 0.92678 0.48163 1.19100
Zn	Zn	0.01475 0.00314 0.44237 1.21100
C 	C 	0.87306 0.79788 0.43371 0.34000
C 	C 	0.85026 0.93954 0.45700 0.34100
O 	O 	0.93610 0.02689 0.42762 -0.48300
Zn	Zn	0.99708 0.04455 0.51014 1.19600
O 	O 	0.93177 0.83732 0.46434 -0.45800
O 	O 	0.84551 0.81132 0.40581 -0.46600
O 	O 	0.83291 0.91943 0.41978 -0.47300
O 	O 	0.90501 0.95493 0.48522 -0.47000
C 	C 	0.02605 0.99999 0.56771 0.36400
O 	O 	0.95883 0.91779 0.42576 -0.79100
C 	C 	0.93271 0.06728 0.45038 0.34000
O 	O 	0.01522 0.95095 0.54060 -0.43500
O 	O 	0.03021 0.04846 0.56249 -0.49400
O 	O 	0.96110 0.08529 0.48884 -0.50300
O 	O 	0.03521 0.01293 0.49423 -0.90300
Zn	Zn	0.01304 0.93814 0.37019 1.18600
C 	C 	0.02984 0.00863 0.32736 0.30000
C 	C 	0.08725 0.93200 0.43638 0.33700
H 	H 	0.07967 0.03390 0.51529 0.15800
H 	H 	0.94968 0.97762 0.37118 0.15300
C 	C 	0.05683 0.96341 0.68291 -0.05300
C 	C 	0.03221 0.00147 0.66705 -0.03000
C 	C 	0.96521 0.97519 0.69242 -0.03300
C 	C 	0.03128 0.00495 0.72982 -0.01000
C 	C 	0.05628 0.96546 0.71983 -0.05900
H 	H 	0.02790 0.91386 0.65883 0.04000
H 	H 	0.10464 0.98286 0.69159 0.04300
C 	C 	0.03218 0.99981 0.63189 0.07100
H 	H 	0.94608 0.00269 0.69859 0.01700
H 	H 	0.93420 0.92679 0.68541 0.03400
C 	C 	0.03064 0.00684 0.76481 0.02900
H 	H 	0.02713 0.91686 0.71337 0.04100
H 	H 	0.10385 0.98584 0.74613 0.04800
C 	C 	0.07295 0.07205 0.73841 -0.07300
H 	H 	0.12085 0.09459 0.76510 0.04200
H 	H 	0.05600 0.10152 0.74552 0.04200
C 	C 	0.07350 0.07001 0.70153 -0.06700
H 	H 	0.05684 0.09854 0.69106 0.03700
H 	H 	0.12167 0.09158 0.71061 0.03500
C 	C 	0.96575 0.97313 0.65555 -0.06100
H 	H 	0.94681 0.99962 0.64411 0.04700
H 	H 	0.93498 0.92375 0.63094 0.04100
C 	C 	0.03048 0.99931 0.60276 -0.12900
C 	C 	0.03011 0.00800 0.79337 -0.11800
C 	C 	0.05683 0.96342 0.18291 -0.05200
C 	C 	0.03221 0.00147 0.16706 -0.03100
C 	C 	0.96521 0.97518 0.19242 -0.03300
C 	C 	0.03128 0.00495 0.22982 -0.01000
C 	C 	0.05629 0.96546 0.21983 -0.05900
H 	H 	0.02791 0.91387 0.15883 0.04000
H 	H 	0.10465 0.98287 0.19159 0.04300
C 	C 	0.03218 0.99981 0.13189 0.07100
H 	H 	0.94607 0.00268 0.19858 0.01600
H 	H 	0.93421 0.92678 0.18541 0.03300
C 	C 	0.03064 0.00684 0.26481 0.02900
H 	H 	0.02714 0.91686 0.21338 0.04100
H 	H 	0.10386 0.98585 0.24614 0.04800
C 	C 	0.07294 0.07205 0.23841 -0.07300
H 	H 	0.12084 0.09459 0.26510 0.04100
H 	H 	0.05599 0.10151 0.24551 0.04200
C 	C 	0.07350 0.07001 0.20153 -0.06600
H 	H 	0.05684 0.09853 0.19106 0.03600
H 	H 	0.12167 0.09158 0.21061 0.03400
C 	C 	0.96575 0.97312 0.15555 -0.06100
H 	H 	0.94681 0.99961 0.14411 0.04700
H 	H 	0.93498 0.92374 0.13094 0.04000
C 	C 	0.03049 0.99931 0.10277 -0.13000
C 	C 	0.03011 0.00800 0.29337 -0.11800
C 	C 	0.31753 0.50272 0.47392 0.02000
C 	C 	0.26344 0.45315 0.43652 -0.04900
C 	C 	0.23122 0.39400 0.43245 -0.02700
C 	C 	0.25292 0.38417 0.46575 -0.01400
C 	C 	0.30757 0.43345 0.50299 -0.02700
C 	C 	0.33979 0.49261 0.50707 -0.04900
C 	C 	0.34763 0.56484 0.47892 -0.01300
C 	C 	0.37154 0.61695 0.48304 -0.03100
C 	C 	0.21867 0.32384 0.46191 0.05200
C 	C 	0.19039 0.27351 0.45902 -0.12000
H 	H 	0.24586 0.46065 0.41079 0.04200
H 	H 	0.18913 0.35608 0.40353 0.03700
H 	H 	0.32476 0.42614 0.52884 0.03600
H 	H 	0.38147 0.53072 0.53609 0.04100
C 	C 	0.71675 0.89083 0.47623 -0.01300
C 	C 	0.66276 0.88758 0.45171 -0.02600
C 	C 	0.61429 0.86370 0.45551 -0.04700
C 	C 	0.61958 0.84292 0.48383 0.02100
C 	C 	0.67402 0.84726 0.50887 -0.04800
C 	C 	0.72249 0.87116 0.50508 -0.02600
C 	C 	0.76437 0.91011 0.46991 0.05700
C 	C 	0.80384 0.92462 0.46423 -0.11800
C 	C 	0.56861 0.81580 0.48651 -0.01200
C 	C 	0.52563 0.79301 0.48845 -0.03000
H 	H 	0.65793 0.90262 0.42931 0.04000
H 	H 	0.57243 0.86069 0.43614 0.04400
H 	H 	0.67853 0.83148 0.53092 0.04200
H 	H 	0.76406 0.87344 0.52411 0.03800
C 	C 	0.30020 0.85441 0.49340 0.02200
C 	C 	0.30975 0.90329 0.48395 -0.04700
C 	C 	0.27005 0.92392 0.47704 -0.02500
C 	C 	0.22057 0.89567 0.47948 -0.01600
C 	C 	0.21271 0.84873 0.49070 -0.02600
C 	C 	0.25246 0.82816 0.49767 -0.04800
C 	C 	0.33527 0.82709 0.49481 -0.01100
C 	C 	0.36308 0.80260 0.49504 -0.02900
C 	C 	0.17412 0.90962 0.46598 0.05700
C 	C 	0.13460 0.92025 0.45326 -0.13200
H 	H 	0.34670 0.92397 0.48075 0.04600
H 	H 	0.27652 0.96037 0.46847 0.04300
H 	H 	0.17466 0.82676 0.49274 0.03500
H 	H 	0.24494 0.79050 0.50512 0.04300
C 	C 	0.25292 0.38418 0.96575 -0.01000
C 	C 	0.30757 0.43345 0.00299 -0.03200
C 	C 	0.33979 0.49261 0.00707 -0.05300
C 	C 	0.31754 0.50272 0.97392 0.02500
C 	C 	0.26345 0.45315 0.93653 -0.04900
C 	C 	0.23123 0.39400 0.93245 -0.02800
C 	C 	0.21867 0.32384 0.96191 0.05100
C 	C 	0.19040 0.27351 0.95902 -0.11900
C 	C 	0.34763 0.56484 0.97892 -0.01400
C 	C 	0.37154 0.61695 0.98304 -0.02900
H 	H 	0.32475 0.42614 0.02884 0.03500
H 	H 	0.38146 0.53072 0.03610 0.04100
H 	H 	0.24587 0.46065 0.91079 0.04200
H 	H 	0.18914 0.35608 0.90353 0.03700
C 	C 	0.71675 0.89083 0.97623 -0.00800
C 	C 	0.66276 0.88758 0.95171 -0.02600
C 	C 	0.61429 0.86370 0.95551 -0.04800
C 	C 	0.61958 0.84292 0.98383 0.02600
C 	C 	0.67402 0.84726 0.00887 -0.05200
C 	C 	0.72249 0.87116 0.00508 -0.03100
C 	C 	0.76438 0.91011 0.96991 0.05600
C 	C 	0.80384 0.92463 0.96423 -0.11600
C 	C 	0.56861 0.81580 0.98651 -0.01300
C 	C 	0.52563 0.79301 0.98845 -0.02800
H 	H 	0.65793 0.90262 0.92931 0.04000
H 	H 	0.57243 0.86070 0.93614 0.04400
H 	H 	0.67853 0.83148 0.03092 0.04100
H 	H 	0.76406 0.87344 0.02411 0.03800
C 	C 	0.30020 0.85441 0.99340 0.01900
C 	C 	0.25246 0.82816 0.99767 -0.04200
C 	C 	0.21271 0.84873 0.99070 -0.02800
C 	C 	0.22057 0.89567 0.97948 -0.01400
C 	C 	0.27005 0.92393 0.97704 -0.02600
C 	C 	0.30976 0.90330 0.98396 -0.04600
C 	C 	0.33527 0.82709 0.99481 -0.00900
C 	C 	0.36308 0.80260 0.99504 -0.03000
C 	C 	0.17412 0.90962 0.96598 0.05700
C 	C 	0.13460 0.92025 0.95326 -0.13200
H 	H 	0.24493 0.79049 0.00512 0.03800
H 	H 	0.17465 0.82675 0.99273 0.03700
H 	H 	0.27653 0.96039 0.96848 0.04300
H 	H 	0.34671 0.92399 0.98076 0.04600
C 	C 	0.72742 0.15267 0.38896 0.02000
C 	C 	0.71069 0.09720 0.39145 -0.05200
C 	C 	0.74910 0.07499 0.39817 -0.02800
C 	C 	0.80441 0.10825 0.40247 -0.02200
C 	C 	0.81922 0.16159 0.39752 -0.02700
C 	C 	0.78077 0.18375 0.39075 -0.05100
C 	C 	0.69461 0.18190 0.38986 -0.01500
C 	C 	0.66884 0.20790 0.39202 -0.03300
C 	C 	0.84956 0.09301 0.41757 0.05200
C 	C 	0.88764 0.08104 0.43178 -0.14300
H 	H 	0.66932 0.07271 0.38987 0.03800
H 	H 	0.73720 0.03353 0.40179 0.03100
H 	H 	0.86176 0.18739 0.40061 0.03100
H 	H 	0.79379 0.22648 0.38859 0.04000
C 	C 	0.71245 0.50686 0.41266 0.02000
C 	C 	0.74655 0.56069 0.44956 -0.04900
C 	C 	0.77826 0.61996 0.45368 -0.02700
C 	C 	0.77602 0.62560 0.42092 -0.01500
C 	C 	0.74100 0.57182 0.38382 -0.02700
C 	C 	0.70930 0.51256 0.37971 -0.04900
C 	C 	0.68447 0.44585 0.40942 -0.01400
C 	C 	0.66233 0.39476 0.40689 -0.03200
C 	C 	0.81047 0.68643 0.42554 0.05300
C 	C 	0.83925 0.73733 0.42933 -0.12100
H 	H 	0.74929 0.55661 0.47519 0.04200
H 	H 	0.80505 0.66136 0.48240 0.03700
H 	H 	0.73888 0.57586 0.35833 0.03400
H 	H 	0.68313 0.47113 0.35111 0.04000
C 	C 	0.45147 0.19402 0.44056 0.01900
C 	C 	0.45256 0.23762 0.46788 -0.04900
C 	C 	0.40818 0.21738 0.47550 -0.02800
C 	C 	0.36253 0.15344 0.45586 -0.01400
C 	C 	0.36256 0.10967 0.42945 -0.02900
C 	C 	0.40696 0.12993 0.42182 -0.05000
C 	C 	0.49448 0.21520 0.43062 -0.01500
C 	C 	0.53036 0.23308 0.42221 -0.03200
C 	C 	0.31226 0.13352 0.45958 0.04900
C 	C 	0.26926 0.11755 0.46178 -0.11700
H 	H 	0.48703 0.28722 0.48263 0.04100
H 	H 	0.40838 0.25149 0.49590 0.03700
H 	H 	0.32737 0.06017 0.41411 0.03200
H 	H 	0.40604 0.09592 0.40082 0.03800
C 	C 	0.80441 0.10825 0.90248 -0.02200
C 	C 	0.81923 0.16160 0.89753 -0.02700
C 	C 	0.78077 0.18376 0.89076 -0.05100
C 	C 	0.72742 0.15267 0.88896 0.02000
C 	C 	0.71069 0.09719 0.89145 -0.05100
C 	C 	0.74909 0.07499 0.89816 -0.02700
C 	C 	0.84956 0.09301 0.91757 0.05300
C 	C 	0.88764 0.08104 0.93178 -0.14200
C 	C 	0.69461 0.18190 0.88987 -0.01500
C 	C 	0.66884 0.20790 0.89202 -0.03200
H 	H 	0.86177 0.18740 0.90063 0.03100
H 	H 	0.79380 0.22650 0.88861 0.04100
H 	H 	0.66931 0.07270 0.88985 0.03800
H 	H 	0.73720 0.03352 0.90178 0.03100
C 	C 	0.77602 0.62560 0.92092 -0.01500
C 	C 	0.74101 0.57182 0.88382 -0.02700
C 	C 	0.70931 0.51256 0.87971 -0.04900
C 	C 	0.71245 0.50686 0.91266 0.02000
C 	C 	0.74654 0.56069 0.94956 -0.04800
C 	C 	0.77825 0.61996 0.95368 -0.02600
C 	C 	0.81047 0.68643 0.92554 0.05400
C 	C 	0.83925 0.73733 0.92933 -0.12000
C 	C 	0.68447 0.44585 0.90942 -0.01400
C 	C 	0.66233 0.39476 0.90689 -0.03100
H 	H 	0.73890 0.57586 0.85833 0.03400
H 	H 	0.68314 0.47113 0.85112 0.04000
H 	H 	0.74928 0.55662 0.97519 0.04200
H 	H 	0.80504 0.66136 0.98240 0.03800
C 	C 	0.45147 0.19402 0.94056 0.01900
C 	C 	0.45256 0.23762 0.96788 -0.04900
C 	C 	0.40818 0.21738 0.97550 -0.02800
C 	C 	0.36253 0.15344 0.95586 -0.01400
C 	C 	0.36256 0.10967 0.92945 -0.02900
C 	C 	0.40696 0.12993 0.92182 -0.05000
C 	C 	0.49448 0.21521 0.93062 -0.01400
C 	C 	0.53036 0.23308 0.92221 -0.03200
C 	C 	0.31226 0.13352 0.95958 0.04900
C 	C 	0.26926 0.11755 0.96178 -0.11700
H 	H 	0.48703 0.28723 0.98263 0.04200
H 	H 	0.40838 0.25149 0.99590 0.03800
H 	H 	0.32737 0.06017 0.91411 0.03300
H 	H 	0.40605 0.09592 0.90082 0.03800
