data_crystal

_cell_length_a 43.25131
_cell_length_b 42.64101
_cell_length_c 22.74215
_cell_angle_alpha 89.94959
_cell_angle_beta  89.96114
_cell_angle_gamma 89.85030

_symmetry_space_group_name_	'P 1'
_symmetry_space_group_name_H-M	'P 1'

loop_
_symmetry_equiv_pos_as_xyz
  x,y,z

loop_
_atom_site_label
_atom_site_type_symbol
_atom_site_fract_x
_atom_site_fract_y
_atom_site_fract_z
_atom_site_charge
C 	C 	0.50263 0.52803 0.96322 0.01400
C 	C 	0.51555 0.50012 0.93916 0.02500
C 	C 	0.47290 0.52749 0.98824 -0.03600
C 	C 	0.45611 0.49933 0.99022 0.02100
C 	C 	0.49861 0.47205 0.94063 -0.05200
C 	C 	0.46926 0.47132 0.96709 0.02600
H 	H 	0.50774 0.45119 0.91966 0.06500
H 	H 	0.46297 0.54875 0.00627 0.05400
C 	C 	0.45154 0.44356 0.96803 -0.01800
C 	C 	0.42220 0.44263 0.99447 0.03900
C 	C 	0.41316 0.41197 0.01180 -0.05700
C 	C 	0.43607 0.38952 0.00066 0.00400
S 	S 	0.46601 0.40721 0.96847 0.04100
H 	H 	0.39200 0.40690 0.03543 0.06900
C 	C 	0.42683 0.49778 0.01762 -0.01300
C 	C 	0.40966 0.46992 0.01865 0.00600
C 	C 	0.37740 0.47489 0.02629 -0.04100
C 	C 	0.36966 0.50670 0.03145 0.00800
S 	S 	0.40209 0.52764 0.02409 0.02300
H 	H 	0.36032 0.45677 0.01896 0.06500
C 	C 	0.55040 0.55622 0.93928 0.01600
C 	C 	0.51989 0.55605 0.95985 0.00100
S 	S 	0.51516 0.58738 0.00278 0.00600
C 	C 	0.55071 0.60233 0.99606 0.02500
C 	C 	0.56770 0.58256 0.95886 -0.04900
C 	C 	0.54516 0.50147 0.91288 -0.01500
C 	C 	0.56323 0.52875 0.91574 0.02100
C 	C 	0.59554 0.52282 0.91041 -0.04500
C 	C 	0.60232 0.49096 0.90275 0.00500
S 	S 	0.56916 0.47103 0.90560 0.04000
H 	H 	0.61314 0.54018 0.91921 0.06100
H 	H 	0.59067 0.58815 0.94320 0.07000
C 	C 	0.42275 0.29008 0.00356 0.02400
C 	C 	0.39941 0.30976 0.98166 0.00900
C 	C 	0.40359 0.34227 0.98100 -0.01600
C 	C 	0.43135 0.35531 0.00162 0.02600
C 	C 	0.45487 0.33552 0.02256 -0.02400
C 	C 	0.45064 0.30304 0.02327 0.00000
H 	H 	0.37804 0.29986 0.96531 0.08400
H 	H 	0.38546 0.35724 0.96378 0.06800
H 	H 	0.47637 0.34531 0.03852 0.06500
H 	H 	0.46898 0.28794 0.03928 0.07800
C 	C 	0.27876 0.54277 0.99872 0.04300
C 	C 	0.28351 0.52000 0.04233 -0.01400
C 	C 	0.31317 0.50815 0.05268 -0.01800
C 	C 	0.33840 0.51919 0.01987 0.01900
C 	C 	0.33361 0.54205 0.97621 -0.00900
C 	C 	0.30396 0.55403 0.96620 -0.00700
H 	H 	0.26421 0.51150 0.06816 0.07800
H 	H 	0.31660 0.49058 0.08652 0.06300
H 	H 	0.35273 0.55039 0.94978 0.06400
H 	H 	0.30053 0.57195 0.93302 0.08700
C 	C 	0.69082 0.44908 0.93435 0.03200
C 	C 	0.68767 0.47311 0.89263 0.00000
C 	C 	0.65879 0.48690 0.88269 -0.02500
C 	C 	0.63289 0.47701 0.91486 0.03600
C 	C 	0.63629 0.45365 0.95804 -0.02800
C 	C 	0.66517 0.43980 0.96776 0.00900
H 	H 	0.70755 0.48093 0.86764 0.08100
H 	H 	0.65648 0.50508 0.84966 0.06900
H 	H 	0.61668 0.44639 0.98433 0.06600
H 	H 	0.66759 0.42175 0.00102 0.07200
C 	C 	0.57051 0.70008 0.01350 0.02500
C 	C 	0.58750 0.67789 0.04572 -0.00300
C 	C 	0.58112 0.64591 0.03971 -0.02000
C 	C 	0.55732 0.63597 0.00232 0.01100
C 	C 	0.54015 0.65820 0.97047 -0.01200
C 	C 	0.54658 0.69015 0.97640 0.00300
H 	H 	0.60575 0.68541 0.07507 0.08000
H 	H 	0.59453 0.62890 0.06433 0.06200
H 	H 	0.52194 0.65074 0.94098 0.06400
H 	H 	0.53309 0.70717 0.95197 0.07900
Zn	Zn	0.38603 0.09647 0.01654 1.22400
C 	C 	0.41830 0.15535 0.00466 0.32500
O 	O 	0.39514 0.07148 0.94549 -0.41400
O 	O 	0.44281 0.14137 0.02666 -0.40800
O 	O 	0.43871 0.09862 0.92364 -0.42600
C 	C 	0.42643 0.08582 0.11379 0.31700
O 	O 	0.40251 0.10215 0.09573 -0.43400
O 	O 	0.44627 0.07457 0.07561 -0.49800
C 	C 	0.41679 0.07926 0.90771 0.30900
O 	O 	0.35789 0.05356 0.05478 -0.29300
Zn	Zn	0.45515 0.09645 0.00257 1.18000
O 	O 	0.39457 0.13880 0.98642 -0.36300
C 	C 	0.33363 0.07005 0.04144 0.28900
O 	O 	0.33900 0.09743 0.01917 -0.30700
C 	C 	0.49980 0.96641 0.55778 0.01700
C 	C 	0.47485 0.98817 0.55884 0.01900
C 	C 	0.52252 0.96858 0.51369 -0.04900
C 	C 	0.52083 0.99248 0.47116 0.01600
C 	C 	0.47282 0.01161 0.51553 -0.05000
C 	C 	0.49580 0.01413 0.47213 0.02200
H 	H 	0.45364 0.02799 0.51599 0.06500
H 	H 	0.54151 0.95198 0.51279 0.06100
C 	C 	0.49517 0.03864 0.43039 -0.01400
C 	C 	0.51743 0.04079 0.38573 0.01900
C 	C 	0.50703 0.05842 0.33623 -0.05400
C 	C 	0.47655 0.06918 0.34183 0.01500
S 	S 	0.46317 0.05639 0.40631 0.02800
H 	H 	0.51967 0.06003 0.29531 0.05300
C 	C 	0.54410 0.99597 0.42802 -0.01200
C 	C 	0.54181 0.01895 0.38393 0.01300
C 	C 	0.55854 0.01111 0.33191 -0.03700
C 	C 	0.57349 0.98194 0.33522 -0.01300
S 	S 	0.56532 0.96656 0.40110 0.02900
H 	H 	0.55654 0.02407 0.29122 0.04600
C 	C 	0.48000 0.94206 0.64808 0.01200
C 	C 	0.50109 0.94278 0.60123 -0.01200
S 	S 	0.53334 0.92486 0.62365 0.03300
C 	C 	0.52143 0.91373 0.69024 -0.01600
C 	C 	0.49138 0.92535 0.69792 -0.03900
C 	C 	0.45260 0.98601 0.60417 -0.01500
C 	C 	0.45594 0.96429 0.65033 0.01900
C 	C 	0.44133 0.97421 0.70349 -0.05600
C 	C 	0.42728 0.00374 0.69895 0.02200
S 	S 	0.43301 0.01665 0.63067 0.03200
H 	H 	0.44486 0.96282 0.74545 0.05500
H 	H 	0.47976 0.92481 0.74002 0.05000
Zn	Zn	0.61703 0.89049 0.01300 1.22300
C 	C 	0.58175 0.83394 0.02716 0.33600
O 	O 	0.60072 0.88446 0.93291 -0.41700
O 	O 	0.55833 0.84887 0.00315 -0.40400
O 	O 	0.55780 0.91399 0.94997 -0.50000
C 	C 	0.58646 0.91277 0.11897 0.33700
O 	O 	0.60976 0.91653 0.08254 -0.44900
O 	O 	0.56328 0.89463 0.10458 -0.45100
C 	C 	0.57747 0.90124 0.91316 0.34500
O 	O 	0.64774 0.93215 0.97778 -0.30000
Zn	Zn	0.54783 0.89463 0.02496 1.18200
O 	O 	0.60594 0.84952 0.04614 -0.38700
C 	C 	0.67076 0.91280 0.98345 0.30600
O 	O 	0.66359 0.88525 0.00308 -0.31600
Zn	Zn	0.10948 0.63245 0.94788 1.22700
C 	C 	0.08468 0.69472 0.96000 0.33300
O 	O 	0.09859 0.63360 0.03167 -0.41100
O 	O 	0.06000 0.68200 0.98368 -0.39900
O 	O 	0.05011 0.61456 0.01727 -0.50300
C 	C 	0.07136 0.62759 0.84357 0.30900
O 	O 	0.09391 0.61482 0.87411 -0.44600
O 	O 	0.05240 0.64739 0.86908 -0.44300
C 	C 	0.07389 0.61945 0.05182 0.34500
O 	O 	0.13357 0.58335 0.96382 -0.29200
Zn	Zn	0.04082 0.64167 0.95064 1.18400
O 	O 	0.10452 0.67735 0.93059 -0.38400
C 	C 	0.15920 0.59893 0.96000 0.28600
O 	O 	0.15639 0.62867 0.94994 -0.30400
C 	C 	0.98952 0.49058 0.39487 0.01800
C 	C 	0.01035 0.51645 0.39517 0.02000
C 	C 	0.98045 0.47668 0.44814 -0.05000
C 	C 	0.99087 0.48904 0.50185 0.01800
C 	C 	0.02136 0.52834 0.44877 -0.05100
C 	C 	0.01155 0.51503 0.50217 0.01900
H 	H 	0.03724 0.54794 0.44894 0.06100
H 	H 	0.96608 0.45591 0.44775 0.06100
C 	C 	0.02210 0.52662 0.55685 -0.01200
C 	C 	0.00985 0.51554 0.60999 0.01500
C 	C 	0.01258 0.53727 0.65702 -0.05500
C 	C 	0.02631 0.56553 0.64003 0.01500
S 	S 	0.03544 0.56282 0.56883 0.01900
H 	H 	0.00624 0.53206 0.70201 0.05000
C 	C 	0.98170 0.47586 0.55618 -0.01200
C 	C 	0.98952 0.49009 0.60962 0.01400
C 	C 	0.96896 0.48257 0.65625 -0.05500
C 	C 	0.94476 0.46301 0.63871 0.01400
S 	S 	0.94961 0.45494 0.56739 0.01900
H 	H 	0.97255 0.48957 0.70146 0.04900
C 	C 	0.98797 0.49283 0.28703 0.01200
C 	C 	0.97963 0.47841 0.34015 -0.01400
S 	S 	0.94667 0.45889 0.32862 0.03200
C 	C 	0.94210 0.46814 0.25765 -0.01700
C 	C 	0.96711 0.48667 0.24048 -0.04100
C 	C 	0.01789 0.53082 0.34106 -0.01600
C 	C 	0.00775 0.51851 0.28764 0.01300
C 	C 	0.02573 0.52814 0.23882 -0.04200
C 	C 	0.05027 0.54778 0.25440 -0.01600
S 	S 	0.04887 0.55296 0.32740 0.03300
H 	H 	0.02066 0.52162 0.19384 0.04800
H 	H 	0.96976 0.49600 0.19646 0.04600
Zn	Zn	0.87224 0.38569 0.94926 1.23000
C 	C 	0.91109 0.33144 0.96474 0.33300
O 	O 	0.88386 0.38929 0.03270 -0.38400
O 	O 	0.93248 0.35003 0.98608 -0.41300
O 	O 	0.92630 0.41893 0.01309 -0.50500
C 	C 	0.90725 0.39746 0.84292 0.31000
O 	O 	0.88269 0.40516 0.87380 -0.44700
O 	O 	0.93034 0.38291 0.86848 -0.47700
C 	C 	0.90519 0.40902 0.05006 0.34400
O 	O 	0.83684 0.42746 0.96158 -0.26800
Zn	Zn	0.94133 0.39305 0.94872 1.17900
O 	O 	0.88795 0.34313 0.93426 -0.37700
C 	C 	0.81583 0.40583 0.96065 0.28700
O 	O 	0.82587 0.37752 0.95277 -0.30300
C 	C 	0.01433 0.97444 0.15132 0.01700
C 	C 	0.02967 0.00392 0.15092 0.02200
C 	C 	0.98302 0.97261 0.13511 -0.04800
C 	C 	0.96702 0.99972 0.11740 0.01700
C 	C 	0.01351 0.03114 0.13429 -0.05000
C 	C 	0.98237 0.02922 0.11706 0.02300
H 	H 	0.02471 0.05379 0.13695 0.06300
H 	H 	0.97090 0.95048 0.13846 0.06100
C 	C 	0.96528 0.05636 0.10217 -0.01400
C 	C 	0.93461 0.05448 0.08265 0.02000
C 	C 	0.92510 0.08097 0.04913 -0.04700
C 	C 	0.94876 0.10293 0.04134 0.00600
S 	S 	0.98022 0.08967 0.07631 0.03400
H 	H 	0.90171 0.08458 0.03359 0.06100
C 	C 	0.93530 0.99870 0.10263 -0.01000
C 	C 	0.91958 0.02544 0.08256 0.01900
C 	C 	0.89295 0.01840 0.04846 -0.04100
C 	C 	0.88849 0.98616 0.04085 0.00500
S 	S 	0.91671 0.96732 0.07683 0.02400
H 	H 	0.87693 0.03594 0.03230 0.06700
C 	C 	0.06233 0.94899 0.18419 0.01700
C 	C 	0.03070 0.94761 0.17052 -0.01000
S 	S 	0.02298 0.91101 0.14952 0.02300
C 	C 	0.05800 0.89552 0.15967 0.00600
C 	C 	0.07775 0.91961 0.17780 -0.04400
C 	C 	0.06063 0.00533 0.17039 -0.01000
C 	C 	0.07727 0.97814 0.18489 0.01800
C 	C 	0.10988 0.98230 0.18248 -0.04500
C 	C 	0.11834 0.01272 0.16579 0.00900
S 	S 	0.08608 0.03309 0.15215 0.02900
H 	H 	0.12647 0.96361 0.18908 0.06700
H 	H 	0.10262 0.91691 0.17888 0.06600
C 	C 	0.93170 0.19948 0.00025 0.00800
C 	C 	0.91952 0.17576 0.96452 0.01500
C 	C 	0.92546 0.14428 0.97759 -0.01900
C 	C 	0.94310 0.13624 0.02721 0.02900
C 	C 	0.95461 0.16006 0.06380 -0.02600
C 	C 	0.94891 0.19152 0.05032 0.00600
H 	H 	0.90568 0.18174 0.92642 0.08200
H 	H 	0.91637 0.12613 0.94918 0.06800
H 	H 	0.96753 0.15426 0.10310 0.06500
H 	H 	0.95785 0.20973 0.07878 0.07300
C 	C 	0.79752 0.95199 0.00606 0.00700
C 	C 	0.81274 0.94318 0.05796 0.00800
C 	C 	0.84285 0.95353 0.06880 -0.02600
C 	C 	0.85818 0.97227 0.02718 0.02800
C 	C 	0.84345 0.97973 0.97399 -0.02000
C 	C 	0.81332 0.96944 0.96329 0.01500
H 	H 	0.80090 0.92914 0.09065 0.07800
H 	H 	0.85386 0.94776 0.11019 0.06600
H 	H 	0.85515 0.99398 0.94143 0.06600
H 	H 	0.80191 0.97581 0.92259 0.07500
C 	C 	0.20938 0.03606 0.10672 0.03000
C 	C 	0.19635 0.00713 0.09135 0.00300
C 	C 	0.16630 0.99977 0.10912 -0.02700
C 	C 	0.14903 0.02131 0.14255 0.03600
C 	C 	0.16161 0.05081 0.15554 -0.02200
C 	C 	0.19158 0.05825 0.13727 0.00200
H 	H 	0.20969 0.99020 0.06641 0.07600
H 	H 	0.15650 0.97732 0.09706 0.06200
H 	H 	0.14839 0.06774 0.18072 0.07000
H 	H 	0.20119 0.08099 0.14784 0.08600
C 	C 	0.08562 0.81495 0.06105 0.03500
C 	C 	0.09525 0.84489 0.04334 -0.00500
C 	C 	0.08694 0.87123 0.07640 -0.02600
C 	C 	0.06871 0.86780 0.12713 0.03000
C 	C 	0.05915 0.83787 0.14480 -0.02400
C 	C 	0.06754 0.81155 0.11187 -0.00500
H 	H 	0.10886 0.84776 0.00369 0.07900
H 	H 	0.09410 0.89432 0.06197 0.06000
H 	H 	0.04490 0.83504 0.18363 0.06600
H 	H 	0.05962 0.78855 0.12531 0.07700
C 	C 	0.89997 0.24736 0.01436 -0.01100
C 	C 	0.92519 0.23273 0.98692 0.10800
C 	C 	0.94492 0.25025 0.94969 -0.14200
C 	C 	0.93923 0.28246 0.94173 0.08100
C 	C 	0.91461 0.29729 0.97067 -0.01400
C 	C 	0.89476 0.27974 0.00759 -0.06900
C 	C 	0.86825 0.29553 0.04010 0.77100
H 	H 	0.88482 0.23351 0.04199 0.09800
H 	H 	0.95418 0.29623 0.91356 0.06900
C 	C 	0.97213 0.23469 0.91893 0.79400
F 	F 	0.85331 0.27500 0.07772 -0.42300
F 	F 	0.84686 0.30673 0.00006 -0.42500
F 	F 	0.87932 0.32024 0.07332 -0.43400
F 	F 	0.96166 0.21086 0.88295 -0.43600
F 	F 	0.99223 0.22233 0.96021 -0.43700
F 	F 	0.98846 0.25569 0.88443 -0.43400
C 	C 	0.91120 0.40997 0.78276 -0.05900
C 	C 	0.93379 0.39718 0.74542 -0.00100
C 	C 	0.94256 0.41309 0.69439 -0.02900
C 	C 	0.92881 0.44192 0.67995 -0.02100
C 	C 	0.90347 0.45295 0.71351 0.09000
C 	C 	0.89498 0.43696 0.76508 -0.04500
H 	H 	0.96149 0.40404 0.66811 0.05700
H 	H 	0.87659 0.44625 0.79246 0.07000
H 	H 	0.94561 0.37566 0.75734 0.06100
N 	N 	0.88751 0.47899 0.69681 -0.19500
H 	H 	0.89216 0.49023 0.65696 0.10400
H 	H 	0.86949 0.48766 0.72283 0.10600
C 	C 	0.92396 0.44962 0.21566 0.07800
C 	C 	0.93166 0.41816 0.20526 -0.08200
C 	C 	0.92227 0.40355 0.15327 0.06400
C 	C 	0.90544 0.42039 0.11098 -0.12500
C 	C 	0.89448 0.45084 0.12457 0.18000
C 	C 	0.90381 0.46518 0.17718 -0.12200
H 	H 	0.93012 0.37993 0.14384 0.05300
H 	H 	0.89701 0.48919 0.18628 0.08300
H 	H 	0.94683 0.40575 0.23527 0.07200
N 	N 	0.87571 0.46662 0.08677 -0.20400
H 	H 	0.86782 0.45623 0.04809 0.14800
H 	H 	0.86824 0.48936 0.09653 0.13500
C 	C 	0.11368 0.73497 0.01497 0.06400
C 	C 	0.09166 0.72777 0.97191 0.00100
C 	C 	0.07285 0.75184 0.94839 -0.07800
C 	C 	0.07241 0.78129 0.97604 0.02100
C 	C 	0.09205 0.78744 0.02364 0.07100
C 	C 	0.11478 0.76512 0.03984 -0.12400
C 	C 	0.13864 0.77254 0.08660 0.78900
H 	H 	0.12866 0.71656 0.03157 0.09700
H 	H 	0.05570 0.79888 0.96264 0.08700
C 	C 	0.05150 0.74552 0.89691 0.77500
F 	F 	0.16321 0.75169 0.08438 -0.40800
F 	F 	0.12513 0.77066 0.14159 -0.43400
F 	F 	0.15032 0.80240 0.07841 -0.43000
F 	F 	0.02521 0.73045 0.91671 -0.45700
F 	F 	0.06614 0.72686 0.85557 -0.43300
F 	F 	0.04283 0.77318 0.86946 -0.42900
C 	C 	0.06439 0.61597 0.78367 -0.04800
C 	C 	0.07970 0.58940 0.76153 -0.00300
C 	C 	0.06889 0.57459 0.71084 -0.02600
C 	C 	0.04264 0.58609 0.68161 -0.02200
C 	C 	0.02928 0.61482 0.69975 0.09500
C 	C 	0.04027 0.62956 0.75088 -0.04700
H 	H 	0.07982 0.55307 0.69619 0.05800
H 	H 	0.02948 0.65109 0.76588 0.08400
H 	H 	0.09909 0.57931 0.78504 0.06400
N 	N 	0.00578 0.62815 0.66877 -0.19500
H 	H 	0.99820 0.61859 0.62908 0.10400
H 	H 	0.99540 0.64888 0.68343 0.11000
C 	C 	0.06232 0.57151 0.21371 0.07500
C 	C 	0.08709 0.56385 0.17669 -0.08000
C 	C 	0.09279 0.58164 0.12624 0.06800
C 	C 	0.07359 0.60710 0.11214 -0.13000
C 	C 	0.05091 0.61713 0.15296 0.16600
C 	C 	0.04527 0.59898 0.20341 -0.12200
H 	H 	0.11076 0.57429 0.09597 0.06500
H 	H 	0.02662 0.60538 0.23301 0.07600
H 	H 	0.10067 0.54291 0.18491 0.07800
N 	N 	0.03458 0.64400 0.14393 -0.20800
H 	H 	0.03983 0.65906 0.10911 0.10600
H 	H 	0.01714 0.65069 0.17321 0.10400
C 	C 	0.70997 0.95117 0.01656 0.06700
C 	C 	0.70297 0.92411 0.98425 0.00200
C 	C 	0.72689 0.90762 0.95484 -0.06700
C 	C 	0.75777 0.91676 0.96371 -0.00000
C 	C 	0.76479 0.94348 0.99695 0.10700
C 	C 	0.74063 0.96167 0.02172 -0.14500
C 	C 	0.74757 0.99153 0.05566 0.79200
H 	H 	0.69149 0.96366 0.03874 0.08000
H 	H 	0.77645 0.90305 0.94492 0.09700
C 	C 	0.71976 0.87979 0.91554 0.77400
F 	F 	0.72085 0.00803 0.06890 -0.43500
F 	F 	0.76637 0.01101 0.02276 -0.44200
F 	F 	0.76230 0.98409 0.10780 -0.44300
F 	F 	0.69455 0.88620 0.88003 -0.42500
F 	F 	0.71345 0.85382 0.94993 -0.40900
F 	F 	0.74450 0.87271 0.87918 -0.42200
C 	C 	0.54280 0.90996 0.73988 0.07500
C 	C 	0.54776 0.88019 0.76411 -0.08200
C 	C 	0.56243 0.87710 0.81856 0.06300
C 	C 	0.57190 0.90382 0.84959 -0.13700
C 	C 	0.56995 0.93363 0.82234 0.16700
C 	C 	0.55495 0.93651 0.76782 -0.12500
H 	H 	0.56445 0.85410 0.83852 0.05200
H 	H 	0.55184 0.95948 0.74815 0.07300
H 	H 	0.53886 0.85954 0.74222 0.07900
N 	N 	0.58238 0.95940 0.84825 -0.20700
H 	H 	0.59562 0.95754 0.88650 0.11200
H 	H 	0.57988 0.98152 0.82896 0.10200
C 	C 	0.58096 0.96303 0.28228 0.07200
C 	C 	0.57298 0.93113 0.27922 -0.08000
C 	C 	0.57577 0.91482 0.22623 0.05600
C 	C 	0.58553 0.93028 0.17499 -0.13600
C 	C 	0.59350 0.96254 0.17777 0.15900
C 	C 	0.59323 0.97787 0.23239 -0.12200
H 	H 	0.56971 0.89019 0.22472 0.07300
H 	H 	0.60047 0.00216 0.23506 0.08000
H 	H 	0.56392 0.91906 0.31736 0.07400
N 	N 	0.59929 0.97937 0.12812 -0.20500
H 	H 	0.59269 0.97122 0.08677 0.09000
H 	H 	0.60777 0.00225 0.13105 0.10900
C 	C 	0.29605 0.04943 0.11396 0.07000
C 	C 	0.30214 0.05958 0.05645 0.00300
C 	C 	0.27809 0.05982 0.01414 -0.07900
C 	C 	0.24771 0.05314 0.03220 0.01000
C 	C 	0.24157 0.04330 0.08985 0.08400
C 	C 	0.26611 0.04017 0.13067 -0.13000
C 	C 	0.26028 0.02808 0.19256 0.79000
H 	H 	0.31465 0.04915 0.14586 0.08500
H 	H 	0.22874 0.05543 0.00137 0.09100
C 	C 	0.28448 0.06787 0.95019 0.78300
F 	F 	0.28766 0.02217 0.22214 -0.42900
F 	F 	0.24377 0.00036 0.19066 -0.43500
F 	F 	0.24368 0.05014 0.22408 -0.43600
F 	F 	0.31101 0.05290 0.93075 -0.43500
F 	F 	0.28807 0.09994 0.94445 -0.41200
F 	F 	0.26039 0.05852 0.91420 -0.42400
C 	C 	0.41937 0.06237 0.85129 -0.03700
C 	C 	0.39302 0.04958 0.82470 0.00500
C 	C 	0.39583 0.03123 0.77410 -0.01600
C 	C 	0.42499 0.02529 0.74944 -0.01900
C 	C 	0.45172 0.03900 0.77504 0.09200
C 	C 	0.44855 0.05745 0.82580 -0.04300
H 	H 	0.37532 0.02111 0.75456 0.07200
H 	H 	0.46895 0.06738 0.84616 0.05600
H 	H 	0.37035 0.05358 0.84357 0.10000
N 	N 	0.48035 0.03448 0.75149 -0.19500
H 	H 	0.48367 0.02183 0.71281 0.09700
H 	H 	0.49982 0.04418 0.77161 0.09800
C 	C 	0.43204 0.08144 0.17686 -0.05600
C 	C 	0.43735 0.05126 0.19901 0.00400
C 	C 	0.44917 0.04725 0.25557 -0.02900
C 	C 	0.45637 0.07342 0.29031 -0.01900
C 	C 	0.44835 0.10382 0.27029 0.09700
C 	C 	0.43624 0.10758 0.21331 -0.04000
H 	H 	0.45456 0.02383 0.27113 0.05300
H 	H 	0.43138 0.13090 0.19657 0.07300
H 	H 	0.43355 0.03092 0.17142 0.04800
N 	N 	0.45251 0.12938 0.30510 -0.19500
H 	H 	0.46002 0.12714 0.34853 0.11200
H 	H 	0.44738 0.15183 0.28937 0.11900
C 	C 	0.42687 0.23910 0.95180 0.01000
C 	C 	0.41873 0.25570 0.00271 0.08100
C 	C 	0.40833 0.23934 0.05317 -0.13500
C 	C 	0.40816 0.20635 0.05264 0.07900
C 	C 	0.41705 0.18975 0.00223 -0.02300
C 	C 	0.42595 0.20613 0.95084 -0.06000
C 	C 	0.43525 0.18842 0.89562 0.77200
H 	H 	0.43449 0.25197 0.91336 0.09400
H 	H 	0.40151 0.19344 0.09170 0.07600
C 	C 	0.39839 0.25696 0.10808 0.79100
F 	F 	0.44228 0.20851 0.84969 -0.42700
F 	F 	0.41126 0.16929 0.87776 -0.42000
F 	F 	0.46104 0.17016 0.90706 -0.45000
F 	F 	0.37628 0.27921 0.09397 -0.43600
F 	F 	0.42369 0.27169 0.13277 -0.44100
F 	F 	0.38576 0.23708 0.14980 -0.43000
C 	C 	0.23742 0.58023 0.02680 0.00100
C 	C 	0.24763 0.55618 0.98952 0.08800
C 	C 	0.22818 0.54517 0.94395 -0.13100
C 	C 	0.19948 0.55993 0.93457 0.06800
C 	C 	0.18937 0.58413 0.97159 0.00800
C 	C 	0.20784 0.59348 0.01991 -0.08100
C 	C 	0.19647 0.61802 0.06332 0.77600
H 	H 	0.25260 0.58853 0.06130 0.09300
H 	H 	0.18497 0.55278 0.89815 0.08100
C 	C 	0.23835 0.51836 0.90438 0.79000
F 	F 	0.21455 0.61860 0.11352 -0.42400
F 	F 	0.16643 0.61164 0.08047 -0.44200
F 	F 	0.19753 0.64734 0.03739 -0.41400
F 	F 	0.24734 0.49288 0.93800 -0.43700
F 	F 	0.26293 0.52790 0.86988 -0.43800
F 	F 	0.21475 0.50865 0.86761 -0.43100
C 	C 	0.73927 0.44564 0.99220 0.03400
C 	C 	0.72140 0.43471 0.94516 0.07600
C 	C 	0.73327 0.41109 0.90762 -0.12200
C 	C 	0.76421 0.40147 0.91413 0.06500
C 	C 	0.78256 0.41348 0.95963 0.02300
C 	C 	0.76932 0.43408 0.00161 -0.09700
C 	C 	0.78750 0.44514 0.05477 0.78100
H 	H 	0.72985 0.46352 0.02103 0.07800
H 	H 	0.77438 0.38535 0.88273 0.09400
C 	C 	0.71354 0.39725 0.85894 0.78900
F 	F 	0.76786 0.45535 0.09894 -0.43200
F 	F 	0.80638 0.46977 0.03851 -0.45100
F 	F 	0.80538 0.42111 0.07768 -0.42900
F 	F 	0.70959 0.41919 0.81478 -0.43800
F 	F 	0.68492 0.38863 0.88071 -0.43100
F 	F 	0.72715 0.37078 0.83487 -0.42000
C 	C 	0.59754 0.78315 0.98401 0.08700
C 	C 	0.58194 0.79949 0.02850 -0.02400
C 	C 	0.56519 0.78286 0.07185 -0.06800
C 	C 	0.56211 0.75015 0.06662 0.00400
C 	C 	0.57675 0.73389 0.02079 0.07800
C 	C 	0.59576 0.75028 0.98046 -0.12600
C 	C 	0.61305 0.73292 0.93224 0.79000
H 	H 	0.61046 0.79622 0.95135 0.08700
H 	H 	0.54780 0.73731 0.09742 0.09100
C 	C 	0.54961 0.80009 0.12225 0.77200
F 	F 	0.63360 0.75234 0.90305 -0.41600
F 	F 	0.59221 0.72132 0.89170 -0.43800
F 	F 	0.62980 0.70830 0.95598 -0.43100
F 	F 	0.52498 0.81744 0.10093 -0.45700
F 	F 	0.57044 0.82004 0.14914 -0.43600
F 	F 	0.53863 0.77956 0.16453 -0.43200
