data_crystal

_cell_length_a 26.42809
_cell_length_b 25.54297
_cell_length_c 22.80674
_cell_angle_alpha 95.49137
_cell_angle_beta  95.49163
_cell_angle_gamma 125.85424

_symmetry_space_group_name_	'P 1'
_symmetry_space_group_name_H-M	'P 1'

loop_
_symmetry_equiv_pos_as_xyz
  x,y,z

loop_
_atom_site_label
_atom_site_type_symbol
_atom_site_fract_x
_atom_site_fract_y
_atom_site_fract_z
_atom_site_charge
C 	C 	0.05005 0.03076 0.96447 0.12500
C 	C 	0.12388 0.07408 0.46648 0.09100
H 	H 	0.09933 0.03352 0.37239 0.14500
F 	F 	0.13436 0.07326 0.59979 -0.36500
N 	N 	0.02706 0.06507 0.97869 -0.05000
C 	C 	0.20020 0.11095 0.39933 -0.07000
C 	C 	0.13762 0.06950 0.40925 0.05700
C 	C 	0.17320 0.12072 0.51511 -0.07100
C 	C 	0.15865 0.12982 0.57649 0.78700
F 	F 	0.15928 0.07698 0.29351 -0.34200
C 	C 	0.11451 0.06482 0.95025 0.11000
C 	C 	0.12606 0.03783 0.90061 -0.15300
C 	C 	0.21355 0.10572 0.33651 0.78500
C 	C 	0.18847 0.05945 0.89906 0.08300
F 	F 	0.11458 0.14281 0.57179 -0.35600
C 	C 	0.23637 0.15809 0.50630 0.05600
C 	C 	0.25024 0.15391 0.44898 0.09100
F 	F 	0.23472 0.06752 0.33094 -0.37800
H 	H 	0.19725 0.03434 0.86519 0.11000
F 	F 	0.21245 0.18165 0.61633 -0.35500
C 	C 	0.16601 0.12166 0.98972 0.05500
C 	C 	0.05754 0.03155 0.47433 0.14200
H 	H 	0.15711 0.14395 0.02618 0.14400
F 	F 	0.25910 0.16720 0.32481 -0.35400
C 	C 	0.23958 0.11260 0.94177 0.07600
H 	H 	0.27509 0.18999 0.54409 0.13900
C 	C 	0.22885 0.14830 0.98344 -0.05800
F 	F 	0.26331 0.07646 0.05838 -0.35700
C 	C 	0.28436 0.05341 0.01737 0.73100
H 	H 	0.31301 0.10254 0.43795 0.13500
C 	C 	0.31753 0.18971 0.44267 0.10200
C 	C 	0.30385 0.12953 0.94328 0.09900
C 	C 	0.28389 0.21485 0.02024 0.77800
N 	N 	0.01962 0.05027 0.46303 -0.02100
F 	F 	0.31956 0.20728 0.06200 -0.36500
F 	F 	0.31512 0.03230 0.04802 -0.37500
H 	H 	0.32104 0.18167 0.87001 0.14000
C 	C 	0.34326 0.15498 0.43839 0.04300
F 	F 	0.27295 0.26533 0.41031 -0.34800
F 	F 	0.26280 0.24621 0.05041 -0.35600
C 	C 	0.32788 0.10703 0.98378 -0.08200
F 	F 	0.32232 0.25493 0.98303 -0.37700
C 	C 	0.35702 0.25867 0.44511 -0.08800
C 	C 	0.34082 0.16742 0.90311 0.04400
C 	C 	0.33046 0.29769 0.44932 0.79000
F 	F 	0.32182 0.30651 0.50727 -0.37000
F 	F 	0.38320 0.08196 0.40021 -0.37000
C 	C 	0.39272 0.13390 0.99152 0.08200
F 	F 	0.39494 0.19660 0.80230 -0.37800
C 	C 	0.40751 0.18739 0.43487 -0.05600
C 	C 	0.40297 0.18664 0.90525 -0.05600
H 	H 	0.41352 0.12333 0.02735 0.11100
C 	C 	0.42268 0.29188 0.44803 0.08600
F 	F 	0.37152 0.35893 0.43466 -0.35400
C 	C 	0.43133 0.17601 0.95421 0.01600
C 	C 	0.43239 0.14771 0.42213 0.77900
C 	C 	0.43773 0.21736 0.85496 0.77900
C 	C 	0.44826 0.25693 0.44393 0.02000
H 	H 	0.45423 0.34512 0.45503 0.12400
F 	F 	0.46716 0.15233 0.47430 -0.41700
F 	F 	0.47380 0.28509 0.87013 -0.37100
F 	F 	0.47056 0.17100 0.37950 -0.42600
F 	F 	0.47671 0.19945 0.84386 -0.43600
C 	C 	0.50132 0.21286 0.97025 0.29300
C 	C 	0.51768 0.29346 0.45262 0.30400
O 	O 	0.52510 0.18847 0.00138 -0.32000
O 	O 	0.53930 0.27317 0.96033 -0.29500
O 	O 	0.54687 0.28866 0.49965 -0.28400
O 	O 	0.54998 0.34014 0.42138 -0.30500
F 	F 	0.00113 0.06809 0.11643 -0.32000
H 	H 	0.56560 0.18608 0.89580 0.23400
F 	F 	0.99054 0.30781 0.44546 -0.37700
C 	C 	0.96785 0.03354 0.99192 0.08900
C 	C 	0.91622 0.02964 0.45296 0.08300
C 	C 	0.90195 0.03663 0.39410 -0.07900
C 	C 	0.87711 0.07173 0.38542 0.05400
H 	H 	0.87020 0.08162 0.34135 0.13200
C 	C 	0.73054 0.01553 0.98853 0.68800
C 	C 	0.94032 0.05060 0.11292 0.69600
C 	C 	0.86298 0.09612 0.43377 0.08700
H 	H 	0.74380 0.05366 0.39587 0.12900
C 	C 	0.89694 0.04886 0.50025 0.04900
H 	H 	0.90600 0.04094 0.54466 0.12300
F 	F 	0.64817 0.04295 0.37664 -0.38400
C 	C 	0.94180 0.07012 0.00497 0.06500
C 	C 	0.92367 0.07394 0.06081 -0.06800
F 	F 	0.93807 0.07836 0.16689 -0.36000
H 	H 	0.86834 0.09492 0.10769 0.12700
C 	C 	0.77651 0.10682 0.40755 0.04000
C 	C 	0.86874 0.08073 0.49096 -0.07800
C 	C 	0.75999 0.08818 0.00510 -0.07900
C 	C 	0.87060 0.11825 0.01939 0.08800
H 	H 	0.67140 0.07470 0.98020 0.09600
C 	C 	0.89629 0.12298 0.96668 -0.07900
C 	C 	0.93042 0.09714 0.95944 0.05500
C 	C 	0.88649 0.09628 0.06676 0.04200
H 	H 	0.94659 0.09616 0.91773 0.11500
F 	F 	0.77944 0.06588 0.52432 -0.40400
C 	C 	0.84161 0.13725 0.42395 0.09900
C 	C 	0.68235 0.11037 0.39403 0.78200
F 	F 	0.82445 0.12327 0.89548 -0.39000
C 	C 	0.84389 0.09714 0.54154 0.78500
F 	F 	0.85289 0.07685 0.59312 -0.38100
C 	C 	0.75336 0.14428 0.41023 -0.05800
F 	F 	0.67016 0.13402 0.34687 -0.40100
C 	C 	0.82642 0.13559 0.02519 0.08800
C 	C 	0.72130 0.10925 0.00050 0.06300
F 	F 	0.91837 0.15762 0.87193 -0.38100
C 	C 	0.88822 0.15634 0.91879 0.78600
F 	F 	0.66084 0.12213 0.44292 -0.43900
F 	F 	0.98029 0.05200 0.33960 -0.38200
F 	F 	0.87500 0.16427 0.55529 -0.38100
C 	C 	0.74754 0.17572 0.01865 0.00600
O 	O 	0.65572 0.17550 0.01470 -0.31700
C 	C 	0.85124 0.20050 0.04938 0.04400
C 	C 	0.88545 0.20665 0.43420 -0.09300
F 	F 	0.96897 0.21648 0.39238 -0.39000
F 	F 	0.91414 0.22058 0.94349 -0.39700
C 	C 	0.91618 0.00983 0.34103 0.73400
C 	C 	0.71068 0.19921 0.99864 0.31500
F 	F 	0.97766 0.22894 0.49283 -0.37000
O 	O 	0.63563 0.20889 0.80818 -0.34300
C 	C 	0.79695 0.21349 0.42921 0.01400
C 	C 	0.81177 0.22059 0.04817 -0.05600
Cu	Cu	0.67212 0.21371 0.88687 0.90200
O 	O 	0.60923 0.21787 0.91944 -0.63100
C 	C 	0.95644 0.24047 0.44140 0.79000
H 	H 	0.90172 0.23585 0.06719 0.13200
Cu	Cu	0.61730 0.22287 0.00690 0.94000
O 	O 	0.63867 0.22448 0.57904 -0.33300
C 	C 	0.86246 0.24423 0.43841 0.08700
F 	F 	0.88214 0.00381 0.28745 -0.36800
O 	O 	0.72911 0.23772 0.95895 -0.35100
C 	C 	0.95731 0.00959 0.46661 0.08200
H 	H 	0.59377 0.25369 0.39814 0.24500
O 	O 	0.63896 0.24374 0.09289 -0.29200
C 	C 	0.63787 0.25781 0.79074 0.29600
C 	C 	0.77495 0.25214 0.44940 0.30000
C 	C 	0.63634 0.26202 0.72848 0.03000
O 	O 	0.74020 0.25900 0.41019 -0.28400
C 	C 	0.63653 0.26514 0.67614 0.02400
Cu	Cu	0.70659 0.24934 0.53524 0.92800
C 	C 	0.63848 0.26833 0.61395 0.29700
C 	C 	0.83922 0.29071 0.07552 0.77800
C 	C 	0.63841 0.28901 0.12509 0.29700
O 	O 	0.77847 0.26677 0.50698 -0.33700
F 	F 	0.79559 0.29243 0.10300 -0.41800
O 	O 	0.63190 0.29675 0.82698 -0.28800
O 	O 	0.62933 0.29778 0.42111 -0.63000
H 	H 	0.89535 0.29731 0.45133 0.11000
C 	C 	0.65658 0.30231 0.18903 0.02800
Cu	Cu	0.63038 0.30933 0.50592 0.93900
O 	O 	0.63345 0.31042 0.59082 -0.28300
F 	F 	0.89329 0.31849 0.11850 -0.38300
O 	O 	0.60697 0.30969 0.10203 -0.32100
Cu	Cu	0.64754 0.31139 0.91490 0.92200
C 	C 	0.66998 0.31573 0.24297 0.02500
F 	F 	0.85504 0.32810 0.03110 -0.39600
O 	O 	0.66916 0.32298 0.00031 -0.63600
O 	O 	0.71407 0.31712 0.33934 -0.29300
Cu	Cu	0.72225 0.32516 0.42506 0.93700
C 	C 	0.68333 0.33378 0.30702 0.29700
O 	O 	0.71367 0.32386 0.51035 -0.62300
Cu	Cu	0.62071 0.34877 0.02855 0.92700
H 	H 	0.71532 0.35295 0.01701 0.21800
Cu	Cu	0.63254 0.36890 0.39874 0.92800
H 	H 	0.74875 0.36529 0.53752 0.22700
O 	O 	0.67721 0.37824 0.33096 -0.32000
O 	O 	0.69134 0.40403 0.91330 -0.31900
O 	O 	0.66479 0.43294 0.99814 -0.28900
O 	O 	0.78136 0.42523 0.44287 -0.31500
O 	O 	0.70695 0.43314 0.47642 -0.30800
C 	C 	0.68889 0.44639 0.94866 0.31900
F 	F 	0.58918 0.44863 0.89944 -0.36800
F 	F 	0.75296 0.00469 0.94001 -0.38000
C 	C 	0.76663 0.45984 0.47308 0.29100
F 	F 	0.78060 0.47624 0.60003 -0.43600
F 	F 	0.23247 0.99969 0.97734 -0.30200
N 	N 	0.01403 0.96518 0.96435 0.01200
F 	F 	0.08251 0.93721 0.58033 -0.33200
F 	F 	0.02216 0.90260 0.06442 -0.29300
C 	C 	0.07247 0.98540 0.84991 0.85300
F 	F 	0.09505 0.98749 0.79718 -0.32100
F 	F 	0.02608 0.99479 0.83954 -0.34800
F 	F 	0.04572 0.92396 0.86419 -0.34400
N 	N 	0.03281 0.97137 0.48805 0.00700
F 	F 	0.02983 0.88467 0.65158 -0.32800
C 	C 	0.02556 0.90791 0.60033 0.83700
F 	F 	0.01550 0.95442 0.61598 -0.32100
F 	F 	0.00086 0.73076 0.47442 -0.32900
F 	F 	0.74602 0.99523 0.03664 -0.31500
F 	F 	0.66491 0.97716 0.97353 -0.30100
C 	C 	0.95438 0.93338 0.97605 0.16400
N 	N 	0.93108 0.96747 0.98924 -0.02300
N 	N 	0.93309 0.95052 0.48279 -0.03800
C 	C 	0.97081 0.93124 0.49354 0.15000
C 	C 	0.84097 0.63155 0.55275 0.04600
C 	C 	0.87864 0.66736 0.51206 0.09700
C 	C 	0.89441 0.63735 0.46980 -0.08700
C 	C 	0.85999 0.56855 0.45954 0.08200
C 	C 	0.81555 0.53118 0.49529 0.01700
C 	C 	0.81218 0.56401 0.54683 -0.05600
C 	C 	0.89777 0.73457 0.51152 0.08200
C 	C 	0.94696 0.67822 0.43534 0.75200
H 	H 	0.86529 0.54383 0.42202 0.11200
C 	C 	0.77712 0.52760 0.59479 0.78100
H 	H 	0.83241 0.65579 0.58774 0.13900
C 	C 	0.86206 0.74571 0.47145 -0.06800
C 	C 	0.88705 0.81065 0.46593 0.05100
C 	C 	0.94271 0.86404 0.50450 0.09800
C 	C 	0.97196 0.85226 0.55152 -0.12800
C 	C 	0.95138 0.78764 0.55217 0.07300
C 	C 	0.79681 0.68880 0.43600 0.78400
H 	H 	0.86376 0.81986 0.43117 0.14500
H 	H 	0.97713 0.77851 0.58423 0.12100
F 	F 	0.71409 0.50330 0.58061 -0.39100
F 	F 	0.80363 0.56947 0.65004 -0.36800
F 	F 	0.92759 0.70183 0.39360 -0.36600
F 	F 	0.96305 0.64161 0.40552 -0.37600
F 	F 	0.76700 0.71067 0.40499 -0.36300
F 	F 	0.75847 0.65124 0.47453 -0.39200
F 	F 	0.80223 0.64967 0.39498 -0.38000
F 	F 	0.89975 0.94818 0.34538 -0.32800
C 	C 	0.87551 0.75975 0.00332 0.04900
C 	C 	0.83629 0.72296 0.94726 0.09600
C 	C 	0.83428 0.75548 0.90107 -0.07000
C 	C 	0.87169 0.82456 0.91251 0.06400
C 	C 	0.91268 0.86125 0.96775 0.08800
C 	C 	0.91479 0.82887 0.01382 -0.06100
C 	C 	0.79637 0.65020 0.93808 0.10700
C 	C 	0.78990 0.71679 0.84084 0.78600
H 	H 	0.86951 0.85013 0.87822 0.14100
C 	C 	0.96013 0.86796 0.07342 0.74800
H 	H 	0.87577 0.73418 0.03848 0.13700
C 	C 	0.82309 0.61614 0.92894 -0.09500
C 	C 	0.78637 0.54868 0.93090 0.08700
C 	C 	0.72271 0.51419 0.93753 0.01100
C 	C 	0.69396 0.54669 0.93873 -0.04300
C 	C 	0.73228 0.61527 0.94322 0.03900
C 	C 	0.89213 0.65235 0.92231 0.79100
H 	H 	0.80797 0.52340 0.92960 0.10400
C 	C 	0.62315 0.50919 0.93738 0.77700
H 	H 	0.71243 0.64173 0.95118 0.14800
F 	F 	0.95206 0.82770 0.11389 -0.35100
F 	F 	0.94991 0.91169 0.09864 -0.33200
F 	F 	0.72795 0.68860 0.84754 -0.37000
F 	F 	0.79469 0.66783 0.81861 -0.35800
F 	F 	0.80427 0.75683 0.79869 -0.35600
F 	F 	0.61094 0.50005 0.99459 -0.38000
F 	F 	0.60179 0.54357 0.91684 -0.34600
F 	F 	0.90352 0.60909 0.89828 -0.37300
F 	F 	0.93110 0.68545 0.97796 -0.38300
F 	F 	0.90792 0.69694 0.88455 -0.36200
F 	F 	0.89727 0.98299 0.10535 -0.28600
