data_crystal

_cell_length_a 18.39067
_cell_length_b 18.93392
_cell_length_c 36.20339
_cell_angle_alpha 95.39276
_cell_angle_beta  95.39259
_cell_angle_gamma 126.71099

_symmetry_space_group_name_	'P 1'
_symmetry_space_group_name_H-M	'P 1'

loop_
_symmetry_equiv_pos_as_xyz
  x,y,z

loop_
_atom_site_label
_atom_site_type_symbol
_atom_site_fract_x
_atom_site_fract_y
_atom_site_fract_z
_atom_site_charge
C 	C 	0.90778 0.99202 0.96621 0.13100
N 	N 	0.86308 0.90333 0.96729 -0.13000
C 	C 	0.90997 0.86850 0.96571 0.11300
N 	N 	0.00080 0.92239 0.96367 -0.12000
C 	C 	0.04507 0.01041 0.96279 0.12800
N 	N 	0.99862 0.04508 0.96406 -0.14400
C 	C 	0.92845 0.02041 0.49335 0.10400
N 	N 	0.88415 0.93492 0.49884 -0.12700
C 	C 	0.92966 0.89934 0.50109 0.11300
N 	N 	0.02002 0.94960 0.49833 -0.12000
C 	C 	0.06516 0.03564 0.49344 0.11500
N 	N 	0.01911 0.07095 0.49059 -0.12400
Cu	Cu	0.77049 0.34640 0.96417 0.92700
Cu	Cu	0.75843 0.28438 0.04636 0.87200
Cu	Cu	0.62039 0.30028 0.00955 0.89900
Cu	Cu	0.59807 0.33577 0.93217 0.89800
C 	C 	0.70556 0.30937 0.88433 0.30700
O 	O 	0.82240 0.47657 0.96171 -0.35100
C 	C 	0.68022 0.34223 0.09291 0.31000
O 	O 	0.62600 0.27106 0.95824 -0.63700
O 	O 	0.75610 0.36307 0.01689 -0.64300
O 	O 	0.83044 0.28635 0.97089 -0.36100
O 	O 	0.72858 0.19392 0.00630 -0.43700
O 	O 	0.66853 0.35005 0.89109 -0.38300
O 	O 	0.48762 0.23090 0.99975 -0.37200
C 	C 	0.43716 0.22915 0.97063 0.29500
C 	C 	0.77854 0.50836 0.97209 0.28000
O 	O 	0.69239 0.45265 0.97597 -0.38500
O 	O 	0.47450 0.28127 0.94552 -0.38600
O 	O 	0.76103 0.31214 0.91138 -0.35400
C 	C 	0.78789 0.21116 0.98426 0.28800
O 	O 	0.61347 0.31170 0.06369 -0.37700
O 	O 	0.75338 0.34667 0.08931 -0.41600
H 	H 	0.58719 0.20595 0.94789 0.16900
H 	H 	0.79363 0.42619 0.03024 0.18000
Cu	Cu	0.60087 0.19413 0.50548 0.93100
Cu	Cu	0.66776 0.20991 0.42403 0.87400
Cu	Cu	0.66653 0.35095 0.46508 0.89900
Cu	Cu	0.63385 0.36961 0.54382 0.89800
C 	C 	0.63787 0.24515 0.58600 0.30800
O 	O 	0.47335 0.15807 0.50837 -0.35100
C 	C 	0.63243 0.30811 0.38112 0.30800
O 	O 	0.69163 0.33497 0.51512 -0.63700
O 	O 	0.59074 0.21777 0.45405 -0.64200
O 	O 	0.64345 0.12074 0.49490 -0.36600
O 	O 	0.75109 0.22065 0.46334 -0.43600
O 	O 	0.60405 0.28899 0.58098 -0.38100
O 	O 	0.74631 0.47989 0.47859 -0.37700
C 	C 	0.73950 0.52649 0.50557 0.29400
C 	C 	0.44937 0.20792 0.49865 0.28300
O 	O 	0.51309 0.29370 0.49915 -0.39000
O 	O 	0.71121 0.49641 0.53678 -0.38700
O 	O 	0.63184 0.19231 0.55737 -0.35400
C 	C 	0.72169 0.15665 0.48295 0.29400
O 	O 	0.65808 0.36697 0.41203 -0.37500
O 	O 	0.61502 0.23027 0.38265 -0.41500
H 	H 	0.75775 0.36579 0.52520 0.17300
H 	H 	0.52717 0.18759 0.44029 0.18300
C 	C 	0.70489 0.24310 0.77375 0.00000
C 	C 	0.62246 0.16988 0.75031 -0.03100
C 	C 	0.61411 0.16079 0.71104 -0.03100
C 	C 	0.68812 0.22497 0.69509 -0.00000
C 	C 	0.77327 0.29316 0.71850 -0.03100
C 	C 	0.78163 0.30226 0.75779 -0.03000
C 	C 	0.67164 0.23108 0.65627 0.05000
C 	C 	0.65734 0.23579 0.62375 -0.09600
C 	C 	0.70585 0.26577 0.81297 0.05100
C 	C 	0.70646 0.28458 0.84580 -0.09400
H 	H 	0.56321 0.12304 0.76244 0.04500
H 	H 	0.54839 0.10712 0.69313 0.04800
H 	H 	0.83127 0.34235 0.70639 0.04500
H 	H 	0.84609 0.35826 0.77573 0.04700
C 	C 	0.64005 0.37632 0.19999 -0.00200
C 	C 	0.55555 0.31047 0.20977 -0.03200
C 	C 	0.54888 0.30629 0.24779 -0.03200
C 	C 	0.62671 0.36790 0.27612 -0.00200
C 	C 	0.70845 0.43903 0.26641 -0.03200
C 	C 	0.71513 0.44320 0.22838 -0.03200
C 	C 	0.62816 0.34828 0.31353 0.04900
C 	C 	0.62917 0.33167 0.34482 -0.10200
C 	C 	0.65424 0.36585 0.16204 0.05000
C 	C 	0.66567 0.35671 0.13022 -0.10100
H 	H 	0.49671 0.25930 0.18798 0.04600
H 	H 	0.48498 0.25183 0.25507 0.04600
H 	H 	0.76857 0.48778 0.28817 0.04400
H 	H 	0.78031 0.49522 0.22106 0.04400
C 	C 	0.87919 0.80433 0.50321 -0.00100
C 	C 	0.80682 0.73908 0.47359 -0.04200
C 	C 	0.75981 0.64795 0.47428 0.02000
C 	C 	0.78514 0.62163 0.50502 -0.07500
C 	C 	0.85625 0.68695 0.53504 0.00500
C 	C 	0.90343 0.77808 0.53428 -0.02100
H 	H 	0.78781 0.75941 0.44982 0.05900
H 	H 	0.87559 0.66672 0.55875 0.04200
C 	C 	0.97568 0.84424 0.56572 0.07700
C 	C 	0.68482 0.58186 0.44360 0.07700
N 	N 	0.03357 0.89727 0.59089 -0.09400
N 	N 	0.62479 0.52893 0.41903 -0.10600
C 	C 	0.77110 0.11868 0.48764 -0.08700
C 	C 	0.74278 0.04320 0.46173 0.00900
C 	C 	0.79586 0.01280 0.46226 -0.03900
C 	C 	0.87745 0.05725 0.48960 0.00600
C 	C 	0.90576 0.13281 0.51557 -0.04900
C 	C 	0.85288 0.16358 0.51479 0.02500
H 	H 	0.68065 0.00963 0.44044 0.02400
H 	H 	0.96801 0.16658 0.53680 0.05800
C 	C 	0.88228 0.24056 0.54221 0.07300
C 	C 	0.76778 0.93771 0.43392 0.09900
N 	N 	0.90573 0.30219 0.56417 -0.11400
N 	N 	0.74531 0.87758 0.41124 -0.11700
C 	C 	0.16319 0.08924 0.49017 0.00600
C 	C 	0.19074 0.05288 0.46464 -0.05300
C 	C 	0.28443 0.09303 0.46611 0.02500
C 	C 	0.35166 0.17109 0.49313 -0.07800
C 	C 	0.32454 0.21120 0.51676 0.01000
C 	C 	0.23076 0.17042 0.51566 -0.02800
H 	H 	0.13893 0.99159 0.44442 0.06600
H 	H 	0.37639 0.27222 0.53710 0.03500
C 	C 	0.20455 0.21018 0.54191 0.09600
C 	C 	0.31096 0.05390 0.43971 0.06800
N 	N 	0.18354 0.24201 0.56294 -0.11000
N 	N 	0.33211 0.02248 0.41854 -0.11900
C 	C 	0.81815 0.60289 0.97133 -0.07100
C 	C 	0.82872 0.63177 0.93658 0.00100
C 	C 	0.84961 0.71528 0.93369 -0.02600
C 	C 	0.86317 0.77241 0.96612 0.00500
C 	C 	0.85132 0.74305 0.00079 -0.04700
C 	C 	0.82895 0.65882 0.00356 0.01500
H 	H 	0.81751 0.58787 0.91147 0.04400
H 	H 	0.86285 0.78710 0.02590 0.05600
C 	C 	0.81905 0.63104 0.03976 0.07000
C 	C 	0.85543 0.74130 0.89719 0.09300
N 	N 	0.81107 0.60869 0.06874 -0.11500
N 	N 	0.85993 0.76206 0.86794 -0.10800
C 	C 	0.85994 0.03258 0.96952 -0.00600
C 	C 	0.84248 0.06229 0.93818 -0.04100
C 	C 	0.81956 0.12100 0.94248 0.01900
C 	C 	0.81478 0.15134 0.97870 -0.07700
C 	C 	0.82861 0.11862 0.00976 -0.00200
C 	C 	0.85053 0.05927 0.00531 -0.02900
H 	H 	0.84953 0.04184 0.91057 0.05300
H 	H 	0.82313 0.14006 0.03753 0.02100
C 	C 	0.86574 0.02797 0.03787 0.08200
C 	C 	0.79927 0.14790 0.90947 0.08000
N 	N 	0.87796 0.00285 0.06393 -0.11900
N 	N 	0.78302 0.16912 0.88289 -0.10300
C 	C 	0.14488 0.06953 0.96356 0.00000
C 	C 	0.20405 0.13721 0.99525 -0.03900
C 	C 	0.29983 0.19017 0.99787 0.02600
C 	C 	0.33697 0.17531 0.96844 -0.07800
C 	C 	0.27772 0.10935 0.93629 0.00900
C 	C 	0.18196 0.05636 0.93368 -0.03400
H 	H 	0.17543 0.14777 0.01809 0.05300
H 	H 	0.30632 0.09893 0.91339 0.03300
C 	C 	0.12222 0.98984 0.89998 0.10600
C 	C 	0.35944 0.26064 0.03050 0.07700
N 	N 	0.07447 0.93661 0.87296 -0.10400
N 	N 	0.40718 0.31706 0.05662 -0.10400
