data_crystal

_cell_length_a 19.30457
_cell_length_b 18.22665
_cell_length_c 26.71892
_cell_angle_alpha 95.43795
_cell_angle_beta  95.43723
_cell_angle_gamma 126.41131

_symmetry_space_group_name_	'P 1'
_symmetry_space_group_name_H-M	'P 1'

loop_
_symmetry_equiv_pos_as_xyz
  x,y,z

loop_
_atom_site_label
_atom_site_type_symbol
_atom_site_fract_x
_atom_site_fract_y
_atom_site_fract_z
_atom_site_charge
C 	C 	0.93045 0.01608 0.96683 0.10800
C 	C 	0.05872 0.02644 0.97761 0.14400
N 	N 	0.01788 0.06497 0.96739 -0.11800
N 	N 	0.01598 0.07045 0.47180 -0.09100
C 	C 	0.06219 0.03720 0.48057 0.14800
Cu	Cu	0.73248 0.32875 0.94829 0.93300
Cu	Cu	0.72463 0.23254 0.04767 0.87900
Cu	Cu	0.59627 0.26636 0.01754 0.89500
Cu	Cu	0.57451 0.33638 0.92467 0.92000
C 	C 	0.66632 0.32178 0.84501 0.28500
C 	C 	0.65705 0.27489 0.12626 0.29000
O 	O 	0.59669 0.25508 0.94545 -0.63400
O 	O 	0.72428 0.32789 0.02174 -0.64100
O 	O 	0.79264 0.26960 0.94217 -0.33200
O 	O 	0.70017 0.15776 0.98463 -0.43200
O 	O 	0.63331 0.36192 0.86408 -0.34100
O 	O 	0.47047 0.20006 0.00800 -0.39100
C 	C 	0.42494 0.21522 0.97646 0.34600
O 	O 	0.46378 0.28398 0.95084 -0.33900
O 	O 	0.71685 0.31055 0.87491 -0.35000
C 	C 	0.76040 0.18949 0.95626 0.34000
O 	O 	0.59395 0.25838 0.09090 -0.37700
O 	O 	0.72417 0.28014 0.11403 -0.40400
H 	H 	0.55682 0.19064 0.92581 0.17400
Cu	Cu	0.72416 0.31836 0.44526 0.92900
Cu	Cu	0.72495 0.23581 0.54950 0.88100
Cu	Cu	0.59821 0.27414 0.51981 0.90300
Cu	Cu	0.57493 0.34009 0.42525 0.90900
C 	C 	0.65401 0.30887 0.34222 0.29100
C 	C 	0.66504 0.28794 0.62842 0.29300
O 	O 	0.59137 0.25523 0.44710 -0.63700
O 	O 	0.72400 0.32802 0.51997 -0.63700
O 	O 	0.77688 0.25124 0.43865 -0.36200
O 	O 	0.69078 0.15171 0.48854 -0.40700
O 	O 	0.62504 0.35334 0.36158 -0.36700
O 	O 	0.47395 0.21566 0.51382 -0.37400
C 	C 	0.43014 0.23320 0.48256 0.33500
O 	O 	0.47093 0.30104 0.45650 -0.33900
O 	O 	0.70020 0.29188 0.37175 -0.35400
C 	C 	0.74587 0.17501 0.45714 0.32600
O 	O 	0.60143 0.27274 0.59411 -0.36900
O 	O 	0.73140 0.29315 0.61483 -0.40400
H 	H 	0.54734 0.19005 0.42910 0.17700
C 	C 	0.59532 0.23329 0.75623 -0.03400
C 	C 	0.66677 0.31331 0.78976 -0.07700
C 	C 	0.66141 0.29840 0.68333 -0.07800
C 	C 	0.59225 0.22477 0.70308 0.08700
C 	C 	0.51528 0.13721 0.66782 -0.20000
H 	H 	0.54203 0.17748 0.77152 0.04900
H 	H 	0.47121 0.08326 0.68950 0.08300
H 	H 	0.53846 0.10763 0.64221 0.07400
H 	H 	0.47643 0.15279 0.64438 0.09900
C 	C 	0.58649 0.21828 0.25361 -0.03300
C 	C 	0.65494 0.30058 0.28703 -0.08000
C 	C 	0.65130 0.28523 0.18077 -0.08100
C 	C 	0.58423 0.20969 0.20052 0.08600
C 	C 	0.51047 0.11998 0.16532 -0.19900
H 	H 	0.53491 0.16084 0.26893 0.05000
H 	H 	0.46691 0.06579 0.18703 0.08300
H 	H 	0.53724 0.09273 0.14127 0.07200
H 	H 	0.47008 0.13191 0.14028 0.09700
C 	C 	0.79235 0.00182 0.46869 -0.18900
C 	C 	0.87618 0.04896 0.45613 -0.03000
C 	C 	0.91202 0.13227 0.43761 0.29900
C 	C 	0.86751 0.17112 0.43565 -0.07100
C 	C 	0.78599 0.12661 0.45114 -0.14100
C 	C 	0.74693 0.03946 0.46546 0.32600
H 	H 	0.89741 0.23683 0.42306 0.10000
F 	F 	0.98951 0.17532 0.42117 -0.42600
C 	C 	0.30144 0.15232 0.52656 -0.06700
C 	C 	0.33630 0.18689 0.48319 -0.13000
C 	C 	0.28130 0.17812 0.44055 0.36100
C 	C 	0.19275 0.13476 0.44133 -0.11600
C 	C 	0.15758 0.09767 0.48395 -0.04100
C 	C 	0.21245 0.10756 0.52685 0.31000
F 	F 	0.17922 0.07265 0.56855 -0.42800
H 	H 	0.34315 0.15988 0.55999 0.10000
H 	H 	0.15059 0.12642 0.40787 0.13100
F 	F 	0.31284 0.20851 0.39766 -0.43500
C 	C 	0.75754 0.05170 0.93428 -0.04600
C 	C 	0.80612 0.14772 0.95149 -0.16200
C 	C 	0.89636 0.20096 0.97100 0.36900
C 	C 	0.93669 0.15798 0.97531 -0.16000
C 	C 	0.88764 0.06133 0.95971 -0.02100
C 	C 	0.79806 0.00866 0.93781 0.24700
H 	H 	0.68800 0.01012 0.91889 0.07800
H 	H 	0.00571 0.19964 0.99206 0.14000
F 	F 	0.94415 0.29374 0.98830 -0.44700
C 	C 	0.18593 0.10799 0.93379 -0.12400
C 	C 	0.15294 0.07900 0.97829 -0.03700
C 	C 	0.20898 0.09320 0.02200 0.30100
C 	C 	0.29746 0.13628 0.02115 -0.08000
C 	C 	0.33063 0.16505 0.97650 -0.12300
C 	C 	0.27407 0.14991 0.93260 0.35800
F 	F 	0.30410 0.17403 0.88849 -0.43800
H 	H 	0.14270 0.09583 0.89968 0.11300
H 	H 	0.34040 0.14833 0.05538 0.10100
F 	F 	0.17770 0.06564 0.06539 -0.41400
C 	C 	0.92681 0.01211 0.46367 0.11000
C 	C 	0.72147 0.37632 0.26729 0.09700
C 	C 	0.71893 0.36804 0.21424 -0.03500
C 	C 	0.73540 0.38723 0.77007 0.10100
C 	C 	0.73224 0.37902 0.71695 -0.03500
H 	H 	0.76256 0.38942 0.04472 0.18400
H 	H 	0.76578 0.39154 0.54056 0.19000
F 	F 	0.66517 0.99136 0.47656 -0.39300
N 	N 	0.88378 0.92748 0.97555 -0.07700
C 	C 	0.92457 0.88830 0.98471 0.17900
N 	N 	0.01197 0.93823 0.98593 -0.06100
N 	N 	0.01940 0.94581 0.48145 -0.06700
C 	C 	0.93068 0.88722 0.47326 0.18300
N 	N 	0.88429 0.92024 0.46439 -0.10200
O 	O 	0.78915 0.46689 0.95825 -0.34600
C 	C 	0.75319 0.50091 0.98023 0.33400
O 	O 	0.67283 0.44432 0.98780 -0.36200
O 	O 	0.78905 0.45732 0.45065 -0.36200
C 	C 	0.76101 0.49999 0.47308 0.32900
O 	O 	0.68238 0.45073 0.48410 -0.35300
H 	H 	0.78539 0.43513 0.70173 0.06200
C 	C 	0.81197 0.47486 0.80550 -0.21300
H 	H 	0.84702 0.45839 0.83181 0.10500
H 	H 	0.78842 0.50738 0.82832 0.11500
H 	H 	0.85961 0.52651 0.78407 0.09700
H 	H 	0.77034 0.42575 0.19899 0.05800
C 	C 	0.79461 0.46632 0.30256 -0.20900
H 	H 	0.82870 0.45332 0.33208 0.09900
H 	H 	0.76750 0.49837 0.32167 0.10200
H 	H 	0.84414 0.51686 0.28149 0.09800
C 	C 	0.83281 0.74469 0.50854 -0.11200
C 	C 	0.88517 0.78770 0.47227 -0.05400
C 	C 	0.90016 0.73739 0.43794 0.31800
C 	C 	0.86241 0.64456 0.43961 -0.07200
C 	C 	0.80914 0.60085 0.47557 -0.13400
C 	C 	0.79558 0.65199 0.51061 0.35700
F 	F 	0.74727 0.61227 0.54700 -0.43000
H 	H 	0.82239 0.78363 0.53580 0.12000
H 	H 	0.87309 0.60608 0.41221 0.09500
F 	F 	0.95067 0.77830 0.40260 -0.41800
H 	H 	0.76276 0.93659 0.48180 0.16400
C 	C 	0.79501 0.72270 0.95443 -0.12100
C 	C 	0.87348 0.78965 0.98917 -0.02900
C 	C 	0.90923 0.76081 0.02327 0.30300
C 	C 	0.86983 0.66634 0.02028 -0.07600
C 	C 	0.79350 0.59991 0.98417 -0.12600
C 	C 	0.75516 0.62824 0.95191 0.36300
F 	F 	0.68084 0.56431 0.91695 -0.44700
H 	H 	0.76682 0.74389 0.92796 0.13900
H 	H 	0.89875 0.64485 0.04598 0.09500
F 	F 	0.98278 0.82443 0.05882 -0.39800
F 	F 	0.75038 0.91617 0.91965 -0.37700
