data_crystal

_cell_length_a 47.37499
_cell_length_b 43.43900
_cell_length_c 33.19767
_cell_angle_alpha 89.95489
_cell_angle_beta  89.95387
_cell_angle_gamma 90.53413

_symmetry_space_group_name_	'P 1'
_symmetry_space_group_name_H-M	'P 1'

loop_
_symmetry_equiv_pos_as_xyz
  x,y,z

loop_
_atom_site_label
_atom_site_type_symbol
_atom_site_fract_x
_atom_site_fract_y
_atom_site_fract_z
_atom_site_charge
Zn	Zn	0.50448 0.49731 0.01027 1.22300
C 	C 	0.52429 0.55880 0.99266 0.30900
O 	O 	0.53366 0.48153 0.04672 -0.46800
O 	O 	0.50988 0.56675 0.02484 -0.44600
O 	O 	0.55042 0.52760 0.06864 -0.49300
C 	C 	0.45745 0.52598 0.04782 0.32200
O 	O 	0.46906 0.51949 0.01299 -0.45100
O 	O 	0.47321 0.52730 0.08031 -0.50800
C 	C 	0.55492 0.49903 0.05799 0.31400
O 	O 	0.47750 0.45239 0.02158 -0.32100
Zn	Zn	0.51221 0.54203 0.07776 1.16900
O 	O 	0.52689 0.52955 0.98311 -0.43600
C 	C 	0.48536 0.44439 0.98570 0.26900
O 	O 	0.50194 0.46369 0.96734 -0.38100
Zn	Zn	0.34557 0.14182 0.99254 1.22100
C 	C 	0.35835 0.13784 0.07742 0.33900
O 	O 	0.31012 0.12426 0.01389 -0.44400
O 	O 	0.33570 0.15380 0.08566 -0.45100
O 	O 	0.29165 0.17169 0.02481 -0.50800
C 	C 	0.37040 0.20251 0.99684 0.31100
O 	O 	0.35962 0.18156 0.97271 -0.46400
O 	O 	0.36233 0.20376 0.03457 -0.48900
C 	C 	0.28841 0.14171 0.02236 0.32300
O 	O 	0.33046 0.13220 0.92558 -0.32400
Zn	Zn	0.32464 0.19050 0.04986 1.17200
O 	O 	0.36916 0.13836 0.04102 -0.43900
C 	C 	0.34885 0.11024 0.92625 0.29800
O 	O 	0.36248 0.10729 0.95969 -0.38600
C 	C 	0.51075 0.98913 0.34511 0.14700
C 	C 	0.49136 0.00715 0.32389 -0.11300
H 	H 	0.47667 0.02151 0.34023 0.07400
C 	C 	0.49093 0.00650 0.28172 0.07200
C 	C 	0.50986 0.98779 0.26074 -0.09800
C 	C 	0.52923 0.96976 0.28188 0.07300
C 	C 	0.52973 0.97047 0.32406 -0.11200
H 	H 	0.54468 0.95652 0.34053 0.07400
N 	N 	0.51084 0.98941 0.38839 -0.17900
C 	C 	0.49560 0.96748 0.40904 0.19100
C 	C 	0.49478 0.96787 0.45142 -0.06000
C 	C 	0.50971 0.99094 0.47230 0.03200
C 	C 	0.52538 0.01311 0.45077 -0.06100
C 	C 	0.52580 0.01187 0.40839 0.19000
C 	C 	0.47919 0.94564 0.47314 -0.01300
C 	C 	0.47848 0.94652 0.51523 -0.01300
C 	C 	0.49332 0.96965 0.53631 -0.06000
C 	C 	0.50892 0.99188 0.51478 0.03100
C 	C 	0.52373 0.01505 0.53566 -0.06100
C 	C 	0.54027 0.03621 0.47184 -0.01300
C 	C 	0.53942 0.03719 0.51394 -0.01300
C 	C 	0.49285 0.97091 0.57867 0.19100
N 	N 	0.50740 0.99369 0.59867 -0.17900
C 	C 	0.52260 0.01566 0.57804 0.19000
C 	C 	0.50696 0.99431 0.64194 0.14700
C 	C 	0.48448 0.00823 0.66232 -0.11300
C 	C 	0.48372 0.00811 0.70451 0.07200
C 	C 	0.50551 0.99429 0.72631 -0.09800
C 	C 	0.52800 0.98044 0.70602 0.07300
C 	C 	0.52873 0.98044 0.66385 -0.11200
O 	O 	0.54057 0.03240 0.38781 -0.20000
O 	O 	0.48152 0.94608 0.38907 -0.20100
O 	O 	0.47848 0.95005 0.59924 -0.20000
O 	O 	0.53621 0.03742 0.59800 -0.20000
H 	H 	0.54600 0.96957 0.64803 0.07500
H 	H 	0.46764 0.01887 0.64533 0.07500
H 	H 	0.55247 0.05348 0.45574 0.05000
H 	H 	0.55101 0.05519 0.52954 0.05000
H 	H 	0.46759 0.92766 0.45755 0.05000
H 	H 	0.46634 0.92920 0.53134 0.05000
H 	H 	0.50491 0.99420 0.75899 0.06200
H 	H 	0.50949 0.98726 0.22806 0.06200
Zn	Zn	0.68054 0.84793 0.99057 1.22000
C 	C 	0.66481 0.84549 0.07454 0.34000
O 	O 	0.72173 0.85380 0.98854 -0.47000
O 	O 	0.67138 0.81618 0.07488 -0.45000
O 	O 	0.72964 0.83565 0.05165 -0.49300
C 	C 	0.66058 0.78568 0.98879 0.31600
O 	O 	0.65286 0.81455 0.99108 -0.45500
O 	O 	0.68597 0.77774 0.00033 -0.50400
C 	C 	0.73703 0.85354 0.02151 0.31500
O 	O 	0.67889 0.84510 0.91939 -0.32500
Zn	Zn	0.70564 0.79977 0.04321 1.17000
O 	O 	0.67341 0.86348 0.04509 -0.43800
C 	C 	0.66843 0.87254 0.92145 0.29800
O 	O 	0.66544 0.88346 0.95740 -0.38500
Zn	Zn	0.16961 0.65448 0.99276 1.22000
C 	C 	0.16019 0.65297 0.07885 0.34100
O 	O 	0.16328 0.69683 0.97369 -0.46000
O 	O 	0.18565 0.66411 0.08511 -0.45000
O 	O 	0.16916 0.71869 0.03538 -0.48700
C 	C 	0.22647 0.64050 0.01576 0.32200
O 	O 	0.20093 0.62906 0.01106 -0.44900
O 	O 	0.23034 0.67033 0.01909 -0.50900
C 	C 	0.15898 0.71974 0.99868 0.30500
O 	O 	0.18112 0.63946 0.92600 -0.32500
Zn	Zn	0.20347 0.69632 0.04681 1.17100
O 	O 	0.14816 0.65578 0.04346 -0.43800
C 	C 	0.15662 0.62587 0.92667 0.29800
O 	O 	0.14232 0.62882 0.95954 -0.38700
C 	C 	0.00666 0.50002 0.34505 0.14500
C 	C 	0.98825 0.48095 0.32305 -0.11200
H 	H 	0.97345 0.46602 0.33879 0.07400
C 	C 	0.98909 0.48115 0.28086 0.07300
C 	C 	0.00822 0.50052 0.26067 -0.09800
C 	C 	0.02659 0.51962 0.28256 0.07300
C 	C 	0.02583 0.51936 0.32475 -0.11200
H 	H 	0.04005 0.53406 0.34181 0.07400
N 	N 	0.00603 0.49956 0.38835 -0.17900
C 	C 	0.02144 0.47795 0.40874 0.19000
C 	C 	0.02105 0.47709 0.45114 -0.06000
C 	C 	0.00485 0.49866 0.47230 0.03100
C 	C 	0.98923 0.52067 0.45103 -0.06000
C 	C 	0.99004 0.52072 0.40862 0.19100
C 	C 	0.03661 0.45502 0.47261 -0.01300
C 	C 	0.03600 0.45455 0.51473 -0.01300
C 	C 	0.01985 0.47615 0.53609 -0.06000
C 	C 	0.00429 0.49822 0.51482 0.03100
C 	C 	0.98818 0.51986 0.53599 -0.06000
C 	C 	0.97307 0.54227 0.47239 -0.01300
C 	C 	0.97256 0.54188 0.51453 -0.01300
C 	C 	0.01903 0.47608 0.57849 0.19000
N 	N 	0.00331 0.49746 0.59878 -0.17900
C 	C 	0.98798 0.51914 0.57841 0.19100
C 	C 	0.00297 0.49720 0.64208 0.14600
C 	C 	0.98172 0.48096 0.66279 -0.11200
C 	C 	0.98154 0.48051 0.70500 0.07300
C 	C 	0.00261 0.49625 0.72649 -0.09800
C 	C 	0.02387 0.51246 0.70588 0.07300
C 	C 	0.02403 0.51298 0.66368 -0.11200
O 	O 	0.97535 0.54114 0.38828 -0.20000
O 	O 	0.03669 0.45797 0.38853 -0.20000
O 	O 	0.03342 0.45539 0.59881 -0.20000
O 	O 	0.97306 0.53942 0.59865 -0.20000
H 	H 	0.04044 0.52550 0.64762 0.07400
H 	H 	0.96549 0.46875 0.64605 0.07400
H 	H 	0.96090 0.55941 0.45650 0.05000
H 	H 	0.96000 0.55873 0.53034 0.05000
H 	H 	0.04919 0.43820 0.45679 0.05000
H 	H 	0.04813 0.43737 0.53062 0.05000
H 	H 	0.00248 0.49588 0.75917 0.06200
H 	H 	0.00882 0.50072 0.22799 0.06200
Zn	Zn	0.83329 0.35074 0.99334 1.22000
C 	C 	0.83588 0.36132 0.90756 0.34000
O 	O 	0.79519 0.36093 0.01274 -0.45400
O 	O 	0.82350 0.33464 0.90106 -0.45000
O 	O 	0.77513 0.35779 0.95073 -0.48900
C 	C 	0.84036 0.28757 0.97141 0.32000
O 	O 	0.85325 0.31438 0.97435 -0.45300
O 	O 	0.81287 0.28620 0.96661 -0.51000
C 	C 	0.77466 0.36792 0.98791 0.29900
O 	O 	0.84608 0.33600 0.05974 -0.32100
Zn	Zn	0.79210 0.31828 0.93871 1.17000
O 	O 	0.83408 0.37457 0.94297 -0.44100
C 	C 	0.86064 0.36145 0.05960 0.29800
O 	O 	0.85927 0.37766 0.02706 -0.38200
Zn	Zn	0.01022 0.01188 0.02371 1.22200
C 	C 	0.02983 0.95176 0.00196 0.32000
O 	O 	0.97487 0.98842 0.02832 -0.44400
O 	O 	0.01575 0.94281 0.03411 -0.45100
O 	O 	0.98199 0.97833 0.09459 -0.50500
C 	C 	0.06258 0.00992 0.06674 0.31600
O 	O 	0.04084 0.02711 0.05771 -0.47300
O 	O 	0.05862 0.98121 0.07773 -0.49500
C 	C 	0.96499 0.97962 0.06344 0.32300
O 	O 	0.98577 0.05674 0.04168 -0.32600
Zn	Zn	0.02099 0.96509 0.08843 1.17000
O 	O 	0.03196 0.98127 0.99324 -0.43800
C 	C 	0.98818 0.06429 0.00404 0.28400
O 	O 	0.00090 0.04451 0.98134 -0.38600
C 	C 	0.92386 0.22513 0.93984 -0.04000
C 	C 	0.89715 0.22780 0.95765 0.00500
C 	C 	0.88471 0.20212 0.97733 0.01100
C 	C 	0.89874 0.17335 0.97652 -0.00200
C 	C 	0.93892 0.19774 0.94300 -0.03700
C 	C 	0.92728 0.17223 0.96377 0.00200
C 	C 	0.88274 0.25594 0.95620 -0.01000
C 	C 	0.85649 0.25892 0.97534 -0.08500
C 	C 	0.85946 0.20622 0.99921 -0.06200
C 	C 	0.88427 0.14557 0.98497 -0.03500
C 	C 	0.92817 0.11742 0.98120 0.01000
C 	C 	0.94280 0.14467 0.96975 0.00700
C 	C 	0.97264 0.14433 0.96800 -0.05200
C 	C 	0.98730 0.11720 0.97601 0.00600
C 	C 	0.97269 0.09040 0.98726 -0.06900
C 	C 	0.94317 0.09032 0.98881 -0.01500
C 	C 	0.84523 0.23418 0.99740 0.00800
H 	H 	0.82558 0.23676 0.01373 0.03500
H 	H 	0.85140 0.18838 0.01897 0.04800
H 	H 	0.89177 0.27532 0.93989 0.04400
H 	H 	0.93311 0.24441 0.92364 0.04000
H 	H 	0.95879 0.19594 0.92718 0.03900
H 	H 	0.86154 0.14501 0.98807 0.03600
H 	H 	0.98465 0.16530 0.96329 0.04300
H 	H 	0.01017 0.11753 0.97568 0.03300
H 	H 	0.93195 0.06956 0.99799 0.04000
C 	C 	0.89888 0.11792 0.98696 -0.04300
H 	H 	0.88743 0.09685 0.99394 0.03900
C 	C 	0.88312 0.40338 0.82026 -0.01300
C 	C 	0.88143 0.43535 0.81528 -0.02600
C 	C 	0.90011 0.45064 0.78928 -0.04600
C 	C 	0.92055 0.43401 0.76813 0.02100
C 	C 	0.92151 0.40189 0.77190 -0.04600
C 	C 	0.90283 0.38660 0.79793 -0.02600
C 	C 	0.94197 0.45013 0.74540 -0.00600
C 	C 	0.95981 0.46384 0.72644 -0.03200
C 	C 	0.86631 0.38823 0.85068 0.05600
C 	C 	0.85215 0.37575 0.87622 -0.11700
H 	H 	0.86619 0.44847 0.83234 0.04000
H 	H 	0.89918 0.47546 0.78642 0.04500
H 	H 	0.93719 0.38887 0.75554 0.04500
H 	H 	0.90419 0.36186 0.80150 0.03900
C 	C 	0.90316 0.39528 0.15706 -0.00500
C 	C 	0.89212 0.42058 0.17777 -0.02800
C 	C 	0.90866 0.43626 0.20613 -0.04400
C 	C 	0.93629 0.42669 0.21392 0.02000
C 	C 	0.94677 0.40037 0.19486 -0.04400
C 	C 	0.93023 0.38469 0.16648 -0.02800
C 	C 	0.95480 0.44568 0.23796 -0.00500
C 	C 	0.97028 0.46160 0.25809 -0.03200
C 	C 	0.88819 0.38270 0.12300 0.04700
C 	C 	0.87544 0.37237 0.09455 -0.09200
H 	H 	0.87116 0.42882 0.17082 0.04200
H 	H 	0.90034 0.45647 0.22094 0.04500
H 	H 	0.96805 0.39270 0.20093 0.04600
H 	H 	0.93886 0.36504 0.15076 0.04200
C 	C 	0.14632 0.83193 0.99705 -0.05100
C 	C 	0.13650 0.80243 0.98713 0.00800
C 	C 	0.11004 0.79864 0.96803 0.00700
C 	C 	0.09174 0.82430 0.96479 0.00100
C 	C 	0.12989 0.85770 0.98918 -0.03400
C 	C 	0.10258 0.85439 0.97251 -0.00300
C 	C 	0.15271 0.77652 0.99657 -0.01900
C 	C 	0.14343 0.74704 0.98523 -0.08300
C 	C 	0.10261 0.76938 0.95258 -0.05500
C 	C 	0.06232 0.82014 0.95959 -0.03700
C 	C 	0.05487 0.87500 0.96699 0.00400
C 	C 	0.08433 0.88005 0.96899 0.00900
C 	C 	0.09467 0.91065 0.96878 -0.05900
C 	C 	0.07621 0.93506 0.97534 0.00900
C 	C 	0.04726 0.92930 0.98048 -0.09000
C 	C 	0.03643 0.89968 0.97310 -0.01100
C 	C 	0.11896 0.74370 0.96186 0.01100
H 	H 	0.11243 0.72116 0.95123 0.03800
H 	H 	0.08489 0.76657 0.93235 0.04400
H 	H 	0.17242 0.77925 0.01286 0.02700
H 	H 	0.16672 0.83496 0.01135 0.03900
H 	H 	0.13766 0.87992 0.99905 0.03300
H 	H 	0.05312 0.79733 0.95759 0.03800
H 	H 	0.11676 0.91562 0.96324 0.04200
H 	H 	0.08462 0.95820 0.97869 0.03500
H 	H 	0.01384 0.89553 0.97483 0.03900
C 	C 	0.04417 0.84520 0.96128 -0.04200
H 	H 	0.02159 0.84127 0.95914 0.03800
C 	C 	0.08414 0.55755 0.77180 0.02000
C 	C 	0.08271 0.58949 0.77727 -0.04400
C 	C 	0.10016 0.60402 0.80557 -0.02800
C 	C 	0.11908 0.58666 0.82853 -0.00600
C 	C 	0.12168 0.55502 0.82133 -0.02800
C 	C 	0.10423 0.54049 0.79302 -0.04400
C 	C 	0.13289 0.60042 0.86280 0.04600
C 	C 	0.14437 0.61212 0.89142 -0.09400
C 	C 	0.06302 0.54189 0.74806 -0.00500
C 	C 	0.04541 0.52862 0.72823 -0.03200
H 	H 	0.06738 0.60287 0.76075 0.04500
H 	H 	0.09814 0.62852 0.81079 0.04200
H 	H 	0.13637 0.54147 0.83878 0.04100
H 	H 	0.10560 0.51582 0.78874 0.04500
C 	C 	0.11583 0.60972 0.16822 -0.01200
C 	C 	0.12590 0.58250 0.18554 -0.02600
C 	C 	0.10868 0.56538 0.21167 -0.04600
C 	C 	0.08134 0.57540 0.22058 0.02100
C 	C 	0.07175 0.60331 0.20466 -0.04600
C 	C 	0.08896 0.62043 0.17854 -0.02600
C 	C 	0.06227 0.55578 0.24289 -0.00600
C 	C 	0.04619 0.53946 0.26153 -0.03200
C 	C 	0.13186 0.62502 0.13708 0.05600
C 	C 	0.14512 0.63800 0.11099 -0.11500
H 	H 	0.14670 0.57414 0.17784 0.04000
H 	H 	0.11629 0.54389 0.22401 0.04500
H 	H 	0.05068 0.61128 0.21155 0.04500
H 	H 	0.08107 0.64151 0.16541 0.04000
C 	C 	0.87192 0.96293 0.00273 -0.02400
C 	C 	0.88958 0.95962 0.03618 -0.00100
C 	C 	0.88196 0.93910 0.06758 0.01400
C 	C 	0.85478 0.92468 0.06698 -0.00500
C 	C 	0.84720 0.94552 0.99944 -0.05200
C 	C 	0.83745 0.92750 0.03216 0.00900
C 	C 	0.91591 0.97472 0.03692 -0.00400
C 	C 	0.93583 0.96753 0.06664 -0.08900
C 	C 	0.90241 0.93165 0.09699 -0.06100
C 	C 	0.84453 0.90782 0.10036 -0.03400
C 	C 	0.80438 0.88990 0.06156 0.00700
C 	C 	0.81121 0.91102 0.03049 0.01000
C 	C 	0.79131 0.91582 0.99941 -0.05800
C 	C 	0.76750 0.89675 0.99621 0.00500
C 	C 	0.76226 0.87371 0.02498 -0.08000
C 	C 	0.78049 0.87076 0.05804 -0.01500
C 	C 	0.92879 0.94624 0.09686 0.01300
H 	H 	0.94428 0.93979 0.11925 0.02000
H 	H 	0.89886 0.91315 0.11820 0.04100
H 	H 	0.92133 0.99109 0.01339 0.04600
H 	H 	0.87829 0.97759 0.97782 0.03400
H 	H 	0.83653 0.94518 0.97075 0.04100
H 	H 	0.85439 0.90981 0.12959 0.03600
H 	H 	0.79309 0.93525 0.97926 0.04400
H 	H 	0.75271 0.90052 0.97186 0.04200
H 	H 	0.77599 0.85380 0.08122 0.03700
C 	C 	0.82066 0.88914 0.09666 -0.04300
H 	H 	0.81420 0.87485 0.12188 0.03700
C 	C 	0.58957 0.93918 0.77238 0.02000
C 	C 	0.60790 0.95734 0.79569 -0.04400
C 	C 	0.62606 0.94347 0.82332 -0.02800
C 	C 	0.62595 0.91138 0.82777 -0.00600
C 	C 	0.60864 0.89314 0.80303 -0.02800
C 	C 	0.59047 0.90702 0.77538 -0.04400
C 	C 	0.64123 0.89750 0.86045 0.04600
C 	C 	0.65406 0.88600 0.88785 -0.09400
C 	C 	0.56802 0.95357 0.74854 -0.00500
C 	C 	0.55002 0.96576 0.72864 -0.03200
H 	H 	0.60744 0.98222 0.79336 0.04500
H 	H 	0.63949 0.95771 0.84220 0.04200
H 	H 	0.60855 0.86830 0.80615 0.04200
H 	H 	0.57648 0.89282 0.75729 0.04500
C 	C 	0.61766 0.88328 0.16431 -0.01300
C 	C 	0.62872 0.90812 0.18634 -0.02600
C 	C 	0.61145 0.92426 0.21304 -0.04600
C 	C 	0.58307 0.91560 0.21781 0.02100
C 	C 	0.57237 0.88990 0.19714 -0.04600
C 	C 	0.58963 0.87377 0.17044 -0.02600
C 	C 	0.56435 0.93466 0.24086 -0.00600
C 	C 	0.54852 0.95050 0.26010 -0.03200
C 	C 	0.63421 0.86949 0.13285 0.05600
C 	C 	0.64823 0.85810 0.10658 -0.11600
H 	H 	0.65041 0.91552 0.18190 0.04000
H 	H 	0.61991 0.94401 0.22906 0.04600
H 	H 	0.55048 0.88299 0.20082 0.04400
H 	H 	0.58098 0.85450 0.15365 0.03900
C 	C 	0.12867 0.09800 0.06564 -0.04200
C 	C 	0.12351 0.06654 0.05965 0.00600
C 	C 	0.14564 0.04714 0.04690 0.01000
C 	C 	0.17241 0.06035 0.03736 -0.00100
C 	C 	0.15576 0.11023 0.06068 -0.03500
C 	C 	0.17826 0.09120 0.04878 -0.00100
C 	C 	0.09645 0.05419 0.06656 -0.01200
C 	C 	0.09148 0.02247 0.06259 -0.08700
C 	C 	0.14092 0.01499 0.04604 -0.05800
C 	C 	0.19223 0.04456 0.01342 -0.03300
C 	C 	0.22578 0.08682 0.02053 0.00200
C 	C 	0.20610 0.10312 0.04424 0.01200
C 	C 	0.21507 0.13001 0.06449 -0.06000
C 	C 	0.24186 0.14242 0.05720 0.01500
C 	C 	0.26056 0.12769 0.03088 -0.09000
C 	C 	0.25270 0.09955 0.01318 -0.00100
C 	C 	0.11393 0.00291 0.05309 0.00900
H 	H 	0.11047 0.97827 0.05096 0.03300
H 	H 	0.15819 0.99924 0.04161 0.04300
H 	H 	0.07933 0.06923 0.07525 0.04400
H 	H 	0.11164 0.11308 0.07442 0.04000
H 	H 	0.15873 0.13483 0.06374 0.03800
H 	H 	0.18680 0.02286 0.99934 0.03400
H 	H 	0.20196 0.14058 0.08720 0.04200
H 	H 	0.24830 0.16327 0.07270 0.01800
H 	H 	0.26740 0.08767 0.99368 0.04100
C 	C 	0.21848 0.05791 0.00477 -0.03500
H 	H 	0.23324 0.04558 0.98590 0.03600
C 	C 	0.41904 0.04668 0.76764 0.02000
C 	C 	0.41623 0.07874 0.76952 -0.04400
C 	C 	0.39826 0.09190 0.79805 -0.02800
C 	C 	0.38309 0.07303 0.82485 -0.00600
C 	C 	0.38427 0.04095 0.82085 -0.02800
C 	C 	0.40222 0.02780 0.79232 -0.04400
C 	C 	0.37036 0.08625 0.86015 0.04600
C 	C 	0.35968 0.09726 0.88973 -0.09400
C 	C 	0.44169 0.03344 0.74471 -0.00500
C 	C 	0.46057 0.02203 0.72565 -0.03200
H 	H 	0.42894 0.09350 0.75023 0.04500
H 	H 	0.39727 0.11673 0.80068 0.04200
H 	H 	0.37242 0.02620 0.84122 0.04100
H 	H 	0.40404 0.00298 0.79074 0.04500
C 	C 	0.40074 0.09195 0.16546 -0.01200
C 	C 	0.42256 0.10675 0.18663 -0.02600
C 	C 	0.43970 0.08992 0.21274 -0.04600
C 	C 	0.43508 0.05823 0.21776 0.02100
C 	C 	0.41256 0.04369 0.19784 -0.04600
C 	C 	0.39542 0.06052 0.17174 -0.02500
C 	C 	0.45473 0.04022 0.24068 -0.00600
C 	C 	0.47109 0.02499 0.25982 -0.03200
C 	C 	0.38555 0.10828 0.13473 0.05600
C 	C 	0.37280 0.12191 0.10899 -0.11600
H 	H 	0.42674 0.13107 0.18203 0.03800
H 	H 	0.45701 0.10135 0.22818 0.04500
H 	H 	0.40879 0.01923 0.20172 0.04500
H 	H 	0.37853 0.04894 0.15559 0.04000
C 	C 	0.42205 0.36509 0.93199 -0.04400
C 	C 	0.44761 0.37347 0.95018 0.01200
C 	C 	0.46472 0.35070 0.96790 0.00600
C 	C 	0.45353 0.32055 0.97371 -0.00100
C 	C 	0.41266 0.33456 0.93285 -0.03400
C 	C 	0.42825 0.31184 0.95344 -0.00400
C 	C 	0.45572 0.40459 0.95264 -0.02000
C 	C 	0.48117 0.41286 0.97133 -0.06100
C 	C 	0.49225 0.35891 0.98041 -0.05100
C 	C 	0.46458 0.30086 0.00362 -0.03400
C 	C 	0.42718 0.26356 0.99142 -0.00900
C 	C 	0.41706 0.28168 0.95924 0.01400
C 	C 	0.39582 0.26932 0.93402 -0.06200
C 	C 	0.38154 0.24232 0.94514 0.01100
C 	C 	0.38894 0.22682 0.98060 -0.09600
C 	C 	0.41263 0.23657 0.00256 0.00400
C 	C 	0.50011 0.38993 0.98293 0.00300
H 	H 	0.52049 0.39618 0.99544 0.03500
H 	H 	0.50762 0.34150 0.98763 0.04100
H 	H 	0.44159 0.42239 0.94210 0.04000
H 	H 	0.40906 0.38239 0.91779 0.04000
H 	H 	0.39211 0.32931 0.92035 0.03600
H 	H 	0.48220 0.30806 0.02213 0.03900
H 	H 	0.39080 0.28003 0.90551 0.04400
H 	H 	0.36419 0.23396 0.92679 0.03200
H 	H 	0.41924 0.22364 0.02884 0.03900
C 	C 	0.45115 0.27303 0.01281 -0.03300
H 	H 	0.45924 0.25899 0.03714 0.03800
C 	C 	0.36719 0.54975 0.98101 -0.04500
C 	C 	0.38348 0.54806 0.01613 0.00900
C 	C 	0.37223 0.55826 0.05317 0.00900
C 	C 	0.34599 0.57387 0.05351 -0.00100
C 	C 	0.33990 0.56156 0.98224 -0.04000
C 	C 	0.32859 0.57286 0.01868 0.00300
C 	C 	0.41110 0.53662 0.01455 -0.00600
C 	C 	0.42720 0.53419 0.04996 -0.08700
C 	C 	0.38717 0.55211 0.08900 -0.05800
C 	C 	0.33854 0.59341 0.08573 -0.03700
C 	C 	0.29493 0.60683 0.05206 0.00300
C 	C 	0.30151 0.58674 0.01997 0.01400
C 	C 	0.28069 0.58052 0.99053 -0.06000
C 	C 	0.25568 0.59740 0.98994 0.00900
C 	C 	0.25076 0.61989 0.01928 -0.08300
C 	C 	0.26992 0.62385 0.05101 -0.00900
C 	C 	0.41463 0.54075 0.08727 0.00800
H 	H 	0.42612 0.53706 0.11503 0.02900
H 	H 	0.37733 0.55507 0.11814 0.04100
H 	H 	0.42014 0.53009 0.98582 0.04400
H 	H 	0.37575 0.54206 0.95249 0.04000
H 	H 	0.32851 0.56389 0.95422 0.03900
H 	H 	0.35299 0.59759 0.11037 0.03500
H 	H 	0.28328 0.56204 0.96906 0.04500
H 	H 	0.24033 0.59329 0.96632 0.03800
H 	H 	0.26546 0.64035 0.07466 0.02500
C 	C 	0.31350 0.60996 0.08461 -0.04100
H 	H 	0.30859 0.62545 0.10917 0.03500
C 	C 	0.70360 0.44934 0.97607 -0.03900
C 	C 	0.71341 0.42268 0.99505 0.00100
C 	C 	0.69801 0.40964 0.02746 0.01400
C 	C 	0.67104 0.42156 0.03720 -0.00400
C 	C 	0.67896 0.46348 0.98939 -0.04400
C 	C 	0.66298 0.45046 0.02116 0.00700
C 	C 	0.73860 0.40897 0.98216 -0.01700
C 	C 	0.74950 0.38370 0.00309 -0.07600
C 	C 	0.71042 0.38593 0.05032 -0.05700
C 	C 	0.65089 0.40375 0.05852 -0.03400
C 	C 	0.61716 0.44537 0.05467 0.00700
C 	C 	0.63725 0.46382 0.03404 0.00700
C 	C 	0.63161 0.49536 0.02818 -0.05600
C 	C 	0.60504 0.50709 0.03760 0.01000
C 	C 	0.58399 0.48779 0.05374 -0.08700
C 	C 	0.59031 0.45717 0.06326 -0.01200
C 	C 	0.73583 0.37290 0.03786 0.00400
H 	H 	0.74473 0.35413 0.05504 0.03100
H 	H 	0.70110 0.37836 0.07844 0.04300
H 	H 	0.74977 0.41803 0.95612 0.04200
H 	H 	0.71517 0.45928 0.95098 0.03800
H 	H 	0.67142 0.48334 0.97310 0.03800
H 	H 	0.65516 0.38012 0.06661 0.03600
H 	H 	0.64792 0.51103 0.01773 0.04300
H 	H 	0.60070 0.53112 0.03175 0.03300
H 	H 	0.57437 0.44256 0.07722 0.03900
C 	C 	0.62410 0.41541 0.06644 -0.04300
H 	H 	0.60870 0.40106 0.08192 0.03800
C 	C 	0.53510 0.66645 0.95432 -0.04300
C 	C 	0.54646 0.63677 0.95525 0.00500
C 	C 	0.57592 0.63269 0.95024 0.00700
C 	C 	0.59364 0.65913 0.94588 -0.00100
C 	C 	0.55286 0.69223 0.95380 -0.03700
C 	C 	0.58239 0.68861 0.95373 -0.00100
C 	C 	0.52900 0.61142 0.96429 -0.01400
C 	C 	0.54072 0.58238 0.97091 -0.08200
C 	C 	0.58719 0.60281 0.95439 -0.05700
C 	C 	0.62189 0.65696 0.93283 -0.03700
C 	C 	0.63006 0.71061 0.95015 0.00500
C 	C 	0.60111 0.71393 0.95982 0.00700
C 	C 	0.59217 0.74120 0.97897 -0.05400
C 	C 	0.61140 0.76503 0.98663 0.00400
C 	C 	0.63997 0.76182 0.97665 -0.08300
C 	C 	0.64914 0.73486 0.95768 -0.01400
C 	C 	0.56955 0.57788 0.96389 0.00700
H 	H 	0.57871 0.55542 0.96872 0.03500
H 	H 	0.60968 0.59906 0.95339 0.04100
H 	H 	0.50656 0.61473 0.96907 0.04000
H 	H 	0.51245 0.66961 0.95556 0.03800
H 	H 	0.54356 0.71483 0.95189 0.03800
H 	H 	0.62967 0.63603 0.91936 0.03700
H 	H 	0.57088 0.74334 0.99028 0.04100
H 	H 	0.60425 0.78551 0.00206 0.04500
H 	H 	0.67125 0.73238 0.94989 0.03800
C 	C 	0.63984 0.68257 0.93482 -0.04300
H 	H 	0.66163 0.68038 0.92534 0.03700
