data_crystal

_cell_length_a 26.11740
_cell_length_b 26.35334
_cell_length_c 35.69888
_cell_angle_alpha 95.52522
_cell_angle_beta  95.52675
_cell_angle_gamma 125.77610

_symmetry_space_group_name_	'P 1'
_symmetry_space_group_name_H-M	'P 1'

loop_
_symmetry_equiv_pos_as_xyz
  x,y,z

loop_
_atom_site_label
_atom_site_type_symbol
_atom_site_fract_x
_atom_site_fract_y
_atom_site_fract_z
_atom_site_charge
N 	N 	0.99774 0.02712 0.46443 -0.13500
N 	N 	0.98665 0.93155 0.45731 -0.13700
H 	H 	0.99537 0.11696 0.50250 0.04400
H 	H 	0.96928 0.85646 0.94232 0.04900
H 	H 	0.99624 0.22399 0.94895 0.04100
H 	H 	0.00462 0.14003 0.96347 0.04700
C 	C 	0.97462 0.03736 0.99375 0.11600
N 	N 	0.93654 0.97282 0.98931 -0.14100
C 	C 	0.96240 0.94085 0.98612 0.11400
N 	N 	0.02652 0.97352 0.98745 -0.14200
C 	C 	0.06501 0.03803 0.99220 0.11400
N 	N 	0.03899 0.07001 0.99517 -0.14000
C 	C 	0.93459 0.99487 0.46659 0.10800
C 	C 	0.02393 0.99564 0.45998 0.10700
C 	C 	0.92360 0.89892 0.45958 0.11200
N 	N 	0.89751 0.93060 0.46441 -0.13900
Cu	Cu	0.64595 0.24764 0.00180 0.92700
Cu	Cu	0.67880 0.24528 0.91576 0.86700
Cu	Cu	0.67410 0.34717 0.95340 0.89700
Cu	Cu	0.66201 0.37199 0.03410 0.89300
C 	C 	0.68050 0.29545 0.08319 0.32900
O 	O 	0.55685 0.21731 0.00930 -0.36500
C 	C 	0.64314 0.30570 0.86883 0.32400
O 	O 	0.70234 0.34672 0.00485 -0.64300
O 	O 	0.62750 0.25330 0.94805 -0.64200
O 	O 	0.67839 0.19625 0.99277 -0.37300
O 	O 	0.74368 0.25895 0.95398 -0.44100
O 	O 	0.65633 0.32701 0.07741 -0.39500
O 	O 	0.72532 0.43885 0.96096 -0.38700
C 	C 	0.72383 0.47605 0.98772 0.29200
C 	C 	0.53284 0.24726 0.99930 0.27900
O 	O 	0.57138 0.30631 0.99422 -0.39300
O 	O 	0.70151 0.45711 0.01933 -0.39600
O 	O 	0.67781 0.25765 0.05463 -0.37500
C 	C 	0.72913 0.21806 0.97686 0.28500
O 	O 	0.65437 0.34713 0.89868 -0.39300
O 	O 	0.63472 0.25222 0.87307 -0.43000
H 	H 	0.74953 0.37205 0.01296 0.16500
H 	H 	0.58142 0.22819 0.93628 0.17400
Cu	Cu	0.73101 0.33001 0.45405 0.92800
Cu	Cu	0.72279 0.28403 0.53671 0.86900
Cu	Cu	0.62063 0.28764 0.49700 0.89700
Cu	Cu	0.60766 0.31611 0.41896 0.89400
C 	C 	0.69187 0.30636 0.37209 0.32700
O 	O 	0.76312 0.42063 0.45191 -0.36300
C 	C 	0.65479 0.31126 0.58211 0.32700
O 	O 	0.63010 0.27167 0.44561 -0.64200
O 	O 	0.71631 0.33816 0.50689 -0.64200
O 	O 	0.78224 0.29701 0.46268 -0.37300
O 	O 	0.71303 0.22491 0.49631 -0.44100
O 	O 	0.65890 0.32908 0.37787 -0.39500
O 	O 	0.52790 0.23344 0.48422 -0.38400
C 	C 	0.49306 0.23437 0.45524 0.28600
C 	C 	0.72995 0.44144 0.46102 0.27800
O 	O 	0.66939 0.40053 0.46342 -0.39200
O 	O 	0.51994 0.27434 0.43133 -0.39500
O 	O 	0.72918 0.30823 0.40088 -0.37300
C 	C 	0.75759 0.24356 0.47544 0.28500
O 	O 	0.61058 0.29088 0.55118 -0.39700
O 	O 	0.71024 0.32180 0.57963 -0.43000
H 	H 	0.60636 0.22605 0.43424 0.16300
H 	H 	0.73865 0.38231 0.52083 0.17300
C 	C 	0.63454 0.29538 0.76165 0.00400
C 	C 	0.59258 0.25130 0.72823 -0.04100
C 	C 	0.60674 0.26572 0.69222 -0.04000
C 	C 	0.66311 0.32460 0.68927 0.00300
C 	C 	0.70406 0.36944 0.72266 -0.04100
C 	C 	0.68997 0.35496 0.75868 -0.04000
C 	C 	0.68405 0.33597 0.65196 0.01000
C 	C 	0.64005 0.31698 0.61819 -0.17400
C 	C 	0.62482 0.27559 0.79930 0.00800
C 	C 	0.63672 0.31771 0.83201 -0.17300
H 	H 	0.54999 0.20504 0.73018 0.03600
H 	H 	0.57534 0.23007 0.66675 0.03700
H 	H 	0.74791 0.41476 0.72075 0.03600
H 	H 	0.72354 0.38897 0.78422 0.03700
H 	H 	0.73446 0.35897 0.65095 0.03200
H 	H 	0.59230 0.30316 0.62002 0.08400
H 	H 	0.60832 0.22751 0.80134 0.03100
H 	H 	0.64468 0.36232 0.82887 0.08400
C 	C 	0.69750 0.31438 0.19053 0.00500
C 	C 	0.64238 0.25666 0.19591 -0.03800
C 	C 	0.63147 0.24615 0.23294 -0.04000
C 	C 	0.67599 0.29275 0.26487 0.00500
C 	C 	0.73291 0.34886 0.25951 -0.03800
C 	C 	0.74333 0.35982 0.22248 -0.04000
C 	C 	0.65824 0.28738 0.30304 0.01200
C 	C 	0.69913 0.29412 0.33478 -0.16900
C 	C 	0.70226 0.33134 0.15217 0.01300
C 	C 	0.69582 0.29070 0.12066 -0.17000
H 	H 	0.60644 0.22137 0.17144 0.04200
H 	H 	0.58734 0.20276 0.23677 0.03700
H 	H 	0.76746 0.38536 0.28398 0.04200
H 	H 	0.78595 0.40455 0.21864 0.03700
H 	H 	0.61315 0.27916 0.30642 0.02800
H 	H 	0.73779 0.29084 0.33035 0.08700
H 	H 	0.70915 0.37528 0.14842 0.02900
H 	H 	0.70088 0.25358 0.12540 0.08700
C 	C 	0.88398 0.82937 0.45662 -0.00700
C 	C 	0.85070 0.80144 0.48586 -0.03200
C 	C 	0.82392 0.73777 0.48735 -0.03600
C 	C 	0.82800 0.70013 0.45849 -0.00900
C 	C 	0.86269 0.72912 0.42933 0.02500
C 	C 	0.88813 0.79259 0.42781 -0.05200
C 	C 	0.87514 0.69582 0.40345 -0.04900
C 	C 	0.85581 0.63510 0.40694 -0.03700
C 	C 	0.81981 0.60462 0.43472 0.00400
C 	C 	0.80242 0.63540 0.45942 0.01000
C 	C 	0.75774 0.59987 0.48287 -0.05600
C 	C 	0.73645 0.53770 0.48452 0.00100
C 	C 	0.75708 0.50891 0.46181 -0.07600
C 	C 	0.79878 0.54253 0.43701 -0.01800
H 	H 	0.84880 0.83008 0.50877 0.04100
H 	H 	0.80446 0.71983 0.51235 0.03600
H 	H 	0.91426 0.81446 0.40531 0.04800
H 	H 	0.90189 0.71800 0.38126 0.04000
H 	H 	0.86796 0.61114 0.38746 0.03700
H 	H 	0.73630 0.61831 0.49798 0.04100
H 	H 	0.70251 0.51130 0.50282 0.03200
H 	H 	0.81284 0.51946 0.41835 0.04500
C 	C 	0.90666 0.02990 0.47107 -0.00500
C 	C 	0.94616 0.09442 0.48881 -0.03200
C 	C 	0.92248 0.13013 0.48927 -0.03500
C 	C 	0.85890 0.10211 0.47108 -0.00900
C 	C 	0.81707 0.03550 0.45711 0.02300
C 	C 	0.84159 0.00010 0.45611 -0.04900
C 	C 	0.75105 0.00480 0.44527 -0.04500
C 	C 	0.72616 0.03940 0.44761 -0.03800
C 	C 	0.76737 0.10587 0.45924 0.00200
C 	C 	0.83460 0.13818 0.46873 0.01100
C 	C 	0.87577 0.20531 0.47359 -0.05800
C 	C 	0.85034 0.23951 0.47442 0.00400
C 	C 	0.78374 0.20746 0.46937 -0.08300
C 	C 	0.74226 0.14067 0.46078 -0.01500
H 	H 	0.95275 0.17841 0.50533 0.03600
H 	H 	0.81031 0.94979 0.44345 0.04700
H 	H 	0.71865 0.95371 0.43512 0.03700
H 	H 	0.67475 0.01453 0.43960 0.03600
H 	H 	0.92696 0.23101 0.47514 0.04200
H 	H 	0.88259 0.29108 0.47956 0.03100
H 	H 	0.69065 0.11590 0.45529 0.03500
C 	C 	0.09298 0.03109 0.45876 -0.00500
C 	C 	0.12502 0.08760 0.44414 -0.03200
C 	C 	0.19033 0.12132 0.44298 -0.03500
C 	C 	0.22420 0.09726 0.45482 -0.00800
C 	C 	0.19285 0.04261 0.47200 0.02300
C 	C 	0.12721 0.00913 0.47307 -0.04900
C 	C 	0.22785 0.02327 0.48914 -0.04500
C 	C 	0.29375 0.05815 0.49004 -0.03800
C 	C 	0.32520 0.11078 0.47183 0.00400
C 	C 	0.28994 0.12863 0.45216 0.01100
C 	C 	0.32037 0.17504 0.42902 -0.05600
C 	C 	0.38633 0.20915 0.42995 0.00300
C 	C 	0.42255 0.19556 0.45243 -0.07400
C 	C 	0.39141 0.14504 0.47241 -0.01700
H 	H 	0.09947 0.10595 0.43404 0.04300
H 	H 	0.21476 0.16742 0.43478 0.03700
H 	H 	0.10316 0.96684 0.48580 0.04600
H 	H 	0.20418 0.98188 0.50265 0.03700
H 	H 	0.32031 0.04358 0.50448 0.03600
H 	H 	0.29300 0.18285 0.40897 0.04200
H 	H 	0.40913 0.24597 0.41293 0.03500
H 	H 	0.41855 0.13216 0.48821 0.04200
C 	C 	0.92170 0.87123 0.98337 -0.00600
C 	C 	0.87535 0.84261 0.00653 -0.03300
C 	C 	0.84064 0.77748 0.00669 -0.03800
C 	C 	0.84989 0.73909 0.98222 -0.00600
C 	C 	0.89868 0.76873 0.96002 0.02500
C 	C 	0.93285 0.83412 0.95992 -0.05200
C 	C 	0.91502 0.73348 0.93967 -0.04900
C 	C 	0.88518 0.66983 0.94210 -0.03600
C 	C 	0.83563 0.63907 0.96301 0.00300
C 	C 	0.81486 0.67240 0.98135 0.01100
C 	C 	0.75851 0.63784 0.99701 -0.05400
C 	C 	0.72926 0.57403 0.99916 0.00700
C 	C 	0.75353 0.54271 0.98407 -0.07600
C 	C 	0.80577 0.57489 0.96522 -0.01400
H 	H 	0.86811 0.87139 0.02576 0.04100
H 	H 	0.80999 0.75832 0.02757 0.03700
H 	H 	0.95249 0.75606 0.92281 0.04000
H 	H 	0.90017 0.64408 0.92728 0.03500
H 	H 	0.73524 0.65883 0.00566 0.04000
H 	H 	0.68672 0.54849 0.01185 0.03000
H 	H 	0.82348 0.55021 0.95254 0.04000
C 	C 	0.76860 0.19513 0.98361 -0.08400
C 	C 	0.74421 0.13939 0.99853 0.01200
C 	C 	0.77950 0.11525 0.00267 -0.06400
C 	C 	0.84135 0.14796 0.99320 0.01500
C 	C 	0.86457 0.20253 0.97645 -0.00000
C 	C 	0.82912 0.22690 0.97296 -0.01600
C 	C 	0.92133 0.23036 0.96165 -0.03600
C 	C 	0.95394 0.20327 0.96193 -0.05000
C 	C 	0.93276 0.15030 0.97922 0.02500
C 	C 	0.87872 0.12481 0.99727 -0.00800
C 	C 	0.86480 0.07857 0.01985 -0.03700
C 	C 	0.89731 0.05131 0.01934 -0.03200
C 	C 	0.94613 0.07168 0.99789 -0.00600
C 	C 	0.96536 0.12272 0.97898 -0.05000
H 	H 	0.69676 0.11332 0.00572 0.03500
H 	H 	0.75677 0.06932 0.01094 0.04400
H 	H 	0.84798 0.26970 0.96110 0.03600
H 	H 	0.93913 0.27195 0.94869 0.03300
H 	H 	0.83123 0.06564 0.03907 0.03800
H 	H 	0.88478 0.01450 0.03591 0.04200
C 	C 	0.13519 0.07307 0.99659 -0.00400
C 	C 	0.16553 0.05220 0.01756 -0.03400
C 	C 	0.23050 0.08015 0.01857 -0.03400
C 	C 	0.26755 0.13227 0.00018 -0.01100
C 	C 	0.23630 0.15165 0.97768 0.02700
C 	C 	0.17072 0.12313 0.97692 -0.05300
C 	C 	0.26994 0.19688 0.95470 -0.04900
C 	C 	0.33363 0.22191 0.95307 -0.03800
C 	C 	0.36613 0.20516 0.97614 0.00700
C 	C 	0.33440 0.16291 0.00154 0.00800
C 	C 	0.37075 0.15449 0.02863 -0.05400
C 	C 	0.43463 0.18046 0.02693 0.00000
C 	C 	0.46465 0.21832 0.99982 -0.07300
C 	C 	0.43070 0.23155 0.97489 -0.02000
H 	H 	0.13810 0.01267 0.03216 0.04300
H 	H 	0.25042 0.05848 0.03164 0.03700
H 	H 	0.14686 0.13808 0.95980 0.04700
H 	H 	0.24613 0.21143 0.93719 0.04000
H 	H 	0.35808 0.25523 0.93418 0.03700
H 	H 	0.35127 0.13125 0.05231 0.04200
H 	H 	0.46157 0.17301 0.04774 0.03900
H 	H 	0.45450 0.26249 0.95470 0.03900
