data_crystal

_cell_length_a 18.53716
_cell_length_b 18.73918
_cell_length_c 34.79655
_cell_angle_alpha 95.43103
_cell_angle_beta  95.43167
_cell_angle_gamma 126.40156

_symmetry_space_group_name_	'P 1'
_symmetry_space_group_name_H-M	'P 1'

loop_
_symmetry_equiv_pos_as_xyz
  x,y,z

loop_
_atom_site_label
_atom_site_type_symbol
_atom_site_fract_x
_atom_site_fract_y
_atom_site_fract_z
_atom_site_charge
C 	C 	0.88952 0.98321 0.96438 0.17700
N 	N 	0.84028 0.89219 0.96221 -0.13300
C 	C 	0.88438 0.85495 0.96722 0.15500
N 	N 	0.97674 0.90808 0.97329 -0.13500
C 	C 	0.02552 0.99824 0.97499 0.18400
N 	N 	0.98208 0.03596 0.97194 -0.14500
C 	C 	0.96344 0.04694 0.49119 0.13600
N 	N 	0.05474 0.09318 0.49297 -0.12200
C 	C 	0.09220 0.04921 0.49520 0.14100
N 	N 	0.03854 0.95960 0.49583 -0.11600
C 	C 	0.94762 0.91366 0.49425 0.14900
N 	N 	0.90984 0.95696 0.49100 -0.11500
Cu	Cu	0.73604 0.32543 0.95762 0.93000
Cu	Cu	0.74197 0.27894 0.04601 0.87700
Cu	Cu	0.59115 0.27761 0.00686 0.90200
Cu	Cu	0.55880 0.30385 0.92517 0.90300
C 	C 	0.66806 0.28171 0.87428 0.29600
O 	O 	0.78164 0.45334 0.95251 -0.33900
C 	C 	0.65494 0.32613 0.09371 0.29100
O 	O 	0.59395 0.24538 0.95347 -0.63900
O 	O 	0.72601 0.34714 0.01272 -0.64200
O 	O 	0.80141 0.27164 0.96561 -0.36600
O 	O 	0.71347 0.18327 0.00706 -0.41500
O 	O 	0.62583 0.31750 0.88120 -0.36000
O 	O 	0.45994 0.20247 0.99786 -0.36100
C 	C 	0.40745 0.20626 0.97106 0.31300
C 	C 	0.73606 0.48378 0.96228 0.29900
O 	O 	0.65215 0.42729 0.96782 -0.38200
O 	O 	0.43749 0.24707 0.94086 -0.37700
O 	O 	0.72300 0.28526 0.90290 -0.35400
C 	C 	0.76373 0.19726 0.98031 0.29800
O 	O 	0.58725 0.29199 0.06353 -0.36100
O 	O 	0.73285 0.34236 0.08907 -0.40900
H 	H 	0.55805 0.17964 0.94373 0.17700
H 	H 	0.76007 0.41148 0.02487 0.17800
Cu	Cu	0.63650 0.22023 0.50816 0.93000
Cu	Cu	0.71312 0.24759 0.42560 0.88900
Cu	Cu	0.65787 0.35607 0.45996 0.90600
Cu	Cu	0.64493 0.38769 0.54453 0.90500
C 	C 	0.67091 0.27908 0.59155 0.29600
O 	O 	0.50545 0.17114 0.51103 -0.35100
C 	C 	0.65242 0.32148 0.37552 0.28800
O 	O 	0.70593 0.36012 0.51317 -0.63200
O 	O 	0.61868 0.23052 0.45275 -0.63700
O 	O 	0.69284 0.15764 0.50072 -0.35500
O 	O 	0.79513 0.26394 0.46863 -0.41500
O 	O 	0.62510 0.31081 0.58410 -0.37600
O 	O 	0.68582 0.47497 0.46829 -0.35200
C 	C 	0.73236 0.53591 0.50090 0.30900
C 	C 	0.47091 0.21235 0.49987 0.29700
O 	O 	0.52526 0.29906 0.49884 -0.38000
O 	O 	0.71700 0.51292 0.53553 -0.37900
O 	O 	0.67523 0.23084 0.56307 -0.35600
C 	C 	0.76943 0.19725 0.48728 0.31300
O 	O 	0.62891 0.35213 0.40366 -0.34800
O 	O 	0.65698 0.25468 0.37864 -0.39000
H 	H 	0.77338 0.40073 0.52034 0.17100
H 	H 	0.55577 0.18535 0.43765 0.19100
C 	C 	0.73965 0.34529 0.70193 -0.06800
C 	C 	0.70197 0.26099 0.71247 0.01800
C 	C 	0.66726 0.18528 0.68310 -0.00400
C 	C 	0.66317 0.19301 0.64341 0.00400
C 	C 	0.69469 0.27609 0.63276 -0.08500
C 	C 	0.73793 0.35355 0.66238 0.05900
C 	C 	0.69157 0.25131 0.75377 0.01800
S 	S 	0.62922 0.08088 0.69565 -0.01500
H 	H 	0.63225 0.13367 0.62083 0.05500
S 	S 	0.79208 0.46143 0.65032 -0.04900
H 	H 	0.76890 0.40421 0.72452 0.06400
C 	C 	0.76846 0.29097 0.78376 -0.00400
C 	C 	0.75947 0.29646 0.82324 0.00700
C 	C 	0.67382 0.26080 0.83316 -0.07900
C 	C 	0.59564 0.21311 0.80309 0.06000
C 	C 	0.60516 0.21031 0.76366 -0.06600
S 	S 	0.87612 0.33378 0.77224 -0.00800
H 	H 	0.81957 0.33106 0.84618 0.05900
S 	S 	0.48544 0.15371 0.81437 -0.04200
H 	H 	0.54548 0.17745 0.74062 0.06400
H 	H 	0.88093 0.49809 0.64833 0.04700
H 	H 	0.92076 0.42228 0.76878 0.04500
H 	H 	0.45422 0.06785 0.81758 0.04400
H 	H 	0.70139 0.07788 0.70200 0.04900
C 	C 	0.57915 0.27091 0.19064 -0.06700
C 	C 	0.63317 0.35723 0.21432 0.01600
C 	C 	0.68551 0.43389 0.19700 -0.00400
C 	C 	0.68902 0.42319 0.15697 0.00200
C 	C 	0.63921 0.33662 0.13384 -0.08200
C 	C 	0.58148 0.26021 0.15054 0.05600
C 	C 	0.64440 0.36570 0.25762 0.01700
S 	S 	0.74649 0.54333 0.22508 -0.01600
H 	H 	0.73188 0.48215 0.14401 0.04500
S 	S 	0.51510 0.15059 0.12201 -0.02500
H 	H 	0.53795 0.21185 0.20378 0.05800
C 	C 	0.57237 0.34457 0.27704 -0.00400
C 	C 	0.57766 0.33557 0.31656 0.00300
C 	C 	0.65478 0.34857 0.33699 -0.07800
C 	C 	0.72996 0.37761 0.31849 0.06000
C 	C 	0.72397 0.38496 0.27889 -0.06700
S 	S 	0.47543 0.32901 0.25220 -0.00900
H 	H 	0.52053 0.31535 0.33094 0.06000
S 	S 	0.83221 0.40558 0.34470 -0.05200
H 	H 	0.78035 0.40331 0.26429 0.06000
H 	H 	0.56536 0.11889 0.12238 0.03300
H 	H 	0.41228 0.24033 0.23428 0.04400
H 	H 	0.88918 0.49586 0.36068 0.05800
H 	H 	0.69087 0.56888 0.22484 0.04900
C 	C 	0.89646 0.75909 0.46969 -0.06500
C 	C 	0.89013 0.81680 0.49532 -0.01600
C 	C 	0.83237 0.78204 0.52303 0.09900
C 	C 	0.77935 0.68984 0.52380 -0.01600
C 	C 	0.78624 0.63214 0.49840 -0.09100
C 	C 	0.84640 0.66755 0.47159 0.14300
Br	Br	0.86683 0.59404 0.43948 -0.26400
H 	H 	0.94187 0.78585 0.44875 0.08000
H 	H 	0.73374 0.66323 0.54466 0.07200
Br	Br	0.83019 0.86003 0.56217 -0.17900
C 	C 	0.87698 0.08847 0.45415 -0.06900
C 	C 	0.92251 0.09401 0.49013 -0.01400
C 	C 	0.91727 0.13322 0.52529 0.09800
C 	C 	0.86581 0.16554 0.52417 -0.01400
C 	C 	0.81953 0.15917 0.48818 -0.10100
C 	C 	0.82508 0.12015 0.45300 0.14300
Br	Br	0.75787 0.10453 0.40331 -0.29800
H 	H 	0.87960 0.05690 0.42711 0.07700
H 	H 	0.86215 0.19595 0.55127 0.06600
Br	Br	0.97870 0.14175 0.57513 -0.18900
C 	C 	0.22897 0.12691 0.46418 -0.06500
C 	C 	0.19078 0.09835 0.49763 -0.01800
C 	C 	0.24469 0.10617 0.53153 0.09900
C 	C 	0.33503 0.13971 0.53131 -0.02200
C 	C 	0.37307 0.16749 0.49777 -0.09000
C 	C 	0.31973 0.16127 0.46407 0.13700
Br	Br	0.36838 0.19552 0.41707 -0.24100
H 	H 	0.18738 0.12002 0.43788 0.07700
H 	H 	0.37649 0.14641 0.55762 0.06900
Br	Br	0.19690 0.07420 0.57887 -0.19400
C 	C 	0.77727 0.62897 0.99693 -0.01900
C 	C 	0.77532 0.57947 0.96338 -0.09200
C 	C 	0.79941 0.61809 0.92950 0.13700
C 	C 	0.82818 0.70633 0.93006 -0.06100
C 	C 	0.83285 0.75675 0.96402 -0.02000
C 	C 	0.80576 0.71710 0.99737 0.10200
Br	Br	0.80922 0.78310 0.04411 -0.21700
H 	H 	0.75645 0.59887 0.02271 0.05900
H 	H 	0.84947 0.73671 0.90437 0.08800
Br	Br	0.79092 0.55086 0.88175 -0.21600
C 	C 	0.76627 0.99542 0.97666 -0.02000
C 	C 	0.84307 0.02548 0.95963 -0.05900
C 	C 	0.88119 0.10252 0.94201 0.11300
C 	C 	0.85306 0.15690 0.94777 -0.03600
C 	C 	0.78156 0.13130 0.96810 -0.07900
C 	C 	0.73229 0.04521 0.97903 0.10200
Br	Br	0.61229 0.98758 0.99100 -0.20800
H 	H 	0.73254 0.93315 0.98795 0.07700
H 	H 	0.88692 0.21900 0.93636 0.07700
Br	Br	0.96506 0.12991 0.90700 -0.20600
C 	C 	0.18700 0.11427 0.00731 -0.05900
C 	C 	0.12290 0.05222 0.97385 -0.03200
C 	C 	0.15236 0.04308 0.93918 0.09800
C 	C 	0.24551 0.09394 0.93862 -0.02000
C 	C 	0.30994 0.15498 0.97226 -0.08600
C 	C 	0.28037 0.16609 0.00666 0.13400
Br	Br	0.36584 0.25491 0.05227 -0.21900
H 	H 	0.16426 0.12255 0.03379 0.07600
H 	H 	0.26793 0.08577 0.91201 0.06300
Br	Br	0.06622 0.96338 0.89192 -0.18000
