data_crystal

_cell_length_a 21.11500
_cell_length_b 19.39536
_cell_length_c 49.86113
_cell_angle_alpha 90.61350
_cell_angle_beta  90.72769
_cell_angle_gamma 113.88501

_symmetry_space_group_name_	'P 1'
_symmetry_space_group_name_H-M	'P 1'

loop_
_symmetry_equiv_pos_as_xyz
  x,y,z

loop_
_atom_site_label
_atom_site_type_symbol
_atom_site_fract_x
_atom_site_fract_y
_atom_site_fract_z
_atom_site_charge
Ni	Ni	0.40743 0.75057 0.01407 1.10300
Ni	Ni	0.24992 0.70446 0.02404 1.10500
O 	O 	0.47007 0.91365 0.03956 -0.37600
O 	O 	0.22417 0.53064 0.01926 -0.37800
O 	O 	0.15531 0.62793 0.00962 -0.34500
O 	O 	0.34500 0.77310 0.03953 -0.69600
O 	O 	0.49706 0.81080 0.03455 -0.36600
O 	O 	0.20070 0.73841 0.05322 -0.35100
O 	O 	0.26097 0.86230 0.04288 -0.38500
Ni	Ni	0.36485 0.88004 0.04041 1.08700
H 	H 	0.35202 0.75755 0.05779 0.15600
C 	C 	0.23543 0.55550 0.04421 0.32800
C 	C 	0.21748 0.81042 0.05833 0.29200
C 	C 	0.50141 0.87113 0.04832 0.29400
O 	O 	0.25879 0.62757 0.04980 -0.39800
C 	C 	0.93335 0.08934 0.19263 -0.04500
H 	H 	0.92521 0.08812 0.17051 0.04900
C 	C 	0.95193 0.09180 0.24551 -0.04200
H 	H 	0.96000 0.09325 0.26763 0.04800
C 	C 	0.96310 0.03420 0.20297 0.00800
C 	C 	0.98309 0.16561 0.20439 0.00100
C 	C 	0.86736 0.06957 0.20900 0.00600
C 	C 	0.97308 0.03586 0.23009 0.00500
C 	C 	0.99267 0.16700 0.23162 -0.00100
C 	C 	0.87651 0.06978 0.23625 0.00200
C 	C 	0.10197 0.32107 0.15086 0.03100
C 	C 	0.10706 0.39540 0.15098 -0.04700
C 	C 	0.13696 0.44229 0.12937 -0.02300
C 	C 	0.16177 0.41502 0.10752 -0.00600
C 	C 	0.15844 0.34139 0.10774 -0.02300
C 	C 	0.12862 0.29452 0.12936 -0.04600
C 	C 	0.06268 0.26956 0.17115 -0.02100
C 	C 	0.02776 0.22405 0.18708 0.00400
C 	C 	0.18849 0.46197 0.08454 0.05700
C 	C 	0.21018 0.50315 0.06573 -0.09600
H 	H 	0.08643 0.41631 0.16746 0.04800
H 	H 	0.13969 0.49930 0.12941 0.04500
H 	H 	0.17780 0.32000 0.09100 0.04800
H 	H 	0.12468 0.23704 0.12908 0.05000
C 	C 	0.60089 0.92378 0.12080 -0.00800
C 	C 	0.62681 0.87543 0.13285 -0.02700
C 	C 	0.66947 0.89943 0.15571 -0.04500
C 	C 	0.68675 0.97206 0.16640 0.02100
C 	C 	0.65577 0.01764 0.15572 -0.04000
C 	C 	0.61302 0.99361 0.13289 -0.03300
C 	C 	0.56667 0.90449 0.09506 0.04900
C 	C 	0.53781 0.88914 0.07351 -0.11400
C 	C 	0.74692 0.00549 0.18347 -0.01600
C 	C 	0.80033 0.03444 0.19605 -0.00400
H 	H 	0.61642 0.82068 0.12388 0.04400
H 	H 	0.69269 0.86354 0.16403 0.04700
H 	H 	0.66833 0.07359 0.16404 0.04600
H 	H 	0.59190 0.03063 0.12394 0.04500
C 	C 	0.10849 0.87245 0.11325 -0.00300
C 	C 	0.12596 0.87532 0.14057 -0.02800
C 	C 	0.09287 0.90285 0.15930 -0.04300
C 	C 	0.04224 0.92760 0.15075 0.02200
C 	C 	0.02342 0.92273 0.12352 -0.03700
C 	C 	0.05649 0.89520 0.10480 -0.02600
C 	C 	0.14630 0.84988 0.09379 0.05100
C 	C 	0.17855 0.83167 0.07753 -0.09200
C 	C 	0.01353 0.96326 0.16953 -0.00900
C 	C 	0.99022 0.99470 0.18494 -0.01400
H 	H 	0.16598 0.85755 0.14724 0.03900
H 	H 	0.10757 0.90637 0.18034 0.04400
H 	H 	0.98426 0.94174 0.11679 0.04500
H 	H 	0.04259 0.89287 0.08371 0.05400
C 	C 	0.77419 0.99017 0.26835 -0.02400
C 	C 	0.82016 0.02698 0.25365 0.00300
H 	H 	0.63952 0.91223 0.25541 0.04600
C 	C 	0.09206 0.27532 0.25908 -0.02200
C 	C 	0.04778 0.22750 0.24570 0.00500
H 	H 	0.12675 0.42491 0.26076 0.04700
C 	C 	0.08043 0.87128 0.26619 -0.05200
C 	C 	0.00380 0.93513 0.25611 -0.01500
C 	C 	0.98997 0.98038 0.24381 -0.01100
H 	H 	0.10892 0.89340 0.24807 0.04500
F 	F 	0.42750 0.02905 0.01113 -0.47600
O 	O 	0.37014 0.58261 0.00178 -0.38400
O 	O 	0.35751 0.88243 0.00004 -0.38200
C 	C 	0.02086 0.88330 0.27185 0.03600
C 	C 	0.65175 0.90848 0.27637 -0.04800
C 	C 	0.14193 0.32968 0.27687 0.03100
C 	C 	0.14903 0.40467 0.27696 -0.04800
H 	H 	0.15378 0.82891 0.28084 0.03400
C 	C 	0.71998 0.94567 0.28611 0.03100
H 	H 	0.54591 0.84046 0.28629 0.03700
C 	C 	0.10578 0.83473 0.28472 -0.02100
C 	C 	0.59880 0.86741 0.29383 -0.02600
C 	C 	0.17221 0.30460 0.29767 -0.04700
H 	H 	0.16794 0.24700 0.29754 0.05000
C 	C 	0.98381 0.85357 0.29512 -0.06200
C 	C 	0.17966 0.45185 0.29909 -0.02400
H 	H 	0.18092 0.50826 0.29980 0.03900
H 	H 	0.93728 0.86203 0.29949 0.05200
C 	C 	0.07165 0.81022 0.30897 -0.01500
C 	C 	0.73538 0.93980 0.31320 -0.04600
C 	C 	0.00921 0.81713 0.31367 -0.00700
C 	C 	0.61387 0.86326 0.32109 -0.00300
H 	H 	0.78811 0.96784 0.32083 0.05100
C 	C 	0.20293 0.42399 0.32123 -0.00700
C 	C 	0.20248 0.35163 0.31987 -0.02200
C 	C 	0.68244 0.89877 0.33066 -0.02200
C 	C 	0.10601 0.78954 0.33046 0.05500
H 	H 	0.98220 0.79768 0.33228 0.04300
C 	C 	0.55818 0.83107 0.33972 0.05000
H 	H 	0.22138 0.33005 0.33672 0.04700
C 	C 	0.21347 0.46286 0.34669 0.05100
C 	C 	0.13682 0.77537 0.34854 -0.10600
H 	H 	0.69451 0.89617 0.35171 0.05500
C 	C 	0.51108 0.80753 0.35527 -0.08700
C 	C 	0.21813 0.49512 0.36786 -0.10000
H 	H 	0.28527 0.67802 0.37215 0.15700
C 	C 	0.17594 0.76171 0.36988 0.29900
C 	C 	0.45442 0.78492 0.37353 0.29500
O 	O 	0.23066 0.81823 0.37971 -0.40500
Ni	Ni	0.32799 0.81535 0.38153 1.06700
O 	O 	0.43074 0.83554 0.38097 -0.39700
O 	O 	0.29216 0.70786 0.38899 -0.70800
O 	O 	0.14998 0.69749 0.38255 -0.35700
O 	O 	0.43885 0.72255 0.38732 -0.34300
O 	O 	0.17630 0.56771 0.39509 -0.36700
C 	C 	0.21922 0.53421 0.39249 0.28700
Ni	Ni	0.20616 0.67369 0.41210 1.10100
Ni	Ni	0.35948 0.69134 0.41391 1.10300
O 	O 	0.25344 0.52539 0.41350 -0.40900
F 	F 	0.47982 0.55657 0.41607 -0.44100
O 	O 	0.33326 0.84348 0.42123 -0.41800
O 	O 	0.27577 0.66621 0.43872 -0.69600
O 	O 	0.12185 0.63652 0.43605 -0.35300
O 	O 	0.41660 0.65049 0.43766 -0.32500
C 	C 	0.38525 0.84569 0.43634 0.32500
O 	O 	0.41009 0.79386 0.43343 -0.32700
H 	H 	0.00678 0.42328 0.43706 0.10800
H 	H 	0.56341 0.50107 0.43678 0.08800
O 	O 	0.13355 0.52602 0.44317 -0.40100
C 	C 	0.09825 0.56858 0.44611 0.32300
C 	C 	0.98400 0.45673 0.44747 -0.10700
F 	F 	0.87638 0.34919 0.44857 -0.44300
C 	C 	0.48431 0.54304 0.44253 0.33800
Ni	Ni	0.23835 0.56100 0.45049 1.07300
H 	H 	0.28418 0.70220 0.45394 0.17200
C 	C 	0.39130 0.58872 0.45195 0.33200
C 	C 	0.42437 0.91428 0.45270 -0.12000
H 	H 	0.33810 0.94699 0.45575 0.09900
F 	F 	0.52672 0.88850 0.45330 -0.42300
C 	C 	0.91400 0.42330 0.45443 0.34200
C 	C 	0.02431 0.53294 0.45390 -0.10700
C 	C 	0.53169 0.51376 0.45128 -0.09100
O 	O 	0.54909 0.19173 0.46674 -0.39500
C 	C 	0.39304 0.96357 0.45942 -0.10000
C 	C 	0.49539 0.93575 0.45878 0.33400
C 	C 	0.44034 0.55622 0.46097 -0.11800
O 	O 	0.33462 0.57329 0.46595 -0.39900
C 	C 	0.53493 0.00750 0.46954 -0.08000
C 	C 	0.43298 0.03558 0.46980 0.34600
F 	F 	0.40243 0.08358 0.47530 -0.45000
C 	C 	0.88337 0.46559 0.46804 -0.13400
C 	C 	0.99289 0.57610 0.46651 0.32100
Ni	Ni	0.54428 0.28702 0.48139 1.08100
H 	H 	0.66896 0.31809 0.47571 0.17400
C 	C 	0.81680 0.42628 0.48179 0.33900
C 	C 	0.54744 0.13640 0.48237 0.34500
C 	C 	0.50443 0.05847 0.47414 -0.13200
H 	H 	0.58985 0.02440 0.47341 0.09700
C 	C 	0.92274 0.54265 0.47332 -0.08400
F 	F 	0.03079 0.64973 0.47301 -0.43500
C 	C 	0.53531 0.49701 0.47842 -0.12300
O 	O 	0.63976 0.47633 0.48654 -0.36100
C 	C 	0.57147 0.44932 0.48640 0.31500
O 	O 	0.77179 0.45775 0.48331 -0.36200
H 	H 	0.90004 0.57581 0.48397 0.10400
C 	C 	0.44620 0.54241 0.48830 -0.08800
O 	O 	0.81036 0.36999 0.49721 -0.39700
O 	O 	0.64230 0.32209 0.49140 -0.70100
O 	O 	0.53550 0.38275 0.49651 -0.39200
C 	C 	0.49340 0.51309 0.49697 0.34100
O 	O 	0.58205 0.14949 0.50563 -0.36900
H 	H 	0.41429 0.55453 0.50286 0.09900
Ni	Ni	0.68958 0.42542 0.50984 1.10500
O 	O 	0.48961 0.22536 0.51299 -0.36200
Ni	Ni	0.64933 0.25395 0.52021 1.10300
O 	O 	0.74171 0.52373 0.53041 -0.35900
F 	F 	0.49717 0.49839 0.52337 -0.44100
O 	O 	0.70947 0.35840 0.53603 -0.69600
Ni	Ni	0.80818 0.38284 0.53761 1.07000
C 	C 	0.50994 0.23810 0.53821 0.32600
O 	O 	0.83733 0.49684 0.53520 -0.40800
O 	O 	0.79401 0.27088 0.54154 -0.40100
O 	O 	0.57539 0.26055 0.54503 -0.38900
C 	C 	0.79808 0.53065 0.54394 0.30400
O 	O 	0.67988 0.20192 0.55026 -0.35900
H 	H 	0.69380 0.36570 0.55406 0.16000
C 	C 	0.74577 0.22402 0.55685 0.29400
C 	C 	0.45902 0.21315 0.55883 -0.08400
C 	C 	0.41709 0.19123 0.57642 0.05900
H 	H 	0.27830 0.13475 0.57112 0.05300
C 	C 	0.81078 0.56432 0.57021 -0.12300
C 	C 	0.76550 0.18752 0.57816 -0.10500
H 	H 	0.79302 0.02446 0.59497 0.05000
C 	C 	0.29638 0.13493 0.59157 -0.02200
C 	C 	0.82207 0.59075 0.59259 0.05400
C 	C 	0.78436 0.15881 0.59608 0.05000
C 	C 	0.36754 0.16403 0.59759 -0.00300
H 	H 	0.19337 0.08226 0.60706 0.05200
C 	C 	0.81468 0.05751 0.61307 -0.02400
C 	C 	0.24829 0.10513 0.61192 -0.04400
C 	C 	0.80975 0.12668 0.61728 -0.00800
H 	H 	0.85639 0.98037 0.62776 0.04700
C 	C 	0.39040 0.16391 0.62413 -0.02300
C 	C 	0.83747 0.62229 0.61928 -0.01400
H 	H 	0.76771 0.67837 0.61672 0.04700
C 	C 	0.85060 0.03261 0.63162 -0.04400
H 	H 	0.44533 0.18623 0.62894 0.04400
C 	C 	0.80807 0.67102 0.62842 -0.02200
H 	H 	0.90998 0.57250 0.62830 0.03400
C 	C 	0.83755 0.16881 0.64083 -0.02600
C 	C 	0.27113 0.10423 0.63839 0.03000
C 	C 	0.34228 0.13409 0.64449 -0.04600
C 	C 	0.88815 0.61149 0.63494 -0.02400
C 	C 	0.88177 0.07684 0.65441 0.02700
H 	H 	0.83361 0.22219 0.64427 0.03600
C 	C 	0.83421 0.71446 0.65174 -0.04800
H 	H 	0.03935 0.95874 0.66527 0.05000
C 	C 	0.87352 0.14393 0.65937 -0.04800
C 	C 	0.22142 0.07143 0.65916 -0.01900
H 	H 	0.36034 0.13373 0.66491 0.04800
C 	C 	0.89042 0.70997 0.66573 0.02800
C 	C 	0.91443 0.65511 0.65820 -0.04900
H 	H 	0.81454 0.75590 0.65768 0.04800
C 	C 	0.92822 0.05771 0.67097 -0.01900
C 	C 	0.17862 0.04339 0.67609 -0.00100
H 	H 	0.95710 0.65036 0.66916 0.04600
C 	C 	0.04880 0.97038 0.68719 -0.04700
C 	C 	0.96826 0.04173 0.68418 -0.00700
H 	H 	0.89706 0.17812 0.67706 0.04600
C 	C 	0.93395 0.77283 0.68220 -0.02000
C 	C 	0.01695 0.02188 0.69926 0.00800
C 	C 	0.12537 0.00911 0.69567 0.00500
C 	C 	0.97254 0.82910 0.69381 -0.00700
C 	C 	0.02029 0.90035 0.70487 0.00800
C 	C 	0.13692 0.02307 0.72261 0.00500
C 	C 	0.02881 0.03618 0.72616 0.00900
C 	C 	0.03179 0.91445 0.73186 0.00800
C 	C 	0.20376 0.06940 0.73408 -0.00100
C 	C 	0.07154 0.99794 0.73962 -0.04800
C 	C 	0.99549 0.07466 0.74170 -0.00600
C 	C 	0.25719 0.10693 0.74562 -0.02000
C 	C 	0.96824 0.10606 0.75532 -0.02000
H 	H 	0.83430 0.08447 0.75429 0.04700
H 	H 	0.36619 0.07191 0.75476 0.04800
C 	C 	0.99545 0.85958 0.75186 -0.00600
H 	H 	0.08141 0.00965 0.76152 0.05200
C 	C 	0.86474 0.12292 0.77007 -0.04800
C 	C 	0.31755 0.14918 0.76169 0.03000
C 	C 	0.36584 0.11824 0.76702 -0.04900
H 	H 	0.84162 0.69934 0.76771 0.04800
C 	C 	0.96632 0.81657 0.76944 -0.01900
C 	C 	0.93617 0.14242 0.77232 0.03000
H 	H 	0.77655 0.13451 0.78725 0.03900
C 	C 	0.31867 0.21023 0.77730 -0.04800
H 	H 	0.28232 0.23541 0.77303 0.04900
C 	C 	0.83207 0.15116 0.78873 -0.02400
C 	C 	0.97519 0.19235 0.79273 -0.05100
C 	C 	0.40903 0.14190 0.78974 -0.02300
H 	H 	0.44313 0.11437 0.79472 0.03800
C 	C 	0.93273 0.76750 0.79121 0.03100
C 	C 	0.86705 0.70895 0.78726 -0.04800
C 	C 	0.87074 0.19901 0.80969 -0.00700
H 	H 	0.03048 0.20775 0.79455 0.05400
C 	C 	0.36169 0.23374 0.80008 -0.02200
C 	C 	0.40425 0.19685 0.80707 -0.01300
H 	H 	0.78358 0.61676 0.80531 0.04200
C 	C 	0.94253 0.22060 0.81138 -0.02100
H 	H 	0.35894 0.27754 0.81308 0.04500
C 	C 	0.96497 0.77977 0.81663 -0.05100
C 	C 	0.83403 0.66243 0.80859 -0.02300
C 	C 	0.83623 0.22198 0.83037 0.05200
H 	H 	0.97278 0.25784 0.82748 0.05100
C 	C 	0.43544 0.20782 0.83336 0.05300
C 	C 	0.86652 0.67438 0.83397 -0.00700
H 	H 	0.01558 0.82519 0.81988 0.05500
C 	C 	0.80698 0.24024 0.84783 -0.09400
C 	C 	0.93198 0.73328 0.83794 -0.02000
H 	H 	0.64807 0.32848 0.87335 0.15700
C 	C 	0.77156 0.26099 0.86860 0.29200
C 	C 	0.46132 0.21510 0.85540 -0.11900
C 	C 	0.83478 0.62302 0.85539 0.05800
H 	H 	0.95761 0.74264 0.85745 0.04900
O 	O 	0.79454 0.33200 0.87653 -0.35200
O 	O 	0.72518 0.20769 0.88268 -0.38400
O 	O 	0.74846 0.45114 0.88494 -0.39900
Ni	Ni	0.62415 0.19910 0.88643 1.08500
C 	C 	0.49388 0.22281 0.88120 0.29900
O 	O 	0.52046 0.17438 0.88827 -0.38300
C 	C 	0.80849 0.57823 0.87283 -0.09700
O 	O 	0.65270 0.30713 0.89084 -0.69700
O 	O 	0.50314 0.28198 0.89658 -0.36700
C 	C 	0.77742 0.52181 0.89268 0.32900
Ni	Ni	0.74917 0.36430 0.90757 1.10400
Ni	Ni	0.59365 0.32984 0.91783 1.10200
O 	O 	0.78711 0.54072 0.91825 -0.38300
F 	F 	0.56083 0.04183 0.91571 -0.47000
O 	O 	0.63174 0.18712 0.92657 -0.38000
O 	O 	0.84610 0.43028 0.92326 -0.34700
C 	C 	0.52949 0.03918 0.93951 0.34100
H 	H 	0.48387 0.91779 0.93974 0.09800
O 	O 	0.68831 0.37233 0.93683 -0.70100
O 	O 	0.55106 0.38462 0.94277 -0.36900
O 	O 	0.64193 0.49685 0.93533 -0.38200
Ni	Ni	0.72702 0.47807 0.94873 1.08600
H 	H 	0.68948 0.33978 0.95183 0.17100
C 	C 	0.57964 0.18099 0.94159 0.32900
C 	C 	0.58020 0.45888 0.94524 0.31000
C 	C 	0.85957 0.45943 0.94799 0.33500
O 	O 	0.55809 0.23621 0.94250 -0.36100
C 	C 	0.97744 0.45939 0.95242 0.33500
H 	H 	0.08112 0.46619 0.95717 0.09700
F 	F 	0.95421 0.39128 0.93959 -0.43800
C 	C 	0.48864 0.96889 0.95025 -0.08700
C 	C 	0.53642 0.10642 0.95295 -0.12300
C 	C 	0.46978 0.47411 0.95300 -0.08900
H 	H 	0.44200 0.42281 0.94142 0.10200
F 	F 	0.36440 0.48958 0.95854 -0.47200
O 	O 	0.81047 0.46339 0.96340 -0.40500
O 	O 	0.19246 0.59019 0.97073 -0.40200
C 	C 	0.95644 0.56386 0.97141 -0.09300
C 	C 	0.93193 0.49414 0.95768 -0.12100
C 	C 	0.04674 0.49410 0.96090 -0.08000
C 	C 	0.07117 0.56367 0.97477 -0.12600
C 	C 	0.45334 0.96456 0.97422 -0.12600
C 	C 	0.43366 0.51489 0.96330 0.33500
C 	C 	0.54163 0.50024 0.95717 -0.12300
O 	O 	0.45565 0.69637 0.99162 -0.36700
O 	O 	0.43616 0.83743 0.98650 -0.36100
Ni	Ni	0.28029 0.58854 0.98695 1.08800
H 	H 	0.30826 0.72373 0.97963 0.17100
C 	C 	0.43009 0.62194 0.99077 0.31200
C 	C 	0.14308 0.59769 0.98507 0.33400
C 	C 	0.41141 0.89005 0.98586 0.33100
C 	C 	0.02573 0.59865 0.97985 0.34600
H 	H 	0.92201 0.59170 0.97517 0.09500
C 	C 	0.45974 0.03176 0.98753 0.34300
C 	C 	0.50092 0.10207 0.97688 -0.08700
C 	C 	0.54097 0.60866 0.98213 -0.08600
C 	C 	0.46907 0.58221 0.97811 -0.12700
C 	C 	0.57712 0.56783 0.97186 0.33300
F 	F 	0.64634 0.59306 0.97670 -0.46500
O 	O 	0.31261 0.69610 0.99564 -0.70100
F 	F 	0.04897 0.66690 0.99257 -0.44000
H 	H 	0.50578 0.15316 0.98743 0.09800
H 	H 	0.56868 0.65995 0.99372 0.10000
