data_crystal

_cell_length_a 26.02543
_cell_length_b 26.24179
_cell_length_c 34.74779
_cell_angle_alpha 95.53409
_cell_angle_beta  95.53535
_cell_angle_gamma 125.67590

_symmetry_space_group_name_	'P 1'
_symmetry_space_group_name_H-M	'P 1'

loop_
_symmetry_equiv_pos_as_xyz
  x,y,z

loop_
_atom_site_label
_atom_site_type_symbol
_atom_site_fract_x
_atom_site_fract_y
_atom_site_fract_z
_atom_site_charge
C 	C 	0.94222 0.00990 0.00265 0.09800
N 	N 	0.00660 0.04329 0.00333 -0.13400
C 	C 	0.03476 0.01302 0.00498 0.10800
N 	N 	0.99830 0.94942 0.00502 -0.13700
C 	C 	0.93384 0.91572 0.00320 0.10700
N 	N 	0.90599 0.94617 0.00244 -0.13200
C 	C 	0.96861 0.02575 0.45610 0.09600
N 	N 	0.03392 0.06485 0.46116 -0.13300
C 	C 	0.06772 0.04063 0.46505 0.10500
N 	N 	0.03609 0.97709 0.46389 -0.13000
C 	C 	0.97090 0.93771 0.45907 0.10500
N 	N 	0.93704 0.96205 0.45529 -0.13200
Cu	Cu	0.61610 0.22551 0.99655 0.92300
Cu	Cu	0.64655 0.20911 0.90883 0.87300
Cu	Cu	0.63000 0.31817 0.94403 0.90900
Cu	Cu	0.60213 0.33505 0.02368 0.89200
C 	C 	0.63948 0.27746 0.07875 0.29400
O 	O 	0.52081 0.17849 0.99896 -0.35800
C 	C 	0.64432 0.29571 0.86640 0.29500
O 	O 	0.65601 0.32273 0.99857 -0.63700
O 	O 	0.59844 0.22725 0.93992 -0.63200
O 	O 	0.67219 0.19588 0.99527 -0.37200
O 	O 	0.63131 0.14077 0.93211 -0.42400
O 	O 	0.60198 0.29467 0.06948 -0.38900
O 	O 	0.66693 0.40767 0.94925 -0.37900
C 	C 	0.66841 0.44249 0.98008 0.28000
C 	C 	0.48891 0.20026 0.98621 0.27100
O 	O 	0.52060 0.25893 0.97975 -0.39400
O 	O 	0.62937 0.41563 0.00527 -0.39600
O 	O 	0.64334 0.24046 0.05247 -0.36500
C 	C 	0.66377 0.15276 0.96720 0.27900
O 	O 	0.61447 0.31096 0.88755 -0.38200
O 	O 	0.68154 0.28280 0.88379 -0.43300
H 	H 	0.70273 0.35495 0.00895 0.15500
H 	H 	0.55203 0.19734 0.92813 0.15900
Cu	Cu	0.76343 0.35990 0.45182 0.92700
Cu	Cu	0.75588 0.30771 0.53456 0.86400
Cu	Cu	0.67021 0.34038 0.50587 0.89500
Cu	Cu	0.64699 0.36478 0.42671 0.89300
C 	C 	0.70935 0.33611 0.37038 0.29500
O 	O 	0.80443 0.45371 0.45093 -0.36100
C 	C 	0.70705 0.34956 0.58989 0.28700
O 	O 	0.66431 0.31388 0.45107 -0.64000
O 	O 	0.76167 0.37281 0.50852 -0.64100
O 	O 	0.80533 0.31597 0.45381 -0.37200
O 	O 	0.73559 0.24758 0.48971 -0.44200
O 	O 	0.68937 0.37055 0.38078 -0.38800
O 	O 	0.57946 0.30178 0.50218 -0.39000
C 	C 	0.54104 0.29846 0.47257 0.28400
C 	C 	0.77983 0.48176 0.46527 0.27300
O 	O 	0.72043 0.44676 0.47135 -0.39600
O 	O 	0.56374 0.33123 0.44409 -0.39600
O 	O 	0.74887 0.33407 0.39588 -0.36500
C 	C 	0.77805 0.26218 0.46706 0.28000
O 	O 	0.67936 0.36274 0.56279 -0.38300
O 	O 	0.75473 0.34691 0.58362 -0.42200
H 	H 	0.63345 0.26728 0.44102 0.16000
H 	H 	0.79321 0.41701 0.52350 0.17400
C 	C 	0.64992 0.27179 0.75788 -0.08900
C 	C 	0.65854 0.32628 0.74760 0.00100
C 	C 	0.65605 0.36753 0.77527 0.02600
C 	C 	0.65081 0.35669 0.81401 -0.01600
C 	C 	0.64480 0.30346 0.82480 -0.10900
C 	C 	0.64083 0.25881 0.79588 0.08800
C 	C 	0.67146 0.34029 0.70789 0.00300
C 	C 	0.65957 0.42331 0.76375 -0.17400
H 	H 	0.65231 0.39015 0.83588 0.04500
C 	C 	0.62747 0.19763 0.80530 -0.19200
H 	H 	0.65037 0.23945 0.73623 0.04800
C 	C 	0.73520 0.37769 0.70103 0.02300
C 	C 	0.74595 0.38372 0.66236 -0.01600
C 	C 	0.69404 0.35119 0.63035 -0.10800
C 	C 	0.63013 0.31502 0.63738 0.09200
C 	C 	0.61957 0.31099 0.67624 -0.09300
C 	C 	0.79171 0.40803 0.73453 -0.17100
H 	H 	0.79487 0.41212 0.65705 0.03800
C 	C 	0.57310 0.27969 0.60373 -0.20100
H 	H 	0.57077 0.28303 0.68178 0.05000
H 	H 	0.67226 0.20749 0.82137 0.04800
H 	H 	0.61009 0.16182 0.77804 0.05900
H 	H 	0.58945 0.17587 0.82345 0.03600
H 	H 	0.62198 0.40652 0.73745 0.06600
H 	H 	0.70768 0.45875 0.75689 0.06400
H 	H 	0.65153 0.44768 0.78774 0.06400
H 	H 	0.83835 0.43933 0.72474 0.05900
H 	H 	0.79120 0.37026 0.74685 0.06200
H 	H 	0.78932 0.43787 0.75811 0.06300
H 	H 	0.52699 0.24802 0.61400 0.06600
H 	H 	0.57715 0.24910 0.58178 0.06200
H 	H 	0.57060 0.31438 0.58936 0.08700
C 	C 	0.70536 0.34669 0.18755 -0.09000
C 	C 	0.68737 0.29196 0.20265 0.00300
C 	C 	0.66084 0.23406 0.17660 0.02500
C 	C 	0.64737 0.23042 0.13588 -0.01400
C 	C 	0.66239 0.28447 0.12086 -0.10400
C 	C 	0.69499 0.34389 0.14677 0.09200
C 	C 	0.69211 0.29467 0.24575 0.00300
C 	C 	0.64419 0.17543 0.19213 -0.17200
H 	H 	0.62347 0.18508 0.11599 0.04400
C 	C 	0.71710 0.40402 0.13126 -0.19700
H 	H 	0.72677 0.39135 0.20762 0.05100
C 	C 	0.75216 0.32400 0.27077 0.02500
C 	C 	0.75681 0.33490 0.31177 -0.01400
C 	C 	0.70190 0.31480 0.32799 -0.10400
C 	C 	0.64087 0.27950 0.30296 0.09200
C 	C 	0.63676 0.27148 0.26199 -0.09000
C 	C 	0.81175 0.34630 0.25391 -0.17200
H 	H 	0.80349 0.36090 0.33099 0.04400
C 	C 	0.58028 0.25220 0.31967 -0.19800
H 	H 	0.59052 0.24788 0.24269 0.05100
H 	H 	0.75520 0.44729 0.15338 0.06400
H 	H 	0.67580 0.40591 0.12410 0.06200
H 	H 	0.73773 0.40564 0.10447 0.05600
H 	H 	0.60025 0.15535 0.20514 0.06300
H 	H 	0.68458 0.18763 0.21495 0.06400
H 	H 	0.63503 0.13802 0.16838 0.06100
H 	H 	0.85173 0.35758 0.27671 0.06100
H 	H 	0.82787 0.38995 0.24179 0.06300
H 	H 	0.80166 0.30845 0.23013 0.06400
H 	H 	0.57452 0.29025 0.32812 0.06200
H 	H 	0.58216 0.23181 0.34588 0.05600
H 	H 	0.53708 0.21310 0.29777 0.06400
C 	C 	0.80372 0.67882 0.51322 -0.03900
C 	C 	0.82689 0.74143 0.51030 -0.05100
C 	C 	0.86900 0.77323 0.48443 0.03300
C 	C 	0.88791 0.74175 0.46131 -0.02200
C 	C 	0.86461 0.67873 0.46427 -0.00300
C 	C 	0.82222 0.64712 0.49023 0.01100
C 	C 	0.88333 0.64721 0.44103 0.01100
C 	C 	0.92564 0.67909 0.41527 -0.03800
C 	C 	0.94902 0.74175 0.41247 -0.05100
C 	C 	0.93041 0.77338 0.43540 0.03300
C 	C 	0.95468 0.83661 0.43325 -0.06100
C 	C 	0.93730 0.86867 0.45700 0.00700
C 	C 	0.89347 0.83653 0.48196 -0.06100
C 	C 	0.79778 0.58376 0.49228 -0.02800
C 	C 	0.81435 0.55133 0.46801 -0.06200
C 	C 	0.85841 0.58376 0.44316 -0.02700
H 	H 	0.77116 0.65493 0.53327 0.03700
H 	H 	0.81214 0.76518 0.52824 0.04100
H 	H 	0.94033 0.65532 0.39730 0.03700
H 	H 	0.98170 0.76570 0.39250 0.04100
H 	H 	0.98814 0.86141 0.41377 0.05000
H 	H 	0.88028 0.86143 0.50035 0.04900
H 	H 	0.76471 0.55917 0.51199 0.04200
H 	H 	0.87140 0.55894 0.42449 0.04700
C 	C 	0.77081 0.07536 0.48990 -0.03800
C 	C 	0.79742 0.04190 0.48834 -0.05500
C 	C 	0.84956 0.06201 0.46913 0.03700
C 	C 	0.87404 0.11525 0.45049 -0.02600
C 	C 	0.84742 0.14911 0.45222 -0.00100
C 	C 	0.79612 0.12949 0.47238 0.00700
C 	C 	0.87318 0.20348 0.43462 0.00800
C 	C 	0.92414 0.22251 0.41445 -0.03800
C 	C 	0.95045 0.18879 0.41263 -0.05300
C 	C 	0.92625 0.13567 0.43104 0.03500
C 	C 	0.95480 0.10390 0.43119 -0.06400
C 	C 	0.93239 0.05263 0.45125 0.01100
C 	C 	0.87874 0.03077 0.46933 -0.07300
C 	C 	0.77179 0.16510 0.47566 -0.02800
C 	C 	0.79914 0.22098 0.45958 -0.07100
C 	C 	0.84879 0.23907 0.43823 -0.02400
H 	H 	0.73103 0.05960 0.50521 0.03200
H 	H 	0.77789 0.00077 0.50247 0.03900
H 	H 	0.94393 0.26387 0.40053 0.03600
H 	H 	0.99024 0.20455 0.39734 0.04000
H 	H 	0.99530 0.11986 0.41650 0.04900
H 	H 	0.86127 0.99107 0.48466 0.05700
H 	H 	0.73262 0.15015 0.49142 0.03400
H 	H 	0.86922 0.28135 0.42515 0.04700
C 	C 	0.28053 0.09587 0.51786 -0.05300
C 	C 	0.34692 0.13185 0.51877 -0.03800
C 	C 	0.37650 0.18071 0.49675 0.00800
C 	C 	0.33920 0.19417 0.47416 -0.00100
C 	C 	0.27238 0.15797 0.47326 -0.02400
C 	C 	0.24288 0.10830 0.49493 0.03400
C 	C 	0.23492 0.17081 0.45020 0.03400
C 	C 	0.26467 0.22037 0.42871 -0.05200
C 	C 	0.33105 0.25638 0.42965 -0.03700
C 	C 	0.36853 0.24324 0.45205 0.00900
C 	C 	0.43477 0.27803 0.45220 -0.02400
C 	C 	0.47190 0.26382 0.47403 -0.06500
C 	C 	0.44268 0.21560 0.49661 -0.02500
C 	C 	0.17603 0.07108 0.49295 -0.06200
C 	C 	0.13840 0.08282 0.46926 0.00700
C 	C 	0.16808 0.13325 0.44837 -0.06200
H 	H 	0.25836 0.05802 0.53479 0.04000
H 	H 	0.37523 0.12141 0.53641 0.03300
H 	H 	0.23636 0.23080 0.41105 0.04100
H 	H 	0.35322 0.29419 0.41270 0.03600
H 	H 	0.45735 0.31593 0.43531 0.04300
H 	H 	0.47119 0.20458 0.51349 0.03700
H 	H 	0.15320 0.03281 0.50956 0.05000
H 	H 	0.13901 0.14220 0.43003 0.05000
C 	C 	0.88996 0.70908 0.95367 -0.05200
C 	C 	0.85269 0.64274 0.95038 -0.03800
C 	C 	0.79800 0.61062 0.96786 0.01000
C 	C 	0.78051 0.64547 0.98871 0.00100
C 	C 	0.81813 0.71229 0.99211 -0.02200
C 	C 	0.87308 0.74417 0.97455 0.03400
C 	C 	0.80091 0.74725 0.01317 0.03300
C 	C 	0.74604 0.71508 0.03051 -0.05100
C 	C 	0.70858 0.64865 0.02707 -0.03700
C 	C 	0.72559 0.61355 0.00630 0.00800
C 	C 	0.68854 0.54702 0.00305 -0.02800
C 	C 	0.70621 0.51222 0.98254 -0.06000
C 	C 	0.76087 0.54421 0.96494 -0.02600
C 	C 	0.91052 0.81069 0.97813 -0.06200
C 	C 	0.89379 0.84573 0.99934 0.01100
C 	C 	0.83891 0.81390 0.01674 -0.06400
H 	H 	0.93207 0.73317 0.94004 0.04100
H 	H 	0.86646 0.61635 0.93425 0.03600
H 	H 	0.73236 0.74149 0.04671 0.04200
H 	H 	0.66642 0.62454 0.04066 0.03600
H 	H 	0.64602 0.52237 0.01632 0.04400
H 	H 	0.77484 0.51750 0.94943 0.04100
H 	H 	0.95236 0.83519 0.96423 0.05300
H 	H 	0.82625 0.84101 0.03330 0.05200
C 	C 	0.81418 0.11661 0.91916 -0.03800
C 	C 	0.85672 0.10063 0.92518 -0.05200
C 	C 	0.86523 0.08231 0.96052 0.03200
C 	C 	0.83136 0.08096 0.99026 -0.02100
C 	C 	0.78884 0.09747 0.98429 0.00100
C 	C 	0.77986 0.11486 0.94849 0.00700
C 	C 	0.75503 0.09620 0.01404 0.00700
C 	C 	0.76385 0.07825 0.04947 -0.03700
C 	C 	0.80544 0.06104 0.05519 -0.05200
C 	C 	0.83904 0.06190 0.02563 0.03000
C 	C 	0.87882 0.04227 0.03056 -0.06000
C 	C 	0.91105 0.04180 0.00050 0.00400
C 	C 	0.90562 0.06344 0.96601 -0.05900
C 	C 	0.73704 0.13069 0.94253 -0.02400
C 	C 	0.70393 0.13030 0.97232 -0.06800
C 	C 	0.71296 0.11302 0.00800 -0.02300
H 	H 	0.80786 0.13025 0.89163 0.03200
H 	H 	0.88259 0.10194 0.90219 0.03900
H 	H 	0.73825 0.07727 0.07255 0.03600
H 	H 	0.81122 0.04671 0.08255 0.03900
H 	H 	0.88327 0.02559 0.05718 0.04700
H 	H 	0.93050 0.06287 0.94285 0.04700
H 	H 	0.73067 0.14483 0.91519 0.02000
H 	H 	0.68745 0.11286 0.03097 0.04300
C 	C 	0.30218 0.07300 0.04965 -0.03900
C 	C 	0.24023 0.05182 0.05442 -0.05000
C 	C 	0.20390 0.06219 0.02830 0.02900
C 	C 	0.23004 0.09412 0.99716 -0.01900
C 	C 	0.29228 0.11515 0.99223 -0.00200
C 	C 	0.32863 0.10488 0.01872 0.01000
C 	C 	0.31847 0.14715 0.96112 0.01200
C 	C 	0.28203 0.15732 0.93492 -0.03900
C 	C 	0.22013 0.13629 0.93975 -0.05000
C 	C 	0.19380 0.10467 0.97079 0.03100
C 	C 	0.13110 0.08204 0.97521 -0.05700
C 	C 	0.10417 0.04815 0.00535 0.00200
C 	C 	0.14122 0.03972 0.03240 -0.05900
C 	C 	0.39168 0.12838 0.01468 -0.02900
C 	C 	0.41894 0.16294 0.98481 -0.06100
C 	C 	0.38144 0.17028 0.95730 -0.02800
H 	H 	0.32967 0.06485 0.07015 0.03700
H 	H 	0.22050 0.02723 0.07841 0.04000
H 	H 	0.30174 0.18185 0.91091 0.03700
H 	H 	0.19267 0.14450 0.91928 0.04100
H 	H 	0.10234 0.08831 0.95430 0.04900
H 	H 	0.12041 0.01390 0.05581 0.04900
H 	H 	0.42055 0.12259 0.03586 0.04700
H 	H 	0.40221 0.19609 0.93388 0.03900
