data_crystal

_cell_length_a 23.67531
_cell_length_b 34.19192
_cell_length_c 20.86870
_cell_angle_alpha 90.00603
_cell_angle_beta  90.03887
_cell_angle_gamma 92.17239

_symmetry_space_group_name_	'P 1'
_symmetry_space_group_name_H-M	'P 1'

loop_
_symmetry_equiv_pos_as_xyz
  x,y,z

loop_
_atom_site_label
_atom_site_type_symbol
_atom_site_fract_x
_atom_site_fract_y
_atom_site_fract_z
_atom_site_charge
C 	C 	0.97039 0.96121 0.05527 0.10600
N 	N 	0.01253 0.98079 0.08628 -0.17600
C 	C 	0.06070 0.96406 0.06875 0.10600
C 	C 	0.11409 0.96966 0.10512 -0.07300
C 	C 	0.13567 0.00977 0.11958 0.09200
C 	C 	0.14911 0.93576 0.11963 0.05100
C 	C 	0.12404 0.90143 0.14535 -0.06200
C 	C 	0.15534 0.86781 0.15153 -0.01300
C 	C 	0.21246 0.86844 0.13298 -0.01900
C 	C 	0.20678 0.93696 0.10404 -0.06100
N 	N 	0.11386 0.04174 0.09291 -0.12700
C 	C 	0.16981 0.01965 0.17126 -0.06000
C 	C 	0.13513 0.07226 0.12714 0.09200
C 	C 	0.11053 0.11134 0.12522 -0.07700
C 	C 	0.14034 0.14488 0.15704 0.04800
C 	C 	0.22448 0.18681 0.16922 -0.00900
C 	C 	0.11147 0.16865 0.19991 -0.06100
C 	C 	0.13849 0.20220 0.22553 -0.01100
C 	C 	0.19445 0.21231 0.20816 -0.01100
N 	N 	0.01186 0.09452 0.09243 -0.17500
C 	C 	0.96873 0.11525 0.07024 0.10500
C 	C 	0.98862 0.15171 0.04915 -0.05600
C 	C 	0.04626 0.15310 0.05949 -0.06300
C 	C 	0.90906 0.10621 0.08851 -0.07600
C 	C 	0.86861 0.13791 0.09118 0.04900
C 	C 	0.80744 0.18163 0.03495 -0.00700
C 	C 	0.80500 0.20540 0.08961 -0.01500
C 	C 	0.83204 0.19410 0.14623 -0.01100
C 	C 	0.86400 0.16050 0.14691 -0.06000
N 	N 	0.91137 0.03587 0.05966 -0.12700
C 	C 	0.84776 0.01095 0.13036 -0.05900
C 	C 	0.88641 0.00274 0.08298 0.09400
C 	C 	0.91037 0.96397 0.07355 -0.07500
C 	C 	0.87316 0.92840 0.07562 0.05200
C 	C 	0.84636 0.91466 0.01966 -0.05900
C 	C 	0.81764 0.87818 0.01937 -0.00600
C 	C 	0.81503 0.85533 0.07532 -0.01800
C 	C 	0.83944 0.87012 0.13218 -0.01000
C 	C 	0.86841 0.90652 0.13218 -0.06500
C 	C 	0.99153 0.93177 0.01762 -0.05700
C 	C 	0.04942 0.93369 0.02608 -0.06400
C 	C 	0.23849 0.90372 0.11176 -0.01100
C 	C 	0.16958 0.05974 0.17601 -0.06100
C 	C 	0.05904 0.11752 0.08661 0.10500
C 	C 	0.84832 0.05113 0.13552 -0.05800
C 	C 	0.88738 0.06523 0.09138 0.09300
C 	C 	0.83888 0.14792 0.03587 -0.05600
H 	H 	0.00741 0.99639 0.12885 0.09800
H 	H 	0.00738 0.07083 0.12380 0.09900
H 	H 	0.79793 0.86752 0.97554 0.04600
H 	H 	0.83721 0.85302 0.17587 0.04200
H 	H 	0.84939 0.93164 0.97589 0.05200
H 	H 	0.88795 0.91746 0.17575 0.05600
H 	H 	0.13467 0.84104 0.16874 0.04600
H 	H 	0.22667 0.96330 0.08417 0.05500
H 	H 	0.28290 0.90506 0.09918 0.05000
H 	H 	0.07962 0.90031 0.15754 0.05400
H 	H 	0.11531 0.22112 0.25684 0.04900
H 	H 	0.06766 0.16181 0.21178 0.04800
C 	C 	0.19737 0.15355 0.14323 -0.05900
H 	H 	0.26786 0.19400 0.15593 0.05400
H 	H 	0.78589 0.18972 0.99137 0.04700
H 	H 	0.84191 0.13039 0.99285 0.05300
H 	H 	0.88635 0.15263 0.19008 0.05000
H 	H 	0.82990 0.21202 0.18893 0.05100
H 	H 	0.96763 0.90600 0.00156 0.05500
H 	H 	0.07700 0.90980 0.01683 0.05600
H 	H 	0.18000 0.00015 0.21005 0.05500
H 	H 	0.17954 0.07613 0.21905 0.05100
H 	H 	0.96336 0.17732 0.04500 0.05600
H 	H 	0.07177 0.17989 0.06421 0.05800
H 	H 	0.83433 0.99093 0.16803 0.05600
H 	H 	0.83490 0.06695 0.17728 0.05000
H 	H 	0.22019 0.13516 0.11072 0.05600
C 	C 	0.05005 0.03636 0.29521 0.09900
N 	N 	0.99951 0.02046 0.31264 -0.17200
C 	C 	0.95998 0.04347 0.28796 0.09900
C 	C 	0.90037 0.04150 0.30943 -0.07500
C 	C 	0.87119 0.00263 0.31463 0.08500
C 	C 	0.87109 0.07766 0.32849 0.04400
C 	C 	0.89912 0.10638 0.36629 -0.06000
C 	C 	0.87128 0.13996 0.38507 -0.01500
C 	C 	0.81480 0.14502 0.36700 -0.01500
C 	C 	0.81457 0.08270 0.31059 -0.06100
N 	N 	0.89184 0.97079 0.28593 -0.13100
C 	C 	0.83795 0.99180 0.36666 -0.05600
C 	C 	0.87104 0.93972 0.31908 0.08800
C 	C 	0.89627 0.90079 0.31570 -0.07800
C 	C 	0.86791 0.86693 0.34719 0.04900
C 	C 	0.78695 0.82195 0.35704 -0.00900
C 	C 	0.89662 0.84581 0.39381 -0.06000
C 	C 	0.87074 0.81267 0.42162 -0.01100
C 	C 	0.81584 0.80058 0.40329 -0.01500
N 	N 	0.99961 0.91109 0.30805 -0.17000
C 	C 	0.04106 0.88782 0.28901 0.09700
C 	C 	0.01952 0.85760 0.25132 -0.06900
C 	C 	0.96203 0.86266 0.24748 -0.05800
C 	C 	0.09834 0.88962 0.31776 -0.07500
C 	C 	0.12810 0.85312 0.33307 0.04600
C 	C 	0.21200 0.81428 0.32701 -0.01000
C 	C 	0.18441 0.78397 0.36195 -0.01100
C 	C 	0.12841 0.78861 0.38241 -0.01300
C 	C 	0.10060 0.82305 0.36836 -0.05900
N 	N 	0.10898 0.96109 0.30165 -0.13000
C 	C 	0.14971 0.97768 0.39562 -0.06100
C 	C 	0.12437 0.99105 0.34058 0.08800
C 	C 	0.10171 0.03063 0.33381 -0.07700
C 	C 	0.13287 0.06504 0.36149 0.04700
C 	C 	0.19096 0.07075 0.35004 -0.06200
C 	C 	0.21766 0.10709 0.36220 -0.01300
C 	C 	0.18659 0.13802 0.38653 -0.01600
C 	C 	0.12949 0.13121 0.40291 -0.01400
C 	C 	0.10308 0.09468 0.39147 -0.06100
C 	C 	0.04247 0.06961 0.25843 -0.06700
C 	C 	0.98486 0.07408 0.25390 -0.06300
C 	C 	0.78673 0.11625 0.32940 -0.01400
C 	C 	0.83785 0.95157 0.36950 -0.06000
C 	C 	0.95109 0.89577 0.28340 0.09700
C 	C 	0.15049 0.93754 0.38980 -0.05900
C 	C 	0.12556 0.92838 0.33141 0.08800
C 	C 	0.18404 0.84864 0.31283 -0.05700
H 	H 	0.99317 0.00261 0.35286 0.09300
H 	H 	0.00183 0.92857 0.34914 0.09000
H 	H 	0.26219 0.11143 0.35135 0.05000
H 	H 	0.10507 0.15451 0.42261 0.04700
H 	H 	0.21471 0.04779 0.32820 0.05100
H 	H 	0.05862 0.09011 0.40258 0.04800
H 	H 	0.89335 0.16167 0.41458 0.04800
H 	H 	0.79206 0.06055 0.28239 0.05000
H 	H 	0.74337 0.11987 0.31460 0.05000
H 	H 	0.94223 0.10250 0.38180 0.04800
H 	H 	0.89326 0.79645 0.45750 0.04800
H 	H 	0.93909 0.85498 0.40815 0.05000
C 	C 	0.81299 0.85495 0.32899 -0.06100
H 	H 	0.74476 0.81257 0.34205 0.05400
H 	H 	0.25522 0.81143 0.31123 0.05600
H 	H 	0.20585 0.87170 0.28591 0.05500
H 	H 	0.05767 0.82632 0.38492 0.04900
H 	H 	0.10627 0.76552 0.40891 0.05000
H 	H 	0.07340 0.09349 0.25400 0.05100
H 	H 	0.96516 0.10140 0.24329 0.04800
H 	H 	0.83079 0.01038 0.40766 0.05200
H 	H 	0.83010 0.93480 0.41282 0.05400
H 	H 	0.03968 0.83014 0.24328 0.05400
H 	H 	0.93128 0.83920 0.23753 0.05300
H 	H 	0.15101 0.99318 0.44087 0.05200
H 	H 	0.15187 0.91767 0.43012 0.05200
H 	H 	0.79081 0.87092 0.29252 0.05400
Ni	Ni	0.47827 0.47945 0.02672 1.10200
O 	O 	0.43170 0.52816 0.00845 -0.69200
Ni	Ni	0.48641 0.56977 0.04282 1.09900
O 	O 	0.41280 0.43858 0.02064 -0.33700
O 	O 	0.33499 0.47454 0.03411 -0.37500
O 	O 	0.49314 0.47188 0.93039 -0.34800
Ni	Ni	0.36223 0.53056 0.06038 1.07300
O 	O 	0.59901 0.46309 0.97882 -0.38200
O 	O 	0.40343 0.50993 0.13849 -0.39000
O 	O 	0.43620 0.61662 0.03449 -0.36100
O 	O 	0.53414 0.52198 0.05143 -0.71000
O 	O 	0.53078 0.43506 0.04409 -0.34400
O 	O 	0.55329 0.60565 0.07015 -0.34200
O 	O 	0.60885 0.58355 0.98903 -0.38500
Ni	Ni	0.59575 0.52263 0.98937 1.07000
H 	H 	0.42379 0.53234 0.96244 0.16200
H 	H 	0.54874 0.51819 0.09536 0.16900
C 	C 	0.44816 0.52883 0.16220 0.24200
O 	O 	0.54422 0.52873 0.91198 -0.39300
C 	C 	0.36431 0.44405 0.04896 0.26500
C 	C 	0.38667 0.61678 0.06271 0.26400
C 	C 	0.50986 0.50033 0.89170 0.26200
C 	C 	0.60191 0.60619 0.03955 0.25600
C 	C 	0.58360 0.43747 0.02387 0.25700
O 	O 	0.46554 0.56295 0.13823 -0.34200
O 	O 	0.36836 0.58613 0.09592 -0.38100
Ni	Ni	0.50645 0.42277 0.48794 1.09800
O 	O 	0.45622 0.46846 0.46902 -0.71000
Ni	Ni	0.50424 0.51315 0.50157 1.10100
O 	O 	0.44716 0.38434 0.44985 -0.33900
O 	O 	0.37848 0.40590 0.51696 -0.38200
O 	O 	0.54021 0.43138 0.39776 -0.34300
Ni	Ni	0.38564 0.46700 0.51740 1.07000
O 	O 	0.63227 0.41303 0.45543 -0.37900
O 	O 	0.42225 0.46359 0.60642 -0.38300
O 	O 	0.45226 0.55545 0.47079 -0.34300
O 	O 	0.55106 0.46666 0.53142 -0.69800
O 	O 	0.56009 0.37818 0.50373 -0.36000
O 	O 	0.56306 0.55653 0.52365 -0.33800
O 	O 	0.64531 0.52416 0.52680 -0.37700
Ni	Ni	0.62691 0.46820 0.49230 1.07200
H 	H 	0.44804 0.47150 0.42282 0.16900
H 	H 	0.55270 0.46310 0.57842 0.16600
C 	C 	0.45559 0.49190 0.62889 0.25900
O 	O 	0.59443 0.48795 0.40862 -0.39600
C 	C 	0.39388 0.38416 0.46811 0.25100
C 	C 	0.39718 0.55262 0.48129 0.25300
C 	C 	0.55653 0.46647 0.37676 0.24100
C 	C 	0.61713 0.55501 0.51031 0.26700
C 	C 	0.61286 0.38081 0.48383 0.26200
O 	O 	0.47221 0.52092 0.59171 -0.34800
O 	O 	0.37576 0.52655 0.52291 -0.37400
C 	C 	0.49415 0.49850 0.82369 0.04600
N 	N 	0.46249 0.46764 0.80053 -0.05700
N 	N 	0.44976 0.46551 0.73830 -0.06000
C 	C 	0.46833 0.49421 0.69764 0.04600
N 	N 	0.49976 0.52506 0.72094 -0.05600
N 	N 	0.51247 0.52718 0.78303 -0.06000
C 	C 	0.47686 0.51269 0.21779 0.03900
N 	N 	0.46352 0.47572 0.23765 -0.06400
N 	N 	0.49059 0.46041 0.28704 -0.06200
C 	C 	0.53189 0.48159 0.31786 0.03800
N 	N 	0.54564 0.51848 0.29763 -0.06300
N 	N 	0.51877 0.53372 0.24793 -0.06000
C 	C 	0.30188 0.64738 0.42505 0.10400
N 	N 	0.28256 0.62268 0.47190 -0.06800
N 	N 	0.31221 0.59187 0.48888 -0.05900
C 	C 	0.36221 0.58501 0.45977 0.05400
N 	N 	0.38127 0.60954 0.41265 -0.05300
N 	N 	0.35146 0.64015 0.39538 -0.06400
C 	C 	0.21428 0.74759 0.37759 0.11600
N 	N 	0.25830 0.73633 0.34100 -0.07400
N 	N 	0.28587 0.70423 0.35585 -0.06300
C 	C 	0.27008 0.68223 0.40751 0.10100
N 	N 	0.22576 0.69324 0.44377 -0.06800
N 	N 	0.19836 0.72546 0.42913 -0.07900
C 	C 	0.73646 0.69799 0.46998 0.10000
N 	N 	0.79214 0.69864 0.45446 -0.06700
N 	N 	0.81815 0.73183 0.43539 -0.07800
C 	C 	0.78912 0.76522 0.43120 0.11600
N 	N 	0.73388 0.76477 0.44841 -0.07700
N 	N 	0.70794 0.73163 0.46762 -0.06500
C 	C 	0.64861 0.59207 0.50061 0.05400
N 	N 	0.62100 0.62611 0.50048 -0.04900
N 	N 	0.64938 0.66003 0.49223 -0.06400
C 	C 	0.70618 0.66090 0.48366 0.10500
N 	N 	0.73391 0.62686 0.48382 -0.06800
N 	N 	0.70550 0.59287 0.49238 -0.06000
C 	C 	0.70062 0.27956 0.44659 0.10400
N 	N 	0.64518 0.27690 0.46365 -0.06500
N 	N 	0.61763 0.30907 0.47832 -0.05100
C 	C 	0.64471 0.34481 0.47633 0.05300
N 	N 	0.70034 0.34734 0.46034 -0.06200
N 	N 	0.72792 0.31521 0.44594 -0.06800
C 	C 	0.78491 0.18018 0.38805 0.11300
N 	N 	0.81316 0.21540 0.39284 -0.08000
N 	N 	0.78635 0.24698 0.41191 -0.06800
C 	C 	0.73050 0.24431 0.42699 0.10000
N 	N 	0.70224 0.20908 0.42233 -0.06700
N 	N 	0.72903 0.17749 0.40313 -0.07800
C 	C 	0.26260 0.24983 0.40458 0.10000
N 	N 	0.21578 0.23975 0.43921 -0.06900
N 	N 	0.19145 0.20415 0.43339 -0.08000
C 	C 	0.21322 0.17762 0.39271 0.11300
N 	N 	0.25962 0.18794 0.35747 -0.08000
N 	N 	0.28420 0.22340 0.36372 -0.06500
C 	C 	0.35559 0.35238 0.44579 0.05100
N 	N 	0.37131 0.32899 0.39691 -0.05000
N 	N 	0.34011 0.29711 0.38175 -0.06200
C 	C 	0.29231 0.28769 0.41508 0.10500
N 	N 	0.27542 0.31189 0.46237 -0.06900
N 	N 	0.30662 0.34382 0.47748 -0.06100
C 	C 	0.29235 0.76243 0.11171 0.10000
N 	N 	0.31162 0.79476 0.07969 -0.06700
N 	N 	0.28737 0.82885 0.08824 -0.07900
C 	C 	0.24325 0.83171 0.12931 0.11300
N 	N 	0.22493 0.79954 0.16267 -0.08200
N 	N 	0.24912 0.76538 0.15396 -0.06800
C 	C 	0.35999 0.65426 0.07256 0.05000
N 	N 	0.31590 0.65681 0.11374 -0.05700
N 	N 	0.29438 0.69140 0.12652 -0.06700
C 	C 	0.31644 0.72439 0.09855 0.10400
N 	N 	0.36015 0.72177 0.05689 -0.06600
N 	N 	0.38173 0.68721 0.04422 -0.05300
C 	C 	0.70699 0.70541 0.06498 0.10400
N 	N 	0.66880 0.69455 0.11072 -0.06500
N 	N 	0.63682 0.66192 0.10379 -0.05200
C 	C 	0.64229 0.63908 0.05110 0.05200
N 	N 	0.68167 0.64931 0.00626 -0.05800
N 	N 	0.71351 0.68205 0.01305 -0.06800
C 	C 	0.78853 0.81560 0.07373 0.11500
N 	N 	0.79475 0.79242 0.02154 -0.07800
N 	N 	0.76982 0.75684 0.01939 -0.06700
C 	C 	0.73794 0.74341 0.06936 0.10000
N 	N 	0.73224 0.76641 0.12187 -0.06700
N 	N 	0.75731 0.80195 0.12409 -0.08000
C 	C 	0.68715 0.34455 0.06352 0.10400
N 	N 	0.63907 0.34918 0.09765 -0.06400
N 	N 	0.60633 0.37916 0.08546 -0.05200
C 	C 	0.62083 0.40540 0.03891 0.05100
N 	N 	0.66943 0.40119 0.00559 -0.06000
N 	N 	0.70201 0.37109 0.01754 -0.06900
C 	C 	0.77748 0.24315 0.08604 0.11600
N 	N 	0.78944 0.26806 0.03683 -0.07800
N 	N 	0.76168 0.30101 0.03072 -0.06700
C 	C 	0.72085 0.30987 0.07337 0.10000
N 	N 	0.70942 0.28522 0.12316 -0.06400
N 	N 	0.73750 0.25237 0.12953 -0.07600
C 	C 	0.29385 0.35751 0.16796 0.10400
N 	N 	0.26176 0.38679 0.14610 -0.06900
N 	N 	0.28416 0.41437 0.10769 -0.06000
C 	C 	0.33897 0.41301 0.08909 0.04900
N 	N 	0.37140 0.38434 0.11219 -0.05200
N 	N 	0.34917 0.35697 0.15102 -0.06300
C 	C 	0.21806 0.25198 0.22091 0.11800
N 	N 	0.27478 0.25784 0.22789 -0.07200
N 	N 	0.29892 0.29307 0.21758 -0.06200
C 	C 	0.26705 0.32342 0.19988 0.10100
N 	N 	0.20988 0.31854 0.19990 -0.06800
N 	N 	0.18571 0.28331 0.21039 -0.07800
