data_crystal

_cell_length_a 19.85622
_cell_length_b 20.79484
_cell_length_c 47.54792
_cell_angle_alpha 89.94426
_cell_angle_beta  89.95041
_cell_angle_gamma 119.44759

_symmetry_space_group_name_	'P 1'
_symmetry_space_group_name_H-M	'P 1'

loop_
_symmetry_equiv_pos_as_xyz
  x,y,z

loop_
_atom_site_label
_atom_site_type_symbol
_atom_site_fract_x
_atom_site_fract_y
_atom_site_fract_z
_atom_site_charge
C 	C 	0.58053 0.25931 0.86107 0.30700
C 	C 	0.78990 0.53787 0.91234 0.32700
C 	C 	0.79591 0.35178 0.86265 0.32800
C 	C 	0.59070 0.45541 0.91578 0.32000
C 	C 	0.78671 0.34687 0.95851 0.33500
C 	C 	0.58442 0.23308 0.95520 0.32000
Ni	Ni	0.69157 0.41563 0.87599 1.11300
Ni	Ni	0.68204 0.40057 0.94463 1.12400
Ni	Ni	0.68973 0.27584 0.90791 1.12400
O 	O 	0.59546 0.32838 0.85783 -0.36600
O 	O 	0.63479 0.24393 0.86972 -0.37200
O 	O 	0.78344 0.40572 0.95130 -0.38900
O 	O 	0.79298 0.49247 0.89440 -0.37900
O 	O 	0.74382 0.51115 0.93433 -0.37100
O 	O 	0.59010 0.22009 0.92844 -0.38100
O 	O 	0.75453 0.37898 0.85161 -0.36400
O 	O 	0.79276 0.34028 0.88962 -0.38500
O 	O 	0.61796 0.30183 0.96571 -0.36200
O 	O 	0.63037 0.46864 0.89158 -0.36700
O 	O 	0.58717 0.40626 0.93415 -0.37800
O 	O 	0.74631 0.28453 0.94468 -0.38000
O 	O 	0.66910 0.35621 0.90854 -0.70700
H 	H 	0.61227 0.32933 0.90752 0.16700
C 	C 	0.59495 0.43784 0.58855 0.31500
C 	C 	0.78908 0.34723 0.65656 0.30800
C 	C 	0.79306 0.52458 0.60212 0.32900
C 	C 	0.56907 0.24320 0.64810 0.30300
C 	C 	0.81161 0.33952 0.56275 0.33300
C 	C 	0.60948 0.22021 0.55623 0.31900
Ni	Ni	0.68174 0.40042 0.63545 1.11400
Ni	Ni	0.69664 0.26422 0.60842 1.12400
Ni	Ni	0.69968 0.38789 0.56782 1.12100
O 	O 	0.62543 0.45166 0.61450 -0.36300
O 	O 	0.60016 0.39011 0.57168 -0.38900
O 	O 	0.76712 0.27591 0.57529 -0.37200
O 	O 	0.73670 0.36498 0.66422 -0.36600
O 	O 	0.79293 0.33019 0.63044 -0.37900
O 	O 	0.64750 0.28935 0.54595 -0.38200
O 	O 	0.78900 0.47932 0.62166 -0.38200
O 	O 	0.75380 0.49796 0.57870 -0.38000
O 	O 	0.60665 0.20588 0.58338 -0.38300
O 	O 	0.58100 0.31152 0.65019 -0.36600
O 	O 	0.62741 0.22990 0.64367 -0.37100
O 	O 	0.80389 0.39655 0.56868 -0.39800
O 	O 	0.67284 0.34202 0.60383 -0.70900
H 	H 	0.61621 0.31357 0.60194 0.16800
C 	C 	0.88689 0.84073 0.71493 0.29000
C 	C 	0.15663 0.01731 0.78723 0.31400
C 	C 	0.91110 0.86098 0.79924 0.30000
C 	C 	0.13792 0.01490 0.71062 0.29400
C 	C 	0.94926 0.08382 0.78921 0.26900
C 	C 	0.95490 0.09930 0.72619 0.27300
Ni	Ni	0.02651 0.90499 0.75216 1.12400
Ni	Ni	0.07239 0.07714 0.75544 1.12300
Ni	Ni	0.89049 0.95127 0.75493 1.11800
O 	O 	0.92373 0.82455 0.73427 -0.37900
O 	O 	0.85580 0.88245 0.72116 -0.37000
O 	O 	0.02383 0.11369 0.78412 -0.35700
O 	O 	0.13703 0.96452 0.76879 -0.37700
O 	O 	0.11716 0.05231 0.78937 -0.37700
O 	O 	0.89454 0.03184 0.72949 -0.37400
O 	O 	0.98202 0.87729 0.79252 -0.38200
O 	O 	0.86381 0.86194 0.77993 -0.37600
O 	O 	0.02682 0.11080 0.72471 -0.36200
O 	O 	0.08314 0.94514 0.71423 -0.36900
O 	O 	0.14970 0.06821 0.72901 -0.37000
O 	O 	0.90504 0.01172 0.78948 -0.38900
O 	O 	0.99598 0.97764 0.74845 -0.72500
H 	H 	0.99387 0.98066 0.72779 0.14600
C 	C 	0.46178 0.78990 0.36749 0.30400
C 	C 	0.25235 0.47873 0.39061 0.32900
C 	C 	0.27515 0.66538 0.33504 0.30700
C 	C 	0.43332 0.60800 0.43056 0.31200
C 	C 	0.14683 0.60954 0.41487 0.33900
C 	C 	0.33530 0.75486 0.44981 0.30500
Ni	Ni	0.37192 0.62620 0.37275 1.11300
Ni	Ni	0.27974 0.59767 0.43156 1.12300
Ni	Ni	0.29464 0.72568 0.39050 1.12100
O 	O 	0.46594 0.73016 0.37372 -0.37700
O 	O 	0.39398 0.78995 0.36669 -0.37300
O 	O 	0.17723 0.56659 0.41424 -0.38500
O 	O 	0.26961 0.52778 0.37089 -0.37500
O 	O 	0.26857 0.49989 0.41699 -0.36900
O 	O 	0.34023 0.78561 0.42494 -0.38700
O 	O 	0.33933 0.66152 0.33601 -0.36400
O 	O 	0.23810 0.65886 0.35825 -0.38300
O 	O 	0.28490 0.68352 0.45466 -0.36900
O 	O 	0.41899 0.58580 0.40369 -0.36600
O 	O 	0.38331 0.61799 0.44581 -0.38500
O 	O 	0.19046 0.68108 0.41049 -0.37900
O 	O 	0.33443 0.66258 0.40137 -0.71300
H 	H 	0.38228 0.69813 0.41101 0.16600
C 	C 	0.41680 0.62220 0.07222 0.30700
C 	C 	0.25553 0.63520 0.17663 0.30800
C 	C 	0.23922 0.47794 0.10898 0.32600
C 	C 	0.44144 0.77902 0.14783 0.30800
C 	C 	0.12677 0.60774 0.10026 0.32600
C 	C 	0.31253 0.77105 0.06848 0.31100
Ni	Ni	0.35695 0.61877 0.13333 1.11400
Ni	Ni	0.27384 0.71824 0.12627 1.12200
Ni	Ni	0.26295 0.61033 0.07674 1.12300
O 	O 	0.40629 0.59345 0.09823 -0.35500
O 	O 	0.36806 0.64110 0.06087 -0.38600
O 	O 	0.16959 0.67792 0.10697 -0.37500
O 	O 	0.32179 0.63608 0.17329 -0.36400
O 	O 	0.21872 0.63722 0.15449 -0.38400
O 	O 	0.26343 0.70188 0.06043 -0.38000
O 	O 	0.25721 0.51795 0.13167 -0.37700
O 	O 	0.25577 0.50984 0.08410 -0.37400
O 	O 	0.31782 0.79164 0.09512 -0.37300
O 	O 	0.44855 0.72386 0.13734 -0.37500
O 	O 	0.37204 0.77474 0.15126 -0.36900
O 	O 	0.15894 0.56765 0.09451 -0.39000
O 	O 	0.31663 0.66339 0.10937 -0.71500
H 	H 	0.36398 0.70368 0.10095 0.17000
C 	C 	0.12909 0.13042 0.20141 0.29300
C 	C 	0.86668 0.96635 0.28033 0.30300
C 	C 	0.12265 0.13815 0.28643 0.29900
C 	C 	0.87102 0.94919 0.21257 0.28500
C 	C 	0.09393 0.91996 0.28774 0.31000
C 	C 	0.08212 0.88170 0.22753 0.29400
Ni	Ni	0.99759 0.07502 0.24280 1.09900
Ni	Ni	0.96046 0.90502 0.25415 1.10200
Ni	Ni	0.13970 0.03747 0.24650 1.11900
O 	O 	0.09380 0.15039 0.22000 -0.36700
O 	O 	0.16383 0.09319 0.20940 -0.36800
O 	O 	0.01795 0.88827 0.28614 -0.36500
O 	O 	0.89216 0.02354 0.26357 -0.38800
O 	O 	0.90730 0.93281 0.28487 -0.39200
O 	O 	0.13625 0.95192 0.22486 -0.37700
O 	O 	0.05081 0.12034 0.28075 -0.35800
O 	O 	0.16698 0.13356 0.26676 -0.37400
O 	O 	0.00726 0.86147 0.22741 -0.36300
O 	O 	0.93023 0.01669 0.20881 -0.38800
O 	O 	0.87996 0.89522 0.22439 -0.37700
O 	O 	0.13705 0.99123 0.28378 -0.39000
O 	O 	0.03111 0.00376 0.24258 -0.69500
H 	H 	0.02905 0.99367 0.22222 0.15400
C 	C 	0.18061 0.26808 0.12995 0.01500
C 	C 	0.23950 0.25875 0.14225 -0.05200
C 	C 	0.22201 0.20758 0.16406 0.01700
C 	C 	0.21678 0.40134 0.11189 -0.10000
C 	C 	0.08569 0.16699 0.15829 0.01200
C 	C 	0.10329 0.21816 0.13653 -0.04900
C 	C 	0.19970 0.33904 0.11832 0.04900
C 	C 	0.14539 0.16507 0.17339 -0.07500
H 	H 	0.29943 0.29581 0.13681 0.05300
H 	H 	0.26852 0.20525 0.17506 0.04200
H 	H 	0.02602 0.13257 0.16471 0.04100
H 	H 	0.05714 0.22349 0.12662 0.05500
C 	C 	0.64369 0.90371 0.18779 0.01600
C 	C 	0.70892 0.95647 0.17307 -0.05500
C 	C 	0.78323 0.97147 0.18107 0.00900
C 	C 	0.50759 0.83406 0.16271 -0.08800
C 	C 	0.72766 0.88259 0.21907 0.01100
C 	C 	0.65380 0.86911 0.21148 -0.05700
C 	C 	0.56865 0.87055 0.17452 0.03900
C 	C 	0.79280 0.93309 0.20370 -0.07900
H 	H 	0.70192 0.98324 0.15462 0.04900
H 	H 	0.83297 0.01136 0.16923 0.03600
H 	H 	0.73419 0.85402 0.23703 0.03400
H 	H 	0.60391 0.82837 0.22305 0.04900
C 	C 	0.16816 0.73895 0.22339 0.01700
C 	C 	0.24901 0.77201 0.22171 -0.05500
C 	C 	0.28314 0.73058 0.21249 0.00900
C 	C 	0.10565 0.82629 0.22558 -0.08500
C 	C 	0.15778 0.62104 0.21159 0.01800
C 	C 	0.12313 0.66224 0.22050 -0.05400
C 	C 	0.13186 0.78463 0.22465 0.03800
C 	C 	0.23608 0.65750 0.20344 -0.08600
H 	H 	0.28495 0.83057 0.22568 0.05000
H 	H 	0.34492 0.75808 0.20875 0.04500
H 	H 	0.12151 0.56296 0.20684 0.04400
H 	H 	0.06101 0.63524 0.22336 0.05600
C 	C 	0.66509 0.91826 0.32905 0.01700
C 	C 	0.67346 0.94583 0.30166 -0.05800
C 	C 	0.73864 0.96026 0.28572 0.01200
C 	C 	0.52876 0.84769 0.35394 -0.09300
C 	C 	0.78861 0.92073 0.32464 0.01400
C 	C 	0.72372 0.90725 0.34069 -0.05700
C 	C 	0.59028 0.88493 0.34251 0.03900
C 	C 	0.79592 0.94633 0.29689 -0.08800
H 	H 	0.62827 0.95373 0.29233 0.04800
H 	H 	0.74445 0.98199 0.26461 0.03700
H 	H 	0.83312 0.91165 0.33385 0.03900
H 	H 	0.71746 0.88529 0.36181 0.05300
C 	C 	0.20831 0.28351 0.35624 0.01500
C 	C 	0.25887 0.29085 0.33426 -0.05100
C 	C 	0.23359 0.23927 0.31237 0.01300
C 	C 	0.23488 0.40577 0.38242 -0.09800
C 	C 	0.11110 0.16726 0.33643 0.01500
C 	C 	0.13613 0.21938 0.35810 -0.04900
C 	C 	0.22232 0.34809 0.37199 0.04900
C 	C 	0.15772 0.17962 0.31253 -0.07400
H 	H 	0.31552 0.33956 0.33296 0.04800
H 	H 	0.27112 0.24855 0.29448 0.04200
H 	H 	0.05352 0.11976 0.33737 0.05000
H 	H 	0.09724 0.21235 0.37530 0.05700
C 	C 	0.19629 0.79096 0.29599 0.01300
C 	C 	0.27625 0.82243 0.30016 -0.05500
C 	C 	0.30801 0.77717 0.30694 0.00600
C 	C 	0.13028 0.87520 0.29204 -0.10200
C 	C 	0.18244 0.66902 0.30156 0.01600
C 	C 	0.15039 0.71395 0.29484 -0.05300
C 	C 	0.16078 0.83729 0.29416 0.04300
C 	C 	0.25918 0.70100 0.31114 -0.08500
H 	H 	0.31316 0.88183 0.29949 0.04800
H 	H 	0.36889 0.80231 0.31202 0.04500
H 	H 	0.14501 0.60977 0.30291 0.04200
H 	H 	0.08932 0.68887 0.29000 0.05400
C 	C 	0.56907 0.03637 0.52880 -0.10900
C 	C 	0.50167 0.01521 0.51317 0.00800
C 	C 	0.47642 0.06688 0.50816 0.11500
C 	C 	0.51587 0.13730 0.52043 -0.03000
C 	C 	0.58185 0.15727 0.53686 -0.12300
C 	C 	0.61073 0.10779 0.53960 0.19600
C 	C 	0.46071 0.94048 0.50057 0.00200
O 	O 	0.41216 0.04801 0.49201 -0.27200
H 	H 	0.49345 0.17514 0.51803 0.05800
O 	O 	0.67744 0.12784 0.55436 -0.29400
H 	H 	0.58949 0.99738 0.53247 0.08500
C 	C 	0.49954 0.91770 0.48174 0.12000
C 	C 	0.45982 0.84845 0.46899 -0.03600
C 	C 	0.37987 0.80379 0.47294 -0.11700
C 	C 	0.34221 0.82385 0.49336 0.19400
C 	C 	0.38302 0.89167 0.50742 -0.10600
O 	O 	0.57578 0.96402 0.47512 -0.27400
H 	H 	0.48927 0.83338 0.45332 0.05700
O 	O 	0.26503 0.77863 0.49886 -0.27900
H 	H 	0.35355 0.90742 0.52282 0.08500
H 	H 	0.71948 0.14923 0.54015 0.16100
H 	H 	0.57499 0.99324 0.45874 0.14700
H 	H 	0.23745 0.79507 0.48583 0.15800
H 	H 	0.43181 0.06176 0.47250 0.14700
C 	C 	0.96221 0.45792 0.43805 -0.13400
C 	C 	0.96337 0.48060 0.46590 -0.02200
C 	C 	0.00720 0.55636 0.47251 0.13900
C 	C 	0.06016 0.60561 0.45284 -0.03300
C 	C 	0.06876 0.57940 0.42667 -0.12800
C 	C 	0.01205 0.50838 0.41807 0.21900
C 	C 	0.92641 0.42479 0.48855 0.02000
O 	O 	0.00256 0.58118 0.49876 -0.24900
H 	H 	0.10026 0.66181 0.45912 0.06800
O 	O 	0.01337 0.48485 0.39124 -0.25800
H 	H 	0.92638 0.40046 0.43230 0.08700
C 	C 	0.84672 0.37350 0.48782 0.10800
C 	C 	0.81104 0.32883 0.51132 -0.03400
C 	C 	0.85201 0.34190 0.53664 -0.13400
C 	C 	0.93311 0.38456 0.53599 0.21200
C 	C 	0.97028 0.42509 0.51178 -0.14900
O 	O 	0.80319 0.36889 0.46473 -0.27500
H 	H 	0.74940 0.29086 0.51091 0.05900
O 	O 	0.97562 0.39043 0.55955 -0.29700
H 	H 	0.03255 0.46028 0.51175 0.10900
H 	H 	0.97800 0.49631 0.38035 0.12600
H 	H 	0.78472 0.40465 0.46826 0.14200
H 	H 	0.98069 0.43407 0.56984 0.15900
H 	H 	0.96101 0.59439 0.49737 0.12500
C 	C 	0.48913 0.49137 0.53895 -0.10900
C 	C 	0.55341 0.54887 0.52533 0.00300
C 	C 	0.62509 0.58395 0.53934 0.12100
C 	C 	0.63309 0.55669 0.56534 -0.03800
C 	C 	0.57341 0.48929 0.57558 -0.11600
C 	C 	0.49921 0.46068 0.56379 0.19400
C 	C 	0.54567 0.57088 0.49629 0.00700
O 	O 	0.68778 0.64317 0.52733 -0.27500
H 	H 	0.68871 0.58305 0.57572 0.06700
O 	O 	0.43738 0.40033 0.57565 -0.28700
H 	H 	0.43224 0.46790 0.52952 0.07400
C 	C 	0.51544 0.51799 0.47457 0.11500
C 	C 	0.49078 0.53496 0.44936 -0.03200
C 	C 	0.49529 0.60400 0.44596 -0.11700
C 	C 	0.53930 0.66055 0.46530 0.19600
C 	C 	0.56215 0.64342 0.49078 -0.11100
O 	O 	0.51009 0.45007 0.47790 -0.27500
H 	H 	0.46119 0.49212 0.43378 0.06100
O 	O 	0.55411 0.73133 0.46037 -0.29100
H 	H 	0.58850 0.68553 0.50683 0.08700
H 	H 	0.43468 0.35687 0.56598 0.15700
H 	H 	0.45632 0.41671 0.48428 0.14700
H 	H 	0.51233 0.73537 0.47024 0.15700
H 	H 	0.71366 0.62164 0.51594 0.14800
C 	C 	0.90045 0.25827 0.70504 0.01700
C 	C 	0.94319 0.31292 0.68510 -0.05700
C 	C 	0.91021 0.35064 0.67170 0.01600
C 	C 	0.94011 0.15801 0.71862 -0.09100
C 	C 	0.79505 0.28511 0.70038 0.01400
C 	C 	0.82831 0.24770 0.71390 -0.05600
C 	C 	0.92383 0.20507 0.71263 0.03300
C 	C 	0.83374 0.33286 0.67784 -0.08600
H 	H 	0.99988 0.32283 0.67865 0.05000
H 	H 	0.94160 0.38912 0.65490 0.04100
H 	H 	0.73665 0.27206 0.70577 0.04400
H 	H 	0.79576 0.20693 0.72990 0.05200
C 	C 	0.34612 0.09189 0.66510 0.01900
C 	C 	0.32336 0.03287 0.68389 -0.05400
C 	C 	0.25047 0.00140 0.69662 0.01700
C 	C 	0.49314 0.18348 0.65390 -0.09100
C 	C 	0.22061 0.08385 0.67011 0.01500
C 	C 	0.29293 0.11438 0.65704 -0.05100
C 	C 	0.42674 0.13881 0.65879 0.04400
C 	C 	0.20062 0.02971 0.69091 -0.07500
H 	H 	0.36375 0.01452 0.69000 0.05200
H 	H 	0.23521 0.95905 0.71251 0.03600
H 	H 	0.18213 0.10542 0.66530 0.04100
H 	H 	0.30969 0.15925 0.64217 0.05600
C 	C 	0.84792 0.72016 0.63849 0.01200
C 	C 	0.78732 0.72690 0.65075 -0.05400
C 	C 	0.80071 0.77012 0.67491 0.01600
C 	C 	0.81436 0.59826 0.61065 -0.11300
C 	C 	0.93655 0.80536 0.67303 0.00800
C 	C 	0.92326 0.76306 0.64873 -0.05200
C 	C 	0.83009 0.65610 0.62172 0.04700
C 	C 	0.87478 0.80662 0.68690 -0.08100
H 	H 	0.72889 0.69456 0.64282 0.05200
H 	H 	0.75278 0.77179 0.68510 0.04100
H 	H 	0.99425 0.83442 0.68175 0.03200
H 	H 	0.97066 0.75902 0.63921 0.04800
C 	C 	0.93795 0.45384 0.08428 -0.09900
C 	C 	0.92949 0.47855 0.05781 0.00100
C 	C 	0.96570 0.55505 0.05253 0.09400
C 	C 	0.02292 0.60420 0.07097 -0.01000
C 	C 	0.04425 0.57651 0.09416 -0.09100
C 	C 	0.99378 0.50351 0.10294 0.14300
C 	C 	0.89406 0.42527 0.03457 0.01400
O 	O 	0.94535 0.58155 0.02952 -0.26700
H 	H 	0.05685 0.66204 0.06534 0.06300
O 	O 	0.00418 0.47902 0.12852 -0.25900
H 	H 	0.90562 0.39564 0.08954 0.06500
C 	C 	0.93954 0.42500 0.01185 0.08900
C 	C 	0.90354 0.38627 0.98726 -0.01800
C 	C 	0.82265 0.34746 0.98549 -0.13400
C 	C 	0.77906 0.33473 0.01031 0.19200
C 	C 	0.81433 0.37615 0.03446 -0.11700
O 	O 	0.01870 0.46111 0.01388 -0.25100
H 	H 	0.93823 0.39202 0.96883 0.04900
O 	O 	0.70100 0.28693 0.01025 -0.28800
H 	H 	0.77943 0.37184 0.05265 0.07700
H 	H 	0.03827 0.45758 0.12483 0.16300
H 	H 	0.03672 0.50982 0.00480 0.14600
H 	H 	0.69515 0.23837 0.01566 0.15000
H 	H 	0.98355 0.58859 0.01471 0.13600
C 	C 	0.52615 0.04486 0.98420 -0.11600
C 	C 	0.46656 0.03390 0.00267 0.01100
C 	C 	0.45127 0.09223 0.00801 0.11800
C 	C 	0.49314 0.15961 0.99364 -0.02800
C 	C 	0.55106 0.16935 0.97443 -0.11500
C 	C 	0.57002 0.11282 0.97091 0.19800
C 	C 	0.42649 0.96408 0.01860 0.00700
O 	O 	0.39802 0.08460 0.02802 -0.26900
H 	H 	0.47935 0.20339 0.99698 0.06400
O 	O 	0.63045 0.12348 0.95387 -0.30000
H 	H 	0.53967 0.00095 0.98066 0.07700
C 	C 	0.34974 0.91085 0.01210 0.12000
C 	C 	0.31389 0.84341 0.02666 -0.03000
C 	C 	0.35465 0.82857 0.04739 -0.12000
C 	C 	0.43337 0.87907 0.05190 0.19400
C 	C 	0.46826 0.94719 0.03814 -0.11200
O 	O 	0.31080 0.92349 0.99092 -0.27000
H 	H 	0.25361 0.80417 0.02268 0.06200
O 	O 	0.47494 0.86362 0.07115 -0.29000
H 	H 	0.52818 0.98688 0.04252 0.07500
H 	H 	0.67594 0.14203 0.96650 0.15500
H 	H 	0.27998 0.94294 0.00036 0.14800
H 	H 	0.49731 0.83778 0.06036 0.14800
H 	H 	0.34938 0.06967 0.01756 0.14800
C 	C 	0.47477 0.51156 0.95859 -0.11400
C 	C 	0.53580 0.57097 0.97267 0.00400
C 	C 	0.60999 0.60588 0.96042 0.12500
C 	C 	0.62373 0.57631 0.93603 -0.04000
C 	C 	0.56652 0.50798 0.92564 -0.11900
C 	C 	0.48992 0.48025 0.93499 0.19200
C 	C 	0.52339 0.59096 0.00142 0.00700
O 	O 	0.67063 0.66399 0.97373 -0.26700
H 	H 	0.68150 0.60167 0.92743 0.06600
O 	O 	0.43142 0.41726 0.92330 -0.28500
H 	H 	0.41656 0.48668 0.96701 0.07600
C 	C 	0.53099 0.66072 0.00684 0.12300
C 	C 	0.51050 0.67564 0.03322 -0.03200
C 	C 	0.47360 0.61885 0.05316 -0.11500
C 	C 	0.47188 0.55108 0.04866 0.19400
C 	C 	0.49812 0.53795 0.02303 -0.11200
O 	O 	0.55515 0.71324 0.98604 -0.27600
H 	H 	0.51469 0.72893 0.03691 0.05500
O 	O 	0.44169 0.49657 0.06872 -0.28300
H 	H 	0.49480 0.48501 0.01941 0.07900
H 	H 	0.41037 0.43466 0.90800 0.15200
H 	H 	0.50733 0.70437 0.97618 0.14600
H 	H 	0.38602 0.46624 0.06403 0.15800
H 	H 	0.67650 0.70888 0.96418 0.15700
C 	C 	0.86319 0.22453 0.81897 0.00400
C 	C 	0.82454 0.14927 0.82602 -0.04700
C 	C 	0.85191 0.10293 0.81616 0.00200
C 	C 	0.82162 0.31193 0.84508 -0.10700
C 	C 	0.95555 0.20671 0.79147 -0.02500
C 	C 	0.92799 0.25283 0.80132 -0.03900
C 	C 	0.84117 0.27367 0.83232 0.04900
C 	C 	0.91844 0.13167 0.79921 -0.06500
H 	H 	0.77436 0.12699 0.83970 0.04800
H 	H 	0.82229 0.04521 0.82218 0.04300
H 	H 	0.00591 0.22937 0.77789 0.06300
H 	H 	0.95798 0.31084 0.79568 0.04200
C 	C 	0.37032 0.10704 0.83156 0.01900
C 	C 	0.36255 0.07270 0.80553 -0.05600
C 	C 	0.29163 0.04040 0.79155 0.01900
C 	C 	0.50848 0.20124 0.85098 -0.09000
C 	C 	0.23459 0.07246 0.83046 0.01900
C 	C 	0.30554 0.10450 0.84445 -0.05400
C 	C 	0.44600 0.15619 0.84232 0.04500
C 	C 	0.22801 0.04244 0.80353 -0.08600
H 	H 	0.41236 0.07426 0.79549 0.05200
H 	H 	0.28712 0.01683 0.77085 0.04000
H 	H 	0.18539 0.07270 0.84022 0.04600
H 	H 	0.31106 0.13054 0.86469 0.05700
C 	C 	0.83526 0.72803 0.87279 0.01200
C 	C 	0.78137 0.71813 0.85179 -0.05500
C 	C 	0.80365 0.76607 0.82869 0.01200
C 	C 	0.80937 0.60989 0.90207 -0.11100
C 	C 	0.93033 0.83999 0.84953 0.01300
C 	C 	0.90830 0.79138 0.87240 -0.05400
C 	C 	0.82224 0.66601 0.89011 0.04400
C 	C 	0.87989 0.82466 0.82662 -0.08000
H 	H 	0.72410 0.67008 0.85225 0.04900
H 	H 	0.76327 0.75460 0.81160 0.04200
H 	H 	0.98837 0.88682 0.84876 0.03800
H 	H 	0.94982 0.80043 0.88883 0.04800
