data_crystal

_cell_length_a 26.22322
_cell_length_b 26.54861
_cell_length_c 36.65866
_cell_angle_alpha 95.50930
_cell_angle_beta  95.50760
_cell_angle_gamma 125.82913

_symmetry_space_group_name_	'P 1'
_symmetry_space_group_name_H-M	'P 1'

loop_
_symmetry_equiv_pos_as_xyz
  x,y,z

loop_
_atom_site_label
_atom_site_type_symbol
_atom_site_fract_x
_atom_site_fract_y
_atom_site_fract_z
_atom_site_charge
C 	C 	0.95958 0.02216 0.98522 0.07700
C 	C 	0.02359 0.05577 0.98079 -0.09300
C 	C 	0.05271 0.02524 0.97874 0.07700
C 	C 	0.95298 0.92688 0.98417 0.07600
H 	H 	0.05086 0.10562 0.97946 0.07200
H 	H 	0.03971 0.93712 0.97905 0.06400
H 	H 	0.87458 0.93148 0.98984 0.07500
C 	C 	0.93866 0.00381 0.46408 0.07800
C 	C 	0.90338 0.93919 0.46572 -0.10100
C 	C 	0.93426 0.91037 0.46785 0.07800
C 	C 	0.00029 0.94621 0.46855 -0.09600
C 	C 	0.03556 0.01063 0.46699 0.07800
C 	C 	0.00479 0.03942 0.46481 -0.08800
H 	H 	0.85224 0.91149 0.46508 0.06200
H 	H 	0.02415 0.92395 0.47018 0.06600
H 	H 	0.03216 0.08935 0.46367 0.07600
Cu	Cu	0.63659 0.23847 0.00419 0.93000
Cu	Cu	0.68631 0.24282 0.92501 0.87500
Cu	Cu	0.67502 0.34163 0.95833 0.90000
Cu	Cu	0.64016 0.35628 0.03207 0.89500
C 	C 	0.65638 0.28309 0.08259 0.30500
O 	O 	0.54361 0.20191 0.00354 -0.35000
C 	C 	0.65385 0.30142 0.87642 0.30800
O 	O 	0.68995 0.33723 0.00963 -0.64200
O 	O 	0.62897 0.24813 0.95156 -0.64000
O 	O 	0.67406 0.19160 0.00016 -0.37300
O 	O 	0.74585 0.25773 0.96636 -0.42600
O 	O 	0.62833 0.30967 0.07400 -0.38500
O 	O 	0.72457 0.43268 0.96842 -0.38000
C 	C 	0.71741 0.46634 0.99343 0.31900
C 	C 	0.51947 0.23024 0.99144 0.30200
O 	O 	0.55793 0.28974 0.98810 -0.39200
O 	O 	0.67834 0.44047 0.01737 -0.39200
O 	O 	0.65738 0.24535 0.05690 -0.35700
C 	C 	0.72814 0.21596 0.98813 0.31300
O 	O 	0.67478 0.34753 0.90497 -0.38000
O 	O 	0.64732 0.24945 0.88095 -0.41400
H 	H 	0.73572 0.36350 0.02166 0.16700
H 	H 	0.58462 0.22338 0.93729 0.17700
Cu	Cu	0.74064 0.34322 0.45939 0.92900
Cu	Cu	0.73916 0.29602 0.53899 0.87300
Cu	Cu	0.63516 0.30112 0.50518 0.89900
Cu	Cu	0.61719 0.33259 0.43102 0.89600
C 	C 	0.69443 0.32124 0.38091 0.30600
O 	O 	0.77317 0.43423 0.45937 -0.34700
C 	C 	0.67716 0.32487 0.58719 0.30700
O 	O 	0.64023 0.28651 0.45394 -0.64000
O 	O 	0.73035 0.35025 0.51192 -0.64000
O 	O 	0.79030 0.30821 0.46383 -0.36900
O 	O 	0.72468 0.23698 0.49801 -0.43700
O 	O 	0.66512 0.34652 0.38923 -0.38300
O 	O 	0.54256 0.24876 0.49524 -0.36900
C 	C 	0.50663 0.25210 0.46919 0.31300
C 	C 	0.74151 0.45493 0.47114 0.30300
O 	O 	0.68207 0.41415 0.47508 -0.39500
O 	O 	0.53167 0.29175 0.44570 -0.39400
O 	O 	0.73420 0.32264 0.40676 -0.35400
C 	C 	0.76616 0.25466 0.47568 0.31300
O 	O 	0.62975 0.30188 0.55864 -0.38000
O 	O 	0.73097 0.33379 0.58274 -0.41600
H 	H 	0.61530 0.24133 0.44218 0.17100
H 	H 	0.75390 0.39401 0.52597 0.17600
C 	C 	0.64820 0.33629 0.69406 -0.00300
C 	C 	0.59396 0.28407 0.70400 -0.03200
C 	C 	0.59066 0.28074 0.74164 -0.03200
C 	C 	0.64156 0.32962 0.76950 -0.00300
C 	C 	0.69401 0.38356 0.75956 -0.03200
C 	C 	0.69733 0.38688 0.72192 -0.03200
C 	C 	0.65739 0.33400 0.65599 0.04800
C 	C 	0.66598 0.33066 0.62440 -0.10400
C 	C 	0.64410 0.32065 0.80758 0.04900
C 	C 	0.64769 0.31228 0.83919 -0.10300
H 	H 	0.55562 0.24489 0.68263 0.04500
H 	H 	0.54979 0.23901 0.74908 0.04400
H 	H 	0.73343 0.42170 0.78094 0.04500
H 	H 	0.73929 0.42756 0.71448 0.04400
C 	C 	0.68953 0.27999 0.19306 -0.00200
C 	C 	0.64121 0.23008 0.20795 -0.03200
C 	C 	0.64583 0.23473 0.24663 -0.03300
C 	C 	0.69880 0.28931 0.27058 -0.00100
C 	C 	0.74871 0.33773 0.25569 -0.03200
C 	C 	0.74407 0.33309 0.21701 -0.03300
C 	C 	0.67947 0.28022 0.15377 0.04700
C 	C 	0.66971 0.28118 0.12111 -0.10000
C 	C 	0.69821 0.29904 0.30983 0.04800
C 	C 	0.69688 0.30844 0.34244 -0.09600
H 	H 	0.59900 0.18876 0.18961 0.04600
H 	H 	0.60716 0.19699 0.25792 0.04300
H 	H 	0.78994 0.37998 0.27402 0.04600
H 	H 	0.78174 0.37178 0.20572 0.04200
C 	C 	0.85294 0.73584 0.43756 -0.09500
C 	C 	0.84448 0.71559 0.47190 -0.01000
C 	C 	0.86069 0.75843 0.50452 0.13800
C 	C 	0.88746 0.82166 0.50281 -0.07700
C 	C 	0.89748 0.84228 0.46860 -0.05200
C 	C 	0.87891 0.79882 0.43578 0.15300
C 	C 	0.81783 0.64924 0.47349 0.01100
O 	O 	0.85232 0.73908 0.53824 -0.28000
H 	H 	0.90181 0.85497 0.52819 0.06300
O 	O 	0.88870 0.81848 0.40219 -0.28400
H 	H 	0.83984 0.70283 0.41229 0.06800
C 	C 	0.75177 0.60118 0.46211 0.11300
C 	C 	0.72711 0.53807 0.46215 -0.03200
C 	C 	0.76808 0.52219 0.47321 -0.12300
C 	C 	0.83413 0.57058 0.48548 0.19300
C 	C 	0.85878 0.63378 0.48526 -0.11200
O 	O 	0.71104 0.61595 0.45164 -0.27500
H 	H 	0.67619 0.50133 0.45288 0.05000
O 	O 	0.87471 0.55626 0.49733 -0.28500
H 	H 	0.90974 0.67073 0.49415 0.07900
H 	H 	0.84895 0.81272 0.39165 0.14700
H 	H 	0.70802 0.61378 0.42428 0.14400
H 	H 	0.87565 0.55771 0.52454 0.14500
H 	H 	0.80847 0.72439 0.54070 0.15200
C 	C 	0.87380 0.08861 0.42819 -0.09000
C 	C 	0.85787 0.10471 0.46049 -0.01100
C 	C 	0.86522 0.08461 0.49344 0.13500
C 	C 	0.88917 0.04932 0.49402 -0.07600
C 	C 	0.90665 0.03457 0.46200 -0.05000
C 	C 	0.89783 0.05337 0.42878 0.15300
C 	C 	0.83456 0.14361 0.46001 0.01200
O 	O 	0.84836 0.09881 0.52495 -0.28100
O 	O 	0.91458 0.03909 0.39724 -0.28000
H 	H 	0.86805 0.10383 0.40272 0.07500
C 	C 	0.87810 0.21003 0.46873 0.11200
C 	C 	0.85540 0.24644 0.47154 -0.03200
C 	C 	0.78934 0.21688 0.46652 -0.12900
C 	C 	0.74581 0.15045 0.45639 0.19600
C 	C 	0.76858 0.11420 0.45296 -0.11500
O 	O 	0.94281 0.23943 0.47444 -0.26900
H 	H 	0.88923 0.29751 0.47906 0.05500
O 	O 	0.68110 0.12104 0.44894 -0.29200
H 	H 	0.73488 0.06309 0.44561 0.07700
H 	H 	0.87551 0.99750 0.38389 0.14700
H 	H 	0.95577 0.24387 0.50157 0.14100
H 	H 	0.66647 0.10924 0.47276 0.15100
H 	H 	0.88770 0.13986 0.53868 0.14300
C 	C 	0.33526 0.11997 0.47374 -0.11600
C 	C 	0.30588 0.14981 0.46912 0.01100
C 	C 	0.34238 0.21316 0.46449 0.11900
C 	C 	0.40803 0.24646 0.46486 -0.03200
C 	C 	0.43759 0.21666 0.46933 -0.12100
C 	C 	0.40076 0.15290 0.47350 0.19300
C 	C 	0.23662 0.11429 0.46848 -0.01000
O 	O 	0.31420 0.24299 0.46038 -0.27000
H 	H 	0.43605 0.29560 0.46185 0.06000
O 	O 	0.42869 0.12282 0.47748 -0.28700
H 	H 	0.30716 0.07103 0.47714 0.07300
C 	C 	0.19229 0.07428 0.43552 0.13500
C 	C 	0.12663 0.04147 0.43500 -0.07500
C 	C 	0.10482 0.04780 0.46735 -0.04900
C 	C 	0.14914 0.08756 0.50037 0.15300
C 	C 	0.21485 0.12097 0.50077 -0.09000
O 	O 	0.21316 0.06861 0.40354 -0.27900
O 	O 	0.12834 0.09456 0.53208 -0.28200
H 	H 	0.24888 0.15192 0.52619 0.07500
H 	H 	0.42459 0.10371 0.45174 0.14400
H 	H 	0.12239 0.06124 0.54546 0.14800
H 	H 	0.29962 0.23534 0.43310 0.15300
C 	C 	0.87239 0.77515 0.02190 -0.09800
C 	C 	0.85004 0.73057 0.98916 -0.00900
C 	C 	0.86037 0.75040 0.95464 0.14200
C 	C 	0.89302 0.81455 0.95310 -0.07800
C 	C 	0.91602 0.85923 0.98589 -0.04800
C 	C 	0.90571 0.83940 0.02042 0.15200
C 	C 	0.81647 0.66326 0.99113 0.01200
O 	O 	0.83724 0.70695 0.92233 -0.27500
H 	H 	0.90083 0.82965 0.92644 0.06400
O 	O 	0.92733 0.88266 0.05261 -0.27900
H 	H 	0.86441 0.76002 0.04854 0.06700
C 	C 	0.84976 0.63674 0.99165 0.11400
C 	C 	0.81708 0.57231 0.99237 -0.03000
C 	C 	0.75142 0.53425 0.99335 -0.12500
C 	C 	0.71835 0.56113 0.99344 0.19600
C 	C 	0.75093 0.62538 0.99215 -0.11500
O 	O 	0.91386 0.67338 0.99041 -0.27500
H 	H 	0.84286 0.55200 0.99237 0.05400
O 	O 	0.65363 0.52405 0.99285 -0.28600
H 	H 	0.72511 0.64566 0.99164 0.07900
H 	H 	0.97119 0.89642 0.06209 0.14600
H 	H 	0.93614 0.69055 0.01686 0.14200
H 	H 	0.64927 0.52748 0.01938 0.15000
H 	H 	0.87239 0.70384 0.91873 0.15600
C 	C 	0.88648 0.09673 0.02628 -0.09600
C 	C 	0.86728 0.11140 0.99452 -0.00900
C 	C 	0.87995 0.09825 0.95986 0.14100
C 	C 	0.91143 0.07034 0.95714 -0.07800
C 	C 	0.92968 0.05469 0.98877 -0.04700
C 	C 	0.91791 0.06875 0.02356 0.15300
C 	C 	0.83219 0.13874 0.99734 0.01100
O 	O 	0.86236 0.11345 0.92874 -0.27900
H 	H 	0.92085 0.06004 0.93034 0.06400
H 	H 	0.87665 0.10665 0.05302 0.06900
C 	C 	0.76516 0.09905 0.99362 0.11300
C 	C 	0.73147 0.12485 0.99226 -0.03300
C 	C 	0.76437 0.19031 0.99480 -0.13000
C 	C 	0.83182 0.23033 0.00079 0.19300
C 	C 	0.86538 0.20437 0.00169 -0.11600
O 	O 	0.73228 0.03475 0.98942 -0.27400
H 	H 	0.67963 0.09371 0.98792 0.05800
O 	O 	0.86488 0.29464 0.00483 -0.29000
H 	H 	0.91714 0.23518 0.00514 0.07800
H 	H 	0.72937 0.02581 0.01510 0.14700
H 	H 	0.87330 0.31018 0.03201 0.14700
H 	H 	0.81844 0.07545 0.91741 0.15200
C 	C 	0.23328 0.13841 0.00511 -0.10000
C 	C 	0.25105 0.11885 0.97513 -0.01000
C 	C 	0.20376 0.07205 0.94489 0.14200
C 	C 	0.13905 0.04360 0.94545 -0.07800
C 	C 	0.12107 0.06117 0.97622 -0.04900
C 	C 	0.16857 0.10920 0.00601 0.15200
C 	C 	0.31858 0.14375 0.97701 0.01200
O 	O 	0.22046 0.05165 0.91575 -0.27600
O 	O 	0.15178 0.12714 0.03619 -0.28600
H 	H 	0.26962 0.17487 0.02831 0.06700
C 	C 	0.35674 0.18853 0.95548 0.11800
C 	C 	0.42166 0.21426 0.95900 -0.03600
C 	C 	0.44951 0.19720 0.98488 -0.12200
C 	C 	0.41098 0.15218 0.00642 0.19000
C 	C 	0.34569 0.12499 0.00191 -0.11700
O 	O 	0.33062 0.20694 0.93084 -0.27600
H 	H 	0.45062 0.24839 0.94209 0.05900
O 	O 	0.43714 0.13526 0.03220 -0.27900
H 	H 	0.31637 0.09044 0.01852 0.07600
H 	H 	0.14688 0.09930 0.05395 0.14800
H 	H 	0.33610 0.24384 0.94537 0.14700
H 	H 	0.45083 0.16517 0.05583 0.15100
H 	H 	0.22572 0.07809 0.89697 0.15800
C 	C 	0.01721 0.96074 0.98035 -0.10200
C 	C 	0.92421 0.95761 0.98666 -0.09000
H 	H 	0.89553 0.03468 0.51961 0.06400
H 	H 	0.09263 0.01083 0.40951 0.06900
H 	H 	0.21525 0.03257 0.40412 0.14600
O 	O 	0.93561 0.05367 0.05470 -0.27900
H 	H 	0.97983 0.09142 0.06571 0.15100
H 	H 	0.10271 0.00665 0.92243 0.06400
