data_crystal

_cell_length_a 26.05748
_cell_length_b 26.45604
_cell_length_c 36.75891
_cell_angle_alpha 95.53533
_cell_angle_beta  95.53306
_cell_angle_gamma 125.83028

_symmetry_space_group_name_	'P 1'
_symmetry_space_group_name_H-M	'P 1'

loop_
_symmetry_equiv_pos_as_xyz
  x,y,z

loop_
_atom_site_label
_atom_site_type_symbol
_atom_site_fract_x
_atom_site_fract_y
_atom_site_fract_z
_atom_site_charge
C 	C 	0.96481 0.02733 0.98710 0.11100
N 	N 	0.02669 0.05873 0.98193 -0.13900
C 	C 	0.05220 0.02676 0.97651 0.11600
C 	C 	0.93835 0.99852 0.46512 0.11700
C 	C 	0.93255 0.90734 0.47037 0.11700
C 	C 	0.03173 0.00314 0.46770 0.11900
N 	N 	0.00254 0.03190 0.46527 -0.14000
Cu	Cu	0.63881 0.24265 0.00568 0.92800
Cu	Cu	0.69415 0.25177 0.92863 0.86700
Cu	Cu	0.67317 0.34395 0.95917 0.89600
Cu	Cu	0.64461 0.36215 0.03366 0.89400
C 	C 	0.65779 0.28686 0.08364 0.30600
O 	O 	0.54579 0.20883 0.00495 -0.36200
C 	C 	0.66158 0.30895 0.87827 0.30300
O 	O 	0.69332 0.34185 0.01042 -0.64000
O 	O 	0.63127 0.25119 0.95308 -0.64300
O 	O 	0.67585 0.19494 0.00189 -0.37200
O 	O 	0.75119 0.26452 0.97085 -0.44300
O 	O 	0.62947 0.31316 0.07456 -0.38700
O 	O 	0.72005 0.43510 0.96718 -0.38700
C 	C 	0.71479 0.47006 0.99250 0.29400
C 	C 	0.52263 0.23748 0.99136 0.28100
O 	O 	0.56225 0.29770 0.98904 -0.39700
O 	O 	0.68879 0.44897 0.02193 -0.39500
O 	O 	0.66020 0.24992 0.05823 -0.36200
C 	C 	0.73140 0.22048 0.99116 0.29000
O 	O 	0.66069 0.34476 0.90558 -0.38300
O 	O 	0.65768 0.25827 0.88336 -0.42300
H 	H 	0.73994 0.36868 0.02123 0.16500
H 	H 	0.58703 0.22418 0.93808 0.17500
Cu	Cu	0.73871 0.33804 0.45874 0.92700
Cu	Cu	0.74030 0.29354 0.53881 0.87000
Cu	Cu	0.63739 0.30232 0.50717 0.89700
Cu	Cu	0.61619 0.33144 0.43285 0.89400
C 	C 	0.68938 0.31596 0.38085 0.30500
O 	O 	0.77365 0.42974 0.45799 -0.36200
C 	C 	0.68431 0.32828 0.58864 0.30700
O 	O 	0.63842 0.28438 0.45556 -0.64000
O 	O 	0.73246 0.34841 0.51176 -0.64200
O 	O 	0.78561 0.29959 0.46201 -0.37300
O 	O 	0.72072 0.23173 0.49796 -0.44200
O 	O 	0.66158 0.34276 0.39005 -0.38700
O 	O 	0.54446 0.25239 0.49946 -0.38300
C 	C 	0.50734 0.25271 0.47243 0.29100
C 	C 	0.74459 0.45299 0.47091 0.28200
O 	O 	0.68491 0.41423 0.47569 -0.39400
O 	O 	0.53177 0.29282 0.44917 -0.39400
O 	O 	0.72822 0.31478 0.40605 -0.36300
C 	C 	0.76082 0.24662 0.47487 0.28700
O 	O 	0.63570 0.30660 0.56102 -0.38800
O 	O 	0.73687 0.33493 0.58286 -0.42300
H 	H 	0.61163 0.23862 0.44442 0.16400
H 	H 	0.75813 0.39286 0.52531 0.17300
C 	C 	0.65570 0.33970 0.77180 -0.00600
C 	C 	0.71212 0.38924 0.76160 -0.03600
C 	C 	0.71520 0.39186 0.72399 -0.03500
C 	C 	0.66187 0.34494 0.69643 -0.00700
C 	C 	0.60401 0.29803 0.70670 -0.03500
C 	C 	0.60093 0.29541 0.74433 -0.03500
C 	C 	0.66931 0.33967 0.65823 0.04400
C 	C 	0.67570 0.33539 0.62628 -0.11200
C 	C 	0.65695 0.32916 0.80949 0.04300
C 	C 	0.65837 0.32066 0.84110 -0.11000
H 	H 	0.75450 0.42400 0.78269 0.03700
H 	H 	0.75994 0.42861 0.71629 0.03800
H 	H 	0.56237 0.26191 0.68557 0.03900
H 	H 	0.55693 0.25729 0.75200 0.03900
C 	C 	0.68817 0.28119 0.19367 -0.00400
C 	C 	0.64059 0.22917 0.20780 -0.03400
C 	C 	0.64430 0.23257 0.24629 -0.03500
C 	C 	0.69561 0.28799 0.27076 -0.00400
C 	C 	0.74529 0.33836 0.25662 -0.03400
C 	C 	0.74157 0.33497 0.21815 -0.03500
C 	C 	0.69307 0.29649 0.30967 0.04400
C 	C 	0.69166 0.30437 0.34231 -0.10300
C 	C 	0.67802 0.28277 0.15471 0.04400
C 	C 	0.66958 0.28416 0.12209 -0.10400
H 	H 	0.59940 0.18721 0.18905 0.04200
H 	H 	0.60595 0.19322 0.25701 0.03900
H 	H 	0.78538 0.38119 0.27536 0.04100
H 	H 	0.77879 0.37520 0.20744 0.03800
C 	C 	0.89161 0.76223 0.50673 -0.04600
C 	C 	0.84308 0.71374 0.47762 0.00600
C 	C 	0.81887 0.72879 0.44820 -0.04600
C 	C 	0.84512 0.79222 0.44709 -0.02100
C 	C 	0.89607 0.84095 0.47523 -0.02100
C 	C 	0.91808 0.82556 0.50551 -0.02100
C 	C 	0.82011 0.64774 0.47696 0.02400
H 	H 	0.78087 0.69154 0.42579 0.04100
H 	H 	0.82777 0.80358 0.42361 0.03800
H 	H 	0.95717 0.86285 0.52748 0.03800
H 	H 	0.91017 0.75099 0.52971 0.04100
C 	C 	0.83675 0.61944 0.45119 -0.06500
C 	C 	0.81469 0.55669 0.45036 0.01200
C 	C 	0.77542 0.52156 0.47519 -0.08900
C 	C 	0.76030 0.55059 0.50164 0.01100
C 	C 	0.78262 0.61342 0.50253 -0.06500
H 	H 	0.86638 0.64590 0.43164 0.04700
H 	H 	0.82649 0.53485 0.42971 0.03800
H 	H 	0.73052 0.52421 0.52116 0.03000
H 	H 	0.77018 0.63517 0.52281 0.04600
C 	C 	0.91324 0.12451 0.48478 -0.04600
C 	C 	0.85546 0.09821 0.45996 0.00500
C 	C 	0.82360 0.03780 0.43773 -0.04500
C 	C 	0.84966 0.00431 0.44013 -0.02400
C 	C 	0.90802 0.03119 0.46455 -0.02200
C 	C 	0.93946 0.09130 0.48698 -0.02200
C 	C 	0.82728 0.13305 0.45832 0.02400
H 	H 	0.77890 0.01698 0.41853 0.04000
H 	H 	0.98425 0.11229 0.50614 0.03800
H 	H 	0.93766 0.17059 0.50250 0.03800
C 	C 	0.76608 0.10634 0.46701 -0.06700
C 	C 	0.74288 0.14235 0.47035 0.01100
C 	C 	0.78097 0.20580 0.46544 -0.09400
C 	C 	0.84075 0.23137 0.45472 0.01300
C 	C 	0.86371 0.19510 0.45111 -0.06600
H 	H 	0.73734 0.05837 0.47235 0.04400
H 	H 	0.69600 0.12143 0.47773 0.02900
H 	H 	0.87042 0.27994 0.45044 0.03500
H 	H 	0.91059 0.21582 0.44377 0.04600
C 	C 	0.20306 0.05564 0.48681 -0.04400
C 	C 	0.23472 0.10873 0.46963 0.00600
C 	C 	0.19972 0.12728 0.45189 -0.04500
C 	C 	0.13353 0.09287 0.45119 -0.02200
C 	C 	0.10174 0.03976 0.46849 -0.02000
C 	C 	0.13702 0.02151 0.48642 -0.02400
C 	C 	0.30456 0.14502 0.47036 0.02500
H 	H 	0.22383 0.16840 0.43869 0.04100
H 	H 	0.10695 0.10722 0.43698 0.04200
H 	H 	0.11340 0.98112 0.50023 0.04300
H 	H 	0.22965 0.04083 0.50046 0.04000
C 	C 	0.34796 0.17252 0.50449 -0.06500
C 	C 	0.41413 0.20690 0.50520 0.01500
C 	C 	0.43755 0.21451 0.47176 -0.08800
C 	C 	0.39410 0.18686 0.43763 0.01400
C 	C 	0.32789 0.15208 0.43693 -0.06600
H 	H 	0.33043 0.16762 0.53044 0.04700
H 	H 	0.44723 0.22849 0.53172 0.03800
H 	H 	0.41160 0.19207 0.41167 0.02500
H 	H 	0.29471 0.13053 0.41045 0.04600
C 	C 	0.89180 0.76017 0.96190 -0.04500
C 	C 	0.84268 0.73268 0.98284 0.00600
C 	C 	0.82863 0.77021 0.00225 -0.04500
C 	C 	0.86430 0.83499 0.00139 -0.02100
C 	C 	0.91416 0.86282 0.98085 -0.02100
C 	C 	0.92716 0.82480 0.96075 -0.02200
C 	C 	0.80750 0.66511 0.98544 0.02400
H 	H 	0.79049 0.74930 0.01830 0.04100
H 	H 	0.85384 0.86366 0.01716 0.04100
H 	H 	0.96477 0.84532 0.94434 0.03900
H 	H 	0.90306 0.73159 0.94685 0.04000
C 	C 	0.77404 0.61800 0.95308 -0.06500
C 	C 	0.74337 0.55425 0.95541 0.01400
C 	C 	0.74547 0.53699 0.99016 -0.08800
C 	C 	0.77803 0.58405 0.02258 0.01500
C 	C 	0.80908 0.64781 0.02021 -0.06600
H 	H 	0.77211 0.63084 0.92614 0.04600
H 	H 	0.71787 0.51830 0.93025 0.03600
H 	H 	0.78036 0.57138 0.04953 0.03000
H 	H 	0.83513 0.68386 0.04532 0.04600
C 	C 	0.87103 0.21186 0.00682 -0.06800
C 	C 	0.83875 0.14604 0.00234 0.02500
C 	C 	0.77123 0.10527 0.99760 -0.06800
C 	C 	0.73621 0.12992 0.99593 0.01400
C 	C 	0.76835 0.19548 0.99855 -0.09700
C 	C 	0.83599 0.23644 0.00478 0.01500
C 	C 	0.87522 0.11955 0.00042 0.00500
H 	H 	0.74580 0.05439 0.99416 0.04500
H 	H 	0.68404 0.09782 0.99113 0.03000
H 	H 	0.86136 0.28721 0.00738 0.02800
H 	H 	0.92318 0.24382 0.01113 0.04500
C 	C 	0.91406 0.13275 0.97347 -0.04600
C 	C 	0.94509 0.10425 0.96993 -0.02300
C 	C 	0.93704 0.06178 0.99303 -0.02100
C 	C 	0.89945 0.04975 0.02054 -0.02100
C 	C 	0.86893 0.07873 0.02433 -0.04600
H 	H 	0.91906 0.16401 0.95478 0.03800
H 	H 	0.97386 0.11377 0.94855 0.03800
H 	H 	0.89352 0.01761 0.03881 0.03800
H 	H 	0.83974 0.06883 0.04551 0.04100
C 	C 	0.34411 0.11790 0.98933 -0.06400
C 	C 	0.31952 0.14723 0.97309 0.02400
C 	C 	0.36099 0.20399 0.96054 -0.06500
C 	C 	0.42694 0.23225 0.96518 0.01000
C 	C 	0.45213 0.20418 0.98273 -0.08700
C 	C 	0.41000 0.14611 0.99410 0.01100
C 	C 	0.25082 0.11970 0.97059 0.00600
H 	H 	0.34226 0.22657 0.94758 0.04600
H 	H 	0.45848 0.27636 0.95561 0.03300
H 	H 	0.42841 0.12354 0.00742 0.03900
H 	H 	0.31233 0.07391 0.99898 0.04700
C 	C 	0.20328 0.05980 0.94847 -0.04400
C 	C 	0.13820 0.03058 0.94921 -0.02400
C 	C 	0.12004 0.06093 0.97222 -0.01900
C 	C 	0.16756 0.12209 0.99315 -0.02200
C 	C 	0.23267 0.15131 0.99234 -0.04500
H 	H 	0.21685 0.03536 0.93128 0.04000
H 	H 	0.10196 0.98389 0.93239 0.04200
H 	H 	0.15428 0.14609 0.01100 0.04200
H 	H 	0.26909 0.19768 0.00944 0.04200
N 	N 	0.01560 0.96337 0.97619 -0.13700
C 	C 	0.95363 0.93175 0.98107 0.11500
N 	N 	0.92837 0.96388 0.98657 -0.13900
N 	N 	0.90319 0.93600 0.46751 -0.14000
N 	N 	0.99659 0.94091 0.47029 -0.14300
H 	H 	0.82518 0.95814 0.42251 0.04100
