data_crystal

_cell_length_a 27.13680
_cell_length_b 23.88488
_cell_length_c 58.65429
_cell_angle_alpha 90.50530
_cell_angle_beta  91.33699
_cell_angle_gamma 110.78186

_symmetry_space_group_name_	'P 1'
_symmetry_space_group_name_H-M	'P 1'

loop_
_symmetry_equiv_pos_as_xyz
  x,y,z

loop_
_atom_site_label
_atom_site_type_symbol
_atom_site_fract_x
_atom_site_fract_y
_atom_site_fract_z
_atom_site_charge
Ni	Ni	0.70542 0.29400 0.90057 1.09900
O 	O 	0.64454 0.26126 0.87694 -0.70000
Ni	Ni	0.58584 0.27635 0.89366 1.09800
O 	O 	0.75666 0.26378 0.88338 -0.36500
O 	O 	0.69841 0.17136 0.87389 -0.40900
O 	O 	0.74046 0.37085 0.88227 -0.37300
Ni	Ni	0.62283 0.17370 0.87322 1.06400
O 	O 	0.74853 0.41849 0.92470 -0.41600
O 	O 	0.62256 0.16326 0.90765 -0.43000
O 	O 	0.52752 0.23926 0.86957 -0.38300
O 	O 	0.64726 0.31091 0.91664 -0.70500
O 	O 	0.76151 0.32872 0.92549 -0.38900
O 	O 	0.53586 0.30586 0.91208 -0.37400
O 	O 	0.59384 0.40212 0.91483 -0.41600
Ni	Ni	0.66892 0.39833 0.91956 1.06300
H 	H 	0.65145 0.28200 0.86217 0.15100
H 	H 	0.64058 0.29158 0.93169 0.15200
C 	C 	0.58363 0.16663 0.91962 0.30600
O 	O 	0.67625 0.41070 0.88541 -0.42300
C 	C 	0.74000 0.21782 0.86910 0.28300
C 	C 	0.51941 0.18512 0.86141 0.28400
C 	C 	0.71725 0.40746 0.87500 0.29300
C 	C 	0.55016 0.36007 0.92113 0.29700
C 	C 	0.77064 0.38264 0.93415 0.30100
O 	O 	0.55623 0.19941 0.91261 -0.37500
O 	O 	0.54302 0.15164 0.87123 -0.41600
Ni	Ni	0.63513 0.32405 0.53837 1.09900
O 	O 	0.69240 0.34012 0.51449 -0.70000
Ni	Ni	0.74116 0.30336 0.52936 1.09700
O 	O 	0.60180 0.38228 0.52535 -0.37900
O 	O 	0.68110 0.45833 0.52319 -0.41700
O 	O 	0.58134 0.26055 0.51730 -0.37600
Ni	Ni	0.73197 0.42399 0.50711 1.06600
O 	O 	0.56700 0.20158 0.55768 -0.40900
O 	O 	0.78514 0.45703 0.53387 -0.40000
O 	O 	0.80444 0.33059 0.50820 -0.39000
O 	O 	0.68021 0.28086 0.55144 -0.70300
O 	O 	0.58025 0.30125 0.56301 -0.38100
O 	O 	0.77596 0.25207 0.54663 -0.37200
O 	O 	0.70154 0.16863 0.54291 -0.41500
Ni	Ni	0.63850 0.19535 0.55049 1.06300
H 	H 	0.67763 0.31773 0.50014 0.14900
H 	H 	0.69195 0.29484 0.56727 0.15400
C 	C 	0.80735 0.42567 0.54588 0.29700
O 	O 	0.62426 0.19415 0.51635 -0.42600
C 	C 	0.62996 0.43655 0.51902 0.29800
C 	C 	0.82048 0.38245 0.49768 0.31000
C 	C 	0.58885 0.21424 0.50785 0.31300
C 	C 	0.74963 0.19573 0.55136 0.27800
C 	C 	0.56069 0.24534 0.56995 0.27900
O 	O 	0.77922 0.37125 0.55200 -0.39700
O 	O 	0.78599 0.40393 0.48855 -0.42700
Ni	Ni	0.01073 0.91979 0.72476 1.09900
O 	O 	0.02754 0.86187 0.70319 -0.70600
Ni	Ni	0.06547 0.91763 0.67895 1.10000
O 	O 	0.97334 0.85135 0.74636 -0.37000
O 	O 	0.91902 0.79792 0.71712 -0.41400
O 	O 	0.08220 0.93113 0.74049 -0.38900
Ni	Ni	0.96580 0.80174 0.68897 1.06300
O 	O 	0.02258 0.06487 0.72305 -0.41300
O 	O 	0.93504 0.86139 0.67536 -0.41400
O 	O 	0.08704 0.85718 0.66102 -0.37700
O 	O 	0.03704 0.97140 0.69772 -0.70300
O 	O 	0.00013 0.98212 0.74657 -0.36700
O 	O 	0.11548 0.98725 0.66093 -0.37600
O 	O 	0.15017 0.04089 0.69366 -0.42100
Ni	Ni	0.08418 0.05012 0.70831 1.06700
H 	H 	0.05084 0.84294 0.71048 0.15500
H 	H 	0.00653 0.97717 0.68998 0.15300
C 	C 	0.95826 0.89790 0.65907 0.28900
O 	O 	0.10788 0.03245 0.73971 -0.40400
C 	C 	0.93664 0.80160 0.73848 0.27100
C 	C 	0.05152 0.80328 0.65672 0.27400
C 	C 	0.11873 0.98428 0.74373 0.30300
C 	C 	0.15231 0.03238 0.67149 0.26300
C 	C 	0.99487 0.03274 0.73991 0.27800
O 	O 	0.00748 0.90675 0.65430 -0.37300
O 	O 	0.00047 0.79337 0.65900 -0.40300
Ni	Ni	0.25868 0.67643 0.40086 1.09900
O 	O 	0.32442 0.72452 0.38370 -0.70700
Ni	Ni	0.38038 0.73003 0.40710 1.10100
O 	O 	0.21159 0.67849 0.37333 -0.37400
O 	O 	0.24705 0.78098 0.37288 -0.41100
O 	O 	0.27023 0.60310 0.38708 -0.39800
Ni	Ni	0.32891 0.80508 0.37638 1.06400
O 	O 	0.23307 0.62385 0.45402 -0.41700
O 	O 	0.32299 0.82984 0.40938 -0.42000
O 	O 	0.44279 0.76989 0.38695 -0.37900
O 	O 	0.31392 0.69457 0.42563 -0.70600
O 	O 	0.19464 0.62242 0.41811 -0.38400
O 	O 	0.42832 0.71183 0.43121 -0.38400
O 	O 	0.37343 0.61385 0.43272 -0.42200
Ni	Ni	0.30233 0.62090 0.44236 1.06900
H 	H 	0.32913 0.70309 0.36987 0.15500
H 	H 	0.30929 0.72481 0.43614 0.15300
C 	C 	0.36192 0.83978 0.42438 0.31000
O 	O 	0.25950 0.55263 0.42054 -0.40000
C 	C 	0.21538 0.72957 0.36374 0.27300
C 	C 	0.44334 0.81566 0.37421 0.27600
C 	C 	0.26304 0.55355 0.39824 0.30700
C 	C 	0.41916 0.65656 0.43773 0.29000
C 	C 	0.19189 0.62093 0.44064 0.30400
O 	O 	0.39606 0.81247 0.42257 -0.37800
O 	O 	0.40980 0.84386 0.37793 -0.40600
Ni	Ni	0.33634 0.69082 0.03547 1.09700
O 	O 	0.27053 0.66649 0.01458 -0.70500
Ni	Ni	0.22240 0.69542 0.03319 1.09800
O 	O 	0.37524 0.65024 0.01527 -0.37300
O 	O 	0.30674 0.56089 0.01201 -0.41600
O 	O 	0.37271 0.76521 0.01595 -0.37500
Ni	Ni	0.23699 0.57903 0.01181 1.06200
O 	O 	0.39868 0.81395 0.05717 -0.41400
O 	O 	0.23694 0.56719 0.04629 -0.41900
O 	O 	0.16017 0.66897 0.01059 -0.38700
O 	O 	0.28784 0.71877 0.05440 -0.70300
O 	O 	0.39943 0.71865 0.05766 -0.38400
O 	O 	0.18300 0.73576 0.05333 -0.36500
O 	O 	0.25168 0.82406 0.05788 -0.41300
Ni	Ni	0.32119 0.80641 0.05725 1.06300
H 	H 	0.27684 0.68546 0.99947 0.15200
H 	H 	0.28139 0.69939 0.06944 0.15100
C 	C 	0.20503 0.58237 0.05936 0.28600
O 	O 	0.31782 0.81612 0.02300 -0.43100
C 	C 	0.35218 0.59804 0.00493 0.29800
C 	C 	0.14216 0.61386 0.00223 0.30100
C 	C 	0.35105 0.80429 0.00978 0.30700
C 	C 	0.20696 0.78585 0.06490 0.28100
C 	C 	0.41710 0.77404 0.06572 0.28400
O 	O 	0.18407 0.62111 0.05219 -0.37200
O 	O 	0.15960 0.57284 0.01070 -0.41400
Ni	Ni	0.94838 0.03793 0.24971 1.09700
O 	O 	0.96020 0.11559 0.23246 -0.70600
Ni	Ni	0.91741 0.08364 0.20396 1.09900
O 	O 	0.99515 0.08432 0.27670 -0.37300
O 	O 	0.06280 0.12937 0.25288 -0.41300
O 	O 	0.88391 0.05039 0.26345 -0.39100
Ni	Ni	0.03270 0.15588 0.22357 1.06400
O 	O 	0.89089 0.89016 0.23661 -0.41000
O 	O 	0.03838 0.08279 0.20690 -0.41600
O 	O 	0.92630 0.16446 0.19013 -0.38000
O 	O 	0.91637 0.00632 0.21907 -0.70900
O 	O 	0.93098 0.95781 0.26595 -0.37600
O 	O 	0.85757 0.04060 0.18077 -0.37600
O 	O 	0.80652 0.98768 0.20931 -0.41300
Ni	Ni	0.85030 0.94005 0.22334 1.07100
H 	H 	0.94676 0.14339 0.24066 0.15500
H 	H 	0.94019 0.98936 0.21149 0.15600
C 	C 	0.01301 0.06277 0.18745 0.28900
O 	O 	0.83038 0.95422 0.25560 -0.39300
C 	C 	0.04087 0.12679 0.27287 0.27500
C 	C 	0.97417 0.20595 0.18976 0.27500
C 	C 	0.83754 0.00733 0.26426 0.29900
C 	C 	0.81183 0.00378 0.18781 0.25700
C 	C 	0.92349 0.90689 0.25474 0.28400
O 	O 	0.97187 0.07654 0.18132 -0.37500
O 	O 	0.01645 0.19136 0.19382 -0.40600
C 	C 	0.18336 0.54630 0.07967 -0.09100
C 	C 	0.14910 0.56214 0.09388 0.01500
C 	C 	0.12321 0.52410 0.11127 -0.07600
C 	C 	0.13151 0.47001 0.11475 0.04400
C 	C 	0.16792 0.45581 0.10149 -0.07700
C 	C 	0.19360 0.49356 0.08399 0.01500
C 	C 	0.10369 0.42896 0.13284 -0.05300
C 	C 	0.05083 0.40996 0.13410 -0.05400
C 	C 	0.02273 0.36199 0.14994 0.04600
C 	C 	0.98205 0.31057 0.14160 -0.07700
C 	C 	0.96166 0.26074 0.15553 0.02200
C 	C 	0.98175 0.26223 0.17790 -0.09000
C 	C 	0.01843 0.31589 0.18690 0.01500
C 	C 	0.03874 0.36565 0.17301 -0.07700
H 	H 	0.14195 0.60349 0.09127 0.03500
H 	H 	0.09667 0.53661 0.12199 0.04600
H 	H 	0.17556 0.41488 0.10445 0.04500
H 	H 	0.22055 0.48109 0.07353 0.03100
H 	H 	0.12605 0.40963 0.14383 0.04100
H 	H 	0.02800 0.42544 0.12186 0.04300
H 	H 	0.96829 0.30797 0.12400 0.04700
H 	H 	0.93289 0.21981 0.14845 0.03600
H 	H 	0.03344 0.31792 0.20429 0.00700
H 	H 	0.06851 0.40610 0.17990 0.04400
C 	C 	0.76610 0.98127 0.17177 -0.07700
C 	C 	0.76363 0.01308 0.15200 -0.00200
C 	C 	0.71985 0.99174 0.13702 -0.05700
C 	C 	0.67850 0.93817 0.14152 0.03700
C 	C 	0.68071 0.90671 0.16139 -0.07100
C 	C 	0.72439 0.92790 0.17634 0.00600
C 	C 	0.63149 0.91719 0.12611 -0.05000
C 	C 	0.61143 0.85988 0.11869 -0.05500
C 	C 	0.56201 0.83763 0.10477 0.04600
C 	C 	0.52278 0.78302 0.11005 -0.07800
C 	C 	0.47557 0.76196 0.09718 0.01600
C 	C 	0.46729 0.79531 0.07888 -0.09400
C 	C 	0.50718 0.84910 0.07317 0.02000
C 	C 	0.55450 0.86988 0.08591 -0.07700
H 	H 	0.79522 0.05461 0.14837 0.04100
H 	H 	0.71810 0.01681 0.12191 0.03800
H 	H 	0.64833 0.86617 0.16537 0.04200
H 	H 	0.72580 0.90278 0.19147 0.01400
H 	H 	0.61353 0.94904 0.12058 0.04000
H 	H 	0.62964 0.82823 0.12420 0.04100
H 	H 	0.52860 0.75729 0.12431 0.04400
H 	H 	0.44520 0.72017 0.10161 0.02200
H 	H 	0.50175 0.87447 0.05872 0.03300
H 	H 	0.58537 0.91084 0.08108 0.04800
C 	C 	0.03056 0.02462 0.17234 -0.10100
C 	C 	0.03383 0.03522 0.14885 0.01300
C 	C 	0.04671 0.99647 0.13417 -0.06400
C 	C 	0.05647 0.94673 0.14280 0.04200
C 	C 	0.05267 0.93569 0.16633 -0.07700
C 	C 	0.04037 0.97492 0.18106 0.02000
C 	C 	0.06854 0.90528 0.12688 -0.05200
C 	C 	0.10845 0.88576 0.13131 -0.05500
C 	C 	0.12838 0.85678 0.11321 0.04600
C 	C 	0.13497 0.80202 0.11724 -0.07700
C 	C 	0.15829 0.77715 0.10088 0.01400
C 	C 	0.17620 0.80758 0.08063 -0.09200
C 	C 	0.16857 0.86169 0.07639 0.02100
C 	C 	0.14487 0.88623 0.09261 -0.07800
H 	H 	0.02615 0.07337 0.14196 0.03600
H 	H 	0.04910 0.00510 0.11604 0.04000
H 	H 	0.05831 0.89632 0.17313 0.04500
H 	H 	0.03693 0.96570 0.19913 0.01900
H 	H 	0.04869 0.89631 0.11020 0.04300
H 	H 	0.12815 0.89363 0.14800 0.04000
H 	H 	0.12261 0.77912 0.13313 0.04400
H 	H 	0.16397 0.73529 0.10427 0.02000
H 	H 	0.18201 0.88533 0.06073 0.03200
H 	H 	0.14059 0.92892 0.08944 0.04800
C 	C 	0.49069 0.84684 0.36120 -0.08800
C 	C 	0.48540 0.86491 0.33888 0.01400
C 	C 	0.52984 0.90034 0.32729 -0.07600
C 	C 	0.58002 0.91824 0.33793 0.04500
C 	C 	0.58527 0.90051 0.36039 -0.07500
C 	C 	0.54087 0.86432 0.37184 0.02200
C 	C 	0.62639 0.95792 0.32573 -0.05100
C 	C 	0.67229 0.94817 0.32612 -0.05800
C 	C 	0.71524 0.98033 0.31070 0.05800
C 	C 	0.76777 0.00006 0.31885 -0.09400
C 	C 	0.80912 0.01685 0.30354 0.03200
C 	C 	0.79819 0.01307 0.27995 -0.10200
C 	C 	0.74600 0.99907 0.27195 0.02700
C 	C 	0.70465 0.98236 0.28721 -0.08100
H 	H 	0.44678 0.85215 0.33060 0.00800
H 	H 	0.52523 0.91416 0.31007 0.04300
H 	H 	0.62342 0.91581 0.36916 0.04900
H 	H 	0.54527 0.85166 0.38926 0.03800
H 	H 	0.62146 0.99199 0.31469 0.04100
H 	H 	0.67772 0.91471 0.33733 0.04400
H 	H 	0.77648 0.99936 0.33694 0.05600
H 	H 	0.84933 0.02816 0.30994 0.03100
H 	H 	0.73715 0.99662 0.25378 0.02400
H 	H 	0.66434 0.96720 0.28063 0.04800
C 	C 	0.24891 0.49632 0.38533 -0.09400
C 	C 	0.26538 0.49564 0.36283 0.02200
C 	C 	0.24816 0.44235 0.34993 -0.07800
C 	C 	0.21402 0.38936 0.35930 0.04700
C 	C 	0.19959 0.38929 0.38214 -0.07700
C 	C 	0.21671 0.44253 0.39506 0.02200
C 	C 	0.19341 0.33421 0.34501 -0.05400
C 	C 	0.14135 0.30253 0.34339 -0.05400
C 	C 	0.11935 0.25496 0.32572 0.04600
C 	C 	0.07903 0.20134 0.33119 -0.07800
C 	C 	0.05428 0.15861 0.31411 0.02000
C 	C 	0.06937 0.16941 0.29133 -0.09700
C 	C 	0.11017 0.22288 0.28596 0.01400
C 	C 	0.13470 0.26550 0.30299 -0.07900
H 	H 	0.29108 0.53646 0.35526 0.02600
H 	H 	0.26040 0.44255 0.33247 0.04400
H 	H 	0.17471 0.34818 0.38980 0.04800
H 	H 	0.20401 0.44214 0.41244 0.03400
H 	H 	0.22027 0.32301 0.33394 0.04100
H 	H 	0.11453 0.31282 0.35477 0.04300
H 	H 	0.06648 0.19304 0.34864 0.04700
H 	H 	0.02311 0.11752 0.31858 0.03700
H 	H 	0.12189 0.23225 0.26846 0.00700
H 	H 	0.16456 0.30750 0.29840 0.04400
C 	C 	0.94903 0.86609 0.26351 -0.09200
C 	C 	0.96681 0.83210 0.24832 0.01600
C 	C 	0.99777 0.80011 0.25637 -0.07900
C 	C 	0.01081 0.80135 0.27970 0.04700
C 	C 	0.99127 0.83356 0.29500 -0.07700
C 	C 	0.96023 0.86530 0.28696 0.02000
C 	C 	0.05056 0.77599 0.28753 -0.05400
C 	C 	0.04629 0.74846 0.30766 -0.05300
C 	C 	0.09217 0.73918 0.31881 0.04500
C 	C 	0.14199 0.78515 0.31927 -0.07700
C 	C 	0.18299 0.78044 0.33302 0.01600
C 	C 	0.17447 0.73037 0.34683 -0.09100
C 	C 	0.12538 0.68322 0.34560 0.01800
C 	C 	0.08444 0.68779 0.33172 -0.07700
H 	H 	0.95851 0.83242 0.23017 0.02400
H 	H 	0.01285 0.77574 0.24441 0.04500
H 	H 	0.00188 0.83599 0.31300 0.05000
H 	H 	0.94615 0.89069 0.29890 0.03800
H 	H 	0.08490 0.78238 0.27725 0.04000
H 	H 	0.00924 0.73513 0.31653 0.04200
H 	H 	0.14834 0.82562 0.30972 0.04600
H 	H 	0.22093 0.81659 0.33345 0.01300
H 	H 	0.11826 0.64402 0.35600 0.03900
H 	H 	0.04620 0.65215 0.33154 0.04700
C 	C 	0.41032 0.99586 0.44934 0.01100
C 	C 	0.45389 0.03996 0.43995 -0.04500
C 	C 	0.49086 0.08251 0.45415 -0.03800
C 	C 	0.48399 0.08182 0.47781 0.00500
C 	C 	0.43834 0.04054 0.48695 -0.04600
C 	C 	0.40132 0.99816 0.47275 -0.03400
C 	C 	0.52724 0.11846 0.49332 0.01300
C 	C 	0.55017 0.17781 0.49070 -0.15100
C 	C 	0.37811 0.94378 0.43510 0.01100
C 	C 	0.37228 0.88798 0.44151 -0.14900
H 	H 	0.46068 0.03920 0.42184 0.03800
H 	H 	0.52597 0.11414 0.44689 0.03700
H 	H 	0.43236 0.04014 0.50516 0.03800
H 	H 	0.36684 0.96555 0.48006 0.03700
H 	H 	0.53790 0.09731 0.50804 0.02400
H 	H 	0.53646 0.20004 0.47720 0.07400
H 	H 	0.36736 0.95144 0.41774 0.02900
H 	H 	0.38528 0.88065 0.45852 0.07200
C 	C 	0.06204 0.53924 0.46943 0.00500
C 	C 	0.04691 0.51639 0.49117 -0.03900
C 	C 	0.99348 0.49276 0.49645 -0.04200
C 	C 	0.95466 0.49110 0.47993 0.00600
C 	C 	0.96969 0.51460 0.45831 -0.04200
C 	C 	0.02303 0.53773 0.45294 -0.03800
C 	C 	0.89818 0.46550 0.48531 0.00700
C 	C 	0.87609 0.40779 0.49109 -0.15000
C 	C 	0.11842 0.55958 0.46339 0.01000
C 	C 	0.14011 0.60850 0.45078 -0.14500
H 	H 	0.07652 0.51674 0.50394 0.03600
H 	H 	0.98226 0.47562 0.51334 0.04100
H 	H 	0.94001 0.51371 0.44550 0.03800
H 	H 	0.03392 0.55327 0.43584 0.04100
H 	H 	0.87428 0.49348 0.48381 0.02500
H 	H 	0.90025 0.38002 0.49236 0.08100
H 	H 	0.14213 0.53365 0.46901 0.03100
H 	H 	0.11691 0.63538 0.44565 0.07000
C 	C 	0.50643 0.57219 0.45952 0.00600
C 	C 	0.53162 0.53979 0.44733 -0.04100
C 	C 	0.57046 0.52265 0.45807 -0.04000
C 	C 	0.58354 0.53655 0.48122 0.00300
C 	C 	0.55963 0.57075 0.49324 -0.03900
C 	C 	0.52095 0.58811 0.48249 -0.04100
C 	C 	0.61914 0.51121 0.49317 0.00800
C 	C 	0.60254 0.47633 0.51130 -0.15200
C 	C 	0.46259 0.58599 0.44857 0.00300
C 	C 	0.46191 0.64194 0.44914 -0.15100
H 	H 	0.52073 0.52736 0.42961 0.03700
H 	H 	0.58902 0.49670 0.44861 0.03200
H 	H 	0.57008 0.58255 0.51104 0.03900
H 	H 	0.50143 0.61268 0.49213 0.03500
H 	H 	0.65573 0.51394 0.48524 0.00900
H 	H 	0.56431 0.47055 0.51829 0.08000
H 	H 	0.43236 0.55089 0.43885 0.03500
H 	H 	0.49443 0.67786 0.45734 0.07600
C 	C 	0.92995 0.93166 0.64680 -0.10200
C 	C 	0.95821 0.98247 0.63434 0.02400
C 	C 	0.93190 0.01608 0.62356 -0.09600
C 	C 	0.87698 0.99911 0.62497 0.06200
C 	C 	0.84870 0.94866 0.63747 -0.08500
C 	C 	0.87494 0.91479 0.64821 0.02300
C 	C 	0.84929 0.03573 0.61429 -0.06600
C 	C 	0.85667 0.05145 0.59237 -0.05000
C 	C 	0.82953 0.08870 0.58184 0.04300
C 	C 	0.79744 0.06782 0.56225 -0.07800
C 	C 	0.77145 0.10285 0.55222 0.01700
C 	C 	0.77813 0.15957 0.56149 -0.09400
C 	C 	0.81141 0.18115 0.58074 0.01500
C 	C 	0.83692 0.14580 0.59092 -0.07700
H 	H 	0.00069 0.99663 0.63334 0.02900
H 	H 	0.95428 0.05581 0.61439 0.04900
H 	H 	0.80635 0.93555 0.63880 0.04800
H 	H 	0.85252 0.87564 0.65766 0.02900
H 	H 	0.82123 0.04819 0.62418 0.04100
H 	H 	0.88094 0.03445 0.58187 0.04100
H 	H 	0.79216 0.02418 0.55495 0.04600
H 	H 	0.74641 0.08608 0.53717 0.03100
H 	H 	0.81698 0.22495 0.58797 0.02500
H 	H 	0.86248 0.16276 0.60581 0.04500
C 	C 	0.19979 0.06829 0.65908 -0.09000
C 	C 	0.24359 0.10934 0.67094 0.01000
C 	C 	0.28900 0.14165 0.65928 -0.07600
C 	C 	0.29145 0.13271 0.63568 0.04300
C 	C 	0.24724 0.09330 0.62373 -0.07500
C 	C 	0.20171 0.06117 0.63533 0.01300
C 	C 	0.33972 0.16546 0.62321 -0.05300
C 	C 	0.38753 0.16849 0.63116 -0.05400
C 	C 	0.43435 0.19123 0.61678 0.04500
C 	C 	0.46782 0.15838 0.61472 -0.07800
C 	C 	0.51019 0.17726 0.60002 0.01600
C 	C 	0.51975 0.22950 0.58734 -0.09200
C 	C 	0.48787 0.26414 0.59033 0.02000
C 	C 	0.44553 0.24525 0.60508 -0.07700
H 	H 	0.24263 0.11608 0.68919 0.02600
H 	H 	0.32221 0.17361 0.66857 0.04400
H 	H 	0.24838 0.08698 0.60546 0.04600
H 	H 	0.16805 0.03062 0.62583 0.03700
H 	H 	0.33559 0.18164 0.60626 0.04200
H 	H 	0.39112 0.14797 0.64729 0.04000
H 	H 	0.46024 0.11739 0.62407 0.04300
H 	H 	0.53512 0.15079 0.59823 0.00900
H 	H 	0.49501 0.30484 0.58084 0.03800
H 	H 	0.42109 0.27217 0.60719 0.04700
C 	C 	0.06589 0.76137 0.64233 -0.08700
C 	C 	0.06918 0.76998 0.61870 0.02300
C 	C 	0.06184 0.72129 0.60389 -0.07500
C 	C 	0.05115 0.66391 0.61268 0.04500
C 	C 	0.05623 0.65739 0.63632 -0.07500
C 	C 	0.06296 0.70591 0.65111 0.01000
C 	C 	0.02570 0.61079 0.59772 -0.05200
C 	C 	0.97897 0.56993 0.60320 -0.05400
C 	C 	0.94413 0.52784 0.58598 0.04500
C 	C 	0.91303 0.47009 0.59264 -0.07800
C 	C 	0.86994 0.43526 0.57901 0.02000
C 	C 	0.85734 0.45803 0.55855 -0.09100
C 	C 	0.89132 0.51357 0.55088 0.01900
C 	C 	0.93412 0.54863 0.56463 -0.07600
H 	H 	0.07278 0.81311 0.61176 0.03700
H 	H 	0.06004 0.72728 0.58564 0.04700
H 	H 	0.05096 0.61383 0.64326 0.04300
H 	H 	0.06189 0.69924 0.66937 0.00900
H 	H 	0.04095 0.60981 0.58080 0.04100
H 	H 	0.96454 0.56993 0.62034 0.04000
H 	H 	0.92069 0.45333 0.60894 0.04400
H 	H 	0.84519 0.39168 0.58485 0.03400
H 	H 	0.88348 0.53058 0.53466 0.02800
H 	H 	0.95767 0.59317 0.55924 0.04700
C 	C 	0.00333 0.52312 0.97974 0.00900
C 	C 	0.95842 0.49515 0.99252 -0.04200
C 	C 	0.90821 0.47766 0.98216 -0.03900
C 	C 	0.90256 0.48680 0.95876 0.00500
C 	C 	0.94741 0.51567 0.94607 -0.03900
C 	C 	0.99763 0.53322 0.95643 -0.04300
C 	C 	0.84991 0.46546 0.94732 0.00700
C 	C 	0.81701 0.40857 0.94955 -0.14900
C 	C 	0.05627 0.53934 0.99069 0.00500
C 	C 	0.09249 0.59452 0.98859 -0.14800
H 	H 	0.96243 0.48717 0.01051 0.04000
H 	H 	0.87378 0.45672 0.99226 0.03500
H 	H 	0.94342 0.52325 0.92804 0.03800
H 	H 	0.03206 0.55385 0.94630 0.03600
H 	H 	0.84074 0.49408 0.93489 0.03700
H 	H 	0.82792 0.37888 0.96091 0.07300
H 	H 	0.06384 0.50779 0.00225 0.03800
H 	H 	0.08335 0.62738 0.97830 0.07300
C 	C 	0.44629 0.93062 0.97679 0.00500
C 	C 	0.49180 0.94003 0.96426 -0.04200
C 	C 	0.51364 0.99267 0.95200 -0.03400
C 	C 	0.49078 0.03709 0.95261 0.00100
C 	C 	0.44543 0.02777 0.96524 -0.04700
C 	C 	0.42358 0.97514 0.97747 -0.03400
C 	C 	0.51099 0.09064 0.93827 0.00700
C 	C 	0.56285 0.12268 0.93763 -0.15000
C 	C 	0.42527 0.87651 0.99079 0.00800
C 	C 	0.37330 0.84495 0.99100 -0.14900
H 	H 	0.51000 0.90635 0.96385 0.03900
H 	H 	0.54779 0.99853 0.94177 0.03900
H 	H 	0.42719 0.06142 0.96564 0.03800
H 	H 	0.38937 0.96924 0.98766 0.03800
H 	H 	0.48317 0.10322 0.92776 0.04300
H 	H 	0.59051 0.11090 0.94851 0.06900
H 	H 	0.45230 0.86407 0.00185 0.04100
H 	H 	0.34652 0.85646 0.97949 0.07000
C 	C 	0.40625 0.49359 0.97222 0.00500
C 	C 	0.41592 0.44311 0.98016 -0.04100
C 	C 	0.45180 0.42282 0.96914 -0.04100
C 	C 	0.47761 0.45225 0.94978 0.00600
C 	C 	0.46690 0.50180 0.94150 -0.04100
C 	C 	0.43095 0.52197 0.95249 -0.04100
C 	C 	0.51910 0.43466 0.93920 0.00200
C 	C 	0.51019 0.37728 0.93317 -0.14800
C 	C 	0.37020 0.51651 0.98467 0.00300
C 	C 	0.38472 0.57506 0.99030 -0.14800
H 	H 	0.39665 0.42048 0.99521 0.03700
H 	H 	0.46036 0.38511 0.97592 0.03600
H 	H 	0.48658 0.52482 0.92660 0.03800
H 	H 	0.42260 0.55987 0.94577 0.03600
H 	H 	0.55595 0.46962 0.93498 0.02900
H 	H 	0.47246 0.34282 0.93664 0.07800
H 	H 	0.33364 0.48463 0.99086 0.03100
H 	H 	0.42257 0.60618 0.98499 0.07800
C 	C 	0.96291 0.05789 0.75360 -0.08500
C 	C 	0.91057 0.02290 0.75808 0.01000
C 	C 	0.88167 0.04409 0.77306 -0.07200
C 	C 	0.90489 0.10035 0.78384 0.04300
C 	C 	0.95731 0.13565 0.77922 -0.07400
C 	C 	0.98592 0.11478 0.76392 0.01700
C 	C 	0.87556 0.11907 0.80149 -0.05200
C 	C 	0.87634 0.17556 0.80294 -0.05600
C 	C 	0.84149 0.19091 0.81876 0.04700
C 	C 	0.86306 0.23081 0.83711 -0.07800
C 	C 	0.83003 0.24085 0.85339 0.02300
C 	C 	0.77512 0.21125 0.85127 -0.09600
C 	C 	0.75362 0.17365 0.83225 0.01800
C 	C 	0.78663 0.16353 0.81610 -0.08000
H 	H 	0.89254 0.97886 0.75021 0.02900
H 	H 	0.84143 0.01634 0.77661 0.04300
H 	H 	0.97639 0.17827 0.78799 0.04600
H 	H 	0.02657 0.14181 0.76077 0.02800
H 	H 	0.84953 0.08504 0.81229 0.04300
H 	H 	0.90187 0.21015 0.79223 0.04000
H 	H 	0.90540 0.25270 0.83913 0.04800
H 	H 	0.84722 0.27042 0.86785 0.03900
H 	H 	0.71130 0.15176 0.83010 0.00500
H 	H 	0.76962 0.13359 0.80170 0.04400
C 	C 	0.47415 0.15642 0.84573 -0.09500
C 	C 	0.46576 0.18704 0.82659 0.01500
C 	C 	0.42575 0.15776 0.81054 -0.07800
C 	C 	0.39329 0.09799 0.81370 0.04600
C 	C 	0.40126 0.06756 0.83298 -0.07800
C 	C 	0.44133 0.09671 0.84897 0.01900
C 	C 	0.35212 0.06699 0.79637 -0.05600
C 	C 	0.30161 0.04037 0.80223 -0.05000
C 	C 	0.25846 0.01928 0.78473 0.03600
C 	C 	0.21380 0.96855 0.78886 -0.06700
C 	C 	0.16897 0.95417 0.77448 0.01800
C 	C 	0.16848 0.99058 0.75588 -0.08700
C 	C 	0.21430 0.03893 0.75092 0.01000
C 	C 	0.25865 0.05392 0.76545 -0.07000
H 	H 	0.49100 0.23298 0.82386 0.02200
H 	H 	0.41999 0.18149 0.79565 0.04400
H 	H 	0.37686 0.02116 0.83542 0.04600
H 	H 	0.44716 0.07273 0.86377 0.03200
H 	H 	0.36249 0.07012 0.77852 0.03900
H 	H 	0.29173 0.03562 0.82014 0.04100
H 	H 	0.21315 0.94152 0.80367 0.04600
H 	H 	0.13392 0.91655 0.77844 0.03600
H 	H 	0.21458 0.06684 0.73642 0.02600
H 	H 	0.29212 0.09411 0.76231 0.04400
C 	C 	0.74514 0.45503 0.85907 -0.09400
C 	C 	0.80053 0.47955 0.85981 0.02000
C 	C 	0.82709 0.52855 0.84639 -0.07700
C 	C 	0.79873 0.55302 0.83182 0.04500
C 	C 	0.74337 0.52802 0.83074 -0.07700
C 	C 	0.71670 0.47921 0.84431 0.01600
C 	C 	0.82710 0.60721 0.81885 -0.05400
C 	C 	0.82085 0.60794 0.79607 -0.05300
C 	C 	0.85019 0.66149 0.78287 0.04300
C 	C 	0.82376 0.68108 0.76567 -0.07700
C 	C 	0.85171 0.72826 0.75172 0.01400
C 	C 	0.90660 0.75611 0.75470 -0.09000
C 	C 	0.93300 0.73740 0.77221 0.01300
C 	C 	0.90504 0.68994 0.78612 -0.07500
H 	H 	0.82299 0.46183 0.87131 0.03900
H 	H 	0.86975 0.54780 0.84746 0.04600
H 	H 	0.72103 0.54709 0.81975 0.04600
H 	H 	0.67400 0.46071 0.84355 0.02600
H 	H 	0.85542 0.64557 0.82784 0.04300
H 	H 	0.79216 0.56964 0.78717 0.04000
H 	H 	0.78157 0.65934 0.76296 0.04400
H 	H 	0.83074 0.74274 0.73844 0.03000
H 	H 	0.97536 0.75826 0.77459 0.02900
H 	H 	0.92617 0.67430 0.79897 0.04500
