data_crystal

_cell_length_a 16.79477
_cell_length_b 19.44445
_cell_length_c 47.74339
_cell_angle_alpha 89.64360
_cell_angle_beta  89.64929
_cell_angle_gamma 119.43218

_symmetry_space_group_name_	'P 1'
_symmetry_space_group_name_H-M	'P 1'

loop_
_symmetry_equiv_pos_as_xyz
  x,y,z

loop_
_atom_site_label
_atom_site_type_symbol
_atom_site_fract_x
_atom_site_fract_y
_atom_site_fract_z
_atom_site_charge
C 	C 	0.01226 0.07826 0.67236 0.32400
O 	O 	0.99016 0.14044 0.73136 -0.38300
H 	H 	0.91142 0.41495 0.13771 0.06000
C 	C 	0.97494 0.76936 0.03006 0.11400
C 	C 	0.98280 0.89993 0.08503 -0.00500
H 	H 	0.96637 0.66860 0.01161 0.09000
H 	H 	0.16669 0.98913 0.37090 0.07400
H 	H 	0.12764 0.73802 0.33304 0.08300
H 	H 	0.15036 0.79242 0.30082 0.09100
H 	H 	0.02358 0.62771 0.46287 0.08400
C 	C 	0.03541 0.10832 0.64330 -0.11700
C 	C 	0.06492 0.07155 0.62348 0.13400
C 	C 	0.01057 0.16360 0.63407 -0.01200
N 	N 	0.10697 0.03059 0.63175 -0.19400
H 	H 	0.13084 0.03504 0.65210 0.10700
C 	C 	0.99949 0.49858 0.00442 -0.10100
N 	N 	0.01995 0.43597 0.96373 -0.19500
N 	N 	0.89114 0.21669 0.86780 -0.19200
H 	H 	0.98403 0.34111 0.79122 0.05300
N 	N 	0.99365 0.28392 0.74241 -0.20500
H 	H 	0.99331 0.19548 0.64931 0.04000
N 	N 	0.94056 0.53136 0.10303 -0.21000
H 	H 	0.95619 0.58100 0.09064 0.08600
C 	C 	0.97873 0.87895 0.05511 -0.00700
C 	C 	0.05323 0.53958 0.47558 0.10700
H 	H 	0.05833 0.38164 0.50540 0.05600
H 	H 	0.15667 0.86594 0.19602 0.09700
H 	H 	0.88959 0.20034 0.88877 0.08200
N 	N 	0.17400 0.77164 0.31719 -0.19200
H 	H 	0.98160 0.26088 0.72221 0.10000
H 	H 	0.18042 0.78760 0.20394 0.08400
H 	H 	0.95765 0.08029 0.87400 0.04900
H 	H 	0.04012 0.34399 0.74474 0.08600
C 	C 	0.08093 0.43564 0.49341 -0.04600
C 	C 	0.15468 0.96372 0.23305 0.26500
O 	O 	0.04571 0.04387 0.17631 -0.37900
H 	H 	0.16690 0.19317 0.31054 0.09500
N 	N 	0.18400 0.84089 0.20961 -0.20400
H 	H 	0.92251 0.19774 0.85317 0.08400
O 	O 	0.10899 0.19760 0.25900 -0.37100
C 	C 	0.02935 0.18630 0.20116 0.32600
H 	H 	0.95306 0.26510 0.22474 0.03500
N 	N 	0.12751 0.22110 0.53762 -0.19400
C 	C 	0.98854 0.04212 0.83506 0.11700
H 	H 	0.95849 0.25719 0.61192 0.08100
H 	H 	0.91664 0.36841 0.22964 0.08000
C 	C 	0.05246 0.07930 0.59480 -0.10200
C 	C 	0.00076 0.17352 0.60544 0.06000
H 	H 	0.12316 0.99926 0.61721 0.06700
C 	C 	0.00807 0.96808 0.17129 0.31300
C 	C 	0.99843 0.94199 0.14195 -0.13200
H 	H 	0.07549 0.04167 0.25270 0.16200
H 	H 	0.98024 0.69428 0.67298 0.08100
C 	C 	0.02233 0.46743 0.49045 -0.09000
C 	C 	0.72243 0.35224 0.89099 0.29900
C 	C 	0.35547 0.25776 0.94024 0.31900
C 	C 	0.54666 0.41838 0.87592 0.31400
C 	C 	0.51326 0.17850 0.95823 0.29500
C 	C 	0.55382 0.49528 0.95836 0.31000
C 	C 	0.72768 0.42095 0.98003 0.29100
Ni	Ni	0.51875 0.27513 0.90797 1.11200
Ni	Ni	0.52884 0.33794 0.97141 1.12000
Ni	Ni	0.67072 0.45336 0.92465 1.12000
O 	O 	0.63587 0.31297 0.88272 -0.37400
O 	O 	0.75044 0.40939 0.90990 -0.38600
O 	O 	0.56018 0.45068 0.97805 -0.39000
O 	O 	0.39041 0.21977 0.92696 -0.38900
O 	O 	0.40651 0.31829 0.95621 -0.39100
O 	O 	0.73149 0.47646 0.96276 -0.38100
O 	O 	0.48433 0.34928 0.88587 -0.38700
O 	O 	0.63207 0.44965 0.88418 -0.38800
O 	O 	0.64819 0.36236 0.98933 -0.38600
O 	O 	0.54136 0.19643 0.93173 -0.37800
O 	O 	0.48130 0.21856 0.97264 -0.37700
O 	O 	0.59643 0.50580 0.93414 -0.39200
O 	O 	0.58332 0.34895 0.93548 -0.72100
H 	H 	0.62642 0.33033 0.94033 0.15000
C 	C 	0.84678 0.20734 0.51469 0.29300
C 	C 	0.64074 0.34940 0.46053 0.31200
C 	C 	0.92645 0.42004 0.50045 0.30300
C 	C 	0.58303 0.13941 0.47415 0.30100
C 	C 	0.69371 0.40225 0.55152 0.32000
C 	C 	0.59798 0.19112 0.56718 0.30200
Ni	Ni	0.76723 0.28443 0.47504 1.11200
Ni	Ni	0.59589 0.26401 0.51375 1.11900
Ni	Ni	0.78583 0.31042 0.54256 1.12000
O 	O 	0.85859 0.24917 0.49121 -0.37300
O 	O 	0.81428 0.22141 0.53821 -0.38200
O 	O 	0.61489 0.33989 0.54530 -0.39600
O 	O 	0.68922 0.31869 0.45036 -0.37100
O 	O 	0.63461 0.35640 0.48748 -0.39100
O 	O 	0.68385 0.24843 0.57158 -0.38900
O 	O 	0.86034 0.40163 0.48256 -0.38000
O 	O 	0.91071 0.37881 0.52385 -0.37900
O 	O 	0.56049 0.17746 0.54213 -0.39800
O 	O 	0.66878 0.17040 0.46519 -0.37400
O 	O 	0.54774 0.18480 0.48155 -0.38800
O 	O 	0.77157 0.40643 0.54446 -0.39700
O 	O 	0.71102 0.26884 0.51057 -0.71500
H 	H 	0.69110 0.21257 0.51362 0.15400
C 	C 	0.04821 0.02082 0.78959 0.31900
C 	C 	0.87164 0.82923 0.68998 0.31200
C 	C 	0.14428 0.98211 0.71775 0.29100
C 	C 	0.76423 0.84804 0.75641 0.29800
C 	C 	0.90570 0.11106 0.74175 0.29200
Ni	Ni	0.96066 0.89199 0.74578 1.10800
Ni	Ni	0.85989 0.96825 0.70903 1.11000
Ni	Ni	0.06194 0.08143 0.73140 1.12700
O 	O 	0.04605 0.95705 0.77878 -0.39100
O 	O 	0.06608 0.08327 0.77375 -0.37900
O 	O 	0.93057 0.05908 0.68225 -0.38700
O 	O 	0.87520 0.81066 0.71633 -0.38200
O 	O 	0.88701 0.90025 0.68298 -0.40400
O 	O 	0.07397 0.91128 0.72192 -0.38000
O 	O 	0.15295 0.04146 0.73300 -0.36400
O 	O 	0.83746 0.04301 0.73261 -0.37400
O 	O 	0.84146 0.86068 0.76832 -0.38700
O 	O 	0.76226 0.86957 0.72992 -0.38700
O 	O 	0.07828 0.08906 0.68952 -0.39400
O 	O 	0.95434 0.98107 0.73358 -0.72900
H 	H 	0.92807 0.98954 0.75080 0.13400
C 	C 	0.40924 0.74248 0.36600 0.30200
C 	C 	0.68997 0.76618 0.44314 0.32100
C 	C 	0.55082 0.66157 0.35917 0.32600
C 	C 	0.51643 0.83736 0.45555 0.28300
C 	C 	0.48978 0.53698 0.43514 0.31200
C 	C 	0.28774 0.58109 0.45071 0.29200
Ni	Ni	0.56935 0.78222 0.40215 1.10900
Ni	Ni	0.49357 0.67690 0.45914 1.12000
Ni	Ni	0.40120 0.60293 0.40013 1.12000
O 	O 	0.46519 0.79410 0.38431 -0.39200
O 	O 	0.37685 0.66437 0.36883 -0.37900
O 	O 	0.53229 0.59557 0.45263 -0.38900
O 	O 	0.66551 0.75491 0.41696 -0.39600
O 	O 	0.62993 0.75683 0.46270 -0.38300
O 	O 	0.29167 0.58611 0.42287 -0.38600
O 	O 	0.57708 0.73622 0.36333 -0.39500
O 	O 	0.50893 0.60943 0.37898 -0.40300
O 	O 	0.36003 0.59368 0.46603 -0.38100
O 	O 	0.58285 0.85271 0.43701 -0.37400
O 	O 	0.47138 0.76761 0.46848 -0.38100
O 	O 	0.41123 0.52247 0.42436 -0.39400
O 	O 	0.47468 0.69493 0.42084 -0.71700
H 	H 	0.42940 0.71271 0.42345 0.16000
C 	C 	0.09542 0.56107 0.00473 0.30000
C 	C 	0.38914 0.88396 0.01491 0.32000
C 	C 	0.35807 0.64678 0.99848 0.30900
C 	C 	0.13459 0.79933 0.02430 0.29700
C 	C 	0.37990 0.73076 0.08749 0.31800
C 	C 	0.13760 0.63443 0.09491 0.30800
Ni	Ni	0.24425 0.72772 0.99744 1.11100
Ni	Ni	0.26610 0.78535 0.06202 1.12000
Ni	Ni	0.24061 0.61498 0.04862 1.12100
O 	O 	0.11895 0.62799 0.99109 -0.37600
O 	O 	0.15791 0.54782 0.01678 -0.37900
O 	O 	0.38195 0.78569 0.07108 -0.40200
O 	O 	0.37563 0.81840 0.00352 -0.38900
O 	O 	0.33897 0.88170 0.03655 -0.38500
O 	O 	0.13352 0.58880 0.07380 -0.39300
O 	O 	0.29889 0.65762 0.98389 -0.37700
O 	O 	0.35615 0.64728 0.02595 -0.38600
O 	O 	0.19638 0.71216 0.09510 -0.38900
O 	O 	0.18806 0.80306 0.00287 -0.37500
O 	O 	0.15584 0.79383 0.05068 -0.38300
O 	O 	0.32125 0.65579 0.08288 -0.38800
O 	O 	0.22848 0.70230 0.03582 -0.71400
H 	H 	0.16182 0.67985 0.03759 0.15600
C 	C 	0.95825 0.96460 0.29370 0.26700
C 	C 	0.80762 0.95849 0.23306 0.28700
C 	C 	0.19233 0.20503 0.25690 0.30000
Ni	Ni	0.98161 0.09416 0.25426 1.11000
Ni	Ni	0.12690 0.09433 0.20925 1.12100
Ni	Ni	0.96442 0.93053 0.23186 1.11200
O 	O 	0.98806 0.04162 0.29146 -0.36000
O 	O 	0.91657 0.91577 0.27244 -0.38100
O 	O 	0.96081 0.13399 0.21625 -0.39100
O 	O 	0.10966 0.18995 0.20228 -0.38400
O 	O 	0.07079 0.91756 0.24302 -0.38200
O 	O 	0.84448 0.00633 0.25421 -0.35600
O 	O 	0.85672 0.93857 0.21718 -0.39100
O 	O 	0.17112 0.01353 0.21163 -0.36300
O 	O 	0.20950 0.15847 0.24066 -0.38600
O 	O 	0.99374 0.91715 0.19169 -0.40000
O 	O 	0.03640 0.04103 0.23730 -0.70700
C 	C 	0.09301 0.59516 0.12140 -0.11800
C 	C 	0.00257 0.53167 0.12122 0.15000
C 	C 	0.97767 0.46755 0.13959 -0.12100
C 	C 	0.04119 0.46859 0.15874 0.01300
C 	C 	0.12367 0.53980 0.16302 0.05500
C 	C 	0.14850 0.60330 0.14437 -0.01700
C 	C 	0.03080 0.39271 0.16894 0.00800
N 	N 	0.18035 0.54641 0.18430 -0.19100
H 	H 	0.21506 0.65545 0.14602 0.04600
C 	C 	0.06635 0.35421 0.15258 -0.09800
C 	C 	0.06010 0.28306 0.16176 0.13300
C 	C 	0.02249 0.25256 0.18857 -0.11000
C 	C 	0.98358 0.28940 0.20443 -0.02300
C 	C 	0.98660 0.35893 0.19474 0.04800
H 	H 	0.09788 0.37925 0.13244 0.06000
N 	N 	0.08722 0.24305 0.14441 -0.20500
N 	N 	0.94831 0.39344 0.21046 -0.19100
H 	H 	0.11879 0.26778 0.12518 0.08700
H 	H 	0.07269 0.18548 0.14905 0.10300
H 	H 	0.94891 0.44491 0.20378 0.08300
H 	H 	0.24289 0.59818 0.18668 0.08200
H 	H 	0.16157 0.50130 0.19917 0.08800
H 	H 	0.87479 0.48267 0.10201 0.08300
C 	C 	0.42167 0.75356 0.11528 -0.12100
C 	C 	0.49316 0.73944 0.12355 0.13000
C 	C 	0.53239 0.76430 0.15006 -0.10000
C 	C 	0.50106 0.80248 0.16832 0.00300
C 	C 	0.42498 0.81072 0.16084 0.05200
C 	C 	0.38874 0.78953 0.13392 -0.02000
N 	N 	0.52646 0.70465 0.10592 -0.20600
H 	H 	0.59023 0.75724 0.15599 0.05800
C 	C 	0.55832 0.84601 0.19241 -0.00400
N 	N 	0.38633 0.83864 0.17944 -0.19200
H 	H 	0.33381 0.80011 0.12760 0.03000
C 	C 	0.60986 0.92863 0.19079 -0.09000
C 	C 	0.68458 0.96992 0.20847 0.10400
C 	C 	0.71076 0.92731 0.22669 -0.10800
C 	C 	0.65035 0.84680 0.23162 -0.02800
C 	C 	0.57325 0.80566 0.21471 0.06000
H 	H 	0.59465 0.96032 0.17484 0.04900
N 	N 	0.73231 0.05009 0.20740 -0.18800
H 	H 	0.66709 0.81500 0.24712 0.03700
N 	N 	0.51460 0.72777 0.21974 -0.19300
H 	H 	0.71619 0.08125 0.19267 0.09300
H 	H 	0.78222 0.08215 0.22219 0.10000
H 	H 	0.52771 0.69765 0.23566 0.08300
H 	H 	0.45380 0.69732 0.20862 0.08400
H 	H 	0.33273 0.84803 0.17336 0.08000
H 	H 	0.40660 0.84820 0.20035 0.08400
H 	H 	0.50084 0.68774 0.08575 0.09600
H 	H 	0.57944 0.69469 0.11224 0.08400
C 	C 	0.06373 0.82140 0.01983 -0.10000
C 	C 	0.93273 0.79860 0.04828 -0.09200
C 	C 	0.04897 0.93180 0.03681 0.05100
C 	C 	0.09162 0.90221 0.01890 -0.02500
N 	N 	0.93496 0.69083 0.02493 -0.20400
H 	H 	0.87169 0.75794 0.05991 0.05300
N 	N 	0.08090 0.01074 0.03836 -0.18100
H 	H 	0.15424 0.94269 0.00790 0.03700
C 	C 	0.05382 0.90298 0.10119 -0.09300
C 	C 	0.06401 0.92608 0.12923 0.13600
C 	C 	0.92554 0.93670 0.12606 -0.01900
C 	C 	0.91720 0.91604 0.09756 0.05100
H 	H 	0.10315 0.88943 0.09158 0.06100
N 	N 	0.13814 0.93489 0.14355 -0.20800
H 	H 	0.87567 0.94935 0.13578 0.03800
N 	N 	0.84671 0.91221 0.08248 -0.19300
H 	H 	0.18351 0.91907 0.13443 0.07900
H 	H 	0.15401 0.96089 0.16318 0.09300
H 	H 	0.79834 0.92382 0.09196 0.07900
H 	H 	0.83920 0.89782 0.06127 0.08000
H 	H 	0.13620 0.05019 0.02590 0.08800
H 	H 	0.04926 0.03317 0.05148 0.09600
H 	H 	0.87089 0.65174 0.03354 0.08600
C 	C 	0.95002 0.93096 0.32202 -0.11100
C 	C 	0.86332 0.88327 0.33487 0.12500
C 	C 	0.85872 0.85921 0.36286 -0.09800
C 	C 	0.93810 0.88769 0.37898 -0.01000
C 	C 	0.02473 0.93213 0.36594 0.06100
C 	C 	0.02986 0.95318 0.33746 -0.02100
N 	N 	0.78446 0.86342 0.32097 -0.20700
H 	H 	0.79251 0.82294 0.37276 0.05900
C 	C 	0.92796 0.87794 0.40982 0.00500
N 	N 	0.10288 0.95497 0.38055 -0.19400
H 	H 	0.09615 0.98864 0.32749 0.03300
C 	C 	0.90677 0.80435 0.42151 -0.10300
C 	C 	0.83824 0.77064 0.44233 0.13000
C 	C 	0.78799 0.80879 0.44905 -0.12300
C 	C 	0.83259 0.89098 0.44548 -0.01900
C 	C 	0.90234 0.92628 0.42507 0.03400
H 	H 	0.93454 0.76984 0.41218 0.05200
N 	N 	0.81489 0.69893 0.45361 -0.20600
H 	H 	0.80291 0.92441 0.45450 0.03700
N 	N 	0.93884 0.00415 0.41865 -0.17800
H 	H 	0.85069 0.66962 0.44808 0.08200
H 	H 	0.76199 0.67269 0.46843 0.09500
H 	H 	0.91675 0.03891 0.42911 0.08900
H 	H 	0.99151 0.03117 0.40381 0.09200
H 	H 	0.10112 0.93773 0.40140 0.08200
H 	H 	0.78431 0.89049 0.30207 0.10200
H 	H 	0.72130 0.82366 0.32994 0.09200
C 	C 	0.55372 0.63384 0.33089 -0.12600
C 	C 	0.59136 0.58380 0.32692 0.13400
C 	C 	0.54916 0.52041 0.30836 -0.10100
C 	C 	0.47295 0.50956 0.29304 0.00100
C 	C 	0.45055 0.57079 0.29218 0.05600
C 	C 	0.49219 0.63337 0.31110 -0.02200
N 	N 	0.66530 0.59452 0.34174 -0.20500
H 	H 	0.57116 0.47656 0.30740 0.05700
C 	C 	0.40588 0.42897 0.28407 0.00200
N 	N 	0.38727 0.56832 0.27399 -0.19300
H 	H 	0.46890 0.67625 0.31252 0.04700
C 	C 	0.33779 0.37875 0.30314 -0.09500
C 	C 	0.27141 0.30244 0.29535 0.12700
C 	C 	0.27067 0.27758 0.26754 -0.10700
C 	C 	0.34113 0.32653 0.24883 -0.02000
C 	C 	0.40923 0.40197 0.25689 0.05700
H 	H 	0.33705 0.39893 0.32422 0.05600
N 	N 	0.21046 0.25272 0.31482 -0.20400
H 	H 	0.34124 0.30692 0.22761 0.04300
N 	N 	0.47640 0.44848 0.23831 -0.19200
H 	H 	0.20919 0.27255 0.33503 0.08600
H 	H 	0.47777 0.42823 0.21819 0.08200
H 	H 	0.52802 0.50484 0.24364 0.08400
H 	H 	0.36889 0.61247 0.27409 0.08300
H 	H 	0.35840 0.52426 0.25892 0.08700
H 	H 	0.70059 0.64410 0.35434 0.09100
H 	H 	0.69028 0.55498 0.33991 0.08500
C 	C 	0.38113 0.77222 0.34170 -0.11000
C 	C 	0.44485 0.81883 0.32043 0.12200
C 	C 	0.41478 0.84426 0.29735 -0.10100
C 	C 	0.32620 0.83353 0.29695 0.00300
C 	C 	0.26199 0.78634 0.31790 0.05800
C 	C 	0.28987 0.75472 0.33980 -0.02400
N 	N 	0.53515 0.84171 0.32253 -0.20300
H 	H 	0.46296 0.87885 0.28087 0.05500
C 	C 	0.30454 0.87879 0.27638 -0.00700
H 	H 	0.24097 0.71829 0.35584 0.04200
C 	C 	0.26525 0.84383 0.25087 -0.09400
C 	C 	0.22570 0.87741 0.23370 0.12000
C 	C 	0.22680 0.94743 0.24221 -0.09200
C 	C 	0.27894 0.98860 0.26533 -0.06900
C 	C 	0.31665 0.95426 0.28291 0.07300
H 	H 	0.26100 0.78825 0.24513 0.05400
H 	H 	0.28302 0.04411 0.27110 0.06700
N 	N 	0.36197 0.99286 0.30632 -0.21000
H 	H 	0.36835 0.04760 0.31132 0.10000
H 	H 	0.39256 0.96980 0.31953 0.08400
H 	H 	0.56478 0.84469 0.34187 0.08400
H 	H 	0.57870 0.86580 0.30516 0.08200
C 	C 	0.52813 0.00875 0.49572 -0.00200
C 	C 	0.52441 0.05352 0.47321 -0.11800
C 	C 	0.48997 0.01644 0.44735 0.15600
C 	C 	0.47760 0.94056 0.44285 -0.09600
C 	C 	0.49953 0.90195 0.46382 -0.06800
C 	C 	0.51962 0.93415 0.49115 0.06600
N 	N 	0.53418 0.89570 0.51272 -0.19500
H 	H 	0.54888 0.03581 0.51612 0.04100
H 	H 	0.45657 0.91373 0.42244 0.05500
N 	N 	0.47155 0.05439 0.42654 -0.20700
H 	H 	0.54454 0.91855 0.53296 0.07400
H 	H 	0.53773 0.84428 0.50971 0.09500
H 	H 	0.47655 0.10941 0.42985 0.09800
H 	H 	0.44913 0.02788 0.40705 0.09400
C 	C 	0.13997 0.57550 0.46244 -0.04500
C 	C 	0.19642 0.54120 0.46429 -0.08900
C 	C 	0.16515 0.46904 0.47916 0.10900
N 	N 	0.21318 0.42948 0.47864 -0.20000
H 	H 	0.16404 0.63086 0.45113 0.04700
N 	N 	0.00191 0.57610 0.47474 -0.19600
H 	H 	0.19226 0.37880 0.49098 0.08200
H 	H 	0.26741 0.44500 0.46463 0.10500
H 	H 	0.94238 0.55578 0.48682 0.09400
C 	C 	0.65450 0.45863 0.43061 -0.04100
C 	C 	0.59924 0.38266 0.44165 -0.09700
C 	C 	0.50329 0.35060 0.44187 0.10500
C 	C 	0.46623 0.40066 0.43762 -0.04100
C 	C 	0.52365 0.48059 0.43107 -0.09600
C 	C 	0.61697 0.50758 0.42466 0.11200
N 	N 	0.66996 0.57930 0.41239 -0.20100
H 	H 	0.72766 0.48175 0.42858 0.04600
H 	H 	0.39346 0.37814 0.44056 0.04800
N 	N 	0.44694 0.27218 0.44638 -0.20500
H 	H 	0.73806 0.59789 0.40707 0.08500
H 	H 	0.64297 0.61546 0.40678 0.11000
H 	H 	0.47238 0.23288 0.44618 0.09600
H 	H 	0.37629 0.24926 0.44822 0.08400
C 	C 	0.01707 0.12742 0.58571 0.01100
H 	H 	0.06887 0.04681 0.57960 0.06200
C 	C 	0.98392 0.11990 0.55668 -0.01200
N 	N 	0.97296 0.22539 0.59711 -0.19300
C 	C 	0.89154 0.06702 0.55152 -0.08600
C 	C 	0.84521 0.08594 0.53121 0.12500
C 	C 	0.89192 0.15931 0.51711 -0.10200
C 	C 	0.98780 0.19811 0.51634 -0.04000
C 	C 	0.03484 0.17930 0.53654 0.07400
H 	H 	0.85384 0.01628 0.56523 0.06100
N 	N 	0.75480 0.03692 0.52687 -0.18800
H 	H 	0.02512 0.24841 0.50247 0.04900
H 	H 	0.71926 0.98406 0.53820 0.06500
H 	H 	0.72010 0.04997 0.51148 0.09600
H 	H 	0.16470 0.26707 0.52335 0.08000
H 	H 	0.16338 0.20647 0.55207 0.08600
H 	H 	0.96712 0.23599 0.57600 0.09300
C 	C 	0.53906 0.14940 0.59163 -0.10700
C 	C 	0.46313 0.15924 0.59905 0.12400
C 	C 	0.41271 0.12271 0.62340 -0.09100
C 	C 	0.43293 0.07344 0.63975 -0.00600
C 	C 	0.50699 0.06175 0.63211 0.06200
C 	C 	0.56038 0.10103 0.60831 -0.02400
N 	N 	0.43822 0.20358 0.58303 -0.20200
H 	H 	0.35554 0.13103 0.62931 0.05800
C 	C 	0.37210 0.03134 0.66389 0.04000
N 	N 	0.52763 0.01366 0.64755 -0.17900
H 	H 	0.61818 0.09339 0.60264 0.04300
C 	C 	0.28704 0.96535 0.65849 -0.14000
C 	C 	0.21068 0.94860 0.67534 0.13800
C 	C 	0.22306 0.99189 0.70039 -0.14400
C 	C 	0.31204 0.04836 0.70822 0.01500
C 	C 	0.38658 0.06913 0.69001 0.04200
H 	H 	0.27741 0.93400 0.63899 0.05900
N 	N 	0.12583 0.89625 0.66612 -0.20800
H 	H 	0.32297 0.07812 0.72813 0.04300
N 	N 	0.47146 0.12632 0.69745 -0.18800
H 	H 	0.11811 0.85786 0.64983 0.08500
H 	H 	0.06861 0.90041 0.67214 0.09800
H 	H 	0.48139 0.15600 0.71639 0.08400
H 	H 	0.52862 0.14020 0.68489 0.08800
H 	H 	0.58237 0.00533 0.64173 0.08500
H 	H 	0.48997 0.98436 0.66547 0.06500
H 	H 	0.46955 0.22777 0.56388 0.08700
H 	H 	0.38441 0.21257 0.58942 0.08500
C 	C 	0.69511 0.46529 0.56884 -0.11600
C 	C 	0.65815 0.44984 0.59647 0.12900
C 	C 	0.67239 0.51319 0.61356 -0.10000
C 	C 	0.72915 0.59117 0.60458 0.00100
C 	C 	0.76143 0.60673 0.57656 0.05600
C 	C 	0.74331 0.54342 0.55886 -0.01800
N 	N 	0.61335 0.37515 0.60721 -0.20700
H 	H 	0.64563 0.50174 0.63484 0.05600
C 	C 	0.76648 0.65410 0.62579 0.00200
N 	N 	0.81022 0.68209 0.56662 -0.19200
H 	H 	0.76968 0.55511 0.53753 0.04400
C 	C 	0.84294 0.66554 0.64108 -0.09900
C 	C 	0.87682 0.72040 0.66285 0.12500
C 	C 	0.83468 0.76657 0.66880 -0.11700
C 	C 	0.75799 0.75491 0.65349 -0.01900
C 	C 	0.72302 0.69872 0.63214 0.05300
H 	H 	0.87534 0.63052 0.63628 0.05500
N 	N 	0.94938 0.72815 0.67786 -0.20600
H 	H 	0.72530 0.78972 0.65826 0.03300
N 	N 	0.64836 0.68841 0.61771 -0.19200
H 	H 	0.97593 0.76729 0.69446 0.09400
H 	H 	0.61653 0.72147 0.62264 0.07700
H 	H 	0.62151 0.64807 0.60139 0.08500
H 	H 	0.83563 0.69313 0.54607 0.08100
H 	H 	0.82148 0.73023 0.57889 0.08400
H 	H 	0.61421 0.32831 0.59709 0.10600
H 	H 	0.58165 0.36414 0.62690 0.08600
C 	C 	0.93904 0.50269 0.02381 -0.04700
C 	C 	0.96422 0.44940 0.98088 0.10800
C 	C 	0.87090 0.41590 0.97476 -0.04700
C 	C 	0.81312 0.43088 0.99187 -0.09300
C 	C 	0.84580 0.46969 0.01766 0.11000
N 	N 	0.78889 0.47758 0.03613 -0.20100
H 	H 	0.96589 0.53786 0.04247 0.04400
H 	H 	0.84447 0.38225 0.95574 0.04800
H 	H 	0.81432 0.50889 0.05466 0.07900
H 	H 	0.71874 0.45129 0.03262 0.09800
H 	H 	0.08860 0.45705 0.96859 0.10000
H 	H 	0.99415 0.40191 0.94574 0.08200
C 	C 	0.53611 0.09897 0.99459 -0.05400
C 	C 	0.49432 0.10132 0.96951 -0.08700
C 	C 	0.42517 0.02996 0.95788 0.13000
C 	C 	0.39936 0.95829 0.97177 -0.05800
C 	C 	0.43520 0.95692 0.99805 -0.12700
C 	C 	0.50679 0.02729 0.00911 0.14200
N 	N 	0.54819 0.02639 0.03340 -0.19100
H 	H 	0.58961 0.15343 0.00331 0.05100
H 	H 	0.34583 0.90379 0.96308 0.03600
N 	N 	0.38039 0.02999 0.93419 -0.18800
H 	H 	0.59947 0.07896 0.04182 0.08900
H 	H 	0.53188 0.97346 0.04369 0.07900
H 	H 	0.39048 0.08211 0.92473 0.09600
H 	H 	0.33145 0.97672 0.92551 0.06500
C 	C 	0.54906 0.60038 0.98629 -0.04200
C 	C 	0.51132 0.54392 0.96512 -0.09600
C 	C 	0.43052 0.53171 0.95167 0.10900
C 	C 	0.38451 0.57078 0.96147 -0.04400
C 	C 	0.41865 0.62276 0.98407 -0.09700
C 	C 	0.50547 0.64257 0.99502 0.10800
N 	N 	0.54861 0.70376 0.01299 -0.19900
H 	H 	0.61310 0.61228 0.99574 0.04800
H 	H 	0.31969 0.55774 0.95231 0.05200
N 	N 	0.39585 0.48170 0.92972 -0.20000
H 	H 	0.61007 0.71512 0.02226 0.08300
H 	H 	0.52488 0.74361 0.01643 0.10200
H 	H 	0.42659 0.44988 0.92237 0.10100
H 	H 	0.33704 0.47428 0.91969 0.08200
C 	C 	0.79136 0.34729 0.87326 -0.10900
C 	C 	0.80801 0.37904 0.84579 0.13000
C 	C 	0.83573 0.34477 0.82488 -0.09900
C 	C 	0.85516 0.28431 0.83163 0.00100
C 	C 	0.85715 0.26463 0.86016 0.05800
C 	C 	0.82186 0.29428 0.88073 -0.02700
N 	N 	0.79657 0.44181 0.83940 -0.20400
H 	H 	0.84001 0.36382 0.80326 0.05500
C 	C 	0.86656 0.23859 0.80858 -0.00000
H 	H 	0.81403 0.27315 0.90219 0.03800
C 	C 	0.93698 0.27854 0.78878 -0.09900
C 	C 	0.94169 0.24021 0.76453 0.12700
C 	C 	0.88584 0.15720 0.76256 -0.10600
C 	C 	0.81595 0.11684 0.78250 -0.02700
C 	C 	0.80244 0.15758 0.80457 0.06000
H 	H 	0.77143 0.05362 0.78078 0.04600
N 	N 	0.72713 0.11915 0.82136 -0.19300
H 	H 	0.68377 0.05836 0.81938 0.08500
H 	H 	0.70773 0.14955 0.83527 0.09100
H 	H 	0.80483 0.46287 0.81879 0.08100
H 	H 	0.78396 0.47260 0.85506 0.09800
C 	C 	0.25726 0.22952 0.93775 -0.12100
C 	C 	0.19544 0.14951 0.94414 0.13400
C 	C 	0.12534 0.10499 0.92519 -0.10000
C 	C 	0.11884 0.14073 0.90033 0.00500
C 	C 	0.16271 0.22412 0.89884 0.05700
C 	C 	0.23025 0.26832 0.91847 -0.02000
N 	N 	0.20868 0.11393 0.96680 -0.20500
H 	H 	0.08477 0.04148 0.92787 0.06300
C 	C 	0.09303 0.09415 0.87426 -0.00200
N 	N 	0.14350 0.26152 0.87801 -0.19100
H 	H 	0.26982 0.33172 0.91618 0.03700
C 	C 	0.00735 0.07090 0.86251 -0.08400
C 	C 	0.05418 0.03081 0.82007 -0.10200
C 	C 	0.13429 0.04370 0.83332 -0.02000
C 	C 	0.15645 0.07830 0.85983 0.06600
N 	N 	0.90840 0.02690 0.82305 -0.20200
H 	H 	0.18327 0.03296 0.82200 0.05000
N 	N 	0.23957 0.09836 0.87085 -0.19400
H 	H 	0.86100 0.03676 0.83405 0.08600
H 	H 	0.89209 0.00466 0.80280 0.09200
H 	H 	0.28473 0.08495 0.86021 0.08100
H 	H 	0.26129 0.12878 0.88960 0.09400
H 	H 	0.17833 0.32314 0.87658 0.08000
H 	H 	0.09171 0.22998 0.86369 0.08800
H 	H 	0.26043 0.14652 0.98107 0.09600
H 	H 	0.16591 0.05364 0.97067 0.09200
C 	C 	0.52821 0.44996 0.84999 -0.11300
C 	C 	0.46198 0.47480 0.84960 0.12800
C 	C 	0.47484 0.53701 0.83160 -0.10000
C 	C 	0.54962 0.57102 0.81297 0.00200
C 	C 	0.60781 0.53757 0.81057 0.05900
C 	C 	0.59288 0.47427 0.82818 -0.02100
N 	N 	0.38422 0.43683 0.86523 -0.20700
H 	H 	0.42736 0.55966 0.83237 0.05500
C 	C 	0.57208 0.64612 0.79850 -0.00000
N 	N 	0.68034 0.56807 0.79246 -0.19200
H 	H 	0.63810 0.44946 0.82677 0.04600
C 	C 	0.61672 0.71681 0.81343 -0.09700
C 	C 	0.66671 0.78895 0.79905 0.12500
C 	C 	0.67769 0.78897 0.76973 -0.11100
C 	C 	0.61886 0.72091 0.75476 -0.02400
C 	C 	0.56421 0.64924 0.76910 0.05800
H 	H 	0.61639 0.71529 0.83614 0.05600
N 	N 	0.70408 0.85784 0.81331 -0.20300
H 	H 	0.62147 0.72198 0.73206 0.04700
N 	N 	0.50818 0.58324 0.75456 -0.19200
H 	H 	0.70039 0.85772 0.83517 0.07800
H 	H 	0.73192 0.91187 0.80262 0.07600
H 	H 	0.50571 0.58516 0.73271 0.08200
H 	H 	0.46439 0.53023 0.76489 0.08600
H 	H 	0.72123 0.54161 0.79049 0.07900
H 	H 	0.69893 0.61946 0.78087 0.09000
H 	H 	0.36597 0.38306 0.87508 0.09800
H 	H 	0.33759 0.45774 0.86582 0.08000
