data_crystal

_cell_length_a 22.37759
_cell_length_b 22.87634
_cell_length_c 34.91567
_cell_angle_alpha 95.48317
_cell_angle_beta  95.48202
_cell_angle_gamma 126.01605

_symmetry_space_group_name_	'P 1'
_symmetry_space_group_name_H-M	'P 1'

loop_
_symmetry_equiv_pos_as_xyz
  x,y,z

loop_
_atom_site_label
_atom_site_type_symbol
_atom_site_fract_x
_atom_site_fract_y
_atom_site_fract_z
_atom_site_charge
C 	C 	0.98944 0.05683 0.01347 0.02900
C 	C 	0.94640 0.98110 0.01362 -0.07700
C 	C 	0.97871 0.94421 0.00995 0.02900
C 	C 	0.05418 0.98304 0.00591 -0.07800
C 	C 	0.09800 0.05905 0.00632 0.02800
C 	C 	0.06550 0.09592 0.01027 -0.07800
H 	H 	0.88762 0.95074 0.01597 0.04900
H 	H 	0.07875 0.95419 0.00249 0.04800
H 	H 	0.09911 0.15463 0.01069 0.04800
C 	C 	0.90146 0.98113 0.47032 0.01500
C 	C 	0.86148 0.90471 0.46676 -0.06500
C 	C 	0.89952 0.87317 0.46520 0.01700
C 	C 	0.97766 0.91840 0.46722 -0.05900
C 	C 	0.01779 0.99476 0.47164 0.00900
C 	C 	0.97974 0.02609 0.47300 -0.05700
H 	H 	0.80110 0.87001 0.46534 0.04600
H 	H 	0.00722 0.89427 0.46549 0.04400
H 	H 	0.01100 0.08529 0.47650 0.04300
Cu	Cu	0.67084 0.25751 0.00352 0.92500
Cu	Cu	0.69757 0.24252 0.91358 0.86800
Cu	Cu	0.68730 0.35929 0.94744 0.89700
Cu	Cu	0.67741 0.39786 0.03143 0.89200
C 	C 	0.69511 0.31196 0.08457 0.28900
O 	O 	0.56500 0.21035 0.01311 -0.37100
C 	C 	0.63804 0.29332 0.86232 0.28600
O 	O 	0.72480 0.36944 0.00119 -0.64000
O 	O 	0.63993 0.25298 0.94754 -0.64000
O 	O 	0.72133 0.20924 0.99784 -0.36900
O 	O 	0.78201 0.27440 0.95174 -0.44100
O 	O 	0.70361 0.37335 0.08073 -0.38600
O 	O 	0.74135 0.46418 0.95053 -0.38300
C 	C 	0.74444 0.50822 0.97937 0.28800
C 	C 	0.53048 0.24027 0.00726 0.27600
O 	O 	0.56680 0.30606 0.99834 -0.38400
O 	O 	0.70010 0.48126 0.00536 -0.39700
O 	O 	0.71120 0.28044 0.05814 -0.36600
C 	C 	0.77512 0.23326 0.97727 0.28400
O 	O 	0.66316 0.35034 0.89026 -0.38700
O 	O 	0.63451 0.23620 0.87009 -0.42200
H 	H 	0.78041 0.40225 0.00834 0.16400
H 	H 	0.58495 0.22039 0.93756 0.17300
Cu	Cu	0.71936 0.32048 0.44786 0.92800
Cu	Cu	0.70639 0.25473 0.52864 0.86900
Cu	Cu	0.59617 0.27674 0.49553 0.89700
Cu	Cu	0.58398 0.32334 0.41982 0.89300
C 	C 	0.67432 0.31106 0.36612 0.28900
O 	O 	0.76595 0.42871 0.45127 -0.36200
C 	C 	0.64221 0.29647 0.58125 0.28800
O 	O 	0.60230 0.26190 0.44146 -0.64000
O 	O 	0.70661 0.32598 0.50309 -0.64100
O 	O 	0.77045 0.27277 0.45022 -0.37300
O 	O 	0.68664 0.18906 0.48345 -0.44200
O 	O 	0.64280 0.34247 0.37688 -0.38800
O 	O 	0.48823 0.22301 0.48474 -0.38400
C 	C 	0.44958 0.22831 0.45603 0.28800
C 	C 	0.73361 0.45648 0.46569 0.28200
O 	O 	0.66236 0.41271 0.46827 -0.39400
O 	O 	0.48319 0.27883 0.43401 -0.39500
O 	O 	0.71190 0.30021 0.39233 -0.36300
C 	C 	0.73847 0.20953 0.46201 0.28700
O 	O 	0.58822 0.27541 0.55140 -0.38800
O 	O 	0.70105 0.29865 0.57608 -0.42200
H 	H 	0.56971 0.20983 0.42786 0.16400
H 	H 	0.73764 0.37606 0.51929 0.17200
C 	C 	0.55134 0.27063 0.67012 -0.06400
C 	C 	0.61496 0.31353 0.70028 0.01800
C 	C 	0.68682 0.35778 0.69083 -0.06400
C 	C 	0.69532 0.35575 0.65172 0.01100
C 	C 	0.63210 0.30894 0.62161 -0.08900
C 	C 	0.55984 0.26830 0.63094 0.01000
C 	C 	0.60723 0.30610 0.74144 0.01700
H 	H 	0.73630 0.39151 0.71385 0.04200
H 	H 	0.75126 0.38873 0.64489 0.02900
H 	H 	0.51047 0.23253 0.60801 0.03400
H 	H 	0.49554 0.23715 0.67708 0.04300
C 	C 	0.63970 0.36886 0.77045 -0.06300
C 	C 	0.64573 0.36406 0.81008 0.00900
C 	C 	0.61903 0.29624 0.82109 -0.08900
C 	C 	0.58089 0.23246 0.79197 0.00900
C 	C 	0.57547 0.23748 0.75238 -0.06400
H 	H 	0.66303 0.42188 0.76230 0.04300
H 	H 	0.67394 0.41358 0.83211 0.03700
H 	H 	0.55777 0.17937 0.79993 0.03000
H 	H 	0.54948 0.18851 0.73022 0.04200
C 	C 	0.74742 0.29662 0.18674 -0.06300
C 	C 	0.68450 0.27939 0.20233 0.01900
C 	C 	0.62125 0.26283 0.17756 -0.06300
C 	C 	0.62304 0.26891 0.13819 0.01100
C 	C 	0.68780 0.29096 0.12320 -0.08400
C 	C 	0.74900 0.30223 0.14721 0.01600
C 	C 	0.68920 0.29015 0.24505 0.01900
H 	H 	0.57217 0.24885 0.18930 0.04300
H 	H 	0.57524 0.25942 0.11974 0.02400
H 	H 	0.79913 0.31887 0.13581 0.03400
H 	H 	0.79636 0.30909 0.20561 0.04600
C 	C 	0.67593 0.23498 0.26561 -0.06300
C 	C 	0.67347 0.24275 0.30560 0.01000
C 	C 	0.68377 0.30552 0.32510 -0.08400
C 	C 	0.69972 0.36173 0.30472 0.01300
C 	C 	0.70246 0.35407 0.26493 -0.06300
H 	H 	0.66597 0.18557 0.25048 0.04400
H 	H 	0.66161 0.19924 0.32110 0.03000
H 	H 	0.70925 0.41107 0.31964 0.03500
H 	H 	0.71345 0.39720 0.24932 0.04600
C 	C 	0.85765 0.79275 0.46145 0.01500
C 	C 	0.79546 0.74471 0.43097 -0.04800
C 	C 	0.75756 0.66878 0.42637 -0.03100
C 	C 	0.78227 0.64007 0.45177 -0.01000
C 	C 	0.84511 0.68815 0.48238 0.04000
C 	C 	0.88168 0.76421 0.48749 -0.07300
C 	C 	0.87114 0.65949 0.50706 -0.07200
C 	C 	0.83513 0.58370 0.50132 0.01400
C 	C 	0.77215 0.53591 0.47134 -0.08300
C 	C 	0.74562 0.56405 0.44670 -0.00600
H 	H 	0.77705 0.76633 0.41054 0.04000
H 	H 	0.70959 0.63238 0.40274 0.03400
H 	H 	0.92920 0.80122 0.51131 0.04700
H 	H 	0.91947 0.69586 0.53051 0.04400
H 	H 	0.85576 0.56208 0.52039 0.02200
H 	H 	0.69713 0.52685 0.42337 0.02700
C 	C 	0.76819 0.16704 0.45623 -0.09100
C 	C 	0.80507 0.17281 0.42482 0.01500
C 	C 	0.83640 0.13526 0.42049 -0.07300
C 	C 	0.83139 0.09170 0.44760 0.04000
C 	C 	0.79326 0.08475 0.47887 -0.01200
C 	C 	0.76157 0.12215 0.48292 -0.01100
C 	C 	0.78858 0.04159 0.50614 -0.03300
C 	C 	0.82282 0.00682 0.50289 -0.04800
C 	C 	0.86168 0.01436 0.47223 0.01600
C 	C 	0.86508 0.05603 0.44430 -0.07300
H 	H 	0.80957 0.20647 0.40377 0.03800
H 	H 	0.86509 0.14059 0.39625 0.04600
H 	H 	0.73334 0.11770 0.50728 0.02000
H 	H 	0.75922 0.03571 0.53014 0.03000
H 	H 	0.82015 0.97485 0.52457 0.03900
H 	H 	0.89467 0.06135 0.42044 0.04800
C 	C 	0.36746 0.18484 0.45250 -0.08100
C 	C 	0.32147 0.16103 0.41557 0.01100
C 	C 	0.24349 0.11988 0.41202 -0.07200
C 	C 	0.21061 0.10213 0.44540 0.03900
C 	C 	0.25669 0.12633 0.48270 -0.00900
C 	C 	0.33492 0.16755 0.48606 -0.00900
C 	C 	0.22381 0.10867 0.51610 -0.03200
C 	C 	0.14576 0.06661 0.51246 -0.05000
C 	C 	0.09992 0.04197 0.47548 0.01800
C 	C 	0.13230 0.06008 0.44201 -0.07400
H 	H 	0.34614 0.17389 0.38953 0.02500
H 	H 	0.20869 0.10162 0.38330 0.04400
H 	H 	0.37042 0.18666 0.51467 0.04300
H 	H 	0.25860 0.12710 0.54484 0.03500
H 	H 	0.12078 0.05261 0.53836 0.04000
H 	H 	0.09655 0.04086 0.41346 0.04700
C 	C 	0.93346 0.86474 0.01038 0.00600
C 	C 	0.91028 0.83910 0.04497 -0.04500
C 	C 	0.86840 0.76395 0.04574 -0.03500
C 	C 	0.84906 0.71356 0.01185 -0.01000
C 	C 	0.87185 0.73910 0.97687 0.03900
C 	C 	0.91411 0.81471 0.97633 -0.06500
C 	C 	0.85220 0.68872 0.94295 -0.07000
C 	C 	0.81040 0.61354 0.94370 0.01000
C 	C 	0.78784 0.58772 0.97845 -0.07500
C 	C 	0.80741 0.63805 0.01252 -0.01700
H 	H 	0.92515 0.87755 0.07133 0.03900
H 	H 	0.85112 0.74499 0.07271 0.03400
H 	H 	0.93190 0.83464 0.94959 0.04700
H 	H 	0.86919 0.70769 0.91594 0.04400
H 	H 	0.79524 0.57537 0.91716 0.03800
H 	H 	0.79083 0.61857 0.03950 0.03400
C 	C 	0.82245 0.20766 0.97963 -0.08300
C 	C 	0.85780 0.20856 0.94823 0.00800
C 	C 	0.90014 0.18185 0.94939 -0.07200
C 	C 	0.90775 0.15371 0.98191 0.03900
C 	C 	0.87361 0.15376 0.01395 -0.01000
C 	C 	0.83118 0.18091 0.01272 -0.01400
C 	C 	0.88140 0.12560 0.04651 -0.03400
C 	C 	0.92116 0.09599 0.04683 -0.04400
C 	C 	0.95368 0.09434 0.01466 0.00600
C 	C 	0.94783 0.12419 0.98249 -0.06500
H 	H 	0.85149 0.22891 0.92255 0.01600
H 	H 	0.92636 0.18237 0.92475 0.04200
H 	H 	0.80493 0.18099 0.03726 0.04500
H 	H 	0.85598 0.12581 0.07138 0.03600
H 	H 	0.92586 0.07343 0.07186 0.03900
H 	H 	0.97285 0.12279 0.95762 0.04600
C 	C 	0.45099 0.20022 0.01120 -0.08500
C 	C 	0.42439 0.15734 0.04036 0.00800
C 	C 	0.35030 0.12248 0.04576 -0.06900
C 	C 	0.30162 0.12954 0.02184 0.02900
C 	C 	0.32765 0.17174 0.99206 -0.00200
C 	C 	0.40244 0.20724 0.98701 -0.01000
C 	C 	0.27851 0.17767 0.96768 -0.03800
C 	C 	0.20394 0.14155 0.97260 -0.03800
C 	C 	0.17784 0.09982 0.00227 0.00300
C 	C 	0.22709 0.09456 0.02712 -0.06600
H 	H 	0.46159 0.15210 0.05935 0.03200
H 	H 	0.33086 0.09009 0.06860 0.04300
H 	H 	0.42269 0.23992 0.96429 0.03700
H 	H 	0.29779 0.20971 0.94469 0.03600
H 	H 	0.16617 0.14532 0.95307 0.03700
H 	H 	0.20722 0.06286 0.05025 0.04500
