data_crystal

_cell_length_a 20.85015
_cell_length_b 21.20628
_cell_length_c 38.93419
_cell_angle_alpha 60.66783
_cell_angle_beta  119.03442
_cell_angle_gamma 133.30157

_symmetry_space_group_name_	'P 1'
_symmetry_space_group_name_H-M	'P 1'

loop_
_symmetry_equiv_pos_as_xyz
  x,y,z

loop_
_atom_site_label
_atom_site_type_symbol
_atom_site_fract_x
_atom_site_fract_y
_atom_site_fract_z
_atom_site_charge
H 	H 	0.22426 0.55004 0.17846 0.06500
H 	H 	0.11456 0.52048 0.63755 0.06400
Co	Co	0.03963 0.12636 0.07048 1.19500
Co	Co	0.12107 0.07098 0.04422 1.19100
Co	Co	0.15900 0.93999 0.05142 1.16700
C 	C 	0.31127 0.11399 0.07052 0.31800
O 	O 	0.04856 0.09801 0.18026 -0.38200
O 	O 	0.10804 0.16707 0.03214 -0.45200
C 	C 	0.12581 0.26329 0.11177 0.32800
C 	C 	0.16159 0.83785 0.13700 0.32600
O 	O 	0.13813 0.83229 0.10043 -0.41000
O 	O 	0.13585 0.87178 0.14433 -0.37900
O 	O 	0.04214 0.23091 0.10616 -0.38800
O 	O 	0.14323 0.22420 0.10298 -0.38400
O 	O 	0.10003 0.96901 0.06651 -0.77000
O 	O 	0.27924 0.02894 0.08379 -0.37900
O 	O 	0.26313 0.14059 0.06446 -0.37700
Co	Co	0.01377 0.98608 0.53871 1.18500
Co	Co	0.06677 0.87426 0.53864 1.17500
C 	C 	0.18659 0.07040 0.52444 0.33500
O 	O 	0.00225 0.07758 0.53455 -0.44000
C 	C 	0.04796 0.15367 0.63854 0.31500
C 	C 	0.15928 0.85246 0.62445 0.31200
O 	O 	0.17348 0.90633 0.58855 -0.38700
O 	O 	0.10645 0.84016 0.64045 -0.38000
O 	O 	0.00453 0.08574 0.66670 -0.38400
O 	O 	0.05731 0.14152 0.61102 -0.36900
O 	O 	0.01212 0.89377 0.56239 -0.75100
O 	O 	0.13595 0.00660 0.50619 -0.38600
O 	O 	0.15245 0.06866 0.54604 -0.39500
C 	C 	0.08602 0.02080 0.80337 -0.00800
C 	C 	0.06901 0.99746 0.77014 -0.01300
C 	C 	0.09326 0.87659 0.91156 0.08600
C 	C 	0.16139 0.11007 0.80872 0.08900
N 	N 	0.22176 0.18165 0.81298 -0.10300
H 	H 	0.10926 0.04805 0.74770 0.06300
C 	C 	0.01648 0.01999 0.36890 -0.02900
C 	C 	0.00047 0.01366 0.40201 0.05300
C 	C 	0.04774 0.09405 0.41336 0.09200
C 	C 	0.04833 0.87764 0.35261 0.09300
N 	N 	0.08521 0.15848 0.42236 -0.10200
N 	N 	0.07365 0.83992 0.38238 -0.11000
H 	H 	0.06240 0.91823 0.27856 0.04600
H 	H 	0.06758 0.08438 0.35363 0.05700
C 	C 	0.08767 0.24407 0.63871 -0.11600
C 	C 	0.10974 0.25934 0.67550 -0.04000
C 	C 	0.12890 0.33625 0.67602 0.13100
H 	H 	0.11023 0.21036 0.70381 0.06600
O 	O 	0.15099 0.34985 0.71236 -0.27000
H 	H 	0.09322 0.32631 0.71578 0.15500
C 	C 	0.27661 0.83639 0.63638 0.18600
C 	C 	0.19736 0.80037 0.64503 -0.11900
C 	C 	0.14343 0.70843 0.66321 -0.03400
C 	C 	0.16358 0.65202 0.66889 0.12800
H 	H 	0.08388 0.67987 0.67141 0.06200
O 	O 	0.11649 0.56476 0.69055 -0.26900
H 	H 	0.05777 0.53265 0.67146 0.15200
C 	C 	0.19745 0.35124 0.12095 -0.11300
C 	C 	0.25626 0.43162 0.16915 -0.09900
C 	C 	0.22690 0.35633 0.16125 0.18700
H 	H 	0.28136 0.43610 0.20020 0.07300
O 	O 	0.22554 0.28710 0.19295 -0.28100
H 	H 	0.16837 0.25110 0.20104 0.16000
C 	C 	0.20022 0.78928 0.16994 -0.11400
C 	C 	0.14845 0.69823 0.17242 -0.04200
C 	C 	0.18444 0.66635 0.16801 0.12800
C 	C 	0.29510 0.83617 0.18170 0.17900
H 	H 	0.07616 0.65702 0.16946 0.06900
O 	O 	0.12591 0.59142 0.15361 -0.28100
H 	H 	0.10517 0.54034 0.17746 0.14800
C 	C 	0.32205 0.69522 0.16259 0.05900
C 	C 	0.39044 0.65768 0.13339 -0.07900
C 	C 	0.30863 0.58959 0.14491 0.06600
C 	C 	0.27788 0.60605 0.16276 -0.07700
C 	C 	0.25517 0.62835 0.65682 0.06500
C 	C 	0.18476 0.54570 0.64572 -0.07900
C 	C 	0.20635 0.49746 0.64386 0.06800
C 	C 	0.29644 0.53419 0.64981 -0.08900
C 	C 	0.13713 0.40434 0.64035 -0.02900
C 	C 	0.10860 0.38686 0.60313 -0.09800
C 	C 	0.08440 0.30732 0.60217 0.18700
H 	H 	0.11202 0.43788 0.57521 0.07400
O 	O 	0.05483 0.29053 0.56556 -0.27300
H 	H 	0.11034 0.31706 0.55877 0.15600
C 	C 	0.23527 0.68699 0.65413 -0.02200
C 	C 	0.29122 0.77975 0.63788 -0.10400
H 	H 	0.34612 0.80830 0.62612 0.07100
O 	O 	0.33611 0.92708 0.62307 -0.28200
H 	H 	0.38093 0.94818 0.64793 0.15700
C 	C 	0.20671 0.42588 0.08936 -0.03000
C 	C 	0.22786 0.49712 0.09690 0.13200
C 	C 	0.25529 0.50173 0.13708 -0.02600
H 	H 	0.18815 0.42452 0.05835 0.06500
O 	O 	0.22675 0.56503 0.06500 -0.27700
C 	C 	0.27989 0.71848 0.17337 -0.02500
C 	C 	0.33465 0.79908 0.18505 -0.10200
H 	H 	0.40747 0.83451 0.19535 0.06500
O 	O 	0.34941 0.92163 0.18564 -0.29200
H 	H 	0.36042 0.91497 0.21463 0.15400
C 	C 	0.31802 0.17003 0.49409 0.19200
C 	C 	0.28468 0.12849 0.52873 -0.12500
C 	C 	0.34098 0.12135 0.56729 -0.03000
O 	O 	0.26533 0.18100 0.45618 -0.28200
H 	H 	0.31628 0.09010 0.59417 0.07100
H 	H 	0.28183 0.24130 0.44980 0.15500
C 	C 	0.39651 0.17852 0.05725 -0.11800
C 	C 	0.39428 0.22152 0.01596 -0.03400
H 	H 	0.33582 0.22164 0.99585 0.06400
C 	C 	0.40651 0.76326 0.15113 -0.08300
C 	C 	0.34617 0.66121 0.66519 -0.08300
H 	H 	0.31252 0.49832 0.64682 0.06500
C 	C 	0.12169 0.05014 0.97371 0.29700
O 	O 	0.18754 0.04530 0.00056 -0.40200
O 	O 	0.07747 0.05786 0.98508 -0.36600
C 	C 	0.08081 0.01661 0.93719 -0.05500
H 	H 	0.16459 0.54736 0.05789 0.15500
H 	H 	0.02883 0.37668 0.00996 0.15500
C 	C 	0.02861 0.95748 0.83071 0.02300
C 	C 	0.04745 0.97870 0.86744 0.00100
C 	C 	0.03416 0.03901 0.86353 -0.02800
C 	C 	0.05221 0.05933 0.89816 0.01600
C 	C 	0.08885 0.95273 0.94070 -0.00600
C 	C 	0.07504 0.93571 0.90642 -0.02900
C 	C 	0.04315 0.12517 0.89315 0.09000
N 	N 	0.03588 0.17798 0.88912 -0.10000
H 	H 	0.01133 0.07115 0.83362 0.05500
H 	H 	0.11272 0.92089 0.97031 0.02300
N 	N 	0.10781 0.82923 0.91567 -0.11200
O 	O 	0.00597 0.74142 0.57009 -0.38500
C 	C 	0.02939 0.94121 0.27866 0.01000
C 	C 	0.03022 0.02087 0.20482 0.32400
C 	C 	0.36592 0.61703 0.65879 0.06900
Co	Co	0.03594 0.89148 0.10049 1.19200
C 	C 	0.01667 0.92466 0.31549 -0.02000
O 	O 	0.02910 0.85545 0.02178 -0.38300
O 	O 	0.01943 0.96403 0.19283 -0.38000
O 	O 	0.01566 0.99897 0.07819 -0.58200
C 	C 	0.40262 0.19497 0.49804 -0.10300
H 	H 	0.40128 0.72330 0.67454 0.06600
O 	O 	0.00649 0.34067 0.03515 -0.27200
C 	C 	0.00368 0.99123 0.24248 -0.08900
H 	H 	0.01451 0.65385 0.09927 0.17600
C 	C 	0.99477 0.91167 0.76365 -0.09200
O 	O 	0.98553 0.90434 0.70035 -0.39700
Co	Co	0.98371 0.82794 0.60742 1.17700
H 	H 	0.41664 0.64331 0.12207 0.07000
H 	H 	0.44387 0.83171 0.15134 0.05600
Co	Co	0.95494 0.03528 0.58207 1.18500
H 	H 	0.45465 0.07863 0.12769 0.16800
C 	C 	0.94974 0.90194 0.72154 0.30300
O 	O 	0.47821 0.14063 0.12381 -0.28100
H 	H 	0.42713 0.22549 0.47119 0.07300
C 	C 	0.47277 0.17854 0.08299 0.19100
O 	O 	0.95341 0.96617 0.47922 -0.38100
O 	O 	0.87603 0.89800 0.70398 -0.41000
C 	C 	0.46425 0.25900 0.99988 0.12600
O 	O 	0.45766 0.29490 0.95891 -0.26700
H 	H 	0.48275 0.35774 0.95441 0.15200
C 	C 	0.74106 0.33327 0.99968 0.06000
C 	C 	0.65858 0.27710 0.01134 -0.07700
C 	C 	0.62214 0.31441 0.01060 0.06300
C 	C 	0.67044 0.40711 0.00078 -0.08000
C 	C 	0.75757 0.46276 0.99499 0.06400
C 	C 	0.78958 0.42692 0.99080 -0.08600
H 	H 	0.62520 0.20563 0.02258 0.06000
H 	H 	0.64484 0.43557 0.00266 0.06500
H 	H 	0.85434 0.47142 0.98304 0.05900
C 	C 	0.65838 0.21547 0.53517 0.06100
C 	C 	0.72961 0.29511 0.54840 -0.08900
C 	C 	0.71013 0.33717 0.55675 0.06500
C 	C 	0.62067 0.29828 0.55357 -0.09100
C 	C 	0.54977 0.21994 0.54039 0.06700
C 	C 	0.56800 0.18021 0.52960 -0.08300
H 	H 	0.79949 0.32414 0.55210 0.06200
H 	H 	0.60590 0.33105 0.55999 0.05700
H 	H 	0.51240 0.12177 0.51744 0.07800
C 	C 	0.44244 0.74206 0.13912 0.06500
Co	Co	0.96473 0.95139 0.13194 1.17400
C 	C 	0.96470 0.78510 0.04141 0.29700
Co	Co	0.95023 0.09828 0.12940 1.17600
O 	O 	0.98425 0.05394 0.10797 -0.75700
O 	O 	0.96525 0.84979 0.13840 -0.46600
C 	C 	0.79721 0.90645 0.13562 0.33100
O 	O 	0.85517 0.96849 0.15541 -0.41400
O 	O 	0.82622 0.88562 0.12201 -0.38500
C 	C 	0.88752 0.15121 0.04093 0.30900
O 	O 	0.85865 0.09460 0.07434 -0.37400
O 	O 	0.94709 0.16013 0.03095 -0.37300
O 	O 	0.94926 0.78975 0.06958 -0.37100
Co	Co	0.90499 0.86686 0.64548 1.18600
C 	C 	0.92307 0.68837 0.57447 0.31000
Co	Co	0.87003 0.98831 0.64986 1.16500
O 	O 	0.90813 0.95952 0.62199 -0.77400
O 	O 	0.93011 0.78271 0.65325 -0.46500
O 	O 	0.93500 0.91269 0.58581 -0.59300
C 	C 	0.71483 0.80282 0.64094 0.31800
C 	C 	0.94631 0.91272 0.46640 0.29400
O 	O 	0.74164 0.88625 0.62868 -0.40100
O 	O 	0.77001 0.78125 0.65070 -0.37200
O 	O 	0.95373 0.84737 0.49207 -0.39100
C 	C 	0.82257 0.07074 0.56271 0.33800
O 	O 	0.86205 0.08426 0.59901 -0.40700
O 	O 	0.84645 0.04517 0.54895 -0.37700
O 	O 	0.89630 0.71175 0.58791 -0.38900
C 	C 	0.95883 0.86996 0.82580 -0.07400
C 	C 	0.94471 0.84600 0.79369 0.03000
C 	C 	0.87432 0.75472 0.79021 0.07300
N 	N 	0.81788 0.68162 0.78738 -0.10600
H 	H 	0.91631 0.82007 0.84739 0.05500
C 	C 	0.97471 0.95552 0.31593 -0.00500
C 	C 	0.94478 0.00087 0.27969 -0.04200
C 	C 	0.96121 0.02163 0.24349 0.02400
C 	C 	0.96469 0.94424 0.35446 -0.00300
C 	C 	0.93610 0.92967 0.42283 -0.11000
C 	C 	0.87948 0.85563 0.40633 0.01600
C 	C 	0.89355 0.86237 0.37249 -0.04000
C 	C 	0.83463 0.78493 0.35650 0.09000
C 	C 	0.93731 0.07736 0.20808 0.04500
N 	N 	0.78746 0.72291 0.34367 -0.11300
N 	N 	0.91812 0.12226 0.18000 -0.15500
H 	H 	0.91144 0.02339 0.27995 0.05100
H 	H 	0.82758 0.79139 0.42124 0.04000
C 	C 	0.45657 0.66302 0.65477 -0.03000
C 	C 	0.46894 0.69112 0.61619 -0.10400
C 	C 	0.55053 0.72390 0.61185 0.19000
C 	C 	0.62222 0.73250 0.64606 -0.11800
C 	C 	0.60741 0.69777 0.68486 -0.04000
C 	C 	0.52492 0.66331 0.68931 0.13000
H 	H 	0.41463 0.68652 0.58954 0.07100
O 	O 	0.56128 0.75016 0.57394 -0.29000
H 	H 	0.66216 0.70357 0.71146 0.06600
O 	O 	0.51238 0.63264 0.72733 -0.27500
H 	H 	0.48591 0.56817 0.73552 0.15600
H 	H 	0.58227 0.81329 0.56322 0.15400
C 	C 	0.70110 0.85182 0.13492 -0.12500
C 	C 	0.67758 0.81058 0.17219 -0.03300
C 	C 	0.59971 0.78973 0.17448 0.12700
C 	C 	0.53905 0.80158 0.13887 -0.03000
C 	C 	0.56251 0.84324 0.10150 -0.10400
C 	C 	0.64226 0.86693 0.09935 0.18700
H 	H 	0.72327 0.80031 0.19991 0.06200
O 	O 	0.57881 0.75036 0.21136 -0.27400
H 	H 	0.51612 0.85227 0.07380 0.07000
O 	O 	0.66505 0.90950 0.06273 -0.29100
H 	H 	0.63828 0.86103 0.05135 0.15400
H 	H 	0.60609 0.80053 0.22167 0.14600
C 	C 	0.67888 0.16695 0.52921 -0.02300
C 	C 	0.74548 0.21447 0.50829 -0.10500
C 	C 	0.78375 0.17591 0.51238 0.19400
C 	C 	0.75473 0.08923 0.53718 -0.12900
C 	C 	0.67528 0.03607 0.55022 -0.02000
C 	C 	0.64073 0.07557 0.54873 0.12200
H 	H 	0.77183 0.28315 0.49115 0.07100
O 	O 	0.85670 0.22682 0.49631 -0.28400
H 	H 	0.64881 0.96727 0.56719 0.04000
O 	O 	0.57364 0.02623 0.56837 -0.27200
H 	H 	0.60570 0.03384 0.59646 0.15000
H 	H 	0.83046 0.21557 0.46912 0.15500
C 	C 	0.78100 0.42757 0.56349 -0.03000
C 	C 	0.80394 0.50073 0.52968 -0.10400
C 	C 	0.84366 0.58476 0.53248 0.18600
C 	C 	0.86484 0.59738 0.56986 -0.12200
C 	C 	0.84706 0.52554 0.60432 -0.04000
C 	C 	0.80521 0.44080 0.60126 0.12400
H 	H 	0.78544 0.49109 0.50050 0.07100
O 	O 	0.86373 0.65522 0.49880 -0.29500
H 	H 	0.86717 0.53569 0.63361 0.05500
O 	O 	0.78759 0.37078 0.63514 -0.27800
H 	H 	0.72715 0.34462 0.63679 0.14700
H 	H 	0.80892 0.65448 0.48563 0.15400
C 	C 	0.45618 0.18206 0.53647 -0.02500
C 	C 	0.42624 0.14746 0.57128 0.13300
O 	O 	0.47897 0.13625 0.60918 -0.26800
H 	H 	0.51469 0.19171 0.61758 0.14300
C 	C 	0.85834 0.21082 0.01612 -0.10700
C 	C 	0.76638 0.17369 0.99668 -0.03800
C 	C 	0.72888 0.21669 0.98823 0.12800
C 	C 	0.78243 0.29455 0.00179 -0.02300
C 	C 	0.87604 0.33495 0.01815 -0.09800
C 	C 	0.91443 0.29656 0.02241 0.16600
H 	H 	0.72300 0.10966 0.98969 0.06700
O 	O 	0.64211 0.18539 0.96504 -0.26900
H 	H 	0.91904 0.39525 0.02827 0.06300
H 	H 	0.60191 0.13278 0.98357 0.14800
C 	C 	0.90543 0.70022 0.03007 -0.11500
C 	C 	0.86249 0.69810 0.98912 -0.04100
C 	C 	0.82091 0.62348 0.97646 0.12500
C 	C 	0.82163 0.55002 0.00487 -0.02700
C 	C 	0.86667 0.55336 0.04548 -0.10700
C 	C 	0.90782 0.62756 0.05815 0.19000
H 	H 	0.86281 0.75502 0.96698 0.05800
O 	O 	0.77664 0.62103 0.93665 -0.27400
H 	H 	0.86684 0.49668 0.06761 0.07200
O 	O 	0.95276 0.63008 0.09783 -0.30500
H 	H 	0.82298 0.64705 0.92329 0.14700
C 	C 	0.53979 0.25767 0.02549 -0.02300
C 	C 	0.54406 0.21835 0.06711 -0.10600
H 	H 	0.60352 0.22017 0.08732 0.07200
