data_crystal

_cell_length_a 18.51030
_cell_length_b 18.77126
_cell_length_c 21.88503
_cell_angle_alpha 95.47169
_cell_angle_beta  95.47416
_cell_angle_gamma 126.34002

_symmetry_space_group_name_	'P 1'
_symmetry_space_group_name_H-M	'P 1'

loop_
_symmetry_equiv_pos_as_xyz
  x,y,z

loop_
_atom_site_label
_atom_site_type_symbol
_atom_site_fract_x
_atom_site_fract_y
_atom_site_fract_z
_atom_site_charge
C 	C 	0.08116 0.07210 0.00804 -0.10400
C 	C 	0.11125 0.01936 0.99828 0.10600
H 	H 	0.13029 0.14481 0.02059 0.06800
C 	C 	0.02739 0.04045 0.46246 0.04400
H 	H 	0.00614 0.14083 0.45673 0.06200
Cu	Cu	0.67416 0.22831 0.03203 0.92200
Cu	Cu	0.68237 0.14784 0.89051 0.88800
Cu	Cu	0.69804 0.32787 0.92330 0.90900
Cu	Cu	0.64955 0.38292 0.04230 0.89600
C 	C 	0.68306 0.31461 0.15142 0.31700
O 	O 	0.54023 0.15698 0.03880 -0.35500
C 	C 	0.64860 0.22637 0.79537 0.32200
O 	O 	0.72383 0.35556 0.01285 -0.64700
O 	O 	0.63976 0.20235 0.93873 -0.62700
O 	O 	0.76560 0.20312 0.04439 -0.35000
O 	O 	0.70125 0.09747 0.95507 -0.38800
O 	O 	0.68309 0.37894 0.13082 -0.37100
O 	O 	0.75319 0.45161 0.91672 -0.36000
C 	C 	0.73544 0.49913 0.95129 0.28800
C 	C 	0.49095 0.18161 0.01721 0.26200
O 	O 	0.52874 0.25415 0.99279 -0.35300
O 	O 	0.66531 0.45940 0.97998 -0.36800
O 	O 	0.71306 0.27563 0.12062 -0.35300
C 	C 	0.76773 0.14862 0.00341 0.26500
O 	O 	0.70001 0.30556 0.83367 -0.38200
O 	O 	0.62331 0.15214 0.81541 -0.40600
H 	H 	0.78964 0.40288 0.03002 0.16900
H 	H 	0.57287 0.16564 0.92486 0.17900
Cu	Cu	0.69512 0.33398 0.42487 0.92400
Cu	Cu	0.74537 0.28971 0.55923 0.88400
Cu	Cu	0.59417 0.32481 0.53083 0.91300
Cu	Cu	0.54412 0.36592 0.41020 0.90300
C 	C 	0.61537 0.32954 0.30234 0.32400
O 	O 	0.77125 0.46894 0.42199 -0.35100
C 	C 	0.64627 0.30242 0.64765 0.32100
O 	O 	0.56492 0.28824 0.44137 -0.63400
O 	O 	0.71659 0.36094 0.51840 -0.62700
O 	O 	0.71934 0.24198 0.41010 -0.35100
O 	O 	0.55784 0.34204 0.32290 -0.37800
O 	O 	0.47151 0.27929 0.53920 -0.36400
C 	C 	0.41974 0.28530 0.49778 0.29400
C 	C 	0.74668 0.51765 0.44470 0.28400
O 	O 	0.67146 0.47922 0.46698 -0.38600
O 	O 	0.45635 0.34854 0.46391 -0.37900
O 	O 	0.65153 0.29877 0.33566 -0.35500
C 	C 	0.77620 0.23842 0.44842 0.28900
O 	O 	0.62852 0.35134 0.62096 -0.37300
O 	O 	0.65473 0.24756 0.61277 -0.41500
H 	H 	0.51454 0.22332 0.42649 0.17400
H 	H 	0.76450 0.42586 0.53542 0.16900
C 	C 	0.62772 0.22143 0.73395 -0.11800
C 	C 	0.64227 0.29861 0.70829 -0.11700
H 	H 	0.59384 0.15728 0.70241 0.09100
H 	H 	0.63983 0.34725 0.73727 0.09800
C 	C 	0.62339 0.33333 0.24221 -0.10200
C 	C 	0.66929 0.30150 0.20979 -0.10400
H 	H 	0.59115 0.35662 0.21535 0.08300
H 	H 	0.68289 0.25931 0.23065 0.10300
C 	C 	0.80276 0.61585 0.44547 -0.07800
C 	C 	0.81187 0.64748 0.38855 0.01500
C 	C 	0.79903 0.59200 0.33152 0.08200
N 	N 	0.78914 0.54810 0.28591 -0.10100
C 	C 	0.77827 0.04316 0.47615 -0.03700
C 	C 	0.75380 0.10161 0.47876 0.02100
C 	C 	0.77903 0.16083 0.43594 -0.08400
C 	C 	0.69983 0.09830 0.52380 0.03900
N 	N 	0.65648 0.09504 0.55977 -0.12900
C 	C 	0.12761 0.10553 0.47155 0.01000
C 	C 	0.17143 0.11425 0.42050 -0.03600
C 	C 	0.26723 0.16988 0.42988 0.02100
C 	C 	0.31958 0.22168 0.48966 -0.08300
C 	C 	0.27567 0.21486 0.54053 0.02400
C 	C 	0.17963 0.15559 0.53162 -0.03700
C 	C 	0.11758 0.06599 0.35819 0.10000
C 	C 	0.32909 0.27005 0.60155 0.09200
C 	C 	0.31211 0.17211 0.37839 0.06000
N 	N 	0.34771 0.17374 0.33727 -0.11600
N 	N 	0.37172 0.31407 0.65023 -0.09700
N 	N 	0.07453 0.02746 0.30857 -0.09600
C 	C 	0.79277 0.59760 0.95693 -0.05800
C 	C 	0.74961 0.57932 0.84254 0.09200
N 	N 	0.71175 0.53392 0.79360 -0.10200
C 	C 	0.81190 0.10057 0.11587 0.09100
N 	N 	0.03563 0.14814 0.87146 -0.10000
C 	C 	0.20951 0.06174 0.00361 -0.05100
C 	C 	0.26191 0.07825 0.06182 -0.02000
C 	C 	0.35201 0.10641 0.06540 0.00900
C 	C 	0.39080 0.12131 0.01121 -0.09200
C 	C 	0.33549 0.09664 0.95245 0.03100
C 	C 	0.24647 0.07086 0.94890 -0.00200
C 	C 	0.37035 0.09755 0.89567 0.08000
C 	C 	0.19278 0.05403 0.88901 0.09200
C 	C 	0.40433 0.11910 0.12459 0.08300
N 	N 	0.14983 0.04056 0.84130 -0.09800
N 	N 	0.39805 0.09825 0.85032 -0.11200
C 	C 	0.79710 0.63628 0.90386 0.02000
N 	N 	0.77529 0.09363 0.15744 -0.09700
C 	C 	0.13421 0.14554 0.58420 0.09900
C 	C 	0.22297 0.06616 0.11790 0.08600
N 	N 	0.44572 0.12879 0.17188 -0.10300
N 	N 	0.19179 0.05649 0.16258 -0.09900
H 	H 	0.76294 0.86512 0.42093 0.06100
O 	O 	0.81712 0.29295 0.50279 -0.41100
C 	C 	0.82554 0.67440 0.50166 0.02000
C 	C 	0.82907 0.64731 0.56110 0.08100
N 	N 	0.83184 0.62564 0.60850 -0.10900
C 	C 	0.81253 0.14903 0.38370 0.02300
H 	H 	0.07143 0.88504 0.97591 0.07200
C 	C 	0.82287 0.03989 0.42839 0.01100
C 	C 	0.82876 0.20219 0.33555 0.09000
C 	C 	0.84423 0.14280 0.01242 -0.10100
C 	C 	0.83198 0.08655 0.37912 -0.03800
N 	N 	0.84167 0.24461 0.29711 -0.09800
C 	C 	0.83728 0.61409 0.07092 0.05700
N 	N 	0.83767 0.58321 0.11414 -0.11700
C 	C 	0.83694 0.65298 0.01675 -0.00000
C 	C 	0.83402 0.73346 0.38717 -0.03600
C 	C 	0.84673 0.73038 0.91067 -0.03900
C 	C 	0.83667 0.91408 0.43252 -0.06500
H 	H 	0.02833 0.92684 0.46613 0.06200
C 	C 	0.84439 0.75878 0.50013 -0.03600
C 	C 	0.85357 0.77082 0.85614 0.10000
H 	H 	0.85159 0.90367 0.98108 0.06400
C 	C 	0.04793 0.92571 0.98243 -0.08400
C 	C 	0.86426 0.07239 0.32491 0.10000
C 	C 	0.85780 0.10926 0.06380 0.02300
C 	C 	0.84176 0.76519 0.32849 0.09600
N 	N 	0.85911 0.80319 0.81268 -0.10200
C 	C 	0.84955 0.78902 0.44295 0.00900
N 	N 	0.84801 0.79065 0.28173 -0.10100
N 	N 	0.74726 0.94630 0.56213 -0.10600
N 	N 	0.09784 0.13741 0.62609 -0.10300
C 	C 	0.85905 0.81497 0.55749 0.10000
N 	N 	0.89014 0.06106 0.28169 -0.10000
C 	C 	0.98718 0.03039 0.00108 0.03300
C 	C 	0.97370 0.06950 0.45300 -0.06800
C 	C 	0.89619 0.15948 0.96506 0.03500
C 	C 	0.94973 0.12894 0.96365 -0.01600
C 	C 	0.95402 0.08492 0.01100 -0.01100
C 	C 	0.91402 0.08162 0.06346 -0.03600
C 	C 	0.89388 0.20742 0.91765 0.04300
C 	C 	0.99749 0.13966 0.91236 0.09600
N 	N 	0.89202 0.24568 0.87982 -0.13500
C 	C 	0.87835 0.00683 0.43759 0.04100
C 	C 	0.92891 0.04752 0.11609 0.09700
N 	N 	0.94101 0.02014 0.15791 -0.09600
C 	C 	0.88276 0.74625 0.02372 -0.05600
C 	C 	0.89050 0.78539 0.97057 0.03100
C 	C 	0.92330 0.80250 0.08562 0.09800
N 	N 	0.87081 0.85990 0.60320 -0.10000
N 	N 	0.95568 0.84743 0.13494 -0.09900
C 	C 	0.89121 0.88543 0.44369 0.04200
C 	C 	0.95472 0.88403 0.97705 0.04400
C 	C 	0.92408 0.93622 0.98528 -0.04700
C 	C 	0.98625 0.94889 0.45836 -0.06700
C 	C 	0.76100 0.98930 0.52397 0.09600
