data_crystal

_cell_length_a 19.93660
_cell_length_b 21.51988
_cell_length_c 37.63284
_cell_angle_alpha 60.78741
_cell_angle_beta  118.95121
_cell_angle_gamma 133.28790

_symmetry_space_group_name_	'P 1'
_symmetry_space_group_name_H-M	'P 1'

loop_
_symmetry_equiv_pos_as_xyz
  x,y,z

loop_
_atom_site_label
_atom_site_type_symbol
_atom_site_fract_x
_atom_site_fract_y
_atom_site_fract_z
_atom_site_charge
Co	Co	0.01517 0.00253 0.03396 1.17300
Co	Co	0.07748 0.89809 0.03305 1.18200
C 	C 	0.06672 0.18740 0.13198 0.32400
C 	C 	0.17854 0.87811 0.12055 0.33000
O 	O 	0.19047 0.93262 0.08368 -0.35400
O 	O 	0.12526 0.86406 0.13895 -0.33400
O 	O 	0.04093 0.12489 0.16587 -0.36000
O 	O 	0.06800 0.17157 0.10217 -0.34600
O 	O 	0.02047 0.91527 0.05905 -0.72500
O 	O 	0.14820 0.02866 0.99953 -0.38400
O 	O 	0.15865 0.09035 0.03853 -0.38300
Co	Co	0.03276 0.09497 0.58379 1.19300
Co	Co	0.10304 0.03986 0.54590 1.17500
Co	Co	0.15861 0.92033 0.55334 1.18500
O 	O 	0.08742 0.13135 0.53746 -0.42500
C 	C 	0.11327 0.21057 0.64043 0.32400
C 	C 	0.21999 0.87224 0.64531 0.32200
O 	O 	0.25210 0.93185 0.61145 -0.34600
O 	O 	0.15489 0.85963 0.65513 -0.33300
O 	O 	0.05987 0.14057 0.66672 -0.37300
O 	O 	0.12697 0.20284 0.61151 -0.33800
O 	O 	0.10306 0.94966 0.57330 -0.73000
O 	O 	0.24775 0.05116 0.52337 -0.41400
O 	O 	0.24725 0.12342 0.55207 -0.37400
C 	C 	0.04741 0.02564 0.83884 -0.18200
C 	C 	0.03017 0.97010 0.82094 0.10600
C 	C 	0.05854 0.99675 0.78694 -0.00600
O 	O 	0.00739 0.02287 0.89247 -0.20800
H 	H 	0.11044 0.09296 0.83709 0.12200
H 	H 	0.09865 0.06477 0.76974 0.05200
C 	C 	0.09808 0.99618 0.32767 0.21100
C 	C 	0.12095 0.05330 0.34657 -0.13800
O 	O 	0.12048 0.02583 0.29004 -0.23400
C 	C 	0.08644 0.04971 0.40247 -0.10700
H 	H 	0.18011 0.12224 0.34096 0.11100
H 	H 	0.15805 0.10191 0.41404 0.09400
C 	C 	0.13065 0.35278 0.60599 0.11100
Br	Br	0.12015 0.35697 0.55153 -0.13700
Br	Br	0.08057 0.47493 0.56276 -0.12000
C 	C 	0.18564 0.72243 0.68323 0.11100
C 	C 	0.25219 0.81431 0.67089 -0.09600
C 	C 	0.20014 0.66555 0.68422 0.08400
Br	Br	0.11379 0.54023 0.70427 -0.09800
C 	C 	0.04501 0.27189 0.15028 0.13400
C 	C 	0.07516 0.35367 0.14976 0.08200
Br	Br	0.06053 0.36357 0.19336 -0.10100
C 	C 	0.17168 0.73953 0.16527 0.11500
C 	C 	0.21550 0.82465 0.13808 -0.09500
Br	Br	0.12462 0.71615 0.20779 -0.11400
C 	C 	0.13170 0.41478 0.61035 0.08300
C 	C 	0.15353 0.29867 0.64192 -0.10100
C 	C 	0.07446 0.26820 0.12373 -0.10400
C 	C 	0.17799 0.67671 0.16615 0.08700
Br	Br	0.13114 0.56545 0.20721 -0.09700
O 	O 	0.06206 0.99552 0.60497 -0.53500
O 	O 	0.03478 0.94803 0.20700 -0.33300
O 	O 	0.00661 0.92542 0.70728 -0.31700
C 	C 	0.06103 0.01944 0.37071 0.03000
C 	C 	0.05246 0.94750 0.27642 0.13000
O 	O 	0.03653 0.01079 0.48634 -0.37700
C 	C 	0.04825 0.97189 0.47291 0.29800
O 	O 	0.07290 0.78644 0.57934 -0.38000
C 	C 	0.12025 0.42883 0.11878 -0.03700
O 	O 	0.05531 0.90685 0.49857 -0.34500
N 	N 	0.17281 0.56176 0.13076 -0.11300
C 	C 	0.11327 0.34345 0.09054 0.11700
C 	C 	0.12263 0.41828 0.08550 0.08400
O 	O 	0.01412 0.76687 0.06585 -0.37700
Co	Co	0.04697 0.87544 0.61246 1.19900
C 	C 	0.02570 0.90797 0.33677 0.05500
C 	C 	0.29095 0.11924 0.53693 0.35000
C 	C 	0.19686 0.09265 0.01720 0.33200
C 	C 	0.19463 0.51489 0.12956 0.18300
N 	N 	0.23102 0.57136 0.66148 -0.11100
C 	C 	0.17964 0.44029 0.64823 -0.03600
C 	C 	0.20111 0.38583 0.68450 0.08100
C 	C 	0.19220 0.31765 0.68120 0.11400
C 	C 	0.28735 0.70229 0.67845 -0.03600
Br	Br	0.14224 0.50795 0.03391 -0.11100
C 	C 	0.22457 0.69825 0.13876 -0.03900
Br	Br	0.09711 0.67785 0.71179 -0.11400
Br	Br	0.16751 0.35188 0.05622 -0.13100
C 	C 	0.27808 0.84939 0.11850 0.10400
Br	Br	0.29932 0.25793 0.44629 -0.16800
Br	Br	0.22256 0.20973 0.92463 -0.13800
C 	C 	0.24405 0.63882 0.14327 0.18400
C 	C 	0.29552 0.65934 0.66042 0.17600
C 	C 	0.24306 0.53533 0.64547 0.18400
Br	Br	0.24332 0.25771 0.72921 -0.16300
Br	Br	0.24938 0.40912 0.73821 -0.11700
C 	C 	0.34519 0.84743 0.67541 0.11100
C 	C 	0.27143 0.78471 0.11365 0.08200
C 	C 	0.02187 0.97982 0.42736 0.12900
N 	N 	0.28630 0.54656 0.13920 -0.12700
C 	C 	0.36392 0.78954 0.68250 0.08500
C 	C 	0.29533 0.16483 0.01411 -0.13000
N 	N 	0.31914 0.58612 0.62956 -0.12600
Br	Br	0.32179 0.81365 0.07090 -0.12500
N 	N 	0.33566 0.66865 0.15350 -0.11800
C 	C 	0.31642 0.20518 0.97465 0.13200
C 	C 	0.35668 0.62412 0.15001 0.19000
N 	N 	0.37075 0.70901 0.64368 -0.12100
C 	C 	0.38471 0.19661 0.52939 -0.11800
Br	Br	0.34543 0.13724 0.10440 -0.17100
Br	Br	0.37784 0.97168 0.10156 -0.09500
C 	C 	0.38526 0.67141 0.63056 0.19000
Br	Br	0.39300 0.69683 0.06105 -0.10800
C 	C 	0.39484 0.24180 0.48801 0.11800
C 	C 	0.36887 0.17685 0.05063 0.12100
Br	Br	0.40782 0.74524 0.53873 -0.11000
Br	Br	0.45716 0.17189 0.61905 -0.15500
C 	C 	0.40567 0.24201 0.97189 0.09900
Br	Br	0.43163 0.28845 0.91790 -0.12700
C 	C 	0.00689 0.95158 0.23122 0.27800
Br	Br	0.44716 0.96921 0.67563 -0.09100
C 	C 	0.45440 0.66567 0.15180 -0.04300
C 	C 	0.45938 0.21694 0.04790 0.08600
O 	O 	0.99532 0.08803 0.02870 -0.44900
C 	C 	0.46493 0.21079 0.56211 0.11700
Co	Co	0.99691 0.85224 0.10708 1.18500
C 	C 	0.98234 0.99005 0.86056 0.21600
Br	Br	0.83666 0.73667 0.47997 -0.13800
C 	C 	0.99484 0.92556 0.76893 0.04400
Br	Br	0.90380 0.24338 0.98929 -0.12800
Co	Co	0.96210 0.05397 0.08167 1.17300
Br	Br	0.95452 0.16673 0.18332 -0.25900
O 	O 	0.95077 0.98098 0.97255 -0.29900
C 	C 	0.93401 0.94893 0.91311 0.09400
O 	O 	0.92810 0.94406 0.21700 -0.35400
O 	O 	0.90703 0.95195 0.69952 -0.35500
C 	C 	0.97332 0.94036 0.72308 0.27500
C 	C 	0.69122 0.28135 0.01639 0.18000
N 	N 	0.59783 0.24583 0.00709 -0.12500
C 	C 	0.57187 0.29108 0.00581 0.19000
N 	N 	0.63855 0.37383 0.01087 -0.12600
C 	C 	0.73156 0.40932 0.02118 0.18300
N 	N 	0.75859 0.36305 0.02420 -0.11800
C 	C 	0.76644 0.32995 0.50850 0.18000
N 	N 	0.67301 0.29336 0.50030 -0.12200
C 	C 	0.64684 0.33608 0.50148 0.18900
N 	N 	0.71261 0.41994 0.50495 -0.12400
C 	C 	0.80587 0.45656 0.51490 0.18500
N 	N 	0.83376 0.41107 0.51742 -0.11200
Co	Co	0.93783 0.90126 0.15297 1.18900
C 	C 	0.92775 0.71487 0.07100 0.31800
Co	Co	0.90066 0.01914 0.15946 1.16600
O 	O 	0.93183 0.98741 0.12783 -0.73400
O 	O 	0.95546 0.81425 0.15823 -0.43000
O 	O 	0.94545 0.93407 0.08732 -0.55400
C 	C 	0.74221 0.83091 0.15398 0.33100
C 	C 	0.94922 0.93303 0.95864 0.26400
O 	O 	0.76413 0.90828 0.14848 -0.33400
O 	O 	0.80781 0.81699 0.16884 -0.35300
O 	O 	0.95959 0.87014 0.98463 -0.35200
C 	C 	0.82352 0.08271 0.06831 0.32900
O 	O 	0.86947 0.09965 0.10531 -0.38100
O 	O 	0.84051 0.05001 0.05440 -0.37200
O 	O 	0.90304 0.73610 0.08793 -0.35400
Co	Co	0.95917 0.92126 0.64432 1.19800
C 	C 	0.98208 0.74401 0.57395 0.32000
Co	Co	0.92087 0.04709 0.64379 1.15800
O 	O 	0.98103 0.02174 0.62434 -0.79000
O 	O 	0.97039 0.82828 0.65156 -0.43100
C 	C 	0.76259 0.86971 0.62540 0.33400
O 	O 	0.78854 0.95008 0.61673 -0.33400
O 	O 	0.81400 0.85651 0.62121 -0.36200
C 	C 	0.89408 0.13560 0.55311 0.33900
O 	O 	0.92627 0.14617 0.59063 -0.40000
O 	O 	0.91604 0.09943 0.54444 -0.37100
O 	O 	0.95187 0.77536 0.58078 -0.36100
C 	C 	0.94994 0.88487 0.82257 0.08400
C 	C 	0.88470 0.84973 0.84400 -0.03900
C 	C 	0.90128 0.90553 0.86135 -0.00800
O 	O 	0.92439 0.85122 0.79100 -0.14000
C 	C 	0.87040 0.87884 0.89438 -0.04000
H 	H 	0.82161 0.78242 0.84575 0.09600
H 	H 	0.82677 0.81062 0.91048 0.09500
C 	C 	0.98502 0.93265 0.37751 0.15500
C 	C 	0.96504 0.87482 0.36030 -0.09300
C 	C 	0.99813 0.87654 0.30516 -0.09700
O 	O 	0.95419 0.90332 0.41236 -0.17000
H 	H 	0.90499 0.80621 0.36545 0.11200
H 	H 	0.92801 0.81848 0.29688 0.10200
C 	C 	0.54691 0.70960 0.66653 0.08800
C 	C 	0.48065 0.71417 0.62899 -0.04400
C 	C 	0.50210 0.74840 0.59019 0.08900
C 	C 	0.59318 0.78626 0.58923 0.12900
C 	C 	0.66387 0.79659 0.62658 -0.10400
C 	C 	0.63859 0.75034 0.66517 0.11300
Br	Br	0.72827 0.73960 0.71559 -0.15300
Br	Br	0.51080 0.64483 0.71945 -0.12100
Br	Br	0.62012 0.81855 0.53772 -0.11400
Br	Br	0.49194 0.82364 0.70532 -0.11600
C 	C 	0.61447 0.71201 0.19210 0.12100
C 	C 	0.64392 0.75487 0.15452 -0.10300
C 	C 	0.57622 0.74177 0.11630 0.11900
C 	C 	0.48205 0.70033 0.11455 0.08900
C 	C 	0.51942 0.66736 0.19073 0.08500
Br	Br	0.47828 0.60920 0.24193 -0.12400
Br	Br	0.70568 0.71927 0.24516 -0.15200
Br	Br	0.61454 0.78558 0.06606 -0.15300
C 	C 	0.74294 0.18503 0.53534 0.08000
C 	C 	0.79342 0.27508 0.51392 -0.03700
C 	C 	0.85601 0.30645 0.49164 0.08500
C 	C 	0.87501 0.25023 0.49544 0.11800
C 	C 	0.83270 0.16446 0.52164 -0.10400
C 	C 	0.75267 0.12895 0.53260 0.11100
Br	Br	0.65682 0.00463 0.54348 -0.18300
Br	Br	0.67225 0.14076 0.57327 -0.15800
Br	Br	0.94490 0.28424 0.46012 -0.13500
Br	Br	0.91029 0.42228 0.45435 -0.12200
C 	C 	0.88437 0.66768 0.51662 0.10600
C 	C 	0.91527 0.66169 0.55974 -0.09800
C 	C 	0.91268 0.58707 0.58755 0.11000
C 	C 	0.90218 0.53136 0.57267 0.08600
C 	C 	0.87376 0.53856 0.52932 -0.04100
C 	C 	0.87372 0.61226 0.50147 0.08500
Br	Br	0.85149 0.63275 0.44231 -0.14800
Br	Br	0.92368 0.44359 0.61163 -0.13000
Br	Br	0.89881 0.54957 0.64280 -0.13000
C 	C 	0.47859 0.28190 0.47834 0.08100
C 	C 	0.55587 0.28578 0.51092 -0.04500
C 	C 	0.55095 0.25538 0.55303 0.08300
Br	Br	0.48734 0.33077 0.42082 -0.13900
Br	Br	0.66257 0.27852 0.59793 -0.12400
C 	C 	0.68884 0.08207 0.05309 0.07900
C 	C 	0.76564 0.11574 0.04016 -0.09700
C 	C 	0.80740 0.20011 0.01254 0.09900
C 	C 	0.78137 0.25407 0.00354 0.07300
C 	C 	0.71837 0.22548 0.02446 -0.04300
C 	C 	0.67515 0.13981 0.05080 0.09000
Br	Br	0.61673 0.10882 0.09060 -0.14300
Br	Br	0.61012 0.95859 0.07870 -0.09000
Br	Br	0.83054 0.36530 0.96248 -0.10700
C 	C 	0.81301 0.62328 0.01999 0.09600
C 	C 	0.86200 0.62837 0.06157 -0.10100
C 	C 	0.87149 0.56041 0.09007 0.11200
C 	C 	0.84393 0.49477 0.07556 0.08300
C 	C 	0.80096 0.49404 0.03281 -0.04200
C 	C 	0.79474 0.56414 0.00466 0.07200
Br	Br	0.75548 0.57547 0.94524 -0.12900
Br	Br	0.75498 0.68398 0.98715 -0.14400
Br	Br	0.86287 0.40504 0.11429 -0.12600
Br	Br	0.90897 0.55059 0.14907 -0.13800
C 	C 	0.47614 0.24493 0.00865 -0.06500
Br	Br	0.56121 0.23575 0.09775 -0.12400
