data_crystal

_cell_length_a 35.22762
_cell_length_b 35.74872
_cell_length_c 26.62532
_cell_angle_alpha 95.52872
_cell_angle_beta  95.52771
_cell_angle_gamma 125.36977

_symmetry_space_group_name_	'P 1'
_symmetry_space_group_name_H-M	'P 1'

loop_
_symmetry_equiv_pos_as_xyz
  x,y,z

loop_
_atom_site_label
_atom_site_type_symbol
_atom_site_fract_x
_atom_site_fract_y
_atom_site_fract_z
_atom_site_charge
C 	C 	0.98202 0.02586 0.98313 0.12300
N 	N 	0.02909 0.04910 0.98294 -0.13900
C 	C 	0.04771 0.02509 0.97608 0.12300
N 	N 	0.99928 0.02312 0.42912 -0.14000
Cu	Cu	0.66167 0.27263 0.99847 0.93700
Cu	Cu	0.70084 0.27559 0.89138 0.88100
Cu	Cu	0.67986 0.34096 0.92772 0.90500
Cu	Cu	0.65934 0.35792 0.02924 0.89900
C 	C 	0.67340 0.30800 0.10463 0.29400
O 	O 	0.59258 0.24456 0.99866 -0.31800
C 	C 	0.67135 0.31183 0.81781 0.29800
O 	O 	0.69745 0.34448 0.99939 -0.63700
O 	O 	0.65332 0.27394 0.92454 -0.63900
O 	O 	0.69149 0.23948 0.99699 -0.34600
O 	O 	0.74430 0.28791 0.95010 -0.42000
O 	O 	0.65180 0.32644 0.08963 -0.34100
O 	O 	0.71065 0.40724 0.93303 -0.33800
C 	C 	0.70792 0.43431 0.96768 0.29800
C 	C 	0.57225 0.26216 0.97765 0.28500
O 	O 	0.59855 0.30548 0.97035 -0.38400
O 	O 	0.68598 0.41894 0.00679 -0.38500
O 	O 	0.67987 0.28327 0.07131 -0.31800
C 	C 	0.73145 0.25717 0.98029 0.28700
O 	O 	0.66489 0.33516 0.85332 -0.32400
O 	O 	0.67239 0.27680 0.82707 -0.39000
H 	H 	0.73188 0.36624 0.01349 0.17500
H 	H 	0.62058 0.25198 0.90467 0.18300
Cu	Cu	0.72256 0.33335 0.42818 0.93500
Cu	Cu	0.71607 0.29155 0.53368 0.88300
Cu	Cu	0.64952 0.31152 0.49569 0.90500
Cu	Cu	0.63679 0.33676 0.39527 0.89900
C 	C 	0.68860 0.32337 0.32167 0.29200
O 	O 	0.75215 0.40213 0.43057 -0.32100
C 	C 	0.67612 0.31723 0.60592 0.30000
O 	O 	0.64916 0.29791 0.42408 -0.64000
O 	O 	0.71817 0.33899 0.50155 -0.63800
O 	O 	0.75523 0.30283 0.42978 -0.34400
O 	O 	0.70386 0.24963 0.47421 -0.41800
O 	O 	0.67052 0.34537 0.33633 -0.34600
O 	O 	0.58176 0.28009 0.48694 -0.34000
C 	C 	0.55538 0.28089 0.44881 0.28800
C 	C 	0.73322 0.42153 0.45033 0.28300
O 	O 	0.68891 0.39500 0.45629 -0.38400
O 	O 	0.57450 0.31040 0.41684 -0.38000
O 	O 	0.71445 0.31797 0.35520 -0.30700
C 	C 	0.73574 0.26258 0.44491 0.28700
O 	O 	0.65188 0.32263 0.56997 -0.32900
O 	O 	0.71294 0.31817 0.59758 -0.38700
H 	H 	0.62755 0.26437 0.40811 0.17700
H 	H 	0.73954 0.37089 0.52250 0.18300
C 	C 	0.62951 0.27993 0.72725 0.05200
C 	C 	0.66674 0.31800 0.76419 -0.00000
C 	C 	0.70253 0.35928 0.74856 -0.10100
C 	C 	0.70294 0.35962 0.69580 0.05200
C 	C 	0.66817 0.31987 0.65900 -0.00000
C 	C 	0.62956 0.28058 0.67452 -0.10200
C 	C 	0.58959 0.23861 0.63497 0.77900
H 	H 	0.60157 0.24907 0.73977 0.07600
H 	H 	0.73139 0.39008 0.68322 0.07500
C 	C 	0.74057 0.40260 0.78801 0.77800
F 	F 	0.55387 0.20516 0.65756 -0.44900
F 	F 	0.60696 0.21829 0.60808 -0.47200
F 	F 	0.56994 0.25257 0.60102 -0.45300
F 	F 	0.76572 0.39260 0.81988 -0.47300
F 	F 	0.71969 0.41751 0.81717 -0.44800
F 	F 	0.77237 0.43898 0.76507 -0.45100
C 	C 	0.72325 0.34249 0.19140 0.04500
C 	C 	0.68046 0.30608 0.15937 0.00300
C 	C 	0.64290 0.27119 0.18080 -0.09400
C 	C 	0.64739 0.27622 0.23453 0.04600
C 	C 	0.68895 0.31449 0.26668 0.00300
C 	C 	0.72807 0.34713 0.24517 -0.09300
C 	C 	0.77443 0.38742 0.27943 0.77900
H 	H 	0.75210 0.36825 0.17432 0.06900
H 	H 	0.61784 0.25138 0.25152 0.06600
C 	C 	0.59711 0.23003 0.14654 0.77900
F 	F 	0.80827 0.41503 0.25113 -0.44900
F 	F 	0.79234 0.37019 0.31057 -0.44000
F 	F 	0.76691 0.41536 0.30978 -0.45200
F 	F 	0.60689 0.20861 0.10931 -0.44600
F 	F 	0.57314 0.24545 0.12301 -0.45400
F 	F 	0.56767 0.19683 0.17420 -0.45100
C 	C 	0.75904 0.47275 0.45809 -0.07000
C 	C 	0.74385 0.49451 0.48819 0.01500
H 	H 	0.80855 0.48342 0.40859 0.08700
H 	H 	0.71592 0.47463 0.50957 0.04400
C 	C 	0.75254 0.23383 0.43290 -0.08100
C 	C 	0.72356 0.18589 0.43441 0.02000
C 	C 	0.74138 0.15978 0.42918 -0.06500
C 	C 	0.78817 0.18123 0.42223 0.04800
C 	C 	0.81654 0.22855 0.41849 -0.06400
C 	C 	0.79881 0.25478 0.42370 0.02100
C 	C 	0.80798 0.15550 0.42230 -0.02300
C 	C 	0.82450 0.13390 0.42236 0.00700
C 	C 	0.84431 0.10905 0.42342 0.00300
C 	C 	0.86186 0.08845 0.42502 -0.02000
C 	C 	0.88378 0.06475 0.42765 0.03600
C 	C 	0.85956 0.01865 0.40151 -0.05400
C 	C 	0.92780 0.01975 0.43081 -0.02400
C 	C 	0.95162 0.06570 0.45762 -0.01200
C 	C 	0.92968 0.08806 0.45598 -0.05300
H 	H 	0.68754 0.16904 0.44051 0.04500
H 	H 	0.71912 0.12310 0.43165 0.05900
H 	H 	0.85268 0.24531 0.41280 0.06100
H 	H 	0.82154 0.29164 0.42223 0.05500
H 	H 	0.98715 0.08412 0.47963 0.04300
H 	H 	0.94850 0.12361 0.47652 0.05100
C 	C 	0.50376 0.25361 0.44677 -0.06700
C 	C 	0.47296 0.23795 0.39948 0.01700
C 	C 	0.42412 0.21290 0.39754 -0.06100
C 	C 	0.40568 0.20326 0.44275 0.04700
C 	C 	0.43622 0.21856 0.48997 -0.05400
C 	C 	0.48509 0.24366 0.49205 0.01900
C 	C 	0.35540 0.17774 0.44066 -0.01900
C 	C 	0.31328 0.15637 0.43863 0.00800
C 	C 	0.26392 0.13120 0.43606 0.00500
C 	C 	0.22174 0.10950 0.43379 -0.01900
C 	C 	0.17132 0.08324 0.43109 0.03600
C 	C 	0.14109 0.03740 0.40330 -0.05200
C 	C 	0.09225 0.01133 0.40185 -0.01300
C 	C 	0.07327 0.03097 0.42832 -0.02200
C 	C 	0.10366 0.07719 0.45561 -0.01200
C 	C 	0.15251 0.10319 0.45698 -0.05200
H 	H 	0.48680 0.24501 0.36423 0.04100
H 	H 	0.40067 0.20102 0.36087 0.05800
H 	H 	0.42217 0.21123 0.52509 0.06800
H 	H 	0.50841 0.25590 0.52885 0.08900
H 	H 	0.15541 0.02184 0.38302 0.05200
H 	H 	0.08957 0.09270 0.47645 0.04300
H 	H 	0.17572 0.13866 0.47852 0.05200
C 	C 	0.75973 0.23956 0.99162 -0.07600
C 	C 	0.73874 0.19594 0.00657 0.01400
C 	C 	0.76405 0.17715 0.01210 -0.06000
C 	C 	0.81048 0.20176 0.00290 0.04100
C 	C 	0.83218 0.24602 0.99001 -0.05800
C 	C 	0.80700 0.26495 0.98450 0.01500
C 	C 	0.83472 0.18034 0.00340 -0.02000
C 	C 	0.85504 0.16244 0.00382 0.00300
C 	C 	0.87841 0.14106 0.00328 0.00700
C 	C 	0.89796 0.12240 0.00208 -0.02800
C 	C 	0.92080 0.09961 0.99983 0.04600
C 	C 	0.90311 0.05923 0.02074 -0.05900
C 	C 	0.92348 0.03548 0.01593 -0.01400
C 	C 	0.96171 0.05193 0.99001 -0.02000
C 	C 	0.97983 0.09288 0.96982 -0.01000
C 	C 	0.95940 0.11658 0.97472 -0.05600
H 	H 	0.70245 0.17601 0.01250 0.05500
H 	H 	0.74715 0.14299 0.02237 0.05900
H 	H 	0.86823 0.26540 0.98326 0.05700
H 	H 	0.82401 0.29900 0.97394 0.04500
H 	H 	0.87332 0.04599 0.04031 0.05200
H 	H 	0.00913 0.10587 0.94953 0.04200
H 	H 	0.97320 0.14777 0.95840 0.05300
C 	C 	0.09878 0.05022 0.97601 -0.02300
C 	C 	0.12298 0.08992 0.95318 -0.01200
C 	C 	0.17086 0.11219 0.95084 -0.05200
C 	C 	0.19482 0.09501 0.97132 0.03500
C 	C 	0.17099 0.05592 0.99484 -0.04800
C 	C 	0.12319 0.03361 0.99723 -0.00800
C 	C 	0.24372 0.11707 0.96779 -0.01800
C 	C 	0.28464 0.13488 0.96534 0.00600
C 	C 	0.33257 0.15511 0.96325 0.00900
C 	C 	0.37357 0.17203 0.96231 -0.01700
C 	C 	0.42267 0.19198 0.96242 0.04600
C 	C 	0.44883 0.22781 0.93508 -0.06000
C 	C 	0.49739 0.24957 0.93838 0.01600
C 	C 	0.52018 0.23579 0.96938 -0.06900
C 	C 	0.49339 0.19871 0.99530 0.02700
C 	C 	0.44488 0.17700 0.99184 -0.05000
H 	H 	0.10455 0.10299 0.93647 0.04300
H 	H 	0.18915 0.14250 0.93272 0.05200
H 	H 	0.18943 0.04266 0.01104 0.05000
H 	H 	0.43175 0.23930 0.91192 0.05800
H 	H 	0.51736 0.27755 0.91746 0.04500
H 	H 	0.51032 0.18754 0.01925 0.08500
H 	H 	0.42476 0.14913 0.01286 0.06500
H 	H 	0.68296 0.48960 0.00340 0.03800
C 	C 	0.79618 0.49951 0.43171 0.02000
C 	C 	0.72980 0.48327 0.96248 -0.06900
H 	H 	0.78161 0.48861 0.91986 0.08000
C 	C 	0.71295 0.50723 0.98411 0.02700
C 	C 	0.76817 0.50655 0.93670 0.03100
H 	H 	0.10513 0.00339 0.01551 0.04100
C 	C 	0.76380 0.54177 0.48962 -0.06100
C 	C 	0.81609 0.54675 0.43329 -0.05500
H 	H 	0.75098 0.55790 0.51185 0.05800
C 	C 	0.73484 0.55410 0.98093 -0.06500
H 	H 	0.90954 0.00431 0.03230 0.04200
C 	C 	0.78996 0.55344 0.93356 -0.05600
H 	H 	0.84380 0.56673 0.41167 0.06700
C 	C 	0.79928 0.56771 0.46136 0.04700
H 	H 	0.72189 0.57239 0.99820 0.05800
H 	H 	0.81990 0.57126 0.91418 0.07100
C 	C 	0.77359 0.57739 0.95605 0.05100
C 	C 	0.02197 0.00275 0.42865 0.12100
H 	H 	0.82400 0.00037 0.37962 0.05200
C 	C 	0.88144 0.99616 0.40310 -0.01100
H 	H 	0.06920 0.97593 0.38016 0.04400
C 	C 	0.95215 0.99727 0.43006 0.12300
N 	N 	0.01916 0.97777 0.96947 -0.13900
C 	C 	0.97214 0.95438 0.96967 0.12400
N 	N 	0.95361 0.97848 0.97648 -0.13900
N 	N 	0.92767 0.95080 0.43048 -0.13900
C 	C 	0.95029 0.93030 0.42982 0.12200
N 	N 	0.99739 0.95637 0.42896 -0.13900
C 	C 	0.92401 0.87994 0.43016 -0.02200
C 	C 	0.93399 0.85322 0.40008 -0.01200
C 	C 	0.91309 0.80676 0.40445 -0.05200
C 	C 	0.88206 0.78659 0.43883 0.03600
C 	C 	0.87078 0.81263 0.46773 -0.05200
C 	C 	0.89162 0.85918 0.46335 -0.01200
C 	C 	0.86320 0.73971 0.44568 -0.01900
C 	C 	0.84801 0.70042 0.45055 0.00500
C 	C 	0.83087 0.65440 0.45539 0.00800
C 	C 	0.81648 0.61500 0.45866 -0.01900
H 	H 	0.95844 0.86865 0.37385 0.04300
H 	H 	0.92164 0.78669 0.38166 0.05300
H 	H 	0.84658 0.79716 0.49420 0.05200
H 	H 	0.88366 0.87941 0.48681 0.04400
H 	H 	0.86273 0.96082 0.38203 0.04400
C 	C 	0.79758 0.62629 0.95520 -0.01900
C 	C 	0.81751 0.66723 0.95462 0.01000
C 	C 	0.84120 0.71530 0.95458 0.00500
C 	C 	0.86190 0.75648 0.95498 -0.01700
C 	C 	0.88732 0.80581 0.95590 0.03500
C 	C 	0.92332 0.82810 0.92720 -0.05100
C 	C 	0.95029 0.87649 0.93074 -0.01100
C 	C 	0.94148 0.90301 0.96317 -0.02300
C 	C 	0.90458 0.88040 0.99095 -0.00800
C 	C 	0.87765 0.83196 0.98734 -0.04900
H 	H 	0.93084 0.80804 0.90265 0.05400
H 	H 	0.97819 0.89339 0.90854 0.04500
H 	H 	0.89747 0.90041 0.01622 0.03900
H 	H 	0.84981 0.81491 0.00960 0.04700
