data_crystal

_cell_length_a 26.06792
_cell_length_b 26.41424
_cell_length_c 26.49784
_cell_angle_alpha 95.49398
_cell_angle_beta  95.49408
_cell_angle_gamma 125.88736

_symmetry_space_group_name_	'P 1'
_symmetry_space_group_name_H-M	'P 1'

loop_
_symmetry_equiv_pos_as_xyz
  x,y,z

loop_
_atom_site_label
_atom_site_type_symbol
_atom_site_fract_x
_atom_site_fract_y
_atom_site_fract_z
_atom_site_charge
C 	C 	0.97846 0.04453 0.99803 0.15400
N 	N 	0.93993 0.98005 0.99039 -0.12200
C 	C 	0.96626 0.94849 0.99054 0.16100
N 	N 	0.03119 0.98138 0.99878 -0.12300
C 	C 	0.07002 0.04592 0.00722 0.16400
N 	N 	0.04364 0.07762 0.00647 -0.12000
C 	C 	0.93297 0.98869 0.42924 0.16400
N 	N 	0.99552 0.02116 0.42381 -0.12800
C 	C 	0.02440 0.99205 0.42371 0.17400
N 	N 	0.98992 0.92953 0.42642 -0.12600
C 	C 	0.92666 0.89604 0.42960 0.16300
N 	N 	0.89829 0.92583 0.43182 -0.12900
Cu	Cu	0.66208 0.27326 0.01185 0.93800
Cu	Cu	0.67312 0.23555 0.89432 0.91000
Cu	Cu	0.66339 0.35103 0.93336 0.91900
Cu	Cu	0.65342 0.38679 0.04204 0.90900
C 	C 	0.68222 0.32488 0.11851 0.30500
O 	O 	0.57009 0.22692 0.02414 -0.28300
C 	C 	0.66066 0.31050 0.83036 0.30900
O 	O 	0.69935 0.36710 0.00474 -0.63500
O 	O 	0.63264 0.26212 0.93698 -0.62500
O 	O 	0.71949 0.24604 0.00979 -0.33400
O 	O 	0.66687 0.17643 0.93321 -0.36700
O 	O 	0.67572 0.36961 0.10968 -0.34600
O 	O 	0.69968 0.43869 0.93151 -0.34100
C 	C 	0.70493 0.47783 0.97013 0.30600
C 	C 	0.53600 0.24744 0.01195 0.31300
O 	O 	0.56342 0.30255 0.99749 -0.37400
O 	O 	0.66857 0.45589 0.00553 -0.35900
O 	O 	0.69862 0.30003 0.08392 -0.30900
C 	C 	0.70610 0.19696 0.97757 0.31100
O 	O 	0.63676 0.33187 0.85934 -0.32100
O 	O 	0.70036 0.30007 0.85208 -0.38000
H 	H 	0.74680 0.39924 0.01339 0.19000
H 	H 	0.58518 0.23175 0.92655 0.20800
Cu	Cu	0.73510 0.33156 0.44097 0.94000
Cu	Cu	0.72202 0.26917 0.54429 0.89000
Cu	Cu	0.62801 0.28935 0.50350 0.90900
Cu	Cu	0.61796 0.33376 0.40575 0.90600
C 	C 	0.69519 0.32481 0.33387 0.29100
O 	O 	0.77489 0.42587 0.44730 -0.29400
C 	C 	0.66709 0.30263 0.61565 0.30400
O 	O 	0.63433 0.27995 0.43210 -0.63700
O 	O 	0.72305 0.33319 0.51365 -0.63400
O 	O 	0.77816 0.28895 0.44223 -0.32100
O 	O 	0.70356 0.21435 0.48262 -0.41500
O 	O 	0.66807 0.35168 0.34879 -0.33500
O 	O 	0.53524 0.24200 0.48882 -0.34600
C 	C 	0.50276 0.24755 0.45118 0.31600
C 	C 	0.74509 0.44845 0.46481 0.31200
O 	O 	0.68535 0.40850 0.47073 -0.36700
O 	O 	0.53214 0.29474 0.42552 -0.36700
O 	O 	0.72923 0.31658 0.36768 -0.29200
C 	C 	0.74836 0.23239 0.45475 0.30800
O 	O 	0.62049 0.28448 0.57669 -0.34300
O 	O 	0.71729 0.30431 0.60830 -0.35200
H 	H 	0.60691 0.23543 0.41305 0.19100
H 	H 	0.74912 0.37581 0.53612 0.22500
C 	C 	0.70165 0.36683 0.75778 0.06100
C 	C 	0.65464 0.31174 0.77483 0.00300
C 	C 	0.60485 0.25685 0.73852 -0.09400
C 	C 	0.60731 0.25601 0.68566 0.05600
C 	C 	0.65711 0.30969 0.66887 0.00600
C 	C 	0.70181 0.36711 0.70476 -0.09000
C 	C 	0.75184 0.42777 0.68698 0.78100
H 	H 	0.73904 0.40898 0.78593 0.08700
H 	H 	0.57244 0.21267 0.65770 0.08500
C 	C 	0.55140 0.19804 0.75630 0.77900
F 	F 	0.77616 0.48087 0.72425 -0.42300
F 	F 	0.72492 0.43389 0.64254 -0.43900
F 	F 	0.80218 0.42637 0.67718 -0.43200
F 	F 	0.52375 0.21429 0.79000 -0.43400
F 	F 	0.57660 0.17133 0.78118 -0.46800
F 	F 	0.50322 0.15276 0.71529 -0.42400
C 	C 	0.64759 0.26501 0.24420 0.05300
C 	C 	0.70024 0.31820 0.27918 0.01400
C 	C 	0.75212 0.36919 0.26060 -0.08600
C 	C 	0.74664 0.36896 0.20722 0.05700
C 	C 	0.69143 0.31810 0.17252 0.01100
C 	C 	0.64296 0.26395 0.19069 -0.09200
C 	C 	0.58424 0.20704 0.15352 0.78100
H 	H 	0.60865 0.22588 0.25894 0.08000
H 	H 	0.78420 0.40941 0.19265 0.08900
C 	C 	0.81196 0.42502 0.29774 0.78100
F 	F 	0.54644 0.15651 0.17796 -0.42500
F 	F 	0.60329 0.18649 0.11459 -0.42900
F 	F 	0.54714 0.22408 0.13225 -0.45000
F 	F 	0.83721 0.40320 0.32968 -0.41600
F 	F 	0.79625 0.45831 0.32750 -0.43300
F 	F 	0.85945 0.46658 0.27195 -0.42400
C 	C 	0.88998 0.82829 0.43282 -0.03000
C 	C 	0.88392 0.78469 0.39302 0.12800
C 	C 	0.86056 0.72352 0.40066 -0.06300
C 	C 	0.84144 0.70462 0.44723 0.02100
C 	C 	0.84460 0.74714 0.48613 0.09900
C 	C 	0.86891 0.80874 0.47879 -0.03000
H 	H 	0.85673 0.69040 0.37017 0.10200
C 	C 	0.81592 0.63941 0.45409 0.03500
H 	H 	0.87326 0.84201 0.50947 0.09000
C 	C 	0.85679 0.62829 0.48041 -0.06900
C 	C 	0.83404 0.56624 0.48504 0.16100
C 	C 	0.77015 0.51457 0.46214 -0.07100
C 	C 	0.72935 0.52601 0.43614 0.00500
C 	C 	0.75173 0.58797 0.43240 0.09000
H 	H 	0.90615 0.66790 0.49749 0.10200
H 	H 	0.68018 0.48653 0.41842 0.06300
Br	Br	0.81613 0.72197 0.54949 -0.15000
Br	Br	0.90560 0.80733 0.32743 -0.16800
Br	Br	0.88978 0.55360 0.52502 -0.13500
Br	Br	0.69368 0.60150 0.39781 -0.16200
C 	C 	0.90324 0.02198 0.43311 -0.03400
C 	C 	0.93533 0.08119 0.46665 0.12400
C 	C 	0.91016 0.11555 0.46540 -0.06200
C 	C 	0.85079 0.08962 0.43377 0.02000
C 	C 	0.81741 0.02941 0.40169 0.09500
C 	C 	0.84409 0.99627 0.40105 -0.02700
H 	H 	0.93539 0.16133 0.49080 0.09300
C 	C 	0.82169 0.12361 0.43772 0.03100
H 	H 	0.81898 0.95067 0.37540 0.08600
C 	C 	0.82217 0.15619 0.39868 -0.07400
C 	C 	0.79713 0.19079 0.40299 0.15100
C 	C 	0.77447 0.19574 0.44821 -0.09100
C 	C 	0.77435 0.16315 0.48720 -0.00600
C 	C 	0.79639 0.12621 0.48164 0.08400
H 	H 	0.84102 0.15375 0.36454 0.10000
H 	H 	0.75664 0.16618 0.52188 0.05500
Br	Br	0.73465 0.99097 0.35953 -0.15800
Br	Br	0.00997 0.11316 0.51796 -0.15100
Br	Br	0.78960 0.22607 0.34507 -0.13400
Br	Br	0.78990 0.07813 0.53393 -0.17200
C 	C 	0.09422 0.02967 0.42680 -0.03200
C 	C 	0.13543 0.04877 0.47438 0.13000
C 	C 	0.20187 0.08361 0.47660 -0.06300
C 	C 	0.22773 0.10014 0.43178 0.02000
C 	C 	0.18655 0.08113 0.38419 0.10000
C 	C 	0.12001 0.04611 0.38194 -0.03000
H 	H 	0.23354 0.09838 0.51329 0.09800
C 	C 	0.29801 0.13813 0.43522 0.03200
H 	H 	0.08834 0.03145 0.34528 0.08800
C 	C 	0.32664 0.10724 0.42858 -0.07600
C 	C 	0.39356 0.14256 0.43347 0.15200
C 	C 	0.43241 0.20949 0.44567 -0.08700
C 	C 	0.40364 0.24032 0.45201 -0.00100
C 	C 	0.33676 0.20500 0.44689 0.08800
H 	H 	0.29681 0.05574 0.41944 0.09900
H 	H 	0.43336 0.29181 0.46129 0.08200
Br	Br	0.22040 0.10289 0.32204 -0.15900
Br	Br	0.10189 0.02874 0.53687 -0.15500
Br	Br	0.43067 0.09868 0.42117 -0.19100
Br	Br	0.29908 0.24883 0.45588 -0.15600
C 	C 	0.74061 0.54554 0.96726 -0.08500
C 	C 	0.80642 0.58236 0.96391 0.15300
C 	C 	0.84053 0.64752 0.96432 -0.07600
C 	C 	0.81001 0.67671 0.96920 0.03200
C 	C 	0.74396 0.63978 0.97138 0.08800
C 	C 	0.70957 0.57445 0.97029 -0.00200
H 	H 	0.89137 0.67593 0.96253 0.09900
C 	C 	0.84839 0.74637 0.97506 0.01500
H 	H 	0.65881 0.54624 0.97236 0.08200
C 	C 	0.85209 0.77373 0.93146 -0.06100
C 	C 	0.88994 0.83989 0.93622 0.12600
C 	C 	0.92478 0.87911 0.98494 -0.03400
C 	C 	0.92095 0.85175 0.02851 -0.02900
C 	C 	0.88276 0.78566 0.02385 0.10400
H 	H 	0.82574 0.74356 0.89387 0.09800
H 	H 	0.94770 0.88192 0.06606 0.08900
Br	Br	0.70042 0.67809 0.97720 -0.16300
Br	Br	0.85172 0.54552 0.96227 -0.19800
Br	Br	0.89470 0.87587 0.87564 -0.15500
Br	Br	0.87778 0.74978 0.08453 -0.16200
C 	C 	0.94939 0.07816 0.99742 -0.03300
C 	C 	0.92714 0.08571 0.95028 0.12500
C 	C 	0.88928 0.10732 0.94914 -0.06200
C 	C 	0.87337 0.12154 0.99476 0.01300
C 	C 	0.89739 0.11599 0.04216 0.10500
C 	C 	0.93543 0.09458 0.04329 -0.03000
H 	H 	0.87156 0.11233 0.91268 0.09100
C 	C 	0.83073 0.14124 0.99245 0.03300
H 	H 	0.95242 0.08874 0.07965 0.08500
C 	C 	0.76371 0.09494 0.98486 -0.07800
C 	C 	0.72247 0.11266 0.98123 0.15200
C 	C 	0.74838 0.17730 0.98478 -0.08800
C 	C 	0.81552 0.22360 0.99320 -0.00700
C 	C 	0.85665 0.20587 0.99687 0.08300
H 	H 	0.74367 0.04517 0.98191 0.09700
H 	H 	0.83573 0.27339 0.99593 0.06900
Br	Br	0.87764 0.13622 0.10553 -0.15600
Br	Br	0.94696 0.06548 0.88696 -0.16400
Br	Br	0.63128 0.04824 0.97361 -0.14200
Br	Br	0.94812 0.27057 0.00761 -0.15700
C 	C 	0.14045 0.08109 0.01530 -0.02400
C 	C 	0.17260 0.07171 0.05487 0.12700
C 	C 	0.23730 0.09660 0.05665 -0.06200
C 	C 	0.27095 0.13242 0.02016 0.02400
C 	C 	0.23973 0.14440 0.98211 0.09700
C 	C 	0.17471 0.11866 0.97981 -0.03600
H 	H 	0.26163 0.08859 0.08672 0.10200
C 	C 	0.33921 0.15829 0.02262 0.03700
H 	H 	0.15036 0.12640 0.94953 0.09200
C 	C 	0.35513 0.12590 0.99057 -0.07200
C 	C 	0.41979 0.15288 0.98884 0.15100
C 	C 	0.46906 0.21245 0.01992 -0.05800
C 	C 	0.45305 0.24292 0.05410 0.00900
C 	C 	0.38854 0.21634 0.05542 0.09200
H 	H 	0.31723 0.08068 0.96584 0.10100
H 	H 	0.49086 0.28846 0.07849 0.07800
Br	Br	0.28510 0.19566 0.93292 -0.15900
Br	Br	0.12977 0.02738 0.10808 -0.16800
Br	Br	0.43955 0.10923 0.94190 -0.14700
Br	Br	0.36869 0.26134 0.10070 -0.15800
