data_crystal

_cell_length_a 20.49003
_cell_length_b 20.48633
_cell_length_c 48.04448
_cell_angle_alpha 89.94361
_cell_angle_beta  89.94886
_cell_angle_gamma 119.37063

_symmetry_space_group_name_	'P 1'
_symmetry_space_group_name_H-M	'P 1'

loop_
_symmetry_equiv_pos_as_xyz
  x,y,z

loop_
_atom_site_label
_atom_site_type_symbol
_atom_site_fract_x
_atom_site_fract_y
_atom_site_fract_z
_atom_site_charge
C 	C 	0.56022 0.22273 0.87832 0.30200
C 	C 	0.80341 0.51812 0.90902 0.32600
C 	C 	0.75242 0.33022 0.85010 0.32800
C 	C 	0.61648 0.40036 0.94593 0.29300
C 	C 	0.86496 0.35098 0.92559 0.32400
C 	C 	0.68953 0.22059 0.96237 0.29800
Ni	Ni	0.67154 0.38322 0.88804 1.11100
Ni	Ni	0.75269 0.38610 0.94639 1.12100
Ni	Ni	0.71309 0.25454 0.90313 1.11800
O 	O 	0.56891 0.28812 0.88622 -0.38500
O 	O 	0.61748 0.20800 0.87807 -0.37100
O 	O 	0.84953 0.40484 0.93005 -0.39600
O 	O 	0.77941 0.47193 0.88812 -0.38400
O 	O 	0.78181 0.49295 0.93442 -0.37700
O 	O 	0.65940 0.19864 0.93737 -0.39400
O 	O 	0.69717 0.34549 0.85078 -0.37000
O 	O 	0.78008 0.32257 0.87320 -0.40200
O 	O 	0.73549 0.29289 0.96849 -0.38200
O 	O 	0.63674 0.42968 0.92036 -0.36700
O 	O 	0.65977 0.38299 0.96124 -0.38400
O 	O 	0.81093 0.28120 0.92266 -0.39100
O 	O 	0.69329 0.33084 0.91537 -0.71400
H 	H 	0.64413 0.30028 0.92430 0.16500
C 	C 	0.58639 0.44703 0.59237 0.29600
C 	C 	0.68377 0.24082 0.64174 0.32500
C 	C 	0.76481 0.48322 0.62123 0.30900
C 	C 	0.48792 0.19650 0.61888 0.29000
C 	C 	0.77548 0.32298 0.55945 0.32100
C 	C 	0.58719 0.27090 0.53119 0.29900
Ni	Ni	0.62303 0.34567 0.63011 1.11200
Ni	Ni	0.62615 0.23047 0.58496 1.12100
Ni	Ni	0.69221 0.40206 0.56837 1.12000
O 	O 	0.60488 0.43457 0.61777 -0.37700
O 	O 	0.61116 0.43086 0.56920 -0.38500
O 	O 	0.71161 0.25997 0.55797 -0.39600
O 	O 	0.63796 0.26389 0.65076 -0.37300
O 	O 	0.69998 0.24395 0.61527 -0.38700
O 	O 	0.64911 0.33777 0.53336 -0.38900
O 	O 	0.73676 0.41692 0.63243 -0.38200
O 	O 	0.74779 0.48983 0.59536 -0.38200
O 	O 	0.56238 0.22181 0.55203 -0.39000
O 	O 	0.51104 0.26560 0.62789 -0.37500
O 	O 	0.53645 0.17417 0.61127 -0.37800
O 	O 	0.77872 0.38269 0.57077 -0.39300
O 	O 	0.62974 0.32290 0.59290 -0.71700
H 	H 	0.57999 0.31186 0.58613 0.16100
C 	C 	0.93120 0.84705 0.73004 0.31000
C 	C 	0.15213 0.07865 0.80190 0.30000
C 	C 	0.93513 0.87197 0.81124 0.30900
C 	C 	0.15038 0.05612 0.72496 0.31100
C 	C 	0.93172 0.10110 0.78633 0.30100
C 	C 	0.91812 0.06568 0.72583 0.30300
Ni	Ni	0.05567 0.94488 0.76893 1.10500
Ni	Ni	0.05990 0.10582 0.75821 1.12000
Ni	Ni	0.90046 0.95060 0.76644 1.11600
O 	O 	0.00407 0.87741 0.73476 -0.38600
O 	O 	0.88571 0.85309 0.74846 -0.37600
O 	O 	0.00452 0.12727 0.78811 -0.39200
O 	O 	0.09697 0.00991 0.80402 -0.37700
O 	O 	0.14684 0.12746 0.78514 -0.36700
O 	O 	0.88732 0.99237 0.73021 -0.40700
O 	O 	0.97318 0.85915 0.79229 -0.37900
O 	O 	0.90338 0.91250 0.80533 -0.38000
O 	O 	0.99185 0.11119 0.72832 -0.37500
O 	O 	0.15163 0.01817 0.74691 -0.37800
O 	O 	0.12589 0.10487 0.72686 -0.37500
O 	O 	0.88539 0.02838 0.78697 -0.37200
O 	O 	0.00594 0.99863 0.75972 -0.71900
H 	H 	0.00392 0.99200 0.73937 0.13800
C 	C 	0.17199 0.70292 0.40349 0.29400
C 	C 	0.40003 0.71222 0.48449 0.31300
C 	C 	0.33987 0.84866 0.42595 0.30700
C 	C 	0.22026 0.54233 0.46726 0.29800
C 	C 	0.47097 0.74444 0.39591 0.33000
C 	C 	0.28624 0.55953 0.37990 0.30000
Ni	Ni	0.26432 0.70288 0.45530 1.11100
Ni	Ni	0.36079 0.62623 0.43293 1.12000
Ni	Ni	0.31789 0.71839 0.39045 1.12000
O 	O 	0.18279 0.71202 0.43099 -0.37700
O 	O 	0.20610 0.67507 0.38814 -0.38800
O 	O 	0.44251 0.67451 0.40403 -0.39200
O 	O 	0.33167 0.70153 0.48774 -0.37900
O 	O 	0.42433 0.70981 0.45948 -0.39400
O 	O 	0.31590 0.62945 0.36999 -0.37700
O 	O 	0.34481 0.81217 0.44740 -0.38500
O 	O 	0.31936 0.81604 0.40142 -0.38000
O 	O 	0.30258 0.54551 0.40516 -0.38600
O 	O 	0.19513 0.59094 0.46544 -0.37700
O 	O 	0.29277 0.56429 0.46498 -0.38600
O 	O 	0.42937 0.77643 0.39440 -0.39500
O 	O 	0.29796 0.66831 0.42533 -0.71400
H 	H 	0.25093 0.62251 0.42079 0.15800
C 	C 	0.39502 0.54202 0.08734 0.29900
C 	C 	0.21902 0.68349 0.13181 0.32300
C 	C 	0.20201 0.47369 0.09325 0.30600
C 	C 	0.43035 0.76388 0.13334 0.29900
C 	C 	0.22150 0.66189 0.03899 0.31600
C 	C 	0.43259 0.75723 0.04291 0.29700
Ni	Ni	0.31092 0.60552 0.12368 1.11200
Ni	Ni	0.32453 0.74403 0.08568 1.11900
Ni	Ni	0.31195 0.59881 0.05630 1.11800
O 	O 	0.36109 0.53966 0.11158 -0.37100
O 	O 	0.40019 0.58758 0.06712 -0.39600
O 	O 	0.26853 0.72863 0.04899 -0.38300
O 	O 	0.25937 0.65853 0.14455 -0.36600
O 	O 	0.22420 0.69346 0.10492 -0.38900
O 	O 	0.37884 0.69199 0.03289 -0.39200
O 	O 	0.20706 0.52630 0.10968 -0.38000
O 	O 	0.24595 0.49153 0.07120 -0.38400
O 	O 	0.41914 0.79205 0.06353 -0.39000
O 	O 	0.40944 0.69281 0.13857 -0.37300
O 	O 	0.38260 0.78406 0.12259 -0.37400
O 	O 	0.21809 0.60275 0.05034 -0.39900
O 	O 	0.33449 0.65647 0.08937 -0.71000
H 	H 	0.38946 0.67987 0.08968 0.16000
C 	C 	0.06381 0.14608 0.21102 0.30000
C 	C 	0.84933 0.95313 0.29689 0.28400
C 	C 	0.07999 0.15965 0.28979 0.30600
C 	C 	0.82578 0.95375 0.22004 0.26800
C 	C 	0.04432 0.92967 0.29275 0.29600
C 	C 	0.03224 0.91022 0.21398 0.27900
Ni	Ni	0.94353 0.07457 0.25570 1.11600
Ni	Ni	0.92295 0.90768 0.25461 1.11600
Ni	Ni	0.08734 0.04859 0.25092 1.12300
O 	O 	0.02809 0.15900 0.23152 -0.37300
O 	O 	0.09910 0.10694 0.21526 -0.37100
O 	O 	0.99714 0.88557 0.27384 -0.38100
O 	O 	0.85088 0.00456 0.28008 -0.35700
O 	O 	0.89485 0.92619 0.29298 -0.38700
O 	O 	0.08632 0.96117 0.23014 -0.38400
O 	O 	0.00735 0.11594 0.29139 -0.38100
O 	O 	0.11878 0.14849 0.27033 -0.37400
O 	O 	0.95996 0.88712 0.21861 -0.38200
O 	O 	0.87287 0.02668 0.22204 -0.35800
O 	O 	0.82918 0.90413 0.23729 -0.37700
O 	O 	0.08401 0.00244 0.28843 -0.36600
O 	O 	0.98234 0.01106 0.24724 -0.71000
H 	H 	0.97777 0.00903 0.22682 0.16300
C 	C 	0.11273 0.27417 0.14107 0.01500
C 	C 	0.06446 0.29856 0.13054 -0.05800
C 	C 	0.09185 0.35944 0.11207 0.01400
C 	C 	0.07800 0.18825 0.18577 -0.09400
C 	C 	0.21458 0.36947 0.11414 0.00600
C 	C 	0.18649 0.30713 0.13155 -0.05600
C 	C 	0.09156 0.22581 0.16502 0.03800
C 	C 	0.16790 0.39693 0.10451 -0.09100
H 	H 	0.00696 0.27301 0.13769 0.04700
H 	H 	0.05524 0.38037 0.10511 0.03200
H 	H 	0.27399 0.40063 0.11063 0.04000
H 	H 	0.22413 0.28866 0.13963 0.04900
C 	C 	0.62465 0.89221 0.17436 0.01200
C 	C 	0.69432 0.92934 0.16086 -0.05500
C 	C 	0.76024 0.94883 0.17570 0.00500
C 	C 	0.49863 0.81909 0.14602 -0.09600
C 	C 	0.68711 0.89466 0.21758 0.00800
C 	C 	0.62155 0.87643 0.20288 -0.05500
C 	C 	0.55663 0.85655 0.15826 0.03500
C 	C 	0.75666 0.92998 0.20399 -0.07300
H 	H 	0.69731 0.94112 0.13876 0.04000
H 	H 	0.81382 0.97753 0.16514 0.03000
H 	H 	0.68388 0.88175 0.23959 0.03900
H 	H 	0.56797 0.84734 0.21345 0.04800
C 	C 	0.11581 0.78501 0.17096 0.00900
C 	C 	0.05019 0.74745 0.18685 -0.05100
C 	C 	0.01840 0.78758 0.19899 0.00100
C 	C 	0.18100 0.71439 0.14764 -0.10500
C 	C 	0.11581 0.90224 0.17827 0.00600
C 	C 	0.14738 0.86212 0.16614 -0.05300
C 	C 	0.15026 0.74463 0.15898 0.04100
C 	C 	0.05239 0.86563 0.19542 -0.07200
H 	H 	0.02462 0.68759 0.19026 0.04500
H 	H 	0.96969 0.75862 0.21229 0.04200
H 	H 	0.14243 0.96232 0.17527 0.03000
H 	H 	0.19726 0.89131 0.15341 0.04200
C 	C 	0.67233 0.85316 0.35660 0.00400
C 	C 	0.69657 0.92634 0.34727 -0.04500
C 	C 	0.75623 0.96026 0.32852 -0.01700
C 	C 	0.54360 0.78134 0.38336 -0.11100
C 	C 	0.76993 0.84907 0.32948 0.00500
C 	C 	0.71025 0.81533 0.34820 -0.05100
C 	C 	0.60318 0.81381 0.37172 0.04500
C 	C 	0.79197 0.92101 0.31893 -0.07200
H 	H 	0.66766 0.95605 0.35384 0.03900
H 	H 	0.77366 0.01638 0.32108 0.05500
H 	H 	0.79731 0.81827 0.32248 0.03600
H 	H 	0.69187 0.75879 0.35541 0.04500
C 	C 	0.18562 0.37260 0.33121 0.01700
C 	C 	0.22862 0.34092 0.32175 -0.05700
C 	C 	0.19396 0.27041 0.30905 0.01600
C 	C 	0.25054 0.49744 0.36099 -0.09200
C 	C 	0.07276 0.26270 0.31530 0.01400
C 	C 	0.10762 0.33320 0.32804 -0.05800
C 	C 	0.22075 0.44174 0.34678 0.03500
C 	C 	0.11578 0.23090 0.30560 -0.08300
H 	H 	0.28884 0.37049 0.32452 0.04900
H 	H 	0.22791 0.24660 0.30187 0.03800
H 	H 	0.01255 0.23345 0.31262 0.03000
H 	H 	0.07386 0.35684 0.33563 0.04500
C 	C 	0.09009 0.81846 0.35339 0.01500
C 	C 	0.12840 0.85114 0.37809 -0.05900
C 	C 	0.14915 0.81056 0.39603 0.01300
C 	C 	0.06331 0.89600 0.31533 -0.09500
C 	C 	0.09008 0.70322 0.36526 0.01100
C 	C 	0.06893 0.74367 0.34746 -0.05800
C 	C 	0.07631 0.86254 0.33322 0.03300
C 	C 	0.13259 0.73728 0.38916 -0.08500
H 	H 	0.14426 0.90865 0.38298 0.04400
H 	H 	0.18192 0.83767 0.41433 0.03200
H 	H 	0.07622 0.64654 0.35985 0.03400
H 	H 	0.03828 0.71763 0.32859 0.04700
C 	C 	0.36286 0.02057 0.46257 -0.05800
C 	C 	0.41901 0.07647 0.44612 -0.01400
C 	C 	0.43251 0.05820 0.41914 0.05800
C 	C 	0.40129 0.98251 0.41149 -0.04600
C 	C 	0.35335 0.92582 0.42985 -0.09400
C 	C 	0.32808 0.94551 0.45423 0.06900
C 	C 	0.47368 0.14757 0.45964 0.01200
C 	C 	0.48394 0.11853 0.39926 -0.18600
H 	H 	0.41754 0.96783 0.39201 0.04600
C 	C 	0.26825 0.88672 0.47254 -0.19300
H 	H 	0.35006 0.03476 0.48284 0.04900
C 	C 	0.44955 0.19426 0.47237 0.02300
C 	C 	0.49032 0.23969 0.49489 -0.01400
C 	C 	0.55750 0.24311 0.50320 -0.10700
C 	C 	0.58853 0.20786 0.48677 0.10500
C 	C 	0.54553 0.15892 0.46549 -0.09600
C 	C 	0.37798 0.19187 0.46343 -0.17200
H 	H 	0.46809 0.26958 0.50667 0.03400
C 	C 	0.66413 0.21633 0.49349 -0.20900
H 	H 	0.56545 0.12512 0.45504 0.05600
H 	H 	0.29442 0.86675 0.48815 0.06200
H 	H 	0.22687 0.83853 0.46017 0.06100
H 	H 	0.23694 0.91018 0.48375 0.05900
H 	H 	0.54257 0.13129 0.40276 0.07000
H 	H 	0.48016 0.17037 0.40218 0.06900
H 	H 	0.46843 0.10019 0.37736 0.07200
H 	H 	0.38074 0.24664 0.46728 0.06200
H 	H 	0.33011 0.14786 0.47532 0.06500
H 	H 	0.36815 0.17988 0.44081 0.06600
H 	H 	0.65894 0.17981 0.51139 0.08400
H 	H 	0.70484 0.27541 0.49848 0.08700
H 	H 	0.68715 0.20011 0.47548 0.07200
C 	C 	0.93744 0.38934 0.50903 -0.09800
C 	C 	0.96596 0.34168 0.51587 0.01600
C 	C 	0.92868 0.28426 0.53569 0.01900
C 	C 	0.86653 0.27918 0.54995 -0.00600
C 	C 	0.84057 0.32967 0.54417 -0.11700
C 	C 	0.87478 0.38363 0.52283 0.10600
C 	C 	0.04053 0.36020 0.50523 -0.00400
C 	C 	0.95673 0.23050 0.54252 -0.16100
H 	H 	0.83893 0.23659 0.56582 0.04000
C 	C 	0.84676 0.43721 0.51538 -0.21000
H 	H 	0.96616 0.43307 0.49363 0.05900
C 	C 	0.05072 0.35633 0.47637 0.02000
C 	C 	0.11557 0.41287 0.46370 -0.01400
C 	C 	0.17119 0.46941 0.47999 -0.10700
C 	C 	0.16853 0.46130 0.50923 0.10200
C 	C 	0.10284 0.40565 0.52172 -0.09200
C 	C 	0.98844 0.29906 0.45865 -0.15800
H 	H 	0.11991 0.41629 0.44119 0.03600
C 	C 	0.23111 0.51743 0.52721 -0.20600
H 	H 	0.09681 0.40453 0.54417 0.05000
H 	H 	0.87168 0.46701 0.49553 0.07000
H 	H 	0.86207 0.47980 0.53201 0.07300
H 	H 	0.78520 0.40674 0.51254 0.06900
H 	H 	0.00721 0.25878 0.55589 0.05800
H 	H 	0.97116 0.21077 0.52316 0.06400
H 	H 	0.91355 0.18034 0.55372 0.06300
H 	H 	0.01137 0.28599 0.43982 0.05700
H 	H 	0.95094 0.32105 0.45207 0.06400
H 	H 	0.95529 0.24604 0.47040 0.06300
H 	H 	0.22773 0.56979 0.52847 0.07800
H 	H 	0.28621 0.53022 0.51841 0.08300
H 	H 	0.22776 0.49549 0.54863 0.06400
C 	C 	0.53262 0.67400 0.52619 -0.09700
C 	C 	0.48824 0.64116 0.54982 0.00400
C 	C 	0.42798 0.65397 0.55566 0.02000
C 	C 	0.40405 0.68634 0.53512 -0.01400
C 	C 	0.44130 0.70787 0.50931 -0.11500
C 	C 	0.51174 0.71117 0.50659 0.09900
C 	C 	0.50067 0.58753 0.56656 0.00300
C 	C 	0.38720 0.63041 0.58311 -0.17100
H 	H 	0.35431 0.69108 0.53869 0.03900
C 	C 	0.56555 0.75551 0.48361 -0.20400
H 	H 	0.58244 0.66924 0.52276 0.05300
C 	C 	0.46089 0.51001 0.56060 0.02600
C 	C 	0.48318 0.46210 0.57303 -0.01500
C 	C 	0.54762 0.49107 0.58958 -0.10600
C 	C 	0.58348 0.56743 0.59745 0.10100
C 	C 	0.55934 0.61502 0.58590 -0.09400
C 	C 	0.39548 0.47823 0.54075 -0.17200
H 	H 	0.45394 0.40291 0.56797 0.03600
C 	C 	0.65051 0.59951 0.61652 -0.20800
H 	H 	0.58870 0.67425 0.59086 0.05000
H 	H 	0.55577 0.71907 0.46523 0.07700
H 	H 	0.62438 0.77757 0.49054 0.06700
H 	H 	0.55922 0.80450 0.47761 0.08400
H 	H 	0.42768 0.64494 0.60049 0.06300
H 	H 	0.34836 0.56911 0.58320 0.05900
H 	H 	0.35421 0.65931 0.58696 0.05800
H 	H 	0.37809 0.41936 0.53509 0.06100
H 	H 	0.41022 0.51108 0.52111 0.06600
H 	H 	0.34699 0.47896 0.55065 0.06000
H 	H 	0.66848 0.65847 0.62222 0.07000
H 	H 	0.69823 0.59839 0.60604 0.08600
H 	H 	0.63673 0.56668 0.63614 0.08500
C 	C 	0.78457 0.15409 0.69099 0.01900
C 	C 	0.75857 0.07678 0.69035 -0.06800
C 	C 	0.80197 0.04769 0.70163 0.03900
C 	C 	0.71629 0.21092 0.66085 -0.10100
C 	C 	0.89693 0.17319 0.71480 0.01800
C 	C 	0.85321 0.20197 0.70367 -0.05900
C 	C 	0.74622 0.18509 0.67529 0.04100
C 	C 	0.87209 0.09590 0.71354 -0.09300
H 	H 	0.70565 0.03939 0.68047 0.05200
H 	H 	0.78154 0.98795 0.70068 0.01700
H 	H 	0.94979 0.21092 0.72461 0.03400
H 	H 	0.87359 0.26177 0.70434 0.05000
C 	C 	0.28160 0.07421 0.65856 0.01400
C 	C 	0.28780 0.12185 0.63657 -0.05500
C 	C 	0.35235 0.15425 0.62010 0.01200
C 	C 	0.19405 0.05968 0.70116 -0.09700
C 	C 	0.39919 0.08254 0.64475 0.01300
C 	C 	0.33465 0.05025 0.66126 -0.05500
C 	C 	0.23245 0.06450 0.68144 0.04200
C 	C 	0.41109 0.13960 0.62583 -0.07900
H 	H 	0.24572 0.13875 0.63373 0.04700
H 	H 	0.35977 0.19618 0.60477 0.03000
H 	H 	0.44312 0.06883 0.64872 0.04000
H 	H 	0.32906 0.01148 0.67766 0.04900
C 	C 	0.84359 0.67507 0.67426 0.01600
C 	C 	0.78967 0.60443 0.68387 -0.06200
C 	C 	0.76525 0.54173 0.66675 0.01800
C 	C 	0.89895 0.78872 0.70956 -0.09600
C 	C 	0.84777 0.62018 0.62994 0.01500
C 	C 	0.87249 0.68298 0.64722 -0.06200
C 	C 	0.87347 0.73800 0.69300 0.03600
C 	C 	0.79443 0.54908 0.63972 -0.09400
H 	H 	0.76715 0.59789 0.70474 0.04800
H 	H 	0.72275 0.48759 0.67436 0.01800
H 	H 	0.87019 0.62679 0.60905 0.03100
H 	H 	0.91451 0.73746 0.63968 0.04600
C 	C 	0.05690 0.48826 0.92296 -0.10600
C 	C 	0.07133 0.48484 0.95128 0.01100
C 	C 	0.03249 0.41539 0.96537 0.01300
C 	C 	0.96808 0.35698 0.95308 0.00000
C 	C 	0.94326 0.36895 0.92741 -0.12200
C 	C 	0.99546 0.42739 0.91038 0.12100
C 	C 	0.11511 0.55514 0.96712 0.00200
C 	C 	0.05456 0.40611 0.99439 -0.16800
H 	H 	0.93184 0.30754 0.96519 0.03800
C 	C 	0.97785 0.43221 0.88031 -0.20800
H 	H 	0.08970 0.53967 0.91136 0.05400
C 	C 	0.19390 0.59091 0.96779 0.02300
C 	C 	0.23236 0.64187 0.98922 -0.02200
C 	C 	0.19276 0.65440 0.01048 -0.11600
C 	C 	0.11627 0.63079 0.00640 0.10200
C 	C 	0.07743 0.58023 0.98483 -0.09200
C 	C 	0.23650 0.56942 0.94759 -0.17200
H 	H 	0.29153 0.66244 0.99167 0.03300
C 	C 	0.07393 0.65119 0.02704 -0.20800
H 	H 	0.01717 0.55601 0.98321 0.05300
H 	H 	0.03028 0.46205 0.86795 0.06600
H 	H 	0.94599 0.46295 0.87852 0.09300
H 	H 	0.94401 0.37529 0.87133 0.08600
H 	H 	0.02977 0.42825 0.00973 0.06700
H 	H 	0.11646 0.43657 0.99666 0.06400
H 	H 	0.03450 0.34613 0.99911 0.06100
H 	H 	0.29795 0.60696 0.94941 0.05600
H 	H 	0.22041 0.57364 0.92590 0.06200
H 	H 	0.22405 0.51109 0.95176 0.06000
H 	H 	0.02454 0.65023 0.01708 0.06900
H 	H 	0.11020 0.70854 0.03528 0.07800
H 	H 	0.05448 0.61062 0.04458 0.07900
C 	C 	0.61772 0.06403 0.01459 -0.10200
C 	C 	0.65089 0.02319 0.00417 0.03700
C 	C 	0.71033 0.05709 0.98490 0.00600
C 	C 	0.72857 0.12713 0.97354 -0.00400
C 	C 	0.68798 0.16311 0.98112 -0.10900
C 	C 	0.63615 0.13422 0.00327 0.10700
C 	C 	0.61362 0.94160 0.00937 -0.02200
C 	C 	0.74939 0.01587 0.97440 -0.11700
H 	H 	0.77070 0.15110 0.95732 0.03900
C 	C 	0.59470 0.17376 0.01297 -0.21000
H 	H 	0.57374 0.03884 0.03011 0.06300
C 	C 	0.62327 0.91315 0.03486 0.03300
C 	C 	0.56903 0.84104 0.04339 -0.01900
C 	C 	0.50374 0.80002 0.02756 -0.10500
C 	C 	0.50351 0.82171 0.99962 0.09600
C 	C 	0.55795 0.89339 0.99089 -0.08500
C 	C 	0.68601 0.96204 0.05432 -0.17600
H 	H 	0.57254 0.82138 0.06401 0.03800
C 	C 	0.44254 0.77208 0.97982 -0.20200
H 	H 	0.55369 0.91368 0.97048 0.04600
H 	H 	0.57643 0.15920 0.03496 0.07300
H 	H 	0.54441 0.15641 0.99981 0.07300
H 	H 	0.63084 0.23553 0.01188 0.08000
H 	H 	0.71394 0.97415 0.95853 0.04100
H 	H 	0.76021 0.98658 0.99173 0.04100
H 	H 	0.80430 0.05504 0.96481 0.05600
H 	H 	0.69673 0.92775 0.06964 0.06100
H 	H 	0.67100 0.99986 0.06579 0.06200
H 	H 	0.73875 0.99623 0.04257 0.06000
H 	H 	0.39310 0.77973 0.98306 0.07800
H 	H 	0.42726 0.71253 0.98284 0.07600
H 	H 	0.46127 0.78664 0.95787 0.06400
C 	C 	0.47528 0.34540 0.00076 -0.09300
C 	C 	0.48634 0.41591 0.00867 0.00500
C 	C 	0.52236 0.47714 0.99005 0.02500
C 	C 	0.55735 0.46942 0.96607 -0.01400
C 	C 	0.55301 0.40051 0.95994 -0.10600
C 	C 	0.50306 0.33651 0.97525 0.10100
C 	C 	0.45821 0.42487 0.03602 0.00200
C 	C 	0.52708 0.55146 0.99634 -0.17200
H 	H 	0.59271 0.51822 0.95351 0.04200
C 	C 	0.48618 0.25960 0.96596 -0.20900
H 	H 	0.44551 0.29768 0.01448 0.05200
C 	C 	0.38104 0.39765 0.04028 0.02800
C 	C 	0.35771 0.42350 0.06309 -0.02400
C 	C 	0.41056 0.48125 0.07996 -0.10700
C 	C 	0.48554 0.49660 0.07900 0.09900
C 	C 	0.50932 0.46890 0.05670 -0.09100
C 	C 	0.32384 0.34555 0.01957 -0.17500
H 	H 	0.29923 0.40715 0.06491 0.04500
C 	C 	0.54217 0.55055 0.09929 -0.20700
H 	H 	0.56823 0.48617 0.05432 0.05300
H 	H 	0.43252 0.21572 0.97500 0.07000
H 	H 	0.53191 0.24896 0.97263 0.07700
H 	H 	0.48115 0.25508 0.94292 0.07800
H 	H 	0.57065 0.58162 0.01236 0.06700
H 	H 	0.47235 0.54318 0.00399 0.06500
H 	H 	0.54182 0.58715 0.97741 0.06100
H 	H 	0.26636 0.33382 0.02500 0.06200
H 	H 	0.32348 0.29123 0.01921 0.06500
H 	H 	0.33691 0.37091 0.99845 0.06300
H 	H 	0.58874 0.53811 0.10221 0.07100
H 	H 	0.51590 0.54622 0.11994 0.07900
H 	H 	0.56539 0.60865 0.09131 0.07500
C 	C 	0.83563 0.24568 0.79404 0.01300
C 	C 	0.91308 0.27482 0.79772 -0.06000
C 	C 	0.94526 0.22856 0.79459 0.02100
C 	C 	0.77268 0.30569 0.82521 -0.11100
C 	C 	0.82445 0.12634 0.78069 0.01500
C 	C 	0.79255 0.17267 0.78389 -0.05700
C 	C 	0.79884 0.28008 0.80881 0.04300
C 	C 	0.90030 0.15292 0.78733 -0.08900
H 	H 	0.94729 0.33160 0.80520 0.04700
H 	H 	0.00433 0.25095 0.79881 0.02700
H 	H 	0.78976 0.06933 0.77357 0.03700
H 	H 	0.73308 0.14993 0.78037 0.04900
C 	C 	0.36199 0.12057 0.83715 0.01500
C 	C 	0.29469 0.07571 0.85139 -0.05600
C 	C 	0.22649 0.06433 0.84040 0.01000
C 	C 	0.49215 0.17496 0.86347 -0.09300
C 	C 	0.29228 0.14229 0.80069 0.01300
C 	C 	0.36036 0.15328 0.81165 -0.05600
C 	C 	0.43289 0.14584 0.85125 0.03600
C 	C 	0.22488 0.09808 0.81508 -0.08300
H 	H 	0.29529 0.05124 0.87133 0.04700
H 	H 	0.17495 0.02938 0.85160 0.03800
H 	H 	0.29192 0.16719 0.78083 0.04100
H 	H 	0.41207 0.18894 0.80066 0.04900
C 	C 	0.88518 0.73166 0.88223 0.00900
C 	C 	0.95896 0.77109 0.87236 -0.05100
C 	C 	0.97707 0.82205 0.85045 0.02100
C 	C 	0.83543 0.59646 0.90324 -0.10900
C 	C 	0.85020 0.80195 0.85070 0.01600
C 	C 	0.83227 0.75107 0.87267 -0.05700
C 	C 	0.85943 0.65983 0.89518 0.04400
C 	C 	0.92145 0.83408 0.83839 -0.08900
H 	H 	0.00077 0.75781 0.88008 0.03700
H 	H 	0.03322 0.84905 0.84186 0.01900
H 	H 	0.80731 0.81239 0.84210 0.03300
H 	H 	0.77543 0.72205 0.88061 0.04400
