data_crystal

_cell_length_a 27.90621
_cell_length_b 30.04819
_cell_length_c 30.47091
_cell_angle_alpha 89.92738
_cell_angle_beta  89.93252
_cell_angle_gamma 90.82153

_symmetry_space_group_name_	'P 1'
_symmetry_space_group_name_H-M	'P 1'

loop_
_symmetry_equiv_pos_as_xyz
  x,y,z

loop_
_atom_site_label
_atom_site_type_symbol
_atom_site_fract_x
_atom_site_fract_y
_atom_site_fract_z
_atom_site_charge
Zn	Zn	0.51323 0.48316 0.99367 1.22400
C 	C 	0.54794 0.57279 0.97465 0.35100
O 	O 	0.56261 0.46107 0.03340 -0.48500
O 	O 	0.52383 0.58471 0.00974 -0.47100
O 	O 	0.59064 0.52730 0.05908 -0.50500
C 	C 	0.43244 0.52511 0.03280 0.37500
O 	O 	0.45266 0.51377 0.99571 -0.45800
O 	O 	0.45839 0.52903 0.06862 -0.52100
C 	C 	0.59857 0.48666 0.04574 0.33800
O 	O 	0.46926 0.41658 0.00578 -0.34700
Zn	Zn	0.52547 0.54824 0.06695 1.16800
O 	O 	0.55129 0.53041 0.96420 -0.44000
C 	C 	0.48249 0.40595 0.96640 0.31300
O 	O 	0.50850 0.43552 0.94610 -0.38900
Zn	Zn	0.33776 0.14327 0.96954 1.22300
C 	C 	0.36037 0.13363 0.06088 0.30300
O 	O 	0.26821 0.15130 0.96474 -0.46100
O 	O 	0.36080 0.17727 0.06451 -0.44600
O 	O 	0.25830 0.17426 0.03516 -0.49600
C 	C 	0.39330 0.22314 0.97358 0.38800
O 	O 	0.39564 0.17968 0.97573 -0.46800
O 	O 	0.35436 0.24321 0.98677 -0.51100
C 	C 	0.24160 0.15396 0.00014 0.32700
O 	O 	0.34692 0.15210 0.89276 -0.32000
Zn	Zn	0.31208 0.21612 0.03095 1.16700
O 	O 	0.33956 0.11448 0.02706 -0.44200
C 	C 	0.35393 0.10945 0.89258 0.26300
O 	O 	0.35122 0.09025 0.93055 -0.37500
C 	C 	0.50065 0.98683 0.23719 0.14800
C 	C 	0.52880 0.95679 0.21374 -0.10000
H 	H 	0.55144 0.93377 0.23126 0.06800
C 	C 	0.52780 0.95661 0.16778 0.03400
C 	C 	0.49868 0.98666 0.14527 -0.07900
C 	C 	0.47070 0.01693 0.16871 0.08200
C 	C 	0.47166 0.01691 0.21467 -0.12200
H 	H 	0.44990 0.04009 0.23292 0.07200
N 	N 	0.50166 0.98686 0.28429 -0.18100
C 	C 	0.53181 0.01589 0.30580 0.19400
C 	C 	0.53324 0.01644 0.35197 -0.08700
C 	C 	0.50282 0.98758 0.37576 0.06700
C 	C 	0.47382 0.95666 0.35319 -0.08400
C 	C 	0.47308 0.95732 0.30701 0.19900
C 	C 	0.56593 0.04401 0.37445 0.01100
C 	C 	0.56712 0.04408 0.42021 -0.05900
C 	C 	0.53285 0.01924 0.44464 0.01200
C 	C 	0.50242 0.98879 0.42222 -0.02600
C 	C 	0.47315 0.95823 0.44590 0.01600
C 	C 	0.44764 0.92443 0.37686 0.01100
C 	C 	0.44897 0.92396 0.42261 -0.05900
C 	C 	0.53003 0.02251 0.49111 0.01200
C 	C 	0.50096 0.99184 0.51482 -0.02500
C 	C 	0.47063 0.96125 0.49244 0.01600
O 	O 	0.44460 0.92960 0.28549 -0.20700
O 	O 	0.55951 0.04343 0.28313 -0.20600
H 	H 	0.42757 0.89858 0.35988 0.04000
H 	H 	0.43337 0.89562 0.43945 0.04500
H 	H 	0.59167 0.06439 0.35657 0.04200
H 	H 	0.59628 0.06156 0.43624 0.04500
C 	C 	0.43682 0.93599 0.51700 -0.05800
C 	C 	0.43847 0.93576 0.56275 0.01100
C 	C 	0.47092 0.96365 0.58514 -0.08200
C 	C 	0.50064 0.99306 0.56128 0.06600
C 	C 	0.55371 0.05715 0.51429 -0.05800
C 	C 	0.55477 0.05700 0.56005 0.01100
C 	C 	0.52903 0.02452 0.58380 -0.08600
C 	C 	0.47276 0.96397 0.63129 0.19900
N 	N 	0.50210 0.99374 0.65275 -0.18100
C 	C 	0.52965 0.02408 0.62998 0.19500
C 	C 	0.50334 0.99370 0.69984 0.15100
C 	C 	0.46881 0.01706 0.72362 -0.12300
C 	C 	0.47009 0.01722 0.76957 0.08600
C 	C 	0.50628 0.99441 0.79169 -0.08100
C 	C 	0.54088 0.97105 0.76799 0.04000
C 	C 	0.53924 0.97054 0.72204 -0.10100
O 	O 	0.44638 0.93536 0.65400 -0.20000
O 	O 	0.55688 0.05288 0.65146 -0.20400
H 	H 	0.44106 0.03486 0.70637 0.07500
H 	H 	0.56587 0.95249 0.70356 0.07100
H 	H 	0.40763 0.91840 0.50114 0.04600
H 	H 	0.41314 0.91501 0.58071 0.04400
H 	H 	0.56913 0.08549 0.49729 0.04500
H 	H 	0.57440 0.08319 0.57695 0.04300
H 	H 	0.50742 0.99470 0.82728 0.07000
H 	H 	0.49804 0.98670 0.10968 0.06400
Zn	Zn	0.67342 0.84539 0.96608 1.22400
C 	C 	0.64334 0.84865 0.05645 0.35800
O 	O 	0.74381 0.84665 0.96613 -0.45900
O 	O 	0.64859 0.80530 0.05874 -0.46100
O 	O 	0.75168 0.82214 0.03628 -0.49500
C 	C 	0.62899 0.75921 0.96540 0.38700
O 	O 	0.62079 0.80204 0.96695 -0.46700
O 	O 	0.66959 0.74377 0.98050 -0.51500
C 	C 	0.76754 0.84635 0.00328 0.33200
O 	O 	0.67208 0.83926 0.88855 -0.32900
Zn	Zn	0.70481 0.77432 0.02729 1.16700
O 	O 	0.66268 0.87143 0.02402 -0.43900
C 	C 	0.65934 0.88067 0.88937 0.31500
O 	O 	0.65577 0.89798 0.92804 -0.37100
Zn	Zn	0.18518 0.66018 0.02762 1.22000
C 	C 	0.14611 0.65638 0.11607 0.30500
O 	O 	0.17657 0.72009 0.00313 -0.47000
O 	O 	0.18447 0.67612 0.13199 -0.44800
O 	O 	0.16246 0.75055 0.06988 -0.50100
C 	C 	0.27477 0.64969 0.07352 0.38600
O 	O 	0.23596 0.62912 0.05883 -0.47100
O 	O 	0.27503 0.69292 0.07986 -0.52800
C 	C 	0.15979 0.75260 0.02699 0.34100
O 	O 	0.22230 0.63831 0.96082 -0.30700
Zn	Zn	0.21889 0.72566 0.09726 1.17200
O 	O 	0.13579 0.66005 0.07417 -0.43500
C 	C 	0.18264 0.61616 0.95423 0.26200
O 	O 	0.15076 0.61950 0.98474 -0.37300
C 	C 	0.98479 0.51964 0.28872 0.14000
C 	C 	0.95210 0.49363 0.26446 -0.09900
H 	H 	0.92842 0.47027 0.28120 0.06800
C 	C 	0.95054 0.49753 0.21858 0.03600
C 	C 	0.98196 0.52714 0.19707 -0.08700
C 	C 	0.01430 0.55350 0.22120 0.08900
C 	C 	0.01556 0.54978 0.26708 -0.11600
H 	H 	0.04073 0.56983 0.28590 0.07200
N 	N 	0.98787 0.51448 0.33557 -0.18300
C 	C 	0.01756 0.48296 0.35282 0.19900
C 	C 	0.02503 0.48061 0.39849 -0.08200
C 	C 	0.00229 0.51121 0.42609 0.06400
C 	C 	0.96935 0.54110 0.40819 -0.08400
C 	C 	0.96269 0.54241 0.36236 0.19800
C 	C 	0.05373 0.44746 0.41686 0.01100
C 	C 	0.06139 0.44595 0.46210 -0.05900
C 	C 	0.04369 0.47985 0.48968 0.01700
C 	C 	0.01163 0.51118 0.47181 -0.02800
C 	C 	0.98733 0.54126 0.49951 0.01500
C 	C 	0.94266 0.56828 0.43623 0.01100
C 	C 	0.95014 0.56708 0.48151 -0.05900
C 	C 	0.05539 0.48175 0.53512 0.01500
C 	C 	0.03106 0.51181 0.56281 -0.02500
C 	C 	0.99907 0.54319 0.54493 0.01300
O 	O 	0.93278 0.57112 0.34509 -0.20500
O 	O 	0.03993 0.45534 0.32647 -0.20400
H 	H 	0.91495 0.58945 0.42322 0.04200
H 	H 	0.92530 0.58443 0.50236 0.04600
H 	H 	0.06900 0.42186 0.39635 0.04200
H 	H 	0.07885 0.41715 0.47556 0.04600
C 	C 	0.98144 0.57712 0.57250 -0.05500
C 	C 	0.98904 0.57558 0.61775 0.00700
C 	C 	0.01760 0.54233 0.63614 -0.07600
C 	C 	0.04030 0.51171 0.60854 0.06000
C 	C 	0.09251 0.45586 0.55316 -0.05700
C 	C 	0.09983 0.45454 0.59845 0.01000
C 	C 	0.07308 0.48168 0.62648 -0.07900
C 	C 	0.02493 0.53988 0.68182 0.19700
N 	N 	0.05428 0.50810 0.69910 -0.18100
C 	C 	0.07950 0.48018 0.67233 0.19800
C 	C 	0.05684 0.50256 0.74594 0.14300
C 	C 	0.09068 0.52698 0.77046 -0.11000
C 	C 	0.09192 0.52266 0.81633 0.08700
C 	C 	0.05948 0.49370 0.83749 -0.09400
C 	C 	0.02562 0.46929 0.81308 0.04000
C 	C 	0.02448 0.47366 0.76728 -0.09800
O 	O 	0.00273 0.56763 0.70816 -0.19600
O 	O 	0.10913 0.45125 0.68963 -0.20100
H 	H 	0.11529 0.54968 0.75398 0.08300
H 	H 	0.99830 0.45498 0.74826 0.06800
H 	H 	0.96405 0.60596 0.55903 0.04600
H 	H 	0.97382 0.60121 0.63826 0.04600
H 	H 	0.11742 0.43857 0.53233 0.04600
H 	H 	0.12747 0.43331 0.61149 0.04400
H 	H 	0.05983 0.49100 0.87299 0.06100
H 	H 	0.98171 0.52920 0.16153 0.06800
Zn	Zn	0.85740 0.36039 0.00712 1.21900
C 	C 	0.89154 0.36877 0.91805 0.35000
O 	O 	0.80489 0.39375 0.98036 -0.44900
O 	O 	0.85053 0.35234 0.90397 -0.43900
O 	O 	0.76246 0.33210 0.95908 -0.50600
C 	C 	0.88246 0.26787 0.00083 0.37600
O 	O 	0.86865 0.29987 0.02707 -0.48100
O 	O 	0.87372 0.27021 0.95856 -0.49800
C 	C 	0.76399 0.37431 0.96997 0.34500
O 	O 	0.82482 0.37364 0.07788 -0.33200
Zn	Zn	0.81743 0.30023 0.93671 1.17400
O 	O 	0.90439 0.36293 0.95906 -0.44100
C 	C 	0.86030 0.40173 0.08193 0.32000
O 	O 	0.88890 0.40462 0.04863 -0.38900
Zn	Zn	0.99546 0.00306 0.03949 1.21700
C 	C 	0.04534 0.92172 0.02665 0.33800
O 	O 	0.94213 0.98321 0.07718 -0.47100
O 	O 	0.07029 0.93469 0.06113 -0.45500
O 	O 	0.97872 0.92504 0.11030 -0.50300
C 	C 	0.07956 0.03812 0.08030 0.38800
O 	O 	0.06120 0.02496 0.04284 -0.47100
O 	O 	0.06485 0.01952 0.11696 -0.52400
C 	C 	0.94024 0.94278 0.09350 0.34100
O 	O 	0.97267 0.07707 0.05048 -0.33100
Zn	Zn	0.03799 0.95913 0.11713 1.17100
O 	O 	0.00926 0.94554 0.01267 -0.44100
C 	C 	0.95652 0.07519 0.01062 0.26300
O 	O 	0.96192 0.03753 0.99066 -0.36800
C 	C 	0.90419 0.23241 0.01778 -0.23000
C 	C 	0.91372 0.19222 0.99121 0.06500
C 	C 	0.93149 0.15427 0.01158 -0.05600
C 	C 	0.93729 0.11454 0.98838 -0.08600
H 	H 	0.94029 0.15551 0.04632 0.06000
H 	H 	0.91241 0.23199 0.05266 0.10400
H 	H 	0.92755 0.11249 0.95390 0.06500
H 	H 	0.90553 0.19175 0.95632 0.02200
C 	C 	0.99041 0.44025 0.83581 0.05000
C 	C 	0.00616 0.40501 0.86208 -0.08600
C 	C 	0.97351 0.38074 0.88775 0.05700
C 	C 	0.92467 0.39129 0.88730 -0.16800
C 	C 	0.90851 0.42568 0.85981 0.22100
C 	C 	0.94137 0.44985 0.83398 -0.14500
H 	H 	0.98627 0.35413 0.90851 0.02900
H 	H 	0.92893 0.47694 0.81364 0.08200
H 	H 	0.04389 0.39707 0.86333 0.05600
O 	O 	0.86082 0.43609 0.85855 -0.29300
H 	H 	0.85655 0.45897 0.88162 0.15400
C 	C 	0.91769 0.46926 0.19253 0.05400
C 	C 	0.88141 0.48901 0.16764 -0.09100
C 	C 	0.85929 0.46532 0.13359 0.05400
C 	C 	0.87308 0.42166 0.12433 -0.15800
C 	C 	0.90592 0.40035 0.15205 0.21900
C 	C 	0.92820 0.42424 0.18602 -0.14500
H 	H 	0.83350 0.48178 0.11281 0.01800
H 	H 	0.95573 0.40857 0.20550 0.08200
H 	H 	0.87254 0.52359 0.17288 0.05700
O 	O 	0.91900 0.35731 0.14389 -0.29700
H 	H 	0.89635 0.33858 0.16124 0.15300
C 	C 	0.14773 0.79484 0.00602 -0.18400
C 	C 	0.10414 0.81199 0.01119 0.02300
C 	C 	0.09742 0.86045 0.00757 0.00600
C 	C 	0.05334 0.87741 0.00808 -0.15700
H 	H 	0.12844 0.88259 0.01076 0.03500
H 	H 	0.17616 0.81451 0.99072 0.08700
H 	H 	0.02252 0.85638 0.00023 0.07900
H 	H 	0.07490 0.79107 0.02347 0.03000
C 	C 	0.17027 0.59737 0.91122 -0.02400
C 	C 	0.18461 0.55421 0.90052 -0.02700
C 	C 	0.16192 0.53101 0.86639 -0.00700
C 	C 	0.12462 0.55081 0.84279 -0.07400
C 	C 	0.11330 0.59555 0.85094 0.16400
C 	C 	0.13638 0.61876 0.88491 -0.08200
H 	H 	0.17128 0.49674 0.86006 0.03700
H 	H 	0.12581 0.65246 0.89249 0.07400
H 	H 	0.21116 0.53761 0.92036 0.04500
O 	O 	0.07854 0.61611 0.82678 -0.28100
H 	H 	0.04814 0.61035 0.84286 0.15200
C 	C 	0.11273 0.63291 0.14570 -0.05000
C 	C 	0.12985 0.60103 0.17521 -0.02100
C 	C 	0.09778 0.57623 0.20106 -0.01400
C 	C 	0.04832 0.58354 0.19809 -0.07400
C 	C 	0.03134 0.61729 0.17024 0.15800
C 	C 	0.06348 0.64131 0.14364 -0.07800
H 	H 	0.11126 0.55050 0.22251 0.03700
H 	H 	0.05010 0.66644 0.12143 0.06800
H 	H 	0.16788 0.59452 0.17717 0.04100
O 	O 	0.98324 0.62586 0.16802 -0.29200
H 	H 	0.97752 0.64878 0.19075 0.14400
C 	C 	0.89573 0.91619 0.09056 -0.15800
C 	C 	0.87111 0.91413 0.05278 0.01200
C 	C 	0.82939 0.88351 0.04815 0.02100
C 	C 	0.81048 0.87513 0.00840 -0.17200
H 	H 	0.81407 0.86787 0.07726 0.03600
H 	H 	0.88564 0.89471 0.11787 0.07400
H 	H 	0.82578 0.89107 0.97945 0.09700
H 	H 	0.88287 0.93394 0.02474 0.03600
C 	C 	0.57855 0.94697 0.79154 0.05200
C 	C 	0.57626 0.90043 0.79460 -0.08600
C 	C 	0.60583 0.87812 0.82410 0.05300
C 	C 	0.63772 0.90227 0.85095 -0.15100
C 	C 	0.64310 0.94854 0.84489 0.21500
C 	C 	0.61330 0.97076 0.81545 -0.13500
H 	H 	0.60188 0.84240 0.82796 0.03300
H 	H 	0.61591 0.00666 0.81249 0.07600
H 	H 	0.54992 0.88176 0.77576 0.06100
O 	O 	0.67572 0.97238 0.86937 -0.28400
H 	H 	0.70568 0.97257 0.85181 0.15100
C 	C 	0.55866 0.92616 0.14317 0.05800
C 	C 	0.53900 0.88786 0.12357 -0.09600
C 	C 	0.56762 0.86076 0.09739 0.06100
C 	C 	0.61597 0.87204 0.09029 -0.17700
C 	C 	0.63626 0.90926 0.11173 0.22500
C 	C 	0.60752 0.93626 0.13795 -0.14900
H 	H 	0.55174 0.83207 0.08119 0.01800
H 	H 	0.62298 0.96555 0.15347 0.08400
H 	H 	0.50136 0.87963 0.12787 0.05700
O 	O 	0.68372 0.92023 0.10572 -0.29000
H 	H 	0.70103 0.90419 0.12919 0.14500
C 	C 	0.11411 0.06955 0.08121 -0.20400
C 	C 	0.13197 0.09085 0.04029 0.01900
C 	C 	0.17479 0.11557 0.04032 0.00700
C 	C 	0.19399 0.13231 0.00104 -0.16800
H 	H 	0.19428 0.12030 0.07088 0.03900
H 	H 	0.12986 0.07916 0.11248 0.08900
H 	H 	0.17555 0.12607 0.97020 0.09300
H 	H 	0.11224 0.08636 0.00980 0.04100
C 	C 	0.37624 0.08706 0.85495 -0.02700
C 	C 	0.40743 0.11080 0.82695 -0.02800
C 	C 	0.43616 0.08805 0.79708 -0.00800
C 	C 	0.43373 0.04147 0.79474 -0.07500
C 	C 	0.39964 0.01796 0.82011 0.15800
C 	C 	0.37121 0.04076 0.85026 -0.08200
H 	H 	0.46181 0.10645 0.77714 0.03800
H 	H 	0.34639 0.02227 0.87101 0.07600
H 	H 	0.41125 0.14660 0.82986 0.05200
O 	O 	0.39588 0.97250 0.81714 -0.27900
H 	H 	0.37174 0.96679 0.79388 0.15200
C 	C 	0.38522 0.10605 0.09347 -0.05000
C 	C 	0.42852 0.12099 0.11213 -0.02000
C 	C 	0.45577 0.09217 0.13775 -0.01500
C 	C 	0.43991 0.04828 0.14504 -0.07200
C 	C 	0.39540 0.03394 0.12830 0.15100
C 	C 	0.36828 0.06274 0.10249 -0.07600
H 	H 	0.48979 0.10360 0.15101 0.03800
H 	H 	0.33454 0.05113 0.08880 0.06800
H 	H 	0.44195 0.15432 0.10545 0.04300
O 	O 	0.37925 0.99124 0.13567 -0.28400
H 	H 	0.36040 0.99271 0.16324 0.14500
C 	C 	0.45976 0.36863 0.94297 -0.13500
C 	C 	0.45712 0.32641 0.96219 -0.00200
C 	C 	0.42600 0.29379 0.94554 0.02900
C 	C 	0.43093 0.24681 0.95875 -0.20800
H 	H 	0.39900 0.30255 0.92145 0.03300
H 	H 	0.44396 0.37439 0.91091 0.07700
H 	H 	0.46481 0.23040 0.95296 0.10100
H 	H 	0.47922 0.31898 0.99057 0.04400
C 	C 	0.31444 0.62686 0.08206 -0.20500
C 	C 	0.32357 0.58354 0.06086 0.01600
C 	C 	0.36524 0.56305 0.06781 0.01300
C 	C 	0.38560 0.53401 0.03353 -0.20100
H 	H 	0.38739 0.57305 0.09556 0.02700
H 	H 	0.34350 0.64330 0.09981 0.08300
H 	H 	0.36397 0.52587 0.00487 0.09400
H 	H 	0.29992 0.57190 0.03479 0.04000
C 	C 	0.64800 0.47096 0.04124 -0.16000
C 	C 	0.66018 0.44534 0.00709 0.00400
C 	C 	0.70901 0.42732 0.00307 0.00000
C 	C 	0.71949 0.39974 0.96996 -0.14200
H 	H 	0.73550 0.43439 0.02841 0.03800
H 	H 	0.67496 0.48181 0.06477 0.07500
H 	H 	0.69244 0.39184 0.94542 0.07800
H 	H 	0.63349 0.43683 0.98234 0.04600
C 	C 	0.59515 0.73133 0.94998 -0.20600
C 	C 	0.60417 0.68323 0.94483 0.02100
C 	C 	0.56905 0.65187 0.95680 0.00200
C 	C 	0.57631 0.60634 0.95021 -0.15400
H 	H 	0.53658 0.66290 0.97301 0.04300
H 	H 	0.56022 0.74416 0.94116 0.10100
H 	H 	0.60538 0.59541 0.92923 0.08300
H 	H 	0.63868 0.67238 0.93251 0.03500
