data_crystal

_cell_length_a 16.35541
_cell_length_b 15.41784
_cell_length_c 35.28098
_cell_angle_alpha 89.87954
_cell_angle_beta  89.88189
_cell_angle_gamma 119.41558

_symmetry_space_group_name_	'P 1'
_symmetry_space_group_name_H-M	'P 1'

loop_
_symmetry_equiv_pos_as_xyz
  x,y,z

loop_
_atom_site_label
_atom_site_type_symbol
_atom_site_fract_x
_atom_site_fract_y
_atom_site_fract_z
_atom_site_charge
Ni	Ni	0.04178 0.93723 0.78203 1.07600
Ni	Ni	0.04485 0.13678 0.74842 1.10200
O 	O 	0.02955 0.19144 0.20012 -0.39300
O 	O 	0.03416 0.90144 0.29966 -0.38600
O 	O 	0.02064 0.21902 0.27891 -0.38800
C 	C 	0.05913 0.86917 0.37827 0.08800
H 	H 	0.07086 0.76513 0.41603 0.04200
C 	C 	0.01708 0.45260 0.50408 0.09600
Br	Br	0.10166 0.40679 0.51965 -0.22500
C 	C 	0.12366 0.43510 0.97044 -0.05300
C 	C 	0.15093 0.57827 0.93280 0.12000
Br	Br	0.21492 0.71911 0.92333 -0.25600
H 	H 	0.07088 0.83490 0.93959 0.09800
C 	C 	0.18033 0.13297 0.80969 0.29200
C 	C 	0.17507 0.07597 0.72204 0.31600
O 	O 	0.11363 0.04604 0.82158 -0.37100
O 	O 	0.16101 0.18722 0.78480 -0.37500
O 	O 	0.16418 0.01169 0.74879 -0.36800
O 	O 	0.10258 0.08330 0.71160 -0.39300
C 	C 	0.11010 0.54492 0.44909 0.30800
O 	O 	0.15480 0.63826 0.45999 -0.38400
O 	O 	0.15447 0.50137 0.43210 -0.34700
C 	C 	0.21209 0.39573 0.05780 0.29600
C 	C 	0.24108 0.60215 0.99237 0.31700
O 	O 	0.23286 0.66136 0.01763 -0.35400
O 	O 	0.21135 0.68743 0.09209 -0.38800
O 	O 	0.20033 0.45673 0.07965 -0.37700
C 	C 	0.07661 0.16008 0.17925 0.30700
C 	C 	0.10915 0.27831 0.26949 0.29600
C 	C 	0.07820 0.89816 0.21513 0.28000
C 	C 	0.09082 0.98013 0.32064 0.24800
Ni	Ni	0.12987 0.09439 0.24935 1.12200
O 	O 	0.13832 0.97071 0.23695 -0.39900
O 	O 	0.10581 0.10133 0.19348 -0.37700
O 	O 	0.14554 0.06853 0.30434 -0.33900
O 	O 	0.16418 0.24149 0.25816 -0.37600
C 	C 	0.16420 0.29067 0.06961 -0.09700
C 	C 	0.06813 0.24596 0.07974 0.13300
C 	C 	0.03897 0.19979 0.11547 -0.08200
C 	C 	0.10512 0.19885 0.14055 -0.08300
C 	C 	0.19805 0.23319 0.12775 0.11700
N 	N 	0.00586 0.25410 0.05674 -0.21900
H 	H 	0.02667 0.28904 0.03043 0.11100
C 	C 	0.11068 0.83869 0.19299 -0.08800
C 	C 	0.07025 0.79634 0.15757 0.10700
C 	C 	0.09537 0.73134 0.13967 -0.04400
C 	C 	0.16927 0.71843 0.15360 -0.09500
H 	H 	0.06182 0.69635 0.11322 0.05700
C 	C 	0.12114 0.53033 0.27816 -0.03100
C 	C 	0.14615 0.38847 0.26770 -0.08100
C 	C 	0.08528 0.42999 0.26747 0.08500
H 	H 	0.07358 0.55931 0.28301 0.04200
C 	C 	0.11006 0.96389 0.36058 -0.10800
C 	C 	0.10388 0.84148 0.40597 -0.02600
C 	C 	0.19629 0.90866 0.41662 -0.14300
C 	C 	0.01846 0.48438 0.46661 -0.10300
H 	H 	0.21792 0.25177 0.68842 0.03600
C 	C 	0.16345 0.53909 0.96706 -0.08300
H 	H 	0.14580 0.40379 0.99263 0.06400
H 	H 	0.03863 0.44539 0.75619 0.05800
H 	H 	0.23950 0.00042 0.82329 0.05000
C 	C 	0.17998 0.82041 0.20837 -0.04700
C 	C 	0.08998 0.51306 0.90532 -0.02200
H 	H 	0.07597 0.54338 0.87997 0.05400
O 	O 	0.32141 0.60682 0.98623 -0.38500
C 	C 	0.19051 0.03737 0.37885 -0.01200
H 	H 	0.25769 0.25209 0.18198 0.09100
C 	C 	0.26313 0.87102 0.41707 0.30400
C 	C 	0.23801 0.63963 0.32447 0.30000
O 	O 	0.29250 0.85234 0.44996 -0.37300
O 	O 	0.29947 0.86553 0.38414 -0.38300
O 	O 	0.19409 0.58372 0.35398 -0.39300
H 	H 	0.23323 0.69466 0.40277 0.17000
C 	C 	0.21073 0.67283 0.12827 0.31700
O 	O 	0.21837 0.59701 0.14024 -0.37300
O 	O 	0.28464 0.42994 0.03362 -0.37000
C 	C 	0.21896 0.26006 0.08951 -0.04000
N 	N 	0.26910 0.25639 0.15277 -0.19800
C 	C 	0.21164 0.76309 0.18868 0.10900
H 	H 	0.21002 0.85138 0.23575 0.05600
C 	C 	0.21642 0.58868 0.28741 -0.10100
C 	C 	0.24357 0.45415 0.26774 -0.05200
H 	H 	0.29208 0.42660 0.26253 0.05700
C 	C 	0.23100 0.01033 0.40842 0.17000
H 	H 	0.22365 0.11402 0.36920 0.06500
Br	Br	0.24796 0.31698 0.45842 -0.22700
C 	C 	0.27976 0.24541 0.69435 -0.04000
C 	C 	0.27085 0.15890 0.71221 -0.09800
H 	H 	0.31672 0.40915 0.65819 0.09100
C 	C 	0.29646 0.07645 0.82527 -0.03400
C 	C 	0.27980 0.15630 0.81683 -0.08500
C 	C 	0.27788 0.55655 0.27358 0.11700
H 	H 	0.01190 0.91193 0.89636 0.01900
Ni	Ni	0.29706 0.71966 0.46221 1.11600
Ni	Ni	0.26814 0.56708 0.39483 1.12400
O 	O 	0.31521 0.72979 0.32856 -0.37700
O 	O 	0.29199 0.69614 0.41007 -0.70900
Ni	Ni	0.32700 0.73255 0.06035 1.11800
N 	N 	0.30458 0.08124 0.42794 -0.20400
H 	H 	0.29725 0.00305 0.72645 0.11200
H 	H 	0.28050 0.33074 0.81623 0.10400
H 	H 	0.34149 0.94275 0.84584 0.06000
H 	H 	0.32950 0.06208 0.45185 0.12400
H 	H 	0.33350 0.15646 0.42074 0.11300
N 	N 	0.37626 0.40303 0.66414 -0.20100
O 	O 	0.29598 0.59336 0.48498 -0.35300
Ni	Ni	0.30594 0.54932 0.11534 1.11100
H 	H 	0.28732 0.28054 0.07875 0.07200
N 	N 	0.28326 0.75284 0.20341 -0.20200
Br	Br	0.43326 0.85457 0.59836 -0.26200
C 	C 	0.36859 0.32268 0.68312 0.11400
C 	C 	0.35385 0.15780 0.72325 0.11800
N 	N 	0.35130 0.07245 0.73489 -0.20000
C 	C 	0.35711 0.25440 0.81617 0.11000
N 	N 	0.34484 0.33455 0.81075 -0.19900
Ni	Ni	0.38072 0.80251 0.37877 1.12000
Ni	Ni	0.38794 0.57812 0.02677 1.12200
O 	O 	0.35124 0.62576 0.06985 -0.70000
H 	H 	0.33857 0.29110 0.14346 0.11600
H 	H 	0.30768 0.70943 0.19041 0.10500
N 	N 	0.36672 0.62354 0.26330 -0.19900
N 	N 	0.01168 0.82201 0.13957 -0.21600
C 	C 	0.33995 0.55114 0.46869 0.33200
H 	H 	0.31519 0.78843 0.22870 0.08700
H 	H 	0.38763 0.69922 0.26188 0.09700
C 	C 	0.36080 0.40619 0.48488 0.12700
C 	C 	0.38550 0.09370 0.83703 0.10900
H 	H 	0.00580 0.88352 0.14809 0.09800
O 	O 	0.42962 0.80472 0.02241 -0.38300
O 	O 	0.37313 0.59867 0.35576 -0.37300
O 	O 	0.35739 0.56181 0.43249 -0.37100
H 	H 	0.41321 0.59989 0.25393 0.09400
N 	N 	0.39807 0.01538 0.84619 -0.17600
H 	H 	0.40266 0.40468 0.80544 0.08400
C 	C 	0.46521 0.93385 0.55310 0.06300
C 	C 	0.38382 0.50582 0.49160 -0.07800
H 	H 	0.40147 0.29401 0.49278 0.06800
H 	H 	0.40994 0.07510 0.74775 0.08800
H 	H 	0.44199 0.46107 0.65595 0.10300
N 	N 	0.00354 0.77405 0.94311 -0.23200
C 	C 	0.06055 0.37216 0.94328 0.13400
O 	O 	0.46505 0.90525 0.41875 -0.36400
O 	O 	0.41261 0.80056 0.10773 -0.37000
C 	C 	0.44117 0.24325 0.71680 -0.04900
C 	C 	0.44807 0.31221 0.68927 -0.10300
H 	H 	0.46455 0.02553 0.85243 0.11000
O 	O 	0.43963 0.78501 0.45957 -0.38600
O 	O 	0.37961 0.46825 0.10854 -0.37800
H 	H 	0.41725 0.66401 0.07620 0.13200
C 	C 	0.42085 0.37133 0.49718 -0.02800
C 	C 	0.44778 0.26953 0.82409 -0.04700
C 	C 	0.46045 0.19203 0.83922 -0.08900
O 	O 	0.41095 0.67009 0.14374 -0.37100
H 	H 	0.00287 0.05849 0.28622 0.13900
H 	H 	0.45892 0.28279 0.00929 0.07000
Br	Br	0.42179 0.21884 0.09137 -0.21700
C 	C 	0.45569 0.68041 0.35813 0.31900
O 	O 	0.46573 0.74629 0.38280 -0.38800
C 	C 	0.45566 0.76280 0.12998 0.27100
C 	C 	0.48159 0.87854 0.45211 0.33800
H 	H 	0.47975 0.82577 0.30829 0.02500
C 	C 	0.44784 0.48613 0.08405 0.31100
C 	C 	0.50669 0.79877 0.02175 0.28300
C 	C 	0.46156 0.34155 0.06474 0.11700
C 	C 	0.02985 0.41292 0.91513 -0.13100
C 	C 	0.45904 0.08138 0.58012 0.30400
C 	C 	0.50759 0.32304 0.65648 0.31700
O 	O 	0.49319 0.24177 0.63988 -0.38200
O 	O 	0.50302 0.71231 0.01474 -0.34700
C 	C 	0.44045 0.00881 0.54916 -0.02800
H 	H 	0.50437 0.24216 0.72494 0.04100
H 	H 	0.50677 0.34467 0.82358 0.04200
C 	C 	0.46576 0.56847 0.51156 -0.03100
O 	O 	0.47591 0.55789 0.05940 -0.39400
C 	C 	0.49385 0.34718 0.02757 -0.03500
O 	O 	0.48272 0.16930 0.56861 -0.37700
C 	C 	0.43449 0.04027 0.51218 -0.09700
H 	H 	0.41059 0.09391 0.50824 0.07300
C 	C 	0.48043 0.02310 0.48230 0.18800
C 	C 	0.50076 0.90686 0.52163 -0.01500
C 	C 	0.50048 0.94505 0.48508 -0.16400
H 	H 	0.51848 0.84809 0.52475 0.06100
O 	O 	0.50026 0.07642 0.61127 -0.33400
H 	H 	0.50384 0.54080 0.33454 0.10600
C 	C 	0.50376 0.43473 0.51649 -0.08000
H 	H 	0.48518 0.64580 0.51597 0.07100
H 	H 	0.01646 0.56169 0.69735 0.06000
C 	C 	0.53609 0.21938 0.86780 0.29700
C 	C 	0.51944 0.71730 0.32521 -0.10500
O 	O 	0.54381 0.28449 0.89331 -0.37800
Br	Br	0.53155 0.11815 0.44165 -0.22800
C 	C 	0.53656 0.80907 0.30970 -0.04500
C 	C 	0.49954 0.43036 0.08539 -0.09000
C 	C 	0.52692 0.53443 0.52302 0.13000
H 	H 	0.55770 0.96164 0.06603 0.07400
C 	C 	0.55297 0.39186 0.53746 0.33000
O 	O 	0.55518 0.39724 0.57416 -0.37400
H 	H 	0.52640 0.92443 0.17536 0.04000
H 	H 	0.57207 0.14833 0.77150 0.08800
C 	C 	0.55414 0.82566 0.14158 -0.09600
O 	O 	0.58621 0.40708 0.64984 -0.37800
O 	O 	0.58671 0.34115 0.51995 -0.34900
N 	N 	0.57233 0.59752 0.32913 -0.20200
H 	H 	0.59464 0.27323 0.77995 0.10100
H 	H 	0.59051 0.99832 0.30177 0.07600
H 	H 	0.57355 0.74276 0.07966 0.10100
C 	C 	0.60185 0.97464 0.04135 -0.11000
C 	C 	0.59720 0.89327 0.02152 -0.04800
C 	C 	0.58332 0.42536 0.01765 -0.07400
C 	C 	0.57428 0.89602 0.17011 -0.02800
O 	O 	0.60625 0.19815 0.86179 -0.36400
C 	C 	0.59074 0.69206 0.32214 0.11900
H 	H 	0.61428 0.57783 0.73262 0.08700
Ni	Ni	0.59410 0.20610 0.63878 1.12200
N 	N 	0.61945 0.22270 0.77766 -0.19900
Ni	Ni	0.61671 0.24050 0.54844 1.11900
H 	H 	0.63146 0.83510 0.66153 0.09200
H 	H 	0.63105 0.72635 0.88699 0.09300
C 	C 	0.62886 0.88791 0.30657 0.10400
O 	O 	0.63258 0.45160 0.95141 -0.35600
N 	N 	0.61516 0.74359 0.10189 -0.20200
H 	H 	0.62605 0.57939 0.32816 0.09700
C 	C 	0.61893 0.79151 0.13448 0.11500
Br	Br	0.64421 0.17788 0.05030 -0.20900
C 	C 	0.59671 0.48988 0.08181 -0.02200
C 	C 	0.63131 0.41046 0.98539 0.30700
H 	H 	0.63751 0.93098 0.60654 0.07600
H 	H 	0.64791 0.44475 0.72336 0.05800
N 	N 	0.64495 0.98315 0.30745 -0.22400
Br	Br	0.64401 0.62648 0.54617 -0.23800
C 	C 	0.65184 0.07081 0.02604 0.18500
H 	H 	0.65052 0.28489 0.93536 0.18300
H 	H 	0.63348 0.03303 0.22199 0.10200
O 	O 	0.64905 0.12748 0.56558 -0.33900
O 	O 	0.65351 0.29531 0.59677 -0.71100
C 	C 	0.66433 0.91249 0.99314 0.06400
C 	C 	0.63713 0.49569 0.04604 0.12800
Ni	Ni	0.66698 0.41558 0.89719 1.11000
Ni	Ni	0.67000 0.42499 0.60387 1.12500
C 	C 	0.65495 0.92827 0.19263 0.05900
H 	H 	0.63527 0.54639 0.10284 0.06000
H 	H 	0.66128 0.71608 0.09711 0.10900
O 	O 	0.68421 0.15089 0.93241 -0.37400
O 	O 	0.67694 0.30929 0.67917 -0.37400
C 	C 	0.68258 0.76665 0.31310 -0.04400
N 	N 	0.68507 0.62997 0.72847 -0.19700
H 	H 	0.01166 0.32587 0.73803 0.05300
O 	O 	0.68232 0.36743 0.99261 -0.35700
Br	Br	0.69878 0.81454 0.98013 -0.21700
O 	O 	0.69019 0.39530 0.83903 -0.37200
O 	O 	0.68814 0.16150 0.62952 -0.36800
N 	N 	0.69468 0.89498 0.67077 -0.19200
H 	H 	0.69856 0.10942 0.77089 0.06200
H 	H 	0.69084 0.63569 0.92204 0.05100
N 	N 	0.68002 0.00644 0.21641 -0.16700
H 	H 	0.70154 0.70142 0.71964 0.09400
N 	N 	0.69925 0.78249 0.88070 -0.19800
C 	C 	0.70174 0.08606 0.99189 -0.10200
C 	C 	0.69992 0.13044 0.59600 0.28000
H 	H 	0.70499 0.90506 0.69993 0.06800
C 	C 	0.68980 0.81055 0.16069 -0.05200
Br	Br	0.00983 0.23092 0.94717 -0.24000
C 	C 	0.70361 0.86656 0.30765 -0.08300
O 	O 	0.70719 0.33495 0.92194 -0.71400
H 	H 	0.70813 0.84846 0.86867 0.10200
H 	H 	0.70688 0.04032 0.31877 0.14200
C 	C 	0.71232 0.25442 0.78073 0.11700
C 	C 	0.71002 0.98288 0.61309 -0.09100
C 	C 	0.71471 0.00854 0.97758 0.04200
C 	C 	0.70996 0.87991 0.18943 -0.06800
C 	C 	0.72197 0.49913 0.72187 -0.04400
H 	H 	0.71867 0.30803 0.59806 0.17100
C 	C 	0.72068 0.17099 0.96705 0.31800
Ni	Ni	0.73488 0.25204 0.89084 1.12200
H 	H 	0.73485 0.77806 0.15655 0.06000
H 	H 	0.73780 0.74727 0.31109 0.04500
C 	C 	0.74713 0.18824 0.77418 -0.05800
O 	O 	0.99891 0.03905 0.25945 -0.65700
H 	H 	0.96625 0.16844 0.12419 0.09200
O 	O 	0.98777 0.86594 0.21852 -0.36200
H 	H 	0.93551 0.22381 0.06478 0.13200
H 	H 	0.99474 0.71647 0.96129 0.14100
H 	H 	0.97219 0.26040 0.57930 0.12000
N 	N 	0.99245 0.36877 0.75476 -0.15600
N 	N 	0.99627 0.37765 0.25405 -0.17700
H 	H 	0.97567 0.31460 0.23730 0.08900
O 	O 	0.97976 0.01217 0.77398 -0.66800
H 	H 	0.97942 0.03825 0.79942 0.17900
H 	H 	0.95002 0.40581 0.25676 0.09900
C 	C 	0.94686 0.50376 0.45511 0.00100
C 	C 	0.82943 0.58754 0.92813 0.31900
C 	C 	0.76237 0.38372 0.82979 0.32400
C 	C 	0.93005 0.38083 0.91452 0.36600
Ni	Ni	0.79500 0.39537 0.96204 1.12900
O 	O 	0.90446 0.44216 0.92790 -0.38700
O 	O 	0.79957 0.53656 0.89724 -0.37600
O 	O 	0.82005 0.53989 0.96017 -0.34900
O 	O 	0.80620 0.36823 0.85657 -0.39200
O 	O 	0.78835 0.26255 0.97670 -0.35200
O 	O 	0.86650 0.28763 0.90767 -0.36100
C 	C 	0.79851 0.42618 0.53956 0.30200
C 	C 	0.74883 0.40187 0.67337 0.29900
O 	O 	0.75108 0.33075 0.53148 -0.36600
O 	O 	0.75826 0.47388 0.55666 -0.34300
O 	O 	0.77094 0.44107 0.63916 -0.38800
C 	C 	0.88397 0.77591 0.74033 0.31200
C 	C 	0.88451 0.87379 0.84006 0.29800
C 	C 	0.88992 0.03595 0.69129 0.35200
C 	C 	0.88237 0.15285 0.77385 0.28900
Ni	Ni	0.84752 0.93851 0.76573 1.10200
O 	O 	0.86324 0.95121 0.70910 -0.42600
O 	O 	0.97397 0.83936 0.73795 -0.37200
O 	O 	0.83034 0.79830 0.76118 -0.38000
O 	O 	0.97329 0.18617 0.78005 -0.36000
O 	O 	0.82137 0.05530 0.77115 -0.36200
O 	O 	0.93686 0.84573 0.82044 -0.36500
O 	O 	0.83535 0.91000 0.82257 -0.38700
O 	O 	0.95485 0.12121 0.70586 -0.37800
C 	C 	0.80295 0.94436 0.30075 0.25600
C 	C 	0.79922 0.91650 0.20999 0.25100
Ni	Ni	0.93572 0.10527 0.24271 1.12000
Ni	Ni	0.93370 0.89701 0.26422 1.11500
O 	O 	0.82314 0.02792 0.28177 -0.32800
O 	O 	0.86847 0.92093 0.30767 -0.38600
O 	O 	0.86803 0.00322 0.20114 -0.33800
O 	O 	0.81292 0.85703 0.23308 -0.36600
H 	H 	0.74859 0.04835 0.22600 0.07800
H 	H 	0.97698 0.78520 0.11484 0.12300
N 	N 	0.96695 0.80797 0.37052 -0.18100
H 	H 	0.92801 0.83414 0.35588 0.10700
H 	H 	0.93149 0.73614 0.38199 0.10600
C 	C 	0.95940 0.46210 0.53115 -0.00300
C 	C 	0.88799 0.48193 0.51988 -0.07800
C 	C 	0.88638 0.50956 0.48194 0.12400
H 	H 	0.96157 0.44058 0.56025 0.05700
H 	H 	0.94577 0.52673 0.42613 0.06300
Br	Br	0.79642 0.54750 0.46569 -0.20000
C 	C 	0.75324 0.07670 0.59573 -0.02600
C 	C 	0.85152 0.13398 0.59859 0.11000
C 	C 	0.89765 0.11437 0.62831 -0.03300
C 	C 	0.84580 0.03722 0.65445 -0.05100
C 	C 	0.75023 0.96808 0.64599 0.08500
H 	H 	0.97241 0.16249 0.63234 0.06800
N 	N 	0.90018 0.21377 0.57554 -0.19900
H 	H 	0.86666 0.22901 0.55341 0.11500
C 	C 	0.78407 0.47217 0.70525 -0.08900
C 	C 	0.88133 0.53960 0.70742 0.11000
C 	C 	0.91285 0.63795 0.71937 -0.03900
C 	C 	0.84828 0.67071 0.72799 -0.09000
C 	C 	0.75071 0.60021 0.72779 0.11400
H 	H 	0.98759 0.68924 0.72116 0.05900
N 	N 	0.94450 0.51111 0.69679 -0.18100
H 	H 	0.92256 0.43752 0.68906 0.10000
H 	H 	0.76075 0.02192 0.95351 0.07400
Br	Br	0.76103 0.60280 0.03572 -0.21600
C 	C 	0.86836 0.39312 0.77920 -0.02700
C 	C 	0.77478 0.35284 0.79162 -0.10900
C 	C 	0.84483 0.22468 0.77209 -0.07200
C 	C 	0.90454 0.32943 0.76948 0.10300
H 	H 	0.91585 0.47239 0.78202 0.05500
C 	C 	0.76123 0.69554 0.91616 -0.03300
C 	C 	0.83886 0.68735 0.92838 -0.08700
C 	C 	0.92881 0.77178 0.92545 0.14000
C 	C 	0.94158 0.85144 0.90194 -0.00500
C 	C 	0.86608 0.84376 0.88036 -0.09700
C 	C 	0.77432 0.77414 0.89213 0.12300
