data_crystal

_cell_length_a 25.77562
_cell_length_b 27.20495
_cell_length_c 31.95227
_cell_angle_alpha 61.02451
_cell_angle_beta  118.67856
_cell_angle_gamma 133.20407

_symmetry_space_group_name_	'P 1'
_symmetry_space_group_name_H-M	'P 1'

loop_
_symmetry_equiv_pos_as_xyz
  x,y,z

loop_
_atom_site_label
_atom_site_type_symbol
_atom_site_fract_x
_atom_site_fract_y
_atom_site_fract_z
_atom_site_charge
C 	C 	0.25319 0.63247 0.25042 -0.01400
C 	C 	0.32444 0.68026 0.24260 -0.02300
C 	C 	0.35061 0.66144 0.22756 -0.01800
C 	C 	0.30456 0.59596 0.21805 -0.01800
C 	C 	0.23361 0.54795 0.22556 -0.01700
C 	C 	0.20818 0.56547 0.24259 -0.02900
H 	H 	0.36029 0.73120 0.24967 0.05800
H 	H 	0.32446 0.58179 0.20575 0.05800
H 	H 	0.15432 0.52688 0.25025 0.04000
C 	C 	0.27143 0.63591 0.76006 -0.01600
C 	C 	0.23097 0.57225 0.74863 -0.02300
C 	C 	0.26578 0.55776 0.73803 -0.01700
C 	C 	0.34069 0.60606 0.73953 -0.01900
C 	C 	0.38099 0.66951 0.75023 -0.01600
C 	C 	0.34612 0.68541 0.75899 -0.02900
H 	H 	0.17317 0.53427 0.74829 0.05100
H 	H 	0.36745 0.59450 0.73167 0.05600
H 	H 	0.37706 0.73610 0.76473 0.04200
Co	Co	0.06747 0.01354 0.08632 1.17000
Co	Co	0.01213 0.07287 0.11217 1.16700
C 	C 	0.20582 0.02347 0.12179 0.22100
Co	Co	0.07106 0.89055 0.09588 1.16600
O 	O 	0.07849 0.09941 0.07655 -0.47600
C 	C 	0.07689 0.16213 0.17843 0.26100
C 	C 	0.07015 0.82457 0.20183 0.27300
O 	O 	0.09920 0.96693 0.03126 -0.38600
O 	O 	0.02294 0.11906 0.20085 -0.39300
O 	O 	0.09043 0.13833 0.16007 -0.39100
O 	O 	0.04957 0.81170 0.15991 -0.39500
O 	O 	0.05872 0.86367 0.20379 -0.39000
O 	O 	0.03184 0.92877 0.10727 -0.76400
C 	C 	0.94920 0.96738 0.26221 0.31500
O 	O 	0.17458 0.95641 0.13368 -0.33700
O 	O 	0.17466 0.04639 0.12266 -0.38700
Co	Co	0.06450 0.01071 0.58203 1.17100
Co	Co	0.01781 0.07931 0.60592 1.16800
C 	C 	0.20308 0.04054 0.59339 0.23600
Co	Co	0.07559 0.89100 0.59796 1.16400
O 	O 	0.07514 0.09821 0.56688 -0.47800
C 	C 	0.09021 0.19357 0.64888 0.27500
C 	C 	0.11536 0.86112 0.70653 0.26300
O 	O 	0.00658 0.89428 0.52931 -0.41100
O 	O 	0.02411 0.17669 0.63604 -0.40000
O 	O 	0.10025 0.15394 0.64599 -0.39200
O 	O 	0.14183 0.89018 0.66813 -0.36400
O 	O 	0.08900 0.88508 0.71195 -0.37400
O 	O 	0.03726 0.92898 0.61130 -0.75500
C 	C 	0.00479 0.02337 0.76191 0.26800
O 	O 	0.16234 0.98993 0.57161 -0.36000
O 	O 	0.17286 0.04866 0.61066 -0.39000
C 	C 	0.21948 0.44855 0.68146 0.11300
C 	C 	0.20053 0.42254 0.64394 -0.08700
C 	C 	0.20277 0.36624 0.65785 0.01000
C 	C 	0.21072 0.33013 0.70643 0.12000
C 	C 	0.22257 0.35281 0.74355 -0.09400
C 	C 	0.23211 0.41558 0.72960 0.02400
O 	O 	0.21137 0.49787 0.67394 -0.21400
C 	C 	0.22413 0.49355 0.72322 0.12000
C 	C 	0.23097 0.44033 0.75636 -0.10400
O 	O 	0.18086 0.26166 0.71237 -0.18800
C 	C 	0.15296 0.25954 0.66287 0.04100
C 	C 	0.16592 0.32174 0.63026 -0.05500
H 	H 	0.18302 0.44391 0.60576 0.06600
H 	H 	0.22133 0.32146 0.78104 0.07000
H 	H 	0.25559 0.43685 0.79537 0.06400
H 	H 	0.13238 0.32602 0.59339 0.05700
C 	C 	0.18030 0.76132 0.78997 0.11900
C 	C 	0.23859 0.75700 0.80638 -0.09200
C 	C 	0.22364 0.69861 0.80290 0.02800
C 	C 	0.15711 0.65285 0.77664 0.11100
C 	C 	0.09990 0.65937 0.75783 -0.08800
C 	C 	0.11137 0.71079 0.76892 0.01200
O 	O 	0.19155 0.82427 0.77710 -0.17800
C 	C 	0.12307 0.80708 0.74605 0.04400
C 	C 	0.07504 0.73944 0.74143 -0.06700
O 	O 	0.16050 0.61948 0.75690 -0.21700
C 	C 	0.23563 0.65014 0.77358 0.12400
C 	C 	0.27337 0.69690 0.80124 -0.10400
H 	H 	0.29421 0.79983 0.81812 0.07500
H 	H 	0.05023 0.62874 0.73284 0.06400
H 	H 	0.02905 0.72171 0.71042 0.05600
H 	H 	0.33197 0.73579 0.80960 0.06400
C 	C 	0.17670 0.30691 0.22190 0.11900
C 	C 	0.17623 0.32942 0.25298 -0.09500
C 	C 	0.16031 0.37787 0.23145 0.02500
C 	C 	0.15178 0.40767 0.18173 0.11100
C 	C 	0.15335 0.38611 0.15063 -0.08700
C 	C 	0.16779 0.33648 0.17197 0.01200
O 	O 	0.15806 0.24083 0.23441 -0.18900
C 	C 	0.13394 0.23195 0.18730 0.04400
C 	C 	0.14081 0.28929 0.14997 -0.06100
O 	O 	0.16692 0.47230 0.16908 -0.21500
C 	C 	0.18648 0.47888 0.21619 0.12300
C 	C 	0.18271 0.42275 0.25358 -0.10700
H 	H 	0.18397 0.30706 0.29230 0.06800
H 	H 	0.14528 0.40834 0.11131 0.06700
H 	H 	0.10758 0.28678 0.11269 0.05300
H 	H 	0.21451 0.42545 0.29112 0.06500
C 	C 	0.22595 0.71108 0.29332 0.11600
C 	C 	0.23632 0.77033 0.29055 -0.08500
C 	C 	0.17557 0.76376 0.28747 0.01200
C 	C 	0.10577 0.70342 0.28081 0.11900
C 	C 	0.09487 0.64592 0.27960 -0.09500
C 	C 	0.15659 0.64973 0.28925 0.02500
O 	O 	0.27516 0.71581 0.28190 -0.21300
C 	C 	0.22831 0.65215 0.26945 0.12300
C 	C 	0.15733 0.61255 0.27342 -0.10400
O 	O 	0.05150 0.71382 0.25685 -0.19400
C 	C 	0.09495 0.78633 0.24698 0.04300
C 	C 	0.16891 0.81624 0.26615 -0.05500
H 	H 	0.28859 0.82074 0.28720 0.07500
H 	H 	0.04026 0.60194 0.26796 0.06500
H 	H 	0.10950 0.57370 0.25306 0.05900
H 	H 	0.21145 0.86936 0.25155 0.06600
C 	C 	0.46654 0.14353 0.56616 0.11100
C 	C 	0.40602 0.14550 0.53862 -0.08800
C 	C 	0.37163 0.14406 0.56278 0.01100
C 	C 	0.39181 0.13451 0.61305 0.11900
C 	C 	0.45213 0.13219 0.64079 -0.09600
C 	C 	0.48785 0.13535 0.61645 0.02400
O 	O 	0.33590 0.10390 0.63352 -0.19200
C 	C 	0.27984 0.09439 0.59081 0.04900
C 	C 	0.30099 0.11888 0.54853 -0.06200
H 	H 	0.38865 0.15155 0.49919 0.06700
H 	H 	0.46949 0.12628 0.68020 0.06800
H 	H 	0.26397 0.10022 0.51541 0.05200
C 	C 	0.48035 0.22402 0.05744 0.11400
C 	C 	0.41468 0.21277 0.04917 -0.08400
C 	C 	0.36042 0.14786 0.07217 0.00900
C 	C 	0.37162 0.09791 0.10391 0.11900
C 	C 	0.43740 0.10918 0.11264 -0.09600
C 	C 	0.49179 0.17398 0.08949 0.02800
O 	O 	0.32385 0.04758 0.13494 -0.20000
C 	C 	0.28222 0.07214 0.11823 0.05100
C 	C 	0.30629 0.13399 0.08234 -0.06100
H 	H 	0.40537 0.25202 0.02448 0.07000
H 	H 	0.44614 0.06947 0.13687 0.06500
H 	H 	0.27446 0.15421 0.05768 0.05400
C 	C 	0.72774 0.31609 0.00222 -0.00700
C 	C 	0.65842 0.27030 0.01287 -0.02600
C 	C 	0.63842 0.29154 0.03123 -0.01600
C 	C 	0.68817 0.35751 0.04044 -0.01900
C 	C 	0.75706 0.40335 0.03010 -0.01200
C 	C 	0.77635 0.38368 0.00981 -0.03000
H 	H 	0.61979 0.21877 0.00627 0.05600
H 	H 	0.67313 0.37335 0.05552 0.05800
H 	H 	0.82862 0.42094 0.00001 0.04700
C 	C 	0.75396 0.31039 0.54359 -0.01800
C 	C 	0.78627 0.37220 0.55385 -0.02200
C 	C 	0.75348 0.37249 0.57829 -0.01400
C 	C 	0.68781 0.31111 0.59173 -0.02600
C 	C 	0.65536 0.24959 0.58145 -0.01800
C 	C 	0.68890 0.24913 0.55797 -0.01700
H 	H 	0.83527 0.42017 0.54153 0.05300
H 	H 	0.65947 0.31228 0.60726 0.04300
H 	H 	0.66308 0.20164 0.54943 0.05500
Co	Co	0.92727 0.93652 0.17570 1.19800
Co	Co	0.98032 0.87686 0.14861 1.19900
Co	Co	0.91582 0.05270 0.16624 1.16100
C 	C 	0.90997 0.78046 0.08383 0.26500
O 	O 	0.93366 0.13319 0.10299 -0.38200
O 	O 	0.94903 0.01645 0.14626 -0.77600
C 	C 	0.92088 0.12726 0.06005 0.26600
O 	O 	0.92501 0.85362 0.19144 -0.45500
C 	C 	0.78024 0.91415 0.14726 0.26400
O 	O 	0.97422 0.96789 0.11551 -0.54600
C 	C 	0.05939 0.98942 0.99950 0.31500
O 	O 	0.95277 0.10894 0.05453 -0.36300
O 	O 	0.04324 0.01551 0.01321 -0.41000
O 	O 	0.81294 0.98196 0.13084 -0.35200
O 	O 	0.81575 0.88621 0.16450 -0.36500
O 	O 	0.89917 0.97818 0.23292 -0.38200
O 	O 	0.97798 0.95778 0.24464 -0.37400
O 	O 	0.96313 0.82942 0.06012 -0.34900
O 	O 	0.90555 0.79011 0.11890 -0.35800
Co	Co	0.95368 0.95572 0.68421 1.20100
Co	Co	0.00137 0.88734 0.66072 1.17500
Co	Co	0.93765 0.07651 0.66156 1.17200
C 	C 	0.92759 0.76807 0.62004 0.27000
O 	O 	0.87630 0.07545 0.59006 -0.38100
O 	O 	0.96503 0.03025 0.64652 -0.76600
C 	C 	0.90909 0.11664 0.55322 0.26600
O 	O 	0.95906 0.87529 0.70739 -0.44400
C 	C 	0.81194 0.92428 0.67571 0.27300
O 	O 	0.98403 0.97185 0.62054 -0.54400
C 	C 	0.01997 0.95350 0.49768 0.36400
O 	O 	0.95505 0.11319 0.54868 -0.35400
O 	O 	0.03423 0.00255 0.51021 -0.42100
O 	O 	0.85126 0.98078 0.69058 -0.35800
O 	O 	0.84302 0.90049 0.67629 -0.36900
O 	O 	0.00538 0.07785 0.73157 -0.39000
O 	O 	0.01507 0.99212 0.74827 -0.36100
O 	O 	0.99296 0.78878 0.62430 -0.37300
O 	O 	0.91946 0.79404 0.64042 -0.35800
C 	C 	0.04538 0.99735 0.94793 -0.02700
C 	C 	0.03556 0.00204 0.90549 -0.03100
C 	C 	0.02521 0.00709 0.85608 0.04700
C 	C 	0.01638 0.01284 0.81359 -0.10100
C 	C 	0.97115 0.96535 0.31361 -0.06000
C 	C 	0.98551 0.96468 0.35586 0.02900
C 	C 	0.99904 0.96356 0.40486 0.10700
C 	C 	0.00895 0.96078 0.44680 -0.14500
C 	C 	0.63396 0.84718 0.67534 0.12500
C 	C 	0.59050 0.85361 0.68383 -0.09300
C 	C 	0.55583 0.80517 0.72306 0.03300
C 	C 	0.56059 0.75021 0.75108 0.11500
C 	C 	0.60346 0.74346 0.74221 -0.08200
C 	C 	0.63728 0.79130 0.70257 0.01000
O 	O 	0.69325 0.90420 0.65422 -0.18300
C 	C 	0.73303 0.87761 0.67203 0.04800
C 	C 	0.69985 0.81028 0.70057 -0.05000
O 	O 	0.50218 0.69335 0.77298 -0.21400
C 	C 	0.46038 0.71818 0.75385 0.12600
C 	C 	0.49227 0.78506 0.72440 -0.10500
H 	H 	0.58618 0.89644 0.66186 0.07700
H 	H 	0.60780 0.70063 0.76418 0.07000
H 	H 	0.72899 0.78819 0.72844 0.06200
H 	H 	0.46206 0.80570 0.69581 0.06800
C 	C 	0.52589 0.73762 0.22103 0.11500
C 	C 	0.56831 0.73099 0.21151 -0.08400
C 	C 	0.60385 0.78057 0.17279 0.01100
C 	C 	0.60139 0.83706 0.14651 0.12200
C 	C 	0.55784 0.84300 0.15547 -0.09300
C 	C 	0.52268 0.79358 0.19441 0.03100
O 	O 	0.46750 0.68083 0.24301 -0.21300
C 	C 	0.42812 0.70757 0.22613 0.12800
C 	C 	0.46043 0.77466 0.19705 -0.10500
O 	O 	0.66163 0.89467 0.12637 -0.18300
C 	C 	0.70118 0.86784 0.14405 0.04900
C 	C 	0.66686 0.79977 0.17140 -0.05400
H 	H 	0.57174 0.68755 0.23260 0.07100
H 	H 	0.55445 0.88647 0.13446 0.07700
H 	H 	0.43108 0.79677 0.16984 0.06900
H 	H 	0.69502 0.77657 0.19896 0.06400
C 	C 	0.90657 0.26161 0.50090 0.12300
C 	C 	0.92032 0.31336 0.51300 -0.09500
C 	C 	0.86285 0.31811 0.49849 0.03200
C 	C 	0.79229 0.26830 0.47835 0.11300
C 	C 	0.77751 0.21336 0.46986 -0.08400
C 	C 	0.83655 0.21361 0.47871 0.00800
O 	O 	0.95044 0.23855 0.52622 -0.18500
C 	C 	0.89953 0.17137 0.51896 0.04300
C 	C 	0.83169 0.15611 0.49064 -0.05500
O 	O 	0.73892 0.26193 0.48579 -0.21400
C 	C 	0.78380 0.31079 0.51371 0.12800
C 	C 	0.85772 0.34462 0.52141 -0.10500
H 	H 	0.97229 0.34516 0.53620 0.07700
H 	H 	0.72159 0.16925 0.46041 0.06600
H 	H 	0.78109 0.10399 0.49239 0.05400
H 	H 	0.89903 0.36797 0.55212 0.06800
C 	C 	0.77954 0.52451 0.56086 0.11600
C 	C 	0.80072 0.59295 0.54000 -0.08400
C 	C 	0.80536 0.62423 0.56729 0.01400
C 	C 	0.80065 0.59334 0.61590 0.12100
C 	C 	0.78711 0.52773 0.63819 -0.09100
C 	C 	0.77180 0.49277 0.60848 0.02700
O 	O 	0.78713 0.49308 0.54257 -0.20800
C 	C 	0.78232 0.43868 0.58399 0.12400
C 	C 	0.77782 0.44117 0.62432 -0.10200
O 	O 	0.83621 0.64014 0.64313 -0.18400
C 	C 	0.86429 0.70200 0.60675 0.04900
C 	C 	0.84637 0.69305 0.56156 -0.05800
H 	H 	0.81606 0.62168 0.50498 0.07300
H 	H 	0.79260 0.50676 0.67758 0.07300
H 	H 	0.76305 0.39969 0.65731 0.06300
H 	H 	0.87824 0.73209 0.53391 0.06300
O 	O 	0.52231 0.17548 0.54514 -0.21300
C 	C 	0.58019 0.18984 0.58679 0.12400
C 	C 	0.55973 0.16452 0.62966 -0.10800
H 	H 	0.59663 0.18513 0.66202 0.06100
C 	C 	0.74803 0.22669 0.96515 0.11200
C 	C 	0.74043 0.16633 0.97436 -0.08400
C 	C 	0.80092 0.17345 0.97637 0.00200
C 	C 	0.86893 0.23675 0.97587 0.12400
C 	C 	0.87755 0.29636 0.97000 -0.09500
C 	C 	0.81505 0.29059 0.96155 0.02900
O 	O 	0.70170 0.22468 0.97759 -0.21900
C 	C 	0.74790 0.29277 0.98248 0.11800
C 	C 	0.81568 0.33240 0.97305 -0.10200
O 	O 	0.92674 0.23123 0.99990 -0.18800
C 	C 	0.88738 0.15896 0.01628 0.05100
C 	C 	0.81248 0.12418 0.00216 -0.05400
H 	H 	0.69106 0.11543 0.98347 0.06200
H 	H 	0.93172 0.34417 0.97577 0.07600
H 	H 	0.86510 0.37672 0.98783 0.06400
H 	H 	0.77439 0.07272 0.02182 0.05200
C 	C 	0.81868 0.64250 0.03565 0.11800
C 	C 	0.82476 0.62328 0.00556 -0.08000
C 	C 	0.83954 0.57398 0.02760 0.02300
C 	C 	0.84297 0.54122 0.07689 0.11900
C 	C 	0.83585 0.55969 0.10685 -0.08600
C 	C 	0.82121 0.60913 0.08489 0.01600
O 	O 	0.83771 0.70839 0.02439 -0.17900
C 	C 	0.85502 0.71284 0.07170 0.05000
C 	C 	0.84368 0.65326 0.10775 -0.05700
O 	O 	0.82625 0.47623 0.08859 -0.21100
C 	C 	0.80921 0.47161 0.04139 0.12200
C 	C 	0.81812 0.53019 0.00493 -0.09100
H 	H 	0.82150 0.64832 0.96667 0.06900
H 	H 	0.83922 0.53468 0.14575 0.07400
H 	H 	0.87208 0.65246 0.14616 0.06900
H 	H 	0.78914 0.53006 0.96668 0.06000
O 	O 	0.52543 0.27207 0.02455 -0.21200
C 	C 	0.56475 0.24570 0.03972 0.12500
C 	C 	0.54292 0.18574 0.07718 -0.10700
H 	H 	0.57386 0.16434 0.10026 0.06300
