data_crystal

_cell_length_a 18.85586
_cell_length_b 19.69697
_cell_length_c 42.93159
_cell_angle_alpha 89.97485
_cell_angle_beta  90.02469
_cell_angle_gamma 120.00761

_symmetry_space_group_name_	'P 1'
_symmetry_space_group_name_H-M	'P 1'

loop_
_symmetry_equiv_pos_as_xyz
  x,y,z

loop_
_atom_site_label
_atom_site_type_symbol
_atom_site_fract_x
_atom_site_fract_y
_atom_site_fract_z
_atom_site_charge
Cu	Cu	0.69698 0.43335 0.56643 0.92600
Cu	Cu	0.77000 0.42191 0.63367 0.86900
Cu	Cu	0.87172 0.46588 0.57600 0.89500
Cu	Cu	0.82566 0.49553 0.51203 0.89100
C 	C 	0.68609 0.52586 0.51697 0.29000
O 	O 	0.65427 0.34239 0.53620 -0.37300
C 	C 	0.89502 0.38409 0.63031 0.28700
O 	O 	0.81911 0.51397 0.55459 -0.64200
O 	O 	0.75728 0.39302 0.59022 -0.64400
O 	O 	0.64014 0.44977 0.60209 -0.38700
O 	O 	0.75521 0.51023 0.63140 -0.44200
O 	O 	0.72987 0.50647 0.49884 -0.38900
O 	O 	0.98000 0.54386 0.56211 -0.36100
C 	C 	0.00170 0.56694 0.53298 0.24100
C 	C 	0.70341 0.32095 0.52341 0.28300
O 	O 	0.78196 0.37178 0.52062 -0.39200
O 	O 	0.94774 0.54374 0.50992 -0.37000
O 	O 	0.65628 0.48978 0.54371 -0.37500
C 	C 	0.68348 0.50069 0.62380 0.29100
O 	O 	0.92692 0.42889 0.60526 -0.38400
O 	O 	0.81881 0.35886 0.63867 -0.42600
H 	H 	0.84016 0.56960 0.56016 0.16400
H 	H 	0.73884 0.33695 0.58674 0.16900
Cu	Cu	0.42562 0.72027 0.43363 0.92700
Cu	Cu	0.38637 0.79111 0.37108 0.87100
Cu	Cu	0.46210 0.88988 0.43040 0.89600
Cu	Cu	0.51432 0.83779 0.48874 0.89200
C 	C 	0.53140 0.69782 0.47519 0.28900
O 	O 	0.34508 0.68216 0.46937 -0.37000
C 	C 	0.37477 0.92437 0.38143 0.28100
O 	O 	0.51704 0.83541 0.44471 -0.63700
O 	O 	0.37906 0.78179 0.41605 -0.64100
O 	O 	0.41916 0.66056 0.39549 -0.38400
O 	O 	0.47015 0.76659 0.36364 -0.44000
O 	O 	0.51890 0.73951 0.49633 -0.38700
O 	O 	0.54575 0.99090 0.44599 -0.36000
C 	C 	0.56763 0.00549 0.47555 0.24200
C 	C 	0.32892 0.73012 0.48511 0.28200
O 	O 	0.38531 0.80430 0.48812 -0.39300
O 	O 	0.57675 0.95450 0.49272 -0.37000
O 	O 	0.48975 0.67733 0.44888 -0.37200
C 	C 	0.45832 0.69673 0.37008 0.29700
O 	O 	0.41686 0.94737 0.40776 -0.37800
O 	O 	0.33214 0.84973 0.37437 -0.42100
H 	H 	0.57210 0.85464 0.43561 0.16100
H 	H 	0.32305 0.76489 0.42353 0.16400
Cu	Cu	0.47887 0.24488 0.23791 0.92700
Cu	Cu	0.47178 0.33198 0.30163 0.86400
Cu	Cu	0.44257 0.37855 0.23873 0.89500
Cu	Cu	0.40624 0.28733 0.17965 0.88900
C 	C 	0.39151 0.13163 0.19013 0.28500
O 	O 	0.57130 0.29509 0.20663 -0.36800
C 	C 	0.49862 0.48592 0.29100 0.28000
O 	O 	0.38971 0.27266 0.22312 -0.63900
O 	O 	0.51514 0.34542 0.25934 -0.64200
O 	O 	0.47474 0.18370 0.27527 -0.37700
O 	O 	0.39731 0.22240 0.30192 -0.44400
O 	O 	0.41106 0.19016 0.17062 -0.39400
O 	O 	0.36580 0.40535 0.22069 -0.39500
C 	C 	0.34461 0.39758 0.19105 0.29300
C 	C 	0.58912 0.36080 0.19228 0.28400
O 	O 	0.53200 0.37959 0.18789 -0.40300
O 	O 	0.33896 0.33885 0.17424 -0.40100
O 	O 	0.42368 0.14438 0.21826 -0.36800
C 	C 	0.42513 0.17384 0.29843 0.29100
O 	O 	0.49054 0.47887 0.26046 -0.38200
O 	O 	0.52143 0.44296 0.30699 -0.42000
H 	H 	0.33222 0.23919 0.22993 0.15800
H 	H 	0.57421 0.38437 0.25753 0.17100
Cu	Cu	0.21413 0.69754 0.10016 0.92700
Cu	Cu	0.11546 0.60240 0.03765 0.86400
Cu	Cu	0.03908 0.56162 0.10094 0.88700
Cu	Cu	0.09969 0.65666 0.15924 0.88500
C 	C 	0.24133 0.81337 0.14607 0.29700
O 	O 	0.25853 0.65106 0.13146 -0.36400
C 	C 	0.98720 0.44733 0.05044 0.31600
O 	O 	0.09605 0.66821 0.11572 -0.64200
O 	O 	0.14615 0.59489 0.08028 -0.64400
O 	O 	0.26567 0.75770 0.06154 -0.38100
O 	O 	0.14379 0.70949 0.03655 -0.44600
O 	O 	0.20395 0.75687 0.16674 -0.39200
O 	O 	0.93458 0.53512 0.11916 -0.37900
C 	C 	0.92197 0.54494 0.14866 0.29200
C 	C 	0.20968 0.58671 0.14708 0.28300
O 	O 	0.13257 0.56655 0.15166 -0.40700
O 	O 	0.97868 0.60341 0.16533 -0.38600
O 	O 	0.26344 0.79897 0.11889 -0.37300
C 	C 	0.22014 0.76501 0.04017 0.29200
O 	O 	0.98216 0.45927 0.08044 -0.37700
O 	O 	0.05531 0.49064 0.03474 -0.44500
H 	H 	0.07239 0.70061 0.10874 0.15700
H 	H 	0.16568 0.55700 0.08298 0.16800
Cu	Cu	0.23681 0.51417 0.76863 0.92800
Cu	Cu	0.32321 0.52411 0.70192 0.86900
Cu	Cu	0.38035 0.48477 0.76082 0.89500
Cu	Cu	0.30405 0.46103 0.82481 0.88900
C 	C 	0.13026 0.42570 0.81907 0.28100
O 	O 	0.28404 0.60774 0.79749 -0.36900
C 	C 	0.48738 0.56223 0.70567 0.28700
O 	O 	0.27801 0.43739 0.78250 -0.64200
O 	O 	0.33997 0.55520 0.74525 -0.64300
O 	O 	0.16272 0.49415 0.73270 -0.38500
O 	O 	0.21671 0.43452 0.70411 -0.44400
O 	O 	0.19480 0.44710 0.83728 -0.38800
O 	O 	0.40914 0.40945 0.77649 -0.39000
C 	C 	0.40693 0.38964 0.80609 0.28900
C 	C 	0.35395 0.63178 0.81197 0.28500
O 	O 	0.38449 0.58494 0.81442 -0.39300
O 	O 	0.38092 0.41851 0.82837 -0.39800
O 	O 	0.13756 0.45710 0.79126 -0.37300
C 	C 	0.15392 0.44261 0.71150 0.28400
O 	O 	0.47342 0.51958 0.73131 -0.39000
O 	O 	0.43779 0.58763 0.69715 -0.42400
H 	H 	0.24181 0.38097 0.77793 0.15700
H 	H 	0.37938 0.61158 0.74857 0.17200
Cu	Cu	0.67002 0.23002 0.90599 0.92700
Cu	Cu	0.55819 0.14819 0.96793 0.86900
Cu	Cu	0.53177 0.05903 0.90687 0.88700
Cu	Cu	0.63581 0.11930 0.84836 0.89000
C 	C 	0.79778 0.25866 0.86276 0.30000
O 	O 	0.62695 0.27114 0.87201 -0.36900
C 	C 	0.40487 0.01741 0.95569 0.24400
O 	O 	0.64300 0.11712 0.89219 -0.63900
O 	O 	0.55966 0.16466 0.92350 -0.64300
O 	O 	0.72639 0.28490 0.94496 -0.37800
O 	O 	0.66841 0.17374 0.97400 -0.44300
O 	O 	0.74086 0.21972 0.84158 -0.39400
O 	O 	0.51197 0.96038 0.88928 -0.38200
C 	C 	0.52097 0.94860 0.85958 0.31000
C 	C 	0.56072 0.22434 0.85596 0.28000
O 	O 	0.54026 0.15063 0.85159 -0.40000
O 	O 	0.58102 0.00333 0.84265 -0.41600
O 	O 	0.77880 0.27624 0.88997 -0.37000
C 	C 	0.72794 0.24557 0.96934 0.29400
O 	O 	0.42808 0.99634 0.93007 -0.36100
O 	O 	0.44255 0.09087 0.96482 -0.42100
H 	H 	0.67899 0.09774 0.90010 0.15900
H 	H 	0.52011 0.18116 0.91716 0.16500
C 	C 	0.40636 0.77437 0.80551 -0.03900
C 	C 	0.39965 0.71282 0.82410 -0.09200
C 	C 	0.43068 0.72849 0.85491 0.07200
C 	C 	0.47114 0.80603 0.86597 -0.03500
C 	C 	0.47715 0.86743 0.84744 -0.09400
C 	C 	0.44225 0.85103 0.81727 0.07500
C 	C 	0.44318 0.91478 0.79744 -0.19100
H 	H 	0.38216 0.76228 0.78198 0.03700
H 	H 	0.49786 0.81856 0.88910 0.04500
C 	C 	0.42086 0.66318 0.87610 -0.18800
H 	H 	0.39861 0.88981 0.77795 0.06200
H 	H 	0.50516 0.95191 0.78740 0.07200
H 	H 	0.42606 0.95174 0.81150 0.06600
H 	H 	0.46203 0.64135 0.86836 0.06700
H 	H 	0.35641 0.61429 0.87594 0.05700
H 	H 	0.43658 0.68344 0.90060 0.06000
C 	C 	0.00093 0.42173 0.83316 -0.08400
C 	C 	0.04809 0.38477 0.83315 -0.06500
C 	C 	0.01320 0.30641 0.84348 0.02300
C 	C 	0.93115 0.26601 0.85337 0.00400
C 	C 	0.88366 0.30253 0.85266 -0.11600
C 	C 	0.91863 0.38092 0.84244 0.12200
C 	C 	0.86834 0.42110 0.84127 -0.21200
H 	H 	0.02798 0.48194 0.82527 0.05100
H 	H 	0.90404 0.20591 0.86140 0.02200
C 	C 	0.06261 0.26535 0.84351 -0.16900
H 	H 	0.90318 0.48058 0.83084 0.07300
H 	H 	0.84994 0.42723 0.86519 0.08600
H 	H 	0.81264 0.38636 0.82688 0.08100
H 	H 	0.11518 0.29550 0.85976 0.05100
H 	H 	0.08582 0.26575 0.81970 0.04500
H 	H 	0.02541 0.20327 0.85107 0.04500
C 	C 	0.56204 0.32361 0.82016 -0.04200
C 	C 	0.51694 0.25789 0.83918 -0.09100
C 	C 	0.43296 0.23071 0.84468 0.06400
C 	C 	0.39722 0.27322 0.83278 -0.03800
C 	C 	0.44367 0.34148 0.81515 -0.09400
C 	C 	0.52654 0.36623 0.80837 0.07600
C 	C 	0.57735 0.43766 0.78857 -0.19300
H 	H 	0.62584 0.34307 0.81530 0.04100
H 	H 	0.33349 0.25389 0.83770 0.02900
C 	C 	0.38196 0.15830 0.86401 -0.18500
H 	H 	0.64314 0.45472 0.78877 0.06000
H 	H 	0.57307 0.48849 0.79739 0.07000
H 	H 	0.55540 0.42499 0.76412 0.07600
H 	H 	0.40510 0.16829 0.88830 0.05300
H 	H 	0.38417 0.10746 0.85398 0.06100
H 	H 	0.31666 0.14284 0.86471 0.05300
C 	C 	0.86403 0.28722 0.99236 -0.05300
C 	C 	0.78921 0.28602 0.99379 -0.08900
C 	C 	0.77522 0.32723 0.01764 0.06300
C 	C 	0.83936 0.37541 0.03783 -0.03100
C 	C 	0.91661 0.38208 0.03466 -0.11300
C 	C 	0.92715 0.33301 0.01337 0.11500
C 	C 	0.00550 0.33003 0.01253 -0.25000
H 	H 	0.87356 0.25336 0.97464 0.04400
H 	H 	0.83042 0.41094 0.05495 0.03900
C 	C 	0.69340 0.32300 0.02067 -0.18000
H 	H 	0.99455 0.27314 0.00300 0.08600
H 	H 	0.03111 0.33593 0.03633 0.07600
H 	H 	0.05101 0.37790 0.99751 0.07500
H 	H 	0.64351 0.26087 0.02176 0.03200
H 	H 	0.68325 0.35198 0.00034 0.05300
H 	H 	0.68992 0.35252 0.04219 0.05600
C 	C 	0.35018 0.97078 0.00893 -0.02800
C 	C 	0.34346 0.95661 0.97667 -0.07900
C 	C 	0.28401 0.88186 0.96543 0.07000
C 	C 	0.24356 0.81960 0.98655 -0.03900
C 	C 	0.25622 0.83258 0.01874 -0.10100
C 	C 	0.30485 0.90986 0.03000 0.07500
C 	C 	0.31001 0.92774 0.06436 -0.19500
H 	H 	0.39269 0.02881 0.01773 0.01000
H 	H 	0.20285 0.76090 0.97791 0.02400
C 	C 	0.26265 0.86794 0.93129 -0.18900
H 	H 	0.33162 0.99082 0.06849 0.06900
H 	H 	0.35378 0.91331 0.07566 0.08800
H 	H 	0.24883 0.89384 0.07546 0.07600
H 	H 	0.30554 0.85359 0.91920 0.07900
H 	H 	0.26533 0.92031 0.92036 0.07500
H 	H 	0.19933 0.81825 0.92797 0.05900
C 	C 	0.77228 0.49046 0.14126 -0.03700
C 	C 	0.83721 0.50194 0.16075 -0.08700
C 	C 	0.82030 0.46935 0.19106 0.07300
C 	C 	0.73897 0.42790 0.20160 -0.03800
C 	C 	0.67391 0.41380 0.18171 -0.09200
C 	C 	0.69067 0.44464 0.15109 0.07300
C 	C 	0.62223 0.42834 0.12867 -0.18700
H 	H 	0.78528 0.51608 0.11814 0.04400
H 	H 	0.72605 0.40464 0.22511 0.03500
C 	C 	0.88829 0.47791 0.21221 -0.19000
H 	H 	0.64548 0.44673 0.10458 0.05800
H 	H 	0.59130 0.46116 0.13594 0.06600
H 	H 	0.57704 0.36459 0.12793 0.05700
H 	H 	0.92306 0.53889 0.22115 0.07000
H 	H 	0.93040 0.46351 0.19951 0.06700
H 	H 	0.86393 0.43765 0.23251 0.06200
C 	C 	0.25573 0.45632 0.19849 -0.03800
C 	C 	0.30725 0.44290 0.17899 -0.09200
C 	C 	0.32631 0.47666 0.14888 0.07000
C 	C 	0.29074 0.52044 0.13840 -0.03900
C 	C 	0.24096 0.53550 0.15819 -0.09200
C 	C 	0.22498 0.50474 0.18883 0.06900
C 	C 	0.17603 0.52371 0.21143 -0.18500
H 	H 	0.24082 0.43022 0.22152 0.03900
H 	H 	0.30295 0.54400 0.11494 0.03500
C 	C 	0.38455 0.46662 0.12784 -0.18800
H 	H 	0.18244 0.50774 0.23568 0.05300
H 	H 	0.11015 0.49047 0.20509 0.05800
H 	H 	0.19777 0.58755 0.21129 0.05700
H 	H 	0.35415 0.40585 0.11862 0.06200
H 	H 	0.44086 0.47898 0.14073 0.06100
H 	H 	0.40393 0.50758 0.10773 0.05900
C 	C 	0.36340 0.94563 0.15287 -0.00400
C 	C 	0.27880 0.89548 0.15655 -0.10800
C 	C 	0.23056 0.92439 0.16992 0.09900
C 	C 	0.26854 0.00195 0.18085 -0.07600
C 	C 	0.35319 0.05156 0.17758 -0.07600
C 	C 	0.40100 0.02363 0.16318 0.04400
C 	C 	0.49209 0.07649 0.15908 -0.18200
H 	H 	0.40013 0.92363 0.14225 0.04400
H 	H 	0.23214 0.02376 0.19191 0.03200
C 	C 	0.13893 0.87283 0.17282 -0.19800
H 	H 	0.52050 0.04601 0.14709 0.05600
H 	H 	0.52195 0.09640 0.18218 0.07600
H 	H 	0.50439 0.12833 0.14484 0.07100
H 	H 	0.12443 0.82868 0.19145 0.05800
H 	H 	0.11224 0.84239 0.15044 0.05100
H 	H 	0.10907 0.90751 0.17878 0.06300
C 	C 	0.38225 0.05245 0.37212 -0.05900
C 	C 	0.37554 0.98345 0.35985 -0.07800
C 	C 	0.37784 0.97512 0.32706 0.08500
C 	C 	0.38505 0.03517 0.30747 -0.06000
C 	C 	0.39924 0.10670 0.31980 -0.09300
C 	C 	0.39756 0.11550 0.35253 0.06700
C 	C 	0.41376 0.19199 0.36679 -0.18100
H 	H 	0.37868 0.05827 0.39710 0.04100
H 	H 	0.38414 0.02781 0.28241 0.05000
C 	C 	0.37604 0.90425 0.31271 -0.18600
H 	H 	0.41954 0.19162 0.39254 0.05400
H 	H 	0.36235 0.20233 0.36139 0.05300
H 	H 	0.47203 0.24127 0.35775 0.03400
H 	H 	0.31420 0.85200 0.31544 0.05400
H 	H 	0.42290 0.89355 0.32370 0.02800
H 	H 	0.39000 0.91256 0.28739 0.06700
C 	C 	0.42446 0.61984 0.32144 -0.03200
C 	C 	0.47764 0.65431 0.34667 -0.10500
C 	C 	0.54563 0.64350 0.35041 0.08300
C 	C 	0.55566 0.59303 0.33017 -0.04400
C 	C 	0.49803 0.55247 0.30660 -0.08700
C 	C 	0.43326 0.56812 0.30151 0.06300
C 	C 	0.37204 0.52832 0.27560 -0.18800
H 	H 	0.37392 0.63065 0.31814 0.01900
H 	H 	0.60655 0.58278 0.33356 0.04700
C 	C 	0.60491 0.68196 0.37698 -0.20000
H 	H 	0.32280 0.54367 0.27604 0.05700
H 	H 	0.34227 0.46364 0.27794 0.05800
H 	H 	0.40323 0.54706 0.25269 0.08600
H 	H 	0.57582 0.65192 0.39915 0.08200
H 	H 	0.62303 0.74486 0.37873 0.07000
H 	H 	0.66171 0.67898 0.37361 0.06700
C 	C 	0.59580 0.20617 0.49449 -0.03700
C 	C 	0.66954 0.24018 0.51129 -0.09600
C 	C 	0.70949 0.19648 0.51660 0.07200
C 	C 	0.67695 0.12122 0.50365 -0.04700
C 	C 	0.60270 0.08687 0.48715 -0.07800
C 	C 	0.56092 0.12924 0.48303 0.06200
C 	C 	0.48015 0.09365 0.46598 -0.18600
H 	H 	0.56532 0.23968 0.49035 0.04100
H 	H 	0.70915 0.08895 0.50671 0.04100
C 	C 	0.78660 0.22934 0.53593 -0.18800
H 	H 	0.44845 0.12760 0.47004 0.05700
H 	H 	0.43842 0.03282 0.47413 0.05600
H 	H 	0.49086 0.09341 0.44057 0.07500
H 	H 	0.77978 0.25553 0.55780 0.05700
H 	H 	0.83930 0.27440 0.52237 0.07100
H 	H 	0.80065 0.18286 0.54271 0.05900
C 	C 	0.11671 0.68595 0.50905 -0.04700
C 	C 	0.08955 0.61550 0.52539 -0.08000
C 	C 	0.14501 0.58872 0.53185 0.06600
C 	C 	0.22547 0.63089 0.52054 -0.03800
C 	C 	0.25090 0.69816 0.50227 -0.09400
C 	C 	0.19728 0.72800 0.49760 0.07000
C 	C 	0.22489 0.80359 0.48009 -0.19000
H 	H 	0.07454 0.70722 0.50469 0.03200
H 	H 	0.26769 0.60971 0.52500 0.04200
C 	C 	0.11886 0.51526 0.55061 -0.18700
H 	H 	0.17582 0.81910 0.47891 0.06000
H 	H 	0.24178 0.79808 0.45587 0.05700
H 	H 	0.27831 0.85247 0.49198 0.07100
H 	H 	0.06230 0.46561 0.54064 0.05900
H 	H 	0.10765 0.52543 0.57509 0.07100
H 	H 	0.16658 0.49789 0.55073 0.05600
C 	C 	0.53139 0.57277 0.48231 -0.04100
C 	C 	0.57326 0.65480 0.48471 -0.08800
C 	C 	0.65514 0.69493 0.49541 0.06800
C 	C 	0.69226 0.65184 0.50509 -0.04000
C 	C 	0.64966 0.56979 0.50328 -0.09400
C 	C 	0.56937 0.52999 0.49106 0.07900
C 	C 	0.52285 0.44177 0.48844 -0.19400
H 	H 	0.46878 0.54211 0.47387 0.04700
H 	H 	0.75391 0.68212 0.51449 0.03100
C 	C 	0.70266 0.78325 0.49704 -0.18800
H 	H 	0.46647 0.42070 0.47421 0.06000
H 	H 	0.50484 0.41535 0.51201 0.07400
H 	H 	0.56136 0.42090 0.47707 0.07500
H 	H 	0.67876 0.80362 0.51635 0.06200
H 	H 	0.69721 0.80892 0.47475 0.05700
H 	H 	0.76887 0.80567 0.50125 0.06300
C 	C 	0.93987 0.37845 0.68418 -0.00300
C 	C 	0.94921 0.37302 0.65199 -0.09100
C 	C 	0.01651 0.36722 0.64102 0.06400
C 	C 	0.08292 0.38692 0.66102 -0.05400
C 	C 	0.07822 0.40335 0.69259 -0.08100
C 	C 	0.00239 0.38937 0.70477 0.00900
C 	C 	0.98729 0.38513 0.73940 -0.09700
H 	H 	0.88518 0.37664 0.69313 0.02200
H 	H 	0.13851 0.39098 0.65189 0.03200
C 	C 	0.01701 0.33830 0.60859 -0.21700
H 	H 	0.92089 0.34874 0.74466 0.04800
H 	H 	0.00937 0.44486 0.74884 0.05000
H 	H 	0.01866 0.35753 0.75143 0.04700
H 	H 	0.04328 0.38825 0.59217 0.06900
H 	H 	0.95401 0.29473 0.60098 0.08300
H 	H 	0.05443 0.30914 0.60766 0.05800
C 	C 	0.66993 0.55577 0.67428 -0.04400
C 	C 	0.64677 0.53780 0.64288 -0.10100
C 	C 	0.58436 0.55032 0.63085 0.07800
C 	C 	0.53416 0.56218 0.65158 -0.04500
C 	C 	0.55126 0.57027 0.68365 -0.09800
C 	C 	0.62511 0.57656 0.69430 0.07800
C 	C 	0.65738 0.60700 0.72644 -0.19400
H 	H 	0.72191 0.55252 0.68325 0.03400
H 	H 	0.48071 0.56315 0.64283 0.02900
C 	C 	0.57214 0.55304 0.59625 -0.19600
H 	H 	0.72523 0.63533 0.72706 0.06400
H 	H 	0.63144 0.55795 0.74330 0.07100
H 	H 	0.64117 0.65167 0.73372 0.07200
H 	H 	0.53342 0.49272 0.58708 0.08200
H 	H 	0.63201 0.58228 0.58398 0.08200
H 	H 	0.54132 0.58725 0.59095 0.06600
