data_crystal

_cell_length_a 18.55914
_cell_length_b 17.17301
_cell_length_c 45.01609
_cell_angle_alpha 89.62598
_cell_angle_beta  89.63230
_cell_angle_gamma 119.43458

_symmetry_space_group_name_	'P 1'
_symmetry_space_group_name_H-M	'P 1'

loop_
_symmetry_equiv_pos_as_xyz
  x,y,z

loop_
_atom_site_label
_atom_site_type_symbol
_atom_site_fract_x
_atom_site_fract_y
_atom_site_fract_z
_atom_site_charge
O 	O 	0.09125 0.90773 0.70023 -0.36200
O 	O 	0.07440 0.13606 0.16959 -0.36200
O 	O 	0.04507 0.93548 0.27418 -0.35900
C 	C 	0.04792 0.06105 0.10960 0.00300
C 	C 	0.96195 0.41488 0.02293 0.06600
H 	H 	0.00700 0.63208 0.02879 0.09000
O 	O 	0.08388 0.93806 0.76169 -0.36600
O 	O 	0.04102 0.15294 0.67544 -0.36800
O 	O 	0.06247 0.05192 0.72334 -0.70300
H 	H 	0.05202 0.04924 0.74482 0.14000
C 	C 	0.11367 0.09508 0.16000 0.28400
C 	C 	0.10971 0.22670 0.23298 0.25600
C 	C 	0.05393 0.11198 0.05813 -0.03800
C 	C 	0.08024 0.07644 0.08103 -0.01600
C 	C 	0.11253 0.07531 0.12821 -0.00900
C 	C 	0.05649 0.72261 0.20816 -0.00700
H 	H 	0.00968 0.56982 0.17348 0.05900
C 	C 	0.09085 0.31207 0.33255 -0.08200
C 	C 	0.07642 0.28644 0.27869 -0.04500
C 	C 	0.03273 0.55978 0.44611 -0.01300
N 	N 	0.02233 0.67877 0.47064 -0.16600
H 	H 	0.02746 0.44827 0.42251 0.08800
C 	C 	0.01106 0.50912 0.02431 -0.01800
N 	N 	0.99288 0.36111 0.03126 -0.20700
H 	H 	0.95665 0.29169 0.02975 0.07800
C 	C 	0.09642 0.88327 0.21734 0.28300
C 	C 	0.09375 0.01641 0.28515 0.25600
Ni	Ni	0.14479 0.07614 0.22367 1.11600
O 	O 	0.15216 0.06922 0.17867 -0.37300
O 	O 	0.16288 0.20389 0.22140 -0.36200
C 	C 	0.16320 0.09983 0.08355 0.08700
C 	C 	0.11146 0.16469 0.03604 0.06400
N 	N 	0.10672 0.23137 0.02194 -0.14800
H 	H 	0.05755 0.24402 0.02480 0.09000
C 	C 	0.07460 0.61731 0.17650 -0.07300
C 	C 	0.10093 0.68181 0.19907 0.00200
C 	C 	0.11476 0.80909 0.21614 -0.00600
H 	H 	0.07197 0.51074 0.12829 0.09400
C 	C 	0.12130 0.33044 0.30333 0.01600
C 	C 	0.13373 0.28818 0.25825 0.00800
H 	H 	0.08691 0.37332 0.38687 0.09100
C 	C 	0.04271 0.96337 0.33721 0.00300
H 	H 	0.02618 0.85506 0.38485 0.06100
H 	H 	0.08502 0.72332 0.46684 0.09700
Ni	Ni	0.08636 0.17198 0.71668 1.12200
Ni	Ni	0.14745 0.02185 0.72590 1.10900
C 	C 	0.12415 0.61181 0.44445 0.28500
O 	O 	0.15363 0.96283 0.22646 -0.36300
O 	O 	0.15024 0.08153 0.26820 -0.37800
C 	C 	0.19371 0.18483 0.03782 0.02000
N 	N 	0.18227 0.09841 0.11234 -0.15000
C 	C 	0.14777 0.33366 0.35571 0.08000
N 	N 	0.13937 0.36843 0.38132 -0.15100
C 	C 	0.07789 0.92271 0.38493 -0.08200
C 	C 	0.08212 0.98627 0.36431 0.01700
C 	C 	0.09381 0.03040 0.31736 -0.01500
H 	H 	0.05064 0.38747 0.04132 0.11700
C 	C 	0.22166 0.15666 0.06240 -0.09000
O 	O 	0.16020 0.67920 0.42567 -0.39000
C 	C 	0.10192 0.55329 0.01964 0.28900
C 	C 	0.18491 0.29569 0.01548 0.00600
H 	H 	0.24195 0.13529 0.12084 0.08700
C 	C 	0.13498 0.62051 0.15702 0.07700
N 	N 	0.12602 0.55294 0.13971 -0.15100
C 	C 	0.20334 0.35713 0.29697 0.07800
N 	N 	0.21102 0.33040 0.26959 -0.15100
H 	H 	0.12736 0.81226 0.40792 0.09300
O 	O 	0.14904 0.63619 0.02837 -0.38100
O 	O 	0.14407 0.20933 0.75648 -0.36400
O 	O 	0.21333 0.09251 0.68837 -0.36700
O 	O 	0.19017 0.54822 0.39840 -0.37400
O 	O 	0.16773 0.58298 0.45920 -0.35900
O 	O 	0.13207 0.51594 0.00172 -0.37500
C 	C 	0.24027 0.26753 0.02423 -0.04500
C 	C 	0.18472 0.74544 0.20206 0.08300
N 	N 	0.19233 0.82231 0.21263 -0.14900
C 	C 	0.14755 0.94376 0.40223 0.09400
C 	C 	0.15533 0.06679 0.35981 0.06500
N 	N 	0.16110 0.09383 0.33134 -0.14600
H 	H 	0.17200 0.04423 0.81401 0.05100
H 	H 	0.02593 0.28795 0.33729 0.05800
C 	C 	0.21068 0.16335 0.67886 0.27600
O 	O 	0.02035 0.86618 0.21298 -0.37400
N 	N 	0.16596 0.88077 0.41117 -0.15600
C 	C 	0.18371 0.17096 0.76884 0.25800
O 	O 	0.21737 0.13314 0.75242 -0.36100
O 	O 	0.19906 0.21391 0.69787 -0.37200
C 	C 	0.21631 0.42611 0.39088 0.01100
C 	C 	0.21871 0.25555 0.63339 -0.03700
C 	C 	0.96710 0.17020 0.82774 0.08600
C 	C 	0.98479 0.24428 0.84545 -0.11500
H 	H 	0.03117 0.31103 0.83853 0.07800
H 	H 	0.02384 0.23837 0.78740 0.10800
C 	C 	0.20672 0.17696 0.64672 0.00200
N 	N 	0.98737 0.17792 0.79870 -0.16700
H 	H 	0.99458 0.70336 0.20072 0.02200
N 	N 	0.20022 0.11691 0.62621 -0.15000
H 	H 	0.28727 0.18545 0.06655 0.05300
C 	C 	0.23142 0.36579 0.34939 0.01300
H 	H 	0.21701 0.13717 0.32060 0.09100
O 	O 	0.18528 0.56973 0.07867 -0.38600
H 	H 	0.25915 0.31914 0.26291 0.08900
C 	C 	0.23232 0.50771 0.40659 0.25400
C 	C 	0.20816 0.39023 0.01765 0.27600
C 	C 	0.21690 0.68138 0.16046 0.01500
C 	C 	0.20363 0.57296 0.13102 0.00000
C 	C 	0.26024 0.37514 0.31985 -0.08200
C 	C 	0.21993 0.02552 0.39848 -0.00200
C 	C 	0.22000 0.24231 0.60308 0.01400
C 	C 	0.20876 0.15651 0.59953 0.08000
H 	H 	0.24788 0.32026 0.64396 0.04900
H 	H 	0.21209 0.06427 0.63028 0.09200
C 	C 	0.17580 0.10705 0.82010 -0.05100
Ni	Ni	0.23909 0.68328 0.39365 1.11900
C 	C 	0.22570 0.08685 0.37659 -0.07300
O 	O 	0.27275 0.52684 0.43222 -0.35900
C 	C 	0.21987 0.55232 0.10089 0.28200
O 	O 	0.22069 0.42549 0.04406 -0.37500
C 	C 	0.24477 0.74359 0.18335 -0.08300
H 	H 	0.24454 0.88507 0.20921 0.09400
C 	C 	0.27522 0.42509 0.37177 -0.04900
C 	C 	0.24182 0.13581 0.57466 -0.08300
H 	H 	0.24437 0.07413 0.57400 0.05400
C 	C 	0.19125 0.14262 0.84835 0.01900
C 	C 	0.19779 0.17877 0.80092 0.00900
H 	H 	0.20522 0.04065 0.87202 0.05500
O 	O 	0.02751 0.03089 0.22576 -0.70500
C 	C 	0.24919 0.92032 0.41248 0.01400
C 	C 	0.26678 0.31050 0.58242 -0.08000
O 	O 	0.26837 0.81090 0.38597 -0.37500
Ni	Ni	0.25389 0.67380 0.05118 1.12000
O 	O 	0.23539 0.44210 0.99383 -0.36700
H 	H 	0.30430 0.31314 0.02963 0.04500
H 	H 	0.25251 0.85907 0.48286 0.10300
C 	C 	0.27994 0.20118 0.55228 0.01500
H 	H 	0.28813 0.37989 0.58770 0.05500
C 	C 	0.22129 0.23432 0.84493 0.07700
C 	C 	0.21636 0.10879 0.87213 -0.08400
N 	N 	0.22317 0.25542 0.81593 -0.15000
C 	C 	0.08407 0.76907 0.62295 0.08200
Ni	Ni	0.29676 0.63944 0.45719 1.11200
C 	C 	0.26191 0.65080 0.14509 -0.04800
H 	H 	0.32494 0.39865 0.31493 0.05300
C 	C 	0.28477 0.01046 0.40525 -0.05300
H 	H 	0.28536 0.14275 0.37031 0.05100
C 	C 	0.29343 0.28769 0.55621 0.07900
H 	H 	0.22053 0.81454 0.96918 0.10700
H 	H 	0.25908 0.31939 0.80675 0.09000
C 	C 	0.29255 0.86965 0.40747 0.27300
O 	O 	0.31173 0.68928 0.35904 -0.37200
O 	O 	0.32388 0.70403 0.42106 -0.71200
Ni	Ni	0.25315 0.56969 0.99208 1.12000
H 	H 	0.33711 0.48118 0.36874 0.04300
H 	H 	0.27352 0.97260 0.47960 0.09600
C 	C 	0.26391 0.16809 0.89450 0.08000
N 	N 	0.29355 0.92730 0.48533 -0.20300
O 	O 	0.31268 0.74769 0.48313 -0.37400
O 	O 	0.28508 0.54293 0.09600 -0.36400
O 	O 	0.31323 0.77791 0.02311 -0.37800
O 	O 	0.29693 0.60935 0.03077 -0.71600
H 	H 	0.30969 0.79249 0.18537 0.05600
H 	H 	0.24641 0.92635 0.95885 0.09300
H 	H 	0.34731 0.67168 0.41039 0.14200
O 	O 	0.26740 0.69177 0.98069 -0.37700
H 	H 	0.32335 0.69422 0.13675 0.05600
N 	N 	0.36229 0.34652 0.54137 -0.15000
C 	C 	0.34441 0.20863 0.53464 -0.04700
N 	N 	0.26574 0.88084 0.96511 -0.19800
C 	C 	0.27643 0.29456 0.86564 -0.08000
C 	C 	0.29274 0.25944 0.89139 0.01100
H 	H 	0.02520 0.06170 0.24376 0.15000
H 	H 	0.34680 0.04978 0.39615 0.04900
H 	H 	0.36712 0.16138 0.53552 0.04700
N 	N 	0.31578 0.15394 0.91154 -0.15100
H 	H 	0.32085 0.09595 0.91085 0.08700
O 	O 	0.36161 0.89204 0.42166 -0.37600
C 	C 	0.31931 0.76763 0.99418 0.28600
Ni	Ni	0.32991 0.54015 0.05326 1.11100
O 	O 	0.35167 0.72394 0.08028 -0.37000
H 	H 	0.35293 0.50188 0.94066 0.09900
H 	H 	0.31038 0.36566 0.86078 0.05300
N 	N 	0.08380 0.79562 0.65099 -0.15100
C 	C 	0.07135 0.82363 0.60307 0.01300
C 	C 	0.39133 0.75042 0.35759 0.25800
H 	H 	0.35134 0.65962 0.02502 0.15500
C 	C 	0.39475 0.29933 0.52864 0.00700
H 	H 	0.39745 0.41394 0.54703 0.08800
C 	C 	0.05862 0.67983 0.61595 -0.08900
C 	C 	0.38206 0.82497 0.48190 0.31400
C 	C 	0.36988 0.95656 0.49693 0.13100
H 	H 	0.41658 0.79779 0.29911 0.09200
C 	C 	0.34772 0.90713 0.96668 0.10000
H 	H 	0.40813 0.50230 0.90793 0.08500
C 	C 	0.36607 0.30245 0.90690 -0.03900
H 	H 	0.07155 0.75491 0.66983 0.09500
O 	O 	0.03421 0.19456 0.22207 -0.35300
H 	H 	0.05556 0.63334 0.63297 0.06000
Ni	Ni	0.41984 0.81981 0.41899 1.12100
O 	O 	0.42173 0.82332 0.37401 -0.37300
O 	O 	0.42137 0.67616 0.46375 -0.36500
O 	O 	0.37027 0.60740 0.97908 -0.38500
C 	C 	0.39862 0.89611 0.50324 -0.10700
H 	H 	0.40417 0.09579 0.49348 0.05800
N 	N 	0.40886 0.51655 0.93049 -0.19800
C 	C 	0.37819 0.23528 0.91907 0.00000
O 	O 	0.38850 0.52241 0.01563 -0.37100
C 	C 	0.37447 0.84704 0.97625 -0.07900
C 	C 	0.05376 0.90545 0.67537 0.29600
N 	N 	0.45361 0.77307 0.30781 -0.15100
C 	C 	0.44590 0.74130 0.33594 0.00700
C 	C 	0.42272 0.04844 0.50122 -0.06600
H 	H 	0.99955 0.89537 0.33085 0.01800
O 	O 	0.97693 0.14698 0.73533 -0.38300
C 	C 	0.97152 0.56079 0.02489 -0.12600
H 	H 	0.98750 0.70213 0.48198 0.06800
H 	H 	0.96084 0.70377 0.75705 0.08600
H 	H 	0.81370 0.98854 0.80168 0.06100
C 	C 	0.79021 0.29474 0.89823 0.25600
C 	C 	0.46090 0.24954 0.92615 0.27800
C 	C 	0.66829 0.40864 0.86537 0.27900
C 	C 	0.55083 0.11928 0.95441 0.30800
C 	C 	0.65243 0.50072 0.94900 0.31400
C 	C 	0.78031 0.40598 0.98602 0.29900
Ni	Ni	0.60711 0.24035 0.90112 1.11100
Ni	Ni	0.60555 0.31739 0.96699 1.12000
Ni	Ni	0.75471 0.43382 0.92178 1.12000
O 	O 	0.72077 0.26488 0.88281 -0.36000
O 	O 	0.82045 0.37006 0.91373 -0.36900
O 	O 	0.64665 0.44893 0.97150 -0.39200
O 	O 	0.48575 0.19701 0.91440 -0.37800
O 	O 	0.50690 0.31165 0.94530 -0.37800
O 	O 	0.79531 0.46418 0.96402 -0.38600
O 	O 	0.60172 0.33344 0.87253 -0.37100
O 	O 	0.73917 0.42871 0.87738 -0.37800
O 	O 	0.70474 0.33700 0.99112 -0.38300
O 	O 	0.59754 0.14133 0.93004 -0.38800
O 	O 	0.54706 0.18027 0.97178 -0.37800
O 	O 	0.69272 0.50251 0.92461 -0.39400
O 	O 	0.66329 0.31976 0.93188 -0.71900
H 	H 	0.69317 0.29082 0.94032 0.15400
C 	C 	0.83231 0.50299 0.55582 0.25100
C 	C 	0.48450 0.33783 0.52577 0.27200
C 	C 	0.65204 0.31303 0.59273 0.28500
C 	C 	0.65551 0.54249 0.49012 0.30200
C 	C 	0.56716 0.17441 0.50810 0.30200
C 	C 	0.78964 0.38029 0.47530 0.29500
Ni	Ni	0.65304 0.45191 0.55081 1.11200
Ni	Ni	0.62068 0.35699 0.48551 1.11900
Ni	Ni	0.72070 0.31358 0.53489 1.11700
O 	O 	0.77966 0.53450 0.55459 -0.36700
O 	O 	0.80594 0.41608 0.56055 -0.37100
O 	O 	0.54883 0.22435 0.49093 -0.39000
O 	O 	0.52831 0.35903 0.55016 -0.36600
O 	O 	0.52057 0.36701 0.49958 -0.37200
O 	O 	0.80166 0.35023 0.50088 -0.38500
O 	O 	0.66466 0.39505 0.59062 -0.36300
O 	O 	0.63861 0.26603 0.56878 -0.39400
O 	O 	0.71391 0.34814 0.46417 -0.38200
O 	O 	0.63696 0.53331 0.51910 -0.37100
O 	O 	0.67662 0.48898 0.47636 -0.39400
O 	O 	0.64534 0.19956 0.51337 -0.38600
O 	O 	0.67815 0.38845 0.52207 -0.71300
H 	H 	0.72959 0.43857 0.51414 0.14500
C 	C 	0.00378 0.87933 0.76042 0.30900
C 	C 	0.96183 0.10338 0.67000 0.26100
C 	C 	0.93550 0.08051 0.75466 0.24200
Ni	Ni	0.95407 0.96295 0.71165 1.11800
O 	O 	0.91453 0.03166 0.68621 -0.38200
O 	O 	0.99870 0.93303 0.67443 -0.39000
O 	O 	0.90635 0.99565 0.74685 -0.36500
O 	O 	0.96290 0.86609 0.73523 -0.39300
C 	C 	0.47882 0.69923 0.44255 0.29300
O 	O 	0.44052 0.83736 0.46298 -0.38300
O 	O 	0.48896 0.75813 0.42129 -0.38400
C 	C 	0.41487 0.57495 0.99148 0.29200
C 	C 	0.42485 0.72714 0.07679 0.25900
O 	O 	0.43127 0.66060 0.06460 -0.37100
C 	C 	0.85846 0.99209 0.25373 0.27500
C 	C 	0.87438 0.88305 0.18330 0.28200
Ni	Ni	0.97686 0.07418 0.19960 1.09700
Ni	Ni	0.96511 0.91212 0.24027 1.10900
O 	O 	0.86701 0.01920 0.22539 -0.38600
O 	O 	0.90027 0.95451 0.26490 -0.38900
O 	O 	0.93058 0.96160 0.17337 -0.38100
O 	O 	0.86784 0.86425 0.21191 -0.38100
H 	H 	0.99346 0.10704 0.05919 0.02200
H 	H 	0.99508 0.06780 0.11630 0.01400
C 	C 	0.72715 0.81162 0.12666 0.07400
C 	C 	0.70238 0.84995 0.10407 -0.08400
C 	C 	0.62579 0.84694 0.10723 0.01200
C 	C 	0.57508 0.80574 0.13178 0.07800
C 	C 	0.59981 0.76716 0.15420 -0.08400
C 	C 	0.67529 0.76835 0.15079 0.01200
N 	N 	0.80668 0.84526 0.13451 -0.15100
C 	C 	0.80633 0.82507 0.16367 -0.00400
C 	C 	0.72554 0.77575 0.17428 -0.04400
N 	N 	0.49537 0.77195 0.12443 -0.15300
C 	C 	0.49379 0.78938 0.09517 0.00900
C 	C 	0.57411 0.83666 0.08379 -0.04700
H 	H 	0.74202 0.88234 0.08497 0.05100
H 	H 	0.56032 0.73508 0.17337 0.05400
H 	H 	0.70781 0.77420 0.19737 0.05300
H 	H 	0.59020 0.83479 0.06071 0.04600
H 	H 	0.85618 0.89909 0.12359 0.08800
H 	H 	0.44819 0.71573 0.13514 0.08800
C 	C 	0.69972 0.92468 0.30702 0.07800
C 	C 	0.65958 0.85232 0.32688 -0.08500
C 	C 	0.57616 0.79020 0.32214 0.01700
C 	C 	0.53276 0.80290 0.29931 0.07500
C 	C 	0.57394 0.87233 0.27837 -0.08100
C 	C 	0.65805 0.93302 0.28276 0.01100
N 	N 	0.78078 0.96170 0.30070 -0.15200
C 	C 	0.79140 0.98962 0.27203 -0.00100
C 	C 	0.71613 0.97341 0.26014 -0.04300
C 	C 	0.52032 0.74857 0.34505 -0.05700
H 	H 	0.69250 0.84434 0.34540 0.05300
H 	H 	0.54109 0.88033 0.25985 0.05400
H 	H 	0.70157 0.96322 0.23672 0.05200
H 	H 	0.53814 0.75242 0.36807 0.05300
H 	H 	0.82098 0.94587 0.31206 0.08800
H 	H 	0.01153 0.23603 0.27930 0.05400
C 	C 	0.46799 0.92454 0.52151 -0.02000
C 	C 	0.50167 0.07931 0.51355 -0.08000
C 	C 	0.51913 0.01605 0.52738 0.09200
N 	N 	0.58041 0.04162 0.54763 -0.20100
H 	H 	0.48596 0.87653 0.52911 0.04600
H 	H 	0.59682 0.99558 0.55595 0.09200
H 	H 	0.60609 0.10424 0.55750 0.09300
C 	C 	0.90099 0.53548 0.46638 -0.01500
C 	C 	0.86285 0.44525 0.45809 -0.11600
C 	C 	0.90746 0.41540 0.44039 0.14100
C 	C 	0.99232 0.47262 0.43485 -0.13000
C 	C 	0.98596 0.59301 0.46089 0.04000
H 	H 	0.86614 0.55912 0.47929 0.03500
N 	N 	0.86958 0.33141 0.42914 -0.20800
H 	H 	0.80583 0.28937 0.43157 0.09900
H 	H 	0.90338 0.30846 0.41693 0.07900
C 	C 	0.58513 0.56235 0.44643 -0.03800
C 	C 	0.63330 0.59908 0.47185 -0.09500
C 	C 	0.64754 0.68307 0.48205 0.11000
C 	C 	0.60189 0.72077 0.47000 -0.04300
C 	C 	0.54488 0.67722 0.44731 -0.08900
C 	C 	0.54110 0.60125 0.43391 0.10200
N 	N 	0.49376 0.56415 0.40957 -0.19900
H 	H 	0.57771 0.50036 0.43750 0.04200
H 	H 	0.60787 0.78183 0.47923 0.05200
N 	N 	0.70548 0.72812 0.50299 -0.20000
H 	H 	0.48866 0.50586 0.40044 0.08400
H 	H 	0.46377 0.59433 0.39895 0.08700
H 	H 	0.74597 0.70602 0.51004 0.09000
H 	H 	0.71331 0.78843 0.51133 0.08500
C 	C 	0.71718 0.19384 0.63742 0.07500
C 	C 	0.73242 0.12241 0.63268 -0.08500
C 	C 	0.81474 0.14112 0.63052 0.00900
C 	C 	0.87984 0.22673 0.63503 0.07300
C 	C 	0.86487 0.29774 0.64087 -0.08300
C 	C 	0.78243 0.27988 0.64192 0.01000
N 	N 	0.65376 0.19760 0.62454 -0.15100
C 	C 	0.67841 0.28499 0.61954 -0.00600
C 	C 	0.75730 0.33802 0.63092 -0.04300
N 	N 	0.94576 0.22308 0.64569 -0.15100
C 	C 	0.92292 0.13536 0.64836 0.00100
C 	C 	0.84179 0.08245 0.63897 -0.04600
H 	H 	0.68182 0.05528 0.62935 0.05000
H 	H 	0.91564 0.36484 0.64410 0.04800
H 	H 	0.79984 0.40498 0.62290 0.05400
H 	H 	0.80119 0.01446 0.64656 0.04900
H 	H 	0.60822 0.14541 0.61220 0.08600
H 	H 	0.99205 0.27355 0.65833 0.07800
C 	C 	0.01470 0.70419 0.56762 0.09100
C 	C 	0.03313 0.79090 0.57574 -0.08200
C 	C 	0.02755 0.64969 0.58748 0.03800
N 	N 	0.95128 0.65367 0.54970 -0.16500
C 	C 	0.92075 0.56766 0.55856 0.01200
C 	C 	0.96766 0.56253 0.58165 -0.07400
C 	C 	0.06892 0.86486 0.64919 0.00200
C 	C 	0.06100 0.88478 0.61993 -0.04100
H 	H 	0.01099 0.82782 0.56261 0.06100
H 	H 	0.94404 0.50909 0.59811 0.05100
H 	H 	0.02820 0.91913 0.61283 0.06100
H 	H 	0.91682 0.67749 0.53838 0.08300
C 	C 	0.87924 0.37690 0.01384 -0.02600
C 	C 	0.84400 0.43152 0.00893 -0.10900
C 	C 	0.88680 0.52119 0.01858 0.13900
N 	N 	0.84739 0.56989 0.02077 -0.20600
H 	H 	0.84430 0.30618 0.00893 0.04200
H 	H 	0.87991 0.63735 0.02654 0.08200
H 	H 	0.78344 0.53995 0.01798 0.10100
C 	C 	0.40659 0.99538 0.95901 -0.00400
C 	C 	0.49152 0.02406 0.96019 -0.12700
C 	C 	0.51818 0.96192 0.96746 0.13200
C 	C 	0.45900 0.87340 0.97497 -0.05600
H 	H 	0.38620 0.04234 0.95256 0.03700
H 	H 	0.47924 0.82660 0.98181 0.04900
N 	N 	0.60008 0.98722 0.96832 -0.19700
H 	H 	0.64581 0.05321 0.96421 0.09000
H 	H 	0.61893 0.94061 0.97356 0.08700
C 	C 	0.54608 0.53900 0.93427 -0.04000
C 	C 	0.61480 0.55820 0.95174 -0.10200
C 	C 	0.62817 0.60889 0.97771 0.11400
C 	C 	0.56341 0.61933 0.98960 -0.05100
C 	C 	0.48720 0.58287 0.97512 -0.08700
C 	C 	0.47979 0.54675 0.94625 0.10900
H 	H 	0.53947 0.50739 0.91293 0.04900
H 	H 	0.57120 0.65255 0.01070 0.04700
N 	N 	0.70212 0.64501 0.99172 -0.20200
H 	H 	0.75233 0.64209 0.98229 0.09300
H 	H 	0.71089 0.67921 0.01166 0.08400
C 	C 	0.93485 0.23080 0.87061 0.02100
C 	C 	0.86316 0.14933 0.87561 0.07100
C 	C 	0.84132 0.07750 0.85623 -0.08200
C 	C 	0.89747 0.08734 0.83357 0.00800
C 	C 	0.93050 0.10176 0.78587 0.00600
C 	C 	0.87474 0.04293 0.80673 -0.06200
N 	N 	0.80646 0.16242 0.89012 -0.15300
C 	C 	0.84081 0.25145 0.89433 0.00700
C 	C 	0.92059 0.29614 0.88257 -0.05100
H 	H 	0.78017 0.01921 0.85727 0.04900
H 	H 	0.95089 0.36502 0.87484 0.04800
H 	H 	0.74269 0.11839 0.88951 0.08400
H 	H 	0.41619 0.36807 0.90095 0.04600
C 	C 	0.88676 0.67130 0.79594 0.07700
C 	C 	0.82832 0.58301 0.78911 -0.08200
C 	C 	0.74963 0.54559 0.80257 0.01300
C 	C 	0.72940 0.59612 0.82148 0.07800
C 	C 	0.78582 0.68721 0.82592 -0.08300
C 	C 	0.86583 0.72218 0.81401 0.01000
N 	N 	0.94921 0.72442 0.77747 -0.14800
C 	C 	0.96786 0.80943 0.78331 -0.02200
C 	C 	0.91674 0.81066 0.80585 -0.04100
N 	N 	0.67850 0.54359 0.84333 -0.15200
C 	C 	0.66832 0.46069 0.83951 0.00200
C 	C 	0.70870 0.45902 0.81358 -0.04100
H 	H 	0.84454 0.54349 0.77475 0.05300
H 	H 	0.76980 0.72741 0.84003 0.05400
H 	H 	0.90017 0.86266 0.80832 0.04400
H 	H 	0.73008 0.41133 0.80985 0.05100
H 	H 	0.67341 0.56797 0.86403 0.08900
