data_crystal

_cell_length_a 20.20223
_cell_length_b 21.45690
_cell_length_c 31.51426
_cell_angle_alpha 60.92518
_cell_angle_beta  118.75665
_cell_angle_gamma 133.21077

_symmetry_space_group_name_	'P 1'
_symmetry_space_group_name_H-M	'P 1'

loop_
_symmetry_equiv_pos_as_xyz
  x,y,z

loop_
_atom_site_label
_atom_site_type_symbol
_atom_site_fract_x
_atom_site_fract_y
_atom_site_fract_z
_atom_site_charge
C 	C 	0.02228 0.01073 0.76593 0.26500
O 	O 	0.03317 0.01942 0.98150 -0.31900
Co	Co	0.02152 0.86510 0.63831 1.19600
C 	C 	0.01190 0.95045 0.46458 0.32400
O 	O 	0.01169 0.00246 0.47687 -0.34500
O 	O 	0.00868 0.07027 0.73212 -0.34000
O 	O 	0.02975 0.96504 0.75254 -0.31600
O 	O 	0.03954 0.77025 0.59616 -0.38000
C 	C 	0.04099 0.00383 0.91096 -0.05900
C 	C 	0.01077 0.96655 0.41184 -0.03600
C 	C 	0.04465 0.00681 0.82005 -0.05500
O 	O 	0.04948 0.92298 0.08125 -0.74400
Co	Co	0.05936 0.02022 0.55064 1.18400
O 	O 	0.03604 0.10800 0.53737 -0.40400
O 	O 	0.05759 0.92880 0.58362 -0.72700
C 	C 	0.05010 0.95444 0.35431 -0.00100
C 	C 	0.06358 0.95421 0.40282 0.06500
F 	F 	0.06202 0.68066 0.69893 -0.34900
F 	F 	0.02100 0.60786 0.22339 -0.32600
C 	C 	0.06742 0.00212 0.96488 0.27800
C 	C 	0.05009 0.21475 0.63174 0.39500
Co	Co	0.07915 0.02647 0.05689 1.18000
O 	O 	0.07421 0.12536 0.04650 -0.41100
C 	C 	0.07258 0.21815 0.14056 0.39200
O 	O 	0.07821 0.78001 0.12159 -0.37700
O 	O 	0.07835 0.18625 0.61946 -0.35000
C 	C 	0.08794 0.08441 0.87645 0.04400
F 	F 	0.03870 0.35060 0.55397 -0.35900
O 	O 	0.01056 0.88271 0.49812 -0.33800
C 	C 	0.09193 0.08564 0.83249 -0.00800
Co	Co	0.09986 0.88559 0.06036 1.17800
O 	O 	0.09945 0.18601 0.13054 -0.35100
O 	O 	0.09784 0.83420 0.17619 -0.34600
H 	H 	0.09242 0.94699 0.34806 0.09200
C 	C 	0.09108 0.36544 0.60012 0.29700
F 	F 	0.09730 0.58324 0.69151 -0.33000
F 	F 	0.10453 0.37960 0.07377 -0.36200
F 	F 	0.09669 0.52888 0.23799 -0.32900
Co	Co	0.00002 0.08615 0.09227 1.18500
Co	Co	0.11766 0.90301 0.56080 1.18300
C 	C 	0.10978 0.78935 0.16656 0.41800
O 	O 	0.12806 0.98551 0.99565 -0.33400
H 	H 	0.12863 0.14843 0.80668 0.11600
C 	C 	0.12035 0.43812 0.61124 0.26900
C 	C 	0.11129 0.30551 0.63710 -0.18600
F 	F 	0.10237 0.49639 0.57461 -0.34500
C 	C 	0.11027 0.65866 0.21968 0.30700
O 	O 	0.99268 0.05922 0.22895 -0.34700
C 	C 	0.98775 0.98875 0.26077 0.30900
O 	O 	0.99086 0.93989 0.24722 -0.32200
C 	C 	0.26516 0.05749 0.08175 0.34900
O 	O 	0.98393 0.18034 0.13219 -0.34200
O 	O 	0.23076 0.97318 0.09652 -0.30700
O 	O 	0.22291 0.08465 0.08261 -0.34000
Co	Co	0.98108 0.07305 0.59209 1.19500
C 	C 	0.24578 0.09787 0.54514 0.42300
C 	C 	0.19414 0.87170 0.66826 0.40000
O 	O 	0.96285 0.16649 0.63307 -0.35100
O 	O 	0.21883 0.92538 0.62599 -0.34000
O 	O 	0.14192 0.86953 0.68374 -0.32800
O 	O 	0.19905 0.03388 0.52432 -0.41500
O 	O 	0.20331 0.10226 0.56378 -0.36900
S 	S 	0.14180 0.18480 0.88735 0.11100
H 	H 	0.23660 0.22808 0.90135 0.11700
S 	S 	0.15069 0.94348 0.45097 0.02700
H 	H 	0.23472 0.02510 0.45124 0.06500
C 	C 	0.21877 0.80853 0.69594 -0.19000
C 	C 	0.14860 0.71845 0.69701 0.29400
C 	C 	0.16791 0.66754 0.69570 0.26300
C 	C 	0.13764 0.37372 0.12363 0.29700
C 	C 	0.13970 0.30108 0.15648 -0.18600
C 	C 	0.17471 0.29670 0.20786 0.29300
C 	C 	0.19921 0.35933 0.22646 0.26600
C 	C 	0.16269 0.43672 0.14216 0.26700
F 	F 	0.17928 0.22829 0.24022 -0.37400
C 	C 	0.25632 0.80179 0.20798 0.29600
C 	C 	0.16077 0.75119 0.20482 -0.18500
F 	F 	0.30937 0.89071 0.19961 -0.33000
C 	C 	0.72090 0.31522 0.00008 0.26100
N 	N 	0.62784 0.25903 0.99834 -0.09000
C 	C 	0.58529 0.28563 0.00077 0.26400
N 	N 	0.63376 0.37072 0.00000 -0.12200
C 	C 	0.72672 0.42669 0.00332 0.27600
N 	N 	0.77096 0.39883 0.00392 -0.11000
C 	C 	0.72461 0.30352 0.52003 0.28000
N 	N 	0.63149 0.26091 0.51209 -0.12000
C 	C 	0.59981 0.30203 0.50949 0.28300
N 	N 	0.66052 0.38725 0.51153 -0.11900
C 	C 	0.75349 0.42808 0.52354 0.28000
N 	N 	0.78617 0.38613 0.52806 -0.10300
C 	C 	0.27678 0.62938 0.21906 0.26000
N 	N 	0.37022 0.67649 0.22474 -0.09900
C 	C 	0.40507 0.64134 0.22358 0.27700
N 	N 	0.34778 0.55717 0.22036 -0.12200
C 	C 	0.25441 0.51154 0.21088 0.27200
N 	N 	0.21791 0.54767 0.20975 -0.09600
C 	C 	0.28274 0.66095 0.68756 0.25300
N 	N 	0.37150 0.70547 0.68526 -0.10100
C 	C 	0.39364 0.67071 0.67267 0.27800
N 	N 	0.32664 0.59250 0.66047 -0.12200
C 	C 	0.23844 0.54521 0.66402 0.26700
N 	N 	0.21551 0.57903 0.67771 -0.09700
Co	Co	0.93682 0.91947 0.17326 1.19900
Co	Co	0.99244 0.85142 0.12783 1.20000
Co	Co	0.89336 0.04763 0.16305 1.20100
C 	C 	0.90028 0.73707 0.05536 0.39900
O 	O 	0.80313 0.03211 0.09434 -0.33000
O 	O 	0.94614 0.01441 0.14108 -0.74900
C 	C 	0.83520 0.09778 0.05612 0.39300
O 	O 	0.94073 0.82066 0.18268 -0.39400
C 	C 	0.75333 0.85350 0.17804 0.43000
O 	O 	0.97995 0.96188 0.10379 -0.54400
O 	O 	0.90263 0.11712 0.04305 -0.31900
O 	O 	0.80272 0.91915 0.19774 -0.38500
O 	O 	0.79324 0.84284 0.16176 -0.34900
O 	O 	0.96158 0.80477 0.02776 -0.37400
O 	O 	0.89389 0.74501 0.09295 -0.32100
Co	Co	0.95832 0.92567 0.68310 1.19800
Co	Co	0.89374 0.03616 0.67361 1.20100
C 	C 	0.95178 0.72569 0.59542 0.42500
O 	O 	0.78823 0.00088 0.61102 -0.33200
O 	O 	0.94763 0.00905 0.64760 -0.75000
C 	C 	0.80601 0.06101 0.56902 0.38600
O 	O 	0.97959 0.83720 0.69638 -0.39800
C 	C 	0.77824 0.84126 0.70186 0.40900
O 	O 	0.97970 0.95666 0.60860 -0.53800
O 	O 	0.86612 0.08095 0.54950 -0.30800
O 	O 	0.82519 0.91016 0.71827 -0.35900
O 	O 	0.81851 0.83403 0.68363 -0.34400
O 	O 	0.92747 0.74841 0.61492 -0.32600
C 	C 	0.99446 0.92479 0.89898 0.02300
C 	C 	0.99752 0.92588 0.85456 0.06600
S 	S 	0.94848 0.82604 0.84503 0.07800
H 	H 	0.85915 0.79207 0.81664 0.10500
H 	H 	0.96045 0.86235 0.92567 0.09300
C 	C 	0.98641 0.96895 0.31373 -0.01900
C 	C 	0.94692 0.98070 0.37137 0.01900
C 	C 	0.93375 0.98142 0.32288 0.05000
S 	S 	0.84887 0.99541 0.27460 0.07200
H 	H 	0.76346 0.91499 0.27372 0.08600
H 	H 	0.90492 0.98855 0.37760 0.09600
C 	C 	0.19016 0.39209 0.69642 0.26200
C 	C 	0.17277 0.45369 0.65907 -0.11600
C 	C 	0.16298 0.32074 0.68499 0.29300
F 	F 	0.18322 0.26384 0.72127 -0.38300
F 	F 	0.24017 0.40545 0.74301 -0.34900
C 	C 	0.52419 0.73067 0.64202 0.26900
C 	C 	0.49129 0.70934 0.68082 -0.12900
C 	C 	0.54976 0.71689 0.72876 0.27800
C 	C 	0.64226 0.75097 0.73715 0.30700
C 	C 	0.67753 0.77900 0.69747 -0.20000
C 	C 	0.61697 0.76503 0.65037 0.30500
F 	F 	0.64980 0.79063 0.61183 -0.36200
F 	F 	0.46690 0.72050 0.59589 -0.34500
F 	F 	0.69928 0.76138 0.78327 -0.35900
F 	F 	0.51667 0.69100 0.76727 -0.32400
C 	C 	0.31186 0.84076 0.70690 0.30700
C 	C 	0.26050 0.70426 0.69941 -0.11100
C 	C 	0.33300 0.78808 0.71048 0.26300
F 	F 	0.42384 0.81909 0.72403 -0.32200
F 	F 	0.38190 0.92506 0.71131 -0.31800
C 	C 	0.19476 0.43070 0.19371 -0.11900
F 	F 	0.16041 0.50635 0.10972 -0.34500
F 	F 	0.23199 0.35324 0.27634 -0.33600
C 	C 	0.56183 0.67947 0.24404 0.26500
C 	C 	0.49685 0.69884 0.21296 -0.12900
C 	C 	0.51044 0.75798 0.16591 0.27000
C 	C 	0.58931 0.79893 0.15071 0.30100
C 	C 	0.65731 0.78402 0.18312 -0.20500
C 	C 	0.64106 0.72102 0.22890 0.30100
F 	F 	0.70587 0.70524 0.26039 -0.36000
F 	F 	0.54769 0.61981 0.28884 -0.33300
F 	F 	0.60323 0.85826 0.10580 -0.35400
F 	F 	0.44560 0.77370 0.13432 -0.33600
C 	C 	0.14833 0.61822 0.22589 0.27000
C 	C 	0.23920 0.67036 0.21935 -0.11300
C 	C 	0.29484 0.76264 0.21322 0.26700
F 	F 	0.38484 0.81507 0.21017 -0.32700
C 	C 	0.76994 0.24353 0.49578 0.27700
C 	C 	0.75840 0.25178 0.53306 -0.12000
C 	C 	0.76406 0.19916 0.58153 0.27200
C 	C 	0.77668 0.13601 0.59264 0.29300
C 	C 	0.78865 0.12698 0.55561 -0.18300
C 	C 	0.78610 0.18204 0.50713 0.31000
F 	F 	0.79628 0.17441 0.47071 -0.34300
F 	F 	0.76356 0.29354 0.44844 -0.33400
F 	F 	0.77859 0.08429 0.63983 -0.42000
F 	F 	0.75322 0.20663 0.61777 -0.32200
C 	C 	0.81947 0.58352 0.50865 0.26600
C 	C 	0.81579 0.50821 0.54161 -0.12400
C 	C 	0.84487 0.50047 0.59330 0.27300
C 	C 	0.87567 0.56643 0.61164 0.31300
C 	C 	0.88320 0.64345 0.57857 -0.19000
C 	C 	0.84992 0.64911 0.52707 0.29200
F 	F 	0.84794 0.71882 0.49472 -0.37200
F 	F 	0.78837 0.59070 0.45867 -0.33900
F 	F 	0.89676 0.55476 0.66156 -0.31100
F 	F 	0.83733 0.42620 0.62584 -0.31700
C 	C 	0.49388 0.19868 0.56708 0.26500
C 	C 	0.50795 0.24980 0.51872 -0.13700
C 	C 	0.44221 0.26609 0.48304 0.26500
C 	C 	0.36028 0.22679 0.49462 0.30000
C 	C 	0.34254 0.16940 0.54163 -0.20700
C 	C 	0.41248 0.16036 0.57874 0.29600
F 	F 	0.39810 0.10842 0.62510 -0.35300
F 	F 	0.56003 0.18750 0.60301 -0.32500
F 	F 	0.29434 0.23835 0.45880 -0.36000
F 	F 	0.45754 0.31960 0.43703 -0.33500
C 	C 	0.77662 0.26351 0.97694 0.29100
C 	C 	0.77027 0.27756 0.01375 -0.13600
C 	C 	0.79445 0.24010 0.06404 0.27600
C 	C 	0.81498 0.18172 0.07762 0.30800
C 	C 	0.82153 0.16666 0.04116 -0.20400
C 	C 	0.80410 0.20959 0.99072 0.33100
F 	F 	0.80846 0.19536 0.95491 -0.33900
F 	F 	0.75339 0.29954 0.92793 -0.33500
F 	F 	0.82260 0.13545 0.12595 -0.43200
F 	F 	0.78935 0.25377 0.09986 -0.32200
C 	C 	0.76581 0.57480 0.98050 0.28500
C 	C 	0.78032 0.51050 0.01557 -0.15200
C 	C 	0.82369 0.51572 0.06563 0.27200
C 	C 	0.85229 0.58453 0.08033 0.29600
C 	C 	0.84024 0.65029 0.04492 -0.21000
C 	C 	0.79404 0.64326 0.99522 0.31300
F 	F 	0.78054 0.70549 0.96060 -0.35500
F 	F 	0.72173 0.56941 0.93227 -0.34000
F 	F 	0.89560 0.58948 0.12860 -0.33800
F 	F 	0.83505 0.45225 0.10039 -0.32500
C 	C 	0.35715 0.18680 0.01926 0.22500
C 	C 	0.35184 0.12202 0.06405 -0.16500
C 	C 	0.42138 0.10814 0.08623 0.27700
C 	C 	0.49325 0.15604 0.06296 0.28200
C 	C 	0.49786 0.21999 0.01773 -0.17000
C 	C 	0.42866 0.23427 0.99572 0.32200
F 	F 	0.43247 0.29622 0.95218 -0.35900
F 	F 	0.29205 0.20272 0.99811 -0.37300
F 	F 	0.56141 0.14370 0.08578 -0.33600
F 	F 	0.41953 0.04842 0.13062 -0.32700
