data_crystal

_cell_length_a 28.94299
_cell_length_b 26.37793
_cell_length_c 48.91491
_cell_angle_alpha 103.70731
_cell_angle_beta  115.80438
_cell_angle_gamma 112.32796

_symmetry_space_group_name_	'P 1'
_symmetry_space_group_name_H-M	'P 1'

loop_
_symmetry_equiv_pos_as_xyz
  x,y,z

loop_
_atom_site_label
_atom_site_type_symbol
_atom_site_fract_x
_atom_site_fract_y
_atom_site_fract_z
_atom_site_charge
O 	O 	0.02838 0.05953 0.86972 -0.43300
Zn	Zn	0.02347 0.01199 0.95282 1.22300
O 	O 	0.04478 0.02073 0.99751 -0.88200
C 	C 	0.04036 0.02273 0.85487 0.29300
H 	H 	0.08932 0.04198 0.01553 0.15800
H 	H 	0.06433 0.01850 0.50619 0.15300
C 	C 	0.04820 0.95988 0.69117 -0.01900
C 	C 	0.04836 0.96543 0.72036 -0.03000
C 	C 	0.04503 0.01337 0.73751 -0.01100
C 	C 	0.04552 0.01939 0.76846 0.05800
C 	C 	0.04368 0.02497 0.82600 -0.06600
C 	C 	0.08404 0.04540 0.64797 -0.08700
C 	C 	0.07787 0.04105 0.61739 0.01200
H 	H 	0.10957 0.08109 0.61814 0.02500
C 	C 	0.01192 0.02838 0.18592 -0.01600
C 	C 	0.00532 0.02778 0.21251 -0.00300
C 	C 	0.03328 0.00613 0.23385 -0.02600
C 	C 	0.02510 0.00406 0.26140 0.06600
C 	C 	0.04535 0.05931 0.28832 -0.07800
C 	C 	0.08515 0.06295 0.15302 -0.06600
H 	H 	0.10908 0.10664 0.12521 0.02700
H 	H 	0.11026 0.10714 0.17598 0.04700
C 	C 	0.45490 0.80743 0.99649 -0.08800
C 	C 	0.40280 0.78083 0.99652 0.05200
C 	C 	0.37867 0.72168 0.99432 -0.08800
C 	C 	0.40607 0.68870 0.99172 0.05200
C 	C 	0.45818 0.71523 0.99166 -0.08800
H 	H 	0.47328 0.85303 0.99789 0.05500
H 	H 	0.33804 0.70091 0.99407 0.05700
C 	C 	0.45721 0.75212 0.48508 0.05200
C 	C 	0.42820 0.78379 0.48664 -0.08800
C 	C 	0.37559 0.75635 0.48614 0.05300
C 	C 	0.35224 0.69747 0.48430 -0.08800
C 	C 	0.38095 0.66561 0.48262 0.05200
C 	C 	0.43358 0.69298 0.48309 -0.08800
H 	H 	0.44601 0.82920 0.48777 0.05500
H 	H 	0.31123 0.67605 0.48365 0.05700
H 	H 	0.45565 0.66818 0.48159 0.05500
Zn	Zn	0.16114 0.13977 0.99502 1.18500
Zn	Zn	0.05775 0.08804 0.91998 1.19500
O 	O 	0.05563 0.98865 0.86783 -0.46300
O 	O 	0.05257 0.90910 0.91331 -0.49200
C 	C 	0.22428 0.11084 0.96983 0.32300
C 	C 	0.16365 0.22449 0.96498 0.33700
O 	O 	0.23187 0.14180 0.99837 -0.46400
O 	O 	0.16860 0.07222 0.94094 -0.35500
O 	O 	0.07770 0.09807 0.96735 -0.77600
O 	O 	0.10364 0.99326 0.96553 -0.45000
O 	O 	0.12106 0.17469 0.93384 -0.45200
O 	O 	0.18058 0.21980 0.99350 -0.46100
C 	C 	0.03975 0.00579 0.06150 0.31500
O 	O 	0.02907 0.95777 0.03748 -0.41400
O 	O 	0.04051 0.05337 0.05694 -0.46300
Zn	Zn	0.02198 0.94938 0.89021 1.18900
C 	C 	0.09637 0.94227 0.94666 0.33900
Zn	Zn	0.13739 0.11635 0.48645 1.18500
Zn	Zn	0.03472 0.06626 0.41153 1.19800
O 	O 	0.02448 0.96265 0.35622 -0.46300
O 	O 	0.02320 0.88466 0.40265 -0.48500
C 	C 	0.19928 0.08624 0.46062 0.32200
C 	C 	0.14185 0.20179 0.45695 0.33600
O 	O 	0.20726 0.11684 0.48938 -0.46500
O 	O 	0.14348 0.04834 0.43174 -0.35200
O 	O 	0.05409 0.07606 0.45878 -0.77100
O 	O 	0.07635 0.96878 0.45529 -0.44600
O 	O 	0.10048 0.15189 0.42581 -0.45400
O 	O 	0.15836 0.19693 0.48541 -0.46100
C 	C 	0.06773 0.91732 0.43588 0.33700
C 	C 	0.04047 0.04957 0.69572 -0.02700
C 	C 	0.04399 0.00175 0.67862 -0.02800
H 	H 	0.05117 0.92296 0.67826 0.04000
C 	C 	0.04135 0.05556 0.72514 -0.03500
H 	H 	0.03915 0.09295 0.73830 0.04300
C 	C 	0.09389 0.02531 0.79710 -0.07300
C 	C 	0.09282 0.02775 0.82564 0.01400
C 	C 	0.04182 0.99474 0.64714 0.08400
C 	C 	0.02986 0.98578 0.58576 -0.05700
H 	H 	0.12073 0.08859 0.67216 0.05000
H 	H 	0.13204 0.02750 0.79710 0.04800
H 	H 	0.13006 0.03160 0.84744 0.03700
H 	H 	0.05088 0.93240 0.72958 0.04100
H 	H 	0.03670 0.08183 0.68609 0.03900
C 	C 	0.07458 0.98577 0.20177 -0.03200
C 	C 	0.04637 0.00716 0.18036 -0.00500
C 	C 	0.06822 0.98542 0.22848 -0.01900
H 	H 	0.09030 0.96897 0.24495 0.04100
C 	C 	0.03921 0.05752 0.31496 0.02600
C 	C 	0.05198 0.00646 0.15178 0.01700
C 	C 	0.08437 0.06262 0.12421 0.02300
C 	C 	0.05001 0.00572 0.09378 -0.11000
C 	C 	0.01963 0.94905 0.09330 0.05900
C 	C 	0.02059 0.94947 0.12219 -0.03000
H 	H 	0.06666 0.10370 0.28887 0.05300
H 	H 	0.05622 0.10064 0.33601 0.03600
H 	H 	0.10137 0.96945 0.19770 0.04300
C 	C 	0.30216 0.49082 0.47284 0.02100
C 	C 	0.25502 0.43866 0.43981 -0.04700
C 	C 	0.22280 0.37967 0.43640 -0.02600
C 	C 	0.23755 0.37261 0.46602 -0.01300
C 	C 	0.28535 0.42457 0.49903 -0.02700
C 	C 	0.31756 0.48356 0.50243 -0.04800
C 	C 	0.33164 0.55236 0.47642 -0.01200
C 	C 	0.35502 0.60396 0.47933 -0.03000
C 	C 	0.20327 0.31220 0.46257 0.05300
C 	C 	0.17489 0.26175 0.45987 -0.11800
H 	H 	0.24273 0.44394 0.41681 0.04400
H 	H 	0.18608 0.33967 0.41080 0.04000
H 	H 	0.29717 0.41943 0.52203 0.03600
H 	H 	0.35381 0.52368 0.52805 0.04100
C 	C 	0.19929 0.87824 0.47038 -0.01600
C 	C 	0.24740 0.90500 0.46707 -0.02500
C 	C 	0.28721 0.88455 0.47315 -0.04800
C 	C 	0.27913 0.83736 0.48260 0.02100
C 	C 	0.23254 0.81238 0.48723 -0.04700
C 	C 	0.19268 0.83276 0.48112 -0.02600
C 	C 	0.15336 0.89292 0.45948 0.05700
C 	C 	0.11437 0.90435 0.44930 -0.13100
C 	C 	0.31498 0.81080 0.48463 -0.01100
C 	C 	0.34349 0.78693 0.48564 -0.02900
H 	H 	0.25288 0.94031 0.45886 0.04000
H 	H 	0.32323 0.90422 0.46961 0.04400
H 	H 	0.22613 0.77600 0.49464 0.04400
H 	H 	0.15568 0.81193 0.48379 0.03800
C 	C 	0.25935 0.39505 0.97378 -0.01100
C 	C 	0.31150 0.44540 0.00643 -0.02900
C 	C 	0.34409 0.50436 0.00990 -0.05000
C 	C 	0.32472 0.51318 0.98072 0.02300
C 	C 	0.27311 0.46259 0.94799 -0.04700
C 	C 	0.24052 0.40364 0.94453 -0.02600
C 	C 	0.22494 0.33473 0.97037 0.05400
C 	C 	0.19654 0.28435 0.96775 -0.11600
C 	C 	0.35508 0.57495 0.98471 -0.01200
C 	C 	0.37923 0.62676 0.98798 -0.02900
H 	H 	0.32649 0.43906 0.02914 0.03600
H 	H 	0.38381 0.54327 0.03530 0.04100
H 	H 	0.25774 0.46909 0.92533 0.04500
H 	H 	0.20040 0.36488 0.91918 0.04100
C 	C 	0.30918 0.86459 0.99488 0.02500
C 	C 	0.26330 0.84053 0.00013 -0.05400
C 	C 	0.22361 0.86111 0.99411 -0.02100
C 	C 	0.22969 0.90590 0.98286 -0.01800
C 	C 	0.27731 0.93199 0.97910 -0.02400
C 	C 	0.31694 0.91133 0.98507 -0.05000
C 	C 	0.34414 0.83713 0.99632 -0.01300
C 	C 	0.37180 0.81243 0.99677 -0.02900
C 	C 	0.18328 0.91988 0.97151 0.05800
C 	C 	0.14377 0.93052 0.96083 -0.13200
H 	H 	0.25716 0.80453 0.00782 0.04500
H 	H 	0.18701 0.84082 0.99714 0.03700
H 	H 	0.28240 0.96677 0.97050 0.03900
H 	H 	0.35244 0.93031 0.98108 0.04400
C 	C 	0.34396 0.14020 0.45376 -0.01300
C 	C 	0.39004 0.20404 0.47121 -0.02800
C 	C 	0.43450 0.22453 0.46475 -0.04800
C 	C 	0.43304 0.18126 0.44080 0.02000
C 	C 	0.38800 0.11723 0.42407 -0.04800
C 	C 	0.34352 0.09674 0.43053 -0.02800
C 	C 	0.29389 0.12013 0.45709 0.05000
C 	C 	0.25115 0.10415 0.45916 -0.11300
H 	H 	0.39059 0.23792 0.48915 0.03700
H 	H 	0.46939 0.27407 0.47791 0.04100
H 	H 	0.38681 0.08349 0.40565 0.04200
H 	H 	0.30798 0.04731 0.41691 0.03700
C 	C 	0.45848 0.20401 0.95031 0.02000
C 	C 	0.41311 0.14011 0.93361 -0.04800
C 	C 	0.36855 0.12013 0.94005 -0.02800
C 	C 	0.36923 0.16398 0.96322 -0.01300
C 	C 	0.41561 0.22770 0.98062 -0.02700
C 	C 	0.46016 0.24767 0.97419 -0.04800
C 	C 	0.31915 0.14442 0.96655 0.05000
C 	C 	0.27634 0.12869 0.96855 -0.11400
H 	H 	0.41172 0.10606 0.91525 0.04100
H 	H 	0.33276 0.07080 0.92646 0.03600
H 	H 	0.41635 0.26188 0.99852 0.03800
Zn	Zn	0.00629 0.05046 0.01194 1.20600
O 	O 	0.00114 0.00207 0.90767 -0.85100
O 	O 	0.01988 0.99842 0.48849 -0.86500
O 	O 	0.01907 0.03298 0.54885 -0.46400
C 	C 	0.01705 0.98474 0.55300 0.31800
C 	C 	0.01305 0.00049 0.31499 -0.08800
C 	C 	0.01171 0.99915 0.34457 0.32500
O 	O 	0.00387 0.03866 0.36113 -0.44600
O 	O 	0.00191 0.93471 0.52796 -0.41500
C 	C 	0.47649 0.20272 0.43259 -0.01300
H 	H 	0.47923 0.68956 0.98943 0.05500
C 	C 	0.48260 0.77464 0.99402 0.05100
H 	H 	0.49529 0.29712 0.98731 0.04100
Zn	Zn	0.99632 0.93431 0.98635 1.17900
C 	C 	0.50200 0.22495 0.94210 -0.01300
C 	C 	0.51281 0.22080 0.42567 -0.03100
C 	C 	0.51002 0.77944 0.48435 -0.03000
C 	C 	0.99629 0.02108 0.79787 -0.01600
C 	C 	0.99698 0.01790 0.76911 -0.10000
H 	H 	0.99308 0.90481 0.07007 0.00400
C 	C 	0.55639 0.24231 0.41754 0.05200
H 	H 	0.55804 0.32651 0.42190 0.05500
H 	H 	0.99521 0.90560 0.12113 0.01500
C 	C 	0.55392 0.80234 0.48349 -0.01300
C 	C 	0.53836 0.24256 0.93516 -0.03100
H 	H 	0.56617 0.16413 0.41276 0.05400
C 	C 	0.53484 0.80112 0.99273 -0.03000
C 	C 	0.57632 0.29920 0.41689 -0.08900
C 	C 	0.58081 0.20761 0.41167 -0.08900
H 	H 	0.57270 0.87249 0.45283 0.04300
C 	C 	0.60600 0.82946 0.48213 0.02100
C 	C 	0.62082 0.32140 0.41050 0.05100
C 	C 	0.60881 0.86438 0.46462 -0.04900
C 	C 	0.62541 0.22994 0.40537 0.05100
C 	C 	0.58193 0.26353 0.92698 0.05200
H 	H 	0.58600 0.34914 0.93252 0.05500
H 	H 	0.58924 0.18373 0.92094 0.05400
C 	C 	0.57826 0.82337 0.99141 -0.01400
C 	C 	0.64496 0.28652 0.40449 -0.08900
C 	C 	0.60318 0.32095 0.92694 -0.08900
C 	C 	0.60489 0.22765 0.92033 -0.08900
C 	C 	0.64475 0.38181 0.41228 -0.03200
H 	H 	0.59266 0.88616 0.95667 0.04300
C 	C 	0.65543 0.19808 0.40320 -0.03200
H 	H 	0.98982 0.04478 0.16941 0.01100
C 	C 	0.65303 0.81939 0.49740 -0.04900
H 	H 	0.65126 0.79257 0.51104 0.04100
H 	H 	0.67400 0.45712 0.36539 0.04000
H 	H 	0.65769 0.06479 0.40360 0.04000
C 	C 	0.66643 0.43253 0.41404 -0.01500
C 	C 	0.65783 0.88809 0.46181 -0.02700
H 	H 	0.65916 0.91417 0.44776 0.03700
C 	C 	0.62981 0.84977 0.98953 0.02300
C 	C 	0.64754 0.34249 0.92039 0.05100
C 	C 	0.64934 0.24931 0.91387 0.05100
H 	H 	0.68016 0.30423 0.40010 0.05300
C 	C 	0.63028 0.88070 0.96986 -0.04900
C 	C 	0.68216 0.17283 0.40235 -0.01500
C 	C 	0.99545 0.93852 0.61576 -0.10900
C 	C 	0.69605 0.49863 0.38910 -0.05000
C 	C 	0.67021 0.30642 0.91360 -0.08900
C 	C 	0.69396 0.49316 0.41642 0.02000
C 	C 	0.67793 0.21612 0.91090 -0.03200
C 	C 	0.67267 0.40325 0.92267 -0.03200
C 	C 	0.69925 0.08927 0.40519 -0.05100
H 	H 	0.67882 0.81942 0.02192 0.04100
C 	C 	0.70205 0.84310 0.49460 -0.02700
C 	C 	0.67897 0.90385 0.96675 -0.02700
C 	C 	0.67878 0.84313 0.00660 -0.05100
C 	C 	0.71588 0.14436 0.40268 0.02000
H 	H 	0.67998 0.08304 0.91209 0.04100
H 	H 	0.69509 0.47881 0.87454 0.04000
H 	H 	0.67855 0.92685 0.95107 0.03700
C 	C 	0.69525 0.45420 0.92479 -0.01500
H 	H 	0.70528 0.32359 0.90908 0.05300
C 	C 	0.70426 0.87701 0.47653 -0.01500
H 	H 	0.72981 0.56170 0.37157 0.03200
C 	C 	0.70360 0.18988 0.90942 -0.01500
C 	C 	0.98975 0.93395 0.58524 -0.01000
C 	C 	0.72779 0.55781 0.39265 -0.02800
C 	C 	0.72274 0.54709 0.44703 -0.05000
C 	C 	0.72050 0.10633 0.91258 -0.05100
C 	C 	0.72111 0.52037 0.89913 -0.05000
C 	C 	0.72373 0.51503 0.92752 0.02000
C 	C 	0.72747 0.86629 0.00350 -0.02900
C 	C 	0.73779 0.06726 0.41140 -0.02700
H 	H 	0.72579 0.02592 0.41460 0.03500
H 	H 	0.72142 0.54320 0.46828 0.04000
C 	C 	0.73627 0.16040 0.90905 0.02000
H 	H 	0.73772 0.83426 0.50600 0.03600
C 	C 	0.99758 0.94688 0.26098 -0.10400
H 	H 	0.97803 0.04358 0.21634 0.00700
C 	C 	0.72741 0.89621 0.98332 -0.01300
H 	H 	0.75131 0.58319 0.88062 0.03200
C 	C 	0.76955 0.17552 0.40459 -0.05200
C 	C 	0.75184 0.89667 0.47108 0.05400
H 	H 	0.78255 0.21802 0.40252 0.03800
C 	C 	0.75760 0.61174 0.42352 -0.01700
C 	C 	0.75310 0.57943 0.90260 -0.02800
C 	C 	0.75766 0.56902 0.95925 -0.05000
H 	H 	0.74762 0.04366 0.92264 0.03500
H 	H 	0.76470 0.86013 0.01635 0.03600
C 	C 	0.75448 0.60628 0.45057 -0.02700
C 	C 	0.75878 0.08403 0.91854 -0.02700
H 	H 	0.76001 0.56523 0.98134 0.04000
H 	H 	0.96271 0.89907 0.61483 0.04700
C 	C 	0.78854 0.18996 0.90949 -0.05200
H 	H 	0.80083 0.23161 0.90659 0.03800
C 	C 	0.77490 0.91532 0.97779 0.05400
C 	C 	0.79312 0.10032 0.41517 -0.02200
C 	C 	0.78786 0.63336 0.93449 -0.01700
C 	C 	0.78965 0.62809 0.96273 -0.02700
C 	C 	0.79106 0.91152 0.46602 -0.12400
C 	C 	0.80812 0.15355 0.41084 -0.02800
C 	C 	0.79241 0.67260 0.42771 0.05200
H 	H 	0.77722 0.64780 0.47447 0.03500
C 	C 	0.81299 0.11577 0.92102 -0.02200
O 	O 	0.97552 0.98099 0.39876 -0.88900
Zn	Zn	0.99822 0.99027 0.44386 1.20800
C 	C 	0.99172 0.94512 0.28767 0.00100
H 	H 	0.97094 0.90076 0.28724 0.00900
Zn	Zn	0.88992 0.90169 0.92214 1.17500
C 	C 	0.88425 0.80519 0.94507 0.34100
C 	C 	0.86010 0.94465 0.96618 0.34000
O 	O 	0.94435 0.03455 0.94108 -0.48500
O 	O 	0.94304 0.84470 0.97131 -0.46900
O 	O 	0.85637 0.81833 0.92095 -0.47000
O 	O 	0.84232 0.92521 0.93400 -0.48000
O 	O 	0.91496 0.95989 0.99022 -0.48700
O 	O 	0.96844 0.92624 0.93821 -0.81300
C 	C 	0.94090 0.07405 0.96118 0.34000
O 	O 	0.96933 0.09099 0.99426 -0.51100
H 	H 	0.95732 0.98660 0.89156 0.12500
Zn	Zn	0.86406 0.88283 0.41395 1.17500
Zn	Zn	0.96967 0.91210 0.47691 1.17800
C 	C 	0.85591 0.78425 0.43537 0.34100
C 	C 	0.83684 0.92685 0.45931 0.34000
O 	O 	0.92132 0.01576 0.43340 -0.48100
Zn	Zn	0.98355 0.03016 0.50391 1.18800
O 	O 	0.91493 0.82258 0.46139 -0.46900
O 	O 	0.82846 0.79894 0.41200 -0.47000
O 	O 	0.81884 0.90861 0.42712 -0.48000
O 	O 	0.89156 0.94122 0.48297 -0.48300
O 	O 	0.94160 0.90484 0.42891 -0.80900
C 	C 	0.91917 0.05589 0.45404 0.33900
O 	O 	0.94799 0.07230 0.48706 -0.50700
Zn	Zn	0.99318 0.92594 0.38013 1.17200
H 	H 	0.93217 0.96732 0.38308 0.14700
H 	H 	0.95248 0.89107 0.56097 0.03300
H 	H 	0.95938 0.01329 0.74713 0.04100
H 	H 	0.95816 0.01888 0.79789 0.01900
H 	H 	0.98107 0.90388 0.24007 0.04200
C 	C 	0.81414 0.92975 0.97274 -0.12400
C 	C 	0.83759 0.08419 0.42762 0.05200
C 	C 	0.87500 0.07120 0.43915 -0.14200
H 	H 	0.85071 0.17921 0.41358 0.02800
C 	C 	0.82157 0.72357 0.43122 -0.12600
C 	C 	0.82686 0.16770 0.91549 -0.02800
C 	C 	0.85796 0.10031 0.93376 0.05200
C 	C 	0.89592 0.08813 0.94567 -0.14300
H 	H 	0.86855 0.19231 0.91722 0.02800
C 	C 	0.82220 0.69402 0.93833 0.05200
C 	C 	0.85080 0.74479 0.94147 -0.12600
H 	H 	0.81624 0.66963 0.98742 0.03500
