data_crystal

_cell_length_a 26.07285
_cell_length_b 26.41175
_cell_length_c 26.72320
_cell_angle_alpha 95.51668
_cell_angle_beta  95.51493
_cell_angle_gamma 125.84390

_symmetry_space_group_name_	'P 1'
_symmetry_space_group_name_H-M	'P 1'

loop_
_symmetry_equiv_pos_as_xyz
  x,y,z

loop_
_atom_site_label
_atom_site_type_symbol
_atom_site_fract_x
_atom_site_fract_y
_atom_site_fract_z
_atom_site_charge
C 	C 	0.97662 0.03245 0.99438 0.27000
N 	N 	0.94116 0.96799 0.98458 -0.09500
C 	C 	0.97079 0.93969 0.98069 0.28400
N 	N 	0.03590 0.97588 0.98666 -0.09300
C 	C 	0.07152 0.04026 0.99642 0.28200
N 	N 	0.04187 0.06860 0.00025 -0.09300
C 	C 	0.92575 0.99461 0.44704 0.30500
N 	N 	0.89264 0.93313 0.45342 -0.10300
C 	C 	0.92402 0.90682 0.46047 0.28700
N 	N 	0.98829 0.94196 0.46091 -0.10900
C 	C 	0.02160 0.00358 0.45537 0.29700
N 	N 	0.99026 0.02984 0.44845 -0.12100
Cu	Cu	0.65673 0.25853 0.00990 0.94200
Cu	Cu	0.67943 0.22579 0.89591 0.90600
Cu	Cu	0.68720 0.34233 0.92885 0.91600
Cu	Cu	0.67062 0.38603 0.03234 0.92900
C 	C 	0.67755 0.31722 0.11348 0.30600
O 	O 	0.56587 0.22519 0.01665 -0.31400
C 	C 	0.64677 0.27537 0.82066 0.30600
O 	O 	0.71050 0.35420 0.00140 -0.63400
O 	O 	0.63660 0.25044 0.93493 -0.63000
O 	O 	0.69294 0.20961 0.01170 -0.30600
O 	O 	0.74912 0.25227 0.94850 -0.38100
O 	O 	0.68529 0.36869 0.10167 -0.32200
O 	O 	0.73985 0.43277 0.92917 -0.32800
C 	C 	0.73792 0.47350 0.96009 0.40700
C 	C 	0.54092 0.25372 0.00231 0.39500
O 	O 	0.57676 0.30837 0.98754 -0.33700
O 	O 	0.69609 0.45408 0.99121 -0.32400
O 	O 	0.68715 0.28260 0.08240 -0.31600
C 	C 	0.73931 0.22235 0.98703 0.39300
O 	O 	0.68012 0.33024 0.85340 -0.33100
O 	O 	0.63118 0.22299 0.83612 -0.36400
H 	H 	0.75756 0.38006 0.01400 0.21300
H 	H 	0.59010 0.22639 0.92074 0.21700
Cu	Cu	0.72391 0.33292 0.43313 0.94100
Cu	Cu	0.72658 0.28018 0.53850 0.90700
Cu	Cu	0.62615 0.29791 0.50335 0.91500
Cu	Cu	0.60279 0.33000 0.40336 0.92200
C 	C 	0.67475 0.31889 0.32741 0.31100
O 	O 	0.76023 0.42563 0.43594 -0.30400
C 	C 	0.66668 0.30132 0.61148 0.30300
O 	O 	0.62413 0.28038 0.43133 -0.63600
O 	O 	0.72034 0.33993 0.50687 -0.62800
O 	O 	0.77168 0.29531 0.43233 -0.31200
O 	O 	0.70740 0.22259 0.47896 -0.38400
O 	O 	0.64660 0.34429 0.34311 -0.32900
O 	O 	0.53371 0.25143 0.49594 -0.33300
C 	C 	0.49574 0.25100 0.45909 0.41400
C 	C 	0.73267 0.44934 0.45609 0.38300
O 	O 	0.67324 0.41084 0.46330 -0.34400
O 	O 	0.51899 0.29079 0.42675 -0.33000
O 	O 	0.71076 0.31212 0.36011 -0.31100
C 	C 	0.74796 0.24097 0.44739 0.40000
O 	O 	0.62859 0.30498 0.57805 -0.31700
O 	O 	0.72154 0.31485 0.60189 -0.35600
H 	H 	0.59608 0.23468 0.41541 0.21100
H 	H 	0.74830 0.38379 0.52708 0.21500
C 	C 	0.64562 0.23418 0.73246 -0.02000
C 	C 	0.64036 0.27541 0.76495 -0.05600
C 	C 	0.63433 0.31944 0.74436 0.13600
C 	C 	0.64085 0.32634 0.69344 -0.01200
C 	C 	0.65092 0.28814 0.66234 -0.05600
C 	C 	0.65009 0.23985 0.68137 0.13300
Br	Br	0.65340 0.17996 0.63775 -0.16200
H 	H 	0.64800 0.19868 0.74726 0.09500
H 	H 	0.63881 0.36188 0.67832 0.11600
Br	Br	0.61200 0.36659 0.78335 -0.08000
C 	C 	0.62080 0.26821 0.23685 -0.01700
C 	C 	0.67789 0.31171 0.27275 -0.05000
C 	C 	0.73600 0.35323 0.25567 0.13800
C 	C 	0.73594 0.35202 0.20318 -0.01300
C 	C 	0.67828 0.31058 0.16746 -0.04900
C 	C 	0.62067 0.26762 0.18439 0.13500
Br	Br	0.54083 0.20974 0.13670 -0.09900
H 	H 	0.57603 0.23616 0.24978 0.09900
H 	H 	0.78041 0.38502 0.19025 0.10600
Br	Br	0.81508 0.41502 0.30332 -0.06100
C 	C 	0.82338 0.61674 0.42989 0.23900
C 	C 	0.81119 0.64594 0.46875 0.00800
C 	C 	0.77717 0.61182 0.50559 0.24200
C 	C 	0.75428 0.54848 0.50296 0.31900
C 	C 	0.76434 0.51837 0.46292 -0.19800
C 	C 	0.79975 0.55319 0.42672 0.32000
C 	C 	0.83449 0.71246 0.47093 -0.00100
F 	F 	0.76576 0.63988 0.54364 -0.30900
F 	F 	0.80915 0.52477 0.38735 -0.35200
C 	C 	0.80622 0.72763 0.43372 0.25500
C 	C 	0.83338 0.79131 0.43186 0.30800
C 	C 	0.88872 0.84028 0.46752 -0.13600
C 	C 	0.91442 0.82484 0.50670 0.30800
C 	C 	0.88774 0.76124 0.50813 0.25600
F 	F 	0.75360 0.68067 0.39844 -0.31500
F 	F 	0.96616 0.87163 0.54276 -0.31300
F 	F 	0.80773 0.80542 0.39401 -0.32600
F 	F 	0.91481 0.74704 0.54473 -0.31000
F 	F 	0.85751 0.64984 0.39477 -0.31800
F 	F 	0.72209 0.51624 0.53918 -0.35700
C 	C 	0.83240 0.05945 0.47133 0.25300
C 	C 	0.84025 0.09081 0.42991 -0.00100
C 	C 	0.87232 0.08666 0.39228 0.25600
C 	C 	0.89823 0.05317 0.39690 0.31200
C 	C 	0.89210 0.02339 0.43914 -0.14900
C 	C 	0.85806 0.02571 0.47585 0.30100
C 	C 	0.81726 0.13017 0.42720 0.00900
F 	F 	0.87906 0.11578 0.35160 -0.30800
F 	F 	0.85200 0.99736 0.51693 -0.32200
C 	C 	0.86113 0.19670 0.44112 0.23700
C 	C 	0.83873 0.23363 0.44429 0.32000
C 	C 	0.77222 0.20421 0.43391 -0.20700
C 	C 	0.72865 0.13795 0.41727 0.32300
C 	C 	0.75111 0.10111 0.41387 0.23900
F 	F 	0.92529 0.22532 0.45346 -0.31700
F 	F 	0.66440 0.10916 0.40558 -0.35400
F 	F 	0.88141 0.29762 0.46017 -0.35600
F 	F 	0.70848 0.03698 0.39892 -0.31300
F 	F 	0.80132 0.06308 0.50786 -0.32400
F 	F 	0.92972 0.04999 0.36053 -0.31700
C 	C 	0.19685 0.07249 0.49545 0.25600
C 	C 	0.22474 0.11130 0.45923 -0.00200
C 	C 	0.18612 0.11597 0.42249 0.25700
C 	C 	0.11984 0.08113 0.42135 0.30900
C 	C 	0.09176 0.04199 0.45749 -0.13900
C 	C 	0.13080 0.03844 0.49491 0.30700
C 	C 	0.29434 0.14669 0.45955 0.01100
F 	F 	0.21286 0.15402 0.38771 -0.30700
F 	F 	0.10478 0.00252 0.53110 -0.31500
C 	C 	0.31585 0.12815 0.42059 0.24000
C 	C 	0.38182 0.16203 0.42068 0.32500
C 	C 	0.42674 0.21403 0.46011 -0.20400
C 	C 	0.40532 0.23211 0.49939 0.33000
C 	C 	0.33934 0.19881 0.49895 0.23900
F 	F 	0.27274 0.07724 0.38276 -0.31100
F 	F 	0.44849 0.28270 0.53745 -0.34700
F 	F 	0.40219 0.14420 0.38260 -0.36100
F 	F 	0.31901 0.21744 0.53652 -0.31000
F 	F 	0.23382 0.06761 0.53106 -0.31300
F 	F 	0.08267 0.08422 0.38443 -0.31100
C 	C 	0.85947 0.76926 0.99751 0.25300
C 	C 	0.86795 0.73797 0.95735 0.00100
C 	C 	0.90777 0.77265 0.92336 0.25700
C 	C 	0.94007 0.83842 0.93016 0.31000
C 	C 	0.93264 0.86996 0.97097 -0.13700
C 	C 	0.89157 0.83497 0.00423 0.31300
C 	C 	0.83618 0.66916 0.95166 0.01000
F 	F 	0.91543 0.74260 0.88397 -0.31100
F 	F 	0.88445 0.86500 0.04406 -0.32300
C 	C 	0.76988 0.62543 0.93191 0.24100
C 	C 	0.73821 0.56070 0.93215 0.32900
C 	C 	0.77266 0.53924 0.95199 -0.20000
C 	C 	0.83955 0.58248 0.96913 0.32300
C 	C 	0.87121 0.64731 0.96915 0.24000
F 	F 	0.73595 0.64597 0.91372 -0.30800
F 	F 	0.87337 0.56201 0.98778 -0.35800
F 	F 	0.67374 0.51892 0.91418 -0.34200
F 	F 	0.93552 0.68920 0.98774 -0.31300
F 	F 	0.82103 0.73604 0.03056 -0.31200
F 	F 	0.97859 0.87158 0.89713 -0.32500
C 	C 	0.78105 0.11115 0.01263 0.24100
C 	C 	0.84605 0.14774 0.00773 0.00800
C 	C 	0.87761 0.21120 0.00192 0.24000
C 	C 	0.84360 0.23691 0.99840 0.31700
C 	C 	0.77747 0.19909 0.00005 -0.20100
C 	C 	0.74680 0.13661 0.00868 0.31900
C 	C 	0.87952 0.11814 0.00453 -0.00100
F 	F 	0.94076 0.24732 0.99806 -0.31600
F 	F 	0.68309 0.09954 0.01070 -0.34900
C 	C 	0.86537 0.07639 0.95969 0.25300
C 	C 	0.89743 0.04876 0.95627 0.30500
C 	C 	0.94424 0.06295 0.99755 -0.13100
C 	C 	0.95881 0.10513 0.04228 0.29700
C 	C 	0.92640 0.13247 0.04580 0.26100
F 	F 	0.82083 0.06301 0.91930 -0.32300
F 	F 	0.00345 0.11864 0.08264 -0.31000
F 	F 	0.88365 0.00881 0.91258 -0.33000
F 	F 	0.94026 0.17261 0.08937 -0.31000
F 	F 	0.75056 0.05021 0.01955 -0.31200
F 	F 	0.87460 0.29824 0.99244 -0.35400
C 	C 	0.38999 0.23323 0.02629 0.24000
C 	C 	0.34231 0.16920 0.00363 0.01200
C 	C 	0.35995 0.13277 0.98068 0.23800
C 	C 	0.42488 0.16023 0.98036 0.32500
C 	C 	0.47261 0.22444 0.00280 -0.20100
C 	C 	0.45487 0.26078 0.02588 0.32500
C 	C 	0.27394 0.14008 0.00438 0.00200
F 	F 	0.31407 0.07085 0.95847 -0.31300
F 	F 	0.50069 0.32245 0.04878 -0.36500
C 	C 	0.23908 0.15069 0.96922 0.25500
C 	C 	0.17334 0.12035 0.96818 0.30800
C 	C 	0.14200 0.07898 0.00216 -0.13200
C 	C 	0.17744 0.07010 0.03843 0.30900
C 	C 	0.24316 0.10059 0.03956 0.25600
F 	F 	0.26863 0.18926 0.93534 -0.31100
F 	F 	0.14793 0.03133 0.07221 -0.32400
F 	F 	0.13956 0.12918 0.93288 -0.32400
F 	F 	0.27686 0.09119 0.07441 -0.31400
F 	F 	0.37339 0.26858 0.04905 -0.31100
F 	F 	0.44133 0.12483 0.95743 -0.35800
