data_crystal

_cell_length_a 43.28934
_cell_length_b 40.53588
_cell_length_c 49.89320
_cell_angle_alpha 90.00000
_cell_angle_beta  90.00000
_cell_angle_gamma 115.41771

_symmetry_space_group_name_	'P 1'
_symmetry_space_group_name_H-M	'P 1'

loop_
_symmetry_equiv_pos_as_xyz
  x,y,z

loop_
_atom_site_label
_atom_site_type_symbol
_atom_site_fract_x
_atom_site_fract_y
_atom_site_fract_z
_atom_site_charge
Zn	Zn	0.96237 0.96631 0.98872 1.22200
Zn	Zn	0.02786 0.01121 0.94477 1.19300
C 	C 	0.00740 0.07556 0.04739 0.34600
Zn	Zn	0.02340 0.04246 0.99916 1.22200
Zn	Zn	0.96742 0.99550 0.04601 1.19500
H 	H 	0.98183 0.02957 0.96158 0.17400
C 	C 	0.07429 0.01510 0.99310 0.32200
O 	O 	0.92272 0.95142 0.04708 -0.46400
O 	O 	0.93463 0.92020 0.01356 -0.40600
O 	O 	0.99378 0.01578 0.96940 -0.79100
O 	O 	0.00528 0.95907 0.93298 -0.45700
O 	O 	0.92226 0.97780 0.98776 -0.43900
O 	O 	0.96161 0.92981 0.96241 -0.43600
O 	O 	0.94372 0.02167 0.02027 -0.42100
O 	O 	0.06941 0.05890 0.94394 -0.46400
H 	H 	0.00899 0.97643 0.02219 0.17800
O 	O 	0.05091 0.08873 0.97438 -0.40100
O 	O 	0.99603 0.99046 0.01699 -0.79300
O 	O 	0.99799 0.04478 0.06076 -0.47000
O 	O 	0.06692 0.03934 0.00559 -0.44000
O 	O 	0.01290 0.07698 0.02137 -0.43300
O 	O 	0.05292 0.99285 0.97545 -0.42800
C 	C 	0.91567 0.92092 0.03389 0.32800
C 	C 	0.98819 0.93117 0.94883 0.32900
C 	C 	0.92012 0.00380 0.00235 0.32300
C 	C 	0.07335 0.08905 0.95649 0.32700
Zn	Zn	0.03751 0.53407 0.99075 1.22300
Zn	Zn	0.97207 0.48964 0.94679 1.19400
C 	C 	0.99243 0.42478 0.04924 0.34800
Zn	Zn	0.97609 0.45812 0.00117 1.22300
Zn	Zn	0.03253 0.50475 0.04797 1.19500
H 	H 	0.01770 0.47071 0.96362 0.17500
C 	C 	0.92589 0.48645 0.99510 0.32400
O 	O 	0.07746 0.54860 0.04896 -0.46300
O 	O 	0.06540 0.57998 0.01567 -0.40600
O 	O 	0.00590 0.48465 0.97143 -0.79000
O 	O 	0.99521 0.54164 0.93486 -0.45800
O 	O 	0.07749 0.52232 0.98967 -0.43900
O 	O 	0.03844 0.57089 0.96464 -0.43500
O 	O 	0.05578 0.47830 0.02205 -0.42100
O 	O 	0.93019 0.44233 0.94601 -0.46400
H 	H 	0.99111 0.52420 0.02435 0.17800
O 	O 	0.94818 0.41193 0.97636 -0.40100
O 	O 	0.00389 0.51001 0.01906 -0.79300
O 	O 	0.00177 0.45551 0.06264 -0.47000
O 	O 	0.93284 0.46187 0.00754 -0.44000
O 	O 	0.98610 0.42318 0.02333 -0.43300
O 	O 	0.94746 0.50853 0.97747 -0.42900
C 	C 	0.08462 0.57910 0.03575 0.32900
C 	C 	0.01204 0.56952 0.95078 0.33000
C 	C 	0.07935 0.49603 0.00408 0.32400
C 	C 	0.92611 0.41194 0.95824 0.32700
Zn	Zn	0.46339 0.96836 0.98535 1.22300
Zn	Zn	0.52963 0.01337 0.94200 1.19300
C 	C 	0.50873 0.07731 0.04453 0.34600
Zn	Zn	0.52420 0.04441 0.99616 1.22300
Zn	Zn	0.46801 0.99716 0.04272 1.19500
H 	H 	0.48321 0.03161 0.95820 0.17500
C 	C 	0.57520 0.01709 0.99097 0.32300
O 	O 	0.42336 0.95296 0.04350 -0.46300
O 	O 	0.43561 0.92202 0.00996 -0.40600
O 	O 	0.49504 0.01780 0.96619 -0.79000
O 	O 	0.50755 0.96115 0.93025 -0.45500
O 	O 	0.42330 0.97987 0.98430 -0.43700
O 	O 	0.46280 0.93225 0.95883 -0.43600
O 	O 	0.44445 0.02350 0.01701 -0.41800
O 	O 	0.57103 0.06127 0.94158 -0.46300
H 	H 	0.50977 0.97825 0.01902 0.17800
O 	O 	0.55174 0.09089 0.97161 -0.40200
O 	O 	0.49685 0.99232 0.01378 -0.79300
O 	O 	0.49838 0.04637 0.05785 -0.46900
O 	O 	0.56778 0.04159 0.00300 -0.44000
O 	O 	0.51310 0.07841 0.01838 -0.43400
O 	O 	0.55431 0.99503 0.97299 -0.42700
C 	C 	0.41659 0.92251 0.03031 0.32800
C 	C 	0.48980 0.93338 0.94602 0.32800
C 	C 	0.42106 0.00581 0.99889 0.32100
C 	C 	0.57432 0.09145 0.95377 0.32700
Zn	Zn	0.53642 0.53351 0.98830 1.22300
Zn	Zn	0.47043 0.48884 0.94472 1.19400
C 	C 	0.49181 0.42355 0.04647 0.34700
Zn	Zn	0.47596 0.45703 0.99857 1.22300
Zn	Zn	0.53195 0.50377 0.04538 1.19500
H 	H 	0.51705 0.47076 0.96058 0.17500
C 	C 	0.42440 0.48359 0.99368 0.32400
O 	O 	0.57645 0.54812 0.04645 -0.46400
O 	O 	0.56406 0.57948 0.01329 -0.40600
O 	O 	0.50506 0.48428 0.96876 -0.79000
O 	O 	0.49221 0.54127 0.93344 -0.45600
O 	O 	0.57670 0.52236 0.98692 -0.43900
O 	O 	0.53683 0.57000 0.96218 -0.43600
O 	O 	0.55579 0.47816 0.01926 -0.42000
O 	O 	0.42926 0.44078 0.94380 -0.46300
H 	H 	0.48993 0.52268 0.02207 0.17800
O 	O 	0.44858 0.41094 0.97362 -0.40100
O 	O 	0.50302 0.50888 0.01663 -0.79300
O 	O 	0.50181 0.45422 0.06006 -0.46900
O 	O 	0.43224 0.45935 0.00566 -0.44100
O 	O 	0.48728 0.42279 0.02034 -0.43400
O 	O 	0.44531 0.50622 0.97598 -0.42900
C 	C 	0.58315 0.57874 0.03352 0.32800
C 	C 	0.50990 0.56896 0.94930 0.32900
C 	C 	0.57915 0.49632 0.00125 0.32600
C 	C 	0.42581 0.41056 0.95601 0.32700
C 	C 	0.50188 0.66492 0.94019 -0.01100
C 	C 	0.51568 0.68726 0.91776 -0.02900
C 	C 	0.51478 0.72128 0.91608 -0.04400
C 	C 	0.50013 0.73311 0.93686 0.00900
C 	C 	0.48567 0.71035 0.95901 -0.04400
C 	C 	0.48655 0.67636 0.96065 -0.02900
C 	C 	0.50107 0.76983 0.93601 0.00900
C 	C 	0.47997 0.77745 0.91812 -0.04400
C 	C 	0.47883 0.81141 0.91888 -0.02900
C 	C 	0.49883 0.83789 0.93747 -0.01100
C 	C 	0.52068 0.83069 0.95478 -0.03000
C 	C 	0.52180 0.79677 0.95407 -0.04400
C 	C 	0.49541 0.87153 0.93997 0.05200
C 	C 	0.49291 0.89987 0.94238 -0.11400
C 	C 	0.50485 0.63105 0.94286 0.05200
C 	C 	0.50706 0.60259 0.94550 -0.11400
H 	H 	0.52753 0.67854 0.90184 0.03900
H 	H 	0.52593 0.73867 0.89888 0.04100
H 	H 	0.47413 0.71920 0.97507 0.04100
H 	H 	0.47574 0.65916 0.97801 0.03700
H 	H 	0.46395 0.75683 0.90406 0.04100
H 	H 	0.46194 0.81684 0.90539 0.03900
H 	H 	0.53630 0.85110 0.96914 0.03700
H 	H 	0.53833 0.79118 0.96783 0.04100
C 	C 	0.49080 0.33133 0.07996 -0.01300
C 	C 	0.51894 0.33260 0.09459 -0.02900
C 	C 	0.52230 0.30040 0.09989 -0.04500
C 	C 	0.49763 0.26677 0.09039 0.00900
C 	C 	0.46814 0.26534 0.07766 -0.04300
C 	C 	0.46474 0.29751 0.07252 -0.02800
C 	C 	0.50491 0.23433 0.09012 0.00900
C 	C 	0.53372 0.23562 0.07636 -0.04400
C 	C 	0.53686 0.20340 0.07085 -0.02800
C 	C 	0.51121 0.16966 0.07892 -0.01300
C 	C 	0.48385 0.16855 0.09453 -0.02900
C 	C 	0.48075 0.20081 0.10021 -0.04500
C 	C 	0.51011 0.13651 0.06758 0.05600
C 	C 	0.50977 0.10915 0.05782 -0.11900
C 	C 	0.49133 0.36438 0.06889 0.05600
C 	C 	0.49126 0.39169 0.05940 -0.11900
H 	H 	0.53902 0.35863 0.10069 0.03700
H 	H 	0.54485 0.30177 0.11020 0.04000
H 	H 	0.44878 0.23955 0.07040 0.04200
H 	H 	0.44272 0.29628 0.06146 0.04000
H 	H 	0.55268 0.26133 0.06864 0.04200
H 	H 	0.55828 0.20452 0.05901 0.04000
H 	H 	0.46410 0.14258 0.10112 0.03700
H 	H 	0.45875 0.19954 0.11130 0.04000
C 	C 	0.66601 0.18083 0.94692 -0.01000
C 	C 	0.69155 0.17835 0.93092 -0.03000
C 	C 	0.72444 0.20699 0.93050 -0.04400
C 	C 	0.73199 0.23832 0.94612 0.00900
C 	C 	0.70618 0.24108 0.96169 -0.04400
C 	C 	0.67329 0.21242 0.96207 -0.03000
C 	C 	0.76708 0.26785 0.94664 0.00900
C 	C 	0.79420 0.26106 0.95648 -0.04400
C 	C 	0.82721 0.28942 0.95796 -0.03000
C 	C 	0.83328 0.32469 0.94962 -0.01000
C 	C 	0.80634 0.33139 0.93943 -0.03000
C 	C 	0.77335 0.30308 0.93791 -0.04400
C 	C 	0.86670 0.35448 0.95282 0.05100
C 	C 	0.89427 0.38015 0.95517 -0.11200
C 	C 	0.63321 0.14987 0.94936 0.05000
C 	C 	0.60592 0.12366 0.95113 -0.11100
H 	H 	0.68611 0.15399 0.91917 0.03800
H 	H 	0.74410 0.20471 0.91826 0.04000
H 	H 	0.71175 0.26515 0.97381 0.04100
H 	H 	0.65370 0.21450 0.97453 0.04000
H 	H 	0.78962 0.23398 0.96332 0.04100
H 	H 	0.84790 0.28405 0.96591 0.04000
H 	H 	0.81085 0.35862 0.93299 0.03800
H 	H 	0.75264 0.30855 0.93015 0.04000
C 	C 	0.32756 0.83184 0.04372 -0.01000
C 	C 	0.30042 0.82457 0.02586 -0.02900
C 	C 	0.27031 0.79245 0.02835 -0.04400
C 	C 	0.26713 0.76739 0.04874 0.00900
C 	C 	0.29399 0.77503 0.06700 -0.04400
C 	C 	0.32416 0.80721 0.06449 -0.03000
C 	C 	0.23648 0.73230 0.04998 0.00900
C 	C 	0.23400 0.70331 0.03343 -0.04400
C 	C 	0.20353 0.67136 0.03233 -0.02900
C 	C 	0.17533 0.66821 0.04776 -0.01100
C 	C 	0.17813 0.69668 0.06499 -0.03000
C 	C 	0.20865 0.72867 0.06611 -0.04400
C 	C 	0.14291 0.63700 0.04432 0.05100
C 	C 	0.11615 0.61052 0.04096 -0.11300
C 	C 	0.35941 0.86368 0.03985 0.05100
C 	C 	0.38568 0.89058 0.03598 -0.11300
H 	H 	0.30286 0.84352 0.00978 0.04100
H 	H 	0.24967 0.78675 0.01418 0.04200
H 	H 	0.29171 0.75582 0.08283 0.04000
H 	H 	0.34501 0.81268 0.07841 0.03600
H 	H 	0.25540 0.70589 0.02094 0.04200
H 	H 	0.20158 0.64943 0.01902 0.04100
H 	H 	0.15647 0.69440 0.07704 0.03600
H 	H 	0.21039 0.75092 0.07899 0.04000
C 	C 	0.66692 0.48243 0.99792 -0.01200
C 	C 	0.68949 0.49627 0.97630 -0.03000
C 	C 	0.72121 0.49490 0.97672 -0.04400
C 	C 	0.73053 0.47967 0.99879 0.00800
C 	C 	0.70760 0.46516 0.02018 -0.04300
C 	C 	0.67588 0.46654 0.01973 -0.02800
C 	C 	0.76452 0.47958 0.99972 0.00800
C 	C 	0.77333 0.45948 0.98079 -0.04400
C 	C 	0.80608 0.46068 0.98092 -0.02900
C 	C 	0.83022 0.48199 0.99994 -0.01300
C 	C 	0.82133 0.50166 0.01912 -0.02900
C 	C 	0.78856 0.50046 0.01903 -0.04300
C 	C 	0.86437 0.48443 0.99919 0.05100
C 	C 	0.89267 0.48575 0.99787 -0.11600
C 	C 	0.63575 0.48700 0.99867 0.05100
C 	C 	0.60959 0.49069 0.99949 -0.11400
H 	H 	0.68276 0.50867 0.95940 0.03800
H 	H 	0.73875 0.50616 0.96011 0.04000
H 	H 	0.71447 0.45311 0.03722 0.04000
H 	H 	0.65854 0.45581 0.03653 0.03800
H 	H 	0.75490 0.44316 0.96589 0.04000
H 	H 	0.81277 0.44531 0.96609 0.03800
H 	H 	0.83987 0.51815 0.03391 0.03600
H 	H 	0.78199 0.51610 0.03370 0.04000
C 	C 	0.32868 0.47815 0.00199 -0.00900
C 	C 	0.32267 0.50449 0.01639 -0.03100
C 	C 	0.28990 0.50327 0.01694 -0.04400
C 	C 	0.26296 0.47567 0.00306 0.01000
C 	C 	0.26889 0.44889 0.98911 -0.04500
C 	C 	0.30165 0.45012 0.98860 -0.03100
C 	C 	0.22889 0.47556 0.00241 0.01000
C 	C 	0.20988 0.47023 0.02611 -0.04400
C 	C 	0.17845 0.47225 0.02575 -0.03000
C 	C 	0.16584 0.47962 0.00172 -0.00900
C 	C 	0.18439 0.48409 0.97792 -0.03100
C 	C 	0.21582 0.48205 0.97824 -0.04500
C 	C 	0.13514 0.48512 0.00189 0.05000
C 	C 	0.10938 0.48962 0.00248 -0.11200
C 	C 	0.36284 0.48089 0.99973 0.04800
C 	C 	0.39115 0.48246 0.99747 -0.11500
H 	H 	0.34345 0.52622 0.02680 0.03700
H 	H 	0.28556 0.52406 0.02777 0.04000
H 	H 	0.24820 0.42736 0.97848 0.04000
H 	H 	0.30611 0.42959 0.97749 0.03900
H 	H 	0.21966 0.46497 0.04482 0.04000
H 	H 	0.16421 0.46873 0.04422 0.03800
H 	H 	0.17480 0.48982 0.95927 0.03800
H 	H 	0.23032 0.48618 0.95985 0.04000
C 	C 	0.82608 0.83117 0.04799 -0.01000
C 	C 	0.79605 0.82965 0.03631 -0.02900
C 	C 	0.76549 0.79794 0.03850 -0.04300
C 	C 	0.76474 0.76751 0.05243 0.00900
C 	C 	0.79463 0.76948 0.06481 -0.04400
C 	C 	0.82521 0.80122 0.06255 -0.03000
C 	C 	0.73330 0.73290 0.05250 0.00900
C 	C 	0.70279 0.73169 0.06315 -0.04400
C 	C 	0.67231 0.69983 0.06090 -0.03000
C 	C 	0.67217 0.66900 0.04807 -0.01100
C 	C 	0.70278 0.66980 0.03819 -0.02900
C 	C 	0.73324 0.70163 0.04037 -0.04400
C 	C 	0.64035 0.63738 0.04346 0.05100
C 	C 	0.61406 0.61061 0.03935 -0.11300
C 	C 	0.85811 0.86259 0.04358 0.05100
C 	C 	0.88456 0.88921 0.03958 -0.11300
H 	H 	0.79653 0.85274 0.02507 0.04100
H 	H 	0.74261 0.79669 0.02882 0.04200
H 	H 	0.79427 0.74624 0.07576 0.04000
H 	H 	0.84831 0.80225 0.07171 0.03700
H 	H 	0.70259 0.75559 0.07271 0.04000
H 	H 	0.64875 0.69937 0.06866 0.03700
H 	H 	0.70287 0.64603 0.02830 0.04100
H 	H 	0.75661 0.70228 0.03204 0.04100
C 	C 	0.33256 0.32303 0.95159 -0.01000
C 	C 	0.32731 0.29041 0.93857 -0.03000
C 	C 	0.29458 0.26146 0.93775 -0.04400
C 	C 	0.26692 0.26497 0.94999 0.00900
C 	C 	0.27225 0.29775 0.96290 -0.04400
C 	C 	0.30494 0.32667 0.96366 -0.03000
C 	C 	0.23259 0.23404 0.94994 0.00900
C 	C 	0.22736 0.20094 0.96230 -0.04400
C 	C 	0.19464 0.17208 0.96311 -0.03000
C 	C 	0.16688 0.17611 0.95166 -0.01000
C 	C 	0.17204 0.20901 0.93914 -0.03000
C 	C 	0.20480 0.23790 0.93825 -0.04400
C 	C 	0.13317 0.14635 0.95280 0.05000
C 	C 	0.10545 0.12071 0.95423 -0.11100
C 	C 	0.36619 0.35293 0.95253 0.05000
C 	C 	0.39384 0.37871 0.95385 -0.11100
H 	H 	0.34852 0.28745 0.92913 0.03700
H 	H 	0.29072 0.23632 0.92765 0.04000
H 	H 	0.25114 0.30069 0.97254 0.04100
H 	H 	0.30881 0.35187 0.97369 0.03900
H 	H 	0.24858 0.19773 0.97149 0.04100
H 	H 	0.19084 0.14666 0.97275 0.04000
H 	H 	0.15072 0.21227 0.93015 0.03700
H 	H 	0.20857 0.26328 0.92857 0.04000
C 	C 	0.66852 0.01694 0.00144 -0.01000
C 	C 	0.67257 0.98503 0.99636 -0.03100
C 	C 	0.70516 0.98581 0.99680 -0.04400
C 	C 	0.73393 0.01857 0.00229 0.00800
C 	C 	0.72975 0.05030 0.00805 -0.04400
C 	C 	0.69712 0.04947 0.00761 -0.03100
C 	C 	0.76844 0.01978 0.00145 0.01000
C 	C 	0.78129 0.01279 0.97735 -0.04500
C 	C 	0.81322 0.01192 0.97687 -0.03100
C 	C 	0.83249 0.01806 0.00044 -0.00900
C 	C 	0.82011 0.02601 0.02437 -0.03000
C 	C 	0.78818 0.02688 0.02488 -0.04400
C 	C 	0.86363 0.01340 0.00057 0.05000
C 	C 	0.88975 0.00960 0.00103 -0.11200
C 	C 	0.63550 0.01696 0.99818 0.04800
C 	C 	0.60780 0.01682 0.99542 -0.11500
H 	H 	0.65057 0.95978 0.99158 0.03800
H 	H 	0.70812 0.96110 0.99259 0.04000
H 	H 	0.75180 0.07568 0.01240 0.04100
H 	H 	0.69417 0.07427 0.01152 0.04000
H 	H 	0.76636 0.00761 0.95911 0.04000
H 	H 	0.82266 0.00579 0.95829 0.03800
H 	H 	0.83489 0.03078 0.04267 0.03800
H 	H 	0.77851 0.03239 0.04356 0.04000
C 	C 	0.33389 0.02092 0.99618 -0.01200
C 	C 	0.31273 0.01070 0.97352 -0.03000
C 	C 	0.28108 0.01222 0.97403 -0.04400
C 	C 	0.27041 0.02397 0.99725 0.00800
C 	C 	0.29198 0.03500 0.01970 -0.04300
C 	C 	0.32363 0.03349 0.01915 -0.02900
C 	C 	0.23627 0.02369 0.99829 0.00700
C 	C 	0.22847 0.04680 0.98145 -0.04400
C 	C 	0.19563 0.04536 0.98159 -0.02900
C 	C 	0.17037 0.02077 0.99849 -0.01400
C 	C 	0.17826 0.99809 0.01564 -0.02800
C 	C 	0.21113 0.99955 0.01557 -0.04200
C 	C 	0.13609 0.01789 0.99742 0.05000
C 	C 	0.10768 0.01624 0.99596 -0.11600
C 	C 	0.36484 0.01590 0.99662 0.05000
C 	C 	0.39082 0.01184 0.99729 -0.11100
H 	H 	0.32048 0.00090 0.95571 0.03800
H 	H 	0.26459 0.00368 0.95659 0.04000
H 	H 	0.28406 0.04435 0.03764 0.04000
H 	H 	0.33988 0.04144 0.03674 0.03800
H 	H 	0.24777 0.06565 0.96816 0.04000
H 	H 	0.18972 0.06306 0.96834 0.03800
H 	H 	0.15886 0.97905 0.02879 0.03600
H 	H 	0.21692 0.98160 0.02863 0.04000
C 	C 	0.99687 0.83592 0.93738 -0.01100
C 	C 	0.02405 0.83140 0.94939 -0.03000
C 	C 	0.02583 0.79785 0.94768 -0.04400
C 	C 	0.00041 0.76859 0.93389 0.00900
C 	C 	0.97373 0.77349 0.92121 -0.04400
C 	C 	0.97196 0.80707 0.92298 -0.02900
C 	C 	0.00064 0.73232 0.93414 0.00900
C 	C 	0.02839 0.72767 0.92319 -0.04400
C 	C 	0.02993 0.69403 0.92546 -0.02900
C 	C 	0.00375 0.66486 0.93861 -0.01100
C 	C 	0.97558 0.66914 0.94891 -0.03000
C 	C 	0.97402 0.70277 0.94670 -0.04400
C 	C 	0.00664 0.63116 0.94275 0.05200
C 	C 	0.00907 0.60295 0.94621 -0.11400
C 	C 	0.99356 0.86946 0.94109 0.05200
C 	C 	0.99111 0.89769 0.94436 -0.11400
H 	H 	0.04343 0.85364 0.96050 0.03800
H 	H 	0.04649 0.79432 0.95757 0.04100
H 	H 	0.95411 0.75114 0.91037 0.04100
H 	H 	0.95094 0.81043 0.91355 0.04000
H 	H 	0.04895 0.75025 0.91331 0.04100
H 	H 	0.05173 0.69085 0.91736 0.04000
H 	H 	0.95521 0.64665 0.95904 0.03800
H 	H 	0.95253 0.70610 0.95525 0.04100
C 	C 	0.00116 0.33672 0.08135 -0.01300
C 	C 	0.97524 0.31011 0.09662 -0.02900
C 	C 	0.97621 0.27663 0.10184 -0.04500
C 	C 	0.00295 0.26949 0.09154 0.00900
C 	C 	0.03010 0.29726 0.07795 -0.04400
C 	C 	0.02922 0.33075 0.07296 -0.02800
C 	C 	0.00012 0.23181 0.09144 0.00900
C 	C 	0.97190 0.20374 0.07910 -0.04400
C 	C 	0.97236 0.17012 0.07376 -0.02800
C 	C 	0.00105 0.16433 0.08055 -0.01300
C 	C 	0.02817 0.19130 0.09462 -0.02900
C 	C 	0.02764 0.22490 0.10019 -0.04500
C 	C 	0.00455 0.13313 0.06983 0.05600
C 	C 	0.00624 0.10660 0.06035 -0.11900
C 	C 	0.99679 0.36767 0.07110 0.05600
C 	C 	0.99442 0.39400 0.06192 -0.12000
H 	H 	0.95364 0.31469 0.10346 0.03800
H 	H 	0.95542 0.25567 0.11279 0.04000
H 	H 	0.05097 0.29220 0.07001 0.04200
H 	H 	0.04954 0.35137 0.06138 0.04000
H 	H 	0.95043 0.20862 0.07237 0.04100
H 	H 	0.95113 0.14924 0.06313 0.03900
H 	H 	0.05028 0.18687 0.10022 0.03800
H 	H 	0.04929 0.24611 0.11018 0.04000
