data_crystal

_cell_length_a 24.73202
_cell_length_b 22.18797
_cell_length_c 43.65424
_cell_angle_alpha 90.60241
_cell_angle_beta  90.69976
_cell_angle_gamma 113.16694

_symmetry_space_group_name_	'P 1'
_symmetry_space_group_name_H-M	'P 1'

loop_
_symmetry_equiv_pos_as_xyz
  x,y,z

loop_
_atom_site_label
_atom_site_type_symbol
_atom_site_fract_x
_atom_site_fract_y
_atom_site_fract_z
_atom_site_charge
Ni	Ni	0.71971 0.34800 0.89114 1.10000
O 	O 	0.64216 0.29837 0.86830 -0.70500
Ni	Ni	0.58654 0.32174 0.89377 1.10200
O 	O 	0.76307 0.31394 0.86032 -0.38000
O 	O 	0.70333 0.20716 0.86998 -0.41700
O 	O 	0.72669 0.42235 0.86196 -0.40200
Ni	Ni	0.61758 0.20408 0.86770 1.06200
O 	O 	0.75951 0.43597 0.95438 -0.42200
O 	O 	0.61624 0.19794 0.91433 -0.42000
O 	O 	0.51538 0.27928 0.86577 -0.38500
O 	O 	0.66174 0.35864 0.92010 -0.70200
O 	O 	0.79878 0.40477 0.91218 -0.38100
O 	O 	0.54366 0.36963 0.91771 -0.37300
O 	O 	0.62281 0.46619 0.91342 -0.41700
Ni	Ni	0.69270 0.45061 0.93317 1.07600
H 	H 	0.64243 0.31423 0.84717 0.15300
H 	H 	0.65865 0.33090 0.93814 0.15800
C 	C 	0.57206 0.20048 0.92972 0.30300
O 	O 	0.74910 0.50104 0.89959 -0.40700
C 	C 	0.74898 0.25071 0.85595 0.29300
C 	C 	0.50406 0.22082 0.85346 0.29500
C 	C 	0.74337 0.48400 0.87043 0.32300
C 	C 	0.56931 0.43312 0.92314 0.29000
C 	C 	0.80497 0.43430 0.93936 0.30500
O 	O 	0.54945 0.24347 0.92281 -0.37000
O 	O 	0.52864 0.18212 0.86501 -0.41800
Ni	Ni	0.58581 0.31595 0.60837 1.10100
O 	O 	0.65879 0.34255 0.58153 -0.70100
Ni	Ni	0.71993 0.34388 0.61218 1.09900
O 	O 	0.53847 0.34799 0.57837 -0.37300
O 	O 	0.61532 0.44683 0.57624 -0.41600
O 	O 	0.54987 0.22523 0.58689 -0.37200
Ni	Ni	0.68618 0.42739 0.56146 1.07400
O 	O 	0.53097 0.18851 0.64541 -0.41200
O 	O 	0.74293 0.49695 0.59123 -0.40600
O 	O 	0.79680 0.38759 0.58786 -0.38500
O 	O 	0.64502 0.30665 0.63728 -0.70400
O 	O 	0.51708 0.28408 0.63737 -0.38700
O 	O 	0.76684 0.32652 0.64751 -0.38200
O 	O 	0.70663 0.21711 0.64799 -0.41600
Ni	Ni	0.62082 0.21394 0.64569 1.06200
H 	H 	0.65491 0.30856 0.56587 0.15300
H 	H 	0.64763 0.33191 0.65647 0.15600
C 	C 	0.75574 0.48761 0.61968 0.32700
O 	O 	0.62053 0.18858 0.60076 -0.42100
C 	C 	0.56176 0.40773 0.56769 0.29000
C 	C 	0.80151 0.41650 0.56089 0.30000
C 	C 	0.57942 0.18840 0.58148 0.29900
C 	C 	0.75360 0.26732 0.65840 0.29500
C 	C 	0.50375 0.22825 0.65192 0.29400
O 	O 	0.72996 0.43080 0.63266 -0.41100
O 	O 	0.75443 0.41027 0.54433 -0.42300
C 	C 	0.03381 0.98314 0.71984 -0.05000
H 	H 	0.03792 0.98748 0.69455 0.04100
C 	C 	0.02270 0.97112 0.78038 -0.05400
H 	H 	0.01843 0.96651 0.80568 0.04100
C 	C 	0.00555 0.02622 0.73506 0.00000
C 	C 	0.99587 0.91382 0.73074 0.00500
C 	C 	0.09200 0.00077 0.73793 0.00500
C 	C 	0.99874 0.01912 0.76636 0.00800
C 	C 	0.98986 0.90768 0.76194 0.00900
C 	C 	0.08585 0.99459 0.76905 0.00500
Ni	Ni	0.24570 0.70638 0.38912 1.10000
O 	O 	0.31468 0.74364 0.35979 -0.70400
Ni	Ni	0.37604 0.72194 0.38134 1.10000
O 	O 	0.19458 0.73728 0.36133 -0.37500
O 	O 	0.26357 0.84295 0.36183 -0.41600
O 	O 	0.22229 0.62401 0.36198 -0.39700
Ni	Ni	0.34533 0.83790 0.35502 1.06200
O 	O 	0.22551 0.63356 0.45536 -0.42300
O 	O 	0.36009 0.85629 0.40087 -0.42000
O 	O 	0.43695 0.75259 0.34801 -0.39200
O 	O 	0.31158 0.69729 0.41339 -0.70200
O 	O 	0.17430 0.66113 0.41712 -0.37400
O 	O 	0.42378 0.67670 0.40309 -0.37900
O 	O 	0.34177 0.58257 0.40637 -0.42700
Ni	Ni	0.28340 0.60984 0.43079 1.06800
H 	H 	0.30563 0.72156 0.33942 0.15200
H 	H 	0.32281 0.72985 0.43043 0.15400
C 	C 	0.40447 0.85006 0.41509 0.30200
O 	O 	0.21663 0.55583 0.40139 -0.41200
C 	C 	0.21272 0.79821 0.35188 0.29200
C 	C 	0.45333 0.81203 0.33665 0.29600
C 	C 	0.21681 0.56643 0.37191 0.31900
C 	C 	0.39878 0.61451 0.41037 0.28500
C 	C 	0.17547 0.63088 0.44316 0.30300
O 	O 	0.42470 0.80636 0.40585 -0.37900
O 	O 	0.43246 0.85464 0.34790 -0.42000
Ni	Ni	0.36357 0.72946 0.11597 1.09700
O 	O 	0.29652 0.71265 0.08516 -0.70900
Ni	Ni	0.24236 0.74061 0.10983 1.09800
O 	O 	0.40817 0.69248 0.08681 -0.36900
O 	O 	0.32833 0.59695 0.07925 -0.41700
O 	O 	0.40906 0.82019 0.09668 -0.37400
Ni	Ni	0.25451 0.61917 0.07564 1.06500
O 	O 	0.43375 0.85189 0.15481 -0.42700
O 	O 	0.23974 0.59365 0.12051 -0.42500
O 	O 	0.18151 0.72573 0.07568 -0.38400
O 	O 	0.30656 0.75093 0.14223 -0.70000
O 	O 	0.42777 0.74738 0.14846 -0.39900
O 	O 	0.20042 0.78742 0.13461 -0.37900
O 	O 	0.27214 0.85820 0.16579 -0.41400
Ni	Ni	0.34814 0.84254 0.15626 1.06300
H 	H 	0.30900 0.73869 0.06634 0.15200
H 	H 	0.29275 0.72055 0.15956 0.15500
C 	C 	0.19957 0.60475 0.13610 0.30900
O 	O 	0.35141 0.87400 0.11249 -0.43300
C 	C 	0.38078 0.63772 0.07105 0.28600
C 	C 	0.16421 0.67132 0.05906 0.29300
C 	C 	0.38828 0.86634 0.09283 0.28700
C 	C 	0.22743 0.84634 0.14657 0.31000
C 	C 	0.45240 0.80540 0.16164 0.30900
O 	O 	0.18600 0.65487 0.12951 -0.37400
O 	O 	0.17297 0.62000 0.06928 -0.41000
C 	C 	0.94641 0.08413 0.21264 -0.05400
H 	H 	0.95143 0.08766 0.18739 0.04100
C 	C 	0.92953 0.07557 0.27287 -0.05000
H 	H 	0.92213 0.07166 0.29799 0.04200
C 	C 	0.97756 0.04571 0.22980 0.01200
C 	C 	0.96886 0.15022 0.22993 0.00500
C 	C 	0.88198 0.05050 0.22233 0.00800
C 	C 	0.96757 0.04020 0.26087 0.00300
C 	C 	0.96094 0.14574 0.26118 0.00600
C 	C 	0.87323 0.04668 0.25329 0.00200
C 	C 	0.04339 0.32900 0.20502 0.03000
C 	C 	0.02340 0.36719 0.18628 -0.05500
C 	C 	0.06369 0.42367 0.17273 -0.03400
C 	C 	0.12441 0.44323 0.17839 0.00000
C 	C 	0.14415 0.40622 0.19804 -0.03600
C 	C 	0.10386 0.34973 0.21152 -0.05200
C 	C 	0.16770 0.49728 0.16087 0.00600
C 	C 	0.16219 0.55488 0.15750 -0.15100
C 	C 	0.00082 0.26757 0.21801 -0.05500
C 	C 	0.00836 0.21106 0.21480 -0.03800
H 	H 	0.97679 0.35214 0.18149 0.04200
H 	H 	0.04784 0.45101 0.15716 0.03900
H 	H 	0.19079 0.42073 0.20253 0.03400
H 	H 	0.11966 0.32170 0.22672 0.04200
H 	H 	0.20455 0.48975 0.15077 0.03400
H 	H 	0.12750 0.56376 0.16929 0.07800
H 	H 	0.96270 0.26832 0.22989 0.04400
H 	H 	0.04335 0.20910 0.20053 0.03700
C 	C 	0.73325 0.93538 0.19600 0.02900
C 	C 	0.69017 0.89157 0.21470 -0.05100
C 	C 	0.63064 0.87631 0.20864 -0.03300
C 	C 	0.61341 0.90225 0.18290 -0.00000
C 	C 	0.65630 0.94431 0.16358 -0.03400
C 	C 	0.71595 0.96024 0.16985 -0.05100
C 	C 	0.55058 0.88626 0.17612 0.00900
C 	C 	0.51118 0.82373 0.17584 -0.15400
C 	C 	0.79607 0.95593 0.20467 -0.05000
C 	C 	0.83632 0.02067 0.20082 -0.04200
H 	H 	0.70292 0.87104 0.23457 0.04200
H 	H 	0.59800 0.84498 0.22413 0.03500
H 	H 	0.64338 0.96410 0.14351 0.03500
H 	H 	0.74839 0.99121 0.15423 0.04000
H 	H 	0.53785 0.92495 0.16790 0.03000
H 	H 	0.52472 0.78485 0.18291 0.07700
H 	H 	0.80829 0.92434 0.21969 0.04300
H 	H 	0.83633 0.04544 0.17954 0.03700
C 	C 	0.09792 0.03844 0.18205 0.02700
C 	C 	0.09656 0.01316 0.15237 -0.05300
C 	C 	0.13795 0.98778 0.14399 -0.03300
C 	C 	0.18062 0.98702 0.16542 0.00100
C 	C 	0.18494 0.01743 0.19418 -0.03600
C 	C 	0.14385 0.04323 0.20244 -0.05200
C 	C 	0.21779 0.95018 0.15881 0.00900
C 	C 	0.19323 0.88760 0.14877 -0.14900
C 	C 	0.04943 0.05617 0.19241 -0.05200
C 	C 	0.01657 0.02496 0.21629 -0.04500
H 	H 	0.06228 0.01104 0.13618 0.04000
H 	H 	0.13576 0.96691 0.12123 0.03600
H 	H 	0.21863 0.01869 0.21057 0.03200
H 	H 	0.14664 0.06523 0.22498 0.03800
H 	H 	0.26422 0.97195 0.16516 0.02600
H 	H 	0.14665 0.86591 0.14270 0.08100
H 	H 	0.04353 0.09713 0.18172 0.03900
H 	H 	0.02600 0.98591 0.22683 0.04500
C 	C 	0.60522 0.92188 0.30902 0.00100
C 	C 	0.62499 0.96287 0.28377 -0.03800
C 	C 	0.68345 0.98310 0.27454 -0.04800
C 	C 	0.72304 0.96342 0.29094 0.02600
C 	C 	0.70317 0.92313 0.31644 -0.05100
C 	C 	0.64469 0.90266 0.32550 -0.03600
C 	C 	0.78332 0.97822 0.27963 -0.05200
C 	C 	0.81522 0.03554 0.26652 -0.03800
C 	C 	0.54361 0.90075 0.31889 0.00500
C 	C 	0.50782 0.83676 0.31866 -0.14900
H 	H 	0.59481 0.97791 0.27090 0.03200
H 	H 	0.69724 0.01194 0.25407 0.04100
H 	H 	0.73295 0.90711 0.32909 0.04000
H 	H 	0.62999 0.87172 0.34529 0.04200
H 	H 	0.80210 0.94170 0.28234 0.04100
H 	H 	0.79838 0.07382 0.26486 0.03800
H 	H 	0.52874 0.93724 0.32802 0.03000
H 	H 	0.52266 0.80130 0.30829 0.07400
C 	C 	0.08613 0.28343 0.30133 0.02900
C 	C 	0.13663 0.28658 0.31740 -0.05300
C 	C 	0.16752 0.34057 0.33647 -0.03500
C 	C 	0.14877 0.39235 0.33908 -0.00100
C 	C 	0.09821 0.38917 0.32291 -0.03300
C 	C 	0.06759 0.33545 0.30379 -0.05200
C 	C 	0.18080 0.44868 0.35968 0.01300
C 	C 	0.19395 0.51028 0.35036 -0.15500
C 	C 	0.05372 0.22651 0.28129 -0.05600
C 	C 	0.99221 0.19692 0.28170 -0.03700
H 	H 	0.15157 0.24691 0.31538 0.03800
H 	H 	0.20618 0.34235 0.34904 0.03300
H 	H 	0.08254 0.42819 0.32528 0.04000
H 	H 	0.02950 0.33426 0.29086 0.04200
H 	H 	0.19376 0.43966 0.38249 0.03100
H 	H 	0.18535 0.51908 0.32669 0.07700
H 	H 	0.07814 0.20632 0.26677 0.04200
H 	H 	0.96930 0.20608 0.30112 0.03800
C 	C 	0.04433 0.94339 0.30095 0.02500
C 	C 	0.02889 0.89127 0.32144 -0.05300
C 	C 	0.07191 0.87131 0.33325 -0.03400
C 	C 	0.13065 0.90249 0.32414 0.00100
C 	C 	0.14618 0.95493 0.30387 -0.03700
C 	C 	0.10322 0.97488 0.29206 -0.04800
C 	C 	0.17665 0.88266 0.33696 0.00500
C 	C 	0.16936 0.81930 0.33694 -0.15000
C 	C 	0.99791 0.96060 0.28661 -0.04800
C 	C 	0.00622 0.02339 0.28227 -0.04500
H 	H 	0.98358 0.86626 0.32823 0.04200
H 	H 	0.05965 0.83184 0.34954 0.03900
H 	H 	0.19142 0.97964 0.29690 0.03100
H 	H 	0.11552 0.01408 0.27565 0.03700
H 	H 	0.21742 0.92044 0.34561 0.03100
H 	H 	0.12942 0.78210 0.32711 0.07600
H 	H 	0.95788 0.92153 0.27797 0.04100
H 	H 	0.04377 0.06273 0.29286 0.03900
C 	C 	0.55928 0.13808 0.55677 -0.11300
C 	C 	0.53864 0.15079 0.52810 0.12600
C 	C 	0.51176 0.09892 0.50713 -0.09700
C 	C 	0.50926 0.03602 0.51320 -0.00000
C 	C 	0.53321 0.02412 0.54095 0.05500
C 	C 	0.55728 0.07511 0.56265 -0.02100
N 	N 	0.54671 0.21278 0.52004 -0.20000
H 	H 	0.49441 0.10800 0.48552 0.05500
C 	C 	0.48336 0.98374 0.48973 0.00200
N 	N 	0.53267 0.96385 0.54704 -0.19100
H 	H 	0.57351 0.06538 0.58444 0.03700
C 	C 	0.51809 0.98032 0.46521 -0.10000
C 	C 	0.49330 0.93721 0.44039 0.13000
C 	C 	0.43313 0.89410 0.44109 -0.11900
C 	C 	0.39906 0.89562 0.46629 -0.02200
C 	C 	0.42340 0.94050 0.49054 0.05600
H 	H 	0.56408 0.01338 0.46484 0.05400
N 	N 	0.52684 0.93927 0.41561 -0.20600
H 	H 	0.35314 0.86234 0.46680 0.03100
N 	N 	0.38902 0.94195 0.51442 -0.19200
H 	H 	0.57162 0.96959 0.41589 0.08500
H 	H 	0.50869 0.91326 0.39543 0.10600
H 	H 	0.34470 0.91005 0.51468 0.08000
H 	H 	0.40581 0.97425 0.53299 0.08800
H 	H 	0.55011 0.95549 0.56772 0.07900
H 	H 	0.51535 0.92486 0.53135 0.08500
H 	H 	0.57497 0.25355 0.53250 0.07800
H 	H 	0.52789 0.22095 0.49977 0.08400
C 	C 	0.85954 0.44338 0.54598 -0.11000
C 	C 	0.90832 0.49579 0.55950 0.12500
C 	C 	0.95911 0.52720 0.54224 -0.09900
C 	C 	0.96217 0.50757 0.51192 0.00200
C 	C 	0.91422 0.45427 0.49868 0.05700
C 	C 	0.86389 0.42199 0.51607 -0.02300
N 	N 	0.90682 0.51641 0.58882 -0.20600
H 	H 	0.99641 0.56725 0.55246 0.05600
C 	C 	0.01726 0.54079 0.49482 -0.00200
N 	N 	0.91577 0.43451 0.46920 -0.19200
H 	H 	0.82705 0.38134 0.50588 0.04100
C 	C 	0.05818 0.51169 0.49359 -0.09700
C 	C 	0.10794 0.53765 0.47517 0.12300
C 	C 	0.12011 0.59797 0.46010 -0.10700
C 	C 	0.07975 0.62805 0.46199 -0.02300
C 	C 	0.02794 0.59955 0.47885 0.05700
H 	H 	0.04962 0.46653 0.50572 0.05500
N 	N 	0.14206 0.50296 0.47095 -0.20200
H 	H 	0.08875 0.67394 0.45044 0.04500
N 	N 	0.98875 0.62870 0.47951 -0.19100
H 	H 	0.13534 0.46139 0.48393 0.07700
H 	H 	0.17205 0.51344 0.45324 0.07300
H 	H 	0.99711 0.67212 0.46771 0.08200
H 	H 	0.94960 0.60858 0.49152 0.08600
H 	H 	0.88049 0.39449 0.45979 0.08100
H 	H 	0.95129 0.45917 0.45515 0.08900
H 	H 	0.87156 0.49234 0.60299 0.10100
H 	H 	0.94222 0.55658 0.59805 0.08500
C 	C 	0.43276 0.58358 0.42736 -0.12100
C 	C 	0.42120 0.51631 0.42291 0.12300
C 	C 	0.44076 0.48367 0.44501 -0.10200
C 	C 	0.47524 0.51815 0.47016 -0.00100
C 	C 	0.49321 0.58705 0.47242 0.05600
C 	C 	0.47092 0.61898 0.45124 -0.03000
N 	N 	0.39308 0.48351 0.39708 -0.20400
H 	H 	0.42939 0.43138 0.44256 0.05400
C 	C 	0.49152 0.48149 0.49419 -0.00100
N 	N 	0.53141 0.62262 0.49489 -0.19200
H 	H 	0.48158 0.67106 0.45404 0.04200
C 	C 	0.53695 0.46032 0.48863 -0.09400
C 	C 	0.55734 0.43093 0.51184 0.10900
C 	C 	0.53360 0.42563 0.54152 -0.11300
C 	C 	0.48586 0.44319 0.54661 -0.02100
C 	C 	0.46375 0.47006 0.52300 0.05700
H 	H 	0.55677 0.46713 0.46623 0.05200
N 	N 	0.59895 0.40705 0.50542 -0.20500
H 	H 	0.46660 0.43716 0.56914 0.04000
N 	N 	0.41618 0.48487 0.52812 -0.19100
H 	H 	0.61784 0.41339 0.48378 0.07000
H 	H 	0.61102 0.37954 0.52129 0.02000
H 	H 	0.39709 0.47807 0.54973 0.07900
H 	H 	0.39665 0.50139 0.51060 0.07900
H 	H 	0.54297 0.67317 0.49692 0.08000
H 	H 	0.55133 0.60099 0.50994 0.08600
H 	H 	0.38515 0.50832 0.37849 0.09200
H 	H 	0.38203 0.43312 0.39465 0.08000
C 	C 	0.92779 0.13821 0.71638 0.02800
C 	C 	0.93513 0.20389 0.72012 -0.05200
C 	C 	0.88950 0.22332 0.71223 -0.03400
C 	C 	0.83665 0.17763 0.69938 0.00100
C 	C 	0.82874 0.11170 0.69632 -0.03500
C 	C 	0.87374 0.09189 0.70501 -0.05000
C 	C 	0.78882 0.19792 0.68946 0.00700
C 	C 	0.80059 0.25405 0.67430 -0.14900
C 	C 	0.97437 0.11734 0.72781 -0.05100
C 	C 	0.97841 0.05937 0.71720 -0.03800
H 	H 	0.97581 0.23968 0.72976 0.03800
H 	H 	0.89505 0.27364 0.71639 0.03600
H 	H 	0.78764 0.07573 0.68720 0.03300
H 	H 	0.86603 0.04041 0.70346 0.04000
H 	H 	0.74346 0.16347 0.69178 0.02000
H 	H 	0.84577 0.28885 0.67201 0.07800
H 	H 	0.00472 0.14657 0.74564 0.04100
H 	H 	0.96390 0.04206 0.69396 0.03700
C 	C 	0.22580 0.07281 0.68787 0.02800
C 	C 	0.25567 0.13879 0.68016 -0.05300
C 	C 	0.31467 0.16223 0.67159 -0.03400
C 	C 	0.34465 0.11990 0.67089 0.00100
C 	C 	0.31441 0.05364 0.67807 -0.03600
C 	C 	0.25527 0.03010 0.68639 -0.05300
C 	C 	0.40552 0.14268 0.65925 0.00800
C 	C 	0.44702 0.20130 0.66774 -0.14500
C 	C 	0.16367 0.04885 0.69760 -0.05500
C 	C 	0.14541 0.00994 0.72360 -0.04200
H 	H 	0.23322 0.17200 0.68086 0.04000
H 	H 	0.33663 0.21286 0.66489 0.04000
H 	H 	0.33656 0.02018 0.67689 0.03300
H 	H 	0.23228 0.97861 0.69139 0.04100
H 	H 	0.41637 0.11111 0.64342 0.03800
H 	H 	0.43671 0.23248 0.68400 0.06600
H 	H 	0.13486 0.06956 0.68715 0.04100
H 	H 	0.17673 0.99457 0.73536 0.04200
C 	C 	0.87510 0.65126 0.64541 -0.00000
C 	C 	0.89064 0.71562 0.63540 -0.03500
C 	C 	0.92710 0.76842 0.65363 -0.05100
C 	C 	0.94783 0.75722 0.68223 0.02800
C 	C 	0.93501 0.69283 0.69147 -0.05200
C 	C 	0.89922 0.63999 0.67304 -0.03500
C 	C 	0.98220 0.81266 0.70280 -0.05000
C 	C 	0.96352 0.86059 0.70877 -0.03800
C 	C 	0.83551 0.59590 0.62619 0.01100
C 	C 	0.79273 0.54421 0.63870 -0.15600
H 	H 	0.87391 0.72477 0.61365 0.03600
H 	H 	0.93878 0.81798 0.64567 0.04000
H 	H 	0.95198 0.68373 0.71316 0.04100
H 	H 	0.89021 0.59044 0.68022 0.03700
H 	H 	0.02040 0.81166 0.71504 0.04200
H 	H 	0.92447 0.86106 0.69728 0.03700
H 	H 	0.84019 0.59850 0.60145 0.03400
H 	H 	0.78695 0.54228 0.66337 0.07700
C 	C 	0.12189 0.66157 0.03372 -0.11000
C 	C 	0.12696 0.63012 0.00623 0.11300
C 	C 	0.07749 0.60103 0.98697 -0.09400
C 	C 	0.02421 0.60567 0.99413 -0.00300
C 	C 	0.02204 0.64602 0.01898 0.05700
C 	C 	0.07090 0.67310 0.03887 -0.02100
N 	N 	0.17909 0.62769 0.99832 -0.20200
H 	H 	0.07982 0.57271 0.96700 0.05300
C 	C 	0.96962 0.56017 0.97891 0.00400
N 	N 	0.97303 0.65806 0.02404 -0.19100
H 	H 	0.06806 0.70010 0.05921 0.04900
C 	C 	0.93496 0.50261 0.99393 -0.09800
C 	C 	0.88266 0.45811 0.98036 0.12700
C 	C 	0.86434 0.47230 0.95151 -0.11400
C 	C 	0.90039 0.52823 0.93583 -0.02200
C 	C 	0.95267 0.57289 0.94940 0.05600
H 	H 	0.94892 0.49237 0.01622 0.05700
N 	N 	0.85088 0.40139 0.99483 -0.20300
H 	H 	0.88636 0.53854 0.91355 0.04800
N 	N 	0.98553 0.62842 0.93435 -0.19100
H 	H 	0.86380 0.39223 0.01658 0.08200
H 	H 	0.81438 0.36492 0.98425 0.08700
H 	H 	0.97270 0.63713 0.91250 0.08200
H 	H 	0.02360 0.66377 0.94422 0.08400
H 	H 	0.97098 0.68603 0.04307 0.08200
H 	H 	0.93743 0.64178 0.00860 0.08500
H 	H 	0.21764 0.65347 0.01094 0.04500
H 	H 	0.18199 0.60213 0.97858 0.07300
C 	C 	0.41500 0.91732 0.06969 -0.11200
C 	C 	0.47679 0.95337 0.06875 0.12700
C 	C 	0.50053 0.99837 0.04523 -0.09500
C 	C 	0.46380 0.01180 0.02411 -0.00500
C 	C 	0.40196 0.97796 0.02580 0.05900
C 	C 	0.37825 0.93042 0.04839 -0.02900
N 	N 	0.51324 0.94703 0.09093 -0.20500
H 	H 	0.54781 0.02470 0.04397 0.05300
C 	C 	0.49082 0.06068 0.99998 0.00400
N 	N 	0.36519 0.99105 0.00601 -0.19300
H 	H 	0.33100 0.90357 0.04938 0.03100
C 	C 	0.50007 0.03875 0.97109 -0.10000
C 	C 	0.52475 0.08323 0.94747 0.12600
C 	C 	0.54440 0.15162 0.95363 -0.11100
C 	C 	0.53577 0.17356 0.98271 -0.02100
C 	C 	0.50847 0.12874 0.00588 0.05500
H 	H 	0.48632 0.98659 0.96666 0.05600
N 	N 	0.52741 0.05985 0.91883 -0.20100
H 	H 	0.55007 0.22573 0.98731 0.03700
N 	N 	0.49897 0.15134 0.03355 -0.19200
H 	H 	0.51568 0.00967 0.91498 0.07700
H 	H 	0.53770 0.09021 0.89987 0.06900
H 	H 	0.51273 0.20168 0.03778 0.08000
H 	H 	0.47724 0.11942 0.05095 0.08500
H 	H 	0.31967 0.96532 0.00723 0.08000
H 	H 	0.38116 0.02731 0.98954 0.08700
H 	H 	0.49696 0.92254 0.11117 0.10700
H 	H 	0.55885 0.97069 0.08898 0.08400
C 	C 	0.41446 0.61375 0.05008 -0.11100
C 	C 	0.44117 0.64916 0.02367 0.11800
C 	C 	0.46803 0.62144 0.00281 -0.09800
C 	C 	0.46571 0.55788 0.00693 -0.00100
C 	C 	0.43887 0.52248 0.03324 0.05700
C 	C 	0.41498 0.55158 0.05494 -0.02400
N 	N 	0.43985 0.70870 0.01776 -0.20400
H 	H 	0.48928 0.64864 0.98280 0.05400
C 	C 	0.49328 0.52968 0.98409 -0.00000
N 	N 	0.43506 0.46026 0.03757 -0.19200
H 	H 	0.39497 0.52480 0.07528 0.04400
C 	C 	0.54890 0.52995 0.99077 -0.09300
C 	C 	0.57235 0.49435 0.97237 0.11100
C 	C 	0.54274 0.46450 0.94477 -0.11100
C 	C 	0.48799 0.46609 0.93746 -0.02100
C 	C 	0.46241 0.49763 0.95710 0.05700
H 	H 	0.57214 0.55412 0.01157 0.05400
N 	N 	0.62123 0.48582 0.98218 -0.19900
H 	H 	0.46515 0.44267 0.91645 0.04300
N 	N 	0.40829 0.49656 0.95004 -0.19200
H 	H 	0.64508 0.51163 0.00141 0.06900
H 	H 	0.63320 0.44982 0.97244 0.00400
H 	H 	0.38588 0.47264 0.93012 0.08000
H 	H 	0.38784 0.51920 0.96416 0.08300
H 	H 	0.41613 0.43506 0.05736 0.08000
H 	H 	0.44953 0.43572 0.02116 0.08700
H 	H 	0.41694 0.72893 0.03155 0.08400
H 	H 	0.46076 0.73484 0.99854 0.08200
C 	C 	0.91865 0.10374 0.81190 0.02900
C 	C 	0.92035 0.16377 0.80123 -0.05000
C 	C 	0.87452 0.18350 0.80766 -0.03400
C 	C 	0.82815 0.14500 0.82638 0.00000
C 	C 	0.82651 0.08485 0.83702 -0.03500
C 	C 	0.87153 0.06424 0.82977 -0.05200
C 	C 	0.78108 0.16718 0.83496 0.00600
C 	C 	0.79392 0.22994 0.84323 -0.14900
C 	C 	0.96429 0.08054 0.80261 -0.05300
C 	C 	0.95135 0.03133 0.78214 -0.03800
H 	H 	0.95659 0.19451 0.78743 0.04000
H 	H 	0.87497 0.22846 0.79801 0.03600
H 	H 	0.79060 0.05434 0.85110 0.03400
H 	H 	0.86973 0.01755 0.83794 0.04100
H 	H 	0.73637 0.13087 0.83693 0.02200
H 	H 	0.83873 0.26614 0.84164 0.07900
H 	H 	0.00990 0.10952 0.80903 0.04000
H 	H 	0.90600 0.00423 0.77463 0.04100
C 	C 	0.35231 0.10825 0.82512 0.00000
C 	C 	0.30387 0.08403 0.84449 -0.03400
C 	C 	0.24738 0.07144 0.83307 -0.05200
C 	C 	0.23894 0.08209 0.80208 0.02900
C 	C 	0.28704 0.10371 0.78244 -0.05400
C 	C 	0.34345 0.11607 0.79382 -0.03400
C 	C 	0.18010 0.07160 0.79005 -0.05400
C 	C 	0.13645 0.01191 0.79059 -0.04200
C 	C 	0.41234 0.13025 0.83821 0.00800
C 	C 	0.45136 0.19171 0.83378 -0.15100
H 	H 	0.31027 0.07723 0.86860 0.03800
H 	H 	0.21040 0.05456 0.84837 0.04000
H 	H 	0.28068 0.11101 0.75837 0.04300
H 	H 	0.38041 0.13309 0.77851 0.03200
H 	H 	0.17520 0.10948 0.77606 0.04400
H 	H 	0.14007 0.97416 0.80512 0.03800
H 	H 	0.42181 0.09956 0.85492 0.03500
H 	H 	0.44021 0.22359 0.81847 0.07100
C 	C 	0.87209 0.75283 0.79212 0.02900
C 	C 	0.83236 0.69273 0.77993 -0.05300
C 	C 	0.80043 0.64183 0.79946 -0.03400
C 	C 	0.80863 0.65038 0.83142 0.00000
C 	C 	0.84716 0.71109 0.84356 -0.03500
C 	C 	0.87843 0.76218 0.82407 -0.05200
C 	C 	0.77508 0.59717 0.85250 0.01100
C 	C 	0.76889 0.53492 0.84725 -0.15300
C 	C 	0.90377 0.80734 0.77137 -0.05300
C 	C 	0.96333 0.84732 0.77661 -0.04000
H 	H 	0.82606 0.68552 0.75535 0.04100
H 	H 	0.76891 0.59623 0.78977 0.03500
H 	H 	0.85279 0.71876 0.86815 0.03500
H 	H 	0.90686 0.80929 0.83382 0.04000
H 	H 	0.75972 0.61009 0.87384 0.03200
H 	H 	0.78422 0.52171 0.82600 0.07800
H 	H 	0.87965 0.81743 0.75252 0.04300
H 	H 	0.98574 0.83826 0.79650 0.03800
