data_crystal

_cell_length_a 17.97508
_cell_length_b 16.88752
_cell_length_c 49.03475
_cell_angle_alpha 90.71597
_cell_angle_beta  91.01065
_cell_angle_gamma 110.85629

_symmetry_space_group_name_	'P 1'
_symmetry_space_group_name_H-M	'P 1'

loop_
_symmetry_equiv_pos_as_xyz
  x,y,z

loop_
_atom_site_label
_atom_site_type_symbol
_atom_site_fract_x
_atom_site_fract_y
_atom_site_fract_z
_atom_site_charge
O 	O 	0.10966 0.88615 0.76088 -0.70400
Ni	Ni	0.12774 0.99315 0.78273 1.08700
O 	O 	0.16392 0.78675 0.72170 -0.40800
Ni	Ni	0.21423 0.88634 0.75007 1.06300
O 	O 	0.21912 0.98349 0.72482 -0.43800
O 	O 	0.20701 0.97939 0.81075 -0.40000
O 	O 	0.05096 0.00459 0.75340 -0.70100
O 	O 	0.11912 0.09420 0.80446 -0.36100
H 	H 	0.08024 0.83511 0.77128 0.14900
H 	H 	0.07157 0.05953 0.74404 0.15300
C 	C 	0.23532 0.06134 0.73477 0.28100
C 	C 	0.09409 0.77018 0.70943 0.29300
C 	C 	0.27687 0.97998 0.80314 0.25400
C 	C 	0.04835 0.09611 0.80990 0.24700
O 	O 	0.21980 0.07430 0.76051 -0.36600
O 	O 	0.29024 0.97191 0.77706 -0.41300
Ni	Ni	0.33576 0.74389 0.40765 1.09800
O 	O 	0.31517 0.67222 0.37218 -0.69800
Ni	Ni	0.20365 0.66911 0.36285 1.09500
O 	O 	0.43109 0.71548 0.42152 -0.37200
O 	O 	0.41281 0.58699 0.40214 -0.40500
O 	O 	0.41604 0.84686 0.38911 -0.37000
Ni	Ni	0.30744 0.55455 0.37904 1.06400
O 	O 	0.33218 0.92492 0.41642 -0.41300
O 	O 	0.24303 0.55098 0.41315 -0.42000
O 	O 	0.18017 0.58726 0.33020 -0.39000
O 	O 	0.23095 0.74922 0.39592 -0.71100
O 	O 	0.34785 0.81762 0.44145 -0.38400
O 	O 	0.09906 0.68990 0.35547 -0.37400
O 	O 	0.16362 0.83327 0.35486 -0.42300
Ni	Ni	0.24915 0.86664 0.38635 1.06200
H 	H 	0.35296 0.69819 0.35758 0.15300
H 	H 	0.19153 0.73060 0.41054 0.15300
C 	C 	0.17277 0.55876 0.41189 0.26800
O 	O 	0.33354 0.87504 0.35804 -0.41800
C 	C 	0.42779 0.63713 0.42387 0.28500
C 	C 	0.19174 0.51512 0.33236 0.28000
C 	C 	0.40413 0.87432 0.36509 0.27600
C 	C 	0.09694 0.76709 0.35579 0.28500
C 	C 	0.33784 0.89112 0.44032 0.28400
O 	O 	0.14246 0.57200 0.38836 -0.36900
O 	O 	0.20735 0.49063 0.35647 -0.41000
Ni	Ni	0.33424 0.65641 0.13565 1.09600
O 	O 	0.24171 0.62547 0.10727 -0.69600
Ni	Ni	0.17261 0.68447 0.12413 1.09700
O 	O 	0.38577 0.57547 0.12007 -0.36300
O 	O 	0.27317 0.46393 0.10961 -0.40700
O 	O 	0.40723 0.74358 0.10930 -0.37200
Ni	Ni	0.17769 0.50371 0.10387 1.06500
O 	O 	0.44140 0.83405 0.15564 -0.41200
O 	O 	0.15940 0.49626 0.14473 -0.41900
O 	O 	0.08486 0.65283 0.09477 -0.38400
O 	O 	0.26621 0.71704 0.15166 -0.70400
O 	O 	0.42338 0.69604 0.16461 -0.37800
O 	O 	0.12168 0.76239 0.14217 -0.36500
O 	O 	0.23530 0.87845 0.14172 -0.41300
Ni	Ni	0.33014 0.83878 0.14964 1.06100
H 	H 	0.25951 0.64883 0.08911 0.14800
H 	H 	0.25024 0.69915 0.17049 0.15300
C 	C 	0.10390 0.51950 0.15533 0.29300
O 	O 	0.33855 0.83349 0.10852 -0.42400
C 	C 	0.34545 0.51282 0.10350 0.28000
C 	C 	0.06190 0.57780 0.08277 0.28900
C 	C 	0.38873 0.80355 0.09731 0.28800
C 	C 	0.16368 0.83947 0.15084 0.27100
C 	C 	0.45802 0.77750 0.17048 0.27600
O 	O 	0.09831 0.59315 0.14930 -0.36800
O 	O 	0.06965 0.51309 0.09565 -0.41700
O 	O 	0.01687 0.20375 0.24396 -0.37900
O 	O 	0.07024 0.07136 0.23710 -0.40800
O 	O 	0.97557 0.06905 0.20473 -0.35800
Ni	Ni	0.01490 0.03457 0.27333 1.06400
O 	O 	0.03388 0.15530 0.28601 -0.42000
C 	C 	0.04689 0.21764 0.26895 0.28400
C 	C 	0.03406 0.04482 0.21316 0.28000
C 	C 	0.99033 0.38186 0.15450 0.03100
C 	C 	0.03711 0.45546 0.16893 -0.08500
C 	C 	0.02092 0.46634 0.19636 -0.01700
C 	C 	0.91892 0.32501 0.19571 -0.06200
C 	C 	0.93115 0.31742 0.16772 -0.01700
H 	H 	0.00101 0.37370 0.13315 0.01300
H 	H 	0.05562 0.52371 0.20755 0.03200
H 	H 	0.89742 0.25968 0.15652 0.05000
C 	C 	0.13135 0.97014 0.15625 -0.03900
C 	C 	0.12358 0.88889 0.16513 -0.06000
C 	C 	0.08152 0.85724 0.18879 -0.03000
C 	C 	0.05073 0.90790 0.20419 -0.00200
C 	C 	0.06063 0.98995 0.19578 -0.11000
C 	C 	0.09951 0.02035 0.17148 0.03000
H 	H 	0.16281 0.99465 0.13776 0.04400
H 	H 	0.07493 0.79445 0.19570 0.03300
H 	H 	0.02014 0.88389 0.22288 -0.00400
H 	H 	0.10684 0.08354 0.16479 0.03200
C 	C 	0.16948 0.32200 0.28982 -0.01200
C 	C 	0.09315 0.30408 0.27834 -0.06500
C 	C 	0.05616 0.36423 0.28050 -0.03300
C 	C 	0.09194 0.43806 0.29630 -0.00200
C 	C 	0.16478 0.45174 0.31008 -0.07600
C 	C 	0.20524 0.39564 0.30559 -0.01200
H 	H 	0.19912 0.27653 0.28780 0.03000
H 	H 	0.99721 0.35090 0.27167 0.03800
H 	H 	0.06057 0.48154 0.29930 0.03700
H 	H 	0.26242 0.40671 0.31558 0.01300
C 	C 	0.98382 0.75509 0.32401 0.04500
C 	C 	0.02128 0.77911 0.34971 -0.12600
C 	C 	0.99592 0.83049 0.36712 0.03900
C 	C 	0.94289 0.86794 0.35736 -0.03700
C 	C 	0.91755 0.85668 0.32988 -0.04900
C 	C 	0.93113 0.79313 0.31424 -0.05000
H 	H 	0.00080 0.71302 0.31070 0.01300
H 	H 	0.02216 0.84693 0.38743 -0.00900
H 	H 	0.90905 0.78101 0.29332 0.03100
C 	C 	0.35819 0.94570 0.46491 -0.10000
C 	C 	0.37940 0.95198 0.51407 -0.02200
C 	C 	0.33981 0.90858 0.49048 -0.00200
C 	C 	0.37278 0.90861 0.53863 -0.02300
C 	C 	0.41942 0.94796 0.56136 -0.07000
H 	H 	0.29951 0.84329 0.49173 0.03000
H 	H 	0.33367 0.84293 0.53979 0.03200
H 	H 	0.41587 0.91229 0.57982 0.04100
C 	C 	0.89141 0.37150 0.48546 -0.05400
C 	C 	0.93342 0.39201 0.46131 -0.01400
C 	C 	0.00922 0.45560 0.46125 -0.01800
C 	C 	0.04395 0.49894 0.48589 0.01400
C 	C 	0.11471 0.57073 0.48470 -0.05900
C 	C 	0.15551 0.59106 0.46030 0.00100
C 	C 	0.12451 0.54345 0.43644 -0.08200
C 	C 	0.05034 0.47741 0.43672 -0.00700
H 	H 	0.83197 0.32392 0.48493 0.04200
H 	H 	0.90623 0.35941 0.44247 0.03700
H 	H 	0.13657 0.61298 0.50213 0.03900
H 	H 	0.21127 0.64443 0.45990 0.01200
H 	H 	0.02547 0.44204 0.41804 0.03900
C 	C 	0.62977 0.70189 0.53068 -0.04300
C 	C 	0.60513 0.72029 0.50519 -0.04100
C 	C 	0.54525 0.65796 0.49000 0.00800
C 	C 	0.50974 0.57546 0.50043 0.00400
C 	C 	0.45878 0.51058 0.48305 -0.05300
C 	C 	0.43450 0.53037 0.45759 0.00100
C 	C 	0.46326 0.61406 0.44853 -0.07300
C 	C 	0.52091 0.67707 0.46433 -0.01600
H 	H 	0.67739 0.75041 0.54182 0.03600
H 	H 	0.63348 0.78304 0.49705 0.04000
H 	H 	0.44031 0.44476 0.48859 0.04000
H 	H 	0.39238 0.48066 0.44505 0.02600
H 	H 	0.54624 0.74103 0.45677 0.05100
C 	C 	0.35042 0.18731 0.67678 -0.00600
C 	C 	0.41892 0.24094 0.69088 -0.06700
C 	C 	0.41748 0.24953 0.71930 -0.01800
C 	C 	0.35324 0.19573 0.73375 -0.01200
C 	C 	0.28996 0.13316 0.71976 -0.06700
C 	C 	0.28651 0.13285 0.69117 -0.01500
H 	H 	0.34987 0.18213 0.65472 0.04600
H 	H 	0.46917 0.29225 0.73038 0.02600
H 	H 	0.35567 0.19842 0.75585 0.04600
H 	H 	0.23660 0.08717 0.68010 0.03900
C 	C 	0.02012 0.56413 0.05606 -0.11100
C 	C 	0.97388 0.61254 0.04879 0.03900
C 	C 	0.00370 0.50483 0.00995 -0.03200
C 	C 	0.03398 0.50958 0.03672 0.00100
C 	C 	0.02667 0.45888 0.98990 -0.02200
C 	C 	0.00152 0.45846 0.96287 -0.07700
H 	H 	0.96452 0.65646 0.06344 0.03900
H 	H 	0.07177 0.47409 0.04213 0.00400
H 	H 	0.06604 0.42516 0.99514 0.02500
H 	H 	0.02190 0.42457 0.94753 0.03700
C 	C 	0.43833 0.85099 0.07519 -0.08000
C 	C 	0.43877 0.81115 0.05003 0.00800
C 	C 	0.47919 0.85835 0.02805 -0.06000
C 	C 	0.52296 0.94632 0.03137 0.01600
C 	C 	0.52131 0.98625 0.05688 -0.01700
C 	C 	0.48069 0.93797 0.07870 -0.00300
C 	C 	0.56346 0.99704 0.00930 -0.00900
C 	C 	0.57782 0.96097 0.98470 -0.07600
C 	C 	0.60755 0.01215 0.96227 0.04000
H 	H 	0.40495 0.74412 0.04711 0.02000
H 	H 	0.47202 0.82714 0.00832 0.04000
H 	H 	0.48002 0.96859 0.09825 0.02700
H 	H 	0.56970 0.89455 0.98313 0.04300
H 	H 	0.61557 0.98298 0.94329 0.00900
C 	C 	0.34168 0.33572 0.02272 -0.04200
C 	C 	0.37773 0.41145 0.03771 0.00500
C 	C 	0.44059 0.47898 0.02635 0.00400
C 	C 	0.46682 0.55907 0.03972 -0.05300
C 	C 	0.43814 0.56866 0.06533 -0.00100
C 	C 	0.37998 0.50001 0.07749 -0.08600
C 	C 	0.34960 0.42158 0.06356 -0.02400
H 	H 	0.29243 0.28457 0.03108 0.03600
H 	H 	0.50537 0.61501 0.02977 0.04000
H 	H 	0.45892 0.63064 0.07525 0.04400
H 	H 	0.30315 0.36896 0.07259 0.03500
H 	H 	0.02782 0.10810 0.86428 0.04100
C 	C 	0.48454 0.04082 0.83320 0.02900
C 	C 	0.48764 0.10788 0.85099 -0.08800
C 	C 	0.41880 0.12748 0.85475 0.00500
C 	C 	0.34836 0.08213 0.84037 -0.03400
C 	C 	0.34601 0.01701 0.82187 -0.01200
C 	C 	0.41408 0.99563 0.81875 -0.07700
H 	H 	0.53661 0.02369 0.83052 0.02800
H 	H 	0.42022 0.17891 0.86843 0.03400
H 	H 	0.29653 0.09986 0.84283 0.05500
H 	H 	0.41288 0.94512 0.80471 0.03400
Ni	Ni	0.64632 0.29707 0.90647 1.09600
O 	O 	0.65460 0.35970 0.87071 -0.70400
Ni	Ni	0.75781 0.35623 0.85627 1.09700
O 	O 	0.55721 0.33457 0.92042 -0.38300
O 	O 	0.63001 0.47456 0.91530 -0.42000
O 	O 	0.55800 0.19155 0.88992 -0.37200
Ni	Ni	0.65624 0.47657 0.87393 1.06400
O 	O 	0.64561 0.11561 0.91561 -0.40600
O 	O 	0.77149 0.54147 0.88621 -0.39300
O 	O 	0.77083 0.43316 0.82323 -0.37800
O 	O 	0.74495 0.28645 0.89114 -0.70400
O 	O 	0.64387 0.23022 0.94088 -0.38500
O 	O 	0.85424 0.32794 0.84408 -0.36800
O 	O 	0.79631 0.18640 0.85119 -0.41000
Ni	Ni	0.72172 0.16549 0.88433 1.06500
H 	H 	0.61071 0.32774 0.85791 0.14900
H 	H 	0.79050 0.31017 0.90417 0.15100
C 	C 	0.81756 0.50158 0.89481 0.26800
O 	O 	0.63013 0.15389 0.85775 -0.41900
C 	C 	0.57094 0.41436 0.92664 0.27100
C 	C 	0.75116 0.50167 0.82336 0.28700
C 	C 	0.56200 0.15611 0.86619 0.28600
C 	C 	0.86076 0.25448 0.84924 0.27800
C 	C 	0.64683 0.15322 0.93963 0.28100
O 	O 	0.83894 0.45431 0.87768 -0.37800
O 	O 	0.68324 0.49989 0.83396 -0.41800
Ni	Ni	0.61868 0.37082 0.64126 1.09600
O 	O 	0.70313 0.38968 0.61213 -0.70400
Ni	Ni	0.76921 0.32753 0.62790 1.10000
O 	O 	0.56255 0.43707 0.61943 -0.36700
O 	O 	0.67786 0.55012 0.61550 -0.41000
O 	O 	0.55244 0.26294 0.61946 -0.36800
Ni	Ni	0.77117 0.50778 0.60812 1.06600
O 	O 	0.51692 0.20401 0.66714 -0.40900
O 	O 	0.80380 0.52077 0.64851 -0.41600
O 	O 	0.84086 0.34252 0.59507 -0.36900
O 	O 	0.69384 0.32266 0.65979 -0.69700
O 	O 	0.53218 0.34361 0.67002 -0.38600
O 	O 	0.81603 0.23790 0.64072 -0.36200
O 	O 	0.73464 0.18450 0.67637 -0.41500
Ni	Ni	0.63045 0.20540 0.66821 1.06800
H 	H 	0.68019 0.36499 0.59413 0.15200
H 	H 	0.72045 0.35633 0.67618 0.16100
C 	C 	0.85821 0.49218 0.65778 0.28900
O 	O 	0.62301 0.17561 0.62767 -0.42400
C 	C 	0.60486 0.50615 0.60671 0.27300
C 	C 	0.87063 0.41756 0.58376 0.27600
C 	C 	0.58155 0.20556 0.61088 0.26200
C 	C 	0.78139 0.17530 0.65739 0.29600
C 	C 	0.49591 0.26484 0.67748 0.28100
O 	O 	0.86161 0.42037 0.64824 -0.36600
O 	O 	0.87177 0.48647 0.59719 -0.40800
Ni	Ni	0.04648 0.90948 0.72834 1.09300
O 	O 	0.07239 0.83189 0.70103 -0.38200
O 	O 	0.94580 0.81068 0.73969 -0.36800
O 	O 	0.88552 0.93649 0.73003 -0.40400
O 	O 	0.97963 0.93788 0.69887 -0.36300
O 	O 	0.98420 0.02845 0.80547 -0.38700
Ni	Ni	0.94367 0.98255 0.76639 1.06100
O 	O 	0.92890 0.86581 0.78087 -0.41700
C 	C 	0.91979 0.80039 0.76481 0.28500
C 	C 	0.91884 0.95908 0.70608 0.24400
Ni	Ni	0.91325 0.10536 0.23326 1.10800
O 	O 	0.85638 0.13776 0.26537 -0.69800
Ni	Ni	0.83211 0.03075 0.28645 1.10100
O 	O 	0.88553 0.17744 0.20455 -0.37200
O 	O 	0.81782 0.24781 0.22752 -0.40000
Ni	Ni	0.75631 0.14759 0.25320 1.06700
O 	O 	0.74703 0.04889 0.22721 -0.41400
O 	O 	0.75309 0.04998 0.31255 -0.39300
O 	O 	0.90801 0.01345 0.25881 -0.69600
O 	O 	0.83830 0.92992 0.30847 -0.36900
O 	O 	0.97336 0.99624 0.31205 -0.40900
H 	H 	0.88962 0.18812 0.27620 0.16200
H 	H 	0.88603 0.95733 0.24947 0.15100
C 	C 	0.72372 0.97007 0.23604 0.25100
C 	C 	0.87539 0.24813 0.21105 0.29400
C 	C 	0.68362 0.04939 0.30349 0.28400
C 	C 	0.90917 0.92904 0.31568 0.26000
O 	O 	0.73900 0.95362 0.26165 -0.37200
O 	O 	0.67330 0.06472 0.27755 -0.40800
C 	C 	0.96187 0.40127 0.20972 0.00200
H 	H 	0.95219 0.40867 0.23118 0.03200
C 	C 	0.60393 0.85443 0.17479 -0.00500
C 	C 	0.53223 0.80620 0.18694 -0.06700
C 	C 	0.52940 0.79964 0.21540 -0.01700
C 	C 	0.59523 0.84771 0.23166 -0.01700
C 	C 	0.66424 0.90281 0.21949 -0.05800
C 	C 	0.66962 0.90262 0.19099 -0.02000
H 	H 	0.60723 0.85848 0.15277 0.04500
H 	H 	0.47468 0.76170 0.22498 0.02500
H 	H 	0.59057 0.84641 0.25366 0.04500
H 	H 	0.72318 0.94321 0.18136 0.03800
C 	C 	0.54091 0.89291 0.34995 -0.01400
C 	C 	0.47351 0.91635 0.34793 -0.06400
C 	C 	0.47551 0.98433 0.33132 -0.03700
C 	C 	0.54464 0.02897 0.31723 -0.00000
C 	C 	0.61248 0.00636 0.31972 -0.06000
C 	C 	0.60996 0.93778 0.33607 -0.01800
H 	H 	0.53993 0.84000 0.36240 0.04000
H 	H 	0.42425 0.00363 0.32970 0.04500
H 	H 	0.54553 0.08128 0.30450 0.02400
H 	H 	0.66105 0.91817 0.33764 0.04800
H 	H 	0.92975 0.91397 0.37010 0.04300
C 	C 	0.40941 0.03027 0.46324 0.03000
C 	C 	0.44677 0.07561 0.48672 -0.07000
C 	C 	0.43114 0.03760 0.51256 0.03500
C 	C 	0.46867 0.03348 0.56063 0.03700
C 	C 	0.47096 0.08055 0.53672 -0.01100
C 	C 	0.50887 0.16952 0.53803 -0.04400
C 	C 	0.55004 0.20921 0.56172 -0.00400
C 	C 	0.55186 0.16173 0.58478 -0.06600
C 	C 	0.51210 0.07381 0.58408 -0.02500
H 	H 	0.42488 0.05910 0.44352 0.03400
H 	H 	0.49234 0.13723 0.48436 0.04600
H 	H 	0.50187 0.20874 0.52167 0.03700
H 	H 	0.57724 0.27768 0.56259 0.01800
H 	H 	0.51086 0.03763 0.60231 0.04500
C 	C 	0.91917 0.42721 0.55940 -0.08100
C 	C 	0.99926 0.48069 0.56040 0.04300
C 	C 	0.04251 0.50106 0.53648 -0.07600
C 	C 	0.00457 0.47173 0.51090 -0.01100
C 	C 	0.92617 0.41089 0.51025 0.02700
C 	C 	0.88359 0.38977 0.53451 -0.02400
H 	H 	0.02810 0.50667 0.57978 0.01800
H 	H 	0.10572 0.53656 0.53811 0.04600
H 	H 	0.82225 0.34628 0.53393 0.03100
C 	C 	0.57453 0.52794 0.58065 -0.08300
C 	C 	0.50769 0.46885 0.56724 -0.00100
C 	C 	0.48400 0.48503 0.54125 -0.05400
C 	C 	0.52896 0.55951 0.52766 0.00200
C 	C 	0.59192 0.62234 0.54217 0.00600
C 	C 	0.61516 0.60560 0.56834 -0.02800
H 	H 	0.47396 0.40999 0.57691 0.04300
H 	H 	0.42894 0.44136 0.53244 0.04200
H 	H 	0.66477 0.65295 0.57907 0.03300
C 	C 	0.89911 0.13077 0.66195 0.01000
C 	C 	0.81607 0.10924 0.66130 -0.08600
C 	C 	0.76735 0.02923 0.67031 0.02700
C 	C 	0.80118 0.97652 0.68326 -0.07100
C 	C 	0.88406 0.00246 0.68666 -0.01700
C 	C 	0.93298 0.07730 0.67452 -0.03900
H 	H 	0.93752 0.19148 0.65455 0.04600
H 	H 	0.70312 0.01067 0.66909 0.01800
H 	H 	0.76289 0.91751 0.69179 0.04900
H 	H 	0.99719 0.09697 0.67651 0.04300
C 	C 	0.91822 0.57111 0.70059 -0.00600
C 	C 	0.92667 0.54998 0.67342 -0.07600
C 	C 	0.99884 0.59064 0.66036 0.02800
C 	C 	0.05917 0.65764 0.67354 -0.02800
C 	C 	0.04787 0.68375 0.69991 -0.08300
C 	C 	0.97931 0.63681 0.71395 0.00500
H 	H 	0.86332 0.53889 0.71103 0.03200
H 	H 	0.00640 0.57358 0.63949 0.02200
H 	H 	0.11221 0.69287 0.66258 0.04000
H 	H 	0.97100 0.65513 0.73455 0.03400
C 	C 	0.94186 0.60696 0.02235 -0.07400
C 	C 	0.95345 0.55021 0.00289 0.04000
C 	C 	0.94821 0.49878 0.95569 0.03600
C 	C 	0.92044 0.54153 0.97588 -0.01700
C 	C 	0.85725 0.56956 0.96902 -0.04200
C 	C 	0.82745 0.56151 0.94219 -0.01100
C 	C 	0.85768 0.52255 0.92195 -0.07100
C 	C 	0.91924 0.49290 0.92873 -0.03800
H 	H 	0.91282 0.65066 0.01676 0.04900
H 	H 	0.82737 0.59220 0.98454 0.03800
H 	H 	0.77838 0.58239 0.93744 0.03900
H 	H 	0.94232 0.46192 0.91327 0.04800
C 	C 	0.55660 0.07454 0.05994 -0.01400
C 	C 	0.58967 0.12432 0.03770 -0.05300
C 	C 	0.59201 0.08656 0.01228 0.02800
C 	C 	0.62670 0.10034 0.96431 -0.07900
C 	C 	0.62271 0.13753 0.98975 -0.01900
H 	H 	0.55586 0.10509 0.07945 0.03500
H 	H 	0.61367 0.19270 0.04026 0.04500
H 	H 	0.64222 0.20596 0.99194 0.04700
C 	C 	0.53436 0.43485 0.95118 -0.07300
C 	C 	0.57537 0.50799 0.96688 -0.00100
C 	C 	0.54596 0.52250 0.99186 -0.05300
C 	C 	0.47272 0.46547 0.00114 0.00300
C 	C 	0.43323 0.38984 0.98584 0.00900
C 	C 	0.46259 0.37668 0.96052 -0.02100
C 	C 	0.36740 0.32620 0.99665 -0.04200
H 	H 	0.63224 0.55185 0.96037 0.03400
H 	H 	0.58298 0.57485 0.00460 0.04100
H 	H 	0.43110 0.31971 0.94854 0.04600
H 	H 	0.33751 0.26791 0.98513 0.04000
C 	C 	0.02889 0.23279 0.81028 -0.05500
C 	C 	0.04084 0.16761 0.82507 -0.04800
C 	C 	0.01510 0.15493 0.85203 -0.04200
C 	C 	0.96179 0.19164 0.86150 0.01500
C 	C 	0.93667 0.24339 0.84430 -0.08800
C 	C 	0.97583 0.27000 0.81972 0.02100
H 	H 	0.05218 0.24650 0.78995 0.02800
H 	H 	0.93489 0.17410 0.88118 0.00800
H 	H 	0.95964 0.31315 0.80679 0.03500
C 	C 	0.75163 0.61318 0.79011 -0.01600
C 	C 	0.79355 0.57145 0.80509 -0.06400
C 	C 	0.87684 0.59925 0.80362 -0.01500
C 	C 	0.91812 0.67101 0.78866 -0.00900
C 	C 	0.87648 0.71500 0.77476 -0.07400
C 	C 	0.79300 0.68456 0.77498 -0.00900
H 	H 	0.68724 0.59134 0.79055 0.03500
H 	H 	0.90985 0.56728 0.81491 0.04600
H 	H 	0.98260 0.69421 0.78873 0.01900
H 	H 	0.76031 0.71822 0.76436 0.03100
