data_crystal

_cell_length_a 18.66226
_cell_length_b 18.88774
_cell_length_c 26.54606
_cell_angle_alpha 95.44747
_cell_angle_beta  95.44814
_cell_angle_gamma 126.43846

_symmetry_space_group_name_	'P 1'
_symmetry_space_group_name_H-M	'P 1'

loop_
_symmetry_equiv_pos_as_xyz
  x,y,z

loop_
_atom_site_label
_atom_site_type_symbol
_atom_site_fract_x
_atom_site_fract_y
_atom_site_fract_z
_atom_site_charge
C 	C 	0.95301 0.04680 0.00291 0.08100
C 	C 	0.90162 0.95482 0.00326 -0.07800
C 	C 	0.94240 0.91217 0.00139 0.08300
C 	C 	0.03499 0.96169 0.00072 -0.08700
C 	C 	0.08719 0.05384 0.00148 0.07900
C 	C 	0.04627 0.09669 0.00244 -0.08300
H 	H 	0.82958 0.91612 0.00348 0.08400
H 	H 	0.06648 0.92848 0.99947 0.08500
H 	H 	0.08630 0.16787 0.00215 0.08400
C 	C 	0.90061 0.98813 0.44799 0.06400
C 	C 	0.99335 0.04221 0.44642 -0.05000
C 	C 	0.04070 0.00622 0.44779 0.04700
C 	C 	0.99531 0.91563 0.45010 -0.04300
C 	C 	0.90201 0.86008 0.44999 0.06300
C 	C 	0.85439 0.89643 0.44929 -0.06300
H 	H 	0.02912 0.11284 0.44553 0.06800
H 	H 	0.03246 0.88817 0.45163 0.07600
H 	H 	0.78259 0.85421 0.45043 0.07900
Cu	Cu	0.62288 0.21529 0.01150 0.93500
Cu	Cu	0.67735 0.21244 0.89772 0.89900
Cu	Cu	0.66811 0.35468 0.94402 0.90600
Cu	Cu	0.63583 0.38560 0.04978 0.91400
C 	C 	0.66585 0.28752 0.12018 0.39600
O 	O 	0.49334 0.16567 0.01673 -0.32300
C 	C 	0.63084 0.29288 0.83053 0.38700
O 	O 	0.69951 0.35455 0.01501 -0.63700
O 	O 	0.60193 0.22256 0.93805 -0.63300
O 	O 	0.67569 0.14961 0.00407 -0.34000
O 	O 	0.76773 0.23939 0.95223 -0.40500
O 	O 	0.62795 0.32666 0.10974 -0.34800
O 	O 	0.73999 0.48368 0.95446 -0.34900
C 	C 	0.74226 0.53430 0.99347 0.31400
C 	C 	0.45956 0.20644 0.00198 0.30000
O 	O 	0.51364 0.28828 0.99365 -0.37400
O 	O 	0.68367 0.49911 0.02476 -0.35900
O 	O 	0.66188 0.23126 0.08411 -0.32900
C 	C 	0.74753 0.18201 0.98278 0.31400
O 	O 	0.65314 0.35622 0.86930 -0.34500
O 	O 	0.61611 0.21788 0.83852 -0.37600
H 	H 	0.76551 0.39212 0.02873 0.19400
H 	H 	0.53758 0.18647 0.92081 0.19600
Cu	Cu	0.75125 0.33347 0.44410 0.93500
Cu	Cu	0.73953 0.26451 0.55403 0.88800
Cu	Cu	0.60348 0.28272 0.50682 0.90800
Cu	Cu	0.58391 0.32829 0.40427 0.90800
C 	C 	0.69200 0.30949 0.33543 0.40000
O 	O 	0.80446 0.46450 0.44388 -0.32600
C 	C 	0.65814 0.31203 0.62054 0.39000
O 	O 	0.60976 0.25926 0.43620 -0.63700
O 	O 	0.73709 0.34612 0.51667 -0.63700
O 	O 	0.81101 0.27369 0.45028 -0.33500
O 	O 	0.71106 0.17797 0.49712 -0.41600
O 	O 	0.65316 0.34721 0.34741 -0.36400
O 	O 	0.47322 0.21327 0.49270 -0.34400
C 	C 	0.42531 0.22090 0.45681 0.31500
C 	C 	0.76292 0.49731 0.45958 0.30200
O 	O 	0.67852 0.44235 0.46537 -0.36900
O 	O 	0.46291 0.27475 0.42346 -0.36800
O 	O 	0.74118 0.30326 0.37133 -0.32900
C 	C 	0.77049 0.19783 0.46750 0.31000
O 	O 	0.59483 0.28831 0.58073 -0.33600
O 	O 	0.73262 0.32204 0.61416 -0.38100
H 	H 	0.57129 0.19494 0.42015 0.19400
H 	H 	0.77356 0.40837 0.53616 0.20500
C 	C 	0.56131 0.24532 0.68634 0.27600
C 	C 	0.64084 0.31799 0.67324 -0.19200
C 	C 	0.70957 0.38992 0.71225 0.27900
C 	C 	0.70271 0.38531 0.76408 0.27500
C 	C 	0.62724 0.30845 0.77729 -0.19500
C 	C 	0.55468 0.24046 0.73818 0.27900
F 	F 	0.47932 0.16792 0.75044 -0.38100
F 	F 	0.49297 0.17663 0.64897 -0.38000
F 	F 	0.77213 0.45286 0.80148 -0.38400
F 	F 	0.78476 0.46264 0.69997 -0.37600
C 	C 	0.63399 0.20972 0.19501 0.28400
C 	C 	0.68971 0.28747 0.17457 -0.19000
C 	C 	0.75724 0.36898 0.20803 0.27400
C 	C 	0.76348 0.37450 0.26140 0.28400
C 	C 	0.70207 0.29858 0.28167 -0.19300
C 	C 	0.64013 0.21536 0.24846 0.27900
F 	F 	0.58213 0.14102 0.26780 -0.38500
F 	F 	0.56955 0.13006 0.16308 -0.37100
F 	F 	0.82553 0.45483 0.29334 -0.38100
F 	F 	0.81337 0.44400 0.18873 -0.38700
C 	C 	0.84167 0.73471 0.49823 -0.07000
C 	C 	0.85507 0.76394 0.45094 -0.00200
C 	C 	0.83932 0.70541 0.40675 0.09400
C 	C 	0.81391 0.62014 0.41058 -0.01700
C 	C 	0.80190 0.59141 0.45800 -0.08100
C 	C 	0.81517 0.64891 0.50195 0.13900
Br	Br	0.80112 0.61285 0.56778 -0.17600
H 	H 	0.85478 0.77976 0.53250 0.09200
H 	H 	0.80134 0.57531 0.37635 0.09800
Br	Br	0.85155 0.74071 0.34073 -0.15700
C 	C 	0.82544 0.04819 0.40823 -0.07200
C 	C 	0.85446 0.02990 0.45253 -0.00300
C 	C 	0.85492 0.06636 0.50146 0.08800
C 	C 	0.82952 0.12274 0.50579 -0.01200
C 	C 	0.80282 0.14310 0.46165 -0.09300
C 	C 	0.79931 0.10423 0.41253 0.14300
Br	Br	0.75665 0.12447 0.35092 -0.15300
H 	H 	0.82534 0.02068 0.37047 0.09100
H 	H 	0.83082 0.15108 0.54365 0.05100
Br	Br	0.89279 0.04203 0.56299 -0.19500
C 	C 	0.19822 0.12124 0.49545 -0.07500
C 	C 	0.13899 0.06444 0.44919 0.00400
C 	C 	0.17404 0.06198 0.40497 0.08600
C 	C 	0.26782 0.11410 0.40780 -0.01100
C 	C 	0.32719 0.16927 0.45439 -0.08700
C 	C 	0.29203 0.17419 0.49819 0.14700
Br	Br	0.37063 0.25614 0.56125 -0.15500
H 	H 	0.17123 0.12420 0.52932 0.09100
H 	H 	0.29461 0.11109 0.37385 0.07300
Br	Br	0.09484 0.98876 0.34025 -0.17200
C 	C 	0.78921 0.66297 0.95084 -0.01000
C 	C 	0.79661 0.63106 0.99512 -0.08000
C 	C 	0.85149 0.69192 0.04158 0.13900
C 	C 	0.89601 0.78345 0.04368 -0.06900
C 	C 	0.88812 0.81524 0.99952 -0.00600
C 	C 	0.83501 0.75469 0.95277 0.09500
Br	Br	0.82595 0.79630 0.89095 -0.16800
H 	H 	0.74700 0.61635 0.91502 0.09100
H 	H 	0.93851 0.83024 0.07941 0.09000
Br	Br	0.87079 0.65187 0.10170 -0.17700
C 	C 	0.84642 0.15953 0.03661 -0.00800
C 	C 	0.79891 0.14615 0.98804 -0.09100
C 	C 	0.80508 0.10297 0.94424 0.14800
C 	C 	0.85994 0.07552 0.94925 -0.07300
C 	C 	0.90702 0.08834 0.99777 -0.00100
C 	C 	0.90031 0.13072 0.04167 0.09000
Br	Br	0.96332 0.14880 0.10880 -0.18100
H 	H 	0.84208 0.19290 0.07038 0.08300
H 	H 	0.86360 0.04136 0.91555 0.09700
Br	Br	0.73433 0.07531 0.87779 -0.25300
C 	C 	0.30773 0.14920 0.95613 -0.01400
C 	C 	0.36383 0.16601 0.00195 -0.08700
C 	C 	0.33095 0.15455 0.04849 0.13800
C 	C 	0.24230 0.12506 0.04854 -0.06900
C 	C 	0.18511 0.10504 0.00244 -0.01200
C 	C 	0.21852 0.11832 0.95612 0.09500
Br	Br	0.14244 0.09229 0.89226 -0.18000
H 	H 	0.33342 0.15998 0.92046 0.07400
H 	H 	0.21661 0.11439 0.08421 0.08600
Br	Br	0.40600 0.17931 0.11253 -0.16700
