data_crystal

_cell_length_a 15.14520
_cell_length_b 17.47129
_cell_length_c 57.08299
_cell_angle_alpha 90.61408
_cell_angle_beta  90.60828
_cell_angle_gamma 119.37671

_symmetry_space_group_name_	'P 1'
_symmetry_space_group_name_H-M	'P 1'

loop_
_symmetry_equiv_pos_as_xyz
  x,y,z

loop_
_atom_site_label
_atom_site_type_symbol
_atom_site_fract_x
_atom_site_fract_y
_atom_site_fract_z
_atom_site_charge
C 	C 	0.64863 0.43275 0.71208 0.31600
C 	C 	0.44728 0.09888 0.65922 0.33200
C 	C 	0.48201 0.18529 0.73230 0.31700
C 	C 	0.63282 0.30441 0.64066 0.29800
C 	C 	0.71265 0.12925 0.71692 0.33500
Ni	Ni	0.51166 0.26618 0.68490 1.11700
Ni	Ni	0.66275 0.18153 0.67217 1.12300
Ni	Ni	0.70101 0.29152 0.71997 1.12300
O 	O 	0.58905 0.40044 0.69334 -0.36000
O 	O 	0.65501 0.37994 0.72736 -0.37500
O 	O 	0.66109 0.10087 0.69719 -0.35100
O 	O 	0.41343 0.13900 0.67299 -0.35100
O 	O 	0.51826 0.08377 0.66702 -0.35400
O 	O 	0.82533 0.37623 0.70162 -0.35500
O 	O 	0.46637 0.23990 0.71943 -0.35800
O 	O 	0.57503 0.19837 0.73625 -0.35600
O 	O 	0.81341 0.26395 0.67762 -0.36600
O 	O 	0.54724 0.29282 0.64975 -0.36300
O 	O 	0.65963 0.24252 0.64195 -0.37800
O 	O 	0.76304 0.21325 0.72201 -0.37800
O 	O 	0.62813 0.25491 0.69061 -0.69500
H 	H 	0.67043 0.31030 0.68277 0.12700
C 	C 	0.11864 0.94849 0.77965 0.30500
O 	O 	0.04647 0.96869 0.78126 -0.34100
O 	O 	0.11257 0.88095 0.79103 -0.34600
C 	C 	0.46824 0.76597 0.46964 0.30700
C 	C 	0.45791 0.80577 0.37311 0.29400
C 	C 	0.61876 0.90986 0.43582 0.33700
C 	C 	0.26928 0.59020 0.39383 0.31400
C 	C 	0.32588 0.94419 0.40379 0.30100
C 	C 	0.19730 0.77465 0.44597 0.29600
Ni	Ni	0.46255 0.72878 0.41861 1.11200
Ni	Ni	0.26825 0.75698 0.39852 1.12500
Ni	Ni	0.41668 0.88411 0.43967 1.11800
O 	O 	0.43449 0.70174 0.45378 -0.37100
O 	O 	0.44436 0.83005 0.46888 -0.37800
O 	O 	0.29086 0.87571 0.38970 -0.37000
O 	O 	0.49877 0.76547 0.38433 -0.35400
O 	O 	0.35831 0.76831 0.37088 -0.33400
O 	O 	0.27691 0.85223 0.45041 -0.38400
O 	O 	0.60378 0.83133 0.43058 -0.37200
O 	O 	0.55721 0.93378 0.42720 -0.39400
O 	O 	0.16857 0.74489 0.42403 -0.35700
O 	O 	0.34864 0.60458 0.40692 -0.36100
O 	O 	0.21479 0.62650 0.39984 -0.35900
O 	O 	0.40671 0.96577 0.41678 -0.36700
O 	O 	0.37360 0.77881 0.42125 -0.69800
H 	H 	0.32782 0.73587 0.43254 0.14300
C 	C 	0.17044 0.74445 0.22453 0.29200
C 	C 	0.29293 0.65421 0.14059 0.30800
C 	C 	0.15598 0.53084 0.20099 0.32800
C 	C 	0.27163 0.85006 0.14607 0.32200
C 	C 	0.47894 0.69088 0.18119 0.31600
C 	C 	0.50606 0.86815 0.21666 0.30200
Ni	Ni	0.16663 0.68611 0.17528 1.11500
Ni	Ni	0.42118 0.81856 0.16862 1.11900
Ni	Ni	0.33211 0.69562 0.21431 1.12800
O 	O 	0.12331 0.73194 0.20405 -0.34900
O 	O 	0.21007 0.69370 0.23064 -0.33900
O 	O 	0.51186 0.76797 0.17236 -0.39500
O 	O 	0.19996 0.63071 0.14702 -0.35800
O 	O 	0.36177 0.73841 0.13969 -0.38000
O 	O 	0.42217 0.81632 0.22732 -0.36100
O 	O 	0.10262 0.56660 0.19346 -0.35200
O 	O 	0.25349 0.57466 0.20033 -0.37900
O 	O 	0.50224 0.90012 0.19582 -0.36800
O 	O 	0.18360 0.79041 0.15418 -0.35400
O 	O 	0.35041 0.88678 0.16032 -0.38500
O 	O 	0.44766 0.67688 0.20298 -0.34800
O 	O 	0.30506 0.74467 0.18727 -0.69700
H 	H 	0.30436 0.79529 0.19482 0.14500
C 	C 	0.14972 0.01131 0.28052 0.32700
C 	C 	0.11214 0.28887 0.33125 0.31800
C 	C 	0.15906 0.08354 0.34523 0.31500
C 	C 	0.08664 0.26624 0.26645 0.36200
Ni	Ni	0.17675 0.18209 0.30074 1.11800
O 	O 	0.19228 0.09728 0.27683 -0.33900
O 	O 	0.10265 0.97841 0.30033 -0.37100
O 	O 	0.18161 0.26596 0.32742 -0.35200
O 	O 	0.03938 0.27051 0.31559 -0.33600
O 	O 	0.21436 0.11877 0.32655 -0.35300
O 	O 	0.05943 0.03982 0.34342 -0.32600
O 	O 	0.16925 0.26538 0.27483 -0.35500
O 	O 	0.99468 0.20068 0.26982 -0.39800
O 	O 	0.03668 0.10544 0.30066 -0.69300
H 	H 	0.03250 0.09188 0.28378 0.17000
C 	C 	0.14214 0.33189 0.22726 -0.01600
C 	C 	0.09807 0.33139 0.24874 -0.08500
C 	C 	0.04991 0.38270 0.25155 0.17000
C 	C 	0.05577 0.44016 0.23391 -0.03900
C 	C 	0.10859 0.44681 0.21336 -0.07500
C 	C 	0.14446 0.38702 0.20935 0.13300
Br	Br	0.20095 0.38277 0.17976 -0.21300
H 	H 	0.17272 0.28812 0.22426 0.08700
H 	H 	0.02559 0.48420 0.23696 0.09600
Br	Br	0.97715 0.37673 0.27940 -0.27600
C 	C 	0.69417 0.95895 0.22073 -0.02800
C 	C 	0.60395 0.88457 0.22720 -0.08300
C 	C 	0.60824 0.82925 0.24494 0.13300
C 	C 	0.69899 0.85446 0.25698 -0.03800
C 	C 	0.78285 0.93638 0.25329 -0.06900
C 	C 	0.78381 0.98446 0.23360 0.11000
Br	Br	0.90755 0.08236 0.22351 -0.21900
H 	H 	0.69410 0.99867 0.20629 0.06800
H 	H 	0.70058 0.81469 0.27126 0.07700
Br	Br	0.49241 0.72142 0.25439 -0.23700
C 	C 	0.18683 0.89354 0.22835 -0.03300
C 	C 	0.18656 0.82148 0.23938 -0.06900
C 	C 	0.19087 0.82089 0.26411 0.12400
C 	C 	0.19162 0.88984 0.27718 -0.02600
C 	C 	0.17925 0.95594 0.26611 -0.08100
C 	C 	0.17868 0.95819 0.24145 0.12100
Br	Br	0.15888 0.04426 0.22506 -0.17300
H 	H 	0.18788 0.89688 0.20940 0.07600
H 	H 	0.19575 0.88908 0.29614 0.08300
Br	Br	0.18871 0.72489 0.28074 -0.16000
C 	C 	0.58964 0.96050 0.36938 -0.07000
C 	C 	0.52369 0.87987 0.35828 -0.05200
C 	C 	0.54701 0.86302 0.33573 0.11300
C 	C 	0.64357 0.91718 0.32680 -0.00700
C 	C 	0.71775 0.98701 0.34055 -0.13200
C 	C 	0.68843 0.01217 0.36128 0.17700
Br	Br	0.78370 0.11133 0.37987 -0.19500
H 	H 	0.56788 0.97852 0.38558 0.09600
H 	H 	0.66342 0.90077 0.31002 0.06900
Br	Br	0.45178 0.76137 0.31800 -0.16300
C 	C 	0.13634 0.43690 0.34175 -0.03100
C 	C 	0.13668 0.36028 0.34870 -0.06000
C 	C 	0.17369 0.35742 0.37128 0.12600
C 	C 	0.21764 0.43284 0.38573 -0.02600
C 	C 	0.22132 0.51074 0.37837 -0.07400
C 	C 	0.17665 0.51134 0.35652 0.13400
Br	Br	0.16980 0.61254 0.34623 -0.18900
H 	H 	0.10759 0.43974 0.32454 0.10500
H 	H 	0.24715 0.43022 0.40291 0.07800
Br	Br	0.15890 0.24999 0.38335 -0.18200
C 	C 	0.31552 0.11298 0.36746 -0.02500
C 	C 	0.20986 0.07834 0.36712 -0.06800
C 	C 	0.15371 0.02615 0.38610 0.14600
C 	C 	0.19886 0.99268 0.40134 -0.06600
C 	C 	0.29918 0.01192 0.39808 -0.04800
C 	C 	0.36035 0.07975 0.38284 0.12400
Br	Br	0.50368 0.12336 0.38159 -0.19400
H 	H 	0.36189 0.16120 0.35474 0.07900
H 	H 	0.15359 0.94623 0.41454 0.07800
Br	Br	0.02065 0.00726 0.39317 -0.15100
C 	C 	0.71984 0.04363 0.49669 0.00300
C 	C 	0.71227 0.12038 0.49542 -0.03300
C 	C 	0.67026 0.14401 0.51391 -0.03900
C 	C 	0.64053 0.09327 0.53415 0.00800
C 	C 	0.66773 0.02769 0.53712 -0.02900
C 	C 	0.70905 0.00395 0.51846 -0.02100
C 	C 	0.57111 0.10131 0.55070 0.01200
C 	C 	0.59908 0.18177 0.56205 -0.04000
C 	C 	0.54122 0.18521 0.58052 -0.02400
C 	C 	0.45912 0.10762 0.58859 -0.00700
C 	C 	0.42179 0.03083 0.57479 -0.01500
C 	C 	0.47825 0.02730 0.55600 -0.03000
C 	C 	0.44151 0.09944 0.61334 0.07100
C 	C 	0.43482 0.09916 0.63433 -0.10600
C 	C 	0.69672 0.99013 0.47585 0.04500
C 	C 	0.67012 0.95197 0.45726 -0.11700
H 	H 	0.72620 0.15481 0.47902 0.05100
H 	H 	0.65392 0.19739 0.51180 0.04400
H 	H 	0.65045 0.99126 0.55323 0.03400
H 	H 	0.72111 0.94806 0.52012 0.03400
H 	H 	0.66812 0.24043 0.55740 0.04000
H 	H 	0.56620 0.24645 0.59002 0.05100
H 	H 	0.35541 0.97130 0.58018 0.03900
H 	H 	0.45280 0.96594 0.54642 0.03900
C 	C 	0.03779 0.60407 0.59527 -0.08900
C 	C 	0.00304 0.54534 0.57589 0.11000
C 	C 	0.02478 0.57857 0.55154 -0.03700
C 	C 	0.00615 0.64625 0.54446 0.04600
C 	C 	0.02665 0.67720 0.52151 -0.06100
C 	C 	0.06584 0.64087 0.50541 0.02300
C 	C 	0.08186 0.57174 0.51224 -0.04400
C 	C 	0.06222 0.54115 0.53522 -0.00700
C 	C 	0.10748 0.68520 0.48369 0.04700
C 	C 	0.14225 0.72236 0.46555 -0.08200
H 	H 	0.08155 0.67421 0.59261 0.06800
H 	H 	0.97755 0.67592 0.55679 -0.01000
H 	H 	0.01595 0.73182 0.51654 0.06400
H 	H 	0.11342 0.54403 0.50005 0.05900
C 	C 	0.75715 0.50437 0.59471 -0.00600
C 	C 	0.73913 0.48806 0.57060 -0.03100
C 	C 	0.74562 0.55418 0.55601 -0.04400
C 	C 	0.77040 0.63692 0.56555 0.00800
C 	C 	0.80242 0.65643 0.58907 -0.04400
C 	C 	0.79576 0.59012 0.60363 -0.03300
C 	C 	0.74299 0.69468 0.55249 0.00800
C 	C 	0.66317 0.70704 0.56035 -0.04000
C 	C 	0.61468 0.73674 0.54495 -0.03000
C 	C 	0.64597 0.75444 0.52172 -0.00800
C 	C 	0.73325 0.75245 0.51472 -0.03200
C 	C 	0.78172 0.72260 0.53008 -0.04300
C 	C 	0.57994 0.75923 0.50429 0.04900
C 	C 	0.52740 0.76344 0.48899 -0.09900
C 	C 	0.71533 0.43210 0.61047 0.05000
C 	C 	0.68084 0.37265 0.62403 -0.09900
H 	H 	0.71265 0.42252 0.56344 0.03800
H 	H 	0.72394 0.53919 0.53768 0.04300
H 	H 	0.82525 0.72104 0.59642 0.04300
H 	H 	0.81339 0.60389 0.62217 0.04900
H 	H 	0.63383 0.68729 0.57779 0.04900
H 	H 	0.54877 0.74035 0.55065 0.04400
H 	H 	0.75947 0.76836 0.49691 0.04200
H 	H 	0.84466 0.71522 0.52401 0.03200
C 	C 	0.70640 0.99968 0.76931 0.11800
C 	C 	0.67966 0.04463 0.75317 -0.00900
C 	C 	0.72778 0.06839 0.73155 -0.08600
H 	H 	0.62399 0.06392 0.75778 0.08000
C 	C 	0.35499 0.15704 0.76262 -0.01900
C 	C 	0.39914 0.12377 0.74702 -0.08400
C 	C 	0.35325 0.03252 0.74290 0.14800
C 	C 	0.26142 0.97594 0.75356 -0.05600
C 	C 	0.21452 0.00963 0.76831 -0.04900
C 	C 	0.26321 0.10103 0.77321 0.12200
H 	H 	0.39076 0.22723 0.76601 0.08000
H 	H 	0.22585 0.90582 0.75012 0.09000
Br	Br	0.41312 0.98413 0.72223 -0.21000
C 	C 	0.61637 0.53667 0.73505 -0.02800
C 	C 	0.68024 0.52279 0.72006 -0.07900
C 	C 	0.78324 0.58625 0.71950 0.12300
C 	C 	0.65746 0.60374 0.75222 0.12800
Br	Br	0.56740 0.63209 0.76890 -0.19700
H 	H 	0.53535 0.49208 0.73432 0.07900
C 	C 	0.29033 0.46272 0.09937 -0.00100
C 	C 	0.29130 0.46963 0.07496 -0.02900
C 	C 	0.22520 0.39671 0.06117 -0.03300
C 	C 	0.15911 0.31723 0.07198 0.00500
C 	C 	0.17832 0.30577 0.09542 -0.02900
C 	C 	0.24432 0.37888 0.10914 -0.03000
C 	C 	0.81540 0.24125 0.02142 0.04900
C 	C 	0.76559 0.25593 0.00749 -0.11900
C 	C 	0.29901 0.53488 0.11339 0.05600
C 	C 	0.30440 0.59286 0.12593 -0.09200
H 	H 	0.33205 0.53352 0.06700 0.04000
H 	H 	0.21630 0.40507 0.04268 0.04900
H 	H 	0.13306 0.24299 0.10364 0.05900
H 	H 	0.24956 0.37184 0.12784 0.06600
H 	H 	0.97840 0.27706 0.09135 0.04900
C 	C 	0.35670 0.83024 0.08034 -0.00400
C 	C 	0.37050 0.75692 0.07734 -0.02500
C 	C 	0.44667 0.76169 0.06277 -0.04000
C 	C 	0.50607 0.83849 0.05040 0.01200
C 	C 	0.48152 0.90631 0.05068 -0.04000
C 	C 	0.40666 0.90197 0.06558 -0.02700
C 	C 	0.59668 0.85063 0.03804 0.00700
C 	C 	0.69234 0.91813 0.04562 -0.03800
C 	C 	0.76518 0.96655 0.02898 -0.04500
C 	C 	0.73904 0.94928 0.00515 -0.01400
C 	C 	0.58585 0.81723 0.01512 -0.03900
C 	C 	0.32046 0.84290 0.10242 0.06300
C 	C 	0.29102 0.84710 0.12165 -0.11100
H 	H 	0.32781 0.69901 0.08766 0.05400
H 	H 	0.46224 0.70745 0.06192 0.04100
H 	H 	0.52424 0.96440 0.04033 0.04500
H 	H 	0.39431 0.95786 0.06720 0.04400
H 	H 	0.70492 0.94041 0.06375 0.03800
H 	H 	0.83317 0.02595 0.03444 0.04900
H 	H 	0.51531 0.76079 0.00936 0.05000
C 	C 	0.55809 0.43736 0.01381 0.00300
C 	C 	0.52651 0.49792 0.02003 -0.03000
C 	C 	0.52653 0.52087 0.04366 -0.03800
C 	C 	0.55785 0.48310 0.06127 0.00900
C 	C 	0.59120 0.42378 0.05494 -0.03900
C 	C 	0.59140 0.40112 0.03133 -0.03000
C 	C 	0.55909 0.50825 0.08626 0.01000
C 	C 	0.61453 0.59675 0.09335 -0.04200
C 	C 	0.60708 0.62206 0.11623 -0.03000
C 	C 	0.54348 0.55942 0.13228 -0.00100
C 	C 	0.49412 0.47007 0.12583 -0.02900
C 	C 	0.50174 0.44445 0.10284 -0.03900
C 	C 	0.51296 0.58939 0.15279 0.05600
C 	C 	0.49519 0.62835 0.16801 -0.08600
H 	H 	0.49995 0.52582 0.00668 0.05100
H 	H 	0.50166 0.56749 0.04828 0.04000
H 	H 	0.61689 0.39518 0.06828 0.04400
H 	H 	0.61546 0.35392 0.02671 0.05300
H 	H 	0.66102 0.64632 0.08093 0.04200
H 	H 	0.64630 0.69120 0.12110 0.04400
H 	H 	0.44510 0.42103 0.13807 0.05400
H 	H 	0.45932 0.37572 0.09766 0.04800
C 	C 	0.85118 0.34899 0.68219 0.30400
C 	C 	0.82054 0.94197 0.78158 0.31300
C 	C 	0.81248 0.70528 0.77707 0.31200
O 	O 	0.76770 0.85783 0.78599 -0.34900
O 	O 	0.91195 0.75239 0.77846 -0.38400
C 	C 	0.82579 0.02006 0.33538 0.36600
C 	C 	0.85070 0.98089 0.27323 0.28100
Ni	Ni	0.94489 0.14902 0.30135 1.11700
Ni	Ni	0.98378 0.98946 0.31267 1.10000
O 	O 	0.88650 0.10443 0.33271 -0.38700
O 	O 	0.90191 0.94422 0.28257 -0.38200
O 	O 	0.83471 0.03823 0.28543 -0.35800
O 	O 	0.85359 0.96274 0.32875 -0.39700
C 	C 	0.95987 0.48142 0.62182 -0.08800
C 	C 	0.01543 0.57212 0.61816 0.06800
C 	C 	0.94765 0.45458 0.57975 -0.13500
C 	C 	0.92758 0.42291 0.60256 0.02500
C 	C 	0.92958 0.44721 0.64510 0.07700
C 	C 	0.89798 0.40850 0.66321 -0.10400
H 	H 	0.04035 0.61786 0.63291 0.04800
H 	H 	0.91853 0.40858 0.56506 0.05500
H 	H 	0.88372 0.35274 0.60524 0.03100
H 	H 	0.07792 0.48952 0.54044 0.04800
C 	C 	0.82600 0.99733 0.74164 -0.05200
C 	C 	0.78158 0.97760 0.76373 -0.06400
C 	C 	0.79959 0.04279 0.72553 0.15100
Br	Br	0.86601 0.07319 0.69590 -0.22300
H 	H 	0.88339 0.97984 0.73727 0.07000
C 	C 	0.82544 0.65075 0.73723 -0.03600
C 	C 	0.76398 0.65461 0.75503 -0.07500
H 	H 	0.90639 0.69550 0.73763 0.07100
Br	Br	0.86795 0.58321 0.69521 -0.24300
C 	C 	0.05669 0.26164 0.06170 0.05200
C 	C 	0.97240 0.25734 0.07309 -0.09200
C 	C 	0.88484 0.23851 0.06020 -0.02200
C 	C 	0.88111 0.22362 0.03599 -0.00300
C 	C 	0.95822 0.21355 0.02548 -0.08100
C 	C 	0.04574 0.23210 0.03835 0.00500
H 	H 	0.82408 0.24353 0.06864 0.03900
H 	H 	0.95424 0.19882 0.00689 0.05000
H 	H 	0.10853 0.23148 0.02960 0.04600
Br	Br	0.20784 0.15157 0.79459 -0.20800
O 	O 	0.88860 0.99717 0.79669 -0.36000
O 	O 	0.75809 0.69448 0.79585 -0.34000
Br	Br	0.64271 0.97253 0.79930 -0.19100
Ni	Ni	0.99027 0.79482 0.80928 1.11000
Ni	Ni	0.99790 0.98004 0.81278 1.11600
Ni	Ni	0.77956 0.80116 0.81679 1.12100
O 	O 	0.92184 0.85852 0.81775 -0.72600
Br	Br	0.96149 0.17380 0.82447 -0.22200
O 	O 	0.88518 0.68793 0.82676 -0.35600
O 	O 	0.12153 0.98861 0.82982 -0.33700
H 	H 	0.92961 0.86021 0.83491 0.15100
H 	H 	0.31567 0.98412 0.83761 0.08400
O 	O 	0.07598 0.84440 0.83838 -0.33100
O 	O 	0.76961 0.89833 0.83729 -0.34000
O 	O 	0.94104 0.99744 0.84281 -0.36900
C 	C 	0.12102 0.92900 0.84432 0.30400
C 	C 	0.84503 0.97732 0.84411 0.30300
O 	O 	0.78144 0.72893 0.84559 -0.34900
C 	C 	0.84312 0.69504 0.84629 0.28700
C 	C 	0.86352 0.12829 0.84887 0.13200
Br	Br	0.03453 0.65563 0.85012 -0.15400
H 	H 	0.86838 0.25256 0.85434 0.07600
C 	C 	0.29875 0.98719 0.85591 -0.03700
C 	C 	0.82014 0.03982 0.85591 -0.06100
Br	Br	0.50720 0.04343 0.86268 -0.18500
C 	C 	0.83545 0.18505 0.85990 -0.03100
C 	C 	0.19955 0.95937 0.86249 -0.06200
C 	C 	0.85093 0.65174 0.86811 -0.05700
C 	C 	0.37632 0.01821 0.87264 0.13600
C 	C 	0.92150 0.62065 0.87054 0.08500
C 	C 	0.75151 0.01056 0.87424 -0.01200
C 	C 	0.76642 0.15551 0.87824 -0.06200
H 	H 	0.71876 0.94313 0.87987 0.07100
C 	C 	0.72608 0.06784 0.88575 0.12700
O 	O 	0.65412 0.21518 0.88666 -0.33400
C 	C 	0.17617 0.95632 0.88635 0.12700
H 	H 	0.73571 0.66746 0.88623 0.08400
C 	C 	0.74333 0.21834 0.89061 0.29000
C 	C 	0.78401 0.63788 0.88656 -0.04300
C 	C 	0.91185 0.56487 0.88898 -0.01400
H 	H 	0.96045 0.53556 0.88969 0.05900
C 	C 	0.35606 0.02698 0.89632 -0.06200
O 	O 	0.72886 0.38515 0.89847 -0.38200
Br	Br	0.03844 0.90917 0.89607 -0.18000
O 	O 	0.81449 0.28043 0.90444 -0.35600
C 	C 	0.25471 0.99033 0.90323 -0.03400
O 	O 	0.45766 0.17760 0.90737 -0.37200
Br	Br	0.63532 0.02339 0.91136 -0.20700
C 	C 	0.77633 0.58290 0.90506 0.13100
C 	C 	0.83238 0.53834 0.90475 -0.09400
Ni	Ni	0.60020 0.27839 0.90768 1.12500
C 	C 	0.43536 0.09622 0.91122 0.31500
C 	C 	0.78521 0.44780 0.91316 0.33300
H 	H 	0.23758 0.99427 0.92145 0.07700
H 	H 	0.64643 0.18582 0.92619 0.15800
O 	O 	0.56699 0.35010 0.93070 -0.35100
O 	O 	0.45948 0.07527 0.93157 -0.35200
Br	Br	0.68612 0.56664 0.93017 -0.21800
O 	O 	0.82041 0.42945 0.93207 -0.36300
O 	O 	0.64952 0.23824 0.93330 -0.70800
Ni	Ni	0.79017 0.30156 0.93958 1.11100
O 	O 	0.78987 0.18765 0.95106 -0.36600
C 	C 	0.51743 0.31521 0.95023 0.31600
Ni	Ni	0.55068 0.16701 0.95573 1.12300
O 	O 	0.47060 0.22980 0.95275 -0.37500
O 	O 	0.62158 0.09538 0.96031 -0.35800
C 	C 	0.71979 0.12672 0.96446 0.30800
O 	O 	0.77823 0.33629 0.97366 -0.37400
C 	C 	0.53428 0.36914 0.97089 -0.08100
C 	C 	0.74662 0.07354 0.97837 -0.09400
H 	H 	0.64498 0.84642 0.98035 0.05400
C 	C 	0.71963 0.27830 0.98867 0.31500
O 	O 	0.62069 0.23678 0.98560 -0.38100
C 	C 	0.75129 0.02131 0.99113 0.06500
C 	C 	0.54391 0.40318 0.99002 0.06000
C 	C 	0.65967 0.86576 0.99869 -0.02400
