data_crystal

_cell_length_a 18.80328
_cell_length_b 16.36212
_cell_length_c 41.67289
_cell_angle_alpha 90.85538
_cell_angle_beta  91.47217
_cell_angle_gamma 111.19197

_symmetry_space_group_name_	'P 1'
_symmetry_space_group_name_H-M	'P 1'

loop_
_symmetry_equiv_pos_as_xyz
  x,y,z

loop_
_atom_site_label
_atom_site_type_symbol
_atom_site_fract_x
_atom_site_fract_y
_atom_site_fract_z
_atom_site_charge
Ni	Ni	0.74488 0.34548 0.90183 1.10100
O 	O 	0.64405 0.26399 0.88111 -0.70100
Ni	Ni	0.57001 0.28030 0.91166 1.10200
O 	O 	0.80469 0.31751 0.86577 -0.36700
O 	O 	0.74877 0.17039 0.87425 -0.40400
O 	O 	0.72774 0.43978 0.87448 -0.40100
Ni	Ni	0.63095 0.14122 0.87546 1.06900
O 	O 	0.79807 0.46916 0.96890 -0.40300
O 	O 	0.62754 0.11543 0.92324 -0.39300
O 	O 	0.47363 0.20850 0.88583 -0.37000
O 	O 	0.67170 0.34502 0.93563 -0.70300
O 	O 	0.84417 0.43611 0.92119 -0.37100
O 	O 	0.50865 0.33390 0.93957 -0.36600
O 	O 	0.59415 0.47186 0.93151 -0.40500
Ni	Ni	0.69653 0.46694 0.94985 1.07200
H 	H 	0.63530 0.28623 0.85998 0.15200
H 	H 	0.67911 0.31029 0.95380 0.16200
C 	C 	0.56653 0.10982 0.93909 0.27600
O 	O 	0.75604 0.54547 0.91408 -0.39000
C 	C 	0.79401 0.23597 0.85756 0.28800
C 	C 	0.47317 0.14385 0.86621 0.28800
C 	C 	0.75185 0.52241 0.88357 0.32600
C 	C 	0.52774 0.41956 0.94168 0.26300
C 	C 	0.85501 0.46593 0.95134 0.29300
O 	O 	0.54782 0.17913 0.94335 -0.36000
O 	O 	0.51432 0.09530 0.87312 -0.40400
Ni	Ni	0.59918 0.28935 0.50242 1.09900
O 	O 	0.69782 0.31428 0.47802 -0.69900
Ni	Ni	0.76506 0.28473 0.51071 1.09900
O 	O 	0.55666 0.35806 0.47171 -0.37100
O 	O 	0.66316 0.48208 0.47749 -0.39900
O 	O 	0.53923 0.18064 0.47337 -0.35500
Ni	Ni	0.74888 0.43561 0.46432 1.07000
O 	O 	0.50117 0.11863 0.53682 -0.40500
O 	O 	0.81377 0.50622 0.50299 -0.39100
O 	O 	0.87052 0.33144 0.48950 -0.35900
O 	O 	0.66210 0.24767 0.53298 -0.69700
O 	O 	0.50473 0.25877 0.52968 -0.37500
O 	O 	0.81048 0.23047 0.54632 -0.36000
O 	O 	0.71254 0.09942 0.53918 -0.40400
Ni	Ni	0.61102 0.12152 0.53738 1.06900
H 	H 	0.68874 0.27372 0.45921 0.16000
H 	H 	0.66680 0.27782 0.55414 0.15400
C 	C 	0.83661 0.47300 0.52796 0.32100
O 	O 	0.60805 0.09899 0.48949 -0.40400
C 	C 	0.59071 0.44278 0.46864 0.27000
C 	C 	0.89171 0.39703 0.46913 0.26300
C 	C 	0.55370 0.10790 0.47160 0.27700
C 	C 	0.77170 0.15110 0.55614 0.28700
C 	C 	0.48202 0.18551 0.54592 0.28900
O 	O 	0.79414 0.39634 0.53825 -0.40000
O 	O 	0.84119 0.41026 0.44915 -0.39600
Ni	Ni	0.02597 0.96619 0.74115 1.08600
O 	O 	0.01915 0.86565 0.71038 -0.72400
Ni	Ni	0.06437 0.93227 0.67169 1.08900
O 	O 	0.97876 0.87975 0.77677 -0.35600
O 	O 	0.87481 0.80658 0.74396 -0.41000
O 	O 	0.13354 0.97095 0.75336 -0.41900
Ni	Ni	0.91491 0.79181 0.69874 1.07000
O 	O 	0.06682 0.18383 0.73513 -0.40400
O 	O 	0.88181 0.89131 0.68276 -0.41600
O 	O 	0.06446 0.82716 0.64507 -0.37600
O 	O 	0.05262 0.02922 0.69998 -0.69500
O 	O 	0.04137 0.07128 0.77103 -0.36700
O 	O 	0.13321 0.01861 0.64005 -0.36600
O 	O 	0.21172 0.10357 0.68046 -0.41000
Ni	Ni	0.13619 0.14040 0.70797 1.07100
H 	H 	0.04917 0.83063 0.71809 0.15500
H 	H 	0.00850 0.04434 0.69295 0.14900
C 	C 	0.90957 0.93303 0.65656 0.32000
O 	O 	0.18545 0.11970 0.74967 -0.39900
C 	C 	0.91497 0.81209 0.77090 0.28600
C 	C 	0.00008 0.75793 0.64191 0.22900
C 	C 	0.19165 0.04521 0.75751 0.34600
C 	C 	0.19793 0.08048 0.64972 0.28000
C 	C 	0.03134 0.14210 0.76069 0.27000
O 	O 	0.97106 0.92768 0.64429 -0.36800
O 	O 	0.93523 0.76121 0.65283 -0.37700
Ni	Ni	0.22802 0.64154 0.40008 1.09900
O 	O 	0.32778 0.70139 0.37710 -0.70300
Ni	Ni	0.40421 0.69477 0.40981 1.10100
O 	O 	0.16798 0.65494 0.36034 -0.37300
O 	O 	0.23307 0.80305 0.36127 -0.41500
O 	O 	0.23261 0.52918 0.38018 -0.40600
Ni	Ni	0.34901 0.82267 0.36624 1.06500
O 	O 	0.17494 0.54534 0.46952 -0.41300
O 	O 	0.35203 0.86440 0.41280 -0.41400
O 	O 	0.49769 0.74393 0.38183 -0.36900
O 	O 	0.30562 0.65208 0.43518 -0.70000
O 	O 	0.12578 0.57279 0.42099 -0.37900
O 	O 	0.46567 0.65197 0.44256 -0.36900
O 	O 	0.37332 0.51512 0.44193 -0.39900
Ni	Ni	0.27665 0.53860 0.45621 1.06900
H 	H 	0.33046 0.66765 0.35754 0.15500
H 	H 	0.30492 0.69766 0.45093 0.15400
C 	C 	0.41248 0.87609 0.43137 0.30300
O 	O 	0.21391 0.44226 0.42388 -0.39400
C 	C 	0.18264 0.73174 0.34740 0.29300
C 	C 	0.50405 0.80946 0.36230 0.28500
C 	C 	0.20290 0.45271 0.39325 0.33100
C 	C 	0.44356 0.56840 0.44936 0.26300
C 	C 	0.11662 0.53286 0.44889 0.30100
O 	O 	0.44065 0.81363 0.43456 -0.37100
O 	O 	0.46565 0.86196 0.36741 -0.40900
Ni	Ni	0.38131 0.70116 0.99641 1.10000
O 	O 	0.27146 0.66429 0.97944 -0.70500
Ni	Ni	0.21932 0.69335 0.01690 1.09900
O 	O 	0.41056 0.62686 0.96313 -0.37500
O 	O 	0.31361 0.50210 0.97655 -0.40300
O 	O 	0.41813 0.80333 0.96458 -0.36600
Ni	Ni	0.22020 0.54018 0.96746 1.06900
O 	O 	0.48662 0.88151 0.02814 -0.41200
O 	O 	0.16650 0.47350 0.00711 -0.39100
O 	O 	0.10579 0.63462 0.00233 -0.36800
O 	O 	0.33201 0.74340 0.03191 -0.69700
O 	O 	0.48863 0.74504 0.01618 -0.37700
O 	O 	0.18799 0.74854 0.05616 -0.36900
O 	O 	0.27305 0.88367 0.04457 -0.41300
Ni	Ni	0.37669 0.87103 0.03560 1.06700
H 	H 	0.26814 0.70084 0.96116 0.16000
H 	H 	0.34022 0.71774 0.05241 0.15200
C 	C 	0.16574 0.50763 0.03583 0.32000
O 	O 	0.35988 0.88675 0.98836 -0.41800
C 	C 	0.38019 0.54111 0.96347 0.26700
C 	C 	0.07962 0.57776 0.97781 0.25500
C 	C 	0.40897 0.87890 0.96812 0.30600
C 	C 	0.22453 0.83163 0.06423 0.28600
C 	C 	0.51279 0.81807 0.03377 0.29600
O 	O 	0.21207 0.58718 0.04365 -0.40100
O 	O 	0.12553 0.56658 0.95606 -0.40800
Ni	Ni	0.94466 0.99372 0.24440 1.09600
O 	O 	0.96723 0.10459 0.21810 -0.69500
Ni	Ni	0.93040 0.05198 0.17479 1.11200
O 	O 	0.98729 0.06737 0.28536 -0.33500
O 	O 	0.09950 0.13717 0.26057 -0.40800
O 	O 	0.83634 0.99182 0.25159 -0.39500
Ni	Ni	0.07571 0.17129 0.21459 1.06000
O 	O 	0.89307 0.77761 0.22667 -0.39800
O 	O 	0.10487 0.07011 0.19693 -0.41600
O 	O 	0.94696 0.16666 0.15208 -0.34800
O 	O 	0.92529 0.94352 0.19993 -0.70700
O 	O 	0.91651 0.87919 0.26828 -0.37400
O 	O 	0.86538 0.98009 0.13677 -0.37400
O 	O 	0.77614 0.89582 0.17071 -0.41700
Ni	Ni	0.83487 0.83690 0.19927 1.07400
H 	H 	0.93905 0.14192 0.22530 0.16500
H 	H 	0.96821 0.92490 0.19483 0.15600
C 	C 	0.08228 0.03667 0.16798 0.33200
O 	O 	0.77544 0.84558 0.23890 -0.39000
C 	C 	0.05399 0.13176 0.28462 0.26400
C 	C 	0.01589 0.22934 0.15306 0.26200
C 	C 	0.77756 0.91774 0.25393 0.31900
C 	C 	0.79783 0.92017 0.14146 0.28600
C 	C 	0.92542 0.81018 0.25506 0.28600
O 	O 	0.02614 0.05053 0.15279 -0.38200
O 	O 	0.07414 0.21886 0.16915 -0.39800
C 	C 	0.03527 0.29176 0.12769 -0.07600
C 	C 	0.05936 0.34311 0.10644 0.02400
C 	C 	0.09371 0.40176 0.08175 0.04200
C 	C 	0.12590 0.45058 0.06082 -0.09600
C 	C 	0.57879 0.83667 0.05416 -0.10700
C 	C 	0.63259 0.85416 0.07249 0.03300
C 	C 	0.69289 0.87630 0.09527 0.03000
C 	C 	0.74214 0.89616 0.11588 -0.10000
C 	C 	0.12196 0.98980 0.15143 -0.13800
C 	C 	0.14959 0.95021 0.13430 0.04400
C 	C 	0.17707 0.90550 0.11150 0.01800
C 	C 	0.19864 0.86990 0.09044 -0.09900
C 	C 	0.72340 0.90887 0.27874 -0.09200
C 	C 	0.67565 0.89122 0.29904 0.03600
C 	C 	0.61778 0.86353 0.32201 0.02900
C 	C 	0.56688 0.83806 0.34083 -0.09300
C 	C 	0.16728 0.37723 0.37291 -0.10100
C 	C 	0.13809 0.31581 0.35476 0.04300
C 	C 	0.10578 0.24728 0.33204 0.02700
C 	C 	0.08049 0.19221 0.31117 -0.09400
C 	C 	0.97814 0.77742 0.27025 -0.05200
C 	C 	0.02545 0.75985 0.28552 -0.02000
C 	C 	0.08171 0.74772 0.30562 0.04900
C 	C 	0.12892 0.74060 0.32419 -0.11400
C 	C 	0.45649 0.96205 0.44436 -0.08600
C 	C 	0.49908 0.03097 0.45598 0.00300
C 	C 	0.03921 0.48308 0.45827 -0.08600
C 	C 	0.97257 0.44265 0.46387 0.01500
C 	C 	0.50026 0.53091 0.45660 -0.03900
C 	C 	0.54423 0.49404 0.46217 -0.04200
C 	C 	0.80168 0.11447 0.58162 -0.08700
C 	C 	0.82325 0.07703 0.60206 0.01700
C 	C 	0.84808 0.02794 0.62403 0.08200
C 	C 	0.87274 0.98404 0.64050 -0.14800
C 	C 	0.42106 0.16996 0.56799 -0.09600
C 	C 	0.37018 0.15366 0.58681 0.03100
C 	C 	0.31060 0.13121 0.60896 0.02900
C 	C 	0.25950 0.10946 0.62773 -0.09200
C 	C 	0.99199 0.69662 0.61613 -0.04300
C 	C 	0.97056 0.64374 0.59433 0.01200
C 	C 	0.93194 0.58277 0.56984 0.05600
C 	C 	0.89102 0.53203 0.55010 -0.09900
C 	C 	0.93212 0.50691 0.96350 -0.04800
C 	C 	0.99886 0.54034 0.97116 -0.00100
C 	C 	0.46653 0.95735 0.95674 -0.08400
C 	C 	0.51400 0.02550 0.94849 0.00400
C 	C 	0.47134 0.45603 0.94961 -0.04200
C 	C 	0.42733 0.49173 0.95602 -0.04300
C 	C 	0.98263 0.17497 0.77837 -0.06100
C 	C 	0.93936 0.19360 0.79522 0.02500
C 	C 	0.88785 0.20874 0.81639 0.04400
C 	C 	0.84430 0.22009 0.83509 -0.09600
C 	C 	0.41258 0.11083 0.84272 -0.09400
C 	C 	0.36181 0.08559 0.82276 0.03100
C 	C 	0.30239 0.06190 0.79942 0.04700
C 	C 	0.25150 0.04917 0.77981 -0.10300
C 	C 	0.78579 0.58823 0.86042 -0.09400
C 	C 	0.81559 0.64215 0.84069 0.04100
C 	C 	0.85105 0.70353 0.81711 0.03200
C 	C 	0.88089 0.75419 0.79641 -0.09300
