data_crystal

_cell_length_a 19.47342
_cell_length_b 27.61552
_cell_length_c 37.90517
_cell_angle_alpha 90.00024
_cell_angle_beta  76.95096
_cell_angle_gamma 90.00049

_symmetry_space_group_name_	'P 1'
_symmetry_space_group_name_H-M	'P 1'

loop_
_symmetry_equiv_pos_as_xyz
  x,y,z

loop_
_atom_site_label
_atom_site_type_symbol
_atom_site_fract_x
_atom_site_fract_y
_atom_site_fract_z
_atom_site_charge
Cu	Cu	0.45647 0.47810 0.18053 0.93800
Cu	Cu	0.55232 0.53816 0.22664 0.90400
Cu	Cu	0.42057 0.57923 0.21178 0.91000
Cu	Cu	0.31453 0.53051 0.17581 0.92000
C 	C 	0.33124 0.42454 0.17917 0.32900
O 	O 	0.46590 0.49131 0.12698 -0.32600
C 	C 	0.54194 0.64020 0.22010 0.33700
O 	O 	0.37148 0.51977 0.20938 -0.63400
O 	O 	0.50376 0.53965 0.18742 -0.63500
O 	O 	0.51583 0.43402 0.20256 -0.33500
O 	O 	0.50924 0.48253 0.25154 -0.39600
O 	O 	0.30892 0.46104 0.16231 -0.33300
O 	O 	0.33610 0.61267 0.23569 -0.34600
C 	C 	0.28226 0.62048 0.22069 0.33300
C 	C 	0.44577 0.53255 0.11517 0.32700
O 	O 	0.40357 0.56149 0.13758 -0.35700
O 	O 	0.26049 0.58721 0.20056 -0.34000
O 	O 	0.39750 0.42222 0.18201 -0.32000
C 	C 	0.52112 0.43991 0.23618 0.33700
O 	O 	0.47295 0.63577 0.22397 -0.34400
O 	O 	0.58418 0.60242 0.21411 -0.36800
H 	H 	0.34601 0.50737 0.23327 0.19900
H 	H 	0.53132 0.55477 0.16499 0.20600
Cu	Cu	0.54123 0.40552 0.79337 0.93600
Cu	Cu	0.43042 0.46002 0.75217 0.89500
Cu	Cu	0.56768 0.50472 0.75725 0.91000
Cu	Cu	0.68824 0.45852 0.78430 0.91200
C 	C 	0.67040 0.35185 0.78912 0.32800
O 	O 	0.54462 0.42501 0.84446 -0.32700
C 	C 	0.44326 0.56272 0.75002 0.33100
O 	O 	0.61934 0.44530 0.75739 -0.63300
O 	O 	0.48947 0.46552 0.78692 -0.63300
O 	O 	0.47551 0.35820 0.77882 -0.33100
O 	O 	0.46695 0.40172 0.72913 -0.39800
O 	O 	0.69981 0.39060 0.79981 -0.34300
O 	O 	0.64669 0.53839 0.72763 -0.34500
C 	C 	0.70568 0.54693 0.73803 0.33300
C 	C 	0.56860 0.46742 0.85209 0.32100
O 	O 	0.60949 0.49309 0.82652 -0.35700
O 	O 	0.73627 0.51287 0.75365 -0.34600
O 	O 	0.60158 0.34983 0.79171 -0.32200
C 	C 	0.45858 0.36093 0.74723 0.33600
O 	O 	0.51059 0.56196 0.75137 -0.33300
O 	O 	0.40131 0.52577 0.76130 -0.37300
H 	H 	0.63801 0.43140 0.73303 0.19700
H 	H 	0.46586 0.48185 0.80968 0.20300
Cu	Cu	0.88149 0.98389 0.30860 0.93900
Cu	Cu	0.74501 0.04561 0.29690 0.89300
Cu	Cu	0.89106 0.08928 0.28431 0.90800
Cu	Cu	0.02829 0.03363 0.27663 0.91700
C 	C 	0.00535 0.92715 0.28003 0.34300
O 	O 	0.92572 0.99443 0.35173 -0.32100
C 	C 	0.76318 0.14737 0.30227 0.32700
O 	O 	0.93755 0.02878 0.26686 -0.63300
O 	O 	0.82752 0.04446 0.31805 -0.63800
O 	O 	0.80098 0.94080 0.30571 -0.33400
O 	O 	0.76232 0.99018 0.26636 -0.39100
O 	O 	0.04392 0.96408 0.28601 -0.33900
O 	O 	0.95618 0.13322 0.25292 -0.33700
C 	C 	0.02557 0.13014 0.24633 0.33400
C 	C 	0.95839 0.03487 0.35659 0.31600
O 	O 	0.98131 0.06427 0.32921 -0.35900
O 	O 	0.05725 0.08779 0.24267 -0.34900
O 	O 	0.93610 0.92817 0.29036 -0.33000
C 	C 	0.76604 0.94705 0.28025 0.33600
O 	O 	0.83196 0.14611 0.29949 -0.33700
O 	O 	0.72314 0.10992 0.31471 -0.37000
H 	H 	0.93653 0.02056 0.24155 0.19400
H 	H 	0.81760 0.05536 0.34358 0.20400
Cu	Cu	0.10150 0.90925 0.64813 0.93600
Cu	Cu	0.22973 0.95835 0.67820 0.90200
Cu	Cu	0.08950 0.00627 0.68811 0.90400
Cu	Cu	0.95351 0.96109 0.67590 0.91600
C 	C 	0.97235 0.85578 0.66552 0.33100
O 	O 	0.07412 0.93307 0.60235 -0.32400
C 	C 	0.22183 0.06126 0.68331 0.33000
O 	O 	0.03645 0.94657 0.69218 -0.62700
O 	O 	0.15729 0.96795 0.65115 -0.63400
O 	O 	0.17562 0.86060 0.65183 -0.33100
O 	O 	0.20095 0.89785 0.70071 -0.39200
O 	O 	0.93721 0.89449 0.65951 -0.34000
O 	O 	0.01992 0.04124 0.72387 -0.34300
C 	C 	0.95408 0.04762 0.72134 0.32900
C 	C 	0.04528 0.97587 0.60037 0.32200
O 	O 	0.01686 0.99963 0.63006 -0.35600
O 	O 	0.91688 0.01123 0.71294 -0.34900
O 	O 	0.04139 0.85376 0.65424 -0.32100
C 	C 	0.20214 0.85895 0.68073 0.33300
O 	O 	0.15225 0.06197 0.68858 -0.34000
O 	O 	0.25925 0.02381 0.66836 -0.37100
H 	H 	0.02846 0.93132 0.71640 0.19800
H 	H 	0.17386 0.98537 0.62797 0.20900
C 	C 	0.98218 0.04172 0.39041 -0.10500
C 	C 	0.04329 0.01788 0.39523 0.12700
C 	C 	0.05555 0.01272 0.43015 0.06200
C 	C 	0.01009 0.03524 0.45980 0.02600
C 	C 	0.95517 0.06530 0.45396 0.06700
C 	C 	0.94015 0.06762 0.41936 0.12600
C 	C 	0.01527 0.02311 0.49719 0.00800
C 	C 	0.97196 0.98661 0.51650 0.07900
C 	C 	0.97895 0.97350 0.55131 0.11900
C 	C 	0.03393 0.99316 0.56538 -0.09200
C 	C 	0.07702 0.02988 0.54625 0.11400
C 	C 	0.06594 0.04609 0.51275 0.07500
Br	Br	0.89972 0.10201 0.49357 -0.11000
Br	Br	0.11146 0.99418 0.35386 -0.13600
Br	Br	0.91023 0.93144 0.58071 -0.14100
Br	Br	0.11980 0.09969 0.48814 -0.10500
Br	Br	0.86203 0.10580 0.41159 -0.15400
Br	Br	0.13187 0.97244 0.43775 -0.09900
Br	Br	0.90472 0.95347 0.49468 -0.11100
Br	Br	0.15205 0.05703 0.56550 -0.15300
C 	C 	0.93352 0.81043 0.67539 -0.10400
C 	C 	0.91202 0.78258 0.64868 0.13200
C 	C 	0.87229 0.74027 0.65857 0.06900
C 	C 	0.86088 0.72292 0.69438 0.02100
C 	C 	0.88636 0.74926 0.72059 0.07200
C 	C 	0.91909 0.79431 0.71153 0.12800
C 	C 	0.82066 0.67769 0.70468 0.02100
C 	C 	0.74962 0.67987 0.72352 0.07000
C 	C 	0.71340 0.63710 0.73620 0.12500
C 	C 	0.74486 0.59177 0.72580 -0.10600
C 	C 	0.81417 0.58963 0.70433 0.12900
C 	C 	0.85351 0.63244 0.69597 0.06800
Br	Br	0.87788 0.72299 0.76853 -0.10900
Br	Br	0.94028 0.80091 0.59842 -0.10600
Br	Br	0.62357 0.64072 0.77030 -0.13700
Br	Br	0.95277 0.62919 0.67364 -0.10600
Br	Br	0.94253 0.83459 0.74870 -0.16500
Br	Br	0.83178 0.70679 0.62346 -0.10600
Br	Br	0.70173 0.74143 0.73135 -0.10900
Br	Br	0.85302 0.52891 0.68382 -0.13100
C 	C 	0.71230 0.30668 0.78133 -0.10300
C 	C 	0.75215 0.28939 0.80564 0.12600
C 	C 	0.79543 0.24835 0.79658 0.06900
C 	C 	0.79300 0.22129 0.76540 0.02000
C 	C 	0.75006 0.23689 0.74229 0.07000
C 	C 	0.71360 0.28111 0.74899 0.12400
C 	C 	0.83739 0.17736 0.75623 0.02000
C 	C 	0.90100 0.17981 0.72976 0.07000
C 	C 	0.93892 0.13721 0.71805 0.12200
C 	C 	0.91736 0.09281 0.73543 -0.10600
C 	C 	0.85745 0.09132 0.76441 0.12800
C 	C 	0.81537 0.13292 0.77340 0.06800
Br	Br	0.74076 0.19741 0.70164 -0.11400
Br	Br	0.74450 0.31965 0.85215 -0.11100
Br	Br	0.01679 0.13902 0.67636 -0.14100
Br	Br	0.72652 0.12875 0.80825 -0.10900
Br	Br	0.67183 0.30904 0.71227 -0.15300
Br	Br	0.85940 0.22980 0.82637 -0.11000
Br	Br	0.93611 0.24158 0.70970 -0.11400
Br	Br	0.83570 0.03339 0.79320 -0.12800
C 	C 	0.42045 0.32060 0.73482 -0.11700
C 	C 	0.44975 0.29663 0.70206 0.13000
C 	C 	0.41936 0.25334 0.69342 0.06800
C 	C 	0.35536 0.23694 0.71540 0.02100
C 	C 	0.32207 0.26382 0.74610 0.06800
C 	C 	0.35501 0.30532 0.75608 0.12700
C 	C 	0.32303 0.19149 0.70625 0.02000
C 	C 	0.28187 0.19174 0.68009 0.06900
C 	C 	0.25292 0.14829 0.67071 0.13000
C 	C 	0.25883 0.10556 0.69012 -0.10600
C 	C 	0.29918 0.10545 0.71666 0.12600
C 	C 	0.33331 0.14800 0.72377 0.06900
Br	Br	0.23134 0.24367 0.77434 -0.11300
Br	Br	0.52763 0.32496 0.66773 -0.12500
Br	Br	0.21078 0.14640 0.62937 -0.11000
Br	Br	0.39452 0.14682 0.75731 -0.11100
Br	Br	0.30852 0.34296 0.79752 -0.16700
Br	Br	0.46630 0.21569 0.65211 -0.10800
Br	Br	0.26400 0.25180 0.65776 -0.11000
Br	Br	0.30548 0.04748 0.74419 -0.17100
C 	C 	0.41288 0.60786 0.73934 -0.10400
C 	C 	0.42144 0.61919 0.70237 0.12400
C 	C 	0.38881 0.66059 0.69190 0.07000
C 	C 	0.34904 0.69145 0.71845 0.02100
C 	C 	0.34258 0.68104 0.75547 0.06900
C 	C 	0.37352 0.63886 0.76590 0.13000
C 	C 	0.31208 0.73399 0.70745 0.02100
C 	C 	0.34772 0.77845 0.69957 0.06900
C 	C 	0.31277 0.81861 0.68885 0.13000
C 	C 	0.24065 0.81535 0.68835 -0.11100
C 	C 	0.20509 0.77073 0.69615 0.13100
C 	C 	0.24125 0.72990 0.70491 0.06800
Br	Br	0.29117 0.72461 0.79177 -0.10900
Br	Br	0.47693 0.57740 0.66606 -0.16100
Br	Br	0.36474 0.87708 0.67276 -0.19200
Br	Br	0.19390 0.66818 0.71342 -0.11400
Br	Br	0.36133 0.62327 0.81650 -0.11500
Br	Br	0.39743 0.67472 0.64124 -0.11100
Br	Br	0.44418 0.78437 0.70392 -0.10400
Br	Br	0.10648 0.76576 0.69607 -0.13200
C 	C 	0.03990 0.88003 0.27208 -0.10500
C 	C 	0.05131 0.85070 0.30061 0.13200
C 	C 	0.08952 0.80737 0.29289 0.06900
C 	C 	0.11117 0.79139 0.25678 0.02100
C 	C 	0.09543 0.81925 0.22848 0.07100
C 	C 	0.06390 0.86495 0.23596 0.12900
C 	C 	0.15506 0.74742 0.24833 0.02000
C 	C 	0.22851 0.75176 0.23558 0.06900
C 	C 	0.26952 0.71029 0.22480 0.12600
C 	C 	0.23876 0.66398 0.23122 -0.10600
C 	C 	0.16602 0.65959 0.24679 0.12800
C 	C 	0.12359 0.70126 0.25301 0.06900
Br	Br	0.11686 0.79457 0.17963 -0.10700
Br	Br	0.01504 0.87018 0.35023 -0.11300
Br	Br	0.36610 0.71713 0.19853 -0.14200
Br	Br	0.02239 0.69524 0.26703 -0.10400
Br	Br	0.05908 0.90851 0.19682 -0.14100
Br	Br	0.11479 0.77088 0.33150 -0.10600
Br	Br	0.27292 0.81449 0.23352 -0.11000
Br	Br	0.12570 0.59720 0.26234 -0.12100
C 	C 	0.57090 0.68730 0.22759 -0.10600
C 	C 	0.58706 0.69573 0.26146 0.12900
C 	C 	0.61707 0.74006 0.26832 0.06900
C 	C 	0.62819 0.77684 0.24187 0.02100
C 	C 	0.60937 0.76909 0.20852 0.07100
C 	C 	0.58272 0.72381 0.20098 0.13100
C 	C 	0.66260 0.82276 0.24857 0.02200
C 	C 	0.62233 0.86027 0.26838 0.06800
C 	C 	0.65617 0.90122 0.27869 0.12900
C 	C 	0.73000 0.90573 0.26768 -0.11300
C 	C 	0.76950 0.87004 0.24542 0.13200
C 	C 	0.73621 0.82787 0.23686 0.06700
Br	Br	0.62002 0.82059 0.17334 -0.10500
Br	Br	0.56720 0.64662 0.29861 -0.16000
Br	Br	0.60179 0.95039 0.30878 -0.17600
Br	Br	0.79153 0.77639 0.20996 -0.11100
Br	Br	0.56584 0.71084 0.15365 -0.12500
Br	Br	0.64421 0.75025 0.31367 -0.11100
Br	Br	0.52096 0.85520 0.28156 -0.10500
Br	Br	0.86833 0.88009 0.22514 -0.14300
C 	C 	0.55076 0.40086 0.25455 -0.11600
C 	C 	0.51303 0.35736 0.26335 0.13300
C 	C 	0.54560 0.31737 0.27577 0.06800
C 	C 	0.61554 0.32115 0.27986 0.02200
C 	C 	0.65083 0.36593 0.27423 0.06700
C 	C 	0.61914 0.40552 0.26084 0.13200
C 	C 	0.65461 0.27709 0.28586 0.02000
C 	C 	0.65477 0.26190 0.32133 0.06900
C 	C 	0.69263 0.22024 0.32683 0.13000
C 	C 	0.72962 0.19354 0.29685 -0.10900
C 	C 	0.73104 0.20950 0.26144 0.12300
C 	C 	0.69317 0.25103 0.25593 0.06900
Br	Br	0.74369 0.37233 0.28369 -0.10600
Br	Br	0.41677 0.35269 0.25835 -0.13700
Br	Br	0.69552 0.20040 0.37527 -0.11800
Br	Br	0.69344 0.27217 0.20735 -0.11500
Br	Br	0.67126 0.46500 0.24882 -0.20100
Br	Br	0.49554 0.25689 0.28608 -0.11300
Br	Br	0.60296 0.29819 0.36225 -0.10700
Br	Br	0.78427 0.17390 0.22047 -0.16900
C 	C 	0.28593 0.38150 0.18803 -0.10200
C 	C 	0.22246 0.38474 0.21458 0.12600
C 	C 	0.17800 0.34418 0.22249 0.07100
C 	C 	0.19873 0.29957 0.20537 0.02100
C 	C 	0.26266 0.29610 0.17918 0.07000
C 	C 	0.30511 0.33741 0.16966 0.13200
C 	C 	0.15426 0.25601 0.21568 0.02100
C 	C 	0.16059 0.22861 0.24613 0.06900
C 	C 	0.11623 0.18859 0.25694 0.12500
C 	C 	0.06837 0.17408 0.23609 -0.10700
C 	C 	0.06357 0.20059 0.20493 0.13000
C 	C 	0.10501 0.24237 0.19539 0.06800
Br	Br	0.29234 0.23455 0.15680 -0.11000
Br	Br	0.19764 0.44437 0.24094 -0.17200
Br	Br	0.11926 0.15448 0.30102 -0.15700
Br	Br	0.09410 0.28125 0.15472 -0.10700
Br	Br	0.38704 0.33430 0.13007 -0.11000
Br	Br	0.08847 0.34959 0.25671 -0.10700
Br	Br	0.23069 0.24575 0.27272 -0.10500
Br	Br	0.00333 0.17826 0.17426 -0.11900
C 	C 	0.45872 0.54128 0.07595 -0.10900
C 	C 	0.52602 0.55575 0.05663 0.12900
C 	C 	0.54339 0.55288 0.01857 0.06900
C 	C 	0.49364 0.53493 0.00004 0.02100
C 	C 	0.42398 0.52591 0.01913 0.06700
C 	C 	0.40636 0.52948 0.05709 0.13200
C 	C 	0.51684 0.51897 0.96190 0.02000
C 	C 	0.50843 0.54969 0.93354 0.07000
C 	C 	0.52367 0.53251 0.89763 0.12400
C 	C 	0.55146 0.48546 0.88982 -0.10700
C 	C 	0.56328 0.45575 0.91819 0.12400
C 	C 	0.54416 0.47201 0.95419 0.06700
Br	Br	0.35392 0.50604 0.99332 -0.11100
Br	Br	0.59414 0.57925 0.08234 -0.15300
Br	Br	0.50275 0.57244 0.85963 -0.14800
Br	Br	0.55424 0.42961 0.99323 -0.11300
Br	Br	0.31110 0.51689 0.08333 -0.16900
Br	Br	0.63599 0.57144 0.99183 -0.10900
Br	Br	0.47572 0.61519 0.94400 -0.10100
Br	Br	0.60867 0.39372 0.90775 -0.11800
