data_crystal

_cell_length_a 25.02487
_cell_length_b 21.96961
_cell_length_c 31.89072
_cell_angle_alpha 103.98933
_cell_angle_beta  115.91682
_cell_angle_gamma 111.60190

_symmetry_space_group_name_	'P 1'
_symmetry_space_group_name_H-M	'P 1'

loop_
_symmetry_equiv_pos_as_xyz
  x,y,z

loop_
_atom_site_label
_atom_site_type_symbol
_atom_site_fract_x
_atom_site_fract_y
_atom_site_fract_z
_atom_site_charge
C 	C 	0.74816 0.52436 0.96677 -0.01800
C 	C 	0.79579 0.52466 0.01170 -0.01800
C 	C 	0.77514 0.46174 0.01860 -0.07300
C 	C 	0.70727 0.39737 0.98032 0.07900
C 	C 	0.65889 0.39743 0.93572 -0.07600
C 	C 	0.67921 0.46089 0.92926 -0.02000
N 	N 	0.68966 0.33074 0.98575 -0.14400
C 	C 	0.49109 0.21028 0.95964 -0.01800
C 	C 	0.49837 0.18718 0.91849 -0.02000
C 	C 	0.56293 0.22763 0.92621 -0.07500
C 	C 	0.62120 0.29117 0.97558 0.07800
C 	C 	0.61348 0.31440 0.01635 -0.07200
C 	C 	0.54880 0.27433 0.00846 -0.01800
C 	C 	0.76623 0.20747 0.93537 -0.01600
C 	C 	0.76369 0.21196 0.97899 -0.02000
C 	C 	0.73630 0.25053 0.99422 -0.07400
C 	C 	0.71067 0.28450 0.96582 0.08100
C 	C 	0.70852 0.27529 0.91964 -0.07500
C 	C 	0.73707 0.23767 0.90498 -0.02000
H 	H 	0.84929 0.57315 0.04073 0.03200
H 	H 	0.81257 0.46209 0.05298 0.05000
H 	H 	0.60651 0.34789 0.90548 0.04700
H 	H 	0.64183 0.46030 0.89468 0.03000
H 	H 	0.45390 0.13822 0.88049 0.03200
H 	H 	0.56757 0.21005 0.89387 0.04800
H 	H 	0.65798 0.36330 0.05434 0.04800
H 	H 	0.54331 0.29334 0.04015 0.03200
H 	H 	0.78561 0.18809 0.00236 0.03800
H 	H 	0.73688 0.25606 0.02912 0.05200
H 	H 	0.68534 0.29746 0.89545 0.04800
H 	H 	0.73798 0.23347 0.87077 0.03200
C 	C 	0.71698 0.49782 0.44838 -0.01600
C 	C 	0.76466 0.49513 0.49139 -0.02000
C 	C 	0.74270 0.43132 0.49716 -0.07400
C 	C 	0.67328 0.36919 0.45975 0.08100
C 	C 	0.62494 0.37233 0.41711 -0.07600
C 	C 	0.64676 0.43652 0.41166 -0.02100
N 	N 	0.65354 0.30180 0.46419 -0.14400
C 	C 	0.46003 0.19707 0.44794 -0.01500
C 	C 	0.46206 0.17010 0.40438 -0.02000
C 	C 	0.52508 0.20515 0.40900 -0.07500
C 	C 	0.58707 0.26702 0.45765 0.08000
C 	C 	0.58470 0.29396 0.50092 -0.07300
C 	C 	0.52154 0.25938 0.49612 -0.02000
C 	C 	0.71431 0.16756 0.40247 -0.01700
C 	C 	0.71483 0.17235 0.44731 -0.01800
C 	C 	0.69220 0.21430 0.46614 -0.07200
C 	C 	0.66837 0.25146 0.44022 0.08100
C 	C 	0.66267 0.24181 0.39273 -0.07500
C 	C 	0.68650 0.20079 0.37444 -0.02000
H 	H 	0.81908 0.54202 0.51981 0.03300
H 	H 	0.78010 0.42932 0.53006 0.05000
H 	H 	0.57132 0.32451 0.38757 0.04600
H 	H 	0.60944 0.43824 0.37850 0.03000
H 	H 	0.41471 0.12233 0.36691 0.03200
H 	H 	0.52564 0.18481 0.37481 0.04800
H 	H 	0.63209 0.34165 0.53838 0.04800
H 	H 	0.52023 0.28132 0.52971 0.03200
H 	H 	0.73582 0.14633 0.46896 0.03700
H 	H 	0.69543 0.22015 0.50202 0.05100
H 	H 	0.64053 0.26635 0.37036 0.04800
H 	H 	0.68497 0.19639 0.33931 0.03200
C 	C 	0.35274 0.55826 0.99187 -0.02200
C 	C 	0.38233 0.61715 0.04085 -0.01600
C 	C 	0.41977 0.69121 0.05211 -0.07700
C 	C 	0.42794 0.70735 0.01460 0.08500
C 	C 	0.39927 0.64822 0.96575 -0.08200
C 	C 	0.36163 0.57407 0.95445 -0.01800
N 	N 	0.46295 0.78421 0.02589 -0.14600
C 	C 	0.62888 0.86039 0.00597 -0.00800
C 	C 	0.55897 0.82964 0.96320 -0.02600
C 	C 	0.50411 0.80458 0.96940 -0.07700
C 	C 	0.51840 0.80843 0.01819 0.08200
C 	C 	0.58811 0.83892 0.06071 -0.07400
C 	C 	0.64316 0.86541 0.05489 -0.02500
C 	C 	0.32688 0.86489 0.98710 -0.02100
C 	C 	0.39321 0.90716 0.03642 -0.01500
C 	C 	0.43873 0.88151 0.04810 -0.07700
C 	C 	0.41844 0.81336 0.01077 0.08700
C 	C 	0.35286 0.77227 0.96057 -0.08200
C 	C 	0.30731 0.79783 0.94899 -0.01800
H 	H 	0.37581 0.60551 0.07001 0.02900
H 	H 	0.44166 0.73626 0.08977 0.04700
H 	H 	0.40496 0.65953 0.93629 0.04700
H 	H 	0.33932 0.52898 0.91664 0.03000
H 	H 	0.54705 0.82460 0.92507 0.03100
H 	H 	0.45063 0.78132 0.93619 0.04500
H 	H 	0.59967 0.84280 0.09853 0.04300
H 	H 	0.69689 0.88976 0.08838 0.02800
H 	H 	0.40918 0.95946 0.06586 0.02800
H 	H 	0.48922 0.91371 0.08668 0.04700
H 	H 	0.33715 0.72079 0.93064 0.04700
H 	H 	0.25643 0.76507 0.91062 0.02900
C 	C 	0.31702 0.53414 0.47371 -0.01600
C 	C 	0.34803 0.59135 0.52392 -0.02200
C 	C 	0.38620 0.66616 0.53693 -0.07400
C 	C 	0.39363 0.68474 0.49992 0.07900
C 	C 	0.36332 0.62733 0.44971 -0.07500
C 	C 	0.32500 0.55240 0.43669 -0.02200
N 	N 	0.42997 0.76244 0.51325 -0.14400
C 	C 	0.58729 0.83236 0.48399 -0.01600
C 	C 	0.52032 0.81790 0.44819 -0.02200
C 	C 	0.46799 0.79391 0.45702 -0.07500
C 	C 	0.48253 0.78530 0.50243 0.07800
C 	C 	0.54952 0.79996 0.53814 -0.07300
C 	C 	0.60156 0.82312 0.52895 -0.02200
C 	C 	0.29845 0.84915 0.48337 -0.01800
C 	C 	0.36508 0.88853 0.53211 -0.02200
C 	C 	0.40886 0.86070 0.54106 -0.07400
C 	C 	0.38634 0.79314 0.50156 0.07900
C 	C 	0.31984 0.75432 0.45230 -0.07500
C 	C 	0.27626 0.78224 0.44341 -0.02100
H 	H 	0.34211 0.57782 0.55275 0.03000
H 	H 	0.40934 0.70991 0.57559 0.04600
H 	H 	0.36848 0.64070 0.42065 0.04600
H 	H 	0.30156 0.50863 0.39791 0.03000
H 	H 	0.50867 0.82475 0.41332 0.03000
H 	H 	0.41620 0.78113 0.42829 0.04700
H 	H 	0.56116 0.79329 0.57305 0.04500
H 	H 	0.65275 0.83330 0.55654 0.03000
H 	H 	0.38287 0.94052 0.56307 0.02900
H 	H 	0.45987 0.89096 0.57903 0.04600
H 	H 	0.30230 0.70326 0.42080 0.04600
H 	H 	0.22507 0.75172 0.40550 0.03100
Zn	Zn	0.18355 0.15620 0.00143 1.18600
Zn	Zn	0.06335 0.10365 0.89066 1.19200
O 	O 	0.04612 0.97681 0.80264 -0.48800
O 	O 	0.02389 0.06960 0.81245 -0.45100
O 	O 	0.05732 0.88992 0.87809 -0.50800
C 	C 	0.24082 0.10908 0.95178 0.31100
O 	O 	0.99768 0.00204 0.87296 -0.84300
C 	C 	0.19319 0.26230 0.95851 0.31400
O 	O 	0.25511 0.14299 0.99873 -0.46700
O 	O 	0.17668 0.07688 0.90895 -0.37000
O 	O 	0.08930 0.11665 0.96400 -0.79200
O 	O 	0.11836 0.98987 0.95928 -0.47000
O 	O 	0.13566 0.20669 0.91107 -0.45200
O 	O 	0.21464 0.25379 0.00129 -0.46200
Zn	Zn	0.87503 0.88684 0.90108 1.17400
Zn	Zn	0.00277 0.92741 0.99858 1.18200
Zn	Zn	0.02727 0.01512 0.94310 1.21200
C 	C 	0.87250 0.78014 0.94439 0.32000
C 	C 	0.84697 0.94617 0.97144 0.31600
O 	O 	0.93831 0.04554 0.92845 -0.45900
Zn	Zn	0.01586 0.06902 0.03748 1.19700
O 	O 	0.94200 0.82285 0.97874 -0.45800
O 	O 	0.83849 0.79075 0.90445 -0.46400
O 	O 	0.82390 0.92067 0.92138 -0.48200
O 	O 	0.91085 0.96402 0.00708 -0.47300
C 	C 	0.05126 0.01452 0.11260 0.32700
O 	O 	0.96454 0.91385 0.92304 -0.79300
C 	C 	0.94161 0.09965 0.96068 0.32300
O 	O 	0.04419 0.95916 0.07785 -0.44700
O 	O 	0.05658 0.07340 0.10678 -0.46800
O 	O 	0.97557 0.12030 0.01155 -0.48400
O 	O 	0.05661 0.02888 0.01304 -0.89500
Zn	Zn	0.01707 0.93576 0.84301 1.17900
C 	C 	0.02759 0.01852 0.78430 0.32300
C 	C 	0.11144 0.93121 0.92827 0.31800
H 	H 	0.10824 0.05391 0.03920 0.16000
H 	H 	0.94745 0.98556 0.84984 0.13200
Zn	Zn	0.14568 0.13907 0.48693 1.18500
Zn	Zn	0.02985 0.07774 0.37263 1.19200
O 	O 	0.02477 0.94958 0.29291 -0.47100
O 	O 	0.99850 0.03949 0.29597 -0.41800
O 	O 	0.03104 0.87037 0.37257 -0.50800
C 	C 	0.21073 0.09768 0.44330 0.31200
O 	O 	0.96623 0.97623 0.35613 -0.87300
C 	C 	0.15507 0.23897 0.43942 0.31800
O 	O 	0.22202 0.13161 0.48902 -0.46600
O 	O 	0.14662 0.06050 0.39936 -0.37500
O 	O 	0.05052 0.09428 0.44542 -0.78800
O 	O 	0.08789 0.97451 0.45021 -0.46700
O 	O 	0.10021 0.18114 0.39194 -0.45500
O 	O 	0.17291 0.23407 0.48339 -0.46700
Zn	Zn	0.84066 0.85845 0.38138 1.17400
Zn	Zn	0.96570 0.90945 0.48399 1.19000
Zn	Zn	0.99143 0.99273 0.42616 1.21600
C 	C 	0.84079 0.75689 0.42877 0.32200
C 	C 	0.80097 0.91252 0.44448 0.31700
O 	O 	0.89568 0.01467 0.40214 -0.46000
Zn	Zn	0.96766 0.04500 0.51328 1.20700
O 	O 	0.90909 0.80495 0.46644 -0.45800
O 	O 	0.80755 0.76370 0.38648 -0.46700
O 	O 	0.78243 0.88599 0.39548 -0.48600
O 	O 	0.86557 0.93692 0.48376 -0.47500
C 	C 	0.00894 0.00348 0.59563 0.33100
O 	O 	0.93240 0.89147 0.40807 -0.79500
C 	C 	0.89189 0.06574 0.43029 0.32700
O 	O 	0.00071 0.94506 0.56267 -0.45200
O 	O 	0.00790 0.05722 0.58462 -0.48100
O 	O 	0.92258 0.08893 0.48128 -0.48800
O 	O 	0.01610 0.00995 0.49580 -0.90300
Zn	Zn	0.99064 0.91127 0.33209 1.18900
C 	C 	0.01224 0.99374 0.27422 0.30000
C 	C 	0.08406 0.91555 0.42281 0.32000
H 	H 	0.06751 0.03835 0.52409 0.15900
H 	H 	0.91572 0.95721 0.33082 0.14500
C 	C 	0.02279 0.01651 0.73635 -0.10700
C 	C 	0.95826 0.99350 0.68991 0.08400
C 	C 	0.95478 0.98915 0.64421 -0.02700
C 	C 	0.01412 0.00593 0.64368 -0.10600
C 	C 	0.07846 0.02826 0.68988 0.08500
C 	C 	0.08217 0.03321 0.73578 -0.02900
H 	H 	0.90542 0.97196 0.60875 0.04400
H 	H 	0.13152 0.05027 0.77118 0.05000
N 	N 	0.89529 0.97259 0.68819 -0.15700
N 	N 	0.14058 0.04639 0.69078 -0.14600
C 	C 	0.85843 0.89468 0.67625 -0.07900
H 	H 	0.84455 0.85695 0.63778 0.04300
H 	H 	0.80851 0.87947 0.67261 0.02700
H 	H 	0.89131 0.88618 0.70847 0.01100
C 	C 	0.18039 0.12463 0.70423 -0.08800
H 	H 	0.14873 0.13591 0.67346 0.03900
H 	H 	0.22918 0.13746 0.70659 0.03600
H 	H 	0.19640 0.16215 0.74367 0.04700
H 	H 	0.90555 0.00852 0.72286 0.09100
H 	H 	0.12849 0.01059 0.65514 0.07800
C 	C 	0.04829 0.00785 0.15653 -0.09800
C 	C 	0.08856 0.07147 0.20646 0.08300
C 	C 	0.07461 0.06679 0.24410 -0.02800
C 	C 	0.02270 0.99869 0.23305 -0.10800
C 	C 	0.98481 0.93437 0.18420 0.09200
C 	C 	0.99830 0.93917 0.14640 -0.03600
H 	H 	0.10537 0.11581 0.28241 0.04400
H 	H 	0.96795 0.88993 0.10838 0.04700
N 	N 	0.14486 0.14047 0.21935 -0.13900
N 	N 	0.93173 0.86413 0.17274 -0.15000
C 	C 	0.21338 0.14997 0.25213 -0.09000
H 	H 	0.22508 0.15478 0.29109 0.04400
H 	H 	0.25555 0.20189 0.25966 0.04000
H 	H 	0.21433 0.10233 0.23117 0.04800
C 	C 	0.86083 0.84839 0.13791 -0.09200
H 	H 	0.85612 0.89446 0.15603 0.04100
H 	H 	0.82132 0.79629 0.13227 0.03100
H 	H 	0.84843 0.84033 0.09826 0.04300
H 	H 	0.14439 0.18574 0.23901 0.07400
H 	H 	0.93597 0.82087 0.15523 0.07200
C 	C 	0.20319 0.41001 0.42078 -0.07400
C 	C 	0.27655 0.45516 0.46018 0.03200
C 	C 	0.31040 0.42656 0.48946 -0.07400
C 	C 	0.27093 0.35483 0.48119 0.02000
C 	C 	0.19714 0.31086 0.44351 -0.10200
C 	C 	0.16363 0.33802 0.41236 0.02000
H 	H 	0.17659 0.43145 0.39779 0.04400
H 	H 	0.36710 0.46057 0.51945 0.04400
H 	H 	0.29757 0.33383 0.50465 0.02600
H 	H 	0.10680 0.30448 0.38294 0.02300
C 	C 	0.67762 0.82889 0.41512 0.02200
C 	C 	0.74529 0.89425 0.45355 -0.10400
C 	C 	0.76062 0.93989 0.50177 0.02100
C 	C 	0.70892 0.92019 0.51152 -0.07400
C 	C 	0.64155 0.85439 0.47328 0.03300
C 	C 	0.62621 0.80897 0.42503 -0.07400
H 	H 	0.66531 0.79256 0.37805 0.02500
H 	H 	0.81252 0.99048 0.53170 0.02200
H 	H 	0.72127 0.95592 0.54880 0.04500
H 	H 	0.57471 0.75771 0.39547 0.04400
C 	C 	0.23365 0.89907 0.43421 -0.07700
C 	C 	0.25174 0.87781 0.47391 0.03400
C 	C 	0.21997 0.87724 0.50096 -0.07900
C 	C 	0.16759 0.89371 0.48625 0.02300
C 	C 	0.14643 0.91028 0.44424 -0.11700
C 	C 	0.18096 0.91482 0.41924 0.02500
H 	H 	0.25878 0.90101 0.41377 0.04600
H 	H 	0.23401 0.86149 0.53199 0.04300
H 	H 	0.14163 0.89071 0.50609 0.00500
H 	H 	0.16566 0.92867 0.38725 0.02100
C 	C 	0.23951 0.43390 0.94017 -0.07400
C 	C 	0.31270 0.48006 0.97999 0.03000
C 	C 	0.34699 0.45290 0.01050 -0.07100
C 	C 	0.30822 0.38110 0.00245 0.02300
C 	C 	0.23460 0.33568 0.96384 -0.10300
C 	C 	0.20060 0.36195 0.93207 0.01900
H 	H 	0.21256 0.45434 0.91634 0.04300
H 	H 	0.40356 0.48780 0.04093 0.04300
H 	H 	0.33535 0.36100 0.02651 0.02700
H 	H 	0.14391 0.32752 0.90208 0.02500
C 	C 	0.73261 0.85968 0.01369 -0.06900
C 	C 	0.68688 0.88521 0.99911 0.02500
C 	C 	0.69625 0.93393 0.97765 -0.07100
C 	C 	0.74955 0.95516 0.96957 0.01900
C 	C 	0.79485 0.92920 0.98392 -0.10500
C 	C 	0.78677 0.88229 0.00671 0.02400
H 	H 	0.72561 0.82155 0.02977 0.04200
H 	H 	0.66210 0.95499 0.96699 0.04200
H 	H 	0.75550 0.99162 0.95213 0.02100
H 	H 	0.82126 0.86172 0.01768 0.02500
C 	C 	0.25057 0.89598 0.00607 -0.06200
C 	C 	0.27723 0.88993 0.97562 0.02500
C 	C 	0.25298 0.90318 0.93210 -0.07300
C 	C 	0.19998 0.91848 0.91748 0.02100
C 	C 	0.17124 0.92144 0.94656 -0.11000
C 	C 	0.19800 0.91212 0.99173 0.00500
H 	H 	0.26924 0.88631 0.03995 0.04000
H 	H 	0.27423 0.90019 0.90902 0.04400
H 	H 	0.18086 0.92748 0.88330 0.02100
H 	H 	0.17669 0.91516 0.01478 0.01300
C 	C 	0.72419 0.06015 0.37049 -0.08100
C 	C 	0.75160 0.13681 0.38972 0.03900
C 	C 	0.82149 0.18563 0.40828 -0.07700
C 	C 	0.86650 0.15988 0.41525 0.02800
C 	C 	0.84156 0.08514 0.40319 -0.11900
C 	C 	0.76904 0.03425 0.37682 0.04100
H 	H 	0.66966 0.02162 0.35465 0.05100
H 	H 	0.84262 0.24470 0.42186 0.04900
H 	H 	0.92208 0.19925 0.43423 0.01600
H 	H 	0.74863 0.97582 0.36541 0.01200
C 	C 	0.77457 0.63515 0.48184 -0.07200
C 	C 	0.74152 0.56364 0.44075 0.03400
C 	C 	0.73683 0.55571 0.39401 -0.07400
C 	C 	0.76713 0.61890 0.38924 0.02400
C 	C 	0.80306 0.69040 0.43140 -0.10200
C 	C 	0.80566 0.69827 0.47733 0.02300
H 	H 	0.77753 0.64182 0.51774 0.04400
H 	H 	0.71148 0.50077 0.36207 0.04500
H 	H 	0.76464 0.61235 0.35352 0.02200
H 	H 	0.83244 0.75335 0.50976 0.02900
C 	C 	0.33470 0.16031 0.40429 -0.07200
C 	C 	0.39283 0.16258 0.44240 0.03300
C 	C 	0.38829 0.13686 0.47771 -0.07200
C 	C 	0.32760 0.11304 0.47683 0.02100
C 	C 	0.27078 0.11394 0.44025 -0.09800
C 	C 	0.27377 0.13566 0.40301 0.02000
H 	H 	0.33763 0.17991 0.37681 0.04300
H 	H 	0.43242 0.13706 0.50661 0.04700
H 	H 	0.32512 0.09488 0.50501 0.03000
H 	H 	0.22996 0.13624 0.37444 0.03000
C 	C 	0.77761 0.10250 0.90053 -0.07400
C 	C 	0.80710 0.17963 0.92600 0.03500
C 	C 	0.87968 0.22945 0.95203 -0.07400
C 	C 	0.92373 0.20254 0.95857 0.02500
C 	C 	0.89524 0.12564 0.93853 -0.11200
C 	C 	0.82160 0.07554 0.90628 0.02200
H 	H 	0.72134 0.06356 0.87945 0.04700
H 	H 	0.90265 0.28917 0.97083 0.04800
H 	H 	0.98046 0.24162 0.98238 0.02000
H 	H 	0.79888 0.01592 0.88911 0.02600
C 	C 	0.80479 0.66134 0.99844 -0.07600
C 	C 	0.77171 0.58928 0.95797 0.03500
C 	C 	0.76680 0.58008 0.91099 -0.07500
C 	C 	0.79710 0.64254 0.90550 0.02400
C 	C 	0.83348 0.71453 0.94723 -0.10200
C 	C 	0.83640 0.72365 0.99338 0.02100
H 	H 	0.80785 0.66908 0.03448 0.04400
H 	H 	0.74152 0.52476 0.87951 0.04500
H 	H 	0.79449 0.63503 0.86965 0.02200
H 	H 	0.86424 0.77904 0.02570 0.02200
C 	C 	0.36365 0.16625 0.91142 -0.07200
C 	C 	0.42208 0.17025 0.95073 0.03500
C 	C 	0.41644 0.14325 0.98523 -0.07400
C 	C 	0.35504 0.11853 0.98339 0.02000
C 	C 	0.29874 0.12009 0.94678 -0.09700
C 	C 	0.30205 0.14084 0.90925 0.02000
H 	H 	0.36718 0.18615 0.88421 0.04500
H 	H 	0.46066 0.14427 0.01481 0.04900
H 	H 	0.35208 0.10041 0.01147 0.03300
H 	H 	0.25841 0.14124 0.88030 0.03200
