data_crystal

_cell_length_a 33.78056
_cell_length_b 34.07901
_cell_length_c 26.28013
_cell_angle_alpha 95.52516
_cell_angle_beta  95.51801
_cell_angle_gamma 125.44105

_symmetry_space_group_name_	'P 1'
_symmetry_space_group_name_H-M	'P 1'

loop_
_symmetry_equiv_pos_as_xyz
  x,y,z

loop_
_atom_site_label
_atom_site_type_symbol
_atom_site_fract_x
_atom_site_fract_y
_atom_site_fract_z
_atom_site_charge
C 	C 	0.97944 0.02788 0.99393 0.03300
C 	C 	0.05040 0.02868 0.98194 0.03100
C 	C 	0.94999 0.00032 0.42402 0.02800
C 	C 	0.02535 0.00584 0.42818 0.02900
H 	H 	0.90624 0.01485 0.49729 0.03500
H 	H 	0.08268 0.00955 0.89918 0.03500
C 	C 	0.92476 0.02398 0.42073 -0.00400
H 	H 	0.90680 0.01326 0.92230 0.03500
H 	H 	0.09754 0.03235 0.50877 0.03600
C 	C 	0.91791 0.04051 0.95632 -0.03200
C 	C 	0.00074 0.02751 0.42294 -0.07600
C 	C 	0.90511 0.02979 0.46306 -0.03700
C 	C 	0.11249 0.03915 0.92932 -0.03600
C 	C 	0.07893 0.03483 0.42868 -0.00400
H 	H 	0.93798 0.03906 0.34363 0.03700
C 	C 	0.92314 0.04358 0.37662 -0.03700
H 	H 	0.07254 0.04375 0.34866 0.03700
C 	C 	0.11148 0.04471 0.47376 -0.03600
C 	C 	0.02855 0.05321 0.98646 -0.07900
C 	C 	0.02309 0.97886 0.98519 -0.07800
C 	C 	0.97408 0.95348 0.99283 0.03400
C 	C 	0.95236 0.97810 0.99733 -0.08300
H 	H 	0.04944 0.09163 0.98355 0.04900
H 	H 	0.03991 0.95985 0.98159 0.04900
H 	H 	0.91448 0.95857 0.00335 0.05400
C 	C 	0.99911 0.95678 0.43414 -0.07400
C 	C 	0.94846 0.92946 0.43554 0.03000
C 	C 	0.92386 0.95122 0.43025 -0.07500
H 	H 	0.02117 0.06565 0.41894 0.04900
H 	H 	0.01809 0.93992 0.43780 0.04900
H 	H 	0.88471 0.93019 0.43141 0.04900
Cu	Cu	0.65113 0.26073 0.99179 0.92600
Cu	Cu	0.69364 0.26816 0.88316 0.86900
Cu	Cu	0.68299 0.34353 0.93108 0.89600
Cu	Cu	0.65046 0.35042 0.03149 0.89400
C 	C 	0.66300 0.29293 0.10062 0.29200
O 	O 	0.57843 0.23140 0.98830 -0.36700
C 	C 	0.66840 0.31501 0.81716 0.29300
O 	O 	0.69134 0.33751 0.00213 -0.63800
O 	O 	0.64781 0.27087 0.91911 -0.64200
O 	O 	0.68180 0.22539 0.98670 -0.37700
O 	O 	0.73827 0.27865 0.94173 -0.44300
O 	O 	0.63969 0.31215 0.08825 -0.38600
O 	O 	0.72066 0.41413 0.94765 -0.38400
C 	C 	0.71419 0.43879 0.98364 0.28500
C 	C 	0.55988 0.25350 0.97066 0.28200
O 	O 	0.58974 0.29996 0.96738 -0.39600
O 	O 	0.67996 0.41635 0.01256 -0.39300
O 	O 	0.66473 0.26401 0.06514 -0.36400
C 	C 	0.72407 0.24501 0.97063 0.28900
O 	O 	0.68643 0.35067 0.85773 -0.39100
O 	O 	0.66479 0.27491 0.82177 -0.42200
H 	H 	0.72618 0.35782 0.02058 0.16300
H 	H 	0.61403 0.25212 0.89811 0.17000
Cu	Cu	0.72604 0.33698 0.42940 0.92700
Cu	Cu	0.72254 0.29894 0.54012 0.86900
Cu	Cu	0.64354 0.30504 0.49177 0.89700
Cu	Cu	0.63257 0.33277 0.38952 0.89300
C 	C 	0.69142 0.32172 0.32031 0.29300
O 	O 	0.75289 0.40812 0.43032 -0.36600
C 	C 	0.67443 0.32280 0.60598 0.29400
O 	O 	0.64852 0.29497 0.42057 -0.64100
O 	O 	0.71709 0.34201 0.50245 -0.64100
O 	O 	0.76382 0.30878 0.43548 -0.37500
O 	O 	0.71219 0.25390 0.48268 -0.44200
O 	O 	0.67053 0.34341 0.33214 -0.38700
O 	O 	0.57211 0.26549 0.47662 -0.38500
C 	C 	0.54539 0.26896 0.43966 0.29000
C 	C 	0.72955 0.42551 0.44743 0.28200
O 	O 	0.68308 0.39502 0.45182 -0.39500
O 	O 	0.56620 0.30197 0.40940 -0.39600
O 	O 	0.72159 0.32157 0.35609 -0.36600
C 	C 	0.74572 0.26787 0.45328 0.28900
O 	O 	0.63790 0.30388 0.56573 -0.39100
O 	O 	0.71570 0.32824 0.60086 -0.42200
H 	H 	0.62879 0.26011 0.40334 0.16300
H 	H 	0.73538 0.37582 0.52240 0.17000
C 	C 	0.70071 0.36678 0.75012 -0.04700
C 	C 	0.66168 0.32426 0.76455 -0.09700
C 	C 	0.62041 0.28727 0.72610 0.10400
C 	C 	0.62286 0.28946 0.67333 -0.04700
C 	C 	0.66522 0.32881 0.65884 -0.09800
C 	C 	0.70234 0.36975 0.69737 0.10500
N 	N 	0.73933 0.41186 0.68393 -0.19900
H 	H 	0.73106 0.39654 0.77980 0.04800
H 	H 	0.59291 0.25931 0.64365 0.04700
N 	N 	0.57848 0.24984 0.73964 -0.19900
H 	H 	0.76776 0.44131 0.71253 0.08000
H 	H 	0.73894 0.41653 0.64523 0.08500
H 	H 	0.57411 0.24966 0.77845 0.08400
H 	H 	0.54883 0.22157 0.71105 0.08000
C 	C 	0.72006 0.33572 0.18529 -0.04800
C 	C 	0.67587 0.29372 0.15587 -0.09400
C 	C 	0.64111 0.25676 0.18119 0.11100
C 	C 	0.64927 0.26479 0.23578 -0.04800
C 	C 	0.69108 0.30905 0.26519 -0.09400
C 	C 	0.72802 0.34395 0.23987 0.11100
N 	N 	0.77057 0.38580 0.26761 -0.20100
H 	H 	0.74727 0.36331 0.16567 0.03500
H 	H 	0.62172 0.23752 0.25539 0.03500
N 	N 	0.59947 0.21407 0.15344 -0.20100
H 	H 	0.79706 0.41187 0.24850 0.08300
H 	H 	0.77825 0.39251 0.30821 0.10200
H 	H 	0.59292 0.20634 0.11285 0.10200
H 	H 	0.57346 0.18752 0.17254 0.08300
C 	C 	0.92142 0.87813 0.44291 -0.00400
C 	C 	0.93599 0.86718 0.48800 -0.03600
C 	C 	0.91448 0.81844 0.49239 -0.04300
C 	C 	0.87799 0.78019 0.45187 0.00700
C 	C 	0.86210 0.79108 0.40762 -0.04300
C 	C 	0.88379 0.83986 0.40313 -0.03600
C 	C 	0.85798 0.72892 0.45479 0.00600
C 	C 	0.86388 0.70136 0.41727 -0.04200
C 	C 	0.84494 0.65283 0.41995 -0.03700
C 	C 	0.82015 0.63147 0.46033 -0.00200
C 	C 	0.81483 0.65923 0.49827 -0.03700
C 	C 	0.83356 0.70771 0.49544 -0.04300
C 	C 	0.79755 0.57931 0.46132 0.02600
C 	C 	0.82694 0.56252 0.46390 -0.06800
C 	C 	0.80499 0.51251 0.46095 0.01300
C 	C 	0.75338 0.47880 0.45538 -0.09100
C 	C 	0.72425 0.49598 0.45455 0.01200
C 	C 	0.74622 0.54590 0.45735 -0.06700
H 	H 	0.96477 0.89649 0.51908 0.03600
H 	H 	0.92690 0.81043 0.52676 0.03800
H 	H 	0.83355 0.76178 0.37638 0.03900
H 	H 	0.87225 0.84793 0.36821 0.03700
H 	H 	0.88308 0.71755 0.38602 0.03800
H 	H 	0.84900 0.63163 0.39031 0.03700
H 	H 	0.79587 0.64312 0.52967 0.03700
H 	H 	0.82887 0.72870 0.52463 0.03800
H 	H 	0.86669 0.58813 0.46757 0.04400
H 	H 	0.82805 0.49999 0.46249 0.03100
H 	H 	0.68444 0.47055 0.45035 0.02800
H 	H 	0.72321 0.55849 0.45529 0.04500
C 	C 	0.76655 0.24030 0.44486 -0.09800
C 	C 	0.78786 0.24224 0.40091 0.01700
C 	C 	0.80813 0.21653 0.39363 -0.06900
C 	C 	0.80738 0.18886 0.43028 0.02700
C 	C 	0.78580 0.18662 0.47390 -0.07100
C 	C 	0.76548 0.21214 0.48118 0.01300
C 	C 	0.83000 0.16293 0.42369 -0.00300
C 	C 	0.80662 0.12041 0.38555 -0.03700
C 	C 	0.82510 0.09277 0.38310 -0.04300
C 	C 	0.86710 0.10752 0.41877 0.00700
C 	C 	0.89133 0.15088 0.45585 -0.04300
C 	C 	0.87283 0.17844 0.45832 -0.03700
C 	C 	0.88490 0.07688 0.41840 0.00700
C 	C 	0.90332 0.06995 0.37548 -0.04300
C 	C 	0.88521 0.05607 0.46187 -0.04300
H 	H 	0.78855 0.26342 0.37234 0.03800
H 	H 	0.82467 0.21838 0.35977 0.04700
H 	H 	0.78498 0.16524 0.50231 0.04300
H 	H 	0.74947 0.21052 0.51541 0.01300
H 	H 	0.77351 0.10815 0.35868 0.03700
H 	H 	0.80625 0.05945 0.35422 0.03800
H 	H 	0.92410 0.16286 0.48315 0.03800
H 	H 	0.89122 0.21134 0.48775 0.03500
H 	H 	0.90311 0.08576 0.34170 0.03900
H 	H 	0.87068 0.06086 0.49501 0.03800
C 	C 	0.49134 0.23988 0.43664 -0.08800
C 	C 	0.46023 0.22894 0.38965 0.01300
C 	C 	0.40924 0.20296 0.38722 -0.06800
C 	C 	0.38883 0.18756 0.43164 0.02600
C 	C 	0.41971 0.19790 0.47842 -0.06700
C 	C 	0.47071 0.22392 0.48096 0.01400
C 	C 	0.33522 0.16113 0.42937 -0.00200
C 	C 	0.31307 0.18482 0.42044 -0.03700
C 	C 	0.26245 0.16018 0.41966 -0.04200
C 	C 	0.23359 0.11164 0.42776 0.00600
C 	C 	0.25566 0.08780 0.43616 -0.04300
C 	C 	0.30627 0.11246 0.43700 -0.03700
C 	C 	0.18046 0.08605 0.42834 0.00700
C 	C 	0.14800 0.07677 0.38347 -0.04300
C 	C 	0.09742 0.05129 0.38365 -0.03600
C 	C 	0.16203 0.07024 0.47360 -0.04300
H 	H 	0.47552 0.24047 0.35501 0.02700
H 	H 	0.38560 0.19481 0.35084 0.04400
H 	H 	0.40424 0.18623 0.51294 0.04500
H 	H 	0.49420 0.23234 0.51756 0.03700
H 	H 	0.33518 0.22244 0.41463 0.03700
H 	H 	0.24576 0.17892 0.41328 0.03800
H 	H 	0.23360 0.05023 0.44212 0.03800
H 	H 	0.32303 0.09382 0.44366 0.03600
H 	H 	0.16189 0.08881 0.34833 0.03800
H 	H 	0.18687 0.07759 0.50855 0.03800
C 	C 	0.94525 0.90083 0.99518 -0.01000
C 	C 	0.90185 0.86650 0.95847 -0.03500
C 	C 	0.87604 0.81641 0.95889 -0.04300
C 	C 	0.89360 0.80019 0.99579 0.00400
C 	C 	0.93659 0.83456 0.03298 -0.04000
C 	C 	0.96219 0.88466 0.03280 -0.03100
C 	C 	0.86765 0.74721 0.99470 0.00400
C 	C 	0.84923 0.72713 0.03842 -0.04000
C 	C 	0.82504 0.67703 0.03750 -0.03300
C 	C 	0.81875 0.64651 0.99274 -0.00700
C 	C 	0.83713 0.66659 0.94901 -0.03600
C 	C 	0.86163 0.71674 0.95006 -0.04300
C 	C 	0.79228 0.59343 0.99136 0.02900
C 	C 	0.74318 0.56478 0.99901 -0.07200
C 	C 	0.71782 0.51440 0.99694 0.01100
C 	C 	0.74126 0.49209 0.98689 -0.08700
C 	C 	0.79043 0.52079 0.97936 0.01400
C 	C 	0.81587 0.57125 0.98175 -0.06900
H 	H 	0.88852 0.87861 0.92921 0.03600
H 	H 	0.84266 0.79019 0.93029 0.03800
H 	H 	0.95047 0.82241 0.06160 0.03900
H 	H 	0.99548 0.91089 0.06151 0.03700
H 	H 	0.85358 0.75032 0.07301 0.03800
H 	H 	0.81116 0.66191 0.07153 0.03600
H 	H 	0.83223 0.64330 0.91418 0.03700
H 	H 	0.87600 0.73195 0.91624 0.03800
H 	H 	0.72453 0.58150 0.00608 0.04900
H 	H 	0.67975 0.49261 0.00236 0.03500
H 	H 	0.80903 0.50408 0.97199 0.02800
H 	H 	0.85390 0.59312 0.97617 0.04400
C 	C 	0.95582 0.05306 0.99676 -0.01300
C 	C 	0.89416 0.06300 0.95977 -0.05100
C 	C 	0.90794 0.09809 0.00383 0.01400
C 	C 	0.94612 0.11088 0.04415 -0.04800
C 	C 	0.97003 0.08851 0.04057 -0.02800
C 	C 	0.88265 0.12167 0.00743 0.00500
C 	C 	0.90950 0.17257 0.01086 -0.04100
C 	C 	0.88494 0.19438 0.00991 -0.03900
C 	C 	0.83328 0.16542 0.00520 0.00200
C 	C 	0.80665 0.11474 0.00355 -0.03400
C 	C 	0.83124 0.09298 0.00481 -0.04200
C 	C 	0.80677 0.18749 0.99772 0.01900
C 	C 	0.81046 0.21001 0.95469 -0.06900
C 	C 	0.78397 0.22925 0.94626 0.01200
C 	C 	0.75325 0.22602 0.98070 -0.10200
C 	C 	0.74989 0.20385 0.02408 0.01900
C 	C 	0.77658 0.18470 0.03256 -0.06300
H 	H 	0.86509 0.05323 0.92820 0.03900
H 	H 	0.95701 0.13789 0.07834 0.04000
H 	H 	0.99918 0.09832 0.07203 0.03500
H 	H 	0.94919 0.19506 0.01304 0.03800
H 	H 	0.90588 0.23359 0.01165 0.03800
H 	H 	0.76679 0.09207 0.99994 0.03300
H 	H 	0.81026 0.05373 0.00275 0.03900
H 	H 	0.83336 0.21200 0.92735 0.04100
H 	H 	0.78668 0.24591 0.91243 0.01300
H 	H 	0.72677 0.20154 0.05127 0.03800
H 	H 	0.77368 0.16759 0.06606 0.04500
C 	C 	0.50576 0.22812 0.96096 -0.09100
C 	C 	0.48668 0.25540 0.95943 0.01100
C 	C 	0.43595 0.23212 0.95573 -0.06800
C 	C 	0.40363 0.18130 0.95318 0.02500
C 	C 	0.42229 0.15367 0.95259 -0.06800
C 	C 	0.47310 0.17694 0.95644 0.01200
C 	C 	0.35078 0.15754 0.95414 -0.00200
C 	C 	0.33019 0.13412 0.99550 -0.04100
C 	C 	0.28107 0.11450 0.99836 -0.04700
C 	C 	0.25214 0.11834 0.96006 0.00800
C 	C 	0.27250 0.14121 0.91834 -0.04400
C 	C 	0.32159 0.16063 0.91533 -0.03800
C 	C 	0.20047 0.09820 0.96358 0.00200
C 	C 	0.18993 0.11530 0.00722 -0.03900
C 	C 	0.14087 0.09374 0.01238 -0.03300
C 	C 	0.10194 0.05505 0.97384 -0.00900
C 	C 	0.16154 0.06054 0.92428 -0.04200
H 	H 	0.51124 0.29483 0.96259 0.02800
H 	H 	0.42191 0.25376 0.95616 0.04400
H 	H 	0.39752 0.11431 0.94995 0.04400
H 	H 	0.48706 0.15525 0.95658 0.03100
H 	H 	0.35248 0.13176 0.02579 0.04100
H 	H 	0.26554 0.09649 0.03044 0.04200
H 	H 	0.25044 0.14428 0.88853 0.03800
H 	H 	0.33708 0.17850 0.88317 0.03600
H 	H 	0.21975 0.14473 0.03749 0.03800
H 	H 	0.13311 0.10630 0.04685 0.03600
H 	H 	0.16928 0.04718 0.89039 0.03800
