data_crystal

_cell_length_a 25.84361
_cell_length_b 26.21546
_cell_length_c 21.96927
_cell_angle_alpha 95.47061
_cell_angle_beta  95.47193
_cell_angle_gamma 125.84942

_symmetry_space_group_name_	'P 1'
_symmetry_space_group_name_H-M	'P 1'

loop_
_symmetry_equiv_pos_as_xyz
  x,y,z

loop_
_atom_site_label
_atom_site_type_symbol
_atom_site_fract_x
_atom_site_fract_y
_atom_site_fract_z
_atom_site_charge
C 	C 	0.04753 0.02381 0.43552 0.01100
H 	H 	0.78990 0.12297 0.14383 0.03600
C 	C 	0.23302 0.12672 0.89112 -0.05600
C 	C 	0.04974 0.01147 0.00193 0.00300
C 	C 	0.03046 0.05132 0.01128 -0.05700
H 	H 	0.06570 0.10270 0.01545 0.04400
H 	H 	0.03969 0.10077 0.42922 0.04700
Cu	Cu	0.63914 0.23641 0.00464 0.92700
Cu	Cu	0.71198 0.26124 0.88510 0.86500
Cu	Cu	0.65489 0.32716 0.91789 0.89600
Cu	Cu	0.61011 0.33626 0.03564 0.89300
C 	C 	0.64416 0.28242 0.13045 0.31900
O 	O 	0.54094 0.18276 0.99562 -0.35800
C 	C 	0.66775 0.30223 0.78992 0.31200
O 	O 	0.67426 0.33247 0.00611 -0.64100
O 	O 	0.63430 0.24058 0.91492 -0.63900
O 	O 	0.69279 0.20478 0.01012 -0.37200
O 	O 	0.76627 0.28228 0.96199 -0.44000
O 	O 	0.60333 0.29388 0.10820 -0.39400
O 	O 	0.68241 0.41423 0.92384 -0.38400
C 	C 	0.67800 0.44657 0.97038 0.28400
C 	C 	0.50749 0.20064 0.96918 0.27500
O 	O 	0.53807 0.25964 0.95977 -0.39400
O 	O 	0.63656 0.41705 0.00792 -0.39400
O 	O 	0.65685 0.24958 0.09394 -0.36900
C 	C 	0.75049 0.23772 0.99502 0.29100
O 	O 	0.64172 0.32012 0.82724 -0.38600
O 	O 	0.67855 0.26076 0.80317 -0.42300
H 	H 	0.71973 0.36740 0.02645 0.16100
H 	H 	0.59280 0.20570 0.88706 0.17500
Cu	Cu	0.73292 0.34082 0.41012 0.92700
Cu	Cu	0.73415 0.26876 0.52435 0.87200
Cu	Cu	0.65302 0.31215 0.51479 0.89300
Cu	Cu	0.63089 0.37027 0.41266 0.89400
C 	C 	0.66841 0.34313 0.29693 0.31400
O 	O 	0.78778 0.43816 0.42363 -0.35800
C 	C 	0.71249 0.31006 0.63690 0.31800
O 	O 	0.63890 0.30476 0.42573 -0.63700
O 	O 	0.74200 0.34220 0.50176 -0.63600
O 	O 	0.76280 0.28748 0.38533 -0.36100
O 	O 	0.69991 0.21751 0.44453 -0.44200
O 	O 	0.65899 0.38059 0.33054 -0.39700
O 	O 	0.56374 0.27801 0.51965 -0.37700
C 	C 	0.53038 0.29166 0.48479 0.27900
C 	C 	0.77340 0.47047 0.45821 0.27500
O 	O 	0.71910 0.43905 0.47963 -0.39000
O 	O 	0.56038 0.34408 0.46074 -0.39300
O 	O 	0.70576 0.32836 0.32182 -0.36400
C 	C 	0.73956 0.23356 0.40524 0.28900
O 	O 	0.66490 0.30776 0.60438 -0.38900
O 	O 	0.75299 0.30544 0.60941 -0.43300
H 	H 	0.60237 0.26140 0.40275 0.16100
H 	H 	0.77762 0.38378 0.52852 0.17500
C 	C 	0.71898 0.31512 0.69883 -0.12500
C 	C 	0.67522 0.31964 0.73413 -0.12100
H 	H 	0.75728 0.31511 0.72416 0.06400
H 	H 	0.65621 0.34477 0.71858 0.08400
C 	C 	0.64924 0.33000 0.23505 -0.12100
C 	C 	0.66395 0.29438 0.19226 -0.12400
H 	H 	0.62241 0.34657 0.21560 0.07200
H 	H 	0.69274 0.27958 0.21091 0.09000
C 	C 	0.84909 0.66353 0.44581 0.00100
C 	C 	0.84968 0.62485 0.39707 0.00900
C 	C 	0.86913 0.64778 0.34207 -0.03600
C 	C 	0.80844 0.57867 0.50657 -0.02700
C 	C 	0.80696 0.53922 0.45723 -0.06500
C 	C 	0.82926 0.56312 0.40325 -0.02500
H 	H 	0.86954 0.61833 0.30426 0.03700
H 	H 	0.79180 0.56045 0.54842 0.04000
H 	H 	0.82794 0.53269 0.36505 0.04900
C 	C 	0.83176 0.14146 0.40926 0.00700
C 	C 	0.79683 0.13582 0.35234 0.00200
C 	C 	0.78899 0.09637 0.29869 -0.03300
C 	C 	0.81514 0.06231 0.30167 -0.05700
C 	C 	0.84922 0.06705 0.35840 0.04200
C 	C 	0.81328 0.21442 0.46039 -0.01600
C 	C 	0.77628 0.20697 0.40449 -0.08600
C 	C 	0.76910 0.16872 0.35019 -0.01200
H 	H 	0.76246 0.09181 0.25469 0.03500
H 	H 	0.81930 0.24461 0.50202 -0.01200
H 	H 	0.74067 0.16323 0.30703 0.03800
C 	C 	0.26198 0.11466 0.56087 -0.05500
C 	C 	0.32971 0.15159 0.56759 -0.03500
C 	C 	0.36068 0.18345 0.52000 0.00800
C 	C 	0.32319 0.17828 0.46532 0.00200
C 	C 	0.25506 0.14108 0.45854 -0.03000
C 	C 	0.22434 0.10908 0.50645 0.04100
C 	C 	0.21761 0.13561 0.40367 0.04100
C 	C 	0.24855 0.16761 0.35619 -0.05600
C 	C 	0.31620 0.20464 0.36298 -0.03500
C 	C 	0.35380 0.21012 0.41734 0.00700
C 	C 	0.42154 0.24692 0.42416 -0.02400
C 	C 	0.45913 0.25235 0.47855 -0.06500
C 	C 	0.42861 0.22044 0.52636 -0.02200
C 	C 	0.15638 0.07157 0.49913 -0.07900
C 	C 	0.11906 0.06556 0.44420 0.02800
C 	C 	0.14974 0.09783 0.39676 -0.07900
H 	H 	0.23883 0.09030 0.59796 0.04100
H 	H 	0.35803 0.15531 0.60980 0.03800
H 	H 	0.22022 0.16376 0.31390 0.04200
H 	H 	0.33934 0.22900 0.32588 0.03500
H 	H 	0.44510 0.27095 0.38700 0.03100
H 	H 	0.45763 0.22491 0.56849 0.04800
H 	H 	0.13245 0.04679 0.53579 0.04900
H 	H 	0.12069 0.09287 0.35437 0.04900
C 	C 	0.75880 0.60858 0.92329 0.00800
C 	C 	0.76476 0.62199 0.03601 0.00600
C 	C 	0.72489 0.54232 0.91962 -0.02300
C 	C 	0.71142 0.51584 0.97387 -0.06200
C 	C 	0.73087 0.55571 0.03184 -0.02700
H 	H 	0.70903 0.51145 0.87476 0.04800
H 	H 	0.72063 0.53524 0.07369 0.03600
C 	C 	0.81780 0.12609 0.10861 -0.03300
C 	C 	0.82253 0.15900 0.06004 0.00500
C 	C 	0.78896 0.18587 0.05489 -0.01600
C 	C 	0.79222 0.21688 0.00497 -0.08100
C 	C 	0.83182 0.22380 0.96184 -0.01900
H 	H 	0.75945 0.18166 0.08886 0.04700
H 	H 	0.83467 0.24804 0.92353 0.01900
C 	C 	0.31694 0.06339 0.06366 -0.03600
C 	C 	0.25401 0.04060 0.07093 -0.05600
C 	C 	0.21712 0.05098 0.03016 0.04000
C 	C 	0.24333 0.08364 0.98108 -0.02800
C 	C 	0.30674 0.10667 0.97383 0.00300
C 	C 	0.34390 0.09707 0.01567 0.00700
C 	C 	0.33360 0.14078 0.92575 0.00900
C 	C 	0.29621 0.15001 0.88419 -0.03600
C 	C 	0.20646 0.09398 0.93975 0.04100
C 	C 	0.14355 0.07146 0.94757 -0.08100
C 	C 	0.11744 0.03894 0.99644 0.03600
C 	C 	0.15442 0.02915 0.03785 -0.08300
C 	C 	0.40837 0.12346 0.01058 -0.02800
C 	C 	0.43648 0.16074 0.96503 -0.06100
C 	C 	0.39827 0.16725 0.92128 -0.02700
H 	H 	0.34500 0.05549 0.09585 0.03700
H 	H 	0.23411 0.01517 0.10851 0.04100
H 	H 	0.31626 0.17581 0.84687 0.03700
H 	H 	0.13407 0.00408 0.07557 0.05000
H 	H 	0.43767 0.11797 0.04406 0.04900
H 	H 	0.41964 0.19494 0.88536 0.04200
H 	H 	0.20495 0.13458 0.85890 0.04100
H 	H 	0.11460 0.07843 0.91537 0.04900
H 	H 	0.77438 0.64217 0.13599 0.03500
C 	C 	0.88790 0.70873 0.33548 -0.05600
H 	H 	0.90283 0.72572 0.29277 0.04000
C 	C 	0.77914 0.64859 0.98167 0.00400
C 	C 	0.78541 0.66219 0.09400 -0.03600
C 	C 	0.82916 0.64067 0.50099 0.00900
H 	H 	0.75767 0.60510 0.82431 0.03700
H 	H 	0.84348 0.07032 0.14874 0.04000
C 	C 	0.84822 0.09614 0.11138 -0.05600
C 	C 	0.85750 0.10673 0.41239 -0.03300
C 	C 	0.84040 0.18132 0.46325 -0.00100
C 	C 	0.87584 0.03324 0.36173 -0.07900
C 	C 	0.85980 0.16350 0.01502 0.00300
C 	C 	0.86514 0.19676 0.96632 0.00400
H 	H 	0.81361 0.66249 0.59194 0.03600
C 	C 	0.82886 0.67960 0.54936 -0.03600
C 	C 	0.77343 0.63548 0.86942 -0.03500
C 	C 	0.88771 0.74767 0.38389 0.04000
C 	C 	0.84810 0.74079 0.54296 -0.05500
C 	C 	0.86799 0.72493 0.43917 -0.02900
C 	C 	0.80912 0.70182 0.87359 -0.05600
C 	C 	0.81495 0.71534 0.98585 -0.02900
C 	C 	0.01338 0.04976 0.42811 -0.06000
H 	H 	0.82058 0.72189 0.83166 0.04100
C 	C 	0.87489 0.18649 0.51982 -0.03400
C 	C 	0.88360 0.09857 0.06551 0.04100
C 	C 	0.89012 0.13308 0.01761 -0.03300
C 	C 	0.82103 0.72852 0.09817 -0.05600
C 	C 	0.86783 0.76383 0.48807 0.04000
C 	C 	0.83060 0.74208 0.93168 0.04200
H 	H 	0.84780 0.77028 0.58080 0.04100
C 	C 	0.89166 0.11185 0.46954 0.04200
C 	C 	0.90202 0.20072 0.92147 -0.03500
C 	C 	0.91094 0.06546 0.06588 -0.07900
C 	C 	0.91057 0.03907 0.41857 0.02800
H 	H 	0.90686 0.22664 0.88417 0.03100
H 	H 	0.90549 0.03827 0.10222 0.04800
C 	C 	0.83648 0.75549 0.04441 0.04000
C 	C 	0.90021 0.15186 0.52298 -0.05900
C 	C 	0.91759 0.07761 0.47241 -0.08000
H 	H 	0.88180 0.21706 0.56153 0.02900
H 	H 	0.83713 0.75894 0.14332 0.04100
C 	C 	0.92532 0.13556 0.97122 0.04300
C 	C 	0.93182 0.17022 0.92384 -0.05800
C 	C 	0.94537 0.01023 0.42066 0.01100
C 	C 	0.90858 0.80967 0.37836 -0.07900
C 	C 	0.94370 0.06576 0.01821 0.02700
C 	C 	0.95192 0.10184 0.97171 -0.07700
C 	C 	0.88900 0.82587 0.48208 -0.07800
C 	C 	0.86897 0.80880 0.93651 -0.08100
H 	H 	0.92655 0.15626 0.56704 0.04000
H 	H 	0.94453 0.08199 0.51612 0.04900
H 	H 	0.92543 0.82801 0.33660 0.04800
H 	H 	0.95931 0.17293 0.88834 0.04000
C 	C 	0.87470 0.82215 0.04862 -0.08300
C 	C 	0.96541 0.02467 0.01436 0.00800
H 	H 	0.88238 0.82976 0.89521 0.05000
C 	C 	0.91083 0.84936 0.42793 0.02700
H 	H 	0.89094 0.85674 0.52030 0.04900
H 	H 	0.97730 0.10203 0.93504 0.04800
C 	C 	0.89207 0.84879 0.99498 0.03500
H 	H 	0.89262 0.85338 0.09365 0.05000
H 	H 	0.80871 0.03217 0.25985 0.04000
H 	H 	0.87080 0.00365 0.32017 0.04800
C 	C 	0.00414 0.94510 0.99669 -0.05000
H 	H 	0.01884 0.91417 0.98911 0.04500
H 	H 	0.03993 0.93789 0.44013 0.04800
H 	H 	0.85892 0.91369 0.41506 0.04600
H 	H 	0.86969 0.93728 0.01123 0.04500
C 	C 	0.91141 0.94428 0.42008 -0.06100
C 	C 	0.01355 0.95804 0.43465 -0.06000
C 	C 	0.92010 0.95816 0.00948 -0.05700
C 	C 	0.94561 0.91818 0.42710 0.01200
C 	C 	0.93950 0.91847 0.00072 0.00400
