data_crystal

_cell_length_a 31.94548
_cell_length_b 27.27130
_cell_length_c 41.92884
_cell_angle_alpha 89.93965
_cell_angle_beta  89.93576
_cell_angle_gamma 90.76324

_symmetry_space_group_name_	'P 1'
_symmetry_space_group_name_H-M	'P 1'

loop_
_symmetry_equiv_pos_as_xyz
  x,y,z

loop_
_atom_site_label
_atom_site_type_symbol
_atom_site_fract_x
_atom_site_fract_y
_atom_site_fract_z
_atom_site_charge
Zn	Zn	0.51578 0.49893 0.99455 1.21900
C 	C 	0.55714 0.40839 0.00747 0.33400
O 	O 	0.55787 0.53453 0.96888 -0.47600
O 	O 	0.53800 0.39335 0.98139 -0.45400
O 	O 	0.59110 0.46831 0.94882 -0.49900
C 	C 	0.45313 0.44261 0.96194 0.38600
O 	O 	0.46873 0.45326 0.99006 -0.46500
O 	O 	0.47738 0.44456 0.93666 -0.52000
C 	C 	0.59246 0.51346 0.95948 0.33800
O 	O 	0.46769 0.56092 0.98336 -0.33300
Zn	Zn	0.53778 0.43508 0.94034 1.16900
O 	O 	0.55372 0.45420 0.01682 -0.44000
C 	C 	0.47381 0.57487 0.01256 0.29500
O 	O 	0.50023 0.54909 0.02869 -0.38800
Zn	Zn	0.29403 0.25631 0.01345 1.21800
C 	C 	0.31422 0.25911 0.08031 0.31900
O 	O 	0.25990 0.20177 0.03025 -0.45900
O 	O 	0.27398 0.26446 0.08594 -0.45200
O 	O 	0.20326 0.24907 0.03988 -0.51200
C 	C 	0.29516 0.36067 0.02058 0.38100
O 	O 	0.29164 0.32466 1.00000 -0.48800
O 	O 	0.27502 0.35805 0.04779 -0.51000
C 	C 	0.22000 0.20556 0.03696 0.34800
O 	O 	0.27284 0.23582 0.96122 -0.32900
Zn	Zn	0.23553 0.30476 0.05679 1.16800
O 	O 	0.32925 0.26567 0.05132 -0.44300
C 	C 	0.31013 0.21807 0.95818 0.28000
O 	O 	0.33384 0.22181 0.98315 -0.38500
C 	C 	0.57264 0.03200 0.33330 0.14200
C 	C 	0.54716 0.06288 0.31523 -0.10800
H 	H 	0.52457 0.08592 0.32710 0.07000
C 	C 	0.55074 0.06382 0.28193 0.05500
C 	C 	0.58003 0.03399 0.26675 -0.09000
C 	C 	0.60553 0.00303 0.28474 0.05400
C 	C 	0.60178 0.00197 0.31805 -0.10800
H 	H 	0.62130 0.97793 0.33205 0.07300
N 	N 	0.56890 0.03130 0.36742 -0.18300
C 	C 	0.54085 0.99959 0.38157 0.20100
C 	C 	0.53427 0.00113 0.41476 -0.08500
C 	C 	0.55779 0.03425 0.43337 0.06300
C 	C 	0.58583 0.06708 0.41839 -0.08200
C 	C 	0.59169 0.06430 0.38518 0.19800
C 	C 	0.50309 0.97196 0.42923 0.01300
C 	C 	0.49618 0.97470 0.46203 -0.05800
C 	C 	0.52281 0.00359 0.48160 0.01500
C 	C 	0.55227 0.03565 0.46689 -0.03000
C 	C 	0.57482 0.07066 0.48523 0.01600
C 	C 	0.60585 0.10377 0.43643 0.01100
C 	C 	0.59893 0.10696 0.46920 -0.05800
C 	C 	0.51918 0.00295 0.51542 0.01500
C 	C 	0.54170 0.03799 0.53375 -0.02900
C 	C 	0.57110 0.07013 0.51903 0.01600
O 	O 	0.61896 0.09383 0.37102 -0.20300
O 	O 	0.51970 0.96782 0.36397 -0.20500
H 	H 	0.62551 0.13124 0.42494 0.04300
H 	H 	0.61047 0.13914 0.48153 0.04600
H 	H 	0.48297 0.94843 0.41495 0.04200
H 	H 	0.46874 0.95647 0.47167 0.04600
C 	C 	0.59758 0.09922 0.53858 -0.05800
C 	C 	0.59048 0.10221 0.57133 0.01100
C 	C 	0.55947 0.07286 0.58582 -0.08200
C 	C 	0.53626 0.03934 0.56728 0.06200
C 	C 	0.49524 0.96649 0.53146 -0.05700
C 	C 	0.48867 0.96936 0.56429 0.01200
C 	C 	0.50867 0.00608 0.58234 -0.08200
C 	C 	0.55281 0.07457 0.61897 0.19800
N 	N 	0.52559 0.04206 0.63328 -0.18200
C 	C 	0.50323 0.00850 0.61563 0.19700
C 	C 	0.52243 0.04115 0.66744 0.14100
C 	C 	0.55269 0.01676 0.68548 -0.10800
C 	C 	0.55064 0.01738 0.71883 0.05300
C 	C 	0.51792 0.04161 0.73412 -0.08900
C 	C 	0.48747 0.06572 0.71620 0.05400
C 	C 	0.48978 0.06568 0.68283 -0.10700
O 	O 	0.57308 0.10733 0.63641 -0.20400
O 	O 	0.47693 0.97798 0.62996 -0.20200
H 	H 	0.57796 0.99798 0.67355 0.07200
H 	H 	0.46653 0.08473 0.66887 0.07200
H 	H 	0.62504 0.11744 0.52897 0.04600
H 	H 	0.61045 0.12595 0.58558 0.04300
H 	H 	0.48358 0.93442 0.51906 0.04600
H 	H 	0.46922 0.94171 0.57580 0.04300
H 	H 	0.51626 0.04192 0.75997 0.05400
H 	H 	0.58245 0.03417 0.24094 0.05500
Zn	Zn	0.76589 0.77041 0.99251 1.22100
C 	C 	0.76206 0.77009 0.06121 0.31900
O 	O 	0.82548 0.76479 0.98208 -0.47700
O 	O 	0.76176 0.72187 0.05938 -0.45000
O 	O 	0.84525 0.72951 0.02851 -0.49600
C 	C 	0.71678 0.68265 0.99581 0.37200
O 	O 	0.71656 0.73009 0.00038 -0.47300
O 	O 	0.75177 0.65840 0.99947 -0.51200
C 	C 	0.85319 0.75945 0.00472 0.33800
O 	O 	0.74996 0.76357 0.93784 -0.33000
Zn	Zn	0.79724 0.68426 0.02660 1.16700
O 	O 	0.77095 0.79690 0.03587 -0.44100
C 	C 	0.74330 0.81034 0.93918 0.28100
O 	O 	0.74859 0.83042 0.96691 -0.38400
Zn	Zn	0.23522 0.73470 0.00001 1.22100
C 	C 	0.21898 0.74088 0.06788 0.32100
O 	O 	0.24314 0.80230 0.98540 -0.47800
O 	O 	0.25947 0.74668 0.07265 -0.45100
O 	O 	0.25814 0.83710 0.03298 -0.49800
C 	C 	0.30898 0.68601 0.02093 0.39300
O 	O 	0.26849 0.68146 0.01644 -0.47500
O 	O 	0.32654 0.72985 0.02263 -0.52100
C 	C 	0.23844 0.83837 0.00563 0.33800
O 	O 	0.25116 0.70632 0.94813 -0.32400
Zn	Zn	0.29798 0.78543 0.04188 1.17000
O 	O 	0.20308 0.74697 0.03919 -0.44400
C 	C 	0.21122 0.69750 0.94588 0.27900
O 	O 	0.18933 0.70828 0.97086 -0.38900
C 	C 	0.97558 0.49154 0.32431 0.14700
C 	C 	0.95197 0.45763 0.30640 -0.10600
H 	H 	0.93281 0.43023 0.31846 0.07200
C 	C 	0.95339 0.45908 0.27297 0.05200
C 	C 	0.97807 0.49470 0.25752 -0.08000
C 	C 	0.00155 0.52869 0.27531 0.04500
C 	C 	0.00046 0.52695 0.30871 -0.11300
H 	H 	0.01875 0.55303 0.32256 0.07000
N 	N 	0.97434 0.49004 0.35860 -0.17900
C 	C 	0.00017 0.45878 0.37470 0.19300
C 	C 	0.00117 0.45891 0.40829 -0.08800
C 	C 	0.97626 0.49218 0.42512 0.06800
C 	C 	0.94832 0.52200 0.40832 -0.08200
C 	C 	0.94794 0.52060 0.37473 0.19900
C 	C 	0.02552 0.42521 0.42517 0.01100
C 	C 	0.02627 0.42578 0.45845 -0.05800
C 	C 	0.00547 0.46293 0.47562 0.01000
C 	C 	0.97847 0.49467 0.45885 -0.02300
C 	C 	0.95231 0.52737 0.47560 0.01600
C 	C 	0.92028 0.55146 0.42524 0.01100
C 	C 	0.92109 0.55264 0.45850 -0.05800
C 	C 	0.00942 0.46743 0.50933 0.01000
C 	C 	0.98328 0.50020 0.52605 -0.02300
C 	C 	0.95649 0.53212 0.50926 0.01600
O 	O 	0.92243 0.54914 0.35871 -0.20300
O 	O 	0.02460 0.42900 0.35864 -0.20700
H 	H 	0.89681 0.57237 0.41273 0.04300
H 	H 	0.89606 0.57109 0.47075 0.04600
H 	H 	0.04282 0.39728 0.41262 0.04100
H 	H 	0.04113 0.39577 0.47061 0.04500
C 	C 	0.93611 0.56965 0.52634 -0.05700
C 	C 	0.93693 0.57042 0.55962 0.01100
C 	C 	0.96081 0.53632 0.57656 -0.08200
C 	C 	0.98529 0.50255 0.55980 0.06800
C 	C 	0.04027 0.44171 0.52654 -0.05800
C 	C 	0.04059 0.44242 0.55982 0.01100
C 	C 	0.01261 0.47206 0.57666 -0.08800
C 	C 	0.96180 0.53656 0.61016 0.19900
N 	N 	0.98684 0.50450 0.62633 -0.17900
C 	C 	0.01255 0.47307 0.61026 0.19300
C 	C 	0.98598 0.50370 0.66063 0.14800
C 	C 	0.01604 0.53038 0.67808 -0.11300
C 	C 	0.01520 0.52947 0.71151 0.04800
C 	C 	0.98414 0.50222 0.72746 -0.08100
C 	C 	0.95403 0.47561 0.71015 0.05400
C 	C 	0.95507 0.47618 0.67671 -0.10700
O 	O 	0.93833 0.56746 0.62615 -0.20200
O 	O 	0.03693 0.44328 0.62635 -0.20500
H 	H 	0.03995 0.55155 0.66565 0.07200
H 	H 	0.93193 0.45551 0.66321 0.07200
H 	H 	0.92149 0.59977 0.51409 0.04700
H 	H 	0.91997 0.59870 0.57211 0.04400
H 	H 	0.06542 0.42331 0.51442 0.04500
H 	H 	0.06372 0.42112 0.57241 0.04200
H 	H 	0.98354 0.50151 0.75332 0.05700
H 	H 	0.97917 0.49580 0.23167 0.05400
Zn	Zn	0.75142 0.22503 0.98582 1.22200
C 	C 	0.75101 0.24107 0.91775 0.31900
O 	O 	0.69370 0.23398 0.00143 -0.47000
O 	O 	0.73816 0.19535 0.91419 -0.45100
O 	O 	0.66334 0.22032 0.95321 -0.50600
C 	C 	0.77314 0.12719 0.96834 0.39000
O 	O 	0.78714 0.17260 0.97026 -0.46600
O 	O 	0.73276 0.11835 0.96735 -0.52800
C 	C 	0.66190 0.23906 0.98192 0.33800
O 	O 	0.77208 0.20271 0.03799 -0.32500
Zn	Zn	0.69565 0.16232 0.94486 1.17100
O 	O 	0.74851 0.26246 0.94580 -0.44000
C 	C 	0.78956 0.24595 0.03899 0.28000
O 	O 	0.78554 0.27221 0.01344 -0.38800
Zn	Zn	0.01176 0.00533 0.01482 1.21700
C 	C 	0.08699 0.94934 0.00922 0.33200
O 	O 	0.98973 0.93826 0.02030 -0.45000
O 	O 	0.07593 0.92902 0.03648 -0.45700
O 	O 	0.99666 0.94076 0.07421 -0.50600
C 	C 	0.06527 0.06811 0.05144 0.38100
O 	O 	0.02723 0.06265 0.04027 -0.49400
O 	O 	0.08422 0.03038 0.06405 -0.51000
C 	C 	0.97993 0.92098 0.04860 0.34500
O 	O 	0.94263 0.03410 0.01672 -0.33000
Zn	Zn	0.05302 0.97012 0.07359 1.16800
O 	O 	0.06780 0.98863 0.99886 -0.44000
C 	C 	0.94693 0.04097 0.98627 0.30200
O 	O 	0.98296 0.02950 0.97448 -0.38400
C 	C 	0.79976 0.08982 0.96757 -0.21100
C 	C 	0.84511 0.09808 0.96282 0.03200
C 	C 	0.87367 0.06540 0.97578 -0.00400
C 	C 	0.91608 0.06838 0.96780 -0.13100
H 	H 	0.86282 0.03759 0.99259 0.04800
H 	H 	0.78765 0.05243 0.96899 0.09400
H 	H 	0.92655 0.09148 0.94813 0.07700
H 	H 	0.85609 0.12904 0.94857 0.03800
C 	C 	0.76954 0.26792 0.89043 -0.09900
C 	C 	0.78805 0.24212 0.86518 0.02200
C 	C 	0.80697 0.26759 0.83991 -0.07400
C 	C 	0.80754 0.31895 0.83963 0.04400
C 	C 	0.78860 0.34483 0.86450 -0.07400
C 	C 	0.76964 0.31947 0.88982 0.02200
C 	C 	0.82923 0.34507 0.81456 -0.02600
C 	C 	0.84739 0.36690 0.79356 -0.01300
C 	C 	0.86989 0.39323 0.76901 0.02100
C 	C 	0.86522 0.44403 0.76594 -0.04600
C 	C 	0.89106 0.47070 0.74511 -0.02900
C 	C 	0.92180 0.44671 0.72724 -0.00900
C 	C 	0.92500 0.39553 0.72913 -0.02900
C 	C 	0.89915 0.36887 0.75000 -0.04500
H 	H 	0.78845 0.20241 0.86538 0.03200
H 	H 	0.82164 0.24736 0.82078 0.05000
H 	H 	0.78888 0.38457 0.86440 0.04800
H 	H 	0.75512 0.33988 0.90892 0.03400
H 	H 	0.84250 0.46307 0.78041 0.04300
H 	H 	0.88826 0.51020 0.74371 0.04100
H 	H 	0.94861 0.37668 0.71540 0.04300
H 	H 	0.90278 0.32955 0.75212 0.04500
C 	C 	0.80839 0.26602 0.06852 -0.07800
C 	C 	0.80453 0.24026 0.09749 0.01400
C 	C 	0.82112 0.26016 0.12559 -0.06800
C 	C 	0.84177 0.30579 0.12499 0.04000
C 	C 	0.84615 0.33128 0.09613 -0.06900
C 	C 	0.82960 0.31153 0.06800 0.01300
C 	C 	0.85830 0.32670 0.15399 -0.02500
C 	C 	0.87241 0.34500 0.17793 -0.01500
C 	C 	0.88981 0.36795 0.20598 0.02100
C 	C 	0.93000 0.35557 0.21637 -0.04700
C 	C 	0.94968 0.38313 0.24029 -0.02900
C 	C 	0.92931 0.42330 0.25390 -0.01000
C 	C 	0.88810 0.43374 0.24486 -0.02900
C 	C 	0.86843 0.40617 0.22093 -0.04700
H 	H 	0.78839 0.20511 0.09833 0.04100
H 	H 	0.81774 0.24017 0.14782 0.05000
H 	H 	0.86226 0.36650 0.09547 0.04600
H 	H 	0.83319 0.33166 0.04586 0.03900
H 	H 	0.94661 0.32584 0.20509 0.04300
H 	H 	0.98148 0.37473 0.24716 0.04100
H 	H 	0.87210 0.46465 0.25527 0.04100
H 	H 	0.83723 0.41574 0.21319 0.04300
C 	C 	0.12288 0.93000 0.99156 -0.15300
C 	C 	0.12930 0.88154 0.99055 0.01200
C 	C 	0.17085 0.86163 0.98299 0.01500
C 	C 	0.20411 0.87329 0.00128 -0.16300
H 	H 	0.17218 0.83014 0.96719 0.03700
H 	H 	0.14592 0.95538 0.98157 0.08200
H 	H 	0.20250 0.90455 0.01728 0.07900
H 	H 	0.10433 0.85616 0.99737 0.03800
C 	C 	0.04689 0.55670 0.73007 -0.01000
C 	C 	0.08204 0.53223 0.74180 -0.03000
C 	C 	0.10684 0.55389 0.76551 -0.04700
C 	C 	0.09666 0.60012 0.77759 0.02100
C 	C 	0.06331 0.62603 0.76431 -0.04700
C 	C 	0.03848 0.60439 0.74059 -0.03000
C 	C 	0.11719 0.61829 0.80586 -0.01400
C 	C 	0.13442 0.63343 0.82953 -0.02500
C 	C 	0.15400 0.65088 0.85838 0.04000
C 	C 	0.12933 0.66916 0.88319 -0.06800
C 	C 	0.14795 0.68432 0.91174 0.01400
C 	C 	0.19153 0.68133 0.91572 -0.07900
C 	C 	0.21622 0.66314 0.89070 0.01400
C 	C 	0.19747 0.64795 0.86216 -0.06800
H 	H 	0.08887 0.49548 0.73370 0.04100
H 	H 	0.13283 0.53383 0.77544 0.04300
H 	H 	0.05550 0.66202 0.77330 0.04300
H 	H 	0.01150 0.62364 0.73157 0.04000
H 	H 	0.09568 0.67142 0.88043 0.04800
H 	H 	0.12849 0.69851 0.93069 0.03900
H 	H 	0.24982 0.66042 0.89342 0.04000
H 	H 	0.21671 0.63364 0.84311 0.05000
C 	C 	0.02780 0.56549 0.25874 -0.00600
C 	C 	0.00893 0.60272 0.24091 -0.04300
C 	C 	0.03298 0.63162 0.22009 -0.04300
C 	C 	0.07601 0.62348 0.21702 0.01600
C 	C 	0.09533 0.58837 0.23627 -0.04500
C 	C 	0.07129 0.55946 0.25712 -0.03300
C 	C 	0.09935 0.64723 0.19186 -0.01500
C 	C 	0.11903 0.66703 0.17083 -0.03100
C 	C 	0.14242 0.68937 0.14517 0.04300
C 	C 	0.12866 0.68376 0.11366 -0.07600
C 	C 	0.15307 0.70175 0.08843 0.02200
C 	C 	0.19155 0.72547 0.09455 -0.10000
C 	C 	0.20462 0.73232 0.12627 0.02200
C 	C 	0.18016 0.71420 0.15145 -0.07700
H 	H 	0.97539 0.60787 0.24219 0.04700
H 	H 	0.01790 0.65901 0.20549 0.03700
H 	H 	0.12866 0.58216 0.23421 0.04100
H 	H 	0.08616 0.53095 0.27091 0.04000
H 	H 	0.09945 0.66464 0.10865 0.04600
H 	H 	0.14252 0.69616 0.06414 0.03300
H 	H 	0.23387 0.75122 0.13143 0.02500
H 	H 	0.19088 0.71886 0.17579 0.04700
C 	C 	0.94857 0.88094 0.05187 -0.15800
C 	C 	0.93860 0.85190 0.02703 0.01200
C 	C 	0.90471 0.81440 0.02977 0.01500
C 	C 	0.89213 0.78891 0.00401 -0.16400
H 	H 	0.88828 0.80969 0.05234 0.03500
H 	H 	0.93360 0.87497 0.07487 0.07700
H 	H 	0.90763 0.79491 0.98122 0.08300
H 	H 	0.95473 0.85668 0.00435 0.04400
C 	C 	0.58284 0.99306 0.73791 -0.00600
C 	C 	0.58047 0.94226 0.74292 -0.03100
C 	C 	0.60616 0.92032 0.76565 -0.04500
C 	C 	0.63435 0.94906 0.78341 0.01800
C 	C 	0.63837 0.99937 0.77717 -0.04200
C 	C 	0.61268 0.02134 0.75447 -0.03500
C 	C 	0.65628 0.92780 0.80983 -0.01500
C 	C 	0.67445 0.90951 0.83189 -0.02700
C 	C 	0.69521 0.88708 0.85845 0.04000
C 	C 	0.71634 0.84293 0.85421 -0.06800
C 	C 	0.73306 0.81855 0.88049 0.01500
C 	C 	0.72864 0.83814 0.91128 -0.07900
C 	C 	0.70859 0.88325 0.91532 0.01400
C 	C 	0.69186 0.90755 0.88897 -0.06900
H 	H 	0.55758 0.92015 0.73017 0.04200
H 	H 	0.60313 0.88130 0.77020 0.04300
H 	H 	0.66036 0.02173 0.79064 0.03700
H 	H 	0.61483 0.06059 0.75060 0.04000
H 	H 	0.71917 0.82703 0.83064 0.05000
H 	H 	0.74902 0.78417 0.87695 0.04000
H 	H 	0.70506 0.89890 0.93889 0.03800
H 	H 	0.67558 0.94177 0.89238 0.04200
C 	C 	0.63492 0.97047 0.26841 -0.01000
C 	C 	0.67004 0.99048 0.25275 -0.02700
C 	C 	0.69239 0.96215 0.23100 -0.04700
C 	C 	0.67975 0.91369 0.22483 0.02100
C 	C 	0.64668 0.89255 0.24226 -0.04600
C 	C 	0.62434 0.92085 0.26404 -0.02900
C 	C 	0.69689 0.88804 0.19798 -0.01300
C 	C 	0.71110 0.86632 0.17552 -0.02600
C 	C 	0.72681 0.84075 0.14811 0.04400
C 	C 	0.71330 0.79264 0.14194 -0.07400
C 	C 	0.72516 0.76935 0.11373 0.02200
C 	C 	0.75066 0.79411 0.09144 -0.09800
C 	C 	0.76488 0.84201 0.09804 0.02300
C 	C 	0.75292 0.86522 0.12627 -0.07400
H 	H 	0.67868 0.02866 0.25622 0.03900
H 	H 	0.71825 0.97856 0.21788 0.04400
H 	H 	0.63703 0.85492 0.23785 0.04300
H 	H 	0.59744 0.90499 0.27621 0.04200
H 	H 	0.69296 0.77359 0.15869 0.04900
H 	H 	0.71386 0.73246 0.10896 0.03300
H 	H 	0.78508 0.86128 0.08131 0.03600
H 	H 	0.76345 0.90247 0.13091 0.05000
C 	C 	0.08499 0.11168 0.04878 -0.20700
C 	C 	0.13056 0.11698 0.05477 0.01700
C 	C 	0.15229 0.15962 0.04547 0.00100
C 	C 	0.19609 0.16110 0.04604 -0.15900
H 	H 	0.13510 0.19107 0.03680 0.03500
H 	H 	0.06803 0.14276 0.03927 0.09200
H 	H 	0.21322 0.12835 0.05246 0.07900
H 	H 	0.14772 0.08644 0.06482 0.03400
C 	C 	0.45381 0.09169 0.73272 -0.01100
C 	C 	0.41996 0.06484 0.74547 -0.02900
C 	C 	0.39559 0.08499 0.76972 -0.04700
C 	C 	0.40487 0.13211 0.78121 0.02100
C 	C 	0.43576 0.16083 0.76613 -0.04800
C 	C 	0.46014 0.14069 0.74187 -0.02900
C 	C 	0.38777 0.14761 0.81123 -0.01600
C 	C 	0.37337 0.16047 0.83638 -0.02600
C 	C 	0.35739 0.17504 0.86696 0.04000
C 	C 	0.38506 0.18379 0.89227 -0.07000
C 	C 	0.36968 0.19710 0.92221 0.01300
C 	C 	0.32639 0.20187 0.92702 -0.08000
C 	C 	0.29870 0.19258 0.90162 0.01400
C 	C 	0.31420 0.17926 0.87171 -0.06800
H 	H 	0.41446 0.02718 0.73821 0.04100
H 	H 	0.37123 0.06288 0.78087 0.04400
H 	H 	0.44260 0.19765 0.77450 0.04100
H 	H 	0.48587 0.16193 0.73184 0.04000
H 	H 	0.41851 0.18031 0.88877 0.04400
H 	H 	0.39144 0.20418 0.94150 0.03800
H 	H 	0.26522 0.19570 0.90502 0.04000
H 	H 	0.29262 0.17217 0.85228 0.05000
C 	C 	0.52266 0.09445 0.26277 -0.01100
C 	C 	0.47949 0.08432 0.26239 -0.02900
C 	C 	0.45344 0.10963 0.24150 -0.04700
C 	C 	0.47038 0.14518 0.22088 0.02100
C 	C 	0.51324 0.15659 0.22202 -0.04700
C 	C 	0.53932 0.13135 0.24294 -0.02900
C 	C 	0.44427 0.16763 0.19726 -0.01400
C 	C 	0.42194 0.18607 0.17762 -0.02700
C 	C 	0.39478 0.20696 0.15407 0.04400
C 	C 	0.41168 0.23307 0.12819 -0.07300
C 	C 	0.38539 0.25076 0.10428 0.02300
C 	C 	0.34195 0.24229 0.10609 -0.09800
C 	C 	0.32513 0.21668 0.13235 0.02200
C 	C 	0.35148 0.19913 0.15621 -0.07500
H 	H 	0.46634 0.05590 0.27761 0.04000
H 	H 	0.42027 0.10080 0.24081 0.04200
H 	H 	0.52649 0.18424 0.20625 0.04300
H 	H 	0.57259 0.13965 0.24324 0.03900
H 	H 	0.44519 0.23926 0.12643 0.05000
H 	H 	0.39877 0.27091 0.08437 0.03800
H 	H 	0.29176 0.20958 0.13400 0.03100
H 	H 	0.33825 0.17883 0.17613 0.04800
C 	C 	0.32043 0.39927 0.01454 -0.20300
C 	C 	0.34869 0.40034 0.98637 0.01500
C 	C 	0.38427 0.42717 0.98694 0.02100
C 	C 	0.41301 0.42805 0.95904 -0.20100
H 	H 	0.39228 0.44825 0.00814 0.04100
H 	H 	0.32273 0.42867 0.03199 0.09200
H 	H 	0.40125 0.41684 0.93580 0.09000
H 	H 	0.34098 0.37843 0.96547 0.04200
C 	C 	0.44571 0.60968 0.02809 -0.13100
C 	C 	0.40368 0.61142 0.01898 -0.00800
C 	C 	0.37755 0.64838 0.02989 0.03000
C 	C 	0.33225 0.64573 0.02284 -0.21300
H 	H 	0.39025 0.67858 0.04395 0.02300
H 	H 	0.45761 0.63333 0.04695 0.07000
H 	H 	0.31749 0.60999 0.01924 0.09800
H 	H 	0.39112 0.58359 0.00292 0.04700
C 	C 	0.58802 0.37639 0.02267 -0.15700
C 	C 	0.58521 0.32770 0.01868 0.01000
C 	C 	0.62338 0.29858 0.01403 0.01000
C 	C 	0.62294 0.26144 0.99306 -0.16300
H 	H 	0.65268 0.31070 0.02483 0.03800
H 	H 	0.61661 0.39276 0.03213 0.08000
H 	H 	0.59379 0.25100 0.98137 0.06900
H 	H 	0.55509 0.31121 0.01249 0.03500
C 	C 	0.63325 0.53944 0.96231 -0.15800
C 	C 	0.63613 0.58402 0.97586 0.00800
C 	C 	0.67733 0.60837 0.98092 0.01900
C 	C 	0.67912 0.65824 0.98884 -0.18700
H 	H 	0.70592 0.58750 0.97843 0.03200
H 	H 	0.66141 0.52119 0.95429 0.07600
H 	H 	0.65033 0.67907 0.98905 0.09300
H 	H 	0.60795 0.60269 0.98343 0.04300
