data_crystal

_cell_length_a 17.81008
_cell_length_b 28.14656
_cell_length_c 39.61668
_cell_angle_alpha 89.99847
_cell_angle_beta  76.96873
_cell_angle_gamma 89.99854

_symmetry_space_group_name_	'P 1'
_symmetry_space_group_name_H-M	'P 1'

loop_
_symmetry_equiv_pos_as_xyz
  x,y,z

loop_
_atom_site_label
_atom_site_type_symbol
_atom_site_fract_x
_atom_site_fract_y
_atom_site_fract_z
_atom_site_charge
Cu	Cu	0.53917 0.44501 0.16093 0.92700
Cu	Cu	0.67384 0.50341 0.18762 0.86400
Cu	Cu	0.51902 0.54543 0.18941 0.89500
Cu	Cu	0.37576 0.49464 0.17983 0.89100
C 	C 	0.39974 0.39020 0.17820 0.27900
O 	O 	0.51262 0.45867 0.11489 -0.36000
C 	C 	0.65674 0.60437 0.18432 0.27300
O 	O 	0.46407 0.48625 0.19836 -0.63800
O 	O 	0.59771 0.50456 0.15920 -0.64300
O 	O 	0.62081 0.40241 0.16985 -0.37500
O 	O 	0.64397 0.44715 0.21414 -0.43600
O 	O 	0.36220 0.42640 0.16861 -0.38500
O 	O 	0.44188 0.58196 0.22076 -0.38500
C 	C 	0.37006 0.58614 0.21763 0.28000
C 	C 	0.48416 0.49982 0.10815 0.27400
O 	O 	0.44658 0.52672 0.13351 -0.39300
O 	O 	0.33132 0.54876 0.21053 -0.39100
O 	O 	0.47575 0.38970 0.17134 -0.36200
C 	C 	0.64372 0.40569 0.19897 0.28100
O 	O 	0.58293 0.60261 0.18355 -0.38200
O 	O 	0.70253 0.56765 0.17445 -0.41600
H 	H 	0.45370 0.47569 0.22282 0.16200
H 	H 	0.61724 0.51792 0.13573 0.17100
Cu	Cu	0.44838 0.44511 0.80501 0.92800
Cu	Cu	0.31335 0.50375 0.77898 0.86600
Cu	Cu	0.46897 0.54607 0.77729 0.89600
Cu	Cu	0.61188 0.49431 0.78640 0.89200
C 	C 	0.58737 0.38988 0.78795 0.28000
O 	O 	0.47518 0.45835 0.85107 -0.36000
C 	C 	0.33006 0.60439 0.78248 0.27200
O 	O 	0.52355 0.48667 0.76783 -0.63800
O 	O 	0.39005 0.50472 0.80708 -0.64300
O 	O 	0.36669 0.40263 0.79590 -0.37600
O 	O 	0.34302 0.44792 0.75199 -0.43600
O 	O 	0.62478 0.42602 0.79770 -0.38400
O 	O 	0.54674 0.58322 0.74646 -0.38400
C 	C 	0.61939 0.58603 0.74877 0.28000
C 	C 	0.50346 0.49950 0.85798 0.27400
O 	O 	0.54136 0.52647 0.83273 -0.39300
O 	O 	0.65697 0.54792 0.75546 -0.39100
O 	O 	0.51141 0.38979 0.79424 -0.36400
C 	C 	0.34355 0.40629 0.76687 0.28200
O 	O 	0.40419 0.60311 0.78280 -0.37900
O 	O 	0.28486 0.56760 0.79282 -0.41600
H 	H 	0.53380 0.47647 0.74329 0.16200
H 	H 	0.37053 0.51766 0.83067 0.17100
Cu	Cu	0.94838 0.94511 0.30500 0.92700
Cu	Cu	0.81336 0.00374 0.27898 0.86800
Cu	Cu	0.96897 0.04607 0.27729 0.89700
Cu	Cu	0.11189 0.99431 0.28640 0.89000
C 	C 	0.08737 0.88988 0.28795 0.28000
O 	O 	0.97519 0.95835 0.35107 -0.36000
C 	C 	0.83006 0.10439 0.28248 0.27300
O 	O 	0.02355 0.98667 0.26783 -0.64100
O 	O 	0.89005 0.00472 0.30708 -0.64000
O 	O 	0.86669 0.90263 0.29590 -0.37700
O 	O 	0.84302 0.94792 0.25199 -0.43900
O 	O 	0.12478 0.92601 0.29770 -0.38500
O 	O 	0.04674 0.08322 0.24646 -0.38300
C 	C 	0.11940 0.08603 0.24877 0.28000
C 	C 	0.00346 0.99950 0.35798 0.25900
O 	O 	0.04137 0.02647 0.33273 -0.38600
O 	O 	0.15697 0.04791 0.25546 -0.38800
O 	O 	0.01141 0.88979 0.29424 -0.36500
C 	C 	0.84356 0.90629 0.26686 0.28200
O 	O 	0.90419 0.10311 0.28280 -0.37900
O 	O 	0.78487 0.06760 0.29282 -0.41500
H 	H 	0.03380 0.97647 0.24329 0.16200
H 	H 	0.87053 0.01766 0.33067 0.17100
Cu	Cu	0.03916 0.94501 0.66093 0.92700
Cu	Cu	0.17383 0.00342 0.68762 0.86700
Cu	Cu	0.01902 0.04544 0.68941 0.89700
Cu	Cu	0.87576 0.99464 0.67983 0.89000
C 	C 	0.89973 0.89020 0.67820 0.27900
O 	O 	0.01261 0.95867 0.61489 -0.36000
C 	C 	0.15673 0.10437 0.68432 0.27300
O 	O 	0.96406 0.98625 0.69836 -0.64100
O 	O 	0.09771 0.00456 0.65920 -0.64000
O 	O 	0.12081 0.90241 0.66985 -0.37700
O 	O 	0.14396 0.94715 0.71414 -0.43900
O 	O 	0.86219 0.92640 0.66861 -0.38700
O 	O 	0.94188 0.08196 0.72076 -0.38300
C 	C 	0.87005 0.08615 0.71763 0.28000
C 	C 	0.98416 0.99982 0.60815 0.26000
O 	O 	0.94658 0.02673 0.63351 -0.38500
O 	O 	0.83132 0.04876 0.71053 -0.38800
O 	O 	0.97574 0.88971 0.67134 -0.36200
C 	C 	0.14372 0.90569 0.69897 0.28100
O 	O 	0.08292 0.10261 0.68355 -0.38200
O 	O 	0.20253 0.06765 0.67445 -0.41500
H 	H 	0.95370 0.97569 0.72282 0.16100
H 	H 	0.11724 0.01792 0.63574 0.17200
C 	C 	0.13239 0.02199 0.48865 -0.04200
C 	C 	0.13497 0.02256 0.45308 -0.04200
C 	C 	0.06644 0.02130 0.44116 0.01600
C 	C 	0.99470 0.02146 0.46520 -0.00800
C 	C 	0.99211 0.02157 0.50101 -0.00800
C 	C 	0.06123 0.02055 0.51274 0.01700
C 	C 	0.92039 0.02050 0.52505 0.01700
C 	C 	0.85184 0.02064 0.51314 -0.04200
C 	C 	0.85444 0.01985 0.47756 -0.04200
C 	C 	0.92564 0.01932 0.45347 0.01700
C 	C 	0.92874 0.01468 0.41791 -0.02700
C 	C 	0.00017 0.01263 0.39410 -0.05300
C 	C 	0.06875 0.01766 0.40561 -0.02700
C 	C 	0.05831 0.01608 0.54830 -0.02800
C 	C 	0.98697 0.01307 0.57210 -0.05200
C 	C 	0.91822 0.01702 0.56060 -0.02700
H 	H 	0.18580 0.02187 0.49742 0.03800
H 	H 	0.19034 0.02294 0.43480 0.03800
H 	H 	0.79646 0.02031 0.53141 0.03800
H 	H 	0.80105 0.01888 0.46879 0.03800
H 	H 	0.87589 0.01129 0.40882 0.03400
H 	H 	0.12379 0.01630 0.38706 0.03600
H 	H 	0.11126 0.01350 0.55739 0.03500
H 	H 	0.86325 0.01493 0.57914 0.03600
C 	C 	0.83512 0.69513 0.75109 -0.04300
C 	C 	0.87342 0.73824 0.74180 -0.04400
C 	C 	0.84677 0.77018 0.71987 0.01600
C 	C 	0.78124 0.75861 0.70711 -0.00900
C 	C 	0.74260 0.71524 0.71651 -0.00900
C 	C 	0.76951 0.68347 0.73866 0.01500
C 	C 	0.67672 0.70385 0.70397 0.01500
C 	C 	0.65030 0.73569 0.68191 -0.04300
C 	C 	0.68875 0.77872 0.67252 -0.04300
C 	C 	0.75410 0.79049 0.68508 0.01500
C 	C 	0.79266 0.83369 0.67586 -0.02800
C 	C 	0.85807 0.84528 0.68852 -0.05900
C 	C 	0.88470 0.81356 0.71063 -0.02900
C 	C 	0.72997 0.64072 0.74848 -0.02800
C 	C 	0.66362 0.62954 0.73642 -0.05900
C 	C 	0.63762 0.66100 0.71389 -0.02600
H 	H 	0.85634 0.67093 0.76808 0.03600
H 	H 	0.92368 0.74682 0.75176 0.03800
H 	H 	0.59978 0.72724 0.67210 0.03800
H 	H 	0.66753 0.80293 0.65553 0.03700
H 	H 	0.77244 0.85796 0.65857 0.04400
H 	H 	0.93443 0.82285 0.72081 0.04100
H 	H 	0.74978 0.61665 0.76602 0.03800
H 	H 	0.58699 0.65223 0.70422 0.04700
C 	C 	0.82936 0.30284 0.74133 -0.04300
C 	C 	0.86900 0.26024 0.73177 -0.04300
C 	C 	0.82906 0.21682 0.73543 0.01700
C 	C 	0.74869 0.21623 0.74888 -0.00900
C 	C 	0.70880 0.25912 0.75855 -0.00800
C 	C 	0.74929 0.30258 0.75472 0.01500
C 	C 	0.62844 0.25853 0.77199 0.01600
C 	C 	0.58853 0.21510 0.77571 -0.04300
C 	C 	0.62811 0.17251 0.76603 -0.04300
C 	C 	0.70815 0.17277 0.75259 0.01600
C 	C 	0.74808 0.13016 0.74273 -0.02800
C 	C 	0.82819 0.13069 0.72913 -0.05800
C 	C 	0.86844 0.17407 0.72562 -0.02900
C 	C 	0.70928 0.34523 0.76428 -0.02900
C 	C 	0.62918 0.34478 0.77790 -0.05800
C 	C 	0.58896 0.30131 0.78164 -0.02700
H 	H 	0.86102 0.33604 0.73831 0.03600
H 	H 	0.93078 0.26105 0.72150 0.03700
H 	H 	0.52682 0.21426 0.78614 0.03800
H 	H 	0.59643 0.13932 0.76899 0.03700
H 	H 	0.71703 0.09672 0.74575 0.04400
H 	H 	0.93012 0.17455 0.71484 0.04700
H 	H 	0.74024 0.37872 0.76095 0.03500
H 	H 	0.52727 0.30074 0.79227 0.05000
C 	C 	0.38382 0.23736 0.73574 -0.04200
C 	C 	0.35792 0.19498 0.72379 -0.04400
C 	C 	0.28928 0.19419 0.71193 0.01500
C 	C 	0.24734 0.23657 0.71133 -0.00900
C 	C 	0.27352 0.27927 0.72328 -0.00800
C 	C 	0.34142 0.27949 0.73599 0.01500
C 	C 	0.23086 0.32151 0.72327 0.01300
C 	C 	0.16297 0.32090 0.71083 -0.04300
C 	C 	0.13676 0.27843 0.69911 -0.04400
C 	C 	0.17823 0.23606 0.69959 0.01500
C 	C 	0.15047 0.19303 0.68927 -0.02700
C 	C 	0.19087 0.15040 0.69092 -0.06100
C 	C 	0.26106 0.15134 0.70157 -0.03000
C 	C 	0.36521 0.32157 0.74942 -0.02400
C 	C 	0.32178 0.36339 0.75018 -0.06700
C 	C 	0.25563 0.36354 0.73645 -0.02600
H 	H 	0.43653 0.23731 0.74507 0.03800
H 	H 	0.39087 0.16268 0.72411 0.03500
H 	H 	0.12996 0.35319 0.71057 0.03400
H 	H 	0.08378 0.27844 0.68999 0.03600
H 	H 	0.09695 0.19257 0.68054 0.04700
H 	H 	0.29231 0.11856 0.70287 0.03400
H 	H 	0.41698 0.32178 0.75953 0.04700
H 	H 	0.22239 0.39595 0.73698 0.02800
C 	C 	0.13678 0.69217 0.73577 -0.04400
C 	C 	0.11125 0.73445 0.72352 -0.04400
C 	C 	0.14894 0.77751 0.72664 0.01500
C 	C 	0.21160 0.77826 0.74297 -0.00900
C 	C 	0.23766 0.73564 0.75508 -0.00900
C 	C 	0.20060 0.69239 0.75112 0.01400
C 	C 	0.30202 0.73612 0.77031 0.01500
C 	C 	0.33842 0.77940 0.77426 -0.04400
C 	C 	0.31223 0.82180 0.76242 -0.04300
C 	C 	0.24948 0.82144 0.74638 0.01200
C 	C 	0.22533 0.86347 0.73294 -0.02700
C 	C 	0.16461 0.86244 0.71563 -0.06700
C 	C 	0.12590 0.81958 0.71294 -0.02700
C 	C 	0.22915 0.64974 0.76161 -0.03000
C 	C 	0.29505 0.64988 0.77558 -0.06200
C 	C 	0.33036 0.69323 0.78059 -0.02600
H 	H 	0.10752 0.65916 0.73287 0.03500
H 	H 	0.06270 0.73357 0.71123 0.03900
H 	H 	0.38755 0.78020 0.78617 0.03800
H 	H 	0.34141 0.85482 0.76536 0.03400
H 	H 	0.25505 0.89661 0.73502 0.02800
H 	H 	0.07861 0.81895 0.69984 0.04900
H 	H 	0.20184 0.61633 0.75780 0.03000
H 	H 	0.38033 0.69347 0.79198 0.04800
C 	C 	0.08853 0.71510 0.27571 -0.04400
C 	C 	0.12811 0.67251 0.26603 -0.04300
C 	C 	0.20816 0.67277 0.25259 0.01500
C 	C 	0.24870 0.71622 0.24888 -0.00900
C 	C 	0.20880 0.75912 0.25855 -0.00900
C 	C 	0.12844 0.75853 0.27199 0.01500
C 	C 	0.24930 0.80258 0.25472 0.01500
C 	C 	0.32937 0.80284 0.24133 -0.04300
C 	C 	0.36900 0.76023 0.23177 -0.04400
C 	C 	0.32906 0.71682 0.23544 0.01600
C 	C 	0.36845 0.67407 0.22562 -0.02900
C 	C 	0.32820 0.63069 0.22913 -0.05900
C 	C 	0.24809 0.63016 0.24273 -0.02800
C 	C 	0.08897 0.80130 0.28164 -0.02700
C 	C 	0.12918 0.84478 0.27790 -0.05900
C 	C 	0.20929 0.84523 0.26428 -0.02900
H 	H 	0.02682 0.71425 0.28614 0.03700
H 	H 	0.09644 0.63932 0.26899 0.03600
H 	H 	0.36103 0.83603 0.23831 0.03500
H 	H 	0.43079 0.76105 0.22150 0.03700
H 	H 	0.43012 0.67454 0.21484 0.04600
H 	H 	0.21703 0.59671 0.24575 0.04300
H 	H 	0.02728 0.80074 0.29227 0.04900
H 	H 	0.24024 0.87871 0.26095 0.03500
C 	C 	0.85793 0.69498 0.22379 -0.04400
C 	C 	0.88382 0.73736 0.23574 -0.04300
C 	C 	0.84143 0.77949 0.23599 0.01400
C 	C 	0.77353 0.77926 0.22328 -0.00800
C 	C 	0.74734 0.73657 0.21133 -0.01000
C 	C 	0.78929 0.69419 0.21193 0.01400
C 	C 	0.67824 0.73605 0.19959 0.01500
C 	C 	0.63677 0.77843 0.19911 -0.04400
C 	C 	0.66297 0.82089 0.21083 -0.04300
C 	C 	0.73086 0.82151 0.22326 0.01200
C 	C 	0.75563 0.86354 0.23645 -0.02600
C 	C 	0.82179 0.86338 0.25018 -0.06700
C 	C 	0.86521 0.82157 0.24942 -0.02400
C 	C 	0.76107 0.65134 0.20157 -0.03000
C 	C 	0.69087 0.65040 0.19092 -0.06100
C 	C 	0.65047 0.69303 0.18927 -0.02700
H 	H 	0.89087 0.66267 0.22411 0.03500
H 	H 	0.93653 0.73730 0.24507 0.03800
H 	H 	0.58379 0.77844 0.18999 0.03600
H 	H 	0.62996 0.85319 0.21057 0.03400
H 	H 	0.72239 0.89594 0.23698 0.02700
H 	H 	0.91698 0.82178 0.25953 0.04700
H 	H 	0.79231 0.61855 0.20287 0.03300
H 	H 	0.59696 0.69257 0.18054 0.04700
C 	C 	0.83842 0.27940 0.27426 -0.04400
C 	C 	0.81224 0.32179 0.26242 -0.04300
C 	C 	0.74948 0.32143 0.24637 0.01300
C 	C 	0.71161 0.27826 0.24297 -0.00900
C 	C 	0.73766 0.23564 0.25508 -0.00900
C 	C 	0.80203 0.23612 0.27031 0.01500
C 	C 	0.70061 0.19238 0.25112 0.01400
C 	C 	0.63678 0.19217 0.23577 -0.04300
C 	C 	0.61125 0.23444 0.22352 -0.04400
C 	C 	0.64894 0.27751 0.22664 0.01500
C 	C 	0.62590 0.31958 0.21294 -0.02600
C 	C 	0.66462 0.36244 0.21563 -0.06600
C 	C 	0.72533 0.36346 0.23293 -0.02700
C 	C 	0.83037 0.19323 0.28059 -0.02600
C 	C 	0.79506 0.14988 0.27558 -0.06100
C 	C 	0.72916 0.14974 0.26161 -0.03000
H 	H 	0.88755 0.28020 0.28617 0.03900
H 	H 	0.84141 0.35481 0.26536 0.03500
H 	H 	0.60753 0.15916 0.23287 0.03500
H 	H 	0.56270 0.23357 0.21123 0.04000
H 	H 	0.57862 0.31895 0.19984 0.05000
H 	H 	0.75506 0.39661 0.23502 0.02900
H 	H 	0.88033 0.19347 0.29198 0.04800
H 	H 	0.70185 0.11633 0.25779 0.03100
C 	C 	0.33512 0.19513 0.25109 -0.04300
C 	C 	0.37342 0.23824 0.24180 -0.04400
C 	C 	0.34678 0.27018 0.21987 0.01600
C 	C 	0.28125 0.25861 0.20711 -0.00900
C 	C 	0.24261 0.21524 0.21651 -0.00900
C 	C 	0.26952 0.18346 0.23866 0.01500
C 	C 	0.17672 0.20385 0.20397 0.01600
C 	C 	0.15030 0.23569 0.18191 -0.04300
C 	C 	0.18875 0.27872 0.17252 -0.04300
C 	C 	0.25411 0.29049 0.18508 0.01500
C 	C 	0.29266 0.33369 0.17586 -0.02700
C 	C 	0.35808 0.34528 0.18852 -0.05900
C 	C 	0.38470 0.31356 0.21063 -0.02900
C 	C 	0.22998 0.14072 0.24848 -0.02800
C 	C 	0.16362 0.12954 0.23642 -0.05900
C 	C 	0.13762 0.16100 0.21389 -0.02600
H 	H 	0.35635 0.17092 0.26808 0.03600
H 	H 	0.42368 0.24681 0.25176 0.03800
H 	H 	0.09979 0.22723 0.17210 0.03900
H 	H 	0.16753 0.30292 0.15553 0.03800
H 	H 	0.27244 0.35795 0.15857 0.04500
H 	H 	0.43443 0.32284 0.22081 0.04100
H 	H 	0.24979 0.11665 0.26602 0.03800
H 	H 	0.08700 0.15223 0.20422 0.04800
C 	C 	0.35444 0.51985 0.97756 -0.04200
C 	C 	0.35184 0.52064 0.01314 -0.04200
C 	C 	0.42040 0.52049 0.02505 0.01500
C 	C 	0.49211 0.52157 0.00101 -0.00700
C 	C 	0.49470 0.52146 0.96520 -0.00700
C 	C 	0.42563 0.51932 0.95347 0.01500
C 	C 	0.56644 0.52131 0.94116 0.01500
C 	C 	0.63497 0.52256 0.95308 -0.04200
C 	C 	0.63239 0.52198 0.98865 -0.04200
C 	C 	0.56123 0.52055 0.01275 0.01500
C 	C 	0.55831 0.51608 0.04830 -0.02400
C 	C 	0.48697 0.51306 0.07210 -0.06200
C 	C 	0.41822 0.51702 0.06060 -0.02300
C 	C 	0.42873 0.51468 0.91791 -0.02500
C 	C 	0.50016 0.51263 0.89410 -0.06200
C 	C 	0.56875 0.51766 0.90561 -0.02300
H 	H 	0.30105 0.51888 0.96879 0.03700
H 	H 	0.29646 0.52031 0.03141 0.03700
H 	H 	0.69034 0.52294 0.93480 0.03700
H 	H 	0.68580 0.52187 0.99742 0.03700
H 	H 	0.61126 0.51349 0.05739 0.03200
H 	H 	0.36325 0.51493 0.07914 0.03400
H 	H 	0.37589 0.51129 0.90882 0.03200
H 	H 	0.62379 0.51630 0.88706 0.03400
