data_crystal

_cell_length_a 21.32279
_cell_length_b 20.69971
_cell_length_c 47.54542
_cell_angle_alpha 89.77943
_cell_angle_beta  89.78126
_cell_angle_gamma 119.43554

_symmetry_space_group_name_	'P 1'
_symmetry_space_group_name_H-M	'P 1'

loop_
_symmetry_equiv_pos_as_xyz
  x,y,z

loop_
_atom_site_label
_atom_site_type_symbol
_atom_site_fract_x
_atom_site_fract_y
_atom_site_fract_z
_atom_site_charge
C 	C 	0.65986 0.30433 0.85814 0.27400
C 	C 	0.79602 0.52727 0.94342 0.29000
C 	C 	0.85457 0.40167 0.88299 0.30500
C 	C 	0.61957 0.45955 0.92274 0.29700
C 	C 	0.78116 0.33960 0.96833 0.30200
C 	C 	0.59773 0.20662 0.94727 0.28700
Ni	Ni	0.73939 0.44368 0.89127 1.11200
Ni	Ni	0.66916 0.37338 0.95370 1.11900
Ni	Ni	0.72594 0.28813 0.91203 1.11800
O 	O 	0.67038 0.37277 0.86115 -0.36600
O 	O 	0.70400 0.28327 0.86973 -0.37200
O 	O 	0.73635 0.35936 0.97864 -0.39400
O 	O 	0.81281 0.49823 0.92248 -0.38200
O 	O 	0.73530 0.48697 0.95767 -0.37600
O 	O 	0.62533 0.20996 0.92196 -0.39200
O 	O 	0.81616 0.42656 0.87037 -0.37500
O 	O 	0.83083 0.36318 0.90616 -0.39100
O 	O 	0.59329 0.26394 0.95790 -0.37000
O 	O 	0.67228 0.48771 0.90363 -0.37200
O 	O 	0.59807 0.39384 0.93377 -0.38700
O 	O 	0.75747 0.28246 0.95136 -0.39200
O 	O 	0.69813 0.36173 0.91660 -0.70600
H 	H 	0.64916 0.33394 0.90890 0.15700
C 	C 	0.71842 0.43535 0.60010 0.28000
C 	C 	0.46793 0.18606 0.55041 0.29600
C 	C 	0.64871 0.23151 0.60936 0.30200
C 	C 	0.53963 0.39357 0.53909 0.28000
C 	C 	0.65579 0.19624 0.52067 0.31000
C 	C 	0.75694 0.39537 0.50546 0.28700
Ni	Ni	0.57408 0.30940 0.58443 1.11200
Ni	Ni	0.59489 0.29683 0.51704 1.12100
Ni	Ni	0.72053 0.32173 0.55994 1.11900
O 	O 	0.64903 0.41405 0.59750 -0.37400
O 	O 	0.74435 0.38957 0.59450 -0.37600
O 	O 	0.59888 0.20237 0.51458 -0.38700
O 	O 	0.51048 0.20116 0.57192 -0.37900
O 	O 	0.48880 0.23150 0.52855 -0.36900
O 	O 	0.76949 0.40593 0.53274 -0.39000
O 	O 	0.61897 0.27228 0.61536 -0.37100
O 	O 	0.66850 0.22899 0.58361 -0.39200
O 	O 	0.68998 0.35798 0.49512 -0.37200
O 	O 	0.51425 0.34697 0.56096 -0.37000
O 	O 	0.57404 0.38229 0.51789 -0.37400
O 	O 	0.71611 0.25390 0.52875 -0.39600
O 	O 	0.63595 0.32741 0.55350 -0.71600
H 	H 	0.65686 0.38141 0.55103 0.16100
C 	C 	0.19165 0.05373 0.76255 0.28400
C 	C 	0.89729 0.84244 0.73068 0.30300
C 	C 	0.10401 0.99570 0.69094 0.28300
C 	C 	0.97154 0.89489 0.80528 0.27700
C 	C 	0.94376 0.06576 0.71358 0.30600
C 	C 	0.03666 0.13995 0.78107 0.28400
Ni	Ni	0.05081 0.92192 0.74761 1.11200
Ni	Ni	0.93861 0.97961 0.76287 1.11900
Ni	Ni	0.08652 0.08941 0.73262 1.12000
O 	O 	0.14657 0.98307 0.76873 -0.38000
O 	O 	0.18013 0.08692 0.74057 -0.37500
O 	O 	0.91436 0.99855 0.72418 -0.39700
O 	O 	0.96312 0.86738 0.72166 -0.37900
O 	O 	0.88445 0.86931 0.75359 -0.38000
O 	O 	0.09406 0.14552 0.76782 -0.38600
O 	O 	0.11452 0.95824 0.71108 -0.36600
O 	O 	0.07000 0.03238 0.69649 -0.37900
O 	O 	0.96983 0.08513 0.77589 -0.37700
O 	O 	0.99042 0.86575 0.78393 -0.36700
O 	O 	0.95434 0.94792 0.80124 -0.38000
O 	O 	0.01088 0.11505 0.71955 -0.38700
O 	O 	0.03357 0.00123 0.75404 -0.71600
H 	H 	0.05616 0.01782 0.77260 0.16200
C 	C 	0.24098 0.78877 0.42573 0.27600
C 	C 	0.34504 0.60460 0.48461 0.29900
C 	C 	0.43056 0.83273 0.45243 0.30400
C 	C 	0.15636 0.55765 0.45947 0.27900
C 	C 	0.42990 0.67205 0.39783 0.30100
C 	C 	0.24344 0.60726 0.37168 0.28300
Ni	Ni	0.28668 0.70623 0.46822 1.11200
Ni	Ni	0.28909 0.58198 0.42706 1.12000
Ni	Ni	0.34571 0.74564 0.40398 1.12100
O 	O 	0.26629 0.78899 0.45146 -0.36100
O 	O 	0.26607 0.77140 0.40303 -0.37700
O 	O 	0.37101 0.60661 0.39927 -0.37900
O 	O 	0.30227 0.63039 0.49248 -0.36700
O 	O 	0.36147 0.60493 0.45805 -0.38500
O 	O 	0.30344 0.67340 0.37112 -0.38200
O 	O 	0.39638 0.77963 0.47099 -0.37700
O 	O 	0.39760 0.83480 0.42947 -0.38300
O 	O 	0.22440 0.56320 0.39415 -0.38700
O 	O 	0.17907 0.62574 0.46898 -0.37000
O 	O 	0.20264 0.53285 0.45448 -0.37400
O 	O 	0.43033 0.73030 0.40840 -0.39600
O 	O 	0.29066 0.67383 0.43165 -0.71600
H 	H 	0.24199 0.65997 0.42502 0.15700
C 	C 	0.45906 0.63845 0.02452 0.29000
C 	C 	0.24013 0.63057 0.10636 0.30100
C 	C 	0.27230 0.49150 0.04316 0.29800
C 	C 	0.42364 0.78618 0.09239 0.27700
C 	C 	0.17983 0.61923 0.01613 0.30900
C 	C 	0.36715 0.79511 0.00457 0.27900
Ni	Ni	0.36270 0.62692 0.07613 1.11400
Ni	Ni	0.28792 0.72328 0.05656 1.12000
Ni	Ni	0.32207 0.63240 0.01091 1.11900
O 	O 	0.43300 0.60898 0.04991 -0.37000
O 	O 	0.42832 0.66805 0.00891 -0.38900
O 	O 	0.20955 0.68626 0.02703 -0.38400
O 	O 	0.30236 0.63308 0.10982 -0.36800
O 	O 	0.22040 0.63735 0.08110 -0.38700
O 	O 	0.33422 0.72801 0.99260 -0.37900
O 	O 	0.27608 0.52518 0.06675 -0.37400
O 	O 	0.30882 0.52965 0.02081 -0.37500
O 	O 	0.34913 0.80602 0.03017 -0.38400
O 	O 	0.43899 0.73214 0.08803 -0.37100
O 	O 	0.35658 0.77515 0.08975 -0.37200
O 	O 	0.21546 0.58302 0.01453 -0.39800
O 	O 	0.34124 0.67503 0.04718 -0.71600
H 	H 	0.38894 0.71844 0.04367 0.16100
C 	C 	0.83393 0.93871 0.26763 0.27900
C 	C 	0.05352 0.11658 0.17974 0.29700
C 	C 	0.84773 0.91093 0.19161 0.30100
C 	C 	0.04658 0.17162 0.25559 0.28300
C 	C 	0.05656 0.91517 0.20578 0.30100
C 	C 	0.05283 0.96439 0.28264 0.27200
Ni	Ni	0.93044 0.05121 0.22126 1.11200
Ni	Ni	0.08294 0.05686 0.23169 1.12000
Ni	Ni	0.93655 0.90335 0.23865 1.12000
O 	O 	0.83726 0.97969 0.24516 -0.37000
O 	O 	0.87632 0.90888 0.27025 -0.38300
O 	O 	0.10084 0.97259 0.22104 -0.38300
O 	O 	0.00932 0.13015 0.19471 -0.36900
O 	O 	0.07773 0.07381 0.18983 -0.37700
O 	O 	0.01182 0.90715 0.26604 -0.37600
O 	O 	0.89925 0.97878 0.18806 -0.38600
O 	O 	0.84781 0.87323 0.21396 -0.37700
O 	O 	0.09138 0.03285 0.27214 -0.37700
O 	O 	0.97586 0.13119 0.25207 -0.37700
O 	O 	0.09267 0.15843 0.24089 -0.37600
O 	O 	0.98785 0.89469 0.20488 -0.39100
O 	O 	0.98142 0.00857 0.23714 -0.71700
H 	H 	0.97918 0.01984 0.25711 0.16000
C 	C 	0.05252 0.28397 0.07178 -0.04200
C 	C 	0.02207 0.23499 0.09458 -0.03700
C 	C 	0.06424 0.21374 0.11063 0.01400
C 	C 	0.13612 0.23782 0.10248 -0.00500
C 	C 	0.16671 0.28701 0.07948 -0.00800
C 	C 	0.12559 0.31254 0.06484 0.02000
C 	C 	0.24029 0.31610 0.07280 0.01800
C 	C 	0.28110 0.29079 0.08756 -0.04300
C 	C 	0.25060 0.24147 0.11027 -0.04000
C 	C 	0.17889 0.21679 0.11844 0.01600
C 	C 	0.15061 0.17447 0.14314 -0.02300
C 	C 	0.08029 0.15399 0.15219 -0.05800
C 	C 	0.03652 0.17168 0.13542 -0.01900
C 	C 	0.16004 0.37218 0.04580 -0.02300
C 	C 	0.23553 0.41022 0.04350 -0.05900
C 	C 	0.27374 0.37592 0.05376 -0.02600
H 	H 	0.02000 0.30197 0.06026 0.04300
H 	H 	0.96628 0.21539 0.10024 0.03800
H 	H 	0.33726 0.31152 0.08221 0.04000
H 	H 	0.28347 0.22432 0.12200 0.04000
H 	H 	0.18411 0.16001 0.15584 0.04400
H 	H 	0.98161 0.15403 0.14195 0.04100
H 	H 	0.12973 0.39587 0.03621 0.04600
H 	H 	0.33151 0.40253 0.05038 0.04300
C 	C 	0.67243 0.93968 0.09524 -0.04300
C 	C 	0.73214 0.94082 0.10789 -0.04100
C 	C 	0.72656 0.91229 0.13523 0.01400
C 	C 	0.66144 0.88535 0.15038 -0.00700
C 	C 	0.60180 0.88540 0.13783 -0.00900
C 	C 	0.60643 0.90975 0.10974 0.01900
C 	C 	0.53549 0.85496 0.15242 0.01800
C 	C 	0.53063 0.82909 0.18013 -0.04300
C 	C 	0.58996 0.82898 0.19261 -0.04100
C 	C 	0.65518 0.85596 0.17771 0.01400
C 	C 	0.71455 0.85506 0.18996 -0.02400
C 	C 	0.78097 0.88662 0.17564 -0.06700
C 	C 	0.78563 0.91157 0.14775 -0.02500
C 	C 	0.54317 0.89517 0.09560 -0.02800
C 	C 	0.47616 0.84961 0.10845 -0.05400
C 	C 	0.47335 0.84221 0.13784 -0.02500
H 	H 	0.67688 0.95967 0.07382 0.04000
H 	H 	0.78239 0.96289 0.09627 0.04000
H 	H 	0.48013 0.80631 0.19163 0.03800
H 	H 	0.58479 0.80681 0.21366 0.03600
H 	H 	0.71025 0.83350 0.21111 0.04700
H 	H 	0.83652 0.93441 0.13647 0.04600
H 	H 	0.54539 0.90763 0.07330 0.03700
H 	H 	0.42146 0.81440 0.14838 0.04200
C 	C 	0.26661 0.79431 0.18355 -0.04000
C 	C 	0.24294 0.84057 0.19529 -0.04200
C 	C 	0.17352 0.82879 0.18951 0.01600
C 	C 	0.12654 0.76821 0.17277 -0.00800
C 	C 	0.15021 0.72140 0.16112 -0.00700
C 	C 	0.22118 0.73580 0.16587 0.01400
C 	C 	0.10439 0.66292 0.14329 0.01500
C 	C 	0.03390 0.64906 0.13853 -0.04000
C 	C 	0.01036 0.69551 0.15013 -0.04100
C 	C 	0.05690 0.75612 0.16675 0.01600
C 	C 	0.03503 0.80539 0.17700 -0.02400
C 	C 	0.08177 0.86615 0.19363 -0.06100
C 	C 	0.15097 0.87751 0.19989 -0.02400
C 	C 	0.24752 0.69543 0.15111 -0.02200
C 	C 	0.20494 0.64446 0.13044 -0.06600
C 	C 	0.13157 0.62323 0.12863 -0.02400
H 	H 	0.32096 0.80528 0.18762 0.03800
H 	H 	0.27909 0.88634 0.20847 0.04000
H 	H 	0.99796 0.60362 0.12518 0.03900
H 	H 	0.95631 0.68504 0.14577 0.03900
H 	H 	0.98178 0.79653 0.17204 0.04800
H 	H 	0.18703 0.92393 0.21284 0.04900
H 	H 	0.30295 0.70844 0.15379 0.04800
H 	H 	0.09768 0.58095 0.11372 0.04700
C 	C 	0.74278 0.85804 0.36300 -0.04300
C 	C 	0.68696 0.80923 0.38084 -0.04100
C 	C 	0.61696 0.76575 0.37038 0.01500
C 	C 	0.60333 0.77039 0.34165 -0.00800
C 	C 	0.65933 0.82031 0.32377 -0.00900
C 	C 	0.72932 0.86404 0.33447 0.01800
C 	C 	0.64533 0.82633 0.29518 0.01600
C 	C 	0.57537 0.78243 0.28471 -0.04300
C 	C 	0.51979 0.73266 0.30246 -0.04300
C 	C 	0.53321 0.72686 0.33101 0.01500
C 	C 	0.47653 0.68186 0.34944 -0.02600
C 	C 	0.48863 0.68416 0.37854 -0.06400
C 	C 	0.55959 0.72138 0.38861 -0.02200
C 	C 	0.78555 0.91110 0.31630 -0.02700
C 	C 	0.77287 0.91320 0.28740 -0.05500
C 	C 	0.70202 0.87413 0.27722 -0.02700
H 	H 	0.79648 0.89115 0.37140 0.04000
H 	H 	0.69806 0.80591 0.40286 0.04000
H 	H 	0.56389 0.78672 0.26286 0.03700
H 	H 	0.46607 0.69953 0.29408 0.03800
H 	H 	0.42205 0.65106 0.34158 0.04400
H 	H 	0.56913 0.72147 0.41102 0.04300
H 	H 	0.84007 0.94233 0.32423 0.04200
H 	H 	0.69183 0.87751 0.25511 0.04300
C 	C 	0.03239 0.40612 0.33161 -0.04000
C 	C 	0.00675 0.33812 0.31793 -0.04000
C 	C 	0.05256 0.32547 0.30028 0.01700
C 	C 	0.12352 0.38291 0.29521 -0.00800
C 	C 	0.14934 0.45130 0.30901 -0.00700
C 	C 	0.10431 0.46199 0.32800 0.01700
C 	C 	0.22185 0.50696 0.30553 0.01600
C 	C 	0.26646 0.49594 0.28663 -0.04100
C 	C 	0.24055 0.42824 0.27264 -0.04200
C 	C 	0.16973 0.37081 0.27739 0.01800
C 	C 	0.14504 0.30112 0.26497 -0.02700
C 	C 	0.07450 0.24330 0.27030 -0.05300
C 	C 	0.02868 0.25572 0.28811 -0.02500
C 	C 	0.13377 0.52485 0.34520 -0.02400
C 	C 	0.20844 0.57338 0.34505 -0.05600
C 	C 	0.25044 0.56940 0.32301 -0.02400
H 	H 	0.99702 0.41430 0.34579 0.03900
H 	H 	0.95166 0.29480 0.32150 0.03900
H 	H 	0.32192 0.53882 0.28346 0.03800
H 	H 	0.27610 0.41995 0.25860 0.04000
H 	H 	0.18037 0.29211 0.25104 0.04900
H 	H 	0.97452 0.21116 0.29245 0.04700
H 	H 	0.10050 0.53088 0.36116 0.04300
H 	H 	0.30705 0.61031 0.32150 0.04400
C 	C 	0.00017 0.78776 0.36080 -0.04100
C 	C 	0.02570 0.76326 0.38323 -0.04000
C 	C 	0.09428 0.80977 0.39441 0.01700
C 	C 	0.13501 0.88338 0.38444 -0.00600
C 	C 	0.10971 0.90776 0.36164 -0.00900
C 	C 	0.04306 0.85894 0.34923 0.01800
C 	C 	0.15337 0.97909 0.35003 0.01600
C 	C 	0.21956 0.02747 0.36262 -0.04000
C 	C 	0.24457 0.00332 0.38532 -0.03700
C 	C 	0.20388 0.93039 0.39560 0.01400
C 	C 	0.23402 0.90152 0.41472 -0.02400
C 	C 	0.19792 0.82532 0.42109 -0.05200
C 	C 	0.12556 0.78154 0.41328 -0.02700
C 	C 	0.02213 0.88017 0.32445 -0.02700
C 	C 	0.06847 0.94872 0.31145 -0.04900
C 	C 	0.13239 0.99949 0.32505 -0.03200
H 	H 	0.94811 0.75041 0.35183 0.03900
H 	H 	0.99321 0.70719 0.39119 0.03700
H 	H 	0.25275 0.08302 0.35429 0.04000
H 	H 	0.29688 0.04043 0.39416 0.04100
H 	H 	0.28894 0.93603 0.42180 0.04600
H 	H 	0.09665 0.72334 0.41923 0.03700
H 	H 	0.97127 0.84230 0.31470 0.04400
H 	H 	0.16726 0.05331 0.31558 0.05200
C 	C 	0.50042 0.89737 0.45982 -0.07200
C 	C 	0.54068 0.95115 0.43928 0.00500
C 	C 	0.59666 0.02043 0.44725 -0.05300
C 	C 	0.61228 0.03670 0.47582 0.01700
C 	C 	0.57819 0.97973 0.49618 0.01300
C 	C 	0.52335 0.90961 0.48795 -0.01800
C 	C 	0.59301 0.99651 0.52479 -0.06100
C 	C 	0.63136 0.07052 0.53326 0.01300
C 	C 	0.65513 0.12763 0.51316 -0.07700
C 	C 	0.65351 0.11045 0.48459 -0.01300
H 	H 	0.52645 0.94054 0.41728 0.03500
H 	H 	0.62469 0.06285 0.43136 0.04400
H 	H 	0.49491 0.86684 0.50370 0.04600
H 	H 	0.56996 0.95288 0.54055 0.04300
H 	H 	0.63570 0.08348 0.55547 0.03600
H 	H 	0.67554 0.15494 0.46910 0.04000
C 	C 	0.81904 0.41942 0.48636 -0.06600
C 	C 	0.84146 0.48275 0.46946 0.00500
C 	C 	0.91004 0.51710 0.45699 -0.05400
C 	C 	0.95709 0.48880 0.46167 0.01200
C 	C 	0.93278 0.42210 0.47701 0.01700
C 	C 	0.86335 0.38710 0.48894 -0.02300
C 	C 	0.98005 0.39426 0.48199 -0.06000
C 	C 	0.05257 0.43565 0.47398 0.00800
C 	C 	0.07832 0.50482 0.46066 -0.06800
C 	C 	0.02953 0.52911 0.45305 -0.01700
H 	H 	0.80728 0.50752 0.46712 0.03400
H 	H 	0.92765 0.56748 0.44477 0.04200
H 	H 	0.84557 0.33749 0.50168 0.04300
H 	H 	0.96149 0.34225 0.49319 0.04500
H 	H 	0.08944 0.41585 0.47957 0.03800
H 	H 	0.04901 0.58166 0.44208 0.03900
C 	C 	0.51745 0.45034 0.53549 -0.06500
C 	C 	0.56716 0.52071 0.52492 0.00400
C 	C 	0.54427 0.57046 0.51643 -0.05500
C 	C 	0.47117 0.55020 0.51819 0.01400
C 	C 	0.42151 0.48143 0.53051 0.01500
C 	C 	0.44502 0.43183 0.53933 -0.02000
C 	C 	0.34833 0.46133 0.53220 -0.05700
C 	C 	0.32388 0.50623 0.51965 0.00500
C 	C 	0.37230 0.57158 0.50537 -0.07300
C 	C 	0.44635 0.59542 0.50604 -0.01600
H 	H 	0.62332 0.53598 0.52245 0.03500
H 	H 	0.58306 0.62372 0.50757 0.04400
H 	H 	0.40656 0.37771 0.54770 0.04400
H 	H 	0.30990 0.40952 0.54214 0.04300
H 	H 	0.26672 0.48779 0.51950 0.03700
H 	H 	0.48395 0.64656 0.49540 0.04500
C 	C 	0.82092 0.27325 0.68385 -0.04300
C 	C 	0.86768 0.25231 0.69634 -0.04100
C 	C 	0.85917 0.18149 0.69152 0.01300
C 	C 	0.80205 0.13068 0.67465 -0.00500
C 	C 	0.75508 0.15181 0.66203 -0.00800
C 	C 	0.76526 0.22377 0.66629 0.01500
C 	C 	0.69984 0.10209 0.64419 0.01400
C 	C 	0.69001 0.03054 0.64003 -0.03800
C 	C 	0.73614 0.00924 0.65282 -0.03600
C 	C 	0.79283 0.05930 0.66986 0.01100
C 	C 	0.84059 0.03900 0.68204 -0.01500
C 	C 	0.89770 0.08961 0.69883 -0.06700
C 	C 	0.90717 0.16099 0.70332 -0.02100
C 	C 	0.72249 0.24677 0.65162 -0.02400
C 	C 	0.67190 0.19950 0.63194 -0.06600
C 	C 	0.65792 0.12598 0.62946 -0.02100
H 	H 	0.82889 0.32846 0.68744 0.03800
H 	H 	0.91090 0.29145 0.70955 0.03700
H 	H 	0.64737 0.99174 0.62652 0.03500
H 	H 	0.72823 0.95407 0.64920 0.03500
H 	H 	0.83338 0.98399 0.67854 0.04100
H 	H 	0.95098 0.19991 0.71634 0.04400
H 	H 	0.73245 0.30317 0.65380 0.04500
H 	H 	0.61794 0.08919 0.61458 0.04300
C 	C 	0.30485 0.96991 0.60295 -0.05000
C 	C 	0.25604 0.94609 0.62554 -0.03800
C 	C 	0.21653 0.98230 0.63157 0.01100
C 	C 	0.22243 0.03941 0.61354 -0.00100
C 	C 	0.27194 0.06371 0.59093 -0.01200
C 	C 	0.31517 0.03063 0.58628 0.02500
C 	C 	0.28287 0.12550 0.57456 0.01800
C 	C 	0.23946 0.15804 0.57924 -0.04300
C 	C 	0.18945 0.13312 0.60141 -0.04200
C 	C 	0.18263 0.07571 0.61927 0.01700
C 	C 	0.13985 0.05730 0.64366 -0.03100
C 	C 	0.13847 0.00469 0.66293 -0.04600
C 	C 	0.17436 0.96498 0.65618 -0.03100
C 	C 	0.37301 0.06357 0.56717 -0.02600
C 	C 	0.39127 0.13232 0.55466 -0.05800
C 	C 	0.34176 0.15851 0.55588 -0.02800
H 	H 	0.33674 0.94306 0.59917 0.04100
H 	H 	0.25062 0.90094 0.63882 0.03900
H 	H 	0.24626 0.20445 0.56639 0.03900
H 	H 	0.15788 0.16028 0.60527 0.04000
H 	H 	0.11030 0.08628 0.64826 0.04800
H 	H 	0.17139 0.92252 0.67044 0.04900
H 	H 	0.40930 0.04117 0.56491 0.04700
H 	H 	0.35396 0.20970 0.54508 0.04900
C 	C 	0.81629 0.58594 0.71365 -0.04200
C 	C 	0.80641 0.53383 0.69299 -0.04200
C 	C 	0.79345 0.54551 0.66499 0.01700
C 	C 	0.78971 0.60968 0.65777 -0.00800
C 	C 	0.79906 0.66174 0.67857 -0.00600
C 	C 	0.81380 0.65056 0.70651 0.01600
C 	C 	0.79700 0.72676 0.67123 0.01600
C 	C 	0.78260 0.73773 0.64335 -0.04000
C 	C 	0.77254 0.68557 0.62271 -0.04200
C 	C 	0.77639 0.62164 0.62973 0.01900
C 	C 	0.76384 0.56793 0.60937 -0.02600
C 	C 	0.76142 0.50119 0.61705 -0.05500
C 	C 	0.78091 0.49227 0.64437 -0.02500
C 	C 	0.83181 0.70693 0.72631 -0.02300
C 	C 	0.84025 0.77576 0.71779 -0.06300
C 	C 	0.81535 0.78258 0.69129 -0.02100
H 	H 	0.82724 0.57668 0.73509 0.03900
H 	H 	0.80881 0.48440 0.69879 0.03800
H 	H 	0.78051 0.78732 0.63753 0.03900
H 	H 	0.76175 0.69493 0.60125 0.04000
H 	H 	0.75004 0.57516 0.58808 0.04100
H 	H 	0.78026 0.44119 0.65012 0.04400
H 	H 	0.84806 0.70078 0.74731 0.04200
H 	H 	0.81887 0.83488 0.68522 0.04200
C 	C 	0.10526 0.58309 0.00572 -0.07700
C 	C 	0.05679 0.60617 0.01491 0.01100
C 	C 	0.98353 0.56382 0.00865 -0.06000
C 	C 	0.95792 0.49711 0.99376 0.01400
C 	C 	0.00678 0.47497 0.98378 0.01700
C 	C 	0.08035 0.51935 0.98896 -0.01600
C 	C 	0.98117 0.40738 0.96957 -0.06100
C 	C 	0.90737 0.36172 0.96546 0.01300
C 	C 	0.85844 0.38385 0.97499 -0.07600
C 	C 	0.88408 0.45170 0.98922 -0.01500
H 	H 	0.07536 0.65558 0.02756 0.03700
H 	H 	0.94649 0.58185 0.01604 0.04500
H 	H 	0.11798 0.50272 0.98095 0.04300
H 	H 	0.01838 0.38991 0.96187 0.04300
H 	H 	0.88842 0.30967 0.95451 0.03600
H 	H 	0.84666 0.46930 0.99657 0.04800
C 	C 	0.41467 0.86149 0.98762 -0.06400
C 	C 	0.39971 0.86660 0.95919 0.00300
C 	C 	0.43410 0.93533 0.94519 -0.05300
C 	C 	0.48253 0.99977 0.95968 0.00800
C 	C 	0.49912 0.99429 0.98801 0.01500
C 	C 	0.46738 0.92484 0.00141 -0.02200
C 	C 	0.54503 0.05870 0.00294 -0.05400
C 	C 	0.57427 0.12819 0.98991 0.00700
C 	C 	0.55943 0.13413 0.96161 -0.06900
C 	C 	0.51352 0.06979 0.94645 -0.01200
H 	H 	0.35947 0.81815 0.94827 0.03900
H 	H 	0.42135 0.93872 0.92337 0.04100
H 	H 	0.48040 0.92065 0.02315 0.04200
H 	H 	0.55775 0.05504 0.02474 0.04500
H 	H 	0.61019 0.17741 0.00160 0.03700
H 	H 	0.50186 0.07431 0.92456 0.04200
C 	C 	0.60048 0.50951 0.93770 -0.07900
C 	C 	0.58415 0.55807 0.92293 0.00900
C 	C 	0.56186 0.60196 0.93756 -0.06100
C 	C 	0.55610 0.59763 0.96708 0.01600
C 	C 	0.57700 0.55230 0.98198 0.01100
C 	C 	0.59839 0.50805 0.96725 -0.01000
C 	C 	0.57266 0.54893 0.01144 -0.05500
C 	C 	0.54067 0.58396 0.02584 0.00500
C 	C 	0.51229 0.62234 0.01090 -0.06800
C 	C 	0.52532 0.63399 0.98171 -0.02100
H 	H 	0.58727 0.56074 0.90018 0.03400
H 	H 	0.54747 0.63786 0.92592 0.04300
H 	H 	0.61219 0.47140 0.97871 0.02700
H 	H 	0.59138 0.51666 0.02312 0.04300
H 	H 	0.53472 0.57807 0.04849 0.03800
H 	H 	0.50735 0.66719 0.97021 0.04500
C 	C 	0.96319 0.38706 0.79459 -0.04100
C 	C 	0.98941 0.34703 0.77973 -0.04300
C 	C 	0.01511 0.30561 0.79426 0.01800
C 	C 	0.02083 0.31005 0.82381 -0.00800
C 	C 	0.99607 0.35178 0.83872 -0.00700
C 	C 	0.96320 0.38672 0.82413 0.01500
C 	C 	0.99724 0.35215 0.86836 0.01300
C 	C 	0.02823 0.31551 0.88279 -0.04000
C 	C 	0.05125 0.27253 0.86800 -0.04300
C 	C 	0.04471 0.26694 0.83861 0.01900
C 	C 	0.05587 0.21453 0.82408 -0.02700
C 	C 	0.04406 0.20594 0.79503 -0.05300
C 	C 	0.02895 0.25497 0.77995 -0.02500
C 	C 	0.92436 0.41374 0.83920 -0.02200
C 	C 	0.91717 0.40444 0.86856 -0.06700
C 	C 	0.96046 0.38186 0.88314 -0.02400
H 	H 	0.94011 0.41568 0.78316 0.03900
H 	H 	0.98655 0.34541 0.75696 0.03700
H 	H 	0.03107 0.31712 0.90555 0.03800
H 	H 	0.07166 0.24149 0.87949 0.04200
H 	H 	0.06959 0.17774 0.83551 0.04200
H 	H 	0.02309 0.25002 0.75731 0.04300
H 	H 	0.89470 0.43577 0.82798 0.04800
H 	H 	0.95954 0.38045 0.90593 0.04600
C 	C 	0.51905 0.26998 0.77339 -0.04100
C 	C 	0.45097 0.23840 0.76100 -0.04100
C 	C 	0.39153 0.17872 0.77416 0.01800
C 	C 	0.40109 0.14910 0.79953 -0.00700
C 	C 	0.46977 0.18020 0.81178 -0.00800
C 	C 	0.52855 0.24207 0.79904 0.01800
C 	C 	0.47900 0.15172 0.83750 0.02100
C 	C 	0.41999 0.09082 0.85029 -0.04200
C 	C 	0.35166 0.06022 0.83821 -0.04100
C 	C 	0.34165 0.08975 0.81305 0.01800
C 	C 	0.27291 0.06095 0.80140 -0.02600
C 	C 	0.26322 0.08943 0.77587 -0.05400
C 	C 	0.32264 0.14863 0.76238 -0.02600
C 	C 	0.59479 0.27798 0.81296 -0.02400
C 	C 	0.60210 0.25333 0.83967 -0.05200
C 	C 	0.54585 0.18753 0.85099 -0.03200
H 	H 	0.56409 0.31699 0.76328 0.04100
H 	H 	0.44433 0.26108 0.74137 0.04100
H 	H 	0.42665 0.06818 0.86994 0.04100
H 	H 	0.30640 0.01399 0.84857 0.04100
H 	H 	0.22697 0.01610 0.81206 0.04800
H 	H 	0.31546 0.17058 0.74265 0.04800
H 	H 	0.63914 0.32788 0.80397 0.04500
H 	H 	0.55230 0.16781 0.87136 0.04800
C 	C 	0.77736 0.72912 0.90744 -0.04200
C 	C 	0.80017 0.77614 0.88385 -0.04200
C 	C 	0.86764 0.79789 0.87139 0.01600
C 	C 	0.91440 0.77621 0.88382 -0.00800
C 	C 	0.89183 0.72980 0.90783 -0.01000
C 	C 	0.82174 0.70331 0.91882 0.01700
C 	C 	0.93662 0.70417 0.91925 0.01600
C 	C 	0.00586 0.72958 0.90790 -0.04100
C 	C 	0.02819 0.77536 0.88394 -0.04200
C 	C 	0.98183 0.79693 0.87125 0.01600
C 	C 	0.00084 0.83651 0.84563 -0.02900
C 	C 	0.95326 0.85612 0.83276 -0.05200
C 	C 	0.88754 0.83830 0.84604 -0.02600
C 	C 	0.79439 0.64521 0.93872 -0.02800
C 	C 	0.83362 0.60884 0.94493 -0.06400
C 	C 	0.90818 0.64670 0.93941 -0.02500
H 	H 	0.72411 0.71056 0.91614 0.04200
H 	H 	0.76445 0.79381 0.87479 0.03900
H 	H 	0.04125 0.71134 0.91685 0.04200
H 	H 	0.08077 0.79237 0.87486 0.03900
H 	H 	0.05205 0.85145 0.83563 0.04000
H 	H 	0.85105 0.85384 0.83616 0.04400
H 	H 	0.73955 0.62210 0.94621 0.05100
H 	H 	0.94073 0.62307 0.94677 0.04500
