data_crystal

_cell_length_a 23.77706
_cell_length_b 25.07646
_cell_length_c 37.83784
_cell_angle_alpha 60.94022
_cell_angle_beta  118.77014
_cell_angle_gamma 133.23384

_symmetry_space_group_name_	'P 1'
_symmetry_space_group_name_H-M	'P 1'

loop_
_symmetry_equiv_pos_as_xyz
  x,y,z

loop_
_atom_site_label
_atom_site_type_symbol
_atom_site_fract_x
_atom_site_fract_y
_atom_site_fract_z
_atom_site_charge
C 	C 	0.69138 0.31714 0.98534 0.02100
C 	C 	0.61218 0.28793 0.97882 -0.06900
C 	C 	0.59501 0.33157 0.97853 0.02200
C 	C 	0.65441 0.40841 0.97678 -0.06900
C 	C 	0.73360 0.43868 0.98317 0.02300
C 	C 	0.75216 0.39319 0.98717 -0.06900
H 	H 	0.56512 0.22906 0.97828 0.04500
H 	H 	0.64063 0.44252 0.97570 0.05100
H 	H 	0.81374 0.41532 0.99441 0.05100
C 	C 	0.69476 0.30448 0.48164 0.02200
C 	C 	0.61461 0.27326 0.47405 -0.06800
C 	C 	0.59548 0.30493 0.48431 0.02200
C 	C 	0.65141 0.38063 0.48573 -0.06800
C 	C 	0.73111 0.41745 0.48825 0.02300
C 	C 	0.75341 0.37859 0.48736 -0.06800
H 	H 	0.56869 0.21735 0.46827 0.04500
H 	H 	0.63533 0.40767 0.49046 0.05000
H 	H 	0.81573 0.40370 0.49378 0.05000
C 	C 	0.25637 0.62898 0.20724 0.02400
C 	C 	0.32610 0.68119 0.19235 -0.06900
C 	C 	0.34993 0.65680 0.17946 0.02500
C 	C 	0.30219 0.58109 0.17919 -0.07000
C 	C 	0.23177 0.52868 0.19284 0.02300
C 	C 	0.20945 0.55210 0.20781 -0.07000
H 	H 	0.36178 0.74059 0.19088 0.05000
H 	H 	0.32016 0.56265 0.16851 0.05000
H 	H 	0.15623 0.51110 0.21963 0.04400
C 	C 	0.28387 0.61266 0.72867 0.02200
C 	C 	0.36523 0.64464 0.74375 -0.06800
C 	C 	0.39808 0.62703 0.73248 0.02400
C 	C 	0.34782 0.56047 0.71929 -0.06800
C 	C 	0.26524 0.51753 0.71256 0.02200
C 	C 	0.23278 0.54554 0.71543 -0.06800
H 	H 	0.40415 0.69307 0.75677 0.05100
H 	H 	0.37227 0.54470 0.71147 0.04900
H 	H 	0.16927 0.51788 0.70547 0.04500
Co	Co	0.08181 0.04433 0.05974 1.17000
Co	Co	0.92336 0.92060 0.14165 1.19700
Co	Co	0.00344 0.07723 0.09093 1.16800
Co	Co	0.00049 0.88745 0.10977 1.17500
C 	C 	0.24951 0.09028 0.08779 0.29600
Co	Co	0.12945 0.94237 0.06764 1.17900
Co	Co	0.90454 0.02876 0.15115 1.15900
C 	C 	0.96423 0.80271 0.05609 0.31400
O 	O 	0.91782 0.12186 0.10278 -0.40300
O 	O 	0.94259 0.00602 0.12382 -0.77700
C 	C 	0.89694 0.12244 0.06367 0.29800
O 	O 	0.06936 0.12190 0.05184 -0.48000
O 	O 	0.92659 0.83975 0.14487 -0.45900
C 	C 	0.76258 0.88260 0.13093 0.29100
O 	O 	0.97780 0.97413 0.08797 -0.54900
C 	C 	0.07304 0.15735 0.15656 0.29300
C 	C 	0.09121 0.03476 0.98695 0.31100
C 	C 	0.11128 0.84409 0.15516 0.29900
O 	O 	0.92604 0.10684 0.05085 -0.38400
O 	O 	0.14841 0.02846 0.01354 -0.42800
O 	O 	0.05648 0.04640 0.99825 -0.40600
O 	O 	0.79346 0.95490 0.12018 -0.37600
O 	O 	0.80098 0.85907 0.13360 -0.37300
O 	O 	0.02147 0.09924 0.17944 -0.41600
O 	O 	0.08951 0.14748 0.13217 -0.40100
O 	O 	0.11765 0.85380 0.11955 -0.40200
O 	O 	0.08707 0.87637 0.15729 -0.40100
O 	O 	0.06370 0.95870 0.07862 -0.74900
C 	C 	0.94860 0.93166 0.22324 0.27600
O 	O 	0.89130 0.93984 0.20313 -0.38500
O 	O 	0.98034 0.93160 0.20272 -0.37100
O 	O 	0.22967 0.02146 0.10057 -0.41100
O 	O 	0.20307 0.10300 0.08678 -0.40100
O 	O 	0.02123 0.86367 0.03658 -0.40900
O 	O 	0.93551 0.80787 0.07616 -0.38000
Co	Co	0.07930 0.02370 0.56507 1.17000
Co	Co	0.92883 0.90734 0.64980 1.18900
Co	Co	0.00795 0.06227 0.59778 1.16100
Co	Co	0.99776 0.86813 0.61600 1.19600
C 	C 	0.24034 0.05954 0.58933 0.25900
Co	Co	0.11073 0.91389 0.56675 1.17000
Co	Co	0.90622 0.01685 0.65520 1.15300
C 	C 	0.94334 0.77881 0.55816 0.29000
O 	O 	0.91653 0.10708 0.60494 -0.40700
O 	O 	0.94574 0.99217 0.62996 -0.72900
C 	C 	0.89968 0.10771 0.56627 0.29800
O 	O 	0.07597 0.10546 0.56036 -0.48200
O 	O 	0.93309 0.82594 0.65497 -0.46400
C 	C 	0.76920 0.86610 0.64150 0.29200
O 	O 	0.97847 0.95708 0.59488 -0.55400
C 	C 	0.07580 0.14706 0.66057 0.29100
C 	C 	0.07918 0.01410 0.48857 0.31300
C 	C 	0.11069 0.82863 0.65530 0.30300
O 	O 	0.93232 0.09294 0.55561 -0.38700
O 	O 	0.13257 0.00148 0.51345 -0.43200
O 	O 	0.05135 0.02976 0.50230 -0.40600
O 	O 	0.79576 0.93754 0.62678 -0.37900
O 	O 	0.80665 0.84372 0.64200 -0.37800
O 	O 	0.02213 0.09156 0.68262 -0.41700
O 	O 	0.09288 0.13282 0.63891 -0.40400
O 	O 	0.09425 0.82406 0.61814 -0.41700
O 	O 	0.08766 0.85860 0.66086 -0.40300
O 	O 	0.05429 0.93582 0.58127 -0.75900
C 	C 	0.95652 0.92611 0.72958 0.30400
O 	O 	0.89764 0.93212 0.70918 -0.39300
O 	O 	0.98732 0.92334 0.70990 -0.38300
O 	O 	0.21761 0.99014 0.59926 -0.35900
O 	O 	0.19876 0.07263 0.59332 -0.40000
O 	O 	0.99716 0.83993 0.53681 -0.37400
O 	O 	0.92504 0.78275 0.58476 -0.37300
C 	C 	0.90596 0.84229 0.86323 -0.04400
C 	C 	0.91747 0.86297 0.89578 -0.03100
C 	C 	0.98265 0.93514 0.90277 0.00800
C 	C 	0.03721 0.98652 0.87715 0.01500
C 	C 	0.02534 0.96582 0.84419 0.01300
C 	C 	0.95898 0.89379 0.83693 0.02800
C 	C 	0.07855 0.01795 0.81777 -0.06900
C 	C 	0.14466 0.08958 0.82530 -0.02300
C 	C 	0.15733 0.10959 0.85855 -0.04200
C 	C 	0.10370 0.05846 0.88451 -0.03300
C 	C 	0.11701 0.07754 0.91848 0.00900
C 	C 	0.06418 0.02540 0.94496 -0.14700
C 	C 	0.99534 0.95566 0.93590 0.05900
C 	C 	0.94380 0.87582 0.80201 -0.01500
C 	C 	0.99216 0.93040 0.77330 -0.06300
C 	C 	0.06248 0.99933 0.78281 0.05000
H 	H 	0.85512 0.78656 0.85813 0.04200
H 	H 	0.87571 0.82273 0.91559 0.04000
H 	H 	0.18592 0.13011 0.80521 0.03000
H 	H 	0.20874 0.16496 0.86399 0.03500
H 	H 	0.17033 0.13124 0.92559 0.02800
H 	H 	0.95446 0.91561 0.95623 0.03900
H 	H 	0.89036 0.82204 0.79507 0.04100
H 	H 	0.10081 0.04088 0.76115 0.00600
C 	C 	0.14316 0.10461 0.35674 -0.02000
C 	C 	0.13187 0.08803 0.32243 -0.06600
C 	C 	0.06711 0.01691 0.31384 0.02400
C 	C 	0.01363 0.96197 0.34012 -0.03400
C 	C 	0.02427 0.97909 0.37427 0.03900
C 	C 	0.08964 0.05041 0.38282 -0.05100
C 	C 	0.96989 0.92462 0.40006 -0.00600
C 	C 	0.90573 0.85317 0.39180 -0.01800
C 	C 	0.89522 0.83618 0.35792 -0.06200
C 	C 	0.94839 0.89058 0.33167 0.06600
C 	C 	0.93452 0.87598 0.29575 -0.05800
C 	C 	0.98332 0.93313 0.26739 0.02300
C 	C 	0.05270 0.00146 0.27806 -0.11200
C 	C 	0.10235 0.06562 0.41823 0.01800
C 	C 	0.05044 0.00998 0.44516 -0.15300
C 	C 	0.98210 0.94118 0.43474 0.06500
H 	H 	0.19357 0.15962 0.36299 0.03000
H 	H 	0.17315 0.13079 0.30235 0.04300
H 	H 	0.86407 0.81061 0.41167 0.03600
H 	H 	0.84514 0.78096 0.35186 0.04600
H 	H 	0.88180 0.82269 0.28790 0.05100
H 	H 	0.09156 0.04489 0.25673 0.05900
H 	H 	0.15511 0.11873 0.42627 0.02700
H 	H 	0.94165 0.89856 0.45530 0.03500
C 	C 	0.13093 0.22135 0.66978 -0.08100
C 	C 	0.18986 0.23229 0.70697 0.01600
C 	C 	0.22395 0.28979 0.72409 -0.07200
C 	C 	0.20023 0.33778 0.70388 0.03700
C 	C 	0.14454 0.33009 0.66520 -0.00700
C 	C 	0.11053 0.27214 0.64813 -0.01500
C 	C 	0.12244 0.37947 0.64449 -0.03500
C 	C 	0.15749 0.43770 0.66143 -0.04700
C 	C 	0.21380 0.44627 0.69967 0.01200
C 	C 	0.23230 0.39399 0.72162 -0.07100
H 	H 	0.20563 0.19319 0.72398 0.02700
H 	H 	0.26752 0.29589 0.75353 0.04400
H 	H 	0.06490 0.26373 0.61940 0.03200
H 	H 	0.07944 0.37387 0.61487 0.03300
H 	H 	0.14325 0.47792 0.64401 0.03800
H 	H 	0.27495 0.39978 0.75142 0.04700
C 	C 	0.47813 0.68655 0.72347 0.01300
C 	C 	0.50019 0.76032 0.70156 -0.04200
C 	C 	0.56233 0.81028 0.68161 -0.03200
C 	C 	0.60305 0.78726 0.68303 -0.00300
C 	C 	0.58560 0.71557 0.70764 0.03800
C 	C 	0.52523 0.66667 0.72915 -0.06900
C 	C 	0.62614 0.69245 0.70881 -0.06800
C 	C 	0.68336 0.74004 0.68560 0.01300
C 	C 	0.70111 0.81162 0.66113 -0.07700
C 	C 	0.65992 0.83447 0.65958 -0.01200
H 	H 	0.46650 0.77770 0.69805 0.04100
H 	H 	0.57685 0.86602 0.66378 0.04100
H 	H 	0.51148 0.61148 0.74800 0.04600
H 	H 	0.61317 0.63752 0.72753 0.04700
H 	H 	0.71494 0.72177 0.68733 0.03900
H 	H 	0.67269 0.88925 0.64048 0.04300
C 	C 	0.25927 0.66206 0.71401 0.01200
C 	C 	0.29742 0.73218 0.68585 -0.04500
C 	C 	0.29064 0.78757 0.67895 -0.03300
C 	C 	0.23885 0.77117 0.69654 -0.00400
C 	C 	0.19392 0.69836 0.72168 0.03700
C 	C 	0.20667 0.64470 0.73176 -0.07000
C 	C 	0.13358 0.67906 0.73394 -0.06900
C 	C 	0.11272 0.72871 0.71747 0.01300
C 	C 	0.15429 0.79893 0.69012 -0.08000
C 	C 	0.22421 0.82350 0.68521 -0.00800
H 	H 	0.33474 0.74458 0.67038 0.04100
H 	H 	0.32321 0.84237 0.65843 0.03900
H 	H 	0.17574 0.59012 0.75285 0.04500
H 	H 	0.09925 0.62394 0.75371 0.04300
H 	H 	0.06004 0.70978 0.72287 0.02600
H 	H 	0.25910 0.87948 0.66607 0.04100
C 	C 	0.11104 0.23399 0.15761 -0.08700
C 	C 	0.11761 0.28979 0.12027 0.01500
C 	C 	0.13357 0.35563 0.11905 -0.07200
C 	C 	0.14430 0.36697 0.15532 0.03800
C 	C 	0.14095 0.31254 0.19332 -0.01100
C 	C 	0.12491 0.24652 0.19437 -0.01000
C 	C 	0.15396 0.32502 0.22980 -0.03400
C 	C 	0.17527 0.39327 0.22899 -0.04700
C 	C 	0.18265 0.44919 0.19162 0.01100
C 	C 	0.16148 0.43343 0.15439 -0.07200
H 	H 	0.10620 0.28041 0.09171 0.02700
H 	H 	0.13688 0.39748 0.08979 0.04500
H 	H 	0.12064 0.20383 0.22338 0.03500
H 	H 	0.15032 0.28309 0.25905 0.03300
H 	H 	0.19071 0.40445 0.25781 0.03900
H 	H 	0.16527 0.47586 0.12531 0.04700
C 	C 	0.42618 0.71000 0.16713 0.01300
C 	C 	0.44099 0.77419 0.13408 -0.04400
C 	C 	0.50849 0.81926 0.11890 -0.03200
C 	C 	0.56129 0.79995 0.13626 -0.00400
C 	C 	0.54664 0.73548 0.16956 0.03800
C 	C 	0.48021 0.69188 0.18545 -0.06900
C 	C 	0.59851 0.71530 0.18640 -0.06800
C 	C 	0.66628 0.76054 0.17150 0.01300
C 	C 	0.68322 0.82669 0.13976 -0.07500
C 	C 	0.62918 0.84490 0.12125 -0.01100
H 	H 	0.39926 0.78817 0.11954 0.04300
H 	H 	0.51921 0.86867 0.09337 0.04200
H 	H 	0.46922 0.64274 0.21130 0.04800
H 	H 	0.58715 0.66531 0.21156 0.04700
H 	H 	0.70753 0.74600 0.18597 0.03700
H 	H 	0.64132 0.89520 0.09615 0.04800
C 	C 	0.11198 0.78213 0.18947 -0.07100
C 	C 	0.04657 0.70816 0.18556 -0.02200
C 	C 	0.05883 0.65574 0.19346 -0.05500
C 	C 	0.13606 0.67516 0.20911 0.03000
C 	C 	0.19848 0.74221 0.22301 0.00100
C 	C 	0.18584 0.79552 0.21347 -0.01400
C 	C 	0.27436 0.75857 0.24201 -0.03500
C 	C 	0.29037 0.71416 0.24215 -0.04200
C 	C 	0.23204 0.65598 0.22099 0.01000
C 	C 	0.15327 0.63309 0.20713 -0.06600
H 	H 	0.98776 0.69497 0.17062 0.05000
H 	H 	0.00921 0.60223 0.18518 0.03500
H 	H 	0.23566 0.85085 0.21952 0.04300
H 	H 	0.32176 0.80738 0.25507 0.04200
H 	H 	0.34973 0.72840 0.25607 0.04200
H 	H 	0.10701 0.58659 0.19215 0.04300
C 	C 	0.85654 0.13964 0.53405 -0.08200
C 	C 	0.89616 0.21002 0.50640 0.01700
C 	C 	0.86771 0.25400 0.48678 -0.07000
C 	C 	0.80068 0.22866 0.49564 0.03900
C 	C 	0.75822 0.15576 0.52141 -0.00900
C 	C 	0.78417 0.11031 0.53857 -0.01000
C 	C 	0.69473 0.13184 0.53273 -0.03400
C 	C 	0.67572 0.18085 0.52048 -0.04800
C 	C 	0.71662 0.25335 0.49437 0.01400
C 	C 	0.77832 0.27665 0.48126 -0.07100
H 	H 	0.95167 0.23278 0.50222 0.03700
H 	H 	0.90020 0.30924 0.46656 0.05000
H 	H 	0.75259 0.05508 0.55914 0.02700
H 	H 	0.66213 0.07618 0.55265 0.02800
H 	H 	0.62947 0.16262 0.53169 0.03600
H 	H 	0.80970 0.33209 0.46087 0.04900
C 	C 	0.90029 0.70477 0.55106 -0.07300
C 	C 	0.87041 0.63892 0.58301 0.01400
C 	C 	0.83891 0.57012 0.57864 -0.06700
C 	C 	0.83638 0.56611 0.54213 0.03900
C 	C 	0.86566 0.63187 0.50968 -0.00400
C 	C 	0.89726 0.70090 0.51421 -0.01100
C 	C 	0.86160 0.62738 0.47283 -0.03200
C 	C 	0.82439 0.55735 0.46731 -0.04400
C 	C 	0.79159 0.49139 0.49866 0.01400
C 	C 	0.80177 0.49659 0.53691 -0.06900
H 	H 	0.87353 0.64137 0.61176 0.04000
H 	H 	0.81642 0.51993 0.60367 0.04800
H 	H 	0.91980 0.75145 0.48931 0.04400
H 	H 	0.88478 0.67763 0.44791 0.04000
H 	H 	0.81720 0.55387 0.43780 0.04300
H 	H 	0.77723 0.44563 0.56133 0.04900
C 	C 	0.53486 0.25455 0.50854 0.01300
C 	C 	0.54515 0.20719 0.54717 -0.04800
C 	C 	0.49233 0.16351 0.57234 -0.03500
C 	C 	0.42913 0.16739 0.55958 -0.00900
C 	C 	0.41954 0.21652 0.52129 0.03700
C 	C 	0.47253 0.25987 0.49580 -0.07200
C 	C 	0.35646 0.22066 0.50886 -0.06900
C 	C 	0.30111 0.17357 0.53320 0.01300
C 	C 	0.30820 0.12178 0.57007 -0.08000
C 	C 	0.37401 0.12114 0.58400 -0.01400
H 	H 	0.59553 0.20582 0.55815 0.03900
H 	H 	0.50080 0.12680 0.60188 0.03000
H 	H 	0.46574 0.29783 0.46644 0.04700
H 	H 	0.34898 0.25875 0.47986 0.04600
H 	H 	0.25034 0.17441 0.52224 0.02700
H 	H 	0.38013 0.08199 0.61285 0.03200
C 	C 	0.71148 0.26482 0.99784 0.01200
C 	C 	0.67732 0.19642 0.02787 -0.04700
C 	C 	0.69734 0.14774 0.04092 -0.03400
C 	C 	0.75494 0.16832 0.02588 -0.00900
C 	C 	0.78992 0.23690 0.99576 0.03900
C 	C 	0.76658 0.28416 0.98107 -0.07000
C 	C 	0.85097 0.25922 0.98264 -0.07100
C 	C 	0.88141 0.21699 0.00188 0.01800
C 	C 	0.84964 0.15119 0.03355 -0.08300
C 	C 	0.78260 0.12421 0.04307 -0.00900
H 	H 	0.63626 0.18161 0.04173 0.03700
H 	H 	0.67035 0.09531 0.06410 0.02800
H 	H 	0.79257 0.33646 0.95762 0.04900
H 	H 	0.87755 0.31109 0.95911 0.04900
H 	H 	0.93267 0.23792 0.99395 0.03600
H 	H 	0.75682 0.07232 0.06684 0.02500
C 	C 	0.79680 0.51183 0.99437 0.01300
C 	C 	0.83478 0.57775 0.96414 -0.04400
C 	C 	0.87865 0.64869 0.97091 -0.03200
C 	C 	0.88361 0.65410 0.00771 -0.00600
C 	C 	0.84794 0.58783 0.03883 0.04000
C 	C 	0.80698 0.51725 0.03250 -0.06800
C 	C 	0.84995 0.59267 0.07486 -0.06900
C 	C 	0.88571 0.66254 0.07972 0.01700
C 	C 	0.92207 0.72883 0.04921 -0.08100
C 	C 	0.92143 0.72454 0.01326 -0.00500
H 	H 	0.82736 0.57396 0.93468 0.04300
H 	H 	0.90625 0.69914 0.94693 0.04000
H 	H 	0.77800 0.46616 0.05595 0.04900
H 	H 	0.82253 0.54212 0.09884 0.04800
H 	H 	0.88550 0.66517 0.10737 0.03300
H 	H 	0.94913 0.77554 0.98951 0.04500
C 	C 	0.32479 0.15343 0.07517 -0.08800
C 	C 	0.39627 0.16861 0.10430 0.01700
C 	C 	0.46507 0.21090 0.09099 -0.07300
C 	C 	0.46249 0.23689 0.04835 0.03800
C 	C 	0.39176 0.22540 0.01892 -0.00800
C 	C 	0.32397 0.18604 0.03264 -0.01100
C 	C 	0.38857 0.24961 0.97623 -0.03400
C 	C 	0.45464 0.28348 0.96295 -0.04700
C 	C 	0.52440 0.29381 0.99217 0.01200
C 	C 	0.52860 0.27148 0.03478 -0.07100
H 	H 	0.39753 0.14439 0.13720 0.02800
H 	H 	0.51944 0.22063 0.11382 0.04400
H 	H 	0.26920 0.17614 0.01019 0.03800
H 	H 	0.33462 0.24108 0.95338 0.03500
H 	H 	0.45158 0.30161 0.93000 0.03900
H 	H 	0.58307 0.28044 0.05726 0.04700
