data_crystal

_cell_length_a 26.11126
_cell_length_b 26.40597
_cell_length_c 39.82204
_cell_angle_alpha 95.49816
_cell_angle_beta  95.49295
_cell_angle_gamma 125.86509

_symmetry_space_group_name_	'P 1'
_symmetry_space_group_name_H-M	'P 1'

loop_
_symmetry_equiv_pos_as_xyz
  x,y,z

loop_
_atom_site_label
_atom_site_type_symbol
_atom_site_fract_x
_atom_site_fract_y
_atom_site_fract_z
_atom_site_charge
C 	C 	0.95645 0.01361 0.00123 0.11900
C 	C 	0.04341 0.01271 0.99133 0.12800
N 	N 	0.01686 0.04403 0.99435 -0.13600
N 	N 	0.01520 0.05262 0.46721 -0.12600
C 	C 	0.04559 0.02507 0.46915 0.13100
Cu	Cu	0.62563 0.22304 0.99981 0.92900
Cu	Cu	0.68103 0.23396 0.92822 0.87200
Cu	Cu	0.66233 0.32733 0.95826 0.90000
Cu	Cu	0.62128 0.33662 0.02481 0.89600
C 	C 	0.63845 0.26368 0.07182 0.28700
O 	O 	0.53073 0.18201 0.99784 -0.36500
C 	C 	0.64470 0.28940 0.88301 0.30800
O 	O 	0.67540 0.32191 0.00547 -0.64000
O 	O 	0.61926 0.23381 0.95139 -0.64000
O 	O 	0.66903 0.18127 0.99704 -0.37200
O 	O 	0.74051 0.25244 0.96740 -0.44100
O 	O 	0.60882 0.28879 0.06307 -0.38200
O 	O 	0.70947 0.41852 0.96824 -0.37600
C 	C 	0.70130 0.45027 0.99209 0.31400
C 	C 	0.50473 0.20841 0.98584 0.30300
O 	O 	0.54184 0.26853 0.98312 -0.37900
O 	O 	0.65703 0.42088 0.01128 -0.38900
O 	O 	0.64482 0.22960 0.04842 -0.35400
C 	C 	0.72446 0.20963 0.98672 0.31500
O 	O 	0.66367 0.33488 0.90937 -0.37900
O 	O 	0.64163 0.23886 0.88709 -0.41800
H 	H 	0.72096 0.34975 0.01736 0.16800
H 	H 	0.57517 0.20772 0.93753 0.17600
Cu	Cu	0.75359 0.35806 0.46114 0.92900
Cu	Cu	0.75291 0.31680 0.53602 0.87000
Cu	Cu	0.65001 0.32202 0.50384 0.89800
Cu	Cu	0.62470 0.33700 0.43216 0.90000
C 	C 	0.70525 0.32624 0.38857 0.30600
O 	O 	0.78010 0.44652 0.45741 -0.36000
C 	C 	0.68977 0.34694 0.57954 0.28600
O 	O 	0.65293 0.29808 0.45731 -0.63900
O 	O 	0.74513 0.37030 0.50936 -0.64200
O 	O 	0.80700 0.32732 0.46796 -0.37200
O 	O 	0.74138 0.25660 0.49990 -0.43000
O 	O 	0.67441 0.35066 0.39457 -0.38200
O 	O 	0.55708 0.26955 0.49662 -0.38700
C 	C 	0.51913 0.27050 0.47264 0.31500
C 	C 	0.74606 0.46563 0.46689 0.30200
O 	O 	0.68633 0.42361 0.47042 -0.38300
O 	O 	0.53673 0.28892 0.44339 -0.37700
O 	O 	0.74662 0.33175 0.41326 -0.35800
C 	C 	0.78381 0.27448 0.47979 0.31100
O 	O 	0.64887 0.33825 0.55303 -0.37700
O 	O 	0.74396 0.35585 0.57561 -0.41700
H 	H 	0.62914 0.25176 0.44932 0.17000
H 	H 	0.76950 0.41507 0.52126 0.17700
C 	C 	0.67704 0.35204 0.61462 -0.08500
C 	C 	0.61342 0.31902 0.62011 0.01300
C 	C 	0.60099 0.31646 0.65356 -0.06300
C 	C 	0.65197 0.34676 0.68180 0.02700
C 	C 	0.71562 0.38250 0.67638 -0.06400
C 	C 	0.72812 0.38535 0.64300 0.01400
C 	C 	0.63874 0.33618 0.71672 0.00400
C 	C 	0.66520 0.38819 0.74359 -0.03800
C 	C 	0.66048 0.37870 0.77746 -0.03000
C 	C 	0.62896 0.31720 0.78466 -0.00500
C 	C 	0.59975 0.26497 0.75770 -0.03100
C 	C 	0.60465 0.27437 0.72386 -0.03900
C 	C 	0.63282 0.30830 0.81970 0.04800
C 	C 	0.63743 0.30007 0.84877 -0.10400
H 	H 	0.57353 0.29343 0.59852 0.04100
H 	H 	0.55169 0.28939 0.65748 0.05000
H 	H 	0.75535 0.40636 0.69801 0.04800
H 	H 	0.77748 0.41222 0.63921 0.03500
H 	H 	0.69101 0.43603 0.73833 0.04400
H 	H 	0.68298 0.41932 0.79817 0.04500
H 	H 	0.57517 0.21727 0.76306 0.04000
H 	H 	0.58400 0.23388 0.70335 0.04100
C 	C 	0.65005 0.26045 0.10826 -0.07900
C 	C 	0.70343 0.26316 0.12191 0.01200
C 	C 	0.71612 0.26342 0.15693 -0.06100
C 	C 	0.67525 0.26047 0.17847 0.02600
C 	C 	0.62112 0.25623 0.16465 -0.06300
C 	C 	0.60854 0.25617 0.12976 0.01400
C 	C 	0.69077 0.26528 0.21579 0.00400
C 	C 	0.74455 0.32267 0.23593 -0.03800
C 	C 	0.75249 0.33175 0.27177 -0.03000
C 	C 	0.70682 0.28349 0.28767 -0.00400
C 	C 	0.65538 0.22469 0.26766 -0.03100
C 	C 	0.64742 0.21554 0.23182 -0.03900
C 	C 	0.70776 0.29725 0.32371 0.04700
C 	C 	0.70726 0.30985 0.35355 -0.10000
H 	H 	0.73570 0.26627 0.10558 0.04500
H 	H 	0.75797 0.26658 0.16736 0.05100
H 	H 	0.58935 0.25400 0.18109 0.05000
H 	H 	0.56659 0.25297 0.11947 0.03900
H 	H 	0.77849 0.36125 0.22382 0.04400
H 	H 	0.79260 0.37722 0.28708 0.04500
H 	H 	0.62010 0.18699 0.27976 0.04100
H 	H 	0.60613 0.17079 0.21650 0.04300
C 	C 	0.77205 0.53305 0.46922 -0.12100
C 	C 	0.73399 0.54953 0.45391 0.19500
H 	H 	0.86541 0.56905 0.49753 0.05500
O 	O 	0.67170 0.50310 0.43747 -0.29400
H 	H 	0.67445 0.49365 0.41327 0.14500
C 	C 	0.90066 0.11675 0.43654 -0.09400
C 	C 	0.86934 0.11825 0.46288 -0.00900
C 	C 	0.86062 0.08256 0.48878 0.13000
C 	C 	0.88425 0.04666 0.48848 -0.06900
C 	C 	0.91788 0.04725 0.46291 -0.05600
C 	C 	0.92476 0.08131 0.43640 0.16100
C 	C 	0.84788 0.15912 0.46407 0.00900
O 	O 	0.82905 0.08274 0.51436 -0.28000
O 	O 	0.95655 0.08140 0.41087 -0.28000
H 	H 	0.90708 0.14375 0.41640 0.07600
C 	C 	0.89297 0.22559 0.47431 0.11100
C 	C 	0.87191 0.26364 0.47737 -0.03200
C 	C 	0.80592 0.23565 0.47107 -0.13000
C 	C 	0.76100 0.16942 0.45955 0.19500
C 	C 	0.78209 0.13145 0.45622 -0.11400
O 	O 	0.95758 0.25338 0.48139 -0.27000
H 	H 	0.90680 0.31464 0.48594 0.05200
O 	O 	0.69638 0.14154 0.45243 -0.29300
H 	H 	0.74722 0.08037 0.44799 0.07800
H 	H 	0.92289 0.04484 0.39257 0.14600
H 	H 	0.96742 0.25436 0.50623 0.14200
H 	H 	0.68685 0.14174 0.42775 0.14700
H 	H 	0.86300 0.11866 0.53286 0.14300
C 	C 	0.20732 0.07988 0.44901 -0.08800
C 	C 	0.24909 0.13505 0.47418 -0.01100
C 	C 	0.22390 0.15466 0.49738 0.14000
C 	C 	0.15723 0.11912 0.49523 -0.06900
C 	C 	0.11543 0.06338 0.47037 -0.04500
C 	C 	0.14070 0.04417 0.44694 0.14100
C 	C 	0.31920 0.17212 0.47615 0.01200
O 	O 	0.26432 0.20902 0.52182 -0.27700
H 	H 	0.13808 0.13437 0.51322 0.07100
H 	H 	0.22655 0.06474 0.43101 0.06500
C 	C 	0.35253 0.14954 0.48956 0.11200
C 	C 	0.41835 0.18297 0.48938 -0.03100
C 	C 	0.45124 0.23875 0.47557 -0.12300
C 	C 	0.41827 0.26258 0.46337 0.19500
C 	C 	0.35236 0.22887 0.46338 -0.11300
O 	O 	0.32108 0.09541 0.50339 -0.27300
H 	H 	0.44341 0.16464 0.49921 0.05700
O 	O 	0.45014 0.31822 0.45092 -0.28700
H 	H 	0.32692 0.24664 0.45324 0.08300
H 	H 	0.30578 0.06013 0.48413 0.14500
H 	H 	0.46607 0.35225 0.47106 0.15400
H 	H 	0.27406 0.19504 0.54215 0.15300
H 	H 	0.76991 0.51062 0.92928 0.15700
C 	C 	0.80351 0.14037 0.02585 -0.11800
C 	C 	0.83376 0.13707 0.99935 0.01000
C 	C 	0.83091 0.16067 0.96962 0.11400
C 	C 	0.79546 0.18455 0.96580 -0.03300
C 	C 	0.76337 0.18614 0.99179 -0.13600
C 	C 	0.76837 0.16482 0.02222 0.19800
C 	C 	0.86413 0.10452 0.00152 -0.01100
O 	O 	0.86077 0.15815 0.94366 -0.27900
H 	H 	0.79205 0.20090 0.94232 0.03700
O 	O 	0.74128 0.17020 0.04890 -0.29000
H 	H 	0.80645 0.12313 0.04905 0.07200
C 	C 	0.92638 0.13608 0.02085 0.13700
C 	C 	0.95667 0.10642 0.02046 -0.08200
C 	C 	0.92493 0.04511 0.00104 -0.04300
C 	C 	0.86271 0.01381 0.98157 0.13900
C 	C 	0.83230 0.04317 0.98232 -0.08700
O 	O 	0.95854 0.19670 0.03913 -0.28000
H 	H 	0.00465 0.13095 0.03537 0.07400
H 	H 	0.78444 0.01882 0.96729 0.06900
H 	H 	0.69823 0.12865 0.04566 0.15800
H 	H 	0.94747 0.19135 0.06231 0.14700
H 	H 	0.90473 0.19896 0.94909 0.14900
C 	C 	0.33766 0.15980 0.95485 -0.11800
C 	C 	0.30447 0.12309 0.97894 0.00900
C 	C 	0.33561 0.10985 0.00337 0.12200
C 	C 	0.40022 0.13502 0.00430 -0.03400
C 	C 	0.43446 0.17418 0.98119 -0.12600
C 	C 	0.40228 0.18488 0.95567 0.19100
C 	C 	0.23741 0.09943 0.97898 -0.01100
O 	O 	0.30273 0.07169 0.02611 -0.27200
H 	H 	0.42428 0.12590 0.02378 0.06300
O 	O 	0.43425 0.22088 0.93199 -0.28800
H 	H 	0.31355 0.16937 0.93568 0.07300
C 	C 	0.22370 0.13118 0.00258 0.13600
C 	C 	0.15981 0.10412 0.00542 -0.06900
C 	C 	0.10933 0.04570 0.98458 -0.05100
C 	C 	0.12300 0.01627 0.95933 0.14300
C 	C 	0.18692 0.04291 0.95684 -0.08900
O 	O 	0.27279 0.18706 0.02402 -0.28100
H 	H 	0.14969 0.12744 0.02467 0.06700
H 	H 	0.19725 0.01890 0.93820 0.06800
H 	H 	0.42796 0.19025 0.91248 0.14400
H 	H 	0.28126 0.22114 0.01145 0.14900
H 	H 	0.30967 0.10109 0.04655 0.15500
C 	C 	0.75990 0.61362 0.45514 -0.11700
C 	C 	0.82403 0.66163 0.47084 0.01000
C 	C 	0.86205 0.64534 0.48625 0.12200
C 	C 	0.83591 0.58125 0.48553 -0.03300
C 	C 	0.85250 0.72862 0.46906 -0.00500
O 	O 	0.92438 0.69203 0.50252 -0.27100
H 	H 	0.73055 0.62595 0.44310 0.07500
C 	C 	0.88801 0.75659 0.44335 0.13300
C 	C 	0.84388 0.76447 0.49291 -0.09500
O 	O 	0.89635 0.72184 0.41973 -0.27700
H 	H 	0.81602 0.74293 0.51256 0.07600
H 	H 	0.85980 0.70250 0.40026 0.14800
H 	H 	0.95083 0.69937 0.48466 0.15800
C 	C 	0.81057 0.74548 0.99026 -0.09900
C 	C 	0.84178 0.72154 0.00435 -0.00700
C 	C 	0.80644 0.65223 0.00138 0.01300
O 	O 	0.93911 0.74025 0.03206 -0.27500
H 	H 	0.75983 0.71337 0.97886 0.07300
C 	C 	0.78892 0.62387 0.03045 0.11700
C 	C 	0.75557 0.55806 0.02730 -0.03100
C 	C 	0.73777 0.51981 0.99504 -0.12300
C 	C 	0.75418 0.54827 0.96578 0.19600
C 	C 	0.78860 0.61422 0.96914 -0.11800
O 	O 	0.80510 0.66049 0.06204 -0.27600
H 	H 	0.74339 0.53673 0.04996 0.05300
O 	O 	0.73367 0.51151 0.93370 -0.28200
H 	H 	0.80104 0.63583 0.94658 0.07700
H 	H 	0.76842 0.66209 0.06382 0.14900
H 	H 	0.93710 0.74247 0.05686 0.16000
C 	C 	0.91688 0.82074 0.44252 -0.06400
C 	C 	0.90758 0.76338 0.01920 0.14100
C 	C 	0.87206 0.82854 0.49181 0.16400
H 	H 	0.94558 0.84241 0.42317 0.07300
C 	C 	0.84507 0.81043 0.98961 0.16100
C 	C 	0.90977 0.85722 0.46690 -0.05500
O 	O 	0.86565 0.86384 0.51622 -0.27700
H 	H 	0.82622 0.85887 0.50645 0.15400
C 	C 	0.94190 0.82860 0.01930 -0.06700
O 	O 	0.81433 0.83247 0.97418 -0.26600
H 	H 	0.81914 0.82974 0.94980 0.15400
C 	C 	0.91119 0.85252 0.00430 -0.05000
H 	H 	0.99265 0.86049 0.03067 0.07300
C 	C 	0.94681 0.92629 0.46822 0.14500
C 	C 	0.94920 0.92060 0.00210 0.14000
N 	N 	0.01137 0.96198 0.46967 -0.11700
N 	N 	0.91634 0.95391 0.46620 -0.12900
H 	H 	0.87834 0.02015 0.50880 0.06400
N 	N 	0.92336 0.95240 0.00583 -0.11400
N 	N 	0.00941 0.95102 0.99511 -0.11900
O 	O 	0.10038 0.99020 0.42222 -0.24600
O 	O 	0.83168 0.95462 0.96170 -0.25400
C 	C 	0.95058 0.01712 0.46555 0.12500
O 	O 	0.07402 0.96045 0.93779 -0.26000
H 	H 	0.84443 0.96250 0.93900 0.15100
H 	H 	0.09063 0.00459 0.40210 0.13600
H 	H 	0.06250 0.97345 0.91758 0.15300
