data_crystal

_cell_length_a 13.41073
_cell_length_b 16.30812
_cell_length_c 41.51672
_cell_angle_alpha 90.37059
_cell_angle_beta  90.37147
_cell_angle_gamma 119.44842

_symmetry_space_group_name_	'P 1'
_symmetry_space_group_name_H-M	'P 1'

loop_
_symmetry_equiv_pos_as_xyz
  x,y,z

loop_
_atom_site_label
_atom_site_type_symbol
_atom_site_fract_x
_atom_site_fract_y
_atom_site_fract_z
_atom_site_charge
C 	C 	0.66060 0.36686 0.98664 0.26000
C 	C 	0.59338 0.24772 0.85967 0.28400
C 	C 	0.51250 0.17234 0.94876 0.27700
C 	C 	0.77553 0.52636 0.87771 0.29800
C 	C 	0.86914 0.21632 0.89427 0.32200
C 	C 	0.97533 0.44444 0.94212 0.20200
Ni	Ni	0.60607 0.36201 0.91711 1.11400
Ni	Ni	0.83851 0.37789 0.88112 1.11800
Ni	Ni	0.75826 0.26518 0.94546 1.11700
O 	O 	0.65308 0.41605 0.96277 -0.37300
O 	O 	0.72736 0.32723 0.98502 -0.37800
O 	O 	0.92098 0.30517 0.88756 -0.39400
O 	O 	0.57089 0.31282 0.87025 -0.35800
O 	O 	0.70190 0.26527 0.85758 -0.34300
O 	O 	0.92875 0.35347 0.94825 -0.36800
O 	O 	0.48576 0.23639 0.93989 -0.36200
O 	O 	0.59606 0.16962 0.93479 -0.37700
O 	O 	0.96061 0.47384 0.91295 -0.35000
O 	O 	0.69644 0.50060 0.89999 -0.36000
O 	O 	0.78614 0.46261 0.86155 -0.38400
O 	O 	0.78526 0.18178 0.91481 -0.37600
O 	O 	0.73953 0.34834 0.91742 -0.69900
H 	H 	0.78121 0.40689 0.92974 0.14700
C 	C 	0.81029 0.24846 0.70809 0.27100
C 	C 	0.80015 0.46882 0.60005 0.28300
C 	C 	0.79828 0.49545 0.70825 0.30000
C 	C 	0.80039 0.24001 0.60654 0.25700
C 	C 	0.48344 0.35419 0.65470 0.27300
C 	C 	0.45028 0.12785 0.66514 0.30300
Ni	Ni	0.85765 0.39391 0.65742 1.11100
Ni	Ni	0.61018 0.28001 0.61976 1.12200
Ni	Ni	0.61956 0.29397 0.69732 1.12100
O 	O 	0.88505 0.30317 0.68639 -0.36400
O 	O 	0.73998 0.27400 0.72210 -0.35300
O 	O 	0.55525 0.36969 0.63123 -0.38100
O 	O 	0.83364 0.48855 0.63016 -0.37300
O 	O 	0.72666 0.38199 0.59117 -0.36900
O 	O 	0.53622 0.15794 0.68538 -0.39000
O 	O 	0.87480 0.47190 0.69924 -0.37100
O 	O 	0.69018 0.43129 0.71115 -0.36900
O 	O 	0.46490 0.16381 0.63578 -0.37400
O 	O 	0.87148 0.32890 0.61518 -0.36700
O 	O 	0.68703 0.20500 0.60579 -0.36300
O 	O 	0.48352 0.30772 0.68095 -0.36200
O 	O 	0.70006 0.31042 0.65842 -0.71300
H 	H 	0.70407 0.25205 0.65914 0.15000
C 	C 	0.91682 0.76994 0.82746 0.24600
C 	C 	0.90818 0.07092 0.74823 0.30200
C 	C 	0.90603 0.75792 0.74761 0.25700
C 	C 	0.96161 0.06841 0.83570 0.24400
C 	C 	0.19403 0.02595 0.72627 0.29400
C 	C 	0.29950 0.06373 0.81432 0.28800
Ni	Ni	0.87438 0.90345 0.78646 1.10600
Ni	Ni	0.11824 0.09402 0.78138 1.12700
Ni	Ni	0.11380 0.89643 0.78148 1.12300
O 	O 	0.86973 0.82481 0.82606 -0.36500
O 	O 	0.01622 0.79085 0.81328 -0.33500
O 	O 	0.13949 0.07141 0.73478 -0.36400
O 	O 	0.86061 0.97820 0.74712 -0.36600
O 	O 	0.99001 0.11959 0.76897 -0.38700
O 	O 	0.23600 0.97045 0.81532 -0.36400
O 	O 	0.83183 0.78248 0.75823 -0.35600
O 	O 	0.01317 0.82127 0.74407 -0.34800
O 	O 	0.27550 0.11393 0.79395 -0.37400
O 	O 	0.87614 0.00768 0.81668 -0.34700
O 	O 	0.07132 0.10855 0.82668 -0.33200
O 	O 	0.22149 0.98177 0.74803 -0.36900
O 	O 	0.03442 0.96263 0.79007 -0.70900
H 	H 	0.04389 0.96273 0.81362 0.16500
C 	C 	0.28602 0.58583 0.49316 0.25900
C 	C 	0.50354 0.71309 0.37075 0.29900
C 	C 	0.54872 0.79699 0.46413 0.28000
C 	C 	0.23215 0.46092 0.38418 0.28700
C 	C 	0.31550 0.84730 0.38843 0.30900
C 	C 	0.07795 0.63689 0.42234 0.29700
Ni	Ni	0.41175 0.60900 0.43139 1.11300
Ni	Ni	0.26304 0.65499 0.37866 1.12200
Ni	Ni	0.31163 0.74919 0.44960 1.12000
O 	O 	0.30419 0.53961 0.46946 -0.36700
O 	O 	0.31326 0.67649 0.49032 -0.35800
O 	O 	0.34821 0.79419 0.37361 -0.38900
O 	O 	0.53302 0.69075 0.39797 -0.36400
O 	O 	0.40147 0.65858 0.35829 -0.37000
O 	O 	0.14032 0.68720 0.44756 -0.36700
O 	O 	0.51470 0.70690 0.46634 -0.36700
O 	O 	0.48475 0.82524 0.44919 -0.37400
O 	O 	0.11755 0.65476 0.39243 -0.37000
O 	O 	0.33563 0.49719 0.39775 -0.36000
O 	O 	0.18229 0.51232 0.37832 -0.36900
O 	O 	0.30953 0.84742 0.42005 -0.36500
O 	O 	0.30925 0.65409 0.42192 -0.71300
H 	H 	0.23834 0.59916 0.42921 0.14900
C 	C 	0.22029 0.45691 0.18878 0.29300
C 	C 	0.51046 0.78896 0.10540 0.28300
C 	C 	0.47426 0.71282 0.20694 0.29200
C 	C 	0.27804 0.57949 0.08224 0.25500
C 	C 	0.26076 0.83025 0.18459 0.30300
C 	C 	0.05302 0.62665 0.14069 0.28900
Ni	Ni	0.39644 0.61071 0.14411 1.11400
Ni	Ni	0.29016 0.74653 0.12466 1.12000
Ni	Ni	0.22179 0.63881 0.19252 1.12000
O 	O 	0.32754 0.50170 0.17842 -0.36100
O 	O 	0.15787 0.49843 0.19009 -0.37400
O 	O 	0.30654 0.84849 0.15578 -0.36100
O 	O 	0.49673 0.70371 0.10712 -0.36500
O 	O 	0.46025 0.81273 0.12656 -0.38200
O 	O 	0.06690 0.61202 0.17188 -0.35400
O 	O 	0.50602 0.70312 0.17807 -0.36100
O 	O 	0.36721 0.65679 0.21691 -0.35400
O 	O 	0.12453 0.70497 0.12667 -0.38100
O 	O 	0.28482 0.53515 0.10778 -0.37500
O 	O 	0.27121 0.65981 0.08446 -0.35800
O 	O 	0.27491 0.77321 0.20356 -0.38200
O 	O 	0.28718 0.65156 0.15162 -0.70900
H 	H 	0.21838 0.59768 0.14261 0.14800
C 	C 	0.15315 0.96927 0.24184 0.27900
C 	C 	0.09054 0.20939 0.33562 0.29600
C 	C 	0.17706 0.97058 0.33238 0.30500
C 	C 	0.10071 0.22400 0.24506 0.32400
C 	C 	0.77936 0.91411 0.32636 0.29100
C 	C 	0.76784 0.88970 0.25560 0.27100
Ni	Ni	0.17948 0.11948 0.28954 1.11400
Ni	Ni	0.91337 0.08026 0.28617 1.10900
Ni	Ni	0.96800 0.90782 0.29290 1.10300
O 	O 	0.20199 0.06196 0.24695 -0.35600
O 	O 	0.09241 0.90774 0.26458 -0.35600
O 	O 	0.81650 0.00519 0.32367 -0.38000
O 	O 	0.14340 0.15954 0.33360 -0.35800
O 	O 	0.00667 0.19534 0.31538 -0.34200
O 	O 	0.84631 0.86225 0.25765 -0.38500
O 	O 	0.23741 0.03594 0.31168 -0.36500
O 	O 	0.06618 0.93358 0.33300 -0.35100
O 	O 	0.79877 0.98075 0.25525 -0.37200
O 	O 	0.17195 0.23146 0.26829 -0.37500
O 	O 	0.98862 0.16630 0.24769 -0.39700
O 	O 	0.85165 0.88254 0.32650 -0.38500
O 	O 	0.02109 0.03589 0.28316 -0.69500
H 	H 	0.01673 0.03026 0.25947 0.15800
C 	C 	0.17906 0.36956 0.20581 -0.02600
C 	C 	0.14097 0.30013 0.22242 -0.03400
C 	C 	0.65519 0.82335 0.24295 -0.02800
C 	C 	0.56546 0.77048 0.22937 -0.02800
C 	C 	0.22897 0.89346 0.19947 -0.03500
C 	C 	0.19687 0.93521 0.21679 -0.01900
C 	C 	0.67043 0.85370 0.34024 -0.03400
C 	C 	0.58839 0.79115 0.35311 -0.03100
C 	C 	0.18332 0.36901 0.36923 -0.02700
C 	C 	0.14142 0.29438 0.35493 -0.02800
C 	C 	0.27252 0.89723 0.36972 -0.03800
C 	C 	0.23159 0.93346 0.35293 -0.02800
C 	C 	0.85772 0.12226 0.54534 0.07000
C 	C 	0.82012 0.09794 0.51315 -0.08000
C 	C 	0.73550 0.00532 0.50678 0.01200
C 	C 	0.69914 0.93736 0.52987 0.08100
C 	C 	0.74186 0.95799 0.56135 -0.08400
C 	C 	0.81967 0.05262 0.56907 0.01600
N 	N 	0.87716 0.20446 0.55849 -0.15300
C 	C 	0.84785 0.18804 0.58981 0.00700
C 	C 	0.81426 0.09528 0.59735 -0.04900
N 	N 	0.64670 0.85112 0.51644 -0.15200
C 	C 	0.64470 0.86415 0.48425 0.00200
C 	C 	0.70493 0.96028 0.47730 -0.04200
H 	H 	0.84761 0.15111 0.49469 0.05200
H 	H 	0.71026 0.90424 0.57966 0.05800
H 	H 	0.75690 0.05766 0.61687 0.05400
H 	H 	0.69693 0.99182 0.45524 0.05800
H 	H 	0.87545 0.25828 0.54533 0.08600
H 	H 	0.59015 0.78979 0.52852 0.09000
C 	C 	0.90354 0.47340 0.47216 0.08000
C 	C 	0.94570 0.46715 0.50259 -0.08500
C 	C 	0.94434 0.52444 0.52759 0.01300
C 	C 	0.87733 0.56685 0.52513 0.07900
C 	C 	0.82247 0.56417 0.49606 -0.08100
C 	C 	0.84487 0.52417 0.46891 0.01000
N 	N 	0.96706 0.48568 0.44591 -0.16600
C 	C 	0.96692 0.55559 0.42880 -0.03400
C 	C 	0.88217 0.57306 0.44045 -0.03000
N 	N 	0.83532 0.57071 0.55407 -0.15100
C 	C 	0.87486 0.53035 0.57523 -0.00100
C 	C 	0.94720 0.50484 0.55960 -0.04800
H 	H 	0.99116 0.42808 0.50551 0.04500
H 	H 	0.77201 0.59925 0.49392 0.05600
H 	H 	0.88202 0.63860 0.43623 0.04500
H 	H 	0.96399 0.44990 0.56793 0.05200
H 	H 	0.03617 0.47270 0.44584 0.10700
H 	H 	0.75872 0.57204 0.55705 0.08800
C 	C 	0.27760 0.38290 0.61242 0.08500
C 	C 	0.23669 0.36609 0.58022 -0.07900
C 	C 	0.27431 0.44403 0.55997 0.01700
C 	C 	0.34088 0.53428 0.57133 0.07800
C 	C 	0.37723 0.55271 0.60360 -0.07900
C 	C 	0.34530 0.47488 0.62399 0.01600
N 	N 	0.30447 0.32414 0.62818 -0.15000
C 	C 	0.39126 0.37711 0.64907 0.01300
C 	C 	0.41690 0.47097 0.64746 -0.04100
N 	N 	0.33529 0.59654 0.55131 -0.15100
C 	C 	0.26777 0.54578 0.52599 0.01600
C 	C 	0.22401 0.44936 0.53144 -0.04500
H 	H 	0.18421 0.29507 0.57098 0.06600
H 	H 	0.43195 0.62408 0.61225 0.05900
H 	H 	0.50017 0.52999 0.65363 0.05600
H 	H 	0.18662 0.39409 0.51331 0.05800
H 	H 	0.29040 0.25983 0.61855 0.09400
H 	H 	0.39483 0.66842 0.55095 0.09300
C 	C 	0.85449 0.11926 0.73286 -0.04000
C 	C 	0.82654 0.17409 0.72188 -0.02500
C 	C 	0.26275 0.05540 0.69811 -0.02200
C 	C 	0.33960 0.08478 0.67918 -0.04400
C 	C 	0.86580 0.66536 0.73352 -0.02900
C 	C 	0.83590 0.58819 0.72186 -0.04100
C 	C 	0.91666 0.53809 0.06867 0.11400
C 	C 	0.93445 0.58294 0.03847 -0.15900
C 	C 	0.00048 0.56782 0.01544 0.13000
C 	C 	0.04857 0.51215 0.02217 0.03800
C 	C 	0.02048 0.45968 0.05080 -0.01600
C 	C 	0.95743 0.47610 0.07438 -0.03600
N 	N 	0.91530 0.58075 0.09650 -0.15300
C 	C 	0.96378 0.55311 0.11987 -0.02200
C 	C 	0.98388 0.48322 0.10708 -0.06400
N 	N 	0.07198 0.48154 0.99459 -0.15400
C 	C 	0.03015 0.50999 0.96974 0.09900
C 	C 	0.98526 0.56534 0.98207 -0.16400
H 	H 	0.90789 0.63491 0.03439 0.06800
H 	H 	0.03989 0.40336 0.05375 0.04800
H 	H 	0.04647 0.46639 0.11704 0.07200
H 	H 	0.91728 0.57231 0.97043 0.07800
H 	H 	0.91595 0.64516 0.09726 0.08700
H 	H 	0.08482 0.42331 0.99331 0.10500
C 	C 	0.54551 0.96759 0.05637 0.07800
C 	C 	0.60034 0.05621 0.04244 -0.08600
C 	C 	0.55541 0.06703 0.01329 0.01500
C 	C 	0.46074 0.99411 0.99863 0.08400
C 	C 	0.40313 0.90621 0.01325 -0.08500
C 	C 	0.44669 0.89578 0.04285 0.01600
N 	N 	0.59994 0.93277 0.07419 -0.15100
C 	C 	0.53224 0.83783 0.07432 -0.00900
C 	C 	0.43913 0.81400 0.05331 -0.06700
N 	N 	0.40944 0.02794 0.97903 -0.15100
C 	C 	0.47517 0.12323 0.97960 -0.00100
C 	C 	0.56021 0.14812 0.00336 -0.07600
H 	H 	0.67638 0.11383 0.05333 0.05400
H 	H 	0.32712 0.84863 0.00233 0.06400
H 	H 	0.39234 0.74891 0.04024 0.06200
H 	H 	0.58639 0.20672 0.01959 0.05800
H 	H 	0.66116 0.97152 0.09196 0.08900
H 	H 	0.35529 0.98932 0.95986 0.09700
C 	C 	0.35177 0.45050 0.03193 0.08000
C 	C 	0.36751 0.37287 0.03732 -0.08400
C 	C 	0.47947 0.38818 0.04064 0.01800
C 	C 	0.57306 0.47823 0.03889 0.07800
C 	C 	0.55676 0.55476 0.03244 -0.08300
C 	C 	0.44544 0.53924 0.02790 0.01900
N 	N 	0.26557 0.45766 0.04544 -0.15300
C 	C 	0.30420 0.55044 0.05124 0.01100
C 	C 	0.41401 0.60226 0.03895 -0.05400
N 	N 	0.66320 0.47442 0.02695 -0.15000
C 	C 	0.62660 0.38433 0.01806 0.00600
C 	C 	0.51365 0.32822 0.02771 -0.05200
H 	H 	0.29463 0.30276 0.03943 0.06100
H 	H 	0.62963 0.62496 0.03037 0.05600
H 	H 	0.47720 0.66892 0.04880 0.05900
H 	H 	0.45424 0.26288 0.01567 0.05200
H 	H 	0.20451 0.40443 0.05978 0.09200
H 	H 	0.72784 0.53102 0.01461 0.09100
C 	C 	0.90180 0.15683 0.87751 -0.05800
C 	C 	0.93198 0.11438 0.86006 -0.01100
C 	C 	0.50020 0.16720 0.84352 -0.02500
C 	C 	0.40988 0.11173 0.83069 -0.02900
C 	C 	0.86483 0.68909 0.84794 -0.02100
C 	C 	0.82179 0.61756 0.86338 -0.04900
