data_crystal

_cell_length_a 18.54333
_cell_length_b 18.81992
_cell_length_c 34.42909
_cell_angle_alpha 95.41660
_cell_angle_beta  95.41772
_cell_angle_gamma 126.43263

_symmetry_space_group_name_	'P 1'
_symmetry_space_group_name_H-M	'P 1'

loop_
_symmetry_equiv_pos_as_xyz
  x,y,z

loop_
_atom_site_label
_atom_site_type_symbol
_atom_site_fract_x
_atom_site_fract_y
_atom_site_fract_z
_atom_site_charge
C 	C 	0.89963 0.98262 0.97521 0.05300
C 	C 	0.85147 0.88912 0.97160 -0.06400
C 	C 	0.89791 0.85158 0.96822 0.05900
C 	C 	0.99128 0.90717 0.96714 -0.06100
C 	C 	0.03919 0.00020 0.97067 0.05400
C 	C 	0.99402 0.03809 0.97648 -0.05000
H 	H 	0.77870 0.84608 0.97135 0.07100
H 	H 	0.02657 0.87793 0.96347 0.06600
H 	H 	0.03169 0.11043 0.98067 0.06900
C 	C 	0.96110 0.05106 0.48647 0.08100
C 	C 	0.90531 0.95827 0.48577 -0.08400
C 	C 	0.94421 0.91382 0.49011 0.07900
C 	C 	0.03838 0.96118 0.49263 -0.09100
C 	C 	0.09421 0.05348 0.49219 0.07800
C 	C 	0.05559 0.09862 0.48918 -0.08700
H 	H 	0.83214 0.92129 0.48309 0.07600
H 	H 	0.06842 0.92658 0.49554 0.07300
H 	H 	0.09885 0.17036 0.48949 0.07300
Cu	Cu	0.74254 0.31989 0.95952 0.93200
Cu	Cu	0.69737 0.23641 0.04029 0.86900
Cu	Cu	0.60244 0.29823 0.00587 0.89900
Cu	Cu	0.57283 0.30826 0.91983 0.90200
C 	C 	0.68656 0.28357 0.87487 0.29900
O 	O 	0.79168 0.44935 0.95633 -0.34800
C 	C 	0.64190 0.31949 0.09256 0.29700
O 	O 	0.60060 0.24988 0.95278 -0.63200
O 	O 	0.72843 0.33622 0.01471 -0.64800
O 	O 	0.80290 0.26192 0.96887 -0.34700
O 	O 	0.68740 0.15783 0.99743 -0.42000
O 	O 	0.65257 0.32740 0.88080 -0.38400
O 	O 	0.48180 0.26954 0.99610 -0.36000
C 	C 	0.42134 0.22154 0.96292 0.31100
C 	C 	0.74737 0.48174 0.96571 0.29800
O 	O 	0.65943 0.42676 0.96591 -0.38300
O 	O 	0.44548 0.23663 0.92806 -0.38500
O 	O 	0.73608 0.28264 0.90458 -0.34500
C 	C 	0.75772 0.18380 0.98044 0.30900
O 	O 	0.61102 0.33796 0.06189 -0.36500
O 	O 	0.69185 0.29118 0.08883 -0.41000
H 	H 	0.56026 0.18337 0.94593 0.17200
H 	H 	0.77389 0.39694 0.03116 0.19100
Cu	Cu	0.63938 0.22647 0.50673 0.93100
Cu	Cu	0.71907 0.27208 0.42507 0.88000
Cu	Cu	0.65291 0.36009 0.45998 0.90100
Cu	Cu	0.65440 0.39512 0.54708 0.90200
C 	C 	0.68306 0.28428 0.59146 0.29900
O 	O 	0.51026 0.17956 0.51249 -0.35200
C 	C 	0.62260 0.31377 0.37280 0.29700
O 	O 	0.70923 0.36572 0.51225 -0.63600
O 	O 	0.61789 0.23732 0.45142 -0.64400
O 	O 	0.69205 0.16207 0.49576 -0.35700
O 	O 	0.79663 0.27261 0.46548 -0.41600
O 	O 	0.63862 0.31806 0.58637 -0.38400
O 	O 	0.67736 0.47689 0.46993 -0.35500
C 	C 	0.73169 0.53968 0.50158 0.30700
C 	C 	0.47585 0.22155 0.50273 0.29800
O 	O 	0.53000 0.30859 0.50306 -0.38400
O 	O 	0.72640 0.51943 0.53732 -0.38600
O 	O 	0.68294 0.23564 0.56127 -0.35900
C 	C 	0.76675 0.20049 0.48072 0.31400
O 	O 	0.61319 0.35280 0.40393 -0.35400
O 	O 	0.65578 0.26853 0.37670 -0.40400
H 	H 	0.77680 0.40575 0.51738 0.16500
H 	H 	0.55606 0.19087 0.43547 0.19400
C 	C 	0.62333 0.21023 0.76343 -0.08600
C 	C 	0.70939 0.24790 0.75365 0.00500
C 	C 	0.78506 0.28233 0.78400 0.03800
C 	C 	0.77585 0.28920 0.82395 -0.00800
C 	C 	0.69109 0.25818 0.83374 -0.09300
C 	C 	0.61301 0.21209 0.80327 0.10100
C 	C 	0.72133 0.26003 0.71220 0.00500
C 	C 	0.87661 0.31615 0.77405 -0.18100
H 	H 	0.83535 0.32188 0.84731 0.06100
C 	C 	0.51919 0.16808 0.81297 -0.20400
H 	H 	0.56475 0.18151 0.74004 0.05900
C 	C 	0.68500 0.18552 0.68159 0.03500
C 	C 	0.67759 0.19518 0.64175 -0.01200
C 	C 	0.70989 0.27916 0.63228 -0.10000
C 	C 	0.75791 0.35587 0.66294 0.10100
C 	C 	0.76041 0.34521 0.70271 -0.08800
C 	C 	0.64953 0.09475 0.69117 -0.18100
H 	H 	0.64325 0.13665 0.61823 0.05400
C 	C 	0.80307 0.44862 0.65354 -0.20400
H 	H 	0.79059 0.40287 0.72628 0.05900
H 	H 	0.46553 0.11434 0.78792 0.08000
H 	H 	0.50731 0.21905 0.81883 0.07300
H 	H 	0.51185 0.13630 0.83940 0.07100
H 	H 	0.91049 0.38392 0.76645 0.07600
H 	H 	0.86841 0.26962 0.74852 0.07900
H 	H 	0.92166 0.32078 0.79951 0.08300
H 	H 	0.64378 0.05019 0.66546 0.08000
H 	H 	0.58103 0.06213 0.69900 0.07600
H 	H 	0.69659 0.10180 0.71645 0.08000
H 	H 	0.75185 0.46115 0.64828 0.07400
H 	H 	0.83442 0.45572 0.62682 0.06800
H 	H 	0.85838 0.50101 0.67849 0.07900
C 	C 	0.54590 0.25508 0.26192 -0.09200
C 	C 	0.58935 0.34125 0.25297 0.00400
C 	C 	0.62221 0.41465 0.28358 0.03500
C 	C 	0.62718 0.40392 0.32337 -0.01800
C 	C 	0.59388 0.31944 0.33246 -0.09500
C 	C 	0.54480 0.24316 0.30152 0.10800
C 	C 	0.61011 0.35535 0.21264 0.00600
C 	C 	0.65571 0.50499 0.27411 -0.18000
H 	H 	0.66060 0.46191 0.34710 0.06100
C 	C 	0.49413 0.14951 0.31042 -0.21100
H 	H 	0.51604 0.19780 0.23818 0.05900
C 	C 	0.69452 0.38019 0.20420 0.03100
C 	C 	0.70704 0.37827 0.16468 -0.01200
C 	C 	0.63458 0.34561 0.13325 -0.09900
C 	C 	0.55194 0.32633 0.14187 0.10800
C 	C 	0.54106 0.33245 0.18164 -0.09300
C 	C 	0.76897 0.40237 0.23689 -0.17700
H 	H 	0.77181 0.39721 0.15822 0.04700
C 	C 	0.47493 0.29814 0.10913 -0.21700
H 	H 	0.47718 0.31548 0.18840 0.05900
H 	H 	0.54101 0.13125 0.31417 0.08800
H 	H 	0.43612 0.09978 0.28579 0.08100
H 	H 	0.46545 0.14473 0.33781 0.09400
H 	H 	0.60917 0.49670 0.24819 0.07500
H 	H 	0.72528 0.54028 0.26725 0.07300
H 	H 	0.65807 0.54779 0.29953 0.07700
H 	H 	0.83108 0.42136 0.22541 0.07100
H 	H 	0.74465 0.34305 0.25104 0.07400
H 	H 	0.78901 0.45977 0.25970 0.07200
H 	H 	0.45341 0.23686 0.08880 0.10100
H 	H 	0.49706 0.35332 0.09235 0.10300
H 	H 	0.41423 0.28234 0.12100 0.08300
C 	C 	0.87870 0.75601 0.46259 -0.08000
C 	C 	0.88653 0.81765 0.49236 -0.01200
C 	C 	0.84386 0.78788 0.52525 0.08700
C 	C 	0.79125 0.69666 0.52727 -0.01600
C 	C 	0.78450 0.63496 0.49783 -0.09800
C 	C 	0.83039 0.66556 0.46570 0.14300
Br	Br	0.83577 0.58756 0.42786 -0.28000
H 	H 	0.91292 0.77909 0.43765 0.07200
H 	H 	0.75677 0.67394 0.55217 0.06600
Br	Br	0.86153 0.87134 0.56900 -0.20100
C 	C 	0.85693 0.16333 0.51889 -0.01200
C 	C 	0.81872 0.16461 0.48208 -0.10400
C 	C 	0.83248 0.13364 0.44674 0.14400
C 	C 	0.88353 0.10118 0.44857 -0.08000
C 	C 	0.92032 0.09837 0.48534 -0.01100
C 	C 	0.90795 0.13078 0.52068 0.08700
Br	Br	0.95976 0.13050 0.57159 -0.19400
H 	H 	0.84729 0.18796 0.54614 0.06500
H 	H 	0.89222 0.07549 0.42133 0.07500
Br	Br	0.77752 0.13001 0.39568 -0.29100
C 	C 	0.23179 0.12224 0.46125 -0.07800
C 	C 	0.19336 0.10274 0.49555 -0.01400
C 	C 	0.24795 0.12132 0.53205 0.08800
C 	C 	0.33931 0.15649 0.53370 -0.01900
C 	C 	0.37760 0.17542 0.49938 -0.09600
C 	C 	0.32365 0.15876 0.46303 0.13900
Br	Br	0.37361 0.18325 0.41535 -0.26100
H 	H 	0.18981 0.10742 0.43305 0.07300
H 	H 	0.38122 0.17110 0.56189 0.06300
Br	Br	0.19930 0.10103 0.58011 -0.20700
C 	C 	0.80705 0.61191 0.93192 -0.02100
C 	C 	0.79078 0.57777 0.96721 -0.08800
C 	C 	0.80293 0.63187 0.00221 0.13400
C 	C 	0.83259 0.71976 0.00174 -0.08700
C 	C 	0.84981 0.75424 0.96651 0.00100
C 	C 	0.83513 0.69913 0.93128 0.08500
Br	Br	0.85121 0.74132 0.88183 -0.21900
H 	H 	0.79522 0.56965 0.90464 0.06400
H 	H 	0.84468 0.76211 0.02903 0.08000
Br	Br	0.78170 0.58765 0.05115 -0.25100
C 	C 	0.82919 0.04371 0.94079 -0.08300
C 	C 	0.85128 0.02279 0.97590 0.00900
C 	C 	0.84044 0.05314 0.01223 0.07600
C 	C 	0.81054 0.10622 0.01336 -0.02300
C 	C 	0.79133 0.12970 0.97847 -0.09700
C 	C 	0.79909 0.09669 0.94186 0.14700
Br	Br	0.76618 0.12048 0.89290 -0.22400
H 	H 	0.83752 0.02054 0.91275 0.08900
H 	H 	0.80304 0.12995 0.04150 0.04100
Br	Br	0.86806 0.02436 0.06075 -0.23600
C 	C 	0.26288 0.16663 0.93845 -0.01300
C 	C 	0.32364 0.16425 0.96482 -0.10200
C 	C 	0.28998 0.10521 0.99204 0.14800
C 	C 	0.19810 0.05599 0.99518 -0.07500
C 	C 	0.13720 0.05800 0.96871 -0.00400
C 	C 	0.16959 0.11129 0.93921 0.08500
Br	Br	0.08709 0.10340 0.89754 -0.22000
H 	H 	0.28786 0.21004 0.91669 0.06600
H 	H 	0.17316 0.01310 0.01714 0.06800
Br	Br	0.36472 0.08102 0.02093 -0.29800
