data_crystal

_cell_length_a 42.33293
_cell_length_b 42.51021
_cell_length_c 30.42457
_cell_angle_alpha 89.95283
_cell_angle_beta  89.94057
_cell_angle_gamma 90.49598

_symmetry_space_group_name_	'P 1'
_symmetry_space_group_name_H-M	'P 1'

loop_
_symmetry_equiv_pos_as_xyz
  x,y,z

loop_
_atom_site_label
_atom_site_type_symbol
_atom_site_fract_x
_atom_site_fract_y
_atom_site_fract_z
_atom_site_charge
Zn	Zn	0.47571 0.48266 0.98349 1.22400
C 	C 	0.49096 0.54840 0.97153 0.32700
O 	O 	0.50190 0.47126 0.03411 -0.47700
O 	O 	0.46818 0.55346 0.00003 -0.46000
O 	O 	0.50948 0.51992 0.06255 -0.49700
C 	C 	0.41393 0.50344 0.00504 0.30900
O 	O 	0.43370 0.49897 0.97243 -0.44400
O 	O 	0.42472 0.50611 0.04534 -0.50700
C 	C 	0.52060 0.49217 0.05245 0.31900
O 	O 	0.45182 0.43249 0.98570 -0.32500
Zn	Zn	0.46448 0.52799 0.05756 1.16900
O 	O 	0.50000 0.51950 0.96289 -0.43600
C 	C 	0.46944 0.42611 0.95201 0.27800
O 	O 	0.48745 0.44899 0.93858 -0.38300
Zn	Zn	0.42061 0.10031 0.05953 1.22100
C 	C 	0.44756 0.10119 0.14685 0.34400
O 	O 	0.37441 0.09596 0.06452 -0.46300
O 	O 	0.44086 0.13117 0.15038 -0.45500
O 	O 	0.37312 0.11218 0.13564 -0.49300
C 	C 	0.44233 0.16394 0.05457 0.34200
O 	O 	0.45146 0.13452 0.05455 -0.45600
O 	O 	0.41630 0.17203 0.07485 -0.51300
C 	C 	0.35974 0.09744 0.10256 0.31300
O 	O 	0.41647 0.10262 0.98169 -0.32600
Zn	Zn	0.39952 0.14896 0.12498 1.17100
O 	O 	0.43313 0.08378 0.11723 -0.44600
C 	C 	0.42768 0.07429 0.98308 0.31300
O 	O 	0.43321 0.06322 0.02181 -0.39900
C 	C 	0.52596 0.00745 0.76007 0.15000
C 	C 	0.53918 0.98283 0.78445 -0.12000
H 	H 	0.55183 0.96430 0.76767 0.07500
C 	C 	0.53475 0.98139 0.83011 0.08300
C 	C 	0.51735 0.00479 0.85131 -0.10900
C 	C 	0.50410 0.02948 0.82707 0.08300
C 	C 	0.50884 0.03105 0.78153 -0.12000
H 	H 	0.49846 0.04992 0.76260 0.07500
N 	N 	0.52771 0.00706 0.71288 -0.18300
C 	C 	0.50667 0.98889 0.68959 0.19800
C 	C 	0.50899 0.98688 0.64352 -0.08200
C 	C 	0.53317 0.00348 0.62166 0.06200
C 	C 	0.55320 0.02356 0.64570 -0.08100
C 	C 	0.55041 0.02470 0.69183 0.19800
C 	C 	0.48691 0.96941 0.61907 0.01000
C 	C 	0.48966 0.96737 0.57348 -0.05800
C 	C 	0.51605 0.98075 0.55160 0.01500
C 	C 	0.53678 0.00063 0.57553 -0.02900
C 	C 	0.56022 0.01868 0.55350 0.01500
C 	C 	0.57485 0.04299 0.62335 0.01000
C 	C 	0.57734 0.04162 0.57764 -0.05800
C 	C 	0.52123 0.97594 0.50595 0.01600
C 	C 	0.54443 0.99416 0.48375 -0.03000
C 	C 	0.56494 0.01444 0.50750 0.01600
O 	O 	0.56991 0.04249 0.71491 -0.20300
O 	O 	0.48434 0.97305 0.71050 -0.20300
H 	H 	0.58902 0.06009 0.64113 0.04300
H 	H 	0.59125 0.05951 0.56125 0.04500
H 	H 	0.46696 0.95812 0.63513 0.04300
H 	H 	0.47041 0.95679 0.55530 0.04500
C 	C 	0.59064 0.02873 0.48507 -0.05900
C 	C 	0.59292 0.02691 0.43937 0.01000
C 	C 	0.57138 0.00849 0.41533 -0.08100
C 	C 	0.54805 0.99103 0.43765 0.06100
C 	C 	0.50491 0.95217 0.48244 -0.05900
C 	C 	0.50784 0.94998 0.43689 0.01000
C 	C 	0.52892 0.96978 0.41412 -0.08200
C 	C 	0.57354 0.00626 0.36922 0.19700
N 	N 	0.55373 0.98642 0.34653 -0.18300
C 	C 	0.53205 0.96786 0.36813 0.19700
C 	C 	0.55574 0.98491 0.29940 0.14800
C 	C 	0.53377 0.00103 0.27351 -0.11800
C 	C 	0.53402 0.99759 0.22760 0.07900
C 	C 	0.55629 0.97791 0.20782 -0.10800
C 	C 	0.57817 0.96155 0.23368 0.08000
C 	C 	0.57821 0.96553 0.27939 -0.11900
O 	O 	0.59447 0.02353 0.34774 -0.20500
O 	O 	0.51395 0.94826 0.34568 -0.20500
H 	H 	0.51590 0.01527 0.28923 0.07300
H 	H 	0.59497 0.95287 0.29951 0.07300
H 	H 	0.60981 0.03980 0.50277 0.04500
H 	H 	0.61228 0.03892 0.42294 0.04200
H 	H 	0.49123 0.93431 0.49935 0.04500
H 	H 	0.49434 0.93214 0.41955 0.04200
H 	H 	0.55639 0.97507 0.17239 0.06100
H 	H 	0.51383 0.00362 0.88660 0.06400
Zn	Zn	0.64115 0.86639 0.00348 1.22000
C 	C 	0.62450 0.86588 0.09507 0.34300
O 	O 	0.67154 0.89680 0.02847 -0.45100
O 	O 	0.65368 0.85889 0.10570 -0.45400
O 	O 	0.70823 0.85913 0.04173 -0.51300
C 	C 	0.63638 0.79907 0.00782 0.32100
O 	O 	0.64098 0.82318 0.98156 -0.45900
O 	O 	0.64527 0.80050 0.04904 -0.49400
C 	C 	0.70070 0.88883 0.03744 0.34500
O 	O 	0.65555 0.88290 0.93151 -0.32400
Zn	Zn	0.67944 0.82827 0.06737 1.17100
O 	O 	0.61412 0.86006 0.05527 -0.45000
C 	C 	0.62804 0.89615 0.93131 0.30500
O 	O 	0.61164 0.89301 0.96695 -0.38800
Zn	Zn	0.08450 0.63209 0.93268 1.22200
C 	C 	0.07115 0.61514 0.02271 0.33800
O 	O 	0.07850 0.67782 0.92536 -0.45900
O 	O 	0.09966 0.62425 0.03450 -0.45500
O 	O 	0.08307 0.68757 0.99858 -0.49200
C 	C 	0.14736 0.61323 0.95511 0.34700
O 	O 	0.11871 0.60305 0.94640 -0.45400
O 	O 	0.15195 0.64199 0.96931 -0.51200
C 	C 	0.07384 0.69624 0.95934 0.33300
O 	O 	0.09955 0.62756 0.85776 -0.32600
Zn	Zn	0.12108 0.66303 0.00595 1.16800
O 	O 	0.05891 0.62535 0.98580 -0.43900
C 	C 	0.07213 0.61410 0.85286 0.30400
O 	O 	0.05514 0.61199 0.88810 -0.38900
C 	C 	0.99917 0.48430 0.67997 0.15200
C 	C 	0.01933 0.50143 0.70784 -0.12000
H 	H 	0.03836 0.51547 0.69395 0.07500
C 	C 	0.01517 0.49989 0.75359 0.08100
C 	C 	0.99097 0.48103 0.77124 -0.10700
C 	C 	0.97034 0.46441 0.74339 0.08200
C 	C 	0.97483 0.46568 0.69781 -0.12100
H 	H 	0.95933 0.45246 0.67617 0.07300
N 	N 	0.00342 0.48580 0.63313 -0.18400
C 	C 	0.02515 0.46668 0.61334 0.19700
C 	C 	0.02796 0.46616 0.56721 -0.08100
C 	C 	0.00780 0.48482 0.54169 0.06000
C 	C 	0.98709 0.50570 0.56258 -0.08000
C 	C 	0.98516 0.50581 0.60879 0.19800
C 	C 	0.05122 0.44809 0.54650 0.01000
C 	C 	0.05356 0.44760 0.50075 -0.05800
C 	C 	0.03087 0.46305 0.47448 0.01500
C 	C 	0.00891 0.48318 0.49521 -0.03000
C 	C 	0.98897 0.50264 0.46984 0.01600
C 	C 	0.96938 0.52674 0.53722 0.01000
C 	C 	0.97122 0.52608 0.49144 -0.05800
C 	C 	0.03065 0.46005 0.42786 0.01500
C 	C 	0.01053 0.47940 0.40256 -0.03000
C 	C 	0.98843 0.49932 0.42334 0.01600
O 	O 	0.96542 0.52493 0.62874 -0.20300
O 	O 	0.04307 0.44832 0.63756 -0.20400
H 	H 	0.95482 0.54433 0.55288 0.04300
H 	H 	0.96015 0.54480 0.47322 0.04500
H 	H 	0.06829 0.43520 0.56578 0.04200
H 	H 	0.07396 0.43662 0.48623 0.04500
C 	C 	0.96529 0.51423 0.39729 -0.05900
C 	C 	0.96727 0.51352 0.35153 0.01000
C 	C 	0.99084 0.49594 0.33066 -0.08100
C 	C 	0.01161 0.47786 0.35607 0.06000
C 	C 	0.04892 0.43710 0.40604 -0.05900
C 	C 	0.05104 0.43689 0.36026 0.01000
C 	C 	0.03293 0.45768 0.33504 -0.08200
C 	C 	0.99344 0.49540 0.28453 0.19800
N 	N 	0.01596 0.47728 0.26462 -0.18400
C 	C 	0.03503 0.45795 0.28884 0.19700
C 	C 	0.02015 0.47922 0.21781 0.14900
C 	C 	0.00446 0.45785 0.19011 -0.11900
C 	C 	0.00707 0.46094 0.14426 0.07900
C 	C 	0.02602 0.48496 0.12642 -0.10800
C 	C 	0.04134 0.50664 0.15407 0.08000
C 	C 	0.03886 0.50336 0.19974 -0.12000
O 	O 	0.97447 0.51273 0.26037 -0.20400
O 	O 	0.05578 0.43997 0.26880 -0.20500
H 	H 	0.99027 0.43905 0.20423 0.07500
H 	H 	0.05074 0.51998 0.22124 0.07200
H 	H 	0.94484 0.52499 0.41207 0.04500
H 	H 	0.94980 0.52597 0.33237 0.04200
H 	H 	0.06017 0.41837 0.42400 0.04500
H 	H 	0.06604 0.41973 0.34446 0.04200
H 	H 	0.02841 0.48711 0.09104 0.06000
H 	H 	0.98824 0.47924 0.80661 0.06200
Zn	Zn	0.86368 0.40234 0.97079 1.22300
C 	C 	0.87000 0.42450 0.88154 0.34600
O 	O 	0.81972 0.40795 0.99014 -0.46100
O 	O 	0.85854 0.39769 0.86678 -0.45300
O 	O 	0.80036 0.41068 0.92055 -0.49400
C 	C 	0.87736 0.34199 0.93395 0.32700
O 	O 	0.88935 0.36964 0.94403 -0.45600
O 	O 	0.84732 0.33919 0.92388 -0.50800
C 	C 	0.79744 0.41635 0.96271 0.33800
O 	O 	0.87610 0.37973 0.04001 -0.33400
Zn	Zn	0.82310 0.37394 0.90005 1.17100
O 	O 	0.86492 0.43294 0.92239 -0.44500
C 	C 	0.89097 0.40607 0.04700 0.30500
O 	O 	0.88994 0.42637 0.01539 -0.39400
Zn	Zn	0.00980 0.03328 0.06910 1.22000
C 	C 	0.01775 0.96595 0.06235 0.32300
O 	O 	0.97154 0.03761 0.10519 -0.47100
O 	O 	0.03324 0.96807 0.09975 -0.45300
O 	O 	0.97357 0.99022 0.13919 -0.49600
C 	C 	0.06871 0.03283 0.11460 0.34800
O 	O 	0.05533 0.03036 0.07594 -0.45600
O 	O 	0.05233 0.02716 0.15039 -0.51100
C 	C 	0.95702 0.01288 0.12159 0.32000
O 	O 	0.01666 0.08836 0.07081 -0.32800
Zn	Zn	0.01829 0.99593 0.15101 1.16900
O 	O 	0.00257 0.99042 0.04661 -0.44000
C 	C 	0.00640 0.08779 0.03068 0.29900
O 	O 	0.99938 0.06015 0.01552 -0.38500
C 	C 	0.89721 0.31376 0.93600 -0.09900
C 	C 	0.89207 0.28890 0.90643 0.02200
C 	C 	0.90846 0.26071 0.91127 -0.06800
C 	C 	0.92998 0.25703 0.94591 0.02600
C 	C 	0.93609 0.28232 0.97439 -0.05800
C 	C 	0.91986 0.31061 0.96936 0.02000
C 	C 	0.94406 0.22598 0.95455 0.00500
C 	C 	0.97702 0.22262 0.95578 -0.04000
C 	C 	0.99024 0.19373 0.96739 -0.02700
C 	C 	0.97060 0.16802 0.97763 -0.00900
C 	C 	0.93773 0.17108 0.97508 -0.02900
C 	C 	0.92449 0.19994 0.96366 -0.04000
C 	C 	0.98396 0.13948 0.99468 0.05800
C 	C 	0.99454 0.11573 0.01030 -0.10600
H 	H 	0.87504 0.29125 0.88010 0.02200
H 	H 	0.90390 0.24148 0.88875 0.04600
H 	H 	0.95267 0.27973 0.00123 0.04200
H 	H 	0.92407 0.32964 0.99235 0.04000
H 	H 	0.99234 0.24249 0.94846 0.04300
H 	H 	0.01569 0.19153 0.96930 0.04100
H 	H 	0.92242 0.15132 0.98303 0.04200
H 	H 	0.89903 0.20229 0.96290 0.04100
C 	C 	0.88746 0.44594 0.85205 -0.16800
C 	C 	0.90323 0.43512 0.81695 0.03400
C 	C 	0.92516 0.45611 0.79265 -0.04000
C 	C 	0.94480 0.44458 0.76210 -0.06600
H 	H 	0.92662 0.48089 0.80151 0.04500
H 	H 	0.88983 0.47053 0.86138 0.08700
H 	H 	0.94225 0.42036 0.75114 0.04800
H 	H 	0.90148 0.41040 0.80796 0.03100
C 	C 	0.91122 0.41091 0.08564 -0.14800
C 	C 	0.94098 0.42137 0.08061 0.02900
C 	C 	0.95925 0.43348 0.11847 -0.03800
C 	C 	0.99040 0.43899 0.11438 -0.06300
H 	H 	0.94684 0.44081 0.14800 0.04600
H 	H 	0.90158 0.40689 0.11829 0.07800
H 	H 	0.00260 0.43120 0.08490 0.04600
H 	H 	0.95119 0.42288 0.04781 0.03300
C 	C 	0.01683 0.93576 0.03871 -0.10900
C 	C 	0.01540 0.90746 0.06243 0.02900
C 	C 	0.01681 0.87869 0.04049 -0.08400
C 	C 	0.01969 0.87786 0.99457 0.04100
C 	C 	0.02019 0.90611 0.97063 -0.07600
C 	C 	0.01863 0.93498 0.99262 0.03600
C 	C 	0.02481 0.84755 0.97221 -0.00200
C 	C 	0.05433 0.84110 0.95336 -0.03900
C 	C 	0.06219 0.81022 0.94230 -0.03200
C 	C 	0.04061 0.78563 0.94999 -0.01000
C 	C 	0.01012 0.79245 0.96502 -0.03200
C 	C 	0.00220 0.82334 0.97599 -0.03900
C 	C 	0.05150 0.75364 0.95045 0.05200
C 	C 	0.06132 0.72718 0.95322 -0.12300
H 	H 	0.01352 0.90776 0.09795 0.01700
H 	H 	0.01647 0.85701 0.05926 0.04600
H 	H 	0.02235 0.90571 0.93515 0.05100
H 	H 	0.01967 0.95668 0.97395 0.03400
H 	H 	0.07185 0.85967 0.94981 0.04000
H 	H 	0.08571 0.80519 0.93022 0.03600
H 	H 	0.99315 0.77363 0.97056 0.04200
H 	H 	0.97913 0.82816 0.98978 0.04200
C 	C 	0.06448 0.59546 0.81356 -0.14400
C 	C 	0.05576 0.56519 0.81765 0.02800
C 	C 	0.04226 0.54755 0.78013 -0.03500
C 	C 	0.03710 0.51644 0.78361 -0.06600
H 	H 	0.03405 0.56026 0.75133 0.04500
H 	H 	0.06555 0.60649 0.78136 0.07800
H 	H 	0.04550 0.50397 0.81250 0.05000
H 	H 	0.05708 0.55381 0.84967 0.03600
C 	C 	0.05207 0.59460 0.05153 -0.16700
C 	C 	0.06545 0.57661 0.08253 0.03200
C 	C 	0.04635 0.55260 0.10598 -0.04100
C 	C 	0.05969 0.53307 0.13509 -0.06700
H 	H 	0.02140 0.54989 0.09806 0.04400
H 	H 	0.02689 0.59233 0.04509 0.08400
H 	H 	0.08408 0.53669 0.14519 0.04600
H 	H 	0.09068 0.57848 0.08891 0.03000
C 	C 	0.92252 0.00902 0.11607 -0.10000
C 	C 	0.90590 0.98662 0.14122 0.02100
C 	C 	0.87442 0.97940 0.13140 -0.07000
C 	C 	0.85915 0.99466 0.09657 0.02900
C 	C 	0.87510 0.01842 0.07318 -0.06800
C 	C 	0.90664 0.02558 0.08285 0.02100
C 	C 	0.82779 0.98350 0.08182 -0.00000
C 	C 	0.82426 0.97037 0.03976 -0.03700
C 	C 	0.79611 0.95506 0.02825 -0.04100
C 	C 	0.77134 0.95271 0.05868 -0.00800
C 	C 	0.77410 0.96745 0.09972 -0.03300
C 	C 	0.80221 0.98287 0.11124 -0.04000
C 	C 	0.74534 0.93151 0.05036 0.05200
C 	C 	0.72444 0.91262 0.04401 -0.12300
H 	H 	0.91759 0.97416 0.16758 0.02500
H 	H 	0.86226 0.96115 0.14984 0.04500
H 	H 	0.86338 0.03063 0.04660 0.04800
H 	H 	0.91901 0.04315 0.06341 0.03600
H 	H 	0.84379 0.97082 0.01672 0.03900
H 	H 	0.79410 0.94383 0.99639 0.04800
H 	H 	0.75498 0.96588 0.12335 0.03900
H 	H 	0.80454 0.99330 0.14357 0.03900
C 	C 	0.54522 0.95375 0.85535 -0.06800
C 	C 	0.57585 0.94599 0.85730 -0.03400
C 	C 	0.58653 0.92236 0.88964 0.02600
C 	C 	0.61730 0.91580 0.89441 -0.14500
H 	H 	0.56922 0.91124 0.91122 0.04000
H 	H 	0.52820 0.94177 0.87645 0.05100
H 	H 	0.63461 0.92546 0.87157 0.08100
H 	H 	0.59309 0.95841 0.83703 0.04500
C 	C 	0.60095 0.94004 0.21283 -0.06600
C 	C 	0.59086 0.91702 0.18599 -0.04000
C 	C 	0.61349 0.89875 0.15936 0.03300
C 	C 	0.60289 0.87925 0.12788 -0.16800
H 	H 	0.63874 0.90282 0.16334 0.03100
H 	H 	0.62603 0.94316 0.21926 0.04800
H 	H 	0.57762 0.87586 0.12338 0.08400
H 	H 	0.56563 0.91294 0.18177 0.04300
C 	C 	0.32696 0.08547 0.10675 -0.10200
C 	C 	0.31299 0.08214 0.14847 0.01600
C 	C 	0.28114 0.07357 0.15226 -0.07000
C 	C 	0.26299 0.06807 0.11445 0.02700
C 	C 	0.27713 0.07037 0.07285 -0.06900
C 	C 	0.30895 0.07897 0.06898 0.01700
C 	C 	0.22893 0.06105 0.11830 0.00100
C 	C 	0.20831 0.08380 0.13503 -0.04100
C 	C 	0.17577 0.07789 0.13611 -0.03100
C 	C 	0.16367 0.04922 0.12053 -0.01300
C 	C 	0.18427 0.02625 0.10458 -0.03100
C 	C 	0.21680 0.03212 0.10347 -0.04100
C 	C 	0.13006 0.04382 0.11927 0.05500
C 	C 	0.10199 0.03902 0.11753 -0.12400
H 	H 	0.32667 0.08650 0.17794 0.03100
H 	H 	0.27048 0.07150 0.18454 0.04500
H 	H 	0.26329 0.06609 0.04349 0.04700
H 	H 	0.31934 0.08129 0.03658 0.03600
H 	H 	0.21745 0.10623 0.14646 0.03700
H 	H 	0.15998 0.09575 0.14852 0.03800
H 	H 	0.17506 0.00400 0.09256 0.03800
H 	H 	0.23255 0.01437 0.09068 0.04000
C 	C 	0.43235 0.05519 0.94347 -0.14800
C 	C 	0.44809 0.06679 0.90869 0.02700
C 	C 	0.46055 0.04515 0.87494 -0.03500
C 	C 	0.48515 0.05364 0.84959 -0.06800
H 	H 	0.45208 0.02091 0.87426 0.04400
H 	H 	0.42700 0.03016 0.94518 0.08100
H 	H 	0.49269 0.07812 0.84798 0.05200
H 	H 	0.45449 0.09163 0.90755 0.03600
C 	C 	0.47056 0.08693 0.17722 -0.16600
C 	C 	0.47760 0.05621 0.17473 0.03300
C 	C 	0.50155 0.04227 0.20412 -0.04000
C 	C 	0.50896 0.01174 0.20038 -0.06400
H 	H 	0.51358 0.05699 0.22819 0.04300
H 	H 	0.48217 0.10176 0.20153 0.08100
H 	H 	0.49782 0.99745 0.17502 0.04900
H 	H 	0.46588 0.04132 0.15056 0.03900
C 	C 	0.47496 0.39337 0.93877 -0.07700
C 	C 	0.44940 0.37222 0.93677 0.01400
C 	C 	0.45471 0.33985 0.93617 -0.06400
C 	C 	0.48567 0.32831 0.93760 0.03000
C 	C 	0.51126 0.34949 0.93526 -0.06500
C 	C 	0.50592 0.38194 0.93580 0.01400
C 	C 	0.49100 0.29497 0.94896 -0.00800
C 	C 	0.47655 0.27105 0.92408 -0.03200
C 	C 	0.47301 0.24083 0.94176 -0.04200
C 	C 	0.48411 0.23433 0.98418 0.01400
C 	C 	0.50189 0.25712 0.00668 -0.05900
C 	C 	0.50532 0.28737 0.98917 -0.01400
C 	C 	0.47140 0.20782 0.00799 0.03900
C 	C 	0.45905 0.18699 0.02890 -0.11500
H 	H 	0.42540 0.38082 0.93819 0.03500
H 	H 	0.43475 0.32374 0.93743 0.04800
H 	H 	0.53526 0.34084 0.93548 0.04700
H 	H 	0.52587 0.39806 0.93677 0.03800
H 	H 	0.46616 0.27642 0.89246 0.03900
H 	H 	0.45974 0.22316 0.92375 0.04500
H 	H 	0.51106 0.25212 0.03917 0.04400
H 	H 	0.51704 0.30547 0.00836 0.02900
C 	C 	0.37987 0.50742 0.99616 -0.08500
C 	C 	0.36690 0.49775 0.95579 0.01900
C 	C 	0.33529 0.50403 0.94597 -0.06900
C 	C 	0.31634 0.51992 0.97644 0.03600
C 	C 	0.32894 0.52859 0.01735 -0.07600
C 	C 	0.36049 0.52235 0.02720 0.01000
C 	C 	0.28410 0.52964 0.96441 -0.00200
C 	C 	0.27964 0.55149 0.93041 -0.03900
C 	C 	0.25002 0.56506 0.92406 -0.03000
C 	C 	0.22470 0.55689 0.95163 -0.01300
C 	C 	0.22861 0.53358 0.98374 -0.02500
C 	C 	0.25821 0.51994 0.99006 -0.03400
C 	C 	0.19650 0.57557 0.95138 0.05700
C 	C 	0.17362 0.59223 0.95239 -0.12300
H 	H 	0.38135 0.48570 0.93182 0.03900
H 	H 	0.32569 0.49701 0.91444 0.04900
H 	H 	0.31451 0.54094 0.04105 0.04300
H 	H 	0.37007 0.52991 0.05850 0.02000
H 	H 	0.29942 0.55901 0.91025 0.04000
H 	H 	0.24714 0.58295 0.89901 0.04000
H 	H 	0.20910 0.52700 0.00501 0.03200
H 	H 	0.26131 0.50277 0.01601 0.03300
C 	C 	0.55483 0.48616 0.05526 -0.10400
C 	C 	0.56597 0.45513 0.05488 0.01900
C 	C 	0.59822 0.44931 0.04993 -0.07000
C 	C 	0.61969 0.47445 0.04555 0.02900
C 	C 	0.60884 0.50547 0.04843 -0.07200
C 	C 	0.57657 0.51133 0.05333 0.02000
C 	C 	0.65297 0.46828 0.03416 -0.00400
C 	C 	0.67184 0.45018 0.06225 -0.04300
C 	C 	0.70225 0.44152 0.04923 -0.02700
C 	C 	0.71399 0.45098 0.00815 -0.02900
C 	C 	0.69560 0.46993 0.98072 -0.02100
C 	C 	0.66519 0.47856 0.99365 -0.03600
C 	C 	0.74385 0.43931 0.99275 0.06600
C 	C 	0.76851 0.42909 0.97928 -0.12800
H 	H 	0.54956 0.43549 0.05710 0.03300
H 	H 	0.60640 0.42527 0.04800 0.04600
H 	H 	0.62528 0.52504 0.04559 0.04500
H 	H 	0.56840 0.53540 0.05384 0.02900
H 	H 	0.66271 0.44230 0.09370 0.03900
H 	H 	0.71638 0.42693 0.07065 0.03600
H 	H 	0.70455 0.47736 0.94895 0.03700
H 	H 	0.65080 0.49248 0.97169 0.04100
C 	C 	0.50913 0.57526 0.95425 -0.10000
C 	C 	0.49323 0.60187 0.93874 0.02100
C 	C 	0.50946 0.63039 0.93350 -0.06900
C 	C 	0.54161 0.63264 0.94441 0.02700
C 	C 	0.55810 0.60535 0.95607 -0.06900
C 	C 	0.54193 0.57671 0.96067 0.02000
C 	C 	0.55662 0.66386 0.95016 0.00300
C 	C 	0.58490 0.67138 0.92820 -0.04200
C 	C 	0.60062 0.69976 0.93715 -0.03000
C 	C 	0.58808 0.72080 0.96791 -0.01200
C 	C 	0.55940 0.71375 0.98881 -0.02200
C 	C 	0.54376 0.68539 0.98009 -0.04400
C 	C 	0.60558 0.74857 0.98035 0.05100
C 	C 	0.61983 0.77172 0.99220 -0.11100
H 	H 	0.46800 0.60084 0.93285 0.03100
H 	H 	0.49668 0.65114 0.92336 0.04700
H 	H 	0.58301 0.60670 0.96404 0.04600
H 	H 	0.55451 0.55619 0.97212 0.03300
H 	H 	0.59494 0.65503 0.90485 0.04100
H 	H 	0.62278 0.70509 0.92079 0.03800
H 	H 	0.54958 0.72992 0.01261 0.03100
H 	H 	0.52207 0.67976 0.99745 0.04000
