data_crystal

_cell_length_a 15.51520
_cell_length_b 15.85849
_cell_length_c 35.11162
_cell_angle_alpha 95.39745
_cell_angle_beta  95.39892
_cell_angle_gamma 126.68662

_symmetry_space_group_name_	'P 1'
_symmetry_space_group_name_H-M	'P 1'

loop_
_symmetry_equiv_pos_as_xyz
  x,y,z

loop_
_atom_site_label
_atom_site_type_symbol
_atom_site_fract_x
_atom_site_fract_y
_atom_site_fract_z
_atom_site_charge
C 	C 	0.04437 0.00958 0.96512 0.13200
N 	N 	0.03676 0.94471 0.50179 -0.11300
C 	C 	0.10126 0.04943 0.49944 0.12400
N 	N 	0.05927 0.10440 0.49961 -0.11600
C 	C 	0.15842 0.07816 0.96492 0.04400
N 	N 	0.99375 0.90600 0.96772 -0.12000
N 	N 	0.98777 0.04915 0.96388 -0.12700
C 	C 	0.88021 0.98613 0.96576 0.14200
N 	N 	0.82791 0.88065 0.96849 -0.12000
C 	C 	0.88592 0.84076 0.96915 0.13100
C 	C 	0.95218 0.05284 0.50250 0.11700
N 	N 	0.88838 0.94764 0.50475 -0.11500
C 	C 	0.93079 0.89389 0.50437 0.12800
Cu	Cu	0.75361 0.33275 0.95962 0.93000
Cu	Cu	0.71321 0.22831 0.03883 0.88100
Cu	Cu	0.58308 0.29304 0.00681 0.90000
Cu	Cu	0.55195 0.32576 0.92431 0.91600
C 	C 	0.69075 0.30964 0.87726 0.33300
O 	O 	0.81236 0.49170 0.96116 -0.32400
C 	C 	0.63126 0.30133 0.09154 0.33000
O 	O 	0.58384 0.24961 0.95306 -0.62700
O 	O 	0.73617 0.34301 0.01429 -0.64500
O 	O 	0.81642 0.25141 0.96395 -0.33400
O 	O 	0.68213 0.13051 0.99422 -0.40800
O 	O 	0.65159 0.36132 0.88644 -0.35700
O 	O 	0.43754 0.25510 0.99781 -0.35100
C 	C 	0.36833 0.20625 0.96432 0.30300
C 	C 	0.75621 0.52664 0.97114 0.28500
O 	O 	0.65228 0.45756 0.97248 -0.37500
O 	O 	0.39931 0.23789 0.93157 -0.35500
O 	O 	0.74443 0.29697 0.90455 -0.33700
C 	C 	0.75877 0.15612 0.97408 0.29300
O 	O 	0.58067 0.31476 0.06297 -0.35000
O 	O 	0.71004 0.29430 0.08650 -0.38700
H 	H 	0.53594 0.17113 0.94378 0.18100
H 	H 	0.78874 0.41546 0.03056 0.19000
Cu	Cu	0.62040 0.19813 0.50862 0.93200
Cu	Cu	0.71396 0.22151 0.42725 0.88600
Cu	Cu	0.66553 0.36452 0.45980 0.90600
Cu	Cu	0.61955 0.38991 0.53932 0.91200
C 	C 	0.64633 0.26537 0.59049 0.33200
O 	O 	0.45943 0.13454 0.50813 -0.33500
C 	C 	0.64591 0.30650 0.37459 0.33100
O 	O 	0.70546 0.36427 0.51363 -0.63400
O 	O 	0.60465 0.21123 0.45357 -0.63800
O 	O 	0.69496 0.13025 0.50426 -0.34400
O 	O 	0.81661 0.25272 0.47103 -0.41300
O 	O 	0.59276 0.30283 0.58069 -0.35600
O 	O 	0.73277 0.51553 0.46807 -0.35800
C 	C 	0.74474 0.57501 0.50014 0.31100
C 	C 	0.41932 0.18260 0.49526 0.29600
O 	O 	0.48617 0.28253 0.49162 -0.38300
O 	O 	0.68622 0.53343 0.52732 -0.36200
O 	O 	0.66065 0.21279 0.56373 -0.33700
C 	C 	0.78975 0.18071 0.49276 0.30300
O 	O 	0.64535 0.36639 0.40345 -0.34800
O 	O 	0.64449 0.22469 0.38017 -0.38600
H 	H 	0.78499 0.41301 0.52438 0.18400
H 	H 	0.52921 0.16163 0.43822 0.19200
C 	C 	0.69018 0.28209 0.83569 -0.11200
C 	C 	0.59109 0.22448 0.80855 0.12400
C 	C 	0.59240 0.22121 0.76846 0.06700
C 	C 	0.69107 0.26311 0.75504 0.01900
C 	C 	0.78778 0.30740 0.78195 0.06800
C 	C 	0.78910 0.32335 0.82224 0.12800
C 	C 	0.69435 0.26648 0.71296 0.01900
C 	C 	0.65095 0.17231 0.68613 0.06800
C 	C 	0.63349 0.17040 0.64583 0.12800
C 	C 	0.67356 0.26664 0.63226 -0.11100
C 	C 	0.73053 0.36353 0.65931 0.12400
C 	C 	0.73445 0.36239 0.69944 0.06700
Br	Br	0.91816 0.34651 0.76352 -0.13200
Br	Br	0.45341 0.14728 0.82635 -0.19800
Br	Br	0.54560 0.03492 0.61003 -0.15300
Br	Br	0.78927 0.49074 0.73563 -0.13400
Br	Br	0.92717 0.40984 0.85828 -0.15100
Br	Br	0.46041 0.16478 0.73217 -0.13600
Br	Br	0.61503 0.04615 0.70466 -0.13400
Br	Br	0.80659 0.49806 0.64141 -0.19300
C 	C 	0.64072 0.32709 0.33462 -0.11300
C 	C 	0.73005 0.36230 0.31584 0.12500
C 	C 	0.71899 0.36326 0.27568 0.06700
C 	C 	0.62005 0.33365 0.25454 0.01900
C 	C 	0.53421 0.30804 0.27409 0.06800
C 	C 	0.54353 0.30238 0.31394 0.12800
C 	C 	0.60358 0.32157 0.21141 0.01900
C 	C 	0.64352 0.41189 0.19393 0.06700
C 	C 	0.64758 0.40458 0.15390 0.12800
C 	C 	0.60761 0.30585 0.13110 -0.11300
C 	C 	0.55696 0.21338 0.14780 0.12400
C 	C 	0.55683 0.22148 0.18804 0.06600
Br	Br	0.40354 0.27910 0.24605 -0.13300
Br	Br	0.86792 0.41007 0.34536 -0.20000
Br	Br	0.71247 0.53051 0.13076 -0.16300
Br	Br	0.49690 0.09650 0.21153 -0.14300
Br	Br	0.42160 0.25592 0.33968 -0.16400
Br	Br	0.83782 0.40132 0.24924 -0.14300
Br	Br	0.69494 0.54578 0.22510 -0.13200
Br	Br	0.48842 0.07576 0.11540 -0.20600
C 	C 	0.86211 0.78180 0.50337 0.04600
C 	C 	0.80751 0.68720 0.50201 -0.05900
C 	C 	0.90303 0.10609 0.50002 0.04400
C 	C 	0.85346 0.14248 0.49730 -0.06900
C 	C 	0.30722 0.13738 0.49581 -0.06100
C 	C 	0.21380 0.10093 0.49713 0.04200
C 	C 	0.83431 0.72898 0.97050 0.03900
C 	C 	0.80009 0.63730 0.97115 -0.04800
C 	C 	0.79290 0.08841 0.96974 -0.05600
C 	C 	0.82555 0.03511 0.96757 0.02900
C 	C 	0.25449 0.13658 0.96476 -0.05600
