data_crystal

_cell_length_a 19.17732
_cell_length_b 16.98166
_cell_length_c 36.11808
_cell_angle_alpha 88.29408
_cell_angle_beta  88.42734
_cell_angle_gamma 107.45274

_symmetry_space_group_name_	'P 1'
_symmetry_space_group_name_H-M	'P 1'

loop_
_symmetry_equiv_pos_as_xyz
  x,y,z

loop_
_atom_site_label
_atom_site_type_symbol
_atom_site_fract_x
_atom_site_fract_y
_atom_site_fract_z
_atom_site_charge
Zn	Zn	0.57889 0.32599 0.88445 1.22100
Zn	Zn	0.70179 0.47334 0.92630 1.19900
C 	C 	0.77976 0.21211 0.84438 0.30800
Zn	Zn	0.74844 0.35467 0.87860 1.22100
Zn	Zn	0.62017 0.19455 0.84113 1.19600
H 	H 	0.67374 0.31640 0.93887 0.18300
C 	C 	0.74598 0.51015 0.84355 0.30600
O 	O 	0.51281 0.16293 0.83528 -0.46000
O 	O 	0.49462 0.28810 0.84542 -0.39300
O 	O 	0.67340 0.35291 0.91703 -0.78700
O 	O 	0.60723 0.49106 0.93814 -0.45800
O 	O 	0.52598 0.23081 0.91777 -0.44000
O 	O 	0.54615 0.42508 0.88885 -0.42500
O 	O 	0.60049 0.15514 0.89981 -0.41300
O 	O 	0.80801 0.52351 0.92029 -0.46600
H 	H 	0.65243 0.34647 0.82507 0.17600
O 	O 	0.83671 0.40390 0.91502 -0.39900
O 	O 	0.65296 0.31442 0.84836 -0.79600
O 	O 	0.71244 0.16203 0.84255 -0.44500
O 	O 	0.78248 0.45561 0.84630 -0.44400
O 	O 	0.79589 0.26811 0.86988 -0.42400
O 	O 	0.69438 0.50898 0.86861 -0.40700
C 	C 	0.47498 0.21542 0.83029 0.31300
C 	C 	0.54700 0.46372 0.91995 0.31000
C 	C 	0.54410 0.16206 0.91973 0.30900
C 	C 	0.85312 0.48039 0.92575 0.32100
Zn	Zn	0.64794 0.40474 0.55843 1.22100
Zn	Zn	0.51145 0.30756 0.50670 1.19900
C 	C 	0.67784 0.13725 0.59929 0.29600
Zn	Zn	0.57305 0.21190 0.56512 1.22200
Zn	Zn	0.74085 0.31769 0.59715 1.19100
H 	H 	0.63574 0.28628 0.50678 0.17900
C 	C 	0.43588 0.24510 0.58322 0.29400
O 	O 	0.80110 0.43483 0.60240 -0.46300
O 	O 	0.71003 0.49568 0.59454 -0.38900
O 	O 	0.60358 0.29897 0.52611 -0.79200
O 	O 	0.53720 0.42882 0.49936 -0.47600
O 	O 	0.73141 0.44333 0.52292 -0.43800
O 	O 	0.57732 0.46918 0.55676 -0.43600
O 	O 	0.76972 0.33240 0.53775 -0.41500
O 	O 	0.44213 0.19695 0.50346 -0.46700
H 	H 	0.61489 0.32389 0.61856 0.17600
O 	O 	0.51252 0.12138 0.52750 -0.39700
O 	O 	0.63669 0.31364 0.59470 -0.79000
O 	O 	0.73538 0.20051 0.59007 -0.46000
O 	O 	0.48184 0.20501 0.59329 -0.43500
O 	O 	0.61717 0.12487 0.58093 -0.42700
O 	O 	0.45852 0.31158 0.56087 -0.40900
C 	C 	0.77783 0.50058 0.60300 0.29300
C 	C 	0.54362 0.47946 0.52660 0.34400
C 	C 	0.77813 0.40157 0.51833 0.29200
C 	C 	0.45944 0.12801 0.50622 0.30400
Zn	Zn	0.93682 0.90802 0.71073 1.23000
Zn	Zn	0.05982 0.93447 0.77573 1.19900
C 	C 	0.13694 0.10096 0.63556 0.30700
Zn	Zn	0.07650 0.05920 0.71125 1.21800
Zn	Zn	0.97564 0.00144 0.63562 1.18700
H 	H 	0.08152 0.91197 0.70623 0.18400
C 	C 	0.99505 0.08361 0.77718 0.29500
O 	O 	0.87086 0.93977 0.63000 -0.43100
O 	O 	0.83083 0.89924 0.69040 -0.36800
O 	O 	0.05104 0.93851 0.72089 -0.78000
O 	O 	0.97771 0.83329 0.79032 -0.44600
O 	O 	0.93635 0.81002 0.68425 -0.44200
O 	O 	0.89033 0.87424 0.76003 -0.42000
O 	O 	0.99555 0.88027 0.63253 -0.38200
O 	O 	0.14097 0.03055 0.79094 -0.46900
H 	H 	0.94168 0.05283 0.69648 0.16900
O 	O 	0.18280 0.08457 0.73306 -0.40600
O 	O 	0.97392 0.01928 0.68956 -0.81400
O 	O 	0.08320 0.04793 0.61855 -0.44700
O 	O 	0.04311 0.12079 0.75051 -0.44000
O 	O 	0.12540 0.12911 0.66798 -0.44900
O 	O 	0.98493 0.00553 0.78681 -0.41900
C 	C 	0.82023 0.92723 0.65703 0.29400
C 	C 	0.90943 0.81920 0.78053 0.30800
C 	C 	0.95293 0.81180 0.64891 0.32300
C 	C 	0.19420 0.07477 0.76835 0.29500
Zn	Zn	0.33317 0.70035 0.39717 1.22400
Zn	Zn	0.20037 0.53331 0.43757 1.19400
C 	C 	0.13298 0.78867 0.34064 0.33800
Zn	Zn	0.16593 0.65403 0.38274 1.22400
Zn	Zn	0.29168 0.80562 0.33754 1.19600
H 	H 	0.21837 0.68672 0.44452 0.17500
C 	C 	0.15851 0.49315 0.35606 0.30600
O 	O 	0.39669 0.86425 0.34269 -0.46400
O 	O 	0.43065 0.75341 0.36366 -0.40200
O 	O 	0.22872 0.65354 0.42418 -0.79000
O 	O 	0.29655 0.51545 0.44627 -0.44500
O 	O 	0.35359 0.80325 0.42396 -0.43900
O 	O 	0.38161 0.62238 0.41597 -0.42800
O 	O 	0.27037 0.84833 0.39215 -0.41000
O 	O 	0.09249 0.48715 0.43667 -0.47000
H 	H 	0.27976 0.65242 0.33605 0.18000
O 	O 	0.06865 0.60557 0.41694 -0.39700
O 	O 	0.26993 0.68934 0.35487 -0.79500
O 	O 	0.19458 0.80998 0.32067 -0.46500
O 	O 	0.13396 0.55720 0.35199 -0.43400
O 	O 	0.12693 0.74745 0.37254 -0.43000
O 	O 	0.20754 0.49311 0.38102 -0.41700
C 	C 	0.44773 0.82859 0.34852 0.30700
C 	C 	0.35755 0.57714 0.44650 0.27600
C 	C 	0.31838 0.85785 0.41844 0.30900
C 	C 	0.04665 0.53074 0.43263 0.31600
Zn	Zn	0.21071 0.72360 0.06621 1.21800
Zn	Zn	0.35101 0.85432 0.10431 1.19700
C 	C 	0.37423 0.57323 0.01938 0.30500
Zn	Zn	0.37730 0.72782 0.05318 1.21900
Zn	Zn	0.22698 0.57406 0.02783 1.19600
H 	H 	0.30951 0.69786 0.11612 0.18100
C 	C 	0.39256 0.89263 0.02129 0.29400
O 	O 	0.12159 0.55666 0.02730 -0.46900
O 	O 	0.11883 0.69026 0.03043 -0.38300
O 	O 	0.31022 0.73569 0.09463 -0.78600
O 	O 	0.26150 0.88053 0.11921 -0.47400
O 	O 	0.15144 0.63854 0.10341 -0.42700
O 	O 	0.19277 0.83367 0.06897 -0.42000
O 	O 	0.21526 0.55149 0.08744 -0.41100
O 	O 	0.45749 0.89110 0.09592 -0.46000
H 	H 	0.27268 0.72403 0.00396 0.17100
O 	O 	0.47383 0.76602 0.08572 -0.39200
O 	O 	0.27415 0.69560 0.02813 -0.78500
O 	O 	0.30963 0.53016 0.03273 -0.45900
O 	O 	0.41633 0.82755 0.02040 -0.43600
O 	O 	0.41433 0.63579 0.03766 -0.41900
O 	O 	0.34421 0.89737 0.04717 -0.40400
C 	C 	0.09151 0.61444 0.01877 0.28400
C 	C 	0.20924 0.88327 0.09707 0.33000
C 	C 	0.16106 0.56535 0.10627 0.29400
C 	C 	0.49748 0.84098 0.09839 0.29100
Zn	Zn	0.00550 0.14307 0.22159 1.22200
Zn	Zn	0.89175 0.10806 0.30224 1.19400
C 	C 	0.77636 0.98553 0.16077 0.34600
Zn	Zn	0.85656 0.00524 0.23119 1.21600
Zn	Zn	0.93316 0.08744 0.14791 1.19700
H 	H 	0.87003 0.15543 0.23705 0.17800
C 	C 	0.91918 0.93706 0.28975 0.29200
O 	O 	0.03618 0.14545 0.13272 -0.44800
O 	O 	0.09850 0.14854 0.18598 -0.37600
O 	O 	0.89852 0.12009 0.24691 -0.78500
O 	O 	0.99547 0.13403 0.31731 -0.44500
O 	O 	0.01098 0.25487 0.20363 -0.44500
O 	O 	0.06609 0.14558 0.26458 -0.43700
O 	O 	0.92232 0.20819 0.16236 -0.40000
O 	O 	0.78537 0.06887 0.31241 -0.44200
H 	H 	0.97553 0.00355 0.19551 0.16800
O 	O 	0.76393 0.96628 0.27010 -0.35200
O 	O 	0.94910 0.04525 0.19715 -0.80700
O 	O 	0.82319 0.05383 0.14597 -0.46900
O 	O 	0.89964 0.92759 0.25528 -0.42900
O 	O 	0.78699 0.95374 0.19317 -0.42900
O 	O 	0.88995 0.97971 0.31174 -0.37900
C 	C 	0.08932 0.12906 0.15081 0.28800
C 	C 	0.05017 0.17720 0.29535 0.28400
C 	C 	0.97670 0.26816 0.17442 0.33400
C 	C 	0.74101 0.00367 0.29738 0.26200
C 	C 	0.10177 0.49451 0.12240 -0.05200
C 	C 	0.07867 0.49267 0.15962 -0.02000
C 	C 	0.02882 0.42092 0.17577 0.01200
C 	C 	0.00145 0.35032 0.15476 -0.10400
C 	C 	0.01705 0.35689 0.11608 0.07900
C 	C 	0.06946 0.42722 0.10055 -0.04000
H 	H 	0.01536 0.41825 0.20521 0.03800
H 	H 	0.08519 0.42924 0.07146 0.04900
H 	H 	0.10176 0.54517 0.17652 0.03800
I 	I 	0.95941 0.26585 0.07963 -0.14800
C 	C 	0.56796 0.86922 0.11642 -0.05300
C 	C 	0.63173 0.86098 0.09922 -0.02000
C 	C 	0.70027 0.90157 0.11301 0.01500
C 	C 	0.70547 0.95110 0.14390 -0.10900
C 	C 	0.64144 0.95933 0.16109 0.10400
C 	C 	0.57320 0.91707 0.14783 -0.04700
H 	H 	0.74924 0.89419 0.09983 0.02600
H 	H 	0.52411 0.92396 0.16111 0.04300
H 	H 	0.62842 0.82506 0.07468 0.04900
I 	I 	0.64630 0.03953 0.20561 -0.16300
C 	C 	0.12026 0.06620 0.13634 -0.10800
C 	C 	0.11456 0.99453 0.15797 0.00900
C 	C 	0.13377 0.92911 0.14278 -0.01400
C 	C 	0.16421 0.93656 0.10660 -0.07100
C 	C 	0.16829 0.00768 0.08435 0.04200
C 	C 	0.14534 0.07166 0.09920 -0.02500
H 	H 	0.12994 0.87461 0.16008 0.03500
H 	H 	0.14773 0.12584 0.08198 0.05100
H 	H 	0.09471 0.98916 0.18657 0.02300
I 	I 	0.21146 0.02184 0.02895 -0.13700
C 	C 	0.52505 0.87520 0.33959 -0.07900
C 	C 	0.57763 0.83356 0.33539 0.00400
C 	C 	0.64914 0.87692 0.32359 -0.02400
C 	C 	0.66903 0.96239 0.31550 -0.01400
C 	C 	0.61727 0.00521 0.32149 0.00700
C 	C 	0.54582 0.96151 0.33371 0.01300
H 	H 	0.68882 0.84364 0.31972 0.05600
H 	H 	0.50616 0.99460 0.33803 0.05400
H 	H 	0.56275 0.76726 0.34032 0.04400
I 	I 	0.64364 0.13489 0.31091 -0.12900
C 	C 	0.08200 0.26575 0.30118 -0.08500
C 	C 	0.15612 0.29786 0.30869 -0.00600
C 	C 	0.18244 0.37610 0.32341 -0.00500
C 	C 	0.13459 0.42271 0.33119 -0.09300
C 	C 	0.06131 0.39371 0.31964 0.06200
C 	C 	0.03584 0.31539 0.30486 -0.04200
H 	H 	0.23933 0.39872 0.33053 0.04000
H 	H 	0.97910 0.29175 0.29753 0.00800
H 	H 	0.19258 0.26051 0.30506 0.03900
I 	I 	0.98649 0.46433 0.32351 -0.11600
C 	C 	0.96894 0.89392 0.30490 -0.03900
C 	C 	0.97978 0.82591 0.28712 -0.01500
C 	C 	0.03217 0.79032 0.29960 0.00300
C 	C 	0.07427 0.82232 0.32989 -0.10500
C 	C 	0.06264 0.88959 0.34825 0.08600
C 	C 	0.00974 0.92458 0.33587 -0.05200
H 	H 	0.04078 0.73850 0.28539 0.03000
H 	H 	0.00205 0.97736 0.34962 0.07000
H 	H 	0.94821 0.80110 0.26342 0.04900
I 	I 	0.12715 0.94311 0.39324 -0.09300
C 	C 	0.42111 0.05917 0.48366 -0.08800
C 	C 	0.37453 0.98650 0.50053 0.02100
C 	C 	0.33278 0.92404 0.47882 -0.00000
C 	C 	0.33790 0.93307 0.43993 -0.08000
C 	C 	0.38038 0.00946 0.42301 0.09000
C 	C 	0.42301 0.07104 0.44506 -0.04400
H 	H 	0.29961 0.86646 0.49215 0.03500
H 	H 	0.45678 0.12894 0.43218 0.03100
H 	H 	0.37060 0.97829 0.53047 0.04400
N 	N 	0.38069 0.02394 0.38576 -0.20900
H 	H 	0.34271 0.98486 0.36921 0.10200
H 	H 	0.41642 0.07781 0.37326 0.08200
C 	C 	0.84223 0.43474 0.49291 -0.04700
C 	C 	0.87790 0.51995 0.49054 -0.02800
C 	C 	0.94207 0.55147 0.46878 0.01600
C 	C 	0.97152 0.49833 0.44891 -0.11700
C 	C 	0.93221 0.41286 0.44869 0.12800
C 	C 	0.86903 0.38145 0.47177 -0.07100
H 	H 	0.97080 0.61701 0.46871 0.04300
H 	H 	0.84001 0.31587 0.47264 0.05300
H 	H 	0.85736 0.56160 0.50669 0.05100
N 	N 	0.95308 0.36167 0.42551 -0.20300
H 	H 	0.99352 0.38465 0.40470 0.10600
H 	H 	0.92574 0.29829 0.42674 0.08200
C 	C 	0.40770 0.58058 0.47710 -0.05000
C 	C 	0.38217 0.53526 0.51050 -0.03400
C 	C 	0.43207 0.51866 0.53468 0.02000
C 	C 	0.50656 0.54278 0.52416 -0.13200
C 	C 	0.53234 0.60660 0.49676 0.13700
C 	C 	0.48260 0.62342 0.47222 -0.06900
H 	H 	0.41199 0.47584 0.55817 0.03200
H 	H 	0.50245 0.66602 0.44862 0.06400
H 	H 	0.32404 0.50820 0.51645 0.02600
N 	N 	0.60502 0.64626 0.49199 -0.20500
H 	H 	0.64235 0.63435 0.51024 0.10100
H 	H 	0.62453 0.69105 0.47063 0.09500
C 	C 	0.68941 0.06805 0.62091 -0.10500
C 	C 	0.72045 0.08218 0.65570 -0.00000
C 	C 	0.75361 0.02682 0.67121 -0.05200
C 	C 	0.75747 0.95816 0.65155 -0.05600
C 	C 	0.71533 0.93672 0.61999 0.05600
C 	C 	0.68227 0.99245 0.60438 0.01100
H 	H 	0.78319 0.04209 0.69646 0.02700
H 	H 	0.65479 0.97905 0.57846 0.05900
H 	H 	0.72370 0.13904 0.66939 0.00200
I 	I 	0.70089 0.82088 0.59579 -0.08700
C 	C 	0.35692 0.20825 0.59293 -0.05400
C 	C 	0.31206 0.25841 0.59972 -0.02200
C 	C 	0.23865 0.22266 0.61140 0.00600
C 	C 	0.20920 0.13632 0.61629 -0.09500
C 	C 	0.25347 0.08577 0.60786 0.05800
C 	C 	0.32667 0.12185 0.59598 -0.03400
H 	H 	0.20522 0.26221 0.61773 0.03000
H 	H 	0.36037 0.08257 0.58964 0.05200
H 	H 	0.33436 0.32504 0.59697 0.04200
I 	I 	0.21322 0.95505 0.61520 -0.10600
C 	C 	0.82975 0.58105 0.61187 -0.05200
C 	C 	0.87914 0.58490 0.64017 -0.02100
C 	C 	0.92938 0.66036 0.64835 0.01000
C 	C 	0.92968 0.73361 0.62905 -0.09300
C 	C 	0.88722 0.72779 0.59729 0.07900
C 	C 	0.83555 0.65219 0.58964 -0.03600
H 	H 	0.96403 0.66299 0.67178 0.03400
H 	H 	0.80169 0.64837 0.56583 0.06000
H 	H 	0.87738 0.52976 0.65653 0.03300
I 	I 	0.90652 0.82794 0.55791 -0.10800
C 	C 	0.02388 0.59144 0.99835 -0.04400
C 	C 	0.96952 0.51766 0.00881 -0.02900
C 	C 	0.91732 0.47870 0.98384 0.02100
C 	C 	0.91681 0.51428 0.94841 -0.13400
C 	C 	0.96987 0.59057 0.93802 0.14200
C 	C 	0.02228 0.62929 0.96351 -0.08600
H 	H 	0.87597 0.42146 0.99236 0.02500
H 	H 	0.06471 0.68593 0.95524 0.05200
H 	H 	0.97011 0.48819 0.03580 0.05400
N 	N 	0.97229 0.62531 0.90338 -0.20100
H 	H 	0.93840 0.59466 0.88284 0.10300
H 	H 	0.01019 0.68266 0.89630 0.08000
C 	C 	0.42959 0.96562 0.99725 -0.05700
C 	C 	0.50599 0.99847 0.99713 0.01600
C 	C 	0.54269 0.06235 0.97185 -0.02400
C 	C 	0.50366 0.09410 0.94607 -0.10200
C 	C 	0.42612 0.06061 0.94589 0.09300
C 	C 	0.38978 0.99772 0.97217 -0.02800
H 	H 	0.60171 0.08727 0.97230 0.04100
H 	H 	0.33089 0.97103 0.97178 0.05600
H 	H 	0.53712 0.97398 0.01653 0.04700
N 	N 	0.38683 0.08569 0.91974 -0.19900
H 	H 	0.41233 0.12392 0.89712 0.10000
H 	H 	0.32971 0.06342 0.92085 0.08300
C 	C 	0.48248 0.48424 0.93303 -0.04800
C 	C 	0.43342 0.42854 0.95790 -0.03500
C 	C 	0.39674 0.45775 0.98559 0.02200
C 	C 	0.40629 0.54273 0.98752 -0.13600
C 	C 	0.44502 0.59709 0.95829 0.12100
C 	C 	0.48389 0.56729 0.93142 -0.06100
H 	H 	0.36374 0.41477 0.00663 0.03400
H 	H 	0.51912 0.60976 0.91086 0.06200
H 	H 	0.43000 0.36363 0.95836 0.03900
N 	N 	0.44362 0.67664 0.95537 -0.20100
H 	H 	0.40764 0.69738 0.97183 0.06500
H 	H 	0.47554 0.71732 0.93485 0.09200
C 	C 	0.94905 0.12790 0.79534 -0.05500
C 	C 	0.91386 0.17392 0.77402 -0.02200
C 	C 	0.85940 0.20248 0.79034 -0.00100
C 	C 	0.83972 0.18543 0.82812 -0.09800
C 	C 	0.87656 0.14133 0.84983 0.08300
C 	C 	0.93144 0.11363 0.83343 -0.03900
H 	H 	0.83153 0.23654 0.77346 0.01100
H 	H 	0.95865 0.07838 0.85007 0.05600
H 	H 	0.92651 0.18469 0.74454 0.02600
I 	I 	0.84746 0.11089 0.90686 -0.11000
C 	C 	0.26630 0.11650 0.78304 -0.05800
C 	C 	0.27139 0.14694 0.81888 -0.02300
C 	C 	0.33982 0.18281 0.83352 0.00800
C 	C 	0.40393 0.18734 0.81278 -0.10100
C 	C 	0.39907 0.15994 0.77619 0.08000
C 	C 	0.33032 0.12459 0.76152 -0.04400
H 	H 	0.34301 0.20532 0.86137 0.03400
H 	H 	0.32675 0.10244 0.73360 0.05800
H 	H 	0.22232 0.14260 0.83545 0.04500
I 	I 	0.49431 0.17478 0.74186 -0.18300
C 	C 	0.85757 0.73672 0.78793 -0.06200
C 	C 	0.87987 0.66682 0.78157 -0.01600
C 	C 	0.83737 0.58937 0.79542 0.00200
C 	C 	0.77270 0.58124 0.81651 -0.09300
C 	C 	0.74385 0.64897 0.81683 0.07400
C 	C 	0.78791 0.72722 0.80381 -0.03300
H 	H 	0.85731 0.53665 0.79193 0.03700
H 	H 	0.76803 0.78032 0.80611 0.06500
H 	H 	0.93179 0.67306 0.76727 0.03400
I 	I 	0.63099 0.63264 0.82867 -0.09900
