data_crystal

_cell_length_a 18.07176
_cell_length_b 19.45747
_cell_length_c 53.82755
_cell_angle_alpha 89.67332
_cell_angle_beta  89.67179
_cell_angle_gamma 119.43925

_symmetry_space_group_name_	'P 1'
_symmetry_space_group_name_H-M	'P 1'

loop_
_symmetry_equiv_pos_as_xyz
  x,y,z

loop_
_atom_site_label
_atom_site_type_symbol
_atom_site_fract_x
_atom_site_fract_y
_atom_site_fract_z
_atom_site_charge
C 	C 	0.20137 0.17541 0.73870 0.30400
C 	C 	0.12425 0.10795 0.66967 0.32300
Ni	Ni	0.14170 0.02074 0.71398 1.10900
Ni	Ni	0.03378 0.11597 0.71491 1.11800
O 	O 	0.22056 0.11865 0.73524 -0.36400
O 	O 	0.15978 0.19071 0.72126 -0.37300
O 	O 	0.17837 0.10160 0.68447 -0.37000
O 	O 	0.05498 0.10528 0.67847 -0.39300
O 	O 	0.04721 0.02874 0.72512 -0.72200
H 	H 	0.06819 0.04748 0.74187 0.14200
C 	C 	0.30263 0.69002 0.37607 0.30700
C 	C 	0.23584 0.66669 0.45652 0.31300
Ni	Ni	0.32362 0.61384 0.42205 1.12100
O 	O 	0.37690 0.75575 0.37482 -0.36500
O 	O 	0.29549 0.62416 0.38585 -0.37600
O 	O 	0.23397 0.63720 0.43431 -0.39000
O 	O 	0.41597 0.58999 0.41136 -0.38400
C 	C 	0.22981 0.48809 0.03681 0.32700
C 	C 	0.08983 0.59987 0.01696 0.29400
O 	O 	0.12822 0.67595 0.02122 -0.38200
O 	O 	0.25726 0.52153 0.01482 -0.37600
O 	O 	0.13361 0.56606 0.00960 -0.38000
C 	C 	0.07169 0.13642 0.18082 0.32000
C 	C 	0.17188 0.18024 0.24854 0.30300
Ni	Ni	0.07375 0.03207 0.22042 1.10900
O 	O 	0.12095 0.12004 0.19452 -0.38400
O 	O 	0.04565 0.93898 0.24365 -0.38300
O 	O 	0.16369 0.11005 0.24359 -0.37800
C 	C 	0.15705 0.26821 0.06187 -0.01400
C 	C 	0.07181 0.22232 0.06933 -0.01400
C 	C 	0.05155 0.17979 0.09175 -0.07700
C 	C 	0.11634 0.18171 0.10643 0.01300
C 	C 	0.19944 0.21675 0.09690 -0.04200
C 	C 	0.21954 0.25910 0.07445 -0.02500
C 	C 	0.18220 0.34090 0.04854 0.05500
C 	C 	0.20388 0.40644 0.04084 -0.10700
C 	C 	0.10104 0.16257 0.13256 0.03800
C 	C 	0.08810 0.14967 0.15458 -0.10100
H 	H 	0.02240 0.22654 0.05927 0.03400
H 	H 	0.24962 0.21643 0.10774 0.04700
C 	C 	0.05805 0.64933 0.14880 -0.05700
C 	C 	0.97542 0.63359 0.14327 0.02400
C 	C 	0.98215 0.71960 0.17658 0.05000
C 	C 	0.05982 0.72682 0.18409 -0.08700
C 	C 	0.09783 0.69188 0.17018 -0.00000
C 	C 	0.10831 0.64031 0.12965 0.06700
H 	H 	0.09370 0.76431 0.19957 0.05200
H 	H 	0.16100 0.70308 0.17490 0.03500
C 	C 	0.40309 0.42640 0.34172 -0.00400
C 	C 	0.43436 0.44600 0.31730 -0.03000
C 	C 	0.39651 0.39110 0.29831 -0.03200
C 	C 	0.32754 0.31632 0.30370 -0.00200
C 	C 	0.30147 0.29438 0.32843 -0.03300
C 	C 	0.33921 0.34932 0.34741 -0.03200
C 	C 	0.42318 0.48828 0.35935 0.05500
C 	C 	0.27554 0.26753 0.28386 0.04700
C 	C 	0.22948 0.22749 0.26752 -0.10100
H 	H 	0.48433 0.50523 0.31277 0.04700
H 	H 	0.41779 0.40820 0.27927 0.04600
H 	H 	0.24885 0.23630 0.33279 0.04100
C 	C 	0.11415 0.70655 0.34082 -0.00300
C 	C 	0.09910 0.68864 0.31555 -0.03300
C 	C 	0.06345 0.72453 0.30107 -0.03400
C 	C 	0.04267 0.77833 0.31184 -0.00200
C 	C 	0.04973 0.79001 0.33755 -0.03400
C 	C 	0.08502 0.75382 0.35205 -0.03200
C 	C 	0.17571 0.69308 0.35343 0.05000
C 	C 	0.23169 0.68808 0.36380 -0.09800
C 	C 	0.02632 0.82932 0.29619 0.04000
C 	C 	0.01504 0.87223 0.28245 -0.09300
H 	H 	0.12036 0.65131 0.30678 0.04300
H 	H 	0.05665 0.71408 0.28124 0.04200
H 	H 	0.09532 0.76708 0.37167 0.04400
C 	C 	0.08552 0.60606 0.47829 0.05800
C 	C 	0.15591 0.63808 0.46924 -0.09900
C 	C 	0.23021 0.24677 0.58933 -0.03300
C 	C 	0.16318 0.14573 0.62227 0.04700
C 	C 	0.14613 0.12826 0.64393 -0.10500
H 	H 	0.24155 0.29249 0.60262 0.04400
C 	C 	0.99844 0.55646 0.01501 -0.04800
C 	C 	0.19287 0.21181 0.78546 0.05200
C 	C 	0.19784 0.19841 0.76383 -0.11100
H 	H 	0.24974 0.35012 0.80941 0.04400
O 	O 	0.06810 0.93116 0.68962 -0.37100
C 	C 	0.44664 0.60515 0.38869 0.33100
C 	C 	0.39910 0.60696 0.47028 0.32800
Ni	Ni	0.47808 0.77157 0.39660 1.11500
Ni	Ni	0.43113 0.76420 0.45598 1.12200
O 	O 	0.45708 0.68117 0.46783 -0.38400
O 	O 	0.46734 0.67317 0.37805 -0.36800
O 	O 	0.30797 0.70699 0.46931 -0.37600
O 	O 	0.42389 0.85765 0.44270 -0.37900
O 	O 	0.32978 0.57609 0.45679 -0.38600
O 	O 	0.40016 0.72434 0.42311 -0.71000
H 	H 	0.36094 0.74441 0.41932 0.16100
C 	C 	0.19297 0.63855 0.08996 0.33500
C 	C 	0.30063 0.79323 0.99426 0.29700
Ni	Ni	0.33673 0.64396 0.05994 1.11500
Ni	Ni	0.22914 0.72889 0.04382 1.12200
Ni	Ni	0.26058 0.62459 0.00414 1.12000
O 	O 	0.27209 0.65357 0.09098 -0.37000
O 	O 	0.16073 0.64246 0.06874 -0.39400
O 	O 	0.26253 0.71883 0.98601 -0.37000
O 	O 	0.23745 0.53065 0.05624 -0.38200
O 	O 	0.28820 0.81041 0.01721 -0.37800
O 	O 	0.29423 0.68067 0.03451 -0.71900
H 	H 	0.34722 0.72731 0.02892 0.16200
H 	H 	0.28529 0.29199 0.06837 0.04200
C 	C 	0.14883 0.63735 0.11226 -0.12000
C 	C 	0.43606 0.54113 0.37331 -0.10600
H 	H 	0.31520 0.33340 0.36627 0.04200
C 	C 	0.25979 0.20920 0.54910 -0.00700
C 	C 	0.26700 0.26777 0.56559 -0.03300
C 	C 	0.18441 0.16708 0.59644 -0.00600
C 	C 	0.16738 0.10856 0.57881 -0.03500
C 	C 	0.20419 0.12966 0.55507 -0.03400
H 	H 	0.30809 0.32954 0.56097 0.04700
H 	H 	0.12980 0.04673 0.58390 0.03900
C 	C 	0.18768 0.22294 0.81176 -0.00600
C 	C 	0.15602 0.15758 0.82791 -0.03400
C 	C 	0.17532 0.16851 0.85323 -0.03400
C 	C 	0.22801 0.24466 0.86228 -0.00500
C 	C 	0.24621 0.30989 0.84697 -0.03300
C 	C 	0.22773 0.29915 0.82160 -0.03400
H 	H 	0.12196 0.09828 0.82061 0.04100
H 	H 	0.28367 0.36919 0.85404 0.04500
O 	O 	0.13408 0.21072 0.23483 -0.37100
O 	O 	0.00340 0.13113 0.74956 -0.40000
O 	O 	0.12937 0.93764 0.74167 -0.36200
O 	O 	0.90897 0.05817 0.70720 -0.37900
O 	O 	0.38608 0.66630 0.99774 -0.37700
O 	O 	0.31651 0.79560 0.07027 -0.37300
C 	C 	0.32831 0.22791 0.53181 0.05300
C 	C 	0.28655 0.25475 0.88183 0.05100
H 	H 	0.15748 0.11753 0.86513 0.04100
H 	H 	0.19626 0.08384 0.54224 0.04100
C 	C 	0.34069 0.85795 0.97685 -0.07600
C 	C 	0.41435 0.55851 0.48724 -0.09200
C 	C 	0.42386 0.28151 0.90589 0.32700
C 	C 	0.68176 0.41718 0.86930 0.33200
C 	C 	0.48886 0.14314 0.93809 0.30700
C 	C 	0.61265 0.47870 0.94547 0.32400
Ni	Ni	0.57064 0.25960 0.89420 1.11500
Ni	Ni	0.53751 0.30952 0.94916 1.12000
O 	O 	0.54644 0.41226 0.93961 -0.39200
O 	O 	0.48888 0.30423 0.89096 -0.37500
O 	O 	0.42726 0.25974 0.92894 -0.37000
O 	O 	0.64795 0.34055 0.86684 -0.36600
O 	O 	0.67678 0.44581 0.89069 -0.38400
O 	O 	0.48117 0.15979 0.91452 -0.36800
O 	O 	0.51340 0.19762 0.95569 -0.37400
O 	O 	0.69005 0.48953 0.94168 -0.37600
O 	O 	0.61428 0.31575 0.92376 -0.71200
H 	H 	0.63453 0.28245 0.93171 0.16600
C 	C 	0.47375 0.25610 0.51213 0.32500
C 	C 	0.56973 0.43649 0.53521 0.31600
C 	C 	0.68733 0.26289 0.47975 0.32500
Ni	Ni	0.58190 0.29175 0.55487 1.11400
Ni	Ni	0.65344 0.38282 0.50060 1.12300
O 	O 	0.65321 0.30748 0.47550 -0.38000
O 	O 	0.50953 0.22576 0.52574 -0.38600
O 	O 	0.52221 0.32062 0.49903 -0.36800
O 	O 	0.53971 0.37543 0.55093 -0.36900
O 	O 	0.64079 0.45923 0.52273 -0.38100
O 	O 	0.75596 0.28869 0.49333 -0.38600
C 	C 	0.60717 0.82899 0.43457 0.33200
C 	C 	0.48353 0.90930 0.42760 0.30500
O 	O 	0.57079 0.77236 0.41869 -0.38000
O 	O 	0.56075 0.83588 0.45226 -0.36900
O 	O 	0.50834 0.88715 0.40716 -0.36400
C 	C 	0.43232 0.64404 0.01110 0.30400
C 	C 	0.39817 0.81440 0.07103 0.30600
O 	O 	0.41563 0.62389 0.03514 -0.36300
O 	O 	0.42275 0.76185 0.06602 -0.36900
C 	C 	0.67678 0.05725 0.15413 0.00000
C 	C 	0.70639 0.06247 0.12968 -0.02900
C 	C 	0.64857 0.03037 0.11024 -0.03900
C 	C 	0.56106 0.99309 0.11521 0.00700
C 	C 	0.53230 0.99748 0.13908 -0.02400
C 	C 	0.59010 0.02935 0.15854 -0.04000
C 	C 	0.50309 0.93505 0.09822 0.04800
C 	C 	0.45496 0.88207 0.08511 -0.08900
H 	H 	0.67155 0.02884 0.09172 0.04800
H 	H 	0.46478 0.97037 0.14300 0.04500
H 	H 	0.56676 0.02669 0.17731 0.04500
C 	C 	0.74147 0.95288 0.41582 0.06500
C 	C 	0.68287 0.89814 0.42632 -0.11400
H 	H 	0.73636 0.07696 0.39530 0.04700
C 	C 	0.53386 0.98873 0.43603 -0.07300
C 	C 	0.57554 0.05349 0.44468 0.02500
C 	C 	0.62112 0.12752 0.45620 0.05100
C 	C 	0.65514 0.18979 0.46678 -0.09000
C 	C 	0.43684 0.52385 0.50114 0.04300
C 	C 	0.47397 0.48935 0.51596 0.04200
C 	C 	0.51404 0.46375 0.52642 -0.09200
C 	C 	0.39201 0.24204 0.52048 -0.11500
C 	C 	0.44985 0.06159 0.94577 -0.09900
C 	C 	0.41594 0.99454 0.95361 0.05800
C 	C 	0.37535 0.91868 0.96492 0.03300
C 	C 	0.48970 0.62461 0.99805 -0.07800
C 	C 	0.53210 0.60290 0.98648 0.03600
C 	C 	0.57346 0.56986 0.97233 0.04500
C 	C 	0.59877 0.53356 0.96001 -0.09200
C 	C 	0.34467 0.26538 0.89510 -0.10200
O 	O 	0.62966 0.35776 0.97656 -0.37000
C 	C 	0.87289 0.98953 0.69605 0.33400
C 	C 	0.95704 0.07118 0.76477 0.32600
C 	C 	0.74619 0.46844 0.85195 -0.11200
C 	C 	0.78560 0.06624 0.38786 -0.02800
O 	O 	0.59710 0.19782 0.56727 -0.37400
O 	O 	0.66785 0.19255 0.53303 -0.38800
O 	O 	0.67088 0.34095 0.53109 -0.70700
C 	C 	0.80489 0.01289 0.39989 -0.01000
C 	C 	0.74796 0.28680 0.89950 0.30900
C 	C 	0.71318 0.38232 0.97395 0.31100
Ni	Ni	0.71613 0.41456 0.92151 1.12200
O 	O 	0.66717 0.23212 0.89690 -0.37200
C 	C 	0.62806 0.16161 0.55393 0.33600
Ni	Ni	0.75413 0.30853 0.52997 1.12100
O 	O 	0.66983 0.35494 0.58196 -0.36500
O 	O 	0.77947 0.46175 0.49445 -0.36000
H 	H 	0.70495 0.39197 0.53933 0.15700
C 	C 	0.73058 0.06242 0.17445 0.05200
C 	C 	0.77486 0.06186 0.19101 -0.09400
H 	H 	0.77358 0.08562 0.12600 0.04800
C 	C 	0.87083 0.00190 0.39048 -0.03300
C 	C 	0.82167 0.09773 0.36458 -0.03200
H 	H 	0.80074 0.13321 0.35441 0.04900
C 	C 	0.63839 0.10061 0.56554 -0.11100
H 	H 	0.55835 0.96806 0.61640 0.04500
C 	C 	0.80347 0.51366 0.83857 0.06600
C 	C 	0.65030 0.05386 0.57708 0.05800
H 	H 	0.95013 0.63266 0.85523 0.03700
C 	C 	0.87843 0.07719 0.35353 0.00200
H 	H 	0.88801 0.96252 0.39995 0.05400
O 	O 	0.77169 0.36359 0.90038 -0.36900
O 	O 	0.74664 0.37958 0.95256 -0.39100
C 	C 	0.74775 0.36461 0.58157 0.30400
C 	C 	0.84744 0.46228 0.50442 0.29100
O 	O 	0.76739 0.31893 0.56788 -0.37100
O 	O 	0.84267 0.42163 0.52473 -0.38000
C 	C 	0.91343 0.09151 0.27829 0.30400
C 	C 	0.82710 0.05621 0.20994 0.31800
O 	O 	0.85575 0.03162 0.26518 -0.37200
O 	O 	0.87464 0.11779 0.22360 -0.35900
O 	O 	0.83007 0.99036 0.21233 -0.36900
C 	C 	0.90718 0.03359 0.36725 -0.03000
C 	C 	0.89344 0.08676 0.32707 0.05000
C 	C 	0.90337 0.09075 0.30480 -0.09100
H 	H 	0.95283 0.01917 0.35914 0.04900
C 	C 	0.66869 0.00439 0.59279 -0.01200
C 	C 	0.62010 0.97211 0.61447 -0.02100
C 	C 	0.65515 0.95360 0.63478 -0.03200
H 	H 	0.61993 0.93472 0.65216 0.04700
C 	C 	0.80880 0.41979 0.59837 -0.09200
C 	C 	0.77256 0.42696 0.99300 -0.08800
C 	C 	0.85614 0.24064 0.88555 0.05600
C 	C 	0.81028 0.26482 0.89295 -0.09200
C 	C 	0.92773 0.63341 0.78361 -0.06100
C 	C 	0.86764 0.56944 0.79773 -0.00700
C 	C 	0.87363 0.57049 0.82366 -0.02700
C 	C 	0.94409 0.63225 0.83521 0.01800
H 	H 	0.81427 0.52114 0.78860 0.04000
C 	C 	0.00521 0.86273 0.69700 0.28200
H 	H 	0.91958 0.63451 0.76370 0.05600
C 	C 	0.00385 0.69642 0.82110 -0.10300
O 	O 	0.93620 0.93254 0.26865 -0.35700
O 	O 	0.88309 0.87863 0.22061 -0.37100
Ni	Ni	0.88437 0.96583 0.24145 1.12400
O 	O 	0.97395 0.15568 0.26711 -0.35100
C 	C 	0.93046 0.51811 0.49517 -0.03000
C 	C 	0.73838 0.96639 0.63329 -0.00100
C 	C 	0.74724 0.00697 0.59024 -0.03500
H 	H 	0.78444 0.03008 0.57332 0.04700
C 	C 	0.88200 0.52424 0.65451 -0.03400
C 	C 	0.85561 0.46959 0.61256 0.05000
H 	H 	0.83734 0.46680 0.66217 0.04800
H 	H 	0.88739 0.58502 0.68829 0.04500
C 	C 	0.83770 0.46849 0.00389 0.05000
C 	C 	0.86464 0.12453 0.87264 -0.02900
C 	C 	0.90321 0.20693 0.87438 -0.00600
C 	C 	0.97307 0.25438 0.85903 -0.01100
H 	H 	0.81233 0.08711 0.88497 0.04700
H 	H 	0.00517 0.31804 0.86071 0.02500
C 	C 	0.99317 0.69918 0.79541 0.06600
H 	H 	0.87685 0.66191 0.15141 0.05600
C 	C 	0.07186 0.90830 0.76007 0.30500
H 	H 	0.05478 0.74646 0.83038 0.05900
C 	C 	0.94303 0.82596 0.19252 -0.09000
H 	H 	0.98413 0.61326 0.60044 0.05500
C 	C 	0.93343 0.89044 0.20138 0.32600
H 	H 	0.85028 0.02731 0.85038 0.04500
C 	C 	0.92284 0.51709 0.01152 0.03100
O 	O 	0.96808 0.85434 0.71881 -0.35700
Ni	Ni	0.00234 0.15478 0.22961 1.09900
O 	O 	0.99373 0.05533 0.23542 -0.67400
C 	C 	0.00168 0.56122 0.48761 -0.01600
C 	C 	0.78224 0.98828 0.61052 -0.02300
C 	C 	0.78371 0.97159 0.65567 0.05900
C 	C 	0.90592 0.53218 0.62938 0.00600
C 	C 	0.90979 0.59124 0.66925 -0.02600
C 	C 	0.96208 0.66629 0.65894 -0.00600
C 	C 	0.96459 0.60664 0.61978 -0.04200
C 	C 	0.94681 0.13910 0.83536 -0.00700
C 	C 	0.88582 0.09062 0.85297 -0.02900
C 	C 	0.99463 0.22052 0.83945 -0.00900
H 	H 	0.04347 0.25830 0.82624 0.02700
C 	C 	0.03224 0.77439 0.78278 0.00600
O 	O 	0.90533 0.99940 0.75612 -0.36900
C 	C 	0.97739 0.73549 0.67246 0.04700
C 	C 	0.95771 0.77530 0.18537 0.04300
C 	C 	0.00273 0.92173 0.26516 0.28000
O 	O 	0.99141 0.96199 0.19512 -0.37800
C 	C 	0.93777 0.66919 0.15703 -0.06200
H 	H 	0.94336 0.59929 0.12706 0.04000
H 	H 	0.03234 0.83045 0.34609 0.04100
H 	H 	0.03419 0.73146 0.62657 0.02400
O 	O 	0.01803 0.15475 0.19130 -0.38500
H 	H 	0.98654 0.15066 0.09858 0.07600
Ni	Ni	0.94593 0.93688 0.73533 1.13000
O 	O 	0.87351 0.92820 0.70610 -0.38000
O 	O 	0.01574 0.93202 0.76363 -0.39300
H 	H 	0.01592 0.06346 0.25244 0.11700
C 	C 	0.82352 0.97900 0.67427 -0.09700
H 	H 	0.84588 0.99638 0.60904 0.05100
C 	C 	0.99240 0.67365 0.63452 -0.00100
C 	C 	0.98960 0.79352 0.68364 -0.07100
C 	C 	0.94808 0.10887 0.81115 0.06000
C 	C 	0.95017 0.08836 0.79022 -0.10000
C 	C 	0.05629 0.83683 0.77234 -0.08300
