data_crystal

_cell_length_a 38.21135
_cell_length_b 41.16352
_cell_length_c 22.18845
_cell_angle_alpha 89.82450
_cell_angle_beta  89.99996
_cell_angle_gamma 90.00000

_symmetry_space_group_name_	'P 1'
_symmetry_space_group_name_H-M	'P 1'

loop_
_symmetry_equiv_pos_as_xyz
  x,y,z

loop_
_atom_site_label
_atom_site_type_symbol
_atom_site_fract_x
_atom_site_fract_y
_atom_site_fract_z
_atom_site_charge
C 	C 	0.49149 0.57068 0.90494 0.11500
N 	N 	0.47515 0.54322 0.92220 -0.17300
C 	C 	0.44261 0.54466 0.89875 0.11200
C 	C 	0.41387 0.52212 0.91653 -0.06500
C 	C 	0.42186 0.48797 0.93346 0.09600
C 	C 	0.37713 0.53354 0.91625 0.05200
C 	C 	0.35925 0.53809 0.97078 -0.02700
C 	C 	0.32457 0.54896 0.97052 0.01600
C 	C 	0.30801 0.55658 0.91580 0.02300
C 	C 	0.35979 0.53910 0.86145 -0.04300
N 	N 	0.45439 0.47548 0.93108 -0.12500
C 	C 	0.39712 0.46360 0.93973 -0.05100
C 	C 	0.45054 0.44317 0.93777 0.09500
C 	C 	0.47931 0.41981 0.92623 -0.06200
C 	C 	0.47420 0.38495 0.94002 0.03900
C 	C 	0.46590 0.32950 0.90619 -0.01200
C 	C 	0.46988 0.37472 0.99992 0.00000
C 	C 	0.46292 0.34209 0.01283 -0.03300
C 	C 	0.46173 0.31920 0.96613 0.04800
N 	N 	0.52895 0.45914 0.92525 -0.17200
C 	C 	0.56223 0.45874 0.90538 0.11300
C 	C 	0.56860 0.43091 0.87214 -0.05000
C 	C 	0.53764 0.41358 0.87175 -0.04700
C 	C 	0.58984 0.47987 0.93087 -0.06500
C 	C 	0.62569 0.46718 0.93958 0.05300
C 	C 	0.68725 0.46747 0.91275 0.00800
C 	C 	0.69318 0.44116 0.95172 0.01800
C 	C 	0.66547 0.42855 0.98606 0.01900
C 	C 	0.63179 0.44141 0.97978 -0.03300
N 	N 	0.55634 0.53073 0.91311 -0.12100
C 	C 	0.57772 0.56132 0.98878 -0.04200
C 	C 	0.55375 0.55931 0.94226 0.09400
C 	C 	0.52437 0.58213 0.93315 -0.07000
C 	C 	0.52977 0.61710 0.94406 0.06700
C 	C 	0.54262 0.63709 0.89782 -0.04400
C 	C 	0.54596 0.67051 0.90701 0.00200
C 	C 	0.53684 0.68409 0.96274 0.03500
C 	C 	0.52562 0.66384 0.00993 -0.00300
C 	C 	0.52153 0.63051 0.00028 -0.05000
C 	C 	0.46933 0.58999 0.87077 -0.05000
C 	C 	0.43803 0.57335 0.86678 -0.04800
C 	C 	0.32558 0.55110 0.86122 0.00100
C 	C 	0.41555 0.43483 0.94250 -0.05000
C 	C 	0.51386 0.43173 0.90472 0.11000
C 	C 	0.59632 0.53266 0.98776 -0.04300
C 	C 	0.58272 0.51476 0.94061 0.09300
C 	C 	0.65360 0.48031 0.90642 -0.04100
H 	H 	0.48185 0.53002 0.96082 0.10800
H 	H 	0.52065 0.47181 0.96341 0.10600
H 	H 	0.55521 0.68590 0.87066 0.07400
H 	H 	0.51962 0.67400 0.05372 0.08400
H 	H 	0.54935 0.62682 0.85445 0.06800
H 	H 	0.51199 0.61513 0.03642 0.06900
H 	H 	0.31067 0.55167 0.01275 0.07500
H 	H 	0.37306 0.53468 0.81911 0.06600
H 	H 	0.31274 0.55620 0.81870 0.07400
H 	H 	0.37215 0.53305 0.01327 0.06000
H 	H 	0.45808 0.33467 0.05896 0.09400
H 	H 	0.47120 0.39217 0.03632 0.05200
C 	C 	0.47133 0.36233 0.89314 -0.03300
H 	H 	0.46427 0.31213 0.86971 0.07700
H 	H 	0.70866 0.47775 0.88698 0.07500
H 	H 	0.64914 0.50023 0.87533 0.07000
H 	H 	0.61042 0.43126 0.00582 0.06100
H 	H 	0.66998 0.40859 0.01705 0.07200
H 	H 	0.47200 0.61598 0.86482 0.09100
H 	H 	0.41308 0.58473 0.85752 0.08700
H 	H 	0.36996 0.46558 0.92629 0.06500
H 	H 	0.40477 0.41126 0.93145 0.06600
H 	H 	0.59418 0.42045 0.86425 0.09200
H 	H 	0.53591 0.38773 0.86385 0.08000
H 	H 	0.57503 0.57677 0.02790 0.05400
H 	H 	0.61015 0.52250 0.02601 0.05500
H 	H 	0.47324 0.37022 0.84663 0.06300
Co	Co	0.38609 0.13429 0.04021 1.19100
Co	Co	0.38061 0.05808 0.03837 1.10000
O 	O 	0.38749 0.18354 0.04382 -0.29400
O 	O 	0.43817 0.16372 0.02892 -0.29100
O 	O 	0.33608 0.12290 0.04657 -0.37600
O 	O 	0.42038 0.07506 0.98994 -0.45800
C 	C 	0.32163 0.10142 0.01046 0.31500
C 	C 	0.42005 0.18990 0.03517 0.29800
O 	O 	0.34033 0.07719 0.98934 -0.36000
O 	O 	0.39376 0.12114 0.95801 -0.35400
C 	C 	0.41498 0.09683 0.94761 0.31500
O 	O 	0.40094 0.12213 0.12059 -0.41500
O 	O 	0.36801 0.07598 0.11822 -0.45400
C 	C 	0.38872 0.09594 0.14734 0.30300
C 	C 	0.51564 0.04026 0.59455 0.02000
C 	C 	0.53547 0.01107 0.59390 0.01800
C 	C 	0.49026 0.04589 0.54984 -0.05000
C 	C 	0.48271 0.02179 0.50714 0.01900
C 	C 	0.52919 0.98764 0.54909 -0.05000
C 	C 	0.50223 0.99237 0.50685 0.01800
H 	H 	0.54452 0.96551 0.54812 0.06200
H 	H 	0.47574 0.06850 0.54945 0.06400
C 	C 	0.49221 0.96741 0.46682 -0.01400
C 	C 	0.46484 0.97168 0.42538 0.01400
C 	C 	0.46684 0.95015 0.37538 -0.04500
C 	C 	0.49587 0.92946 0.37794 -0.00600
S 	S 	0.51886 0.93889 0.43956 0.03000
H 	H 	0.45047 0.95215 0.33579 0.04600
C 	C 	0.45407 0.02502 0.46739 -0.01300
C 	C 	0.44559 0.00072 0.42576 0.01400
C 	C 	0.42519 0.01238 0.37655 -0.04400
C 	C 	0.41814 0.04568 0.38014 -0.00700
S 	S 	0.43825 0.06015 0.44123 0.03200
H 	H 	0.41918 0.99816 0.33698 0.04700
C 	C 	0.54405 0.05600 0.68936 0.01700
C 	C 	0.52095 0.06274 0.64162 -0.01300
S 	S 	0.48952 0.08661 0.66892 0.03900
C 	C 	0.50384 0.09048 0.73937 -0.00100
C 	C 	0.53473 0.07227 0.74383 -0.04300
C 	C 	0.56067 0.00583 0.63948 -0.01200
C 	C 	0.56446 0.02751 0.68780 0.01700
C 	C 	0.57930 0.01265 0.74011 -0.04300
C 	C 	0.58562 0.97934 0.73354 -0.00000
S 	S 	0.57320 0.96928 0.66398 0.03200
H 	H 	0.58122 0.02459 0.78329 0.05900
H 	H 	0.54685 0.06720 0.78684 0.05700
Co	Co	0.59338 0.87307 0.05310 1.19400
Co	Co	0.51317 0.88384 0.02974 1.09800
O 	O 	0.64545 0.86377 0.05991 -0.25900
O 	O 	0.63511 0.91467 0.05766 -0.29400
O 	O 	0.57036 0.83018 0.05443 -0.34500
O 	O 	0.52217 0.86916 0.11379 -0.44700
C 	C 	0.54911 0.82117 0.01098 0.29500
C 	C 	0.65867 0.89242 0.06271 0.30100
O 	O 	0.52784 0.84238 0.98590 -0.39100
O 	O 	0.57690 0.88936 0.12970 -0.40200
C 	C 	0.54483 0.88403 0.14868 0.30300
O 	O 	0.58885 0.88247 0.96842 -0.37800
O 	O 	0.54324 0.91598 0.98796 -0.46300
C 	C 	0.56809 0.90610 0.95150 0.31000
Co	Co	0.10152 0.62517 0.93243 1.19100
Co	Co	0.02079 0.61695 0.95066 1.11000
O 	O 	0.15441 0.62994 0.92723 -0.32500
O 	O 	0.13911 0.58019 0.93485 -0.24200
O 	O 	0.08254 0.66976 0.92706 -0.33900
O 	O 	0.03124 0.63039 0.86658 -0.40900
C 	C 	0.05687 0.67983 0.96197 0.31500
C 	C 	0.16481 0.60026 0.92984 0.29400
O 	O 	0.03712 0.65878 0.99093 -0.40300
O 	O 	0.08566 0.60850 0.85559 -0.38300
C 	C 	0.05464 0.61541 0.83348 0.30600
O 	O 	0.09445 0.61777 0.01714 -0.42100
O 	O 	0.04886 0.58465 0.99595 -0.45500
C 	C 	0.07317 0.59444 0.03352 0.30700
C 	C 	0.01220 0.50953 0.47703 0.02600
C 	C 	0.99297 0.48002 0.47965 0.00900
C 	C 	0.03909 0.51329 0.43438 -0.05300
C 	C 	0.04561 0.48869 0.39197 0.02200
C 	C 	0.00113 0.45459 0.44003 -0.03800
C 	C 	0.02648 0.45911 0.39484 0.01500
H 	H 	0.98705 0.43181 0.44308 0.05900
H 	H 	0.05409 0.53561 0.43302 0.06400
C 	C 	0.03206 0.43536 0.35002 -0.01000
C 	C 	0.05326 0.44186 0.29962 0.01600
C 	C 	0.04331 0.42377 0.24752 -0.04400
C 	C 	0.01422 0.40370 0.25699 0.00200
S 	S 	0.00179 0.40867 0.32838 0.03600
H 	H 	0.05351 0.42852 0.20292 0.05400
C 	C 	0.06995 0.49324 0.34477 -0.01300
C 	C 	0.07276 0.47084 0.29744 0.01600
C 	C 	0.08607 0.48492 0.24324 -0.04400
C 	C 	0.09271 0.51829 0.24786 -0.00500
S 	S 	0.08196 0.52938 0.31764 0.03000
H 	H 	0.08663 0.47240 0.20049 0.05500
C 	C 	0.97522 0.53195 0.55734 0.01400
C 	C 	0.00227 0.53539 0.51501 -0.01300
S 	S 	0.02927 0.56417 0.54006 0.03500
C 	C 	0.00703 0.57475 0.60172 0.00200
C 	C 	0.97780 0.55439 0.60591 -0.04900
C 	C 	0.96443 0.47761 0.51982 -0.01100
C 	C 	0.95616 0.50278 0.55979 0.01300
C 	C 	0.93702 0.49193 0.61117 -0.04300
C 	C 	0.93102 0.45835 0.61154 -0.00600
S 	S 	0.94990 0.44304 0.55010 0.03600
H 	H 	0.93184 0.50696 0.65004 0.05000
H 	H 	0.96173 0.55319 0.64596 0.05000
Co	Co	0.89733 0.36373 0.94285 1.19100
Co	Co	0.90729 0.43914 0.95875 1.11900
O 	O 	0.88935 0.31581 0.92585 -0.30400
O 	O 	0.94138 0.33009 0.90481 -0.28400
O 	O 	0.85291 0.38010 0.97660 -0.35500
O 	O 	0.90470 0.41656 0.03775 -0.40900
C 	C 	0.83824 0.40704 0.95681 0.32200
C 	C 	0.91925 0.30645 0.90563 0.31800
O 	O 	0.85718 0.42999 0.93149 -0.38900
O 	O 	0.92628 0.36664 0.01421 -0.41500
C 	C 	0.92499 0.39176 0.05048 0.30400
O 	O 	0.89378 0.38249 0.86357 -0.40200
O 	O 	0.93341 0.42074 0.88979 -0.46600
C 	C 	0.91651 0.40475 0.84785 0.31500
C 	C 	0.98692 0.92984 0.06746 0.10600
N 	N 	0.96839 0.95554 0.04755 -0.17200
C 	C 	0.93651 0.95332 0.07312 0.10600
C 	C 	0.90575 0.97148 0.05018 -0.06700
C 	C 	0.90949 0.00594 0.03283 0.08700
C 	C 	0.87058 0.95649 0.05043 0.05600
C 	C 	0.86406 0.92831 0.01677 -0.05200
C 	C 	0.83029 0.91525 0.01451 -0.00400
C 	C 	0.80271 0.93070 0.04479 0.02500
C 	C 	0.84317 0.97128 0.08224 -0.04000
N 	N 	0.93448 0.02538 0.05573 -0.11900
C 	C 	0.89443 0.01955 0.98207 -0.03600
C 	C 	0.93472 0.05195 0.02011 0.08800
C 	C 	0.96398 0.07535 0.01977 -0.08100
C 	C 	0.95838 0.10871 0.99708 0.07800
C 	C 	0.92942 0.16095 0.00513 -0.00200
C 	C 	0.97818 0.12047 0.94845 -0.04700
C 	C 	0.97371 0.15244 0.92840 0.00700
C 	C 	0.94994 0.17301 0.95768 0.03500
N 	N 	0.01510 0.03885 0.03064 -0.17700
C 	C 	0.04861 0.04286 0.04785 0.11200
C 	C 	0.05293 0.07277 0.07545 -0.04900
C 	C 	0.02053 0.08766 0.07446 -0.04500
C 	C 	0.07758 0.02306 0.02296 -0.06600
C 	C 	0.11255 0.03754 0.01303 0.04700
C 	C 	0.17454 0.03939 0.03631 0.01600
C 	C 	0.17801 0.06774 0.00160 -0.01100
C 	C 	0.14906 0.07993 0.96989 0.02500
C 	C 	0.11645 0.06477 0.97534 -0.03700
N 	N 	0.05099 0.97014 0.05010 -0.11600
C 	C 	0.06494 0.94156 0.96710 -0.04300
C 	C 	0.04677 0.94175 0.02097 0.08300
C 	C 	0.01900 0.91828 0.03673 -0.06300
C 	C 	0.02443 0.88317 0.02528 0.05100
C 	C 	0.05607 0.86823 0.04186 -0.04400
C 	C 	0.06129 0.83519 0.03084 0.01800
C 	C 	0.03450 0.81653 0.00516 -0.00900
C 	C 	0.00311 0.83151 0.98762 0.03100
C 	C 	0.99819 0.86475 0.99722 -0.04800
C 	C 	0.96691 0.91111 0.10639 -0.05200
C 	C 	0.93462 0.92613 0.10997 -0.05000
C 	C 	0.80941 0.95840 0.07952 0.00400
C 	C 	0.91067 0.04910 0.97382 -0.04000
C 	C 	0.99798 0.06608 0.04655 0.10900
C 	C 	0.08168 0.97114 0.96344 -0.04300
C 	C 	0.07280 0.98776 0.01527 0.08300
C 	C 	0.14187 0.02459 0.04261 -0.04200
H 	H 	0.97366 0.96810 0.00754 0.09500
H 	H 	0.00703 0.02322 0.99629 0.10900
H 	H 	0.08602 0.82401 0.04277 0.08000
H 	H 	0.98253 0.81738 0.96671 0.06300
H 	H 	0.07657 0.88221 0.06333 0.07100
H 	H 	0.97396 0.87614 0.98312 0.06500
H 	H 	0.82544 0.89345 0.98858 0.09000
H 	H 	0.84801 0.99286 0.10880 0.07000
H 	H 	0.78838 0.97007 0.10403 0.07600
H 	H 	0.88507 0.91671 0.99208 0.07400
H 	H 	0.98918 0.16141 0.89097 0.08000
H 	H 	0.99711 0.10491 0.92644 0.06700
C 	C 	0.93371 0.12895 0.02491 -0.05300
H 	H 	0.91057 0.17655 0.02725 0.07900
H 	H 	0.19701 0.02929 0.05949 0.06900
H 	H 	0.13922 0.00338 0.07130 0.07000
H 	H 	0.09409 0.07455 0.95136 0.06800
H 	H 	0.15169 0.10143 0.94200 0.07700
H 	H 	0.97160 0.88577 0.11674 0.08200
H 	H 	0.91066 0.91410 0.12345 0.06800
H 	H 	0.88163 0.00591 0.94673 0.08000
H 	H 	0.91243 0.06166 0.93098 0.06800
H 	H 	0.07756 0.08549 0.08015 0.09300
H 	H 	0.01651 0.11364 0.07733 0.09200
H 	H 	0.05839 0.92659 0.92868 0.06400
H 	H 	0.08995 0.98251 0.92175 0.06300
H 	H 	0.91822 0.12002 0.06234 0.07500
C 	C 	0.95664 0.26478 0.95428 0.07200
C 	C 	0.93079 0.27246 0.91166 -0.00600
C 	C 	0.91447 0.24738 0.87848 -0.06800
C 	C 	0.92155 0.21483 0.89359 0.00900
C 	C 	0.94617 0.20715 0.93826 0.08200
C 	C 	0.96510 0.23225 0.96709 -0.11900
C 	C 	0.99313 0.22442 0.01350 0.76900
H 	H 	0.96922 0.28422 0.97898 0.08600
H 	H 	0.90734 0.19539 0.87165 0.09500
C 	C 	0.88839 0.25520 0.82891 0.77400
F 	F 	0.01130 0.25193 0.03096 -0.42800
F 	F 	0.01704 0.20272 0.98976 -0.42400
F 	F 	0.97781 0.21085 0.06411 -0.44000
F 	F 	0.90112 0.27979 0.79233 -0.42300
F 	F 	0.85710 0.26499 0.85434 -0.41100
F 	F 	0.88206 0.22843 0.79288 -0.42000
C 	C 	0.89593 0.42801 0.68728 -0.05700
C 	C 	0.92844 0.43986 0.66799 0.04600
C 	C 	0.95778 0.43686 0.70559 -0.06300
C 	C 	0.95422 0.42376 0.76340 0.02800
C 	C 	0.92130 0.41348 0.78405 -0.08300
C 	C 	0.89236 0.41474 0.74507 0.03300
H 	H 	0.87320 0.43008 0.65834 0.07500
H 	H 	0.98307 0.44572 0.69077 0.06100
H 	H 	0.97685 0.42240 0.79271 0.04800
H 	H 	0.86684 0.40676 0.76041 0.06600
C 	C 	0.99749 0.37542 0.16237 -0.05900
C 	C 	0.98890 0.39719 0.20851 0.04000
C 	C 	0.95779 0.41527 0.20474 -0.05600
C 	C 	0.93603 0.41228 0.15451 0.02100
C 	C 	0.94536 0.39154 0.10701 -0.07600
C 	C 	0.97580 0.37251 0.11190 0.02500
H 	H 	0.02146 0.36142 0.16482 0.08000
H 	H 	0.95107 0.43248 0.23972 0.06200
H 	H 	0.91235 0.42669 0.15192 0.07400
H 	H 	0.98329 0.35631 0.07575 0.06100
C 	C 	0.04654 0.72601 0.03119 0.06800
C 	C 	0.05151 0.71498 0.97201 -0.00800
C 	C 	0.04933 0.73731 0.92323 -0.06800
C 	C 	0.04556 0.77062 0.93563 -0.00600
C 	C 	0.03971 0.78143 0.99460 0.11700
C 	C 	0.03856 0.75875 0.04269 -0.15200
C 	C 	0.02992 0.76942 0.10650 0.79500
H 	H 	0.04851 0.70890 0.06825 0.08000
H 	H 	0.04664 0.78823 0.89928 0.09600
C 	C 	0.05106 0.72598 0.85816 0.77400
F 	F 	0.02221 0.74309 0.14315 -0.43300
F 	F 	0.00107 0.78974 0.10658 -0.44300
F 	F 	0.05823 0.78565 0.13086 -0.44100
F 	F 	0.02945 0.69945 0.84956 -0.45000
F 	F 	0.08511 0.71770 0.84378 -0.42200
F 	F 	0.04022 0.75010 0.81872 -0.43100
C 	C 	0.06174 0.58073 0.74224 0.01700
C 	C 	0.04669 0.60799 0.76997 -0.05900
C 	C 	0.02178 0.62653 0.73843 0.01900
C 	C 	0.01041 0.61669 0.68149 -0.04400
C 	C 	0.02397 0.58843 0.65535 0.03700
C 	C 	0.05033 0.57092 0.68525 -0.04800
H 	H 	0.08114 0.56633 0.76585 0.08300
H 	H 	0.01056 0.64807 0.75865 0.08900
H 	H 	0.99016 0.63041 0.65859 0.06700
H 	H 	0.06085 0.54894 0.66556 0.06800
C 	C 	0.04916 0.56523 0.12274 0.02900
C 	C 	0.07823 0.57739 0.09128 -0.08600
C 	C 	0.11210 0.57165 0.11356 0.03500
C 	C 	0.11682 0.55302 0.16582 -0.06000
C 	C 	0.08775 0.54021 0.19624 0.04600
C 	C 	0.05390 0.54675 0.17497 -0.06500
H 	H 	0.02290 0.56980 0.10636 0.02600
H 	H 	0.13475 0.58081 0.08957 0.05400
H 	H 	0.14304 0.54805 0.18196 0.07100
H 	H 	0.03131 0.53697 0.19832 0.05700
C 	C 	0.70668 0.92015 0.00786 0.06500
C 	C 	0.69629 0.89893 0.05409 0.00100
C 	C 	0.72168 0.88556 0.09362 -0.06800
C 	C 	0.75701 0.89440 0.08652 0.00400
C 	C 	0.76701 0.91708 0.04258 0.08800
C 	C 	0.74199 0.92906 0.00105 -0.14100
C 	C 	0.75269 0.95226 0.95097 0.80000
H 	H 	0.68706 0.93005 0.97769 0.08800
H 	H 	0.77672 0.88458 0.11659 0.09500
C 	C 	0.71123 0.86193 0.14325 0.77300
F 	F 	0.72568 0.95756 0.91052 -0.43600
F 	F 	0.78068 0.93959 0.91925 -0.43700
F 	F 	0.76226 0.98181 0.97543 -0.43800
F 	F 	0.70009 0.83309 0.11789 -0.39600
F 	F 	0.68450 0.87494 0.17764 -0.42800
F 	F 	0.73891 0.85509 0.18150 -0.42300
C 	C 	0.54780 0.94883 0.80511 -0.06400
C 	C 	0.58145 0.95688 0.78464 0.04700
C 	C 	0.61085 0.94651 0.81729 -0.05600
C 	C 	0.60659 0.92893 0.87091 0.04000
C 	C 	0.57285 0.92194 0.89251 -0.08100
C 	C 	0.54352 0.93152 0.85882 0.02900
H 	H 	0.52493 0.95691 0.78034 0.05700
H 	H 	0.63693 0.95278 0.80199 0.08900
H 	H 	0.62944 0.92166 0.89655 0.06800
H 	H 	0.51738 0.92592 0.87467 0.02600
C 	C 	0.55275 0.91814 0.24072 0.02500
C 	C 	0.53484 0.89310 0.21076 -0.08300
C 	C 	0.50604 0.87818 0.23888 0.02200
C 	C 	0.49438 0.88913 0.29497 -0.06200
C 	C 	0.51146 0.91493 0.32373 0.04200
C 	C 	0.54105 0.92905 0.29685 -0.06000
H 	H 	0.57501 0.92989 0.21969 0.05800
H 	H 	0.49233 0.85846 0.21690 0.04900
H 	H 	0.47153 0.87807 0.31542 0.06400
H 	H 	0.55421 0.94923 0.31836 0.06400
C 	C 	0.26175 0.10740 0.05231 0.09000
C 	C 	0.28326 0.10129 0.00234 -0.03100
C 	C 	0.26782 0.09167 0.94711 -0.04800
C 	C 	0.23271 0.08150 0.94689 -0.01100
C 	C 	0.21204 0.08467 0.99872 0.12400
C 	C 	0.22571 0.10083 0.04978 -0.15900
C 	C 	0.20257 0.10929 0.10305 0.79800
H 	H 	0.27332 0.11594 0.09396 0.08100
H 	H 	0.22174 0.07030 0.90696 0.09500
C 	C 	0.28859 0.09138 0.88885 0.77000
F 	F 	0.21724 0.13400 0.13689 -0.42300
F 	F 	0.19851 0.08227 0.13953 -0.44700
F 	F 	0.17003 0.11976 0.08372 -0.43400
F 	F 	0.30574 0.06197 0.88317 -0.44000
F 	F 	0.31283 0.11636 0.88767 -0.40700
F 	F 	0.26664 0.09542 0.83975 -0.42000
C 	C 	0.44342 0.06548 0.86544 0.03000
C 	C 	0.43535 0.09560 0.89138 -0.06400
C 	C 	0.44847 0.12428 0.86526 0.03500
C 	C 	0.47037 0.12267 0.81477 -0.04700
C 	C 	0.47920 0.09246 0.79008 0.04500
C 	C 	0.46514 0.06392 0.81497 -0.05900
H 	H 	0.43309 0.04325 0.88471 0.03500
H 	H 	0.44250 0.14768 0.88499 0.09100
H 	H 	0.48092 0.14483 0.79555 0.08000
H 	H 	0.47145 0.04050 0.79562 0.05600
C 	C 	0.36789 0.07953 0.24910 0.02700
C 	C 	0.39517 0.09057 0.21195 -0.08700
C 	C 	0.42946 0.09153 0.23455 0.02100
C 	C 	0.43680 0.07891 0.29184 -0.06300
C 	C 	0.40981 0.06555 0.32699 0.04300
C 	C 	0.37521 0.06702 0.30631 -0.06200
H 	H 	0.34120 0.07929 0.23258 0.05700
H 	H 	0.45070 0.10025 0.20648 0.04300
H 	H 	0.46363 0.07798 0.30754 0.06100
H 	H 	0.35418 0.05705 0.33342 0.07000
C 	C 	0.42115 0.27234 0.95853 0.00100
C 	C 	0.45304 0.28487 0.97931 0.09400
C 	C 	0.47622 0.26452 0.01206 -0.14600
C 	C 	0.46447 0.23378 0.03125 0.08000
C 	C 	0.43222 0.22154 0.01148 -0.02400
C 	C 	0.41198 0.23986 0.96983 -0.05600
C 	C 	0.38111 0.22506 0.93659 0.77200
H 	H 	0.40375 0.28780 0.93262 0.09300
H 	H 	0.48037 0.21938 0.06173 0.07900
C 	C 	0.51299 0.27558 0.02800 0.78500
F 	F 	0.37374 0.24233 0.88445 -0.42000
F 	F 	0.35180 0.22567 0.97311 -0.40900
F 	F 	0.38827 0.19338 0.91993 -0.43000
F 	F 	0.51180 0.29565 0.07778 -0.44100
F 	F 	0.52812 0.29213 0.98029 -0.42600
F 	F 	0.53427 0.24930 0.04137 -0.42700
C 	C 	0.22849 0.61001 0.94274 0.07400
C 	C 	0.20161 0.59030 0.92000 -0.00200
C 	C 	0.21032 0.56117 0.88931 -0.07200
C 	C 	0.24495 0.54972 0.89191 0.00600
C 	C 	0.27174 0.56923 0.91534 0.08700
C 	C 	0.26376 0.60077 0.93688 -0.13300
C 	C 	0.29247 0.62426 0.95533 0.79800
H 	H 	0.22188 0.63252 0.96528 0.09100
H 	H 	0.25126 0.52583 0.87457 0.08900
C 	C 	0.18336 0.54251 0.85290 0.77500
F 	F 	0.28013 0.65587 0.95694 -0.41600
F 	F 	0.31995 0.62341 0.91474 -0.43000
F 	F 	0.30464 0.61614 0.01206 -0.44600
F 	F 	0.16175 0.56360 0.82151 -0.43500
F 	F 	0.16347 0.52334 0.89102 -0.43100
F 	F 	0.19938 0.52254 0.81104 -0.43200
C 	C 	0.77858 0.39857 0.91662 0.07700
C 	C 	0.80018 0.41127 0.96180 -0.00200
C 	C 	0.78554 0.43017 0.00858 -0.08100
C 	C 	0.75004 0.43900 0.00541 -0.00700
C 	C 	0.72880 0.42772 0.95840 0.10100
C 	C 	0.74260 0.40574 0.91554 -0.13400
C 	C 	0.71947 0.39132 0.86681 0.79200
H 	H 	0.79008 0.38386 0.88135 0.08500
H 	H 	0.73905 0.45543 0.03846 0.09000
C 	C 	0.80807 0.44207 0.06036 0.77400
F 	F 	0.73591 0.36584 0.83766 -0.41600
F 	F 	0.71147 0.41495 0.82460 -0.44100
F 	F 	0.68881 0.37947 0.89168 -0.43000
F 	F 	0.83108 0.46549 0.03959 -0.47500
F 	F 	0.82688 0.41648 0.08468 -0.43700
F 	F 	0.78804 0.45545 0.10598 -0.43600
C 	C 	0.51318 0.77248 0.98882 0.07400
C 	C 	0.54648 0.78653 0.99442 -0.00000
C 	C 	0.57673 0.76728 0.98444 -0.07100
C 	C 	0.57292 0.73355 0.97717 0.00900
C 	C 	0.53963 0.71954 0.97185 0.08500
C 	C 	0.50944 0.73947 0.97415 -0.13500
C 	C 	0.47317 0.72550 0.96327 0.79900
H 	H 	0.49015 0.78730 0.99634 0.07200
H 	H 	0.59588 0.71814 0.97495 0.09400
C 	C 	0.61305 0.78228 0.98236 0.78100
F 	F 	0.44884 0.74983 0.95309 -0.42800
F 	F 	0.46270 0.70781 0.01315 -0.44500
F 	F 	0.47324 0.70553 0.91322 -0.43700
F 	F 	0.62485 0.78762 0.04039 -0.41900
F 	F 	0.61261 0.81137 0.95095 -0.43800
F 	F 	0.63656 0.76194 0.95363 -0.41900
