data_crystal

_cell_length_a 30.58900
_cell_length_b 31.07120
_cell_length_c 23.25083
_cell_angle_alpha 95.52657
_cell_angle_beta  95.52232
_cell_angle_gamma 125.54249

_symmetry_space_group_name_	'P 1'
_symmetry_space_group_name_H-M	'P 1'

loop_
_symmetry_equiv_pos_as_xyz
  x,y,z

loop_
_atom_site_label
_atom_site_type_symbol
_atom_site_fract_x
_atom_site_fract_y
_atom_site_fract_z
_atom_site_charge
C 	C 	0.97882 0.03166 0.99257 0.06700
C 	C 	0.05367 0.02863 0.97299 0.05100
C 	C 	0.03249 0.05786 0.98251 -0.09000
H 	H 	0.05757 0.10069 0.98204 0.06000
C 	C 	0.02852 0.00968 0.43569 0.03100
C 	C 	0.00046 0.03211 0.42547 -0.07600
H 	H 	0.02311 0.07449 0.42323 0.05000
Cu	Cu	0.65375 0.26277 0.00716 0.92000
Cu	Cu	0.71141 0.26492 0.89446 0.87200
Cu	Cu	0.68702 0.34310 0.92350 0.90000
Cu	Cu	0.64160 0.35663 0.02713 0.88700
C 	C 	0.65659 0.30704 0.12307 0.28000
O 	O 	0.57175 0.22492 0.99434 -0.35300
C 	C 	0.68533 0.30353 0.80090 0.28200
O 	O 	0.69270 0.34519 0.00674 -0.64900
O 	O 	0.65410 0.26524 0.92227 -0.63400
O 	O 	0.69272 0.22943 0.01829 -0.37200
O 	O 	0.75736 0.28518 0.96781 -0.42400
O 	O 	0.62890 0.32309 0.09862 -0.38600
O 	O 	0.72270 0.41978 0.93124 -0.37800
C 	C 	0.71295 0.44768 0.96708 0.30800
C 	C 	0.54887 0.24337 0.96504 0.28600
O 	O 	0.57946 0.29285 0.95549 -0.38700
O 	O 	0.67115 0.42381 0.99470 -0.38800
O 	O 	0.66406 0.27486 0.09154 -0.35600
C 	C 	0.74117 0.25139 0.00434 0.27100
O 	O 	0.69432 0.34316 0.83978 -0.37800
O 	O 	0.68218 0.26254 0.81716 -0.41600
H 	H 	0.73030 0.37118 0.02978 0.16100
H 	H 	0.61794 0.24037 0.89592 0.17400
Cu	Cu	0.72694 0.33781 0.41840 0.92700
Cu	Cu	0.73347 0.28901 0.53529 0.87100
Cu	Cu	0.64785 0.30493 0.50506 0.89700
Cu	Cu	0.62652 0.34218 0.39826 0.89400
C 	C 	0.67711 0.32812 0.30173 0.28000
O 	O 	0.76103 0.41761 0.42670 -0.36200
C 	C 	0.69312 0.31322 0.62835 0.28200
O 	O 	0.64323 0.29608 0.42137 -0.63900
O 	O 	0.72736 0.34106 0.50409 -0.64000
O 	O 	0.76380 0.30216 0.40888 -0.37200
O 	O 	0.71185 0.24084 0.46406 -0.44500
O 	O 	0.65841 0.35342 0.32526 -0.38100
O 	O 	0.56956 0.26608 0.49949 -0.38000
C 	C 	0.53822 0.27164 0.46269 0.30700
C 	C 	0.74070 0.43891 0.45488 0.30200
O 	O 	0.69152 0.40755 0.46677 -0.39300
O 	O 	0.55926 0.31145 0.43303 -0.39500
O 	O 	0.71194 0.32375 0.33388 -0.35300
C 	C 	0.74395 0.25579 0.42529 0.31000
O 	O 	0.65115 0.30158 0.58993 -0.37700
O 	O 	0.73619 0.31989 0.61149 -0.41700
H 	H 	0.61797 0.25826 0.40017 0.16300
H 	H 	0.75161 0.37766 0.52855 0.17400
C 	C 	0.68636 0.30869 0.74025 -0.04700
C 	C 	0.68871 0.31161 0.68915 -0.04800
C 	C 	0.66541 0.31273 0.18596 -0.04400
C 	C 	0.67143 0.31891 0.23888 -0.04200
C 	C 	0.84814 0.70435 0.45646 0.00900
C 	C 	0.88257 0.68835 0.45448 -0.04400
C 	C 	0.86270 0.63548 0.45859 -0.03100
C 	C 	0.80840 0.59838 0.46494 -0.00900
C 	C 	0.77438 0.61466 0.46844 -0.03100
C 	C 	0.79416 0.66747 0.46422 -0.04400
C 	C 	0.78629 0.54266 0.46326 0.04500
C 	C 	0.76643 0.49556 0.46038 -0.11000
H 	H 	0.92447 0.71666 0.44905 0.04000
H 	H 	0.88924 0.62319 0.45585 0.03800
H 	H 	0.73232 0.58615 0.47327 0.03800
H 	H 	0.76728 0.67943 0.46587 0.03900
C 	C 	0.91394 0.02393 0.40824 -0.00400
C 	C 	0.88411 0.02562 0.44950 -0.03600
C 	C 	0.86013 0.05220 0.44214 -0.04200
C 	C 	0.86582 0.07736 0.39349 0.00600
C 	C 	0.89455 0.07460 0.35151 -0.04300
C 	C 	0.91843 0.04792 0.35879 -0.03600
C 	C 	0.84366 0.10848 0.38792 0.00900
C 	C 	0.78712 0.08256 0.38140 -0.04500
C 	C 	0.76660 0.11275 0.38195 -0.03100
C 	C 	0.80244 0.16900 0.38900 -0.01200
C 	C 	0.85873 0.19475 0.39325 -0.03100
C 	C 	0.87930 0.16460 0.39264 -0.04500
C 	C 	0.78222 0.20047 0.39885 0.04700
C 	C 	0.76498 0.22621 0.40943 -0.12200
H 	H 	0.88052 0.00737 0.48788 0.03700
H 	H 	0.83808 0.05417 0.47482 0.03800
H 	H 	0.89885 0.09360 0.31362 0.03800
H 	H 	0.94105 0.04652 0.32648 0.03600
H 	H 	0.75923 0.03922 0.37722 0.03900
H 	H 	0.72303 0.09254 0.37863 0.03600
H 	H 	0.88671 0.23822 0.39877 0.03700
H 	H 	0.92301 0.18498 0.39754 0.04000
C 	C 	0.08856 0.04325 0.44220 -0.00400
C 	C 	0.11340 0.06472 0.39448 -0.03600
C 	C 	0.17004 0.09360 0.39943 -0.04300
C 	C 	0.20227 0.10120 0.45213 0.00700
C 	C 	0.17754 0.08058 0.50020 -0.04200
C 	C 	0.12092 0.05174 0.49527 -0.03600
C 	C 	0.26169 0.12975 0.45654 0.00900
C 	C 	0.29859 0.17864 0.49624 -0.04400
C 	C 	0.35493 0.20623 0.49946 -0.03000
C 	C 	0.37468 0.18510 0.46309 -0.00900
C 	C 	0.33792 0.13595 0.42395 -0.03200
C 	C 	0.28159 0.10832 0.42070 -0.04400
C 	C 	0.43251 0.21509 0.46387 0.04500
C 	C 	0.48085 0.24061 0.46377 -0.10800
H 	H 	0.08874 0.05832 0.35334 0.03600
H 	H 	0.18883 0.10971 0.36223 0.03800
H 	H 	0.20211 0.08631 0.54107 0.04000
H 	H 	0.10210 0.03548 0.53241 0.03800
H 	H 	0.28362 0.19549 0.52409 0.04000
H 	H 	0.38315 0.24428 0.52974 0.04000
H 	H 	0.35293 0.11941 0.39568 0.03600
H 	H 	0.25342 0.07041 0.39021 0.03900
C 	C 	0.84659 0.71908 0.97491 0.00500
C 	C 	0.87446 0.69634 0.96631 -0.03900
C 	C 	0.84738 0.64104 0.96332 -0.03100
C 	C 	0.79232 0.60816 0.96881 -0.00600
C 	C 	0.76429 0.63070 0.97689 -0.03100
C 	C 	0.79132 0.68600 0.97993 -0.04000
C 	C 	0.76488 0.55150 0.96753 0.04700
C 	C 	0.74150 0.50408 0.96699 -0.10400
H 	H 	0.91705 0.72152 0.96205 0.04200
H 	H 	0.86927 0.62386 0.95703 0.04100
H 	H 	0.72170 0.60547 0.98120 0.04100
H 	H 	0.76951 0.70319 0.98665 0.04200
C 	C 	0.77302 0.23121 0.02105 -0.09500
C 	C 	0.74608 0.17664 0.02446 0.01100
C 	C 	0.77558 0.15529 0.02928 -0.07200
C 	C 	0.83227 0.18836 0.03114 0.03000
C 	C 	0.85967 0.24359 0.03167 -0.07300
C 	C 	0.83020 0.26491 0.02662 0.01100
C 	C 	0.86200 0.16440 0.02713 -0.02200
C 	C 	0.88680 0.16725 0.97842 -0.01800
C 	C 	0.91252 0.14219 0.97291 -0.02600
C 	C 	0.91358 0.11404 0.01593 -0.00700
C 	C 	0.88956 0.11175 0.06505 -0.04200
C 	C 	0.86386 0.13689 0.07068 -0.03400
C 	C 	0.93728 0.08561 0.00837 -0.00300
C 	C 	0.95657 0.06134 0.00140 -0.05800
H 	H 	0.70204 0.15021 0.02058 0.02900
H 	H 	0.75409 0.11266 0.02927 0.04300
H 	H 	0.90356 0.26965 0.03417 0.04200
H 	H 	0.85161 0.30730 0.02525 0.02500
H 	H 	0.88536 0.18815 0.94441 0.03500
H 	H 	0.93096 0.14408 0.93480 0.03900
H 	H 	0.89026 0.09007 0.09851 0.03800
H 	H 	0.84504 0.13462 0.10855 0.03700
C 	C 	0.48860 0.21194 0.95137 -0.09700
C 	C 	0.45592 0.16932 0.98055 0.04000
C 	C 	0.39994 0.14509 0.97458 -0.07600
C 	C 	0.37598 0.16299 0.93925 0.03300
C 	C 	0.40788 0.20352 0.90763 -0.07000
C 	C 	0.46387 0.22773 0.91341 0.01600
C 	C 	0.31838 0.14160 0.93830 -0.00400
C 	C 	0.30556 0.17516 0.96289 -0.03200
C 	C 	0.25141 0.15381 0.96686 -0.04500
C 	C 	0.20979 0.09888 0.94620 0.01900
C 	C 	0.22231 0.06564 0.92011 -0.04500
C 	C 	0.27643 0.08691 0.91615 -0.03300
C 	C 	0.15492 0.07582 0.95523 -0.01100
C 	C 	0.10887 0.05521 0.96322 -0.02900
H 	H 	0.47414 0.15623 0.00950 0.01800
H 	H 	0.37550 0.11351 0.99882 0.05300
H 	H 	0.38952 0.21699 0.87950 0.04800
H 	H 	0.48820 0.25961 0.88949 0.03200
H 	H 	0.33768 0.21743 0.98016 0.04000
H 	H 	0.24202 0.17975 0.98704 0.04400
H 	H 	0.19029 0.02313 0.90393 0.04200
H 	H 	0.28589 0.06076 0.89684 0.03800
C 	C 	0.86811 0.75917 0.44853 0.00700
C 	C 	0.88516 0.77637 0.39605 -0.04300
H 	H 	0.85805 0.78177 0.53443 0.04000
H 	H 	0.88218 0.74901 0.36051 0.03800
C 	C 	0.87546 0.77755 0.97922 0.02500
H 	H 	0.82493 0.76958 0.90112 0.04100
C 	C 	0.87133 0.79474 0.49386 -0.04300
C 	C 	0.85935 0.79725 0.93666 -0.04400
H 	H 	0.93241 0.79893 0.05849 0.03800
C 	C 	0.92002 0.81377 0.02512 -0.06000
C 	C 	0.90705 0.82923 0.38978 -0.03600
H 	H 	0.92141 0.84255 0.34971 0.03700
C 	C 	0.89312 0.84761 0.48749 -0.03600
C 	C 	0.88844 0.85274 0.93918 -0.03700
C 	C 	0.91192 0.86529 0.43582 -0.00500
H 	H 	0.87645 0.86760 0.90545 0.04000
C 	C 	0.94911 0.86923 0.02761 -0.05400
H 	H 	0.89686 0.87524 0.52332 0.03700
C 	C 	0.94322 0.99997 0.41861 0.03100
C 	C 	0.94646 0.97631 0.99313 -0.06500
C 	C 	0.96770 0.94710 0.98372 0.03000
C 	C 	0.02129 0.97337 0.97357 -0.08000
H 	H 	0.90497 0.95603 0.00091 0.03600
H 	H 	0.03767 0.95077 0.96606 0.05400
C 	C 	0.91410 0.94523 0.42235 -0.07700
C 	C 	0.94216 0.92276 0.43252 0.03100
C 	C 	0.99928 0.95503 0.43914 -0.07600
H 	H 	0.86987 0.92024 0.41699 0.04900
H 	H 	0.02093 0.93758 0.44674 0.05000
C 	C 	0.93387 0.88892 0.98423 0.01600
H 	H 	0.98398 0.89689 0.06271 0.03700
