data_crystal

_cell_length_a 18.44463
_cell_length_b 15.58624
_cell_length_c 42.57370
_cell_angle_alpha 90.82640
_cell_angle_beta  91.24414
_cell_angle_gamma 111.09656

_symmetry_space_group_name_	'P 1'
_symmetry_space_group_name_H-M	'P 1'

loop_
_symmetry_equiv_pos_as_xyz
  x,y,z

loop_
_atom_site_label
_atom_site_type_symbol
_atom_site_fract_x
_atom_site_fract_y
_atom_site_fract_z
_atom_site_charge
Ni	Ni	0.72336 0.30145 0.89430 1.10500
O 	O 	0.63567 0.25331 0.86056 -0.69900
Ni	Ni	0.54671 0.26472 0.88511 1.10200
O 	O 	0.79981 0.25108 0.87405 -0.35400
O 	O 	0.72216 0.12890 0.84414 -0.38800
O 	O 	0.77484 0.42041 0.86952 -0.35900
Ni	Ni	0.60763 0.12209 0.84959 1.06900
O 	O 	0.78140 0.49117 0.92866 -0.39600
O 	O 	0.60930 0.08868 0.89594 -0.39100
O 	O 	0.46090 0.21173 0.85198 -0.37800
O 	O 	0.63661 0.32147 0.91667 -0.70900
O 	O 	0.80446 0.35623 0.92932 -0.35300
O 	O 	0.47136 0.29925 0.91297 -0.34400
O 	O 	0.55104 0.44963 0.91537 -0.39700
Ni	Ni	0.66427 0.45481 0.92140 1.08000
H 	H 	0.64509 0.29137 0.84159 0.15100
H 	H 	0.62755 0.29101 0.93713 0.20200
C 	C 	0.55616 0.09383 0.91530 0.31300
O 	O 	0.67671 0.47548 0.87457 -0.41900
C 	C 	0.78532 0.20368 0.84743 0.28100
C 	C 	0.44934 0.13230 0.83793 0.29100
C 	C 	0.74047 0.47775 0.86115 0.29700
C 	C 	0.49245 0.38154 0.92616 0.32700
C 	C 	0.81555 0.43841 0.94151 0.33300
O 	O 	0.51105 0.14015 0.90770 -0.35500
O 	O 	0.48830 0.08036 0.84744 -0.39800
Ni	Ni	0.59916 0.32507 0.56467 1.10300
O 	O 	0.69026 0.33836 0.53600 -0.69800
Ni	Ni	0.75734 0.29065 0.56289 1.10200
O 	O 	0.55822 0.41077 0.53951 -0.35300
O 	O 	0.67930 0.51980 0.53916 -0.39900
O 	O 	0.52691 0.21829 0.53646 -0.35100
Ni	Ni	0.75162 0.45886 0.52016 1.09100
O 	O 	0.48995 0.14556 0.59367 -0.38600
O 	O 	0.83702 0.52311 0.55353 -0.38800
O 	O 	0.85684 0.32242 0.53677 -0.36100
O 	O 	0.66095 0.26610 0.58959 -0.70100
O 	O 	0.50994 0.30003 0.59472 -0.37200
O 	O 	0.80079 0.22128 0.59431 -0.38000
O 	O 	0.69191 0.09173 0.58800 -0.39300
Ni	Ni	0.59780 0.13527 0.59125 1.06800
H 	H 	0.67155 0.29669 0.51756 0.19200
H 	H 	0.67391 0.29427 0.61095 0.15200
C 	C 	0.85887 0.48359 0.57716 0.29900
O 	O 	0.58720 0.11521 0.54384 -0.39100
C 	C 	0.60593 0.49057 0.53007 0.32700
C 	C 	0.87396 0.37940 0.51279 0.32300
C 	C 	0.54482 0.14848 0.52633 0.33000
C 	C 	0.76069 0.13539 0.60142 0.27900
C 	C 	0.47491 0.21647 0.60552 0.27700
O 	O 	0.80919 0.40889 0.58911 -0.39800
O 	O 	0.81991 0.40211 0.49808 -0.38200
Ni	Ni	0.99119 0.94267 0.75009 1.08700
O 	O 	0.01151 0.84894 0.72140 -0.70400
Ni	Ni	0.05764 0.92538 0.68466 1.09900
O 	O 	0.94419 0.84337 0.78283 -0.36900
O 	O 	0.85409 0.75583 0.74672 -0.41500
O 	O 	0.09875 0.97805 0.77380 -0.36900
Ni	Ni	0.91280 0.75781 0.70552 1.06100
O 	O 	0.07384 0.15205 0.76676 -0.42000
O 	O 	0.86872 0.85268 0.68865 -0.42300
O 	O 	0.08001 0.82356 0.66083 -0.38200
O 	O 	0.02377 0.01774 0.71057 -0.66800
O 	O 	0.96293 0.03282 0.77717 -0.39900
O 	O 	0.12769 0.01721 0.65385 -0.36200
O 	O 	0.15052 0.15676 0.67718 -0.40500
Ni	Ni	0.10548 0.13559 0.72186 1.06900
H 	H 	0.04666 0.82054 0.73092 0.16200
H 	H 	0.97899 0.03013 0.70140 0.13700
C 	C 	0.89732 0.89977 0.66359 0.29500
O 	O 	0.17053 0.06035 0.73385 -0.43700
C 	C 	0.88892 0.76500 0.77446 0.27900
C 	C 	0.02235 0.74335 0.65645 0.30400
C 	C 	0.16692 0.02724 0.76200 0.29500
C 	C 	0.17662 0.09861 0.66312 0.29200
C 	C 	0.00087 0.12127 0.77554 0.32300
O 	O 	0.96519 0.90345 0.65396 -0.38500
O 	O 	0.95017 0.73566 0.66248 -0.42100
Ni	Ni	0.23718 0.68620 0.39478 1.10500
O 	O 	0.32570 0.74492 0.36477 -0.70300
Ni	Ni	0.41649 0.74324 0.39028 1.10500
O 	O 	0.15818 0.69460 0.36170 -0.35900
O 	O 	0.22317 0.84918 0.35511 -0.39400
O 	O 	0.23567 0.56987 0.37193 -0.40300
Ni	Ni	0.34235 0.87069 0.35395 1.06600
O 	O 	0.22079 0.59744 0.46514 -0.38300
O 	O 	0.35408 0.91652 0.39974 -0.39300
O 	O 	0.49600 0.79031 0.35645 -0.37400
O 	O 	0.33013 0.70128 0.42240 -0.69800
O 	O 	0.14620 0.61640 0.42342 -0.35200
O 	O 	0.49538 0.70920 0.41725 -0.35100
O 	O 	0.40559 0.56583 0.42211 -0.41100
Ni	Ni	0.31194 0.58406 0.44308 1.08400
H 	H 	0.32056 0.70782 0.34520 0.15600
H 	H 	0.33589 0.74952 0.43861 0.18600
C 	C 	0.41435 0.92105 0.41766 0.32600
O 	O 	0.23405 0.48369 0.41496 -0.39300
C 	C 	0.16636 0.77091 0.34684 0.27300
C 	C 	0.50389 0.86672 0.34145 0.27900
C 	C 	0.22264 0.49029 0.38472 0.32000
C 	C 	0.47568 0.62576 0.42817 0.32200
C 	C 	0.15244 0.57922 0.45081 0.32700
O 	O 	0.45782 0.87301 0.41047 -0.35400
O 	O 	0.46152 0.91731 0.34894 -0.38700
Ni	Ni	0.37577 0.69970 0.05994 1.10000
O 	O 	0.27353 0.66206 0.03418 -0.70100
Ni	Ni	0.21590 0.72890 0.05804 1.10200
O 	O 	0.41691 0.61472 0.03443 -0.34600
O 	O 	0.30741 0.48950 0.04024 -0.39100
O 	O 	0.43382 0.79906 0.02801 -0.35100
Ni	Ni	0.21250 0.52993 0.03691 1.08400
O 	O 	0.48730 0.88954 0.08315 -0.38800
O 	O 	0.21612 0.53629 0.08462 -0.41500
O 	O 	0.11882 0.68742 0.02952 -0.35400
O 	O 	0.31689 0.76392 0.08485 -0.69800
O 	O 	0.47360 0.73950 0.08790 -0.37100
O 	O 	0.17450 0.81834 0.08037 -0.35500
O 	O 	0.28639 0.94079 0.08761 -0.38800
Ni	Ni	0.37931 0.89663 0.08418 1.07200
H 	H 	0.28068 0.68171 0.01213 0.19600
H 	H 	0.30828 0.74112 0.10655 0.15100
C 	C 	0.16567 0.56159 0.09939 0.29600
O 	O 	0.37079 0.89921 0.03654 -0.39900
C 	C 	0.37078 0.53203 0.02518 0.33100
C 	C 	0.08665 0.60053 0.02042 0.32900
C 	C 	0.41378 0.86826 0.01882 0.32900
C 	C 	0.21912 0.88777 0.09803 0.27800
C 	C 	0.50619 0.82585 0.09729 0.28200
O 	O 	0.15336 0.63621 0.09099 -0.36000
O 	O 	0.10428 0.53670 0.03523 -0.39200
Ni	Ni	0.95867 0.03564 0.26695 1.09400
O 	O 	0.97678 0.14434 0.23846 -0.72200
Ni	Ni	0.92875 0.08084 0.19854 1.09600
O 	O 	0.01099 0.12412 0.30334 -0.35600
O 	O 	0.12130 0.18062 0.27502 -0.41200
O 	O 	0.85062 0.03681 0.27829 -0.37600
Ni	Ni	0.08669 0.20892 0.23060 1.06800
O 	O 	0.85949 0.81012 0.26967 -0.42100
O 	O 	0.10922 0.09788 0.21265 -0.40900
O 	O 	0.93949 0.19861 0.17552 -0.38900
O 	O 	0.92985 0.96961 0.22466 -0.69700
O 	O 	0.94443 0.93204 0.29674 -0.39900
O 	O 	0.85354 0.00776 0.16319 -0.37200
O 	O 	0.80345 0.86212 0.18078 -0.40600
Ni	Ni	0.83726 0.85686 0.22723 1.06800
H 	H 	0.95109 0.18662 0.24575 0.15900
H 	H 	0.97361 0.95010 0.21962 0.13400
C 	C 	0.07829 0.05906 0.18552 0.29500
O 	O 	0.77085 0.92623 0.24400 -0.41500
C 	C 	0.08203 0.18314 0.30029 0.28500
C 	C 	0.00833 0.26687 0.17598 0.29600
C 	C 	0.78372 0.96872 0.27173 0.28400
C 	C 	0.79298 0.93352 0.16847 0.28600
C 	C 	0.92555 0.84864 0.28558 0.28900
O 	O 	0.02017 0.07681 0.17293 -0.36700
O 	O 	0.07165 0.25338 0.18663 -0.40200
C 	C 	0.06199 0.40812 0.10431 -0.03700
C 	C 	0.10734 0.49314 0.11832 -0.07400
C 	C 	0.10064 0.50882 0.15066 0.07600
C 	C 	0.05660 0.43520 0.16921 -0.03300
C 	C 	0.02000 0.34665 0.15580 -0.09400
C 	C 	0.01714 0.33511 0.12275 0.11700
C 	C 	0.97118 0.24335 0.10727 -0.22500
H 	H 	0.06410 0.39761 0.07917 0.05500
H 	H 	0.05619 0.44502 0.19447 0.02700
C 	C 	0.14362 0.60198 0.16580 -0.19200
H 	H 	0.96813 0.24839 0.08130 0.08700
H 	H 	0.91062 0.21812 0.11559 0.10400
H 	H 	0.99881 0.19259 0.11290 0.09300
H 	H 	0.12779 0.65544 0.15353 0.08000
H 	H 	0.20730 0.61864 0.16451 0.05900
H 	H 	0.12905 0.60421 0.19091 0.06100
C 	C 	0.65706 0.92459 0.16243 -0.03300
C 	C 	0.72265 0.91584 0.14888 -0.09400
C 	C 	0.71727 0.87869 0.11807 0.09500
C 	C 	0.64532 0.84721 0.10181 -0.03500
C 	C 	0.57939 0.85413 0.11562 -0.07400
C 	C 	0.58520 0.89392 0.14601 0.06400
C 	C 	0.51497 0.90333 0.16101 -0.18200
H 	H 	0.66157 0.95320 0.18608 0.03500
H 	H 	0.64070 0.81812 0.07822 0.06700
C 	C 	0.78779 0.87151 0.10263 -0.20200
H 	H 	0.52779 0.92936 0.18572 0.05800
H 	H 	0.46681 0.83538 0.16116 0.04600
H 	H 	0.49561 0.95226 0.14763 0.04300
H 	H 	0.80881 0.82353 0.11574 0.08500
H 	H 	0.83468 0.94034 0.10224 0.08700
H 	H 	0.77463 0.84532 0.07795 0.08300
C 	C 	0.10224 0.89970 0.12256 -0.04500
C 	C 	0.18304 0.92306 0.12341 -0.07600
C 	C 	0.22781 0.97751 0.14894 0.06000
C 	C 	0.19246 0.01947 0.17009 -0.02500
C 	C 	0.11207 0.00051 0.16786 -0.09400
C 	C 	0.06602 0.93297 0.14569 0.09000
C 	C 	0.97846 0.89683 0.14603 -0.20800
H 	H 	0.06708 0.85491 0.10389 0.07200
H 	H 	0.22775 0.06795 0.18787 0.04400
C 	C 	0.31253 0.99108 0.15390 -0.19700
H 	H 	0.95352 0.82793 0.13426 0.07100
H 	H 	0.95608 0.94412 0.13327 0.08700
H 	H 	0.95772 0.88835 0.17036 0.05000
H 	H 	0.34845 0.04495 0.13809 0.07200
H 	H 	0.32239 0.92583 0.14930 0.03000
H 	H 	0.33241 0.01312 0.17853 0.06600
C 	C 	0.64553 0.95610 0.27588 -0.02800
C 	C 	0.71554 0.96066 0.29095 -0.09200
C 	C 	0.71711 0.94679 0.32369 0.09300
C 	C 	0.64796 0.92362 0.34034 -0.03800
C 	C 	0.57693 0.91087 0.32470 -0.06600
C 	C 	0.57600 0.93049 0.29246 0.06200
C 	C 	0.50087 0.92082 0.27538 -0.18200
H 	H 	0.64466 0.96939 0.25096 0.04100
H 	H 	0.64879 0.91138 0.36534 0.07400
C 	C 	0.79114 0.95159 0.34068 -0.21700
H 	H 	0.51026 0.94064 0.25041 0.05700
H 	H 	0.47389 0.96604 0.28677 0.05600
H 	H 	0.46009 0.84829 0.27586 0.04800
H 	H 	0.83583 0.02158 0.33903 0.10700
H 	H 	0.81295 0.90019 0.33025 0.09000
H 	H 	0.78192 0.93644 0.36602 0.08900
C 	C 	0.12499 0.40817 0.34369 -0.02000
C 	C 	0.18290 0.40701 0.36542 -0.09000
C 	C 	0.20740 0.33080 0.36585 0.09000
C 	C 	0.17183 0.25621 0.34495 -0.03600
C 	C 	0.11425 0.25824 0.32328 -0.08600
C 	C 	0.09018 0.33427 0.32278 0.06700
C 	C 	0.02903 0.33811 0.29925 -0.16000
H 	H 	0.10798 0.46787 0.34273 0.06400
H 	H 	0.18991 0.19726 0.34514 0.05100
C 	C 	0.27221 0.32938 0.38785 -0.20600
H 	H 	0.01697 0.40270 0.30187 0.07000
H 	H 	0.97373 0.27961 0.30260 0.06100
H 	H 	0.04896 0.33472 0.27499 0.02000
H 	H 	0.25239 0.32298 0.41243 0.09600
H 	H 	0.32397 0.39329 0.38573 0.09000
H 	H 	0.29061 0.27045 0.38240 0.08600
C 	C 	0.02726 0.75384 0.34355 -0.02500
C 	C 	0.09856 0.77454 0.32870 -0.07300
C 	C 	0.10314 0.79360 0.29634 0.05800
C 	C 	0.03867 0.80202 0.28029 -0.01600
C 	C 	0.97086 0.79367 0.29636 -0.12300
C 	C 	0.96269 0.76100 0.32732 0.08400
C 	C 	0.88792 0.74299 0.34423 -0.20200
H 	H 	0.02258 0.73456 0.36801 0.06400
H 	H 	0.04386 0.82366 0.25608 0.01600
C 	C 	0.17728 0.80878 0.27920 -0.18000
H 	H 	0.88102 0.69138 0.36276 0.08200
H 	H 	0.83703 0.71545 0.32769 0.08700
H 	H 	0.88817 0.80792 0.35538 0.08300
H 	H 	0.19783 0.75100 0.28337 0.04800
H 	H 	0.22276 0.87418 0.28765 0.04400
H 	H 	0.16872 0.81273 0.25342 0.05600
C 	C 	0.55470 0.10021 0.47092 0.10600
C 	C 	0.50852 0.09942 0.49694 -0.10400
C 	C 	0.42810 0.04708 0.49532 0.11500
C 	C 	0.39540 0.99104 0.46858 0.09600
C 	C 	0.44209 0.99241 0.44266 -0.11300
C 	C 	0.51976 0.05370 0.44297 0.11900
Br	Br	0.57732 0.07666 0.40474 -0.16900
Br	Br	0.66638 0.15529 0.47448 -0.19500
Br	Br	0.28798 0.90956 0.46811 -0.21400
Br	Br	0.36367 0.04829 0.53033 -0.18100
C 	C 	0.01886 0.45433 0.44967 0.11600
C 	C 	0.08081 0.52154 0.46687 -0.10400
C 	C 	0.07779 0.52520 0.50006 0.09700
C 	C 	0.01755 0.45834 0.51545 0.11400
C 	C 	0.95066 0.40395 0.49834 -0.12000
C 	C 	0.95442 0.39520 0.46559 0.08900
Br	Br	0.87305 0.29860 0.44293 -0.16400
Br	Br	0.02004 0.44369 0.40458 -0.18900
Br	Br	0.03431 0.42770 0.55781 -0.21200
Br	Br	0.14765 0.62877 0.52414 -0.19600
C 	C 	0.55597 0.60729 0.50877 0.10700
C 	C 	0.58231 0.53429 0.50344 -0.12600
C 	C 	0.58464 0.50179 0.47255 0.09600
C 	C 	0.55645 0.53883 0.44725 0.10400
C 	C 	0.52386 0.60621 0.45286 -0.12000
C 	C 	0.52621 0.64297 0.48351 0.09000
Br	Br	0.48492 0.73878 0.49106 -0.23300
Br	Br	0.55902 0.65670 0.55078 -0.20500
Br	Br	0.56124 0.49649 0.40481 -0.20100
Br	Br	0.62442 0.40480 0.46500 -0.27000
C 	C 	0.90918 0.03777 0.63247 -0.03800
C 	C 	0.86170 0.96275 0.64960 -0.10500
C 	C 	0.78147 0.94767 0.65187 0.07000
C 	C 	0.75194 0.01066 0.63843 -0.03000
C 	C 	0.79832 0.08143 0.61947 -0.09400
C 	C 	0.87727 0.09267 0.61552 0.08200
C 	C 	0.92742 0.16034 0.59266 -0.20000
H 	H 	0.97099 0.05140 0.63132 0.04500
H 	H 	0.69152 0.00202 0.64153 0.02800
C 	C 	0.72652 0.86422 0.66768 -0.19100
H 	H 	0.98203 0.14785 0.58829 0.07600
H 	H 	0.94376 0.23140 0.60235 0.08700
H 	H 	0.89656 0.15375 0.56955 0.09900
H 	H 	0.73651 0.87187 0.69355 0.07300
H 	H 	0.73453 0.80080 0.65897 0.08000
H 	H 	0.66484 0.85526 0.66259 0.06700
C 	C 	0.33735 0.20607 0.60585 -0.03800
C 	C 	0.40131 0.19701 0.62197 -0.06800
C 	C 	0.39203 0.15983 0.65233 0.06300
C 	C 	0.31797 0.12785 0.66541 -0.03300
C 	C 	0.25366 0.13453 0.64893 -0.09500
C 	C 	0.26343 0.17510 0.61910 0.09800
C 	C 	0.19507 0.18341 0.60103 -0.20600
H 	H 	0.34463 0.23460 0.58254 0.07100
H 	H 	0.31026 0.09699 0.68836 0.03600
C 	C 	0.46035 0.15183 0.67048 -0.18300
H 	H 	0.21274 0.21873 0.57844 0.08900
H 	H 	0.16802 0.22386 0.61510 0.08900
H 	H 	0.15121 0.11393 0.59569 0.09700
H 	H 	0.51069 0.21783 0.67015 0.04800
H 	H 	0.47693 0.09637 0.65979 0.04900
H 	H 	0.44647 0.13540 0.69546 0.05900
C 	C 	0.00210 0.58234 0.64516 -0.00600
C 	C 	0.03187 0.67358 0.63527 -0.11200
C 	C 	0.03337 0.68894 0.60275 0.13600
C 	C 	0.98118 0.62167 0.58268 -0.06400
C 	C 	0.93223 0.53782 0.59489 -0.05800
C 	C 	0.95072 0.51346 0.62523 0.05500
C 	C 	0.91955 0.41562 0.63600 -0.18300
H 	H 	0.00986 0.56756 0.66955 0.02400
H 	H 	0.97570 0.63647 0.55812 0.06800
C 	C 	0.08077 0.78142 0.59017 -0.22300
H 	H 	0.95743 0.40460 0.65496 0.05700
H 	H 	0.91809 0.36762 0.61635 0.09000
H 	H 	0.86043 0.39926 0.64530 0.06800
H 	H 	0.13769 0.81041 0.60306 0.10500
H 	H 	0.04881 0.82927 0.59282 0.10400
H 	H 	0.09256 0.77566 0.56490 0.10600
C 	C 	0.87766 0.48133 0.99462 0.09500
C 	C 	0.88442 0.48272 0.96178 -0.10700
C 	C 	0.95603 0.53259 0.94830 0.09300
C 	C 	0.02171 0.57744 0.96775 0.10900
C 	C 	0.01587 0.57189 0.00058 -0.09600
C 	C 	0.94325 0.52682 0.01404 0.09300
Br	Br	0.93391 0.52827 0.05911 -0.19900
Br	Br	0.77856 0.41672 0.01289 -0.18600
Br	Br	0.12028 0.64481 0.94951 -0.18300
Br	Br	0.96397 0.53888 0.90318 -0.18800
C 	C 	0.55601 0.06000 0.97244 0.09700
C 	C 	0.53303 0.02868 0.94141 -0.09000
C 	C 	0.47834 0.93933 0.93585 0.09900
C 	C 	0.43790 0.88749 0.96110 0.10500
C 	C 	0.45427 0.92384 0.99209 -0.11300
C 	C 	0.51376 0.01062 0.99769 0.12200
Br	Br	0.53601 0.06365 0.03958 -0.19900
Br	Br	0.65168 0.16215 0.98044 -0.20000
Br	Br	0.35799 0.76885 0.95301 -0.18500
Br	Br	0.46412 0.88514 0.89420 -0.22000
C 	C 	0.38664 0.42843 0.94625 0.11000
C 	C 	0.44899 0.39883 0.95232 -0.11200
C 	C 	0.47831 0.40153 0.98327 0.09200
C 	C 	0.45265 0.44521 0.00733 0.11100
C 	C 	0.39509 0.48227 0.00064 -0.11700
C 	C 	0.35883 0.46903 0.97057 0.10400
Br	Br	0.27110 0.50624 0.96283 -0.24400
Br	Br	0.34078 0.41512 0.90448 -0.17800
Br	Br	0.49586 0.45394 0.04946 -0.18100
Br	Br	0.55313 0.34483 0.99258 -0.21700
C 	C 	0.92033 0.20528 0.84298 -0.04000
C 	C 	0.85280 0.20941 0.82824 -0.06700
C 	C 	0.84935 0.21506 0.79521 0.05900
C 	C 	0.90774 0.20146 0.77731 -0.02500
C 	C 	0.96912 0.18284 0.79209 -0.12500
C 	C 	0.97973 0.19482 0.82500 0.09200
C 	C 	0.05007 0.18619 0.84127 -0.19600
H 	H 	0.92512 0.20593 0.86842 0.06600
H 	H 	0.90150 0.19683 0.75188 0.01600
C 	C 	0.78192 0.23055 0.77887 -0.18000
H 	H 	0.05971 0.21878 0.86514 0.09600
H 	H 	0.10306 0.22110 0.82774 0.09700
H 	H 	0.04187 0.11239 0.84344 0.10100
H 	H 	0.76715 0.28466 0.79151 0.04900
H 	H 	0.73052 0.16555 0.77804 0.04900
H 	H 	0.79609 0.25368 0.75445 0.05300
C 	C 	0.37392 0.15354 0.79223 -0.02800
C 	C 	0.38228 0.09513 0.81553 -0.10600
C 	C 	0.31919 0.01249 0.82123 0.12300
C 	C 	0.24921 0.99065 0.80341 -0.07500
C 	C 	0.23951 0.05298 0.78171 -0.06600
C 	C 	0.30145 0.13804 0.77764 0.06800
C 	C 	0.29008 0.21468 0.75926 -0.18400
H 	H 	0.42235 0.21631 0.78764 0.03300
H 	H 	0.20231 0.92545 0.80659 0.06300
C 	C 	0.32623 0.94688 0.84570 -0.23100
H 	H 	0.33457 0.28248 0.76626 0.06800
H 	H 	0.23259 0.21936 0.76383 0.04900
H 	H 	0.29551 0.20331 0.73377 0.05900
H 	H 	0.34415 0.98314 0.86883 0.11700
H 	H 	0.36963 0.91703 0.83831 0.10400
H 	H 	0.27013 0.88930 0.84879 0.09900
C 	C 	0.80712 0.53073 0.81112 -0.02600
C 	C 	0.77980 0.55255 0.83948 -0.08900
C 	C 	0.79477 0.64603 0.84774 0.09300
C 	C 	0.83211 0.71504 0.82646 -0.03800
C 	C 	0.85740 0.69274 0.79775 -0.08000
C 	C 	0.84748 0.60022 0.79053 0.06300
C 	C 	0.87854 0.57491 0.76068 -0.17800
H 	H 	0.79725 0.45947 0.80513 0.03600
H 	H 	0.84056 0.78614 0.83209 0.05500
C 	C 	0.77151 0.67290 0.87908 -0.20500
H 	H 	0.88192 0.50527 0.76193 0.05700
H 	H 	0.93815 0.62427 0.75660 0.03200
H 	H 	0.83969 0.57530 0.74044 0.03100
H 	H 	0.79273 0.64038 0.89842 0.08300
H 	H 	0.70731 0.65171 0.87967 0.07800
H 	H 	0.79700 0.74848 0.88346 0.08100
