data_crystal

_cell_length_a 18.53658
_cell_length_b 18.99638
_cell_length_c 33.46954
_cell_angle_alpha 95.43032
_cell_angle_beta  95.43109
_cell_angle_gamma 126.43397

_symmetry_space_group_name_	'P 1'
_symmetry_space_group_name_H-M	'P 1'

loop_
_symmetry_equiv_pos_as_xyz
  x,y,z

loop_
_atom_site_label
_atom_site_type_symbol
_atom_site_fract_x
_atom_site_fract_y
_atom_site_fract_z
_atom_site_charge
C 	C 	0.87594 0.96920 0.95704 0.05700
C 	C 	0.82733 0.87777 0.95861 -0.07000
C 	C 	0.87238 0.83849 0.95764 0.06300
C 	C 	0.96472 0.89034 0.95466 -0.07700
C 	C 	0.01339 0.98128 0.95440 0.06900
C 	C 	0.96879 0.02026 0.95473 -0.07500
H 	H 	0.75603 0.83825 0.96127 0.07400
H 	H 	0.99958 0.86043 0.95394 0.07400
H 	H 	0.00705 0.09099 0.95471 0.07900
C 	C 	0.97005 0.05991 0.50304 0.05900
C 	C 	0.91206 0.96782 0.50191 -0.07100
C 	C 	0.94731 0.91999 0.50145 0.06000
C 	C 	0.04019 0.96377 0.50168 -0.06800
C 	C 	0.09873 0.05583 0.50339 0.06600
C 	C 	0.06378 0.10424 0.50421 -0.06000
H 	H 	0.83972 0.93350 0.50123 0.07200
H 	H 	0.06714 0.92632 0.50100 0.07300
H 	H 	0.10890 0.17555 0.50525 0.07700
Cu	Cu	0.73067 0.31722 0.95397 0.92800
Cu	Cu	0.73499 0.26948 0.04540 0.87800
Cu	Cu	0.58498 0.26930 0.00579 0.90100
Cu	Cu	0.55076 0.29258 0.91846 0.91100
C 	C 	0.67930 0.29765 0.86785 0.26600
O 	O 	0.77999 0.44517 0.94909 -0.34800
C 	C 	0.65138 0.31779 0.09597 0.25800
O 	O 	0.58807 0.23877 0.94988 -0.63300
O 	O 	0.72016 0.33810 0.01138 -0.64000
O 	O 	0.79435 0.26098 0.96107 -0.34700
O 	O 	0.70378 0.17551 0.00396 -0.42700
O 	O 	0.60024 0.28297 0.86917 -0.33800
O 	O 	0.45314 0.19528 0.99658 -0.36600
C 	C 	0.40137 0.19020 0.96470 0.30900
C 	C 	0.73157 0.47411 0.95470 0.30000
O 	O 	0.64729 0.41894 0.95983 -0.37400
O 	O 	0.43675 0.24770 0.93980 -0.36300
O 	O 	0.71768 0.28093 0.89681 -0.33200
C 	C 	0.75837 0.19001 0.97825 0.30300
O 	O 	0.58161 0.28002 0.06512 -0.35400
O 	O 	0.72880 0.33345 0.09047 -0.39900
H 	H 	0.55358 0.17398 0.94005 0.18500
H 	H 	0.75423 0.40161 0.02398 0.17800
Cu	Cu	0.64590 0.23206 0.51298 0.93100
Cu	Cu	0.69580 0.23110 0.42155 0.87800
Cu	Cu	0.68486 0.37077 0.46060 0.90200
Cu	Cu	0.65257 0.39690 0.54542 0.90200
C 	C 	0.69629 0.30574 0.59891 0.25800
O 	O 	0.51501 0.17814 0.51828 -0.33800
C 	C 	0.63925 0.30709 0.37047 0.25800
O 	O 	0.71833 0.37045 0.51652 -0.63800
O 	O 	0.62172 0.23990 0.45529 -0.63800
O 	O 	0.70350 0.17169 0.50515 -0.35100
O 	O 	0.79192 0.26255 0.46332 -0.42900
O 	O 	0.65221 0.33965 0.59250 -0.35400
O 	O 	0.75274 0.49855 0.46984 -0.36100
C 	C 	0.74756 0.54612 0.49926 0.31100
C 	C 	0.47779 0.21618 0.50719 0.30000
O 	O 	0.52951 0.29835 0.50129 -0.38200
O 	O 	0.69474 0.50945 0.52639 -0.38000
O 	O 	0.68737 0.24701 0.57015 -0.31400
C 	C 	0.77690 0.20860 0.48868 0.30700
O 	O 	0.67336 0.37405 0.40132 -0.34500
O 	O 	0.62796 0.23369 0.37611 -0.39800
H 	H 	0.78497 0.40928 0.52707 0.17400
H 	H 	0.55638 0.20298 0.44237 0.18000
C 	C 	0.72535 0.35037 0.77156 0.12800
C 	C 	0.76585 0.40409 0.74260 -0.08300
C 	C 	0.77324 0.36624 0.70655 0.02300
C 	C 	0.73803 0.27752 0.69873 0.12000
C 	C 	0.69986 0.22472 0.72848 -0.07400
C 	C 	0.69185 0.26282 0.76413 0.01700
O 	O 	0.73875 0.38472 0.81236 -0.17400
C 	C 	0.71093 0.30896 0.82880 0.06200
C 	C 	0.68596 0.23692 0.80032 -0.04700
O 	O 	0.71355 0.24078 0.65731 -0.16200
C 	C 	0.73505 0.31504 0.64118 0.06200
C 	C 	0.77112 0.38999 0.67024 -0.06000
H 	H 	0.79104 0.47288 0.74796 0.08000
H 	H 	0.67304 0.15544 0.72302 0.08300
H 	H 	0.64716 0.16847 0.80466 0.07600
H 	H 	0.76889 0.44433 0.66533 0.06000
C 	C 	0.60368 0.27477 0.19248 0.12000
C 	C 	0.55526 0.23124 0.22284 -0.08300
C 	C 	0.60076 0.27073 0.26359 0.01300
C 	C 	0.68228 0.35438 0.27401 0.11900
C 	C 	0.72668 0.40163 0.24363 -0.08200
C 	C 	0.68819 0.35595 0.20294 0.01200
O 	O 	0.56482 0.25146 0.15137 -0.18200
C 	C 	0.63640 0.32620 0.13793 0.04700
C 	C 	0.70790 0.39122 0.16921 -0.05300
O 	O 	0.70504 0.39239 0.31504 -0.17900
C 	C 	0.62960 0.32109 0.32847 0.05100
C 	C 	0.56441 0.25029 0.29720 -0.05300
H 	H 	0.48569 0.17062 0.21512 0.07800
H 	H 	0.78731 0.47037 0.25126 0.07600
H 	H 	0.77582 0.44493 0.16530 0.06100
H 	H 	0.51125 0.18336 0.30117 0.06300
C 	C 	0.83373 0.76347 0.46538 -0.07100
C 	C 	0.88768 0.82426 0.50198 0.00100
C 	C 	0.89274 0.79326 0.53794 0.05800
C 	C 	0.84701 0.70213 0.53656 -0.00600
C 	C 	0.79510 0.64138 0.49974 -0.09100
C 	C 	0.78668 0.67206 0.46411 0.12100
N 	N 	0.72904 0.61053 0.42687 -0.02200
H 	H 	0.82919 0.78732 0.43778 0.08100
H 	H 	0.85209 0.67852 0.56416 0.05600
N 	N 	0.94572 0.85454 0.57578 -0.02000
O 	O 	0.64165 0.55251 0.42519 -0.08900
O 	O 	0.76287 0.61686 0.39390 -0.08400
O 	O 	0.92791 0.90736 0.59062 -0.09700
O 	O 	0.00862 0.85431 0.59645 -0.09300
C 	C 	0.90334 0.12722 0.53501 -0.07200
C 	C 	0.93136 0.10865 0.50070 0.00200
C 	C 	0.91489 0.12957 0.46332 0.05800
C 	C 	0.86717 0.16517 0.46013 -0.00700
C 	C 	0.83521 0.17990 0.49393 -0.09700
C 	C 	0.85656 0.16399 0.53200 0.12100
N 	N 	0.83384 0.18801 0.56789 -0.02200
H 	H 	0.91766 0.11287 0.56403 0.08000
H 	H 	0.85226 0.17853 0.43092 0.04500
N 	N 	0.94492 0.11296 0.42826 -0.02000
O 	O 	0.78410 0.12826 0.58936 -0.07900
O 	O 	0.86894 0.27091 0.58089 -0.09200
O 	O 	0.90876 0.03159 0.41130 -0.09100
O 	O 	0.00385 0.17883 0.41165 -0.08100
C 	C 	0.32832 0.16954 0.47149 -0.00700
C 	C 	0.37973 0.17055 0.50544 -0.09200
C 	C 	0.33947 0.13713 0.53940 0.11800
C 	C 	0.24849 0.10273 0.53896 -0.07000
C 	C 	0.19691 0.10117 0.50492 0.00100
C 	C 	0.23699 0.13442 0.47091 0.06200
N 	N 	0.18489 0.13182 0.43558 -0.01800
H 	H 	0.35927 0.19586 0.44544 0.06000
H 	H 	0.21768 0.07678 0.56509 0.08200
N 	N 	0.39165 0.14064 0.57492 -0.02300
O 	O 	0.21119 0.20532 0.42337 -0.08500
O 	O 	0.11485 0.05567 0.41405 -0.08200
O 	O 	0.45179 0.21609 0.59981 -0.09200
O 	O 	0.37311 0.06735 0.58435 -0.08000
C 	C 	0.76252 0.67747 0.92601 -0.06700
C 	C 	0.82412 0.74319 0.96027 0.00100
C 	C 	0.85503 0.71974 0.99296 0.06200
C 	C 	0.82972 0.63310 0.98955 -0.00700
C 	C 	0.77073 0.56831 0.95460 -0.08600
C 	C 	0.73572 0.59043 0.92299 0.11300
N 	N 	0.67342 0.52476 0.88754 -0.03000
H 	H 	0.73869 0.69489 0.90075 0.07400
H 	H 	0.85344 0.61549 0.01476 0.05400
N 	N 	0.91271 0.78408 0.02956 -0.01800
O 	O 	0.59419 0.50725 0.87700 -0.10100
O 	O 	0.69867 0.48766 0.86405 -0.09400
O 	O 	0.88966 0.82928 0.04817 -0.07700
O 	O 	0.98658 0.79514 0.04509 -0.09300
C 	C 	0.81406 0.04344 0.92758 -0.07100
C 	C 	0.83257 0.01410 0.96135 0.00400
C 	C 	0.82492 0.04137 0.00033 0.05900
C 	C 	0.80155 0.09926 0.00541 -0.00900
C 	C 	0.78553 0.13076 0.97191 -0.09000
C 	C 	0.78965 0.10075 0.93257 0.11800
N 	N 	0.76635 0.12579 0.89746 -0.02200
H 	H 	0.81974 0.02268 0.89749 0.07500
H 	H 	0.79724 0.12084 0.03566 0.04600
N 	N 	0.84293 0.01205 0.03511 -0.01800
O 	O 	0.82641 0.16975 0.87474 -0.08900
O 	O 	0.68299 0.09806 0.88627 -0.09500
O 	O 	0.92587 0.04161 0.04935 -0.07600
O 	O 	0.77758 0.96114 0.05435 -0.09400
C 	C 	0.14813 0.03378 0.92219 -0.06100
C 	C 	0.11278 0.03689 0.95693 -0.00200
C 	C 	0.17227 0.08816 0.99461 0.06800
C 	C 	0.26655 0.13662 0.99707 -0.00500
C 	C 	0.30207 0.13355 0.96233 -0.08300
C 	C 	0.24236 0.08103 0.92475 0.11300
N 	N 	0.27711 0.07399 0.88936 -0.02500
H 	H 	0.10221 0.99301 0.89336 0.07300
H 	H 	0.31222 0.17726 0.02597 0.07100
N 	N 	0.13700 0.09073 0.03050 -0.01900
O 	O 	0.32594 0.04551 0.89037 -0.10800
O 	O 	0.25445 0.08989 0.85531 -0.09200
O 	O 	0.08887 0.01944 0.04615 -0.06700
O 	O 	0.15846 0.16578 0.04915 -0.08500
