data_crystal

_cell_length_a 25.89859
_cell_length_b 26.83542
_cell_length_c 36.75481
_cell_angle_alpha 95.49117
_cell_angle_beta  95.48928
_cell_angle_gamma 125.84338

_symmetry_space_group_name_	'P 1'
_symmetry_space_group_name_H-M	'P 1'

loop_
_symmetry_equiv_pos_as_xyz
  x,y,z

loop_
_atom_site_label
_atom_site_type_symbol
_atom_site_fract_x
_atom_site_fract_y
_atom_site_fract_z
_atom_site_charge
C 	C 	0.95246 0.02540 0.99013 0.08200
C 	C 	0.02024 0.06310 0.99414 -0.09100
C 	C 	0.05287 0.03602 0.99661 0.08000
C 	C 	0.95008 0.93369 0.99067 0.08000
H 	H 	0.04736 0.11308 0.99513 0.07700
H 	H 	0.04304 0.95058 0.99725 0.07200
H 	H 	0.86507 0.93147 0.98499 0.06400
C 	C 	0.93402 0.99069 0.46284 0.07100
C 	C 	0.00067 0.02722 0.46229 -0.08500
C 	C 	0.03415 0.00110 0.46523 0.07700
C 	C 	0.00095 0.93818 0.46845 -0.10400
C 	C 	0.93448 0.90139 0.46950 0.07400
C 	C 	0.90096 0.92780 0.46678 -0.09300
H 	H 	0.02644 0.07593 0.45975 0.07600
H 	H 	0.02692 0.91798 0.47047 0.06200
H 	H 	0.84966 0.89967 0.46772 0.06800
Cu	Cu	0.64609 0.25897 0.00595 0.92600
Cu	Cu	0.65908 0.22804 0.92009 0.88400
Cu	Cu	0.66478 0.34916 0.95482 0.91200
Cu	Cu	0.64842 0.37574 0.03168 0.90200
C 	C 	0.67579 0.31159 0.08417 0.30800
O 	O 	0.55349 0.22114 0.01225 -0.35900
C 	C 	0.66640 0.31734 0.87998 0.30600
O 	O 	0.69442 0.35490 0.00592 -0.64000
O 	O 	0.62355 0.25812 0.95249 -0.63000
O 	O 	0.69420 0.22178 0.00249 -0.37200
O 	O 	0.64060 0.16260 0.94474 -0.41700
O 	O 	0.64699 0.33770 0.07606 -0.37400
O 	O 	0.71035 0.43797 0.95825 -0.38000
C 	C 	0.71536 0.47563 0.98658 0.31600
C 	C 	0.52526 0.24658 0.00164 0.30900
O 	O 	0.56005 0.30274 0.99351 -0.39400
O 	O 	0.67907 0.45379 0.01224 -0.38400
O 	O 	0.67877 0.27609 0.05827 -0.35700
C 	C 	0.67816 0.17568 0.97619 0.31800
O 	O 	0.64398 0.33940 0.90153 -0.37600
O 	O 	0.69898 0.29844 0.89462 -0.42100
H 	H 	0.74213 0.38351 0.01409 0.16700
H 	H 	0.57616 0.23265 0.94356 0.16000
Cu	Cu	0.74715 0.33875 0.45771 0.92800
Cu	Cu	0.74595 0.28831 0.53564 0.87500
Cu	Cu	0.64382 0.30020 0.50582 0.89900
Cu	Cu	0.62515 0.33530 0.43309 0.89500
C 	C 	0.69977 0.32309 0.38009 0.30600
O 	O 	0.78484 0.43063 0.45966 -0.34600
C 	C 	0.69016 0.32084 0.58687 0.30700
O 	O 	0.64611 0.28664 0.45399 -0.64000
O 	O 	0.73949 0.34508 0.51065 -0.64000
O 	O 	0.79296 0.29900 0.45908 -0.36800
O 	O 	0.72618 0.22941 0.49348 -0.42600
O 	O 	0.67106 0.34841 0.39014 -0.38500
O 	O 	0.55016 0.25174 0.49760 -0.36600
C 	C 	0.51410 0.25488 0.47128 0.30900
C 	C 	0.75506 0.45350 0.47183 0.29900
O 	O 	0.69506 0.41514 0.47671 -0.39400
O 	O 	0.54035 0.29748 0.44986 -0.39400
O 	O 	0.73772 0.31972 0.40479 -0.35800
C 	C 	0.76696 0.24544 0.47054 0.30800
O 	O 	0.64113 0.29998 0.55947 -0.37900
O 	O 	0.74259 0.32681 0.58069 -0.41500
H 	H 	0.61895 0.24203 0.44174 0.16900
H 	H 	0.76541 0.38830 0.52513 0.17700
C 	C 	0.66602 0.33607 0.77109 -0.00400
C 	C 	0.72413 0.38116 0.76020 -0.03100
C 	C 	0.72672 0.38213 0.72243 -0.03300
C 	C 	0.67123 0.33798 0.69537 -0.00200
C 	C 	0.61234 0.29491 0.70630 -0.03300
C 	C 	0.60973 0.29395 0.74410 -0.03200
C 	C 	0.67665 0.33198 0.65681 0.04800
C 	C 	0.68199 0.32756 0.62466 -0.10300
C 	C 	0.66559 0.32949 0.80952 0.04900
C 	C 	0.66565 0.32431 0.84175 -0.11000
H 	H 	0.76774 0.41414 0.78092 0.04500
H 	H 	0.77238 0.41572 0.71420 0.04400
H 	H 	0.56916 0.26078 0.68555 0.04500
H 	H 	0.56451 0.25922 0.75231 0.04200
C 	C 	0.71243 0.30641 0.27038 -0.00100
C 	C 	0.75899 0.36007 0.25736 -0.03100
C 	C 	0.75675 0.35900 0.21910 -0.03200
C 	C 	0.70795 0.30427 0.19370 -0.00000
C 	C 	0.66391 0.24951 0.20676 -0.03100
C 	C 	0.66613 0.25060 0.24504 -0.03200
C 	C 	0.69754 0.30665 0.15490 0.04900
C 	C 	0.68887 0.30870 0.12243 -0.09400
C 	C 	0.70744 0.31073 0.30908 0.04700
C 	C 	0.70411 0.31537 0.34159 -0.09800
H 	H 	0.79526 0.40329 0.27679 0.04600
H 	H 	0.79120 0.40141 0.20924 0.04400
H 	H 	0.62629 0.20688 0.18730 0.04700
H 	H 	0.63028 0.20879 0.25489 0.04300
C 	C 	0.82885 0.72422 0.44655 -0.09800
C 	C 	0.85203 0.71094 0.47741 -0.01100
C 	C 	0.89784 0.75983 0.50720 0.14100
C 	C 	0.92145 0.82159 0.50545 -0.07900
C 	C 	0.90050 0.83531 0.47386 -0.05000
C 	C 	0.85340 0.78615 0.44448 0.15200
C 	C 	0.83038 0.64616 0.47767 0.00900
O 	O 	0.92231 0.74788 0.53706 -0.27700
H 	H 	0.95784 0.85914 0.52812 0.06300
O 	O 	0.83182 0.79857 0.41358 -0.28700
H 	H 	0.79299 0.68668 0.42372 0.06700
C 	C 	0.78827 0.61029 0.50127 0.11800
C 	C 	0.76738 0.54878 0.50091 -0.03700
C 	C 	0.78596 0.52147 0.47596 -0.12000
C 	C 	0.82812 0.55756 0.45223 0.18900
C 	C 	0.85082 0.61983 0.45363 -0.11400
O 	O 	0.76761 0.63528 0.52480 -0.27700
H 	H 	0.73530 0.52175 0.51939 0.05800
O 	O 	0.84667 0.53202 0.42741 -0.27900
H 	H 	0.88337 0.64729 0.43545 0.07500
H 	H 	0.86140 0.80534 0.39614 0.14800
H 	H 	0.72720 0.62512 0.51034 0.14600
H 	H 	0.81377 0.51400 0.40425 0.15100
H 	H 	0.89482 0.74157 0.55578 0.15900
C 	C 	0.76333 0.10262 0.44955 -0.11800
C 	C 	0.82973 0.12985 0.45568 0.01100
C 	C 	0.87542 0.19547 0.46263 0.11900
C 	C 	0.85448 0.23332 0.46478 -0.03400
C 	C 	0.78808 0.20608 0.46071 -0.12800
C 	C 	0.74236 0.14038 0.45176 0.19400
C 	C 	0.85137 0.08965 0.45684 -0.01100
O 	O 	0.94049 0.22269 0.46737 -0.27000
H 	H 	0.89002 0.28379 0.47123 0.05600
O 	O 	0.67720 0.11296 0.44637 -0.29100
H 	H 	0.72792 0.05212 0.44376 0.07300
C 	C 	0.85976 0.07166 0.49034 0.13600
C 	C 	0.88396 0.03670 0.49177 -0.07700
C 	C 	0.89931 0.01894 0.45981 -0.04400
C 	C 	0.88809 0.03451 0.42590 0.15200
C 	C 	0.86460 0.07009 0.42459 -0.09000
O 	O 	0.84696 0.09045 0.52207 -0.28100
O 	O 	0.90252 0.01717 0.39438 -0.27900
H 	H 	0.85750 0.08317 0.39861 0.07400
H 	H 	0.66407 0.10885 0.41936 0.14800
H 	H 	0.80081 0.05667 0.52224 0.14700
H 	H 	0.86222 0.97554 0.38239 0.14800
H 	H 	0.95479 0.22867 0.49446 0.15200
C 	C 	0.34058 0.11943 0.47263 -0.11500
C 	C 	0.30915 0.14741 0.46823 0.01000
C 	C 	0.34494 0.21057 0.46459 0.11900
C 	C 	0.41189 0.24553 0.46583 -0.03300
C 	C 	0.44352 0.21762 0.47020 -0.12000
C 	C 	0.40739 0.15404 0.47326 0.19200
C 	C 	0.23864 0.11036 0.46726 -0.00900
O 	O 	0.31479 0.23859 0.46067 -0.27100
H 	H 	0.43928 0.29447 0.46365 0.06000
O 	O 	0.43728 0.12577 0.47707 -0.28700
H 	H 	0.31311 0.07069 0.47530 0.07200
C 	C 	0.19450 0.06925 0.43449 0.13400
C 	C 	0.12768 0.03452 0.43378 -0.07500
C 	C 	0.10453 0.04004 0.46574 -0.05000
C 	C 	0.14868 0.08094 0.49856 0.15400
C 	C 	0.21549 0.11622 0.49914 -0.09100
O 	O 	0.21659 0.06430 0.40287 -0.27900
O 	O 	0.12659 0.08718 0.52988 -0.28100
H 	H 	0.24932 0.14794 0.52441 0.07600
H 	H 	0.43474 0.10846 0.45132 0.14300
H 	H 	0.12215 0.05526 0.54370 0.14800
H 	H 	0.30088 0.23194 0.43346 0.15200
C 	C 	0.83959 0.65058 0.01161 -0.11500
C 	C 	0.81513 0.66994 0.98537 0.01100
C 	C 	0.75896 0.62510 0.95866 0.11700
C 	C 	0.72768 0.56138 0.95840 -0.02700
C 	C 	0.75127 0.54212 0.98522 -0.12500
C 	C 	0.80773 0.58687 0.01168 0.19400
C 	C 	0.84797 0.73711 0.98618 -0.00900
O 	O 	0.73501 0.64353 0.93261 -0.27400
H 	H 	0.68428 0.52693 0.93786 0.05900
O 	O 	0.83089 0.56841 0.03818 -0.30000
H 	H 	0.88306 0.68500 0.03211 0.07200
C 	C 	0.84558 0.77347 0.01522 0.13300
C 	C 	0.87821 0.83756 0.01622 -0.07600
C 	C 	0.91330 0.86570 0.98838 -0.05400
C 	C 	0.91417 0.82897 0.95878 0.15500
C 	C 	0.88228 0.76506 0.95806 -0.09300
O 	O 	0.80980 0.74605 0.04199 -0.27800
H 	H 	0.87679 0.86554 0.03883 0.06200
O 	O 	0.94728 0.85578 0.93098 -0.28600
H 	H 	0.88411 0.73715 0.93561 0.07600
H 	H 	0.86155 0.56367 0.02706 0.14500
H 	H 	0.84054 0.74986 0.06242 0.14700
H 	H 	0.91539 0.85283 0.91186 0.15000
H 	H 	0.70425 0.64767 0.94409 0.15100
C 	C 	0.81066 0.16063 0.96121 -0.11600
C 	C 	0.79807 0.11491 0.98213 0.01300
C 	C 	0.74501 0.08815 0.00061 0.11000
C 	C 	0.70557 0.10797 0.99848 -0.02200
C 	C 	0.71800 0.15339 0.97735 -0.13700
C 	C 	0.77095 0.18000 0.95882 0.19900
C 	C 	0.83948 0.09395 0.98376 -0.01100
O 	O 	0.73234 0.04345 0.02124 -0.27200
H 	H 	0.66528 0.08790 0.01316 0.05400
O 	O 	0.78339 0.22438 0.93795 -0.32500
H 	H 	0.85129 0.18116 0.94680 0.08200
C 	C 	0.83591 0.05702 0.95234 0.13400
C 	C 	0.87553 0.03751 0.95404 -0.07500
C 	C 	0.91765 0.05323 0.98726 -0.05100
C 	C 	0.92144 0.09041 0.01867 0.15400
C 	C 	0.88293 0.11123 0.01668 -0.09100
O 	O 	0.79413 0.04048 0.91985 -0.27700
H 	H 	0.87240 0.00884 0.92978 0.06500
O 	O 	0.96286 0.10655 0.05124 -0.28400
H 	H 	0.88625 0.14016 0.04086 0.07600
H 	H 	0.81332 0.26513 0.95535 0.14300
H 	H 	0.75297 0.00029 0.92163 0.14600
H 	H 	0.93719 0.07274 0.06536 0.15000
H 	H 	0.70270 0.00290 0.00364 0.14400
C 	C 	0.37223 0.22158 0.02163 -0.11800
C 	C 	0.32504 0.15961 0.00336 0.01300
C 	C 	0.34385 0.12507 0.98595 0.11700
C 	C 	0.40959 0.15339 0.98598 -0.03000
C 	C 	0.45672 0.21595 0.00348 -0.12700
C 	C 	0.43786 0.24986 0.02179 0.19900
C 	C 	0.25597 0.13113 0.00235 -0.01000
O 	O 	0.29796 0.06423 0.96810 -0.27400
H 	H 	0.42380 0.12702 0.97192 0.05300
O 	O 	0.48371 0.30978 0.04111 -0.30200
H 	H 	0.35795 0.24796 0.03562 0.07400
C 	C 	0.22856 0.11198 0.03411 0.13500
C 	C 	0.16261 0.08387 0.03266 -0.07600
C 	C 	0.12368 0.07469 0.99965 -0.05000
C 	C 	0.15152 0.09530 0.96817 0.15600
C 	C 	0.21761 0.12393 0.96973 -0.09100
O 	O 	0.26551 0.11818 0.06604 -0.27700
H 	H 	0.14127 0.06759 0.05689 0.06500
O 	O 	0.11409 0.08723 0.93584 -0.28400
H 	H 	0.23886 0.13964 0.94540 0.07400
H 	H 	0.48871 0.33735 0.02340 0.14800
H 	H 	0.28295 0.15953 0.08091 0.14800
H 	H 	0.09755 0.04577 0.92156 0.15400
H 	H 	0.29172 0.03852 0.98728 0.15200
C 	C 	0.01776 0.97147 0.99522 -0.10100
C 	C 	0.91751 0.96071 0.98834 -0.10800
H 	H 	0.89248 0.02491 0.51795 0.06600
H 	H 	0.09386 0.00305 0.40844 0.06500
H 	H 	0.22059 0.02988 0.40400 0.14500
