data_crystal

_cell_length_a 26.29808
_cell_length_b 26.37870
_cell_length_c 26.43809
_cell_angle_alpha 95.54528
_cell_angle_beta  95.54512
_cell_angle_gamma 125.76936

_symmetry_space_group_name_	'P 1'
_symmetry_space_group_name_H-M	'P 1'

loop_
_symmetry_equiv_pos_as_xyz
  x,y,z

loop_
_atom_site_label
_atom_site_type_symbol
_atom_site_fract_x
_atom_site_fract_y
_atom_site_fract_z
_atom_site_charge
C 	C 	0.95961 0.01828 0.99252 0.01700
C 	C 	0.05065 0.01570 0.99187 0.01800
C 	C 	0.94920 0.01126 0.46491 0.02200
C 	C 	0.04478 0.01696 0.46377 0.02200
C 	C 	0.78194 0.03042 0.39323 -0.05200
C 	C 	0.86464 0.02133 0.42881 -0.06700
H 	H 	0.70975 0.04189 0.36787 0.03500
C 	C 	0.01458 0.04650 0.46352 -0.06800
C 	C 	0.02562 0.05032 0.99570 -0.06000
C 	C 	0.75510 0.06307 0.39310 -0.03400
C 	C 	0.83910 0.05551 0.42731 0.03100
C 	C 	0.91825 0.04339 0.46634 0.01200
C 	C 	0.11356 0.05430 0.46325 0.01300
C 	C 	0.93277 0.05432 0.99576 0.01900
H 	H 	0.12985 0.00988 0.05994 0.04100
H 	H 	0.10309 0.06738 0.38473 0.04700
C 	C 	0.11994 0.04888 0.99485 0.01900
C 	C 	0.15357 0.03858 0.03154 -0.05300
H 	H 	0.13803 0.04489 0.54029 0.04100
C 	C 	0.15586 0.06451 0.50647 -0.04800
H 	H 	0.23818 0.04662 0.05493 0.03400
C 	C 	0.21652 0.06182 0.03000 -0.03200
C 	C 	0.89499 0.04635 0.03265 -0.05300
H 	H 	0.88855 0.01674 0.06079 0.04000
H 	H 	0.82919 0.06123 0.05753 0.03400
C 	C 	0.13635 0.07718 0.41871 -0.06900
C 	C 	0.86277 0.07371 0.03192 -0.03100
H 	H 	0.96784 0.09646 0.92955 0.04600
C 	C 	0.93968 0.09145 0.95874 -0.07000
C 	C 	0.90959 0.15073 0.91712 -0.05500
C 	C 	0.90757 0.11925 0.95752 0.03300
H 	H 	0.93791 0.15594 0.88805 0.03900
H 	H 	0.87386 0.19559 0.88004 0.03100
C 	C 	0.87332 0.17339 0.91262 -0.03400
H 	H 	0.19005 0.11693 0.33664 0.04100
C 	C 	0.22331 0.12838 0.37121 -0.05400
H 	H 	0.30289 0.16981 0.33222 0.03500
C 	C 	0.20162 0.11099 0.41742 0.03200
C 	C 	0.91884 0.95159 0.98536 -0.06700
C 	C 	0.94382 0.91701 0.98235 0.01900
C 	C 	0.00959 0.94912 0.98519 -0.06600
H 	H 	0.86781 0.92669 0.98223 0.04800
H 	H 	0.02891 0.92238 0.98267 0.04800
H 	H 	0.05730 0.10183 0.00138 0.04200
C 	C 	0.91379 0.94577 0.46541 -0.07100
C 	C 	0.94376 0.91585 0.46435 0.02100
C 	C 	0.00938 0.95175 0.46422 -0.06900
H 	H 	0.86325 0.91824 0.46632 0.04700
H 	H 	0.03269 0.92879 0.46390 0.04900
H 	H 	0.04193 0.09686 0.46248 0.04900
Cu	Cu	0.63278 0.22962 0.00157 0.92500
Cu	Cu	0.67744 0.23160 0.88963 0.86700
Cu	Cu	0.65214 0.32216 0.93052 0.89700
Cu	Cu	0.62747 0.34406 0.03464 0.89400
C 	C 	0.65964 0.28481 0.10854 0.28900
O 	O 	0.53967 0.18857 0.00524 -0.36500
C 	C 	0.63834 0.28279 0.81918 0.28300
O 	O 	0.67834 0.32742 0.00226 -0.64200
O 	O 	0.61702 0.23080 0.92700 -0.63800
O 	O 	0.67626 0.18790 0.99769 -0.36800
O 	O 	0.74047 0.25345 0.94662 -0.44000
O 	O 	0.62466 0.30407 0.09557 -0.38300
O 	O 	0.69316 0.41244 0.93676 -0.38500
C 	C 	0.69142 0.44868 0.97370 0.29200
C 	C 	0.51042 0.21171 0.98681 0.28200
O 	O 	0.54417 0.26981 0.97757 -0.39300
O 	O 	0.65751 0.42484 0.01026 -0.39800
O 	O 	0.66065 0.24509 0.07495 -0.36200
C 	C 	0.72774 0.21282 0.97725 0.28500
O 	O 	0.63186 0.31564 0.85557 -0.37500
O 	O 	0.63503 0.23252 0.82726 -0.41900
H 	H 	0.72488 0.35804 0.01560 0.16400
H 	H 	0.57206 0.20056 0.90871 0.17400
Cu	Cu	0.73987 0.34037 0.43551 0.92800
Cu	Cu	0.73156 0.28554 0.54262 0.86600
Cu	Cu	0.63664 0.30344 0.49943 0.89600
Cu	Cu	0.61897 0.33370 0.39687 0.89400
C 	C 	0.69551 0.32211 0.32708 0.28900
O 	O 	0.77366 0.43214 0.43656 -0.36200
C 	C 	0.66885 0.31147 0.61129 0.28500
O 	O 	0.63996 0.28551 0.42834 -0.64100
O 	O 	0.73048 0.34700 0.50864 -0.64100
O 	O 	0.78938 0.30534 0.44081 -0.37100
O 	O 	0.72014 0.23030 0.48369 -0.44100
O 	O 	0.66823 0.34927 0.33989 -0.38500
O 	O 	0.54489 0.25492 0.48739 -0.38700
C 	C 	0.50960 0.26073 0.45289 0.29000
C 	C 	0.74389 0.45462 0.45391 0.27800
O 	O 	0.68410 0.41503 0.45874 -0.39500
O 	O 	0.53213 0.29120 0.41429 -0.39400
O 	O 	0.73290 0.31987 0.36239 -0.35900
C 	C 	0.76503 0.25091 0.45607 0.28800
O 	O 	0.63457 0.31488 0.57362 -0.37800
O 	O 	0.72196 0.31912 0.60526 -0.42000
H 	H 	0.61355 0.23972 0.41261 0.16600
H 	H 	0.75658 0.39058 0.52958 0.17400
C 	C 	0.63859 0.29597 0.76629 -0.07900
C 	C 	0.59174 0.24720 0.72528 -0.02300
C 	C 	0.59865 0.25370 0.67393 0.03400
C 	C 	0.65320 0.30942 0.66337 -0.07900
C 	C 	0.69729 0.36019 0.70419 -0.02300
C 	C 	0.69017 0.35390 0.75553 0.03400
S 	S 	0.54013 0.19063 0.62338 -0.06800
S 	S 	0.74769 0.41783 0.80597 -0.06900
H 	H 	0.72887 0.45550 0.81803 0.04600
H 	H 	0.49438 0.19872 0.60830 0.04300
H 	H 	0.55111 0.20324 0.73337 0.04300
H 	H 	0.73844 0.40375 0.69610 0.04100
C 	C 	0.68260 0.29347 0.16393 -0.07600
C 	C 	0.65347 0.24066 0.18844 -0.02000
C 	C 	0.66145 0.24933 0.24255 0.03500
C 	C 	0.69906 0.31135 0.27237 -0.07400
C 	C 	0.73333 0.36380 0.24807 -0.02100
C 	C 	0.72544 0.35516 0.19408 0.03700
S 	S 	0.62223 0.18238 0.27233 -0.06300
S 	S 	0.76878 0.42194 0.16457 -0.07600
H 	H 	0.82516 0.43279 0.15782 0.03600
H 	H 	0.66211 0.16613 0.28475 0.04100
H 	H 	0.62178 0.19299 0.16540 0.04800
H 	H 	0.76408 0.41153 0.27110 0.04600
C 	C 	0.90630 0.84649 0.46141 0.01300
C 	C 	0.88245 0.82001 0.50454 -0.04800
C 	C 	0.85517 0.75594 0.50479 -0.02900
C 	C 	0.84943 0.71661 0.46077 -0.01500
C 	C 	0.87585 0.74439 0.41803 0.03200
C 	C 	0.90177 0.80834 0.41790 -0.06900
C 	C 	0.87947 0.70916 0.37726 -0.05300
C 	C 	0.85900 0.64742 0.37898 -0.03500
C 	C 	0.83040 0.61804 0.41974 0.00200
C 	C 	0.82205 0.65110 0.45960 0.01300
C 	C 	0.78388 0.61707 0.49536 -0.05700
C 	C 	0.76047 0.55376 0.49454 0.00200
C 	C 	0.77273 0.52267 0.45721 -0.07600
C 	C 	0.80763 0.55490 0.41988 -0.01600
H 	H 	0.88767 0.84983 0.53889 0.04000
H 	H 	0.84285 0.73870 0.54037 0.03400
H 	H 	0.92125 0.82930 0.38489 0.04600
H 	H 	0.90014 0.73045 0.34477 0.04000
H 	H 	0.86425 0.62181 0.34788 0.03700
H 	H 	0.76892 0.63777 0.52165 0.04200
H 	H 	0.73152 0.52841 0.52233 0.03200
H 	H 	0.81488 0.53004 0.38970 0.04500
C 	C 	0.79578 0.21939 0.45085 -0.08600
C 	C 	0.85825 0.24973 0.47730 0.00500
C 	C 	0.88439 0.21649 0.47950 -0.06100
C 	C 	0.84739 0.15154 0.45610 0.01400
C 	C 	0.78735 0.12348 0.42426 -0.00100
C 	C 	0.76092 0.15684 0.42327 -0.01000
C 	C 	0.87024 0.11466 0.46135 -0.01600
C 	C 	0.92045 0.13327 0.50173 -0.02900
C 	C 	0.94444 0.09809 0.50380 -0.04900
H 	H 	0.88625 0.29889 0.49702 0.02100
H 	H 	0.93389 0.24205 0.49756 0.04100
H 	H 	0.71337 0.13421 0.40129 0.03400
H 	H 	0.75733 0.98470 0.36769 0.03900
H 	H 	0.93904 0.17296 0.53284 0.03200
H 	H 	0.98368 0.11351 0.53453 0.03900
H 	H 	0.84317 0.97801 0.40072 0.04500
C 	C 	0.22098 0.09854 0.50584 -0.02800
C 	C 	0.24519 0.12523 0.46232 -0.01500
C 	C 	0.28745 0.15863 0.36874 -0.03400
C 	C 	0.33181 0.17576 0.41326 0.00100
C 	C 	0.31161 0.16245 0.46117 0.01400
C 	C 	0.35828 0.18924 0.50680 -0.05800
C 	C 	0.42260 0.22109 0.50386 0.00600
C 	C 	0.44186 0.22912 0.45580 -0.07500
C 	C 	0.39653 0.20749 0.41067 -0.01500
H 	H 	0.25141 0.10077 0.53792 0.03500
H 	H 	0.34569 0.18865 0.54457 0.04300
H 	H 	0.45773 0.24088 0.53919 0.03800
H 	H 	0.41152 0.21517 0.37359 0.03900
C 	C 	0.90146 0.84726 0.97847 0.01800
C 	C 	0.86582 0.82094 0.01708 -0.05300
C 	C 	0.82917 0.75547 0.01582 -0.03200
C 	C 	0.82607 0.71473 0.97469 -0.01200
C 	C 	0.86512 0.74192 0.93745 0.03200
C 	C 	0.90061 0.80763 0.93846 -0.07000
C 	C 	0.87086 0.70377 0.90131 -0.05400
C 	C 	0.83994 0.63947 0.90276 -0.03400
C 	C 	0.79920 0.61117 0.93802 0.00100
C 	C 	0.78864 0.64773 0.97195 0.01700
C 	C 	0.73921 0.61614 0.00037 -0.06100
C 	C 	0.70756 0.55144 0.00064 0.00100
C 	C 	0.72279 0.51648 0.97110 -0.07100
C 	C 	0.76777 0.54627 0.93899 -0.01700
H 	H 	0.86827 0.85160 0.04918 0.04000
H 	H 	0.80680 0.73750 0.04848 0.03400
H 	H 	0.92911 0.82822 0.90909 0.04600
H 	H 	0.90107 0.72445 0.87303 0.04000
H 	H 	0.84691 0.61133 0.87579 0.03500
H 	H 	0.72283 0.64040 0.02009 0.04200
H 	H 	0.67034 0.52827 0.02324 0.03600
H 	H 	0.77847 0.51918 0.91494 0.04200
C 	C 	0.87035 0.11246 0.99548 -0.01300
C 	C 	0.83708 0.16830 0.95006 -0.00200
C 	C 	0.83804 0.14105 0.99345 0.01800
C 	C 	0.80856 0.14493 0.03419 -0.06300
C 	C 	0.77208 0.16759 0.02856 0.00400
C 	C 	0.76709 0.18982 0.98364 -0.08000
C 	C 	0.80062 0.19121 0.94495 -0.01600
H 	H 	0.81642 0.13397 0.07114 0.04400
H 	H 	0.74905 0.16938 0.05981 0.04000
H 	H 	0.79810 0.20980 0.91069 0.02100
C 	C 	0.24868 0.09981 0.99356 -0.01200
C 	C 	0.21399 0.10875 0.95563 0.03200
C 	C 	0.15034 0.08437 0.95722 -0.07000
C 	C 	0.24216 0.13938 0.91518 -0.05300
C 	C 	0.30394 0.16057 0.91143 -0.03500
C 	C 	0.34016 0.15466 0.94956 0.00200
C 	C 	0.31384 0.12648 0.99219 0.01700
C 	C 	0.35404 0.12856 0.03333 -0.06100
C 	C 	0.41666 0.15229 0.02960 0.00000
C 	C 	0.44181 0.17805 0.98658 -0.07300
C 	C 	0.40351 0.17909 0.94661 -0.01700
H 	H 	0.12374 0.09090 0.92801 0.04600
H 	H 	0.21555 0.14567 0.88582 0.04000
H 	H 	0.32421 0.18282 0.87917 0.03600
H 	H 	0.33888 0.11606 0.06954 0.04200
H 	H 	0.44684 0.15392 0.06169 0.03800
H 	H 	0.42350 0.20039 0.91388 0.03700
