data_crystal

_cell_length_a 15.58472
_cell_length_b 15.87649
_cell_length_c 26.60475
_cell_angle_alpha 95.40006
_cell_angle_beta  95.39999
_cell_angle_gamma 126.69859

_symmetry_space_group_name_	'P 1'
_symmetry_space_group_name_H-M	'P 1'

loop_
_symmetry_equiv_pos_as_xyz
  x,y,z

loop_
_atom_site_label
_atom_site_type_symbol
_atom_site_fract_x
_atom_site_fract_y
_atom_site_fract_z
_atom_site_charge
N 	N 	0.99602 0.90694 0.96276 -0.12500
N 	N 	0.06298 0.11054 0.50065 -0.12100
C 	C 	0.88443 0.98834 0.95635 0.13800
N 	N 	0.82980 0.88152 0.95746 -0.12600
C 	C 	0.88695 0.84106 0.96035 0.12300
C 	C 	0.04898 0.01185 0.96187 0.12100
N 	N 	0.99338 0.05207 0.95827 -0.13600
C 	C 	0.95579 0.05719 0.50414 0.10200
N 	N 	0.89343 0.95173 0.50640 -0.11800
C 	C 	0.93714 0.89942 0.50548 0.11800
N 	N 	0.04307 0.95195 0.50250 -0.11500
C 	C 	0.10634 0.05693 0.50012 0.11000
Cu	Cu	0.75394 0.33237 0.94417 0.92800
Cu	Cu	0.72471 0.23412 0.05027 0.86900
Cu	Cu	0.58915 0.29316 0.01034 0.89500
Cu	Cu	0.54729 0.31966 0.90123 0.91100
C 	C 	0.67746 0.29764 0.83579 0.30700
O 	O 	0.81033 0.49024 0.94524 -0.33600
C 	C 	0.65119 0.31196 0.12248 0.29700
O 	O 	0.58476 0.24746 0.93880 -0.62500
O 	O 	0.74224 0.34567 0.01713 -0.65000
O 	O 	0.81727 0.25132 0.94858 -0.34500
O 	O 	0.68850 0.13373 0.99148 -0.42000
O 	O 	0.63763 0.34848 0.84779 -0.36900
O 	O 	0.44288 0.25236 0.00156 -0.38300
C 	C 	0.37079 0.20322 0.95834 0.31900
C 	C 	0.75453 0.52497 0.95882 0.28400
O 	O 	0.65206 0.45608 0.96247 -0.37900
O 	O 	0.39792 0.23314 0.91439 -0.37200
O 	O 	0.74136 0.29580 0.87109 -0.34900
C 	C 	0.76198 0.15738 0.96334 0.29100
O 	O 	0.59278 0.31737 0.08517 -0.36300
O 	O 	0.72819 0.30398 0.11376 -0.40200
H 	H 	0.53762 0.16886 0.92732 0.17600
H 	H 	0.79496 0.41888 0.03775 0.18400
Cu	Cu	0.62111 0.19996 0.51172 0.92800
Cu	Cu	0.71022 0.21569 0.40319 0.87600
Cu	Cu	0.67858 0.37065 0.44755 0.90200
Cu	Cu	0.62576 0.39563 0.55099 0.90500
C 	C 	0.64684 0.26876 0.62001 0.30700
O 	O 	0.46093 0.13815 0.51040 -0.34800
C 	C 	0.64470 0.30265 0.33433 0.30100
O 	O 	0.71008 0.36656 0.51871 -0.63500
O 	O 	0.60758 0.21479 0.43907 -0.64000
O 	O 	0.69588 0.13183 0.50674 -0.35700
O 	O 	0.81465 0.25030 0.46068 -0.42800
O 	O 	0.59957 0.31230 0.60719 -0.37000
O 	O 	0.75578 0.52337 0.45995 -0.37100
C 	C 	0.75614 0.58077 0.49939 0.31200
C 	C 	0.42302 0.18834 0.49415 0.29600
O 	O 	0.49123 0.28747 0.48864 -0.38800
O 	O 	0.69027 0.53697 0.53235 -0.37900
O 	O 	0.65689 0.21239 0.58469 -0.34600
C 	C 	0.78952 0.18085 0.49068 0.30200
O 	O 	0.67161 0.37783 0.37327 -0.36800
O 	O 	0.63927 0.21882 0.34180 -0.39900
H 	H 	0.78857 0.41291 0.53426 0.18100
H 	H 	0.53213 0.16916 0.41916 0.18700
C 	C 	0.56644 0.18794 0.69436 -0.02000
C 	C 	0.65959 0.25766 0.67400 -0.07000
C 	C 	0.76215 0.32650 0.70700 0.09500
C 	C 	0.76914 0.33097 0.76034 -0.02000
C 	C 	0.67437 0.26859 0.78100 -0.07000
C 	C 	0.57330 0.19273 0.74764 0.09300
N 	N 	0.47680 0.12276 0.76790 -0.02500
H 	H 	0.48790 0.13250 0.66891 0.07000
H 	H 	0.84739 0.38809 0.78579 0.07200
N 	N 	0.85889 0.39469 0.68673 -0.02100
O 	O 	0.38843 0.11140 0.75166 -0.10400
O 	O 	0.47601 0.06716 0.80105 -0.11200
O 	O 	0.87226 0.47030 0.66448 -0.11300
O 	O 	0.93765 0.38734 0.69458 -0.09300
C 	C 	0.54359 0.24029 0.19138 -0.03000
C 	C 	0.63683 0.32477 0.17593 -0.07300
C 	C 	0.72371 0.41219 0.21332 0.09800
C 	C 	0.72105 0.40882 0.26575 -0.02900
C 	C 	0.63274 0.31886 0.28114 -0.07400
C 	C 	0.54101 0.23677 0.24381 0.09600
N 	N 	0.44597 0.14875 0.25897 -0.02000
H 	H 	0.47504 0.17473 0.16269 0.05900
H 	H 	0.79014 0.47388 0.29439 0.06600
N 	N 	0.81595 0.50328 0.19819 -0.02100
O 	O 	0.40138 0.16638 0.29317 -0.10200
O 	O 	0.40102 0.05114 0.23682 -0.10700
O 	O 	0.80183 0.55108 0.16500 -0.09800
O 	O 	0.91417 0.54146 0.21936 -0.10400
C 	C 	0.87016 0.78726 0.50374 0.03800
C 	C 	0.81716 0.69276 0.50178 -0.07400
C 	C 	0.90487 0.10876 0.50105 0.03400
C 	C 	0.85388 0.14354 0.49735 -0.08300
C 	C 	0.21890 0.10977 0.49713 0.03400
C 	C 	0.31185 0.14549 0.49526 -0.07500
C 	C 	0.79832 0.63585 0.95956 -0.06000
C 	C 	0.83337 0.72812 0.95989 0.02900
C 	C 	0.79707 0.09050 0.95816 -0.06800
C 	C 	0.82994 0.03745 0.95645 0.01300
C 	C 	0.16279 0.07905 0.96191 0.03700
C 	C 	0.25824 0.13577 0.96096 -0.07500
