data_crystal

_cell_length_a 17.72086
_cell_length_b 17.73386
_cell_length_c 39.79172
_cell_angle_alpha 89.70051
_cell_angle_beta  89.70251
_cell_angle_gamma 119.43030

_symmetry_space_group_name_	'P 1'
_symmetry_space_group_name_H-M	'P 1'

loop_
_symmetry_equiv_pos_as_xyz
  x,y,z

loop_
_atom_site_label
_atom_site_type_symbol
_atom_site_fract_x
_atom_site_fract_y
_atom_site_fract_z
_atom_site_charge
C 	C 	0.56419 0.41271 0.86947 0.30400
C 	C 	0.81073 0.56906 0.93055 0.29800
C 	C 	0.63843 0.25163 0.85308 0.28500
C 	C 	0.57340 0.38071 0.97893 0.30400
C 	C 	0.62539 0.19432 0.96251 0.28500
Ni	Ni	0.74211 0.43171 0.88001 1.11400
Ni	Ni	0.56582 0.28579 0.91667 1.12000
Ni	Ni	0.73752 0.39010 0.95983 1.12300
O 	O 	0.82826 0.36498 0.94123 -0.37400
O 	O 	0.53437 0.30528 0.96366 -0.38100
O 	O 	0.63644 0.42590 0.85488 -0.37100
O 	O 	0.54628 0.38329 0.90047 -0.38800
O 	O 	0.66590 0.26821 0.97965 -0.37000
O 	O 	0.75210 0.53456 0.90736 -0.37800
O 	O 	0.82515 0.51867 0.95093 -0.36800
O 	O 	0.58046 0.18795 0.93499 -0.38000
O 	O 	0.71492 0.32350 0.85211 -0.36700
O 	O 	0.56957 0.24912 0.86798 -0.37300
O 	O 	0.65779 0.43005 0.97760 -0.38100
O 	O 	0.68771 0.35659 0.91650 -0.71800
H 	H 	0.70337 0.31173 0.91148 0.16200
C 	C 	0.74046 0.37434 0.63365 0.28000
C 	C 	0.47228 0.23409 0.53480 0.29500
C 	C 	0.60002 0.14246 0.60845 0.30800
C 	C 	0.57473 0.44832 0.55616 0.29500
C 	C 	0.67302 0.21935 0.50300 0.30100
Ni	Ni	0.57408 0.29644 0.59630 1.11200
Ni	Ni	0.66013 0.37009 0.52070 1.12000
Ni	Ni	0.74015 0.28243 0.57029 1.11900
O 	O 	0.66585 0.37461 0.63091 -0.36200
O 	O 	0.75136 0.31131 0.62057 -0.37100
O 	O 	0.66149 0.28130 0.49097 -0.38400
O 	O 	0.50126 0.20944 0.56009 -0.38400
O 	O 	0.52585 0.30315 0.51664 -0.37000
O 	O 	0.57869 0.19617 0.62245 -0.37200
O 	O 	0.64088 0.16267 0.57965 -0.39300
O 	O 	0.79225 0.44747 0.51491 -0.35800
O 	O 	0.53839 0.38950 0.58068 -0.36600
O 	O 	0.64981 0.46542 0.54333 -0.38300
O 	O 	0.73766 0.23749 0.52353 -0.38300
O 	O 	0.66741 0.33207 0.56512 -0.70800
H 	H 	0.70665 0.39047 0.57361 0.15500
C 	C 	0.17592 0.18049 0.76108 0.28100
C 	C 	0.14758 0.10109 0.66872 0.30100
Ni	Ni	0.12311 0.00426 0.73423 1.10800
Ni	Ni	0.02118 0.10850 0.71519 1.11300
O 	O 	0.18566 0.11140 0.76473 -0.37100
O 	O 	0.14232 0.19329 0.73316 -0.37700
O 	O 	0.06918 0.90540 0.69949 -0.38500
O 	O 	0.18771 0.09104 0.69463 -0.37100
O 	O 	0.06849 0.08797 0.67185 -0.39000
O 	O 	0.08285 0.91490 0.77467 -0.36200
O 	O 	0.02352 0.01607 0.73845 -0.72900
H 	H 	0.03123 0.03844 0.76150 0.15000
C 	C 	0.22981 0.67378 0.36937 0.28000
C 	C 	0.56859 0.80351 0.42973 0.30100
C 	C 	0.38680 0.58905 0.36232 0.30400
C 	C 	0.43591 0.89823 0.44107 0.28800
C 	C 	0.38235 0.56093 0.47596 0.30700
C 	C 	0.20234 0.61690 0.47811 0.28500
Ni	Ni	0.41763 0.76302 0.38698 1.11400
Ni	Ni	0.39997 0.73144 0.46807 1.12000
Ni	Ni	0.27917 0.57724 0.41980 1.12000
O 	O 	0.30280 0.74913 0.36845 -0.36500
O 	O 	0.23004 0.60014 0.37643 -0.37000
O 	O 	0.43724 0.64309 0.47236 -0.39100
O 	O 	0.52508 0.75851 0.40389 -0.37400
O 	O 	0.52785 0.81483 0.45547 -0.37000
O 	O 	0.18980 0.58724 0.44702 -0.38700
O 	O 	0.39648 0.66469 0.35318 -0.36900
O 	O 	0.37004 0.56425 0.39377 -0.38000
O 	O 	0.28156 0.65779 0.49204 -0.37100
O 	O 	0.45495 0.88382 0.40998 -0.36500
O 	O 	0.38203 0.83351 0.46064 -0.38100
O 	O 	0.30667 0.52499 0.46065 -0.37500
O 	O 	0.35254 0.69832 0.42461 -0.71500
H 	H 	0.30873 0.71708 0.42583 0.16200
C 	C 	0.45225 0.58785 0.04428 0.30100
C 	C 	0.14696 0.61716 0.09266 0.31800
C 	C 	0.23592 0.47016 0.02708 0.28500
C 	C 	0.38120 0.77726 0.10600 0.27000
C 	C 	0.20562 0.63909 0.98036 0.30800
C 	C 	0.43585 0.84922 0.00827 0.26500
Ni	Ni	0.30265 0.59496 0.08229 1.11200
Ni	Ni	0.26726 0.73559 0.04343 1.11900
Ni	Ni	0.36671 0.65405 0.00310 1.12300
O 	O 	0.39643 0.55751 0.06986 -0.37200
O 	O 	0.46540 0.65785 0.02860 -0.38700
O 	O 	0.20437 0.69892 0.99930 -0.36800
O 	O 	0.20521 0.60570 0.10821 -0.37600
O 	O 	0.15705 0.63496 0.06087 -0.39600
O 	O 	0.44094 0.78423 0.99310 -0.35000
O 	O 	0.21271 0.50532 0.05074 -0.38100
O 	O 	0.30136 0.51896 0.00619 -0.36600
O 	O 	0.36117 0.83963 0.01971 -0.37500
O 	O 	0.38211 0.70307 0.10995 -0.36200
O 	O 	0.31477 0.78084 0.09120 -0.36100
O 	O 	0.27925 0.64687 0.97046 -0.37800
O 	O 	0.32831 0.67331 0.04514 -0.71100
H 	H 	0.38586 0.72016 0.05129 0.14800
C 	C 	0.03927 0.14126 0.16184 0.28700
C 	C 	0.78819 0.99610 0.21176 0.31500
C 	C 	0.15753 0.18579 0.24854 0.28200
C 	C 	0.02870 0.88321 0.25876 0.27000
Ni	Ni	0.07355 0.02776 0.20672 1.11000
O 	O 	0.99237 0.95104 0.17145 -0.38100
O 	O 	0.09988 0.13082 0.17646 -0.38100
O 	O 	0.83424 0.06502 0.22991 -0.38100
O 	O 	0.07334 0.92626 0.23124 -0.37800
O 	O 	0.10275 0.20750 0.23474 -0.37600
O 	O 	0.16094 0.11585 0.23879 -0.37600
C 	C 	0.20062 0.37562 0.02923 -0.06400
C 	C 	0.25688 0.34447 0.03818 -0.00400
C 	C 	0.23290 0.28190 0.06380 -0.04600
C 	C 	0.15056 0.24711 0.07904 -0.00800
C 	C 	0.08819 0.26496 0.06477 0.04400
C 	C 	0.11249 0.32496 0.03805 -0.03300
C 	C 	0.00599 0.23097 0.07988 -0.12200
C 	C 	0.98868 0.18705 0.11075 0.07000
C 	C 	0.05315 0.17586 0.12678 -0.10500
C 	C 	0.13253 0.20173 0.10986 -0.00200
H 	H 	0.32201 0.37511 0.02812 0.04500
H 	H 	0.27988 0.26465 0.07305 0.04500
H 	H 	0.06656 0.34354 0.02874 0.04600
H 	H 	0.18152 0.19050 0.12135 0.04200
C 	C 	0.70782 0.98307 0.19646 -0.08000
C 	C 	0.63426 0.95983 0.21656 0.01500
C 	C 	0.55326 0.93017 0.20171 -0.05800
C 	C 	0.54532 0.92259 0.16663 0.02300
C 	C 	0.62062 0.95306 0.14633 0.01000
C 	C 	0.70174 0.98424 0.16142 0.00300
C 	C 	0.61269 0.94337 0.11142 -0.04700
C 	C 	0.53121 0.89362 0.09723 0.00600
C 	C 	0.45642 0.85649 0.11757 -0.05800
C 	C 	0.46322 0.87675 0.15185 -0.01700
H 	H 	0.63915 0.96085 0.24371 0.03700
H 	H 	0.49629 0.90899 0.21753 0.04800
H 	H 	0.75927 0.00434 0.14597 0.03500
H 	H 	0.66996 0.96854 0.09551 0.05100
H 	H 	0.52681 0.87719 0.07090 0.03200
H 	H 	0.40535 0.84889 0.16753 0.04500
C 	C 	0.08500 0.63342 0.11190 -0.09900
C 	C 	0.07296 0.61597 0.14659 0.03200
C 	C 	0.02851 0.64770 0.16583 -0.09800
C 	C 	0.99787 0.69911 0.15068 0.07400
C 	C 	0.00552 0.71252 0.11553 -0.04200
C 	C 	0.04556 0.67632 0.09619 0.00600
C 	C 	0.97965 0.76801 0.10059 -0.01600
C 	C 	0.95383 0.81578 0.12066 -0.00800
C 	C 	0.95008 0.80565 0.15569 -0.05700
C 	C 	0.96629 0.74291 0.17040 -0.04000
H 	H 	0.10024 0.58021 0.15882 0.03100
H 	H 	0.02163 0.63580 0.19271 0.05100
H 	H 	0.05152 0.68692 0.06921 0.03300
H 	H 	0.98393 0.77761 0.07357 0.04300
H 	H 	0.93933 0.86259 0.10908 0.04800
H 	H 	0.96005 0.73272 0.19740 0.05800
C 	C 	0.66304 0.85758 0.42586 -0.06500
C 	C 	0.71230 0.81621 0.42061 0.00800
C 	C 	0.78367 0.85269 0.39861 -0.04800
C 	C 	0.80624 0.93099 0.38191 0.01000
C 	C 	0.76563 0.97914 0.39142 0.03400
C 	C 	0.69653 0.94348 0.41471 -0.02600
C 	C 	0.78696 0.05673 0.37439 -0.07200
C 	C 	0.83981 0.08066 0.34564 0.01800
C 	C 	0.87165 0.02720 0.33367 -0.07500
C 	C 	0.86050 0.95625 0.35332 -0.00600
H 	H 	0.68961 0.75149 0.43051 0.04300
H 	H 	0.81696 0.81690 0.39268 0.04900
H 	H 	0.66170 0.97761 0.42039 0.05000
H 	H 	0.75754 0.09509 0.38186 0.05500
H 	H 	0.84987 0.13678 0.33113 0.04000
C 	C 	0.22385 0.24723 0.27126 -0.06800
C 	C 	0.22605 0.22247 0.30461 0.00500
C 	C 	0.26954 0.28536 0.32901 -0.05600
C 	C 	0.31105 0.37355 0.32018 0.01600
C 	C 	0.31623 0.39818 0.28607 0.01500
C 	C 	0.27324 0.33461 0.26167 -0.01700
C 	C 	0.35859 0.48626 0.27719 -0.05600
C 	C 	0.38834 0.54934 0.30216 0.00900
C 	C 	0.37556 0.52497 0.33630 -0.07000
C 	C 	0.34135 0.43711 0.34516 -0.01900
H 	H 	0.18937 0.15491 0.31204 0.03200
H 	H 	0.26736 0.26562 0.35498 0.04700
H 	H 	0.27332 0.35343 0.23567 0.04600
H 	H 	0.36547 0.50591 0.25101 0.04600
H 	H 	0.41803 0.61699 0.29493 0.04100
H 	H 	0.33305 0.41778 0.37140 0.05100
C 	C 	0.04949 0.81949 0.27404 -0.06300
C 	C 	0.08793 0.78182 0.25423 0.00200
C 	C 	0.11513 0.72760 0.26879 -0.05600
C 	C 	0.10679 0.71229 0.30354 0.01500
C 	C 	0.06390 0.74587 0.32341 0.01500
C 	C 	0.03438 0.79863 0.30846 -0.02300
C 	C 	0.05740 0.73183 0.35831 -0.05300
C 	C 	0.10210 0.69434 0.37366 0.00300
C 	C 	0.15308 0.67028 0.35422 -0.06300
C 	C 	0.14827 0.67150 0.31911 -0.01700
H 	H 	0.09865 0.79620 0.22759 0.03800
H 	H 	0.14627 0.70066 0.25323 0.04400
H 	H 	0.00379 0.82664 0.32378 0.04300
H 	H 	0.10330 0.69110 0.40085 0.03500
H 	H 	0.18543 0.65018 0.30406 0.04400
C 	C 	0.62238 0.13238 0.48875 -0.06300
C 	C 	0.55008 0.07090 0.50692 -0.02900
C 	C 	0.48321 0.99949 0.49090 0.01300
C 	C 	0.49146 0.98475 0.45641 -0.05200
C 	C 	0.56229 0.04838 0.43795 -0.02600
C 	C 	0.62889 0.12003 0.45411 0.00800
H 	H 	0.54175 0.08284 0.53294 0.05700
H 	H 	0.56711 0.04082 0.41113 0.04500
C 	C 	0.70294 0.18215 0.43477 0.08100
C 	C 	0.40354 0.94683 0.50934 0.08000
N 	N 	0.76228 0.23212 0.41935 -0.11100
N 	N 	0.33986 0.90482 0.52419 -0.11200
C 	C 	0.08895 0.49969 0.51370 0.01500
C 	C 	0.12447 0.58379 0.49991 -0.06000
C 	C 	0.07202 0.62275 0.49779 -0.02600
H 	H 	0.09896 0.68779 0.48752 0.04400
C 	C 	0.14258 0.46034 0.51894 0.07400
N 	N 	0.18516 0.42841 0.52321 -0.11100
C 	C 	0.40916 0.50816 0.49592 -0.06300
C 	C 	0.40568 0.51155 0.53119 -0.01200
C 	C 	0.46126 0.49517 0.55127 0.00400
C 	C 	0.51941 0.47261 0.53599 -0.07000
C 	C 	0.52067 0.46678 0.50079 -0.00100
C 	C 	0.46383 0.48093 0.48099 0.00300
H 	H 	0.36455 0.53355 0.54287 0.04600
H 	H 	0.56605 0.45091 0.48872 0.02800
C 	C 	0.46652 0.47330 0.44494 0.08600
C 	C 	0.46083 0.50556 0.58722 0.07900
N 	N 	0.46923 0.46720 0.41608 -0.10900
N 	N 	0.46042 0.51384 0.61604 -0.11300
C 	C 	0.77032 0.94144 0.67111 -0.07800
C 	C 	0.76032 0.92183 0.63679 0.01600
C 	C 	0.70256 0.93663 0.61781 -0.05800
C 	C 	0.65697 0.97377 0.63300 0.02600
C 	C 	0.65836 0.98213 0.66834 0.02700
C 	C 	0.71155 0.96075 0.68738 -0.01700
C 	C 	0.61724 0.02387 0.68343 -0.06900
C 	C 	0.58734 0.06871 0.66352 0.01300
C 	C 	0.59664 0.07027 0.62836 -0.07600
C 	C 	0.62159 0.01424 0.61328 -0.03000
H 	H 	0.80286 0.90299 0.62427 0.04100
H 	H 	0.69929 0.92663 0.59089 0.05300
H 	H 	0.71591 0.97073 0.71433 0.04700
H 	H 	0.61499 0.02777 0.71057 0.04800
H 	H 	0.56301 0.10730 0.67551 0.04000
H 	H 	0.62267 0.01012 0.58610 0.04700
C 	C 	0.37822 0.20076 0.53389 -0.07100
C 	C 	0.32492 0.11035 0.53389 0.00700
C 	C 	0.26123 0.07017 0.55901 -0.05200
C 	C 	0.24747 0.12126 0.58249 0.00900
C 	C 	0.28713 0.21162 0.57702 0.01900
C 	C 	0.34658 0.24946 0.55031 -0.02600
C 	C 	0.27503 0.26357 0.60049 -0.06000
C 	C 	0.23017 0.22726 0.63056 0.01100
C 	C 	0.19532 0.13843 0.63713 -0.07600
C 	C 	0.20113 0.08479 0.61255 -0.01500
H 	H 	0.34185 0.07117 0.51818 0.03800
H 	H 	0.22739 0.00026 0.56155 0.04700
H 	H 	0.37796 0.31838 0.54621 0.05300
H 	H 	0.30316 0.33255 0.59609 0.05400
H 	H 	0.22324 0.26839 0.64893 0.03300
H 	H 	0.17182 0.01568 0.61719 0.03800
C 	C 	0.12716 0.57803 0.96268 -0.08100
C 	C 	0.07193 0.49805 0.97792 0.01700
C 	C 	0.11525 0.59169 0.92860 0.02500
H 	H 	0.08505 0.48445 0.00316 0.03400
C 	C 	0.17584 0.67054 0.91133 0.07900
N 	N 	0.22451 0.73373 0.89754 -0.10700
C 	C 	0.60519 0.11303 0.98013 -0.05000
C 	C 	0.56156 0.09485 0.01097 -0.01200
C 	C 	0.51086 0.00929 0.02207 -0.02100
C 	C 	0.50716 0.94015 0.00273 -0.04700
C 	C 	0.56282 0.96045 0.97468 0.00400
C 	C 	0.61189 0.04669 0.96338 -0.00900
H 	H 	0.56020 0.14674 0.02483 0.05300
H 	H 	0.56494 0.90914 0.96074 0.05500
C 	C 	0.67143 0.06709 0.93551 0.08100
C 	C 	0.45746 0.99342 0.05170 0.09800
N 	N 	0.71957 0.08364 0.91329 -0.11500
N 	N 	0.41452 0.98183 0.07529 -0.11300
C 	C 	0.47889 0.52987 0.02733 -0.08200
C 	C 	0.49786 0.47499 0.04674 -0.00400
C 	C 	0.52005 0.41764 0.03108 -0.00600
C 	C 	0.52204 0.41399 0.99569 -0.05700
C 	C 	0.49571 0.46280 0.97651 -0.01800
C 	C 	0.47949 0.52425 0.99162 0.02300
H 	H 	0.49599 0.47732 0.07395 0.04400
H 	H 	0.49615 0.45900 0.94930 0.05500
C 	C 	0.46796 0.58361 0.97005 0.05500
C 	C 	0.54092 0.36287 0.05146 0.07900
N 	N 	0.45898 0.63089 0.95254 -0.13400
N 	N 	0.55763 0.31892 0.06775 -0.11400
C 	C 	0.75735 0.18679 0.75806 -0.05100
C 	C 	0.70304 0.15444 0.78640 0.00900
C 	C 	0.69887 0.08394 0.80473 0.02700
C 	C 	0.75418 0.05139 0.79601 -0.03600
C 	C 	0.64626 0.05353 0.83365 -0.06900
C 	C 	0.61040 0.10163 0.84726 0.01300
C 	C 	0.62694 0.17965 0.83188 -0.06900
C 	C 	0.66201 0.19855 0.79925 -0.01200
H 	H 	0.75316 0.99904 0.81059 0.06000
H 	H 	0.63879 0.99679 0.84699 0.06400
H 	H 	0.57807 0.08332 0.87152 0.04000
H 	H 	0.66896 0.25561 0.78624 0.04400
C 	C 	0.22115 0.25183 0.78463 -0.06700
C 	C 	0.19592 0.23797 0.81861 0.00500
C 	C 	0.25653 0.28214 0.84366 -0.05400
C 	C 	0.34275 0.34047 0.83479 0.01500
C 	C 	0.36475 0.36418 0.80067 0.01800
C 	C 	0.30281 0.32081 0.77569 -0.01700
C 	C 	0.45077 0.42311 0.79183 -0.05700
C 	C 	0.51610 0.44840 0.81575 0.01300
C 	C 	0.49597 0.41421 0.84862 -0.07300
C 	C 	0.40861 0.36712 0.85882 -0.01700
H 	H 	0.13164 0.18707 0.82567 0.03000
H 	H 	0.23790 0.26632 0.86983 0.04600
H 	H 	0.32126 0.33378 0.74936 0.04700
H 	H 	0.46784 0.44518 0.76603 0.04900
H 	H 	0.58295 0.48984 0.80813 0.04000
H 	H 	0.39226 0.34486 0.88465 0.04200
H 	H 	0.11018 0.81496 0.81366 0.03900
H 	H 	0.79770 0.71240 0.94439 0.04300
H 	H 	0.01221 0.03523 0.25571 0.13400
H 	H 	0.75886 0.23888 0.74316 0.04500
C 	C 	0.85324 0.72435 0.92904 0.00600
C 	C 	0.88745 0.41836 0.91959 0.27700
O 	O 	0.86676 0.45471 0.89424 -0.36300
C 	C 	0.85517 0.43848 0.53005 0.27500
O 	O 	0.84260 0.39798 0.55934 -0.38600
C 	C 	0.85434 0.96928 0.68672 0.31500
C 	C 	0.87808 0.06180 0.76248 0.27700
Ni	Ni	0.91465 0.91546 0.74518 1.12700
O 	O 	0.87347 0.91120 0.69812 -0.39000
O 	O 	0.85117 0.97701 0.76294 -0.37200
C 	C 	0.89531 0.03151 0.29786 0.27600
Ni	Ni	0.88622 0.91650 0.24036 1.12300
O 	O 	0.94874 0.10836 0.28402 -0.36000
O 	O 	0.84499 0.96386 0.27886 -0.36700
O 	O 	0.81398 0.93916 0.20667 -0.38000
H 	H 	0.88724 0.91627 0.34463 0.04200
C 	C 	0.94641 0.48886 0.51763 -0.03100
C 	C 	0.93323 0.62024 0.50670 0.08900
N 	N 	0.89286 0.65540 0.50634 -0.10800
C 	C 	0.90996 0.60081 0.65099 0.02800
C 	C 	0.91117 0.59843 0.68649 0.01000
C 	C 	0.86971 0.51847 0.70352 -0.05100
C 	C 	0.81962 0.44245 0.68568 0.00800
C 	C 	0.81220 0.44579 0.65074 -0.06500
C 	C 	0.86193 0.52387 0.63326 -0.02100
H 	H 	0.87220 0.51571 0.73068 0.04500
H 	H 	0.78260 0.38175 0.69919 0.03400
H 	H 	0.85709 0.52576 0.60612 0.04900
C 	C 	0.81516 0.09071 0.76992 -0.06100
C 	C 	0.81401 0.15588 0.75014 0.00200
H 	H 	0.85765 0.18314 0.72881 0.03700
C 	C 	0.95718 0.80929 0.88533 0.00400
C 	C 	0.89372 0.79928 0.90899 -0.04500
C 	C 	0.87736 0.66019 0.92603 -0.06300
C 	C 	0.95211 0.67876 0.90748 -0.03000
H 	H 	0.95399 0.91346 0.85817 0.04800
H 	H 	0.87082 0.84576 0.90997 0.05100
H 	H 	0.97300 0.63111 0.90631 0.05600
C 	C 	0.06918 0.81522 0.83388 0.01900
H 	H 	0.07504 0.71325 0.86102 0.05400
O 	O 	0.95069 0.82670 0.73269 -0.38100
C 	C 	0.94993 0.68078 0.63396 -0.06500
C 	C 	0.94688 0.67589 0.70444 -0.00600
H 	H 	0.95128 0.68330 0.60673 0.05900
O 	O 	0.95398 0.90814 0.79207 -0.36200
O 	O 	0.90495 0.05268 0.69222 -0.38800
Ni	Ni	0.96869 0.12468 0.23209 1.11600
O 	O 	0.89791 0.84047 0.20554 -0.38100
H 	H 	0.92586 0.16383 0.12260 0.02800
H 	H 	0.97300 0.38576 0.53036 0.06400
C 	C 	0.97821 0.75513 0.68727 -0.08500
C 	C 	0.98343 0.75768 0.65207 0.03800
H 	H 	0.94611 0.67438 0.73172 0.04700
N 	N 	0.91961 0.27701 0.98390 -0.11700
C 	C 	0.98916 0.75039 0.88553 0.04500
C 	C 	0.98064 0.86995 0.85897 0.00500
C 	C 	0.04277 0.52891 0.91150 -0.05100
C 	C 	0.94164 0.86806 0.17714 0.30100
C 	C 	0.99725 0.83342 0.70592 0.32500
C 	C 	0.02562 0.90463 0.79878 0.27500
O 	O 	0.95940 0.12063 0.75534 -0.37700
O 	O 	0.97342 0.13452 0.17971 -0.36000
O 	O 	0.96013 0.88765 0.27018 -0.37100
O 	O 	0.98483 0.02738 0.23357 -0.70000
H 	H 	0.95674 0.24205 0.06855 0.07800
H 	H 	0.02227 0.75461 0.37376 0.04500
C 	C 	0.00022 0.45188 0.52122 -0.05600
C 	C 	0.98372 0.57649 0.50716 0.01300
H 	H 	0.00970 0.81895 0.63870 0.02600
C 	C 	0.00179 0.43455 0.96025 -0.05200
C 	C 	0.97984 0.45545 0.92883 -0.00900
H 	H 	0.03193 0.54058 0.88565 0.04800
C 	C 	0.95620 0.34710 0.97340 0.11700
C 	C 	0.03010 0.86744 0.83162 -0.08300
C 	C 	0.04917 0.75732 0.86083 -0.08200
