data_crystal

_cell_length_a 32.19969
_cell_length_b 28.62613
_cell_length_c 32.02475
_cell_angle_alpha 103.57148
_cell_angle_beta  115.70184
_cell_angle_gamma 112.55817

_symmetry_space_group_name_	'P 1'
_symmetry_space_group_name_H-M	'P 1'

loop_
_symmetry_equiv_pos_as_xyz
  x,y,z

loop_
_atom_site_label
_atom_site_type_symbol
_atom_site_fract_x
_atom_site_fract_y
_atom_site_fract_z
_atom_site_charge
C 	C 	0.57178 0.24938 0.87776 0.03300
C 	C 	0.59499 0.30506 0.88330 -0.07700
C 	C 	0.63916 0.32799 0.87905 0.03400
C 	C 	0.65978 0.29500 0.86880 -0.07600
C 	C 	0.63671 0.23936 0.86326 0.03400
C 	C 	0.59216 0.21631 0.86698 -0.07700
H 	H 	0.57967 0.33094 0.89218 0.05100
H 	H 	0.69466 0.31320 0.86656 0.05300
H 	H 	0.57430 0.17330 0.86278 0.04800
C 	C 	0.57780 0.25693 0.38631 0.03200
C 	C 	0.59120 0.30817 0.38313 -0.07800
C 	C 	0.63258 0.33332 0.37576 0.03300
C 	C 	0.66007 0.30678 0.37092 -0.07800
C 	C 	0.64729 0.25599 0.37468 0.03200
C 	C 	0.60571 0.23075 0.38181 -0.07800
H 	H 	0.57004 0.32877 0.38710 0.04900
H 	H 	0.69261 0.32665 0.36594 0.05100
H 	H 	0.59630 0.19189 0.38547 0.04900
C 	C 	0.47187 0.76127 0.98080 0.03000
C 	C 	0.44805 0.79255 0.98504 -0.07400
C 	C 	0.40119 0.76912 0.98539 0.03000
C 	C 	0.37880 0.71471 0.98250 -0.07400
C 	C 	0.40279 0.68351 0.97884 0.02900
C 	C 	0.44930 0.70679 0.97790 -0.07400
H 	H 	0.46555 0.83471 0.98747 0.05200
H 	H 	0.34212 0.69617 0.98203 0.05000
H 	H 	0.46755 0.68246 0.97450 0.05000
C 	C 	0.47383 0.76423 0.48336 0.03200
C 	C 	0.44832 0.79403 0.48576 -0.07700
C 	C 	0.40119 0.76971 0.48561 0.03300
C 	C 	0.38017 0.71589 0.48401 -0.07700
C 	C 	0.40582 0.68616 0.48217 0.03200
C 	C 	0.45263 0.71034 0.48176 -0.07700
H 	H 	0.46475 0.83575 0.48719 0.05200
H 	H 	0.34330 0.69665 0.48315 0.04900
H 	H 	0.47216 0.68714 0.47977 0.04900
Zn	Zn	0.13887 0.11616 0.98191 1.18300
Zn	Zn	0.04581 0.06698 0.86807 1.18500
O 	O 	0.03764 0.96941 0.78626 -0.45900
O 	O 	0.01733 0.03802 0.79083 -0.46100
O 	O 	0.04062 0.90445 0.86297 -0.51100
C 	C 	0.19074 0.08447 0.93989 0.30800
O 	O 	0.99436 0.98904 0.85159 -0.83600
C 	C 	0.14168 0.19252 0.93389 0.31700
O 	O 	0.19980 0.11364 0.98464 -0.46700
O 	O 	0.14004 0.05223 0.89640 -0.37600
O 	O 	0.06416 0.07957 0.94109 -0.80000
O 	O 	0.08804 0.98400 0.94171 -0.44800
O 	O 	0.10308 0.14564 0.88698 -0.46000
O 	O 	0.15797 0.18935 0.97809 -0.46500
Zn	Zn	0.89638 0.90108 0.87779 1.17800
Zn	Zn	0.99302 0.93498 0.97735 1.20300
Zn	Zn	0.01582 0.00122 0.92153 1.19800
C 	C 	0.89252 0.81672 0.91918 0.32100
C 	C 	0.87118 0.94789 0.94339 0.32400
O 	O 	0.94462 0.02197 0.90195 -0.46900
Zn	Zn	0.00327 0.04454 0.01174 1.18300
O 	O 	0.94598 0.85345 0.95758 -0.44800
O 	O 	0.86648 0.82712 0.88122 -0.46300
O 	O 	0.85415 0.92577 0.89392 -0.47500
O 	O 	0.92069 0.96275 0.98047 -0.45700
C 	C 	0.02651 0.00491 0.08847 0.28200
O 	O 	0.96692 0.92316 0.90247 -0.77300
C 	C 	0.94521 0.06329 0.93158 0.31800
O 	O 	0.02033 0.96058 0.05551 -0.43000
O 	O 	0.03269 0.04986 0.08117 -0.48400
O 	O 	0.97166 0.08193 0.98259 -0.47900
O 	O 	0.03640 0.01333 0.99103 -0.91100
Zn	Zn	0.01105 0.93838 0.82508 1.17800
C 	C 	0.02562 0.00197 0.76705 0.27500
C 	C 	0.08273 0.93798 0.91288 0.31700
H 	H 	0.07660 0.03328 0.01810 0.14700
H 	H 	0.95506 0.97526 0.82742 0.15400
Zn	Zn	0.14392 0.11664 0.48644 1.18200
Zn	Zn	0.05224 0.07168 0.37233 1.18500
O 	O 	0.03682 0.97174 0.28618 -0.47500
O 	O 	0.02328 0.04528 0.29512 -0.45500
O 	O 	0.03482 0.90289 0.35907 -0.51200
C 	C 	0.19823 0.08446 0.44764 0.30500
O 	O 	0.99657 0.99449 0.35351 -0.83600
C 	C 	0.15146 0.19532 0.44075 0.31400
O 	O 	0.20503 0.11235 0.49143 -0.46900
O 	O 	0.14870 0.05339 0.40268 -0.36100
O 	O 	0.06946 0.08238 0.44467 -0.80200
O 	O 	0.08580 0.98145 0.43952 -0.44600
O 	O 	0.11358 0.14895 0.39345 -0.45800
O 	O 	0.16650 0.19109 0.48441 -0.46600
Zn	Zn	0.89602 0.90914 0.37852 1.17800
Zn	Zn	0.98996 0.93483 0.47495 1.20200
Zn	Zn	0.01749 0.00427 0.42280 1.19800
C 	C 	0.88497 0.81922 0.41335 0.32000
C 	C 	0.87442 0.95607 0.44789 0.31900
O 	O 	0.95073 0.03129 0.40725 -0.46800
Zn	Zn	0.00772 0.04743 0.51520 1.18600
O 	O 	0.93848 0.85326 0.45221 -0.44500
O 	O 	0.86147 0.83300 0.37729 -0.46300
O 	O 	0.85740 0.93697 0.39840 -0.47200
O 	O 	0.92320 0.96822 0.48370 -0.45700
C 	C 	0.02770 0.00333 0.58854 0.33200
O 	O 	0.96495 0.92647 0.40117 -0.77300
C 	C 	0.95316 0.07268 0.43911 0.32400
O 	O 	0.01697 0.95741 0.55278 -0.42500
O 	O 	0.03708 0.04997 0.58349 -0.49500
O 	O 	0.97971 0.08891 0.48972 -0.48400
O 	O 	0.03749 0.01351 0.49155 -0.92200
Zn	Zn	0.00862 0.94049 0.32389 1.17700
C 	C 	0.02694 0.00613 0.26856 0.31900
C 	C 	0.07790 0.93464 0.40865 0.31700
H 	H 	0.07730 0.03088 0.51807 0.15700
H 	H 	0.95815 0.98371 0.33024 0.15600
C 	C 	0.02568 0.00126 0.72086 -0.09800
C 	C 	0.99481 0.01749 0.68842 -0.01000
C 	C 	0.99542 0.01769 0.64515 0.07000
C 	C 	0.02676 0.00156 0.63363 -0.21900
C 	C 	0.05761 0.98497 0.66585 0.22000
C 	C 	0.05683 0.98465 0.70921 -0.07300
H 	H 	0.97119 0.03009 0.62028 0.01700
H 	H 	0.08114 0.97240 0.73419 0.06800
H 	H 	0.97005 0.02964 0.69651 0.04100
O 	O 	0.08839 0.96899 0.65505 -0.28000
H 	H 	0.12551 0.00513 0.67526 0.11800
C 	C 	0.02593 0.00397 0.13383 -0.10000
C 	C 	0.05913 0.99067 0.16766 -0.01600
C 	C 	0.05950 0.99155 0.21167 0.05700
C 	C 	0.02598 0.00490 0.22180 -0.21900
C 	C 	0.99132 0.01650 0.18678 0.23000
C 	C 	0.99212 0.01690 0.14354 -0.06200
H 	H 	0.08631 0.98249 0.23822 0.02700
H 	H 	0.96580 0.02644 0.11706 0.05900
H 	H 	0.08536 0.98064 0.16042 0.03700
O 	O 	0.95673 0.02749 0.19476 -0.30800
H 	H 	0.92143 0.98930 0.17479 0.15600
C 	C 	0.38267 0.62900 0.47936 -0.00700
C 	C 	0.35825 0.57931 0.43325 -0.03500
C 	C 	0.33123 0.52463 0.42850 -0.04800
C 	C 	0.32852 0.51932 0.46981 0.01700
C 	C 	0.35417 0.56894 0.51643 -0.04700
C 	C 	0.38117 0.62361 0.52123 -0.03400
C 	C 	0.29770 0.46299 0.46369 -0.01700
C 	C 	0.27205 0.41614 0.45914 -0.03100
C 	C 	0.24130 0.36050 0.45421 0.04100
C 	C 	0.23472 0.35694 0.49406 -0.07700
C 	C 	0.20492 0.30304 0.48943 0.01900
C 	C 	0.18145 0.25217 0.44481 -0.10200
C 	C 	0.18785 0.25592 0.40474 0.02100
C 	C 	0.21769 0.30992 0.40950 -0.07600
H 	H 	0.35906 0.58300 0.40067 0.03500
H 	H 	0.31167 0.48645 0.39241 0.03700
H 	H 	0.35246 0.56518 0.54863 0.03900
H 	H 	0.40005 0.66170 0.55704 0.03600
H 	H 	0.25267 0.39589 0.52864 0.04500
H 	H 	0.19994 0.30085 0.52041 0.02200
H 	H 	0.17040 0.21715 0.37031 0.03400
H 	H 	0.22257 0.31237 0.37850 0.04500
C 	C 	0.83317 0.94598 0.45972 -0.09700
C 	C 	0.83848 0.93234 0.50045 0.02200
C 	C 	0.79541 0.91424 0.50647 -0.07100
C 	C 	0.74686 0.90983 0.47208 0.04400
C 	C 	0.74259 0.92624 0.43321 -0.07200
C 	C 	0.78565 0.94447 0.42715 0.02400
C 	C 	0.70017 0.88516 0.47455 -0.02600
C 	C 	0.66102 0.86453 0.47650 -0.01400
C 	C 	0.61390 0.83926 0.47827 0.02000
C 	C 	0.56215 0.82383 0.43718 -0.04600
C 	C 	0.51626 0.79869 0.43852 -0.03300
C 	C 	0.52186 0.78885 0.48105 -0.00600
C 	C 	0.57367 0.80404 0.52202 -0.03300
C 	C 	0.61954 0.82916 0.52060 -0.04600
H 	H 	0.87498 0.93365 0.52618 0.04000
H 	H 	0.79923 0.90220 0.53697 0.04900
H 	H 	0.70544 0.92364 0.40691 0.05100
H 	H 	0.78150 0.95610 0.39637 0.03500
H 	H 	0.55742 0.83127 0.40421 0.04200
H 	H 	0.47641 0.78695 0.40662 0.03600
H 	H 	0.57848 0.79682 0.55509 0.03600
H 	H 	0.65939 0.84079 0.55241 0.03900
C 	C 	0.12352 0.92612 0.42552 -0.11300
C 	C 	0.14267 0.92005 0.39401 0.03100
C 	C 	0.18371 0.90848 0.40800 -0.07700
C 	C 	0.20559 0.90234 0.45331 0.04700
C 	C 	0.18800 0.91044 0.48596 -0.07800
C 	C 	0.14725 0.92269 0.47226 0.02700
C 	C 	0.24287 0.88355 0.46386 -0.02800
C 	C 	0.27393 0.86775 0.47104 -0.01300
C 	C 	0.30975 0.84750 0.47720 0.01900
C 	C 	0.33263 0.83782 0.52009 -0.04600
C 	C 	0.36377 0.81379 0.52365 -0.03300
C 	C 	0.37198 0.79908 0.48413 -0.00600
C 	C 	0.34997 0.80997 0.44182 -0.03300
C 	C 	0.31905 0.83416 0.43844 -0.04600
H 	H 	0.12540 0.92382 0.35842 0.02000
H 	H 	0.19760 0.90300 0.38294 0.05000
H 	H 	0.20501 0.90613 0.52127 0.04900
H 	H 	0.13318 0.92799 0.49717 0.01100
H 	H 	0.32564 0.84808 0.55023 0.04200
H 	H 	0.38087 0.80590 0.55665 0.03700
H 	H 	0.35588 0.79861 0.41103 0.03600
H 	H 	0.30145 0.84151 0.40515 0.04100
C 	C 	0.37827 0.62585 0.97480 0.00200
C 	C 	0.35156 0.57640 0.92743 -0.03600
C 	C 	0.32312 0.52145 0.92165 -0.04900
C 	C 	0.32127 0.51564 0.96318 0.02700
C 	C 	0.34922 0.56496 0.01101 -0.05600
C 	C 	0.37764 0.61989 0.01683 -0.04300
C 	C 	0.28905 0.45922 0.95615 -0.01900
C 	C 	0.26230 0.41236 0.95102 -0.02600
C 	C 	0.23043 0.35688 0.94574 0.03900
C 	C 	0.22281 0.35371 0.98510 -0.06900
C 	C 	0.19289 0.30003 0.98071 0.02800
C 	C 	0.17034 0.24897 0.93684 -0.10500
C 	C 	0.17737 0.25227 0.89702 0.02100
C 	C 	0.20737 0.30607 0.90153 -0.07500
H 	H 	0.35171 0.58055 0.89472 0.03500
H 	H 	0.30179 0.48350 0.88463 0.03800
H 	H 	0.34820 0.56079 0.04338 0.03900
H 	H 	0.39826 0.65780 0.05359 0.03600
H 	H 	0.24028 0.39283 0.01924 0.03700
H 	H 	0.18733 0.29815 0.01144 0.01300
H 	H 	0.16056 0.21331 0.86313 0.03200
H 	H 	0.21301 0.30821 0.87088 0.04500
C 	C 	0.51958 0.78501 0.97796 0.00300
C 	C 	0.57107 0.79880 0.01818 -0.04200
C 	C 	0.61678 0.82341 0.01645 -0.05300
C 	C 	0.61127 0.83437 0.97452 0.02600
C 	C 	0.55980 0.82025 0.93415 -0.04600
C 	C 	0.51410 0.79563 0.93582 -0.03400
C 	C 	0.65819 0.85933 0.97247 -0.01100
C 	C 	0.69728 0.88022 0.97048 -0.03000
C 	C 	0.74371 0.90420 0.96758 0.06200
C 	C 	0.73844 0.91742 0.92682 -0.08200
C 	C 	0.78141 0.93481 0.92060 0.03400
C 	C 	0.82980 0.93862 0.95489 -0.10900
C 	C 	0.83598 0.92812 0.99733 0.05100
C 	C 	0.79303 0.91087 0.00350 -0.10100
H 	H 	0.57578 0.79095 0.05095 0.03600
H 	H 	0.65641 0.83404 0.04771 0.03800
H 	H 	0.55519 0.82836 0.90151 0.04200
H 	H 	0.47449 0.78498 0.90450 0.03700
H 	H 	0.70064 0.91300 0.89924 0.05300
H 	H 	0.77654 0.94398 0.88841 0.03100
H 	H 	0.87313 0.93117 0.02434 0.02600
H 	H 	0.79758 0.90124 0.03540 0.05300
C 	C 	0.13015 0.93247 0.93222 -0.11100
C 	C 	0.15494 0.93410 0.90534 0.02900
C 	C 	0.19622 0.92287 0.91990 -0.07400
C 	C 	0.21251 0.90915 0.96096 0.04200
C 	C 	0.18953 0.90994 0.98944 -0.06700
C 	C 	0.14859 0.92192 0.97527 0.02200
C 	C 	0.24864 0.88896 0.97023 -0.02400
C 	C 	0.27896 0.87229 0.97653 -0.01500
C 	C 	0.31381 0.85098 0.98147 0.02800
C 	C 	0.33593 0.83968 0.02337 -0.05400
C 	C 	0.36584 0.81438 0.02552 -0.04100
C 	C 	0.37354 0.79999 0.98558 0.00300
C 	C 	0.35237 0.81256 0.94432 -0.03400
C 	C 	0.32271 0.83804 0.94236 -0.04700
H 	H 	0.14130 0.94277 0.87237 0.02400
H 	H 	0.21423 0.92296 0.89809 0.05200
H 	H 	0.20220 0.89973 0.02149 0.03800
H 	H 	0.12999 0.92108 0.99654 0.00900
H 	H 	0.32924 0.84962 0.05378 0.04100
H 	H 	0.38233 0.80521 0.05773 0.03600
H 	H 	0.35791 0.80147 0.91321 0.03700
H 	H 	0.30569 0.84665 0.90984 0.04200
C 	C 	0.91776 0.09313 0.41685 -0.11400
C 	C 	0.86107 0.05336 0.37613 0.02400
C 	C 	0.82513 0.07202 0.36321 -0.08100
C 	C 	0.84586 0.13054 0.39041 0.04500
C 	C 	0.90292 0.17074 0.42826 -0.07700
C 	C 	0.93875 0.15211 0.44154 0.02900
C 	C 	0.80852 0.14864 0.38384 -0.03000
C 	C 	0.77894 0.16588 0.37977 -0.01500
C 	C 	0.74567 0.18859 0.37764 0.01800
C 	C 	0.76996 0.24355 0.41744 -0.04600
C 	C 	0.73770 0.26529 0.41667 -0.03300
C 	C 	0.68086 0.23227 0.37592 -0.00600
C 	C 	0.65648 0.17715 0.33606 -0.03400
C 	C 	0.68886 0.15535 0.33695 -0.04800
H 	H 	0.84448 0.00780 0.35631 0.01100
H 	H 	0.78107 0.04073 0.33354 0.04200
H 	H 	0.91928 0.21616 0.44898 0.05300
H 	H 	0.98254 0.18324 0.47251 0.02700
H 	H 	0.81381 0.26932 0.44915 0.04300
H 	H 	0.75681 0.30776 0.44774 0.03900
H 	H 	0.61264 0.15140 0.30437 0.03300
H 	H 	0.66978 0.11270 0.30617 0.03600
C 	C 	0.65006 0.38955 0.37687 -0.00700
C 	C 	0.64491 0.39431 0.33250 -0.03300
C 	C 	0.66940 0.44871 0.33614 -0.04700
C 	C 	0.69910 0.49863 0.38410 0.01900
C 	C 	0.70204 0.49390 0.42773 -0.04600
C 	C 	0.67756 0.43951 0.42414 -0.03300
C 	C 	0.73001 0.55447 0.38965 -0.01400
C 	C 	0.75576 0.60105 0.39393 -0.02700
C 	C 	0.78716 0.65640 0.39893 0.04400
C 	C 	0.83258 0.70344 0.44893 -0.07200
C 	C 	0.86462 0.75661 0.45368 0.02300
C 	C 	0.85144 0.76305 0.40833 -0.09700
C 	C 	0.80559 0.71585 0.35827 0.02300
C 	C 	0.77364 0.66274 0.35365 -0.07500
H 	H 	0.62346 0.35597 0.29575 0.03500
H 	H 	0.66664 0.45208 0.30214 0.04000
H 	H 	0.72465 0.53233 0.46485 0.04100
H 	H 	0.68171 0.43627 0.45860 0.03700
H 	H 	0.84324 0.69879 0.48411 0.05100
H 	H 	0.89939 0.79284 0.49257 0.04200
H 	H 	0.79507 0.72009 0.32293 0.02600
H 	H 	0.73867 0.62644 0.31484 0.04700
C 	C 	0.53639 0.23218 0.39685 -0.00700
C 	C 	0.48691 0.17777 0.35889 -0.03500
C 	C 	0.44723 0.15483 0.36857 -0.04900
C 	C 	0.45682 0.18607 0.41624 0.01700
C 	C 	0.50659 0.24000 0.45453 -0.04700
C 	C 	0.54628 0.26300 0.44489 -0.03400
C 	C 	0.41437 0.16432 0.42461 -0.01700
C 	C 	0.37879 0.14606 0.43158 -0.03100
C 	C 	0.33589 0.12549 0.43952 0.04100
C 	C 	0.34394 0.15973 0.48506 -0.07500
C 	C 	0.29971 0.14453 0.48923 0.02000
C 	C 	0.24686 0.09500 0.44761 -0.09800
C 	C 	0.23985 0.05881 0.40349 0.01900
C 	C 	0.28420 0.07416 0.39944 -0.07700
H 	H 	0.47899 0.15361 0.32175 0.03200
H 	H 	0.40879 0.11315 0.33877 0.03500
H 	H 	0.51427 0.26438 0.49148 0.04000
H 	H 	0.58457 0.30482 0.47461 0.03700
H 	H 	0.38398 0.19921 0.51643 0.04700
H 	H 	0.30605 0.17255 0.52382 0.03000
H 	H 	0.19970 0.01981 0.37159 0.02300
H 	H 	0.27786 0.04711 0.36437 0.04100
C 	C 	0.66262 0.20756 0.85864 -0.00700
C 	C 	0.66839 0.19537 0.81709 -0.03400
C 	C 	0.69891 0.17157 0.81641 -0.04800
C 	C 	0.72354 0.15962 0.85706 0.01900
C 	C 	0.71573 0.16937 0.89723 -0.04700
C 	C 	0.68550 0.19338 0.89812 -0.03300
C 	C 	0.76084 0.14238 0.86041 -0.01600
C 	C 	0.79245 0.12796 0.86500 -0.02700
C 	C 	0.83185 0.11252 0.87363 0.03800
C 	C 	0.81358 0.05438 0.84960 -0.06700
C 	C 	0.85148 0.03842 0.86567 -0.01000
C 	C 	0.90768 0.08053 0.90648 -0.10200
C 	C 	0.92625 0.13898 0.92804 0.02200
C 	C 	0.88847 0.15491 0.91152 -0.07100
H 	H 	0.65042 0.20566 0.78615 0.03600
H 	H 	0.70458 0.16387 0.78509 0.04000
H 	H 	0.73453 0.16002 0.92868 0.04200
H 	H 	0.68133 0.20264 0.93037 0.03700
H 	H 	0.76986 0.02136 0.82004 0.03700
H 	H 	0.83677 0.99320 0.84828 0.04200
H 	H 	0.96968 0.17187 0.95904 0.02900
H 	H 	0.90292 0.20001 0.92993 0.05200
C 	C 	0.86199 0.76126 0.91672 -0.09800
C 	C 	0.80529 0.73420 0.89479 0.02300
C 	C 	0.77615 0.68131 0.89197 -0.07500
C 	C 	0.80343 0.65515 0.91110 0.04400
C 	C 	0.86007 0.68224 0.93345 -0.07300
C 	C 	0.88932 0.73513 0.93631 0.02600
C 	C 	0.77315 0.59997 0.90690 -0.02700
C 	C 	0.74832 0.55377 0.90364 -0.01400
C 	C 	0.71934 0.49840 0.89969 0.02000
C 	C 	0.66403 0.45680 0.85661 -0.04700
C 	C 	0.63717 0.40150 0.85065 -0.03300
C 	C 	0.66561 0.38754 0.88773 -0.00600
C 	C 	0.72050 0.42975 0.93161 -0.03200
C 	C 	0.74729 0.48499 0.93752 -0.04600
H 	H 	0.78389 0.75429 0.88024 0.03000
H 	H 	0.73237 0.66064 0.87480 0.04800
H 	H 	0.88139 0.66217 0.94829 0.05300
H 	H 	0.93297 0.75538 0.95314 0.03700
H 	H 	0.64215 0.46696 0.82728 0.04000
H 	H 	0.59475 0.36919 0.81670 0.03500
H 	H 	0.74265 0.41942 0.96060 0.04000
H 	H 	0.79001 0.51703 0.97102 0.04400
C 	C 	0.23770 0.09435 0.93693 -0.10100
C 	C 	0.22780 0.06222 0.88917 0.01800
C 	C 	0.27115 0.07757 0.88367 -0.07600
C 	C 	0.32470 0.12484 0.92580 0.03900
C 	C 	0.33544 0.15471 0.97448 -0.06700
C 	C 	0.29219 0.13946 0.98016 0.02800
C 	C 	0.36743 0.14557 0.91771 -0.02800
C 	C 	0.40305 0.16272 0.91068 -0.01700
C 	C 	0.44523 0.18368 0.90192 0.01800
C 	C 	0.49691 0.19368 0.93632 -0.04800
C 	C 	0.53831 0.21526 0.92849 -0.03300
C 	C 	0.52819 0.22690 0.88611 -0.00700
C 	C 	0.47639 0.21684 0.85169 -0.03400
C 	C 	0.43502 0.19527 0.85958 -0.04800
H 	H 	0.18630 0.02654 0.85578 0.02500
H 	H 	0.26274 0.05380 0.84612 0.04200
H 	H 	0.37696 0.19087 0.00744 0.03900
H 	H 	0.30080 0.16402 0.01756 0.02200
H 	H 	0.50511 0.18498 0.96922 0.04100
H 	H 	0.57828 0.22313 0.95539 0.03700
H 	H 	0.46818 0.22558 0.81881 0.03400
H 	H 	0.39514 0.18772 0.83290 0.03700
