data_crystal

_cell_length_a 16.71291
_cell_length_b 15.37129
_cell_length_c 35.64068
_cell_angle_alpha 89.87778
_cell_angle_beta  89.87988
_cell_angle_gamma 119.40585

_symmetry_space_group_name_	'P 1'
_symmetry_space_group_name_H-M	'P 1'

loop_
_symmetry_equiv_pos_as_xyz
  x,y,z

loop_
_atom_site_label
_atom_site_type_symbol
_atom_site_fract_x
_atom_site_fract_y
_atom_site_fract_z
_atom_site_charge
Ni	Ni	0.06417 0.95476 0.76035 1.10100
Ni	Ni	0.07461 0.16428 0.73798 1.12000
O 	O 	0.02143 0.14992 0.19427 -0.36100
O 	O 	0.01202 0.87787 0.30598 -0.36400
O 	O 	0.00189 0.19297 0.27011 -0.36400
H 	H 	0.02988 0.20759 0.03631 0.17500
H 	H 	0.00865 0.36185 0.26605 0.07400
H 	H 	0.06210 0.57556 0.26461 0.15600
C 	C 	0.01781 0.45372 0.46823 -0.06200
C 	C 	0.01027 0.43537 0.50713 0.11000
N 	N 	0.07426 0.41295 0.52555 -0.01600
C 	C 	0.07580 0.50775 0.94170 -0.01600
C 	C 	0.10877 0.58259 0.00424 -0.07000
H 	H 	0.09143 0.51451 0.91195 0.06500
H 	H 	0.08596 0.84474 0.85276 0.15600
C 	C 	0.06762 0.11324 0.17656 0.32400
C 	C 	0.09232 0.24733 0.26627 0.30100
C 	C 	0.05962 0.85129 0.22786 0.32300
C 	C 	0.07106 0.96012 0.32451 0.29100
C 	C 	0.05156 0.16535 0.11208 -0.04200
C 	C 	0.09403 0.23168 0.08209 0.17800
O 	O 	0.04189 0.25264 0.05798 -0.26300
C 	C 	0.08136 0.40446 0.27217 -0.05500
O 	O 	0.06260 0.54446 0.28893 -0.27500
C 	C 	0.04378 0.86023 0.38416 0.19700
C 	C 	0.12871 0.58958 0.96544 0.09200
O 	O 	0.10165 0.10446 0.69353 -0.39900
O 	O 	0.09272 0.05543 0.19416 -0.35600
C 	C 	0.10553 0.15155 0.13898 -0.09500
C 	C 	0.02912 0.70117 0.18972 -0.05600
C 	C 	0.08457 0.83267 0.41288 -0.07700
H 	H 	0.04582 0.76004 0.42613 0.07900
H 	H 	0.00746 0.21045 0.63449 0.08200
O 	O 	0.08560 0.89504 0.87005 -0.27800
O 	O 	0.00127 0.56497 0.14921 -0.26500
C 	C 	0.05698 0.63628 0.17442 0.16800
H 	H 	0.04837 0.40037 0.78067 0.07600
O 	O 	0.09183 0.34588 0.51168 -0.07600
O 	O 	0.11738 0.46201 0.55541 -0.09300
C 	C 	0.09777 0.94858 0.36333 -0.13000
C 	C 	0.22107 0.14141 0.78618 0.30000
C 	C 	0.16910 0.08694 0.69437 0.34400
O 	O 	0.15855 0.05208 0.79722 -0.36100
O 	O 	0.19880 0.20149 0.76606 -0.35800
O 	O 	0.16942 0.02473 0.71967 -0.35800
C 	C 	0.23247 0.83757 0.42031 0.29200
C 	C 	0.11037 0.51790 0.45428 0.30100
C 	C 	0.23029 0.61094 0.33124 0.31500
Ni	Ni	0.28709 0.70195 0.46700 1.11900
Ni	Ni	0.26922 0.54981 0.40158 1.12200
O 	O 	0.26367 0.82295 0.45319 -0.34900
O 	O 	0.26392 0.82561 0.38770 -0.36800
O 	O 	0.30069 0.58426 0.49118 -0.34000
O 	O 	0.30303 0.70367 0.33449 -0.36300
O 	O 	0.19121 0.55517 0.36090 -0.38700
O 	O 	0.14991 0.60879 0.46787 -0.37100
O 	O 	0.15920 0.47859 0.43887 -0.35300
O 	O 	0.28123 0.67486 0.41575 -0.71200
H 	H 	0.22017 0.66500 0.40916 0.17500
C 	C 	0.18902 0.61329 0.15561 0.32600
C 	C 	0.22936 0.39786 0.07652 0.33000
C 	C 	0.18657 0.61644 0.02987 0.32400
Ni	Ni	0.32963 0.55524 0.13044 1.11800
Ni	Ni	0.30372 0.73496 0.09476 1.12300
Ni	Ni	0.34584 0.59712 0.04113 1.12700
O 	O 	0.22352 0.70403 0.04734 -0.34700
O 	O 	0.24460 0.58123 0.16721 -0.35700
O 	O 	0.18805 0.63348 0.12033 -0.37500
O 	O 	0.39293 0.73434 0.01540 -0.36100
O 	O 	0.21663 0.44556 0.10381 -0.36900
O 	O 	0.29721 0.44787 0.05258 -0.36600
O 	O 	0.21524 0.55407 0.03643 -0.38700
O 	O 	0.34917 0.64471 0.09053 -0.71400
Ni	Ni	0.11092 0.05963 0.25041 1.12800
O 	O 	0.12067 0.93361 0.24474 -0.37900
O 	O 	0.12277 0.04604 0.30625 -0.35400
O 	O 	0.14245 0.20794 0.25278 -0.35900
C 	C 	0.19036 0.28998 0.08119 -0.10000
C 	C 	0.24156 0.25716 0.10215 -0.05600
C 	C 	0.19991 0.19023 0.13189 0.17600
H 	H 	0.31557 0.29706 0.10039 0.07100
O 	O 	0.25271 0.16882 0.15553 -0.26900
H 	H 	0.27565 0.22191 0.17488 0.14900
C 	C 	0.08651 0.77704 0.21459 -0.09900
C 	C 	0.14455 0.64913 0.18265 -0.11000
C 	C 	0.19769 0.71754 0.21047 -0.06100
C 	C 	0.16932 0.78148 0.22648 0.16800
H 	H 	0.26353 0.72520 0.21823 0.07900
O 	O 	0.22096 0.84555 0.25446 -0.27000
H 	H 	0.26875 0.90582 0.24136 0.15200
C 	C 	0.13634 0.35841 0.27083 -0.09100
C 	C 	0.11924 0.50456 0.28344 0.17200
C 	C 	0.21133 0.55747 0.29522 -0.09400
C 	C 	0.26979 0.52026 0.28460 -0.05900
C 	C 	0.23254 0.41901 0.27483 0.16800
H 	H 	0.34305 0.56507 0.28918 0.08400
O 	O 	0.28991 0.37974 0.27001 -0.27500
H 	H 	0.29654 0.35709 0.29532 0.15600
C 	C 	0.17926 0.89017 0.41926 -0.05900
C 	C 	0.18480 0.01763 0.37723 0.02600
C 	C 	0.22445 0.98944 0.40612 0.10400
H 	H 	0.22451 0.08997 0.36393 0.06100
O 	O 	0.31356 0.05268 0.41633 -0.24100
H 	H 	0.30910 0.09158 0.43755 0.17300
N 	N 	0.30718 0.95802 0.54807 -0.02400
O 	O 	0.25927 0.97927 0.52482 -0.09400
O 	O 	0.27268 0.91968 0.58069 -0.09300
H 	H 	0.27289 0.35282 0.49809 0.07700
O 	O 	0.27537 0.20097 0.53561 -0.08800
C 	C 	0.35873 0.19636 0.62246 -0.05500
C 	C 	0.27641 0.12953 0.64028 0.19200
C 	C 	0.25345 0.15653 0.67443 -0.11600
C 	C 	0.30350 0.25683 0.68592 -0.04000
H 	H 	0.37784 0.17489 0.59657 0.10200
O 	O 	0.21964 0.03827 0.62459 -0.25800
H 	H 	0.27773 0.28476 0.70792 0.05600
H 	H 	0.17805 0.04931 0.60787 0.17600
N 	N 	0.20760 0.67614 0.95069 -0.02400
O 	O 	0.26093 0.66635 0.92645 -0.09900
O 	O 	0.22583 0.76488 0.96135 -0.07900
N 	N 	0.40127 0.99546 0.03403 -0.04600
O 	O 	0.41393 0.05670 0.06141 -0.07200
O 	O 	0.31832 0.93404 0.02280 -0.08600
H 	H 	0.40513 0.36565 0.05162 0.07500
N 	N 	0.41384 0.33592 0.97887 -0.02300
O 	O 	0.37514 0.24512 0.99195 -0.08300
O 	O 	0.38946 0.35331 0.94630 -0.09900
C 	C 	0.38625 0.18494 0.77668 0.16800
C 	C 	0.31586 0.17842 0.80071 -0.08600
C 	C 	0.32634 0.17168 0.83955 -0.05100
C 	C 	0.40565 0.17436 0.85397 0.17700
O 	O 	0.37196 0.17136 0.73893 -0.28400
H 	H 	0.27038 0.15789 0.85845 0.08800
O 	O 	0.41095 0.15912 0.89165 -0.26500
H 	H 	0.35110 0.09963 0.73466 0.16700
C 	C 	0.34492 0.54383 0.47443 0.32000
Ni	Ni	0.35946 0.78408 0.38373 1.12300
O 	O 	0.37511 0.59158 0.36362 -0.36900
O 	O 	0.36188 0.55690 0.43873 -0.37500
C 	C 	0.43203 0.82452 0.03171 0.31100
O 	O 	0.42186 0.51311 0.10545 -0.35600
O 	O 	0.41293 0.83690 0.06661 -0.37800
O 	O 	0.37778 0.78326 0.14500 -0.35900
H 	H 	0.41480 0.69329 0.09279 0.16800
C 	C 	0.39273 0.96572 0.53635 0.10300
H 	H 	0.37521 0.98384 0.47739 0.08800
C 	C 	0.39755 0.34697 0.50849 0.10200
C 	C 	0.34676 0.39620 0.50137 -0.02700
C 	C 	0.39137 0.50015 0.49627 -0.06900
N 	N 	0.35016 0.24144 0.51551 -0.02200
O 	O 	0.37927 0.18517 0.50037 -0.08700
C 	C 	0.42258 0.28306 0.64135 -0.08900
C 	C 	0.39024 0.31929 0.67035 0.17800
C 	C 	0.47857 0.00184 0.01416 0.15000
C 	C 	0.48187 0.41683 0.00056 0.09300
C 	C 	0.46834 0.42148 0.03907 -0.02500
H 	H 	0.43265 0.22516 0.90359 0.17000
O 	O 	0.02650 0.22306 0.77597 -0.37700
H 	H 	0.02405 0.54906 0.81902 0.16100
O 	O 	0.42667 0.78365 0.46370 -0.35900
O 	O 	0.43182 0.89534 0.42269 -0.35600
C 	C 	0.47911 0.55785 0.07637 0.31100
C 	C 	0.44491 0.76400 0.15621 0.29600
O 	O 	0.47063 0.62234 0.05495 -0.38300
O 	O 	0.43162 0.67207 0.15831 -0.35900
H 	H 	0.46945 0.83436 0.24774 0.14600
C 	C 	0.41452 0.96958 0.49809 -0.05600
C 	C 	0.48730 0.91557 0.00872 -0.08900
H 	H 	0.53644 0.15925 0.00295 0.07900
C 	C 	0.48246 0.20127 0.83063 -0.08900
C 	C 	0.47007 0.20000 0.79169 -0.05300
C 	C 	0.45172 0.67848 0.36618 0.32900
C 	C 	0.45868 0.87586 0.45483 0.32400
O 	O 	0.45409 0.74390 0.38939 -0.38200
O 	O 	0.47089 0.77682 0.23593 -0.27500
H 	H 	0.48264 0.83136 0.32001 0.03800
C 	C 	0.45908 0.97769 0.56307 -0.11900
O 	O 	0.44544 0.41216 0.68522 -0.27400
C 	C 	0.54381 0.09370 0.99867 -0.03300
C 	C 	0.52494 0.50907 0.05874 -0.07600
H 	H 	0.52688 0.21591 0.77298 0.06900
C 	C 	0.49110 0.06512 0.58797 0.34900
C 	C 	0.51694 0.30157 0.64316 0.32000
O 	O 	0.53001 0.22879 0.65460 -0.37800
O 	O 	0.50179 0.14486 0.57188 -0.38700
C 	C 	0.48134 0.94511 0.48660 -0.08200
C 	C 	0.49460 0.40216 0.50976 -0.07200
C 	C 	0.48752 0.55512 0.49962 0.10400
H 	H 	0.47756 0.40120 0.70655 0.16200
C 	C 	0.55729 0.92139 0.98533 -0.04400
C 	C 	0.56528 0.48742 0.98388 -0.06500
C 	C 	0.52845 0.84041 0.17439 -0.09300
C 	C 	0.51731 0.71741 0.33480 -0.11200
O 	O 	0.50723 0.70897 0.52213 -0.08100
C 	C 	0.57249 0.27351 0.84594 0.29700
C 	C 	0.60204 0.45196 0.95439 0.30600
O 	O 	0.58091 0.36031 0.85585 -0.36900
C 	C 	0.54532 0.36253 0.53101 0.32600
O 	O 	0.55520 0.37927 0.56660 -0.38800
C 	C 	0.54318 0.81835 0.21119 0.16300
C 	C 	0.53529 0.80970 0.31912 -0.04300
C 	C 	0.52280 0.94789 0.55247 -0.02000
H 	H 	0.56470 0.85589 0.98104 0.07400
C 	C 	0.53864 0.50564 0.50366 -0.02600
O 	O 	0.54616 0.07657 0.61620 -0.35800
C 	C 	0.54214 0.94468 0.51403 0.08700
N 	N 	0.53347 0.66186 0.49930 -0.02000
H 	H 	0.02622 0.06503 0.78883 0.17200
O 	O 	0.57257 0.30423 0.51526 -0.34100
O 	O 	0.62908 0.38914 0.96540 -0.38200
O 	O 	0.58749 0.39183 0.63771 -0.37900
H 	H 	0.56605 0.94191 0.57356 0.06900
O 	O 	0.63190 0.50352 0.92194 -0.34100
C 	C 	0.61374 0.09971 0.97529 -0.05700
C 	C 	0.61290 0.57236 0.04413 0.10200
O 	O 	0.56577 0.59506 0.34316 -0.27800
C 	C 	0.62934 0.56730 0.00579 -0.03400
H 	H 	0.59733 0.91856 0.12383 0.06900
C 	C 	0.58444 0.68845 0.33168 0.18300
C 	C 	0.61980 0.01239 0.96820 0.12900
C 	C 	0.02653 0.50065 0.01687 -0.02300
H 	H 	0.58413 0.60244 0.36993 0.16900
O 	O 	0.01003 0.54549 0.79184 -0.28000
C 	C 	0.60573 0.89434 0.15141 -0.06700
H 	H 	0.61280 0.54917 0.50588 0.07000
H 	H 	0.64327 0.32653 0.91062 0.17600
O 	O 	0.60289 0.71201 0.47692 -0.07300
Ni	Ni	0.62499 0.22527 0.54566 1.12000
N 	N 	0.62387 0.94264 0.50279 -0.01600
C 	C 	0.62383 0.81512 0.21947 -0.05300
O 	O 	0.64617 0.25923 0.84277 -0.35900
H 	H 	0.62542 0.77395 0.24368 0.07300
C 	C 	0.62467 0.88085 0.30841 0.16200
H 	H 	0.63185 0.97573 0.27261 0.14600
H 	H 	0.02339 0.76418 0.92556 0.07800
Ni	Ni	0.63672 0.21705 0.63714 1.12700
O 	O 	0.64406 0.97632 0.29985 -0.27600
H 	H 	0.65529 0.48371 0.70087 0.07400
O 	O 	0.01222 0.03961 0.76292 -0.69800
C 	C 	0.66804 0.19140 0.95276 0.30200
O 	O 	0.66075 0.90485 0.52492 -0.08600
O 	O 	0.66750 0.18252 0.91585 -0.36100
O 	O 	0.66720 0.29521 0.59100 -0.71100
O 	O 	0.66484 0.95127 0.91598 -0.11600
Ni	Ni	0.67341 0.42101 0.59363 1.12000
O 	O 	0.66414 0.98339 0.47119 -0.08800
H 	H 	0.68837 0.68897 0.70071 0.16000
N 	N 	0.68059 0.65143 0.06671 -0.02200
O 	O 	0.68003 0.13226 0.56345 -0.34400
C 	C 	0.67246 0.75680 0.31856 -0.05900
H 	H 	0.69593 0.61876 0.99418 0.08300
N 	N 	0.68838 0.01543 0.94319 -0.01100
Ni	Ni	0.69922 0.47430 0.87641 1.11800
O 	O 	0.69655 0.66218 0.72488 -0.27400
H 	H 	0.00998 0.49400 0.04655 0.08000
O 	O 	0.68496 0.63796 0.10254 -0.09700
C 	C 	0.69023 0.90048 0.16080 0.17300
H 	H 	0.69684 0.95278 0.59491 0.04700
C 	C 	0.69468 0.85542 0.30887 -0.08900
C 	C 	0.69936 0.85881 0.19498 -0.10700
O 	O 	0.70783 0.37704 0.90597 -0.71300
H 	H 	0.98655 0.03556 0.28413 0.16800
O 	O 	0.98304 0.00895 0.25872 -0.70600
O 	O 	0.97303 0.82911 0.22640 -0.38600
H 	H 	0.96324 0.50435 0.16449 0.15300
H 	H 	0.95076 0.47436 0.42031 0.06800
H 	H 	0.96385 0.69399 0.18138 0.07800
C 	C 	0.94807 0.46402 0.45049 -0.02800
H 	H 	0.97778 0.13033 0.11578 0.08100
O 	O 	0.95190 0.80162 0.37678 -0.27600
H 	H 	0.94720 0.74653 0.36081 0.16200
C 	C 	0.83888 0.62461 0.92482 0.33000
C 	C 	0.82301 0.44209 0.82400 0.32300
C 	C 	0.91197 0.40586 0.93190 0.32300
Ni	Ni	0.75620 0.41834 0.95487 1.12600
Ni	Ni	0.75044 0.29611 0.88274 1.12100
O 	O 	0.88101 0.46684 0.93543 -0.39500
O 	O 	0.82710 0.58553 0.89165 -0.37300
O 	O 	0.79377 0.56739 0.95354 -0.36900
O 	O 	0.75519 0.46220 0.82462 -0.35400
O 	O 	0.84519 0.41593 0.85492 -0.39300
O 	O 	0.72776 0.27628 0.96989 -0.35000
O 	O 	0.85953 0.31805 0.91608 -0.35000
C 	C 	0.79258 0.41647 0.52856 0.29500
C 	C 	0.74206 0.15148 0.59068 0.30800
C 	C 	0.76514 0.42971 0.66311 0.31000
O 	O 	0.74450 0.32143 0.51996 -0.35900
O 	O 	0.75425 0.46584 0.54521 -0.35800
O 	O 	0.77948 0.46227 0.62819 -0.39400
O 	O 	0.72358 0.33238 0.67130 -0.35700
O 	O 	0.73688 0.18845 0.62346 -0.37500
H 	H 	0.73338 0.31769 0.58944 0.15800
C 	C 	0.88934 0.80397 0.72940 0.32100
C 	C 	0.93826 0.90264 0.82928 0.30000
C 	C 	0.91322 0.06696 0.68823 0.33600
C 	C 	0.93809 0.19708 0.77555 0.30100
Ni	Ni	0.88021 0.97693 0.76394 1.11500
O 	O 	0.85970 0.98876 0.70909 -0.38500
O 	O 	0.97338 0.86732 0.71965 -0.38700
O 	O 	0.84633 0.83127 0.75365 -0.35700
O 	O 	0.87287 0.10160 0.77895 -0.35100
O 	O 	0.97557 0.86847 0.80421 -0.36400
O 	O 	0.88821 0.94365 0.81825 -0.37300
O 	O 	0.97252 0.15179 0.70422 -0.38300
C 	C 	0.79057 0.92822 0.29799 0.28700
C 	C 	0.79163 0.87673 0.20760 0.32000
Ni	Ni	0.92393 0.07149 0.23593 1.11700
Ni	Ni	0.91650 0.86854 0.26801 1.11700
O 	O 	0.80791 0.00092 0.27287 -0.33000
O 	O 	0.85460 0.90674 0.30759 -0.38000
O 	O 	0.86312 0.95919 0.19744 -0.38400
O 	O 	0.79903 0.82431 0.23566 -0.37100
O 	O 	0.76240 0.94400 0.13603 -0.28400
H 	H 	0.75599 0.88901 0.11955 0.17100
H 	H 	0.72398 0.73364 0.31662 0.06400
C 	C 	0.95224 0.45785 0.52859 -0.02800
C 	C 	0.88320 0.46991 0.51121 -0.06700
C 	C 	0.88666 0.48184 0.47185 0.10500
H 	H 	0.95252 0.45224 0.55889 0.05900
N 	N 	0.82283 0.50432 0.45332 -0.02100
O 	O 	0.80491 0.57117 0.46716 -0.08600
O 	O 	0.78368 0.45910 0.42230 -0.08900
C 	C 	0.80202 0.10693 0.58940 -0.10600
C 	C 	0.76509 0.00881 0.60295 0.02800
C 	C 	0.80783 0.98898 0.63300 0.10400
C 	C 	0.88960 0.06739 0.64802 -0.05100
C 	C 	0.93920 0.15388 0.62616 -0.06900
C 	C 	0.89607 0.17201 0.59574 0.19100
O 	O 	0.76711 0.89545 0.64881 -0.25800
O 	O 	0.94044 0.26136 0.57704 -0.26600
H 	H 	0.93293 0.30954 0.59309 0.15400
H 	H 	0.79412 0.85937 0.63546 0.15100
C 	C 	0.79140 0.50333 0.69335 -0.09700
C 	C 	0.72809 0.53313 0.70485 -0.06200
C 	C 	0.75892 0.63076 0.71753 0.17700
C 	C 	0.85372 0.69654 0.72163 -0.10400
C 	C 	0.91557 0.66026 0.71629 -0.04900
C 	C 	0.88479 0.56453 0.70169 0.17500
H 	H 	0.98807 0.70771 0.72194 0.06200
O 	O 	0.94652 0.53208 0.69455 -0.27400
H 	H 	0.96946 0.55540 0.66873 0.15900
C 	C 	0.99244 0.42775 0.95450 -0.07900
C 	C 	0.97792 0.41723 0.99355 0.09500
N 	N 	0.90682 0.32540 0.00901 -0.02200
O 	O 	0.89454 0.24057 0.99622 -0.06900
O 	O 	0.85708 0.32645 0.03696 -0.09700
O 	O 	0.77481 0.07705 0.94933 -0.07300
O 	O 	0.73656 0.73754 0.05165 -0.10600
C 	C 	0.85209 0.41493 0.78903 -0.10700
C 	C 	0.79055 0.32306 0.77284 -0.05300
C 	C 	0.81838 0.25150 0.76649 0.16600
C 	C 	0.91064 0.27620 0.77345 -0.08800
C 	C 	0.97589 0.37714 0.77919 -0.06200
C 	C 	0.94656 0.44757 0.78512 0.18400
H 	H 	0.71867 0.30181 0.77025 0.07300
O 	O 	0.75657 0.15959 0.75255 -0.27100
H 	H 	0.72208 0.11941 0.77472 0.15900
C 	C 	0.93129 0.87061 0.86888 -0.09100
C 	C 	0.84991 0.84246 0.88921 -0.05600
C 	C 	0.82742 0.77655 0.91964 0.17300
C 	C 	0.88287 0.73335 0.92718 -0.10400
C 	C 	0.97499 0.78669 0.91563 -0.05100
C 	C 	0.99840 0.85152 0.88472 0.17300
H 	H 	0.80090 0.86444 0.87964 0.08200
O 	O 	0.74333 0.73979 0.93663 -0.27900
H 	H 	0.75383 0.78456 0.95827 0.16500
