data_crystal

_cell_length_a 27.26811
_cell_length_b 29.15857
_cell_length_c 27.18131
_cell_angle_alpha 61.63591
_cell_angle_beta  118.04485
_cell_angle_gamma 133.22037

_symmetry_space_group_name_	'P 1'
_symmetry_space_group_name_H-M	'P 1'

loop_
_symmetry_equiv_pos_as_xyz
  x,y,z

loop_
_atom_site_label
_atom_site_type_symbol
_atom_site_fract_x
_atom_site_fract_y
_atom_site_fract_z
_atom_site_charge
Co	Co	0.04817 0.01841 0.23132 1.21300
C 	C 	0.00596 0.97575 0.97400 0.42800
O 	O 	0.02232 0.00656 0.14356 -0.51100
O 	O 	0.01291 0.95427 0.30773 -0.33300
O 	O 	0.03293 0.94539 0.11239 -0.75300
O 	O 	0.02519 0.82724 0.15774 -0.33900
Co	Co	0.04404 0.03013 0.71792 1.21200
O 	O 	0.01055 0.00112 0.63736 -0.50900
C 	C 	0.00980 0.99940 0.82444 0.26200
O 	O 	0.01591 0.97656 0.79710 -0.34200
O 	O 	0.03079 0.94290 0.61304 -0.75000
C 	C 	0.01541 0.97565 0.88760 0.03200
H 	H 	0.03763 0.94920 0.91334 0.11300
F 	F 	0.01948 0.73667 0.79742 -0.29800
F 	F 	0.03759 0.25422 0.09052 -0.30600
O 	O 	0.02291 0.14285 0.68786 -0.32400
Co	Co	0.08373 0.96785 0.17523 1.18500
C 	C 	0.06429 0.84244 0.20734 0.41700
Co	Co	0.04272 0.89780 0.08221 1.19000
O 	O 	0.04513 0.09202 0.28466 -0.34700
O 	O 	0.06554 0.87869 0.22476 -0.33800
O 	O 	0.05589 0.96920 0.00698 -0.37900
Co	Co	0.08309 0.97387 0.67170 1.18400
C 	C 	0.08270 0.85696 0.71442 0.41200
Co	Co	0.04889 0.89853 0.58743 1.19000
C 	C 	0.08674 0.16138 0.71314 0.40700
O 	O 	0.10747 0.12827 0.71929 -0.30800
O 	O 	0.04366 0.83576 0.66733 -0.33600
O 	O 	0.07725 0.89137 0.72767 -0.33800
O 	O 	0.04843 0.96137 0.50802 -0.31700
H 	H 	0.03748 0.93979 0.42084 0.13500
F 	F 	0.08137 0.35024 0.72596 -0.29500
C 	C 	0.08081 0.76386 0.78926 0.33900
F 	F 	0.06402 0.66234 0.83496 -0.28300
C 	C 	0.05477 0.74142 0.26643 0.35100
F 	F 	0.03679 0.64059 0.29532 -0.28900
C 	C 	0.10082 0.13253 0.26440 0.41400
O 	O 	0.11649 0.00519 0.24038 -0.35900
O 	O 	0.11466 0.11284 0.24095 -0.31600
O 	O 	0.11488 0.01824 0.73083 -0.35900
C 	C 	0.14831 0.21418 0.79314 0.31900
C 	C 	0.13566 0.22031 0.73469 -0.18800
F 	F 	0.14350 0.28766 0.63938 -0.30900
F 	F 	0.13787 0.15880 0.83224 -0.35100
F 	F 	0.11855 0.45875 0.73956 -0.30700
C 	C 	0.10376 0.72602 0.80875 0.25100
C 	C 	0.11906 0.82851 0.75822 -0.19300
F 	F 	0.08755 0.66671 0.72724 -0.31100
F 	F 	0.09177 0.33967 0.22371 -0.29800
F 	F 	0.12091 0.45218 0.21912 -0.31200
C 	C 	0.07937 0.70634 0.28066 0.24200
C 	C 	0.09680 0.80928 0.24726 -0.20100
F 	F 	0.08613 0.67912 0.18697 -0.31900
O 	O 	0.14822 0.94948 0.11850 -0.37400
O 	O 	0.15496 0.96192 0.61624 -0.37500
C 	C 	0.14251 0.38546 0.76131 0.25700
C 	C 	0.16073 0.43998 0.76929 0.31400
C 	C 	0.17630 0.32008 0.77049 0.01000
C 	C 	0.16637 0.26295 0.81075 0.24600
C 	C 	0.15216 0.27983 0.69556 0.33500
C 	C 	0.17294 0.32974 0.71347 0.24800
F 	F 	0.17118 0.25351 0.86634 -0.30600
C 	C 	0.14409 0.67159 0.76699 0.25400
F 	F 	0.13095 0.60484 0.72797 -0.31500
C 	C 	0.15388 0.38282 0.25280 0.25600
C 	C 	0.15011 0.19897 0.27228 -0.19300
C 	C 	0.16290 0.25121 0.22387 0.33000
F 	F 	0.15021 0.24437 0.17225 -0.33100
F 	F 	0.15964 0.15953 0.37389 -0.33900
C 	C 	0.14654 0.73904 0.27660 0.01200
C 	C 	0.13701 0.67619 0.23008 0.25200
F 	F 	0.13399 0.62501 0.18049 -0.32200
C 	C 	0.16733 0.20815 0.32599 0.32700
C 	C 	0.18687 0.01033 0.12009 0.46200
O 	O 	0.17420 0.02759 0.14731 -0.31100
C 	C 	0.18665 0.02289 0.61262 0.46400
O 	O 	0.17087 0.03848 0.63862 -0.31200
C 	C 	0.18886 0.36922 0.78761 0.00200
F 	F 	0.18736 0.38661 0.67500 -0.29500
C 	C 	0.18217 0.71081 0.80564 0.00300
C 	C 	0.16628 0.63999 0.76733 0.31100
C 	C 	0.16592 0.75318 0.79849 0.01100
C 	C 	0.18569 0.85776 0.75569 0.31700
C 	C 	0.16812 0.43955 0.25152 0.31300
C 	C 	0.19191 0.31458 0.28010 0.01000
C 	C 	0.18642 0.26500 0.32970 0.24200
C 	C 	0.18358 0.30884 0.22770 0.24800
F 	F 	0.19304 0.35811 0.18013 -0.29500
C 	C 	0.16687 0.84199 0.25158 0.31800
C 	C 	0.16675 0.70293 0.27671 -0.00000
C 	C 	0.16155 0.64868 0.22669 0.30900
F 	F 	0.18825 0.04134 0.50134 -0.35500
C 	C 	0.20865 0.82007 0.77487 0.24100
C 	C 	0.20442 0.37157 0.28274 0.00100
F 	F 	0.19621 0.27056 0.38095 -0.30900
C 	C 	0.19142 0.80707 0.26517 0.23700
F 	F 	0.19334 0.01999 0.01450 -0.36900
C 	C 	0.22485 0.47789 0.80431 -0.13300
F 	F 	0.22563 0.92154 0.72981 -0.35900
F 	F 	0.20968 0.90775 0.23767 -0.36500
O 	O 	0.00600 0.04824 0.79704 -0.29400
N 	N 	0.22528 0.56774 0.27378 -0.10200
N 	N 	0.22734 0.56396 0.80476 -0.09700
C 	C 	0.22708 0.64786 0.80588 -0.13300
C 	C 	0.23264 0.48501 0.28069 -0.13500
C 	C 	0.21926 0.69939 0.32107 0.26100
C 	C 	0.21640 0.64815 0.26955 -0.13700
C 	C 	0.24959 0.40322 0.82714 0.25800
C 	C 	0.24012 0.71481 0.84692 0.26400
C 	C 	0.24919 0.07607 0.53704 0.33800
C 	C 	0.25023 0.07246 0.59095 -0.20100
C 	C 	0.24426 0.67245 0.31733 0.31200
C 	C 	0.25076 0.63095 0.26044 0.29200
C 	C 	0.25693 0.55250 0.26425 0.29100
C 	C 	0.25922 0.62789 0.79741 0.29200
C 	C 	0.25662 0.54652 0.79487 0.29300
C 	C 	0.26270 0.68377 0.84684 0.31300
F 	F 	0.24724 0.72356 0.36704 -0.29700
F 	F 	0.25745 0.83941 0.26352 -0.31300
C 	C 	0.25314 0.05729 0.04950 0.34400
C 	C 	0.25214 0.05659 0.10115 -0.20700
C 	C 	0.26648 0.45619 0.83661 0.31000
F 	F 	0.27031 0.84766 0.76697 -0.31100
C 	C 	0.26700 0.41488 0.31504 0.25800
F 	F 	0.27599 0.75073 0.88573 -0.29000
C 	C 	0.28036 0.47053 0.31501 0.30900
F 	F 	0.29418 0.38730 0.85388 -0.29300
F 	F 	0.00127 0.33279 0.06197 -0.28100
C 	C 	0.99944 0.94936 0.39360 -0.07100
F 	F 	0.98878 0.70932 0.26784 -0.32100
C 	C 	0.76320 0.34539 0.04909 0.29500
N 	N 	0.79301 0.39801 0.06646 -0.10100
C 	C 	0.75251 0.40687 0.07112 0.28500
N 	N 	0.68288 0.36316 0.05871 -0.11200
C 	C 	0.65322 0.31005 0.04279 0.28600
N 	N 	0.69334 0.30128 0.03771 -0.11000
C 	C 	0.75333 0.33483 0.53568 0.29300
N 	N 	0.68310 0.29491 0.52411 -0.10300
C 	C 	0.64832 0.30749 0.53242 0.29500
N 	N 	0.68368 0.36003 0.55204 -0.11100
C 	C 	0.75363 0.39959 0.56454 0.29100
N 	N 	0.78880 0.38709 0.55642 -0.09800
N 	N 	0.30749 0.67844 0.23753 -0.10800
C 	C 	0.33846 0.66288 0.22766 0.29100
N 	N 	0.31302 0.60009 0.24101 -0.11100
N 	N 	0.31983 0.67383 0.78003 -0.10800
C 	C 	0.34796 0.65614 0.76916 0.29700
N 	N 	0.31630 0.59274 0.77654 -0.11300
Co	Co	0.93004 0.99929 0.13307 1.18100
Co	Co	0.96311 0.94554 0.07947 1.17900
Co	Co	0.94706 0.04126 0.23405 1.19600
O 	O 	0.97963 0.02122 0.19539 -0.74000
O 	O 	0.89909 0.96517 0.06666 -0.41900
C 	C 	0.93684 0.11737 0.11316 0.40800
C 	C 	0.97995 0.95534 0.33068 0.29500
C 	C 	0.89192 0.81273 0.07344 0.41200
O 	O 	0.97157 0.12163 0.16655 -0.34800
O 	O 	0.92224 0.07664 0.09012 -0.30700
O 	O 	0.92830 0.95921 0.29849 -0.35100
O 	O 	0.93806 0.84258 0.04493 -0.39700
O 	O 	0.89563 0.84516 0.09766 -0.36300
C 	C 	0.81298 0.93269 0.18127 0.42900
O 	O 	0.84477 0.98960 0.18858 -0.38000
O 	O 	0.84519 0.92219 0.16876 -0.36800
O 	O 	0.97649 0.98273 0.99521 -0.35300
Co	Co	0.91310 0.98354 0.63041 1.17800
Co	Co	0.95388 0.93055 0.58322 1.18600
Co	Co	0.94083 0.05149 0.71685 1.19200
C 	C 	0.99158 0.95704 0.47631 0.29800
O 	O 	0.96956 0.02274 0.68365 -0.74100
O 	O 	0.88004 0.93697 0.57305 -0.41000
C 	C 	0.88616 0.08126 0.59084 0.41100
C 	C 	0.89999 0.79929 0.58850 0.41800
O 	O 	0.87182 0.05653 0.64090 -0.32500
O 	O 	0.90105 0.05628 0.57514 -0.32000
O 	O 	0.94457 0.83121 0.55763 -0.38300
O 	O 	0.90001 0.83059 0.61103 -0.35400
C 	C 	0.81577 0.91933 0.70471 0.40600
O 	O 	0.86195 0.95535 0.74232 -0.36900
O 	O 	0.83459 0.90941 0.67580 -0.34600
O 	O 	0.95761 0.95944 0.49696 -0.33800
C 	C 	0.99310 0.98868 0.91398 -0.18800
H 	H 	0.96283 0.00734 0.88700 0.17700
C 	C 	0.97195 0.95960 0.41742 -0.06100
H 	H 	0.93203 0.96666 0.39009 0.10700
F 	F 	0.32657 0.49010 0.87345 -0.31500
C 	C 	0.47968 0.74521 0.68581 0.25800
C 	C 	0.54117 0.77493 0.72660 0.00200
C 	C 	0.53887 0.77208 0.77859 0.25700
C 	C 	0.47530 0.73750 0.79064 0.31400
C 	C 	0.41361 0.70507 0.75102 -0.14100
C 	C 	0.41612 0.71042 0.69795 0.31100
C 	C 	0.60817 0.81135 0.71403 0.01300
F 	F 	0.59826 0.80179 0.81785 -0.31000
F 	F 	0.35672 0.68004 0.65897 -0.32000
C 	C 	0.64927 0.87914 0.69800 0.24200
C 	C 	0.71608 0.91430 0.69249 0.32600
C 	C 	0.74214 0.88193 0.70194 -0.20500
C 	C 	0.69968 0.81389 0.71514 0.33500
C 	C 	0.63290 0.77866 0.72138 0.24300
F 	F 	0.62512 0.91102 0.68956 -0.31000
F 	F 	0.72419 0.78197 0.72456 -0.33700
F 	F 	0.75646 0.97995 0.67993 -0.37300
F 	F 	0.59303 0.71291 0.73631 -0.30000
F 	F 	0.48157 0.74942 0.63471 -0.30200
F 	F 	0.47347 0.73273 0.84202 -0.31000
F 	F 	0.32057 0.69038 0.88530 -0.30300
F 	F 	0.34176 0.51277 0.34539 -0.32100
F 	F 	0.31592 0.40423 0.34478 -0.29700
C 	C 	0.62546 0.86308 0.13098 0.24100
C 	C 	0.60198 0.81777 0.18124 0.01000
C 	C 	0.64553 0.80300 0.22812 0.23800
C 	C 	0.71373 0.83700 0.22636 0.32800
C 	C 	0.73844 0.88518 0.17744 -0.21100
C 	C 	0.69311 0.89584 0.12881 0.33100
C 	C 	0.53243 0.78673 0.18530 -0.00100
F 	F 	0.62227 0.75700 0.27593 -0.30700
F 	F 	0.71553 0.93979 0.08016 -0.33800
C 	C 	0.47361 0.74149 0.15286 0.25700
C 	C 	0.40836 0.70596 0.16215 0.30800
C 	C 	0.40163 0.71378 0.20533 -0.13900
C 	C 	0.45979 0.76282 0.23444 0.30900
C 	C 	0.52493 0.79945 0.22417 0.25500
F 	F 	0.48005 0.72995 0.11412 -0.30300
F 	F 	0.45391 0.77210 0.27528 -0.32100
F 	F 	0.35191 0.66128 0.13137 -0.32500
F 	F 	0.58118 0.84552 0.25363 -0.31800
F 	F 	0.58339 0.87677 0.08495 -0.30400
F 	F 	0.75679 0.82538 0.27320 -0.35300
F 	F 	0.29695 0.67170 0.35927 -0.31300
C 	C 	0.80135 0.28328 0.47231 0.26200
C 	C 	0.83619 0.26045 0.52194 0.00300
C 	C 	0.85222 0.27086 0.57466 0.25700
C 	C 	0.82977 0.30008 0.57833 0.31400
C 	C 	0.79057 0.31863 0.52947 -0.13200
C 	C 	0.77838 0.31200 0.47609 0.31300
C 	C 	0.84861 0.21908 0.52025 0.01200
F 	F 	0.88650 0.24964 0.62288 -0.31100
F 	F 	0.74222 0.33142 0.42823 -0.31400
C 	C 	0.91642 0.24026 0.53174 0.24700
C 	C 	0.92886 0.19564 0.54565 0.31900
C 	C 	0.87370 0.12955 0.54916 -0.18900
C 	C 	0.80568 0.11060 0.52901 0.33700
C 	C 	0.79310 0.15498 0.51535 0.24600
F 	F 	0.97043 0.30303 0.53321 -0.30100
F 	F 	0.75171 0.04748 0.52900 -0.31600
F 	F 	0.99488 0.21545 0.56152 -0.34200
F 	F 	0.72709 0.13445 0.50178 -0.29300
F 	F 	0.78750 0.27543 0.42082 -0.29500
F 	F 	0.84252 0.30679 0.63005 -0.31600
C 	C 	0.86357 0.63840 0.65668 0.24300
C 	C 	0.82440 0.61216 0.60825 0.01000
C 	C 	0.79261 0.63906 0.55987 0.24100
C 	C 	0.80813 0.69698 0.55686 0.33100
C 	C 	0.85543 0.72820 0.60216 -0.20100
C 	C 	0.87666 0.69498 0.65420 0.32300
C 	C 	0.82035 0.55960 0.60652 0.00000
F 	F 	0.74987 0.61109 0.51455 -0.30500
F 	F 	0.91527 0.72066 0.70074 -0.33800
C 	C 	0.78338 0.49712 0.64113 0.26200
C 	C 	0.76981 0.44531 0.63265 0.31100
C 	C 	0.79051 0.45502 0.58784 -0.13100
C 	C 	0.83328 0.51844 0.55710 0.31100
C 	C 	0.84859 0.57065 0.56670 0.25700
F 	F 	0.75745 0.48599 0.68088 -0.29000
F 	F 	0.85580 0.52899 0.51508 -0.32200
F 	F 	0.73206 0.38469 0.66516 -0.31200
F 	F 	0.88806 0.63156 0.53541 -0.32300
F 	F 	0.89195 0.61122 0.70487 -0.29200
F 	F 	0.78286 0.72618 0.50765 -0.33900
C 	C 	0.37543 0.14814 0.61017 0.24500
C 	C 	0.37436 0.14892 0.55761 0.01700
C 	C 	0.31102 0.11401 0.52055 0.24600
C 	C 	0.31359 0.10992 0.62688 0.34900
C 	C 	0.43962 0.18458 0.54236 0.00300
F 	F 	0.30950 0.11555 0.46916 -0.30800
F 	F 	0.31544 0.10682 0.67912 -0.32000
C 	C 	0.47796 0.15967 0.56944 0.26000
C 	C 	0.54454 0.19767 0.56150 0.31600
C 	C 	0.57315 0.26088 0.52645 -0.13600
C 	C 	0.53211 0.28320 0.49515 0.31200
C 	C 	0.46577 0.24537 0.50341 0.25800
F 	F 	0.45180 0.09972 0.60538 -0.29400
F 	F 	0.55814 0.34313 0.45917 -0.32000
F 	F 	0.58304 0.17490 0.59103 -0.31300
F 	F 	0.42803 0.26890 0.47551 -0.30200
F 	F 	0.43656 0.18315 0.64566 -0.29500
C 	C 	0.87419 0.29169 0.09714 0.26000
C 	C 	0.86227 0.28091 0.04612 -0.04000
C 	C 	0.82633 0.30069 0.99457 0.30000
C 	C 	0.79822 0.32664 0.99476 0.35000
C 	C 	0.80625 0.33343 0.04644 -0.17300
C 	C 	0.84655 0.31812 0.09722 0.31700
C 	C 	0.88143 0.24325 0.04793 0.02000
F 	F 	0.81654 0.29261 0.94468 -0.28800
F 	F 	0.85534 0.32512 0.14732 -0.32300
C 	C 	0.83014 0.17842 0.04378 0.23600
C 	C 	0.84872 0.13849 0.05780 0.32200
C 	C 	0.91857 0.16271 0.07717 -0.19000
C 	C 	0.96978 0.22931 0.07499 0.31100
C 	C 	0.95127 0.26939 0.06059 0.22700
F 	F 	0.76233 0.15304 0.02981 -0.30500
F 	F 	0.79871 0.07489 0.05743 -0.31600
F 	F 	0.90972 0.27361 0.14713 -0.31200
F 	F 	0.76096 0.34297 0.94509 -0.30600
C 	C 	0.78500 0.65220 0.04573 0.21100
C 	C 	0.81044 0.62257 0.09801 0.01600
C 	C 	0.84333 0.64769 0.14636 0.23800
C 	C 	0.85765 0.70602 0.14054 0.32400
C 	C 	0.84406 0.74173 0.08585 -0.20300
C 	C 	0.80181 0.71169 0.03968 0.30400
C 	C 	0.80750 0.56884 0.10069 -0.00800
F 	F 	0.86462 0.61756 0.19808 -0.28600
F 	F 	0.78320 0.74333 0.98746 -0.31300
C 	C 	0.84204 0.57899 0.06706 0.25500
C 	C 	0.82942 0.52617 0.06143 0.30700
C 	C 	0.78334 0.46300 0.09038 -0.13300
C 	C 	0.75560 0.45403 0.12937 0.30700
C 	C 	0.76628 0.50645 0.13346 0.26100
F 	F 	0.88545 0.63975 0.03791 -0.33200
F 	F 	0.71486 0.39372 0.16075 -0.31700
F 	F 	0.85845 0.53602 0.02503 -0.33000
F 	F 	0.73392 0.49613 0.16718 -0.29600
F 	F 	0.74765 0.62531 0.99992 -0.27300
F 	F 	0.89034 0.73071 0.18711 -0.34500
C 	C 	0.37705 0.13512 0.12086 0.23800
C 	C 	0.37796 0.13434 0.07003 0.02100
C 	C 	0.31580 0.09585 0.03416 0.20800
C 	C 	0.31444 0.09619 0.13654 0.34800
C 	C 	0.44409 0.17385 0.05449 0.00100
F 	F 	0.31625 0.09528 0.98472 -0.27200
F 	F 	0.31457 0.09517 0.18706 -0.32300
C 	C 	0.48811 0.15493 0.08390 0.25800
C 	C 	0.55528 0.19725 0.07570 0.31100
C 	C 	0.57878 0.25878 0.03804 -0.13200
C 	C 	0.53241 0.27492 0.00459 0.28400
C 	C 	0.46544 0.23279 0.01310 0.23100
F 	F 	0.46675 0.09673 0.12232 -0.29800
F 	F 	0.55362 0.33309 0.96614 -0.28800
F 	F 	0.59908 0.18040 0.10736 -0.32000
F 	F 	0.42232 0.25049 0.98306 -0.27300
F 	F 	0.43704 0.17304 0.15537 -0.29900
