data_crystal

_cell_length_a 18.62130
_cell_length_b 16.74470
_cell_length_c 40.71724
_cell_angle_alpha 90.78587
_cell_angle_beta  91.13828
_cell_angle_gamma 110.96078

_symmetry_space_group_name_	'P 1'
_symmetry_space_group_name_H-M	'P 1'

loop_
_symmetry_equiv_pos_as_xyz
  x,y,z

loop_
_atom_site_label
_atom_site_type_symbol
_atom_site_fract_x
_atom_site_fract_y
_atom_site_fract_z
_atom_site_charge
Ni	Ni	0.58717 0.23784 0.91650 1.10100
O 	O 	0.60614 0.32442 0.87978 -0.70300
Ni	Ni	0.69881 0.31118 0.85865 1.09700
O 	O 	0.50247 0.27218 0.93701 -0.36700
O 	O 	0.57537 0.41440 0.94089 -0.41000
O 	O 	0.49402 0.14955 0.89175 -0.37000
Ni	Ni	0.64131 0.44084 0.89901 1.06400
O 	O 	0.56671 0.04437 0.91453 -0.39900
O 	O 	0.71956 0.41637 0.92871 -0.42300
O 	O 	0.71626 0.40537 0.82485 -0.37600
O 	O 	0.67772 0.22242 0.89495 -0.70300
O 	O 	0.57578 0.15098 0.95225 -0.37600
O 	O 	0.78213 0.27415 0.83755 -0.35900
O 	O 	0.71146 0.13131 0.83744 -0.40200
Ni	Ni	0.64275 0.10352 0.87859 1.06600
H 	H 	0.56201 0.31286 0.86414 0.15600
H 	H 	0.72146 0.23418 0.91081 0.15500
C 	C 	0.78402 0.41478 0.91748 0.30900
O 	O 	0.55693 0.11476 0.84959 -0.41700
C 	C 	0.51039 0.35089 0.94525 0.30200
C 	C 	0.72253 0.48328 0.83454 0.27900
C 	C 	0.49332 0.11636 0.86224 0.30300
C 	C 	0.77864 0.19411 0.83661 0.27400
C 	C 	0.56919 0.07156 0.94542 0.28300
O 	O 	0.78900 0.39452 0.88657 -0.37500
O 	O 	0.72371 0.50194 0.86617 -0.41000
Ni	Ni	0.63167 0.39595 0.60189 1.09900
O 	O 	0.70398 0.41480 0.56263 -0.69700
Ni	Ni	0.77470 0.35362 0.57552 1.09900
O 	O 	0.58788 0.48750 0.58886 -0.37000
O 	O 	0.70721 0.58408 0.57928 -0.41600
O 	O 	0.54963 0.31133 0.57196 -0.38000
Ni	Ni	0.76192 0.52834 0.54730 1.07100
O 	O 	0.58481 0.25192 0.65958 -0.40700
O 	O 	0.86223 0.56274 0.57493 -0.39900
O 	O 	0.85349 0.38445 0.53842 -0.37300
O 	O 	0.69996 0.33093 0.61378 -0.69600
O 	O 	0.55463 0.36349 0.63957 -0.36900
O 	O 	0.81999 0.26481 0.59142 -0.37000
O 	O 	0.69925 0.16593 0.59090 -0.40800
Ni	Ni	0.63918 0.21232 0.62363 1.07700
H 	H 	0.67362 0.38282 0.54331 0.14500
H 	H 	0.72898 0.35779 0.63415 0.15300
C 	C 	0.87404 0.52852 0.60252 0.29100
O 	O 	0.54901 0.18457 0.59073 -0.39300
C 	C 	0.63183 0.56139 0.57747 0.29900
C 	C 	0.86539 0.44948 0.51844 0.30800
C 	C 	0.54725 0.23354 0.56615 0.29600
C 	C 	0.77332 0.18573 0.59601 0.28200
C 	C 	0.53312 0.28664 0.65274 0.29000
O 	O 	0.85136 0.44489 0.60578 -0.38100
O 	O 	0.81069 0.48022 0.51179 -0.42000
Ni	Ni	0.11116 0.03039 0.74198 1.10100
O 	O 	0.03256 0.01513 0.70512 -0.69100
Ni	Ni	0.94494 0.91493 0.72076 1.09700
O 	O 	0.18893 0.13096 0.71809 -0.36400
O 	O 	0.18109 0.04517 0.67263 -0.39600
O 	O 	0.05872 0.10589 0.76392 -0.37200
Ni	Ni	0.06304 0.98768 0.66246 1.06100
O 	O 	0.13487 0.92539 0.80917 -0.40500
O 	O 	0.07378 0.87506 0.67619 -0.41900
O 	O 	0.86750 0.92227 0.68629 -0.36200
O 	O 	0.03289 0.91461 0.75226 -0.70900
O 	O 	0.18552 0.05215 0.78162 -0.34900
O 	O 	0.85814 0.82297 0.74470 -0.36100
O 	O 	0.90326 0.87341 0.79624 -0.41600
Ni	Ni	0.02188 0.90878 0.80004 1.06400
H 	H 	0.01763 0.06601 0.70333 0.16600
H 	H 	0.05363 0.87055 0.74520 0.14900
C 	C 	0.01364 0.80691 0.68207 0.29400
O 	O 	0.03652 0.03288 0.81165 -0.38100
C 	C 	0.21611 0.11745 0.68955 0.26700
C 	C 	0.89425 0.94897 0.65698 0.24200
C 	C 	0.01883 0.08236 0.79074 0.28500
C 	C 	0.86252 0.81016 0.77634 0.28100
C 	C 	0.19480 0.99104 0.79934 0.22100
O 	O 	0.95064 0.81477 0.69282 -0.36900
O 	O 	0.95189 0.92927 0.64517 -0.39000
Ni	Ni	0.37921 0.79904 0.42402 1.10000
O 	O 	0.35724 0.69574 0.39319 -0.70800
Ni	Ni	0.26024 0.69329 0.36997 1.09900
O 	O 	0.45190 0.76658 0.45501 -0.37900
O 	O 	0.36121 0.63451 0.46154 -0.42100
O 	O 	0.47529 0.86991 0.39850 -0.36700
Ni	Ni	0.33803 0.58555 0.41370 1.06900
O 	O 	0.40714 0.98825 0.40666 -0.40800
O 	O 	0.22155 0.53877 0.42146 -0.40100
O 	O 	0.22406 0.57463 0.34641 -0.36800
O 	O 	0.29236 0.80644 0.39646 -0.70300
O 	O 	0.39393 0.90402 0.45202 -0.38400
O 	O 	0.17679 0.72171 0.34419 -0.35900
O 	O 	0.25785 0.85598 0.33151 -0.40700
Ni	Ni	0.33206 0.91085 0.37143 1.06300
H 	H 	0.39813 0.70554 0.37694 0.16000
H 	H 	0.25096 0.80927 0.41079 0.15400
C 	C 	0.17964 0.58610 0.42643 0.30700
O 	O 	0.41603 0.87858 0.34977 -0.41100
C 	C 	0.42815 0.69303 0.46974 0.29300
C 	C 	0.25155 0.51309 0.35262 0.29400
C 	C 	0.47741 0.87932 0.36644 0.27700
C 	C 	0.18743 0.80031 0.33508 0.27100
C 	C 	0.40158 0.97796 0.43898 0.27000
O 	O 	0.18255 0.64805 0.40648 -0.39000
O 	O 	0.31775 0.52947 0.36862 -0.42000
Ni	Ni	0.33620 0.63411 0.09548 1.10100
O 	O 	0.25841 0.61769 0.05717 -0.69300
Ni	Ni	0.18563 0.67144 0.07446 1.09900
O 	O 	0.38238 0.54902 0.07688 -0.37000
O 	O 	0.26274 0.45060 0.06858 -0.41800
O 	O 	0.41149 0.72838 0.06828 -0.37900
Ni	Ni	0.20324 0.50443 0.03816 1.07300
O 	O 	0.38091 0.76230 0.16029 -0.40700
O 	O 	0.10666 0.46426 0.06595 -0.39400
O 	O 	0.10328 0.64184 0.03701 -0.37400
O 	O 	0.26547 0.69114 0.11212 -0.69600
O 	O 	0.41696 0.66279 0.13312 -0.37100
O 	O 	0.13836 0.75395 0.09505 -0.36800
O 	O 	0.25749 0.85666 0.09794 -0.41200
Ni	Ni	0.32280 0.80795 0.12754 1.07800
H 	H 	0.28531 0.65361 0.03887 0.14900
H 	H 	0.23970 0.65896 0.13142 0.15600
C 	C 	0.10506 0.49227 0.09604 0.28700
O 	O 	0.41245 0.84724 0.09615 -0.39700
C 	C 	0.33727 0.47363 0.06549 0.30400
C 	C 	0.09647 0.58396 0.01342 0.31100
C 	C 	0.41463 0.80798 0.06830 0.29600
C 	C 	0.18354 0.83282 0.10294 0.27500
C 	C 	0.43512 0.73463 0.15074 0.29500
O 	O 	0.11522 0.57313 0.10171 -0.37400
O 	O 	0.15437 0.56053 0.00566 -0.42400
Ni	Ni	0.85669 0.98165 0.24461 1.09200
O 	O 	0.93457 0.00993 0.20836 -0.68200
Ni	Ni	0.02125 0.10559 0.22940 1.10400
O 	O 	0.78175 0.88788 0.21521 -0.37100
O 	O 	0.78680 0.98657 0.17611 -0.41800
O 	O 	0.91104 0.90171 0.26105 -0.37600
Ni	Ni	0.90352 0.03951 0.16564 1.08100
O 	O 	0.83324 0.06529 0.31687 -0.39500
O 	O 	0.90452 0.15804 0.17850 -0.39700
O 	O 	0.09848 0.11133 0.19377 -0.36500
O 	O 	0.93418 0.09320 0.26166 -0.69200
O 	O 	0.78208 0.94545 0.28277 -0.37500
O 	O 	0.10916 0.18482 0.25900 -0.36300
O 	O 	0.06368 0.11247 0.30575 -0.40500
Ni	Ni	0.94627 0.08424 0.30917 1.07400
H 	H 	0.95148 0.96090 0.20478 0.14500
H 	H 	0.91224 0.13810 0.25763 0.15400
C 	C 	0.96952 0.22012 0.18631 0.28900
O 	O 	0.92742 0.95722 0.31298 -0.40500
C 	C 	0.75333 0.90942 0.18830 0.27000
C 	C 	0.07104 0.07690 0.16452 0.27500
C 	C 	0.94720 0.91483 0.28978 0.28500
C 	C 	0.10702 0.18216 0.29120 0.28400
C 	C 	0.77428 0.99750 0.30599 0.27600
O 	O 	0.00876 0.21548 0.21286 -0.36900
O 	O 	0.01393 0.09396 0.15030 -0.38600
C 	C 	0.00214 0.29430 0.16451 -0.06500
C 	C 	0.08261 0.33440 0.16371 -0.02300
C 	C 	0.11632 0.40293 0.14303 0.04200
C 	C 	0.06990 0.42956 0.12144 -0.07500
C 	C 	0.98951 0.39160 0.12264 -0.01700
C 	C 	0.95520 0.32587 0.14471 0.02800
S 	S 	0.21685 0.45597 0.14489 -0.07100
S 	S 	0.85476 0.28959 0.14908 -0.02600
H 	H 	0.82031 0.22241 0.12758 0.03800
H 	H 	0.23546 0.52252 0.16729 0.03100
H 	H 	0.11921 0.31190 0.17917 0.06200
H 	H 	0.95361 0.41367 0.10661 0.04900
C 	C 	0.51547 0.77885 0.16279 -0.07700
C 	C 	0.56565 0.73294 0.16438 -0.01700
C 	C 	0.64382 0.77488 0.17228 0.03300
C 	C 	0.67202 0.86323 0.17972 -0.07100
C 	C 	0.62178 0.90838 0.17955 -0.02800
C 	C 	0.54459 0.86801 0.17045 0.04900
S 	S 	0.70615 0.71681 0.17135 -0.02900
S 	S 	0.48688 0.93143 0.16761 -0.08300
H 	H 	0.49937 0.97353 0.13846 0.04100
H 	H 	0.73657 0.72177 0.14075 0.03500
H 	H 	0.54417 0.66479 0.15888 0.05700
H 	H 	0.64333 0.97605 0.18603 0.04500
C 	C 	0.15291 0.89091 0.12082 -0.08100
C 	C 	0.07790 0.88712 0.11363 -0.02300
C 	C 	0.04843 0.94329 0.12927 0.03200
C 	C 	0.09763 0.01105 0.14976 -0.06900
C 	C 	0.17219 0.01366 0.15738 -0.00000
C 	C 	0.19837 0.95130 0.14467 0.02900
S 	S 	0.94859 0.92119 0.12595 -0.15700
S 	S 	0.28321 0.94358 0.16182 -0.13900
H 	H 	0.34508 0.99350 0.14458 0.03300
H 	H 	0.91208 0.86696 0.15028 0.02300
H 	H 	0.04150 0.83877 0.09647 0.05500
H 	H 	0.20906 0.06254 0.17423 0.05600
C 	C 	0.55296 0.90817 0.35036 -0.05200
C 	C 	0.57598 0.98371 0.33228 -0.08400
C 	C 	0.64943 0.01560 0.31880 0.09200
C 	C 	0.70087 0.97185 0.32344 -0.10500
C 	C 	0.67806 0.89668 0.34164 -0.00800
C 	C 	0.60453 0.86434 0.35492 0.02900
S 	S 	0.67567 0.10949 0.29577 -0.05600
S 	S 	0.57668 0.76689 0.37577 -0.07100
H 	H 	0.59343 0.78295 0.40867 0.04400
H 	H 	0.71068 0.17893 0.31618 0.04100
H 	H 	0.53707 0.01826 0.32900 0.07100
H 	H 	0.71703 0.86216 0.34485 0.04500
C 	C 	0.14630 0.26083 0.31061 -0.09300
C 	C 	0.10220 0.29721 0.32880 -0.01800
C 	C 	0.13527 0.38035 0.34197 0.03000
C 	C 	0.21384 0.42785 0.33709 -0.07200
C 	C 	0.25848 0.39019 0.31982 -0.02700
C 	C 	0.22534 0.30694 0.30682 0.04400
S 	S 	0.07792 0.42324 0.36495 -0.02600
S 	S 	0.28390 0.26008 0.28675 -0.02900
H 	H 	0.31208 0.21766 0.30916 0.03200
H 	H 	0.07813 0.39938 0.39699 0.04200
H 	H 	0.04137 0.26178 0.33179 -0.00300
H 	H 	0.31921 0.42563 0.31664 0.04700
C 	C 	0.12126 0.81961 0.32158 -0.07600
C 	C 	0.12680 0.85829 0.29093 -0.03000
C 	C 	0.06805 0.88496 0.27911 0.04600
C 	C 	0.00161 0.87115 0.29779 -0.08000
C 	C 	0.99390 0.82717 0.32740 -0.02300
C 	C 	0.05366 0.80275 0.33968 0.03300
S 	S 	0.08083 0.93992 0.24192 -0.11100
S 	S 	0.04503 0.75643 0.37869 -0.06000
H 	H 	0.01463 0.66910 0.37518 0.05300
H 	H 	0.12362 0.02441 0.24802 0.04000
H 	H 	0.17787 0.86972 0.27661 0.04900
H 	H 	0.94279 0.81557 0.34171 0.04800
C 	C 	0.43066 0.05127 0.46042 -0.06000
C 	C 	0.45675 0.10396 0.48203 0.02100
C 	C 	0.48810 0.15562 0.51006 0.04400
C 	C 	0.51508 0.19336 0.53534 -0.10200
C 	C 	0.11407 0.55406 0.44714 -0.09800
C 	C 	0.05766 0.52831 0.46378 0.03600
C 	C 	0.99065 0.49942 0.48281 0.03000
C 	C 	0.93331 0.47591 0.49895 -0.09200
C 	C 	0.59739 0.60425 0.55555 -0.12000
C 	C 	0.56263 0.63231 0.53652 0.03300
C 	C 	0.51742 0.65766 0.51376 0.02800
C 	C 	0.47685 0.67505 0.49391 -0.10500
C 	C 	0.86256 0.00485 0.63842 -0.02400
C 	C 	0.78544 0.99528 0.64260 -0.09100
C 	C 	0.75687 0.05645 0.63093 0.08400
C 	C 	0.80301 0.12266 0.61072 -0.10000
C 	C 	0.87908 0.12978 0.60509 -0.00800
C 	C 	0.91035 0.07444 0.62010 0.02600
S 	S 	0.66783 0.05507 0.64543 -0.11300
S 	S 	0.01033 0.09825 0.61810 -0.13300
H 	H 	0.02540 0.05685 0.59135 0.03900
H 	H 	0.67998 0.10498 0.67343 0.01800
H 	H 	0.74878 0.94301 0.65696 0.06800
H 	H 	0.91509 0.18065 0.58998 0.05300
C 	C 	0.45255 0.24380 0.66371 -0.07500
C 	C 	0.40769 0.29310 0.67196 -0.01800
C 	C 	0.33085 0.25329 0.68139 0.03000
C 	C 	0.29864 0.16332 0.68307 -0.06300
C 	C 	0.34379 0.11467 0.67542 -0.03000
C 	C 	0.41932 0.15330 0.66545 0.04800
S 	S 	0.27534 0.31662 0.68975 -0.03100
S 	S 	0.46935 0.08620 0.65372 -0.07300
H 	H 	0.44564 0.05369 0.62267 0.05300
H 	H 	0.23821 0.32565 0.66145 0.03600
H 	H 	0.43223 0.36223 0.67086 0.05300
H 	H 	0.31916 0.04548 0.67649 0.05400
C 	C 	0.93175 0.58357 0.62634 -0.07100
C 	C 	0.91512 0.57926 0.65980 -0.02500
C 	C 	0.95534 0.64783 0.68103 0.04300
C 	C 	0.00835 0.72324 0.66813 -0.08100
C 	C 	0.03591 0.71958 0.63653 -0.02100
C 	C 	0.99834 0.64923 0.61564 0.03700
S 	S 	0.93663 0.64050 0.72329 -0.04600
S 	S 	0.03699 0.64196 0.57706 -0.03200
H 	H 	0.00741 0.68146 0.55402 0.03600
H 	H 	0.98608 0.60881 0.73905 0.03300
H 	H 	0.86827 0.52519 0.66891 0.04000
H 	H 	0.08218 0.77403 0.62731 0.03700
C 	C 	0.85246 0.45286 0.93706 -0.10500
C 	C 	0.90841 0.48626 0.95439 0.03600
C 	C 	0.97298 0.52455 0.97520 0.03000
C 	C 	0.02873 0.55438 0.99296 -0.09600
C 	C 	0.44903 0.85972 0.04080 -0.10600
C 	C 	0.47802 0.90474 0.01812 0.04700
C 	C 	0.51150 0.95982 0.99207 -0.01500
C 	C 	0.53891 0.00925 0.97040 -0.04500
C 	C 	0.46136 0.36323 0.96976 -0.09200
C 	C 	0.42628 0.37951 0.99170 0.02900
C 	C 	0.39144 0.40552 0.01798 0.03800
C 	C 	0.36543 0.43362 0.04020 -0.12400
C 	C 	0.96267 0.12261 0.80007 -0.08000
C 	C 	0.97189 0.16683 0.83039 -0.02100
C 	C 	0.91336 0.19353 0.84206 0.03200
C 	C 	0.84450 0.17541 0.82338 -0.07100
C 	C 	0.83673 0.13465 0.79254 -0.02500
C 	C 	0.89504 0.10821 0.78081 0.04800
S 	S 	0.92613 0.24721 0.88044 -0.06500
S 	S 	0.88079 0.05379 0.74270 -0.10400
H 	H 	0.90382 0.11178 0.71808 0.04100
H 	H 	0.95559 0.33377 0.87595 0.04900
H 	H 	0.02381 0.17876 0.84523 0.05200
H 	H 	0.78443 0.12193 0.77785 0.05200
C 	C 	0.41846 0.06978 0.84525 -0.10400
C 	C 	0.41108 0.07696 0.81121 0.00100
C 	C 	0.33878 0.04249 0.79533 0.00500
C 	C 	0.27214 0.00543 0.81389 0.00700
C 	C 	0.28019 0.99184 0.84746 -0.11200
C 	C 	0.35312 0.02103 0.86299 0.10900
S 	S 	0.33303 0.04090 0.75219 -0.01900
S 	S 	0.36239 0.98976 0.90353 -0.08400
H 	H 	0.35504 0.04949 0.92522 0.07300
H 	H 	0.33936 0.96695 0.74017 0.01300
H 	H 	0.46145 0.10990 0.79707 0.04000
H 	H 	0.22971 0.95962 0.86164 0.06200
C 	C 	0.75776 0.55530 0.81247 -0.06800
C 	C 	0.71161 0.59739 0.79878 -0.03700
C 	C 	0.74497 0.68087 0.78710 0.04600
C 	C 	0.82557 0.72304 0.78910 -0.09100
C 	C 	0.87185 0.67944 0.80130 -0.02300
C 	C 	0.83857 0.59550 0.81232 0.03400
S 	S 	0.68496 0.73319 0.77166 -0.05100
S 	S 	0.89867 0.54211 0.82676 -0.03000
H 	H 	0.91107 0.55633 0.85997 0.04600
H 	H 	0.67484 0.71891 0.73838 0.04800
H 	H 	0.64950 0.56700 0.79882 0.03100
H 	H 	0.93393 0.71054 0.80191 0.00000
