data_crystal

_cell_length_a 27.20675
_cell_length_b 29.24009
_cell_length_c 26.21454
_cell_angle_alpha 89.93093
_cell_angle_beta  89.92434
_cell_angle_gamma 90.91476

_symmetry_space_group_name_	'P 1'
_symmetry_space_group_name_H-M	'P 1'

loop_
_symmetry_equiv_pos_as_xyz
  x,y,z

loop_
_atom_site_label
_atom_site_type_symbol
_atom_site_fract_x
_atom_site_fract_y
_atom_site_fract_z
_atom_site_charge
Zn	Zn	0.49414 0.49716 0.00374 1.20900
C 	C 	0.55552 0.57849 0.00596 0.24500
O 	O 	0.52091 0.45807 0.05712 -0.49400
O 	O 	0.52824 0.59202 0.04434 -0.40500
O 	O 	0.56473 0.51132 0.10015 -0.48800
C 	C 	0.42019 0.55685 0.03839 0.30000
O 	O 	0.44510 0.54412 0.99809 -0.36300
O 	O 	0.43577 0.54620 0.08434 -0.49200
C 	C 	0.56157 0.47042 0.08007 0.32700
O 	O 	0.42978 0.44368 0.99290 -0.25800
Zn	Zn	0.50578 0.54861 0.10186 1.17200
O 	O 	0.55218 0.53612 0.98929 -0.35100
C 	C 	0.45492 0.42890 0.95436 0.28300
O 	O 	0.49370 0.45333 0.94352 -0.33000
Zn	Zn	0.39798 0.14784 0.98929 1.24000
C 	C 	0.41369 0.14773 0.09767 0.32700
O 	O 	0.33995 0.11391 0.01482 -0.41900
O 	O 	0.37043 0.16582 0.10503 -0.44700
O 	O 	0.29477 0.17846 0.02302 -0.47400
C 	C 	0.42074 0.24429 0.98968 0.37500
O 	O 	0.41178 0.20845 0.96100 -0.44500
O 	O 	0.40718 0.24401 0.03765 -0.52100
C 	C 	0.29727 0.13375 0.02017 0.32800
O 	O 	0.37886 0.12549 0.90468 -0.23600
Zn	Zn	0.34492 0.21563 0.05658 1.17700
O 	O 	0.43561 0.15222 0.05324 -0.45800
C 	C 	0.41689 0.09950 0.90864 0.29100
O 	O 	0.43894 0.10097 0.95229 -0.36000
C 	C 	0.53805 0.98490 0.30637 0.12800
C 	C 	0.51142 0.01945 0.28228 -0.09300
H 	H 	0.49518 0.04633 0.30486 0.07500
C 	C 	0.50558 0.01904 0.22917 0.06900
C 	C 	0.52513 0.98331 0.20036 -0.10400
C 	C 	0.55369 0.94975 0.22395 0.05700
C 	C 	0.56028 0.95084 0.27709 -0.10400
H 	H 	0.58261 0.92542 0.29572 0.07000
N 	N 	0.54138 0.98359 0.36110 -0.18300
C 	C 	0.50964 0.95576 0.38817 0.18900
C 	C 	0.51321 0.95293 0.44167 -0.05700
C 	C 	0.54918 0.97929 0.46705 0.02200
C 	C 	0.58116 0.00789 0.43889 -0.04500
C 	C 	0.57672 0.00953 0.38538 0.19900
C 	C 	0.48143 0.92414 0.47004 -0.01000
C 	C 	0.48543 0.92188 0.52317 -0.01100
C 	C 	0.52117 0.94848 0.54885 -0.05300
C 	C 	0.55309 0.97715 0.52071 0.02100
C 	C 	0.58875 0.00383 0.54614 -0.04300
C 	C 	0.61708 0.03431 0.46455 -0.01000
C 	C 	0.62083 0.03230 0.51773 -0.01000
C 	C 	0.52522 0.94724 0.60240 0.18900
N 	N 	0.55941 0.97439 0.62682 -0.18200
C 	C 	0.59143 0.00193 0.59976 0.20000
C 	C 	0.56035 0.97543 0.68167 0.13300
C 	C 	0.52793 0.00362 0.70830 -0.09500
C 	C 	0.53018 0.00626 0.76160 0.07800
C 	C 	0.56470 0.98051 0.78830 -0.10900
C 	C 	0.59698 0.95207 0.76192 0.06500
C 	C 	0.59457 0.94929 0.70856 -0.10500
O 	O 	0.60676 0.03592 0.35847 -0.19300
O 	O 	0.47568 0.93158 0.36395 -0.19800
O 	O 	0.49579 0.92019 0.62922 -0.18900
O 	O 	0.62438 0.02718 0.62413 -0.18700
H 	H 	0.61947 0.92737 0.68796 0.07800
H 	H 	0.50165 0.02390 0.68746 0.08100
H 	H 	0.64210 0.05649 0.44348 0.05700
H 	H 	0.64866 0.05301 0.53668 0.05900
H 	H 	0.45358 0.90346 0.45109 0.05500
H 	H 	0.46055 0.89954 0.54423 0.05900
H 	H 	0.56623 0.98236 0.82960 0.06500
H 	H 	0.51899 0.98217 0.15951 0.05700
Zn	Zn	0.70190 0.81684 0.00611 1.21000
C 	C 	0.66374 0.82000 0.10807 0.32800
O 	O 	0.74475 0.86244 0.03920 -0.46100
O 	O 	0.70623 0.80835 0.12743 -0.44600
O 	O 	0.79946 0.80940 0.06620 -0.48500
C 	C 	0.69268 0.71943 0.01399 0.21800
O 	O 	0.70464 0.75349 0.98359 -0.39800
O 	O 	0.70178 0.72222 0.06302 -0.46300
C 	C 	0.78791 0.85224 0.05806 0.32600
O 	O 	0.73469 0.83742 0.92519 -0.28900
Zn	Zn	0.75169 0.76381 0.08974 1.17600
O 	O 	0.65300 0.80954 0.06066 -0.44800
C 	C 	0.69264 0.85683 0.91833 0.28400
O 	O 	0.66197 0.85372 0.95589 -0.36300
Zn	Zn	0.14885 0.67263 0.98783 1.23300
C 	C 	0.12601 0.67106 0.09540 0.33600
O 	O 	0.09877 0.72057 0.99088 -0.37600
O 	O 	0.13393 0.71542 0.09701 -0.41400
O 	O 	0.15559 0.77681 0.00614 -0.51300
C 	C 	0.24909 0.66907 0.02135 0.28000
O 	O 	0.22016 0.66820 0.98125 -0.36600
O 	O 	0.23680 0.69253 0.06192 -0.46500
C 	C 	0.11129 0.76412 0.99169 0.35000
O 	O 	0.14407 0.67394 0.89728 -0.28500
Zn	Zn	0.19259 0.74381 0.05741 1.17900
O 	O 	0.14239 0.64721 0.05678 -0.45400
C 	C 	0.12146 0.63479 0.90290 0.29100
O 	O 	0.11577 0.62093 0.94934 -0.35700
C 	C 	0.96784 0.50860 0.68225 0.16500
C 	C 	0.00107 0.53597 0.71000 -0.13700
H 	H 	0.02838 0.55662 0.69002 0.08400
C 	C 	0.99985 0.53562 0.76342 0.09400
C 	C 	0.96468 0.50855 0.78902 -0.09700
C 	C 	0.93129 0.48123 0.76142 0.07200
C 	C 	0.93298 0.48121 0.70797 -0.11500
H 	H 	0.90745 0.45999 0.68642 0.08000
N 	N 	0.97049 0.50764 0.62753 -0.17600
C 	C 	0.00571 0.48182 0.60423 0.18700
C 	C 	0.01070 0.48241 0.55081 -0.06300
C 	C 	0.97858 0.50892 0.52158 0.04000
C 	C 	0.94196 0.53434 0.54589 -0.05700
C 	C 	0.93854 0.53336 0.59947 0.19400
C 	C 	0.04749 0.45717 0.52629 -0.00900
C 	C 	0.05226 0.45861 0.47320 -0.00800
C 	C 	0.02017 0.48514 0.44373 -0.06500
C 	C 	0.98317 0.51012 0.46798 0.04100
C 	C 	0.95082 0.53636 0.43872 -0.05900
C 	C 	0.90961 0.56056 0.51639 -0.01000
C 	C 	0.91396 0.56151 0.46323 -0.00800
C 	C 	0.02446 0.48708 0.39028 0.18700
N 	N 	0.99232 0.51255 0.36215 -0.17600
C 	C 	0.95587 0.53697 0.38527 0.19400
C 	C 	0.99658 0.51319 0.30753 0.15800
C 	C 	0.02127 0.54954 0.28316 -0.12000
C 	C 	0.02653 0.54964 0.23001 0.06300
C 	C 	0.00673 0.51344 0.20116 -0.10500
C 	C 	0.98208 0.47685 0.22545 0.07500
C 	C 	0.97704 0.47692 0.27872 -0.11400
O 	O 	0.90484 0.55761 0.62283 -0.19100
O 	O 	0.03510 0.45650 0.63206 -0.18800
O 	O 	0.05954 0.46442 0.36711 -0.19500
O 	O 	0.92531 0.56092 0.35729 -0.19700
H 	H 	0.95824 0.44877 0.29783 0.07900
H 	H 	0.03693 0.57723 0.30562 0.07700
H 	H 	0.88106 0.58026 0.53447 0.05700
H 	H 	0.88869 0.58192 0.44128 0.05400
H 	H 	0.07258 0.43655 0.54822 0.06000
H 	H 	0.08090 0.43902 0.45513 0.05700
H 	H 	0.01045 0.51380 0.15997 0.06100
H 	H 	0.96374 0.50824 0.83039 0.07900
Zn	Zn	0.82769 0.34809 0.00317 1.21400
C 	C 	0.81631 0.37043 0.89682 0.32900
O 	O 	0.76387 0.35511 0.03724 -0.42200
O 	O 	0.79809 0.32936 0.88784 -0.43200
O 	O 	0.71877 0.34985 0.96451 -0.42000
C 	C 	0.84803 0.25830 0.96519 0.33700
O 	O 	0.86533 0.30029 0.96992 -0.43200
O 	O 	0.80030 0.25065 0.96511 -0.48700
C 	C 	0.72442 0.36528 0.01116 0.26400
O 	O 	0.86245 0.32467 0.08174 -0.31600
Zn	Zn	0.75402 0.29618 0.94096 1.17700
O 	O 	0.81647 0.38685 0.94338 -0.37500
C 	C 	0.88406 0.36457 0.08093 0.28700
O 	O 	0.87388 0.39021 0.04233 -0.35600
Zn	Zn	0.01066 0.02715 0.00761 1.22400
C 	C 	0.04631 0.93638 0.98888 0.35100
O 	O 	0.96048 0.01403 0.05994 -0.38700
O 	O 	0.07831 0.94686 0.02466 -0.47700
O 	O 	0.99067 0.94772 0.09039 -0.47100
C 	C 	0.10788 0.04690 0.04289 0.35300
O 	O 	0.08058 0.04058 0.00224 -0.43900
O 	O 	0.09209 0.03239 0.08749 -0.49700
C 	C 	0.95304 0.97215 0.07631 0.28600
O 	O 	0.00026 0.10590 0.02178 -0.29300
Zn	Zn	0.05653 0.97429 0.09317 1.16900
O 	O 	0.01222 0.96575 0.97601 -0.37000
C 	C 	0.97711 0.10590 0.97857 0.32800
O 	O 	0.97375 0.06652 0.95599 -0.28300
C 	C 	0.88232 0.21947 0.96129 -0.10500
C 	C 	0.86408 0.17465 0.95470 0.05300
C 	C 	0.89596 0.13766 0.95578 -0.04400
C 	C 	0.94653 0.14486 0.96333 0.06200
C 	C 	0.96591 0.19017 0.96384 -0.12100
C 	C 	0.93334 0.22712 0.96506 0.10700
H 	H 	0.88098 0.10319 0.95324 0.12700
H 	H 	0.94769 0.26167 0.96950 0.08000
H 	H 	0.82502 0.16824 0.95015 0.04900
C 	C 	0.02095 0.19935 0.96512 0.81100
F 	F 	0.03226 0.24251 0.94626 -0.43400
F 	F 	0.03752 0.19667 0.01485 -0.46600
F 	F 	0.04551 0.16789 0.93549 -0.42700
C 	C 	0.83572 0.44547 0.85669 0.10100
C 	C 	0.86335 0.47204 0.82426 -0.00700
C 	C 	0.89526 0.45215 0.78886 -0.00600
C 	C 	0.89860 0.40426 0.78688 -0.04700
H 	H 	0.92421 0.38833 0.76098 0.06200
C 	C 	0.87008 0.37697 0.81997 0.02800
H 	H 	0.87398 0.34016 0.81944 0.04900
C 	C 	0.83842 0.39758 0.85528 -0.10700
C 	C 	0.78945 0.47038 0.84559 -0.10700
H 	H 	0.82512 0.53666 0.82161 0.06800
H 	H 	0.77587 0.48957 0.87921 0.11900
H 	H 	0.81031 0.49617 0.76794 0.05900
H 	H 	0.76124 0.44924 0.82537 0.08000
C 	C 	0.82101 0.50063 0.80862 -0.06100
C 	C 	0.91090 0.42544 0.20277 -0.00100
C 	C 	0.88734 0.39769 0.16831 0.06600
C 	C 	0.91198 0.38232 0.12456 -0.08100
C 	C 	0.96279 0.39052 0.11998 0.01300
H 	H 	0.98276 0.37753 0.08743 0.05000
C 	C 	0.98703 0.41866 0.15550 -0.02900
H 	H 	0.02579 0.42657 0.15063 0.04300
C 	C 	0.96011 0.43920 0.19494 -0.01500
C 	C 	0.86960 0.45836 0.20579 -0.06400
H 	H 	0.83739 0.44417 0.12903 0.11100
H 	H 	0.87883 0.49281 0.19005 0.05900
H 	H 	0.80963 0.40925 0.18229 0.07500
H 	H 	0.85167 0.45821 0.24391 0.05500
C 	C 	0.84275 0.42686 0.16635 -0.10300
C 	C 	0.04331 0.88899 0.97096 -0.05700
C 	C 	0.07687 0.87432 0.93420 0.03300
C 	C 	0.09328 0.82928 0.93502 -0.03800
C 	C 	0.07697 0.79906 0.97335 0.05900
C 	C 	0.03550 0.81093 0.00302 -0.15700
C 	C 	0.01909 0.85640 0.00166 0.03800
H 	H 	0.12289 0.81952 0.90978 0.07100
H 	H 	0.99116 0.86749 0.02822 0.07300
H 	H 	0.09416 0.89890 0.90863 0.05500
C 	C 	0.01214 0.77690 0.03974 0.78100
F 	F 	0.96726 0.79199 0.05747 -0.46300
F 	F 	0.00410 0.73542 0.01563 -0.47000
F 	F 	0.04292 0.77077 0.08102 -0.48500
C 	C 	0.09666 0.56255 0.86047 0.07000
C 	C 	0.06691 0.53875 0.82762 0.00600
C 	C 	0.03686 0.56168 0.79285 -0.02500
C 	C 	0.03744 0.60975 0.79208 -0.03500
H 	H 	0.01340 0.62805 0.76655 0.05400
C 	C 	0.06814 0.63420 0.82568 0.01700
H 	H 	0.06734 0.67123 0.82613 0.05600
C 	C 	0.09800 0.61054 0.86024 -0.07900
C 	C 	0.14063 0.53456 0.84860 -0.09400
H 	H 	0.09947 0.47149 0.82340 0.07200
H 	H 	0.15258 0.51384 0.88179 0.08900
H 	H 	0.11764 0.51184 0.77052 0.06800
H 	H 	0.17046 0.55401 0.82866 0.08700
C 	C 	0.10663 0.50740 0.81115 -0.06800
C 	C 	0.03359 0.62688 0.18942 -0.02600
C 	C 	0.05800 0.65685 0.15773 0.09500
C 	C 	0.10547 0.64702 0.13994 -0.11700
C 	C 	0.13025 0.60945 0.16056 0.02800
H 	H 	0.16758 0.60236 0.14889 0.03400
C 	C 	0.10531 0.57889 0.19302 -0.05600
H 	H 	0.12354 0.54848 0.20641 0.05200
C 	C 	0.05568 0.58597 0.20480 -0.00200
C 	C 	0.98706 0.62821 0.15931 -0.04000
H 	H 	0.99966 0.69744 0.12475 0.12900
H 	H 	0.95661 0.64422 0.18084 0.05100
H 	H 	0.02032 0.64833 0.08426 0.09300
H 	H 	0.97741 0.59540 0.14004 0.05100
C 	C 	0.01478 0.66239 0.12325 -0.12600
C 	C 	0.82449 0.88875 0.06748 -0.08900
C 	C 	0.85452 0.88710 0.11070 0.03100
C 	C 	0.89294 0.91878 0.11678 -0.03500
C 	C 	0.90266 0.95194 0.07909 0.01800
C 	C 	0.86798 0.95767 0.03889 -0.10100
C 	C 	0.83022 0.92466 0.03254 0.03200
H 	H 	0.91729 0.91565 0.14924 0.05500
H 	H 	0.80611 0.92617 0.99973 0.10900
H 	H 	0.84898 0.86044 0.13897 0.03400
C 	C 	0.87080 0.99829 0.00289 0.70400
F 	F 	0.82912 0.00112 0.97287 -0.41400
F 	F 	0.87470 0.03858 0.03030 -0.45400
F 	F 	0.91082 0.99389 0.97093 -0.44000
C 	C 	0.64750 0.85438 0.83560 0.06400
C 	C 	0.62493 0.87735 0.79685 0.00300
C 	C 	0.63267 0.92470 0.79059 -0.01100
C 	C 	0.66975 0.94672 0.81924 -0.03900
H 	H 	0.67765 0.98280 0.81359 0.05500
C 	C 	0.69297 0.92314 0.85886 0.01600
H 	H 	0.71883 0.94110 0.88337 0.06000
C 	C 	0.67908 0.87769 0.86955 -0.08000
C 	C 	0.60133 0.83003 0.85186 -0.09600
H 	H 	0.54791 0.88069 0.82166 0.06100
H 	H 	0.58751 0.84045 0.89000 0.08900
H 	H 	0.56297 0.83322 0.77629 0.07000
H 	H 	0.60290 0.79252 0.84538 0.09200
C 	C 	0.57564 0.85612 0.80759 -0.06400
C 	C 	0.62747 0.89673 0.11867 0.06400
C 	C 	0.60145 0.92767 0.14633 -0.01200
C 	C 	0.57869 0.91497 0.19253 -0.00600
C 	C 	0.57919 0.86873 0.20770 -0.05400
H 	H 	0.55946 0.85755 0.24150 0.05100
C 	C 	0.60655 0.83715 0.17965 0.02600
H 	H 	0.60836 0.80194 0.19234 0.02900
C 	C 	0.63237 0.85161 0.13596 -0.11200
C 	C 	0.67033 0.92863 0.11118 -0.10000
H 	H 	0.62880 0.99385 0.11998 0.04200
H 	H 	0.67522 0.93882 0.07060 0.06000
H 	H 	0.65810 0.97225 0.18009 0.05100
H 	H 	0.70435 0.91760 0.13093 0.06700
C 	C 	0.64058 0.96392 0.14283 -0.06500
C 	C 	0.15800 0.06630 0.03762 -0.14100
C 	C 	0.18098 0.08768 0.07921 0.04100
C 	C 	0.22779 0.10721 0.07383 -0.03700
C 	C 	0.25226 0.10596 0.02674 -0.01600
C 	C 	0.23023 0.08292 0.98488 -0.08000
C 	C 	0.18305 0.06306 0.99089 0.14000
H 	H 	0.24460 0.12462 0.10601 0.04200
H 	H 	0.16578 0.04510 0.95937 0.08400
H 	H 	0.16217 0.09003 0.11554 0.03900
C 	C 	0.25682 0.07957 0.93406 0.78200
F 	F 	0.22871 0.05685 0.89780 -0.43100
F 	F 	0.26763 0.12293 0.91565 -0.42600
F 	F 	0.29998 0.05588 0.94039 -0.44200
C 	C 	0.44778 0.02570 0.79706 0.02100
C 	C 	0.42054 0.04794 0.83304 0.07000
C 	C 	0.44214 0.08246 0.86320 -0.07300
C 	C 	0.48985 0.09831 0.85148 0.01500
H 	H 	0.50628 0.12634 0.87281 0.04500
C 	C 	0.51760 0.07576 0.81451 -0.03700
H 	H 	0.55543 0.08624 0.80776 0.05300
C 	C 	0.49768 0.03725 0.78959 -0.01600
C 	C 	0.43041 0.97932 0.81379 -0.09600
H 	H 	0.41160 0.99739 0.89437 0.07300
H 	H 	0.45972 0.95813 0.83098 0.06400
H 	H 	0.35907 0.00142 0.84818 0.10400
H 	H 	0.40754 0.96188 0.78434 0.07200
C 	C 	0.39934 0.00466 0.85474 -0.06400
C 	C 	0.48393 0.12553 0.15342 0.06000
C 	C 	0.50560 0.09526 0.18596 -0.00200
C 	C 	0.47958 0.05634 0.20343 -0.01000
C 	C 	0.42927 0.05168 0.19230 -0.05000
H 	H 	0.40823 0.02274 0.20692 0.05300
C 	C 	0.40694 0.08293 0.15937 0.02200
H 	H 	0.36868 0.07806 0.14899 0.03800
C 	C 	0.43513 0.11847 0.13724 -0.11100
C 	C 	0.52689 0.12710 0.11783 -0.09400
H 	H 	0.58395 0.10793 0.17532 0.05200
H 	H 	0.54541 0.16126 0.11705 0.05300
H 	H 	0.55791 0.05900 0.13711 0.05000
H 	H 	0.51934 0.11162 0.07983 0.06200
C 	C 	0.55170 0.09286 0.15507 -0.07100
C 	C 	0.43497 0.28769 0.96567 -0.12900
C 	C 	0.48156 0.30685 0.97469 0.05500
C 	C 	0.49118 0.35255 0.96232 -0.06000
C 	C 	0.45361 0.37983 0.94264 0.05800
C 	C 	0.40946 0.35868 0.92578 -0.13400
C 	C 	0.39982 0.31276 0.93894 0.11100
H 	H 	0.52607 0.36803 0.97320 0.07100
H 	H 	0.36417 0.29734 0.93088 0.05900
H 	H 	0.50937 0.28717 0.99402 0.03300
C 	C 	0.37082 0.38592 0.89811 0.79200
F 	F 	0.39273 0.41811 0.86628 -0.42600
F 	F 	0.34132 0.35757 0.86847 -0.43000
F 	F 	0.34167 0.40794 0.93333 -0.43000
C 	C 	0.37571 0.58437 0.03219 -0.12400
C 	C 	0.33611 0.57863 0.06588 0.03200
C 	C 	0.29468 0.60580 0.06124 -0.04000
C 	C 	0.29238 0.63954 0.02325 -0.01000
C 	C 	0.33252 0.64604 0.98923 -0.08000
C 	C 	0.37349 0.61735 0.99334 0.13200
H 	H 	0.26423 0.60081 0.08749 0.05200
H 	H 	0.40406 0.62123 0.96708 0.11600
H 	H 	0.33733 0.55293 0.09565 0.03600
C 	C 	0.33156 0.68289 0.94834 0.78200
F 	F 	0.31893 0.72441 0.96951 -0.44400
F 	F 	0.37697 0.68860 0.92507 -0.40300
F 	F 	0.29757 0.67088 0.91135 -0.42400
C 	C 	0.60611 0.44307 0.07254 -0.12400
C 	C 	0.60175 0.39547 0.06720 0.03100
C 	C 	0.64110 0.37027 0.04876 -0.06100
C 	C 	0.68534 0.39224 0.03503 0.03100
C 	C 	0.69090 0.44015 0.04207 -0.13600
C 	C 	0.65136 0.46496 0.06232 0.09200
H 	H 	0.63675 0.33364 0.04378 0.03100
H 	H 	0.65494 0.50153 0.06788 0.05300
H 	H 	0.56717 0.37815 0.07563 0.02500
C 	C 	0.73744 0.46511 0.02492 0.76200
F 	F 	0.73541 0.51165 0.03414 -0.47200
F 	F 	0.77748 0.44824 0.05079 -0.47300
F 	F 	0.74411 0.45880 0.97312 -0.43200
C 	C 	0.66284 0.68115 0.99456 0.03400
C 	C 	0.67714 0.63615 0.00407 -0.11600
C 	C 	0.64313 0.60022 0.99906 0.08900
C 	C 	0.59422 0.60931 0.98639 0.03200
C 	C 	0.58214 0.65324 0.96796 -0.09700
C 	C 	0.61641 0.68939 0.97364 0.04700
H 	H 	0.65350 0.56602 0.01002 0.03200
H 	H 	0.60594 0.72414 0.96486 0.07800
H 	H 	0.71365 0.62935 0.01841 0.08000
C 	C 	0.53156 0.66259 0.94662 0.78700
F 	F 	0.49991 0.67310 0.98606 -0.42500
F 	F 	0.53342 0.69898 0.91280 -0.43000
F 	F 	0.51330 0.62477 0.92071 -0.42400
