data_crystal

_cell_length_a 19.40617
_cell_length_b 16.46637
_cell_length_c 35.89592
_cell_angle_alpha 88.30115
_cell_angle_beta  88.43605
_cell_angle_gamma 107.44724

_symmetry_space_group_name_	'P 1'
_symmetry_space_group_name_H-M	'P 1'

loop_
_symmetry_equiv_pos_as_xyz
  x,y,z

loop_
_atom_site_label
_atom_site_type_symbol
_atom_site_fract_x
_atom_site_fract_y
_atom_site_fract_z
_atom_site_charge
Zn	Zn	0.58403 0.32059 0.88597 1.22300
Zn	Zn	0.69118 0.47734 0.93020 1.19700
C 	C 	0.79195 0.21543 0.85472 0.29300
Zn	Zn	0.75325 0.36382 0.88320 1.22000
Zn	Zn	0.63339 0.18198 0.85180 1.19100
H 	H 	0.67625 0.31903 0.94281 0.18100
C 	C 	0.74176 0.52111 0.84787 0.30300
O 	O 	0.52711 0.13952 0.84418 -0.46500
O 	O 	0.50408 0.26817 0.84660 -0.40100
O 	O 	0.67510 0.35546 0.92054 -0.79000
O 	O 	0.59145 0.48022 0.93835 -0.47000
O 	O 	0.53113 0.22919 0.92214 -0.43300
O 	O 	0.54700 0.41982 0.88400 -0.43100
O 	O 	0.61050 0.15397 0.91175 -0.41000
O 	O 	0.79486 0.53906 0.92700 -0.46600
H 	H 	0.65969 0.33479 0.82759 0.16700
O 	O 	0.83571 0.42399 0.92108 -0.39800
O 	O 	0.66086 0.30777 0.85248 -0.79500
O 	O 	0.72749 0.15941 0.86071 -0.45000
O 	O 	0.78084 0.46803 0.85020 -0.44300
O 	O 	0.81134 0.28480 0.87435 -0.42900
O 	O 	0.68717 0.51348 0.87169 -0.42000
C 	C 	0.48504 0.18777 0.83750 0.30500
C 	C 	0.54209 0.46468 0.91309 0.31000
C 	C 	0.55292 0.16259 0.92942 0.28700
C 	C 	0.84370 0.50081 0.93322 0.28700
Zn	Zn	0.67706 0.44969 0.54405 1.22500
Zn	Zn	0.53160 0.34509 0.49692 1.20400
C 	C 	0.66753 0.17667 0.61059 0.32300
Zn	Zn	0.58416 0.25767 0.56066 1.22400
Zn	Zn	0.72347 0.36488 0.61004 1.19300
H 	H 	0.64889 0.31379 0.50122 0.18000
C 	C 	0.43781 0.26113 0.57218 0.32100
O 	O 	0.80338 0.47385 0.60451 -0.47000
O 	O 	0.73755 0.55088 0.57662 -0.41000
O 	O 	0.61990 0.33636 0.51897 -0.80100
O 	O 	0.52659 0.45026 0.52046 -0.47600
O 	O 	0.76778 0.44050 0.52279 -0.43600
O 	O 	0.64269 0.53621 0.51779 -0.44100
O 	O 	0.76721 0.32379 0.55930 -0.41600
O 	O 	0.50355 0.23466 0.47407 -0.45300
H 	H 	0.60448 0.39784 0.60361 0.17500
O 	O 	0.52323 0.15607 0.52518 -0.37800
O 	O 	0.63518 0.37437 0.58729 -0.78800
O 	O 	0.68594 0.24545 0.63030 -0.47800
O 	O 	0.49463 0.25130 0.58845 -0.45100
O 	O 	0.63636 0.17627 0.57824 -0.43300
O 	O 	0.44139 0.28417 0.53660 -0.40200
C 	C 	0.79602 0.54770 0.59356 0.31200
C 	C 	0.57439 0.52297 0.51043 0.33500
C 	C 	0.79307 0.37648 0.53024 0.28300
C 	C 	0.49439 0.16075 0.49214 0.29000
Zn	Zn	0.94515 0.93862 0.71229 1.22000
Zn	Zn	0.06107 0.92597 0.77736 1.19400
C 	C 	0.15852 0.13886 0.64772 0.30700
Zn	Zn	0.09225 0.07630 0.72132 1.22400
Zn	Zn	0.99694 0.05378 0.64337 1.18900
H 	H 	0.08286 0.92427 0.70607 0.17500
C 	C 	0.00972 0.08850 0.78822 0.32700
O 	O 	0.89386 0.00056 0.63295 -0.45700
O 	O 	0.84555 0.95067 0.69176 -0.38900
O 	O 	0.05562 0.95089 0.72304 -0.78700
O 	O 	0.97182 0.82668 0.78543 -0.46700
O 	O 	0.93714 0.84526 0.67922 -0.45000
O 	O 	0.89433 0.89267 0.75999 -0.44100
O 	O 	0.01229 0.92860 0.63421 -0.40200
O 	O 	0.14864 0.00839 0.79780 -0.45200
H 	H 	0.96465 0.09431 0.70747 0.17000
O 	O 	0.19387 0.07984 0.74277 -0.41500
O 	O 	0.99257 0.05697 0.69836 -0.81200
O 	O 	0.10326 0.09774 0.62782 -0.44700
O 	O 	0.06399 0.13038 0.76544 -0.44200
O 	O 	0.14896 0.15743 0.68251 -0.44800
O 	O 	0.99674 0.00641 0.79565 -0.42000
C 	C 	0.83979 0.98326 0.65813 0.27400
C 	C 	0.90588 0.82624 0.77710 0.32000
C 	C 	0.96665 0.85505 0.64568 0.30200
C 	C 	0.20359 0.05629 0.77697 0.30800
Zn	Zn	0.31225 0.69483 0.38914 1.22300
Zn	Zn	0.21323 0.53831 0.44542 1.19600
C 	C 	0.09346 0.77103 0.35369 0.29100
Zn	Zn	0.14338 0.63579 0.39142 1.22200
Zn	Zn	0.25414 0.81618 0.34588 1.19200
H 	H 	0.21696 0.69566 0.44687 0.18100
C 	C 	0.16399 0.47683 0.36671 0.30200
O 	O 	0.36121 0.86676 0.33597 -0.46500
O 	O 	0.39080 0.74335 0.34563 -0.40500
O 	O 	0.22130 0.65658 0.42712 -0.78900
O 	O 	0.31571 0.54279 0.45240 -0.45700
O 	O 	0.35821 0.79594 0.41780 -0.45100
O 	O 	0.35652 0.60450 0.39523 -0.43800
O 	O 	0.26907 0.85366 0.40372 -0.41200
O 	O 	0.11113 0.46927 0.44940 -0.48000
H 	H 	0.23817 0.66110 0.33301 0.17100
O 	O 	0.06145 0.57431 0.43330 -0.39400
O 	O 	0.23414 0.69226 0.35573 -0.79600
O 	O 	0.15612 0.83165 0.35252 -0.44300
O 	O 	0.12271 0.52753 0.36548 -0.43600
O 	O 	0.07996 0.70746 0.37895 -0.41500
O 	O 	0.21808 0.49072 0.38959 -0.41100
C 	C 	0.40766 0.82264 0.33275 0.30600
C 	C 	0.36934 0.58105 0.42881 0.29800
C 	C 	0.32884 0.85750 0.42097 0.33300
C 	C 	0.05664 0.50074 0.45040 0.35400
Zn	Zn	0.20982 0.71615 0.07112 1.22000
Zn	Zn	0.35802 0.82822 0.11096 1.19400
C 	C 	0.35326 0.56119 0.00482 0.31700
Zn	Zn	0.36754 0.70869 0.05039 1.22100
Zn	Zn	0.21081 0.57410 0.01939 1.19800
H 	H 	0.30656 0.66569 0.11426 0.18000
C 	C 	0.39023 0.88608 0.02735 0.33600
O 	O 	0.10850 0.56526 0.02441 -0.47900
O 	O 	0.11620 0.70253 0.03802 -0.38800
O 	O 	0.30839 0.71149 0.09541 -0.78900
O 	O 	0.27501 0.85900 0.13257 -0.48000
O 	O 	0.15032 0.61910 0.10409 -0.43000
O 	O 	0.20191 0.83105 0.08254 -0.43100
O 	O 	0.20452 0.52994 0.07721 -0.41200
O 	O 	0.46290 0.86084 0.09997 -0.47200
H 	H 	0.26468 0.73297 0.00627 0.17800
O 	O 	0.46658 0.73223 0.07963 -0.40400
O 	O 	0.26525 0.69430 0.02784 -0.78900
O 	O 	0.28618 0.51802 0.01379 -0.44900
O 	O 	0.40940 0.81696 0.02201 -0.45000
O 	O 	0.39303 0.61166 0.02902 -0.43100
O 	O 	0.34998 0.89109 0.05705 -0.42100
C 	C 	0.08306 0.63049 0.02224 0.32900
C 	C 	0.22220 0.87152 0.11352 0.32300
C 	C 	0.15538 0.54185 0.10044 0.29800
C 	C 	0.49928 0.80738 0.09269 0.31100
Zn	Zn	0.97404 0.11934 0.22595 1.22100
Zn	Zn	0.84842 0.08922 0.29405 1.19500
C 	C 	0.77695 0.94705 0.14835 0.29500
Zn	Zn	0.82736 0.97720 0.22580 1.22000
Zn	Zn	0.93104 0.05654 0.14889 1.19000
H 	H 	0.83660 0.13391 0.22588 0.18000
C 	C 	0.89329 0.91976 0.29000 0.30100
O 	O 	0.03397 0.12251 0.14177 -0.45500
O 	O 	0.07678 0.12412 0.20065 -0.37500
O 	O 	0.86190 0.09790 0.23884 -0.78800
O 	O 	0.93827 0.17836 0.30882 -0.47100
O 	O 	0.98506 0.23273 0.20424 -0.45500
O 	O 	0.01746 0.12793 0.27489 -0.43100
O 	O 	0.91204 0.17984 0.15690 -0.42300
O 	O 	0.75520 0.99948 0.30828 -0.46400
H 	H 	0.95726 0.97245 0.20421 0.16100
O 	O 	0.72199 0.95807 0.24943 -0.41200
O 	O 	0.93001 0.01411 0.20122 -0.79700
O 	O 	0.82593 0.01796 0.13584 -0.45200
O 	O 	0.84936 0.89624 0.26228 -0.44000
O 	O 	0.77685 0.91732 0.18288 -0.44300
O 	O 	0.90667 0.99633 0.30336 -0.41800
C 	C 	0.08223 0.11022 0.16464 0.29500
C 	C 	0.00504 0.18046 0.29933 0.33700
C 	C 	0.95908 0.24413 0.17206 0.33500
C 	C 	0.70505 0.96387 0.28472 0.30800
C 	C 	0.08456 0.38740 0.10127 0.01300
C 	C 	0.03392 0.31711 0.11708 0.09800
C 	C 	0.99468 0.32267 0.14980 -0.15500
C 	C 	0.00886 0.40198 0.16662 0.05500
H 	H 	0.98155 0.40702 0.19278 0.00700
C 	C 	0.06087 0.47414 0.15048 -0.03300
H 	H 	0.07203 0.53455 0.16390 0.04500
C 	C 	0.09911 0.46724 0.11750 -0.06900
C 	C 	0.05582 0.37108 0.06312 -0.05900
H 	H 	0.00579 0.23000 0.07178 0.06300
H 	H 	0.09469 0.35540 0.04339 0.04000
H 	H 	0.94251 0.29502 0.08025 0.06000
H 	H 	0.03059 0.41910 0.05249 0.05500
C 	C 	0.99864 0.29082 0.08114 -0.14500
C 	C 	0.61652 0.92135 0.08977 0.04200
C 	C 	0.68375 0.95582 0.10351 0.03400
C 	C 	0.71584 0.90565 0.12509 -0.09600
C 	C 	0.67964 0.81797 0.13074 -0.00800
H 	H 	0.70341 0.77803 0.14733 0.03400
C 	C 	0.61073 0.78282 0.11673 -0.00800
H 	H 	0.58152 0.71646 0.12305 0.03400
C 	C 	0.57787 0.83505 0.09693 -0.09700
C 	C 	0.63911 0.95807 0.05128 -0.09700
H 	H 	0.73225 0.06783 0.06730 0.05300
H 	H 	0.61262 0.00682 0.04312 0.05800
H 	H 	0.75673 0.96987 0.05446 0.04400
H 	H 	0.63775 0.90928 0.03027 0.05300
C 	C 	0.71573 0.99713 0.06683 -0.09100
C 	C 	0.14679 0.00355 0.17712 0.04200
C 	C 	0.17533 0.94220 0.16474 0.01800
C 	C 	0.18744 0.93427 0.12635 -0.09200
C 	C 	0.16913 0.98953 0.10065 -0.02200
H 	H 	0.17819 0.98465 0.07099 0.04600
C 	C 	0.14097 0.05311 0.11337 0.00100
H 	H 	0.12694 0.09551 0.09333 0.03500
C 	C 	0.12923 0.06035 0.15189 -0.10900
C 	C 	0.20198 0.03257 0.20590 -0.08300
H 	H 	0.22903 0.91013 0.21299 0.03100
H 	H 	0.17827 0.01917 0.23477 0.05100
H 	H 	0.28957 0.99042 0.17872 0.04300
H 	H 	0.23881 0.09829 0.20020 0.05700
C 	C 	0.23460 0.96279 0.19193 -0.08200
C 	C 	0.52336 0.94177 0.33035 0.04100
C 	C 	0.59589 0.97228 0.32113 0.02100
C 	C 	0.62926 0.92639 0.29802 -0.09000
C 	C 	0.58631 0.85164 0.28232 -0.00700
H 	H 	0.61034 0.81710 0.26326 0.04100
C 	C 	0.51240 0.82050 0.29179 -0.00500
H 	H 	0.48024 0.76129 0.28059 0.03000
C 	C 	0.48091 0.86391 0.31695 -0.09800
C 	C 	0.53381 0.95693 0.37093 -0.09700
H 	H 	0.64725 0.95034 0.37253 0.05400
H 	H 	0.51941 0.89750 0.38886 0.06100
H 	H 	0.63959 0.06057 0.36456 0.04400
H 	H 	0.51089 0.00724 0.38068 0.05800
C 	C 	0.61630 0.99117 0.36048 -0.08800
C 	C 	0.09459 0.24628 0.34659 0.04000
C 	C 	0.13341 0.31897 0.36307 0.04100
C 	C 	0.14474 0.39931 0.34509 -0.08800
C 	C 	0.12552 0.40325 0.30777 -0.00200
H 	H 	0.13636 0.46425 0.29289 0.02900
C 	C 	0.08596 0.32879 0.29089 -0.00500
H 	H 	0.06634 0.33290 0.26314 0.03800
C 	C 	0.06534 0.25084 0.31147 -0.09600
C 	C 	0.04964 0.21071 0.38115 -0.06700
H 	H 	0.12860 0.28209 0.42207 0.05000
H 	H 	0.06060 0.15263 0.39272 0.05200
H 	H 	0.05900 0.33415 0.40761 0.06500
H 	H 	0.99149 0.20608 0.37910 0.03900
C 	C 	0.09348 0.29370 0.39986 -0.09300
C 	C 	0.97634 0.83037 0.28286 0.00900
C 	C 	0.02611 0.79671 0.29833 0.03900
C 	C 	0.03149 0.79126 0.33728 -0.07000
C 	C 	0.97945 0.81093 0.36031 -0.01800
H 	H 	0.98098 0.80417 0.39036 0.04400
C 	C 	0.92899 0.84620 0.34450 -0.00200
H 	H 	0.89225 0.86681 0.36250 0.03400
C 	C 	0.93019 0.86100 0.30566 -0.08300
C 	C 	0.02995 0.88549 0.25492 -0.06900
H 	H 	0.12948 0.89623 0.28663 0.04100
H 	H 	0.04199 0.95495 0.25922 0.04200
H 	H 	0.10624 0.80680 0.25341 0.03200
H 	H 	0.01805 0.86575 0.22586 0.03200
C 	C 	0.08657 0.84742 0.27263 -0.09400
C 	C 	0.44974 0.08218 0.47514 -0.03100
C 	C 	0.44968 0.00125 0.48872 -0.02400
C 	C 	0.40820 0.92785 0.47178 0.01800
C 	C 	0.36660 0.93451 0.44099 -0.16000
C 	C 	0.36685 0.01570 0.42735 0.20800
C 	C 	0.40701 0.08864 0.44483 -0.10200
H 	H 	0.40902 0.86584 0.48237 0.02600
H 	H 	0.40560 0.15050 0.43437 0.07300
H 	H 	0.48217 0.99502 0.51206 0.03900
O 	O 	0.32873 0.02410 0.39659 -0.29500
H 	H 	0.36286 0.02902 0.37495 0.14300
C 	C 	0.85833 0.37369 0.50965 -0.03200
C 	C 	0.92366 0.39314 0.52815 -0.04100
C 	C 	0.98887 0.43281 0.50850 0.01700
C 	C 	0.98913 0.45189 0.47014 -0.17000
C 	C 	0.92517 0.42141 0.45074 0.20400
C 	C 	0.86003 0.38139 0.47052 -0.10000
H 	H 	0.03865 0.45236 0.52338 0.02000
H 	H 	0.80995 0.36362 0.45581 0.05900
H 	H 	0.92326 0.38535 0.55825 0.03300
O 	O 	0.92558 0.43406 0.41277 -0.29500
H 	H 	0.93507 0.38326 0.40223 0.14100
C 	C 	0.44338 0.60300 0.44130 -0.04300
C 	C 	0.46003 0.64445 0.47494 -0.04400
C 	C 	0.51603 0.63247 0.49582 0.03900
C 	C 	0.55440 0.57836 0.48315 -0.16900
C 	C 	0.54887 0.55451 0.44576 0.18900
C 	C 	0.49216 0.56561 0.42500 -0.09800
H 	H 	0.52310 0.65584 0.52380 0.01900
H 	H 	0.48207 0.53779 0.39794 0.07000
H 	H 	0.42506 0.67837 0.48665 0.03300
O 	O 	0.59153 0.50889 0.43159 -0.34900
H 	H 	0.63419 0.55213 0.41972 0.15700
C 	C 	0.69892 0.09224 0.66216 0.02500
C 	C 	0.74110 0.04387 0.67408 0.03700
C 	C 	0.77278 0.00178 0.64848 -0.08900
C 	C 	0.75379 0.00170 0.61088 -0.00000
H 	H 	0.77647 0.96824 0.59072 0.02500
C 	C 	0.71119 0.05177 0.59863 -0.01000
H 	H 	0.70187 0.05685 0.56916 0.04300
C 	C 	0.68662 0.10113 0.62404 -0.09700
C 	C 	0.63925 0.05214 0.69018 -0.07000
H 	H 	0.66307 0.92821 0.69875 0.05600
H 	H 	0.58859 0.01360 0.67764 0.04500
H 	H 	0.70716 0.01209 0.73225 0.05200
H 	H 	0.63227 0.09778 0.71110 0.02900
C 	C 	0.68721 0.99718 0.70375 -0.11200
C 	C 	0.29305 0.17577 0.64773 0.03800
C 	C 	0.35975 0.20546 0.62994 0.03600
C 	C 	0.36685 0.23713 0.59271 -0.09200
C 	C 	0.30503 0.24502 0.57506 -0.00700
H 	H 	0.30937 0.27289 0.54706 0.04000
C 	C 	0.23684 0.21387 0.59317 -0.00400
H 	H 	0.18936 0.21821 0.57906 0.03000
C 	C 	0.23020 0.17568 0.62911 -0.09400
C 	C 	0.30619 0.09613 0.66244 -0.09100
H 	H 	0.38865 0.08929 0.61881 0.05500
H 	H 	0.27115 0.03710 0.65040 0.04800
H 	H 	0.42714 0.14637 0.66166 0.04600
H 	H 	0.30923 0.09406 0.69329 0.05400
C 	C 	0.38198 0.12973 0.64212 -0.08100
C 	C 	0.90270 0.78006 0.59143 0.02900
C 	C 	0.85707 0.70426 0.58050 0.04400
C 	C 	0.85518 0.62715 0.59920 -0.09500
C 	C 	0.91044 0.62717 0.62382 -0.00900
H 	H 	0.91369 0.56807 0.63658 0.02900
C 	C 	0.95774 0.70472 0.63456 -0.00800
H 	H 	0.99555 0.70463 0.65621 0.02200
C 	C 	0.94883 0.78200 0.62130 -0.09200
C 	C 	0.84481 0.82297 0.59146 -0.08800
H 	H 	0.77533 0.74114 0.54978 0.05600
H 	H 	0.85523 0.87537 0.56983 0.04600
H 	H 	0.74954 0.70715 0.59999 0.05700
H 	H 	0.82835 0.83790 0.61967 0.06100
C 	C 	0.79332 0.73716 0.57873 -0.08300
C 	C 	0.90296 0.54026 0.95737 -0.04100
C 	C 	0.90022 0.51081 0.99452 -0.03500
C 	C 	0.95436 0.55132 0.01841 0.00900
C 	C 	0.01372 0.61890 0.00486 -0.14000
C 	C 	0.01282 0.65356 0.96863 0.20200
C 	C 	0.95712 0.61443 0.94505 -0.11000
H 	H 	0.95353 0.52543 0.04659 0.02600
H 	H 	0.95702 0.64055 0.91697 0.06500
H 	H 	0.85638 0.45617 0.00483 0.02200
O 	O 	0.06772 0.72359 0.95576 -0.29300
H 	H 	0.10415 0.70057 0.94371 0.13000
C 	C 	0.50847 0.09329 0.95449 -0.03100
C 	C 	0.50314 0.10517 0.99287 -0.03600
C 	C 	0.45978 0.03933 0.01655 0.03900
C 	C 	0.42100 0.96123 0.00198 -0.16000
C 	C 	0.42361 0.95110 0.96314 0.19400
C 	C 	0.46737 0.01695 0.93963 -0.08900
H 	H 	0.45879 0.04777 0.04636 0.02500
H 	H 	0.46928 0.00858 0.90982 0.06500
H 	H 	0.53356 0.16472 0.00447 0.03300
O 	O 	0.38238 0.87745 0.94807 -0.30800
H 	H 	0.41454 0.84087 0.94586 0.14500
C 	C 	0.47731 0.48949 0.92012 -0.03900
C 	C 	0.48509 0.57592 0.92479 -0.03900
C 	C 	0.44164 0.59962 0.95127 0.02800
C 	C 	0.38883 0.53689 0.97229 -0.15900
C 	C 	0.37307 0.45080 0.96284 0.20000
C 	C 	0.41607 0.42801 0.93569 -0.09900
H 	H 	0.45158 0.66640 0.95689 0.01600
H 	H 	0.40742 0.36124 0.93047 0.06900
H 	H 	0.53021 0.62428 0.91119 0.03800
O 	O 	0.31808 0.38876 0.98116 -0.29000
H 	H 	0.34059 0.36898 0.00272 0.15200
C 	C 	0.97406 0.19060 0.82865 0.02400
C 	C 	0.92160 0.21907 0.84539 0.05200
C 	C 	0.84890 0.18747 0.83551 -0.10000
C 	C 	0.83042 0.12542 0.80842 -0.00900
H 	H 	0.77484 0.09985 0.80046 0.01700
C 	C 	0.88403 0.09673 0.79129 -0.00700
H 	H 	0.86924 0.04850 0.77062 0.02700
C 	C 	0.95649 0.12984 0.80107 -0.10900
C 	C 	0.02430 0.27832 0.82111 -0.06100
H 	H 	0.94092 0.34727 0.82025 0.04700
H 	H 	0.03344 0.29713 0.79092 0.04800
H 	H 	0.98113 0.34131 0.86691 0.05500
H 	H 	0.07401 0.29066 0.83744 0.04900
C 	C 	0.96472 0.31072 0.84003 -0.10300
C 	C 	0.33223 0.14817 0.77210 0.04100
C 	C 	0.39923 0.17948 0.78639 0.02300
C 	C 	0.41428 0.15010 0.82142 -0.08900
C 	C 	0.36168 0.08266 0.84039 -0.00600
H 	H 	0.37335 0.05691 0.86678 0.04200
C 	C 	0.29265 0.05087 0.82589 -0.00500
H 	H 	0.25181 0.00025 0.84106 0.03900
C 	C 	0.27659 0.08624 0.79223 -0.09600
C 	C 	0.32726 0.23444 0.76123 -0.08600
H 	H 	0.40265 0.30793 0.80280 0.06200
H 	H 	0.28457 0.25252 0.77728 0.05700
H 	H 	0.44644 0.30084 0.75614 0.04000
H 	H 	0.32755 0.24487 0.73047 0.05300
C 	C 	0.40354 0.27019 0.77768 -0.08300
C 	C 	0.75321 0.67337 0.83090 0.03700
C 	C 	0.79250 0.74832 0.81308 0.04000
C 	C 	0.84550 0.74894 0.78550 -0.09900
C 	C 	0.84835 0.67108 0.77160 -0.00500
H 	H 	0.88615 0.67026 0.74894 0.02600
C 	C 	0.80812 0.59434 0.78976 -0.00900
H 	H 	0.81455 0.53477 0.78070 0.02700
C 	C 	0.76516 0.59588 0.82174 -0.09100
C 	C 	0.76439 0.70942 0.86880 -0.08800
H 	H 	0.86696 0.81380 0.85529 0.05300
H 	H 	0.79849 0.68183 0.88656 0.05500
H 	H 	0.78238 0.84587 0.85057 0.04900
H 	H 	0.71323 0.71273 0.88245 0.04400
C 	C 	0.80882 0.79483 0.84846 -0.08400
