data_crystal

_cell_length_a 20.77306
_cell_length_b 21.41103
_cell_length_c 31.51547
_cell_angle_alpha 60.85871
_cell_angle_beta  118.87758
_cell_angle_gamma 133.19917

_symmetry_space_group_name_	'P 1'
_symmetry_space_group_name_H-M	'P 1'

loop_
_symmetry_equiv_pos_as_xyz
  x,y,z

loop_
_atom_site_label
_atom_site_type_symbol
_atom_site_fract_x
_atom_site_fract_y
_atom_site_fract_z
_atom_site_charge
Co	Co	0.04707 0.01989 0.04277 1.17500
Co	Co	0.09110 0.89672 0.04698 1.17800
O 	O 	0.03016 0.11063 0.03221 -0.44000
C 	C 	0.05901 0.21915 0.13111 0.35200
O 	O 	0.08097 0.18717 0.11749 -0.37100
O 	O 	0.04175 0.92636 0.07388 -0.73600
C 	C 	0.01831 0.00361 0.26340 0.22600
Co	Co	0.05698 0.01858 0.54755 1.17900
Co	Co	0.10946 0.90052 0.55505 1.18000
O 	O 	0.04043 0.10985 0.53578 -0.43900
C 	C 	0.06355 0.22034 0.63117 0.35900
O 	O 	0.08749 0.18736 0.61991 -0.37100
O 	O 	0.05355 0.92632 0.57971 -0.73100
C 	C 	0.02024 0.00474 0.76356 0.22000
C 	C 	0.05987 0.04625 0.88129 -0.01500
C 	C 	0.07601 0.05650 0.83882 -0.04200
C 	C 	0.07055 0.96828 0.35789 -0.01300
C 	C 	0.07176 0.96268 0.40484 0.01800
H 	H 	0.09105 0.37005 0.56067 0.10700
F 	F 	0.05952 0.67543 0.18379 -0.40300
Co	Co	0.01056 0.86342 0.12967 1.19200
O 	O 	0.01521 0.06971 0.23060 -0.33500
O 	O 	0.01759 0.95298 0.24918 -0.31600
O 	O 	0.01686 0.76477 0.08406 -0.37400
Co	Co	0.02193 0.86418 0.63538 1.19100
O 	O 	0.00759 0.00103 0.47344 -0.37200
O 	O 	0.01706 0.07072 0.73040 -0.33800
O 	O 	0.02053 0.95402 0.75013 -0.31300
O 	O 	0.03817 0.76848 0.59248 -0.39500
C 	C 	0.01982 0.98575 0.81611 0.02700
C 	C 	0.00831 0.97857 0.31469 0.00200
C 	C 	0.01097 0.96779 0.40936 -0.05600
H 	H 	0.08364 0.68997 0.68538 0.12500
H 	H 	0.10551 0.10085 0.89874 0.09000
H 	H 	0.11944 0.96668 0.35521 0.07800
H 	H 	0.11962 0.95370 0.43777 0.04500
O 	O 	0.12624 0.86246 0.17186 -0.34000
F 	F 	0.11288 0.58811 0.68644 -0.40800
H 	H 	0.08044 0.36596 0.05977 0.10300
O 	O 	0.13896 0.86621 0.67932 -0.34300
H 	H 	0.13097 0.12031 0.82283 0.10100
C 	C 	0.12337 0.37832 0.59851 -0.05900
C 	C 	0.12809 0.31083 0.63814 -0.13300
C 	C 	0.11601 0.37626 0.09720 -0.06500
C 	C 	0.12346 0.31028 0.13692 -0.12700
C 	C 	0.14698 0.71928 0.18420 0.35200
H 	H 	0.12492 0.60429 0.18534 0.12300
C 	C 	0.00280 0.94632 0.46042 0.31500
C 	C 	0.15399 0.72165 0.68871 -0.07400
C 	C 	0.15560 0.45452 0.60773 0.32700
F 	F 	0.15192 0.51954 0.56874 -0.39700
C 	C 	0.14940 0.45331 0.10599 0.32000
C 	C 	0.16700 0.32370 0.18542 0.35800
F 	F 	0.14350 0.51708 0.06689 -0.41700
O 	O 	0.00201 0.87843 0.49390 -0.38000
C 	C 	0.16851 0.32224 0.68703 0.36100
O 	O 	0.17000 0.02676 0.00908 -0.41800
O 	O 	0.99495 0.00335 0.96812 -0.36700
F 	F 	0.17459 0.26077 0.22444 -0.43100
C 	C 	0.98738 0.96501 0.90207 -0.03000
Co	Co	0.97969 0.07599 0.08821 1.17900
O 	O 	0.98232 0.87730 0.98701 -0.37700
O 	O 	0.97527 0.17453 0.13304 -0.36700
Co	Co	0.98874 0.07567 0.59082 1.18100
O 	O 	0.97908 0.17605 0.63167 -0.40500
C 	C 	0.69959 0.28521 0.01966 0.20000
N 	N 	0.75784 0.36834 0.02685 -0.12900
C 	C 	0.72476 0.40684 0.02525 0.19500
N 	N 	0.63430 0.36250 0.01667 -0.13200
C 	C 	0.57648 0.27812 0.01284 0.19300
N 	N 	0.60886 0.23926 0.01405 -0.12200
C 	C 	0.71324 0.26460 0.54786 0.18700
N 	N 	0.77881 0.34324 0.56137 -0.09500
C 	C 	0.75625 0.37563 0.57578 0.19200
N 	N 	0.66950 0.32926 0.57734 -0.13600
C 	C 	0.60371 0.25381 0.56180 0.19400
N 	N 	0.62520 0.22163 0.54672 -0.12900
C 	C 	0.29321 0.67344 0.18096 0.18300
N 	N 	0.38224 0.71626 0.18426 -0.09300
C 	C 	0.40733 0.68089 0.17481 0.19500
N 	N 	0.34413 0.60233 0.16268 -0.13500
C 	C 	0.25601 0.55682 0.16124 0.19100
N 	N 	0.22967 0.59222 0.17015 -0.12900
C 	C 	0.29639 0.67083 0.68537 0.18500
N 	N 	0.38537 0.71439 0.68803 -0.12500
C 	C 	0.41041 0.67992 0.67770 0.19600
N 	N 	0.34726 0.60157 0.66530 -0.13300
C 	C 	0.25922 0.55550 0.66430 0.19400
N 	N 	0.23288 0.59002 0.67405 -0.09900
Co	Co	0.95042 0.92250 0.17705 1.19600
C 	C 	0.22149 0.09117 0.03090 0.36100
Co	Co	0.90322 0.04311 0.17223 1.19000
C 	C 	0.93317 0.72137 0.08558 0.35600
O 	O 	0.79825 0.01179 0.11013 -0.34700
O 	O 	0.94752 0.01119 0.14381 -0.76300
C 	C 	0.81470 0.07173 0.06806 0.32600
O 	O 	0.96968 0.83361 0.18837 -0.42300
C 	C 	0.77923 0.84776 0.19594 0.35700
O 	O 	0.97285 0.95704 0.10227 -0.55100
C 	C 	0.98489 0.94628 0.95410 0.31800
C 	C 	0.17508 0.86651 0.15337 0.33800
O 	O 	0.87248 0.09208 0.04770 -0.36100
O 	O 	0.83080 0.91570 0.21469 -0.38200
O 	O 	0.81348 0.83683 0.17632 -0.34500
O 	O 	0.19445 0.91996 0.11010 -0.38300
O 	O 	0.18675 0.09769 0.05308 -0.39100
O 	O 	0.91371 0.74709 0.10565 -0.34500
Co	Co	0.95386 0.92146 0.67893 1.19700
C 	C 	0.23514 0.09472 0.53914 0.35800
Co	Co	0.90660 0.04520 0.67083 1.16800
C 	C 	0.95423 0.72110 0.59531 0.34600
O 	O 	0.80348 0.01661 0.60763 -0.36700
O 	O 	0.95177 0.01051 0.64474 -0.76300
C 	C 	0.82164 0.07181 0.56426 0.34600
O 	O 	0.97566 0.83320 0.69213 -0.42100
C 	C 	0.78134 0.84959 0.69505 0.35700
O 	O 	0.97995 0.95521 0.60561 -0.54600
C 	C 	0.19028 0.87181 0.66192 0.35000
O 	O 	0.88045 0.08803 0.54700 -0.36100
O 	O 	0.83234 0.91819 0.71316 -0.39200
O 	O 	0.81655 0.83664 0.67741 -0.34500
O 	O 	0.21099 0.92605 0.61901 -0.34600
O 	O 	0.18676 0.03114 0.51724 -0.42200
O 	O 	0.19684 0.09789 0.56064 -0.37300
O 	O 	0.93082 0.74674 0.61289 -0.34900
C 	C 	0.93137 0.89421 0.87944 0.00700
C 	C 	0.94770 0.90439 0.83709 -0.02500
H 	H 	0.87619 0.83046 0.89530 0.06800
H 	H 	0.90205 0.84976 0.81965 0.07000
C 	C 	0.94726 0.98317 0.31939 -0.01300
C 	C 	0.94869 0.97786 0.36623 0.01800
H 	H 	0.89994 0.99304 0.28649 0.06600
H 	H 	0.90020 0.98008 0.36886 0.07000
C 	C 	0.19978 0.39789 0.69630 -0.11200
C 	C 	0.19523 0.46545 0.65672 -0.04700
F 	F 	0.17408 0.25815 0.72596 -0.43500
H 	H 	0.23231 0.40625 0.73414 0.12400
C 	C 	0.65491 0.76264 0.73436 -0.06400
C 	C 	0.68374 0.79010 0.69246 -0.13400
C 	C 	0.62167 0.78032 0.64575 0.37100
C 	C 	0.53339 0.74807 0.64061 -0.10600
C 	C 	0.50619 0.72494 0.68205 -0.06000
C 	C 	0.56693 0.73112 0.72913 0.32200
F 	F 	0.54030 0.70541 0.76993 -0.41400
H 	H 	0.70226 0.76975 0.77062 0.10300
H 	H 	0.48601 0.74109 0.60437 0.13200
F 	F 	0.64845 0.80689 0.60481 -0.40800
C 	C 	0.33597 0.80113 0.69959 -0.11200
C 	C 	0.26936 0.71475 0.69219 -0.04700
C 	C 	0.17816 0.67361 0.68926 0.32400
C 	C 	0.21908 0.81206 0.68830 -0.11900
C 	C 	0.31100 0.84924 0.69757 0.36300
F 	F 	0.37583 0.93479 0.70043 -0.40200
H 	H 	0.40709 0.83271 0.70487 0.12800
C 	C 	0.19899 0.39995 0.19431 -0.11000
C 	C 	0.19210 0.46619 0.15462 -0.05900
H 	H 	0.23378 0.40982 0.23184 0.11800
C 	C 	0.53115 0.74536 0.13975 -0.10900
C 	C 	0.50323 0.72500 0.18010 -0.05000
C 	C 	0.56357 0.73352 0.22726 0.32800
C 	C 	0.65184 0.76460 0.23360 -0.06300
C 	C 	0.68141 0.78936 0.19270 -0.13100
C 	C 	0.61977 0.77729 0.14596 0.36900
F 	F 	0.64717 0.80115 0.10594 -0.42200
H 	H 	0.48409 0.73656 0.10351 0.12400
H 	H 	0.69878 0.77336 0.26988 0.10800
F 	F 	0.53623 0.71044 0.26710 -0.40500
C 	C 	0.17457 0.67350 0.18570 -0.10700
C 	C 	0.26549 0.71779 0.18666 -0.04900
C 	C 	0.32967 0.80631 0.19114 0.32400
C 	C 	0.30104 0.85188 0.18824 -0.06700
C 	C 	0.20867 0.81077 0.18091 -0.12000
H 	H 	0.35011 0.92153 0.18775 0.12100
F 	F 	0.41938 0.84940 0.19677 -0.39500
C 	C 	0.67194 0.13351 0.53394 -0.10800
C 	C 	0.73772 0.22174 0.53817 -0.05300
C 	C 	0.82704 0.26582 0.53613 0.31800
C 	C 	0.85166 0.21888 0.53604 -0.07000
C 	C 	0.78867 0.12746 0.53959 -0.12500
C 	C 	0.69724 0.08692 0.53451 0.33100
F 	F 	0.63404 0.99995 0.53455 -0.38600
H 	H 	0.60177 0.09950 0.53253 0.11400
H 	H 	0.92135 0.25231 0.53686 0.10000
F 	F 	0.89016 0.35325 0.53481 -0.39800
C 	C 	0.87429 0.61874 0.54368 -0.06700
C 	C 	0.89271 0.63065 0.58932 -0.12700
C 	C 	0.87541 0.55952 0.63180 0.36700
C 	C 	0.84085 0.47792 0.62861 -0.10400
C 	C 	0.82134 0.46577 0.58277 -0.04700
C 	C 	0.84017 0.53736 0.54055 0.32900
F 	F 	0.82076 0.52672 0.49578 -0.39900
H 	H 	0.88959 0.67378 0.51092 0.10200
H 	H 	0.82533 0.42282 0.66133 0.12200
F 	F 	0.89483 0.57022 0.67655 -0.42300
C 	C 	0.47808 0.18092 0.59818 -0.11000
C 	C 	0.50878 0.21320 0.55604 -0.06500
C 	C 	0.45367 0.22097 0.50814 0.32100
C 	C 	0.36705 0.19296 0.50255 -0.06700
C 	C 	0.33354 0.15445 0.54471 -0.14100
C 	C 	0.39095 0.15202 0.59258 0.36600
F 	F 	0.36028 0.11649 0.63377 -0.42000
H 	H 	0.52168 0.17798 0.63526 0.12200
H 	H 	0.32359 0.19598 0.46541 0.10200
F 	F 	0.48445 0.25647 0.46700 -0.41200
C 	C 	0.76718 0.17208 0.00414 -0.11400
C 	C 	0.79480 0.13545 0.05436 -0.11400
C 	C 	0.79393 0.15184 0.09251 0.35100
C 	C 	0.76645 0.20358 0.08056 -0.09900
C 	C 	0.73618 0.23759 0.03080 -0.08000
C 	C 	0.73710 0.22242 0.99233 0.36700
F 	F 	0.70811 0.25531 0.94377 -0.41200
H 	H 	0.76629 0.15958 0.97437 0.13000
H 	H 	0.76594 0.21489 0.11035 0.11800
F 	F 	0.81714 0.11528 0.14139 -0.49200
C 	C 	0.81053 0.48567 0.09166 -0.10900
C 	C 	0.78592 0.48947 0.04085 -0.05900
C 	C 	0.79852 0.56701 0.00490 0.31600
C 	C 	0.83645 0.64017 0.01965 -0.09300
C 	C 	0.86400 0.63754 0.07052 -0.12000
C 	C 	0.84802 0.55878 0.10639 0.36800
F 	F 	0.87103 0.55382 0.15565 -0.39500
H 	H 	0.79759 0.42492 0.11963 0.12000
H 	H 	0.84836 0.70049 0.99157 0.11300
F 	F 	0.77212 0.57079 0.95552 -0.40600
C 	C 	0.42510 0.24859 0.97844 -0.09800
C 	C 	0.48287 0.22546 0.01642 -0.07500
C 	C 	0.45939 0.16888 0.06245 0.31800
C 	C 	0.37816 0.13459 0.06988 -0.06800
C 	C 	0.31813 0.15406 0.03096 -0.15700
C 	C 	0.34363 0.21376 0.98577 0.37900
F 	F 	0.28675 0.23394 0.94785 -0.43100
H 	H 	0.44418 0.29490 0.94347 0.12400
H 	H 	0.35939 0.08872 0.10497 0.09300
F 	F 	0.51641 0.14893 0.10041 -0.42200
