data_crystal

_cell_length_a 18.59354
_cell_length_b 18.81267
_cell_length_c 38.48506
_cell_angle_alpha 95.42754
_cell_angle_beta  95.42745
_cell_angle_gamma 126.41263

_symmetry_space_group_name_	'P 1'
_symmetry_space_group_name_H-M	'P 1'

loop_
_symmetry_equiv_pos_as_xyz
  x,y,z

loop_
_atom_site_label
_atom_site_type_symbol
_atom_site_fract_x
_atom_site_fract_y
_atom_site_fract_z
_atom_site_charge
C 	C 	0.91661 0.99566 0.97125 0.03200
C 	C 	0.87007 0.90367 0.97198 -0.07400
C 	C 	0.91670 0.86612 0.97074 0.03200
C 	C 	0.00922 0.92062 0.96871 -0.07500
C 	C 	0.05456 0.01143 0.96681 0.03500
C 	C 	0.00823 0.04872 0.96801 -0.07300
H 	H 	0.79879 0.86210 0.97402 0.05300
H 	H 	0.04559 0.89211 0.96818 0.05300
H 	H 	0.04400 0.11953 0.96725 0.05400
C 	C 	0.93717 0.04552 0.49793 0.03300
C 	C 	0.88753 0.95527 0.50148 -0.07500
C 	C 	0.93006 0.91408 0.50332 0.03400
C 	C 	0.02267 0.96340 0.50185 -0.07300
C 	C 	0.07330 0.05437 0.49927 0.03400
C 	C 	0.03034 0.09537 0.49695 -0.07300
H 	H 	0.81551 0.91671 0.50215 0.05300
H 	H 	0.05550 0.93131 0.50303 0.05200
H 	H 	0.06904 0.16539 0.49438 0.05300
Cu	Cu	0.77188 0.34101 0.96730 0.92800
Cu	Cu	0.75090 0.28069 0.04525 0.87000
Cu	Cu	0.61117 0.28275 0.00337 0.89700
Cu	Cu	0.59928 0.31736 0.92932 0.89400
C 	C 	0.72518 0.30520 0.89092 0.29200
O 	O 	0.81749 0.46861 0.96365 -0.35800
C 	C 	0.65206 0.32300 0.08242 0.28800
O 	O 	0.62909 0.25799 0.95693 -0.63900
O 	O 	0.74604 0.35456 0.01503 -0.64400
O 	O 	0.83761 0.28944 0.97837 -0.37300
O 	O 	0.73390 0.19240 0.00966 -0.44200
O 	O 	0.67878 0.33730 0.89395 -0.38600
O 	O 	0.48117 0.20636 0.98925 -0.38400
C 	C 	0.43610 0.21706 0.96446 0.29700
C 	C 	0.76833 0.49628 0.96966 0.28400
O 	O 	0.68150 0.43743 0.97028 -0.39400
O 	O 	0.47085 0.25274 0.93674 -0.39300
O 	O 	0.77480 0.30898 0.91902 -0.36400
C 	C 	0.79621 0.21355 0.99043 0.29500
O 	O 	0.59105 0.28888 0.05272 -0.38700
O 	O 	0.73080 0.33769 0.08251 -0.42100
H 	H 	0.59628 0.19330 0.94733 0.16700
H 	H 	0.77677 0.41729 0.02710 0.17200
Cu	Cu	0.60160 0.20338 0.50248 0.92800
Cu	Cu	0.65485 0.21790 0.42301 0.87300
Cu	Cu	0.66404 0.36324 0.46631 0.89800
Cu	Cu	0.63297 0.37748 0.54108 0.89400
C 	C 	0.64451 0.25241 0.57864 0.29000
O 	O 	0.47555 0.16406 0.50768 -0.36000
C 	C 	0.61580 0.32037 0.38755 0.29000
O 	O 	0.68942 0.34470 0.51259 -0.63900
O 	O 	0.58689 0.22933 0.45490 -0.64300
O 	O 	0.64476 0.13088 0.49007 -0.37300
O 	O 	0.74244 0.22864 0.45730 -0.43600
O 	O 	0.61131 0.29766 0.57599 -0.38500
O 	O 	0.74385 0.49208 0.48045 -0.38500
C 	C 	0.73449 0.53744 0.50550 0.29600
C 	C 	0.44944 0.21366 0.50079 0.28700
O 	O 	0.51046 0.29949 0.50061 -0.39400
O 	O 	0.70229 0.50479 0.53402 -0.39300
O 	O 	0.63599 0.20008 0.55052 -0.36300
C 	C 	0.71792 0.16525 0.47589 0.29400
O 	O 	0.65884 0.38276 0.41686 -0.39000
O 	O 	0.59774 0.24104 0.38688 -0.41800
H 	H 	0.75474 0.37541 0.52174 0.16600
H 	H 	0.52338 0.20088 0.44358 0.17500
C 	C 	0.74375 0.29120 0.85579 -0.08900
C 	C 	0.80666 0.36551 0.84127 0.02300
C 	C 	0.81641 0.35342 0.80612 -0.07600
C 	C 	0.76271 0.26700 0.78509 0.04700
C 	C 	0.70372 0.19200 0.80033 -0.07500
C 	C 	0.69385 0.20424 0.83552 0.01600
C 	C 	0.76591 0.25637 0.74682 -0.05300
C 	C 	0.68902 0.20862 0.72219 -0.05300
C 	C 	0.69130 0.22051 0.68479 0.04700
C 	C 	0.63817 0.14492 0.65730 -0.07600
C 	C 	0.62746 0.15544 0.62212 0.02300
C 	C 	0.66863 0.24168 0.61425 -0.09000
C 	C 	0.72478 0.31740 0.64155 0.01800
C 	C 	0.73605 0.30696 0.67664 -0.07500
H 	H 	0.84641 0.43281 0.85696 0.03400
H 	H 	0.86340 0.41152 0.79485 0.04700
H 	H 	0.66443 0.12463 0.78477 0.04700
H 	H 	0.64604 0.14639 0.84674 0.02200
H 	H 	0.83138 0.29832 0.73864 0.04300
H 	H 	0.62339 0.16475 0.73001 0.04300
H 	H 	0.60304 0.07795 0.66330 0.04800
H 	H 	0.58389 0.09644 0.60125 0.03600
H 	H 	0.75726 0.38427 0.63573 0.01900
H 	H 	0.77628 0.36586 0.69767 0.04700
C 	C 	0.62665 0.33332 0.11669 -0.09300
C 	C 	0.53620 0.27319 0.12128 0.01700
C 	C 	0.51487 0.27222 0.15519 -0.07700
C 	C 	0.58333 0.33214 0.18476 0.04500
C 	C 	0.67275 0.39612 0.17987 -0.07700
C 	C 	0.69422 0.39687 0.14599 0.01700
C 	C 	0.56429 0.31782 0.22089 -0.05400
C 	C 	0.59047 0.38657 0.24661 -0.05400
C 	C 	0.59008 0.37627 0.28429 0.04600
C 	C 	0.66737 0.44109 0.31022 -0.07800
C 	C 	0.67348 0.42551 0.34481 0.01800
C 	C 	0.60211 0.34503 0.35375 -0.09500
C 	C 	0.52181 0.28354 0.32859 0.01900
C 	C 	0.51532 0.29959 0.29410 -0.07700
H 	H 	0.48319 0.22424 0.09889 0.03500
H 	H 	0.44569 0.22268 0.15867 0.04600
H 	H 	0.72638 0.44242 0.20253 0.04600
H 	H 	0.76393 0.44482 0.14272 0.02700
H 	H 	0.53153 0.25079 0.22681 0.04100
H 	H 	0.62245 0.45327 0.24042 0.04100
H 	H 	0.72444 0.50160 0.30318 0.04500
H 	H 	0.73552 0.47384 0.36410 0.02800
H 	H 	0.46539 0.22228 0.33548 0.02600
H 	H 	0.45331 0.25131 0.27480 0.04600
C 	C 	0.87631 0.81775 0.50487 0.00100
C 	C 	0.81300 0.75398 0.47484 -0.07000
C 	C 	0.76350 0.66208 0.47518 0.05500
C 	C 	0.77921 0.63335 0.50562 -0.09200
C 	C 	0.84053 0.69721 0.53604 -0.00400
C 	C 	0.88836 0.78907 0.53595 -0.00300
S 	S 	0.67936 0.58396 0.43800 -0.05500
S 	S 	0.96191 0.86736 0.57502 -0.04600
H 	H 	0.04708 0.89045 0.57523 0.03400
H 	H 	0.71834 0.56479 0.41409 0.04800
H 	H 	0.80228 0.77602 0.45117 0.04900
H 	H 	0.85188 0.67540 0.55965 0.03800
C 	C 	0.77380 0.13423 0.48142 -0.09900
C 	C 	0.81137 0.14131 0.51611 -0.00200
C 	C 	0.86936 0.11743 0.52187 -0.00400
C 	C 	0.88960 0.08545 0.49266 0.00300
C 	C 	0.85306 0.07957 0.45802 -0.07400
C 	C 	0.79454 0.10265 0.45221 0.06200
S 	S 	0.91622 0.12780 0.56569 -0.04000
S 	S 	0.74335 0.08642 0.40834 -0.10000
H 	H 	0.66247 0.00156 0.39924 0.03200
H 	H 	0.86110 0.04773 0.57687 0.03700
H 	H 	0.79629 0.16637 0.53861 0.04200
H 	H 	0.86749 0.05370 0.43555 0.05100
C 	C 	0.17183 0.10678 0.49978 0.00200
C 	C 	0.20285 0.11159 0.46760 -0.07100
C 	C 	0.29372 0.14695 0.46756 0.05600
C 	C 	0.35418 0.17755 0.50002 -0.09300
C 	C 	0.32402 0.17595 0.53217 -0.00500
C 	C 	0.23350 0.14143 0.53222 -0.00300
S 	S 	0.33040 0.15103 0.42676 -0.07300
S 	S 	0.19802 0.14169 0.57303 -0.04100
H 	H 	0.16892 0.06354 0.58456 0.03500
H 	H 	0.36558 0.23314 0.41778 0.03700
H 	H 	0.15563 0.08540 0.44261 0.05000
H 	H 	0.37105 0.20142 0.55717 0.03600
C 	C 	0.86838 0.76887 0.96999 0.00200
C 	C 	0.85210 0.71378 0.93835 -0.06900
C 	C 	0.82206 0.62561 0.93815 0.05000
C 	C 	0.80648 0.59102 0.96987 -0.08800
C 	C 	0.81994 0.64506 0.00132 -0.01100
C 	C 	0.85135 0.73387 0.00161 -0.00400
S 	S 	0.80392 0.55925 0.89797 -0.04600
S 	S 	0.87077 0.80098 0.04180 -0.05000
H 	H 	0.95988 0.84860 0.05814 0.03400
H 	H 	0.71530 0.51210 0.88108 0.03200
H 	H 	0.86553 0.74058 0.91404 0.04900
H 	H 	0.80639 0.61818 0.02561 0.03100
C 	C 	0.82449 0.15541 0.98502 -0.09700
C 	C 	0.85475 0.13585 0.01480 -0.00700
C 	C 	0.87813 0.07763 0.01062 -0.00700
C 	C 	0.87188 0.03859 0.97627 0.00400
C 	C 	0.83804 0.05510 0.94649 -0.07200
C 	C 	0.81385 0.11280 0.95065 0.05700
S 	S 	0.91656 0.05518 0.04859 -0.05100
S 	S 	0.76786 0.12871 0.91275 -0.05300
H 	H 	0.83675 0.19991 0.90007 0.05100
H 	H 	0.84440 0.97864 0.05748 0.03400
H 	H 	0.86048 0.16635 0.04129 0.01900
H 	H 	0.83288 0.02495 0.92003 0.05100
C 	C 	0.15196 0.06867 0.96507 0.00000
C 	C 	0.21553 0.13191 0.99514 -0.06700
C 	C 	0.30864 0.18436 0.99465 0.05600
C 	C 	0.33887 0.17217 0.96396 -0.09200
C 	C 	0.27505 0.11147 0.93340 -0.00400
C 	C 	0.18187 0.06014 0.93372 -0.00300
S 	S 	0.38639 0.26734 0.03210 -0.04900
S 	S 	0.10336 0.98610 0.89469 -0.04400
H 	H 	0.08112 0.90245 0.89488 0.03400
H 	H 	0.40199 0.34696 0.02853 0.03400
H 	H 	0.19240 0.14005 0.01898 0.04800
H 	H 	0.29798 0.10273 0.90960 0.03800
