data_crystal

_cell_length_a 35.01734
_cell_length_b 31.62407
_cell_length_c 19.28449
_cell_angle_alpha 92.65791
_cell_angle_beta  85.32463
_cell_angle_gamma 124.18282

_symmetry_space_group_name_	'P 1'
_symmetry_space_group_name_H-M	'P 1'

loop_
_symmetry_equiv_pos_as_xyz
  x,y,z

loop_
_atom_site_label
_atom_site_type_symbol
_atom_site_fract_x
_atom_site_fract_y
_atom_site_fract_z
_atom_site_charge
C 	C 	0.90845 0.04724 0.88401 -0.00700
C 	C 	0.92212 0.01674 0.85148 -0.02700
C 	C 	0.94434 0.00050 0.88842 -0.07000
C 	C 	0.95051 0.01191 0.95973 0.07000
C 	C 	0.93609 0.04160 0.99247 -0.10000
C 	C 	0.91533 0.05938 0.95485 -0.01800
N 	N 	0.96914 0.99120 0.00056 -0.12600
C 	C 	0.11464 0.07290 0.01528 0.02400
C 	C 	0.08401 0.04399 0.07154 -0.03100
C 	C 	0.03638 0.01888 0.06713 -0.06700
C 	C 	0.01871 0.02194 0.00626 0.10400
C 	C 	0.04965 0.05266 0.95065 -0.09100
C 	C 	0.09738 0.07807 0.95541 -0.05100
C 	C 	0.90999 0.83193 0.97729 -0.01700
C 	C 	0.94994 0.86693 0.93633 -0.03100
C 	C 	0.96938 0.91933 0.94311 -0.06100
C 	C 	0.94875 0.93716 0.99085 0.03500
C 	C 	0.90833 0.90196 0.03058 -0.03800
C 	C 	0.88906 0.84961 0.02400 -0.01100
H 	H 	0.91598 0.00614 0.79737 0.03800
H 	H 	0.95684 0.97929 0.86176 0.04600
H 	H 	0.94061 0.05047 0.04733 0.07300
H 	H 	0.90416 0.08213 0.98090 0.02900
H 	H 	0.09710 0.04037 0.11834 0.04000
H 	H 	0.01295 0.99585 0.11039 0.05100
H 	H 	0.03694 0.05609 0.90348 0.05200
H 	H 	0.12089 0.10106 0.91218 0.03700
H 	H 	0.96612 0.85356 0.89977 0.03500
H 	H 	0.00014 0.94597 0.91110 0.04100
H 	H 	0.89216 0.91533 0.06714 0.04800
H 	H 	0.85800 0.82278 0.05544 0.03900
C 	C 	0.95283 0.10685 0.64040 -0.00000
C 	C 	0.95339 0.07128 0.59476 -0.02700
C 	C 	0.97233 0.04502 0.61395 -0.07000
C 	C 	0.98961 0.05290 0.68029 0.07600
C 	C 	0.99178 0.09097 0.72369 -0.06800
C 	C 	0.97360 0.11787 0.70383 -0.02600
N 	N 	0.00570 0.02299 0.70423 -0.14200
C 	C 	0.15143 0.10057 0.71262 -0.00200
C 	C 	0.12113 0.06463 0.76374 -0.02800
C 	C 	0.07333 0.03972 0.76101 -0.06900
C 	C 	0.05532 0.05040 0.70720 0.07600
C 	C 	0.08583 0.08644 0.65579 -0.07100
C 	C 	0.13357 0.11146 0.65879 -0.02600
C 	C 	0.94104 0.87128 0.62501 -0.00200
C 	C 	0.98295 0.91102 0.59293 -0.02600
C 	C 	0.00416 0.96096 0.61811 -0.07200
C 	C 	0.98384 0.97164 0.67646 0.07600
C 	C 	0.94192 0.93178 0.70825 -0.07000
C 	C 	0.92066 0.88186 0.68282 -0.02700
H 	H 	0.93908 0.06395 0.54445 0.03700
H 	H 	0.97331 0.01859 0.57748 0.05000
H 	H 	0.00695 0.09909 0.77336 0.05000
H 	H 	0.97531 0.14694 0.73799 0.03700
H 	H 	0.13460 0.05569 0.80519 0.03300
H 	H 	0.05014 0.01149 0.80008 0.04700
H 	H 	0.07257 0.09395 0.61260 0.04900
H 	H 	0.15670 0.13855 0.61847 0.03700
H 	H 	0.99887 0.90326 0.54810 0.03600
H 	H 	0.03570 0.99140 0.59144 0.04900
H 	H 	0.92566 0.93953 0.75235 0.04700
H 	H 	0.88808 0.85150 0.70757 0.03500
Co	Co	0.68196 0.28111 0.91008 1.17800
O 	O 	0.72604 0.28117 0.82983 -0.38500
Co	Co	0.59064 0.27492 0.98958 1.17200
O 	O 	0.61488 0.24905 0.89059 -0.47500
O 	O 	0.64452 0.34736 0.99498 -0.43300
O 	O 	0.68247 0.21409 0.89059 -0.36200
C 	C 	0.68117 0.37198 0.94990 0.33200
O 	O 	0.57445 0.28035 0.88650 -0.37600
C 	C 	0.51147 0.22274 0.05933 0.28500
C 	C 	0.66914 0.27724 0.04899 0.30600
O 	O 	0.54283 0.27084 0.06633 -0.36500
O 	O 	0.52538 0.20331 0.01185 -0.34300
O 	O 	0.70767 0.29563 0.01151 -0.35500
O 	O 	0.63327 0.25309 0.01220 -0.45200
O 	O 	0.68997 0.34813 0.89907 -0.53500
C 	C 	0.71281 0.23452 0.83868 0.29100
C 	C 	0.59903 0.26691 0.85111 0.31700
H 	H 	0.70765 0.36745 0.85462 0.16900
Co	Co	0.72032 0.32881 0.44408 1.18100
O 	O 	0.77504 0.32474 0.40090 -0.38200
Co	Co	0.62736 0.33352 0.46472 1.18400
O 	O 	0.66443 0.30592 0.38835 -0.46000
O 	O 	0.68120 0.40327 0.48726 -0.42100
O 	O 	0.71424 0.25755 0.44159 -0.36200
C 	C 	0.72558 0.42435 0.46731 0.33400
O 	O 	0.63577 0.34546 0.35475 -0.36200
C 	C 	0.54013 0.28596 0.49927 0.29300
C 	C 	0.67881 0.32205 0.57025 0.30700
O 	O 	0.57160 0.33236 0.51532 -0.37600
O 	O 	0.55819 0.26507 0.46370 -0.34800
O 	O 	0.72108 0.33592 0.55519 -0.37000
O 	O 	0.65443 0.30296 0.51674 -0.47000
O 	O 	0.73981 0.40010 0.42649 -0.53500
C 	C 	0.75511 0.27651 0.41238 0.29400
C 	C 	0.66234 0.32964 0.33721 0.30000
H 	H 	0.76802 0.42075 0.39314 0.16600
C 	C 	0.61582 0.28061 0.77742 -0.11300
C 	C 	0.63144 0.32919 0.74940 0.06000
C 	C 	0.65203 0.34159 0.68138 -0.03600
C 	C 	0.65738 0.30718 0.64107 -0.10000
C 	C 	0.64123 0.25867 0.66816 0.06300
C 	C 	0.62070 0.24598 0.73609 -0.03400
H 	H 	0.66411 0.37852 0.65978 0.03700
H 	H 	0.60937 0.20927 0.75758 0.04100
C 	C 	0.62662 0.36854 0.78997 -0.11700
C 	C 	0.64805 0.22104 0.62688 -0.11600
C 	C 	0.58776 0.37177 0.76478 -0.00900
H 	H 	0.59267 0.37805 0.70759 0.03100
H 	H 	0.58995 0.40541 0.78971 0.02500
C 	C 	0.69432 0.22930 0.64092 -0.01400
H 	H 	0.69567 0.22611 0.69753 0.03600
H 	H 	0.72353 0.26811 0.62384 0.04700
H 	H 	0.62284 0.36391 0.84695 0.06500
H 	H 	0.64617 0.22384 0.57025 0.07200
C 	C 	0.53946 0.32425 0.78254 -0.16200
C 	C 	0.70056 0.18983 0.60321 -0.16600
H 	H 	0.53245 0.31948 0.83980 0.07300
H 	H 	0.51326 0.32866 0.76163 0.05900
H 	H 	0.53575 0.28954 0.75887 0.07500
H 	H 	0.65963 0.40662 0.78125 0.05100
H 	H 	0.67362 0.15085 0.62301 0.06400
H 	H 	0.73510 0.19827 0.61245 0.06900
H 	H 	0.69823 0.19102 0.54636 0.07700
H 	H 	0.61935 0.18136 0.64199 0.05400
C 	C 	0.66726 0.28992 0.12297 -0.10400
C 	C 	0.65425 0.25355 0.17570 0.06100
C 	C 	0.65497 0.26795 0.24583 -0.03000
C 	C 	0.66888 0.31791 0.26404 -0.09600
C 	C 	0.68534 0.35517 0.21135 0.06100
C 	C 	0.68388 0.34057 0.14130 -0.02900
H 	H 	0.64420 0.23997 0.28630 0.04800
H 	H 	0.69752 0.36928 0.10097 0.05200
C 	C 	0.64138 0.19981 0.15844 -0.11900
C 	C 	0.71006 0.41156 0.22891 -0.12200
C 	C 	0.59002 0.15880 0.17701 -0.01000
H 	H 	0.58103 0.16140 0.23295 0.03200
H 	H 	0.58391 0.12051 0.16841 0.03100
C 	C 	0.76196 0.43586 0.23370 -0.01200
H 	H 	0.77783 0.43567 0.18143 0.03500
H 	H 	0.76730 0.41336 0.26952 0.02400
H 	H 	0.65008 0.19523 0.10318 0.06800
H 	H 	0.69518 0.41793 0.27803 0.06800
C 	C 	0.55797 0.16283 0.13283 -0.16500
C 	C 	0.78658 0.49089 0.25998 -0.16600
H 	H 	0.56610 0.15973 0.07671 0.08100
H 	H 	0.52151 0.13132 0.14650 0.06700
H 	H 	0.56158 0.19972 0.14291 0.07000
H 	H 	0.66238 0.19209 0.18913 0.05700
H 	H 	0.78254 0.51453 0.22430 0.06600
H 	H 	0.82403 0.50737 0.26230 0.06200
H 	H 	0.77223 0.49209 0.31304 0.06300
H 	H 	0.70532 0.43146 0.18777 0.06200
C 	C 	0.87128 0.71905 0.54277 0.08300
C 	C 	0.88117 0.75963 0.50121 -0.06800
C 	C 	0.90431 0.80935 0.52780 -0.02600
C 	C 	0.91765 0.81892 0.59649 -0.00000
C 	C 	0.90793 0.77833 0.63823 -0.02700
C 	C 	0.88460 0.72855 0.61169 -0.06500
H 	H 	0.87040 0.75248 0.44848 0.05300
H 	H 	0.91133 0.84034 0.49534 0.03600
H 	H 	0.91807 0.78531 0.69135 0.03500
H 	H 	0.87621 0.69735 0.64492 0.05500
N 	N 	0.84436 0.66837 0.51686 -0.08700
N 	N 	0.84814 0.63435 0.53832 -0.09000
C 	C 	0.75846 0.47930 0.48126 -0.12600
C 	C 	0.80227 0.49749 0.50394 0.03600
C 	C 	0.83218 0.54907 0.52148 -0.09900
C 	C 	0.81870 0.58290 0.51609 0.10500
C 	C 	0.77497 0.56473 0.49262 -0.09700
C 	C 	0.74519 0.51330 0.47494 0.04100
H 	H 	0.81276 0.47151 0.50934 0.01700
H 	H 	0.86562 0.56266 0.54003 0.06000
H 	H 	0.76377 0.59022 0.48914 0.06500
H 	H 	0.71163 0.49977 0.45685 0.02700
C 	C 	0.88748 0.17898 0.57942 0.08700
C 	C 	0.93308 0.20879 0.59935 -0.06600
C 	C 	0.95432 0.18536 0.62014 -0.02500
C 	C 	0.92974 0.13180 0.62220 0.00200
C 	C 	0.88330 0.10201 0.60540 -0.02400
C 	C 	0.86223 0.12549 0.58424 -0.06000
H 	H 	0.95241 0.25008 0.59705 0.05200
H 	H 	0.99005 0.20876 0.63347 0.03600
H 	H 	0.86360 0.06071 0.60866 0.03700
H 	H 	0.82643 0.10221 0.57132 0.05700
N 	N 	0.86721 0.20296 0.55434 -0.08600
N 	N 	0.84455 0.18618 0.50153 -0.08800
C 	C 	0.78156 0.25481 0.42613 -0.10000
C 	C 	0.76063 0.20189 0.42002 0.02900
C 	C 	0.78174 0.17947 0.44479 -0.09500
C 	C 	0.82375 0.20959 0.47634 0.10200
C 	C 	0.84580 0.26288 0.47990 -0.09100
C 	C 	0.82474 0.28538 0.45499 0.03000
H 	H 	0.72733 0.17792 0.39789 0.02800
H 	H 	0.76502 0.13851 0.44066 0.06000
H 	H 	0.87898 0.28674 0.50231 0.06200
H 	H 	0.84127 0.32626 0.46022 0.03100
C 	C 	0.40565 0.20068 0.60574 0.10200
C 	C 	0.41555 0.18069 0.54605 -0.09200
C 	C 	0.45965 0.20817 0.51192 0.03100
C 	C 	0.49445 0.25589 0.53757 -0.09700
C 	C 	0.48509 0.27513 0.59901 0.02900
C 	C 	0.44098 0.24752 0.63324 -0.09000
H 	H 	0.38869 0.14432 0.52517 0.06000
H 	H 	0.46651 0.19277 0.46484 0.03500
H 	H 	0.51188 0.31143 0.62021 0.03100
H 	H 	0.43421 0.26264 0.68066 0.06000
N 	N 	0.35978 0.17394 0.63656 -0.08900
N 	N 	0.34550 0.19681 0.67250 -0.08700
C 	C 	0.20174 0.12489 0.71320 -0.00100
C 	C 	0.23185 0.17831 0.71661 -0.02700
C 	C 	0.27965 0.20184 0.70643 -0.06800
C 	C 	0.29770 0.17227 0.69241 0.08300
C 	C 	0.26774 0.11859 0.69404 -0.06400
C 	C 	0.21994 0.09506 0.70398 -0.02700
H 	H 	0.21814 0.20162 0.72498 0.03500
H 	H 	0.30258 0.24315 0.70670 0.05100
H 	H 	0.28136 0.09520 0.68587 0.05500
H 	H 	0.19700 0.05376 0.70220 0.03600
C 	C 	0.76016 0.53544 0.94513 0.10300
C 	C 	0.71176 0.50700 0.94985 -0.10300
C 	C 	0.68599 0.45368 0.95264 0.04000
C 	C 	0.70848 0.42827 0.94978 -0.13000
C 	C 	0.75699 0.45666 0.94454 0.03300
C 	C 	0.78279 0.51006 0.94196 -0.09800
H 	H 	0.69414 0.52630 0.95141 0.05700
H 	H 	0.64854 0.43207 0.95579 0.01900
H 	H 	0.77466 0.43737 0.94221 0.01400
H 	H 	0.82020 0.53162 0.93689 0.06000
N 	N 	0.78574 0.58946 0.94106 -0.09200
N 	N 	0.82379 0.61669 0.96738 -0.08800
C 	C 	0.89059 0.77685 0.97249 -0.02000
C 	C 	0.89127 0.75118 0.02933 -0.00600
C 	C 	0.87005 0.69830 0.02671 -0.04300
C 	C 	0.84755 0.67061 0.96775 0.05800
C 	C 	0.84837 0.69652 0.90973 -0.06100
C 	C 	0.86973 0.74946 0.91222 -0.02700
H 	H 	0.90777 0.77213 0.07577 0.03700
H 	H 	0.87017 0.67863 0.07112 0.05200
H 	H 	0.83214 0.67560 0.86316 0.05300
H 	H 	0.86946 0.76905 0.86782 0.03400
C 	C 	0.84223 0.10256 0.77696 0.08300
C 	C 	0.82647 0.05093 0.77228 -0.06900
C 	C 	0.84867 0.03299 0.80575 -0.02400
C 	C 	0.88721 0.06677 0.84387 0.00000
C 	C 	0.90481 0.11907 0.84494 -0.02900
C 	C 	0.88268 0.13700 0.81134 -0.06400
H 	H 	0.79569 0.02426 0.74531 0.05100
H 	H 	0.83504 0.99261 0.80391 0.03300
H 	H 	0.93546 0.14577 0.87220 0.03300
H 	H 	0.89609 0.17728 0.81402 0.05500
N 	N 	0.81343 0.11764 0.75676 -0.08600
N 	N 	0.82676 0.16345 0.75805 -0.08900
C 	C 	0.73952 0.21379 0.81020 -0.10200
C 	C 	0.78036 0.24409 0.76773 0.02800
C 	C 	0.80772 0.22580 0.74632 -0.09500
C 	C 	0.79439 0.17709 0.76661 0.10200
C 	C 	0.75196 0.14556 0.80523 -0.09200
C 	C 	0.72464 0.16375 0.82654 0.02800
H 	H 	0.79149 0.28218 0.75269 0.03200
H 	H 	0.84013 0.25018 0.71608 0.06100
H 	H 	0.74114 0.10779 0.82127 0.06100
H 	H 	0.69249 0.13937 0.85739 0.03200
C 	C 	0.25872 0.13902 0.03317 0.08800
C 	C 	0.24292 0.17056 0.02635 -0.06700
C 	C 	0.19597 0.14905 0.01910 -0.01900
C 	C 	0.16457 0.09575 0.01799 -0.00500
C 	C 	0.18062 0.06416 0.02248 -0.02100
C 	C 	0.22751 0.08565 0.02978 -0.06400
H 	H 	0.26696 0.21173 0.02748 0.05700
H 	H 	0.18392 0.17374 0.01528 0.04100
H 	H 	0.15671 0.02296 0.02071 0.04000
H 	H 	0.23959 0.06093 0.03265 0.05900
N 	N 	0.30641 0.16128 0.04025 -0.08300
N 	N 	0.31920 0.13980 0.07542 -0.08800
C 	C 	0.46187 0.20126 0.07435 -0.09200
C 	C 	0.42945 0.14813 0.07229 0.03100
C 	C 	0.38212 0.12786 0.07483 -0.09100
C 	C 	0.36686 0.16046 0.07885 0.10500
C 	C 	0.39900 0.21339 0.08552 -0.08700
C 	C 	0.44632 0.23373 0.08336 0.03000
H 	H 	0.44096 0.12263 0.06683 0.03300
H 	H 	0.35738 0.08691 0.07144 0.06200
H 	H 	0.38737 0.23876 0.09106 0.06500
H 	H 	0.47087 0.27476 0.08622 0.03900
