data_crystal

_cell_length_a 26.04722
_cell_length_b 26.43375
_cell_length_c 38.79871
_cell_angle_alpha 95.51396
_cell_angle_beta  95.51144
_cell_angle_gamma 125.67900

_symmetry_space_group_name_	'P 1'
_symmetry_space_group_name_H-M	'P 1'

loop_
_symmetry_equiv_pos_as_xyz
  x,y,z

loop_
_atom_site_label
_atom_site_type_symbol
_atom_site_fract_x
_atom_site_fract_y
_atom_site_fract_z
_atom_site_charge
C 	C 	0.96339 0.01626 0.98903 0.12100
N 	N 	0.02500 0.04712 0.98390 -0.13900
C 	C 	0.05489 0.01899 0.98658 0.12200
N 	N 	0.99662 0.03656 0.46590 -0.13700
Cu	Cu	0.64225 0.23534 0.99992 0.92800
Cu	Cu	0.68943 0.24557 0.92400 0.87000
Cu	Cu	0.67306 0.33929 0.95810 0.89600
Cu	Cu	0.64034 0.34943 0.02961 0.89500
C 	C 	0.66881 0.28074 0.07437 0.28800
O 	O 	0.54816 0.19389 0.00088 -0.35800
C 	C 	0.64653 0.29959 0.88049 0.29000
O 	O 	0.69129 0.33418 0.00611 -0.63800
O 	O 	0.63090 0.24618 0.95074 -0.64200
O 	O 	0.68471 0.19323 0.99360 -0.37800
O 	O 	0.75293 0.26408 0.96205 -0.44100
O 	O 	0.63597 0.30369 0.06852 -0.38600
O 	O 	0.71917 0.43021 0.96841 -0.38200
C 	C 	0.71468 0.46181 0.99497 0.29400
C 	C 	0.52104 0.22110 0.99195 0.28500
O 	O 	0.55689 0.28097 0.98906 -0.39300
O 	O 	0.67263 0.43259 0.01575 -0.39000
O 	O 	0.66605 0.24118 0.04931 -0.36100
C 	C 	0.73924 0.22205 0.98206 0.29600
O 	O 	0.66999 0.34614 0.90775 -0.38700
O 	O 	0.64512 0.24959 0.88356 -0.42000
H 	H 	0.73766 0.36176 0.01678 0.16300
H 	H 	0.58579 0.22001 0.93791 0.17200
Cu	Cu	0.73435 0.34203 0.45943 0.92800
Cu	Cu	0.72762 0.29710 0.53595 0.87000
Cu	Cu	0.62596 0.30414 0.50005 0.89800
Cu	Cu	0.61439 0.33597 0.42885 0.89400
C 	C 	0.69411 0.32106 0.38458 0.28900
O 	O 	0.76978 0.43352 0.45827 -0.36300
C 	C 	0.66495 0.33216 0.57778 0.28900
O 	O 	0.63362 0.28827 0.45233 -0.64100
O 	O 	0.72141 0.35096 0.50831 -0.64200
O 	O 	0.78273 0.30573 0.46636 -0.37300
O 	O 	0.71476 0.23615 0.49881 -0.43800
O 	O 	0.66566 0.34823 0.39103 -0.38600
O 	O 	0.53310 0.25397 0.48900 -0.37800
C 	C 	0.49925 0.25551 0.46201 0.29500
C 	C 	0.74003 0.45692 0.46917 0.28500
O 	O 	0.67854 0.41851 0.47035 -0.38800
O 	O 	0.52713 0.29677 0.44084 -0.39300
O 	O 	0.73017 0.31956 0.41025 -0.36000
C 	C 	0.75719 0.25250 0.47824 0.29400
O 	O 	0.61766 0.30553 0.55010 -0.38700
O 	O 	0.71821 0.33767 0.57570 -0.41900
H 	H 	0.60796 0.24279 0.44147 0.16400
H 	H 	0.74535 0.39519 0.52109 0.17200
C 	C 	0.65368 0.34611 0.61279 -0.09300
C 	C 	0.70532 0.39590 0.63870 0.01900
C 	C 	0.69683 0.40325 0.67340 -0.07700
C 	C 	0.63690 0.36055 0.68255 0.04700
C 	C 	0.58417 0.31349 0.65620 -0.07600
C 	C 	0.59252 0.30624 0.62148 0.01800
C 	C 	0.63080 0.36246 0.72003 -0.05400
C 	C 	0.61120 0.31145 0.73480 -0.05300
C 	C 	0.61450 0.31476 0.77336 0.04600
C 	C 	0.56676 0.26185 0.78609 -0.07700
C 	C 	0.57541 0.25857 0.82171 0.02000
C 	C 	0.63171 0.30838 0.84503 -0.09400
C 	C 	0.67769 0.36306 0.83283 0.01900
C 	C 	0.66961 0.36598 0.79709 -0.07600
H 	H 	0.75238 0.42789 0.63216 0.02700
H 	H 	0.73747 0.44054 0.69344 0.04700
H 	H 	0.53723 0.28135 0.66284 0.04900
H 	H 	0.55207 0.26810 0.60167 0.03500
H 	H 	0.64792 0.40720 0.73624 0.04300
H 	H 	0.59304 0.26660 0.71825 0.04200
H 	H 	0.52409 0.22212 0.76810 0.04600
H 	H 	0.53935 0.21637 0.83095 0.02500
H 	H 	0.72142 0.40176 0.85061 0.03000
H 	H 	0.70765 0.40655 0.78762 0.04700
C 	C 	0.69956 0.30772 0.34797 -0.08800
C 	C 	0.68720 0.24970 0.33439 0.01800
C 	C 	0.68804 0.23536 0.29885 -0.07500
C 	C 	0.70265 0.27950 0.27688 0.04700
C 	C 	0.71640 0.33811 0.29073 -0.07500
C 	C 	0.71491 0.35213 0.32609 0.02100
C 	C 	0.69695 0.26184 0.23866 -0.05200
C 	C 	0.74427 0.30069 0.22184 -0.05300
C 	C 	0.73099 0.29621 0.18333 0.04800
C 	C 	0.74733 0.35025 0.17000 -0.07700
C 	C 	0.72913 0.34554 0.13411 0.01900
C 	C 	0.69514 0.28686 0.11109 -0.09000
C 	C 	0.68218 0.23342 0.12403 0.02300
C 	C 	0.70019 0.23811 0.16004 -0.07600
H 	H 	0.67541 0.21514 0.35111 0.02900
H 	H 	0.67674 0.18977 0.28832 0.04800
H 	H 	0.72664 0.37212 0.27388 0.04900
H 	H 	0.72512 0.39731 0.33640 0.03400
H 	H 	0.65184 0.21930 0.22380 0.04300
H 	H 	0.78986 0.34212 0.23708 0.04400
H 	H 	0.77221 0.39553 0.18766 0.04700
H 	H 	0.74029 0.38727 0.12430 0.01800
H 	H 	0.65645 0.18795 0.10646 0.03500
H 	H 	0.68920 0.19647 0.16989 0.04900
C 	C 	0.84647 0.72119 0.48279 0.00300
C 	C 	0.81558 0.73730 0.45934 0.00800
C 	C 	0.82311 0.65453 0.48069 0.01600
S 	S 	0.74245 0.67799 0.43063 -0.04100
H 	H 	0.92419 0.75675 0.52630 0.04800
C 	C 	0.83668 0.62567 0.45431 -0.00800
C 	C 	0.81112 0.56161 0.45154 -0.00500
C 	C 	0.77328 0.52615 0.47540 -0.09400
C 	C 	0.76399 0.55646 0.50348 0.05600
C 	C 	0.78795 0.62007 0.50557 -0.07500
S 	S 	0.88603 0.66940 0.42481 -0.04000
H 	H 	0.81956 0.53898 0.43035 0.04400
S 	S 	0.72623 0.51671 0.53734 -0.05700
H 	H 	0.77953 0.64287 0.52667 0.05300
H 	H 	0.94907 0.69813 0.43939 0.03700
H 	H 	0.77103 0.52310 0.56273 0.03100
H 	H 	0.75495 0.66154 0.39968 0.03700
C 	C 	0.86714 0.08729 0.43621 -0.05900
C 	C 	0.84768 0.09933 0.46644 0.00200
C 	C 	0.85143 0.07458 0.49642 0.00800
C 	C 	0.87736 0.04073 0.49642 -0.03600
C 	C 	0.89950 0.03110 0.46672 -0.03000
C 	C 	0.89276 0.05316 0.43612 0.02900
C 	C 	0.82555 0.13976 0.46691 0.01800
S 	S 	0.82471 0.08649 0.53425 -0.05000
S 	S 	0.91445 0.03678 0.39727 -0.04300
H 	H 	0.86306 0.10517 0.41289 0.05100
C 	C 	0.86915 0.20572 0.47951 -0.01000
C 	C 	0.84661 0.24257 0.48177 -0.00300
C 	C 	0.78088 0.21432 0.47151 -0.10100
C 	C 	0.73779 0.14884 0.45722 0.06000
C 	C 	0.76028 0.11192 0.45523 -0.07800
S 	S 	0.95183 0.24250 0.49299 -0.03800
H 	H 	0.88000 0.29298 0.49238 0.03200
S 	S 	0.65622 0.11305 0.44055 -0.06000
H 	H 	0.72694 0.06144 0.44481 0.05300
H 	H 	0.96397 0.24119 0.52792 0.03200
H 	H 	0.62159 0.09156 0.46695 0.03600
H 	H 	0.87418 0.14239 0.55579 0.03200
C 	C 	0.32414 0.11958 0.45706 -0.07600
C 	C 	0.29679 0.15206 0.45974 0.01700
C 	C 	0.33559 0.21823 0.46158 -0.00800
C 	C 	0.40141 0.25131 0.46139 -0.00100
C 	C 	0.42915 0.21909 0.45959 -0.09300
C 	C 	0.38995 0.15262 0.45679 0.05800
C 	C 	0.22784 0.11660 0.46162 0.00300
S 	S 	0.30233 0.26010 0.46416 -0.03700
H 	H 	0.43131 0.30234 0.46331 0.04000
S 	S 	0.42214 0.11001 0.45166 -0.06200
H 	H 	0.29413 0.06857 0.45518 0.05300
C 	C 	0.18064 0.08988 0.43073 0.00700
C 	C 	0.11556 0.05596 0.43316 -0.03400
C 	C 	0.09705 0.04822 0.46614 -0.02900
C 	C 	0.14430 0.07555 0.49704 0.02900
C 	C 	0.20933 0.10937 0.49461 -0.05900
S 	S 	0.20246 0.09847 0.38895 -0.04500
H 	H 	0.07926 0.03516 0.40939 0.04600
H 	H 	0.24562 0.13027 0.51839 0.05000
H 	H 	0.41918 0.09387 0.41651 0.03200
H 	H 	0.20594 0.05038 0.37668 0.03500
H 	H 	0.27982 0.26018 0.43078 0.03700
C 	C 	0.81625 0.66138 0.00071 0.02700
S 	S 	0.86894 0.70116 0.93297 -0.04300
C 	C 	0.84880 0.63690 0.01300 -0.01200
C 	C 	0.81494 0.57152 0.01122 0.00300
C 	C 	0.74879 0.53031 0.99746 -0.09900
C 	C 	0.71601 0.55490 0.98572 0.06400
C 	C 	0.74984 0.62028 0.98762 -0.08300
S 	S 	0.93195 0.68758 0.03035 -0.03900
H 	H 	0.84011 0.55266 0.02040 0.02900
S 	S 	0.63322 0.50420 0.96745 -0.05000
H 	H 	0.72483 0.63912 0.97813 0.05600
H 	H 	0.94150 0.70841 0.06571 0.03500
H 	H 	0.62510 0.48561 0.93194 0.04100
H 	H 	0.91738 0.69455 0.93805 0.03700
C 	C 	0.82014 0.15157 0.01818 -0.07500
C 	C 	0.84456 0.14425 0.98897 0.01500
C 	C 	0.83842 0.16677 0.95854 -0.01000
C 	C 	0.80485 0.19297 0.95685 -0.00300
C 	C 	0.77873 0.19878 0.98568 -0.10700
C 	C 	0.78902 0.18042 0.01712 0.06200
C 	C 	0.87469 0.11113 0.99001 -0.00100
S 	S 	0.87352 0.16340 0.92261 -0.04800
H 	H 	0.79831 0.20812 0.93287 0.01900
S 	S 	0.76796 0.19770 0.05601 -0.04200
H 	H 	0.82625 0.13566 0.04194 0.05200
C 	C 	0.93789 0.14201 0.00857 0.00900
C 	C 	0.96610 0.11035 0.00824 -0.03200
C 	C 	0.93260 0.04864 0.98873 -0.03200
C 	C 	0.86995 0.01846 0.96930 0.02500
C 	C 	0.84081 0.04916 0.97094 -0.05800
S 	S 	0.98265 0.22071 0.03164 -0.04200
H 	H 	0.01425 0.13380 0.02312 0.04800
H 	H 	0.79248 0.02568 0.95631 0.04700
H 	H 	0.70655 0.14793 0.05777 0.04700
H 	H 	0.97060 0.22056 0.06525 0.03500
H 	H 	0.93581 0.21683 0.92786 0.03600
C 	C 	0.34947 0.12272 0.00724 -0.07200
C 	C 	0.31871 0.13068 0.97895 0.01200
C 	C 	0.35373 0.16506 0.95380 -0.00600
C 	C 	0.41904 0.19114 0.95725 -0.00500
C 	C 	0.45054 0.18524 0.98627 -0.09800
C 	C 	0.41528 0.15072 0.01148 0.05600
C 	C 	0.25074 0.10582 0.97713 0.00600
S 	S 	0.31685 0.17733 0.91848 -0.04000
H 	H 	0.44587 0.21760 0.93785 0.03500
S 	S 	0.45355 0.14609 0.04975 -0.03800
H 	H 	0.32250 0.09638 0.02663 0.05200
C 	C 	0.20081 0.04660 0.95608 0.00700
C 	C 	0.13673 0.02070 0.95778 -0.03800
C 	C 	0.12180 0.05221 0.98120 -0.03400
C 	C 	0.17188 0.11217 0.00179 0.03700
C 	C 	0.23583 0.13895 0.99916 -0.06900
S 	S 	0.21797 0.00333 0.92857 -0.05100
S 	S 	0.15575 0.15222 0.03267 -0.04200
H 	H 	0.27430 0.18456 0.01533 0.05400
H 	H 	0.47707 0.19782 0.07536 0.03800
H 	H 	0.15426 0.13214 0.06408 0.03700
H 	H 	0.29163 0.12896 0.89028 0.03600
C 	C 	0.90168 0.76913 0.50740 -0.06000
C 	C 	0.84333 0.80117 0.45868 -0.03500
C 	C 	0.90092 0.84930 0.48181 -0.03000
C 	C 	0.92844 0.83297 0.50745 0.02800
H 	H 	0.82106 0.81340 0.43952 0.04800
S 	S 	0.99431 0.89165 0.54072 -0.03700
C 	C 	0.85982 0.77119 0.02819 -0.05500
C 	C 	0.85193 0.72938 0.99940 -0.00600
C 	C 	0.87857 0.75265 0.96965 0.01000
C 	C 	0.91353 0.81743 0.96920 -0.03400
C 	C 	0.92205 0.85944 0.99810 -0.03300
C 	C 	0.89496 0.83613 0.02778 0.03100
H 	H 	0.93416 0.83527 0.94631 0.04600
S 	S 	0.90639 0.88784 0.06495 -0.04000
H 	H 	0.83929 0.75326 0.05108 0.04800
C 	C 	0.02839 0.01033 0.46802 0.12200
H 	H 	0.97222 0.90382 0.56864 0.03600
H 	H 	0.11983 0.11752 0.55049 0.03800
H 	H 	0.88179 0.02323 0.51983 0.04500
S 	S 	0.12271 0.06875 0.53891 -0.04300
C 	C 	0.93480 0.91566 0.47694 0.12400
C 	C 	0.96016 0.92743 0.99711 0.12600
N 	N 	0.90286 0.94186 0.47461 -0.13900
N 	N 	0.99725 0.94968 0.47304 -0.13600
H 	H 	0.85846 0.89528 0.06080 0.04100
N 	N 	0.02208 0.95886 0.99270 -0.14000
N 	N 	0.93128 0.95662 0.99599 -0.13800
S 	S 	0.82948 0.94468 0.94075 -0.03500
H 	H 	0.86298 0.97968 0.37767 0.03900
H 	H 	0.09843 0.97490 0.94171 0.05000
C 	C 	0.93364 0.00218 0.46877 0.12000
H 	H 	0.84609 0.95440 0.90829 0.03700
H 	H 	0.22657 0.96680 0.94747 0.03900
