data_crystal

_cell_length_a 26.21837
_cell_length_b 27.55259
_cell_length_c 38.69584
_cell_angle_alpha 60.93323
_cell_angle_beta  118.77533
_cell_angle_gamma 133.24244

_symmetry_space_group_name_	'P 1'
_symmetry_space_group_name_H-M	'P 1'

loop_
_symmetry_equiv_pos_as_xyz
  x,y,z

loop_
_atom_site_label
_atom_site_type_symbol
_atom_site_fract_x
_atom_site_fract_y
_atom_site_fract_z
_atom_site_charge
C 	C 	0.74958 0.33147 0.03136 -0.01200
C 	C 	0.67693 0.29657 0.02967 -0.02900
C 	C 	0.65709 0.32593 0.03734 -0.01300
C 	C 	0.70883 0.39148 0.04458 -0.01900
C 	C 	0.78088 0.42713 0.04583 -0.01200
C 	C 	0.80153 0.39745 0.03908 -0.02000
H 	H 	0.63619 0.24657 0.02292 0.04000
H 	H 	0.69322 0.41455 0.04988 0.06000
H 	H 	0.85761 0.42484 0.04057 0.06200
C 	C 	0.75598 0.29840 0.54562 -0.01100
C 	C 	0.68473 0.25694 0.54926 -0.02300
C 	C 	0.66225 0.28212 0.55873 -0.01400
C 	C 	0.71122 0.34795 0.56552 -0.01800
C 	C 	0.78209 0.38959 0.56217 -0.01300
C 	C 	0.80462 0.36529 0.55193 -0.02600
H 	H 	0.64664 0.20583 0.54408 0.05700
H 	H 	0.69409 0.36698 0.57338 0.05900
H 	H 	0.85910 0.39854 0.54833 0.04800
C 	C 	0.28491 0.66295 0.20887 -0.01200
C 	C 	0.23858 0.59633 0.20267 -0.02700
C 	C 	0.26219 0.57594 0.19004 -0.01400
C 	C 	0.33277 0.62049 0.18537 -0.01700
C 	C 	0.37959 0.68590 0.19248 -0.01400
C 	C 	0.35532 0.70755 0.20343 -0.02200
H 	H 	0.18490 0.56037 0.20788 0.04400
H 	H 	0.35122 0.60420 0.17623 0.06000
H 	H 	0.39180 0.75853 0.20858 0.06100
C 	C 	0.27566 0.61927 0.72177 -0.01100
C 	C 	0.34507 0.66105 0.71554 -0.01700
C 	C 	0.36985 0.63267 0.71155 -0.01300
C 	C 	0.32459 0.56255 0.71286 -0.02200
C 	C 	0.25515 0.52059 0.71871 -0.01200
C 	C 	0.23128 0.54849 0.72417 -0.02900
H 	H 	0.37961 0.71563 0.71352 0.06900
H 	H 	0.34237 0.54118 0.70784 0.05400
H 	H 	0.17861 0.51517 0.73029 0.04500
Co	Co	0.06183 0.02551 0.07165 1.18100
Co	Co	0.94963 0.95960 0.15729 1.20100
Co	Co	0.01753 0.08863 0.09671 1.18300
Co	Co	0.00303 0.90046 0.13615 1.18800
C 	C 	0.19359 0.06053 0.06450 0.27800
Co	Co	0.07432 0.90878 0.08247 1.17000
Co	Co	0.93570 0.07522 0.14536 1.17800
C 	C 	0.93239 0.78682 0.10187 0.27600
O 	O 	0.94833 0.14865 0.09063 -0.38400
O 	O 	0.97512 0.04004 0.13471 -0.76900
C 	C 	0.92182 0.13158 0.05665 0.27300
O 	O 	0.06362 0.10759 0.05787 -0.45900
O 	O 	0.94881 0.87794 0.17151 -0.43500
C 	C 	0.80500 0.93716 0.12977 0.28600
O 	O 	0.03264 0.00437 0.12614 -0.59400
C 	C 	0.09185 0.19051 0.14718 0.26100
C 	C 	0.99843 0.95846 0.00380 0.33000
C 	C 	0.12033 0.87652 0.17251 0.26200
O 	O 	0.93308 0.09358 0.05430 -0.37200
O 	O 	0.99801 0.90420 0.02824 -0.37000
O 	O 	0.99691 0.99353 0.01728 -0.35100
O 	O 	0.83286 0.00318 0.11864 -0.37300
O 	O 	0.84016 0.91613 0.13251 -0.37400
O 	O 	0.04365 0.14260 0.16963 -0.35000
O 	O 	0.09147 0.17904 0.11712 -0.36600
O 	O 	0.14475 0.91579 0.13899 -0.37000
O 	O 	0.07277 0.87348 0.17929 -0.35000
O 	O 	0.04920 0.95043 0.09970 -0.75800
C 	C 	0.96028 0.98819 0.22745 0.36100
O 	O 	0.91578 0.00403 0.20106 -0.40500
O 	O 	0.98600 0.97231 0.21569 -0.35700
O 	O 	0.15031 0.00376 0.05246 -0.38700
O 	O 	0.16971 0.07675 0.07735 -0.37700
O 	O 	0.99839 0.80877 0.10881 -0.37300
O 	O 	0.92040 0.82321 0.10556 -0.36700
Co	Co	0.06589 0.00022 0.58489 1.17800
Co	Co	0.93111 0.91893 0.66257 1.19500
Co	Co	0.99541 0.04842 0.60077 1.18600
Co	Co	0.00088 0.87099 0.64630 1.18400
C 	C 	0.20782 0.03733 0.59138 0.25200
Co	Co	0.08743 0.88789 0.59836 1.17300
Co	Co	0.89041 0.01902 0.64224 1.16800
C 	C 	0.93993 0.76326 0.60974 0.29400
O 	O 	0.83320 0.01428 0.58304 -0.38800
O 	O 	0.94711 0.99595 0.63665 -0.74200
C 	C 	0.86792 0.05607 0.55389 0.26800
O 	O 	0.05848 0.07735 0.56873 -0.46000
O 	O 	0.93984 0.84259 0.67944 -0.44000
C 	C 	0.78179 0.86990 0.64342 0.27400
O 	O 	0.02229 0.97172 0.63523 -0.57100
C 	C 	0.03324 0.15655 0.62855 0.25800
C 	C 	0.02090 0.94255 0.51683 0.33600
C 	C 	0.11785 0.84618 0.68810 0.26300
O 	O 	0.91339 0.05147 0.55168 -0.36600
O 	O 	0.02005 0.88807 0.54085 -0.37400
O 	O 	0.01119 0.97239 0.52933 -0.36600
O 	O 	0.81070 0.91578 0.66187 -0.36200
O 	O 	0.82315 0.86791 0.63495 -0.37400
O 	O 	0.96343 0.12434 0.62072 -0.35600
O 	O 	0.05911 0.13286 0.62406 -0.37500
O 	O 	0.14877 0.88971 0.65716 -0.36800
O 	O 	0.06783 0.84238 0.69255 -0.35300
O 	O 	0.05380 0.92506 0.61293 -0.75500
C 	C 	0.94726 0.96652 0.72793 0.35600
O 	O 	0.95499 0.02242 0.70041 -0.39300
O 	O 	0.94296 0.92167 0.71982 -0.35100
O 	O 	0.16950 0.98589 0.57518 -0.34900
O 	O 	0.17659 0.05636 0.59517 -0.36700
O 	O 	0.00697 0.78562 0.61916 -0.39400
O 	O 	0.92481 0.79773 0.61275 -0.37100
C 	C 	0.97939 0.96715 0.95954 -0.08100
C 	C 	0.03126 0.02373 0.93653 0.09200
C 	C 	0.02300 0.02129 0.89846 0.03900
C 	C 	0.96438 0.96111 0.88428 0.05000
C 	C 	0.91061 0.90633 0.90640 0.06200
C 	C 	0.91562 0.91216 0.94222 0.12200
C 	C 	0.95666 0.95735 0.84478 0.01200
C 	C 	0.90911 0.96839 0.80970 0.07000
C 	C 	0.89933 0.96194 0.77274 0.12900
C 	C 	0.94480 0.95466 0.76906 -0.11700
C 	C 	0.99385 0.94515 0.80410 0.13500
C 	C 	0.99683 0.94285 0.84225 0.07900
Br	Br	0.83213 0.82235 0.88870 -0.15900
Br	Br	0.11307 0.10441 0.95700 -0.19500
Br	Br	0.82128 0.95969 0.72785 -0.20900
Br	Br	0.05556 0.91969 0.89101 -0.16900
Br	Br	0.83307 0.84934 0.96529 -0.18100
Br	Br	0.09148 0.10011 0.86571 -0.17400
Br	Br	0.85940 0.99503 0.81193 -0.14100
Br	Br	0.06050 0.94040 0.79969 -0.18800
C 	C 	0.97709 0.98362 0.27119 -0.09900
C 	C 	0.98855 0.03343 0.28186 0.12000
C 	C 	0.98735 0.02153 0.32119 0.05000
C 	C 	0.98708 0.96623 0.35203 0.03200
C 	C 	0.98194 0.91941 0.34258 0.06900
C 	C 	0.97213 0.92542 0.30181 0.12500
C 	C 	0.99515 0.95922 0.39467 0.05100
C 	C 	0.06310 0.00318 0.41742 0.03400
C 	C 	0.06910 0.00464 0.45509 0.10900
C 	C 	0.00940 0.95570 0.47280 -0.11200
C 	C 	0.94136 0.91120 0.45029 0.14200
C 	C 	0.93389 0.91434 0.41078 0.05900
Br	Br	0.98881 0.84749 0.38543 -0.14900
Br	Br	0.01010 0.11983 0.24370 -0.22500
Br	Br	0.15769 0.07619 0.48119 -0.21000
Br	Br	0.83985 0.85821 0.37848 -0.15000
Br	Br	0.94486 0.85077 0.28787 -0.17500
Br	Br	0.98465 0.08045 0.33270 -0.15600
Br	Br	0.14802 0.06046 0.39724 -0.17100
Br	Br	0.85866 0.84600 0.47368 -0.16200
C 	C 	0.18000 0.36053 0.71061 0.11900
C 	C 	0.19395 0.32412 0.70513 -0.08300
C 	C 	0.15809 0.30310 0.66878 0.01400
C 	C 	0.10681 0.31344 0.64023 0.12000
C 	C 	0.09219 0.34902 0.64595 -0.09200
C 	C 	0.12796 0.37003 0.68229 0.02900
O 	O 	0.23116 0.40827 0.73413 -0.20700
C 	C 	0.20603 0.44844 0.71654 0.12600
C 	C 	0.14419 0.42555 0.68592 -0.10400
O 	O 	0.05666 0.26711 0.61588 -0.18900
C 	C 	0.08147 0.22676 0.63324 0.05300
C 	C 	0.14209 0.24795 0.66471 -0.05600
H 	H 	0.23374 0.31525 0.72757 0.07700
H 	H 	0.05237 0.35785 0.62349 0.06600
H 	H 	0.12848 0.45814 0.66153 0.06500
H 	H 	0.15677 0.21453 0.68898 0.06300
C 	C 	0.61507 0.73423 0.66620 0.12700
C 	C 	0.58329 0.69416 0.69957 -0.08900
C 	C 	0.54082 0.70542 0.70228 0.03700
C 	C 	0.52427 0.74930 0.67145 0.11900
C 	C 	0.55392 0.78772 0.63744 -0.07900
C 	C 	0.59857 0.77839 0.63519 0.01500
O 	O 	0.68126 0.75270 0.66943 -0.17800
C 	C 	0.70487 0.81399 0.63911 0.05300
C 	C 	0.65510 0.82860 0.61796 -0.05100
O 	O 	0.46163 0.73505 0.67064 -0.20600
C 	C 	0.44170 0.67746 0.70358 0.12900
C 	C 	0.48854 0.65941 0.72264 -0.10100
H 	H 	0.59523 0.65886 0.72386 0.08100
H 	H 	0.54223 0.82332 0.61337 0.07600
H 	H 	0.66907 0.87998 0.60211 0.06400
H 	H 	0.47484 0.60883 0.74106 0.07200
C 	C 	0.24867 0.72699 0.72472 0.11800
C 	C 	0.26513 0.77620 0.73813 -0.08400
C 	C 	0.20789 0.76865 0.74029 0.01600
C 	C 	0.13705 0.71473 0.72912 0.12000
C 	C 	0.12124 0.66452 0.71682 -0.09200
C 	C 	0.17836 0.67452 0.71271 0.02700
O 	O 	0.29812 0.71566 0.73320 -0.20700
C 	C 	0.25008 0.65037 0.72551 0.12600
C 	C 	0.17846 0.62565 0.71319 -0.10200
O 	O 	0.08839 0.72949 0.71565 -0.19100
C 	C 	0.13655 0.79846 0.71707 0.05000
C 	C 	0.20767 0.82157 0.73266 -0.05400
H 	H 	0.32043 0.81902 0.74641 0.07800
H 	H 	0.06601 0.62224 0.70777 0.06900
H 	H 	0.13219 0.57296 0.71265 0.06400
H 	H 	0.25304 0.87507 0.72615 0.06900
C 	C 	0.19100 0.33165 0.18553 0.12500
C 	C 	0.19033 0.35438 0.21074 -0.08900
C 	C 	0.17951 0.40573 0.19266 0.03300
C 	C 	0.17561 0.43748 0.15186 0.11300
C 	C 	0.17713 0.41542 0.12667 -0.08300
C 	C 	0.18689 0.36329 0.14460 0.01100
O 	O 	0.16869 0.26500 0.19519 -0.17000
C 	C 	0.14790 0.25836 0.15610 0.05000
C 	C 	0.15966 0.31712 0.12586 -0.05400
O 	O 	0.19536 0.50321 0.14203 -0.21000
C 	C 	0.21281 0.50834 0.18101 0.12500
C 	C 	0.20342 0.45039 0.21135 -0.10400
H 	H 	0.19425 0.33031 0.24299 0.08700
H 	H 	0.17284 0.43933 0.09440 0.07100
H 	H 	0.12980 0.31731 0.09441 0.05800
H 	H 	0.23233 0.45049 0.24292 0.07300
C 	C 	0.62534 0.85352 0.12533 0.12300
C 	C 	0.57953 0.85913 0.12963 -0.08900
C 	C 	0.54638 0.81387 0.16245 0.03400
C 	C 	0.55251 0.76090 0.18774 0.12000
C 	C 	0.59760 0.75462 0.18329 -0.08100
C 	C 	0.63240 0.80100 0.15103 0.01600
O 	O 	0.68345 0.91005 0.10782 -0.17100
C 	C 	0.72717 0.88769 0.12648 0.05100
C 	C 	0.69702 0.82262 0.15200 -0.05200
O 	O 	0.49566 0.70572 0.20657 -0.20600
C 	C 	0.45488 0.73089 0.18988 0.13000
C 	C 	0.48444 0.79507 0.16345 -0.10300
H 	H 	0.57327 0.89986 0.10947 0.07800
H 	H 	0.60400 0.71402 0.20361 0.07900
H 	H 	0.72778 0.80440 0.17723 0.06700
H 	H 	0.45395 0.81445 0.13944 0.07100
C 	C 	0.26336 0.74811 0.24109 0.11900
C 	C 	0.27726 0.80890 0.23814 -0.08400
C 	C 	0.21952 0.80633 0.23444 0.01400
C 	C 	0.14941 0.74877 0.22803 0.12200
C 	C 	0.13496 0.69015 0.22684 -0.09200
C 	C 	0.19353 0.68962 0.23644 0.02800
O 	O 	0.31056 0.74863 0.23366 -0.21100
C 	C 	0.26216 0.68570 0.22312 0.12600
C 	C 	0.19206 0.65032 0.22438 -0.10200
O 	O 	0.09868 0.76256 0.20853 -0.18500
C 	C 	0.14504 0.83391 0.20280 0.05100
C 	C 	0.21708 0.86052 0.21788 -0.05400
H 	H 	0.33017 0.85718 0.23629 0.07600
H 	H 	0.08039 0.64833 0.21646 0.07200
H 	H 	0.14461 0.61312 0.20688 0.06300
H 	H 	0.26057 0.91277 0.20694 0.06500
C 	C 	0.87625 0.20446 0.51703 0.12700
C 	C 	0.89705 0.25741 0.52927 -0.09200
C 	C 	0.84480 0.26678 0.51959 0.03200
C 	C 	0.77306 0.21926 0.50493 0.11500
C 	C 	0.75118 0.16199 0.49699 -0.08200
C 	C 	0.80491 0.15907 0.50018 0.00800
O 	O 	0.91658 0.17916 0.53367 -0.17700
C 	C 	0.86227 0.11321 0.52668 0.04000
C 	C 	0.79559 0.10110 0.50659 -0.04900
O 	O 	0.72649 0.22041 0.51183 -0.21100
C 	C 	0.77744 0.27306 0.53239 0.12500
C 	C 	0.84819 0.30050 0.53758 -0.10200
H 	H 	0.95077 0.28793 0.54714 0.08600
H 	H 	0.69468 0.11995 0.49041 0.06900
H 	H 	0.74469 0.05052 0.50858 0.05600
H 	H 	0.89320 0.32719 0.56082 0.06700
C 	C 	0.84131 0.62419 0.57042 0.12600
C 	C 	0.84198 0.60444 0.54338 -0.09000
C 	C 	0.85844 0.55738 0.55963 0.03400
C 	C 	0.86857 0.52720 0.60059 0.11400
C 	C 	0.86661 0.54595 0.62754 -0.08100
C 	C 	0.85057 0.59334 0.61140 0.01300
O 	O 	0.85853 0.68865 0.56155 -0.16800
C 	C 	0.88225 0.69522 0.60111 0.04700
C 	C 	0.87597 0.63776 0.63087 -0.04900
O 	O 	0.85472 0.46421 0.60980 -0.20900
C 	C 	0.83279 0.45813 0.57035 0.12500
C 	C 	0.83541 0.51390 0.54025 -0.10100
H 	H 	0.83352 0.62750 0.51102 0.08800
H 	H 	0.87547 0.52311 0.65991 0.07300
H 	H 	0.90851 0.63893 0.66178 0.06800
H 	H 	0.80251 0.51150 0.50948 0.07500
C 	C 	0.49963 0.22534 0.56601 0.11600
C 	C 	0.43635 0.22004 0.55365 -0.08000
C 	C 	0.37640 0.15696 0.56814 0.01800
C 	C 	0.37934 0.10306 0.59499 0.12600
C 	C 	0.44261 0.10830 0.60781 -0.09300
C 	C 	0.50290 0.17132 0.59335 0.03100
O 	O 	0.55185 0.27230 0.54358 -0.20700
C 	C 	0.58667 0.24105 0.55993 0.12700
C 	C 	0.55594 0.17953 0.58852 -0.10400
O 	O 	0.32369 0.05312 0.61499 -0.19600
C 	C 	0.28616 0.08223 0.59687 0.05500
C 	C 	0.31978 0.14620 0.57036 -0.05200
H 	H 	0.43329 0.26232 0.53246 0.07900
H 	H 	0.44491 0.06537 0.62834 0.07200
H 	H 	0.58100 0.15358 0.60994 0.06800
H 	H 	0.29416 0.17104 0.54737 0.07600
C 	C 	0.79667 0.16342 0.01336 0.12200
C 	C 	0.75444 0.15846 0.02915 -0.09200
C 	C 	0.77758 0.21870 0.03384 0.02900
C 	C 	0.83377 0.28211 0.01885 0.11500
C 	C 	0.87418 0.28812 0.00116 -0.08100
C 	C 	0.85466 0.22736 0.99893 0.01200
O 	O 	0.80356 0.11098 0.02666 -0.18200
C 	C 	0.87396 0.14952 0.02346 0.04700
C 	C 	0.90280 0.21829 0.00462 -0.05000
O 	O 	0.83438 0.33635 0.01346 -0.20700
C 	C 	0.77166 0.29821 0.02637 0.12400
C 	C 	0.73762 0.22791 0.03857 -0.10200
H 	H 	0.70926 0.10878 0.04081 0.07200
H 	H 	0.92036 0.33797 0.99056 0.07500
H 	H 	0.96022 0.25874 0.00849 0.06000
H 	H 	0.68364 0.18829 0.04350 0.06300
C 	C 	0.84285 0.62191 0.09898 0.12200
C 	C 	0.85683 0.57309 0.11500 -0.08900
C 	C 	0.86746 0.56041 0.08881 0.02900
C 	C 	0.85867 0.59042 0.04779 0.12000
C 	C 	0.84416 0.63880 0.03167 -0.08400
C 	C 	0.83480 0.65254 0.05795 0.02100
O 	O 	0.86383 0.66052 0.12263 -0.17800
C 	C 	0.87296 0.71962 0.09243 0.05300
C 	C 	0.85338 0.71401 0.05365 -0.05200
O 	O 	0.83953 0.55259 0.02427 -0.20100
C 	C 	0.83426 0.49519 0.05487 0.12600
C 	C 	0.85259 0.50046 0.09357 -0.10100
H 	H 	0.86266 0.54830 0.14717 0.07700
H 	H 	0.83854 0.66369 0.99951 0.08800
H 	H 	0.87559 0.75783 0.02872 0.08000
H 	H 	0.83335 0.45661 0.11912 0.06900
C 	C 	0.49651 0.25802 0.05551 0.11500
C 	C 	0.45217 0.22738 0.08079 -0.08000
C 	C 	0.38061 0.17097 0.07167 0.00800
C 	C 	0.35267 0.14833 0.03779 0.12300
C 	C 	0.39650 0.17934 0.01218 -0.09200
C 	C 	0.46819 0.23589 0.02115 0.03400
O 	O 	0.57052 0.29215 0.06947 -0.21200
C 	C 	0.58346 0.28644 0.04099 0.12600
C 	C 	0.52313 0.25391 0.01185 -0.10400
O 	O 	0.27828 0.11011 0.02529 -0.17100
C 	C 	0.26435 0.11255 0.05490 0.04700
C 	C 	0.32534 0.15082 0.08178 -0.05100
H 	H 	0.47350 0.24502 0.10745 0.07200
H 	H 	0.37512 0.16111 0.98576 0.08000
H 	H 	0.51844 0.23246 0.99240 0.06700
H 	H 	0.32695 0.14920 0.11081 0.05800
