data_crystal

_cell_length_a 35.04852
_cell_length_b 35.83710
_cell_length_c 26.49945
_cell_angle_alpha 95.61950
_cell_angle_beta  95.62179
_cell_angle_gamma 125.40767

_symmetry_space_group_name_	'P 1'
_symmetry_space_group_name_H-M	'P 1'

loop_
_symmetry_equiv_pos_as_xyz
  x,y,z

loop_
_atom_site_label
_atom_site_type_symbol
_atom_site_fract_x
_atom_site_fract_y
_atom_site_fract_z
_atom_site_charge
C 	C 	0.97773 0.02196 0.98689 0.12000
C 	C 	0.04320 0.02262 0.97169 0.12000
N 	N 	0.02338 0.04545 0.97921 -0.14000
N 	N 	0.99854 0.02122 0.42409 -0.14100
Cu	Cu	0.65412 0.26663 0.99688 0.93100
Cu	Cu	0.69834 0.27349 0.89240 0.87200
Cu	Cu	0.68069 0.34037 0.93128 0.89900
Cu	Cu	0.65929 0.35586 0.03364 0.90100
C 	C 	0.66773 0.30072 0.10421 0.33300
O 	O 	0.58551 0.24344 0.99412 -0.35100
C 	C 	0.67371 0.31461 0.82005 0.32700
O 	O 	0.69521 0.33954 0.00284 -0.63600
O 	O 	0.65007 0.27238 0.92373 -0.64300
O 	O 	0.68019 0.23003 0.99340 -0.36400
O 	O 	0.73820 0.28055 0.95226 -0.43300
O 	O 	0.64657 0.31984 0.09047 -0.37000
C 	C 	0.56931 0.26495 0.97369 0.28500
O 	O 	0.59922 0.30912 0.97067 -0.39400
O 	O 	0.66883 0.27224 0.06996 -0.34100
C 	C 	0.72172 0.24771 0.97998 0.29500
O 	O 	0.66915 0.33870 0.85696 -0.36100
O 	O 	0.67373 0.27878 0.82782 -0.40200
H 	H 	0.72965 0.35894 0.01808 0.18300
H 	H 	0.61775 0.25241 0.90192 0.18600
Cu	Cu	0.72802 0.33615 0.42992 0.93200
Cu	Cu	0.72126 0.29534 0.53654 0.87200
Cu	Cu	0.65495 0.31532 0.49773 0.90000
Cu	Cu	0.64160 0.33938 0.39648 0.90000
C 	C 	0.69186 0.32345 0.32287 0.33200
O 	O 	0.75788 0.40476 0.43167 -0.34900
C 	C 	0.68270 0.32360 0.60899 0.32600
O 	O 	0.65414 0.30090 0.42587 -0.64000
O 	O 	0.72391 0.34259 0.50366 -0.64100
O 	O 	0.76047 0.30533 0.43214 -0.36100
O 	O 	0.70871 0.25288 0.47713 -0.43300
O 	O 	0.67485 0.34660 0.33715 -0.37200
O 	O 	0.58682 0.28400 0.48916 -0.36800
C 	C 	0.56014 0.28521 0.45139 0.29400
O 	O 	0.69447 0.39801 0.45742 -0.38800
O 	O 	0.57917 0.31365 0.41831 -0.38400
O 	O 	0.71971 0.32023 0.35658 -0.34400
C 	C 	0.74063 0.26528 0.44765 0.29200
O 	O 	0.65810 0.32822 0.57223 -0.35900
O 	O 	0.71873 0.32271 0.60073 -0.40200
H 	H 	0.63225 0.26732 0.41012 0.17900
H 	H 	0.74555 0.37454 0.52457 0.18600
C 	C 	0.71112 0.36523 0.70070 0.10500
C 	C 	0.67481 0.32709 0.66225 -0.11000
C 	C 	0.63341 0.28965 0.67605 0.09800
C 	C 	0.63097 0.28781 0.72852 0.10500
C 	C 	0.67041 0.32270 0.76694 -0.11000
C 	C 	0.70924 0.36279 0.75317 0.09800
Br	Br	0.57360 0.23799 0.74796 -0.20700
Br	Br	0.58104 0.24001 0.62315 -0.21900
C 	C 	0.64360 0.26589 0.18254 0.10600
C 	C 	0.67853 0.30129 0.15939 -0.10800
C 	C 	0.72143 0.34020 0.19021 0.09800
C 	C 	0.72737 0.34613 0.24437 0.10700
C 	C 	0.69063 0.31265 0.26755 -0.10800
C 	C 	0.64988 0.27146 0.23670 0.09900
Br	Br	0.60226 0.22330 0.26886 -0.22400
Br	Br	0.58639 0.21079 0.14006 -0.18600
Br	Br	0.78479 0.40103 0.28685 -0.19300
Br	Br	0.77149 0.38578 0.15802 -0.22400
C 	C 	0.92481 0.01529 0.41923 -0.02300
C 	C 	0.93655 0.04724 0.38603 -0.01400
C 	C 	0.91447 0.06950 0.38348 -0.05300
C 	C 	0.88045 0.06000 0.41396 0.03300
C 	C 	0.86761 0.02716 0.44599 -0.05300
C 	C 	0.86045 0.08562 0.41430 -0.02200
C 	C 	0.84370 0.10703 0.41461 -0.00100
C 	C 	0.82457 0.13256 0.41572 0.00400
C 	C 	0.80856 0.15465 0.41735 -0.02800
C 	C 	0.78971 0.18127 0.42024 0.04800
C 	C 	0.81763 0.22778 0.41379 -0.06900
C 	C 	0.80099 0.25486 0.42093 0.02100
C 	C 	0.75624 0.23558 0.43478 -0.09000
C 	C 	0.72768 0.18840 0.43940 0.01900
C 	C 	0.74444 0.16147 0.43229 -0.07000
H 	H 	0.96309 0.05514 0.36258 0.04200
H 	H 	0.92435 0.09463 0.35838 0.04900
H 	H 	0.84122 0.01955 0.46957 0.04800
H 	H 	0.85259 0.24326 0.40423 0.05500
H 	H 	0.82341 0.29108 0.41703 0.04300
H 	H 	0.69278 0.17276 0.44918 0.03600
H 	H 	0.72253 0.12543 0.43701 0.05400
C 	C 	0.50842 0.25909 0.45058 -0.08000
C 	C 	0.48418 0.21845 0.47172 0.02300
C 	C 	0.43505 0.19326 0.47000 -0.06500
C 	C 	0.40979 0.20844 0.44718 0.04900
C 	C 	0.43385 0.24909 0.42641 -0.06800
C 	C 	0.48294 0.27437 0.42809 0.02100
C 	C 	0.35906 0.18201 0.44447 -0.02500
C 	C 	0.31660 0.16006 0.44206 0.00600
C 	C 	0.26684 0.13430 0.43901 0.00100
C 	C 	0.22432 0.11208 0.43633 -0.02100
C 	C 	0.17350 0.08515 0.43314 0.03400
C 	C 	0.14435 0.03746 0.41162 -0.05300
C 	C 	0.09519 0.01086 0.41006 -0.01400
C 	C 	0.07480 0.03181 0.43014 -0.02300
C 	C 	0.10407 0.07983 0.45094 -0.01400
C 	C 	0.15325 0.10636 0.45245 -0.05300
H 	H 	0.50323 0.20607 0.48894 0.04800
H 	H 	0.41663 0.16183 0.48615 0.05900
H 	H 	0.41453 0.26108 0.40885 0.05400
H 	H 	0.50113 0.30589 0.41214 0.04000
H 	H 	0.15977 0.02090 0.39639 0.05000
H 	H 	0.08889 0.09641 0.46679 0.04300
H 	H 	0.17562 0.14326 0.46907 0.04900
C 	C 	0.95585 0.04656 0.99379 -0.03100
C 	C 	0.92180 0.03279 0.02563 -0.00600
C 	C 	0.89977 0.05497 0.03055 -0.05800
C 	C 	0.91163 0.09107 0.00381 0.04200
C 	C 	0.94614 0.10543 0.97275 -0.06200
C 	C 	0.96819 0.08330 0.96772 -0.01000
C 	C 	0.88712 0.11218 0.00661 -0.02400
C 	C 	0.86692 0.13020 0.00856 0.00200
C 	C 	0.84314 0.15121 0.00970 0.00400
C 	C 	0.82275 0.16908 0.00961 -0.02700
C 	C 	0.79832 0.19035 0.00813 0.04900
C 	C 	0.74928 0.16348 0.00807 -0.07300
C 	C 	0.72447 0.18271 0.00085 0.03300
C 	C 	0.74858 0.22898 0.99340 -0.09700
C 	C 	0.79811 0.25634 0.99556 0.01800
C 	C 	0.82282 0.23703 0.00281 -0.06700
H 	H 	0.87321 0.04381 0.05478 0.05100
H 	H 	0.95546 0.13333 0.95197 0.04900
H 	H 	0.99419 0.09416 0.94284 0.04000
H 	H 	0.73016 0.12738 0.01236 0.05700
H 	H 	0.68632 0.16120 0.99945 0.03600
H 	H 	0.81734 0.29232 0.99083 0.03600
H 	H 	0.86081 0.25809 0.00316 0.05400
C 	C 	0.09276 0.04808 0.96342 -0.02200
C 	C 	0.12762 0.09402 0.99007 -0.01800
C 	C 	0.17516 0.11701 0.98465 -0.05700
C 	C 	0.18817 0.09431 0.95255 0.03500
C 	C 	0.15333 0.04895 0.92494 -0.05300
C 	C 	0.10579 0.02590 0.93027 -0.01500
C 	C 	0.23756 0.11659 0.95000 -0.02300
C 	C 	0.27887 0.13514 0.94777 0.00100
C 	C 	0.32735 0.15658 0.94603 0.00500
C 	C 	0.36891 0.17487 0.94550 -0.02600
C 	C 	0.41877 0.19686 0.94621 0.04900
C 	C 	0.45028 0.24530 0.95055 -0.06800
C 	C 	0.49939 0.26743 0.95734 0.02000
C 	C 	0.51738 0.24119 0.96009 -0.08300
C 	C 	0.48546 0.19237 0.95335 0.02300
C 	C 	0.43636 0.17036 0.94659 -0.06700
H 	H 	0.11811 0.11152 0.01586 0.04700
H 	H 	0.20196 0.15213 0.00607 0.05300
H 	H 	0.16315 0.03130 0.89987 0.05000
H 	H 	0.43686 0.26596 0.94999 0.05400
H 	H 	0.52343 0.30505 0.96208 0.03500
H 	H 	0.49867 0.17155 0.95430 0.04200
H 	H 	0.41211 0.13282 0.94284 0.05700
O 	O 	0.71491 0.40732 0.94074 -0.37000
C 	C 	0.73899 0.42430 0.45135 0.28400
O 	O 	0.69411 0.41971 0.01746 -0.37800
Br	Br	0.76061 0.41340 0.80611 -0.22000
Br	Br	0.76283 0.42085 0.68132 -0.20600
C 	C 	0.71019 0.43331 0.97470 0.29000
H 	H 	0.91239 0.00494 0.04652 0.04100
C 	C 	0.76522 0.47542 0.45946 -0.08200
H 	H 	0.72819 0.47834 0.51872 0.04100
H 	H 	0.80828 0.48475 0.40181 0.05500
C 	C 	0.73085 0.48185 0.96936 -0.07800
H 	H 	0.68384 0.48684 0.01197 0.03900
C 	C 	0.88964 0.00482 0.44861 -0.01500
H 	H 	0.78258 0.48841 0.92510 0.05300
C 	C 	0.75349 0.49777 0.49434 0.01800
C 	C 	0.79886 0.50145 0.42890 0.01800
C 	C 	0.02330 0.00321 0.43100 0.12200
H 	H 	0.88028 0.98036 0.47445 0.04300
C 	C 	0.95119 0.99501 0.42534 0.12100
N 	N 	0.95195 0.97552 0.98715 -0.14100
C 	C 	0.97171 0.95261 0.97979 0.12200
N 	N 	0.01730 0.97624 0.97204 -0.14000
N 	N 	0.92857 0.95053 0.43344 -0.14000
C 	C 	0.95332 0.93247 0.44049 0.12000
N 	N 	0.00062 0.95889 0.43927 -0.13900
C 	C 	0.92914 0.88438 0.44957 -0.02300
C 	C 	0.88434 0.84802 0.41970 -0.01400
C 	C 	0.86410 0.80173 0.42420 -0.05300
C 	C 	0.88841 0.79158 0.45871 0.03400
C 	C 	0.93221 0.82792 0.48993 -0.05300
C 	C 	0.95251 0.87414 0.48544 -0.01400
C 	C 	0.86978 0.74384 0.46011 -0.02100
C 	C 	0.85466 0.70408 0.46174 0.00100
C 	C 	0.83755 0.65763 0.46337 0.00500
C 	C 	0.82307 0.61794 0.46435 -0.02500
C 	C 	0.80557 0.57037 0.46487 0.04600
C 	C 	0.81886 0.54871 0.43157 -0.06500
C 	C 	0.77353 0.54504 0.49691 -0.06600
H 	H 	0.86594 0.85543 0.39188 0.04200
H 	H 	0.83008 0.77379 0.40010 0.04900
H 	H 	0.95101 0.82034 0.51698 0.05000
H 	H 	0.98677 0.90192 0.50924 0.04200
H 	H 	0.84386 0.56819 0.40692 0.05800
H 	H 	0.76346 0.56170 0.52312 0.05600
H 	H 	0.07299 0.97400 0.39332 0.04400
C 	C 	0.76896 0.50579 0.94307 0.02200
C 	C 	0.79057 0.55277 0.94128 -0.06500
C 	C 	0.77425 0.57610 0.96558 0.04900
C 	C 	0.73541 0.55201 0.99050 -0.07200
C 	C 	0.71371 0.50506 0.99234 0.01600
C 	C 	0.79880 0.62529 0.96717 -0.02600
C 	C 	0.81928 0.66647 0.96857 0.00400
C 	C 	0.84376 0.71482 0.97087 0.00200
C 	C 	0.86521 0.75623 0.97321 -0.02500
C 	C 	0.89155 0.80578 0.97631 0.04000
C 	C 	0.94020 0.83530 0.99830 -0.06800
C 	C 	0.96623 0.88332 0.00016 0.00000
C 	C 	0.94373 0.90221 0.97993 -0.03200
C 	C 	0.89475 0.87257 0.95854 -0.00900
C 	C 	0.86879 0.82451 0.95672 -0.05800
H 	H 	0.82051 0.57119 0.92177 0.06000
H 	H 	0.72244 0.56981 0.00909 0.05800
H 	H 	0.95794 0.82103 0.01374 0.05600
H 	H 	0.00384 0.90583 0.01734 0.04200
H 	H 	0.87700 0.88662 0.94255 0.04100
H 	H 	0.83113 0.80185 0.93972 0.05000
H 	H 	0.07917 0.99074 0.90889 0.04400
