data_crystal

_cell_length_a 41.83870
_cell_length_b 40.32692
_cell_length_c 22.30739
_cell_angle_alpha 89.82264
_cell_angle_beta  89.99914
_cell_angle_gamma 90.00006

_symmetry_space_group_name_	'P 1'
_symmetry_space_group_name_H-M	'P 1'

loop_
_symmetry_equiv_pos_as_xyz
  x,y,z

loop_
_atom_site_label
_atom_site_type_symbol
_atom_site_fract_x
_atom_site_fract_y
_atom_site_fract_z
_atom_site_charge
C 	C 	0.48641 0.57887 0.00820 0.15600
N 	N 	0.46807 0.55215 0.01944 -0.16500
C 	C 	0.44124 0.55614 0.98690 0.10600
C 	C 	0.41225 0.53562 0.99557 -0.15600
C 	C 	0.41523 0.49923 0.00350 0.21900
C 	C 	0.38069 0.55162 0.00180 0.14900
C 	C 	0.36640 0.55400 0.05849 -0.06000
C 	C 	0.33468 0.56443 0.06371 0.01400
C 	C 	0.31705 0.57257 0.01224 0.05800
C 	C 	0.36353 0.56124 0.95061 -0.09000
N 	N 	0.44344 0.48324 0.99985 -0.15300
C 	C 	0.38994 0.47718 0.99991 -0.12400
C 	C 	0.43614 0.45078 0.99568 0.07800
C 	C 	0.45985 0.42541 0.97735 -0.05000
C 	C 	0.44999 0.39042 0.97115 0.02000
C 	C 	0.43629 0.34359 0.90824 0.01000
C 	C 	0.44390 0.37120 0.02238 0.00300
C 	C 	0.43387 0.33831 0.01656 0.04200
C 	C 	0.43079 0.32414 0.95948 -0.00000
N 	N 	0.50957 0.45485 0.00740 -0.13100
C 	C 	0.54085 0.45147 0.99482 0.05100
C 	C 	0.54529 0.42985 0.94753 -0.03000
C 	C 	0.51520 0.41872 0.93166 -0.04500
C 	C 	0.56622 0.47209 0.02223 -0.02600
C 	C 	0.59985 0.46098 0.01986 0.08400
C 	C 	0.65403 0.46817 0.98328 -0.01700
C 	C 	0.66365 0.43984 0.01514 0.05000
C 	C 	0.64105 0.42150 0.04777 0.01600
C 	C 	0.60930 0.43217 0.05048 -0.03300
N 	N 	0.53361 0.52335 0.02748 -0.11500
C 	C 	0.56476 0.55456 0.08728 -0.04400
C 	C 	0.53753 0.55352 0.05211 0.11300
C 	C 	0.51934 0.58297 0.03169 -0.07900
C 	C 	0.53488 0.61588 0.02940 0.10000
C 	C 	0.56133 0.62112 0.99187 -0.07600
C 	C 	0.57430 0.65288 0.98564 -0.01700
C 	C 	0.56094 0.67963 0.01693 0.05100
C 	C 	0.53474 0.67431 0.05501 0.01400
C 	C 	0.52195 0.64250 0.06166 -0.04500
C 	C 	0.47170 0.59971 0.96721 -0.09700
C 	C 	0.44252 0.58535 0.95408 -0.04000
C 	C 	0.33201 0.57233 0.95596 -0.01000
C 	C 	0.40335 0.44610 0.99487 -0.01300
C 	C 	0.49386 0.43474 0.96937 0.08700
C 	C 	0.57795 0.52327 0.08472 -0.03500
C 	C 	0.55804 0.50482 0.04810 0.09900
C 	C 	0.62226 0.47875 0.98575 -0.06700
H 	H 	0.47009 0.53703 0.05740 0.11900
H 	H 	0.50051 0.46343 0.04817 0.11900
H 	H 	0.59432 0.65685 0.95567 0.08700
H 	H 	0.52395 0.69493 0.07856 0.09900
H 	H 	0.57137 0.60073 0.96658 0.07500
H 	H 	0.50151 0.63867 0.09067 0.08400
H 	H 	0.32348 0.56515 0.10747 0.08800
H 	H 	0.37434 0.55935 0.90663 0.08900
H 	H 	0.31884 0.57956 0.91620 0.09300
H 	H 	0.37954 0.54670 0.09825 0.08900
H 	H 	0.42860 0.32380 0.05630 0.10000
H 	H 	0.44668 0.38183 0.06661 0.08100
C 	C 	0.44556 0.37670 0.91408 -0.03100
H 	H 	0.43336 0.33302 0.86399 0.08800
H 	H 	0.67122 0.48210 0.95705 0.08900
H 	H 	0.61504 0.50074 0.96123 0.07400
H 	H 	0.59205 0.41810 0.07635 0.09000
H 	H 	0.64820 0.39925 0.07159 0.10000
H 	H 	0.47799 0.62534 0.95885 0.07600
H 	H 	0.42213 0.59843 0.93583 0.06600
H 	H 	0.36606 0.48352 0.98510 0.11600
H 	H 	0.39135 0.42490 0.97552 0.07000
H 	H 	0.56760 0.41798 0.93568 0.07000
H 	H 	0.51049 0.39605 0.90744 0.08600
H 	H 	0.57771 0.57681 0.09924 0.09900
H 	H 	0.60268 0.51753 0.09449 0.10000
H 	H 	0.44947 0.39165 0.87431 0.07400
Co	Co	0.36419 0.12915 0.96230 1.18800
Co	Co	0.37128 0.05095 0.96451 1.14800
O 	O 	0.35986 0.17934 0.96154 -0.28000
O 	O 	0.40633 0.16399 0.93368 -0.25000
O 	O 	0.32198 0.11181 0.98637 -0.36400
O 	O 	0.39892 0.07259 0.90369 -0.40400
C 	C 	0.30945 0.08549 0.96075 0.30800
C 	C 	0.38734 0.18870 0.94199 0.30900
O 	O 	0.32768 0.06460 0.93131 -0.31600
O 	O 	0.36481 0.11424 0.88014 -0.35900
C 	C 	0.38647 0.09267 0.86373 0.32700
O 	O 	0.38627 0.12234 0.03736 -0.32000
O 	O 	0.36754 0.06959 0.04611 -0.36200
C 	C 	0.38632 0.09349 0.06485 0.30100
C 	C 	0.49653 0.02344 0.52267 0.04400
C 	C 	0.52091 0.99876 0.52429 0.03800
C 	C 	0.48738 0.03761 0.46763 -0.04300
C 	C 	0.50110 0.02626 0.41395 0.04500
C 	C 	0.53454 0.98735 0.47065 -0.04100
C 	C 	0.52451 0.00058 0.41546 0.04100
H 	H 	0.55163 0.96717 0.47168 0.08200
H 	H 	0.46946 0.05697 0.46651 0.08700
C 	C 	0.53488 0.98689 0.36065 -0.01600
C 	C 	0.52500 0.99981 0.30563 0.03200
C 	C 	0.54524 0.99099 0.25732 -0.02300
C 	C 	0.57129 0.97148 0.27515 0.02900
S 	S 	0.56840 0.96539 0.34931 0.11700
H 	H 	0.54076 0.99795 0.21116 0.09400
C 	C 	0.49219 0.03980 0.35770 -0.02200
C 	C 	0.50314 0.02586 0.30387 0.04300
C 	C 	0.48268 0.03206 0.25443 -0.02900
C 	C 	0.45543 0.05013 0.27009 0.01800
S 	S 	0.45771 0.05915 0.34303 0.15000
H 	H 	0.48689 0.02258 0.20975 0.08500
C 	C 	0.49171 0.01984 0.63204 0.03700
C 	C 	0.48102 0.03193 0.57679 -0.01800
S 	S 	0.46040 0.06661 0.58959 0.12200
C 	C 	0.46396 0.06730 0.66433 0.02900
C 	C 	0.48197 0.03954 0.68143 -0.02000
C 	C 	0.52930 0.98458 0.58013 -0.01400
C 	C 	0.51604 0.99609 0.63383 0.03100
C 	C 	0.53521 0.98915 0.68493 -0.01800
C 	C 	0.56387 0.97311 0.67059 0.02800
S 	S 	0.56448 0.96724 0.59638 0.11000
H 	H 	0.52766 0.99381 0.73053 0.09400
H 	H 	0.48575 0.03253 0.72777 0.09200
Co	Co	0.63554 0.87198 0.97360 1.18000
Co	Co	0.56103 0.88240 0.96792 1.12900
O 	O 	0.68366 0.86506 0.97416 -0.28900
O 	O 	0.67121 0.91417 0.00010 -0.22600
O 	O 	0.61668 0.82879 0.95185 -0.33300
O 	O 	0.58244 0.91046 0.02892 -0.40600
C 	C 	0.59157 0.81693 0.98026 0.29300
C 	C 	0.69413 0.89331 0.99218 0.28200
O 	O 	0.57059 0.83703 0.00468 -0.29400
O 	O 	0.62114 0.87404 0.05557 -0.34700
C 	C 	0.60034 0.89679 0.07046 0.32300
O 	O 	0.62992 0.89503 0.89825 -0.38700
O 	O 	0.57917 0.87549 0.88693 -0.36000
C 	C 	0.60337 0.89306 0.86706 0.31300
Co	Co	0.12396 0.62205 0.00009 1.21700
Co	Co	0.05004 0.60868 0.99610 1.11000
O 	O 	0.17129 0.63226 0.00969 -0.23500
O 	O 	0.16098 0.58167 0.02944 -0.21000
O 	O 	0.10342 0.66356 0.97321 -0.36500
O 	O 	0.06774 0.61484 0.91425 -0.39100
C 	C 	0.07840 0.67574 0.00130 0.40300
C 	C 	0.18273 0.60426 0.02731 0.31400
O 	O 	0.05749 0.65580 0.02675 -0.38400
O 	O 	0.11863 0.59614 0.92793 -0.39700
C 	C 	0.09254 0.59788 0.89538 0.32100
O 	O 	0.10945 0.62220 0.08196 -0.33000
O 	O 	0.07283 0.58311 0.05876 -0.40900
C 	C 	0.08976 0.59884 0.09910 0.31900
C 	C 	0.01164 0.49328 0.55307 0.03400
C 	C 	0.98612 0.46988 0.55144 0.04800
C 	C 	0.02602 0.50391 0.49952 -0.03700
C 	C 	0.01477 0.49219 0.44420 0.03400
C 	C 	0.97601 0.45675 0.49628 -0.04500
C 	C 	0.98997 0.46796 0.44251 0.05000
H 	H 	0.95709 0.43845 0.49515 0.08900
H 	H 	0.04539 0.52170 0.50083 0.08100
C 	C 	0.97945 0.45634 0.38605 -0.02500
C 	C 	0.98930 0.47179 0.33282 0.04300
C 	C 	0.96746 0.46767 0.28466 -0.02700
C 	C 	0.94037 0.44929 0.30064 0.02200
S 	S 	0.94430 0.43813 0.37251 0.14900
H 	H 	0.97198 0.47616 0.23938 0.08500
C 	C 	0.02731 0.50431 0.38949 -0.01200
C 	C 	0.01331 0.49590 0.33452 0.03000
C 	C 	0.01867 0.51982 0.28871 -0.01900
C 	C 	0.03616 0.54721 0.30852 0.02400
S 	S 	0.04538 0.54095 0.38047 0.11700
H 	H 	0.01149 0.51655 0.24250 0.08700
C 	C 	0.00701 0.49580 0.66257 0.02800
C 	C 	0.02061 0.50690 0.60887 -0.01100
S 	S 	0.05614 0.52336 0.62499 0.10500
C 	C 	0.05530 0.51766 0.69931 0.02800
C 	C 	0.02627 0.50223 0.71366 -0.01800
C 	C 	0.97047 0.46174 0.60573 -0.02000
C 	C 	0.98187 0.47299 0.66094 0.03900
C 	C 	0.97159 0.45345 0.71032 -0.02200
C 	C 	0.95234 0.42664 0.69333 0.02900
S 	S 	0.94850 0.42792 0.61860 0.12600
H 	H 	0.97586 0.46002 0.75665 0.09200
H 	H 	0.01847 0.49795 0.75929 0.09200
Co	Co	0.85360 0.36598 0.99268 1.18600
Co	Co	0.85665 0.44427 0.99350 1.12900
O 	O 	0.85127 0.31611 0.98029 -0.27700
O 	O 	0.89875 0.33443 0.96833 -0.24800
O 	O 	0.81027 0.38049 0.01548 -0.30400
O 	O 	0.85290 0.42561 0.07555 -0.40600
C 	C 	0.79640 0.40623 0.99003 0.29800
C 	C 	0.88026 0.30894 0.96630 0.31400
O 	O 	0.81345 0.42863 0.96141 -0.34400
O 	O 	0.87457 0.37406 0.06854 -0.32800
C 	C 	0.87279 0.40293 0.09542 0.30900
O 	O 	0.85361 0.38097 0.91061 -0.33800
O 	O 	0.88567 0.42432 0.93362 -0.40400
C 	C 	0.87444 0.40340 0.89402 0.32400
C 	C 	0.99347 0.92799 0.98156 0.08000
N 	N 	0.97748 0.94989 0.94709 -0.16200
C 	C 	0.94639 0.94667 0.96149 0.07900
C 	C 	0.92092 0.96872 0.93810 -0.06000
C 	C 	0.92921 0.00208 0.91485 0.10000
C 	C 	0.88712 0.95839 0.94253 0.05600
C 	C 	0.87598 0.93139 0.90901 -0.03400
C 	C 	0.84429 0.92089 0.91480 -0.00100
C 	C 	0.82345 0.93755 0.95367 0.04800
C 	C 	0.86638 0.97478 0.98198 -0.06400
N 	N 	0.95450 0.01936 0.93516 -0.12300
C 	C 	0.90892 0.02212 0.88168 -0.04500
C 	C 	0.95073 0.05037 0.91372 0.10200
C 	C 	0.97014 0.07868 0.93514 -0.07900
C 	C 	0.95592 0.11217 0.93899 0.06600
C 	C 	0.91771 0.15010 0.98352 -0.02700
C 	C 	0.96857 0.13829 0.90477 -0.03900
C 	C 	0.95602 0.17026 0.91031 0.00100
C 	C 	0.93093 0.17637 0.95050 0.04500
N 	N 	0.02077 0.04623 0.94230 -0.16800
C 	C 	0.04862 0.04928 0.97201 0.05400
C 	C 	0.04873 0.07787 0.00642 0.07100
C 	C 	0.01938 0.09283 0.99725 -0.15700
C 	C 	0.07685 0.02802 0.96030 -0.04100
C 	C 	0.10929 0.04246 0.96126 0.01300
C 	C 	0.15658 0.05836 0.01710 0.03500
C 	C 	0.17340 0.06279 0.96325 0.00400
C 	C 	0.15794 0.05727 0.90837 0.00800
C 	C 	0.12587 0.04758 0.90738 -0.02500
N 	N 	0.04418 0.97675 0.95300 -0.12000
C 	C 	0.08329 0.93859 0.94674 -0.04600
C 	C 	0.05073 0.94404 0.95175 0.09300
C 	C 	0.02721 0.91852 0.97053 -0.05200
C 	C 	0.03702 0.88345 0.97581 0.01700
C 	C 	0.04297 0.86952 0.03239 -0.00400
C 	C 	0.05056 0.83588 0.03758 0.03300
C 	C 	0.05265 0.81608 0.98613 0.00000
C 	C 	0.04868 0.83052 0.92931 0.00900
C 	C 	0.04043 0.86400 0.92421 -0.02600
C 	C 	0.97254 0.91096 0.01880 -0.01200
C 	C 	0.94241 0.92330 0.00641 -0.01100
C 	C 	0.83469 0.96430 0.98772 -0.02900
C 	C 	0.92275 0.05315 0.88096 -0.04500
C 	C 	0.00313 0.07289 0.95710 0.14800
C 	C 	0.09728 0.96948 0.94374 -0.04400
C 	C 	0.07254 0.99224 0.94705 0.08900
C 	C 	0.12473 0.04797 0.01611 -0.00200
H 	H 	0.98593 0.95983 0.90678 0.11300
H 	H 	0.01752 0.03211 0.90357 0.11400
H 	H 	0.05424 0.82507 0.08157 0.08600
H 	H 	0.05133 0.81564 0.88926 0.09700
H 	H 	0.04108 0.88459 0.07234 0.07500
H 	H 	0.03652 0.87477 0.88028 0.07700
H 	H 	0.83592 0.89985 0.88912 0.09300
H 	H 	0.87490 0.99543 0.00850 0.10700
H 	H 	0.81888 0.97692 0.01863 0.12600
H 	H 	0.89194 0.91844 0.87883 0.08000
H 	H 	0.96598 0.19033 0.88387 0.09700
H 	H 	0.98822 0.13384 0.87421 0.08200
C 	C 	0.93037 0.11816 0.97824 -0.06600
H 	H 	0.89790 0.15451 0.01375 0.12600
H 	H 	0.16845 0.06216 0.05969 0.09100
H 	H 	0.11225 0.04356 0.05793 0.07500
H 	H 	0.11420 0.04300 0.86484 0.07700
H 	H 	0.17095 0.05983 0.86663 0.10000
H 	H 	0.97725 0.88729 0.03997 0.09200
H 	H 	0.92009 0.91143 0.01836 0.08500
H 	H 	0.88385 0.01725 0.87352 0.09300
H 	H 	0.91006 0.07604 0.87210 0.07900
H 	H 	0.06983 0.09039 0.02289 0.07200
H 	H 	0.01387 0.11848 0.00695 0.15200
H 	H 	0.09553 0.91631 0.96123 0.06900
H 	H 	0.12190 0.97451 0.95560 0.06700
H 	H 	0.92044 0.09811 0.00479 0.11000
C 	C 	0.91589 0.26439 0.00359 0.11000
C 	C 	0.89235 0.27472 0.96289 -0.01900
C 	C 	0.88161 0.25282 0.91767 -0.05700
C 	C 	0.89379 0.22033 0.91591 0.02100
C 	C 	0.91762 0.21014 0.95609 0.05000
C 	C 	0.92901 0.23233 0.00029 -0.08300
C 	C 	0.95493 0.22176 0.04411 0.78600
H 	H 	0.92397 0.28148 0.03778 0.12600
H 	H 	0.88503 0.20292 0.88285 0.10400
C 	C 	0.85708 0.26396 0.87157 0.77500
F 	F 	0.96354 0.24727 0.08224 -0.38300
F 	F 	0.98194 0.21201 0.01308 -0.40200
F 	F 	0.94411 0.19556 0.07871 -0.41200
F 	F 	0.86663 0.29346 0.84522 -0.39500
F 	F 	0.82785 0.26851 0.89926 -0.38100
F 	F 	0.85327 0.24081 0.82643 -0.39300
C 	C 	0.89882 0.43139 0.73997 0.01200
C 	C 	0.92726 0.41338 0.73304 0.10300
C 	C 	0.93388 0.38650 0.77191 -0.12000
C 	C 	0.91476 0.38186 0.82311 0.09100
C 	C 	0.88835 0.40240 0.83361 0.00500
C 	C 	0.87870 0.42544 0.78931 -0.06000
C 	C 	0.84833 0.44552 0.79694 0.77200
H 	H 	0.89349 0.45143 0.70906 0.10300
H 	H 	0.92144 0.36355 0.85650 0.10500
C 	C 	0.96284 0.36464 0.76179 0.79400
F 	F 	0.83920 0.46041 0.74362 -0.39800
F 	F 	0.85326 0.46995 0.83930 -0.44900
F 	F 	0.82358 0.42520 0.81558 -0.37800
F 	F 	0.99008 0.38128 0.77980 -0.40400
F 	F 	0.96552 0.35668 0.70169 -0.40300
F 	F 	0.96053 0.33531 0.79393 -0.39400
C 	C 	0.87202 0.42399 0.19977 0.07900
C 	C 	0.88887 0.40793 0.15380 -0.00700
C 	C 	0.92179 0.40046 0.16179 -0.06500
C 	C 	0.93711 0.41050 0.21487 0.00600
C 	C 	0.92123 0.43054 0.25664 0.10200
C 	C 	0.88805 0.43635 0.25044 -0.12400
C 	C 	0.86980 0.45591 0.29743 0.79100
H 	H 	0.84657 0.42807 0.19462 0.10400
H 	H 	0.96203 0.40445 0.22225 0.10800
C 	C 	0.94071 0.38203 0.11408 0.77500
F 	F 	0.83797 0.45995 0.28207 -0.39500
F 	F 	0.88314 0.48709 0.30385 -0.41000
F 	F 	0.87105 0.43936 0.35174 -0.41100
F 	F 	0.93734 0.39752 0.05900 -0.43100
F 	F 	0.92990 0.34970 0.11023 -0.39800
F 	F 	0.97303 0.38112 0.12735 -0.39700
C 	C 	0.08948 0.76921 0.00712 0.03500
C 	C 	0.05869 0.78010 0.99195 0.07000
C 	C 	0.03387 0.75669 0.98345 -0.13200
C 	C 	0.04131 0.72271 0.98414 0.10800
C 	C 	0.07205 0.71175 0.99972 -0.07900
C 	C 	0.09598 0.73523 0.01472 -0.01500
C 	C 	0.12854 0.72437 0.03778 0.78700
H 	H 	0.10829 0.78734 0.01362 0.10800
H 	H 	0.02318 0.70464 0.97256 0.07800
C 	C 	0.99971 0.76774 0.97153 0.77200
F 	F 	0.14442 0.75032 0.06532 -0.38700
F 	F 	0.14702 0.71340 0.99043 -0.41500
F 	F 	0.12541 0.69917 0.07964 -0.40100
F 	F 	0.99719 0.77954 0.91348 -0.42400
F 	F 	0.99086 0.79245 0.01108 -0.40000
F 	F 	0.97838 0.74177 0.97856 -0.41400
C 	C 	0.09902 0.54595 0.83756 0.07700
C 	C 	0.09067 0.57964 0.83829 -0.01800
C 	C 	0.07723 0.59434 0.78634 -0.06100
C 	C 	0.06637 0.57376 0.73992 0.00600
C 	C 	0.07221 0.53950 0.74163 0.09800
C 	C 	0.09109 0.52597 0.78823 -0.12900
C 	C 	0.10096 0.48978 0.78750 0.79300
H 	H 	0.11030 0.53499 0.87661 0.08900
H 	H 	0.05250 0.58422 0.70343 0.10000
C 	C 	0.07333 0.63163 0.78083 0.77500
F 	F 	0.12628 0.48400 0.82609 -0.39600
F 	F 	0.11050 0.48059 0.73051 -0.40500
F 	F 	0.07544 0.47025 0.80507 -0.41500
F 	F 	0.09836 0.64804 0.80844 -0.40600
F 	F 	0.04482 0.64114 0.80697 -0.42000
F 	F 	0.07297 0.64123 0.72118 -0.40300
C 	C 	0.08506 0.55603 0.24795 0.00800
C 	C 	0.05540 0.56789 0.26783 0.10400
C 	C 	0.04190 0.59629 0.24058 -0.12800
C 	C 	0.05525 0.60841 0.18703 0.08200
C 	C 	0.08278 0.59381 0.16298 -0.00200
C 	C 	0.09950 0.56961 0.19652 -0.05500
C 	C 	0.13170 0.55692 0.17555 0.77200
H 	H 	0.09583 0.53492 0.27036 0.10600
H 	H 	0.04312 0.62775 0.16197 0.08300
C 	C 	0.01161 0.61170 0.26529 0.79200
F 	F 	0.14683 0.53854 0.21974 -0.39700
F 	F 	0.15132 0.58333 0.16089 -0.39100
F 	F 	0.12761 0.53706 0.12571 -0.40700
F 	F 	0.01327 0.61374 0.32713 -0.40800
F 	F 	0.98563 0.59242 0.24949 -0.41700
F 	F 	0.00710 0.64344 0.24301 -0.40100
C 	C 	0.73354 0.92825 0.93836 0.07800
C 	C 	0.72733 0.90401 0.98204 -0.01900
C 	C 	0.75273 0.89053 0.01616 -0.03500
C 	C 	0.78416 0.90118 0.00474 0.04900
C 	C 	0.79034 0.92568 0.96157 0.04900
C 	C 	0.76493 0.93920 0.92743 -0.11400
C 	C 	0.77125 0.96543 0.87983 0.78800
H 	H 	0.71381 0.93845 0.91280 0.10000
H 	H 	0.80394 0.89071 0.02981 0.10500
C 	C 	0.74637 0.86469 0.06441 0.77200
F 	F 	0.74364 0.97425 0.84950 -0.39500
F 	F 	0.79290 0.95354 0.83827 -0.41900
F 	F 	0.78360 0.99361 0.90634 -0.42300
F 	F 	0.73579 0.83569 0.03810 -0.38100
F 	F 	0.72330 0.87611 0.10372 -0.39200
F 	F 	0.77359 0.85755 0.09732 -0.39300
C 	C 	0.57547 0.91717 0.71216 0.00700
C 	C 	0.58090 0.95150 0.71341 0.10000
C 	C 	0.59979 0.96527 0.75967 -0.12800
C 	C 	0.60816 0.94536 0.80908 0.07700
C 	C 	0.60046 0.91151 0.81006 -0.01300
C 	C 	0.58698 0.89669 0.75842 -0.06000
C 	C 	0.58415 0.85935 0.75275 0.77800
H 	H 	0.56157 0.90655 0.67599 0.10100
H 	H 	0.61945 0.95646 0.84789 0.08600
C 	C 	0.60933 0.00155 0.75836 0.79300
F 	F 	0.58305 0.85005 0.69308 -0.39400
F 	F 	0.55644 0.84871 0.78053 -0.38200
F 	F 	0.61021 0.84375 0.77862 -0.37700
F 	F 	0.58376 0.02085 0.77625 -0.41400
F 	F 	0.61850 0.01086 0.70112 -0.39900
F 	F 	0.63482 0.00755 0.79641 -0.39200
C 	C 	0.61743 0.93900 0.14385 0.08800
C 	C 	0.59999 0.91014 0.13161 -0.00200
C 	C 	0.57873 0.89729 0.17512 -0.06200
C 	C 	0.57137 0.91658 0.22567 0.01100
C 	C 	0.58626 0.94736 0.23449 0.10200
C 	C 	0.61152 0.95720 0.19633 -0.12300
C 	C 	0.63023 0.98863 0.20864 0.79300
H 	H 	0.63437 0.94817 0.11098 0.10000
H 	H 	0.55257 0.90879 0.25603 0.10300
C 	C 	0.56196 0.86440 0.16532 0.77500
F 	F 	0.65885 0.98895 0.17746 -0.39200
F 	F 	0.63721 0.99104 0.26912 -0.40400
F 	F 	0.61234 0.01584 0.19130 -0.40800
F 	F 	0.58371 0.84064 0.14706 -0.40400
F 	F 	0.53872 0.86812 0.12174 -0.44200
F 	F 	0.54758 0.85308 0.21741 -0.40100
C 	C 	0.22890 0.04363 0.98048 0.02200
C 	C 	0.20810 0.06945 0.96469 0.08800
C 	C 	0.22051 0.10127 0.95109 -0.12000
C 	C 	0.25384 0.10566 0.94834 0.07700
C 	C 	0.27466 0.07981 0.96428 0.01800
C 	C 	0.26200 0.04903 0.98406 -0.10100
C 	C 	0.28354 0.02177 0.00829 0.82500
H 	H 	0.21913 0.01935 0.99062 0.08800
H 	H 	0.26370 0.12915 0.93355 0.11100
C 	C 	0.19840 0.13023 0.93763 0.79100
F 	F 	0.26619 0.99827 0.03989 -0.40100
F 	F 	0.30611 0.03476 0.04700 -0.43700
F 	F 	0.29880 0.00610 0.96127 -0.45100
F 	F 	0.17462 0.13226 0.98058 -0.42300
F 	F 	0.18458 0.12599 0.88190 -0.41400
F 	F 	0.21476 0.16008 0.93754 -0.39300
C 	C 	0.42804 0.11305 0.79416 0.08600
C 	C 	0.40029 0.09424 0.80328 -0.00300
C 	C 	0.38959 0.07247 0.75799 -0.06300
C 	C 	0.40980 0.06565 0.70921 0.01000
C 	C 	0.43941 0.08171 0.70374 0.10100
C 	C 	0.44731 0.10767 0.74348 -0.12200
C 	C 	0.47772 0.12758 0.73493 0.79400
H 	H 	0.43562 0.13038 0.82838 0.10100
H 	H 	0.40352 0.04635 0.67762 0.10200
C 	C 	0.35801 0.05433 0.76427 0.77400
F 	F 	0.47695 0.15666 0.76772 -0.39300
F 	F 	0.48154 0.13597 0.67515 -0.40400
F 	F 	0.50364 0.10891 0.75347 -0.40100
F 	F 	0.33440 0.07598 0.78301 -0.40200
F 	F 	0.36115 0.02907 0.80592 -0.43700
F 	F 	0.34839 0.04078 0.71025 -0.40200
C 	C 	0.38608 0.07395 0.17027 0.07700
C 	C 	0.40246 0.08992 0.12348 0.00200
C 	C 	0.43517 0.09836 0.13090 -0.06700
C 	C 	0.45101 0.08867 0.18378 0.00800
C 	C 	0.43569 0.06853 0.22637 0.10200
C 	C 	0.40256 0.06208 0.22091 -0.12300
C 	C 	0.38476 0.04258 0.26885 0.79100
H 	H 	0.36068 0.06940 0.16566 0.11700
H 	H 	0.47590 0.09510 0.19040 0.11100
C 	C 	0.45327 0.11749 0.08278 0.77600
F 	F 	0.35319 0.03705 0.25317 -0.39500
F 	F 	0.38509 0.06008 0.32204 -0.41400
F 	F 	0.39910 0.01203 0.27759 -0.41800
F 	F 	0.44091 0.14919 0.07792 -0.39800
F 	F 	0.45070 0.10156 0.02815 -0.42800
F 	F 	0.48548 0.12017 0.09618 -0.39200
C 	C 	0.38921 0.28279 0.93358 0.00900
C 	C 	0.42041 0.28931 0.95313 0.09300
C 	C 	0.44148 0.26266 0.96554 -0.11800
C 	C 	0.42967 0.23003 0.96413 0.07700
C 	C 	0.39849 0.22345 0.94413 0.01100
C 	C 	0.37866 0.25004 0.92521 -0.06300
C 	C 	0.34617 0.24380 0.89694 0.77600
H 	H 	0.37329 0.30336 0.92419 0.10300
H 	H 	0.44471 0.20966 0.97864 0.12400
C 	C 	0.47618 0.26887 0.98224 0.76800
F 	F 	0.33505 0.27172 0.86727 -0.39800
F 	F 	0.32437 0.23545 0.94106 -0.39500
F 	F 	0.34797 0.21843 0.85542 -0.40100
F 	F 	0.47786 0.28049 0.04038 -0.39200
F 	F 	0.48974 0.29193 0.94387 -0.42100
F 	F 	0.49413 0.24010 0.97851 -0.38900
C 	C 	0.22677 0.56565 0.00143 0.11300
C 	C 	0.21720 0.59628 0.02516 0.01400
C 	C 	0.24055 0.61846 0.04789 -0.05400
C 	C 	0.27313 0.61085 0.04032 0.01800
C 	C 	0.28259 0.58010 0.01719 0.08200
C 	C 	0.25917 0.55651 0.00040 -0.09000
C 	C 	0.26860 0.52205 0.97929 0.74300
H 	H 	0.20887 0.54889 0.98376 0.08300
H 	H 	0.29124 0.62869 0.05310 0.10600
C 	C 	0.23104 0.65036 0.07931 0.77500
F 	F 	0.24257 0.50085 0.97838 -0.39700
F 	F 	0.29120 0.50832 0.01724 -0.40000
F 	F 	0.28101 0.52395 0.92196 -0.42500
F 	F 	0.20642 0.64457 0.11943 -0.36900
F 	F 	0.22136 0.67352 0.03725 -0.36600
F 	F 	0.25638 0.66353 0.11130 -0.39300
C 	C 	0.75266 0.43371 0.04516 0.13300
C 	C 	0.76212 0.41205 0.99951 -0.04800
C 	C 	0.73898 0.39756 0.96156 -0.03000
C 	C 	0.70666 0.40642 0.96841 -0.04400
C 	C 	0.69729 0.42889 0.01292 0.14000
C 	C 	0.72027 0.44193 0.05304 -0.14600
C 	C 	0.71044 0.46535 0.10298 0.79900
H 	H 	0.77071 0.44453 0.07394 0.07800
H 	H 	0.68873 0.39638 0.93846 0.11400
C 	C 	0.74884 0.37336 0.91293 0.76300
F 	F 	0.73575 0.47267 0.14066 -0.39900
F 	F 	0.68657 0.45107 0.13730 -0.41800
F 	F 	0.69930 0.49473 0.07860 -0.41700
F 	F 	0.76507 0.34690 0.93822 -0.39400
F 	F 	0.76860 0.38917 0.87218 -0.37000
F 	F 	0.72274 0.36093 0.88218 -0.39100
C 	C 	0.56121 0.72998 0.95301 -0.03800
C 	C 	0.57211 0.71372 0.00473 0.13500
C 	C 	0.59240 0.73051 0.04538 -0.13700
C 	C 	0.59879 0.76441 0.03619 0.13500
C 	C 	0.58704 0.78091 0.98540 -0.03200
C 	C 	0.56903 0.76337 0.94222 -0.04600
C 	C 	0.55795 0.78035 0.88507 0.77100
H 	H 	0.54614 0.71665 0.92177 0.10600
H 	H 	0.61243 0.77819 0.06904 0.11400
C 	C 	0.60612 0.71279 0.09976 0.79900
F 	F 	0.54252 0.75860 0.84687 -0.40000
F 	F 	0.58404 0.79328 0.85502 -0.37000
F 	F 	0.53702 0.80574 0.89893 -0.42800
F 	F 	0.61935 0.68277 0.08306 -0.40900
F 	F 	0.58212 0.70720 0.14118 -0.41100
F 	F 	0.62988 0.73132 0.12693 -0.38400
