data_crystal

_cell_length_a 30.77115
_cell_length_b 31.14990
_cell_length_c 26.54313
_cell_angle_alpha 95.52157
_cell_angle_beta  95.51392
_cell_angle_gamma 125.54917

_symmetry_space_group_name_	'P 1'
_symmetry_space_group_name_H-M	'P 1'

loop_
_symmetry_equiv_pos_as_xyz
  x,y,z

loop_
_atom_site_label
_atom_site_type_symbol
_atom_site_fract_x
_atom_site_fract_y
_atom_site_fract_z
_atom_site_charge
C 	C 	0.98005 0.03577 0.00209 0.03700
C 	C 	0.03540 0.06419 0.99944 -0.08600
C 	C 	0.05931 0.03727 0.99642 0.03600
H 	H 	0.05975 0.10705 0.99987 0.05200
C 	C 	0.00215 0.03093 0.43463 -0.07700
C 	C 	0.02848 0.00639 0.43753 0.03300
H 	H 	0.02526 0.07334 0.43306 0.05200
O 	O 	0.69144 0.22952 0.99877 -0.36400
O 	O 	0.71251 0.24240 0.47444 -0.43800
F 	F 	0.63381 0.21912 0.15317 -0.44000
C 	C 	0.91882 0.02719 0.43200 -0.00500
C 	C 	0.88062 0.01349 0.38825 -0.03300
C 	C 	0.85754 0.04103 0.38487 -0.04500
C 	C 	0.87250 0.08236 0.42518 0.02000
C 	C 	0.91005 0.09555 0.46918 -0.04600
C 	C 	0.93312 0.06807 0.47261 -0.03200
C 	C 	0.84932 0.11124 0.42157 -0.01300
C 	C 	0.83042 0.13594 0.41937 -0.02500
C 	C 	0.80790 0.16555 0.41808 0.04300
C 	C 	0.73232 0.16955 0.42543 0.01800
C 	C 	0.75283 0.13973 0.42006 -0.07200
H 	H 	0.82836 0.03046 0.35082 0.04400
H 	H 	0.92158 0.12726 0.50061 0.04200
H 	H 	0.96246 0.07883 0.50658 0.03800
H 	H 	0.68993 0.14931 0.42809 0.03100
H 	H 	0.72621 0.09677 0.41885 0.05000
C 	C 	0.44004 0.22597 0.40111 0.01700
C 	C 	0.38416 0.19746 0.40001 -0.06900
C 	C 	0.36272 0.17867 0.44385 0.04300
C 	C 	0.39729 0.18821 0.48878 -0.06800
C 	C 	0.45317 0.21673 0.49002 0.01900
C 	C 	0.30526 0.14971 0.44279 -0.02400
C 	C 	0.25713 0.12546 0.44187 -0.01200
C 	C 	0.19969 0.09634 0.44106 0.02100
C 	C 	0.17805 0.07422 0.48373 -0.04500
C 	C 	0.12219 0.04528 0.48278 -0.03200
C 	C 	0.08759 0.03824 0.43907 -0.00500
C 	C 	0.10938 0.06076 0.39649 -0.03200
C 	C 	0.16529 0.08972 0.39750 -0.04500
H 	H 	0.35759 0.19005 0.36509 0.05000
H 	H 	0.38094 0.17378 0.52283 0.05400
H 	H 	0.47956 0.22443 0.52520 0.04400
H 	H 	0.20445 0.07930 0.51756 0.04400
H 	H 	0.10576 0.02823 0.51591 0.03900
H 	H 	0.08297 0.05542 0.36253 0.03800
H 	H 	0.18178 0.10677 0.36438 0.04300
C 	C 	0.95464 0.06386 0.00423 -0.00000
C 	C 	0.95233 0.08804 0.96310 -0.03700
C 	C 	0.92727 0.11373 0.96464 -0.05200
C 	C 	0.90432 0.11537 0.00723 0.02700
C 	C 	0.90683 0.09153 0.04849 -0.04600
C 	C 	0.93194 0.06586 0.04703 -0.03200
C 	C 	0.87751 0.14084 0.00812 -0.01100
C 	C 	0.85529 0.16240 0.00791 -0.02500
C 	C 	0.82880 0.18818 0.00619 0.05300
C 	C 	0.78230 0.16843 0.02794 -0.07400
C 	C 	0.75345 0.19006 0.02175 0.03000
C 	C 	0.77082 0.23150 0.99340 -0.10300
C 	C 	0.81890 0.25271 0.97364 0.02000
C 	C 	0.84754 0.23095 0.97986 -0.08200
H 	H 	0.96955 0.08654 0.92983 0.03800
H 	H 	0.92544 0.13207 0.93260 0.04200
H 	H 	0.88919 0.09269 0.08155 0.04500
H 	H 	0.93370 0.04748 0.07906 0.03900
H 	H 	0.76786 0.13562 0.04875 0.05600
H 	H 	0.71704 0.17378 0.03801 0.04900
H 	H 	0.88372 0.24666 0.96328 0.05000
C 	C 	0.46457 0.23674 0.94022 0.01500
C 	C 	0.40965 0.21340 0.94025 -0.06800
C 	C 	0.38073 0.17288 0.96869 0.04400
C 	C 	0.40619 0.15410 0.99527 -0.07200
C 	C 	0.46108 0.17737 0.99540 0.01200
C 	C 	0.32594 0.15268 0.97309 -0.02600
C 	C 	0.28004 0.13519 0.97733 -0.01100
C 	C 	0.22539 0.11388 0.98343 0.01500
C 	C 	0.20777 0.09530 0.02865 -0.04000
C 	C 	0.15389 0.07188 0.03361 -0.02600
C 	C 	0.11727 0.06687 0.99333 -0.01200
C 	C 	0.13534 0.08678 0.94862 -0.03100
C 	C 	0.18928 0.11018 0.94368 -0.04500
H 	H 	0.38997 0.22765 0.91908 0.05100
H 	H 	0.38386 0.12238 0.01693 0.05900
H 	H 	0.23558 0.09832 0.05964 0.04400
H 	H 	0.14033 0.05678 0.06834 0.03800
H 	H 	0.10733 0.08303 0.91730 0.03800
H 	H 	0.20272 0.12469 0.90870 0.04300
O 	O 	0.57433 0.22976 0.99575 -0.35300
C 	C 	0.73707 0.25020 0.98144 0.29200
H 	H 	0.62169 0.25615 0.40356 0.16700
H 	H 	0.64952 0.23879 0.25390 0.08500
C 	C 	0.84187 0.22102 0.41907 -0.07100
C 	C 	0.76685 0.22556 0.42903 -0.09400
C 	C 	0.47493 0.23594 0.44620 -0.08600
C 	C 	0.49106 0.21990 0.96902 -0.08300
H 	H 	0.48676 0.26866 0.91877 0.03800
H 	H 	0.48066 0.16354 0.01743 0.05500
H 	H 	0.61019 0.24629 0.90445 0.18400
F 	F 	0.57798 0.23007 0.73951 -0.45000
H 	H 	0.45613 0.24009 0.36689 0.03100
H 	H 	0.59145 0.24146 0.64467 0.08900
H 	H 	0.88445 0.24122 0.41724 0.05100
C 	C 	0.74739 0.25780 0.44317 0.28900
C 	C 	0.55068 0.24987 0.97551 0.28300
C 	C 	0.82141 0.25096 0.42436 0.01800
O 	O 	0.56329 0.26032 0.48141 -0.37900
Cu	Cu	0.65463 0.26518 0.99848 0.92900
C 	C 	0.53407 0.26695 0.44769 0.29100
Cu	Cu	0.69805 0.26471 0.89026 0.87400
O 	O 	0.66329 0.26562 0.82745 -0.39700
C 	C 	0.66287 0.26887 0.18293 0.33900
C 	C 	0.94606 0.00087 0.43412 0.03300
O 	O 	0.64786 0.26921 0.92437 -0.64000
H 	H 	0.83352 0.28529 0.95254 0.02700
C 	C 	0.62149 0.27366 0.72582 0.33500
C 	C 	0.62393 0.27536 0.67364 -0.09300
C 	C 	0.66832 0.27430 0.23660 -0.09300
O 	O 	0.74981 0.28339 0.94915 -0.44000
O 	O 	0.67183 0.27571 0.07209 -0.33000
Cu	Cu	0.72775 0.29073 0.53440 0.87400
C 	C 	0.02786 0.98193 0.99608 -0.07900
C 	C 	0.97261 0.95340 0.99874 0.03000
C 	C 	0.94872 0.98035 0.00174 -0.07100
H 	H 	0.04624 0.96102 0.99328 0.05200
H 	H 	0.90589 0.95825 0.00351 0.05200
C 	C 	0.99857 0.95159 0.43957 -0.07500
C 	C 	0.94251 0.92131 0.43899 0.03300
C 	C 	0.91624 0.94599 0.43631 -0.07600
H 	H 	0.01889 0.93255 0.44172 0.05200
H 	H 	0.87292 0.92268 0.43606 0.05200
Cu	Cu	0.68364 0.34795 0.92907 0.89800
Cu	Cu	0.64833 0.36150 0.02760 0.89700
C 	C 	0.66901 0.30879 0.10432 0.32700
C 	C 	0.66871 0.30900 0.81768 0.33500
O 	O 	0.69479 0.34800 0.00128 -0.63700
O 	O 	0.64137 0.32692 0.08884 -0.38000
O 	O 	0.72198 0.42501 0.93923 -0.37700
C 	C 	0.71575 0.45314 0.97441 0.28400
O 	O 	0.58064 0.29946 0.96766 -0.38800
O 	O 	0.67623 0.42933 0.00112 -0.38400
O 	O 	0.68617 0.34986 0.85509 -0.38800
H 	H 	0.73330 0.37257 0.01902 0.16700
Cu	Cu	0.72933 0.33767 0.42843 0.93000
Cu	Cu	0.64162 0.30160 0.49409 0.90000
Cu	Cu	0.62870 0.33837 0.39722 0.89700
C 	C 	0.69131 0.32992 0.32222 0.33200
O 	O 	0.76163 0.41670 0.43402 -0.34800
C 	C 	0.67831 0.31496 0.60567 0.33500
O 	O 	0.64471 0.29379 0.42245 -0.64100
O 	O 	0.72205 0.34041 0.50169 -0.64100
O 	O 	0.76826 0.30405 0.42820 -0.36600
O 	O 	0.66833 0.35243 0.33829 -0.36500
C 	C 	0.73808 0.43677 0.45402 0.28700
O 	O 	0.68740 0.40416 0.45994 -0.38600
O 	O 	0.55711 0.30524 0.41991 -0.38900
O 	O 	0.72181 0.32397 0.35500 -0.35500
O 	O 	0.63732 0.29630 0.56729 -0.38900
O 	O 	0.72317 0.32143 0.59748 -0.39700
H 	H 	0.74338 0.37696 0.52289 0.18500
C 	C 	0.70839 0.36179 0.74906 -0.09300
C 	C 	0.66485 0.31595 0.76379 -0.13400
C 	C 	0.66992 0.31900 0.65904 -0.13400
C 	C 	0.71113 0.36322 0.69690 0.33500
F 	F 	0.75476 0.40670 0.68321 -0.45100
H 	H 	0.74160 0.39505 0.77805 0.08900
C 	C 	0.71474 0.36566 0.19136 -0.09500
C 	C 	0.68451 0.31454 0.16003 -0.12600
C 	C 	0.69508 0.32517 0.26755 -0.12800
C 	C 	0.72006 0.37101 0.24488 0.34000
F 	F 	0.74786 0.42064 0.27466 -0.44500
H 	H 	0.73230 0.40114 0.17407 0.07900
C 	C 	0.76540 0.49543 0.46204 -0.08000
C 	C 	0.81373 0.52926 0.44356 0.02200
C 	C 	0.83524 0.58316 0.44440 -0.06400
C 	C 	0.80892 0.60385 0.46388 0.04300
C 	C 	0.76237 0.57111 0.48475 -0.06600
C 	C 	0.74078 0.51718 0.48408 0.01600
C 	C 	0.82792 0.65770 0.45967 -0.02100
C 	C 	0.84447 0.70288 0.45577 -0.01200
C 	C 	0.86478 0.75675 0.45008 0.02200
C 	C 	0.87023 0.79247 0.49107 -0.04600
C 	C 	0.89348 0.84583 0.48666 -0.03200
C 	C 	0.91150 0.86372 0.44123 -0.00500
C 	C 	0.90444 0.82744 0.39968 -0.03100
C 	C 	0.88116 0.77415 0.40412 -0.04500
H 	H 	0.83378 0.51352 0.42715 0.05200
H 	H 	0.87164 0.60847 0.42873 0.05500
H 	H 	0.74220 0.58705 0.50048 0.05100
H 	H 	0.70424 0.49209 0.49957 0.03800
H 	H 	0.85741 0.77923 0.52664 0.04400
H 	H 	0.89884 0.87357 0.51896 0.03900
H 	H 	0.91813 0.84088 0.36444 0.03900
H 	H 	0.87679 0.74667 0.37217 0.04600
H 	H 	0.86944 0.98211 0.35663 0.03900
H 	H 	0.84849 0.29408 0.42689 0.03600
C 	C 	0.93966 0.89510 0.99768 -0.01000
C 	C 	0.95175 0.87517 0.03766 -0.02700
C 	C 	0.92311 0.81979 0.03486 -0.04000
C 	C 	0.88224 0.78403 0.99214 0.01500
C 	C 	0.86942 0.80380 0.95260 -0.04500
C 	C 	0.89803 0.85920 0.95535 -0.03200
C 	C 	0.85412 0.72710 0.98853 -0.01300
C 	C 	0.83081 0.67950 0.98590 -0.02400
C 	C 	0.80308 0.62273 0.98321 0.03600
C 	C 	0.79243 0.58992 0.93676 -0.06800
C 	C 	0.76459 0.53459 0.93391 0.01900
C 	C 	0.74715 0.51172 0.97762 -0.09100
C 	C 	0.75853 0.54491 0.02427 0.02200
C 	C 	0.78637 0.60018 0.02700 -0.06300
H 	H 	0.98371 0.90260 0.07056 0.03900
H 	H 	0.93305 0.80474 0.06567 0.04400
H 	H 	0.83772 0.77633 0.91953 0.04400
H 	H 	0.88853 0.87423 0.92423 0.03800
H 	H 	0.80535 0.60717 0.90277 0.05300
H 	H 	0.75585 0.50949 0.89759 0.04300
H 	H 	0.74584 0.52789 0.05840 0.02900
H 	H 	0.79475 0.62541 0.06311 0.05100
