data_crystal

_cell_length_a 24.23158
_cell_length_b 24.33454
_cell_length_c 33.13042
_cell_angle_alpha 95.49458
_cell_angle_beta  95.49507
_cell_angle_gamma 125.79914

_symmetry_space_group_name_	'P 1'
_symmetry_space_group_name_H-M	'P 1'

loop_
_symmetry_equiv_pos_as_xyz
  x,y,z

loop_
_atom_site_label
_atom_site_type_symbol
_atom_site_fract_x
_atom_site_fract_y
_atom_site_fract_z
_atom_site_charge
N 	N 	0.04041 0.06126 0.94614 -0.13100
C 	C 	0.06874 0.02855 0.93595 0.09600
N 	N 	0.02962 0.95868 0.93052 -0.13000
C 	C 	0.03652 0.02659 0.49217 0.09600
C 	C 	0.21394 0.17156 0.52433 0.07300
C 	C 	0.27139 0.22512 0.51028 -0.08100
C 	C 	0.33378 0.23317 0.51879 0.01100
C 	C 	0.33622 0.18373 0.53508 0.08000
C 	C 	0.27628 0.12530 0.54410 -0.08700
C 	C 	0.21676 0.12288 0.54142 0.02200
N 	N 	0.14823 0.14396 0.50724 -0.16300
C 	C 	0.10924 0.07794 0.51290 0.05700
C 	C 	0.14976 0.06265 0.53382 -0.07400
H 	H 	0.26638 0.25615 0.49107 0.05200
H 	H 	0.27475 0.08151 0.55022 0.05500
H 	H 	0.13635 0.01135 0.53193 0.05500
H 	H 	0.13429 0.16205 0.48393 0.08800
C 	C 	0.24116 0.08771 0.93398 0.07300
C 	C 	0.28706 0.07299 0.94776 -0.08300
C 	C 	0.31260 0.19957 0.98010 -0.08700
C 	C 	0.25432 0.15036 0.94954 0.02100
N 	N 	0.17256 0.03843 0.92198 -0.16500
C 	C 	0.14143 0.06857 0.93029 0.05600
C 	C 	0.19065 0.13823 0.94732 -0.07300
H 	H 	0.27720 0.02450 0.93558 0.05200
H 	H 	0.32261 0.24813 0.99232 0.05300
H 	H 	0.18094 0.16831 0.96747 0.05500
H 	H 	0.14873 0.98565 0.91966 0.09100
C 	C 	0.34407 0.12135 0.97913 0.01200
N 	N 	0.00465 0.95836 0.49146 -0.13000
N 	N 	0.38736 0.18306 0.52309 -0.15000
C 	C 	0.38525 0.26314 0.49543 -0.04700
C 	C 	0.35744 0.18403 0.99445 0.07500
C 	C 	0.40714 0.13190 0.98387 -0.04800
H 	H 	0.41808 0.10167 0.96500 0.04500
C 	C 	0.41601 0.22994 0.49828 0.00300
H 	H 	0.38713 0.29058 0.47108 0.04700
H 	H 	0.39087 0.14225 0.52317 0.09100
N 	N 	0.42575 0.23242 0.00844 -0.15100
C 	C 	0.45602 0.20089 0.00213 0.00500
H 	H 	0.45107 0.28552 0.01127 0.08500
C 	C 	0.48091 0.25304 0.48443 0.26400
C 	C 	0.53096 0.23881 0.00433 0.25800
O 	O 	0.49445 0.28116 0.45094 -0.38400
O 	O 	0.51904 0.23657 0.50226 -0.37400
O 	O 	0.55996 0.20805 0.01128 -0.35800
O 	O 	0.56886 0.30369 0.00032 -0.37700
H 	H 	0.55445 0.22521 0.71739 0.06400
H 	H 	0.01927 0.15886 0.94883 0.08800
H 	H 	0.57450 0.23832 0.80441 0.04800
H 	H 	0.51897 0.25534 0.21372 0.06500
C 	C 	0.55027 0.23700 0.21660 -0.09000
H 	H 	0.55228 0.28820 0.29581 0.05300
O 	O 	0.57367 0.25105 0.14687 -0.19500
H 	H 	0.58010 0.22372 0.43421 0.16700
C 	C 	0.57483 0.22574 0.18252 0.11900
C 	C 	0.57361 0.25986 0.29160 -0.06500
H 	H 	0.60619 0.23794 0.93958 0.17200
Cu	Cu	0.58154 0.32469 0.42737 0.89300
C 	C 	0.57224 0.22962 0.25509 0.01200
C 	C 	0.61042 0.26172 0.72405 -0.08800
C 	C 	0.62184 0.28434 0.79911 -0.05800
Cu	Cu	0.61751 0.28891 0.50588 0.89800
O 	O 	0.60977 0.27313 0.44734 -0.63800
O 	O 	0.61813 0.27361 0.65162 -0.19000
O 	O 	0.62360 0.28716 0.56552 -0.36800
O 	O 	0.61975 0.33337 0.37556 -0.37400
C 	C 	0.62300 0.21250 0.18778 0.00800
C 	C 	0.62673 0.26965 0.31867 0.04500
C 	C 	0.62572 0.25189 0.13142 0.04600
C 	C 	0.64847 0.28557 0.69230 0.11400
C 	C 	0.64775 0.28893 0.76470 0.00600
C 	C 	0.62470 0.22230 0.26096 0.11300
O 	O 	0.65422 0.26600 0.95542 -0.64200
C 	C 	0.64512 0.30081 0.36255 0.25300
Cu	Cu	0.66254 0.25602 0.01393 0.92800
C 	C 	0.65454 0.28656 0.09704 0.25600
Cu	Cu	0.66121 0.38328 0.04550 0.89500
O 	O 	0.67412 0.26664 0.87809 -0.40900
C 	C 	0.65567 0.22941 0.15551 -0.05400
O 	O 	0.66655 0.34689 0.09621 -0.36300
O 	O 	0.66142 0.41486 0.47364 -0.38200
C 	C 	0.67777 0.33481 0.82966 0.04100
C 	C 	0.65296 0.21610 0.22732 -0.08500
C 	C 	0.68125 0.32294 0.87201 0.25600
C 	C 	0.67737 0.32329 0.63712 0.03900
O 	O 	0.66131 0.24611 0.30133 -0.18500
O 	O 	0.67982 0.26404 0.07244 -0.35300
C 	C 	0.68063 0.31498 0.59314 0.25600
H 	H 	0.00439 0.83503 0.94066 0.05600
H 	H 	0.68138 0.09373 0.45853 0.08400
O 	O 	0.69395 0.46880 0.02296 -0.38600
Cu	Cu	0.70135 0.36759 0.96221 0.89500
H 	H 	0.69083 0.54197 0.49579 0.08500
O 	O 	0.70448 0.37412 0.90312 -0.36900
O 	O 	0.69700 0.30802 0.38593 -0.33800
O 	O 	0.71183 0.21279 0.01262 -0.35700
O 	O 	0.70449 0.21229 0.48278 -0.43000
Cu	Cu	0.71882 0.26357 0.92714 0.87200
C 	C 	0.71629 0.34439 0.77389 0.11600
H 	H 	0.69925 0.21852 0.23211 0.06700
H 	H 	0.70657 0.58780 0.00001 0.04900
O 	O 	0.71497 0.36315 0.01951 -0.63300
H 	H 	0.70731 0.24378 0.15561 0.05900
H 	H 	0.71565 0.10409 0.98589 0.08100
C 	C 	0.71850 0.33796 0.70152 0.00700
H 	H 	0.71086 0.00442 0.45891 0.05300
Cu	Cu	0.71600 0.33070 0.44495 0.92700
O 	O 	0.71822 0.33912 0.50500 -0.64300
N 	N 	0.71659 0.11460 0.43847 -0.15200
C 	C 	0.72532 0.45617 0.46748 0.25400
Cu	Cu	0.73260 0.27926 0.53045 0.87100
C 	C 	0.73662 0.36409 0.66732 -0.05900
O 	O 	0.73928 0.37779 0.81482 -0.19600
O 	O 	0.73573 0.32314 0.58251 -0.40900
H 	H 	0.73716 0.67094 0.51108 0.05400
C 	C 	0.74017 0.22886 0.45289 0.26000
C 	C 	0.74667 0.50088 0.00353 0.26600
N 	N 	0.74309 0.56196 0.50221 -0.15200
H 	H 	0.74704 0.38704 0.52071 0.17200
O 	O 	0.75273 0.46664 0.97313 -0.37400
C 	C 	0.75296 0.37283 0.74223 -0.09000
C 	C 	0.75021 0.18005 0.43181 -0.00100
O 	O 	0.75257 0.43063 0.44770 -0.35400
H 	H 	0.75262 0.71004 0.97513 0.05200
C 	C 	0.75555 0.09398 0.42947 0.07600
C 	C 	0.75657 0.04566 0.44903 -0.08900
H 	H 	0.75695 0.02070 0.97171 0.05400
C 	C 	0.76165 0.61223 0.00708 -0.03600
H 	H 	0.76440 0.39220 0.03301 0.16700
C 	C 	0.76888 0.24128 0.99737 0.25900
O 	O 	0.76549 0.28822 0.44121 -0.36500
N 	N 	0.76895 0.13978 0.98733 -0.15200
C 	C 	0.76904 0.52946 0.48741 -0.00100
O 	O 	0.78407 0.28739 0.97432 -0.43700
H 	H 	0.78586 0.95042 0.46187 0.05600
C 	C 	0.78734 0.68187 0.51076 -0.08600
H 	H 	0.78921 0.39718 0.66198 0.05100
C 	C 	0.78975 0.57632 0.00935 -0.00100
C 	C 	0.79619 0.62972 0.51131 0.07600
C 	C 	0.79695 0.71019 0.97264 -0.07900
C 	C 	0.80055 0.06633 0.96318 -0.08700
N 	N 	0.99940 0.04796 0.47722 -0.12900
C 	C 	0.97334 0.02414 0.95117 0.09600
C 	C 	0.96290 0.92160 0.93601 0.09800
N 	N 	0.93495 0.95444 0.94624 -0.13200
C 	C 	0.93025 0.00188 0.46273 0.09600
C 	C 	0.93560 0.91168 0.47639 0.09700
N 	N 	0.89808 0.93358 0.46260 -0.13100
H 	H 	0.80508 0.42050 0.74892 0.06400
C 	C 	0.90383 0.75729 0.49693 0.07500
C 	C 	0.90885 0.70257 0.49157 -0.08200
C 	C 	0.85648 0.64041 0.50235 0.01100
C 	C 	0.84471 0.74734 0.50695 0.02000
N 	N 	0.93739 0.81142 0.47779 -0.16300
C 	C 	0.90138 0.83789 0.47640 0.05600
C 	C 	0.84174 0.79745 0.49286 -0.07200
C 	C 	0.83912 0.57630 0.48668 -0.04800
H 	H 	0.94952 0.70695 0.47751 0.05400
H 	H 	0.81095 0.81316 0.50300 0.05400
H 	H 	0.86664 0.56752 0.46625 0.05200
H 	H 	0.98838 0.83658 0.47323 0.08900
C 	C 	0.87821 0.10767 0.44507 0.07300
C 	C 	0.87676 0.15407 0.42386 -0.08300
C 	C 	0.81442 0.14648 0.41643 0.01000
C 	C 	0.81970 0.05530 0.45785 0.02000
N 	N 	0.92126 0.09067 0.44057 -0.16300
C 	C 	0.89021 0.02688 0.44957 0.05600
C 	C 	0.82715 0.00356 0.46102 -0.07600
C 	C 	0.81096 0.20141 0.41782 -0.04200
H 	H 	0.92271 0.19526 0.41414 0.05300
H 	H 	0.85589 0.25482 0.42206 0.04800
H 	H 	0.96215 0.11449 0.42443 0.08700
C 	C 	0.86787 0.67329 0.99279 0.07800
C 	C 	0.91328 0.71125 0.96655 -0.08600
C 	C 	0.89900 0.74793 0.94309 0.02300
C 	C 	0.84227 0.74808 0.94633 0.07300
C 	C 	0.81166 0.67414 0.99645 0.00500
N 	N 	0.85438 0.61384 0.00082 -0.14800
N 	N 	0.85547 0.80742 0.93831 -0.16300
C 	C 	0.92070 0.84589 0.93063 0.05600
C 	C 	0.94930 0.81040 0.93315 -0.07300
H 	H 	0.95757 0.71133 0.96403 0.05500
H 	H 	0.87836 0.59264 0.98974 0.08500
H 	H 	0.83043 0.82772 0.94889 0.08900
C 	C 	0.91792 0.12998 0.94945 0.07100
C 	C 	0.92703 0.19265 0.95844 -0.08000
C 	C 	0.86834 0.18911 0.96361 0.00400
C 	C 	0.80670 0.12762 0.96635 0.07100
C 	C 	0.85550 0.06799 0.95134 0.02100
N 	N 	0.97006 0.12450 0.95561 -0.16300
C 	C 	0.94141 0.05890 0.96056 0.05700
C 	C 	0.87058 0.02321 0.95961 -0.07500
C 	C 	0.80484 0.20925 0.99666 -0.01000
C 	C 	0.86884 0.24136 0.98423 -0.04600
H 	H 	0.97795 0.24166 0.96347 0.05200
H 	H 	0.83299 0.96791 0.95656 0.05600
H 	H 	0.90210 0.29473 0.98067 0.04300
