data_crystal

_cell_length_a 18.01063
_cell_length_b 17.02501
_cell_length_c 48.04673
_cell_angle_alpha 90.68576
_cell_angle_beta  91.00770
_cell_angle_gamma 110.83235

_symmetry_space_group_name_	'P 1'
_symmetry_space_group_name_H-M	'P 1'

loop_
_symmetry_equiv_pos_as_xyz
  x,y,z

loop_
_atom_site_label
_atom_site_type_symbol
_atom_site_fract_x
_atom_site_fract_y
_atom_site_fract_z
_atom_site_charge
O 	O 	0.09918 0.86878 0.75839 -0.70000
Ni	Ni	0.11137 0.97560 0.77944 1.09300
O 	O 	0.15690 0.76693 0.72149 -0.40500
Ni	Ni	0.20476 0.87070 0.74888 1.06500
O 	O 	0.20800 0.96414 0.72202 -0.43200
O 	O 	0.19102 0.96911 0.80922 -0.39600
O 	O 	0.03528 0.98074 0.74835 -0.72600
O 	O 	0.09464 0.07433 0.80019 -0.36700
H 	H 	0.06958 0.81834 0.76905 0.15200
H 	H 	0.05420 0.03498 0.73860 0.16200
C 	C 	0.22393 0.04220 0.73140 0.27300
C 	C 	0.09422 0.75390 0.70498 0.28900
C 	C 	0.26144 0.96934 0.80230 0.26500
C 	C 	0.02189 0.07241 0.80462 0.26700
O 	O 	0.20288 0.05730 0.75679 -0.36600
O 	O 	0.27674 0.95988 0.77598 -0.41400
Ni	Ni	0.34548 0.76046 0.40974 1.09900
O 	O 	0.32719 0.68718 0.37395 -0.69700
Ni	Ni	0.21708 0.68396 0.36275 1.09500
O 	O 	0.43808 0.73112 0.42613 -0.36600
O 	O 	0.42262 0.60597 0.40514 -0.40600
O 	O 	0.42837 0.86104 0.39087 -0.36800
Ni	Ni	0.31716 0.57047 0.38197 1.06500
O 	O 	0.33898 0.93927 0.41672 -0.41000
O 	O 	0.25129 0.57037 0.41624 -0.41800
O 	O 	0.19567 0.60039 0.33012 -0.39000
O 	O 	0.24187 0.76545 0.39601 -0.70900
O 	O 	0.35540 0.83619 0.44362 -0.37700
O 	O 	0.11323 0.70353 0.35364 -0.37200
O 	O 	0.17760 0.84541 0.35227 -0.42100
Ni	Ni	0.26045 0.88105 0.38508 1.06300
H 	H 	0.36626 0.71184 0.35932 0.15600
H 	H 	0.20114 0.74809 0.41051 0.15400
C 	C 	0.18195 0.57960 0.41375 0.26900
O 	O 	0.34740 0.88598 0.35779 -0.42100
C 	C 	0.43552 0.65337 0.42775 0.29100
C 	C 	0.20414 0.52764 0.33351 0.27900
C 	C 	0.41822 0.88948 0.36630 0.28000
C 	C 	0.11112 0.77993 0.35349 0.27600
C 	C 	0.33864 0.90518 0.44134 0.28200
O 	O 	0.15382 0.58976 0.38904 -0.36900
O 	O 	0.21844 0.50528 0.35858 -0.40900
Ni	Ni	0.34308 0.66575 0.13469 1.09800
O 	O 	0.25009 0.63855 0.10621 -0.69700
Ni	Ni	0.18301 0.69833 0.12335 1.09700
O 	O 	0.39525 0.59364 0.11383 -0.36100
O 	O 	0.28103 0.47986 0.10897 -0.40500
O 	O 	0.40359 0.75880 0.10832 -0.38300
Ni	Ni	0.18570 0.51918 0.10215 1.06600
O 	O 	0.40436 0.79570 0.18880 -0.42200
O 	O 	0.16415 0.51145 0.14364 -0.41900
O 	O 	0.09943 0.67321 0.09219 -0.38100
O 	O 	0.27029 0.71636 0.15319 -0.70200
O 	O 	0.43932 0.70233 0.16194 -0.37200
O 	O 	0.13806 0.78258 0.14085 -0.37700
O 	O 	0.26073 0.88422 0.14180 -0.42000
Ni	Ni	0.33071 0.83322 0.16459 1.06600
H 	H 	0.26814 0.66218 0.08774 0.14800
H 	H 	0.24807 0.68362 0.16991 0.15300
C 	C 	0.10789 0.53449 0.15373 0.29300
O 	O 	0.41534 0.87362 0.13503 -0.39900
C 	C 	0.35233 0.52424 0.10042 0.27600
C 	C 	0.07544 0.59904 0.07956 0.28400
C 	C 	0.40878 0.83738 0.11043 0.28200
C 	C 	0.18433 0.86072 0.14621 0.27200
C 	C 	0.45918 0.77041 0.17812 0.29200
O 	O 	0.10174 0.60653 0.14660 -0.36900
O 	O 	0.08020 0.53300 0.09254 -0.41300
O 	O 	0.03010 0.21822 0.24296 -0.38000
O 	O 	0.08751 0.08891 0.23538 -0.40500
O 	O 	0.99337 0.08591 0.20210 -0.35000
Ni	Ni	0.03024 0.04966 0.27193 1.06000
O 	O 	0.04666 0.16813 0.28562 -0.42300
C 	C 	0.05893 0.23094 0.26866 0.28700
C 	C 	0.05333 0.06399 0.21053 0.24800
C 	C 	0.02550 0.47823 0.19521 -0.01800
C 	C 	0.04039 0.47089 0.16691 -0.08800
C 	C 	0.99402 0.39911 0.15156 0.03400
C 	C 	0.93731 0.33251 0.16479 -0.01700
C 	C 	0.92688 0.33662 0.19358 -0.06300
C 	C 	0.96849 0.41133 0.20849 0.00400
H 	H 	0.06006 0.53410 0.20713 0.03000
H 	H 	0.00390 0.39369 0.12956 0.01200
H 	H 	0.90434 0.27589 0.15293 0.05000
H 	H 	0.95964 0.41600 0.23059 0.03200
C 	C 	0.07077 0.90649 0.15760 0.00100
C 	C 	0.15218 0.91957 0.15987 -0.08100
C 	C 	0.20216 0.98625 0.17667 -0.02200
C 	C 	0.17044 0.03621 0.19219 -0.01600
C 	C 	0.08848 0.02038 0.19101 -0.05100
C 	C 	0.03912 0.95683 0.17305 -0.05200
H 	H 	0.03177 0.85644 0.14430 0.03900
H 	H 	0.26520 0.99768 0.17844 0.01400
H 	H 	0.20937 0.08605 0.20558 0.03900
H 	H 	0.97581 0.94433 0.17184 0.05200
C 	C 	0.21568 0.40594 0.30738 -0.01600
C 	C 	0.17613 0.46266 0.31139 -0.07100
C 	C 	0.10401 0.44960 0.29699 -0.01100
C 	C 	0.06844 0.37647 0.28077 -0.01200
C 	C 	0.10495 0.31637 0.27876 -0.07300
C 	C 	0.18027 0.33317 0.29111 -0.00700
H 	H 	0.27213 0.41628 0.31794 0.01600
H 	H 	0.07319 0.49334 0.29970 0.04000
H 	H 	0.01009 0.36385 0.27143 0.01900
H 	H 	0.20946 0.28764 0.28933 0.02800
C 	C 	0.94477 0.80657 0.31219 -0.03800
C 	C 	0.93219 0.86948 0.32848 -0.06200
C 	C 	0.95785 0.87962 0.35647 -0.00000
C 	C 	0.01066 0.84190 0.36601 -0.02600
C 	C 	0.03551 0.79161 0.34782 -0.09500
C 	C 	0.99735 0.76836 0.32172 0.03100
H 	H 	0.94519 0.92502 0.36973 0.03500
H 	H 	0.03735 0.85749 0.38668 0.01200
H 	H 	0.01381 0.72690 0.30787 0.01600
C 	C 	0.38368 0.06477 0.50398 0.00600
C 	C 	0.44007 0.13143 0.51877 -0.05500
S 	S 	0.37602 0.05727 0.46945 0.02500
C 	C 	0.33494 0.95261 0.46658 -0.09300
H 	H 	0.47050 0.19082 0.50890 0.04400
C 	C 	0.08875 0.55523 0.48775 -0.00000
C 	C 	0.08628 0.53293 0.51577 -0.04400
C 	C 	0.02923 0.50927 0.46838 -0.00200
S 	S 	0.17133 0.60400 0.47053 -0.00400
C 	C 	0.13365 0.57424 0.43839 -0.08200
C 	C 	0.05448 0.52018 0.44042 -0.01600
H 	H 	0.13321 0.56781 0.53040 0.04000
H 	H 	0.02063 0.48162 0.42318 0.04000
C 	C 	0.50626 0.49892 0.53291 -0.00400
C 	C 	0.45142 0.49051 0.51110 -0.05600
C 	C 	0.46132 0.56089 0.49474 0.01700
C 	C 	0.47176 0.62921 0.45210 -0.07600
C 	C 	0.43349 0.55579 0.46679 -0.02500
H 	H 	0.40514 0.43054 0.50625 0.04400
H 	H 	0.38721 0.50116 0.45778 0.03400
C 	C 	0.35240 0.16383 0.67417 -0.00600
C 	C 	0.41888 0.21594 0.68971 -0.06600
C 	C 	0.41310 0.22380 0.71859 -0.01700
C 	C 	0.34563 0.17187 0.73216 -0.01300
C 	C 	0.28349 0.11164 0.71687 -0.06300
C 	C 	0.28530 0.11117 0.68770 -0.01600
H 	H 	0.35547 0.15880 0.65174 0.04700
H 	H 	0.46340 0.26490 0.73077 0.02500
H 	H 	0.34434 0.17426 0.75468 0.04600
H 	H 	0.23671 0.06696 0.67560 0.03900
H 	H 	0.08540 0.71298 0.65007 0.04400
C 	C 	0.99131 0.63304 0.00741 0.00600
S 	S 	0.98767 0.65166 0.04131 0.04800
C 	C 	0.03215 0.58686 0.05290 -0.09700
C 	C 	0.05226 0.54843 0.02979 -0.02400
H 	H 	0.08332 0.50453 0.03133 0.01500
C 	C 	0.53148 0.98989 0.99940 -0.02700
C 	C 	0.51302 0.91840 0.01569 -0.04200
C 	C 	0.50293 0.92770 0.04421 -0.00600
C 	C 	0.51862 0.00776 0.05627 0.02700
S 	S 	0.57454 0.00139 0.96875 0.03200
S 	S 	0.47367 0.99550 0.08680 0.00700
C 	C 	0.43429 0.89012 0.08585 -0.07800
C 	C 	0.45644 0.86147 0.06099 -0.01400
H 	H 	0.50336 0.85721 0.00636 0.03800
H 	H 	0.43825 0.79568 0.05494 0.03700
C 	C 	0.38116 0.43994 0.02749 -0.00100
C 	C 	0.38458 0.38576 0.00583 -0.05600
C 	C 	0.44227 0.51770 0.03238 0.01400
S 	S 	0.33312 0.41028 0.05695 -0.00800
C 	C 	0.38587 0.49429 0.07668 -0.07300
C 	C 	0.44449 0.54896 0.05994 -0.02700
H 	H 	0.33830 0.32468 0.00274 0.04500
H 	H 	0.40494 0.32228 0.95295 0.04800
H 	H 	0.00185 0.08195 0.86012 0.01200
C 	C 	0.46667 0.03036 0.83463 0.01200
C 	C 	0.47001 0.09982 0.85135 -0.08100
C 	C 	0.40178 0.12097 0.85390 -0.00300
C 	C 	0.33172 0.07467 0.83933 -0.02300
C 	C 	0.32920 0.00704 0.82184 -0.03500
C 	C 	0.39660 0.98417 0.81999 -0.05200
H 	H 	0.51823 0.01209 0.83293 0.03000
H 	H 	0.40339 0.17426 0.86678 0.04000
H 	H 	0.28046 0.09357 0.84077 0.05100
H 	H 	0.39525 0.93179 0.80670 0.02800
Ni	Ni	0.62569 0.29204 0.90662 1.09800
O 	O 	0.63739 0.34961 0.86858 -0.69800
Ni	Ni	0.74433 0.34579 0.85791 1.09500
O 	O 	0.53609 0.32864 0.92056 -0.37000
O 	O 	0.55044 0.44717 0.89659 -0.40500
O 	O 	0.53856 0.18564 0.89066 -0.36900
Ni	Ni	0.64987 0.46919 0.87210 1.06500
O 	O 	0.62595 0.11426 0.91904 -0.40500
O 	O 	0.72323 0.48417 0.90614 -0.42100
O 	O 	0.76016 0.41515 0.82262 -0.39000
O 	O 	0.72581 0.27968 0.89384 -0.71000
O 	O 	0.62098 0.22997 0.94285 -0.37900
O 	O 	0.84479 0.31898 0.84996 -0.36600
O 	O 	0.77733 0.17796 0.85331 -0.41100
Ni	Ni	0.70254 0.15976 0.88707 1.06400
H 	H 	0.59528 0.31933 0.85474 0.15400
H 	H 	0.76951 0.30264 0.90782 0.15600
C 	C 	0.79235 0.47447 0.90435 0.27100
O 	O 	0.61202 0.14574 0.85917 -0.41900
C 	C 	0.54001 0.40701 0.92025 0.28700
C 	C 	0.75557 0.49047 0.82335 0.27800
C 	C 	0.54358 0.14852 0.86703 0.28600
C 	C 	0.84490 0.24184 0.85167 0.26200
C 	C 	0.62703 0.15492 0.94285 0.28100
O 	O 	0.81447 0.45024 0.88066 -0.36600
O 	O 	0.74459 0.52309 0.84723 -0.40700
Ni	Ni	0.61814 0.34479 0.63950 1.09600
O 	O 	0.70031 0.36284 0.60907 -0.70500
Ni	Ni	0.76984 0.30562 0.62540 1.10000
O 	O 	0.55905 0.40758 0.61745 -0.36500
O 	O 	0.67251 0.52151 0.61211 -0.40900
O 	O 	0.55188 0.23581 0.61821 -0.36800
Ni	Ni	0.76535 0.47998 0.60318 1.06500
O 	O 	0.52026 0.18015 0.66757 -0.40900
O 	O 	0.80301 0.49892 0.64385 -0.41600
O 	O 	0.83893 0.31874 0.59140 -0.37000
O 	O 	0.69595 0.30088 0.65834 -0.69800
O 	O 	0.53375 0.31829 0.66956 -0.38700
O 	O 	0.82018 0.22084 0.63906 -0.36200
O 	O 	0.73904 0.16338 0.67488 -0.41400
Ni	Ni	0.63462 0.18453 0.66798 1.06700
H 	H 	0.67625 0.33570 0.59112 0.15200
H 	H 	0.72292 0.33591 0.67471 0.16000
C 	C 	0.85991 0.47409 0.65298 0.29100
O 	O 	0.62406 0.15115 0.62687 -0.42200
C 	C 	0.59850 0.47729 0.60457 0.27500
C 	C 	0.86652 0.39111 0.57855 0.28200
C 	C 	0.58101 0.17862 0.60974 0.26800
C 	C 	0.78385 0.15585 0.65463 0.29300
C 	C 	0.49773 0.24031 0.67737 0.28100
O 	O 	0.86232 0.40080 0.64499 -0.36500
O 	O 	0.86628 0.46109 0.59088 -0.40900
Ni	Ni	0.03934 0.88800 0.72368 1.09800
O 	O 	0.07538 0.81696 0.69646 -0.38100
O 	O 	0.94119 0.78524 0.73384 -0.36400
O 	O 	0.87431 0.90324 0.72227 -0.40900
O 	O 	0.97404 0.91108 0.69216 -0.36700
O 	O 	0.96049 0.00268 0.79984 -0.39400
Ni	Ni	0.92600 0.95280 0.75991 1.06500
O 	O 	0.91667 0.83880 0.77507 -0.41500
C 	C 	0.90992 0.77432 0.75873 0.28500
C 	C 	0.90983 0.92720 0.69827 0.27600
Ni	Ni	0.92851 0.11935 0.23103 1.10700
O 	O 	0.86834 0.14825 0.26344 -0.69800
Ni	Ni	0.84598 0.04212 0.28492 1.10100
O 	O 	0.90094 0.19123 0.20179 -0.37200
O 	O 	0.82495 0.25343 0.22416 -0.40100
Ni	Ni	0.76706 0.15328 0.25032 1.06800
O 	O 	0.76227 0.05658 0.22393 -0.41500
O 	O 	0.76379 0.05624 0.31132 -0.38900
O 	O 	0.92371 0.02784 0.25688 -0.69500
O 	O 	0.85318 0.94227 0.30708 -0.36700
O 	O 	0.98773 0.00888 0.31114 -0.39600
H 	H 	0.89962 0.19874 0.27462 0.16200
H 	H 	0.90294 0.97252 0.24710 0.14900
C 	C 	0.74050 0.97860 0.23306 0.25200
C 	C 	0.88612 0.25872 0.20858 0.29500
C 	C 	0.69532 0.05707 0.30158 0.28100
C 	C 	0.92388 0.94162 0.31438 0.25600
O 	O 	0.75589 0.96346 0.25928 -0.37200
O 	O 	0.68603 0.06865 0.27479 -0.40900
C 	C 	0.66765 0.92130 0.18825 -0.02000
C 	C 	0.68040 0.91074 0.21668 -0.05700
C 	C 	0.62708 0.84143 0.23036 -0.01900
C 	C 	0.55711 0.79013 0.21680 -0.00400
C 	C 	0.54047 0.80665 0.18938 -0.07000
C 	C 	0.59774 0.86947 0.17468 -0.01000
H 	H 	0.70970 0.97232 0.17708 0.04100
H 	H 	0.63711 0.83058 0.25203 0.04900
H 	H 	0.51378 0.74060 0.22813 0.03400
H 	H 	0.58593 0.88152 0.15327 0.04200
C 	C 	0.56263 0.97694 0.36318 -0.02000
C 	C 	0.48852 0.93556 0.34983 -0.06800
C 	C 	0.48190 0.93800 0.32075 -0.01500
C 	C 	0.54878 0.97970 0.30511 -0.02400
C 	C 	0.62337 0.01964 0.31838 -0.05800
C 	C 	0.62960 0.01885 0.34754 -0.00400
H 	H 	0.56839 0.97687 0.38566 0.05000
H 	H 	0.42526 0.90627 0.31017 0.03000
H 	H 	0.54285 0.97912 0.28263 0.04000
H 	H 	0.68632 0.05014 0.35812 0.04300
H 	H 	0.92210 0.79518 0.29091 0.02900
C 	C 	0.42765 0.03668 0.55733 0.01000
C 	C 	0.38106 0.96748 0.54111 -0.06400
C 	C 	0.35691 0.98266 0.51443 0.00600
C 	C 	0.46017 0.11680 0.54602 0.01600
S 	S 	0.48392 0.03252 0.58456 0.02500
C 	C 	0.54886 0.13149 0.58398 -0.07400
C 	C 	0.52795 0.17030 0.56102 -0.02000
C 	C 	0.32934 0.91953 0.49335 -0.01700
H 	H 	0.36752 0.90398 0.54836 0.04500
H 	H 	0.55763 0.23603 0.55632 0.02800
H 	H 	0.31694 0.85351 0.49717 0.04000
C 	C 	0.01991 0.46582 0.52443 -0.03100
C 	C 	0.96141 0.41870 0.50500 0.02700
C 	C 	0.96314 0.44174 0.47708 -0.04700
S 	S 	0.87968 0.36655 0.52216 -0.00100
C 	C 	0.91640 0.39714 0.55435 -0.08000
C 	C 	0.99443 0.45438 0.55235 0.02800
H 	H 	0.91627 0.40662 0.46246 0.04600
H 	H 	0.02733 0.49352 0.56964 0.02200
C 	C 	0.51961 0.63905 0.50194 -0.00400
C 	C 	0.57466 0.64725 0.52375 -0.05500
C 	C 	0.56546 0.57639 0.53983 0.01200
S 	S 	0.53670 0.69864 0.47394 0.03400
S 	S 	0.49074 0.43857 0.56061 0.01700
C 	C 	0.55926 0.50594 0.58197 -0.07800
C 	C 	0.59668 0.57999 0.56728 -0.03300
H 	H 	0.62135 0.70700 0.52851 0.04400
H 	H 	0.64423 0.63403 0.57600 0.03700
C 	C 	0.89731 0.10497 0.65608 -0.00600
C 	C 	0.81501 0.08721 0.65617 -0.07700
C 	C 	0.76404 0.00697 0.66367 0.01600
C 	C 	0.79531 0.95005 0.67506 -0.03100
C 	C 	0.87773 0.97250 0.67852 -0.08100
C 	C 	0.92858 0.04748 0.66715 -0.00600
H 	H 	0.93731 0.16574 0.64955 0.05100
H 	H 	0.70021 0.99132 0.66272 0.00900
H 	H 	0.75549 0.89078 0.68280 0.04100
H 	H 	0.99244 0.06432 0.66899 0.03700
C 	C 	0.98543 0.59688 0.65000 0.02000
C 	C 	0.93096 0.53622 0.66626 -0.07900
C 	C 	0.94241 0.53852 0.69524 0.02100
C 	C 	0.00427 0.60516 0.70801 -0.03800
C 	C 	0.05355 0.67074 0.69192 -0.05600
C 	C 	0.04670 0.66364 0.66277 -0.03300
H 	H 	0.97831 0.59426 0.62753 0.03200
H 	H 	0.90176 0.49074 0.70794 0.02600
H 	H 	0.01051 0.60862 0.73048 0.03100
C 	C 	0.93544 0.63861 0.98769 -0.05200
C 	C 	0.92681 0.59296 0.96262 0.01000
C 	C 	0.97224 0.54170 0.95795 0.02000
C 	C 	0.01887 0.52676 0.97936 -0.07500
C 	C 	0.02854 0.57365 0.00420 0.00200
S 	S 	0.92631 0.47139 0.93307 0.00500
C 	C 	0.84988 0.50318 0.92749 -0.07700
C 	C 	0.85817 0.57174 0.94510 -0.01700
H 	H 	0.89603 0.67215 0.99251 0.04500
H 	H 	0.04161 0.47596 0.97757 0.04100
H 	H 	0.81432 0.60162 0.94651 0.04000
C 	C 	0.53717 0.07953 0.03988 -0.07000
C 	C 	0.54627 0.06987 0.01121 0.03800
C 	C 	0.61115 0.10673 0.96866 -0.07600
C 	C 	0.58991 0.13607 0.99370 -0.02400
H 	H 	0.54651 0.14070 0.04916 0.05300
H 	H 	0.60546 0.20203 0.99908 0.04800
C 	C 	0.44788 0.41491 0.98750 0.01400
C 	C 	0.50867 0.49286 0.99226 0.00500
C 	C 	0.50541 0.54702 0.01397 -0.05800
S 	S 	0.55660 0.52220 0.96274 0.00000
C 	C 	0.50448 0.43757 0.94321 -0.07200
C 	C 	0.44611 0.38302 0.96007 -0.01800
H 	H 	0.55174 0.60805 0.01706 0.04500
H 	H 	0.48573 0.60957 0.06715 0.05000
C 	C 	0.94756 0.24626 0.81717 -0.03600
C 	C 	0.91608 0.22455 0.84370 -0.04700
C 	C 	0.94140 0.17041 0.85991 -0.04200
C 	C 	0.98849 0.12921 0.84825 0.04800
C 	C 	0.00952 0.14106 0.82023 -0.12200
C 	C 	0.99444 0.20469 0.80549 0.03700
H 	H 	0.93018 0.28975 0.80471 0.04700
H 	H 	0.91946 0.15517 0.88076 0.02500
H 	H 	0.01227 0.21605 0.78405 -0.00100
C 	C 	0.74584 0.59644 0.78985 -0.01700
C 	C 	0.78817 0.54774 0.80031 -0.06800
C 	C 	0.86732 0.56585 0.79261 -0.00900
C 	C 	0.90592 0.63687 0.77685 -0.01100
C 	C 	0.86520 0.68925 0.76825 -0.06900
C 	C 	0.78414 0.66674 0.77381 -0.00800
H 	H 	0.68451 0.58256 0.79543 0.01600
H 	H 	0.90059 0.52857 0.80050 0.04400
H 	H 	0.96883 0.65448 0.77313 0.02500
H 	H 	0.75200 0.70647 0.76708 0.02800
