data_crystal

_cell_length_a 18.57300
_cell_length_b 18.89317
_cell_length_c 23.33875
_cell_angle_alpha 95.47619
_cell_angle_beta  95.47657
_cell_angle_gamma 126.34679

_symmetry_space_group_name_	'P 1'
_symmetry_space_group_name_H-M	'P 1'

loop_
_symmetry_equiv_pos_as_xyz
  x,y,z

loop_
_atom_site_label
_atom_site_type_symbol
_atom_site_fract_x
_atom_site_fract_y
_atom_site_fract_z
_atom_site_charge
C 	C 	0.06982 0.11985 0.01125 0.00200
C 	C 	0.11825 0.08528 0.00326 0.04600
H 	H 	0.10397 0.19102 0.01475 0.12200
H 	H 	0.00110 0.08865 0.44496 0.11700
Cu	Cu	0.65574 0.25062 0.02543 0.93700
Cu	Cu	0.70098 0.21589 0.89772 0.93700
Cu	Cu	0.70438 0.37222 0.93371 0.91300
Cu	Cu	0.68320 0.43391 0.05351 0.93000
C 	C 	0.68083 0.33133 0.14353 0.30900
O 	O 	0.52656 0.20503 0.03005 -0.29700
C 	C 	0.65642 0.28258 0.80889 0.29200
O 	O 	0.73609 0.38648 0.01702 -0.63200
O 	O 	0.63214 0.24236 0.93910 -0.62200
O 	O 	0.70621 0.18171 0.02860 -0.30000
O 	O 	0.70513 0.40902 0.13184 -0.29700
C 	C 	0.49685 0.25073 0.01719 0.30200
O 	O 	0.55075 0.32755 0.00102 -0.33200
O 	O 	0.72053 0.52874 0.00657 -0.31800
O 	O 	0.69285 0.28052 0.10938 -0.31200
O 	O 	0.69024 0.35688 0.84676 -0.29900
O 	O 	0.63779 0.21032 0.82648 -0.33000
H 	H 	0.56712 0.20731 0.92064 0.21000
Cu	Cu	0.70013 0.29303 0.42478 0.93400
Cu	Cu	0.58379 0.27007 0.51676 0.93100
Cu	Cu	0.53935 0.31047 0.40089 0.91900
C 	C 	0.63172 0.29222 0.30863 0.29100
C 	C 	0.64451 0.27228 0.63266 0.28600
O 	O 	0.56513 0.23843 0.43320 -0.62800
O 	O 	0.71162 0.31638 0.51181 -0.61700
O 	O 	0.73140 0.20684 0.41329 -0.30700
O 	O 	0.56213 0.28920 0.32131 -0.30600
O 	O 	0.45754 0.21622 0.51810 -0.29000
C 	C 	0.40667 0.22156 0.47810 0.30100
O 	O 	0.65971 0.42745 0.45783 -0.32400
O 	O 	0.44363 0.28462 0.44639 -0.31600
O 	O 	0.66642 0.26168 0.34082 -0.31500
O 	O 	0.61140 0.30434 0.60140 -0.27900
O 	O 	0.65727 0.21700 0.60619 -0.32100
H 	H 	0.51882 0.17349 0.41777 0.20100
C 	C 	0.65038 0.28368 0.74710 0.03200
C 	C 	0.64687 0.28041 0.69487 0.03600
C 	C 	0.66538 0.31481 0.20163 0.04500
C 	C 	0.65091 0.30354 0.25055 0.02900
C 	C 	0.71274 0.06239 0.53263 0.74600
F 	F 	0.64702 0.07264 0.51374 -0.48000
C 	C 	0.16729 0.09982 0.50853 0.01900
C 	C 	0.11617 0.04610 0.45333 0.06600
C 	C 	0.16066 0.05157 0.40607 -0.12400
C 	C 	0.25605 0.10620 0.41646 0.07900
C 	C 	0.30724 0.16078 0.47135 -0.00200
C 	C 	0.26275 0.16019 0.51753 -0.05800
C 	C 	0.31653 0.22158 0.57674 0.77600
H 	H 	0.13232 0.09442 0.54440 0.10500
H 	H 	0.29105 0.10683 0.38167 0.08100
F 	F 	0.26071 0.22358 0.61108 -0.39200
F 	F 	0.38160 0.30826 0.56959 -0.39300
F 	F 	0.35882 0.19156 0.60621 -0.39800
F 	F 	0.16088 0.02648 0.30332 -0.38700
F 	F 	0.68603 0.56905 0.87746 -0.40000
C 	C 	0.73283 0.06238 0.90357 0.75300
F 	F 	0.65367 0.04520 0.91739 -0.45800
F 	F 	0.07095 0.22331 0.12088 -0.41100
C 	C 	0.27430 0.17685 0.06160 0.01600
C 	C 	0.21763 0.14551 0.00660 0.09800
C 	C 	0.25471 0.15516 0.95512 -0.12500
C 	C 	0.34491 0.18476 0.95950 0.08900
C 	C 	0.40029 0.21155 0.01441 -0.00800
C 	C 	0.36595 0.21071 0.06618 -0.05500
C 	C 	0.42622 0.24383 0.12615 0.77300
H 	H 	0.24535 0.17017 0.10073 0.14000
H 	H 	0.37241 0.18731 0.92016 0.08800
C 	C 	0.19666 0.12875 0.89530 0.79200
F 	F 	0.38174 0.24221 0.17094 -0.39700
F 	F 	0.50281 0.33108 0.13037 -0.44100
F 	F 	0.45244 0.19000 0.13413 -0.42200
F 	F 	0.14409 0.15825 0.89717 -0.41400
F 	F 	0.14024 0.03664 0.87821 -0.41900
F 	F 	0.25002 0.16604 0.85353 -0.39500
C 	C 	0.97655 0.06176 0.01320 0.04700
C 	C 	0.96610 0.01736 0.44185 -0.05900
O 	O 	0.79316 0.25139 0.96161 -0.36200
O 	O 	0.78179 0.50007 0.93541 -0.29400
C 	C 	0.78319 0.55695 0.97390 0.30000
C 	C 	0.77319 0.20156 0.00154 0.30100
H 	H 	0.80235 0.42119 0.03154 0.19400
Cu	Cu	0.74530 0.25297 0.55509 0.94200
O 	O 	0.77003 0.42712 0.42350 -0.31000
O 	O 	0.81778 0.25240 0.50431 -0.32900
C 	C 	0.73864 0.47060 0.44156 0.29300
C 	C 	0.77813 0.19719 0.45369 0.30300
H 	H 	0.75430 0.38118 0.52853 0.22500
C 	C 	0.78333 0.59181 0.38597 0.07100
C 	C 	0.78848 0.56676 0.44002 0.00400
C 	C 	0.83534 0.60721 0.55136 0.77500
H 	H 	0.75876 0.54358 0.34595 0.08800
F 	F 	0.87479 0.56409 0.54734 -0.42900
F 	F 	0.75252 0.55225 0.56863 -0.41100
C 	C 	0.78400 0.00409 0.47766 -0.04900
C 	C 	0.82276 0.04071 0.38270 -0.15100
C 	C 	0.80971 0.10693 0.39155 0.09800
C 	C 	0.78230 0.12091 0.44268 -0.01600
C 	C 	0.76011 0.06235 0.48316 -0.04400
H 	H 	0.82250 0.14861 0.35912 0.09800
C 	C 	0.84613 0.02267 0.32530 0.78400
F 	F 	0.77607 0.13133 0.57868 -0.45900
F 	F 	0.93948 0.07880 0.32929 -0.37600
F 	F 	0.80664 0.03813 0.27977 -0.38300
C 	C 	0.77395 0.63284 0.86985 0.77700
F 	F 	0.80703 0.59063 0.84491 -0.39500
C 	C 	0.86247 0.07292 0.96034 0.01800
C 	C 	0.92157 0.09492 0.01241 0.09000
C 	C 	0.92247 0.14217 0.06384 -0.11700
C 	C 	0.87121 0.17494 0.06002 0.08300
C 	C 	0.81357 0.15425 0.00740 -0.00400
C 	C 	0.80356 0.09647 0.95855 -0.06100
H 	H 	0.86121 0.03575 0.92136 0.11100
H 	H 	0.87773 0.21829 0.09746 0.09700
C 	C 	0.97984 0.16015 0.12212 0.79300
F 	F 	0.76740 0.12547 0.86789 -0.46500
F 	F 	0.96515 0.08221 0.13294 -0.37400
F 	F 	0.95843 0.19201 0.16817 -0.38300
C 	C 	0.84659 0.65332 0.97467 0.00700
C 	C 	0.82094 0.62935 0.49256 -0.06300
F 	F 	0.76106 0.63084 0.27840 -0.39800
F 	F 	0.77078 0.68238 0.83103 -0.38200
C 	C 	0.83462 0.69118 0.92861 -0.05500
H 	H 	0.91775 0.67939 0.06139 0.08900
C 	C 	0.80430 0.67642 0.38343 -0.10900
F 	F 	0.89240 0.68386 0.59406 -0.39100
C 	C 	0.90683 0.70896 0.02730 0.07100
C 	C 	0.79519 0.70099 0.32448 0.78800
C 	C 	0.83752 0.71193 0.49020 0.01900
F 	F 	0.73652 0.72348 0.32226 -0.38700
F 	F 	0.03440 0.99656 0.32955 -0.34800
C 	C 	0.10706 0.99502 0.34552 0.81300
F 	F 	0.66975 0.98244 0.55277 -0.37900
C 	C 	0.01633 0.98426 0.44580 0.09700
C 	C 	0.07324 0.99307 0.99622 0.00900
H 	H 	0.11031 0.96630 0.98899 0.12000
H 	H 	0.01153 0.86795 0.44862 0.10900
F 	F 	0.07498 0.90776 0.34564 -0.38400
F 	F 	0.09509 0.91197 0.09423 -0.40200
F 	F 	0.71022 0.98341 0.87264 -0.37300
C 	C 	0.00391 0.85784 0.09779 0.76800
C 	C 	0.81924 0.99593 0.42906 0.14400
H 	H 	0.77888 0.96802 0.51243 0.13700
C 	C 	0.98124 0.93548 0.99968 0.06900
C 	C 	0.93280 0.96965 0.00801 0.01600
H 	H 	0.86081 0.92452 0.00926 0.11100
C 	C 	0.87089 0.95887 0.43332 0.08800
C 	C 	0.97203 0.89290 0.44389 -0.00800
C 	C 	0.87700 0.83342 0.43594 0.07600
C 	C 	0.82600 0.86654 0.43157 -0.01700
H 	H 	0.75255 0.82117 0.42675 0.12000
C 	C 	0.83248 0.73733 0.43628 0.08200
H 	H 	0.85873 0.75864 0.53044 0.11200
F 	F 	0.87940 0.77309 0.31669 -0.35300
F 	F 	0.81440 0.93462 0.31191 -0.34800
C 	C 	0.88008 0.78409 0.93775 0.02000
C 	C 	0.93455 0.83850 0.99213 0.08900
C 	C 	0.94708 0.80065 0.03789 -0.10300
H 	H 	0.87274 0.81445 0.90279 0.12500
F 	F 	0.99197 0.80573 0.13923 -0.36600
F 	F 	0.97921 0.91080 0.11723 -0.35600
