data_crystal

_cell_length_a 20.15808
_cell_length_b 20.69065
_cell_length_c 45.29333
_cell_angle_alpha 95.46180
_cell_angle_beta  95.46181
_cell_angle_gamma 126.08537

_symmetry_space_group_name_	'P 1'
_symmetry_space_group_name_H-M	'P 1'

loop_
_symmetry_equiv_pos_as_xyz
  x,y,z

loop_
_atom_site_label
_atom_site_type_symbol
_atom_site_fract_x
_atom_site_fract_y
_atom_site_fract_z
_atom_site_charge
C 	C 	0.06484 0.02616 0.48969 0.04900
C 	C 	0.99774 0.04798 0.96930 -0.07200
C 	C 	0.04034 0.01387 0.97067 0.03500
H 	H 	0.03160 0.11223 0.96856 0.05200
C 	C 	0.94437 0.02393 0.49408 0.04900
C 	C 	0.02967 0.06759 0.49291 -0.08700
H 	H 	0.06828 0.13313 0.49454 0.05700
Cu	Cu	0.75214 0.34771 0.96782 0.92600
Cu	Cu	0.74674 0.28596 0.03229 0.87100
Cu	Cu	0.61932 0.30311 0.00640 0.89800
Cu	Cu	0.59475 0.34092 0.94576 0.89700
C 	C 	0.68983 0.32004 0.90446 0.30500
O 	O 	0.79893 0.46692 0.96766 -0.35600
C 	C 	0.67619 0.33237 0.07269 0.30700
O 	O 	0.62178 0.27998 0.96458 -0.63700
O 	O 	0.74216 0.35978 0.01069 -0.64200
O 	O 	0.80769 0.29274 0.97055 -0.36800
O 	O 	0.71852 0.20635 0.99887 -0.44100
O 	O 	0.65548 0.35596 0.91164 -0.38400
O 	O 	0.49903 0.24101 0.99974 -0.38100
C 	C 	0.45239 0.23993 0.97687 0.31400
C 	C 	0.75937 0.49564 0.97704 0.30100
O 	O 	0.68248 0.44509 0.98107 -0.39500
O 	O 	0.48522 0.29230 0.95844 -0.39400
O 	O 	0.74028 0.31922 0.92503 -0.35900
C 	C 	0.77125 0.22380 0.98065 0.30700
O 	O 	0.61572 0.30975 0.05005 -0.38300
O 	O 	0.74345 0.33933 0.06810 -0.42100
H 	H 	0.58662 0.22126 0.95560 0.16500
H 	H 	0.77638 0.41654 0.02197 0.17500
Cu	Cu	0.62288 0.21526 0.50615 0.92900
Cu	Cu	0.68753 0.22125 0.44226 0.87000
Cu	Cu	0.66230 0.34020 0.46652 0.89700
Cu	Cu	0.63135 0.36901 0.52763 0.89700
C 	C 	0.65152 0.27628 0.56932 0.30800
O 	O 	0.50271 0.17183 0.50693 -0.36100
C 	C 	0.63896 0.28778 0.40067 0.30500
O 	O 	0.69255 0.34171 0.50828 -0.63900
O 	O 	0.60829 0.22174 0.46306 -0.64200
O 	O 	0.67386 0.15717 0.50329 -0.37200
O 	O 	0.76586 0.24490 0.47617 -0.44400
O 	O 	0.61489 0.30972 0.56181 -0.38400
O 	O 	0.72290 0.45665 0.47167 -0.38700
C 	C 	0.71812 0.50291 0.49215 0.31900
C 	C 	0.47214 0.20785 0.49596 0.30400
O 	O 	0.52279 0.28380 0.49264 -0.39900
O 	O 	0.68594 0.47804 0.51646 -0.39400
O 	O 	0.65475 0.22889 0.54885 -0.36000
C 	C 	0.74453 0.19091 0.49348 0.31500
O 	O 	0.64336 0.33780 0.42272 -0.37900
O 	O 	0.63492 0.22400 0.40565 -0.42100
H 	H 	0.75342 0.37680 0.51632 0.16900
H 	H 	0.55011 0.18614 0.45162 0.17600
C 	C 	0.69312 0.27545 0.81506 -0.00600
C 	C 	0.76946 0.31056 0.80531 -0.02900
C 	C 	0.77156 0.30504 0.77444 -0.04200
C 	C 	0.69723 0.26448 0.75311 0.01000
C 	C 	0.62054 0.22680 0.76292 -0.04200
C 	C 	0.61853 0.23220 0.79379 -0.03000
C 	C 	0.70009 0.26647 0.72072 0.01000
C 	C 	0.74203 0.34117 0.71078 -0.04200
C 	C 	0.73748 0.34277 0.67989 -0.03000
C 	C 	0.69096 0.26980 0.65872 -0.00600
C 	C 	0.65147 0.19526 0.66859 -0.02900
C 	C 	0.65609 0.19355 0.69950 -0.04200
C 	C 	0.67752 0.27119 0.62704 0.04700
C 	C 	0.66678 0.27322 0.60059 -0.10100
C 	C 	0.69204 0.29025 0.84669 0.04600
C 	C 	0.69122 0.30268 0.87316 -0.10100
H 	H 	0.82735 0.34391 0.82163 0.04300
H 	H 	0.83101 0.33375 0.76711 0.04300
H 	H 	0.56281 0.19542 0.74665 0.04200
H 	H 	0.55925 0.20477 0.80115 0.03900
H 	H 	0.77608 0.39780 0.72695 0.04200
H 	H 	0.76822 0.40062 0.67242 0.03900
H 	H 	0.61552 0.13859 0.65235 0.04300
H 	H 	0.62402 0.13561 0.70693 0.04200
C 	C 	0.61849 0.31195 0.31260 -0.00900
C 	C 	0.60586 0.25109 0.29080 -0.03100
C 	C 	0.60556 0.25916 0.26052 -0.04300
C 	C 	0.61774 0.32820 0.25178 0.00900
C 	C 	0.62868 0.38839 0.27354 -0.04300
C 	C 	0.62908 0.38025 0.30389 -0.03100
C 	C 	0.62287 0.33899 0.22011 0.00900
C 	C 	0.55511 0.28104 0.19683 -0.04400
C 	C 	0.56390 0.28480 0.16666 -0.03100
C 	C 	0.64033 0.34657 0.15955 -0.00900
C 	C 	0.70676 0.40679 0.18271 -0.03100
C 	C 	0.69811 0.40304 0.21291 -0.04300
C 	C 	0.65332 0.34302 0.12888 0.04600
C 	C 	0.66352 0.33947 0.10313 -0.11000
C 	C 	0.62543 0.30626 0.34405 0.04500
C 	C 	0.63081 0.29886 0.37008 -0.10800
H 	H 	0.59775 0.19818 0.29739 0.03800
H 	H 	0.59745 0.21256 0.24393 0.04000
H 	H 	0.63779 0.44174 0.26701 0.04100
H 	H 	0.63883 0.42754 0.32062 0.04100
H 	H 	0.49652 0.23179 0.20214 0.04100
H 	H 	0.51215 0.23822 0.14886 0.04000
H 	H 	0.76596 0.45490 0.17739 0.03900
H 	H 	0.75075 0.44818 0.23070 0.04100
C 	C 	0.75980 0.58656 0.49020 -0.11300
C 	C 	0.90652 0.06486 0.49616 -0.01700
C 	C 	0.87146 0.09591 0.49725 -0.02800
C 	C 	0.82781 0.12968 0.49745 0.06300
C 	C 	0.78962 0.15758 0.49643 -0.12600
C 	C 	0.15283 0.07008 0.48995 -0.01800
C 	C 	0.22610 0.10318 0.49048 -0.02500
C 	C 	0.31154 0.13937 0.49162 0.06000
C 	C 	0.38464 0.16996 0.49320 -0.11300
C 	C 	0.79240 0.57905 0.97646 -0.11000
C 	C 	0.79731 0.17263 0.97535 -0.11800
C 	C 	0.81803 0.12839 0.97255 0.05900
C 	C 	0.84404 0.07776 0.97066 -0.02700
C 	C 	0.87083 0.03853 0.96985 -0.01400
C 	C 	0.12891 0.06398 0.97183 -0.01200
C 	C 	0.20316 0.10485 0.97298 -0.02800
C 	C 	0.28998 0.15184 0.97442 0.06400
C 	C 	0.36420 0.19189 0.97561 -0.11400
C 	C 	0.81580 0.64768 0.97564 0.05800
C 	C 	0.79626 0.65742 0.48913 0.06300
C 	C 	0.91188 1.00000 0.96949 0.04000
C 	C 	0.99741 0.93144 0.97178 -0.07100
C 	C 	0.91164 0.88244 0.97187 0.04200
C 	C 	0.86822 0.91660 0.97082 -0.07700
H 	H 	0.03095 0.90537 0.97280 0.05300
H 	H 	0.80187 0.87914 0.97118 0.05500
C 	C 	0.01485 0.94165 0.48752 -0.08700
C 	C 	0.93012 0.89842 0.48890 0.05200
C 	C 	0.89482 0.93941 0.49214 -0.08500
H 	H 	0.04221 0.90972 0.48526 0.05800
H 	H 	0.82897 0.90567 0.49317 0.05800
C 	C 	0.84075 0.74081 0.48850 -0.02500
C 	C 	0.88053 0.81251 0.48845 -0.01700
C 	C 	0.84276 0.72791 0.97442 -0.02400
C 	C 	0.86981 0.79742 0.97327 -0.01400
