data_crystal

_cell_length_a 20.25161
_cell_length_b 20.60848
_cell_length_c 22.16515
_cell_angle_alpha 95.48758
_cell_angle_beta  95.48785
_cell_angle_gamma 126.13246

_symmetry_space_group_name_	'P 1'
_symmetry_space_group_name_H-M	'P 1'

loop_
_symmetry_equiv_pos_as_xyz
  x,y,z

loop_
_atom_site_label
_atom_site_type_symbol
_atom_site_fract_x
_atom_site_fract_y
_atom_site_fract_z
_atom_site_charge
C 	C 	0.94232 0.04396 0.99325 0.03800
C 	C 	0.02854 0.08992 0.99511 -0.07300
C 	C 	0.06635 0.05064 0.99460 0.04100
H 	H 	0.06567 0.15540 0.99670 0.05500
C 	C 	0.05600 0.00357 0.46302 0.04200
C 	C 	0.01565 0.03982 0.45743 -0.07500
H 	H 	0.05204 0.10572 0.46185 0.05600
Cu	Cu	0.61391 0.22633 0.00029 0.92700
Cu	Cu	0.68113 0.24337 0.87024 0.86600
Cu	Cu	0.64596 0.35454 0.92404 0.89700
Cu	Cu	0.64613 0.39057 0.06215 0.89800
C 	C 	0.64271 0.27437 0.13330 0.31600
O 	O 	0.49548 0.18208 0.00538 -0.37000
C 	C 	0.63781 0.32066 0.79205 0.31100
O 	O 	0.68800 0.35548 0.00639 -0.63700
O 	O 	0.59801 0.23674 0.91340 -0.64000
O 	O 	0.66021 0.16451 0.98879 -0.37100
O 	O 	0.75585 0.25709 0.93784 -0.44400
O 	O 	0.67394 0.35115 0.13172 -0.38900
O 	O 	0.70243 0.47127 0.93470 -0.38500
C 	C 	0.72096 0.52083 0.98644 0.31400
C 	C 	0.47104 0.22864 0.00809 0.30800
O 	O 	0.52267 0.30610 0.00513 -0.39400
O 	O 	0.68315 0.49333 0.03328 -0.39000
O 	O 	0.64036 0.22797 0.08639 -0.36600
C 	C 	0.73115 0.19883 0.96970 0.31400
O 	O 	0.61595 0.34892 0.83565 -0.38000
O 	O 	0.63715 0.25682 0.79601 -0.41900
H 	H 	0.74913 0.38566 0.01577 0.16300
H 	H 	0.54000 0.19961 0.89010 0.17600
Cu	Cu	0.75341 0.32842 0.42845 0.92500
Cu	Cu	0.77662 0.29034 0.56509 0.87100
Cu	Cu	0.63854 0.29672 0.52203 0.89600
Cu	Cu	0.58192 0.30004 0.38790 0.89700
C 	C 	0.68188 0.29517 0.30011 0.31600
O 	O 	0.79640 0.44428 0.41881 -0.36600
C 	C 	0.72175 0.34671 0.65474 0.31700
O 	O 	0.62597 0.25858 0.43563 -0.63300
O 	O 	0.75872 0.35428 0.51776 -0.64200
O 	O 	0.81255 0.27678 0.43198 -0.36800
O 	O 	0.73983 0.20150 0.50155 -0.44300
O 	O 	0.60743 0.27066 0.30929 -0.38600
O 	O 	0.51949 0.23310 0.52021 -0.37700
C 	C 	0.46564 0.22365 0.47472 0.31000
C 	C 	0.75188 0.47092 0.42594 0.30200
O 	O 	0.67787 0.42297 0.43942 -0.38800
O 	O 	0.49046 0.27092 0.43309 -0.39100
O 	O 	0.73128 0.29195 0.34110 -0.36800
C 	C 	0.78406 0.21295 0.45878 0.30600
O 	O 	0.65403 0.31996 0.61413 -0.37800
O 	O 	0.78611 0.35491 0.63701 -0.43200
H 	H 	0.59454 0.19852 0.42455 0.16500
H 	H 	0.79391 0.41348 0.53558 0.17600
C 	C 	0.65566 0.35356 0.74125 -0.11600
C 	C 	0.72603 0.36572 0.71524 -0.12600
H 	H 	0.63541 0.39011 0.72983 0.08400
H 	H 	0.78198 0.38659 0.74721 0.05800
C 	C 	0.69945 0.30465 0.24344 -0.11300
C 	C 	0.63431 0.25021 0.18782 -0.11300
H 	H 	0.76418 0.33887 0.23830 0.08100
H 	H 	0.59266 0.18508 0.18826 0.08100
C 	C 	0.78846 0.55623 0.42809 -0.11200
C 	C 	0.81527 0.62690 0.43056 0.05700
C 	C 	0.88844 0.03088 0.44272 -0.01700
C 	C 	0.86121 0.06980 0.44199 -0.02700
C 	C 	0.83365 0.11937 0.44389 0.05700
C 	C 	0.81143 0.16259 0.44854 -0.11800
C 	C 	0.37943 0.17603 0.47898 -0.11100
C 	C 	0.30605 0.13718 0.47915 0.06200
C 	C 	0.21952 0.09208 0.47599 -0.02500
C 	C 	0.14516 0.05272 0.47102 -0.01400
C 	C 	0.76570 0.60604 0.98563 -0.11400
C 	C 	0.80259 0.67784 0.98578 0.06400
C 	C 	0.90180 0.08248 0.99140 -0.01300
C 	C 	0.86449 0.11127 0.98879 -0.03100
C 	C 	0.81834 0.14230 0.98421 0.06300
C 	C 	0.77825 0.16794 0.97865 -0.12400
C 	C 	0.38448 0.19224 0.00423 -0.11600
C 	C 	0.31220 0.16334 0.00156 0.06400
C 	C 	0.22748 0.12880 0.99891 -0.02900
C 	C 	0.15445 0.09606 0.99689 -0.01300
C 	C 	0.84644 0.70984 0.43439 -0.02600
C 	C 	0.84595 0.76199 0.98679 -0.02800
C 	C 	0.87698 0.78167 0.43865 -0.01500
C 	C 	0.92843 0.99128 0.44599 0.04100
C 	C 	0.01827 0.96622 0.99213 -0.07200
C 	C 	0.93269 0.92068 0.99031 0.03900
C 	C 	0.89461 0.95937 0.99099 -0.07500
H 	H 	0.04759 0.93594 0.99173 0.05600
H 	H 	0.82801 0.92376 0.98941 0.05600
C 	C 	0.88136 0.90546 0.43979 -0.07700
C 	C 	0.92258 0.86937 0.44523 0.03900
C 	C 	0.00959 0.91882 0.45713 -0.07300
H 	H 	0.81391 0.86748 0.43102 0.05500
H 	H 	0.04128 0.89106 0.46110 0.05600
C 	C 	0.88433 0.83422 0.98819 -0.01300
