data_crystal

_cell_length_a 30.10889
_cell_length_b 30.26136
_cell_length_c 39.20103
_cell_angle_alpha 95.54861
_cell_angle_beta  95.54763
_cell_angle_gamma 125.49620

_symmetry_space_group_name_	'P 1'
_symmetry_space_group_name_H-M	'P 1'

loop_
_symmetry_equiv_pos_as_xyz
  x,y,z

loop_
_atom_site_label
_atom_site_type_symbol
_atom_site_fract_x
_atom_site_fract_y
_atom_site_fract_z
_atom_site_charge
C 	C 	0.97172 0.04044 0.99077 0.11300
C 	C 	0.04677 0.03964 0.97958 0.11800
N 	N 	0.02538 0.06783 0.98658 -0.13900
C 	C 	0.95092 0.98680 0.46209 0.11900
N 	N 	0.00690 0.02322 0.46521 -0.14000
C 	C 	0.03972 0.00673 0.47185 0.11800
Cu	Cu	0.63796 0.26298 0.00036 0.92600
Cu	Cu	0.68471 0.26371 0.92770 0.87000
Cu	Cu	0.67490 0.35251 0.95615 0.89800
Cu	Cu	0.63685 0.36506 0.02213 0.89200
C 	C 	0.65171 0.30513 0.07239 0.28700
O 	O 	0.55665 0.23055 0.99716 -0.36400
C 	C 	0.65851 0.31482 0.88057 0.29000
O 	O 	0.68306 0.34909 0.00457 -0.64200
O 	O 	0.63461 0.27062 0.95074 -0.64000
O 	O 	0.67084 0.22173 0.99972 -0.37400
O 	O 	0.73433 0.27690 0.96784 -0.44100
O 	O 	0.62555 0.32612 0.06236 -0.38500
O 	O 	0.71736 0.43223 0.96502 -0.38400
C 	C 	0.71097 0.46143 0.98865 0.29200
C 	C 	0.53548 0.25335 0.98251 0.28300
O 	O 	0.56831 0.30552 0.97968 -0.39100
O 	O 	0.67017 0.43733 0.00647 -0.39800
O 	O 	0.65274 0.27020 0.05005 -0.36300
C 	C 	0.71757 0.24076 0.98859 0.28800
O 	O 	0.68061 0.35698 0.90672 -0.39200
O 	O 	0.65287 0.26937 0.88528 -0.42000
H 	H 	0.72201 0.37247 0.01731 0.16100
H 	H 	0.59669 0.24914 0.93659 0.17000
Cu	Cu	0.73591 0.32540 0.45826 0.92700
Cu	Cu	0.72458 0.27345 0.52953 0.87000
Cu	Cu	0.63922 0.28481 0.49678 0.89700
Cu	Cu	0.63421 0.32507 0.43085 0.89300
C 	C 	0.70607 0.32036 0.38530 0.28900
O 	O 	0.76798 0.40665 0.46269 -0.36400
C 	C 	0.66703 0.29575 0.57322 0.29000
O 	O 	0.64885 0.27890 0.44951 -0.64100
O 	O 	0.72170 0.32551 0.50648 -0.64100
O 	O 	0.77678 0.29194 0.46132 -0.37400
O 	O 	0.71504 0.22619 0.48949 -0.44200
O 	O 	0.68105 0.34280 0.39421 -0.38700
O 	O 	0.55942 0.24180 0.48394 -0.38600
C 	C 	0.53208 0.25128 0.46101 0.29200
C 	C 	0.74137 0.42564 0.47433 0.28300
O 	O 	0.68846 0.39087 0.47544 -0.39500
O 	O 	0.55775 0.28904 0.44134 -0.39600
O 	O 	0.73486 0.31372 0.40916 -0.36300
C 	C 	0.75447 0.24393 0.47104 0.28800
O 	O 	0.62815 0.27725 0.54530 -0.39100
O 	O 	0.71388 0.30250 0.57072 -0.42100
H 	H 	0.62684 0.24056 0.43622 0.16400
H 	H 	0.74176 0.36254 0.52136 0.17100
C 	C 	0.65416 0.30028 0.60813 -0.09500
C 	C 	0.60114 0.26044 0.61470 0.01800
C 	C 	0.59132 0.25972 0.64885 -0.07800
C 	C 	0.63404 0.29937 0.67665 0.04600
C 	C 	0.68631 0.34084 0.66989 -0.07800
C 	C 	0.69630 0.34129 0.63579 0.01900
C 	C 	0.62623 0.29279 0.71289 -0.05400
C 	C 	0.63776 0.33486 0.73672 -0.05400
C 	C 	0.63940 0.33158 0.77422 0.04600
C 	C 	0.68382 0.37643 0.79912 -0.07800
C 	C 	0.68881 0.37186 0.83421 0.01900
C 	C 	0.64932 0.32237 0.84470 -0.09500
C 	C 	0.60313 0.27866 0.82014 0.01900
C 	C 	0.59775 0.28350 0.78513 -0.07700
H 	H 	0.56823 0.22861 0.59358 0.03100
H 	H 	0.55092 0.22745 0.65382 0.04600
H 	H 	0.71978 0.37140 0.69120 0.04600
H 	H 	0.73720 0.37261 0.63099 0.02600
H 	H 	0.61219 0.25355 0.72030 0.04100
H 	H 	0.65170 0.37395 0.72904 0.04200
H 	H 	0.71547 0.41416 0.79111 0.04500
H 	H 	0.72440 0.40607 0.85299 0.03000
H 	H 	0.57174 0.24075 0.82810 0.02500
H 	H 	0.56172 0.24964 0.76645 0.04600
C 	C 	0.66757 0.31008 0.11006 -0.09000
C 	C 	0.69146 0.36042 0.13270 0.01800
C 	C 	0.70038 0.36384 0.16878 -0.07700
C 	C 	0.68587 0.31710 0.18267 0.04700
C 	C 	0.66371 0.26709 0.16005 -0.07600
C 	C 	0.65491 0.26369 0.12387 0.02200
C 	C 	0.68747 0.31925 0.22060 -0.05300
C 	C 	0.71152 0.30085 0.23914 -0.05400
C 	C 	0.71644 0.30739 0.27749 0.04600
C 	C 	0.69760 0.26158 0.29363 -0.07600
C 	C 	0.69657 0.26636 0.32939 0.01700
C 	C 	0.71448 0.31699 0.34915 -0.08900
C 	C 	0.73657 0.36356 0.33343 0.02100
C 	C 	0.73805 0.35893 0.29784 -0.07600
H 	H 	0.70198 0.39663 0.12233 0.01800
H 	H 	0.71743 0.40256 0.18601 0.04500
H 	H 	0.65146 0.23044 0.17045 0.04800
H 	H 	0.63630 0.22453 0.10669 0.03600
H 	H 	0.67202 0.33953 0.23394 0.04200
H 	H 	0.72632 0.27979 0.22599 0.04200
H 	H 	0.68200 0.22192 0.27829 0.04600
H 	H 	0.68012 0.23034 0.34143 0.02500
H 	H 	0.75168 0.40313 0.34867 0.03200
H 	H 	0.75477 0.39509 0.28591 0.04800
C 	C 	0.89642 0.75130 0.48237 0.03300
C 	C 	0.87930 0.69672 0.48914 -0.04800
C 	C 	0.82547 0.65310 0.48289 -0.05600
C 	C 	0.80888 0.59682 0.48436 0.04600
C 	C 	0.76554 0.56237 0.50148 -0.07700
C 	C 	0.74555 0.50721 0.49987 0.01600
C 	C 	0.76812 0.48568 0.48058 -0.09400
C 	C 	0.81279 0.52076 0.46440 0.01700
C 	C 	0.83278 0.57589 0.46607 -0.07600
H 	H 	0.84197 0.75538 0.51258 0.04300
H 	H 	0.91122 0.69095 0.49614 0.04000
H 	H 	0.79337 0.65878 0.47641 0.04300
H 	H 	0.74679 0.57808 0.51563 0.04600
H 	H 	0.71166 0.48093 0.51294 0.02900
H 	H 	0.83060 0.50485 0.44936 0.03600
H 	H 	0.86560 0.60179 0.45219 0.04700
C 	C 	0.77701 0.21226 0.46405 -0.10000
C 	C 	0.81235 0.22519 0.43975 0.02000
C 	C 	0.83595 0.19713 0.43470 -0.07800
C 	C 	0.82392 0.15540 0.45349 0.04600
C 	C 	0.78819 0.14208 0.47751 -0.07900
C 	C 	0.76462 0.17004 0.48259 0.01600
C 	C 	0.85313 0.12966 0.45045 -0.05600
C 	C 	0.82556 0.07463 0.44726 -0.04900
C 	C 	0.85576 0.04974 0.44930 0.03600
C 	C 	0.84206 0.01057 0.47067 -0.06700
C 	C 	0.87196 0.98862 0.47404 -0.00700
C 	C 	0.91567 0.00543 0.45586 -0.03200
C 	C 	0.92773 0.04278 0.43326 -0.01200
C 	C 	0.89765 0.06450 0.42977 -0.06100
H 	H 	0.82192 0.25720 0.42498 0.03700
H 	H 	0.86388 0.20809 0.41635 0.04700
H 	H 	0.77980 0.11104 0.49291 0.04500
H 	H 	0.73774 0.15970 0.50156 0.01800
H 	H 	0.89766 0.15607 0.45116 0.04200
H 	H 	0.78092 0.04829 0.44618 0.04000
H 	H 	0.80909 0.99809 0.48531 0.04500
H 	H 	0.86211 0.95970 0.49147 0.03500
H 	H 	0.90706 0.09292 0.41204 0.04300
C 	C 	0.10030 0.04613 0.47537 -0.02600
C 	C 	0.13560 0.04904 0.50312 -0.01400
C 	C 	0.19309 0.08327 0.50503 -0.05900
C 	C 	0.21570 0.11413 0.47893 0.03400
C 	C 	0.18058 0.11265 0.45176 -0.05900
C 	C 	0.12308 0.07881 0.45001 -0.01500
C 	C 	0.27616 0.14771 0.48013 -0.04800
C 	C 	0.29678 0.13872 0.45362 -0.05600
C 	C 	0.35729 0.16840 0.45597 0.04700
C 	C 	0.38166 0.19033 0.42746 -0.07700
C 	C 	0.43855 0.21700 0.42897 0.01800
C 	C 	0.47166 0.22172 0.45902 -0.09100
C 	C 	0.44696 0.19878 0.48733 0.01800
C 	C 	0.39004 0.17188 0.48570 -0.07600
H 	H 	0.19780 0.13726 0.43186 0.04400
H 	H 	0.09621 0.07702 0.42855 0.03700
H 	H 	0.30399 0.17689 0.50392 0.04100
H 	H 	0.26886 0.11008 0.42968 0.04300
H 	H 	0.35655 0.18688 0.40415 0.04600
H 	H 	0.45677 0.23369 0.40671 0.02800
H 	H 	0.47183 0.20200 0.51068 0.03600
H 	H 	0.37133 0.15337 0.50740 0.04700
C 	C 	0.82879 0.72039 0.97423 -0.04900
C 	C 	0.83819 0.69747 0.99900 -0.05400
C 	C 	0.80468 0.63680 0.99586 0.04900
C 	C 	0.78468 0.61296 0.02488 -0.08000
C 	C 	0.75445 0.55581 0.02259 0.01600
C 	C 	0.74430 0.52192 0.99126 -0.09000
C 	C 	0.76527 0.54594 0.96236 0.01900
C 	C 	0.79556 0.60312 0.96471 -0.07700
H 	H 	0.79432 0.69428 0.95234 0.04100
H 	H 	0.86888 0.72364 0.02264 0.04000
H 	H 	0.79237 0.63870 0.04921 0.04600
H 	H 	0.73919 0.53794 0.04522 0.02400
H 	H 	0.75778 0.52036 0.93802 0.03600
H 	H 	0.81228 0.62125 0.94244 0.04800
C 	C 	0.74801 0.21710 0.99625 -0.09700
C 	C 	0.72466 0.17074 0.01245 0.01500
C 	C 	0.75057 0.14482 0.01622 -0.07700
C 	C 	0.80036 0.16524 0.00427 0.04400
C 	C 	0.82455 0.21245 0.98894 -0.07500
C 	C 	0.79887 0.23855 0.98530 0.01300
C 	C 	0.82370 0.13366 0.00446 -0.06000
C 	C 	0.87853 0.15933 0.01422 -0.04600
C 	C 	0.90267 0.12901 0.00883 0.02600
C 	C 	0.94669 0.14933 0.99066 -0.05200
C 	C 	0.96908 0.12040 0.98467 -0.02500
C 	C 	0.94816 0.07113 0.99729 -0.01900
C 	C 	0.90483 0.05146 0.01621 -0.02200
C 	C 	0.88231 0.08035 0.02203 -0.05500
H 	H 	0.68578 0.15391 0.02137 0.03500
H 	H 	0.73143 0.10829 0.02792 0.04600
H 	H 	0.86237 0.22795 0.97889 0.04500
H 	H 	0.81789 0.27464 0.97319 0.02500
H 	H 	0.79577 0.08898 0.99621 0.04500
H 	H 	0.90634 0.20389 0.02307 0.03900
H 	H 	0.96298 0.18712 0.98066 0.03900
H 	H 	0.00227 0.13600 0.96991 0.04300
H 	H 	0.84922 0.06505 0.03687 0.04200
C 	C 	0.10549 0.06960 0.97589 -0.02600
C 	C 	0.13229 0.11953 0.96342 -0.01400
C 	C 	0.18813 0.14818 0.96046 -0.05900
C 	C 	0.21745 0.12685 0.96942 0.03400
C 	C 	0.19078 0.07706 0.98197 -0.05900
C 	C 	0.13511 0.04853 0.98510 -0.01400
C 	C 	0.27725 0.15900 0.96833 -0.04800
C 	C 	0.29814 0.13506 0.95284 -0.05600
C 	C 	0.35877 0.16404 0.95722 0.04700
C 	C 	0.38173 0.13731 0.96779 -0.07700
C 	C 	0.43932 0.16577 0.97488 0.01800
C 	C 	0.47462 0.22136 0.97127 -0.09300
C 	C 	0.45136 0.24704 0.95863 0.01600
C 	C 	0.39372 0.21841 0.95149 -0.07600
H 	H 	0.10991 0.13609 0.95595 0.03800
H 	H 	0.20857 0.18691 0.95116 0.04300
H 	H 	0.21349 0.06102 0.98992 0.04400
H 	H 	0.30452 0.20235 0.98080 0.04200
H 	H 	0.27053 0.09184 0.94007 0.04300
H 	H 	0.35498 0.09490 0.97147 0.04700
H 	H 	0.45642 0.14488 0.98379 0.03400
H 	H 	0.47783 0.28940 0.95487 0.03100
H 	H 	0.37629 0.23872 0.94195 0.04700
N 	N 	0.93968 0.98469 0.98849 -0.14000
C 	C 	0.96104 0.95636 0.98172 0.11600
N 	N 	0.01439 0.98392 0.97693 -0.13800
C 	C 	0.96058 0.91678 0.47148 0.11500
N 	N 	0.92776 0.93350 0.46527 -0.14100
C 	C 	0.93574 0.85854 0.47332 -0.02500
C 	C 	0.95765 0.83284 0.45826 -0.01500
C 	C 	0.93832 0.77968 0.46294 -0.05900
C 	C 	0.87365 0.77650 0.49697 -0.05800
C 	C 	0.89303 0.82980 0.49228 -0.01600
H 	H 	0.99021 0.85435 0.44327 0.03800
H 	H 	0.95619 0.76065 0.45164 0.04200
H 	H 	0.87606 0.84933 0.50425 0.03700
H 	H 	0.11846 0.02449 0.52305 0.03800
H 	H 	0.21997 0.08485 0.52637 0.04300
C 	C 	0.92699 0.89605 0.98052 -0.02500
C 	C 	0.95269 0.87083 0.98899 -0.01500
C 	C 	0.92082 0.81369 0.98701 -0.05900
C 	C 	0.86272 0.78111 0.97726 0.03400
C 	C 	0.83701 0.80613 0.96859 -0.05900
C 	C 	0.86891 0.86333 0.97031 -0.01500
H 	H 	0.94135 0.79468 0.99270 0.04300
H 	H 	0.79229 0.78126 0.96053 0.04300
H 	H 	0.84853 0.88202 0.96328 0.03900
H 	H 	0.88892 0.01411 0.02666 0.03900
H 	H 	0.11530 0.01054 0.99525 0.03800
H 	H 	0.96057 0.05518 0.41852 0.03500
H 	H 	0.99738 0.89547 0.99707 0.03700
N 	N 	0.01651 0.95359 0.47500 -0.13700
