data_crystal

_cell_length_a 20.24748
_cell_length_b 32.25048
_cell_length_c 43.84909
_cell_angle_alpha 90.00004
_cell_angle_beta  77.05618
_cell_angle_gamma 89.99959

_symmetry_space_group_name_	'P 1'
_symmetry_space_group_name_H-M	'P 1'

loop_
_symmetry_equiv_pos_as_xyz
  x,y,z

loop_
_atom_site_label
_atom_site_type_symbol
_atom_site_fract_x
_atom_site_fract_y
_atom_site_fract_z
_atom_site_charge
Cu	Cu	0.53092 0.43440 0.17238 0.92900
Cu	Cu	0.65408 0.48766 0.19145 0.86500
Cu	Cu	0.51810 0.52465 0.19211 0.89800
Cu	Cu	0.39021 0.48091 0.18761 0.89300
C 	C 	0.40584 0.38933 0.19078 0.29000
O 	O 	0.50499 0.44202 0.13078 -0.36400
C 	C 	0.63943 0.57524 0.18411 0.28300
O 	O 	0.46820 0.47441 0.20422 -0.64000
O 	O 	0.58506 0.48579 0.16674 -0.64200
O 	O 	0.60215 0.39719 0.18137 -0.37700
O 	O 	0.62830 0.44067 0.21775 -0.44100
O 	O 	0.37495 0.42073 0.18051 -0.38600
O 	O 	0.45383 0.56009 0.21916 -0.39100
C 	C 	0.38963 0.56365 0.21789 0.29300
C 	C 	0.48332 0.47787 0.12247 0.28300
O 	O 	0.45268 0.50414 0.14399 -0.39700
O 	O 	0.35407 0.53091 0.21288 -0.39400
O 	O 	0.47261 0.38800 0.18563 -0.36600
C 	C 	0.62817 0.40334 0.20583 0.29300
O 	O 	0.57561 0.57332 0.18183 -0.38200
O 	O 	0.67996 0.54292 0.17697 -0.41900
H 	H 	0.45949 0.46799 0.22686 0.16300
H 	H 	0.60161 0.49491 0.14479 0.17100
Cu	Cu	0.45594 0.46464 0.79318 0.92800
Cu	Cu	0.33715 0.51496 0.76900 0.86600
Cu	Cu	0.46879 0.55475 0.77229 0.89600
Cu	Cu	0.59623 0.51171 0.78141 0.89200
C 	C 	0.58198 0.42032 0.77693 0.28900
O 	O 	0.47428 0.47313 0.83624 -0.36600
C 	C 	0.34361 0.60263 0.77646 0.28300
O 	O 	0.52151 0.50477 0.76251 -0.63700
O 	O 	0.40081 0.51538 0.79637 -0.64300
O 	O 	0.38889 0.42701 0.78126 -0.38000
O 	O 	0.37044 0.46912 0.74255 -0.44100
O 	O 	0.61220 0.45143 0.78793 -0.38800
O 	O 	0.53640 0.59019 0.74719 -0.38700
C 	C 	0.59810 0.59463 0.75183 0.29000
C 	C 	0.49560 0.50888 0.84489 0.28300
O 	O 	0.52848 0.53484 0.82371 -0.39700
O 	O 	0.63372 0.56205 0.75702 -0.39400
O 	O 	0.51531 0.41826 0.78238 -0.36500
C 	C 	0.37222 0.43179 0.75427 0.29200
O 	O 	0.40819 0.60296 0.77792 -0.38400
O 	O 	0.30630 0.56901 0.78365 -0.41900
H 	H 	0.53324 0.49759 0.73999 0.16100
H 	H 	0.38088 0.52481 0.81796 0.17100
Cu	Cu	0.94640 0.93650 0.29513 0.92700
Cu	Cu	0.83398 0.98726 0.26684 0.86800
Cu	Cu	0.96891 0.02329 0.26729 0.89400
Cu	Cu	0.09009 0.97907 0.28361 0.89300
C 	C 	0.06796 0.88789 0.28457 0.28900
O 	O 	0.96105 0.94876 0.33840 -0.36600
C 	C 	0.84453 0.07490 0.27482 0.28900
O 	O 	0.01805 0.97163 0.26319 -0.63500
O 	O 	0.89717 0.98873 0.29406 -0.64700
O 	O 	0.87802 0.89969 0.28330 -0.38200
O 	O 	0.86544 0.93944 0.24223 -0.44000
O 	O 	0.09962 0.91934 0.29435 -0.38700
O 	O 	0.04249 0.05432 0.24155 -0.38200
C 	C 	0.10324 0.05796 0.24756 0.28700
C 	C 	0.98441 0.98483 0.34535 0.27900
O 	O 	0.02086 0.00789 0.32306 -0.39200
O 	O 	0.13429 0.02551 0.25643 -0.39200
O 	O 	0.00146 0.88793 0.28856 -0.36400
C 	C 	0.86483 0.90284 0.25544 0.29000
O 	O 	0.91110 0.07178 0.26444 -0.39200
O 	O 	0.80553 0.04176 0.28087 -0.42200
H 	H 	0.03162 0.96116 0.24145 0.16200
H 	H 	0.87826 0.00124 0.31480 0.17100
Cu	Cu	0.03749 0.96651 0.66641 0.92900
Cu	Cu	0.15323 0.01897 0.69140 0.86500
Cu	Cu	0.01795 0.05502 0.68995 0.89800
Cu	Cu	0.89487 0.01030 0.67965 0.89200
C 	C 	0.91487 0.91842 0.67873 0.29100
O 	O 	0.01754 0.97662 0.62384 -0.36200
C 	C 	0.13836 0.10677 0.68596 0.28300
O 	O 	0.96956 0.00353 0.69847 -0.64100
O 	O 	0.08874 0.01856 0.66447 -0.64300
O 	O 	0.10777 0.92968 0.67665 -0.37800
O 	O 	0.12541 0.97075 0.71617 -0.44000
O 	O 	0.88345 0.95046 0.66955 -0.38700
O 	O 	0.94899 0.08779 0.71695 -0.39100
C 	C 	0.88564 0.09073 0.71409 0.29200
C 	C 	0.99505 0.01265 0.61632 0.27600
O 	O 	0.96092 0.03710 0.63831 -0.39600
O 	O 	0.85327 0.05820 0.70614 -0.39400
O 	O 	0.98108 0.91879 0.67613 -0.37100
C 	C 	0.12673 0.93399 0.70317 0.29200
O 	O 	0.07414 0.10487 0.68413 -0.38100
O 	O 	0.17909 0.07460 0.67852 -0.42000
H 	H 	0.95826 0.99529 0.72079 0.16200
H 	H 	0.10747 0.02938 0.64315 0.17200
C 	C 	0.00400 0.02409 0.58307 -0.08500
C 	C 	0.05805 0.00737 0.56065 0.01800
C 	C 	0.06155 0.01343 0.52878 -0.07400
C 	C 	0.01092 0.03603 0.51897 0.04700
C 	C 	0.95945 0.05524 0.54136 -0.07800
C 	C 	0.95578 0.04910 0.57328 0.01300
C 	C 	0.01112 0.03821 0.48525 -0.04700
C 	C 	0.95479 0.02958 0.47499 -0.06100
C 	C 	0.95854 0.02022 0.44162 0.05300
C 	C 	0.99572 0.04572 0.41790 -0.09000
C 	C 	0.00288 0.03479 0.38646 0.02800
C 	C 	0.97218 0.99849 0.37840 -0.10100
C 	C 	0.93188 0.97435 0.40217 0.02100
C 	C 	0.92505 0.98525 0.43356 -0.08300
H 	H 	0.09661 0.98897 0.56789 0.02700
H 	H 	0.10244 0.99940 0.51169 0.04500
H 	H 	0.92160 0.07419 0.53405 0.04600
H 	H 	0.91435 0.06272 0.59031 0.02700
H 	H 	0.05946 0.04118 0.46856 0.04000
H 	H 	0.90733 0.02386 0.49179 0.04300
H 	H 	0.01956 0.07376 0.42381 0.05100
H 	H 	0.03296 0.05426 0.36846 0.02600
H 	H 	0.90661 0.94681 0.39641 0.03200
H 	H 	0.89499 0.96591 0.45168 0.04700
C 	C 	0.87867 0.87842 0.68458 -0.09100
C 	C 	0.80814 0.87758 0.69620 0.01700
C 	C 	0.77388 0.83969 0.70144 -0.07700
C 	C 	0.80994 0.80224 0.69544 0.04600
C 	C 	0.88018 0.80305 0.68360 -0.07700
C 	C 	0.91450 0.84087 0.67837 0.02000
C 	C 	0.77411 0.76204 0.70013 -0.05400
C 	C 	0.73117 0.75300 0.72740 -0.05400
C 	C 	0.69721 0.71224 0.73245 0.04500
C 	C 	0.73514 0.67541 0.72698 -0.07700
C 	C 	0.70286 0.63697 0.73291 0.01800
C 	C 	0.63240 0.63499 0.74461 -0.09200
C 	C 	0.59468 0.67188 0.75023 0.01700
C 	C 	0.62703 0.71027 0.74435 -0.07600
H 	H 	0.77987 0.90624 0.70121 0.02200
H 	H 	0.71934 0.83943 0.70991 0.04600
H 	H 	0.90828 0.77433 0.67855 0.04500
H 	H 	0.96881 0.84094 0.66915 0.03600
H 	H 	0.78608 0.73870 0.68183 0.04200
H 	H 	0.71901 0.77634 0.74569 0.04100
H 	H 	0.78964 0.67659 0.71848 0.04500
H 	H 	0.73263 0.60882 0.72840 0.03000
H 	H 	0.54043 0.67082 0.75959 0.03300
H 	H 	0.59750 0.73851 0.74902 0.04500
C 	C 	0.62143 0.38270 0.76555 -0.09100
C 	C 	0.60067 0.35678 0.74370 0.01700
C 	C 	0.63566 0.32001 0.73398 -0.07700
C 	C 	0.69123 0.30848 0.74624 0.04500
C 	C 	0.71309 0.33481 0.76755 -0.07600
C 	C 	0.67824 0.37169 0.77723 0.01800
C 	C 	0.72814 0.26966 0.73559 -0.05400
C 	C 	0.74083 0.24166 0.75627 -0.05400
C 	C 	0.77721 0.20265 0.74561 0.04600
C 	C 	0.83184 0.19040 0.75830 -0.07800
C 	C 	0.86653 0.15356 0.74846 0.02000
C 	C 	0.84638 0.12828 0.72603 -0.09200
C 	C 	0.79039 0.14000 0.71400 0.01700
C 	C 	0.75579 0.17690 0.72384 -0.07700
H 	H 	0.55740 0.36513 0.73425 0.02900
H 	H 	0.61913 0.30026 0.71713 0.04500
H 	H 	0.75709 0.32677 0.77655 0.04600
H 	H 	0.69485 0.39133 0.79410 0.03100
H 	H 	0.74186 0.26296 0.71067 0.04100
H 	H 	0.72721 0.24842 0.78118 0.04200
H 	H 	0.84792 0.20967 0.77554 0.04500
H 	H 	0.90903 0.14471 0.75828 0.03100
H 	H 	0.77426 0.12086 0.69671 0.02500
H 	H 	0.71236 0.18543 0.71458 0.04600
C 	C 	0.16721 0.14728 0.69146 -0.09400
C 	C 	0.12839 0.17537 0.71258 0.01600
C 	C 	0.15741 0.21208 0.72029 -0.07700
C 	C 	0.22514 0.22142 0.70659 0.04500
C 	C 	0.26353 0.19397 0.68475 -0.07800
C 	C 	0.23469 0.15706 0.67719 0.01800
C 	C 	0.25730 0.25784 0.71751 -0.05400
C 	C 	0.28938 0.28642 0.69726 -0.05500
C 	C 	0.31710 0.32409 0.70880 0.04600
C 	C 	0.36364 0.32085 0.72807 -0.07800
C 	C 	0.38348 0.35622 0.74206 0.02000
C 	C 	0.35704 0.39521 0.73687 -0.09900
C 	C 	0.31354 0.39868 0.71612 0.01800
C 	C 	0.29395 0.36324 0.70203 -0.08000
H 	H 	0.07633 0.16816 0.72378 0.03100
H 	H 	0.12754 0.23300 0.73728 0.04600
H 	H 	0.31614 0.20073 0.67426 0.04600
H 	H 	0.26499 0.13589 0.66057 0.02900
H 	H 	0.25094 0.26273 0.74254 0.04200
H 	H 	0.29080 0.28346 0.67243 0.04200
H 	H 	0.38325 0.29081 0.73273 0.04800
H 	H 	0.41867 0.35324 0.75726 0.03800
H 	H 	0.29331 0.42860 0.71164 0.01800
H 	H 	0.25883 0.36605 0.68678 0.04500
C 	C 	0.31039 0.64193 0.77101 -0.09400
C 	C 	0.34132 0.68025 0.77423 0.01900
C 	C 	0.31352 0.71702 0.76568 -0.07700
C 	C 	0.25432 0.71588 0.75403 0.04600
C 	C 	0.22255 0.67782 0.75157 -0.07800
C 	C 	0.25012 0.64108 0.76017 0.01600
C 	C 	0.22941 0.75368 0.74126 -0.05400
C 	C 	0.21637 0.78847 0.75844 -0.05400
C 	C 	0.19088 0.82610 0.74554 0.04600
C 	C 	0.13681 0.82357 0.73035 -0.07700
C 	C 	0.11527 0.85891 0.71689 0.02100
C 	C 	0.14669 0.89729 0.71898 -0.09900
C 	C 	0.19857 0.90018 0.73544 0.01900
C 	C 	0.22044 0.86473 0.74872 -0.07900
H 	H 	0.38749 0.68154 0.78278 0.03400
H 	H 	0.33903 0.74620 0.76727 0.04600
H 	H 	0.17709 0.67662 0.74244 0.04400
H 	H 	0.22579 0.61183 0.75743 0.01900
H 	H 	0.21883 0.75246 0.71804 0.04100
H 	H 	0.22761 0.78984 0.78153 0.04100
H 	H 	0.11165 0.79422 0.72888 0.04700
H 	H 	0.07409 0.85647 0.70490 0.03600
H 	H 	0.22294 0.92967 0.73737 0.01500
H 	H 	0.26128 0.86715 0.76091 0.04400
C 	C 	0.35380 0.60286 0.22821 -0.09200
C 	C 	0.37987 0.63073 0.24722 0.02100
C 	C 	0.34927 0.66938 0.25471 -0.07800
C 	C 	0.29197 0.68047 0.24361 0.04600
C 	C 	0.26553 0.65255 0.22480 -0.07700
C 	C 	0.29601 0.61385 0.21733 0.01800
C 	C 	0.26297 0.72253 0.24988 -0.05400
C 	C 	0.19581 0.72818 0.25972 -0.05400
C 	C 	0.16659 0.77030 0.26448 0.04600
C 	C 	0.11201 0.78090 0.25124 -0.07600
C 	C 	0.08140 0.81980 0.25699 0.01800
C 	C 	0.10437 0.84834 0.27650 -0.09100
C 	C 	0.15957 0.83789 0.28954 0.01800
C 	C 	0.19032 0.79897 0.28367 -0.07600
H 	H 	0.42417 0.62265 0.25596 0.03100
H 	H 	0.37035 0.69080 0.26903 0.04500
H 	H 	0.22239 0.66120 0.21536 0.04600
H 	H 	0.27587 0.59295 0.20233 0.02600
H 	H 	0.29704 0.74899 0.24732 0.04100
H 	H 	0.16177 0.70169 0.26249 0.04200
H 	H 	0.09317 0.75893 0.23652 0.04600
H 	H 	0.03940 0.82763 0.24649 0.03000
H 	H 	0.17751 0.85940 0.30485 0.03200
H 	H 	0.23159 0.79079 0.29455 0.04600
C 	C 	0.66799 0.61575 0.19003 -0.09400
C 	C 	0.62737 0.64447 0.20990 0.01500
C 	C 	0.65559 0.68109 0.21827 -0.07700
C 	C 	0.72439 0.68975 0.20651 0.04500
C 	C 	0.76473 0.66172 0.18587 -0.07800
C 	C 	0.73666 0.62485 0.17765 0.01700
C 	C 	0.75519 0.72607 0.21836 -0.05400
C 	C 	0.78920 0.75468 0.19869 -0.05500
C 	C 	0.81421 0.79279 0.21100 0.04500
C 	C 	0.85516 0.79030 0.23288 -0.07800
C 	C 	0.87315 0.82630 0.24678 0.01800
C 	C 	0.85069 0.86521 0.23881 -0.09800
C 	C 	0.81261 0.86779 0.21572 0.01700
C 	C 	0.79477 0.83171 0.20178 -0.07900
H 	H 	0.57440 0.63780 0.21968 0.03100
H 	H 	0.62419 0.70246 0.23432 0.04500
H 	H 	0.81812 0.66797 0.17686 0.04500
H 	H 	0.76844 0.60322 0.16201 0.02800
H 	H 	0.74562 0.73108 0.24349 0.04100
H 	H 	0.79389 0.75151 0.17361 0.04100
H 	H 	0.87210 0.76043 0.23948 0.04600
H 	H 	0.90400 0.82389 0.26394 0.03700
H 	H 	0.79537 0.89759 0.20914 0.02000
H 	H 	0.76403 0.83395 0.18455 0.04500
C 	C 	0.65727 0.36830 0.21986 -0.10100
C 	C 	0.71731 0.37351 0.23041 0.02000
C 	C 	0.74818 0.33939 0.24117 -0.08100
C 	C 	0.71866 0.29997 0.24203 0.04700
C 	C 	0.65775 0.29493 0.23216 -0.07800
C 	C 	0.62719 0.32894 0.22116 0.02300
C 	C 	0.75500 0.26343 0.25025 -0.05500
C 	C 	0.72355 0.23607 0.27177 -0.05400
C 	C 	0.75381 0.19502 0.27491 0.04600
C 	C 	0.71463 0.15920 0.27497 -0.07900
C 	C 	0.74373 0.12006 0.27570 0.01800
C 	C 	0.81243 0.11629 0.27666 -0.09500
C 	C 	0.85085 0.15226 0.27812 0.01900
C 	C 	0.82156 0.19144 0.27741 -0.07700
H 	H 	0.74110 0.40372 0.22942 0.01200
H 	H 	0.79546 0.34351 0.24847 0.04400
H 	H 	0.63505 0.26449 0.23226 0.04700
H 	H 	0.58057 0.32461 0.21331 0.03400
H 	H 	0.80711 0.25816 0.23784 0.04100
H 	H 	0.67170 0.24190 0.28437 0.04100
H 	H 	0.66200 0.16168 0.27360 0.04400
H 	H 	0.71323 0.09270 0.27477 0.02500
H 	H 	0.90339 0.14992 0.27964 0.03000
H 	H 	0.85161 0.21895 0.27859 0.04500
C 	C 	0.36670 0.35111 0.20110 -0.08900
C 	C 	0.39942 0.31239 0.19900 0.01900
C 	C 	0.36193 0.27625 0.20797 -0.07600
C 	C 	0.29127 0.27834 0.21887 0.04500
C 	C 	0.25885 0.31701 0.22180 -0.07700
C 	C 	0.29625 0.35320 0.21289 0.01700
C 	C 	0.25124 0.24033 0.22867 -0.05400
C 	C 	0.25836 0.20668 0.21009 -0.05300
C 	C 	0.21835 0.16868 0.21991 0.04500
C 	C 	0.14754 0.17068 0.23023 -0.07500
C 	C 	0.11003 0.13450 0.23900 0.01600
C 	C 	0.14283 0.09590 0.23728 -0.09000
C 	C 	0.21354 0.09388 0.22634 0.01800
C 	C 	0.25098 0.13009 0.21755 -0.07700
H 	H 	0.45374 0.31018 0.19024 0.03700
H 	H 	0.38785 0.24669 0.20660 0.04700
H 	H 	0.20455 0.31901 0.23078 0.04500
H 	H 	0.27045 0.38285 0.21524 0.02300
H 	H 	0.21339 0.24054 0.25061 0.04100
H 	H 	0.29614 0.20646 0.18814 0.04200
H 	H 	0.12156 0.20019 0.23131 0.04700
H 	H 	0.05556 0.13652 0.24739 0.03300
H 	H 	0.23948 0.06430 0.22446 0.03000
H 	H 	0.30544 0.12817 0.20909 0.04500
C 	C 	0.48934 0.48718 0.08901 -0.09400
C 	C 	0.54012 0.46798 0.06632 0.01900
C 	C 	0.54061 0.47224 0.03456 -0.07700
C 	C 	0.49101 0.49618 0.02510 0.04600
C 	C 	0.44190 0.51690 0.04767 -0.07700
C 	C 	0.44123 0.51255 0.07948 0.01900
C 	C 	0.48596 0.49525 0.99203 -0.05400
C 	C 	0.48055 0.53035 0.97628 -0.05400
C 	C 	0.47899 0.52881 0.94279 0.04600
C 	C 	0.43166 0.50363 0.93258 -0.07700
C 	C 	0.43529 0.49850 0.90060 0.01900
C 	C 	0.48619 0.51861 0.87851 -0.09400
C 	C 	0.53087 0.54584 0.88883 0.01800
C 	C 	0.52701 0.55103 0.92085 -0.07800
H 	H 	0.57834 0.44899 0.07329 0.02700
H 	H 	0.57877 0.45620 0.01732 0.04700
H 	H 	0.40283 0.53509 0.04065 0.04700
H 	H 	0.40181 0.52761 0.09671 0.02700
H 	H 	0.49061 0.46562 0.97988 0.04400
H 	H 	0.48201 0.56029 0.98750 0.04100
H 	H 	0.39300 0.48735 0.94940 0.04800
H 	H 	0.39926 0.47836 0.89303 0.02900
H 	H 	0.56993 0.56193 0.87209 0.02700
H 	H 	0.56293 0.57113 0.92856 0.04600
