data_crystal

_cell_length_a 20.49596
_cell_length_b 20.79107
_cell_length_c 21.13634
_cell_angle_alpha 89.92045
_cell_angle_beta  89.90448
_cell_angle_gamma 89.90448

_symmetry_space_group_name_	'P 1'
_symmetry_space_group_name_H-M	'P 1'

loop_
_symmetry_equiv_pos_as_xyz
  x,y,z

loop_
_atom_site_label
_atom_site_type_symbol
_atom_site_fract_x
_atom_site_fract_y
_atom_site_fract_z
_atom_site_charge
Co	Co	0.94903 0.03840 0.41975 1.19500
Co	Co	0.07106 0.95547 0.56817 1.18300
Co	Co	0.97435 0.05398 0.57289 1.18300
Co	Co	0.04449 0.93674 0.41696 1.19000
C 	C 	0.98345 0.12171 0.30286 0.27700
Co	Co	0.97975 0.97881 0.28197 1.16200
Co	Co	0.06183 0.03439 0.69967 1.17100
C 	C 	0.97291 0.84546 0.33544 0.29900
O 	O 	0.96347 0.04524 0.72254 -0.40800
O 	O 	0.04299 0.02162 0.60287 -0.75300
C 	C 	0.91625 0.01169 0.69628 0.31700
O 	O 	0.91255 0.07557 0.50094 -0.45500
O 	O 	0.08563 0.89618 0.49414 -0.45600
C 	C 	0.03681 0.88878 0.68986 0.29100
O 	O 	0.03004 0.01588 0.48857 -0.55500
C 	C 	0.01514 0.16360 0.65906 0.31300
C 	C 	0.84543 0.99537 0.33362 0.29500
C 	C 	0.12470 0.94512 0.29584 0.29600
O 	O 	0.91459 0.00281 0.63430 -0.39400
O 	O 	0.88570 0.01528 0.28956 -0.39200
O 	O 	0.86636 0.98865 0.39207 -0.39300
O 	O 	0.06220 0.93645 0.72322 -0.41000
O 	O 	0.02089 0.89593 0.62963 -0.40200
O 	O 	0.06602 0.13192 0.68077 -0.37700
O 	O 	0.98770 0.14745 0.60489 -0.38100
O 	O 	0.07003 0.93665 0.26407 -0.39300
O 	O 	0.12531 0.94673 0.35841 -0.37400
O 	O 	0.99897 0.99111 0.37866 -0.77900
C 	C 	0.18715 0.98033 0.65120 0.26900
O 	O 	0.16130 0.02926 0.68160 -0.35400
O 	O 	0.16812 0.96559 0.59368 -0.37100
O 	O 	0.01487 0.07227 0.27720 -0.35800
O 	O 	0.95610 0.11846 0.36023 -0.36900
O 	O 	0.94417 0.88597 0.29624 -0.37800
O 	O 	0.98389 0.86185 0.39441 -0.39800
Co	Co	0.93548 0.44017 0.04441 1.19900
Co	Co	0.06891 0.58407 0.96264 1.17600
Co	Co	0.96888 0.59267 0.05981 1.18800
Co	Co	0.03873 0.42878 0.95192 1.18600
C 	C 	0.82219 0.36359 0.98459 0.27000
Co	Co	0.95335 0.29990 0.98334 1.15800
Co	Co	0.04156 0.72626 0.02417 1.17700
C 	C 	0.09902 0.30702 0.00441 0.28900
O 	O 	0.01602 0.72421 0.11950 -0.38600
O 	O 	0.01973 0.62868 0.00835 -0.74500
C 	C 	0.02507 0.67501 0.15776 0.30200
O 	O 	0.91799 0.51872 0.09735 -0.45400
O 	O 	0.09971 0.50029 0.92399 -0.45900
C 	C 	0.17472 0.66578 0.02159 0.29100
O 	O 	0.98521 0.51703 0.98576 -0.59300
C 	C 	0.89755 0.71981 0.04080 0.29600
C 	C 	0.94489 0.32229 0.12174 0.30000
C 	C 	0.99336 0.33700 0.85065 0.29800
O 	O 	0.02639 0.61622 0.13548 -0.39500
O 	O 	0.91371 0.29643 0.07406 -0.39300
O 	O 	0.96999 0.38024 0.11569 -0.39100
O 	O 	0.13651 0.70724 0.05050 -0.37400
O 	O 	0.15443 0.60636 0.01078 -0.37400
O 	O 	0.94425 0.74377 0.00472 -0.37100
O 	O 	0.89227 0.65705 0.04970 -0.37000
O 	O 	0.99532 0.29190 0.89421 -0.40800
O 	O 	0.01247 0.39608 0.86320 -0.37400
O 	O 	0.97247 0.39870 0.98788 -0.78600
C 	C 	0.04845 0.70377 0.88225 0.29000
O 	O 	0.06991 0.73892 0.92981 -0.39800
O 	O 	0.05711 0.64064 0.88202 -0.38000
O 	O 	0.86447 0.33158 0.94889 -0.38500
O 	O 	0.84063 0.41202 0.02180 -0.34800
O 	O 	0.04414 0.27851 0.02155 -0.37200
O 	O 	0.10285 0.37054 0.00121 -0.37400
Co	Co	0.57512 0.06533 0.05687 1.19100
Co	Co	0.44671 0.94171 0.94887 1.18000
Co	Co	0.41822 0.03837 0.03967 1.19900
Co	Co	0.60314 0.96821 0.96775 1.17100
C 	C 	0.67485 0.02640 0.15153 0.29300
Co	Co	0.72611 0.05016 0.01890 1.17500
Co	Co	0.29483 0.98067 0.96406 1.15800
C 	C 	0.72322 0.99811 0.88677 0.27500
O 	O 	0.28328 0.07910 0.95711 -0.38800
O 	O 	0.39470 0.99673 0.97593 -0.79100
C 	C 	0.29948 0.11916 0.00257 0.31300
O 	O 	0.48625 0.07924 0.09615 -0.45500
O 	O 	0.53664 0.90418 0.93592 -0.46800
C 	C 	0.34901 0.93873 0.84049 0.29800
O 	O 	0.50957 0.02511 0.98039 -0.56800
C 	C 	0.31126 0.96531 0.10504 0.29700
C 	C 	0.65874 0.17976 0.01770 0.32500
C 	C 	0.70813 0.90827 0.04460 0.30600
O 	O 	0.35872 0.11855 0.02735 -0.36800
O 	O 	0.71464 0.14866 0.01312 -0.37600
O 	O 	0.61180 0.15895 0.05582 -0.37800
O 	O 	0.31178 0.98127 0.86858 -0.39100
O 	O 	0.41077 0.93161 0.85731 -0.37900
O 	O 	0.27326 0.98732 0.05993 -0.39400
O 	O 	0.37519 0.97421 0.10260 -0.39600
O 	O 	0.74717 0.95265 0.02162 -0.39900
O 	O 	0.64449 0.91265 0.03779 -0.39300
O 	O 	0.62600 0.03637 0.00306 -0.75700
C 	C 	0.34947 0.84602 0.99398 0.22800
O 	O 	0.30298 0.87971 0.96568 -0.38100
O 	O 	0.40693 0.87141 0.00613 -0.35900
O 	O 	0.71829 0.05734 0.11700 -0.39100
O 	O 	0.61682 0.01247 0.12877 -0.39300
O 	O 	0.73859 0.04830 0.92163 -0.37200
O 	O 	0.66352 0.97357 0.88844 -0.38100
C 	C 	0.84054 0.76011 0.05482 -0.05900
C 	C 	0.78150 0.74817 0.02358 0.02200
C 	C 	0.72977 0.79185 0.02890 0.03300
C 	C 	0.73744 0.84777 0.06581 -0.07200
C 	C 	0.79080 0.85186 0.10690 -0.00100
C 	C 	0.84431 0.81100 0.09878 0.00600
H 	H 	0.77710 0.70683 0.99261 0.03500
H 	H 	0.79483 0.89279 0.13845 0.03600
C 	C 	0.90439 0.82558 0.13124 0.07300
C 	C 	0.67078 0.78111 0.99322 0.05300
N 	N 	0.95220 0.83839 0.15735 -0.11800
N 	N 	0.62353 0.77243 0.96459 -0.10200
C 	C 	0.75240 0.34468 0.98291 -0.07300
C 	C 	0.72888 0.31125 0.92997 -0.01400
C 	C 	0.68109 0.26374 0.93802 0.01700
C 	C 	0.65992 0.24797 0.99957 -0.11000
C 	C 	0.66896 0.29362 0.04755 0.02700
C 	C 	0.71520 0.34265 0.03928 0.01700
H 	H 	0.75203 0.31766 0.88420 0.05100
H 	H 	0.64637 0.28644 0.09347 0.05400
C 	C 	0.72318 0.39077 0.08777 0.10300
C 	C 	0.66130 0.22516 0.88468 0.07200
N 	N 	0.72947 0.42939 0.12666 -0.09700
N 	N 	0.64548 0.19416 0.84196 -0.10500
C 	C 	0.24543 0.67986 0.02072 -0.03200
C 	C 	0.27642 0.68806 0.96202 -0.03000
C 	C 	0.32459 0.73563 0.95513 -0.02500
C 	C 	0.33830 0.77692 0.00614 0.00800
C 	C 	0.32054 0.75715 0.06714 -0.02400
C 	C 	0.27475 0.70752 0.07474 0.01500
H 	H 	0.25882 0.66234 0.92086 0.04800
H 	H 	0.33643 0.78469 0.10785 0.05600
C 	C 	0.25365 0.68946 0.13746 0.09300
C 	C 	0.35860 0.74282 0.89571 0.09300
N 	N 	0.23675 0.67501 0.18777 -0.10700
N 	N 	0.38593 0.74863 0.84810 -0.10900
C 	C 	0.16002 0.27012 0.01109 -0.03500
C 	C 	0.16779 0.22895 0.06325 -0.00800
C 	C 	0.21716 0.18246 0.06345 0.00200
C 	C 	0.25925 0.17693 0.01103 -0.04200
C 	C 	0.25582 0.22234 0.96203 -0.02400
C 	C 	0.20668 0.26921 0.96200 -0.01900
H 	H 	0.13366 0.23131 0.10242 0.05100
H 	H 	0.28974 0.21947 0.92265 0.05300
C 	C 	0.20368 0.31516 0.91084 0.07900
C 	C 	0.22280 0.13916 0.11660 0.08700
N 	N 	0.20148 0.35210 0.86992 -0.10700
N 	N 	0.22715 0.10458 0.15931 -0.10300
C 	C 	0.76631 0.98217 0.83285 -0.07000
C 	C 	0.74901 0.00190 0.77152 0.00600
C 	C 	0.79628 0.00433 0.72322 0.02800
C 	C 	0.86201 0.98897 0.73706 -0.09700
C 	C 	0.87740 0.96348 0.79673 -0.00300
C 	C 	0.82965 0.95823 0.84382 -0.00400
H 	H 	0.69966 0.01822 0.76214 0.05600
H 	H 	0.92754 0.95084 0.80759 0.03100
C 	C 	0.84631 0.92835 0.90338 0.06700
C 	C 	0.77710 0.02396 0.66039 0.09200
N 	N 	0.86022 0.90413 0.95082 -0.11700
N 	N 	0.76166 0.03969 0.61003 -0.09900
C 	C 	0.32826 0.91715 0.77779 -0.06700
C 	C 	0.34978 0.95263 0.72514 0.00500
C 	C 	0.30545 0.96874 0.67713 -0.01600
C 	C 	0.24125 0.94498 0.68014 -0.05100
C 	C 	0.22619 0.89687 0.72380 -0.01900
C 	C 	0.26923 0.88265 0.77284 0.01000
H 	H 	0.39747 0.97516 0.72610 0.04600
H 	H 	0.17739 0.87752 0.72520 0.04500
C 	C 	0.24663 0.84220 0.82389 0.07200
C 	C 	0.32484 0.01243 0.62743 0.12100
N 	N 	0.22700 0.80999 0.86430 -0.11000
N 	N 	0.34037 0.04747 0.58759 -0.10200
C 	C 	0.28006 0.94205 0.16395 -0.06000
C 	C 	0.28855 0.97730 0.22013 -0.01500
C 	C 	0.24035 0.97573 0.26766 -0.00600
C 	C 	0.18675 0.93361 0.26154 -0.05500
C 	C 	0.18701 0.88853 0.21236 -0.00800
C 	C 	0.22875 0.89660 0.16069 0.00500
H 	H 	0.32856 0.01119 0.22375 0.06400
H 	H 	0.14852 0.85279 0.20997 0.05200
C 	C 	0.21079 0.86739 0.10126 0.07600
C 	C 	0.24449 0.01977 0.32023 0.11600
N 	N 	0.19516 0.84454 0.05377 -0.11100
N 	N 	0.24781 0.05513 0.36234 -0.10100
C 	C 	0.68925 0.01427 0.21873 -0.04400
C 	C 	0.70536 0.95172 0.23813 -0.03100
C 	C 	0.74739 0.94258 0.28976 0.01300
C 	C 	0.77524 0.99632 0.31977 -0.08200
C 	C 	0.74577 0.05656 0.31072 0.01500
C 	C 	0.70382 0.06619 0.25919 -0.00200
H 	H 	0.68972 0.91082 0.21021 0.05000
H 	H 	0.76261 0.09758 0.33781 0.04400
C 	C 	0.68003 0.13009 0.24531 0.09000
C 	C 	0.76449 0.87835 0.30947 0.08200
N 	N 	0.66099 0.18128 0.23411 -0.10200
N 	N 	0.77786 0.82678 0.32549 -0.10600
C 	C 	0.99847 0.22575 0.68787 -0.08200
C 	C 	0.04757 0.27181 0.69631 0.00700
C 	C 	0.04107 0.31860 0.74348 0.01100
C 	C 	0.98664 0.31693 0.78435 -0.07000
C 	C 	0.93275 0.27916 0.76776 -0.01100
C 	C 	0.93827 0.23378 0.71919 0.00800
H 	H 	0.09214 0.26897 0.66868 0.05300
H 	H 	0.88866 0.28114 0.79620 0.04300
C 	C 	0.88300 0.19395 0.70370 0.08100
C 	C 	0.08998 0.36806 0.74943 0.09400
N 	N 	0.83849 0.16227 0.69130 -0.10600
N 	N 	0.12906 0.40791 0.75385 -0.09900
C 	C 	0.02710 0.82583 0.72132 -0.06000
C 	C 	0.97442 0.81818 0.76297 -0.01200
C 	C 	0.97799 0.77350 0.81277 -0.00300
C 	C 	0.03523 0.73664 0.82127 -0.05500
C 	C 	0.08337 0.73744 0.77387 -0.00600
C 	C 	0.07796 0.78012 0.72247 0.00300
H 	H 	0.93119 0.84752 0.75718 0.04200
H 	H 	0.12559 0.70615 0.77774 0.05200
C 	C 	0.12283 0.77496 0.67002 0.07700
C 	C 	0.92141 0.76302 0.85213 0.07700
N 	N 	0.15879 0.77086 0.62794 -0.10400
N 	N 	0.87558 0.75466 0.88308 -0.10800
C 	C 	0.01255 0.68509 0.22509 -0.05200
C 	C 	0.06318 0.70971 0.26220 -0.01300
C 	C 	0.04954 0.75650 0.30794 0.01900
C 	C 	0.98499 0.77891 0.31532 -0.07700
C 	C 	0.93389 0.74333 0.28896 0.00600
C 	C 	0.94767 0.69482 0.24511 -0.00300
H 	H 	0.11338 0.69789 0.25081 0.05600
H 	H 	0.88379 0.75664 0.29867 0.05700
C 	C 	0.89471 0.66055 0.21550 0.07900
C 	C 	0.10191 0.78229 0.34569 0.07000
N 	N 	0.85215 0.63314 0.19187 -0.10200
N 	N 	0.14406 0.80256 0.37603 -0.10400
C 	C 	0.95513 0.28402 0.18002 -0.07700
C 	C 	0.01873 0.26562 0.19695 0.00400
C 	C 	0.02899 0.21405 0.23896 0.01100
C 	C 	0.97502 0.18133 0.26530 -0.06700
C 	C 	0.91177 0.20382 0.25306 -0.01200
C 	C 	0.90153 0.25475 0.21069 0.00900
H 	H 	0.06016 0.28942 0.17523 0.04900
H 	H 	0.87024 0.18001 0.27469 0.05000
C 	C 	0.83567 0.27586 0.19813 0.08800
C 	C 	0.09481 0.19581 0.25549 0.09000
N 	N 	0.78275 0.29244 0.18831 -0.10200
N 	N 	0.14754 0.18123 0.26885 -0.09900
