data_crystal

_cell_length_a 26.46359
_cell_length_b 25.96870
_cell_length_c 26.14559
_cell_angle_alpha 95.49945
_cell_angle_beta  95.50031
_cell_angle_gamma 125.84258

_symmetry_space_group_name_	'P 1'
_symmetry_space_group_name_H-M	'P 1'

loop_
_symmetry_equiv_pos_as_xyz
  x,y,z

loop_
_atom_site_label
_atom_site_type_symbol
_atom_site_fract_x
_atom_site_fract_y
_atom_site_fract_z
_atom_site_charge
C 	C 	0.94830 0.01362 0.00030 0.11400
N 	N 	0.91252 0.94810 0.99216 -0.13900
C 	C 	0.94033 0.91809 0.98666 0.12100
N 	N 	0.00411 0.95365 0.99007 -0.13300
C 	C 	0.04012 0.01918 0.99868 0.11300
N 	N 	0.01225 0.04925 0.00393 -0.13600
C 	C 	0.96424 0.02495 0.43429 0.11300
N 	N 	0.93942 0.96731 0.44956 -0.13800
C 	C 	0.97260 0.94253 0.45109 0.11800
N 	N 	0.03105 0.97605 0.43814 -0.13400
C 	C 	0.05578 0.03348 0.42245 0.11800
N 	N 	0.02210 0.05763 0.42039 -0.13800
Cu	Cu	0.60524 0.21043 0.00368 0.92900
Cu	Cu	0.64971 0.20101 0.89216 0.86700
Cu	Cu	0.64147 0.30653 0.93024 0.89800
Cu	Cu	0.61935 0.33913 0.03362 0.89500
C 	C 	0.63520 0.27096 0.11080 0.28800
O 	O 	0.51550 0.18128 0.00528 -0.35600
C 	C 	0.62536 0.26207 0.81879 0.28200
O 	O 	0.66275 0.31063 0.00332 -0.64000
O 	O 	0.59447 0.21161 0.92796 -0.64100
O 	O 	0.63666 0.15692 0.00262 -0.36800
O 	O 	0.70716 0.21559 0.95108 -0.44300
O 	O 	0.60813 0.29803 0.09631 -0.38000
O 	O 	0.69334 0.39929 0.93500 -0.38000
C 	C 	0.69684 0.44088 0.97128 0.30100
C 	C 	0.49440 0.21118 0.98475 0.29200
O 	O 	0.53490 0.26934 0.97522 -0.39700
O 	O 	0.66046 0.42185 0.00703 -0.39200
O 	O 	0.62986 0.22535 0.07805 -0.35200
C 	C 	0.68759 0.17485 0.98343 0.29800
O 	O 	0.62206 0.29897 0.85463 -0.37000
O 	O 	0.61531 0.20787 0.82753 -0.41300
H 	H 	0.70883 0.33682 0.01752 0.16800
H 	H 	0.55012 0.18547 0.90869 0.17400
Cu	Cu	0.74253 0.34966 0.44169 0.92500
Cu	Cu	0.75231 0.30885 0.55508 0.87600
Cu	Cu	0.64570 0.32815 0.50873 0.91100
Cu	Cu	0.63902 0.37196 0.40760 0.89400
C 	C 	0.69459 0.33446 0.33342 0.28600
O 	O 	0.79390 0.44659 0.44462 -0.35900
C 	C 	0.66066 0.30305 0.60888 0.29100
O 	O 	0.64658 0.31219 0.43605 -0.64100
O 	O 	0.73643 0.36061 0.51677 -0.63100
O 	O 	0.76821 0.29052 0.43985 -0.37100
O 	O 	0.82083 0.32578 0.52424 -0.42600
O 	O 	0.67968 0.37360 0.34693 -0.38100
O 	O 	0.55660 0.29024 0.49799 -0.37400
C 	C 	0.52699 0.29500 0.45729 0.29500
C 	C 	0.77459 0.47992 0.46342 0.29000
O 	O 	0.71519 0.44987 0.46895 -0.39000
O 	O 	0.55853 0.34358 0.43222 -0.39100
O 	O 	0.73167 0.32968 0.36698 -0.35000
C 	C 	0.80943 0.29577 0.47664 0.30100
O 	O 	0.64729 0.33561 0.58296 -0.37500
O 	O 	0.67598 0.26868 0.58465 -0.42600
H 	H 	0.61444 0.26651 0.41847 0.16600
H 	H 	0.76544 0.40632 0.53494 0.16000
C 	C 	0.63097 0.27678 0.76553 -0.06700
C 	C 	0.68798 0.33251 0.75688 -0.00400
C 	C 	0.69686 0.34226 0.70542 -0.00100
C 	C 	0.64864 0.29658 0.66264 -0.07600
C 	C 	0.58981 0.24358 0.67138 0.00400
C 	C 	0.58095 0.23361 0.72285 -0.00100
C 	C 	0.73793 0.37915 0.80092 0.07100
C 	C 	0.53833 0.19973 0.62744 0.08200
C 	C 	0.52018 0.17974 0.73200 0.08500
C 	C 	0.75584 0.39894 0.69640 0.05900
N 	N 	0.47169 0.13676 0.73931 -0.11900
N 	N 	0.80287 0.44414 0.68916 -0.12800
N 	N 	0.49729 0.16482 0.59236 -0.11500
N 	N 	0.77773 0.41634 0.83607 -0.11900
C 	C 	0.68484 0.31063 0.27725 -0.06400
C 	C 	0.62625 0.25272 0.25186 -0.00400
C 	C 	0.61160 0.23670 0.19677 0.00400
C 	C 	0.65565 0.27864 0.16721 -0.06400
C 	C 	0.71669 0.33286 0.19273 -0.00300
C 	C 	0.73125 0.34909 0.24782 0.00400
C 	C 	0.58060 0.21042 0.28243 0.06800
C 	C 	0.76398 0.37256 0.16221 0.06900
C 	C 	0.79319 0.40630 0.27418 0.08900
C 	C 	0.55062 0.17811 0.17045 0.09000
N 	N 	0.84257 0.45196 0.29526 -0.11400
N 	N 	0.50196 0.13139 0.14940 -0.11000
N 	N 	0.80166 0.40419 0.13780 -0.12500
N 	N 	0.54418 0.17669 0.30683 -0.12600
C 	C 	0.94354 0.87746 0.46337 -0.04700
C 	C 	0.97669 0.86635 0.50102 0.09300
C 	C 	0.95342 0.80257 0.50429 -0.08300
C 	C 	0.89591 0.75005 0.47292 -0.01000
C 	C 	0.85972 0.76132 0.43894 0.07300
C 	C 	0.88450 0.82500 0.43385 -0.05700
N 	N 	0.02957 0.91646 0.53507 -0.19400
H 	H 	0.97999 0.79380 0.53153 0.05200
C 	C 	0.87488 0.68348 0.47491 0.00300
N 	N 	0.80144 0.71139 0.41109 -0.19400
H 	H 	0.85837 0.83363 0.40596 0.05000
C 	C 	0.84552 0.65422 0.51607 -0.09900
C 	C 	0.81843 0.58880 0.51595 0.12500
C 	C 	0.81738 0.55128 0.47224 -0.11100
C 	C 	0.85111 0.58179 0.43318 -0.02600
C 	C 	0.88083 0.64795 0.43453 0.06000
H 	H 	0.84345 0.68231 0.54813 0.05700
N 	N 	0.79521 0.56285 0.55835 -0.20200
H 	H 	0.85224 0.55353 0.40059 0.05300
N 	N 	0.91436 0.67682 0.39684 -0.19200
H 	H 	0.79348 0.58994 0.58942 0.08700
H 	H 	0.78210 0.51707 0.56220 0.08600
H 	H 	0.91682 0.64976 0.36628 0.08700
H 	H 	0.93977 0.72654 0.39826 0.08900
H 	H 	0.77589 0.72009 0.38502 0.08400
H 	H 	0.78015 0.66381 0.41600 0.08800
H 	H 	0.04351 0.96364 0.53807 0.09700
H 	H 	0.05541 0.90802 0.56107 0.08900
C 	C 	0.93172 0.05525 0.43798 -0.04800
C 	C 	0.91111 0.06925 0.39301 0.09700
C 	C 	0.89149 0.10898 0.39892 -0.08500
C 	C 	0.89087 0.13368 0.44875 -0.00900
C 	C 	0.90841 0.11694 0.49356 0.07000
C 	C 	0.92834 0.07750 0.48760 -0.05600
N 	N 	0.90899 0.04382 0.34417 -0.19900
H 	H 	0.87654 0.12065 0.36463 0.05400
C 	C 	0.87023 0.17572 0.45338 0.00400
N 	N 	0.90707 0.13923 0.54232 -0.19400
H 	H 	0.94356 0.06609 0.52193 0.04600
C 	C 	0.80611 0.14736 0.45364 -0.09800
C 	C 	0.78541 0.18578 0.46223 0.12200
C 	C 	0.82943 0.25390 0.46796 -0.11600
C 	C 	0.89335 0.28223 0.46656 -0.02000
C 	C 	0.91437 0.24381 0.45944 0.05700
H 	H 	0.77254 0.09521 0.44895 0.05600
N 	N 	0.72378 0.15717 0.46638 -0.20100
H 	H 	0.92694 0.33437 0.47121 0.04000
N 	N 	0.97680 0.27252 0.45869 -0.19600
H 	H 	0.69138 0.10680 0.46057 0.08200
H 	H 	0.70781 0.18432 0.47714 0.06400
H 	H 	0.00904 0.32282 0.46352 0.09100
H 	H 	0.99399 0.24546 0.45315 0.08700
H 	H 	0.92016 0.12661 0.57511 0.08000
H 	H 	0.89322 0.16927 0.54830 0.08500
H 	H 	0.91841 0.01009 0.33831 0.08800
H 	H 	0.89559 0.05600 0.31123 0.08200
C 	C 	0.12207 0.07330 0.41400 -0.04700
C 	C 	0.14821 0.04456 0.39068 0.09300
C 	C 	0.21434 0.08056 0.39586 -0.08300
C 	C 	0.25401 0.14631 0.41910 -0.01000
C 	C 	0.22696 0.17737 0.43491 0.07300
C 	C 	0.16140 0.14013 0.43392 -0.05700
N 	N 	0.11015 0.98383 0.36135 -0.19400
H 	H 	0.23495 0.05755 0.38134 0.05300
C 	C 	0.32367 0.18119 0.42920 0.00400
N 	N 	0.26361 0.24260 0.45130 -0.19400
H 	H 	0.14124 0.16300 0.44979 0.05200
C 	C 	0.35552 0.19559 0.38686 -0.09700
C 	C 	0.42153 0.22882 0.39502 0.12400
C 	C 	0.45691 0.25390 0.44686 -0.10600
C 	C 	0.42489 0.23897 0.48921 -0.02200
C 	C 	0.35841 0.20051 0.48076 0.06100
H 	H 	0.32861 0.17914 0.34732 0.05700
N 	N 	0.45004 0.23365 0.35324 -0.20100
H 	H 	0.45173 0.25671 0.52887 0.05500
N 	N 	0.32829 0.18172 0.52209 -0.19200
H 	H 	0.42423 0.21845 0.31515 0.08600
H 	H 	0.49644 0.24793 0.35795 0.07800
H 	H 	0.35443 0.19823 0.56018 0.08800
H 	H 	0.27899 0.14860 0.51680 0.09000
H 	H 	0.24362 0.26480 0.46486 0.08500
H 	H 	0.31161 0.27210 0.44884 0.09000
H 	H 	0.06155 0.96024 0.34943 0.09600
H 	H 	0.12971 0.96154 0.34690 0.08900
C 	C 	0.90183 0.84725 0.97956 -0.05100
C 	C 	0.89598 0.80966 0.93321 0.09900
C 	C 	0.86402 0.74290 0.92999 -0.08400
C 	C 	0.83596 0.71290 0.97132 -0.01200
C 	C 	0.84069 0.75030 0.01725 0.07500
C 	C 	0.87339 0.81718 0.02073 -0.05200
N 	N 	0.91950 0.83700 0.89133 -0.19900
H 	H 	0.85980 0.71394 0.89474 0.05500
C 	C 	0.80057 0.64207 0.96559 0.00600
N 	N 	0.81436 0.72246 0.05815 -0.19500
H 	H 	0.87780 0.84614 0.05608 0.04800
C 	C 	0.83349 0.61714 0.98007 -0.09900
C 	C 	0.80064 0.55090 0.98061 0.12700
C 	C 	0.73363 0.50911 0.96613 -0.10800
C 	C 	0.70106 0.53361 0.94932 -0.01900
C 	C 	0.73391 0.59972 0.94849 0.05800
H 	H 	0.88469 0.64967 0.99225 0.05700
N 	N 	0.83357 0.52807 0.99581 -0.20500
H 	H 	0.64981 0.50118 0.93741 0.04300
N 	N 	0.70124 0.62224 0.93165 -0.19100
H 	H 	0.88301 0.55947 0.00676 0.08800
H 	H 	0.81071 0.47915 0.99674 0.08600
H 	H 	0.65187 0.59075 0.92009 0.08400
H 	H 	0.72437 0.67078 0.92899 0.08900
H 	H 	0.81771 0.75046 0.09169 0.08400
H 	H 	0.79078 0.67309 0.05738 0.09000
H 	H 	0.93884 0.88531 0.89075 0.09200
H 	H 	0.91659 0.80919 0.85789 0.08500
C 	C 	0.72416 0.15101 0.99937 -0.12000
C 	C 	0.70014 0.08588 0.98198 0.12400
C 	C 	0.74035 0.06764 0.99046 -0.10400
C 	C 	0.80404 0.11328 0.01497 0.00800
C 	C 	0.82702 0.17740 0.03496 0.05400
C 	C 	0.78673 0.19562 0.02692 -0.01400
N 	N 	0.63929 0.04114 0.95595 -0.21000
H 	H 	0.72264 0.01822 0.97615 0.05500
C 	C 	0.84740 0.09479 0.01498 -0.00900
N 	N 	0.88756 0.22161 0.06172 -0.19100
H 	H 	0.80465 0.24517 0.04097 0.04100
C 	C 	0.87781 0.10212 0.97225 -0.08600
C 	C 	0.91231 0.07716 0.96709 0.09300
C 	C 	0.91779 0.04583 0.00639 -0.04400
C 	C 	0.88972 0.04110 0.05029 -0.05600
C 	C 	0.85453 0.06533 0.05504 0.07100
H 	H 	0.87275 0.12537 0.94194 0.05000
N 	N 	0.93845 0.08192 0.92377 -0.19900
H 	H 	0.89452 0.01763 0.08053 0.04600
N 	N 	0.82791 0.06027 0.09808 -0.19500
H 	H 	0.93459 0.10571 0.89533 0.08000
H 	H 	0.96194 0.06143 0.91737 0.08700
H 	H 	0.83256 0.03748 0.12705 0.08200
H 	H 	0.80341 0.07982 0.10372 0.09000
H 	H 	0.90451 0.26921 0.07543 0.08400
H 	H 	0.91791 0.20898 0.07015 0.08800
H 	H 	0.60830 0.05305 0.94807 0.08000
H 	H 	0.62228 0.99334 0.94314 0.08900
C 	C 	0.10898 0.05730 0.00058 -0.03900
C 	C 	0.14825 0.05503 0.03959 0.09600
C 	C 	0.21100 0.08144 0.03468 -0.07900
C 	C 	0.23580 0.11218 0.99272 -0.01400
C 	C 	0.19756 0.11755 0.95520 0.07400
C 	C 	0.13440 0.09004 0.95962 -0.06100
N 	N 	0.12637 0.02870 0.08222 -0.19800
H 	H 	0.24089 0.07870 0.06393 0.05500
C 	C 	0.30212 0.13906 0.98885 0.00400
N 	N 	0.22100 0.14868 0.91486 -0.19500
H 	H 	0.10436 0.09236 0.93016 0.04800
C 	C 	0.31429 0.09974 0.96090 -0.09900
C 	C 	0.37672 0.12315 0.95721 0.12900
C 	C 	0.42790 0.18633 0.98371 -0.11400
C 	C 	0.41557 0.22582 0.01116 -0.01500
C 	C 	0.35316 0.20295 0.01386 0.05900
H 	H 	0.27496 0.05102 0.94140 0.05800
N 	N 	0.38694 0.08550 0.92710 -0.20200
H 	H 	0.45483 0.27431 0.03119 0.03200
N 	N 	0.34262 0.24250 0.04048 -0.19100
H 	H 	0.34900 0.03823 0.90904 0.08500
H 	H 	0.43201 0.10337 0.91967 0.08400
H 	H 	0.38070 0.28946 0.05910 0.08300
H 	H 	0.29679 0.22746 0.04267 0.08900
H 	H 	0.19228 0.15212 0.88727 0.08300
H 	H 	0.26782 0.17003 0.91055 0.08900
H 	H 	0.08192 0.01375 0.08933 0.09300
H 	H 	0.15495 0.02523 0.10994 0.08500
