data_crystal

_cell_length_a 36.32714
_cell_length_b 37.42059
_cell_length_c 20.14729
_cell_angle_alpha 91.98247
_cell_angle_beta  91.01615
_cell_angle_gamma 90.12181

_symmetry_space_group_name_	'P 1'
_symmetry_space_group_name_H-M	'P 1'

loop_
_symmetry_equiv_pos_as_xyz
  x,y,z

loop_
_atom_site_label
_atom_site_type_symbol
_atom_site_fract_x
_atom_site_fract_y
_atom_site_fract_z
_atom_site_charge
Cd	Cd	0.99534 0.87924 0.20110 1.24400
Cd	Cd	0.99153 0.94679 0.32866 1.20300
O 	O 	0.03606 0.82860 0.22206 -0.30400
O 	O 	0.99729 0.82707 0.13762 -0.33600
C 	C 	0.02151 0.80995 0.17291 0.29900
O 	O 	0.94956 0.91593 0.16743 -0.33600
O 	O 	0.97179 0.96441 0.22831 -0.40200
C 	C 	0.94550 0.94918 0.19126 0.31400
C 	C 	0.95354 0.86620 0.31681 0.32100
O 	O 	0.03984 0.92391 0.26665 -0.43400
O 	O 	0.94530 0.84360 0.26804 -0.28300
O 	O 	0.98055 0.88784 0.30565 -0.50200
C 	C 	0.05068 0.93515 0.20968 0.31000
O 	O 	0.03855 0.91710 0.15709 -0.33600
Cd	Cd	0.03769 0.87721 0.98186 1.24300
Cd	Cd	0.00615 0.90436 0.82159 1.18700
O 	O 	0.09550 0.84328 0.98339 -0.31600
O 	O 	0.06519 0.85468 0.07378 -0.34700
C 	C 	0.08940 0.83444 0.04393 0.31100
O 	O 	0.99140 0.91513 0.00486 -0.33500
O 	O 	0.96419 0.91106 0.90131 -0.42600
C 	C 	0.97052 0.92903 0.95776 0.27500
C 	C 	0.07148 0.93576 0.92144 0.31800
O 	O 	0.01587 0.84897 0.86626 -0.42100
O 	O 	0.08148 0.93535 0.98418 -0.27500
O 	O 	0.05267 0.90852 0.89893 -0.52600
C 	C 	0.99243 0.82988 0.89825 0.30900
O 	O 	0.99630 0.83131 0.96274 -0.35300
C 	C 	0.05640 0.66604 0.98439 0.10300
N 	N 	0.03037 0.64563 0.01262 -0.12100
C 	C 	0.01418 0.61816 0.97700 0.10300
N 	N 	0.02255 0.61253 0.91200 -0.13900
C 	C 	0.04774 0.63348 0.88298 0.12800
N 	N 	0.06512 0.65977 0.91972 -0.13500
C 	C 	0.01262 0.64628 0.28153 0.13000
N 	N 	0.02132 0.64800 0.34746 -0.13700
C 	C 	0.00941 0.62219 0.38779 0.13100
N 	N 	0.98835 0.59487 0.36217 -0.14400
C 	C 	0.97961 0.59304 0.29621 0.12900
N 	N 	0.99330 0.61790 0.25557 -0.14000
Cd	Cd	0.78938 0.88632 0.75593 1.24300
Cd	Cd	0.84872 0.92525 0.88046 1.19500
O 	O 	0.74083 0.84716 0.79527 -0.30200
O 	O 	0.74077 0.86417 0.69279 -0.33100
C 	C 	0.72289 0.84854 0.73927 0.29000
O 	O 	0.82517 0.92570 0.70292 -0.37100
O 	O 	0.87310 0.92388 0.77880 -0.42300
C 	C 	0.85789 0.93720 0.72525 0.29300
C 	C 	0.76348 0.94528 0.83517 0.30900
O 	O 	0.83424 0.86610 0.85098 -0.40900
O 	O 	0.74261 0.93956 0.78262 -0.29700
O 	O 	0.78942 0.92206 0.84363 -0.52000
C 	C 	0.85029 0.84556 0.80668 0.30800
O 	O 	0.83512 0.84381 0.74748 -0.34100
Cd	Cd	0.79215 0.95146 0.52550 1.24400
Cd	Cd	0.81816 0.92527 0.36197 1.19700
O 	O 	0.75342 0.91000 0.58502 -0.30200
O 	O 	0.76829 0.96233 0.62786 -0.35400
C 	C 	0.74517 0.93564 0.62713 0.27200
O 	O 	0.83389 0.99286 0.50144 -0.38100
O 	O 	0.82691 0.98368 0.38921 -0.43200
C 	C 	0.84712 0.99460 0.44103 0.28100
C 	C 	0.84958 0.90095 0.50737 0.32300
O 	O 	0.76106 0.93282 0.40982 -0.44000
O 	O 	0.84959 0.91295 0.56919 -0.27400
O 	O 	0.82198 0.91050 0.47081 -0.52100
C 	C 	0.74214 0.96225 0.41500 0.31100
O 	O 	0.74708 0.98149 0.46953 -0.35800
C 	C 	0.55564 0.88174 0.84110 0.12900
N 	N 	0.55594 0.87921 0.90822 -0.13800
C 	C 	0.53001 0.89637 0.94509 0.11600
N 	N 	0.50228 0.91395 0.91430 -0.14300
C 	C 	0.50141 0.91595 0.84706 0.12900
N 	N 	0.52876 0.90067 0.81075 -0.13900
C 	C 	0.57397 0.95938 0.53940 0.13600
N 	N 	0.54637 0.98108 0.56088 -0.13900
C 	C 	0.51632 0.98633 0.52116 0.12900
N 	N 	0.51418 0.96999 0.45998 -0.14300
C 	C 	0.54277 0.95026 0.43672 0.13300
N 	N 	0.57235 0.94443 0.47697 -0.13300
Cd	Cd	0.77320 0.11448 0.18155 1.24500
Cd	Cd	0.80835 0.07492 0.32881 1.18800
O 	O 	0.72865 0.16262 0.20125 -0.31000
O 	O 	0.75217 0.15288 0.10362 -0.32900
C 	C 	0.73420 0.17485 0.14287 0.29300
O 	O 	0.81840 0.07565 0.14724 -0.35000
O 	O 	0.81297 0.03997 0.23714 -0.41600
C 	C 	0.83031 0.04858 0.18313 0.29700
C 	C 	0.83044 0.15101 0.25546 0.33200
O 	O 	0.74870 0.08230 0.28568 -0.43700
O 	O 	0.82251 0.16620 0.19996 -0.28500
O 	O 	0.80753 0.12589 0.27064 -0.52000
C 	C 	0.73068 0.06076 0.24415 0.30200
O 	O 	0.73170 0.06815 0.18155 -0.32900
Cd	Cd	0.83462 0.12386 0.97980 1.24400
Cd	Cd	0.82190 0.06988 0.83492 1.17100
O 	O 	0.79486 0.17636 0.98986 -0.31400
O 	O 	0.83735 0.16605 0.06461 -0.33300
C 	C 	0.81387 0.18875 0.04061 0.31000
O 	O 	0.86820 0.07516 0.99995 -0.35700
O 	O 	0.87488 0.05879 0.89020 -0.45100
C 	C 	0.87810 0.05138 0.95360 0.29200
C 	C 	0.77394 0.07647 0.97004 0.32400
O 	O 	0.83781 0.13006 0.84959 -0.43800
O 	O 	0.77854 0.08816 0.03156 -0.30000
O 	O 	0.79350 0.09225 0.92682 -0.54000
C 	C 	0.87057 0.14375 0.85998 0.29300
O 	O 	0.88166 0.14666 0.92161 -0.34500
C 	C 	0.84113 0.35033 0.94125 0.13800
N 	N 	0.83273 0.34769 0.87527 -0.14000
C 	C 	0.84125 0.37482 0.83513 0.13000
N 	N 	0.85613 0.40547 0.86188 -0.14400
C 	C 	0.86348 0.40864 0.92819 0.13000
N 	N 	0.85693 0.38063 0.96757 -0.14700
C 	C 	0.78567 0.33638 0.23450 0.13200
N 	N 	0.78886 0.33518 0.30175 -0.13700
C 	C 	0.80385 0.36319 0.33748 0.13200
N 	N 	0.81748 0.39148 0.30549 -0.14400
C 	C 	0.81532 0.39240 0.23821 0.13200
N 	N 	0.79858 0.36519 0.20271 -0.14100
Cd	Cd	0.02635 0.09644 0.64993 1.24300
Cd	Cd	0.98378 0.08511 0.80590 1.19400
O 	O 	0.08008 0.13565 0.65738 -0.31200
O 	O 	0.06851 0.10310 0.56716 -0.34300
C 	C 	0.09131 0.12466 0.59967 0.30200
O 	O 	0.98235 0.05374 0.63006 -0.36000
O 	O 	0.94683 0.07286 0.71758 -0.41300
C 	C 	0.95393 0.04915 0.66968 0.29500
C 	C 	0.05873 0.04810 0.73997 0.32200
O 	O 	0.99751 0.13556 0.74605 -0.43100
O 	O 	0.07248 0.04450 0.68088 -0.29700
O 	O 	0.03593 0.07452 0.74795 -0.52000
C 	C 	0.97681 0.15058 0.70137 0.30200
O 	O 	0.98294 0.14128 0.63957 -0.32000
Cd	Cd	0.04436 0.12441 0.38120 1.24500
Cd	Cd	0.99024 0.09888 0.23761 1.19300
O 	O 	0.08368 0.17708 0.36775 -0.30500
O 	O 	0.08278 0.14924 0.46097 -0.33800
C 	C 	0.09895 0.17295 0.42562 0.29200
O 	O 	0.00560 0.08308 0.41905 -0.36000
O 	O 	0.99238 0.05830 0.31618 -0.43200
C 	C 	0.98291 0.06482 0.37828 0.28400
C 	C 	0.97937 0.16272 0.35051 0.32100
O 	O 	0.05336 0.10181 0.25694 -0.43300
O 	O 	0.99095 0.17135 0.41086 -0.27600
O 	O 	0.00168 0.14337 0.31520 -0.52000
C 	C 	0.07466 0.07684 0.27996 0.31200
O 	O 	0.08261 0.07971 0.34323 -0.34000
C 	C 	0.26622 0.12359 0.67389 0.13000
N 	N 	0.29241 0.09891 0.65874 -0.14000
C 	C 	0.32051 0.09303 0.70246 0.12900
N 	N 	0.32298 0.11261 0.76032 -0.14400
C 	C 	0.29729 0.13773 0.77523 0.12900
N 	N 	0.26887 0.14311 0.73199 -0.13900
C 	C 	0.27570 0.17708 0.36206 0.13200
N 	N 	0.27951 0.18353 0.29663 -0.13800
C 	C 	0.31216 0.17734 0.26658 0.13200
N 	N 	0.34119 0.16513 0.30258 -0.14300
C 	C 	0.33733 0.15790 0.36781 0.13000
N 	N 	0.30426 0.16332 0.39707 -0.13800
C 	C 	0.29688 0.15457 0.84269 -0.04500
C 	C 	0.32844 0.17233 0.86988 0.09700
C 	C 	0.33098 0.17965 0.93873 -0.08000
C 	C 	0.30211 0.17053 0.98030 -0.02500
C 	C 	0.26900 0.15627 0.95211 0.08000
C 	C 	0.26680 0.14825 0.88348 -0.05600
N 	N 	0.35606 0.18281 0.83016 -0.19800
H 	H 	0.35581 0.19176 0.96016 0.05100
C 	C 	0.30809 0.17300 0.05344 0.01300
N 	N 	0.23951 0.14976 0.99065 -0.20300
H 	H 	0.24220 0.13557 0.86231 0.05900
C 	C 	0.30082 0.20535 0.08794 -0.09000
C 	C 	0.30428 0.20805 0.15760 0.10800
C 	C 	0.31407 0.17741 0.19330 -0.04900
C 	C 	0.32285 0.14552 0.15851 -0.04800
C 	C 	0.32018 0.14302 0.08887 0.07100
H 	H 	0.29241 0.22849 0.06055 0.06300
N 	N 	0.29912 0.24022 0.18956 -0.19900
H 	H 	0.33090 0.12223 0.18584 0.05300
N 	N 	0.32903 0.11177 0.05649 -0.19200
H 	H 	0.29062 0.26238 0.16312 0.09200
H 	H 	0.30498 0.24395 0.24024 0.09700
H 	H 	0.33735 0.08964 0.08318 0.09100
H 	H 	0.32829 0.10921 0.00474 0.09800
H 	H 	0.21553 0.13836 0.96969 0.09600
H 	H 	0.23974 0.15667 0.04130 0.10700
H 	H 	0.35347 0.18070 0.77846 0.09200
H 	H 	0.37990 0.19467 0.85078 0.08600
C 	C 	0.23985 0.17919 0.39081 -0.02200
C 	C 	0.20869 0.18002 0.41045 0.00500
C 	C 	0.17100 0.17957 0.42619 0.05900
C 	C 	0.13807 0.17759 0.43139 -0.08200
C 	C 	0.23176 0.12290 0.63758 -0.02400
C 	C 	0.20112 0.12233 0.61343 0.00700
C 	C 	0.16342 0.12207 0.59486 0.06100
C 	C 	0.13030 0.12262 0.58989 -0.07300
C 	C 	0.83467 0.37102 0.76239 -0.04900
C 	C 	0.84757 0.34088 0.72499 0.10700
C 	C 	0.83892 0.33749 0.65677 -0.08600
C 	C 	0.82150 0.36540 0.62382 -0.00200
C 	C 	0.80979 0.39614 0.66068 0.07100
C 	C 	0.81571 0.39818 0.72986 -0.05100
N 	N 	0.86984 0.31623 0.75322 -0.19900
H 	H 	0.84795 0.31406 0.62839 0.06600
C 	C 	0.81767 0.36305 0.55018 -0.00400
N 	N 	0.79333 0.42392 0.63006 -0.19400
H 	H 	0.80594 0.42128 0.75834 0.05100
C 	C 	0.78332 0.35423 0.52107 -0.08300
C 	C 	0.77773 0.35532 0.45189 0.10400
C 	C 	0.80814 0.36180 0.41065 -0.04600
C 	C 	0.84293 0.36881 0.43976 -0.05000
C 	C 	0.84781 0.37054 0.50912 0.07500
H 	H 	0.76032 0.34847 0.55263 0.05900
N 	N 	0.74300 0.35183 0.42600 -0.19800
H 	H 	0.86618 0.37378 0.40830 0.05500
N 	N 	0.88128 0.37991 0.53583 -0.19400
H 	H 	0.72117 0.34511 0.45634 0.09100
H 	H 	0.73685 0.35797 0.37693 0.09800
H 	H 	0.90346 0.38485 0.50506 0.09000
H 	H 	0.88553 0.38312 0.58705 0.09200
H 	H 	0.78448 0.44630 0.65783 0.08700
H 	H 	0.78959 0.42392 0.57859 0.09000
H 	H 	0.88239 0.32110 0.79964 0.10500
H 	H 	0.87710 0.29293 0.72651 0.10200
C 	C 	0.88199 0.15586 0.74176 -0.04500
C 	C 	0.88833 0.16481 0.80914 -0.09600
C 	C 	0.91812 0.18776 0.82651 0.12000
C 	C 	0.94682 0.19099 0.78194 -0.04800
C 	C 	0.94484 0.17205 0.72081 -0.09200
C 	C 	0.90988 0.16169 0.69645 0.12900
Br	Br	0.89782 0.16470 0.60417 -0.17700
H 	H 	0.85608 0.14398 0.72508 0.06200
H 	H 	0.97207 0.20452 0.79762 0.06900
Br	Br	0.91777 0.21778 0.90574 -0.22400
C 	C 	0.83710 0.31954 0.98109 -0.05300
C 	C 	0.83328 0.29184 0.00901 0.03800
C 	C 	0.82790 0.25724 0.03283 0.05700
C 	C 	0.82218 0.22622 0.04309 -0.06800
C 	C 	0.89646 0.16254 0.23879 -0.02800
C 	C 	0.86843 0.15328 0.28232 -0.12500
C 	C 	0.87633 0.15261 0.35109 0.11600
C 	C 	0.91245 0.15913 0.37449 -0.04100
C 	C 	0.94063 0.16631 0.32986 -0.11000
C 	C 	0.93180 0.17036 0.26251 0.08800
Br	Br	0.96736 0.18824 0.20233 -0.27200
H 	H 	0.89044 0.16469 0.18620 0.08500
H 	H 	0.91856 0.15849 0.42716 0.09500
Br	Br	0.83836 0.14481 0.41409 -0.32900
C 	C 	0.74071 0.21257 0.13969 -0.07700
C 	C 	0.74886 0.24362 0.14903 0.06000
C 	C 	0.76059 0.27812 0.17111 0.00700
C 	C 	0.77171 0.30570 0.19710 -0.02300
C 	C 	0.49041 0.01535 0.53752 -0.05100
C 	C 	0.45218 0.00839 0.53812 0.10300
C 	C 	0.42733 0.03589 0.52377 -0.08400
C 	C 	0.44031 0.07008 0.50969 -0.00600
C 	C 	0.47805 0.07832 0.52037 0.07000
C 	C 	0.50280 0.05077 0.53481 -0.05400
N 	N 	0.43931 0.97541 0.55198 -0.20000
H 	H 	0.39808 0.03017 0.51987 0.06000
C 	C 	0.41604 0.09426 0.47218 -0.00400
N 	N 	0.49079 0.11226 0.51468 -0.19500
H 	H 	0.53208 0.05641 0.53808 0.05600
C 	C 	0.39715 0.12163 0.50642 -0.08500
C 	C 	0.37428 0.14520 0.47198 0.10400
C 	C 	0.36695 0.13866 0.40324 -0.04700
C 	C 	0.38614 0.11142 0.36899 -0.05100
C 	C 	0.41131 0.08974 0.40244 0.07500
H 	H 	0.40166 0.12568 0.55947 0.05200
N 	N 	0.36113 0.17491 0.50419 -0.19800
H 	H 	0.38105 0.10665 0.31622 0.05300
N 	N 	0.43076 0.06466 0.36736 -0.19400
H 	H 	0.36452 0.17828 0.55566 0.08800
H 	H 	0.35000 0.19607 0.47807 0.09600
H 	H 	0.42644 0.06104 0.31613 0.08800
H 	H 	0.45089 0.04912 0.38998 0.09300
H 	H 	0.51888 0.11788 0.52055 0.08900
H 	H 	0.47294 0.13349 0.50617 0.09000
H 	H 	0.45720 0.95519 0.56649 0.09200
H 	H 	0.41103 0.97016 0.55109 0.08800
C 	C 	0.47400 0.93916 0.81486 -0.04800
C 	C 	0.45512 0.92807 0.75543 0.10300
C 	C 	0.43226 0.95243 0.72299 -0.08500
C 	C 	0.42521 0.98630 0.75192 -0.00500
C 	C 	0.44184 0.99630 0.81400 0.07300
C 	C 	0.46729 0.97324 0.84325 -0.05200
N 	N 	0.45728 0.89376 0.73124 -0.19900
H 	H 	0.41841 0.94433 0.67677 0.05400
C 	C 	0.39822 0.00996 0.71932 -0.00400
N 	N 	0.43298 0.02756 0.84637 -0.19400
H 	H 	0.48150 0.98167 0.88896 0.05200
C 	C 	0.36069 0.00166 0.72238 -0.08700
C 	C 	0.33394 0.02757 0.70911 0.10500
C 	C 	0.34519 0.06230 0.69202 -0.05000
C 	C 	0.38248 0.06890 0.68015 -0.05300
C 	C 	0.40922 0.04294 0.69350 0.07200
H 	H 	0.35230 0.97569 0.73911 0.05700
N 	N 	0.29768 0.01931 0.71509 -0.20000
H 	H 	0.39097 0.09514 0.66503 0.04600
N 	N 	0.44539 0.05032 0.68408 -0.19300
H 	H 	0.28976 0.99397 0.72994 0.09400
H 	H 	0.27700 0.03747 0.70351 0.10400
H 	H 	0.45347 0.07544 0.66837 0.08800
H 	H 	0.46560 0.03080 0.68961 0.09500
H 	H 	0.44658 0.03532 0.89072 0.08600
H 	H 	0.41154 0.04365 0.82974 0.09200
H 	H 	0.46863 0.87359 0.75960 0.09700
H 	H 	0.44517 0.88645 0.68531 0.08900
C 	C 	0.54406 0.93980 0.36533 -0.04500
C 	C 	0.53915 0.96549 0.31588 0.10700
C 	C 	0.53532 0.95407 0.24904 -0.08400
C 	C 	0.53991 0.91800 0.22992 -0.00200
C 	C 	0.54760 0.89259 0.27888 0.07400
C 	C 	0.54885 0.90370 0.34635 -0.05000
N 	N 	0.53974 0.00113 0.33188 -0.19800
H 	H 	0.53029 0.97357 0.21135 0.05900
C 	C 	0.53877 0.90773 0.15800 -0.00400
N 	N 	0.55357 0.85764 0.26162 -0.19400
H 	H 	0.55333 0.88413 0.38413 0.05500
C 	C 	0.56883 0.91659 0.11901 -0.08200
C 	C 	0.56615 0.91433 0.04936 0.10600
C 	C 	0.53407 0.89926 0.01829 -0.03200
C 	C 	0.50475 0.88853 0.05751 -0.05500
C 	C 	0.50644 0.89328 0.12705 0.07500
H 	H 	0.59352 0.92766 0.14287 0.06600
N 	N 	0.59349 0.92840 0.01294 -0.19000
H 	H 	0.48021 0.87709 0.03376 0.05700
N 	N 	0.47691 0.88414 0.16356 -0.19400
H 	H 	0.61796 0.93731 0.03609 0.10700
H 	H 	0.58982 0.93305 0.96250 0.09600
H 	H 	0.45314 0.87365 0.14022 0.09100
H 	H 	0.47721 0.88721 0.21524 0.09200
H 	H 	0.55888 0.83906 0.29813 0.09200
H 	H 	0.55331 0.84858 0.21204 0.09600
H 	H 	0.54860 0.01075 0.37874 0.10300
H 	H 	0.53374 0.01977 0.29581 0.09100
C 	C 	0.73295 0.96888 0.29416 -0.03700
C 	C 	0.72064 0.97568 0.35897 -0.11200
C 	C 	0.69520 0.00347 0.36999 0.13100
C 	C 	0.69229 0.03041 0.32403 -0.04800
C 	C 	0.71333 0.02821 0.26647 -0.09000
C 	C 	0.72804 0.99491 0.24679 0.10900
Br	Br	0.74109 0.98480 0.15642 -0.21100
H 	H 	0.74888 0.94513 0.28232 0.02000
H 	H 	0.67694 0.05449 0.33614 0.06700
Br	Br	0.66512 0.00516 0.44735 -0.23200
C 	C 	0.89444 0.04222 0.46620 -0.05100
C 	C 	0.88384 0.01075 0.43083 -0.11000
C 	C 	0.90832 0.99501 0.38504 0.10700
C 	C 	0.94155 0.01187 0.37181 -0.05900
C 	C 	0.95178 0.04401 0.40491 -0.10200
C 	C 	0.92861 0.05845 0.45461 0.11800
Br	Br	0.94332 0.09906 0.50883 -0.21400
H 	H 	0.87591 0.05451 0.50163 0.07800
H 	H 	0.95875 0.00079 0.33334 -0.02600
Br	Br	0.89740 0.95025 0.34025 -0.45100
C 	C 	0.60747 0.95667 0.57802 -0.01600
C 	C 	0.63734 0.95355 0.60434 0.01400
C 	C 	0.67419 0.94872 0.62579 0.06200
C 	C 	0.70670 0.94342 0.63350 -0.07200
C 	C 	0.86559 0.99653 0.67482 -0.06400
C 	C 	0.87968 0.96242 0.68615 -0.08900
C 	C 	0.91713 0.95551 0.67280 0.11700
C 	C 	0.94092 0.98376 0.65829 -0.06000
C 	C 	0.92775 0.01896 0.65705 -0.08400
C 	C 	0.88933 0.02476 0.66034 0.11100
Br	Br	0.86880 0.07118 0.64749 -0.28400
H 	H 	0.83655 0.00177 0.68175 0.03200
H 	H 	0.97008 0.97863 0.65275 0.04900
Br	Br	0.93637 0.90785 0.67482 -0.29500
C 	C 	0.73615 0.00490 0.85956 -0.05400
C 	C 	0.75729 0.97609 0.88140 -0.12600
C 	C 	0.77307 0.97801 0.94605 0.09300
C 	C 	0.77443 0.01101 0.98105 -0.05900
C 	C 	0.75816 0.04127 0.95370 -0.12000
C 	C 	0.73566 0.03703 0.89662 0.09500
Br	Br	0.70686 0.07615 0.86527 -0.26000
H 	H 	0.72125 0.00283 0.81250 0.06600
H 	H 	0.78977 0.01351 0.02764 0.08600
Br	Br	0.78688 0.93569 0.99157 -0.29800
C 	C 	0.58756 0.87087 0.80462 -0.02500
C 	C 	0.61605 0.86304 0.77809 0.00500
C 	C 	0.65155 0.85562 0.75394 0.05700
C 	C 	0.68357 0.85113 0.74157 -0.07700
C 	C 	0.95407 0.56481 0.26958 -0.05000
C 	C 	0.92758 0.57163 0.21885 0.10300
C 	C 	0.90554 0.54346 0.19292 -0.08800
C 	C 	0.90464 0.51064 0.22436 -0.00500
C 	C 	0.92995 0.50418 0.27695 0.07300
C 	C 	0.95563 0.53073 0.29653 -0.05400
N 	N 	0.92104 0.60540 0.19889 -0.19800
H 	H 	0.88595 0.54847 0.15320 0.05500
C 	C 	0.87563 0.48412 0.20488 -0.00600
N 	N 	0.92926 0.47298 0.30974 -0.19400
H 	H 	0.97607 0.52522 0.33468 0.05300
C 	C 	0.88563 0.45258 0.17010 -0.08600
C 	C 	0.86261 0.42234 0.16994 0.10600
C 	C 	0.82921 0.42409 0.20499 -0.05200
C 	C 	0.81597 0.45762 0.22637 -0.05200
C 	C 	0.83942 0.48750 0.22941 0.07100
H 	H 	0.91231 0.45086 0.14690 0.06000
N 	N 	0.87281 0.39182 0.13671 -0.20000
H 	H 	0.78898 0.45949 0.24837 0.05100
N 	N 	0.82758 0.51867 0.25850 -0.19400
H 	H 	0.89808 0.39042 0.11276 0.10000
H 	H 	0.85499 0.36999 0.13120 0.10700
H 	H 	0.80093 0.52064 0.27697 0.08800
H 	H 	0.84447 0.54120 0.26313 0.09200
H 	H 	0.94874 0.46816 0.34716 0.08800
H 	H 	0.90882 0.45376 0.30028 0.09300
H 	H 	0.92725 0.62759 0.22990 0.10100
H 	H 	0.90545 0.60957 0.15575 0.09500
C 	C 	0.98294 0.59862 0.00451 -0.01900
C 	C 	0.98879 0.57221 0.05222 0.10000
C 	C 	0.96356 0.54381 0.05559 -0.09100
C 	C 	0.93324 0.54147 0.01149 0.02400
C 	C 	0.92398 0.57130 0.97337 0.05800
C 	C 	0.94883 0.59996 0.97103 -0.06800
N 	N 	0.01863 0.57362 0.09392 -0.19800
H 	H 	0.96913 0.52210 0.08859 0.06100
C 	C 	0.91703 0.50585 0.99466 -0.03700
N 	N 	0.89210 0.57195 0.93702 -0.19200
H 	H 	0.94311 0.62174 0.93827 0.05800
C 	C 	0.88338 0.49636 0.02233 -0.06700
C 	C 	0.86545 0.46440 0.00217 0.11100
C 	C 	0.88252 0.44078 0.95563 -0.06200
C 	C 	0.91712 0.44937 0.93092 -0.05400
C 	C 	0.93423 0.48201 0.94867 0.07900
H 	H 	0.87009 0.51479 0.05681 0.05000
N 	N 	0.83160 0.45709 0.02632 -0.20000
H 	H 	0.93026 0.43105 0.89584 0.05200
N 	N 	0.96670 0.49059 0.92036 -0.19600
H 	H 	0.81967 0.47438 0.06163 0.09100
H 	H 	0.81661 0.43455 0.01008 0.10300
H 	H 	0.97931 0.47257 0.88718 0.08600
H 	H 	0.97947 0.51528 0.92984 0.09000
H 	H 	0.88613 0.59354 0.90710 0.08900
H 	H 	0.87252 0.55163 0.93946 0.08700
H 	H 	0.03678 0.59527 0.09491 0.10300
H 	H 	0.02309 0.55356 0.12798 0.09300
C 	C 	0.05097 0.63214 0.80964 -0.04600
C 	C 	0.05421 0.59913 0.77359 0.10100
C 	C 	0.04894 0.59804 0.70420 -0.08400
C 	C 	0.04305 0.62957 0.66988 -0.00600
C 	C 	0.04314 0.66293 0.70533 0.07800
C 	C 	0.04662 0.66383 0.77496 -0.05300
N 	N 	0.06346 0.56871 0.80490 -0.19900
H 	H 	0.04985 0.57261 0.67678 0.05600
C 	C 	0.03485 0.62718 0.59729 -0.00300
N 	N 	0.03979 0.69411 0.67296 -0.19500
H 	H 	0.04486 0.68922 0.80233 0.06100
C 	C 	0.99807 0.62839 0.57513 -0.08400
C 	C 	0.98923 0.62842 0.50692 0.10500
C 	C 	0.01772 0.62491 0.45995 -0.04800
C 	C 	0.05450 0.62339 0.48210 -0.05100
C 	C 	0.06344 0.62482 0.55037 0.07300
H 	H 	0.97629 0.63052 0.61116 0.06000
N 	N 	0.95360 0.63303 0.48707 -0.19900
H 	H 	0.07629 0.62100 0.44610 0.05300
N 	N 	0.09940 0.62418 0.57037 -0.19400
H 	H 	0.93263 0.63413 0.52195 0.09300
H 	H 	0.94652 0.63727 0.43754 0.10000
H 	H 	0.12027 0.62227 0.53538 0.09000
H 	H 	0.10708 0.62585 0.62055 0.09200
H 	H 	0.03894 0.71855 0.69964 0.10500
H 	H 	0.03891 0.69455 0.62118 0.10100
H 	H 	0.07209 0.56941 0.85464 0.09300
H 	H 	0.06408 0.54418 0.77852 0.08600
C 	C 	0.96335 0.99501 0.96175 -0.06700
C 	C 	0.94843 0.96119 0.97288 -0.07200
C 	C 	0.91085 0.95811 0.98752 0.06700
C 	C 	0.88804 0.98840 0.98607 -0.07100
C 	C 	0.90285 0.02198 0.97210 -0.09600
C 	C 	0.94106 0.02549 0.96447 0.12600
Br	Br	0.96321 0.07177 0.95800 -0.35800
H 	H 	0.99212 0.99755 0.94948 0.04900
H 	H 	0.85877 0.98561 0.99383 0.02200
Br	Br	0.89027 0.91251 0.00748 -0.29400
C 	C 	0.92769 0.80985 0.90811 -0.03100
C 	C 	0.95709 0.81837 0.86713 -0.09700
C 	C 	0.94995 0.82292 0.79888 0.10200
C 	C 	0.91372 0.82808 0.77674 -0.03800
C 	C 	0.88482 0.82716 0.82181 -0.09200
C 	C 	0.89151 0.81423 0.88562 0.12200
Br	Br	0.85171 0.80199 0.94210 -0.20900
H 	H 	0.93290 0.80217 0.95877 0.08000
H 	H 	0.90824 0.83419 0.72534 0.08700
Br	Br	0.98831 0.81826 0.73481 -0.27000
C 	C 	0.06929 0.00104 0.90337 -0.04300
C 	C 	0.07795 0.96637 0.87982 -0.11500
C 	C 	0.08455 0.96023 0.81195 0.08800
C 	C 	0.07595 0.98644 0.76706 -0.04500
C 	C 	0.06486 0.02059 0.78958 -0.12800
C 	C 	0.06402 0.02858 0.85865 0.10600
Br	Br	0.06058 0.07692 0.89312 -0.31200
H 	H 	0.06598 0.00646 0.95609 0.07700
H 	H 	0.07860 0.98042 0.71436 0.06400
Br	Br	0.10563 0.91603 0.77964 -0.27000
C 	C 	0.06803 0.69905 0.01689 0.00200
C 	C 	0.07668 0.72852 0.03779 -0.00600
C 	C 	0.08472 0.76487 0.05283 0.07200
C 	C 	0.08882 0.79686 0.05545 -0.09200
C 	C 	0.85020 0.98625 0.15642 -0.04400
C 	C 	0.85818 0.02309 0.15638 -0.07700
C 	C 	0.89515 0.03387 0.15087 0.12100
C 	C 	0.92348 0.00844 0.15335 -0.03900
C 	C 	0.91561 0.97232 0.16484 -0.06700
C 	C 	0.87846 0.96105 0.16387 0.13300
Br	Br	0.86521 0.91241 0.18039 -0.24300
H 	H 	0.82188 0.97746 0.15795 0.08200
H 	H 	0.95181 0.01734 0.15165 0.05900
Br	Br	0.90798 0.08340 0.14650 -0.33600
C 	C 	0.90036 0.84646 0.38244 -0.03700
C 	C 	0.93295 0.86657 0.37983 -0.09600
C 	C 	0.94285 0.88929 0.43483 0.11300
C 	C 	0.91621 0.89840 0.48209 -0.02800
C 	C 	0.88121 0.88240 0.47792 -0.10500
C 	C 	0.87495 0.85376 0.43214 0.10400
Br	Br	0.83086 0.82551 0.43487 -0.25200
H 	H 	0.89396 0.82625 0.34415 0.07500
H 	H 	0.92218 0.91894 0.51998 0.07500
Br	Br	0.99316 0.90250 0.45313 -0.34400
C 	C 	0.05565 0.03341 0.18943 -0.03800
C 	C 	0.07950 0.04246 0.24291 -0.10400
C 	C 	0.10320 0.01600 0.26760 0.13000
C 	C 	0.09658 0.98001 0.25023 -0.04700
C 	C 	0.06806 0.97055 0.20521 -0.09400
C 	C 	0.05071 0.99760 0.16923 0.11700
Br	Br	0.02209 0.98658 0.09087 -0.22500
H 	H 	0.03983 0.05394 0.16533 0.01600
H 	H 	0.11238 0.95939 0.27412 0.07000
Br	Br	0.14604 0.02851 0.32070 -0.21300
C 	C 	0.01592 0.67793 0.24374 -0.02400
C 	C 	0.01750 0.70602 0.21637 0.00600
C 	C 	0.01863 0.74076 0.19130 0.06000
C 	C 	0.01962 0.77185 0.17770 -0.07700
