data_crystal

_cell_length_a 26.16731
_cell_length_b 26.43080
_cell_length_c 26.52206
_cell_angle_alpha 95.50531
_cell_angle_beta  95.50454
_cell_angle_gamma 125.78513

_symmetry_space_group_name_	'P 1'
_symmetry_space_group_name_H-M	'P 1'

loop_
_symmetry_equiv_pos_as_xyz
  x,y,z

loop_
_atom_site_label
_atom_site_type_symbol
_atom_site_fract_x
_atom_site_fract_y
_atom_site_fract_z
_atom_site_charge
C 	C 	0.03469 0.01073 0.44883 0.02800
H 	H 	0.11050 0.00939 0.89507 0.04400
C 	C 	0.96711 0.02633 0.98505 0.03400
C 	C 	0.89951 0.02660 0.44135 0.01800
H 	H 	0.12870 0.06378 0.53229 0.05100
C 	C 	0.87006 0.02184 0.95907 -0.05800
C 	C 	0.77057 0.01002 0.93964 -0.04100
H 	H 	0.68479 0.00385 0.92711 0.04400
C 	C 	0.86299 0.02037 0.47896 -0.04100
C 	C 	0.06282 0.03550 0.97161 0.03600
C 	C 	0.00109 0.03681 0.44534 -0.06600
C 	C 	0.73491 0.03311 0.94551 -0.03600
C 	C 	0.83414 0.05117 0.47999 -0.02800
H 	H 	0.81085 0.04958 0.51196 0.03900
C 	C 	0.10416 0.05076 0.44983 0.01300
C 	C 	0.83498 0.04612 0.96420 0.02800
C 	C 	0.14717 0.05089 0.92384 -0.04200
H 	H 	0.73673 0.05958 0.48450 0.04600
H 	H 	0.09384 0.04119 0.36712 0.04400
C 	C 	0.93197 0.05418 0.98829 0.01800
C 	C 	0.14699 0.07382 0.49668 -0.06500
C 	C 	0.02975 0.06228 0.97479 -0.07400
C 	C 	0.90729 0.06435 0.40462 -0.06700
H 	H 	0.22377 0.06408 0.88931 0.04200
H 	H 	0.93620 0.06984 0.37588 0.05000
C 	C 	0.12714 0.06128 0.40356 -0.04400
C 	C 	0.12981 0.07388 0.96342 0.01000
H 	H 	0.31099 0.07567 0.92030 0.05200
C 	C 	0.21178 0.08045 0.92184 -0.02600
H 	H 	0.85887 0.99343 0.50868 0.04000
C 	C 	0.03253 0.97233 0.97754 -0.07700
C 	C 	0.96971 0.93605 0.98668 0.03000
C 	C 	0.93755 0.96337 0.99152 -0.07600
H 	H 	0.05251 0.11067 0.96914 0.05400
H 	H 	0.05782 0.95142 0.97504 0.05600
H 	H 	0.88933 0.93546 0.99962 0.05400
C 	C 	0.93447 0.99831 0.44334 0.01800
C 	C 	0.00208 0.94634 0.45103 -0.07400
C 	C 	0.93578 0.90767 0.44980 0.02600
C 	C 	0.90181 0.93351 0.44538 -0.06800
H 	H 	0.02677 0.08701 0.44469 0.05100
H 	H 	0.02826 0.92630 0.45362 0.05300
H 	H 	0.85044 0.90357 0.44403 0.04900
Cu	Cu	0.63771 0.23908 0.00283 0.92700
Cu	Cu	0.69510 0.24608 0.89707 0.87900
Cu	Cu	0.68617 0.34661 0.94213 0.90400
Cu	Cu	0.64712 0.36078 0.04173 0.89900
C 	C 	0.65139 0.28027 0.11089 0.39700
O 	O 	0.54510 0.20708 0.99812 -0.33600
C 	C 	0.67061 0.30970 0.82901 0.38800
O 	O 	0.69600 0.33879 0.01279 -0.64300
O 	O 	0.63612 0.25217 0.93066 -0.63700
O 	O 	0.67232 0.18902 0.99849 -0.35000
O 	O 	0.74978 0.25733 0.95642 -0.42400
O 	O 	0.62689 0.30995 0.09774 -0.37300
O 	O 	0.73947 0.43821 0.95810 -0.36400
C 	C 	0.73270 0.47285 0.99220 0.29600
C 	C 	0.52561 0.23922 0.98069 0.28400
O 	O 	0.56787 0.29897 0.97775 -0.38100
O 	O 	0.69191 0.44733 0.02421 -0.39100
O 	O 	0.65330 0.24264 0.07581 -0.34700
C 	C 	0.72801 0.21319 0.98464 0.28700
O 	O 	0.69003 0.35503 0.86896 -0.36100
O 	O 	0.66145 0.25622 0.83510 -0.39800
H 	H 	0.74104 0.36295 0.03094 0.18300
H 	H 	0.59293 0.22936 0.90911 0.18700
Cu	Cu	0.73148 0.33204 0.43557 0.93100
Cu	Cu	0.73172 0.28859 0.54733 0.87900
Cu	Cu	0.63422 0.30489 0.50514 0.90200
Cu	Cu	0.61518 0.33585 0.40223 0.90400
C 	C 	0.67813 0.30790 0.32826 0.39000
O 	O 	0.77320 0.42522 0.43362 -0.34000
C 	C 	0.68045 0.32680 0.61795 0.38500
O 	O 	0.63255 0.28502 0.43326 -0.63700
O 	O 	0.72788 0.34556 0.50967 -0.63700
O 	O 	0.77239 0.28750 0.43908 -0.35400
O 	O 	0.70687 0.22451 0.49082 -0.42900
O 	O 	0.65585 0.34010 0.34127 -0.37100
O 	O 	0.54224 0.25995 0.49568 -0.35900
C 	C 	0.50756 0.26404 0.45896 0.28600
C 	C 	0.74791 0.45281 0.45061 0.28100
O 	O 	0.68934 0.41799 0.45963 -0.38300
O 	O 	0.53479 0.30604 0.42852 -0.37900
O 	O 	0.71783 0.30681 0.36219 -0.33800
C 	C 	0.74603 0.23563 0.45884 0.28300
O 	O 	0.63398 0.31154 0.58021 -0.35700
O 	O 	0.73211 0.33305 0.60832 -0.39700
H 	H 	0.60308 0.23914 0.41806 0.18200
H 	H 	0.75594 0.39037 0.52790 0.18600
C 	C 	0.61558 0.28029 0.68593 0.26500
C 	C 	0.67149 0.33072 0.67185 -0.20500
C 	C 	0.72257 0.37989 0.71047 0.26900
C 	C 	0.72016 0.37571 0.76253 0.26700
C 	C 	0.66672 0.32217 0.77634 -0.20600
C 	C 	0.61330 0.27597 0.73796 0.26900
F 	F 	0.56019 0.22548 0.75100 -0.40400
F 	F 	0.56506 0.23330 0.64909 -0.40400
F 	F 	0.77141 0.42171 0.79934 -0.40300
F 	F 	0.77561 0.43050 0.69746 -0.40200
C 	C 	0.60484 0.23983 0.18788 0.27500
C 	C 	0.65918 0.27486 0.16524 -0.20400
C 	C 	0.72053 0.31225 0.19638 0.26700
C 	C 	0.72726 0.31893 0.25016 0.27400
C 	C 	0.67255 0.28817 0.27300 -0.20100
C 	C 	0.61150 0.24648 0.24155 0.26600
F 	F 	0.55841 0.21484 0.26316 -0.41400
F 	F 	0.54536 0.20180 0.15793 -0.39700
F 	F 	0.78667 0.35853 0.28010 -0.39400
F 	F 	0.77346 0.34506 0.17473 -0.40900
C 	C 	0.77890 0.51994 0.44851 -0.06600
C 	C 	0.83566 0.56762 0.48296 0.01100
C 	C 	0.86183 0.63157 0.48417 -0.05100
C 	C 	0.83011 0.64843 0.45159 0.01700
C 	C 	0.77630 0.60032 0.41348 0.00700
C 	C 	0.74999 0.53633 0.41318 -0.00900
C 	C 	0.75037 0.61670 0.37533 -0.03100
C 	C 	0.77757 0.68027 0.37428 -0.05000
C 	C 	0.82848 0.72844 0.41329 0.03400
C 	C 	0.85284 0.71265 0.45400 -0.01100
C 	C 	0.89631 0.76058 0.49716 -0.02600
C 	C 	0.92141 0.82385 0.49641 -0.04500
C 	C 	0.90228 0.84016 0.45353 0.01400
C 	C 	0.85459 0.79229 0.41266 -0.06600
H 	H 	0.85949 0.55519 0.50901 0.03900
H 	H 	0.90791 0.66744 0.50859 0.05000
H 	H 	0.70722 0.49926 0.38534 0.03600
H 	H 	0.70981 0.58007 0.34565 0.04200
H 	H 	0.75808 0.69202 0.34355 0.04500
H 	H 	0.90863 0.74901 0.53208 0.04000
H 	H 	0.95609 0.86040 0.52917 0.04400
H 	H 	0.83848 0.80478 0.38016 0.04900
C 	C 	0.84022 0.08793 0.44239 -0.01100
C 	C 	0.88026 0.09723 0.40635 0.03400
C 	C 	0.89569 0.14182 0.37440 -0.04800
C 	C 	0.87371 0.17881 0.37913 -0.03200
C 	C 	0.83216 0.16870 0.41324 0.01000
C 	C 	0.81151 0.12000 0.44244 0.01300
C 	C 	0.76095 0.10278 0.46898 -0.05300
C 	C 	0.73872 0.13956 0.47302 0.00200
C 	C 	0.76488 0.19290 0.44930 -0.07000
C 	C 	0.81003 0.20602 0.41787 -0.01500
H 	H 	0.92670 0.14947 0.34705 0.04700
H 	H 	0.88838 0.21486 0.35565 0.05000
H 	H 	0.70090 0.12637 0.49463 0.03800
H 	H 	0.82799 0.24506 0.39722 0.06300
C 	C 	0.19278 0.09529 0.40379 -0.02700
C 	C 	0.23696 0.12207 0.45100 -0.00900
C 	C 	0.21311 0.10805 0.49748 0.03300
C 	C 	0.25516 0.12605 0.54385 -0.04500
C 	C 	0.32042 0.15691 0.54457 -0.03300
C 	C 	0.34550 0.17384 0.49954 0.01500
C 	C 	0.30442 0.15947 0.45286 0.01200
C 	C 	0.33197 0.18544 0.41023 -0.04800
C 	C 	0.39771 0.21794 0.41207 0.00400
C 	C 	0.43782 0.22837 0.45721 -0.05900
C 	C 	0.41165 0.20685 0.50109 -0.01800
H 	H 	0.20830 0.09715 0.36728 0.04100
H 	H 	0.23700 0.11473 0.57934 0.04900
H 	H 	0.35182 0.16876 0.58055 0.05800
H 	H 	0.30363 0.18371 0.37674 0.04700
H 	H 	0.41765 0.23598 0.37847 0.04500
H 	H 	0.44282 0.21695 0.53668 0.07200
C 	C 	0.76889 0.54157 0.99256 -0.05400
C 	C 	0.78068 0.58286 0.03705 -0.00300
C 	C 	0.81272 0.64754 0.03708 -0.05800
C 	C 	0.83655 0.67275 0.99309 0.02000
C 	C 	0.82121 0.63040 0.94727 0.01500
C 	C 	0.78896 0.56547 0.94768 -0.01800
C 	C 	0.83596 0.65289 0.90107 -0.03300
C 	C 	0.86480 0.71663 0.89957 -0.04500
C 	C 	0.88301 0.75987 0.94483 0.03300
C 	C 	0.87209 0.73892 0.99258 -0.00300
C 	C 	0.89955 0.78476 0.03855 -0.03400
C 	C 	0.93008 0.84876 0.03633 -0.05300
C 	C 	0.93654 0.86850 0.98874 0.02100
C 	C 	0.91384 0.82430 0.94316 -0.06600
H 	H 	0.76392 0.56465 0.07151 0.04200
H 	H 	0.81555 0.67677 0.07026 0.04600
H 	H 	0.77790 0.53331 0.91267 0.07100
H 	H 	0.82364 0.62052 0.86585 0.05900
H 	H 	0.87409 0.73269 0.86315 0.04900
H 	H 	0.90069 0.77191 0.07587 0.04000
H 	H 	0.95015 0.88333 0.07179 0.04400
H 	H 	0.92083 0.84021 0.90651 0.05000
C 	C 	0.95872 0.11096 0.02284 -0.05000
C 	C 	0.92486 0.13645 0.02719 -0.03700
C 	C 	0.86408 0.10621 0.99563 -0.00100
C 	C 	0.76426 0.09467 0.97277 0.00800
C 	C 	0.83003 0.13295 0.99636 0.02100
C 	C 	0.86120 0.19800 0.01599 -0.05900
C 	C 	0.82665 0.22301 0.01497 0.00200
C 	C 	0.76108 0.18432 0.99359 -0.06100
C 	C 	0.72968 0.11992 0.97365 -0.01700
H 	H 	0.00517 0.13455 0.04739 0.04100
H 	H 	0.94441 0.17725 0.05712 0.04200
H 	H 	0.84881 0.97725 0.93309 0.04500
H 	H 	0.74764 0.96331 0.91664 0.04000
H 	H 	0.91262 0.23031 0.02866 0.04800
H 	H 	0.85152 0.27326 0.02908 0.04500
H 	H 	0.67927 0.09047 0.95587 0.04100
C 	C 	0.26007 0.13274 0.96044 -0.01000
C 	C 	0.24233 0.16104 0.99573 0.04100
C 	C 	0.17732 0.13045 0.99800 -0.05400
C 	C 	0.28962 0.21949 0.02819 -0.05600
C 	C 	0.35432 0.24923 0.02693 -0.03600
C 	C 	0.37307 0.21889 0.99597 0.01400
C 	C 	0.32601 0.15893 0.96388 0.01900
C 	C 	0.34568 0.12441 0.93993 -0.04900
C 	C 	0.41087 0.15128 0.94469 0.01500
C 	C 	0.45730 0.21225 0.97378 -0.06600
C 	C 	0.43837 0.24614 0.99903 0.00400
H 	H 	0.16383 0.14962 0.02745 0.04000
H 	H 	0.27623 0.24231 0.05417 0.04600
H 	H 	0.39016 0.29497 0.05167 0.04300
H 	H 	0.42524 0.12418 0.92633 0.04200
H 	H 	0.47441 0.29257 0.02285 0.03000
