data_crystal

_cell_length_a 13.57254
_cell_length_b 14.89417
_cell_length_c 53.90863
_cell_angle_alpha 90.24871
_cell_angle_beta  90.24926
_cell_angle_gamma 119.39982

_symmetry_space_group_name_	'P 1'
_symmetry_space_group_name_H-M	'P 1'

loop_
_symmetry_equiv_pos_as_xyz
  x,y,z

loop_
_atom_site_label
_atom_site_type_symbol
_atom_site_fract_x
_atom_site_fract_y
_atom_site_fract_z
_atom_site_charge
S 	S 	0.90571 0.15962 0.99755 0.03200
C 	C 	0.29690 0.14603 0.00554 -0.02900
C 	C 	0.40308 0.23452 0.00405 -0.06400
C 	C 	0.85258 0.57100 0.00186 -0.07000
C 	C 	0.04445 0.20970 0.00181 -0.01500
C 	C 	0.25578 0.38065 0.01080 0.00400
H 	H 	0.13326 0.95530 0.02071 0.07500
S 	S 	0.33468 0.49548 0.02410 0.03300
S 	S 	0.90337 0.68798 0.01463 0.03600
C 	C 	0.19961 0.30961 0.02987 0.01600
C 	C 	0.09376 0.22270 0.02532 -0.04900
C 	C 	0.26795 0.10842 0.03007 0.04400
H 	H 	0.76088 0.41724 0.01809 0.04200
C 	C 	0.81598 0.49910 0.02117 -0.01800
C 	C 	0.19010 0.00523 0.03508 -0.12400
S 	S 	0.45890 0.26238 0.03255 0.02300
H 	H 	0.04498 0.17380 0.04050 0.04000
C 	C 	0.30662 0.46051 0.05373 -0.07200
C 	C 	0.35145 0.16890 0.04772 -0.01800
C 	C 	0.83622 0.54562 0.04504 0.02000
C 	C 	0.88838 0.65350 0.04426 0.00300
C 	C 	0.23158 0.35390 0.05391 -0.01700
C 	C 	0.19675 0.96488 0.05800 0.06500
S 	S 	0.15769 0.84156 0.06216 0.01600
C 	C 	0.87492 0.70965 0.06354 -0.05200
H 	H 	0.89773 0.78968 0.06100 0.05000
H 	H 	0.18591 0.31379 0.07038 0.04800
C 	C 	0.30265 0.52902 0.07299 0.30600
O 	O 	0.36225 0.62983 0.07063 -0.37100
C 	C 	0.36472 0.12559 0.06958 -0.02500
C 	C 	0.28572 0.02281 0.07477 -0.05200
C 	C 	0.77706 0.49254 0.06623 -0.05300
C 	C 	0.24389 0.85494 0.08569 -0.07900
H 	H 	0.72551 0.40931 0.06601 0.04700
C 	C 	0.28330 0.78088 0.09023 0.28800
O 	O 	0.20897 0.68056 0.08943 -0.36400
O 	O 	0.39405 0.81490 0.09092 -0.37200
C 	C 	0.31130 0.96076 0.09052 0.02100
H 	H 	0.44000 0.16727 0.08097 0.03700
Ni	Ni	0.46111 0.72311 0.09870 1.12100
O 	O 	0.22821 0.48847 0.09076 -0.37300
C 	C 	0.77698 0.55021 0.08685 -0.00100
C 	C 	0.82207 0.65757 0.08536 0.02000
O 	O 	0.52026 0.62451 0.10170 -0.39300
H 	H 	0.38726 0.99205 0.10187 0.04300
H 	H 	0.78300 0.77339 0.10066 0.04000
C 	C 	0.77159 0.69630 0.10221 -0.01800
Ni	Ni	0.19884 0.57556 0.11656 1.11300
O 	O 	0.58599 0.83360 0.12099 -0.37600
S 	S 	0.67339 0.50709 0.10742 0.02800
O 	O 	0.35349 0.66353 0.12441 -0.71000
H 	H 	0.34972 0.72530 0.12945 0.15600
C 	C 	0.58128 0.62611 0.12069 0.31200
C 	C 	0.68319 0.61922 0.11600 -0.07700
H 	H 	0.09790 0.15867 0.13197 0.03300
O 	O 	0.16177 0.64743 0.14525 -0.37000
S 	S 	0.04374 0.20257 0.14423 -0.05000
C 	C 	0.57805 0.85304 0.14503 0.29900
H 	H 	0.78820 0.87078 0.14669 0.05200
O 	O 	0.15626 0.45518 0.14169 -0.36400
O 	O 	0.33690 0.48833 0.14431 -0.38900
O 	O 	0.56272 0.65066 0.14300 -0.38700
C 	C 	0.23086 0.42994 0.14982 0.31000
Ni	Ni	0.41344 0.63828 0.15375 1.12100
O 	O 	0.49117 0.79023 0.15869 -0.39000
C 	C 	0.67879 0.92903 0.15848 -0.07600
C 	C 	0.76621 0.90595 0.16176 -0.01800
C 	C 	0.21521 0.66636 0.16691 0.28700
H 	H 	0.21120 0.03670 0.17517 0.03100
H 	H 	0.27903 0.86740 0.16658 0.05100
H 	H 	0.64339 0.14268 0.16220 0.04000
O 	O 	0.27511 0.62081 0.17297 -0.37400
C 	C 	0.11859 0.26195 0.17170 0.04300
S 	S 	0.57824 0.04453 0.17086 -0.07300
H 	H 	0.01890 0.96328 0.18487 0.03700
C 	C 	0.20461 0.36560 0.17195 -0.08800
C 	C 	0.19102 0.72339 0.18603 -0.06900
C 	C 	0.22821 0.82839 0.18262 -0.02800
C 	C 	0.66466 0.98945 0.17675 0.05700
C 	C 	0.81035 0.91038 0.18557 0.03800
S 	S 	0.91746 0.87756 0.18925 -0.01900
H 	H 	0.02349 0.12606 0.19356 0.03400
S 	S 	0.25900 0.01760 0.19546 -0.06500
H 	H 	0.98143 0.48253 0.20066 0.04600
C 	C 	0.09249 0.20475 0.19354 -0.02900
C 	C 	0.20086 0.88372 0.19975 0.05800
C 	C 	0.26678 0.40938 0.19380 -0.01000
H 	H 	0.33482 0.48862 0.19388 0.02100
C 	C 	0.12821 0.67331 0.20721 0.03800
S 	S 	0.08298 0.54202 0.21245 -0.03300
C 	C 	0.77175 0.94585 0.20580 -0.07500
C 	C 	0.70769 0.99458 0.20070 0.01000
C 	C 	0.15019 0.25043 0.21577 -0.07200
C 	C 	0.23866 0.35346 0.21577 0.03400
C 	C 	0.13180 0.83196 0.22045 -0.07000
C 	C 	0.09921 0.72742 0.22422 -0.02300
H 	H 	0.68643 0.03150 0.21548 0.02500
C 	C 	0.79284 0.92857 0.23203 0.28600
C 	C 	0.08986 0.88323 0.23805 0.28800
H 	H 	0.05068 0.68774 0.24043 0.05000
O 	O 	0.81445 0.85289 0.23748 -0.37100
C 	C 	0.10311 0.19628 0.23908 0.28000
O 	O 	0.15330 0.98374 0.24249 -0.35400
O 	O 	0.99552 0.16591 0.24377 -0.37800
C 	C 	0.08830 0.17611 0.31200 0.30200
C 	C 	0.05781 0.87086 0.30750 0.30100
Ni	Ni	0.13952 0.05543 0.27444 1.09900
O 	O 	0.00600 0.82278 0.25325 -0.37900
O 	O 	0.13153 0.11506 0.30884 -0.38800
O 	O 	0.03443 0.19237 0.29379 -0.38000
O 	O 	0.13843 0.93194 0.29242 -0.36100
O 	O 	0.17136 0.19132 0.25619 -0.36900
H 	H 	0.99153 0.00235 0.24914 0.11500
C 	C 	0.12119 0.24318 0.33407 -0.07700
C 	C 	0.04855 0.21387 0.35447 -0.02900
S 	S 	0.98638 0.23689 0.40123 -0.03600
H 	H 	0.97001 0.14117 0.35405 0.04200
C 	C 	0.19016 0.75227 0.34798 -0.02300
C 	C 	0.15064 0.77863 0.32679 0.03800
C 	C 	0.08675 0.82961 0.32925 -0.07600
H 	H 	0.24022 0.71402 0.34611 0.04100
C 	C 	0.02556 0.82924 0.53379 -0.06300
C 	C 	0.02646 0.81024 0.50832 0.00900
C 	C 	0.10342 0.77172 0.47361 -0.08200
C 	C 	0.12622 0.82912 0.49558 -0.01200
H 	H 	0.10377 0.87733 0.54378 0.05200
S 	S 	0.30928 0.41606 0.24337 -0.02800
C 	C 	0.07684 0.27800 0.37542 0.03400
H 	H 	0.90979 0.27124 0.39910 0.03700
O 	O 	0.13463 0.68260 0.40974 -0.38500
C 	C 	0.16478 0.77438 0.37160 -0.07200
C 	C 	0.20513 0.44577 0.39668 0.28400
C 	C 	0.19718 0.45922 0.46826 0.30800
C 	C 	0.18322 0.74448 0.46235 0.31000
C 	C 	0.20847 0.74734 0.39348 0.29000
Ni	Ni	0.39283 0.57669 0.43434 1.11200
Ni	Ni	0.38484 0.79224 0.43127 1.12100
Ni	Ni	0.15421 0.57738 0.42981 1.12100
O 	O 	0.27238 0.44557 0.41474 -0.36700
O 	O 	0.14498 0.49380 0.39928 -0.37800
O 	O 	0.26721 0.81426 0.44912 -0.37800
O 	O 	0.44632 0.78172 0.46460 -0.38300
O 	O 	0.30762 0.51784 0.46748 -0.37200
O 	O 	0.13438 0.45301 0.44911 -0.38200
O 	O 	0.31762 0.80482 0.39906 -0.38200
O 	O 	0.15841 0.64749 0.46183 -0.39300
O 	O 	0.31356 0.64718 0.42629 -0.71300
H 	H 	0.31690 0.64568 0.40807 0.14900
C 	C 	0.17799 0.37351 0.37580 -0.07000
C 	C 	0.25176 0.40174 0.35563 -0.02900
C 	C 	0.22425 0.33696 0.33483 0.04000
S 	S 	0.31952 0.37398 0.30995 -0.03600
H 	H 	0.39094 0.33449 0.31327 0.03400
H 	H 	0.33007 0.47470 0.35600 0.04300
C 	C 	0.05870 0.84902 0.35289 -0.01900
C 	C 	0.09794 0.82244 0.37407 0.03900
S 	S 	0.06722 0.85402 0.40352 -0.02500
H 	H 	0.15216 0.94933 0.41065 0.04600
H 	H 	0.00968 0.88822 0.35479 0.04900
H 	H 	0.20963 0.86917 0.50402 0.04400
C 	C 	0.19970 0.17066 0.54321 -0.00100
C 	C 	0.17935 0.18018 0.51815 -0.05500
C 	C 	0.13994 0.24825 0.51180 0.01400
C 	C 	0.12434 0.30705 0.53026 0.00100
C 	C 	0.15549 0.30516 0.55489 -0.05300
C 	C 	0.19234 0.23539 0.56138 0.01500
C 	C 	0.32640 0.20069 0.58028 -0.07000
C 	C 	0.26279 0.25123 0.58229 -0.02000
S 	S 	0.13192 0.41049 0.51683 0.02500
C 	C 	0.14710 0.38194 0.48766 -0.07700
C 	C 	0.15258 0.29056 0.48775 -0.01700
H 	H 	0.20287 0.14280 0.50391 0.04300
H 	H 	0.16026 0.36218 0.56812 0.04800
H 	H 	0.18191 0.26479 0.47203 0.03900
C 	C 	0.53366 0.76710 0.46609 0.30500
C 	C 	0.52835 0.74264 0.39748 0.28400
O 	O 	0.53228 0.68874 0.45441 -0.36400
O 	O 	0.49127 0.64448 0.40316 -0.36800
O 	O 	0.52718 0.80861 0.41406 -0.37500
H 	H 	0.43983 0.70678 0.35157 0.04000
C 	C 	0.64209 0.85177 0.47499 -0.07500
S 	S 	0.29562 0.13972 0.55293 0.01100
C 	C 	0.59061 0.78291 0.37421 -0.06800
C 	C 	0.53073 0.75725 0.35168 -0.02600
C 	C 	0.77548 0.02975 0.49155 -0.03800
C 	C 	0.76872 0.95057 0.50684 0.04200
S 	S 	0.68689 0.97491 0.46787 0.04200
C 	C 	0.69285 0.85003 0.49758 -0.02100
H 	H 	0.66415 0.78100 0.50857 0.04400
S 	S 	0.50718 0.77216 0.30174 -0.02600
H 	H 	0.47311 0.84415 0.29874 0.04500
C 	C 	0.58693 0.79873 0.32935 0.04300
C 	C 	0.80372 0.12671 0.50138 -0.04400
C 	C 	0.80357 0.97132 0.53176 -0.03700
H 	H 	0.78921 0.18081 0.49077 0.04200
H 	H 	0.78965 0.90960 0.54431 0.05000
C 	C 	0.70870 0.84917 0.37435 0.03600
S 	S 	0.78723 0.87987 0.40222 -0.02000
C 	C 	0.70529 0.86483 0.32945 -0.08300
C 	C 	0.76515 0.88983 0.35202 -0.01300
H 	H 	0.79390 0.96717 0.41238 0.04700
C 	C 	0.84215 0.14834 0.52601 0.02000
C 	C 	0.84867 0.07300 0.54043 -0.01500
S 	S 	0.85001 0.10507 0.57003 0.03000
C 	C 	0.84853 0.21575 0.56595 -0.06600
C 	C 	0.84120 0.22821 0.54036 -0.02100
H 	H 	0.81887 0.28300 0.53267 0.04100
H 	H 	0.68672 0.54323 0.54543 0.04100
H 	H 	0.25168 0.45906 0.25457 0.04400
C 	C 	0.76759 0.90860 0.30626 0.33600
O 	O 	0.75617 0.84734 0.28751 -0.38700
H 	H 	0.85598 0.94043 0.35218 0.05100
C 	C 	0.79283 0.63746 0.57619 -0.06900
C 	C 	0.75369 0.61784 0.55162 -0.02200
O 	O 	0.78137 0.98399 0.25008 -0.36200
H 	H 	0.75832 0.60889 0.50080 0.04800
C 	C 	0.82710 0.69500 0.53490 0.01500
C 	C 	0.82803 0.67594 0.50946 -0.05500
O 	O 	0.83155 0.00902 0.30434 -0.42100
H 	H 	0.09062 0.64948 0.29054 0.03600
S 	S 	0.91660 0.74679 0.57646 0.03500
Ni	Ni	0.88979 0.85316 0.26986 1.12200
C 	C 	0.92641 0.73801 0.49613 0.01200
Ni	Ni	0.91184 0.07746 0.27288 1.11200
C 	C 	0.92345 0.77513 0.54656 0.01000
O 	O 	0.95231 0.84825 0.30375 -0.37900
S 	S 	0.17804 0.74402 0.29736 -0.02700
S 	S 	0.96350 0.69775 0.47091 0.03000
O 	O 	0.98531 0.99797 0.26731 -0.67500
C 	C 	0.79968 0.25500 0.58434 0.28800
H 	H 	0.28055 0.31035 0.59613 0.04000
C 	C 	0.43657 0.23938 0.59247 0.29300
O 	O 	0.68791 0.20502 0.58700 -0.37700
C 	C 	0.76825 0.55452 0.59368 0.28700
O 	O 	0.83844 0.51615 0.59462 -0.36700
O 	O 	0.49976 0.34035 0.59615 -0.38900
H 	H 	0.67833 0.35179 0.59973 0.16000
O 	O 	0.86903 0.32415 0.60100 -0.36100
O 	O 	0.46358 0.17108 0.60184 -0.37700
O 	O 	0.69569 0.53907 0.61189 -0.37300
Ni	Ni	0.61007 0.19888 0.61939 1.12100
O 	O 	0.68028 0.34451 0.61785 -0.72200
Ni	Ni	0.83662 0.42319 0.62347 1.11400
Ni	Ni	0.58732 0.39995 0.62762 1.12100
H 	H 	0.84613 0.77565 0.64235 0.05000
O 	O 	0.73970 0.18925 0.63583 -0.37700
O 	O 	0.46157 0.27996 0.64529 -0.39300
O 	O 	0.84326 0.53955 0.64634 -0.36900
S 	S 	0.75231 0.71961 0.65659 -0.03400
H 	H 	0.25310 0.10758 0.66114 0.04600
O 	O 	0.54383 0.18140 0.65342 -0.39400
C 	C 	0.79264 0.24428 0.65551 0.30600
O 	O 	0.83523 0.34464 0.65528 -0.37600
C 	C 	0.47917 0.21969 0.66018 0.31200
O 	O 	0.66367 0.44830 0.66117 -0.38400
C 	C 	0.76851 0.52245 0.66368 0.30700
C 	C 	0.29089 0.12200 0.67951 -0.02200
S 	S 	0.61312 0.02097 0.67140 -0.05400
C 	C 	0.82342 0.19695 0.67605 -0.07700
C 	C 	0.79243 0.68306 0.68421 0.03900
H 	H 	0.99234 0.32635 0.67948 0.05200
H 	H 	0.04504 0.90988 0.69256 0.04700
S 	S 	0.07405 0.01102 0.69613 -0.04900
C 	C 	0.40867 0.17847 0.68227 -0.07900
C 	C 	0.22165 0.08417 0.70031 0.04100
H 	H 	0.53073 0.03031 0.68384 0.04400
C 	C 	0.74493 0.09983 0.68582 0.04400
C 	C 	0.80015 0.59212 0.68522 -0.07600
C 	C 	0.93008 0.25375 0.68740 -0.02200
C 	C 	0.95715 0.21793 0.70888 0.05200
C 	C 	0.81821 0.74609 0.70529 -0.02000
H 	H 	0.81300 0.81638 0.70443 0.05100
S 	S 	0.09505 0.28874 0.72120 -0.05400
C 	C 	0.45785 0.19521 0.70614 0.03500
C 	C 	0.77098 0.06521 0.70761 -0.04100
C 	C 	0.83351 0.56533 0.70736 -0.01800
S 	S 	0.60528 0.27033 0.71036 -0.02700
H 	H 	0.65093 0.20708 0.71344 0.04000
H 	H 	0.70879 0.99235 0.71543 0.05900
H 	H 	0.83852 0.49496 0.70823 0.04800
C 	C 	0.87553 0.12443 0.71966 -0.06900
C 	C 	0.27051 0.10316 0.72423 -0.08100
C 	C 	0.85389 0.72046 0.72726 -0.07900
H 	H 	0.09854 0.35880 0.73823 0.03400
C 	C 	0.38852 0.15640 0.72694 -0.02000
C 	C 	0.86023 0.62890 0.72838 0.03800
C 	C 	0.89873 0.08544 0.74292 0.29400
O 	O 	0.14066 0.12884 0.74903 -0.39300
C 	C 	0.19961 0.08125 0.74629 0.31100
O 	O 	0.84740 0.98569 0.74667 -0.36600
C 	C 	0.89249 0.79344 0.74820 0.32500
H 	H 	0.42626 0.17159 0.74533 0.04800
O 	O 	0.00083 0.85919 0.75079 -0.40200
S 	S 	0.89994 0.59239 0.75606 -0.01600
O 	O 	0.81867 0.79094 0.76426 -0.37300
O 	O 	0.95378 0.14953 0.76120 -0.36600
Ni	Ni	0.07394 0.13798 0.78138 1.11400
Ni	Ni	0.07434 0.92347 0.78382 1.11600
O 	O 	0.20874 0.02705 0.76444 -0.39300
H 	H 	0.66976 0.15913 0.79612 0.04100
H 	H 	0.01526 0.63525 0.75691 0.02100
Ni	Ni	0.83458 0.92291 0.78157 1.11500
O 	O 	0.99102 0.99425 0.78767 -0.70100
S 	S 	0.77001 0.23425 0.80592 -0.02300
O 	O 	0.81761 0.04170 0.79877 -0.37500
O 	O 	0.95329 0.79944 0.80272 -0.36600
O 	O 	0.20995 0.15653 0.80155 -0.37600
H 	H 	0.99039 0.99725 0.80591 0.15600
S 	S 	0.43416 0.09625 0.82194 -0.04600
H 	H 	0.39671 0.99294 0.82433 0.04700
O 	O 	0.00002 0.16034 0.81151 -0.39800
O 	O 	0.81895 0.84439 0.81433 -0.36700
H 	H 	0.74774 0.59980 0.82071 0.05200
C 	C 	0.88945 0.10700 0.81563 0.30300
O 	O 	0.16162 0.99196 0.81494 -0.37900
C 	C 	0.20565 0.09249 0.81922 0.27400
C 	C 	0.88461 0.80400 0.81963 0.28500
C 	C 	0.79261 0.19550 0.83524 0.03900
C 	C 	0.78189 0.63211 0.83886 -0.02200
C 	C 	0.84460 0.13390 0.83746 -0.07600
C 	C 	0.37557 0.13690 0.84560 0.03900
C 	C 	0.27231 0.13616 0.84194 -0.07200
C 	C 	0.85694 0.73791 0.84144 -0.06500
H 	H 	0.54185 0.42395 0.85831 0.04700
C 	C 	0.76194 0.22951 0.85661 -0.02200
H 	H 	0.72254 0.27718 0.85489 0.04700
S 	S 	0.64852 0.43689 0.85595 -0.03200
H 	H 	0.51413 0.17439 0.87071 0.05100
C 	C 	0.74889 0.56821 0.85962 0.04100
C 	C 	0.43440 0.17322 0.86802 -0.02800
C 	C 	0.23026 0.17372 0.86061 -0.03200
H 	H 	0.90417 0.05914 0.86276 0.04100
C 	C 	0.89984 0.78023 0.86507 0.03100
C 	C 	0.86398 0.10620 0.86103 -0.02300
H 	H 	0.15040 0.17252 0.85786 0.04100
S 	S 	0.99680 0.91238 0.86879 -0.02000
H 	H 	0.10473 0.92766 0.86739 0.03500
C 	C 	0.79300 0.61020 0.88322 -0.07900
C 	C 	0.78459 0.20436 0.88021 -0.07700
C 	C 	0.83380 0.14046 0.88237 0.04000
C 	C 	0.39278 0.21120 0.88665 -0.07900
C 	C 	0.28957 0.21067 0.88300 0.04100
C 	C 	0.86725 0.71624 0.88584 -0.01500
C 	C 	0.75573 0.24433 0.90240 0.30800
C 	C 	0.46137 0.25746 0.90901 0.30400
C 	C 	0.76776 0.54330 0.90487 0.30700
O 	O 	0.80550 0.47740 0.90568 -0.38300
O 	O 	0.64923 0.20043 0.90929 -0.39400
H 	H 	0.90147 0.74860 0.90398 0.05100
S 	S 	0.23240 0.25340 0.90653 -0.04600
O 	O 	0.51440 0.35805 0.91175 -0.37400
S 	S 	0.85642 0.10138 0.91162 -0.03500
O 	O 	0.71403 0.55446 0.92376 -0.37100
O 	O 	0.83799 0.31068 0.91692 -0.38900
H 	H 	0.96481 0.16755 0.91928 0.04600
O 	O 	0.45658 0.19785 0.92741 -0.37800
H 	H 	0.16668 0.17274 0.92178 0.03700
Ni	Ni	0.83083 0.42064 0.93771 1.12000
H 	H 	0.24233 0.43053 0.97408 0.04600
Ni	Ni	0.59781 0.42982 0.94438 1.11400
Ni	Ni	0.59763 0.20904 0.94369 1.12000
O 	O 	0.67633 0.35485 0.94677 -0.71400
O 	O 	0.71763 0.18362 0.96061 -0.37400
O 	O 	0.85997 0.54894 0.95766 -0.36900
C 	C 	0.02157 0.28758 0.96592 -0.04100
H 	H 	0.04756 0.34937 0.95261 0.03700
O 	O 	0.46316 0.31924 0.96507 -0.36600
H 	H 	0.68541 0.35671 0.96491 0.15000
C 	C 	0.82279 0.25454 0.96718 0.29100
O 	O 	0.85601 0.35413 0.96733 -0.38800
C 	C 	0.90766 0.22277 0.97193 -0.05800
C 	C 	0.20577 0.36848 0.98740 -0.05400
C 	C 	0.09851 0.28308 0.98307 0.02400
H 	H 	0.25150 0.10110 0.98936 0.04400
C 	C 	0.47254 0.25906 0.98187 0.28400
O 	O 	0.52128 0.20246 0.97657 -0.37300
O 	O 	0.68994 0.51482 0.97512 -0.36700
C 	C 	0.79932 0.54542 0.97730 0.28700
