data_crystal

_cell_length_a 24.48845
_cell_length_b 25.20140
_cell_length_c 40.15933
_cell_angle_alpha 60.79797
_cell_angle_beta  118.91155
_cell_angle_gamma 133.22237

_symmetry_space_group_name_	'P 1'
_symmetry_space_group_name_H-M	'P 1'

loop_
_symmetry_equiv_pos_as_xyz
  x,y,z

loop_
_atom_site_label
_atom_site_type_symbol
_atom_site_fract_x
_atom_site_fract_y
_atom_site_fract_z
_atom_site_charge
C 	C 	0.69857 0.29385 0.02847 0.11400
N 	N 	0.75280 0.36937 0.02460 -0.13900
C 	C 	0.74239 0.40870 0.03214 0.11600
N 	N 	0.67843 0.37262 0.04366 -0.13900
C 	C 	0.62482 0.29772 0.04784 0.11600
N 	N 	0.63487 0.25832 0.04031 -0.14000
C 	C 	0.70752 0.27685 0.52137 0.11200
N 	N 	0.63331 0.23864 0.52198 -0.14000
C 	C 	0.61505 0.26591 0.53378 0.11500
N 	N 	0.67064 0.33126 0.54490 -0.13900
C 	C 	0.74432 0.37072 0.54357 0.11400
N 	N 	0.76302 0.34375 0.53168 -0.14000
C 	C 	0.27162 0.66834 0.16807 0.11200
N 	N 	0.34741 0.71429 0.16726 -0.13900
C 	C 	0.37664 0.68920 0.16196 0.11500
N 	N 	0.33011 0.61909 0.15696 -0.13900
C 	C 	0.25517 0.57292 0.15796 0.11500
N 	N 	0.22578 0.59717 0.16379 -0.13900
C 	C 	0.29884 0.63208 0.69274 0.11200
N 	N 	0.37405 0.65807 0.70403 -0.13900
C 	C 	0.39323 0.61568 0.70783 0.11500
N 	N 	0.33684 0.54545 0.70221 -0.13900
C 	C 	0.26149 0.51819 0.69100 0.11300
N 	N 	0.24216 0.56191 0.68587 -0.13700
Co	Co	0.05311 0.03761 0.04897 1.18700
Co	Co	0.94235 0.93551 0.14455 1.18400
Co	Co	0.98448 0.07445 0.08076 1.18000
Co	Co	0.01269 0.89908 0.11265 1.18700
C 	C 	0.21381 0.11202 0.05193 0.30500
Co	Co	0.11191 0.94905 0.05659 1.16700
Co	Co	0.91246 0.04522 0.14308 1.16300
C 	C 	0.97268 0.79283 0.07684 0.28700
O 	O 	0.82941 0.03332 0.09123 -0.39800
O 	O 	0.94566 0.01397 0.12033 -0.76500
C 	C 	0.85001 0.08117 0.05802 0.29500
O 	O 	0.03338 0.11070 0.03855 -0.46400
O 	O 	0.95716 0.85951 0.15283 -0.46800
C 	C 	0.79634 0.88047 0.15516 0.30300
O 	O 	0.97183 0.97193 0.08805 -0.58600
C 	C 	0.05444 0.19101 0.11858 0.31600
C 	C 	0.02604 0.99328 0.97937 0.30600
C 	C 	0.16195 0.91357 0.14249 0.29400
O 	O 	0.89623 0.08826 0.04532 -0.38300
O 	O 	0.03046 0.93709 0.00401 -0.39400
O 	O 	0.01959 0.03001 0.99097 -0.37600
O 	O 	0.84136 0.93566 0.17206 -0.41200
O 	O 	0.82575 0.86593 0.14328 -0.38700
O 	O 	0.98280 0.15802 0.11680 -0.42300
O 	O 	0.07128 0.16148 0.10874 -0.39800
O 	O 	0.18699 0.96267 0.11069 -0.39900
O 	O 	0.11193 0.90610 0.15218 -0.38500
O 	O 	0.05050 0.96000 0.07252 -0.75800
C 	C 	0.00386 0.99778 0.21419 0.33100
O 	O 	0.00171 0.05593 0.19184 -0.39700
O 	O 	0.00794 0.96345 0.19947 -0.39000
O 	O 	0.18219 0.06352 0.03289 -0.41100
O 	O 	0.17147 0.10687 0.06603 -0.40400
O 	O 	0.04715 0.83386 0.08038 -0.40100
O 	O 	0.94499 0.80668 0.09047 -0.39000
Co	Co	0.05706 0.00508 0.56134 1.18700
Co	Co	0.93885 0.90369 0.65310 1.18100
Co	Co	0.98287 0.03981 0.59187 1.17400
Co	Co	0.01759 0.86852 0.62513 1.18500
C 	C 	0.20635 0.06740 0.55462 0.30500
Co	Co	0.09313 0.90382 0.56118 1.16800
Co	Co	0.86280 0.98464 0.63515 1.16800
C 	C 	0.95796 0.75024 0.59047 0.29000
O 	O 	0.81586 0.00956 0.57619 -0.38800
O 	O 	0.92117 0.96750 0.62116 -0.76000
C 	C 	0.86046 0.06811 0.55233 0.29500
O 	O 	0.05439 0.08558 0.55896 -0.46500
O 	O 	0.97893 0.84328 0.66949 -0.47200
C 	C 	0.77820 0.82000 0.66211 0.29300
O 	O 	0.97262 0.93865 0.59845 -0.58000
C 	C 	0.02459 0.13209 0.63858 0.30300
C 	C 	0.00669 0.95432 0.48831 0.31500
C 	C 	0.15801 0.87258 0.64570 0.28900
O 	O 	0.91237 0.07195 0.54702 -0.38500
O 	O 	0.00486 0.89424 0.51202 -0.39500
O 	O 	0.01698 0.00042 0.50195 -0.37700
O 	O 	0.77201 0.87412 0.63620 -0.38500
O 	O 	0.82839 0.81361 0.66308 -0.38100
O 	O 	0.95015 0.09938 0.63083 -0.41900
O 	O 	0.05017 0.10795 0.63060 -0.40200
O 	O 	0.17754 0.91861 0.61229 -0.39300
O 	O 	0.11772 0.87228 0.65924 -0.38100
O 	O 	0.04594 0.92313 0.58214 -0.75600
C 	C 	0.97346 0.97005 0.71247 0.30800
O 	O 	0.90406 0.95490 0.69558 -0.41100
O 	O 	0.00304 0.95944 0.69784 -0.39800
O 	O 	0.16425 0.01635 0.53513 -0.41100
O 	O 	0.17527 0.06521 0.57476 -0.40200
O 	O 	0.02902 0.78995 0.58799 -0.39800
O 	O 	0.94053 0.76943 0.60734 -0.39000
C 	C 	0.02806 0.99486 0.88330 0.01200
C 	C 	0.03342 0.05748 0.85321 -0.03700
C 	C 	0.02388 0.06315 0.81445 -0.04400
C 	C 	0.01033 0.00713 0.80536 0.02300
C 	C 	0.00694 0.94554 0.83562 -0.03300
C 	C 	0.01602 0.93963 0.87430 -0.04100
C 	C 	0.98539 0.00642 0.76350 -0.02400
C 	C 	0.01097 0.98676 0.74941 -0.13300
C 	C 	0.04495 0.99086 0.92521 0.00100
C 	C 	0.01563 0.00748 0.93684 -0.12400
H 	H 	0.04579 0.10212 0.85978 0.04300
H 	H 	0.02603 0.11069 0.79139 0.04400
H 	H 	0.99495 0.90107 0.82908 0.03700
H 	H 	0.01333 0.89181 0.89730 0.04300
H 	H 	0.94620 0.02189 0.74325 0.03700
H 	H 	0.05987 0.98428 0.76727 0.07700
H 	H 	0.07757 0.96860 0.94728 0.03200
H 	H 	0.98374 0.03068 0.91524 0.06300
C 	C 	0.00148 0.98572 0.31241 0.01000
C 	C 	0.05846 0.97848 0.34327 -0.03600
C 	C 	0.06174 0.96539 0.38223 -0.04000
C 	C 	0.00871 0.96028 0.39081 0.01400
C 	C 	0.95096 0.96633 0.35998 -0.04500
C 	C 	0.94777 0.97950 0.32105 -0.04300
C 	C 	0.00826 0.93864 0.43260 0.01400
C 	C 	0.99863 0.97169 0.44566 -0.15000
C 	C 	0.00523 0.01245 0.27080 0.02400
C 	C 	0.01226 0.97852 0.25494 -0.16600
H 	H 	0.10137 0.98482 0.33712 0.04200
H 	H 	0.10573 0.95946 0.40575 0.03800
H 	H 	0.90796 0.95990 0.36609 0.04300
H 	H 	0.90394 0.98569 0.29752 0.03900
H 	H 	0.02143 0.89866 0.45349 0.02900
H 	H 	0.98996 0.01494 0.42537 0.07200
H 	H 	0.99568 0.05543 0.25146 0.01800
H 	H 	0.01924 0.93380 0.27391 0.08600
C 	C 	0.07955 0.20336 0.65100 -0.07800
C 	C 	0.14683 0.21755 0.68056 0.01100
C 	C 	0.19292 0.27951 0.69625 -0.06500
C 	C 	0.17255 0.32847 0.68225 0.03200
C 	C 	0.10578 0.31537 0.65207 -0.00000
C 	C 	0.05935 0.25272 0.63670 -0.01100
C 	C 	0.08623 0.36514 0.63758 -0.03800
C 	C 	0.13433 0.42911 0.65196 -0.02900
C 	C 	0.20197 0.44354 0.68142 -0.00500
C 	C 	0.21906 0.39117 0.69758 -0.05400
H 	H 	0.16226 0.17938 0.69227 0.03500
H 	H 	0.24427 0.28923 0.71937 0.04700
H 	H 	0.00695 0.24156 0.61422 0.04400
H 	H 	0.03472 0.35527 0.61455 0.04100
H 	H 	0.12024 0.46858 0.63921 0.04600
H 	H 	0.27006 0.40078 0.72104 0.05100
C 	C 	0.71628 0.75712 0.68302 -0.07500
C 	C 	0.65903 0.68978 0.67092 0.01500
C 	C 	0.58553 0.64272 0.67785 -0.06500
C 	C 	0.56861 0.66320 0.69657 0.03200
C 	C 	0.62821 0.72697 0.71219 0.00100
C 	C 	0.70253 0.77221 0.70646 -0.01500
C 	C 	0.61131 0.74826 0.73039 -0.04000
C 	C 	0.53498 0.70995 0.73047 -0.02900
C 	C 	0.47469 0.64936 0.71274 -0.00700
C 	C 	0.49216 0.62409 0.69731 -0.05300
H 	H 	0.66956 0.67680 0.65353 0.03700
H 	H 	0.54076 0.59267 0.66672 0.04800
H 	H 	0.74755 0.82326 0.71676 0.03500
H 	H 	0.65692 0.79617 0.74323 0.03900
H 	H 	0.52262 0.72839 0.74363 0.04400
H 	H 	0.44610 0.57664 0.68410 0.05200
C 	C 	0.28074 0.68496 0.68241 -0.00500
C 	C 	0.33357 0.76204 0.66737 -0.02900
C 	C 	0.32442 0.81457 0.66246 -0.04000
C 	C 	0.26066 0.79112 0.67104 0.00100
C 	C 	0.20512 0.71379 0.68461 0.03000
C 	C 	0.21579 0.66062 0.69081 -0.05300
C 	C 	0.13911 0.69067 0.69103 -0.06200
C 	C 	0.12677 0.74371 0.68210 0.01100
C 	C 	0.18111 0.82061 0.66754 -0.07500
C 	C 	0.25004 0.84411 0.66438 -0.01500
H 	H 	0.38279 0.78155 0.65999 0.04400
H 	H 	0.36668 0.87371 0.65144 0.04000
H 	H 	0.17461 0.60139 0.70237 0.05100
H 	H 	0.09602 0.63160 0.70156 0.04900
H 	H 	0.07311 0.72447 0.68447 0.03600
H 	H 	0.29282 0.90341 0.65381 0.04300
C 	C 	0.20682 0.49639 0.15329 -0.00600
C 	C 	0.16126 0.43455 0.17999 -0.02900
C 	C 	0.12918 0.36177 0.18130 -0.03700
C 	C 	0.14188 0.35006 0.15567 -0.00200
C 	C 	0.18571 0.41180 0.12796 0.03400
C 	C 	0.21724 0.48460 0.12659 -0.05400
C 	C 	0.19705 0.39980 0.10183 -0.06700
C 	C 	0.16081 0.32657 0.10154 0.01600
C 	C 	0.11373 0.26490 0.12764 -0.08400
C 	C 	0.10874 0.27717 0.15637 -0.00500
H 	H 	0.15332 0.44306 0.20083 0.04400
H 	H 	0.09495 0.31459 0.20243 0.04000
H 	H 	0.25173 0.53230 0.10561 0.05100
H 	H 	0.23170 0.44693 0.08086 0.04800
H 	H 	0.16550 0.31779 0.07946 0.03400
H 	H 	0.07381 0.22946 0.17718 0.03600
C 	C 	0.71308 0.83238 0.15190 -0.08100
C 	C 	0.67387 0.75462 0.16784 0.01500
C 	C 	0.60091 0.71152 0.17435 -0.06600
C 	C 	0.56647 0.74593 0.16485 0.03300
C 	C 	0.60403 0.82350 0.14698 -0.00100
C 	C 	0.67667 0.86614 0.14006 -0.01000
C 	C 	0.56922 0.85776 0.13710 -0.03900
C 	C 	0.49672 0.81485 0.14415 -0.03000
C 	C 	0.45856 0.73739 0.16139 -0.00700
C 	C 	0.49494 0.70370 0.17288 -0.05400
H 	H 	0.70146 0.72816 0.17702 0.03500
H 	H 	0.57194 0.65173 0.18754 0.04800
H 	H 	0.70665 0.92618 0.12730 0.03600
H 	H 	0.59779 0.91740 0.12350 0.03800
H 	H 	0.46924 0.84138 0.13503 0.04200
H 	H 	0.46642 0.64419 0.18702 0.05200
C 	C 	0.19047 0.86684 0.16718 -0.07900
C 	C 	0.27041 0.90256 0.18119 0.01300
C 	C 	0.30222 0.86729 0.18833 -0.06600
C 	C 	0.25440 0.79608 0.18121 0.03100
C 	C 	0.17355 0.75688 0.17095 0.00200
C 	C 	0.14192 0.79147 0.16558 -0.01400
C 	C 	0.12561 0.68613 0.16333 -0.04000
C 	C 	0.15751 0.65665 0.16328 -0.03000
C 	C 	0.23810 0.69683 0.17166 -0.00500
C 	C 	0.28640 0.76550 0.18202 -0.05400
H 	H 	0.30840 0.96007 0.18345 0.03300
H 	H 	0.36428 0.89711 0.19732 0.04700
H 	H 	0.07994 0.76248 0.15640 0.04400
H 	H 	0.06348 0.65482 0.15625 0.04200
H 	H 	0.11934 0.60324 0.15588 0.04500
H 	H 	0.34850 0.79598 0.18965 0.05100
C 	C 	0.72805 0.24331 0.51166 -0.00700
C 	C 	0.66933 0.18043 0.49545 -0.02900
C 	C 	0.68588 0.13861 0.49392 -0.03900
C 	C 	0.76148 0.15973 0.50794 -0.00100
C 	C 	0.82210 0.22749 0.52004 0.03000
C 	C 	0.80519 0.26912 0.52194 -0.05500
C 	C 	0.89813 0.24976 0.53269 -0.06700
C 	C 	0.91253 0.20106 0.53756 0.01000
C 	C 	0.85099 0.12912 0.53090 -0.08100
C 	C 	0.77647 0.11117 0.51301 -0.01000
H 	H 	0.61027 0.16227 0.48531 0.04400
H 	H 	0.63937 0.08827 0.48312 0.04000
H 	H 	0.85130 0.31904 0.53314 0.04900
H 	H 	0.94561 0.30298 0.54062 0.04200
H 	H 	0.97080 0.21667 0.54978 0.02800
H 	H 	0.72924 0.05675 0.50632 0.04200
C 	C 	0.80169 0.44506 0.55210 -0.00800
C 	C 	0.84660 0.50743 0.52524 -0.02900
C 	C 	0.88274 0.58010 0.52618 -0.03900
C 	C 	0.87437 0.59102 0.55407 -0.00100
C 	C 	0.83301 0.52870 0.58257 0.03200
C 	C 	0.79861 0.45615 0.58207 -0.05300
C 	C 	0.82509 0.53970 0.61063 -0.06600
C 	C 	0.86043 0.61237 0.61124 0.01200
C 	C 	0.90364 0.67466 0.58368 -0.07700
C 	C 	0.90755 0.66343 0.55410 -0.01100
H 	H 	0.84981 0.49951 0.50220 0.04200
H 	H 	0.91561 0.62773 0.50462 0.03700
H 	H 	0.76543 0.40798 0.60345 0.04800
H 	H 	0.79279 0.49213 0.63241 0.04600
H 	H 	0.85720 0.62036 0.63424 0.03600
H 	H 	0.93991 0.71152 0.53240 0.03300
C 	C 	0.28816 0.12539 0.55407 -0.08300
C 	C 	0.34397 0.14336 0.58913 0.01500
C 	C 	0.42049 0.17693 0.59189 -0.06600
C 	C 	0.44122 0.19120 0.55983 0.03200
C 	C 	0.38603 0.17721 0.52387 -0.00100
C 	C 	0.31093 0.14821 0.52068 -0.01000
C 	C 	0.40543 0.18819 0.49231 -0.03900
C 	C 	0.47907 0.21266 0.49644 -0.02800
C 	C 	0.53461 0.22807 0.53181 -0.00800
C 	C 	0.51555 0.21717 0.56354 -0.05300
H 	H 	0.32724 0.12705 0.61492 0.03700
H 	H 	0.46272 0.18868 0.61943 0.04700
H 	H 	0.26827 0.13691 0.49314 0.04200
H 	H 	0.36328 0.17716 0.46467 0.04000
H 	H 	0.49378 0.22199 0.47169 0.04200
H 	H 	0.55866 0.22930 0.59087 0.04800
C 	C 	0.71021 0.24946 0.02186 -0.00700
C 	C 	0.64878 0.17446 0.01964 -0.03000
C 	C 	0.66212 0.12757 0.02112 -0.04000
C 	C 	0.73668 0.15526 0.02407 -0.00300
C 	C 	0.79715 0.23236 0.02222 0.03100
C 	C 	0.78373 0.27925 0.02118 -0.05500
C 	C 	0.87124 0.26037 0.02389 -0.06700
C 	C 	0.88666 0.21110 0.03104 0.01300
C 	C 	0.82852 0.13338 0.03722 -0.08300
C 	C 	0.75268 0.10612 0.03144 -0.01100
H 	H 	0.59098 0.15171 0.01805 0.04400
H 	H 	0.61479 0.06909 0.02116 0.03800
H 	H 	0.83097 0.33758 0.02163 0.05000
H 	H 	0.91764 0.31975 0.02132 0.04600
H 	H 	0.94511 0.23279 0.03461 0.03300
H 	H 	0.70734 0.04623 0.03527 0.03900
C 	C 	0.92149 0.72451 0.06281 -0.07400
C 	C 	0.84675 0.70132 0.03999 0.01000
C 	C 	0.80031 0.64019 0.02381 -0.06300
C 	C 	0.82766 0.60070 0.03093 0.02900
C 	C 	0.90298 0.62399 0.05372 0.00400
C 	C 	0.94981 0.68622 0.06927 -0.02600
C 	C 	0.92921 0.58277 0.06196 -0.04300
C 	C 	0.87868 0.51530 0.05064 -0.02800
C 	C 	0.80200 0.48918 0.03055 -0.00900
C 	C 	0.77894 0.53532 0.01785 -0.05100
H 	H 	0.82511 0.73151 0.03418 0.03600
H 	H 	0.74263 0.62282 0.00628 0.04600
H 	H 	0.00783 0.70447 0.08662 0.04900
H 	H 	0.98745 0.60098 0.07877 0.03700
H 	H 	0.89760 0.48090 0.05988 0.04000
H 	H 	0.72051 0.51650 0.00097 0.04800
C 	C 	0.55510 0.25983 0.05950 -0.00800
C 	C 	0.52653 0.19016 0.08708 -0.02800
C 	C 	0.45858 0.15281 0.09707 -0.04100
C 	C 	0.41760 0.18398 0.07885 0.00100
C 	C 	0.44782 0.25555 0.05229 0.03200
C 	C 	0.51712 0.29365 0.04318 -0.05200
C 	C 	0.40531 0.28536 0.03305 -0.06500
C 	C 	0.32997 0.24097 0.03677 0.01500
C 	C 	0.29744 0.16729 0.06028 -0.08100
C 	C 	0.34377 0.14178 0.08400 -0.01400
H 	H 	0.55680 0.16479 0.10060 0.04100
H 	H 	0.43637 0.09839 0.11790 0.03800
H 	H 	0.53977 0.34795 0.02220 0.04900
H 	H 	0.42878 0.34106 0.01344 0.04700
H 	H 	0.29507 0.26180 0.01914 0.03100
H 	H 	0.31970 0.08614 0.10360 0.04400
