data_crystal

_cell_length_a 26.01827
_cell_length_b 26.56772
_cell_length_c 44.82037
_cell_angle_alpha 95.47931
_cell_angle_beta  95.47880
_cell_angle_gamma 125.83696

_symmetry_space_group_name_	'P 1'
_symmetry_space_group_name_H-M	'P 1'

loop_
_symmetry_equiv_pos_as_xyz
  x,y,z

loop_
_atom_site_label
_atom_site_type_symbol
_atom_site_fract_x
_atom_site_fract_y
_atom_site_fract_z
_atom_site_charge
C 	C 	0.95813 0.01838 0.99665 0.12700
C 	C 	0.04779 0.01735 0.99565 0.12100
N 	N 	0.99989 0.03586 0.46631 -0.14100
C 	C 	0.90534 0.03242 0.47308 -0.04800
C 	C 	0.81817 0.03852 0.45442 0.07100
H 	H 	0.73545 0.03173 0.43784 0.08600
C 	C 	0.09963 0.04703 0.46430 -0.04800
C 	C 	0.14563 0.07723 0.49184 0.09700
N 	N 	0.12693 0.07294 0.51941 -0.19900
C 	C 	0.92905 0.05216 0.99531 -0.05300
C 	C 	0.86973 0.02551 0.97554 0.09700
C 	C 	0.83922 0.05477 0.97787 -0.08500
H 	H 	0.79295 0.03358 0.96336 0.05100
N 	N 	0.14194 0.03625 0.04426 -0.19900
H 	H 	0.17319 0.03655 0.06089 0.08200
H 	H 	0.09869 0.02526 0.04961 0.08900
N 	N 	0.02121 0.04863 0.99458 -0.14900
C 	C 	0.93661 0.09095 0.49327 0.09700
C 	C 	0.85218 0.09938 0.47289 -0.01100
H 	H 	0.80314 0.07408 0.52100 0.08500
H 	H 	0.00141 0.08351 0.52051 0.08400
C 	C 	0.21152 0.11195 0.49067 -0.08400
C 	C 	0.23208 0.11727 0.46260 -0.01000
C 	C 	0.18609 0.08751 0.43504 0.07000
C 	C 	0.12016 0.05246 0.43622 -0.05500
H 	H 	0.24698 0.13500 0.51169 0.05300
H 	H 	0.08467 0.02919 0.41520 0.04400
H 	H 	0.30034 0.07164 0.46044 0.05500
H 	H 	0.39349 0.07480 0.45870 0.08000
C 	C 	0.86999 0.11340 0.99717 -0.01000
H 	H 	0.80717 0.12397 0.03862 0.05800
H 	H 	0.29542 0.05236 0.95884 0.05500
C 	C 	0.22220 0.07772 0.01298 -0.08500
C 	C 	0.15953 0.05369 0.01726 0.09800
C 	C 	0.11632 0.05016 0.99385 -0.05100
C 	C 	0.13767 0.07399 0.96746 -0.05500
H 	H 	0.25527 0.08002 0.03075 0.05300
H 	H 	0.10448 0.07125 0.94958 0.04500
H 	H 	0.37875 0.05141 0.94126 0.08100
C 	C 	0.95929 0.11023 0.01507 -0.04600
C 	C 	0.91174 0.12554 0.49158 -0.08300
N 	N 	0.98847 0.11258 0.51524 -0.19200
C 	C 	0.82415 0.13457 0.47441 0.00600
N 	N 	0.79364 0.10724 0.52292 -0.19100
H 	H 	0.77721 0.11313 0.54240 0.07600
C 	C 	0.33030 0.12245 0.46179 -0.09900
N 	N 	0.42236 0.12364 0.45961 -0.20300
C 	C 	0.93100 0.14186 0.01577 0.06800
C 	C 	0.83978 0.14637 0.99606 0.00500
H 	H 	0.00495 0.13085 0.03002 0.04200
C 	C 	0.80713 0.14576 0.01936 -0.10300
N 	N 	0.75538 0.18390 0.04379 -0.20400
H 	H 	0.75418 0.16188 0.06211 0.08700
H 	H 	0.74454 0.21598 0.04642 0.10400
C 	C 	0.33173 0.10105 0.97019 -0.10000
N 	N 	0.41364 0.09863 0.95180 -0.20300
C 	C 	0.24380 0.10218 0.98676 -0.01000
C 	C 	0.20116 0.10021 0.96367 0.06900
C 	C 	0.82490 0.16514 0.45039 -0.10300
C 	C 	0.79914 0.13981 0.50025 0.05100
H 	H 	0.84342 0.16048 0.43047 0.05800
C 	C 	0.30196 0.15391 0.46242 0.00400
N 	N 	0.20486 0.09263 0.40748 -0.19500
C 	C 	0.39677 0.15584 0.46237 0.12400
H 	H 	0.47024 0.14612 0.45711 0.07800
H 	H 	0.17048 0.07024 0.38729 0.08000
C 	C 	0.77722 0.17586 0.01872 0.13300
C 	C 	0.39709 0.13017 0.96910 0.12600
C 	C 	0.31272 0.13488 0.98511 0.00500
N 	N 	0.22083 0.12344 0.93793 -0.19500
H 	H 	0.18912 0.12219 0.92114 0.08000
H 	H 	0.46021 0.12148 0.94721 0.08300
H 	H 	0.93701 0.17151 0.50616 0.05300
H 	H 	0.01360 0.15747 0.52882 0.07700
C 	C 	0.84137 0.17630 0.97132 0.05200
H 	H 	0.90627 0.16732 0.95133 0.08600
N 	N 	0.87640 0.18152 0.94952 -0.19100
H 	H 	0.25350 0.11904 0.40575 0.08500
H 	H 	0.16133 0.09549 0.53960 0.08100
C 	C 	0.77885 0.17846 0.50231 -0.02100
N 	N 	0.96286 0.19956 0.03408 -0.19100
C 	C 	0.77371 0.20060 0.99258 -0.12400
C 	C 	0.80666 0.20135 0.96936 -0.02200
H 	H 	0.26744 0.14263 0.93421 0.08600
H 	H 	0.76267 0.18486 0.52278 0.02000
C 	C 	0.79845 0.19861 0.45114 0.13100
C 	C 	0.34058 0.22007 0.46374 0.05600
H 	H 	0.65062 0.18858 0.30799 0.03500
H 	H 	0.64512 0.17110 0.25227 0.03900
H 	H 	0.59126 0.20955 0.21131 0.03900
H 	H 	0.87569 0.20200 0.93085 0.07600
H 	H 	0.57435 0.20477 0.15570 0.03900
C 	C 	0.77800 0.20786 0.47801 -0.12300
H 	H 	0.80896 0.21541 0.40667 0.08700
C 	C 	0.43584 0.22238 0.46497 -0.11100
H 	H 	0.26434 0.22780 0.46179 0.08700
O 	O 	0.67653 0.19236 0.99559 -0.37700
O 	O 	0.70899 0.23102 0.49703 -0.44500
C 	C 	0.44443 0.19290 0.98508 -0.11400
O 	O 	0.53784 0.19415 0.99725 -0.36300
N 	N 	0.78965 0.21844 0.42557 -0.20500
H 	H 	0.94427 0.22531 0.03450 0.08600
H 	H 	0.00755 0.21980 0.04793 0.07700
H 	H 	0.80516 0.22136 0.94960 0.02100
C 	C 	0.35972 0.19880 0.99943 0.05500
N 	N 	0.31398 0.25149 0.46357 -0.19200
C 	C 	0.73433 0.22385 0.98858 0.29900
H 	H 	0.58716 0.22532 0.94476 0.17100
H 	H 	0.56755 0.24959 0.70842 0.03800
H 	H 	0.57253 0.24221 0.65363 0.03600
H 	H 	0.75924 0.23190 0.42322 0.10400
C 	C 	0.40730 0.25370 0.46520 -0.02100
H 	H 	0.61340 0.24560 0.45121 0.16000
C 	C 	0.75433 0.24676 0.48108 0.29700
C 	C 	0.51409 0.22324 0.98771 0.29400
H 	H 	0.29406 0.21499 0.01226 0.08700
C 	C 	0.62258 0.22711 0.16832 -0.03100
C 	C 	0.63213 0.22966 0.19981 -0.04400
Cu	Cu	0.63328 0.23393 0.99986 0.92700
C 	C 	0.42515 0.22680 0.99968 -0.02100
C 	C 	0.67377 0.21891 0.26522 -0.04400
O 	O 	0.53916 0.25907 0.49257 -0.38300
C 	C 	0.50648 0.25991 0.46841 0.30000
C 	C 	0.67701 0.22881 0.29680 -0.03200
C 	C 	0.03022 0.00837 0.46458 0.11500
O 	O 	0.63050 0.25074 0.95792 -0.64100
O 	O 	0.65950 0.26464 0.90192 -0.42300
Cu	Cu	0.69617 0.25630 0.93827 0.86900
O 	O 	0.64937 0.23402 0.04253 -0.36700
N 	N 	0.34240 0.23350 0.01297 -0.19100
C 	C 	0.59706 0.28822 0.66801 -0.03200
C 	C 	0.59410 0.29240 0.69904 -0.04400
N 	N 	0.75884 0.01056 0.43716 -0.19600
Cu	Cu	0.72534 0.28959 0.53115 0.86900
O 	O 	0.75256 0.26976 0.97338 -0.44400
H 	H 	0.07834 0.04737 0.52116 0.08700
C 	C 	0.67537 0.25546 0.15337 -0.00900
O 	O 	0.64011 0.29088 0.46083 -0.63900
C 	C 	0.69465 0.26050 0.21660 0.00800
C 	C 	0.66634 0.26009 0.12180 0.04300
C 	C 	0.65730 0.26324 0.09536 -0.10800
C 	C 	0.64503 0.26794 0.06422 0.30500
O 	O 	0.78522 0.30192 0.47246 -0.37600
C 	C 	0.70562 0.27068 0.25029 0.00800
H 	H 	0.46133 0.27507 0.01163 0.03100
H 	H 	0.53904 0.29474 0.80508 0.03600
O 	O 	0.55348 0.28366 0.98702 -0.40000
H 	H 	0.53077 0.30198 0.75050 0.03900
H 	H 	0.37761 0.28035 0.02397 0.07900
Cu	Cu	0.63212 0.30675 0.50224 0.89600
O 	O 	0.53563 0.30222 0.45080 -0.39900
C 	C 	0.71226 0.29045 0.31362 -0.00900
H 	H 	0.34305 0.30045 0.46486 0.08100
O 	O 	0.62334 0.31023 0.54561 -0.38600
H 	H 	0.43726 0.30460 0.46691 0.04200
C 	C 	0.70817 0.30071 0.34519 0.04300
O 	O 	0.61477 0.29281 0.05781 -0.38800
C 	C 	0.70562 0.31075 0.37163 -0.10800
C 	C 	0.65955 0.31369 0.89950 0.30700
C 	C 	0.58250 0.32094 0.79553 -0.03100
C 	C 	0.73753 0.28397 0.16985 -0.03200
O 	O 	0.73840 0.32322 0.42466 -0.36800
C 	C 	0.74717 0.28641 0.20137 -0.04400
C 	C 	0.66724 0.32624 0.56965 0.30600
O 	O 	0.71852 0.32861 0.56691 -0.42300
C 	C 	0.57781 0.32491 0.76459 -0.04500
C 	C 	0.70166 0.32443 0.40273 0.30500
C 	C 	0.65506 0.33393 0.59970 -0.11200
C 	C 	0.65209 0.32648 0.86962 -0.11200
H 	H 	0.77855 0.30570 0.15842 0.03600
H 	H 	0.79555 0.30980 0.21406 0.04000
C 	C 	0.64598 0.33899 0.62535 0.04400
Cu	Cu	0.62313 0.34041 0.44111 0.89300
Cu	Cu	0.74145 0.34321 0.46738 0.92600
C 	C 	0.64711 0.33611 0.84411 0.04400
C 	C 	0.74326 0.33236 0.26743 -0.04400
C 	C 	0.63411 0.34328 0.65591 -0.01000
O 	O 	0.68466 0.33300 0.00789 -0.63900
C 	C 	0.84596 0.00634 0.45417 -0.05900
C 	C 	0.74660 0.34216 0.29898 -0.03100
Cu	Cu	0.67237 0.34337 0.96663 0.89600
C 	C 	0.93713 0.00137 0.46954 0.12200
Cu	Cu	0.62983 0.34560 0.02604 0.89400
O 	O 	0.72725 0.35020 0.50970 -0.64100
N 	N 	0.92210 0.95719 0.00033 -0.14400
C 	C 	0.94816 0.92547 0.00046 0.13000
N 	N 	0.01086 0.95546 0.99799 -0.14600
N 	N 	0.99726 0.94581 0.46491 -0.13900
C 	C 	0.93379 0.91044 0.46678 0.12600
N 	N 	0.90385 0.93838 0.46953 -0.14300
O 	O 	0.71831 0.43384 0.97761 -0.38400
C 	C 	0.71216 0.46332 0.00086 0.30200
O 	O 	0.66806 0.43212 0.01775 -0.39900
O 	O 	0.67370 0.35523 0.92375 -0.38600
H 	H 	0.73019 0.35972 0.01863 0.16100
O 	O 	0.77943 0.43578 0.46756 -0.36100
O 	O 	0.67483 0.35289 0.40856 -0.38800
C 	C 	0.74858 0.45851 0.47608 0.29300
O 	O 	0.68779 0.41926 0.47829 -0.39900
H 	H 	0.75295 0.39363 0.52181 0.17200
C 	C 	0.64293 0.34853 0.81372 -0.01000
C 	C 	0.69889 0.38274 0.80122 -0.03100
C 	C 	0.69428 0.38655 0.77030 -0.04400
C 	C 	0.63358 0.35627 0.75165 0.00800
C 	C 	0.62809 0.35178 0.71822 0.00800
C 	C 	0.66530 0.40257 0.67465 -0.03100
C 	C 	0.66220 0.40685 0.70571 -0.04400
H 	H 	0.74580 0.40446 0.81517 0.03600
H 	H 	0.73765 0.41092 0.76059 0.03900
H 	H 	0.69371 0.44536 0.66541 0.03700
H 	H 	0.68797 0.45291 0.72021 0.03900
H 	H 	0.76805 0.37266 0.25617 0.04000
H 	H 	0.77418 0.38995 0.31186 0.04000
C 	C 	0.89798 0.84205 0.46636 -0.05000
C 	C 	0.89790 0.80271 0.44266 0.10000
C 	C 	0.87609 0.74156 0.44608 -0.08500
C 	C 	0.84975 0.71731 0.47159 -0.00900
C 	C 	0.84587 0.75518 0.49439 0.07000
C 	C 	0.87062 0.81750 0.49164 -0.05400
N 	N 	0.91679 0.82265 0.41623 -0.19900
H 	H 	0.87754 0.71192 0.42832 0.05400
C 	C 	0.82304 0.65090 0.47322 0.00500
N 	N 	0.81855 0.73215 0.51888 -0.19400
H 	H 	0.87003 0.84744 0.50961 0.04800
C 	C 	0.86083 0.63840 0.49063 -0.09900
C 	C 	0.83711 0.57593 0.49251 0.12600
C 	C 	0.77584 0.52510 0.47520 -0.11300
C 	C 	0.73877 0.53781 0.45734 -0.01900
C 	C 	0.76106 0.60013 0.45670 0.05500
H 	H 	0.90824 0.67746 0.50331 0.05700
N 	N 	0.87242 0.56537 0.51158 -0.20300
H 	H 	0.69190 0.49890 0.44409 0.02900
N 	N 	0.72250 0.61084 0.44043 -0.19100
H 	H 	0.91838 0.60312 0.52350 0.08300
H 	H 	0.85387 0.52020 0.51572 0.08500
H 	H 	0.67731 0.57299 0.42783 0.08000
H 	H 	0.73614 0.65646 0.44060 0.08700
H 	H 	0.81632 0.76063 0.53566 0.08200
H 	H 	0.79878 0.68582 0.52142 0.08700
H 	H 	0.92582 0.86458 0.41146 0.09200
H 	H 	0.91934 0.79449 0.39941 0.08400
H 	H 	0.82152 0.96113 0.43901 0.05100
H 	H 	0.73472 0.96616 0.42323 0.08300
C 	C 	0.74607 0.53194 0.00419 -0.11200
C 	C 	0.81416 0.57425 0.00799 0.12600
C 	C 	0.84409 0.63861 0.00812 -0.09900
C 	C 	0.80756 0.66168 0.00589 0.00500
C 	C 	0.73980 0.61988 0.00359 0.05600
C 	C 	0.70969 0.55526 0.00253 -0.02000
N 	N 	0.85107 0.55377 0.01232 -0.20300
H 	H 	0.89610 0.67103 0.01029 0.05700
C 	C 	0.84058 0.72927 0.00484 -0.00800
N 	N 	0.70350 0.64144 0.00244 -0.19200
H 	H 	0.65760 0.52284 0.99999 0.04100
C 	C 	0.84504 0.74781 0.97639 -0.08500
C 	C 	0.87788 0.81173 0.97443 0.10000
C 	C 	0.90771 0.85787 0.00154 -0.05100
C 	C 	0.90213 0.83928 0.02999 -0.05200
C 	C 	0.86853 0.77524 0.03196 0.07000
H 	H 	0.82289 0.71230 0.95570 0.05400
N 	N 	0.88048 0.82844 0.94653 -0.19900
H 	H 	0.92470 0.87484 0.05068 0.04700
N 	N 	0.86317 0.75826 0.05984 -0.19400
H 	H 	0.85908 0.79406 0.92665 0.08300
H 	H 	0.90273 0.87534 0.94422 0.08900
H 	H 	0.88453 0.79265 0.07972 0.08200
H 	H 	0.83725 0.71097 0.06213 0.08700
H 	H 	0.65339 0.61003 0.00034 0.08100
H 	H 	0.72450 0.68945 0.00407 0.08700
H 	H 	0.83101 0.50758 0.01525 0.08100
H 	H 	0.90110 0.58499 0.01406 0.08200
N 	N 	0.84353 0.97384 0.95336 -0.19700
H 	H 	0.86969 0.95714 0.94769 0.09000
H 	H 	0.79801 0.95239 0.94006 0.08300
