data_crystal

_cell_length_a 18.25607
_cell_length_b 15.40626
_cell_length_c 43.11519
_cell_angle_alpha 90.85831
_cell_angle_beta  91.26030
_cell_angle_gamma 111.14443

_symmetry_space_group_name_	'P 1'
_symmetry_space_group_name_H-M	'P 1'

loop_
_symmetry_equiv_pos_as_xyz
  x,y,z

loop_
_atom_site_label
_atom_site_type_symbol
_atom_site_fract_x
_atom_site_fract_y
_atom_site_fract_z
_atom_site_charge
Ni	Ni	0.72885 0.32844 0.89228 1.09800
O 	O 	0.64482 0.24418 0.86186 -0.70400
Ni	Ni	0.54760 0.25061 0.88027 1.10300
O 	O 	0.81626 0.30978 0.86714 -0.35700
O 	O 	0.75790 0.15093 0.86920 -0.39600
O 	O 	0.72791 0.43101 0.86312 -0.39700
Ni	Ni	0.63708 0.11527 0.86007 1.07200
O 	O 	0.72795 0.44494 0.95735 -0.42000
O 	O 	0.61756 0.09490 0.90652 -0.40900
O 	O 	0.47220 0.17829 0.84603 -0.37000
O 	O 	0.63056 0.31761 0.91392 -0.70200
O 	O 	0.81215 0.42299 0.92111 -0.37300
O 	O 	0.46095 0.29024 0.89830 -0.36500
O 	O 	0.54530 0.43974 0.90009 -0.41400
Ni	Ni	0.64115 0.44378 0.92732 1.07400
H 	H 	0.65058 0.26928 0.84067 0.16900
H 	H 	0.62585 0.27868 0.93236 0.15500
C 	C 	0.55152 0.09138 0.91895 0.29100
O 	O 	0.72141 0.53684 0.89959 -0.39100
C 	C 	0.81211 0.22602 0.85816 0.27500
C 	C 	0.47930 0.10372 0.83301 0.27900
C 	C 	0.74366 0.51711 0.87240 0.30900
C 	C 	0.47625 0.37779 0.90616 0.28200
C 	C 	0.79917 0.45367 0.94864 0.29500
O 	O 	0.50694 0.13173 0.90580 -0.37500
O 	O 	0.51938 0.05807 0.84735 -0.39600
Ni	Ni	0.60115 0.33980 0.56080 1.10200
O 	O 	0.68559 0.33765 0.53020 -0.69500
Ni	Ni	0.75502 0.29371 0.55748 1.10000
O 	O 	0.56572 0.43190 0.53633 -0.36400
O 	O 	0.69285 0.52614 0.53138 -0.40400
O 	O 	0.51836 0.23266 0.53573 -0.37000
Ni	Ni	0.75003 0.44960 0.50944 1.07900
O 	O 	0.48682 0.16943 0.59306 -0.40000
O 	O 	0.84768 0.50402 0.53815 -0.39300
O 	O 	0.85354 0.31842 0.53084 -0.36400
O 	O 	0.66090 0.27697 0.58517 -0.70100
O 	O 	0.51736 0.32808 0.59276 -0.36700
O 	O 	0.79813 0.22241 0.58842 -0.35200
O 	O 	0.68207 0.09743 0.58590 -0.40100
Ni	Ni	0.59111 0.14798 0.58934 1.07000
H 	H 	0.66246 0.28941 0.51379 0.15500
H 	H 	0.67717 0.30788 0.60581 0.16500
C 	C 	0.84854 0.49745 0.56842 0.29500
O 	O 	0.57312 0.12242 0.54292 -0.41400
C 	C 	0.61804 0.50670 0.52490 0.28500
C 	C 	0.86306 0.35650 0.50306 0.29800
C 	C 	0.52929 0.15672 0.52646 0.29200
C 	C 	0.75254 0.14055 0.59854 0.27400
C 	C 	0.47893 0.24575 0.60472 0.27600
O 	O 	0.81015 0.41767 0.58170 -0.37800
O 	O 	0.80497 0.37267 0.48863 -0.41700
Ni	Ni	0.02455 0.95480 0.75944 1.09800
O 	O 	0.02365 0.86821 0.72352 -0.71900
Ni	Ni	0.06546 0.95762 0.68983 1.10000
O 	O 	0.97930 0.84239 0.78713 -0.35100
O 	O 	0.87031 0.78386 0.75501 -0.39500
O 	O 	0.13794 0.97148 0.77444 -0.36100
Ni	Ni	0.91610 0.79212 0.71057 1.07000
O 	O 	0.10923 0.17171 0.78090 -0.39500
O 	O 	0.87707 0.89956 0.70154 -0.38900
O 	O 	0.06973 0.85996 0.65814 -0.36000
O 	O 	0.04896 0.04511 0.72374 -0.69100
O 	O 	0.01854 0.03554 0.79570 -0.36800
O 	O 	0.13595 0.05763 0.66122 -0.35000
O 	O 	0.17130 0.19193 0.68990 -0.37900
Ni	Ni	0.13493 0.16139 0.73513 1.07900
H 	H 	0.05654 0.83045 0.72760 0.17200
H 	H 	0.00151 0.05931 0.71956 0.16400
C 	C 	0.90360 0.95608 0.67837 0.28400
O 	O 	0.20149 0.08139 0.73937 -0.41500
C 	C 	0.90941 0.77929 0.78072 0.27400
C 	C 	0.00576 0.78440 0.65320 0.26600
C 	C 	0.20352 0.03402 0.76409 0.29000
C 	C 	0.19085 0.13427 0.67209 0.28600
C 	C 	0.03968 0.12475 0.79223 0.27700
O 	O 	0.96928 0.96181 0.66542 -0.35400
O 	O 	0.93778 0.78021 0.66471 -0.38600
Ni	Ni	0.23623 0.68968 0.39359 1.10100
O 	O 	0.32434 0.75556 0.36437 -0.70500
Ni	Ni	0.41772 0.75874 0.38940 1.10400
O 	O 	0.15658 0.69503 0.36053 -0.36000
O 	O 	0.21326 0.85426 0.35795 -0.39100
O 	O 	0.24095 0.57429 0.37175 -0.40100
Ni	Ni	0.33450 0.88165 0.35492 1.07100
O 	O 	0.22273 0.60066 0.46314 -0.42000
O 	O 	0.34532 0.92457 0.40046 -0.40600
O 	O 	0.49695 0.81209 0.35603 -0.37100
O 	O 	0.33071 0.70991 0.42105 -0.69900
O 	O 	0.14553 0.61201 0.42120 -0.37100
O 	O 	0.50030 0.72830 0.41555 -0.36800
O 	O 	0.41348 0.58053 0.42000 -0.40900
Ni	Ni	0.31651 0.59170 0.44111 1.07300
H 	H 	0.32064 0.71955 0.34480 0.16800
H 	H 	0.33394 0.75751 0.43720 0.15400
C 	C 	0.40749 0.93242 0.41775 0.28900
O 	O 	0.24119 0.48555 0.41354 -0.39200
C 	C 	0.15611 0.77446 0.35000 0.27300
C 	C 	0.50067 0.88851 0.34148 0.27700
C 	C 	0.22088 0.49344 0.38461 0.31300
C 	C 	0.48314 0.64393 0.42608 0.28000
C 	C 	0.15325 0.57993 0.44907 0.29400
O 	O 	0.45497 0.88937 0.40992 -0.37200
O 	O 	0.45495 0.93568 0.34946 -0.39300
Ni	Ni	0.38035 0.67352 0.05197 1.10300
O 	O 	0.27779 0.66031 0.02876 -0.70200
Ni	Ni	0.21757 0.68899 0.06308 1.10000
O 	O 	0.41264 0.59260 0.02090 -0.37000
O 	O 	0.29139 0.47960 0.02275 -0.41200
O 	O 	0.44137 0.78815 0.02654 -0.36600
Ni	Ni	0.21234 0.54157 0.00959 1.07400
O 	O 	0.49270 0.85166 0.08478 -0.40000
O 	O 	0.13215 0.47370 0.04233 -0.39000
O 	O 	0.10604 0.64645 0.04322 -0.37000
O 	O 	0.32633 0.72282 0.08358 -0.70400
O 	O 	0.48098 0.69907 0.07726 -0.37000
O 	O 	0.18225 0.74437 0.10075 -0.35800
O 	O 	0.28046 0.88553 0.09452 -0.39800
Ni	Ni	0.38248 0.85641 0.08828 1.07300
H 	H 	0.28699 0.70892 0.01304 0.15600
H 	H 	0.32480 0.69173 0.10362 0.16900
C 	C 	0.14388 0.48440 0.07257 0.30000
O 	O 	0.37620 0.88211 0.04231 -0.41400
C 	C 	0.36247 0.51059 0.01168 0.27900
C 	C 	0.08869 0.62222 0.01353 0.30000
C 	C 	0.42002 0.86008 0.02224 0.28900
C 	C 	0.22038 0.83128 0.11017 0.27400
C 	C 	0.51143 0.77933 0.09272 0.28000
O 	O 	0.19020 0.56432 0.08505 -0.38700
O 	O 	0.13944 0.60593 0.99510 -0.41800
Ni	Ni	0.95590 0.03682 0.26797 1.09600
O 	O 	0.97234 0.12759 0.23283 -0.71400
Ni	Ni	0.92261 0.04126 0.19743 1.09800
O 	O 	0.01048 0.14433 0.29828 -0.36000
O 	O 	0.12158 0.19093 0.26974 -0.40100
O 	O 	0.85008 0.05062 0.27777 -0.37200
Ni	Ni	0.08322 0.18729 0.22357 1.06800
O 	O 	0.83979 0.82856 0.28605 -0.40100
O 	O 	0.10345 0.06564 0.21635 -0.40400
O 	O 	0.93545 0.14385 0.16618 -0.36000
O 	O 	0.92178 0.94636 0.23120 -0.68600
O 	O 	0.94507 0.95095 0.30395 -0.36500
O 	O 	0.84565 0.94929 0.16618 -0.34900
O 	O 	0.79251 0.81703 0.19328 -0.37800
Ni	Ni	0.82343 0.84350 0.23985 1.08000
H 	H 	0.94663 0.17349 0.23618 0.17200
H 	H 	0.96275 0.91946 0.22805 0.16000
C 	C 	0.07500 0.01339 0.19134 0.28100
O 	O 	0.76639 0.93344 0.24641 -0.40400
C 	C 	0.08127 0.20369 0.29328 0.27900
C 	C 	0.00602 0.20883 0.16269 0.27200
C 	C 	0.77956 0.98716 0.27154 0.29800
C 	C 	0.78365 0.87841 0.17435 0.28600
C 	C 	0.90960 0.86151 0.29977 0.28700
O 	O 	0.01406 0.01943 0.17621 -0.36200
O 	O 	0.06907 0.20202 0.17685 -0.39400
C 	C 	0.09671 0.40845 0.09297 -0.06900
C 	C 	0.09630 0.31710 0.08866 0.00200
C 	C 	0.05555 0.24677 0.10927 0.00100
C 	C 	0.01934 0.26870 0.13528 -0.05400
C 	C 	0.01293 0.35693 0.13779 -0.01300
C 	C 	0.05022 0.42631 0.11627 0.00700
C 	C 	0.13914 0.29584 0.06354 0.08200
C 	C 	0.96942 0.37695 0.16289 0.08100
C 	C 	0.03800 0.51414 0.11734 0.08800
C 	C 	0.05288 0.15228 0.10433 0.09900
N 	N 	0.02789 0.58403 0.11827 -0.09800
N 	N 	0.05073 0.07689 0.10044 -0.10000
N 	N 	0.93469 0.39289 0.18294 -0.11200
N 	N 	0.17314 0.27860 0.04349 -0.11700
C 	C 	0.58028 0.79561 0.11325 -0.06800
C 	C 	0.57130 0.79143 0.14558 0.00100
C 	C 	0.63775 0.81443 0.16555 0.00100
C 	C 	0.71376 0.84706 0.15320 -0.05900
C 	C 	0.72230 0.84439 0.12069 0.00400
C 	C 	0.65561 0.82115 0.10075 0.00600
C 	C 	0.49345 0.76457 0.15829 0.06300
C 	C 	0.79864 0.85916 0.10788 0.10600
C 	C 	0.66446 0.82508 0.06738 0.09300
C 	C 	0.62762 0.79916 0.19856 0.08100
N 	N 	0.67141 0.82826 0.04076 -0.10700
N 	N 	0.61882 0.78599 0.22481 -0.11900
N 	N 	0.85950 0.87089 0.09767 -0.09400
N 	N 	0.43139 0.74325 0.16840 -0.12300
C 	C 	0.18455 0.87363 0.13367 -0.06100
C 	C 	0.23190 0.93721 0.15662 -0.00000
C 	C 	0.19683 0.98045 0.17786 0.00800
C 	C 	0.11385 0.95156 0.17838 -0.06200
C 	C 	0.06839 0.87471 0.15952 0.00000
C 	C 	0.10228 0.84735 0.13425 0.01100
C 	C 	0.31568 0.95628 0.15891 0.07000
C 	C 	0.98762 0.82216 0.16659 0.10000
C 	C 	0.05341 0.80250 0.10736 0.10600
C 	C 	0.24592 0.05305 0.19906 0.08200
N 	N 	0.01435 0.76698 0.08588 -0.10000
N 	N 	0.28528 0.11100 0.21598 -0.11300
N 	N 	0.92307 0.77902 0.17198 -0.10900
N 	N 	0.38252 0.97141 0.16075 -0.13000
C 	C 	0.71171 0.98761 0.29010 -0.06700
C 	C 	0.71633 0.98669 0.32287 0.01400
C 	C 	0.64719 0.96308 0.34004 0.00000
C 	C 	0.57327 0.93769 0.32450 -0.05500
C 	C 	0.56970 0.95011 0.29223 -0.00600
C 	C 	0.63943 0.97857 0.27520 0.01700
C 	C 	0.79183 0.00974 0.33894 0.08600
C 	C 	0.49444 0.93159 0.27646 0.07800
C 	C 	0.63753 0.00337 0.24297 0.08200
C 	C 	0.65194 0.96379 0.37369 0.09800
N 	N 	0.63600 0.02320 0.21724 -0.11200
N 	N 	0.65573 0.96422 0.40053 -0.10600
N 	N 	0.43437 0.91679 0.26386 -0.11900
N 	N 	0.85204 0.02846 0.35182 -0.09500
C 	C 	0.17905 0.40975 0.36543 -0.07400
C 	C 	0.10918 0.40344 0.34931 0.00700
C 	C 	0.08185 0.34169 0.32379 0.00200
C 	C 	0.11876 0.27825 0.31648 -0.06800
C 	C 	0.18493 0.27896 0.33422 0.00200
C 	C 	0.21596 0.34588 0.35835 0.00500
C 	C 	0.06527 0.46053 0.35906 0.08400
C 	C 	0.22015 0.21002 0.32802 0.09100
C 	C 	0.28688 0.35062 0.37532 0.08500
C 	C 	0.01644 0.34446 0.30456 0.07400
N 	N 	0.34348 0.35443 0.38884 -0.11200
N 	N 	0.96432 0.34663 0.28923 -0.11000
N 	N 	0.24824 0.15501 0.32308 -0.11600
N 	N 	0.02973 0.50563 0.36669 -0.10200
C 	C 	0.08055 0.77678 0.33804 -0.05100
C 	C 	0.05586 0.74983 0.30700 -0.01100
C 	C 	0.98613 0.75851 0.29529 0.01000
C 	C 	0.94430 0.79880 0.31411 -0.08100
C 	C 	0.95999 0.80677 0.34633 0.02300
C 	C 	0.02950 0.79834 0.35833 -0.00700
C 	C 	0.10246 0.71461 0.28714 0.08200
C 	C 	0.90592 0.82663 0.36685 0.09600
C 	C 	0.04839 0.81152 0.39132 0.09300
C 	C 	0.95901 0.72956 0.26366 0.05000
N 	N 	0.06351 0.82196 0.41765 -0.11500
N 	N 	0.93725 0.70620 0.23841 -0.12400
N 	N 	0.86267 0.84232 0.38325 -0.09900
N 	N 	0.13966 0.68646 0.27131 -0.11500
C 	C 	0.51989 0.13909 0.46931 -0.03600
C 	C 	0.48886 0.10704 0.49817 -0.09000
C 	C 	0.42344 0.02325 0.49988 0.07700
C 	C 	0.39463 0.96843 0.47291 -0.03400
C 	C 	0.42898 0.99772 0.44434 -0.08600
C 	C 	0.48933 0.08576 0.44220 0.08100
C 	C 	0.52338 0.12126 0.41129 -0.19800
H 	H 	0.56959 0.20399 0.46808 0.02900
H 	H 	0.34710 0.90159 0.47430 0.02900
C 	C 	0.38647 0.99022 0.53056 -0.19200
H 	H 	0.56039 0.19649 0.41281 0.07000
H 	H 	0.47555 0.11248 0.39378 0.07900
H 	H 	0.56024 0.08212 0.40330 0.09000
H 	H 	0.37556 0.04768 0.54312 0.08700
H 	H 	0.42617 0.96599 0.54496 0.06900
H 	H 	0.32914 0.93180 0.52735 0.07000
C 	C 	0.99874 0.47238 0.50909 -0.02600
C 	C 	0.94330 0.40022 0.49141 -0.09100
C 	C 	0.96092 0.38125 0.46091 0.09300
C 	C 	0.03049 0.43992 0.44767 -0.04400
C 	C 	0.08230 0.51762 0.46434 -0.08100
C 	C 	0.06629 0.53407 0.49541 0.07400
C 	C 	0.11983 0.61762 0.51393 -0.19200
H 	H 	0.98715 0.48382 0.53306 0.06100
H 	H 	0.04452 0.42482 0.42441 0.05900
C 	C 	0.90501 0.30016 0.44209 -0.20300
H 	H 	0.09129 0.63012 0.53517 0.07400
H 	H 	0.13508 0.68142 0.49997 0.07800
H 	H 	0.17431 0.60615 0.52114 0.07900
H 	H 	0.85545 0.31853 0.43278 0.08500
H 	H 	0.88165 0.23778 0.45666 0.08500
H 	H 	0.93477 0.28134 0.42229 0.08400
C 	C 	0.58601 0.63546 0.50198 -0.03300
C 	C 	0.59557 0.54988 0.49806 -0.09400
C 	C 	0.58158 0.50471 0.46858 0.05900
C 	C 	0.55299 0.54298 0.44398 -0.02800
C 	C 	0.53606 0.62387 0.44862 -0.09600
C 	C 	0.55581 0.67288 0.47750 0.07200
C 	C 	0.54209 0.76289 0.48270 -0.19200
H 	H 	0.59953 0.67139 0.52439 0.05100
H 	H 	0.53921 0.50662 0.42164 0.05000
C 	C 	0.59350 0.41358 0.46361 -0.16700
H 	H 	0.56047 0.79198 0.50657 0.07600
H 	H 	0.47869 0.75114 0.47939 0.04900
H 	H 	0.57673 0.81562 0.46620 0.09600
H 	H 	0.55130 0.35880 0.47752 0.06800
H 	H 	0.65440 0.42126 0.47059 -0.01400
H 	H 	0.58409 0.38998 0.43888 0.06200
C 	C 	0.85162 0.99653 0.66212 -0.05200
C 	C 	0.80731 0.94900 0.63574 0.00300
C 	C 	0.77859 0.99729 0.61398 0.00800
C 	C 	0.78534 0.09016 0.62054 -0.06800
C 	C 	0.82121 0.13391 0.64872 0.00600
C 	C 	0.85911 0.09006 0.66838 -0.00300
C 	C 	0.79435 0.85133 0.63026 0.09200
C 	C 	0.81849 0.22390 0.65769 0.08500
C 	C 	0.90967 0.14385 0.69359 0.08100
C 	C 	0.74619 0.95312 0.58425 0.09500
N 	N 	0.94979 0.18932 0.71338 -0.13700
N 	N 	0.72040 0.91777 0.56055 -0.10900
N 	N 	0.81627 0.29561 0.66483 -0.11200
N 	N 	0.78400 0.77345 0.62585 -0.11100
C 	C 	0.26704 0.16978 0.65616 -0.05900
C 	C 	0.32770 0.13761 0.66465 -0.00000
C 	C 	0.40191 0.17619 0.65124 0.00100
C 	C 	0.41191 0.23420 0.62542 -0.06100
C 	C 	0.35069 0.26548 0.61640 0.00300
C 	C 	0.27931 0.23557 0.63247 0.00500
C 	C 	0.31201 0.05949 0.68509 0.07900
C 	C 	0.35981 0.32562 0.59007 0.09800
C 	C 	0.21760 0.26987 0.62386 0.09800
C 	C 	0.46806 0.15590 0.66391 0.06400
N 	N 	0.16833 0.29723 0.61700 -0.10300
N 	N 	0.52087 0.13975 0.67404 -0.12700
N 	N 	0.36701 0.37359 0.56906 -0.10700
N 	N 	0.29972 0.99667 0.70119 -0.11600
C 	C 	0.00125 0.72418 0.62589 -0.06100
C 	C 	0.96833 0.74311 0.59823 0.01100
C 	C 	0.91551 0.66927 0.58011 0.00200
C 	C 	0.90551 0.57607 0.58710 -0.06800
C 	C 	0.95444 0.55955 0.61043 0.01100
C 	C 	0.00083 0.63365 0.63036 -0.01500
C 	C 	0.98242 0.83881 0.59026 0.10300
C 	C 	0.96068 0.46866 0.61277 0.09200
C 	C 	0.04533 0.61627 0.65620 0.07400
C 	C 	0.86902 0.68925 0.55544 0.08900
N 	N 	0.08087 0.60243 0.67685 -0.11400
N 	N 	0.83225 0.70586 0.53579 -0.11000
N 	N 	0.96581 0.39619 0.61460 -0.09500
N 	N 	0.99359 0.91520 0.58396 -0.09600
C 	C 	0.94839 0.52417 0.01513 -0.02300
C 	C 	0.00773 0.59879 0.00199 -0.10300
C 	C 	0.99212 0.63607 0.97402 0.10400
C 	C 	0.92234 0.58887 0.95710 -0.04000
C 	C 	0.86671 0.50774 0.96855 -0.08200
C 	C 	0.87806 0.47721 0.99839 0.08000
C 	C 	0.81704 0.39278 0.01188 -0.19700
H 	H 	0.95947 0.49815 0.03730 0.05800
H 	H 	0.91200 0.61409 0.93468 0.05900
C 	C 	0.05165 0.72278 0.96118 -0.20900
H 	H 	0.83720 0.37481 0.03457 0.07500
H 	H 	0.80426 0.33159 0.99588 0.07200
H 	H 	0.76221 0.40651 0.01565 0.07900
H 	H 	0.09555 0.70418 0.94792 0.08300
H 	H 	0.08218 0.77312 0.98021 0.08000
H 	H 	0.02286 0.75814 0.94545 0.07900
C 	C 	0.42119 0.89301 0.96626 -0.04100
C 	C 	0.45236 0.92159 0.99624 -0.08000
C 	C 	0.51902 0.00410 0.00072 0.07400
C 	C 	0.55252 0.05763 0.97501 -0.03300
C 	C 	0.52070 0.02944 0.94506 -0.09500
C 	C 	0.45556 0.94550 0.94054 0.09000
C 	C 	0.42280 0.91152 0.90838 -0.20200
H 	H 	0.37085 0.82887 0.96288 0.03400
H 	H 	0.60286 0.12176 0.97836 0.03200
C 	C 	0.55610 0.03351 0.03263 -0.20000
H 	H 	0.37942 0.83910 0.90841 0.07600
H 	H 	0.47098 0.91208 0.89302 0.08700
H 	H 	0.39309 0.95713 0.89880 0.09700
H 	H 	0.58008 0.98131 0.04127 0.09500
H 	H 	0.51180 0.03959 0.04890 0.06600
H 	H 	0.60503 0.10212 0.03247 0.06900
C 	C 	0.42089 0.35103 0.95858 -0.05100
C 	C 	0.43059 0.39956 0.93075 -0.10400
C 	C 	0.40690 0.47696 0.92852 0.08200
C 	C 	0.38223 0.51084 0.95513 -0.04400
C 	C 	0.37846 0.46654 0.98354 -0.10300
C 	C 	0.39501 0.38408 0.98509 0.08400
C 	C 	0.39018 0.33468 0.01534 -0.20600
H 	H 	0.43781 0.29055 0.96008 0.04000
H 	H 	0.36767 0.57305 0.95391 0.02600
C 	C 	0.41132 0.52626 0.89827 -0.20200
H 	H 	0.39976 0.26788 0.01221 0.07200
H 	H 	0.33122 0.31865 0.02518 0.09100
H 	H 	0.43561 0.37953 0.03211 0.07600
H 	H 	0.39117 0.47517 0.87857 0.08800
H 	H 	0.47278 0.57324 0.89468 0.08800
H 	H 	0.37318 0.56849 0.89821 0.07400
C 	C 	0.98750 0.17231 0.80401 -0.06300
C 	C 	0.01127 0.23357 0.83013 -0.00400
C 	C 	0.95413 0.25179 0.84814 0.01000
C 	C 	0.87406 0.21566 0.83832 -0.06300
C 	C 	0.85250 0.16612 0.80992 0.00400
C 	C 	0.90723 0.13819 0.79414 0.00200
C 	C 	0.09369 0.27408 0.83936 0.09400
C 	C 	0.77317 0.14195 0.79719 0.06000
C 	C 	0.87894 0.06515 0.77049 0.06700
C 	C 	0.97719 0.30328 0.87738 0.09600
N 	N 	0.85531 0.00609 0.75191 -0.11900
N 	N 	0.99563 0.34426 0.90075 -0.10800
N 	N 	0.70990 0.12273 0.78706 -0.13400
N 	N 	0.15950 0.30645 0.84674 -0.11000
C 	C 	0.28239 0.03885 0.77662 -0.05600
C 	C 	0.29148 0.96402 0.79319 0.00200
C 	C 	0.36419 0.97676 0.80857 0.00600
C 	C 	0.42790 0.06131 0.80577 -0.06700
C 	C 	0.42439 0.12059 0.78202 0.00500
C 	C 	0.35089 0.11780 0.77073 0.00600
C 	C 	0.22972 0.87289 0.79228 0.09600
C 	C 	0.49609 0.19074 0.77167 0.07600
C 	C 	0.34537 0.19925 0.75589 0.08400
C 	C 	0.37533 0.90058 0.82471 0.08800
N 	N 	0.34127 0.26435 0.74405 -0.12500
N 	N 	0.38401 0.83910 0.83734 -0.11700
N 	N 	0.55338 0.24671 0.76341 -0.11400
N 	N 	0.18061 0.79995 0.79156 -0.10500
C 	C 	0.79033 0.59328 0.85236 -0.07100
C 	C 	0.86494 0.59733 0.84288 0.00900
C 	C 	0.90075 0.65300 0.81787 -0.00400
C 	C 	0.86815 0.71553 0.80537 -0.05700
C 	C 	0.79782 0.71940 0.81736 0.00000
C 	C 	0.75733 0.65568 0.83995 0.00500
C 	C 	0.90659 0.54797 0.85984 0.08800
C 	C 	0.76833 0.79025 0.80713 0.09400
C 	C 	0.68131 0.65327 0.84996 0.08400
C 	C 	0.96847 0.64202 0.80387 0.09300
N 	N 	0.62064 0.65134 0.85794 -0.11500
N 	N 	0.02228 0.63281 0.79264 -0.11500
N 	N 	0.74472 0.84676 0.79901 -0.10800
N 	N 	0.94037 0.50915 0.87336 -0.09700
