data_crystal

_cell_length_a 25.98752
_cell_length_b 26.71008
_cell_length_c 34.89236
_cell_angle_alpha 95.48919
_cell_angle_beta  95.48605
_cell_angle_gamma 125.82772

_symmetry_space_group_name_	'P 1'
_symmetry_space_group_name_H-M	'P 1'

loop_
_symmetry_equiv_pos_as_xyz
  x,y,z

loop_
_atom_site_label
_atom_site_type_symbol
_atom_site_fract_x
_atom_site_fract_y
_atom_site_fract_z
_atom_site_charge
C 	C 	0.98499 0.04833 0.99586 0.12900
C 	C 	0.05254 0.08306 0.00183 -0.09700
C 	C 	0.08103 0.05178 0.00021 0.12900
C 	C 	0.04186 0.98589 0.99295 -0.10500
C 	C 	0.97461 0.95133 0.98820 0.13300
C 	C 	0.94623 0.98253 0.98946 -0.09800
H 	H 	0.08265 0.13401 0.00728 0.10600
H 	H 	0.06374 0.96162 0.99167 0.10400
H 	H 	0.89409 0.95569 0.98536 0.10400
C 	C 	0.91720 0.97993 0.46490 0.11500
C 	C 	0.88211 0.91620 0.46771 -0.08200
C 	C 	0.91194 0.88618 0.46636 0.11500
C 	C 	0.97709 0.92039 0.46275 -0.07400
C 	C 	0.01313 0.98489 0.46244 0.10600
C 	C 	0.98312 0.01456 0.46335 -0.07400
H 	H 	0.83171 0.88993 0.47034 0.10300
H 	H 	0.00016 0.89728 0.46139 0.09500
H 	H 	0.01073 0.06424 0.46232 0.09600
Cu	Cu	0.67770 0.28625 0.00770 0.93200
Cu	Cu	0.67990 0.24276 0.91733 0.89300
Cu	Cu	0.67359 0.35907 0.94677 0.91900
Cu	Cu	0.67227 0.40118 0.03019 0.91300
C 	C 	0.70341 0.34201 0.08782 0.29400
O 	O 	0.58792 0.24273 0.02069 -0.34100
C 	C 	0.66554 0.31564 0.86827 0.29300
O 	O 	0.71432 0.37821 0.00024 -0.63400
O 	O 	0.64312 0.27186 0.95126 -0.62700
O 	O 	0.73358 0.25750 0.00492 -0.34000
O 	O 	0.67628 0.18647 0.94781 -0.38700
O 	O 	0.70179 0.38918 0.08132 -0.34900
O 	O 	0.70998 0.44510 0.94331 -0.34900
C 	C 	0.71731 0.48576 0.97212 0.33000
C 	C 	0.55333 0.26295 0.01258 0.32500
O 	O 	0.57923 0.31629 0.00020 -0.36500
O 	O 	0.68409 0.46672 0.00068 -0.35000
O 	O 	0.71822 0.31558 0.06167 -0.34100
C 	C 	0.71855 0.20834 0.98032 0.33200
O 	O 	0.64206 0.33650 0.89102 -0.35800
O 	O 	0.70543 0.30484 0.88404 -0.39800
H 	H 	0.76194 0.40944 0.00505 0.19500
H 	H 	0.59538 0.24219 0.94501 0.18400
Cu	Cu	0.72373 0.32196 0.44761 0.93500
Cu	Cu	0.73105 0.28667 0.53456 0.88900
Cu	Cu	0.62056 0.28398 0.49764 0.90800
Cu	Cu	0.59635 0.30584 0.41713 0.90900
C 	C 	0.67605 0.29621 0.36456 0.29700
O 	O 	0.75447 0.41074 0.44494 -0.33400
C 	C 	0.66766 0.31575 0.58397 0.29400
O 	O 	0.62309 0.26464 0.44381 -0.63900
O 	O 	0.71639 0.33402 0.50295 -0.63700
O 	O 	0.77621 0.28997 0.45348 -0.34000
O 	O 	0.71646 0.22479 0.49410 -0.40900
O 	O 	0.64282 0.31769 0.37255 -0.35800
O 	O 	0.52719 0.23087 0.48904 -0.35300
C 	C 	0.48861 0.23002 0.46092 0.33800
C 	C 	0.72200 0.43158 0.45572 0.32100
O 	O 	0.66185 0.39168 0.45996 -0.36100
O 	O 	0.51077 0.26485 0.43359 -0.35700
O 	O 	0.71501 0.29726 0.39251 -0.33900
C 	C 	0.75620 0.24028 0.46937 0.33200
O 	O 	0.61826 0.28950 0.55439 -0.35800
O 	O 	0.72319 0.32792 0.57865 -0.39300
H 	H 	0.59870 0.21919 0.43321 0.19300
H 	H 	0.73950 0.37840 0.51580 0.19600
C 	C 	0.59577 0.27739 0.67514 -0.05000
C 	C 	0.64877 0.32521 0.70392 0.02900
C 	C 	0.70467 0.37450 0.69266 -0.05000
C 	C 	0.70919 0.37376 0.65304 0.02400
C 	C 	0.65781 0.32369 0.62434 -0.06900
C 	C 	0.60014 0.27675 0.63547 0.02100
C 	C 	0.64841 0.32016 0.74559 0.03000
H 	H 	0.74558 0.41199 0.71469 0.06800
H 	H 	0.75349 0.41089 0.64476 0.05700
H 	H 	0.55994 0.23808 0.61362 0.05800
H 	H 	0.55211 0.23952 0.68356 0.06800
C 	C 	0.64850 0.36328 0.77196 -0.05100
C 	C 	0.65278 0.36111 0.81196 0.02700
C 	C 	0.65746 0.31600 0.82592 -0.07500
C 	C 	0.65627 0.27225 0.79936 0.02300
C 	C 	0.65164 0.27426 0.75939 -0.05300
H 	H 	0.64607 0.39891 0.76154 0.07200
H 	H 	0.65389 0.39531 0.83214 0.06300
H 	H 	0.65921 0.23686 0.80970 0.03600
H 	H 	0.65169 0.24083 0.73921 0.06300
C 	C 	0.63427 0.25745 0.25456 -0.04800
C 	C 	0.69597 0.29318 0.24493 0.03200
C 	C 	0.75081 0.32194 0.27449 -0.04800
C 	C 	0.74413 0.31870 0.31367 0.02900
C 	C 	0.68255 0.28686 0.32357 -0.06300
C 	C 	0.62759 0.25433 0.29371 0.02400
C 	C 	0.70324 0.30656 0.20496 0.03100
H 	H 	0.79865 0.34896 0.26727 0.07200
H 	H 	0.78694 0.34382 0.33643 0.06600
H 	H 	0.57980 0.22895 0.30098 0.04900
H 	H 	0.59161 0.23456 0.23191 0.07000
C 	C 	0.67817 0.25750 0.17297 -0.04700
C 	C 	0.67951 0.26937 0.13475 0.02400
C 	C 	0.70574 0.33039 0.12820 -0.06100
C 	C 	0.73224 0.37971 0.16032 0.02600
C 	C 	0.73100 0.36782 0.19848 -0.04800
H 	H 	0.65669 0.21006 0.17769 0.07100
H 	H 	0.65886 0.23093 0.11021 0.06000
H 	H 	0.75348 0.42717 0.15574 0.06200
H 	H 	0.75036 0.40597 0.22300 0.07200
C 	C 	0.87569 0.81922 0.46990 -0.04700
C 	C 	0.82509 0.77162 0.43945 0.09200
C 	C 	0.79521 0.70809 0.44150 0.08100
C 	C 	0.82200 0.69228 0.47064 0.00900
C 	C 	0.87300 0.73991 0.50080 0.08100
C 	C 	0.89585 0.80257 0.50206 0.09100
C 	C 	0.79923 0.62633 0.46814 0.02300
C 	C 	0.76045 0.58958 0.49408 0.06600
C 	C 	0.74210 0.52832 0.49287 0.12700
C 	C 	0.75203 0.49959 0.46128 -0.11400
C 	C 	0.78724 0.53537 0.43365 0.12700
C 	C 	0.81563 0.59993 0.43938 0.06500
Br	Br	0.91438 0.72001 0.53872 -0.12700
Br	Br	0.80051 0.79319 0.39349 -0.13000
Br	Br	0.70925 0.48645 0.53626 -0.17800
Br	Br	0.87785 0.65244 0.40838 -0.12800
Br	Br	0.95206 0.86493 0.54848 -0.12500
Br	Br	0.71767 0.64274 0.40465 -0.12600
Br	Br	0.73008 0.62200 0.52993 -0.12000
Br	Br	0.78998 0.49517 0.38566 -0.15900
C 	C 	0.77833 0.20170 0.45962 -0.11900
C 	C 	0.84434 0.22779 0.46963 0.12400
C 	C 	0.86385 0.18855 0.46613 0.06500
C 	C 	0.81715 0.12292 0.45514 0.02300
C 	C 	0.75149 0.09712 0.44387 0.06400
C 	C 	0.73256 0.13685 0.44454 0.12800
C 	C 	0.83689 0.08103 0.45695 0.00800
C 	C 	0.84804 0.05859 0.42294 0.08200
C 	C 	0.86953 0.02116 0.42513 0.09300
C 	C 	0.88438 0.00994 0.46175 -0.04800
C 	C 	0.87230 0.03153 0.49567 0.09200
C 	C 	0.84676 0.06547 0.49304 0.08100
Br	Br	0.68739 0.00726 0.42897 -0.12300
Br	Br	0.90751 0.31648 0.49043 -0.16700
Br	Br	0.87774 0.98433 0.37799 -0.12000
Br	Br	0.82553 0.09103 0.53881 -0.13900
Br	Br	0.64449 0.10303 0.42360 -0.16700
Br	Br	0.95443 0.22439 0.47686 -0.12500
Br	Br	0.83591 0.08096 0.37369 -0.12000
Br	Br	0.89312 0.01667 0.54587 -0.13200
C 	C 	0.41940 0.19402 0.46233 -0.11300
C 	C 	0.37999 0.12781 0.45497 0.12600
C 	C 	0.31361 0.09347 0.45567 0.06600
C 	C 	0.28609 0.12524 0.46203 0.02300
C 	C 	0.32537 0.19142 0.46885 0.06600
C 	C 	0.39227 0.22580 0.47018 0.12700
C 	C 	0.21599 0.08912 0.46207 0.00900
C 	C 	0.17198 0.06647 0.42654 0.08100
C 	C 	0.10540 0.03189 0.42661 0.09200
C 	C 	0.08300 0.02182 0.46232 -0.04700
C 	C 	0.12719 0.04615 0.49793 0.09100
C 	C 	0.19345 0.07832 0.49772 0.08100
Br	Br	0.28720 0.23477 0.47598 -0.12300
Br	Br	0.41662 0.08427 0.44259 -0.16500
Br	Br	0.04466 0.99777 0.37786 -0.12900
Br	Br	0.25348 0.10720 0.54616 -0.13100
Br	Br	0.44724 0.31631 0.48457 -0.14500
Br	Br	0.26024 0.00295 0.44818 -0.12600
Br	Br	0.20321 0.08338 0.37791 -0.12300
Br	Br	0.09697 0.03696 0.54701 -0.12800
C 	C 	0.75310 0.55205 0.96832 -0.11300
C 	C 	0.82108 0.59066 0.97457 0.12400
C 	C 	0.85573 0.65531 0.97444 0.06600
C 	C 	0.82247 0.68163 0.96897 0.02300
C 	C 	0.75440 0.64259 0.96107 0.06500
C 	C 	0.71972 0.57761 0.96007 0.12800
C 	C 	0.85906 0.75062 0.97356 0.00800
C 	C 	0.87748 0.78730 0.01103 0.08100
C 	C 	0.91547 0.85313 0.01583 0.09700
C 	C 	0.93388 0.88226 0.98303 -0.05800
C 	C 	0.91393 0.84554 0.94540 0.09500
C 	C 	0.87704 0.77974 0.94071 0.08100
Br	Br	0.70896 0.67854 0.95249 -0.12200
Br	Br	0.86668 0.55519 0.98462 -0.18000
Br	Br	0.94325 0.90370 0.06737 -0.12200
Br	Br	0.85162 0.72935 0.88943 -0.12600
Br	Br	0.62665 0.52327 0.94623 -0.14100
Br	Br	0.94885 0.70826 0.98235 -0.12500
Br	Br	0.85066 0.74708 0.05573 -0.12400
Br	Br	0.93699 0.88559 0.90038 -0.12800
C 	C 	0.95438 0.08059 0.99497 -0.05500
C 	C 	0.94567 0.10288 0.03017 0.09600
C 	C 	0.90929 0.12637 0.02903 0.08200
C 	C 	0.87968 0.12548 0.99269 0.00700
C 	C 	0.88936 0.10418 0.95752 0.08000
C 	C 	0.92804 0.08328 0.95871 0.09400
C 	C 	0.83888 0.14751 0.99141 0.02300
C 	C 	0.77278 0.10564 0.99311 0.06500
C 	C 	0.73369 0.12614 0.99064 0.12700
C 	C 	0.75999 0.18762 0.98472 -0.12000
C 	C 	0.82585 0.22905 0.98223 0.12600
C 	C 	0.86567 0.20969 0.98702 0.06500
Br	Br	0.84838 0.10242 0.90776 -0.13300
Br	Br	0.98199 0.09939 0.07982 -0.12400
Br	Br	0.64458 0.07063 0.99622 -0.14600
Br	Br	0.95705 0.26826 0.98759 -0.12300
Br	Br	0.94525 0.05837 0.91074 -0.12500
Br	Br	0.89973 0.15963 0.07714 -0.12200
Br	Br	0.73580 0.02005 0.99824 -0.12500
Br	Br	0.86049 0.31079 0.96965 -0.19200
C 	C 	0.48594 0.22714 0.01866 -0.11500
C 	C 	0.46740 0.25706 0.04290 0.12800
C 	C 	0.40161 0.23002 0.04117 0.06500
C 	C 	0.35417 0.16981 0.01843 0.02500
C 	C 	0.37286 0.13645 0.99804 0.06300
C 	C 	0.43862 0.16589 0.99701 0.12600
C 	C 	0.28476 0.14259 0.01473 0.01100
C 	C 	0.25091 0.11306 0.04440 0.08100
C 	C 	0.18550 0.08855 0.04118 0.09300
C 	C 	0.15211 0.08785 0.00658 -0.05200
C 	C 	0.18577 0.11673 0.97667 0.09200
C 	C 	0.25258 0.14631 0.98150 0.07900
Br	Br	0.30825 0.05077 0.97131 -0.12800
Br	Br	0.53224 0.33368 0.07969 -0.19500
Br	Br	0.14189 0.05742 0.08447 -0.12700
Br	Br	0.30027 0.19229 0.94281 -0.13100
Br	Br	0.46335 0.12349 0.96459 -0.17700
Br	Br	0.37643 0.27653 0.06845 -0.12200
Br	Br	0.29371 0.10449 0.08876 -0.12700
Br	Br	0.13978 0.11295 0.92834 -0.13200
