data_crystal

_cell_length_a 19.09494
_cell_length_b 17.02187
_cell_length_c 36.67919
_cell_angle_alpha 88.28112
_cell_angle_beta  88.41478
_cell_angle_gamma 107.47069

_symmetry_space_group_name_	'P 1'
_symmetry_space_group_name_H-M	'P 1'

loop_
_symmetry_equiv_pos_as_xyz
  x,y,z

loop_
_atom_site_label
_atom_site_type_symbol
_atom_site_fract_x
_atom_site_fract_y
_atom_site_fract_z
_atom_site_charge
Zn	Zn	0.57067 0.33047 0.88217 1.22600
Zn	Zn	0.67523 0.46794 0.93341 1.20300
C 	C 	0.78244 0.23049 0.85113 0.26400
Zn	Zn	0.74270 0.37323 0.88005 1.22100
Zn	Zn	0.62194 0.19932 0.84863 1.19000
H 	H 	0.66397 0.31621 0.93670 0.18900
C 	C 	0.73418 0.53445 0.85483 0.27900
O 	O 	0.51539 0.15829 0.83860 -0.45800
O 	O 	0.48926 0.28108 0.84345 -0.38100
O 	O 	0.66275 0.35648 0.91688 -0.78900
O 	O 	0.57146 0.46227 0.93970 -0.45400
O 	O 	0.51492 0.24285 0.91665 -0.36200
O 	O 	0.53368 0.42776 0.88233 -0.41900
O 	O 	0.59330 0.16785 0.90703 -0.40400
O 	O 	0.77950 0.52980 0.93478 -0.46900
H 	H 	0.64823 0.34779 0.82506 0.17000
O 	O 	0.82669 0.42710 0.91796 -0.39700
O 	O 	0.64925 0.32093 0.84927 -0.79600
O 	O 	0.71696 0.17843 0.85963 -0.45000
O 	O 	0.76891 0.47860 0.85136 -0.44100
O 	O 	0.80436 0.30186 0.86716 -0.42200
O 	O 	0.67757 0.52095 0.87812 -0.41600
C 	C 	0.46944 0.20257 0.83521 0.28500
C 	C 	0.53211 0.46935 0.91187 0.35000
C 	C 	0.53591 0.17844 0.92474 0.27600
C 	C 	0.83244 0.49562 0.93516 0.31700
Zn	Zn	0.64204 0.40213 0.55149 1.21900
Zn	Zn	0.49675 0.27652 0.51118 1.20500
C 	C 	0.69924 0.15241 0.59787 0.27600
Zn	Zn	0.57808 0.20905 0.56990 1.22400
Zn	Zn	0.74662 0.33113 0.58879 1.19100
H 	H 	0.62747 0.27061 0.50741 0.21600
C 	C 	0.43591 0.23098 0.59061 0.27600
O 	O 	0.80015 0.45043 0.58725 -0.45800
O 	O 	0.70342 0.50372 0.58338 -0.38000
O 	O 	0.59736 0.28617 0.52665 -0.78300
O 	O 	0.50339 0.39133 0.49663 -0.45800
O 	O 	0.72199 0.43915 0.51355 -0.43400
O 	O 	0.56578 0.45816 0.54503 -0.43500
O 	O 	0.76437 0.33338 0.52990 -0.40800
O 	O 	0.43831 0.16020 0.51428 -0.44900
H 	H 	0.62267 0.33691 0.61497 0.17000
O 	O 	0.52089 0.10392 0.53979 -0.32500
O 	O 	0.64028 0.32172 0.59135 -0.79000
O 	O 	0.74561 0.21731 0.58141 -0.45400
O 	O 	0.48878 0.20037 0.60001 -0.43800
O 	O 	0.62898 0.13275 0.59091 -0.40200
O 	O 	0.44823 0.28936 0.56455 -0.40000
C 	C 	0.76977 0.50825 0.59503 0.26400
C 	C 	0.53321 0.45944 0.51380 0.33300
C 	C 	0.76966 0.39863 0.50905 0.32300
C 	C 	0.46712 0.09967 0.51749 0.27700
Zn	Zn	0.91981 0.90191 0.72070 1.21900
Zn	Zn	0.03445 0.93694 0.79589 1.19500
C 	C 	0.14950 0.07349 0.65458 0.26900
Zn	Zn	0.06382 0.04749 0.72486 1.22500
H 	H 	0.05892 0.89911 0.73107 0.16600
C 	C 	0.99739 0.10325 0.78522 0.26500
O 	O 	0.88854 0.91461 0.63349 -0.45800
O 	O 	0.82508 0.89647 0.68872 -0.38500
O 	O 	0.02770 0.93012 0.74190 -0.78800
O 	O 	0.93007 0.90660 0.81388 -0.45900
O 	O 	0.92229 0.79537 0.70307 -0.44800
O 	O 	0.85619 0.88536 0.76512 -0.44100
O 	O 	0.99665 0.84699 0.65328 -0.40300
O 	O 	0.14136 0.97919 0.80084 -0.47700
H 	H 	0.94302 0.04294 0.69527 0.17300
O 	O 	0.15788 0.08763 0.75909 -0.39300
O 	O 	0.97216 0.00389 0.69476 -0.79600
O 	O 	0.10318 0.00845 0.63995 -0.43200
O 	O 	0.01457 0.11723 0.75027 -0.43200
O 	O 	0.13019 0.10620 0.68394 -0.44000
C 	C 	0.83244 0.92131 0.65373 0.26500
C 	C 	0.87675 0.85792 0.79577 0.26300
C 	C 	0.18388 0.04748 0.78421 0.30900
Zn	Zn	0.32739 0.68794 0.38714 1.22700
Zn	Zn	0.19861 0.53164 0.43210 1.21300
C 	C 	0.12667 0.78919 0.33811 0.27800
Zn	Zn	0.15816 0.64289 0.37377 1.22400
Zn	Zn	0.28734 0.81764 0.34386 1.19100
H 	H 	0.21315 0.68600 0.43453 0.23500
C 	C 	0.16821 0.48210 0.35193 0.27400
O 	O 	0.39568 0.86299 0.34336 -0.46800
O 	O 	0.42371 0.74214 0.35291 -0.39300
O 	O 	0.22292 0.65023 0.41549 -0.76600
O 	O 	0.29541 0.51916 0.44577 -0.38400
O 	O 	0.36491 0.77621 0.42051 -0.40900
O 	O 	0.36568 0.59715 0.39886 -0.42900
O 	O 	0.28486 0.84300 0.40204 -0.41300
O 	O 	0.09094 0.48045 0.42919 -0.44000
H 	H 	0.27289 0.67019 0.32542 0.16900
O 	O 	0.06052 0.59194 0.40696 -0.33600
O 	O 	0.26202 0.69576 0.34793 -0.79800
O 	O 	0.19159 0.84080 0.34427 -0.45400
O 	O 	0.13733 0.54082 0.34609 -0.43800
O 	O 	0.10307 0.71752 0.35631 -0.40700
O 	O 	0.21547 0.48860 0.37806 -0.40900
C 	C 	0.44334 0.82075 0.34202 0.27700
C 	C 	0.35894 0.56818 0.43283 0.29400
C 	C 	0.33639 0.83639 0.42386 0.34000
C 	C 	0.04464 0.52393 0.42746 0.30500
Zn	Zn	0.21356 0.72682 0.06213 1.22000
Zn	Zn	0.35532 0.84578 0.10316 1.19500
C 	C 	0.37782 0.60251 0.99817 0.26300
Zn	Zn	0.38094 0.73832 0.04374 1.22200
Zn	Zn	0.22898 0.59201 0.01354 1.22400
H 	H 	0.31680 0.68876 0.10558 0.17800
C 	C 	0.39146 0.90740 0.02281 0.33300
O 	O 	0.12244 0.57279 0.01673 -0.42200
O 	O 	0.12008 0.70354 0.02812 -0.33400
O 	O 	0.31572 0.73203 0.08715 -0.78700
O 	O 	0.26450 0.86092 0.12237 -0.48800
O 	O 	0.15691 0.63012 0.09424 -0.39800
O 	O 	0.19384 0.83420 0.07257 -0.40200
O 	O 	0.22318 0.55193 0.07054 -0.40000
O 	O 	0.45983 0.89011 0.09180 -0.47700
H 	H 	0.27237 0.74647 0.99926 0.18700
O 	O 	0.48170 0.77266 0.07393 -0.39100
O 	O 	0.27557 0.71151 0.02083 -0.77000
O 	O 	0.31478 0.55141 0.00987 -0.36500
O 	O 	0.41490 0.84386 0.01626 -0.44700
O 	O 	0.41805 0.65426 0.02091 -0.40900
O 	O 	0.34386 0.90356 0.05018 -0.42500
C 	C 	0.09188 0.63199 0.01298 0.29400
C 	C 	0.21835 0.87983 0.10081 0.29800
C 	C 	0.17079 0.55908 0.09295 0.27000
C 	C 	0.50329 0.84399 0.08993 0.27500
Zn	Zn	0.00164 0.14069 0.21568 1.22400
Zn	Zn	0.88102 0.09260 0.29361 1.19800
C 	C 	0.78071 0.98023 0.15168 0.24600
Zn	Zn	0.85530 0.99663 0.22213 1.21900
Zn	Zn	0.93658 0.08363 0.14081 1.19800
H 	H 	0.86238 0.14434 0.22976 0.16700
C 	C 	0.91522 0.92697 0.27999 0.27800
O 	O 	0.03992 0.13836 0.12663 -0.44700
O 	O 	0.09823 0.14882 0.18087 -0.37400
O 	O 	0.89215 0.11043 0.23952 -0.77600
O 	O 	0.98438 0.11653 0.30874 -0.44600
O 	O 	0.06274 0.15097 0.25884 -0.42800
O 	O 	0.93327 0.21023 0.14935 -0.39600
O 	O 	0.77348 0.05051 0.30074 -0.43900
H 	H 	0.97700 0.00378 0.19128 0.18300
O 	O 	0.75924 0.95028 0.25840 -0.39100
O 	O 	0.94965 0.04439 0.19060 -0.80600
O 	O 	0.82607 0.05214 0.13952 -0.43400
O 	O 	0.90058 0.92050 0.24538 -0.44700
O 	O 	0.79173 0.94514 0.18268 -0.44000
O 	O 	0.88017 0.96452 0.30125 -0.40300
C 	C 	0.09218 0.12531 0.14644 0.26000
C 	C 	0.03864 0.17057 0.29033 0.26500
C 	C 	0.98510 0.26576 0.16580 0.27700
C 	C 	0.73174 0.98567 0.28448 0.26800
C 	C 	0.07136 0.50245 0.14365 -0.07200
C 	C 	0.11967 0.48226 0.11259 -0.01200
C 	C 	0.11463 0.35004 0.14860 -0.05900
C 	C 	0.03203 0.34436 0.14560 -0.03500
C 	C 	0.02052 0.42200 0.16297 -0.04500
H 	H 	0.10704 0.54079 0.16402 0.04500
H 	H 	0.03690 0.53899 0.13233 0.09600
H 	H 	0.12559 0.29652 0.13567 0.05700
H 	H 	0.12904 0.34788 0.17775 0.04700
H 	H 	0.96212 0.42065 0.16098 0.04700
C 	C 	0.01586 0.34783 0.10440 -0.04300
H 	H 	0.02399 0.29326 0.09099 0.04900
C 	C 	0.06722 0.42796 0.08516 -0.07600
H 	H 	0.09981 0.41123 0.06269 0.06400
H 	H 	0.03324 0.46336 0.07241 0.09500
C 	C 	0.16536 0.43024 0.12981 -0.06600
H 	H 	0.20069 0.41392 0.10850 0.06100
H 	H 	0.20260 0.46682 0.15012 0.03900
C 	C 	0.70064 0.99292 0.09845 -0.07900
C 	C 	0.70848 0.94367 0.13366 -0.02100
C 	C 	0.56994 0.90401 0.14455 -0.04900
C 	C 	0.57892 0.87659 0.10500 -0.03900
C 	C 	0.62508 0.95343 0.08162 -0.07100
H 	H 	0.70591 0.05795 0.10480 0.06400
H 	H 	0.74538 0.99415 0.07813 0.03800
H 	H 	0.53779 0.85003 0.16212 0.01800
H 	H 	0.53886 0.94986 0.14481 0.02400
H 	H 	0.59511 0.00024 0.07967 0.06700
H 	H 	0.63363 0.93540 0.05331 0.04400
C 	C 	0.62294 0.81346 0.10656 -0.05200
H 	H 	0.63117 0.79315 0.07864 0.05400
H 	H 	0.59166 0.75777 0.12333 0.04500
C 	C 	0.69900 0.85290 0.12332 -0.06500
H 	H 	0.70392 0.81527 0.14792 0.05400
H 	H 	0.74353 0.85125 0.10341 0.04500
C 	C 	0.64512 0.94312 0.16110 -0.08700
H 	H 	0.64853 0.90756 0.18659 0.05000
H 	H 	0.64974 0.00718 0.16888 0.05600
C 	C 	0.20778 0.08040 0.14667 -0.06400
C 	C 	0.12817 0.06203 0.13380 -0.03500
C 	C 	0.16496 0.99196 0.07840 -0.09700
C 	C 	0.18567 0.94657 0.11176 -0.04400
C 	C 	0.24122 0.01269 0.13409 -0.02200
H 	H 	0.24205 0.14172 0.13535 0.05200
H 	H 	0.20851 0.08276 0.17696 0.05200
H 	H 	0.12479 0.94741 0.06179 0.07800
H 	H 	0.21464 0.02094 0.06050 0.08800
H 	H 	0.29236 0.04170 0.11721 0.03800
H 	H 	0.25718 0.98320 0.15870 0.01800
C 	C 	0.11572 0.90779 0.13612 -0.06000
H 	H 	0.12888 0.87411 0.16020 0.04300
H 	H 	0.07413 0.86196 0.12066 0.06800
C 	C 	0.08296 0.97505 0.14932 -0.06600
H 	H 	0.02526 0.96009 0.14053 0.00100
H 	H 	0.08244 0.97399 0.17966 0.02100
C 	C 	0.13099 0.05915 0.09125 -0.03300
H 	H 	0.07468 0.04553 0.08069 0.04200
H 	H 	0.16380 0.12031 0.07914 0.06000
C 	C 	0.65618 0.86895 0.32633 -0.05200
C 	C 	0.65515 0.94213 0.30018 -0.05000
C 	C 	0.52351 0.86161 0.28499 -0.06300
C 	C 	0.52079 0.86361 0.32724 -0.02700
C 	C 	0.57767 0.82291 0.34211 -0.06300
H 	H 	0.67844 0.82499 0.31149 0.05100
H 	H 	0.69321 0.89192 0.34914 0.05300
H 	H 	0.48379 0.89107 0.27344 0.02300
H 	H 	0.50691 0.79662 0.27640 0.03300
H 	H 	0.56278 0.75721 0.33462 0.05400
H 	H 	0.57716 0.82381 0.37245 0.06400
C 	C 	0.54535 0.95563 0.33784 -0.08200
H 	H 	0.54429 0.95945 0.36806 0.07600
H 	H 	0.50671 0.98782 0.32731 0.04900
C 	C 	0.62352 0.00129 0.32210 -0.02000
H 	H 	0.62176 0.05452 0.30414 0.04000
H 	H 	0.65953 0.02654 0.34501 0.06600
C 	C 	0.60181 0.90727 0.26918 -0.05500
H 	H 	0.59948 0.95829 0.24999 0.02700
H 	H 	0.62210 0.86351 0.25313 0.04600
C 	C 	0.15363 0.26079 0.31856 -0.05100
C 	C 	0.07497 0.25380 0.30623 -0.05100
C 	C 	0.06465 0.35137 0.35663 -0.06600
C 	C 	0.13607 0.39950 0.33482 -0.03100
C 	C 	0.18937 0.34582 0.33534 -0.06100
H 	H 	0.18839 0.25316 0.29488 0.04700
H 	H 	0.02475 0.38751 0.35658 0.05100
H 	H 	0.20414 0.33551 0.36385 0.05100
H 	H 	0.24127 0.37866 0.31975 0.04400
C 	C 	0.11632 0.41025 0.29445 -0.05700
H 	H 	0.16670 0.44432 0.27798 0.03500
H 	H 	0.07742 0.44744 0.29277 0.04600
C 	C 	0.08063 0.32523 0.27780 -0.06100
H 	H 	0.02494 0.32222 0.26848 0.02700
H 	H 	0.11399 0.31898 0.25331 0.04100
C 	C 	0.02914 0.26688 0.34010 -0.04400
H 	H 	0.97231 0.26284 0.33219 0.00300
C 	C 	0.00485 0.75667 0.30661 -0.04800
C 	C 	0.06988 0.82463 0.32228 -0.03200
C 	C 	0.04645 0.92705 0.27538 -0.05800
C 	C 	0.97064 0.88911 0.29559 -0.03900
C 	C 	0.94685 0.79451 0.29098 -0.06300
H 	H 	0.02575 0.72466 0.28473 0.03500
H 	H 	0.97784 0.70932 0.32832 0.05700
H 	H 	0.04186 0.91589 0.24567 0.03400
H 	H 	0.94012 0.78054 0.26160 0.04900
C 	C 	0.98049 0.90532 0.33698 -0.06100
H 	H 	0.92719 0.87815 0.35241 0.05700
H 	H 	0.99816 0.97277 0.34131 0.04900
C 	C 	0.03834 0.86769 0.35249 -0.05600
H 	H 	0.08336 0.91728 0.36413 0.05700
H 	H 	0.01261 0.82262 0.37526 0.08300
C 	C 	0.10441 0.88943 0.29091 -0.05800
H 	H 	0.15075 0.93996 0.30097 0.03700
H 	H 	0.12725 0.86010 0.26868 0.02300
C 	C 	0.37003 0.90263 0.44827 -0.12200
C 	C 	0.32675 0.92836 0.47379 0.07100
C 	C 	0.35967 0.98821 0.49836 -0.11400
C 	C 	0.43626 0.02487 0.49703 0.09700
C 	C 	0.48065 0.99808 0.47150 -0.19400
C 	C 	0.44672 0.93569 0.44780 0.12600
H 	H 	0.32540 0.00797 0.51783 0.08300
H 	H 	0.47975 0.91291 0.42878 0.04800
H 	H 	0.26757 0.90145 0.47487 0.04000
C 	C 	0.56380 0.03531 0.46961 0.81600
F 	F 	0.59584 0.00606 0.44080 -0.46500
F 	F 	0.58268 0.12014 0.46484 -0.49800
F 	F 	0.59254 0.01540 0.50156 -0.45100
C 	C 	0.83533 0.43331 0.48496 -0.10800
C 	C 	0.86214 0.38139 0.46336 0.02700
C 	C 	0.92985 0.41178 0.44437 -0.04700
C 	C 	0.97265 0.49413 0.44736 0.01800
C 	C 	0.94649 0.54688 0.46985 -0.13200
C 	C 	0.87628 0.51640 0.48715 0.09100
H 	H 	0.94939 0.37103 0.42743 0.04800
H 	H 	0.85474 0.55634 0.50362 0.05800
H 	H 	0.83075 0.31710 0.46154 0.04300
C 	C 	0.99257 0.63536 0.47530 0.78300
F 	F 	0.99126 0.68341 0.44440 -0.46000
F 	F 	0.96588 0.66841 0.50468 -0.47100
C 	C 	0.52046 0.53507 0.49977 -0.11400
C 	C 	0.54046 0.55871 0.46301 0.03700
C 	C 	0.49074 0.58065 0.44060 -0.04700
C 	C 	0.42386 0.58492 0.45575 0.02800
C 	C 	0.41607 0.58757 0.49424 -0.13500
C 	C 	0.46373 0.55964 0.51619 0.10600
H 	H 	0.50090 0.58601 0.41129 0.05800
H 	H 	0.45164 0.54831 0.54527 0.05700
H 	H 	0.58830 0.54685 0.45065 0.03000
C 	C 	0.35587 0.61603 0.51201 0.79000
F 	F 	0.29526 0.54871 0.52046 -0.47200
F 	F 	0.37996 0.65539 0.54385 -0.44900
F 	F 	0.33567 0.67102 0.48916 -0.47700
C 	C 	0.71225 0.96007 0.65609 -0.07500
C 	C 	0.79205 0.97925 0.63993 -0.05900
C 	C 	0.75106 0.03916 0.58239 -0.04600
C 	C 	0.72990 0.08768 0.61373 -0.03800
C 	C 	0.67588 0.02458 0.64097 -0.02000
H 	H 	0.67919 0.89701 0.64896 0.05300
H 	H 	0.71248 0.96148 0.68641 0.04300
H 	H 	0.78927 0.08224 0.56209 0.06500
H 	H 	0.70119 0.00596 0.56770 0.09000
H 	H 	0.62472 0.99193 0.62716 0.04100
H 	H 	0.65986 0.05750 0.66401 0.02800
C 	C 	0.80025 0.13102 0.63439 -0.06300
H 	H 	0.78644 0.16695 0.65690 0.01500
H 	H 	0.84155 0.17540 0.61578 0.03400
C 	C 	0.83544 0.06777 0.65014 -0.03500
H 	H 	0.89344 0.08362 0.63954 -0.00800
H 	H 	0.83621 0.07197 0.68036 0.02000
C 	C 	0.78817 0.97669 0.59755 -0.06500
H 	H 	0.84429 0.99163 0.58460 0.03400
H 	H 	0.75709 0.91353 0.58956 0.05400
C 	C 	0.36152 0.17769 0.64893 -0.05800
C 	C 	0.35866 0.19093 0.60697 -0.03000
C 	C 	0.24798 0.05991 0.60831 -0.05700
C 	C 	0.22503 0.11484 0.63648 -0.03300
C 	C 	0.28387 0.13502 0.66608 -0.06000
H 	H 	0.39766 0.13894 0.65532 0.04900
H 	H 	0.38551 0.23802 0.66163 0.04000
H 	H 	0.20713 0.04409 0.58656 0.05300
H 	H 	0.24897 0.00098 0.62195 0.05600
H 	H 	0.28373 0.07748 0.68137 0.03900
H 	H 	0.27050 0.17669 0.68611 0.05100
C 	C 	0.22710 0.19748 0.61644 -0.05800
H 	H 	0.21059 0.23849 0.63577 0.05000
H 	H 	0.18680 0.18532 0.59437 0.03900
C 	C 	0.30534 0.24262 0.59977 -0.05900
H 	H 	0.30177 0.25338 0.56990 0.05300
H 	H 	0.32670 0.30408 0.61185 0.05600
C 	C 	0.32501 0.10502 0.59059 -0.06300
H 	H 	0.31982 0.11285 0.56068 0.05100
H 	H 	0.36191 0.06603 0.59460 0.05800
C 	C 	0.86857 0.64651 0.58675 -0.06300
C 	C 	0.81508 0.58398 0.61422 -0.03000
C 	C 	0.90971 0.63409 0.66357 -0.05800
C 	C 	0.89737 0.71457 0.64831 -0.03500
C 	C 	0.91689 0.72246 0.60661 -0.05200
H 	H 	0.90480 0.61591 0.57244 0.08700
H 	H 	0.83688 0.66753 0.56554 0.07100
H 	H 	0.89529 0.62577 0.69336 0.04100
H 	H 	0.97592 0.72753 0.60182 0.06600
H 	H 	0.90836 0.77964 0.59471 0.05400
C 	C 	0.81363 0.70487 0.65321 -0.06100
H 	H 	0.80192 0.76036 0.64174 0.05600
H 	H 	0.79665 0.69880 0.68269 0.04800
C 	C 	0.76594 0.62883 0.63367 -0.05900
H 	H 	0.72760 0.58589 0.65395 0.03800
H 	H 	0.73179 0.64920 0.61351 0.05800
C 	C 	0.86223 0.55827 0.64373 -0.05900
H 	H 	0.82576 0.51367 0.66410 0.02100
H 	H 	0.89930 0.52657 0.63092 0.04400
C 	C 	0.89903 0.53549 0.95466 -0.11400
C 	C 	0.96799 0.55441 0.93681 0.03200
C 	C 	0.03097 0.59580 0.95487 -0.04900
C 	C 	0.02599 0.61722 0.99134 0.03400
C 	C 	0.95596 0.60426 0.00860 -0.13600
C 	C 	0.89280 0.56209 0.99012 0.08600
H 	H 	0.08435 0.60697 0.94124 0.06100
H 	H 	0.83884 0.54924 0.00331 0.04700
H 	H 	0.97290 0.53685 0.90892 0.03500
C 	C 	0.94865 0.63459 0.04662 0.78900
F 	F 	0.87590 0.62150 0.05750 -0.46900
F 	F 	0.97966 0.59359 0.07151 -0.47500
F 	F 	0.98418 0.71830 0.04715 -0.46100
C 	C 	0.42966 0.98699 0.00400 -0.16800
C 	C 	0.50576 0.00867 0.99706 0.09400
C 	C 	0.54101 0.07533 0.97343 -0.08400
C 	C 	0.50105 0.12264 0.95674 0.04900
C 	C 	0.42589 0.10878 0.96835 -0.15500
C 	C 	0.39008 0.03766 0.99030 0.12800
H 	H 	0.59925 0.08851 0.96711 0.06400
H 	H 	0.33149 0.02134 0.99638 0.05200
H 	H 	0.53728 0.97160 0.00887 0.00700
C 	C 	0.38564 0.17157 0.96021 0.79900
F 	F 	0.37276 0.17427 0.92342 -0.47100
F 	F 	0.31840 0.15181 0.97908 -0.45500
F 	F 	0.42669 0.24867 0.97073 -0.45100
C 	C 	0.48828 0.52598 0.91390 -0.11900
C 	C 	0.52122 0.60430 0.92731 0.03900
C 	C 	0.48202 0.63691 0.95219 -0.05400
C 	C 	0.40855 0.59348 0.96151 0.03200
C 	C 	0.37043 0.53069 0.93830 -0.13600
C 	C 	0.41163 0.49366 0.91609 0.11600
H 	H 	0.51036 0.69153 0.96644 0.05400
H 	H 	0.38481 0.43678 0.90295 0.07000
H 	H 	0.57978 0.63351 0.92291 0.01600
C 	C 	0.28781 0.50684 0.93525 0.79100
F 	F 	0.26848 0.48334 0.90020 -0.45600
F 	F 	0.25452 0.44131 0.95932 -0.46100
F 	F 	0.26191 0.57263 0.94268 -0.54300
C 	C 	0.86556 0.10316 0.78504 -0.06800
C 	C 	0.94087 0.13804 0.80292 -0.02400
C 	C 	0.90574 0.26816 0.81610 -0.05500
C 	C 	0.84014 0.19740 0.83348 -0.03700
C 	C 	0.80687 0.13781 0.80277 -0.05400
H 	H 	0.87097 0.11919 0.75523 0.03600
H 	H 	0.84681 0.03472 0.78815 0.05100
H 	H 	0.93207 0.31181 0.83725 0.05600
H 	H 	0.88550 0.30389 0.79515 0.03100
H 	H 	0.78463 0.17075 0.78149 0.01500
H 	H 	0.76024 0.08545 0.81403 0.03700
C 	C 	0.87090 0.14935 0.86230 -0.05300
H 	H 	0.82556 0.09755 0.87504 0.05200
H 	H 	0.89576 0.19057 0.88455 0.05500
C 	C 	0.92958 0.11480 0.84458 -0.06400
H 	H 	0.98237 0.13962 0.85846 0.06000
H 	H 	0.91202 0.04658 0.84901 0.05900
C 	C 	0.96440 0.23341 0.79823 -0.06800
H 	H 	0.01820 0.26044 0.81092 0.06100
H 	H 	0.97191 0.25247 0.76873 0.04800
C 	C 	0.28388 0.03015 0.82535 -0.02400
C 	C 	0.25980 0.08802 0.79813 -0.04700
C 	C 	0.33885 0.21132 0.83146 -0.07300
C 	C 	0.39309 0.16193 0.82181 -0.01300
C 	C 	0.36125 0.07334 0.83929 -0.07700
H 	H 	0.24406 0.01198 0.84911 0.05700
H 	H 	0.28431 0.97261 0.81182 0.02400
H 	H 	0.35885 0.27443 0.81848 0.06800
H 	H 	0.33587 0.21847 0.86142 0.10900
H 	H 	0.35814 0.07584 0.86953 0.09200
H 	H 	0.39800 0.03548 0.83261 0.05900
C 	C 	0.39576 0.15474 0.77978 -0.06700
H 	H 	0.43303 0.11832 0.77188 0.03700
H 	H 	0.41844 0.21707 0.76626 0.03800
C 	C 	0.31785 0.11260 0.76591 -0.05300
H 	H 	0.30332 0.15602 0.74648 0.04400
H 	H 	0.31821 0.05709 0.75071 0.03700
C 	C 	0.26088 0.16745 0.81817 -0.04700
H 	H 	0.24350 0.21055 0.79963 0.05700
H 	H 	0.22099 0.15177 0.84195 0.06400
C 	C 	0.71617 0.67385 0.83794 -0.06000
C 	C 	0.76978 0.62054 0.83852 -0.03300
C 	C 	0.83797 0.70639 0.78270 -0.06100
C 	C 	0.83702 0.77185 0.81118 -0.05200
C 	C 	0.75566 0.76240 0.82204 -0.05100
H 	H 	0.66823 0.64428 0.82125 0.04700
H 	H 	0.69447 0.67799 0.86607 0.04600
H 	H 	0.89568 0.71153 0.77426 0.02300
H 	H 	0.80993 0.71753 0.75773 0.04000
H 	H 	0.72639 0.77517 0.79780 0.04500
H 	H 	0.75302 0.80822 0.84264 0.04000
C 	C 	0.87510 0.75195 0.84581 -0.04800
H 	H 	0.87503 0.79729 0.86707 0.04100
H 	H 	0.93354 0.75717 0.83892 0.01100
C 	C 	0.83571 0.66434 0.86176 -0.06500
H 	H 	0.87558 0.62821 0.86281 0.05000
H 	H 	0.81636 0.66843 0.89035 0.05100
C 	C 	0.79903 0.61803 0.79868 -0.05700
H 	H 	0.83858 0.58152 0.79788 0.04400
H 	H 	0.75274 0.58701 0.78128 0.03500
Zn	Zn	0.99095 0.97334 0.64473 1.18700
O 	O 	0.03193 0.06244 0.80515 -0.38000
C 	C 	0.94200 0.78806 0.66927 0.28400
O 	O 	0.00086 0.25041 0.19914 -0.44400
H 	H 	0.03240 0.42210 0.19252 0.04200
H 	H 	0.95755 0.34562 0.10110 0.05200
H 	H 	0.15152 0.21052 0.33908 0.04600
H 	H 	0.07694 0.34180 0.38563 0.04800
H 	H 	0.02458 0.21745 0.36142 0.04300
H 	H 	0.06527 0.99499 0.27826 0.03900
H 	H 	0.89265 0.76536 0.30530 0.05100
F 	F 	0.06444 0.63915 0.48204 -0.47000
H 	H 	0.96880 0.63804 0.66017 0.04500
