data_crystal

_cell_length_a 15.11135
_cell_length_b 15.21828
_cell_length_c 40.20372
_cell_angle_alpha 95.40264
_cell_angle_beta  95.40050
_cell_angle_gamma 126.71720

_symmetry_space_group_name_	'P 1'
_symmetry_space_group_name_H-M	'P 1'

loop_
_symmetry_equiv_pos_as_xyz
  x,y,z

loop_
_atom_site_label
_atom_site_type_symbol
_atom_site_fract_x
_atom_site_fract_y
_atom_site_fract_z
_atom_site_charge
C 	C 	0.03230 0.99142 0.97273 0.12800
N 	N 	0.07261 0.12871 0.48642 -0.13800
C 	C 	0.13026 0.08944 0.49488 0.11400
N 	N 	0.07395 0.98299 0.50046 -0.13500
C 	C 	0.14783 0.05168 0.96635 -0.02800
N 	N 	0.99018 0.04740 0.97964 -0.14500
N 	N 	0.96631 0.87901 0.97054 -0.14200
C 	C 	0.88249 0.99104 0.98464 0.12400
Cu	Cu	0.73623 0.31835 0.95866 0.92900
Cu	Cu	0.76414 0.26922 0.03513 0.86600
Cu	Cu	0.58657 0.28997 0.00918 0.89500
Cu	Cu	0.52068 0.30144 0.93866 0.89400
C 	C 	0.63209 0.25841 0.88830 0.30900
O 	O 	0.79250 0.47174 0.95137 -0.36800
C 	C 	0.67737 0.33912 0.08219 0.28100
O 	O 	0.56622 0.22963 0.96247 -0.64300
O 	O 	0.74752 0.35909 0.00790 -0.64100
O 	O 	0.82775 0.26443 0.96179 -0.37400
O 	O 	0.73435 0.15732 0.00011 -0.44400
O 	O 	0.58340 0.30400 0.89663 -0.38400
O 	O 	0.42773 0.21181 0.00925 -0.38900
C 	C 	0.35151 0.19310 0.98434 0.30400
C 	C 	0.75422 0.52150 0.96517 0.29700
O 	O 	0.65163 0.46178 0.97168 -0.39400
O 	O 	0.37901 0.23829 0.95685 -0.39200
O 	O 	0.69755 0.25485 0.91136 -0.36400
C 	C 	0.80188 0.18398 0.97821 0.30700
O 	O 	0.61142 0.33987 0.05829 -0.37800
O 	O 	0.76593 0.34780 0.07561 -0.41900
H 	H 	0.51576 0.14709 0.95647 0.16400
H 	H 	0.79976 0.43994 0.01767 0.17200
Cu	Cu	0.64259 0.22197 0.51284 0.92800
Cu	Cu	0.68200 0.18277 0.43555 0.86700
Cu	Cu	0.66757 0.36533 0.46066 0.89600
Cu	Cu	0.66206 0.43931 0.53218 0.89300
C 	C 	0.68391 0.31537 0.58241 0.29200
O 	O 	0.48877 0.16221 0.52134 -0.37800
C 	C 	0.61279 0.26843 0.38820 0.30000
O 	O 	0.72966 0.38972 0.50749 -0.64000
O 	O 	0.59690 0.20596 0.46348 -0.64100
O 	O 	0.69937 0.13328 0.51093 -0.37700
O 	O 	0.79848 0.21672 0.46994 -0.44400
O 	O 	0.69153 0.40397 0.57686 -0.38300
O 	O 	0.74820 0.52247 0.45944 -0.38600
C 	C 	0.76392 0.59784 0.48371 0.30400
C 	C 	0.43670 0.20083 0.50995 0.30000
O 	O 	0.49432 0.30219 0.50311 -0.39100
O 	O 	0.70883 0.56868 0.50927 -0.39100
O 	O 	0.70576 0.26449 0.56012 -0.36600
C 	C 	0.77519 0.15342 0.49284 0.30800
O 	O 	0.61453 0.33686 0.41156 -0.37900
O 	O 	0.60052 0.17944 0.39535 -0.42000
H 	H 	0.81284 0.43894 0.51295 0.16500
H 	H 	0.51484 0.15491 0.45465 0.17200
C 	C 	0.67488 0.28897 0.61693 -0.08300
C 	C 	0.61198 0.30592 0.63632 0.01400
C 	C 	0.60502 0.28372 0.66930 -0.06500
C 	C 	0.66054 0.24396 0.68328 0.02600
C 	C 	0.72222 0.22541 0.66381 -0.06500
C 	C 	0.72927 0.24763 0.63075 0.01500
C 	C 	0.65798 0.22661 0.71881 0.00200
C 	C 	0.75719 0.29359 0.74344 -0.03900
C 	C 	0.75258 0.28904 0.77788 -0.03100
C 	C 	0.64888 0.21755 0.78791 -0.00500
C 	C 	0.55042 0.14651 0.76322 -0.03200
C 	C 	0.55492 0.15079 0.72876 -0.04000
C 	C 	0.64200 0.22705 0.82343 0.04600
C 	C 	0.63692 0.23896 0.85311 -0.10100
H 	H 	0.56845 0.33634 0.62582 0.03100
H 	H 	0.55757 0.29870 0.68417 0.04800
H 	H 	0.76530 0.19462 0.67437 0.04700
H 	H 	0.77828 0.23432 0.61615 0.04100
H 	H 	0.83720 0.35213 0.73604 0.04100
H 	H 	0.82912 0.34400 0.79681 0.04200
H 	H 	0.46998 0.09068 0.77076 0.03900
H 	H 	0.47800 0.09786 0.70992 0.04000
C 	C 	0.66267 0.34779 0.11788 -0.08700
C 	C 	0.75503 0.39900 0.14471 0.01100
C 	C 	0.73889 0.39541 0.17838 -0.06700
C 	C 	0.63043 0.34100 0.18562 0.02400
C 	C 	0.53869 0.29375 0.15898 -0.06500
C 	C 	0.55469 0.29718 0.12527 0.00900
C 	C 	0.61223 0.32740 0.22082 0.00100
C 	C 	0.54868 0.22038 0.22897 -0.04100
C 	C 	0.54060 0.20788 0.26283 -0.03400
C 	C 	0.59589 0.30216 0.28875 -0.00800
C 	C 	0.65634 0.40892 0.28056 -0.03400
C 	C 	0.66441 0.42156 0.24670 -0.04100
C 	C 	0.59864 0.28989 0.32387 0.04300
C 	C 	0.60349 0.27981 0.35325 -0.11000
H 	H 	0.83907 0.44006 0.13949 0.03100
H 	H 	0.81032 0.43256 0.19878 0.04400
H 	H 	0.45475 0.25240 0.16434 0.04500
H 	H 	0.48270 0.25747 0.10488 0.03500
H 	H 	0.50814 0.14716 0.20920 0.03700
H 	H 	0.49369 0.12508 0.26897 0.03700
H 	H 	0.69916 0.48220 0.30046 0.03900
H 	H 	0.71298 0.50448 0.24065 0.03900
C 	C 	0.82315 0.71309 0.47790 -0.12600
H 	H 	0.80841 0.72669 0.45256 0.07700
C 	C 	0.89919 0.10898 0.47711 -0.02100
C 	C 	0.83185 0.10240 0.49793 -0.14100
H 	H 	0.81732 0.05758 0.51882 0.08200
C 	C 	0.25421 0.16506 0.50010 -0.02100
C 	C 	0.31310 0.12537 0.50166 -0.13300
H 	H 	0.29776 0.25437 0.50274 0.04800
H 	H 	0.26965 0.03604 0.49872 0.07700
C 	C 	0.82790 0.64410 0.97374 -0.13000
H 	H 	0.91833 0.68900 0.97799 0.07600
C 	C 	0.85258 0.12707 0.97286 -0.13700
C 	C 	0.83500 0.05024 0.99111 -0.02800
H 	H 	0.90557 0.14869 0.95383 0.08200
H 	H 	0.77856 0.02498 0.00919 0.04000
C 	C 	0.23550 0.13562 0.98999 -0.12400
H 	H 	0.22181 0.15755 0.01447 0.07400
H 	H 	0.16194 0.02308 0.94309 0.04200
N 	N 	0.81808 0.87934 0.98353 -0.14300
C 	C 	0.85952 0.82299 0.97647 0.12000
C 	C 	0.95940 0.06267 0.48370 0.10900
C 	C 	0.96015 0.91541 0.49663 0.11600
N 	N 	0.90292 0.95558 0.48850 -0.13500
C 	C 	0.89957 0.80050 0.50282 -0.02100
H 	H 	0.92148 0.78698 0.52733 0.04000
H 	H 	0.91728 0.15674 0.45687 0.03700
C 	C 	0.78552 0.70032 0.97287 -0.02200
H 	H 	0.69507 0.65535 0.96904 0.04800
