data_crystal

_cell_length_a 26.23917
_cell_length_b 26.32775
_cell_length_c 36.38193
_cell_angle_alpha 95.49320
_cell_angle_beta  95.49138
_cell_angle_gamma 125.83168

_symmetry_space_group_name_	'P 1'
_symmetry_space_group_name_H-M	'P 1'

loop_
_symmetry_equiv_pos_as_xyz
  x,y,z

loop_
_atom_site_label
_atom_site_type_symbol
_atom_site_fract_x
_atom_site_fract_y
_atom_site_fract_z
_atom_site_charge
C 	C 	0.96399 0.01983 0.99249 0.16200
N 	N 	0.92972 0.95712 0.99482 -0.09900
C 	C 	0.95580 0.92559 0.99035 0.18600
C 	C 	0.05140 0.02010 0.98225 0.17900
N 	N 	0.02503 0.05142 0.98646 -0.10200
C 	C 	0.94617 0.01283 0.46291 0.15100
N 	N 	0.00945 0.04649 0.46168 -0.10400
C 	C 	0.03744 0.01664 0.45947 0.17900
N 	N 	0.00192 0.95278 0.45812 -0.07600
C 	C 	0.93847 0.91862 0.45889 0.18500
N 	N 	0.91056 0.94872 0.46151 -0.11500
Cu	Cu	0.63038 0.22613 0.00293 0.93400
Cu	Cu	0.67820 0.23181 0.92227 0.88700
Cu	Cu	0.67084 0.33276 0.95865 0.90800
Cu	Cu	0.63771 0.34643 0.03360 0.90600
C 	C 	0.65286 0.26969 0.08226 0.30600
O 	O 	0.53825 0.19179 0.00340 -0.34900
C 	C 	0.64633 0.29427 0.87585 0.31200
O 	O 	0.68575 0.32608 0.00976 -0.64000
O 	O 	0.62267 0.23809 0.95040 -0.63700
O 	O 	0.66593 0.17716 0.99701 -0.32800
O 	O 	0.73768 0.24413 0.96293 -0.42600
O 	O 	0.62524 0.29730 0.07480 -0.36200
O 	O 	0.72238 0.42463 0.97009 -0.34000
C 	C 	0.71484 0.45849 0.99509 0.34400
C 	C 	0.51537 0.22158 0.99142 0.33100
O 	O 	0.55481 0.28202 0.98915 -0.35000
O 	O 	0.67811 0.43287 0.02039 -0.37000
O 	O 	0.65159 0.23093 0.05567 -0.33800
C 	C 	0.71948 0.20118 0.98435 0.33900
O 	O 	0.67053 0.34069 0.90522 -0.34300
O 	O 	0.63948 0.24122 0.87893 -0.39200
H 	H 	0.73150 0.35146 0.02162 0.18000
H 	H 	0.57833 0.21442 0.93633 0.19700
Cu	Cu	0.74415 0.34948 0.46098 0.93600
Cu	Cu	0.73766 0.30705 0.54299 0.88200
Cu	Cu	0.63855 0.31494 0.50545 0.90400
Cu	Cu	0.61957 0.33346 0.42737 0.90700
C 	C 	0.69996 0.32010 0.38127 0.30700
O 	O 	0.77390 0.43937 0.45689 -0.31700
C 	C 	0.67320 0.33735 0.58837 0.30800
O 	O 	0.64367 0.29154 0.45506 -0.63800
O 	O 	0.73325 0.36194 0.51328 -0.63700
O 	O 	0.79439 0.31546 0.46951 -0.32600
O 	O 	0.72512 0.24628 0.50357 -0.42900
O 	O 	0.67071 0.34633 0.38728 -0.36200
O 	O 	0.54617 0.26322 0.49579 -0.37400
C 	C 	0.50972 0.26359 0.46825 0.35000
C 	C 	0.74112 0.46009 0.46688 0.33000
O 	O 	0.68116 0.41895 0.47004 -0.38200
O 	O 	0.53144 0.28865 0.43841 -0.34800
O 	O 	0.73896 0.32349 0.40882 -0.32100
C 	C 	0.76952 0.26300 0.48336 0.34000
O 	O 	0.63453 0.33047 0.55888 -0.35500
O 	O 	0.72754 0.34666 0.58534 -0.39600
H 	H 	0.61894 0.24507 0.44587 0.18300
H 	H 	0.75780 0.40680 0.52641 0.20100
C 	C 	0.62867 0.32710 0.76976 0.01200
C 	C 	0.58059 0.27687 0.74100 -0.02300
C 	C 	0.58396 0.28302 0.70337 -0.02200
C 	C 	0.63546 0.33939 0.69437 0.00900
C 	C 	0.68108 0.39115 0.72318 -0.02100
C 	C 	0.67769 0.38502 0.76080 -0.02200
C 	C 	0.63291 0.31617 0.80759 0.06500
C 	C 	0.63813 0.30640 0.83895 -0.07100
C 	C 	0.64705 0.34037 0.65646 0.06300
C 	C 	0.65823 0.33982 0.62511 -0.08100
H 	H 	0.54227 0.23209 0.74769 0.06300
H 	H 	0.54827 0.24290 0.68127 0.06200
H 	H 	0.72084 0.43504 0.71646 0.06400
H 	H 	0.71480 0.42425 0.78289 0.06900
C 	C 	0.70516 0.27972 0.27133 0.01300
C 	C 	0.65163 0.22399 0.24803 -0.02200
C 	C 	0.64532 0.21789 0.20894 -0.02100
C 	C 	0.69252 0.26749 0.19298 0.01100
C 	C 	0.74801 0.32133 0.21627 -0.02200
C 	C 	0.75433 0.32742 0.25536 -0.02100
C 	C 	0.70488 0.29224 0.31068 0.06500
C 	C 	0.70333 0.30415 0.34321 -0.06600
C 	C 	0.68000 0.26716 0.15352 0.06300
C 	C 	0.66828 0.26786 0.12079 -0.07500
H 	H 	0.61355 0.18673 0.26015 0.06300
H 	H 	0.60246 0.17590 0.19112 0.06600
H 	H 	0.78493 0.35970 0.20415 0.06200
H 	H 	0.79604 0.37051 0.27317 0.06700
C 	C 	0.87780 0.74743 0.43408 -0.12400
C 	C 	0.84531 0.72193 0.46349 0.00800
C 	C 	0.83876 0.75978 0.48958 0.32200
C 	C 	0.86627 0.82331 0.48682 -0.08300
C 	C 	0.90082 0.84952 0.45817 -0.06700
C 	C 	0.90534 0.81085 0.43133 0.35200
C 	C 	0.81820 0.65556 0.46686 0.02200
F 	F 	0.80696 0.73543 0.51800 -0.39600
H 	H 	0.86262 0.85273 0.50770 0.12200
F 	F 	0.93705 0.83502 0.40284 -0.39700
H 	H 	0.88215 0.71818 0.41352 0.12700
C 	C 	0.75220 0.60741 0.45578 0.30400
C 	C 	0.72712 0.54390 0.45654 -0.05500
C 	C 	0.76777 0.52778 0.46827 -0.13500
C 	C 	0.83378 0.57629 0.48016 0.37500
C 	C 	0.85879 0.63987 0.47934 -0.14300
F 	F 	0.71253 0.62201 0.44349 -0.39300
H 	H 	0.67622 0.50702 0.44720 0.10400
F 	F 	0.87353 0.56199 0.49281 -0.42900
H 	H 	0.90978 0.67691 0.48813 0.12900
C 	C 	0.92486 0.13949 0.49342 -0.10600
C 	C 	0.86731 0.11631 0.46975 -0.00500
C 	C 	0.83416 0.05756 0.44486 0.32500
C 	C 	0.85894 0.02273 0.44344 -0.12300
C 	C 	0.91696 0.04633 0.46686 -0.05100
C 	C 	0.94939 0.10458 0.49223 0.32200
C 	C 	0.84043 0.15223 0.47248 0.02600
F 	F 	0.77789 0.03415 0.42222 -0.41500
H 	H 	0.83366 0.97802 0.42370 0.14600
F 	F 	0.00442 0.12706 0.51597 -0.40000
H 	H 	0.95035 0.18444 0.51295 0.12300
C 	C 	0.81763 0.15745 0.50489 0.28700
C 	C 	0.79568 0.19451 0.50854 -0.05300
C 	C 	0.79560 0.22635 0.47968 -0.14700
C 	C 	0.81794 0.22069 0.44700 0.37800
C 	C 	0.84046 0.18391 0.44354 -0.14000
F 	F 	0.81691 0.12664 0.53294 -0.41200
H 	H 	0.77883 0.19862 0.53390 0.08100
F 	F 	0.81661 0.24960 0.41835 -0.42300
H 	H 	0.85811 0.18019 0.41845 0.13300
C 	C 	0.19750 0.06804 0.43801 -0.10600
C 	C 	0.23951 0.12413 0.46494 0.00100
C 	C 	0.21502 0.14533 0.48969 0.31900
C 	C 	0.14896 0.11046 0.48759 -0.09000
C 	C 	0.10684 0.05400 0.46085 -0.05500
C 	C 	0.13141 0.03303 0.43592 0.32500
C 	C 	0.30906 0.16081 0.46699 0.02600
F 	F 	0.25532 0.19940 0.51599 -0.40400
H 	H 	0.13049 0.12682 0.50707 0.13600
H 	H 	0.21613 0.05173 0.41862 0.12600
C 	C 	0.34160 0.13724 0.48095 0.29000
C 	C 	0.40735 0.17139 0.48191 -0.05000
C 	C 	0.44111 0.22934 0.46891 -0.14000
C 	C 	0.40862 0.25345 0.45559 0.38000
C 	C 	0.34283 0.21913 0.45454 -0.13700
F 	F 	0.30942 0.08118 0.49349 -0.40900
H 	H 	0.43186 0.15231 0.49218 0.09800
F 	F 	0.44092 0.31044 0.44410 -0.42100
H 	H 	0.31801 0.23774 0.44395 0.13900
C 	C 	0.79216 0.61538 0.96132 -0.14500
C 	C 	0.81409 0.65814 0.99531 0.02300
C 	C 	0.80241 0.63517 0.02913 0.30500
C 	C 	0.77013 0.57004 0.02898 -0.05400
C 	C 	0.74864 0.52716 0.99501 -0.13400
C 	C 	0.75926 0.55016 0.96105 0.37800
C 	C 	0.84974 0.72701 0.99541 0.00800
F 	F 	0.82228 0.67597 0.06211 -0.39400
H 	H 	0.76223 0.55297 0.05531 0.10300
F 	F 	0.73660 0.50924 0.92776 -0.42400
H 	H 	0.80062 0.63276 0.93509 0.12800
C 	C 	0.91510 0.76937 0.01149 0.32300
C 	C 	0.94925 0.83430 0.01041 -0.08300
C 	C 	0.91865 0.85746 0.99287 -0.06500
C 	C 	0.85311 0.81495 0.97680 0.35300
C 	C 	0.81887 0.75011 0.97827 -0.12600
F 	F 	0.94571 0.74741 0.02765 -0.39800
H 	H 	0.99960 0.86660 0.02309 0.12200
F 	F 	0.82309 0.83606 0.95877 -0.40700
H 	H 	0.76849 0.71763 0.96567 0.12800
C 	C 	0.76388 0.08918 0.99249 -0.13800
C 	C 	0.83095 0.13198 0.99930 0.02300
C 	C 	0.86120 0.19783 0.00394 0.28800
C 	C 	0.82458 0.22046 0.00038 -0.05300
C 	C 	0.75747 0.17756 0.99239 -0.14600
C 	C 	0.72721 0.11177 0.98913 0.37400
C 	C 	0.86918 0.10750 0.99925 0.00600
F 	F 	0.92605 0.23980 0.01138 -0.41000
H 	H 	0.84836 0.27130 0.00335 0.09700
F 	F 	0.66239 0.06958 0.98105 -0.42900
H 	H 	0.74019 0.03829 0.98887 0.13600
C 	C 	0.86974 0.07469 0.02734 0.31000
C 	C 	0.90211 0.04743 0.02557 -0.08500
C 	C 	0.93453 0.05306 0.99588 -0.06500
C 	C 	0.93534 0.08732 0.96830 0.34700
C 	C 	0.90267 0.11427 0.96998 -0.11700
F 	F 	0.83847 0.06879 0.05616 -0.41000
F 	F 	0.96572 0.09244 0.93914 -0.41500
H 	H 	0.90228 0.13932 0.94813 0.12800
C 	C 	0.35234 0.17863 0.95487 -0.14100
C 	C 	0.31574 0.13755 0.97868 0.02300
C 	C 	0.34381 0.12114 0.00509 0.29900
C 	C 	0.40852 0.14703 0.00835 -0.05500
C 	C 	0.44584 0.18968 0.98530 -0.13800
C 	C 	0.41714 0.20457 0.95806 0.37300
C 	C 	0.24819 0.11217 0.97627 0.00300
F 	F 	0.30851 0.08073 0.02793 -0.40400
H 	H 	0.43004 0.13519 0.02944 0.10800
F 	F 	0.45187 0.24381 0.93458 -0.43200
H 	H 	0.33069 0.19079 0.93409 0.13100
C 	C 	0.23105 0.14103 0.00156 0.32300
C 	C 	0.16649 0.11251 0.00222 -0.08600
C 	C 	0.11861 0.05484 0.97772 -0.05600
C 	C 	0.13586 0.02777 0.95113 0.32800
C 	C 	0.20043 0.05635 0.95050 -0.11300
F 	F 	0.27699 0.19563 0.02624 -0.40300
H 	H 	0.15374 0.13397 0.02268 0.12200
F 	F 	0.09007 0.97339 0.92623 -0.38300
H 	H 	0.21337 0.03430 0.93060 0.12100
N 	N 	0.01666 0.95723 0.98416 -0.09200
F 	F 	0.09123 0.97938 0.40930 -0.36800
H 	H 	0.90164 0.02153 0.04712 0.11300
