data_crystal

_cell_length_a 28.01117
_cell_length_b 28.07454
_cell_length_c 30.48036
_cell_angle_alpha 89.93382
_cell_angle_beta  89.92485
_cell_angle_gamma 90.89530

_symmetry_space_group_name_	'P 1'
_symmetry_space_group_name_H-M	'P 1'

loop_
_symmetry_equiv_pos_as_xyz
  x,y,z

loop_
_atom_site_label
_atom_site_type_symbol
_atom_site_fract_x
_atom_site_fract_y
_atom_site_fract_z
_atom_site_charge
Zn	Zn	0.49602 0.48290 0.99735 1.22000
C 	C 	0.55222 0.56573 0.02011 0.31700
O 	O 	0.52034 0.43273 0.03579 -0.47500
O 	O 	0.52228 0.57024 0.05325 -0.44500
O 	O 	0.55337 0.47833 0.08867 -0.48500
C 	C 	0.41832 0.53398 0.03054 0.32900
O 	O 	0.44925 0.53243 0.99846 -0.45900
O 	O 	0.42895 0.51505 0.06870 -0.49900
C 	C 	0.55600 0.44189 0.06220 0.31800
O 	O 	0.43224 0.43267 0.97792 -0.32900
Zn	Zn	0.49498 0.51456 0.09018 1.17300
O 	O 	0.55176 0.52663 0.99602 -0.43700
C 	C 	0.45636 0.42310 0.94277 0.27500
O 	O 	0.49579 0.44771 0.93838 -0.37600
Zn	Zn	0.39667 0.14281 0.99222 1.22200
C 	C 	0.42725 0.15591 0.08151 0.33000
O 	O 	0.34162 0.11814 0.02574 -0.44300
O 	O 	0.38855 0.18019 0.08959 -0.44800
O 	O 	0.30473 0.18952 0.02934 -0.49500
C 	C 	0.42744 0.23936 0.97452 0.31400
O 	O 	0.41418 0.19863 0.95709 -0.45600
O 	O 	0.42108 0.24645 0.01656 -0.48600
C 	C 	0.30284 0.14285 0.03233 0.31900
O 	O 	0.36253 0.11187 0.92708 -0.32400
Zn	Zn	0.36159 0.22670 0.04405 1.17600
O 	O 	0.44224 0.15077 0.04092 -0.43400
C 	C 	0.39537 0.07991 0.92969 0.29500
O 	O 	0.42342 0.08394 0.96321 -0.37700
C 	C 	0.53128 0.99462 0.27537 0.14200
C 	C 	0.51342 0.03297 0.25124 -0.07600
H 	H 	0.49610 0.06195 0.26812 0.08100
C 	C 	0.51757 0.03362 0.20536 0.06100
C 	C 	0.53953 0.99571 0.18371 -0.06100
C 	C 	0.55784 0.95741 0.20777 0.07000
C 	C 	0.55316 0.95679 0.25363 -0.10000
H 	H 	0.56642 0.92700 0.27243 0.07300
N 	N 	0.52714 0.99397 0.32239 -0.18000
C 	C 	0.49184 0.96682 0.34179 0.19800
C 	C 	0.49039 0.96163 0.38774 -0.07800
C 	C 	0.52532 0.98464 0.41347 0.06100
C 	C 	0.55878 0.01538 0.39332 -0.07400
C 	C 	0.55955 0.01918 0.34725 0.19800
C 	C 	0.45390 0.93493 0.40824 0.01200
C 	C 	0.45345 0.92936 0.45374 -0.05700
C 	C 	0.49162 0.94736 0.47953 0.02000
C 	C 	0.52611 0.97775 0.45952 -0.03100
C 	C 	0.56017 0.00281 0.48534 0.02500
C 	C 	0.58993 0.04284 0.41940 0.01300
C 	C 	0.58920 0.03817 0.46498 -0.05700
C 	C 	0.49473 0.93757 0.52523 0.01500
C 	C 	0.52863 0.96272 0.55113 -0.02300
C 	C 	0.56286 0.99353 0.53121 0.01100
O 	O 	0.59220 0.04625 0.32786 -0.17200
O 	O 	0.45959 0.94493 0.31725 -0.20100
H 	H 	0.61370 0.06909 0.40457 0.05200
H 	H 	0.60932 0.06378 0.48417 0.05200
H 	H 	0.42499 0.91949 0.38913 0.04600
H 	H 	0.42221 0.91323 0.46877 0.05000
C 	C 	0.60041 0.01241 0.55727 -0.05100
C 	C 	0.59956 0.00713 0.60279 0.01400
C 	C 	0.56368 0.97944 0.62306 -0.07900
C 	C 	0.52960 0.95545 0.59713 0.06100
C 	C 	0.46644 0.90141 0.54525 -0.05200
C 	C 	0.46647 0.89568 0.59073 0.01200
C 	C 	0.49728 0.92329 0.61701 -0.07300
C 	C 	0.56220 0.97405 0.66898 0.19900
N 	N 	0.52871 0.94446 0.68810 -0.17900
C 	C 	0.49736 0.91822 0.66300 0.19800
C 	C 	0.52558 0.94193 0.73515 0.14700
C 	C 	0.55886 0.91549 0.75899 -0.09800
C 	C 	0.55738 0.91527 0.80498 0.07200
C 	C 	0.52232 0.94112 0.82702 -0.05900
C 	C 	0.48856 0.96691 0.80333 0.06200
C 	C 	0.49040 0.96752 0.75737 -0.07900
O 	O 	0.59253 0.99824 0.69378 -0.20000
O 	O 	0.46686 0.88851 0.68206 -0.16600
H 	H 	0.58614 0.89586 0.74180 0.08000
H 	H 	0.46514 0.98845 0.73894 0.08400
H 	H 	0.63156 0.02895 0.54250 0.04900
H 	H 	0.62794 0.02329 0.62207 0.04800
H 	H 	0.44632 0.87604 0.52577 0.05100
H 	H 	0.44339 0.86865 0.60530 0.05500
H 	H 	0.52197 0.94200 0.86260 0.09500
H 	H 	0.54226 0.99599 0.14822 0.09400
Zn	Zn	0.70414 0.82521 0.01540 1.22900
C 	C 	0.66922 0.83205 0.10400 0.32100
O 	O 	0.77228 0.84281 0.01603 -0.46100
O 	O 	0.68584 0.78944 0.11227 -0.41500
O 	O 	0.78404 0.82444 0.08781 -0.48200
C 	C 	0.67845 0.72644 0.02322 0.32200
O 	O 	0.66228 0.76987 0.02035 -0.37500
O 	O 	0.71973 0.71913 0.04221 -0.48300
C 	C 	0.79562 0.84958 0.05294 0.31400
O 	O 	0.70823 0.80793 0.93954 -0.27300
Zn	Zn	0.74752 0.76500 0.08335 1.17600
O 	O 	0.68458 0.85638 0.06981 -0.39500
C 	C 	0.68397 0.84658 0.93462 0.26200
O 	O 	0.67507 0.86953 0.97043 -0.31400
Zn	Zn	0.16251 0.66696 0.97308 1.22700
C 	C 	0.13759 0.67698 0.06438 0.33800
O 	O 	0.11854 0.72075 0.96908 -0.39400
O 	O 	0.14836 0.72260 0.06079 -0.45400
O 	O 	0.17918 0.77457 0.97662 -0.49900
C 	C 	0.25649 0.65726 0.00946 0.32100
O 	O 	0.23115 0.65557 0.97310 -0.46400
O 	O 	0.24762 0.68977 0.03908 -0.48700
C 	C 	0.13527 0.76436 0.96473 0.32100
O 	O 	0.16387 0.66207 0.89544 -0.27200
Zn	Zn	0.20897 0.74438 0.02674 1.17600
O 	O 	0.15009 0.64724 0.03340 -0.43300
C 	C 	0.13642 0.62482 0.90098 0.26400
O 	O 	0.12709 0.61390 0.94132 -0.33400
C 	C 	0.98311 0.55211 0.25556 0.14800
C 	C 	0.95435 0.52214 0.22960 -0.06000
H 	H 	0.93052 0.49638 0.24509 0.08400
C 	C 	0.95735 0.52455 0.18377 0.05600
C 	C 	0.98915 0.55702 0.16395 -0.01100
C 	C 	0.01927 0.58574 0.18980 0.03900
C 	C 	0.01513 0.58439 0.23562 -0.06000
H 	H 	0.03840 0.60646 0.25575 0.08100
N 	N 	0.98260 0.54691 0.30244 -0.17400
C 	C 	0.01205 0.51446 0.32177 0.19500
C 	C 	0.01032 0.50698 0.36742 -0.07500
C 	C 	0.97952 0.53437 0.39319 0.06500
C 	C 	0.94870 0.56654 0.37272 -0.07500
C 	C 	0.95129 0.57291 0.32694 0.20000
C 	C 	0.03715 0.47104 0.38718 0.01200
C 	C 	0.03453 0.46346 0.43234 -0.05300
C 	C 	0.00831 0.49455 0.45942 0.01500
C 	C 	0.97847 0.52850 0.43936 -0.02200
C 	C 	0.94605 0.55507 0.46485 0.01800
C 	C 	0.91431 0.59007 0.39783 0.01300
C 	C 	0.91161 0.58283 0.44306 -0.05400
C 	C 	0.00952 0.49091 0.50596 0.01600
C 	C 	0.97728 0.51768 0.53151 -0.02400
C 	C 	0.94727 0.55149 0.51141 0.01900
O 	O 	0.92340 0.60389 0.30751 -0.17800
O 	O 	0.04197 0.49005 0.29745 -0.15800
H 	H 	0.88834 0.61268 0.38220 0.05100
H 	H 	0.88122 0.59674 0.46040 0.05200
H 	H 	0.05872 0.44759 0.36741 0.05300
H 	H 	0.05078 0.43191 0.44557 0.05000
C 	C 	0.92112 0.58267 0.53845 -0.05400
C 	C 	0.91910 0.57564 0.58372 0.01400
C 	C 	0.94635 0.54009 0.60359 -0.07600
C 	C 	0.97670 0.51225 0.57774 0.06700
C 	C 	0.04392 0.46306 0.52769 -0.05500
C 	C 	0.04154 0.45613 0.57295 0.01400
C 	C 	0.00761 0.48015 0.59818 -0.08100
C 	C 	0.94565 0.53356 0.64939 0.20100
N 	N 	0.97551 0.50151 0.66874 -0.18000
C 	C 	0.00576 0.47448 0.64405 0.19900
C 	C 	0.97706 0.49815 0.71574 0.15500
C 	C 	0.01030 0.52570 0.73934 -0.11500
C 	C 	0.01128 0.52338 0.78522 0.07000
C 	C 	0.97903 0.49328 0.80753 -0.09200
C 	C 	0.94591 0.46533 0.78401 0.07300
C 	C 	0.94497 0.46785 0.73804 -0.11100
O 	O 	0.91650 0.55870 0.67387 -0.18500
O 	O 	0.03349 0.44331 0.66342 -0.19800
H 	H 	0.03490 0.54924 0.72200 0.08100
H 	H 	0.91948 0.44640 0.71966 0.08500
H 	H 	0.90447 0.61393 0.52508 0.05100
H 	H 	0.89768 0.59924 0.60346 0.05300
H 	H 	0.07410 0.44884 0.51025 0.05000
H 	H 	0.06751 0.43348 0.58853 0.04700
H 	H 	0.97952 0.49179 0.84309 0.07100
H 	H 	0.99234 0.55807 0.12849 0.09200
Zn	Zn	0.83038 0.35896 0.99126 1.22200
C 	C 	0.82038 0.36097 0.89760 0.32700
O 	O 	0.76767 0.36046 0.01933 -0.45600
O 	O 	0.80703 0.31600 0.89653 -0.41400
O 	O 	0.72602 0.33984 0.95824 -0.46400
C 	C 	0.86242 0.26455 0.97519 0.32400
O 	O 	0.87416 0.30991 0.97227 -0.45500
O 	O 	0.81731 0.25101 0.97599 -0.50000
C 	C 	0.72833 0.36153 0.99629 0.30900
O 	O 	0.86533 0.35402 0.06163 -0.32200
Zn	Zn	0.76702 0.28588 0.94650 1.17800
O 	O 	0.81487 0.38578 0.93363 -0.41300
C 	C 	0.87801 0.39808 0.05511 0.29800
O 	O 	0.86564 0.41573 0.01771 -0.38400
Zn	Zn	0.02954 0.02885 0.01506 1.22100
C 	C 	0.07097 0.94125 0.98789 0.31300
O 	O 	0.97631 0.00439 0.05103 -0.46400
O 	O 	0.09817 0.94725 0.02258 -0.45300
O 	O 	0.00821 0.93416 0.07169 -0.49500
C 	C 	0.11932 0.05013 0.05507 0.32700
O 	O 	0.09655 0.04690 0.01770 -0.44900
O 	O 	0.10360 0.02637 0.08943 -0.50400
C 	C 	0.97134 0.95872 0.05892 0.31900
O 	O 	0.01430 0.10600 0.03995 -0.33500
Zn	Zn	0.06995 0.96525 0.08247 1.16700
O 	O 	0.03792 0.97237 0.97834 -0.43600
C 	C 	0.99471 0.11274 0.00199 0.29000
O 	O 	0.99530 0.07636 0.97579 -0.38700
C 	C 	0.89959 0.22917 0.98263 -0.09000
C 	C 	0.90734 0.21052 0.02496 0.03400
C 	C 	0.93879 0.17286 0.03063 -0.02000
H 	H 	0.94407 0.15825 0.06319 0.05200
C 	C 	0.96280 0.15333 0.99461 -0.07200
C 	C 	0.95638 0.17310 0.95234 0.01600
C 	C 	0.92482 0.21102 0.94672 -0.01200
H 	H 	0.91915 0.22570 0.91424 0.03900
C 	C 	0.98155 0.15373 0.91373 0.02800
C 	C 	0.03124 0.15952 0.90961 -0.04900
C 	C 	0.05537 0.13788 0.87494 -0.01300
C 	C 	0.02995 0.11119 0.84382 -0.04200
C 	C 	0.98032 0.10639 0.84714 -0.01100
C 	C 	0.95607 0.12771 0.88192 -0.04700
C 	C 	0.88277 0.23018 0.06371 0.01200
C 	C 	0.90780 0.25987 0.09303 -0.03600
C 	C 	0.88542 0.27618 0.13108 -0.01000
C 	C 	0.83794 0.26326 0.13980 -0.02600
C 	C 	0.81298 0.23343 0.11084 -0.01800
C 	C 	0.83546 0.21641 0.07311 -0.04100
H 	H 	0.90468 0.29930 0.15352 0.04400
H 	H 	0.82052 0.27630 0.16904 0.05200
H 	H 	0.77633 0.22320 0.11779 0.05200
H 	H 	0.81627 0.19243 0.05134 0.05300
H 	H 	0.94430 0.27066 0.08613 0.04800
H 	H 	0.05116 0.18002 0.93360 0.04400
H 	H 	0.09378 0.14164 0.87228 0.03500
H 	H 	0.91772 0.12307 0.88476 0.04700
H 	H 	0.96070 0.08567 0.82305 0.03700
H 	H 	0.04871 0.09423 0.81715 0.04200
C 	C 	0.91236 0.43338 0.80768 -0.02600
C 	C 	0.92995 0.39724 0.83464 -0.01500
C 	C 	0.89902 0.37124 0.86178 -0.02700
C 	C 	0.85004 0.38072 0.86203 0.00900
C 	C 	0.83127 0.41374 0.83174 -0.10700
C 	C 	0.86300 0.44103 0.80557 0.04600
H 	H 	0.91341 0.34508 0.88413 0.04800
H 	H 	0.84959 0.46881 0.78442 0.07400
H 	H 	0.96791 0.39047 0.83572 0.04300
C 	C 	0.77779 0.42003 0.82765 0.78100
F 	F 	0.76628 0.44778 0.79172 -0.45400
F 	F 	0.75545 0.37605 0.82276 -0.46300
F 	F 	0.76055 0.44167 0.86499 -0.46500
C 	C 	0.89468 0.42868 0.09122 -0.11400
C 	C 	0.93120 0.41342 0.11894 0.05800
C 	C 	0.94963 0.44395 0.15106 -0.09100
C 	C 	0.93097 0.48969 0.15650 0.11700
C 	C 	0.89068 0.50338 0.13171 -0.17600
C 	C 	0.87430 0.47347 0.09774 0.11600
H 	H 	0.97973 0.43280 0.17065 0.08900
H 	H 	0.84577 0.48495 0.07645 0.04700
H 	H 	0.94658 0.37858 0.11451 0.03200
C 	C 	0.86658 0.55059 0.13987 0.79800
F 	F 	0.89245 0.58677 0.11965 -0.47500
F 	F 	0.82056 0.55016 0.12335 -0.47500
F 	F 	0.86363 0.55984 0.18437 -0.45800
C 	C 	0.10402 0.80316 0.95044 -0.05400
C 	C 	0.06046 0.81067 0.97235 0.02100
C 	C 	0.04627 0.85722 0.98110 -0.02900
H 	H 	0.01682 0.86329 0.00342 0.04200
C 	C 	0.07264 0.89597 0.96441 -0.08400
C 	C 	0.10939 0.88785 0.93390 0.02900
C 	C 	0.12457 0.84111 0.92654 -0.01700
H 	H 	0.15566 0.83498 0.90619 0.06300
C 	C 	0.13517 0.92840 0.91320 0.01700
C 	C 	0.18296 0.93830 0.92427 -0.03600
C 	C 	0.20598 0.97908 0.90770 -0.01200
C 	C 	0.18139 0.01022 0.88030 -0.02700
C 	C 	0.13385 0.00046 0.86910 -0.01300
C 	C 	0.11077 0.95955 0.88531 -0.03900
C 	C 	0.02852 0.77051 0.98434 0.02900
C 	C 	0.02944 0.75164 0.02696 -0.03700
C 	C 	0.99620 0.71642 0.03941 -0.00400
C 	C 	0.96156 0.70051 0.00963 -0.01500
C 	C 	0.96001 0.71983 0.96739 0.00800
C 	C 	0.99347 0.75468 0.95466 -0.00700
H 	H 	0.99682 0.70195 0.07230 0.04700
H 	H 	0.93572 0.67343 0.01940 0.06000
H 	H 	0.93296 0.70772 0.94447 0.06800
H 	H 	0.99182 0.76982 0.92199 0.08200
H 	H 	0.05542 0.76471 0.05048 0.04300
H 	H 	0.20190 0.91491 0.94628 0.04800
H 	H 	0.24279 0.98669 0.91632 0.05000
H 	H 	0.07380 0.95244 0.87684 0.05100
H 	H 	0.11480 0.02472 0.84805 0.03700
H 	H 	0.19916 0.04195 0.86779 0.04700
C 	C 	0.04484 0.55380 0.81010 -0.02800
C 	C 	0.09315 0.54200 0.81262 -0.01100
C 	C 	0.12394 0.56775 0.84008 -0.03400
C 	C 	0.10681 0.60573 0.86511 0.03600
C 	C 	0.05893 0.62043 0.85981 -0.11300
C 	C 	0.02796 0.59334 0.83302 0.04700
H 	H 	0.16070 0.55684 0.84340 0.05100
H 	H 	0.99055 0.60227 0.83068 0.07400
H 	H 	0.10647 0.51180 0.79448 0.04300
C 	C 	0.04017 0.66309 0.88461 0.77900
F 	F 	0.07146 0.70143 0.88041 -0.45600
F 	F 	0.99623 0.67696 0.86873 -0.46300
F 	F 	0.03516 0.65155 0.92849 -0.46300
C 	C 	0.11550 0.65803 0.10482 -0.13400
C 	C 	0.08064 0.68390 0.12709 0.05700
C 	C 	0.05156 0.66127 0.15838 -0.10400
C 	C 	0.05844 0.61316 0.16881 0.11600
C 	C 	0.09871 0.58950 0.15182 -0.18300
C 	C 	0.12548 0.61140 0.11823 0.11800
H 	H 	0.02190 0.68026 0.17253 0.06700
H 	H 	0.15310 0.59172 0.10161 0.05300
H 	H 	0.07408 0.72060 0.11837 0.01800
C 	C 	0.11110 0.53971 0.16703 0.79900
F 	F 	0.08138 0.50671 0.14677 -0.46100
F 	F 	0.15792 0.52908 0.15681 -0.46500
F 	F 	0.10591 0.53580 0.21204 -0.45700
C 	C 	0.83779 0.88224 0.05396 -0.08000
C 	C 	0.85294 0.90446 0.09337 0.02300
C 	C 	0.89705 0.92887 0.09462 -0.01300
H 	H 	0.90977 0.94396 0.12528 0.03500
C 	C 	0.92380 0.93564 0.05623 -0.08500
C 	C 	0.90553 0.91881 0.01577 0.02700
C 	C 	0.86374 0.89065 0.01523 -0.01500
H 	H 	0.85116 0.87575 0.98446 0.04900
C 	C 	0.92800 0.93265 0.97359 0.01200
C 	C 	0.94551 0.89752 0.94531 -0.03800
C 	C 	0.96460 0.91033 0.90448 -0.01500
C 	C 	0.96444 0.95791 0.89093 -0.02700
C 	C 	0.94497 0.99268 0.91809 -0.01800
C 	C 	0.92668 0.98018 0.95930 -0.04900
C 	C 	0.82076 0.90749 0.13167 0.02200
C 	C 	0.83241 0.88441 0.17101 -0.04600
C 	C 	0.80498 0.89177 0.20869 -0.02000
C 	C 	0.76612 0.92239 0.20734 -0.03400
C 	C 	0.75389 0.94480 0.16803 -0.01700
C 	C 	0.78100 0.93729 0.13019 -0.03800
H 	H 	0.81410 0.87408 0.23904 0.03800
H 	H 	0.74506 0.92821 0.23659 0.04500
H 	H 	0.72339 0.96798 0.16689 0.06000
H 	H 	0.77173 0.95531 0.09999 0.06000
H 	H 	0.86305 0.86138 0.17249 0.04300
H 	H 	0.94432 0.86037 0.95497 0.04300
H 	H 	0.97933 0.88335 0.88329 0.04800
H 	H 	0.91111 0.00726 0.97992 0.05600
H 	H 	0.94389 0.02927 0.90716 0.04700
H 	H 	0.97909 0.96778 0.85927 0.04100
C 	C 	0.59350 0.88954 0.83042 -0.01800
C 	C 	0.64004 0.90813 0.83364 -0.01200
C 	C 	0.67105 0.89108 0.86565 -0.03000
C 	C 	0.65595 0.85509 0.89467 0.03700
C 	C 	0.61060 0.83275 0.88870 -0.10200
C 	C 	0.57944 0.85082 0.85674 0.05100
H 	H 	0.70600 0.90763 0.86946 0.05200
H 	H 	0.54349 0.83640 0.85368 0.09900
H 	H 	0.65128 0.93771 0.81300 0.04600
C 	C 	0.59435 0.79177 0.91800 0.77800
F 	F 	0.55172 0.77158 0.90373 -0.43900
F 	F 	0.62822 0.75646 0.91809 -0.45400
F 	F 	0.58783 0.80813 0.96031 -0.41800
C 	C 	0.58287 0.91848 0.18493 -0.01700
C 	C 	0.62802 0.90419 0.19931 -0.01400
C 	C 	0.65392 0.87135 0.17500 -0.02500
C 	C 	0.63618 0.85427 0.13501 0.01400
C 	C 	0.58872 0.86440 0.12258 -0.10700
C 	C 	0.56258 0.89722 0.14749 0.04900
H 	H 	0.68894 0.86099 0.18611 0.04400
H 	H 	0.52699 0.90701 0.13734 0.06800
H 	H 	0.64376 0.91978 0.22850 0.04600
C 	C 	0.56661 0.84161 0.08217 0.78300
F 	F 	0.57682 0.79357 0.08092 -0.45200
F 	F 	0.51743 0.84589 0.08210 -0.44600
F 	F 	0.58477 0.86351 0.04495 -0.42200
C 	C 	0.25622 0.11841 0.04200 -0.07800
C 	C 	0.25256 0.06855 0.05011 0.02100
C 	C 	0.20755 0.04719 0.05702 -0.01200
H 	H 	0.20467 0.00892 0.06163 0.02900
C 	C 	0.16614 0.07448 0.05646 -0.08800
C 	C 	0.16980 0.12424 0.05088 0.02900
C 	C 	0.21455 0.14575 0.04333 -0.02200
H 	H 	0.21683 0.18399 0.03851 0.04500
C 	C 	0.12717 0.15448 0.05436 0.01300
C 	C 	0.10326 0.15874 0.09466 -0.04000
C 	C 	0.06537 0.19027 0.09884 -0.01400
C 	C 	0.05157 0.21802 0.06307 -0.02900
C 	C 	0.07517 0.21384 0.02287 -0.01400
C 	C 	0.11268 0.18191 0.01833 -0.03800
C 	C 	0.29516 0.03831 0.05192 0.02300
C 	C 	0.31029 0.01396 0.01431 -0.03400
C 	C 	0.35130 0.98622 0.01586 -0.01300
C 	C 	0.37704 0.98237 0.05495 -0.03400
C 	C 	0.36159 0.00590 0.09267 -0.01100
C 	C 	0.32065 0.03374 0.09127 -0.04500
H 	H 	0.36311 0.96768 0.98680 0.05800
H 	H 	0.40884 0.96100 0.05605 0.06900
H 	H 	0.38131 0.00251 0.12299 0.03900
H 	H 	0.30897 0.05206 0.12056 0.04400
H 	H 	0.29075 0.01717 0.98383 0.04700
H 	H 	0.11437 0.13803 0.12276 0.04600
H 	H 	0.04690 0.19343 0.12989 0.03800
H 	H 	0.13089 0.17895 0.98709 0.03900
H 	H 	0.06450 0.23550 0.99530 0.03300
H 	H 	0.02261 0.24274 0.06647 0.04200
C 	C 	0.41034 0.05347 0.89081 -0.11100
C 	C 	0.44310 0.07434 0.86159 0.05400
C 	C 	0.46531 0.04662 0.82985 -0.09200
C 	C 	0.45489 0.99771 0.82692 0.10300
C 	C 	0.41720 0.97781 0.85249 -0.17000
C 	C 	0.39634 0.00572 0.88554 0.11700
H 	H 	0.49297 0.06247 0.80940 0.06400
H 	H 	0.37024 0.99006 0.90773 0.04400
H 	H 	0.45330 0.11155 0.86504 0.03100
C 	C 	0.40112 0.92642 0.84644 0.79800
F 	F 	0.35535 0.91909 0.86257 -0.45300
F 	F 	0.40083 0.91441 0.80242 -0.44500
F 	F 	0.43177 0.89676 0.86864 -0.44400
C 	C 	0.45067 0.13005 0.11725 -0.13000
C 	C 	0.42317 0.10296 0.14679 0.05600
C 	C 	0.44528 0.07350 0.17726 -0.10000
C 	C 	0.49524 0.07200 0.17961 0.10500
C 	C 	0.52317 0.10385 0.15359 -0.17100
C 	C 	0.50058 0.13076 0.12081 0.11600
H 	H 	0.42358 0.05033 0.19790 0.06100
H 	H 	0.52171 0.15228 0.09824 0.05300
H 	H 	0.38456 0.10309 0.14485 0.02600
C 	C 	0.57680 0.10839 0.15972 0.79700
F 	F 	0.59917 0.07252 0.13691 -0.45500
F 	F 	0.59371 0.15187 0.14423 -0.45600
F 	F 	0.58873 0.10537 0.20367 -0.45100
C 	C 	0.45022 0.37588 0.92225 -0.06300
C 	C 	0.48884 0.34436 0.92224 0.01400
C 	C 	0.48142 0.29728 0.93665 -0.00700
H 	H 	0.51155 0.27408 0.94150 0.03700
C 	C 	0.43492 0.28082 0.94585 -0.09100
C 	C 	0.39579 0.30902 0.93383 0.02500
C 	C 	0.40389 0.35630 0.92073 -0.02200
H 	H 	0.37384 0.37935 0.91575 0.04500
C 	C 	0.34629 0.29079 0.93916 -0.00300
C 	C 	0.32874 0.25449 0.91164 -0.04800
C 	C 	0.28299 0.23519 0.91851 -0.02600
C 	C 	0.25444 0.25238 0.95248 -0.03200
C 	C 	0.27160 0.28886 0.97968 -0.04200
C 	C 	0.31744 0.30805 0.97313 -0.08100
C 	C 	0.53495 0.35878 0.90257 0.02900
C 	C 	0.53932 0.36257 0.85681 -0.04600
C 	C 	0.58276 0.37705 0.83805 -0.00300
C 	C 	0.62190 0.38786 0.86485 -0.03500
C 	C 	0.61765 0.38418 0.91041 -0.00700
C 	C 	0.57429 0.36968 0.92934 -0.04900
H 	H 	0.58606 0.37998 0.80277 0.05200
H 	H 	0.65547 0.39923 0.85032 0.10000
H 	H 	0.64784 0.39288 0.93097 0.05700
H 	H 	0.57092 0.36799 0.96465 0.05000
H 	H 	0.50907 0.35437 0.83586 0.05300
H 	H 	0.35078 0.24080 0.88544 0.05600
H 	H 	0.26976 0.20677 0.89764 0.04300
H 	H 	0.33080 0.33579 0.99477 0.03200
H 	H 	0.24956 0.30193 0.00611 0.03500
H 	H 	0.21916 0.23719 0.95792 0.03800
C 	C 	0.29656 0.62384 0.01588 -0.07600
C 	C 	0.31655 0.61549 0.05797 0.02100
C 	C 	0.35610 0.58596 0.06209 -0.01300
H 	H 	0.37272 0.58172 0.09395 0.03600
C 	C 	0.37433 0.56195 0.02558 -0.08300
C 	C 	0.35186 0.56709 0.98430 0.02800
C 	C 	0.31479 0.59955 0.97945 -0.02400
H 	H 	0.29914 0.60474 0.94730 0.05700
C 	C 	0.36234 0.53469 0.94748 0.02100
C 	C 	0.39725 0.54734 0.91627 -0.04000
C 	C 	0.40317 0.51952 0.87869 -0.01400
C 	C 	0.37310 0.48018 0.87124 -0.03300
C 	C 	0.33738 0.46830 0.90158 -0.01600
C 	C 	0.33260 0.49484 0.94005 -0.04200
C 	C 	0.29561 0.63582 0.09816 0.02400
C 	C 	0.31403 0.67858 0.11552 -0.04800
C 	C 	0.29472 0.69735 0.15401 -0.02500
C 	C 	0.25759 0.67315 0.17567 -0.03400
C 	C 	0.23978 0.63007 0.15895 -0.01700
C 	C 	0.25861 0.61142 0.12019 -0.03900
H 	H 	0.30858 0.73062 0.16706 0.03400
H 	H 	0.24276 0.68766 0.20551 0.04300
H 	H 	0.21153 0.61107 0.17614 0.07500
H 	H 	0.24468 0.57802 0.10740 0.07400
H 	H 	0.34259 0.69762 0.09877 0.04200
H 	H 	0.41979 0.57850 0.92119 0.05500
H 	H 	0.43069 0.52881 0.85510 0.04700
H 	H 	0.30486 0.48536 0.96343 0.05100
H 	H 	0.31347 0.43843 0.89533 0.03700
H 	H 	0.37740 0.45896 0.84192 0.04500
C 	C 	0.60280 0.42130 0.05263 -0.08600
C 	C 	0.60899 0.37141 0.05256 0.02700
C 	C 	0.65067 0.35245 0.03442 -0.01700
H 	H 	0.65592 0.31425 0.03480 0.03500
C 	C 	0.68539 0.38244 0.01544 -0.07800
C 	C 	0.67965 0.43227 0.01641 0.03300
C 	C 	0.63928 0.45132 0.03656 -0.01500
H 	H 	0.63484 0.48958 0.03725 0.04900
C 	C 	0.71288 0.46438 0.99232 0.00900
C 	C 	0.69777 0.48727 0.95389 -0.02600
C 	C 	0.72967 0.51619 0.93020 0.00700
C 	C 	0.77693 0.52153 0.94418 -0.00700
C 	C 	0.79175 0.49996 0.98310 -0.01800
C 	C 	0.75957 0.47218 0.00764 -0.02600
C 	C 	0.57247 0.33874 0.07180 0.01600
C 	C 	0.55362 0.30083 0.04680 -0.03600
C 	C 	0.52284 0.26725 0.06620 -0.01400
C 	C 	0.50954 0.27203 0.11016 -0.02500
C 	C 	0.52768 0.30996 0.13506 -0.01700
C 	C 	0.55945 0.34301 0.11614 -0.04000
H 	H 	0.50993 0.23710 0.04734 0.05600
H 	H 	0.48553 0.24609 0.12504 0.04400
H 	H 	0.51762 0.31340 0.16919 0.04200
H 	H 	0.57442 0.37149 0.13603 0.04800
H 	H 	0.56382 0.29671 0.01276 0.04300
H 	H 	0.66138 0.48268 0.94247 0.05500
H 	H 	0.71796 0.53385 0.90062 0.06900
H 	H 	0.77099 0.45631 0.03819 0.05900
H 	H 	0.82801 0.50525 0.99450 0.05900
H 	H 	0.80192 0.54289 0.92515 0.05900
C 	C 	0.64639 0.68557 0.01197 -0.03800
C 	C 	0.66432 0.63943 0.00412 0.02400
C 	C 	0.63257 0.60014 0.00267 -0.00200
H 	H 	0.64639 0.56456 0.99904 0.04000
C 	C 	0.58327 0.60666 0.00792 -0.08200
C 	C 	0.56528 0.65340 0.00917 0.04800
C 	C 	0.59689 0.69237 0.01131 -0.00700
H 	H 	0.58276 0.72795 0.01420 0.14000
C 	C 	0.51333 0.66194 0.01018 0.03800
C 	C 	0.48570 0.65526 0.97224 -0.02700
C 	C 	0.43732 0.66691 0.97247 -0.00500
C 	C 	0.41628 0.68461 0.01061 -0.01900
C 	C 	0.44350 0.69054 0.04866 -0.00600
C 	C 	0.49197 0.67949 0.04847 -0.02900
C 	C 	0.71566 0.63227 0.99562 0.02000
C 	C 	0.73670 0.65047 0.95713 -0.04300
C 	C 	0.78627 0.64952 0.95176 -0.01700
C 	C 	0.81494 0.63020 0.98457 -0.03600
C 	C 	0.79404 0.61094 0.02245 -0.02200
C 	C 	0.74444 0.61138 0.02779 -0.03300
H 	H 	0.80247 0.66403 0.92229 0.05100
H 	H 	0.85332 0.62968 0.98045 0.05300
H 	H 	0.81626 0.59545 0.04750 0.09000
H 	H 	0.72852 0.59684 0.05743 0.06300
H 	H 	0.71478 0.66643 0.93200 0.07700
H 	H 	0.50186 0.64181 0.94251 0.06900
H 	H 	0.41623 0.66269 0.94297 0.05100
H 	H 	0.51301 0.68482 0.07791 0.06800
H 	H 	0.42722 0.70429 0.07814 0.04400
H 	H 	0.37895 0.69395 0.01061 0.04500
