data_crystal

_cell_length_a 25.53096
_cell_length_b 27.06059
_cell_length_c 38.21857
_cell_angle_alpha 61.01558
_cell_angle_beta  118.71339
_cell_angle_gamma 133.15656

_symmetry_space_group_name_	'P 1'
_symmetry_space_group_name_H-M	'P 1'

loop_
_symmetry_equiv_pos_as_xyz
  x,y,z

loop_
_atom_site_label
_atom_site_type_symbol
_atom_site_fract_x
_atom_site_fract_y
_atom_site_fract_z
_atom_site_charge
Co	Co	0.02554 0.07546 0.09376 1.18700
C 	C 	0.98138 0.94380 0.85052 -0.04500
C 	C 	0.05010 0.01848 0.46353 -0.26000
Co	Co	0.02749 0.89217 0.14506 1.19400
O 	O 	0.03913 0.89272 0.04144 -0.36800
O 	O 	0.02949 0.98014 0.02509 -0.34000
O 	O 	0.02895 0.79698 0.12289 -0.37100
O 	O 	0.03736 0.02950 0.51774 -0.37200
O 	O 	0.97552 0.08053 0.68274 -0.38000
O 	O 	0.02722 0.93797 0.59460 -0.73000
C 	C 	0.00161 0.95343 0.89135 0.03200
O 	O 	0.05309 0.99757 0.13047 -0.53700
C 	C 	0.03958 0.94705 0.01498 0.38400
C 	C 	0.06643 0.01468 0.50700 0.42300
C 	C 	0.01045 0.98554 0.78539 0.34900
C 	C 	0.03188 0.95848 0.97129 -0.19000
C 	C 	0.05539 0.98943 0.34174 0.25800
C 	C 	0.04737 0.98886 0.30291 0.36800
C 	C 	0.77257 0.33425 0.01764 0.10300
N 	N 	0.81990 0.39738 0.02699 -0.12100
C 	C 	0.79411 0.41988 0.03547 0.10600
N 	N 	0.72133 0.37982 0.03419 -0.11200
C 	C 	0.67441 0.31657 0.02556 0.10500
N 	N 	0.70001 0.29390 0.01721 -0.11700
C 	C 	0.69839 0.29516 0.52849 0.10400
N 	N 	0.75821 0.35787 0.53763 -0.12000
C 	C 	0.75543 0.38428 0.55865 0.10500
N 	N 	0.69209 0.34932 0.56920 -0.12400
C 	C 	0.63187 0.28754 0.55942 0.10500
N 	N 	0.63532 0.25979 0.53969 -0.10900
C 	C 	0.28048 0.65318 0.19864 0.10800
N 	N 	0.22940 0.59439 0.18439 -0.10500
C 	C 	0.24428 0.58487 0.15933 0.10700
N 	N 	0.31040 0.63412 0.14876 -0.11600
C 	C 	0.36223 0.69173 0.16396 0.10900
N 	N 	0.34721 0.70120 0.18885 -0.12400
C 	C 	0.22586 0.61054 0.72246 0.10700
N 	N 	0.29634 0.65356 0.71834 -0.11100
C 	C 	0.31988 0.63223 0.70708 0.10800
N 	N 	0.27278 0.56816 0.69949 -0.11500
C 	C 	0.20196 0.52542 0.70279 0.10800
N 	N 	0.17866 0.54614 0.71484 -0.11900
Co	Co	0.08903 0.01645 0.07871 1.16500
Co	Co	0.96735 0.95216 0.16152 1.20300
C 	C 	0.23343 0.05186 0.08541 0.21300
Co	Co	0.11127 0.89865 0.09884 1.17800
Co	Co	0.93247 0.05956 0.14023 1.16300
C 	C 	0.96072 0.77611 0.11257 0.25800
O 	O 	0.86586 0.04920 0.08185 -0.39000
O 	O 	0.98497 0.03036 0.13372 -0.79400
C 	C 	0.89590 0.08315 0.05048 0.26900
O 	O 	0.07959 0.09496 0.05841 -0.45300
O 	O 	0.96945 0.87012 0.17880 -0.44700
C 	C 	0.81860 0.90486 0.15111 0.27200
C 	C 	0.07762 0.19236 0.12158 0.27300
C 	C 	0.14692 0.86585 0.18963 0.26600
O 	O 	0.93438 0.06922 0.04798 -0.38100
O 	O 	0.85203 0.95784 0.16552 -0.32400
O 	O 	0.85554 0.90232 0.13796 -0.37300
O 	O 	0.00757 0.16395 0.11483 -0.36300
O 	O 	0.09767 0.16963 0.11006 -0.35600
O 	O 	0.17685 0.90574 0.15761 -0.34800
O 	O 	0.09661 0.86476 0.19298 -0.34200
O 	O 	0.07948 0.94228 0.11053 -0.74300
C 	C 	0.99757 0.01130 0.22638 0.34200
O 	O 	0.00416 0.06707 0.19761 -0.35500
O 	O 	0.99428 0.96539 0.21933 -0.30700
O 	O 	0.19394 0.99601 0.07220 -0.29800
O 	O 	0.20162 0.07419 0.08631 -0.36800
O 	O 	0.94669 0.81369 0.11404 -0.37800
Co	Co	0.05138 0.01920 0.57872 1.17900
Co	Co	0.89377 0.90971 0.65142 1.19400
Co	Co	0.97381 0.05345 0.60260 1.16800
Co	Co	0.96815 0.87437 0.62543 1.18800
C 	C 	0.20477 0.05155 0.61521 0.22300
Co	Co	0.08798 0.91957 0.58649 1.18500
Co	Co	0.86970 0.01151 0.65296 1.14700
C 	C 	0.93383 0.79442 0.57283 0.27000
O 	O 	0.88154 0.09477 0.60240 -0.39200
O 	O 	0.91017 0.98829 0.63090 -0.73000
C 	C 	0.87023 0.09428 0.56518 0.26800
O 	O 	0.04503 0.09462 0.57058 -0.44000
O 	O 	0.89919 0.83390 0.65887 -0.44300
C 	C 	0.74024 0.87384 0.63288 0.26800
O 	O 	0.94833 0.95651 0.60058 -0.55000
C 	C 	0.03054 0.12943 0.66414 0.29500
C 	C 	0.07277 0.83665 0.67308 0.27500
O 	O 	0.90886 0.08625 0.55751 -0.37000
O 	O 	0.11431 0.00156 0.53419 -0.41000
O 	O 	0.76922 0.94090 0.62146 -0.34400
O 	O 	0.77969 0.85103 0.64332 -0.35100
O 	O 	0.04813 0.11289 0.64602 -0.36100
O 	O 	0.06889 0.83588 0.63784 -0.37500
O 	O 	0.04897 0.86652 0.67383 -0.36200
C 	C 	0.91271 0.92620 0.72860 0.42200
O 	O 	0.85837 0.93253 0.70676 -0.37700
O 	O 	0.94424 0.92451 0.71059 -0.37200
O 	O 	0.18286 0.98790 0.62176 -0.32600
O 	O 	0.15965 0.06207 0.61322 -0.36500
O 	O 	0.98619 0.85214 0.55362 -0.34300
O 	O 	0.90900 0.79614 0.59565 -0.34000
C 	C 	0.91454 0.88269 0.83863 0.23300
C 	C 	0.02974 0.99479 0.82392 0.27200
C 	C 	0.94147 0.92658 0.77245 -0.23700
C 	C 	0.89435 0.87450 0.79963 0.31200
F 	F 	0.09469 0.05393 0.83506 -0.39600
F 	F 	0.82806 0.81673 0.78777 -0.39000
C 	C 	0.06125 0.95335 0.92174 0.22300
C 	C 	0.07693 0.95689 0.96126 0.30600
C 	C 	0.97383 0.96129 0.94046 0.30100
C 	C 	0.95924 0.95945 0.90054 0.21100
F 	F 	0.10268 0.94766 0.91332 -0.33800
F 	F 	0.92971 0.96286 0.94949 -0.37700
F 	F 	0.13462 0.95641 0.99035 -0.38800
F 	F 	0.90290 0.96188 0.87105 -0.34700
F 	F 	0.86879 0.83161 0.86472 -0.35700
F 	F 	0.05757 0.03521 0.75998 -0.42900
C 	C 	0.01666 0.00507 0.34606 -0.02700
C 	C 	0.96798 0.01767 0.31153 0.20200
C 	C 	0.95908 0.01604 0.27293 0.31000
C 	C 	0.99994 0.00321 0.26817 -0.27100
C 	C 	0.02818 0.00972 0.38658 -0.03500
F 	F 	0.93018 0.03270 0.31528 -0.36800
F 	F 	0.08745 0.97664 0.29889 -0.37700
C 	C 	0.09556 0.06516 0.40366 0.22100
C 	C 	0.10665 0.06922 0.44210 0.31700
C 	C 	0.98173 0.96467 0.44569 0.33900
C 	C 	0.97102 0.95990 0.40758 0.25300
F 	F 	0.15042 0.11484 0.38312 -0.36100
F 	F 	0.92666 0.91534 0.46609 -0.39100
F 	F 	0.17283 0.12173 0.45890 -0.39000
F 	F 	0.90558 0.90620 0.39138 -0.35000
F 	F 	0.10146 0.97570 0.37506 -0.34300
F 	F 	0.91119 0.02765 0.23993 -0.42300
C 	C 	0.11187 0.35277 0.70461 0.12000
C 	C 	0.11346 0.29442 0.72523 -0.07800
C 	C 	0.12336 0.27181 0.70412 0.02000
C 	C 	0.12719 0.30310 0.66344 0.12700
C 	C 	0.12626 0.36186 0.64296 -0.08600
C 	C 	0.11573 0.38405 0.66397 0.02800
O 	O 	0.13250 0.39598 0.72542 -0.18800
C 	C 	0.15106 0.45679 0.69365 0.10500
C 	C 	0.14105 0.45001 0.65694 -0.08200
O 	O 	0.10488 0.25930 0.64241 -0.18000
C 	C 	0.08467 0.19802 0.67390 0.05900
C 	C 	0.09641 0.20540 0.71090 -0.03700
H 	H 	0.10936 0.26880 0.75701 0.09000
H 	H 	0.13027 0.38746 0.61117 0.08200
H 	H 	0.17042 0.49308 0.63322 0.07300
H 	H 	0.06743 0.16280 0.73486 0.09900
C 	C 	0.55901 0.79121 0.63229 0.12600
C 	C 	0.51566 0.80007 0.63790 -0.08400
C 	C 	0.48614 0.75789 0.67282 0.03300
C 	C 	0.49276 0.70438 0.69893 0.12600
C 	C 	0.53544 0.69489 0.69324 -0.07500
C 	C 	0.56697 0.73843 0.65895 0.02100
O 	O 	0.61591 0.84623 0.61215 -0.17400
C 	C 	0.66059 0.82330 0.63057 0.05800
C 	C 	0.63135 0.75867 0.65809 -0.05100
O 	O 	0.43718 0.65083 0.72020 -0.18500
C 	C 	0.39655 0.67749 0.70415 0.10900
C 	C 	0.42512 0.74111 0.67582 -0.07900
H 	H 	0.50880 0.84110 0.61705 0.08600
H 	H 	0.54244 0.65399 0.71424 0.08900
H 	H 	0.66406 0.74118 0.68332 0.08300
H 	H 	0.39291 0.76005 0.65188 0.07600
C 	C 	0.20252 0.69473 0.75599 0.12100
C 	C 	0.21809 0.75639 0.75453 -0.07900
C 	C 	0.15889 0.75610 0.74821 0.02000
C 	C 	0.08664 0.70030 0.73799 0.12700
C 	C 	0.07113 0.64056 0.73630 -0.08400
C 	C 	0.13025 0.63724 0.74847 0.02800
O 	O 	0.25203 0.69485 0.74980 -0.18700
C 	C 	0.20241 0.63251 0.73733 0.10600
C 	C 	0.12978 0.59792 0.73624 -0.08000
O 	O 	0.03789 0.71844 0.71511 -0.17300
C 	C 	0.08775 0.79078 0.71061 0.05600
C 	C 	0.15974 0.81332 0.73096 -0.04800
H 	H 	0.27365 0.80423 0.75525 0.08400
H 	H 	0.01575 0.60054 0.72317 0.08000
H 	H 	0.08229 0.56091 0.71773 0.07300
H 	H 	0.20762 0.86566 0.72225 0.06900
C 	C 	0.15076 0.41278 0.15859 0.12300
C 	C 	0.15012 0.35326 0.18019 -0.08200
C 	C 	0.16540 0.33162 0.16172 0.02500
C 	C 	0.17583 0.36461 0.12225 0.12200
C 	C 	0.17683 0.42436 0.10070 -0.08500
C 	C 	0.16180 0.44616 0.11922 0.02600
O 	O 	0.16795 0.45503 0.17869 -0.18600
C 	C 	0.19342 0.51770 0.14835 0.10800
C 	C 	0.18912 0.51262 0.11265 -0.08200
O 	O 	0.15771 0.32188 0.10214 -0.17500
C 	C 	0.13288 0.25944 0.13272 0.05500
C 	C 	0.13829 0.26519 0.16848 -0.05600
H 	H 	0.14069 0.32620 0.21095 0.09200
H 	H 	0.18608 0.45129 0.06990 0.07900
H 	H 	0.22291 0.55614 0.09084 0.07700
H 	H 	0.10435 0.22188 0.19027 0.07700
C 	C 	0.65421 0.78976 0.18184 0.13000
C 	C 	0.61628 0.78817 0.19980 -0.08200
C 	C 	0.55387 0.78737 0.17501 0.03600
C 	C 	0.52458 0.77970 0.13547 0.12100
C 	C 	0.56185 0.78071 0.11735 -0.07700
C 	C 	0.62671 0.78514 0.14151 0.01700
O 	O 	0.72980 0.82302 0.19540 -0.16000
C 	C 	0.74618 0.84225 0.15892 0.05400
C 	C 	0.68492 0.81863 0.12687 -0.05000
O 	O 	0.44933 0.74924 0.12180 -0.18900
C 	C 	0.43674 0.73977 0.15710 0.10600
C 	C 	0.49864 0.76225 0.18890 -0.08000
H 	H 	0.63758 0.79212 0.23131 0.09800
H 	H 	0.54053 0.77710 0.08577 0.08100
H 	H 	0.68634 0.84325 0.09465 0.07100
H 	H 	0.49759 0.74227 0.22112 0.07900
C 	C 	0.20365 0.66851 0.24571 0.12000
C 	C 	0.14698 0.67025 0.24114 -0.07900
C 	C 	0.16655 0.72892 0.24707 0.02000
C 	C 	0.23874 0.78774 0.25138 0.12700
C 	C 	0.29509 0.78701 0.25434 -0.08400
C 	C 	0.27650 0.72481 0.25423 0.03200
O 	O 	0.19182 0.62692 0.22748 -0.18800
C 	C 	0.26410 0.66428 0.22520 0.10800
C 	C 	0.31479 0.72225 0.24125 -0.08100
O 	O 	0.24547 0.84951 0.23680 -0.16800
C 	C 	0.17079 0.82262 0.22271 0.06000
C 	C 	0.12353 0.75088 0.22916 -0.05400
H 	H 	0.08983 0.63018 0.22989 0.08100
H 	H 	0.35029 0.83490 0.25309 0.08900
H 	H 	0.36714 0.76702 0.23292 0.07900
H 	H 	0.06760 0.72271 0.21089 0.07200
C 	C 	0.80394 0.19395 0.49501 0.12300
C 	C 	0.81396 0.25616 0.48655 -0.08800
C 	C 	0.75462 0.25181 0.48460 0.02700
C 	C 	0.69121 0.18833 0.49594 0.11700
C 	C 	0.68308 0.12624 0.50689 -0.08300
C 	C 	0.73843 0.13033 0.50353 0.01400
O 	O 	0.86346 0.19067 0.51085 -0.17900
C 	C 	0.82817 0.11976 0.53069 0.04800
C 	C 	0.75381 0.08347 0.52633 -0.05900
O 	O 	0.65416 0.19281 0.51033 -0.19400
C 	C 	0.70232 0.26450 0.50762 0.10700
C 	C 	0.76207 0.30009 0.49221 -0.08300
H 	H 	0.86789 0.30572 0.48491 0.07700
H 	H 	0.63823 0.07717 0.52069 0.07000
H 	H 	0.72228 0.03569 0.54781 0.05400
H 	H 	0.81400 0.34969 0.49772 0.07400
C 	C 	0.90845 0.63825 0.59831 0.12100
C 	C 	0.88385 0.56887 0.61819 -0.08800
C 	C 	0.88105 0.53287 0.59973 0.02300
C 	C 	0.89150 0.56088 0.56036 0.11900
C 	C 	0.91079 0.62866 0.53931 -0.07900
C 	C 	0.92391 0.66777 0.56040 0.01600
O 	O 	0.89616 0.67285 0.60759 -0.17900
C 	C 	0.90682 0.72674 0.57170 0.05900
C 	C 	0.91952 0.72162 0.54268 -0.05100
O 	O 	0.85530 0.51103 0.53959 -0.19300
C 	C 	0.82049 0.45077 0.56961 0.10200
C 	C 	0.83596 0.46328 0.60556 -0.08400
H 	H 	0.86344 0.54263 0.64564 0.07500
H 	H 	0.91030 0.64810 0.50690 0.08800
H 	H 	0.94060 0.76260 0.51599 0.08900
H 	H 	0.80081 0.42734 0.62721 0.07000
C 	C 	0.38659 0.19690 0.60769 0.12600
C 	C 	0.43307 0.24876 0.58024 -0.08300
C 	C 	0.49488 0.25296 0.58685 0.02900
C 	C 	0.50490 0.20250 0.61561 0.11800
C 	C 	0.45560 0.14775 0.64114 -0.08200
C 	C 	0.39983 0.14914 0.63857 0.01500
O 	O 	0.31387 0.17365 0.59701 -0.17400
C 	C 	0.28436 0.10692 0.62340 0.06400
C 	C 	0.33520 0.09217 0.64843 -0.06000
O 	O 	0.54874 0.19767 0.60759 -0.19800
C 	C 	0.56405 0.25026 0.57119 0.10800
C 	C 	0.52961 0.28130 0.55789 -0.08000
H 	H 	0.41841 0.28094 0.55304 0.09100
H 	H 	0.45764 0.10346 0.66034 0.06900
H 	H 	0.32157 0.03998 0.66233 0.05400
H 	H 	0.54384 0.33037 0.53520 0.07800
C 	C 	0.79754 0.25420 0.98159 0.11200
C 	C 	0.77694 0.19394 0.97723 -0.07800
C 	C 	0.83306 0.18875 0.98533 0.01200
C 	C 	0.90523 0.23570 0.00310 0.12100
C 	C 	0.92461 0.29252 0.01124 -0.10200
C 	C 	0.87048 0.30353 0.99695 0.04500
O 	O 	0.74775 0.25679 0.98508 -0.18700
C 	C 	0.79779 0.31198 0.00434 0.10000
C 	C 	0.87100 0.33994 0.01186 -0.09500
O 	O 	0.94611 0.20875 0.02494 -0.18400
C 	C 	0.89116 0.14049 0.01980 0.02900
C 	C 	0.82370 0.12830 0.99617 -0.03800
H 	H 	0.71924 0.15101 0.97014 0.07300
H 	H 	0.97843 0.32444 0.02988 0.07700
H 	H 	0.91533 0.36866 0.03511 0.07100
H 	H 	0.77110 0.07729 0.99828 0.05600
C 	C 	0.87062 0.58155 0.04434 0.12400
C 	C 	0.85807 0.63129 0.03216 -0.08100
C 	C 	0.85454 0.64376 0.06243 0.02400
C 	C 	0.86628 0.61056 0.10336 0.12200
C 	C 	0.87791 0.56021 0.11535 -0.08600
C 	C 	0.88317 0.54908 0.08524 0.02500
O 	O 	0.84672 0.54523 0.01764 -0.18400
C 	C 	0.84456 0.48693 0.04648 0.10400
C 	C 	0.86649 0.48908 0.08686 -0.08200
O 	O 	0.89314 0.64808 0.13013 -0.18600
C 	C 	0.90051 0.70878 0.10166 0.05500
C 	C 	0.87585 0.70572 0.06118 -0.05500
H 	H 	0.84969 0.65821 0.00012 0.09500
H 	H 	0.88662 0.53344 0.14739 0.07500
H 	H 	0.84903 0.44324 0.11233 0.06900
H 	H 	0.89500 0.75138 0.03575 0.07900
C 	C 	0.49925 0.24325 0.03148 0.12100
C 	C 	0.45786 0.24582 0.04395 -0.07900
C 	C 	0.41671 0.18802 0.07299 0.01700
C 	C 	0.41384 0.12869 0.08760 0.12500
C 	C 	0.45549 0.12639 0.07514 -0.08700
C 	C 	0.49515 0.18347 0.04544 0.02900
O 	O 	0.56240 0.30310 0.01741 -0.18900
C 	C 	0.59594 0.27337 0.02463 0.10600
C 	C 	0.55637 0.20222 0.04134 -0.08200
O 	O 	0.35019 0.06844 0.10088 -0.19400
C 	C 	0.31382 0.09660 0.09149 0.06600
C 	C 	0.35331 0.16795 0.07517 -0.05700
H 	H 	0.45938 0.29199 0.03238 0.08000
H 	H 	0.45392 0.08020 0.08662 0.07300
H 	H 	0.58044 0.17369 0.05958 0.06900
H 	H 	0.32855 0.19574 0.05555 0.07100
