data_crystal

_cell_length_a 42.23190
_cell_length_b 45.34295
_cell_length_c 33.99832
_cell_angle_alpha 89.60096
_cell_angle_beta  90.00001
_cell_angle_gamma 89.99980

_symmetry_space_group_name_	'P 1'
_symmetry_space_group_name_H-M	'P 1'

loop_
_symmetry_equiv_pos_as_xyz
  x,y,z

loop_
_atom_site_label
_atom_site_type_symbol
_atom_site_fract_x
_atom_site_fract_y
_atom_site_fract_z
_atom_site_charge
C 	C 	0.46588 0.56511 0.87044 0.10200
N 	N 	0.45933 0.53874 0.88697 -0.17400
C 	C 	0.42852 0.53333 0.87981 0.10300
C 	C 	0.41016 0.51100 0.90214 -0.07600
C 	C 	0.42374 0.48141 0.90898 0.09100
C 	C 	0.37733 0.51728 0.91481 0.04900
C 	C 	0.37110 0.54075 0.94033 -0.06100
C 	C 	0.34020 0.54601 0.95334 -0.01100
C 	C 	0.31529 0.52770 0.94108 -0.01600
C 	C 	0.35241 0.49918 0.90224 -0.05900
N 	N 	0.44761 0.47049 0.88717 -0.12700
C 	C 	0.41967 0.46528 0.94329 -0.05900
C 	C 	0.45822 0.44685 0.90740 0.09100
C 	C 	0.48771 0.43120 0.89741 -0.07600
C 	C 	0.48878 0.39881 0.90170 0.05000
C 	C 	0.46775 0.35078 0.88485 -0.01000
C 	C 	0.50775 0.38574 0.93081 -0.06200
C 	C 	0.50634 0.35528 0.93741 -0.01100
C 	C 	0.48587 0.33771 0.91490 -0.01600
N 	N 	0.52170 0.47527 0.88695 -0.17300
C 	C 	0.55120 0.47982 0.87316 0.10300
C 	C 	0.56257 0.45458 0.85525 -0.06000
C 	C 	0.53881 0.43376 0.85831 -0.06000
C 	C 	0.57164 0.50397 0.88753 -0.07600
C 	C 	0.60492 0.49796 0.89826 0.04900
C 	C 	0.66101 0.50185 0.88366 -0.01100
C 	C 	0.66819 0.48678 0.91876 -0.01700
C 	C 	0.64356 0.47730 0.94354 -0.01100
C 	C 	0.61203 0.48273 0.93319 -0.06200
N 	N 	0.53200 0.54262 0.87121 -0.12700
C 	C 	0.54773 0.57807 0.91300 -0.05900
C 	C 	0.52514 0.56938 0.88600 0.09100
C 	C 	0.49348 0.58307 0.88241 -0.07600
C 	C 	0.48981 0.61504 0.88900 0.04900
C 	C 	0.50345 0.63531 0.86270 -0.06000
C 	C 	0.50048 0.66557 0.86926 -0.01000
C 	C 	0.48405 0.67578 0.90238 -0.01600
C 	C 	0.47026 0.65545 0.92859 -0.01100
C 	C 	0.47301 0.62518 0.92180 -0.06200
C 	C 	0.43908 0.57664 0.85245 -0.06000
C 	C 	0.41519 0.55629 0.85845 -0.06100
C 	C 	0.32156 0.50433 0.91535 -0.01100
C 	C 	0.44182 0.44301 0.94221 -0.05900
C 	C 	0.51407 0.44726 0.87801 0.10300
C 	C 	0.56980 0.55573 0.91447 -0.05900
C 	C 	0.55954 0.53458 0.88827 0.09100
C 	C 	0.62950 0.50753 0.87357 -0.06100
H 	H 	0.47201 0.52956 0.91046 0.09400
H 	H 	0.51161 0.48713 0.91004 0.09400
H 	H 	0.51137 0.68105 0.84896 0.04800
H 	H 	0.45736 0.66309 0.95411 0.04700
H 	H 	0.51639 0.62761 0.83725 0.05500
H 	H 	0.46233 0.60962 0.94216 0.05000
H 	H 	0.33571 0.56403 0.97333 0.04800
H 	H 	0.35697 0.48112 0.88233 0.05500
H 	H 	0.30251 0.49028 0.90527 0.04900
H 	H 	0.39023 0.55476 0.95032 0.05000
H 	H 	0.52045 0.34549 0.96068 0.04800
H 	H 	0.52302 0.39924 0.94890 0.05100
C 	C 	0.46917 0.38118 0.87835 -0.06000
H 	H 	0.45230 0.33742 0.86681 0.04900
H 	H 	0.67983 0.50939 0.86442 0.04700
H 	H 	0.62417 0.51928 0.84651 0.05400
H 	H 	0.59314 0.47521 0.95236 0.05100
H 	H 	0.64883 0.46551 0.97058 0.04700
H 	H 	0.43516 0.59982 0.84633 0.05400
H 	H 	0.39016 0.56141 0.85748 0.05500
H 	H 	0.40901 0.47367 0.96992 0.05300
H 	H 	0.45079 0.43140 0.96782 0.05200
H 	H 	0.58738 0.44940 0.85120 0.05500
H 	H 	0.54262 0.41019 0.85682 0.05400
H 	H 	0.54366 0.59363 0.93647 0.05300
H 	H 	0.58529 0.55149 0.93924 0.05300
H 	H 	0.45465 0.39113 0.85558 0.05600
Co	Co	0.44622 0.07019 0.96695 1.18000
Co	Co	0.46374 0.00455 0.97528 1.07600
O 	O 	0.43305 0.11322 0.96542 -0.34800
O 	O 	0.48279 0.10864 0.97464 -0.29100
O 	O 	0.40708 0.04769 0.95744 -0.39800
O 	O 	0.45312 0.01285 0.91906 -0.49100
C 	C 	0.39811 0.02642 0.98143 0.28100
C 	C 	0.45936 0.12670 0.97142 0.26800
O 	O 	0.41924 0.00912 0.99819 -0.41500
O 	O 	0.46862 0.06098 0.91912 -0.43500
C 	C 	0.46332 0.03638 0.90013 0.31300
O 	O 	0.44963 0.06305 0.02239 -0.42400
O 	O 	0.48853 0.02974 0.01175 -0.44400
C 	C 	0.47393 0.04803 0.03543 0.30300
S 	S 	0.46135 0.00626 0.51079 0.00600
C 	C 	0.48085 0.01463 0.55343 -0.01500
C 	C 	0.51358 0.00879 0.55040 -0.01500
S 	S 	0.52316 0.99516 0.50509 0.00600
C 	C 	0.48892 0.99313 0.47990 -0.00700
C 	C 	0.48699 0.99753 0.43728 -0.00700
S 	S 	0.48265 0.96918 0.40616 0.00700
C 	C 	0.50238 0.97903 0.36413 -0.01500
C 	C 	0.51668 0.00703 0.36757 -0.01500
S 	S 	0.50953 0.02216 0.41272 0.00500
C 	C 	0.49749 0.95054 0.24583 0.00300
C 	C 	0.47560 0.97137 0.25977 -0.02500
C 	C 	0.47426 0.97787 0.29985 -0.04300
C 	C 	0.49609 0.96505 0.32595 0.02600
C 	C 	0.51582 0.94233 0.31284 -0.04300
C 	C 	0.51594 0.93453 0.27311 -0.03100
H 	H 	0.46057 0.98340 0.23944 0.05400
H 	H 	0.45791 0.99453 0.31014 0.04800
H 	H 	0.53201 0.93157 0.33307 0.04800
H 	H 	0.53095 0.91664 0.26346 0.04400
C 	C 	0.53057 0.03985 0.25311 0.00400
C 	C 	0.55592 0.02577 0.27246 -0.03100
C 	C 	0.55313 0.01783 0.31212 -0.04200
C 	C 	0.52559 0.02494 0.33304 0.02600
C 	C 	0.50300 0.04355 0.31560 -0.04500
C 	C 	0.50510 0.05049 0.27556 -0.02600
H 	H 	0.57709 0.01978 0.25643 0.04400
H 	H 	0.57131 0.00436 0.32577 0.04800
H 	H 	0.48208 0.04993 0.33192 0.04800
H 	H 	0.48590 0.06242 0.26155 0.05300
C 	C 	0.44933 0.01788 0.67207 0.00100
C 	C 	0.45074 0.99074 0.65233 -0.02900
C 	C 	0.45738 0.98998 0.61207 -0.04300
C 	C 	0.46446 0.01611 0.59159 0.02600
C 	C 	0.46166 0.04326 0.61069 -0.04500
C 	C 	0.45385 0.04418 0.65065 -0.02500
H 	H 	0.44822 0.97019 0.66842 0.04300
H 	H 	0.45946 0.96889 0.59750 0.04700
H 	H 	0.46701 0.06356 0.59508 0.04900
H 	H 	0.45244 0.06530 0.66526 0.05100
C 	C 	0.55022 0.99804 0.66478 0.00500
C 	C 	0.55477 0.02503 0.64492 -0.03000
C 	C 	0.54596 0.02793 0.60545 -0.04200
C 	C 	0.53355 0.00370 0.58524 0.02500
C 	C 	0.53360 0.97581 0.60337 -0.04300
C 	C 	0.54135 0.97305 0.64319 -0.02600
H 	H 	0.56369 0.04405 0.66050 0.04500
H 	H 	0.54680 0.04943 0.59137 0.04800
H 	H 	0.52469 0.95682 0.58769 0.04700
H 	H 	0.53857 0.95188 0.65773 0.05100
Co	Co	0.54507 0.93288 0.96145 1.17900
Co	Co	0.47824 0.95074 0.93388 1.07200
O 	O 	0.58983 0.92068 0.97644 -0.34600
O 	O 	0.58768 0.96590 0.95882 -0.29200
O 	O 	0.51823 0.89791 0.97034 -0.39400
O 	O 	0.47661 0.94541 0.99216 -0.50300
C 	C 	0.49836 0.88861 0.94332 0.28200
C 	C 	0.60561 0.94452 0.97029 0.27000
O 	O 	0.48456 0.90744 0.91918 -0.40800
O 	O 	0.52826 0.95773 0.00227 -0.43200
C 	C 	0.49943 0.95408 0.01572 0.26600
O 	O 	0.54686 0.93133 0.90517 -0.42700
O 	O 	0.51239 0.96941 0.90212 -0.47400
C 	C 	0.53381 0.95281 0.88512 0.30800
Co	Co	0.03283 0.57426 0.99921 1.17900
Co	Co	0.96037 0.56104 0.00211 1.07000
O 	O 	0.07924 0.58596 0.00038 -0.34400
O 	O 	0.07310 0.54041 0.01424 -0.29000
O 	O 	0.01013 0.61039 0.98322 -0.39700
O 	O 	0.97423 0.56694 0.94659 -0.44900
C 	C 	0.98704 0.62117 0.00470 0.28700
C 	C 	0.09305 0.56174 0.01017 0.27000
O 	O 	0.96610 0.60345 0.02102 -0.41100
O 	O 	0.02499 0.55053 0.95328 -0.43800
C 	C 	0.99931 0.55383 0.93192 0.28500
O 	O 	0.02199 0.57434 0.05401 -0.41800
O 	O 	0.98491 0.53933 0.04279 -0.53600
C 	C 	0.00302 0.55379 0.06744 0.32300
S 	S 	0.98572 0.45279 0.44571 0.00600
C 	C 	0.00565 0.46411 0.40436 -0.01500
C 	C 	0.01511 0.49394 0.40716 -0.01500
S 	S 	0.00347 0.50906 0.45082 0.00500
C 	C 	0.98370 0.48241 0.47496 -0.00800
C 	C 	0.98215 0.48055 0.51791 -0.00700
S 	S 	0.97679 0.51036 0.54619 0.00500
C 	C 	0.99681 0.50344 0.58896 -0.01600
C 	C 	0.01185 0.47564 0.58839 -0.01400
S 	S 	0.00542 0.45799 0.54470 0.00600
C 	C 	0.98187 0.53519 0.70462 0.00300
C 	C 	0.95822 0.51857 0.68605 -0.02700
C 	C 	0.96165 0.51054 0.64668 -0.04300
C 	C 	0.98902 0.51857 0.62581 0.02600
C 	C 	0.01180 0.53650 0.64371 -0.04400
C 	C 	0.00833 0.54466 0.68303 -0.02400
H 	H 	0.93783 0.51090 0.70254 0.04700
H 	H 	0.94405 0.49649 0.63316 0.04800
H 	H 	0.03304 0.54273 0.62783 0.04800
H 	H 	0.02663 0.55763 0.69703 0.04900
C 	C 	0.01971 0.44776 0.70597 0.00300
C 	C 	0.04499 0.46305 0.68846 -0.02800
C 	C 	0.04490 0.46855 0.64795 -0.04200
C 	C 	0.01917 0.45943 0.62492 0.02600
C 	C 	0.99600 0.44107 0.64167 -0.04500
C 	C 	0.99608 0.43551 0.68214 -0.02500
H 	H 	0.06355 0.47236 0.70653 0.04600
H 	H 	0.06323 0.48230 0.63515 0.04800
H 	H 	0.97627 0.43350 0.62404 0.04800
H 	H 	0.97678 0.42317 0.69529 0.04900
C 	C 	0.99673 0.44211 0.28444 0.00400
C 	C 	0.96987 0.45085 0.30566 -0.02400
C 	C 	0.97167 0.45454 0.34635 -0.04400
C 	C 	0.00047 0.45002 0.36605 0.02700
C 	C 	0.02642 0.43857 0.34543 -0.04300
C 	C 	0.02462 0.43470 0.30472 -0.02900
H 	H 	0.94806 0.45618 0.29041 0.05100
H 	H 	0.95142 0.46322 0.36206 0.04800
H 	H 	0.04867 0.43468 0.36046 0.04700
H 	H 	0.04520 0.42699 0.28880 0.04500
C 	C 	0.02508 0.53258 0.29404 0.00200
C 	C 	0.05113 0.51870 0.31192 -0.03000
C 	C 	0.04910 0.50888 0.35089 -0.04300
C 	C 	0.02080 0.51224 0.37196 0.02600
C 	C 	0.99557 0.52793 0.35498 -0.04500
C 	C 	0.99763 0.53790 0.31610 -0.02500
H 	H 	0.07240 0.51435 0.29512 0.04300
H 	H 	0.06872 0.49684 0.36378 0.04700
H 	H 	0.97359 0.53061 0.37098 0.04800
H 	H 	0.97750 0.54885 0.30270 0.04900
Co	Co	0.94999 0.42447 0.98426 1.18000
Co	Co	0.95145 0.49146 0.00063 1.07900
O 	O 	0.95077 0.38100 0.96995 -0.34700
O 	O 	0.99107 0.39295 0.00401 -0.28200
O 	O 	0.91000 0.44027 0.96281 -0.39900
O 	O 	0.97287 0.46761 0.04225 -0.44400
C 	C 	0.89273 0.45917 0.98268 0.27800
C 	C 	0.97681 0.37205 0.98560 0.26600
O 	O 	0.90606 0.47680 0.00842 -0.42700
O 	O 	0.94045 0.42802 0.03926 -0.42100
C 	C 	0.95746 0.44623 0.06012 0.30000
O 	O 	0.97866 0.44137 0.94618 -0.42500
O 	O 	0.95488 0.48651 0.94271 -0.46800
C 	C 	0.97114 0.46519 0.92615 0.30700
C 	C 	0.97334 0.93934 0.12308 0.10300
N 	N 	0.96586 0.96647 0.10969 -0.17300
C 	C 	0.93676 0.97260 0.12355 0.10300
C 	C 	0.91612 0.99511 0.10500 -0.07500
C 	C 	0.92858 0.02505 0.09692 0.09100
C 	C 	0.88310 0.98776 0.09431 0.04900
C 	C 	0.87687 0.96453 0.06840 -0.06100
C 	C 	0.84582 0.95869 0.05651 -0.01100
C 	C 	0.82076 0.97618 0.07027 -0.01600
C 	C 	0.85800 0.00476 0.10883 -0.06100
N 	N 	0.95578 0.03509 0.11271 -0.12700
C 	C 	0.91929 0.04234 0.06528 -0.05900
C 	C 	0.96335 0.05934 0.09155 0.09200
C 	C 	0.99498 0.07321 0.09300 -0.07700
C 	C 	0.99851 0.10447 0.08139 0.04900
C 	C 	0.99061 0.15635 0.09539 -0.01100
C 	C 	0.00983 0.11188 0.04384 -0.06000
C 	C 	0.01098 0.14143 0.03179 -0.01100
C 	C 	0.00117 0.16379 0.05745 -0.01500
N 	N 	0.02867 0.02861 0.09958 -0.17300
C 	C 	0.05913 0.02368 0.10938 0.10300
C 	C 	0.07234 0.04878 0.12567 -0.06000
C 	C 	0.04877 0.06990 0.12568 -0.06100
C 	C 	0.07785 0.99917 0.09258 -0.07500
C 	C 	0.11136 0.00367 0.08170 0.04900
C 	C 	0.16695 0.99260 0.09198 -0.01100
C 	C 	0.17487 0.00911 0.05824 -0.01600
C 	C 	0.15079 0.02335 0.03675 -0.01100
C 	C 	0.11919 0.02068 0.04853 -0.06100
N 	N 	0.03936 0.96036 0.11211 -0.12700
C 	C 	0.04741 0.92807 0.06301 -0.05900
C 	C 	0.02960 0.93488 0.09587 0.09100
C 	C 	0.99864 0.92130 0.10509 -0.07600
C 	C 	0.99351 0.88957 0.09722 0.04800
C 	C 	0.01488 0.86855 0.11201 -0.05900
C 	C 	0.01206 0.83897 0.10134 -0.01000
C 	C 	0.98763 0.83006 0.07609 -0.01600
C 	C 	0.96552 0.85087 0.06246 -0.01100
C 	C 	0.96856 0.88056 0.07280 -0.06100
C 	C 	0.94897 0.92799 0.14586 -0.06100
C 	C 	0.92555 0.94927 0.14616 -0.06000
C 	C 	0.82698 0.99906 0.09680 -0.01000
C 	C 	0.94159 0.06436 0.06187 -0.05800
C 	C 	0.02227 0.05671 0.10943 0.10400
C 	C 	0.06956 0.95018 0.05926 -0.05900
C 	C 	0.06404 0.96934 0.08995 0.09100
C 	C 	0.13534 0.98983 0.10352 -0.05900
H 	H 	0.97554 0.97603 0.08434 0.09400
H 	H 	0.01645 0.01690 0.07798 0.09400
H 	H 	0.02902 0.82302 0.11240 0.04900
H 	H 	0.94657 0.84422 0.04297 0.04700
H 	H 	0.03401 0.87524 0.13121 0.05500
H 	H 	0.95197 0.89662 0.06117 0.05000
H 	H 	0.84134 0.94104 0.03593 0.04800
H 	H 	0.86257 0.02257 0.12915 0.05500
H 	H 	0.80780 0.01245 0.10803 0.04900
H 	H 	0.89613 0.95131 0.05700 0.05000
H 	H 	0.01939 0.14693 0.00255 0.04800
H 	H 	0.01718 0.09474 0.02377 0.05100
C 	C 	0.98912 0.12679 0.10721 -0.06000
H 	H 	0.98289 0.17340 0.11540 0.04900
H 	H 	0.18525 0.98191 0.10925 0.05000
H 	H 	0.12945 0.97679 0.12933 0.05500
H 	H 	0.10075 0.03142 0.03151 0.05100
H 	H 	0.15647 0.03605 0.01058 0.04900
H 	H 	0.94494 0.90477 0.15147 0.05400
H 	H 	0.90078 0.94481 0.15189 0.05400
H 	H 	0.90440 0.03488 0.04141 0.05400
H 	H 	0.94647 0.07645 0.03498 0.05300
H 	H 	0.09743 0.05365 0.12651 0.05500
H 	H 	0.05306 0.09343 0.12646 0.05500
H 	H 	0.03938 0.91436 0.03905 0.05400
H 	H 	0.08132 0.95608 0.03203 0.05300
H 	H 	0.98038 0.12121 0.13629 0.05500
C 	C 	0.99660 0.25204 0.02215 0.10100
N 	N 	0.01046 0.24451 0.05684 -0.06700
N 	N 	0.01244 0.21629 0.06779 -0.07800
C 	C 	0.00090 0.19477 0.04419 0.11500
N 	N 	0.98750 0.20227 0.00922 -0.07800
N 	N 	0.98528 0.23051 0.99842 -0.07100
C 	C 	0.98312 0.34080 0.99376 0.05100
N 	N 	0.96716 0.31957 0.97397 -0.05400
N 	N 	0.97197 0.29118 0.98247 -0.06900
C 	C 	0.99268 0.28324 0.01121 0.10500
N 	N 	0.00881 0.30449 0.03079 -0.06600
N 	N 	0.00420 0.33287 0.02204 -0.05100
C 	C 	0.98462 0.46311 0.80347 0.10000
C 	C 	0.00765 0.45146 0.82901 0.09400
N 	N 	0.00327 0.45292 0.86853 -0.08600
C 	C 	0.97702 0.46615 0.88360 -0.03400
C 	C 	0.95436 0.47837 0.85795 0.05000
N 	N 	0.95850 0.47640 0.81841 -0.11100
N 	N 	0.98880 0.46136 0.76400 -0.11300
N 	N 	0.03407 0.43868 0.81400 -0.09900
H 	H 	0.93324 0.48876 0.86943 0.04300
C 	C 	0.01529 0.44864 0.74886 0.05300
C 	C 	0.03840 0.43712 0.77440 0.00500
H 	H 	0.05959 0.42692 0.76279 0.04600
C 	C 	0.96795 0.43290 0.18234 0.09900
C 	C 	0.99094 0.44852 0.16080 0.09400
N 	N 	0.98721 0.45253 0.12145 -0.08600
C 	C 	0.96148 0.44128 0.10260 -0.03000
C 	C 	0.93871 0.42534 0.12416 0.04800
N 	N 	0.94238 0.42155 0.16360 -0.10900
N 	N 	0.97090 0.43008 0.22193 -0.11200
N 	N 	0.01628 0.46024 0.17966 -0.09900
H 	H 	0.91801 0.41640 0.10972 0.04900
C 	C 	0.99599 0.44223 0.24106 0.05100
C 	C 	0.01925 0.45748 0.21936 0.01000
H 	H 	0.03894 0.46793 0.23417 0.04400
C 	C 	0.98410 0.71127 0.02798 0.10200
N 	N 	0.95986 0.69351 0.03947 -0.07000
N 	N 	0.96047 0.66478 0.03137 -0.05900
C 	C 	0.98521 0.65308 0.01130 0.04600
N 	N 	0.00916 0.67093 0.99925 -0.05600
N 	N 	0.00866 0.69960 0.00757 -0.06600
C 	C 	0.98632 0.79939 0.06232 0.11400
N 	N 	0.01274 0.78625 0.04797 -0.07800
N 	N 	0.01186 0.75825 0.03643 -0.06700
C 	C 	0.98461 0.74250 0.03924 0.09800
N 	N 	0.95813 0.75566 0.05349 -0.06900
N 	N 	0.95894 0.78378 0.06470 -0.07900
C 	C 	0.97684 0.55049 0.82672 0.09000
C 	C 	0.00364 0.53711 0.81011 0.10100
N 	N 	0.00489 0.53259 0.77073 -0.11200
C 	C 	0.98024 0.54064 0.74720 0.05300
C 	C 	0.95341 0.55399 0.76386 0.00500
N 	N 	0.95227 0.55866 0.80331 -0.10300
N 	N 	0.97563 0.55511 0.86609 -0.09200
N 	N 	0.02784 0.52825 0.83363 -0.10900
H 	H 	0.93373 0.56073 0.74549 0.04300
C 	C 	0.00015 0.54680 0.88971 -0.02800
C 	C 	0.02660 0.53267 0.87311 0.04600
H 	H 	0.04608 0.52539 0.89145 0.05000
C 	C 	0.00201 0.53430 0.18891 0.10000
C 	C 	0.02673 0.55089 0.17222 0.09200
N 	N 	0.02682 0.55655 0.13298 -0.08100
C 	C 	0.00332 0.54605 0.10950 -0.04100
C 	C 	0.97881 0.52908 0.12620 0.05400
N 	N 	0.97858 0.52368 0.16561 -0.11200
N 	N 	0.00176 0.52888 0.22821 -0.11500
N 	N 	0.05024 0.56139 0.19549 -0.10000
H 	H 	0.95988 0.52056 0.10806 0.01900
C 	C 	0.02544 0.53918 0.25159 0.04800
C 	C 	0.05010 0.55587 0.23485 0.00400
H 	H 	0.06891 0.56449 0.25310 0.04500
C 	C 	0.72896 0.96246 0.02856 0.09900
N 	N 	0.74024 0.99026 0.03318 -0.06700
N 	N 	0.76946 0.99462 0.04670 -0.07900
C 	C 	0.78829 0.97130 0.05586 0.11400
N 	N 	0.77704 0.94348 0.05122 -0.07900
N 	N 	0.74775 0.93913 0.03785 -0.06800
C 	C 	0.63762 0.94914 0.98558 0.05300
N 	N 	0.65488 0.92599 0.99926 -0.05500
N 	N 	0.68411 0.93022 0.01293 -0.06600
C 	C 	0.69682 0.95773 0.01340 0.10600
N 	N 	0.67952 0.98086 0.99972 -0.06900
N 	N 	0.65037 0.97661 0.98590 -0.05400
C 	C 	0.55691 0.96723 0.76578 0.09800
C 	C 	0.54292 0.98966 0.78813 0.09100
N 	N 	0.53614 0.98479 0.82669 -0.08900
C 	C 	0.54315 0.95843 0.84404 -0.03300
C 	C 	0.55801 0.93630 0.82186 0.04900
N 	N 	0.56446 0.94112 0.78315 -0.11000
N 	N 	0.56101 0.97112 0.72646 -0.11300
N 	N 	0.53471 0.01548 0.77056 -0.10000
H 	H 	0.56372 0.91518 0.83510 0.05000
C 	C 	0.55141 0.99650 0.70833 0.05000
C 	C 	0.53847 0.01934 0.73115 0.00600
H 	H 	0.53009 0.03946 0.71737 0.04700
C 	C 	0.51297 0.94722 0.12293 0.09800
C 	C 	0.48275 0.95324 0.13803 0.10000
N 	N 	0.47791 0.95277 0.17753 -0.11200
C 	C 	0.50224 0.94690 0.20280 0.05000
C 	C 	0.53251 0.94072 0.18741 0.00500
N 	N 	0.53716 0.94090 0.14784 -0.09900
N 	N 	0.51800 0.94839 0.08353 -0.08300
N 	N 	0.45873 0.96027 0.11308 -0.10600
H 	H 	0.55256 0.93745 0.20675 0.04100
C 	C 	0.49391 0.95500 0.05838 -0.02800
C 	C 	0.46368 0.96123 0.07353 0.04300
H 	H 	0.44430 0.96678 0.05400 0.02700
C 	C 	0.26930 0.01480 0.02190 0.09800
N 	N 	0.25892 0.99074 0.04207 -0.06800
N 	N 	0.22879 0.98886 0.05343 -0.07900
C 	C 	0.20819 0.01106 0.04516 0.11400
N 	N 	0.21859 0.03511 0.02492 -0.07900
N 	N 	0.24869 0.03693 0.01339 -0.06700
C 	C 	0.36440 0.02255 0.99040 0.04000
N 	N 	0.34284 0.04237 0.97688 -0.05400
N 	N 	0.31240 0.03974 0.98665 -0.07000
C 	C 	0.30266 0.01716 0.01010 0.10400
N 	N 	0.32418 0.99714 0.02328 -0.06900
N 	N 	0.35464 0.99985 0.01366 -0.05600
C 	C 	0.44588 0.01742 0.79647 0.08900
C 	C 	0.46339 0.03891 0.77604 0.10200
N 	N 	0.46353 0.03910 0.73611 -0.11600
C 	C 	0.44665 0.01877 0.71555 0.05000
C 	C 	0.42776 0.99823 0.73615 0.00400
N 	N 	0.42807 0.99777 0.77618 -0.10500
N 	N 	0.44676 0.01650 0.83641 -0.09400
N 	N 	0.48100 0.05872 0.79630 -0.10900
H 	H 	0.41288 0.98286 0.72045 0.04200
C 	C 	0.46433 0.03640 0.85685 -0.03600
C 	C 	0.48190 0.05787 0.83626 0.05300
H 	H 	0.49615 0.07376 0.85197 0.04900
C 	C 	0.50465 0.06036 0.15230 0.09900
C 	C 	0.51510 0.03601 0.13054 0.09400
N 	N 	0.50560 0.03278 0.09262 -0.08700
C 	C 	0.48593 0.05293 0.07554 -0.02700
C 	C 	0.47622 0.07773 0.09709 0.05000
N 	N 	0.48573 0.08088 0.13503 -0.10800
N 	N 	0.51189 0.06227 0.19111 -0.11300
N 	N 	0.53320 0.01505 0.14816 -0.09900
H 	H 	0.46105 0.09427 0.08382 0.05100
C 	C 	0.52880 0.04057 0.20945 0.05000
C 	C 	0.54024 0.01676 0.18711 0.00700
H 	H 	0.55353 0.99915 0.20093 0.04200
C 	C 	0.47488 0.24807 0.94055 0.09900
N 	N 	0.44954 0.26469 0.92982 -0.06800
N 	N 	0.45308 0.29328 0.92171 -0.07900
C 	C 	0.48206 0.30610 0.92410 0.11400
N 	N 	0.50742 0.28951 0.93497 -0.07900
N 	N 	0.50388 0.26088 0.94304 -0.06800
C 	C 	0.46347 0.15827 0.96369 0.05200
N 	N 	0.49265 0.17074 0.96555 -0.05500
N 	N 	0.49632 0.19947 0.95832 -0.06700
C 	C 	0.47090 0.21650 0.94907 0.10300
N 	N 	0.44172 0.20401 0.94738 -0.06700
N 	N 	0.43806 0.17531 0.95463 -0.05400
C 	C 	0.18891 0.54761 0.98814 0.10200
N 	N 	0.17683 0.57536 0.98744 -0.06700
N 	N 	0.14627 0.57990 0.99506 -0.05600
C 	C 	0.12694 0.55683 0.00366 0.05600
N 	N 	0.13908 0.52912 0.00490 -0.05300
N 	N 	0.16963 0.52457 0.99718 -0.06800
C 	C 	0.28274 0.53295 0.95513 0.11400
N 	N 	0.26335 0.50985 0.96354 -0.07900
N 	N 	0.23353 0.51455 0.97472 -0.06800
C 	C 	0.22223 0.54247 0.97773 0.09900
N 	N 	0.24170 0.56558 0.96968 -0.06800
N 	N 	0.27154 0.56088 0.95858 -0.07900
C 	C 	0.79642 0.46771 0.95809 0.10000
N 	N 	0.80903 0.48079 0.99031 -0.07300
N 	N 	0.83978 0.47789 0.99836 -0.06400
C 	C 	0.85870 0.46161 0.97461 0.03800
N 	N 	0.84601 0.44825 0.94266 -0.05500
N 	N 	0.81533 0.45136 0.93442 -0.06900
C 	C 	0.70139 0.48094 0.92945 0.11300
N 	N 	0.72175 0.46979 0.90246 -0.08000
N 	N 	0.75201 0.46521 0.91179 -0.06900
C 	C 	0.76284 0.47191 0.94826 0.09600
N 	N 	0.74246 0.48302 0.97528 -0.07000
N 	N 	0.71213 0.48735 0.96605 -0.08000
C 	C 	0.48238 0.76634 0.92317 0.09800
N 	N 	0.47533 0.75577 0.88695 -0.06900
N 	N 	0.47528 0.72682 0.88048 -0.08000
C 	C 	0.48205 0.70762 0.91012 0.11400
N 	N 	0.48855 0.71817 0.94651 -0.07900
N 	N 	0.48882 0.74712 0.95292 -0.06800
C 	C 	0.49239 0.85693 0.93924 0.04400
N 	N 	0.50283 0.83769 0.96712 -0.05400
N 	N 	0.49892 0.80877 0.96244 -0.06800
C 	C 	0.48469 0.79826 0.92959 0.10200
N 	N 	0.47399 0.81752 0.90186 -0.07000
N 	N 	0.47769 0.84646 0.90669 -0.05800
