data_crystal

_cell_length_a 20.26866
_cell_length_b 21.29043
_cell_length_c 37.66800
_cell_angle_alpha 60.58458
_cell_angle_beta  119.08406
_cell_angle_gamma 133.30103

_symmetry_space_group_name_	'P 1'
_symmetry_space_group_name_H-M	'P 1'

loop_
_symmetry_equiv_pos_as_xyz
  x,y,z

loop_
_atom_site_label
_atom_site_type_symbol
_atom_site_fract_x
_atom_site_fract_y
_atom_site_fract_z
_atom_site_charge
C 	C 	0.28102 0.67095 0.14061 0.14800
N 	N 	0.21077 0.59345 0.12774 -0.11600
C 	C 	0.23202 0.54762 0.12490 0.15300
C 	C 	0.31335 0.68654 0.63783 0.15400
C 	C 	0.25803 0.56549 0.61795 0.15200
N 	N 	0.24075 0.61100 0.62377 -0.11500
Co	Co	0.03056 0.02076 0.03159 1.17600
Co	Co	0.10164 0.92448 0.02943 1.18400
C 	C 	0.21322 0.11916 0.01698 0.30700
O 	O 	0.00055 0.09957 0.02575 -0.44200
C 	C 	0.02772 0.19629 0.11271 0.34800
C 	C 	0.20123 0.90336 0.11713 0.31600
O 	O 	0.03052 0.94764 0.20681 -0.33700
O 	O 	0.21399 0.95829 0.08011 -0.35100
O 	O 	0.15011 0.89140 0.13534 -0.35100
O 	O 	0.05406 0.17021 0.09964 -0.38200
O 	O 	0.04117 0.93556 0.05624 -0.72300
O 	O 	0.16664 0.05801 0.99728 -0.40300
O 	O 	0.17163 0.11418 0.03722 -0.38600
Co	Co	0.05730 0.03048 0.53094 1.16800
Co	Co	0.11805 0.92181 0.53071 1.18600
C 	C 	0.22811 0.11937 0.50577 0.32300
O 	O 	0.02702 0.05820 0.69652 -0.39100
C 	C 	0.04082 0.99722 0.72347 0.29600
O 	O 	0.02396 0.10837 0.52321 -0.43800
C 	C 	0.04277 0.21128 0.60660 0.34800
C 	C 	0.22644 0.90856 0.61737 0.31300
O 	O 	0.23471 0.96107 0.57940 -0.35600
O 	O 	0.17300 0.89195 0.63616 -0.35000
O 	O 	0.07075 0.18989 0.59165 -0.36300
O 	O 	0.07489 0.94968 0.55846 -0.72900
O 	O 	0.17785 0.04935 0.49167 -0.41500
O 	O 	0.19163 0.12818 0.52248 -0.38500
C 	C 	0.07205 0.01529 0.81922 0.07800
C 	C 	0.08469 0.06585 0.83883 -0.05900
C 	C 	0.01446 0.02612 0.85774 -0.01700
O 	O 	0.11320 0.05408 0.78658 -0.20000
C 	C 	0.05384 0.98158 0.76860 0.12200
C 	C 	0.02738 0.04765 0.88997 -0.06200
H 	H 	0.14518 0.13439 0.83809 0.07900
H 	H 	0.09411 0.09923 0.90472 0.06800
C 	C 	0.06509 0.00497 0.31971 0.07800
C 	C 	0.07533 0.05462 0.33893 -0.05500
C 	C 	0.00676 0.01197 0.35963 -0.00900
C 	C 	0.02074 0.03418 0.39187 -0.07500
O 	O 	0.10266 0.04448 0.28568 -0.18800
H 	H 	0.13248 0.12464 0.33643 0.09100
H 	H 	0.08649 0.08922 0.40473 0.08300
C 	C 	0.17240 0.46179 0.57465 -0.04700
C 	C 	0.18244 0.47666 0.60998 -0.00300
C 	C 	0.14288 0.40339 0.64312 0.08200
C 	C 	0.10233 0.31792 0.64257 0.00000
C 	C 	0.09810 0.30375 0.60860 -0.09100
C 	C 	0.13168 0.37615 0.57399 0.12900
N 	N 	0.12489 0.36330 0.53819 -0.02600
H 	H 	0.20190 0.51782 0.54879 0.08700
H 	H 	0.07385 0.26217 0.66870 0.06600
N 	N 	0.14803 0.41617 0.67851 -0.01800
O 	O 	0.06484 0.36746 0.50338 -0.06800
O 	O 	0.18707 0.36005 0.53864 -0.07700
O 	O 	0.07235 0.38585 0.68521 -0.06300
O 	O 	0.22643 0.44933 0.70636 -0.06700
C 	C 	0.36267 0.83625 0.63014 -0.04800
C 	C 	0.29699 0.74311 0.63962 -0.00900
C 	C 	0.21720 0.70531 0.65097 0.08600
C 	C 	0.19947 0.76078 0.64851 -0.01100
C 	C 	0.26094 0.85387 0.63503 -0.07400
C 	C 	0.34608 0.89147 0.62883 0.11900
N 	N 	0.41537 0.98605 0.62057 0.02500
H 	H 	0.13545 0.73118 0.65496 0.08200
N 	N 	0.15517 0.61106 0.66580 -0.01700
O 	O 	0.43945 0.03064 0.64407 -0.11400
O 	O 	0.17812 0.57134 0.70392 -0.05400
O 	O 	0.07530 0.56504 0.64135 -0.06400
C 	C 	0.12727 0.38544 0.15112 -0.05000
C 	C 	0.15899 0.45830 0.11685 -0.00100
C 	C 	0.14881 0.44455 0.08085 0.08700
C 	C 	0.11355 0.35991 0.08094 0.00100
C 	C 	0.08796 0.28861 0.11653 -0.08800
C 	C 	0.09724 0.30267 0.15212 0.12300
H 	H 	0.13551 0.39539 0.17900 0.08800
H 	H 	0.10271 0.34903 0.05274 0.07300
C 	C 	0.16733 0.75171 0.14711 -0.00800
C 	C 	0.23174 0.84484 0.13474 -0.07600
C 	C 	0.31579 0.87962 0.12854 0.12000
C 	C 	0.32875 0.82246 0.12890 -0.05100
C 	C 	0.26179 0.72946 0.13849 -0.00500
C 	C 	0.18207 0.69395 0.14917 0.08100
N 	N 	0.11730 0.59993 0.16310 -0.01900
H 	H 	0.10366 0.72391 0.15319 0.06800
H 	H 	0.39167 0.85075 0.12193 0.09700
N 	N 	0.38747 0.97369 0.12076 0.02500
O 	O 	0.12564 0.56146 0.20298 -0.07200
O 	O 	0.04773 0.55331 0.13604 -0.07100
O 	O 	0.41910 0.01763 0.14652 -0.11800
C 	C 	0.39153 0.19968 0.54627 -0.00500
C 	C 	0.32840 0.18187 0.50765 -0.09200
C 	C 	0.36045 0.20592 0.47408 0.11600
N 	N 	0.30027 0.19934 0.43295 -0.02300
H 	H 	0.36751 0.18212 0.57208 0.06700
O 	O 	0.26166 0.24075 0.41488 -0.08900
O 	O 	0.28877 0.15666 0.41254 -0.10200
C 	C 	0.35191 0.21361 0.98931 0.00600
C 	C 	0.31469 0.18264 0.02227 -0.10400
C 	C 	0.37379 0.19288 0.06262 0.12100
H 	H 	0.30821 0.21023 0.95775 0.06600
N 	N 	0.34224 0.17550 0.09522 -0.02300
N 	N 	0.32199 0.57952 0.13431 -0.12500
N 	N 	0.37107 0.70065 0.15086 -0.12900
N 	N 	0.40224 0.71487 0.64643 -0.12400
N 	N 	0.34685 0.59654 0.62506 -0.13200
Co	Co	0.01956 0.87054 0.10423 1.19900
O 	O 	0.04536 0.79179 0.06136 -0.36400
O 	O 	0.04694 0.99695 0.59615 -0.53400
N 	N 	0.17609 0.51701 0.04443 -0.01600
O 	O 	0.32779 0.22836 0.09292 -0.08600
Co	Co	0.04949 0.88456 0.60568 1.19500
O 	O 	0.06109 0.79194 0.56681 -0.37600
O 	O 	0.04109 0.94869 0.71065 -0.33000
O 	O 	0.33767 0.11288 0.12914 -0.09500
O 	O 	0.15242 0.56995 0.03053 -0.05800
N 	N 	0.07977 0.23379 0.19007 -0.02500
O 	O 	0.14419 0.22168 0.21544 -0.07600
C 	C 	0.04413 0.97129 0.26830 0.12800
O 	O 	0.22220 0.52846 0.02442 -0.06500
H 	H 	0.42632 0.86608 0.62326 0.09600
C 	C 	0.02281 0.98637 0.22243 0.29500
C 	C 	0.39136 0.65590 0.14686 0.15400
O 	O 	0.00659 0.04636 0.19773 -0.37600
O 	O 	0.00506 0.19153 0.20184 -0.09500
O 	O 	0.43460 0.21914 0.93954 -0.08500
O 	O 	0.42381 0.01472 0.08890 -0.13800
C 	C 	0.41871 0.67003 0.63978 0.15700
O 	O 	0.41379 0.72684 0.06106 -0.05600
O 	O 	0.45611 0.02725 0.59028 -0.13300
C 	C 	0.45180 0.23697 0.48091 -0.05400
C 	C 	0.44268 0.24203 0.99743 0.09100
N 	N 	0.47892 0.27130 0.96362 -0.01800
N 	N 	0.45889 0.69125 0.08244 -0.01700
O 	O 	0.45197 0.64483 0.06618 -0.07100
C 	C 	0.46414 0.22018 0.07088 -0.04600
H 	H 	0.47575 0.25383 0.45525 0.08100
H 	H 	0.49882 0.71285 0.58464 0.08800
C 	C 	0.48369 0.23300 0.55287 0.08200
C 	C 	0.48837 0.69193 0.15425 -0.01100
C 	C 	0.49741 0.24114 0.03882 -0.02700
C 	C 	0.51317 0.24922 0.52029 -0.01200
H 	H 	0.50839 0.22479 0.10230 0.08900
C 	C 	0.51403 0.70112 0.64801 -0.01000
C 	C 	0.51994 0.70701 0.12281 0.08600
H 	H 	0.52099 0.68507 0.21918 0.08400
O 	O 	0.00839 0.84496 0.65685 -0.42300
O 	O 	0.46627 0.59610 0.73334 -0.07000
O 	O 	0.00951 0.71530 0.99336 -0.04800
C 	C 	0.54500 0.72013 0.61557 -0.04900
N 	N 	0.53799 0.67724 0.72310 -0.01900
C 	C 	0.54687 0.70160 0.19433 -0.05200
N 	N 	0.54710 0.24989 0.59275 -0.01700
O 	O 	0.54888 0.91196 0.09175 -0.07700
Co	Co	0.98527 0.07083 0.57493 1.16700
O 	O 	0.96062 0.15382 0.61550 -0.43000
O 	O 	0.97114 0.00251 0.96976 -0.40800
C 	C 	0.97098 0.95510 0.95594 0.31700
C 	C 	0.95609 0.95695 0.41496 0.08700
O 	O 	0.98335 0.89294 0.98201 -0.35900
Co	Co	0.95686 0.05609 0.07682 1.15600
C 	C 	0.99295 0.91596 0.32351 0.08300
O 	O 	0.94347 0.14321 0.11850 -0.42700
C 	C 	0.69561 0.25331 0.04788 0.14800
N 	N 	0.76916 0.32902 0.06169 -0.12300
C 	C 	0.75328 0.37408 0.06886 0.15000
N 	N 	0.66484 0.34257 0.06310 -0.13000
C 	C 	0.59204 0.26944 0.04817 0.15600
N 	N 	0.60717 0.22493 0.04037 -0.13000
C 	C 	0.72264 0.27206 0.53568 0.14800
N 	N 	0.79187 0.35058 0.54776 -0.11700
C 	C 	0.76924 0.39826 0.54768 0.15100
N 	N 	0.67892 0.36665 0.53675 -0.12500
C 	C 	0.61046 0.28824 0.52594 0.15300
N 	N 	0.63219 0.24205 0.52440 -0.13300
Co	Co	0.94644 0.90636 0.14994 1.18400
C 	C 	0.96271 0.73374 0.06989 0.28800
Co	Co	0.88470 0.01188 0.15241 1.14200
O 	O 	0.92986 0.98804 0.12361 -0.72200
O 	O 	0.97859 0.82895 0.15593 -0.45300
O 	O 	0.95885 0.94457 0.08458 -0.56300
C 	C 	0.77320 0.81463 0.17388 0.32200
O 	O 	0.82318 0.88250 0.18952 -0.38400
O 	O 	0.81059 0.80809 0.15656 -0.37800
C 	C 	0.77993 0.03160 0.06534 0.24200
O 	O 	0.76969 0.97668 0.10277 -0.31300
O 	O 	0.83363 0.04909 0.04638 -0.37400
O 	O 	0.93448 0.75378 0.08552 -0.38000
Co	Co	0.97884 0.92502 0.64987 1.19200
C 	C 	0.97741 0.73982 0.57305 0.28900
Co	Co	0.90704 0.02281 0.64982 1.14600
O 	O 	0.96620 0.00907 0.62361 -0.79500
C 	C 	0.79781 0.82727 0.66611 0.32100
C 	C 	0.97731 0.94310 0.46072 0.26000
O 	O 	0.84472 0.89089 0.68426 -0.39300
O 	O 	0.83805 0.83069 0.64580 -0.37300
O 	O 	0.99470 0.88403 0.48609 -0.36900
O 	O 	0.97010 0.98333 0.47563 -0.33800
C 	C 	0.80328 0.03728 0.56266 0.24500
O 	O 	0.79284 0.98431 0.60018 -0.30900
O 	O 	0.85397 0.04888 0.54431 -0.37000
O 	O 	0.95119 0.76878 0.58423 -0.37200
C 	C 	0.93833 0.93873 0.85958 0.16600
C 	C 	0.92579 0.88814 0.84002 -0.10800
C 	C 	0.99620 0.92773 0.82128 0.07700
C 	C 	0.98360 0.90590 0.78926 -0.10700
O 	O 	0.89710 0.89987 0.89219 -0.17000
C 	C 	0.95702 0.97190 0.91056 0.07200
H 	H 	0.86532 0.81959 0.84078 0.09600
H 	H 	0.91714 0.85382 0.77469 0.07900
C 	C 	0.93511 0.92275 0.36375 0.16600
C 	C 	0.92454 0.87320 0.34433 -0.10800
O 	O 	0.89818 0.88325 0.39802 -0.18000
C 	C 	0.97883 0.89404 0.29112 -0.11200
H 	H 	0.86719 0.80326 0.34669 0.10300
H 	H 	0.91273 0.83962 0.27795 0.09400
C 	C 	0.57151 0.70401 0.68884 0.08000
C 	C 	0.66239 0.73376 0.69593 -0.00700
C 	C 	0.69693 0.76232 0.66246 -0.08900
C 	C 	0.63534 0.74852 0.62285 0.12600
N 	N 	0.66442 0.76353 0.58997 -0.02400
H 	H 	0.70817 0.74005 0.72700 0.06700
O 	O 	0.67977 0.71077 0.59297 -0.07800
O 	O 	0.66576 0.82360 0.55524 -0.07000
O 	O 	0.58317 0.73207 0.74589 -0.07700
C 	C 	0.61178 0.73761 0.13113 -0.00500
C 	C 	0.67234 0.75343 0.17038 -0.08700
C 	C 	0.63761 0.72936 0.20292 0.11900
H 	H 	0.63772 0.75472 0.10616 0.07500
N 	N 	0.69463 0.73309 0.24476 -0.02300
O 	O 	0.70476 0.77476 0.26523 -0.08900
O 	O 	0.73274 0.69116 0.26309 -0.09100
C 	C 	0.67756 0.11982 0.55139 -0.04300
C 	C 	0.74317 0.21279 0.53990 -0.01900
C 	C 	0.82142 0.24708 0.52845 0.08100
C 	C 	0.83539 0.18840 0.53089 -0.02400
C 	C 	0.77225 0.09555 0.54486 -0.06100
C 	C 	0.68988 0.06161 0.55236 0.05800
N 	N 	0.61916 0.96745 0.56191 0.00500
H 	H 	0.61587 0.09236 0.55914 0.07300
H 	H 	0.89774 0.21539 0.52397 0.06800
N 	N 	0.88597 0.34083 0.51374 -0.01700
O 	O 	0.58593 0.92909 0.59451 -0.08200
O 	O 	0.58530 0.92069 0.53706 -0.06200
O 	O 	0.95620 0.38856 0.54032 -0.09100
O 	O 	0.87880 0.37723 0.47369 -0.07500
C 	C 	0.89761 0.64228 0.52732 -0.01600
C 	C 	0.91321 0.64951 0.56620 -0.07200
C 	C 	0.89253 0.57436 0.60067 0.11300
C 	C 	0.85795 0.49397 0.59592 -0.04500
C 	C 	0.84145 0.48677 0.55680 -0.00900
C 	C 	0.86567 0.56295 0.52292 0.08000
N 	N 	0.85376 0.55878 0.48321 -0.02100
H 	H 	0.91580 0.70032 0.50094 0.06900
H 	H 	0.83803 0.43543 0.62202 0.08600
N 	N 	0.90595 0.57902 0.64053 -0.02600
O 	O 	0.81078 0.58886 0.44900 -0.08200
O 	O 	0.88980 0.52889 0.48104 -0.07200
O 	O 	0.86099 0.59815 0.64402 -0.07800
O 	O 	0.95580 0.55564 0.67396 -0.08500
O 	O 	0.55531 0.29631 0.60957 -0.08100
O 	O 	0.59317 0.21534 0.61317 -0.07800
C 	C 	0.64495 0.10398 0.05403 -0.04200
C 	C 	0.71071 0.19712 0.04475 -0.02000
C 	C 	0.78980 0.23523 0.03269 0.07900
C 	C 	0.80796 0.17992 0.03528 -0.02400
C 	C 	0.74622 0.08674 0.04843 -0.06200
C 	C 	0.66105 0.04903 0.05464 0.05800
N 	N 	0.59084 0.95467 0.06173 0.00500
H 	H 	0.58152 0.07397 0.06117 0.07300
H 	H 	0.87189 0.20963 0.02869 0.06200
N 	N 	0.84992 0.32940 0.01651 -0.02500
O 	O 	0.56700 0.91186 0.03738 -0.05600
O 	O 	0.93781 0.37449 0.03521 -0.09800
O 	O 	0.81749 0.36956 0.98222 -0.06600
C 	C 	0.86967 0.53329 0.04210 -0.05200
C 	C 	0.82936 0.46397 0.07564 -0.00700
C 	C 	0.83883 0.48445 0.10900 0.08000
C 	C 	0.87852 0.57221 0.10602 -0.01100
C 	C 	0.91086 0.64021 0.07048 -0.07800
C 	C 	0.90714 0.62045 0.03854 0.11300
N 	N 	0.93654 0.68784 0.00131 -0.05200
H 	H 	0.86345 0.51816 0.01656 0.08600
H 	H 	0.88634 0.58773 0.13185 0.06800
N 	N 	0.80631 0.41564 0.14558 -0.01800
O 	O 	0.88487 0.71469 0.97332 -0.06700
O 	O 	0.82660 0.35892 0.16356 -0.08300
O 	O 	0.75851 0.41110 0.16157 -0.08500
O 	O 	0.55253 0.35219 0.95515 -0.07200
