data_crystal

_cell_length_a 18.60587
_cell_length_b 18.74426
_cell_length_c 34.78301
_cell_angle_alpha 95.45259
_cell_angle_beta  95.45277
_cell_angle_gamma 126.43770

_symmetry_space_group_name_	'P 1'
_symmetry_space_group_name_H-M	'P 1'

loop_
_symmetry_equiv_pos_as_xyz
  x,y,z

loop_
_atom_site_label
_atom_site_type_symbol
_atom_site_fract_x
_atom_site_fract_y
_atom_site_fract_z
_atom_site_charge
C 	C 	0.90998 0.99576 0.96457 0.18500
N 	N 	0.99590 0.04124 0.95748 -0.12900
C 	C 	0.03604 0.00037 0.95504 0.22000
N 	N 	0.98939 0.91277 0.95854 -0.15200
C 	C 	0.90331 0.86610 0.96550 0.18500
N 	N 	0.86321 0.90769 0.96870 -0.12100
C 	C 	0.95271 0.04506 0.50388 0.17000
N 	N 	0.04309 0.08955 0.50398 -0.09600
C 	C 	0.07870 0.04373 0.50465 0.19100
N 	N 	0.02403 0.95406 0.50497 -0.12500
C 	C 	0.93405 0.90965 0.50433 0.17400
N 	N 	0.89836 0.95503 0.50389 -0.12500
Cu	Cu	0.75492 0.33970 0.95908 0.93200
Cu	Cu	0.73956 0.26834 0.04261 0.88000
Cu	Cu	0.59986 0.27948 0.00363 0.90300
Cu	Cu	0.58144 0.32121 0.92385 0.90700
C 	C 	0.70205 0.31436 0.87538 0.28300
O 	O 	0.80030 0.46991 0.95918 -0.33200
C 	C 	0.65081 0.31182 0.09085 0.28100
O 	O 	0.61210 0.25750 0.95043 -0.63700
O 	O 	0.73457 0.34841 0.01345 -0.63900
O 	O 	0.82032 0.28543 0.96616 -0.35700
O 	O 	0.71802 0.18351 0.99973 -0.41600
O 	O 	0.65808 0.34769 0.88287 -0.36500
O 	O 	0.46885 0.20526 0.99108 -0.37400
C 	C 	0.41931 0.20429 0.96085 0.34900
C 	C 	0.75183 0.49665 0.96919 0.33100
O 	O 	0.66623 0.43638 0.97126 -0.39100
O 	O 	0.45604 0.25696 0.93478 -0.35800
O 	O 	0.75203 0.31185 0.90405 -0.33900
C 	C 	0.77994 0.20748 0.97799 0.34300
O 	O 	0.58687 0.28223 0.05962 -0.36600
O 	O 	0.72698 0.32350 0.08761 -0.40000
H 	H 	0.57760 0.19290 0.93854 0.19300
H 	H 	0.76792 0.41063 0.02844 0.19500
Cu	Cu	0.61664 0.20708 0.50668 0.93200
Cu	Cu	0.67504 0.21106 0.42041 0.87900
Cu	Cu	0.65984 0.34995 0.45703 0.90100
Cu	Cu	0.62349 0.37437 0.53782 0.90900
C 	C 	0.65690 0.27559 0.58975 0.28000
O 	O 	0.48515 0.15359 0.50978 -0.32200
C 	C 	0.62111 0.28879 0.37019 0.27900
O 	O 	0.69039 0.34771 0.51103 -0.63700
O 	O 	0.59722 0.21730 0.45117 -0.63800
O 	O 	0.67426 0.14552 0.50019 -0.33100
O 	O 	0.76731 0.24041 0.46199 -0.43300
O 	O 	0.61473 0.31118 0.58225 -0.35100
O 	O 	0.72759 0.47974 0.46625 -0.37700
C 	C 	0.72817 0.52867 0.49645 0.34500
C 	C 	0.44997 0.19392 0.49892 0.32700
O 	O 	0.50365 0.27732 0.49354 -0.38800
O 	O 	0.67164 0.49117 0.52111 -0.36000
O 	O 	0.65405 0.22017 0.56198 -0.32100
C 	C 	0.74938 0.18375 0.48574 0.33100
O 	O 	0.64962 0.35445 0.40017 -0.36900
O 	O 	0.61129 0.21500 0.37549 -0.40300
H 	H 	0.75650 0.38660 0.52185 0.18000
H 	H 	0.53278 0.17988 0.43771 0.18300
C 	C 	0.60473 0.12924 0.74403 -0.03300
C 	C 	0.59870 0.12371 0.70325 -0.03100
C 	C 	0.65015 0.20249 0.68743 0.03200
C 	C 	0.71100 0.28712 0.71289 -0.00400
C 	C 	0.71738 0.29264 0.75394 -0.00200
C 	C 	0.66247 0.21360 0.76951 0.03000
C 	C 	0.77532 0.37765 0.77929 0.02700
C 	C 	0.82914 0.45612 0.76354 -0.03300
C 	C 	0.82248 0.45067 0.72279 -0.03600
C 	C 	0.76210 0.36666 0.69726 0.03100
C 	C 	0.74891 0.36164 0.65639 -0.02800
C 	C 	0.68495 0.27797 0.63111 -0.03000
C 	C 	0.63817 0.19822 0.64653 -0.01600
C 	C 	0.66280 0.22041 0.81015 -0.02500
C 	C 	0.71684 0.30549 0.83505 -0.03900
C 	C 	0.77532 0.38354 0.81981 -0.02000
H 	H 	0.56313 0.06801 0.75571 0.06100
H 	H 	0.55254 0.05827 0.68397 0.06400
H 	H 	0.87473 0.52163 0.78280 0.05600
H 	H 	0.86298 0.51205 0.71108 0.05700
H 	H 	0.78547 0.42296 0.64432 0.05200
H 	H 	0.58906 0.13365 0.62689 0.07800
H 	H 	0.61816 0.16023 0.82211 0.05900
H 	H 	0.81747 0.44905 0.83925 0.05900
C 	C 	0.75802 0.47180 0.22818 -0.03500
C 	C 	0.75330 0.46865 0.26799 -0.03600
C 	C 	0.68045 0.39077 0.27911 0.02500
C 	C 	0.60971 0.31709 0.24992 -0.00400
C 	C 	0.61395 0.32069 0.20982 -0.00400
C 	C 	0.68965 0.39735 0.19898 0.02500
C 	C 	0.54474 0.24583 0.18065 0.02600
C 	C 	0.47028 0.16920 0.19174 -0.03500
C 	C 	0.46658 0.16525 0.23157 -0.03400
C 	C 	0.53701 0.23812 0.26082 0.02500
C 	C 	0.53781 0.23143 0.30073 -0.02200
C 	C 	0.61065 0.30299 0.32971 -0.04900
C 	C 	0.67981 0.38388 0.31896 -0.02500
C 	C 	0.69819 0.39682 0.15928 -0.02300
C 	C 	0.63171 0.32039 0.13044 -0.04800
C 	C 	0.55327 0.24668 0.14096 -0.02400
H 	H 	0.81580 0.53154 0.22013 0.05300
H 	H 	0.80744 0.52604 0.29018 0.05400
H 	H 	0.41622 0.11175 0.16955 0.05800
H 	H 	0.40974 0.10478 0.23964 0.05500
H 	H 	0.48368 0.16962 0.30916 0.05400
H 	H 	0.73559 0.43932 0.34140 0.05500
H 	H 	0.75805 0.45417 0.15098 0.05400
H 	H 	0.50169 0.18804 0.11858 0.05700
C 	C 	0.88250 0.77871 0.53638 -0.11800
C 	C 	0.87540 0.81238 0.50313 -0.06300
C 	C 	0.81978 0.75268 0.46761 0.31700
C 	C 	0.77279 0.65987 0.46526 -0.06900
C 	C 	0.78047 0.62618 0.49847 -0.13700
C 	C 	0.83492 0.68592 0.53416 0.35600
F 	F 	0.84306 0.65406 0.56645 -0.44900
H 	H 	0.92607 0.82464 0.56377 0.10400
H 	H 	0.72994 0.61408 0.43774 0.10000
F 	F 	0.81312 0.78485 0.43518 -0.42100
C 	C 	0.86059 0.08700 0.53063 -0.11800
C 	C 	0.91284 0.09327 0.50265 -0.05500
C 	C 	0.91649 0.13518 0.47077 0.31600
C 	C 	0.86471 0.16640 0.46585 -0.07400
C 	C 	0.80899 0.15648 0.49286 -0.13800
C 	C 	0.80937 0.11895 0.52599 0.35700
F 	F 	0.76050 0.11359 0.55371 -0.43100
H 	H 	0.85828 0.05570 0.55560 0.10800
H 	H 	0.86598 0.19600 0.44041 0.08600
F 	F 	0.96668 0.14169 0.44348 -0.41100
C 	C 	0.22587 0.07871 0.53349 -0.11600
C 	C 	0.17626 0.09054 0.50536 -0.05900
C 	C 	0.21629 0.13473 0.47462 0.32000
C 	C 	0.30455 0.16533 0.47174 -0.07300
C 	C 	0.35364 0.15219 0.49954 -0.13500
C 	C 	0.31398 0.10918 0.53063 0.35600
F 	F 	0.36166 0.09916 0.55869 -0.43200
H 	H 	0.19547 0.04456 0.55729 0.11100
H 	H 	0.33487 0.19935 0.44790 0.09600
F 	F 	0.16864 0.14532 0.44682 -0.40100
C 	C 	0.73609 0.61203 0.94940 -0.07000
C 	C 	0.78781 0.59169 0.97082 -0.13700
C 	C 	0.87221 0.66201 0.99436 0.35500
C 	C 	0.90600 0.75189 0.99535 -0.11500
C 	C 	0.85678 0.77263 0.97216 -0.06200
C 	C 	0.77049 0.70203 0.94992 0.31400
F 	F 	0.72198 0.72049 0.92728 -0.42600
H 	H 	0.67027 0.55812 0.93150 0.08700
H 	H 	0.97215 0.80574 0.01304 0.11100
F 	F 	0.92155 0.64343 0.01629 -0.44500
C 	C 	0.89846 0.18691 0.99497 -0.06400
C 	C 	0.81442 0.15458 0.97285 -0.14500
C 	C 	0.75790 0.06631 0.95053 0.36300
C 	C 	0.78675 0.01200 0.94955 -0.12300
C 	C 	0.87165 0.04501 0.97124 -0.05000
C 	C 	0.92646 0.13220 0.99467 0.29500
F 	F 	0.00723 0.16405 0.01705 -0.38900
H 	H 	0.94122 0.25376 0.01320 0.08000
H 	H 	0.74415 0.94532 0.93117 0.12500
F 	F 	0.67538 0.03337 0.92966 -0.43800
C 	C 	0.28837 0.16335 0.99198 -0.06900
C 	C 	0.32124 0.15214 0.95912 -0.13300
C 	C 	0.25999 0.09213 0.92452 0.35900
C 	C 	0.16642 0.04305 0.92305 -0.11000
C 	C 	0.13377 0.05463 0.95589 -0.06800
C 	C 	0.19501 0.11514 0.99034 0.32700
F 	F 	0.16381 0.12598 0.02242 -0.40400
H 	H 	0.33531 0.20994 0.01870 0.10200
H 	H 	0.11932 0.99590 0.89647 0.11400
F 	F 	0.29113 0.08026 0.89264 -0.43800
