data_crystal

_cell_length_a 36.02865
_cell_length_b 36.04704
_cell_length_c 27.76035
_cell_angle_alpha 88.38342
_cell_angle_beta  91.80573
_cell_angle_gamma 90.01425

_symmetry_space_group_name_	'P 1'
_symmetry_space_group_name_H-M	'P 1'

loop_
_symmetry_equiv_pos_as_xyz
  x,y,z

loop_
_atom_site_label
_atom_site_type_symbol
_atom_site_fract_x
_atom_site_fract_y
_atom_site_fract_z
_atom_site_charge
C 	C 	0.76152 0.17552 0.96223 0.02000
C 	C 	0.77384 0.14583 0.99238 -0.01100
C 	C 	0.76087 0.14122 0.03931 0.01200
C 	C 	0.73836 0.16913 0.05774 -0.01600
C 	C 	0.72840 0.20053 0.02896 0.01200
C 	C 	0.73741 0.20191 0.98006 -0.01400
C 	C 	0.76484 0.16867 0.91252 -0.05800
S 	S 	0.78720 0.11168 0.95775 -0.01000
C 	C 	0.78066 0.12040 0.07593 -0.05600
S 	S 	0.74508 0.16870 0.11739 -0.01100
C 	C 	0.71943 0.23576 0.04712 -0.05500
S 	S 	0.73539 0.24604 0.96104 -0.00400
C 	C 	0.77889 0.13324 0.90414 0.00100
H 	H 	0.75712 0.18858 0.88401 0.04600
C 	C 	0.77393 0.13244 0.12250 -0.00200
H 	H 	0.80332 0.10190 0.06835 0.04400
C 	C 	0.72257 0.26458 0.01257 -0.00700
H 	H 	0.71002 0.23984 0.08326 0.04600
C 	C 	0.66513 0.36824 0.01594 -0.02100
C 	C 	0.69463 0.36044 0.04887 -0.03000
C 	C 	0.71302 0.32629 0.04823 -0.04700
C 	C 	0.70214 0.29980 0.01453 0.00900
C 	C 	0.67202 0.30727 0.98241 -0.04000
C 	C 	0.65365 0.34137 0.98306 -0.02300
H 	H 	0.70359 0.38098 0.07450 0.03400
H 	H 	0.73603 0.32062 0.07343 0.04000
H 	H 	0.66283 0.28668 0.95698 0.04200
H 	H 	0.63060 0.34698 0.95791 0.03800
C 	C 	0.83571 0.11333 0.77431 0.02500
C 	C 	0.79805 0.12320 0.77226 -0.04900
C 	C 	0.77919 0.12843 0.81480 -0.03800
C 	C 	0.79792 0.12406 0.85973 0.00800
C 	C 	0.83549 0.11347 0.86169 -0.03700
C 	C 	0.85423 0.10802 0.81914 -0.04800
H 	H 	0.78358 0.12737 0.73773 0.04200
H 	H 	0.75020 0.13648 0.81285 0.03800
H 	H 	0.85049 0.11054 0.89601 0.04000
H 	H 	0.88337 0.10053 0.82097 0.04300
C 	C 	0.85090 0.11299 0.24100 -0.01500
C 	C 	0.86377 0.12495 0.19601 -0.03000
C 	C 	0.83864 0.13208 0.15750 -0.04700
C 	C 	0.80040 0.12697 0.16359 0.01500
C 	C 	0.78746 0.11615 0.20900 -0.04700
C 	C 	0.81263 0.10912 0.24757 -0.03000
H 	H 	0.89327 0.12829 0.19076 0.03600
H 	H 	0.84888 0.14136 0.12292 0.04000
H 	H 	0.75799 0.11253 0.21418 0.04100
H 	H 	0.80247 0.10001 0.28226 0.03600
C 	C 	0.23814 0.96086 0.04653 0.02700
C 	C 	0.21496 0.98293 0.01558 -0.03100
C 	C 	0.19869 0.96812 0.97378 0.03300
C 	C 	0.20865 0.93227 0.96034 -0.02700
C 	C 	0.23458 0.91143 0.98852 0.03200
C 	C 	0.24680 0.92464 0.03343 -0.03300
C 	C 	0.23813 0.97196 0.09522 -0.05900
S 	S 	0.19453 0.01408 0.04887 -0.01300
C 	C 	0.18446 0.99043 0.93459 -0.06000
S 	S 	0.20127 0.92939 0.90097 -0.00700
C 	C 	0.25775 0.88341 0.97074 -0.05500
S 	S 	0.28618 0.90276 0.04928 -0.01000
C 	C 	0.21492 0.00255 0.10205 -0.00200
H 	H 	0.24950 0.95488 0.12486 0.04600
C 	C 	0.18461 0.97229 0.89058 -0.00000
H 	H 	0.17593 0.01903 0.93785 0.04700
C 	C 	0.28860 0.87565 0.00139 -0.00300
H 	H 	0.25180 0.86893 0.93773 0.04700
C 	C 	0.34839 0.77297 0.99913 0.03200
C 	C 	0.34304 0.79461 0.95669 -0.05400
C 	C 	0.32413 0.82843 0.95770 -0.02600
C 	C 	0.30993 0.84067 0.00104 -0.00300
C 	C 	0.31535 0.81891 0.04353 -0.03100
C 	C 	0.33463 0.78531 0.04255 -0.06000
H 	H 	0.35341 0.78515 0.92294 0.04500
H 	H 	0.32035 0.84504 0.92477 0.03600
H 	H 	0.30402 0.82758 0.07708 0.03700
H 	H 	0.33840 0.76860 0.07539 0.04200
C 	C 	0.15569 0.02427 0.22920 -0.01800
C 	C 	0.16139 0.98757 0.21574 -0.02800
C 	C 	0.18190 0.98024 0.17517 -0.04600
C 	C 	0.19718 0.00963 0.14798 0.01300
C 	C 	0.19233 0.04627 0.16234 -0.04600
C 	C 	0.17164 0.05357 0.20278 -0.02900
H 	H 	0.14908 0.96480 0.23592 0.03400
H 	H 	0.18490 0.95187 0.16403 0.04000
H 	H 	0.20392 0.06913 0.14157 0.04100
H 	H 	0.16741 0.08200 0.21303 0.03700
C 	C 	0.11550 0.00610 0.76902 -0.01500
C 	C 	0.10139 0.00603 0.81555 -0.03200
C 	C 	0.12367 0.99433 0.85520 -0.04400
C 	C 	0.16034 0.98267 0.84868 0.01500
C 	C 	0.17409 0.98176 0.80201 -0.04600
C 	C 	0.15179 0.99352 0.76233 -0.02900
H 	H 	0.07327 0.01531 0.82099 0.03700
H 	H 	0.11248 0.99440 0.89097 0.04200
H 	H 	0.20226 0.97263 0.79658 0.04100
H 	H 	0.16290 0.99343 0.72652 0.03500
Zn	Zn	0.47649 0.58681 0.94429 1.22300
Zn	Zn	0.43025 0.55876 0.04408 1.19200
C 	C 	0.57998 0.50255 0.00124 0.33800
Zn	Zn	0.50823 0.53425 0.02693 1.22000
Zn	Zn	0.55930 0.56869 0.94016 1.19500
H 	H 	0.45238 0.51957 0.97567 0.17700
C 	C 	0.50049 0.59170 0.09561 0.29100
O 	O 	0.54950 0.59539 0.87770 -0.46900
O 	O 	0.50034 0.62989 0.90095 -0.40300
O 	O 	0.46138 0.54248 0.99103 -0.78900
O 	O 	0.40140 0.60072 0.01308 -0.46900
O 	O 	0.47471 0.55404 0.88799 -0.43800
O 	O 	0.43480 0.62199 0.94909 -0.43200
O 	O 	0.52714 0.52192 0.91285 -0.42000
O 	O 	0.44162 0.52688 0.10277 -0.47000
H 	H 	0.52726 0.60575 0.00261 0.16900
O 	O 	0.48534 0.49034 0.06940 -0.41000
O 	O 	0.52131 0.58253 0.98579 -0.78800
O 	O 	0.59136 0.53352 0.98019 -0.46700
O 	O 	0.51873 0.56121 0.08634 -0.44900
O 	O 	0.54445 0.49662 0.00780 -0.44200
O 	O 	0.46943 0.60013 0.07137 -0.42800
C 	C 	0.52751 0.62437 0.87146 0.30000
C 	C 	0.41520 0.62847 0.98736 0.31500
C 	C 	0.49785 0.52609 0.88346 0.32100
C 	C 	0.46197 0.49647 0.10372 0.32600
C 	C 	0.42335 0.32950 0.47907 0.02300
C 	C 	0.39637 0.30358 0.46396 -0.02200
C 	C 	0.36377 0.29862 0.48973 0.02300
C 	C 	0.35995 0.31665 0.53338 -0.02300
C 	C 	0.38841 0.33946 0.55131 0.02300
C 	C 	0.41845 0.34823 0.52209 -0.02400
C 	C 	0.44415 0.34456 0.44054 -0.05900
S 	S 	0.39818 0.30098 0.40443 -0.01100
C 	C 	0.34031 0.26727 0.48522 -0.05900
S 	S 	0.32928 0.29320 0.56589 -0.00900
C 	C 	0.39533 0.34657 0.60082 -0.05900
S 	S 	0.45295 0.36324 0.55769 -0.00900
C 	C 	0.43334 0.33047 0.39564 -0.00100
H 	H 	0.46129 0.36910 0.44406 0.04700
C 	C 	0.31885 0.26053 0.52592 -0.00100
H 	H 	0.33924 0.25007 0.45384 0.04700
C 	C 	0.43127 0.36002 0.61019 -0.00100
H 	H 	0.37471 0.34332 0.62816 0.04700
C 	C 	0.45985 0.42711 0.73054 -0.01400
C 	C 	0.45432 0.38880 0.73732 -0.03000
C 	C 	0.44473 0.36694 0.69797 -0.04700
C 	C 	0.44083 0.38318 0.65158 0.01500
C 	C 	0.44571 0.42161 0.64496 -0.04600
C 	C 	0.45522 0.44345 0.68426 -0.03000
H 	H 	0.45777 0.37594 0.77293 0.03600
H 	H 	0.44068 0.33735 0.70347 0.04100
H 	H 	0.44196 0.43457 0.60946 0.04200
H 	H 	0.45902 0.47307 0.67876 0.03700
C 	C 	0.44828 0.39499 0.26589 -0.01600
C 	C 	0.47915 0.38030 0.29195 -0.03000
C 	C 	0.47416 0.35858 0.33377 -0.04700
C 	C 	0.43828 0.35138 0.34989 0.01500
C 	C 	0.40736 0.36579 0.32344 -0.04600
C 	C 	0.41238 0.38732 0.28150 -0.03000
H 	H 	0.50698 0.38616 0.28016 0.03500
H 	H 	0.49818 0.34769 0.35395 0.04100
H 	H 	0.37954 0.36109 0.33595 0.04200
H 	H 	0.38842 0.39880 0.26178 0.03500
C 	C 	0.21135 0.21000 0.52142 -0.01500
C 	C 	0.22254 0.23288 0.48284 -0.03000
C 	C 	0.25779 0.24899 0.48394 -0.04600
C 	C 	0.28234 0.24215 0.52354 0.01500
C 	C 	0.27128 0.21894 0.56189 -0.04600
C 	C 	0.23593 0.20286 0.56080 -0.03000
H 	H 	0.20375 0.23849 0.45227 0.03700
H 	H 	0.26577 0.26732 0.45444 0.04100
H 	H 	0.28996 0.21356 0.59264 0.04100
H 	H 	0.22747 0.18529 0.59080 0.03600
C 	C 	0.61039 0.76812 0.50116 0.02300
C 	C 	0.62849 0.80028 0.51665 -0.02400
C 	C 	0.64205 0.82621 0.48302 0.02300
C 	C 	0.64026 0.81804 0.43363 -0.02300
C 	C 	0.62629 0.78380 0.41831 0.02300
C 	C 	0.61126 0.75887 0.45248 -0.02300
C 	C 	0.58460 0.75370 0.53441 -0.06000
S 	S 	0.61169 0.81088 0.56968 -0.01000
C 	C 	0.67020 0.85222 0.49487 -0.06000
S 	S 	0.67419 0.84131 0.40697 -0.01100
C 	C 	0.61215 0.77830 0.37069 -0.06000
S 	S 	0.58030 0.73225 0.42411 -0.01100
C 	C 	0.58210 0.77525 0.57542 0.00200
H 	H 	0.56981 0.72782 0.52983 0.04700
C 	C 	0.69048 0.86393 0.45492 0.00200
H 	H 	0.67926 0.85736 0.53167 0.04700
C 	C 	0.58520 0.75026 0.36859 0.00200
H 	H 	0.61900 0.79597 0.34004 0.04600
C 	C 	0.55084 0.68933 0.24489 0.02400
C 	C 	0.58636 0.70526 0.24718 -0.05000
C 	C 	0.59741 0.72606 0.28692 -0.03800
C 	C 	0.57276 0.73150 0.32436 0.00700
C 	C 	0.53669 0.71688 0.32086 -0.03700
C 	C 	0.52583 0.69581 0.28138 -0.04900
H 	H 	0.60574 0.70057 0.21892 0.04000
H 	H 	0.62540 0.73697 0.28922 0.03700
H 	H 	0.51726 0.72135 0.34913 0.03900
H 	H 	0.49822 0.68390 0.27959 0.04100
C 	C 	0.55117 0.72132 0.70710 0.02400
C 	C 	0.52480 0.72675 0.66933 -0.04900
C 	C 	0.53449 0.74592 0.62710 -0.03800
C 	C 	0.57065 0.75971 0.62228 0.00800
C 	C 	0.59667 0.75529 0.66080 -0.03700
C 	C 	0.58689 0.73625 0.70306 -0.04900
H 	H 	0.49713 0.71529 0.67223 0.04300
H 	H 	0.51421 0.74921 0.59764 0.03800
H 	H 	0.62481 0.76536 0.65736 0.03900
H 	H 	0.60742 0.73209 0.73208 0.04100
C 	C 	0.80038 0.90753 0.47114 0.02400
C 	C 	0.79060 0.87497 0.49646 -0.04900
C 	C 	0.75501 0.86006 0.49023 -0.03800
C 	C 	0.72882 0.87788 0.45894 0.00800
C 	C 	0.73900 0.90981 0.43255 -0.03700
C 	C 	0.77462 0.92468 0.43876 -0.04800
H 	H 	0.81043 0.86147 0.52133 0.04100
H 	H 	0.74769 0.83492 0.51001 0.03900
H 	H 	0.71909 0.92354 0.40802 0.03900
H 	H 	0.78203 0.94980 0.41899 0.04400
Zn	Zn	0.01952 0.09526 0.45807 1.22200
Zn	Zn	0.99352 0.13684 0.56044 1.19300
C 	C 	0.93482 0.99086 0.49819 0.31900
Zn	Zn	0.96773 0.06028 0.53563 1.22200
Zn	Zn	0.00273 0.01258 0.44790 1.19300
H 	H 	0.95298 0.11848 0.48787 0.17500
C 	C 	0.02539 0.06407 0.60903 0.32200
O 	O 	0.02949 0.02434 0.38796 -0.47900
O 	O 	0.06277 0.07361 0.41626 -0.41100
O 	O 	0.97602 0.10851 0.50374 -0.79100
O 	O 	0.03661 0.16565 0.53592 -0.46500
O 	O 	0.98616 0.09885 0.39991 -0.44300
O 	O 	0.05350 0.13745 0.46725 -0.43900
O 	O 	0.95553 0.04487 0.41861 -0.42400
O 	O 	0.96147 0.12328 0.61544 -0.46000
H 	H 	0.03981 0.04341 0.51429 0.17200
O 	O 	0.92392 0.08186 0.57640 -0.39900
O 	O 	0.01609 0.04915 0.49674 -0.79700
O 	O 	0.96736 0.97996 0.48356 -0.46800
O 	O 	0.99438 0.04707 0.59671 -0.44100
O 	O 	0.92953 0.02528 0.51119 -0.43400
O 	O 	0.03426 0.09576 0.58762 -0.43200
C 	C 	0.05777 0.04728 0.38495 0.33100
C 	C 	0.06259 0.15245 0.50874 0.33200
C 	C 	0.95886 0.07530 0.39164 0.32200
C 	C 	0.92990 0.10496 0.61167 0.29600
C 	C 	0.90272 0.96567 0.49447 -0.07100
C 	C 	0.87417 0.96787 0.52742 -0.00200
C 	C 	0.84150 0.94763 0.52054 -0.03800
C 	C 	0.83687 0.92492 0.48061 -0.03100
C 	C 	0.86633 0.92104 0.44845 0.07600
C 	C 	0.89905 0.94171 0.45560 -0.04100
H 	H 	0.81928 0.95036 0.54561 0.04000
H 	H 	0.92119 0.93983 0.43020 0.04000
H 	H 	0.87697 0.98591 0.55790 0.03900
N 	N 	0.86341 0.89765 0.41091 -0.19600
H 	H 	0.84019 0.88071 0.40585 0.08600
H 	H 	0.88497 0.89560 0.38680 0.07900
C 	C 	0.17341 0.19469 0.52129 0.05800
C 	C 	0.14286 0.21863 0.52236 -0.09300
C 	C 	0.10682 0.20454 0.51952 0.05000
C 	C 	0.10079 0.16624 0.51579 -0.14500
C 	C 	0.13159 0.14168 0.51660 0.14800
C 	C 	0.16778 0.15630 0.51869 -0.12500
H 	H 	0.08349 0.22351 0.51917 0.02200
H 	H 	0.19150 0.13780 0.51833 0.06200
H 	H 	0.14707 0.24829 0.52475 0.05200
N 	N 	0.12664 0.10425 0.51639 -0.20400
H 	H 	0.10029 0.09239 0.51866 0.07300
H 	H 	0.14950 0.08646 0.51555 0.08200
C 	C 	0.45360 0.42053 0.22435 0.05800
C 	C 	0.44456 0.40927 0.17755 -0.09400
C 	C 	0.44813 0.43401 0.13832 0.04500
C 	C 	0.46053 0.47041 0.14544 -0.14800
C 	C 	0.47074 0.48163 0.19266 0.15200
C 	C 	0.46676 0.45655 0.23180 -0.12900
H 	H 	0.44065 0.42507 0.10236 0.01500
H 	H 	0.47395 0.46508 0.26807 0.06200
H 	H 	0.43450 0.38139 0.17161 0.05100
N 	N 	0.48501 0.51596 0.20052 -0.21000
H 	H 	0.49047 0.53444 0.17211 0.10200
H 	H 	0.49179 0.52414 0.23553 0.08400
C 	C 	0.47122 0.45008 0.77164 0.05800
C 	C 	0.44717 0.45484 0.80966 -0.09200
C 	C 	0.45662 0.47891 0.84665 0.04800
C 	C 	0.49018 0.49867 0.84607 -0.14200
C 	C 	0.51498 0.49348 0.80802 0.15000
C 	C 	0.50535 0.46874 0.77145 -0.12600
H 	H 	0.43754 0.48266 0.87554 0.01200
H 	H 	0.52406 0.46472 0.74219 0.06200
H 	H 	0.42079 0.44041 0.81008 0.05100
N 	N 	0.54738 0.51277 0.80561 -0.20700
H 	H 	0.55477 0.53257 0.83079 0.08800
H 	H 	0.56545 0.50846 0.77757 0.08200
C 	C 	0.51544 0.61703 0.13232 -0.06900
C 	C 	0.50520 0.65461 0.13075 -0.01200
C 	C 	0.51769 0.67814 0.16693 -0.03800
C 	C 	0.54035 0.66444 0.20541 -0.03500
C 	C 	0.55129 0.62660 0.20695 0.07700
C 	C 	0.53916 0.60338 0.16983 -0.05100
H 	H 	0.50931 0.70703 0.16544 0.03600
H 	H 	0.54754 0.57448 0.17083 0.04900
H 	H 	0.48747 0.66564 0.10151 0.03400
N 	N 	0.57282 0.61232 0.24414 -0.19700
H 	H 	0.58154 0.62847 0.27298 0.08600
H 	H 	0.58080 0.58443 0.24476 0.08000
C 	C 	0.53171 0.64927 0.82902 -0.06600
C 	C 	0.54404 0.63509 0.78582 -0.00700
C 	C 	0.54941 0.65871 0.74601 -0.03700
C 	C 	0.54259 0.69687 0.74873 -0.03300
C 	C 	0.52923 0.71137 0.79186 0.07800
C 	C 	0.52391 0.68729 0.83179 -0.04800
H 	H 	0.55937 0.64741 0.71304 0.03800
H 	H 	0.51420 0.69825 0.86513 0.04900
H 	H 	0.54950 0.60568 0.78306 0.03800
N 	N 	0.52149 0.74814 0.79516 -0.19600
H 	H 	0.52443 0.76662 0.76590 0.08700
H 	H 	0.51197 0.75859 0.82728 0.08200
C 	C 	0.13103 0.03213 0.26892 0.05900
C 	C 	0.14378 0.02717 0.31683 -0.09500
C 	C 	0.12001 0.03339 0.35455 0.04700
C 	C 	0.08315 0.04447 0.34479 -0.15100
C 	C 	0.07048 0.05087 0.29637 0.15300
C 	C 	0.09453 0.04405 0.25875 -0.13000
H 	H 	0.13001 0.02883 0.39147 0.01300
H 	H 	0.08491 0.04827 0.22158 0.06200
H 	H 	0.17204 0.01814 0.32484 0.05100
N 	N 	0.03579 0.06431 0.28589 -0.21000
H 	H 	0.01859 0.07307 0.31290 0.10200
H 	H 	0.02620 0.06751 0.25009 0.08500
C 	C 	0.09274 0.02059 0.72757 0.05400
C 	C 	0.08203 0.05795 0.72534 -0.09100
C 	C 	0.06053 0.07186 0.68624 0.04600
C 	C 	0.04952 0.04868 0.64860 -0.14300
C 	C 	0.06119 0.01099 0.64995 0.14100
C 	C 	0.08212 0.99714 0.69014 -0.12000
H 	H 	0.05198 0.10070 0.68544 0.02000
H 	H 	0.09068 0.96828 0.69183 0.05900
H 	H 	0.09035 0.07625 0.75403 0.05200
N 	N 	0.05360 0.98845 0.61241 -0.20400
H 	H 	0.04199 0.99870 0.57986 0.06900
H 	H 	0.06102 0.96041 0.61474 0.07700
C 	C 	0.39850 0.66548 0.99117 -0.07200
C 	C 	0.36023 0.66913 0.99746 0.01100
C 	C 	0.34430 0.70424 0.00042 -0.05800
C 	C 	0.36639 0.73622 0.99754 -0.02200
C 	C 	0.40527 0.73275 0.99222 0.07400
C 	C 	0.42089 0.69725 0.98830 -0.04000
H 	H 	0.31460 0.70665 0.00458 0.04000
H 	H 	0.45054 0.69435 0.98386 0.04100
H 	H 	0.34269 0.64476 0.99933 0.03400
N 	N 	0.42770 0.76312 0.99171 -0.19500
H 	H 	0.41737 0.78963 0.99742 0.08700
H 	H 	0.45619 0.76030 0.98674 0.08100
C 	C 	0.87758 0.10247 0.28027 0.05800
C 	C 	0.88347 0.12586 0.31919 -0.09400
C 	C 	0.90996 0.11668 0.35540 0.04800
C 	C 	0.93083 0.08393 0.35322 -0.14500
C 	C 	0.92494 0.06009 0.31382 0.14800
C 	C 	0.89799 0.06954 0.27789 -0.12700
H 	H 	0.91428 0.13506 0.38529 0.01200
H 	H 	0.89333 0.05153 0.24764 0.06100
H 	H 	0.86774 0.15135 0.32117 0.05100
N 	N 	0.94552 0.02876 0.30962 -0.20800
H 	H 	0.96716 0.02187 0.33403 0.08800
H 	H 	0.94052 0.01122 0.28078 0.08200
C 	C 	0.90280 0.10755 0.65009 -0.06400
C 	C 	0.89804 0.14119 0.67323 -0.00800
C 	C 	0.87504 0.14305 0.71257 -0.03700
C 	C 	0.85655 0.11129 0.72955 -0.03300
C 	C 	0.86008 0.07743 0.70530 0.07900
C 	C 	0.88328 0.07591 0.66557 -0.04500
H 	H 	0.87219 0.16911 0.73067 0.03700
H 	H 	0.88678 0.04989 0.64755 0.05300
H 	H 	0.91258 0.16588 0.66108 0.02600
N 	N 	0.84158 0.04643 0.72002 -0.19600
H 	H 	0.82363 0.04679 0.74879 0.08700
H 	H 	0.84472 0.02151 0.70222 0.08300
C 	C 	0.64676 0.40480 0.01503 0.05300
C 	C 	0.64896 0.42837 0.97424 -0.08900
C 	C 	0.62885 0.46148 0.97126 0.05800
C 	C 	0.60631 0.47153 0.00912 -0.15800
C 	C 	0.60616 0.44915 0.05198 0.15300
C 	C 	0.62586 0.41544 0.05411 -0.12700
H 	H 	0.62955 0.47859 0.93858 0.01600
H 	H 	0.62486 0.39753 0.08609 0.06200
H 	H 	0.66553 0.42054 0.94425 0.05200
N 	N 	0.58806 0.46027 0.09136 -0.20600
H 	H 	0.57684 0.48691 0.09287 0.08700
H 	H 	0.58664 0.44284 0.12198 0.08700
