data_crystal

_cell_length_a 16.39197
_cell_length_b 17.33638
_cell_length_c 46.84799
_cell_angle_alpha 90.25456
_cell_angle_beta  90.25345
_cell_angle_gamma 119.38719

_symmetry_space_group_name_	'P 1'
_symmetry_space_group_name_H-M	'P 1'

loop_
_symmetry_equiv_pos_as_xyz
  x,y,z

loop_
_atom_site_label
_atom_site_type_symbol
_atom_site_fract_x
_atom_site_fract_y
_atom_site_fract_z
_atom_site_charge
C 	C 	0.17345 0.07862 0.73176 0.36100
C 	C 	0.20552 0.08716 0.80759 0.34000
Ni	Ni	0.05340 0.09616 0.77227 1.13300
Ni	Ni	0.08415 0.92807 0.77316 1.13100
O 	O 	0.09744 0.08486 0.73378 -0.35200
O 	O 	0.16544 0.99941 0.80595 -0.35000
O 	O 	0.18152 0.13418 0.79033 -0.37200
O 	O 	0.18191 0.01805 0.74647 -0.34400
O 	O 	0.10409 0.56469 0.38572 -0.33100
O 	O 	0.13152 0.55293 0.15508 -0.31600
C 	C 	0.13986 0.97451 0.23954 0.31900
C 	C 	0.05315 0.21101 0.31403 0.37700
C 	C 	0.13523 0.98878 0.31182 0.33300
C 	C 	0.06417 0.21628 0.23490 0.35100
Ni	Ni	0.14020 0.12945 0.27446 1.12300
O 	O 	0.19028 0.05564 0.25100 -0.30600
O 	O 	0.04784 0.93574 0.23730 -0.35500
O 	O 	0.12693 0.22544 0.29872 -0.33100
O 	O 	0.14252 0.06756 0.31192 -0.32700
O 	O 	0.07416 0.92466 0.29511 -0.36200
O 	O 	0.13402 0.19892 0.23892 -0.30800
H 	H 	0.01547 0.05024 0.24649 0.17600
C 	C 	0.14205 0.35158 0.16754 -0.07500
C 	C 	0.07146 0.27705 0.21176 -0.10200
C 	C 	0.12040 0.28256 0.18665 0.36100
H 	H 	0.18394 0.35805 0.14893 0.11900
C 	C 	0.14832 0.83480 0.24049 -0.08500
C 	C 	0.18628 0.92295 0.23135 -0.10800
C 	C 	0.17473 0.77763 0.22738 0.35600
F 	F 	0.13156 0.69096 0.23481 -0.39600
H 	H 	0.09463 0.80930 0.25670 0.10500
C 	C 	0.06877 0.44212 0.35325 -0.11700
C 	C 	0.04114 0.36518 0.36952 0.34000
C 	C 	0.03220 0.28804 0.35652 -0.07400
C 	C 	0.05017 0.28744 0.32725 -0.12800
F 	F 	0.03124 0.36749 0.39819 -0.42400
C 	C 	0.20892 0.98023 0.35761 0.33200
F 	F 	0.16022 0.01246 0.37199 -0.40100
C 	C 	0.07249 0.48691 0.52227 0.01700
C 	C 	0.02532 0.42027 0.50129 0.10200
C 	C 	0.07379 0.41904 0.47654 -0.00900
C 	C 	0.16632 0.48674 0.47206 -0.05400
C 	C 	0.16947 0.53992 0.52049 -0.04500
H 	H 	0.03593 0.37287 0.45939 0.11500
H 	H 	0.20781 0.58826 0.53704 0.09500
O 	O 	0.11323 0.42693 0.57941 -0.05400
C 	C 	0.10310 0.36886 0.01904 0.02600
H 	H 	0.07402 0.27522 0.96943 0.09600
C 	C 	0.15730 0.36605 0.04197 0.07700
C 	C 	0.17422 0.52844 0.02501 0.13300
C 	C 	0.11802 0.45117 0.00925 -0.06300
N 	N 	0.15211 0.28413 0.05004 -0.01500
N 	N 	0.18226 0.61075 0.01613 -0.02400
H 	H 	0.07986 0.45417 0.99071 0.09300
O 	O 	0.10745 0.61784 0.01263 -0.06400
N 	N 	0.12409 0.50590 0.58300 -0.01600
O 	O 	0.19515 0.56461 0.59773 -0.06800
C 	C 	0.01103 0.25887 0.98129 -0.04500
O 	O 	0.14135 0.26060 0.07669 -0.04700
O 	O 	0.16097 0.59338 0.44154 -0.33300
C 	C 	0.05339 0.52546 0.57315 0.05100
O 	O 	0.11778 0.04853 0.05891 -0.03500
O 	O 	0.14903 0.69718 0.48711 -0.08200
O 	O 	0.06463 0.90748 0.04482 -0.06400
H 	H 	0.01582 0.23060 0.36943 0.11900
C 	C 	0.01773 0.28792 0.00962 0.05600
O 	O 	0.16176 0.23470 0.03088 -0.06300
C 	C 	0.06971 0.43536 0.32342 -0.08200
C 	C 	0.11708 0.41673 0.17374 -0.10800
O 	O 	0.26382 0.67680 0.00976 -0.06200
H 	H 	0.25601 0.94549 0.39592 0.10500
C 	C 	0.03391 0.33409 0.21550 -0.03100
C 	C 	0.20431 0.97443 0.32770 -0.11500
C 	C 	0.21714 0.53747 0.49626 0.10900
C 	C 	0.21273 0.44324 0.05795 0.00400
C 	C 	0.18643 0.53191 0.44418 0.28600
C 	C 	0.13207 0.52910 0.36623 0.35700
Ni	Ni	0.19957 0.68035 0.40814 1.12100
O 	O 	0.21291 0.50086 0.42132 -0.32700
C 	C 	0.17125 0.50486 0.16099 0.35100
Ni	Ni	0.18864 0.65709 0.12593 1.12200
O 	O 	0.18847 0.73495 0.15945 -0.34600
O 	O 	0.17736 0.56715 0.09488 -0.35000
O 	O 	0.21996 0.75625 0.09560 -0.34600
C 	C 	0.05754 0.40429 0.19676 0.34800
C 	C 	0.23889 0.80794 0.20486 -0.10400
H 	H 	0.08671 0.49290 0.31046 0.12700
C 	C 	0.25839 0.94666 0.37281 -0.07900
N 	N 	0.20141 0.73644 0.50928 -0.02400
O 	O 	0.16424 0.71908 0.53456 -0.07900
F 	F 	0.17917 0.15084 0.67683 -0.40500
C 	C 	0.21558 0.52312 0.05079 -0.08100
H 	H 	0.24698 0.43943 0.07730 0.07100
C 	C 	0.21028 0.91107 0.08116 0.00100
N 	N 	0.12986 0.98001 0.05650 -0.02300
H 	H 	0.14432 0.84991 0.08255 0.08100
F 	F 	0.35020 0.04218 0.80717 -0.41800
C 	C 	0.21412 0.98404 0.06707 0.05400
O 	O 	0.24671 0.75619 0.37184 -0.35100
O 	O 	0.21961 0.56629 0.36034 -0.37800
O 	O 	0.25687 0.79461 0.43416 -0.35100
C 	C 	0.23614 0.74436 0.18332 0.33000
C 	C 	0.23556 0.58882 0.07350 0.32100
O 	O 	0.26529 0.68685 0.19006 -0.31600
O 	O 	0.26080 0.53656 0.15707 -0.37300
F 	F 	0.02870 0.46403 0.20232 -0.38900
C 	C 	0.25847 0.95587 0.21122 0.33600
C 	C 	0.28509 0.89860 0.19820 -0.08000
F 	F 	0.29801 0.04139 0.20270 -0.39400
C 	C 	0.25788 0.94404 0.31314 -0.08700
C 	C 	0.30188 0.90573 0.35821 -0.12200
H 	H 	0.25839 0.94324 0.29004 0.10400
N 	N 	0.31582 0.59487 0.49529 -0.02600
O 	O 	0.25145 0.34960 0.49508 -0.06900
C 	C 	0.25864 0.15420 0.72026 -0.12100
C 	C 	0.25886 0.18647 0.69280 0.35400
O 	O 	0.30386 0.10045 0.93560 -0.05400
C 	C 	0.29079 0.13479 0.82503 -0.11400
C 	C 	0.35907 0.10804 0.82492 0.35300
H 	H 	0.23836 0.99937 0.00849 0.08800
C 	C 	0.29290 0.91597 0.09191 -0.07200
C 	C 	0.31555 0.83839 0.37296 0.35200
C 	C 	0.32259 0.81435 0.45385 0.31400
Ni	Ni	0.31203 0.57706 0.39012 1.12500
O 	O 	0.31417 0.67694 0.40782 -0.70800
H 	H 	0.31947 0.66442 0.42784 0.15000
C 	C 	0.29833 0.83418 0.09613 0.29600
O 	O 	0.30322 0.67102 0.07054 -0.34900
O 	O 	0.31814 0.70267 0.13271 -0.71400
H 	H 	0.33627 0.92317 0.18131 0.10900
C 	C 	0.30633 0.90963 0.32832 0.35100
C 	C 	0.32017 0.85810 0.48046 -0.07700
C 	C 	0.29501 0.80826 0.50565 0.12700
O 	O 	0.34870 0.66649 0.48028 -0.11200
O 	O 	0.36780 0.58975 0.51543 -0.09200
N 	N 	0.33510 0.36411 0.48895 -0.01800
H 	H 	0.33836 0.47289 0.44943 0.06900
O 	O 	0.34998 0.29767 0.48517 -0.05800
O 	O 	0.30945 0.27083 0.60297 -0.05000
C 	C 	0.34049 0.19512 0.73701 -0.08000
H 	H 	0.34033 0.17356 0.75867 0.12100
C 	C 	0.29134 0.06861 0.00958 -0.05000
C 	C 	0.31774 0.11263 0.03610 0.02800
C 	C 	0.30193 0.05949 0.06228 0.04600
O 	O 	0.33011 0.24593 0.07834 -0.05500
C 	C 	0.30415 0.20688 0.84202 -0.07900
H 	H 	0.25262 0.22885 0.84189 0.11400
C 	C 	0.02052 0.50737 0.54453 0.08000
Ni	Ni	0.35578 0.66368 0.16552 1.13800
H 	H 	0.33446 0.76278 0.13899 0.16000
F 	F 	0.35115 0.87341 0.31390 -0.41900
C 	C 	0.38067 0.94960 0.48286 0.00700
C 	C 	0.35774 0.83849 0.52885 -0.06600
H 	H 	0.34936 0.79382 0.54608 0.09700
O 	O 	0.36231 0.83102 0.60696 -0.07100
O 	O 	0.32982 0.92885 0.58555 -0.07000
N 	N 	0.36622 0.35204 0.59552 -0.02500
O 	O 	0.36174 0.41687 0.60811 -0.06300
C 	C 	0.34299 0.25206 0.68112 -0.08500
H 	H 	0.34417 0.27154 0.65915 0.12300
C 	C 	0.38132 0.20442 0.03674 0.07100
C 	C 	0.34069 0.11067 0.98494 0.12700
N 	N 	0.39940 0.25363 0.06288 -0.01600
N 	N 	0.31624 0.06392 0.95820 -0.01900
C 	C 	0.37481 0.99935 0.09360 0.10500
C 	C 	0.38000 0.06984 0.07793 -0.05000
H 	H 	0.39276 0.99161 0.46450 0.07200
O 	O 	0.30306 0.98365 0.95666 -0.07500
C 	C 	0.43670 0.14931 0.84310 -0.07400
O 	O 	0.38457 0.86355 0.39198 -0.35200
O 	O 	0.40119 0.81438 0.44783 -0.35900
Ni	Ni	0.40200 0.73485 0.10145 1.12700
O 	O 	0.38172 0.83904 0.09448 -0.34600
N 	N 	0.38778 0.89952 0.59066 -0.02300
C 	C 	0.40905 0.45275 0.48446 0.07000
C 	C 	0.40017 0.50299 0.46295 0.00300
H 	H 	0.38832 0.45401 0.55049 0.09900
O 	O 	0.44308 0.98583 0.13667 -0.09100
H 	H 	0.40472 0.47248 0.08751 0.07600
O 	O 	0.41988 0.41551 0.03876 -0.08000
C 	C 	0.38226 0.24860 0.86006 0.35700
O 	O 	0.00822 0.86294 0.73842 -0.31800
H 	H 	0.01337 0.98177 0.80241 0.17100
F 	F 	0.39188 0.31525 0.87756 -0.42500
Ni	Ni	0.43134 0.78309 0.40935 1.12800
O 	O 	0.42069 0.58300 0.41068 -0.37100
O 	O 	0.40473 0.63316 0.35821 -0.34600
O 	O 	0.41014 0.62462 0.10330 -0.38900
C 	C 	0.43022 0.92701 0.52969 0.04000
C 	C 	0.43444 0.98494 0.50782 0.05100
C 	C 	0.42965 0.36954 0.57241 0.13500
C 	C 	0.43327 0.42448 0.55009 -0.06500
C 	C 	0.42722 0.28418 0.69659 -0.11700
C 	C 	0.42386 0.26135 0.72544 0.35400
C 	C 	0.43338 0.24557 0.01229 -0.00300
C 	C 	0.41748 0.19685 0.98695 -0.07200
N 	N 	0.45396 0.01156 0.11025 -0.00400
H 	H 	0.44678 0.12981 0.07602 0.09500
O 	O 	0.48507 0.30367 0.07173 -0.08800
C 	C 	0.44768 0.21844 0.86114 -0.11500
H 	H 	0.48739 0.12632 0.84362 0.11400
C 	C 	0.48981 0.22887 0.96503 0.30100
O 	O 	0.49104 0.28567 0.94581 -0.32800
O 	O 	0.49504 0.26826 0.61774 -0.35200
C 	C 	0.48345 0.70852 0.36133 0.35200
C 	C 	0.46062 0.63493 0.43260 0.31600
O 	O 	0.48173 0.77846 0.37114 -0.36400
O 	O 	0.49584 0.72287 0.43074 -0.32500
C 	C 	0.45772 0.61134 0.12316 0.31300
O 	O 	0.45588 0.78937 0.16930 -0.35500
O 	O 	0.45292 0.63206 0.15010 -0.31800
C 	C 	0.50488 0.95759 0.55205 0.00900
C 	C 	0.48274 0.94884 0.58140 0.07500
N 	N 	0.49281 0.07884 0.51091 -0.01000
O 	O 	0.48781 0.11890 0.53384 -0.07400
C 	C 	0.48815 0.49025 0.50234 0.03500
C 	C 	0.46941 0.59169 0.45866 -0.07300
C 	C 	0.49265 0.43924 0.52682 0.03000
C 	C 	0.49258 0.33645 0.57292 -0.07400
F 	F 	0.50379 0.29608 0.74127 -0.40400
H 	H 	0.48984 0.31348 0.01350 0.07700
O 	O 	0.53738 0.05113 0.09929 -0.06800
C 	C 	0.47944 0.50968 0.09146 0.00300
N 	N 	0.50501 0.48051 0.04189 -0.01600
O 	O 	0.54956 0.52574 0.01959 -0.07900
O 	O 	0.00163 0.10888 0.80977 -0.34600
O 	O 	0.00433 0.97554 0.78156 -0.71500
H 	H 	0.03545 0.75747 0.85455 0.14100
C 	C 	0.51882 0.24975 0.88378 0.35500
O 	O 	0.53787 0.18606 0.96133 -0.34800
O 	O 	0.51214 0.19394 0.90374 -0.35600
C 	C 	0.51390 0.30985 0.68090 0.36500
C 	C 	0.53675 0.33721 0.60009 0.30300
Ni	Ni	0.56390 0.21571 0.64019 1.12700
O 	O 	0.55201 0.38210 0.66526 -0.35400
O 	O 	0.54201 0.25177 0.67845 -0.36600
C 	C 	0.53061 0.81889 0.15327 0.34100
O 	O 	0.52352 0.80948 0.12479 -0.35900
F 	F 	0.53960 0.71530 0.19815 -0.44100
C 	C 	0.56475 0.72399 0.34442 -0.11200
H 	H 	0.50111 0.72325 0.30394 0.12700
C 	C 	0.55365 0.99764 0.60140 -0.02400
H 	H 	0.53575 0.99379 0.62378 0.07600
O 	O 	0.54788 0.12480 0.49029 -0.06800
H 	H 	0.03311 0.56549 0.61477 0.07600
C 	C 	0.55862 0.57865 0.49826 -0.06600
C 	C 	0.54997 0.62947 0.47625 0.14000
C 	C 	0.54333 0.39304 0.52504 0.07500
C 	C 	0.54150 0.34047 0.54797 0.00200
H 	H 	0.58617 0.31064 0.54760 0.07800
O 	O 	0.55824 0.37999 0.47520 -0.06200
C 	C 	0.54094 0.51357 0.07012 0.06700
C 	C 	0.51320 0.56865 0.11472 -0.07600
O 	O 	0.00717 0.81847 0.79847 -0.33000
C 	C 	0.56624 0.74453 0.31547 -0.08000
O 	O 	0.57318 0.33507 0.88754 -0.33900
N 	N 	0.59783 0.40043 0.50029 -0.01500
C 	C 	0.59960 0.00606 0.54408 -0.04400
O 	O 	0.60071 0.17921 0.60406 -0.36600
H 	H 	0.61907 0.00471 0.52209 0.09500
O 	O 	0.63430 0.78023 0.48994 -0.07000
O 	O 	0.60702 0.41410 0.60873 -0.36000
Ni	Ni	0.61277 0.38919 0.92807 1.12600
N 	N 	0.62281 0.71833 0.47193 -0.02400
H 	H 	0.61968 0.60786 0.51213 0.09700
C 	C 	0.60956 0.60903 0.12147 0.12500
C 	C 	0.61961 0.84161 0.16770 -0.12400
O 	O 	0.60555 0.13604 0.66127 -0.35900
C 	C 	0.61898 0.79025 0.19103 0.36900
O 	O 	0.60689 0.60674 0.17184 -0.04500
F 	F 	0.64936 0.72387 0.38616 -0.42600
H 	H 	0.60201 0.02608 0.71466 0.11800
C 	C 	0.63833 0.55864 0.07585 0.03000
C 	C 	0.64970 0.74831 0.35867 0.33900
Ni	Ni	0.62224 0.20612 0.92747 1.12800
C 	C 	0.63892 0.06782 0.59200 -0.05100
C 	C 	0.65091 0.80261 0.30250 0.35400
F 	F 	0.65062 0.82853 0.27523 -0.42700
N 	N 	0.64378 0.65077 0.14862 -0.02400
O 	O 	0.66134 0.45437 0.96669 -0.34600
O 	O 	0.67721 0.30471 0.02530 -0.09700
C 	C 	0.66740 0.06239 0.56410 0.11800
H 	H 	0.68080 0.42691 0.06908 0.09200
C 	C 	0.67161 0.60324 0.10202 -0.06800
C 	C 	0.00835 0.55282 0.59283 0.04500
C 	C 	0.66575 0.15558 0.60405 0.29800
O 	O 	0.68486 0.71691 0.03888 -0.07700
H 	H 	0.67347 0.32466 0.95689 0.16400
O 	O 	0.68394 0.41717 0.50324 -0.06600
O 	O 	0.67922 0.32889 0.93598 -0.72000
Ni	Ni	0.67668 0.42711 0.64484 1.12800
O 	O 	0.68207 0.73608 0.45128 -0.03900
O 	O 	0.68007 0.32162 0.63564 -0.71300
H 	H 	0.68327 0.32637 0.61472 0.17200
C 	C 	0.67748 0.16735 0.67908 0.35500
C 	C 	0.69782 0.81891 0.20829 -0.08200
C 	C 	0.70108 0.92144 0.16183 -0.06500
H 	H 	0.69558 0.77853 0.22617 0.14000
H 	H 	0.70261 0.96151 0.14394 0.10800
C 	C 	0.70951 0.47675 0.05260 -0.06800
C 	C 	0.70465 0.55486 0.05529 0.02600
C 	C 	0.67343 0.04648 0.70859 -0.07400
H 	H 	0.69346 0.54580 0.85258 0.11700
O 	O 	0.69111 0.22349 0.89095 -0.38400
C 	C 	0.73474 0.80597 0.34568 -0.07700
F 	F 	0.68325 0.95648 0.74535 -0.42200
O 	O 	0.71784 0.50643 0.91081 -0.35400
C 	C 	0.73501 0.83806 0.31826 -0.13000
O 	O 	0.72155 0.72578 0.15014 -0.08500
H 	H 	0.69772 0.07339 0.87991 0.10700
O 	O 	0.71428 0.18250 0.95070 -0.35300
C 	C 	0.74621 0.46054 0.02778 0.11600
H 	H 	0.74556 0.63385 0.10721 0.08800
C 	C 	0.71752 0.11110 0.68760 -0.12500
N 	N 	0.75273 0.38169 0.02532 -0.02600
O 	O 	0.73163 0.25218 0.68093 -0.33700
C 	C 	0.74838 0.48333 0.97575 0.29600
O 	O 	0.73465 0.43424 0.68326 -0.35400
C 	C 	0.75125 0.62295 0.03522 0.06800
C 	C 	0.72436 0.01401 0.72360 0.35700
O 	O 	0.74355 0.19813 0.62009 -0.29400
N 	N 	0.75923 0.70814 0.03956 -0.01700
F 	F 	0.14870 0.22245 0.18105 -0.39700
N 	N 	0.76353 0.11565 0.55585 -0.02200
F 	F 	0.74303 0.97676 0.84783 -0.41400
F 	F 	0.74942 0.67113 0.81463 -0.41800
C 	C 	0.77229 0.51995 0.00486 -0.07300
O 	O 	0.74825 0.53093 0.56609 -0.08400
C 	C 	0.77488 0.90321 0.20461 -0.09100
C 	C 	0.77841 0.95288 0.18043 0.32600
H 	H 	0.79962 0.82994 0.35759 0.10900
O 	O 	0.78535 0.12949 0.52897 -0.05900
C 	C 	0.78486 0.60501 0.00993 0.00100
C 	C 	0.76182 0.11095 0.86804 -0.07100
C 	C 	0.76807 0.59181 0.85307 -0.06900
C 	C 	0.78412 0.51060 0.89419 0.35700
C 	C 	0.78656 0.23994 0.96679 0.31200
H 	H 	0.78521 0.20054 0.02340 0.08100
C 	C 	0.78081 0.24957 0.89052 0.36000
C 	C 	0.82059 0.91335 0.30705 0.35400
Ni	Ni	0.79042 0.31825 0.64394 1.13800
O 	O 	0.81396 0.97600 0.29316 -0.35500
C 	C 	0.79283 0.06637 0.84989 0.35300
H 	H 	0.81084 0.65372 0.99306 0.07800
Ni	Ni	0.81137 0.39156 0.93305 1.13100
O 	O 	0.81449 0.32564 0.96748 -0.37000
O 	O 	0.81587 0.49249 0.95785 -0.33900
O 	O 	0.83445 0.38663 0.02566 -0.08300
O 	O 	0.81254 0.45216 0.89610 -0.34100
O 	O 	0.80560 0.50184 0.62514 -0.35200
C 	C 	0.80614 0.66222 0.83397 0.34200
F 	F 	0.81295 0.47310 0.74579 -0.40400
C 	C 	0.81048 0.13644 0.67988 0.35500
C 	C 	0.81441 0.20343 0.87140 -0.11700
O 	O 	0.82983 0.14361 0.57502 -0.04900
C 	C 	0.81939 0.04551 0.71735 -0.11600
C 	C 	0.82584 0.58096 0.87286 -0.12200
C 	C 	0.82440 0.46512 0.68550 0.36000
C 	C 	0.84108 0.94481 0.22853 0.32100
O 	O 	0.84512 0.11225 0.93050 -0.07300
O 	O 	0.84154 0.77799 0.04166 -0.07600
C 	C 	0.06606 0.36071 0.31059 0.35500
C 	C 	0.84474 0.21008 0.98177 -0.07400
O 	O 	0.83916 0.30880 0.90916 -0.34000
F 	F 	0.85498 0.03274 0.17560 -0.40600
F 	F 	0.08438 0.36224 0.28237 -0.42400
O 	O 	0.85367 0.89188 0.24654 -0.36400
N 	N 	0.82035 0.55433 0.54969 -0.02400
O 	O 	0.01345 0.04754 0.26748 -0.69600
O 	O 	0.84240 0.39586 0.60853 -0.35500
O 	O 	0.82763 0.59791 0.52642 -0.07200
C 	C 	0.84490 0.47285 0.60578 0.31000
O 	O 	0.00252 0.20075 0.25536 -0.33100
C 	C 	0.84799 0.21541 0.01164 0.00700
O 	O 	0.84911 0.99577 0.80101 -0.30100
O 	O 	0.86229 0.02662 0.23601 -0.33100
F 	F 	0.85566 0.20048 0.66021 -0.46700
C 	C 	0.85713 0.54951 0.73081 0.35700
H 	H 	0.85313 0.62911 0.76557 0.12800
O 	O 	0.86599 0.43584 0.66801 -0.34600
C 	C 	0.86043 0.10323 0.69461 -0.08100
O 	O 	0.86005 0.94595 0.74023 -0.34600
O 	O 	0.86525 0.78882 0.75934 -0.32500
O 	O 	0.87123 0.33008 0.48337 -0.06700
C 	C 	0.87323 0.62900 0.74357 -0.08800
Ni	Ni	0.87438 0.90126 0.77967 1.12800
C 	C 	0.87617 0.11421 0.83451 -0.09900
C 	C 	0.87921 0.54748 0.70194 -0.12400
C 	C 	0.87858 0.02762 0.73666 0.36600
O 	O 	0.89239 0.84733 0.81671 -0.32600
O 	O 	0.89912 0.91096 0.30747 -0.39100
C 	C 	0.89367 0.53588 0.55776 0.14100
C 	C 	0.89771 0.25117 0.85615 0.35900
C 	C 	0.90244 0.72370 0.83490 -0.09200
O 	O 	0.89963 0.31798 0.52970 -0.06600
N 	N 	0.91563 0.18764 0.93845 -0.02200
C 	C 	0.91085 0.06834 0.81542 0.31300
C 	C 	0.91739 0.53602 0.58674 -0.10800
C 	C 	0.91353 0.70769 0.72782 -0.10500
O 	O 	0.91268 0.20730 0.07349 -0.06300
Ni	Ni	0.92037 0.08124 0.27380 1.12400
C 	C 	0.92338 0.21681 0.96750 0.09900
C 	C 	0.92291 0.63962 0.87283 0.36700
C 	C 	0.92745 0.79092 0.74112 0.31800
H 	H 	0.92539 0.51688 0.51433 0.10300
C 	C 	0.92855 0.62762 0.68719 -0.08300
C 	C 	0.92813 0.20694 0.83771 -0.08600
N 	N 	0.92910 0.35448 0.50492 -0.03100
H 	H 	0.93322 0.12670 0.68943 0.12000
C 	C 	0.93497 0.25633 0.02571 0.04400
C 	C 	0.93985 0.80376 0.81735 0.30000
O 	O 	0.93754 0.09115 0.75384 -0.37300
N 	N 	0.93939 0.27269 0.05577 -0.01400
C 	C 	0.94488 0.52012 0.53662 -0.10200
C 	C 	0.94477 0.70734 0.69991 0.33800
H 	H 	0.94737 0.62724 0.66507 0.10400
F 	F 	0.94829 0.34065 0.85871 -0.41500
C 	C 	0.96102 0.71091 0.85389 -0.12100
O 	O 	0.96221 0.35135 0.06532 -0.08400
Ni	Ni	0.96894 0.92479 0.27138 1.11000
H 	H 	0.99186 0.24492 0.82572 0.10800
F 	F 	0.98658 0.78327 0.68462 -0.41900
H 	H 	0.99027 0.32685 0.23369 0.10800
O 	O 	0.97574 0.13459 0.31231 -0.39200
O 	O 	0.98171 0.23368 0.92038 -0.07700
F 	F 	0.97966 0.62938 0.89180 -0.43000
