data_crystal

_cell_length_a 30.27237
_cell_length_b 30.32133
_cell_length_c 26.42663
_cell_angle_alpha 95.54114
_cell_angle_beta  95.53572
_cell_angle_gamma 125.62205

_symmetry_space_group_name_	'P 1'
_symmetry_space_group_name_H-M	'P 1'

loop_
_symmetry_equiv_pos_as_xyz
  x,y,z

loop_
_atom_site_label
_atom_site_type_symbol
_atom_site_fract_x
_atom_site_fract_y
_atom_site_fract_z
_atom_site_charge
C 	C 	0.95403 0.01389 0.95842 0.02900
C 	C 	0.96107 0.01202 0.42608 0.03000
H 	H 	0.88972 0.00616 0.02729 0.03400
C 	C 	0.03331 0.01320 0.95169 0.02900
H 	H 	0.92829 0.03118 0.33716 0.03400
C 	C 	0.04691 0.02130 0.43466 0.03100
H 	H 	0.10637 0.01020 0.01624 0.03600
C 	C 	0.91940 0.04580 0.37092 -0.03200
C 	C 	0.93159 0.03685 0.41975 -0.00900
C 	C 	0.89651 0.03462 0.00178 -0.03000
C 	C 	0.12491 0.03555 0.98751 -0.03300
C 	C 	0.01100 0.04247 0.95903 -0.07600
C 	C 	0.01838 0.04437 0.42802 -0.07700
C 	C 	0.93014 0.04455 0.96480 -0.00900
C 	C 	0.09313 0.04304 0.95221 -0.00700
H 	H 	0.12453 0.05101 0.51799 0.03500
H 	H 	0.84235 0.05005 0.03189 0.04000
H 	H 	0.20358 0.05143 0.01102 0.04100
H 	H 	0.93023 0.05011 0.50121 0.03500
C 	C 	0.99868 0.95534 0.94442 -0.07500
C 	C 	0.94207 0.92673 0.94482 0.03100
C 	C 	0.91966 0.95593 0.95110 -0.07600
H 	H 	0.03786 0.08725 0.96548 0.04900
H 	H 	0.01589 0.93267 0.93912 0.04900
H 	H 	0.87563 0.93364 0.95036 0.04900
C 	C 	0.93221 0.95641 0.43101 -0.07600
C 	C 	0.96060 0.93299 0.43717 0.03200
C 	C 	0.01792 0.96554 0.43865 -0.07600
H 	H 	0.88799 0.93157 0.43012 0.04900
H 	H 	0.03990 0.94747 0.44276 0.05000
H 	H 	0.04078 0.08752 0.42490 0.05000
Cu	Cu	0.63686 0.24792 0.00852 0.92700
Cu	Cu	0.68367 0.25008 0.90137 0.86800
Cu	Cu	0.66214 0.33208 0.93906 0.89600
Cu	Cu	0.63196 0.34756 0.03987 0.89300
C 	C 	0.65152 0.29135 0.11519 0.29300
O 	O 	0.55533 0.21283 0.00617 -0.36600
C 	C 	0.66372 0.30267 0.83031 0.28900
O 	O 	0.67827 0.33344 0.01140 -0.63900
O 	O 	0.62987 0.25191 0.93411 -0.63900
O 	O 	0.67265 0.20962 0.00834 -0.37300
O 	O 	0.73430 0.26679 0.96125 -0.44400
O 	O 	0.62333 0.30988 0.10005 -0.38800
O 	O 	0.69860 0.41075 0.94799 -0.38800
C 	C 	0.68855 0.43937 0.97930 0.29200
C 	C 	0.53185 0.23415 0.98605 0.28300
O 	O 	0.56286 0.28542 0.97895 -0.39800
O 	O 	0.66219 0.41991 0.01801 -0.39500
O 	O 	0.65524 0.25850 0.08228 -0.36400
C 	C 	0.71969 0.23115 0.99219 0.28700
O 	O 	0.65589 0.33159 0.86395 -0.38000
O 	O 	0.65311 0.25545 0.83801 -0.41800
H 	H 	0.71800 0.35916 0.02752 0.16400
H 	H 	0.59171 0.22673 0.91374 0.17100
Cu	Cu	0.74231 0.34645 0.44148 0.92700
Cu	Cu	0.75461 0.30930 0.55165 0.87100
Cu	Cu	0.66068 0.31351 0.51580 0.89600
Cu	Cu	0.63776 0.34505 0.41672 0.89300
C 	C 	0.69192 0.32813 0.33613 0.29100
O 	O 	0.77400 0.42697 0.44277 -0.36700
C 	C 	0.70879 0.33546 0.62659 0.29000
O 	O 	0.65735 0.30184 0.44252 -0.63900
O 	O 	0.74195 0.35481 0.51658 -0.64100
O 	O 	0.78178 0.31178 0.43952 -0.37500
O 	O 	0.73280 0.25425 0.49371 -0.44300
O 	O 	0.67050 0.35306 0.35292 -0.38700
O 	O 	0.58111 0.27063 0.50904 -0.38200
C 	C 	0.54875 0.27330 0.47412 0.28700
C 	C 	0.75205 0.44890 0.46468 0.28300
O 	O 	0.70197 0.41656 0.47460 -0.39200
O 	O 	0.56952 0.31350 0.44714 -0.39500
O 	O 	0.72782 0.32690 0.36752 -0.36400
C 	C 	0.76280 0.26612 0.45757 0.29000
O 	O 	0.66351 0.31078 0.59067 -0.38900
O 	O 	0.75481 0.34605 0.61433 -0.42200
H 	H 	0.63335 0.26248 0.42531 0.16100
H 	H 	0.76405 0.39352 0.53535 0.17100
C 	C 	0.73831 0.33444 0.71745 -0.04400
C 	C 	0.70453 0.33965 0.68213 -0.09800
C 	C 	0.66353 0.34311 0.69941 0.10700
C 	C 	0.65073 0.33143 0.74845 -0.04300
C 	C 	0.68190 0.32194 0.78211 -0.09500
C 	C 	0.72849 0.32744 0.76782 0.09400
N 	N 	0.76435 0.32686 0.80250 -0.19700
H 	H 	0.77177 0.33480 0.70550 0.03900
H 	H 	0.61681 0.33017 0.76048 0.04900
N 	N 	0.63874 0.36049 0.67061 -0.19700
H 	H 	0.79720 0.32834 0.79096 0.07100
H 	H 	0.76178 0.32787 0.84166 0.04800
H 	H 	0.65457 0.37931 0.63927 0.08900
H 	H 	0.60607 0.35946 0.68196 0.08400
C 	C 	0.63875 0.26505 0.25189 -0.04800
C 	C 	0.68694 0.31473 0.27995 -0.09200
C 	C 	0.72671 0.35372 0.25334 0.11100
C 	C 	0.71591 0.34332 0.19898 -0.04800
C 	C 	0.66603 0.29532 0.17098 -0.09300
C 	C 	0.62771 0.25492 0.19753 0.11100
N 	N 	0.58000 0.20684 0.17120 -0.20100
H 	H 	0.60881 0.23492 0.27242 0.03600
H 	H 	0.74554 0.37374 0.17845 0.03600
N 	N 	0.77470 0.40158 0.27961 -0.20000
H 	H 	0.55155 0.17774 0.19120 0.08200
H 	H 	0.57096 0.19747 0.13081 0.10000
H 	H 	0.78425 0.41064 0.31998 0.10100
H 	H 	0.80342 0.43035 0.25955 0.08300
C 	C 	0.93040 0.87417 0.44148 -0.00800
C 	C 	0.94841 0.85935 0.48306 -0.03100
C 	C 	0.92474 0.80379 0.48377 -0.05200
C 	C 	0.88145 0.76224 0.44365 0.02600
C 	C 	0.86234 0.77706 0.40293 -0.05300
C 	C 	0.88670 0.83271 0.40181 -0.03100
C 	C 	0.85956 0.70362 0.44122 -0.04600
C 	C 	0.85112 0.68113 0.48404 -0.05700
C 	C 	0.82801 0.62219 0.48102 0.04600
C 	C 	0.78675 0.58984 0.50909 -0.07800
C 	C 	0.76345 0.53376 0.50537 0.01600
C 	C 	0.78130 0.50941 0.47353 -0.09500
C 	C 	0.82458 0.54251 0.44742 0.01700
C 	C 	0.84809 0.59868 0.45145 -0.07700
H 	H 	0.98193 0.89099 0.51403 0.03500
H 	H 	0.94115 0.79323 0.51465 0.04000
H 	H 	0.82932 0.74546 0.37161 0.04000
H 	H 	0.87266 0.84364 0.36937 0.03500
H 	H 	0.84766 0.67787 0.40357 0.03900
H 	H 	0.85751 0.70515 0.52095 0.04200
H 	H 	0.77202 0.60791 0.53310 0.04600
H 	H 	0.73102 0.50914 0.52671 0.02800
H 	H 	0.83931 0.52461 0.42319 0.03300
H 	H 	0.88163 0.62379 0.43138 0.04700
C 	C 	0.89708 0.07495 0.36577 -0.05300
C 	C 	0.88647 0.09513 0.40936 0.02600
C 	C 	0.89833 0.08572 0.45825 -0.05200
C 	C 	0.92037 0.05633 0.46328 -0.03200
C 	C 	0.86712 0.12979 0.40418 -0.04600
C 	C 	0.82743 0.12326 0.42890 -0.05800
C 	C 	0.81010 0.15985 0.42649 0.04700
C 	C 	0.84975 0.21749 0.43336 -0.07900
C 	C 	0.83363 0.25228 0.43953 0.01800
C 	C 	0.77803 0.22991 0.44000 -0.10000
C 	C 	0.73818 0.17235 0.43073 0.02100
C 	C 	0.75415 0.13754 0.42405 -0.08000
H 	H 	0.88859 0.08237 0.32801 0.04000
H 	H 	0.89183 0.10238 0.49247 0.03900
H 	H 	0.88415 0.15956 0.37857 0.04000
H 	H 	0.80628 0.08952 0.44998 0.04100
H 	H 	0.89324 0.23545 0.43626 0.04600
H 	H 	0.86477 0.29666 0.44675 0.02400
H 	H 	0.69504 0.15461 0.43048 0.02500
H 	H 	0.72321 0.09323 0.41866 0.04600
C 	C 	0.10737 0.05576 0.43818 -0.00800
C 	C 	0.13049 0.07720 0.39521 -0.03100
C 	C 	0.18779 0.10916 0.39833 -0.05300
C 	C 	0.22241 0.11951 0.44426 0.02700
C 	C 	0.19931 0.09896 0.48762 -0.05200
C 	C 	0.14201 0.06691 0.48445 -0.03100
C 	C 	0.28299 0.15419 0.44738 -0.04600
C 	C 	0.31330 0.13829 0.46675 -0.05800
C 	C 	0.37361 0.17228 0.46832 0.04700
C 	C 	0.40955 0.18517 0.51422 -0.07800
C 	C 	0.46673 0.21769 0.51613 0.01900
C 	C 	0.48841 0.23715 0.47190 -0.09200
C 	C 	0.45223 0.22283 0.42556 0.01700
C 	C 	0.39514 0.19034 0.42370 -0.07800
H 	H 	0.10404 0.06889 0.35938 0.03500
H 	H 	0.20528 0.12552 0.36493 0.03900
H 	H 	0.22574 0.10820 0.52383 0.04000
H 	H 	0.30257 0.19157 0.43109 0.04000
H 	H 	0.29387 0.10100 0.48317 0.04200
H 	H 	0.39324 0.17068 0.54861 0.04600
H 	H 	0.49412 0.22842 0.55217 0.03600
H 	H 	0.46834 0.23667 0.39092 0.02200
H 	H 	0.36763 0.17904 0.38756 0.04600
C 	C 	0.71048 0.49626 0.97304 -0.09300
C 	C 	0.71996 0.53473 0.01510 0.02000
C 	C 	0.74043 0.58842 0.00913 -0.07600
C 	C 	0.75240 0.60453 0.96138 0.04500
C 	C 	0.74220 0.56599 0.91906 -0.07600
C 	C 	0.72149 0.51217 0.92488 0.01800
C 	C 	0.77452 0.66156 0.95578 -0.05700
C 	C 	0.82128 0.69291 0.93716 -0.04600
C 	C 	0.84756 0.75213 0.93765 0.02700
C 	C 	0.86846 0.77480 0.89434 -0.05300
C 	C 	0.89779 0.83164 0.89606 -0.03100
C 	C 	0.90683 0.86635 0.94128 -0.00700
C 	C 	0.88536 0.84367 0.98438 -0.03300
C 	C 	0.85622 0.78691 0.98277 -0.05400
H 	H 	0.71189 0.52323 0.05252 0.02900
H 	H 	0.74769 0.61775 0.04185 0.04600
H 	H 	0.74997 0.57763 0.88163 0.04700
H 	H 	0.71351 0.48275 0.89185 0.03600
H 	H 	0.75509 0.67954 0.97103 0.04200
H 	H 	0.84028 0.67474 0.92124 0.04000
H 	H 	0.86250 0.74845 0.85956 0.04000
H 	H 	0.91428 0.84883 0.86260 0.03600
H 	H 	0.89258 0.87024 0.01961 0.03700
H 	H 	0.84172 0.77020 0.01700 0.04200
C 	C 	0.93881 0.08181 0.93226 -0.03100
C 	C 	0.91357 0.10832 0.93619 -0.05300
C 	C 	0.87916 0.09770 0.97245 0.02400
C 	C 	0.87039 0.06030 0.00502 -0.05000
C 	C 	0.84843 0.12189 0.97240 -0.04700
C 	C 	0.84082 0.14036 0.01664 -0.05700
C 	C 	0.81231 0.16657 0.01536 0.04800
C 	C 	0.76123 0.14131 0.03135 -0.07800
C 	C 	0.73173 0.16343 0.02571 0.01800
C 	C 	0.75346 0.21139 0.00441 -0.09700
C 	C 	0.80624 0.23837 0.99136 0.01300
C 	C 	0.83534 0.21594 0.99663 -0.08100
H 	H 	0.96423 0.08943 0.90326 0.03400
H 	H 	0.92010 0.13653 0.91046 0.03800
H 	H 	0.83451 0.12755 0.93573 0.03700
H 	H 	0.85508 0.13573 0.05368 0.04300
H 	H 	0.74360 0.10366 0.04669 0.04700
H 	H 	0.69150 0.14249 0.03666 0.03500
H 	H 	0.82429 0.27615 0.97619 0.02500
H 	H 	0.87541 0.23642 0.98533 0.04600
C 	C 	0.47143 0.20436 0.98050 -0.09600
C 	C 	0.44209 0.16631 0.01251 0.02000
C 	C 	0.38660 0.14389 0.01252 -0.07700
C 	C 	0.35959 0.15859 0.98010 0.04600
C 	C 	0.38828 0.19520 0.94681 -0.07700
C 	C 	0.44385 0.21775 0.94682 0.01600
C 	C 	0.30298 0.13942 0.98469 -0.05900
C 	C 	0.26239 0.11514 0.94272 -0.04500
C 	C 	0.20479 0.09230 0.94774 0.02600
C 	C 	0.17318 0.10033 0.91287 -0.05300
C 	C 	0.11764 0.07595 0.91517 -0.03200
C 	C 	0.18021 0.05943 0.98491 -0.05300
H 	H 	0.46276 0.15565 0.03879 0.03300
H 	H 	0.36486 0.11580 0.03842 0.04600
H 	H 	0.36804 0.20738 0.92203 0.04600
H 	H 	0.46578 0.24659 0.92154 0.02800
H 	H 	0.29371 0.14232 0.02308 0.04400
H 	H 	0.27184 0.11301 0.90429 0.03900
H 	H 	0.19152 0.12508 0.88371 0.03900
H 	H 	0.09336 0.08167 0.88750 0.03500
