data_crystal

_cell_length_a 47.30258
_cell_length_b 46.25165
_cell_length_c 35.84200
_cell_angle_alpha 89.95899
_cell_angle_beta  89.95491
_cell_angle_gamma 90.47028

_symmetry_space_group_name_	'P 1'
_symmetry_space_group_name_H-M	'P 1'

loop_
_symmetry_equiv_pos_as_xyz
  x,y,z

loop_
_atom_site_label
_atom_site_type_symbol
_atom_site_fract_x
_atom_site_fract_y
_atom_site_fract_z
_atom_site_charge
Zn	Zn	0.49261 0.50175 0.99542 1.22100
C 	C 	0.52161 0.55654 0.98727 0.31900
O 	O 	0.51353 0.48247 0.03540 -0.47500
O 	O 	0.50483 0.56560 0.01401 -0.45400
O 	O 	0.53364 0.52223 0.06124 -0.49500
C 	C 	0.44569 0.53484 0.01968 0.34500
O 	O 	0.46059 0.52746 0.99041 -0.45300
O 	O 	0.45686 0.53368 0.05314 -0.50900
C 	C 	0.53538 0.49511 0.05102 0.31900
O 	O 	0.45936 0.46372 0.99644 -0.32600
Zn	Zn	0.49709 0.54136 0.06122 1.17000
O 	O 	0.52216 0.52897 0.97820 -0.43400
C 	C 	0.47156 0.45485 0.96620 0.29700
O 	O 	0.49232 0.47091 0.95453 -0.38200
Zn	Zn	0.35706 0.16137 0.01461 1.22100
C 	C 	0.37515 0.15602 0.09149 0.32100
O 	O 	0.31543 0.15935 0.01428 -0.46500
O 	O 	0.37108 0.18393 0.09551 -0.45000
O 	O 	0.31080 0.17203 0.07526 -0.49700
C 	C 	0.38071 0.21829 0.01856 0.32900
O 	O 	0.38680 0.19071 0.01698 -0.45600
O 	O 	0.35673 0.22672 0.03321 -0.51100
C 	C 	0.30068 0.15950 0.04530 0.33600
O 	O 	0.35736 0.16874 0.94917 -0.32700
Zn	Zn	0.33711 0.20427 0.07122 1.17100
O 	O 	0.36435 0.14229 0.06264 -0.44000
C 	C 	0.36611 0.14222 0.94751 0.28000
O 	O 	0.36888 0.12933 0.97933 -0.38600
C 	C 	0.52322 0.98047 0.37847 0.14600
C 	C 	0.50670 0.99992 0.35803 -0.11200
H 	H 	0.49458 0.01624 0.37251 0.07400
C 	C 	0.50604 0.99835 0.31900 0.07200
C 	C 	0.52176 0.97723 0.30043 -0.09800
C 	C 	0.53826 0.95778 0.32077 0.07200
C 	C 	0.53901 0.95939 0.35979 -0.11200
H 	H 	0.55187 0.94447 0.37562 0.07400
N 	N 	0.52419 0.98233 0.41849 -0.17900
C 	C 	0.50633 0.96534 0.43946 0.19000
C 	C 	0.50693 0.96691 0.47869 -0.06000
C 	C 	0.52592 0.98613 0.49607 0.03100
C 	C 	0.54406 0.00341 0.47424 -0.06000
C 	C 	0.54293 0.00112 0.43509 0.19000
C 	C 	0.48886 0.94959 0.50071 -0.01300
C 	C 	0.48975 0.95146 0.53964 -0.01300
C 	C 	0.50872 0.97072 0.55720 -0.06000
C 	C 	0.52678 0.98808 0.53536 0.03100
C 	C 	0.54570 0.00737 0.55274 -0.06000
C 	C 	0.56300 0.02269 0.49180 -0.01300
C 	C 	0.56380 0.02467 0.53072 -0.01300
C 	C 	0.50995 0.97289 0.59635 0.19000
N 	N 	0.52852 0.99187 0.61294 -0.17900
C 	C 	0.54622 0.00904 0.59196 0.19000
C 	C 	0.52953 0.99370 0.65296 0.14300
C 	C 	0.51082 0.01184 0.67204 -0.11000
C 	C 	0.51158 0.01335 0.71106 0.06900
C 	C 	0.53109 0.99680 0.73102 -0.09400
C 	C 	0.54992 0.97869 0.71205 0.05700
C 	C 	0.54909 0.97716 0.67297 -0.10800
O 	O 	0.55997 0.01708 0.41428 -0.20100
O 	O 	0.48848 0.94752 0.42279 -0.20100
O 	O 	0.49326 0.95659 0.61718 -0.20100
O 	O 	0.56376 0.02718 0.60862 -0.20100
H 	H 	0.56355 0.96319 0.65814 0.07100
H 	H 	0.49571 0.02458 0.65651 0.07300
H 	H 	0.57713 0.03619 0.47541 0.05000
H 	H 	0.57854 0.03966 0.54363 0.05000
H 	H 	0.47409 0.93463 0.48779 0.05000
H 	H 	0.47566 0.93793 0.55603 0.05000
H 	H 	0.53150 0.99781 0.76126 0.05800
H 	H 	0.52129 0.97606 0.27019 0.06000
Zn	Zn	0.70196 0.82205 0.01666 1.22100
C 	C 	0.68490 0.81899 0.09420 0.32000
O 	O 	0.74289 0.83010 0.01694 -0.46700
O 	O 	0.69236 0.79165 0.09404 -0.44900
O 	O 	0.75024 0.81297 0.07555 -0.49600
C 	C 	0.68553 0.76251 0.01355 0.34800
O 	O 	0.67613 0.78903 0.01572 -0.45700
O 	O 	0.71081 0.75627 0.02592 -0.51200
C 	C 	0.75729 0.83050 0.04825 0.31600
O 	O 	0.70239 0.81954 0.95064 -0.32400
Zn	Zn	0.72822 0.77810 0.06641 1.17000
O 	O 	0.69267 0.83622 0.06678 -0.44000
C 	C 	0.69039 0.84464 0.95213 0.29800
O 	O 	0.68576 0.85454 0.98527 -0.38400
Zn	Zn	0.15574 0.67581 0.97418 1.22100
C 	C 	0.14980 0.66793 0.05380 0.34000
O 	O 	0.14677 0.71642 0.96282 -0.46400
O 	O 	0.17535 0.67867 0.05836 -0.45200
O 	O 	0.15455 0.73242 0.02187 -0.49600
C 	C 	0.21398 0.66369 0.98867 0.32800
O 	O 	0.18858 0.65225 0.98597 -0.45400
O 	O 	0.21699 0.69148 0.99502 -0.51200
C 	C 	0.14213 0.73532 0.98940 0.31700
O 	O 	0.16629 0.66775 0.91034 -0.32500
Zn	Zn	0.19029 0.71241 0.02601 1.17000
O 	O 	0.13615 0.67185 0.02233 -0.44100
C 	C 	0.14226 0.65403 0.90991 0.29800
O 	O 	0.12872 0.65305 0.94120 -0.38400
C 	C 	0.99736 0.49002 0.33696 0.14100
C 	C 	0.97936 0.47168 0.31666 -0.10600
H 	H 	0.96468 0.45755 0.33128 0.07100
C 	C 	0.97997 0.47198 0.27754 0.05300
C 	C 	0.99881 0.49053 0.25879 -0.08800
C 	C 	0.01689 0.50887 0.27903 0.05300
C 	C 	0.01618 0.50853 0.31815 -0.10600
H 	H 	0.03002 0.52274 0.33394 0.07000
N 	N 	0.99596 0.49046 0.37701 -0.17900
C 	C 	0.01254 0.47197 0.39724 0.19000
C 	C 	0.01160 0.47224 0.43651 -0.06100
C 	C 	0.99349 0.49162 0.45469 0.03100
C 	C 	0.97658 0.51037 0.43360 -0.06100
C 	C 	0.97811 0.50945 0.39439 0.19000
C 	C 	0.02848 0.45349 0.45778 -0.01300
C 	C 	0.02732 0.45415 0.49677 -0.01300
C 	C 	0.00926 0.47358 0.51513 -0.06100
C 	C 	0.99233 0.49230 0.49404 0.03100
C 	C 	0.97425 0.51171 0.51222 -0.06000
C 	C 	0.95847 0.52974 0.45196 -0.01300
C 	C 	0.95731 0.53041 0.49094 -0.01300
C 	C 	0.00788 0.47465 0.55435 0.19000
N 	N 	0.99020 0.49380 0.57173 -0.17900
C 	C 	0.97346 0.51214 0.55148 0.19000
C 	C 	0.98933 0.49481 0.61179 0.14400
C 	C 	0.96983 0.47757 0.63141 -0.11000
C 	C 	0.96884 0.47872 0.67044 0.06900
C 	C 	0.98735 0.49707 0.68987 -0.09300
C 	C 	0.00684 0.51440 0.67034 0.05600
C 	C 	0.00783 0.51320 0.63126 -0.10800
O 	O 	0.96235 0.52692 0.37427 -0.20200
O 	O 	0.02945 0.45391 0.37982 -0.20200
O 	O 	0.02366 0.45721 0.57449 -0.20100
O 	O 	0.95663 0.53028 0.56889 -0.20100
H 	H 	0.02279 0.52659 0.61601 0.07100
H 	H 	0.95553 0.46340 0.61627 0.07400
H 	H 	0.94527 0.54433 0.43615 0.04900
H 	H 	0.94324 0.54550 0.50448 0.05000
H 	H 	0.04254 0.43839 0.44424 0.04900
H 	H 	0.04051 0.43955 0.51258 0.05000
H 	H 	0.98665 0.49784 0.72011 0.05800
H 	H 	0.99916 0.49091 0.22854 0.05500
Zn	Zn	0.80827 0.33496 0.97446 1.22100
C 	C 	0.80952 0.34674 0.89544 0.32100
O 	O 	0.77009 0.34304 0.99330 -0.46600
O 	O 	0.79761 0.32147 0.88885 -0.44700
O 	O 	0.74871 0.33951 0.93671 -0.49400
C 	C 	0.81831 0.27671 0.95138 0.34700
O 	O 	0.82968 0.30250 0.95496 -0.45800
O 	O 	0.79089 0.27369 0.94740 -0.51000
C 	C 	0.74936 0.34979 0.97076 0.33700
O 	O 	0.82190 0.31959 0.03491 -0.32400
Zn	Zn	0.76787 0.30365 0.92445 1.17000
O 	O 	0.80777 0.35842 0.92878 -0.44000
C 	C 	0.83568 0.34393 0.03604 0.29800
O 	O 	0.83367 0.36012 0.00680 -0.38600
Zn	Zn	0.00630 0.02519 0.03688 1.22100
C 	C 	0.03556 0.97142 0.02566 0.33900
O 	O 	0.97567 0.01463 0.07161 -0.47100
O 	O 	0.05035 0.97864 0.05532 -0.45300
O 	O 	0.99646 0.97521 0.09695 -0.49800
C 	C 	0.05822 0.04509 0.06868 0.32900
O 	O 	0.04536 0.03857 0.03737 -0.45400
O 	O 	0.04871 0.03450 0.10031 -0.50900
C 	C 	0.97370 0.98858 0.08581 0.34000
O 	O 	0.99379 0.07417 0.04258 -0.32700
Zn	Zn	0.03204 0.99587 0.10250 1.17000
O 	O 	0.01354 0.98675 0.01550 -0.43600
C 	C 	0.98276 0.07117 0.00967 0.27500
O 	O 	0.98493 0.04565 0.99503 -0.37900
C 	C 	0.96539 0.09401 0.99281 -0.07200
C 	C 	0.97125 0.12314 0.00091 0.00800
C 	C 	0.95269 0.14471 0.98941 -0.05900
C 	C 	0.92807 0.13739 0.96965 0.02400
C 	C 	0.92280 0.10843 0.96005 -0.06100
C 	C 	0.94144 0.08681 0.97149 0.01100
C 	C 	0.90690 0.15978 0.96150 0.00500
C 	C 	0.88030 0.15867 0.97890 -0.04100
C 	C 	0.86155 0.18169 0.97505 -0.02900
C 	C 	0.86924 0.20594 0.95377 -0.01200
C 	C 	0.89537 0.20666 0.93531 -0.02900
C 	C 	0.91414 0.18364 0.93912 -0.04200
C 	C 	0.85104 0.23074 0.95259 0.05600
C 	C 	0.83599 0.25166 0.95195 -0.12100
H 	H 	0.98988 0.12901 0.01687 0.03900
H 	H 	0.95700 0.16702 0.99681 0.04700
H 	H 	0.90397 0.10260 0.94451 0.04700
H 	H 	0.93671 0.06443 0.96493 0.04100
H 	H 	0.87453 0.14038 0.99630 0.04200
H 	H 	0.84133 0.18095 0.98927 0.03900
H 	H 	0.90139 0.22528 0.91865 0.04000
H 	H 	0.93455 0.18463 0.92543 0.04100
C 	C 	0.82605 0.36140 0.86593 -0.09500
C 	C 	0.82020 0.35603 0.82811 0.02200
C 	C 	0.83671 0.36906 0.80028 -0.07000
C 	C 	0.85923 0.38747 0.81002 0.03100
C 	C 	0.86485 0.39314 0.84773 -0.06800
C 	C 	0.84835 0.38021 0.87555 0.02200
C 	C 	0.87723 0.40050 0.78086 -0.00300
C 	C 	0.90561 0.39227 0.77756 -0.03300
C 	C 	0.92355 0.40674 0.75265 -0.04400
C 	C 	0.91323 0.42950 0.73086 0.01800
C 	C 	0.88465 0.43709 0.73317 -0.04400
C 	C 	0.86667 0.42259 0.75807 -0.03300
C 	C 	0.93245 0.44654 0.70855 -0.00600
C 	C 	0.94887 0.46106 0.69072 -0.03200
H 	H 	0.80291 0.34180 0.82026 0.02800
H 	H 	0.83217 0.36465 0.77120 0.04700
H 	H 	0.88212 0.40745 0.85547 0.05000
H 	H 	0.85323 0.38443 0.90457 0.03800
H 	H 	0.91390 0.37512 0.79490 0.04000
H 	H 	0.94560 0.40072 0.75094 0.04400
H 	H 	0.87652 0.45464 0.71637 0.04400
H 	H 	0.84478 0.42905 0.76038 0.03900
C 	C 	0.96039 0.45346 0.25610 -0.00900
C 	C 	0.93949 0.46603 0.23373 -0.03100
C 	C 	0.92255 0.44871 0.21079 -0.04300
C 	C 	0.92631 0.41865 0.21007 0.00900
C 	C 	0.94663 0.40597 0.23331 -0.04300
C 	C 	0.96361 0.42333 0.25626 -0.03100
C 	C 	0.91027 0.40076 0.18325 0.00900
C 	C 	0.92448 0.38643 0.15436 -0.04200
C 	C 	0.90914 0.37242 0.12626 -0.03100
C 	C 	0.87953 0.37265 0.12686 -0.00500
C 	C 	0.86530 0.38595 0.15647 -0.03100
C 	C 	0.88061 0.39992 0.18463 -0.04200
C 	C 	0.86385 0.36168 0.09542 0.04500
C 	C 	0.85089 0.35319 0.06857 -0.09400
H 	H 	0.93675 0.48927 0.23362 0.04000
H 	H 	0.90695 0.45870 0.19293 0.04200
H 	H 	0.94958 0.38277 0.23311 0.04200
H 	H 	0.97965 0.41344 0.27352 0.04200
H 	H 	0.94737 0.38693 0.15305 0.04100
H 	H 	0.92028 0.36213 0.10349 0.04100
H 	H 	0.84240 0.38612 0.15717 0.04100
H 	H 	0.86945 0.41072 0.20698 0.04200
C 	C 	0.12361 0.76024 0.98257 -0.10000
C 	C 	0.10826 0.77234 0.01215 0.01800
C 	C 	0.09289 0.79764 0.00671 -0.07100
C 	C 	0.09264 0.81111 0.97162 0.02900
C 	C 	0.10703 0.79842 0.94163 -0.06900
C 	C 	0.12241 0.77304 0.94704 0.01800
C 	C 	0.07955 0.83977 0.96737 0.00100
C 	C 	0.05083 0.84343 0.97587 -0.04000
C 	C 	0.03995 0.87122 0.98063 -0.03100
C 	C 	0.05768 0.89547 0.97674 -0.01100
C 	C 	0.08568 0.89190 0.96493 -0.03100
C 	C 	0.09661 0.86414 0.96026 -0.04100
C 	C 	0.04896 0.92290 0.99160 0.05400
C 	C 	0.04241 0.94539 0.00605 -0.11800
H 	H 	0.10861 0.76240 0.03953 0.03200
H 	H 	0.08184 0.80726 0.03005 0.04500
H 	H 	0.10685 0.80858 0.91438 0.04700
H 	H 	0.13406 0.76385 0.92393 0.03300
H 	H 	0.03734 0.82476 0.98075 0.04000
H 	H 	0.01818 0.87380 0.98937 0.04000
H 	H 	0.09946 0.91055 0.96150 0.03900
H 	H 	0.11874 0.86157 0.95327 0.03800
C 	C 	0.02617 0.53380 0.69094 -0.00900
C 	C 	0.01523 0.55613 0.71300 -0.03100
C 	C 	0.03323 0.57267 0.73550 -0.04200
C 	C 	0.06235 0.56711 0.73604 0.00900
C 	C 	0.07344 0.54548 0.71292 -0.04200
C 	C 	0.05540 0.52887 0.69047 -0.03100
C 	C 	0.08082 0.58244 0.76280 0.00900
C 	C 	0.09448 0.56698 0.79118 -0.04200
C 	C 	0.10928 0.58173 0.81913 -0.03000
C 	C 	0.11052 0.61201 0.81895 -0.00500
C 	C 	0.09782 0.62745 0.78987 -0.03100
C 	C 	0.08306 0.61272 0.76182 -0.04200
C 	C 	0.12250 0.62720 0.85030 0.04500
C 	C 	0.13188 0.63962 0.87719 -0.09400
H 	H 	0.99271 0.56023 0.71330 0.04100
H 	H 	0.02446 0.58930 0.75325 0.04200
H 	H 	0.09591 0.54117 0.71293 0.04200
H 	H 	0.06405 0.51173 0.67344 0.04200
H 	H 	0.09288 0.54361 0.79221 0.04200
H 	H 	0.11909 0.56965 0.84150 0.04200
H 	H 	0.09877 0.65087 0.78948 0.04100
H 	H 	0.07280 0.62485 0.73986 0.04200
C 	C 	0.03591 0.52908 0.25912 -0.00900
C 	C 	0.03216 0.55903 0.26256 -0.03200
C 	C 	0.04821 0.57813 0.24074 -0.04200
C 	C 	0.06807 0.56742 0.21523 0.00800
C 	C 	0.07250 0.53751 0.21275 -0.04200
C 	C 	0.05652 0.51843 0.23466 -0.03200
C 	C 	0.08275 0.58730 0.18933 0.01000
C 	C 	0.11240 0.58906 0.18910 -0.04500
C 	C 	0.12631 0.60644 0.16279 -0.02900
C 	C 	0.11067 0.62219 0.13665 -0.01200
C 	C 	0.08108 0.62093 0.13734 -0.02900
C 	C 	0.06715 0.60354 0.16356 -0.04400
C 	C 	0.12495 0.63857 0.10800 0.05300
C 	C 	0.13651 0.65209 0.08351 -0.11700
H 	H 	0.01633 0.56746 0.28141 0.04200
H 	H 	0.04480 0.60119 0.24308 0.04100
H 	H 	0.08779 0.52904 0.19318 0.04100
H 	H 	0.05972 0.49535 0.23203 0.03900
H 	H 	0.12463 0.57672 0.20899 0.04100
H 	H 	0.14921 0.60735 0.16244 0.03700
H 	H 	0.06886 0.63306 0.11721 0.04000
H 	H 	0.04427 0.60225 0.16340 0.04100
C 	C 	0.78066 0.85140 0.05338 -0.10000
C 	C 	0.78694 0.86206 0.08914 0.02000
C 	C 	0.80969 0.88108 0.09433 -0.07000
C 	C 	0.82643 0.88959 0.06387 0.02800
C 	C 	0.81986 0.87942 0.02800 -0.06800
C 	C 	0.79703 0.86044 0.02275 0.01700
C 	C 	0.85149 0.90821 0.06979 0.00200
C 	C 	0.87380 0.89856 0.09227 -0.04100
C 	C 	0.89782 0.91591 0.09729 -0.03100
C 	C 	0.89974 0.94298 0.07986 -0.01200
C 	C 	0.87735 0.95282 0.05776 -0.03000
C 	C 	0.85327 0.93550 0.05276 -0.04100
C 	C 	0.92541 0.95975 0.08267 0.05500
C 	C 	0.94726 0.97325 0.08451 -0.12200
H 	H 	0.77418 0.85565 0.11291 0.03200
H 	H 	0.81444 0.88904 0.12207 0.04600
H 	H 	0.83271 0.88583 0.00432 0.04800
H 	H 	0.79243 0.85238 0.99502 0.03600
H 	H 	0.87265 0.87751 0.10548 0.03800
H 	H 	0.91511 0.90812 0.11429 0.03700
H 	H 	0.87873 0.97370 0.04412 0.04100
H 	H 	0.83608 0.94322 0.03555 0.04100
C 	C 	0.57018 0.96101 0.73326 -0.00900
C 	C 	0.56834 0.93072 0.73209 -0.03100
C 	C 	0.58558 0.91401 0.75513 -0.04200
C 	C 	0.60474 0.92745 0.77963 0.00900
C 	C 	0.60730 0.95771 0.77978 -0.04300
C 	C 	0.59015 0.97441 0.75663 -0.03100
C 	C 	0.62049 0.91006 0.80707 0.00900
C 	C 	0.60579 0.89361 0.83382 -0.04200
C 	C 	0.62057 0.87899 0.86171 -0.03000
C 	C 	0.65014 0.88074 0.86313 -0.00400
C 	C 	0.66493 0.89658 0.83595 -0.03100
C 	C 	0.65017 0.91116 0.80794 -0.04200
C 	C 	0.66508 0.86773 0.89377 0.04500
C 	C 	0.67698 0.85707 0.92007 -0.09300
H 	H 	0.55304 0.92017 0.71407 0.04200
H 	H 	0.58362 0.89066 0.75457 0.04200
H 	H 	0.62203 0.96830 0.79856 0.04200
H 	H 	0.59191 0.99777 0.75746 0.04000
H 	H 	0.58289 0.89270 0.83349 0.04200
H 	H 	0.60901 0.86678 0.88263 0.04200
H 	H 	0.68780 0.89798 0.83684 0.04100
H 	H 	0.66173 0.92365 0.78730 0.04200
C 	C 	0.66915 0.83082 0.12617 -0.09700
C 	C 	0.67279 0.85994 0.13633 0.02100
C 	C 	0.65689 0.87165 0.16539 -0.06900
C 	C 	0.63722 0.85438 0.18469 0.03000
C 	C 	0.63397 0.82512 0.17514 -0.07000
C 	C 	0.64990 0.81336 0.14603 0.01900
C 	C 	0.61897 0.86743 0.21342 -0.00300
C 	C 	0.58971 0.86926 0.20751 -0.03300
C 	C 	0.57293 0.88529 0.23193 -0.04400
C 	C 	0.58527 0.89956 0.26238 0.01700
C 	C 	0.61426 0.89665 0.26932 -0.04400
C 	C 	0.63107 0.88057 0.24496 -0.03400
C 	C 	0.56880 0.91946 0.28412 -0.00600
C 	C 	0.55495 0.93666 0.30137 -0.03300
H 	H 	0.68786 0.87354 0.12162 0.03700
H 	H 	0.65950 0.89427 0.17252 0.04900
H 	H 	0.61889 0.81160 0.18996 0.04600
H 	H 	0.64687 0.79087 0.13846 0.03100
H 	H 	0.58016 0.85916 0.18329 0.03900
H 	H 	0.55051 0.88737 0.22647 0.04200
H 	H 	0.62393 0.90752 0.29291 0.04300
H 	H 	0.65359 0.87906 0.24996 0.03800
C 	C 	0.08493 0.06177 0.06784 -0.10300
C 	C 	0.10553 0.05742 0.09547 0.02200
C 	C 	0.13201 0.07085 0.09247 -0.07200
C 	C 	0.13815 0.08876 0.06187 0.03000
C 	C 	0.11729 0.09395 0.03495 -0.07000
C 	C 	0.09079 0.08056 0.03794 0.02500
C 	C 	0.16674 0.10121 0.05732 0.00100
C 	C 	0.17081 0.13129 0.05817 -0.04100
C 	C 	0.19799 0.14303 0.05432 -0.03100
C 	C 	0.22123 0.12478 0.04958 -0.01200
C 	C 	0.21717 0.09476 0.04837 -0.03000
C 	C 	0.19001 0.08299 0.05220 -0.04100
C 	C 	0.24934 0.13682 0.04738 0.05300
C 	C 	0.27283 0.14704 0.04607 -0.12400
H 	H 	0.10133 0.04303 0.11871 0.01800
H 	H 	0.14791 0.06697 0.11359 0.04500
H 	H 	0.12180 0.10791 0.01136 0.04900
H 	H 	0.07495 0.08448 0.01674 0.03600
H 	H 	0.15298 0.14552 0.06211 0.03900
H 	H 	0.20100 0.16627 0.05535 0.03500
H 	H 	0.23505 0.08053 0.04473 0.04000
H 	H 	0.18704 0.05975 0.05124 0.04000
C 	C 	0.37727 0.12957 0.91278 -0.07800
C 	C 	0.38021 0.09947 0.90972 0.01300
C 	C 	0.39390 0.08755 0.87887 -0.06400
C 	C 	0.40472 0.10556 0.85067 0.02700
C 	C 	0.40068 0.13554 0.85284 -0.06400
C 	C 	0.38699 0.14751 0.88373 0.01200
C 	C 	0.42219 0.09321 0.82058 -0.00100
C 	C 	0.45090 0.10083 0.81770 -0.03400
C 	C 	0.46841 0.08632 0.79260 -0.04400
C 	C 	0.45737 0.06412 0.77023 0.01800
C 	C 	0.42847 0.05731 0.77191 -0.04300
C 	C 	0.41090 0.07185 0.79695 -0.03400
C 	C 	0.47612 0.04660 0.74828 -0.00600
C 	C 	0.49213 0.03161 0.73082 -0.03300
H 	H 	0.37241 0.08535 0.93162 0.04000
H 	H 	0.39684 0.06436 0.87741 0.04800
H 	H 	0.40874 0.14961 0.83104 0.04700
H 	H 	0.38476 0.17076 0.88561 0.03800
H 	H 	0.45983 0.11728 0.83580 0.03900
H 	H 	0.49073 0.09175 0.79138 0.04300
H 	H 	0.41976 0.04024 0.75458 0.04400
H 	H 	0.38872 0.06597 0.79872 0.03900
C 	C 	0.39067 0.13973 0.12030 -0.09600
C 	C 	0.39249 0.15030 0.15700 0.02100
C 	C 	0.40610 0.13416 0.18458 -0.07100
C 	C 	0.41799 0.10734 0.17575 0.03100
C 	C 	0.41659 0.09698 0.13903 -0.06900
C 	C 	0.40304 0.11308 0.11143 0.02200
C 	C 	0.43163 0.08990 0.20499 -0.00400
C 	C 	0.45695 0.09946 0.22141 -0.03300
C 	C 	0.47108 0.08181 0.24690 -0.04400
C 	C 	0.45994 0.05456 0.25617 0.01800
C 	C 	0.43423 0.04535 0.24064 -0.04400
C 	C 	0.42010 0.06296 0.21514 -0.03400
C 	C 	0.47593 0.03516 0.27927 -0.00600
C 	C 	0.48951 0.01856 0.29784 -0.03300
H 	H 	0.38298 0.17076 0.16432 0.02500
H 	H 	0.40712 0.14234 0.21287 0.04600
H 	H 	0.42597 0.07641 0.13191 0.04900
H 	H 	0.40216 0.10483 0.08318 0.03700
H 	H 	0.46599 0.12024 0.21379 0.03900
H 	H 	0.49096 0.08907 0.25882 0.04400
H 	H 	0.42548 0.02432 0.24771 0.04300
H 	H 	0.40045 0.05549 0.20281 0.03900
C 	C 	0.40067 0.23992 0.00391 -0.10500
C 	C 	0.40888 0.26335 0.02631 0.02600
C 	C 	0.42452 0.28618 0.01103 -0.07400
C 	C 	0.43187 0.28593 0.97310 0.03200
C 	C 	0.42468 0.26195 0.95100 -0.07100
C 	C 	0.40928 0.23888 0.96645 0.02600
C 	C 	0.44443 0.31202 0.95603 -0.00100
C 	C 	0.42740 0.33049 0.93481 -0.03800
C 	C 	0.43597 0.35908 0.92843 -0.03300
C 	C 	0.46163 0.36927 0.94311 -0.00300
C 	C 	0.48007 0.34988 0.96047 -0.03400
C 	C 	0.47149 0.32131 0.96696 -0.03800
C 	C 	0.46593 0.39987 0.94808 0.04400
C 	C 	0.46883 0.42524 0.95488 -0.09300
H 	H 	0.40251 0.26421 0.05533 0.01700
H 	H 	0.43003 0.30459 0.02831 0.04800
H 	H 	0.43034 0.26153 0.92171 0.04900
H 	H 	0.40309 0.22081 0.94895 0.03300
H 	H 	0.40665 0.32337 0.92568 0.04000
H 	H 	0.42176 0.37381 0.91443 0.04100
H 	H 	0.50018 0.35745 0.97135 0.04100
H 	H 	0.48504 0.30703 0.98272 0.04000
C 	C 	0.23914 0.64511 0.98684 -0.10300
C 	C 	0.26525 0.65673 0.97529 0.02100
C 	C 	0.28968 0.64001 0.97709 -0.07100
C 	C 	0.28827 0.61149 0.99037 0.03000
C 	C 	0.26207 0.59952 0.00073 -0.07300
C 	C 	0.23759 0.61622 0.99893 0.02600
C 	C 	0.31442 0.59476 0.99523 0.00300
C 	C 	0.32335 0.58685 0.03113 -0.04300
C 	C 	0.34934 0.57319 0.03607 -0.03000
C 	C 	0.36654 0.56734 0.00519 -0.01400
C 	C 	0.35734 0.57454 0.96923 -0.02800
C 	C 	0.33134 0.58819 0.96424 -0.04100
C 	C 	0.39426 0.55540 0.01054 0.05500
C 	C 	0.41765 0.54581 0.01487 -0.12300
H 	H 	0.26668 0.67883 0.96540 0.02800
H 	H 	0.30981 0.64940 0.96891 0.04600
H 	H 	0.26075 0.57745 0.01077 0.04900
H 	H 	0.21761 0.60697 0.00792 0.03600
H 	H 	0.31046 0.59187 0.05523 0.03800
H 	H 	0.35631 0.56764 0.06395 0.03500
H 	H 	0.37050 0.57000 0.94521 0.04100
H 	H 	0.32457 0.59408 0.93640 0.04200
C 	C 	0.56270 0.48001 0.05245 -0.10300
C 	C 	0.56325 0.44968 0.05420 0.02100
C 	C 	0.58859 0.43496 0.04869 -0.06900
C 	C 	0.61366 0.45040 0.04152 0.02900
C 	C 	0.61346 0.48074 0.04191 -0.07000
C 	C 	0.58810 0.49550 0.04743 0.02100
C 	C 	0.63948 0.43483 0.03056 0.00100
C 	C 	0.65076 0.43850 0.99460 -0.03900
C 	C 	0.67371 0.42189 0.98300 -0.02900
C 	C 	0.68553 0.40150 0.00721 -0.01400
C 	C 	0.67471 0.39823 0.04340 -0.03000
C 	C 	0.65177 0.41485 0.05508 -0.04100
C 	C 	0.70816 0.38332 0.99450 0.05600
C 	C 	0.72699 0.36802 0.98368 -0.12200
H 	H 	0.54389 0.43747 0.05866 0.03300
H 	H 	0.58857 0.41153 0.04871 0.04700
H 	H 	0.63278 0.49287 0.03686 0.04600
H 	H 	0.58804 0.51890 0.04623 0.03000
H 	H 	0.64136 0.45375 0.97541 0.04200
H 	H 	0.68201 0.42458 0.95501 0.03900
H 	H 	0.68382 0.38259 0.06233 0.03900
H 	H 	0.64329 0.41193 0.08292 0.03900
C 	C 	0.54191 0.57688 0.97056 -0.09700
C 	C 	0.57092 0.57327 0.97693 0.01900
C 	C 	0.58957 0.59665 0.97242 -0.06900
C 	C 	0.57932 0.62366 0.96100 0.02800
C 	C 	0.55088 0.62621 0.95043 -0.06900
C 	C 	0.53220 0.60296 0.95546 0.02100
C 	C 	0.59693 0.64990 0.96597 0.00100
C 	C 	0.58809 0.67170 0.99052 -0.04000
C 	C 	0.60572 0.69536 0.99794 -0.03000
C 	C 	0.63237 0.69740 0.98106 -0.01300
C 	C 	0.64104 0.67604 0.95587 -0.03000
C 	C 	0.62334 0.65235 0.94827 -0.04100
C 	C 	0.65141 0.72047 0.99142 0.05800
C 	C 	0.66708 0.73973 0.00108 -0.12500
H 	H 	0.57869 0.55305 0.98806 0.03000
H 	H 	0.61158 0.59426 0.98008 0.04600
H 	H 	0.54291 0.64673 0.94055 0.04800
H 	H 	0.50990 0.60579 0.94977 0.03100
H 	H 	0.56785 0.66992 0.00454 0.03600
H 	H 	0.59891 0.71179 0.01743 0.03700
H 	H 	0.66161 0.67751 0.94267 0.03900
H 	H 	0.63032 0.63573 0.92917 0.04000
