data_crystal

_cell_length_a 35.30263
_cell_length_b 35.83644
_cell_length_c 26.59059
_cell_angle_alpha 95.56651
_cell_angle_beta  95.56381
_cell_angle_gamma 125.37434

_symmetry_space_group_name_	'P 1'
_symmetry_space_group_name_H-M	'P 1'

loop_
_symmetry_equiv_pos_as_xyz
  x,y,z

loop_
_atom_site_label
_atom_site_type_symbol
_atom_site_fract_x
_atom_site_fract_y
_atom_site_fract_z
_atom_site_charge
C 	C 	0.98160 0.02680 0.00098 0.05500
C 	C 	0.02968 0.05283 0.99788 -0.08600
C 	C 	0.05192 0.03085 0.99424 0.05700
H 	H 	0.04949 0.08986 0.99768 0.05800
C 	C 	0.99963 0.02512 0.42249 -0.08200
C 	C 	0.02223 0.00352 0.42670 0.04800
H 	H 	0.02000 0.06185 0.42051 0.05500
Cu	Cu	0.65591 0.26848 0.99419 0.93200
Cu	Cu	0.69496 0.26808 0.88718 0.87600
Cu	Cu	0.68695 0.34315 0.92798 0.90000
Cu	Cu	0.65727 0.35579 0.02645 0.89600
C 	C 	0.66566 0.30221 0.10080 0.33400
O 	O 	0.58699 0.24224 0.99074 -0.34500
C 	C 	0.67497 0.31161 0.81613 0.33000
O 	O 	0.69539 0.34101 0.99958 -0.63700
O 	O 	0.65222 0.27413 0.92084 -0.64000
O 	O 	0.68319 0.23296 0.99298 -0.36500
O 	O 	0.73743 0.27934 0.94621 -0.43500
O 	O 	0.64607 0.32245 0.08565 -0.36700
O 	O 	0.72371 0.41041 0.94023 -0.36500
C 	C 	0.71924 0.43582 0.97509 0.31100
C 	C 	0.56948 0.26257 0.97091 0.30400
O 	O 	0.59801 0.30585 0.96487 -0.38600
O 	O 	0.68600 0.41668 0.00327 -0.39300
O 	O 	0.66961 0.27534 0.06742 -0.35400
C 	C 	0.72310 0.24914 0.97699 0.31000
O 	O 	0.68953 0.34624 0.85441 -0.35500
O 	O 	0.66787 0.27259 0.82465 -0.41700
H 	H 	0.72879 0.36038 0.01765 0.16500
H 	H 	0.61981 0.25603 0.90025 0.17600
Cu	Cu	0.72257 0.33623 0.42426 0.93000
Cu	Cu	0.72554 0.30066 0.53282 0.87600
Cu	Cu	0.64845 0.30754 0.49278 0.90000
Cu	Cu	0.63281 0.33393 0.39309 0.89700
C 	C 	0.68329 0.32084 0.31799 0.32700
O 	O 	0.74901 0.40410 0.42592 -0.34800
C 	C 	0.68268 0.32132 0.60458 0.32900
O 	O 	0.64902 0.29753 0.42090 -0.64000
O 	O 	0.71841 0.34170 0.49806 -0.63900
O 	O 	0.75792 0.30837 0.42537 -0.35900
O 	O 	0.71200 0.25698 0.47464 -0.43500
O 	O 	0.66433 0.34192 0.33249 -0.38000
O 	O 	0.58013 0.27105 0.48235 -0.36300
C 	C 	0.55343 0.27399 0.44703 0.30600
C 	C 	0.72839 0.42165 0.44521 0.30000
O 	O 	0.68488 0.39377 0.45264 -0.38800
O 	O 	0.57196 0.30641 0.41839 -0.38900
O 	O 	0.71411 0.32115 0.35089 -0.33100
C 	C 	0.74138 0.26947 0.44250 0.30700
O 	O 	0.64708 0.30708 0.56693 -0.35400
O 	O 	0.72229 0.32892 0.59506 -0.41700
H 	H 	0.62918 0.26434 0.40384 0.16800
H 	H 	0.73704 0.37399 0.51775 0.17600
C 	C 	0.63412 0.28323 0.72457 -0.09100
C 	C 	0.67230 0.31888 0.76274 -0.13100
C 	C 	0.71078 0.35855 0.74853 0.33400
C 	C 	0.71259 0.36072 0.69650 -0.09100
C 	C 	0.67596 0.32351 0.65829 -0.13100
C 	C 	0.63580 0.28553 0.67255 0.33400
F 	F 	0.59977 0.24946 0.63606 -0.44600
H 	H 	0.60395 0.25284 0.73517 0.08800
H 	H 	0.74336 0.39051 0.68589 0.08900
F 	F 	0.74777 0.39363 0.78500 -0.44600
C 	C 	0.71556 0.32534 0.18668 -0.09200
C 	C 	0.67056 0.29897 0.15528 -0.12700
C 	C 	0.63012 0.27431 0.17743 0.34200
C 	C 	0.63461 0.27884 0.23085 -0.09500
C 	C 	0.67948 0.30796 0.26258 -0.12500
C 	C 	0.72011 0.32993 0.24024 0.34000
F 	F 	0.76382 0.35798 0.27041 -0.43800
H 	H 	0.74695 0.34407 0.16979 0.08400
H 	H 	0.60312 0.26124 0.24772 0.08000
F 	F 	0.58639 0.24753 0.14724 -0.44300
C 	C 	0.74973 0.47042 0.44854 -0.10100
C 	C 	0.79187 0.19312 0.41606 -0.00800
C 	C 	0.76751 0.14900 0.42961 -0.03000
C 	C 	0.78601 0.12350 0.42645 -0.04300
C 	C 	0.82903 0.14194 0.40964 0.01100
C 	C 	0.85274 0.18558 0.39472 -0.04300
C 	C 	0.83421 0.21110 0.39798 -0.02900
C 	C 	0.85040 0.11663 0.41017 0.00500
C 	C 	0.82633 0.07190 0.38012 -0.03700
C 	C 	0.84589 0.04734 0.38211 -0.04300
C 	C 	0.88962 0.06736 0.41408 0.01800
C 	C 	0.91378 0.11208 0.44391 -0.04300
C 	C 	0.89426 0.13662 0.44202 -0.03700
C 	C 	0.91008 0.04234 0.41590 -0.01000
C 	C 	0.92799 0.02217 0.41815 -0.02800
C 	C 	0.77504 0.22112 0.42416 0.05000
C 	C 	0.75993 0.24358 0.43145 -0.10900
H 	H 	0.73475 0.13487 0.44361 0.04000
H 	H 	0.76746 0.08990 0.43812 0.04200
H 	H 	0.88580 0.19999 0.38133 0.04300
H 	H 	0.85321 0.24514 0.38735 0.04500
H 	H 	0.79249 0.05617 0.35536 0.04100
H 	H 	0.82708 0.01284 0.35882 0.04300
H 	H 	0.94764 0.12779 0.46864 0.04300
H 	H 	0.91298 0.17098 0.46563 0.04000
C 	C 	0.41165 0.19975 0.44530 -0.00400
C 	C 	0.38012 0.15455 0.41619 -0.02900
C 	C 	0.33144 0.13023 0.41434 -0.04200
C 	C 	0.31403 0.15101 0.44165 0.01200
C 	C 	0.34571 0.19615 0.47108 -0.04200
C 	C 	0.39436 0.22043 0.47287 -0.02800
C 	C 	0.26266 0.12559 0.43926 0.00500
C 	C 	0.23713 0.08396 0.45825 -0.03600
C 	C 	0.18839 0.05973 0.45570 -0.04200
C 	C 	0.16489 0.07693 0.43420 0.01800
C 	C 	0.19032 0.11855 0.41534 -0.04200
C 	C 	0.23907 0.14282 0.41784 -0.03700
C 	C 	0.11463 0.05166 0.43122 -0.01100
C 	C 	0.07253 0.03005 0.42903 -0.02800
C 	C 	0.46163 0.22544 0.44578 0.05000
C 	C 	0.50355 0.24730 0.44649 -0.09500
H 	H 	0.39324 0.13838 0.39473 0.04200
H 	H 	0.30726 0.09544 0.39144 0.04300
H 	H 	0.33263 0.21238 0.49251 0.04400
H 	H 	0.41855 0.25537 0.49545 0.04500
H 	H 	0.25505 0.07049 0.47504 0.04200
H 	H 	0.16893 0.02758 0.47038 0.04300
H 	H 	0.17236 0.13203 0.39864 0.04200
H 	H 	0.25845 0.17484 0.40293 0.04100
C 	C 	0.78914 0.18725 0.99703 -0.00300
C 	C 	0.82778 0.20587 0.03703 -0.03500
C 	C 	0.85209 0.18599 0.04007 -0.04000
C 	C 	0.83788 0.14741 0.00303 0.00600
C 	C 	0.79850 0.12817 0.96374 -0.03700
C 	C 	0.77424 0.14805 0.96077 -0.03300
C 	C 	0.86523 0.12824 0.00418 0.00300
C 	C 	0.86624 0.10617 0.04454 -0.03700
C 	C 	0.89081 0.08651 0.04453 -0.04100
C 	C 	0.91451 0.08887 0.00425 0.01300
C 	C 	0.91404 0.11143 0.96426 -0.03800
C 	C 	0.88949 0.13107 0.96421 -0.03400
C 	C 	0.93828 0.06712 0.00324 -0.00900
C 	C 	0.95818 0.04889 0.00243 -0.03200
C 	C 	0.76640 0.20978 0.99141 0.05000
C 	C 	0.74668 0.22792 0.98572 -0.11300
H 	H 	0.83946 0.23616 0.06524 0.04400
H 	H 	0.88242 0.20103 0.07059 0.04300
H 	H 	0.78707 0.09818 0.93520 0.04100
H 	H 	0.74431 0.13342 0.92981 0.03800
H 	H 	0.84758 0.10379 0.07552 0.04100
H 	H 	0.89106 0.06913 0.07557 0.04200
H 	H 	0.93237 0.11345 0.93305 0.04300
H 	H 	0.88909 0.14827 0.93303 0.04000
C 	C 	0.42912 0.20205 0.96429 -0.00500
C 	C 	0.40378 0.16540 0.99077 -0.02400
C 	C 	0.35641 0.14584 0.99226 -0.03800
C 	C 	0.33404 0.16279 0.96721 0.01100
C 	C 	0.35939 0.19939 0.94052 -0.04200
C 	C 	0.40684 0.21896 0.93906 -0.02900
C 	C 	0.28397 0.14180 0.96848 0.00500
C 	C 	0.24894 0.09505 0.94538 -0.03600
C 	C 	0.20182 0.07410 0.94962 -0.04100
C 	C 	0.18937 0.09973 0.97691 0.01600
C 	C 	0.22411 0.14672 0.99910 -0.03800
C 	C 	0.27133 0.16775 0.99488 -0.03300
C 	C 	0.14131 0.07710 0.98389 -0.00700
C 	C 	0.10068 0.05685 0.98885 -0.03000
C 	C 	0.47859 0.22378 0.96532 0.05400
C 	C 	0.51997 0.24134 0.96680 -0.09800
H 	H 	0.42090 0.15236 0.01060 0.04700
H 	H 	0.33713 0.11768 0.01308 0.04100
H 	H 	0.34235 0.21258 0.92090 0.04300
H 	H 	0.42631 0.24743 0.91869 0.04200
H 	H 	0.25836 0.07483 0.92473 0.04200
H 	H 	0.17509 0.03777 0.93228 0.04300
H 	H 	0.21470 0.16675 0.02020 0.03900
H 	H 	0.29815 0.20387 0.01288 0.03800
C 	C 	0.74524 0.48486 0.97580 -0.09600
C 	C 	0.76651 0.51100 0.44987 0.04800
C 	C 	0.76634 0.52603 0.97657 0.05100
C 	C 	0.95079 0.99941 0.42124 0.05100
C 	C 	0.02622 0.98299 0.99401 -0.09200
C 	C 	0.97822 0.95695 0.99699 0.06100
C 	C 	0.95590 0.97885 0.00065 -0.09400
H 	H 	0.04341 0.96593 0.99084 0.05800
H 	H 	0.91859 0.95861 0.00260 0.05800
C 	C 	0.99600 0.95618 0.42948 -0.08300
C 	C 	0.94721 0.93035 0.42828 0.05100
C 	C 	0.92451 0.95194 0.42411 -0.08600
H 	H 	0.01357 0.93951 0.43287 0.05500
H 	H 	0.88676 0.93203 0.42338 0.05600
C 	C 	0.78679 0.55949 0.45103 -0.00500
C 	C 	0.81521 0.58286 0.41551 -0.02900
C 	C 	0.83221 0.62892 0.41409 -0.04200
C 	C 	0.82082 0.65192 0.44817 0.01100
C 	C 	0.79284 0.62865 0.48416 -0.04200
C 	C 	0.77588 0.58257 0.48556 -0.03000
C 	C 	0.83844 0.70042 0.44633 0.00500
C 	C 	0.82533 0.71125 0.40156 -0.03700
C 	C 	0.84446 0.75761 0.39865 -0.04200
C 	C 	0.87673 0.79339 0.44046 0.01800
C 	C 	0.88881 0.78251 0.48570 -0.04200
C 	C 	0.86975 0.73620 0.48866 -0.03600
C 	C 	0.90051 0.84142 0.43546 -0.01000
C 	C 	0.92082 0.88183 0.43206 -0.02900
H 	H 	0.82371 0.56522 0.38864 0.04600
H 	H 	0.85412 0.64670 0.38647 0.04400
H 	H 	0.78389 0.64610 0.51067 0.04300
H 	H 	0.75380 0.56467 0.51302 0.04200
H 	H 	0.80085 0.68384 0.36884 0.04100
H 	H 	0.83493 0.76574 0.36356 0.04300
H 	H 	0.91376 0.81000 0.51817 0.04300
H 	H 	0.88004 0.72821 0.52339 0.04100
C 	C 	0.79129 0.57511 0.97710 -0.00000
C 	C 	0.82668 0.60763 0.01923 -0.03300
C 	C 	0.84921 0.65526 0.02097 -0.04500
C 	C 	0.83642 0.67062 0.98056 0.01500
C 	C 	0.80135 0.63801 0.93813 -0.04200
C 	C 	0.77887 0.59040 0.93643 -0.02800
C 	C 	0.85962 0.72077 0.98274 0.00800
C 	C 	0.85455 0.74619 0.02158 -0.04000
C 	C 	0.87729 0.79396 0.02416 -0.04600
C 	C 	0.90516 0.81653 0.98796 0.02100
C 	C 	0.90987 0.79112 0.94885 -0.04200
C 	C 	0.88719 0.74338 0.94623 -0.03600
C 	C 	0.93027 0.86603 0.99189 -0.00800
C 	C 	0.95162 0.90745 0.99446 -0.03000
H 	H 	0.83645 0.59602 0.05080 0.04100
H 	H 	0.87649 0.68020 0.05371 0.04300
H 	H 	0.79125 0.64955 0.90675 0.04400
H 	H 	0.75149 0.56542 0.90377 0.04700
H 	H 	0.83311 0.72897 0.04975 0.04000
H 	H 	0.87350 0.81342 0.05449 0.04300
H 	H 	0.93143 0.80841 0.92077 0.04400
H 	H 	0.89135 0.72405 0.91616 0.04200
