data_crystal

_cell_length_a 24.69864
_cell_length_b 24.24095
_cell_length_c 36.91844
_cell_angle_alpha 95.48904
_cell_angle_beta  95.48751
_cell_angle_gamma 125.82269

_symmetry_space_group_name_	'P 1'
_symmetry_space_group_name_H-M	'P 1'

loop_
_symmetry_equiv_pos_as_xyz
  x,y,z

loop_
_atom_site_label
_atom_site_type_symbol
_atom_site_fract_x
_atom_site_fract_y
_atom_site_fract_z
_atom_site_charge
N 	N 	0.04361 0.98526 0.02154 -0.11100
C 	C 	0.07540 0.05148 0.01626 0.09400
N 	N 	0.03844 0.07519 0.00819 -0.11600
C 	C 	0.04579 0.02146 0.46204 0.09300
O 	O 	0.15669 0.13678 0.46465 -0.19700
C 	C 	0.11996 0.07058 0.47335 0.10500
H 	H 	0.14334 0.00922 0.50136 0.06700
C 	C 	0.14988 0.09842 0.02137 0.10400
C 	C 	0.15730 0.05949 0.49753 -0.08900
H 	H 	0.01037 0.16811 0.00021 0.07500
N 	N 	0.00948 0.04489 0.45199 -0.10500
H 	H 	0.17427 0.04209 0.05373 0.06800
C 	C 	0.22063 0.11877 0.50507 0.02400
C 	C 	0.22012 0.16390 0.48513 0.11400
O 	O 	0.18360 0.15007 0.00032 -0.20100
C 	C 	0.19126 0.08900 0.04327 -0.08900
N 	N 	0.01323 0.95295 0.46225 -0.11100
C 	C 	0.24927 0.17061 0.01156 0.11400
C 	C 	0.25415 0.13510 0.03727 0.02400
C 	C 	0.27983 0.12362 0.51461 -0.09100
C 	C 	0.28058 0.21877 0.47608 -0.08400
H 	H 	0.27766 0.08168 0.52429 0.07000
H 	H 	0.27965 0.24913 0.45666 0.07000
C 	C 	0.29983 0.20394 0.99003 -0.08400
C 	C 	0.30566 0.12632 0.04027 -0.09300
H 	H 	0.29312 0.22512 0.96695 0.06800
H 	H 	0.30292 0.08894 0.05547 0.07200
C 	C 	0.34118 0.18182 0.50838 0.11800
C 	C 	0.34138 0.22953 0.49054 0.01000
C 	C 	0.35688 0.20445 0.99782 0.00500
C 	C 	0.35888 0.16463 0.02120 0.12100
O 	O 	0.39750 0.18248 0.50664 -0.18500
C 	C 	0.39763 0.26213 0.47565 -0.05900
C 	C 	0.39997 0.21600 0.97493 -0.05900
H 	H 	0.40512 0.28931 0.45278 0.05800
O 	O 	0.40431 0.15000 0.01550 -0.18400
C 	C 	0.43022 0.23355 0.48522 0.04600
H 	H 	0.41939 0.25536 0.95788 0.05500
C 	C 	0.43079 0.18651 0.98686 0.03800
C 	C 	0.49596 0.25692 0.47569 0.25900
C 	C 	0.49987 0.21340 0.98159 0.25300
O 	O 	0.51595 0.29056 0.44776 -0.37700
O 	O 	0.52727 0.18492 0.99487 -0.33800
O 	O 	0.52826 0.23481 0.49153 -0.35900
O 	O 	0.53929 0.27508 0.97333 -0.38000
C 	C 	0.96997 0.03316 0.00639 0.08800
N 	N 	0.93868 0.96735 0.01214 -0.11400
C 	C 	0.97534 0.94317 0.01949 0.09500
C 	C 	0.94062 0.00064 0.44342 0.09000
N 	N 	0.90797 0.93216 0.44396 -0.12400
C 	C 	0.94435 0.90818 0.45313 0.09400
Cu	Cu	0.62810 0.23072 0.99926 0.92900
Cu	Cu	0.68952 0.22732 0.92481 0.87200
Cu	Cu	0.67103 0.33532 0.94767 0.89800
Cu	Cu	0.62307 0.35738 0.01591 0.89700
C 	C 	0.64182 0.28943 0.07442 0.30500
C 	C 	0.65648 0.28143 0.86903 0.30800
O 	O 	0.68080 0.33738 0.99986 -0.64200
O 	O 	0.62422 0.23394 0.94580 -0.64000
O 	O 	0.67318 0.18465 0.00294 -0.36000
O 	O 	0.75159 0.25290 0.96902 -0.41600
O 	O 	0.61191 0.31640 0.06168 -0.37800
O 	O 	0.72106 0.43458 0.95361 -0.36900
C 	C 	0.70966 0.47163 0.97559 0.25600
O 	O 	0.65867 0.44208 0.99376 -0.36900
O 	O 	0.64576 0.24606 0.05233 -0.35600
C 	C 	0.73292 0.21259 0.99367 0.25400
O 	O 	0.67781 0.33532 0.89480 -0.38500
O 	O 	0.65050 0.22680 0.87753 -0.41700
H 	H 	0.72845 0.36863 0.01343 0.16800
H 	H 	0.57792 0.20449 0.93049 0.17700
Cu	Cu	0.72976 0.32965 0.44838 0.92800
Cu	Cu	0.72732 0.25873 0.52030 0.87300
Cu	Cu	0.62492 0.28272 0.49830 0.89900
Cu	Cu	0.60563 0.33525 0.43113 0.89600
C 	C 	0.67756 0.32354 0.37387 0.30600
O 	O 	0.77238 0.43226 0.45600 -0.35200
C 	C 	0.67409 0.29187 0.57655 0.30800
O 	O 	0.62467 0.27530 0.44622 -0.64000
O 	O 	0.72400 0.32850 0.50128 -0.64300
O 	O 	0.77441 0.28319 0.44364 -0.36300
O 	O 	0.70389 0.19931 0.47478 -0.41400
O 	O 	0.65227 0.35450 0.38753 -0.38000
C 	C 	0.74523 0.45809 0.47309 0.24900
O 	O 	0.68152 0.41705 0.47700 -0.36900
O 	O 	0.71816 0.31651 0.39547 -0.35900
C 	C 	0.74494 0.22054 0.45085 0.25500
O 	O 	0.62238 0.27256 0.55059 -0.38300
O 	O 	0.72651 0.29510 0.56832 -0.41600
H 	H 	0.59434 0.22721 0.43203 0.17100
H 	H 	0.75317 0.37451 0.51779 0.17400
C 	C 	0.64865 0.29903 0.76023 -0.00400
C 	C 	0.70490 0.35654 0.74968 -0.03300
C 	C 	0.70802 0.35832 0.71214 -0.03300
C 	C 	0.65489 0.30262 0.68501 -0.00300
C 	C 	0.59750 0.24630 0.69553 -0.03300
C 	C 	0.59440 0.24450 0.73307 -0.03300
C 	C 	0.64957 0.29307 0.79868 0.04800
C 	C 	0.65179 0.28778 0.83083 -0.10600
C 	C 	0.66170 0.30052 0.64670 0.04800
C 	C 	0.66748 0.29742 0.61466 -0.10500
H 	H 	0.74699 0.39895 0.77052 0.04400
H 	H 	0.75247 0.40211 0.70422 0.04300
H 	H 	0.55614 0.20313 0.67471 0.04400
H 	H 	0.55071 0.19992 0.74101 0.04300
C 	C 	0.66787 0.29574 0.18590 -0.00100
C 	C 	0.61978 0.23784 0.20012 -0.03200
C 	C 	0.62344 0.24181 0.23842 -0.03200
C 	C 	0.67521 0.30368 0.26264 -0.00200
C 	C 	0.72428 0.36104 0.24845 -0.03100
C 	C 	0.72061 0.35708 0.21014 -0.03200
C 	C 	0.66032 0.29369 0.14653 0.04800
C 	C 	0.65271 0.29190 0.11359 -0.09500
C 	C 	0.67595 0.30954 0.30189 0.04800
C 	C 	0.67654 0.31534 0.33475 -0.09800
H 	H 	0.57887 0.19024 0.18154 0.04700
H 	H 	0.58541 0.19722 0.24920 0.04400
H 	H 	0.76453 0.40901 0.26702 0.04600
H 	H 	0.75797 0.40205 0.19935 0.04400
C 	C 	0.89420 0.73821 0.45253 0.11500
C 	C 	0.90819 0.69350 0.46377 -0.08600
C 	C 	0.86175 0.64105 0.48173 0.01000
C 	C 	0.80218 0.63116 0.48682 0.11800
C 	C 	0.78880 0.67668 0.47602 -0.09200
C 	C 	0.83454 0.72805 0.45734 0.02200
O 	O 	0.94495 0.80478 0.44793 -0.20200
C 	C 	0.90991 0.83354 0.45077 0.10100
C 	C 	0.84425 0.78846 0.45654 -0.08700
O 	O 	0.75036 0.56363 0.48954 -0.19300
C 	C 	0.78373 0.53352 0.48435 0.04200
C 	C 	0.85025 0.57938 0.47997 -0.06000
H 	H 	0.95434 0.70027 0.45942 0.06800
H 	H 	0.74254 0.66984 0.48018 0.06800
H 	H 	0.81617 0.80393 0.46924 0.06200
H 	H 	0.87798 0.56482 0.46601 0.06000
C 	C 	0.88600 0.10392 0.43177 0.11700
C 	C 	0.88343 0.15453 0.41826 -0.08800
C 	C 	0.82172 0.14610 0.41498 0.00900
C 	C 	0.76576 0.09118 0.42617 0.11800
C 	C 	0.76817 0.03955 0.43864 -0.09700
C 	C 	0.83023 0.04907 0.44244 0.00900
O 	O 	0.93468 0.09412 0.42579 -0.19800
C 	C 	0.90200 0.02730 0.43367 0.09100
C 	C 	0.83849 0.99917 0.44230 -0.06900
O 	O 	0.72200 0.10513 0.43702 -0.19400
C 	C 	0.75777 0.17397 0.43229 0.03800
C 	C 	0.81687 0.19861 0.41891 -0.05600
H 	H 	0.92770 0.19870 0.41048 0.06900
H 	H 	0.72450 0.99590 0.44712 0.07300
H 	H 	0.81003 0.95454 0.45541 0.05900
H 	H 	0.85986 0.25286 0.42314 0.05700
C 	C 	0.91013 0.76800 0.01306 0.11500
C 	C 	0.89951 0.71046 0.99152 -0.08700
C 	C 	0.83233 0.65200 0.97783 0.01000
C 	C 	0.77790 0.64824 0.98756 0.11800
C 	C 	0.78841 0.70549 0.00925 -0.09100
C 	C 	0.85553 0.76439 0.02256 0.02300
O 	O 	0.96740 0.83507 0.01419 -0.20200
C 	C 	0.94115 0.87096 0.02398 0.10300
C 	C 	0.87480 0.82940 0.02928 -0.08700
O 	O 	0.72023 0.58114 0.98564 -0.18800
C 	C 	0.74572 0.54524 0.97423 0.04400
C 	C 	0.81239 0.58686 0.96954 -0.05600
H 	H 	0.94199 0.71245 0.98420 0.06800
H 	H 	0.74586 0.70345 0.01646 0.07100
H 	H 	0.84022 0.84323 0.02714 0.07100
H 	H 	0.84631 0.57220 0.97122 0.05300
C 	C 	0.85912 0.18846 0.01294 0.11800
C 	C 	0.91310 0.19216 0.00078 -0.09300
C 	C 	0.90564 0.13026 0.99162 0.02400
C 	C 	0.84930 0.06788 0.99667 0.11000
C 	C 	0.79612 0.06445 0.00969 -0.08500
C 	C 	0.80343 0.12630 0.01889 0.00700
O 	O 	0.84622 0.23578 0.00690 -0.19300
C 	C 	0.77735 0.19575 0.00929 0.03900
C 	C 	0.75158 0.13070 0.01659 -0.05500
O 	O 	0.86037 0.01865 0.00049 -0.20300
C 	C 	0.92927 0.05822 0.99821 0.10400
C 	C 	0.95685 0.12486 0.99296 -0.09700
H 	H 	0.95770 0.24094 0.99680 0.06700
H 	H 	0.75143 0.01556 0.01351 0.06600
H 	H 	0.69840 0.08652 0.00921 0.05400
