data_crystal

_cell_length_a 37.14548
_cell_length_b 32.34088
_cell_length_c 31.68655
_cell_angle_alpha 103.36092
_cell_angle_beta  115.64332
_cell_angle_gamma 112.95884

_symmetry_space_group_name_	'P 1'
_symmetry_space_group_name_H-M	'P 1'

loop_
_symmetry_equiv_pos_as_xyz
  x,y,z

loop_
_atom_site_label
_atom_site_type_symbol
_atom_site_fract_x
_atom_site_fract_y
_atom_site_fract_z
_atom_site_charge
C 	C 	0.61511 0.29043 0.92016 0.03600
C 	C 	0.63636 0.34165 0.93107 -0.07800
C 	C 	0.67754 0.36623 0.93222 0.03600
C 	C 	0.69750 0.33951 0.92247 -0.07700
C 	C 	0.67635 0.28831 0.91163 0.03500
C 	C 	0.63499 0.26374 0.91018 -0.07800
H 	H 	0.62113 0.36240 0.93905 0.05200
H 	H 	0.72957 0.35861 0.92371 0.05100
H 	H 	0.61848 0.22407 0.90161 0.05100
C 	C 	0.58191 0.25025 0.38852 0.03300
C 	C 	0.59512 0.29687 0.38760 -0.07800
C 	C 	0.63027 0.31870 0.37886 0.03300
C 	C 	0.65220 0.29388 0.37099 -0.07800
C 	C 	0.63933 0.24748 0.37218 0.03300
C 	C 	0.60403 0.22558 0.38074 -0.07800
H 	H 	0.57801 0.31597 0.39351 0.05000
H 	H 	0.67964 0.31094 0.36458 0.05100
H 	H 	0.59431 0.18988 0.38209 0.05100
C 	C 	0.47710 0.76974 0.97084 0.03000
C 	C 	0.45583 0.79729 0.97164 -0.07500
C 	C 	0.41335 0.77642 0.96878 0.03100
C 	C 	0.39212 0.72789 0.96507 -0.07400
C 	C 	0.41320 0.70022 0.96434 0.02800
C 	C 	0.45563 0.72112 0.96709 -0.07400
H 	H 	0.47242 0.83492 0.97480 0.05100
H 	H 	0.35908 0.71155 0.96242 0.05200
H 	H 	0.47190 0.69971 0.96638 0.05000
C 	C 	0.44520 0.73675 0.44586 0.03300
C 	C 	0.42456 0.76417 0.45098 -0.07800
C 	C 	0.38392 0.74264 0.45148 0.03400
C 	C 	0.36406 0.69369 0.44706 -0.07800
C 	C 	0.38464 0.66622 0.44214 0.03300
C 	C 	0.42512 0.68772 0.44139 -0.07800
H 	H 	0.44012 0.80213 0.45468 0.05100
H 	H 	0.33237 0.67679 0.44692 0.05100
H 	H 	0.44094 0.66642 0.43735 0.05000
Zn	Zn	0.13537 0.12104 0.97983 1.18600
Zn	Zn	0.05087 0.07209 0.86258 1.19400
O 	O 	0.00216 0.96381 0.75299 -0.47600
O 	O 	0.02129 0.04612 0.78313 -0.44400
O 	O 	0.03755 0.92501 0.84635 -0.50100
C 	C 	0.18139 0.09733 0.93724 0.30900
O 	O 	0.00262 0.00586 0.84826 -0.87700
C 	C 	0.13466 0.18262 0.92494 0.31400
O 	O 	0.18896 0.12132 0.98273 -0.46600
O 	O 	0.13742 0.06859 0.89311 -0.35800
O 	O 	0.07027 0.08539 0.93796 -0.78100
O 	O 	0.08770 0.99775 0.92662 -0.45000
O 	O 	0.10410 0.13874 0.87964 -0.45100
O 	O 	0.14812 0.18338 0.97118 -0.45900
Zn	Zn	0.92825 0.92796 0.88552 1.17500
Zn	Zn	0.02080 0.95705 0.97839 1.19500
Zn	Zn	0.02910 0.01622 0.92000 1.21600
C 	C 	0.93396 0.86033 0.93602 0.31700
C 	C 	0.91564 0.97267 0.95989 0.31900
O 	O 	0.97193 0.03818 0.91450 -0.46400
Zn	Zn	0.03085 0.05418 0.02214 1.19700
O 	O 	0.98094 0.88593 0.96054 -0.46800
O 	O 	0.90673 0.86636 0.89747 -0.46300
O 	O 	0.89750 0.95404 0.90891 -0.47900
O 	O 	0.95864 0.98318 0.99362 -0.46600
C 	C 	0.05711 0.01305 0.09324 0.31500
O 	O 	0.98756 0.94687 0.90217 -0.81200
C 	C 	0.97780 0.07620 0.94953 0.31700
O 	O 	0.05565 0.97949 0.05843 -0.43800
O 	O 	0.06042 0.05425 0.09034 -0.46600
O 	O 	0.00457 0.09095 0.00062 -0.49300
O 	O 	0.05492 0.02668 0.99154 -0.88700
Zn	Zn	0.00587 0.95384 0.81319 1.18600
C 	C 	0.01789 0.00760 0.75200 0.31200
C 	C 	0.07797 0.95465 0.89449 0.31300
H 	H 	0.09036 0.04453 0.01490 0.14700
H 	H 	0.96966 0.99823 0.82941 0.15100
Zn	Zn	0.10690 0.08780 0.45622 1.18600
Zn	Zn	0.02683 0.03526 0.33570 1.19600
O 	O 	0.01602 0.94380 0.25455 -0.47100
O 	O 	0.00172 0.00673 0.25799 -0.45200
O 	O 	0.01389 0.88889 0.33394 -0.49500
C 	C 	0.16398 0.06608 0.43085 0.30000
O 	O 	0.97944 0.96804 0.32050 -0.87800
C 	C 	0.10875 0.14666 0.39796 0.31600
O 	O 	0.16530 0.09182 0.47078 -0.46700
O 	O 	0.12249 0.03316 0.38387 -0.33900
O 	O 	0.04189 0.04990 0.40952 -0.78800
O 	O 	0.05880 0.96265 0.41191 -0.44400
O 	O 	0.07965 0.10237 0.35333 -0.45600
O 	O 	0.12014 0.14852 0.44429 -0.46100
Zn	Zn	0.89509 0.89872 0.35237 1.17400
Zn	Zn	0.97768 0.92769 0.45197 1.18500
Zn	Zn	0.99868 0.98167 0.39200 1.21400
C 	C 	0.88806 0.82615 0.39753 0.32100
C 	C 	0.87582 0.94466 0.41890 0.32000
O 	O 	0.93933 0.00383 0.37210 -0.47300
Zn	Zn	0.99188 0.02738 0.48380 1.19800
O 	O 	0.93506 0.85684 0.43445 -0.46500
O 	O 	0.86601 0.83541 0.35901 -0.46800
O 	O 	0.86278 0.92697 0.36961 -0.48200
O 	O 	0.91902 0.95943 0.45778 -0.46600
C 	C 	0.01204 0.99787 0.56505 0.33000
O 	O 	0.95474 0.91379 0.37526 -0.79900
C 	C 	0.94225 0.04286 0.40176 0.32200
O 	O 	0.99971 0.95371 0.53098 -0.44200
O 	O 	0.02146 0.03695 0.55566 -0.47400
O 	O 	0.96691 0.06152 0.45363 -0.49900
O 	O 	0.01743 0.99527 0.46292 -0.88900
Zn	Zn	0.99110 0.91973 0.29437 1.17900
C 	C 	0.01102 0.97576 0.23704 0.30800
C 	C 	0.05057 0.91855 0.38443 0.31200
H 	H 	0.05230 0.01194 0.48966 0.15600
H 	H 	0.94578 0.95728 0.29631 0.15000
C 	C 	0.02046 0.00906 0.70714 -0.09300
C 	C 	0.04083 0.98642 0.69013 0.02700
C 	C 	0.03825 0.98344 0.64393 -0.01600
H 	H 	0.05332 0.96546 0.63055 0.04100
C 	C 	0.01665 0.00388 0.61518 -0.07900
C 	C 	0.99839 0.02876 0.63386 0.00400
C 	C 	0.00052 0.03113 0.67960 0.00700
H 	H 	0.98525 0.04891 0.69283 0.03100
C 	C 	0.97498 0.05045 0.60464 0.00100
C 	C 	0.92461 0.02263 0.57018 -0.04400
C 	C 	0.90242 0.04379 0.54377 -0.03000
C 	C 	0.93040 0.09248 0.55122 -0.02500
C 	C 	0.98058 0.12082 0.58650 -0.05900
C 	C 	0.00288 0.10032 0.61400 -0.02000
C 	C 	0.06555 0.96649 0.72094 0.01600
C 	C 	0.04289 0.91347 0.70201 -0.05200
C 	C 	0.06485 0.89476 0.73291 -0.02300
C 	C 	0.10961 0.92881 0.78245 -0.04400
C 	C 	0.13259 0.98161 0.80114 -0.01100
C 	C 	0.11071 0.00052 0.77047 -0.06100
H 	H 	0.04710 0.85389 0.71852 0.03000
H 	H 	0.12657 0.91428 0.80628 0.04300
H 	H 	0.16731 0.00783 0.83937 0.03700
H 	H 	0.12847 0.04148 0.78536 0.04700
H 	H 	0.00798 0.88690 0.66391 0.04400
H 	H 	0.90276 0.98504 0.56453 0.04400
H 	H 	0.86356 0.02266 0.51792 0.03800
H 	H 	0.04175 0.12271 0.64179 0.03700
H 	H 	0.00218 0.15877 0.59275 0.04300
H 	H 	0.91317 0.10847 0.53013 0.03400
C 	C 	0.02491 0.98372 0.20127 -0.05400
C 	C 	0.99937 0.94395 0.14918 -0.01500
C 	C 	0.01281 0.95312 0.11560 0.02600
H 	H 	0.99205 0.92300 0.07492 0.02400
C 	C 	0.05063 0.00189 0.13284 -0.10300
C 	C 	0.07738 0.04108 0.18573 0.03900
C 	C 	0.06424 0.03171 0.21948 -0.03400
H 	H 	0.08465 0.06187 0.26002 0.04800
C 	C 	0.11950 0.09176 0.20633 0.01200
C 	C 	0.16244 0.09724 0.21721 -0.04600
C 	C 	0.20228 0.14531 0.23683 -0.02700
C 	C 	0.19937 0.18795 0.24555 -0.04200
C 	C 	0.15665 0.18262 0.23475 -0.02800
C 	C 	0.11687 0.13474 0.21560 -0.04400
C 	C 	0.95666 0.89367 0.12820 0.02100
C 	C 	0.95961 0.85103 0.12296 -0.05900
C 	C 	0.91858 0.80294 0.10085 -0.02500
C 	C 	0.87446 0.79716 0.08341 -0.04900
C 	C 	0.87131 0.83948 0.08817 -0.02800
C 	C 	0.91233 0.88772 0.11064 -0.06500
H 	H 	0.92086 0.77004 0.09669 0.02700
H 	H 	0.84265 0.75981 0.06582 0.03100
H 	H 	0.83708 0.83488 0.07433 0.02200
H 	H 	0.90967 0.92037 0.11419 0.04000
H 	H 	0.99355 0.85514 0.13578 0.04200
H 	H 	0.16490 0.06434 0.21049 0.04200
H 	H 	0.23539 0.14951 0.24524 0.02900
H 	H 	0.08396 0.13093 0.20762 0.04300
H 	H 	0.15445 0.21566 0.24150 0.02900
H 	H 	0.23023 0.22512 0.26070 0.03100
C 	C 	0.13321 0.19448 0.39696 -0.10200
C 	C 	0.15045 0.19594 0.36526 0.02500
C 	C 	0.17689 0.24236 0.36759 -0.07700
C 	C 	0.18567 0.28738 0.40097 0.04700
C 	C 	0.16770 0.28580 0.43179 -0.07700
C 	C 	0.14171 0.23959 0.42995 0.02300
C 	C 	0.21391 0.33548 0.40451 -0.03500
C 	C 	0.23744 0.37624 0.40824 -0.00000
C 	C 	0.26492 0.42456 0.41360 -0.00800
C 	C 	0.28823 0.46627 0.41892 -0.02500
C 	C 	0.31577 0.51660 0.42605 0.02400
C 	C 	0.31607 0.52228 0.38364 -0.04900
C 	C 	0.33996 0.57127 0.38944 -0.03200
C 	C 	0.36358 0.61483 0.43768 -0.00700
C 	C 	0.36428 0.60905 0.48053 -0.03200
C 	C 	0.34044 0.56009 0.47470 -0.04900
H 	H 	0.14444 0.16148 0.33991 0.03300
H 	H 	0.19115 0.24344 0.34414 0.05000
H 	H 	0.17426 0.32044 0.45759 0.04900
H 	H 	0.12835 0.23889 0.45432 0.02400
H 	H 	0.29717 0.48883 0.34594 0.04100
H 	H 	0.33920 0.57536 0.35613 0.03600
H 	H 	0.38257 0.64245 0.51798 0.03600
H 	H 	0.34049 0.55599 0.50772 0.04200
C 	C 	0.48781 0.75937 0.44508 -0.00700
C 	C 	0.48486 0.77101 0.40414 -0.03200
C 	C 	0.52525 0.79247 0.40344 -0.04900
C 	C 	0.56882 0.80243 0.44361 0.02400
C 	C 	0.57189 0.79093 0.48458 -0.04900
C 	C 	0.53153 0.76948 0.48535 -0.03200
C 	C 	0.61019 0.82375 0.44233 -0.02500
C 	C 	0.64478 0.84160 0.44122 -0.00900
C 	C 	0.68519 0.86203 0.43967 -0.00100
C 	C 	0.71962 0.87895 0.43818 -0.03600
C 	C 	0.76069 0.89838 0.43622 0.04600
C 	C 	0.76552 0.92685 0.40941 -0.07800
C 	C 	0.80395 0.94320 0.40493 0.02300
C 	C 	0.83799 0.93152 0.42765 -0.10500
C 	C 	0.83323 0.90331 0.45479 0.02300
C 	C 	0.79486 0.88704 0.45927 -0.07900
H 	H 	0.45126 0.76323 0.37281 0.03600
H 	H 	0.52260 0.80119 0.37159 0.04200
H 	H 	0.60546 0.79851 0.51577 0.04000
H 	H 	0.53424 0.76086 0.51726 0.03600
H 	H 	0.73925 0.93578 0.39150 0.05000
H 	H 	0.80717 0.96473 0.38368 0.02800
H 	H 	0.85882 0.89329 0.47166 0.02800
H 	H 	0.79129 0.86495 0.47994 0.04700
C 	C 	0.08694 0.90672 0.40712 -0.11200
C 	C 	0.07299 0.85552 0.38784 0.02500
C 	C 	0.10777 0.84415 0.40118 -0.07900
C 	C 	0.15675 0.88379 0.43391 0.04800
C 	C 	0.17094 0.93489 0.45579 -0.07900
C 	C 	0.13616 0.94634 0.44290 0.02400
C 	C 	0.19200 0.87198 0.44162 -0.03400
C 	C 	0.22054 0.86074 0.44724 0.00100
C 	C 	0.25277 0.84616 0.45207 -0.00700
C 	C 	0.27933 0.83257 0.45493 -0.02300
C 	C 	0.30995 0.81500 0.45703 0.02500
C 	C 	0.31502 0.80393 0.41525 -0.04900
C 	C 	0.34062 0.78189 0.41435 -0.03100
C 	C 	0.36131 0.77075 0.45527 -0.00700
C 	C 	0.35755 0.78345 0.49799 -0.03100
C 	C 	0.33188 0.80542 0.49879 -0.04900
H 	H 	0.03518 0.82455 0.36118 0.02600
H 	H 	0.09657 0.80452 0.38470 0.05000
H 	H 	0.20878 0.96576 0.48157 0.05100
H 	H 	0.14750 0.98596 0.45916 0.02500
H 	H 	0.29822 0.81130 0.38286 0.04300
H 	H 	0.34331 0.77224 0.38121 0.03700
H 	H 	0.37369 0.77535 0.52997 0.03700
H 	H 	0.32822 0.81400 0.53129 0.04300
C 	C 	0.39078 0.64936 0.96091 0.00600
C 	C 	0.38749 0.64480 0.00230 -0.05300
C 	C 	0.36240 0.59635 0.99703 -0.02800
C 	C 	0.34043 0.55212 0.95040 0.01600
C 	C 	0.34463 0.55658 0.90952 -0.04200
C 	C 	0.36976 0.60506 0.91475 -0.03900
C 	C 	0.31226 0.50221 0.94384 -0.01900
C 	C 	0.28884 0.46081 0.93911 -0.00900
C 	C 	0.26134 0.41273 0.93430 0.00200
C 	C 	0.23794 0.37209 0.93091 -0.03400
C 	C 	0.21017 0.32402 0.92785 0.04800
C 	C 	0.19898 0.32345 0.96474 -0.07600
C 	C 	0.17346 0.27715 0.96308 0.02300
C 	C 	0.15888 0.23096 0.92443 -0.10000
C 	C 	0.16951 0.23154 0.88696 0.02400
C 	C 	0.19511 0.27795 0.88873 -0.07600
H 	H 	0.40372 0.67876 0.03815 0.04000
H 	H 	0.35949 0.59322 0.02890 0.03400
H 	H 	0.32788 0.52257 0.87341 0.04000
H 	H 	0.37201 0.60816 0.88254 0.03900
H 	H 	0.21034 0.35889 0.99495 0.05000
H 	H 	0.16519 0.27722 0.99194 0.02600
H 	H 	0.15888 0.19629 0.85722 0.03300
H 	H 	0.20361 0.27809 0.86006 0.04900
C 	C 	0.52190 0.79185 0.97396 -0.00000
C 	C 	0.56417 0.80206 0.01713 -0.03800
C 	C 	0.60666 0.82337 0.02024 -0.05500
C 	C 	0.60719 0.83464 0.98028 0.03000
C 	C 	0.56503 0.82443 0.93713 -0.04900
C 	C 	0.52252 0.80310 0.93395 -0.03300
C 	C 	0.65095 0.85648 0.98335 -0.02500
C 	C 	0.68731 0.87475 0.98545 -0.00800
C 	C 	0.72952 0.89592 0.98713 -0.00000
C 	C 	0.76513 0.91368 0.98774 -0.03600
C 	C 	0.80705 0.93441 0.98726 0.05300
C 	C 	0.84013 0.92119 0.00803 -0.08400
C 	C 	0.87806 0.93699 0.00265 0.01800
C 	C 	0.88264 0.96547 0.97566 -0.09900
C 	C 	0.85062 0.98040 0.95687 0.02700
C 	C 	0.81304 0.96502 0.96276 -0.07800
H 	H 	0.56415 0.79373 0.04833 0.03600
H 	H 	0.63910 0.83114 0.05371 0.03900
H 	H 	0.56513 0.83295 0.90604 0.04300
H 	H 	0.49008 0.79521 0.90037 0.03700
H 	H 	0.83563 0.89738 0.02682 0.04600
H 	H 	0.90241 0.92502 0.01716 0.02800
H 	H 	0.85395 0.00257 0.93624 0.02600
H 	H 	0.78780 0.97567 0.94691 0.05100
C 	C 	0.39068 0.80508 0.96916 -0.00100
C 	C 	0.38602 0.82030 0.01074 -0.03700
C 	C 	0.35980 0.84227 0.00815 -0.05400
C 	C 	0.33811 0.84922 0.96404 0.03000
C 	C 	0.34418 0.83576 0.92342 -0.04900
C 	C 	0.37041 0.81378 0.92596 -0.03200
C 	C 	0.30664 0.86643 0.95847 -0.02400
C 	C 	0.28030 0.88083 0.95370 -0.00600
C 	C 	0.24823 0.89612 0.94711 0.00100
C 	C 	0.21972 0.90767 0.94046 -0.03400
C 	C 	0.18419 0.91946 0.93107 0.04700
C 	C 	0.13517 0.88039 0.89389 -0.08000
C 	C 	0.10049 0.89160 0.88351 0.02400
C 	C 	0.11452 0.94217 0.91018 -0.11200
C 	C 	0.16371 0.98108 0.94873 0.02500
C 	C 	0.19842 0.96979 0.95878 -0.07700
H 	H 	0.40180 0.81405 0.04442 0.03600
H 	H 	0.35544 0.85276 0.03982 0.04200
H 	H 	0.32762 0.84113 0.88926 0.04300
H 	H 	0.37382 0.80223 0.89370 0.03700
H 	H 	0.12390 0.84134 0.87258 0.05000
H 	H 	0.06273 0.86105 0.85420 0.02700
H 	H 	0.17511 0.02005 0.97035 0.02000
H 	H 	0.23628 0.00018 0.98786 0.04600
C 	C 	0.66431 0.22299 0.36668 -0.00700
C 	C 	0.71374 0.24787 0.40551 -0.03200
C 	C 	0.73798 0.22578 0.39931 -0.04900
C 	C 	0.71300 0.17867 0.35433 0.02400
C 	C 	0.66350 0.15345 0.31571 -0.04900
C 	C 	0.63918 0.17555 0.32187 -0.03200
C 	C 	0.73828 0.15625 0.34821 -0.02500
C 	C 	0.76092 0.13896 0.34477 -0.00900
C 	C 	0.78912 0.12031 0.34322 -0.00100
C 	C 	0.81469 0.10580 0.34432 -0.03700
C 	C 	0.84698 0.09021 0.34887 0.04800
C 	C 	0.89676 0.12682 0.38359 -0.08100
C 	C 	0.92846 0.11127 0.39741 0.02600
C 	C 	0.91058 0.05895 0.37640 -0.11600
C 	C 	0.86093 0.02245 0.33788 0.02200
C 	C 	0.82915 0.03804 0.32458 -0.08000
H 	H 	0.73338 0.28441 0.44033 0.03600
H 	H 	0.77621 0.24535 0.42942 0.04100
H 	H 	0.64394 0.11692 0.28092 0.04100
H 	H 	0.60101 0.15612 0.29165 0.03600
H 	H 	0.91082 0.16727 0.40201 0.04700
H 	H 	0.96679 0.13980 0.42651 0.01600
H 	H 	0.84674 0.98197 0.32053 0.02300
H 	H 	0.79068 0.00949 0.29726 0.04600
C 	C 	0.86014 0.77877 0.39719 -0.10400
C 	C 	0.81259 0.75986 0.38054 0.02300
C 	C 	0.78589 0.71454 0.37967 -0.07800
C 	C 	0.80655 0.68792 0.39548 0.04700
C 	C 	0.85417 0.70706 0.41277 -0.07900
C 	C 	0.88092 0.75234 0.41370 0.02500
C 	C 	0.77857 0.64025 0.39264 -0.03700
C 	C 	0.75582 0.60027 0.39058 -0.00100
C 	C 	0.72988 0.55310 0.38797 -0.00900
C 	C 	0.70839 0.51249 0.38557 -0.02500
C 	C 	0.68360 0.46363 0.38249 0.02400
C 	C 	0.69091 0.46097 0.42878 -0.04900
C 	C 	0.67164 0.41337 0.42712 -0.03200
C 	C 	0.64505 0.36820 0.37914 -0.00800
C 	C 	0.63617 0.37088 0.33240 -0.03200
C 	C 	0.65541 0.41847 0.33410 -0.04900
H 	H 	0.79643 0.78039 0.36861 0.02800
H 	H 	0.74914 0.70005 0.36648 0.04900
H 	H 	0.87035 0.68665 0.42507 0.04800
H 	H 	0.91753 0.76648 0.42655 0.02700
H 	H 	0.71258 0.49575 0.46631 0.04100
H 	H 	0.67860 0.41165 0.46338 0.03600
H 	H 	0.61543 0.33617 0.29512 0.03600
H 	H 	0.64948 0.42025 0.29812 0.04200
C 	C 	0.20908 0.07831 0.43696 -0.09500
C 	C 	0.25046 0.12853 0.47153 0.02100
C 	C 	0.29122 0.14191 0.47187 -0.07500
C 	C 	0.29099 0.10527 0.43784 0.04600
C 	C 	0.25071 0.05451 0.40535 -0.07400
C 	C 	0.20988 0.04100 0.40496 0.02000
C 	C 	0.33022 0.12082 0.43277 -0.03400
C 	C 	0.36338 0.13456 0.42906 -0.00000
C 	C 	0.40185 0.15162 0.42414 -0.00800
C 	C 	0.43440 0.16690 0.41946 -0.02500
C 	C 	0.47290 0.18591 0.41335 0.02500
C 	C 	0.51678 0.23279 0.45379 -0.04900
C 	C 	0.55274 0.25344 0.44605 -0.03200
C 	C 	0.54496 0.22734 0.39773 -0.00700
C 	C 	0.50139 0.17987 0.35772 -0.03200
C 	C 	0.46547 0.15925 0.36553 -0.05000
H 	H 	0.25042 0.15765 0.49656 0.03100
H 	H 	0.32239 0.18117 0.49735 0.04900
H 	H 	0.25049 0.02584 0.37933 0.05000
H 	H 	0.17856 0.00185 0.37900 0.03200
H 	H 	0.52276 0.25359 0.49086 0.04200
H 	H 	0.58642 0.28991 0.47733 0.03600
H 	H 	0.49509 0.15942 0.32032 0.03600
H 	H 	0.43160 0.12300 0.33408 0.04100
C 	C 	0.69886 0.26120 0.90431 -0.00700
C 	C 	0.71668 0.24419 0.94039 -0.03100
C 	C 	0.74045 0.22105 0.93532 -0.04900
C 	C 	0.74669 0.21488 0.89428 0.02500
C 	C 	0.72797 0.23075 0.85743 -0.04900
C 	C 	0.70404 0.25381 0.86237 -0.03100
C 	C 	0.77496 0.19535 0.89223 -0.02400
C 	C 	0.79885 0.17886 0.89183 -0.00800
C 	C 	0.82802 0.16062 0.89381 -0.00000
C 	C 	0.85397 0.14600 0.89771 -0.03600
C 	C 	0.88611 0.12972 0.90508 0.04600
C 	C 	0.86770 0.07810 0.87556 -0.08000
C 	C 	0.89820 0.06091 0.88821 0.02200
C 	C 	0.94717 0.09523 0.93091 -0.11000
C 	C 	0.96584 0.14728 0.95880 0.01400
C 	C 	0.93541 0.16446 0.94582 -0.07600
H 	H 	0.71286 0.24975 0.97290 0.03700
H 	H 	0.75484 0.20881 0.96392 0.04300
H 	H 	0.73261 0.22599 0.82554 0.04200
H 	H 	0.69006 0.26647 0.83407 0.03700
H 	H 	0.82958 0.05103 0.84397 0.04600
H 	H 	0.88340 0.02065 0.86629 0.01800
H 	H 	0.00371 0.17419 0.99134 0.03000
H 	H 	0.94990 0.20448 0.96861 0.04700
C 	C 	0.69964 0.41986 0.94321 -0.00900
C 	C 	0.74683 0.45771 0.98857 -0.02600
C 	C 	0.76951 0.50757 0.99619 -0.04300
C 	C 	0.74515 0.51985 0.95857 0.02200
C 	C 	0.69730 0.48266 0.91451 -0.04900
C 	C 	0.67458 0.43279 0.90683 -0.03100
C 	C 	0.77075 0.56860 0.96197 -0.02400
C 	C 	0.79198 0.60935 0.96457 -0.01000
C 	C 	0.81715 0.65602 0.96605 -0.00100
C 	C 	0.83894 0.69494 0.96598 -0.03600
C 	C 	0.86531 0.74023 0.96439 0.04900
C 	C 	0.84471 0.76706 0.94927 -0.07500
C 	C 	0.86742 0.80676 0.94061 0.02300
C 	C 	0.91085 0.81971 0.94689 -0.10300
C 	C 	0.93254 0.79435 0.96461 0.02500
C 	C 	0.90980 0.75477 0.97330 -0.07700
H 	H 	0.76624 0.44819 0.01720 0.03000
H 	H 	0.80647 0.53621 0.03047 0.03400
H 	H 	0.67822 0.49196 0.88535 0.04200
H 	H 	0.63804 0.40386 0.87185 0.03600
H 	H 	0.81071 0.75659 0.94327 0.04900
H 	H 	0.85116 0.82722 0.92876 0.03000
H 	H 	0.96642 0.80449 0.97047 0.03100
H 	H 	0.92618 0.73454 0.98564 0.04900
C 	C 	0.22221 0.10929 0.93426 -0.10100
C 	C 	0.22413 0.12380 0.89648 0.02300
C 	C 	0.26336 0.13615 0.89407 -0.07700
C 	C 	0.30118 0.13462 0.92977 0.04800
C 	C 	0.29921 0.11972 0.96730 -0.07700
C 	C 	0.25985 0.10723 0.96967 0.02400
C 	C 	0.34308 0.15116 0.92974 -0.03400
C 	C 	0.37757 0.16530 0.92851 0.00100
C 	C 	0.41761 0.18303 0.92648 -0.00700
C 	C 	0.45160 0.19912 0.92435 -0.02400
C 	C 	0.49194 0.21935 0.92149 0.02500
C 	C 	0.48886 0.23389 0.88233 -0.04900
C 	C 	0.52898 0.25663 0.88152 -0.03100
C 	C 	0.57243 0.26497 0.91992 -0.00700
C 	C 	0.57525 0.24968 0.95863 -0.03100
C 	C 	0.53508 0.22696 0.95941 -0.04900
H 	H 	0.19563 0.12640 0.86964 0.02800
H 	H 	0.26478 0.14781 0.86509 0.04900
H 	H 	0.32838 0.11847 0.99503 0.05000
H 	H 	0.25869 0.09614 0.99904 0.02400
H 	H 	0.45557 0.22811 0.85292 0.04200
H 	H 	0.52644 0.26806 0.85132 0.03600
H 	H 	0.60869 0.25599 0.98843 0.03700
H 	H 	0.53769 0.21586 0.98985 0.04300
