data_crystal

_cell_length_a 17.01903
_cell_length_b 15.00904
_cell_length_c 37.60338
_cell_angle_alpha 89.87663
_cell_angle_beta  89.87939
_cell_angle_gamma 119.38855

_symmetry_space_group_name_	'P 1'
_symmetry_space_group_name_H-M	'P 1'

loop_
_symmetry_equiv_pos_as_xyz
  x,y,z

loop_
_atom_site_label
_atom_site_type_symbol
_atom_site_fract_x
_atom_site_fract_y
_atom_site_fract_z
_atom_site_charge
Ni	Ni	0.12546 0.95036 0.75416 1.10800
Ni	Ni	0.10641 0.15124 0.73441 1.13500
C 	C 	0.04028 0.74558 0.34067 0.10000
Br	Br	0.01947 0.67101 0.41346 -0.08600
C 	C 	0.06104 0.39252 0.53222 0.27800
Br	Br	0.05229 0.67421 0.70835 -0.12000
C 	C 	0.27091 0.16887 0.76795 0.31800
C 	C 	0.16108 0.03776 0.68242 0.40400
O 	O 	0.25203 0.08237 0.75168 -0.30100
O 	O 	0.22585 0.21811 0.76060 -0.32400
O 	O 	0.10794 0.95511 0.70012 -0.41500
O 	O 	0.17653 0.12773 0.69422 -0.33500
C 	C 	0.22662 0.75471 0.39504 0.33300
C 	C 	0.17108 0.51850 0.48919 0.38300
C 	C 	0.25469 0.46226 0.38459 0.32900
Ni	Ni	0.30450 0.73291 0.46846 1.12400
O 	O 	0.24886 0.78749 0.42872 -0.31000
O 	O 	0.25021 0.69194 0.37998 -0.34800
O 	O 	0.24867 0.44410 0.41925 -0.34000
O 	O 	0.18194 0.61130 0.48385 -0.33100
O 	O 	0.24181 0.50343 0.49227 -0.31100
O 	O 	0.31349 0.64290 0.43601 -0.71900
H 	H 	0.24966 0.60057 0.42939 0.18400
C 	C 	0.15311 0.47737 0.00663 0.37900
C 	C 	0.14140 0.73534 0.07237 0.32200
C 	C 	0.20210 0.49151 0.12145 0.33300
Ni	Ni	0.26030 0.70383 0.01555 1.13100
O 	O 	0.15207 0.56431 0.00162 -0.33700
O 	O 	0.22965 0.47658 0.01302 -0.32200
O 	O 	0.21377 0.45805 0.09030 -0.32900
O 	O 	0.18107 0.76035 0.04026 -0.31000
O 	O 	0.16836 0.69520 0.09775 -0.35500
O 	O 	0.26619 0.64067 0.05782 -0.72100
H 	H 	0.20162 0.59304 0.06188 0.17900
C 	C 	0.02615 0.11764 0.29755 0.31400
C 	C 	0.04785 0.83703 0.28358 0.30800
Ni	Ni	0.04992 0.99661 0.23730 1.10900
O 	O 	0.05998 0.89936 0.20258 -0.37000
O 	O 	0.01011 0.05301 0.19676 -0.32200
O 	O 	0.08902 0.93656 0.27640 -0.36300
O 	O 	0.07057 0.11871 0.26825 -0.31600
C 	C 	0.00572 0.27757 0.16848 0.11100
C 	C 	0.04795 0.22739 0.18481 -0.09400
C 	C 	0.14350 0.27502 0.18498 0.11700
C 	C 	0.19499 0.36844 0.16711 0.11300
C 	C 	0.15209 0.41438 0.14891 -0.08200
C 	C 	0.05841 0.37329 0.15204 0.12200
Br	Br	0.00333 0.45072 0.13544 -0.08700
Br	Br	0.20502 0.21345 0.20917 -0.15700
C 	C 	0.01460 0.81622 0.14490 -0.09500
C 	C 	0.07856 0.89565 0.12296 0.06300
C 	C 	0.10878 0.87102 0.09152 0.11600
C 	C 	0.07608 0.76823 0.08249 -0.09500
Br	Br	0.19144 0.97704 0.06033 -0.14100
Br	Br	0.11876 0.03657 0.13384 -0.04400
C 	C 	0.07810 0.29573 0.31740 0.10600
C 	C 	0.07433 0.20085 0.32304 -0.07200
C 	C 	0.13078 0.19232 0.34836 0.10900
C 	C 	0.19455 0.27942 0.36672 0.11500
C 	C 	0.19933 0.37529 0.36085 -0.08000
C 	C 	0.14088 0.38292 0.33601 0.11500
Br	Br	0.14520 0.51203 0.32775 -0.13200
Br	Br	0.12055 0.06050 0.35780 -0.07100
C 	C 	0.08619 0.74447 0.37183 0.10900
C 	C 	0.18110 0.79558 0.37240 -0.07800
C 	C 	0.22890 0.85664 0.34303 0.10600
C 	C 	0.18418 0.84798 0.31100 0.11000
C 	C 	0.08981 0.80188 0.31055 -0.08300
Br	Br	0.25184 0.89484 0.26726 -0.14700
C 	C 	0.08013 0.43561 0.49792 -0.16900
F 	F 	0.12879 0.40146 0.55351 -0.32600
C 	C 	0.23459 0.08843 0.62239 0.11900
C 	C 	0.22035 0.03307 0.65439 -0.04400
C 	C 	0.27069 0.98200 0.66063 0.07100
Br	Br	0.26044 0.91106 0.70461 -0.20100
Br	Br	0.15281 0.13642 0.60851 -0.05100
C 	C 	0.04608 0.35600 0.96355 0.27900
C 	C 	0.07083 0.38174 0.99917 -0.15900
F 	F 	0.11052 0.38118 0.93818 -0.33900
F 	F 	0.37063 0.54239 0.92800 -0.34700
C 	C 	0.35043 0.21752 0.79104 -0.08300
C 	C 	0.33945 0.22646 0.82777 0.11600
Br	Br	0.22252 0.19209 0.84677 -0.09900
O 	O 	0.07122 0.03113 0.76240 -0.68200
H 	H 	0.10163 0.06433 0.78466 0.17700
F 	F 	0.02524 0.35396 0.06017 -0.37400
O 	O 	0.32033 0.54976 0.37066 -0.34100
O 	O 	0.25334 0.58872 0.13151 -0.34000
F 	F 	0.31501 0.53053 0.56946 -0.33800
Br	Br	0.01474 0.65262 0.61929 -0.11700
Br	Br	0.12613 0.40820 0.81653 -0.07400
F 	F 	0.02546 0.45496 0.44154 -0.37000
O 	O 	0.12998 0.93751 0.80890 -0.35300
Br	Br	0.10955 0.65345 0.91599 -0.10600
Ni	Ni	0.33914 0.54082 0.45363 1.13500
Ni	Ni	0.36626 0.69442 0.39091 1.13100
O 	O 	0.35402 0.69986 0.51505 -0.32700
Ni	Ni	0.29429 0.71660 0.10055 1.13300
Ni	Ni	0.31096 0.54689 0.05591 1.13400
O 	O 	0.33508 0.86046 0.08100 -0.34500
O 	O 	0.33412 0.66280 0.98124 -0.31700
Br	Br	0.32496 0.43326 0.16711 -0.11300
Br	Br	0.27687 0.26735 0.39913 -0.07200
Br	Br	0.35406 0.95674 0.34717 -0.14000
F 	F 	0.35770 0.00809 0.43071 -0.34000
F 	F 	0.43519 0.19272 0.46474 -0.36000
F 	F 	0.39537 0.42576 0.59753 -0.36400
C 	C 	0.33818 0.99487 0.63635 0.04100
C 	C 	0.30937 0.10853 0.60074 0.09900
Br	Br	0.33603 0.19141 0.55859 -0.06700
F 	F 	0.30625 0.96058 0.99819 -0.42500
F 	F 	0.39542 0.15368 0.97052 -0.34600
C 	C 	0.45736 0.60433 0.93806 0.28400
C 	C 	0.43674 0.24787 0.77698 0.11700
C 	C 	0.41383 0.26066 0.85064 0.11300
Br	Br	0.45295 0.24306 0.72628 -0.12600
Br	Br	0.39868 0.27146 0.90094 -0.02900
C 	C 	0.00293 0.34313 0.02524 0.26600
C 	C 	0.36930 0.07471 0.61167 -0.00600
C 	C 	0.38413 0.03177 0.01347 0.32700
Br	Br	0.19327 0.81303 0.84598 -0.12600
O 	O 	0.37937 0.83460 0.02686 -0.34200
C 	C 	0.41775 0.67431 0.51407 0.40800
C 	C 	0.45399 0.89766 0.42814 0.33800
O 	O 	0.43900 0.55105 0.42104 -0.33600
O 	O 	0.43713 0.64567 0.48425 -0.36600
O 	O 	0.43396 0.84804 0.45822 -0.35400
O 	O 	0.41839 0.84891 0.39827 -0.33700
C 	C 	0.38283 0.89680 0.05167 0.35300
C 	C 	0.40667 0.65997 0.99148 0.41300
O 	O 	0.42384 0.75297 0.10098 -0.35300
O 	O 	0.41634 0.64085 0.02471 -0.35600
O 	O 	0.39880 0.58942 0.09707 -0.34200
Br	Br	0.40022 0.72059 0.18603 -0.16100
C 	C 	0.48741 0.15213 0.45439 0.29500
C 	C 	0.44792 0.05815 0.43659 0.27000
C 	C 	0.44662 0.51708 0.58108 0.28600
C 	C 	0.45710 0.66022 0.54683 -0.18900
C 	C 	0.40577 0.57123 0.56715 0.27900
Br	Br	0.38294 0.89984 0.63509 -0.12700
C 	C 	0.43213 0.12848 0.99804 0.29100
C 	C 	0.42029 0.00508 0.04248 -0.12500
C 	C 	0.52636 0.59045 0.92334 0.27900
C 	C 	0.47709 0.67527 0.96559 -0.19000
F 	F 	0.50640 0.51794 0.89816 -0.37800
C 	C 	0.49961 0.28829 0.83678 -0.07700
C 	C 	0.51146 0.28412 0.79980 0.11400
C 	C 	0.46630 0.14898 0.61106 0.30000
O 	O 	0.48703 0.71548 0.40431 -0.36400
C 	C 	0.44755 0.68428 0.10825 0.35100
Br	Br	0.46457 0.46226 0.34907 -0.10500
C 	C 	0.49923 0.01008 0.42915 -0.10400
C 	C 	0.00862 0.42033 0.47563 0.27100
C 	C 	0.09733 0.81003 0.87424 0.10400
O 	O 	0.49217 0.23838 0.62639 -0.32000
O 	O 	0.05388 0.21559 0.76866 -0.33100
C 	C 	0.06332 0.74350 0.90369 0.10800
C 	C 	0.57840 0.33272 0.86031 0.33000
C 	C 	0.50137 0.63815 0.40717 0.34300
C 	C 	0.52079 0.19553 0.00881 -0.18500
C 	C 	0.50294 0.07811 0.05692 0.28700
C 	C 	0.56759 0.74331 0.97383 0.28300
Br	Br	0.03216 0.30179 0.69307 -0.14200
O 	O 	0.52580 0.11787 0.60363 -0.31200
C 	C 	0.53907 0.55373 0.57548 -0.18200
O 	O 	0.57468 0.25070 0.94921 -0.34000
O 	O 	0.56381 0.18464 0.52939 -0.35900
C 	C 	0.52124 0.70973 0.13354 -0.09100
C 	C 	0.51090 0.72868 0.16953 0.11500
C 	C 	0.57683 0.19570 0.46625 -0.17700
C 	C 	0.55145 0.70721 0.54848 0.28200
C 	C 	0.55383 0.17281 0.03991 0.29400
F 	F 	0.53765 0.05398 0.08547 -0.32900
C 	C 	0.61422 0.64495 0.93694 -0.18700
C 	C 	0.58368 0.27371 0.98359 0.39300
O 	O 	0.62528 0.43377 0.86246 -0.32300
O 	O 	0.61208 0.27350 0.87118 -0.33000
C 	C 	0.57735 0.48501 0.57945 0.39400
O 	O 	0.59791 0.46743 0.61218 -0.32800
H 	H 	0.57739 0.30316 0.57245 0.17700
C 	C 	0.56911 0.59364 0.35658 0.10500
C 	C 	0.59287 0.06521 0.43395 0.27600
Br	Br	0.58607 0.01237 0.68980 -0.04700
F 	F 	0.58834 0.81854 0.99806 -0.36800
C 	C 	0.05783 0.90677 0.82938 0.30000
C 	C 	0.59880 0.24487 0.50139 0.39700
O 	O 	0.60715 0.46113 0.55021 -0.34100
C 	C 	0.58286 0.75783 0.19329 0.11500
Br	Br	0.56675 0.77732 0.24295 -0.14500
C 	C 	0.58085 0.64483 0.38913 -0.08900
C 	C 	0.59218 0.65175 0.56082 0.28500
C 	C 	0.63593 0.72727 0.95996 0.28400
Br	Br	0.63057 0.33225 0.78028 -0.13300
C 	C 	0.06145 0.87558 0.86653 -0.07600
H 	H 	0.64735 0.41499 0.92397 0.17900
Ni	Ni	0.62552 0.35067 0.62869 1.12600
Br	Br	0.61463 0.57308 0.28381 -0.11400
C 	C 	0.63176 0.15794 0.45251 0.29700
F 	F 	0.60279 0.79916 0.53242 -0.37200
C 	C 	0.60468 0.72363 0.12127 0.11300
C 	C 	0.67211 0.59775 0.93618 0.38900
O 	O 	0.65483 0.35771 0.99641 -0.31400
Ni	Ni	0.63808 0.19701 0.57189 1.13700
O 	O 	0.64723 0.24223 0.65564 -0.32900
O 	O 	0.63760 0.32075 0.58141 -0.72300
F 	F 	0.63775 0.23874 0.05200 -0.33700
Br	Br	0.67814 0.13907 0.82620 -0.11300
O 	O 	0.67433 0.54762 0.96507 -0.33800
Br	Br	0.61792 0.69346 0.07248 -0.09100
C 	C 	0.63288 0.64022 0.32917 0.11400
F 	F 	0.64452 0.02294 0.42466 -0.32700
Ni	Ni	0.68104 0.28709 0.91762 1.13500
O 	O 	0.66480 0.34255 0.50435 -0.31300
O 	O 	0.70888 0.42464 0.92277 -0.72300
C 	C 	0.66737 0.77608 0.18069 -0.09600
C 	C 	0.66587 0.72884 0.39694 0.10800
F 	F 	0.68210 0.68955 0.55589 -0.37000
Br	Br	0.71226 0.90217 0.70656 -0.18600
Br	Br	0.71905 0.65802 0.73181 -0.13700
Br	Br	0.70393 0.68782 0.64129 -0.10200
C 	C 	0.70692 0.21608 0.64508 0.34200
C 	C 	0.67891 0.76172 0.14441 0.11400
C 	C 	0.71519 0.08921 0.68525 0.09600
O 	O 	0.73090 0.61983 0.90955 -0.34000
Ni	Ni	0.71013 0.43025 0.54993 1.13700
Br	Br	0.69101 0.78277 0.44453 -0.07100
F 	F 	0.72164 0.78494 0.97170 -0.36500
O 	O 	0.72520 0.21591 0.61133 -0.33700
C 	C 	0.70976 0.73615 0.33494 -0.09000
F 	F 	0.71976 0.20214 0.46184 -0.33500
Ni	Ni	0.75424 0.51107 0.88296 1.12300
O 	O 	0.74381 0.26839 0.96003 -0.34000
C 	C 	0.72966 0.77663 0.36953 0.11200
Ni	Ni	0.75199 0.48058 0.96890 1.13800
O 	O 	0.74585 0.24398 0.53892 -0.32400
C 	C 	0.75630 0.18879 0.67120 -0.08100
O 	O 	0.01160 0.80644 0.75488 -0.34600
C 	C 	0.74488 0.81802 0.20487 0.34700
C 	C 	0.76845 0.04673 0.69672 0.16600
O 	O 	0.76126 0.45108 0.63270 -0.35400
O 	O 	0.75389 0.75633 0.22728 -0.34100
O 	O 	0.76014 0.86009 0.28717 -0.33800
O 	O 	0.77035 0.54966 0.58547 -0.31700
C 	C 	0.01151 0.89180 0.89325 0.04100
C 	C 	0.77150 0.79055 0.30532 0.32800
Br	Br	0.00362 0.52534 0.82882 -0.12000
C 	C 	0.00215 0.17379 0.79753 0.30700
Br	Br	0.99769 0.30652 0.28374 -0.10400
O 	O 	0.78313 0.42292 0.84760 -0.33300
C 	C 	0.99402 0.83905 0.18119 0.34800
C 	C 	0.99260 0.12723 0.20249 0.35800
O 	O 	0.98525 0.76921 0.26175 -0.32900
C 	C 	0.99498 0.69519 0.09794 0.11600
C 	C 	0.96911 0.71506 0.13126 0.11800
O 	O 	0.99520 0.08763 0.70420 -0.33100
Br	Br	0.88035 0.60243 0.15920 -0.11200
O 	O 	0.93644 0.11853 0.22807 -0.30300
Br	Br	0.87593 0.21148 0.16578 -0.04400
F 	F 	0.93405 0.30612 0.91863 -0.37300
Br	Br	0.92061 0.56957 0.07322 -0.09300
O 	O 	0.93664 0.06426 0.29945 -0.28200
O 	O 	0.91029 0.79430 0.19232 -0.35800
O 	O 	0.93013 0.92007 0.25438 -0.73300
H 	H 	0.94168 0.91827 0.27995 0.16000
C 	C 	0.95641 0.31981 0.95354 0.30200
C 	C 	0.91094 0.63702 0.92829 0.33800
C 	C 	0.80991 0.35875 0.85833 0.35100
C 	C 	0.82471 0.33882 0.96981 0.41800
O 	O 	0.84381 0.43431 0.97404 -0.35600
O 	O 	0.88431 0.57323 0.90172 -0.35100
O 	O 	0.85584 0.62139 0.95507 -0.32900
O 	O 	0.79644 0.32582 0.89109 -0.33300
C 	C 	0.79575 0.54065 0.61777 0.34100
C 	C 	0.82085 0.33223 0.54212 0.42300
O 	O 	0.81907 0.41292 0.55444 -0.35900
C 	C 	0.93869 0.78988 0.73781 0.34200
C 	C 	0.91692 0.06904 0.71727 0.34900
Ni	Ni	0.94997 0.96451 0.77896 1.10000
O 	O 	0.88965 0.02564 0.74873 -0.32000
O 	O 	0.90522 0.85146 0.74233 -0.36400
O 	O 	0.98824 0.08553 0.81086 -0.31200
O 	O 	0.97738 0.88082 0.81540 -0.35600
Ni	Ni	0.85795 0.98258 0.25641 1.10200
Ni	Ni	0.87594 0.77879 0.24392 1.13400
O 	O 	0.82255 0.75311 0.29321 -0.33900
O 	O 	0.79049 0.91724 0.20948 -0.35900
Br	Br	0.79735 0.80286 0.12575 -0.13400
Br	Br	0.84357 0.89676 0.37919 -0.15000
Br	Br	0.91191 0.65898 0.33783 -0.11300
C 	C 	0.92165 0.38077 0.48951 0.31300
C 	C 	0.90378 0.34668 0.52493 -0.18600
C 	C 	0.97275 0.34746 0.54561 0.30700
F 	F 	0.85755 0.38694 0.46996 -0.34500
F 	F 	0.95564 0.31169 0.57954 -0.35700
C 	C 	0.90373 0.21243 0.68834 0.12600
C 	C 	0.86315 0.10855 0.69885 -0.10000
C 	C 	0.85022 0.25192 0.67448 0.11300
Br	Br	0.90557 0.39301 0.66014 -0.08500
C 	C 	0.81206 0.68002 0.69807 0.11200
C 	C 	0.90000 0.71084 0.70964 -0.09700
C 	C 	0.95657 0.68990 0.68766 0.11100
C 	C 	0.93061 0.65796 0.65224 0.11100
C 	C 	0.84310 0.63094 0.64075 -0.08600
C 	C 	0.79052 0.65784 0.66223 0.09500
C 	C 	0.91349 0.30903 0.01532 0.30400
C 	C 	0.89269 0.31005 0.97930 -0.18200
F 	F 	0.84997 0.28869 0.04070 -0.33400
C 	C 	0.80799 0.21498 0.82565 0.11500
C 	C 	0.85285 0.31989 0.83341 -0.08700
C 	C 	0.94586 0.37852 0.82659 0.13100
C 	C 	0.99619 0.32994 0.81762 0.11700
C 	C 	0.95198 0.22282 0.81269 -0.06500
C 	C 	0.85743 0.16491 0.81819 0.10800
Br	Br	0.79606 0.01725 0.81999 -0.11300
C 	C 	0.97897 0.82455 0.92251 0.12300
C 	C 	0.99066 0.73835 0.92296 -0.09400
Br	Br	0.92887 0.85576 0.96325 -0.08500
Br	Br	0.98927 0.00539 0.89000 -0.01000
