data_crystal

_cell_length_a 15.32819
_cell_length_b 13.73050
_cell_length_c 51.64172
_cell_angle_alpha 89.53453
_cell_angle_beta  89.53604
_cell_angle_gamma 119.45514

_symmetry_space_group_name_	'P 1'
_symmetry_space_group_name_H-M	'P 1'

loop_
_symmetry_equiv_pos_as_xyz
  x,y,z

loop_
_atom_site_label
_atom_site_type_symbol
_atom_site_fract_x
_atom_site_fract_y
_atom_site_fract_z
_atom_site_charge
C 	C 	0.02480 0.12150 0.15366 0.28700
Ni	Ni	0.01164 0.93973 0.18782 1.10500
O 	O 	0.07502 0.07538 0.16352 -0.38000
O 	O 	0.12234 0.18927 0.20958 -0.37800
C 	C 	0.03494 0.15065 0.12554 -0.09700
C 	C 	0.07728 0.10626 0.10827 0.01700
C 	C 	0.08584 0.13289 0.08174 -0.06500
C 	C 	0.05335 0.20632 0.07208 0.02200
C 	C 	0.02849 0.31226 0.03703 0.00200
C 	C 	0.07201 0.24758 0.04589 0.00000
C 	C 	0.06411 0.37518 0.01390 -0.01800
H 	H 	0.03453 0.42908 0.00787 0.03900
C 	C 	0.07469 0.55381 0.32456 -0.05100
C 	C 	0.07676 0.65767 0.32222 0.00200
C 	C 	0.10738 0.72962 0.34383 0.00900
C 	C 	0.14909 0.70534 0.36530 -0.02000
C 	C 	0.10027 0.82745 0.34332 -0.04300
C 	C 	0.06905 0.85861 0.32109 -0.04900
C 	C 	0.04616 0.79377 0.29874 0.01100
C 	C 	0.05003 0.69261 0.29892 0.00700
C 	C 	0.03246 0.63295 0.27550 -0.07500
C 	C 	0.02012 0.82961 0.27611 -0.04400
H 	H 	0.03547 0.48793 0.31082 0.03900
H 	H 	0.12100 0.88092 0.36008 0.03500
H 	H 	0.06574 0.93569 0.32096 0.03700
H 	H 	0.02069 0.90891 0.27569 0.03200
C 	C 	0.06738 0.52158 0.46977 -0.15300
H 	H 	0.06565 0.54085 0.44937 0.08600
H 	H 	0.10299 0.03704 0.60205 0.04200
H 	H 	0.11389 0.10184 0.55703 0.03900
Ni	Ni	0.01273 0.91585 0.74817 1.10200
O 	O 	0.10924 0.17854 0.73448 -0.38600
O 	O 	0.14290 0.99876 0.72508 -0.37500
H 	H 	0.07076 0.23418 0.80438 0.02600
H 	H 	0.03517 0.05860 0.86038 0.02500
H 	H 	0.02528 0.02758 0.90750 0.02600
C 	C 	0.06330 0.67957 0.95424 -0.11600
H 	H 	0.03371 0.54467 0.92630 0.08300
H 	H 	0.04664 0.56366 0.27379 0.04400
C 	C 	0.15915 0.72118 0.96049 0.33900
C 	C 	0.16111 0.12863 0.21896 0.28100
O 	O 	0.13267 0.02633 0.21047 -0.38200
C 	C 	0.14398 0.24088 0.02967 -0.04600
C 	C 	0.15524 0.39354 0.00326 -0.06500
H 	H 	0.10203 0.04938 0.11525 0.03200
H 	H 	0.17593 0.18883 0.03474 0.04200
C 	C 	0.00227 0.52584 0.12373 -0.11000
C 	C 	0.07623 0.63401 0.05641 -0.07800
C 	C 	0.12130 0.53348 0.34547 0.00100
H 	H 	0.17664 0.76298 0.38134 0.04200
C 	C 	0.16485 0.54265 0.48096 -0.09500
C 	C 	0.14345 0.03303 0.70114 0.30300
O 	O 	0.07485 0.06018 0.77006 -0.38400
O 	O 	0.06276 0.02886 0.69162 -0.40300
C 	C 	0.11110 0.16215 0.75987 0.28400
C 	C 	0.18257 0.31140 0.00781 0.00400
H 	H 	0.11219 0.09114 0.06885 0.04500
C 	C 	0.07876 0.59191 0.08111 -0.05400
C 	C 	0.16495 0.61322 0.36498 -0.06700
H 	H 	0.12680 0.45779 0.34594 0.04000
H 	H 	0.18146 0.56849 0.50098 0.07400
C 	C 	0.14982 0.27646 0.79929 0.00300
O 	O 	0.21127 0.82582 0.96772 -0.40000
H 	H 	0.20452 0.02740 0.25779 0.04300
O 	O 	0.16635 0.74996 0.01957 -0.38600
H 	H 	0.05990 0.50567 0.12901 0.05200
H 	H 	0.19529 0.20090 0.66671 0.02900
C 	C 	0.18142 0.25642 0.77544 -0.07100
O 	O 	0.20297 0.66104 0.95687 -0.39600
C 	C 	0.16972 0.70008 0.04120 0.29200
O 	O 	0.20858 0.48856 0.44309 -0.38300
H 	H 	0.19276 0.35102 0.83635 0.04100
H 	H 	0.24601 0.31552 0.99741 0.04500
H 	H 	0.26024 0.01935 0.30155 0.04300
C 	C 	0.24393 0.61451 0.38127 0.28300
C 	C 	0.23565 0.53980 0.46578 0.30200
O 	O 	0.24178 0.51782 0.38668 -0.37500
H 	H 	0.14497 0.58909 0.08726 0.05300
C 	C 	0.24541 0.18068 0.23690 -0.06900
C 	C 	0.25212 0.11754 0.25744 -0.02100
C 	C 	0.23853 0.09221 0.68626 -0.08100
C 	C 	0.25205 0.17584 0.66837 -0.01300
C 	C 	0.21989 0.34419 0.81747 -0.05300
C 	C 	0.23635 0.50985 0.00222 0.29300
H 	H 	0.28020 0.31390 0.62896 0.03600
Ni	Ni	0.28942 0.87027 0.00079 1.12000
O 	O 	0.25651 0.72572 0.05170 -0.37000
C 	C 	0.30017 0.10989 0.30176 -0.04300
H 	H 	0.30281 0.99646 0.70244 0.03500
O 	O 	0.28935 0.55048 0.98049 -0.37300
C 	C 	0.31089 0.17137 0.27896 0.01200
H 	H 	0.30873 0.34519 0.21938 0.04000
O 	O 	0.27509 0.55290 0.02467 -0.37600
C 	C 	0.31038 0.29638 0.23577 0.00300
H 	H 	0.31508 0.11607 0.34311 0.03900
C 	C 	0.31299 0.06167 0.68878 0.00800
C 	C 	0.28365 0.31128 0.76893 -0.01600
H 	H 	0.30902 0.48772 0.85773 0.04100
Ni	Ni	0.30677 0.48424 0.41776 1.12000
O 	O 	0.32579 0.71265 0.38469 -0.37500
O 	O 	0.32718 0.57320 0.47534 -0.37600
C 	C 	0.33273 0.16468 0.32528 -0.03800
C 	C 	0.33518 0.22267 0.65155 0.00400
H 	H 	0.30770 0.29561 0.75035 0.04500
H 	H 	0.34538 0.66357 0.42657 0.15700
C 	C 	0.32375 0.39241 0.81205 0.00600
Ni	Ni	0.34413 0.71179 0.96701 1.11900
C 	C 	0.33821 0.29098 0.63086 -0.04100
O 	O 	0.35322 0.41859 0.44588 -0.39500
O 	O 	0.35207 0.93901 0.03524 -0.37800
C 	C 	0.37302 0.35085 0.25645 -0.05000
C 	C 	0.37116 0.28971 0.27882 0.00400
C 	C 	0.35521 0.37435 0.78748 0.00700
O 	O 	0.34742 0.77458 0.99998 -0.70600
C 	C 	0.39897 0.11149 0.67285 -0.05500
C 	C 	0.38451 0.28179 0.32584 0.00600
H 	H 	0.36837 0.29064 0.36722 0.04200
C 	C 	0.37279 0.47475 0.85562 -0.05300
O 	O 	0.39471 0.63865 0.42333 -0.71900
C 	C 	0.41188 0.19384 0.65418 0.00600
H 	H 	0.45134 0.08047 0.67404 0.04300
O 	O 	0.39891 0.86457 0.94911 -0.38100
O 	O 	0.40225 0.46375 0.39386 -0.38800
Ni	Ni	0.37090 0.71927 0.03110 1.11400
H 	H 	0.38543 0.05437 0.08081 0.04700
C 	C 	0.39974 0.33793 0.34939 -0.01400
H 	H 	0.41674 0.44098 0.25564 0.04200
C 	C 	0.39625 0.44384 0.83169 0.00400
H 	H 	0.41158 0.50648 0.89574 0.03300
O 	O 	0.40852 0.98810 0.98070 -0.37200
C 	C 	0.41504 0.34404 0.30236 0.00900
H 	H 	0.41269 0.12642 0.12600 0.04200
C 	C 	0.43085 0.51364 0.37116 0.30700
O 	O 	0.43019 0.60726 0.36656 -0.37800
O 	O 	0.43720 0.80672 0.45643 -0.38200
H 	H 	0.40579 0.98087 0.48056 0.08000
C 	C 	0.43380 0.49123 0.87690 0.00400
H 	H 	0.41783 0.83362 0.99889 0.13700
C 	C 	0.44717 0.45532 0.34942 -0.07600
H 	H 	0.43230 0.29489 0.44732 0.08100
C 	C 	0.45076 0.96082 0.96160 0.31300
C 	C 	0.44906 0.45566 0.44977 0.33700
Ni	Ni	0.46220 0.72749 0.39456 1.11400
Ni	Ni	0.46043 0.67392 0.45599 1.12000
C 	C 	0.44280 0.96127 0.04213 0.29200
C 	C 	0.41115 0.32303 0.61154 -0.04300
C 	C 	0.45667 0.40804 0.78286 -0.04000
C 	C 	0.47229 0.88651 0.43814 0.32300
H 	H 	0.40830 0.36953 0.59480 0.03600
O 	O 	0.46759 0.88153 0.04269 -0.37100
C 	C 	0.46525 0.08423 0.07915 -0.01500
C 	C 	0.48201 0.46001 0.30341 -0.05400
C 	C 	0.47863 0.01756 0.47093 -0.11400
C 	C 	0.48545 0.98753 0.44388 -0.11500
C 	C 	0.48449 0.38368 0.44944 -0.11500
C 	C 	0.49364 0.23926 0.63602 0.00600
H 	H 	0.48143 0.39692 0.76395 0.04000
C 	C 	0.48613 0.13323 0.12490 -0.04000
C 	C 	0.49647 0.51554 0.32683 0.01100
H 	H 	0.48246 0.20642 0.80710 0.04200
C 	C 	0.49334 0.45787 0.82791 0.00900
H 	H 	0.50575 0.23472 0.85436 0.03700
O 	O 	0.48331 0.74061 0.97379 -0.40300
O 	O 	0.50996 0.87496 0.41573 -0.38200
O 	O 	0.50765 0.56037 0.45612 -0.38300
C 	C 	0.50485 0.06318 0.05656 -0.06600
H 	H 	0.51654 0.05371 0.42923 0.07600
C 	C 	0.48767 0.29585 0.61368 0.00800
O 	O 	0.48743 0.69561 0.01620 -0.36900
O 	O 	0.47869 0.38174 0.96965 -0.37800
H 	H 	0.50673 0.14821 0.16608 0.04200
H 	H 	0.52405 0.50674 0.28646 0.04400
C 	C 	0.52455 0.44601 0.80316 -0.04400
C 	C 	0.52051 0.48202 0.87416 -0.07000
C 	C 	0.49579 0.67907 0.99124 0.33100
C 	C 	0.52620 0.12566 0.10099 0.01100
H 	H 	0.54237 0.60579 0.32722 0.03600
C 	C 	0.49320 0.58519 0.98346 -0.12400
H 	H 	0.47776 0.56213 0.96323 0.07800
C 	C 	0.53896 0.14397 0.14765 -0.03900
C 	C 	0.53638 0.17701 0.80714 -0.04200
Ni	Ni	0.53387 0.31198 0.94423 1.12100
O 	O 	0.56574 0.21875 0.92049 -0.38900
O 	O 	0.50076 0.38545 0.91449 -0.38600
O 	O 	0.54056 0.21910 0.97381 -0.36700
C 	C 	0.54747 0.02865 0.95527 -0.11000
C 	C 	0.56026 0.09396 0.48305 0.32100
O 	O 	0.55035 0.12202 0.50691 -0.38100
H 	H 	0.54322 0.17300 0.76562 0.04000
C 	C 	0.54680 0.18908 0.85420 -0.01900
C 	C 	0.51593 0.51540 0.00089 -0.12000
C 	C 	0.03464 0.01514 0.59170 -0.05900
C 	C 	0.04091 0.05114 0.56608 -0.04200
H 	H 	0.03165 0.15878 0.52388 0.03400
C 	C 	0.55657 0.32178 0.59331 -0.01600
H 	H 	0.54434 0.35213 0.57502 0.03000
C 	C 	0.52571 0.43136 0.99118 0.32400
H 	H 	0.56187 0.55819 0.60935 0.03800
H 	H 	0.54559 0.54652 0.01997 0.08200
H 	H 	0.00729 0.98358 0.64259 0.02700
H 	H 	0.57901 0.00714 0.93884 0.07700
H 	H 	0.00476 0.71061 0.68313 0.02200
O 	O 	0.57260 0.31259 0.48501 -0.39500
C 	C 	0.57149 0.15887 0.78361 -0.03800
C 	C 	0.57125 0.15780 0.83060 0.01100
C 	C 	0.55498 0.47588 0.84935 -0.02400
C 	C 	0.56385 0.45890 0.89696 0.28000
O 	O 	0.59227 0.40899 0.00112 -0.38400
C 	C 	0.58056 0.22947 0.63944 -0.05200
O 	O 	0.58780 0.71780 0.40417 -0.38400
C 	C 	0.58610 0.17341 0.87730 -0.07100
C 	C 	0.61880 0.11266 0.97370 -0.12000
H 	H 	0.58448 0.56633 0.65647 0.03900
C 	C 	0.62128 0.21060 0.97746 0.33100
H 	H 	0.59580 0.20305 0.65781 0.04500
C 	C 	0.59401 0.42194 0.44978 -0.11100
H 	H 	0.02658 0.72905 0.95750 0.07900
O 	O 	0.60394 0.78830 0.44443 -0.36600
C 	C 	0.60907 0.11458 0.05345 0.00800
H 	H 	0.60059 0.46264 0.79980 0.04500
C 	C 	0.61092 0.25447 0.89793 0.29700
H 	H 	0.62169 0.67512 0.93986 0.03500
H 	H 	0.61713 0.75779 0.89780 0.04300
C 	C 	0.62503 0.14397 0.09966 0.00700
C 	C 	0.62688 0.13575 0.14685 0.00800
Ni	Ni	0.61924 0.28279 0.51896 1.12100
H 	H 	0.62492 0.54998 0.56602 0.04200
H 	H 	0.63367 0.11930 0.18839 0.04100
O 	O 	0.62634 0.22395 0.55366 -0.39700
H 	H 	0.62550 0.47610 0.84703 0.04100
C 	C 	0.63074 0.10546 0.87736 0.01200
C 	C 	0.62883 0.37010 0.46527 0.33500
C 	C 	0.63680 0.11300 0.83044 0.00700
H 	H 	0.63383 0.72992 0.85768 0.04800
H 	H 	0.64451 0.48750 0.94861 0.13900
H 	H 	0.64158 0.10983 0.03512 0.04000
C 	C 	0.63577 0.29901 0.59547 -0.07700
C 	C 	0.63522 0.58262 0.61704 -0.04100
C 	C 	0.64493 0.77952 0.42268 0.30400
H 	H 	0.64160 0.47694 0.43429 0.08400
C 	C 	0.64742 0.12963 0.78328 0.00800
C 	C 	0.65049 0.25801 0.61904 0.01000
C 	C 	0.64816 0.58740 0.64378 -0.03500
O 	O 	0.66645 0.43121 0.94894 -0.70300
C 	C 	0.65569 0.07454 0.85397 -0.05200
H 	H 	0.65511 0.08625 0.89538 0.03800
O 	O 	0.65014 0.12254 0.47318 -0.37700
C 	C 	0.66375 0.11380 0.16971 -0.01400
H 	H 	0.68297 0.10466 0.97951 0.08000
C 	C 	0.66954 0.13278 0.12254 0.00700
O 	O 	0.66420 0.44137 0.53117 -0.38100
H 	H 	0.65954 0.13092 0.74151 0.04000
H 	H 	0.65861 0.73106 0.81090 0.04000
O 	O 	0.65935 0.52870 0.90208 -0.39000
C 	C 	0.66968 0.15490 0.07510 -0.05100
C 	C 	0.69023 0.74101 0.93144 0.00600
C 	C 	0.68404 0.11152 0.80691 0.00800
C 	C 	0.68850 0.78101 0.90650 -0.04400
O 	O 	0.70427 0.29753 0.98569 -0.37000
C 	C 	0.68368 0.29008 0.57154 0.30200
H 	H 	0.69001 0.02195 0.85424 0.04500
H 	H 	0.68959 0.85125 0.59483 0.04400
H 	H 	0.68786 0.84679 0.64211 0.03500
C 	C 	0.69129 0.12460 0.75973 -0.01300
O 	O 	0.69806 0.34699 0.89591 -0.38500
C 	C 	0.69982 0.58482 0.57372 -0.01800
H 	H 	0.69180 0.60474 0.69386 0.03900
H 	H 	0.70266 0.84954 0.55328 0.04500
C 	C 	0.70619 0.78857 0.84956 -0.05100
O 	O 	0.70036 0.35156 0.45622 -0.37600
H 	H 	0.71339 0.24342 0.62120 0.03800
Ni	Ni	0.72832 0.46078 0.98222 1.11100
H 	H 	0.71226 0.97341 0.51714 0.03700
C 	C 	0.71588 0.60707 0.60027 0.01200
C 	C 	0.72040 0.78830 0.82275 0.00500
H 	H 	0.73007 0.00865 0.41855 0.04300
C 	C 	0.73146 0.07318 0.16826 -0.07500
H 	H 	0.72725 0.22242 0.51679 0.15000
O 	O 	0.73511 0.92761 0.19313 -0.37500
C 	C 	0.73989 0.09484 0.12159 -0.05300
H 	H 	0.73306 0.73133 0.12108 0.03400
H 	H 	0.74945 0.18855 0.07295 0.04400
C 	C 	0.74260 0.61918 0.65418 0.00800
Ni	Ni	0.75041 0.48105 0.91895 1.12100
C 	C 	0.74834 0.86273 0.41577 -0.07600
O 	O 	0.74642 0.29796 0.51035 -0.70900
O 	O 	0.75958 0.62666 0.97509 -0.36100
C 	C 	0.75848 0.03333 0.19157 0.29600
C 	C 	0.75536 0.62547 0.68112 -0.00500
C 	C 	0.75839 0.51856 0.53599 0.28800
C 	C 	0.75976 0.88013 0.60465 -0.05000
O 	O 	0.75888 0.99261 0.72438 -0.37400
C 	C 	0.75845 0.87749 0.63173 0.01300
C 	C 	0.76643 0.06046 0.14414 0.01000
H 	H 	0.76700 0.08175 0.10327 0.04800
C 	C 	0.76788 0.97066 0.40845 -0.00700
O 	O 	0.76761 0.85473 0.76669 -0.37200
C 	C 	0.77330 0.92314 0.54859 -0.05100
C 	C 	0.77386 0.10661 0.80663 -0.05000
Ni	Ni	0.77573 0.28121 0.47611 1.11100
C 	C 	0.76770 0.68098 0.12559 0.01500
C 	C 	0.77718 0.11310 0.75971 -0.07500
C 	C 	0.78230 0.76878 0.94279 -0.06900
C 	C 	0.77969 0.85017 0.89320 0.00700
C 	C 	0.00505 0.56559 0.94345 -0.14900
C 	C 	0.78001 0.98850 0.52690 0.01000
C 	C 	0.77887 0.59601 0.55778 -0.07100
O 	O 	0.77689 0.74968 0.19116 -0.37900
H 	H 	0.77682 0.64474 0.08594 0.04800
O 	O 	0.78163 0.35293 0.56773 -0.38400
C 	C 	0.78685 0.85963 0.86558 0.00600
Ni	Ni	0.79046 0.86599 0.72766 1.12000
C 	C 	0.79621 0.67606 0.95211 0.28200
O 	O 	0.79569 0.96285 0.24721 -0.36700
O 	O 	0.79331 0.85238 0.68891 -0.38900
C 	C 	0.79652 0.67577 0.15095 -0.08000
C 	C 	0.79496 0.63350 0.10549 -0.05900
C 	C 	0.00162 0.24136 0.08914 -0.03800
O 	O 	0.80181 0.72560 0.73058 -0.38000
Ni	Ni	0.80282 0.86934 0.21744 1.12100
H 	H 	0.80438 0.74655 0.41252 0.03800
H 	H 	0.80911 0.16934 0.38726 0.03800
C 	C 	0.80916 0.82302 0.40505 0.01200
H 	H 	0.81045 0.10643 0.82444 0.04600
H 	H 	0.81224 0.02073 0.14280 0.04400
C 	C 	0.81335 0.64857 0.61025 0.00600
C 	C 	0.81404 0.09033 0.73560 0.27900
C 	C 	0.81469 0.85772 0.81140 -0.06400
C 	C 	0.99972 0.66602 0.25360 0.02500
C 	C 	0.99812 0.56086 0.09846 0.07000
C 	C 	0.99045 0.76238 0.25420 -0.05300
H 	H 	0.98056 0.61591 0.23629 0.03400
H 	H 	0.94238 0.50057 0.16240 0.03200
C 	C 	0.98538 0.62264 0.04744 0.01400
C 	C 	0.93558 0.52301 0.14264 0.00500
O 	O 	0.96898 0.79742 0.20925 -0.37500
H 	H 	0.97822 0.64169 0.02743 0.04500
C 	C 	0.91593 0.57420 0.09104 -0.01800
Ni	Ni	0.98897 0.09466 0.71073 1.12100
C 	C 	0.86967 0.56342 0.13686 -0.01300
O 	O 	0.89676 0.44048 0.47137 -0.39000
C 	C 	0.87475 0.03406 0.26067 0.27400
C 	C 	0.82036 0.76938 0.16816 0.30500
C 	C 	0.93702 0.78534 0.23375 0.27900
Ni	Ni	0.96863 0.13577 0.20909 1.11300
O 	O 	0.94990 0.12367 0.24933 -0.36500
O 	O 	0.89967 0.86585 0.16271 -0.39100
O 	O 	0.97650 0.15571 0.16900 -0.36800
O 	O 	0.85654 0.79275 0.24026 -0.38200
O 	O 	0.82232 0.10620 0.20772 -0.37300
O 	O 	0.93724 0.98483 0.20930 -0.70200
H 	H 	0.96869 0.98497 0.22583 0.14600
C 	C 	0.99744 0.21847 0.11581 0.02800
C 	C 	0.95394 0.29829 0.07939 -0.01500
C 	C 	0.96327 0.32845 0.05328 -0.03000
H 	H 	0.96414 0.25274 0.12892 0.03900
H 	H 	0.90920 0.31917 0.09211 0.03700
H 	H 	0.92611 0.37298 0.04619 0.04400
C 	C 	0.85480 0.58349 0.11065 0.02500
C 	C 	0.83381 0.60352 0.15685 -0.00700
C 	C 	0.90468 0.59078 0.06458 -0.04500
H 	H 	0.85001 0.59387 0.17683 0.04400
H 	H 	0.83392 0.57723 0.05714 0.03500
C 	C 	0.87480 0.01766 0.28893 -0.07100
C 	C 	0.85641 0.91393 0.29884 0.00200
C 	C 	0.85717 0.89650 0.32544 -0.05000
C 	C 	0.86834 0.98020 0.34288 0.00800
C 	C 	0.87602 0.08085 0.33295 0.00500
C 	C 	0.88602 0.10199 0.30602 -0.01400
C 	C 	0.86190 0.15245 0.34969 -0.04100
C 	C 	0.82933 0.11880 0.37530 -0.03600
C 	C 	0.81999 0.01839 0.38506 -0.00500
C 	C 	0.85328 0.95777 0.36988 0.01400
C 	C 	0.86032 0.86903 0.38168 -0.05400
H 	H 	0.83994 0.84574 0.28592 0.04200
H 	H 	0.84136 0.81477 0.33235 0.04800
H 	H 	0.89565 0.18058 0.29839 0.04400
H 	H 	0.86882 0.23020 0.34237 0.04300
H 	H 	0.90249 0.83409 0.37258 0.04900
C 	C 	0.98041 0.47135 0.48336 0.37000
C 	C 	0.87017 0.18796 0.51518 0.27900
Ni	Ni	0.85822 0.38703 0.53294 1.11900
O 	O 	0.86930 0.21996 0.49058 -0.35800
O 	O 	0.87719 0.25179 0.53531 -0.36600
O 	O 	0.97899 0.44523 0.50787 -0.38400
O 	O 	0.83415 0.51430 0.52491 -0.38600
C 	C 	0.85187 0.92651 0.59076 0.00500
C 	C 	0.94170 0.96168 0.60476 0.02300
C 	C 	0.93846 0.95469 0.63192 0.00400
C 	C 	0.95380 0.02910 0.55287 0.00800
C 	C 	0.85877 0.95449 0.56388 0.01800
C 	C 	0.87149 0.08388 0.52061 -0.07100
C 	C 	0.95953 0.09186 0.53062 0.00200
C 	C 	0.87747 0.66049 0.56651 0.00100
C 	C 	0.89491 0.68814 0.59263 -0.04800
C 	C 	0.82606 0.64866 0.63750 0.01500
H 	H 	0.94043 0.68332 0.55345 0.03900
H 	H 	0.97091 0.74188 0.59881 0.04600
H 	H 	0.97940 0.67844 0.63665 0.05000
C 	C 	0.87229 0.71778 0.71773 0.30100
C 	C 	0.84868 0.93757 0.67340 0.31400
O 	O 	0.96530 0.77473 0.72549 -0.36100
O 	O 	0.90901 0.15642 0.72846 -0.37500
O 	O 	0.88920 0.04037 0.68194 -0.39000
O 	O 	0.93014 0.96684 0.73298 -0.69200
H 	H 	0.92295 0.00412 0.74834 0.13400
C 	C 	0.84799 0.91945 0.64538 -0.07800
C 	C 	0.91846 0.67241 0.64848 -0.06100
C 	C 	0.93160 0.68534 0.67518 0.03700
C 	C 	0.85179 0.66960 0.69146 -0.08400
C 	C 	0.83137 0.85086 0.78345 0.27600
O 	O 	0.89993 0.82394 0.77590 -0.35600
C 	C 	0.82046 0.10902 0.78317 0.00800
H 	H 	0.88902 0.10445 0.78322 0.02700
C 	C 	0.88124 0.93292 0.85380 0.00700
C 	C 	0.89381 0.93265 0.82679 -0.02200
H 	H 	0.96609 0.98826 0.81786 0.04800
O 	O 	0.83369 0.63307 0.93558 -0.37700
C 	C 	0.86843 0.90263 0.90788 0.00800
C 	C 	0.86775 0.86477 0.93335 -0.01000
C 	C 	0.95840 0.98228 0.89607 -0.02100
C 	C 	0.96415 0.99904 0.86928 -0.02300
H 	H 	0.93760 0.89619 0.94371 0.04600
C 	C 	0.91031 0.49881 0.95110 0.36600
O 	O 	0.87883 0.51951 0.97300 -0.37700
O 	O 	0.84504 0.43407 0.93416 -0.39600
