data_crystal

_cell_length_a 25.36767
_cell_length_b 26.03808
_cell_length_c 17.25159
_cell_angle_alpha 95.48782
_cell_angle_beta  95.48400
_cell_angle_gamma 125.84666

_symmetry_space_group_name_	'P 1'
_symmetry_space_group_name_H-M	'P 1'

loop_
_symmetry_equiv_pos_as_xyz
  x,y,z

loop_
_atom_site_label
_atom_site_type_symbol
_atom_site_fract_x
_atom_site_fract_y
_atom_site_fract_z
_atom_site_charge
C 	C 	0.04439 0.07375 0.94885 -0.08800
C 	C 	0.06751 0.03803 0.92625 0.04600
H 	H 	0.07317 0.12453 0.94558 0.05300
C 	C 	0.02787 0.00691 0.44899 0.03100
H 	H 	0.02391 0.08316 0.41844 0.04800
C 	C 	0.34850 0.23125 0.53852 -0.07700
C 	C 	0.31107 0.16708 0.54931 0.01800
C 	C 	0.34332 0.13934 0.56812 -0.00900
C 	C 	0.23833 0.12598 0.52472 -0.00200
S 	S 	0.30044 0.06397 0.59782 -0.04400
H 	H 	0.32454 0.25405 0.52829 0.05200
C 	C 	0.19793 0.12500 0.57616 0.01100
C 	C 	0.12921 0.08648 0.55049 -0.05100
C 	C 	0.10043 0.04903 0.47382 -0.01300
C 	C 	0.14094 0.05084 0.42203 0.01600
C 	C 	0.20951 0.08910 0.44776 -0.05400
S 	S 	0.23273 0.17183 0.67242 -0.05100
H 	H 	0.09809 0.08555 0.59010 0.04300
H 	H 	0.24065 0.09048 0.40781 0.04900
H 	H 	0.24955 0.23209 0.67011 0.03400
H 	H 	0.30533 0.07302 0.67848 0.03600
C 	C 	0.20461 0.07233 0.81736 -0.05600
C 	C 	0.26052 0.11762 0.87603 -0.00100
C 	C 	0.25324 0.14387 0.94594 0.01300
C 	C 	0.18995 0.11951 0.96030 -0.04800
C 	C 	0.13361 0.07068 0.90421 -0.01800
C 	C 	0.14129 0.04972 0.83039 0.01800
C 	C 	0.32512 0.13158 0.86852 0.01500
S 	S 	0.32304 0.20614 0.01675 -0.04800
H 	H 	0.18443 0.13715 0.01616 0.04400
H 	H 	0.21027 0.05374 0.76233 0.04800
C 	C 	0.34859 0.10330 0.91162 -0.00700
C 	C 	0.36731 0.18010 0.82777 -0.07500
S 	S 	0.29434 0.03522 0.95246 -0.04300
H 	H 	0.34840 0.19899 0.79005 0.05500
H 	H 	0.26796 0.98046 0.89772 0.03400
H 	H 	0.34086 0.17976 0.06852 0.03800
H 	H 	0.09987 0.04152 0.27590 0.03700
H 	H 	0.07884 0.14704 0.17160 0.03400
H 	H 	0.06067 0.03228 0.71077 0.03500
S 	S 	0.10643 0.00617 0.32450 -0.04700
C 	C 	0.50667 0.25700 0.51036 0.29800
C 	C 	0.41000 0.17168 0.56235 -0.00300
C 	C 	0.44528 0.23267 0.54093 -0.09400
C 	C 	0.41574 0.26453 0.53552 0.05900
H 	H 	0.43340 0.14815 0.57074 0.03700
S 	S 	0.46242 0.34586 0.52490 -0.06200
H 	H 	0.49004 0.38466 0.59845 0.04000
C 	C 	0.41609 0.13084 0.92462 -0.00800
C 	C 	0.46038 0.18602 0.89387 -0.09100
C 	C 	0.43456 0.20619 0.83837 0.05200
H 	H 	0.43453 0.11157 0.96239 0.04700
S 	S 	0.48427 0.25972 0.77768 -0.03600
H 	H 	0.49242 0.22726 0.71866 0.04300
H 	H 	0.01637 0.92157 0.47374 0.05000
O 	O 	0.55537 0.20361 0.97373 -0.36300
C 	C 	0.53186 0.22746 0.92992 0.28100
O 	O 	0.56749 0.29018 0.93244 -0.39200
O 	O 	0.55148 0.25310 0.54898 -0.38500
O 	O 	0.50791 0.26768 0.43692 -0.39100
S 	S 	0.07251 0.99708 0.75325 -0.05300
C 	C 	0.03068 0.97264 0.93230 -0.08700
H 	H 	0.04932 0.94536 0.91734 0.05600
Cu	Cu	0.58631 0.31368 0.38542 0.89500
H 	H 	0.58893 0.22113 0.39901 0.16800
H 	H 	0.61454 0.06956 0.40063 0.03300
H 	H 	0.61726 0.52369 0.05091 0.03800
O 	O 	0.59146 0.30005 0.12594 -0.35300
O 	O 	0.61868 0.26843 0.41797 -0.63900
O 	O 	0.61646 0.32727 0.28141 -0.35600
S 	S 	0.62842 0.52633 0.97474 -0.05000
H 	H 	0.04130 0.92729 0.13500 0.03400
Cu	Cu	0.62314 0.35572 0.04494 0.89800
H 	H 	0.64429 0.23359 0.87024 0.17000
S 	S 	0.63072 0.08323 0.32800 -0.04900
C 	C 	0.62716 0.28634 0.16581 0.19700
Cu	Cu	0.64176 0.29560 0.53167 0.89400
C 	C 	0.63918 0.29918 0.24469 0.19800
Cu	Cu	0.65311 0.25256 0.01998 0.92900
O 	O 	0.64449 0.25332 0.12877 -0.32200
O 	O 	0.66926 0.31652 0.64720 -0.34400
O 	O 	0.67739 0.26790 0.91575 -0.64700
O 	O 	0.67390 0.44652 0.03033 -0.38900
H 	H 	0.65366 0.48418 0.41146 0.02900
H 	H 	0.65900 0.61948 0.46449 0.03700
Cu	Cu	0.69254 0.35157 0.91600 0.89600
O 	O 	0.69285 0.35086 0.02839 -0.63500
O 	O 	0.68924 0.34092 0.80303 -0.34000
O 	O 	0.66675 0.39857 0.46907 -0.40000
O 	O 	0.68357 0.29507 0.28334 -0.32800
S 	S 	0.67606 0.60384 0.39809 -0.04400
O 	O 	0.70148 0.43093 0.91153 -0.37700
S 	S 	0.01420 0.09336 0.15784 -0.05100
O 	O 	0.70056 0.21545 0.04742 -0.36600
C 	C 	0.70681 0.46946 0.97244 0.29400
O 	O 	0.71047 0.21110 0.44989 -0.43900
H 	H 	0.70708 0.03526 0.31426 0.05200
C 	C 	0.71406 0.57026 0.97617 0.06100
H 	H 	0.71038 0.12282 0.05209 0.04300
C 	C 	0.72268 0.32442 0.76792 0.19500
C 	C 	0.71466 0.31469 0.68897 0.19100
C 	C 	0.70647 0.52205 0.42865 -0.00100
C 	C 	0.71639 0.12345 0.33425 0.06000
Cu	Cu	0.71544 0.32239 0.39471 0.92900
H 	H 	0.72855 0.66088 0.98222 0.05300
H 	H 	0.73928 0.01767 0.97418 0.03400
O 	O 	0.73243 0.33405 0.51061 -0.64600
C 	C 	0.72252 0.43808 0.44481 0.28700
H 	H 	0.73642 0.38400 0.06296 0.16000
C 	C 	0.73137 0.58594 0.42624 -0.00800
C 	C 	0.74431 0.53890 0.97113 -0.09400
Cu	Cu	0.73913 0.26955 0.54698 0.86400
C 	C 	0.74028 0.08732 0.32066 -0.07600
C 	C 	0.75182 0.63686 0.97847 -0.07600
C 	C 	0.74302 0.23026 0.39130 0.29800
S 	S 	0.75266 0.04221 0.05330 -0.04200
O 	O 	0.74555 0.41445 0.39979 -0.36000
O 	O 	0.75574 0.30847 0.65502 -0.38800
C 	C 	0.74950 0.50645 0.45081 -0.09500
Cu	Cu	0.76884 0.30097 0.91415 0.85900
C 	C 	0.76474 0.24874 0.05110 0.29800
O 	O 	0.76863 0.32332 0.80951 -0.39200
O 	O 	0.76441 0.28651 0.37365 -0.37200
H 	H 	0.76641 0.37877 0.53972 0.17700
C 	C 	0.76099 0.19145 0.35083 -0.09700
C 	C 	0.76401 0.15396 0.06587 -0.00400
O 	O 	0.79616 0.30166 0.02131 -0.43600
C 	C 	0.80007 0.63509 0.44631 0.01900
C 	C 	0.79783 0.12661 0.06730 -0.00700
C 	C 	0.79936 0.22130 0.07697 -0.09900
C 	C 	0.80800 0.11857 0.32217 0.01900
S 	S 	0.80925 0.70424 0.80798 -0.04200
C 	C 	0.81151 0.57449 0.96600 -0.00200
H 	H 	0.81181 0.90373 0.21122 0.03400
C 	C 	0.81809 0.55603 0.47382 0.06000
C 	C 	0.81896 0.67231 0.97321 0.01900
C 	C 	0.99553 0.03225 0.42092 -0.07000
C 	C 	0.98496 0.04425 0.97762 0.04800
C 	C 	0.84300 0.61993 0.47080 -0.07700
S 	S 	0.87278 0.53924 0.50992 -0.06000
H 	H 	0.89579 0.65795 0.48773 0.05300
H 	H 	0.87652 0.54182 0.59011 0.03300
C 	C 	0.83951 0.04707 0.28027 -0.05500
C 	C 	0.83671 0.08461 0.34130 -0.00400
C 	C 	0.86021 0.08875 0.42086 0.01400
C 	C 	0.88807 0.05722 0.43831 -0.05100
C 	C 	0.89211 0.02070 0.37740 -0.01400
C 	C 	0.86660 0.01464 0.29794 0.01600
S 	S 	0.85496 0.13333 0.49915 -0.06000
H 	H 	0.82080 0.04323 0.21918 0.05000
C 	C 	0.84970 0.18553 0.32364 -0.00700
C 	C 	0.82623 0.22187 0.33881 -0.00300
S 	S 	0.93233 0.22466 0.31173 -0.04200
H 	H 	0.85978 0.27397 0.34614 0.04000
H 	H 	0.97143 0.24140 0.38389 0.03200
H 	H 	0.91003 0.19633 0.51280 0.03000
C 	C 	0.84892 0.64088 0.96698 -0.00900
H 	H 	0.83481 0.55052 0.96169 0.02600
C 	C 	0.90264 0.23359 0.09996 -0.07700
C 	C 	0.86740 0.16671 0.07734 0.01800
C 	C 	0.86883 0.26097 0.10239 0.05500
C 	C 	0.90240 0.14025 0.05192 -0.00200
S 	S 	0.91298 0.34327 0.14369 -0.04600
H 	H 	0.95629 0.26439 0.11344 0.05100
C 	C 	0.90117 0.12509 0.97068 0.01200
C 	C 	0.93003 0.09543 0.94717 -0.05000
C 	C 	0.96169 0.08216 0.00391 -0.01700
C 	C 	0.96707 0.10148 0.08529 0.02100
C 	C 	0.93639 0.12936 0.10887 -0.05700
S 	S 	0.86396 0.14335 0.89800 -0.06300
H 	H 	0.92709 0.08185 0.88462 0.04400
H 	H 	0.93876 0.14234 0.17136 0.05100
H 	H 	0.93718 0.37923 0.08570 0.03000
H 	H 	0.90942 0.20520 0.88748 0.02900
H 	H 	0.90713 0.06143 0.49943 0.04400
H 	H 	0.93825 0.68567 0.88109 0.03400
C 	C 	0.82764 0.70247 0.44078 -0.00200
C 	C 	0.84005 0.74635 0.50746 0.01100
C 	C 	0.86836 0.81051 0.50161 -0.04900
C 	C 	0.87025 0.78708 0.36247 0.01700
C 	C 	0.84201 0.72293 0.36834 -0.05400
S 	S 	0.82104 0.72167 0.59863 -0.04600
H 	H 	0.83171 0.68901 0.31675 0.04900
H 	H 	0.87409 0.72866 0.64093 0.03400
C 	C 	0.89383 0.78794 0.03914 -0.05400
C 	C 	0.85647 0.74157 0.96943 -0.00200
C 	C 	0.85602 0.76139 0.89631 0.01000
H 	H 	0.89451 0.77272 0.09530 0.04900
S 	S 	0.93292 0.68396 0.95924 -0.04500
H 	H 	0.84578 0.68665 0.77812 0.03500
C 	C 	0.88450 0.83143 0.42976 -0.01400
H 	H 	0.87922 0.84456 0.55341 0.04500
C 	C 	0.97025 0.94266 0.95862 0.04900
C 	C 	0.88980 0.92635 0.40101 -0.07700
C 	C 	0.92236 0.90078 0.42774 0.03900
H 	H 	0.83632 0.89532 0.38346 0.05200
S 	S 	0.88859 0.81159 0.27103 -0.04500
H 	H 	0.83639 0.80663 0.22985 0.03500
C 	C 	0.89345 0.82718 0.89349 -0.04700
C 	C 	0.93099 0.87358 0.96312 -0.01800
C 	C 	0.93109 0.85378 0.03639 0.01800
H 	H 	0.89337 0.84234 0.83710 0.04600
S 	S 	0.97867 0.91095 0.12464 -0.03800
S 	S 	0.86747 0.96606 0.22048 -0.04100
C 	C 	0.92642 0.99218 0.39743 0.03900
C 	C 	0.94731 0.97843 0.98087 -0.08300
H 	H 	0.90077 0.95534 0.00178 0.05800
C 	C 	0.99125 0.94125 0.45252 -0.06800
