data_crystal

_cell_length_a 30.50162
_cell_length_b 31.22303
_cell_length_c 34.88447
_cell_angle_alpha 95.52938
_cell_angle_beta  95.52881
_cell_angle_gamma 125.55080

_symmetry_space_group_name_	'P 1'
_symmetry_space_group_name_H-M	'P 1'

loop_
_symmetry_equiv_pos_as_xyz
  x,y,z

loop_
_atom_site_label
_atom_site_type_symbol
_atom_site_fract_x
_atom_site_fract_y
_atom_site_fract_z
_atom_site_charge
C 	C 	0.94323 0.00395 0.97905 0.11800
N 	N 	0.91233 0.94983 0.97564 -0.13900
C 	C 	0.93581 0.92408 0.97214 0.12200
N 	N 	0.99039 0.95259 0.97209 -0.13900
C 	C 	0.02156 0.00669 0.97555 0.12000
N 	N 	0.99791 0.03237 0.97898 -0.13900
C 	C 	0.96811 0.01215 0.46243 0.11900
N 	N 	0.02321 0.04224 0.46399 -0.13900
C 	C 	0.04927 0.01882 0.46377 0.12000
N 	N 	0.02007 0.96510 0.46188 -0.13800
C 	C 	0.96505 0.93478 0.46049 0.12200
N 	N 	0.93901 0.95832 0.46082 -0.13800
Cu	Cu	0.62462 0.24248 0.00172 0.93000
Cu	Cu	0.66906 0.24368 0.91989 0.87400
Cu	Cu	0.65576 0.32626 0.95047 0.90100
Cu	Cu	0.63248 0.34606 0.02863 0.89800
C 	C 	0.64215 0.28331 0.08334 0.34400
O 	O 	0.54609 0.21644 0.00117 -0.35900
C 	C 	0.64454 0.29293 0.86548 0.33600
O 	O 	0.67252 0.32600 0.00492 -0.63900
O 	O 	0.61782 0.24759 0.94578 -0.64000
O 	O 	0.65453 0.20033 0.99911 -0.36000
O 	O 	0.71811 0.25548 0.96451 -0.43100
O 	O 	0.61879 0.30615 0.07281 -0.38600
O 	O 	0.69736 0.40329 0.95764 -0.36500
C 	C 	0.69130 0.43362 0.98226 0.29600
C 	C 	0.52729 0.24108 0.98590 0.28500
O 	O 	0.56176 0.29132 0.98226 -0.39300
O 	O 	0.67139 0.41859 0.01450 -0.38700
O 	O 	0.64347 0.25067 0.05729 -0.33800
C 	C 	0.70128 0.21985 0.98733 0.29600
O 	O 	0.64636 0.32580 0.89372 -0.35300
O 	O 	0.63801 0.24879 0.87194 -0.41800
H 	H 	0.71218 0.34793 0.01624 0.18100
H 	H 	0.57996 0.22546 0.93039 0.17700
Cu	Cu	0.75427 0.35183 0.45480 0.93000
Cu	Cu	0.75143 0.30691 0.53626 0.88100
Cu	Cu	0.66975 0.32473 0.50705 0.89900
Cu	Cu	0.65346 0.35352 0.43052 0.89900
C 	C 	0.71190 0.33755 0.37363 0.34000
O 	O 	0.78765 0.43056 0.45625 -0.34800
C 	C 	0.70313 0.33190 0.59144 0.33300
O 	O 	0.66921 0.30992 0.45230 -0.64000
O 	O 	0.74983 0.35874 0.51104 -0.63900
O 	O 	0.79244 0.31720 0.45567 -0.36400
O 	O 	0.73499 0.25740 0.49116 -0.43000
O 	O 	0.69129 0.36292 0.38496 -0.36000
O 	O 	0.59104 0.28652 0.50013 -0.37400
C 	C 	0.56030 0.28887 0.47224 0.29300
C 	C 	0.76512 0.45222 0.47100 0.28500
O 	O 	0.71432 0.42113 0.47645 -0.38800
O 	O 	0.58218 0.32338 0.44825 -0.38600
O 	O 	0.74418 0.33390 0.39895 -0.35500
C 	C 	0.77036 0.27135 0.46766 0.29000
O 	O 	0.67056 0.33269 0.56396 -0.37800
O 	O 	0.74812 0.33833 0.58447 -0.38500
H 	H 	0.64464 0.27145 0.43999 0.16900
H 	H 	0.77382 0.39569 0.52653 0.17900
C 	C 	0.68866 0.36065 0.77843 -0.14300
C 	C 	0.65499 0.31683 0.74736 0.01400
C 	C 	0.61320 0.26675 0.75507 0.28400
C 	C 	0.60771 0.25973 0.79375 -0.05900
C 	C 	0.64375 0.30271 0.82503 -0.14800
C 	C 	0.68304 0.35373 0.81716 0.36400
C 	C 	0.66797 0.32168 0.70764 0.01100
F 	F 	0.57931 0.22442 0.72514 -0.42700
H 	H 	0.57646 0.22050 0.79946 0.08700
F 	F 	0.71785 0.39586 0.84705 -0.44900
H 	H 	0.72070 0.39953 0.77269 0.11900
C 	C 	0.65650 0.34964 0.68452 0.28700
C 	C 	0.66845 0.35346 0.64668 -0.05700
C 	C 	0.69203 0.32942 0.63174 -0.14600
C 	C 	0.70362 0.30163 0.65509 0.36400
C 	C 	0.69185 0.29806 0.69286 -0.14100
F 	F 	0.63340 0.37269 0.69856 -0.42500
H 	H 	0.65954 0.37517 0.62907 0.09200
F 	F 	0.72493 0.27684 0.64078 -0.46000
H 	H 	0.70089 0.27651 0.71060 0.11400
C 	C 	0.71651 0.29905 0.18274 -0.14800
C 	C 	0.67914 0.29226 0.20653 0.01300
C 	C 	0.62817 0.27900 0.18939 0.29300
C 	C 	0.61552 0.27448 0.14896 -0.05900
C 	C 	0.65362 0.28310 0.12526 -0.14500
C 	C 	0.70375 0.29426 0.14218 0.36600
C 	C 	0.69528 0.30404 0.24955 0.01000
F 	F 	0.59162 0.27213 0.21212 -0.42200
H 	H 	0.57639 0.26500 0.13609 0.09300
F 	F 	0.74087 0.30243 0.11959 -0.44800
H 	H 	0.75591 0.30925 0.19578 0.11400
C 	C 	0.67394 0.26210 0.27075 0.29700
C 	C 	0.68204 0.27336 0.31171 -0.06100
C 	C 	0.71110 0.32644 0.33162 -0.14400
C 	C 	0.73500 0.36851 0.31055 0.37200
C 	C 	0.72718 0.35728 0.26968 -0.14800
F 	F 	0.64377 0.21044 0.25159 -0.42000
H 	H 	0.66399 0.24073 0.32781 0.08300
F 	F 	0.76462 0.42016 0.32963 -0.44300
H 	H 	0.74421 0.38986 0.25353 0.11200
C 	C 	0.93405 0.87659 0.45882 -0.02100
C 	C 	0.94439 0.84684 0.43362 -0.01400
C 	C 	0.92173 0.79359 0.43610 -0.05000
C 	C 	0.88857 0.76961 0.46376 0.03000
C 	C 	0.87628 0.79844 0.48788 -0.05000
C 	C 	0.89884 0.85179 0.48535 -0.01400
C 	C 	0.86910 0.71619 0.46836 -0.01100
C 	C 	0.85344 0.67144 0.47149 -0.01700
C 	C 	0.83523 0.61789 0.47441 0.04300
C 	C 	0.79729 0.58909 0.49830 -0.06500
C 	C 	0.77648 0.53571 0.49880 0.01600
C 	C 	0.79324 0.51061 0.47515 -0.08100
C 	C 	0.83307 0.54041 0.45252 0.02000
C 	C 	0.85385 0.59378 0.45213 -0.06200
H 	H 	0.97103 0.86537 0.41274 0.04400
H 	H 	0.93093 0.77135 0.41707 0.05100
H 	H 	0.85028 0.78001 0.50913 0.05000
H 	H 	0.89058 0.87433 0.50497 0.04400
H 	H 	0.78317 0.60767 0.51595 0.05400
H 	H 	0.74652 0.51358 0.51693 0.03800
H 	H 	0.84656 0.52179 0.43419 0.05700
H 	H 	0.88356 0.61599 0.43385 0.05900
C 	C 	0.94022 0.03807 0.46254 -0.02000
C 	C 	0.96626 0.08913 0.48554 -0.01500
C 	C 	0.94242 0.11603 0.48305 -0.05000
C 	C 	0.89236 0.09218 0.45765 0.02800
C 	C 	0.86556 0.04072 0.43530 -0.04900
C 	C 	0.88935 0.01367 0.43776 -0.01800
C 	C 	0.86879 0.12081 0.45444 -0.01100
C 	C 	0.85001 0.14567 0.45235 -0.01900
C 	C 	0.82814 0.17597 0.45084 0.04400
C 	C 	0.77308 0.15157 0.45334 -0.06800
C 	C 	0.75341 0.18230 0.45673 0.02100
C 	C 	0.78879 0.23784 0.45782 -0.09000
C 	C 	0.84330 0.26172 0.45335 0.02000
C 	C 	0.86290 0.23087 0.44999 -0.06700
H 	H 	0.00518 0.10816 0.50510 0.04400
H 	H 	0.96313 0.15560 0.50066 0.04900
H 	H 	0.82666 0.02190 0.41575 0.04900
H 	H 	0.86892 0.97442 0.41973 0.04600
H 	H 	0.74584 0.10906 0.45366 0.05500
H 	H 	0.71102 0.16317 0.45944 0.03700
H 	H 	0.87103 0.30444 0.45400 0.03900
H 	H 	0.90547 0.24996 0.44783 0.05500
C 	C 	0.10917 0.05163 0.46583 -0.02100
C 	C 	0.14036 0.03802 0.48592 -0.01400
C 	C 	0.19692 0.06836 0.48712 -0.05000
C 	C 	0.22277 0.11251 0.46833 0.02900
C 	C 	0.19194 0.12650 0.44853 -0.05000
C 	C 	0.13533 0.09621 0.44727 -0.01400
C 	C 	0.28085 0.14311 0.46904 -0.01000
C 	C 	0.32950 0.16862 0.46971 -0.01800
C 	C 	0.38758 0.19896 0.47047 0.04500
C 	C 	0.41542 0.24811 0.45776 -0.06600
C 	C 	0.47179 0.27755 0.45834 0.02100
C 	C 	0.50078 0.25795 0.47167 -0.08200
C 	C 	0.47267 0.20862 0.48441 0.02200
C 	C 	0.41628 0.17928 0.48380 -0.06500
H 	H 	0.12086 0.00413 0.50074 0.04400
H 	H 	0.22059 0.05746 0.50259 0.05100
H 	H 	0.21171 0.16061 0.43393 0.04900
H 	H 	0.11177 0.10696 0.43144 0.04400
H 	H 	0.39344 0.26357 0.44747 0.05500
H 	H 	0.49295 0.31574 0.44876 0.04000
H 	H 	0.49436 0.19279 0.49445 0.03900
H 	H 	0.39493 0.14123 0.49361 0.05700
C 	C 	0.90244 0.86547 0.96929 -0.02200
C 	C 	0.85949 0.83971 0.99032 -0.01200
C 	C 	0.82989 0.78458 0.98930 -0.04900
C 	C 	0.84292 0.75484 0.96726 0.02900
C 	C 	0.88489 0.78015 0.94558 -0.05000
C 	C 	0.91454 0.83525 0.94653 -0.01400
C 	C 	0.81488 0.69885 0.96826 -0.01000
C 	C 	0.79150 0.65194 0.96902 -0.01700
C 	C 	0.76429 0.59615 0.97035 0.04400
C 	C 	0.78383 0.56906 0.95383 -0.06200
C 	C 	0.75953 0.51574 0.95714 0.02500
C 	C 	0.71546 0.48912 0.97712 -0.07800
C 	C 	0.69529 0.51615 0.99296 0.02100
C 	C 	0.71972 0.56949 0.98962 -0.06400
H 	H 	0.84983 0.86253 0.00811 0.04300
H 	H 	0.79742 0.76519 0.00611 0.04800
H 	H 	0.89498 0.75729 0.92834 0.05100
H 	H 	0.94703 0.85446 0.92973 0.04500
H 	H 	0.81830 0.58949 0.93887 0.06000
H 	H 	0.77564 0.49552 0.94482 0.05600
H 	H 	0.66083 0.49592 0.00793 0.03500
H 	H 	0.70430 0.59020 0.00234 0.05200
C 	C 	0.91739 0.03164 0.98287 -0.01800
C 	C 	0.94581 0.08231 0.00711 -0.01700
C 	C 	0.92027 0.10740 0.01186 -0.05000
C 	C 	0.86628 0.08209 0.99245 0.02800
C 	C 	0.83800 0.03177 0.96807 -0.04900
C 	C 	0.86340 0.00663 0.96325 -0.01800
C 	C 	0.84014 0.10810 0.99685 -0.00800
C 	C 	0.81740 0.12909 0.00008 -0.02300
C 	C 	0.78975 0.15377 0.00276 0.04600
C 	C 	0.73351 0.12241 0.00357 -0.06600
C 	C 	0.70494 0.14472 0.00068 0.01800
C 	C 	0.73248 0.19854 0.99672 -0.08400
C 	C 	0.78942 0.23054 0.99803 0.02500
C 	C 	0.81787 0.20816 0.00096 -0.07000
H 	H 	0.98729 0.10188 0.02266 0.04400
H 	H 	0.94242 0.14642 0.03068 0.05000
H 	H 	0.79636 0.01215 0.95279 0.04800
H 	H 	0.84119 0.96782 0.94416 0.04600
H 	H 	0.71157 0.08037 0.00521 0.05400
H 	H 	0.66110 0.11962 0.99993 0.04200
H 	H 	0.81138 0.27238 0.99580 0.04000
H 	H 	0.86147 0.23276 0.00069 0.05500
C 	C 	0.08102 0.03738 0.97629 -0.02000
C 	C 	0.10769 0.08106 0.95688 -0.01500
C 	C 	0.16339 0.10783 0.95554 -0.04900
C 	C 	0.19273 0.09118 0.97364 0.02800
C 	C 	0.16647 0.04828 0.99360 -0.04700
C 	C 	0.11088 0.02150 0.99498 -0.01600
C 	C 	0.24971 0.11781 0.97163 -0.01000
C 	C 	0.29745 0.13932 0.97045 -0.01900
C 	C 	0.35458 0.16450 0.96989 0.04500
C 	C 	0.37412 0.13351 0.96762 -0.06700
C 	C 	0.43040 0.15835 0.97126 0.02100
C 	C 	0.46762 0.21451 0.97739 -0.08600
C 	C 	0.44760 0.24530 0.97803 0.02000
C 	C 	0.39130 0.22032 0.97438 -0.06700
H 	H 	0.08510 0.09359 0.94220 0.04400
H 	H 	0.18355 0.14114 0.94017 0.04900
H 	H 	0.18904 0.03548 0.00789 0.04800
H 	H 	0.09099 0.98830 0.01046 0.04500
H 	H 	0.34586 0.09025 0.96385 0.05500
H 	H 	0.44508 0.13401 0.96996 0.03700
H 	H 	0.47569 0.28861 0.98258 0.03400
H 	H 	0.37641 0.24450 0.97598 0.05400
