data_crystal

_cell_length_a 18.87409
_cell_length_b 16.17656
_cell_length_c 39.74209
_cell_angle_alpha 90.85048
_cell_angle_beta  91.25524
_cell_angle_gamma 111.13090

_symmetry_space_group_name_	'P 1'
_symmetry_space_group_name_H-M	'P 1'

loop_
_symmetry_equiv_pos_as_xyz
  x,y,z

loop_
_atom_site_label
_atom_site_type_symbol
_atom_site_fract_x
_atom_site_fract_y
_atom_site_fract_z
_atom_site_charge
Ni	Ni	0.71385 0.31933 0.88086 1.09900
O 	O 	0.62707 0.23764 0.85095 -0.71000
Ni	Ni	0.53847 0.24623 0.87444 1.10400
O 	O 	0.79031 0.29720 0.84989 -0.37200
O 	O 	0.73627 0.14637 0.85644 -0.40000
O 	O 	0.70683 0.41606 0.85011 -0.40100
Ni	Ni	0.61822 0.11492 0.84964 1.06500
O 	O 	0.73019 0.43173 0.95288 -0.40800
O 	O 	0.60903 0.10063 0.90062 -0.40700
O 	O 	0.45995 0.17543 0.83940 -0.38300
O 	O 	0.62468 0.31090 0.90848 -0.70000
O 	O 	0.80087 0.41087 0.90873 -0.37700
O 	O 	0.45968 0.28883 0.89629 -0.36600
O 	O 	0.54516 0.42938 0.89665 -0.41600
Ni	Ni	0.63976 0.43139 0.92431 1.07500
H 	H 	0.62829 0.25969 0.82778 0.15900
H 	H 	0.62410 0.27380 0.92812 0.15900
C 	C 	0.54643 0.09497 0.91578 0.29000
O 	O 	0.71284 0.51653 0.89201 -0.39300
C 	C 	0.79028 0.21675 0.84430 0.27000
C 	C 	0.45232 0.09315 0.83096 0.28300
C 	C 	0.72203 0.49788 0.86051 0.31200
C 	C 	0.47844 0.37299 0.90471 0.28100
C 	C 	0.79599 0.43770 0.94002 0.28700
O 	O 	0.50286 0.13650 0.90427 -0.37100
O 	O 	0.50122 0.05659 0.84242 -0.40200
Ni	Ni	0.61303 0.35217 0.56935 1.09900
O 	O 	0.69764 0.36128 0.53651 -0.70000
Ni	Ni	0.76895 0.32242 0.56481 1.09800
O 	O 	0.56613 0.42615 0.54117 -0.37300
O 	O 	0.68184 0.53456 0.53778 -0.41000
O 	O 	0.54012 0.24253 0.54286 -0.37000
Ni	Ni	0.75176 0.47585 0.51671 1.07300
O 	O 	0.51444 0.18452 0.60574 -0.40500
O 	O 	0.83334 0.54658 0.55163 -0.39200
O 	O 	0.85762 0.34417 0.53269 -0.37500
O 	O 	0.68023 0.30474 0.59639 -0.70300
O 	O 	0.53061 0.33217 0.60379 -0.38200
O 	O 	0.81945 0.26268 0.59786 -0.37000
O 	O 	0.71308 0.13727 0.59828 -0.40700
Ni	Ni	0.62120 0.17892 0.60226 1.06400
H 	H 	0.67797 0.31767 0.51771 0.15600
H 	H 	0.69624 0.33709 0.61824 0.15500
C 	C 	0.86842 0.51296 0.57321 0.29900
O 	O 	0.60624 0.15158 0.55199 -0.41500
C 	C 	0.60914 0.50369 0.53017 0.28400
C 	C 	0.87513 0.40382 0.50875 0.28600
C 	C 	0.55777 0.17408 0.53379 0.29300
C 	C 	0.78278 0.18291 0.60920 0.27800
C 	C 	0.49760 0.25299 0.61663 0.28200
O 	O 	0.82906 0.44073 0.58919 -0.38900
O 	O 	0.82241 0.42624 0.49305 -0.41500
Ni	Ni	0.00008 0.95063 0.75559 1.08400
O 	O 	0.01884 0.86813 0.72091 -0.72600
Ni	Ni	0.07369 0.95363 0.68611 1.08900
O 	O 	0.94602 0.84554 0.78541 -0.35400
O 	O 	0.85942 0.77828 0.74331 -0.41100
O 	O 	0.10031 0.96801 0.78232 -0.37500
Ni	Ni	0.92205 0.79049 0.69998 1.07200
O 	O 	0.09096 0.13861 0.78589 -0.40000
O 	O 	0.88482 0.88985 0.68616 -0.40300
O 	O 	0.09090 0.86052 0.65512 -0.36700
O 	O 	0.04487 0.03726 0.71853 -0.69200
O 	O 	0.97432 0.03048 0.78874 -0.34700
O 	O 	0.15142 0.05092 0.65882 -0.36100
O 	O 	0.17690 0.17554 0.69158 -0.40300
Ni	Ni	0.12837 0.13903 0.73796 1.06900
H 	H 	0.04940 0.83450 0.72995 0.15700
H 	H 	0.00625 0.05913 0.70913 0.14900
C 	C 	0.92106 0.95001 0.66451 0.27700
O 	O 	0.18794 0.05889 0.74686 -0.41300
C 	C 	0.88841 0.77701 0.77358 0.28000
C 	C 	0.03199 0.78664 0.64831 0.24000
C 	C 	0.16934 0.99742 0.76979 0.26500
C 	C 	0.20089 0.12380 0.67293 0.28500
C 	C 	0.01807 0.11362 0.79235 0.24100
O 	O 	0.98757 0.95421 0.65380 -0.35600
O 	O 	0.96249 0.78429 0.65341 -0.37400
Ni	Ni	0.24393 0.70081 0.39391 1.10000
O 	O 	0.33082 0.76758 0.36347 -0.70600
Ni	Ni	0.42010 0.76303 0.38992 1.10200
O 	O 	0.16762 0.71867 0.36020 -0.37400
O 	O 	0.22750 0.87027 0.36240 -0.40300
O 	O 	0.23904 0.59048 0.36697 -0.40100
Ni	Ni	0.34393 0.89147 0.35861 1.06300
O 	O 	0.22918 0.59579 0.46553 -0.41600
O 	O 	0.35313 0.91922 0.40934 -0.41200
O 	O 	0.49902 0.82197 0.35561 -0.38100
O 	O 	0.33427 0.70910 0.42256 -0.70600
O 	O 	0.15614 0.62559 0.42306 -0.38400
O 	O 	0.49796 0.72613 0.41653 -0.37100
O 	O 	0.41345 0.58513 0.41593 -0.41600
Ni	Ni	0.31996 0.59227 0.44024 1.07300
H 	H 	0.32677 0.73793 0.34115 0.15800
H 	H 	0.33722 0.75006 0.44157 0.16000
C 	C 	0.41289 0.92235 0.42757 0.28900
O 	O 	0.24976 0.49744 0.40766 -0.39800
C 	C 	0.16982 0.79816 0.35212 0.27300
C 	C 	0.50436 0.89877 0.34280 0.28100
C 	C 	0.21789 0.51110 0.37961 0.30700
C 	C 	0.48112 0.64263 0.42401 0.28000
C 	C 	0.16242 0.58409 0.45096 0.29100
O 	O 	0.45728 0.88087 0.41733 -0.37000
O 	O 	0.46081 0.94239 0.35363 -0.40100
Ni	Ni	0.37262 0.67718 0.05392 1.10200
O 	O 	0.27644 0.65835 0.02512 -0.69800
Ni	Ni	0.20853 0.68140 0.05926 1.09900
O 	O 	0.41347 0.60261 0.02314 -0.37100
O 	O 	0.29872 0.49100 0.02341 -0.41600
O 	O 	0.43205 0.78700 0.02661 -0.36700
Ni	Ni	0.22279 0.54362 0.00321 1.07600
O 	O 	0.47204 0.85134 0.09036 -0.40000
O 	O 	0.14169 0.47767 0.03687 -0.39500
O 	O 	0.10374 0.63481 0.03378 -0.37800
O 	O 	0.31106 0.71945 0.08517 -0.70100
O 	O 	0.46613 0.70715 0.08473 -0.37900
O 	O 	0.16392 0.73253 0.09745 -0.37100
O 	O 	0.25950 0.86718 0.09392 -0.40600
Ni	Ni	0.36200 0.84711 0.09086 1.06900
H 	H 	0.28660 0.70422 0.00782 0.15800
H 	H 	0.30711 0.69008 0.10709 0.15700
C 	C 	0.14988 0.48565 0.06969 0.30400
O 	O 	0.36132 0.87012 0.04073 -0.41600
C 	C 	0.36930 0.52187 0.01386 0.27800
C 	C 	0.09199 0.59910 0.00281 0.30600
C 	C 	0.40999 0.85417 0.02105 0.28700
C 	C 	0.20178 0.81270 0.11017 0.27500
C 	C 	0.49495 0.78631 0.09972 0.28000
O 	O 	0.18208 0.56426 0.08437 -0.39200
O 	O 	0.14903 0.59702 0.98473 -0.41400
Ni	Ni	0.94910 0.04120 0.26861 1.09900
O 	O 	0.96823 0.12416 0.22906 -0.70300
Ni	Ni	0.92124 0.03923 0.19126 1.10200
O 	O 	0.99977 0.14788 0.30042 -0.34500
O 	O 	0.10824 0.18566 0.27052 -0.40800
O 	O 	0.84414 0.05028 0.27633 -0.37200
Ni	Ni	0.07626 0.17826 0.21979 1.06300
O 	O 	0.85068 0.83156 0.28816 -0.40400
O 	O 	0.09567 0.06158 0.21416 -0.41700
O 	O 	0.93533 0.13399 0.15591 -0.34300
O 	O 	0.91885 0.95225 0.22948 -0.69100
O 	O 	0.93580 0.96171 0.30852 -0.37900
O 	O 	0.84653 0.94844 0.15852 -0.36400
O 	O 	0.79001 0.82577 0.18892 -0.39600
Ni	Ni	0.82718 0.84912 0.23888 1.07300
H 	H 	0.94402 0.16892 0.23142 0.16500
H 	H 	0.96031 0.92907 0.22765 0.15400
C 	C 	0.06659 0.00750 0.18821 0.28800
O 	O 	0.76424 0.92565 0.24808 -0.41200
C 	C 	0.06773 0.20472 0.29390 0.25500
C 	C 	0.00334 0.19754 0.15407 0.24300
C 	C 	0.77833 0.98280 0.27359 0.28300
C 	C 	0.78448 0.88753 0.16922 0.28100
C 	C 	0.91641 0.87668 0.30322 0.27700
O 	O 	0.01030 0.01494 0.17021 -0.38000
O 	O 	0.06343 0.18836 0.16904 -0.39800
C 	C 	0.10612 0.40905 0.09004 -0.08500
C 	C 	0.06242 0.42111 0.11654 -0.00800
C 	C 	0.01836 0.34863 0.13523 -0.00500
C 	C 	0.01753 0.26303 0.12745 -0.05400
C 	C 	0.05439 0.24989 0.09875 -0.03100
C 	C 	0.10157 0.32231 0.08108 0.04300
S 	S 	0.96676 0.36625 0.16919 -0.00600
S 	S 	0.16021 0.30398 0.05017 -0.04500
H 	H 	0.12268 0.28912 0.01949 0.03600
H 	H 	0.01090 0.38137 0.19810 0.00100
H 	H 	0.06284 0.48680 0.12269 0.04300
H 	H 	0.05301 0.18388 0.09239 0.05400
C 	C 	0.56841 0.81041 0.11802 -0.07400
C 	C 	0.62886 0.79509 0.10262 -0.01900
C 	C 	0.70097 0.82387 0.11833 0.04000
C 	C 	0.71305 0.86865 0.14987 -0.07400
C 	C 	0.65279 0.88452 0.16514 -0.03200
C 	C 	0.58054 0.85526 0.14954 0.04000
S 	S 	0.77526 0.80255 0.09843 -0.02200
S 	S 	0.50508 0.87166 0.17040 -0.08700
H 	H 	0.50032 0.95079 0.16114 0.02800
H 	H 	0.77821 0.72386 0.10932 0.03800
H 	H 	0.62001 0.76176 0.07816 0.05400
H 	H 	0.66171 0.91772 0.18961 0.03900
C 	C 	0.16872 0.84842 0.13764 -0.08400
C 	C 	0.08980 0.81607 0.14115 -0.01800
C 	C 	0.05595 0.86177 0.16140 0.02000
C 	C 	0.10113 0.94321 0.17726 -0.08100
C 	C 	0.18050 0.96885 0.17744 -0.03500
C 	C 	0.21454 0.92035 0.15846 0.04600
S 	S 	0.95734 0.81552 0.16700 -0.04900
S 	S 	0.31329 0.94592 0.16300 -0.11400
H 	H 	0.35030 0.00830 0.14015 0.03000
H 	H 	0.92127 0.83662 0.14008 0.06100
H 	H 	0.05434 0.75703 0.12718 0.04600
H 	H 	0.21580 0.02806 0.19135 0.04900
C 	C 	0.71263 0.98833 0.29190 -0.06900
C 	C 	0.64469 0.97740 0.27389 -0.02500
C 	C 	0.57609 0.95673 0.29070 0.03500
C 	C 	0.57539 0.94869 0.32592 -0.07300
C 	C 	0.64460 0.97137 0.34418 -0.01600
C 	C 	0.71300 0.98989 0.32740 0.02800
S 	S 	0.49119 0.93727 0.26725 -0.07900
S 	S 	0.79759 0.00923 0.35114 -0.01200
H 	H 	0.83338 0.09851 0.35709 0.04800
H 	H 	0.46003 0.84934 0.25795 0.03000
H 	H 	0.64458 0.98049 0.24666 0.04500
H 	H 	0.64455 0.96828 0.37142 0.05300
C 	C 	0.10232 0.28413 0.31560 -0.07700
C 	C 	0.09729 0.27655 0.35059 -0.02500
C 	C 	0.13100 0.35071 0.37182 0.03800
C 	C 	0.17342 0.43362 0.35792 -0.07900
C 	C 	0.17580 0.44148 0.32275 -0.02500
C 	C 	0.13934 0.36784 0.30161 0.04100
S 	S 	0.11587 0.33924 0.41538 -0.04500
S 	S 	0.13698 0.38244 0.25779 -0.12100
H 	H 	0.19800 0.36951 0.24382 0.02100
H 	H 	0.17171 0.31579 0.43036 0.03900
H 	H 	0.06681 0.21269 0.36134 0.04800
H 	H 	0.20644 0.50491 0.31175 0.04800
C 	C 	0.09813 0.80746 0.34080 -0.07300
C 	C 	0.06994 0.78112 0.30790 -0.02000
C 	C 	0.00298 0.79173 0.29641 -0.01200
C 	C 	0.96464 0.83112 0.31777 -0.06000
C 	C 	0.98860 0.84854 0.35169 0.00600
C 	C 	0.05499 0.83698 0.36331 0.01300
S 	S 	0.96861 0.75687 0.25512 -0.07800
S 	S 	0.08280 0.85853 0.40612 -0.04700
H 	H 	0.05281 0.78187 0.42361 0.03400
H 	H 	0.91867 0.67094 0.25526 0.03700
H 	H 	0.10058 0.75349 0.29107 0.03200
H 	H 	0.95793 0.87594 0.36860 0.05000
C 	C 	0.43945 0.98756 0.45563 -0.08100
C 	C 	0.47103 0.07802 0.44852 -0.01400
C 	C 	0.50748 0.14050 0.47406 0.04200
C 	C 	0.51219 0.11224 0.50719 -0.07800
C 	C 	0.47678 0.02247 0.51458 -0.01000
C 	C 	0.44036 0.96016 0.48912 0.03500
S 	S 	0.54884 0.25305 0.46395 -0.07400
S 	S 	0.39461 0.84876 0.49980 -0.07800
H 	H 	0.44442 0.80514 0.49714 0.02800
H 	H 	0.49664 0.29294 0.46816 0.04600
H 	H 	0.46952 0.09948 0.42288 0.04200
H 	H 	0.47834 0.00091 0.54020 0.04100
C 	C 	0.09208 0.52685 0.46683 -0.07500
C 	C 	0.02992 0.47709 0.44592 -0.05100
C 	C 	0.96037 0.42773 0.45965 0.06100
C 	C 	0.95124 0.43130 0.49463 -0.05400
C 	C 	0.01483 0.47324 0.51581 -0.05700
C 	C 	0.08476 0.52317 0.50228 0.03800
S 	S 	0.88682 0.35735 0.43304 -0.02800
S 	S 	0.15919 0.58743 0.52994 -0.04900
H 	H 	0.20241 0.53880 0.53918 0.03300
H 	H 	0.84393 0.40340 0.42073 0.04000
H 	H 	0.03580 0.47680 0.41884 0.05300
H 	H 	0.00857 0.47253 0.54287 0.04300
C 	C 	0.52779 0.61856 0.44913 -0.08800
C 	C 	0.53772 0.65775 0.48147 -0.03500
C 	C 	0.56341 0.62011 0.50834 0.03800
C 	C 	0.58086 0.54358 0.50268 -0.09300
C 	C 	0.57675 0.50873 0.46992 -0.03100
C 	C 	0.55006 0.54552 0.44317 0.03600
S 	S 	0.57124 0.66772 0.54902 -0.04600
S 	S 	0.54570 0.50041 0.40224 -0.04800
H 	H 	0.47626 0.43448 0.39662 0.04100
H 	H 	0.50391 0.62968 0.56495 0.03300
H 	H 	0.52179 0.71484 0.48604 0.03500
H 	H 	0.59495 0.45340 0.46524 0.01700
C 	C 	0.82686 0.13376 0.62417 -0.07500
C 	C 	0.81920 0.11364 0.65836 -0.02700
C 	C 	0.84879 0.05313 0.67198 0.03400
C 	C 	0.88598 0.01114 0.65092 -0.06900
C 	C 	0.89516 0.03331 0.61687 -0.02400
C 	C 	0.86631 0.09453 0.60349 0.04300
S 	S 	0.84020 0.03252 0.71542 -0.06800
S 	S 	0.87875 0.12033 0.56059 -0.02600
H 	H 	0.94373 0.19305 0.55720 0.05100
H 	H 	0.77428 0.96253 0.72072 0.03500
H 	H 	0.78883 0.14385 0.67427 0.02600
H 	H 	0.92456 0.00246 0.60070 0.06100
C 	C 	0.27719 0.16225 0.65880 -0.07400
C 	C 	0.34126 0.17249 0.67940 -0.03100
C 	C 	0.41435 0.20656 0.66641 0.03700
C 	C 	0.42393 0.23359 0.63273 -0.07200
C 	C 	0.36017 0.22869 0.61278 -0.02000
C 	C 	0.28695 0.19298 0.62555 0.04000
S 	S 	0.49330 0.21502 0.69254 -0.08300
S 	S 	0.20839 0.18886 0.59991 -0.02700
H 	H 	0.19363 0.26501 0.60491 0.03400
H 	H 	0.50765 0.13799 0.68991 0.02100
H 	H 	0.33423 0.15322 0.70549 0.03900
H 	H 	0.36735 0.24990 0.58691 0.05300
C 	C 	0.94317 0.57284 0.58797 -0.09200
C 	C 	0.96562 0.55854 0.62066 0.01800
C 	C 	0.01579 0.62986 0.63995 -0.01100
C 	C 	0.04002 0.71591 0.62704 -0.04700
C 	C 	0.03524 0.72423 0.59214 -0.06600
C 	C 	0.98571 0.65356 0.57239 0.07700
S 	S 	0.03825 0.61351 0.68190 -0.10600
S 	S 	0.97670 0.66805 0.52882 -0.01900
H 	H 	0.04189 0.67358 0.51306 0.02300
H 	H 	0.10394 0.59571 0.68301 0.03900
H 	H 	0.94025 0.49425 0.63189 0.04500
H 	H 	0.06142 0.78873 0.58114 0.05500
C 	C 	0.86610 0.47434 0.96088 -0.05300
C 	C 	0.91554 0.42756 0.96202 -0.04900
C 	C 	0.98948 0.46743 0.97512 0.11300
C 	C 	0.01348 0.55428 0.98947 -0.14400
C 	C 	0.96220 0.59904 0.99038 0.03700
C 	C 	0.88931 0.56052 0.97550 0.01900
S 	S 	0.05143 0.40828 0.97239 -0.10800
S 	S 	0.82962 0.62272 0.97379 -0.02800
H 	H 	0.78574 0.60660 0.00170 0.03200
H 	H 	0.08894 0.42669 0.94270 0.02900
H 	H 	0.89745 0.36103 0.95115 0.05300
H 	H 	0.98000 0.66526 0.00150 0.04000
C 	C 	0.51890 0.03208 0.94310 -0.06900
C 	C 	0.52063 0.06478 0.97607 -0.01900
C 	C 	0.48512 0.00760 0.00180 0.04100
C 	C 	0.44591 0.91651 0.99436 -0.07300
C 	C 	0.44572 0.88357 0.96152 -0.02300
C 	C 	0.48213 0.94061 0.93593 0.03600
S 	S 	0.49291 0.05037 0.04331 -0.05400
S 	S 	0.48105 0.89661 0.89505 -0.06100
H 	H 	0.41749 0.89578 0.87751 0.04300
H 	H 	0.43309 0.07719 0.04910 0.03400
H 	H 	0.54936 0.13494 0.98168 0.03700
H 	H 	0.41706 0.81339 0.95586 0.04200
C 	C 	0.39082 0.47823 0.98548 -0.08800
C 	C 	0.41758 0.40950 0.99148 -0.01700
C 	C 	0.44171 0.36976 0.96484 0.02900
C 	C 	0.43792 0.39831 0.93163 -0.09300
C 	C 	0.40702 0.46364 0.92551 -0.02100
C 	C 	0.38362 0.50388 0.95221 0.03200
S 	S 	0.48014 0.28770 0.97359 -0.09800
S 	S 	0.34623 0.58700 0.94376 -0.09400
H 	H 	0.26876 0.54920 0.93993 -0.01000
H 	H 	0.42399 0.20552 0.97075 0.05700
H 	H 	0.42134 0.38835 0.01701 0.03700
H 	H 	0.40381 0.48545 0.90004 0.04200
C 	C 	0.98719 0.17478 0.80863 -0.06100
C 	C 	0.96985 0.16330 0.84280 0.00700
C 	C 	0.90683 0.17930 0.85512 0.03100
C 	C 	0.86122 0.20794 0.83304 -0.06900
C 	C 	0.88588 0.23273 0.80042 -0.02500
C 	C 	0.94982 0.21822 0.78845 0.03000
S 	S 	0.88695 0.16535 0.89820 -0.02300
S 	S 	0.97980 0.24944 0.74739 -0.07000
H 	H 	0.03255 0.33395 0.74835 0.01300
H 	H 	0.92588 0.24303 0.91547 0.04000
H 	H 	0.00122 0.13453 0.85906 0.02800
H 	H 	0.85434 0.26117 0.78411 0.03700
C 	C 	0.37673 0.03387 0.81848 -0.07800
C 	C 	0.36630 0.00471 0.78472 -0.01300
C 	C 	0.29329 0.97462 0.76961 0.02300
C 	C 	0.23157 0.97991 0.78773 -0.06800
C 	C 	0.24010 0.99407 0.82272 -0.04000
C 	C 	0.31241 0.02032 0.83825 0.04900
S 	S 	0.27902 0.92784 0.72861 -0.07300
S 	S 	0.32213 0.03927 0.88214 -0.01000
H 	H 	0.31900 0.96315 0.89776 0.03100
H 	H 	0.28290 0.99077 0.70538 0.03200
H 	H 	0.41498 0.00900 0.76989 0.02900
H 	H 	0.19179 0.99205 0.83740 0.05400
C 	C 	0.84697 0.70714 0.79653 -0.07500
C 	C 	0.77495 0.70140 0.80708 -0.02200
C 	C 	0.73339 0.63322 0.82804 0.03900
C 	C 	0.76415 0.57006 0.83855 -0.08000
C 	C 	0.83621 0.57598 0.82803 -0.01600
C 	C 	0.87774 0.64414 0.80713 0.03200
S 	S 	0.64219 0.62614 0.84012 -0.05000
S 	S 	0.96735 0.64858 0.79369 -0.03900
H 	H 	0.95864 0.60257 0.76370 0.02600
H 	H 	0.64794 0.67149 0.87006 0.04100
H 	H 	0.75114 0.74974 0.79881 0.04400
H 	H 	0.85995 0.52746 0.83617 0.05300
