data_crystal

_cell_length_a 26.18582
_cell_length_b 26.46103
_cell_length_c 28.45270
_cell_angle_alpha 95.46453
_cell_angle_beta  95.45805
_cell_angle_gamma 125.80945

_symmetry_space_group_name_	'P 1'
_symmetry_space_group_name_H-M	'P 1'

loop_
_symmetry_equiv_pos_as_xyz
  x,y,z

loop_
_atom_site_label
_atom_site_type_symbol
_atom_site_fract_x
_atom_site_fract_y
_atom_site_fract_z
_atom_site_charge
C 	C 	0.96396 0.02744 0.99342 0.22800
C 	C 	0.92875 0.96292 0.99614 -0.11300
C 	C 	0.95506 0.93022 0.98795 0.23700
C 	C 	0.01722 0.96255 0.97800 -0.10500
C 	C 	0.05314 0.02737 0.97623 0.22000
C 	C 	0.02610 0.05959 0.98333 -0.11900
H 	H 	0.88085 0.93816 0.00419 0.17000
H 	H 	0.03786 0.93747 0.97211 0.16300
H 	H 	0.05344 0.10953 0.98140 0.16000
C 	C 	0.93851 0.00394 0.45003 0.22100
C 	C 	0.90623 0.94197 0.45921 -0.09900
C 	C 	0.93941 0.91577 0.46628 0.23000
C 	C 	0.00512 0.95217 0.46509 -0.10000
C 	C 	0.03753 0.01408 0.45603 0.21600
C 	C 	0.00396 0.03962 0.44797 -0.11500
H 	H 	0.85562 0.91429 0.46074 0.16200
H 	H 	0.03094 0.93223 0.47101 0.16200
H 	H 	0.02883 0.08737 0.44067 0.16100
Cu	Cu	0.63630 0.24091 0.00869 0.94200
Cu	Cu	0.69792 0.24105 0.91321 0.90400
Cu	Cu	0.67799 0.33832 0.94261 0.91300
Cu	Cu	0.62751 0.35432 0.02919 0.92400
C 	C 	0.64490 0.29294 0.10529 0.31100
O 	O 	0.54089 0.19812 0.00033 -0.29500
C 	C 	0.66944 0.29221 0.84067 0.31500
O 	O 	0.68467 0.33858 0.01018 -0.63400
O 	O 	0.63497 0.24542 0.93939 -0.63200
O 	O 	0.67919 0.19896 0.01477 -0.30800
O 	O 	0.75346 0.26261 0.97152 -0.39200
O 	O 	0.61429 0.31469 0.08756 -0.32100
O 	O 	0.72391 0.42927 0.95142 -0.31800
C 	C 	0.71210 0.46195 0.98037 0.38500
C 	C 	0.51477 0.22190 0.97902 0.37200
O 	O 	0.55153 0.28031 0.97159 -0.33900
O 	O 	0.66209 0.43312 0.00200 -0.31200
O 	O 	0.65009 0.25361 0.07767 -0.30400
C 	C 	0.73448 0.22265 0.00128 0.40400
O 	O 	0.68658 0.34029 0.87427 -0.32000
O 	O 	0.66277 0.24173 0.85173 -0.36100
H 	H 	0.72901 0.36776 0.02878 0.20600
H 	H 	0.59189 0.21821 0.91869 0.21100
Cu	Cu	0.73736 0.34212 0.44145 0.94100
Cu	Cu	0.73829 0.28249 0.53742 0.90500
Cu	Cu	0.63879 0.30031 0.50758 0.91400
Cu	Cu	0.62118 0.34859 0.42035 0.92300
C 	C 	0.68407 0.33212 0.34460 0.31100
O 	O 	0.77956 0.43655 0.44926 -0.29900
C 	C 	0.68608 0.31004 0.60973 0.31400
O 	O 	0.63848 0.29324 0.43997 -0.63700
O 	O 	0.73286 0.34395 0.51076 -0.63000
O 	O 	0.77993 0.29958 0.43579 -0.30800
O 	O 	0.71577 0.22661 0.47948 -0.38700
O 	O 	0.66135 0.36180 0.36205 -0.32100
O 	O 	0.54668 0.25374 0.49883 -0.31800
C 	C 	0.51298 0.26412 0.46927 0.38900
C 	C 	0.75440 0.46177 0.46968 0.37900
O 	O 	0.69566 0.42467 0.47755 -0.33900
O 	O 	0.54146 0.31357 0.44757 -0.31700
O 	O 	0.72438 0.32788 0.37243 -0.30400
C 	C 	0.75553 0.24475 0.44927 0.39600
O 	O 	0.63727 0.29259 0.57613 -0.32000
O 	O 	0.73756 0.31773 0.59863 -0.36000
H 	H 	0.60944 0.24919 0.42162 0.20400
H 	H 	0.75997 0.38674 0.53122 0.21200
C 	C 	0.67849 0.30997 0.65906 -0.03000
C 	C 	0.67382 0.30826 0.70074 0.08900
C 	C 	0.67030 0.30444 0.74965 0.08900
C 	C 	0.66897 0.29967 0.79133 -0.03000
C 	C 	0.65672 0.29817 0.15648 -0.02200
C 	C 	0.66513 0.30380 0.19964 0.09100
C 	C 	0.67331 0.31193 0.25028 0.09100
C 	C 	0.67895 0.32030 0.29344 -0.02200
C 	C 	0.83316 0.73666 0.43960 0.25500
C 	C 	0.85602 0.72376 0.47995 -0.00400
C 	C 	0.90096 0.77358 0.51814 0.25600
C 	C 	0.92481 0.83605 0.51514 0.29500
C 	C 	0.90517 0.84941 0.47338 -0.14600
C 	C 	0.85810 0.79925 0.43610 0.29700
C 	C 	0.83555 0.65866 0.48091 0.00700
F 	F 	0.92292 0.76163 0.55752 -0.31100
F 	F 	0.83853 0.81141 0.39563 -0.33500
C 	C 	0.85376 0.63090 0.44871 0.24000
C 	C 	0.82974 0.56741 0.44641 0.31900
C 	C 	0.78810 0.53126 0.47710 -0.19500
C 	C 	0.77351 0.56059 0.51160 0.31600
C 	C 	0.79632 0.62365 0.51295 0.24100
F 	F 	0.89366 0.66515 0.41882 -0.31500
F 	F 	0.73665 0.52776 0.54347 -0.35600
F 	F 	0.84495 0.54044 0.41307 -0.34600
F 	F 	0.77926 0.65036 0.54477 -0.31200
F 	F 	0.78807 0.68859 0.40320 -0.31800
F 	F 	0.96855 0.88390 0.55216 -0.33400
C 	C 	0.76046 0.10563 0.42190 0.23700
C 	C 	0.82676 0.13600 0.43081 0.00900
C 	C 	0.86948 0.20252 0.43962 0.23700
C 	C 	0.84614 0.23847 0.44238 0.31900
C 	C 	0.77975 0.20805 0.43641 -0.20600
C 	C 	0.73702 0.14147 0.42455 0.32100
C 	C 	0.85140 0.09842 0.43495 -0.00500
F 	F 	0.93371 0.23229 0.44734 -0.31900
F 	F 	0.67276 0.11151 0.41686 -0.35800
C 	C 	0.86569 0.07759 0.39452 0.25600
C 	C 	0.89205 0.04466 0.39907 0.29500
C 	C 	0.90442 0.03248 0.44415 -0.14900
C 	C 	0.88863 0.05200 0.48434 0.29400
C 	C 	0.86217 0.08478 0.47974 0.25200
F 	F 	0.85482 0.09000 0.35098 -0.31400
F 	F 	0.90057 0.04067 0.52809 -0.34200
F 	F 	0.90645 0.02534 0.35988 -0.33500
F 	F 	0.84798 0.10430 0.51895 -0.33100
F 	F 	0.71879 0.04131 0.41218 -0.32100
F 	F 	0.88808 0.30273 0.45352 -0.35500
C 	C 	0.33730 0.18467 0.42257 0.24100
C 	C 	0.30958 0.15719 0.46148 0.00800
C 	C 	0.34848 0.16372 0.50272 0.23900
C 	C 	0.41480 0.19878 0.50555 0.32200
C 	C 	0.44272 0.22607 0.46641 -0.19200
C 	C 	0.40327 0.21792 0.42462 0.31900
C 	C 	0.23974 0.12155 0.45905 -0.00700
F 	F 	0.32196 0.13628 0.54018 -0.31600
F 	F 	0.42880 0.24163 0.38577 -0.36000
C 	C 	0.19683 0.06453 0.42587 0.25900
C 	C 	0.13075 0.03072 0.42365 0.27800
C 	C 	0.10703 0.05251 0.45570 -0.14200
C 	C 	0.15000 0.10959 0.48889 0.29200
C 	C 	0.21599 0.14441 0.49005 0.25700
F 	F 	0.21927 0.04168 0.39605 -0.31800
F 	F 	0.12782 0.13065 0.52059 -0.33900
F 	F 	0.08969 0.97659 0.39053 -0.32200
F 	F 	0.25696 0.20021 0.52150 -0.31300
F 	F 	0.30020 0.17919 0.38273 -0.31100
F 	F 	0.45197 0.20738 0.54671 -0.34900
C 	C 	0.78884 0.63527 0.02550 0.24600
C 	C 	0.81557 0.66236 0.98618 0.00300
C 	C 	0.80949 0.62384 0.94521 0.24000
C 	C 	0.77559 0.55848 0.94304 0.32300
C 	C 	0.74905 0.53120 0.98259 -0.19600
C 	C 	0.75676 0.57029 0.02409 0.32500
C 	C 	0.85002 0.73113 0.98792 -0.00800
F 	F 	0.83623 0.64980 0.90735 -0.31500
F 	F 	0.73375 0.54539 0.06329 -0.35800
C 	C 	0.90795 0.77485 0.02050 0.26000
C 	C 	0.94093 0.83993 0.02178 0.30300
C 	C 	0.91737 0.86183 0.98942 -0.15500
C 	C 	0.85927 0.81807 0.95696 0.29800
C 	C 	0.82530 0.75308 0.95670 0.25600
F 	F 	0.93254 0.75415 0.05056 -0.31100
F 	F 	0.83645 0.83853 0.92504 -0.33600
F 	F 	0.99602 0.88180 0.05427 -0.33300
F 	F 	0.76858 0.71130 0.92588 -0.31200
F 	F 	0.79393 0.67202 0.06510 -0.30900
F 	F 	0.76730 0.52156 0.90213 -0.34900
C 	C 	0.88382 0.10493 0.96590 0.24200
C 	C 	0.87332 0.11810 0.01146 0.00400
C 	C 	0.89477 0.10361 0.05143 0.25200
C 	C 	0.92562 0.07515 0.04574 0.30500
C 	C 	0.93505 0.06091 0.99999 -0.16100
C 	C 	0.91450 0.07638 0.96017 0.30000
C 	C 	0.83810 0.14524 0.01688 0.00800
F 	F 	0.88515 0.11655 0.09566 -0.31200
F 	F 	0.92319 0.06259 0.91579 -0.34300
C 	C 	0.77092 0.10508 0.00975 0.23600
C 	C 	0.73682 0.13055 0.00767 0.32400
C 	C 	0.76980 0.19654 0.01276 -0.21000
C 	C 	0.83719 0.23683 0.02302 0.32300
C 	C 	0.87118 0.21123 0.02493 0.23800
F 	F 	0.73863 0.04120 0.00286 -0.32000
F 	F 	0.86968 0.30075 0.03000 -0.35400
F 	F 	0.67175 0.09094 0.99803 -0.36200
F 	F 	0.93624 0.25044 0.03303 -0.31700
F 	F 	0.86344 0.11906 0.92710 -0.33100
F 	F 	0.94598 0.06102 0.08454 -0.33500
C 	C 	0.19815 0.06848 0.92500 0.26000
C 	C 	0.24797 0.11393 0.96312 -0.01400
C 	C 	0.23401 0.13592 0.00318 0.26100
C 	C 	0.17042 0.10961 0.00658 0.29900
C 	C 	0.12028 0.06204 0.96942 -0.14900
C 	C 	0.13459 0.04315 0.92789 0.27700
C 	C 	0.31409 0.13520 0.96278 0.00800
F 	F 	0.28207 0.18138 0.03951 -0.32000
F 	F 	0.08668 0.99890 0.89099 -0.32200
C 	C 	0.35023 0.17585 0.93194 0.23900
C 	C 	0.41478 0.20071 0.93490 0.31500
C 	C 	0.44429 0.18659 0.96979 -0.19400
C 	C 	0.40693 0.14320 0.99897 0.31400
C 	C 	0.34208 0.11726 0.99507 0.23300
F 	F 	0.32316 0.19240 0.89986 -0.31400
F 	F 	0.43399 0.12816 0.03249 -0.34400
F 	F 	0.44883 0.23907 0.90424 -0.35800
F 	F 	0.30674 0.07600 0.02373 -0.31400
F 	F 	0.21120 0.04748 0.88584 -0.31800
F 	F 	0.15730 0.12837 0.04685 -0.33700
