data_crystal

_cell_length_a 16.71454
_cell_length_b 17.31783
_cell_length_c 37.26566
_cell_angle_alpha 60.57015
_cell_angle_beta  119.08617
_cell_angle_gamma 133.27684

_symmetry_space_group_name_	'P 1'
_symmetry_space_group_name_H-M	'P 1'

loop_
_symmetry_equiv_pos_as_xyz
  x,y,z

loop_
_atom_site_label
_atom_site_type_symbol
_atom_site_fract_x
_atom_site_fract_y
_atom_site_fract_z
_atom_site_charge
C 	C 	0.69535 0.32179 0.97230 0.12200
N 	N 	0.75717 0.43208 0.96489 -0.12500
C 	C 	0.71437 0.47654 0.96477 0.12000
N 	N 	0.60657 0.41141 0.96791 -0.13000
C 	C 	0.55230 0.30214 0.98172 0.13100
N 	N 	0.59280 0.25690 0.98097 -0.12900
C 	C 	0.69506 0.32136 0.47236 0.11600
N 	N 	0.75689 0.43165 0.46496 -0.12600
C 	C 	0.71409 0.47612 0.46483 0.11200
N 	N 	0.60629 0.41100 0.46797 -0.13000
C 	C 	0.55201 0.30173 0.48178 0.11200
N 	N 	0.59251 0.25648 0.48103 -0.13000
C 	C 	0.28324 0.58405 0.18795 0.11100
N 	N 	0.39195 0.63444 0.18903 -0.13200
C 	C 	0.42214 0.57740 0.19016 0.11000
N 	N 	0.34709 0.46771 0.19567 -0.13100
C 	C 	0.23657 0.41880 0.19010 0.11200
N 	N 	0.20530 0.47598 0.18802 -0.12900
C 	C 	0.28299 0.58366 0.68802 0.11200
N 	N 	0.20505 0.47560 0.68806 -0.12900
C 	C 	0.23632 0.41843 0.69014 0.11200
N 	N 	0.34685 0.46733 0.69573 -0.13000
C 	C 	0.42191 0.57701 0.69024 0.11100
N 	N 	0.39171 0.63405 0.68911 -0.13100
Co	Co	0.01413 0.83390 0.08718 1.17800
Co	Co	0.98386 0.08754 0.06720 1.19400
Co	Co	0.88808 0.86733 0.11937 1.18100
Co	Co	0.12778 0.06375 0.04105 1.18500
C 	C 	0.92971 0.73771 0.01393 0.29700
Co	Co	0.17548 0.91660 0.03448 1.16200
Co	Co	0.78006 0.98586 0.10368 1.16400
C 	C 	0.35683 0.11258 0.06536 0.30800
O 	O 	0.81811 0.91388 0.16790 -0.39800
O 	O 	0.87567 0.97206 0.08919 -0.75800
C 	C 	0.91741 0.93112 0.18902 0.27600
O 	O 	0.92847 0.76904 0.13012 -0.45300
O 	O 	0.11666 0.17167 0.04269 -0.47200
C 	C 	0.01916 0.17544 0.12917 0.28900
O 	O 	0.96800 0.94920 0.06466 -0.57100
C 	C 	0.64552 0.75037 0.11920 0.31600
C 	C 	0.16825 0.77091 0.12092 0.31400
C 	C 	0.13958 0.07635 0.96002 0.30000
O 	O 	0.96705 0.92078 0.17423 -0.38700
O 	O 	0.14436 0.77501 0.08141 -0.40600
O 	O 	0.14090 0.81294 0.13064 -0.39200
O 	O 	0.91406 0.14377 0.11139 -0.38500
O 	O 	0.06301 0.14986 0.11911 -0.40300
O 	O 	0.64709 0.83483 0.09207 -0.39100
O 	O 	0.72014 0.73796 0.12410 -0.37300
O 	O 	0.21423 0.05543 0.98463 -0.38700
O 	O 	0.09656 0.09105 0.97593 -0.37300
O 	O 	0.09306 0.93790 0.05279 -0.78700
C 	C 	0.81061 0.14056 0.01976 0.29200
O 	O 	0.73694 0.04433 0.03947 -0.37500
O 	O 	0.90506 0.16448 0.02001 -0.36400
O 	O 	0.01927 0.82442 0.99823 -0.39700
O 	O 	0.92106 0.72026 0.05165 -0.36400
O 	O 	0.31995 0.01122 0.07463 -0.38000
O 	O 	0.29942 0.13350 0.06967 -0.38200
Co	Co	0.01386 0.83349 0.58723 1.17800
Co	Co	0.98359 0.08713 0.56726 1.19500
Co	Co	0.88783 0.86693 0.61944 1.18100
Co	Co	0.12751 0.06334 0.54111 1.18800
C 	C 	0.92943 0.73730 0.51399 0.33300
Co	Co	0.17520 0.91619 0.53453 1.16700
Co	Co	0.77980 0.98545 0.60375 1.16400
C 	C 	0.35656 0.11216 0.56542 0.31300
O 	O 	0.81790 0.91350 0.66797 -0.39800
O 	O 	0.87541 0.97165 0.58926 -0.75800
C 	C 	0.91720 0.93076 0.68908 0.27600
O 	O 	0.92822 0.76864 0.63018 -0.45200
O 	O 	0.11639 0.17127 0.54275 -0.46800
C 	C 	0.01890 0.17506 0.62922 0.28800
O 	O 	0.96773 0.94879 0.56472 -0.56900
C 	C 	0.64528 0.74996 0.61928 0.31600
C 	C 	0.16797 0.77050 0.62097 0.31400
C 	C 	0.13933 0.07596 0.46008 0.30100
O 	O 	0.96683 0.92040 0.67430 -0.38700
O 	O 	0.14407 0.77460 0.58146 -0.40400
O 	O 	0.14063 0.81254 0.63070 -0.39100
O 	O 	0.91380 0.14338 0.61145 -0.38200
O 	O 	0.06274 0.14947 0.61916 -0.40200
O 	O 	0.64684 0.83441 0.59215 -0.38900
O 	O 	0.71991 0.73756 0.62418 -0.37200
O 	O 	0.21396 0.05503 0.48469 -0.39400
O 	O 	0.09631 0.09066 0.47599 -0.38100
O 	O 	0.09278 0.93749 0.55284 -0.78500
C 	C 	0.81032 0.14013 0.51982 0.31000
O 	O 	0.73666 0.04390 0.53954 -0.37500
O 	O 	0.90477 0.16405 0.52007 -0.36300
O 	O 	0.01899 0.82401 0.49829 -0.41700
O 	O 	0.92078 0.71986 0.55171 -0.36700
O 	O 	0.31967 0.01080 0.57469 -0.37900
O 	O 	0.29915 0.13308 0.56973 -0.38100
C 	C 	0.85842 0.85766 0.85589 -0.01400
C 	C 	0.83404 0.82825 0.82104 -0.06700
C 	C 	0.91238 0.89615 0.79587 0.08200
C 	C 	0.01627 0.99404 0.80596 -0.10100
C 	C 	0.04124 0.02332 0.84129 0.04400
C 	C 	0.96187 0.95495 0.86627 -0.00200
C 	C 	0.14631 0.11975 0.85209 -0.00800
C 	C 	0.22426 0.18821 0.82666 -0.01400
C 	C 	0.19850 0.16032 0.79104 -0.06700
C 	C 	0.09494 0.06305 0.78060 0.07800
C 	C 	0.06750 0.03552 0.74440 -0.06200
C 	C 	0.96117 0.94103 0.73297 -0.02200
C 	C 	0.88628 0.86912 0.75991 -0.05400
C 	C 	0.98896 0.98217 0.90241 -0.00100
C 	C 	0.09708 0.07327 0.91523 -0.07300
C 	C 	0.17398 0.14422 0.88913 -0.00700
H 	H 	0.79721 0.80410 0.87504 0.04300
H 	H 	0.75385 0.75286 0.81352 0.05500
H 	H 	0.30502 0.26289 0.83451 0.04200
H 	H 	0.25919 0.21450 0.77162 0.05700
H 	H 	0.12620 0.09001 0.72410 0.05900
H 	H 	0.80491 0.79539 0.75142 0.05900
H 	H 	0.92926 0.92809 0.92228 0.04900
H 	H 	0.25736 0.21475 0.89893 0.04600
C 	C 	0.22425 0.18817 0.32673 -0.01400
C 	C 	0.19855 0.16041 0.29109 -0.06800
C 	C 	0.09500 0.06318 0.28061 0.07900
C 	C 	0.01628 0.99409 0.30594 -0.10300
C 	C 	0.04118 0.02326 0.34130 0.04500
C 	C 	0.14625 0.11964 0.35214 -0.00900
C 	C 	0.96176 0.95483 0.36626 -0.00300
C 	C 	0.85831 0.85759 0.35583 -0.01400
C 	C 	0.83398 0.82828 0.32097 -0.06800
C 	C 	0.91239 0.89624 0.29582 0.08200
C 	C 	0.88636 0.86932 0.25984 -0.05500
C 	C 	0.96131 0.94130 0.23292 -0.02200
C 	C 	0.06763 0.03575 0.24438 -0.06200
C 	C 	0.17385 0.14399 0.38920 -0.00600
C 	C 	0.09690 0.07298 0.41528 -0.07500
C 	C 	0.98879 0.98193 0.40242 0.00000
H 	H 	0.30501 0.26282 0.33461 0.04200
H 	H 	0.25928 0.21464 0.27168 0.05700
H 	H 	0.79705 0.80397 0.37497 0.04200
H 	H 	0.75380 0.75293 0.31341 0.05400
H 	H 	0.80500 0.79562 0.25132 0.05900
H 	H 	0.12636 0.09031 0.22409 0.05900
H 	H 	0.25723 0.21449 0.39903 0.04400
H 	H 	0.92904 0.92778 0.42228 0.04700
C 	C 	0.15465 0.32660 0.67162 0.02300
C 	C 	0.09190 0.25532 0.65322 -0.08000
C 	C 	0.57443 0.68219 0.64847 -0.09000
C 	C 	0.50915 0.63334 0.66977 0.03100
C 	C 	0.20980 0.70668 0.65282 -0.08200
C 	C 	0.24399 0.65039 0.67211 0.02800
C 	C 	0.15491 0.32697 0.17158 0.02300
C 	C 	0.09216 0.25569 0.15317 -0.08100
C 	C 	0.57466 0.68259 0.14839 -0.09100
C 	C 	0.50938 0.63374 0.16969 0.03000
C 	C 	0.21007 0.70708 0.15276 -0.08300
C 	C 	0.24425 0.65079 0.17205 0.02700
C 	C 	0.74974 0.27231 0.48378 0.03200
C 	C 	0.78547 0.21911 0.49777 -0.07400
C 	C 	0.78981 0.57347 0.47877 0.03600
C 	C 	0.85154 0.64936 0.49421 -0.08500
C 	C 	0.48238 0.24271 0.51035 0.03800
C 	C 	0.42674 0.18940 0.53588 -0.09700
C 	C 	0.78576 0.21955 0.99771 -0.05300
C 	C 	0.75003 0.27275 0.98372 0.02600
C 	C 	0.79008 0.57390 0.97871 0.02600
C 	C 	0.85181 0.64978 0.99415 -0.05700
C 	C 	0.48266 0.24313 0.01029 0.01400
C 	C 	0.42702 0.18981 0.03582 -0.09100
