data_crystal

_cell_length_a 25.46181
_cell_length_b 25.74315
_cell_length_c 21.94835
_cell_angle_alpha 95.48125
_cell_angle_beta  95.47834
_cell_angle_gamma 125.78051

_symmetry_space_group_name_	'P 1'
_symmetry_space_group_name_H-M	'P 1'

loop_
_symmetry_equiv_pos_as_xyz
  x,y,z

loop_
_atom_site_label
_atom_site_type_symbol
_atom_site_fract_x
_atom_site_fract_y
_atom_site_fract_z
_atom_site_charge
C 	C 	0.04341 0.02641 0.45034 0.11700
N 	N 	0.02632 0.05565 0.97906 -0.12500
C 	C 	0.05140 0.02215 0.96777 0.12000
Cu	Cu	0.64107 0.24680 0.02242 0.92300
Cu	Cu	0.74093 0.27329 0.92631 0.86900
Cu	Cu	0.67752 0.33445 0.92456 0.89200
Cu	Cu	0.60759 0.34673 0.02033 0.89000
C 	C 	0.62215 0.29826 0.13315 0.31600
O 	O 	0.54122 0.19089 0.99588 -0.35000
C 	C 	0.70009 0.28833 0.80742 0.31700
O 	O 	0.67900 0.34336 0.01305 -0.64600
O 	O 	0.65385 0.24725 0.93494 -0.63700
O 	O 	0.69110 0.21277 0.04995 -0.36200
O 	O 	0.77862 0.28844 0.01048 -0.44600
O 	O 	0.58545 0.30792 0.09679 -0.39700
O 	O 	0.70700 0.42283 0.92048 -0.37800
C 	C 	0.69133 0.45531 0.95479 0.28400
C 	C 	0.51237 0.20679 0.95702 0.28400
O 	O 	0.54679 0.26534 0.94362 -0.39100
O 	O 	0.63971 0.42492 0.98227 -0.38200
O 	O 	0.64230 0.26480 0.10980 -0.36500
C 	C 	0.75170 0.24031 0.04118 0.29100
O 	O 	0.68558 0.32510 0.83604 -0.38600
O 	O 	0.71679 0.25700 0.83823 -0.43100
H 	H 	0.72192 0.37993 0.03901 0.15800
H 	H 	0.61678 0.21051 0.90296 0.17800
Cu	Cu	0.73846 0.34206 0.42740 0.92900
Cu	Cu	0.73623 0.28169 0.55217 0.86500
Cu	Cu	0.64516 0.31397 0.51807 0.89600
Cu	Cu	0.61802 0.34646 0.39824 0.89400
C 	C 	0.67982 0.32329 0.30118 0.32000
O 	O 	0.77932 0.43788 0.43122 -0.35900
C 	C 	0.68755 0.31688 0.64804 0.31300
O 	O 	0.63743 0.29277 0.42989 -0.64200
O 	O 	0.73907 0.35008 0.51785 -0.64100
O 	O 	0.78445 0.30103 0.42329 -0.36900
O 	O 	0.71659 0.22456 0.47764 -0.44000
O 	O 	0.65832 0.35619 0.32237 -0.39100
O 	O 	0.55203 0.27159 0.51501 -0.38300
C 	C 	0.51238 0.27305 0.47290 0.29300
C 	C 	0.75503 0.46506 0.45865 0.28300
O 	O 	0.69486 0.42829 0.46973 -0.39400
O 	O 	0.53474 0.31078 0.43069 -0.39300
O 	O 	0.72106 0.31960 0.33829 -0.36700
C 	C 	0.75857 0.24419 0.43947 0.29000
O 	O 	0.65600 0.33047 0.60920 -0.38400
O 	O 	0.73652 0.31662 0.63331 -0.42200
H 	H 	0.60616 0.24572 0.41160 0.16300
H 	H 	0.77121 0.39435 0.54326 0.17700
C 	C 	0.69851 0.28268 0.74587 -0.12200
C 	C 	0.67546 0.31172 0.70613 -0.12100
H 	H 	0.71290 0.25418 0.72397 0.06700
H 	H 	0.64216 0.32153 0.72134 0.08800
C 	C 	0.66934 0.30351 0.23952 -0.12200
C 	C 	0.62873 0.31267 0.19500 -0.12000
H 	H 	0.69122 0.28071 0.22200 0.09200
H 	H 	0.60564 0.33401 0.21293 0.07500
C 	C 	0.85809 0.64238 0.42907 0.00100
C 	C 	0.78218 0.66967 0.43972 -0.05500
C 	C 	0.79575 0.62407 0.43702 0.01500
S 	S 	0.86538 0.58601 0.44919 0.02200
C 	C 	0.79032 0.53590 0.46675 -0.07600
C 	C 	0.75738 0.56408 0.45784 -0.02300
H 	H 	0.73622 0.65770 0.45098 0.04600
H 	H 	0.70695 0.54105 0.46374 0.03900
C 	C 	0.85654 0.17433 0.41127 -0.00100
C 	C 	0.81737 0.04769 0.39771 -0.01000
C 	C 	0.77815 0.06208 0.42373 -0.05200
C 	C 	0.79739 0.12584 0.42827 0.01100
C 	C 	0.77875 0.20391 0.41703 -0.08000
C 	C 	0.75394 0.14287 0.43278 -0.02400
H 	H 	0.73350 0.02468 0.43844 0.04200
H 	H 	0.70642 0.11185 0.44628 0.03700
C 	C 	0.23056 0.17661 0.47880 0.00000
C 	C 	0.29033 0.22296 0.46142 -0.05400
C 	C 	0.34635 0.22817 0.48639 0.01500
C 	C 	0.34151 0.18629 0.52610 0.00300
C 	C 	0.28014 0.13387 0.53570 -0.05900
C 	C 	0.22447 0.13001 0.51254 0.02600
S 	S 	0.15676 0.14465 0.43682 0.00800
C 	C 	0.11553 0.07275 0.45991 -0.01800
C 	C 	0.15927 0.07178 0.50260 -0.04800
S 	S 	0.40660 0.18581 0.52636 0.02200
C 	C 	0.44273 0.23793 0.47787 -0.07700
C 	C 	0.40402 0.25814 0.46002 -0.01900
H 	H 	0.29224 0.25073 0.42643 0.04700
H 	H 	0.27530 0.09513 0.55660 0.04700
H 	H 	0.41572 0.29135 0.42792 0.04200
C 	C 	0.81781 0.63180 0.95827 0.00300
C 	C 	0.78456 0.64327 0.99864 0.03700
S 	S 	0.71419 0.57215 0.00041 -0.01500
C 	C 	0.72377 0.52455 0.95264 -0.05700
C 	C 	0.78426 0.56480 0.93323 -0.02200
H 	H 	0.80314 0.54674 0.90225 0.04400
C 	C 	0.80126 0.12340 0.02883 -0.00100
C 	C 	0.80419 0.07103 0.03173 -0.06400
S 	S 	0.74192 0.12796 0.04664 0.01200
C 	C 	0.78410 0.20932 0.05466 -0.08300
C 	C 	0.84800 0.23498 0.04378 -0.02900
H 	H 	0.76018 0.02256 0.03124 0.04500
C 	C 	0.32840 0.10373 0.97173 -0.00000
C 	C 	0.26411 0.05290 0.97623 -0.05600
C 	C 	0.21406 0.05898 0.95699 0.02300
C 	C 	0.22789 0.11156 0.92896 0.00100
C 	C 	0.29248 0.16208 0.92404 -0.05500
C 	C 	0.34236 0.15597 0.94386 0.01700
S 	S 	0.39158 0.10028 0.97359 0.03100
C 	C 	0.43994 0.16567 0.94116 -0.07600
C 	C 	0.40526 0.19143 0.92692 -0.02500
S 	S 	0.16804 0.11945 0.93473 0.01300
C 	C 	0.12265 0.05706 0.97124 -0.01800
C 	C 	0.15429 0.02758 0.97976 -0.04000
H 	H 	0.25392 0.01216 0.99709 0.04900
H 	H 	0.30324 0.20373 0.90461 0.04800
H 	H 	0.42573 0.23547 0.90787 0.04200
S 	S 	0.85340 0.23535 0.39963 0.02100
C 	C 	0.85741 0.18634 0.03005 0.00900
H 	H 	0.88515 0.28610 0.04353 0.03400
C 	C 	0.91053 0.70762 0.43096 -0.05900
C 	C 	0.89577 0.16017 0.38514 -0.06000
C 	C 	0.87699 0.09654 0.38108 0.02600
C 	C 	0.89715 0.02013 0.39626 -0.02500
C 	C 	0.92206 0.08110 0.38027 -0.04900
C 	C 	0.92223 0.14638 0.03239 0.00100
C 	C 	0.91873 0.19855 0.02976 -0.05800
C 	C 	0.86535 0.08270 0.03070 0.03100
C 	C 	0.87229 0.03359 0.00906 -0.07900
C 	C 	0.83161 0.73233 0.43075 -0.00000
C 	C 	0.79592 0.70385 0.01054 -0.09600
C 	C 	0.84901 0.75580 0.98906 0.04500
H 	H 	0.76323 0.70962 0.03327 0.05500
C 	C 	0.89601 0.75241 0.42999 0.02400
C 	C 	0.88584 0.74544 0.95317 -0.00800
C 	C 	0.86768 0.68282 0.93307 -0.04500
N 	N 	0.00530 0.04417 0.42886 -0.13000
H 	H 	0.88953 0.67375 0.89749 0.04400
H 	H 	0.14554 0.02995 0.52337 0.05000
C 	C 	0.96097 0.02298 0.98033 0.09900
H 	H 	0.94074 0.19785 0.37106 0.04600
H 	H 	0.97318 0.11633 0.37684 0.04800
S 	S 	0.97810 0.14087 0.00552 -0.02000
C 	C 	0.93372 0.05944 0.99209 0.01200
H 	H 	0.96212 0.24677 0.02829 0.04100
H 	H 	0.96080 0.72335 0.43563 0.04600
S 	S 	0.83531 0.79826 0.45188 0.00800
C 	C 	0.94409 0.82092 0.44533 -0.04900
C 	C 	0.85911 0.81582 0.98621 -0.04100
C 	C 	0.93857 0.00122 0.41990 0.10700
S 	S 	0.92722 0.80782 0.91695 0.00800
H 	H 	0.83753 0.83350 0.01358 0.04000
C 	C 	0.91701 0.85401 0.45923 -0.01800
H 	H 	0.99601 0.84520 0.44517 0.04700
C 	C 	0.90299 0.85153 0.94681 -0.01900
C 	C 	0.94795 0.92166 0.45150 0.11400
C 	C 	0.94576 0.92317 0.95751 0.11600
N 	N 	0.91003 0.94005 0.43138 -0.13100
N 	N 	0.92074 0.95661 0.96970 -0.13000
N 	N 	0.01095 0.95609 0.95664 -0.12400
N 	N 	0.01463 0.96509 0.46144 -0.12700
H 	H 	0.83318 0.98186 0.00305 0.05900
H 	H 	0.13550 0.98588 0.00234 0.04600
S 	S 	0.82239 0.98863 0.41307 0.02200
