data_crystal

_cell_length_a 25.68657
_cell_length_b 26.60260
_cell_length_c 21.71016
_cell_angle_alpha 95.50117
_cell_angle_beta  95.50126
_cell_angle_gamma 125.82060

_symmetry_space_group_name_	'P 1'
_symmetry_space_group_name_H-M	'P 1'

loop_
_symmetry_equiv_pos_as_xyz
  x,y,z

loop_
_atom_site_label
_atom_site_type_symbol
_atom_site_fract_x
_atom_site_fract_y
_atom_site_fract_z
_atom_site_charge
C 	C 	0.01514 0.06665 0.99868 -0.07600
C 	C 	0.03934 0.03147 0.98956 0.08100
H 	H 	0.04602 0.11674 0.99778 0.08300
C 	C 	0.01470 0.02539 0.43567 -0.08400
H 	H 	0.04098 0.07584 0.43849 0.08100
C 	C 	0.12130 0.04235 0.45953 -0.02500
C 	C 	0.15631 0.05864 0.52109 0.11300
C 	C 	0.22450 0.09406 0.53186 -0.06100
C 	C 	0.25821 0.11425 0.48184 0.01200
C 	C 	0.22329 0.09928 0.42058 0.10300
C 	C 	0.15511 0.06337 0.40972 -0.04900
H 	H 	0.25132 0.10609 0.57916 0.09000
H 	H 	0.12830 0.05110 0.36236 0.08400
Br	Br	0.26795 0.12755 0.35121 -0.18700
C 	C 	0.10709 0.06243 0.98020 -0.01100
C 	C 	0.15602 0.07718 0.02998 0.10300
C 	C 	0.21868 0.10116 0.01898 -0.07300
C 	C 	0.23342 0.11153 0.95883 0.02300
C 	C 	0.18453 0.09683 0.90902 0.10200
C 	C 	0.12167 0.07240 0.91992 -0.05000
H 	H 	0.25637 0.11297 0.05753 0.08600
H 	H 	0.08395 0.06054 0.88137 0.08400
Br	Br	0.20290 0.11027 0.82603 -0.17600
Br	Br	0.13836 0.06582 0.11351 -0.19000
Br	Br	0.11188 0.03382 0.59104 -0.18400
H 	H 	0.28679 0.05543 0.91706 0.09300
C 	C 	0.30144 0.14281 0.94987 0.02900
C 	C 	0.32999 0.15078 0.49375 0.03000
H 	H 	0.32742 0.06845 0.47153 0.09000
C 	C 	0.32198 0.10630 0.93004 -0.07900
Br	Br	0.33351 0.26126 0.52734 -0.18000
Br	Br	0.31986 0.26062 0.98887 -0.17700
C 	C 	0.04932 0.00046 0.44627 0.08900
C 	C 	0.95077 0.03687 0.00848 0.08200
O 	O 	0.73829 0.22101 0.47462 -0.42300
C 	C 	0.91006 0.01224 0.41332 -0.01800
C 	C 	0.88732 0.02598 0.46404 0.11100
C 	C 	0.86061 0.05876 0.45738 -0.06100
C 	C 	0.85671 0.07847 0.40057 0.01100
C 	C 	0.87758 0.06307 0.34920 0.10500
H 	H 	0.84429 0.07028 0.49689 0.08300
C 	C 	0.83515 0.11901 0.39695 0.03100
C 	C 	0.88132 0.18466 0.41503 -0.08200
C 	C 	0.86111 0.22333 0.42177 0.14600
C 	C 	0.74799 0.13090 0.38792 -0.00500
C 	C 	0.76827 0.09224 0.38172 0.08300
H 	H 	0.93289 0.20546 0.42625 0.09200
H 	H 	0.69629 0.10985 0.37798 0.07000
Br	Br	0.89481 0.00259 0.54357 -0.18800
C 	C 	0.35821 0.11954 0.48352 -0.08100
C 	C 	0.42558 0.15406 0.48546 0.14900
C 	C 	0.37018 0.21703 0.51044 0.08500
Br	Br	0.46155 0.10966 0.46577 -0.22600
C 	C 	0.92387 0.07284 0.01484 -0.03400
C 	C 	0.87415 0.06056 0.96758 0.12300
C 	C 	0.84613 0.09200 0.97621 -0.04900
C 	C 	0.86930 0.13800 0.03027 0.00100
C 	C 	0.91980 0.15115 0.07706 0.10500
C 	C 	0.94635 0.11810 0.06944 -0.04600
H 	H 	0.80772 0.08222 0.93985 0.08400
C 	C 	0.84350 0.17507 0.03518 0.02400
H 	H 	0.98460 0.12772 0.10589 0.08400
C 	C 	0.79744 0.16101 0.07366 -0.08400
C 	C 	0.76748 0.19127 0.07371 0.15600
C 	C 	0.86122 0.22132 0.99803 0.08700
H 	H 	0.78527 0.12687 0.10390 0.09700
Br	Br	0.71427 0.17926 0.13548 -0.19700
C 	C 	0.38789 0.13527 0.92716 0.15100
Br	Br	0.41284 0.08436 0.89376 -0.20000
C 	C 	0.79388 0.19622 0.40957 -0.09800
C 	C 	0.46536 0.22053 0.49868 -0.09300
Br	Br	0.92910 0.24680 0.94996 -0.19100
C 	C 	0.78075 0.23329 0.03186 -0.11700
C 	C 	0.82934 0.24946 0.99580 0.00100
Br	Br	0.95441 0.21531 0.15066 -0.17600
O 	O 	0.53030 0.20877 0.98413 -0.32600
O 	O 	0.68000 0.22293 0.02540 -0.34100
C 	C 	0.50502 0.23249 0.95325 0.30500
H 	H 	0.60589 0.23355 0.88816 0.19600
C 	C 	0.77089 0.23371 0.42841 0.31000
H 	H 	0.61785 0.23336 0.41495 0.18400
C 	C 	0.43758 0.25155 0.51300 -0.00500
C 	C 	0.43407 0.20131 0.94601 -0.09200
C 	C 	0.34681 0.20892 0.96478 0.08500
Br	Br	0.84636 0.00358 0.88948 -0.19500
Cu	Cu	0.62916 0.25674 0.00986 0.92900
O 	O 	0.64177 0.26710 0.92254 -0.63500
C 	C 	0.74243 0.25822 0.02268 0.30300
O 	O 	0.71449 0.30225 0.82526 -0.40600
Cu	Cu	0.77128 0.28429 0.54687 0.88500
O 	O 	0.64963 0.27916 0.43216 -0.63800
O 	O 	0.78912 0.28388 0.40418 -0.33600
O 	O 	0.57658 0.25741 0.52867 -0.35500
C 	C 	0.53369 0.25767 0.49012 0.31300
H 	H 	0.84150 0.28305 0.96493 0.04400
C 	C 	0.41263 0.23778 0.96300 -0.00700
C 	C 	0.90393 0.02989 0.35573 -0.05200
Br	Br	0.87140 0.08780 0.27020 -0.18200
Cu	Cu	0.72999 0.29830 0.91256 0.87300
O 	O 	0.63180 0.26371 0.09924 -0.34800
Cu	Cu	0.66788 0.30123 0.52250 0.90200
H 	H 	0.67699 0.26295 0.20894 0.11500
O 	O 	0.71546 0.29829 0.32677 -0.35000
O 	O 	0.76626 0.30840 0.99706 -0.41600
O 	O 	0.54348 0.29180 0.94729 -0.39000
C 	C 	0.67242 0.30288 0.29468 0.32500
O 	O 	0.55257 0.29916 0.45247 -0.37600
O 	O 	0.68588 0.31104 0.61532 -0.37200
C 	C 	0.65722 0.28486 0.23173 -0.11300
H 	H 	0.46816 0.30266 0.52419 0.07400
H 	H 	0.44755 0.28862 0.97682 0.06000
H 	H 	0.92116 0.01920 0.31651 0.08400
Br	Br	0.92586 0.31233 0.45233 -0.21700
C 	C 	0.61131 0.29217 0.13034 0.32100
C 	C 	0.69354 0.33327 0.80294 0.31900
C 	C 	0.74105 0.32973 0.65161 0.32200
O 	O 	0.78653 0.32996 0.62790 -0.40500
C 	C 	0.74979 0.34543 0.71419 -0.11100
H 	H 	0.79375 0.35749 0.74360 0.08500
Cu	Cu	0.74594 0.32588 0.41627 0.93400
Cu	Cu	0.62542 0.32922 0.40531 0.90200
C 	C 	0.70082 0.34593 0.74478 -0.10800
C 	C 	0.61532 0.29617 0.19282 -0.10700
O 	O 	0.57691 0.30722 0.09981 -0.38200
O 	O 	0.75959 0.34090 0.50959 -0.63500
O 	O 	0.65310 0.33457 0.32174 -0.38000
O 	O 	0.65910 0.34561 0.83375 -0.36800
H 	H 	0.59047 0.31219 0.21608 0.08800
Cu	Cu	0.66120 0.35126 0.92441 0.90100
O 	O 	0.67060 0.35330 0.01432 -0.64400
Br	Br	0.70389 0.00284 0.35403 -0.18200
Cu	Cu	0.60424 0.35940 0.03289 0.90100
H 	H 	0.01710 0.93905 0.98088 0.08200
C 	C 	0.01540 0.93534 0.44268 -0.08900
H 	H 	0.04224 0.91605 0.45075 0.08200
H 	H 	0.67542 0.36270 0.72237 0.09900
C 	C 	0.99885 0.96650 0.98918 -0.07800
C 	C 	0.93490 0.93687 0.99948 0.09500
C 	C 	0.91130 0.97222 0.01034 -0.09600
H 	H 	0.86175 0.94919 0.01841 0.08400
C 	C 	0.94614 0.98532 0.42209 0.07800
C 	C 	0.94694 0.89505 0.42901 0.08800
C 	C 	0.91221 0.92000 0.41852 -0.08000
H 	H 	0.85921 0.88894 0.40831 0.08500
O 	O 	0.68676 0.43623 0.92697 -0.37300
C 	C 	0.68185 0.47029 0.97116 0.33100
O 	O 	0.64791 0.44597 0.01592 -0.38100
H 	H 	0.71511 0.38630 0.03886 0.17200
O 	O 	0.78430 0.41794 0.41554 -0.33600
C 	C 	0.76363 0.44572 0.44721 0.30700
O 	O 	0.70943 0.41116 0.46891 -0.38300
H 	H 	0.79101 0.38562 0.53095 0.19500
C 	C 	0.79006 0.51130 0.44309 -0.09700
C 	C 	0.85680 0.56115 0.46494 0.15100
C 	C 	0.88033 0.62315 0.46092 -0.08200
C 	C 	0.83765 0.63595 0.43595 0.03000
C 	C 	0.77106 0.58611 0.41398 0.08200
C 	C 	0.74765 0.52421 0.41753 -0.00500
H 	H 	0.93162 0.66149 0.47800 0.09100
C 	C 	0.86288 0.70170 0.43344 0.01100
H 	H 	0.69634 0.48598 0.40029 0.05300
C 	C 	0.88199 0.72532 0.37826 -0.06200
C 	C 	0.90601 0.78752 0.37507 0.11100
C 	C 	0.91186 0.82692 0.42778 -0.02300
C 	C 	0.89115 0.80278 0.48237 -0.04900
C 	C 	0.86674 0.74047 0.48544 0.10300
H 	H 	0.87808 0.69528 0.33781 0.08300
H 	H 	0.89555 0.83297 0.52301 0.08700
Br	Br	0.71119 0.60182 0.37964 -0.19200
Br	Br	0.91586 0.54604 0.50313 -0.21000
Br	Br	0.93054 0.81792 0.29837 -0.19800
Br	Br	0.83926 0.70918 0.56110 -0.18000
C 	C 	0.89145 0.86810 0.99517 -0.01500
C 	C 	0.88657 0.84144 0.04924 0.10600
C 	C 	0.84900 0.77587 0.04348 -0.07400
C 	C 	0.81698 0.73665 0.98399 0.02400
C 	C 	0.82060 0.76328 0.93011 0.10100
C 	C 	0.85757 0.82879 0.93598 -0.04900
H 	H 	0.84588 0.75541 0.08506 0.08900
C 	C 	0.78205 0.66808 0.97823 0.03000
H 	H 	0.86107 0.84928 0.89435 0.08400
C 	C 	0.71441 0.62889 0.97621 -0.08000
C 	C 	0.68059 0.56373 0.97131 0.15500
C 	C 	0.71503 0.53759 0.97021 -0.09900
C 	C 	0.78246 0.57671 0.97086 -0.00400
C 	C 	0.81604 0.64169 0.97477 0.08400
H 	H 	0.68800 0.64903 0.97771 0.09500
H 	H 	0.80901 0.55671 0.96937 0.06100
Br	Br	0.77700 0.71097 0.84799 -0.17900
Br	Br	0.93224 0.89395 0.13102 -0.18900
Br	Br	0.58704 0.51101 0.96220 -0.19200
Br	Br	0.90831 0.69372 0.97509 -0.18600
