data_crystal

_cell_length_a 22.52335
_cell_length_b 24.70476
_cell_length_c 31.29741
_cell_angle_alpha 89.99779
_cell_angle_beta  90.00779
_cell_angle_gamma 92.64359

_symmetry_space_group_name_	'P 1'
_symmetry_space_group_name_H-M	'P 1'

loop_
_symmetry_equiv_pos_as_xyz
  x,y,z

loop_
_atom_site_label
_atom_site_type_symbol
_atom_site_fract_x
_atom_site_fract_y
_atom_site_fract_z
_atom_site_charge
C 	C 	0.94679 0.88731 0.99266 0.09500
N 	N 	0.99308 0.91907 0.00647 -0.16700
C 	C 	0.04201 0.89114 0.99956 0.09000
C 	C 	0.10070 0.90708 0.01816 -0.07000
C 	C 	0.12188 0.96446 0.01682 0.09100
C 	C 	0.14211 0.86524 0.03091 0.03800
C 	C 	0.12350 0.82367 0.05916 -0.05700
C 	C 	0.15958 0.78000 0.06627 -0.03600
C 	C 	0.21456 0.77803 0.04547 0.00100
C 	C 	0.19902 0.86500 0.01267 -0.05000
N 	N 	0.10761 0.99868 0.98538 -0.13000
C 	C 	0.15455 0.99072 0.04856 -0.06400
C 	C 	0.13206 0.04729 0.99704 0.07900
C 	C 	0.11480 0.09854 0.97737 -0.07500
C 	C 	0.15779 0.14534 0.97641 0.03500
C 	C 	0.24964 0.18778 0.94974 -0.03600
C 	C 	0.15181 0.18852 0.00489 -0.05400
C 	C 	0.19536 0.23066 0.00648 -0.03100
C 	C 	0.24456 0.23038 0.97896 -0.00400
N 	N 	0.00675 0.07698 0.96981 -0.17500
C 	C 	0.96200 0.09815 0.94773 0.09800
C 	C 	0.98425 0.13601 0.91841 -0.06500
C 	C 	0.04534 0.13761 0.92285 -0.06500
C 	C 	0.89938 0.09427 0.96263 -0.07600
C 	C 	0.86464 0.14337 0.96460 0.03500
C 	C 	0.80298 0.20809 0.92977 -0.03500
C 	C 	0.78867 0.22974 0.96970 -0.00400
C 	C 	0.81593 0.21071 0.00671 -0.03000
C 	C 	0.85376 0.16761 0.00416 -0.05300
N 	N 	0.90651 0.99920 0.98738 -0.13000
C 	C 	0.80945 0.97525 0.99511 -0.06100
C 	C 	0.86718 0.95830 0.99696 0.08800
C 	C 	0.88378 0.90089 0.99831 -0.08200
C 	C 	0.83755 0.85720 0.00449 0.05100
C 	C 	0.81427 0.82856 0.96916 -0.06600
C 	C 	0.76947 0.78820 0.97480 -0.03900
C 	C 	0.74764 0.77598 0.01586 0.00500
C 	C 	0.77003 0.80553 0.05112 -0.03500
C 	C 	0.81535 0.84555 0.04551 -0.06000
C 	C 	0.96602 0.83889 0.97660 -0.06700
C 	C 	0.02718 0.84132 0.98105 -0.06200
C 	C 	0.23547 0.82199 0.02055 -0.03600
C 	C 	0.16083 0.04414 0.03600 -0.05800
C 	C 	0.05740 0.10075 0.95465 0.09800
C 	C 	0.81389 0.02956 0.98468 -0.06600
C 	C 	0.87402 0.04273 0.98064 0.08500
C 	C 	0.83934 0.16391 0.92736 -0.05900
H 	H 	0.99012 0.94983 0.02919 0.09400
H 	H 	0.00236 0.06073 0.00054 0.09800
H 	H 	0.75107 0.76691 0.94721 0.03400
H 	H 	0.75226 0.79751 0.08277 0.03600
H 	H 	0.83059 0.83789 0.93732 0.04400
H 	H 	0.83267 0.86796 0.07290 0.04500
H 	H 	0.14380 0.74673 0.08643 0.03500
H 	H 	0.21416 0.89717 0.99122 0.03900
H 	H 	0.27874 0.82140 0.00546 0.03500
H 	H 	0.08025 0.82420 0.07425 0.04300
H 	H 	0.19151 0.26298 0.02956 0.03600
H 	H 	0.11430 0.18868 0.02655 0.04200
C 	C 	0.20636 0.14547 0.94843 -0.05700
H 	H 	0.28795 0.18675 0.92888 0.03300
H 	H 	0.78339 0.22363 0.90090 0.03500
H 	H 	0.84723 0.14519 0.89671 0.04100
H 	H 	0.87343 0.15214 0.03303 0.04300
H 	H 	0.80612 0.22804 0.03757 0.03400
H 	H 	0.93880 0.80192 0.97301 0.04300
H 	H 	0.05473 0.80656 0.98107 0.04100
H 	H 	0.15844 0.97646 0.08110 0.04500
H 	H 	0.16919 0.07789 0.05758 0.04400
H 	H 	0.95963 0.16853 0.90502 0.04500
H 	H 	0.07462 0.17148 0.91338 0.04400
H 	H 	0.77034 0.94902 0.98969 0.04400
H 	H 	0.77873 0.05169 0.97015 0.04300
H 	H 	0.21113 0.11228 0.92626 0.04300
C 	C 	0.95168 0.88909 0.45184 0.09900
N 	N 	0.99875 0.92136 0.46349 -0.17200
C 	C 	0.04740 0.89306 0.45612 0.09900
C 	C 	0.10616 0.90792 0.47521 -0.07700
C 	C 	0.12690 0.96536 0.47762 0.08900
C 	C 	0.14819 0.86558 0.48506 0.04100
C 	C 	0.13610 0.82866 0.51833 -0.06000
C 	C 	0.17590 0.78839 0.52733 -0.03500
C 	C 	0.22852 0.78551 0.50360 0.00000
C 	C 	0.20025 0.86200 0.46088 -0.05800
N 	N 	0.11023 0.00327 0.44975 -0.13100
C 	C 	0.16087 0.98785 0.51036 -0.06200
C 	C 	0.13443 0.05048 0.46473 0.08700
C 	C 	0.11471 0.10371 0.45039 -0.07700
C 	C 	0.15620 0.15189 0.45309 0.04000
C 	C 	0.25390 0.19417 0.43989 -0.03500
C 	C 	0.14100 0.19724 0.47704 -0.05900
C 	C 	0.18238 0.24065 0.48276 -0.03500
C 	C 	0.23920 0.23906 0.46452 -0.00100
N 	N 	0.00677 0.07949 0.44446 -0.17200
C 	C 	0.95966 0.10288 0.42707 0.09900
C 	C 	0.97846 0.14623 0.40147 -0.06500
C 	C 	0.03979 0.14908 0.40343 -0.06500
C 	C 	0.89916 0.09600 0.44536 -0.07700
C 	C 	0.86427 0.14393 0.45383 0.04100
C 	C 	0.79418 0.20892 0.42971 -0.03400
C 	C 	0.78918 0.22846 0.47159 -0.00200
C 	C 	0.82301 0.20635 0.50437 -0.03500
C 	C 	0.86142 0.16504 0.49530 -0.06000
N 	N 	0.89852 0.99541 0.44097 -0.12700
C 	C 	0.82228 0.97395 0.48540 -0.06000
C 	C 	0.86756 0.95455 0.46069 0.08600
C 	C 	0.89001 0.89941 0.46485 -0.07600
C 	C 	0.84879 0.85371 0.47732 0.03900
C 	C 	0.80057 0.83840 0.45091 -0.05800
C 	C 	0.76099 0.79590 0.46298 -0.03400
C 	C 	0.76864 0.76903 0.50194 0.00100
C 	C 	0.81759 0.78349 0.52794 -0.03600
C 	C 	0.85749 0.82580 0.51570 -0.05800
C 	C 	0.97012 0.83983 0.43692 -0.06400
C 	C 	0.03141 0.84235 0.43963 -0.06400
C 	C 	0.23996 0.82182 0.46986 -0.03500
C 	C 	0.16544 0.04269 0.50226 -0.06700
C 	C 	0.05553 0.10754 0.43022 0.09900
C 	C 	0.82504 0.02934 0.48020 -0.06700
C 	C 	0.87197 0.04095 0.45261 0.08600
C 	C 	0.83094 0.16631 0.42099 -0.05900
H 	H 	0.99685 0.95307 0.48549 0.09200
H 	H 	0.00507 0.05700 0.47276 0.09100
H 	H 	0.72401 0.78421 0.44230 0.03600
H 	H 	0.82430 0.76241 0.55778 0.03400
H 	H 	0.79385 0.85938 0.42102 0.04500
H 	H 	0.89484 0.83713 0.53615 0.04200
H 	H 	0.16612 0.75970 0.55283 0.03500
H 	H 	0.20960 0.89004 0.43486 0.04500
H 	H 	0.27955 0.81875 0.45053 0.03300
H 	H 	0.09581 0.83103 0.53701 0.04200
H 	H 	0.17088 0.27484 0.50228 0.03400
H 	H 	0.09772 0.19826 0.49205 0.04200
C 	C 	0.21243 0.15102 0.43389 -0.05800
H 	H 	0.29805 0.19201 0.42648 0.03400
H 	H 	0.76790 0.22547 0.40427 0.03600
H 	H 	0.83290 0.15015 0.38886 0.04300
H 	H 	0.88717 0.14796 0.52081 0.04100
H 	H 	0.81867 0.22049 0.53694 0.03200
H 	H 	0.94284 0.80261 0.43598 0.04600
H 	H 	0.05852 0.80733 0.44091 0.04600
H 	H 	0.16677 0.96946 0.54137 0.04300
H 	H 	0.17435 0.07348 0.52633 0.04400
H 	H 	0.95175 0.17995 0.39307 0.04500
H 	H 	0.06726 0.18512 0.39649 0.04500
H 	H 	0.80237 0.95308 0.51264 0.04300
H 	H 	0.80722 0.05762 0.50270 0.04400
H 	H 	0.22449 0.11630 0.41518 0.04400
Ni	Ni	0.46649 0.53160 0.04866 1.09800
O 	O 	0.53970 0.48811 0.03710 -0.70300
Ni	Ni	0.52762 0.46956 0.97471 1.09700
O 	O 	0.48222 0.53834 0.11313 -0.37000
O 	O 	0.49381 0.44811 0.12300 -0.40000
O 	O 	0.51642 0.60407 0.04548 -0.37800
Ni	Ni	0.53462 0.41922 0.06847 1.06300
O 	O 	0.42171 0.62981 0.00035 -0.41700
O 	O 	0.45020 0.40041 0.04788 -0.42100
O 	O 	0.60140 0.42593 0.96794 -0.38300
O 	O 	0.45426 0.51290 0.98634 -0.70700
O 	O 	0.39201 0.57393 0.05533 -0.39100
O 	O 	0.51143 0.46307 0.91018 -0.36500
O 	O 	0.49979 0.55343 0.90052 -0.39900
Ni	Ni	0.45840 0.58176 0.95496 1.06200
H 	H 	0.57784 0.50862 0.04223 0.15300
H 	H 	0.41617 0.49228 0.98135 0.15200
C 	C 	0.43933 0.38515 0.00857 0.29900
O 	O 	0.54229 0.60015 0.97536 -0.43100
C 	C 	0.49964 0.49818 0.13694 0.26900
C 	C 	0.61217 0.38715 0.99532 0.28300
C 	C 	0.55261 0.61802 0.01399 0.30400
C 	C 	0.49457 0.50345 0.88629 0.26700
C 	C 	0.38122 0.61331 0.02860 0.29100
O 	O 	0.47748 0.39759 0.97802 -0.37800
O 	O 	0.57109 0.37111 0.02329 -0.41300
Ni	Ni	0.47713 0.53952 0.54656 1.09700
O 	O 	0.54209 0.48524 0.53915 -0.70600
Ni	Ni	0.53277 0.46597 0.47668 1.09700
O 	O 	0.48919 0.54630 0.61148 -0.36700
O 	O 	0.48120 0.45521 0.62254 -0.40100
O 	O 	0.53872 0.60411 0.54355 -0.37300
Ni	Ni	0.52329 0.41881 0.57168 1.06200
O 	O 	0.45281 0.64065 0.49326 -0.41000
O 	O 	0.43989 0.40982 0.54636 -0.42200
O 	O 	0.59871 0.41269 0.47425 -0.38400
O 	O 	0.46741 0.52001 0.48396 -0.70300
O 	O 	0.41164 0.59334 0.54924 -0.38100
O 	O 	0.52214 0.45936 0.41154 -0.36500
O 	O 	0.52621 0.55033 0.39957 -0.39800
Ni	Ni	0.48630 0.58669 0.45126 1.06500
H 	H 	0.58242 0.50052 0.54569 0.15200
H 	H 	0.42706 0.50454 0.47755 0.15400
C 	C 	0.43108 0.39224 0.50743 0.29600
O 	O 	0.57013 0.59549 0.47494 -0.41900
C 	C 	0.49493 0.50421 0.63663 0.26700
C 	C 	0.60268 0.37499 0.50371 0.29000
C 	C 	0.58084 0.60958 0.51457 0.29100
C 	C 	0.51285 0.50085 0.38643 0.26700
C 	C 	0.40695 0.62877 0.51826 0.28900
O 	O 	0.47213 0.40060 0.47809 -0.37500
O 	O 	0.55814 0.36442 0.53042 -0.42200
C 	C 	0.48521 0.47851 0.75311 0.08600
C 	C 	0.50220 0.52957 0.76991 0.08700
N 	N 	0.50380 0.53695 0.81285 -0.09800
C 	C 	0.48959 0.49513 0.83990 -0.03000
C 	C 	0.47210 0.44412 0.82303 0.03400
N 	N 	0.47026 0.43685 0.77994 -0.11800
N 	N 	0.48384 0.47108 0.71015 -0.10100
N 	N 	0.51756 0.57112 0.74311 -0.11700
H 	H 	0.46002 0.41057 0.84403 0.03500
C 	C 	0.49862 0.51279 0.68311 -0.03200
C 	C 	0.51627 0.56376 0.70005 0.03500
H 	H 	0.52894 0.59722 0.67912 0.03800
C 	C 	0.51498 0.52501 0.26964 0.08600
C 	C 	0.49801 0.47350 0.25367 0.08600
N 	N 	0.49438 0.46547 0.21083 -0.09900
C 	C 	0.50653 0.50710 0.18315 -0.03200
C 	C 	0.52376 0.55859 0.19922 0.03400
N 	N 	0.52767 0.56647 0.24216 -0.11800
N 	N 	0.51874 0.53301 0.31245 -0.10000
N 	N 	0.48485 0.43214 0.28118 -0.11700
H 	H 	0.53400 0.59205 0.17770 0.03400
C 	C 	0.50637 0.49151 0.34019 -0.03100
C 	C 	0.48849 0.44012 0.32414 0.03500
H 	H 	0.47749 0.40684 0.34567 0.03700
C 	C 	0.26954 0.74187 0.51180 0.00400
C 	C 	0.31342 0.74671 0.54425 0.00600
C 	C 	0.35591 0.70708 0.54756 -0.00600
C 	C 	0.35670 0.66441 0.51817 -0.09900
C 	C 	0.31177 0.65856 0.48679 0.05700
C 	C 	0.26778 0.69681 0.48454 -0.07800
H 	H 	0.38963 0.71048 0.57228 0.04100
H 	H 	0.23308 0.69245 0.46059 0.04600
C 	C 	0.31579 0.79375 0.57561 -0.09600
C 	C 	0.30928 0.61073 0.45637 -0.10500
C 	C 	0.36996 0.83282 0.56831 -0.02300
H 	H 	0.41169 0.81053 0.56938 0.03000
H 	H 	0.37207 0.86289 0.59475 0.02500
C 	C 	0.28120 0.56003 0.47802 -0.03000
H 	H 	0.23542 0.56821 0.48879 0.03200
H 	H 	0.30774 0.54930 0.50647 0.02800
H 	H 	0.27480 0.81694 0.57548 0.04900
H 	H 	0.35455 0.60248 0.44461 0.00800
C 	C 	0.36685 0.86344 0.52604 -0.15600
C 	C 	0.27817 0.51170 0.44759 -0.15500
H 	H 	0.32507 0.88552 0.52409 0.06000
H 	H 	0.40502 0.89340 0.52382 0.05400
H 	H 	0.36939 0.83501 0.49870 0.06100
H 	H 	0.31889 0.77693 0.60844 0.04500
H 	H 	0.24941 0.52009 0.41976 0.05200
H 	H 	0.25913 0.47549 0.46462 0.05200
H 	H 	0.32334 0.50281 0.43608 0.03900
H 	H 	0.28278 0.62039 0.42757 0.04300
C 	C 	0.63457 0.64406 0.52385 -0.10000
C 	C 	0.69061 0.63069 0.50740 0.07200
C 	C 	0.73507 0.67187 0.50179 -0.08200
C 	C 	0.72578 0.72500 0.51504 0.00600
C 	C 	0.67323 0.73628 0.53752 0.00400
C 	C 	0.62785 0.69563 0.54150 -0.01000
H 	H 	0.77662 0.66265 0.48651 0.04900
H 	H 	0.58583 0.70530 0.55588 0.04500
C 	C 	0.70460 0.57243 0.49748 -0.11400
C 	C 	0.66373 0.79205 0.55574 -0.09400
C 	C 	0.74871 0.54979 0.52963 -0.02200
H 	H 	0.78994 0.57625 0.53101 0.02700
H 	H 	0.76146 0.50925 0.51837 0.02200
C 	C 	0.62741 0.82583 0.52496 -0.02500
H 	H 	0.58270 0.80576 0.52015 0.03100
H 	H 	0.64987 0.82909 0.49343 0.03200
H 	H 	0.66436 0.54482 0.49643 0.04100
H 	H 	0.70676 0.81376 0.56323 0.04900
C 	C 	0.72245 0.54363 0.57449 -0.15200
C 	C 	0.61981 0.88286 0.54227 -0.15600
H 	H 	0.68192 0.51634 0.57393 0.03600
H 	H 	0.75552 0.52570 0.59597 0.05000
H 	H 	0.71128 0.58365 0.58764 0.06000
H 	H 	0.72462 0.57106 0.46506 0.05200
H 	H 	0.59654 0.88105 0.57358 0.05500
H 	H 	0.59289 0.90598 0.51951 0.05400
H 	H 	0.66382 0.90452 0.54615 0.05600
H 	H 	0.63952 0.78764 0.58663 0.04600
C 	C 	0.64953 0.33566 0.49930 -0.10900
C 	C 	0.63611 0.28048 0.48867 0.08400
C 	C 	0.68272 0.24630 0.48035 -0.08900
C 	C 	0.74201 0.26580 0.48209 0.01000
C 	C 	0.75550 0.32066 0.49268 -0.00000
C 	C 	0.70901 0.35493 0.50145 -0.01000
H 	H 	0.67272 0.20429 0.47187 0.05000
H 	H 	0.71913 0.39730 0.50873 0.02300
C 	C 	0.57259 0.25702 0.48556 -0.12800
C 	C 	0.81872 0.34444 0.49101 -0.09200
C 	C 	0.55783 0.21430 0.52029 -0.00900
H 	H 	0.58288 0.17737 0.51411 0.02300
H 	H 	0.50978 0.20225 0.51813 0.02200
C 	C 	0.83536 0.36213 0.44540 -0.02700
H 	H 	0.80489 0.39344 0.43438 0.03300
H 	H 	0.83080 0.32694 0.42334 0.03400
H 	H 	0.53847 0.28781 0.48558 0.07800
H 	H 	0.85062 0.31510 0.50304 0.04600
C 	C 	0.57147 0.23411 0.56572 -0.15800
C 	C 	0.89919 0.38556 0.44315 -0.15600
H 	H 	0.55042 0.27287 0.57223 0.05400
H 	H 	0.55384 0.20351 0.58901 0.05000
H 	H 	0.62020 0.23963 0.57068 0.05800
H 	H 	0.56730 0.23678 0.45397 0.05500
H 	H 	0.90490 0.42159 0.46424 0.05400
H 	H 	0.90969 0.39812 0.40983 0.05400
H 	H 	0.93075 0.35463 0.45303 0.05500
H 	H 	0.82325 0.38016 0.51263 0.04100
C 	C 	0.28600 0.28018 0.47649 0.00700
C 	C 	0.29327 0.33017 0.45443 0.00300
C 	C 	0.34016 0.36687 0.46592 -0.00800
C 	C 	0.38005 0.35427 0.49843 -0.10300
C 	C 	0.37271 0.30413 0.52032 0.07400
C 	C 	0.32500 0.26822 0.50965 -0.08500
H 	H 	0.34605 0.40508 0.44909 0.02400
H 	H 	0.31888 0.23018 0.52676 0.04800
C 	C 	0.25169 0.34514 0.41852 -0.09400
C 	C 	0.41519 0.28823 0.55517 -0.11600
C 	C 	0.28234 0.34557 0.37462 -0.02300
H 	H 	0.32266 0.37327 0.37500 0.03100
H 	H 	0.25131 0.36156 0.35060 0.02600
C 	C 	0.39200 0.30357 0.59945 -0.02900
H 	H 	0.35095 0.27856 0.60677 0.03000
H 	H 	0.38064 0.34686 0.60007 0.04300
H 	H 	0.21066 0.31856 0.41713 0.04800
H 	H 	0.46017 0.30686 0.54972 0.04900
C 	C 	0.29941 0.28921 0.36045 -0.15700
C 	C 	0.43809 0.29430 0.63414 -0.14700
H 	H 	0.25976 0.26076 0.36025 0.05900
H 	H 	0.31797 0.29151 0.32760 0.05800
H 	H 	0.33382 0.27355 0.38200 0.06300
H 	H 	0.23634 0.38650 0.42482 0.04000
H 	H 	0.47865 0.32069 0.62857 0.02900
H 	H 	0.41944 0.30441 0.66584 0.05700
H 	H 	0.45026 0.25123 0.63444 0.05000
H 	H 	0.42045 0.24369 0.55416 0.04800
C 	C 	0.33280 0.64907 0.03833 -0.10900
C 	C 	0.33616 0.68542 0.07357 0.08200
C 	C 	0.29205 0.72351 0.07813 -0.08800
C 	C 	0.24822 0.72838 0.04685 0.00700
C 	C 	0.24235 0.68947 0.01384 0.00500
C 	C 	0.28514 0.65047 0.00969 -0.00700
H 	H 	0.29321 0.75101 0.10506 0.05000
H 	H 	0.28215 0.62189 0.98338 0.01000
C 	C 	0.38263 0.68012 0.10871 -0.12900
C 	C 	0.19120 0.68960 0.98235 -0.09900
C 	C 	0.41113 0.73489 0.12423 -0.01200
H 	H 	0.40086 0.76871 0.10248 0.02500
H 	H 	0.46034 0.73262 0.12418 0.02800
C 	C 	0.21010 0.71763 0.94042 -0.02300
H 	H 	0.24467 0.69411 0.92443 0.02200
H 	H 	0.22933 0.75899 0.94689 0.02900
H 	H 	0.36139 0.65703 0.13559 0.06400
H 	H 	0.15225 0.70928 0.99622 0.04800
C 	C 	0.39207 0.74901 0.16962 -0.16300
C 	C 	0.15746 0.72212 0.91010 -0.15800
H 	H 	0.40714 0.71813 0.19251 0.06100
H 	H 	0.41253 0.78908 0.17880 0.05600
H 	H 	0.34303 0.75095 0.17173 0.05800
H 	H 	0.41990 0.65574 0.09800 0.07800
H 	H 	0.13759 0.68126 0.90250 0.05300
H 	H 	0.17276 0.74180 0.87990 0.05400
H 	H 	0.12308 0.74711 0.92475 0.05700
H 	H 	0.17593 0.64704 0.97538 0.04200
C 	C 	0.69628 0.73704 0.02104 0.00500
C 	C 	0.70308 0.68404 0.03726 0.00500
C 	C 	0.65368 0.64711 0.03810 -0.00700
C 	C 	0.59917 0.66092 0.02058 -0.10500
C 	C 	0.59233 0.71403 0.00478 0.07700
C 	C 	0.64041 0.75209 0.00682 -0.07800
H 	H 	0.65862 0.60654 0.05045 0.02000
H 	H 	0.63499 0.79309 0.99556 0.04400
C 	C 	0.76282 0.66543 0.05255 -0.09700
C 	C 	0.53401 0.73096 0.98575 -0.11800
C 	C 	0.79087 0.62669 0.02072 -0.01700
H 	H 	0.75894 0.59257 0.01269 0.02500
H 	H 	0.83004 0.60911 0.03616 0.02300
C 	C 	0.49160 0.74972 0.02051 -0.01800
H 	H 	0.51356 0.78312 0.03938 0.02900
H 	H 	0.48020 0.71557 0.04253 0.04800
H 	H 	0.79492 0.69952 0.05991 0.05000
H 	H 	0.51224 0.69770 0.96679 0.04300
C 	C 	0.81140 0.65495 0.97955 -0.16300
C 	C 	0.43441 0.76993 0.00107 -0.14500
H 	H 	0.84195 0.69035 0.98679 0.05900
H 	H 	0.83548 0.62616 0.95943 0.05400
H 	H 	0.77258 0.66836 0.96117 0.06200
H 	H 	0.75588 0.64346 0.08329 0.04300
H 	H 	0.44461 0.80502 0.97969 0.04800
H 	H 	0.40444 0.78314 0.02678 0.05600
H 	H 	0.41081 0.73721 0.98253 0.05600
H 	H 	0.54284 0.76471 0.96273 0.04700
C 	C 	0.74334 0.27077 0.97304 0.00500
C 	C 	0.68208 0.25623 0.96845 0.00600
C 	C 	0.64028 0.29608 0.97299 -0.01000
C 	C 	0.65807 0.34917 0.98447 -0.09600
C 	C 	0.71915 0.36392 0.98883 0.06100
C 	C 	0.76134 0.32449 0.98281 -0.08000
H 	H 	0.59332 0.28511 0.96957 0.04100
H 	H 	0.80823 0.33532 0.98678 0.04600
C 	C 	0.66022 0.19776 0.96155 -0.10100
C 	C 	0.73965 0.42051 0.00276 -0.10900
C 	C 	0.65632 0.16533 0.00345 -0.01200
H 	H 	0.69984 0.16713 0.02013 0.03100
H 	H 	0.64544 0.12213 0.99559 0.02000
C 	C 	0.73789 0.42583 0.05162 -0.01700
H 	H 	0.77065 0.39890 0.06605 0.02500
H 	H 	0.69303 0.41325 0.06388 0.00300
H 	H 	0.61575 0.19629 0.94599 0.04600
H 	H 	0.71186 0.45122 0.98766 0.05000
C 	C 	0.60857 0.18507 0.03367 -0.15900
C 	C 	0.75250 0.48404 0.06582 -0.16200
H 	H 	0.56504 0.18608 0.01707 0.05600
H 	H 	0.60378 0.15704 0.06131 0.05300
H 	H 	0.62127 0.22611 0.04602 0.06000
H 	H 	0.68931 0.17701 0.93885 0.04800
H 	H 	0.79691 0.49826 0.05374 0.05500
H 	H 	0.75296 0.48609 0.10126 0.05000
H 	H 	0.71830 0.51122 0.05377 0.04500
H 	H 	0.78585 0.42977 0.99146 0.04500
C 	C 	0.29470 0.27029 0.98489 0.00200
C 	C 	0.29158 0.32466 0.97089 0.00500
C 	C 	0.33934 0.36173 0.97931 -0.01400
C 	C 	0.39046 0.34508 0.00012 -0.09800
C 	C 	0.39464 0.29014 0.01219 0.07700
C 	C 	0.34610 0.25365 0.00534 -0.07900
H 	H 	0.33682 0.40360 0.96930 0.01900
H 	H 	0.34839 0.21197 0.01588 0.04900
C 	C 	0.23895 0.34343 0.94540 -0.09600
C 	C 	0.45019 0.26985 0.03298 -0.12400
C 	C 	0.25368 0.35034 0.89771 -0.02200
H 	H 	0.29377 0.37780 0.89354 0.02700
H 	H 	0.21599 0.36973 0.88179 0.02400
C 	C 	0.44527 0.27137 0.08187 -0.02100
H 	H 	0.40761 0.24387 0.09242 0.03000
H 	H 	0.43644 0.31297 0.09285 0.03300
H 	H 	0.19861 0.31633 0.94902 0.04800
H 	H 	0.49043 0.29346 0.02210 0.06700
C 	C 	0.26355 0.29645 0.87546 -0.15700
C 	C 	0.50216 0.25360 0.10315 -0.15900
H 	H 	0.22439 0.26801 0.87996 0.05900
H 	H 	0.26994 0.30351 0.84070 0.05600
H 	H 	0.30394 0.27795 0.88817 0.06200
H 	H 	0.22642 0.38334 0.95812 0.04000
H 	H 	0.51040 0.21099 0.09455 0.05400
H 	H 	0.49757 0.25630 0.13839 0.05300
H 	H 	0.54072 0.28027 0.09309 0.04200
H 	H 	0.45653 0.22740 0.02266 0.05100
