data_crystal

_cell_length_a 26.11627
_cell_length_b 26.43625
_cell_length_c 26.46597
_cell_angle_alpha 95.46533
_cell_angle_beta  95.46523
_cell_angle_gamma 125.84802

_symmetry_space_group_name_	'P 1'
_symmetry_space_group_name_H-M	'P 1'

loop_
_symmetry_equiv_pos_as_xyz
  x,y,z

loop_
_atom_site_label
_atom_site_type_symbol
_atom_site_fract_x
_atom_site_fract_y
_atom_site_fract_z
_atom_site_charge
C 	C 	0.95887 0.01900 0.97877 0.10900
N 	N 	0.92392 0.95635 0.98137 -0.13200
C 	C 	0.95047 0.92523 0.97639 0.11800
N 	N 	0.01195 0.95670 0.96883 -0.12700
C 	C 	0.04640 0.01883 0.96456 0.11800
N 	N 	0.01987 0.05006 0.96980 -0.13300
C 	C 	0.94738 0.01198 0.45829 0.11100
N 	N 	0.01087 0.04778 0.45583 -0.13000
C 	C 	0.04300 0.02203 0.45854 0.12100
N 	N 	0.01137 0.96015 0.46260 -0.12900
C 	C 	0.94804 0.92431 0.46552 0.11700
N 	N 	0.91638 0.95073 0.46456 -0.13200
Cu	Cu	0.63375 0.23572 0.00660 0.93000
Cu	Cu	0.68853 0.24471 0.89910 0.86800
Cu	Cu	0.66425 0.33496 0.94033 0.89700
Cu	Cu	0.63497 0.35292 0.04363 0.89600
C 	C 	0.65379 0.28213 0.11454 0.28800
O 	O 	0.54042 0.19913 0.00610 -0.35700
C 	C 	0.65400 0.30056 0.82871 0.28200
O 	O 	0.68534 0.33461 0.01176 -0.64000
O 	O 	0.62496 0.24272 0.93317 -0.64200
O 	O 	0.67177 0.18907 0.00190 -0.36600
O 	O 	0.74595 0.25791 0.95758 -0.43800
O 	O 	0.62338 0.30634 0.10171 -0.37900
O 	O 	0.70892 0.42591 0.94976 -0.37400
C 	C 	0.71090 0.46207 0.98921 0.29500
C 	C 	0.51523 0.22538 0.98612 0.28400
O 	O 	0.55260 0.28573 0.98274 -0.38900
O 	O 	0.67375 0.43761 0.02392 -0.38900
O 	O 	0.65620 0.24474 0.07969 -0.35200
C 	C 	0.72678 0.21434 0.98633 0.29600
O 	O 	0.64795 0.33286 0.86594 -0.36800
O 	O 	0.65206 0.25076 0.83579 -0.41200
H 	H 	0.73190 0.36267 0.02666 0.17000
H 	H 	0.58076 0.21458 0.91255 0.17800
Cu	Cu	0.74506 0.34817 0.44174 0.92900
Cu	Cu	0.73802 0.29640 0.55033 0.86900
Cu	Cu	0.64333 0.31586 0.50757 0.89800
Cu	Cu	0.62558 0.34619 0.40414 0.89600
C 	C 	0.69545 0.32471 0.33366 0.28700
O 	O 	0.78388 0.44092 0.44226 -0.35500
C 	C 	0.67919 0.32769 0.61969 0.28300
O 	O 	0.64477 0.29696 0.43618 -0.64000
O 	O 	0.73738 0.35713 0.51509 -0.64000
O 	O 	0.79107 0.30928 0.44660 -0.36800
O 	O 	0.72214 0.23768 0.49239 -0.43800
O 	O 	0.67102 0.35513 0.34538 -0.38100
O 	O 	0.55096 0.26945 0.49688 -0.37400
C 	C 	0.51547 0.26997 0.45817 0.29800
C 	C 	0.75515 0.46561 0.45748 0.28700
O 	O 	0.69521 0.42830 0.46361 -0.39200
O 	O 	0.54157 0.31060 0.42642 -0.39000
O 	O 	0.73613 0.32602 0.36853 -0.35100
C 	C 	0.76467 0.25490 0.46231 0.29600
O 	O 	0.64336 0.32939 0.58199 -0.36900
O 	O 	0.73154 0.33340 0.61270 -0.41200
H 	H 	0.61690 0.25109 0.42086 0.17000
H 	H 	0.76475 0.40110 0.53513 0.17900
C 	C 	0.65247 0.31408 0.77585 -0.06600
C 	C 	0.70474 0.37165 0.76483 -0.00300
C 	C 	0.71081 0.37853 0.71306 0.00200
C 	C 	0.66496 0.32761 0.67248 -0.06600
C 	C 	0.60864 0.27349 0.68348 -0.00300
C 	C 	0.60225 0.26688 0.73524 0.00200
C 	C 	0.75303 0.42305 0.80670 0.07700
C 	C 	0.55818 0.22391 0.64161 0.07700
C 	C 	0.54412 0.21174 0.74676 0.08400
C 	C 	0.76387 0.43791 0.70150 0.08400
N 	N 	0.49773 0.16771 0.75592 -0.11900
N 	N 	0.80621 0.48530 0.69225 -0.11600
N 	N 	0.51794 0.18439 0.60818 -0.11400
N 	N 	0.79151 0.46405 0.84013 -0.11400
C 	C 	0.68978 0.30301 0.27849 -0.06300
C 	C 	0.74171 0.33949 0.25292 0.00400
C 	C 	0.73114 0.32875 0.19841 -0.00300
C 	C 	0.66871 0.28211 0.16973 -0.06200
C 	C 	0.61884 0.24065 0.19521 0.00400
C 	C 	0.62948 0.25097 0.24965 -0.00200
C 	C 	0.80543 0.38896 0.28258 0.09100
C 	C 	0.55630 0.18832 0.16540 0.09000
C 	C 	0.57820 0.20884 0.27611 0.07000
C 	C 	0.78406 0.36646 0.17184 0.07500
N 	N 	0.53733 0.17529 0.29727 -0.12500
N 	N 	0.82624 0.39649 0.15057 -0.12000
N 	N 	0.50642 0.14660 0.14157 -0.11200
N 	N 	0.85632 0.42840 0.30623 -0.10900
C 	C 	0.83086 0.74456 0.44208 -0.05900
C 	C 	0.86314 0.73061 0.47668 0.00300
C 	C 	0.92071 0.78053 0.51015 0.00800
C 	C 	0.94530 0.84357 0.50858 -0.03500
C 	C 	0.91490 0.85774 0.47214 -0.02800
C 	C 	0.85697 0.80763 0.43877 0.02800
C 	C 	0.83932 0.66387 0.47418 0.01600
S 	S 	0.96389 0.76481 0.55258 -0.03700
H 	H 	0.98954 0.88182 0.53449 0.04600
S 	S 	0.81913 0.82279 0.39026 -0.03400
H 	H 	0.78666 0.70617 0.41623 0.04900
C 	C 	0.80444 0.62865 0.51086 -0.00600
C 	C 	0.78072 0.56497 0.50666 -0.00500
C 	C 	0.78870 0.53492 0.46479 -0.09100
C 	C 	0.82268 0.57010 0.42747 0.05200
C 	C 	0.84902 0.63455 0.43320 -0.07200
S 	S 	0.78789 0.66290 0.56092 -0.03500
H 	H 	0.75430 0.53818 0.53518 0.04200
S 	S 	0.82831 0.53327 0.37139 -0.02200
H 	H 	0.87534 0.66151 0.40472 0.05400
H 	H 	0.84522 0.82758 0.34684 0.03700
H 	H 	0.73229 0.65547 0.54374 0.03800
H 	H 	0.77484 0.50757 0.33425 0.03900
H 	H 	0.94407 0.75975 0.59915 0.03900
C 	C 	0.87561 0.08967 0.40491 -0.05800
C 	C 	0.85779 0.10473 0.44893 0.00200
C 	C 	0.86424 0.08417 0.49477 0.00800
C 	C 	0.89153 0.05179 0.49686 -0.03600
C 	C 	0.91219 0.03941 0.45355 -0.02700
C 	C 	0.90252 0.05694 0.40691 0.02900
C 	C 	0.83501 0.14435 0.44738 0.01800
S 	S 	0.83915 0.09946 0.54988 -0.04800
H 	H 	0.89803 0.03749 0.53253 0.04600
S 	S 	0.92251 0.03688 0.35054 -0.04800
H 	H 	0.86940 0.10428 0.36933 0.05200
C 	C 	0.87827 0.21086 0.46337 -0.00900
C 	C 	0.85503 0.24698 0.46578 -0.00300
C 	C 	0.78895 0.21746 0.45215 -0.09900
C 	C 	0.74620 0.15140 0.43304 0.05900
C 	C 	0.76940 0.11520 0.43116 -0.07600
S 	S 	0.96141 0.24924 0.48125 -0.03600
H 	H 	0.88817 0.29786 0.47975 0.03500
S 	S 	0.66416 0.11393 0.40955 -0.04400
H 	H 	0.73632 0.06425 0.41756 0.05500
H 	H 	0.87154 0.97726 0.32518 0.04400
H 	H 	0.97597 0.25106 0.53282 0.03200
H 	H 	0.63073 0.09360 0.44909 0.03800
H 	H 	0.88869 0.15744 0.57890 0.03200
C 	C 	0.22203 0.11266 0.50256 -0.05800
C 	C 	0.24425 0.13077 0.45662 0.00400
C 	C 	0.20027 0.11449 0.41158 0.00700
C 	C 	0.13468 0.08041 0.41302 -0.03300
C 	C 	0.11239 0.06156 0.45879 -0.02800
C 	C 	0.15646 0.07834 0.50394 0.03000
C 	C 	0.31368 0.16681 0.45613 0.01900
S 	S 	0.22670 0.13601 0.35317 -0.03700
H 	H 	0.10083 0.06761 0.37830 0.04900
S 	S 	0.13023 0.05761 0.56258 -0.04100
H 	H 	0.25589 0.12549 0.53727 0.05400
C 	C 	0.35422 0.23375 0.46643 -0.00800
C 	C 	0.42002 0.26696 0.46647 0.00300
C 	C 	0.44604 0.23403 0.45699 -0.09000
C 	C 	0.40551 0.16707 0.44670 0.06000
C 	C 	0.33960 0.13386 0.44633 -0.07300
S 	S 	0.32319 0.27644 0.47962 -0.03000
H 	H 	0.45114 0.31847 0.47442 0.04200
S 	S 	0.43636 0.12436 0.43281 -0.05100
H 	H 	0.30841 0.08235 0.43834 0.05700
H 	H 	0.11399 0.99850 0.56532 0.04700
H 	H 	0.30424 0.28701 0.43426 0.03600
H 	H 	0.43581 0.11574 0.38083 0.04100
H 	H 	0.24191 0.19474 0.35054 0.03700
C 	C 	0.84410 0.63347 0.98526 -0.07400
C 	C 	0.81089 0.66011 0.98613 0.01900
C 	C 	0.74504 0.62180 0.98878 -0.00700
C 	C 	0.71306 0.55731 0.99027 0.00100
C 	C 	0.74610 0.53043 0.98901 -0.08900
C 	C 	0.81225 0.56903 0.98702 0.06000
C 	C 	0.84547 0.72819 0.98407 0.00200
S 	S 	0.70228 0.65414 0.99061 -0.03100
H 	H 	0.66225 0.52783 0.99188 0.04200
S 	S 	0.85632 0.53801 0.98900 -0.05100
H 	H 	0.89492 0.66310 0.98368 0.05500
C 	C 	0.87754 0.77459 0.02972 0.00900
C 	C 	0.91087 0.83890 0.02679 -0.03300
C 	C 	0.91257 0.85741 0.97872 -0.02800
C 	C 	0.87977 0.81097 0.93313 0.02900
C 	C 	0.84660 0.74669 0.93604 -0.05700
S 	S 	0.87635 0.75272 0.09063 -0.04000
H 	H 	0.93592 0.87461 0.06189 0.04800
S 	S 	0.87955 0.83269 0.87230 -0.03600
H 	H 	0.82163 0.71099 0.90094 0.05400
H 	H 	0.87932 0.54321 0.03944 0.03600
H 	H 	0.92600 0.74878 0.10244 0.03700
H 	H 	0.92911 0.83979 0.85173 0.03800
H 	H 	0.70823 0.67801 0.04086 0.04000
C 	C 	0.87874 0.08726 0.03464 -0.05600
C 	C 	0.86769 0.11011 0.99249 0.00000
C 	C 	0.89028 0.10653 0.94696 0.00800
C 	C 	0.92128 0.07787 0.94333 -0.03700
C 	C 	0.93028 0.05292 0.98481 -0.02900
C 	C 	0.91010 0.05893 0.03115 0.02900
C 	C 	0.83025 0.13548 0.99561 0.01700
S 	S 	0.87935 0.13711 0.89411 -0.05000
H 	H 	0.93746 0.07401 0.90790 0.04600
S 	S 	0.92562 0.03310 0.08553 -0.04000
H 	H 	0.86234 0.09096 0.06997 0.05200
C 	C 	0.76316 0.09569 0.97798 -0.00900
C 	C 	0.72933 0.12159 0.97721 -0.00300
C 	C 	0.76175 0.18693 0.99405 -0.10200
C 	C 	0.82827 0.22608 0.01453 0.06000
C 	C 	0.86219 0.20022 0.01486 -0.07400
S 	S 	0.72122 0.01362 0.95594 -0.03600
H 	H 	0.67805 0.09120 0.96211 0.03400
S 	S 	0.86907 0.30680 0.04156 -0.03900
H 	H 	0.91356 0.23057 0.02958 0.05500
H 	H 	0.98496 0.08125 0.11411 0.03600
H 	H 	0.72108 0.00263 0.90426 0.03200
H 	H 	0.89239 0.34256 0.00392 0.03700
H 	H 	0.82115 0.09109 0.86287 0.03300
C 	C 	0.19781 0.05583 0.92286 -0.05700
C 	C 	0.24503 0.11092 0.95900 0.00300
C 	C 	0.22680 0.14026 0.99231 0.00800
C 	C 	0.16158 0.11102 0.99246 -0.03700
C 	C 	0.11417 0.05357 0.95858 -0.02500
C 	C 	0.13258 0.02766 0.92179 0.02100
C 	C 	0.31311 0.13564 0.96352 0.01500
S 	S 	0.28514 0.21335 0.03408 -0.03400
H 	H 	0.14775 0.13210 0.01985 0.05200
S 	S 	0.07482 0.96230 0.87259 -0.02400
H 	H 	0.21186 0.03454 0.89590 0.04900
C 	C 	0.34256 0.12431 0.00371 -0.00500
C 	C 	0.40823 0.15218 0.00972 -0.00300
C 	C 	0.44473 0.18998 0.97512 -0.09200
C 	C 	0.41393 0.19673 0.93230 0.05500
C 	C 	0.34865 0.17059 0.92735 -0.07300
S 	S 	0.29759 0.07495 0.04647 -0.03100
H 	H 	0.43124 0.14556 0.04199 0.05300
S 	S 	0.45519 0.23379 0.88292 -0.04300
H 	H 	0.32543 0.17723 0.89525 0.05500
H 	H 	0.06244 0.98357 0.83131 0.04000
H 	H 	0.27137 0.01323 0.02600 0.03900
H 	H 	0.45095 0.18976 0.84730 0.04300
H 	H 	0.30206 0.20241 0.08010 0.03900
