data_crystal

_cell_length_a 42.67512
_cell_length_b 39.91558
_cell_length_c 30.57861
_cell_angle_alpha 89.95292
_cell_angle_beta  89.94878
_cell_angle_gamma 90.54501

_symmetry_space_group_name_	'P 1'
_symmetry_space_group_name_H-M	'P 1'

loop_
_symmetry_equiv_pos_as_xyz
  x,y,z

loop_
_atom_site_label
_atom_site_type_symbol
_atom_site_fract_x
_atom_site_fract_y
_atom_site_fract_z
_atom_site_charge
Zn	Zn	0.48400 0.48724 0.00034 1.22200
C 	C 	0.49197 0.55767 0.98074 0.31900
O 	O 	0.51239 0.48237 0.05027 -0.47400
O 	O 	0.46902 0.56173 0.00891 -0.45700
O 	O 	0.51563 0.53650 0.07180 -0.49100
C 	C 	0.42166 0.50294 0.02457 0.31500
O 	O 	0.44037 0.49858 0.99102 -0.44000
O 	O 	0.43345 0.51000 0.06321 -0.50400
C 	C 	0.52928 0.50790 0.06379 0.31500
O 	O 	0.46643 0.43177 0.01112 -0.32900
Zn	Zn	0.47014 0.53927 0.06960 1.17100
O 	O 	0.50303 0.52748 0.97337 -0.43000
C 	C 	0.48346 0.42447 0.97737 0.28300
O 	O 	0.49814 0.44962 0.95966 -0.37800
Zn	Zn	0.42218 0.07466 0.03187 1.22100
C 	C 	0.44556 0.06354 0.11957 0.31100
O 	O 	0.37599 0.07397 0.03381 -0.45900
O 	O 	0.44238 0.09560 0.12784 -0.44500
O 	O 	0.37451 0.08394 0.10701 -0.49200
C 	C 	0.44902 0.14028 0.03972 0.32400
O 	O 	0.45559 0.10841 0.03511 -0.45400
O 	O 	0.42393 0.14936 0.06131 -0.51000
C 	C 	0.36069 0.07345 0.07115 0.30700
O 	O 	0.42164 0.08528 0.95546 -0.31900
Zn	Zn	0.40396 0.12124 0.10516 1.17200
O 	O 	0.43099 0.04996 0.08609 -0.43400
C 	C 	0.43037 0.05430 0.95193 0.27000
O 	O 	0.43330 0.03835 0.98847 -0.37300
C 	C 	0.53984 0.95713 0.29718 0.14500
C 	C 	0.51996 0.97816 0.27343 -0.10800
H 	H 	0.50436 0.99492 0.29062 0.07700
C 	C 	0.52039 0.97769 0.22763 0.08500
C 	C 	0.54061 0.95600 0.20554 -0.08100
C 	C 	0.56027 0.93461 0.22917 0.04400
C 	C 	0.55997 0.93534 0.27503 -0.09800
H 	H 	0.57537 0.91916 0.29346 0.07200
N 	N 	0.53997 0.95836 0.34417 -0.18100
C 	C 	0.52435 0.93401 0.36750 0.19800
C 	C 	0.52342 0.93539 0.41350 -0.07900
C 	C 	0.53833 0.96213 0.43521 0.06200
C 	C 	0.55432 0.98679 0.41086 -0.08000
C 	C 	0.55521 0.98424 0.36496 0.19800
C 	C 	0.50806 0.91031 0.43796 0.01100
C 	C 	0.50643 0.91259 0.48350 -0.05700
C 	C 	0.51915 0.94074 0.50541 0.01700
C 	C 	0.53719 0.96425 0.48133 -0.02900
C 	C 	0.55407 0.98992 0.50314 0.01700
C 	C 	0.56864 0.01393 0.43256 0.01000
C 	C 	0.56799 0.01587 0.47816 -0.05800
C 	C 	0.51540 0.94523 0.55118 0.01600
C 	C 	0.53484 0.96856 0.57331 -0.02800
C 	C 	0.55544 0.98975 0.54954 0.01700
O 	O 	0.57080 0.00678 0.34183 -0.20200
O 	O 	0.50980 0.90948 0.34671 -0.19500
H 	H 	0.57982 0.03394 0.41417 0.04400
H 	H 	0.57699 0.03832 0.49364 0.04700
H 	H 	0.49773 0.88871 0.42188 0.04500
H 	H 	0.49659 0.89170 0.50157 0.04700
C 	C 	0.57779 0.00915 0.57263 -0.05800
C 	C 	0.57690 0.01075 0.61824 0.01000
C 	C 	0.55454 0.99200 0.64186 -0.07900
C 	C 	0.53371 0.97066 0.61943 0.06100
C 	C 	0.49185 0.92803 0.57498 -0.05600
C 	C 	0.49049 0.93061 0.62051 0.01100
C 	C 	0.51181 0.95135 0.64306 -0.07800
C 	C 	0.55306 0.99376 0.68780 0.19800
N 	N 	0.53201 0.97419 0.71048 -0.18100
C 	C 	0.51142 0.95333 0.68904 0.19700
C 	C 	0.53197 0.97506 0.75749 0.14500
C 	C 	0.55520 0.95812 0.78098 -0.09900
C 	C 	0.55559 0.95948 0.82676 0.04600
C 	C 	0.53243 0.97736 0.84907 -0.08300
C 	C 	0.50883 0.99379 0.82573 0.08600
C 	C 	0.50883 0.99297 0.77991 -0.10700
O 	O 	0.57195 0.01433 0.70912 -0.20100
O 	O 	0.49149 0.93471 0.71162 -0.19100
H 	H 	0.57302 0.94426 0.76359 0.07300
H 	H 	0.49078 0.00585 0.76174 0.07900
H 	H 	0.59679 0.02172 0.55569 0.04700
H 	H 	0.59405 0.02616 0.63515 0.04500
H 	H 	0.47368 0.91392 0.55838 0.04700
H 	H 	0.47249 0.91679 0.63807 0.04700
H 	H 	0.53256 0.97819 0.88453 0.07000
H 	H 	0.54115 0.95587 0.17008 0.06800
Zn	Zn	0.65802 0.87250 0.02095 1.22100
C 	C 	0.64201 0.86707 0.11268 0.35200
O 	O 	0.70143 0.88978 0.01743 -0.45300
O 	O 	0.65577 0.83781 0.11418 -0.44400
O 	O 	0.71381 0.87462 0.08695 -0.47600
C 	C 	0.65188 0.80094 0.02172 0.32300
O 	O 	0.63621 0.82913 0.02218 -0.45500
O 	O 	0.68134 0.80073 0.03394 -0.51000
C 	C 	0.71865 0.89379 0.05270 0.30800
O 	O 	0.65516 0.86972 0.94342 -0.32000
Zn	Zn	0.69689 0.82968 0.08031 1.17300
O 	O 	0.64762 0.88773 0.08015 -0.43100
C 	C 	0.63800 0.89626 0.94717 0.31000
O 	O 	0.63303 0.90642 0.98664 -0.36800
Zn	Zn	0.09732 0.61576 0.95792 1.22400
C 	C 	0.09227 0.60403 0.05096 0.31200
O 	O 	0.09409 0.66425 0.94731 -0.46000
O 	O 	0.12194 0.61212 0.05594 -0.44700
O 	O 	0.10505 0.67844 0.01763 -0.49600
C 	C 	0.15971 0.59265 0.97143 0.32100
O 	O 	0.13034 0.58307 0.96775 -0.43700
O 	O 	0.16668 0.62408 0.97965 -0.50500
C 	C 	0.09227 0.68558 0.97982 0.31600
O 	O 	0.10406 0.60668 0.88176 -0.31000
Zn	Zn	0.14195 0.65049 0.01999 1.17000
O 	O 	0.07714 0.61325 0.01562 -0.43800
C 	C 	0.07564 0.59482 0.88349 0.31100
O 	O 	0.06238 0.59561 0.92145 -0.38300
C 	C 	0.99170 0.49947 0.22700 0.14600
C 	C 	0.97133 0.48011 0.20114 -0.09900
H 	H 	0.95309 0.46514 0.21654 0.07300
C 	C 	0.97398 0.48091 0.15544 0.04500
C 	C 	0.99730 0.50073 0.13572 -0.08300
C 	C 	0.01740 0.52045 0.16144 0.08400
C 	C 	0.01473 0.51963 0.20711 -0.10800
H 	H 	0.02995 0.53519 0.22709 0.08000
N 	N 	0.98784 0.50014 0.27367 -0.18100
C 	C 	0.00348 0.47743 0.29905 0.19800
C 	C 	0.00091 0.47857 0.34495 -0.08100
C 	C 	0.98279 0.50367 0.36448 0.06400
C 	C 	0.96556 0.52553 0.33793 -0.08100
C 	C 	0.96862 0.52356 0.29216 0.19900
C 	C 	0.01520 0.45432 0.37132 0.01200
C 	C 	0.01251 0.45582 0.41676 -0.05900
C 	C 	0.99773 0.48333 0.43708 0.01800
C 	C 	0.98124 0.50635 0.41063 -0.02900
C 	C 	0.96215 0.53113 0.42993 0.01700
C 	C 	0.94475 0.54815 0.35731 0.01100
C 	C 	0.94210 0.54996 0.40272 -0.05800
C 	C 	0.99783 0.48745 0.48333 0.01700
C 	C 	0.97894 0.51245 0.50261 -0.02800
C 	C 	0.96242 0.53542 0.47611 0.01600
O 	O 	0.95319 0.54454 0.26695 -0.20200
O 	O 	0.02125 0.45467 0.28040 -0.19400
H 	H 	0.92979 0.56364 0.33726 0.04400
H 	H 	0.92334 0.56466 0.41632 0.04700
H 	H 	0.02753 0.43354 0.35668 0.04500
H 	H 	0.02045 0.43466 0.43562 0.04800
C 	C 	0.94796 0.56318 0.49626 -0.05700
C 	C 	0.94574 0.56514 0.54170 0.01100
C 	C 	0.96010 0.54103 0.56819 -0.08000
C 	C 	0.97768 0.51545 0.54875 0.06200
C 	C 	0.01763 0.46835 0.51061 -0.05700
C 	C 	0.01507 0.47035 0.55602 0.01000
C 	C 	0.99475 0.49348 0.57536 -0.07800
C 	C 	0.95821 0.54286 0.61411 0.19800
N 	N 	0.97391 0.52027 0.63961 -0.18000
C 	C 	0.99217 0.49597 0.62116 0.19900
C 	C 	0.97147 0.52233 0.68641 0.13500
C 	C 	0.99419 0.54006 0.71038 -0.09300
C 	C 	0.99199 0.54181 0.75605 0.03500
C 	C 	0.96692 0.52599 0.77769 -0.07000
C 	C 	0.94432 0.50803 0.75386 0.03400
C 	C 	0.94659 0.50626 0.70818 -0.09400
O 	O 	0.94122 0.56632 0.63270 -0.20100
O 	O 	0.00723 0.47473 0.64643 -0.19900
H 	H 	0.01353 0.55223 0.69351 0.07000
H 	H 	0.92931 0.49218 0.68963 0.07000
H 	H 	0.93989 0.58418 0.47719 0.04600
H 	H 	0.93371 0.58618 0.55621 0.04400
H 	H 	0.03617 0.45332 0.49708 0.04700
H 	H 	0.02986 0.45468 0.57610 0.04600
H 	H 	0.96543 0.52697 0.81308 0.05900
H 	H 	0.99900 0.50185 0.10035 0.06600
Zn	Zn	0.85815 0.42033 0.95508 1.22400
C 	C 	0.85731 0.43693 0.86378 0.34500
O 	O 	0.81643 0.42565 0.98121 -0.44800
O 	O 	0.84341 0.40845 0.85369 -0.43100
O 	O 	0.79104 0.42418 0.91607 -0.48600
C 	C 	0.87094 0.35471 0.92330 0.32900
O 	O 	0.88231 0.38516 0.92779 -0.44500
O 	O 	0.84061 0.34992 0.91865 -0.50000
C 	C 	0.79149 0.43200 0.95769 0.30700
O 	O 	0.87701 0.39992 0.02283 -0.32500
Zn	Zn	0.81288 0.38450 0.89592 1.17200
O 	O 	0.85460 0.44929 0.90342 -0.43800
C 	C 	0.89055 0.42905 0.02590 0.30400
O 	O 	0.88619 0.44926 0.99346 -0.36600
Zn	Zn	0.01472 0.04254 0.03870 1.22000
C 	C 	0.02578 0.97138 0.03978 0.31900
O 	O 	0.98073 0.04855 0.08129 -0.46900
O 	O 	0.04453 0.97711 0.07311 -0.45100
O 	O 	0.98867 0.00121 0.12065 -0.49400
C 	C 	0.07739 0.04705 0.07115 0.32500
O 	O 	0.06029 0.04190 0.03615 -0.45300
O 	O 	0.06463 0.04455 0.11008 -0.50900
C 	C 	0.96949 0.02308 0.10362 0.31500
O 	O 	0.01867 0.10113 0.03047 -0.33100
Zn	Zn	0.03343 0.00999 0.12263 1.17000
O 	O 	0.00744 0.99507 0.02482 -0.43900
C 	C 	0.00438 0.09646 0.99349 0.27800
O 	O 	0.99744 0.06556 0.98440 -0.38000
C 	C 	0.00060 0.21682 0.96078 -0.04600
C 	C 	0.98735 0.18476 0.95737 0.01900
C 	C 	0.95785 0.18030 0.93694 0.00400
C 	C 	0.93919 0.20904 0.92782 0.00500
C 	C 	0.98365 0.24478 0.94807 -0.02900
C 	C 	0.95179 0.24153 0.93637 -0.00100
C 	C 	0.00341 0.15696 0.97384 -0.02400
C 	C 	0.99074 0.12465 0.96909 -0.05800
C 	C 	0.94788 0.14736 0.92648 -0.04700
C 	C 	0.90796 0.20605 0.91274 -0.03600
C 	C 	0.90196 0.26639 0.91421 0.00700
C 	C 	0.93211 0.27005 0.93294 0.01400
C 	C 	0.94083 0.30138 0.95101 -0.05300
C 	C 	0.92123 0.32897 0.94671 0.01900
C 	C 	0.89213 0.32573 0.92581 -0.07800
C 	C 	0.88267 0.29447 0.90927 -0.00600
C 	C 	0.96379 0.11983 0.94355 0.00100
H 	H 	0.95492 0.09479 0.93723 0.04600
H 	H 	0.92902 0.14279 0.90372 0.04400
H 	H 	0.02534 0.16053 0.99122 0.05100
H 	H 	0.02435 0.22008 0.97270 0.04500
H 	H 	0.99559 0.26876 0.94647 0.04200
H 	H 	0.89655 0.18196 0.90963 0.04000
H 	H 	0.96168 0.30409 0.97075 0.04900
H 	H 	0.92826 0.35267 0.96110 0.04700
H 	H 	0.85999 0.29177 0.89360 0.03800
C 	C 	0.89047 0.23450 0.90353 -0.03800
H 	H 	0.86699 0.23151 0.89052 0.03900
C 	C 	0.91969 0.48905 0.77713 0.04500
C 	C 	0.89497 0.50598 0.79734 -0.08000
C 	C 	0.87392 0.48857 0.82428 0.04700
C 	C 	0.87747 0.45407 0.83146 -0.13600
C 	C 	0.90199 0.43687 0.81026 0.16300
C 	C 	0.92268 0.45441 0.78286 -0.11100
H 	H 	0.85522 0.50203 0.84031 0.03200
H 	H 	0.94189 0.44133 0.76742 0.08400
H 	H 	0.89252 0.53277 0.79302 0.05700
Br	Br	0.90936 0.39015 0.82096 -0.24100
C 	C 	0.95055 0.46366 0.12798 0.04000
C 	C 	0.95942 0.43648 0.10189 -0.07400
C 	C 	0.93894 0.42391 0.07011 0.03900
C 	C 	0.90958 0.43862 0.06390 -0.11800
C 	C 	0.89991 0.46462 0.09181 0.15800
C 	C 	0.92042 0.47700 0.12375 -0.10600
H 	H 	0.94642 0.40364 0.04909 0.02900
H 	H 	0.91335 0.49776 0.14424 0.08100
H 	H 	0.98259 0.42590 0.10518 0.05900
Br	Br	0.85883 0.48344 0.08676 -0.23800
C 	C 	0.02551 0.77767 0.02896 -0.04200
C 	C 	0.04815 0.76521 0.00030 0.00000
C 	C 	0.06280 0.78685 0.96974 0.01400
C 	C 	0.05829 0.82194 0.97324 0.00500
C 	C 	0.01779 0.81154 0.02834 -0.03600
C 	C 	0.03366 0.83406 0.00009 -0.00700
C 	C 	0.05692 0.73146 0.00244 -0.01600
C 	C 	0.07882 0.71881 0.97273 -0.08100
C 	C 	0.08157 0.77285 0.93653 -0.05700
C 	C 	0.08038 0.84494 0.95577 -0.03600
C 	C 	0.05213 0.89142 0.98748 0.01000
C 	C 	0.02861 0.86911 0.00266 0.00600
C 	C 	0.00079 0.88242 0.02027 -0.06100
C 	C 	0.99904 0.91658 0.02979 0.01400
C 	C 	0.02445 0.93788 0.02052 -0.09200
C 	C 	0.05032 0.92565 0.99754 -0.00100
C 	C 	0.08988 0.73911 0.93852 0.00700
H 	H 	0.10560 0.72899 0.91414 0.03200
H 	H 	0.08907 0.78768 0.90872 0.04500
H 	H 	0.04725 0.71525 0.02767 0.04100
H 	H 	0.01399 0.76113 0.05221 0.03900
H 	H 	0.00124 0.82053 0.05231 0.03600
H 	H 	0.10111 0.83627 0.93904 0.03800
H 	H 	0.98039 0.86666 0.02574 0.04500
H 	H 	0.97830 0.92630 0.04565 0.03100
H 	H 	0.06942 0.94252 0.98879 0.04000
C 	C 	0.07758 0.87919 0.96365 -0.04000
H 	H 	0.09553 0.89623 0.95159 0.04100
C 	C 	0.01638 0.55929 0.78156 0.04200
C 	C 	0.00914 0.58891 0.80376 -0.07700
C 	C 	0.02986 0.60198 0.83482 0.04200
C 	C 	0.05800 0.58553 0.84404 -0.11900
C 	C 	0.06638 0.55715 0.81941 0.15700
C 	C 	0.04553 0.54417 0.78822 -0.10600
H 	H 	0.02339 0.62408 0.85317 0.03300
H 	H 	0.05137 0.52150 0.77066 0.08300
H 	H 	0.98684 0.60097 0.79835 0.05700
Br	Br	0.10511 0.53444 0.83000 -0.23200
C 	C 	0.07554 0.58559 0.08551 -0.06400
C 	C 	0.04548 0.59562 0.09819 -0.00400
C 	C 	0.02735 0.57526 0.12558 -0.02800
C 	C 	0.03894 0.54448 0.14023 -0.04100
C 	C 	0.06982 0.53525 0.12968 0.10200
C 	C 	0.08808 0.55595 0.10255 -0.04100
H 	H 	0.00374 0.58270 0.13393 0.04400
H 	H 	0.11144 0.54827 0.09322 0.06600
H 	H 	0.03582 0.61876 0.08576 0.04200
Br	Br	0.08693 0.49393 0.15059 -0.23700
C 	C 	0.86975 0.01009 0.02573 -0.04600
C 	C 	0.88634 0.00958 0.06531 0.00800
C 	C 	0.87212 0.99591 0.10329 0.01000
C 	C 	0.84076 0.98377 0.10089 -0.00200
C 	C 	0.84038 0.99459 0.02252 -0.04100
C 	C 	0.82676 0.97891 0.05936 0.00300
C 	C 	0.91756 0.02096 0.06675 -0.01000
C 	C 	0.93549 0.01662 0.10472 -0.08600
C 	C 	0.89043 0.99173 0.14135 -0.05700
C 	C 	0.82257 0.97831 0.13878 -0.03300
C 	C 	0.78157 0.95240 0.09509 0.01300
C 	C 	0.79840 0.96004 0.05633 0.00700
C 	C 	0.78816 0.94603 0.01631 -0.05600
C 	C 	0.76115 0.92595 0.01486 0.00000
C 	C 	0.74443 0.91867 0.05326 -0.07200
C 	C 	0.75419 0.93273 0.09306 -0.01700
C 	C 	0.92170 0.00235 0.14202 0.01100
H 	H 	0.93555 0.99845 0.17124 0.02600
H 	H 	0.88127 0.97839 0.16944 0.04300
H 	H 	0.92843 0.03138 0.03759 0.03900
H 	H 	0.87999 0.02180 0.99701 0.04800
H 	H 	0.82771 0.99636 0.99201 0.04800
H 	H 	0.83046 0.98722 0.17034 0.03900
H 	H 	0.80201 0.94869 0.98689 0.05100
H 	H 	0.75409 0.91476 0.98410 0.05000
H 	H 	0.74116 0.92727 0.12274 0.06300
C 	C 	0.79312 0.96306 0.13572 -0.04300
H 	H 	0.77961 0.95868 0.16525 0.04700
C 	C 	0.58040 0.94247 0.85151 0.04100
C 	C 	0.57928 0.90761 0.85711 -0.07200
C 	C 	0.59997 0.89205 0.88600 0.04000
C 	C 	0.62179 0.91127 0.90969 -0.11700
C 	C 	0.62444 0.94595 0.90160 0.15900
C 	C 	0.60365 0.96141 0.87272 -0.10500
H 	H 	0.59793 0.86531 0.89167 0.03300
H 	H 	0.60507 0.98825 0.86762 0.08100
H 	H 	0.56159 0.89276 0.84043 0.06000
Br	Br	0.65639 0.97249 0.92952 -0.22800
C 	C 	0.58201 0.91245 0.20570 0.04500
C 	C 	0.57028 0.88755 0.17763 -0.07900
C 	C 	0.59053 0.87048 0.14966 0.04800
C 	C 	0.62264 0.87823 0.14942 -0.13900
C 	C 	0.63476 0.90140 0.17991 0.16700
C 	C 	0.61441 0.91842 0.20790 -0.11100
H 	H 	0.58103 0.85250 0.12656 0.02600
H 	H 	0.62364 0.93721 0.23010 0.08100
H 	H 	0.54532 0.88241 0.17624 0.06300
Br	Br	0.67889 0.91089 0.18271 -0.25700
C 	C 	0.25583 0.07158 0.00456 -0.04900
C 	C 	0.27553 0.06285 0.03933 0.00900
C 	C 	0.26257 0.04921 0.07818 0.00700
C 	C 	0.22973 0.04316 0.08059 0.00100
C 	C 	0.22334 0.06902 0.00896 -0.04100
C 	C 	0.20991 0.05700 0.04821 -0.00000
C 	C 	0.30797 0.06880 0.03628 -0.01700
C 	C 	0.32741 0.06314 0.07248 -0.08500
C 	C 	0.28228 0.04432 0.11466 -0.05600
C 	C 	0.21664 0.02161 0.11249 -0.03800
C 	C 	0.16422 0.03539 0.08814 0.00200
C 	C 	0.17687 0.05585 0.05449 0.01000
C 	C 	0.15641 0.07604 0.02973 -0.05800
C 	C 	0.12398 0.07311 0.03527 0.01600
C 	C 	0.11150 0.05139 0.06694 -0.09000
C 	C 	0.13163 0.03294 0.09373 -0.00700
C 	C 	0.31444 0.05058 0.11140 0.00700
H 	H 	0.32918 0.04658 0.13972 0.03700
H 	H 	0.27269 0.03761 0.14625 0.04200
H 	H 	0.31783 0.07920 0.00645 0.04200
H 	H 	0.26569 0.08092 0.97418 0.04700
H 	H 	0.20888 0.07462 0.98092 0.04600
H 	H 	0.23143 0.00634 0.13295 0.03800
H 	H 	0.16543 0.09502 0.00770 0.04300
H 	H 	0.10855 0.08825 0.01545 0.03500
H 	H 	0.12193 0.01642 0.11860 0.02100
C 	C 	0.18424 0.01777 0.11601 -0.04000
H 	H 	0.17465 0.00113 0.14077 0.03400
C 	C 	0.44451 0.04133 0.91156 -0.04000
C 	C 	0.46697 0.06058 0.88899 -0.01400
C 	C 	0.48656 0.04545 0.85824 -0.02100
C 	C 	0.48367 0.01104 0.84959 -0.04400
C 	C 	0.45912 0.99249 0.86903 0.11000
C 	C 	0.43975 0.00765 0.90006 -0.04900
H 	H 	0.50507 0.06005 0.84289 0.04300
H 	H 	0.42190 0.99287 0.91661 0.07400
H 	H 	0.47063 0.08672 0.89727 0.04700
Br	Br	0.45251 0.94613 0.85481 -0.23000
C 	C 	0.46348 0.04219 0.14970 -0.06100
C 	C 	0.49045 0.05476 0.17042 -0.00800
C 	C 	0.50855 0.03381 0.19671 -0.02700
C 	C 	0.49982 0.00013 0.20265 -0.04300
C 	C 	0.47221 0.98774 0.18305 0.10500
C 	C 	0.45423 0.00874 0.15660 -0.04400
H 	H 	0.52969 0.04357 0.21185 0.04400
H 	H 	0.43308 0.99903 0.14142 0.07400
H 	H 	0.49781 0.08053 0.16537 0.04200
Br	Br	0.45859 0.94230 0.19235 -0.23900
C 	C 	0.45782 0.31031 0.93020 -0.04600
C 	C 	0.47776 0.33280 0.95186 0.01600
C 	C 	0.50177 0.32059 0.97919 0.00000
C 	C 	0.50163 0.28615 0.99120 0.01600
C 	C 	0.46039 0.27589 0.93716 -0.02800
C 	C 	0.48214 0.26327 0.96778 -0.01000
C 	C 	0.47320 0.36751 0.94807 -0.01900
C 	C 	0.49335 0.38991 0.96968 -0.06300
C 	C 	0.52470 0.34330 0.99482 -0.04200
C 	C 	0.51657 0.27526 0.02991 -0.05100
C 	C 	0.49378 0.21975 0.02159 -0.01100
C 	C 	0.48138 0.22899 0.98056 0.02600
C 	C 	0.46743 0.20395 0.95424 -0.06400
C 	C 	0.45993 0.17267 0.97228 0.02400
C 	C 	0.46722 0.16578 0.01604 -0.09700
C 	C 	0.48617 0.18828 0.03952 -0.00100
C 	C 	0.52011 0.37780 0.99076 0.01000
H 	H 	0.53667 0.39510 0.00561 0.03100
H 	H 	0.54619 0.33445 0.00938 0.03600
H 	H 	0.45320 0.37699 0.93018 0.04200
H 	H 	0.43980 0.31951 0.90843 0.04300
H 	H 	0.44360 0.25946 0.92139 0.03800
H 	H 	0.52948 0.29267 0.05027 0.04100
H 	H 	0.46263 0.20842 0.92000 0.04800
H 	H 	0.44689 0.15454 0.95303 0.03500
H 	H 	0.49312 0.18225 0.07271 0.03000
C 	C 	0.51206 0.24264 0.04527 -0.03200
H 	H 	0.52224 0.23544 0.07630 0.03600
C 	C 	0.24241 0.53514 0.05088 -0.04200
C 	C 	0.22812 0.54342 0.01124 0.00300
C 	C 	0.24403 0.53797 0.97135 0.01500
C 	C 	0.27626 0.52914 0.97216 0.00600
C 	C 	0.27283 0.52279 0.05161 -0.03500
C 	C 	0.29003 0.51907 0.01239 -0.00600
C 	C 	0.19861 0.55865 0.01104 -0.01900
C 	C 	0.18471 0.56782 0.97139 -0.07300
C 	C 	0.22749 0.54223 0.93175 -0.05200
C 	C 	0.29577 0.53459 0.93538 -0.03500
C 	C 	0.34136 0.51729 0.97667 0.01100
C 	C 	0.32213 0.50978 0.01312 0.00400
C 	C 	0.33550 0.49340 0.04944 -0.05800
C 	C 	0.36800 0.49028 0.05258 0.01000
C 	C 	0.38743 0.50167 0.01857 -0.09200
C 	C 	0.37399 0.51363 0.97979 -0.00500
C 	C 	0.19832 0.55792 0.93185 0.01400
H 	H 	0.18681 0.56334 0.90111 0.04500
H 	H 	0.23674 0.53296 0.90117 0.04900
H 	H 	0.18729 0.56507 0.04167 0.03200
H 	H 	0.23016 0.53902 0.08151 0.04000
H 	H 	0.28371 0.51872 0.08304 0.03600
H 	H 	0.28662 0.54549 0.90573 0.04100
H 	H 	0.32091 0.48214 0.07449 0.04300
H 	H 	0.37808 0.47896 0.08148 0.03200
H 	H 	0.38893 0.52120 0.95274 0.04600
C 	C 	0.32795 0.52915 0.93798 -0.04100
H 	H 	0.34258 0.53471 0.90985 0.04200
C 	C 	0.69770 0.50276 0.96568 -0.05000
C 	C 	0.71511 0.47564 0.98119 0.02300
C 	C 	0.70360 0.45623 0.01652 -0.00700
C 	C 	0.67262 0.46144 0.03182 0.00900
C 	C 	0.66909 0.51085 0.98501 -0.02000
C 	C 	0.65661 0.49091 0.01916 -0.01300
C 	C 	0.74400 0.46769 0.96187 -0.01900
C 	C 	0.76239 0.44210 0.97954 -0.07100
C 	C 	0.72362 0.43284 0.03652 -0.04600
C 	C 	0.65609 0.43607 0.05468 -0.04100
C 	C 	0.61002 0.47108 0.05838 0.00200
C 	C 	0.62651 0.49729 0.03703 0.01500
C 	C 	0.61277 0.52927 0.03486 -0.06100
C 	C 	0.58147 0.53345 0.04707 0.01100
C 	C 	0.56371 0.50600 0.06215 -0.09000
C 	C 	0.57848 0.47533 0.06993 -0.01000
C 	C 	0.75260 0.42559 0.01774 -0.00500
H 	H 	0.76732 0.40679 0.03264 0.03700
H 	H 	0.71737 0.42115 0.06729 0.04300
H 	H 	0.75222 0.48145 0.93340 0.04500
H 	H 	0.70637 0.51773 0.93858 0.04400
H 	H 	0.65575 0.53118 0.97119 0.03600
H 	H 	0.66644 0.41180 0.06013 0.03800
H 	H 	0.62636 0.55100 0.02495 0.04100
H 	H 	0.57079 0.55781 0.04357 0.03200
H 	H 	0.56518 0.45455 0.08371 0.04000
C 	C 	0.62497 0.44074 0.06705 -0.03800
H 	H 	0.61239 0.42052 0.08325 0.03700
C 	C 	0.59139 0.61716 0.96457 -0.04200
C 	C 	0.55875 0.61736 0.95945 0.00700
C 	C 	0.54277 0.64825 0.95620 0.00700
C 	C 	0.56033 0.67871 0.95834 0.00300
C 	C 	0.60787 0.64704 0.97146 -0.03300
C 	C 	0.59194 0.67782 0.97224 -0.00400
C 	C 	0.54170 0.58711 0.96101 -0.01300
C 	C 	0.50891 0.58743 0.96402 -0.08300
C 	C 	0.50966 0.64802 0.95595 -0.05500
C 	C 	0.54758 0.70960 0.94512 -0.03800
C 	C 	0.59337 0.73914 0.97318 -0.00000
C 	C 	0.60730 0.70819 0.98420 0.02300
C 	C 	0.63463 0.70828 0.01014 -0.07100
C 	C 	0.64909 0.73847 0.02179 0.01800
C 	C 	0.63626 0.76919 0.00888 -0.09700
C 	C 	0.60837 0.76945 0.98451 0.00400
C 	C 	0.49302 0.61780 0.95930 0.00800
H 	H 	0.46766 0.61823 0.96088 0.03500
H 	H 	0.49667 0.67112 0.95660 0.04400
H 	H 	0.55402 0.56355 0.96357 0.04600
H 	H 	0.60393 0.59367 0.96486 0.03900
H 	H 	0.63312 0.64623 0.97431 0.03900
H 	H 	0.52572 0.71051 0.92735 0.04100
H 	H 	0.64380 0.68524 0.02337 0.04300
H 	H 	0.66996 0.73795 0.04193 0.02200
H 	H 	0.59815 0.79312 0.97487 0.04700
C 	C 	0.56416 0.73946 0.95219 -0.03500
H 	H 	0.55394 0.76298 0.94204 0.04300
