data_crystal

_cell_length_a 29.88954
_cell_length_b 26.91767
_cell_length_c 31.15842
_cell_angle_alpha 103.71494
_cell_angle_beta  115.78201
_cell_angle_gamma 112.16221

_symmetry_space_group_name_	'P 1'
_symmetry_space_group_name_H-M	'P 1'

loop_
_symmetry_equiv_pos_as_xyz
  x,y,z

loop_
_atom_site_label
_atom_site_type_symbol
_atom_site_fract_x
_atom_site_fract_y
_atom_site_fract_z
_atom_site_charge
C 	C 	0.70662 0.38947 0.05671 0.03100
C 	C 	0.72419 0.34841 0.06230 -0.02600
C 	C 	0.77491 0.35783 0.06469 0.03100
C 	C 	0.80570 0.40650 0.05810 -0.02400
C 	C 	0.78307 0.44176 0.04462 0.02900
C 	C 	0.73330 0.43283 0.04367 -0.02500
C 	C 	0.67681 0.39448 0.08097 -0.05600
S 	S 	0.70390 0.32090 0.09773 0.01000
C 	C 	0.78501 0.31052 0.05261 -0.05800
S 	S 	0.84269 0.38957 0.03660 0.00800
C 	C 	0.81756 0.49986 0.05105 -0.05700
S 	S 	0.73364 0.49644 0.05220 0.01300
C 	C 	0.67230 0.35837 0.10657 0.00800
H 	H 	0.65720 0.42123 0.07799 0.06400
C 	C 	0.82390 0.32297 0.03718 0.00500
H 	H 	0.75827 0.26583 0.04715 0.05700
C 	C 	0.79512 0.53652 0.05604 0.00100
H 	H 	0.85676 0.51424 0.05125 0.05600
C 	C 	0.83298 0.66198 0.99651 0.04500
C 	C 	0.86884 0.68162 0.05232 -0.04000
C 	C 	0.85410 0.64170 0.07256 -0.03300
C 	C 	0.80328 0.58207 0.03719 0.01600
C 	C 	0.76556 0.56368 0.98187 -0.03100
C 	C 	0.78048 0.60348 0.96159 -0.03500
H 	H 	0.90923 0.72698 0.07961 0.05500
H 	H 	0.88343 0.65627 0.11531 0.04400
H 	H 	0.72629 0.51759 0.95420 0.05000
H 	H 	0.75242 0.58810 0.91847 0.06300
C 	C 	0.52695 0.29156 0.11919 0.04400
C 	C 	0.58424 0.33899 0.16536 -0.02900
C 	C 	0.63220 0.35967 0.16159 -0.02600
C 	C 	0.62311 0.33317 0.11164 0.01800
C 	C 	0.56610 0.28486 0.06579 -0.02900
C 	C 	0.51822 0.26410 0.06956 -0.03800
H 	H 	0.59132 0.36082 0.20364 0.06400
H 	H 	0.67618 0.39688 0.19722 0.06800
H 	H 	0.55875 0.26417 0.02704 0.05000
H 	H 	0.47413 0.22740 0.03373 0.06300
C 	C 	0.85594 0.20035 0.95997 0.04800
C 	C 	0.83619 0.23193 0.93512 -0.04100
C 	C 	0.82228 0.26939 0.95853 -0.02800
C 	C 	0.82882 0.27615 0.00746 0.01400
C 	C 	0.84488 0.24143 0.03029 -0.02600
C 	C 	0.85846 0.20375 0.00669 -0.03600
H 	H 	0.83348 0.22899 0.89869 0.05700
H 	H 	0.80769 0.29411 0.93929 0.04800
H 	H 	0.84928 0.24562 0.06759 0.05400
H 	H 	0.87334 0.17915 0.02596 0.07400
C 	C 	0.44175 0.17169 0.23963 0.04400
C 	C 	0.44933 0.12271 0.23713 -0.01600
C 	C 	0.50159 0.12905 0.24531 0.03200
C 	C 	0.54270 0.18123 0.24974 -0.02300
C 	C 	0.53117 0.22581 0.24350 0.03000
C 	C 	0.48130 0.22180 0.24017 -0.01800
C 	C 	0.40488 0.17267 0.25667 -0.05200
S 	S 	0.41263 0.08361 0.25754 0.03800
C 	C 	0.50933 0.07993 0.23342 -0.05700
S 	S 	0.58580 0.16581 0.23705 0.00500
C 	C 	0.57639 0.28619 0.26256 -0.05900
S 	S 	0.49521 0.29232 0.26348 0.01300
C 	C 	0.38361 0.12404 0.26688 0.00900
H 	H 	0.39967 0.21050 0.26698 0.05700
C 	C 	0.55587 0.09401 0.22734 0.00100
H 	H 	0.48109 0.03563 0.22763 0.05800
C 	C 	0.56177 0.32875 0.27468 0.00300
H 	H 	0.62006 0.29902 0.27268 0.05300
C 	C 	0.68823 0.51947 0.34606 0.04200
C 	C 	0.70620 0.48377 0.36559 -0.03800
C 	C 	0.66421 0.42235 0.34525 -0.03100
C 	C 	0.60390 0.39587 0.30461 0.01500
C 	C 	0.58549 0.43279 0.28790 -0.02800
C 	C 	0.62749 0.49438 0.30861 -0.02800
H 	H 	0.75287 0.50303 0.39519 0.05700
H 	H 	0.67879 0.39493 0.35993 0.04700
H 	H 	0.53911 0.41309 0.25691 0.06200
H 	H 	0.61312 0.52190 0.29387 0.06800
C 	C 	0.30561 0.11005 0.35431 0.04600
C 	C 	0.28070 0.11713 0.30810 -0.03300
C 	C 	0.30712 0.12329 0.28041 -0.02700
C 	C 	0.35854 0.12215 0.29858 0.01900
C 	C 	0.38431 0.11665 0.34570 -0.02700
C 	C 	0.35778 0.11038 0.37329 -0.03700
H 	H 	0.24057 0.11722 0.29336 0.05700
H 	H 	0.28694 0.12765 0.24422 0.04600
H 	H 	0.42470 0.11702 0.36085 0.04900
H 	H 	0.37747 0.10529 0.40912 0.05900
C 	C 	0.67153 0.03020 0.26850 0.05000
C 	C 	0.63795 0.02488 0.28953 -0.04200
C 	C 	0.59701 0.04186 0.27349 -0.02400
C 	C 	0.58922 0.06416 0.23605 0.01000
C 	C 	0.61928 0.06453 0.21170 -0.03100
C 	C 	0.66052 0.04794 0.22809 -0.04300
H 	H 	0.64578 0.01059 0.32033 0.08100
H 	H 	0.57380 0.04069 0.29231 0.05200
H 	H 	0.61229 0.07980 0.18153 0.04200
H 	H 	0.68570 0.05136 0.21109 0.05600
C 	C 	0.55636 0.81878 0.06317 0.03700
C 	C 	0.55541 0.87108 0.08141 -0.02200
C 	C 	0.52749 0.87462 0.10742 0.04500
C 	C 	0.49752 0.82368 0.11221 -0.00900
C 	C 	0.49084 0.76831 0.08656 0.03500
C 	C 	0.52055 0.76631 0.06245 -0.02000
C 	C 	0.60590 0.83066 0.06153 -0.05500
S 	S 	0.61582 0.93041 0.09643 0.01900
C 	C 	0.50654 0.91387 0.10959 -0.05600
S 	S 	0.44636 0.82815 0.11801 0.01800
C 	C 	0.47243 0.71887 0.09739 -0.05000
S 	S 	0.52558 0.70588 0.05644 0.01300
C 	C 	0.64423 0.89273 0.07969 0.00700
H 	H 	0.61227 0.79538 0.04590 0.05600
C 	C 	0.46041 0.89383 0.11628 0.00600
H 	H 	0.51701 0.94835 0.09703 0.05200
C 	C 	0.48875 0.67890 0.08221 0.00700
H 	H 	0.44707 0.71170 0.11427 0.06200
C 	C 	0.37597 0.49083 0.03278 0.05000
C 	C 	0.37374 0.50893 0.99363 -0.04300
C 	C 	0.41233 0.56997 0.00974 -0.02000
C 	C 	0.45370 0.61334 0.06522 0.01400
C 	C 	0.45713 0.59474 0.10436 -0.02500
C 	C 	0.41858 0.53366 0.08821 -0.03400
H 	H 	0.34098 0.47613 0.95075 0.06000
H 	H 	0.40869 0.58390 0.97911 0.04600
H 	H 	0.48871 0.62786 0.14724 0.05300
H 	H 	0.42071 0.51997 0.11871 0.06400
C 	C 	0.75103 0.94592 0.02177 0.05300
C 	C 	0.77036 0.93327 0.06524 -0.03800
C 	C 	0.73595 0.91708 0.08484 -0.02500
C 	C 	0.68214 0.91369 0.06134 0.01100
C 	C 	0.66341 0.92761 0.01860 -0.02000
C 	C 	0.69776 0.94366 0.99891 -0.04600
H 	H 	0.81137 0.93475 0.08302 0.05400
H 	H 	0.75074 0.90640 0.11781 0.04300
H 	H 	0.62163 0.92459 0.99983 0.04500
H 	H 	0.68235 0.95300 0.96514 0.06500
C 	C 	0.33019 0.93984 0.06005 0.04700
C 	C 	0.38997 0.98342 0.08428 -0.03700
C 	C 	0.43231 0.96855 0.10287 -0.02700
C 	C 	0.41558 0.91024 0.09848 0.01200
C 	C 	0.35580 0.86746 0.07603 -0.02700
C 	C 	0.31341 0.88211 0.05655 -0.03400
H 	H 	0.40338 0.02830 0.08744 0.06600
H 	H 	0.47786 0.00205 0.11982 0.04000
H 	H 	0.34164 0.82234 0.07228 0.05200
H 	H 	0.26724 0.84810 0.03767 0.06700
C 	C 	0.41497 0.73026 0.47004 0.03100
C 	C 	0.41288 0.78172 0.48821 -0.02600
C 	C 	0.40791 0.79736 0.53143 0.03200
C 	C 	0.39894 0.75708 0.55304 -0.02400
C 	C 	0.39701 0.70317 0.53263 0.03300
C 	C 	0.40987 0.69264 0.49421 -0.02500
C 	C 	0.44257 0.73402 0.44262 -0.05700
S 	S 	0.44669 0.83122 0.47248 0.01400
C 	C 	0.38413 0.83302 0.53784 -0.05700
S 	S 	0.35910 0.76381 0.57551 0.01400
C 	C 	0.36581 0.64941 0.53412 -0.05700
S 	S 	0.38077 0.61788 0.46196 0.01300
C 	C 	0.46149 0.78844 0.43944 0.00300
H 	H 	0.45660 0.70366 0.43366 0.05600
C 	C 	0.35448 0.81882 0.56215 0.00400
H 	H 	0.37846 0.85870 0.51612 0.05600
C 	C 	0.35455 0.59736 0.49686 0.00600
H 	H 	0.34645 0.64745 0.55656 0.05500
C 	C 	0.23121 0.41277 0.44870 0.04300
C 	C 	0.23101 0.42904 0.40911 -0.03600
C 	C 	0.27048 0.48945 0.42448 -0.02800
C 	C 	0.31085 0.53395 0.47974 0.01700
C 	C 	0.30982 0.51770 0.51908 -0.02700
C 	C 	0.26983 0.45759 0.50357 -0.03100
H 	H 	0.20101 0.39473 0.36659 0.05600
H 	H 	0.26958 0.50151 0.39347 0.04900
H 	H 	0.34075 0.55144 0.56179 0.05100
H 	H 	0.27002 0.44537 0.53435 0.06100
C 	C 	0.60263 0.85350 0.42105 0.04600
C 	C 	0.54420 0.80826 0.37551 -0.03700
C 	C 	0.49769 0.78860 0.38127 -0.03000
C 	C 	0.50922 0.81430 0.43252 0.01600
C 	C 	0.56729 0.86152 0.47765 -0.03000
C 	C 	0.61382 0.88108 0.47189 -0.03700
H 	H 	0.53523 0.78669 0.33612 0.06000
H 	H 	0.45295 0.75228 0.34619 0.05000
H 	H 	0.57672 0.88147 0.51748 0.04900
H 	H 	0.65887 0.91591 0.50728 0.05700
C 	C 	0.20767 0.83782 0.51968 0.04600
C 	C 	0.21100 0.80753 0.47891 -0.03100
C 	C 	0.25759 0.79903 0.49265 -0.02900
C 	C 	0.30227 0.82220 0.54743 0.01600
C 	C 	0.29757 0.84988 0.58807 -0.02800
C 	C 	0.25032 0.85760 0.57424 -0.04000
H 	H 	0.17852 0.79238 0.43672 0.06800
H 	H 	0.25984 0.77583 0.46082 0.05000
H 	H 	0.33127 0.86684 0.63039 0.05000
H 	H 	0.24799 0.88080 0.60599 0.05700
Zn	Zn	0.18996 0.18250 0.03987 1.19500
Zn	Zn	0.11172 0.11624 0.90825 1.19900
O 	O 	0.09089 0.00998 0.81410 -0.46700
O 	O 	0.08523 0.09430 0.82995 -0.41600
O 	O 	0.10534 0.94597 0.89807 -0.46900
C 	C 	0.29603 0.18611 0.06896 0.32200
O 	O 	0.04973 0.03303 0.88377 -0.87600
C 	C 	0.20883 0.25112 0.98196 0.34100
O 	O 	0.27369 0.21055 0.08801 -0.44900
O 	O 	0.26069 0.13876 0.02009 -0.26000
O 	O 	0.11661 0.12436 0.97749 -0.76600
O 	O 	0.14840 0.02816 0.97764 -0.43400
O 	O 	0.18114 0.19981 0.93718 -0.42400
O 	O 	0.20309 0.25068 0.02151 -0.43500
Zn	Zn	0.93640 0.92074 0.89106 1.18200
Zn	Zn	0.03970 0.95611 0.99875 1.19700
Zn	Zn	0.06619 0.03899 0.95237 1.21800
C 	C 	0.93474 0.83181 0.93486 0.34500
C 	C 	0.89871 0.96367 0.94939 0.33700
O 	O 	0.98666 0.05737 0.93088 -0.44700
Zn	Zn	0.03951 0.06617 0.03920 1.20200
O 	O 	0.99300 0.86756 0.97030 -0.43300
O 	O 	0.90588 0.84197 0.89537 -0.43400
O 	O 	0.88368 0.94050 0.89965 -0.44300
O 	O 	0.94844 0.97435 0.98912 -0.47900
C 	C 	0.05431 0.00650 0.10589 0.31800
O 	O 	0.01566 0.95301 0.92552 -0.79400
C 	C 	0.98509 0.09766 0.96300 0.34400
O 	O 	0.06026 0.97056 0.07466 -0.41000
O 	O 	0.05882 0.05649 0.10410 -0.45900
O 	O 	0.00883 0.11038 0.01389 -0.48200
O 	O 	0.08254 0.04301 0.02071 -0.88900
Zn	Zn	0.06934 0.97965 0.85816 1.18700
C 	C 	0.07560 0.04468 0.79643 0.31900
C 	C 	0.14609 0.98053 0.95064 0.34200
H 	H 	0.12526 0.06567 0.05072 0.16600
H 	H 	0.00875 0.02102 0.85735 0.16500
Zn	Zn	0.09778 0.09437 0.46690 1.19000
Zn	Zn	0.00572 0.03524 0.35028 1.19800
O 	O 	0.01800 0.93369 0.28016 -0.43700
O 	O 	0.99271 0.00416 0.27698 -0.44600
O 	O 	0.01921 0.87460 0.36742 -0.46900
C 	C 	0.15796 0.06217 0.42870 0.34700
O 	O 	0.95606 0.95120 0.33399 -0.87200
C 	C 	0.09490 0.17215 0.41520 0.35100
O 	O 	0.16759 0.10092 0.47138 -0.43400
O 	O 	0.10332 0.01676 0.38867 -0.37600
O 	O 	0.01654 0.04954 0.42257 -0.75600
O 	O 	0.05038 0.95639 0.44113 -0.42800
O 	O 	0.05337 0.12223 0.36727 -0.43700
O 	O 	0.11137 0.16984 0.46098 -0.44500
Zn	Zn	0.83841 0.85061 0.34913 1.18000
Zn	Zn	0.93547 0.89652 0.45820 1.19100
Zn	Zn	0.96696 0.96568 0.40256 1.21900
C 	C 	0.83826 0.76378 0.39431 0.35300
C 	C 	0.79475 0.89259 0.40274 0.34700
O 	O 	0.88306 0.97761 0.36559 -0.45900
Zn	Zn	0.93172 0.00436 0.48015 1.20300
O 	O 	0.89063 0.80896 0.43992 -0.41600
O 	O 	0.81066 0.77244 0.35315 -0.44500
O 	O 	0.78206 0.86648 0.35425 -0.46300
O 	O 	0.84702 0.91272 0.44582 -0.46400
C 	C 	0.97244 0.97937 0.57090 0.32200
O 	O 	0.91722 0.88219 0.38312 -0.79100
C 	C 	0.86964 0.01273 0.38771 0.34500
O 	O 	0.96011 0.92733 0.53743 -0.40000
O 	O 	0.96071 0.01615 0.55358 -0.45600
O 	O 	0.89082 0.03349 0.43936 -0.46500
O 	O 	0.97799 0.97947 0.47046 -0.89500
Zn	Zn	0.98871 0.90646 0.32188 1.19400
C 	C 	0.01441 0.97374 0.26367 0.33800
C 	C 	0.05048 0.90782 0.42034 0.34900
H 	H 	0.02010 0.00441 0.50237 0.18300
H 	H 	0.91391 0.93080 0.30355 0.15700
C 	C 	0.99846 0.99597 0.62853 -0.09400
C 	C 	0.97380 0.95310 0.64317 0.13000
C 	C 	0.00047 0.96906 0.69823 -0.02300
C 	C 	0.04922 0.02870 0.73891 -0.11600
C 	C 	0.07312 0.07205 0.72431 0.15300
C 	C 	0.04700 0.05577 0.66919 -0.04900
H 	H 	0.98229 0.93538 0.70928 0.02700
H 	H 	0.06509 0.08947 0.65812 0.05700
O 	O 	0.92524 0.89442 0.60364 -0.15900
O 	O 	0.11953 0.13162 0.76379 -0.18200
C 	C 	0.87311 0.89294 0.59070 -0.03800
H 	H 	0.87166 0.90447 0.62665 0.04200
H 	H 	0.83416 0.84576 0.55931 0.08800
H 	H 	0.86823 0.92370 0.57319 0.06200
C 	C 	0.17344 0.13693 0.77799 -0.03200
H 	H 	0.17978 0.10599 0.79474 0.06200
H 	H 	0.21067 0.18448 0.81036 0.06800
H 	H 	0.17641 0.12834 0.74285 0.04800
C 	C 	0.02767 0.97866 0.22420 -0.09100
C 	C 	0.08213 0.02788 0.24094 0.14500
C 	C 	0.09235 0.03402 0.20202 -0.04900
C 	C 	0.04748 0.99335 0.14655 -0.08000
C 	C 	0.99357 0.94342 0.13007 0.13600
C 	C 	0.98511 0.93489 0.16924 -0.04700
H 	H 	0.13446 0.07154 0.21491 0.05600
H 	H 	0.94403 0.89580 0.15650 0.05300
O 	O 	0.12724 0.06694 0.29564 -0.19300
O 	O 	0.94934 0.90234 0.07554 -0.18700
C 	C 	0.12886 0.12162 0.31073 -0.03500
H 	H 	0.14626 0.14882 0.29349 0.05500
H 	H 	0.15984 0.14958 0.35557 0.05800
H 	H 	0.08467 0.11322 0.29872 0.06200
C 	C 	0.90653 0.91740 0.05759 -0.03200
H 	H 	0.88094 0.90674 0.07511 0.05200
H 	H 	0.87443 0.88896 0.01291 0.06600
H 	H 	0.92677 0.96619 0.06702 0.05300
C 	C 	0.12733 0.23069 0.41768 -0.12000
C 	C 	0.09992 0.26209 0.40262 0.20400
C 	C 	0.13362 0.32079 0.41072 -0.09800
C 	C 	0.19441 0.34813 0.43340 -0.00700
C 	C 	0.22085 0.31524 0.44566 0.13500
C 	C 	0.18756 0.25734 0.43869 -0.02300
H 	H 	0.11296 0.34576 0.40077 0.08800
H 	H 	0.20873 0.23331 0.45026 0.06500
Cl	Cl	0.02420 0.22964 0.37588 -0.30700
Cl	Cl	0.29586 0.34631 0.47010 -0.29400
C 	C 	0.65255 0.86482 0.41718 -0.00900
C 	C 	0.67741 0.91152 0.40599 0.14000
C 	C 	0.72411 0.92048 0.40143 -0.02400
C 	C 	0.74620 0.88318 0.40806 -0.12000
C 	C 	0.72103 0.83635 0.41898 0.20300
C 	C 	0.67472 0.82767 0.42381 -0.10000
H 	H 	0.74327 0.95649 0.39287 0.07000
H 	H 	0.65542 0.79149 0.43215 0.08400
Cl	Cl	0.65049 0.95900 0.39768 -0.32200
Cl	Cl	0.74560 0.78677 0.42473 -0.32100
C 	C 	0.16502 0.85656 0.50588 -0.00200
C 	C 	0.10355 0.81257 0.46793 0.13500
C 	C 	0.06541 0.83037 0.44280 -0.01800
C 	C 	0.08795 0.89210 0.45622 -0.12900
C 	C 	0.14819 0.93685 0.49969 0.21800
C 	C 	0.18643 0.91877 0.52373 -0.10000
H 	H 	0.01854 0.79597 0.41155 0.06600
H 	H 	0.23343 0.95304 0.55451 0.08900
Cl	Cl	0.07395 0.73499 0.45112 -0.31000
Cl	Cl	0.17683 0.01551 0.52446 -0.35900
C 	C 	0.33090 0.42822 0.01580 -0.01000
C 	C 	0.27881 0.41561 0.01218 0.14200
C 	C 	0.23789 0.35681 0.99880 -0.02800
C 	C 	0.24817 0.31005 0.98858 -0.11000
C 	C 	0.29946 0.32219 0.99059 0.19800
C 	C 	0.34058 0.38118 0.00429 -0.09000
H 	H 	0.19848 0.34770 0.99720 0.08200
H 	H 	0.38049 0.39065 0.00677 0.09300
Cl	Cl	0.26463 0.47335 0.02494 -0.31000
Cl	Cl	0.31390 0.26462 0.97795 -0.32400
C 	C 	0.85457 0.96377 0.95899 -0.12100
C 	C 	0.79757 0.91002 0.93023 0.20600
C 	C 	0.76257 0.90589 0.94946 -0.09500
C 	C 	0.78332 0.95507 0.99663 -0.00900
C 	C 	0.83734 0.01075 0.02202 0.13800
C 	C 	0.87265 0.01491 0.00307 -0.02900
H 	H 	0.72014 0.86352 0.92889 0.09100
H 	H 	0.91543 0.05704 0.02421 0.05700
Cl	Cl	0.77026 0.84640 0.87155 -0.32200
Cl	Cl	0.86179 0.07522 0.07819 -0.32400
C 	C 	0.28435 0.95237 0.03335 0.00900
C 	C 	0.25241 0.95898 0.05430 0.14200
C 	C 	0.20673 0.96731 0.02653 -0.00300
C 	C 	0.19330 0.97027 0.97845 -0.12300
C 	C 	0.22713 0.96647 0.95892 0.21900
C 	C 	0.27167 0.95651 0.98588 -0.09700
H 	H 	0.18196 0.97196 0.04256 0.04700
H 	H 	0.29692 0.95257 0.97021 0.08800
Cl	Cl	0.27110 0.95991 0.11658 -0.31200
Cl	Cl	0.21695 0.97812 0.90290 -0.33400
C 	C 	0.82176 0.01861 0.35228 -0.13000
C 	C 	0.82842 0.07591 0.36608 0.20600
C 	C 	0.77946 0.07939 0.33722 -0.09600
C 	C 	0.72374 0.02612 0.29444 -0.01200
C 	C 	0.71779 0.96923 0.27876 0.13900
C 	C 	0.76697 0.96585 0.30711 -0.02400
H 	H 	0.78448 0.12345 0.34864 0.08900
H 	H 	0.76203 0.92189 0.29508 0.05400
Cl	Cl	0.89826 0.14388 0.41825 -0.31600
Cl	Cl	0.64870 0.90166 0.22471 -0.33100
C 	C 	0.73320 0.58132 0.36128 -0.00600
C 	C 	0.74415 0.59189 0.32369 0.13900
C 	C 	0.78284 0.65148 0.33683 -0.02200
C 	C 	0.81102 0.70113 0.38736 -0.10600
C 	C 	0.80444 0.68974 0.42692 0.21100
C 	C 	0.76492 0.63006 0.41339 -0.09400
H 	H 	0.78943 0.65948 0.30694 0.06500
H 	H 	0.75837 0.62174 0.44319 0.08700
Cl	Cl	0.70941 0.53083 0.25979 -0.32400
Cl	Cl	0.84548 0.74917 0.49353 -0.29500
C 	C 	0.27540 0.09931 0.38121 -0.00500
C 	C 	0.27987 0.14802 0.41603 0.13700
C 	C 	0.24598 0.13610 0.43664 -0.02400
C 	C 	0.20586 0.07564 0.42112 -0.10700
C 	C 	0.20589 0.02764 0.39069 0.20600
C 	C 	0.23997 0.03956 0.37028 -0.09500
H 	H 	0.24883 0.17362 0.46263 0.07400
H 	H 	0.23820 0.00222 0.34521 0.08700
Cl	Cl	0.32661 0.22399 0.43306 -0.29600
Cl	Cl	0.16536 0.95290 0.37972 -0.31600
C 	C 	0.94655 0.11887 0.93974 -0.12700
C 	C 	0.97202 0.18155 0.95587 0.20100
C 	C 	0.93954 0.20742 0.95690 -0.09800
C 	C 	0.88175 0.17090 0.94190 -0.00900
C 	C 	0.85347 0.10693 0.91804 0.13800
C 	C 	0.88561 0.08107 0.91559 -0.02700
H 	H 	0.96067 0.25648 0.97305 0.08500
H 	H 	0.86444 0.03208 0.89907 0.07300
Cl	Cl	0.04620 0.22884 0.97897 -0.35800
Cl	Cl	0.77916 0.05916 0.89437 -0.31300
C 	C 	0.85366 0.70007 0.97401 -0.01000
C 	C 	0.83128 0.73589 0.96095 0.14400
C 	C 	0.85419 0.77455 0.94275 -0.02700
C 	C 	0.90117 0.77994 0.93981 -0.10900
C 	C 	0.92096 0.74128 0.94963 0.20500
C 	C 	0.89724 0.70169 0.96679 -0.09500
H 	H 	0.83758 0.80279 0.93361 0.08700
H 	H 	0.91326 0.67274 0.97525 0.08600
Cl	Cl	0.77665 0.73499 0.96971 -0.32300
Cl	Cl	0.97391 0.74050 0.93883 -0.31600
C 	C 	0.47555 0.27154 0.12201 -0.00900
C 	C 	0.45015 0.30630 0.12173 0.14200
C 	C 	0.39321 0.27991 0.10998 -0.02300
C 	C 	0.36081 0.21858 0.09720 -0.10100
C 	C 	0.38884 0.18635 0.10353 0.19900
C 	C 	0.44596 0.21284 0.11576 -0.09600
H 	H 	0.37254 0.30567 0.10690 0.07900
H 	H 	0.46636 0.18682 0.11816 0.07900
Cl	Cl	0.48706 0.38116 0.13165 -0.31400
Cl	Cl	0.35300 0.11298 0.09657 -0.33200
