data_crystal

_cell_length_a 26.92641
_cell_length_b 28.68147
_cell_length_c 30.36385
_cell_angle_alpha 60.94990
_cell_angle_beta  118.72123
_cell_angle_gamma 133.13525

_symmetry_space_group_name_	'P 1'
_symmetry_space_group_name_H-M	'P 1'

loop_
_symmetry_equiv_pos_as_xyz
  x,y,z

loop_
_atom_site_label
_atom_site_type_symbol
_atom_site_fract_x
_atom_site_fract_y
_atom_site_fract_z
_atom_site_charge
C 	C 	0.75718 0.35125 0.03222 0.14800
N 	N 	0.78721 0.40378 0.04879 -0.13200
C 	C 	0.74629 0.41059 0.05570 0.14600
N 	N 	0.67601 0.36480 0.04649 -0.14300
C 	C 	0.64626 0.31120 0.03205 0.14800
N 	N 	0.68677 0.30461 0.02452 -0.13300
C 	C 	0.71259 0.31163 0.48883 0.14400
N 	N 	0.75051 0.37689 0.48551 -0.14300
C 	C 	0.71985 0.40060 0.48415 0.14800
N 	N 	0.65218 0.35900 0.48717 -0.13900
C 	C 	0.61426 0.29395 0.49101 0.14400
N 	N 	0.64422 0.27037 0.49108 -0.12500
C 	C 	0.28274 0.63955 0.29570 0.14900
N 	N 	0.25639 0.57511 0.30741 -0.13200
C 	C 	0.29021 0.55927 0.30182 0.14600
N 	N 	0.34974 0.60768 0.28440 -0.13900
C 	C 	0.37540 0.67164 0.27193 0.15100
N 	N 	0.34203 0.68771 0.27760 -0.14000
C 	C 	0.26288 0.61579 0.78458 0.14800
N 	N 	0.31666 0.65997 0.76043 -0.13400
C 	C 	0.33502 0.63863 0.74358 0.14700
N 	N 	0.29958 0.57325 0.75077 -0.14500
C 	C 	0.24566 0.52882 0.77442 0.15100
N 	N 	0.22670 0.54992 0.79118 -0.13600
Co	Co	0.09298 0.97639 0.17767 1.19500
Co	Co	0.93453 0.01064 0.12370 1.18000
Co	Co	0.05839 0.04370 0.21107 1.18500
Co	Co	0.97216 0.94836 0.08833 1.18600
C 	C 	0.07049 0.84453 0.21879 0.32300
Co	Co	0.05643 0.89571 0.10570 1.17000
Co	Co	0.95997 0.07849 0.20017 1.16300
C 	C 	0.02583 0.97432 0.00239 0.30400
O 	O 	0.05049 0.16844 0.18149 -0.39300
O 	O 	0.98841 0.04532 0.17436 -0.77200
C 	C 	0.11192 0.18016 0.20934 0.31800
O 	O 	0.12528 0.02245 0.22959 -0.46500
O 	O 	0.90360 0.96693 0.07074 -0.45000
C 	C 	0.91890 0.11916 0.08516 0.32200
O 	O 	0.03015 0.01777 0.13880 -0.58200
C 	C 	0.01262 0.01105 0.30051 0.26300
C 	C 	0.20080 0.00922 0.13985 0.30400
C 	C 	0.90275 0.81197 0.09002 0.32900
O 	O 	0.12863 0.14208 0.21676 -0.37000
O 	O 	0.16143 0.94586 0.14366 -0.38500
O 	O 	0.18607 0.03292 0.15612 -0.37100
O 	O 	0.89912 0.09330 0.12793 -0.41000
O 	O 	0.93348 0.09146 0.07360 -0.38400
O 	O 	0.01634 0.06524 0.27590 -0.39700
O 	O 	0.01880 0.98652 0.27752 -0.36700
O 	O 	0.95210 0.84035 0.06812 -0.41800
O 	O 	0.90552 0.84640 0.10912 -0.39800
O 	O 	0.04338 0.94881 0.12318 -0.75200
C 	C 	0.82770 0.94935 0.18089 0.32500
O 	O 	0.87296 0.98310 0.21657 -0.38200
O 	O 	0.84787 0.93808 0.15712 -0.38700
O 	O 	0.03325 0.82711 0.17468 -0.39700
O 	O 	0.07293 0.88640 0.22868 -0.38400
O 	O 	0.07604 0.96891 0.03792 -0.38700
O 	O 	0.98568 0.97662 0.01423 -0.37100
Co	Co	0.08895 0.95788 0.68002 1.19200
Co	Co	0.90990 0.96535 0.61750 1.19200
Co	Co	0.02914 0.01167 0.70372 1.17900
Co	Co	0.96986 0.91136 0.59536 1.17800
C 	C 	0.13145 0.86324 0.74185 0.32500
Co	Co	0.06811 0.86554 0.63046 1.17100
Co	Co	0.90409 0.01890 0.68578 1.16200
C 	C 	0.03851 0.94296 0.52056 0.29500
O 	O 	0.98553 0.11683 0.66637 -0.40600
O 	O 	0.94762 0.98995 0.67183 -0.75700
C 	C 	0.05087 0.13682 0.68756 0.32500
O 	O 	0.11447 0.01708 0.71712 -0.46700
O 	O 	0.90246 0.93575 0.56463 -0.46100
C 	C 	0.87804 0.06104 0.57167 0.32600
O 	O 	0.98470 0.93703 0.66313 -0.57200
C 	C 	0.98421 0.98388 0.79411 0.30900
C 	C 	0.18553 0.01193 0.61896 0.30100
C 	C 	0.91569 0.78013 0.58914 0.31600
O 	O 	0.07476 0.11246 0.68205 -0.38700
O 	O 	0.17063 0.95230 0.63695 -0.38400
O 	O 	0.15521 0.02548 0.62983 -0.40000
O 	O 	0.84674 0.02597 0.60986 -0.41900
O 	O 	0.91927 0.05173 0.57101 -0.40200
O 	O 	0.96013 0.01940 0.76270 -0.41900
O 	O 	0.01142 0.97189 0.77763 -0.37300
O 	O 	0.96808 0.78009 0.62562 -0.38800
O 	O 	0.89809 0.81500 0.58617 -0.37700
O 	O 	0.03283 0.90413 0.64230 -0.75300
C 	C 	0.78600 0.88493 0.66688 0.31900
O 	O 	0.82880 0.91831 0.70304 -0.38200
O 	O 	0.80739 0.89767 0.62826 -0.37200
O 	O 	0.08390 0.82663 0.70878 -0.38400
O 	O 	0.13036 0.90813 0.74309 -0.37100
O 	O 	0.04426 0.89408 0.54975 -0.40500
O 	O 	0.02687 0.96770 0.53902 -0.39000
C 	C 	0.94945 0.93127 0.92287 -0.05200
C 	C 	0.01478 0.97892 0.94781 -0.06300
C 	C 	0.07160 0.02419 0.92352 0.06300
C 	C 	0.06311 0.01835 0.87649 -0.03800
C 	C 	0.99721 0.97251 0.85055 -0.08500
C 	C 	0.94035 0.92737 0.87467 0.08500
C 	C 	0.86921 0.87667 0.84826 -0.20200
H 	H 	0.90592 0.89622 0.94145 0.05000
H 	H 	0.10696 0.05262 0.85834 0.04400
C 	C 	0.14122 0.07906 0.94711 -0.19100
H 	H 	0.84329 0.90043 0.81730 0.08700
H 	H 	0.83529 0.83633 0.87610 0.07700
H 	H 	0.87413 0.85406 0.83087 0.08800
H 	H 	0.17273 0.06045 0.97635 0.08100
H 	H 	0.13412 0.09879 0.96564 0.08100
H 	H 	0.17096 0.12078 0.91712 0.07500
C 	C 	0.06419 0.97489 0.39251 -0.04600
C 	C 	0.01262 0.98426 0.35661 -0.04900
C 	C 	0.96919 0.97931 0.37485 0.06500
C 	C 	0.98338 0.97278 0.42785 -0.03800
C 	C 	0.03514 0.96360 0.46404 -0.08000
C 	C 	0.07534 0.96354 0.44604 0.09200
C 	C 	0.12625 0.94652 0.48314 -0.20100
H 	H 	0.09664 0.97738 0.37883 0.06000
H 	H 	0.95109 0.97082 0.44124 0.05100
C 	C 	0.90585 0.97803 0.33845 -0.17000
H 	H 	0.16781 0.96940 0.46476 0.08800
H 	H 	0.09785 0.89223 0.49428 0.08300
H 	H 	0.15310 0.96442 0.51852 0.08800
H 	H 	0.87521 0.94277 0.31446 0.08700
H 	H 	0.92211 0.02798 0.31315 0.05600
H 	H 	0.87052 0.96154 0.35991 0.07800
C 	C 	0.15360 0.30840 0.69842 -0.11900
C 	C 	0.14815 0.29464 0.74767 0.00900
C 	C 	0.12362 0.23099 0.78044 0.12200
C 	C 	0.10031 0.18078 0.76248 -0.03900
C 	C 	0.09917 0.19289 0.71142 -0.12500
C 	C 	0.12870 0.25768 0.68007 0.20000
C 	C 	0.16539 0.34629 0.76384 -0.00400
O 	O 	0.11771 0.21658 0.82861 -0.27200
H 	H 	0.07865 0.13135 0.78714 0.05500
O 	O 	0.13263 0.27142 0.63136 -0.28400
H 	H 	0.17479 0.35789 0.67364 0.07900
C 	C 	0.22726 0.37746 0.80087 0.13500
C 	C 	0.24763 0.43194 0.81088 -0.06300
C 	C 	0.20890 0.45812 0.78197 -0.06000
C 	C 	0.14377 0.42324 0.74859 0.16500
C 	C 	0.12235 0.36764 0.73947 -0.09700
O 	O 	0.26891 0.35602 0.82623 -0.27800
H 	H 	0.29705 0.45757 0.83766 0.06700
O 	O 	0.10409 0.44687 0.72122 -0.28000
H 	H 	0.07375 0.34288 0.71181 0.07400
H 	H 	0.09019 0.26927 0.60775 0.15900
H 	H 	0.30197 0.38122 0.80422 0.14900
H 	H 	0.07255 0.42559 0.74328 0.15500
H 	H 	0.16161 0.22209 0.85273 0.15400
C 	C 	0.62072 0.75606 0.71390 -0.12000
C 	C 	0.57910 0.77761 0.67670 0.00900
C 	C 	0.60122 0.82669 0.63159 0.12300
C 	C 	0.66678 0.85692 0.62574 -0.03200
C 	C 	0.71104 0.83944 0.66518 -0.12400
C 	C 	0.68659 0.78686 0.70832 0.19600
C 	C 	0.51484 0.75168 0.68685 -0.00300
O 	O 	0.56120 0.84851 0.59507 -0.26600
H 	H 	0.68523 0.89720 0.59226 0.06400
O 	O 	0.72890 0.76851 0.74674 -0.29500
H 	H 	0.60312 0.71714 0.74815 0.07400
C 	C 	0.44885 0.70589 0.66081 0.13500
C 	C 	0.38881 0.67445 0.67592 -0.06200
C 	C 	0.39439 0.68579 0.71872 -0.05900
C 	C 	0.46006 0.73447 0.74282 0.16700
C 	C 	0.51980 0.76784 0.72630 -0.09800
O 	O 	0.44307 0.69086 0.62127 -0.27500
H 	H 	0.33822 0.63823 0.65632 0.07000
O 	O 	0.46625 0.74825 0.78335 -0.28000
H 	H 	0.57048 0.80412 0.74578 0.07500
H 	H 	0.71825 0.73378 0.73680 0.15100
H 	H 	0.44660 0.65341 0.63813 0.14900
H 	H 	0.47536 0.71819 0.81497 0.15100
H 	H 	0.53232 0.82210 0.56914 0.16300
C 	C 	0.27876 0.71210 0.84782 -0.10000
C 	C 	0.21939 0.71169 0.81805 -0.00300
C 	C 	0.16934 0.67159 0.78253 0.13900
C 	C 	0.18108 0.63555 0.77495 -0.06400
C 	C 	0.24287 0.63977 0.80202 -0.05500
C 	C 	0.29097 0.67685 0.83962 0.16800
C 	C 	0.21425 0.75961 0.81885 0.00900
O 	O 	0.11162 0.67148 0.75240 -0.27400
H 	H 	0.14387 0.60722 0.74592 0.07100
O 	O 	0.35001 0.67883 0.86828 -0.28200
H 	H 	0.31693 0.74193 0.87581 0.07200
C 	C 	0.15881 0.73754 0.83503 0.12000
C 	C 	0.13955 0.77923 0.81883 -0.02800
C 	C 	0.17421 0.84188 0.78537 -0.12000
C 	C 	0.23872 0.86826 0.77985 0.19100
C 	C 	0.25771 0.82662 0.79530 -0.11300
O 	O 	0.11969 0.67377 0.86255 -0.27300
H 	H 	0.09230 0.75978 0.82657 0.06200
O 	O 	0.27815 0.93214 0.75283 -0.29300
H 	H 	0.30313 0.84524 0.78543 0.07800
H 	H 	0.38677 0.71797 0.84893 0.16100
H 	H 	0.14271 0.67508 0.89947 0.14900
H 	H 	0.31136 0.95808 0.77939 0.15700
H 	H 	0.07425 0.63393 0.77157 0.16100
C 	C 	0.21167 0.34833 0.22450 -0.11800
C 	C 	0.20959 0.33231 0.27548 0.00800
C 	C 	0.19036 0.26931 0.30762 0.12400
C 	C 	0.16747 0.22126 0.28719 -0.03700
C 	C 	0.16148 0.23505 0.23444 -0.12100
C 	C 	0.18700 0.29980 0.20375 0.19700
C 	C 	0.22239 0.37996 0.29352 -0.00300
O 	O 	0.18894 0.25311 0.35779 -0.27000
H 	H 	0.14921 0.17181 0.31139 0.06200
O 	O 	0.18625 0.31531 0.15308 -0.28200
H 	H 	0.22915 0.39759 0.20017 0.07900
C 	C 	0.28593 0.41567 0.32754 0.13700
C 	C 	0.30324 0.46928 0.33654 -0.06200
C 	C 	0.25941 0.49002 0.30944 -0.05500
C 	C 	0.19315 0.45074 0.27903 0.16600
C 	C 	0.17457 0.39545 0.27171 -0.09600
O 	O 	0.33209 0.39954 0.35082 -0.27400
H 	H 	0.35352 0.49813 0.36123 0.07000
O 	O 	0.14768 0.46780 0.25470 -0.27500
H 	H 	0.12460 0.36688 0.24664 0.07300
H 	H 	0.14128 0.30963 0.13260 0.15600
H 	H 	0.36276 0.42585 0.32661 0.15300
H 	H 	0.15839 0.49661 0.22026 0.15300
H 	H 	0.23502 0.26163 0.37897 0.16100
C 	C 	0.49117 0.76377 0.18175 -0.09700
C 	C 	0.55734 0.79871 0.21373 -0.00500
C 	C 	0.56291 0.79779 0.26263 0.13700
C 	C 	0.50243 0.76033 0.27984 -0.06200
C 	C 	0.43637 0.72269 0.24895 -0.06000
C 	C 	0.43073 0.72600 0.19911 0.16700
C 	C 	0.62085 0.83636 0.19605 0.01400
O 	O 	0.62742 0.83347 0.29360 -0.27200
H 	H 	0.50705 0.75818 0.31816 0.07000
O 	O 	0.36628 0.68971 0.16839 -0.28100
H 	H 	0.48661 0.76505 0.14378 0.07300
C 	C 	0.64594 0.80428 0.20000 0.11200
C 	C 	0.71186 0.84148 0.19077 -0.02300
C 	C 	0.75283 0.91056 0.17764 -0.13000
C 	C 	0.72530 0.94225 0.17014 0.21400
C 	C 	0.65957 0.90509 0.17932 -0.11900
O 	O 	0.60817 0.73688 0.21605 -0.26900
H 	H 	0.73255 0.81668 0.19652 0.06300
O 	O 	0.76468 0.00973 0.15730 -0.31400
H 	H 	0.63991 0.92992 0.17543 0.08800
H 	H 	0.35086 0.71894 0.14789 0.15200
H 	H 	0.57820 0.72120 0.18381 0.15100
H 	H 	0.75093 0.02254 0.11898 0.15000
H 	H 	0.64165 0.80333 0.31478 0.15500
C 	C 	0.20162 0.80799 0.29180 -0.11500
C 	C 	0.15720 0.73993 0.29597 0.00900
C 	C 	0.08508 0.70521 0.28944 0.12300
C 	C 	0.05701 0.73975 0.27213 -0.02900
C 	C 	0.10036 0.80897 0.25998 -0.12400
C 	C 	0.17343 0.84249 0.27441 0.19300
C 	C 	0.18390 0.70817 0.29703 -0.00500
O 	O 	0.04172 0.63782 0.29830 -0.26600
H 	H 	0.00081 0.71315 0.26349 0.06500
O 	O 	0.21697 0.90982 0.26593 -0.29000
H 	H 	0.25755 0.83484 0.29845 0.07900
C 	C 	0.17459 0.70032 0.25071 0.13300
C 	C 	0.20388 0.67437 0.25110 -0.06100
C 	C 	0.24349 0.65700 0.29733 -0.05600
C 	C 	0.25136 0.66318 0.34393 0.16700
C 	C 	0.22185 0.68905 0.34360 -0.09500
O 	O 	0.13676 0.71794 0.20501 -0.28100
H 	H 	0.19743 0.66948 0.21515 0.06700
O 	O 	0.29055 0.64695 0.38934 -0.27900
H 	H 	0.22938 0.69511 0.37937 0.07800
H 	H 	0.22813 0.91842 0.29857 0.15800
H 	H 	0.17129 0.76489 0.19004 0.14800
H 	H 	0.25695 0.59984 0.40470 0.15800
H 	H 	0.02535 0.62874 0.26448 0.15800
C 	C 	0.77126 0.20329 0.53676 -0.09900
C 	C 	0.80470 0.22913 0.49846 -0.00900
C 	C 	0.81056 0.28406 0.45803 0.13900
C 	C 	0.78139 0.31160 0.45546 -0.06500
C 	C 	0.74657 0.28478 0.49323 -0.05500
C 	C 	0.74275 0.23110 0.53453 0.16400
C 	C 	0.83208 0.19730 0.50052 0.01400
O 	O 	0.84255 0.30947 0.42008 -0.27200
H 	H 	0.78485 0.35305 0.42366 0.07000
O 	O 	0.71028 0.20512 0.57236 -0.27500
H 	H 	0.76716 0.16139 0.56825 0.06800
C 	C 	0.90145 0.21851 0.52694 0.11400
C 	C 	0.92129 0.17768 0.54170 -0.03100
C 	C 	0.87124 0.11416 0.53307 -0.12500
C 	C 	0.80498 0.09719 0.50040 0.19700
C 	C 	0.78567 0.13884 0.48414 -0.11400
O 	O 	0.94918 0.27792 0.53995 -0.27500
H 	H 	0.97351 0.19258 0.56465 0.05900
O 	O 	0.75751 0.03806 0.48697 -0.29000
H 	H 	0.73298 0.12337 0.46196 0.08100
H 	H 	0.74757 0.23007 0.59925 0.14500
H 	H 	0.94567 0.26802 0.57493 0.14200
H 	H 	0.72974 0.00651 0.51377 0.15200
H 	H 	0.89246 0.34386 0.43259 0.15900
C 	C 	0.80037 0.61545 0.56162 -0.11500
C 	C 	0.82262 0.63314 0.51917 0.00900
C 	C 	0.86236 0.69992 0.49314 0.12000
C 	C 	0.88395 0.74858 0.51209 -0.03700
C 	C 	0.86894 0.73125 0.55829 -0.12100
C 	C 	0.82400 0.66424 0.58157 0.20000
C 	C 	0.80729 0.58191 0.50391 -0.00400
O 	O 	0.88124 0.71783 0.44982 -0.27300
H 	H 	0.91713 0.80009 0.49316 0.05400
O 	O 	0.80480 0.64636 0.62472 -0.28600
H 	H 	0.76741 0.56394 0.58062 0.07400
C 	C 	0.83973 0.54960 0.53637 0.12900
C 	C 	0.81680 0.49415 0.52597 -0.06300
C 	C 	0.76085 0.47007 0.48380 -0.06100
C 	C 	0.73387 0.50675 0.44833 0.16600
C 	C 	0.75647 0.56191 0.45885 -0.09500
O 	O 	0.89355 0.57195 0.57834 -0.27700
H 	H 	0.83921 0.46729 0.55275 0.06500
O 	O 	0.68170 0.48584 0.40536 -0.27900
H 	H 	0.73259 0.58762 0.43294 0.08100
H 	H 	0.84013 0.64116 0.65463 0.15800
H 	H 	0.87106 0.54695 0.60777 0.14600
H 	H 	0.70620 0.50804 0.37773 0.15500
H 	H 	0.92699 0.72485 0.46283 0.14900
C 	C 	0.37044 0.13494 0.60235 -0.11900
C 	C 	0.35850 0.14397 0.54937 0.00800
C 	C 	0.29000 0.11875 0.51810 0.12200
C 	C 	0.23413 0.08230 0.54057 -0.04200
C 	C 	0.24523 0.06618 0.59444 -0.11700
C 	C 	0.31400 0.09552 0.62505 0.19700
C 	C 	0.41747 0.17743 0.52748 -0.00600
O 	O 	0.27695 0.12572 0.46648 -0.27700
H 	H 	0.18180 0.06421 0.51631 0.05100
O 	O 	0.32627 0.08684 0.67687 -0.29100
H 	H 	0.42330 0.15666 0.62626 0.07400
C 	C 	0.44179 0.23946 0.49201 0.13900
C 	C 	0.50192 0.27364 0.47566 -0.06700
C 	C 	0.54169 0.24904 0.49755 -0.05200
C 	C 	0.51620 0.18598 0.53204 0.16000
C 	C 	0.45352 0.14997 0.54585 -0.09700
O 	O 	0.40779 0.26747 0.47414 -0.27700
H 	H 	0.51993 0.32126 0.44811 0.07700
O 	O 	0.55289 0.15993 0.55303 -0.26900
H 	H 	0.43456 0.10182 0.57269 0.07100
H 	H 	0.33158 0.05053 0.69447 0.15900
H 	H 	0.43000 0.29326 0.49911 0.15200
H 	H 	0.58435 0.17406 0.58581 0.15400
H 	H 	0.27507 0.16420 0.44803 0.16000
C 	C 	0.86770 0.29574 0.06932 -0.09900
C 	C 	0.86180 0.29568 0.02079 0.00200
C 	C 	0.82893 0.32208 0.97553 0.12600
C 	C 	0.79805 0.34389 0.97930 -0.07200
C 	C 	0.80113 0.34095 0.02799 -0.04700
C 	C 	0.83828 0.31897 0.07298 0.16500
C 	C 	0.88255 0.26086 0.01819 0.00900
O 	O 	0.82398 0.32366 0.92777 -0.27600
H 	H 	0.76990 0.36122 0.94444 0.06600
O 	O 	0.84153 0.31564 0.12082 -0.27900
H 	H 	0.89268 0.27530 0.10439 0.06700
C 	C 	0.95218 0.28103 0.03898 0.11100
C 	C 	0.96718 0.23697 0.05236 -0.04300
C 	C 	0.91276 0.17237 0.04653 -0.11800
C 	C 	0.84590 0.15680 0.01727 0.19200
C 	C 	0.83067 0.20075 0.00366 -0.09800
O 	O 	0.00522 0.34302 0.04734 -0.26000
H 	H 	0.01985 0.25076 0.07223 0.06400
O 	O 	0.79456 0.09742 0.00410 -0.28300
H 	H 	0.77753 0.18610 0.98516 0.07400
H 	H 	0.88480 0.35862 0.12841 0.15400
H 	H 	0.01140 0.33809 0.08393 0.14400
H 	H 	0.76938 0.06700 0.03241 0.14600
H 	H 	0.86648 0.36697 0.91684 0.15100
C 	C 	0.83832 0.58144 0.06377 -0.09900
C 	C 	0.80594 0.56672 0.09817 -0.00900
C 	C 	0.76379 0.50109 0.12503 0.14000
C 	C 	0.75085 0.45048 0.11498 -0.06500
C 	C 	0.77767 0.46452 0.07684 -0.05600
C 	C 	0.82358 0.53060 0.05247 0.16200
C 	C 	0.81182 0.61952 0.10259 0.01300
O 	O 	0.73107 0.48581 0.15824 -0.27000
H 	H 	0.71647 0.39979 0.13466 0.07000
O 	O 	0.85261 0.54555 0.01667 -0.27200
H 	H 	0.87245 0.63216 0.04402 0.06800
C 	C 	0.85312 0.64385 0.14739 0.11900
C 	C 	0.86981 0.70226 0.14692 -0.03100
C 	C 	0.85219 0.74012 0.10045 -0.12600
C 	C 	0.80311 0.71130 0.05825 0.19700
C 	C 	0.78260 0.65078 0.05960 -0.11400
O 	O 	0.87965 0.61237 0.19072 -0.27300
H 	H 	0.90339 0.72188 0.18095 0.06300
O 	O 	0.77886 0.74434 0.01437 -0.27900
H 	H 	0.74789 0.63056 0.02586 0.07900
H 	H 	0.81938 0.54693 0.98280 0.14100
H 	H 	0.92566 0.63269 0.18648 0.14400
H 	H 	0.81130 0.77026 0.99165 0.13900
H 	H 	0.76237 0.48401 0.19313 0.16200
C 	C 	0.49164 0.15492 0.08553 -0.10100
C 	C 	0.44355 0.17043 0.05964 -0.00600
C 	C 	0.45718 0.22534 0.01709 0.14300
C 	C 	0.52160 0.26786 0.00391 -0.05400
C 	C 	0.57277 0.25609 0.03321 -0.06100
C 	C 	0.55627 0.19762 0.07258 0.16700
C 	C 	0.38075 0.13105 0.07872 0.00800
O 	O 	0.40943 0.23977 0.99044 -0.28000
H 	H 	0.53355 0.31231 0.97307 0.05900
O 	O 	0.60433 0.18354 0.09980 -0.27800
H 	H 	0.48014 0.11121 0.11714 0.07000
C 	C 	0.31764 0.07773 0.05823 0.12300
C 	C 	0.25881 0.03931 0.07765 -0.05900
C 	C 	0.26234 0.05347 0.11776 -0.11300
C 	C 	0.32575 0.10700 0.13836 0.19300
C 	C 	0.38448 0.14591 0.11843 -0.11000
O 	O 	0.31302 0.06383 0.01853 -0.28000
H 	H 	0.21041 0.99797 0.06178 0.06700
O 	O 	0.33066 0.12107 0.17809 -0.27600
H 	H 	0.43322 0.18706 0.13434 0.08100
H 	H 	0.63169 0.20360 0.12973 0.15500
H 	H 	0.32544 0.03242 0.03562 0.14500
H 	H 	0.34545 0.09541 0.21029 0.15400
H 	H 	0.37924 0.21677 0.96205 0.15300
