data_crystal

_cell_length_a 30.18098
_cell_length_b 30.30913
_cell_length_c 35.00332
_cell_angle_alpha 95.53045
_cell_angle_beta  95.52942
_cell_angle_gamma 125.59264

_symmetry_space_group_name_	'P 1'
_symmetry_space_group_name_H-M	'P 1'

loop_
_symmetry_equiv_pos_as_xyz
  x,y,z

loop_
_atom_site_label
_atom_site_type_symbol
_atom_site_fract_x
_atom_site_fract_y
_atom_site_fract_z
_atom_site_charge
C 	C 	0.00031 0.05721 0.99086 0.11700
N 	N 	0.96574 0.00156 0.98831 -0.13700
C 	C 	0.98530 0.97115 0.98386 0.12100
N 	N 	0.03963 0.99659 0.98203 -0.14300
C 	C 	0.07435 0.05220 0.98453 0.12300
N 	N 	0.05459 0.08244 0.98892 -0.14000
C 	C 	0.92820 0.97365 0.47366 0.11800
N 	N 	0.98341 0.00466 0.47309 -0.13500
C 	C 	0.01138 0.98238 0.47710 0.10900
N 	N 	0.98391 0.92893 0.48146 -0.13800
C 	C 	0.92875 0.89775 0.48202 0.12000
N 	N 	0.90103 0.92029 0.47826 -0.14100
Cu	Cu	0.66909 0.28068 0.99952 0.93000
Cu	Cu	0.72722 0.29916 0.92294 0.86400
Cu	Cu	0.69054 0.36272 0.94750 0.89400
Cu	Cu	0.66534 0.38063 0.02466 0.89700
C 	C 	0.67891 0.31859 0.08048 0.29400
O 	O 	0.58756 0.24681 0.99678 -0.35900
C 	C 	0.67846 0.32897 0.86388 0.29100
O 	O 	0.71071 0.36600 0.00214 -0.64200
O 	O 	0.66367 0.28502 0.94380 -0.64600
O 	O 	0.70434 0.24211 0.99852 -0.36600
O 	O 	0.77153 0.30607 0.96894 -0.43500
O 	O 	0.65384 0.34046 0.06911 -0.37800
O 	O 	0.72216 0.44023 0.95114 -0.37900
C 	C 	0.72898 0.47381 0.98204 0.29100
C 	C 	0.56488 0.26849 0.98072 0.28400
O 	O 	0.59625 0.32083 0.97760 -0.39400
O 	O 	0.70042 0.45481 0.01035 -0.38800
O 	O 	0.68669 0.28984 0.05497 -0.35600
C 	C 	0.75255 0.26474 0.98771 0.29500
O 	O 	0.66793 0.35278 0.89157 -0.37500
O 	O 	0.69938 0.30199 0.87188 -0.41100
H 	H 	0.75094 0.39186 0.01311 0.16700
H 	H 	0.62710 0.25776 0.92649 0.18200
Cu	Cu	0.70156 0.30088 0.44290 0.93000
Cu	Cu	0.68837 0.25215 0.52375 0.86500
Cu	Cu	0.61611 0.27649 0.49346 0.89400
Cu	Cu	0.59739 0.29749 0.41313 0.89700
C 	C 	0.67184 0.29700 0.36189 0.29500
O 	O 	0.73649 0.38144 0.44248 -0.36500
C 	C 	0.65210 0.29902 0.57823 0.29000
O 	O 	0.61526 0.25705 0.43950 -0.64200
O 	O 	0.69623 0.30988 0.49842 -0.64500
O 	O 	0.74084 0.26640 0.44628 -0.36600
O 	O 	0.67924 0.20386 0.47965 -0.43700
O 	O 	0.62561 0.29178 0.36479 -0.37700
O 	O 	0.53674 0.23803 0.48735 -0.38000
C 	C 	0.50545 0.23670 0.45743 0.29200
C 	C 	0.71179 0.40387 0.45198 0.29100
O 	O 	0.65952 0.37254 0.45538 -0.38800
O 	O 	0.52779 0.27163 0.43316 -0.38800
O 	O 	0.69342 0.28238 0.38781 -0.35900
C 	C 	0.71944 0.22041 0.45985 0.29400
O 	O 	0.62301 0.30125 0.54864 -0.37500
O 	O 	0.68444 0.28363 0.57271 -0.41100
H 	H 	0.59147 0.21681 0.42910 0.16800
H 	H 	0.72106 0.34775 0.51419 0.18200
C 	C 	0.66970 0.37796 0.76931 -0.03900
C 	C 	0.64906 0.33008 0.74170 0.02100
C 	C 	0.62992 0.28005 0.75443 -0.04000
C 	C 	0.63344 0.27863 0.79465 0.02000
C 	C 	0.66205 0.32830 0.82234 -0.07700
C 	C 	0.67881 0.37791 0.80961 0.01900
C 	C 	0.65110 0.33312 0.69947 0.02000
C 	C 	0.60802 0.23045 0.72622 0.09500
C 	C 	0.70737 0.42915 0.83766 0.08300
C 	C 	0.70195 0.35711 0.68645 -0.04000
C 	C 	0.70256 0.35249 0.64612 0.02000
C 	C 	0.65212 0.31843 0.61886 -0.07700
C 	C 	0.60159 0.29816 0.63175 0.01800
C 	C 	0.60162 0.30777 0.67201 -0.03900
C 	C 	0.75330 0.38489 0.71450 0.09500
C 	C 	0.54958 0.26598 0.60396 0.08400
C 	C 	0.75489 0.38380 0.63262 0.07900
C 	C 	0.55071 0.29066 0.68530 0.09700
C 	C 	0.68219 0.42735 0.75621 0.09700
C 	C 	0.60628 0.22605 0.80752 0.07800
N 	N 	0.79665 0.40880 0.62185 -0.11700
N 	N 	0.79425 0.40705 0.73691 -0.11700
N 	N 	0.50800 0.24031 0.58185 -0.10900
N 	N 	0.51011 0.27701 0.69594 -0.11400
N 	N 	0.59057 0.19090 0.70367 -0.11700
N 	N 	0.58459 0.18409 0.81779 -0.11700
N 	N 	0.73018 0.47008 0.86001 -0.10700
N 	N 	0.69216 0.46675 0.74570 -0.11300
C 	C 	0.71367 0.35763 0.27107 -0.03800
C 	C 	0.70275 0.31215 0.24548 0.02100
C 	C 	0.69197 0.26576 0.26022 -0.03900
C 	C 	0.68504 0.26184 0.29933 0.02200
C 	C 	0.69061 0.30523 0.32398 -0.07400
C 	C 	0.70829 0.35443 0.31045 0.01900
C 	C 	0.69637 0.31050 0.20244 0.02100
C 	C 	0.68671 0.22160 0.23485 0.09800
C 	C 	0.72062 0.40158 0.33703 0.07500
C 	C 	0.74331 0.33518 0.18448 -0.03800
C 	C 	0.73757 0.33725 0.14434 0.01800
C 	C 	0.68470 0.31366 0.12200 -0.07600
C 	C 	0.63734 0.28585 0.13950 0.02200
C 	C 	0.64332 0.28534 0.17982 -0.04000
C 	C 	0.79744 0.35864 0.20738 0.09700
C 	C 	0.58238 0.25660 0.11580 0.08700
C 	C 	0.78607 0.36421 0.12613 0.07700
C 	C 	0.59497 0.25933 0.19821 0.09600
C 	C 	0.72902 0.40709 0.25658 0.09600
C 	C 	0.67047 0.21255 0.31378 0.08800
N 	N 	0.82473 0.38568 0.11157 -0.11300
N 	N 	0.84061 0.37735 0.22570 -0.11300
N 	N 	0.53857 0.23329 0.09689 -0.11100
N 	N 	0.55646 0.23860 0.21293 -0.11500
N 	N 	0.68251 0.18638 0.21455 -0.11300
N 	N 	0.65888 0.17325 0.32531 -0.10900
N 	N 	0.73048 0.43923 0.35820 -0.11300
N 	N 	0.74126 0.44653 0.24497 -0.11500
C 	C 	0.89877 0.83910 0.48560 -0.02500
C 	C 	0.92719 0.82094 0.50429 -0.01300
C 	C 	0.89958 0.76497 0.50570 -0.05700
C 	C 	0.84332 0.72656 0.48840 0.03600
C 	C 	0.81439 0.74484 0.47103 -0.05800
C 	C 	0.84199 0.80074 0.46936 -0.01300
C 	C 	0.81425 0.66716 0.48866 -0.04600
C 	C 	0.83371 0.64028 0.47395 -0.05300
C 	C 	0.80171 0.57967 0.47008 0.05200
C 	C 	0.74469 0.54487 0.45409 -0.07300
C 	C 	0.71527 0.48758 0.44888 0.02600
C 	C 	0.74269 0.46435 0.45880 -0.08900
C 	C 	0.79983 0.49908 0.47425 0.02500
C 	C 	0.82920 0.55648 0.47976 -0.07400
H 	H 	0.97063 0.85014 0.51772 0.04100
H 	H 	0.92189 0.75144 0.52017 0.04700
H 	H 	0.77077 0.71554 0.45808 0.04600
H 	H 	0.81946 0.81400 0.45483 0.04100
H 	H 	0.77453 0.64442 0.49815 0.04400
H 	H 	0.87385 0.66323 0.46505 0.04700
H 	H 	0.72339 0.56216 0.44503 0.05200
H 	H 	0.67142 0.46122 0.43626 0.03000
H 	H 	0.82145 0.48167 0.48207 0.03400
H 	H 	0.87332 0.58292 0.49156 0.05200
C 	C 	0.74376 0.19003 0.45588 -0.09700
C 	C 	0.77791 0.19966 0.42828 0.02600
C 	C 	0.80481 0.17459 0.42692 -0.07600
C 	C 	0.79717 0.13898 0.45263 0.05100
C 	C 	0.76225 0.12851 0.47973 -0.07700
C 	C 	0.73545 0.15361 0.48120 0.02000
C 	C 	0.82944 0.11648 0.45330 -0.05500
C 	C 	0.80468 0.06258 0.45339 -0.04400
C 	C 	0.83764 0.04118 0.45907 0.03200
C 	C 	0.82594 0.00552 0.48557 -0.04900
C 	C 	0.85592 0.98401 0.49067 -0.01900
C 	C 	0.89770 0.99763 0.46904 -0.02600
C 	C 	0.90917 0.03300 0.44225 -0.01100
C 	C 	0.87898 0.05432 0.43704 -0.05600
H 	H 	0.78415 0.22702 0.40819 0.04400
H 	H 	0.83188 0.18314 0.40604 0.05400
H 	H 	0.75699 0.10204 0.50033 0.04900
H 	H 	0.70949 0.14590 0.50276 0.01900
H 	H 	0.87379 0.14428 0.45380 0.04600
H 	H 	0.76022 0.03489 0.45253 0.04400
H 	H 	0.79377 0.99469 0.50241 0.04000
H 	H 	0.84678 0.95692 0.51152 0.04100
H 	H 	0.94070 0.04314 0.42494 0.04100
H 	H 	0.88721 0.08039 0.41556 0.04700
C 	C 	0.07138 0.01599 0.47663 -0.01500
C 	C 	0.09456 0.99112 0.46077 -0.02400
C 	C 	0.15171 0.02224 0.46194 -0.05100
C 	C 	0.18627 0.07882 0.47846 0.03200
C 	C 	0.16320 0.10369 0.49435 -0.05500
C 	C 	0.10599 0.07253 0.49327 -0.01800
C 	C 	0.24702 0.11158 0.48113 -0.04500
C 	C 	0.26881 0.10881 0.45007 -0.05500
C 	C 	0.32951 0.14216 0.45257 0.04900
C 	C 	0.35355 0.17320 0.42371 -0.07500
C 	C 	0.41075 0.20388 0.42522 0.01900
C 	C 	0.44464 0.20350 0.45557 -0.08700
C 	C 	0.42015 0.17105 0.48390 0.02100
C 	C 	0.36294 0.14064 0.48242 -0.07300
H 	H 	0.06835 0.94761 0.44770 0.04200
H 	H 	0.16920 0.00225 0.45046 0.04500
H 	H 	0.18959 0.14715 0.50757 0.04600
H 	H 	0.08878 0.09213 0.50599 0.04200
H 	H 	0.27417 0.14019 0.50814 0.04600
H 	H 	0.24179 0.08427 0.42200 0.04500
H 	H 	0.32791 0.17380 0.40017 0.05000
H 	H 	0.42861 0.22779 0.40273 0.03400
H 	H 	0.44525 0.16900 0.50689 0.04400
H 	H 	0.34452 0.11542 0.50420 0.05300
C 	C 	0.94781 0.91072 0.98133 -0.02700
C 	C 	0.90465 0.88735 0.00272 -0.01100
C 	C 	0.87024 0.83025 0.00121 -0.05600
C 	C 	0.87897 0.79605 0.97870 0.03300
C 	C 	0.92117 0.81918 0.95650 -0.05700
C 	C 	0.95557 0.87623 0.95796 -0.01200
C 	C 	0.84257 0.73579 0.97748 -0.04600
C 	C 	0.86412 0.70816 0.98336 -0.05400
C 	C 	0.82790 0.64786 0.98201 0.04800
C 	C 	0.83839 0.61430 0.96071 -0.07400
C 	C 	0.80593 0.55754 0.96053 0.02300
C 	C 	0.76280 0.53376 0.98194 -0.08900
C 	C 	0.75261 0.56753 0.00356 0.02300
C 	C 	0.78522 0.62432 0.00379 -0.07200
H 	H 	0.89823 0.91343 0.02092 0.03900
H 	H 	0.83728 0.81269 0.01798 0.04600
H 	H 	0.92712 0.79294 0.93799 0.04700
H 	H 	0.98799 0.89354 0.94072 0.04000
H 	H 	0.79797 0.71432 0.97346 0.04400
H 	H 	0.90875 0.72973 0.98741 0.04500
H 	H 	0.87174 0.63221 0.94429 0.05100
H 	H 	0.81474 0.53220 0.94410 0.03400
H 	H 	0.71948 0.54989 0.02016 0.03600
H 	H 	0.77772 0.65007 0.02124 0.05000
C 	C 	0.97896 0.09011 0.99564 -0.02600
C 	C 	0.99739 0.13448 0.97598 -0.00700
C 	C 	0.97630 0.16496 0.97987 -0.06300
C 	C 	0.93631 0.15120 0.00319 0.03900
C 	C 	0.91902 0.10783 0.02378 -0.05900
C 	C 	0.93990 0.07715 0.01974 -0.01000
C 	C 	0.91383 0.18336 0.00663 -0.04600
C 	C 	0.85891 0.15792 0.00264 -0.05500
C 	C 	0.83594 0.18966 0.00169 0.05400
C 	C 	0.79555 0.17882 0.02392 -0.07800
C 	C 	0.76973 0.20480 0.02045 0.02900
C 	C 	0.78346 0.24130 0.99417 -0.10000
C 	C 	0.82473 0.25289 0.97245 0.02200
C 	C 	0.85057 0.22699 0.97603 -0.08100
H 	H 	0.02751 0.14490 0.95729 0.03700
H 	H 	0.99048 0.19882 0.96432 0.04600
H 	H 	0.88969 0.09809 0.04302 0.04800
H 	H 	0.92612 0.04369 0.03565 0.04000
H 	H 	0.94201 0.22799 0.00932 0.04500
H 	H 	0.83061 0.11335 0.00017 0.04600
H 	H 	0.78379 0.14988 0.04365 0.05400
H 	H 	0.73859 0.19598 0.03781 0.04300
H 	H 	0.83572 0.28075 0.95198 0.02000
H 	H 	0.88084 0.23479 0.95807 0.04900
C 	C 	0.50387 0.23639 0.97133 -0.08600
C 	C 	0.47900 0.25189 0.94529 0.01700
C 	C 	0.42174 0.22528 0.93970 -0.07300
C 	C 	0.38894 0.18335 0.96031 0.04700
C 	C 	0.41327 0.16588 0.98476 -0.07100
C 	C 	0.47043 0.19232 0.99032 0.01700
C 	C 	0.32914 0.15800 0.95632 -0.05300
C 	C 	0.30633 0.15422 0.98813 -0.05000
C 	C 	0.24681 0.12996 0.98454 0.03500
C 	C 	0.20626 0.07826 0.96056 -0.05800
C 	C 	0.14997 0.05344 0.95992 -0.01200
C 	C 	0.13363 0.07980 0.98352 -0.02800
C 	C 	0.17421 0.13173 0.00719 -0.01000
C 	C 	0.23048 0.15649 0.00783 -0.05700
H 	H 	0.50407 0.28497 0.92978 0.03600
H 	H 	0.40312 0.23818 0.92008 0.05100
H 	H 	0.38801 0.13230 0.99985 0.05300
H 	H 	0.48884 0.17943 0.01014 0.04900
H 	H 	0.30437 0.14539 0.92731 0.04500
H 	H 	0.33237 0.17169 0.01706 0.04800
H 	H 	0.21835 0.05682 0.94305 0.04700
H 	H 	0.11910 0.01355 0.94132 0.03900
H 	H 	0.16222 0.15234 0.02575 0.04100
H 	H 	0.26145 0.19610 0.02674 0.04700
