data_crystal

_cell_length_a 23.26291
_cell_length_b 23.52190
_cell_length_c 35.01389
_cell_angle_alpha 95.48901
_cell_angle_beta  95.48785
_cell_angle_gamma 125.93734

_symmetry_space_group_name_	'P 1'
_symmetry_space_group_name_H-M	'P 1'

loop_
_symmetry_equiv_pos_as_xyz
  x,y,z

loop_
_atom_site_label
_atom_site_type_symbol
_atom_site_fract_x
_atom_site_fract_y
_atom_site_fract_z
_atom_site_charge
C 	C 	0.01035 0.95727 0.98854 -0.07100
C 	C 	0.05359 0.02168 0.46368 0.05000
H 	H 	0.04500 0.10707 0.45815 0.06000
H 	H 	0.04580 0.92692 0.46878 0.06100
C 	C 	0.01817 0.06532 0.99301 -0.07400
H 	H 	0.03564 0.93070 0.98572 0.05800
C 	C 	0.01600 0.05092 0.45972 -0.08000
C 	C 	0.01646 0.94944 0.46581 -0.07800
H 	H 	0.04921 0.12222 0.99312 0.05800
C 	C 	0.05069 0.03082 0.98878 0.03400
C 	C 	0.94539 0.02607 0.99682 0.04400
C 	C 	0.90529 0.95254 0.99650 -0.07300
C 	C 	0.93768 0.91804 0.99227 0.03500
H 	H 	0.84886 0.92209 0.99916 0.05800
C 	C 	0.94104 0.00790 0.45796 0.04900
C 	C 	0.94159 0.90596 0.46394 0.05100
C 	C 	0.90354 0.93511 0.46004 -0.07800
H 	H 	0.84554 0.90162 0.45869 0.06100
Cu	Cu	0.61538 0.22375 0.00243 0.93000
Cu	Cu	0.67263 0.22733 0.92004 0.87900
Cu	Cu	0.66013 0.33939 0.95341 0.90100
Cu	Cu	0.62082 0.35781 0.03028 0.90100
C 	C 	0.63480 0.27380 0.08429 0.33900
O 	O 	0.51046 0.18402 0.00144 -0.34500
C 	C 	0.63835 0.29317 0.86769 0.33800
O 	O 	0.67671 0.33529 0.00743 -0.64000
O 	O 	0.60749 0.23371 0.94706 -0.63900
O 	O 	0.65811 0.17110 0.99922 -0.36200
O 	O 	0.73952 0.24571 0.96390 -0.43200
O 	O 	0.60466 0.30484 0.07436 -0.35500
O 	O 	0.71665 0.44244 0.96322 -0.37500
C 	C 	0.71223 0.48146 0.99077 0.31300
C 	C 	0.48472 0.21656 0.98772 0.30600
O 	O 	0.52924 0.28322 0.98370 -0.38500
O 	O 	0.66522 0.45246 0.01435 -0.38400
O 	O 	0.63863 0.23273 0.05779 -0.35500
C 	C 	0.71959 0.19903 0.98702 0.29000
O 	O 	0.65943 0.34491 0.89732 -0.38100
O 	O 	0.62925 0.23399 0.87337 -0.38300
H 	H 	0.72829 0.36481 0.02013 0.17100
H 	H 	0.55762 0.20562 0.93187 0.18700
Cu	Cu	0.75387 0.34625 0.45395 0.93000
Cu	Cu	0.75312 0.28885 0.53583 0.87500
Cu	Cu	0.64196 0.30674 0.50614 0.90200
Cu	Cu	0.62158 0.34844 0.43048 0.90000
C 	C 	0.69945 0.33002 0.37308 0.34300
O 	O 	0.79862 0.45170 0.45576 -0.35500
C 	C 	0.69282 0.32527 0.59106 0.33600
O 	O 	0.64199 0.29011 0.45143 -0.63800
O 	O 	0.74795 0.35505 0.51001 -0.63900
O 	O 	0.80202 0.29823 0.45431 -0.35800
O 	O 	0.72786 0.22077 0.49126 -0.43300
O 	O 	0.67113 0.36214 0.38483 -0.38500
O 	O 	0.53814 0.25441 0.49845 -0.36800
C 	C 	0.49878 0.26011 0.47150 0.29400
C 	C 	0.76845 0.47993 0.47016 0.28300
O 	O 	0.70218 0.43779 0.47636 -0.38400
O 	O 	0.52889 0.30893 0.44922 -0.38300
O 	O 	0.74025 0.32312 0.39819 -0.34000
C 	C 	0.77264 0.23754 0.46692 0.29400
O 	O 	0.63982 0.30715 0.56264 -0.35400
O 	O 	0.75160 0.33397 0.58340 -0.41500
H 	H 	0.60984 0.23913 0.43851 0.17800
H 	H 	0.77854 0.40455 0.52516 0.18200
C 	C 	0.58684 0.25697 0.75793 -0.14200
C 	C 	0.64346 0.32200 0.74927 0.00900
C 	C 	0.69199 0.38051 0.77971 0.29400
C 	C 	0.68704 0.37242 0.81861 -0.06100
C 	C 	0.63385 0.30568 0.82737 -0.14300
C 	C 	0.58187 0.24876 0.79680 0.36800
C 	C 	0.65798 0.32550 0.70917 0.01300
F 	F 	0.74618 0.44412 0.77164 -0.42400
H 	H 	0.72683 0.41700 0.84190 0.09300
F 	F 	0.52773 0.18500 0.80475 -0.44400
H 	H 	0.54848 0.21191 0.73455 0.11300
C 	C 	0.69993 0.30496 0.69681 0.29000
C 	C 	0.71211 0.30612 0.65851 -0.06100
C 	C 	0.68252 0.32785 0.63205 -0.14500
C 	C 	0.64144 0.34967 0.64467 0.36800
C 	C 	0.62915 0.34826 0.68309 -0.14400
F 	F 	0.72832 0.28317 0.72190 -0.42800
H 	H 	0.74351 0.28885 0.64918 0.08200
F 	F 	0.61431 0.37303 0.61996 -0.44200
H 	H 	0.59716 0.36470 0.69256 0.11600
C 	C 	0.60356 0.24785 0.18691 -0.14700
C 	C 	0.67382 0.27937 0.20676 0.01000
C 	C 	0.72994 0.30284 0.18562 0.29800
C 	C 	0.71633 0.29781 0.14513 -0.06100
C 	C 	0.64685 0.26995 0.12565 -0.14100
C 	C 	0.59005 0.24322 0.14655 0.37200
C 	C 	0.68973 0.29473 0.24984 0.01400
F 	F 	0.79797 0.33248 0.20445 -0.41900
H 	H 	0.76026 0.31780 0.12915 0.08500
F 	F 	0.52203 0.21389 0.12781 -0.43900
H 	H 	0.55988 0.22906 0.20299 0.11300
C 	C 	0.71728 0.36281 0.27013 0.29300
C 	C 	0.72293 0.37487 0.31063 -0.05800
C 	C 	0.70125 0.31911 0.33125 -0.14500
C 	C 	0.67680 0.25186 0.31122 0.36600
C 	C 	0.67074 0.23967 0.27058 -0.14800
F 	F 	0.73618 0.41657 0.25039 -0.42100
H 	H 	0.74290 0.42723 0.32594 0.09100
F 	F 	0.65623 0.19764 0.33085 -0.44800
H 	H 	0.64958 0.18703 0.25512 0.11500
C 	C 	0.85136 0.69692 0.46810 0.04100
C 	C 	0.87087 0.66305 0.44325 -0.06300
C 	C 	0.84684 0.59336 0.44520 0.01800
C 	C 	0.90453 0.83131 0.46552 -0.01800
C 	C 	0.78492 0.59166 0.49760 0.01700
C 	C 	0.80909 0.66142 0.49559 -0.06300
C 	C 	0.87844 0.76967 0.46681 -0.01200
C 	C 	0.80283 0.55681 0.47203 -0.08300
H 	H 	0.90440 0.69057 0.42227 0.05800
H 	H 	0.86072 0.56715 0.42511 0.04700
H 	H 	0.75149 0.56438 0.51864 0.04400
H 	H 	0.79478 0.68768 0.51535 0.05700
C 	C 	0.84651 0.10922 0.45099 0.04300
C 	C 	0.77574 0.07795 0.45668 -0.06500
C 	C 	0.75012 0.11889 0.45960 0.02100
C 	C 	0.90352 0.03950 0.45491 -0.01800
C 	C 	0.86514 0.22197 0.44950 0.02100
C 	C 	0.89056 0.18083 0.44650 -0.06400
C 	C 	0.87601 0.06979 0.45278 -0.01300
C 	C 	0.79542 0.19176 0.45718 -0.08500
H 	H 	0.74111 0.02247 0.45981 0.05500
H 	H 	0.69572 0.09443 0.46475 0.03900
H 	H 	0.90062 0.27788 0.44736 0.04300
H 	H 	0.94522 0.20525 0.44180 0.05600
C 	C 	0.27134 0.14260 0.46818 0.04200
C 	C 	0.31763 0.16031 0.50323 -0.06300
C 	C 	0.39190 0.19832 0.50436 0.02100
C 	C 	0.13040 0.06564 0.46535 -0.01900
C 	C 	0.37369 0.20094 0.43527 0.01900
C 	C 	0.29948 0.16299 0.43424 -0.06500
C 	C 	0.19470 0.10124 0.46670 -0.01200
C 	C 	0.42036 0.21884 0.47035 -0.08000
H 	H 	0.29609 0.14451 0.52956 0.05800
H 	H 	0.42729 0.21236 0.53172 0.05500
H 	H 	0.39483 0.21596 0.40877 0.03500
H 	H 	0.26386 0.14906 0.40699 0.05600
C 	C 	0.82114 0.69433 0.99128 -0.00100
C 	C 	0.84575 0.72162 0.95772 -0.02900
C 	C 	0.88278 0.79459 0.95782 -0.03500
C 	C 	0.75122 0.55639 0.99103 -0.09700
C 	C 	0.87014 0.81314 0.02499 -0.03600
C 	C 	0.83307 0.74012 0.02484 -0.03000
C 	C 	0.78331 0.61931 0.99119 0.05400
C 	C 	0.89545 0.84069 0.99153 0.00400
H 	H 	0.83640 0.68639 0.93163 0.05200
H 	H 	0.90199 0.81541 0.93183 0.04700
H 	H 	0.87991 0.84840 0.05118 0.04700
H 	H 	0.81393 0.71925 0.05084 0.04800
C 	C 	0.84214 0.11846 0.00298 0.04200
C 	C 	0.87659 0.18948 0.99850 -0.06500
C 	C 	0.83733 0.21700 0.99526 0.01900
C 	C 	0.91089 0.06048 0.99968 -0.01500
C 	C 	0.72950 0.10327 0.00263 0.01900
C 	C 	0.76894 0.07590 0.00590 -0.06500
C 	C 	0.88025 0.08759 0.00156 -0.01600
C 	C 	0.76305 0.17343 0.99625 -0.08800
H 	H 	0.93335 0.22288 0.99659 0.05500
H 	H 	0.86427 0.27165 0.99113 0.03700
H 	H 	0.67239 0.06911 0.00365 0.04300
H 	H 	0.74208 0.02102 0.00961 0.05500
C 	C 	0.27283 0.13262 0.98381 0.00200
C 	C 	0.25386 0.15171 0.01684 -0.02900
C 	C 	0.18138 0.12136 0.01768 -0.03500
C 	C 	0.40946 0.18494 0.98512 -0.09100
C 	C 	0.14687 0.05483 0.95183 -0.03500
C 	C 	0.21937 0.08514 0.95105 -0.02900
C 	C 	0.34691 0.16048 0.98403 0.05600
C 	C 	0.12743 0.07166 0.98548 0.00400
H 	H 	0.29506 0.18892 0.04215 0.05400
H 	H 	0.16693 0.13461 0.04381 0.04800
H 	H 	0.10560 0.01672 0.92675 0.04700
H 	H 	0.23376 0.07071 0.92527 0.04900
