data_crystal

_cell_length_a 19.47153
_cell_length_b 18.19281
_cell_length_c 26.77954
_cell_angle_alpha 95.42199
_cell_angle_beta  95.42473
_cell_angle_gamma 126.41989

_symmetry_space_group_name_	'P 1'
_symmetry_space_group_name_H-M	'P 1'

loop_
_symmetry_equiv_pos_as_xyz
  x,y,z

loop_
_atom_site_label
_atom_site_type_symbol
_atom_site_fract_x
_atom_site_fract_y
_atom_site_fract_z
_atom_site_charge
C 	C 	0.92973 0.01737 0.96662 0.22500
C 	C 	0.02038 0.07458 0.97058 -0.12300
C 	C 	0.06563 0.03728 0.97696 0.22800
H 	H 	0.05550 0.14776 0.96909 0.13900
C 	C 	0.92961 0.01719 0.46661 0.22700
C 	C 	0.06551 0.03712 0.47696 0.22900
C 	C 	0.02025 0.07441 0.47058 -0.12500
H 	H 	0.05538 0.14760 0.46908 0.13800
Cu	Cu	0.72192 0.31521 0.94684 0.93800
Cu	Cu	0.71161 0.22195 0.04757 0.91300
Cu	Cu	0.59746 0.27289 0.02134 0.90500
Cu	Cu	0.57604 0.34021 0.92717 0.91700
C 	C 	0.65504 0.30982 0.84428 0.29500
C 	C 	0.66238 0.28230 0.12910 0.28800
O 	O 	0.59042 0.25357 0.94860 -0.63400
O 	O 	0.72082 0.32228 0.02124 -0.63500
O 	O 	0.77399 0.24790 0.93941 -0.32400
O 	O 	0.68248 0.14409 0.98517 -0.39300
O 	O 	0.62629 0.35421 0.86381 -0.33100
O 	O 	0.47500 0.21741 0.01603 -0.34400
C 	C 	0.43146 0.23275 0.98333 0.39800
O 	O 	0.47171 0.30024 0.95704 -0.34000
O 	O 	0.69921 0.29080 0.87364 -0.32200
C 	C 	0.74248 0.17115 0.95742 0.39600
O 	O 	0.60164 0.27309 0.09570 -0.33800
O 	O 	0.72245 0.27765 0.11420 -0.36700
H 	H 	0.54607 0.18842 0.93062 0.19300
Cu	Cu	0.72179 0.31503 0.44683 0.93700
Cu	Cu	0.71144 0.22174 0.54754 0.91400
Cu	Cu	0.59734 0.27273 0.52133 0.90600
Cu	Cu	0.57592 0.34005 0.42716 0.91700
C 	C 	0.65495 0.30970 0.34427 0.29500
C 	C 	0.66229 0.28217 0.62909 0.28800
O 	O 	0.59029 0.25340 0.44859 -0.63600
O 	O 	0.72070 0.32210 0.52123 -0.63200
O 	O 	0.77387 0.24773 0.43940 -0.32500
O 	O 	0.68234 0.14390 0.48514 -0.39700
O 	O 	0.62618 0.35407 0.36381 -0.33100
O 	O 	0.47488 0.21727 0.51603 -0.33900
C 	C 	0.43134 0.23259 0.48332 0.39300
O 	O 	0.47159 0.30008 0.45703 -0.34000
O 	O 	0.69909 0.29063 0.37363 -0.32300
C 	C 	0.74235 0.17096 0.45741 0.39700
O 	O 	0.60153 0.27295 0.59569 -0.33700
O 	O 	0.72230 0.27744 0.61418 -0.36700
H 	H 	0.54594 0.18826 0.43061 0.19200
C 	C 	0.66136 0.29470 0.68436 -0.03300
C 	C 	0.58449 0.26642 0.70152 0.00600
C 	C 	0.58221 0.27053 0.75376 0.01000
C 	C 	0.65642 0.30216 0.78924 -0.03200
H 	H 	0.52618 0.23977 0.67447 0.09300
H 	H 	0.52259 0.24835 0.76658 0.07500
C 	C 	0.58452 0.26646 0.20151 0.00500
C 	C 	0.66141 0.29475 0.18437 -0.03300
C 	C 	0.73617 0.32867 0.22021 0.00800
C 	C 	0.73341 0.33161 0.27222 0.01700
C 	C 	0.65637 0.30208 0.28924 -0.03200
C 	C 	0.58219 0.27050 0.25374 0.01000
H 	H 	0.52624 0.23985 0.17445 0.09300
H 	H 	0.79162 0.35815 0.29937 0.09000
H 	H 	0.52255 0.24831 0.26655 0.07500
C 	C 	0.86008 0.07896 0.50837 0.25300
C 	C 	0.88274 0.05774 0.46407 -0.14200
C 	C 	0.86023 0.07474 0.41748 0.25300
C 	C 	0.81456 0.11200 0.41519 0.30100
C 	C 	0.79099 0.13229 0.45950 -0.21400
C 	C 	0.81479 0.11635 0.50623 0.29300
F 	F 	0.79569 0.13905 0.54979 -0.42900
F 	F 	0.88259 0.06390 0.55368 -0.35300
F 	F 	0.79211 0.12702 0.36987 -0.36900
F 	F 	0.88203 0.05451 0.37442 -0.35100
C 	C 	0.19263 0.10711 0.43356 0.25700
C 	C 	0.16000 0.09552 0.47903 -0.14500
C 	C 	0.21677 0.12987 0.52616 0.25400
C 	C 	0.30541 0.17408 0.52774 0.29600
C 	C 	0.33783 0.18391 0.48210 -0.20000
C 	C 	0.28104 0.15084 0.43503 0.29200
F 	F 	0.31138 0.15934 0.39065 -0.38200
F 	F 	0.13804 0.07341 0.38782 -0.35000
F 	F 	0.35990 0.20851 0.57358 -0.37100
F 	F 	0.18570 0.11910 0.57035 -0.35600
C 	C 	0.81466 0.11215 0.91520 0.30100
C 	C 	0.79112 0.13248 0.95951 -0.20800
C 	C 	0.81495 0.11656 0.00624 0.28700
C 	C 	0.86024 0.07917 0.00838 0.24800
C 	C 	0.88287 0.05791 0.96408 -0.13600
C 	C 	0.86033 0.07489 0.91748 0.25300
F 	F 	0.88211 0.05464 0.87442 -0.35000
F 	F 	0.79219 0.12715 0.86987 -0.36800
F 	F 	0.79588 0.13928 0.04982 -0.43000
C 	C 	0.21688 0.13003 0.02616 0.24900
C 	C 	0.16011 0.09568 0.97904 -0.13900
C 	C 	0.19275 0.10728 0.93356 0.25600
C 	C 	0.28117 0.15100 0.93504 0.29200
C 	C 	0.33794 0.18406 0.98211 -0.19500
C 	C 	0.30552 0.17423 0.02775 0.29200
F 	F 	0.36001 0.20865 0.07358 -0.37200
F 	F 	0.31150 0.15951 0.89066 -0.38100
F 	F 	0.13817 0.07359 0.88783 -0.34900
F 	F 	0.18581 0.11925 0.07035 -0.35700
H 	H 	0.79639 0.35232 0.20776 0.08300
F 	F 	0.88277 0.06413 0.05369 -0.35400
C 	C 	0.73615 0.32867 0.72019 0.00900
H 	H 	0.76406 0.38453 0.04297 0.20700
H 	H 	0.76394 0.38434 0.54296 0.20700
C 	C 	0.73344 0.33167 0.77221 0.01800
H 	H 	0.79636 0.35231 0.70773 0.08300
H 	H 	0.79167 0.35826 0.79935 0.09000
C 	C 	0.02034 0.94300 0.97930 -0.12600
C 	C 	0.92990 0.88543 0.97472 0.23100
C 	C 	0.88452 0.92260 0.96851 -0.12100
H 	H 	0.05533 0.91411 0.98385 0.13500
H 	H 	0.81449 0.87817 0.96532 0.13800
C 	C 	0.88440 0.92243 0.46851 -0.12300
C 	C 	0.92978 0.88526 0.47472 0.23100
C 	C 	0.02022 0.94284 0.47930 -0.12800
H 	H 	0.81437 0.87799 0.46531 0.13700
H 	H 	0.05522 0.91395 0.48385 0.13400
O 	O 	0.78795 0.45470 0.95358 -0.32100
C 	C 	0.76053 0.49790 0.97581 0.38800
O 	O 	0.68246 0.44918 0.98665 -0.35600
O 	O 	0.78783 0.45453 0.45358 -0.32300
C 	C 	0.76041 0.49773 0.47580 0.38900
O 	O 	0.68234 0.44902 0.48664 -0.35900
C 	C 	0.83409 0.63370 0.43197 0.29200
C 	C 	0.80700 0.59773 0.47640 -0.20500
C 	C 	0.81739 0.65593 0.51968 0.29400
C 	C 	0.85518 0.74938 0.51867 0.25700
C 	C 	0.88255 0.78519 0.47434 -0.14600
C 	C 	0.87164 0.72694 0.43100 0.25400
F 	F 	0.89770 0.76099 0.38793 -0.35600
F 	F 	0.82160 0.57750 0.38925 -0.37700
F 	F 	0.86640 0.80553 0.56096 -0.34900
F 	F 	0.79145 0.62204 0.56281 -0.37200
C 	C 	0.81750 0.65609 0.01969 0.28900
C 	C 	0.80711 0.59790 0.97640 -0.19900
C 	C 	0.83420 0.63386 0.93198 0.29100
C 	C 	0.87175 0.72711 0.93100 0.25300
C 	C 	0.88266 0.78535 0.97435 -0.14000
C 	C 	0.85529 0.74955 0.01867 0.25200
F 	F 	0.86652 0.80570 0.06097 -0.35000
F 	F 	0.79157 0.62220 0.06281 -0.37300
F 	F 	0.89781 0.76115 0.88793 -0.35500
F 	F 	0.82171 0.57767 0.88925 -0.37600
