data_crystal

_cell_length_a 22.37963
_cell_length_b 20.08382
_cell_length_c 38.80607
_cell_angle_alpha 92.70388
_cell_angle_beta  85.31950
_cell_angle_gamma 124.79416

_symmetry_space_group_name_	'P 1'
_symmetry_space_group_name_H-M	'P 1'

loop_
_symmetry_equiv_pos_as_xyz
  x,y,z

loop_
_atom_site_label
_atom_site_type_symbol
_atom_site_fract_x
_atom_site_fract_y
_atom_site_fract_z
_atom_site_charge
N 	N 	0.02708 0.05080 0.96412 -0.14100
H 	H 	0.07689 0.03814 0.02372 0.04700
N 	N 	0.02900 0.04567 0.46638 -0.14300
H 	H 	0.02568 0.96743 0.52289 0.03900
H 	H 	0.04822 0.37184 0.55140 0.04100
H 	H 	0.01571 0.32366 0.49317 0.07300
H 	H 	0.02736 0.14786 0.42573 0.04500
C 	C 	0.24812 0.16272 0.98630 0.00300
C 	C 	0.19206 0.11176 0.01089 -0.02400
C 	C 	0.11932 0.07645 0.00429 -0.06600
C 	C 	0.10193 0.09146 0.97274 0.07500
C 	C 	0.15836 0.14425 0.94863 -0.06800
C 	C 	0.23115 0.17984 0.95538 -0.02600
H 	H 	0.20486 0.09907 0.03503 0.03700
H 	H 	0.14560 0.15658 0.92441 0.04900
C 	C 	0.19941 0.16539 0.51489 -0.02800
C 	C 	0.12687 0.12688 0.50705 -0.07100
C 	C 	0.10427 0.08920 0.47463 0.07900
C 	C 	0.15567 0.09366 0.44992 -0.06800
C 	C 	0.22828 0.13282 0.45770 -0.02300
H 	H 	0.21574 0.19149 0.54032 0.03500
H 	H 	0.08799 0.12368 0.52655 0.04600
H 	H 	0.13896 0.06572 0.42481 0.05100
C 	C 	0.25003 0.16712 0.49049 0.00400
H 	H 	0.21183 0.95307 0.53219 0.03800
H 	H 	0.27426 0.21992 0.93642 0.03500
H 	H 	0.26721 0.13433 0.43864 0.03800
C 	C 	0.32343 0.19668 0.50049 0.00600
N 	N 	0.28794 0.05575 0.50176 -0.13600
C 	C 	0.25486 0.01850 0.53566 -0.08000
H 	H 	0.29627 0.02428 0.55194 0.04700
H 	H 	0.22882 0.04688 0.54907 0.05000
C 	C 	0.32453 0.19664 0.99271 0.00100
H 	H 	0.31306 0.05132 0.90669 0.05000
H 	H 	0.02722 0.12713 0.02407 0.04200
H 	H 	0.31110 0.02781 0.48890 0.07800
N 	N 	0.31757 0.08536 0.95913 -0.13500
C 	C 	0.34176 0.14151 0.50524 0.03600
H 	H 	0.36086 0.32239 0.50190 0.05100
H 	H 	0.33992 0.29984 0.02093 0.05100
C 	C 	0.34668 0.10534 0.92314 -0.09200
H 	H 	0.34428 0.15520 0.91378 0.05100
H 	H 	0.32043 0.03878 0.96787 0.07700
C 	C 	0.35651 0.15577 0.98086 0.03900
C 	C 	0.36381 0.26707 0.01267 -0.08800
C 	C 	0.37526 0.27999 0.50513 -0.09200
H 	H 	0.39023 0.34389 0.08009 0.04400
C 	C 	0.41262 0.17039 0.51335 -0.01300
H 	H 	0.40390 0.12319 0.92026 0.04900
H 	H 	0.42681 0.12782 0.51669 0.04500
C 	C 	0.42600 0.18309 0.99079 -0.02200
C 	C 	0.43360 0.29492 0.02247 0.10300
C 	C 	0.44624 0.30888 0.51343 0.10300
C 	C 	0.44570 0.35662 0.07805 -0.08900
H 	H 	0.44380 0.30592 0.08979 0.06300
H 	H 	0.44967 0.15026 0.98224 0.04400
H 	H 	0.46428 0.06617 0.19319 0.06000
C 	C 	0.46506 0.25378 0.51713 -0.11600
C 	C 	0.46434 0.25177 0.01200 -0.11000
H 	H 	0.47398 0.41486 0.03077 0.07500
N 	N 	0.47460 0.36887 0.04197 -0.13900
H 	H 	0.47643 0.42091 0.53194 0.07600
H 	H 	0.48210 0.41252 0.09299 0.05000
H 	H 	0.47954 0.07533 0.69533 0.06000
H 	H 	0.48955 0.43259 0.46964 0.04500
N 	N 	0.49968 0.39446 0.51779 -0.14300
H 	H 	0.50498 0.10647 0.13211 0.03600
H 	H 	0.51407 0.10878 0.63337 0.03500
C 	C 	0.52150 0.11072 0.18618 -0.09300
H 	H 	0.52324 0.24744 0.35880 0.03100
C 	C 	0.53125 0.43449 0.48424 -0.09100
H 	H 	0.52881 0.21544 0.29707 0.06300
C 	C 	0.53680 0.27877 0.02275 0.31800
H 	H 	0.53770 0.25800 0.85948 0.03000
C 	C 	0.53589 0.12049 0.68702 -0.09300
C 	C 	0.54016 0.28308 0.52334 0.32000
C 	C 	0.54053 0.20813 0.35086 0.03000
H 	H 	0.54466 0.22831 0.79753 0.06300
C 	C 	0.54314 0.18947 0.31587 -0.09000
C 	C 	0.54464 0.13374 0.15156 0.03100
N 	N 	0.54595 0.13314 0.24714 -0.08900
H 	H 	0.55443 0.40537 0.46870 0.05600
O 	O 	0.55593 0.30314 0.05405 -0.36000
C 	C 	0.55552 0.13970 0.65191 0.03100
C 	C 	0.55934 0.22303 0.85109 0.02900
C 	C 	0.56267 0.20557 0.81599 -0.09000
C 	C 	0.56334 0.17923 0.37533 -0.09700
N 	N 	0.56599 0.14990 0.74720 -0.08900
O 	O 	0.56646 0.31239 0.55321 -0.36000
C 	C 	0.56800 0.14096 0.30501 0.10200
O 	O 	0.57061 0.25025 0.50780 -0.46600
C 	C 	0.57158 0.14722 0.21184 0.10300
O 	O 	0.57355 0.25269 0.00773 -0.46400
C 	C 	0.57262 0.21054 0.41102 0.29000
H 	H 	0.57620 0.49889 0.48839 0.05000
H 	H 	0.57954 0.02955 0.50970 0.05700
N 	N 	0.58363 0.13412 0.26939 -0.08900
C 	C 	0.58422 0.12701 0.36472 0.03000
O 	O 	0.58632 0.18044 0.43541 -0.34900
C 	C 	0.58632 0.19806 0.87513 -0.09800
C 	C 	0.58700 0.10852 0.32965 -0.09300
C 	C 	0.58833 0.16124 0.71149 0.10300
C 	C 	0.59243 0.22671 0.91116 0.28800
C 	C 	0.59240 0.16212 0.80461 0.10200
H 	H 	0.00131 0.93101 0.92099 0.04100
O 	O 	0.59776 0.28539 0.41757 -0.37800
O 	O 	0.59981 0.19301 0.08158 -0.35300
O 	O 	0.60115 0.19412 0.58111 -0.35600
H 	H 	0.60129 0.10355 0.38335 0.03500
O 	O 	0.60666 0.19712 0.93553 -0.35100
N 	N 	0.60699 0.15563 0.76882 -0.08900
H 	H 	0.60636 0.07127 0.32150 0.06000
O 	O 	0.61200 0.29940 0.91879 -0.37600
C 	C 	0.99048 0.32586 0.54591 -0.08500
H 	H 	0.97705 0.26496 0.55180 0.04700
H 	H 	0.95569 0.33835 0.56310 0.04800
N 	N 	0.98089 0.33172 0.50960 -0.13600
C 	C 	0.92347 0.17277 0.98568 0.00500
C 	C 	0.92247 0.14043 0.95276 -0.02700
C 	C 	0.95798 0.10191 0.94568 -0.06700
C 	C 	0.99515 0.09572 0.97133 0.07800
C 	C 	0.99820 0.13066 0.00407 -0.06000
C 	C 	0.96210 0.16860 0.01120 -0.02500
C 	C 	0.88703 0.79767 0.98468 -0.00100
C 	C 	0.92535 0.82616 0.95238 -0.03300
C 	C 	0.97154 0.90946 0.94592 -0.06000
C 	C 	0.97943 0.96503 0.97153 0.06800
C 	C 	0.93996 0.93621 0.00379 -0.06600
C 	C 	0.89540 0.85302 0.01051 -0.02800
H 	H 	0.89327 0.14410 0.93283 0.03800
H 	H 	0.95573 0.07564 0.92040 0.05100
H 	H 	0.96360 0.19408 0.03661 0.03800
H 	H 	0.91995 0.78377 0.93245 0.03700
H 	H 	0.94557 0.97800 0.02396 0.04400
H 	H 	0.86794 0.83159 0.03591 0.03300
C 	C 	0.92179 0.16326 0.48940 0.00000
C 	C 	0.96135 0.17604 0.45759 -0.02900
C 	C 	0.99743 0.13821 0.45047 -0.06300
C 	C 	0.99380 0.08666 0.47489 0.08100
C 	C 	0.95487 0.07464 0.50704 -0.07100
C 	C 	0.91890 0.11265 0.51415 -0.02800
C 	C 	0.89924 0.79112 0.48415 0.00600
C 	C 	0.94759 0.84380 0.50872 -0.02800
C 	C 	0.98978 0.92758 0.50337 -0.06300
C 	C 	0.98444 0.95945 0.47306 0.07200
C 	C 	0.93545 0.90651 0.44877 -0.06600
C 	C 	0.89305 0.82278 0.45426 -0.03000
H 	H 	0.96292 0.21407 0.43813 0.03800
H 	H 	0.95211 0.03562 0.52632 0.05000
H 	H 	0.88769 0.10166 0.53862 0.03500
H 	H 	0.95242 0.81980 0.53197 0.03700
H 	H 	0.93064 0.93044 0.42551 0.04700
H 	H 	0.85549 0.78248 0.43525 0.03600
Co	Co	0.65227 0.30363 0.05262 1.18200
O 	O 	0.68648 0.30427 0.10124 -0.38500
Co	Co	0.64915 0.30454 0.96721 1.18300
O 	O 	0.69041 0.26850 0.01100 -0.46200
O 	O 	0.67254 0.40912 0.98654 -0.43200
C 	C 	0.72138 0.45302 0.00941 0.34200
O 	O 	0.75751 0.33285 0.96615 -0.36500
O 	O 	0.72063 0.42087 0.03896 -0.52400
C 	C 	0.64105 0.22770 0.10706 0.29300
C 	C 	0.75596 0.30670 0.99648 0.29600
H 	H 	0.75231 0.45806 0.05777 0.17200
Co	Co	0.65648 0.30084 0.54936 1.18200
O 	O 	0.69617 0.30361 0.59672 -0.38500
Co	Co	0.63979 0.29198 0.46473 1.18300
O 	O 	0.68190 0.25401 0.50743 -0.46300
O 	O 	0.67370 0.40179 0.48204 -0.43200
C 	C 	0.72655 0.44481 0.50312 0.34300
O 	O 	0.74418 0.30969 0.46031 -0.36800
O 	O 	0.73196 0.41253 0.53090 -0.53000
C 	C 	0.64707 0.22897 0.60482 0.29200
C 	C 	0.74475 0.28560 0.49070 0.31100
H 	H 	0.77557 0.44747 0.54531 0.16500
C 	C 	0.61626 0.13402 0.82880 -0.09300
C 	C 	0.61281 0.15133 0.86396 0.03000
H 	H 	0.63951 0.10081 0.82022 0.06000
H 	H 	0.63329 0.13108 0.88227 0.03500
C 	C 	0.62782 0.20102 0.64104 -0.09900
C 	C 	0.68091 0.23956 0.66542 0.03000
C 	C 	0.66126 0.22015 0.70047 -0.09100
H 	H 	0.73706 0.28607 0.65732 0.03100
H 	H 	0.70215 0.25277 0.71917 0.06300
C 	C 	0.61812 0.19460 0.14244 -0.09900
C 	C 	0.66877 0.22871 0.16797 0.03000
C 	C 	0.64565 0.20543 0.20250 -0.09100
H 	H 	0.72573 0.27499 0.16120 0.03000
H 	H 	0.68476 0.23479 0.22215 0.06300
C 	C 	0.77296 0.53363 0.49893 -0.13300
C 	C 	0.83125 0.57108 0.47319 0.10600
C 	C 	0.87222 0.65526 0.46875 -0.09100
C 	C 	0.85574 0.70258 0.48947 0.00600
C 	C 	0.79741 0.66534 0.51490 0.03200
C 	C 	0.75671 0.58103 0.51970 -0.00900
H 	H 	0.91709 0.68392 0.44915 0.05800
H 	H 	0.71156 0.55234 0.53916 0.03400
N 	N 	0.84973 0.52426 0.45154 -0.14800
N 	N 	0.77875 0.71331 0.53546 -0.13600
C 	C 	0.89683 0.50951 0.46883 -0.08800
H 	H 	0.94929 0.56783 0.47389 0.04800
H 	H 	0.90899 0.47206 0.45183 0.05400
H 	H 	0.86988 0.47658 0.49357 0.04400
C 	C 	0.71777 0.70891 0.52155 -0.09000
H 	H 	0.73168 0.73048 0.49432 0.05000
H 	H 	0.70628 0.74880 0.53701 0.04500
H 	H 	0.66775 0.64589 0.52292 0.04400
H 	H 	0.80343 0.47011 0.44332 0.08000
H 	H 	0.76586 0.69406 0.56124 0.07300
C 	C 	0.78779 0.25280 0.49524 -0.11700
C 	C 	0.75670 0.16949 0.49017 0.11000
C 	C 	0.80074 0.14046 0.48988 -0.09400
C 	C 	0.87531 0.19360 0.49478 0.00400
C 	C 	0.90565 0.27651 0.50188 0.03500
C 	C 	0.86163 0.30548 0.50177 -0.01400
H 	H 	0.77728 0.07683 0.48472 0.05400
H 	H 	0.88513 0.36914 0.50661 0.03100
N 	N 	0.68070 0.11490 0.48374 -0.13700
C 	C 	0.63839 0.06664 0.51454 -0.09000
H 	H 	0.65395 0.02511 0.52066 0.04600
H 	H 	0.64657 0.10659 0.53710 0.06300
H 	H 	0.67387 0.07703 0.46273 0.08100
C 	C 	0.76305 0.54269 0.00637 -0.12000
C 	C 	0.83822 0.59324 0.01179 0.09700
C 	C 	0.87809 0.67627 0.00395 -0.08600
C 	C 	0.84334 0.71017 0.99243 -0.00300
C 	C 	0.76763 0.66006 0.98782 0.03600
C 	C 	0.72818 0.57701 0.99502 -0.01100
H 	H 	0.93635 0.71443 0.00682 0.05200
H 	H 	0.67026 0.53879 0.99125 0.04700
N 	N 	0.87463 0.55987 0.02431 -0.15000
N 	N 	0.73057 0.69216 0.97457 -0.13900
C 	C 	0.90006 0.59141 0.05882 -0.09200
H 	H 	0.94867 0.65525 0.05729 0.04300
H 	H 	0.91565 0.55447 0.07045 0.04200
H 	H 	0.85637 0.58790 0.07628 0.04400
C 	C 	0.69923 0.71662 0.00267 -0.08400
H 	H 	0.65958 0.66403 0.01961 0.04800
H 	H 	0.66958 0.73899 0.99158 0.04200
H 	H 	0.74237 0.76605 0.01831 0.04600
H 	H 	0.91864 0.57388 0.00699 0.07500
H 	H 	0.76364 0.73936 0.95691 0.07800
C 	C 	0.80334 0.27920 0.00207 -0.10600
C 	C 	0.87879 0.32819 0.99185 0.10000
C 	C 	0.91714 0.29232 0.98611 -0.08600
C 	C 	0.88328 0.21020 0.99346 0.00000
C 	C 	0.81071 0.16355 0.00743 0.04300
C 	C 	0.77111 0.19835 0.01185 -0.02000
H 	H 	0.97420 0.32924 0.97703 0.05700
H 	H 	0.71434 0.16123 0.02135 0.04800
N 	N 	0.91892 0.41525 0.99166 -0.14900
N 	N 	0.77707 0.08036 0.01695 -0.13500
C 	C 	0.94341 0.44756 0.02610 -0.08600
H 	H 	0.89600 0.42926 0.04470 0.04400
H 	H 	0.97998 0.51468 0.02484 0.04500
H 	H 	0.97522 0.42599 0.03552 0.04900
C 	C 	0.72891 0.02521 0.99064 -0.08300
H 	H 	0.68214 0.03005 0.98896 0.04900
H 	H 	0.70715 0.96192 0.99770 0.03900
H 	H 	0.75936 0.03832 0.96497 0.05200
H 	H 	0.88936 0.43583 0.98273 0.08700
H 	H 	0.74798 0.06796 0.04102 0.07800
