data_crystal

_cell_length_a 37.75682
_cell_length_b 27.29349
_cell_length_c 16.77385
_cell_angle_alpha 88.87131
_cell_angle_beta  90.00058
_cell_angle_gamma 130.27461

_symmetry_space_group_name_	'P 1'
_symmetry_space_group_name_H-M	'P 1'

loop_
_symmetry_equiv_pos_as_xyz
  x,y,z

loop_
_atom_site_label
_atom_site_type_symbol
_atom_site_fract_x
_atom_site_fract_y
_atom_site_fract_z
_atom_site_charge
Zn	Zn	0.20008 0.33514 0.77459 1.22300
Zn	Zn	0.13465 0.25744 0.62159 1.19700
C 	C 	0.07340 0.32535 0.88599 0.31900
Zn	Zn	0.11454 0.32494 0.73391 1.22000
Zn	Zn	0.16449 0.35941 0.91498 1.19000
H 	H 	0.10784 0.22827 0.76668 0.18100
C 	C 	0.17558 0.40140 0.59552 0.28200
O 	O 	0.22476 0.39066 0.95733 -0.46900
O 	O 	0.26192 0.40352 0.83930 -0.39200
O 	O 	0.13008 0.26864 0.73514 -0.79400
O 	O 	0.18902 0.26174 0.62342 -0.46600
O 	O 	0.19121 0.26811 0.83993 -0.43800
O 	O 	0.24083 0.35900 0.68111 -0.42700
O 	O 	0.14260 0.26293 0.92605 -0.40700
O 	O 	0.08714 0.25180 0.56353 -0.47200
H 	H 	0.19890 0.42472 0.78551 0.17100
O 	O 	0.05203 0.25818 0.66863 -0.38800
O 	O 	0.17610 0.37822 0.79920 -0.80100
O 	O 	0.09613 0.31103 0.92491 -0.46400
O 	O 	0.14320 0.38974 0.64412 -0.42800
O 	O 	0.07522 0.32998 0.80718 -0.42000
O 	O 	0.18266 0.36018 0.59069 -0.41000
C 	C 	0.26278 0.41250 0.91679 0.28700
C 	C 	0.23125 0.31705 0.62820 0.30500
C 	C 	0.16974 0.25001 0.90893 0.29300
C 	C 	0.04988 0.23724 0.59716 0.33100
Zn	Zn	0.38311 0.19312 0.22852 1.22300
Zn	Zn	0.39352 0.27518 0.38013 1.19700
C 	C 	0.27115 0.21306 0.11199 0.31900
Zn	Zn	0.31344 0.21617 0.26440 1.22300
Zn	Zn	0.32705 0.17308 0.08647 1.19100
H 	H 	0.39877 0.30649 0.23385 0.18300
C 	C 	0.29528 0.13766 0.40619 0.32900
O 	O 	0.35691 0.13908 0.04773 -0.46300
O 	O 	0.37526 0.11861 0.16801 -0.40000
O 	O 	0.38088 0.26565 0.26527 -0.79300
O 	O 	0.44042 0.26439 0.38268 -0.46600
O 	O 	0.43750 0.25506 0.15981 -0.43200
O 	O 	0.39865 0.16685 0.32414 -0.42600
O 	O 	0.39641 0.26808 0.07715 -0.40500
O 	O 	0.35413 0.28760 0.43584 -0.47300
H 	H 	0.29717 0.10980 0.21803 0.17300
O 	O 	0.31879 0.28851 0.32618 -0.39300
O 	O 	0.31995 0.15603 0.20294 -0.79900
O 	O 	0.30520 0.22282 0.07124 -0.46000
O 	O 	0.27751 0.15334 0.35457 -0.42500
O 	O 	0.27244 0.21650 0.19051 -0.41600
O 	O 	0.34062 0.17253 0.41066 -0.42100
C 	C 	0.36733 0.10889 0.09078 0.33400
C 	C 	0.42870 0.20768 0.37750 0.30600
C 	C 	0.43454 0.27759 0.09299 0.29000
C 	C 	0.33157 0.30347 0.40080 0.33700
C 	C 	0.97161 0.30577 0.03180 -0.02800
C 	C 	0.01804 0.34463 0.05555 -0.04100
C 	C 	0.05181 0.35433 0.00551 0.03500
C 	C 	0.03974 0.32577 0.93067 -0.15300
C 	C 	0.99408 0.29202 0.90339 0.20000
C 	C 	0.96026 0.28243 0.95393 -0.09500
H 	H 	0.08706 0.38193 0.02631 0.00300
H 	H 	0.92468 0.25335 0.93434 0.07200
H 	H 	0.02746 0.36416 0.11480 0.04500
O 	O 	0.98228 0.26794 0.82804 -0.27700
H 	H 	0.97242 0.22439 0.83336 0.15900
C 	C 	0.94505 0.18754 0.43793 -0.03500
C 	C 	0.97581 0.17791 0.41581 -0.04300
C 	C 	0.00683 0.18653 0.47133 0.03300
C 	C 	0.00763 0.20588 0.54899 -0.14900
C 	C 	0.97087 0.20339 0.57456 0.19300
C 	C 	0.93977 0.19439 0.51867 -0.09500
H 	H 	0.03243 0.18283 0.45234 0.02500
H 	H 	0.91392 0.19783 0.53693 0.06200
H 	H 	0.97856 0.16951 0.35412 0.04700
O 	O 	0.96658 0.21275 0.65280 -0.27500
H 	H 	0.94636 0.16928 0.67841 0.14600
C 	C 	0.20651 0.46321 0.54926 -0.02700
C 	C 	0.24923 0.48453 0.51856 -0.04800
C 	C 	0.27767 0.54090 0.47167 0.02900
C 	C 	0.26416 0.57732 0.45489 -0.14800
C 	C 	0.22180 0.55697 0.48696 0.19500
C 	C 	0.19297 0.49977 0.53329 -0.10200
H 	H 	0.31021 0.55610 0.44797 0.03500
H 	H 	0.16012 0.48391 0.55629 0.07600
H 	H 	0.26046 0.45735 0.53089 0.05700
O 	O 	0.20838 0.59256 0.47298 -0.28500
H 	H 	0.22157 0.62324 0.51718 0.15000
C 	C 	0.30727 0.45262 0.95813 -0.03600
C 	C 	0.30731 0.44357 0.04086 -0.04000
C 	C 	0.33615 0.49699 0.08877 0.02300
C 	C 	0.36472 0.55859 0.05316 -0.15000
C 	C 	0.37483 0.56462 0.97098 0.19500
C 	C 	0.34516 0.51139 0.92285 -0.10300
H 	H 	0.33117 0.49104 0.15294 0.02800
H 	H 	0.34824 0.51773 0.85852 0.07200
H 	H 	0.28051 0.39696 0.06853 0.04300
O 	O 	0.40877 0.62393 0.93649 -0.29700
H 	H 	0.43729 0.62910 0.93745 0.14500
C 	C 	0.18186 0.22414 0.97076 -0.03800
C 	C 	0.19166 0.18468 0.94817 -0.03800
C 	C 	0.21903 0.17879 0.99626 0.02400
C 	C 	0.23628 0.21134 0.06831 -0.14500
C 	C 	0.22228 0.24537 0.09523 0.19400
C 	C 	0.19489 0.25123 0.04656 -0.09100
H 	H 	0.22812 0.15063 0.97616 0.00300
H 	H 	0.18652 0.28046 0.06557 0.06400
H 	H 	0.18068 0.16202 0.89075 0.04200
O 	O 	0.23543 0.27311 0.16853 -0.27500
H 	H 	0.26609 0.31639 0.15950 0.14800
C 	C 	0.26483 0.33646 0.56466 -0.03700
C 	C 	0.30811 0.35529 0.58345 -0.04000
C 	C 	0.33352 0.35288 0.52565 0.03100
C 	C 	0.31508 0.33002 0.44936 -0.15100
C 	C 	0.27553 0.32190 0.42722 0.19600
C 	C 	0.25049 0.32494 0.48518 -0.09400
H 	H 	0.36575 0.36398 0.54195 0.02400
H 	H 	0.21834 0.31431 0.46941 0.05800
H 	H 	0.32044 0.36711 0.64409 0.04700
O 	O 	0.25975 0.30718 0.35057 -0.27300
H 	H 	0.27523 0.34917 0.32286 0.14900
Zn	Zn	0.20008 0.83514 0.77459 1.22400
Zn	Zn	0.13465 0.75744 0.62159 1.19800
C 	C 	0.07340 0.82535 0.88599 0.32000
Zn	Zn	0.11454 0.82494 0.73391 1.22100
Zn	Zn	0.16449 0.85941 0.91498 1.19100
H 	H 	0.10784 0.72827 0.76668 0.18200
C 	C 	0.17558 0.90140 0.59552 0.28300
O 	O 	0.22476 0.89066 0.95733 -0.46800
O 	O 	0.26192 0.90352 0.83930 -0.39100
O 	O 	0.13008 0.76864 0.73514 -0.79300
O 	O 	0.18902 0.76174 0.62342 -0.46600
O 	O 	0.19121 0.76811 0.83993 -0.43800
O 	O 	0.24083 0.85900 0.68111 -0.42700
O 	O 	0.14260 0.76293 0.92605 -0.40700
O 	O 	0.08714 0.75180 0.56353 -0.47200
H 	H 	0.19890 0.92472 0.78551 0.17100
O 	O 	0.05203 0.75818 0.66863 -0.38800
O 	O 	0.17610 0.87822 0.79920 -0.80100
O 	O 	0.09613 0.81103 0.92491 -0.46400
O 	O 	0.14320 0.88974 0.64412 -0.42800
O 	O 	0.07522 0.82998 0.80718 -0.42000
O 	O 	0.18266 0.86018 0.59069 -0.41000
C 	C 	0.26278 0.91251 0.91679 0.28700
C 	C 	0.23125 0.81705 0.62820 0.30500
C 	C 	0.16974 0.75001 0.90893 0.29300
C 	C 	0.04988 0.73724 0.59716 0.33100
Zn	Zn	0.38311 0.69312 0.22852 1.22300
Zn	Zn	0.39352 0.77518 0.38013 1.19700
C 	C 	0.27115 0.71306 0.11199 0.31900
Zn	Zn	0.31344 0.71617 0.26440 1.22300
Zn	Zn	0.32705 0.67308 0.08647 1.19100
H 	H 	0.39877 0.80649 0.23385 0.18300
C 	C 	0.29528 0.63766 0.40619 0.32900
O 	O 	0.35691 0.63908 0.04773 -0.46300
O 	O 	0.37526 0.61861 0.16801 -0.40000
O 	O 	0.38089 0.76565 0.26527 -0.79300
O 	O 	0.44042 0.76439 0.38268 -0.46600
O 	O 	0.43750 0.75506 0.15981 -0.43200
O 	O 	0.39865 0.66685 0.32414 -0.42600
O 	O 	0.39641 0.76808 0.07715 -0.40500
O 	O 	0.35413 0.78760 0.43584 -0.47300
H 	H 	0.29717 0.60980 0.21803 0.17300
O 	O 	0.31879 0.78851 0.32618 -0.39300
O 	O 	0.31995 0.65603 0.20294 -0.79900
O 	O 	0.30520 0.72282 0.07124 -0.46000
O 	O 	0.27751 0.65334 0.35457 -0.42500
O 	O 	0.27244 0.71649 0.19051 -0.41600
O 	O 	0.34062 0.67253 0.41066 -0.42100
C 	C 	0.36733 0.60889 0.09078 0.33400
C 	C 	0.42870 0.70768 0.37750 0.30600
C 	C 	0.43454 0.77760 0.09299 0.29000
C 	C 	0.33157 0.80347 0.40080 0.33700
C 	C 	0.97161 0.80577 0.03180 -0.02800
C 	C 	0.01804 0.84463 0.05555 -0.04100
C 	C 	0.05181 0.85433 0.00551 0.03500
C 	C 	0.03974 0.82578 0.93067 -0.15300
C 	C 	0.99408 0.79202 0.90339 0.20000
C 	C 	0.96026 0.78243 0.95393 -0.09500
H 	H 	0.08706 0.88193 0.02631 0.00300
H 	H 	0.92468 0.75335 0.93434 0.07200
H 	H 	0.02746 0.86416 0.11480 0.04500
O 	O 	0.98228 0.76794 0.82804 -0.27700
H 	H 	0.97242 0.72439 0.83336 0.15900
C 	C 	0.94505 0.68754 0.43793 -0.03500
C 	C 	0.97581 0.67791 0.41581 -0.04300
C 	C 	0.00683 0.68653 0.47133 0.03300
C 	C 	0.00763 0.70588 0.54899 -0.14900
C 	C 	0.97087 0.70339 0.57456 0.19300
C 	C 	0.93977 0.69439 0.51867 -0.09500
H 	H 	0.03243 0.68283 0.45234 0.02500
H 	H 	0.91392 0.69783 0.53693 0.06200
H 	H 	0.97856 0.66951 0.35412 0.04700
O 	O 	0.96658 0.71275 0.65280 -0.27500
H 	H 	0.94636 0.66928 0.67841 0.14600
C 	C 	0.20651 0.96321 0.54926 -0.02700
C 	C 	0.24923 0.98453 0.51856 -0.04700
C 	C 	0.27767 0.04091 0.47167 0.02900
C 	C 	0.26416 0.07732 0.45489 -0.14800
C 	C 	0.22180 0.05697 0.48696 0.19500
C 	C 	0.19297 0.99977 0.53329 -0.10200
H 	H 	0.31021 0.05610 0.44797 0.03500
H 	H 	0.16012 0.98391 0.55629 0.07600
H 	H 	0.26046 0.95735 0.53089 0.05700
O 	O 	0.20838 0.09256 0.47298 -0.28500
H 	H 	0.22157 0.12324 0.51718 0.15000
C 	C 	0.30727 0.95262 0.95813 -0.03500
C 	C 	0.30731 0.94357 0.04086 -0.04000
C 	C 	0.33615 0.99699 0.08877 0.02300
C 	C 	0.36472 0.05859 0.05316 -0.15000
C 	C 	0.37483 0.06462 0.97098 0.19500
C 	C 	0.34516 0.01139 0.92285 -0.10400
H 	H 	0.33117 0.99104 0.15294 0.02800
H 	H 	0.34824 0.01773 0.85852 0.07200
H 	H 	0.28050 0.89696 0.06853 0.04400
O 	O 	0.40877 0.12393 0.93649 -0.29700
H 	H 	0.43729 0.12910 0.93745 0.14500
C 	C 	0.18187 0.72414 0.97076 -0.03800
C 	C 	0.19166 0.68469 0.94817 -0.03900
C 	C 	0.21903 0.67879 0.99626 0.02400
C 	C 	0.23628 0.71134 0.06831 -0.14500
C 	C 	0.22228 0.74537 0.09523 0.19400
C 	C 	0.19489 0.75123 0.04656 -0.09100
H 	H 	0.22812 0.65063 0.97616 0.00300
H 	H 	0.18652 0.78046 0.06557 0.06400
H 	H 	0.18068 0.66202 0.89075 0.04300
O 	O 	0.23543 0.77311 0.16853 -0.27500
H 	H 	0.26609 0.81639 0.15950 0.14800
C 	C 	0.26483 0.83646 0.56466 -0.03700
C 	C 	0.30811 0.85529 0.58345 -0.04000
C 	C 	0.33352 0.85288 0.52565 0.03100
C 	C 	0.31508 0.83002 0.44936 -0.15100
C 	C 	0.27553 0.82190 0.42722 0.19600
C 	C 	0.25049 0.82494 0.48518 -0.09400
H 	H 	0.36575 0.86398 0.54195 0.02400
H 	H 	0.21834 0.81430 0.46941 0.05800
H 	H 	0.32044 0.86711 0.64409 0.04700
O 	O 	0.25975 0.80718 0.35057 -0.27300
H 	H 	0.27523 0.84917 0.32286 0.14900
Zn	Zn	0.70008 0.33514 0.77459 1.22400
Zn	Zn	0.63465 0.25744 0.62159 1.19800
C 	C 	0.57340 0.32535 0.88599 0.32100
Zn	Zn	0.61454 0.32494 0.73391 1.22100
Zn	Zn	0.66449 0.35941 0.91498 1.19100
H 	H 	0.60784 0.22827 0.76668 0.18100
C 	C 	0.67558 0.40140 0.59552 0.28300
O 	O 	0.72476 0.39066 0.95733 -0.46800
O 	O 	0.76192 0.40352 0.83930 -0.39100
O 	O 	0.63008 0.26864 0.73514 -0.79300
O 	O 	0.68901 0.26174 0.62342 -0.46600
O 	O 	0.69121 0.26811 0.83993 -0.43900
O 	O 	0.74083 0.35900 0.68111 -0.42700
O 	O 	0.64260 0.26293 0.92605 -0.40700
O 	O 	0.58714 0.25180 0.56353 -0.47200
H 	H 	0.69890 0.42472 0.78551 0.17100
O 	O 	0.55203 0.25818 0.66863 -0.38900
O 	O 	0.67610 0.37822 0.79920 -0.80100
O 	O 	0.59613 0.31103 0.92491 -0.46500
O 	O 	0.64320 0.38974 0.64412 -0.42800
O 	O 	0.57522 0.32998 0.80718 -0.42100
O 	O 	0.68266 0.36018 0.59069 -0.41000
C 	C 	0.76278 0.41250 0.91679 0.28700
C 	C 	0.73125 0.31705 0.62820 0.30500
C 	C 	0.66974 0.25001 0.90893 0.29300
C 	C 	0.54988 0.23724 0.59716 0.33100
Zn	Zn	0.88311 0.19312 0.22852 1.22300
Zn	Zn	0.89352 0.27518 0.38013 1.19700
C 	C 	0.77115 0.21306 0.11199 0.31900
Zn	Zn	0.81344 0.21617 0.26440 1.22300
Zn	Zn	0.82705 0.17308 0.08647 1.19100
H 	H 	0.89877 0.30649 0.23385 0.18300
C 	C 	0.79528 0.13766 0.40619 0.32900
O 	O 	0.85691 0.13908 0.04773 -0.46300
O 	O 	0.87526 0.11861 0.16801 -0.40000
O 	O 	0.88088 0.26565 0.26527 -0.79300
O 	O 	0.94042 0.26439 0.38268 -0.46700
O 	O 	0.93750 0.25506 0.15981 -0.43300
O 	O 	0.89865 0.16685 0.32414 -0.42600
O 	O 	0.89641 0.26808 0.07715 -0.40500
O 	O 	0.85413 0.28760 0.43584 -0.47300
H 	H 	0.79717 0.10980 0.21803 0.17300
O 	O 	0.81879 0.28851 0.32618 -0.39400
O 	O 	0.81995 0.15603 0.20294 -0.79900
O 	O 	0.80520 0.22282 0.07124 -0.46000
O 	O 	0.77751 0.15334 0.35457 -0.42500
O 	O 	0.77244 0.21650 0.19051 -0.41600
O 	O 	0.84062 0.17253 0.41066 -0.42100
C 	C 	0.86733 0.10889 0.09078 0.33400
C 	C 	0.92870 0.20768 0.37750 0.30600
C 	C 	0.93454 0.27759 0.09299 0.29100
C 	C 	0.83157 0.30347 0.40080 0.33700
C 	C 	0.47161 0.30577 0.03180 -0.02400
C 	C 	0.51804 0.34463 0.05555 -0.04500
C 	C 	0.55181 0.35433 0.00551 0.03700
C 	C 	0.53974 0.32577 0.93067 -0.15700
C 	C 	0.49408 0.29202 0.90339 0.20400
C 	C 	0.46026 0.28243 0.95393 -0.09700
H 	H 	0.58706 0.38193 0.02631 0.00200
H 	H 	0.42468 0.25335 0.93434 0.07300
H 	H 	0.52746 0.36416 0.11480 0.04500
O 	O 	0.48228 0.26794 0.82804 -0.27700
H 	H 	0.47242 0.22439 0.83336 0.15900
C 	C 	0.44505 0.18754 0.43793 -0.03500
C 	C 	0.47581 0.17791 0.41581 -0.04000
C 	C 	0.50683 0.18653 0.47133 0.03000
C 	C 	0.50763 0.20588 0.54899 -0.15200
C 	C 	0.47087 0.20339 0.57456 0.19600
C 	C 	0.43977 0.19439 0.51867 -0.09500
H 	H 	0.53243 0.18283 0.45234 0.02500
H 	H 	0.41392 0.19783 0.53693 0.06200
H 	H 	0.47856 0.16951 0.35412 0.04700
O 	O 	0.46658 0.21275 0.65280 -0.27500
H 	H 	0.44636 0.16928 0.67841 0.14600
C 	C 	0.70651 0.46321 0.54926 -0.02800
C 	C 	0.74923 0.48453 0.51856 -0.04800
C 	C 	0.77767 0.54090 0.47167 0.02900
C 	C 	0.76416 0.57732 0.45489 -0.14800
C 	C 	0.72180 0.55697 0.48696 0.19500
C 	C 	0.69297 0.49977 0.53329 -0.10200
H 	H 	0.81021 0.55610 0.44797 0.03500
H 	H 	0.66012 0.48391 0.55629 0.07600
H 	H 	0.76046 0.45735 0.53089 0.05700
O 	O 	0.70838 0.59256 0.47298 -0.28500
H 	H 	0.72157 0.62324 0.51718 0.15000
C 	C 	0.80727 0.45262 0.95813 -0.03600
C 	C 	0.80731 0.44357 0.04086 -0.04000
C 	C 	0.83615 0.49699 0.08877 0.02300
C 	C 	0.86472 0.55859 0.05316 -0.15000
C 	C 	0.87483 0.56462 0.97098 0.19400
C 	C 	0.84516 0.51139 0.92285 -0.10300
H 	H 	0.83117 0.49104 0.15294 0.02800
H 	H 	0.84824 0.51773 0.85852 0.07200
H 	H 	0.78051 0.39696 0.06853 0.04300
O 	O 	0.90877 0.62393 0.93649 -0.29700
H 	H 	0.93729 0.62910 0.93745 0.14500
C 	C 	0.68186 0.22414 0.97076 -0.03800
C 	C 	0.69166 0.18468 0.94817 -0.03800
C 	C 	0.71903 0.17879 0.99626 0.02400
C 	C 	0.73628 0.21134 0.06831 -0.14500
C 	C 	0.72228 0.24537 0.09523 0.19400
C 	C 	0.69489 0.25123 0.04656 -0.09000
H 	H 	0.72812 0.15063 0.97616 0.00300
H 	H 	0.68652 0.28046 0.06557 0.06400
H 	H 	0.68068 0.16202 0.89075 0.04200
O 	O 	0.73543 0.27311 0.16853 -0.27500
H 	H 	0.76608 0.31639 0.15950 0.14800
C 	C 	0.76483 0.33646 0.56466 -0.03700
C 	C 	0.80811 0.35529 0.58345 -0.04000
C 	C 	0.83352 0.35288 0.52565 0.03100
C 	C 	0.81508 0.33002 0.44936 -0.15100
C 	C 	0.77553 0.32190 0.42722 0.19600
C 	C 	0.75049 0.32494 0.48518 -0.09400
H 	H 	0.86575 0.36398 0.54195 0.02400
H 	H 	0.71834 0.31431 0.46941 0.05800
H 	H 	0.82044 0.36711 0.64409 0.04700
O 	O 	0.75975 0.30718 0.35057 -0.27300
H 	H 	0.77523 0.34917 0.32286 0.14900
Zn	Zn	0.70008 0.83514 0.77459 1.22400
Zn	Zn	0.63465 0.75744 0.62159 1.19800
C 	C 	0.57340 0.82535 0.88599 0.32100
Zn	Zn	0.61454 0.82494 0.73391 1.22100
Zn	Zn	0.66449 0.85941 0.91498 1.19100
H 	H 	0.60784 0.72827 0.76668 0.18100
C 	C 	0.67557 0.90140 0.59552 0.28300
O 	O 	0.72476 0.89066 0.95733 -0.46800
O 	O 	0.76192 0.90352 0.83930 -0.39100
O 	O 	0.63008 0.76864 0.73514 -0.79300
O 	O 	0.68902 0.76174 0.62342 -0.46600
O 	O 	0.69121 0.76811 0.83993 -0.43800
O 	O 	0.74083 0.85900 0.68111 -0.42700
O 	O 	0.64260 0.76293 0.92605 -0.40700
O 	O 	0.58714 0.75180 0.56353 -0.47200
H 	H 	0.69890 0.92472 0.78551 0.17100
O 	O 	0.55203 0.75818 0.66863 -0.38900
O 	O 	0.67610 0.87822 0.79920 -0.80100
O 	O 	0.59613 0.81103 0.92491 -0.46500
O 	O 	0.64320 0.88974 0.64412 -0.42800
O 	O 	0.57522 0.82998 0.80718 -0.42100
O 	O 	0.68266 0.86018 0.59069 -0.41000
C 	C 	0.76278 0.91251 0.91679 0.28700
C 	C 	0.73125 0.81705 0.62820 0.30500
C 	C 	0.66974 0.75001 0.90893 0.29300
C 	C 	0.54988 0.73724 0.59716 0.33100
Zn	Zn	0.88311 0.69312 0.22852 1.22300
Zn	Zn	0.89352 0.77518 0.38013 1.19700
C 	C 	0.77115 0.71306 0.11199 0.31900
Zn	Zn	0.81344 0.71617 0.26440 1.22300
Zn	Zn	0.82705 0.67308 0.08647 1.19100
H 	H 	0.89877 0.80649 0.23385 0.18300
C 	C 	0.79528 0.63766 0.40619 0.32900
O 	O 	0.85691 0.63908 0.04773 -0.46300
O 	O 	0.87526 0.61861 0.16801 -0.40000
O 	O 	0.88089 0.76565 0.26527 -0.79300
O 	O 	0.94042 0.76439 0.38268 -0.46600
O 	O 	0.93750 0.75506 0.15981 -0.43300
O 	O 	0.89865 0.66685 0.32414 -0.42600
O 	O 	0.89641 0.76808 0.07715 -0.40500
O 	O 	0.85413 0.78760 0.43584 -0.47300
H 	H 	0.79717 0.60980 0.21803 0.17300
O 	O 	0.81879 0.78851 0.32618 -0.39400
O 	O 	0.81995 0.65603 0.20294 -0.79900
O 	O 	0.80520 0.72282 0.07124 -0.46000
O 	O 	0.77751 0.65334 0.35457 -0.42500
O 	O 	0.77244 0.71649 0.19051 -0.41600
O 	O 	0.84062 0.67253 0.41066 -0.42100
C 	C 	0.86733 0.60889 0.09078 0.33400
C 	C 	0.92870 0.70768 0.37750 0.30600
C 	C 	0.93454 0.77760 0.09299 0.29100
C 	C 	0.83157 0.80347 0.40080 0.33700
C 	C 	0.47161 0.80577 0.03180 -0.02400
C 	C 	0.51804 0.84463 0.05555 -0.04500
C 	C 	0.55181 0.85433 0.00551 0.03700
C 	C 	0.53974 0.82578 0.93067 -0.15700
C 	C 	0.49408 0.79202 0.90339 0.20400
C 	C 	0.46026 0.78243 0.95393 -0.09700
H 	H 	0.58706 0.88193 0.02631 0.00200
H 	H 	0.42468 0.75335 0.93434 0.07300
H 	H 	0.52746 0.86416 0.11480 0.04500
O 	O 	0.48228 0.76794 0.82804 -0.27700
H 	H 	0.47242 0.72439 0.83336 0.15900
C 	C 	0.44505 0.68754 0.43793 -0.03500
C 	C 	0.47581 0.67791 0.41581 -0.04000
C 	C 	0.50683 0.68653 0.47133 0.03000
C 	C 	0.50763 0.70588 0.54899 -0.15200
C 	C 	0.47087 0.70339 0.57456 0.19600
C 	C 	0.43977 0.69439 0.51867 -0.09500
H 	H 	0.53243 0.68283 0.45234 0.02500
H 	H 	0.41392 0.69783 0.53693 0.06200
H 	H 	0.47856 0.66951 0.35412 0.04700
O 	O 	0.46658 0.71275 0.65280 -0.27500
H 	H 	0.44636 0.66928 0.67841 0.14600
C 	C 	0.70651 0.96321 0.54926 -0.02800
C 	C 	0.74923 0.98453 0.51856 -0.04700
C 	C 	0.77767 0.04091 0.47167 0.02800
C 	C 	0.76416 0.07732 0.45489 -0.14800
C 	C 	0.72180 0.05697 0.48696 0.19500
C 	C 	0.69297 0.99977 0.53329 -0.10100
H 	H 	0.81021 0.05610 0.44797 0.03500
H 	H 	0.66012 0.98391 0.55629 0.07600
H 	H 	0.76046 0.95735 0.53089 0.05700
O 	O 	0.70838 0.09256 0.47298 -0.28500
H 	H 	0.72157 0.12324 0.51718 0.15000
C 	C 	0.80727 0.95262 0.95813 -0.03500
C 	C 	0.80731 0.94357 0.04086 -0.04000
C 	C 	0.83615 0.99699 0.08877 0.02300
C 	C 	0.86472 0.05859 0.05316 -0.15100
C 	C 	0.87483 0.06462 0.97098 0.19400
C 	C 	0.84516 0.01139 0.92285 -0.10400
H 	H 	0.83117 0.99104 0.15294 0.02800
H 	H 	0.84824 0.01773 0.85852 0.07200
H 	H 	0.78051 0.89696 0.06853 0.04400
O 	O 	0.90877 0.12393 0.93649 -0.29700
H 	H 	0.93729 0.12910 0.93745 0.14500
C 	C 	0.68187 0.72414 0.97076 -0.03800
C 	C 	0.69166 0.68469 0.94817 -0.03800
C 	C 	0.71903 0.67879 0.99626 0.02400
C 	C 	0.73628 0.71134 0.06831 -0.14500
C 	C 	0.72228 0.74537 0.09523 0.19400
C 	C 	0.69489 0.75123 0.04656 -0.09100
H 	H 	0.72812 0.65063 0.97616 0.00300
H 	H 	0.68652 0.78046 0.06557 0.06400
H 	H 	0.68068 0.66202 0.89075 0.04200
O 	O 	0.73543 0.77311 0.16853 -0.27500
H 	H 	0.76608 0.81639 0.15950 0.14800
C 	C 	0.76483 0.83646 0.56466 -0.03700
C 	C 	0.80811 0.85529 0.58345 -0.04000
C 	C 	0.83352 0.85288 0.52565 0.03100
C 	C 	0.81508 0.83002 0.44936 -0.15100
C 	C 	0.77553 0.82190 0.42722 0.19600
C 	C 	0.75049 0.82494 0.48518 -0.09400
H 	H 	0.86575 0.86398 0.54195 0.02400
H 	H 	0.71834 0.81430 0.46941 0.05800
H 	H 	0.82044 0.86711 0.64409 0.04700
O 	O 	0.75975 0.80718 0.35057 -0.27300
H 	H 	0.77523 0.84917 0.32286 0.14900
