data_crystal

_cell_length_a 43.94682
_cell_length_b 38.96801
_cell_length_c 32.58269
_cell_angle_alpha 92.64511
_cell_angle_beta  85.32076
_cell_angle_gamma 123.95936

_symmetry_space_group_name_	'P 1'
_symmetry_space_group_name_H-M	'P 1'

loop_
_symmetry_equiv_pos_as_xyz
  x,y,z

loop_
_atom_site_label
_atom_site_type_symbol
_atom_site_fract_x
_atom_site_fract_y
_atom_site_fract_z
_atom_site_charge
C 	C 	0.93738 0.88245 0.03096 -0.00700
C 	C 	0.92491 0.89648 0.06437 -0.02500
C 	C 	0.94338 0.93878 0.07289 -0.07000
C 	C 	0.97444 0.96748 0.04813 0.07700
C 	C 	0.98718 0.95334 0.01480 -0.06700
C 	C 	0.96868 0.91102 0.00631 -0.02100
N 	N 	0.99273 0.01106 0.05717 -0.14200
C 	C 	0.10848 0.07404 0.06288 -0.00400
C 	C 	0.09416 0.07626 0.02692 -0.02600
C 	C 	0.05620 0.05607 0.02486 -0.06600
C 	C 	0.03213 0.03343 0.05895 0.07700
C 	C 	0.04663 0.03173 0.09499 -0.06800
C 	C 	0.08459 0.05190 0.09698 -0.02500
C 	C 	0.94668 0.06780 0.00261 0.00200
C 	C 	0.95399 0.07406 0.04441 -0.02600
C 	C 	0.97030 0.05646 0.06171 -0.06900
C 	C 	0.97907 0.03201 0.03767 0.08300
C 	C 	0.97250 0.02648 0.99548 -0.07400
C 	C 	0.95662 0.04453 0.97808 -0.02900
C 	C 	0.22447 0.13103 0.06518 0.01100
C 	C 	0.20022 0.08789 0.06835 -0.04100
C 	C 	0.16233 0.06932 0.06794 -0.04100
C 	C 	0.14838 0.09375 0.06437 0.01000
C 	C 	0.17261 0.13692 0.06158 -0.04100
C 	C 	0.21052 0.15550 0.06201 -0.04100
C 	C 	0.87839 0.75276 0.00446 0.01400
C 	C 	0.91474 0.77400 0.01598 -0.04200
C 	C 	0.93411 0.81642 0.02438 -0.04100
C 	C 	0.91725 0.83789 0.02135 0.01100
C 	C 	0.88098 0.81668 0.00960 -0.04200
C 	C 	0.86162 0.77429 0.00123 -0.03700
C 	C 	0.88612 0.11272 0.95775 0.01000
C 	C 	0.87356 0.07091 0.95277 -0.04200
C 	C 	0.89370 0.05643 0.96664 -0.04000
C 	C 	0.92688 0.08374 0.98512 0.00700
C 	C 	0.94017 0.12587 0.98863 -0.04400
C 	C 	0.91979 0.14026 0.97521 -0.04000
H 	H 	0.90086 0.87461 0.08368 0.03600
H 	H 	0.93350 0.94938 0.09864 0.05000
H 	H 	0.01105 0.97507 0.99529 0.04400
H 	H 	0.97844 0.90046 0.98036 0.03200
H 	H 	0.11241 0.09308 0.00035 0.03700
H 	H 	0.04557 0.05717 0.99654 0.04400
H 	H 	0.02836 0.01445 0.12134 0.05000
H 	H 	0.09543 0.05014 0.12492 0.03600
H 	H 	0.94632 0.09183 0.06369 0.03700
H 	H 	0.97530 0.06091 0.09413 0.05100
H 	H 	0.97996 0.00864 0.97616 0.04800
H 	H 	0.95165 0.04006 0.94563 0.03600
H 	H 	0.21075 0.06877 0.07094 0.04100
H 	H 	0.14383 0.03596 0.07004 0.04000
H 	H 	0.16206 0.15603 0.05895 0.04000
H 	H 	0.22905 0.18882 0.05947 0.04100
H 	H 	0.92794 0.75765 0.01845 0.04200
H 	H 	0.96208 0.83254 0.03350 0.04000
H 	H 	0.86780 0.83303 0.00704 0.04100
H 	H 	0.83353 0.75811 0.99248 0.03700
H 	H 	0.84783 0.04949 0.93890 0.04000
H 	H 	0.88316 0.02385 0.96380 0.03900
H 	H 	0.96597 0.14731 0.00238 0.04300
H 	H 	0.92975 0.17259 0.97919 0.04000
C 	C 	0.94260 0.88169 0.53814 -0.00500
C 	C 	0.93115 0.89613 0.57220 -0.02500
C 	C 	0.94840 0.93861 0.57882 -0.06900
C 	C 	0.97728 0.96708 0.55161 0.07900
C 	C 	0.98866 0.95257 0.51729 -0.07100
C 	C 	0.97131 0.91008 0.51062 -0.02500
N 	N 	0.99566 0.01080 0.56002 -0.14300
C 	C 	0.11185 0.07346 0.55871 -0.00500
C 	C 	0.09575 0.07423 0.52360 -0.02400
C 	C 	0.05764 0.05442 0.52398 -0.07200
C 	C 	0.03522 0.03341 0.55956 0.07900
C 	C 	0.05148 0.03335 0.59478 -0.07000
C 	C 	0.08959 0.05332 0.59443 -0.02400
C 	C 	0.94904 0.06897 0.50973 -0.00500
C 	C 	0.96002 0.07739 0.55022 -0.02400
C 	C 	0.97606 0.05883 0.56615 -0.06900
C 	C 	0.98113 0.03152 0.54194 0.07900
C 	C 	0.97096 0.02389 0.50091 -0.07200
C 	C 	0.95499 0.04255 0.48499 -0.02400
C 	C 	0.22794 0.12854 0.55513 0.01100
C 	C 	0.20322 0.08607 0.56300 -0.04100
C 	C 	0.16535 0.06812 0.56413 -0.04100
C 	C 	0.15184 0.09252 0.55765 0.01000
C 	C 	0.17655 0.13503 0.55000 -0.04100
C 	C 	0.21445 0.15296 0.54867 -0.04100
C 	C 	0.88998 0.75122 0.52045 0.01100
C 	C 	0.92781 0.77655 0.52588 -0.04100
C 	C 	0.94505 0.81918 0.53141 -0.04100
C 	C 	0.92459 0.83683 0.53141 0.01000
C 	C 	0.88682 0.81152 0.52555 -0.04100
C 	C 	0.86958 0.76889 0.52015 -0.04100
C 	C 	0.89061 0.11886 0.47080 0.01100
C 	C 	0.87380 0.07588 0.47154 -0.04100
C 	C 	0.89322 0.05962 0.48315 -0.04100
C 	C 	0.92968 0.08619 0.49400 0.01000
C 	C 	0.94690 0.12920 0.49194 -0.04100
C 	C 	0.92743 0.14547 0.48041 -0.04100
H 	H 	0.90908 0.87443 0.59370 0.03500
H 	H 	0.93956 0.94950 0.60533 0.05000
H 	H 	0.01074 0.97410 0.49581 0.04700
H 	H 	0.98016 0.89923 0.48407 0.03500
H 	H 	0.11270 0.08955 0.49582 0.03500
H 	H 	0.04555 0.05441 0.49637 0.04800
H 	H 	0.03446 0.01741 0.62230 0.05000
H 	H 	0.10180 0.05284 0.62179 0.03500
H 	H 	0.95550 0.09771 0.56959 0.03600
H 	H 	0.98397 0.06505 0.59763 0.05100
H 	H 	0.97573 0.00402 0.48128 0.04800
H 	H 	0.94701 0.03627 0.45352 0.03500
H 	H 	0.21337 0.06701 0.56820 0.04100
H 	H 	0.14650 0.03524 0.56989 0.04000
H 	H 	0.16638 0.15414 0.54511 0.04000
H 	H 	0.23331 0.18574 0.54241 0.04000
H 	H 	0.94375 0.76314 0.52621 0.04000
H 	H 	0.97419 0.83845 0.53605 0.04000
H 	H 	0.87085 0.82488 0.52523 0.04000
H 	H 	0.84039 0.74957 0.51577 0.04100
H 	H 	0.84546 0.05510 0.46389 0.04100
H 	H 	0.87969 0.02638 0.48462 0.04000
H 	H 	0.97514 0.14997 0.49994 0.04000
H 	H 	0.94066 0.17869 0.47986 0.04100
Co	Co	0.68857 0.30580 0.95626 1.18200
O 	O 	0.72830 0.30398 0.91788 -0.38300
Co	Co	0.61326 0.30395 0.98740 1.18200
O 	O 	0.63764 0.28078 0.93561 -0.46100
O 	O 	0.65519 0.36316 0.99104 -0.41700
O 	O 	0.68826 0.25057 0.95232 -0.35000
C 	C 	0.68905 0.38031 0.97356 0.33400
O 	O 	0.60737 0.30691 0.92323 -0.36100
C 	C 	0.54780 0.26245 0.02277 0.29300
C 	C 	0.66939 0.30628 0.03651 0.30800
O 	O 	0.57173 0.30169 0.02618 -0.37200
O 	O 	0.56072 0.24609 0.99798 -0.34900
O 	O 	0.70161 0.31823 0.01954 -0.36300
O 	O 	0.64409 0.28614 0.01074 -0.46100
O 	O 	0.69721 0.36047 0.94538 -0.53600
C 	C 	0.71622 0.26608 0.92587 0.29100
C 	C 	0.62870 0.29569 0.90780 0.31000
H 	H 	0.71442 0.37627 0.92062 0.17100
Co	Co	0.69454 0.30894 0.45760 1.18200
O 	O 	0.73683 0.31256 0.41910 -0.38200
Co	Co	0.61687 0.30132 0.48904 1.18400
O 	O 	0.64468 0.28511 0.43456 -0.46100
O 	O 	0.65784 0.35944 0.50030 -0.41800
O 	O 	0.69621 0.25528 0.44733 -0.34800
C 	C 	0.69136 0.38064 0.48145 0.33600
O 	O 	0.61414 0.31172 0.42580 -0.36100
C 	C 	0.55006 0.25530 0.51995 0.28900
C 	C 	0.67124 0.29975 0.53745 0.31000
O 	O 	0.57324 0.29389 0.52795 -0.37300
O 	O 	0.56458 0.24228 0.49299 -0.34600
O 	O 	0.70441 0.31465 0.52173 -0.36600
O 	O 	0.64736 0.28198 0.50983 -0.46300
O 	O 	0.70208 0.36399 0.45214 -0.53400
C 	C 	0.72541 0.27422 0.42274 0.29100
C 	C 	0.63656 0.30266 0.40877 0.30900
H 	H 	0.71978 0.38206 0.42864 0.17000
C 	C 	0.64174 0.28014 0.66696 0.10600
C 	C 	0.61440 0.26144 0.63875 -0.09400
C 	C 	0.62395 0.26710 0.59643 0.03600
C 	C 	0.66110 0.29182 0.58194 -0.11100
C 	C 	0.68853 0.31053 0.61026 0.03800
C 	C 	0.67892 0.30484 0.65252 -0.09200
H 	H 	0.58568 0.24287 0.64966 0.06400
H 	H 	0.60247 0.25257 0.57502 0.02400
H 	H 	0.71725 0.33010 0.59959 0.03400
H 	H 	0.70029 0.32032 0.67403 0.06600
N 	N 	0.63152 0.27699 0.70973 -0.08800
N 	N 	0.65197 0.27889 0.73542 -0.08800
C 	C 	0.63284 0.28920 0.86325 -0.11400
C 	C 	0.65036 0.26948 0.84875 0.03400
C 	C 	0.65595 0.26541 0.80640 -0.09400
C 	C 	0.64387 0.28065 0.77820 0.10600
C 	C 	0.62634 0.30038 0.79266 -0.09300
C 	C 	0.62076 0.30449 0.83493 0.03800
H 	H 	0.65990 0.25760 0.87018 0.02200
H 	H 	0.66992 0.25067 0.79547 0.06300
H 	H 	0.61770 0.31323 0.77118 0.06600
H 	H 	0.60760 0.32021 0.84561 0.03500
C 	C 	0.64583 0.29486 0.16732 0.10700
C 	C 	0.61708 0.27527 0.14089 -0.09300
C 	C 	0.62467 0.27866 0.09820 0.03500
C 	C 	0.66124 0.30197 0.08154 -0.11000
C 	C 	0.69006 0.32212 0.10808 0.03800
C 	C 	0.68241 0.31868 0.15073 -0.09200
H 	H 	0.58881 0.25747 0.15348 0.06400
H 	H 	0.60213 0.26325 0.07817 0.02500
H 	H 	0.71837 0.34082 0.09571 0.03500
H 	H 	0.70485 0.33497 0.17086 0.06600
N 	N 	0.63765 0.29280 0.21049 -0.08800
N 	N 	0.65892 0.29422 0.23468 -0.08800
C 	C 	0.64144 0.29945 0.36371 -0.11300
C 	C 	0.65912 0.28060 0.34685 0.03400
C 	C 	0.66444 0.27854 0.30412 -0.09400
C 	C 	0.65201 0.29502 0.27787 0.10600
C 	C 	0.63477 0.31438 0.29468 -0.09300
C 	C 	0.62943 0.31646 0.33735 0.03800
H 	H 	0.66883 0.26766 0.36676 0.02300
H 	H 	0.67828 0.26418 0.29138 0.06300
H 	H 	0.62599 0.32829 0.27473 0.06600
H 	H 	0.61633 0.33172 0.34987 0.03500
C 	C 	0.83320 0.62018 0.50434 0.08400
C 	C 	0.85996 0.64700 0.47439 -0.06800
C 	C 	0.87901 0.68985 0.47992 -0.02300
C 	C 	0.87158 0.70615 0.51568 -0.00400
C 	C 	0.84574 0.67933 0.54637 -0.02400
C 	C 	0.82677 0.63652 0.54089 -0.06500
H 	H 	0.86543 0.63462 0.44644 0.05300
H 	H 	0.89910 0.71036 0.45618 0.03600
H 	H 	0.84020 0.69166 0.57433 0.03700
H 	H 	0.80694 0.61609 0.56482 0.05700
N 	N 	0.81258 0.57687 0.49728 -0.08600
N 	N 	0.78033 0.55418 0.51227 -0.09000
C 	C 	0.71476 0.42573 0.48854 -0.12300
C 	C 	0.69888 0.44862 0.49344 0.04400
C 	C 	0.72080 0.49113 0.50094 -0.09900
C 	C 	0.75877 0.51131 0.50323 0.10700
C 	C 	0.77475 0.48845 0.49866 -0.09500
C 	C 	0.75281 0.44583 0.49120 0.03600
H 	H 	0.66958 0.43349 0.49128 0.02900
H 	H 	0.70829 0.50850 0.50490 0.06300
H 	H 	0.80397 0.50357 0.50137 0.06400
H 	H 	0.76529 0.42839 0.48806 0.01900
C 	C 	0.82692 0.16720 0.44734 0.08500
C 	C 	0.81796 0.14254 0.48201 -0.06800
C 	C 	0.83895 0.12709 0.48984 -0.02300
C 	C 	0.86893 0.13583 0.46274 -0.00400
C 	C 	0.87792 0.16043 0.42786 -0.02400
C 	C 	0.85690 0.17592 0.42004 -0.06500
H 	H 	0.79467 0.13534 0.50289 0.05500
H 	H 	0.83187 0.10823 0.51690 0.03700
H 	H 	0.90090 0.16714 0.40664 0.03700
H 	H 	0.86360 0.19419 0.39263 0.05700
N 	N 	0.80433 0.18108 0.43903 -0.08500
N 	N 	0.81744 0.21473 0.42129 -0.08900
C 	C 	0.74992 0.25961 0.41582 -0.09600
C 	C 	0.78816 0.28738 0.41737 0.03200
C 	C 	0.81065 0.27244 0.41743 -0.09200
C 	C 	0.79514 0.22978 0.41606 0.10400
C 	C 	0.75726 0.20223 0.41142 -0.08800
C 	C 	0.73476 0.21709 0.41156 0.03100
H 	H 	0.80030 0.32033 0.42013 0.03400
H 	H 	0.83994 0.29390 0.42012 0.06100
H 	H 	0.74517 0.16929 0.40871 0.06500
H 	H 	0.70540 0.19546 0.40939 0.03400
C 	C 	0.43362 0.19771 0.53751 0.10300
C 	C 	0.44773 0.17869 0.51280 -0.09100
C 	C 	0.48568 0.19710 0.50752 0.03000
C 	C 	0.50993 0.23480 0.52707 -0.09400
C 	C 	0.49569 0.25309 0.55310 0.02800
C 	C 	0.45772 0.23460 0.55839 -0.08800
H 	H 	0.42926 0.14986 0.49727 0.06100
H 	H 	0.49619 0.18223 0.48794 0.04000
H 	H 	0.51400 0.28165 0.56913 0.03700
H 	H 	0.44706 0.24888 0.57867 0.06400
N 	N 	0.39509 0.17906 0.54178 -0.08800
N 	N 	0.38225 0.20051 0.54861 -0.08600
C 	C 	0.26792 0.14730 0.55322 -0.00400
C 	C 	0.29002 0.17894 0.58076 -0.02300
C 	C 	0.32785 0.19638 0.57919 -0.06800
C 	C 	0.34379 0.18199 0.55053 0.08600
C 	C 	0.32178 0.15071 0.52259 -0.06500
C 	C 	0.28400 0.13338 0.52401 -0.02400
H 	H 	0.27787 0.18989 0.60343 0.03600
H 	H 	0.34477 0.22089 0.60042 0.05300
H 	H 	0.33401 0.14013 0.49961 0.05700
H 	H 	0.26724 0.10930 0.50232 0.03700
C 	C 	0.81471 0.62226 0.98171 0.08200
C 	C 	0.82368 0.65000 0.94988 -0.06900
C 	C 	0.84522 0.69265 0.95701 -0.02200
C 	C 	0.85770 0.70789 0.99626 -0.01200
C 	C 	0.84906 0.68016 0.02810 -0.01900
C 	C 	0.82752 0.63751 0.02095 -0.06300
H 	H 	0.81358 0.63846 0.91971 0.05300
H 	H 	0.85183 0.71382 0.93221 0.03500
H 	H 	0.85837 0.69164 0.05858 0.03600
H 	H 	0.82012 0.61636 0.04604 0.05700
N 	N 	0.79023 0.57920 0.97496 -0.08600
N 	N 	0.79289 0.55366 0.99327 -0.09000
C 	C 	0.71579 0.42514 0.97927 -0.12300
C 	C 	0.75305 0.44098 0.98284 0.03600
C 	C 	0.77847 0.48355 0.98754 -0.09800
C 	C 	0.76696 0.51061 0.98828 0.10600
C 	C 	0.72955 0.49471 0.98556 -0.09600
C 	C 	0.70413 0.45220 0.98093 0.04300
H 	H 	0.76227 0.42032 0.98213 0.01800
H 	H 	0.80717 0.49555 0.99033 0.06100
H 	H 	0.72022 0.51527 0.98715 0.06500
H 	H 	0.67545 0.44036 0.97824 0.03000
C 	C 	0.81893 0.15489 0.92840 0.08600
C 	C 	0.80500 0.12172 0.95550 -0.06800
C 	C 	0.82695 0.10807 0.96518 -0.02300
C 	C 	0.86290 0.12704 0.94715 -0.00400
C 	C 	0.87668 0.15984 0.91935 -0.02400
C 	C 	0.85476 0.17373 0.91000 -0.06500
H 	H 	0.77727 0.10687 0.96946 0.05300
H 	H 	0.81610 0.08290 0.98683 0.03600
H 	H 	0.90425 0.17444 0.90495 0.03600
H 	H 	0.86549 0.19889 0.88839 0.05600
N 	N 	0.79639 0.16846 0.91907 -0.08600
N 	N 	0.80858 0.20605 0.91935 -0.08800
C 	C 	0.73936 0.24951 0.92010 -0.09600
C 	C 	0.77671 0.27531 0.90670 0.03000
C 	C 	0.79925 0.26031 0.90519 -0.09200
C 	C 	0.78465 0.21942 0.91658 0.10300
C 	C 	0.74698 0.19321 0.92866 -0.08800
C 	C 	0.72448 0.20812 0.93008 0.03000
H 	H 	0.78852 0.30719 0.89844 0.03500
H 	H 	0.82822 0.28072 0.89596 0.06000
H 	H 	0.73533 0.16163 0.93791 0.06400
H 	H 	0.69560 0.18769 0.93980 0.03800
C 	C 	0.34046 0.18597 0.06289 0.08500
C 	C 	0.32274 0.19444 0.09545 -0.06800
C 	C 	0.28486 0.17663 0.09618 -0.02300
C 	C 	0.26449 0.15043 0.06410 -0.00400
C 	C 	0.28232 0.14252 0.03109 -0.02400
C 	C 	0.32016 0.16035 0.03033 -0.06500
H 	H 	0.33829 0.21462 0.12031 0.05400
H 	H 	0.27133 0.18300 0.12174 0.03700
H 	H 	0.26688 0.12269 0.00597 0.03800
H 	H 	0.33372 0.15449 0.00442 0.05800
N 	N 	0.37893 0.20452 0.06234 -0.08600
N 	N 	0.39305 0.18684 0.04525 -0.08800
C 	C 	0.50798 0.24307 0.03151 -0.09500
C 	C 	0.48364 0.19987 0.02967 0.03200
C 	C 	0.44571 0.18146 0.03531 -0.09100
C 	C 	0.43167 0.20588 0.04308 0.10300
C 	C 	0.45603 0.24916 0.04570 -0.08800
C 	C 	0.49400 0.26760 0.04027 0.03000
H 	H 	0.49408 0.18057 0.02345 0.03800
H 	H 	0.42714 0.14816 0.03309 0.06200
H 	H 	0.44559 0.26851 0.05114 0.06500
H 	H 	0.51244 0.30095 0.04195 0.03700
