data_crystal

_cell_length_a 14.56778
_cell_length_b 20.74594
_cell_length_c 29.15333
_cell_angle_alpha 89.99746
_cell_angle_beta  76.74005
_cell_angle_gamma 89.99948

_symmetry_space_group_name_	'P 1'
_symmetry_space_group_name_H-M	'P 1'

loop_
_symmetry_equiv_pos_as_xyz
  x,y,z

loop_
_atom_site_label
_atom_site_type_symbol
_atom_site_fract_x
_atom_site_fract_y
_atom_site_fract_z
_atom_site_charge
Cu	Cu	0.54038 0.42751 0.15850 0.92700
Cu	Cu	0.70391 0.50589 0.19584 0.86500
Cu	Cu	0.51604 0.56554 0.19431 0.89500
Cu	Cu	0.34231 0.49701 0.17937 0.89100
C 	C 	0.36784 0.35509 0.18006 0.28100
O 	O 	0.51327 0.44436 0.09460 -0.36200
C 	C 	0.68666 0.64236 0.19040 0.27500
O 	O 	0.44683 0.48591 0.20702 -0.63800
O 	O 	0.61350 0.50767 0.15589 -0.64200
O 	O 	0.63718 0.36889 0.17291 -0.37800
O 	O 	0.66377 0.43087 0.23276 -0.43700
O 	O 	0.32510 0.40420 0.16502 -0.38500
O 	O 	0.41998 0.61754 0.23447 -0.38400
C 	C 	0.33213 0.62222 0.22997 0.28300
C 	C 	0.48158 0.50030 0.08358 0.27600
O 	O 	0.43398 0.53826 0.11674 -0.39400
O 	O 	0.28620 0.57112 0.21980 -0.39400
O 	O 	0.46060 0.35356 0.17288 -0.36500
C 	C 	0.66384 0.37422 0.21273 0.28500
O 	O 	0.59728 0.64191 0.18760 -0.38100
O 	O 	0.74150 0.59205 0.17695 -0.41700
H 	H 	0.43118 0.47288 0.24059 0.16200
H 	H 	0.64003 0.52433 0.12375 0.17000
Cu	Cu	0.44977 0.42750 0.81181 0.92800
Cu	Cu	0.28624 0.50589 0.77447 0.86600
Cu	Cu	0.47411 0.56554 0.77600 0.89600
Cu	Cu	0.64784 0.49701 0.79093 0.89200
C 	C 	0.62231 0.35509 0.79025 0.28200
O 	O 	0.47688 0.44435 0.87571 -0.36100
C 	C 	0.30350 0.64235 0.77991 0.27500
O 	O 	0.54333 0.48590 0.76328 -0.63800
O 	O 	0.37666 0.50766 0.81442 -0.64200
O 	O 	0.35297 0.36888 0.79739 -0.37800
O 	O 	0.32638 0.43087 0.73755 -0.43700
O 	O 	0.66506 0.40419 0.80529 -0.38500
O 	O 	0.57017 0.61754 0.73584 -0.38400
C 	C 	0.65803 0.62222 0.74033 0.28300
C 	C 	0.50857 0.50029 0.88673 0.27600
O 	O 	0.55617 0.53825 0.85356 -0.39400
O 	O 	0.70395 0.57111 0.75050 -0.39400
O 	O 	0.52956 0.35356 0.79743 -0.36500
C 	C 	0.32631 0.37421 0.75758 0.28500
O 	O 	0.39287 0.64190 0.78270 -0.38100
O 	O 	0.24865 0.59204 0.79336 -0.41700
H 	H 	0.55897 0.47288 0.72971 0.16200
H 	H 	0.35012 0.52432 0.84656 0.17000
Cu	Cu	0.94977 0.92750 0.31181 0.92900
Cu	Cu	0.78624 0.00589 0.27447 0.86400
Cu	Cu	0.97411 0.06554 0.27600 0.89500
Cu	Cu	0.14784 0.99701 0.29093 0.89400
C 	C 	0.12231 0.85509 0.29025 0.28200
O 	O 	0.97688 0.94435 0.37571 -0.35700
C 	C 	0.80350 0.14235 0.27991 0.27500
O 	O 	0.04333 0.98590 0.26328 -0.63600
O 	O 	0.87666 0.00766 0.31442 -0.64500
O 	O 	0.85297 0.86888 0.29740 -0.37600
O 	O 	0.82638 0.93087 0.23755 -0.43500
O 	O 	0.16506 0.90419 0.30529 -0.38400
O 	O 	0.07017 0.11754 0.23584 -0.38500
C 	C 	0.15803 0.12222 0.24033 0.28300
C 	C 	0.00857 0.00029 0.38673 0.27100
O 	O 	0.05617 0.03825 0.35356 -0.39500
O 	O 	0.20395 0.07111 0.25050 -0.39600
O 	O 	0.02956 0.85356 0.29743 -0.36400
C 	C 	0.82631 0.87421 0.25758 0.28500
O 	O 	0.89287 0.14190 0.28270 -0.38200
O 	O 	0.74865 0.09204 0.29336 -0.41800
H 	H 	0.05897 0.97288 0.22971 0.16300
H 	H 	0.85012 0.02432 0.34656 0.17000
Cu	Cu	0.04038 0.92751 0.65850 0.92900
Cu	Cu	0.20391 0.00590 0.69584 0.86400
Cu	Cu	0.01604 0.06554 0.69431 0.89500
Cu	Cu	0.84231 0.99701 0.67937 0.89400
C 	C 	0.86784 0.85509 0.68006 0.28200
O 	O 	0.01327 0.94436 0.59459 -0.35700
C 	C 	0.18666 0.14236 0.69040 0.27500
O 	O 	0.94683 0.98591 0.70702 -0.63600
O 	O 	0.11350 0.00767 0.65589 -0.64500
O 	O 	0.13718 0.86889 0.67291 -0.37600
O 	O 	0.16377 0.93087 0.73276 -0.43500
O 	O 	0.82510 0.90420 0.66502 -0.38400
O 	O 	0.91998 0.11754 0.73447 -0.38500
C 	C 	0.83213 0.12222 0.72997 0.28300
C 	C 	0.98158 0.00031 0.58358 0.27100
O 	O 	0.93398 0.03826 0.61674 -0.39500
O 	O 	0.78620 0.07112 0.71980 -0.39600
O 	O 	0.96060 0.85356 0.67288 -0.36400
C 	C 	0.16384 0.87422 0.71273 0.28500
O 	O 	0.09728 0.14191 0.68760 -0.38200
O 	O 	0.24150 0.09205 0.67695 -0.41800
H 	H 	0.93118 0.97288 0.74059 0.16300
H 	H 	0.14003 0.02433 0.62375 0.17000
C 	C 	0.08368 0.01886 0.45385 -0.01000
C 	C 	0.00168 0.01605 0.43641 -0.06800
C 	C 	0.91303 0.01822 0.46785 -0.01200
C 	C 	0.90646 0.01883 0.51646 -0.01000
C 	C 	0.98846 0.01606 0.53389 -0.06800
C 	C 	0.07711 0.01825 0.50245 -0.01200
H 	H 	0.15248 0.01764 0.42981 0.02800
H 	H 	0.84929 0.01666 0.45468 0.02700
H 	H 	0.83766 0.01759 0.54050 0.02800
H 	H 	0.14085 0.01672 0.51562 0.02700
C 	C 	0.80937 0.67875 0.70475 -0.01300
C 	C 	0.71161 0.68147 0.72361 -0.06700
C 	C 	0.66528 0.74130 0.72756 -0.01500
C 	C 	0.71613 0.79777 0.71312 -0.01300
C 	C 	0.81393 0.79513 0.69444 -0.06700
C 	C 	0.86021 0.73519 0.69027 -0.01200
H 	H 	0.84600 0.63294 0.70104 0.03700
H 	H 	0.59008 0.74420 0.74246 0.04000
H 	H 	0.67960 0.84364 0.71705 0.02900
H 	H 	0.93545 0.73217 0.67560 0.04400
C 	C 	0.62994 0.23519 0.78004 -0.01200
C 	C 	0.67622 0.29513 0.77587 -0.06700
C 	C 	0.77403 0.29777 0.75718 -0.01400
C 	C 	0.82487 0.24130 0.74275 -0.01500
C 	C 	0.77854 0.18147 0.74670 -0.06800
C 	C 	0.68078 0.17875 0.76556 -0.01300
H 	H 	0.55471 0.23217 0.79471 0.04400
H 	H 	0.81055 0.34364 0.75326 0.02900
H 	H 	0.90007 0.24420 0.72784 0.04000
H 	H 	0.64415 0.13294 0.76927 0.03700
C 	C 	0.22024 0.31908 0.71393 -0.01300
C 	C 	0.29735 0.31645 0.73523 -0.07600
C 	C 	0.34289 0.25744 0.73787 -0.01000
C 	C 	0.30917 0.20109 0.72129 -0.01600
C 	C 	0.22920 0.20305 0.70204 -0.07000
C 	C 	0.18608 0.26262 0.69754 -0.01400
H 	H 	0.18489 0.36445 0.71144 0.02300
H 	H 	0.40351 0.25504 0.75350 0.04100
H 	H 	0.34338 0.15560 0.72486 0.02600
H 	H 	0.12524 0.26512 0.68210 0.04100
C 	C 	0.18098 0.70109 0.74902 -0.01600
C 	C 	0.26095 0.70305 0.76827 -0.07000
C 	C 	0.30407 0.76262 0.77277 -0.01300
C 	C 	0.26991 0.81908 0.75638 -0.01200
C 	C 	0.19280 0.81645 0.73508 -0.07500
C 	C 	0.14725 0.75744 0.73244 -0.01000
H 	H 	0.14676 0.65560 0.74545 0.02700
H 	H 	0.36491 0.76511 0.78820 0.04100
H 	H 	0.30526 0.86445 0.75886 0.02400
H 	H 	0.08664 0.75505 0.71681 0.04200
C 	C 	0.32487 0.74130 0.24275 -0.01500
C 	C 	0.27854 0.68147 0.24669 -0.06700
C 	C 	0.18078 0.67875 0.26556 -0.01300
C 	C 	0.12994 0.73519 0.28003 -0.01200
C 	C 	0.17622 0.79513 0.27587 -0.06700
C 	C 	0.27403 0.79777 0.25718 -0.01300
H 	H 	0.40007 0.74420 0.22784 0.04000
H 	H 	0.14415 0.63294 0.26927 0.03700
H 	H 	0.05470 0.73217 0.29471 0.04400
H 	H 	0.31055 0.84364 0.25326 0.02900
C 	C 	0.84289 0.75744 0.23787 -0.01000
C 	C 	0.79735 0.81645 0.23523 -0.07500
C 	C 	0.72024 0.81908 0.21393 -0.01200
C 	C 	0.68608 0.76262 0.19754 -0.01300
C 	C 	0.72920 0.70305 0.20204 -0.07000
C 	C 	0.80917 0.70109 0.22129 -0.01600
H 	H 	0.90351 0.75504 0.25350 0.04200
H 	H 	0.68489 0.86445 0.21144 0.02400
H 	H 	0.62524 0.76512 0.18210 0.04100
H 	H 	0.84339 0.65560 0.22486 0.02700
C 	C 	0.64725 0.25744 0.23244 -0.01000
C 	C 	0.69280 0.31645 0.23508 -0.07600
C 	C 	0.76991 0.31908 0.25638 -0.01300
C 	C 	0.80407 0.26262 0.27277 -0.01400
C 	C 	0.76095 0.20305 0.26827 -0.07000
C 	C 	0.68097 0.20109 0.24902 -0.01600
H 	H 	0.58664 0.25505 0.21681 0.04100
H 	H 	0.80526 0.36445 0.25887 0.02300
H 	H 	0.86491 0.26511 0.28820 0.04100
H 	H 	0.64676 0.15560 0.24545 0.02600
C 	C 	0.21613 0.29777 0.21312 -0.01400
C 	C 	0.31394 0.29513 0.19444 -0.06700
C 	C 	0.36021 0.23519 0.19027 -0.01200
C 	C 	0.30937 0.17875 0.20475 -0.01300
C 	C 	0.21162 0.18147 0.22361 -0.06800
C 	C 	0.16528 0.24130 0.22755 -0.01500
H 	H 	0.17960 0.34364 0.21705 0.02900
H 	H 	0.43545 0.23217 0.17560 0.04400
H 	H 	0.34601 0.13294 0.20104 0.03700
H 	H 	0.09008 0.24420 0.24246 0.04000
C 	C 	0.40646 0.51883 0.01646 -0.00900
C 	C 	0.48846 0.51605 0.03389 -0.06900
C 	C 	0.57711 0.51825 0.00245 -0.01100
C 	C 	0.58368 0.51886 0.95385 -0.00900
C 	C 	0.50168 0.51605 0.93641 -0.06900
C 	C 	0.41303 0.51822 0.96785 -0.01100
H 	H 	0.33766 0.51759 0.04050 0.02900
H 	H 	0.64085 0.51672 0.01562 0.02700
H 	H 	0.65248 0.51764 0.92981 0.02900
H 	H 	0.34929 0.51666 0.95468 0.02700
