data_crystal

_cell_length_a 18.57595
_cell_length_b 18.87840
_cell_length_c 34.59155
_cell_angle_alpha 95.43593
_cell_angle_beta  95.43714
_cell_angle_gamma 126.41996

_symmetry_space_group_name_	'P 1'
_symmetry_space_group_name_H-M	'P 1'

loop_
_symmetry_equiv_pos_as_xyz
  x,y,z

loop_
_atom_site_label
_atom_site_type_symbol
_atom_site_fract_x
_atom_site_fract_y
_atom_site_fract_z
_atom_site_charge
C 	C 	0.90107 0.00946 0.96649 0.02800
C 	C 	0.99368 0.06455 0.96440 -0.06400
C 	C 	0.04235 0.02975 0.96441 0.02200
C 	C 	0.99851 0.93942 0.96635 -0.06100
C 	C 	0.90503 0.88269 0.96683 0.02800
C 	C 	0.85611 0.91787 0.96725 -0.07100
H 	H 	0.02829 0.13498 0.96363 0.04800
H 	H 	0.03671 0.91287 0.96673 0.05000
H 	H 	0.78421 0.87476 0.96851 0.05100
C 	C 	0.95572 0.02565 0.49828 0.04300
C 	C 	0.89613 0.93368 0.49848 -0.08200
C 	C 	0.92805 0.88267 0.49717 0.04300
C 	C 	0.01937 0.92327 0.49529 -0.08200
C 	C 	0.07991 0.01563 0.49636 0.04000
C 	C 	0.04810 0.06702 0.49777 -0.08300
H 	H 	0.82490 0.90175 0.49918 0.05400
H 	H 	0.04376 0.88338 0.49387 0.05600
H 	H 	0.09454 0.13836 0.49795 0.05300
Cu	Cu	0.75741 0.35657 0.96207 0.92800
Cu	Cu	0.73958 0.29379 0.04808 0.87000
Cu	Cu	0.60250 0.30501 0.00548 0.89700
Cu	Cu	0.58804 0.34396 0.92461 0.89400
C 	C 	0.70410 0.32481 0.87796 0.29400
O 	O 	0.80681 0.48566 0.95927 -0.35600
C 	C 	0.65072 0.34337 0.09317 0.29500
O 	O 	0.61477 0.27933 0.95276 -0.63800
O 	O 	0.73712 0.37125 0.01629 -0.64400
O 	O 	0.81964 0.30037 0.97153 -0.37000
O 	O 	0.71652 0.20512 0.00689 -0.44400
O 	O 	0.66540 0.36408 0.88418 -0.38500
O 	O 	0.47203 0.23321 0.99186 -0.38400
C 	C 	0.42594 0.24335 0.96447 0.30000
C 	C 	0.76209 0.51663 0.96930 0.28400
O 	O 	0.67572 0.46025 0.97138 -0.39100
O 	O 	0.46143 0.28366 0.93468 -0.39300
O 	O 	0.75307 0.32271 0.90745 -0.36200
C 	C 	0.77748 0.22461 0.98488 0.29500
O 	O 	0.58746 0.31127 0.06117 -0.38900
O 	O 	0.72658 0.35296 0.09144 -0.41700
H 	H 	0.57843 0.21465 0.94144 0.16700
H 	H 	0.77137 0.43395 0.03034 0.17500
Cu	Cu	0.62537 0.19093 0.50551 0.92800
Cu	Cu	0.69211 0.20502 0.42040 0.87100
Cu	Cu	0.66673 0.33456 0.45771 0.89900
Cu	Cu	0.61990 0.34875 0.53690 0.89500
C 	C 	0.65324 0.25010 0.58865 0.29200
O 	O 	0.49221 0.13268 0.50692 -0.36200
C 	C 	0.63574 0.28122 0.37049 0.29400
O 	O 	0.69404 0.32982 0.51169 -0.64000
O 	O 	0.60847 0.20367 0.44999 -0.64100
O 	O 	0.68705 0.13424 0.49934 -0.37200
O 	O 	0.78229 0.23425 0.46331 -0.44000
O 	O 	0.60651 0.28040 0.57992 -0.38600
O 	O 	0.73049 0.46222 0.46887 -0.38500
C 	C 	0.71680 0.50584 0.49558 0.30000
C 	C 	0.45394 0.16853 0.49394 0.28800
O 	O 	0.50534 0.25264 0.49002 -0.39600
O 	O 	0.66810 0.46775 0.52298 -0.39500
O 	O 	0.66099 0.20299 0.56099 -0.36000
C 	C 	0.76388 0.17594 0.48608 0.29500
O 	O 	0.66155 0.34407 0.40121 -0.38500
O 	O 	0.62949 0.20934 0.37497 -0.42000
H 	H 	0.75965 0.37055 0.52373 0.16600
H 	H 	0.54469 0.16516 0.43544 0.17600
C 	C 	0.67275 0.18553 0.68744 -0.07300
C 	C 	0.70988 0.26634 0.71307 0.01300
C 	C 	0.74080 0.34410 0.69739 -0.00500
C 	C 	0.72913 0.33895 0.65644 -0.00500
C 	C 	0.68339 0.25632 0.63071 -0.09100
C 	C 	0.65665 0.17919 0.64641 0.05700
C 	C 	0.70571 0.26655 0.75562 0.01300
S 	S 	0.78925 0.44717 0.72865 -0.04100
H 	H 	0.75142 0.39861 0.64453 0.02700
S 	S 	0.59682 0.07328 0.61557 -0.03300
H 	H 	0.65058 0.12607 0.69950 0.05100
C 	C 	0.62327 0.23347 0.76868 -0.00700
C 	C 	0.62315 0.24692 0.80910 -0.00600
C 	C 	0.70496 0.29674 0.83678 -0.09200
C 	C 	0.78726 0.32714 0.82379 0.05800
C 	C 	0.78631 0.30897 0.78344 -0.07300
S 	S 	0.52050 0.17911 0.73464 -0.04300
H 	H 	0.55968 0.22211 0.81896 0.02700
S 	S 	0.89264 0.39395 0.85691 -0.03500
H 	H 	0.84949 0.33319 0.77345 0.05300
H 	H 	0.50537 0.03309 0.60969 0.03900
H 	H 	0.48003 0.08932 0.72577 0.03300
H 	H 	0.91123 0.34009 0.87119 0.04500
H 	H 	0.72121 0.45166 0.73691 0.03700
C 	C 	0.68266 0.42530 0.20136 -0.07500
C 	C 	0.61193 0.34565 0.21187 0.01300
C 	C 	0.54260 0.27319 0.18199 -0.00600
C 	C 	0.55096 0.27689 0.14231 -0.00600
C 	C 	0.62854 0.35188 0.13225 -0.09600
C 	C 	0.69157 0.42864 0.16169 0.05800
C 	C 	0.62062 0.33259 0.25304 0.01200
S 	S 	0.44828 0.17534 0.19406 -0.04600
H 	H 	0.50029 0.21899 0.11955 0.03600
S 	S 	0.78165 0.52893 0.14924 -0.05800
H 	H 	0.73403 0.48258 0.22423 0.05100
C 	C 	0.67347 0.30534 0.26590 -0.00700
C 	C 	0.67825 0.28961 0.30437 -0.00400
C 	C 	0.62950 0.29912 0.33021 -0.09600
C 	C 	0.57574 0.32553 0.31725 0.05800
C 	C 	0.57283 0.34350 0.27896 -0.07400
S 	S 	0.73288 0.28930 0.23384 -0.05100
H 	H 	0.71993 0.26975 0.31425 0.02700
S 	S 	0.50714 0.33039 0.34750 -0.05300
H 	H 	0.53139 0.36354 0.26895 0.05200
H 	H 	0.75334 0.57932 0.14113 0.03700
H 	H 	0.81692 0.36909 0.23591 0.03300
H 	H 	0.42315 0.24850 0.34060 0.03500
H 	H 	0.46991 0.11908 0.20068 0.03500
C 	C 	0.86603 0.78656 0.49808 -0.00100
C 	C 	0.80734 0.72575 0.46322 -0.06900
C 	C 	0.75488 0.63350 0.46241 0.05700
C 	C 	0.76248 0.60169 0.49670 -0.09400
C 	C 	0.81756 0.66263 0.53207 -0.00500
C 	C 	0.86911 0.75478 0.53296 -0.00300
S 	S 	0.67730 0.55880 0.41890 -0.04900
S 	S 	0.93723 0.82978 0.57787 -0.04100
H 	H 	0.88851 0.85035 0.59673 0.03500
H 	H 	0.71910 0.53609 0.39571 0.05000
H 	H 	0.80341 0.75033 0.43662 0.05000
H 	H 	0.82196 0.63829 0.55868 0.03400
C 	C 	0.82037 0.14521 0.49022 -0.10100
C 	C 	0.84347 0.12219 0.45632 -0.00500
C 	C 	0.89269 0.08808 0.45896 -0.00400
C 	C 	0.91964 0.07694 0.49593 -0.00100
C 	C 	0.90041 0.10392 0.53012 -0.06900
C 	C 	0.85109 0.13811 0.52752 0.05500
S 	S 	0.91743 0.05659 0.41558 -0.04900
S 	S 	0.83034 0.17370 0.57115 -0.03200
H 	H 	0.89860 0.26319 0.58482 0.03500
H 	H 	0.85003 0.96748 0.40059 0.03300
H 	H 	0.82112 0.12876 0.42768 0.01500
H 	H 	0.92185 0.09613 0.55864 0.05100
C 	C 	0.17685 0.05829 0.49634 -0.00200
C 	C 	0.21011 0.07946 0.46114 -0.07000
C 	C 	0.29943 0.11134 0.45937 0.05500
C 	C 	0.35644 0.12259 0.49322 -0.09500
C 	C 	0.32279 0.10054 0.52829 -0.00700
C 	C 	0.23386 0.06950 0.53016 -0.00200
S 	S 	0.33830 0.13463 0.41439 -0.06600
S 	S 	0.19548 0.04740 0.57531 -0.04200
H 	H 	0.21165 0.12272 0.59583 0.03400
H 	H 	0.37868 0.22290 0.41313 0.03900
H 	H 	0.16592 0.06966 0.43495 0.05000
H 	H 	0.36695 0.11048 0.55454 0.04200
C 	C 	0.85878 0.78610 0.96630 0.00700
C 	C 	0.84081 0.75350 0.00174 -0.07500
C 	C 	0.81230 0.66657 0.00349 0.05000
C 	C 	0.80207 0.61151 0.96948 -0.08600
C 	C 	0.81899 0.64375 0.93396 -0.00800
C 	C 	0.84599 0.72999 0.93205 -0.00400
S 	S 	0.79228 0.62851 0.04866 -0.06300
S 	S 	0.86185 0.76639 0.88644 -0.03900
H 	H 	0.78213 0.74657 0.86742 0.03400
H 	H 	0.87056 0.64753 0.06901 0.03400
H 	H 	0.85138 0.79663 0.02823 0.05100
H 	H 	0.80883 0.60080 0.90750 0.04200
C 	C 	0.85368 0.05003 0.97080 0.00700
C 	C 	0.82521 0.07014 0.93730 -0.07100
C 	C 	0.80141 0.12811 0.94138 0.05400
C 	C 	0.80605 0.16662 0.97946 -0.09400
C 	C 	0.83076 0.14337 0.01283 -0.00900
C 	C 	0.85419 0.08528 0.00871 -0.00800
S 	S 	0.76446 0.15039 0.89865 -0.03900
S 	S 	0.88676 0.05930 0.05133 -0.05100
H 	H 	0.97954 0.11820 0.06303 0.03400
H 	H 	0.67143 0.09104 0.88839 0.03400
H 	H 	0.82468 0.04315 0.90808 0.05100
H 	H 	0.83238 0.17108 0.04211 0.01800
C 	C 	0.14024 0.08871 0.96339 0.00400
C 	C 	0.20227 0.14985 0.99759 -0.06800
C 	C 	0.29586 0.20415 0.99778 0.05900
C 	C 	0.32807 0.19606 0.96354 -0.09400
C 	C 	0.26571 0.13748 0.92886 -0.00400
C 	C 	0.17210 0.08405 0.92857 -0.00500
S 	S 	0.37161 0.28434 0.04047 -0.05600
S 	S 	0.09544 0.01221 0.88441 -0.04300
H 	H 	0.07051 0.05582 0.86429 0.03400
H 	H 	0.39664 0.24657 0.06499 0.04900
H 	H 	0.17758 0.15495 0.02410 0.04600
H 	H 	0.29017 0.13197 0.90234 0.03600
