data_crystal

_cell_length_a 18.40973
_cell_length_b 18.28890
_cell_length_c 17.04578
_cell_angle_alpha 98.99302
_cell_angle_beta  91.60605
_cell_angle_gamma 91.42217

_symmetry_space_group_name_	'P 1'
_symmetry_space_group_name_H-M	'P 1'

loop_
_symmetry_equiv_pos_as_xyz
  x,y,z

loop_
_atom_site_label
_atom_site_type_symbol
_atom_site_fract_x
_atom_site_fract_y
_atom_site_fract_z
_atom_site_charge
Zn	Zn	0.12451 0.86900 0.38523 1.19000
Zn	Zn	0.21037 0.02229 0.42579 1.19100
O 	O 	0.17395 0.17235 0.33367 -0.42600
O 	O 	0.26009 0.10088 0.37390 -0.40300
O 	O 	0.99131 0.13053 0.35014 -0.43500
C 	C 	0.08606 0.84854 0.21734 0.31100
O 	O 	0.13625 0.09222 0.46399 -0.88100
C 	C 	0.28592 0.87781 0.40175 0.33300
O 	O 	0.08847 0.81608 0.28099 -0.43700
O 	O 	0.05490 0.81403 0.15167 -0.17000
O 	O 	0.13484 0.95233 0.45792 -0.77000
O 	O 	0.99545 0.00920 0.36659 -0.41000
O 	O 	0.28350 0.94829 0.39260 -0.40800
O 	O 	0.22695 0.83403 0.39019 -0.43600
Zn	Zn	0.01304 0.15652 0.62413 1.17900
Zn	Zn	0.91657 0.02826 0.53320 1.20100
Zn	Zn	0.06692 0.02521 0.49368 1.20100
C 	C 	0.86681 0.17374 0.56816 0.33300
C 	C 	0.99097 0.09678 0.76040 0.39500
O 	O 	0.14200 0.03161 0.61887 -0.47300
Zn	Zn	0.00591 0.94460 0.63194 1.19100
O 	O 	0.84263 0.10517 0.54419 -0.39300
O 	O 	0.90826 0.18688 0.63336 -0.38400
O 	O 	0.03243 0.14512 0.73245 -0.52300
O 	O 	0.95493 0.04558 0.71008 -0.43300
C 	C 	0.85112 0.90939 0.60987 0.32800
O 	O 	0.00218 0.09925 0.52876 -0.86400
C 	C 	0.15263 0.98170 0.66706 0.35600
O 	O 	0.84827 0.94478 0.54813 -0.38200
O 	O 	0.91359 0.88952 0.63907 -0.38700
O 	O 	0.09613 0.94634 0.69043 -0.44000
O 	O 	0.99554 0.96102 0.52584 -0.82700
Zn	Zn	0.08911 0.14821 0.39279 1.19100
C 	C 	0.21909 0.11843 0.31591 0.31400
C 	C 	0.96363 0.06268 0.33452 0.31400
H 	H 	0.98519 0.91560 0.48685 0.19200
H 	H 	0.15494 0.12598 0.51181 0.15600
Zn	Zn	0.85285 0.42104 0.19853 1.19900
Zn	Zn	0.02849 0.43114 0.23929 1.18100
O 	O 	0.19689 0.40139 0.16899 -0.46200
O 	O 	0.12156 0.37237 0.26478 -0.41400
O 	O 	0.07839 0.31467 0.02275 -0.45000
C 	C 	0.76146 0.32254 0.09128 0.30900
O 	O 	0.06911 0.47069 0.14903 -0.91200
C 	C 	0.92651 0.34324 0.31639 0.31800
O 	O 	0.76069 0.38007 0.14781 -0.41900
O 	O 	0.82331 0.29137 0.07254 -0.23700
O 	O 	0.93820 0.47306 0.18974 -0.72600
O 	O 	0.96220 0.35571 0.03905 -0.34300
O 	O 	0.97771 0.39588 0.32776 -0.39700
O 	O 	0.88428 0.33450 0.25160 -0.43000
Zn	Zn	0.10143 0.56666 0.91970 1.20900
Zn	Zn	0.90401 0.50953 0.92203 1.20500
Zn	Zn	0.98219 0.48469 0.09090 1.23700
C 	C 	0.95404 0.61382 0.81764 0.34700
C 	C 	0.11454 0.72055 0.96164 0.31100
O 	O 	0.99439 0.61536 0.16450 -0.30100
Zn	Zn	0.89448 0.61524 0.01915 1.17500
O 	O 	0.91442 0.55006 0.80005 -0.26900
O 	O 	0.02829 0.61064 0.80718 -0.26800
O 	O 	0.15287 0.66082 0.94359 -0.42200
O 	O 	0.04228 0.71720 0.94970 -0.23200
C 	C 	0.76768 0.57491 0.90764 0.33900
O 	O 	0.02731 0.49040 0.98840 -0.54600
C 	C 	0.96013 0.66892 0.13697 0.29500
O 	O 	0.79613 0.50961 0.89671 -0.42100
O 	O 	0.80212 0.62886 0.95456 -0.44500
O 	O 	0.89120 0.66230 0.13116 -0.39800
O 	O 	0.89319 0.50061 0.02685 -0.81000
Zn	Zn	0.12082 0.39992 0.08843 1.19100
C 	C 	0.18553 0.36801 0.23035 0.34000
C 	C 	0.00754 0.30253 0.01498 0.19600
H 	H 	0.84506 0.48489 0.04391 0.17500
H 	H 	0.09784 0.51736 0.16522 0.19600
Zn	Zn	0.56283 0.11483 0.85012 1.20000
Zn	Zn	0.58411 0.93382 0.82647 1.20200
O 	O 	0.71903 0.83468 0.82373 -0.43100
O 	O 	0.60253 0.82925 0.77046 -0.40600
O 	O 	0.76908 0.93822 0.01536 -0.42900
C 	C 	0.50379 0.25783 0.89220 0.29200
O 	O 	0.61063 0.90562 0.92499 -0.90200
C 	C 	0.59046 0.01482 0.70456 0.23900
O 	O 	0.49355 0.19414 0.84539 -0.38900
O 	O 	0.45422 0.30843 0.89472 -0.17400
O 	O 	0.59866 0.03683 0.89566 -0.81000
O 	O 	0.68569 0.02466 0.06390 -0.42800
O 	O 	0.54656 0.96863 0.73177 -0.37000
O 	O 	0.58779 0.08576 0.73389 -0.34900
Zn	Zn	0.47075 0.88190 0.03994 1.19000
Zn	Zn	0.50414 0.02671 0.14106 1.18100
Zn	Zn	0.57116 0.98978 0.98403 1.22800
C 	C 	0.46898 0.89762 0.21642 0.33000
C 	C 	0.33172 0.93287 0.01364 0.33200
O 	O 	0.45793 0.95752 0.89244 -0.44100
Zn	Zn	0.43497 0.08571 0.00749 1.19600
O 	O 	0.48878 0.96890 0.22811 -0.38500
O 	O 	0.43796 0.86675 0.14787 -0.41500
O 	O 	0.37850 0.88378 0.98481 -0.46500
O 	O 	0.35588 0.99780 0.05308 -0.35600
C 	C 	0.40058 0.16087 0.16057 0.34200
O 	O 	0.54617 0.94145 0.06819 -0.77700
C 	C 	0.41205 0.00296 0.86272 0.19700
O 	O 	0.43953 0.11378 0.19538 -0.39400
O 	O 	0.40923 0.16731 0.08600 -0.44800
O 	O 	0.40209 0.06832 0.90259 -0.46500
O 	O 	0.52765 0.07321 0.04815 -0.91900
Zn	Zn	0.70989 0.90921 0.92097 1.20700
C 	C 	0.66252 0.79572 0.78783 0.32200
C 	C 	0.74724 0.98894 0.07299 0.43600
H 	H 	0.55889 0.11866 0.06035 0.20600
H 	H 	0.58804 0.85782 0.93322 0.16000
C 	C 	0.71361 0.59437 0.84994 -0.08200
C 	C 	0.64894 0.62662 0.87820 0.17800
C 	C 	0.62194 0.68686 0.84591 -0.04600
C 	C 	0.66028 0.71519 0.78666 -0.09700
C 	C 	0.71379 0.67171 0.74654 0.19300
C 	C 	0.73852 0.60955 0.77691 -0.04800
H 	H 	0.57678 0.71684 0.87333 0.04700
H 	H 	0.78363 0.57955 0.74966 0.09500
Cl	Cl	0.60739 0.59881 0.96088 -0.31000
Cl	Cl	0.75555 0.69910 0.66375 -0.29100
C 	C 	0.69591 0.30087 0.04079 -0.09100
C 	C 	0.62782 0.29216 0.07457 0.17500
C 	C 	0.56514 0.27907 0.02551 -0.06500
C 	C 	0.57002 0.27189 0.94277 -0.14400
C 	C 	0.63840 0.27723 0.90885 0.14600
C 	C 	0.70085 0.29193 0.95786 -0.04000
H 	H 	0.51273 0.27337 0.05169 0.06900
H 	H 	0.75304 0.29824 0.93149 0.08300
Cl	Cl	0.62072 0.29310 0.17759 -0.31400
Cl	Cl	0.64638 0.26826 0.80504 -0.30900
C 	C 	0.15200 0.79038 0.99767 -0.07200
C 	C 	0.20375 0.79004 0.05988 0.19100
C 	C 	0.25686 0.84656 0.07554 -0.05400
C 	C 	0.25935 0.90375 0.02963 -0.06600
C 	C 	0.19977 0.91119 0.97801 0.19000
C 	C 	0.14667 0.85383 0.96120 -0.03000
H 	H 	0.30042 0.84215 0.11835 0.09200
H 	H 	0.10409 0.85681 0.91670 0.10000
Cl	Cl	0.20471 0.71718 0.11650 -0.33400
Cl	Cl	0.19226 0.99052 0.93234 -0.24600
C 	C 	0.34006 0.20036 0.20172 -0.08700
C 	C 	0.26911 0.18829 0.16787 0.18800
C 	C 	0.21489 0.23816 0.19108 -0.04800
C 	C 	0.23171 0.30529 0.23965 -0.09300
C 	C 	0.30135 0.31681 0.27680 0.19000
C 	C 	0.35481 0.26333 0.25922 -0.03700
H 	H 	0.16092 0.22829 0.16452 0.07900
H 	H 	0.40913 0.27375 0.28539 0.09400
Cl	Cl	0.24899 0.11521 0.08996 -0.30900
Cl	Cl	0.32319 0.39902 0.34248 -0.29000
C 	C 	0.66013 0.98542 0.67956 -0.06700
C 	C 	0.66154 0.92602 0.61605 0.18500
C 	C 	0.72206 0.88163 0.60709 -0.03700
C 	C 	0.78520 0.90334 0.65289 -0.06700
C 	C 	0.77891 0.95167 0.72448 0.16000
C 	C 	0.71888 0.99667 0.73495 -0.02900
H 	H 	0.72426 0.83835 0.55596 0.10500
H 	H 	0.71539 0.03646 0.78888 -0.00100
Cl	Cl	0.58839 0.90746 0.54681 -0.24700
Cl	Cl	0.84633 0.95692 0.80049 -0.30200
C 	C 	0.22728 0.97500 0.70493 -0.05000
C 	C 	0.24378 0.91752 0.74969 0.20000
C 	C 	0.31022 0.92037 0.79432 -0.06800
C 	C 	0.36233 0.97741 0.79166 0.02700
C 	C 	0.35069 0.02559 0.73534 0.12900
C 	C 	0.28302 0.02618 0.69513 -0.07600
H 	H 	0.31958 0.87995 0.83334 0.09500
H 	H 	0.27414 0.06689 0.65628 0.07100
Cl	Cl	0.18537 0.83930 0.74683 -0.32300
Cl	Cl	0.41981 0.08697 0.71541 -0.31200
C 	C 	0.35731 0.84421 0.39601 -0.08700
C 	C 	0.41824 0.89122 0.41977 0.19600
C 	C 	0.46953 0.90096 0.36287 -0.02500
C 	C 	0.46076 0.85947 0.28629 -0.08000
C 	C 	0.41904 0.79277 0.27836 0.19000
C 	C 	0.36641 0.78517 0.33431 -0.03900
H 	H 	0.50911 0.94649 0.37452 0.11500
H 	H 	0.32640 0.74001 0.32302 0.09100
Cl	Cl	0.41784 0.95380 0.50949 -0.24600
Cl	Cl	0.43102 0.72057 0.19893 -0.30000
C 	C 	0.79694 0.01258 0.14456 -0.19800
C 	C 	0.84633 0.07306 0.14712 0.22200
C 	C 	0.89771 0.09046 0.21077 -0.03500
C 	C 	0.90412 0.04512 0.27046 -0.11800
C 	C 	0.85365 0.98501 0.26863 0.22700
C 	C 	0.80095 0.96892 0.20569 0.04800
H 	H 	0.93523 0.13715 0.21131 0.10000
H 	H 	0.76356 0.92199 0.20421 0.06800
Cl	Cl	0.84850 0.12404 0.06787 -0.29900
Cl	Cl	0.85233 0.93184 0.34625 -0.32400
C 	C 	0.96403 0.11810 0.84047 -0.05500
C 	C 	0.91105 0.17252 0.85215 0.20000
C 	C 	0.92098 0.23195 0.91430 -0.06800
C 	C 	0.97866 0.23176 0.96981 0.04700
C 	C 	0.01626 0.16574 0.97078 0.13600
C 	C 	0.00994 0.10942 0.90496 -0.07400
H 	H 	0.88675 0.27952 0.91673 0.09000
H 	H 	0.04505 0.06242 0.90108 0.09100
Cl	Cl	0.83409 0.16792 0.78807 -0.29900
Cl	Cl	0.06384 0.14975 0.05657 -0.31200
C 	C 	0.94284 0.63690 0.89753 -0.16600
C 	C 	0.98819 0.59303 0.93458 -0.21500
C 	C 	0.01662 0.62169 0.01790 -0.28700
C 	C 	0.98593 0.68707 0.06438 -0.06800
C 	C 	0.93599 0.73277 0.02119 0.08700
C 	C 	0.91517 0.70705 0.93702 -0.08500
H 	H 	0.06687 0.60234 0.04128 0.01200
H 	H 	0.88336 0.74149 0.90375 0.10300
Cl	Cl	0.01553 0.48965 0.85413 -0.64900
Cl	Cl	0.89840 0.81371 0.07143 -0.23100
C 	C 	0.19547 0.05678 0.25302 -0.19400
C 	C 	0.23618 0.99267 0.24242 0.23500
C 	C 	0.20042 0.92383 0.23418 -0.11400
C 	C 	0.12585 0.91863 0.21664 -0.14800
C 	C 	0.09025 0.98145 0.19870 0.22400
C 	C 	0.12340 0.05157 0.22254 -0.11900
H 	H 	0.23053 0.87467 0.23967 0.08300
H 	H 	0.09321 0.10104 0.21879 0.06700
Cl	Cl	0.33083 0.99882 0.24237 -0.29400
Cl	Cl	0.01426 0.97180 0.13292 -0.26900
C 	C 	0.91185 0.29822 0.37996 -0.09100
C 	C 	0.96530 0.29119 0.43923 0.20600
C 	C 	0.94715 0.25727 0.50414 -0.05300
C 	C 	0.87882 0.22181 0.50686 -0.10900
C 	C 	0.82599 0.22643 0.44649 0.18800
C 	C 	0.84242 0.26504 0.38394 -0.04700
H 	H 	0.98812 0.25468 0.55031 0.00300
H 	H 	0.80082 0.26988 0.33894 0.09000
Cl	Cl	0.05742 0.31571 0.42870 -0.46000
Cl	Cl	0.73790 0.18752 0.45027 -0.28300
