data_crystal

_cell_length_a 19.94571
_cell_length_b 21.45921
_cell_length_c 27.65455
_cell_angle_alpha 60.86175
_cell_angle_beta  118.84809
_cell_angle_gamma 133.20285

_symmetry_space_group_name_	'P 1'
_symmetry_space_group_name_H-M	'P 1'

loop_
_symmetry_equiv_pos_as_xyz
  x,y,z

loop_
_atom_site_label
_atom_site_type_symbol
_atom_site_fract_x
_atom_site_fract_y
_atom_site_fract_z
_atom_site_charge
C 	C 	0.25846 0.65314 0.20709 0.08000
C 	C 	0.34939 0.67245 0.23292 -0.03200
C 	C 	0.38035 0.64620 0.21532 0.05800
C 	C 	0.31396 0.58180 0.18434 -0.03900
C 	C 	0.21800 0.54577 0.16961 0.07600
C 	C 	0.19087 0.58651 0.17660 -0.02800
H 	H 	0.39782 0.71367 0.26284 0.14600
H 	H 	0.33633 0.55667 0.17394 0.10900
H 	H 	0.11955 0.56830 0.15738 0.13100
C 	C 	0.28348 0.62916 0.73894 0.09100
C 	C 	0.37767 0.65871 0.75323 -0.02200
C 	C 	0.39727 0.61105 0.74803 0.07200
C 	C 	0.32434 0.52627 0.74008 -0.01300
C 	C 	0.23044 0.49621 0.72403 0.08800
C 	C 	0.20945 0.54865 0.72198 -0.01600
H 	H 	0.43550 0.72225 0.76340 0.10800
H 	H 	0.34072 0.48750 0.73985 0.12700
H 	H 	0.13744 0.52836 0.70613 0.16200
Co	Co	0.05805 0.04192 0.04123 1.18100
C 	C 	0.25173 0.14168 0.03081 0.32600
Co	Co	0.13961 0.94832 0.04771 1.19200
O 	O 	0.02734 0.12172 0.03038 -0.39300
C 	C 	0.02595 0.20423 0.14606 0.29700
C 	C 	0.21313 0.91245 0.17048 0.32000
O 	O 	0.05764 0.17997 0.13076 -0.32100
O 	O 	0.23829 0.97222 0.12335 -0.28300
O 	O 	0.15439 0.90046 0.18929 -0.32600
O 	O 	0.06450 0.95574 0.07574 -0.74200
O 	O 	0.21364 0.08087 0.00694 -0.39000
O 	O 	0.20325 0.13229 0.05645 -0.33000
Co	Co	0.05944 0.02574 0.54617 1.18900
C 	C 	0.25712 0.09513 0.55352 0.30600
Co	Co	0.10756 0.91108 0.54236 1.19000
O 	O 	0.03878 0.11138 0.53821 -0.38200
C 	C 	0.02978 0.19105 0.64986 0.29600
C 	C 	0.15983 0.83529 0.66585 0.31600
O 	O 	0.10150 0.99666 0.46407 -0.30900
O 	O 	0.06494 0.16851 0.63638 -0.32800
O 	O 	0.12016 0.82052 0.61540 -0.37500
O 	O 	0.13968 0.87006 0.68059 -0.33800
O 	O 	0.05216 0.93253 0.57576 -0.74800
O 	O 	0.23950 0.01723 0.56858 -0.31500
O 	O 	0.20611 0.10443 0.56376 -0.33700
C 	C 	0.13557 0.42133 0.64559 0.03100
C 	C 	0.15643 0.41424 0.70358 0.10500
C 	C 	0.13371 0.33250 0.74300 -0.11000
C 	C 	0.10896 0.26593 0.72580 0.08100
C 	C 	0.09073 0.27340 0.66815 0.00700
C 	C 	0.10511 0.35243 0.62753 -0.05600
C 	C 	0.08685 0.36288 0.56498 0.76600
H 	H 	0.14975 0.48303 0.61514 0.13500
H 	H 	0.09893 0.20601 0.75700 0.08300
C 	C 	0.14312 0.31846 0.80460 0.79100
F 	F 	0.11913 0.44864 0.53353 -0.37900
F 	F 	0.13278 0.34094 0.55873 -0.38900
F 	F 	0.11694 0.36117 0.80817 -0.36300
F 	F 	0.23588 0.35116 0.83451 -0.40500
F 	F 	0.08545 0.22969 0.82973 -0.41600
C 	C 	0.42916 0.68500 0.63229 0.79000
F 	F 	0.38950 0.71657 0.63457 -0.43100
F 	F 	0.35954 0.59909 0.62697 -0.41700
C 	C 	0.17487 0.71861 0.74447 0.08000
C 	C 	0.21822 0.80284 0.70710 0.01000
C 	C 	0.29884 0.83638 0.69311 -0.06500
C 	C 	0.31429 0.77749 0.69981 0.02700
C 	C 	0.26480 0.69020 0.73233 0.08500
C 	C 	0.20371 0.66476 0.76112 -0.09800
C 	C 	0.17632 0.58613 0.81222 0.79000
H 	H 	0.11589 0.69324 0.75813 0.10200
H 	H 	0.36561 0.80000 0.68027 0.12100
C 	C 	0.36254 0.93287 0.66522 0.77800
F 	F 	0.14524 0.59077 0.84480 -0.36100
F 	F 	0.25352 0.58409 0.84656 -0.38100
F 	F 	0.10468 0.50872 0.79458 -0.34900
F 	F 	0.35789 0.98426 0.67831 -0.40000
F 	F 	0.33574 0.94464 0.60685 -0.42600
F 	F 	0.45550 0.96093 0.68420 -0.36900
C 	C 	0.13383 0.38513 0.20802 0.02600
C 	C 	0.14779 0.45570 0.15994 0.08300
C 	C 	0.12150 0.44303 0.10615 -0.12200
C 	C 	0.09265 0.36347 0.10298 0.06300
C 	C 	0.08607 0.29544 0.15226 0.01900
C 	C 	0.11418 0.30979 0.20584 -0.07400
C 	C 	0.12280 0.24536 0.26100 0.78000
H 	H 	0.14978 0.39344 0.24880 0.12500
H 	H 	0.07297 0.35358 0.06207 0.12000
C 	C 	0.12735 0.51516 0.05247 0.78800
F 	F 	0.19404 0.28938 0.30333 -0.37100
F 	F 	0.14493 0.20117 0.25510 -0.41300
F 	F 	0.03854 0.18589 0.27777 -0.42800
F 	F 	0.22047 0.57925 0.04816 -0.40400
F 	F 	0.09381 0.55304 0.05398 -0.44000
F 	F 	0.07365 0.48233 0.00437 -0.40100
C 	C 	0.30947 0.80727 0.17897 0.01900
C 	C 	0.24389 0.71715 0.20065 0.09100
C 	C 	0.17563 0.69212 0.22333 -0.12400
C 	C 	0.16665 0.75701 0.21538 0.08000
C 	C 	0.23511 0.84728 0.19493 0.00400
C 	C 	0.31423 0.87137 0.18514 -0.06000
C 	C 	0.40389 0.96473 0.18141 0.81700
H 	H 	0.36038 0.82760 0.16038 0.15300
H 	H 	0.10602 0.73714 0.22398 0.07900
C 	C 	0.11455 0.59857 0.25675 0.79400
F 	F 	0.48214 0.96391 0.20397 -0.32700
F 	F 	0.41345 0.00680 0.21194 -0.37700
F 	F 	0.40217 0.01175 0.12511 -0.40600
F 	F 	0.16906 0.56859 0.29608 -0.39200
F 	F 	0.04532 0.54380 0.22009 -0.42200
F 	F 	0.07089 0.59388 0.28621 -0.38300
C 	C 	0.46273 0.24149 0.49213 0.03200
C 	C 	0.53412 0.25435 0.54226 0.08200
C 	C 	0.51647 0.23484 0.59361 -0.09800
C 	C 	0.42470 0.19577 0.59398 0.08900
C 	C 	0.35127 0.17241 0.54546 0.01700
C 	C 	0.37258 0.20568 0.49271 -0.07100
C 	C 	0.29916 0.20031 0.43711 0.78200
H 	H 	0.47804 0.26089 0.45241 0.11400
H 	H 	0.40849 0.17675 0.63322 0.11400
F 	F 	0.34126 0.27530 0.39509 -0.36900
F 	F 	0.22870 0.19410 0.44188 -0.41200
F 	F 	0.25957 0.12776 0.42077 -0.41800
F 	F 	0.56036 0.21561 0.69471 -0.36800
C 	C 	0.36732 0.26386 0.97187 0.12100
C 	C 	0.34739 0.22191 0.02591 -0.03100
C 	C 	0.42257 0.23537 0.07446 -0.04900
C 	C 	0.50672 0.26306 0.06967 0.04300
C 	C 	0.52380 0.29571 0.01579 0.04600
C 	C 	0.45632 0.30261 0.96628 -0.07600
C 	C 	0.47671 0.34632 0.90767 0.78100
H 	H 	0.31064 0.25829 0.93429 0.11600
C 	C 	0.41266 0.21879 0.13125 0.77900
F 	F 	0.40791 0.35749 0.86633 -0.39700
F 	F 	0.47956 0.29463 0.89364 -0.40500
F 	F 	0.36419 0.12969 0.15699 -0.39000
F 	F 	0.36388 0.24850 0.12352 -0.40000
F 	F 	0.50043 0.26291 0.16720 -0.35700
Co	Co	0.02722 0.88514 0.13735 1.18200
O 	O 	0.07301 0.81471 0.08688 -0.37400
C 	C 	0.02726 0.99670 0.43683 0.28600
C 	C 	0.02224 0.96764 0.85507 -0.03000
H 	H 	0.04808 0.92788 0.88468 0.14700
C 	C 	0.01081 0.96910 0.35034 -0.15200
H 	H 	0.04510 0.93626 0.37814 0.15200
C 	C 	0.00446 0.98168 0.79564 0.31700
O 	O 	0.00708 0.95203 0.26960 -0.36100
O 	O 	0.02040 0.94667 0.77640 -0.32900
F 	F 	0.47247 0.86098 0.11864 -0.41100
F 	F 	0.46457 0.73613 0.58386 -0.39100
C 	C 	0.49060 0.65495 0.74092 0.08400
C 	C 	0.48217 0.69464 0.22122 0.10300
H 	H 	0.49077 0.58918 0.28671 0.12900
C 	C 	0.59573 0.26080 0.64666 0.79200
F 	F 	0.52743 0.09397 0.06084 -0.40700
F 	F 	0.60612 0.04491 0.13870 -0.35100
H 	H 	0.56024 0.26169 0.10768 0.16300
C 	C 	0.02017 0.98664 0.93909 0.35800
O 	O 	0.03296 0.92527 0.97475 -0.29100
C 	C 	0.50620 0.68823 0.68585 -0.11900
C 	C 	0.53359 0.85160 0.16947 0.80900
F 	F 	0.51450 0.84664 0.21345 -0.40300
F 	F 	0.65473 0.18129 0.12014 -0.39200
Co	Co	0.01510 0.86181 0.63664 1.18400
F 	F 	0.56266 0.42866 0.90718 -0.38200
C 	C 	0.61843 0.33538 0.01290 0.11700
H 	H 	0.57480 0.23298 0.98395 0.18600
C 	C 	0.62898 0.29764 0.53879 0.08100
H 	H 	0.59752 0.18110 0.53619 0.11300
C 	C 	0.56129 0.65501 0.78939 0.02700
H 	H 	0.54779 0.62684 0.83128 0.12700
C 	C 	0.52415 0.64938 0.25469 0.01700
C 	C 	0.52637 0.77191 0.17927 -0.14100
C 	C 	0.61614 0.11747 0.09508 0.78900
F 	F 	0.65519 0.24184 0.65587 -0.34200
F 	F 	0.64736 0.35010 0.64044 -0.39300
C 	C 	0.63377 0.28736 0.00394 -0.07600
C 	C 	0.65098 0.25060 0.53559 -0.01900
C 	C 	0.59406 0.72349 0.68110 0.08000
C 	C 	0.58823 0.78402 0.15997 0.08900
C 	C 	0.60703 0.68055 0.24451 -0.04900
F 	F 	0.59941 0.55459 0.31595 -0.37900
F 	F 	0.62536 0.92558 0.16708 -0.42100
F 	F 	0.68722 0.13867 0.65810 -0.36900
H 	H 	0.67769 0.42366 0.53723 0.12300
C 	C 	0.69550 0.41003 0.03372 -0.04400
H 	H 	0.68449 0.45095 0.03669 0.12300
C 	C 	0.69653 0.38668 0.53726 -0.02100
C 	C 	0.64927 0.69168 0.78403 -0.05400
H 	H 	0.60793 0.75075 0.63947 0.10300
C 	C 	0.64395 0.75488 0.19903 -0.00200
H 	H 	0.61061 0.83459 0.12162 0.08200
C 	C 	0.67821 0.14883 0.05988 -0.11400
H 	H 	0.62837 0.01763 0.07046 0.12400
F 	F 	0.68627 0.62154 0.88132 -0.36700
C 	C 	0.66830 0.73445 0.72937 -0.00000
C 	C 	0.72340 0.30358 0.02653 0.08700
C 	C 	0.65424 0.63405 0.28055 0.77800
F 	F 	0.66903 0.61728 0.24554 -0.39500
C 	C 	0.72558 0.69253 0.83691 0.78000
F 	F 	0.71129 0.61479 0.42243 -0.37900
C 	C 	0.67968 0.08734 0.05536 0.06300
C 	C 	0.74376 0.29146 0.53572 0.06700
F 	F 	0.72104 0.39539 0.15820 -0.39500
F 	F 	0.71317 0.06418 0.45017 -0.38600
C 	C 	0.73397 0.23851 0.03095 0.08400
F 	F 	0.73402 0.19326 0.40160 -0.36300
H 	H 	0.73262 0.04308 0.63720 0.05200
F 	F 	0.74057 0.68718 0.31364 -0.38300
C 	C 	0.77070 0.23622 0.54582 0.10100
F 	F 	0.76016 0.70032 0.47276 -0.40300
C 	C 	0.74847 0.09691 0.59926 0.08100
F 	F 	0.04804 0.80091 0.98598 -0.45300
F 	F 	0.78270 0.68745 0.82638 -0.38000
C 	C 	0.78474 0.42726 0.05633 0.08900
C 	C 	0.78915 0.42817 0.53783 0.07500
C 	C 	0.76695 0.17295 0.59809 -0.12600
C 	C 	0.77627 0.18260 0.65218 0.79400
C 	C 	0.74640 0.82144 0.20647 0.32200
O 	O 	0.76916 0.97233 0.61761 -0.32200
C 	C 	0.76423 0.81089 0.72280 0.32300
F 	F 	0.78033 0.76958 0.85328 -0.38800
C 	C 	0.77599 0.23080 0.49922 0.03100
C 	C 	0.76325 0.09461 0.55559 0.00300
C 	C 	0.77082 0.15939 0.50318 -0.03700
C 	C 	0.76970 0.15165 0.45108 0.77700
H 	H 	0.78033 0.28014 0.45934 0.13100
C 	C 	0.79041 0.67649 0.45333 0.78000
C 	C 	0.75221 0.11546 0.03619 0.02300
O 	O 	0.00904 0.02663 0.95707 -0.31500
O 	O 	0.76218 0.99719 0.10926 -0.30300
C 	C 	0.79949 0.37483 0.05219 -0.03300
C 	C 	0.78609 0.05881 0.06220 0.25100
O 	O 	0.78737 0.88579 0.22814 -0.32500
C 	C 	0.78681 0.03413 0.57010 0.28600
C 	C 	0.79773 0.26565 0.00414 -0.01700
C 	C 	0.81283 0.38162 0.53516 -0.00800
H 	H 	0.82091 0.57242 0.45184 0.12300
F 	F 	0.82021 0.14602 0.69900 -0.41300
O 	O 	0.79448 0.82053 0.18732 -0.32200
O 	O 	0.80448 0.87870 0.74022 -0.33200
O 	O 	0.80701 0.81253 0.69755 -0.33100
C 	C 	0.80447 0.20411 0.00417 -0.09600
C 	C 	0.00292 0.00158 0.87652 -0.09300
F 	F 	0.83008 0.27005 0.65181 -0.36000
F 	F 	0.80790 0.16540 0.93833 -0.37000
C 	C 	0.81656 0.43353 0.17238 0.79600
C 	C 	0.84172 0.63780 0.50215 -0.06600
H 	H 	0.84060 0.33432 0.98226 0.16600
F 	F 	0.82826 0.37247 0.18007 -0.37000
C 	C 	0.84652 0.58148 0.49415 0.01400
C 	C 	0.98848 0.98250 0.29055 0.45000
O 	O 	0.97067 0.04104 0.25704 -0.34000
F 	F 	0.99083 0.30789 0.54314 -0.39800
O 	O 	0.98445 0.03854 0.76039 -0.36200
O 	O 	0.93645 0.15318 0.14724 -0.33100
O 	O 	0.93944 0.13926 0.64822 -0.34000
Co	Co	0.97368 0.06249 0.59922 1.19600
F 	F 	0.86088 0.19095 0.45136 -0.36000
F 	F 	0.94579 0.24802 0.99621 -0.40100
Co	Co	0.96577 0.07403 0.09314 1.20000
H 	H 	0.97650 0.04090 0.84693 0.15500
F 	F 	0.85085 0.40409 0.66643 -0.33500
H 	H 	0.86876 0.38800 0.06991 0.11300
H 	H 	0.88469 0.41384 0.53519 0.13000
Co	Co	0.93675 0.91799 0.18964 1.21200
Co	Co	0.86230 0.01795 0.18499 1.18400
C 	C 	0.98340 0.75903 0.08815 0.32800
O 	O 	0.92356 0.00032 0.15281 -0.75900
O 	O 	0.97124 0.84049 0.20200 -0.37900
O 	O 	0.96979 0.96385 0.10559 -0.52500
O 	O 	0.84753 0.07636 0.04231 -0.28800
O 	O 	0.94778 0.77359 0.10832 -0.33700
Co	Co	0.94860 0.90892 0.69717 1.20500
Co	Co	0.87161 0.00655 0.69104 1.17000
C 	C 	0.92369 0.74166 0.56008 0.30800
O 	O 	0.93455 0.99023 0.66000 -0.72100
O 	O 	0.97632 0.82719 0.70699 -0.37700
O 	O 	0.97405 0.95095 0.61137 -0.52900
O 	O 	0.85330 0.06175 0.54928 -0.27500
O 	O 	0.99492 0.00791 0.46207 -0.29800
O 	O 	0.96791 0.81105 0.52056 -0.31300
O 	O 	0.92158 0.74885 0.60490 -0.31500
C 	C 	0.98804 0.99617 0.37501 0.11900
H 	H 	0.94248 0.01773 0.34864 0.09300
C 	C 	0.85935 0.52043 0.54127 0.09200
C 	C 	0.90283 0.53837 0.59555 -0.11900
C 	C 	0.91103 0.60396 0.60294 0.08300
C 	C 	0.88266 0.65532 0.55630 0.00300
H 	H 	0.94312 0.61759 0.64446 0.09800
C 	C 	0.93019 0.48124 0.64668 0.79700
F 	F 	0.85003 0.74988 0.41791 -0.40500
F 	F 	0.97011 0.46135 0.63227 -0.41300
F 	F 	0.99559 0.52423 0.69002 -0.39500
C 	C 	0.85828 0.23129 0.96516 0.81300
F 	F 	0.87223 0.30688 0.92312 -0.35100
C 	C 	0.89433 0.59643 0.12612 0.07900
C 	C 	0.93063 0.67053 0.08102 0.01000
C 	C 	0.93600 0.66190 0.03548 -0.10300
C 	C 	0.91639 0.58320 0.03998 0.04200
C 	C 	0.86396 0.50657 0.07828 0.08000
C 	C 	0.86176 0.51417 0.12553 -0.09800
H 	H 	0.89254 0.60298 0.16187 0.11000
H 	H 	0.92662 0.57802 0.00733 0.12000
C 	C 	0.95277 0.73232 0.98008 0.83100
F 	F 	0.85721 0.45623 0.22348 -0.34500
F 	F 	0.90107 0.76274 0.96527 -0.39000
F 	F 	0.92404 0.69960 0.93598 -0.36800
