data_crystal

_cell_length_a 18.43750
_cell_length_b 18.85922
_cell_length_c 34.93236
_cell_angle_alpha 95.42867
_cell_angle_beta  95.42838
_cell_angle_gamma 126.43483

_symmetry_space_group_name_	'P 1'
_symmetry_space_group_name_H-M	'P 1'

loop_
_symmetry_equiv_pos_as_xyz
  x,y,z

loop_
_atom_site_label
_atom_site_type_symbol
_atom_site_fract_x
_atom_site_fract_y
_atom_site_fract_z
_atom_site_charge
C 	C 	0.87725 0.95343 0.95541 0.14200
N 	N 	0.96855 0.00736 0.95506 -0.12100
C 	C 	0.01576 0.97326 0.95524 0.12500
N 	N 	0.97163 0.88479 0.95517 -0.12900
C 	C 	0.88048 0.83007 0.95557 0.14200
N 	N 	0.83297 0.86450 0.95622 -0.14100
C 	C 	0.98540 0.08427 0.50637 0.15300
N 	N 	0.93103 0.99438 0.50535 -0.14500
C 	C 	0.96868 0.95087 0.50711 0.14600
N 	N 	0.06030 0.99692 0.50988 -0.13700
C 	C 	0.11489 0.08653 0.51094 0.15200
N 	N 	0.07741 0.13036 0.50875 -0.14500
Cu	Cu	0.73283 0.30370 0.95570 0.92800
Cu	Cu	0.71907 0.23760 0.03996 0.87700
Cu	Cu	0.58880 0.26628 0.00476 0.89700
Cu	Cu	0.56285 0.29674 0.92383 0.89900
C 	C 	0.67061 0.27278 0.87277 0.29200
O 	O 	0.78552 0.43456 0.95333 -0.35100
C 	C 	0.64076 0.29058 0.09058 0.28600
O 	O 	0.58984 0.23135 0.95119 -0.63500
O 	O 	0.72208 0.32157 0.01095 -0.64300
O 	O 	0.79240 0.24264 0.96144 -0.36000
O 	O 	0.69012 0.14957 0.99743 -0.42200
O 	O 	0.63253 0.31216 0.88087 -0.38100
O 	O 	0.45742 0.20388 0.99665 -0.37400
C 	C 	0.40533 0.19245 0.96432 0.31900
C 	C 	0.74322 0.46798 0.96449 0.29900
O 	O 	0.65784 0.41345 0.96903 -0.38300
O 	O 	0.44036 0.24265 0.93756 -0.38800
O 	O 	0.72010 0.26779 0.90069 -0.35600
C 	C 	0.75136 0.16803 0.97573 0.30300
O 	O 	0.58932 0.29009 0.06119 -0.37000
O 	O 	0.71437 0.29714 0.08571 -0.40400
H 	H 	0.54961 0.16577 0.94125 0.17200
H 	H 	0.76268 0.38456 0.02520 0.17900
Cu	Cu	0.65685 0.25465 0.51037 0.92800
Cu	Cu	0.70309 0.25084 0.42228 0.87700
Cu	Cu	0.69809 0.39492 0.46013 0.90100
Cu	Cu	0.67690 0.42777 0.54406 0.90000
C 	C 	0.67999 0.30695 0.59290 0.29100
O 	O 	0.52686 0.20247 0.51647 -0.36800
C 	C 	0.64534 0.32824 0.37394 0.29000
O 	O 	0.73434 0.39456 0.51344 -0.63600
O 	O 	0.63130 0.26267 0.45528 -0.64000
O 	O 	0.71044 0.18986 0.50269 -0.37100
O 	O 	0.79885 0.27868 0.46175 -0.42200
O 	O 	0.69647 0.38510 0.59138 -0.37600
O 	O 	0.77004 0.52414 0.46850 -0.36700
C 	C 	0.77053 0.57329 0.49822 0.31200
C 	C 	0.49285 0.24561 0.50999 0.30800
O 	O 	0.54651 0.32883 0.50520 -0.37900
O 	O 	0.71369 0.53635 0.52280 -0.39000
O 	O 	0.69635 0.26838 0.56507 -0.36100
C 	C 	0.78191 0.22291 0.48556 0.30500
O 	O 	0.68210 0.39654 0.40340 -0.37100
O 	O 	0.63540 0.25472 0.37892 -0.40800
H 	H 	0.80155 0.43051 0.52227 0.17100
H 	H 	0.56541 0.22709 0.44349 0.18000
C 	C 	0.72607 0.24131 0.68592 -0.03900
C 	C 	0.66934 0.24677 0.70842 0.02200
C 	C 	0.60880 0.26176 0.69125 -0.05600
C 	C 	0.60780 0.27612 0.65268 0.02400
C 	C 	0.66905 0.27685 0.63097 -0.07500
C 	C 	0.72577 0.25648 0.64737 0.01300
C 	C 	0.67850 0.24501 0.75093 0.02300
C 	C 	0.75346 0.32145 0.77708 -0.05700
C 	C 	0.75485 0.32849 0.81747 0.02900
C 	C 	0.68028 0.25859 0.83198 -0.07700
C 	C 	0.60848 0.17958 0.80609 0.00900
C 	C 	0.60749 0.17220 0.76568 -0.03900
C 	C 	0.83165 0.40887 0.84377 0.08100
C 	C 	0.53285 0.09032 0.73949 0.09200
C 	C 	0.78511 0.22079 0.70226 0.09400
C 	C 	0.54404 0.29057 0.63567 0.06900
N 	N 	0.89317 0.47324 0.86483 -0.10400
N 	N 	0.47305 0.02474 0.71849 -0.11000
N 	N 	0.49309 0.30236 0.62213 -0.11700
N 	N 	0.83241 0.20435 0.71538 -0.11000
H 	H 	0.77181 0.25534 0.63061 0.04800
H 	H 	0.56395 0.26436 0.70832 0.05500
H 	H 	0.80897 0.37688 0.76584 0.05700
H 	H 	0.55188 0.12507 0.81727 0.03400
C 	C 	0.69565 0.40441 0.27791 -0.03900
C 	C 	0.61215 0.33571 0.25247 0.02200
C 	C 	0.53517 0.27469 0.26822 -0.05900
C 	C 	0.54312 0.27636 0.30867 0.02600
C 	C 	0.62884 0.33995 0.33371 -0.07900
C 	C 	0.70321 0.40672 0.31838 0.01100
C 	C 	0.60889 0.31839 0.20977 0.02200
C 	C 	0.61400 0.25054 0.19419 -0.05800
C 	C 	0.61985 0.23807 0.15479 0.02500
C 	C 	0.62219 0.29507 0.13062 -0.07900
C 	C 	0.61235 0.36007 0.14568 0.01400
C 	C 	0.60517 0.37164 0.18507 -0.03900
C 	C 	0.62189 0.16562 0.13920 0.06100
C 	C 	0.59477 0.43861 0.19999 0.09400
C 	C 	0.77503 0.47023 0.26256 0.09300
C 	C 	0.46329 0.21222 0.32424 0.07400
N 	N 	0.62352 0.10761 0.12672 -0.12000
N 	N 	0.58648 0.49228 0.21197 -0.11200
N 	N 	0.39936 0.16086 0.33674 -0.11200
N 	N 	0.83857 0.52294 0.25024 -0.11300
H 	H 	0.76862 0.45718 0.33772 0.04200
H 	H 	0.47018 0.22336 0.24880 0.05600
H 	H 	0.61478 0.20824 0.21296 0.05400
H 	H 	0.61252 0.40300 0.12703 0.04500
C 	C 	0.91092 0.85428 0.50607 -0.04200
C 	C 	0.85232 0.79514 0.47112 -0.08800
C 	C 	0.80771 0.70303 0.46793 0.18600
C 	C 	0.82235 0.66989 0.49984 -0.11500
C 	C 	0.87945 0.72897 0.53500 -0.04300
C 	C 	0.92332 0.82080 0.53828 0.14400
H 	H 	0.84305 0.82082 0.44614 0.07100
O 	O 	0.75077 0.64569 0.43352 -0.27700
H 	H 	0.88962 0.70354 0.55988 0.05400
O 	O 	0.98084 0.87826 0.57257 -0.26800
H 	H 	0.94147 0.88319 0.58831 0.15100
H 	H 	0.68910 0.62770 0.43615 0.15300
C 	C 	0.94398 0.13049 0.50310 -0.04500
C 	C 	0.93676 0.15792 0.46800 -0.08600
C 	C 	0.88438 0.18857 0.46203 0.18000
C 	C 	0.84117 0.19492 0.49204 -0.11700
C 	C 	0.85192 0.17100 0.52783 -0.04300
C 	C 	0.90296 0.13877 0.53339 0.14400
H 	H 	0.96853 0.15185 0.44463 0.07100
O 	O 	0.87431 0.21083 0.42668 -0.29400
H 	H 	0.82003 0.17661 0.55126 0.06900
O 	O 	0.91001 0.11244 0.56797 -0.27100
H 	H 	0.96604 0.16677 0.58506 0.15200
H 	H 	0.81936 0.15442 0.41017 0.13300
C 	C 	0.21380 0.13482 0.51305 -0.04300
C 	C 	0.25588 0.18288 0.48374 -0.08700
C 	C 	0.34570 0.21537 0.48131 0.18400
C 	C 	0.39492 0.20163 0.50900 -0.11800
C 	C 	0.35278 0.15357 0.53829 -0.04000
C 	C 	0.26333 0.12180 0.54090 0.14400
H 	H 	0.21778 0.19220 0.46193 0.07300
O 	O 	0.38540 0.26067 0.45194 -0.28500
H 	H 	0.39023 0.14281 0.55970 0.06800
O 	O 	0.22346 0.07609 0.57014 -0.26300
H 	H 	0.23842 0.12258 0.59222 0.15300
H 	H 	0.37057 0.21401 0.42999 0.15100
C 	C 	0.78341 0.56281 0.96346 -0.11100
C 	C 	0.81732 0.59847 0.93033 -0.04700
C 	C 	0.84164 0.68289 0.92601 0.14300
C 	C 	0.83419 0.73370 0.95542 -0.04500
C 	C 	0.79915 0.69762 0.98832 -0.07900
C 	C 	0.77449 0.61296 0.99260 0.18300
H 	H 	0.82237 0.55968 0.90731 0.07100
O 	O 	0.87543 0.71691 0.89354 -0.27200
H 	H 	0.79419 0.73654 0.01132 0.06500
O 	O 	0.74060 0.57888 0.02504 -0.29100
H 	H 	0.79506 0.59944 0.04462 0.14700
H 	H 	0.82096 0.69676 0.87408 0.14800
C 	C 	0.82832 0.99321 0.95734 -0.07200
C 	C 	0.80024 0.00221 0.99218 -0.04900
C 	C 	0.77535 0.05913 0.99844 0.17500
C 	C 	0.77740 0.10730 0.96932 -0.10700
C 	C 	0.80201 0.09541 0.93379 -0.05000
C 	C 	0.82691 0.03837 0.92765 0.15900
H 	H 	0.80221 0.96868 0.01535 0.05200
O 	O 	0.75497 0.07205 0.03399 -0.30800
H 	H 	0.80213 0.13047 0.91091 0.07300
O 	O 	0.85375 0.02996 0.89327 -0.26500
H 	H 	0.79682 0.97824 0.87553 0.14100
H 	H 	0.68840 0.02336 0.03162 0.15100
C 	C 	0.30573 0.13639 0.96197 -0.11700
C 	C 	0.26922 0.15209 0.99217 -0.02900
C 	C 	0.17415 0.10098 0.98948 0.14300
C 	C 	0.11503 0.03237 0.95676 -0.02900
C 	C 	0.15154 0.01657 0.92662 -0.07800
C 	C 	0.24654 0.06896 0.92890 0.18400
H 	H 	0.31456 0.20442 0.01759 0.06000
O 	O 	0.13918 0.11532 0.01967 -0.27600
H 	H 	0.10618 0.96334 0.90148 0.06900
O 	O 	0.28155 0.05165 0.89959 -0.29200
H 	H 	0.28610 0.08885 0.88030 0.15100
H 	H 	0.13205 0.16129 0.01335 0.15100
