data_crystal

_cell_length_a 21.10539
_cell_length_b 20.03739
_cell_length_c 23.03272
_cell_angle_alpha 90.00000
_cell_angle_beta  90.00000
_cell_angle_gamma 90.05257

_symmetry_space_group_name_	'P 1'
_symmetry_space_group_name_H-M	'P 1'

loop_
_symmetry_equiv_pos_as_xyz
  x,y,z

loop_
_atom_site_label
_atom_site_type_symbol
_atom_site_fract_x
_atom_site_fract_y
_atom_site_fract_z
_atom_site_charge
Co	Co	0.94809 0.89088 0.00857 1.18800
Co	Co	0.09739 0.04074 0.00443 1.20100
Co	Co	0.10139 0.89732 0.00376 1.19800
Co	Co	0.94382 0.03430 0.00613 1.18800
C 	C 	0.83709 0.84280 0.08059 0.41200
Co	Co	0.80836 0.95998 0.00120 1.18000
Co	Co	0.23670 0.97059 0.99372 1.20900
C 	C 	0.85100 0.06389 0.91610 0.41300
O 	O 	0.23339 0.88025 0.94841 -0.31900
O 	O 	0.13850 0.97040 0.01060 -0.77900
C 	C 	0.18938 0.86862 0.90901 0.41500
O 	O 	0.02685 0.83427 0.00580 -0.37000
O 	O 	0.01844 0.09735 0.00386 -0.37100
C 	C 	0.18559 0.06701 0.90498 0.41400
O 	O 	0.02345 0.96607 0.03429 -0.53200
C 	C 	0.20944 0.86976 0.08866 0.40400
C 	C 	0.85611 0.86281 0.91173 0.40300
C 	C 	0.83871 0.06138 0.09512 0.39600
O 	O 	0.13029 0.88534 0.91940 -0.33300
O 	O 	0.81576 0.91167 0.92154 -0.30500
O 	O 	0.91640 0.86988 0.92548 -0.33100
O 	O 	0.22830 0.02061 0.91537 -0.30600
O 	O 	0.12600 0.05781 0.92020 -0.33200
O 	O 	0.24491 0.92117 0.07268 -0.33400
O 	O 	0.16566 0.84420 0.05378 -0.32700
O 	O 	0.80471 0.00807 0.08101 -0.31100
O 	O 	0.88184 0.08697 0.05940 -0.33100
O 	O 	0.90718 0.96126 0.01396 -0.78600
C 	C 	0.21059 0.08554 0.07569 0.41500
O 	O 	0.24840 0.06281 0.03464 -0.34000
O 	O 	0.14912 0.09209 0.06649 -0.32400
O 	O 	0.79916 0.86643 0.03998 -0.33600
O 	O 	0.89930 0.84327 0.07405 -0.34100
O 	O 	0.80907 0.05137 0.95712 -0.30500
O 	O 	0.91047 0.04669 0.92357 -0.34200
Co	Co	0.59894 0.53339 0.50720 1.20500
Co	Co	0.43921 0.39792 0.50623 1.20800
Co	Co	0.44589 0.54199 0.50564 1.20200
Co	Co	0.59246 0.38965 0.50961 1.20300
C 	C 	0.70551 0.56014 0.59444 0.40600
Co	Co	0.73326 0.45836 0.50049 1.19200
Co	Co	0.30541 0.47341 0.49281 1.19800
C 	C 	0.68373 0.35990 0.41303 0.40700
O 	O 	0.31820 0.52005 0.41335 -0.31500
O 	O 	0.40345 0.47139 0.51029 -0.76000
C 	C 	0.35860 0.56940 0.40589 0.40300
O 	O 	0.52565 0.59755 0.50620 -0.38900
O 	O 	0.51266 0.33386 0.50948 -0.37200
C 	C 	0.35085 0.36631 0.41243 0.41000
O 	O 	0.51845 0.46617 0.53538 -0.53500
C 	C 	0.33195 0.58928 0.57326 0.40700
C 	C 	0.69078 0.56278 0.41563 0.41200
C 	C 	0.70403 0.34411 0.58184 0.41000
O 	O 	0.41830 0.56241 0.42150 -0.34600
O 	O 	0.73329 0.54955 0.45598 -0.33200
O 	O 	0.63131 0.54582 0.42376 -0.35100
O 	O 	0.30682 0.38097 0.45099 -0.32900
O 	O 	0.41020 0.38258 0.42243 -0.34900
O 	O 	0.29616 0.56784 0.53023 -0.31600
O 	O 	0.39420 0.59169 0.56813 -0.33300
O 	O 	0.74139 0.36509 0.53976 -0.32200
O 	O 	0.64193 0.34200 0.57496 -0.32400
O 	O 	0.63461 0.46032 0.51423 -0.76100
C 	C 	0.32926 0.37604 0.59137 0.40800
O 	O 	0.29663 0.42878 0.57384 -0.31400
O 	O 	0.37364 0.34816 0.55846 -0.32200
O 	O 	0.73879 0.50652 0.58009 -0.32300
O 	O 	0.66197 0.58572 0.55927 -0.32000
O 	O 	0.72342 0.40979 0.42127 -0.32900
O 	O 	0.62343 0.36629 0.42718 -0.33900
C 	C 	0.23714 0.14864 0.22817 0.24800
C 	C 	0.28173 0.19951 0.21873 0.01100
C 	C 	0.30608 0.21003 0.16274 0.24600
C 	C 	0.28460 0.17121 0.11616 0.33200
C 	C 	0.23861 0.12144 0.12531 -0.19000
C 	C 	0.21557 0.10985 0.18165 0.33500
C 	C 	0.30084 0.24359 0.26701 0.01100
F 	F 	0.34944 0.25893 0.15329 -0.30400
F 	F 	0.17161 0.06154 0.19115 -0.33400
C 	C 	0.35561 0.22946 0.29927 0.24900
C 	C 	0.37250 0.26996 0.34634 0.33300
C 	C 	0.33463 0.32505 0.36149 -0.19100
C 	C 	0.28025 0.33961 0.32862 0.33100
C 	C 	0.26345 0.29903 0.28161 0.24700
F 	F 	0.39202 0.17593 0.28544 -0.30300
F 	F 	0.24408 0.39350 0.34188 -0.34200
F 	F 	0.42464 0.25463 0.37818 -0.34200
F 	F 	0.21070 0.31339 0.25028 -0.30600
F 	F 	0.21394 0.13758 0.28231 -0.30100
F 	F 	0.30657 0.18374 0.06183 -0.33400
C 	C 	0.21853 0.28498 0.69282 0.24800
C 	C 	0.26145 0.25747 0.73261 0.01300
C 	C 	0.32628 0.27227 0.72806 0.24800
C 	C 	0.34832 0.31265 0.68282 0.33300
C 	C 	0.30563 0.33849 0.64181 -0.18800
C 	C 	0.24044 0.32515 0.64748 0.33300
C 	C 	0.23920 0.20896 0.77602 0.01200
F 	F 	0.36801 0.24634 0.76683 -0.30000
F 	F 	0.19869 0.34882 0.60764 -0.33500
C 	C 	0.23888 0.14063 0.76275 0.24700
C 	C 	0.21898 0.09426 0.80421 0.33900
C 	C 	0.19941 0.11592 0.85937 -0.18900
C 	C 	0.19797 0.18441 0.87208 0.33400
C 	C 	0.21794 0.23083 0.83053 0.25400
F 	F 	0.25833 0.11923 0.70973 -0.30300
F 	F 	0.17899 0.20577 0.92525 -0.32900
F 	F 	0.21898 0.02821 0.79099 -0.32300
F 	F 	0.21738 0.29695 0.84340 -0.29100
F 	F 	0.15574 0.27102 0.69710 -0.29700
F 	F 	0.41117 0.32637 0.67857 -0.34500
C 	C 	0.26356 0.70153 0.32893 0.24900
C 	C 	0.30225 0.71509 0.28084 0.00900
C 	C 	0.36212 0.68501 0.27648 0.24500
C 	C 	0.38164 0.63871 0.31819 0.33100
C 	C 	0.34165 0.62288 0.36506 -0.19200
C 	C 	0.28327 0.65584 0.37100 0.32800
C 	C 	0.27740 0.75482 0.23218 0.00700
F 	F 	0.40036 0.69892 0.23063 -0.30900
F 	F 	0.24521 0.64266 0.41715 -0.33300
C 	C 	0.27258 0.82446 0.23691 0.24800
C 	C 	0.24885 0.86195 0.19054 0.32600
C 	C 	0.23021 0.83002 0.13892 -0.19300
C 	C 	0.23492 0.76015 0.13446 0.32700
C 	C 	0.25788 0.72281 0.18106 0.24400
F 	F 	0.29118 0.85574 0.28636 -0.30200
F 	F 	0.21918 0.72867 0.08427 -0.33600
F 	F 	0.24387 0.92924 0.19573 -0.33600
F 	F 	0.26169 0.65536 0.17647 -0.30600
F 	F 	0.20589 0.73098 0.33380 -0.30000
F 	F 	0.43812 0.60717 0.31170 -0.33500
C 	C 	0.68414 0.24618 0.28201 0.24800
C 	C 	0.74458 0.21737 0.28654 0.00900
C 	C 	0.78252 0.23123 0.33511 0.24700
C 	C 	0.76125 0.27558 0.37771 0.32500
C 	C 	0.70214 0.30713 0.37178 -0.19100
C 	C 	0.66312 0.29127 0.32418 0.33400
C 	C 	0.77023 0.17742 0.23813 0.00700
F 	F 	0.84080 0.20317 0.34011 -0.30700
F 	F 	0.60605 0.32156 0.31753 -0.32700
C 	C 	0.78792 0.20889 0.18616 0.24300
C 	C 	0.81116 0.17125 0.13977 0.32400
C 	C 	0.81802 0.10166 0.14525 -0.19000
C 	C 	0.80155 0.07036 0.19779 0.32600
C 	C 	0.77738 0.10807 0.24391 0.24800
F 	F 	0.78205 0.27607 0.18053 -0.31000
F 	F 	0.80929 0.00350 0.20422 -0.33100
F 	F 	0.82510 0.20210 0.08885 -0.34100
F 	F 	0.76061 0.07725 0.29411 -0.29900
F 	F 	0.64659 0.23196 0.23576 -0.30300
F 	F 	0.79850 0.28880 0.42440 -0.33900
C 	C 	0.75641 0.70895 0.68392 0.24500
C 	C 	0.77382 0.67832 0.73631 0.00800
C 	C 	0.76776 0.60889 0.74250 0.24900
C 	C 	0.74452 0.57031 0.69650 0.32600
C 	C 	0.72758 0.60091 0.64379 -0.18900
C 	C 	0.73400 0.67049 0.63769 0.32700
C 	C 	0.79807 0.71924 0.78470 0.01000
F 	F 	0.78458 0.57885 0.79304 -0.29700
F 	F 	0.72022 0.70059 0.58640 -0.32600
C 	C 	0.75888 0.73364 0.83229 0.24900
C 	C 	0.77888 0.77885 0.87476 0.32900
C 	C 	0.83801 0.81068 0.86967 -0.18700
C 	C 	0.87813 0.79456 0.82291 0.33200
C 	C 	0.85835 0.74863 0.78090 0.24700
F 	F 	0.70068 0.70511 0.83651 -0.30000
F 	F 	0.93516 0.82522 0.81694 -0.33900
F 	F 	0.74058 0.79228 0.92066 -0.33600
F 	F 	0.89699 0.73410 0.73551 -0.30700
F 	F 	0.76163 0.77613 0.67776 -0.30700
F 	F 	0.73807 0.50333 0.70322 -0.32900
C 	C 	0.75908 0.13041 0.78787 0.24700
C 	C 	0.79638 0.18536 0.77163 0.01200
C 	C 	0.85231 0.19963 0.80213 0.24700
C 	C 	0.87056 0.15962 0.84901 0.33200
C 	C 	0.83294 0.10489 0.86569 -0.19000
C 	C 	0.77726 0.09032 0.83472 0.33200
C 	C 	0.77604 0.22883 0.72348 0.01000
F 	F 	0.88855 0.25279 0.78675 -0.30400
F 	F 	0.74117 0.03687 0.84965 -0.34000
C 	C 	0.73286 0.28071 0.73377 0.25000
C 	C 	0.71080 0.31966 0.68763 0.33400
C 	C 	0.73192 0.30718 0.63082 -0.18800
C 	C 	0.77634 0.25618 0.62074 0.32900
C 	C 	0.79832 0.21722 0.66696 0.24800
F 	F 	0.71168 0.29276 0.78844 -0.29600
F 	F 	0.79638 0.24279 0.56595 -0.32100
F 	F 	0.66846 0.36924 0.69800 -0.32700
F 	F 	0.84029 0.16728 0.65671 -0.30600
F 	F 	0.70512 0.11603 0.75830 -0.30500
F 	F 	0.92386 0.17506 0.87920 -0.34200
C 	C 	0.24051 0.72051 0.65578 0.24900
C 	C 	0.25771 0.70546 0.71319 0.01100
C 	C 	0.29564 0.64950 0.72467 0.24600
C 	C 	0.31784 0.60999 0.67895 0.32700
C 	C 	0.30227 0.62610 0.62135 -0.19100
C 	C 	0.26270 0.68098 0.60997 0.33200
C 	C 	0.23803 0.74964 0.76112 0.01200
F 	F 	0.31185 0.63415 0.78013 -0.30300
F 	F 	0.24772 0.69743 0.55445 -0.31700
C 	C 	0.18300 0.73528 0.79297 0.25200
C 	C 	0.16648 0.77472 0.84076 0.33700
C 	C 	0.20495 0.82897 0.85704 -0.18500
C 	C 	0.25935 0.84405 0.82438 0.33700
C 	C 	0.27581 0.80451 0.77664 0.24900
F 	F 	0.14612 0.68240 0.77813 -0.29500
F 	F 	0.29605 0.89724 0.83875 -0.33400
F 	F 	0.11418 0.75903 0.87229 -0.32600
F 	F 	0.32888 0.81901 0.74577 -0.30600
F 	F 	0.20337 0.77421 0.64436 -0.29600
F 	F 	0.35508 0.55637 0.69049 -0.34800
C 	C 	0.81138 0.69794 0.18298 0.24200
C 	C 	0.76326 0.72296 0.21892 0.00900
C 	C 	0.73727 0.78617 0.20766 0.24800
C 	C 	0.76039 0.82478 0.16160 0.33100
C 	C 	0.80977 0.80049 0.12658 -0.19300
C 	C 	0.83433 0.73631 0.13684 0.32900
C 	C 	0.74192 0.68400 0.26968 0.00800
F 	F 	0.69016 0.81042 0.24178 -0.30400
F 	F 	0.88012 0.71097 0.10179 -0.34800
C 	C 	0.76376 0.70051 0.32543 0.24400
C 	C 	0.74677 0.66123 0.37317 0.32700
C 	C 	0.70810 0.60471 0.36548 -0.19500
C 	C 	0.68564 0.58868 0.30972 0.32900
C 	C 	0.70238 0.62829 0.26206 0.24700
F 	F 	0.80200 0.75431 0.33319 -0.30700
F 	F 	0.64877 0.53390 0.30157 -0.33400
F 	F 	0.76709 0.67864 0.42703 -0.32800
F 	F 	0.68083 0.61212 0.20832 -0.30300
F 	F 	0.83643 0.63668 0.19328 -0.31400
F 	F 	0.73581 0.88635 0.15180 -0.33900
