data_crystal

_cell_length_a 26.35393
_cell_length_b 26.29578
_cell_length_c 26.36365
_cell_angle_alpha 95.45476
_cell_angle_beta  95.45476
_cell_angle_gamma 125.69967

_symmetry_space_group_name_	'P 1'
_symmetry_space_group_name_H-M	'P 1'

loop_
_symmetry_equiv_pos_as_xyz
  x,y,z

loop_
_atom_site_label
_atom_site_type_symbol
_atom_site_fract_x
_atom_site_fract_y
_atom_site_fract_z
_atom_site_charge
C 	C 	0.95621 0.01670 0.99438 0.02400
C 	C 	0.02168 0.04882 0.99498 -0.06900
C 	C 	0.04696 0.01436 0.99091 0.02500
H 	H 	0.05269 0.10021 0.99849 0.05000
C 	C 	0.01441 0.05222 0.44218 -0.06600
H 	H 	0.04180 0.10328 0.44391 0.05300
C 	C 	0.81519 0.16203 0.41728 -0.05200
C 	C 	0.91736 0.13103 0.49644 0.03400
C 	C 	0.88009 0.12855 0.45238 -0.01300
C 	C 	0.86560 0.08770 0.40554 -0.02700
C 	C 	0.88381 0.04726 0.40395 -0.04600
C 	C 	0.91890 0.04857 0.44805 0.01500
C 	C 	0.93442 0.08943 0.49446 -0.06800
H 	H 	0.78743 0.12055 0.38665 0.04800
H 	H 	0.84456 0.09020 0.36956 0.03900
H 	H 	0.96283 0.09129 0.52823 0.04900
C 	C 	0.29784 0.18281 0.36185 -0.03300
C 	C 	0.23266 0.14942 0.36037 -0.05000
C 	C 	0.20653 0.12610 0.40402 0.03400
C 	C 	0.24654 0.13731 0.45027 -0.01100
C 	C 	0.21851 0.10482 0.49067 -0.02600
C 	C 	0.15279 0.06832 0.48745 -0.04500
C 	C 	0.11379 0.06131 0.44323 0.01500
C 	C 	0.14052 0.08961 0.40138 -0.06700
H 	H 	0.13196 0.04452 0.51909 0.04500
C 	C 	0.78605 0.11986 0.02325 0.01300
C 	C 	0.77312 0.07597 0.05575 -0.03200
C 	C 	0.80941 0.05319 0.06067 -0.05000
C 	C 	0.85625 0.07031 0.03040 0.04000
C 	C 	0.86848 0.11278 0.99589 -0.02000
C 	C 	0.93811 0.09162 0.96067 -0.04500
C 	C 	0.92876 0.05244 0.99682 0.00400
C 	C 	0.88856 0.04267 0.03218 -0.05700
H 	H 	0.70901 0.12400 0.03782 0.05500
H 	H 	0.73541 0.06010 0.07789 0.04600
H 	H 	0.96705 0.09743 0.93195 0.04100
C 	C 	0.25234 0.06167 0.06140 -0.04700
C 	C 	0.21632 0.06912 0.02445 0.03900
C 	C 	0.24167 0.09695 0.98124 -0.01700
C 	C 	0.20113 0.09541 0.94081 -0.02800
C 	C 	0.13903 0.07216 0.94573 -0.04400
C 	C 	0.11517 0.04736 0.98960 0.00400
C 	C 	0.15399 0.04633 0.02904 -0.05600
H 	H 	0.23273 0.03953 0.09403 0.04700
H 	H 	0.21560 0.10793 0.90427 0.03900
H 	H 	0.10840 0.07069 0.91419 0.04200
H 	H 	0.13486 0.02562 0.06237 0.04900
H 	H 	0.79952 0.02032 0.08683 0.04500
H 	H 	0.88071 0.01178 0.05979 0.04700
C 	C 	0.31295 0.08099 0.05589 -0.03400
H 	H 	0.33934 0.07341 0.08429 0.05300
C 	C 	0.04461 0.02274 0.44026 0.02200
C 	C 	0.90783 0.12101 0.95965 -0.02800
C 	C 	0.94923 0.01626 0.44327 0.02100
C 	C 	0.34046 0.11179 0.01511 0.01800
C 	C 	0.30611 0.12247 0.97848 0.00500
C 	C 	0.74952 0.14294 0.01857 -0.00300
C 	C 	0.83683 0.14196 0.99581 0.00700
Br	Br	0.53613 0.15552 0.14738 -0.19800
H 	H 	0.91190 0.14649 0.92860 0.03600
C 	C 	0.40336 0.13506 0.01222 -0.00800
H 	H 	0.42944 0.12682 0.04036 0.06400
H 	H 	0.20216 0.14026 0.32472 0.04500
H 	H 	0.24670 0.10476 0.52319 0.04300
H 	H 	0.10986 0.08228 0.36652 0.04900
H 	H 	0.87364 0.01735 0.36752 0.04400
C 	C 	0.86193 0.17018 0.45560 0.01400
C 	C 	0.31355 0.17767 0.45348 0.01500
C 	C 	0.33809 0.16149 0.94233 -0.05100
C 	C 	0.43401 0.17244 0.97535 -0.07700
H 	H 	0.31649 0.17749 0.91824 0.04500
Br	Br	0.55963 0.18271 0.27709 -0.22900
C 	C 	0.94037 0.17750 0.54095 -0.05100
O 	O 	0.53081 0.18158 0.99737 -0.35200
Br	Br	0.51042 0.18209 0.74004 -0.20600
H 	H 	0.96951 0.18001 0.57446 0.04300
H 	H 	0.31690 0.19864 0.32721 0.04200
C 	C 	0.33855 0.19709 0.40799 0.00700
H 	H 	0.42312 0.24430 0.37418 0.04400
H 	H 	0.76386 0.19747 0.39107 0.05100
C 	C 	0.00694 0.94800 0.98702 -0.06900
C 	C 	0.94180 0.91583 0.98664 0.02500
C 	C 	0.91640 0.95008 0.98979 -0.07000
H 	H 	0.02647 0.92141 0.98417 0.05100
H 	H 	0.86573 0.92492 0.98825 0.04800
C 	C 	0.00941 0.95693 0.43822 -0.06600
C 	C 	0.94418 0.92055 0.43909 0.02200
C 	C 	0.91395 0.95025 0.44163 -0.06600
H 	H 	0.03298 0.93421 0.43703 0.05300
H 	H 	0.86364 0.92239 0.44294 0.05100
Cu	Cu	0.62491 0.22360 0.99824 0.92700
Cu	Cu	0.67807 0.23034 0.88957 0.87300
Cu	Cu	0.65125 0.31946 0.92794 0.89800
Cu	Cu	0.61810 0.33785 0.02973 0.90100
C 	C 	0.64289 0.27441 0.10538 0.33000
C 	C 	0.64120 0.28155 0.81655 0.32600
O 	O 	0.67108 0.32184 0.00047 -0.63200
O 	O 	0.61455 0.22745 0.92352 -0.63900
O 	O 	0.67035 0.18350 0.99718 -0.36400
O 	O 	0.73777 0.25230 0.94922 -0.43400
O 	O 	0.61011 0.29547 0.09048 -0.37200
O 	O 	0.69359 0.41033 0.93558 -0.36700
C 	C 	0.69216 0.44565 0.97378 0.27800
C 	C 	0.50311 0.20604 0.97835 0.28100
O 	O 	0.53819 0.26470 0.96998 -0.39100
O 	O 	0.65089 0.41956 0.00523 -0.37500
O 	O 	0.64738 0.23680 0.07224 -0.33900
C 	C 	0.72389 0.21076 0.97946 0.28700
O 	O 	0.63508 0.31512 0.85274 -0.36100
O 	O 	0.63922 0.23198 0.82539 -0.40300
H 	H 	0.71687 0.35189 0.01604 0.18100
H 	H 	0.57066 0.19802 0.90330 0.18500
Cu	Cu	0.73202 0.34070 0.43370 0.92700
Cu	Cu	0.75029 0.31051 0.54925 0.88300
Cu	Cu	0.63824 0.32207 0.50295 0.91400
Cu	Cu	0.62134 0.35226 0.39963 0.89900
C 	C 	0.68159 0.32049 0.32560 0.33200
O 	O 	0.77741 0.43498 0.43159 -0.34500
C 	C 	0.66167 0.30871 0.60531 0.33500
O 	O 	0.63481 0.29882 0.43104 -0.64000
O 	O 	0.72960 0.35641 0.50845 -0.62900
O 	O 	0.76260 0.28625 0.43422 -0.36100
O 	O 	0.81793 0.32674 0.51712 -0.41500
O 	O 	0.66195 0.35515 0.33875 -0.37300
O 	O 	0.54864 0.28250 0.49588 -0.36400
C 	C 	0.51427 0.28477 0.45756 0.28600
C 	C 	0.75487 0.46519 0.44949 0.27700
O 	O 	0.69637 0.43257 0.45796 -0.39000
O 	O 	0.54107 0.32411 0.42473 -0.38500
O 	O 	0.71777 0.31557 0.35990 -0.34300
C 	C 	0.80549 0.29421 0.47097 0.28300
O 	O 	0.64487 0.33684 0.57718 -0.36300
O 	O 	0.67719 0.27389 0.58311 -0.41500
H 	H 	0.60344 0.25272 0.41663 0.17700
H 	H 	0.75808 0.40222 0.52431 0.17000
C 	C 	0.69736 0.34815 0.75168 0.09700
C 	C 	0.64186 0.29456 0.76342 -0.11200
C 	C 	0.58959 0.25030 0.72339 0.10300
C 	C 	0.59501 0.25650 0.67134 0.10500
C 	C 	0.65262 0.30702 0.65947 -0.11900
C 	C 	0.70286 0.35417 0.69965 0.09900
Br	Br	0.77963 0.42626 0.68322 -0.24700
Br	Br	0.76641 0.41233 0.80689 -0.23100
Br	Br	0.52377 0.19597 0.61627 -0.20600
C 	C 	0.72624 0.34514 0.24459 0.10600
C 	C 	0.67783 0.30212 0.27014 -0.10900
C 	C 	0.62269 0.24456 0.24151 0.09800
C 	C 	0.61318 0.23283 0.18699 0.10600
C 	C 	0.65919 0.27849 0.16125 -0.10800
C 	C 	0.71706 0.33297 0.19010 0.09700
Br	Br	0.78286 0.39168 0.15469 -0.22400
Br	Br	0.80384 0.42192 0.28418 -0.19800
C 	C 	0.90873 0.85202 0.44011 0.01500
C 	C 	0.89313 0.83052 0.48677 -0.04600
C 	C 	0.87192 0.76882 0.49143 -0.02700
C 	C 	0.86281 0.72620 0.44823 -0.01100
C 	C 	0.88070 0.74892 0.40161 0.03300
C 	C 	0.90138 0.81084 0.39735 -0.06700
C 	C 	0.88107 0.71094 0.36077 -0.04800
C 	C 	0.86438 0.65091 0.36569 -0.03400
C 	C 	0.84295 0.62586 0.41015 0.01100
C 	C 	0.83953 0.66229 0.45111 0.01200
C 	C 	0.80928 0.63268 0.49195 -0.05100
C 	C 	0.78715 0.57010 0.49361 0.00300
C 	C 	0.79161 0.53463 0.45356 -0.06700
C 	C 	0.82109 0.56315 0.41265 -0.01900
H 	H 	0.90112 0.86297 0.52052 0.04400
H 	H 	0.86731 0.75641 0.52946 0.03900
H 	H 	0.91499 0.82817 0.36164 0.05000
H 	H 	0.89575 0.72860 0.32542 0.04600
H 	H 	0.86641 0.62296 0.33408 0.05100
H 	H 	0.79853 0.65581 0.52034 0.04600
H 	H 	0.76324 0.54791 0.52482 0.03900
H 	H 	0.82324 0.53522 0.38105 0.06300
C 	C 	0.82850 0.25475 0.46379 -0.07400
C 	C 	0.80003 0.20490 0.42080 0.00500
C 	C 	0.88885 0.21905 0.49988 0.00500
C 	C 	0.87388 0.26236 0.50270 -0.01900
C 	C 	0.92805 0.22236 0.54198 -0.03400
H 	H 	0.89594 0.30064 0.53608 0.04300
H 	H 	0.94791 0.25903 0.57624 0.03900
C 	C 	0.44562 0.25049 0.45648 -0.06500
C 	C 	0.42134 0.23641 0.50239 0.00900
C 	C 	0.35606 0.20156 0.50122 -0.04900
C 	C 	0.40425 0.23191 0.40950 -0.01600
H 	H 	0.45323 0.25365 0.53929 0.05900
H 	H 	0.33933 0.19625 0.53761 0.05100
C 	C 	0.90025 0.84615 0.98345 0.00400
C 	C 	0.86967 0.82018 0.02467 -0.03600
C 	C 	0.83330 0.75452 0.02325 -0.02000
C 	C 	0.82945 0.71398 0.98128 -0.01800
C 	C 	0.85557 0.73971 0.93766 0.03300
C 	C 	0.89202 0.80580 0.93951 -0.06500
C 	C 	0.84382 0.69908 0.89233 -0.04800
C 	C 	0.80649 0.63328 0.88979 -0.03400
C 	C 	0.78353 0.60717 0.93356 0.01100
C 	C 	0.79747 0.64765 0.98056 0.00500
C 	C 	0.78272 0.62157 0.02608 -0.04300
C 	C 	0.74815 0.55585 0.02350 0.01300
C 	C 	0.72987 0.51519 0.97611 -0.07200
C 	C 	0.74843 0.54108 0.93131 -0.01600
H 	H 	0.87382 0.85095 0.05782 0.04200
H 	H 	0.80605 0.73541 0.05348 0.03800
H 	H 	0.91381 0.82584 0.90682 0.04900
H 	H 	0.86276 0.71845 0.85856 0.04700
H 	H 	0.79666 0.60258 0.85397 0.05200
H 	H 	0.80070 0.65190 0.06378 0.04500
H 	H 	0.73685 0.53663 0.05876 0.03800
H 	H 	0.73577 0.50995 0.89483 0.06300
C 	C 	0.76541 0.19036 0.98898 -0.08600
C 	C 	0.82046 0.21746 0.96709 0.00400
C 	C 	0.85647 0.19432 0.97113 -0.05600
H 	H 	0.83562 0.25676 0.94693 0.03400
H 	H 	0.90092 0.21917 0.95719 0.04400
C 	C 	0.40082 0.18480 0.94015 0.00400
H 	H 	0.42452 0.21474 0.91227 0.04200
