data_crystal

_cell_length_a 40.75868
_cell_length_b 39.22952
_cell_length_c 47.04421
_cell_angle_alpha 90.00000
_cell_angle_beta  90.00000
_cell_angle_gamma 118.38203

_symmetry_space_group_name_	'P 1'
_symmetry_space_group_name_H-M	'P 1'

loop_
_symmetry_equiv_pos_as_xyz
  x,y,z

loop_
_atom_site_label
_atom_site_type_symbol
_atom_site_fract_x
_atom_site_fract_y
_atom_site_fract_z
_atom_site_charge
Ni	Ni	0.03992 0.02756 0.99723 1.09600
O 	O 	0.08022 0.05790 0.96801 -0.39500
O 	O 	0.08010 0.03942 0.02705 -0.37900
O 	O 	0.05677 0.98678 0.05617 -0.40500
Ni	Ni	0.00065 0.95432 0.04466 1.06300
H 	H 	0.00217 0.98666 0.95562 0.15200
C 	C 	0.00636 0.08062 0.00732 0.27700
O 	O 	0.01415 0.93799 0.00737 -0.43200
C 	C 	0.07754 0.08356 0.95157 0.28500
C 	C 	0.08304 0.01076 0.03887 0.28600
O 	O 	0.03711 0.07713 0.00838 -0.37000
O 	O 	0.04786 0.08874 0.95339 -0.41400
Ni	Ni	0.04154 0.52866 0.00277 1.09700
O 	O 	0.08332 0.54148 0.97422 -0.37800
O 	O 	0.06192 0.48907 0.94502 -0.40500
O 	O 	0.03797 0.57759 0.99080 -0.37000
Ni	Ni	0.00572 0.45500 0.95566 1.06400
O 	O 	0.04653 0.58947 0.04614 -0.41400
O 	O 	0.01862 0.44008 0.99398 -0.43000
O 	O 	0.08032 0.55961 0.03273 -0.39400
H 	H 	0.00291 0.48747 0.04390 0.15300
C 	C 	0.08732 0.51325 0.96276 0.28700
C 	C 	0.00688 0.58050 0.99126 0.27900
C 	C 	0.07663 0.58512 0.04865 0.28700
C 	C 	0.17658 0.68243 0.07814 0.02600
C 	C 	0.14200 0.68121 0.08252 -0.06800
C 	C 	0.10903 0.64835 0.07470 0.01200
C 	C 	0.11038 0.61648 0.06215 -0.08900
C 	C 	0.14488 0.61660 0.06001 0.01400
C 	C 	0.17779 0.64949 0.06782 -0.06700
H 	H 	0.14075 0.70624 0.09102 0.04300
H 	H 	0.08262 0.64829 0.07748 0.02600
H 	H 	0.14640 0.59184 0.05130 0.03500
C 	C 	0.18726 0.50730 0.98112 0.02600
C 	C 	0.15559 0.47443 0.97112 -0.06800
C 	C 	0.12352 0.47683 0.96375 0.01300
C 	C 	0.12280 0.51216 0.96634 -0.09300
C 	C 	0.15503 0.54536 0.97540 0.01400
C 	C 	0.18707 0.54291 0.98277 -0.06700
H 	H 	0.15560 0.44688 0.96957 0.04400
H 	H 	0.09884 0.45093 0.95699 0.02300
H 	H 	0.15506 0.57290 0.97728 0.03900
C 	C 	0.17784 0.18066 0.92261 0.02600
C 	C 	0.17957 0.14984 0.93637 -0.06700
C 	C 	0.14676 0.11679 0.94414 0.01400
C 	C 	0.11185 0.11439 0.93835 -0.08900
C 	C 	0.11028 0.14392 0.92239 0.01300
C 	C 	0.14314 0.17702 0.91478 -0.06800
H 	H 	0.14859 0.09385 0.95568 0.03600
H 	H 	0.08365 0.14193 0.91680 0.02300
H 	H 	0.14159 0.20042 0.90370 0.04300
C 	C 	0.18219 0.00275 0.02196 0.02600
C 	C 	0.14970 0.96990 0.03085 -0.06800
C 	C 	0.11785 0.97291 0.03792 0.01300
C 	C 	0.11820 0.00883 0.03610 -0.09300
C 	C 	0.15128 0.04199 0.02831 0.01400
C 	C 	0.18309 0.03893 0.02127 -0.06700
H 	H 	0.14879 0.94185 0.03152 0.04400
H 	H 	0.09250 0.94706 0.04371 0.02400
H 	H 	0.15214 0.06999 0.02713 0.03900
C 	C 	0.02776 0.74812 0.97330 -0.04000
C 	C 	0.00652 0.71841 0.95404 -0.00100
C 	C 	0.00501 0.68020 0.95689 0.02200
C 	C 	0.00525 0.61220 0.97534 -0.08900
C 	C 	0.03817 0.64348 0.96497 0.01200
C 	C 	0.03800 0.67731 0.95580 -0.06600
H 	H 	0.06423 0.64241 0.96533 0.04100
H 	H 	0.06388 0.70193 0.94917 0.04500
H 	H 	0.04472 0.74384 0.98918 0.03800
C 	C 	0.03065 0.24890 0.02834 -0.03900
C 	C 	0.00795 0.21864 0.04671 -0.00200
C 	C 	0.00530 0.18004 0.04316 0.02300
C 	C 	0.03742 0.17567 0.04548 -0.06600
C 	C 	0.03711 0.14186 0.03573 0.01100
C 	C 	0.00462 0.11210 0.02348 -0.08800
H 	H 	0.06309 0.19922 0.05356 0.04500
H 	H 	0.06260 0.13967 0.03646 0.04100
H 	H 	0.04803 0.24471 0.01280 0.03800
C 	C 	0.02875 0.85997 0.95461 -0.07000
C 	C 	0.02521 0.89220 0.96319 0.00900
H 	H 	0.05596 0.86357 0.94887 0.04400
H 	H 	0.04974 0.92041 0.96405 0.02400
C 	C 	0.02880 0.39336 0.03773 0.00700
C 	C 	0.03213 0.36110 0.04656 -0.06500
H 	H 	0.05339 0.42153 0.03692 0.02500
H 	H 	0.05925 0.36462 0.05252 0.04300
H 	H 	0.19092 0.46554 0.02574 0.03700
C 	C 	0.27396 0.75591 0.10029 -0.04000
C 	C 	0.28118 0.78636 0.08135 -0.00100
C 	C 	0.25280 0.78382 0.06316 -0.03800
H 	H 	0.25809 0.80709 0.04841 0.03900
C 	C 	0.21809 0.75052 0.06303 -0.03900
C 	C 	0.21140 0.71938 0.08105 -0.00100
C 	C 	0.23921 0.72250 0.10009 -0.04000
H 	H 	0.23421 0.69873 0.11424 0.03600
C 	C 	0.31927 0.81913 0.07859 0.02600
C 	C 	0.32543 0.85738 0.08115 -0.06700
H 	H 	0.30308 0.86301 0.08799 0.04300
H 	H 	0.20434 0.64997 0.06472 0.04500
H 	H 	0.19681 0.74838 0.04824 0.03900
H 	H 	0.29555 0.75772 0.11461 0.03500
C 	C 	0.28549 0.52156 0.98624 -0.03900
C 	C 	0.28263 0.49849 0.00989 -0.00100
C 	C 	0.24837 0.47830 0.02405 -0.03900
H 	H 	0.24592 0.46051 0.04238 0.03700
C 	C 	0.21722 0.48110 0.01460 -0.03900
C 	C 	0.22007 0.50411 0.99091 -0.00100
C 	C 	0.25434 0.52438 0.97680 -0.03900
H 	H 	0.25678 0.54216 0.95847 0.03700
C 	C 	0.31531 0.49486 0.01945 0.02600
C 	C 	0.31474 0.45885 0.01827 -0.06700
C 	C 	0.34763 0.52769 0.02865 -0.06800
H 	H 	0.34822 0.55555 0.02986 0.04400
H 	H 	0.28985 0.43331 0.01131 0.04600
H 	H 	0.21147 0.56848 0.99035 0.04500
H 	H 	0.31176 0.53706 0.97506 0.03600
C 	C 	0.23997 0.22240 0.90064 -0.04000
C 	C 	0.21182 0.21825 0.91967 -0.00100
C 	C 	0.21740 0.24909 0.93763 -0.03900
H 	H 	0.19575 0.24614 0.95234 0.03900
C 	C 	0.25153 0.28310 0.93758 -0.03800
C 	C 	0.28035 0.28670 0.91943 -0.00100
C 	C 	0.27405 0.25660 0.90039 -0.04000
H 	H 	0.29593 0.25924 0.88605 0.03500
C 	C 	0.31815 0.31989 0.92265 0.02600
C 	C 	0.32358 0.35800 0.92137 -0.06700
H 	H 	0.20631 0.15222 0.94215 0.04500
H 	H 	0.30080 0.36340 0.91537 0.04400
H 	H 	0.25607 0.30607 0.95241 0.03900
H 	H 	0.23578 0.19882 0.88655 0.03600
C 	C 	0.25724 0.00369 0.97433 -0.03900
C 	C 	0.27664 0.99211 0.99329 -0.00100
C 	C 	0.26480 0.98378 0.02167 -0.03900
H 	H 	0.27972 0.97500 0.03649 0.03700
C 	C 	0.23393 0.98718 0.03103 -0.03900
C 	C 	0.21467 0.99899 0.01210 -0.00100
C 	C 	0.22638 0.00711 0.98370 -0.03900
H 	H 	0.21152 0.01598 0.96889 0.03700
C 	C 	0.30983 0.98955 0.98363 0.02600
C 	C 	0.31019 0.95399 0.98450 -0.06700
C 	C 	0.34164 0.02294 0.97448 -0.06800
H 	H 	0.34160 0.05053 0.97374 0.04400
H 	H 	0.28561 0.92797 0.99123 0.04600
H 	H 	0.20822 0.06454 0.01477 0.04500
H 	H 	0.22512 0.98090 0.05300 0.03700
H 	H 	0.26608 0.01004 0.95237 0.03700
H 	H 	0.34426 0.28413 0.93095 0.04400
O 	O 	0.41471 0.95684 0.97647 -0.37700
C 	C 	0.41043 0.98499 0.96516 0.28600
O 	O 	0.41798 0.45876 0.02483 -0.37700
C 	C 	0.41472 0.48731 0.03654 0.28500
C 	C 	0.35995 0.88837 0.07362 0.01300
C 	C 	0.38866 0.88139 0.06355 -0.09000
C 	C 	0.38325 0.84323 0.06289 0.01400
C 	C 	0.34870 0.81228 0.07029 -0.06700
H 	H 	0.36397 0.91770 0.07476 0.02800
H 	H 	0.34430 0.78289 0.06835 0.04400
C 	C 	0.34664 0.45592 0.02528 0.01500
C 	C 	0.37950 0.48906 0.03347 -0.09200
C 	C 	0.37958 0.52482 0.03562 0.01200
H 	H 	0.34600 0.42806 0.02379 0.04000
H 	H 	0.40475 0.55066 0.04171 0.02300
C 	C 	0.35803 0.38911 0.92893 0.01200
C 	C 	0.38743 0.38239 0.93767 -0.08900
C 	C 	0.38259 0.34444 0.93724 0.01400
C 	C 	0.34812 0.31340 0.92989 -0.06700
H 	H 	0.36157 0.41828 0.92867 0.02800
C 	C 	0.34251 0.95205 0.97716 0.01500
C 	C 	0.37481 0.98573 0.96888 -0.09300
C 	C 	0.37396 0.02106 0.96712 0.01300
H 	H 	0.34258 0.92451 0.97835 0.04000
H 	H 	0.39874 0.04732 0.96103 0.02200
O 	O 	0.43560 0.00931 0.94736 -0.40400
O 	O 	0.45255 0.90913 0.04797 -0.41500
O 	O 	0.41833 0.93868 0.03491 -0.39300
C 	C 	0.42229 0.91314 0.05057 0.28800
O 	O 	0.41861 0.43999 0.96592 -0.39200
O 	O 	0.44072 0.51136 0.05399 -0.40300
C 	C 	0.42168 0.41421 0.94991 0.28700
O 	O 	0.45182 0.40986 0.95168 -0.41500
H 	H 	0.44878 0.58994 0.97674 0.02900
H 	H 	0.44928 0.65069 0.96276 0.04300
H 	H 	0.44216 0.79080 0.96512 0.04500
H 	H 	0.43560 0.84683 0.98168 0.04000
H 	H 	0.44294 0.29186 0.03563 0.04500
H 	H 	0.43671 0.34777 0.01836 0.04000
H 	H 	0.40516 0.83736 0.05532 0.03400
H 	H 	0.40499 0.33876 0.94382 0.03400
H 	H 	0.46911 0.26752 0.08139 0.03700
Ni	Ni	0.45676 0.96987 0.00481 1.09800
O 	O 	0.49787 0.00175 0.97609 -0.70100
O 	O 	0.46068 0.92118 0.99274 -0.37000
Ni	Ni	0.49192 0.04349 0.95761 1.06400
O 	O 	0.47960 0.05862 0.99607 -0.42900
O 	O 	0.50000 0.99527 0.03152 -0.70100
Ni	Ni	0.50621 0.95348 0.04980 1.06500
H 	H 	0.50221 0.98567 0.96192 0.15500
H 	H 	0.49571 0.01132 0.04574 0.15500
C 	C 	0.50616 0.07875 0.01451 0.28000
O 	O 	0.51849 0.93854 0.01145 -0.43000
C 	C 	0.49206 0.91885 0.99283 0.28000
O 	O 	0.50080 0.49582 0.96764 -0.70200
Ni	Ni	0.45852 0.47094 0.99526 1.09700
Ni	Ni	0.50554 0.45365 0.94860 1.06400
O 	O 	0.51902 0.43826 0.98654 -0.42800
O 	O 	0.50092 0.50198 0.02324 -0.70100
Ni	Ni	0.49692 0.54425 0.04283 1.06500
H 	H 	0.49642 0.51226 0.95383 0.15500
H 	H 	0.50543 0.48553 0.03696 0.15600
C 	C 	0.49325 0.41911 0.00575 0.28000
O 	O 	0.48382 0.56068 0.00543 -0.43000
C 	C 	0.50969 0.58021 0.98639 0.28100
O 	O 	0.46210 0.42184 0.00659 -0.37000
C 	C 	0.53201 0.74875 0.97212 -0.03900
C 	C 	0.51036 0.71977 0.95250 -0.00000
C 	C 	0.48809 0.72646 0.93287 -0.04000
H 	H 	0.47148 0.70438 0.91751 0.03600
C 	C 	0.48639 0.76126 0.93363 -0.03900
C 	C 	0.50692 0.78958 0.95404 -0.00100
C 	C 	0.53029 0.78344 0.97290 -0.03900
H 	H 	0.54613 0.80502 0.98881 0.03700
C 	C 	0.50147 0.82399 0.95749 0.02500
C 	C 	0.53235 0.86124 0.95719 -0.06700
C 	C 	0.52870 0.89301 0.96678 0.01000
C 	C 	0.49408 0.88784 0.97655 -0.08800
C 	C 	0.46255 0.85117 0.97443 0.01300
C 	C 	0.46626 0.81936 0.96504 -0.06600
C 	C 	0.50852 0.68131 0.95435 0.02400
C 	C 	0.47490 0.64876 0.96184 -0.06600
C 	C 	0.47471 0.61440 0.97001 0.00800
C 	C 	0.50825 0.61245 0.97113 -0.08700
H 	H 	0.46849 0.76583 0.91883 0.03700
C 	C 	0.53129 0.24768 0.02855 -0.03900
C 	C 	0.50919 0.21923 0.04835 -0.00000
C 	C 	0.48742 0.22692 0.06782 -0.04000
H 	H 	0.47047 0.20525 0.08333 0.03700
C 	C 	0.48664 0.26218 0.06671 -0.03900
C 	C 	0.50748 0.28991 0.04602 -0.00100
C 	C 	0.53041 0.28279 0.02737 -0.03900
C 	C 	0.50256 0.32455 0.04195 0.02500
C 	C 	0.46730 0.32021 0.03493 -0.06600
C 	C 	0.46378 0.35194 0.02511 0.01300
C 	C 	0.49555 0.38825 0.02201 -0.08800
C 	C 	0.53036 0.39321 0.03110 0.01000
C 	C 	0.53381 0.36153 0.04117 -0.06700
C 	C 	0.50630 0.18033 0.04682 0.02400
C 	C 	0.53848 0.17610 0.04931 -0.06600
C 	C 	0.53779 0.14157 0.04096 0.01100
C 	C 	0.50486 0.11095 0.02996 -0.08700
C 	C 	0.47176 0.11383 0.03041 0.00800
C 	C 	0.47256 0.14846 0.03863 -0.06600
H 	H 	0.56332 0.13944 0.04167 0.04100
H 	H 	0.44580 0.08994 0.02309 0.03000
H 	H 	0.44738 0.15119 0.03714 0.04300
H 	H 	0.56447 0.20025 0.05630 0.04500
H 	H 	0.04154 0.80498 0.98851 0.03600
C 	C 	0.02598 0.78279 0.97291 -0.03700
C 	C 	0.02967 0.28398 0.02903 -0.03900
H 	H 	0.04622 0.30654 0.01396 0.03700
H 	H 	0.54917 0.74383 0.98743 0.03800
Ni	Ni	0.54108 0.02717 0.00282 1.09800
O 	O 	0.57967 0.05828 0.97274 -0.39300
O 	O 	0.58294 0.04027 0.03133 -0.37800
O 	O 	0.56259 0.98738 0.05998 -0.40400
C 	C 	0.57586 0.08393 0.95713 0.28800
C 	C 	0.58761 0.01221 0.04232 0.28700
O 	O 	0.53727 0.07588 0.01495 -0.37100
O 	O 	0.54554 0.08787 0.95959 -0.41500
Ni	Ni	0.54311 0.52679 0.99565 1.09800
O 	O 	0.58378 0.53960 0.96614 -0.38000
O 	O 	0.56162 0.48687 0.93722 -0.40500
O 	O 	0.54033 0.57654 0.98496 -0.37200
O 	O 	0.55118 0.58758 0.04046 -0.41100
O 	O 	0.58289 0.55619 0.02523 -0.39600
C 	C 	0.58754 0.51138 0.95448 0.28800
C 	C 	0.58097 0.58245 0.04141 0.28900
C 	C 	0.54124 0.64387 0.96101 0.01200
C 	C 	0.54133 0.67812 0.95266 -0.06600
H 	H 	0.56718 0.64255 0.96098 0.04100
H 	H 	0.56727 0.70282 0.94624 0.04500
H 	H 	0.55951 0.86526 0.95085 0.04400
H 	H 	0.55310 0.92131 0.96777 0.02400
H 	H 	0.54650 0.30389 0.01125 0.03700
H 	H 	0.56105 0.36536 0.04710 0.04400
H 	H 	0.55496 0.42126 0.02934 0.02500
H 	H 	0.54812 0.24199 0.01339 0.03800
H 	H 	0.59222 0.15943 0.95139 0.03400
H 	H 	0.58972 0.62470 0.08935 0.01600
C 	C 	0.60961 0.11582 0.94435 -0.09000
C 	C 	0.61453 0.15381 0.94443 0.01400
H 	H 	0.63523 0.07999 0.93433 0.02800
C 	C 	0.62289 0.51003 0.95787 -0.09400
C 	C 	0.62300 0.47429 0.95679 0.01300
H 	H 	0.59799 0.44819 0.95083 0.02300
C 	C 	0.61596 0.61367 0.05310 -0.08900
C 	C 	0.61550 0.63356 0.07780 0.01200
C 	C 	0.62308 0.01147 0.03781 -0.09400
C 	C 	0.62377 0.97601 0.03838 0.01300
H 	H 	0.59911 0.94963 0.04444 0.02300
O 	O 	0.00010 0.49689 0.97426 -0.70400
C 	C 	0.00605 0.28925 0.04818 -0.00200
C 	C 	0.67332 0.14037 0.92767 -0.06700
C 	C 	0.63884 0.10919 0.93503 0.01300
C 	C 	0.64903 0.18495 0.93718 -0.06700
H 	H 	0.65299 0.21423 0.93864 0.04400
C 	C 	0.65555 0.54354 0.96583 0.01600
C 	C 	0.65477 0.47178 0.96493 -0.06800
H 	H 	0.65607 0.57140 0.96641 0.03700
H 	H 	0.65416 0.44386 0.96492 0.04400
C 	C 	0.64973 0.62520 0.03858 0.01700
C 	C 	0.64833 0.66531 0.08742 -0.06800
H 	H 	0.65049 0.61026 0.01942 0.03800
H 	H 	0.64763 0.68069 0.10634 0.04200
C 	C 	0.65525 0.04534 0.02964 0.01500
C 	C 	0.65571 0.97418 0.02974 -0.06800
H 	H 	0.65531 0.07298 0.02941 0.04000
H 	H 	0.65557 0.94649 0.02947 0.04400
H 	H 	0.70233 0.23886 0.89265 0.03500
C 	C 	0.67892 0.17848 0.92960 0.02600
H 	H 	0.69604 0.13502 0.92138 0.04400
C 	C 	0.68673 0.50496 0.97416 0.02600
C 	C 	0.68728 0.54098 0.97395 -0.06800
H 	H 	0.71203 0.56684 0.98068 0.04500
H 	H 	0.68728 0.74883 0.08058 0.03700
C 	C 	0.68177 0.67769 0.07222 0.02600
C 	C 	0.68232 0.65712 0.04797 -0.06700
H 	H 	0.70782 0.66659 0.03588 0.04600
C 	C 	0.68728 0.00776 0.02052 0.02600
C 	C 	0.68717 0.04346 0.02103 -0.06700
H 	H 	0.71161 0.06963 0.01430 0.04600
O 	O 	0.99716 0.99687 0.02501 -0.70100
C 	C 	0.98549 0.22440 0.06671 -0.03800
H 	H 	0.96808 0.20131 0.08114 0.03700
O 	O 	0.99784 0.00316 0.96941 -0.70000
O 	O 	0.99854 0.50351 0.02971 -0.69900
C 	C 	0.97150 0.64773 0.96469 -0.06400
C 	C 	0.97156 0.61379 0.97369 0.01000
H 	H 	0.94569 0.58941 0.98061 0.02900
H 	H 	0.94574 0.64943 0.96517 0.04300
C 	C 	0.97155 0.11502 0.02379 0.01000
C 	C 	0.97196 0.14893 0.03343 -0.06400
H 	H 	0.94684 0.15177 0.03199 0.04400
H 	H 	0.94590 0.09175 0.01541 0.03000
Ni	Ni	0.95520 0.97237 0.99718 1.09800
O 	O 	0.91503 0.96005 0.96734 -0.37900
O 	O 	0.93764 0.01321 0.93881 -0.40400
O 	O 	0.95787 0.92252 0.98661 -0.37100
Ni	Ni	0.99380 0.04568 0.95028 1.06400
O 	O 	0.94632 0.91124 0.04191 -0.41100
O 	O 	0.98055 0.06157 0.98810 -0.42700
O 	O 	0.91504 0.94299 0.02651 -0.39600
H 	H 	0.99273 0.01345 0.03866 0.15600
C 	C 	0.91151 0.98852 0.95585 0.28700
C 	C 	0.98861 0.91907 0.98798 0.28300
C 	C 	0.91664 0.91658 0.04270 0.28900
Ni	Ni	0.95717 0.47159 0.00125 1.09800
O 	O 	0.91824 0.44044 0.97140 -0.39400
O 	O 	0.91572 0.45873 0.03007 -0.37800
O 	O 	0.93629 0.51196 0.05841 -0.40400
Ni	Ni	0.99271 0.54546 0.04809 1.06500
H 	H 	0.99568 0.51301 0.96017 0.15700
C 	C 	0.99241 0.42038 0.01275 0.28200
O 	O 	0.98043 0.56063 0.00984 -0.42900
C 	C 	0.92175 0.41459 0.95578 0.28700
C 	C 	0.91114 0.48692 0.04092 0.28700
O 	O 	0.96115 0.42291 0.01324 -0.37000
O 	O 	0.95210 0.41065 0.95806 -0.41400
C 	C 	0.74518 0.21502 0.94541 -0.03800
C 	C 	0.71683 0.21158 0.92681 -0.00100
C 	C 	0.72391 0.24135 0.90726 -0.04000
C 	C 	0.75853 0.27492 0.90712 -0.04000
C 	C 	0.78638 0.27888 0.92644 -0.00100
C 	C 	0.77978 0.24847 0.94520 -0.03900
H 	H 	0.80107 0.25129 0.96023 0.03900
C 	C 	0.82127 0.31590 0.92865 0.02600
C 	C 	0.85577 0.31687 0.92443 -0.06800
C 	C 	0.88887 0.35008 0.93144 0.01200
C 	C 	0.88776 0.38258 0.94304 -0.08900
C 	C 	0.85330 0.38258 0.94504 0.01300
C 	C 	0.82025 0.34932 0.93803 -0.06700
H 	H 	0.85686 0.29143 0.91665 0.04300
H 	H 	0.91522 0.34996 0.92881 0.02700
H 	H 	0.79375 0.34903 0.94101 0.04500
H 	H 	0.85193 0.40777 0.95303 0.03500
H 	H 	0.76345 0.29813 0.89242 0.03600
H 	H 	0.73999 0.19230 0.96065 0.03900
C 	C 	0.73909 0.48964 0.96782 -0.03900
C 	C 	0.71882 0.50165 0.98552 -0.00100
C 	C 	0.72897 0.51017 0.01419 -0.03900
H 	H 	0.71331 0.51922 0.02805 0.03700
C 	C 	0.75924 0.50684 0.02504 -0.03900
C 	C 	0.77959 0.49494 0.00733 -0.00100
C 	C 	0.76937 0.48632 0.97867 -0.03900
H 	H 	0.78505 0.47731 0.96480 0.03700
C 	C 	0.81197 0.49215 0.01863 0.02600
C 	C 	0.84344 0.52549 0.02828 -0.06800
C 	C 	0.87520 0.52339 0.03705 0.01300
C 	C 	0.87581 0.48789 0.03618 -0.09400
C 	C 	0.84374 0.45425 0.02750 0.01500
C 	C 	0.81200 0.45641 0.01876 -0.06700
H 	H 	0.84365 0.55321 0.02829 0.04400
H 	H 	0.89980 0.54961 0.04345 0.02300
H 	H 	0.78765 0.43043 0.01165 0.04600
H 	H 	0.84362 0.42659 0.02697 0.03900
H 	H 	0.76685 0.51344 0.04721 0.03700
H 	H 	0.73148 0.48305 0.94566 0.03700
C 	C 	0.74681 0.78429 0.08202 -0.03900
C 	C 	0.78156 0.78500 0.08042 -0.00100
C 	C 	0.78309 0.75002 0.08177 -0.03900
H 	H 	0.80971 0.75014 0.08102 0.03700
C 	C 	0.75016 0.71468 0.08198 -0.03900
C 	C 	0.71544 0.71397 0.08013 -0.00100
C 	C 	0.71389 0.74894 0.08152 -0.03900
C 	C 	0.81534 0.82136 0.07282 0.02600
C 	C 	0.81512 0.84218 0.04861 -0.06700
C 	C 	0.84787 0.87412 0.03947 0.01700
C 	C 	0.88146 0.88542 0.05419 -0.08900
C 	C 	0.88157 0.86530 0.07886 0.01200
C 	C 	0.84859 0.83354 0.08824 -0.06800
H 	H 	0.84737 0.88924 0.02033 0.03800
H 	H 	0.90722 0.87398 0.09057 0.01700
H 	H 	0.84903 0.81798 0.10713 0.04200
H 	H 	0.78977 0.83287 0.03636 0.04600
H 	H 	0.75168 0.68785 0.08184 0.03600
H 	H 	0.74530 0.81112 0.08191 0.03600
C 	C 	0.73988 0.99282 0.02677 -0.03900
C 	C 	0.71981 0.00526 0.00922 -0.00100
C 	C 	0.73038 0.01460 0.98069 -0.03900
H 	H 	0.71491 0.02403 0.96694 0.03700
C 	C 	0.76070 0.01140 0.96978 -0.03900
C 	C 	0.78066 0.99879 0.98730 -0.00100
C 	C 	0.77019 0.98961 0.01585 -0.03900
H 	H 	0.78560 0.98010 0.02958 0.03700
C 	C 	0.81269 0.99547 0.97586 0.02600
C 	C 	0.84493 0.02873 0.96713 -0.06800
C 	C 	0.87660 0.02610 0.95888 0.01300
C 	C 	0.87634 0.99016 0.95935 -0.09400
C 	C 	0.84342 0.95662 0.96682 0.01600
C 	C 	0.81179 0.95930 0.97505 -0.06800
H 	H 	0.84582 0.05677 0.96759 0.04400
H 	H 	0.90182 0.05224 0.95334 0.02300
H 	H 	0.78683 0.93338 0.98139 0.04500
H 	H 	0.84262 0.92862 0.96694 0.03700
H 	H 	0.76857 0.01851 0.94771 0.03700
H 	H 	0.73201 0.98568 0.04884 0.03700
C 	C 	0.98449 0.72426 0.93369 -0.03900
H 	H 	0.96816 0.70160 0.91861 0.03700
C 	C 	0.98273 0.75904 0.93327 -0.03600
C 	C 	0.00296 0.78818 0.95324 -0.00600
C 	C 	0.99769 0.82286 0.95526 0.03000
C 	C 	0.99053 0.88762 0.97226 -0.08800
C 	C 	0.95884 0.85106 0.97029 0.01400
C 	C 	0.96244 0.81878 0.96195 -0.06800
H 	H 	0.93819 0.79033 0.96223 0.04600
H 	H 	0.93183 0.84719 0.97695 0.04000
H 	H 	0.96508 0.76302 0.91786 0.03600
C 	C 	0.98461 0.25963 0.06749 -0.03800
C 	C 	0.00099 0.32403 0.04591 0.02200
C 	C 	0.96585 0.32007 0.03897 -0.06300
C 	C 	0.96245 0.35236 0.03041 0.01200
C 	C 	0.99423 0.38886 0.02846 -0.08500
H 	H 	0.93551 0.34854 0.02359 0.04100
H 	H 	0.94154 0.29166 0.03864 0.04500
H 	H 	0.96655 0.26352 0.08255 0.03700
