data_crystal

_cell_length_a 17.94817
_cell_length_b 19.66696
_cell_length_c 26.39190
_cell_angle_alpha 95.42873
_cell_angle_beta  95.43009
_cell_angle_gamma 126.41973

_symmetry_space_group_name_	'P 1'
_symmetry_space_group_name_H-M	'P 1'

loop_
_symmetry_equiv_pos_as_xyz
  x,y,z

loop_
_atom_site_label
_atom_site_type_symbol
_atom_site_fract_x
_atom_site_fract_y
_atom_site_fract_z
_atom_site_charge
C 	C 	0.95650 0.04068 0.99201 0.18500
N 	N 	0.05144 0.08639 0.99606 -0.11600
C 	C 	0.09012 0.04457 0.99153 0.19300
N 	N 	0.03434 0.95757 0.98397 -0.11900
C 	C 	0.94000 0.91196 0.98085 0.18900
N 	N 	0.90091 0.95340 0.98454 -0.11700
C 	C 	0.90642 0.99471 0.48201 0.18400
N 	N 	0.00095 0.03916 0.48498 -0.11300
C 	C 	0.03802 0.99609 0.47951 0.18800
N 	N 	0.98118 0.90910 0.47250 -0.12100
C 	C 	0.88732 0.86482 0.47086 0.19100
N 	N 	0.84977 0.90750 0.47512 -0.11800
Cu	Cu	0.67775 0.27509 0.00820 0.93200
Cu	Cu	0.70556 0.22469 0.89320 0.93900
Cu	Cu	0.69297 0.38373 0.92814 0.92300
Cu	Cu	0.65029 0.41863 0.03157 0.92000
C 	C 	0.69414 0.34350 0.11391 0.30100
O 	O 	0.53931 0.20516 0.01446 -0.33200
C 	C 	0.70398 0.33079 0.82789 0.30400
O 	O 	0.72969 0.40099 0.00136 -0.63500
O 	O 	0.64485 0.26259 0.93193 -0.61700
O 	O 	0.76457 0.24157 0.01129 -0.32900
O 	O 	0.69006 0.14629 0.93497 -0.35400
O 	O 	0.67462 0.39579 0.10120 -0.29600
O 	O 	0.74677 0.50306 0.92887 -0.33700
C 	C 	0.73507 0.54708 0.96373 0.32800
C 	C 	0.48719 0.22810 0.99797 0.32600
O 	O 	0.52640 0.30220 0.98326 -0.35900
O 	O 	0.66939 0.50769 0.99199 -0.34300
O 	O 	0.72177 0.31054 0.08157 -0.31300
C 	C 	0.74770 0.17617 0.97950 0.32700
O 	O 	0.66874 0.36290 0.85321 -0.32300
O 	O 	0.75748 0.31574 0.85360 -0.34400
H 	H 	0.79783 0.44672 0.01464 0.21000
H 	H 	0.57604 0.22193 0.91909 0.21000
Cu	Cu	0.62582 0.22628 0.50126 0.93400
Cu	Cu	0.66275 0.18531 0.38682 0.93300
Cu	Cu	0.64411 0.33960 0.42399 0.92300
Cu	Cu	0.59275 0.36598 0.52520 0.92500
C 	C 	0.65427 0.30468 0.60701 0.30700
O 	O 	0.48621 0.15542 0.50431 -0.32400
C 	C 	0.67014 0.29955 0.32508 0.30600
O 	O 	0.67704 0.35300 0.49719 -0.63400
O 	O 	0.59777 0.21855 0.42513 -0.61800
O 	O 	0.71310 0.19352 0.50436 -0.32900
O 	O 	0.64350 0.10317 0.42623 -0.35900
O 	O 	0.59977 0.32588 0.59093 -0.30800
O 	O 	0.69667 0.45880 0.42674 -0.34000
C 	C 	0.68422 0.50199 0.46178 0.33000
C 	C 	0.43434 0.17739 0.48537 0.32200
O 	O 	0.47476 0.25272 0.47200 -0.36000
O 	O 	0.61925 0.46221 0.49052 -0.33900
O 	O 	0.66584 0.25660 0.57526 -0.31500
C 	C 	0.69828 0.13018 0.47149 0.32700
O 	O 	0.62714 0.32422 0.34929 -0.32100
O 	O 	0.72049 0.28198 0.35159 -0.34800
H 	H 	0.74446 0.39946 0.51187 0.21600
H 	H 	0.52952 0.17735 0.41066 0.20500
C 	C 	0.63710 0.23787 0.68426 0.06200
C 	C 	0.67890 0.31283 0.66322 0.01900
C 	C 	0.73485 0.39431 0.69652 -0.08900
C 	C 	0.73954 0.39855 0.75032 0.06700
C 	C 	0.69501 0.32347 0.77130 0.00900
C 	C 	0.64286 0.24205 0.73812 -0.08400
C 	C 	0.59399 0.15978 0.76005 0.77500
H 	H 	0.59689 0.17602 0.65838 0.10500
H 	H 	0.77810 0.46041 0.77607 0.09700
C 	C 	0.78608 0.47665 0.67484 0.78200
F 	F 	0.53485 0.08735 0.72149 -0.40800
F 	F 	0.53997 0.15906 0.79441 -0.45200
F 	F 	0.66090 0.15461 0.78559 -0.46300
F 	F 	0.72277 0.49136 0.65702 -0.43100
F 	F 	0.82695 0.47044 0.63451 -0.43700
F 	F 	0.85713 0.54662 0.71230 -0.41000
C 	C 	0.64114 0.24949 0.17921 0.06000
C 	C 	0.69922 0.33259 0.16827 0.02000
C 	C 	0.75484 0.40455 0.20950 -0.08400
C 	C 	0.74042 0.39255 0.26031 0.06600
C 	C 	0.67901 0.30974 0.27103 0.01000
C 	C 	0.62927 0.23717 0.23033 -0.08300
C 	C 	0.56334 0.14687 0.24140 0.77800
H 	H 	0.60238 0.19470 0.14751 0.10000
H 	H 	0.77793 0.44767 0.29179 0.09400
C 	C 	0.82802 0.49433 0.19967 0.78300
F 	F 	0.51477 0.08544 0.19630 -0.40900
F 	F 	0.49783 0.14109 0.26832 -0.43400
F 	F 	0.61485 0.12825 0.27085 -0.45800
F 	F 	0.78466 0.53064 0.18550 -0.41500
F 	F 	0.87341 0.49177 0.16079 -0.42000
F 	F 	0.89610 0.54663 0.24376 -0.41000
C 	C 	0.79544 0.65280 0.50995 0.10800
C 	C 	0.73417 0.59460 0.46398 -0.09600
C 	C 	0.71849 0.62506 0.42107 0.11900
C 	C 	0.76760 0.71402 0.42351 0.08900
C 	C 	0.82840 0.77191 0.46967 -0.04200
C 	C 	0.83910 0.74088 0.51349 0.09100
Br	Br	0.91164 0.81909 0.57875 -0.09000
Br	Br	0.82403 0.61238 0.56690 -0.08400
Br	Br	0.75383 0.75692 0.36333 -0.09800
Br	Br	0.62764 0.54500 0.35978 -0.11000
C 	C 	0.82427 0.12435 0.44457 0.12000
C 	C 	0.76248 0.10698 0.47927 -0.10300
C 	C 	0.75882 0.06340 0.51947 0.12000
C 	C 	0.81257 0.03277 0.52285 0.08700
C 	C 	0.86470 0.04051 0.48401 -0.03700
C 	C 	0.87072 0.08677 0.44490 0.08700
Br	Br	0.93614 0.09298 0.38943 -0.10200
Br	Br	0.85008 0.20405 0.39896 -0.19000
Br	Br	0.81725 0.98267 0.58134 -0.10100
Br	Br	0.67843 0.04363 0.56890 -0.10700
C 	C 	0.17377 0.05005 0.43453 0.08700
C 	C 	0.13956 0.04326 0.48109 -0.03800
C 	C 	0.20095 0.07348 0.52894 0.08600
C 	C 	0.29695 0.11184 0.53033 0.11500
C 	C 	0.33197 0.12150 0.48376 -0.10100
C 	C 	0.26973 0.08839 0.43584 0.11500
Br	Br	0.31581 0.09402 0.37204 -0.11700
Br	Br	0.08896 0.00716 0.36896 -0.08800
Br	Br	0.38064 0.15222 0.59604 -0.12200
Br	Br	0.15322 0.06233 0.59261 -0.09400
C 	C 	0.77670 0.67391 0.92483 0.11900
C 	C 	0.78829 0.64043 0.96727 -0.09600
C 	C 	0.84576 0.69602 0.01471 0.10800
C 	C 	0.88928 0.78438 0.02019 0.08700
C 	C 	0.88152 0.81839 0.97721 -0.03800
C 	C 	0.82523 0.76321 0.92949 0.08700
Br	Br	0.81681 0.81038 0.87026 -0.09700
Br	Br	0.69172 0.59744 0.86116 -0.10600
Br	Br	0.95789 0.85893 0.08693 -0.09200
Br	Br	0.86798 0.65140 0.07154 -0.11700
C 	C 	0.80866 0.11020 0.02823 0.11800
C 	C 	0.81148 0.15237 0.98735 -0.09900
C 	C 	0.87147 0.16725 0.95190 0.12000
C 	C 	0.91810 0.12976 0.95291 0.08700
C 	C 	0.91320 0.08525 0.99286 -0.03600
C 	C 	0.86176 0.07885 0.03182 0.08500
Br	Br	0.86622 0.02935 0.09066 -0.10000
Br	Br	0.73042 0.09348 0.07841 -0.10800
Br	Br	0.98278 0.13410 0.89743 -0.10200
Br	Br	0.89411 0.24306 0.90399 -0.18500
C 	C 	0.25390 0.12760 0.04136 0.08500
C 	C 	0.19197 0.09299 0.99328 -0.03800
C 	C 	0.22600 0.09609 0.94698 0.08700
C 	C 	0.32198 0.13403 0.94873 0.11500
C 	C 	0.38482 0.17173 0.99673 -0.09900
C 	C 	0.35036 0.16738 0.04312 0.11400
Br	Br	0.43579 0.21855 0.10897 -0.13700
Br	Br	0.20613 0.11966 0.10479 -0.09300
Br	Br	0.36730 0.13341 0.88541 -0.11800
Br	Br	0.14100 0.04926 0.88110 -0.09200
