data_crystal

_cell_length_a 27.22624
_cell_length_b 29.10704
_cell_length_c 47.46971
_cell_angle_alpha 60.81157
_cell_angle_beta  118.91445
_cell_angle_gamma 133.22808

_symmetry_space_group_name_	'P 1'
_symmetry_space_group_name_H-M	'P 1'

loop_
_symmetry_equiv_pos_as_xyz
  x,y,z

loop_
_atom_site_label
_atom_site_type_symbol
_atom_site_fract_x
_atom_site_fract_y
_atom_site_fract_z
_atom_site_charge
C 	C 	0.26502 0.61597 0.18779 0.13800
C 	C 	0.33688 0.66224 0.19030 -0.08600
C 	C 	0.37438 0.64782 0.18810 0.13700
C 	C 	0.34113 0.58566 0.18599 -0.09400
C 	C 	0.26869 0.54264 0.17892 0.13400
C 	C 	0.23036 0.55678 0.18086 -0.10400
H 	H 	0.36277 0.71022 0.19240 0.10700
H 	H 	0.37083 0.57416 0.18524 0.10300
H 	H 	0.17429 0.52315 0.17611 0.09900
C 	C 	0.25126 0.61444 0.67766 0.13700
C 	C 	0.32168 0.66334 0.67721 -0.10800
C 	C 	0.35845 0.65218 0.67170 0.13900
C 	C 	0.32601 0.59123 0.66826 -0.09300
C 	C 	0.25465 0.54385 0.66600 0.13300
C 	C 	0.21726 0.55479 0.67146 -0.09600
H 	H 	0.34700 0.71065 0.67997 0.10500
H 	H 	0.35526 0.58242 0.66475 0.10700
H 	H 	0.16218 0.51800 0.67022 0.10700
Co	Co	0.07129 0.01757 0.06431 1.18400
Co	Co	0.01637 0.06418 0.08607 1.19200
C 	C 	0.20825 0.03520 0.08717 0.31200
Co	Co	0.08417 0.91251 0.06682 1.18300
O 	O 	0.07209 0.09283 0.05675 -0.42900
C 	C 	0.08564 0.16391 0.12022 0.36400
C 	C 	0.08079 0.83871 0.13710 0.36300
O 	O 	0.11085 0.98905 0.02484 -0.34600
O 	O 	0.02244 0.14234 0.11624 -0.38000
O 	O 	0.09595 0.13113 0.11472 -0.37300
O 	O 	0.06315 0.83323 0.10736 -0.37300
O 	O 	0.06819 0.87079 0.14154 -0.36800
O 	O 	0.04370 0.94003 0.07823 -0.74800
O 	O 	0.17972 0.97278 0.09409 -0.33300
O 	O 	0.17565 0.05488 0.08657 -0.35500
Co	Co	0.05593 0.00129 0.56340 1.17600
Co	Co	0.02681 0.06444 0.59023 1.18900
C 	C 	0.17992 0.00593 0.57761 0.30800
Co	Co	0.04650 0.88178 0.56499 1.17700
O 	O 	0.07352 0.08405 0.55910 -0.43600
C 	C 	0.11053 0.14955 0.63820 0.35200
C 	C 	0.05966 0.82267 0.63748 0.36900
O 	O 	0.06620 0.95160 0.52029 -0.38000
O 	O 	0.06735 0.10820 0.65781 -0.37500
O 	O 	0.11370 0.12911 0.61987 -0.36900
O 	O 	0.03202 0.80921 0.60867 -0.37100
O 	O 	0.05293 0.85925 0.64193 -0.36600
O 	O 	0.02074 0.92145 0.57780 -0.74600
O 	O 	0.14889 0.94280 0.58699 -0.35900
O 	O 	0.15807 0.03111 0.58145 -0.35600
C 	C 	0.04164 0.00316 0.90858 -0.03300
C 	C 	0.03889 0.99345 0.87969 0.09100
C 	C 	0.03725 0.97663 0.82539 0.02900
C 	C 	0.03334 0.93133 0.85633 -0.01200
C 	C 	0.03407 0.93965 0.88330 -0.04700
C 	C 	0.03321 0.96632 0.79629 0.06900
C 	C 	0.08453 0.01551 0.77799 -0.07000
H 	H 	0.14490 0.09319 0.90997 0.06200
H 	H 	0.02975 0.88972 0.85949 0.06500
H 	H 	0.03137 0.90453 0.90704 0.07800
H 	H 	0.13053 0.05886 0.78667 0.07400
C 	C 	0.07785 0.01320 0.25000 -0.00000
C 	C 	0.07694 0.01107 0.27992 -0.07700
H 	H 	0.12370 0.05276 0.24014 0.07600
H 	H 	0.12259 0.04815 0.29317 0.07400
C 	C 	0.21579 0.44265 0.62087 -0.11500
C 	C 	0.18968 0.38179 0.64379 0.00900
C 	C 	0.17306 0.37175 0.67111 0.30600
C 	C 	0.18882 0.42380 0.67702 -0.09100
C 	C 	0.21902 0.48563 0.65515 -0.06800
C 	C 	0.22796 0.49352 0.62587 0.34300
C 	C 	0.18224 0.32947 0.63987 0.01800
F 	F 	0.14301 0.31201 0.69224 -0.41900
H 	H 	0.18034 0.41672 0.69931 0.10400
F 	F 	0.25303 0.55201 0.60339 -0.39500
H 	H 	0.22840 0.45108 0.59962 0.14700
C 	C 	0.14500 0.31027 0.60978 0.30000
C 	C 	0.13336 0.25728 0.60737 -0.05600
C 	C 	0.15279 0.21938 0.63561 -0.13900
C 	C 	0.19593 0.24235 0.66456 0.37900
C 	C 	0.21143 0.29776 0.66648 -0.13300
F 	F 	0.11652 0.34024 0.58361 -0.39300
H 	H 	0.10326 0.24191 0.58440 0.12600
F 	F 	0.21841 0.20818 0.69164 -0.42800
H 	H 	0.24352 0.31427 0.68917 0.13600
C 	C 	0.49971 0.77170 0.62566 -0.12600
C 	C 	0.55874 0.78743 0.65203 0.00500
C 	C 	0.48663 0.72547 0.69079 -0.09200
C 	C 	0.42730 0.70646 0.66460 -0.07300
C 	C 	0.43434 0.73189 0.63186 0.34900
H 	H 	0.48163 0.70663 0.71608 0.11100
F 	F 	0.37729 0.71509 0.60624 -0.39500
H 	H 	0.50433 0.78875 0.60046 0.13100
C 	C 	0.08268 0.69251 0.69032 -0.14400
C 	C 	0.14733 0.72312 0.68583 0.02900
C 	C 	0.19089 0.79128 0.67553 0.29900
C 	C 	0.16592 0.82735 0.66532 -0.05400
C 	C 	0.09687 0.79537 0.66452 -0.13700
C 	C 	0.05813 0.72886 0.68036 0.39400
C 	C 	0.16404 0.68399 0.68620 0.00100
F 	F 	0.25509 0.82198 0.67268 -0.39700
H 	H 	0.19754 0.87920 0.65450 0.11100
F 	F 	0.99364 0.69819 0.68278 -0.40600
H 	H 	0.04972 0.64019 0.69953 0.13600
C 	C 	0.20991 0.67182 0.71373 0.32200
C 	C 	0.23374 0.64350 0.71193 -0.09300
C 	C 	0.21262 0.62788 0.68246 -0.07300
C 	C 	0.16338 0.63641 0.65567 0.34300
C 	C 	0.13909 0.66414 0.65762 -0.12100
F 	F 	0.23342 0.68965 0.74174 -0.40000
H 	H 	0.27124 0.63662 0.73284 0.10900
F 	F 	0.14228 0.62152 0.62705 -0.41200
H 	H 	0.10311 0.67278 0.63638 0.12200
C 	C 	0.20541 0.29695 0.16227 -0.13000
C 	C 	0.18935 0.34039 0.13762 0.01800
C 	C 	0.15802 0.33349 0.10480 0.29900
C 	C 	0.13784 0.28071 0.09760 -0.05200
C 	C 	0.14204 0.23099 0.12339 -0.13300
C 	C 	0.18130 0.24205 0.15524 0.37300
C 	C 	0.20301 0.39146 0.14635 0.00800
F 	F 	0.14225 0.37489 0.08044 -0.39900
H 	H 	0.11042 0.27405 0.07259 0.13300
F 	F 	0.18959 0.19627 0.18018 -0.43300
H 	H 	0.23329 0.30383 0.18723 0.13500
C 	C 	0.17924 0.37535 0.17263 0.30600
C 	C 	0.19592 0.42444 0.18185 -0.09000
C 	C 	0.23406 0.48951 0.16417 -0.07200
C 	C 	0.25146 0.50443 0.13587 0.34200
C 	C 	0.23877 0.45628 0.12795 -0.11400
F 	F 	0.14054 0.31239 0.18934 -0.41800
H 	H 	0.18131 0.41216 0.20339 0.10800
F 	F 	0.28496 0.56666 0.11737 -0.40400
H 	H 	0.25748 0.46952 0.10772 0.14500
C 	C 	0.50565 0.76551 0.13687 -0.12500
C 	C 	0.56390 0.76882 0.16067 0.00400
C 	C 	0.56299 0.74215 0.19449 0.32300
C 	C 	0.50223 0.70767 0.20403 -0.09400
C 	C 	0.44246 0.70049 0.17995 -0.07100
C 	C 	0.44549 0.73224 0.14649 0.34900
H 	H 	0.50054 0.68383 0.22993 0.11400
F 	F 	0.38826 0.72650 0.12301 -0.40300
H 	H 	0.50644 0.78733 0.11082 0.13100
C 	C 	0.21487 0.67327 0.21889 -0.12400
C 	C 	0.17279 0.68791 0.18977 0.00900
C 	C 	0.15460 0.67167 0.16108 0.32100
C 	C 	0.18098 0.64386 0.16114 -0.08900
C 	C 	0.22584 0.63214 0.18979 -0.07100
C 	C 	0.24104 0.64521 0.21899 0.34000
C 	C 	0.15260 0.72518 0.18838 0.01900
F 	F 	0.11376 0.68540 0.13274 -0.39300
H 	H 	0.16896 0.63406 0.13851 0.12200
F 	F 	0.28313 0.63282 0.24712 -0.42200
H 	H 	0.22868 0.68508 0.24120 0.12700
C 	C 	0.08293 0.69558 0.18512 0.31200
C 	C 	0.06045 0.73410 0.17414 -0.04800
C 	C 	0.10696 0.80224 0.16538 -0.13200
C 	C 	0.17824 0.83099 0.17409 0.37700
C 	C 	0.20092 0.79260 0.18515 -0.14000
F 	F 	0.03615 0.63001 0.19008 -0.39000
H 	H 	0.00557 0.71115 0.16878 0.12400
F 	F 	0.22462 0.89672 0.16790 -0.42500
H 	H 	0.25530 0.81574 0.18887 0.13100
C 	C 	0.46887 0.14878 0.54719 -0.12300
C 	C 	0.41740 0.15858 0.52598 0.00700
C 	C 	0.42633 0.20260 0.49475 0.31700
C 	C 	0.48848 0.23979 0.48579 -0.09300
C 	C 	0.54230 0.23373 0.50813 -0.07100
C 	C 	0.53105 0.18603 0.53831 0.34600
C 	C 	0.35453 0.12297 0.53668 0.01500
F 	F 	0.37582 0.21095 0.47362 -0.41100
H 	H 	0.49646 0.27606 0.46234 0.11100
F 	F 	0.58235 0.17916 0.56005 -0.41500
H 	H 	0.46149 0.11366 0.57100 0.12700
C 	C 	0.29501 0.06433 0.52802 0.31100
C 	C 	0.23773 0.02710 0.54093 -0.10100
C 	C 	0.23908 0.04829 0.56247 -0.12600
C 	C 	0.29800 0.10810 0.57037 0.37000
C 	C 	0.35561 0.14523 0.55753 -0.13800
F 	F 	0.29340 0.04262 0.50774 -0.41600
H 	H 	0.19256 0.98114 0.53462 0.12000
F 	F 	0.30052 0.12903 0.59141 -0.42100
H 	H 	0.40158 0.19057 0.56431 0.13000
C 	C 	0.53814 0.21673 0.08347 -0.11800
C 	C 	0.47179 0.18172 0.06352 0.00700
C 	C 	0.46455 0.17770 0.03325 0.30800
C 	C 	0.52329 0.21269 0.02190 -0.08900
C 	C 	0.58951 0.25154 0.04076 -0.07500
C 	C 	0.59685 0.25097 0.07232 0.33900
C 	C 	0.41012 0.15162 0.07360 0.01500
F 	F 	0.40054 0.14145 0.01444 -0.41800
H 	H 	0.51723 0.21220 0.99772 0.11500
H 	H 	0.54416 0.21898 0.10716 0.13400
C 	C 	0.39094 0.09867 0.10137 0.29900
C 	C 	0.32747 0.06463 0.10810 -0.06400
C 	C 	0.28203 0.08232 0.08672 -0.12200
C 	C 	0.30403 0.13878 0.06070 0.36600
C 	C 	0.36801 0.17340 0.05426 -0.13100
F 	F 	0.43212 0.07818 0.12081 -0.41000
H 	H 	0.31181 0.02221 0.12882 0.12800
F 	F 	0.26125 0.15722 0.04015 -0.43500
H 	H 	0.38351 0.21547 0.03335 0.13000
C 	C 	0.55231 0.76629 0.68453 0.32500
C 	C 	0.06920 0.00585 0.00394 0.27800
O 	O 	0.04392 0.01875 0.01456 -0.36100
C 	C 	0.00970 0.98499 0.19533 0.31500
O 	O 	0.01803 0.04063 0.17756 -0.37900
C 	C 	0.02974 0.97485 0.50123 0.29400
O 	O 	0.01957 0.99954 0.51338 -0.34600
O 	O 	0.00616 0.95240 0.68274 -0.35000
C 	C 	0.05380 0.01310 0.96820 -0.07500
C 	C 	0.10778 0.06168 0.95149 0.01400
C 	C 	0.10173 0.05677 0.92183 -0.02800
C 	C 	0.07468 0.01051 0.74745 -0.01500
C 	C 	0.01319 0.95664 0.73474 -0.01200
H 	H 	0.15603 0.10121 0.96247 0.07000
H 	H 	0.11222 0.05092 0.73247 0.07800
C 	C 	0.01415 0.98631 0.46500 -0.02600
C 	C 	0.06796 0.03802 0.44834 -0.00500
C 	C 	0.06379 0.03640 0.41816 -0.07200
H 	H 	0.11518 0.07711 0.45995 0.06100
H 	H 	0.10728 0.07491 0.40653 0.07400
C 	C 	0.04213 0.03047 0.82182 -0.03900
C 	C 	0.01153 0.96743 0.32031 0.02400
C 	C 	0.00521 0.97683 0.37478 0.05600
C 	C 	0.04313 0.03890 0.84883 -0.07300
H 	H 	0.04689 0.08058 0.84572 0.07100
H 	H 	0.04442 0.06541 0.79805 0.06200
C 	C 	0.01616 0.96327 0.29175 0.07400
C 	C 	0.00541 0.98329 0.40412 0.06300
C 	C 	0.01782 0.96786 0.23142 -0.03000
C 	C 	0.01548 0.02625 0.34523 -0.06100
C 	C 	0.01867 0.02160 0.31818 -0.04200
H 	H 	0.62605 0.22580 0.49809 0.11800
C 	C 	0.61364 0.28628 0.50378 0.13400
F 	F 	0.66088 0.28658 0.09132 -0.42200
C 	C 	0.64879 0.30154 0.02510 0.13800
H 	H 	0.65719 0.23343 0.02464 0.10800
C 	C 	0.67854 0.28423 0.01857 -0.10600
C 	C 	0.67666 0.36701 0.01757 -0.09500
H 	H 	0.65379 0.38020 0.02296 0.10800
C 	C 	0.64704 0.34675 0.50821 -0.10000
C 	C 	0.65184 0.27286 0.50133 -0.08600
H 	H 	0.61725 0.35726 0.50978 0.10300
C 	C 	0.62661 0.82391 0.64563 0.02400
F 	F 	0.60946 0.78401 0.71006 -0.40000
F 	F 	0.63253 0.73334 0.67872 -0.39800
H 	H 	0.62802 0.90848 0.61322 0.13900
C 	C 	0.62632 0.80174 0.15016 0.02500
F 	F 	0.62049 0.74861 0.21798 -0.40400
C 	C 	0.66088 0.86766 0.13341 -0.15000
F 	F 	0.61669 0.70291 0.17148 -0.39700
H 	H 	0.64052 0.89386 0.12712 0.13300
F 	F 	0.66934 0.47850 0.96027 -0.42000
C 	C 	0.65482 0.88623 0.62418 -0.14500
C 	C 	0.65196 0.76773 0.15714 0.30200
F 	F 	0.02182 0.25574 0.52803 -0.41500
O 	O 	0.00612 0.95062 0.18247 -0.35600
H 	H 	0.02122 0.06834 0.34325 0.06500
H 	H 	0.02669 0.06011 0.29557 0.06300
C 	C 	0.00039 0.91761 0.34969 0.00600
C 	C 	0.99740 0.92233 0.37680 -0.05600
H 	H 	0.99483 0.87562 0.35167 0.05300
H 	H 	0.98995 0.88407 0.39949 0.07300
Co	Co	0.97813 0.87471 0.60835 1.19200
C 	C 	0.98577 0.95691 0.92405 -0.01300
C 	C 	0.96556 0.90449 0.75474 0.00700
C 	C 	0.97519 0.90947 0.78523 -0.05600
H 	H 	0.93866 0.91588 0.91379 0.06500
H 	H 	0.93574 0.87060 0.79932 0.07200
C 	C 	0.94911 0.93434 0.41933 -0.05500
C 	C 	0.95345 0.93594 0.44957 0.00700
H 	H 	0.90309 0.89383 0.40840 0.07200
H 	H 	0.91153 0.89570 0.46210 0.05500
F 	F 	0.70639 0.37323 0.57553 -0.42000
C 	C 	0.73752 0.33269 0.00532 0.14300
C 	C 	0.73562 0.41573 0.00450 0.14000
C 	C 	0.76615 0.39858 0.99831 -0.11400
H 	H 	0.81264 0.43616 0.98881 0.10000
C 	C 	0.72409 0.31848 0.50533 0.13900
C 	C 	0.75797 0.37721 0.51233 -0.11200
C 	C 	0.71941 0.39047 0.51466 0.13700
H 	H 	0.81405 0.41112 0.51714 0.09600
Co	Co	0.95251 0.93657 0.13382 1.19400
Co	Co	0.99404 0.88576 0.10589 1.19100
Co	Co	0.94730 0.04545 0.13382 1.17700
C 	C 	0.93172 0.80726 0.05648 0.34500
O 	O 	0.88174 0.04746 0.08747 -0.35700
O 	O 	0.97074 0.01139 0.11564 -0.77400
C 	C 	0.90607 0.08872 0.06052 0.33700
O 	O 	0.94437 0.85885 0.13792 -0.43700
C 	C 	0.82641 0.90667 0.13786 0.36100
O 	O 	0.98708 0.96881 0.08873 -0.56300
O 	O 	0.95109 0.09335 0.05317 -0.34500
O 	O 	0.87081 0.95232 0.15397 -0.37900
O 	O 	0.84818 0.89084 0.12693 -0.37500
O 	O 	0.98322 0.85655 0.04138 -0.38500
O 	O 	0.92438 0.81081 0.08120 -0.34300
Co	Co	0.94885 0.93737 0.63507 1.19600
Co	Co	0.96184 0.05399 0.63789 1.16800
C 	C 	0.89770 0.78052 0.56464 0.34500
O 	O 	0.97719 0.13101 0.59618 -0.38600
O 	O 	0.97654 0.01484 0.61800 -0.77900
C 	C 	0.95245 0.12404 0.56590 0.35700
O 	O 	0.93537 0.85588 0.64105 -0.43300
C 	C 	0.82337 0.93005 0.62654 0.33800
O 	O 	0.98048 0.96378 0.59024 -0.56200
O 	O 	0.96892 0.10037 0.55704 -0.37300
O 	O 	0.85889 0.99403 0.61634 -0.33800
O 	O 	0.84722 0.89884 0.63085 -0.36700
C 	C 	0.98857 0.96455 0.69846 0.27600
O 	O 	0.94654 0.98184 0.68196 -0.37200
O 	O 	0.94130 0.82574 0.54509 -0.38900
O 	O 	0.89766 0.79383 0.58787 -0.34200
C 	C 	0.99171 0.96210 0.95361 0.02800
H 	H 	0.94969 0.92424 0.96622 0.05200
H 	H 	0.91814 0.86237 0.74543 0.06000
C 	C 	0.95817 0.91441 0.27478 -0.06100
C 	C 	0.95916 0.91654 0.24484 0.01100
H 	H 	0.91128 0.87662 0.28389 0.07400
H 	H 	0.91253 0.88111 0.23087 0.05400
C 	C 	0.66084 0.79479 0.65907 0.30400
C 	C 	0.72404 0.82879 0.65202 -0.05600
C 	C 	0.75304 0.89172 0.63094 -0.13400
C 	C 	0.71706 0.91968 0.61642 0.37800
H 	H 	0.75096 0.80657 0.66337 0.10600
F 	F 	0.74184 0.97882 0.59451 -0.41200
C 	C 	0.71506 0.80107 0.15010 -0.04800
C 	C 	0.75234 0.86824 0.13574 -0.14600
C 	C 	0.72313 0.90061 0.12588 0.38200
H 	H 	0.73665 0.77544 0.15740 0.10300
F 	F 	0.75727 0.96505 0.11073 -0.43300
C 	C 	0.92311 0.25236 0.51453 -0.13100
C 	C 	0.85386 0.21670 0.51492 0.01900
C 	C 	0.81351 0.14847 0.52440 0.30400
C 	C 	0.84445 0.11675 0.53704 -0.05400
C 	C 	0.91583 0.15298 0.54064 -0.13900
C 	C 	0.95390 0.22053 0.52708 0.38200
C 	C 	0.82748 0.25047 0.51097 0.00600
F 	F 	0.74569 0.11321 0.52372 -0.40000
H 	H 	0.81411 0.06438 0.54642 0.11900
H 	H 	0.95411 0.30496 0.50631 0.13800
C 	C 	0.84237 0.26872 0.53811 0.31700
C 	C 	0.81105 0.29385 0.53568 -0.08800
C 	C 	0.76480 0.30124 0.50612 -0.07100
C 	C 	0.75243 0.28581 0.47846 0.34000
C 	C 	0.78348 0.26023 0.48097 -0.11600
F 	F 	0.88530 0.25989 0.56719 -0.40400
H 	H 	0.82090 0.30555 0.55714 0.11700
F 	F 	0.70919 0.29427 0.44943 -0.42300
H 	H 	0.77221 0.24676 0.45986 0.12700
C 	C 	0.75760 0.48549 0.56359 -0.13000
C 	C 	0.79257 0.54897 0.54377 0.00400
C 	C 	0.81324 0.56136 0.51734 0.32200
C 	C 	0.79312 0.50973 0.50899 -0.09200
C 	C 	0.75443 0.44580 0.52764 -0.07500
C 	C 	0.74013 0.43442 0.55608 0.34000
C 	C 	0.80799 0.60237 0.55093 0.01800
F 	F 	0.85213 0.62322 0.49962 -0.40500
H 	H 	0.80568 0.51919 0.48744 0.11100
H 	H 	0.74293 0.47558 0.58450 0.12300
C 	C 	0.78733 0.64228 0.52596 0.30400
C 	C 	0.81052 0.69796 0.53161 -0.05300
C 	C 	0.85253 0.71298 0.56251 -0.14000
C 	C 	0.86492 0.66826 0.58871 0.37200
C 	C 	0.84435 0.61410 0.58273 -0.14700
F 	F 	0.74649 0.62810 0.49601 -0.39900
H 	H 	0.79898 0.73124 0.51147 0.10100
F 	F 	0.90152 0.67993 0.61933 -0.41000
H 	H 	0.85859 0.58246 0.60251 0.12500
C 	C 	0.76721 0.25279 0.97835 -0.11500
C 	C 	0.82214 0.25325 0.00449 0.00500
C 	C 	0.85582 0.28886 0.02782 0.31000
C 	C 	0.83137 0.31951 0.02639 -0.08800
C 	C 	0.77283 0.31439 0.00190 -0.07700
C 	C 	0.74234 0.28294 0.97714 0.34300
C 	C 	0.83780 0.20937 0.01020 0.01800
F 	F 	0.90945 0.29029 0.05307 -0.40700
H 	H 	0.85558 0.34422 0.04539 0.11100
F 	F 	0.68665 0.27901 0.95284 -0.41800
H 	H 	0.74170 0.22644 0.95992 0.13200
C 	C 	0.78972 0.14173 0.02018 0.29500
C 	C 	0.81016 0.10100 0.03327 -0.05400
C 	C 	0.87904 0.12748 0.03707 -0.13100
C 	C 	0.92490 0.19430 0.02375 0.37500
C 	C 	0.90423 0.23504 0.01036 -0.13000
F 	F 	0.72468 0.11596 0.01938 -0.41100
H 	H 	0.77362 0.04923 0.04238 0.12000
F 	F 	0.99088 0.22045 0.02593 -0.43100
H 	H 	0.94107 0.28699 0.00186 0.14000
C 	C 	0.83539 0.63527 0.05655 -0.13200
C 	C 	0.82634 0.64343 0.02308 0.02100
C 	C 	0.83676 0.70132 0.99989 0.28600
C 	C 	0.86189 0.75249 0.01058 -0.05000
C 	C 	0.87990 0.74745 0.04463 -0.13900
C 	C 	0.86261 0.68725 0.06738 0.38000
C 	C 	0.81024 0.59308 0.01286 0.00700
F 	F 	0.82665 0.70947 0.96731 -0.41800
H 	H 	0.87275 0.79804 0.99268 0.09200
F 	F 	0.87762 0.68076 0.10028 -0.42300
H 	H 	0.82470 0.58975 0.07441 0.14100
C 	C 	0.85422 0.57351 0.02797 0.30700
C 	C 	0.83343 0.51910 0.02213 -0.08800
C 	C 	0.76904 0.48437 0.00089 -0.07400
C 	C 	0.72965 0.50924 0.98250 0.33900
C 	C 	0.74931 0.56239 0.98908 -0.11900
F 	F 	0.91578 0.60571 0.04926 -0.40300
H 	H 	0.86512 0.50136 0.03581 0.11100
H 	H 	0.71595 0.57820 0.97661 0.13700
