data_crystal

_cell_length_a 24.08571
_cell_length_b 23.69254
_cell_length_c 20.55371
_cell_angle_alpha 95.50458
_cell_angle_beta  95.50391
_cell_angle_gamma 125.80680

_symmetry_space_group_name_	'P 1'
_symmetry_space_group_name_H-M	'P 1'

loop_
_symmetry_equiv_pos_as_xyz
  x,y,z

loop_
_atom_site_label
_atom_site_type_symbol
_atom_site_fract_x
_atom_site_fract_y
_atom_site_fract_z
_atom_site_charge
C 	C 	0.02697 0.09778 0.94859 -0.05100
C 	C 	0.07694 0.08484 0.95051 -0.01300
H 	H 	0.04068 0.14854 0.93981 0.03700
C 	C 	0.02837 0.01416 0.54674 -0.03700
H 	H 	0.06963 0.06790 0.57229 0.03800
Cu	Cu	0.62220 0.23871 0.98147 0.91500
Cu	Cu	0.67275 0.26948 0.83840 0.86000
Cu	Cu	0.66584 0.36948 0.92711 0.88900
Cu	Cu	0.68285 0.38366 0.07807 0.89700
C 	C 	0.65564 0.25510 0.12430 0.32100
O 	O 	0.53441 0.22223 0.00276 -0.36100
C 	C 	0.65316 0.36858 0.78766 0.31600
O 	O 	0.70144 0.34968 0.00294 -0.62900
O 	O 	0.61110 0.26606 0.89648 -0.64900
O 	O 	0.63238 0.16543 0.94399 -0.36600
O 	O 	0.71928 0.24300 0.89281 -0.43800
O 	O 	0.68996 0.32458 0.13606 -0.38700
O 	O 	0.72523 0.47147 0.95306 -0.40100
C 	C 	0.73397 0.50642 0.01162 0.28300
C 	C 	0.52515 0.27180 0.00801 0.28200
O 	O 	0.57863 0.33934 0.02380 -0.38400
O 	O 	0.73971 0.48444 0.06673 -0.38200
O 	O 	0.64506 0.22053 0.06470 -0.36300
C 	C 	0.68383 0.18223 0.91310 0.26400
O 	O 	0.63496 0.38093 0.84252 -0.39600
O 	O 	0.65155 0.31192 0.77359 -0.41600
H 	H 	0.75032 0.36667 0.00556 0.16700
H 	H 	0.56255 0.24332 0.87412 0.17100
Cu	Cu	0.75140 0.32634 0.43350 0.92800
Cu	Cu	0.79533 0.34605 0.59383 0.86800
Cu	Cu	0.65457 0.29972 0.53187 0.89700
Cu	Cu	0.59468 0.26292 0.38287 0.89500
C 	C 	0.68836 0.26130 0.29733 0.32300
O 	O 	0.76150 0.40743 0.39597 -0.36300
C 	C 	0.72949 0.39431 0.66309 0.32100
O 	O 	0.64816 0.25304 0.44661 -0.63700
O 	O 	0.75418 0.36605 0.52302 -0.64400
O 	O 	0.82235 0.31037 0.45743 -0.37000
O 	O 	0.78030 0.26309 0.54782 -0.43600
O 	O 	0.62426 0.23809 0.30352 -0.38600
O 	O 	0.55732 0.22934 0.53561 -0.37200
C 	C 	0.50532 0.20214 0.48486 0.26000
C 	C 	0.71683 0.42157 0.40189 0.25800
O 	O 	0.65835 0.37618 0.42124 -0.38500
O 	O 	0.51510 0.22925 0.43007 -0.38600
O 	O 	0.73383 0.27368 0.34859 -0.37600
C 	C 	0.81032 0.26556 0.49696 0.26000
O 	O 	0.66938 0.33834 0.62706 -0.38700
O 	O 	0.78938 0.40832 0.65329 -0.43500
H 	H 	0.63209 0.20369 0.44544 0.16500
H 	H 	0.77138 0.41610 0.52891 0.17200
C 	C 	0.66829 0.41099 0.74331 -0.11400
C 	C 	0.73010 0.43544 0.71294 -0.13600
H 	H 	0.65195 0.44512 0.74694 0.07200
H 	H 	0.77941 0.48504 0.73721 0.06600
C 	C 	0.64889 0.22275 0.17597 -0.11300
C 	C 	0.70370 0.26024 0.23663 -0.11600
H 	H 	0.61310 0.16526 0.16791 0.08000
H 	H 	0.75699 0.28209 0.23178 0.08200
C 	C 	0.72333 0.57613 0.38646 0.00800
C 	C 	0.77286 0.58400 0.35042 0.07600
N 	N 	0.77916 0.53147 0.35460 -0.15300
C 	C 	0.73533 0.49136 0.39426 -0.00600
C 	C 	0.69876 0.51640 0.41387 -0.04500
H 	H 	0.67311 0.50459 0.45643 0.04400
H 	H 	0.82176 0.53289 0.34499 0.08700
C 	C 	0.82133 0.12023 0.49202 0.00900
C 	C 	0.88156 0.17204 0.47095 0.07800
C 	C 	0.94383 0.17986 0.48814 -0.09100
C 	C 	0.94409 0.13571 0.52877 0.02300
C 	C 	0.98439 0.11196 0.52534 -0.08400
N 	N 	0.88025 0.22687 0.46209 -0.15100
C 	C 	0.82012 0.21093 0.47820 -0.00200
C 	C 	0.78214 0.14512 0.49713 -0.04600
H 	H 	0.99078 0.21996 0.47168 0.05500
H 	H 	0.74470 0.12940 0.52981 0.04200
H 	H 	0.92478 0.27855 0.46445 0.08400
C 	C 	0.20571 0.05420 0.47611 0.07400
C 	C 	0.25288 0.06175 0.43629 -0.08300
C 	C 	0.32386 0.11282 0.46277 0.01100
C 	C 	0.34692 0.14623 0.52887 0.07700
C 	C 	0.29943 0.13053 0.57152 -0.08900
C 	C 	0.22855 0.08862 0.54199 0.02200
N 	N 	0.13896 0.99700 0.46620 -0.17100
C 	C 	0.11732 0.99587 0.52481 0.07300
C 	C 	0.17317 0.05026 0.57405 -0.08700
N 	N 	0.41298 0.16984 0.54939 -0.15200
C 	C 	0.43346 0.15419 0.49563 0.00000
C 	C 	0.37749 0.11489 0.44202 -0.04700
H 	H 	0.23526 0.02724 0.38850 0.05300
H 	H 	0.31650 0.14750 0.62498 0.05400
H 	H 	0.16914 0.06944 0.62204 0.05100
H 	H 	0.38159 0.10678 0.39045 0.04300
H 	H 	0.44671 0.20958 0.59091 0.09100
C 	C 	0.83169 0.69315 0.03856 0.10800
C 	C 	0.79232 0.67644 0.97603 -0.01800
N 	N 	0.80875 0.63376 0.06295 -0.15800
C 	C 	0.75518 0.57910 0.01628 0.01800
C 	C 	0.74331 0.60371 0.96182 -0.06200
H 	H 	0.71925 0.57261 0.91184 0.05300
H 	H 	0.83964 0.62913 0.09806 0.09000
C 	C 	0.71854 0.05508 0.91120 0.07900
C 	C 	0.74583 0.02865 0.95112 -0.09800
C 	C 	0.79623 0.02331 0.92910 0.03700
C 	C 	0.82674 0.05412 0.87618 0.06500
C 	C 	0.80633 0.08966 0.84224 -0.08000
C 	C 	0.74789 0.08424 0.85703 0.00500
N 	N 	0.68777 0.08326 0.93470 -0.15100
C 	C 	0.69771 0.13042 0.89621 -0.01200
C 	C 	0.73520 0.13305 0.84777 -0.05000
C 	C 	0.84482 0.02241 0.96974 -0.12200
H 	H 	0.73131 0.01655 0.99896 0.05200
H 	H 	0.76651 0.17819 0.82417 0.03200
H 	H 	0.67866 0.08524 0.98331 0.08700
C 	C 	0.24112 0.17479 0.89899 0.06000
C 	C 	0.29198 0.16655 0.88424 -0.07700
C 	C 	0.36097 0.21834 0.91722 0.00300
C 	C 	0.37697 0.26999 0.97007 0.07100
C 	C 	0.32416 0.27193 0.99090 -0.12400
C 	C 	0.25727 0.22729 0.95105 0.04500
N 	N 	0.17289 0.12037 0.88863 -0.17000
C 	C 	0.14534 0.13742 0.93381 0.08500
C 	C 	0.19607 0.20313 0.97388 -0.12900
N 	N 	0.43520 0.29140 0.01181 -0.12800
C 	C 	0.45506 0.25212 0.98738 -0.04400
C 	C 	0.41110 0.20717 0.92807 -0.03700
H 	H 	0.27768 0.11946 0.85167 0.04700
H 	H 	0.33375 0.30366 0.03810 0.07500
H 	H 	0.19355 0.21914 0.02403 0.07700
H 	H 	0.40626 0.16087 0.90558 0.03500
H 	H 	0.45060 0.31817 0.06103 0.08300
H 	H 	0.15119 0.06868 0.86526 0.08100
H 	H 	0.84464 0.01664 0.02138 0.07900
C 	C 	0.82135 0.07539 0.53191 -0.08300
C 	C 	0.88370 0.08345 0.54922 0.06900
C 	C 	0.94667 0.04618 0.54432 0.07800
C 	C 	0.95828 0.04391 0.95400 -0.00300
N 	N 	0.88558 0.02913 0.55885 -0.16700
N 	N 	0.89134 0.07145 0.88262 -0.16900
C 	C 	0.90321 0.05344 0.93993 0.08200
H 	H 	0.83694 0.12329 0.80856 0.04700
C 	C 	0.72855 0.63522 0.41625 -0.08100
H 	H 	0.69875 0.63117 0.45420 0.05000
C 	C 	0.82737 0.65123 0.34048 -0.09100
H 	H 	0.87171 0.65956 0.32177 0.05300
H 	H 	0.92978 0.10612 0.85711 0.08200
H 	H 	0.77443 0.03527 0.54837 0.05000
H 	H 	0.84169 0.97762 0.55833 0.07900
C 	C 	0.82182 0.71791 0.92765 -0.06700
H 	H 	0.79144 0.70405 0.87860 0.04600
C 	C 	0.77823 0.70103 0.39999 0.06900
C 	C 	0.82567 0.70839 0.36109 0.02600
N 	N 	0.80522 0.76315 0.44016 -0.17000
C 	C 	0.90093 0.75456 0.05615 -0.10400
C 	C 	0.93019 0.79615 0.00773 0.05000
C 	C 	0.89144 0.77831 0.94466 0.04000
H 	H 	0.93136 0.76848 0.10518 0.05900
C 	C 	0.88411 0.77816 0.37859 -0.09000
H 	H 	0.78980 0.76786 0.48497 0.08200
H 	H 	0.93589 0.79696 0.37145 0.05200
C 	C 	0.86959 0.81012 0.42751 0.07900
C 	C 	0.97932 0.86909 0.02113 -0.06300
N 	N 	0.91547 0.83678 0.91853 -0.16100
H 	H 	0.88582 0.84083 0.88130 0.08100
H 	H 	0.00184 0.90121 0.07071 0.04700
H 	H 	0.00259 0.86185 0.47940 0.03100
C 	C 	0.92300 0.87822 0.47317 -0.01600
C 	C 	0.96869 0.89219 0.96478 0.04900
H 	H 	0.85601 0.91065 0.47558 0.04000
C 	C 	0.99066 0.89847 0.49309 -0.02600
C 	C 	0.90770 0.92548 0.49239 -0.03600
H 	H 	0.88719 0.93544 0.96675 0.04100
C 	C 	0.99037 0.96475 0.96613 -0.00000
H 	H 	0.02254 0.12804 0.49340 0.04900
C 	C 	0.94052 0.97782 0.96408 -0.05200
H 	H 	0.10613 0.97147 0.41959 0.08100
C 	C 	0.04431 0.96773 0.52621 -0.02200
C 	C 	0.05888 0.01876 0.96084 -0.05000
C 	C 	0.96036 0.99352 0.52950 -0.01300
H 	H 	0.09724 0.00842 0.96185 0.03900
