data_crystal

_cell_length_a 16.84911
_cell_length_b 15.19600
_cell_length_c 37.20581
_cell_angle_alpha 89.88052
_cell_angle_beta  89.88255
_cell_angle_gamma 119.41838

_symmetry_space_group_name_	'P 1'
_symmetry_space_group_name_H-M	'P 1'

loop_
_symmetry_equiv_pos_as_xyz
  x,y,z

loop_
_atom_site_label
_atom_site_type_symbol
_atom_site_fract_x
_atom_site_fract_y
_atom_site_fract_z
_atom_site_charge
Ni	Ni	0.09438 0.93242 0.76662 1.13500
Ni	Ni	0.14962 0.17163 0.76086 1.13500
O 	O 	0.05891 0.03186 0.76390 -0.73400
H 	H 	0.04095 0.03145 0.78914 0.16700
O 	O 	0.01584 0.11636 0.18323 -0.33200
C 	C 	0.00581 0.13665 0.10550 0.27200
F 	F 	0.02487 0.32032 0.26594 -0.34300
C 	C 	0.03082 0.35392 0.46324 0.25500
F 	F 	0.04538 0.35851 0.42721 -0.35500
C 	C 	0.00780 0.60305 0.05453 -0.21200
O 	O 	0.14383 0.98963 0.81643 -0.29800
O 	O 	0.21890 0.14956 0.72032 -0.33100
C 	C 	0.08853 0.61553 0.07289 0.42500
C 	C 	0.05762 0.08583 0.16082 0.38500
C 	C 	0.07826 0.16917 0.26174 0.34600
C 	C 	0.06142 0.79427 0.20724 0.33400
C 	C 	0.05747 0.88616 0.29406 0.35900
Ni	Ni	0.10485 0.00606 0.22600 1.12600
O 	O 	0.12442 0.89016 0.21008 -0.29800
O 	O 	0.09594 0.03352 0.17268 -0.32300
O 	O 	0.11711 0.97259 0.27793 -0.28800
O 	O 	0.12703 0.14783 0.23882 -0.31800
C 	C 	0.03054 0.20827 0.07777 0.27500
C 	C 	0.07332 0.12402 0.12326 -0.16800
C 	C 	0.02553 0.61082 0.20723 0.26100
C 	C 	0.08833 0.71419 0.21236 -0.15800
C 	C 	0.05725 0.54067 0.20536 0.28200
C 	C 	0.12613 0.25999 0.28451 -0.15800
C 	C 	0.09583 0.33143 0.28640 0.28400
C 	C 	0.13969 0.41535 0.30910 0.30000
F 	F 	0.10840 0.48218 0.31151 -0.35100
C 	C 	0.03566 0.74237 0.37871 0.27600
C 	C 	0.06984 0.86958 0.33250 -0.15500
C 	C 	0.00768 0.77787 0.34936 0.27100
C 	C 	0.10515 0.39804 0.48681 -0.16400
C 	C 	0.08847 0.38101 0.52383 0.30400
F 	F 	0.15922 0.41145 0.54699 -0.31600
C 	C 	0.01899 0.62790 0.01799 0.26800
F 	F 	0.09071 0.71656 0.00689 -0.33000
O 	O 	0.06302 0.87612 0.71513 -0.33300
O 	O 	0.07294 0.19973 0.79585 -0.33800
O 	O 	0.10092 0.22992 0.72256 -0.31200
F 	F 	0.05104 0.28186 0.85594 -0.36100
F 	F 	0.10313 0.38085 0.67905 -0.32100
C 	C 	0.12409 0.80005 0.39215 -0.16300
O 	O 	0.23162 0.15839 0.80036 -0.31400
O 	O 	0.22778 0.02010 0.74803 -0.30000
C 	C 	0.21887 0.07654 0.81915 0.39700
C 	C 	0.25036 0.08565 0.72158 0.39900
C 	C 	0.17132 0.74779 0.40601 0.38800
C 	C 	0.18441 0.49213 0.47547 0.38700
C 	C 	0.25126 0.50676 0.35800 0.39800
Ni	Ni	0.28669 0.71628 0.46536 1.13600
O 	O 	0.20392 0.76680 0.43959 -0.29100
O 	O 	0.19598 0.70038 0.38247 -0.33400
O 	O 	0.29419 0.60422 0.34808 -0.30700
O 	O 	0.25693 0.47744 0.39107 -0.32300
O 	O 	0.17984 0.57639 0.47905 -0.32600
O 	O 	0.26346 0.49437 0.46932 -0.31100
O 	O 	0.29767 0.65443 0.42325 -0.72200
H 	H 	0.23350 0.60407 0.41883 0.18600
C 	C 	0.18291 0.55568 0.16842 0.39700
C 	C 	0.15629 0.38131 0.07143 0.40300
Ni	Ni	0.25535 0.71203 0.11592 1.13400
Ni	Ni	0.23346 0.59265 0.04389 1.13800
O 	O 	0.14753 0.70186 0.08758 -0.32900
O 	O 	0.25274 0.53954 0.16637 -0.30100
O 	O 	0.16089 0.58648 0.13998 -0.37400
O 	O 	0.17264 0.42241 0.10285 -0.35700
O 	O 	0.19068 0.43950 0.04283 -0.30200
O 	O 	0.11318 0.54948 0.06587 -0.38000
C 	C 	0.18451 0.23881 0.08007 0.28500
C 	C 	0.12305 0.27209 0.06994 -0.15000
C 	C 	0.16098 0.16783 0.10798 0.28800
F 	F 	0.22538 0.14906 0.12215 -0.35300
F 	F 	0.27155 0.28793 0.06777 -0.33600
C 	C 	0.17885 0.74109 0.22195 0.27100
C 	C 	0.20876 0.66977 0.21875 0.27800
C 	C 	0.15161 0.57629 0.20271 -0.16500
F 	F 	0.23736 0.83524 0.23411 -0.34700
C 	C 	0.20367 0.27665 0.30390 0.28400
C 	C 	0.21417 0.42873 0.32990 -0.16800
C 	C 	0.24750 0.36057 0.32642 0.30100
F 	F 	0.23581 0.21064 0.30134 -0.33400
C 	C 	0.17616 0.90134 0.38112 0.29200
C 	C 	0.15048 0.93549 0.35071 0.29800
F 	F 	0.20539 0.03072 0.33838 -0.33100
F 	F 	0.25548 0.96385 0.39784 -0.33500
C 	C 	0.32148 0.09760 0.69566 -0.16900
C 	C 	0.31028 0.10950 0.65886 0.30300
F 	F 	0.22852 0.09309 0.64628 -0.34400
F 	F 	0.37459 0.16081 0.60025 -0.33100
F 	F 	0.26551 0.94070 0.01615 -0.31700
C 	C 	0.32016 0.11942 0.87284 0.30000
C 	C 	0.29634 0.07816 0.83835 -0.17100
F 	F 	0.26909 0.15291 0.89011 -0.31500
F 	F 	0.30426 0.96250 0.79645 -0.34200
F 	F 	0.12196 0.83044 0.65881 -0.33500
O 	O 	0.26849 0.74102 0.03266 -0.30200
F 	F 	0.29678 0.69719 0.22593 -0.32500
F 	F 	0.31076 0.97933 0.47037 -0.33800
Ni	Ni	0.34931 0.56815 0.42680 1.13900
Ni	Ni	0.32547 0.72800 0.37956 1.14500
O 	O 	0.36025 0.68034 0.50233 -0.30200
O 	O 	0.35961 0.86852 0.39821 -0.31100
C 	C 	0.33317 0.82291 0.04970 0.39700
Ni	Ni	0.30311 0.53024 0.11486 1.13100
O 	O 	0.33661 0.82867 0.08517 -0.32900
O 	O 	0.35869 0.74016 0.15283 -0.29800
O 	O 	0.29198 0.63093 0.08928 -0.71900
F 	F 	0.32194 0.37519 0.34526 -0.34500
F 	F 	0.35695 0.53979 0.55335 -0.32000
C 	C 	0.38440 0.14244 0.63523 0.29300
C 	C 	0.40495 0.10911 0.70790 0.29900
F 	F 	0.41715 0.09812 0.74331 -0.33200
C 	C 	0.35700 0.97760 0.01728 0.31700
F 	F 	0.31316 0.33401 0.93150 -0.30900
F 	F 	0.27155 0.36160 0.00022 -0.32200
C 	C 	0.34145 0.02869 0.82390 0.29400
C 	C 	0.39724 0.12549 0.88954 0.28100
H 	H 	0.35555 0.68052 0.08313 0.20400
F 	F 	0.06338 0.69965 0.60198 -0.33400
C 	C 	0.35259 0.42976 0.98566 0.27800
F 	F 	0.42054 0.16559 0.92286 -0.36500
C 	C 	0.43267 0.67370 0.49350 0.40600
C 	C 	0.40627 0.90761 0.42774 0.43800
O 	O 	0.40413 0.84918 0.45389 -0.34400
C 	C 	0.38014 0.54848 0.03576 0.39200
O 	O 	0.35971 0.49937 0.06770 -0.28400
O 	O 	0.35412 0.61464 0.02784 -0.34000
C 	C 	0.39870 0.04349 0.46105 0.30100
F 	F 	0.40850 0.15527 0.50774 -0.33400
C 	C 	0.44821 0.58589 0.54753 0.29400
F 	F 	0.45900 0.46984 0.58785 -0.33900
C 	C 	0.39227 0.91614 0.02956 -0.17400
F 	F 	0.38120 0.13685 0.99537 -0.31800
C 	C 	0.37236 0.41764 0.94992 0.29800
C 	C 	0.42334 0.04424 0.83930 0.30300
O 	O 	0.44399 0.61700 0.38676 -0.31900
O 	O 	0.44915 0.66411 0.45981 -0.33600
C 	C 	0.43158 0.72701 0.14774 0.39300
O 	O 	0.42467 0.64612 0.13170 -0.33400
C 	C 	0.44884 0.13248 0.48043 0.28700
C 	C 	0.48901 0.66297 0.52156 -0.17600
C 	C 	0.50036 0.55012 0.56518 0.29300
C 	C 	0.46988 0.16244 0.64812 -0.16600
C 	C 	0.47842 0.14004 0.68408 0.29400
C 	C 	0.41615 0.07856 0.00735 0.28400
C 	C 	0.41478 0.51455 0.00566 -0.14700
C 	C 	0.45857 0.10771 0.86917 -0.17700
C 	C 	0.44230 0.01481 0.43513 -0.18400
O 	O 	0.45777 0.77325 0.38229 -0.33900
F 	F 	0.46175 0.67649 0.21864 -0.32200
F 	F 	0.47982 0.77930 0.30590 -0.34500
C 	C 	0.45987 0.48044 0.93601 -0.15700
F 	F 	0.47402 0.00969 0.82237 -0.32600
C 	C 	0.50919 0.42905 0.92393 0.39200
C 	C 	0.48855 0.71145 0.37546 0.42300
C 	C 	0.48703 0.95772 0.03259 0.31400
C 	C 	0.03894 0.80158 0.64425 0.27400
C 	C 	0.49499 0.58712 0.98859 0.26300
C 	C 	0.55170 0.19236 0.86614 0.37700
O 	O 	0.56101 0.27798 0.85341 -0.32700
O 	O 	0.52528 0.37951 0.94899 -0.33900
C 	C 	0.55229 0.22901 0.62741 0.39700
C 	C 	0.51590 0.78760 0.16787 -0.15100
C 	C 	0.54287 0.19144 0.47449 -0.16500
C 	C 	0.51108 0.11833 0.00883 -0.14600
C 	C 	0.51191 0.57449 0.95267 0.28800
O 	O 	0.55735 0.45625 0.89295 -0.28000
C 	C 	0.53238 0.74154 0.19761 0.30400
C 	C 	0.53125 0.08404 0.42433 0.30700
C 	C 	0.58402 0.71313 0.51729 0.29600
F 	F 	0.56030 0.15685 0.69665 -0.32400
F 	F 	0.52231 0.90030 0.04523 -0.32700
C 	C 	0.59316 0.59088 0.55680 -0.16000
C 	C 	0.03637 0.17487 0.69933 0.36600
C 	C 	0.54561 0.05910 0.02381 0.28100
O 	O 	0.58338 0.32757 0.62987 -0.32200
C 	C 	0.55939 0.78560 0.31675 0.30600
F 	F 	0.55226 0.67423 0.00581 -0.32800
H 	H 	0.58218 0.29635 0.91941 0.20100
O 	O 	0.58918 0.20208 0.53579 -0.33200
C 	C 	0.56957 0.19875 0.98347 0.40200
C 	C 	0.56399 0.74367 0.34986 -0.17800
C 	C 	0.58172 0.17271 0.44396 0.29000
F 	F 	0.62517 0.79197 0.49399 -0.33200
F 	F 	0.58462 0.64967 0.93561 -0.32800
C 	C 	0.60173 0.24944 0.50439 0.38700
F 	F 	0.57199 0.06010 0.39751 -0.33800
O 	O 	0.60501 0.19216 0.61563 -0.31000
F 	F 	0.57745 0.91365 0.12196 -0.31900
C 	C 	0.63570 0.67622 0.53429 0.30300
C 	C 	0.01108 0.73854 0.61421 0.26900
C 	C 	0.59082 0.86159 0.14875 0.29700
O 	O 	0.59601 0.16952 0.95465 -0.33700
F 	F 	0.63440 0.64828 0.87121 -0.33800
O 	O 	0.62368 0.18616 0.87872 -0.31400
O 	O 	0.61298 0.29535 0.99428 -0.31200
C 	C 	0.01224 0.31613 0.67653 0.22600
H 	H 	0.63308 0.34994 0.56903 0.18500
C 	C 	0.63812 0.53025 0.56297 0.40300
C 	C 	0.61865 0.75048 0.20253 0.30000
F 	F 	0.63271 0.88316 0.26476 -0.34400
Ni	Ni	0.65508 0.41343 0.87469 1.13200
F 	F 	0.63064 0.69710 0.22921 -0.35600
O 	O 	0.64651 0.34836 0.91902 -0.72200
C 	C 	0.63700 0.83655 0.29525 0.30700
O 	O 	0.65223 0.48705 0.53445 -0.33000
F 	F 	0.63706 0.09747 0.02678 -0.31400
Ni	Ni	0.65300 0.42034 0.96165 1.13700
C 	C 	0.64659 0.75147 0.36095 0.31100
O 	O 	0.67853 0.33475 0.49680 -0.30500
F 	F 	0.67098 0.23422 0.43582 -0.31500
F 	F 	0.65282 0.71513 0.39358 -0.33100
F 	F 	0.00785 0.87960 0.86643 -0.37400
O 	O 	0.00674 0.07823 0.69808 -0.34100
O 	O 	0.67826 0.53696 0.59476 -0.30100
C 	C 	0.67725 0.87100 0.15325 0.29400
Ni	Ni	0.68999 0.24149 0.57144 1.13900
O 	O 	0.69133 0.56149 0.94009 -0.30900
F 	F 	0.72524 0.71626 0.52574 -0.32000
C 	C 	0.69163 0.81362 0.17972 -0.16700
O 	O 	0.69765 0.37014 0.57282 -0.72500
Ni	Ni	0.69899 0.26348 0.92358 1.13800
F 	F 	0.71704 0.75079 0.81004 -0.34300
C 	C 	0.72620 0.70675 0.87073 0.28200
Ni	Ni	0.71601 0.43424 0.61713 1.13000
C 	C 	0.71882 0.84007 0.30540 -0.15500
C 	C 	0.72398 0.80046 0.33908 0.29700
F 	F 	0.73351 0.11911 0.66735 -0.33500
O 	O 	0.74593 0.38292 0.84552 -0.29800
F 	F 	0.74562 0.93171 0.13056 -0.30400
C 	C 	0.75141 0.60040 0.91370 0.41500
Ni	Ni	0.75226 0.45107 0.53114 1.14300
O 	O 	0.75582 0.34764 0.64841 -0.31200
C 	C 	0.00096 0.34971 0.53721 0.23800
O 	O 	0.00060 0.80626 0.27490 -0.33500
C 	C 	0.99382 0.86966 0.69730 0.41900
F 	F 	0.78114 0.31994 0.78548 -0.34000
C 	C 	0.97960 0.83184 0.65980 -0.14100
F 	F 	0.99773 0.44255 0.19783 -0.29000
F 	F 	0.98871 0.57302 0.95719 -0.32400
O 	O 	0.98859 0.12593 0.25869 -0.27400
O 	O 	0.97568 0.76963 0.20156 -0.28000
F 	F 	0.96706 0.22885 0.06379 -0.29800
F 	F 	0.98037 0.64791 0.39169 -0.30500
C 	C 	0.96855 0.55331 0.99269 0.30300
H 	H 	0.97774 0.96380 0.25924 0.16300
F 	F 	0.98727 0.34858 0.57321 -0.31700
O 	O 	0.97622 0.94727 0.23363 -0.69400
F 	F 	0.93538 0.57868 0.20312 -0.31200
F 	F 	0.92254 0.72044 0.33595 -0.30300
C 	C 	0.80801 0.36642 0.86069 0.39500
C 	C 	0.81668 0.41651 0.97773 0.41100
O 	O 	0.78469 0.47238 0.96562 -0.35900
O 	O 	0.76559 0.54058 0.89349 -0.35300
O 	O 	0.81000 0.35973 0.89546 -0.32700
O 	O 	0.77929 0.32018 0.96837 -0.30200
C 	C 	0.80701 0.31160 0.63561 0.43200
C 	C 	0.87485 0.60511 0.58422 0.40600
C 	C 	0.85186 0.33908 0.52545 0.41200
O 	O 	0.77223 0.25774 0.52964 -0.33200
O 	O 	0.80273 0.28735 0.60174 -0.33700
O 	O 	0.85171 0.52917 0.60594 -0.33600
O 	O 	0.83304 0.59073 0.55325 -0.30100
O 	O 	0.86072 0.42956 0.52924 -0.33100
C 	C 	0.90860 0.85423 0.80182 0.38600
C 	C 	0.98910 0.18307 0.78816 0.40700
Ni	Ni	0.94626 0.99767 0.74174 1.16700
O 	O 	0.92745 0.87269 0.71484 -0.30900
O 	O 	0.93443 0.11279 0.76460 -0.30800
O 	O 	0.96535 0.82743 0.78683 -0.30100
O 	O 	0.87795 0.90603 0.78340 -0.29900
C 	C 	0.79347 0.86971 0.27903 0.39000
C 	C 	0.78557 0.83082 0.18642 0.38600
Ni	Ni	0.91776 0.01902 0.21946 1.13600
Ni	Ni	0.90963 0.80411 0.23883 1.14900
O 	O 	0.80347 0.93451 0.25275 -0.30300
O 	O 	0.84025 0.82060 0.28002 -0.30100
O 	O 	0.85461 0.91871 0.17858 -0.29800
O 	O 	0.79835 0.76623 0.20614 -0.29200
F 	F 	0.91833 0.08695 0.11731 -0.30200
F 	F 	0.80445 0.81104 0.35083 -0.32200
C 	C 	0.92985 0.32952 0.51326 -0.14700
C 	C 	0.94294 0.32187 0.47640 0.32700
F 	F 	0.87269 0.29383 0.45313 -0.31900
C 	C 	0.95454 0.35161 0.66382 0.36400
C 	C 	0.86060 0.28489 0.65989 -0.18600
C 	C 	0.82430 0.18387 0.67049 0.33200
C 	C 	0.88151 0.14757 0.68238 0.28400
C 	C 	0.97641 0.21335 0.68527 -0.08900
F 	F 	0.99065 0.44959 0.65341 -0.32600
F 	F 	0.84419 0.04891 0.69208 -0.36500
C 	C 	0.90285 0.81734 0.64024 0.29000
C 	C 	0.87690 0.75680 0.60950 0.28600
C 	C 	0.92520 0.70727 0.59918 -0.14300
F 	F 	0.80118 0.74030 0.59144 -0.33500
F 	F 	0.85278 0.86025 0.65120 -0.33300
C 	C 	0.89124 0.46281 0.00349 -0.15300
C 	C 	0.86991 0.44677 0.04034 0.28300
C 	C 	0.92485 0.52019 0.06552 0.33600
F 	F 	0.90571 0.50182 0.10110 -0.32400
F 	F 	0.79270 0.36348 0.05148 -0.32300
C 	C 	0.84750 0.31115 0.80302 0.28600
C 	C 	0.86997 0.34465 0.83862 -0.16800
C 	C 	0.94422 0.34175 0.85504 0.27900
C 	C 	0.98550 0.29193 0.83828 0.32200
C 	C 	0.95679 0.24973 0.80399 -0.18000
C 	C 	0.89155 0.26552 0.78565 0.30000
F 	F 	0.86960 0.23511 0.75117 -0.36400
F 	F 	0.97471 0.38479 0.88771 -0.32600
C 	C 	0.76868 0.75733 0.83897 0.29300
C 	C 	0.86399 0.80831 0.83628 -0.18400
C 	C 	0.91589 0.82105 0.86733 0.32000
C 	C 	0.87256 0.77099 0.89925 0.28900
C 	C 	0.77889 0.70096 0.89907 -0.15400
F 	F 	0.92363 0.77681 0.92826 -0.31200
