data_crystal

_cell_length_a 19.85654
_cell_length_b 21.43936
_cell_length_c 30.39341
_cell_angle_alpha 60.75255
_cell_angle_beta  118.96547
_cell_angle_gamma 133.14852

_symmetry_space_group_name_	'P 1'
_symmetry_space_group_name_H-M	'P 1'

loop_
_symmetry_equiv_pos_as_xyz
  x,y,z

loop_
_atom_site_label
_atom_site_type_symbol
_atom_site_fract_x
_atom_site_fract_y
_atom_site_fract_z
_atom_site_charge
Co	Co	0.03237 0.12121 0.59384 1.17600
H 	H 	0.03701 0.74868 0.03818 0.02700
O 	O 	0.03439 0.01800 0.98620 -0.36900
C 	C 	0.03059 0.99945 0.91059 -0.11700
C 	C 	0.02809 0.15437 0.16905 0.28000
O 	O 	0.03901 0.90524 0.08636 -0.77100
H 	H 	0.02403 0.65429 0.25489 0.09100
H 	H 	0.00896 0.55098 0.28177 0.08200
C 	C 	0.06057 0.99507 0.96710 0.31800
O 	O 	0.04924 0.01282 0.61972 -0.58800
C 	C 	0.07010 0.02956 0.45346 0.30800
Co	Co	0.01535 0.88629 0.62176 1.17500
O 	O 	0.02947 0.03440 0.47479 -0.38100
O 	O 	0.08447 0.96437 0.57864 -0.76600
Co	Co	0.07382 0.00948 0.06656 1.17900
Co	Co	0.09199 0.87257 0.06264 1.16700
O 	O 	0.08084 0.10852 0.06700 -0.48200
O 	O 	0.05750 0.12324 0.15925 -0.41100
O 	O 	0.07109 0.76536 0.12559 -0.41400
Co	Co	0.09900 0.06123 0.54902 1.18400
O 	O 	0.09399 0.15865 0.53985 -0.46800
O 	O 	0.05362 0.16641 0.69450 -0.39100
C 	C 	0.07986 0.02888 0.83844 0.08800
H 	H 	0.07574 0.66653 0.72900 0.03500
N 	N 	0.04427 0.61659 0.26035 -0.20400
H 	H 	0.10588 0.43501 0.56223 0.08000
C 	C 	0.10382 0.77346 0.17274 0.31000
O 	O 	0.12089 0.97570 0.99703 -0.40600
O 	O 	0.09125 0.81707 0.18372 -0.40000
Co	Co	0.13432 0.93348 0.55088 1.16600
O 	O 	0.12201 0.82917 0.61476 -0.41600
O 	O 	0.11230 0.85677 0.67466 -0.39300
C 	C 	0.10152 0.04645 0.88443 -0.02200
H 	H 	0.08147 0.54094 0.78084 0.07900
N 	N 	0.12045 0.38889 0.58829 -0.20200
H 	H 	0.10775 0.34602 0.57351 0.09200
H 	H 	0.05106 0.90538 0.43566 0.04900
C 	C 	0.02011 0.00062 0.40384 -0.10500
C 	C 	0.11380 0.23533 0.66509 0.29900
C 	C 	0.14369 0.83037 0.66255 0.31200
O 	O 	0.14477 0.02972 0.48196 -0.41100
O 	O 	0.12919 0.22622 0.63081 -0.37800
C 	C 	0.09849 0.23501 0.18883 -0.10100
H 	H 	0.11505 0.16618 0.26921 0.04300
C 	C 	0.11699 0.65263 0.24166 0.12100
H 	H 	0.11420 0.46910 0.21864 0.05100
C 	C 	0.14766 0.70353 0.72632 -0.02100
N 	N 	0.14802 0.57576 0.77467 -0.19400
C 	C 	0.11988 0.31736 0.15427 0.11400
N 	N 	0.12033 0.33595 0.10475 -0.20400
H 	H 	0.10768 0.29099 0.09179 0.08500
C 	C 	0.12235 0.22591 0.24212 -0.03300
H 	H 	0.11311 0.53477 0.27651 0.05300
C 	C 	0.02478 0.93994 0.40074 -0.05700
C 	C 	0.15970 0.38865 0.63944 0.11600
H 	H 	0.17481 0.09327 0.90148 0.05600
C 	C 	0.14602 0.38244 0.17209 -0.08800
H 	H 	0.13506 0.39646 0.07895 0.08000
C 	C 	0.16205 0.74048 0.21079 -0.10700
C 	C 	0.15313 0.29247 0.26071 0.07200
C 	C 	0.14670 0.60148 0.25225 -0.08700
C 	C 	0.17320 0.32229 0.67581 -0.09900
H 	H 	0.17641 0.54661 0.70925 0.05200
H 	H 	0.18154 0.50855 0.62828 0.05000
Br	Br	0.18110 0.08991 0.80735 -0.25300
H 	H 	0.16004 0.44475 0.14510 0.04800
C 	C 	0.18824 0.45586 0.65640 -0.08600
C 	C 	0.18899 0.65930 0.74409 0.06200
H 	H 	0.18481 0.54732 0.79564 0.08600
C 	C 	0.16470 0.37177 0.22527 -0.02000
N 	N 	0.17333 0.28070 0.31261 -0.19300
H 	H 	0.17264 0.22582 0.33886 0.09200
C 	C 	0.19763 0.79466 0.70310 -0.11500
C 	C 	0.18929 0.49779 0.23485 -0.08400
H 	H 	0.18725 0.32451 0.32724 0.09400
C 	C 	0.21916 0.32756 0.72765 -0.03000
O 	O 	0.21647 0.05763 0.09960 -0.39800
O 	O 	0.22681 0.95570 0.10108 -0.39600
H 	H 	0.22983 0.27720 0.75559 0.06400
C 	C 	0.22496 0.45229 0.24416 0.04200
C 	C 	0.23166 0.45906 0.70867 -0.02300
C 	C 	0.21868 0.63611 0.23101 -0.01800
H 	H 	0.00400 0.71658 0.98269 0.07400
O 	O 	0.24555 0.13757 0.55749 -0.38000
C 	C 	0.24163 0.39096 0.74500 0.07100
C 	C 	0.24518 0.77887 0.19877 -0.02900
C 	C 	0.25285 0.58272 0.24461 0.04100
C 	C 	0.25248 0.57931 0.72225 -0.08500
C 	C 	0.26010 0.03809 0.09192 0.30000
O 	O 	0.26537 0.02829 0.58478 -0.40000
Br	Br	0.96912 0.12191 0.35930 -0.23900
C 	C 	0.98512 0.04428 0.35780 0.13700
O 	O 	0.98579 0.94556 0.74316 -0.35500
C 	C 	0.96001 0.03040 0.30968 -0.05000
H 	H 	0.93317 0.06449 0.27465 0.06100
Co	Co	0.98039 0.05675 0.10140 1.18500
O 	O 	0.93743 0.12292 0.15491 -0.39400
C 	C 	0.92728 0.95029 0.25534 0.30100
C 	C 	0.95597 0.96761 0.76040 0.30300
C 	C 	0.99774 0.92461 0.35282 0.13700
Br	Br	0.99471 0.83314 0.35283 -0.24700
N 	N 	0.27321 0.38649 0.79667 -0.19400
H 	H 	0.28414 0.33819 0.82332 0.08700
H 	H 	0.28333 0.42853 0.81095 0.08800
C 	C 	0.70978 0.30156 0.99344 0.05400
C 	C 	0.61191 0.24201 0.99121 -0.09000
C 	C 	0.56536 0.26777 0.99374 0.05900
C 	C 	0.61386 0.35601 0.99122 -0.07200
C 	C 	0.71272 0.41142 0.00087 0.02000
C 	C 	0.75977 0.38754 0.99686 -0.05700
H 	H 	0.57439 0.17366 0.99284 0.06100
H 	H 	0.57699 0.37672 0.99120 0.06000
H 	H 	0.83611 0.43234 0.00136 0.04300
C 	C 	0.74941 0.35749 0.47814 0.04200
C 	C 	0.65106 0.31743 0.46197 -0.08500
C 	C 	0.61294 0.33918 0.47581 0.04500
C 	C 	0.67195 0.41817 0.48995 -0.08400
C 	C 	0.77041 0.46552 0.50143 0.04400
C 	C 	0.81008 0.43322 0.49792 -0.08300
H 	H 	0.60347 0.26151 0.44510 0.05300
H 	H 	0.64142 0.43871 0.49671 0.05800
H 	H 	0.88597 0.46500 0.51137 0.05700
C 	C 	0.35098 0.62127 0.26167 -0.08300
C 	C 	0.38501 0.58148 0.26191 0.04200
C 	C 	0.32266 0.49229 0.26253 -0.08400
H 	H 	0.40094 0.68739 0.26743 0.05700
H 	H 	0.35047 0.45933 0.26742 0.05600
C 	C 	0.31309 0.65813 0.73871 0.04100
C 	C 	0.41199 0.70100 0.75262 -0.08400
C 	C 	0.44919 0.67619 0.74055 0.04500
C 	C 	0.39047 0.59310 0.73149 -0.08400
C 	C 	0.29201 0.54448 0.72172 0.04400
H 	H 	0.45994 0.76019 0.76645 0.05600
H 	H 	0.42050 0.57065 0.72612 0.05900
Co	Co	0.90134 0.88707 0.17364 1.18300
Co	Co	0.98126 0.83118 0.13456 1.19200
Co	Co	0.81969 0.99423 0.14793 1.16900
C 	C 	0.89473 0.72299 0.05824 0.30000
O 	O 	0.78151 0.03936 0.06915 -0.39400
O 	O 	0.89328 0.97118 0.13340 -0.75600
C 	C 	0.84559 0.11105 0.04347 0.30800
O 	O 	0.92947 0.80062 0.19161 -0.45700
C 	C 	0.69904 0.80107 0.17117 0.31000
O 	O 	0.95430 0.93396 0.10433 -0.56200
O 	O 	0.91320 0.11531 0.04075 -0.38400
O 	O 	0.70139 0.87070 0.13885 -0.39100
O 	O 	0.75861 0.78873 0.17512 -0.38200
O 	O 	0.84625 0.93964 0.22749 -0.40400
O 	O 	0.96846 0.93749 0.23942 -0.36900
O 	O 	0.95051 0.79687 0.02868 -0.36500
O 	O 	0.88656 0.72352 0.09958 -0.36500
Co	Co	0.94165 0.94332 0.66458 1.18800
C 	C 	0.29558 0.11147 0.56465 0.30500
Co	Co	0.91434 0.08064 0.66124 1.17200
C 	C 	0.93485 0.77887 0.54724 0.30200
O 	O 	0.93142 0.18458 0.59653 -0.40600
O 	O 	0.97185 0.04714 0.64100 -0.74500
C 	C 	0.90640 0.17776 0.54989 0.31300
O 	O 	0.94065 0.84365 0.67048 -0.45200
C 	C 	0.75206 0.90744 0.63947 0.30500
O 	O 	0.92396 0.13537 0.54176 -0.39200
O 	O 	0.78231 0.99021 0.62438 -0.39600
O 	O 	0.79658 0.88528 0.63544 -0.39700
O 	O 	0.89178 0.98210 0.72943 -0.40200
O 	O 	0.99577 0.84609 0.51836 -0.38200
O 	O 	0.91487 0.79131 0.57730 -0.37900
C 	C 	0.93608 0.93683 0.88841 0.15200
C 	C 	0.91428 0.91982 0.84216 -0.05600
C 	C 	0.98541 0.96616 0.81634 -0.05000
H 	H 	0.84100 0.87278 0.82518 0.06700
Br	Br	0.83523 0.87346 0.92047 -0.23300
C 	C 	0.96861 0.97258 0.30639 -0.07900
C 	C 	0.52273 0.79408 0.66768 -0.09100
C 	C 	0.53376 0.74493 0.71895 -0.01600
C 	C 	0.61569 0.74592 0.74313 0.06900
C 	C 	0.68243 0.79222 0.71452 -0.02100
C 	C 	0.66992 0.83969 0.66285 -0.11700
C 	C 	0.58675 0.83643 0.63847 0.13000
N 	N 	0.56600 0.87028 0.58654 -0.20400
H 	H 	0.45916 0.79227 0.64900 0.05400
H 	H 	0.74654 0.79497 0.73330 0.04200
N 	N 	0.63146 0.70412 0.79394 -0.19300
H 	H 	0.50684 0.87173 0.56903 0.08300
H 	H 	0.60499 0.89036 0.56273 0.09500
H 	H 	0.58635 0.67442 0.81700 0.09400
H 	H 	0.69115 0.70348 0.81134 0.09100
C 	C 	0.29304 0.84245 0.70339 0.12600
C 	C 	0.32808 0.79739 0.71255 -0.09100
C 	C 	0.27600 0.70503 0.73215 -0.01500
H 	H 	0.39512 0.83429 0.70355 0.05200
N 	N 	0.34992 0.93189 0.69245 -0.20500
H 	H 	0.32687 0.96610 0.68884 0.09800
H 	H 	0.41966 0.96764 0.69049 0.08700
C 	C 	0.63354 0.70739 0.24912 -0.02500
C 	C 	0.61768 0.72874 0.19502 -0.11200
C 	C 	0.52454 0.69650 0.16388 0.13100
C 	C 	0.45140 0.65470 0.18623 -0.09100
C 	C 	0.46767 0.63689 0.23999 -0.01700
C 	C 	0.55898 0.66123 0.27206 0.06700
N 	N 	0.57590 0.64182 0.32449 -0.19300
H 	H 	0.70497 0.73096 0.27312 0.04900
H 	H 	0.38034 0.63255 0.16199 0.05200
N 	N 	0.50494 0.70471 0.11260 -0.20300
H 	H 	0.64320 0.65870 0.34790 0.08500
H 	H 	0.52282 0.61028 0.34250 0.08700
H 	H 	0.55615 0.72795 0.09608 0.10200
H 	H 	0.43661 0.68391 0.08923 0.08500
C 	C 	0.26518 0.72524 0.20162 0.06600
N 	N 	0.32213 0.75715 0.17250 -0.19400
H 	H 	0.28372 0.84774 0.17798 0.04600
H 	H 	0.36090 0.82410 0.15370 0.08200
H 	H 	0.32211 0.71486 0.16464 0.08500
C 	C 	0.72865 0.21644 0.50047 -0.09000
C 	C 	0.78442 0.30937 0.48369 -0.01500
C 	C 	0.87081 0.35384 0.47155 0.06800
C 	C 	0.90744 0.30666 0.48615 -0.02100
C 	C 	0.85475 0.21494 0.50784 -0.11100
C 	C 	0.75964 0.16958 0.50681 0.12600
N 	N 	0.69957 0.08042 0.51522 -0.20400
H 	H 	0.66160 0.18044 0.50916 0.05200
H 	H 	0.97860 0.34196 0.48303 0.04300
N 	N 	0.91586 0.43929 0.44385 -0.19400
H 	H 	0.72028 0.04514 0.51753 0.10000
H 	H 	0.62997 0.04616 0.51677 0.08500
H 	H 	0.88259 0.47090 0.42490 0.09300
H 	H 	0.98208 0.47287 0.43774 0.09000
C 	C 	0.88054 0.62349 0.57757 -0.02500
C 	C 	0.87522 0.69129 0.53714 -0.10600
C 	C 	0.84191 0.68567 0.48525 0.13200
C 	C 	0.82860 0.62071 0.47454 -0.08700
C 	C 	0.83004 0.55089 0.51458 -0.01500
C 	C 	0.85833 0.55331 0.56683 0.06900
N 	N 	0.86507 0.48908 0.60675 -0.19300
H 	H 	0.90736 0.62786 0.61740 0.04700
H 	H 	0.80627 0.61890 0.43453 0.06300
N 	N 	0.82339 0.74321 0.44554 -0.20100
H 	H 	0.88400 0.49006 0.64516 0.08800
H 	H 	0.85403 0.43899 0.60009 0.08800
H 	H 	0.82332 0.78615 0.45267 0.10700
H 	H 	0.80554 0.74331 0.40703 0.09600
C 	C 	0.52849 0.21615 0.54378 -0.09100
C 	C 	0.52397 0.26896 0.49305 -0.01800
C 	C 	0.44339 0.26998 0.46578 0.06600
C 	C 	0.37177 0.22269 0.49108 -0.02200
C 	C 	0.37948 0.17426 0.54298 -0.11400
C 	C 	0.46092 0.17471 0.57026 0.12700
N 	N 	0.47749 0.14062 0.62243 -0.20300
H 	H 	0.59064 0.21568 0.56459 0.05400
H 	H 	0.30849 0.22121 0.46983 0.04900
N 	N 	0.43404 0.31539 0.41527 -0.19300
H 	H 	0.53552 0.13734 0.64205 0.08200
H 	H 	0.43694 0.12287 0.64436 0.09500
H 	H 	0.48338 0.34648 0.39463 0.08700
H 	H 	0.37543 0.31781 0.39566 0.08500
C 	C 	0.73366 0.22997 0.96298 -0.07300
C 	C 	0.76182 0.26966 0.00003 -0.04100
C 	C 	0.83626 0.27425 0.04435 0.07400
C 	C 	0.88225 0.24214 0.04922 -0.03500
C 	C 	0.84180 0.18762 0.01825 -0.12200
C 	C 	0.77198 0.18733 0.97228 0.14000
N 	N 	0.74068 0.14534 0.93746 -0.20500
H 	H 	0.67929 0.22911 0.92802 0.05400
H 	H 	0.93948 0.24687 0.08254 0.05500
N 	N 	0.85808 0.30182 0.08430 -0.19700
H 	H 	0.68692 0.14283 0.90423 0.09100
H 	H 	0.77150 0.11712 0.94241 0.10600
H 	H 	0.81089 0.30409 0.08871 0.08600
H 	H 	0.91851 0.31264 0.11437 0.09100
C 	C 	0.84063 0.56970 0.99964 -0.05500
C 	C 	0.76735 0.48809 0.02175 -0.02900
C 	C 	0.74576 0.48087 0.06313 0.07200
C 	C 	0.78631 0.55814 0.07459 -0.03100
C 	C 	0.86017 0.63972 0.05233 -0.08900
C 	C 	0.89506 0.64213 0.01971 0.10600
N 	N 	0.98390 0.70987 0.01166 -0.17300
H 	H 	0.85985 0.57538 0.96934 0.05400
H 	H 	0.76268 0.55404 0.10204 0.05300
N 	N 	0.69168 0.40083 0.09370 -0.19500
H 	H 	0.67703 0.34416 0.09324 0.08700
H 	H 	0.67072 0.39586 0.12153 0.08700
C 	C 	0.49304 0.15389 0.06790 -0.08000
C 	C 	0.48155 0.20100 0.01601 -0.05100
C 	C 	0.39988 0.20051 0.99122 0.10200
C 	C 	0.33452 0.15768 0.01979 -0.04800
C 	C 	0.34480 0.10855 0.07112 -0.10800
C 	C 	0.42700 0.11012 0.09612 0.12000
N 	N 	0.44336 0.07070 0.14746 -0.20300
H 	H 	0.55696 0.15628 0.08736 0.04700
H 	H 	0.27151 0.15676 0.00076 0.04000
N 	N 	0.38329 0.23981 0.93988 -0.19800
H 	H 	0.50240 0.06902 0.16534 0.08400
H 	H 	0.39967 0.04436 0.17045 0.09800
H 	H 	0.42599 0.26495 0.91665 0.09400
H 	H 	0.32514 0.24277 0.92229 0.08700
