data_crystal

_cell_length_a 26.29963
_cell_length_b 26.45265
_cell_length_c 35.10016
_cell_angle_alpha 95.48996
_cell_angle_beta  95.48691
_cell_angle_gamma 125.81174

_symmetry_space_group_name_	'P 1'
_symmetry_space_group_name_H-M	'P 1'

loop_
_symmetry_equiv_pos_as_xyz
  x,y,z

loop_
_atom_site_label
_atom_site_type_symbol
_atom_site_fract_x
_atom_site_fract_y
_atom_site_fract_z
_atom_site_charge
C 	C 	0.97970 0.05207 0.99252 0.08800
C 	C 	0.04341 0.08480 0.98769 -0.10900
C 	C 	0.07115 0.05292 0.98493 0.08700
C 	C 	0.03504 0.98833 0.98710 -0.10500
C 	C 	0.97115 0.95535 0.99123 0.08600
C 	C 	0.94356 0.98724 0.99408 -0.10100
H 	H 	0.07127 0.13482 0.98621 0.06300
H 	H 	0.05658 0.96376 0.98548 0.06800
H 	H 	0.89407 0.96168 0.99729 0.07600
C 	C 	0.92031 0.97606 0.45527 0.05900
C 	C 	0.88461 0.91028 0.45366 -0.08700
C 	C 	0.91548 0.88144 0.45540 0.06900
C 	C 	0.98196 0.91843 0.45902 -0.08400
C 	C 	0.01765 0.98400 0.46057 0.05600
C 	C 	0.98683 0.01281 0.45867 -0.07400
H 	H 	0.83316 0.88174 0.45097 0.06700
H 	H 	0.00586 0.89618 0.46055 0.06000
H 	H 	0.01449 0.06363 0.45991 0.06200
Cu	Cu	0.65162 0.26325 0.00564 0.92900
Cu	Cu	0.70556 0.27208 0.92445 0.86900
Cu	Cu	0.68540 0.36459 0.95674 0.89800
Cu	Cu	0.65259 0.37986 0.03396 0.89600
C 	C 	0.66840 0.30660 0.08739 0.29800
O 	O 	0.55859 0.22583 0.00478 -0.36400
C 	C 	0.67151 0.32803 0.87165 0.29600
O 	O 	0.70334 0.36211 0.01052 -0.64000
O 	O 	0.64374 0.27173 0.95047 -0.64200
O 	O 	0.69040 0.21749 0.00206 -0.37100
O 	O 	0.76336 0.28651 0.96846 -0.44000
O 	O 	0.64027 0.33293 0.07777 -0.38400
O 	O 	0.73194 0.45580 0.96559 -0.37200
C 	C 	0.72984 0.49038 0.99430 0.31100
C 	C 	0.53378 0.25286 0.99071 0.30100
O 	O 	0.57143 0.31284 0.98766 -0.38000
O 	O 	0.69007 0.46421 0.01881 -0.39000
O 	O 	0.67275 0.27118 0.06073 -0.35900
C 	C 	0.74511 0.24332 0.99031 0.31400
O 	O 	0.67452 0.36624 0.90062 -0.37700
O 	O 	0.66800 0.27757 0.87723 -0.42000
H 	H 	0.74922 0.38960 0.02258 0.16700
H 	H 	0.59986 0.24485 0.93493 0.17600
Cu	Cu	0.71521 0.30961 0.45019 0.92800
Cu	Cu	0.72205 0.27163 0.53560 0.86900
Cu	Cu	0.61904 0.27931 0.50343 0.89800
Cu	Cu	0.58812 0.29379 0.42183 0.89500
C 	C 	0.67281 0.29616 0.36936 0.30000
O 	O 	0.74918 0.39975 0.44593 -0.35900
C 	C 	0.66412 0.30303 0.58807 0.29500
O 	O 	0.61604 0.25425 0.44971 -0.63900
O 	O 	0.71280 0.32495 0.50601 -0.64000
O 	O 	0.76496 0.27488 0.45389 -0.35800
O 	O 	0.70513 0.20932 0.49399 -0.44200
O 	O 	0.61736 0.28458 0.37279 -0.38500
O 	O 	0.52720 0.22850 0.49839 -0.37300
C 	C 	0.48850 0.22729 0.47076 0.31300
C 	C 	0.71740 0.42221 0.45384 0.30500
O 	O 	0.65920 0.38426 0.46031 -0.39500
O 	O 	0.51055 0.26439 0.44466 -0.39500
O 	O 	0.70191 0.28362 0.39525 -0.36200
C 	C 	0.74475 0.22467 0.46968 0.30900
O 	O 	0.62408 0.29898 0.55980 -0.37700
O 	O 	0.71727 0.31213 0.58171 -0.41700
H 	H 	0.59091 0.20781 0.44079 0.16800
H 	H 	0.73867 0.37011 0.51887 0.17800
C 	C 	0.66403 0.33759 0.83148 -0.10800
C 	C 	0.71793 0.38079 0.81559 0.12400
C 	C 	0.71120 0.37875 0.77519 -0.09600
C 	C 	0.65156 0.33517 0.75067 0.00100
C 	C 	0.59671 0.29652 0.76706 0.06000
C 	C 	0.60363 0.29752 0.80735 -0.01900
N 	N 	0.77629 0.42351 0.83881 -0.20500
H 	H 	0.75288 0.40962 0.76263 0.05700
C 	C 	0.64863 0.32418 0.70807 0.00000
N 	N 	0.53750 0.25836 0.74429 -0.19200
H 	H 	0.56211 0.26579 0.81980 0.04100
C 	C 	0.64751 0.27328 0.69112 -0.09400
C 	C 	0.64897 0.26353 0.65137 0.12100
C 	C 	0.65412 0.30710 0.62851 -0.10600
C 	C 	0.65323 0.35690 0.64513 -0.02000
C 	C 	0.64996 0.36560 0.68473 0.06000
H 	H 	0.64541 0.24105 0.70898 0.05600
N 	N 	0.64424 0.21174 0.63522 -0.20100
H 	H 	0.65607 0.38956 0.62739 0.04600
N 	N 	0.64775 0.41339 0.70000 -0.19200
H 	H 	0.64255 0.18100 0.65259 0.08200
H 	H 	0.63980 0.20012 0.60522 0.06800
H 	H 	0.64994 0.44444 0.68272 0.08700
H 	H 	0.64250 0.41943 0.72883 0.09100
H 	H 	0.49741 0.22847 0.75641 0.08500
H 	H 	0.53047 0.25949 0.71469 0.09100
H 	H 	0.78247 0.42793 0.86907 0.08700
H 	H 	0.81614 0.45408 0.82668 0.08600
C 	C 	0.67746 0.30111 0.12841 -0.10400
C 	C 	0.73924 0.33461 0.15142 0.12500
C 	C 	0.74570 0.33363 0.19151 -0.09500
C 	C 	0.69168 0.29952 0.20876 0.00100
C 	C 	0.62991 0.26382 0.18537 0.06300
C 	C 	0.62352 0.26502 0.14539 -0.02000
N 	N 	0.79240 0.36834 0.13542 -0.20400
H 	H 	0.79291 0.36035 0.20946 0.05900
C 	C 	0.70027 0.30545 0.25169 0.00200
N 	N 	0.57665 0.22883 0.20112 -0.19200
H 	H 	0.57628 0.23858 0.12750 0.04900
C 	C 	0.70376 0.35450 0.27413 -0.09500
C 	C 	0.70063 0.35541 0.31386 0.12700
C 	C 	0.69206 0.30526 0.33104 -0.10400
C 	C 	0.69411 0.25922 0.30942 -0.02100
C 	C 	0.69874 0.25916 0.26987 0.06200
H 	H 	0.70727 0.39120 0.26040 0.05900
N 	N 	0.70637 0.40467 0.33539 -0.20400
H 	H 	0.68952 0.22189 0.32295 0.05200
N 	N 	0.70052 0.21403 0.24941 -0.19200
H 	H 	0.71045 0.44039 0.32221 0.09000
H 	H 	0.70936 0.40932 0.36554 0.09200
H 	H 	0.69762 0.17899 0.26279 0.09000
H 	H 	0.70630 0.21410 0.22039 0.09400
H 	H 	0.53130 0.20319 0.18364 0.08800
H 	H 	0.57951 0.22618 0.23063 0.09200
H 	H 	0.78935 0.36957 0.10570 0.08900
H 	H 	0.83780 0.39347 0.15276 0.08900
C 	C 	0.83452 0.60144 0.47130 -0.11700
C 	C 	0.79659 0.61693 0.45332 0.01000
C 	C 	0.73299 0.56846 0.43531 0.11700
C 	C 	0.70783 0.50495 0.43509 -0.03400
C 	C 	0.74547 0.48927 0.45331 -0.12900
C 	C 	0.80906 0.53788 0.47165 0.19400
C 	C 	0.82368 0.68396 0.45322 -0.01000
O 	O 	0.69577 0.58305 0.41716 -0.27600
H 	H 	0.65901 0.46779 0.42065 0.04600
O 	O 	0.84640 0.52343 0.48980 -0.28800
H 	H 	0.88359 0.63870 0.48522 0.07200
C 	C 	0.82963 0.72249 0.48652 0.13400
C 	C 	0.85661 0.78642 0.48637 -0.07700
C 	C 	0.87840 0.81237 0.45330 -0.04800
C 	C 	0.87051 0.77327 0.41958 0.15200
C 	C 	0.84358 0.70940 0.41974 -0.09100
O 	O 	0.80808 0.69747 0.51893 -0.28000
H 	H 	0.86217 0.81623 0.51232 0.06500
O 	O 	0.89136 0.79807 0.38699 -0.28600
H 	H 	0.83863 0.67975 0.39393 0.07300
H 	H 	0.83955 0.52308 0.51711 0.14200
H 	H 	0.84522 0.70415 0.53522 0.14400
H 	H 	0.85441 0.79266 0.37144 0.15000
H 	H 	0.67467 0.58819 0.43754 0.15100
C 	C 	0.85458 0.17836 0.45705 -0.11700
C 	C 	0.81194 0.11220 0.45307 0.01000
C 	C 	0.74647 0.08274 0.45137 0.11700
C 	C 	0.72448 0.11968 0.45545 -0.03300
C 	C 	0.76739 0.18611 0.46085 -0.12900
C 	C 	0.83270 0.21542 0.46119 0.18900
C 	C 	0.83647 0.07427 0.45285 -0.01100
O 	O 	0.70425 0.01801 0.44716 -0.27300
H 	H 	0.67412 0.09670 0.45491 0.05500
O 	O 	0.87530 0.28023 0.46612 -0.28200
H 	H 	0.90500 0.20120 0.45798 0.07200
C 	C 	0.85419 0.06032 0.41911 0.13700
C 	C 	0.87966 0.02634 0.41969 -0.08000
C 	C 	0.88828 0.00678 0.45394 -0.04100
C 	C 	0.87006 0.02029 0.48757 0.15100
C 	C 	0.84385 0.05355 0.48684 -0.09000
O 	O 	0.84538 0.07865 0.38534 -0.27700
H 	H 	0.89352 0.01594 0.39368 0.06600
O 	O 	0.87741 0.00061 0.52107 -0.28100
H 	H 	0.83007 0.06401 0.51287 0.07100
H 	H 	0.89065 0.29536 0.49467 0.13700
H 	H 	0.88586 0.12112 0.38623 0.14800
H 	H 	0.92071 0.03596 0.53565 0.15000
H 	H 	0.68980 0.00200 0.41863 0.15200
C 	C 	0.31890 0.09650 0.47866 -0.11700
C 	C 	0.28949 0.12625 0.47327 0.01000
C 	C 	0.32606 0.19000 0.46883 0.11900
C 	C 	0.39150 0.22335 0.46927 -0.03100
C 	C 	0.42074 0.19316 0.47351 -0.12300
C 	C 	0.38422 0.12951 0.47848 0.19200
C 	C 	0.21985 0.08958 0.47007 -0.01100
O 	O 	0.29801 0.21996 0.46443 -0.27200
H 	H 	0.41943 0.27258 0.46596 0.06000
O 	O 	0.41218 0.09947 0.48299 -0.29100
H 	H 	0.29083 0.04735 0.48215 0.07200
C 	C 	0.17890 0.05185 0.43428 0.13400
C 	C 	0.11292 0.01867 0.43112 -0.07500
C 	C 	0.08735 0.02229 0.46364 -0.04200
C 	C 	0.12827 0.05976 0.49951 0.15000
C 	C 	0.19436 0.09360 0.50254 -0.09000
O 	O 	0.20349 0.04887 0.40210 -0.28000
H 	H 	0.08154 0.98974 0.40346 0.06200
O 	O 	0.10379 0.06409 0.53143 -0.28300
H 	H 	0.22580 0.12290 0.53012 0.07300
H 	H 	0.40789 0.07975 0.45624 0.14200
H 	H 	0.20522 0.01245 0.40245 0.14500
H 	H 	0.09594 0.02926 0.54465 0.14700
H 	H 	0.28395 0.21266 0.43592 0.15100
C 	C 	0.86214 0.66105 0.99087 -0.11900
C 	C 	0.83102 0.68926 0.99509 0.01000
C 	C 	0.76697 0.65235 0.99976 0.12000
C 	C 	0.73421 0.58743 0.99965 -0.03400
C 	C 	0.76515 0.55898 0.99516 -0.12200
C 	C 	0.82965 0.59625 0.99117 0.19200
C 	C 	0.86545 0.75732 0.99418 -0.01000
O 	O 	0.73567 0.67921 0.00303 -0.26800
H 	H 	0.68449 0.55903 0.00253 0.06300
O 	O 	0.86076 0.56931 0.98716 -0.29500
H 	H 	0.91160 0.68943 0.98743 0.07100
C 	C 	0.89174 0.80199 0.02907 0.13700
C 	C 	0.92483 0.86659 0.02789 -0.07300
C 	C 	0.93292 0.88706 0.99207 -0.05400
C 	C 	0.90688 0.84242 0.95719 0.15600
C 	C 	0.87286 0.77774 0.95834 -0.09400
O 	O 	0.88423 0.78246 0.06427 -0.28100
H 	H 	0.94493 0.90085 0.05483 0.06500
O 	O 	0.91347 0.86185 0.92195 -0.28200
H 	H 	0.85254 0.74346 0.93139 0.07300
H 	H 	0.87987 0.57337 0.01408 0.14300
H 	H 	0.92159 0.78279 0.07249 0.14500
H 	H 	0.95335 0.86939 0.91621 0.15100
H 	H 	0.74204 0.69339 0.03141 0.15600
C 	C 	0.88305 0.23348 0.00768 -0.12300
C 	C 	0.85070 0.16762 0.00091 0.01700
C 	C 	0.78359 0.12676 0.99359 0.11300
C 	C 	0.74928 0.15192 0.99207 -0.03100
C 	C 	0.78156 0.21781 0.99702 -0.13600
C 	C 	0.84883 0.25873 0.00556 0.19700
C 	C 	0.88707 0.14147 0.99932 -0.01600
O 	O 	0.75148 0.06224 0.98811 -0.26900
H 	H 	0.69756 0.12007 0.98574 0.05400
O 	O 	0.88110 0.32332 0.01302 -0.29200
H 	H 	0.93478 0.26513 0.01388 0.07200
C 	C 	0.90402 0.13132 0.96412 0.13500
C 	C 	0.93530 0.10308 0.96223 -0.07500
C 	C 	0.95044 0.08544 0.99542 -0.05500
C 	C 	0.93533 0.09749 0.03095 0.15500
C 	C 	0.90333 0.12504 0.03271 -0.08800
O 	O 	0.88784 0.14673 0.93119 -0.28400
H 	H 	0.94694 0.09402 0.93482 0.06400
O 	O 	0.95015 0.08071 0.06367 -0.28200
H 	H 	0.89067 0.13309 0.05994 0.07400
H 	H 	0.89145 0.33679 0.98770 0.14500
H 	H 	0.92469 0.19112 0.93135 0.14200
H 	H 	0.99353 0.11839 0.07654 0.14800
H 	H 	0.74465 0.04827 0.95965 0.15000
C 	C 	0.21913 0.09538 0.94739 -0.09900
C 	C 	0.26722 0.14200 0.97849 -0.01100
C 	C 	0.25112 0.16357 0.01002 0.14200
C 	C 	0.18701 0.13629 0.01114 -0.07500
C 	C 	0.13866 0.08748 0.98092 -0.05600
C 	C 	0.15505 0.06856 0.94830 0.15400
C 	C 	0.33398 0.16589 0.97892 0.00700
O 	O 	0.29806 0.21194 0.03945 -0.27800
H 	H 	0.17479 0.15187 0.03601 0.06200
O 	O 	0.10835 0.02230 0.91795 -0.28800
H 	H 	0.23135 0.07916 0.92282 0.06700
C 	C 	0.36219 0.14647 0.00368 0.11700
C 	C 	0.42703 0.17344 0.00646 -0.03400
C 	C 	0.46389 0.21881 0.98390 -0.12500
C 	C 	0.43427 0.23454 0.95690 0.18900
C 	C 	0.36978 0.20879 0.95497 -0.11400
O 	O 	0.32700 0.10286 0.02627 -0.27900
H 	H 	0.44898 0.16030 0.02693 0.06200
O 	O 	0.46846 0.27583 0.93291 -0.28600
H 	H 	0.34777 0.22262 0.93510 0.07500
H 	H 	0.10183 0.04527 0.89970 0.14800
H 	H 	0.30867 0.06097 0.01013 0.14600
H 	H 	0.46382 0.24886 0.90915 0.14200
H 	H 	0.30374 0.19082 0.05953 0.15700
