data_crystal

_cell_length_a 18.49954
_cell_length_b 18.92588
_cell_length_c 26.60389
_cell_angle_alpha 95.42512
_cell_angle_beta  95.42651
_cell_angle_gamma 126.42440

_symmetry_space_group_name_	'P 1'
_symmetry_space_group_name_H-M	'P 1'

loop_
_symmetry_equiv_pos_as_xyz
  x,y,z

loop_
_atom_site_label
_atom_site_type_symbol
_atom_site_fract_x
_atom_site_fract_y
_atom_site_fract_z
_atom_site_charge
C 	C 	0.94457 0.03594 0.99245 0.15400
N 	N 	0.88831 0.94543 0.98531 -0.10400
C 	C 	0.92297 0.89958 0.98123 0.17600
N 	N 	0.01390 0.94395 0.98377 -0.09700
C 	C 	0.07077 0.03434 0.99095 0.17300
N 	N 	0.03635 0.08086 0.99567 -0.10000
C 	C 	0.91521 0.99638 0.46079 0.20000
N 	N 	0.86716 0.90621 0.45805 -0.11300
C 	C 	0.91314 0.87084 0.46427 0.17100
N 	N 	0.00570 0.92497 0.47191 -0.10000
C 	C 	0.05293 0.01388 0.47342 0.17100
N 	N 	0.00786 0.04956 0.46851 -0.11900
Cu	Cu	0.63163 0.23242 0.01230 0.92900
Cu	Cu	0.66407 0.18669 0.89704 0.89900
Cu	Cu	0.64848 0.34667 0.93371 0.91800
Cu	Cu	0.61528 0.38880 0.03794 0.91400
C 	C 	0.64848 0.30256 0.11792 0.30200
O 	O 	0.49643 0.16418 0.01738 -0.34100
C 	C 	0.65939 0.29839 0.83300 0.29100
O 	O 	0.68707 0.36494 0.00624 -0.63500
O 	O 	0.60211 0.22133 0.93657 -0.62800
O 	O 	0.71787 0.20014 0.01661 -0.34100
O 	O 	0.65558 0.10765 0.93848 -0.39100
O 	O 	0.63870 0.36360 0.10665 -0.34700
O 	O 	0.70297 0.47038 0.93360 -0.35500
C 	C 	0.69999 0.52044 0.96997 0.33300
C 	C 	0.45075 0.19400 0.00236 0.32600
O 	O 	0.49356 0.27201 0.98874 -0.37000
O 	O 	0.63909 0.48432 0.00005 -0.35400
O 	O 	0.67226 0.26584 0.08538 -0.34400
C 	C 	0.71199 0.14080 0.98267 0.33100
O 	O 	0.61975 0.32367 0.85955 -0.35100
O 	O 	0.71114 0.28096 0.85689 -0.39600
H 	H 	0.75385 0.41041 0.01840 0.18500
H 	H 	0.53552 0.17914 0.92325 0.18500
Cu	Cu	0.74959 0.33417 0.43940 0.92800
Cu	Cu	0.79003 0.29234 0.55504 0.89600
Cu	Cu	0.62249 0.29570 0.51532 0.91700
Cu	Cu	0.58130 0.33941 0.41617 0.91100
C 	C 	0.66567 0.30836 0.33404 0.29800
O 	O 	0.81046 0.46789 0.44036 -0.33100
C 	C 	0.67771 0.30317 0.61892 0.29100
O 	O 	0.61091 0.26934 0.44255 -0.63900
O 	O 	0.75402 0.35218 0.51512 -0.62900
O 	O 	0.78926 0.25446 0.43115 -0.33000
O 	O 	0.86842 0.29689 0.51299 -0.39100
O 	O 	0.62774 0.34511 0.35071 -0.35000
O 	O 	0.49376 0.23272 0.51359 -0.36200
C 	C 	0.43993 0.23510 0.47878 0.33600
C 	C 	0.77362 0.50509 0.45817 0.31800
O 	O 	0.69306 0.45509 0.47093 -0.36500
O 	O 	0.47355 0.29674 0.44973 -0.35600
O 	O 	0.72200 0.30366 0.36552 -0.33800
C 	C 	0.83325 0.24381 0.46796 0.32300
O 	O 	0.64470 0.33237 0.58866 -0.35000
O 	O 	0.69882 0.25279 0.59885 -0.39300
H 	H 	0.56756 0.20474 0.42750 0.18000
H 	H 	0.79245 0.41635 0.53093 0.18100
C 	C 	0.74799 0.37119 0.71067 -0.03900
C 	C 	0.66956 0.30762 0.67345 -0.08000
C 	C 	0.58534 0.24612 0.68892 0.13100
C 	C 	0.58254 0.24718 0.74159 -0.04000
C 	C 	0.66199 0.30808 0.77875 -0.08100
C 	C 	0.74466 0.37332 0.76328 0.12800
N 	N 	0.82026 0.43914 0.79859 -0.19700
H 	H 	0.81190 0.41933 0.69868 0.05400
H 	H 	0.51883 0.19862 0.75361 0.06300
N 	N 	0.50745 0.18533 0.65362 -0.19700
H 	H 	0.88190 0.48504 0.78694 0.11100
H 	H 	0.81770 0.44781 0.83755 0.11600
H 	H 	0.50705 0.18199 0.61421 0.12200
H 	H 	0.44571 0.14045 0.66549 0.11700
C 	C 	0.74409 0.36005 0.26029 -0.03100
C 	C 	0.66574 0.29593 0.27856 -0.07000
C 	C 	0.58548 0.22629 0.24323 0.12500
C 	C 	0.58337 0.22598 0.19024 -0.03200
C 	C 	0.65890 0.29514 0.17232 -0.07100
C 	C 	0.74136 0.36087 0.20744 0.13200
N 	N 	0.81787 0.42488 0.19075 -0.19600
H 	H 	0.80653 0.41144 0.28741 0.08100
H 	H 	0.52215 0.17272 0.16301 0.07700
N 	N 	0.51071 0.15949 0.25983 -0.19700
H 	H 	0.87773 0.47448 0.21708 0.12000
H 	H 	0.81945 0.42502 0.15164 0.11900
H 	H 	0.51180 0.15525 0.29871 0.10700
H 	H 	0.45091 0.10958 0.23355 0.12100
C 	C 	0.84149 0.71856 0.41469 0.07900
C 	C 	0.86358 0.77371 0.46194 -0.03700
C 	C 	0.86027 0.74154 0.50797 0.07900
C 	C 	0.84001 0.65676 0.50704 0.11600
C 	C 	0.81833 0.60157 0.45980 -0.10800
C 	C 	0.82044 0.63337 0.41360 0.11300
Br	Br	0.79466 0.56058 0.34879 -0.17800
Br	Br	0.84120 0.76051 0.35142 -0.12600
Br	Br	0.84431 0.61698 0.57063 -0.18500
Br	Br	0.88462 0.81451 0.57244 -0.12700
C 	C 	0.87641 0.15717 0.41921 0.11700
C 	C 	0.83723 0.16725 0.45963 -0.11600
C 	C 	0.80342 0.10485 0.49299 0.11500
C 	C 	0.82264 0.04283 0.49141 0.07100
C 	C 	0.86778 0.03713 0.45324 -0.05700
C 	C 	0.88673 0.08880 0.41452 0.08200
Br	Br	0.92760 0.06603 0.35538 -0.14200
Br	Br	0.92125 0.23992 0.37230 -0.15300
Br	Br	0.79166 0.96954 0.54320 -0.11100
Br	Br	0.72506 0.09948 0.53785 -0.27000
C 	C 	0.28059 0.11570 0.43310 0.12200
C 	C 	0.34122 0.17770 0.47802 -0.11600
C 	C 	0.30700 0.18563 0.52164 0.11900
C 	C 	0.21228 0.12998 0.52056 0.07800
C 	C 	0.15175 0.06990 0.47514 -0.03700
C 	C 	0.18584 0.06379 0.43116 0.06500
Br	Br	0.10248 0.98660 0.36773 -0.08200
Br	Br	0.32768 0.09983 0.37484 -0.21000
Br	Br	0.16523 0.13447 0.58152 -0.13600
Br	Br	0.38942 0.27544 0.58189 -0.15400
C 	C 	0.87052 0.76776 0.02156 0.08200
C 	C 	0.86351 0.80292 0.97870 -0.04100
C 	C 	0.80161 0.74535 0.93303 0.08100
C 	C 	0.74595 0.65240 0.93043 0.12000
C 	C 	0.75639 0.61720 0.97250 -0.11400
C 	C 	0.81956 0.67501 0.01782 0.11800
Br	Br	0.83898 0.62693 0.07394 -0.20700
Br	Br	0.94768 0.84690 0.08595 -0.12300
Br	Br	0.65257 0.57368 0.87040 -0.14400
Br	Br	0.79524 0.79396 0.87364 -0.12800
C 	C 	0.85504 0.07279 0.03658 0.07700
C 	C 	0.90543 0.08457 0.99739 -0.03600
C 	C 	0.90202 0.12700 0.95750 0.07800
C 	C 	0.84371 0.15181 0.95509 0.11900
C 	C 	0.78268 0.12684 0.98976 -0.12000
C 	C 	0.79068 0.09009 0.03165 0.12100
Br	Br	0.71080 0.05954 0.08080 -0.15800
Br	Br	0.87461 0.03295 0.09692 -0.13600
Br	Br	0.85246 0.22551 0.90699 -0.25900
Br	Br	0.97286 0.14625 0.90443 -0.14700
C 	C 	0.29064 0.09666 0.95389 0.12000
C 	C 	0.35168 0.14128 0.00142 -0.11300
C 	C 	0.32053 0.15373 0.04537 0.11600
C 	C 	0.22903 0.12189 0.04165 0.08000
C 	C 	0.16945 0.08108 0.99360 -0.03700
C 	C 	0.20103 0.07023 0.94955 0.07900
Br	Br	0.12183 0.02112 0.88303 -0.12900
Br	Br	0.33001 0.07188 0.89469 -0.20000
Br	Br	0.18456 0.13202 0.10261 -0.12300
Br	Br	0.40448 0.21875 0.11003 -0.19700
