data_crystal

_cell_length_a 27.69317
_cell_length_b 28.21636
_cell_length_c 26.45944
_cell_angle_alpha 95.51101
_cell_angle_beta  95.51204
_cell_angle_gamma 125.66443

_symmetry_space_group_name_	'P 1'
_symmetry_space_group_name_H-M	'P 1'

loop_
_symmetry_equiv_pos_as_xyz
  x,y,z

loop_
_atom_site_label
_atom_site_type_symbol
_atom_site_fract_x
_atom_site_fract_y
_atom_site_fract_z
_atom_site_charge
C 	C 	0.03497 0.06163 0.98814 -0.09300
C 	C 	0.06034 0.03112 0.98130 0.05700
H 	H 	0.06131 0.10857 0.98665 0.05900
C 	C 	0.02837 0.00747 0.44217 0.04400
C 	C 	0.99790 0.03297 0.43603 -0.07600
H 	H 	0.02295 0.07956 0.43341 0.05300
Cu	Cu	0.64744 0.25052 0.00045 0.93000
Cu	Cu	0.70815 0.26061 0.89762 0.87500
Cu	Cu	0.68895 0.34920 0.93774 0.90000
Cu	Cu	0.64291 0.35769 0.03363 0.89800
C 	C 	0.65367 0.28918 0.10688 0.30700
O 	O 	0.55780 0.21359 0.99185 -0.35700
C 	C 	0.67853 0.31327 0.82601 0.30600
O 	O 	0.69564 0.34326 0.00918 -0.64000
O 	O 	0.64788 0.26169 0.92778 -0.63900
O 	O 	0.68646 0.20938 0.00079 -0.36600
O 	O 	0.75926 0.27480 0.95925 -0.43600
O 	O 	0.62599 0.31202 0.09099 -0.37800
O 	O 	0.73298 0.43454 0.95244 -0.37700
C 	C 	0.72375 0.46417 0.98692 0.31300
C 	C 	0.53575 0.23943 0.97145 0.30400
O 	O 	0.57230 0.29551 0.96792 -0.38900
O 	O 	0.67998 0.43700 0.01376 -0.39000
O 	O 	0.65947 0.25534 0.07387 -0.34600
C 	C 	0.73997 0.23432 0.98828 0.31500
O 	O 	0.69675 0.35660 0.86501 -0.38000
O 	O 	0.67621 0.26647 0.83335 -0.40200
H 	H 	0.73757 0.36868 0.02917 0.17800
H 	H 	0.60761 0.23781 0.90489 0.18400
Cu	Cu	0.73210 0.33884 0.43234 0.92900
Cu	Cu	0.73333 0.29190 0.54092 0.87500
Cu	Cu	0.63777 0.30386 0.50130 0.90000
Cu	Cu	0.61852 0.33748 0.40102 0.90200
C 	C 	0.68143 0.31881 0.32581 0.30600
O 	O 	0.76728 0.42577 0.43434 -0.35600
C 	C 	0.68255 0.32331 0.61349 0.30500
O 	O 	0.63803 0.29051 0.42900 -0.63800
O 	O 	0.72688 0.34583 0.50648 -0.64000
O 	O 	0.77488 0.30122 0.43325 -0.36700
O 	O 	0.71409 0.23589 0.48210 -0.43800
O 	O 	0.65885 0.34711 0.34027 -0.36900
O 	O 	0.55058 0.25857 0.49124 -0.37600
C 	C 	0.51680 0.26220 0.45542 0.31200
C 	C 	0.74110 0.44825 0.45350 0.30300
O 	O 	0.68556 0.41274 0.46126 -0.38900
O 	O 	0.54087 0.30317 0.42631 -0.38400
O 	O 	0.72127 0.31977 0.35861 -0.35300
C 	C 	0.75155 0.25094 0.44977 0.31000
O 	O 	0.63641 0.30364 0.57584 -0.37900
O 	O 	0.73128 0.32878 0.60403 -0.40100
H 	H 	0.61203 0.24814 0.41202 0.17700
H 	H 	0.75159 0.38693 0.52648 0.18400
C 	C 	0.72038 0.37355 0.75799 -0.03900
C 	C 	0.67218 0.32264 0.77274 -0.08700
C 	C 	0.62196 0.27747 0.73486 0.12400
C 	C 	0.62350 0.28036 0.68249 -0.04000
C 	C 	0.67470 0.32827 0.66754 -0.08600
C 	C 	0.72168 0.37670 0.70561 0.12400
Br	Br	0.78732 0.44778 0.68685 -0.24500
H 	H 	0.75812 0.40956 0.78709 0.06700
H 	H 	0.58610 0.24397 0.65339 0.06700
Br	Br	0.55077 0.21180 0.75396 -0.25000
C 	C 	0.72665 0.33022 0.24707 -0.03200
C 	C 	0.67531 0.30100 0.27016 -0.08200
C 	C 	0.61754 0.26090 0.23882 0.12300
C 	C 	0.61115 0.25440 0.18502 -0.03300
C 	C 	0.66207 0.28730 0.16207 -0.08100
C 	C 	0.72023 0.32354 0.19317 0.12100
Br	Br	0.79116 0.36657 0.16284 -0.25200
H 	H 	0.77134 0.36035 0.27100 0.07200
H 	H 	0.56638 0.22518 0.16108 0.07000
Br	Br	0.54683 0.21488 0.26893 -0.26900
C 	C 	0.80918 0.62134 0.45419 -0.00700
C 	C 	0.81370 0.69372 0.40800 -0.04500
C 	C 	0.79315 0.63536 0.40918 -0.02600
C 	C 	0.78748 0.56106 0.45533 0.05100
C 	C 	0.76765 0.50997 0.45520 -0.10300
H 	H 	0.76506 0.60117 0.37503 0.04200
C 	C 	0.80986 0.14889 0.42266 -0.01000
C 	C 	0.77509 0.09125 0.43338 -0.02600
C 	C 	0.79769 0.05795 0.43231 -0.04600
C 	C 	0.78979 0.18568 0.42997 0.05100
C 	C 	0.77269 0.21600 0.43787 -0.11300
H 	H 	0.73127 0.07280 0.44376 0.04000
H 	H 	0.77113 0.01397 0.44178 0.04500
C 	C 	0.21096 0.10525 0.44990 0.02300
C 	C 	0.24346 0.08876 0.47687 -0.04500
C 	C 	0.30571 0.12050 0.47844 -0.02500
C 	C 	0.33566 0.16882 0.45304 -0.00700
C 	C 	0.30321 0.18549 0.42628 -0.02600
C 	C 	0.24096 0.15375 0.42471 -0.04500
C 	C 	0.14667 0.07161 0.44718 -0.01100
C 	C 	0.09277 0.04281 0.44488 -0.02400
C 	C 	0.39959 0.20119 0.45423 0.05200
C 	C 	0.45313 0.22871 0.45495 -0.09900
H 	H 	0.22051 0.05125 0.49639 0.04600
H 	H 	0.33055 0.10743 0.49925 0.04400
H 	H 	0.32612 0.22286 0.40660 0.04300
H 	H 	0.21608 0.16669 0.40375 0.04500
C 	C 	0.81129 0.64162 0.99232 -0.00600
C 	C 	0.86369 0.68319 0.02937 -0.02700
C 	C 	0.78853 0.66100 0.95685 -0.02600
C 	C 	0.78097 0.57910 0.99058 0.05200
C 	C 	0.75519 0.52667 0.98897 -0.10100
H 	H 	0.88142 0.66849 0.05700 0.04200
H 	H 	0.74793 0.62907 0.92820 0.04400
C 	C 	0.83417 0.16629 0.01190 -0.00800
C 	C 	0.80488 0.10775 0.01970 -0.02700
C 	C 	0.83539 0.08202 0.01968 -0.04500
C 	C 	0.80066 0.19033 0.00560 0.05000
C 	C 	0.77274 0.21037 0.99869 -0.11000
H 	H 	0.75811 0.08174 0.02456 0.04300
H 	H 	0.81207 0.03634 0.02470 0.04500
C 	C 	0.23401 0.11222 0.95939 0.02200
C 	C 	0.27757 0.17395 0.97233 -0.04500
C 	C 	0.33819 0.19926 0.97041 -0.02600
C 	C 	0.35548 0.16290 0.95561 -0.00700
C 	C 	0.31162 0.10132 0.94116 -0.02500
C 	C 	0.25100 0.07603 0.94300 -0.04400
C 	C 	0.17288 0.08559 0.96653 -0.00800
C 	C 	0.12164 0.06184 0.97308 -0.02900
C 	C 	0.41862 0.18836 0.95930 0.05200
C 	C 	0.47188 0.21080 0.96392 -0.10300
H 	H 	0.26476 0.20221 0.98494 0.04500
H 	H 	0.37186 0.24693 0.98157 0.04100
H 	H 	0.32463 0.07294 0.92963 0.04400
H 	H 	0.21751 0.02824 0.93285 0.04600
C 	C 	0.97541 0.03131 0.99684 0.06000
C 	C 	0.84504 0.66575 0.49831 -0.02600
H 	H 	0.85726 0.65518 0.53336 0.04400
C 	C 	0.85510 0.08211 0.42046 0.02300
C 	C 	0.88904 0.13902 0.40814 -0.04600
C 	C 	0.86649 0.17235 0.40928 -0.02600
C 	C 	0.88103 0.05041 0.42439 -0.01100
C 	C 	0.90448 0.02556 0.42830 -0.02500
H 	H 	0.93343 0.15796 0.39884 0.04600
H 	H 	0.89364 0.21684 0.40096 0.04300
C 	C 	0.89530 0.11471 0.01180 0.02100
C 	C 	0.92517 0.17381 0.00554 -0.04600
C 	C 	0.89467 0.19956 0.00560 -0.02800
C 	C 	0.92480 0.08650 0.00715 -0.00800
C 	C 	0.94851 0.06196 0.00266 -0.03000
H 	H 	0.97154 0.19941 0.99959 0.04600
H 	H 	0.91761 0.24484 0.99953 0.04200
H 	H 	0.80194 0.70437 0.37278 0.04600
C 	C 	0.86562 0.72414 0.49713 -0.04500
C 	C 	0.81844 0.72175 0.95806 -0.04500
H 	H 	0.80095 0.73644 0.93019 0.04600
C 	C 	0.85029 0.73832 0.45186 0.02200
C 	C 	0.89360 0.74394 0.03057 -0.04600
C 	C 	0.02626 0.97053 0.98316 -0.09200
H 	H 	0.04594 0.94696 0.97788 0.06000
C 	C 	0.99619 0.94747 0.44569 -0.07700
H 	H 	0.01990 0.92778 0.45039 0.05400
C 	C 	0.96691 0.94029 0.99186 0.06000
C 	C 	0.94146 0.97064 0.99873 -0.08900
H 	H 	0.89535 0.94712 0.00529 0.05800
C 	C 	0.93513 0.99846 0.43349 0.04800
C 	C 	0.90278 0.93817 0.43699 -0.08200
C 	C 	0.93349 0.91272 0.44308 0.04900
H 	H 	0.85421 0.91136 0.43506 0.05700
C 	C 	0.87677 0.79939 0.44891 -0.01000
C 	C 	0.90106 0.85084 0.44625 -0.02500
H 	H 	0.89419 0.75845 0.53110 0.04700
C 	C 	0.87119 0.76333 0.99476 0.02300
C 	C 	0.90389 0.82570 0.99412 -0.00800
C 	C 	0.93208 0.87794 0.99327 -0.02800
H 	H 	0.93444 0.77587 0.05899 0.04600
