data_crystal

_cell_length_a 18.55516
_cell_length_b 18.77368
_cell_length_c 34.67506
_cell_angle_alpha 95.44532
_cell_angle_beta  95.44601
_cell_angle_gamma 126.41531

_symmetry_space_group_name_	'P 1'
_symmetry_space_group_name_H-M	'P 1'

loop_
_symmetry_equiv_pos_as_xyz
  x,y,z

loop_
_atom_site_label
_atom_site_type_symbol
_atom_site_fract_x
_atom_site_fract_y
_atom_site_fract_z
_atom_site_charge
C 	C 	0.90533 0.99779 0.96327 0.12700
N 	N 	0.99560 0.04844 0.96212 -0.14100
C 	C 	0.03860 0.01012 0.96139 0.12200
N 	N 	0.99102 0.92064 0.96078 -0.13600
C 	C 	0.90059 0.86915 0.96140 0.12200
N 	N 	0.85755 0.90783 0.96322 -0.13600
C 	C 	0.95159 0.03901 0.49820 0.11300
N 	N 	0.04151 0.08821 0.49602 -0.13500
C 	C 	0.08312 0.04821 0.49559 0.11600
N 	N 	0.03506 0.95963 0.49755 -0.13200
C 	C 	0.94566 0.91089 0.50001 0.11900
N 	N 	0.90390 0.95045 0.50016 -0.13500
Cu	Cu	0.75344 0.34230 0.95882 0.92700
Cu	Cu	0.75268 0.28948 0.04657 0.87300
Cu	Cu	0.60756 0.29572 0.00818 0.89500
Cu	Cu	0.57937 0.32697 0.92663 0.89600
C 	C 	0.68295 0.29786 0.87549 0.27800
O 	O 	0.80163 0.47107 0.95451 -0.35700
C 	C 	0.66969 0.34003 0.09541 0.27800
O 	O 	0.61101 0.26494 0.95434 -0.63700
O 	O 	0.74234 0.36244 0.01435 -0.64300
O 	O 	0.81894 0.28809 0.96615 -0.36800
O 	O 	0.72578 0.19782 0.00585 -0.44000
O 	O 	0.64464 0.33753 0.88241 -0.38200
O 	O 	0.47606 0.22344 0.99892 -0.38000
C 	C 	0.42460 0.21873 0.96816 0.29600
C 	C 	0.75863 0.50332 0.96569 0.28600
O 	O 	0.67418 0.44787 0.97056 -0.39100
O 	O 	0.46011 0.27452 0.94315 -0.39000
O 	O 	0.74097 0.30421 0.90357 -0.35900
C 	C 	0.78381 0.21618 0.98241 0.29700
O 	O 	0.60271 0.30797 0.06506 -0.38300
O 	O 	0.74580 0.35245 0.09071 -0.41500
H 	H 	0.57371 0.19937 0.94398 0.16400
H 	H 	0.77795 0.42642 0.02732 0.17400
Cu	Cu	0.61463 0.20142 0.50582 0.92700
Cu	Cu	0.67376 0.20995 0.41917 0.87100
Cu	Cu	0.67673 0.35598 0.46173 0.89800
Cu	Cu	0.64259 0.37695 0.54336 0.89700
C 	C 	0.64755 0.25345 0.59015 0.28000
O 	O 	0.48686 0.16126 0.50911 -0.36100
C 	C 	0.63576 0.30619 0.37404 0.27900
O 	O 	0.70143 0.34267 0.51449 -0.63900
O 	O 	0.60139 0.22187 0.45160 -0.64200
O 	O 	0.66170 0.13072 0.49598 -0.37100
O 	O 	0.76128 0.22736 0.45985 -0.44000
O 	O 	0.61738 0.30069 0.58422 -0.38100
O 	O 	0.75558 0.48557 0.47506 -0.38500
C 	C 	0.74753 0.53368 0.50208 0.29700
C 	C 	0.46057 0.20989 0.49950 0.28500
O 	O 	0.52162 0.29494 0.49765 -0.39100
O 	O 	0.71183 0.50266 0.53338 -0.39100
O 	O 	0.64722 0.20376 0.56039 -0.35800
C 	C 	0.73738 0.16655 0.48197 0.29100
O 	O 	0.67168 0.37011 0.40581 -0.38400
O 	O 	0.61725 0.22742 0.37630 -0.41800
H 	H 	0.76684 0.37473 0.52538 0.16700
H 	H 	0.53791 0.19151 0.43803 0.17200
C 	C 	0.83212 0.34048 0.72129 -0.04200
C 	C 	0.83712 0.34703 0.76219 -0.04100
C 	C 	0.75707 0.29872 0.77793 0.01700
C 	C 	0.67160 0.24013 0.75229 -0.00800
C 	C 	0.66659 0.23329 0.71113 -0.00800
C 	C 	0.74701 0.28544 0.69563 0.01700
C 	C 	0.58082 0.17815 0.68561 0.01700
C 	C 	0.50101 0.12707 0.70127 -0.04200
C 	C 	0.50597 0.13407 0.74213 -0.04300
C 	C 	0.59083 0.19212 0.76784 0.01700
C 	C 	0.59561 0.20630 0.80876 -0.02900
C 	C 	0.68024 0.26844 0.83419 -0.05600
C 	C 	0.76106 0.31186 0.81890 -0.02300
C 	C 	0.74092 0.28567 0.65492 -0.02900
C 	C 	0.65521 0.23526 0.62994 -0.05400
C 	C 	0.57568 0.17872 0.64503 -0.02300
H 	H 	0.89438 0.37981 0.70966 0.03900
H 	H 	0.90319 0.39128 0.78161 0.04100
H 	H 	0.43488 0.08356 0.68186 0.04000
H 	H 	0.44362 0.09585 0.75378 0.03900
H 	H 	0.53346 0.17210 0.82075 0.03200
H 	H 	0.82639 0.35942 0.83865 0.04900
H 	H 	0.80225 0.32846 0.64302 0.03400
H 	H 	0.50967 0.13918 0.62548 0.04500
C 	C 	0.48219 0.21154 0.19640 -0.04400
C 	C 	0.47721 0.20652 0.23620 -0.04300
C 	C 	0.55215 0.27300 0.26586 0.01400
C 	C 	0.63104 0.34738 0.25549 -0.00900
C 	C 	0.63645 0.35192 0.21541 -0.00900
C 	C 	0.56237 0.28281 0.18577 0.01600
C 	C 	0.71765 0.42308 0.20499 0.01500
C 	C 	0.79091 0.49191 0.23469 -0.04300
C 	C 	0.78520 0.48788 0.27451 -0.04300
C 	C 	0.70640 0.41469 0.28513 0.01500
C 	C 	0.70399 0.40523 0.32479 -0.02900
C 	C 	0.62830 0.32756 0.33478 -0.06200
C 	C 	0.55109 0.26355 0.30554 -0.02600
C 	C 	0.57112 0.28331 0.14600 -0.02900
C 	C 	0.65418 0.35074 0.13576 -0.06100
C 	C 	0.72612 0.42223 0.16514 -0.02700
H 	H 	0.42443 0.15876 0.17386 0.03900
H 	H 	0.41573 0.14986 0.24389 0.03800
H 	H 	0.85305 0.54764 0.22699 0.03800
H 	H 	0.84301 0.54058 0.29706 0.03800
H 	H 	0.76306 0.45520 0.34751 0.04000
H 	H 	0.49201 0.20455 0.31346 0.03900
H 	H 	0.51531 0.22868 0.12324 0.04400
H 	H 	0.78952 0.47524 0.15710 0.04100
C 	C 	0.89347 0.81477 0.50119 -0.01400
C 	C 	0.82736 0.75119 0.46838 -0.05400
C 	C 	0.77839 0.65899 0.46841 0.05100
C 	C 	0.79597 0.62997 0.50165 -0.08700
C 	C 	0.86112 0.69374 0.53472 -0.00800
C 	C 	0.90977 0.78583 0.53468 0.00900
S 	S 	0.69344 0.58081 0.42725 -0.04800
S 	S 	0.98933 0.86419 0.57707 -0.03500
H 	H 	0.94685 0.88436 0.60109 0.03800
H 	H 	0.73105 0.55896 0.40093 0.04700
H 	H 	0.81430 0.77356 0.44274 0.05000
H 	H 	0.87442 0.67159 0.56037 0.03900
C 	C 	0.78962 0.13109 0.48676 -0.09400
C 	C 	0.80574 0.09906 0.45299 -0.00900
C 	C 	0.86244 0.07308 0.45642 0.00800
C 	C 	0.90333 0.07846 0.49403 -0.01300
C 	C 	0.88773 0.11083 0.52785 -0.05600
C 	C 	0.83138 0.13745 0.52446 0.05000
S 	S 	0.88106 0.03306 0.41339 -0.04700
S 	S 	0.81545 0.18031 0.56752 -0.03300
H 	H 	0.87875 0.27227 0.57619 0.03200
H 	H 	0.81898 0.94100 0.40418 0.04000
H 	H 	0.77452 0.09494 0.42396 0.01800
H 	H 	0.91850 0.11420 0.55683 0.05000
C 	C 	0.18068 0.10091 0.49414 -0.01200
C 	C 	0.24494 0.15826 0.52849 -0.05600
C 	C 	0.33667 0.19442 0.53054 0.05400
C 	C 	0.36489 0.17393 0.49767 -0.08900
C 	C 	0.30139 0.11975 0.46274 -0.00900
C 	C 	0.20958 0.08356 0.46073 0.01000
S 	S 	0.41479 0.26248 0.57486 -0.06700
S 	S 	0.13156 0.01721 0.41620 -0.04400
H 	H 	0.09269 0.92834 0.41634 0.04300
H 	H 	0.42018 0.20963 0.59778 0.04600
H 	H 	0.22288 0.17170 0.55422 0.05200
H 	H 	0.32330 0.10545 0.43718 0.03100
C 	C 	0.85034 0.77184 0.96059 -0.01600
C 	C 	0.83067 0.73936 0.99591 -0.04800
C 	C 	0.80531 0.65341 0.99855 0.05300
C 	C 	0.79803 0.59837 0.96531 -0.08700
C 	C 	0.81558 0.63007 0.92975 -0.01200
C 	C 	0.84054 0.71577 0.92710 0.01100
S 	S 	0.78719 0.61728 0.04412 -0.06600
S 	S 	0.85868 0.75202 0.88157 -0.03500
H 	H 	0.94912 0.79822 0.87960 0.03900
H 	H 	0.69673 0.57086 0.04609 0.04000
H 	H 	0.83926 0.78260 0.02189 0.04700
H 	H 	0.80753 0.58708 0.90382 0.04400
C 	C 	0.81567 0.16064 0.97744 -0.09100
C 	C 	0.79491 0.10908 0.94031 -0.00400
C 	C 	0.81787 0.05009 0.93578 0.00200
C 	C 	0.86237 0.04260 0.96866 -0.01100
C 	C 	0.88163 0.09302 0.00584 -0.06300
C 	C 	0.85959 0.15255 0.01036 0.05400
S 	S 	0.79157 0.98684 0.88877 -0.02300
S 	S 	0.89207 0.22027 0.05692 -0.11000
H 	H 	0.97747 0.29960 0.05993 0.03500
H 	H 	0.86432 0.03375 0.87014 0.03400
H 	H 	0.76015 0.11417 0.91503 0.04000
H 	H 	0.91748 0.08885 0.03103 0.05100
C 	C 	0.13724 0.06588 0.96286 -0.01500
C 	C 	0.17054 0.05076 0.93097 -0.05500
C 	C 	0.26439 0.09919 0.93263 0.05200
C 	C 	0.32585 0.16393 0.96651 -0.08900
C 	C 	0.29252 0.17865 0.99852 -0.00100
C 	C 	0.19868 0.12984 0.99695 0.01300
S 	S 	0.30394 0.07562 0.89280 -0.06800
S 	S 	0.15895 0.14745 0.03827 -0.04300
H 	H 	0.14554 0.21084 0.03402 0.03800
H 	H 	0.31289 0.01005 0.89910 0.03400
H 	H 	0.12324 0.00052 0.90501 0.05000
H 	H 	0.33975 0.22848 0.02459 0.04000
