data_crystal

_cell_length_a 19.02273
_cell_length_b 15.64358
_cell_length_c 46.66685
_cell_angle_alpha 90.75433
_cell_angle_beta  90.82590
_cell_angle_gamma 112.66750

_symmetry_space_group_name_	'P 1'
_symmetry_space_group_name_H-M	'P 1'

loop_
_symmetry_equiv_pos_as_xyz
  x,y,z

loop_
_atom_site_label
_atom_site_type_symbol
_atom_site_fract_x
_atom_site_fract_y
_atom_site_fract_z
_atom_site_charge
C 	C 	0.88554 0.38197 0.03390 -0.04100
H 	H 	0.84690 0.31104 0.02947 0.03900
O 	O 	0.32661 0.70568 0.13904 -0.70400
O 	O 	0.47951 0.68634 0.14908 -0.36800
O 	O 	0.37399 0.55405 0.14705 -0.41800
O 	O 	0.47134 0.86354 0.13799 -0.37000
Ni	Ni	0.28501 0.57566 0.12692 1.07100
O 	O 	0.20541 0.50934 0.15706 -0.39900
O 	O 	0.15074 0.64881 0.13965 -0.37400
H 	H 	0.33410 0.74302 0.12158 0.15300
O 	O 	0.38521 0.93235 0.14034 -0.41500
C 	C 	0.44356 0.60213 0.13861 0.27700
C 	C 	0.15013 0.62086 0.11267 0.28500
C 	C 	0.43730 0.91406 0.12632 0.28200
O 	O 	0.20483 0.59708 0.10246 -0.41300
C 	C 	0.94121 0.54466 0.02045 0.00500
C 	C 	0.89097 0.45182 0.01448 0.00800
C 	C 	0.93240 0.40213 0.05836 -0.03900
C 	C 	0.98220 0.49341 0.06470 0.00900
C 	C 	0.98257 0.56641 0.04699 0.00600
C 	C 	0.02398 0.65875 0.05640 -0.05000
C 	C 	0.07501 0.67701 0.07968 0.00400
C 	C 	0.08261 0.60383 0.09456 -0.06900
C 	C 	0.03309 0.51255 0.08819 -0.01300
H 	H 	0.93009 0.34647 0.07239 0.04100
H 	H 	0.01548 0.71605 0.04640 0.04200
H 	H 	0.11049 0.74806 0.08555 0.02800
H 	H 	0.03691 0.45624 0.10059 0.04200
C 	C 	0.46107 0.95532 0.09794 -0.07300
C 	C 	0.45458 0.03913 0.09122 0.00400
C 	C 	0.47461 0.07757 0.06424 -0.05200
C 	C 	0.50501 0.03471 0.04373 0.00600
C 	C 	0.50715 0.94720 0.04986 0.00800
C 	C 	0.48712 0.90923 0.07719 -0.01900
C 	C 	0.52594 0.89675 0.02827 -0.04100
C 	C 	0.52822 0.07382 0.01635 0.00600
C 	C 	0.54092 0.16698 0.01073 -0.05300
H 	H 	0.43271 0.07405 0.10680 0.03400
H 	H 	0.46236 0.13754 0.05898 0.04200
H 	H 	0.48965 0.84277 0.08197 0.03600
H 	H 	0.52711 0.82949 0.03276 0.03500
H 	H 	0.54409 0.21544 0.02791 0.04100
C 	C 	0.46834 0.57756 0.11099 -0.09400
C 	C 	0.51864 0.64754 0.09405 -0.00000
C 	C 	0.52892 0.62937 0.06545 -0.05700
C 	C 	0.48767 0.54102 0.05316 0.00100
C 	C 	0.44660 0.46740 0.07131 0.00400
C 	C 	0.43559 0.48641 0.10001 -0.03100
C 	C 	0.41768 0.37589 0.06062 -0.04300
C 	C 	0.42808 0.35721 0.03201 -0.04300
C 	C 	0.46268 0.43012 0.01318 0.00700
C 	C 	0.48927 0.52305 0.02336 0.00200
H 	H 	0.54827 0.71695 0.10280 0.04300
H 	H 	0.57072 0.68312 0.05333 0.04000
H 	H 	0.40050 0.43101 0.11356 0.03300
H 	H 	0.38814 0.31894 0.07459 0.03600
H 	H 	0.40749 0.28591 0.02431 0.04000
H 	H 	0.52192 0.66562 0.00979 0.03800
C 	C 	0.51226 0.59524 0.00338 -0.05500
Ni	Ni	0.41957 0.75828 0.16634 1.10100
Ni	Ni	0.24817 0.72797 0.16253 1.09900
O 	O 	0.49758 0.96195 0.18782 -0.40700
O 	O 	0.34516 0.79795 0.18627 -0.70600
O 	O 	0.50729 0.82089 0.19421 -0.38400
O 	O 	0.18746 0.78264 0.18756 -0.36700
O 	O 	0.27205 0.93131 0.18033 -0.41100
Ni	Ni	0.38211 0.93198 0.18394 1.06400
H 	H 	0.34063 0.77872 0.20652 0.15700
C 	C 	0.20755 0.53573 0.18399 0.32300
C 	C 	0.21238 0.87224 0.19352 0.29300
C 	C 	0.52992 0.91004 0.20048 0.30100
O 	O 	0.23052 0.62384 0.19126 -0.39300
H 	H 	0.94978 0.10141 0.22857 0.04800
C 	C 	0.13058 0.40750 0.22070 0.06900
C 	C 	0.16700 0.46730 0.20452 -0.11100
C 	C 	0.60432 0.95495 0.21329 -0.11000
C 	C 	0.66748 0.98721 0.22385 0.06600
C 	C 	0.16274 0.90721 0.20811 -0.11300
C 	C 	0.12079 0.93607 0.22040 0.06400
C 	C 	0.04572 0.27070 0.25249 0.00900
C 	C 	0.03097 0.99779 0.24831 0.00900
C 	C 	0.04343 0.26340 0.31552 0.01100
C 	C 	0.03081 0.99065 0.31015 0.00900
Ni	Ni	0.25431 0.73768 0.40150 1.09900
O 	O 	0.34595 0.78906 0.37500 -0.70200
Ni	Ni	0.42339 0.75550 0.39610 1.10100
O 	O 	0.18981 0.78445 0.37519 -0.36500
O 	O 	0.28127 0.93183 0.37469 -0.40900
O 	O 	0.22439 0.62161 0.37579 -0.39300
Ni	Ni	0.38770 0.92290 0.37105 1.06500
O 	O 	0.40007 0.94939 0.41411 -0.40900
O 	O 	0.50649 0.80079 0.36655 -0.38200
O 	O 	0.33632 0.71971 0.42476 -0.70100
O 	O 	0.16157 0.67489 0.42750 -0.36900
O 	O 	0.48318 0.68959 0.41747 -0.36500
O 	O 	0.37491 0.56162 0.41901 -0.42000
Ni	Ni	0.29431 0.59518 0.44015 1.07300
H 	H 	0.33530 0.75835 0.35584 0.15500
H 	H 	0.34927 0.76352 0.44129 0.15400
C 	C 	0.44794 0.92794 0.43010 0.28300
O 	O 	0.20595 0.52198 0.41275 -0.40400
C 	C 	0.21652 0.86869 0.36472 0.29400
C 	C 	0.53040 0.88669 0.35738 0.29900
C 	C 	0.20437 0.53725 0.38525 0.32600
C 	C 	0.44619 0.60592 0.42723 0.27400
O 	O 	0.48117 0.87456 0.41985 -0.37100
O 	O 	0.50153 0.94578 0.36761 -0.40500
C 	C 	0.95010 0.09871 0.25238 -0.04000
C 	C 	0.94956 0.09141 0.30951 -0.04100
H 	H 	0.94899 0.08841 0.33331 0.04800
C 	C 	0.98351 0.03183 0.26514 0.00100
C 	C 	0.99625 0.19098 0.26796 0.00100
C 	C 	0.87127 0.06876 0.26585 0.00200
C 	C 	0.98322 0.02810 0.29450 0.00100
C 	C 	0.99594 0.18721 0.29727 0.00000
C 	C 	0.87089 0.06456 0.29499 0.00200
C 	C 	0.08563 0.33485 0.23843 -0.03400
C 	C 	0.74081 0.01954 0.23673 -0.03400
C 	C 	0.80173 0.04349 0.24896 0.00900
C 	C 	0.07190 0.96945 0.23513 -0.03500
C 	C 	0.80053 0.02698 0.31062 0.00800
C 	C 	0.73946 0.99479 0.32197 -0.03100
C 	C 	0.66643 0.95670 0.33415 0.06400
C 	C 	0.60395 0.92440 0.34442 -0.10600
C 	C 	0.16255 0.46140 0.36624 -0.11600
C 	C 	0.12611 0.39874 0.35010 0.07200
C 	C 	0.08209 0.32593 0.33128 -0.03600
C 	C 	0.07197 0.96065 0.32272 -0.03400
C 	C 	0.12152 0.92693 0.33717 0.06400
C 	C 	0.16461 0.89951 0.34957 -0.11100
H 	H 	0.40875 0.43352 0.44776 0.03100
C 	C 	0.47119 0.58026 0.45480 -0.09100
C 	C 	0.54047 0.93097 0.00052 -0.04100
C 	C 	0.01203 0.98688 0.75239 -0.04100
H 	H 	0.01407 0.99573 0.72877 0.04800
C 	C 	0.00797 0.96568 0.80911 -0.04000
H 	H 	0.00673 0.95696 0.83274 0.04800
C 	C 	0.06502 0.64399 0.52289 0.00900
C 	C 	0.00359 0.55709 0.51938 0.00700
H 	H 	0.93230 0.45880 0.48710 0.04500
Ni	Ni	0.70960 0.33994 0.90002 1.10000
O 	O 	0.61555 0.29721 0.87287 -0.70000
Ni	Ni	0.54250 0.32825 0.89778 1.09800
O 	O 	0.76907 0.26824 0.88157 -0.36500
O 	O 	0.67579 0.16780 0.85201 -0.41700
O 	O 	0.76690 0.45058 0.87414 -0.36600
Ni	Ni	0.57294 0.16211 0.86792 1.06600
O 	O 	0.79365 0.53468 0.92845 -0.40700
O 	O 	0.59424 0.14694 0.91039 -0.42100
O 	O 	0.44712 0.26872 0.87273 -0.38900
O 	O 	0.63981 0.38297 0.92232 -0.70500
O 	O 	0.79806 0.39049 0.92874 -0.36900
O 	O 	0.48407 0.38152 0.92432 -0.36400
O 	O 	0.57593 0.52650 0.92250 -0.41200
Ni	Ni	0.68236 0.51844 0.92370 1.06600
H 	H 	0.62398 0.32972 0.85440 0.16200
H 	H 	0.63383 0.35884 0.94199 0.15200
C 	C 	0.55656 0.17136 0.93034 0.26300
O 	O 	0.68665 0.52612 0.88032 -0.42400
C 	C 	0.74042 0.19024 0.86643 0.31800
C 	C 	0.42359 0.18103 0.86525 0.31200
C 	C 	0.74164 0.51449 0.86639 0.31300
C 	C 	0.51795 0.46506 0.93556 0.27800
C 	C 	0.81396 0.47231 0.94105 0.27700
O 	O 	0.51027 0.21297 0.92321 -0.36500
O 	O 	0.45997 0.13021 0.87472 -0.41200
Ni	Ni	0.53765 0.31945 0.66539 1.10100
O 	O 	0.62496 0.34965 0.63693 -0.70000
Ni	Ni	0.70704 0.33657 0.66150 1.09900
O 	O 	0.47773 0.38108 0.64206 -0.36500
O 	O 	0.58591 0.50810 0.63834 -0.42000
O 	O 	0.47929 0.19618 0.64369 -0.37100
Ni	Ni	0.66692 0.47051 0.61915 1.07300
O 	O 	0.46006 0.13462 0.69704 -0.40500
O 	O 	0.75518 0.55005 0.64609 -0.40300
O 	O 	0.80074 0.39401 0.63544 -0.36900
O 	O 	0.61506 0.28989 0.68793 -0.70200
O 	O 	0.45458 0.27918 0.69504 -0.38200
O 	O 	0.77090 0.29475 0.68970 -0.36500
O 	O 	0.68005 0.14719 0.69110 -0.40900
Ni	Ni	0.57381 0.15691 0.69392 1.06600
H 	H 	0.61193 0.30242 0.62133 0.15400
H 	H 	0.62546 0.32363 0.70662 0.15600
C 	C 	0.75752 0.53963 0.67388 0.32700
O 	O 	0.56110 0.12343 0.65148 -0.41200
C 	C 	0.51481 0.46170 0.63034 0.27600
C 	C 	0.79769 0.41789 0.60829 0.28700
C 	C 	0.51164 0.13999 0.63494 0.28300
C 	C 	0.74483 0.21119 0.70067 0.29400
C 	C 	0.43122 0.19532 0.70586 0.29800
O 	O 	0.73585 0.45710 0.68490 -0.39500
O 	O 	0.73621 0.42487 0.59696 -0.41800
C 	C 	0.97607 0.04497 0.76896 0.00200
C 	C 	0.96632 0.88782 0.76236 0.00100
C 	C 	0.08995 0.01220 0.76741 0.00300
C 	C 	0.97410 0.03406 0.79810 0.00100
C 	C 	0.96430 0.87695 0.79144 0.00100
C 	C 	0.08774 0.00105 0.79637 0.00100
O 	O 	0.22594 0.63630 0.46459 -0.41600
C 	C 	0.16613 0.65050 0.45451 0.28500
C 	C 	0.49526 0.09896 0.60577 -0.07600
C 	C 	0.52832 0.03739 0.59659 0.00100
C 	C 	0.52182 0.00810 0.56800 -0.05200
C 	C 	0.47916 0.03701 0.54816 0.00400
C 	C 	0.44806 0.10160 0.55726 0.00900
C 	C 	0.45298 0.12834 0.58621 -0.02400
C 	C 	0.41634 0.14282 0.53709 -0.04300
C 	C 	0.41784 0.12340 0.50795 -0.04000
C 	C 	0.44507 0.05646 0.49866 0.00600
C 	C 	0.47139 0.00835 0.51890 0.00600
C 	C 	0.48513 0.92997 0.50965 -0.05500
C 	C 	0.48119 0.90691 0.48055 0.00000
C 	C 	0.46039 0.95885 0.46031 -0.07800
C 	C 	0.44292 0.03402 0.46943 -0.01700
H 	H 	0.56161 0.01471 0.61143 0.03900
H 	H 	0.55418 0.96819 0.56114 0.04100
H 	H 	0.42637 0.17474 0.59327 0.04600
H 	H 	0.39256 0.19232 0.54395 0.03700
H 	H 	0.39594 0.15884 0.49258 0.03700
H 	H 	0.49370 0.88325 0.52487 0.04000
H 	H 	0.49076 0.84582 0.47387 0.02800
H 	H 	0.42544 0.07326 0.45386 0.04400
C 	C 	0.86499 0.44089 0.59037 -0.06800
C 	C 	0.86153 0.38497 0.56624 0.00500
C 	C 	0.90964 0.42079 0.54321 -0.05100
C 	C 	0.96044 0.51462 0.54371 0.00500
C 	C 	0.97121 0.56656 0.56967 0.01000
C 	C 	0.92288 0.52956 0.59278 -0.01800
C 	C 	0.02954 0.65498 0.57217 -0.04000
C 	C 	0.07736 0.69224 0.54924 -0.03900
C 	C 	0.98520 0.51705 0.49154 -0.05200
C 	C 	0.03469 0.55445 0.46895 0.00500
C 	C 	0.10160 0.63331 0.47359 -0.06900
C 	C 	0.11407 0.68113 0.50003 -0.01700
H 	H 	0.81898 0.31489 0.56474 0.03100
H 	H 	0.90832 0.37485 0.52552 0.04300
H 	H 	0.92717 0.57182 0.61186 0.04600
H 	H 	0.03867 0.69448 0.59211 0.04300
H 	H 	0.12358 0.75946 0.55188 0.04100
H 	H 	0.02297 0.51926 0.44822 0.04200
H 	H 	0.16439 0.74426 0.50328 0.03700
C 	C 	0.49087 0.47852 0.60146 -0.09400
C 	C 	0.46392 0.40525 0.58131 -0.00700
C 	C 	0.46229 0.42275 0.55210 -0.05800
C 	C 	0.48245 0.51440 0.54253 0.00200
C 	C 	0.50958 0.58846 0.56296 0.00200
C 	C 	0.51130 0.56978 0.59230 -0.02500
C 	C 	0.53900 0.68038 0.55381 -0.04300
C 	C 	0.54308 0.69986 0.52470 -0.04400
C 	C 	0.51328 0.62819 0.50413 0.00400
C 	C 	0.48017 0.53473 0.51284 0.00100
C 	C 	0.44199 0.46504 0.49200 -0.05700
C 	C 	0.43992 0.48765 0.46323 -0.00900
C 	C 	0.51174 0.64960 0.47504 -0.02600
H 	H 	0.45008 0.33482 0.58804 0.03000
H 	H 	0.45130 0.36568 0.53715 0.03900
H 	H 	0.53294 0.62661 0.60784 0.03800
H 	H 	0.56054 0.73712 0.56935 0.03700
H 	H 	0.56772 0.77140 0.51812 0.03700
H 	H 	0.40891 0.39476 0.49803 0.03900
H 	H 	0.53753 0.72112 0.46852 0.04500
C 	C 	0.92935 0.08581 0.75434 0.00900
C 	C 	0.88898 0.11811 0.74232 -0.03300
C 	C 	0.84016 0.15362 0.72821 0.06500
C 	C 	0.79726 0.18149 0.71589 -0.11000
C 	C 	0.16115 0.05372 0.75251 0.00800
C 	C 	0.22248 0.08816 0.74147 -0.03200
C 	C 	0.29553 0.12756 0.72939 0.06300
C 	C 	0.35791 0.15968 0.71903 -0.10700
C 	C 	0.80067 0.61818 0.69173 -0.11600
C 	C 	0.83784 0.68197 0.70737 0.07200
C 	C 	0.88210 0.75459 0.72621 -0.03600
C 	C 	0.92029 0.81547 0.74259 0.01000
C 	C 	0.85961 0.49660 0.96783 -0.08000
C 	C 	0.91206 0.58739 0.97301 0.00300
C 	C 	0.95364 0.61117 0.99884 -0.05300
C 	C 	0.84925 0.42905 0.98854 -0.02000
H 	H 	0.92202 0.63926 0.95672 0.03800
H 	H 	0.99800 0.67955 0.00119 0.04300
H 	H 	0.80896 0.35861 0.98441 0.03600
C 	C 	0.54107 0.01876 0.99428 0.00800
C 	C 	0.55305 0.19936 0.98279 0.00100
C 	C 	0.55751 0.14163 0.96022 -0.07200
C 	C 	0.55450 0.05248 0.96617 -0.01600
H 	H 	0.55197 0.88934 0.98390 0.03700
H 	H 	0.55806 0.26937 0.97864 0.01800
H 	H 	0.56016 0.00856 0.94892 0.04100
C 	C 	0.51899 0.57581 0.97452 -0.00400
C 	C 	0.50026 0.48422 0.96496 -0.08600
C 	C 	0.46973 0.41125 0.98416 -0.02200
H 	H 	0.53871 0.63214 0.95956 0.03000
H 	H 	0.45273 0.34007 0.97662 0.04700
C 	C 	0.92676 0.06493 0.81603 0.00900
C 	C 	0.88591 0.09127 0.82996 -0.03500
C 	C 	0.83651 0.12351 0.84477 0.06800
C 	C 	0.79313 0.15280 0.85576 -0.11100
C 	C 	0.34923 0.13652 0.85254 -0.12000
C 	C 	0.28705 0.10154 0.84138 0.07100
C 	C 	0.21545 0.06356 0.82734 -0.03700
C 	C 	0.15600 0.03368 0.81409 0.01000
C 	C 	0.91408 0.79337 0.80493 0.00900
C 	C 	0.87292 0.72566 0.81725 -0.03500
C 	C 	0.82572 0.64886 0.83295 0.06800
C 	C 	0.78656 0.58585 0.84753 -0.11400
