data_crystal

_cell_length_a 17.79729
_cell_length_b 15.26521
_cell_length_c 44.37690
_cell_angle_alpha 90.91783
_cell_angle_beta  91.30166
_cell_angle_gamma 111.10769

_symmetry_space_group_name_	'P 1'
_symmetry_space_group_name_H-M	'P 1'

loop_
_symmetry_equiv_pos_as_xyz
  x,y,z

loop_
_atom_site_label
_atom_site_type_symbol
_atom_site_fract_x
_atom_site_fract_y
_atom_site_fract_z
_atom_site_charge
Ni	Ni	0.70564 0.33250 0.88760 1.10700
O 	O 	0.61708 0.24357 0.85970 -0.70200
Ni	Ni	0.51942 0.24885 0.87909 1.11000
O 	O 	0.79197 0.31468 0.86118 -0.30800
O 	O 	0.73666 0.15380 0.86379 -0.35300
O 	O 	0.69608 0.43062 0.85889 -0.37400
Ni	Ni	0.61083 0.11438 0.85832 1.09100
O 	O 	0.71171 0.45668 0.94983 -0.39400
O 	O 	0.60000 0.09898 0.90396 -0.38000
O 	O 	0.43996 0.17182 0.84689 -0.35500
O 	O 	0.60734 0.32132 0.91037 -0.69900
O 	O 	0.79450 0.43232 0.91357 -0.34400
O 	O 	0.43074 0.28711 0.89771 -0.33400
O 	O 	0.51487 0.43858 0.89750 -0.38200
Ni	Ni	0.61708 0.44914 0.92257 1.08300
H 	H 	0.61963 0.26695 0.83892 0.19800
H 	H 	0.60571 0.28411 0.92856 0.16500
C 	C 	0.53368 0.09417 0.91749 0.28000
O 	O 	0.69293 0.54116 0.89347 -0.36500
C 	C 	0.78992 0.23081 0.85257 0.37500
C 	C 	0.43769 0.08767 0.83826 0.38900
C 	C 	0.71261 0.51820 0.86692 0.41200
C 	C 	0.44603 0.37559 0.90507 0.28100
C 	C 	0.78411 0.46963 0.93972 0.29200
O 	O 	0.48455 0.13188 0.90540 -0.34900
O 	O 	0.48755 0.04976 0.85071 -0.36300
Ni	Ni	0.61608 0.33463 0.56873 1.10300
O 	O 	0.71114 0.36011 0.54068 -0.70100
Ni	Ni	0.76991 0.28210 0.55911 1.10500
O 	O 	0.57429 0.42762 0.54740 -0.33400
O 	O 	0.69619 0.54623 0.55203 -0.36600
O 	O 	0.54194 0.23424 0.53830 -0.35000
Ni	Ni	0.78438 0.49179 0.54253 1.08800
O 	O 	0.49454 0.14838 0.58973 -0.37100
O 	O 	0.80398 0.48978 0.58771 -0.39100
O 	O 	0.85880 0.31186 0.52825 -0.33600
O 	O 	0.67723 0.26036 0.58857 -0.69300
O 	O 	0.52432 0.30470 0.59831 -0.33900
O 	O 	0.80925 0.18149 0.57655 -0.32600
O 	O 	0.68900 0.06875 0.58631 -0.36800
Ni	Ni	0.60178 0.12851 0.58783 1.09700
H 	H 	0.69344 0.33967 0.51960 0.16800
H 	H 	0.69611 0.28431 0.60931 0.20000
C 	C 	0.85713 0.45629 0.59808 0.40100
O 	O 	0.59843 0.12213 0.54216 -0.39300
C 	C 	0.62390 0.51053 0.53954 0.28000
C 	C 	0.89251 0.39827 0.51861 0.27400
C 	C 	0.56077 0.16568 0.52612 0.28100
C 	C 	0.76479 0.11439 0.59378 0.39600
C 	C 	0.48468 0.21712 0.60543 0.38500
O 	O 	0.85358 0.37193 0.58958 -0.33700
O 	O 	0.88843 0.46967 0.53463 -0.35000
Ni	Ni	0.98161 0.95845 0.75326 1.11100
O 	O 	0.00544 0.85687 0.72985 -0.70100
Ni	Ni	0.06504 0.93026 0.69538 1.11600
O 	O 	0.92196 0.86602 0.78521 -0.31800
O 	O 	0.83555 0.76889 0.74989 -0.36400
O 	O 	0.08542 0.98731 0.77995 -0.30600
Ni	Ni	0.90469 0.76502 0.71300 1.09300
O 	O 	0.08189 0.16131 0.77439 -0.36200
O 	O 	0.86697 0.86320 0.69324 -0.37000
O 	O 	0.08559 0.82008 0.67497 -0.30300
O 	O 	0.03227 0.03138 0.71694 -0.68500
O 	O 	0.95183 0.05868 0.77429 -0.36000
O 	O 	0.14627 0.02060 0.66732 -0.30900
O 	O 	0.17551 0.16461 0.69036 -0.33600
Ni	Ni	0.12063 0.14375 0.73200 1.09600
H 	H 	0.03770 0.82733 0.74150 0.21000
H 	H 	0.99254 0.05021 0.70546 0.19300
C 	C 	0.90354 0.91015 0.66992 0.38200
O 	O 	0.18215 0.06263 0.74637 -0.37800
C 	C 	0.86568 0.78531 0.77761 0.39800
C 	C 	0.02360 0.74018 0.67037 0.39000
C 	C 	0.15869 0.00714 0.76942 0.35100
C 	C 	0.19945 0.10291 0.67624 0.38700
C 	C 	0.00533 0.14157 0.78090 0.42500
O 	O 	0.97591 0.91349 0.66328 -0.33200
O 	O 	0.94942 0.73833 0.67357 -0.38200
Ni	Ni	0.25395 0.69899 0.40108 1.10600
O 	O 	0.34336 0.75000 0.37047 -0.69900
Ni	Ni	0.43919 0.74456 0.39474 1.10400
O 	O 	0.16754 0.72987 0.37693 -0.32200
O 	O 	0.24641 0.87348 0.36040 -0.35200
O 	O 	0.20946 0.57237 0.37762 -0.34800
Ni	Ni	0.36630 0.88243 0.36143 1.09700
O 	O 	0.20223 0.50878 0.43273 -0.36300
O 	O 	0.37227 0.92083 0.40600 -0.37900
O 	O 	0.52396 0.79798 0.36321 -0.34400
O 	O 	0.34854 0.68949 0.42441 -0.70300
O 	O 	0.17108 0.64182 0.43302 -0.34200
O 	O 	0.52233 0.71770 0.42257 -0.32500
O 	O 	0.44328 0.56420 0.42658 -0.37400
Ni	Ni	0.32466 0.55411 0.42939 1.08200
H 	H 	0.33397 0.71107 0.35173 0.20600
H 	H 	0.35793 0.72438 0.44398 0.16900
C 	C 	0.43235 0.92206 0.42389 0.27000
O 	O 	0.31633 0.52603 0.38434 -0.38700
C 	C 	0.18322 0.79526 0.35662 0.39700
C 	C 	0.53014 0.87568 0.34929 0.39200
C 	C 	0.25363 0.52521 0.36827 0.39500
C 	C 	0.50248 0.63839 0.43695 0.28000
C 	C 	0.16261 0.55926 0.44418 0.28000
O 	O 	0.47840 0.87468 0.41643 -0.34400
O 	O 	0.48950 0.92792 0.35871 -0.36700
Ni	Ni	0.37267 0.67548 0.05104 1.10800
O 	O 	0.27020 0.66322 0.02644 -0.69900
Ni	Ni	0.20613 0.69966 0.05742 1.10700
O 	O 	0.40657 0.58887 0.02298 -0.34200
O 	O 	0.28044 0.47970 0.02413 -0.37900
O 	O 	0.43898 0.78863 0.02590 -0.34900
Ni	Ni	0.20258 0.54264 0.00834 1.08500
O 	O 	0.48944 0.85576 0.08243 -0.36900
O 	O 	0.11594 0.47959 0.03921 -0.35800
O 	O 	0.09398 0.65982 0.03589 -0.33400
O 	O 	0.31546 0.73066 0.07949 -0.69700
O 	O 	0.47324 0.69998 0.07751 -0.33900
O 	O 	0.16694 0.76147 0.09205 -0.29600
O 	O 	0.27459 0.89781 0.08775 -0.35100
Ni	Ni	0.37749 0.86480 0.08361 1.10100
H 	H 	0.28271 0.70994 0.01039 0.16800
H 	H 	0.31044 0.70049 0.09931 0.20000
C 	C 	0.12307 0.49537 0.06854 0.39300
O 	O 	0.37409 0.88800 0.03866 -0.38500
C 	C 	0.35345 0.50750 0.01365 0.27900
C 	C 	0.07770 0.62690 0.00763 0.29600
C 	C 	0.41654 0.85980 0.01964 0.28300
C 	C 	0.21256 0.84514 0.10299 0.36500
C 	C 	0.50566 0.78228 0.09177 0.38600
O 	O 	0.17191 0.57615 0.08014 -0.35400
O 	O 	0.13175 0.60861 0.99136 -0.38900
Ni	Ni	0.97412 0.06051 0.25751 1.10200
O 	O 	0.97179 0.14661 0.22332 -0.71300
Ni	Ni	0.92149 0.05388 0.18986 1.10500
O 	O 	0.02932 0.17425 0.28577 -0.31500
O 	O 	0.13346 0.23263 0.25390 -0.35900
O 	O 	0.86437 0.05785 0.27311 -0.34600
Ni	Ni	0.08113 0.22002 0.21089 1.09900
O 	O 	0.87886 0.84450 0.27709 -0.35800
O 	O 	0.11645 0.10757 0.20340 -0.35600
O 	O 	0.91804 0.15085 0.15909 -0.33000
O 	O 	0.93653 0.96588 0.22249 -0.68100
O 	O 	0.98341 0.97695 0.29113 -0.32200
O 	O 	0.84877 0.94891 0.16163 -0.30500
O 	O 	0.79062 0.82192 0.19044 -0.33200
Ni	Ni	0.84378 0.85477 0.23350 1.10000
H 	H 	0.93999 0.18654 0.22775 0.20000
H 	H 	0.98095 0.94379 0.21807 0.20600
C 	C 	0.08406 0.04674 0.18123 0.37000
O 	O 	0.77842 0.93478 0.24444 -0.36400
C 	C 	0.09635 0.24136 0.27839 0.38800
C 	C 	0.98467 0.22439 0.15484 0.38300
C 	C 	0.79484 0.98685 0.26929 0.40200
C 	C 	0.78378 0.88298 0.17102 0.39100
C 	C 	0.95364 0.88582 0.28731 0.39200
O 	O 	0.01781 0.04493 0.16743 -0.32500
O 	O 	0.05473 0.22619 0.16612 -0.36000
C 	C 	0.04524 0.32739 0.08053 0.27000
C 	C 	0.07042 0.42351 0.08859 -0.18100
C 	C 	0.04494 0.45037 0.11588 0.27500
C 	C 	0.00303 0.38201 0.13624 0.30100
C 	C 	0.98715 0.28658 0.12974 -0.21100
C 	C 	0.00229 0.25943 0.10081 0.31000
F 	F 	0.98346 0.16702 0.09364 -0.37200
F 	F 	0.06645 0.29960 0.05385 -0.37500
F 	F 	0.98425 0.40897 0.16347 -0.38500
F 	F 	0.06146 0.54250 0.12282 -0.34300
C 	C 	0.57152 0.83343 0.14218 0.28400
C 	C 	0.57403 0.79838 0.11293 -0.19500
C 	C 	0.64511 0.78864 0.10310 0.28900
C 	C 	0.71379 0.81616 0.12213 0.28800
C 	C 	0.71173 0.85338 0.15113 -0.18200
C 	C 	0.64001 0.86031 0.16127 0.27500
F 	F 	0.63713 0.89455 0.18947 -0.35500
F 	F 	0.50285 0.84252 0.15194 -0.38700
F 	F 	0.78243 0.80695 0.11241 -0.34700
F 	F 	0.64833 0.75541 0.07478 -0.37000
C 	C 	0.20573 0.02329 0.16200 0.26700
C 	C 	0.12473 0.98507 0.16992 -0.16000
C 	C 	0.07814 0.89232 0.16084 0.28800
C 	C 	0.10820 0.84364 0.14040 0.29500
C 	C 	0.18594 0.88699 0.12917 -0.18100
C 	C 	0.23667 0.97399 0.14201 0.30400
F 	F 	0.31538 0.01152 0.13472 -0.39500
F 	F 	0.25300 0.11070 0.17208 -0.36300
F 	F 	0.06081 0.75563 0.13090 -0.33200
F 	F 	0.00152 0.85175 0.17026 -0.37800
C 	C 	0.58759 0.93856 0.29988 0.28200
C 	C 	0.59974 0.91814 0.32994 -0.19000
C 	C 	0.67815 0.93223 0.34084 0.28900
C 	C 	0.74302 0.96094 0.32139 0.28000
C 	C 	0.73010 0.97549 0.29083 -0.18500
C 	C 	0.65246 0.96697 0.28037 0.28600
F 	F 	0.63967 0.98476 0.25121 -0.34100
F 	F 	0.51248 0.92752 0.28927 -0.37600
F 	F 	0.81779 0.97003 0.33190 -0.34900
F 	F 	0.69121 0.91636 0.37018 -0.36300
C 	C 	0.19897 0.47874 0.31607 0.28500
C 	C 	0.22097 0.45359 0.34428 -0.19800
C 	C 	0.20369 0.35846 0.35048 0.28600
C 	C 	0.16300 0.28900 0.32890 0.28700
C 	C 	0.13963 0.31411 0.30092 -0.18900
C 	C 	0.15895 0.40921 0.29437 0.28000
F 	F 	0.13734 0.43402 0.26720 -0.38500
F 	F 	0.21555 0.57052 0.30985 -0.37900
F 	F 	0.14625 0.19720 0.33513 -0.36300
F 	F 	0.22364 0.33327 0.37787 -0.38500
C 	C 	0.04330 0.79505 0.35047 0.29900
C 	C 	0.11545 0.79783 0.33743 -0.18200
C 	C 	0.12400 0.80819 0.30623 0.28800
C 	C 	0.06390 0.82356 0.28859 0.28800
C 	C 	0.99572 0.83083 0.30217 -0.19600
C 	C 	0.98350 0.81099 0.33283 0.28600
F 	F 	0.91680 0.81524 0.34606 -0.34400
F 	F 	0.03328 0.78265 0.38055 -0.36200
F 	F 	0.07504 0.83941 0.25871 -0.38500
F 	F 	0.19177 0.80666 0.29315 -0.36700
C 	C 	0.52422 0.12346 0.49675 -0.06100
C 	C 	0.44178 0.06813 0.49491 0.01300
C 	C 	0.41029 0.00344 0.47083 -0.02100
C 	C 	0.46145 0.99556 0.44794 -0.01600
C 	C 	0.54220 0.05671 0.44849 -0.02300
C 	C 	0.57378 0.12027 0.47272 0.02200
H 	H 	0.40329 0.07101 0.51323 0.06900
H 	H 	0.58096 0.05332 0.43033 0.08300
C 	C 	0.65780 0.18027 0.47315 0.08300
C 	C 	0.32664 0.94219 0.47065 0.11700
N 	N 	0.72516 0.22812 0.47340 -0.10500
N 	N 	0.25965 0.89306 0.47050 -0.08800
C 	C 	0.95515 0.41826 0.49606 -0.04600
C 	C 	0.02999 0.41342 0.50441 0.02200
C 	C 	0.09850 0.46060 0.48795 0.01400
C 	C 	0.09177 0.51123 0.46231 -0.03900
C 	C 	0.01584 0.51053 0.45281 0.01900
C 	C 	0.94765 0.46414 0.46947 0.00400
H 	H 	0.03589 0.37810 0.52486 0.08500
H 	H 	0.00988 0.54626 0.43245 0.08700
C 	C 	0.87031 0.46602 0.45960 0.09200
C 	C 	0.17605 0.46072 0.49840 0.10000
N 	N 	0.80836 0.46756 0.45173 -0.10500
N 	N 	0.23817 0.46087 0.50677 -0.10100
C 	C 	0.54351 0.63292 0.46554 -0.05700
C 	C 	0.49803 0.61155 0.49166 -0.00700
C 	C 	0.52533 0.57565 0.51671 0.01900
C 	C 	0.59956 0.56219 0.51582 -0.05600
C 	C 	0.64889 0.59314 0.49097 -0.00100
C 	C 	0.62113 0.62824 0.46580 0.01900
H 	H 	0.43918 0.61779 0.49180 0.02400
H 	H 	0.70727 0.58573 0.49065 0.03200
C 	C 	0.67125 0.65557 0.43989 0.11900
C 	C 	0.47680 0.55270 0.54316 0.11500
N 	N 	0.71141 0.67747 0.41912 -0.05500
N 	N 	0.43789 0.53428 0.56434 -0.05700
C 	C 	0.79863 0.07226 0.64466 0.28100
C 	C 	0.80491 0.06732 0.61326 -0.19000
C 	C 	0.83965 0.00681 0.60052 0.27300
C 	C 	0.86802 0.95162 0.61902 0.29200
C 	C 	0.86293 0.95744 0.65051 -0.18800
C 	C 	0.82768 0.01767 0.66325 0.27100
F 	F 	0.82361 0.02519 0.69365 -0.38500
F 	F 	0.76401 0.12973 0.65711 -0.37900
F 	F 	0.90015 0.89195 0.60638 -0.35700
F 	F 	0.84398 0.99979 0.57012 -0.35900
C 	C 	0.39981 0.11862 0.64524 0.28400
C 	C 	0.41609 0.19493 0.62589 -0.19100
C 	C 	0.36311 0.24459 0.62451 0.28700
C 	C 	0.29359 0.21648 0.64167 0.28300
C 	C 	0.27621 0.13827 0.66030 -0.17700
C 	C 	0.32994 0.09000 0.66213 0.28200
F 	F 	0.31388 0.01446 0.68000 -0.34800
F 	F 	0.45146 0.07157 0.64746 -0.38900
F 	F 	0.24142 0.26277 0.63920 -0.36100
F 	F 	0.37701 0.31743 0.60558 -0.36800
C 	C 	0.94787 0.50126 0.64398 0.27500
C 	C 	0.92986 0.51999 0.61438 -0.19100
C 	C 	0.97678 0.60564 0.60173 0.27300
C 	C 	0.03114 0.67683 0.62009 0.29900
C 	C 	0.03238 0.66552 0.65137 -0.17600
C 	C 	0.00169 0.57367 0.66222 0.28500
F 	F 	0.01206 0.55855 0.69182 -0.36500
F 	F 	0.90836 0.41602 0.65582 -0.36200
F 	F 	0.07042 0.76240 0.60843 -0.34900
F 	F 	0.96532 0.62243 0.57238 -0.39700
C 	C 	0.85519 0.52256 0.95887 -0.05100
C 	C 	0.85824 0.49869 0.98913 0.00600
C 	C 	0.92833 0.54181 0.00692 0.01100
C 	C 	0.99698 0.60761 0.99407 -0.04400
C 	C 	0.99074 0.63860 0.96487 -0.01100
C 	C 	0.92020 0.59682 0.94725 0.02300
H 	H 	0.80675 0.44490 0.99861 0.06400
H 	H 	0.04228 0.69231 0.95538 0.08400
C 	C 	0.91438 0.63241 0.91769 0.12300
C 	C 	0.92922 0.51783 0.03823 0.12500
N 	N 	0.91021 0.66158 0.89406 -0.06400
N 	N 	0.92941 0.49861 0.06334 -0.06400
C 	C 	0.50552 0.03045 0.94305 -0.05100
C 	C 	0.42302 0.97650 0.94464 -0.00000
C 	C 	0.39333 0.92047 0.96948 0.01300
C 	C 	0.44687 0.91491 0.99263 -0.05500
C 	C 	0.52966 0.96644 0.99072 0.01100
C 	C 	0.55913 0.02563 0.96642 0.00000
H 	H 	0.38165 0.97904 0.92663 0.09400
H 	H 	0.57080 0.96284 0.00867 0.07300
C 	C 	0.64345 0.08446 0.96649 0.10400
C 	C 	0.30762 0.86974 0.97115 0.09200
N 	N 	0.71098 0.13163 0.96657 -0.08800
N 	N 	0.23890 0.82943 0.97239 -0.10100
C 	C 	0.40340 0.39826 0.93035 -0.06500
C 	C 	0.39002 0.34308 0.95616 -0.01600
C 	C 	0.37160 0.37703 0.98344 0.01700
C 	C 	0.36610 0.46672 0.98492 -0.07200
C 	C 	0.37244 0.51813 0.95858 -0.01200
C 	C 	0.39012 0.48390 0.93127 0.00800
H 	H 	0.39852 0.27619 0.95544 0.05900
H 	H 	0.36447 0.58534 0.95946 0.03400
C 	C 	0.39457 0.53699 0.90428 0.10900
C 	C 	0.36125 0.32085 0.00999 0.10300
N 	N 	0.39815 0.57953 0.88266 -0.07100
N 	N 	0.35296 0.27584 0.03127 -0.07500
C 	C 	0.88117 0.26984 0.80890 0.28700
C 	C 	0.85948 0.22448 0.83641 -0.18100
C 	C 	0.90735 0.17804 0.84911 0.28500
C 	C 	0.97038 0.16791 0.83278 0.28100
C 	C 	0.98293 0.19953 0.80305 -0.19600
C 	C 	0.94354 0.25842 0.79247 0.28600
F 	F 	0.95903 0.29529 0.76465 -0.36500
F 	F 	0.83918 0.32091 0.79734 -0.35100
F 	F 	0.01256 0.11706 0.84432 -0.34200
F 	F 	0.89198 0.14131 0.87696 -0.37000
C 	C 	0.29190 0.98758 0.77421 0.27900
C 	C 	0.22107 0.98734 0.78784 -0.17100
C 	C 	0.21859 0.98852 0.81952 0.28200
C 	C 	0.28951 0.00643 0.83686 0.28200
C 	C 	0.36338 0.02561 0.82268 -0.18800
C 	C 	0.36325 0.00837 0.79156 0.27900
F 	F 	0.43338 0.01983 0.77778 -0.37400
F 	F 	0.29288 0.97438 0.74392 -0.35100
F 	F 	0.28794 0.01489 0.86733 -0.37700
F 	F 	0.14912 0.97926 0.83347 -0.34400
C 	C 	0.72950 0.66640 0.84020 0.28500
C 	C 	0.75580 0.59169 0.84601 -0.19800
C 	C 	0.81971 0.58281 0.82975 0.28800
C 	C 	0.85529 0.64621 0.80736 0.28300
C 	C 	0.82786 0.71934 0.80110 -0.19400
C 	C 	0.76562 0.73020 0.81781 0.29200
F 	F 	0.73955 0.80181 0.81208 -0.36500
F 	F 	0.66733 0.67531 0.85551 -0.37800
F 	F 	0.91666 0.63666 0.79167 -0.38200
F 	F 	0.84777 0.51306 0.83592 -0.36000
