data_crystal

_cell_length_a 12.61077
_cell_length_b 16.97753
_cell_length_c 49.32793
_cell_angle_alpha 90.35608
_cell_angle_beta  90.35602
_cell_angle_gamma 119.38474

_symmetry_space_group_name_	'P 1'
_symmetry_space_group_name_H-M	'P 1'

loop_
_symmetry_equiv_pos_as_xyz
  x,y,z

loop_
_atom_site_label
_atom_site_type_symbol
_atom_site_fract_x
_atom_site_fract_y
_atom_site_fract_z
_atom_site_charge
C 	C 	0.28196 0.28158 0.88437 0.29500
O 	O 	0.26155 0.26363 0.91034 -0.37100
C 	C 	0.46813 0.15221 0.59158 0.34000
O 	O 	0.44511 0.21529 0.59964 -0.37400
C 	C 	0.93514 0.94271 0.73195 0.31600
C 	C 	0.98253 0.04991 0.79766 0.29300
Ni	Ni	0.75449 0.96365 0.76518 1.11900
Ni	Ni	0.89066 0.85577 0.78356 1.12200
O 	O 	0.87133 0.98415 0.73480 -0.38000
O 	O 	0.00967 0.98950 0.78735 -0.39200
O 	O 	0.89310 0.06098 0.78717 -0.37500
O 	O 	0.89925 0.86443 0.74331 -0.39100
C 	C 	0.64441 0.73667 0.46598 0.30600
C 	C 	0.45596 0.76140 0.36171 0.30900
C 	C 	0.39591 0.54307 0.39325 0.28500
C 	C 	0.26394 0.81307 0.42323 0.31000
C 	C 	0.24591 0.62364 0.46845 0.30400
Ni	Ni	0.58869 0.74544 0.40796 1.11600
Ni	Ni	0.29577 0.66090 0.40799 1.12100
Ni	Ni	0.45563 0.79786 0.45460 1.12100
O 	O 	0.64104 0.70265 0.44159 -0.37300
O 	O 	0.61030 0.79931 0.47020 -0.36900
O 	O 	0.28531 0.77283 0.40321 -0.38900
O 	O 	0.36048 0.68410 0.36870 -0.36100
O 	O 	0.34760 0.69391 0.47745 -0.38700
O 	O 	0.55052 0.89931 0.42901 -0.38500
O 	O 	0.19889 0.62238 0.44375 -0.37400
O 	O 	0.50309 0.61674 0.38749 -0.35500
O 	O 	0.31173 0.54953 0.40728 -0.37900
O 	O 	0.31053 0.81704 0.44752 -0.37800
O 	O 	0.44550 0.71453 0.42746 -0.71500
H 	H 	0.43637 0.66306 0.43832 0.17000
C 	C 	0.47418 0.75633 0.21561 0.28400
C 	C 	0.27806 0.58028 0.11239 0.32600
C 	C 	0.40328 0.52427 0.19386 0.30700
C 	C 	0.36239 0.81068 0.13103 0.31300
C 	C 	0.65520 0.64173 0.12292 0.33000
Ni	Ni	0.32751 0.65004 0.16753 1.11600
Ni	Ni	0.52740 0.73882 0.12046 1.12100
Ni	Ni	0.60711 0.69385 0.17719 1.12200
O 	O 	0.37547 0.73456 0.20078 -0.36800
O 	O 	0.53651 0.71156 0.21305 -0.36500
O 	O 	0.54861 0.63103 0.11768 -0.39500
O 	O 	0.29083 0.55805 0.13677 -0.37600
O 	O 	0.35776 0.66038 0.10327 -0.37400
O 	O 	0.71644 0.82578 0.17446 -0.38400
O 	O 	0.32710 0.55621 0.19482 -0.36500
O 	O 	0.49502 0.55967 0.17736 -0.37700
O 	O 	0.28447 0.73311 0.14300 -0.36500
O 	O 	0.47669 0.83258 0.12637 -0.38500
O 	O 	0.70408 0.67406 0.14700 -0.37000
O 	O 	0.49210 0.71498 0.15784 -0.71100
H 	H 	0.51374 0.77572 0.16461 0.17100
C 	C 	0.31210 0.94357 0.27563 0.27800
C 	C 	0.21993 0.21731 0.32777 0.28900
C 	C 	0.14686 0.94442 0.34151 0.28900
C 	C 	0.30060 0.24300 0.26708 0.28300
Ni	Ni	0.30055 0.09565 0.30415 1.11700
O 	O 	0.36491 0.03254 0.27807 -0.35900
O 	O 	0.20224 0.89077 0.28545 -0.37200
O 	O 	0.25374 0.15820 0.33374 -0.37900
O 	O 	0.12085 0.19304 0.31262 -0.36100
O 	O 	0.25580 0.98969 0.33075 -0.36800
O 	O 	0.36658 0.21171 0.27963 -0.35700
O 	O 	0.18921 0.18814 0.25817 -0.37800
O 	O 	0.14996 0.03980 0.28641 -0.71300
H 	H 	0.18778 0.05098 0.26845 0.14900
C 	C 	0.40024 0.46309 0.21550 -0.07000
C 	C 	0.34357 0.46112 0.24002 -0.00100
C 	C 	0.31995 0.39395 0.25894 0.00200
C 	C 	0.36364 0.33255 0.25465 -0.05200
C 	C 	0.43824 0.34446 0.23233 -0.00800
C 	C 	0.45178 0.40599 0.21201 0.00700
H 	H 	0.31129 0.50885 0.24371 0.05300
H 	H 	0.47420 0.29868 0.22926 0.05400
C 	C 	0.51124 0.40543 0.18712 0.09100
C 	C 	0.23926 0.38258 0.28103 0.08300
N 	N 	0.55889 0.40484 0.16720 -0.10500
N 	N 	0.17383 0.37476 0.29844 -0.10400
C 	C 	0.38673 0.90195 0.26706 -0.05300
C 	C 	0.48639 0.95013 0.25001 -0.02800
C 	C 	0.53998 0.90555 0.23667 0.00800
C 	C 	0.49138 0.81170 0.23982 -0.06000
C 	C 	0.41267 0.76958 0.26140 -0.00500
C 	C 	0.35522 0.81215 0.27424 -0.00000
H 	H 	0.51737 0.02071 0.24579 0.06700
H 	H 	0.38281 0.69907 0.26552 0.04800
C 	C 	0.26687 0.76384 0.29500 0.09300
C 	C 	0.63292 0.95379 0.21692 0.08100
N 	N 	0.19636 0.72502 0.31164 -0.10900
N 	N 	0.70697 0.99297 0.20102 -0.10800
N 	N 	0.41018 0.56317 0.31437 -0.10800
C 	C 	0.26841 0.30043 0.34494 -0.05600
C 	C 	0.19705 0.30404 0.36599 -0.00300
C 	C 	0.24514 0.37677 0.38448 0.00200
C 	C 	0.36059 0.45390 0.37971 -0.05300
C 	C 	0.43471 0.44804 0.35961 -0.00700
C 	C 	0.39091 0.37077 0.34282 0.00600
H 	H 	0.10638 0.24751 0.36900 0.05100
H 	H 	0.52620 0.50366 0.35682 0.05700
C 	C 	0.47411 0.36345 0.32441 0.07500
C 	C 	0.18139 0.36723 0.40956 0.09000
N 	N 	0.54299 0.35912 0.30995 -0.10600
N 	N 	0.13019 0.35936 0.42963 -0.11200
C 	C 	0.19675 0.86135 0.41731 -0.07100
C 	C 	0.08076 0.81088 0.40537 -0.00100
C 	C 	0.05195 0.84214 0.38166 -0.02000
C 	C 	0.13786 0.92691 0.37114 -0.04800
C 	C 	0.23460 0.98667 0.38812 -0.02400
C 	C 	0.26351 0.95401 0.41148 0.00400
H 	H 	0.02088 0.74246 0.41210 0.03300
H 	H 	0.29371 0.05576 0.38184 0.05900
C 	C 	0.36964 0.01322 0.42745 0.09900
N 	N 	0.45473 0.06062 0.44029 -0.11400
C 	C 	0.71153 0.18143 0.47696 -0.03200
C 	C 	0.65284 0.19765 0.49855 -0.02600
C 	C 	0.66880 0.17514 0.52492 -0.01000
C 	C 	0.58731 0.16903 0.54626 0.06300
C 	C 	0.52569 0.16128 0.56579 -0.12600
H 	H 	0.69192 0.19271 0.45639 0.05700
H 	H 	0.58989 0.22246 0.49453 0.04800
C 	C 	0.10154 0.47980 0.53606 -0.00400
C 	C 	0.11811 0.50416 0.58496 -0.03600
C 	C 	0.14376 0.53858 0.55863 -0.03000
C 	C 	0.13532 0.51645 0.50915 0.04500
C 	C 	0.17427 0.55858 0.48851 -0.09200
H 	H 	0.14700 0.55025 0.60217 0.05000
H 	H 	0.19509 0.61104 0.55577 0.04600
C 	C 	0.84301 0.66327 0.51273 0.00100
C 	C 	0.77421 0.69946 0.49975 0.05100
C 	C 	0.71456 0.72205 0.48611 -0.09300
C 	C 	0.06133 0.99568 0.72253 -0.08400
C 	C 	0.13264 0.08453 0.73226 0.01100
C 	C 	0.24825 0.14024 0.72196 0.00600
C 	C 	0.29235 0.10842 0.70079 -0.05900
C 	C 	0.22361 0.01830 0.69183 0.00600
C 	C 	0.10842 0.96164 0.70264 0.00200
H 	H 	0.09637 0.11134 0.74734 0.05400
H 	H 	0.25797 0.99341 0.67572 0.04000
C 	C 	0.03647 0.87091 0.69199 0.08300
C 	C 	0.31966 0.23079 0.73287 0.10200
N 	N 	0.97877 0.79829 0.68339 -0.10400
C 	C 	0.05428 0.49269 0.09292 0.03100
C 	C 	0.15867 0.53382 0.10053 -0.09900
H 	H 	0.94547 0.33730 0.06422 0.05300
C 	C 	0.20987 0.93006 0.05915 -0.02000
C 	C 	0.28479 0.96509 0.08220 -0.02100
C 	C 	0.37896 0.05524 0.08227 -0.01200
C 	C 	0.29500 0.90353 0.10035 0.05700
C 	C 	0.31581 0.85875 0.11599 -0.10100
H 	H 	0.13400 0.86159 0.05915 0.04200
H 	H 	0.43474 0.08424 0.10029 0.04600
C 	C 	0.76617 0.66445 0.07663 0.05200
C 	C 	0.73035 0.65514 0.09970 -0.10900
C 	C 	0.19986 0.21646 0.86402 -0.06500
C 	C 	0.24473 0.17328 0.84718 -0.01200
C 	C 	0.18043 0.12641 0.82402 0.01000
C 	C 	0.06166 0.11269 0.81921 -0.06300
C 	C 	0.01375 0.15226 0.83696 -0.01400
C 	C 	0.08290 0.20503 0.85910 0.01400
H 	H 	0.33116 0.17753 0.85183 0.05100
H 	H 	0.92214 0.14103 0.83375 0.05500
C 	C 	0.03264 0.24630 0.87676 0.08300
C 	C 	0.23931 0.09605 0.80485 0.09400
N 	N 	0.99216 0.27927 0.89089 -0.10200
N 	N 	0.28616 0.07140 0.78953 -0.10700
O 	O 	0.36891 0.36041 0.87640 -0.38000
O 	O 	0.38050 0.18475 0.65952 -0.35800
C 	C 	0.66715 0.93232 0.42859 0.31700
O 	O 	0.53842 0.80828 0.37962 -0.37400
O 	O 	0.70869 0.87681 0.42291 -0.35400
C 	C 	0.82505 0.62790 0.03270 -0.02900
C 	C 	0.78772 0.67999 0.04786 -0.00500
C 	C 	0.73479 0.72487 0.03427 -0.02800
H 	H 	0.87178 0.59661 0.04254 0.04800
H 	H 	0.70932 0.76794 0.04555 0.03700
N 	N 	0.40194 0.67340 0.68682 -0.10600
C 	C 	0.39871 0.17154 0.68513 0.28400
C 	C 	0.46604 0.64095 0.31650 0.08700
C 	C 	0.77963 0.13747 0.48162 0.00500
C 	C 	0.76685 0.06906 0.46241 0.05300
C 	C 	0.73638 0.00968 0.44567 -0.08800
C 	C 	0.72126 0.64257 0.99286 0.00600
C 	C 	0.79177 0.60913 0.00520 -0.02700
C 	C 	0.70000 0.70518 0.00697 -0.03200
H 	H 	0.81539 0.56501 0.99399 0.06300
H 	H 	0.64940 0.73396 0.99740 0.04700
O 	O 	0.71039 0.83052 0.12734 -0.37200
C 	C 	0.24249 0.97869 0.03499 -0.05200
O 	O 	0.41510 0.45022 0.92833 -0.37800
C 	C 	0.76631 0.86384 0.15136 0.29700
C 	C 	0.48850 0.78543 0.33328 -0.06800
C 	C 	0.75660 0.14889 0.52999 -0.02700
C 	C 	0.65436 0.60151 0.96795 0.06700
N 	N 	0.37664 0.30310 0.74175 -0.10400
H 	H 	0.18901 0.94881 0.01673 0.05000
O 	O 	0.48648 0.10648 0.60990 -0.39400
C 	C 	0.41171 0.10394 0.05817 -0.04300
C 	C 	0.59924 0.56634 0.94713 -0.10400
C 	C 	0.52597 0.51612 0.92395 0.31300
Ni	Ni	0.51302 0.28591 0.63650 1.11500
C 	C 	0.81390 0.13182 0.50831 -0.03700
Ni	Ni	0.39041 0.32883 0.93916 1.12100
C 	C 	0.53499 0.73786 0.31888 0.00300
H 	H 	0.48815 0.91245 0.33466 0.05100
H 	H 	0.77389 0.13539 0.55051 0.03900
C 	C 	0.34773 0.06357 0.03418 0.01700
O 	O 	0.58007 0.51681 0.90101 -0.37100
H 	H 	0.88240 0.05320 0.15472 0.05600
H 	H 	0.48975 0.17139 0.05795 0.04800
O 	O 	0.49986 0.22937 0.69834 -0.36200
O 	O 	0.72738 0.26445 0.60045 -0.36800
C 	C 	0.53327 0.87690 0.32674 0.00000
O 	O 	0.65950 0.36879 0.61276 -0.36700
O 	O 	0.36571 0.20689 0.95067 -0.37600
Ni	Ni	0.54573 0.39956 0.88244 1.12100
C 	C 	0.71806 0.34026 0.59632 0.29300
H 	H 	0.46238 0.44856 0.70251 0.05900
O 	O 	0.47769 0.38178 0.97530 -0.38100
O 	O 	0.54359 0.37747 0.66842 -0.36900
O 	O 	0.62487 0.24938 0.64969 -0.70700
N 	N 	0.50450 0.14263 0.74792 -0.11000
C 	C 	0.38882 0.10969 0.00886 0.04400
H 	H 	0.47960 0.27577 0.91080 0.15100
C 	C 	0.03704 0.38627 0.53999 -0.02900
C 	C 	0.05137 0.41071 0.58892 0.00800
Ni	Ni	0.64661 0.16286 0.62959 1.11900
C 	C 	0.85444 0.59442 0.49950 -0.02800
H 	H 	0.83697 0.58328 0.47788 0.05100
C 	C 	0.87352 0.68067 0.54024 -0.03000
H 	H 	0.87031 0.73613 0.55046 0.04700
C 	C 	0.78431 0.39982 0.57493 -0.09000
C 	C 	0.82948 0.45996 0.55885 0.04900
H 	H 	0.87227 0.10293 0.51227 0.05100
C 	C 	0.89602 0.93161 0.15265 -0.07200
C 	C 	0.92365 0.01615 0.16350 -0.00300
C 	C 	0.89493 0.62020 0.55524 -0.03100
H 	H 	0.90778 0.62939 0.57701 0.05000
C 	C 	0.45158 0.19607 0.96260 0.29900
C 	C 	0.57774 0.38226 0.98306 0.31800
O 	O 	0.66945 0.41055 0.96672 -0.38200
O 	O 	0.53679 0.28521 0.86645 -0.36600
O 	O 	0.52263 0.33945 0.91677 -0.70400
C 	C 	0.64401 0.42403 0.68299 0.30300
C 	C 	0.55642 0.06485 0.68165 0.29900
Ni	Ni	0.67203 0.26176 0.68679 1.12300
O 	O 	0.72089 0.39393 0.68677 -0.37400
O 	O 	0.55390 0.05760 0.65490 -0.36400
O 	O 	0.64343 0.13678 0.69378 -0.38300
H 	H 	0.70234 0.30331 0.64589 0.15000
C 	C 	0.97574 0.89936 0.15996 0.02100
C 	C 	0.98711 0.83462 0.14296 0.08600
N 	N 	0.99677 0.78283 0.12933 -0.10200
C 	C 	0.64969 0.78531 0.30684 -0.01200
C 	C 	0.64641 0.92565 0.31393 -0.00900
H 	H 	0.69162 0.74842 0.29826 0.05400
C 	C 	0.45714 0.98931 0.72574 -0.00700
C 	C 	0.48294 0.07456 0.73786 0.08700
C 	C 	0.65624 0.50009 0.70025 -0.06200
C 	C 	0.55117 0.49837 0.71027 -0.00300
C 	C 	0.55919 0.55806 0.73097 0.00800
C 	C 	0.44842 0.55487 0.74002 0.10300
N 	N 	0.35935 0.55202 0.74717 -0.10200
C 	C 	0.42244 0.14774 0.98755 -0.09600
H 	H 	0.40481 0.92021 0.76390 0.05500
C 	C 	0.71120 0.88059 0.30648 -0.05100
C 	C 	0.98289 0.04259 0.18894 0.05900
C 	C 	0.01128 0.12912 0.20052 0.06100
C 	C 	0.60205 0.37898 0.01120 -0.11100
C 	C 	0.87955 0.54039 0.54294 0.00100
C 	C 	0.87195 0.53245 0.51467 -0.02900
H 	H 	0.86538 0.47301 0.50477 0.04900
C 	C 	0.80242 0.50185 0.89478 0.31300
C 	C 	0.60642 0.25032 0.87495 0.27400
Ni	Ni	0.66399 0.34404 0.93135 1.11000
O 	O 	0.55681 0.21891 0.95042 -0.37000
O 	O 	0.72450 0.44715 0.87716 -0.38500
O 	O 	0.68850 0.28895 0.89502 -0.35300
O 	O 	0.84999 0.30481 0.67779 -0.35800
O 	O 	0.80435 0.19092 0.64780 -0.38500
O 	O 	0.68910 0.74287 0.83323 -0.35300
O 	O 	0.48456 0.79325 0.77526 -0.35300
O 	O 	0.59285 0.67847 0.77683 -0.35800
C 	C 	0.84139 0.93033 0.29817 0.28700
C 	C 	0.01976 0.98560 0.20198 -0.07800
C 	C 	0.02999 0.92077 0.18592 -0.02800
C 	C 	0.69027 0.01902 0.30703 0.10700
N 	N 	0.72512 0.09382 0.30146 -0.11100
C 	C 	0.43467 0.84188 0.73364 -0.06500
C 	C 	0.42035 0.91433 0.74256 -0.01200
C 	C 	0.48335 0.98261 0.69809 -0.07200
C 	C 	0.67485 0.62074 0.74215 -0.05500
C 	C 	0.78024 0.62788 0.73018 -0.00500
C 	C 	0.77160 0.56895 0.70919 0.01000
C 	C 	0.88157 0.58161 0.69638 0.09900
N 	N 	0.96967 0.59179 0.68613 -0.10000
C 	C 	0.64366 0.37941 0.03320 0.05400
H 	H 	0.67972 0.47177 0.08052 0.04900
C 	C 	0.60290 0.17246 0.85981 -0.05200
C 	C 	0.63953 0.11629 0.87308 -0.01400
C 	C 	0.64432 0.04581 0.85898 0.01200
C 	C 	0.60228 0.02582 0.83183 -0.05100
C 	C 	0.55973 0.07915 0.81909 -0.01100
C 	C 	0.56788 0.15553 0.83215 0.00300
H 	H 	0.66789 0.12909 0.89420 0.05500
C 	C 	0.55272 0.22051 0.81620 0.09600
C 	C 	0.69900 0.99837 0.87207 0.07300
N 	N 	0.54072 0.27255 0.80339 -0.10400
C 	C 	0.82406 0.71504 0.88218 -0.00600
C 	C 	0.85372 0.66209 0.89911 0.01200
H 	H 	0.79279 0.75875 0.89088 0.05400
C 	C 	0.89201 0.69100 0.92663 0.09100
N 	N 	0.92512 0.71532 0.94859 -0.11000
H 	H 	0.52673 0.06424 0.79833 0.06000
N 	N 	0.03400 0.19858 0.20974 -0.10300
O 	O 	0.79406 0.47571 0.91990 -0.36100
N 	N 	0.74307 0.96052 0.88254 -0.10700
Ni	Ni	0.60554 0.78101 0.80223 1.11300
C 	C 	0.87887 0.27329 0.65609 0.31000
C 	C 	0.51451 0.82062 0.75012 0.30200
C 	C 	0.68860 0.67956 0.76614 0.29800
C 	C 	0.61744 0.95833 0.81520 0.27100
O 	O 	0.59442 0.87977 0.82587 -0.35400
C 	C 	0.02452 0.98166 0.23224 0.25000
O 	O 	0.91189 0.01625 0.30461 -0.35100
O 	O 	0.97622 0.02215 0.24715 -0.32600
O 	O 	0.88308 0.88840 0.28288 -0.37200
H 	H 	0.07380 0.88448 0.19393 0.05100
C 	C 	0.45573 0.89720 0.68765 -0.00600
C 	C 	0.42944 0.82592 0.70550 0.00600
H 	H 	0.46468 0.88835 0.66615 0.05200
H 	H 	0.86939 0.67947 0.73721 0.05800
C 	C 	0.73668 0.44138 0.07728 -0.02500
C 	C 	0.70592 0.37518 0.05707 -0.01100
C 	C 	0.87823 0.59743 0.88727 -0.07100
C 	C 	0.84473 0.71649 0.85418 -0.05800
C 	C 	0.80708 0.76715 0.83577 0.29000
O 	O 	0.05472 0.92393 0.24364 -0.37300
N 	N 	0.84064 0.74441 0.35842 -0.12400
C 	C 	0.77429 0.33060 0.05499 -0.02600
H 	H 	0.74713 0.27520 0.04065 0.04300
C 	C 	0.92657 0.61463 0.86109 -0.00300
C 	C 	0.90925 0.67375 0.84427 0.00200
H 	H 	0.87939 0.53556 0.10390 0.05800
C 	C 	0.85027 0.47809 0.09029 -0.04000
O 	O 	0.62853 0.85865 0.74323 -0.37800
O 	O 	0.79281 0.71960 0.77935 -0.37700
O 	O 	0.62522 0.96867 0.78859 -0.38200
Ni	Ni	0.05546 0.09784 0.28146 1.11500
C 	C 	0.95549 0.33515 0.63580 -0.09600
H 	H 	0.96066 0.27940 0.56922 0.05600
C 	C 	0.01293 0.35179 0.56634 -0.04400
C 	C 	0.96175 0.69248 0.81756 0.08400
O 	O 	0.75585 0.87451 0.78868 -0.70400
H 	H 	0.78292 0.90940 0.80575 0.14700
Ni	Ni	0.05542 0.91073 0.28443 1.11500
C 	C 	0.41414 0.74127 0.69514 0.09100
H 	H 	0.96300 0.57366 0.85274 0.05100
C 	C 	0.93474 0.78790 0.36873 0.11100
O 	O 	0.04844 0.90570 0.32578 -0.37300
C 	C 	0.88755 0.36668 0.06796 -0.03900
O 	O 	0.89247 0.83947 0.82384 -0.37900
N 	N 	0.00493 0.70741 0.79626 -0.11900
C 	C 	0.92929 0.44463 0.08405 0.02000
C 	C 	0.00421 0.37522 0.61538 0.04300
H 	H 	0.00552 0.34029 0.52275 0.04200
