data_crystal

_cell_length_a 32.43622
_cell_length_b 28.08807
_cell_length_c 19.54276
_cell_angle_alpha 92.67390
_cell_angle_beta  85.31957
_cell_angle_gamma 124.33376

_symmetry_space_group_name_	'P 1'
_symmetry_space_group_name_H-M	'P 1'

loop_
_symmetry_equiv_pos_as_xyz
  x,y,z

loop_
_atom_site_label
_atom_site_type_symbol
_atom_site_fract_x
_atom_site_fract_y
_atom_site_fract_z
_atom_site_charge
N 	N 	0.01589 0.00809 0.88479 -0.13800
C 	C 	0.15073 0.07955 0.98503 0.03300
C 	C 	0.10439 0.04233 0.02113 -0.05800
C 	C 	0.05989 0.01886 0.98881 -0.03200
C 	C 	0.06121 0.03359 0.92032 0.06600
C 	C 	0.10740 0.07252 0.88539 -0.05600
C 	C 	0.15194 0.09467 0.91701 -0.04000
C 	C 	0.90884 0.86253 0.95003 -0.02900
H 	H 	0.10288 0.03130 0.07408 0.04600
H 	H 	0.02458 0.99019 0.01730 0.03000
H 	H 	0.10875 0.08511 0.83336 0.04800
H 	H 	0.18740 0.12302 0.88837 0.04500
H 	H 	0.01398 0.92801 0.80311 0.04700
H 	H 	0.87966 0.84444 0.99125 0.04300
C 	C 	0.15696 0.09802 0.61844 0.00700
C 	C 	0.13003 0.06997 0.67992 -0.02900
C 	C 	0.07874 0.04606 0.68860 -0.06600
C 	C 	0.05364 0.04929 0.63579 0.07600
C 	C 	0.08087 0.07807 0.57429 -0.06700
C 	C 	0.13228 0.10269 0.56610 -0.02800
C 	C 	0.90434 0.86296 0.67886 -0.03000
H 	H 	0.14865 0.06575 0.72045 0.03900
H 	H 	0.05809 0.02361 0.73572 0.05200
H 	H 	0.06216 0.07997 0.53224 0.05000
H 	H 	0.15282 0.12455 0.51858 0.04000
H 	H 	0.01674 0.95829 0.54838 0.04500
H 	H 	0.91953 0.94238 0.72317 0.04900
H 	H 	0.87257 0.83635 0.71473 0.04200
Co	Co	0.68821 0.29929 0.95012 1.18800
O 	O 	0.73954 0.29420 0.88362 -0.37100
Co	Co	0.58492 0.29279 0.00709 1.18600
O 	O 	0.61558 0.25465 0.92634 -0.45900
O 	O 	0.63884 0.37693 0.99642 -0.39100
O 	O 	0.69314 0.22655 0.95485 -0.34000
C 	C 	0.68336 0.39994 0.96249 0.35500
O 	O 	0.56809 0.28064 0.90110 -0.32500
C 	C 	0.49875 0.23617 0.07532 0.29800
C 	C 	0.67150 0.31529 0.08329 0.32700
O 	O 	0.52951 0.29158 0.07181 -0.36000
O 	O 	0.51758 0.21210 0.03977 -0.34100
O 	O 	0.71383 0.33141 0.05031 -0.34800
O 	O 	0.63402 0.27959 0.04728 -0.46300
O 	O 	0.69323 0.36898 0.91985 -0.52900
C 	C 	0.72744 0.24493 0.90536 0.30100
C 	C 	0.59713 0.26483 0.87735 0.33400
H 	H 	0.71332 0.38674 0.87482 0.18700
Co	Co	0.71562 0.31577 0.46772 1.18600
O 	O 	0.77314 0.31506 0.41167 -0.37300
Co	Co	0.61434 0.31741 0.50786 1.18800
O 	O 	0.65223 0.29141 0.42124 -0.43800
O 	O 	0.67285 0.39576 0.53081 -0.41300
O 	O 	0.71070 0.23673 0.45299 -0.32400
C 	C 	0.72029 0.42066 0.50732 0.33900
O 	O 	0.61844 0.33637 0.40184 -0.34500
C 	C 	0.52146 0.25948 0.55130 0.29500
C 	C 	0.67732 0.30321 0.59704 0.33000
O 	O 	0.55504 0.31213 0.56686 -0.36000
O 	O 	0.54007 0.23907 0.50827 -0.32400
O 	O 	0.72238 0.31927 0.57650 -0.34500
O 	O 	0.64760 0.28254 0.54768 -0.45200
O 	O 	0.73421 0.39612 0.45966 -0.53400
C 	C 	0.75316 0.26045 0.41788 0.29800
C 	C 	0.64731 0.32062 0.37711 0.32400
H 	H 	0.76271 0.42126 0.42466 0.17300
C 	C 	0.62021 0.27726 0.80656 -0.12100
C 	C 	0.62812 0.32377 0.76864 0.18500
C 	C 	0.64663 0.33147 0.70009 -0.05600
C 	C 	0.65926 0.29493 0.66945 -0.11000
C 	C 	0.65367 0.25031 0.70793 0.18800
C 	C 	0.63418 0.24165 0.77615 -0.05300
H 	H 	0.65194 0.36660 0.67085 0.06700
H 	H 	0.62919 0.20664 0.80529 0.07300
Cl	Cl	0.61904 0.37553 0.80712 -0.32100
Cl	Cl	0.66983 0.20408 0.67085 -0.30400
C 	C 	0.66650 0.31621 0.15876 -0.10700
C 	C 	0.69649 0.36799 0.19499 0.18200
C 	C 	0.69167 0.36822 0.26674 -0.04900
C 	C 	0.65675 0.31735 0.30294 -0.10800
C 	C 	0.62699 0.26543 0.26686 0.18500
C 	C 	0.63202 0.26505 0.19506 -0.04700
H 	H 	0.71419 0.40839 0.29437 0.06500
H 	H 	0.60906 0.22497 0.16753 0.08200
Cl	Cl	0.73826 0.43356 0.15105 -0.33500
Cl	Cl	0.58210 0.20093 0.31077 -0.30400
C 	C 	0.83541 0.65811 0.58371 0.05300
N 	N 	0.83240 0.69475 0.54438 -0.11100
C 	C 	0.85695 0.75191 0.55917 0.02400
C 	C 	0.88623 0.77463 0.61589 -0.01400
C 	C 	0.88832 0.73753 0.65858 -0.01900
C 	C 	0.86281 0.67896 0.64257 -0.05100
H 	H 	0.85459 0.77998 0.52594 0.03400
H 	H 	0.91060 0.75422 0.70290 0.03600
H 	H 	0.86534 0.65033 0.67454 0.05500
C 	C 	0.75612 0.48153 0.52542 -0.13000
C 	C 	0.77855 0.52409 0.47459 0.04400
C 	C 	0.80635 0.58202 0.49331 -0.07900
C 	C 	0.81073 0.59715 0.56309 0.07100
N 	N 	0.78953 0.55508 0.61187 -0.12000
C 	C 	0.76269 0.49817 0.59458 0.08300
H 	H 	0.77292 0.51239 0.42090 0.02400
H 	H 	0.82348 0.61497 0.45394 0.06200
H 	H 	0.74538 0.46583 0.63465 0.02800
C 	C 	0.86440 0.16794 0.47117 0.05500
N 	N 	0.84547 0.13538 0.52938 -0.10200
C 	C 	0.86872 0.11318 0.55595 0.02500
H 	H 	0.85275 0.08768 0.60246 0.03900
C 	C 	0.78355 0.23639 0.41790 -0.09700
C 	C 	0.83585 0.27283 0.41754 0.03600
C 	C 	0.86311 0.25018 0.43122 -0.07800
C 	C 	0.83784 0.19103 0.44462 0.07100
N 	N 	0.78728 0.15588 0.44098 -0.11000
C 	C 	0.76002 0.17699 0.42715 0.07500
H 	H 	0.85511 0.31879 0.40977 0.03800
H 	H 	0.90326 0.27870 0.43445 0.05400
H 	H 	0.71977 0.14785 0.42601 0.04800
C 	C 	0.36535 0.18653 0.58004 0.07000
N 	N 	0.39939 0.24384 0.59088 -0.11200
C 	C 	0.44950 0.26793 0.58229 0.07200
C 	C 	0.46732 0.23373 0.56179 -0.09500
C 	C 	0.43294 0.17455 0.55188 0.03700
C 	C 	0.38183 0.15070 0.56155 -0.07600
H 	H 	0.47542 0.31371 0.59088 0.04400
H 	H 	0.44576 0.14703 0.53735 0.04800
H 	H 	0.35524 0.10471 0.55526 0.05700
C 	C 	0.21054 0.12036 0.60772 -0.01300
C 	C 	0.22761 0.10164 0.55167 -0.01700
C 	C 	0.27825 0.12312 0.54211 -0.05700
C 	C 	0.31149 0.16250 0.58964 0.05500
N 	N 	0.29422 0.18061 0.64357 -0.10400
C 	C 	0.24492 0.16046 0.65355 0.02400
H 	H 	0.20173 0.07063 0.51563 0.03700
H 	H 	0.29167 0.10977 0.49777 0.05000
H 	H 	0.23249 0.17581 0.69690 0.03500
C 	C 	0.78382 0.58188 0.94370 0.07500
N 	N 	0.73389 0.55554 0.93741 -0.11200
C 	C 	0.70089 0.49754 0.94579 0.09000
C 	C 	0.71799 0.46327 0.96024 -0.11600
C 	C 	0.76910 0.48950 0.96681 0.05000
C 	C 	0.80220 0.54897 0.95857 -0.07800
H 	H 	0.66156 0.47790 0.93946 0.05000
H 	H 	0.78317 0.46382 0.97754 0.03500
H 	H 	0.84189 0.56927 0.96272 0.05900
C 	C 	0.88151 0.76310 0.91376 -0.01600
C 	C 	0.88361 0.73869 0.97307 -0.01100
C 	C 	0.85187 0.67932 0.98311 -0.05000
C 	C 	0.81828 0.64459 0.93341 0.05300
N 	N 	0.81668 0.66914 0.87599 -0.10400
C 	C 	0.84757 0.72709 0.86504 0.02400
H 	H 	0.85296 0.66043 0.02944 0.04600
H 	H 	0.84538 0.74523 0.81886 0.03400
C 	C 	0.85722 0.16717 0.89195 0.05500
N 	N 	0.84633 0.12670 0.93911 -0.10300
C 	C 	0.87402 0.10422 0.94053 0.02500
C 	C 	0.91486 0.12243 0.89278 -0.01300
C 	C 	0.89771 0.18625 0.84314 -0.05600
H 	H 	0.86366 0.07132 0.97789 0.03800
H 	H 	0.90585 0.21696 0.80390 0.04900
C 	C 	0.76121 0.22547 0.89637 -0.09900
C 	C 	0.81275 0.26509 0.88272 0.04000
C 	C 	0.84454 0.24635 0.88030 -0.07800
C 	C 	0.82433 0.18768 0.89016 0.07200
N 	N 	0.77399 0.14975 0.90247 -0.11100
C 	C 	0.74238 0.16724 0.90560 0.07700
H 	H 	0.82830 0.31043 0.87609 0.03900
H 	H 	0.88459 0.27734 0.87258 0.05500
H 	H 	0.70261 0.13591 0.91594 0.04200
C 	C 	0.34246 0.16084 0.07903 0.06900
N 	N 	0.37421 0.21610 0.10097 -0.11300
C 	C 	0.42400 0.23988 0.10472 0.07100
C 	C 	0.44403 0.20782 0.08481 -0.09800
C 	C 	0.41147 0.14988 0.06641 0.03600
C 	C 	0.36079 0.12653 0.06243 -0.07700
H 	H 	0.44821 0.28430 0.12092 0.04200
H 	H 	0.42572 0.12374 0.05210 0.04400
H 	H 	0.33649 0.08304 0.04330 0.05500
C 	C 	0.19799 0.10094 0.01744 -0.02400
C 	C 	0.20505 0.06247 0.04892 -0.01400
C 	C 	0.25134 0.08242 0.07350 -0.05900
C 	C 	0.29105 0.14048 0.06386 0.05500
N 	N 	0.28271 0.17782 0.03638 -0.10400
C 	C 	0.23736 0.15955 0.01385 0.01900
H 	H 	0.17517 0.01709 0.05296 0.03500
H 	H 	0.25659 0.05280 0.09858 0.04800
H 	H 	0.23219 0.19038 0.99189 0.04200
C 	C 	0.91289 0.12295 0.52309 -0.01400
C 	C 	0.90834 0.17823 0.43652 -0.05700
C 	C 	0.91379 0.82612 0.90365 0.00900
H 	H 	0.93131 0.07042 0.78420 0.04000
C 	C 	0.91781 0.83737 0.62655 0.00700
H 	H 	0.92299 0.03954 0.46755 0.04300
H 	H 	0.90958 0.76570 0.01135 0.03100
C 	C 	0.92687 0.16424 0.84415 -0.01700
C 	C 	0.93100 0.92301 0.68376 -0.06400
H 	H 	0.92330 0.20319 0.38954 0.04700
C 	C 	0.94276 0.09511 0.89085 0.00800
C 	C 	0.94203 0.92233 0.94409 -0.06500
H 	H 	0.93824 0.94976 0.98097 0.04900
C 	C 	0.93801 0.09874 0.55172 0.00900
C 	C 	0.93894 0.05451 0.51693 -0.03100
C 	C 	0.93264 0.15563 0.46274 -0.01800
C 	C 	0.94822 0.07043 0.82974 -0.02700
C 	C 	0.95139 0.85004 0.85008 -0.03100
H 	H 	0.95522 0.82228 0.81363 0.03900
H 	H 	0.95814 0.17884 0.80654 0.03600
H 	H 	0.95909 0.11156 0.99783 0.04200
C 	C 	0.95991 0.02900 0.54621 -0.05800
C 	C 	0.95950 0.11845 0.61507 -0.02900
C 	C 	0.95902 0.87214 0.58046 -0.03100
H 	H 	0.96108 0.99560 0.51826 0.04300
H 	H 	0.95966 0.15324 0.64178 0.04000
C 	C 	0.96299 0.09255 0.95033 -0.02800
C 	C 	0.97479 0.04489 0.82751 -0.06800
C 	C 	0.97192 0.95799 0.63724 0.06900
H 	H 	0.96953 0.85265 0.53977 0.04000
H 	H 	0.96666 0.16354 0.43637 0.03700
H 	H 	0.97986 0.02727 0.77984 0.05600
C 	C 	0.98092 0.94639 0.89177 0.07200
C 	C 	0.97965 0.04717 0.61126 0.07500
C 	C 	0.98080 0.09328 0.64414 -0.06600
C 	C 	0.98764 0.06463 0.94883 -0.06500
C 	C 	0.98486 0.90989 0.84433 -0.06100
C 	C 	0.98592 0.93207 0.58555 -0.06400
C 	C 	0.99357 0.04046 0.88707 0.08100
H 	H 	0.99872 0.10996 0.69194 0.05100
H 	H 	0.00132 0.06110 0.99563 0.05000
N 	N 	0.99985 0.02005 0.64400 -0.13800
