data_crystal

_cell_length_a 26.14777
_cell_length_b 26.39822
_cell_length_c 36.80510
_cell_angle_alpha 95.53873
_cell_angle_beta  95.53566
_cell_angle_gamma 125.76543

_symmetry_space_group_name_	'P 1'
_symmetry_space_group_name_H-M	'P 1'

loop_
_symmetry_equiv_pos_as_xyz
  x,y,z

loop_
_atom_site_label
_atom_site_type_symbol
_atom_site_fract_x
_atom_site_fract_y
_atom_site_fract_z
_atom_site_charge
C 	C 	0.96990 0.03021 0.99896 0.13500
N 	N 	0.93376 0.96670 0.99851 -0.11600
C 	C 	0.96133 0.93632 0.99829 0.15500
N 	N 	0.02552 0.96987 0.99993 -0.11700
C 	C 	0.06183 0.03327 0.00038 0.15800
N 	N 	0.03406 0.06355 0.99991 -0.12500
C 	C 	0.94033 0.00074 0.46319 0.13800
N 	N 	0.00501 0.03535 0.46631 -0.12600
C 	C 	0.03448 0.00715 0.47048 0.14700
N 	N 	0.99928 0.94431 0.47188 -0.11600
C 	C 	0.93459 0.90943 0.46857 0.16000
N 	N 	0.90499 0.93754 0.46398 -0.11300
Cu	Cu	0.64061 0.24127 0.99964 0.93000
Cu	Cu	0.68816 0.24636 0.92041 0.87600
Cu	Cu	0.66883 0.33942 0.95137 0.90000
Cu	Cu	0.64604 0.36075 0.02724 0.91300
C 	C 	0.66379 0.28798 0.07790 0.30900
O 	O 	0.54800 0.20535 0.00168 -0.34000
C 	C 	0.65129 0.30005 0.87036 0.30600
O 	O 	0.69308 0.34015 0.00257 -0.63500
O 	O 	0.62775 0.24675 0.94676 -0.63900
O 	O 	0.68073 0.19651 0.99514 -0.35100
O 	O 	0.74979 0.26586 0.96172 -0.42900
O 	O 	0.63665 0.31571 0.06956 -0.35300
O 	O 	0.71516 0.43054 0.95790 -0.37000
C 	C 	0.71928 0.46762 0.98666 0.31000
C 	C 	0.52356 0.23407 0.99037 0.29700
O 	O 	0.56175 0.29268 0.98510 -0.37600
O 	O 	0.68316 0.44428 0.01206 -0.35400
O 	O 	0.66646 0.25179 0.05200 -0.33500
C 	C 	0.73500 0.22381 0.98294 0.31000
O 	O 	0.65259 0.33758 0.89762 -0.36600
O 	O 	0.64699 0.24927 0.87591 -0.40600
H 	H 	0.73991 0.36766 0.01228 0.18600
H 	H 	0.58280 0.21899 0.93306 0.18400
Cu	Cu	0.73607 0.33668 0.45089 0.93200
Cu	Cu	0.74274 0.29702 0.53186 0.88000
Cu	Cu	0.63836 0.30304 0.50093 0.90100
Cu	Cu	0.60708 0.31791 0.42472 0.90900
C 	C 	0.68298 0.30691 0.37314 0.30800
O 	O 	0.76293 0.42541 0.44736 -0.34400
C 	C 	0.68340 0.32745 0.58182 0.30500
O 	O 	0.63649 0.27807 0.44976 -0.63900
O 	O 	0.73274 0.35029 0.50402 -0.63800
O 	O 	0.78943 0.30531 0.45521 -0.34300
O 	O 	0.72847 0.23653 0.49187 -0.42700
O 	O 	0.65214 0.33057 0.38178 -0.35900
O 	O 	0.54603 0.25123 0.49600 -0.37400
C 	C 	0.50617 0.25196 0.47148 0.31400
C 	C 	0.73104 0.44586 0.45955 0.29700
O 	O 	0.67265 0.40491 0.46547 -0.36700
O 	O 	0.52145 0.27197 0.43985 -0.36000
O 	O 	0.72386 0.30934 0.39861 -0.34700
C 	C 	0.76926 0.25402 0.46918 0.30700
O 	O 	0.64265 0.32217 0.55462 -0.36400
O 	O 	0.73677 0.33622 0.57602 -0.40100
H 	H 	0.61169 0.23164 0.44102 0.17500
H 	H 	0.75813 0.39524 0.51678 0.18600
C 	C 	0.65719 0.33752 0.68903 0.00500
C 	C 	0.70888 0.38484 0.71713 -0.02600
C 	C 	0.70430 0.38137 0.75449 -0.02600
C 	C 	0.64804 0.33054 0.76389 0.00400
C 	C 	0.59494 0.28546 0.73583 -0.02600
C 	C 	0.59951 0.28894 0.69846 -0.02700
C 	C 	0.64799 0.31984 0.80152 0.05600
C 	C 	0.64854 0.31140 0.83313 -0.09200
C 	C 	0.66599 0.33441 0.65107 0.05600
C 	C 	0.67353 0.33195 0.61932 -0.08900
H 	H 	0.75347 0.42281 0.71007 0.05600
H 	H 	0.74544 0.41664 0.77602 0.05500
H 	H 	0.55112 0.24623 0.74287 0.05600
H 	H 	0.55915 0.25244 0.67689 0.05700
C 	C 	0.68580 0.27325 0.18669 0.01100
C 	C 	0.74311 0.31920 0.21184 -0.02400
C 	C 	0.74490 0.32125 0.25011 -0.02300
C 	C 	0.68937 0.27735 0.26333 0.00700
C 	C 	0.63332 0.22886 0.23810 -0.02400
C 	C 	0.63154 0.22680 0.19986 -0.02400
C 	C 	0.68741 0.28709 0.30220 0.06000
C 	C 	0.68568 0.29518 0.33474 -0.07900
C 	C 	0.67998 0.27902 0.14826 0.06200
C 	C 	0.67385 0.28283 0.11597 -0.06900
H 	H 	0.78541 0.35499 0.20187 0.06100
H 	H 	0.78860 0.35858 0.26943 0.06200
H 	H 	0.59033 0.19447 0.24810 0.05600
H 	H 	0.58716 0.19084 0.18058 0.06200
C 	C 	0.86374 0.75335 0.50088 -0.05500
C 	C 	0.84084 0.71136 0.46684 0.02000
C 	C 	0.84455 0.73402 0.43328 0.07700
C 	C 	0.87175 0.79838 0.43417 -0.02700
C 	C 	0.89654 0.84072 0.46821 -0.02300
C 	C 	0.89179 0.81791 0.50175 0.10500
C 	C 	0.81253 0.64352 0.46645 0.03200
N 	N 	0.82211 0.69211 0.39826 -0.01900
H 	H 	0.87586 0.81592 0.40835 0.08300
N 	N 	0.91609 0.86035 0.53675 -0.02300
H 	H 	0.86008 0.73592 0.52672 0.08700
C 	C 	0.85154 0.62521 0.47811 0.06200
C 	C 	0.82410 0.56064 0.47665 -0.00200
C 	C 	0.75830 0.51387 0.46278 -0.08400
C 	C 	0.71942 0.53234 0.45083 0.12500
C 	C 	0.74649 0.59698 0.45357 -0.06900
N 	N 	0.91919 0.67197 0.49090 -0.01700
H 	H 	0.85426 0.54687 0.48579 0.06600
N 	N 	0.65321 0.48564 0.43417 -0.02500
H 	H 	0.71643 0.61090 0.44449 0.09200
O 	O 	0.95696 0.86350 0.56184 -0.06800
O 	O 	0.89408 0.89255 0.54450 -0.06000
O 	O 	0.77904 0.68587 0.37333 -0.07600
O 	O 	0.84801 0.66378 0.39028 -0.07100
O 	O 	0.63752 0.45032 0.40191 -0.10100
O 	O 	0.60895 0.48246 0.44959 -0.07500
O 	O 	0.94575 0.67565 0.52377 -0.08200
O 	O 	0.95487 0.70768 0.46873 -0.07000
C 	C 	0.84649 0.06533 0.48109 -0.05700
C 	C 	0.85668 0.09923 0.45211 0.01800
C 	C 	0.89163 0.09792 0.42563 0.07500
C 	C 	0.91769 0.06449 0.42912 -0.03300
C 	C 	0.90872 0.03179 0.45859 -0.02400
C 	C 	0.87264 0.03202 0.48462 0.09700
C 	C 	0.83426 0.13936 0.45112 0.03200
N 	N 	0.90110 0.13081 0.39529 -0.01900
H 	H 	0.94497 0.06399 0.40888 0.07700
N 	N 	0.86490 0.00093 0.51561 -0.02800
H 	H 	0.81989 0.06647 0.50159 0.08100
C 	C 	0.76812 0.11137 0.44371 0.05600
C 	C 	0.74748 0.14972 0.44816 -0.00000
C 	C 	0.79218 0.21588 0.45955 -0.09300
C 	C 	0.85843 0.24412 0.46518 0.12200
C 	C 	0.87906 0.20575 0.46078 -0.07200
N 	N 	0.72175 0.04393 0.43216 -0.01600
H 	H 	0.69653 0.12790 0.44317 0.06200
N 	N 	0.90488 0.31141 0.47701 -0.02300
H 	H 	0.92997 0.22746 0.46629 0.08800
O 	O 	0.80771 0.95547 0.52009 -0.05700
O 	O 	0.91451 0.02162 0.54097 -0.07900
O 	O 	0.95876 0.17135 0.38926 -0.08200
O 	O 	0.85190 0.11738 0.37236 -0.07500
O 	O 	0.90959 0.33864 0.50984 -0.11000
O 	O 	0.94636 0.34445 0.45643 -0.07500
O 	O 	0.67472 0.01232 0.44985 -0.09100
O 	O 	0.72448 0.01466 0.40275 -0.07700
C 	C 	0.19622 0.06076 0.44959 -0.05200
C 	C 	0.23793 0.11424 0.47793 0.01700
C 	C 	0.21262 0.13281 0.50371 0.07700
C 	C 	0.14597 0.09806 0.50063 -0.03100
C 	C 	0.10428 0.04429 0.47246 -0.02100
C 	C 	0.12961 0.02583 0.44662 0.08800
C 	C 	0.30804 0.15190 0.47962 0.03400
N 	N 	0.25447 0.18663 0.53322 -0.01900
H 	H 	0.12663 0.11221 0.52061 0.08100
N 	N 	0.08782 0.97255 0.41681 -0.01400
H 	H 	0.21556 0.04685 0.42948 0.08200
C 	C 	0.34122 0.12666 0.48940 0.05700
C 	C 	0.40641 0.16047 0.48753 0.00000
C 	C 	0.43920 0.21978 0.47653 -0.08700
C 	C 	0.40672 0.24642 0.46855 0.12600
C 	C 	0.34114 0.21189 0.46957 -0.07300
N 	N 	0.30867 0.06643 0.50094 -0.01600
H 	H 	0.43131 0.14011 0.49414 0.06500
N 	N 	0.44046 0.30901 0.46014 -0.02400
H 	H 	0.31594 0.23183 0.46263 0.09100
O 	O 	0.09281 0.92622 0.41228 -0.06400
O 	O 	0.04794 0.97244 0.39271 -0.07200
O 	O 	0.24880 0.23251 0.53758 -0.08000
O 	O 	0.29523 0.18774 0.55719 -0.07500
O 	O 	0.48981 0.35722 0.48379 -0.07700
O 	O 	0.41907 0.31842 0.43011 -0.07700
O 	O 	0.31011 0.02171 0.48416 -0.08800
O 	O 	0.28090 0.05758 0.52961 -0.07600
C 	C 	0.83357 0.64567 0.01845 -0.06500
C 	C 	0.81668 0.66617 0.98897 0.02800
C 	C 	0.76938 0.62126 0.95800 0.06000
C 	C 	0.73978 0.55647 0.95681 0.00200
C 	C 	0.75571 0.53590 0.98664 -0.09000
C 	C 	0.80328 0.58080 0.01750 0.12800
C 	C 	0.85062 0.73484 0.98998 0.01600
N 	N 	0.75066 0.64130 0.92799 -0.01700
H 	H 	0.70282 0.52195 0.93319 0.07000
N 	N 	0.82153 0.56067 0.04768 -0.02600
H 	H 	0.87070 0.68023 0.04200 0.08900
C 	C 	0.84199 0.77103 0.01585 0.07900
C 	C 	0.87786 0.83687 0.01804 -0.02300
C 	C 	0.92126 0.86675 0.99412 -0.03000
C 	C 	0.92745 0.83002 0.96700 0.10500
C 	C 	0.89324 0.76458 0.96567 -0.05700
N 	N 	0.79686 0.74100 0.03994 -0.01900
H 	H 	0.87219 0.86482 0.03850 0.08000
N 	N 	0.96697 0.85877 0.94009 -0.02500
H 	H 	0.89918 0.73665 0.94537 0.08600
O 	O 	0.82182 0.58000 0.08163 -0.08100
O 	O 	0.84218 0.52678 0.04150 -0.10200
O 	O 	0.75286 0.62442 0.89412 -0.08300
O 	O 	0.72736 0.67273 0.93417 -0.07100
O 	O 	0.95496 0.88730 0.91768 -0.05700
O 	O 	0.01222 0.85274 0.93633 -0.06400
O 	O 	0.81536 0.76088 0.07573 -0.07700
O 	O 	0.73654 0.69655 0.02599 -0.06800
C 	C 	0.81269 0.15146 0.02267 -0.07200
C 	C 	0.84426 0.15078 0.99411 0.03100
C 	C 	0.84233 0.17675 0.96278 0.05300
C 	C 	0.80630 0.20011 0.95943 0.00100
C 	C 	0.77392 0.20017 0.98773 -0.10500
C 	C 	0.77889 0.17745 0.02010 0.13400
C 	C 	0.87628 0.11967 0.99605 0.00900
N 	N 	0.87696 0.17938 0.93424 -0.01600
H 	H 	0.80351 0.21826 0.93471 0.04600
N 	N 	0.75237 0.18340 0.05103 -0.02200
H 	H 	0.81505 0.13251 0.04711 0.08900
C 	C 	0.93357 0.14736 0.02179 0.08300
C 	C 	0.96424 0.11811 0.02228 -0.03700
C 	C 	0.93905 0.06222 0.99679 -0.02100
C 	C 	0.88276 0.03565 0.97033 0.08700
C 	C 	0.85081 0.06350 0.97082 -0.05100
N 	N 	0.96100 0.20543 0.04723 -0.02000
H 	H 	0.00766 0.13887 0.04254 0.08500
N 	N 	0.85926 0.98178 0.94207 -0.01400
H 	H 	0.80720 0.04259 0.95071 0.08000
O 	O 	0.77585 0.23946 0.06949 -0.07900
O 	O 	0.70904 0.13292 0.06286 -0.08000
O 	O 	0.84717 0.15440 0.89985 -0.09400
O 	O 	0.93886 0.21008 0.94230 -0.07700
O 	O 	0.89541 0.98497 0.91907 -0.05600
O 	O 	0.80029 0.93116 0.93774 -0.07000
O 	O 	0.97155 0.20773 0.08283 -0.08400
O 	O 	0.97964 0.25705 0.03476 -0.07300
C 	C 	0.37476 0.21073 0.01438 -0.06700
C 	C 	0.32634 0.15098 0.99258 0.02800
C 	C 	0.34270 0.11871 0.96943 0.06000
C 	C 	0.40744 0.14631 0.96880 0.00100
C 	C 	0.45585 0.20577 0.99101 -0.09300
C 	C 	0.43928 0.23800 0.01397 0.13100
C 	C 	0.25873 0.12173 0.99493 0.01700
N 	N 	0.29374 0.05799 0.94656 -0.01600
H 	H 	0.42001 0.12140 0.95111 0.05900
N 	N 	0.48802 0.29733 0.03801 -0.03200
H 	H 	0.36228 0.23553 0.03225 0.08900
C 	C 	0.23441 0.09591 0.02628 0.07700
C 	C 	0.17056 0.06957 0.02849 -0.02200
C 	C 	0.13048 0.06820 0.99959 -0.03700
C 	C 	0.15504 0.09480 0.96846 0.10600
C 	C 	0.21918 0.12190 0.96646 -0.05800
N 	N 	0.27442 0.09611 0.05583 -0.01900
H 	H 	0.15170 0.04887 0.05237 0.07400
N 	N 	0.11457 0.09301 0.93844 -0.02200
H 	H 	0.23800 0.14226 0.94249 0.08600
O 	O 	0.51178 0.29811 0.07095 -0.09100
O 	O 	0.50407 0.35024 0.02842 -0.09500
O 	O 	0.29071 0.04982 0.91078 -0.08600
O 	O 	0.25513 0.00982 0.96171 -0.07600
O 	O 	0.06603 0.03874 0.91855 -0.06300
O 	O 	0.12922 0.14570 0.92917 -0.07400
O 	O 	0.28274 0.12282 0.08964 -0.08300
O 	O 	0.29886 0.06585 0.04940 -0.07500
