data_crystal

_cell_length_a 26.39682
_cell_length_b 28.80977
_cell_length_c 38.17144
_cell_angle_alpha 60.88845
_cell_angle_beta  118.81333
_cell_angle_gamma 133.18395

_symmetry_space_group_name_	'P 1'
_symmetry_space_group_name_H-M	'P 1'

loop_
_symmetry_equiv_pos_as_xyz
  x,y,z

loop_
_atom_site_label
_atom_site_type_symbol
_atom_site_fract_x
_atom_site_fract_y
_atom_site_fract_z
_atom_site_charge
C 	C 	0.76701 0.36668 0.00978 0.12800
N 	N 	0.69693 0.34266 0.99752 -0.12900
C 	C 	0.67643 0.37193 0.00135 0.12600
N 	N 	0.72639 0.42691 0.01564 -0.13400
C 	C 	0.79644 0.45195 0.02716 0.13000
N 	N 	0.81696 0.42151 0.02467 -0.13100
C 	C 	0.75446 0.32454 0.52018 0.12700
N 	N 	0.68412 0.29851 0.51075 -0.13400
C 	C 	0.66444 0.32752 0.51571 0.13000
N 	N 	0.71508 0.38208 0.53049 -0.13400
C 	C 	0.78520 0.40855 0.53971 0.13000
N 	N 	0.80517 0.37999 0.53446 -0.13300
C 	C 	0.26636 0.63086 0.22076 0.12900
N 	N 	0.22750 0.56442 0.22950 -0.13400
C 	C 	0.24794 0.53688 0.22365 0.13100
N 	N 	0.30673 0.57579 0.20883 -0.13500
C 	C 	0.34353 0.64191 0.19813 0.13000
N 	N 	0.32387 0.66965 0.20449 -0.13500
C 	C 	0.26577 0.58836 0.75037 0.12900
N 	N 	0.21103 0.53147 0.73815 -0.13200
C 	C 	0.22480 0.50018 0.73048 0.13100
N 	N 	0.29307 0.52604 0.73455 -0.13500
C 	C 	0.34800 0.58286 0.74662 0.13000
N 	N 	0.33436 0.61333 0.75542 -0.13300
Co	Co	0.08111 0.05949 0.06829 1.18800
Co	Co	0.98248 0.06664 0.09212 1.18000
C 	C 	0.23990 0.14935 0.06909 0.29800
Co	Co	0.17143 0.00873 0.08581 1.17000
O 	O 	0.03479 0.10412 0.04976 -0.44000
C 	C 	0.00506 0.15024 0.13120 0.32200
C 	C 	0.16742 0.92515 0.17288 0.28900
O 	O 	0.14148 0.04733 0.02340 -0.39900
O 	O 	0.03444 0.14722 0.11313 -0.37100
O 	O 	0.20844 0.97118 0.14647 -0.37400
O 	O 	0.12797 0.93195 0.17900 -0.37600
O 	O 	0.10386 0.00805 0.10109 -0.75700
O 	O 	0.24628 0.10180 0.09506 -0.38000
O 	O 	0.18308 0.14567 0.06203 -0.36500
Co	Co	0.05980 0.01575 0.58020 1.19000
Co	Co	0.96815 0.02366 0.61014 1.18100
C 	C 	0.21668 0.09439 0.58038 0.29900
Co	Co	0.13230 0.95327 0.58749 1.16800
O 	O 	0.02333 0.06649 0.56787 -0.44500
C 	C 	0.98638 0.10029 0.65456 0.25300
C 	C 	0.13811 0.87261 0.67670 0.29400
O 	O 	0.10633 0.00169 0.52744 -0.39800
O 	O 	0.94934 0.04639 0.68119 -0.38000
O 	O 	0.01449 0.10102 0.63302 -0.35300
O 	O 	0.16654 0.90547 0.64470 -0.38100
O 	O 	0.11173 0.89158 0.68408 -0.37800
O 	O 	0.07478 0.95799 0.60813 -0.75600
O 	O 	0.21566 0.04194 0.60259 -0.37500
O 	O 	0.16469 0.09646 0.57513 -0.36800
C 	C 	0.02235 0.00269 0.82567 -0.00800
C 	C 	0.00648 0.98938 0.78944 0.01200
C 	C 	0.07469 0.06950 0.82984 0.09300
N 	N 	0.11670 0.12301 0.83325 -0.10100
H 	H 	0.03058 0.02959 0.76409 0.05200
C 	C 	0.03664 0.02563 0.39865 -0.01500
C 	C 	0.04985 0.03364 0.43630 0.00700
C 	C 	0.02409 0.95897 0.34455 -0.04400
C 	C 	0.01753 0.95909 0.30569 0.04200
C 	C 	0.07429 0.96983 0.29867 0.08400
C 	C 	0.07766 0.08197 0.36885 0.09600
N 	N 	0.11979 0.97844 0.29305 -0.10000
N 	N 	0.11059 0.12706 0.34499 -0.10400
H 	H 	0.09228 0.08143 0.44321 0.04600
H 	H 	0.07134 0.96644 0.36894 0.05900
C 	C 	0.09977 0.32429 0.72710 -0.02000
C 	C 	0.08893 0.33130 0.68535 0.01100
C 	C 	0.10977 0.39248 0.65726 -0.03700
C 	C 	0.14822 0.44794 0.67126 0.00000
C 	C 	0.16608 0.44211 0.71377 -0.01400
C 	C 	0.13829 0.37979 0.74108 -0.01700
C 	C 	0.06253 0.27661 0.67178 0.04200
C 	C 	0.98897 0.22832 0.66186 -0.07300
C 	C 	0.96312 0.17137 0.65474 0.00500
C 	C 	0.01156 0.16321 0.65658 -0.03800
C 	C 	0.08503 0.21375 0.66374 0.00500
C 	C 	0.11078 0.27011 0.67166 -0.03800
C 	C 	0.18688 0.32031 0.68074 0.09800
C 	C 	0.07351 0.26065 0.75594 0.09700
C 	C 	0.17158 0.51113 0.64210 0.09300
N 	N 	0.24782 0.36056 0.68804 -0.10800
N 	N 	0.19031 0.56173 0.61873 -0.09800
N 	N 	0.05237 0.20962 0.77900 -0.10100
H 	H 	0.15032 0.37504 0.77364 0.05400
H 	H 	0.09896 0.39738 0.62484 0.05700
H 	H 	0.95189 0.23411 0.66110 0.06000
H 	H 	0.12234 0.20804 0.66475 0.05300
C 	C 	0.50057 0.59508 0.74916 -0.02200
C 	C 	0.54130 0.66035 0.72661 0.01200
C 	C 	0.52543 0.70325 0.71722 -0.04200
C 	C 	0.46571 0.68032 0.72693 -0.00200
C 	C 	0.42153 0.61348 0.74690 -0.01500
C 	C 	0.44212 0.57252 0.76007 -0.01700
C 	C 	0.59853 0.68375 0.71079 0.02800
C 	C 	0.58664 0.69374 0.66852 -0.06000
C 	C 	0.64452 0.73370 0.65061 0.03300
C 	C 	0.71472 0.76337 0.67527 -0.08400
C 	C 	0.72530 0.74411 0.71827 0.01200
C 	C 	0.66784 0.70596 0.73615 -0.03900
C 	C 	0.63181 0.74655 0.60668 0.08500
C 	C 	0.68098 0.69342 0.78010 0.10000
C 	C 	0.51694 0.55038 0.76002 0.09500
C 	C 	0.44957 0.72544 0.71543 0.09300
N 	N 	0.62164 0.75686 0.57147 -0.09900
N 	N 	0.69137 0.68332 0.81530 -0.10800
N 	N 	0.43698 0.76184 0.70623 -0.10400
N 	N 	0.53010 0.51460 0.76872 -0.10500
H 	H 	0.40993 0.52181 0.77669 0.05500
H 	H 	0.55837 0.75413 0.70106 0.05300
H 	H 	0.53282 0.67403 0.64922 0.06100
C 	C 	0.11658 0.71463 0.72751 -0.03900
C 	C 	0.18897 0.73812 0.74328 0.02900
C 	C 	0.24129 0.80277 0.74772 -0.05900
C 	C 	0.22344 0.84662 0.73067 0.03400
C 	C 	0.15258 0.82534 0.70932 -0.08000
C 	C 	0.09865 0.75823 0.71146 0.00900
C 	C 	0.21152 0.70114 0.74628 0.01200
C 	C 	0.22655 0.71131 0.71161 -0.03900
C 	C 	0.24551 0.67547 0.71290 0.00100
C 	C 	0.25048 0.62935 0.74946 -0.01400
C 	C 	0.23668 0.61989 0.78443 -0.01700
C 	C 	0.21724 0.65560 0.78303 -0.02200
C 	C 	0.25844 0.68533 0.67632 0.09900
C 	C 	0.20265 0.64487 0.81921 0.09500
C 	C 	0.06108 0.64710 0.72500 0.09900
C 	C 	0.27857 0.91406 0.73343 0.08800
N 	N 	0.26879 0.69325 0.64702 -0.09700
N 	N 	0.19093 0.63630 0.84818 -0.10300
N 	N 	0.32273 0.96812 0.73563 -0.09700
N 	N 	0.01662 0.59302 0.72291 -0.10600
H 	H 	0.04342 0.74106 0.69714 0.03700
H 	H 	0.29664 0.82014 0.76164 0.06100
H 	H 	0.22247 0.74661 0.68341 0.05700
H 	H 	0.24031 0.58427 0.81253 0.05300
C 	C 	0.06515 0.23361 0.20834 -0.03900
C 	C 	0.10885 0.30023 0.18873 0.02800
C 	C 	0.12569 0.31746 0.15260 -0.05900
C 	C 	0.09556 0.26884 0.13444 0.03400
C 	C 	0.04906 0.20198 0.15312 -0.08400
C 	C 	0.03629 0.18498 0.19077 0.01700
C 	C 	0.13464 0.35245 0.20469 0.01700
C 	C 	0.19461 0.37221 0.23775 -0.04200
C 	C 	0.22683 0.42851 0.24871 0.00100
C 	C 	0.19997 0.46637 0.22570 -0.01700
C 	C 	0.13478 0.44177 0.19627 -0.01200
C 	C 	0.10229 0.38530 0.18537 -0.03000
C 	C 	0.28908 0.44867 0.28259 0.09000
C 	C 	0.03747 0.36288 0.15320 0.11500
C 	C 	0.04715 0.21474 0.24558 0.10100
C 	C 	0.11100 0.28823 0.09612 0.08600
N 	N 	0.33897 0.46486 0.30972 -0.10400
N 	N 	0.98560 0.34488 0.12740 -0.12600
N 	N 	0.12365 0.30406 0.06545 -0.09400
N 	N 	0.03268 0.19968 0.27537 -0.10400
H 	H 	0.00108 0.13376 0.20541 0.04600
H 	H 	0.16047 0.36887 0.13794 0.06200
H 	H 	0.21757 0.34509 0.25394 0.05800
H 	H 	0.11260 0.46961 0.17944 0.05700
C 	C 	0.60541 0.80914 0.10559 -0.04000
C 	C 	0.57838 0.75636 0.13949 0.02700
C 	C 	0.61603 0.72912 0.16714 -0.05800
C 	C 	0.68551 0.76120 0.16536 0.03100
C 	C 	0.71722 0.82077 0.13575 -0.08400
C 	C 	0.67409 0.83982 0.10325 0.01200
C 	C 	0.51742 0.73618 0.14983 0.01300
C 	C 	0.44752 0.69379 0.12938 -0.04100
C 	C 	0.38934 0.66793 0.14224 -0.00100
C 	C 	0.40120 0.68277 0.17689 -0.01600
C 	C 	0.47082 0.72944 0.19507 -0.01800
C 	C 	0.52898 0.75647 0.18160 -0.02500
C 	C 	0.31758 0.62602 0.11989 0.09100
C 	C 	0.60046 0.80406 0.20099 0.09000
C 	C 	0.56506 0.83469 0.07465 0.09400
C 	C 	0.72596 0.73563 0.19596 0.07700
N 	N 	0.26008 0.59240 0.10203 -0.10300
N 	N 	0.65775 0.84217 0.21648 -0.11300
N 	N 	0.75843 0.71517 0.22048 -0.10200
N 	N 	0.53275 0.85519 0.04987 -0.10900
H 	H 	0.69667 0.88287 0.07852 0.04800
H 	H 	0.59342 0.68597 0.19184 0.06000
H 	H 	0.43850 0.68004 0.10397 0.05600
H 	H 	0.47999 0.74233 0.22097 0.05200
C 	C 	0.12654 0.75789 0.21855 -0.03900
C 	C 	0.19526 0.77459 0.22813 0.03000
C 	C 	0.25533 0.83916 0.23038 -0.05600
C 	C 	0.24687 0.88829 0.21818 0.03400
C 	C 	0.17777 0.87341 0.20180 -0.07600
C 	C 	0.11811 0.80745 0.20536 0.01000
C 	C 	0.20409 0.72849 0.22865 0.01300
C 	C 	0.17925 0.71143 0.19202 -0.03900
C 	C 	0.19734 0.67759 0.18955 -0.00200
C 	C 	0.24108 0.66065 0.22401 -0.01500
C 	C 	0.26267 0.67430 0.26136 -0.01800
C 	C 	0.24391 0.70764 0.26397 -0.02400
C 	C 	0.17122 0.66083 0.15142 0.08900
C 	C 	0.26511 0.71975 0.30296 0.09200
C 	C 	0.06440 0.69049 0.22076 0.09700
C 	C 	0.30921 0.95390 0.22219 0.08800
N 	N 	0.15028 0.64738 0.12089 -0.10300
N 	N 	0.28209 0.72949 0.33419 -0.10400
N 	N 	0.35917 0.00647 0.22541 -0.09600
N 	N 	0.01465 0.63644 0.22256 -0.10000
H 	H 	0.06485 0.79528 0.19468 0.03800
H 	H 	0.30851 0.85177 0.23961 0.06100
H 	H 	0.14715 0.72583 0.16516 0.05300
H 	H 	0.29483 0.65974 0.28821 0.05200
C 	C 	0.76594 0.24134 0.47500 -0.02300
C 	C 	0.79819 0.21296 0.51046 0.01100
C 	C 	0.81086 0.26523 0.55153 -0.00400
C 	C 	0.77527 0.29091 0.51650 -0.01600
C 	C 	0.75400 0.27954 0.47828 -0.01900
C 	C 	0.74621 0.10027 0.50995 -0.04000
C 	C 	0.67469 0.07908 0.50226 0.10100
C 	C 	0.74494 0.23151 0.43522 0.09300
N 	N 	0.61740 0.06215 0.49609 -0.10700
N 	N 	0.72810 0.22358 0.40336 -0.10500
H 	H 	0.72746 0.29987 0.45117 0.05300
C 	C 	0.88020 0.51537 0.61062 -0.03900
C 	C 	0.84946 0.46085 0.59807 -0.00300
C 	C 	0.83888 0.46709 0.55650 -0.01500
C 	C 	0.82651 0.39807 0.62766 0.09000
N 	N 	0.80806 0.34775 0.65135 -0.10300
H 	H 	0.88607 0.51000 0.64226 0.05500
C 	C 	0.47991 0.20392 0.53482 -0.02400
C 	C 	0.45776 0.24454 0.51938 0.01300
C 	C 	0.49734 0.30850 0.49561 -0.04100
C 	C 	0.56179 0.33399 0.49010 -0.00200
C 	C 	0.58823 0.29588 0.50976 -0.01600
C 	C 	0.54509 0.22982 0.53006 -0.01800
C 	C 	0.39693 0.22227 0.53111 0.02700
C 	C 	0.40618 0.22047 0.57105 -0.05800
C 	C 	0.34666 0.18519 0.58631 0.03200
C 	C 	0.27732 0.15186 0.56131 -0.08000
C 	C 	0.26887 0.16188 0.51957 0.01000
C 	C 	0.32823 0.19598 0.50450 -0.04000
C 	C 	0.35695 0.18112 0.62819 0.08600
C 	C 	0.31783 0.20089 0.46238 0.09400
C 	C 	0.43683 0.13611 0.55647 0.09200
C 	C 	0.60054 0.39920 0.46428 0.09000
N 	N 	0.36518 0.17783 0.66175 -0.09800
N 	N 	0.30948 0.20482 0.42864 -0.10800
N 	N 	0.63162 0.45145 0.44362 -0.10500
N 	N 	0.40226 0.08181 0.57380 -0.11000
H 	H 	0.56406 0.19965 0.54412 0.05500
H 	H 	0.47887 0.33893 0.48229 0.05600
H 	H 	0.45941 0.24332 0.59097 0.06000
H 	H 	0.21560 0.13843 0.49978 0.04300
C 	C 	0.78801 0.27932 0.97499 -0.02000
C 	C 	0.80647 0.24269 0.01303 0.00900
C 	C 	0.81778 0.25124 0.04998 -0.03800
C 	C 	0.80769 0.29358 0.04931 -0.00100
C 	C 	0.78743 0.32900 0.01125 -0.01500
C 	C 	0.77865 0.32224 0.97430 -0.01600
C 	C 	0.75088 0.12562 0.01978 -0.04200
C 	C 	0.68259 0.10610 0.01759 0.09800
C 	C 	0.81507 0.29815 0.08777 0.09600
N 	N 	0.99676 0.19900 0.01227 -0.10300
N 	N 	0.62790 0.09053 0.01583 -0.10500
N 	N 	0.82093 0.30183 0.11855 -0.10500
H 	H 	0.76291 0.34927 0.94500 0.05400
H 	H 	0.71426 0.02597 0.03444 0.04600
C 	C 	0.91747 0.62800 0.03173 -0.04500
C 	C 	0.88612 0.57317 0.01930 -0.00300
C 	C 	0.84901 0.50959 0.04475 -0.01600
C 	C 	0.82264 0.65185 0.06113 0.09200
C 	C 	0.89016 0.58234 0.97978 0.09100
N 	N 	0.18723 0.85967 0.12214 -0.11400
N 	N 	0.76121 0.61714 0.05007 -0.10700
N 	N 	0.89336 0.58965 0.94811 -0.10400
H 	H 	0.94456 0.67676 0.01168 0.05300
C 	C 	0.51341 0.35960 0.97831 -0.01900
C 	C 	0.47300 0.29717 0.00362 0.00900
C 	C 	0.49173 0.25401 0.02008 -0.03900
C 	C 	0.55542 0.27558 0.01612 -0.00600
C 	C 	0.60004 0.34070 0.99438 -0.00900
C 	C 	0.57599 0.38056 0.97321 -0.02000
C 	C 	0.41613 0.27911 0.01694 0.02500
C 	C 	0.34786 0.25618 0.99065 -0.05200
C 	C 	0.28935 0.22259 0.00635 0.02000
C 	C 	0.29880 0.20881 0.04906 -0.07800
C 	C 	0.36830 0.24044 0.07378 0.01500
C 	C 	0.42711 0.27588 0.05784 -0.04000
C 	C 	0.21964 0.20081 0.97873 0.08900
C 	C 	0.49828 0.30651 0.08402 0.09900
C 	C 	0.49277 0.40346 0.95898 0.09200
C 	C 	0.57647 0.23186 0.03650 0.09300
N 	N 	0.16386 0.18356 0.95650 -0.09800
N 	N 	0.55534 0.33107 0.10496 -0.10700
N 	N 	0.59334 0.19685 0.05284 -0.10300
N 	N 	0.47620 0.43858 0.94350 -0.10600
H 	H 	0.60874 0.42974 0.95514 0.05600
H 	H 	0.45888 0.20490 0.03816 0.05300
H 	H 	0.33983 0.26190 0.95852 0.06000
H 	H 	0.37617 0.23317 0.10619 0.04900
Co	Co	0.04929 0.94067 0.13221 1.18400
O 	O 	0.03814 0.01728 0.12357 -0.56500
C 	C 	0.07396 0.02282 0.00464 0.30500
O 	O 	0.95257 0.01844 0.20465 -0.39700
O 	O 	0.02002 0.97187 0.63712 -0.57200
C 	C 	0.04087 0.98476 0.50928 0.29600
H 	H 	0.71334 0.00181 0.52513 0.04500
H 	H 	0.81858 0.60183 0.58024 0.06300
C 	C 	0.75879 0.07745 0.02829 0.01500
C 	C 	0.77713 0.27211 0.93657 0.09300
N 	N 	0.76842 0.26629 0.90580 -0.10500
C 	C 	0.97805 0.04807 0.92973 0.08200
N 	N 	0.96077 0.07691 0.92800 -0.10100
H 	H 	0.94768 0.00736 0.86808 0.06400
C 	C 	0.99963 0.01211 0.93186 0.02300
N 	N 	0.80234 0.70741 0.58646 -0.09800
C 	C 	0.84487 0.70285 0.58986 0.08500
C 	C 	0.86572 0.52933 0.52898 -0.02000
H 	H 	0.83245 0.22343 0.07926 0.05500
C 	C 	0.91236 0.62005 0.06947 0.01800
C 	C 	0.84889 0.50222 0.08388 -0.01600
C 	C 	0.89931 0.69510 0.07494 -0.02600
C 	C 	0.83420 0.27665 0.59118 0.08600
H 	H 	0.82098 0.45339 0.10371 0.05500
H 	H 	0.89686 0.76812 0.07543 0.05100
H 	H 	0.77913 0.76429 0.73744 0.04600
C 	C 	0.82216 0.22661 0.54827 -0.04300
C 	C 	0.90117 0.57632 0.58211 0.00400
C 	C 	0.79401 0.87189 0.14654 0.30900
C 	C 	0.77398 0.82606 0.65706 0.29900
N 	N 	0.85655 0.75141 0.81784 -0.10300
N 	N 	0.80949 0.92704 0.33129 -0.10900
C 	C 	0.80492 0.16674 0.50890 0.03100
C 	C 	0.75785 0.05346 0.52124 0.02100
N 	N 	0.85298 0.28579 0.62297 -0.10700
H 	H 	0.84850 0.20614 0.57535 0.05300
C 	C 	0.89637 0.58386 0.54146 -0.02100
C 	C 	0.87518 0.63949 0.58925 -0.07200
C 	C 	0.89777 0.69692 0.59416 0.04300
H 	H 	0.85862 0.53451 0.49713 0.05200
C 	C 	0.80993 0.19229 0.01462 0.02900
C 	C 	0.12553 0.82458 0.11275 0.07300
C 	C 	0.98005 0.99489 0.89632 -0.08000
C 	C 	0.92540 0.63145 0.59450 0.04600
C 	C 	0.87981 0.55695 0.09623 -0.02600
O 	O 	0.81320 0.00297 0.09026 -0.39100
O 	O 	0.81697 0.90853 0.16903 -0.40200
O 	O 	0.83901 0.88366 0.13206 -0.39800
O 	O 	0.77369 0.87784 0.64137 -0.38400
O 	O 	0.82376 0.82885 0.65388 -0.38500
C 	C 	0.88824 0.80529 0.81810 0.08000
C 	C 	0.85377 0.93303 0.32631 0.09400
N 	N 	0.87343 0.81925 0.50706 -0.10200
C 	C 	0.87282 0.18637 0.51357 -0.06400
C 	C 	0.82780 0.07171 0.53447 -0.08700
C 	C 	0.92068 0.64691 0.51206 0.09000
N 	N 	0.94018 0.69746 0.48854 -0.11000
C 	C 	0.87408 0.21045 0.01376 -0.05900
C 	C 	0.82558 0.09498 0.03245 -0.08500
C 	C 	0.94297 0.67857 0.08104 0.00200
C 	C 	0.93055 0.75487 0.08129 -0.01400
C 	C 	0.84067 0.04523 0.05797 0.29800
O 	O 	0.03419 0.01792 0.01963 -0.38500
C 	C 	0.87544 0.54760 0.13569 0.09300
H 	H 	0.91756 0.23790 0.51051 0.05700
C 	C 	0.95715 0.96953 0.23005 0.29900
C 	C 	0.88697 0.12122 0.64630 0.06900
O 	O 	0.93555 0.11132 0.12678 -0.41300
C 	C 	0.95694 0.95107 0.27360 -0.09300
N 	N 	0.01253 0.17760 0.53789 -0.08700
Co	Co	0.02664 0.89389 0.64311 1.19000
N 	N 	0.82583 0.08142 0.63965 -0.11500
C 	C 	0.93014 0.91297 0.74414 0.30400
C 	C 	0.06344 0.96243 0.96926 0.01700
C 	C 	0.04550 0.94683 0.93360 -0.04900
C 	C 	0.07180 0.91546 0.93483 0.10200
N 	N 	0.09284 0.89032 0.93580 -0.10700
H 	H 	0.09640 0.95038 0.99724 0.04300
Co	Co	0.94721 0.94422 0.15578 1.18500
Co	Co	0.87931 0.00999 0.14858 1.16800
C 	C 	0.03844 0.86728 0.09139 0.28200
O 	O 	0.94706 0.01068 0.13371 -0.76100
O 	O 	0.97481 0.88810 0.16450 -0.47000
O 	O 	0.88569 0.04653 0.05059 -0.38400
O 	O 	0.96148 0.93675 0.21735 -0.36900
O 	O 	0.09399 0.91549 0.07467 -0.38800
O 	O 	0.00223 0.87943 0.09617 -0.39500
Co	Co	0.93270 0.89893 0.67206 1.18500
Co	Co	0.85789 0.96134 0.66274 1.16900
C 	C 	0.99826 0.81538 0.59755 0.28100
O 	O 	0.83863 0.01966 0.60623 -0.39100
O 	O 	0.92800 0.96321 0.64906 -0.76300
C 	C 	0.84289 0.02700 0.57079 0.30900
O 	O 	0.96494 0.84584 0.68258 -0.46600
O 	O 	0.87294 0.00598 0.56926 -0.39600
O 	O 	0.00624 0.98137 0.52738 -0.38400
O 	O 	0.86858 0.90312 0.72187 -0.40400
O 	O 	0.96328 0.90652 0.73163 -0.38200
O 	O 	0.04282 0.86363 0.57326 -0.37400
O 	O 	0.96780 0.82544 0.60968 -0.39600
C 	C 	0.98808 0.95080 0.85785 -0.01800
C 	C 	0.94140 0.88583 0.85418 -0.04300
C 	C 	0.92833 0.87244 0.81876 0.02500
C 	C 	0.95826 0.92458 0.78535 -0.08900
C 	C 	0.00425 0.96375 0.89668 0.06100
C 	C 	0.04239 0.99645 0.96859 -0.06800
H 	H 	0.91672 0.84564 0.87935 0.05300
C 	C 	0.98451 0.96276 0.39053 0.00100
C 	C 	0.94338 0.90944 0.41935 -0.04300
C 	C 	0.95547 0.91793 0.45656 0.00500
C 	C 	0.01136 0.97964 0.46608 -0.05900
C 	C 	0.97161 0.95266 0.35140 0.01500
C 	C 	0.90152 0.93843 0.28182 0.01500
C 	C 	0.90907 0.94050 0.32009 -0.04000
C 	C 	0.91010 0.86317 0.48467 0.08700
H 	H 	0.90198 0.86137 0.41280 0.05700
H 	H 	0.85421 0.93097 0.25746 0.03500
C 	C 	0.88426 0.13916 0.52566 0.03700
C 	C 	0.95535 0.16022 0.53251 0.04300
C 	C 	0.97164 0.74766 0.60349 -0.10900
C 	C 	0.02138 0.73665 0.61235 0.05700
C 	C 	0.99865 0.67882 0.60814 -0.08600
C 	C 	0.05094 0.66920 0.61682 0.12300
N 	N 	0.09273 0.66136 0.62375 -0.11400
H 	H 	0.07811 0.77441 0.62097 0.02500
C 	C 	0.88158 0.16231 0.02149 0.03100
C 	C 	0.94553 0.18250 0.01654 0.06700
H 	H 	0.91848 0.26199 0.00770 0.06000
C 	C 	0.01697 0.72054 0.09518 -0.03200
C 	C 	0.04850 0.78072 0.10077 0.01100
C 	C 	0.00526 0.79914 0.09281 -0.05600
N 	N 	0.87171 0.54000 0.16727 -0.10400
H 	H 	0.05038 0.70745 0.10024 0.05300
