data_crystal

_cell_length_a 25.69448
_cell_length_b 26.28574
_cell_length_c 17.50373
_cell_angle_alpha 95.47182
_cell_angle_beta  95.46899
_cell_angle_gamma 125.84793

_symmetry_space_group_name_	'P 1'
_symmetry_space_group_name_H-M	'P 1'

loop_
_symmetry_equiv_pos_as_xyz
  x,y,z

loop_
_atom_site_label
_atom_site_type_symbol
_atom_site_fract_x
_atom_site_fract_y
_atom_site_fract_z
_atom_site_charge
C 	C 	0.06579 0.02981 0.99440 0.04500
C 	C 	0.04188 0.06579 0.00484 -0.04400
H 	H 	0.07022 0.11456 0.99502 0.07200
C 	C 	0.03571 0.01962 0.44959 0.07800
H 	H 	0.01928 0.09027 0.43708 0.08400
C 	C 	0.44948 0.24491 0.50286 -0.09400
C 	C 	0.42303 0.27865 0.51445 0.15200
C 	C 	0.35621 0.24519 0.51465 -0.08300
C 	C 	0.31580 0.17843 0.50525 0.03300
C 	C 	0.34336 0.14535 0.50101 0.08300
C 	C 	0.41004 0.17872 0.49990 -0.00900
H 	H 	0.33543 0.27096 0.52043 0.09500
C 	C 	0.24435 0.14315 0.49196 0.01100
H 	H 	0.43056 0.15278 0.49308 0.06300
C 	C 	0.20909 0.12115 0.41523 -0.06000
C 	C 	0.14085 0.08272 0.40100 0.11300
C 	C 	0.10733 0.06598 0.46398 -0.02200
C 	C 	0.14264 0.09017 0.54088 -0.04900
C 	C 	0.21101 0.12910 0.55512 0.10500
H 	H 	0.23477 0.13284 0.36657 0.08900
H 	H 	0.11692 0.07789 0.58950 0.08300
Br	Br	0.29022 0.05440 0.49432 -0.18100
Br	Br	0.47769 0.37036 0.53234 -0.18700
Br	Br	0.09403 0.05229 0.29513 -0.17300
Br	Br	0.25809 0.16236 0.66091 -0.16900
C 	C 	0.13035 0.05841 0.97237 -0.01700
C 	C 	0.18816 0.09984 0.02868 0.11600
C 	C 	0.24833 0.11995 0.00955 -0.04900
C 	C 	0.25167 0.09943 0.93443 0.00100
C 	C 	0.19396 0.05805 0.87806 0.10700
C 	C 	0.13376 0.03819 0.89704 -0.05500
H 	H 	0.29268 0.15197 0.05299 0.08300
C 	C 	0.31621 0.12438 0.91436 0.03400
C 	C 	0.33947 0.08765 0.91642 -0.08300
C 	C 	0.40407 0.11415 0.90848 0.15000
C 	C 	0.44716 0.17945 0.90357 -0.09400
C 	C 	0.42164 0.21391 0.89384 -0.01300
C 	C 	0.35671 0.18675 0.89940 0.08300
H 	H 	0.30736 0.03848 0.92409 0.09300
H 	H 	0.45299 0.26288 0.88532 0.06800
Br	Br	0.19623 0.02714 0.77550 -0.17800
Br	Br	0.18589 0.12858 0.13245 -0.18600
Br	Br	0.42941 0.05859 0.89482 -0.19600
Br	Br	0.32469 0.23640 0.88879 -0.18000
H 	H 	0.08937 0.00579 0.85375 0.08100
H 	H 	0.03686 0.93891 0.45758 0.08700
Br	Br	0.02017 0.89226 0.15480 -0.18500
O 	O 	0.54564 0.19337 0.96094 -0.33300
C 	C 	0.51931 0.21451 0.91876 0.30200
O 	O 	0.55930 0.27685 0.52847 -0.36700
C 	C 	0.51483 0.27661 0.48339 0.31400
O 	O 	0.52887 0.30887 0.42559 -0.35900
C 	C 	0.02745 0.96575 0.00308 -0.04200
H 	H 	0.04434 0.93700 0.99081 0.07100
C 	C 	0.00659 0.95453 0.44559 -0.07800
O 	O 	0.55651 0.27410 0.90973 -0.38800
H 	H 	0.58537 0.23397 0.38179 0.18100
O 	O 	0.58987 0.30033 0.10428 -0.32600
Cu	Cu	0.59879 0.33312 0.36414 0.91100
Cu	Cu	0.61286 0.34627 0.01431 0.91000
H 	H 	0.62743 0.22568 0.84525 0.19200
O 	O 	0.61986 0.28052 0.39849 -0.63800
Br	Br	0.61650 0.07141 0.31677 -0.19400
O 	O 	0.62015 0.33327 0.25690 -0.32200
C 	C 	0.62604 0.28731 0.14344 0.20100
Cu	Cu	0.64450 0.24652 0.99729 0.92900
Cu	Cu	0.64635 0.31069 0.51003 0.89900
C 	C 	0.63828 0.30072 0.22157 0.20500
Br	Br	0.64669 0.47333 0.31780 -0.23600
O 	O 	0.66176 0.25831 0.88998 -0.64000
O 	O 	0.64886 0.42853 0.97823 -0.36000
O 	O 	0.64208 0.25327 0.10704 -0.29500
O 	O 	0.67457 0.33205 0.62487 -0.32300
O 	O 	0.68496 0.33989 0.77949 -0.33000
O 	O 	0.67719 0.29070 0.26060 -0.30600
Cu	Cu	0.68642 0.34557 0.89197 0.89300
O 	O 	0.68343 0.34362 0.00129 -0.63100
O 	O 	0.68694 0.41545 0.43823 -0.37200
O 	O 	0.69408 0.20905 0.43495 -0.41900
O 	O 	0.69675 0.21451 0.02282 -0.33300
H 	H 	0.01497 0.13563 0.13940 0.09200
Br	Br	0.72443 0.16551 0.15608 -0.18600
C 	C 	0.99670 0.03984 0.43399 -0.07900
C 	C 	0.98077 0.03823 0.02679 0.06800
C 	C 	0.92869 0.99484 0.41188 0.08900
Cu	Cu	0.75155 0.29158 0.88374 0.86700
C 	C 	0.71339 0.31974 0.74062 0.20200
O 	O 	0.78404 0.30169 0.99010 -0.43400
O 	O 	0.71767 0.43349 0.89976 -0.37400
C 	C 	0.70420 0.46180 0.95208 0.31000
C 	C 	0.75956 0.25064 0.02145 0.32000
O 	O 	0.74096 0.29608 0.77483 -0.37800
H 	H 	0.72533 0.37679 0.03715 0.18100
Cu	Cu	0.71295 0.32087 0.37027 0.93000
Cu	Cu	0.73233 0.27159 0.52698 0.87700
O 	O 	0.75615 0.41481 0.36750 -0.34700
C 	C 	0.71206 0.32034 0.66419 0.19400
O 	O 	0.73284 0.33808 0.48599 -0.63600
O 	O 	0.75018 0.27326 0.35116 -0.35100
C 	C 	0.73974 0.44662 0.40779 0.30600
C 	C 	0.72706 0.22043 0.37832 0.32200
O 	O 	0.75311 0.31522 0.63099 -0.37000
H 	H 	0.76982 0.38231 0.51155 0.18500
C 	C 	0.88198 0.80985 0.48109 0.11300
C 	C 	0.85828 0.74615 0.47740 -0.06100
C 	C 	0.86149 0.71322 0.41232 0.01200
C 	C 	0.88845 0.74441 0.35021 0.10500
C 	C 	0.91160 0.80794 0.35356 -0.05200
H 	H 	0.83720 0.72212 0.52508 0.09000
C 	C 	0.83201 0.64482 0.40710 0.03400
H 	H 	0.93275 0.83198 0.30590 0.08700
C 	C 	0.76641 0.59909 0.37141 -0.08200
C 	C 	0.73622 0.53416 0.36969 0.15900
C 	C 	0.77191 0.51439 0.40444 -0.09600
C 	C 	0.83816 0.56004 0.43812 -0.00500
C 	C 	0.86828 0.62515 0.43994 0.08400
H 	H 	0.73869 0.61412 0.34523 0.09500
H 	H 	0.86598 0.54507 0.46415 0.06400
Br	Br	0.89523 0.70136 0.26121 -0.19800
Br	Br	0.95874 0.68651 0.48767 -0.17800
C 	C 	0.75222 0.18360 0.36076 -0.10000
C 	C 	0.70942 0.11633 0.34181 0.15800
C 	C 	0.73469 0.08146 0.33979 -0.08300
C 	C 	0.80233 0.11305 0.35807 0.03000
C 	C 	0.84517 0.18030 0.37256 0.08300
C 	C 	0.81998 0.21519 0.37287 -0.00800
H 	H 	0.70165 0.02971 0.32678 0.09100
C 	C 	0.82761 0.07578 0.36908 0.01000
H 	H 	0.85314 0.26692 0.38668 0.06400
C 	C 	0.85060 0.06051 0.30807 -0.06100
C 	C 	0.88092 0.03105 0.32036 0.11600
C 	C 	0.88813 0.01643 0.39419 -0.02700
C 	C 	0.86225 0.02884 0.45393 -0.05000
C 	C 	0.83224 0.05855 0.44184 0.10400
H 	H 	0.84649 0.07310 0.25175 0.08300
H 	H 	0.86736 0.01726 0.51064 0.08200
Br	Br	0.93810 0.22525 0.39756 -0.18100
Br	Br	0.80023 0.07763 0.52632 -0.20600
C 	C 	0.74374 0.53223 0.96779 -0.10000
C 	C 	0.75189 0.56588 0.04133 0.15600
C 	C 	0.78392 0.63181 0.05236 -0.06900
C 	C 	0.81298 0.66564 0.99329 0.01200
C 	C 	0.81000 0.63293 0.92241 0.09100
C 	C 	0.77371 0.56637 0.90903 -0.00800
H 	H 	0.78783 0.65711 0.10780 0.09300
C 	C 	0.84897 0.73562 0.00754 0.03200
H 	H 	0.76923 0.54128 0.85307 0.07800
C 	C 	0.90815 0.77447 0.06132 -0.06900
C 	C 	0.86262 0.83022 0.97593 -0.05900
C 	C 	0.82445 0.76377 0.96804 0.09800
H 	H 	0.92586 0.75294 0.09427 0.09500
Br	Br	0.85731 0.67850 0.84456 -0.18600
Br	Br	0.72682 0.52449 0.12996 -0.21800
Br	Br	0.73855 0.71235 0.90442 -0.17800
C 	C 	0.79798 0.22555 0.03437 -0.09700
C 	C 	0.78396 0.18286 0.08636 0.15000
C 	C 	0.81633 0.15463 0.09025 -0.08300
C 	C 	0.86419 0.17015 0.04491 0.03700
C 	C 	0.88136 0.21597 0.99735 0.07400
C 	C 	0.84804 0.24292 0.99172 -0.01900
H 	H 	0.80426 0.12063 0.12861 0.08600
C 	C 	0.89257 0.13483 0.04276 0.01600
H 	H 	0.86031 0.27656 0.95283 0.04500
C 	C 	0.86972 0.08575 0.97903 -0.06600
C 	C 	0.89987 0.05571 0.97183 0.10000
C 	C 	0.95226 0.07334 0.03015 -0.00300
C 	C 	0.97483 0.12207 0.09428 -0.04700
C 	C 	0.94529 0.15287 0.10082 0.10400
H 	H 	0.82956 0.07214 0.93392 0.08300
Br	Br	0.95034 0.24233 0.93939 -0.19700
Br	Br	0.87041 0.99236 0.88043 -0.19800
Br	Br	0.97819 0.22004 0.18862 -0.17700
C 	C 	0.90863 0.84096 0.41880 -0.02200
C 	C 	0.94448 0.84099 0.07284 0.11100
C 	C 	0.96695 0.93843 0.02635 0.06900
C 	C 	0.93861 0.90942 0.42438 0.08400
C 	C 	0.89959 0.92954 0.40710 -0.08100
H 	H 	0.84699 0.89465 0.39005 0.08200
Br	Br	0.87862 0.85396 0.57221 -0.19400
C 	C 	0.92353 0.86917 0.02672 -0.00700
H 	H 	0.84532 0.85159 0.94186 0.08700
H 	H 	0.89740 0.95408 0.05711 0.08600
C 	C 	0.94458 0.97535 0.04017 -0.05900
Br	Br	0.91316 0.01205 0.23622 -0.21400
