data_crystal

_cell_length_a 25.57157
_cell_length_b 25.94419
_cell_length_c 30.67377
_cell_angle_alpha 60.99839
_cell_angle_beta  118.70685
_cell_angle_gamma 133.16947

_symmetry_space_group_name_	'P 1'
_symmetry_space_group_name_H-M	'P 1'

loop_
_symmetry_equiv_pos_as_xyz
  x,y,z

loop_
_atom_site_label
_atom_site_type_symbol
_atom_site_fract_x
_atom_site_fract_y
_atom_site_fract_z
_atom_site_charge
C 	C 	0.72251 0.30507 0.04878 0.11700
N 	N 	0.65299 0.25954 0.05629 -0.13700
C 	C 	0.63129 0.28238 0.07159 0.13400
N 	N 	0.67858 0.34981 0.07965 -0.13800
C 	C 	0.74684 0.39607 0.07106 0.12100
N 	N 	0.76898 0.37411 0.05523 -0.13900
C 	C 	0.71373 0.27456 0.54088 0.13100
N 	N 	0.64277 0.23065 0.54498 -0.13500
C 	C 	0.61684 0.25794 0.55075 0.13600
N 	N 	0.66127 0.32831 0.55231 -0.13900
C 	C 	0.73215 0.37179 0.54959 0.13400
N 	N 	0.75900 0.34511 0.54404 -0.13800
C 	C 	0.28759 0.68743 0.22245 0.13000
N 	N 	0.35761 0.72973 0.21683 -0.13900
C 	C 	0.38001 0.70066 0.20896 0.13400
N 	N 	0.33314 0.63019 0.20699 -0.13900
C 	C 	0.26381 0.58789 0.21251 0.13500
N 	N 	0.24047 0.61631 0.22008 -0.13500
C 	C 	0.29062 0.64466 0.74652 0.11700
N 	N 	0.36153 0.69211 0.74098 -0.13800
C 	C 	0.39103 0.66839 0.73503 0.12100
N 	N 	0.34993 0.59817 0.73420 -0.13800
C 	C 	0.27930 0.55119 0.73837 0.13300
N 	N 	0.24920 0.57404 0.74463 -0.13600
Co	Co	0.09288 0.99348 0.15185 1.17300
Co	Co	0.89385 0.97964 0.11167 1.16700
Co	Co	0.03416 0.04425 0.18884 1.19600
Co	Co	0.95898 0.94399 0.06747 1.17200
C 	C 	0.10207 0.86564 0.18817 0.29200
Co	Co	0.07659 0.92459 0.07673 1.17100
Co	Co	0.90488 0.03867 0.19043 1.18000
C 	C 	0.02392 0.99730 0.97806 0.32300
O 	O 	0.97701 0.14686 0.15880 -0.40300
O 	O 	0.94813 0.02145 0.16012 -0.75400
C 	C 	0.04938 0.18179 0.17488 0.31100
O 	O 	0.11926 0.04281 0.20177 -0.44400
O 	O 	0.87150 0.94002 0.05701 -0.47500
C 	C 	0.83389 0.06192 0.08068 0.32100
O 	O 	0.00550 0.01300 0.11905 -0.55000
C 	C 	0.99951 0.00508 0.28485 0.37300
C 	C 	0.21797 0.05868 0.11086 0.33900
C 	C 	0.91723 0.80766 0.06418 0.32600
O 	O 	0.08297 0.15262 0.18495 -0.37000
O 	O 	0.18606 0.99160 0.11234 -0.43300
O 	O 	0.18816 0.07379 0.12385 -0.37600
O 	O 	0.82013 0.02599 0.12600 -0.40100
O 	O 	0.86839 0.05450 0.06556 -0.37300
O 	O 	0.98405 0.05213 0.25861 -0.41500
O 	O 	0.01078 0.98311 0.26132 -0.39500
O 	O 	0.97043 0.85289 0.04036 -0.42200
O 	O 	0.90697 0.83241 0.08590 -0.40200
O 	O 	0.04276 0.96069 0.09890 -0.75700
C 	C 	0.79028 0.88576 0.18501 0.29300
O 	O 	0.83993 0.92740 0.21768 -0.37900
O 	O 	0.80941 0.88667 0.15086 -0.38500
O 	O 	0.06135 0.84655 0.14453 -0.38500
O 	O 	0.10014 0.90589 0.20195 -0.38300
O 	O 	0.08470 0.00578 0.01126 -0.34000
O 	O 	0.97317 0.98504 0.99204 -0.39200
Co	Co	0.10227 0.96494 0.66404 1.17800
Co	Co	0.90526 0.96044 0.61941 1.17100
Co	Co	0.03953 0.00898 0.70405 1.19600
Co	Co	0.96292 0.90402 0.58638 1.17500
C 	C 	0.15167 0.87277 0.70066 0.31800
Co	Co	0.08964 0.89936 0.59041 1.16900
Co	Co	0.92257 0.03380 0.69049 1.17900
C 	C 	0.99413 0.92825 0.49219 0.33800
O 	O 	0.02629 0.10280 0.73081 -0.38900
O 	O 	0.96019 0.00157 0.66833 -0.74500
C 	C 	0.08477 0.14621 0.71259 0.30400
O 	O 	0.12216 0.00253 0.71909 -0.44200
O 	O 	0.87683 0.90396 0.57402 -0.47000
C 	C 	0.89726 0.09143 0.57870 0.29200
O 	O 	0.01208 0.97955 0.63370 -0.58200
C 	C 	0.96739 0.95345 0.78879 0.32200
C 	C 	0.21133 0.05278 0.59466 0.29200
C 	C 	0.94317 0.76315 0.60699 0.26700
O 	O 	0.10185 0.12007 0.69786 -0.37500
O 	O 	0.15867 0.01002 0.56270 -0.34200
O 	O 	0.19864 0.04743 0.63493 -0.35300
O 	O 	0.94093 0.11068 0.62225 -0.39500
O 	O 	0.88317 0.03818 0.56772 -0.35700
O 	O 	0.90934 0.95140 0.75604 -0.38300
O 	O 	0.00870 0.95185 0.77510 -0.37700
O 	O 	0.01442 0.79290 0.62267 -0.36800
O 	O 	0.91590 0.79198 0.60779 -0.38500
O 	O 	0.05023 0.92930 0.61291 -0.75600
C 	C 	0.78392 0.89748 0.66123 0.32600
O 	O 	0.81424 0.96592 0.65398 -0.42700
O 	O 	0.81758 0.87954 0.65578 -0.39500
O 	O 	0.17049 0.90981 0.65704 -0.42300
O 	O 	0.11080 0.87820 0.71051 -0.39100
O 	O 	0.01162 0.88302 0.52166 -0.39500
O 	O 	0.97510 0.94845 0.51100 -0.38800
C 	C 	0.93988 0.92830 0.90979 -0.12800
C 	C 	0.00717 0.98980 0.92700 -0.11400
C 	C 	0.06403 0.03490 0.90120 0.33400
C 	C 	0.05360 0.01836 0.85908 -0.02900
C 	C 	0.98594 0.95750 0.84141 -0.18900
C 	C 	0.92947 0.91186 0.86764 0.35400
F 	F 	0.86378 0.85235 0.85154 -0.44800
H 	H 	0.89631 0.89184 0.93003 0.10000
H 	H 	0.09706 0.05489 0.83873 0.07900
F 	F 	0.12952 0.09479 0.91699 -0.44200
C 	C 	0.93773 0.89866 0.40794 -0.07200
C 	C 	0.99043 0.95136 0.43687 -0.19000
C 	C 	0.05143 0.01787 0.41764 0.38700
C 	C 	0.05966 0.03127 0.37039 -0.07300
C 	C 	0.00597 0.97946 0.34074 -0.14200
C 	C 	0.94564 0.91235 0.36041 0.30600
F 	F 	0.89271 0.86167 0.33240 -0.45000
H 	H 	0.89171 0.84609 0.42303 0.07800
H 	H 	0.10592 0.08374 0.35546 0.08800
F 	F 	0.10417 0.06871 0.44554 -0.44800
C 	C 	0.18197 0.35197 0.72468 0.03800
C 	C 	0.14762 0.33723 0.67620 -0.06000
C 	C 	0.12442 0.27323 0.67072 0.01800
C 	C 	0.23663 0.47811 0.73427 -0.02900
C 	C 	0.17419 0.24089 0.76152 0.02400
C 	C 	0.19732 0.30481 0.76699 -0.05800
C 	C 	0.20889 0.41950 0.73001 0.00500
C 	C 	0.13470 0.22312 0.71379 -0.08200
H 	H 	0.13780 0.37465 0.64290 0.05500
H 	H 	0.09394 0.26023 0.63366 0.04100
H 	H 	0.18252 0.20275 0.79509 0.04800
H 	H 	0.22617 0.31701 0.80429 0.06400
C 	C 	0.58928 0.77371 0.69900 0.00300
C 	C 	0.58169 0.73651 0.74967 -0.03600
C 	C 	0.52033 0.70940 0.76327 -0.01800
C 	C 	0.71370 0.84356 0.67478 -0.10100
C 	C 	0.47582 0.76004 0.67629 -0.02100
C 	C 	0.53708 0.78697 0.66267 -0.03800
C 	C 	0.65608 0.80807 0.68606 0.05300
C 	C 	0.46573 0.71893 0.72624 -0.01700
H 	H 	0.62301 0.72820 0.77851 0.05900
H 	H 	0.51318 0.67756 0.80194 0.04600
H 	H 	0.43405 0.76752 0.64723 0.04100
H 	H 	0.54375 0.81790 0.62381 0.04200
C 	C 	0.20056 0.72898 0.75841 0.00100
C 	C 	0.27469 0.75500 0.78162 -0.03700
C 	C 	0.30346 0.72597 0.77925 -0.02300
C 	C 	0.16223 0.81574 0.73043 -0.10400
C 	C 	0.18298 0.64113 0.73327 -0.02200
C 	C 	0.15438 0.67039 0.73560 -0.03600
C 	C 	0.17757 0.77347 0.74654 0.04600
C 	C 	0.25832 0.67026 0.75370 -0.01300
H 	H 	0.31108 0.80026 0.79925 0.04300
H 	H 	0.36117 0.74793 0.79635 0.04500
H 	H 	0.14712 0.59785 0.71382 0.04900
H 	H 	0.09720 0.65001 0.71722 0.04900
C 	C 	0.14833 0.38451 0.19682 0.03800
C 	C 	0.16911 0.33885 0.23476 -0.06100
C 	C 	0.14209 0.27527 0.22589 0.02100
C 	C 	0.21537 0.51373 0.20863 -0.02800
C 	C 	0.07581 0.30438 0.14038 0.02200
C 	C 	0.10257 0.36762 0.14936 -0.06300
C 	C 	0.18219 0.45367 0.20393 0.00300
C 	C 	0.09398 0.25687 0.17902 -0.08300
H 	H 	0.20606 0.35245 0.27112 0.05900
H 	H 	0.15592 0.23881 0.25624 0.04200
H 	H 	0.03863 0.29081 0.10405 0.04200
H 	H 	0.08777 0.40352 0.11933 0.05500
C 	C 	0.58164 0.79608 0.19468 0.03200
C 	C 	0.62755 0.77911 0.23749 -0.06000
C 	C 	0.69219 0.80040 0.23290 0.01500
C 	C 	0.45365 0.74306 0.20369 -0.03300
C 	C 	0.66330 0.85199 0.14193 0.01300
C 	C 	0.59844 0.83053 0.14655 -0.06300
C 	C 	0.51299 0.77031 0.19922 -0.00000
C 	C 	0.71219 0.83989 0.18555 -0.08000
H 	H 	0.61362 0.75008 0.27449 0.05500
H 	H 	0.72900 0.79003 0.26679 0.06200
H 	H 	0.67779 0.88215 0.10510 0.03200
H 	H 	0.56190 0.84155 0.11286 0.04900
C 	C 	0.21316 0.77532 0.23857 0.03400
C 	C 	0.25397 0.85106 0.22952 -0.06400
C 	C 	0.22096 0.88165 0.22283 0.01100
C 	C 	0.26250 0.71863 0.22918 -0.02900
C 	C 	0.10904 0.76089 0.23939 0.02000
C 	C 	0.14203 0.73021 0.24633 -0.06300
C 	C 	0.24074 0.74458 0.23409 -0.00200
C 	C 	0.14607 0.83692 0.22309 -0.08300
H 	H 	0.30978 0.88652 0.22493 0.04800
H 	H 	0.25129 0.94039 0.21206 0.02900
H 	H 	0.05192 0.72544 0.24127 0.04100
H 	H 	0.11064 0.67153 0.25483 0.05600
C 	C 	0.79182 0.18850 0.52755 0.03500
C 	C 	0.74894 0.11293 0.53447 -0.06000
C 	C 	0.78095 0.08078 0.54237 0.01500
C 	C 	0.74158 0.24544 0.53512 -0.02800
C 	C 	0.89646 0.20013 0.53119 0.01600
C 	C 	0.86450 0.23230 0.52319 -0.06400
C 	C 	0.76428 0.21987 0.53100 0.00000
C 	C 	0.85656 0.12380 0.54492 -0.08000
H 	H 	0.69208 0.07865 0.53656 0.05800
H 	H 	0.74882 0.02194 0.55161 0.04900
H 	H 	0.95439 0.23425 0.53176 0.03200
H 	H 	0.89761 0.29092 0.51651 0.05000
C 	C 	0.84200 0.56692 0.57608 0.03300
C 	C 	0.83177 0.61959 0.53719 -0.06100
C 	C 	0.85699 0.68059 0.54854 0.01100
C 	C 	0.77930 0.44369 0.55727 -0.03200
C 	C 	0.89886 0.63435 0.63815 0.01400
C 	C 	0.87382 0.57354 0.62678 -0.06400
C 	C 	0.81075 0.50126 0.56520 0.00100
C 	C 	0.89313 0.68963 0.59880 -0.07700
H 	H 	0.80495 0.61371 0.49812 0.05600
H 	H 	0.85250 0.72294 0.51775 0.03500
H 	H 	0.92663 0.64060 0.67712 0.03400
H 	H 	0.87968 0.53188 0.65738 0.05000
C 	C 	0.41651 0.15073 0.57312 0.03400
C 	C 	0.36573 0.16253 0.53221 -0.05400
C 	C 	0.30172 0.13768 0.54041 0.01400
C 	C 	0.54397 0.21226 0.55824 -0.03000
C 	C 	0.34064 0.09223 0.63105 0.01500
C 	C 	0.40482 0.11730 0.62280 -0.05700
C 	C 	0.48491 0.18135 0.56509 0.00600
C 	C 	0.28742 0.09992 0.58955 -0.06900
H 	H 	0.37561 0.19061 0.49397 0.05800
H 	H 	0.26140 0.14451 0.50811 0.06900
H 	H 	0.33032 0.06309 0.66916 0.04700
H 	H 	0.44504 0.11012 0.65494 0.05700
C 	C 	0.79398 0.21178 0.02655 0.00000
C 	C 	0.72079 0.18927 0.00547 -0.03500
C 	C 	0.69818 0.22226 0.01028 -0.02200
C 	C 	0.82317 0.11866 0.05279 -0.10300
C 	C 	0.82325 0.30465 0.05365 -0.02400
C 	C 	0.84571 0.27163 0.04870 -0.03700
C 	C 	0.81099 0.16299 0.03752 0.04900
C 	C 	0.74867 0.27822 0.03629 -0.01300
H 	H 	0.68035 0.14341 0.98802 0.05000
H 	H 	0.64096 0.20267 0.99521 0.05000
H 	H 	0.86322 0.34834 0.07317 0.04300
H 	H 	0.90244 0.28965 0.06507 0.04000
C 	C 	0.83108 0.60169 0.07501 0.00100
C 	C 	0.83033 0.54961 0.12103 -0.03800
C 	C 	0.81166 0.48493 0.12068 -0.02100
C 	C 	0.87888 0.73108 0.07244 -0.10800
C 	C 	0.79944 0.52639 0.02879 -0.02100
C 	C 	0.81779 0.59088 0.02913 -0.03900
C 	C 	0.85435 0.67025 0.07533 0.05100
C 	C 	0.79311 0.47167 0.07421 -0.01800
H 	H 	0.84324 0.55868 0.15696 0.04400
H 	H 	0.80732 0.44324 0.15609 0.04200
H 	H 	0.78540 0.51698 0.99270 0.04700
H 	H 	0.82090 0.63211 0.99360 0.05500
C 	C 	0.42769 0.17404 0.08945 0.03900
C 	C 	0.41858 0.14852 0.13910 -0.06300
C 	C 	0.35184 0.11897 0.14631 0.02800
C 	C 	0.55724 0.23753 0.07671 -0.03000
C 	C 	0.30477 0.14456 0.05426 0.02300
C 	C 	0.37155 0.17420 0.04705 -0.05800
C 	C 	0.49721 0.20635 0.08212 0.00400
C 	C 	0.29348 0.11403 0.10393 -0.09100
H 	H 	0.46265 0.15038 0.17211 0.05700
H 	H 	0.34380 0.09549 0.18484 0.03600
H 	H 	0.26011 0.14102 0.02122 0.06000
H 	H 	0.37905 0.19604 0.00852 0.06200
