data_crystal

_cell_length_a 19.93178
_cell_length_b 16.60445
_cell_length_c 33.29066
_cell_angle_alpha 88.29378
_cell_angle_beta  88.42924
_cell_angle_gamma 107.44642

_symmetry_space_group_name_	'P 1'
_symmetry_space_group_name_H-M	'P 1'

loop_
_symmetry_equiv_pos_as_xyz
  x,y,z

loop_
_atom_site_label
_atom_site_type_symbol
_atom_site_fract_x
_atom_site_fract_y
_atom_site_fract_z
_atom_site_charge
Zn	Zn	0.57757 0.31978 0.88297 1.22400
Zn	Zn	0.68932 0.45748 0.94337 1.20400
C 	C 	0.77740 0.21255 0.84267 0.27300
Zn	Zn	0.74068 0.34755 0.88418 1.22500
Zn	Zn	0.62491 0.19663 0.83286 1.19700
H 	H 	0.65927 0.30044 0.94254 0.18400
C 	C 	0.78324 0.52421 0.86373 0.27900
O 	O 	0.52067 0.15791 0.82808 -0.46900
O 	O 	0.50329 0.28593 0.83760 -0.38900
O 	O 	0.66324 0.34454 0.92127 -0.80000
O 	O 	0.63300 0.51067 0.90985 -0.45800
O 	O 	0.52907 0.21394 0.91356 -0.43500
O 	O 	0.53367 0.40912 0.89368 -0.42300
O 	O 	0.61034 0.14821 0.89546 -0.40900
O 	O 	0.76569 0.44696 0.97657 -0.45500
H 	H 	0.65800 0.35642 0.82187 0.18200
O 	O 	0.82195 0.39165 0.92797 -0.38300
O 	O 	0.65463 0.31795 0.84564 -0.78800
O 	O 	0.71641 0.16925 0.82852 -0.42900
O 	O 	0.78211 0.45007 0.85069 -0.43600
O 	O 	0.77974 0.25247 0.87648 -0.42500
O 	O 	0.77378 0.53342 0.90230 -0.39100
C 	C 	0.48168 0.20906 0.82446 0.38000
C 	C 	0.56442 0.48016 0.91107 0.29700
C 	C 	0.55658 0.15188 0.91861 0.30300
C 	C 	0.82322 0.43484 0.96106 0.32100
Zn	Zn	0.65064 0.42030 0.55702 1.22300
Zn	Zn	0.53455 0.33003 0.49071 1.20100
C 	C 	0.67825 0.14177 0.59529 0.26500
Zn	Zn	0.57920 0.22378 0.55830 1.22300
Zn	Zn	0.73389 0.32651 0.60117 1.19400
H 	H 	0.65101 0.30532 0.49983 0.18400
C 	C 	0.44290 0.25462 0.56872 0.27600
O 	O 	0.78946 0.44422 0.61318 -0.45100
O 	O 	0.70549 0.50905 0.59898 -0.38600
O 	O 	0.61582 0.31664 0.51857 -0.79400
O 	O 	0.55847 0.45549 0.48886 -0.46500
O 	O 	0.73375 0.46562 0.52167 -0.44100
O 	O 	0.58173 0.48385 0.55440 -0.43400
O 	O 	0.77245 0.35406 0.53855 -0.41600
O 	O 	0.47262 0.21758 0.47916 -0.46700
H 	H 	0.61015 0.33104 0.61981 0.17900
O 	O 	0.53024 0.13710 0.51333 -0.39200
O 	O 	0.63476 0.32343 0.59463 -0.79200
O 	O 	0.73148 0.21013 0.58743 -0.44500
O 	O 	0.48562 0.21446 0.58298 -0.42600
O 	O 	0.61762 0.13179 0.57787 -0.41100
O 	O 	0.46751 0.32270 0.54487 -0.40400
C 	C 	0.77083 0.51371 0.60778 0.27800
C 	C 	0.55295 0.49757 0.52086 0.32500
C 	C 	0.78125 0.42628 0.51872 0.31100
C 	C 	0.48549 0.14531 0.48603 0.31100
Zn	Zn	0.95775 0.92565 0.70293 1.22700
Zn	Zn	0.06935 0.95326 0.77707 1.20400
C 	C 	0.15368 0.12648 0.62846 0.35000
Zn	Zn	0.08777 0.08361 0.70809 1.23100
Zn	Zn	0.99933 0.03003 0.62295 1.19200
H 	H 	0.09770 0.93589 0.70247 0.19400
C 	C 	0.00302 0.10324 0.77780 0.43200
O 	O 	0.89770 0.98018 0.61389 -0.46600
O 	O 	0.85752 0.91324 0.67608 -0.35800
O 	O 	0.06580 0.96061 0.71767 -0.77400
O 	O 	0.99162 0.84752 0.79019 -0.46300
O 	O 	0.96785 0.83100 0.67375 -0.41900
O 	O 	0.90729 0.88496 0.75497 -0.42400
O 	O 	0.00386 0.90043 0.61361 -0.36400
O 	O 	0.14658 0.05017 0.79501 -0.44200
H 	H 	0.95864 0.07195 0.68940 0.22500
O 	O 	0.18818 0.11114 0.73336 -0.39500
O 	O 	0.99167 0.04018 0.68202 -0.82000
O 	O 	0.10596 0.06742 0.60975 -0.40000
O 	O 	0.05136 0.14330 0.75028 -0.41800
O 	O 	0.13654 0.15650 0.66204 -0.44400
O 	O 	0.99473 0.02365 0.78838 -0.45100
C 	C 	0.84765 0.95367 0.64263 0.35600
C 	C 	0.92620 0.83137 0.77890 0.39100
C 	C 	0.96776 0.83212 0.63467 0.35000
C 	C 	0.19903 0.09386 0.77089 0.27700
Zn	Zn	0.30863 0.67366 0.39437 1.22600
Zn	Zn	0.17445 0.55179 0.44773 1.20100
C 	C 	0.13499 0.76400 0.31767 0.28800
Zn	Zn	0.15639 0.62230 0.36416 1.22500
Zn	Zn	0.29122 0.78309 0.32412 1.19000
H 	H 	0.19147 0.70644 0.42630 0.18800
C 	C 	0.17779 0.45623 0.36949 0.27300
O 	O 	0.39589 0.82309 0.32862 -0.45600
O 	O 	0.41011 0.70873 0.36454 -0.38800
O 	O 	0.20355 0.65835 0.41445 -0.79000
O 	O 	0.26058 0.56047 0.47843 -0.45100
O 	O 	0.33969 0.77730 0.42270 -0.45000
O 	O 	0.33376 0.58273 0.42246 -0.43900
O 	O 	0.28304 0.84310 0.38088 -0.42000
O 	O 	0.07791 0.49003 0.43372 -0.45300
H 	H 	0.27662 0.62526 0.32554 0.17600
O 	O 	0.05357 0.58896 0.39278 -0.39100
O 	O 	0.26143 0.66325 0.34365 -0.80000
O 	O 	0.20141 0.81142 0.31253 -0.44800
O 	O 	0.14497 0.50445 0.35150 -0.42500
O 	O 	0.11885 0.68156 0.32299 -0.43500
O 	O 	0.21030 0.47886 0.40314 -0.40300
C 	C 	0.43696 0.78169 0.34435 0.27200
C 	C 	0.32313 0.57015 0.46160 0.31700
C 	C 	0.32550 0.84557 0.41062 0.31400
C 	C 	0.03433 0.53059 0.42189 0.33200
Zn	Zn	0.20857 0.71304 0.06604 1.22100
Zn	Zn	0.34214 0.84111 0.11317 1.19500
C 	C 	0.37061 0.56344 0.01871 0.28700
Zn	Zn	0.36567 0.71104 0.05902 1.22300
Zn	Zn	0.22714 0.56772 0.01581 1.21000
H 	H 	0.29355 0.68013 0.12399 0.18000
C 	C 	0.39145 0.87961 0.02353 0.29500
O 	O 	0.12688 0.55463 0.00891 -0.41300
O 	O 	0.12609 0.68876 0.02371 -0.38400
O 	O 	0.29851 0.72102 0.10103 -0.79100
O 	O 	0.25728 0.87382 0.12662 -0.46800
O 	O 	0.14664 0.61886 0.10103 -0.43900
O 	O 	0.19388 0.82625 0.07087 -0.42300
O 	O 	0.20224 0.52641 0.07851 -0.38600
O 	O 	0.44601 0.87551 0.10895 -0.46400
H 	H 	0.27756 0.72417 0.00155 0.17800
O 	O 	0.45394 0.74452 0.09668 -0.39800
O 	O 	0.27319 0.68810 0.02625 -0.78800
O 	O 	0.30485 0.51574 0.01892 -0.41200
O 	O 	0.41162 0.81100 0.02396 -0.43800
O 	O 	0.39322 0.60997 0.04954 -0.42700
O 	O 	0.34482 0.88845 0.05075 -0.41500
C 	C 	0.09558 0.61416 0.00901 0.27800
C 	C 	0.20491 0.87194 0.10324 0.29600
C 	C 	0.14964 0.54101 0.09862 0.35400
C 	C 	0.48370 0.82328 0.10586 0.28200
Zn	Zn	0.97299 0.11822 0.22744 1.21800
Zn	Zn	0.86495 0.07514 0.30863 1.19900
C 	C 	0.76672 0.95592 0.15296 0.36000
Zn	Zn	0.83234 0.97330 0.23228 1.22500
Zn	Zn	0.91802 0.05991 0.14483 1.19300
H 	H 	0.83831 0.12683 0.23867 0.18000
C 	C 	0.91672 0.91707 0.29011 0.37700
O 	O 	0.01774 0.12054 0.13162 -0.42000
O 	O 	0.06851 0.12943 0.19288 -0.37400
O 	O 	0.86623 0.09102 0.24909 -0.78900
O 	O 	0.95493 0.16309 0.32087 -0.47200
O 	O 	0.97731 0.23201 0.20817 -0.45200
O 	O 	0.02608 0.12020 0.27632 -0.44200
O 	O 	0.90656 0.18497 0.15618 -0.41300
O 	O 	0.78048 0.98009 0.32760 -0.45700
H 	H 	0.95451 0.97618 0.20032 0.16500
O 	O 	0.73511 0.94471 0.26585 -0.40000
O 	O 	0.92684 0.01670 0.19984 -0.80100
O 	O 	0.81303 0.02660 0.13866 -0.46200
O 	O 	0.86489 0.89226 0.26524 -0.41200
O 	O 	0.77529 0.91981 0.18746 -0.41100
O 	O 	0.92627 0.98691 0.30973 -0.41700
C 	C 	0.06708 0.10891 0.15463 0.36200
C 	C 	0.01819 0.16362 0.30763 0.42800
C 	C 	0.95431 0.24593 0.17308 0.31800
C 	C 	0.72769 0.94179 0.30524 0.38700
C 	C 	0.98883 0.32660 0.15066 -0.10800
C 	C 	0.01121 0.40180 0.17159 0.04600
C 	C 	0.06201 0.47280 0.15411 0.01900
C 	C 	0.09108 0.46924 0.11559 -0.17000
C 	C 	0.06448 0.39633 0.09338 0.35100
C 	C 	0.01335 0.32567 0.11081 -0.04800
H 	H 	0.08065 0.52929 0.17115 0.03800
H 	H 	0.99592 0.26856 0.09411 0.06400
H 	H 	0.99191 0.40388 0.20217 0.01200
F 	F 	0.08894 0.39338 0.05517 -0.44800
C 	C 	0.56034 0.85502 0.11053 0.00200
C 	C 	0.59574 0.94180 0.10471 -0.06600
C 	C 	0.66560 0.97437 0.11558 0.05500
C 	C 	0.70085 0.92043 0.13209 -0.20800
C 	C 	0.66779 0.83258 0.13383 0.39000
C 	C 	0.59763 0.80015 0.12338 -0.16400
H 	H 	0.69104 0.04195 0.11310 0.02700
H 	H 	0.57164 0.73278 0.12669 0.11400
H 	H 	0.56847 0.98440 0.09297 0.05400
F 	F 	0.70302 0.77895 0.14688 -0.45000
C 	C 	0.15963 0.92395 0.11333 -0.00200
C 	C 	0.13102 0.91803 0.15264 -0.06600
C 	C 	0.10500 0.98139 0.16679 0.05200
C 	C 	0.10529 0.05051 0.14150 -0.21200
C 	C 	0.13167 0.05519 0.10158 0.39300
C 	C 	0.15876 0.99203 0.08759 -0.16800
H 	H 	0.08309 0.97572 0.19717 0.01100
H 	H 	0.18171 0.99787 0.05735 0.10900
H 	H 	0.13161 0.86578 0.17280 0.04900
F 	F 	0.13190 0.12137 0.07657 -0.44400
C 	C 	0.51400 0.82085 0.34135 0.00500
C 	C 	0.54264 0.90883 0.34371 -0.07000
C 	C 	0.61451 0.94769 0.33575 0.06000
C 	C 	0.65812 0.89943 0.32420 -0.21000
C 	C 	0.63048 0.81096 0.32416 0.39100
C 	C 	0.55876 0.77175 0.33320 -0.16600
H 	H 	0.63547 0.01586 0.33624 0.01200
H 	H 	0.53754 0.70370 0.33206 0.10800
H 	H 	0.50887 0.94743 0.35045 0.05100
F 	F 	0.67250 0.76335 0.31381 -0.44100
C 	C 	0.16513 0.36984 0.35647 0.01100
C 	C 	0.17091 0.35624 0.31531 -0.06900
C 	C 	0.12847 0.28214 0.29942 0.07800
C 	C 	0.08037 0.22165 0.32472 -0.22500
C 	C 	0.08427 0.22862 0.36658 0.40300
C 	C 	0.12734 0.30249 0.38245 -0.16500
H 	H 	0.12802 0.27564 0.26712 0.02600
H 	H 	0.12530 0.31089 0.41457 0.10600
H 	H 	0.20257 0.40658 0.29515 0.05000
F 	F 	0.04224 0.16694 0.39164 -0.45200
C 	C 	0.07812 0.80114 0.30845 -0.01400
C 	C 	0.09377 0.88082 0.28872 -0.06700
C 	C 	0.04013 0.91643 0.28094 0.09100
C 	C 	0.97011 0.87280 0.29240 -0.23100
C 	C 	0.95387 0.79236 0.31131 0.35800
C 	C 	0.00769 0.75681 0.31952 -0.09600
H 	H 	0.05321 0.97895 0.26680 0.01600
H 	H 	0.99477 0.69554 0.33508 0.07900
H 	H 	0.14752 0.91563 0.27968 0.05400
F 	F 	0.88646 0.75011 0.32320 -0.43700
C 	C 	0.44554 0.07090 0.46457 -0.08300
C 	C 	0.47872 0.01342 0.44937 0.03100
C 	C 	0.43855 0.94071 0.43141 -0.02500
H 	H 	0.46352 0.89469 0.42142 0.04700
C 	C 	0.36654 0.92672 0.42603 -0.08300
C 	C 	0.33413 0.98682 0.43866 0.02000
C 	C 	0.37357 0.05799 0.45840 -0.00700
H 	H 	0.34819 0.10296 0.46922 0.05200
C 	C 	0.25894 0.97508 0.43187 0.00700
C 	C 	0.23876 0.00743 0.39629 -0.01200
C 	C 	0.16745 0.98872 0.38789 -0.03500
C 	C 	0.11615 0.93824 0.41504 -0.01500
C 	C 	0.13602 0.90730 0.45089 -0.02100
C 	C 	0.20726 0.92607 0.45946 -0.03100
C 	C 	0.55603 0.03152 0.44931 0.02200
C 	C 	0.59922 0.09480 0.42308 -0.05200
C 	C 	0.67171 0.10678 0.42024 -0.02400
C 	C 	0.70118 0.05480 0.44302 -0.03000
C 	C 	0.65827 0.99107 0.46887 -0.02300
C 	C 	0.58589 0.97963 0.47224 -0.04700
H 	H 	0.70489 0.15550 0.39992 0.02300
H 	H 	0.75718 0.06352 0.44044 0.03900
H 	H 	0.68103 0.95015 0.48607 0.03500
H 	H 	0.55287 0.92964 0.49207 0.05000
H 	H 	0.57637 0.13333 0.40432 0.03500
H 	H 	0.27831 0.04520 0.37477 0.04100
H 	H 	0.15198 0.01271 0.36018 0.06200
H 	H 	0.22238 0.90150 0.48714 0.04800
H 	H 	0.09626 0.86834 0.47192 0.04900
H 	H 	0.06104 0.92308 0.40829 0.06000
C 	C 	0.84489 0.46329 0.49344 -0.08200
C 	C 	0.84172 0.46970 0.45122 0.02400
C 	C 	0.90429 0.49670 0.42757 -0.00500
H 	H 	0.90233 0.49696 0.39504 0.04500
C 	C 	0.96941 0.52073 0.44594 -0.10700
C 	C 	0.97161 0.52535 0.48821 -0.00200
C 	C 	0.90946 0.49401 0.51171 -0.00800
H 	H 	0.91124 0.49425 0.54426 0.03700
C 	C 	0.03864 0.56488 0.50790 0.03000
C 	C 	0.06591 0.51697 0.53477 -0.07400
C 	C 	0.12969 0.55423 0.55288 -0.01900
C 	C 	0.16694 0.63887 0.54387 -0.04700
C 	C 	0.13998 0.68685 0.51718 -0.03000
C 	C 	0.07573 0.65030 0.49943 -0.08300
C 	C 	0.77331 0.45093 0.43185 0.01600
C 	C 	0.74181 0.51520 0.42567 -0.03800
C 	C 	0.67453 0.49619 0.41025 -0.01200
C 	C 	0.63859 0.41320 0.40090 -0.05700
C 	C 	0.67012 0.34921 0.40660 -0.04000
C 	C 	0.73739 0.36788 0.42204 -0.05300
H 	H 	0.65007 0.54564 0.40579 0.04900
H 	H 	0.58628 0.39847 0.38928 0.02800
H 	H 	0.64232 0.28516 0.39922 0.02100
H 	H 	0.76103 0.31775 0.42705 0.04000
H 	H 	0.76890 0.57937 0.43349 0.06100
H 	H 	0.03789 0.45097 0.54144 0.05800
H 	H 	0.15011 0.51764 0.57403 0.04300
H 	H 	0.05510 0.68797 0.47884 0.05500
H 	H 	0.16890 0.75229 0.51022 0.03500
H 	H 	0.21668 0.66730 0.55758 0.05300
C 	C 	0.50006 0.54223 0.52180 -0.08400
C 	C 	0.50822 0.61225 0.49514 0.02700
C 	C 	0.44864 0.62509 0.47802 -0.01600
H 	H 	0.45452 0.67749 0.45658 0.04300
C 	C 	0.38188 0.56740 0.48668 -0.08500
C 	C 	0.37344 0.50472 0.51776 0.02800
C 	C 	0.43274 0.49817 0.53747 -0.02100
H 	H 	0.42669 0.45046 0.56135 0.05600
C 	C 	0.30484 0.43990 0.52662 0.01800
C 	C 	0.27587 0.37935 0.49824 -0.04400
C 	C 	0.21066 0.31891 0.50650 -0.01600
C 	C 	0.17526 0.31681 0.54355 -0.02300
C 	C 	0.20524 0.37477 0.57249 -0.02400
C 	C 	0.26965 0.43669 0.56400 -0.04200
C 	C 	0.57915 0.67004 0.48388 0.01300
C 	C 	0.62411 0.71047 0.51381 -0.04400
C 	C 	0.69101 0.76504 0.50314 -0.02200
C 	C 	0.71320 0.77989 0.46266 -0.03000
C 	C 	0.66868 0.73991 0.43275 -0.02300
C 	C 	0.60183 0.68500 0.44323 -0.04000
H 	H 	0.72562 0.79593 0.52626 0.03500
H 	H 	0.76488 0.82243 0.45447 0.04700
H 	H 	0.68610 0.75118 0.40145 0.07100
H 	H 	0.56790 0.65373 0.41987 0.05200
H 	H 	0.60717 0.69971 0.54523 0.05200
H 	H 	0.30352 0.37978 0.46972 0.05000
H 	H 	0.18791 0.27313 0.48437 0.06000
H 	H 	0.29205 0.48222 0.58634 0.05000
H 	H 	0.17827 0.37218 0.60139 0.04600
H 	H 	0.12512 0.26942 0.55006 0.05300
C 	C 	0.69376 0.06739 0.61277 0.00300
C 	C 	0.70629 0.00729 0.58729 -0.05600
C 	C 	0.74940 0.95896 0.59947 0.05900
C 	C 	0.78008 0.97066 0.63719 -0.20800
C 	C 	0.75754 0.02001 0.66501 0.38900
C 	C 	0.71476 0.06864 0.65269 -0.16600
H 	H 	0.76415 0.91844 0.57824 0.02000
H 	H 	0.70330 0.11289 0.67308 0.08100
H 	H 	0.68831 0.00373 0.55682 0.05600
F 	F 	0.78380 0.02875 0.70238 -0.45400
C 	C 	0.36849 0.22841 0.58321 0.00600
C 	C 	0.35186 0.22685 0.62441 -0.06100
C 	C 	0.28216 0.19288 0.63889 0.06000
C 	C 	0.22787 0.15867 0.61240 -0.19600
C 	C 	0.24460 0.15987 0.57093 0.38200
C 	C 	0.31452 0.19585 0.55643 -0.16000
H 	H 	0.27049 0.19272 0.67083 0.03800
H 	H 	0.32687 0.19679 0.52449 0.09900
H 	H 	0.39305 0.25131 0.64537 0.06300
F 	F 	0.19348 0.12736 0.54465 -0.45700
C 	C 	0.82551 0.59727 0.60896 0.00800
C 	C 	0.81056 0.67199 0.59732 -0.06000
C 	C 	0.86206 0.75047 0.59980 0.05900
C 	C 	0.92837 0.75522 0.61474 -0.19000
C 	C 	0.94559 0.68028 0.62212 0.37300
C 	C 	0.89440 0.60186 0.61962 -0.15100
H 	H 	0.84867 0.80776 0.59284 0.02500
H 	H 	0.90801 0.54482 0.62685 0.10800
H 	H 	0.75892 0.66968 0.58710 0.06200
F 	F 	0.01057 0.68358 0.63468 -0.41900
C 	C 	0.89142 0.48584 0.97504 -0.10000
C 	C 	0.91075 0.47787 0.01506 0.05100
C 	C 	0.97398 0.53221 0.02807 -0.07100
H 	H 	0.99017 0.52389 0.05837 0.05800
C 	C 	0.02055 0.58984 0.00088 0.01500
C 	C 	0.99860 0.60229 0.96192 -0.06400
C 	C 	0.93454 0.54955 0.94914 0.02000
H 	H 	0.91778 0.55886 0.91908 0.03900
C 	C 	0.04018 0.67295 0.93495 0.06400
C 	C 	0.06675 0.65610 0.89765 -0.06500
C 	C 	0.09215 0.72110 0.86833 -0.01100
C 	C 	0.09233 0.80335 0.87632 -0.03300
C 	C 	0.06824 0.82103 0.91390 -0.01300
C 	C 	0.04234 0.75611 0.94323 -0.06000
C 	C 	0.86949 0.40762 0.04228 0.00800
C 	C 	0.87919 0.32755 0.03986 -0.04300
C 	C 	0.84714 0.26379 0.06881 -0.01700
C 	C 	0.80549 0.27973 0.10024 -0.03400
C 	C 	0.79539 0.35926 0.10263 -0.02200
C 	C 	0.82739 0.42323 0.07378 -0.04200
H 	H 	0.85508 0.20228 0.06706 0.03300
H 	H 	0.78083 0.23037 0.12264 0.04500
H 	H 	0.76298 0.37143 0.12691 0.03800
H 	H 	0.82053 0.48519 0.07627 0.04500
H 	H 	0.91268 0.31537 0.01611 0.05600
H 	H 	0.06552 0.59222 0.89096 0.06000
H 	H 	0.11153 0.70767 0.83939 0.04100
H 	H 	0.02158 0.76981 0.97178 0.06300
H 	H 	0.06898 0.88487 0.92016 0.03900
H 	H 	0.11190 0.85355 0.85357 0.01400
C 	C 	0.42896 0.95158 0.99627 -0.07300
C 	C 	0.43153 0.94235 0.95420 0.01100
C 	C 	0.47865 0.00566 0.92961 0.00600
H 	H 	0.47958 0.99945 0.89726 0.03200
C 	C 	0.52004 0.08000 0.94599 -0.08000
C 	C 	0.51538 0.09065 0.98779 0.02900
C 	C 	0.47053 0.02607 0.01268 -0.01400
H 	H 	0.46899 0.03321 0.04495 0.04300
C 	C 	0.55676 0.16954 0.00564 0.00700
C 	C 	0.62906 0.18505 0.01084 -0.05600
C 	C 	0.66888 0.26187 0.02567 -0.02900
C 	C 	0.63645 0.32246 0.03635 -0.05600
C 	C 	0.56419 0.30670 0.03175 -0.03600
C 	C 	0.52434 0.23049 0.01632 -0.04900
C 	C 	0.38007 0.87171 0.93509 0.01800
C 	C 	0.40336 0.82406 0.90668 -0.05300
C 	C 	0.35494 0.76884 0.88289 -0.02100
C 	C 	0.28303 0.75817 0.88851 -0.04200
C 	C 	0.25935 0.80128 0.91852 -0.03100
C 	C 	0.30762 0.85969 0.94098 -0.05800
H 	H 	0.37311 0.73366 0.86039 0.04000
H 	H 	0.24557 0.71496 0.87027 0.04100
H 	H 	0.20368 0.78947 0.92445 0.03600
H 	H 	0.28884 0.89625 0.96259 0.05000
H 	H 	0.45903 0.83196 0.90217 0.04700
H 	H 	0.65461 0.13859 0.00242 0.04700
H 	H 	0.72507 0.27540 0.02771 0.04000
H 	H 	0.46855 0.21911 0.01230 0.05200
H 	H 	0.53910 0.35360 0.03999 0.03300
H 	H 	0.66742 0.38185 0.04787 0.03500
C 	C 	0.52100 0.52392 0.93292 -0.08700
C 	C 	0.54348 0.56413 0.96921 0.01500
C 	C 	0.49367 0.57646 0.99676 -0.01600
H 	H 	0.51081 0.60385 0.02529 0.05500
C 	C 	0.42204 0.55298 0.98797 -0.07800
C 	C 	0.40123 0.52435 0.94917 0.01800
C 	C 	0.45120 0.51081 0.92191 -0.01000
H 	H 	0.43488 0.48580 0.89281 0.05700
C 	C 	0.32729 0.50613 0.93704 0.02100
C 	C 	0.29562 0.57106 0.93467 -0.08900
C 	C 	0.22434 0.55233 0.92617 -0.06000
C 	C 	0.18509 0.46951 0.91866 -0.03100
C 	C 	0.21683 0.40501 0.91995 -0.01500
C 	C 	0.28771 0.42305 0.92922 -0.04300
C 	C 	0.61887 0.59449 0.97861 -0.00300
C 	C 	0.66476 0.66371 0.95668 -0.04600
C 	C 	0.73633 0.69071 0.96493 -0.02800
C 	C 	0.76195 0.65045 0.99578 -0.03800
C 	C 	0.71590 0.58383 0.01878 -0.03500
C 	C 	0.64453 0.55566 0.01020 -0.09800
H 	H 	0.77196 0.74266 0.94733 0.03800
H 	H 	0.81744 0.67098 0.00193 0.04100
H 	H 	0.73565 0.55338 0.04295 0.04100
H 	H 	0.60925 0.50381 0.02801 0.03800
H 	H 	0.64525 0.69516 0.93273 0.05200
H 	H 	0.32511 0.63483 0.94175 0.02400
H 	H 	0.19900 0.60152 0.92653 0.02200
H 	H 	0.31157 0.37244 0.93092 0.05800
H 	H 	0.18632 0.34086 0.91419 0.05300
H 	H 	0.12990 0.45517 0.91223 0.05200
C 	C 	0.84166 0.19606 0.82697 0.01400
C 	C 	0.88262 0.16322 0.85258 -0.07300
C 	C 	0.93836 0.13761 0.83669 0.08900
C 	C 	0.95423 0.14557 0.79510 -0.24600
C 	C 	0.91585 0.18325 0.76980 0.41000
C 	C 	0.85936 0.20752 0.78566 -0.16600
H 	H 	0.96785 0.10918 0.85654 0.01400
H 	H 	0.82849 0.23373 0.76572 0.09700
H 	H 	0.86966 0.15451 0.88455 0.06400
F 	F 	0.93119 0.19293 0.72964 -0.47800
C 	C 	0.27038 0.12494 0.78603 0.00700
C 	C 	0.29397 0.07573 0.81411 -0.07200
C 	C 	0.36386 0.10179 0.82564 0.07400
C 	C 	0.41052 0.17755 0.80943 -0.21600
C 	C 	0.38689 0.22680 0.78141 0.39300
C 	C 	0.31717 0.20064 0.76983 -0.16400
H 	H 	0.38143 0.06388 0.84766 0.02500
H 	H 	0.29953 0.23907 0.74812 0.11400
H 	H 	0.25854 0.01668 0.82648 0.04900
F 	F 	0.43173 0.29981 0.76522 -0.46100
C 	C 	0.80916 0.60026 0.83682 0.00800
C 	C 	0.79486 0.67532 0.84679 -0.07200
C 	C 	0.82772 0.75065 0.82486 0.07600
C 	C 	0.87475 0.75151 0.79269 -0.21400
C 	C 	0.88369 0.67509 0.78030 0.39000
C 	C 	0.85131 0.59982 0.80239 -0.16500
H 	H 	0.81987 0.80912 0.83438 0.02500
H 	H 	0.86137 0.54205 0.79368 0.11100
H 	H 	0.76014 0.67588 0.87232 0.06000
F 	F 	0.92735 0.67477 0.74830 -0.45500
