data_crystal

_cell_length_a 23.47476
_cell_length_b 20.64444
_cell_length_c 45.92787
_cell_angle_alpha 90.61515
_cell_angle_beta  91.41296
_cell_angle_gamma 110.85483

_symmetry_space_group_name_	'P 1'
_symmetry_space_group_name_H-M	'P 1'

loop_
_symmetry_equiv_pos_as_xyz
  x,y,z

loop_
_atom_site_label
_atom_site_type_symbol
_atom_site_fract_x
_atom_site_fract_y
_atom_site_fract_z
_atom_site_charge
Ni	Ni	0.69558 0.29352 0.88065 1.10000
O 	O 	0.61283 0.23434 0.86233 -0.70300
Ni	Ni	0.55581 0.25860 0.88822 1.10200
O 	O 	0.73993 0.25636 0.85045 -0.36200
O 	O 	0.68685 0.14504 0.86358 -0.38900
O 	O 	0.69207 0.36804 0.85208 -0.38300
Ni	Ni	0.59528 0.13538 0.86423 1.06600
O 	O 	0.74111 0.39435 0.93857 -0.41700
O 	O 	0.60342 0.13722 0.90853 -0.41500
O 	O 	0.47786 0.20514 0.86510 -0.35900
O 	O 	0.63777 0.30510 0.90998 -0.70000
O 	O 	0.77853 0.35910 0.89753 -0.37400
O 	O 	0.51058 0.31055 0.91135 -0.37000
O 	O 	0.58645 0.41303 0.90269 -0.41200
Ni	Ni	0.66434 0.40310 0.92102 1.07100
H 	H 	0.60776 0.24757 0.84204 0.15500
H 	H 	0.64033 0.27843 0.92742 0.15800
C 	C 	0.55821 0.13796 0.92444 0.28600
O 	O 	0.71487 0.45365 0.88702 -0.37900
C 	C 	0.72724 0.18913 0.84705 0.23900
C 	C 	0.46993 0.14244 0.85463 0.24000
C 	C 	0.70364 0.43319 0.85968 0.26800
C 	C 	0.53304 0.37871 0.91346 0.27100
C 	C 	0.78726 0.39514 0.92244 0.29200
O 	O 	0.52953 0.18099 0.91860 -0.36700
O 	O 	0.50219 0.10654 0.86560 -0.39600
Ni	Ni	0.64857 0.32253 0.55587 1.09900
O 	O 	0.71466 0.33428 0.52594 -0.69900
Ni	Ni	0.78227 0.32299 0.55068 1.09700
O 	O 	0.59689 0.36198 0.52981 -0.37000
O 	O 	0.67943 0.45832 0.52084 -0.41000
O 	O 	0.59786 0.22635 0.53806 -0.37000
Ni	Ni	0.74447 0.42153 0.50487 1.06900
O 	O 	0.59039 0.19632 0.59450 -0.39900
O 	O 	0.81060 0.49180 0.53129 -0.37400
O 	O 	0.85292 0.34957 0.52190 -0.37900
O 	O 	0.71314 0.30304 0.57961 -0.70100
O 	O 	0.58599 0.30442 0.58762 -0.35800
O 	O 	0.83634 0.29629 0.58058 -0.36200
O 	O 	0.76254 0.19071 0.58759 -0.39200
Ni	Ni	0.67969 0.20556 0.59003 1.06600
H 	H 	0.70117 0.29603 0.51126 0.15100
H 	H 	0.72498 0.33352 0.59721 0.15800
C 	C 	0.84144 0.47474 0.55219 0.26600
O 	O 	0.66468 0.17139 0.54792 -0.41500
C 	C 	0.62086 0.42221 0.51725 0.26900
C 	C 	0.85675 0.38905 0.49885 0.28700
C 	C 	0.62043 0.17816 0.53180 0.28300
C 	C 	0.81543 0.23830 0.59513 0.24400
C 	C 	0.57161 0.24701 0.60274 0.24500
O 	O 	0.81477 0.42090 0.56815 -0.38900
O 	O 	0.80721 0.39091 0.48511 -0.41800
Ni	Ni	0.00341 0.92793 0.72899 1.09400
O 	O 	0.03490 0.86650 0.70394 -0.71000
Ni	Ni	0.08190 0.93439 0.67463 1.10000
O 	O 	0.95627 0.84691 0.75495 -0.35600
O 	O 	0.90731 0.77650 0.71647 -0.38800
O 	O 	0.07705 0.94722 0.75770 -0.36400
Ni	Ni	0.96810 0.79482 0.68264 1.07100
O 	O 	0.06973 0.07148 0.75786 -0.39100
O 	O 	0.93056 0.86305 0.66640 -0.40100
O 	O 	0.11099 0.86667 0.65219 -0.35700
O 	O 	0.04574 0.99561 0.69803 -0.68900
O 	O 	0.97303 0.99260 0.75231 -0.36700
O 	O 	0.14199 0.01359 0.65213 -0.35000
O 	O 	0.15936 0.10924 0.68104 -0.39200
Ni	Ni	0.10758 0.07591 0.71789 1.06800
H 	H 	0.06117 0.84638 0.71495 0.16000
H 	H 	0.01642 0.01079 0.68680 0.15200
C 	C 	0.95937 0.91118 0.64802 0.25800
O 	O 	0.15527 0.01525 0.73025 -0.40700
C 	C 	0.92475 0.78470 0.74412 0.24500
C 	C 	0.07119 0.80583 0.64372 0.24700
C 	C 	0.13430 0.96675 0.74967 0.25000
C 	C 	0.18027 0.06925 0.66540 0.25700
C 	C 	0.01066 0.05336 0.76180 0.23400
O 	O 	0.01668 0.92295 0.64230 -0.35100
O 	O 	0.01212 0.79367 0.64498 -0.39000
Ni	Ni	0.26509 0.69440 0.40006 1.10000
O 	O 	0.33872 0.74431 0.37558 -0.70600
Ni	Ni	0.40605 0.73247 0.39961 1.10100
O 	O 	0.20912 0.71787 0.37040 -0.36000
O 	O 	0.26430 0.83401 0.37585 -0.38600
O 	O 	0.25891 0.60854 0.37538 -0.36800
Ni	Ni	0.35541 0.84268 0.37194 1.06700
O 	O 	0.24352 0.62033 0.46388 -0.41800
O 	O 	0.36373 0.86144 0.41584 -0.41400
O 	O 	0.47315 0.77459 0.37084 -0.36500
O 	O 	0.33443 0.69673 0.42699 -0.70100
O 	O 	0.19014 0.63697 0.42323 -0.37100
O 	O 	0.46195 0.69403 0.42335 -0.37300
O 	O 	0.38647 0.58771 0.42465 -0.41600
Ni	Ni	0.31451 0.60566 0.44421 1.06900
H 	H 	0.33598 0.72215 0.35611 0.16200
H 	H 	0.33821 0.73108 0.44279 0.15600
C 	C 	0.41334 0.86498 0.43047 0.29100
O 	O 	0.25366 0.54080 0.41475 -0.39400
C 	C 	0.21662 0.78284 0.36475 0.24000
C 	C 	0.47949 0.83468 0.35876 0.24400
C 	C 	0.25691 0.54954 0.38656 0.26500
C 	C 	0.44320 0.62834 0.43058 0.26800
C 	C 	0.19145 0.61255 0.44984 0.28900
O 	O 	0.44252 0.82323 0.42385 -0.37400
O 	O 	0.44864 0.87329 0.36840 -0.39100
Ni	Ni	0.32930 0.66786 0.03485 1.10000
O 	O 	0.25499 0.66760 0.01073 -0.69900
Ni	Ni	0.20158 0.68226 0.04168 1.09800
O 	O 	0.36214 0.62169 0.00274 -0.37500
O 	O 	0.27056 0.53302 0.99793 -0.41000
O 	O 	0.38137 0.76346 0.01891 -0.37000
Ni	Ni	0.21052 0.58352 0.98767 1.06800
O 	O 	0.40971 0.78315 0.07715 -0.38900
O 	O 	0.14712 0.51613 0.01403 -0.37300
O 	O 	0.12130 0.66563 0.01826 -0.38100
O 	O 	0.27955 0.69200 0.06507 -0.70200
O 	O 	0.40137 0.67419 0.06152 -0.37000
O 	O 	0.16446 0.71052 0.07747 -0.36600
O 	O 	0.24591 0.81199 0.08379 -0.38800
Ni	Ni	0.32369 0.78683 0.07861 1.06900
H 	H 	0.26612 0.70757 0.99758 0.15200
H 	H 	0.27203 0.65955 0.08147 0.16000
C 	C 	0.13207 0.53151 0.03990 0.27000
O 	O 	0.32766 0.82608 0.03800 -0.41400
C 	C 	0.32868 0.56020 0.99194 0.26600
C 	C 	0.10663 0.63001 0.99328 0.29200
C 	C 	0.36445 0.81784 0.01850 0.28700
C 	C 	0.19333 0.76821 0.09248 0.24400
C 	C 	0.42255 0.72609 0.08056 0.24500
O 	O 	0.16995 0.58265 0.05563 -0.39100
O 	O 	0.14906 0.62693 0.97555 -0.42100
Ni	Ni	0.95439 0.06617 0.24580 1.09900
O 	O 	0.94880 0.13295 0.21421 -0.70300
Ni	Ni	0.89865 0.06616 0.18357 1.09900
O 	O 	0.00734 0.14709 0.27235 -0.34900
O 	O 	0.07538 0.18966 0.23620 -0.40100
O 	O 	0.87666 0.07634 0.26145 -0.36900
Ni	Ni	0.02607 0.18689 0.19751 1.06400
O 	O 	0.91185 0.89377 0.24991 -0.38700
O 	O 	0.04727 0.10274 0.18545 -0.40500
O 	O 	0.88835 0.13798 0.15605 -0.36300
O 	O 	0.91691 0.00092 0.21232 -0.71100
O 	O 	0.95236 0.99584 0.27754 -0.35700
O 	O 	0.83194 0.98782 0.16120 -0.35100
O 	O 	0.78341 0.94656 0.20330 -0.40800
Ni	Ni	0.85003 0.92217 0.22663 1.07300
H 	H 	0.92730 0.16367 0.22082 0.16000
H 	H 	0.94793 0.98335 0.20486 0.16700
C 	C 	0.01772 0.05967 0.16433 0.24700
O 	O 	0.82759 0.95992 0.26412 -0.37400
C 	C 	0.05537 0.19650 0.26225 0.23900
C 	C 	0.93593 0.19439 0.15108 0.24200
C 	C 	0.82730 0.02295 0.26661 0.25700
C 	C 	0.78300 0.94919 0.17463 0.23900
C 	C 	0.94523 0.92985 0.27242 0.25700
O 	O 	0.96254 0.05523 0.15584 -0.34500
O 	O 	0.99215 0.19586 0.15672 -0.38500
C 	C 	0.94947 0.34774 0.11505 0.11100
C 	C 	0.98553 0.41784 0.11210 -0.06900
C 	C 	0.00621 0.44103 0.08434 -0.01500
C 	C 	0.99929 0.39500 0.06130 0.13300
C 	C 	0.96676 0.32407 0.06481 -0.09500
C 	C 	0.93828 0.30260 0.09140 0.01500
O 	O 	0.94310 0.31541 0.14178 -0.20800
C 	C 	0.92772 0.24686 0.13198 0.04900
C 	C 	0.92492 0.23871 0.10208 -0.05700
O 	O 	0.04326 0.41901 0.04030 -0.19500
C 	C 	0.07783 0.48276 0.05340 0.03700
C 	C 	0.05603 0.49661 0.07940 -0.05000
H 	H 	0.00059 0.45179 0.13112 0.05300
H 	H 	0.96720 0.28657 0.04822 0.07100
H 	H 	0.93159 0.19593 0.09059 0.06300
H 	H 	0.08265 0.53378 0.09588 0.05500
C 	C 	0.54002 0.77594 0.13334 0.12100
C 	C 	0.56890 0.82701 0.15463 -0.09400
C 	C 	0.62800 0.87280 0.14956 0.01300
C 	C 	0.65959 0.86497 0.12571 0.11400
C 	C 	0.63157 0.81249 0.10488 -0.08600
C 	C 	0.57181 0.76723 0.10959 0.00600
O 	O 	0.47728 0.75181 0.12857 -0.21000
C 	C 	0.47440 0.72964 0.09956 0.04500
C 	C 	0.53034 0.73781 0.08822 -0.05400
O 	O 	0.72256 0.89475 0.12943 -0.18800
C 	C 	0.72523 0.91940 0.15807 0.04400
C 	C 	0.66929 0.90666 0.17026 -0.06400
H 	H 	0.54472 0.83352 0.17357 0.06300
H 	H 	0.65577 0.80639 0.08588 0.06600
H 	H 	0.53984 0.74304 0.06520 0.05800
H 	H 	0.66120 0.90513 0.19342 0.05300
C 	C 	0.06008 0.93431 0.12668 0.11200
C 	C 	0.04697 0.86511 0.11796 -0.08600
C 	C 	0.08965 0.83394 0.12521 0.00500
C 	C 	0.14435 0.87085 0.13944 0.12000
C 	C 	0.15661 0.93954 0.14873 -0.09500
C 	C 	0.11473 0.97099 0.14079 0.02100
O 	O 	0.01478 0.96196 0.13078 -0.18600
C 	C 	0.04756 0.01804 0.14914 0.03800
C 	C 	0.10702 0.02376 0.15528 -0.06900
O 	O 	0.19086 0.84629 0.13363 -0.20200
C 	C 	0.15974 0.79285 0.11379 0.04300
C 	C 	0.09920 0.78453 0.10896 -0.05600
H 	H 	0.00460 0.83618 0.10638 0.06500
H 	H 	0.19908 0.96872 0.16018 0.06600
H 	H 	0.13395 0.05022 0.17426 0.05500
H 	H 	0.07293 0.76144 0.08931 0.05800
C 	C 	0.71470 0.01861 0.31597 0.10800
C 	C 	0.68559 0.98779 0.34131 -0.07700
C 	C 	0.62196 0.95506 0.33993 0.00500
C 	C 	0.58935 0.94447 0.31393 0.12000
C 	C 	0.61932 0.96927 0.28804 -0.08800
C 	C 	0.68149 0.01116 0.29011 0.01200
O 	O 	0.77672 0.03405 0.31236 -0.18300
C 	C 	0.77749 0.03400 0.28193 0.04900
C 	C 	0.72098 0.01997 0.26852 -0.07400
O 	O 	0.53292 0.89091 0.31435 -0.20600
C 	C 	0.53545 0.86977 0.34308 0.05000
C 	C 	0.58940 0.90615 0.35800 -0.05300
H 	H 	0.71191 0.98556 0.36073 0.06800
H 	H 	0.59593 0.95387 0.26706 0.06300
H 	H 	0.70863 0.99788 0.24672 0.05500
H 	H 	0.59662 0.90742 0.38143 0.05700
C 	C 	0.23514 0.42571 0.32944 0.11600
C 	C 	0.21574 0.40228 0.30085 -0.09000
C 	C 	0.17921 0.33226 0.29647 0.01000
C 	C 	0.15425 0.29029 0.31950 0.11400
C 	C 	0.16966 0.31548 0.34819 -0.08700
C 	C 	0.21453 0.38167 0.35246 0.00800
O 	O 	0.25629 0.49567 0.33733 -0.19300
C 	C 	0.24601 0.48912 0.36716 0.04100
C 	C 	0.22108 0.42175 0.37638 -0.05700
O 	O 	0.10084 0.23507 0.31219 -0.18500
C 	C 	0.09600 0.24873 0.28265 0.04200
C 	C 	0.14235 0.30633 0.27320 -0.06100
H 	H 	0.22584 0.43808 0.28299 0.06300
H 	H 	0.14540 0.28626 0.36635 0.06600
H 	H 	0.19553 0.40598 0.39604 0.05500
H 	H 	0.14117 0.33359 0.25330 0.03700
C 	C 	0.99721 0.81818 0.31468 0.13400
C 	C 	0.02640 0.76964 0.31671 -0.10100
C 	C 	0.07092 0.77944 0.33897 0.01600
C 	C 	0.09290 0.84034 0.35525 0.11100
C 	C 	0.06684 0.89123 0.35170 -0.07800
C 	C 	0.01568 0.87623 0.33285 -0.01100
O 	O 	0.96641 0.82537 0.28937 -0.19300
C 	C 	0.96921 0.89345 0.29400 0.04200
C 	C 	0.99829 0.92410 0.31970 -0.03500
O 	O 	0.15195 0.85593 0.36632 -0.18900
C 	C 	0.16346 0.79900 0.35487 0.04400
C 	C 	0.11553 0.75303 0.33873 -0.05900
H 	H 	0.01741 0.72840 0.30052 0.06700
H 	H 	0.08799 0.94215 0.36181 0.06600
H 	H 	0.01857 0.97952 0.32386 0.05700
H 	H 	0.11916 0.71506 0.32312 0.05400
C 	C 	0.44248 0.92369 0.45079 -0.08100
C 	C 	0.40685 0.94842 0.46876 0.01600
C 	C 	0.43458 0.00544 0.48750 -0.06800
C 	C 	0.49826 0.03838 0.48841 0.02100
C 	C 	0.53421 0.01398 0.47014 0.00200
C 	C 	0.50613 0.95681 0.45143 -0.00700
C 	C 	0.59785 0.04671 0.47106 -0.05300
C 	C 	0.62578 0.10197 0.49055 0.00100
C 	C 	0.59043 0.12551 0.50916 -0.07300
C 	C 	0.52658 0.09452 0.50769 -0.02200
H 	H 	0.35769 0.92323 0.46832 0.03400
H 	H 	0.40655 0.02375 0.50138 0.04900
H 	H 	0.53362 0.93853 0.43715 0.04800
H 	H 	0.62579 0.02877 0.45697 0.04300
H 	H 	0.67505 0.12605 0.49144 0.03000
H 	H 	0.49928 0.11256 0.52216 0.05200
C 	C 	0.91632 0.42132 0.48527 -0.07000
C 	C 	0.91991 0.42362 0.45479 0.00600
C 	C 	0.97484 0.46105 0.44182 -0.04900
C 	C 	0.02671 0.49740 0.45916 0.01100
C 	C 	0.02368 0.49452 0.48984 0.01100
C 	C 	0.96877 0.45517 0.50274 -0.00900
C 	C 	0.07534 0.53183 0.50717 -0.05300
C 	C 	0.12972 0.57134 0.49415 0.00300
C 	C 	0.13318 0.57379 0.46364 -0.06900
C 	C 	0.08147 0.53677 0.44622 -0.01700
H 	H 	0.87997 0.39680 0.44113 0.03700
H 	H 	0.97678 0.46248 0.41827 0.04800
H 	H 	0.96647 0.45219 0.52625 0.04800
H 	H 	0.07340 0.53049 0.53072 0.04500
H 	H 	0.16911 0.60011 0.50780 0.03600
H 	H 	0.08409 0.53790 0.42267 0.05200
C 	C 	0.58135 0.45027 0.49995 -0.07400
C 	C 	0.52495 0.40531 0.48838 0.00200
C 	C 	0.48755 0.43114 0.47174 -0.05800
C 	C 	0.50594 0.50231 0.46642 0.01300
C 	C 	0.56272 0.54785 0.47779 0.01400
C 	C 	0.60023 0.52163 0.49452 -0.02600
C 	C 	0.58100 0.61906 0.47248 -0.05700
C 	C 	0.54273 0.64510 0.45649 0.00300
C 	C 	0.48567 0.60019 0.44554 -0.07500
C 	C 	0.46792 0.52858 0.45018 -0.02700
H 	H 	0.51026 0.35011 0.49209 0.04200
H 	H 	0.44417 0.39573 0.46303 0.04300
H 	H 	0.64360 0.55663 0.50346 0.04500
H 	H 	0.62461 0.65444 0.48096 0.04600
H 	H 	0.55712 0.70035 0.45303 0.04400
H 	H 	0.42437 0.49349 0.44147 0.04000
C 	C 	0.87417 0.13817 0.63734 0.11800
C 	C 	0.85523 0.07072 0.64813 -0.09200
C 	C 	0.87700 0.02289 0.63501 0.00200
C 	C 	0.92107 0.04264 0.61439 0.11500
C 	C 	0.94162 0.11052 0.60414 -0.08800
C 	C 	0.91782 0.15798 0.61628 0.00600
O 	O 	0.83604 0.17628 0.63742 -0.20900
C 	C 	0.85775 0.21749 0.61330 0.04400
C 	C 	0.90774 0.20845 0.60119 -0.05500
O 	O 	0.95549 0.00032 0.61260 -0.18800
C 	C 	0.92813 0.95378 0.63446 0.04000
C 	C 	0.88128 0.96687 0.64792 -0.05500
H 	H 	0.82133 0.05481 0.66475 0.06000
H 	H 	0.97533 0.12607 0.58743 0.06800
H 	H 	0.92028 0.21960 0.57872 0.05700
H 	H 	0.86687 0.95146 0.66983 0.04700
C 	C 	0.43454 0.22571 0.63812 0.11200
C 	C 	0.37645 0.23071 0.63596 -0.08500
C 	C 	0.32537 0.16931 0.63716 0.00800
C 	C 	0.33110 0.10624 0.64220 0.12000
C 	C 	0.38901 0.10161 0.64541 -0.09100
C 	C 	0.44029 0.16290 0.64420 0.01200
O 	O 	0.48479 0.27225 0.62468 -0.18600
C 	C 	0.52066 0.23090 0.62285 0.04300
C 	C 	0.49467 0.16604 0.63464 -0.06600
O 	O 	0.27926 0.05694 0.65319 -0.19300
C 	C 	0.24293 0.09761 0.65522 0.04400
C 	C 	0.26973 0.16452 0.64565 -0.05400
H 	H 	0.37134 0.27996 0.63191 0.06500
H 	H 	0.39398 0.05220 0.64927 0.06400
H 	H 	0.50593 0.12114 0.62872 0.05100
H 	H 	0.25603 0.20779 0.65136 0.05300
C 	C 	0.06740 0.65785 0.60802 0.12000
C 	C 	0.02895 0.58799 0.60742 -0.10000
C 	C 	0.99196 0.56136 0.58249 0.01400
C 	C 	0.98890 0.60383 0.55992 0.11700
C 	C 	0.02699 0.67373 0.56056 -0.09200
C 	C 	0.06797 0.69911 0.58441 0.00800
O 	O 	0.08463 0.69471 0.63421 -0.21000
C 	C 	0.09075 0.76083 0.62480 0.05100
C 	C 	0.08399 0.76436 0.59500 -0.05400
O 	O 	0.93324 0.58108 0.54453 -0.18900
C 	C 	0.90277 0.52274 0.56071 0.04000
C 	C 	0.93747 0.50977 0.58288 -0.06100
H 	H 	0.02303 0.55771 0.62699 0.06300
H 	H 	0.02007 0.70892 0.54470 0.06900
H 	H 	0.07117 0.80415 0.58446 0.06400
H 	H 	0.91942 0.47756 0.60141 0.05900
C 	C 	0.84947 0.44106 0.93116 -0.07000
C 	C 	0.89254 0.46992 0.90978 0.01000
C 	C 	0.95052 0.51657 0.91766 -0.05700
C 	C 	0.96631 0.53486 0.94703 0.01900
C 	C 	0.92323 0.50622 0.96868 0.01900
C 	C 	0.86494 0.45936 0.96064 -0.02100
C 	C 	0.93931 0.52424 0.99808 -0.06400
C 	C 	0.99832 0.56847 0.00601 0.03100
C 	C 	0.04195 0.59507 0.98463 -0.08500
C 	C 	0.02512 0.57999 0.95509 -0.02200
H 	H 	0.88071 0.45709 0.88695 0.04600
H 	H 	0.98320 0.53839 0.90089 0.04700
H 	H 	0.83188 0.43700 0.97721 0.04300
H 	H 	0.90655 0.50291 0.01486 0.05000
H 	H 	0.01078 0.57989 0.02886 0.03300
H 	H 	0.05832 0.60165 0.93849 0.04100
C 	C 	0.39139 0.87333 0.99771 -0.07700
C 	C 	0.35355 0.90001 0.98153 0.00900
C 	C 	0.37884 0.95807 0.96430 -0.06100
C 	C 	0.44238 0.99058 0.96325 0.02800
C 	C 	0.48079 0.96354 0.97924 0.00700
C 	C 	0.45504 0.90454 0.99623 -0.01500
C 	C 	0.54436 0.99624 0.97822 -0.04500
C 	C 	0.56962 0.05475 0.96115 -0.00800
C 	C 	0.53166 0.08140 0.94498 -0.06600
C 	C 	0.46801 0.04956 0.94632 -0.03100
H 	H 	0.30441 0.87616 0.98260 0.02700
H 	H 	0.34897 0.97815 0.95200 0.05100
H 	H 	0.48430 0.88425 0.00893 0.04900
H 	H 	0.57427 0.97618 0.99050 0.04500
H 	H 	0.61875 0.07898 0.96027 0.03800
H 	H 	0.43856 0.06947 0.93356 0.05900
C 	C 	0.50308 0.41593 0.93144 -0.08000
C 	C 	0.53846 0.47020 0.95025 0.00900
C 	C 	0.51116 0.50859 0.96621 -0.06100
C 	C 	0.44811 0.49348 0.96345 0.01800
C 	C 	0.41207 0.43838 0.94481 0.01200
C 	C 	0.43974 0.39943 0.92903 -0.01300
C 	C 	0.34906 0.42365 0.94191 -0.05500
C 	C 	0.32204 0.46350 0.95723 0.00100
C 	C 	0.35763 0.51841 0.97577 -0.07000
C 	C 	0.42070 0.53309 0.97889 -0.02200
H 	H 	0.58730 0.48271 0.95248 -0.00100
H 	H 	0.53917 0.55044 0.98056 0.04500
H 	H 	0.41239 0.35756 0.91448 0.04700
H 	H 	0.32098 0.38163 0.92766 0.04500
H 	H 	0.27343 0.45199 0.95449 0.02500
H 	H 	0.44830 0.57496 0.99337 0.05100
C 	C 	0.82350 0.10638 0.81939 0.11500
C 	C 	0.86193 0.06899 0.82470 -0.09000
C 	C 	0.92135 0.09511 0.81427 0.01400
C 	C 	0.94087 0.15407 0.79773 0.11700
C 	C 	0.90323 0.19317 0.79352 -0.09000
C 	C 	0.84364 0.16643 0.80373 0.00900
O 	O 	0.77454 0.10071 0.83678 -0.19500
C 	C 	0.76864 0.16423 0.83073 0.04200
C 	C 	0.80960 0.20398 0.81110 -0.06400
O 	O 	0.98543 0.15512 0.77814 -0.20700
C 	C 	0.98952 0.09053 0.78394 0.05800
C 	C 	0.95230 0.05519 0.80575 -0.06700
H 	H 	0.84635 0.02157 0.83691 0.06500
H 	H 	0.91853 0.24039 0.78118 0.06400
H 	H 	0.82332 0.25973 0.80929 0.05900
H 	H 	0.93632 0.99938 0.80802 0.06800
C 	C 	0.26777 0.95834 0.78172 0.11800
C 	C 	0.33138 0.99129 0.78265 -0.08500
C 	C 	0.36012 0.01967 0.80934 0.00600
C 	C 	0.32703 0.02358 0.83320 0.10600
C 	C 	0.26326 0.99393 0.83190 -0.07300
C 	C 	0.23485 0.95705 0.80642 0.00300
O 	O 	0.23383 0.95081 0.75590 -0.19400
C 	C 	0.17805 0.94682 0.76724 0.04000
C 	C 	0.17805 0.94949 0.79726 -0.05300
O 	O 	0.35835 0.07660 0.85293 -0.18600
C 	C 	0.41326 0.10436 0.83848 0.04600
C 	C 	0.41378 0.07204 0.81215 -0.06600
H 	H 	0.35676 0.99982 0.76278 0.06600
H 	H 	0.23660 0.00363 0.84920 0.05900
H 	H 	0.14721 0.96683 0.80964 0.06100
H 	H 	0.45393 0.07710 0.79988 0.03200
C 	C 	0.75794 0.58667 0.81992 0.11600
C 	C 	0.79960 0.65519 0.82044 -0.08600
C 	C 	0.84700 0.67274 0.80063 0.00800
C 	C 	0.84982 0.62670 0.77932 0.11900
C 	C 	0.80805 0.55832 0.77859 -0.09000
C 	C 	0.76143 0.53997 0.79892 0.01000
O 	O 	0.72844 0.55573 0.84475 -0.18900
C 	C 	0.71646 0.48623 0.83716 0.04000
C 	C 	0.73566 0.47629 0.80982 -0.05800
O 	O 	0.88155 0.65808 0.75503 -0.20500
C 	C 	0.89741 0.72741 0.76401 0.04300
C 	C 	0.87683 0.73678 0.79105 -0.05400
H 	H 	0.79712 0.69230 0.83674 0.06600
H 	H 	0.81087 0.52122 0.76236 0.06300
H 	H 	0.74664 0.43159 0.80328 0.05700
H 	H 	0.86930 0.78317 0.79826 0.05900
