data_crystal

_cell_length_a 16.94070
_cell_length_b 17.20646
_cell_length_c 56.69519
_cell_angle_alpha 90.65174
_cell_angle_beta  90.87348
_cell_angle_gamma 110.75101

_symmetry_space_group_name_	'P 1'
_symmetry_space_group_name_H-M	'P 1'

loop_
_symmetry_equiv_pos_as_xyz
  x,y,z

loop_
_atom_site_label
_atom_site_type_symbol
_atom_site_fract_x
_atom_site_fract_y
_atom_site_fract_z
_atom_site_charge
C 	C 	0.24664 0.43145 0.00567 -0.04000
H 	H 	0.02618 0.40569 0.02456 0.03700
C 	C 	0.01513 0.45742 0.03313 -0.03200
H 	H 	0.19136 0.48446 0.03238 0.04100
C 	C 	0.22563 0.44325 0.02885 -0.03400
C 	C 	0.02389 0.46712 0.05764 -0.03700
C 	C 	0.00654 0.53187 0.06898 -0.00300
H 	H 	0.04240 0.42325 0.06784 0.04500
C 	C 	0.00841 0.53725 0.09429 0.05200
C 	C 	0.01082 0.53954 0.11552 -0.13300
O 	O 	0.14545 0.45157 0.12362 -0.41600
C 	C 	0.01655 0.53935 0.14073 0.31600
H 	H 	0.17647 0.72776 0.14166 0.15400
O 	O 	0.01390 0.47152 0.15123 -0.40500
O 	O 	0.04020 0.60968 0.15261 -0.38400
Ni	Ni	0.12207 0.45158 0.15973 1.06900
Ni	Ni	0.13191 0.63634 0.17858 1.10000
O 	O 	0.09574 0.73216 0.19030 -0.36400
O 	O 	0.08655 0.44215 0.19380 -0.41400
C 	C 	0.15210 0.80413 0.19739 0.26400
C 	C 	0.03158 0.47452 0.20158 0.29700
C 	C 	0.04536 0.86793 0.20786 -0.02400
O 	O 	0.04790 0.55596 0.20122 -0.36600
C 	C 	0.12469 0.86143 0.21187 -0.05800
C 	C 	0.01978 0.92205 0.22178 0.00700
C 	C 	0.07333 0.97015 0.23985 -0.08400
C 	C 	0.15312 0.96461 0.24358 0.00500
C 	C 	0.04314 0.02093 0.25595 0.30400
O 	O 	0.07119 0.03427 0.27777 -0.39900
O 	O 	0.01787 0.17094 0.28796 -0.37200
H 	H 	0.01502 0.31600 0.30460 0.03900
C 	C 	0.06304 0.31950 0.31783 -0.01200
C 	C 	0.03796 0.16919 0.31057 0.28000
H 	H 	0.02939 0.63096 0.32193 0.05300
O 	O 	0.02766 0.09821 0.32142 -0.41300
C 	C 	0.08222 0.24861 0.32322 -0.06500
C 	C 	0.01525 0.71354 0.34920 -0.03700
C 	C 	0.14477 0.25427 0.34036 -0.01100
H 	H 	0.16139 0.20051 0.34436 0.03300
C 	C 	0.09253 0.71872 0.36220 0.26000
C 	C 	0.00330 0.65002 0.74676 -0.00600
C 	C 	0.01887 0.58083 0.71056 -0.07700
C 	C 	0.03917 0.24776 0.83194 -0.02700
Ni	Ni	0.01658 0.92604 0.77176 1.09800
O 	O 	0.01355 0.82490 0.75200 -0.37700
H 	H 	0.02427 0.59174 0.48868 0.03400
C 	C 	0.03006 0.53848 0.49754 -0.01900
C 	C 	0.03936 0.27122 0.80828 -0.07700
C 	C 	0.03172 0.44187 0.57514 -0.05700
H 	H 	0.05164 0.61238 0.98242 0.05000
H 	H 	0.07530 0.20995 0.83740 0.02100
O 	O 	0.04902 0.02750 0.79248 -0.69500
C 	C 	0.05778 0.21941 0.79000 0.27500
H 	H 	0.04948 0.45066 0.61288 0.03700
C 	C 	0.04670 0.40239 0.52096 -0.04900
H 	H 	0.07223 0.01479 0.80748 0.15200
C 	C 	0.07077 0.72138 0.74047 -0.07200
H 	H 	0.05356 0.34984 0.52995 0.04200
C 	C 	0.07245 0.49123 0.48681 -0.01300
C 	C 	0.07977 0.80195 0.75131 0.26700
C 	C 	0.09262 0.64837 0.70579 -0.01500
C 	C 	0.07994 0.42263 0.49847 -0.02500
H 	H 	0.09813 0.45569 0.57188 0.04500
O 	O 	0.09983 0.64965 0.36993 -0.36700
H 	H 	0.10637 0.01197 0.73894 0.15400
C 	C 	0.11865 0.71838 0.72077 -0.01600
O 	O 	0.13323 0.21352 0.78936 -0.36600
O 	O 	0.12096 0.00281 0.75539 -0.70400
C 	C 	0.11422 0.51697 0.46475 0.04500
H 	H 	0.12642 0.64893 0.68968 0.03700
H 	H 	0.11280 0.38590 0.49030 0.03800
C 	C 	0.18681 0.32966 0.35225 -0.01400
Ni	Ni	0.14474 0.10928 0.77354 1.10000
O 	O 	0.15048 0.84580 0.76266 -0.41000
C 	C 	0.10474 0.39484 0.32980 -0.00900
C 	C 	0.15189 0.53839 0.44667 -0.10700
C 	C 	0.16622 0.40019 0.34732 -0.06800
O 	O 	0.16036 0.78575 0.35954 -0.41100
O 	O 	0.16195 0.56323 0.40533 -0.36800
H 	H 	0.17211 0.77252 0.71608 0.01400
H 	H 	0.08805 0.44849 0.32573 0.04700
C 	C 	0.17865 0.91059 0.22972 -0.02500
O 	O 	0.19354 0.54584 0.35493 -0.39100
H 	H 	0.19518 0.00162 0.25736 0.03100
H 	H 	0.20153 0.72745 0.41480 0.15600
C 	C 	0.20080 0.56305 0.42578 0.28900
O 	O 	0.19756 0.56553 0.16720 -0.70000
C 	C 	0.20564 0.47778 0.36140 0.28200
O 	O 	0.20877 0.71050 0.15393 -0.70200
Ni	Ni	0.21874 0.96937 0.75453 1.06800
O 	O 	0.22893 0.10742 0.79984 -0.37900
Ni	Ni	0.21570 0.64323 0.37813 1.09600
O 	O 	0.23323 0.81577 0.19710 -0.41000
C 	C 	0.22169 0.47351 0.11489 0.29200
H 	H 	0.23746 0.56356 0.17991 0.15500
H 	H 	0.24000 0.90616 0.23310 0.04200
O 	O 	0.23448 0.47319 0.38285 -0.40900
C 	C 	0.23127 0.44619 0.09146 -0.10800
O 	O 	0.24504 0.18127 0.75454 -0.38000
O 	O 	0.24127 0.73964 0.40156 -0.71200
H 	H 	0.22639 0.46189 0.99142 0.04000
H 	H 	0.23508 0.33307 0.36539 0.02700
Ni	Ni	0.24845 0.84317 0.38636 1.06300
C 	C 	0.24030 0.42624 0.07152 0.04300
O 	O 	0.25989 0.99435 0.78866 -0.41000
H 	H 	0.26132 0.05661 0.49266 0.03500
Ni	Ni	0.26146 0.63347 0.13985 1.09900
C 	C 	0.25277 0.40556 0.04752 -0.00700
O 	O 	0.28062 0.56967 0.42667 -0.42600
C 	C 	0.28353 0.06927 0.79801 0.28300
O 	O 	0.28409 0.53529 0.12451 -0.38500
O 	O 	0.29577 0.07977 0.74105 -0.41400
Ni	Ni	0.29858 0.80693 0.16700 1.06400
H 	H 	0.29495 0.13911 0.52982 0.03800
C 	C 	0.30870 0.15729 0.74848 0.27700
C 	C 	0.29781 0.38441 0.00108 0.00200
C 	C 	0.29932 0.35437 0.04285 -0.03300
H 	H 	0.29770 0.25300 0.97377 0.04400
C 	C 	0.32665 0.09055 0.49763 -0.03600
O 	O 	0.32442 0.70989 0.11401 -0.37900
H 	H 	0.32736 0.29713 0.72358 0.04500
O 	O 	0.33413 0.92286 0.40968 -0.40600
H 	H 	0.32055 0.32505 0.05720 0.03700
C 	C 	0.32222 0.34415 0.01975 -0.04000
O 	O 	0.34421 0.73559 0.18753 -0.41800
O 	O 	0.33822 0.66369 0.38588 -0.69800
H 	H 	0.33140 0.92098 0.04889 0.03700
Ni	Ni	0.34267 0.55764 0.39711 1.06600
C 	C 	0.34516 0.90580 0.43199 0.29200
C 	C 	0.34572 0.13725 0.51870 -0.04000
O 	O 	0.33928 0.84403 0.36295 -0.41300
C 	C 	0.33516 0.38652 0.97756 0.02500
C 	C 	0.33499 0.31271 0.96667 -0.06500
H 	H 	0.34622 0.98148 0.82788 0.04200
H 	H 	0.00076 0.46764 0.24857 0.04800
C 	C 	0.00572 0.45067 0.53194 0.02200
Ni	Ni	0.35729 0.75173 0.41259 1.10000
C 	C 	0.35930 0.97020 0.44960 -0.09900
C 	C 	0.36207 0.10030 0.81237 -0.06700
C 	C 	0.36199 0.78998 0.11859 0.29300
O 	O 	0.36679 0.84137 0.43725 -0.37500
H 	H 	0.36195 0.30793 0.01651 0.03800
C 	C 	0.37313 0.02299 0.46488 0.03400
O 	O 	0.37594 0.66261 0.15779 -0.36800
C 	C 	0.00408 0.43861 0.59838 0.01600
H 	H 	0.37423 0.68369 0.37202 0.15600
H 	H 	0.37733 0.08984 0.56594 0.04500
O 	O 	0.38354 0.81741 0.14060 -0.41300
C 	C 	0.38775 0.22149 0.74118 -0.06200
C 	C 	0.38454 0.28301 0.72550 -0.01100
C 	C 	0.38493 0.04680 0.82731 -0.01300
H 	H 	0.39727 0.22593 0.79983 0.04000
H 	H 	0.38040 0.98836 0.01096 0.03700
C 	C 	0.39140 0.69689 0.17901 0.28800
C 	C 	0.39187 0.08407 0.48375 -0.00500
C 	C 	0.38092 0.46319 0.96750 -0.06500
H 	H 	0.38047 0.52060 0.97544 0.04500
C 	C 	0.38781 0.31603 0.94768 0.01200
H 	H 	0.00350 0.83111 0.19401 0.04600
C 	C 	0.39839 0.84365 0.09938 -0.11000
H 	H 	0.39188 0.25886 0.94060 0.03900
C 	C 	0.39819 0.94340 0.04512 -0.04000
C 	C 	0.41330 0.18450 0.81166 -0.01500
H 	H 	0.40630 0.63223 0.22143 0.03000
C 	C 	0.41681 0.85435 0.36974 0.28200
C 	C 	0.42173 0.15220 0.56937 -0.06700
H 	H 	0.42428 0.94744 0.33064 0.03800
C 	C 	0.42616 0.88558 0.08243 0.04000
C 	C 	0.42591 0.98141 0.02361 -0.02800
C 	C 	0.43021 0.17697 0.52612 0.00100
O 	O 	0.43407 0.84411 0.39186 -0.36800
C 	C 	0.43261 0.46641 0.94830 0.01300
H 	H 	0.43486 0.13041 0.60620 0.03000
C 	C 	0.44064 0.39328 0.93931 -0.08300
H 	H 	0.44494 0.36036 0.69667 0.04500
C 	C 	0.45038 0.20762 0.55075 0.02500
C 	C 	0.45115 0.31864 0.71015 -0.00600
C 	C 	0.45618 0.93253 0.06144 -0.00300
C 	C 	0.45469 0.17506 0.59218 0.01700
C 	C 	0.45596 0.07835 0.84233 -0.00800
O 	O 	0.46020 0.61547 0.41310 -0.40900
C 	C 	0.46381 0.20702 0.74415 -0.01400
O 	O 	0.46433 0.74088 0.42728 -0.36800
C 	C 	0.46457 0.67717 0.21517 -0.01000
H 	H 	0.46846 0.16234 0.75691 0.03000
C 	C 	0.46952 0.70421 0.19179 -0.07200
C 	C 	0.47188 0.66862 0.43072 0.31100
H 	H 	0.47080 0.03722 0.85452 0.04200
H 	H 	0.47104 0.52625 0.94150 0.01900
C 	C 	0.47609 0.12915 0.49016 -0.03400
C 	C 	0.48034 0.93201 0.33348 -0.01400
C 	C 	0.48455 0.21587 0.82650 -0.00700
C 	C 	0.48660 0.88448 0.35294 -0.06600
C 	C 	0.99753 0.67292 0.32710 -0.04000
C 	C 	0.99979 0.55571 0.97771 -0.07600
Ni	Ni	0.99312 0.98464 0.30513 1.06700
C 	C 	0.98954 0.51285 0.01979 -0.00900
H 	H 	0.98884 0.09056 0.71582 0.02300
H 	H 	0.49379 0.14809 0.00094 0.04500
H 	H 	0.95528 0.62261 0.02105 0.03700
C 	C 	0.51204 0.00919 0.01830 -0.01700
C 	C 	0.97572 0.57981 0.03114 -0.03400
H 	H 	0.63702 0.02147 0.03101 0.02900
C 	C 	0.57032 0.99962 0.03485 -0.02200
C 	C 	0.98413 0.58916 0.05566 -0.04300
H 	H 	0.97127 0.63976 0.06433 0.03700
C 	C 	0.54239 0.96121 0.05634 -0.04100
H 	H 	0.58757 0.95273 0.06884 0.04100
H 	H 	0.87514 0.37194 0.00089 0.04500
H 	H 	0.55175 0.77995 0.16559 0.04100
H 	H 	0.89295 0.35914 0.18141 0.03400
C 	C 	0.54639 0.76013 0.18376 -0.01100
H 	H 	0.66899 0.84734 0.19387 0.01900
H 	H 	0.80343 0.23261 0.20125 0.01900
C 	C 	0.61259 0.79888 0.19983 -0.02100
C 	C 	0.89530 0.35651 0.20048 -0.01500
C 	C 	0.84403 0.28491 0.21176 -0.01300
H 	H 	0.95764 0.92519 0.21885 0.01800
C 	C 	0.95637 0.42009 0.21353 -0.06800
C 	C 	0.60274 0.78029 0.22385 -0.06400
H 	H 	0.83094 0.98834 0.23787 0.15600
C 	C 	0.65905 0.83726 0.24138 0.26500
C 	C 	0.85442 0.27637 0.23604 -0.06900
C 	C 	0.53081 0.71561 0.23122 -0.00800
O 	O 	0.90890 0.17286 0.24792 -0.37800
C 	C 	0.84170 0.19349 0.24514 0.26800
O 	O 	0.98663 0.05103 0.24859 -0.40100
C 	C 	0.95579 0.41768 0.23823 -0.01900
O 	O 	0.63553 0.89675 0.25078 -0.40000
O 	O 	0.81614 0.99809 0.25419 -0.70200
O 	O 	0.71804 0.81534 0.25189 -0.37000
O 	O 	0.76950 0.15060 0.25527 -0.41100
Ni	Ni	0.71160 0.02008 0.25383 1.06000
C 	C 	0.90403 0.34620 0.24950 -0.00300
H 	H 	0.52363 0.69929 0.24967 0.04300
Ni	Ni	0.91311 0.08622 0.27155 1.09400
Ni	Ni	0.80350 0.89855 0.27373 1.10100
H 	H 	0.91009 0.34152 0.26843 0.03100
H 	H 	0.53974 0.99352 0.30215 0.03100
H 	H 	0.94036 0.66889 0.29276 0.03300
O 	O 	0.70223 0.02093 0.28962 -0.42500
O 	O 	0.88580 0.99225 0.29430 -0.69300
O 	O 	0.82097 0.80414 0.29271 -0.36900
O 	O 	0.96243 0.86788 0.28959 -0.42000
O 	O 	0.70390 0.89005 0.29521 -0.37100
C 	C 	0.89796 0.80609 0.29729 0.27700
C 	C 	0.68038 0.95212 0.30172 0.29400
H 	H 	0.85682 0.00554 0.30794 0.14300
C 	C 	0.54644 0.95931 0.31751 -0.00600
C 	C 	0.94669 0.69411 0.31058 0.00500
C 	C 	0.61912 0.93893 0.32078 -0.07300
C 	C 	0.91294 0.75542 0.31620 -0.08600
C 	C 	0.91913 0.78516 0.33956 -0.01400
C 	C 	0.62655 0.89413 0.34069 -0.00600
H 	H 	0.68243 0.87827 0.34344 0.03400
H 	H 	0.89117 0.83076 0.34431 0.00700
C 	C 	0.56069 0.86691 0.35664 -0.01600
C 	C 	0.97120 0.76521 0.35595 -0.04000
H 	H 	0.99496 0.34236 0.78368 0.03900
Ni	Ni	0.61847 0.30966 0.90436 1.09800
O 	O 	0.67178 0.42201 0.88911 -0.70700
Ni	Ni	0.78367 0.41654 0.88033 1.10000
O 	O 	0.51198 0.33514 0.91172 -0.37500
O 	O 	0.58889 0.45436 0.93229 -0.40900
O 	O 	0.57293 0.27102 0.87105 -0.39600
Ni	Ni	0.68971 0.51576 0.91044 1.06500
O 	O 	0.67949 0.14642 0.91693 -0.41200
O 	O 	0.76054 0.47887 0.93419 -0.41300
O 	O 	0.82410 0.52434 0.86248 -0.37500
O 	O 	0.73602 0.31239 0.90006 -0.70700
O 	O 	0.56644 0.19193 0.91704 -0.38200
O 	O 	0.88087 0.38436 0.86763 -0.37200
O 	O 	0.78961 0.25613 0.85558 -0.41900
Ni	Ni	0.72867 0.20486 0.88653 1.06600
H 	H 	0.64016 0.42781 0.87481 0.15600
H 	H 	0.76462 0.31936 0.91569 0.15200
C 	C 	0.83590 0.47816 0.92975 0.29200
O 	O 	0.61151 0.15639 0.87027 -0.39800
C 	C 	0.51528 0.39874 0.92545 0.27300
C 	C 	0.80724 0.58860 0.87083 0.26900
C 	C 	0.56884 0.20023 0.86131 0.29800
C 	C 	0.86606 0.31373 0.85607 0.26300
C 	C 	0.61325 0.15460 0.92752 0.28300
O 	O 	0.86158 0.47895 0.90798 -0.37100
O 	O 	0.79329 0.59451 0.89367 -0.40600
Ni	Ni	0.83352 0.37990 0.67412 1.09800
O 	O 	0.73549 0.32430 0.65121 -0.71200
Ni	Ni	0.67689 0.40554 0.65106 1.09800
O 	O 	0.85584 0.27169 0.67970 -0.37800
O 	O 	0.71769 0.20638 0.68919 -0.42200
O 	O 	0.91185 0.41090 0.64523 -0.36800
Ni	Ni	0.65477 0.21506 0.65812 1.06900
O 	O 	0.96980 0.55083 0.67022 -0.41000
O 	O 	0.56091 0.24038 0.67537 -0.39500
O 	O 	0.57052 0.33568 0.63198 -0.37600
O 	O 	0.78092 0.46782 0.67200 -0.69300
O 	O 	0.93229 0.44412 0.69602 -0.38000
O 	O 	0.64762 0.50934 0.64665 -0.37700
O 	O 	0.77383 0.61697 0.64593 -0.40000
Ni	Ni	0.86291 0.56767 0.65832 1.06800
H 	H 	0.75595 0.32084 0.63514 0.15200
H 	H 	0.76528 0.48082 0.68792 0.15600
C 	C 	0.57383 0.30449 0.68959 0.28700
O 	O 	0.86000 0.50392 0.62779 -0.42300
C 	C 	0.79620 0.20800 0.68897 0.25900
C 	C 	0.56569 0.26953 0.61891 0.28200
C 	C 	0.89489 0.44673 0.62615 0.27800
C 	C 	0.70152 0.57195 0.63561 0.28500
C 	C 	0.97524 0.52232 0.69141 0.27900
O 	O 	0.61301 0.38009 0.68212 -0.38300
O 	O 	0.59301 0.21084 0.62686 -0.41100
O 	O 	0.99364 0.15906 0.78064 -0.42300
Ni	Ni	0.94610 0.05030 0.79924 1.06900
O 	O 	0.86731 0.99287 0.77165 -0.39600
O 	O 	0.90757 0.85665 0.78803 -0.37700
C 	C 	0.89558 0.99482 0.75030 0.29900
C 	C 	0.89319 0.86992 0.81034 0.27700
O 	O 	0.95051 0.95949 0.74558 -0.38700
O 	O 	0.89969 0.94495 0.81827 -0.41100
H 	H 	0.56661 0.83065 0.37161 0.04300
H 	H 	0.98256 0.79513 0.37323 0.01900
C 	C 	0.51674 0.25348 0.59661 -0.08500
C 	C 	0.50721 0.28861 0.55555 -0.06500
C 	C 	0.54020 0.31152 0.57844 0.01000
C 	C 	0.49527 0.17544 0.51126 -0.03900
H 	H 	0.52867 0.33241 0.54139 0.04300
H 	H 	0.58733 0.37264 0.58175 0.02300
H 	H 	0.52685 0.12513 0.47939 0.04100
H 	H 	0.56069 0.20621 0.51670 0.03800
C 	C 	0.91926 0.42636 0.60278 -0.09400
C 	C 	0.97452 0.43231 0.55617 0.00900
C 	C 	0.88855 0.41320 0.56063 -0.06200
C 	C 	0.86105 0.41026 0.58383 0.01000
C 	C 	0.99677 0.51831 0.52002 -0.06200
H 	H 	0.84362 0.40409 0.54612 0.04200
H 	H 	0.79516 0.39963 0.58705 0.01600
H 	H 	0.96539 0.55608 0.52836 0.04300
C 	C 	0.68327 0.58906 0.61111 -0.10000
C 	C 	0.60038 0.55630 0.60185 0.01400
C 	C 	0.58438 0.56579 0.57803 -0.06700
C 	C 	0.65095 0.60821 0.56324 0.02600
C 	C 	0.73357 0.64165 0.57246 -0.06900
C 	C 	0.74972 0.63223 0.59628 0.01600
C 	C 	0.63375 0.61930 0.53824 0.00100
C 	C 	0.64895 0.69929 0.52961 -0.04000
C 	C 	0.62515 0.70939 0.50649 -0.03200
C 	C 	0.58596 0.63965 0.49189 -0.00900
C 	C 	0.57406 0.55993 0.50014 -0.03300
C 	C 	0.59805 0.54974 0.52324 -0.04000
C 	C 	0.54868 0.64922 0.46971 0.04800
C 	C 	0.51496 0.65780 0.45161 -0.11100
H 	H 	0.54847 0.52294 0.61305 0.04000
H 	H 	0.52026 0.54025 0.57106 0.04800
H 	H 	0.78533 0.67436 0.56114 0.04500
H 	H 	0.81412 0.65683 0.60305 0.02400
H 	H 	0.67688 0.75338 0.54103 0.03900
H 	H 	0.63458 0.77122 0.50019 0.04100
H 	H 	0.54393 0.50574 0.48891 0.03700
H 	H 	0.58716 0.48782 0.52967 0.03700
C 	C 	0.92451 0.08947 0.71604 -0.00400
C 	C 	0.86644 0.03792 0.73172 -0.08100
C 	C 	0.78331 0.03695 0.73173 -0.00700
C 	C 	0.75970 0.09039 0.71723 -0.02100
C 	C 	0.81916 0.14584 0.70256 -0.06400
C 	C 	0.90106 0.14325 0.70153 -0.02000
H 	H 	0.73758 0.99646 0.74349 0.03900
H 	H 	0.69577 0.09019 0.71790 0.03600
H 	H 	0.94707 0.18397 0.68989 0.04600
C 	C 	0.52122 0.29319 0.71052 -0.06700
C 	C 	0.52988 0.24171 0.72859 -0.01400
H 	H 	0.58499 0.22369 0.72950 0.03000
C 	C 	0.97781 0.57968 0.73193 -0.02100
H 	H 	0.96723 0.65098 0.76232 0.03700
H 	H 	0.92199 0.52712 0.73611 0.03100
C 	C 	0.89152 0.47596 0.94951 -0.09700
C 	C 	0.96256 0.54641 0.95516 0.02200
C 	C 	0.96598 0.49451 0.99465 0.03200
C 	C 	0.90082 0.42022 0.98808 -0.07100
C 	C 	0.86387 0.41097 0.96557 0.01800
H 	H 	0.98519 0.59642 0.94271 0.03200
H 	H 	0.80991 0.35565 0.96118 0.01300
C 	C 	0.58837 0.11746 0.95083 -0.09300
C 	C 	0.60557 0.04656 0.95747 0.01900
C 	C 	0.58176 0.01188 0.97963 -0.07800
C 	C 	0.54095 0.04801 0.99538 0.03400
C 	C 	0.52476 0.11943 0.98886 -0.07100
C 	C 	0.54811 0.15385 0.96670 0.01400
H 	H 	0.63629 0.01767 0.94539 0.02700
H 	H 	0.59404 0.95641 0.98444 0.05000
H 	H 	0.53547 0.20920 0.96193 0.02500
C 	C 	0.99392 0.32212 0.80174 -0.01400
C 	C 	0.98396 0.26359 0.84783 -0.02500
C 	C 	0.93078 0.30539 0.84034 -0.06900
C 	C 	0.93914 0.33846 0.81765 -0.01000
H 	H 	0.98016 0.24046 0.86563 0.01600
H 	H 	0.90055 0.37361 0.81200 0.03600
C 	C 	0.50480 0.16359 0.84247 -0.07100
H 	H 	0.52257 0.28143 0.82611 0.03400
C 	C 	0.80261 0.64978 0.83161 -0.01400
C 	C 	0.82217 0.66124 0.85583 -0.07300
C 	C 	0.85878 0.74199 0.86536 -0.01400
C 	C 	0.87894 0.81048 0.85061 -0.01600
C 	C 	0.86257 0.79880 0.82620 -0.07000
C 	C 	0.82259 0.71815 0.81687 -0.01300
H 	H 	0.77270 0.58775 0.82416 0.03200
H 	H 	0.87395 0.75164 0.88404 0.03800
H 	H 	0.90978 0.87238 0.85804 0.03200
H 	H 	0.80802 0.70831 0.79816 0.04500
