data_crystal

_cell_length_a 24.45311
_cell_length_b 21.97540
_cell_length_c 46.58651
_cell_angle_alpha 90.59724
_cell_angle_beta  91.25138
_cell_angle_gamma 110.70385

_symmetry_space_group_name_	'P 1'
_symmetry_space_group_name_H-M	'P 1'

loop_
_symmetry_equiv_pos_as_xyz
  x,y,z

loop_
_atom_site_label
_atom_site_type_symbol
_atom_site_fract_x
_atom_site_fract_y
_atom_site_fract_z
_atom_site_charge
Ni	Ni	0.69738 0.29691 0.86169 1.10100
O 	O 	0.62359 0.25663 0.83676 -0.70800
Ni	Ni	0.56443 0.27311 0.86119 1.10300
O 	O 	0.74484 0.27089 0.83150 -0.36300
O 	O 	0.68637 0.16336 0.83402 -0.40100
O 	O 	0.70681 0.38027 0.83962 -0.38300
Ni	Ni	0.60064 0.16358 0.83073 1.06300
O 	O 	0.72669 0.36067 0.92671 -0.40900
O 	O 	0.59562 0.14264 0.87350 -0.41100
O 	O 	0.49752 0.24100 0.83210 -0.37400
O 	O 	0.63557 0.29954 0.88868 -0.70200
O 	O 	0.77242 0.34449 0.88577 -0.37200
O 	O 	0.51710 0.31444 0.88546 -0.36400
O 	O 	0.59543 0.40882 0.88878 -0.41700
Ni	Ni	0.66236 0.38491 0.90763 1.07500
H 	H 	0.62589 0.27864 0.81815 0.15600
H 	H 	0.63131 0.26619 0.90339 0.16500
C 	C 	0.55304 0.14646 0.88918 0.28600
O 	O 	0.72180 0.44308 0.88024 -0.39200
C 	C 	0.73403 0.20929 0.82487 0.24400
C 	C 	0.48471 0.18377 0.81902 0.25200
C 	C 	0.71601 0.43687 0.85223 0.27300
C 	C 	0.54084 0.37514 0.89464 0.27600
C 	C 	0.77418 0.36197 0.91327 0.29500
O 	O 	0.52642 0.18730 0.88269 -0.36200
O 	O 	0.51152 0.14286 0.82679 -0.39800
Ni	Ni	0.63247 0.31816 0.57639 1.10000
O 	O 	0.69900 0.31674 0.55075 -0.70000
Ni	Ni	0.75735 0.30886 0.58010 1.10100
O 	O 	0.59631 0.36321 0.54695 -0.36800
O 	O 	0.68549 0.44160 0.54036 -0.41800
O 	O 	0.57978 0.22921 0.55949 -0.37000
Ni	Ni	0.73659 0.39000 0.52617 1.07100
O 	O 	0.56123 0.20715 0.61591 -0.40100
O 	O 	0.80544 0.44828 0.55119 -0.39200
O 	O 	0.83149 0.32668 0.55604 -0.36400
O 	O 	0.68551 0.29695 0.60444 -0.70400
O 	O 	0.56729 0.31115 0.60410 -0.37100
O 	O 	0.79908 0.28347 0.61406 -0.35900
O 	O 	0.72283 0.18727 0.61935 -0.39900
Ni	Ni	0.64576 0.20790 0.61624 1.06300
H 	H 	0.68634 0.27691 0.53851 0.16000
H 	H 	0.69451 0.32728 0.62120 0.15500
C 	C 	0.80421 0.45476 0.57911 0.27500
O 	O 	0.63484 0.17080 0.57546 -0.41200
C 	C 	0.62850 0.41893 0.53584 0.27200
C 	C 	0.83664 0.34568 0.52892 0.29600
C 	C 	0.59477 0.17741 0.55788 0.29100
C 	C 	0.77376 0.22973 0.62838 0.24600
C 	C 	0.54414 0.25793 0.61934 0.24900
O 	O 	0.78730 0.40333 0.59550 -0.38000
O 	O 	0.79047 0.34393 0.51315 -0.41400
Ni	Ni	0.00049 0.92623 0.73694 1.09300
O 	O 	0.01958 0.87441 0.70469 -0.71400
Ni	Ni	0.05916 0.94511 0.67723 1.09700
O 	O 	0.96053 0.84363 0.75991 -0.35200
O 	O 	0.89990 0.79067 0.72253 -0.40000
O 	O 	0.07602 0.93552 0.76038 -0.36300
Ni	Ni	0.94735 0.81681 0.68522 1.06700
O 	O 	0.06808 0.05840 0.76776 -0.40200
O 	O 	0.91322 0.88869 0.67947 -0.40200
O 	O 	0.07580 0.88543 0.64731 -0.36000
O 	O 	0.03501 0.99795 0.70825 -0.67600
O 	O 	0.97832 0.97862 0.76747 -0.34400
O 	O 	0.11592 0.02344 0.65641 -0.36900
O 	O 	0.14168 0.10588 0.68957 -0.39800
Ni	Ni	0.09943 0.06870 0.72719 1.06500
H 	H 	0.04532 0.85073 0.71102 0.15600
H 	H 	0.00510 0.01577 0.70177 0.13500
C 	C 	0.93795 0.93874 0.66301 0.25600
O 	O 	0.14328 0.00616 0.73156 -0.43800
C 	C 	0.92464 0.78948 0.74778 0.25300
C 	C 	0.03216 0.83228 0.63922 0.23900
C 	C 	0.12996 0.96105 0.75114 0.27100
C 	C 	0.15667 0.07012 0.67079 0.25900
C 	C 	0.01165 0.03913 0.77251 0.22200
O 	O 	0.98958 0.94802 0.65220 -0.34600
O 	O 	0.97799 0.82649 0.64469 -0.38500
Ni	Ni	0.25913 0.70506 0.38343 1.09900
O 	O 	0.32331 0.74515 0.35409 -0.69600
Ni	Ni	0.39315 0.73842 0.37611 1.09800
O 	O 	0.19800 0.73791 0.36528 -0.36000
O 	O 	0.25191 0.82796 0.34125 -0.39400
O 	O 	0.22365 0.62302 0.35749 -0.36100
Ni	Ni	0.33938 0.83847 0.34836 1.06700
O 	O 	0.22293 0.56800 0.40995 -0.40800
O 	O 	0.33541 0.85170 0.39159 -0.41900
O 	O 	0.45545 0.78465 0.34739 -0.37200
O 	O 	0.32776 0.69350 0.40371 -0.70500
O 	O 	0.20001 0.66041 0.41376 -0.37600
O 	O 	0.45417 0.71552 0.40053 -0.35800
O 	O 	0.39801 0.60794 0.40015 -0.41000
Ni	Ni	0.31165 0.59975 0.40514 1.06600
H 	H 	0.31647 0.72059 0.33563 0.15900
H 	H 	0.33449 0.71374 0.42317 0.15500
C 	C 	0.37798 0.85015 0.40901 0.28400
O 	O 	0.30213 0.59134 0.36188 -0.42100
C 	C 	0.20957 0.79914 0.35891 0.26200
C 	C 	0.46197 0.84373 0.33915 0.25500
C 	C 	0.25162 0.58447 0.34976 0.26800
C 	C 	0.44163 0.65711 0.41115 0.28200
C 	C 	0.19423 0.60148 0.42251 0.28400
O 	O 	0.41533 0.82285 0.40065 -0.36600
O 	O 	0.42901 0.87408 0.35000 -0.39400
Ni	Ni	0.35755 0.69539 0.07439 1.10200
O 	O 	0.28777 0.66785 0.04585 -0.69700
Ni	Ni	0.22466 0.67789 0.07018 1.10000
O 	O 	0.40397 0.64786 0.05317 -0.36300
O 	O 	0.32311 0.55657 0.05099 -0.41800
O 	O 	0.39948 0.77638 0.05032 -0.36000
Ni	Ni	0.25952 0.58054 0.02888 1.08000
O 	O 	0.41267 0.82972 0.10424 -0.39800
O 	O 	0.19550 0.52779 0.05596 -0.39100
O 	O 	0.15066 0.63065 0.04510 -0.36700
O 	O 	0.29797 0.71890 0.09596 -0.70200
O 	O 	0.42345 0.72995 0.10423 -0.37000
O 	O 	0.17578 0.71100 0.09731 -0.35900
O 	O 	0.24084 0.81502 0.09449 -0.39800
Ni	Ni	0.32511 0.81338 0.09871 1.06500
H 	H 	0.29472 0.69930 0.03010 0.16800
H 	H 	0.29340 0.69986 0.11532 0.15400
C 	C 	0.19717 0.53756 0.08383 0.27300
O 	O 	0.33232 0.82581 0.05560 -0.41400
C 	C 	0.37814 0.58685 0.04496 0.28600
C 	C 	0.15066 0.60617 0.01891 0.29600
C 	C 	0.37625 0.81922 0.04196 0.29300
C 	C 	0.19593 0.77186 0.10672 0.24900
C 	C 	0.43474 0.78833 0.11598 0.25100
O 	O 	0.20919 0.59650 0.09471 -0.38300
O 	O 	0.19949 0.60703 0.00710 -0.40500
Ni	Ni	0.94017 0.05242 0.26364 1.09300
O 	O 	0.95408 0.11381 0.22973 -0.70500
Ni	Ni	0.91533 0.05092 0.19787 1.09400
O 	O 	0.98357 0.12820 0.29133 -0.35200
O 	O 	0.06359 0.15494 0.26311 -0.40900
O 	O 	0.86272 0.06773 0.26912 -0.37500
Ni	Ni	0.03626 0.15468 0.22047 1.06100
O 	O 	0.88820 0.88760 0.27167 -0.39200
O 	O 	0.05302 0.07029 0.21548 -0.40600
O 	O 	0.92422 0.11890 0.16707 -0.36800
O 	O 	0.91463 0.98898 0.23056 -0.69300
O 	O 	0.92117 0.98654 0.29586 -0.35500
O 	O 	0.85850 0.97901 0.17198 -0.35900
O 	O 	0.79449 0.94145 0.20842 -0.40700
Ni	Ni	0.84367 0.91736 0.24041 1.07000
H 	H 	0.93520 0.14662 0.23203 0.15600
H 	H 	0.94497 0.96945 0.22830 0.15600
C 	C 	0.02757 0.02729 0.19513 0.23600
O 	O 	0.80974 0.95945 0.27110 -0.36800
C 	C 	0.03553 0.16896 0.28452 0.23200
C 	C 	0.97520 0.16728 0.16535 0.25300
C 	C 	0.81197 0.01971 0.26956 0.24600
C 	C 	0.80705 0.94152 0.18102 0.24700
C 	C 	0.92307 0.92793 0.29134 0.25400
O 	O 	0.98388 0.03239 0.17978 -0.35900
O 	O 	0.02322 0.16209 0.17720 -0.40600
C 	C 	0.02035 0.32052 0.13395 0.06200
C 	C 	0.05437 0.38496 0.14203 -0.08000
C 	C 	0.11016 0.41243 0.13051 0.00500
C 	C 	0.13018 0.37847 0.11057 0.07800
C 	C 	0.09535 0.31517 0.10159 -0.08800
C 	C 	0.03996 0.28695 0.11352 0.02000
N 	N 	0.98479 0.27844 0.15222 -0.14900
C 	C 	0.98193 0.21806 0.14403 0.01600
C 	C 	0.01524 0.22164 0.11980 -0.05800
N 	N 	0.16963 0.42014 0.09369 -0.15200
C 	C 	0.17474 0.48084 0.10255 -0.00100
C 	C 	0.13809 0.47805 0.12538 -0.04300
H 	H 	0.03890 0.41164 0.15760 0.04700
H 	H 	0.11096 0.28863 0.08602 0.05500
H 	H 	0.03465 0.18587 0.11424 0.05500
H 	H 	0.12026 0.51540 0.13050 0.05200
H 	H 	0.97807 0.29101 0.17323 0.07000
H 	H 	0.17952 0.40832 0.07312 0.08800
C 	C 	0.57222 0.87968 0.14763 0.07600
C 	C 	0.62566 0.92578 0.13959 -0.07500
C 	C 	0.67512 0.90762 0.13984 0.00800
C 	C 	0.67208 0.84663 0.14914 0.08200
C 	C 	0.61856 0.80020 0.15686 -0.08400
C 	C 	0.56891 0.81802 0.15619 0.01400
N 	N 	0.52073 0.87726 0.13596 -0.15200
C 	C 	0.48484 0.81428 0.13623 0.00200
C 	C 	0.51320 0.77600 0.14878 -0.04900
N 	N 	0.72350 0.85009 0.16131 -0.15200
C 	C 	0.75948 0.91286 0.15992 -0.00100
C 	C 	0.73100 0.94992 0.14654 -0.01600
H 	H 	0.62835 0.97374 0.13281 0.05800
H 	H 	0.61590 0.75225 0.16363 0.05300
H 	H 	0.50204 0.72446 0.14433 0.05400
H 	H 	0.74211 0.00168 0.15043 0.02900
H 	H 	0.51615 0.91135 0.12150 0.09700
H 	H 	0.72794 0.81772 0.17671 0.07100
C 	C 	0.15158 0.87284 0.15207 0.07500
C 	C 	0.15240 0.90611 0.17794 -0.07900
C 	C 	0.09975 0.91105 0.18689 0.00300
C 	C 	0.04817 0.88372 0.17047 0.07700
C 	C 	0.04730 0.84823 0.14509 -0.08400
C 	C 	0.10030 0.84488 0.13597 0.01500
N 	N 	0.18925 0.84266 0.14636 -0.15300
C 	C 	0.16231 0.79454 0.12702 -0.00200
C 	C 	0.10625 0.79375 0.12045 -0.04100
N 	N 	0.01341 0.91876 0.17398 -0.16400
C 	C 	0.04249 0.96844 0.19224 -0.00100
C 	C 	0.09607 0.96522 0.20084 -0.02800
H 	H 	0.19263 0.92811 0.19045 0.05000
H 	H 	0.00728 0.82627 0.13244 0.05400
H 	H 	0.07977 0.77034 0.10175 0.05600
H 	H 	0.13354 0.00689 0.20794 0.03200
H 	H 	0.22736 0.84754 0.15826 0.06200
H 	H 	0.98107 0.91963 0.15910 0.10400
C 	C 	0.58941 0.97227 0.31890 0.10600
C 	C 	0.64762 0.01394 0.32353 -0.11000
C 	C 	0.68289 0.03323 0.29944 0.02700
C 	C 	0.66369 0.00422 0.27259 0.05000
C 	C 	0.60773 0.95626 0.26883 -0.05400
C 	C 	0.56968 0.94473 0.29190 -0.00400
N 	N 	0.55746 0.93407 0.33939 -0.15400
C 	C 	0.51701 0.88250 0.32583 0.01100
C 	C 	0.52411 0.88677 0.29633 -0.04600
N 	N 	0.70965 0.00488 0.25703 -0.16000
C 	C 	0.75825 0.03388 0.27364 0.00600
C 	C 	0.74330 0.05184 0.30025 -0.04900
H 	H 	0.66582 0.02705 0.34509 0.06200
H 	H 	0.59593 0.92614 0.24949 0.04800
H 	H 	0.49316 0.85806 0.28006 0.03400
H 	H 	0.76943 0.05642 0.31979 0.05500
H 	H 	0.55747 0.94732 0.36100 0.10200
H 	H 	0.70709 0.97200 0.24022 0.09600
C 	C 	0.13930 0.31680 0.30648 0.06900
C 	C 	0.19320 0.35836 0.31775 -0.08200
C 	C 	0.19476 0.41635 0.33102 0.01000
C 	C 	0.14501 0.43270 0.33261 0.08000
C 	C 	0.09090 0.39068 0.32145 -0.08400
C 	C 	0.08965 0.33306 0.30781 0.01200
N 	N 	0.12466 0.25216 0.30408 -0.15400
C 	C 	0.06549 0.22640 0.30262 0.00600
C 	C 	0.04229 0.27547 0.30629 -0.06700
N 	N 	0.15991 0.49767 0.33409 -0.15200
C 	C 	0.21914 0.52329 0.33430 -0.00100
C 	C 	0.24191 0.47382 0.33117 -0.05000
H 	H 	0.23216 0.34591 0.31640 0.05100
H 	H 	0.05192 0.40314 0.32267 0.05500
H 	H 	0.99819 0.27160 0.30015 0.05500
H 	H 	0.28689 0.47831 0.33548 0.04700
H 	H 	0.15276 0.22870 0.29734 0.08400
H 	H 	0.13246 0.52175 0.34105 0.10100
C 	C 	0.00190 0.86674 0.34074 0.07300
C 	C 	0.01797 0.81692 0.35265 -0.09500
C 	C 	0.07545 0.83345 0.36369 0.01900
C 	C 	0.11758 0.89425 0.35874 0.07800
C 	C 	0.10282 0.94138 0.34356 -0.08100
C 	C 	0.04350 0.92823 0.33686 0.01700
N 	N 	0.95685 0.85568 0.32177 -0.14600
C 	C 	0.96874 0.91008 0.30614 0.00900
C 	C 	0.02289 0.95536 0.31444 -0.04500
N 	N 	0.17119 0.88999 0.35840 -0.15200
C 	C 	0.16357 0.82699 0.36312 0.00700
C 	C 	0.10476 0.79020 0.36636 -0.04500
H 	H 	0.98832 0.76680 0.35164 0.07000
H 	H 	0.13637 0.98445 0.33570 0.05800
H 	H 	0.04056 0.00572 0.30809 0.02800
H 	H 	0.08536 0.73853 0.36165 0.06300
H 	H 	0.91585 0.81903 0.32328 0.09200
H 	H 	0.20709 0.92272 0.34819 0.08800
C 	C 	0.46228 0.04811 0.52448 -0.03000
C 	C 	0.48745 0.02320 0.50248 -0.00900
C 	C 	0.54843 0.04585 0.50001 -0.04800
C 	C 	0.58428 0.09509 0.51853 0.01800
C 	C 	0.55889 0.12172 0.53987 -0.08000
C 	C 	0.49807 0.09714 0.54305 0.00700
C 	C 	0.45023 0.97755 0.48043 0.07200
C 	C 	0.43425 0.00236 0.45532 -0.11000
C 	C 	0.40615 0.96058 0.43241 0.05400
C 	C 	0.39326 0.89286 0.43472 -0.09300
C 	C 	0.40530 0.86780 0.46071 0.02600
C 	C 	0.43392 0.90979 0.48352 -0.05800
C 	C 	0.39358 0.98794 0.40609 0.08300
C 	C 	0.44758 0.88312 0.50977 0.10200
C 	C 	0.39971 0.02405 0.52792 0.08200
C 	C 	0.64677 0.11977 0.51476 0.06500
N 	N 	0.38355 0.00989 0.38502 -0.13900
N 	N 	0.45853 0.86180 0.53081 -0.11500
N 	N 	0.69683 0.13958 0.51175 -0.11800
N 	N 	0.34958 0.00473 0.53066 -0.11700
H 	H 	0.47859 0.11691 0.55978 0.04600
H 	H 	0.56776 0.02631 0.48315 0.04800
H 	H 	0.44569 0.05450 0.45326 0.06300
H 	H 	0.39471 0.81575 0.46270 0.02200
C 	C 	0.95374 0.38925 0.47343 -0.04200
C 	C 	0.99768 0.44224 0.48723 0.02700
C 	C 	0.99186 0.45691 0.51609 -0.04400
C 	C 	0.94199 0.42084 0.53098 0.02000
C 	C 	0.89537 0.37192 0.51636 -0.07800
C 	C 	0.90254 0.35509 0.48789 0.00800
C 	C 	0.04864 0.48465 0.47121 0.01500
C 	C 	0.03970 0.52333 0.44912 -0.07300
C 	C 	0.08678 0.56221 0.43315 0.03100
C 	C 	0.14431 0.56591 0.44051 -0.08200
C 	C 	0.15335 0.52870 0.46320 0.00700
C 	C 	0.10589 0.48729 0.47820 -0.04100
C 	C 	0.07509 0.59430 0.40809 0.07700
C 	C 	0.11615 0.44621 0.50009 0.08300
C 	C 	0.96089 0.36960 0.44449 0.09200
C 	C 	0.93978 0.43354 0.56132 0.09000
N 	N 	0.06559 0.61978 0.38798 -0.11100
N 	N 	0.12432 0.41328 0.51764 -0.11800
N 	N 	0.93847 0.44365 0.58566 -0.10800
N 	N 	0.96666 0.35390 0.42130 -0.11400
H 	H 	0.86774 0.31625 0.47681 0.04100
H 	H 	0.02618 0.49667 0.52696 0.04300
H 	H 	0.99574 0.52159 0.44380 0.06200
H 	H 	0.19731 0.53060 0.46864 0.02100
C 	C 	0.60000 0.56771 0.51028 -0.04000
C 	C 	0.55760 0.54107 0.48823 0.01900
C 	C 	0.53599 0.47367 0.48294 -0.06000
C 	C 	0.55732 0.43281 0.49894 0.02000
C 	C 	0.60037 0.45952 0.52084 -0.08400
C 	C 	0.62076 0.52686 0.52660 0.00700
C 	C 	0.53551 0.58330 0.47040 0.02200
C 	C 	0.55715 0.59968 0.44280 -0.06100
C 	C 	0.53019 0.63018 0.42382 0.02900
C 	C 	0.48114 0.64447 0.43254 -0.08500
C 	C 	0.46298 0.63343 0.46097 0.00500
C 	C 	0.48954 0.60246 0.47986 -0.04100
C 	C 	0.55186 0.64467 0.39516 0.07700
C 	C 	0.46803 0.58840 0.50858 0.08800
C 	C 	0.62287 0.63699 0.51609 0.09100
C 	C 	0.53646 0.36402 0.49198 0.06700
N 	N 	0.56921 0.65629 0.37219 -0.10900
N 	N 	0.45084 0.57713 0.53160 -0.11600
N 	N 	0.51974 0.30892 0.48640 -0.11200
N 	N 	0.64115 0.69249 0.52073 -0.11200
H 	H 	0.65356 0.54756 0.54350 0.04100
H 	H 	0.50309 0.45319 0.46605 0.05000
H 	H 	0.59357 0.58653 0.43577 0.05200
H 	H 	0.42591 0.64556 0.46786 0.01500
C 	C 	0.82895 0.13801 0.67533 0.06800
C 	C 	0.81999 0.07305 0.68207 -0.07400
C 	C 	0.86726 0.05162 0.67948 -0.01400
C 	C 	0.91846 0.08987 0.66677 0.07300
C 	C 	0.92523 0.15232 0.65719 -0.08500
C 	C 	0.88142 0.17747 0.66369 0.01400
N 	N 	0.78511 0.15785 0.66682 -0.15300
C 	C 	0.80884 0.20942 0.64974 0.00100
C 	C 	0.86857 0.22307 0.64730 -0.04300
N 	N 	0.94493 0.05214 0.65467 -0.16200
C 	C 	0.91203 0.98972 0.66025 0.01000
C 	C 	0.86220 0.98768 0.67475 -0.02800
H 	H 	0.77684 0.03942 0.68696 0.04600
H 	H 	0.96078 0.17821 0.64341 0.05900
H 	H 	0.89365 0.24699 0.62911 0.06000
H 	H 	0.83346 0.94638 0.68610 0.05000
H 	H 	0.74098 0.12798 0.66602 0.07400
H 	H 	0.98858 0.06845 0.64860 0.08900
C 	C 	0.39225 0.20080 0.62671 0.08000
C 	C 	0.33488 0.19951 0.62209 -0.08000
C 	C 	0.29408 0.17146 0.64335 0.01100
C 	C 	0.30984 0.14549 0.66792 0.07600
C 	C 	0.36754 0.14789 0.67261 -0.08300
C 	C 	0.40774 0.17467 0.65106 0.01200
N 	N 	0.43978 0.24498 0.61537 -0.15100
C 	C 	0.48648 0.24578 0.63189 0.00800
C 	C 	0.46747 0.20442 0.65508 -0.05100
N 	N 	0.26299 0.09807 0.67803 -0.15500
C 	C 	0.21687 0.09378 0.66049 -0.00000
C 	C 	0.23497 0.13771 0.63823 -0.03800
H 	H 	0.32250 0.21915 0.60282 0.05900
H 	H 	0.38001 0.12774 0.69172 0.05000
H 	H 	0.49474 0.18569 0.66827 0.03200
H 	H 	0.20662 0.15338 0.62432 0.05100
H 	H 	0.44190 0.26071 0.59419 0.09900
H 	H 	0.26041 0.07845 0.69852 0.07800
C 	C 	0.00410 0.67534 0.61776 0.03700
C 	C 	0.96376 0.61786 0.62878 -0.05700
C 	C 	0.90762 0.59338 0.61610 -0.00600
C 	C 	0.89445 0.61900 0.59105 0.09000
C 	C 	0.93683 0.67085 0.57780 -0.10000
C 	C 	0.99123 0.70051 0.59212 0.05500
N 	N 	0.03698 0.72431 0.63529 -0.15000
C 	C 	0.04206 0.78081 0.62233 0.00900
C 	C 	0.01753 0.76737 0.59471 -0.06600
N 	N 	0.84990 0.57421 0.57660 -0.15300
C 	C 	0.83461 0.51941 0.59226 -0.00000
C 	C 	0.86985 0.52946 0.61706 -0.03700
H 	H 	0.97391 0.59712 0.64827 0.04700
H 	H 	0.92652 0.69043 0.55801 0.06400
H 	H 	0.00196 0.80070 0.58297 0.06000
H 	H 	0.87930 0.49139 0.62841 0.05700
H 	H 	0.03877 0.72008 0.65762 0.05800
H 	H 	0.84189 0.57513 0.55450 0.09000
C 	C 	0.92790 0.47505 0.92993 -0.04400
C 	C 	0.93514 0.46070 0.95886 0.02200
C 	C 	0.89126 0.41009 0.97202 -0.05800
C 	C 	0.83975 0.37456 0.95676 0.02600
C 	C 	0.83131 0.39095 0.92820 -0.08200
C 	C 	0.87609 0.44022 0.91478 0.01400
C 	C 	0.98951 0.49687 0.97522 0.03200
C 	C 	0.99685 0.55808 0.98729 -0.04700
C 	C 	0.04931 0.59456 0.00165 0.01600
C 	C 	0.09464 0.56907 0.00431 -0.08000
C 	C 	0.08669 0.50730 0.99264 0.01700
C 	C 	0.03461 0.47132 0.97803 -0.05400
C 	C 	0.05692 0.65879 0.01273 0.07800
C 	C 	0.02798 0.40847 0.96564 0.08800
C 	C 	0.97345 0.52562 0.91569 0.10700
C 	C 	0.79660 0.32018 0.97022 0.07400
N 	N 	0.06301 0.71022 0.02161 -0.11100
N 	N 	0.02262 0.35813 0.95571 -0.12000
N 	N 	0.76205 0.27662 0.98101 -0.11200
N 	N 	0.00997 0.56612 0.90432 -0.12600
H 	H 	0.86982 0.45271 0.89278 0.04700
H 	H 	0.89755 0.39805 0.99408 0.05600
H 	H 	0.96205 0.57769 0.98505 0.05400
H 	H 	0.12122 0.48729 0.99496 0.02700
C 	C 	0.39187 0.92200 0.97591 -0.04900
C 	C 	0.45279 0.95604 0.97595 0.05200
C 	C 	0.48868 0.94417 0.99739 -0.07000
C 	C 	0.46444 0.89918 0.01890 0.03200
C 	C 	0.40341 0.86461 0.01876 -0.08400
C 	C 	0.36760 0.87631 0.99716 0.01700
C 	C 	0.47945 0.00480 0.95372 -0.02700
C 	C 	0.49448 0.07125 0.96032 -0.03800
C 	C 	0.51998 0.11815 0.93968 0.01200
C 	C 	0.52959 0.09839 0.91188 -0.06600
C 	C 	0.51541 0.03192 0.90547 -0.02000
C 	C 	0.49073 0.98516 0.92624 0.00900
C 	C 	0.53850 0.18633 0.94761 0.07500
C 	C 	0.47709 0.91713 0.91920 0.08200
C 	C 	0.35395 0.93408 0.95426 0.10100
C 	C 	0.50225 0.89073 0.04159 0.08300
N 	N 	0.55342 0.24093 0.95399 -0.12900
N 	N 	0.46614 0.86261 0.91358 -0.10700
N 	N 	0.53259 0.88401 0.05973 -0.10300
N 	N 	0.32361 0.94378 0.93690 -0.11100
H 	H 	0.32075 0.85010 0.99703 0.03800
H 	H 	0.53550 0.97056 0.99749 0.06200
H 	H 	0.48671 0.08643 0.98161 0.04500
H 	H 	0.52300 0.01658 0.88418 0.03800
C 	C 	0.50462 0.50497 0.93462 -0.04100
C 	C 	0.46454 0.46804 0.95466 0.01800
C 	C 	0.44331 0.39998 0.95243 -0.05800
C 	C 	0.46473 0.36826 0.93170 0.02000
C 	C 	0.50754 0.40535 0.91251 -0.08500
C 	C 	0.52475 0.47352 0.91331 0.00300
C 	C 	0.44417 0.50030 0.97797 0.02400
C 	C 	0.40598 0.53322 0.97128 -0.06300
C 	C 	0.38670 0.56471 0.99288 0.02800
C 	C 	0.40344 0.56067 0.02177 -0.09800
C 	C 	0.44211 0.52839 0.02849 0.02000
C 	C 	0.46308 0.49876 0.00672 -0.04600
C 	C 	0.35126 0.60282 0.98516 0.01100
C 	C 	0.50434 0.46743 0.01396 0.08800
C 	C 	0.52678 0.57523 0.93636 0.08800
C 	C 	0.44253 0.29798 0.93046 0.08200
N 	N 	0.32305 0.63345 0.97886 -0.13800
N 	N 	0.53739 0.44232 0.01973 -0.12100
N 	N 	0.42453 0.24167 0.92950 -0.10300
N 	N 	0.54450 0.63150 0.93777 -0.11100
H 	H 	0.55587 0.50225 0.89804 0.04200
H 	H 	0.41096 0.37168 0.96730 0.05100
H 	H 	0.39201 0.53506 0.94914 0.05600
H 	H 	0.45555 0.52600 0.05068 0.03400
C 	C 	0.82677 0.12005 0.81600 0.07800
C 	C 	0.86878 0.09417 0.82543 -0.08100
C 	C 	0.90471 0.08314 0.80461 0.01200
C 	C 	0.90570 0.10610 0.77723 0.07600
C 	C 	0.86951 0.14036 0.76875 -0.08300
C 	C 	0.82651 0.14172 0.78803 0.00900
N 	N 	0.80148 0.15048 0.83349 -0.15200
C 	C 	0.78345 0.19036 0.81697 0.01000
C 	C 	0.80005 0.18787 0.78872 -0.04900
N 	N 	0.95543 0.10975 0.76450 -0.15600
C 	C 	0.98504 0.08469 0.78320 0.00300
C 	C 	0.95630 0.07250 0.80935 -0.04100
H 	H 	0.87475 0.08582 0.84797 0.05800
H 	H 	0.87567 0.16624 0.74872 0.05400
H 	H 	0.78229 0.20460 0.77018 0.03700
H 	H 	0.96247 0.04041 0.82559 0.05300
H 	H 	0.78699 0.13542 0.85407 0.09000
H 	H 	0.96018 0.11054 0.74223 0.06300
C 	C 	0.35819 0.08544 0.77974 0.08900
C 	C 	0.33023 0.02468 0.76632 -0.11800
C 	C 	0.27416 0.98681 0.77539 0.06200
C 	C 	0.24905 0.00686 0.79860 0.03700
C 	C 	0.27924 0.06621 0.81297 -0.06400
C 	C 	0.33186 0.10689 0.80172 -0.00200
N 	N 	0.41668 0.11533 0.78151 -0.15700
C 	C 	0.42751 0.15686 0.80432 0.00400
C 	C 	0.37593 0.15267 0.81751 -0.03600
N 	N 	0.19056 0.98501 0.79494 -0.13100
C 	C 	0.17778 0.95489 0.76892 0.00700
C 	C 	0.22865 0.95348 0.75655 -0.06300
H 	H 	0.35005 0.00875 0.74856 0.05500
H 	H 	0.25993 0.08238 0.83086 0.05200
H 	H 	0.37308 0.16416 0.83998 0.05900
H 	H 	0.23368 0.95021 0.73358 0.05100
H 	H 	0.44670 0.09597 0.77338 0.07200
H 	H 	0.16390 0.00683 0.80478 0.08200
C 	C 	0.78054 0.59476 0.82342 0.08000
C 	C 	0.83172 0.65013 0.82556 -0.08100
C 	C 	0.86707 0.66693 0.80150 0.01600
C 	C 	0.85058 0.63194 0.77575 0.07600
C 	C 	0.79929 0.57677 0.77350 -0.08100
C 	C 	0.76447 0.55910 0.79776 0.01100
N 	N 	0.75921 0.55616 0.84584 -0.15100
C 	C 	0.73033 0.49583 0.83478 0.00100
C 	C 	0.73268 0.49562 0.80496 -0.04500
N 	N 	0.87291 0.67061 0.75345 -0.15400
C 	C 	0.90364 0.73006 0.76488 0.00100
C 	C 	0.90103 0.72987 0.79466 -0.03900
H 	H 	0.84430 0.67804 0.84547 0.06000
H 	H 	0.78677 0.54892 0.75358 0.05100
H 	H 	0.72899 0.45332 0.79180 0.04900
H 	H 	0.90637 0.77242 0.80797 0.06100
H 	H 	0.77702 0.56569 0.86673 0.09400
H 	H 	0.85564 0.66210 0.73245 0.07800
