data_crystal

_cell_length_a 35.22305
_cell_length_b 35.66055
_cell_length_c 34.91840
_cell_angle_alpha 95.51323
_cell_angle_beta  95.51300
_cell_angle_gamma 125.40795

_symmetry_space_group_name_	'P 1'
_symmetry_space_group_name_H-M	'P 1'

loop_
_symmetry_equiv_pos_as_xyz
  x,y,z

loop_
_atom_site_label
_atom_site_type_symbol
_atom_site_fract_x
_atom_site_fract_y
_atom_site_fract_z
_atom_site_charge
C 	C 	0.97289 0.02838 0.99250 0.12700
N 	N 	0.01863 0.05317 0.98741 -0.14000
C 	C 	0.03989 0.03158 0.98339 0.13100
N 	N 	0.01546 0.98528 0.98443 -0.13900
C 	C 	0.96978 0.96051 0.98949 0.12900
N 	N 	0.94844 0.98202 0.99347 -0.14000
C 	C 	0.96109 0.99682 0.44453 0.13300
N 	N 	0.00825 0.02126 0.44440 -0.14000
C 	C 	0.02999 0.00012 0.44810 0.13200
N 	N 	0.00462 0.95458 0.45197 -0.13800
C 	C 	0.95751 0.93007 0.45213 0.13000
N 	N 	0.93567 0.95118 0.44845 -0.14000
Cu	Cu	0.64475 0.26829 0.99416 0.92800
Cu	Cu	0.68793 0.27249 0.91411 0.87000
Cu	Cu	0.67848 0.34636 0.94666 0.89600
Cu	Cu	0.64592 0.35569 0.02104 0.89400
C 	C 	0.65484 0.30079 0.07565 0.29200
O 	O 	0.57547 0.24173 0.98988 -0.36600
C 	C 	0.66699 0.31721 0.86149 0.29500
O 	O 	0.68472 0.34161 0.00066 -0.64100
O 	O 	0.64363 0.27688 0.93903 -0.64200
O 	O 	0.67240 0.23293 0.99264 -0.37800
O 	O 	0.72892 0.28208 0.95955 -0.44500
O 	O 	0.63445 0.32076 0.06516 -0.38700
O 	O 	0.71541 0.41392 0.95793 -0.38400
C 	C 	0.70960 0.43842 0.98434 0.30700
C 	C 	0.55870 0.26301 0.97521 0.30200
O 	O 	0.58773 0.30726 0.97268 -0.39500
O 	O 	0.67577 0.41812 0.00529 -0.39400
O 	O 	0.65575 0.27195 0.04964 -0.36300
C 	C 	0.71351 0.25062 0.98206 0.30800
O 	O 	0.68359 0.35182 0.89136 -0.39000
O 	O 	0.66245 0.27869 0.86640 -0.42400
H 	H 	0.71785 0.36052 0.01510 0.16100
H 	H 	0.61165 0.25923 0.92255 0.17000
Cu	Cu	0.73270 0.33502 0.44623 0.92800
Cu	Cu	0.73335 0.29541 0.52725 0.87100
Cu	Cu	0.65605 0.30206 0.49637 0.89600
Cu	Cu	0.64303 0.33251 0.42194 0.89300
C 	C 	0.69907 0.32680 0.36512 0.29600
O 	O 	0.75890 0.40344 0.44979 -0.36800
C 	C 	0.68918 0.31542 0.58126 0.29600
O 	O 	0.65878 0.29511 0.44184 -0.64100
O 	O 	0.72642 0.33745 0.50195 -0.64100
O 	O 	0.76844 0.30736 0.44647 -0.37500
O 	O 	0.72113 0.25338 0.48202 -0.44400
O 	O 	0.67690 0.34450 0.37666 -0.39100
O 	O 	0.58751 0.26486 0.48690 -0.38400
C 	C 	0.56149 0.26900 0.46029 0.30600
C 	C 	0.73735 0.41984 0.46485 0.30100
O 	O 	0.69330 0.39079 0.46922 -0.39600
O 	O 	0.58083 0.30280 0.43962 -0.39700
O 	O 	0.72627 0.32270 0.39050 -0.36400
C 	C 	0.75137 0.26738 0.45811 0.30800
O 	O 	0.65296 0.29776 0.55215 -0.39100
O 	O 	0.72871 0.32184 0.57505 -0.42200
H 	H 	0.63953 0.26224 0.42772 0.16300
H 	H 	0.74431 0.36936 0.51784 0.17100
C 	C 	0.62292 0.29465 0.75307 -0.09300
C 	C 	0.66438 0.33022 0.74160 0.00300
C 	C 	0.70313 0.36686 0.77031 0.02400
C 	C 	0.70216 0.36400 0.81006 -0.01600
C 	C 	0.66266 0.32557 0.82132 -0.11000
C 	C 	0.62150 0.29240 0.79287 0.09700
C 	C 	0.66942 0.32529 0.70018 0.00500
C 	C 	0.74683 0.40721 0.75861 -0.17200
H 	H 	0.73315 0.39033 0.83206 0.03800
C 	C 	0.57689 0.25331 0.80456 -0.20200
H 	H 	0.59261 0.26740 0.73094 0.05200
C 	C 	0.68620 0.29979 0.68660 0.02200
C 	C 	0.69213 0.29676 0.64758 -0.01300
C 	C 	0.68192 0.31907 0.62199 -0.11100
C 	C 	0.66539 0.34487 0.63562 0.10000
C 	C 	0.65835 0.34693 0.67450 -0.09400
C 	C 	0.69770 0.27571 0.71363 -0.17000
H 	H 	0.70456 0.27680 0.63700 0.02800
C 	C 	0.65511 0.37008 0.60900 -0.20500
H 	H 	0.64514 0.36616 0.68502 0.05200
H 	H 	0.57990 0.22471 0.80930 0.07100
H 	H 	0.54536 0.23879 0.78144 0.06600
H 	H 	0.57080 0.26621 0.83183 0.06900
H 	H 	0.73679 0.42218 0.73684 0.06500
H 	H 	0.76622 0.39490 0.74565 0.06100
H 	H 	0.77115 0.43577 0.78416 0.06100
H 	H 	0.71101 0.25775 0.69866 0.05600
H 	H 	0.66540 0.24898 0.72425 0.06200
H 	H 	0.72555 0.30175 0.73908 0.06000
H 	H 	0.62213 0.34425 0.58721 0.08100
H 	H 	0.68501 0.39091 0.59351 0.06900
H 	H 	0.65025 0.39469 0.62570 0.06800
C 	C 	0.71819 0.35557 0.26424 -0.09600
C 	C 	0.69489 0.31070 0.24176 0.00400
C 	C 	0.67978 0.27216 0.26055 0.02500
C 	C 	0.68299 0.27822 0.30139 -0.01700
C 	C 	0.70284 0.32253 0.32355 -0.10800
C 	C 	0.72333 0.36199 0.30516 0.10300
C 	C 	0.68266 0.30386 0.19870 0.00200
C 	C 	0.65850 0.22434 0.23709 -0.17300
H 	H 	0.66881 0.24825 0.31576 0.03300
C 	C 	0.74905 0.41070 0.32878 -0.20600
H 	H 	0.73104 0.38531 0.24975 0.05200
C 	C 	0.63940 0.29423 0.18094 0.02600
C 	C 	0.63031 0.29189 0.14047 -0.01500
C 	C 	0.66419 0.30010 0.11762 -0.10400
C 	C 	0.70742 0.30950 0.13538 0.09500
C 	C 	0.71595 0.31061 0.17576 -0.09200
C 	C 	0.60365 0.28813 0.20526 -0.17200
H 	H 	0.59701 0.28425 0.12676 0.04300
C 	C 	0.74458 0.31857 0.11158 -0.20200
H 	H 	0.74900 0.31778 0.18955 0.05100
H 	H 	0.72294 0.41679 0.33647 0.07900
H 	H 	0.77264 0.43767 0.31200 0.06900
H 	H 	0.77164 0.41547 0.35602 0.08500
H 	H 	0.68154 0.22675 0.21637 0.06700
H 	H 	0.62283 0.20962 0.22034 0.06300
H 	H 	0.65484 0.19973 0.25628 0.06200
H 	H 	0.57096 0.27916 0.18681 0.06100
H 	H 	0.61918 0.32114 0.22625 0.06400
H 	H 	0.59316 0.25943 0.22176 0.06300
H 	H 	0.77864 0.33179 0.13061 0.06700
H 	H 	0.75183 0.34540 0.09367 0.06400
H 	H 	0.73216 0.28559 0.09203 0.08400
C 	C 	0.79334 0.55835 0.47469 -0.01100
C 	C 	0.84223 0.59288 0.47878 -0.03100
C 	C 	0.85982 0.63950 0.47860 -0.04500
C 	C 	0.82855 0.65186 0.47431 0.01000
C 	C 	0.77970 0.61738 0.47105 -0.04500
C 	C 	0.76217 0.57079 0.47123 -0.03100
C 	C 	0.84681 0.70052 0.47176 0.00500
C 	C 	0.87853 0.73709 0.50345 -0.03800
C 	C 	0.89816 0.78349 0.50009 -0.04000
C 	C 	0.88621 0.79362 0.46508 0.01300
C 	C 	0.85353 0.75706 0.43379 -0.04000
C 	C 	0.83387 0.71064 0.43710 -0.03800
C 	C 	0.91046 0.84159 0.46015 0.00400
C 	C 	0.93105 0.88191 0.45646 -0.03900
C 	C 	0.77483 0.50981 0.47174 0.04400
C 	C 	0.75841 0.46894 0.46918 -0.11500
H 	H 	0.86654 0.58352 0.48146 0.03700
H 	H 	0.89759 0.66585 0.48110 0.04100
H 	H 	0.75531 0.62660 0.46797 0.04000
H 	H 	0.72433 0.54428 0.46810 0.03600
H 	H 	0.88844 0.72961 0.53044 0.03900
H 	H 	0.92338 0.81158 0.52442 0.04200
H 	H 	0.84414 0.76463 0.40662 0.04200
H 	H 	0.80938 0.68266 0.41248 0.03900
C 	C 	0.90006 0.06506 0.43732 0.01200
C 	C 	0.86144 0.04908 0.40766 -0.04000
C 	C 	0.84214 0.07398 0.40536 -0.03800
C 	C 	0.86140 0.11504 0.43273 0.00400
C 	C 	0.90009 0.13093 0.46238 -0.03800
C 	C 	0.91935 0.10605 0.46462 -0.04000
C 	C 	0.84024 0.14064 0.43112 0.01000
C 	C 	0.79340 0.11904 0.43668 -0.04500
C 	C 	0.77480 0.14461 0.43887 -0.03100
C 	C 	0.80286 0.19194 0.43556 -0.01200
C 	C 	0.84908 0.21315 0.42864 -0.03100
C 	C 	0.86772 0.18758 0.42638 -0.04500
C 	C 	0.78567 0.21962 0.44276 0.04600
C 	C 	0.77030 0.24186 0.44893 -0.12100
C 	C 	0.92066 0.04005 0.43930 0.00500
C 	C 	0.93850 0.01972 0.44156 -0.04200
H 	H 	0.84643 0.01750 0.38638 0.04200
H 	H 	0.81229 0.06142 0.38235 0.03900
H 	H 	0.91498 0.16236 0.48383 0.03800
H 	H 	0.94925 0.11864 0.48758 0.04200
H 	H 	0.77188 0.08283 0.44034 0.04000
H 	H 	0.73901 0.12796 0.44418 0.03600
H 	H 	0.87094 0.24969 0.42594 0.03800
H 	H 	0.90377 0.20446 0.42171 0.04000
C 	C 	0.41868 0.19341 0.45566 -0.01000
C 	C 	0.39023 0.19141 0.42339 -0.03100
C 	C 	0.34148 0.16726 0.42198 -0.04500
C 	C 	0.32087 0.14493 0.45286 0.01000
C 	C 	0.34936 0.14665 0.48502 -0.04500
C 	C 	0.39813 0.17084 0.48641 -0.03100
C 	C 	0.26956 0.12007 0.45166 0.00500
C 	C 	0.23670 0.08095 0.42216 -0.03800
C 	C 	0.18807 0.05732 0.42111 -0.04000
C 	C 	0.17198 0.07261 0.44951 0.01300
C 	C 	0.20472 0.11179 0.47887 -0.04000
C 	C 	0.25337 0.13549 0.47995 -0.03800
C 	C 	0.12192 0.04736 0.44908 0.00500
C 	C 	0.07996 0.02607 0.44857 -0.03900
C 	C 	0.46912 0.21972 0.45769 0.04500
C 	C 	0.51130 0.24187 0.45900 -0.10900
H 	H 	0.40591 0.20883 0.39954 0.03700
H 	H 	0.31980 0.16621 0.39707 0.04100
H 	H 	0.33374 0.12930 0.50891 0.04100
H 	H 	0.41993 0.17224 0.51145 0.03900
H 	H 	0.24886 0.06874 0.40024 0.03900
H 	H 	0.16294 0.02699 0.39836 0.04300
H 	H 	0.19251 0.12379 0.50093 0.04200
H 	H 	0.27846 0.16581 0.50270 0.04000
C 	C 	0.77955 0.57838 0.98679 -0.01100
C 	C 	0.75471 0.59428 0.97020 -0.03000
C 	C 	0.77774 0.64213 0.97098 -0.04500
C 	C 	0.82581 0.67437 0.98834 0.00900
C 	C 	0.85063 0.65838 0.00498 -0.04400
C 	C 	0.82753 0.61050 0.00420 -0.02900
C 	C 	0.85023 0.72477 0.98875 0.00400
C 	C 	0.85540 0.74147 0.95341 -0.03800
C 	C 	0.87874 0.78929 0.95379 -0.04000
C 	C 	0.89707 0.82070 0.98948 0.01100
C 	C 	0.89174 0.80409 0.02480 -0.03900
C 	C 	0.86837 0.75625 0.02447 -0.03700
C 	C 	0.92255 0.87009 0.98983 0.00500
C 	C 	0.94382 0.91138 0.98982 -0.04000
C 	C 	0.75563 0.52913 0.98619 0.04600
C 	C 	0.73501 0.48776 0.98540 -0.10900
H 	H 	0.71758 0.56962 0.95676 0.03900
H 	H 	0.75827 0.65416 0.95817 0.04100
H 	H 	0.88780 0.68300 0.01831 0.04100
H 	H 	0.84693 0.59842 0.01710 0.03600
H 	H 	0.84159 0.71744 0.92571 0.03900
H 	H 	0.88284 0.80193 0.92638 0.04200
H 	H 	0.90587 0.82821 0.05250 0.04300
H 	H 	0.86433 0.74365 0.05189 0.04000
C 	C 	0.78139 0.19052 0.00027 -0.01000
C 	C 	0.75902 0.14407 0.98187 -0.03300
C 	C 	0.78349 0.12422 0.98367 -0.04700
C 	C 	0.83052 0.15074 0.00388 0.01100
C 	C 	0.85235 0.19673 0.02342 -0.04500
C 	C 	0.82782 0.21657 0.02158 -0.03100
C 	C 	0.85768 0.13128 0.00265 0.00700
C 	C 	0.86842 0.12152 0.96704 -0.04100
C 	C 	0.89282 0.10164 0.96552 -0.03900
C 	C 	0.90666 0.09139 0.99956 0.01000
C 	C 	0.89653 0.10165 0.03527 -0.03800
C 	C 	0.87212 0.12159 0.03683 -0.04000
C 	C 	0.93019 0.06929 0.99758 0.00400
C 	C 	0.94987 0.05078 0.99547 -0.04000
C 	C 	0.75801 0.21243 0.99467 0.04300
C 	C 	0.73777 0.23007 0.98959 -0.12400
H 	H 	0.72307 0.12368 0.96545 0.03500
H 	H 	0.76624 0.08856 0.96876 0.04000
H 	H 	0.88860 0.21742 0.03920 0.04000
H 	H 	0.84529 0.25248 0.03596 0.03600
H 	H 	0.85765 0.12916 0.94055 0.03800
H 	H 	0.90065 0.09390 0.93785 0.04100
H 	H 	0.90718 0.09385 0.06171 0.04200
H 	H 	0.86400 0.12903 0.06445 0.04000
C 	C 	0.41659 0.19940 0.96143 -0.01000
C 	C 	0.39030 0.16468 0.98330 -0.03200
C 	C 	0.34274 0.14592 0.98300 -0.04600
C 	C 	0.32115 0.16177 0.96079 0.01000
C 	C 	0.34707 0.19548 0.93793 -0.04500
C 	C 	0.39473 0.21430 0.93830 -0.03100
C 	C 	0.27205 0.14430 0.96271 0.00700
C 	C 	0.26138 0.15625 0.99745 -0.04400
C 	C 	0.21425 0.13595 0.00072 -0.03500
C 	C 	0.17754 0.10359 0.96929 0.00900
C 	C 	0.18823 0.09290 0.93407 -0.03800
C 	C 	0.23538 0.11324 0.93076 -0.04000
C 	C 	0.12898 0.07860 0.97424 0.00600
C 	C 	0.08830 0.05765 0.97834 -0.04000
C 	C 	0.46674 0.22219 0.96522 0.04500
C 	C 	0.50867 0.24065 0.96899 -0.11400
H 	H 	0.40697 0.15293 0.00118 0.04100
H 	H 	0.32285 0.11961 0.00048 0.04300
H 	H 	0.33059 0.20774 0.92055 0.04100
H 	H 	0.41485 0.24111 0.92128 0.03700
H 	H 	0.28953 0.18048 0.02217 0.04200
H 	H 	0.20624 0.14451 0.02798 0.04200
H 	H 	0.16000 0.06800 0.90961 0.04200
H 	H 	0.24333 0.10394 0.90378 0.04000
