data_crystal

_cell_length_a 46.62102
_cell_length_b 43.70378
_cell_length_c 27.02074
_cell_angle_alpha 89.95345
_cell_angle_beta  89.94288
_cell_angle_gamma 90.48961

_symmetry_space_group_name_	'P 1'
_symmetry_space_group_name_H-M	'P 1'

loop_
_symmetry_equiv_pos_as_xyz
  x,y,z

loop_
_atom_site_label
_atom_site_type_symbol
_atom_site_fract_x
_atom_site_fract_y
_atom_site_fract_z
_atom_site_charge
Zn	Zn	0.48114 0.49967 0.04998 1.22200
C 	C 	0.49589 0.56202 0.02466 0.32900
O 	O 	0.50920 0.49008 0.10163 -0.46900
O 	O 	0.47807 0.56951 0.06037 -0.44600
O 	O 	0.51894 0.53846 0.12685 -0.49000
C 	C 	0.42761 0.52304 0.08297 0.32800
O 	O 	0.44310 0.51696 0.04373 -0.45000
O 	O 	0.44021 0.52879 0.12543 -0.50100
C 	C 	0.52778 0.51083 0.11632 0.31900
O 	O 	0.45769 0.45270 0.06538 -0.32300
Zn	Zn	0.47824 0.54778 0.12819 1.17100
O 	O 	0.50228 0.53310 0.01683 -0.43100
C 	C 	0.46939 0.44369 0.02441 0.27000
O 	O 	0.48541 0.46376 0.00198 -0.37300
Zn	Zn	0.42897 0.06478 0.96247 1.22000
C 	C 	0.38102 0.02485 0.98305 0.32300
O 	O 	0.43481 0.05453 0.03284 -0.44200
O 	O 	0.39847 0.00351 0.99876 -0.46000
O 	O 	0.46157 0.01242 0.01565 -0.50700
C 	C 	0.44033 0.02881 0.87472 0.30100
O 	O 	0.44617 0.05434 0.89852 -0.45800
O 	O 	0.42624 0.00682 0.89741 -0.49200
C 	C 	0.45290 0.03337 0.04692 0.34500
O 	O 	0.46468 0.10359 0.96884 -0.32900
Zn	Zn	0.43703 0.99577 0.96412 1.16800
O 	O 	0.39063 0.04651 0.95342 -0.44100
C 	C 	0.44322 0.12234 0.96710 0.27900
O 	O 	0.41813 0.10967 0.96354 -0.38600
C 	C 	0.54357 0.98582 0.28251 0.13900
C 	C 	0.52241 0.00152 0.25599 -0.09900
H 	H 	0.50467 0.01191 0.27554 0.07000
C 	C 	0.52417 0.00364 0.20428 0.03900
C 	C 	0.54718 0.99016 0.17928 -0.08900
C 	C 	0.56818 0.97425 0.20562 0.06800
C 	C 	0.56628 0.97191 0.25723 -0.11300
H 	H 	0.58253 0.95966 0.27775 0.07300
N 	N 	0.54221 0.98434 0.33559 -0.17900
C 	C 	0.52832 0.96017 0.35789 0.19000
C 	C 	0.52746 0.95790 0.40986 -0.06000
C 	C 	0.54079 0.98073 0.43855 0.03100
C 	C 	0.55471 0.00546 0.41519 -0.05900
C 	C 	0.55518 0.00690 0.36314 0.19200
C 	C 	0.51356 0.93315 0.43346 -0.01200
C 	C 	0.51304 0.93122 0.48514 -0.01300
C 	C 	0.52638 0.95403 0.51406 -0.05900
C 	C 	0.54023 0.97880 0.49069 0.02900
C 	C 	0.55353 0.00165 0.51937 -0.05600
C 	C 	0.56800 0.02830 0.44411 -0.01200
C 	C 	0.56742 0.02641 0.49577 -0.01300
C 	C 	0.52604 0.95252 0.56612 0.19000
N 	N 	0.53899 0.97510 0.59365 -0.17800
C 	C 	0.55267 0.99939 0.57132 0.18700
C 	C 	0.53789 0.97352 0.64674 0.13900
C 	C 	0.51481 0.98650 0.67232 -0.11100
C 	C 	0.51448 0.98647 0.72417 0.06400
C 	C 	0.53692 0.97283 0.75038 -0.08700
C 	C 	0.56006 0.95989 0.72498 0.03600
C 	C 	0.56051 0.96020 0.67310 -0.10000
O 	O 	0.56826 0.02993 0.34075 -0.20100
O 	O 	0.51584 0.93896 0.33052 -0.20100
O 	O 	0.51320 0.92935 0.58853 -0.20000
O 	O 	0.56496 0.02075 0.59868 -0.20100
H 	H 	0.57856 0.95064 0.65328 0.07000
H 	H 	0.49756 0.99717 0.65192 0.07300
H 	H 	0.57882 0.04754 0.42673 0.05100
H 	H 	0.57778 0.04423 0.51729 0.05100
H 	H 	0.50317 0.91534 0.41194 0.05100
H 	H 	0.50224 0.91197 0.50251 0.05100
H 	H 	0.53676 0.97304 0.79053 0.05000
H 	H 	0.54848 0.99160 0.13925 0.05300
Zn	Zn	0.65104 0.89921 0.96244 1.21900
C 	C 	0.70613 0.93078 0.96278 0.32500
O 	O 	0.63184 0.91140 0.02452 -0.44800
O 	O 	0.69289 0.95329 0.94040 -0.45500
O 	O 	0.65886 0.95449 0.03333 -0.48500
C 	C 	0.63684 0.93606 0.87849 0.34500
O 	O 	0.65232 0.91288 0.89355 -0.45600
O 	O 	0.63024 0.95809 0.90928 -0.51800
C 	C 	0.64098 0.93427 0.05209 0.30200
O 	O 	0.60956 0.87073 0.94029 -0.33300
Zn	Zn	0.65395 0.96838 0.96585 1.16800
O 	O 	0.69125 0.90761 0.98086 -0.43800
C 	C 	0.62495 0.84690 0.95038 0.27800
O 	O 	0.65085 0.85264 0.96515 -0.38600
Zn	Zn	0.08078 0.59799 0.98714 1.21900
C 	C 	0.04520 0.64856 0.95663 0.31900
O 	O 	0.07008 0.58727 0.05585 -0.44800
O 	O 	0.02522 0.62848 0.94471 -0.45400
O 	O 	0.02682 0.61028 0.05078 -0.48500
C 	C 	0.05038 0.56496 0.91222 0.34500
O 	O 	0.07027 0.58584 0.91986 -0.45600
O 	O 	0.03126 0.55900 0.94655 -0.52300
C 	C 	0.04716 0.59821 0.07769 0.30200
O 	O 	0.11335 0.55674 0.98663 -0.32700
Zn	Zn	0.01641 0.59109 0.98882 1.16600
O 	O 	0.06694 0.64034 0.98453 -0.44000
C 	C 	0.13303 0.57782 0.99035 0.26000
O 	O 	0.12377 0.60564 0.99177 -0.38500
C 	C 	0.97739 0.49205 0.67500 0.13900
C 	C 	0.99936 0.50551 0.70325 -0.10000
H 	H 	0.01656 0.51799 0.68499 0.07000
C 	C 	0.99876 0.50331 0.75502 0.03500
C 	C 	0.97625 0.48745 0.77837 -0.08800
C 	C 	0.95420 0.47414 0.75029 0.06500
C 	C 	0.95481 0.47637 0.69856 -0.11100
H 	H 	0.93767 0.46634 0.67671 0.07300
N 	N 	0.97750 0.49527 0.62206 -0.17900
C 	C 	0.99308 0.47528 0.59384 0.19100
C 	C 	0.99375 0.47833 0.54197 -0.06000
C 	C 	0.97810 0.50189 0.51947 0.03100
C 	C 	0.96210 0.52206 0.54883 -0.06000
C 	C 	0.96213 0.51841 0.60060 0.19100
C 	C 	0.00982 0.45825 0.51237 -0.01200
C 	C 	0.01026 0.46169 0.46091 -0.01200
C 	C 	0.99458 0.48523 0.43817 -0.05900
C 	C 	0.97845 0.50529 0.46752 0.03100
C 	C 	0.96269 0.52875 0.44501 -0.06000
C 	C 	0.94637 0.54555 0.52609 -0.01200
C 	C 	0.94664 0.54885 0.47460 -0.01200
C 	C 	0.99475 0.48905 0.38642 0.19100
N 	N 	0.97911 0.51197 0.36493 -0.17900
C 	C 	0.96322 0.53170 0.39313 0.19100
C 	C 	0.97932 0.51532 0.31202 0.13900
C 	C 	0.99782 0.53672 0.28955 -0.11200
C 	C 	0.99748 0.54049 0.23806 0.06700
C 	C 	0.97896 0.52263 0.20909 -0.08700
C 	C 	0.96100 0.50070 0.23119 0.03600
C 	C 	0.96094 0.49727 0.28277 -0.09900
O 	O 	0.94743 0.53736 0.62862 -0.20300
O 	O 	0.00747 0.45312 0.61540 -0.20000
O 	O 	0.01002 0.47057 0.35848 -0.19900
O 	O 	0.94831 0.55344 0.37150 -0.20300
H 	H 	0.94690 0.48052 0.30013 0.07000
H 	H 	0.01217 0.55046 0.31212 0.07400
H 	H 	0.93390 0.56130 0.54814 0.05000
H 	H 	0.93438 0.56708 0.45789 0.05000
H 	H 	0.02203 0.43997 0.52908 0.05200
H 	H 	0.02279 0.44599 0.43886 0.05200
H 	H 	0.97880 0.52553 0.16920 0.04800
H 	H 	0.97543 0.48625 0.81845 0.04800
Zn	Zn	0.87004 0.41522 0.00037 1.22500
C 	C 	0.82098 0.45480 0.00964 0.33400
O 	O 	0.88477 0.41919 0.93210 -0.46100
O 	O 	0.83919 0.47701 0.02015 -0.44900
O 	O 	0.86455 0.46557 0.92051 -0.49900
C 	C 	0.89682 0.45462 0.07148 0.34500
O 	O 	0.87677 0.43372 0.06528 -0.45300
O 	O 	0.90406 0.47283 0.03489 -0.51500
C 	C 	0.87817 0.44195 0.90255 0.30300
O 	O 	0.90921 0.38341 0.01845 -0.33000
Zn	Zn	0.87727 0.48301 0.98250 1.16400
O 	O 	0.83025 0.42885 0.99104 -0.45000
C 	C 	0.89061 0.36121 0.01761 0.28300
O 	O 	0.86442 0.36900 0.00830 -0.37600
Zn	Zn	0.02905 0.01176 0.07662 1.22300
C 	C 	0.04140 0.95192 0.03688 0.30800
O 	O 	0.99988 0.00264 0.12685 -0.47100
O 	O 	0.05992 0.94954 0.07337 -0.44400
O 	O 	0.00953 0.95261 0.13939 -0.48900
C 	C 	0.08699 0.01061 0.11012 0.32800
O 	O 	0.07051 0.01459 0.07136 -0.44900
O 	O 	0.07653 0.99730 0.14992 -0.50600
C 	C 	0.99080 0.97446 0.13327 0.31600
O 	O 	0.02993 0.06323 0.10262 -0.32200
Zn	Zn	0.05016 0.96249 0.14476 1.17100
O 	O 	0.02380 0.97530 0.03486 -0.42900
C 	C 	0.01554 0.06866 0.06250 0.27500
O 	O 	0.01014 0.04497 0.03512 -0.37800
C 	C 	0.00173 0.09844 0.05390 -0.06300
C 	C 	0.01216 0.12473 0.07795 0.00300
C 	C 	0.99748 0.15235 0.07409 -0.03800
C 	C 	0.97223 0.15406 0.04601 -0.00000
C 	C 	0.97704 0.10040 0.02430 -0.00200
C 	C 	0.95584 0.18274 0.04464 0.10700
N 	N 	0.95366 0.20031 0.08586 -0.08100
N 	N 	0.94062 0.22727 0.08393 -0.08300
C 	C 	0.92933 0.23747 0.04072 0.11600
N 	N 	0.93087 0.21957 0.99974 -0.09600
N 	N 	0.94391 0.19256 0.00169 -0.07500
C 	C 	0.91816 0.26885 0.03721 0.00100
C 	C 	0.92273 0.32291 0.05652 0.00800
C 	C 	0.89894 0.32926 0.02655 -0.07300
C 	C 	0.88430 0.30514 0.00297 0.02000
C 	C 	0.89395 0.27506 0.00812 -0.02900
C 	C 	0.96235 0.12809 0.02040 -0.02200
C 	C 	0.93226 0.29290 0.06188 -0.04100
H 	H 	0.03147 0.12369 0.10015 0.04700
H 	H 	0.00568 0.17240 0.09314 0.05300
H 	H 	0.94293 0.12914 0.99849 0.03700
H 	H 	0.96877 0.08035 0.00539 0.05200
H 	H 	0.95100 0.28843 0.08435 0.05400
H 	H 	0.93403 0.34129 0.07529 0.04300
H 	H 	0.88270 0.25666 0.98933 0.04000
H 	H 	0.86590 0.30975 0.97975 0.03200
C 	C 	0.89197 0.44430 0.85327 -0.07500
C 	C 	0.88606 0.46930 0.82231 -0.01600
C 	C 	0.90481 0.47693 0.78378 -0.03200
C 	C 	0.92956 0.45962 0.77568 -0.04800
C 	C 	0.93303 0.43170 0.80143 0.08500
C 	C 	0.91422 0.42429 0.84040 -0.05200
H 	H 	0.90135 0.49772 0.76282 0.03900
H 	H 	0.91776 0.40375 0.86199 0.05600
H 	H 	0.86797 0.48396 0.82997 0.03400
N 	N 	0.95460 0.41231 0.78948 -0.19800
H 	H 	0.96781 0.41647 0.75891 0.09400
H 	H 	0.95773 0.39226 0.80979 0.08700
C 	C 	0.94298 0.48088 0.19974 0.04200
C 	C 	0.91334 0.48571 0.19721 -0.08500
C 	C 	0.89751 0.47403 0.15747 0.04600
C 	C 	0.91125 0.45784 0.11955 -0.15100
C 	C 	0.94053 0.45005 0.12487 0.15100
C 	C 	0.95607 0.46140 0.16545 -0.12000
H 	H 	0.87496 0.47952 0.15427 0.02400
H 	H 	0.97881 0.45673 0.16856 0.06500
H 	H 	0.90294 0.50022 0.22419 0.05500
N 	N 	0.95391 0.43232 0.09072 -0.21000
H 	H 	0.94285 0.42322 0.06054 0.10000
H 	H 	0.97564 0.42711 0.09453 0.08900
C 	C 	0.04210 0.68089 0.94194 -0.09100
C 	C 	0.06634 0.70009 0.93899 0.01600
C 	C 	0.06317 0.73139 0.93014 -0.05000
C 	C 	0.03571 0.74384 0.92414 0.00900
C 	C 	0.01475 0.69307 0.93338 0.01400
C 	C 	0.03202 0.77731 0.92254 0.09900
N 	N 	0.05234 0.79543 0.90112 -0.08300
N 	N 	0.05167 0.82569 0.90707 -0.08400
C 	C 	0.03071 0.83870 0.93473 0.10200
N 	N 	0.00954 0.82070 0.95385 -0.08600
N 	N 	0.01018 0.79047 0.94782 -0.08500
C 	C 	0.03345 0.87092 0.95061 -0.00200
C 	C 	0.01149 0.91559 0.98782 -0.01600
C 	C 	0.03872 0.92691 0.00081 -0.05000
C 	C 	0.06330 0.91148 0.98484 -0.01600
C 	C 	0.06071 0.88365 0.95979 -0.03800
C 	C 	0.01159 0.72438 0.92452 -0.05200
C 	C 	0.00886 0.88771 0.96278 -0.03800
H 	H 	0.08761 0.69089 0.94446 0.03900
H 	H 	0.08199 0.74610 0.92976 0.05300
H 	H 	0.99032 0.73361 0.91909 0.04900
H 	H 	0.99587 0.67849 0.93508 0.02400
H 	H 	0.98770 0.87859 0.95469 0.04700
H 	H 	0.99234 0.92748 0.99951 0.04100
H 	H 	0.07989 0.87123 0.94996 0.04800
H 	H 	0.08444 0.92038 0.99373 0.03900
C 	C 	0.02035 0.51955 0.78528 0.04100
C 	C 	0.02074 0.55162 0.78643 -0.08500
C 	C 	0.03442 0.56703 0.82520 0.04400
C 	C 	0.04746 0.55049 0.86344 -0.15300
C 	C 	0.05075 0.51850 0.85845 0.15100
C 	C 	0.03690 0.50316 0.81941 -0.12100
H 	H 	0.03259 0.59168 0.82789 0.02400
H 	H 	0.03774 0.47842 0.81713 0.06300
H 	H 	0.00864 0.56451 0.75941 0.05400
N 	N 	0.06673 0.50246 0.89138 -0.21000
H 	H 	0.07858 0.51359 0.91890 0.09600
H 	H 	0.06826 0.47868 0.88860 0.08600
C 	C 	0.04128 0.59062 0.13009 -0.06800
C 	C 	0.05497 0.56569 0.15248 -0.01300
C 	C 	0.04292 0.55186 0.19435 -0.02800
C 	C 	0.01695 0.56259 0.21369 -0.04900
C 	C 	0.00625 0.59095 0.19699 0.08500
C 	C 	0.01846 0.60476 0.15488 -0.05400
H 	H 	0.05208 0.53090 0.20849 0.04300
H 	H 	0.00920 0.62548 0.13995 0.05200
H 	H 	0.07361 0.55552 0.13534 0.04800
N 	N 	0.98373 0.60436 0.22014 -0.19800
H 	H 	0.97520 0.59522 0.25277 0.09500
H 	H 	0.97515 0.62471 0.20652 0.08500
C 	C 	0.96037 0.96678 0.12412 -0.09300
C 	C 	0.95267 0.93785 0.10537 0.01600
C 	C 	0.92471 0.93229 0.08876 -0.05000
C 	C 	0.90422 0.95559 0.09057 0.01100
C 	C 	0.93938 0.98949 0.12846 0.01300
C 	C 	0.87586 0.95103 0.06771 0.10200
N 	N 	0.86053 0.92502 0.07643 -0.08200
N 	N 	0.83466 0.92119 0.05628 -0.07900
C 	C 	0.82351 0.94312 0.02642 0.08800
N 	N 	0.83910 0.96889 0.01713 -0.07900
N 	N 	0.86485 0.97282 0.03757 -0.08100
C 	C 	0.79408 0.93981 0.00660 0.06500
C 	C 	0.75343 0.90762 0.98356 0.04300
C 	C 	0.73696 0.93376 0.97431 -0.11100
C 	C 	0.74950 0.96290 0.97971 0.04100
C 	C 	0.77782 0.96591 0.99589 -0.10600
C 	C 	0.91149 0.98396 0.11157 -0.05000
C 	C 	0.78186 0.91062 0.99951 -0.10400
H 	H 	0.96860 0.92009 0.10169 0.03800
H 	H 	0.91929 0.91026 0.07277 0.05400
H 	H 	0.89567 0.00191 0.11404 0.05500
H 	H 	0.94485 0.01171 0.14366 0.04200
H 	H 	0.79430 0.89025 0.00657 0.07700
H 	H 	0.74417 0.88500 0.97884 0.03200
H 	H 	0.78686 0.98858 0.00125 0.07400
H 	H 	0.73703 0.98328 0.97289 0.01300
C 	C 	0.58480 0.94841 0.75303 0.04100
C 	C 	0.58205 0.92155 0.78105 -0.08200
C 	C 	0.60180 0.91518 0.81847 0.04400
C 	C 	0.62417 0.93589 0.82870 -0.14800
C 	C 	0.62925 0.96070 0.79606 0.14900
C 	C 	0.60923 0.96699 0.75864 -0.11900
H 	H 	0.59826 0.89554 0.84228 0.03000
H 	H 	0.61193 0.98716 0.73563 0.06500
H 	H 	0.56358 0.90666 0.77605 0.05300
N 	N 	0.65301 0.97868 0.80095 -0.21000
H 	H 	0.66905 0.97332 0.82642 0.08600
H 	H 	0.65615 0.99764 0.77791 0.08400
C 	C 	0.62727 0.94032 0.10055 -0.06700
C 	C 	0.60474 0.92153 0.11749 -0.01000
C 	C 	0.58725 0.93121 0.15635 -0.02800
C 	C 	0.59198 0.95980 0.17860 -0.04800
C 	C 	0.61687 0.97691 0.16613 0.08500
C 	C 	0.63440 0.96697 0.12710 -0.05400
H 	H 	0.56873 0.91750 0.16678 0.04200
H 	H 	0.65290 0.98061 0.11629 0.04900
H 	H 	0.59980 0.90016 0.09897 0.04900
N 	N 	0.62370 0.00309 0.19079 -0.19700
H 	H 	0.61186 0.01025 0.22141 0.09600
H 	H 	0.64158 0.01615 0.18029 0.08500
C 	C 	0.35088 0.02503 0.99989 -0.11500
C 	C 	0.34296 0.00981 0.04371 0.04200
C 	C 	0.31456 0.01049 0.06025 -0.06300
C 	C 	0.29375 0.02642 0.03324 0.03400
C 	C 	0.33004 0.04098 0.97287 0.03000
C 	C 	0.26368 0.02662 0.05026 0.09700
N 	N 	0.25181 0.00119 0.07099 -0.08100
N 	N 	0.22440 0.00103 0.08499 -0.08200
C 	C 	0.20807 0.02634 0.07885 0.10200
N 	N 	0.22006 0.05191 0.05869 -0.08100
N 	N 	0.24746 0.05205 0.04460 -0.07800
C 	C 	0.17719 0.02539 0.09107 0.01200
C 	C 	0.13762 0.00276 0.13732 0.01800
C 	C 	0.11790 0.01802 0.10693 -0.09500
C 	C 	0.12805 0.03834 0.07046 0.02100
C 	C 	0.15752 0.04193 0.06246 -0.05000
C 	C 	0.30164 0.04168 0.98949 -0.07500
C 	C 	0.16709 0.00646 0.12946 -0.05100
H 	H 	0.35884 0.99775 0.06530 0.03000
H 	H 	0.30881 0.99886 0.09432 0.05600
H 	H 	0.28573 0.05377 0.96801 0.05700
H 	H 	0.33577 0.05265 0.93884 0.03900
H 	H 	0.18204 0.99414 0.15262 0.05100
H 	H 	0.13016 0.98727 0.16597 0.02200
H 	H 	0.16498 0.05682 0.03299 0.05800
H 	H 	0.11312 0.05080 0.04747 0.04400
C 	C 	0.45473 0.02237 0.82702 -0.07100
C 	C 	0.44819 0.99540 0.80096 -0.01600
C 	C 	0.46644 0.98517 0.76354 -0.03300
C 	C 	0.49127 0.00187 0.75141 -0.04500
C 	C 	0.49592 0.03102 0.77293 0.08500
C 	C 	0.47762 0.04100 0.81089 -0.05200
H 	H 	0.46223 0.96328 0.74609 0.03900
H 	H 	0.48192 0.06267 0.82902 0.05700
H 	H 	0.42980 0.98152 0.81139 0.03600
N 	N 	0.51804 0.04925 0.75779 -0.19800
H 	H 	0.53097 0.04317 0.72785 0.09500
H 	H 	0.52194 0.07028 0.77499 0.08600
C 	C 	0.50106 0.01810 0.17567 0.04100
C 	C 	0.50722 0.04373 0.14615 -0.08200
C 	C 	0.48898 0.05150 0.10720 0.04800
C 	C 	0.46452 0.03364 0.09738 -0.14700
C 	C 	0.45602 0.01081 0.13165 0.15000
C 	C 	0.47463 0.00291 0.17040 -0.11600
H 	H 	0.49517 0.06975 0.08208 0.02700
H 	H 	0.46929 0.98388 0.19458 0.06400
H 	H 	0.52722 0.05618 0.15099 0.05400
N 	N 	0.43035 0.99613 0.12696 -0.21300
H 	H 	0.41540 0.00297 0.10048 0.09600
H 	H 	0.42463 0.97845 0.15120 0.08600
C 	C 	0.46642 0.41194 0.00702 -0.04400
C 	C 	0.49049 0.39588 0.99020 -0.01900
C 	C 	0.48862 0.36429 0.98194 -0.03100
C 	C 	0.46261 0.34859 0.99020 -0.01500
C 	C 	0.44010 0.39654 0.01260 -0.00600
C 	C 	0.46134 0.31485 0.98780 0.09700
N 	N 	0.47667 0.29943 0.95322 -0.08300
N 	N 	0.47477 0.26901 0.95035 -0.08200
C 	C 	0.45752 0.25318 0.98201 0.09200
N 	N 	0.44251 0.26859 0.01696 -0.07200
N 	N 	0.44442 0.29895 0.01985 -0.07400
C 	C 	0.45390 0.21976 0.97697 0.00900
C 	C 	0.47420 0.16938 0.96354 0.00600
C 	C 	0.44702 0.15587 0.97055 -0.07100
C 	C 	0.42332 0.17454 0.98048 0.00700
C 	C 	0.42675 0.20625 0.98366 -0.04600
C 	C 	0.43817 0.36508 0.00406 -0.01800
C 	C 	0.47761 0.20118 0.96665 -0.04600
H 	H 	0.51090 0.40757 0.98561 0.04500
H 	H 	0.50762 0.35191 0.97093 0.04800
H 	H 	0.41778 0.35341 0.00923 0.05100
H 	H 	0.42127 0.40882 0.02476 0.04600
H 	H 	0.49870 0.21131 0.96165 0.05100
H 	H 	0.49265 0.15531 0.95556 0.04100
H 	H 	0.40824 0.22035 0.99117 0.05200
H 	H 	0.40224 0.16449 0.98599 0.04600
C 	C 	0.39617 0.52472 0.07877 -0.09300
C 	C 	0.38142 0.50524 0.04608 0.02200
C 	C 	0.35189 0.50841 0.03907 -0.05000
C 	C 	0.33680 0.53127 0.06445 0.01300
C 	C 	0.38097 0.54689 0.10539 0.01900
C 	C 	0.30596 0.53605 0.05446 0.10200
N 	N 	0.29470 0.52882 0.00956 -0.07500
N 	N 	0.26725 0.53450 0.99970 -0.09500
C 	C 	0.25030 0.54773 0.03435 0.11200
N 	N 	0.26145 0.55470 0.07939 -0.08300
N 	N 	0.28886 0.54887 0.08935 -0.08200
C 	C 	0.22039 0.55552 0.02257 0.01600
C 	C 	0.17448 0.54211 0.98566 -0.01400
C 	C 	0.16325 0.57037 0.00057 -0.03800
C 	C 	0.18084 0.59125 0.02619 -0.00100
C 	C 	0.20921 0.58382 0.03727 -0.04000
C 	C 	0.35147 0.55023 0.09817 -0.05200
C 	C 	0.20293 0.53477 0.99648 -0.05200
H 	H 	0.39286 0.48772 0.02592 0.04100
H 	H 	0.34080 0.49319 0.01375 0.05800
H 	H 	0.34020 0.56802 0.11792 0.05400
H 	H 	0.39213 0.56211 0.13063 0.02400
H 	H 	0.21131 0.51283 0.98504 0.05100
H 	H 	0.16120 0.52587 0.96562 0.04500
H 	H 	0.22256 0.60014 0.05700 0.05300
H 	H 	0.17245 0.61309 0.03805 0.05200
C 	C 	0.79008 0.45915 0.01875 -0.09200
C 	C 	0.77840 0.48864 0.01685 0.01900
C 	C 	0.74944 0.49313 0.02760 -0.05100
C 	C 	0.73174 0.46818 0.04032 0.01200
C 	C 	0.77234 0.43411 0.03090 0.02100
C 	C 	0.70124 0.47312 0.05232 0.10200
N 	N 	0.68626 0.49522 0.02857 -0.08100
N 	N 	0.65925 0.50100 0.04136 -0.08100
C 	C 	0.64640 0.48488 0.07832 0.10200
N 	N 	0.66124 0.46250 0.10169 -0.08200
N 	N 	0.68829 0.45674 0.08893 -0.08100
C 	C 	0.61667 0.49178 0.09305 0.01100
C 	C 	0.57819 0.52848 0.10223 0.01600
C 	C 	0.55879 0.50459 0.11295 -0.09400
C 	C 	0.56877 0.47439 0.11565 0.01500
C 	C 	0.59757 0.46802 0.10576 -0.04900
C 	C 	0.74331 0.43861 0.04171 -0.04900
C 	C 	0.60694 0.52210 0.09233 -0.05000
H 	H 	0.79178 0.50812 0.00709 0.02700
H 	H 	0.74085 0.51607 0.02663 0.05400
H 	H 	0.72983 0.41912 0.05101 0.05700
H 	H 	0.78109 0.41125 0.03269 0.04300
H 	H 	0.62157 0.54070 0.08343 0.05400
H 	H 	0.57082 0.55188 0.09991 0.03700
H 	H 	0.60481 0.44454 0.10662 0.05600
H 	H 	0.55412 0.45579 0.12440 0.04100
C 	C 	0.51038 0.58633 0.99619 -0.09800
C 	C 	0.49502 0.61228 0.98159 0.01400
C 	C 	0.50955 0.63829 0.96436 -0.05100
C 	C 	0.53964 0.63865 0.96173 0.00600
C 	C 	0.54029 0.58588 0.99021 -0.00300
C 	C 	0.55518 0.66761 0.95174 0.10000
N 	N 	0.54380 0.68880 0.92080 -0.08400
N 	N 	0.55585 0.71645 0.91661 -0.08400
C 	C 	0.57960 0.72376 0.94333 0.10100
N 	N 	0.59142 0.70230 0.97325 -0.08500
N 	N 	0.57938 0.67465 0.97740 -0.08500
C 	C 	0.59142 0.75525 0.94226 0.00500
C 	C 	0.58403 0.81022 0.93870 0.00400
C 	C 	0.61349 0.81535 0.94640 -0.07200
C 	C 	0.63192 0.79023 0.95098 0.00500
C 	C 	0.62095 0.76037 0.94888 -0.04500
C 	C 	0.55487 0.61195 0.97316 -0.04500
C 	C 	0.57306 0.78035 0.93670 -0.04600
H 	H 	0.47189 0.61272 0.98544 0.03300
H 	H 	0.49748 0.65860 0.95525 0.05100
H 	H 	0.57805 0.61169 0.97027 0.04900
H 	H 	0.55237 0.56592 0.00116 0.05100
H 	H 	0.55022 0.77678 0.93187 0.04900
H 	H 	0.56954 0.82932 0.93498 0.03900
H 	H 	0.63543 0.74124 0.95250 0.05100
H 	H 	0.65473 0.79378 0.95628 0.04500
