data_crystal

_cell_length_a 30.77024
_cell_length_b 30.96844
_cell_length_c 35.01708
_cell_angle_alpha 95.51742
_cell_angle_beta  95.51686
_cell_angle_gamma 125.54266

_symmetry_space_group_name_	'P 1'
_symmetry_space_group_name_H-M	'P 1'

loop_
_symmetry_equiv_pos_as_xyz
  x,y,z

loop_
_atom_site_label
_atom_site_type_symbol
_atom_site_fract_x
_atom_site_fract_y
_atom_site_fract_z
_atom_site_charge
H 	H 	0.01876 0.92258 0.01650 0.03700
N 	N 	0.02964 0.00091 0.98038 -0.14200
C 	C 	0.01810 0.97970 0.46019 0.10800
N 	N 	0.03429 0.07975 0.98477 -0.14300
C 	C 	0.05788 0.05432 0.97918 0.11600
C 	C 	0.98250 0.05174 0.99144 0.11900
C 	C 	0.97805 0.97282 0.98722 0.11500
N 	N 	0.95450 0.99828 0.99269 -0.14500
C 	C 	0.93814 0.97425 0.45423 0.12300
N 	N 	0.90909 0.92146 0.45766 -0.14100
C 	C 	0.93464 0.89784 0.46254 0.11700
N 	N 	0.98907 0.92706 0.46381 -0.14000
N 	N 	0.99257 0.00331 0.45549 -0.13600
Cu	Cu	0.65294 0.27895 0.99941 0.92700
Cu	Cu	0.69865 0.28002 0.91829 0.87000
Cu	Cu	0.68859 0.36597 0.94956 0.89600
Cu	Cu	0.65509 0.38026 0.02476 0.89400
C 	C 	0.66557 0.31819 0.08064 0.29400
O 	O 	0.57362 0.24848 0.99666 -0.36600
C 	C 	0.67178 0.32832 0.86466 0.29500
O 	O 	0.69853 0.36318 0.00387 -0.64000
O 	O 	0.64900 0.28605 0.94387 -0.64200
O 	O 	0.68493 0.23846 0.99818 -0.37700
O 	O 	0.74757 0.29330 0.96310 -0.44500
O 	O 	0.64289 0.34162 0.06972 -0.38700
O 	O 	0.73074 0.44395 0.95890 -0.38400
C 	C 	0.72605 0.47340 0.98566 0.30500
C 	C 	0.55387 0.27241 0.98180 0.30100
O 	O 	0.58693 0.32288 0.97783 -0.39600
O 	O 	0.68846 0.45124 0.00759 -0.39400
O 	O 	0.66832 0.28607 0.05491 -0.36300
C 	C 	0.73130 0.25828 0.98650 0.30700
O 	O 	0.69137 0.36936 0.89368 -0.38900
O 	O 	0.66715 0.28453 0.87061 -0.42400
H 	H 	0.73696 0.38552 0.01745 0.16100
H 	H 	0.61180 0.26495 0.92815 0.17000
Cu	Cu	0.71265 0.30498 0.44247 0.92700
Cu	Cu	0.72419 0.27235 0.52732 0.87000
Cu	Cu	0.63237 0.27589 0.49811 0.89700
Cu	Cu	0.60588 0.29669 0.41882 0.89400
C 	C 	0.67452 0.29796 0.36276 0.29600
O 	O 	0.74366 0.38296 0.44079 -0.37700
C 	C 	0.68023 0.30315 0.58225 0.29500
O 	O 	0.62882 0.25986 0.44319 -0.63800
O 	O 	0.71220 0.31608 0.49897 -0.64200
O 	O 	0.75271 0.27238 0.44283 -0.37400
O 	O 	0.70490 0.21792 0.48474 -0.44200
O 	O 	0.62842 0.28985 0.36813 -0.38900
O 	O 	0.55415 0.23292 0.49324 -0.38300
C 	C 	0.52202 0.23516 0.46704 0.30700
C 	C 	0.71828 0.40337 0.45089 0.30300
O 	O 	0.66906 0.37210 0.45811 -0.39600
O 	O 	0.54192 0.27182 0.44454 -0.39700
O 	O 	0.69924 0.28511 0.38693 -0.36700
C 	C 	0.73573 0.22933 0.45833 0.28800
O 	O 	0.63589 0.27934 0.55511 -0.39100
O 	O 	0.72431 0.30939 0.57414 -0.42200
H 	H 	0.60681 0.22072 0.43229 0.16500
H 	H 	0.73360 0.35438 0.51208 0.17100
C 	C 	0.61741 0.29572 0.75664 -0.09300
C 	C 	0.66404 0.33598 0.74384 0.00300
C 	C 	0.70883 0.38003 0.77135 0.02400
C 	C 	0.70920 0.37923 0.81140 -0.01700
C 	C 	0.66491 0.33571 0.82412 -0.11000
C 	C 	0.61716 0.29573 0.79671 0.09700
C 	C 	0.66853 0.32786 0.70244 0.00500
C 	C 	0.75779 0.42586 0.75813 -0.17200
H 	H 	0.74515 0.41094 0.83256 0.03700
C 	C 	0.56691 0.25155 0.80985 -0.20100
H 	H 	0.58231 0.26293 0.73541 0.05100
C 	C 	0.68830 0.29865 0.68994 0.02200
C 	C 	0.69213 0.29131 0.65060 -0.01400
C 	C 	0.67682 0.31294 0.62358 -0.11100
C 	C 	0.65805 0.34314 0.63624 0.10000
C 	C 	0.65299 0.34937 0.67551 -0.09400
C 	C 	0.70470 0.27469 0.71839 -0.17000
H 	H 	0.70647 0.26815 0.64083 0.02700
C 	C 	0.64300 0.36839 0.60814 -0.20500
H 	H 	0.63762 0.37156 0.68524 0.05200
H 	H 	0.57085 0.21919 0.81544 0.07100
H 	H 	0.53000 0.23360 0.78722 0.06600
H 	H 	0.56084 0.26773 0.83690 0.06800
H 	H 	0.74489 0.44079 0.73531 0.06400
H 	H 	0.78051 0.41179 0.74606 0.06100
H 	H 	0.78570 0.46046 0.78265 0.06000
H 	H 	0.72048 0.25410 0.70420 0.05500
H 	H 	0.66905 0.24446 0.73052 0.06200
H 	H 	0.73725 0.30698 0.74263 0.06000
H 	H 	0.60351 0.33660 0.58864 0.08000
H 	H 	0.67484 0.38974 0.59025 0.06800
H 	H 	0.63904 0.39854 0.62381 0.06700
C 	C 	0.70774 0.35657 0.27110 -0.09200
C 	C 	0.69443 0.31181 0.24470 0.00300
C 	C 	0.68347 0.26570 0.25860 0.02500
C 	C 	0.68017 0.26284 0.29812 -0.01300
C 	C 	0.68892 0.30588 0.32387 -0.10400
C 	C 	0.70553 0.35414 0.31075 0.09500
C 	C 	0.68632 0.31137 0.20225 0.00300
C 	C 	0.67237 0.21843 0.23106 -0.17300
H 	H 	0.66862 0.22628 0.30849 0.04100
C 	C 	0.71927 0.40243 0.33866 -0.20600
H 	H 	0.71763 0.39248 0.26047 0.05100
C 	C 	0.63544 0.29417 0.18164 0.02600
C 	C 	0.62931 0.29629 0.14180 -0.01400
C 	C 	0.67316 0.31527 0.12228 -0.10400
C 	C 	0.72403 0.33221 0.14282 0.09500
C 	C 	0.73012 0.32993 0.18272 -0.09200
C 	C 	0.58791 0.27447 0.20218 -0.17300
H 	H 	0.59030 0.28316 0.12591 0.04300
C 	C 	0.77175 0.35262 0.12241 -0.20300
H 	H 	0.76902 0.34289 0.19866 0.05100
H 	H 	0.68171 0.39403 0.34746 0.06900
H 	H 	0.73851 0.43905 0.32520 0.06900
H 	H 	0.74838 0.41156 0.36505 0.07900
H 	H 	0.70515 0.23252 0.21372 0.06700
H 	H 	0.63281 0.19799 0.21093 0.06500
H 	H 	0.67075 0.18840 0.24708 0.06300
H 	H 	0.55037 0.26020 0.18161 0.06200
H 	H 	0.59728 0.30777 0.22492 0.06500
H 	H 	0.57936 0.24021 0.21611 0.06500
H 	H 	0.77831 0.38506 0.10694 0.06300
H 	H 	0.76397 0.31891 0.10102 0.08100
H 	H 	0.80990 0.36970 0.14338 0.06600
C 	C 	0.90366 0.84068 0.46633 -0.02200
C 	C 	0.92543 0.82480 0.49390 -0.02000
C 	C 	0.90054 0.77004 0.49379 -0.04900
C 	C 	0.85366 0.73062 0.46614 0.01200
C 	C 	0.83039 0.74636 0.43972 -0.04900
C 	C 	0.85526 0.80122 0.43986 -0.02000
C 	C 	0.83059 0.67308 0.46360 0.00700
C 	C 	0.77845 0.63664 0.47160 -0.04400
C 	C 	0.75697 0.58223 0.46966 -0.03200
C 	C 	0.78745 0.56393 0.45970 -0.01200
C 	C 	0.83949 0.60022 0.45166 -0.03200
C 	C 	0.86103 0.65465 0.45360 -0.04400
C 	C 	0.76471 0.50765 0.45687 0.04400
C 	C 	0.74445 0.46023 0.45431 -0.12100
H 	H 	0.96232 0.85492 0.51484 0.03900
H 	H 	0.91830 0.75824 0.51468 0.04100
H 	H 	0.79397 0.71616 0.41842 0.04100
H 	H 	0.83806 0.81297 0.41847 0.03900
H 	H 	0.75473 0.65052 0.47946 0.03900
H 	H 	0.71662 0.55432 0.47582 0.03600
H 	H 	0.86318 0.58630 0.44379 0.03600
H 	H 	0.90126 0.68246 0.44724 0.04000
C 	C 	0.75474 0.19620 0.44852 -0.09700
C 	C 	0.72400 0.14203 0.45325 0.01300
C 	C 	0.74527 0.11273 0.44935 -0.06900
C 	C 	0.79736 0.13717 0.44052 0.02700
C 	C 	0.82696 0.19036 0.43378 -0.06900
C 	C 	0.80575 0.21975 0.43771 0.01300
C 	C 	0.82256 0.10864 0.44144 -0.00200
C 	C 	0.86912 0.12913 0.46946 -0.03600
C 	C 	0.89157 0.10089 0.47165 -0.04200
C 	C 	0.86766 0.05196 0.44592 0.01300
C 	C 	0.82137 0.03153 0.41773 -0.03900
C 	C 	0.79884 0.05978 0.41549 -0.03700
C 	C 	0.89108 0.02310 0.44829 0.00200
C 	C 	0.91183 0.00007 0.45078 -0.03700
H 	H 	0.68415 0.12300 0.46082 0.02800
H 	H 	0.72195 0.07157 0.45435 0.04500
H 	H 	0.86697 0.20937 0.42649 0.04600
H 	H 	0.82980 0.26136 0.43372 0.03200
H 	H 	0.88749 0.16659 0.48980 0.03500
H 	H 	0.92744 0.11697 0.49344 0.04100
H 	H 	0.80278 0.99381 0.39765 0.03800
H 	H 	0.76292 0.04364 0.39375 0.03900
C 	C 	0.07711 0.01098 0.46128 -0.01000
C 	C 	0.11226 0.06526 0.48035 -0.02600
C 	C 	0.16843 0.09410 0.48278 -0.04400
C 	C 	0.18992 0.06896 0.46611 0.00700
C 	C 	0.15482 0.01493 0.44673 -0.03600
C 	C 	0.09871 0.98606 0.44432 -0.03400
C 	C 	0.24910 0.09936 0.46849 0.01000
C 	C 	0.27733 0.08255 0.48800 -0.04400
C 	C 	0.33305 0.11003 0.48877 -0.03100
C 	C 	0.36084 0.15447 0.47014 -0.01000
C 	C 	0.33286 0.17170 0.45107 -0.03100
C 	C 	0.27717 0.14425 0.45023 -0.04500
C 	C 	0.41782 0.18188 0.46989 0.04500
C 	C 	0.46547 0.20564 0.46899 -0.11000
H 	H 	0.09617 0.08483 0.49382 0.04200
H 	H 	0.19527 0.13582 0.49782 0.04000
H 	H 	0.17104 0.99538 0.43342 0.03600
H 	H 	0.07200 0.94439 0.42917 0.04200
H 	H 	0.25603 0.04808 0.50233 0.04000
H 	H 	0.35449 0.09659 0.50364 0.03800
H 	H 	0.35416 0.20609 0.43664 0.03800
H 	H 	0.25570 0.15741 0.43500 0.04000
C 	C 	0.94794 0.91496 0.98901 -0.02500
C 	C 	0.97559 0.89522 0.00457 -0.01600
C 	C 	0.94759 0.84007 0.00477 -0.04800
C 	C 	0.89168 0.80411 0.98951 0.01100
C 	C 	0.86381 0.82381 0.97445 -0.04900
C 	C 	0.89179 0.87899 0.97420 -0.02000
C 	C 	0.86254 0.74576 0.98878 0.00500
C 	C 	0.83947 0.70945 0.95298 -0.04300
C 	C 	0.81274 0.65423 0.95230 -0.03100
C 	C 	0.80897 0.63501 0.98737 -0.01200
C 	C 	0.83197 0.67119 0.02315 -0.03000
C 	C 	0.85868 0.72641 0.02388 -0.04200
C 	C 	0.78036 0.57802 0.98667 0.04500
C 	C 	0.75593 0.53027 0.98616 -0.11000
H 	H 	0.96942 0.82521 0.01649 0.04200
H 	H 	0.82057 0.79634 0.96276 0.04100
H 	H 	0.87000 0.89362 0.96195 0.03900
H 	H 	0.84251 0.72405 0.92574 0.04000
H 	H 	0.79494 0.62644 0.92454 0.03800
H 	H 	0.82903 0.65655 0.05037 0.03600
H 	H 	0.87630 0.75413 0.05165 0.04000
C 	C 	0.95648 0.07906 0.99686 -0.02600
C 	C 	0.96676 0.11902 0.97526 -0.01800
C 	C 	0.93985 0.14280 0.97887 -0.05300
C 	C 	0.90251 0.12699 0.00418 0.01600
C 	C 	0.89307 0.08794 0.02640 -0.05100
C 	C 	0.91989 0.06407 0.02276 -0.01600
C 	C 	0.87159 0.14961 0.00610 0.00800
C 	C 	0.81479 0.11570 0.99439 -0.04500
C 	C 	0.78582 0.13757 0.99364 -0.03500
C 	C 	0.81338 0.19345 0.00458 -0.00800
C 	C 	0.86993 0.22724 0.01727 -0.03300
C 	C 	0.89897 0.20541 0.01809 -0.04300
C 	C 	0.78431 0.21648 0.99960 0.04200
C 	C 	0.76002 0.23562 0.99430 -0.12300
H 	H 	0.99467 0.13080 0.95505 0.03900
H 	H 	0.94726 0.17278 0.96149 0.04100
H 	H 	0.86465 0.07579 0.04624 0.04300
H 	H 	0.91215 0.03386 0.04001 0.04000
H 	H 	0.79327 0.07259 0.98507 0.03900
H 	H 	0.74212 0.11122 0.98375 0.03600
H 	H 	0.89152 0.27048 0.02576 0.03700
H 	H 	0.94275 0.23187 0.02747 0.04000
C 	C 	0.11454 0.08481 0.97308 -0.02200
C 	C 	0.15433 0.13668 0.99522 -0.02200
C 	C 	0.20916 0.16258 0.99313 -0.05100
C 	C 	0.22461 0.13690 0.96883 0.01300
C 	C 	0.18464 0.08621 0.94532 -0.04900
C 	C 	0.12986 0.06030 0.94739 -0.02000
C 	C 	0.28266 0.16101 0.97033 0.00500
C 	C 	0.30579 0.17597 0.93691 -0.04300
C 	C 	0.36045 0.19718 0.93813 -0.03100
C 	C 	0.39218 0.20341 0.97271 -0.01200
C 	C 	0.36911 0.18846 0.00605 -0.02900
C 	C 	0.31456 0.16731 0.00489 -0.04100
C 	C 	0.44889 0.22686 0.97450 0.04500
C 	C 	0.49666 0.24714 0.97714 -0.11400
H 	H 	0.14306 0.15611 0.01507 0.04100
H 	H 	0.23973 0.20197 0.01112 0.04300
H 	H 	0.19616 0.06622 0.92630 0.04200
H 	H 	0.09944 0.02068 0.92965 0.03900
H 	H 	0.28147 0.17118 0.91008 0.03900
H 	H 	0.37810 0.20887 0.91228 0.03600
H 	H 	0.39347 0.19332 0.03291 0.03800
H 	H 	0.29695 0.15546 0.03073 0.04000
