data_crystal

_cell_length_a 32.79680
_cell_length_b 32.90411
_cell_length_c 27.07193
_cell_angle_alpha 87.11770
_cell_angle_beta  89.88204
_cell_angle_gamma 121.66480

_symmetry_space_group_name_	'P 1'
_symmetry_space_group_name_H-M	'P 1'

loop_
_symmetry_equiv_pos_as_xyz
  x,y,z

loop_
_atom_site_label
_atom_site_type_symbol
_atom_site_fract_x
_atom_site_fract_y
_atom_site_fract_z
_atom_site_charge
Zn	Zn	0.37041 0.21194 0.92585 1.22500
Zn	Zn	0.39054 0.26894 0.03053 1.18600
C 	C 	0.47713 0.15530 0.98890 0.37000
Zn	Zn	0.43477 0.21135 0.01160 1.21900
Zn	Zn	0.44026 0.18018 0.90043 1.20100
H 	H 	0.34658 0.17893 0.02084 0.18200
C 	C 	0.50000 0.31241 0.01011 0.25500
O 	O 	0.39881 0.16384 0.84294 -0.43500
O 	O 	0.37864 0.22014 0.84731 -0.37300
O 	O 	0.37361 0.20741 0.00289 -0.81300
O 	O 	0.37533 0.30240 0.97704 -0.42000
O 	O 	0.32472 0.14176 0.92386 -0.40300
O 	O 	0.33766 0.24821 0.91771 -0.40100
O 	O 	0.38022 0.12209 0.94415 -0.38200
O 	O 	0.41875 0.26746 0.09523 -0.43800
H 	H 	0.46186 0.26351 0.92136 0.19400
O 	O 	0.42192 0.19978 0.08926 -0.36600
O 	O 	0.43817 0.23064 0.93460 -0.77700
O 	O 	0.48472 0.16992 0.94179 -0.44900
O 	O 	0.49433 0.27101 0.02330 -0.42000
O 	O 	0.44414 0.15635 0.01565 -0.44200
O 	O 	0.46292 0.31526 0.99775 -0.35700
C 	C 	0.38963 0.19454 0.82104 0.27900
C 	C 	0.34081 0.28156 0.94548 0.27900
C 	C 	0.33532 0.11042 0.94118 0.27300
C 	C 	0.41590 0.22878 0.11596 0.27300
Zn	Zn	0.37019 0.21157 0.42685 1.22200
Zn	Zn	0.39207 0.27019 0.53078 1.19500
C 	C 	0.48057 0.15840 0.48728 0.29600
Zn	Zn	0.43744 0.21368 0.51078 1.22400
Zn	Zn	0.44036 0.18066 0.39989 1.20000
H 	H 	0.34924 0.18010 0.52248 0.18700
C 	C 	0.50128 0.31517 0.50765 0.28600
O 	O 	0.39711 0.16248 0.34378 -0.43500
O 	O 	0.37618 0.21820 0.34815 -0.37400
O 	O 	0.37555 0.20854 0.50374 -0.79600
O 	O 	0.37397 0.30169 0.47789 -0.43100
O 	O 	0.32524 0.14117 0.42668 -0.41100
O 	O 	0.33638 0.24681 0.41922 -0.40500
O 	O 	0.38204 0.12302 0.44579 -0.39200
O 	O 	0.42234 0.27037 0.59453 -0.43100
H 	H 	0.46156 0.26422 0.41972 0.19100
O 	O 	0.42667 0.20333 0.58871 -0.36300
O 	O 	0.43850 0.23144 0.43369 -0.78700
O 	O 	0.48665 0.17222 0.43999 -0.43800
O 	O 	0.49670 0.27419 0.52066 -0.41800
O 	O 	0.44814 0.15946 0.51503 -0.40100
O 	O 	0.46349 0.31705 0.49597 -0.39100
C 	C 	0.38684 0.19237 0.32187 0.27900
C 	C 	0.33847 0.27921 0.44774 0.27600
C 	C 	0.33690 0.11084 0.44467 0.27600
C 	C 	0.42050 0.23225 0.61540 0.27300
Zn	Zn	0.18661 0.81769 0.00288 1.21400
Zn	Zn	0.14741 0.78042 0.89273 1.20100
C 	C 	0.35000 0.86152 0.94866 0.26900
Zn	Zn	0.24890 0.80807 0.92076 1.22400
Zn	Zn	0.29129 0.86517 0.02711 1.18700
H 	H 	0.21685 0.86303 0.91005 0.19400
C 	C 	0.17423 0.70774 0.93711 0.27900
O 	O 	0.26228 0.87389 0.08648 -0.44400
O 	O 	0.18530 0.81087 0.08136 -0.37300
O 	O 	0.20399 0.83051 0.92557 -0.78200
O 	O 	0.09482 0.77538 0.93429 -0.44600
O 	O 	0.19977 0.88360 0.00679 -0.44300
O 	O 	0.11843 0.76437 0.01048 -0.43500
O 	O 	0.27808 0.91460 0.98455 -0.38900
O 	O 	0.17003 0.76047 0.83680 -0.43500
H 	H 	0.23254 0.77675 0.01688 0.15100
O 	O 	0.25032 0.81317 0.84190 -0.37000
O 	O 	0.23991 0.80657 0.99810 -0.74900
O 	O 	0.34635 0.88889 0.97977 -0.41100
O 	O 	0.21888 0.73809 0.92175 -0.41100
O 	O 	0.31989 0.84386 0.91238 -0.39200
O 	O 	0.14273 0.72108 0.93827 -0.38500
C 	C 	0.22210 0.83909 0.10792 0.27600
C 	C 	0.08424 0.75484 0.97914 0.32900
C 	C 	0.24235 0.92056 0.99388 0.31300
C 	C 	0.21233 0.78902 0.81528 0.27900
Zn	Zn	0.18717 0.81948 0.50599 1.22200
Zn	Zn	0.14680 0.78788 0.39455 1.20000
C 	C 	0.34902 0.86493 0.44604 0.26800
Zn	Zn	0.24891 0.81664 0.41842 1.22400
Zn	Zn	0.29226 0.86395 0.52935 1.20000
H 	H 	0.21487 0.86990 0.41555 0.19300
C 	C 	0.17705 0.71567 0.43074 0.27500
O 	O 	0.26364 0.86966 0.59071 -0.43400
O 	O 	0.18661 0.80749 0.58396 -0.36800
O 	O 	0.20299 0.83682 0.42877 -0.79000
O 	O 	0.09428 0.77975 0.43844 -0.44800
O 	O 	0.20227 0.88544 0.51539 -0.40900
O 	O 	0.11875 0.76614 0.51305 -0.40300
O 	O 	0.28039 0.91641 0.49159 -0.39300
O 	O 	0.16933 0.77192 0.33535 -0.43600
H 	H 	0.23270 0.77750 0.51188 0.18200
O 	O 	0.24914 0.82684 0.34001 -0.37200
O 	O 	0.24028 0.80867 0.49631 -0.78600
O 	O 	0.34843 0.88902 0.48299 -0.41700
O 	O 	0.22069 0.74751 0.41365 -0.41600
O 	O 	0.31954 0.85565 0.40950 -0.39600
O 	O 	0.14435 0.72722 0.43516 -0.39200
C 	C 	0.22360 0.83379 0.61113 0.27600
C 	C 	0.08431 0.75714 0.48221 0.30000
C 	C 	0.24501 0.92248 0.50274 0.28000
C 	C 	0.21112 0.80210 0.31362 0.27900
Zn	Zn	0.76741 0.54240 0.05864 1.21400
Zn	Zn	0.83249 0.49256 0.07679 1.19500
C 	C 	0.78653 0.53771 0.87001 0.29100
Zn	Zn	0.81537 0.51904 0.97161 1.22500
Zn	Zn	0.76005 0.57694 0.95366 1.20100
H 	H 	0.75341 0.45740 0.03420 0.18200
C 	C 	0.90628 0.58444 0.01331 0.24800
O 	O 	0.71488 0.58478 0.99377 -0.40500
O 	O 	0.75248 0.59780 0.06721 -0.37400
O 	O 	0.78114 0.49040 0.03647 -0.80200
O 	O 	0.82406 0.50975 0.14527 -0.42600
O 	O 	0.69869 0.49753 0.04664 -0.41000
O 	O 	0.78637 0.55184 0.13038 -0.40200
O 	O 	0.70938 0.49986 0.96234 -0.37300
O 	O 	0.86661 0.47346 0.03180 -0.45500
H 	H 	0.83547 0.60640 0.00193 0.15600
O 	O 	0.82293 0.45911 0.96235 -0.36000
O 	O 	0.80694 0.57445 0.99709 -0.74900
O 	O 	0.78108 0.57184 0.88577 -0.43300
O 	O 	0.88536 0.56075 0.97403 -0.38300
O 	O 	0.78856 0.50680 0.90188 -0.38900
O 	O 	0.88565 0.56804 0.05773 -0.39100
C 	C 	0.72430 0.60350 0.03702 0.24600
C 	C 	0.79902 0.52786 0.16123 0.28300
C 	C 	0.68332 0.47887 0.00350 0.24300
C 	C 	0.84459 0.44638 0.99490 0.30300
Zn	Zn	0.76784 0.54534 0.55875 1.21900
Zn	Zn	0.83153 0.49343 0.57517 1.19700
C 	C 	0.78685 0.54149 0.36989 0.29000
Zn	Zn	0.81511 0.52208 0.47104 1.22000
Zn	Zn	0.76125 0.58164 0.45384 1.19800
H 	H 	0.75244 0.46017 0.53271 0.18700
C 	C 	0.90629 0.58591 0.51323 0.27600
O 	O 	0.71753 0.59130 0.49475 -0.43800
O 	O 	0.75441 0.60171 0.56851 -0.37400
O 	O 	0.78054 0.49287 0.53551 -0.79000
O 	O 	0.82347 0.50981 0.64404 -0.42300
O 	O 	0.69890 0.50178 0.54672 -0.41000
O 	O 	0.78675 0.55304 0.63071 -0.39800
O 	O 	0.70900 0.50486 0.46225 -0.39800
O 	O 	0.86555 0.47456 0.52968 -0.42700
H 	H 	0.83630 0.60925 0.50241 0.18600
O 	O 	0.82199 0.46207 0.46040 -0.36500
O 	O 	0.80743 0.57762 0.49724 -0.78800
O 	O 	0.78113 0.57561 0.38535 -0.43400
O 	O 	0.88519 0.56325 0.47348 -0.41200
O 	O 	0.78773 0.51013 0.40196 -0.39500
O 	O 	0.88543 0.56890 0.55746 -0.39200
C 	C 	0.72748 0.60947 0.53834 0.28000
C 	C 	0.79856 0.52777 0.66074 0.28300
C 	C 	0.68304 0.48375 0.50344 0.27400
C 	C 	0.84413 0.44889 0.49173 0.27500
Zn	Zn	0.52734 0.75936 0.96197 1.22900
Zn	Zn	0.53170 0.79911 0.07148 1.19700
C 	C 	0.62275 0.69221 0.02920 0.28100
Zn	Zn	0.60079 0.76814 0.04057 1.21900
Zn	Zn	0.56946 0.69983 0.94328 1.20100
H 	H 	0.51037 0.71420 0.05513 0.18500
C 	C 	0.63198 0.86756 0.01750 0.23800
O 	O 	0.53820 0.69702 0.87945 -0.42900
O 	O 	0.53195 0.76338 0.88357 -0.36100
O 	O 	0.53189 0.74656 0.03926 -0.80000
O 	O 	0.48367 0.80535 0.03236 -0.47300
O 	O 	0.46581 0.69943 0.95838 -0.41100
O 	O 	0.51885 0.81447 0.95603 -0.40400
O 	O 	0.49781 0.65448 0.97864 -0.37500
O 	O 	0.57849 0.82049 0.12486 -0.43600
H 	H 	0.61361 0.79040 0.94334 0.19000
O 	O 	0.60204 0.76684 0.11914 -0.37700
O 	O 	0.58865 0.76370 0.96512 -0.78800
O 	O 	0.58616 0.67021 0.00002 -0.44900
O 	O 	0.64551 0.83839 0.03438 -0.41400
O 	O 	0.63539 0.73388 0.04637 -0.41900
O 	O 	0.58698 0.85550 0.02187 -0.39600
C 	C 	0.53595 0.73266 0.85755 0.27400
C 	C 	0.48887 0.81843 0.98488 0.33400
C 	C 	0.46045 0.65768 0.96858 0.28900
C 	C 	0.59156 0.79246 0.14600 0.27900
Zn	Zn	0.52397 0.75242 0.45249 1.22400
Zn	Zn	0.49138 0.76209 0.56348 1.20000
C 	C 	0.62121 0.69283 0.53233 0.27800
Zn	Zn	0.57884 0.75271 0.54666 1.22300
Zn	Zn	0.58105 0.70739 0.43921 1.19400
H 	H 	0.49144 0.68958 0.53605 0.19100
C 	C 	0.59671 0.84971 0.54273 0.28000
O 	O 	0.56256 0.71311 0.37024 -0.43200
O 	O 	0.54785 0.77367 0.37772 -0.36500
O 	O 	0.51147 0.72442 0.52773 -0.79000
O 	O 	0.45081 0.76939 0.51328 -0.44100
O 	O 	0.47180 0.69201 0.42959 -0.41600
O 	O 	0.50714 0.80190 0.44977 -0.40600
O 	O 	0.50600 0.65138 0.45827 -0.38700
O 	O 	0.52195 0.77667 0.62845 -0.43500
H 	H 	0.61301 0.79434 0.45627 0.18900
O 	O 	0.56029 0.73564 0.62361 -0.37700
O 	O 	0.58614 0.76304 0.46988 -0.80200
O 	O 	0.59242 0.67309 0.49546 -0.43200
O 	O 	0.61378 0.82248 0.55591 -0.41200
O 	O 	0.61967 0.72508 0.55802 -0.40600
O 	O 	0.55086 0.83093 0.53463 -0.39100
C 	C 	0.56198 0.75058 0.35093 0.27200
C 	C 	0.46805 0.79553 0.47143 0.29900
C 	C 	0.46839 0.65152 0.44204 0.28500
C 	C 	0.53979 0.75296 0.64997 0.28300
Zn	Zn	0.71836 0.15809 0.04067 1.21900
Zn	Zn	0.66848 0.11326 0.93060 1.19900
C 	C 	0.87743 0.20621 0.96465 0.33400
Zn	Zn	0.77321 0.15349 0.94759 1.22700
Zn	Zn	0.81967 0.17670 0.05738 1.19700
H 	H 	0.73164 0.19904 0.94837 0.18900
C 	C 	0.71494 0.05142 0.94586 0.28600
O 	O 	0.80206 0.19071 0.12131 -0.43600
O 	O 	0.72050 0.14427 0.11835 -0.37200
O 	O 	0.72333 0.16721 0.96266 -0.77700
O 	O 	0.61750 0.08613 0.98338 -0.39500
O 	O 	0.75375 0.22785 0.04804 -0.42400
O 	O 	0.64806 0.12752 0.05277 -0.39500
O 	O 	0.82753 0.24254 0.02375 -0.39900
O 	O 	0.69249 0.11019 0.86426 -0.43100
H 	H 	0.74548 0.09916 0.03544 0.18500
O 	O 	0.77139 0.16890 0.87062 -0.36700
O 	O 	0.75968 0.13321 0.02437 -0.80200
O 	O 	0.86980 0.18442 0.00882 -0.47100
O 	O 	0.75741 0.08869 0.93343 -0.41000
O 	O 	0.84194 0.20496 0.94063 -0.40600
O 	O 	0.67995 0.05724 0.95934 -0.38600
C 	C 	0.75998 0.16223 0.14354 0.27600
C 	C 	0.61584 0.11173 0.01812 0.23500
C 	C 	0.79751 0.25725 0.02972 0.28000
C 	C 	0.73350 0.14461 0.84370 0.27600
Zn	Zn	0.72370 0.16053 0.52950 1.22200
Zn	Zn	0.68533 0.12005 0.41943 1.20000
C 	C 	0.88189 0.20054 0.47843 0.28600
Zn	Zn	0.78040 0.13598 0.45415 1.22100
Zn	Zn	0.82159 0.18620 0.56441 1.20000
H 	H 	0.76051 0.19986 0.43591 0.18800
C 	C 	0.69668 0.04152 0.47443 0.27100
O 	O 	0.79643 0.20650 0.61764 -0.43600
O 	O 	0.71646 0.15429 0.60862 -0.36600
O 	O 	0.74329 0.16768 0.45317 -0.78600
O 	O 	0.63320 0.12475 0.45069 -0.43600
O 	O 	0.75350 0.23041 0.53052 -0.41400
O 	O 	0.65253 0.12194 0.53162 -0.40700
O 	O 	0.82913 0.24549 0.51650 -0.39600
O 	O 	0.70481 0.09129 0.36970 -0.43400
H 	H 	0.75147 0.10395 0.54967 0.18400
O 	O 	0.78547 0.13894 0.37491 -0.37000
O 	O 	0.76629 0.13523 0.53070 -0.78700
O 	O 	0.87640 0.19218 0.52664 -0.43600
O 	O 	0.74154 0.06497 0.45726 -0.40700
O 	O 	0.85169 0.16809 0.44892 -0.40100
O 	O 	0.67126 0.06205 0.47274 -0.39200
C 	C 	0.75301 0.17868 0.63711 0.27600
C 	C 	0.62514 0.12532 0.49819 0.29700
C 	C 	0.79883 0.26029 0.51745 0.27900
C 	C 	0.74743 0.11611 0.34808 0.27600
Zn	Zn	0.17157 0.46601 0.00089 1.21500
Zn	Zn	0.12633 0.46154 0.88675 1.19900
C 	C 	0.22393 0.35671 0.94615 0.30000
Zn	Zn	0.16895 0.40200 0.91694 1.22200
Zn	Zn	0.19842 0.39271 0.03053 1.18700
H 	H 	0.21284 0.49166 0.90899 0.18500
C 	C 	0.06590 0.35222 0.91502 0.28100
O 	O 	0.21397 0.43135 0.08843 -0.44800
O 	O 	0.15951 0.45404 0.07898 -0.37800
O 	O 	0.18119 0.46668 0.92364 -0.78000
O 	O 	0.10164 0.49165 0.92969 -0.42100
O 	O 	0.24095 0.50852 0.00944 -0.44900
O 	O 	0.13550 0.49862 0.00470 -0.43000
O 	O 	0.26073 0.45365 0.99084 -0.38500
O 	O 	0.12129 0.42750 0.82689 -0.43400
H 	H 	0.11703 0.37599 0.00475 0.15800
O 	O 	0.18278 0.41487 0.83915 -0.36900
O 	O 	0.15043 0.39876 0.99268 -0.75200
O 	O 	0.20574 0.34713 0.99147 -0.43300
O 	O 	0.10324 0.34871 0.90542 -0.40800
O 	O 	0.22128 0.38792 0.91609 -0.40500
O 	O 	0.07165 0.39391 0.92348 -0.38500
C 	C 	0.18376 0.44139 0.10763 0.27900
C 	C 	0.12653 0.51810 0.96585 0.30200
C 	C 	0.27283 0.49844 0.99492 0.31000
C 	C 	0.15716 0.42483 0.80936 0.27600
Zn	Zn	0.18384 0.47578 0.49804 1.22400
Zn	Zn	0.12877 0.46354 0.38890 1.19800
C 	C 	0.21997 0.35308 0.44982 0.30000
Zn	Zn	0.16819 0.40159 0.41997 1.22200
Zn	Zn	0.20386 0.39803 0.53217 1.19900
H 	H 	0.21617 0.49073 0.40307 0.18500
C 	C 	0.06563 0.35680 0.42593 0.27900
O 	O 	0.22688 0.44170 0.58642 -0.43700
O 	O 	0.17828 0.47156 0.57668 -0.37300
O 	O 	0.18548 0.46848 0.42129 -0.78900
O 	O 	0.11041 0.49914 0.43154 -0.42200
O 	O 	0.25447 0.51421 0.49960 -0.41500
O 	O 	0.15356 0.51417 0.50154 -0.39800
O 	O 	0.26570 0.45244 0.48630 -0.38800
O 	O 	0.11618 0.42351 0.33210 -0.43600
H 	H 	0.12360 0.38689 0.51084 0.19100
O 	O 	0.17565 0.40740 0.34162 -0.37000
O 	O 	0.15643 0.40639 0.49599 -0.79100
O 	O 	0.20336 0.34676 0.49552 -0.44500
O 	O 	0.10046 0.34985 0.41472 -0.41000
O 	O 	0.21725 0.38305 0.41785 -0.40500
O 	O 	0.07517 0.40022 0.43265 -0.39400
C 	C 	0.20083 0.45694 0.60549 0.27900
C 	C 	0.13956 0.52945 0.46309 0.26900
C 	C 	0.28197 0.49865 0.48509 0.27500
C 	C 	0.14880 0.41662 0.31294 0.27600
C 	C 	0.19301 0.45314 0.65901 0.03800
N 	N 	0.15893 0.45979 0.67842 -0.05700
N 	N 	0.14699 0.45005 0.72644 -0.06300
C 	C 	0.16870 0.43324 0.75635 0.04100
N 	N 	0.20341 0.42740 0.73717 -0.05600
N 	N 	0.21516 0.43688 0.68906 -0.06100
C 	C 	0.15604 0.42045 0.25940 0.04000
N 	N 	0.19102 0.41555 0.23929 -0.05700
N 	N 	0.20062 0.42334 0.19076 -0.06200
C 	C 	0.17586 0.43673 0.16112 0.03600
N 	N 	0.14082 0.44155 0.18121 -0.05800
N 	N 	0.13118 0.43371 0.22974 -0.06300
C 	C 	0.92733 0.24074 0.45802 0.04500
N 	N 	0.93811 0.28602 0.46360 -0.06100
N 	N 	0.98205 0.32306 0.45235 -0.05500
C 	C 	0.01675 0.31587 0.43594 0.04300
N 	N 	0.00589 0.27057 0.42967 -0.05700
N 	N 	0.96176 0.23346 0.44070 -0.05400
C 	C 	0.92685 0.23927 0.94597 0.04200
N 	N 	0.96409 0.23997 0.96869 -0.05200
N 	N 	0.00911 0.27434 0.95617 -0.06300
C 	C 	0.01807 0.30916 0.92095 0.05300
N 	N 	0.98090 0.30766 0.89737 -0.05400
N 	N 	0.93598 0.27296 0.90934 -0.04700
C 	C 	0.73772 0.15460 0.79002 0.04500
N 	N 	0.77937 0.19094 0.76878 -0.05500
N 	N 	0.78346 0.20004 0.71996 -0.05900
C 	C 	0.74594 0.17325 0.69098 0.04200
N 	N 	0.70393 0.13744 0.71230 -0.05600
N 	N 	0.69981 0.12837 0.76121 -0.05900
C 	C 	0.75694 0.15007 0.19679 0.03900
N 	N 	0.71425 0.11688 0.21900 -0.05800
N 	N 	0.71164 0.10432 0.26698 -0.06300
C 	C 	0.75169 0.12439 0.29410 0.03700
N 	N 	0.79455 0.15711 0.27173 -0.05800
N 	N 	0.79719 0.16954 0.22365 -0.06200
C 	C 	0.33050 0.53329 0.46567 0.04800
N 	N 	0.33841 0.57150 0.43627 -0.06600
N 	N 	0.38289 0.60788 0.42592 -0.05700
C 	C 	0.42085 0.60745 0.44516 0.04200
N 	N 	0.41313 0.56837 0.47301 -0.05700
N 	N 	0.36851 0.53168 0.48300 -0.05700
C 	C 	0.62901 0.90153 0.53492 0.05000
N 	N 	0.66989 0.91982 0.50668 -0.06500
N 	N 	0.69310 0.96542 0.48917 -0.05800
C 	C 	0.67586 0.99380 0.49929 0.04700
N 	N 	0.63631 0.97606 0.52934 -0.05500
N 	N 	0.61323 0.93064 0.54683 -0.05400
C 	C 	0.32174 0.53784 0.98203 0.04400
N 	N 	0.32945 0.58126 0.96670 -0.05700
N 	N 	0.37382 0.61921 0.96173 -0.05300
C 	C 	0.41189 0.61504 0.97240 0.05000
N 	N 	0.40442 0.57139 0.98674 -0.05200
N 	N 	0.35986 0.53327 0.99161 -0.05000
C 	C 	0.66626 0.91251 0.99035 0.10300
N 	N 	0.70266 0.94818 0.01454 -0.09300
N 	N 	0.72358 0.99343 0.99649 -0.05000
C 	C 	0.70852 0.00419 0.95388 0.04900
N 	N 	0.67567 0.96803 0.92728 -0.05300
N 	N 	0.65479 0.92285 0.94528 -0.06400
C 	C 	0.53867 0.74757 0.70394 0.04400
N 	N 	0.54947 0.71683 0.72664 -0.05600
N 	N 	0.54759 0.71128 0.77583 -0.06100
C 	C 	0.53499 0.73642 0.80362 0.04900
N 	N 	0.52416 0.76713 0.78090 -0.05300
N 	N 	0.52567 0.77241 0.73171 -0.05600
C 	C 	0.59035 0.78647 0.19995 0.03800
N 	N 	0.57537 0.80948 0.22808 -0.06200
N 	N 	0.56698 0.79849 0.27654 -0.05600
C 	C 	0.57289 0.76388 0.29810 0.04500
N 	N 	0.58907 0.74175 0.27024 -0.06200
N 	N 	0.59762 0.75285 0.22182 -0.05700
C 	C 	0.83804 0.40165 0.48909 0.04000
N 	N 	0.86768 0.39121 0.51394 -0.05700
N 	N 	0.85669 0.34607 0.52022 -0.05700
C 	C 	0.81530 0.31006 0.50271 0.04500
N 	N 	0.78653 0.32063 0.47645 -0.06500
N 	N 	0.79800 0.36583 0.46928 -0.06100
C 	C 	0.70121 0.63068 0.55625 0.05000
N 	N 	0.65266 0.60339 0.55994 -0.05300
N 	N 	0.62664 0.62367 0.55692 -0.05400
C 	C 	0.64843 0.67189 0.55086 0.04700
N 	N 	0.69693 0.69939 0.55206 -0.06600
N 	N 	0.72299 0.67904 0.55461 -0.06700
C 	C 	0.83652 0.39812 0.99545 0.06200
N 	N 	0.79402 0.36136 0.98084 -0.06100
N 	N 	0.78202 0.31626 0.99078 -0.04500
C 	C 	0.81259 0.30667 0.01476 0.01600
N 	N 	0.85599 0.34339 0.02742 -0.05700
N 	N 	0.86755 0.38850 0.01847 -0.07600
C 	C 	0.64713 0.66784 0.04636 0.03800
N 	N 	0.62401 0.61950 0.04684 -0.05900
N 	N 	0.64854 0.59774 0.05113 -0.06000
C 	C 	0.69695 0.62371 0.05420 0.05300
N 	N 	0.71944 0.67166 0.05834 -0.07000
N 	N 	0.69482 0.69345 0.05457 -0.06300
C 	C 	0.78689 0.53239 0.81542 0.05100
N 	N 	0.77450 0.55746 0.78386 -0.05800
N 	N 	0.77757 0.55554 0.73484 -0.05500
C 	C 	0.79354 0.52880 0.71563 0.05100
N 	N 	0.80571 0.50348 0.74717 -0.05800
N 	N 	0.80243 0.50524 0.79627 -0.05500
C 	C 	0.78802 0.53608 0.31537 0.04900
N 	N 	0.77722 0.56187 0.28296 -0.05900
N 	N 	0.78010 0.55884 0.23410 -0.05600
C 	C 	0.79433 0.53028 0.21594 0.05000
N 	N 	0.80504 0.50438 0.24834 -0.06000
N 	N 	0.80185 0.50716 0.29725 -0.05600
C 	C 	0.44742 0.82295 0.45298 0.04700
N 	N 	0.45509 0.86127 0.47731 -0.05800
N 	N 	0.42608 0.87795 0.47138 -0.05800
C 	C 	0.38852 0.85674 0.44098 0.04200
N 	N 	0.38311 0.82078 0.41375 -0.06100
N 	N 	0.41207 0.80399 0.41982 -0.06000
C 	C 	0.16498 0.66707 0.44540 0.04700
N 	N 	0.19874 0.65959 0.46498 -0.06500
N 	N 	0.18937 0.61523 0.47385 -0.06500
C 	C 	0.14630 0.57714 0.46255 0.04400
N 	N 	0.11223 0.58462 0.44381 -0.05500
N 	N 	0.12126 0.62896 0.43591 -0.05600
C 	C 	0.95069 0.63284 0.50745 0.04500
N 	N 	0.96099 0.65972 0.46436 -0.06400
N 	N 	0.00272 0.70094 0.45750 -0.06400
C 	C 	0.03562 0.71627 0.49332 0.04200
N 	N 	0.02494 0.68984 0.53691 -0.05100
N 	N 	0.98285 0.64884 0.54403 -0.05400
C 	C 	0.39377 0.85992 0.94768 0.04700
N 	N 	0.39611 0.82733 0.92093 -0.05600
N 	N 	0.43010 0.81738 0.92927 -0.05400
C 	C 	0.46243 0.83951 0.96478 0.04200
N 	N 	0.46200 0.87434 0.98906 -0.05100
N 	N 	0.42831 0.88456 0.98046 -0.05700
C 	C 	0.15909 0.65820 0.95176 0.05300
N 	N 	0.19062 0.64802 0.97244 -0.05900
N 	N 	0.17863 0.60272 0.98074 -0.05900
C 	C 	0.13514 0.56638 0.96773 0.04100
N 	N 	0.10319 0.57658 0.94816 -0.05000
N 	N 	0.11479 0.62184 0.94087 -0.05300
C 	C 	0.03533 0.71468 0.99094 0.06500
N 	N 	0.02440 0.68974 0.03551 -0.07000
N 	N 	0.98232 0.64888 0.04340 -0.05500
C 	C 	0.95037 0.63155 0.00672 0.02300
N 	N 	0.96082 0.65707 0.96268 -0.04500
N 	N 	0.00257 0.69814 0.95499 -0.06200
C 	C 	0.22049 0.82253 0.66435 0.04100
N 	N 	0.17905 0.78617 0.68596 -0.05500
N 	N 	0.17694 0.77410 0.73400 -0.06000
C 	C 	0.21638 0.79764 0.76158 0.03900
N 	N 	0.25800 0.83357 0.73979 -0.05600
N 	N 	0.26006 0.84574 0.69179 -0.06200
C 	C 	0.21864 0.83105 0.16165 0.03900
N 	N 	0.17744 0.79507 0.18404 -0.05700
N 	N 	0.17541 0.78498 0.23254 -0.06100
C 	C 	0.21470 0.81022 0.25989 0.03900
N 	N 	0.25594 0.84617 0.23750 -0.05700
N 	N 	0.25794 0.85632 0.18900 -0.06300
C 	C 	0.54888 0.35875 0.50548 0.04500
N 	N 	0.55965 0.39553 0.47217 -0.05800
N 	N 	0.60336 0.43492 0.47007 -0.05800
C 	C 	0.63716 0.43871 0.50162 0.04900
N 	N 	0.62628 0.40197 0.53493 -0.06500
N 	N 	0.58297 0.36228 0.53637 -0.05500
C 	C 	0.50864 0.13927 0.50814 0.05000
N 	N 	0.50367 0.09927 0.49001 -0.05600
N 	N 	0.53930 0.09106 0.49283 -0.05400
C 	C 	0.58102 0.12269 0.51371 0.04900
N 	N 	0.58385 0.15976 0.53674 -0.06000
N 	N 	0.54815 0.16798 0.53394 -0.05900
C 	C 	0.29986 0.06401 0.46620 0.04700
N 	N 	0.26735 0.03083 0.43659 -0.05800
N 	N 	0.24400 0.98451 0.45126 -0.06700
C 	C 	0.25254 0.97020 0.49591 0.05000
N 	N 	0.28127 0.00381 0.52736 -0.05800
N 	N 	0.30482 0.05003 0.51262 -0.06100
C 	C 	0.30721 0.29781 0.43783 0.04500
N 	N 	0.25890 0.26792 0.44165 -0.06600
N 	N 	0.23044 0.28556 0.44205 -0.06100
C 	C 	0.24944 0.33353 0.43738 0.04400
N 	N 	0.29761 0.36328 0.43109 -0.05500
N 	N 	0.32614 0.34570 0.43180 -0.05400
C 	C 	0.39433 0.20220 0.76720 0.04000
N 	N 	0.40542 0.17569 0.73978 -0.05900
N 	N 	0.41443 0.18571 0.69128 -0.05500
C 	C 	0.41322 0.22291 0.66899 0.04500
N 	N 	0.40185 0.24924 0.69634 -0.06200
N 	N 	0.39266 0.23910 0.74481 -0.05600
C 	C 	0.40830 0.21926 0.16953 0.04300
N 	N 	0.39710 0.24572 0.19689 -0.06400
N 	N 	0.38839 0.23592 0.24545 -0.05800
C 	C 	0.39045 0.19926 0.26794 0.03900
N 	N 	0.40120 0.17252 0.24049 -0.06000
N 	N 	0.40969 0.18219 0.19189 -0.05600
C 	C 	0.63730 0.43399 0.00169 0.02900
N 	N 	0.60335 0.43074 0.97070 -0.03900
N 	N 	0.55926 0.39193 0.97348 -0.04000
C 	C 	0.54821 0.35517 0.00694 0.02400
N 	N 	0.58245 0.35807 0.03718 -0.05700
N 	N 	0.62619 0.39722 0.03507 -0.06700
C 	C 	0.50367 0.13480 0.01048 -0.01800
N 	N 	0.49949 0.09561 0.99112 -0.03400
N 	N 	0.53337 0.08529 0.99788 -0.04200
C 	C 	0.57261 0.11403 0.02397 0.02400
N 	N 	0.57492 0.15104 0.04664 -0.06300
N 	N 	0.54088 0.16126 0.03999 -0.05700
C 	C 	0.29720 0.06265 0.95928 0.07500
N 	N 	0.26930 0.03013 0.92649 -0.05900
N 	N 	0.24591 0.98348 0.93961 -0.06400
C 	C 	0.24965 0.96813 0.98591 0.07000
N 	N 	0.27370 0.00085 0.01991 -0.07700
N 	N 	0.29737 0.04743 0.00673 -0.08300
C 	C 	0.31165 0.30233 0.93404 0.04800
N 	N 	0.33105 0.35019 0.93572 -0.05300
N 	N 	0.30304 0.36835 0.93454 -0.05300
C 	C 	0.25478 0.33911 0.93246 0.04800
N 	N 	0.23557 0.29146 0.92885 -0.05900
N 	N 	0.26367 0.27339 0.92907 -0.06000
