data_crystal

_cell_length_a 41.79733
_cell_length_b 46.06696
_cell_length_c 28.96669
_cell_angle_alpha 89.96142
_cell_angle_beta  89.96217
_cell_angle_gamma 89.85214

_symmetry_space_group_name_	'P 1'
_symmetry_space_group_name_H-M	'P 1'

loop_
_symmetry_equiv_pos_as_xyz
  x,y,z

loop_
_atom_site_label
_atom_site_type_symbol
_atom_site_fract_x
_atom_site_fract_y
_atom_site_fract_z
_atom_site_charge
C 	C 	0.52068 0.52700 0.93906 0.01500
C 	C 	0.53499 0.49908 0.94356 0.01800
C 	C 	0.48873 0.52953 0.92446 -0.05000
C 	C 	0.47050 0.50449 0.91604 0.01400
C 	C 	0.51682 0.47405 0.93489 -0.05300
C 	C 	0.48450 0.47656 0.92208 0.01700
H 	H 	0.52802 0.45284 0.93647 0.05800
H 	H 	0.47853 0.55080 0.91807 0.05600
C 	C 	0.46582 0.45175 0.91281 -0.01400
C 	C 	0.43329 0.45403 0.90133 0.01300
C 	C 	0.41561 0.42837 0.91113 -0.05100
C 	C 	0.43434 0.40668 0.93158 0.00300
S 	S 	0.47176 0.41904 0.93601 0.01400
H 	H 	0.39075 0.42535 0.90194 0.05100
C 	C 	0.43868 0.50636 0.89980 -0.01100
C 	C 	0.41969 0.48152 0.89442 0.01200
C 	C 	0.38627 0.48756 0.89543 -0.04900
C 	C 	0.37959 0.51717 0.90120 0.00400
S 	S 	0.41425 0.53469 0.90728 0.00800
H 	H 	0.36797 0.47098 0.89597 0.05200
C 	C 	0.57124 0.54947 0.96301 0.01100
C 	C 	0.53961 0.55183 0.94724 -0.01200
S 	S 	0.52554 0.58401 0.96416 0.00800
C 	C 	0.55832 0.59607 0.99075 0.00300
C 	C 	0.58202 0.57465 0.98676 -0.05000
C 	C 	0.56781 0.49728 0.95487 -0.01400
C 	C 	0.58544 0.52199 0.96667 0.01400
C 	C 	0.61320 0.51565 0.99326 -0.05400
C 	C 	0.61655 0.48598 0.00305 0.00500
S 	S 	0.58600 0.46857 0.97837 0.01500
H 	H 	0.63072 0.53174 0.00316 0.05300
H 	H 	0.60627 0.57754 0.99899 0.05300
C 	C 	0.41227 0.31619 0.93830 0.04400
C 	C 	0.39127 0.33665 0.95759 -0.03100
C 	C 	0.39807 0.36629 0.95431 -0.02800
C 	C 	0.42586 0.37566 0.93158 0.01800
C 	C 	0.44607 0.35518 0.91048 -0.02700
C 	C 	0.43935 0.32558 0.91398 -0.03600
H 	H 	0.37013 0.32956 0.97606 0.06400
H 	H 	0.38216 0.38192 0.97034 0.05100
H 	H 	0.46709 0.36216 0.89165 0.05100
H 	H 	0.45548 0.30990 0.89853 0.05900
C 	C 	0.28948 0.55154 0.94593 0.04700
C 	C 	0.30066 0.52515 0.96400 -0.03800
C 	C 	0.33014 0.51390 0.94966 -0.02800
C 	C 	0.34859 0.52892 0.91688 0.01700
C 	C 	0.33749 0.55547 0.89921 -0.02600
C 	C 	0.30809 0.56676 0.91375 -0.03300
H 	H 	0.28654 0.51341 0.98918 0.06000
H 	H 	0.33874 0.49371 0.96434 0.04800
H 	H 	0.35155 0.56726 0.87401 0.05300
H 	H 	0.29970 0.58726 0.89988 0.06500
C 	C 	0.70595 0.44349 0.02877 0.04900
C 	C 	0.70390 0.46523 0.99500 -0.03700
C 	C 	0.67481 0.47934 0.98681 -0.02800
C 	C 	0.64753 0.47189 0.01255 0.01800
C 	C 	0.64963 0.45015 0.04637 -0.02600
C 	C 	0.67878 0.43608 0.05459 -0.03300
H 	H 	0.72479 0.47103 0.97487 0.06100
H 	H 	0.67337 0.49575 0.96008 0.05000
H 	H 	0.62870 0.44416 0.06626 0.05300
H 	H 	0.68020 0.41933 0.08078 0.06500
C 	C 	0.57261 0.68762 0.99921 0.04500
C 	C 	0.55218 0.67365 0.03053 -0.03700
C 	C 	0.54846 0.64353 0.02883 -0.02700
C 	C 	0.56526 0.62714 0.99601 0.01500
C 	C 	0.58649 0.64101 0.96562 -0.02800
C 	C 	0.59008 0.67116 0.96715 -0.03300
H 	H 	0.53859 0.68622 0.05536 0.06000
H 	H 	0.53200 0.63301 0.05237 0.05100
H 	H 	0.59940 0.62856 0.93989 0.05100
H 	H 	0.60580 0.68180 0.94270 0.06600
Zn	Zn	0.37994 0.13587 0.97357 1.22300
C 	C 	0.40776 0.19246 0.95716 0.34800
O 	O 	0.38422 0.11422 0.91514 -0.43400
O 	O 	0.43565 0.18085 0.96720 -0.43700
O 	O 	0.42446 0.14210 0.88698 -0.45400
C 	C 	0.43131 0.12903 0.03796 0.30200
O 	O 	0.40356 0.14165 0.03089 -0.42100
O 	O 	0.44834 0.11976 0.00286 -0.47600
C 	C 	0.40053 0.12436 0.87994 0.29600
O 	O 	0.35789 0.09396 0.00832 -0.29000
Zn	Zn	0.44843 0.14023 0.94416 1.17800
O 	O 	0.38269 0.17586 0.94991 -0.40800
C 	C 	0.33091 0.10790 0.00604 0.31000
O 	O 	0.33231 0.13342 0.98742 -0.36600
C 	C 	0.51040 0.03420 0.43803 0.01900
C 	C 	0.52981 0.00884 0.43836 0.01800
C 	C 	0.48214 0.03510 0.46434 -0.05200
C 	C 	0.47334 0.01118 0.49165 0.01900
C 	C 	0.52111 0.98498 0.46587 -0.05200
C 	C 	0.49313 0.98606 0.49279 0.01800
H 	H 	0.53607 0.96574 0.46642 0.05900
H 	H 	0.46719 0.05433 0.46370 0.05900
C 	C 	0.48379 0.96230 0.52048 -0.01500
C 	C 	0.45684 0.96383 0.54935 0.01300
C 	C 	0.45806 0.94373 0.58677 -0.03400
C 	C 	0.48608 0.92700 0.58712 -0.01400
S 	S 	0.50882 0.93780 0.54297 0.03700
H 	H 	0.44116 0.94365 0.61505 0.05700
C 	C 	0.44489 0.01149 0.51802 -0.01500
C 	C 	0.43739 0.98875 0.54843 0.01300
C 	C 	0.41679 0.99747 0.58524 -0.03400
C 	C 	0.40856 0.02699 0.58353 -0.01400
S 	S 	0.42723 0.04143 0.53805 0.03700
H 	H 	0.41139 0.98391 0.61468 0.05800
C 	C 	0.54764 0.05720 0.38362 0.01400
C 	C 	0.52028 0.05837 0.41171 -0.01600
S 	S 	0.49550 0.08293 0.38889 0.03900
C 	C 	0.51855 0.09415 0.34535 -0.01400
C 	C 	0.54685 0.07777 0.34680 -0.03400
C 	C 	0.55800 0.00831 0.41147 -0.01500
C 	C 	0.56651 0.03184 0.38314 0.01300
C 	C 	0.58625 0.02354 0.34515 -0.03400
C 	C 	0.59200 0.99358 0.34276 -0.01300
S 	S 	0.57316 0.97839 0.38742 0.03700
H 	H 	0.59298 0.03818 0.31767 0.05900
H 	H 	0.56444 0.07848 0.31947 0.05900
Zn	Zn	0.60394 0.86733 0.96878 1.22300
C 	C 	0.57437 0.81231 0.98958 0.34800
O 	O 	0.58425 0.88031 0.91027 -0.42600
O 	O 	0.55226 0.82742 0.01129 -0.41900
O 	O 	0.53895 0.85371 0.91955 -0.44500
C 	C 	0.57528 0.88868 0.05123 0.30000
O 	O 	0.59732 0.87113 0.03511 -0.42800
O 	O 	0.54911 0.89336 0.02743 -0.47400
C 	C 	0.55880 0.86781 0.89269 0.29000
O 	O 	0.63181 0.91174 0.97294 -0.31200
Zn	Zn	0.53326 0.86491 0.98345 1.18100
O 	O 	0.59590 0.82546 0.96395 -0.41800
C 	C 	0.65683 0.89660 0.96158 0.30900
O 	O 	0.65187 0.86909 0.95584 -0.34800
Zn	Zn	0.11926 0.62792 0.03525 1.22400
C 	C 	0.08969 0.68428 0.04808 0.34700
O 	O 	0.11569 0.60734 0.09483 -0.42600
O 	O 	0.06207 0.67190 0.03931 -0.43600
O 	O 	0.07476 0.63509 0.12155 -0.45400
C 	C 	0.06792 0.61886 0.97152 0.29900
O 	O 	0.09542 0.63199 0.97768 -0.42600
O 	O 	0.05138 0.60985 0.00723 -0.47700
C 	C 	0.09892 0.61765 0.12949 0.29600
O 	O 	0.14257 0.58574 0.00273 -0.30600
Zn	Zn	0.05064 0.63155 0.06474 1.17800
O 	O 	0.11521 0.66836 0.05660 -0.40300
C 	C 	0.16921 0.60005 0.00538 0.30800
O 	O 	0.16700 0.62616 0.02155 -0.34600
C 	C 	0.98340 0.52693 0.57057 0.01900
C 	C 	0.96323 0.50216 0.56961 0.01800
C 	C 	0.01157 0.52735 0.54406 -0.05200
C 	C 	0.01957 0.50356 0.51594 0.01900
C 	C 	0.97118 0.47837 0.54140 -0.05100
C 	C 	0.99908 0.47900 0.51428 0.01800
H 	H 	0.95567 0.45957 0.54044 0.05900
H 	H 	0.02708 0.54614 0.54514 0.05900
C 	C 	0.00769 0.45531 0.48591 -0.01500
C 	C 	0.03459 0.45642 0.45691 0.01300
C 	C 	0.03279 0.43671 0.41909 -0.03400
C 	C 	0.00438 0.42068 0.41860 -0.01300
S 	S 	0.98199 0.43166 0.46308 0.03700
H 	H 	0.04963 0.43643 0.39075 0.05800
C 	C 	0.04792 0.50340 0.48934 -0.01600
C 	C 	0.05471 0.48080 0.45831 0.01300
C 	C 	0.07547 0.48936 0.42163 -0.03400
C 	C 	0.08454 0.51860 0.42409 -0.01400
S 	S 	0.06634 0.53307 0.46998 0.03800
H 	H 	0.08039 0.47599 0.39178 0.05800
C 	C 	0.94686 0.55042 0.62558 0.01300
C 	C 	0.97430 0.55105 0.59761 -0.01600
S 	S 	0.99991 0.57441 0.62136 0.03800
C 	C 	0.97722 0.58574 0.66526 -0.01400
C 	C 	0.94835 0.57038 0.66315 -0.03400
C 	C 	0.93498 0.50222 0.59636 -0.01500
C 	C 	0.92709 0.52573 0.62512 0.01300
C 	C 	0.90670 0.51774 0.66251 -0.03400
C 	C 	0.89985 0.48797 0.66406 -0.01400
S 	S 	0.91863 0.47255 0.61945 0.03700
H 	H 	0.90012 0.53237 0.69010 0.05900
H 	H 	0.93076 0.57126 0.69049 0.05900
Zn	Zn	0.88291 0.36164 0.03906 1.22300
C 	C 	0.91315 0.30695 0.01689 0.35000
O 	O 	0.90300 0.37435 0.09739 -0.42400
O 	O 	0.93482 0.32239 0.99504 -0.42100
O 	O 	0.94848 0.34798 0.08707 -0.44400
C 	C 	0.91081 0.38369 0.95649 0.30100
O 	O 	0.88893 0.36606 0.97263 -0.42800
O 	O 	0.93694 0.38845 0.98028 -0.47500
C 	C 	0.92872 0.36187 0.11442 0.28900
O 	O 	0.85439 0.40592 0.03631 -0.29300
Zn	Zn	0.95360 0.35972 0.02331 1.18200
O 	O 	0.89158 0.31976 0.04300 -0.42100
C 	C 	0.82980 0.39052 0.04833 0.31000
O 	O 	0.83512 0.36299 0.05329 -0.36600
C 	C 	0.01373 0.97086 0.06234 0.01600
C 	C 	0.02833 0.99873 0.06282 0.01600
C 	C 	0.98050 0.96845 0.05596 -0.05200
C 	C 	0.96178 0.99347 0.04911 0.01600
C 	C 	0.00948 0.02379 0.05729 -0.05100
C 	C 	0.97636 0.02134 0.04994 0.01600
H 	H 	0.02030 0.04504 0.06034 0.05700
H 	H 	0.96915 0.94737 0.05797 0.05600
C 	C 	0.95676 0.04620 0.04539 -0.01200
C 	C 	0.92399 0.04392 0.03582 0.01300
C 	C 	0.91094 0.06930 0.01494 -0.05000
C 	C 	0.93392 0.09085 0.00703 0.00300
S 	S 	0.96898 0.07857 0.02668 0.01100
H 	H 	0.88575 0.07227 0.00770 0.05400
C 	C 	0.92826 0.99170 0.04352 -0.01200
C 	C 	0.90965 0.01648 0.03476 0.01400
C 	C 	0.88011 0.01023 0.01256 -0.04900
C 	C 	0.87633 0.98064 0.00295 0.00600
S 	S 	0.90865 0.96307 0.02259 0.00900
H 	H 	0.86190 0.02635 0.00540 0.05400
C 	C 	0.06638 0.94821 0.07404 0.01300
C 	C 	0.03300 0.94612 0.07023 -0.01300
S 	S 	0.02433 0.91248 0.05311 0.01200
C 	C 	0.06169 0.89949 0.05095 0.00400
C 	C 	0.08257 0.92174 0.06394 -0.05000
C 	C 	0.06162 0.00062 0.07074 -0.01300
C 	C 	0.08082 0.97562 0.07408 0.01300
C 	C 	0.11354 0.98074 0.06317 -0.05000
C 	C 	0.11928 0.00949 0.05012 0.00400
S 	S 	0.08489 0.02792 0.05323 0.01300
H 	H 	0.13208 0.96435 0.06502 0.05000
H 	H 	0.10812 0.91869 0.06762 0.05000
C 	C 	0.91752 0.18240 0.00400 0.04700
C 	C 	0.93680 0.16925 0.97029 -0.03800
C 	C 	0.94123 0.13917 0.97036 -0.02900
C 	C 	0.92629 0.12198 0.00400 0.01900
C 	C 	0.90625 0.13506 0.03695 -0.02900
C 	C 	0.90193 0.16517 0.03697 -0.03200
H 	H 	0.94895 0.18242 0.94474 0.06000
H 	H 	0.95676 0.12927 0.94484 0.05200
H 	H 	0.89483 0.12203 0.06336 0.05200
H 	H 	0.88711 0.17517 0.06325 0.06500
C 	C 	0.78411 0.94264 0.98144 0.04600
C 	C 	0.79450 0.96554 0.95333 -0.03700
C 	C 	0.82483 0.97759 0.95991 -0.02700
C 	C 	0.84500 0.96686 0.99475 0.01500
C 	C 	0.83470 0.94361 0.02245 -0.02400
C 	C 	0.80448 0.93144 0.01556 -0.03100
H 	H 	0.77894 0.97424 0.92678 0.06100
H 	H 	0.83258 0.99536 0.93814 0.04900
H 	H 	0.84977 0.93535 0.04990 0.05200
H 	H 	0.79663 0.91370 0.03733 0.06500
C 	C 	0.21103 0.04973 0.03704 0.04500
C 	C 	0.20498 0.02315 0.01520 -0.03100
C 	C 	0.17519 0.00977 0.02017 -0.02800
C 	C 	0.15125 0.02284 0.04716 0.01800
C 	C 	0.15771 0.04904 0.07013 -0.02700
C 	C 	0.18747 0.06243 0.06500 -0.03500
H 	H 	0.22314 0.01315 0.99372 0.06100
H 	H 	0.17050 0.98957 0.00234 0.05100
H 	H 	0.13972 0.05903 0.09191 0.05100
H 	H 	0.19208 0.08285 0.08226 0.06100
C 	C 	0.08344 0.80863 0.05195 0.04500
C 	C 	0.10317 0.82802 0.02784 -0.03100
C 	C 	0.09634 0.85776 0.02817 -0.02700
C 	C 	0.06988 0.86834 0.05291 0.01800
C 	C 	0.05094 0.84900 0.07856 -0.02700
C 	C 	0.05763 0.81927 0.07789 -0.03700
H 	H 	0.12332 0.81998 0.00804 0.06500
H 	H 	0.11124 0.87249 0.00851 0.05100
H 	H 	0.03102 0.85693 0.09892 0.05000
H 	H 	0.04250 0.80445 0.09700 0.05800
C 	C 	0.91606 0.21430 0.00736 -0.00500
C 	C 	0.88905 0.22973 0.99165 0.13800
C 	C 	0.88814 0.26004 0.99531 -0.01900
C 	C 	0.91416 0.27512 0.01412 -0.11100
C 	C 	0.94104 0.25963 0.03019 0.20600
C 	C 	0.94190 0.22938 0.02661 -0.09700
H 	H 	0.86737 0.27187 0.98304 0.07800
H 	H 	0.96260 0.21753 0.03908 0.08800
Cl	Cl	0.85644 0.21142 0.96666 -0.30200
Cl	Cl	0.97333 0.27776 0.05646 -0.33300
C 	C 	0.89242 0.44386 0.78930 0.10200
N 	N 	0.89348 0.47328 0.78843 -0.06500
N 	N 	0.89412 0.48741 0.74835 -0.07700
C 	C 	0.89424 0.47254 0.70789 0.12100
N 	N 	0.89211 0.44312 0.70871 -0.07400
N 	N 	0.89112 0.42898 0.74889 -0.06500
C 	C 	0.90526 0.39953 0.91339 0.04300
N 	N 	0.88736 0.38762 0.87921 -0.05000
N 	N 	0.88325 0.40174 0.83943 -0.06500
C 	C 	0.89642 0.42837 0.83316 0.10600
N 	N 	0.91392 0.44040 0.86760 -0.06600
N 	N 	0.91852 0.42607 0.90698 -0.05300
C 	C 	0.96796 0.38743 0.29559 0.10200
N 	N 	0.99919 0.38342 0.30677 -0.06500
N 	N 	0.01064 0.39355 0.34651 -0.07500
C 	C 	0.99113 0.40776 0.37642 0.12100
N 	N 	0.95971 0.41124 0.36573 -0.07400
N 	N 	0.94832 0.40133 0.32576 -0.06400
C 	C 	0.93715 0.36597 0.16314 0.04600
N 	N 	0.91831 0.38236 0.19112 -0.04700
N 	N 	0.92760 0.38840 0.23408 -0.06300
C 	C 	0.95606 0.37830 0.25016 0.10500
N 	N 	0.97454 0.36140 0.22248 -0.06600
N 	N 	0.96519 0.35528 0.17964 -0.05200
C 	C 	0.09211 0.71612 0.04711 -0.11000
C 	C 	0.10311 0.73159 0.08595 0.20100
C 	C 	0.10164 0.76195 0.08630 -0.09500
C 	C 	0.08887 0.77707 0.04849 -0.00700
C 	C 	0.07875 0.76165 0.00918 0.14000
C 	C 	0.08058 0.73134 0.00859 -0.02100
H 	H 	0.10946 0.77376 0.11659 0.08800
H 	H 	0.07225 0.71955 0.97854 0.07900
Cl	Cl	0.11684 0.71323 0.13554 -0.29600
Cl	Cl	0.06243 0.77997 0.96123 -0.30700
C 	C 	0.01585 0.60835 0.79289 0.10200
N 	N 	0.98368 0.60655 0.78733 -0.06500
N 	N 	0.97130 0.60072 0.74604 -0.07600
C 	C 	0.99072 0.59626 0.70912 0.12200
N 	N 	0.02287 0.59908 0.71431 -0.07400
N 	N 	0.03526 0.60505 0.75563 -0.06400
C 	C 	0.05466 0.61579 0.92495 0.04200
N 	N 	0.07318 0.62075 0.88722 -0.04900
N 	N 	0.06080 0.61845 0.84495 -0.06400
C 	C 	0.02948 0.61152 0.83932 0.10600
N 	N 	0.01098 0.60673 0.87707 -0.06700
N 	N 	0.02342 0.60873 0.91926 -0.05800
C 	C 	0.10688 0.58155 0.26068 0.10600
N 	N 	0.12245 0.56931 0.22440 -0.06400
N 	N 	0.12127 0.58167 0.18281 -0.04800
C 	C 	0.10428 0.60650 0.17627 0.04700
N 	N 	0.08946 0.61916 0.21282 -0.05000
N 	N 	0.09086 0.60693 0.25447 -0.06500
C 	C 	0.09346 0.53574 0.38318 0.12100
N 	N 	0.10749 0.52267 0.34633 -0.07600
N 	N 	0.11304 0.53764 0.30777 -0.06500
C 	C 	0.10470 0.56610 0.30495 0.10200
N 	N 	0.09154 0.57937 0.34227 -0.06500
N 	N 	0.08615 0.56444 0.38090 -0.07500
C 	C 	0.68939 0.90852 0.96596 -0.09200
C 	C 	0.71348 0.90143 0.93372 0.19700
C 	C 	0.74439 0.91256 0.93921 -0.09100
C 	C 	0.75144 0.93107 0.97622 -0.01100
C 	C 	0.72724 0.93864 0.00784 0.14400
C 	C 	0.69647 0.92727 0.00273 -0.02800
H 	H 	0.76288 0.90698 0.91448 0.08800
H 	H 	0.67806 0.93290 0.02756 0.08700
Cl	Cl	0.70496 0.87986 0.88506 -0.29200
Cl	Cl	0.73502 0.96280 0.05359 -0.30300
C 	C 	0.52146 0.89319 0.71051 0.10200
N 	N 	0.54134 0.90712 0.68079 -0.06400
N 	N 	0.53030 0.91712 0.64063 -0.07500
C 	C 	0.49901 0.91372 0.62928 0.12100
N 	N 	0.47927 0.89944 0.65871 -0.07600
N 	N 	0.49036 0.88921 0.69865 -0.06500
C 	C 	0.55086 0.87191 0.84379 0.04600
N 	N 	0.52308 0.86119 0.82667 -0.05200
N 	N 	0.51420 0.86724 0.78357 -0.06600
C 	C 	0.53290 0.88410 0.75624 0.10500
N 	N 	0.56110 0.89423 0.77295 -0.06400
N 	N 	0.56993 0.88827 0.81617 -0.04800
C 	C 	0.59050 0.93380 0.17381 0.10700
N 	N 	0.60523 0.90789 0.16651 -0.06500
N 	N 	0.60062 0.89355 0.12710 -0.05000
C 	C 	0.58071 0.90449 0.09435 0.04200
N 	N 	0.56586 0.93027 0.10182 -0.05400
N 	N 	0.57089 0.94484 0.14083 -0.06600
C 	C 	0.59613 0.97840 0.29842 0.12200
N 	N 	0.59251 0.99310 0.25810 -0.07600
N 	N 	0.59189 0.97890 0.21810 -0.06400
C 	C 	0.59531 0.94962 0.21713 0.10300
N 	N 	0.60018 0.93499 0.25725 -0.06500
N 	N 	0.60045 0.94917 0.29738 -0.07400
C 	C 	0.30011 0.09340 0.01476 -0.08900
C 	C 	0.29523 0.07691 0.05518 0.19500
C 	C 	0.26610 0.06261 0.06205 -0.09100
C 	C 	0.24160 0.06483 0.02919 -0.00800
C 	C 	0.24626 0.08171 0.98924 0.14300
C 	C 	0.27542 0.09585 0.98217 -0.03000
H 	H 	0.26242 0.04991 0.09312 0.08700
H 	H 	0.27898 0.10855 0.95108 0.08800
Cl	Cl	0.32474 0.07511 0.09852 -0.29400
Cl	Cl	0.21562 0.08549 0.94792 -0.30300
C 	C 	0.39088 0.07377 0.70415 0.10100
N 	N 	0.38232 0.04541 0.70121 -0.06500
N 	N 	0.38696 0.03070 0.66215 -0.07700
C 	C 	0.40029 0.04393 0.62494 0.12100
N 	N 	0.40773 0.07256 0.62736 -0.07500
N 	N 	0.40324 0.08723 0.66647 -0.06500
C 	C 	0.39450 0.11322 0.83337 0.04400
N 	N 	0.40836 0.12610 0.79627 -0.04900
N 	N 	0.40596 0.11415 0.75455 -0.06500
C 	C 	0.38988 0.08885 0.74879 0.10500
N 	N 	0.37533 0.07635 0.78570 -0.06600
N 	N 	0.37751 0.08843 0.82738 -0.05200
C 	C 	0.48123 0.11909 0.21797 0.10300
N 	N 	0.46136 0.11453 0.25436 -0.06300
N 	N 	0.47329 0.10794 0.29575 -0.07400
C 	C 	0.50543 0.10574 0.30190 0.12200
N 	N 	0.52527 0.11153 0.26595 -0.07600
N 	N 	0.51335 0.11800 0.22457 -0.06500
C 	C 	0.44414 0.12656 0.08488 0.04600
N 	N 	0.47564 0.12067 0.09143 -0.05700
N 	N 	0.48754 0.11881 0.13396 -0.06600
C 	C 	0.46825 0.12256 0.17120 0.10800
N 	N 	0.43670 0.12841 0.16469 -0.06100
N 	N 	0.42485 0.13057 0.12208 -0.04300
C 	C 	0.40691 0.28491 0.94551 -0.00700
C 	C 	0.41615 0.27153 0.98716 0.13800
C 	C 	0.41489 0.24132 0.99136 -0.02400
C 	C 	0.40469 0.22419 0.95420 -0.11100
C 	C 	0.39443 0.23764 0.91303 0.20100
C 	C 	0.39541 0.26790 0.90902 -0.09500
H 	H 	0.42262 0.23108 0.02318 0.08100
H 	H 	0.38825 0.27814 0.87693 0.08800
Cl	Cl	0.43064 0.29230 0.03368 -0.30300
Cl	Cl	0.38229 0.21681 0.86517 -0.30000
C 	C 	0.19997 0.58737 0.99073 -0.09200
C 	C 	0.22720 0.58899 0.01934 0.19800
C 	C 	0.25632 0.57727 0.00434 -0.08900
C 	C 	0.25850 0.56351 0.96130 -0.01100
C 	C 	0.23115 0.56127 0.93319 0.14400
C 	C 	0.20208 0.57322 0.94796 -0.03000
H 	H 	0.27725 0.57869 0.02630 0.08800
H 	H 	0.18116 0.57164 0.92602 0.08400
Cl	Cl	0.22484 0.60418 0.07508 -0.29000
Cl	Cl	0.23289 0.54320 0.87967 -0.30400
C 	C 	0.79715 0.40258 0.04738 -0.09000
C 	C 	0.78991 0.42870 0.07050 0.19700
C 	C 	0.75977 0.44155 0.06508 -0.09000
C 	C 	0.73662 0.42849 0.03701 -0.01000
C 	C 	0.74340 0.40183 0.01531 0.14500
C 	C 	0.77353 0.38895 0.02073 -0.02800
H 	H 	0.75444 0.46185 0.08238 0.08800
H 	H 	0.77889 0.36877 0.00309 0.08500
Cl	Cl	0.81802 0.44511 0.10743 -0.29600
Cl	Cl	0.71466 0.38476 0.98022 -0.30300
C 	C 	0.57329 0.71958 0.99703 -0.00700
C 	C 	0.59953 0.73522 0.01451 0.14000
C 	C 	0.59980 0.76556 0.01166 -0.01700
C 	C 	0.57390 0.78047 0.99193 -0.11200
C 	C 	0.54774 0.76480 0.97427 0.20600
C 	C 	0.54753 0.73450 0.97699 -0.09600
H 	H 	0.62000 0.77755 0.02519 0.07900
H 	H 	0.52741 0.72251 0.96321 0.08800
Cl	Cl	0.63191 0.71710 0.04080 -0.30200
Cl	Cl	0.51559 0.78277 0.94712 -0.33400
