data_crystal

_cell_length_a 20.32449
_cell_length_b 17.78475
_cell_length_c 39.28735
_cell_angle_alpha 90.79660
_cell_angle_beta  91.35681
_cell_angle_gamma 111.12362

_symmetry_space_group_name_	'P 1'
_symmetry_space_group_name_H-M	'P 1'

loop_
_symmetry_equiv_pos_as_xyz
  x,y,z

loop_
_atom_site_label
_atom_site_type_symbol
_atom_site_fract_x
_atom_site_fract_y
_atom_site_fract_z
_atom_site_charge
Ni	Ni	0.02918 0.95584 0.75408 1.09200
O 	O 	0.01891 0.87301 0.71630 -0.71900
Ni	Ni	0.05809 0.94342 0.67723 1.09400
O 	O 	0.13057 0.96251 0.76687 -0.38000
O 	O 	0.11119 0.15083 0.77149 -0.41600
O 	O 	0.05354 0.85093 0.64440 -0.37600
O 	O 	0.05136 0.02796 0.71280 -0.68700
O 	O 	0.03500 0.03489 0.79239 -0.38300
O 	O 	0.12420 0.02210 0.64380 -0.36000
O 	O 	0.15895 0.14335 0.67158 -0.40200
Ni	Ni	0.13075 0.12948 0.72209 1.07000
H 	H 	0.04565 0.83742 0.72129 0.15800
O 	O 	0.19321 0.06547 0.73256 -0.42200
C 	C 	0.18829 0.02517 0.76068 0.31000
C 	C 	0.17487 0.08910 0.65429 0.30100
C 	C 	0.05109 0.11081 0.78586 0.30100
Ni	Ni	0.22209 0.67546 0.38870 1.09900
O 	O 	0.15775 0.68968 0.35065 -0.37400
O 	O 	0.20698 0.56336 0.36892 -0.40100
O 	O 	0.19190 0.59740 0.46528 -0.41500
O 	O 	0.13584 0.62867 0.41889 -0.37900
C 	C 	0.16892 0.76046 0.33738 0.28400
C 	C 	0.18162 0.49699 0.38614 0.32000
C 	C 	0.13415 0.58566 0.44635 0.28400
Ni	Ni	0.23056 0.69584 0.04955 1.09800
Ni	Ni	0.23599 0.56838 0.99043 1.06900
O 	O 	0.18311 0.49524 0.02878 -0.39600
O 	O 	0.12909 0.65508 0.02907 -0.37900
O 	O 	0.19708 0.74094 0.09154 -0.36900
C 	C 	0.16960 0.51767 0.05908 0.31200
C 	C 	0.10757 0.60193 0.00345 0.29300
C 	C 	0.23030 0.81615 0.10214 0.28600
O 	O 	0.20940 0.58752 0.07303 -0.39400
O 	O 	0.15113 0.59853 0.97966 -0.42000
O 	O 	0.07264 0.14767 0.27636 -0.41700
Ni	Ni	0.06114 0.16465 0.22464 1.06300
O 	O 	0.08948 0.06678 0.21465 -0.41500
C 	C 	0.07424 0.02839 0.18505 0.30600
C 	C 	0.02747 0.15576 0.29819 0.28800
O 	O 	0.06569 0.19455 0.17439 -0.40200
C 	C 	0.03135 0.27151 0.13401 -0.08700
C 	C 	0.05580 0.33039 0.11677 0.02700
C 	C 	0.09189 0.39902 0.09743 0.03600
C 	C 	0.12640 0.45530 0.08064 -0.09400
C 	C 	0.19663 0.85210 0.12556 -0.09700
C 	C 	0.17028 0.88847 0.14338 0.02600
C 	C 	0.13967 0.93590 0.16148 0.03400
C 	C 	0.11168 0.97832 0.17408 -0.10800
C 	C 	0.13879 0.42449 0.36845 -0.10000
C 	C 	0.10574 0.36189 0.35385 0.03400
C 	C 	0.07189 0.28812 0.33621 0.03000
C 	C 	0.04821 0.22613 0.31984 -0.10800
C 	C 	0.99881 0.80389 0.30101 0.06000
C 	C 	0.05834 0.78664 0.31178 0.00700
C 	C 	0.10947 0.77452 0.32255 -0.08500
C 	C 	0.05043 0.51210 0.49117 -0.02400
C 	C 	0.06561 0.52652 0.45663 -0.05800
C 	C 	0.01454 0.48490 0.43154 -0.02300
H 	H 	0.08945 0.54318 0.51081 0.04200
H 	H 	0.02617 0.49374 0.40479 0.04700
C 	C 	0.03286 0.55068 0.99964 -0.08000
C 	C 	0.01423 0.46912 0.99027 -0.01400
H 	H 	0.05427 0.44227 0.98900 0.03300
C 	C 	0.25224 0.03681 0.77976 -0.09700
Ni	Ni	0.58759 0.28237 0.88871 1.10200
Ni	Ni	0.64622 0.15182 0.86001 1.06400
O 	O 	0.63296 0.13217 0.91099 -0.41300
O 	O 	0.51312 0.23145 0.85172 -0.38300
O 	O 	0.52212 0.33045 0.91218 -0.37400
O 	O 	0.61042 0.45389 0.91509 -0.41600
C 	C 	0.57464 0.12992 0.92543 0.28500
C 	C 	0.50164 0.15782 0.83972 0.29300
C 	C 	0.54384 0.40838 0.91891 0.26700
O 	O 	0.54280 0.17928 0.91609 -0.37000
O 	O 	0.53826 0.11438 0.85167 -0.40700
Ni	Ni	0.59979 0.30495 0.53485 1.09900
O 	O 	0.55596 0.36686 0.50367 -0.37300
O 	O 	0.53917 0.20325 0.50706 -0.37100
O 	O 	0.50999 0.14928 0.57075 -0.40900
O 	O 	0.51718 0.28102 0.56670 -0.37900
Ni	Ni	0.61213 0.15250 0.57059 1.06400
O 	O 	0.60499 0.12700 0.51978 -0.41500
C 	C 	0.59284 0.43931 0.49321 0.27000
C 	C 	0.55829 0.14174 0.50021 0.28700
C 	C 	0.48946 0.20906 0.58029 0.29000
O 	O 	0.30551 0.71529 0.35715 -0.70700
Ni	Ni	0.38328 0.70776 0.38690 1.10100
O 	O 	0.22551 0.82348 0.34667 -0.40900
Ni	Ni	0.32977 0.82722 0.34490 1.06300
O 	O 	0.34430 0.86951 0.39425 -0.41400
O 	O 	0.45909 0.74050 0.35123 -0.37800
O 	O 	0.30255 0.68176 0.42044 -0.70000
O 	O 	0.44722 0.67061 0.41830 -0.37200
O 	O 	0.35800 0.55046 0.42532 -0.41000
Ni	Ni	0.27775 0.58145 0.44575 1.06900
H 	H 	0.29877 0.68039 0.33652 0.15800
H 	H 	0.31058 0.72722 0.43681 0.15200
C 	C 	0.40161 0.87554 0.41197 0.28600
O 	O 	0.20908 0.49019 0.41600 -0.39600
C 	C 	0.47041 0.80652 0.33341 0.28800
C 	C 	0.42468 0.59684 0.42968 0.26600
O 	O 	0.43101 0.82120 0.40835 -0.37200
O 	O 	0.43701 0.85672 0.34039 -0.40800
Ni	Ni	0.38185 0.69698 0.03379 1.10000
O 	O 	0.28540 0.67550 0.01074 -0.70100
O 	O 	0.41707 0.63938 0.99685 -0.37500
O 	O 	0.31805 0.52657 0.99866 -0.41200
O 	O 	0.42753 0.79870 0.00553 -0.36900
O 	O 	0.47822 0.85558 0.06980 -0.41000
O 	O 	0.33067 0.73010 0.07047 -0.70300
O 	O 	0.47577 0.72693 0.05962 -0.38100
O 	O 	0.28188 0.86466 0.08441 -0.41300
Ni	Ni	0.37603 0.84661 0.07685 1.06400
H 	H 	0.28913 0.71607 0.99318 0.15400
H 	H 	0.33249 0.70195 0.09184 0.15500
O 	O 	0.36501 0.87072 0.02713 -0.41600
C 	C 	0.38108 0.56474 0.98693 0.27000
C 	C 	0.40856 0.86195 0.00476 0.29000
C 	C 	0.50395 0.79801 0.07528 0.29400
C 	C 	0.57459 0.82153 0.08865 -0.09500
C 	C 	0.63414 0.84323 0.09990 0.03000
C 	C 	0.58975 0.86537 0.30027 0.02900
C 	C 	0.53493 0.83771 0.31504 -0.09000
C 	C 	0.55352 0.04569 0.45292 -0.01000
C 	C 	0.51826 0.08137 0.47424 -0.07100
C 	C 	0.44413 0.05421 0.47265 -0.00700
C 	C 	0.40562 0.98887 0.45119 -0.01600
C 	C 	0.44102 0.95064 0.43112 -0.06800
C 	C 	0.51518 0.98106 0.43129 -0.01100
H 	H 	0.61067 0.06707 0.45355 0.03700
H 	H 	0.41635 0.08156 0.48899 0.04900
H 	H 	0.34848 0.96634 0.45109 0.03900
H 	H 	0.54311 0.95344 0.41517 0.05200
C 	C 	0.57120 0.56544 0.48068 -0.01100
C 	C 	0.55754 0.48365 0.47333 -0.07500
C 	C 	0.50603 0.44257 0.44847 -0.01200
C 	C 	0.46537 0.48127 0.43266 -0.01300
C 	C 	0.47560 0.56137 0.44168 -0.06700
C 	C 	0.53028 0.60423 0.46488 -0.01600
H 	H 	0.61144 0.59794 0.49960 0.04100
H 	H 	0.49638 0.37999 0.44200 0.03800
H 	H 	0.42455 0.44831 0.41408 0.04300
H 	H 	0.53903 0.66638 0.47175 0.04000
C 	C 	0.24123 0.11482 0.63733 -0.09400
C 	C 	0.29796 0.13842 0.62406 0.03300
C 	C 	0.36504 0.16626 0.60905 0.02900
C 	C 	0.42218 0.18800 0.59619 -0.09200
C 	C 	0.49893 0.07501 0.97482 -0.00800
C 	C 	0.53721 0.06241 0.94743 -0.06600
C 	C 	0.53082 0.98358 0.93813 -0.00700
C 	C 	0.48611 0.91799 0.95578 -0.00900
C 	C 	0.44804 0.93047 0.98336 -0.06800
C 	C 	0.45462 0.00951 0.99269 -0.01000
H 	H 	0.50298 0.13558 0.98206 0.03500
H 	H 	0.55881 0.97288 0.91657 0.03200
H 	H 	0.48134 0.85746 0.94810 0.04300
H 	H 	0.42639 0.02044 0.01410 0.03600
C 	C 	0.44127 0.40073 0.95404 -0.01500
C 	C 	0.49459 0.44436 0.93215 -0.07200
C 	C 	0.50490 0.52508 0.92559 -0.01500
C 	C 	0.46540 0.56328 0.94236 -0.01300
C 	C 	0.41523 0.52120 0.96590 -0.07200
C 	C 	0.40176 0.43903 0.97088 -0.01400
H 	H 	0.43245 0.33818 0.95913 0.04200
H 	H 	0.54470 0.55879 0.90810 0.04000
H 	H 	0.47490 0.62616 0.93762 0.04000
H 	H 	0.36271 0.40567 0.98875 0.04200
C 	C 	0.30905 0.05517 0.79409 0.03700
C 	C 	0.37699 0.08496 0.80967 0.03100
C 	C 	0.43474 0.11594 0.82294 -0.09100
O 	O 	0.02578 0.03685 0.16462 -0.37200
C 	C 	0.01333 0.20384 0.15629 0.27600
H 	H 	0.01006 0.04346 0.70827 0.14200
O 	O 	0.66655 0.26651 0.86465 -0.70800
H 	H 	0.67152 0.29112 0.84195 0.15700
O 	O 	0.96256 0.10290 0.29808 -0.36000
H 	H 	0.99385 0.64641 0.01041 0.04600
O 	O 	0.66030 0.47291 0.50139 -0.41100
C 	C 	0.99330 0.78790 0.64274 0.29500
Ni	Ni	0.74920 0.32689 0.89720 1.10000
O 	O 	0.81767 0.30106 0.86591 -0.36700
O 	O 	0.75285 0.16550 0.86672 -0.40600
O 	O 	0.75746 0.42506 0.86850 -0.39600
O 	O 	0.76719 0.41821 0.97271 -0.41400
O 	O 	0.66737 0.32602 0.92451 -0.70500
O 	O 	0.83227 0.39599 0.92843 -0.37300
Ni	Ni	0.68954 0.43434 0.94385 1.07100
H 	H 	0.66148 0.28776 0.94325 0.15800
O 	O 	0.76605 0.50921 0.91411 -0.39800
C 	C 	0.80636 0.22682 0.85523 0.28200
C 	C 	0.77106 0.49764 0.88142 0.32200
C 	C 	0.82769 0.41994 0.96018 0.28900
O 	O 	0.68482 0.31911 0.50500 -0.70000
Ni	Ni	0.75162 0.29509 0.53783 1.09800
Ni	Ni	0.73196 0.42329 0.48429 1.07100
O 	O 	0.80486 0.49470 0.51962 -0.39300
O 	O 	0.84422 0.32923 0.51118 -0.37400
O 	O 	0.66145 0.26800 0.56535 -0.70200
O 	O 	0.79725 0.24781 0.57503 -0.36700
O 	O 	0.70460 0.12807 0.57069 -0.41200
H 	H 	0.67177 0.27739 0.48658 0.15200
H 	H 	0.67000 0.29711 0.58764 0.15400
C 	C 	0.82664 0.47188 0.54809 0.31300
C 	C 	0.85764 0.37799 0.48487 0.28800
C 	C 	0.76336 0.17481 0.58620 0.28800
O 	O 	0.78790 0.40501 0.56271 -0.39600
O 	O 	0.80592 0.38392 0.46542 -0.41800
O 	O 	0.98742 0.86413 0.78753 -0.35800
O 	O 	0.88695 0.81439 0.75413 -0.41500
Ni	Ni	0.91992 0.81188 0.70450 1.06700
O 	O 	0.89300 0.91009 0.69405 -0.41400
C 	C 	0.91610 0.95310 0.66696 0.30400
C 	C 	0.92521 0.80807 0.78065 0.28900
O 	O 	0.97155 0.95029 0.65147 -0.36300
O 	O 	0.93517 0.79467 0.65438 -0.40500
Ni	Ni	0.93178 0.01687 0.25971 1.09700
O 	O 	0.95938 0.10643 0.22509 -0.71100
Ni	Ni	0.93355 0.04390 0.18157 1.09800
O 	O 	0.82831 0.01117 0.26014 -0.37500
O 	O 	0.84397 0.81851 0.26429 -0.41700
O 	O 	0.95250 0.14228 0.15147 -0.36000
O 	O 	0.92453 0.95219 0.21579 -0.68400
O 	O 	0.90751 0.93048 0.29521 -0.37900
O 	O 	0.87882 0.97324 0.14079 -0.36000
O 	O 	0.83719 0.84774 0.16210 -0.40300
Ni	Ni	0.84335 0.84961 0.21460 1.07200
H 	H 	0.93311 0.14338 0.22760 0.16000
H 	H 	0.96658 0.93681 0.21569 0.14500
O 	O 	0.77516 0.90845 0.22117 -0.41300
C 	C 	0.77417 0.94590 0.25017 0.30300
C 	C 	0.82628 0.90539 0.14556 0.30800
C 	C 	0.89657 0.85650 0.28562 0.31500
C 	C 	0.70315 0.86851 0.11387 0.03900
C 	C 	0.76075 0.88775 0.12727 -0.10500
C 	C 	0.70940 0.92209 0.26843 -0.09200
C 	C 	0.65439 0.89736 0.28320 0.03500
C 	C 	0.94998 0.82390 0.29325 -0.14100
C 	C 	0.94798 0.43255 0.44079 0.00500
C 	C 	0.93147 0.42098 0.47527 -0.07200
C 	C 	0.98364 0.45943 0.50045 0.00500
H 	H 	0.90873 0.40227 0.42111 0.04000
H 	H 	0.97166 0.45100 0.52716 0.04200
C 	C 	0.79996 0.13740 0.60758 -0.09700
C 	C 	0.82686 0.09925 0.62416 0.02900
C 	C 	0.85619 0.04951 0.64151 0.03500
C 	C 	0.88198 0.00518 0.65433 -0.10400
C 	C 	0.87997 0.53282 0.56818 -0.09500
C 	C 	0.92116 0.58932 0.58412 0.03600
C 	C 	0.96132 0.65969 0.60302 0.03200
C 	C 	0.98442 0.72045 0.62038 -0.09400
C 	C 	0.94461 0.42315 0.98076 0.00100
C 	C 	0.89313 0.45850 0.98031 -0.06500
C 	C 	0.91036 0.53778 0.99292 -0.01000
C 	C 	0.98019 0.58388 0.00253 0.00800
H 	H 	0.93147 0.36143 0.97178 0.03900
H 	H 	0.87077 0.56540 0.99304 0.03800
C 	C 	0.86325 0.21084 0.83942 -0.08800
C 	C 	0.91124 0.19695 0.82663 0.02100
C 	C 	0.96573 0.17654 0.81203 0.04900
C 	C 	0.00837 0.15202 0.79985 -0.12500
C 	C 	0.80495 0.56601 0.86082 -0.09700
C 	C 	0.83392 0.62328 0.84351 0.03800
C 	C 	0.86752 0.68954 0.82276 0.03100
C 	C 	0.89499 0.74478 0.80420 -0.09700
