data_crystal

_cell_length_a 26.09277
_cell_length_b 26.46643
_cell_length_c 26.48277
_cell_angle_alpha 95.47502
_cell_angle_beta  95.47443
_cell_angle_gamma 125.80608

_symmetry_space_group_name_	'P 1'
_symmetry_space_group_name_H-M	'P 1'

loop_
_symmetry_equiv_pos_as_xyz
  x,y,z

loop_
_atom_site_label
_atom_site_type_symbol
_atom_site_fract_x
_atom_site_fract_y
_atom_site_fract_z
_atom_site_charge
C 	C 	0.96132 0.02376 0.99637 0.09900
N 	N 	0.02361 0.05506 0.99038 -0.13200
C 	C 	0.04879 0.02268 0.98365 0.11400
N 	N 	0.01173 0.95933 0.98292 -0.13000
C 	C 	0.94955 0.92798 0.98858 0.11400
N 	N 	0.92450 0.96032 0.99538 -0.13400
C 	C 	0.94830 0.00790 0.44429 0.10400
N 	N 	0.91771 0.94515 0.44529 -0.13300
C 	C 	0.95242 0.92206 0.45109 0.11300
N 	N 	0.01743 0.96200 0.45663 -0.13000
C 	C 	0.04792 0.02424 0.45493 0.11600
N 	N 	0.01334 0.04719 0.44879 -0.13200
Cu	Cu	0.63893 0.24553 0.00482 0.92800
Cu	Cu	0.67414 0.22892 0.89194 0.88300
Cu	Cu	0.65584 0.33671 0.93409 0.91300
Cu	Cu	0.62304 0.35320 0.03605 0.90100
C 	C 	0.65479 0.29483 0.11194 0.33200
O 	O 	0.54315 0.19831 0.00507 -0.34200
C 	C 	0.67149 0.31277 0.83291 0.33500
O 	O 	0.67896 0.34172 0.00630 -0.63700
O 	O 	0.62426 0.24673 0.93002 -0.63200
O 	O 	0.69563 0.21717 0.00638 -0.36000
O 	O 	0.65796 0.16158 0.92395 -0.41400
O 	O 	0.61928 0.31323 0.09722 -0.37200
O 	O 	0.69261 0.42529 0.93980 -0.36400
C 	C 	0.69070 0.45955 0.97819 0.28700
C 	C 	0.51176 0.21901 0.98543 0.27800
O 	O 	0.54371 0.27739 0.97719 -0.39200
O 	O 	0.65106 0.43288 0.01087 -0.38100
O 	O 	0.66302 0.26078 0.07864 -0.34300
C 	C 	0.68840 0.17384 0.97097 0.28400
O 	O 	0.64173 0.32862 0.85987 -0.36200
O 	O 	0.70839 0.30004 0.85629 -0.41500
H 	H 	0.72526 0.37402 0.02103 0.17700
H 	H 	0.57833 0.21684 0.91340 0.17100
Cu	Cu	0.74659 0.34557 0.43798 0.93000
Cu	Cu	0.74396 0.29243 0.54536 0.87400
Cu	Cu	0.65213 0.31870 0.51021 0.90000
Cu	Cu	0.62990 0.35019 0.40938 0.89900
C 	C 	0.69350 0.32775 0.33177 0.33100
O 	O 	0.78721 0.43898 0.43882 -0.34600
C 	C 	0.69323 0.32734 0.62049 0.32700
O 	O 	0.64756 0.29808 0.43767 -0.63900
O 	O 	0.74479 0.35553 0.51272 -0.63800
O 	O 	0.78975 0.30317 0.43770 -0.35900
O 	O 	0.72307 0.23352 0.48564 -0.43100
O 	O 	0.67110 0.35894 0.34766 -0.37300
O 	O 	0.56057 0.27642 0.50435 -0.36900
C 	C 	0.52391 0.28017 0.46921 0.29400
C 	C 	0.76253 0.46594 0.45884 0.28300
O 	O 	0.70409 0.43033 0.46848 -0.38800
O 	O 	0.54808 0.31733 0.43476 -0.38600
O 	O 	0.73147 0.32277 0.36418 -0.34300
C 	C 	0.76415 0.24945 0.45440 0.29000
O 	O 	0.65799 0.33306 0.58553 -0.35900
O 	O 	0.74324 0.33022 0.61026 -0.40200
H 	H 	0.61726 0.25231 0.42244 0.17900
H 	H 	0.77484 0.39933 0.53281 0.18400
C 	C 	0.62632 0.26636 0.73931 0.10000
C 	C 	0.67197 0.31918 0.77830 -0.11800
C 	C 	0.71994 0.37711 0.76497 0.10500
C 	C 	0.72498 0.38088 0.71276 0.10300
C 	C 	0.68197 0.32673 0.67398 -0.11000
C 	C 	0.63111 0.27022 0.68712 0.09800
Br	Br	0.56894 0.19773 0.63358 -0.22800
Br	Br	0.55785 0.18849 0.75760 -0.24500
Br	Br	0.79004 0.46024 0.69418 -0.20600
Br	Br	0.77859 0.45109 0.81825 -0.20400
C 	C 	0.63507 0.25683 0.24584 0.09800
C 	C 	0.69012 0.31350 0.27592 -0.10800
C 	C 	0.73795 0.35989 0.25170 0.10500
C 	C 	0.72816 0.35181 0.19744 0.09900
C 	C 	0.67052 0.29757 0.16750 -0.10800
C 	C 	0.62509 0.24892 0.19159 0.10600
Br	Br	0.54836 0.17242 0.15026 -0.19500
Br	Br	0.57284 0.19075 0.27915 -0.22400
Br	Br	0.79290 0.41555 0.16401 -0.22600
Br	Br	0.81582 0.43528 0.29296 -0.19700
C 	C 	0.92299 0.76313 0.43204 -0.04300
C 	C 	0.86571 0.72534 0.45078 0.01000
C 	C 	0.83485 0.75147 0.46726 -0.04300
C 	C 	0.86197 0.81526 0.46612 -0.02000
C 	C 	0.91984 0.85322 0.44797 -0.01700
C 	C 	0.94938 0.82626 0.42999 -0.01900
C 	C 	0.83814 0.65834 0.45286 0.02400
H 	H 	0.79016 0.72256 0.48121 0.04500
H 	H 	0.83866 0.83529 0.48020 0.04400
H 	H 	0.99337 0.85452 0.41500 0.04300
H 	H 	0.94736 0.74365 0.41937 0.04700
C 	C 	0.82910 0.61778 0.40894 -0.05700
C 	C 	0.80731 0.55586 0.41166 0.01200
C 	C 	0.79296 0.53329 0.45799 -0.07900
C 	C 	0.80123 0.57344 0.50179 0.01300
C 	C 	0.82433 0.63591 0.49940 -0.05900
H 	H 	0.83898 0.63426 0.37269 0.05300
H 	H 	0.79983 0.52485 0.37736 0.05500
H 	H 	0.78969 0.55626 0.53761 0.03900
H 	H 	0.83183 0.66691 0.53373 0.05100
C 	C 	0.89314 0.10168 0.39692 -0.04200
C 	C 	0.85560 0.09767 0.43320 0.00500
C 	C 	0.84387 0.05919 0.47025 -0.04000
C 	C 	0.87128 0.02687 0.47208 -0.03100
C 	C 	0.91123 0.03331 0.43729 -0.01300
C 	C 	0.92110 0.06996 0.39914 -0.02300
C 	C 	0.83120 0.13614 0.43400 0.02700
H 	H 	0.81496 0.05566 0.49845 0.04100
H 	H 	0.86341 0.99881 0.50172 0.04800
H 	H 	0.95143 0.07484 0.37182 0.04200
H 	H 	0.90166 0.13031 0.36762 0.04500
C 	C 	0.87410 0.20232 0.43846 -0.06300
C 	C 	0.85169 0.23912 0.44242 0.01500
C 	C 	0.78629 0.21023 0.44259 -0.08800
C 	C 	0.74311 0.14390 0.43653 0.01700
C 	C 	0.76541 0.10704 0.43204 -0.06300
H 	H 	0.92499 0.22536 0.44006 0.04900
H 	H 	0.88555 0.29023 0.44724 0.03700
H 	H 	0.69242 0.12096 0.43605 0.03800
H 	H 	0.73170 0.05598 0.42777 0.05000
C 	C 	0.21336 0.07978 0.43510 -0.03900
C 	C 	0.25213 0.14088 0.46542 0.00800
C 	C 	0.22347 0.16484 0.49049 -0.04100
C 	C 	0.15655 0.12741 0.48604 -0.02000
C 	C 	0.11788 0.06569 0.45661 -0.01400
C 	C 	0.14662 0.04237 0.43073 -0.02700
C 	C 	0.32267 0.17965 0.47072 0.02800
H 	H 	0.25305 0.21208 0.51384 0.04700
H 	H 	0.13496 0.14586 0.50631 0.04600
H 	H 	0.11723 0.99514 0.40734 0.05100
H 	H 	0.23501 0.06125 0.41503 0.04600
C 	C 	0.35634 0.15836 0.49261 -0.05900
C 	C 	0.42226 0.19184 0.49311 0.01800
C 	C 	0.45522 0.24709 0.47182 -0.07800
C 	C 	0.42178 0.26948 0.45149 0.01600
C 	C 	0.35583 0.23583 0.45089 -0.06100
H 	H 	0.33117 0.11524 0.50836 0.05500
H 	H 	0.44736 0.17406 0.50904 0.04900
H 	H 	0.44671 0.31263 0.43580 0.04000
H 	H 	0.33026 0.25272 0.43405 0.05100
C 	C 	0.76439 0.61580 0.93398 -0.05800
C 	C 	0.79382 0.65843 0.98136 0.02300
C 	C 	0.78784 0.63538 0.02767 -0.05600
C 	C 	0.75331 0.57030 0.02660 0.01900
C 	C 	0.72497 0.52776 0.97921 -0.08200
C 	C 	0.73039 0.55078 0.93289 0.02000
C 	C 	0.83283 0.72722 0.98241 0.00700
H 	H 	0.81071 0.66796 0.06442 0.05100
H 	H 	0.74960 0.55302 0.06256 0.03500
H 	H 	0.70808 0.51831 0.89608 0.05400
H 	H 	0.76826 0.63314 0.89804 0.05500
C 	C 	0.88564 0.75627 0.95727 -0.04300
C 	C 	0.92329 0.82159 0.95885 -0.01800
C 	C 	0.90897 0.85875 0.98614 -0.02200
C 	C 	0.85597 0.82953 0.01128 -0.01500
C 	C 	0.81794 0.76405 0.00919 -0.04000
H 	H 	0.89766 0.72822 0.93669 0.04900
H 	H 	0.96346 0.84324 0.93871 0.04400
H 	H 	0.84457 0.85756 0.03280 0.04500
H 	H 	0.77705 0.74194 0.02853 0.04600
C 	C 	0.76149 0.08710 0.94968 -0.06300
C 	C 	0.81110 0.11667 0.99306 0.02300
C 	C 	0.81685 0.16095 0.03138 -0.05800
C 	C 	0.77480 0.17738 0.02549 0.01800
C 	C 	0.72669 0.14983 0.98093 -0.08900
C 	C 	0.71929 0.10330 0.94373 0.01100
C 	C 	0.85657 0.10070 0.99851 0.00000
H 	H 	0.85448 0.18335 0.06536 0.05200
H 	H 	0.78073 0.21265 0.05495 0.04900
H 	H 	0.68162 0.08049 0.90976 0.03700
H 	H 	0.75592 0.05185 0.92041 0.04800
C 	C 	0.85537 0.06708 0.03677 -0.03500
C 	C 	0.89320 0.04560 0.03828 -0.02700
C 	C 	0.93257 0.05757 0.00152 -0.00400
C 	C 	0.93664 0.09446 0.96516 -0.03200
C 	C 	0.89860 0.11579 0.96356 -0.03900
H 	H 	0.82358 0.05581 0.06425 0.04500
H 	H 	0.89024 0.01777 0.06690 0.04300
H 	H 	0.96694 0.10411 0.93667 0.04300
H 	H 	0.90047 0.14250 0.93430 0.04100
C 	C 	0.34169 0.15655 0.93397 -0.06000
C 	C 	0.31104 0.12756 0.97422 0.02200
C 	C 	0.34472 0.12172 0.01496 -0.05500
C 	C 	0.40952 0.14746 0.01668 0.01700
C 	C 	0.44120 0.17962 0.97786 -0.08400
C 	C 	0.40645 0.18240 0.93574 0.01400
C 	C 	0.24405 0.10422 0.97408 0.00500
H 	H 	0.32106 0.09841 0.04577 0.05500
H 	H 	0.43579 0.14497 0.04936 0.05600
H 	H 	0.43024 0.20651 0.90527 0.03800
H 	H 	0.31579 0.16046 0.90199 0.05100
C 	C 	0.22988 0.13269 0.01213 -0.03800
C 	C 	0.16597 0.10857 0.01337 -0.01600
C 	C 	0.11584 0.05562 0.97675 -0.01800
C 	C 	0.13034 0.02896 0.93744 -0.02600
C 	C 	0.19415 0.05314 0.93614 -0.03900
H 	H 	0.26825 0.17279 0.04115 0.04600
H 	H 	0.15535 0.12947 0.04391 0.04500
H 	H 	0.09201 0.98837 0.90874 0.05100
H 	H 	0.20471 0.03135 0.90629 0.04600
