data_crystal

_cell_length_a 27.78789
_cell_length_b 29.26086
_cell_length_c 52.11712
_cell_angle_alpha 90.00984
_cell_angle_beta  90.00375
_cell_angle_gamma 120.50975

_symmetry_space_group_name_	'P 1'
_symmetry_space_group_name_H-M	'P 1'

loop_
_symmetry_equiv_pos_as_xyz
  x,y,z

loop_
_atom_site_label
_atom_site_type_symbol
_atom_site_fract_x
_atom_site_fract_y
_atom_site_fract_z
_atom_site_charge
C 	C 	0.14894 0.07218 0.98697 0.28800
C 	C 	0.06882 0.92618 0.00743 0.30800
C 	C 	0.02498 0.09550 0.03483 0.27500
Ni	Ni	0.06266 0.01618 0.03017 1.11100
Ni	Ni	0.03844 0.98407 0.97011 1.11700
O 	O 	0.13838 0.04785 0.00969 -0.37200
O 	O 	0.11218 0.05299 0.96783 -0.38200
O 	O 	0.04762 0.93962 0.02636 -0.38200
O 	O 	0.08341 0.95363 0.98597 -0.38100
O 	O 	0.06880 0.08889 0.03617 -0.37300
O 	O 	0.02428 0.01252 0.99991 -0.72200
H 	H 	0.04337 0.05027 0.99509 0.15700
C 	C 	0.04999 0.05536 0.55213 0.30000
C 	C 	0.07388 0.10251 0.47094 0.31100
C 	C 	0.00697 0.95644 0.45184 0.28500
Ni	Ni	0.04629 0.00758 0.50226 1.11900
O 	O 	0.08619 0.06533 0.47560 -0.38600
O 	O 	0.06718 0.06586 0.52832 -0.38800
O 	O 	0.02875 0.95444 0.47424 -0.38800
O 	O 	0.02398 0.95142 0.53068 -0.38300
O 	O 	0.02302 0.09328 0.47434 -0.39800
C 	C 	0.03183 0.14531 0.04485 -0.07800
C 	C 	0.00596 0.14510 0.06802 0.00600
C 	C 	0.02650 0.19182 0.08234 -0.06600
C 	C 	0.07261 0.23895 0.07343 0.04200
C 	C 	0.09445 0.24033 0.04904 -0.06800
C 	C 	0.07407 0.19365 0.03476 0.01500
C 	C 	0.10234 0.28324 0.09060 -0.02900
C 	C 	0.12757 0.32054 0.10480 -0.00200
C 	C 	0.15806 0.36370 0.12161 -0.00000
C 	C 	0.18425 0.40022 0.13612 -0.03100
H 	H 	0.00867 0.19065 0.10100 0.04800
H 	H 	0.12937 0.27687 0.04178 0.05000
H 	H 	0.09369 0.19442 0.01666 0.02900
C 	C 	0.17056 0.72207 0.15946 -0.07200
C 	C 	0.17587 0.77111 0.09662 -0.00100
C 	C 	0.15890 0.78950 0.07540 -0.00100
C 	C 	0.14376 0.80642 0.05804 -0.03000
C 	C 	0.12470 0.82821 0.03844 0.04600
C 	C 	0.16303 0.87549 0.02611 -0.07300
C 	C 	0.14416 0.90515 0.01298 0.02100
C 	C 	0.08692 0.88786 0.01240 -0.09300
C 	C 	0.04844 0.83773 0.02230 0.02300
C 	C 	0.06730 0.80798 0.03527 -0.07300
H 	H 	0.13047 0.71990 0.15876 0.05100
H 	H 	0.16079 0.69738 0.19889 0.03600
H 	H 	0.17424 0.94349 0.00509 0.03300
H 	H 	0.00406 0.82353 0.02150 0.03100
H 	H 	0.03734 0.77095 0.04434 0.05000
C 	C 	0.11429 0.15130 0.45760 -0.09400
C 	C 	0.13692 0.14806 0.43405 0.02200
C 	C 	0.16050 0.19158 0.41738 -0.07300
C 	C 	0.16199 0.23859 0.42428 0.04700
C 	C 	0.14430 0.24345 0.44877 -0.07400
C 	C 	0.12060 0.19998 0.46540 0.02400
C 	C 	0.17534 0.27922 0.40538 -0.03100
C 	C 	0.18643 0.31349 0.38971 -0.00000
H 	H 	0.13268 0.11081 0.42790 0.03400
H 	H 	0.17499 0.18782 0.39863 0.05100
H 	H 	0.14630 0.28002 0.45443 0.05100
H 	H 	0.10403 0.20316 0.48371 0.03200
H 	H 	0.17378 0.50242 0.31005 0.03100
H 	H 	0.14780 0.43073 0.34177 0.05000
C 	C 	0.16266 0.75970 0.33055 0.04500
C 	C 	0.13196 0.70753 0.32141 -0.07100
C 	C 	0.13493 0.78260 0.34424 -0.02900
C 	C 	0.11211 0.80212 0.35572 -0.00200
C 	C 	0.08597 0.82540 0.36929 0.00200
C 	C 	0.06435 0.84556 0.38120 -0.03500
C 	C 	0.03973 0.87000 0.39607 0.05600
C 	C 	0.05364 0.92230 0.39084 -0.07900
C 	C 	0.03832 0.94946 0.40803 0.02700
C 	C 	0.00935 0.92451 0.43063 -0.09900
C 	C 	0.00704 0.84375 0.41756 -0.09700
H 	H 	0.08767 0.68351 0.32543 0.05000
H 	H 	0.07841 0.94268 0.37410 0.05200
H 	H 	0.05193 0.99079 0.40455 0.03200
H 	H 	0.02568 0.15455 0.95246 0.03400
C 	C 	0.21669 0.15723 0.96619 0.01900
C 	C 	0.20664 0.11293 0.98078 -0.08500
H 	H 	0.18366 0.16606 0.96321 0.03000
H 	H 	0.02603 0.89778 0.57528 0.02600
C 	C 	0.18139 0.12641 0.60702 0.04600
C 	C 	0.13825 0.07378 0.61035 -0.07300
C 	C 	0.09284 0.05141 0.59345 0.02000
C 	C 	0.09056 0.08153 0.57300 -0.09200
C 	C 	0.13218 0.13516 0.57068 0.02100
C 	C 	0.17743 0.15748 0.58763 -0.07300
H 	H 	0.14083 0.04963 0.62544 0.05000
H 	H 	0.06100 0.00998 0.59546 0.03400
H 	H 	0.13048 0.15900 0.55519 0.03500
H 	H 	0.20750 0.89100 0.02810 0.05100
C 	C 	0.18705 0.44690 0.33154 -0.07100
H 	H 	0.13340 0.64691 0.29875 0.03500
C 	C 	0.18989 0.75651 0.11532 -0.03000
C 	C 	0.15802 0.68668 0.30641 0.01900
H 	H 	0.21034 0.19838 0.58511 0.05100
C 	C 	0.19866 0.35333 0.37131 -0.00100
C 	C 	0.22004 0.79025 0.32552 -0.07000
H 	H 	0.24417 0.83042 0.33280 0.05100
C 	C 	0.18775 0.70926 0.18220 0.02000
C 	C 	0.21509 0.44359 0.15365 0.04700
C 	C 	0.20166 0.48736 0.31350 0.01800
H 	H 	0.22197 0.39482 0.18286 0.05100
H 	H 	0.21575 0.50243 0.12840 0.05100
C 	C 	0.20937 0.38726 0.35550 -0.03000
H 	H 	0.24323 0.06907 0.99650 0.03500
C 	C 	0.20556 0.73883 0.13792 0.04600
C 	C 	0.23053 0.43418 0.17780 -0.07300
C 	C 	0.22695 0.49472 0.14715 -0.07300
C 	C 	0.25027 0.10279 0.98503 0.02000
C 	C 	0.23198 0.14693 0.62181 -0.03000
C 	C 	0.22340 0.42785 0.33649 0.04600
C 	C 	0.21508 0.71803 0.30037 -0.08200
O 	O 	0.21775 0.64746 0.27763 -0.37500
C 	C 	0.24622 0.76949 0.31055 0.01800
O 	O 	0.22318 0.66955 0.22468 -0.37500
O 	O 	0.23316 0.55190 0.26557 -0.37000
C 	C 	0.26795 0.18774 0.95378 -0.07100
Ni	Ni	0.23628 0.61639 0.24579 1.11300
H 	H 	0.27410 0.21986 0.94128 0.05100
C 	C 	0.25161 0.53571 0.16516 0.02200
C 	C 	0.25525 0.47515 0.19586 0.02100
C 	C 	0.24023 0.71320 0.18356 -0.09000
C 	C 	0.24068 0.69941 0.28134 0.28800
C 	C 	0.25282 0.50907 0.30043 -0.08500
H 	H 	0.29042 0.79381 0.30640 0.03200
O 	O 	0.25343 0.59230 0.21134 -0.38200
H 	H 	0.25917 0.57478 0.16019 0.03500
H 	H 	0.26492 0.46691 0.21483 0.03700
C 	C 	0.26440 0.52577 0.18987 -0.09300
C 	C 	0.25732 0.74155 0.13899 -0.07200
C 	C 	0.27495 0.16409 0.63370 -0.00100
C 	C 	0.25971 0.70228 0.20788 0.30700
C 	C 	0.27023 0.55378 0.28257 0.29100
C 	C 	0.30146 0.13322 0.97250 -0.07100
C 	C 	0.27389 0.44878 0.32311 -0.07200
C 	C 	0.27461 0.72872 0.16170 0.02100
C 	C 	0.27971 0.56579 0.21020 0.31000
C 	C 	0.30939 0.17411 0.95587 0.04600
H 	H 	0.28452 0.75431 0.12237 0.05100
O 	O 	0.27618 0.73433 0.26434 -0.37500
C 	C 	0.28856 0.48913 0.30514 0.02100
H 	H 	0.30198 0.43400 0.32672 0.05100
H 	H 	0.33361 0.12289 0.97450 0.05100
O 	O 	0.31209 0.56817 0.22921 -0.38300
H 	H 	0.30807 0.65961 0.27296 0.15700
H 	H 	0.31478 0.73108 0.16233 0.03800
O 	O 	0.31144 0.66091 0.25413 -0.71900
C 	C 	0.32571 0.18411 0.64726 -0.00000
O 	O 	0.31349 0.72690 0.21292 -0.38300
O 	O 	0.32436 0.58976 0.28116 -0.38600
H 	H 	0.32777 0.50498 0.29491 0.03200
C 	C 	0.35437 0.19480 0.93756 -0.02900
Ni	Ni	0.34463 0.73528 0.24894 1.12100
C 	C 	0.36912 0.20101 0.65876 -0.03000
Ni	Ni	0.36125 0.63522 0.25001 1.12100
C 	C 	0.38998 0.21027 0.92125 -0.00000
H 	H 	0.38696 0.15578 0.69959 0.05100
O 	O 	0.38292 0.74682 0.28312 -0.38400
O 	O 	0.39453 0.67337 0.21699 -0.39400
C 	C 	0.42938 0.22651 0.90119 -0.00000
C 	C 	0.42076 0.22082 0.67265 0.04600
C 	C 	0.41038 0.72207 0.28940 0.28700
C 	C 	0.42336 0.19285 0.69388 -0.07200
O 	O 	0.41878 0.75528 0.23259 -0.38500
O 	O 	0.42077 0.69468 0.27203 -0.38000
C 	C 	0.42614 0.72525 0.21607 0.30900
H 	H 	0.43246 0.65653 0.31719 0.03300
C 	C 	0.43862 0.73313 0.31450 -0.08300
H 	H 	0.44271 0.68488 0.17213 0.03700
C 	C 	0.46122 0.23915 0.88336 -0.02900
C 	C 	0.44810 0.69503 0.32605 0.01800
H 	H 	0.45087 0.81210 0.31795 0.03600
H 	H 	0.46653 0.29010 0.64870 0.05100
C 	C 	0.46813 0.26851 0.66525 -0.07200
C 	C 	0.45800 0.78238 0.32659 0.02000
C 	C 	0.47266 0.21308 0.70811 0.02100
H 	H 	0.47364 0.19162 0.72484 0.03800
C 	C 	0.47639 0.74930 0.19962 -0.09100
C 	C 	0.47852 0.70682 0.34890 -0.07000
C 	C 	0.47895 0.72194 0.17797 0.02000
H 	H 	0.48678 0.67763 0.35733 0.05100
H 	H 	0.49593 0.17896 0.86018 0.05100
C 	C 	0.49926 0.25429 0.86205 0.04500
C 	C 	0.48844 0.79407 0.34943 -0.07100
C 	C 	0.00266 0.13478 0.93522 -0.00600
C 	C 	0.49959 0.75668 0.36038 0.04600
H 	H 	0.50458 0.83270 0.35823 0.05100
H 	H 	0.51064 0.33277 0.85879 0.05100
C 	C 	0.51142 0.21741 0.85128 -0.07100
C 	C 	0.51758 0.28886 0.67944 0.02000
H 	H 	0.99550 0.80309 0.42155 0.06200
O 	O 	0.99886 0.01727 0.55737 -0.36400
O 	O 	0.99538 0.99456 0.44655 -0.37500
C 	C 	0.99183 0.87088 0.43478 0.04400
C 	C 	0.73018 0.45320 0.78456 0.28800
C 	C 	0.73523 0.30516 0.70844 0.30700
C 	C 	0.71808 0.44355 0.71104 0.30900
C 	C 	0.75615 0.30878 0.78173 0.28800
C 	C 	0.57016 0.28558 0.71767 0.30900
C 	C 	0.58811 0.28919 0.79098 0.28600
Ni	Ni	0.76126 0.39205 0.74616 1.11300
Ni	Ni	0.65162 0.27423 0.74997 1.12100
Ni	Ni	0.63726 0.37567 0.75140 1.12100
O 	O 	0.76518 0.45657 0.76609 -0.37100
O 	O 	0.67515 0.42167 0.78236 -0.38200
O 	O 	0.57733 0.25539 0.73416 -0.38500
O 	O 	0.77256 0.33790 0.72498 -0.37400
O 	O 	0.68161 0.28168 0.71376 -0.38400
O 	O 	0.57787 0.31697 0.77379 -0.38000
O 	O 	0.74335 0.41610 0.71190 -0.38200
O 	O 	0.68678 0.44216 0.73032 -0.38000
O 	O 	0.61462 0.26368 0.78441 -0.38400
O 	O 	0.77994 0.36075 0.77786 -0.37400
O 	O 	0.71977 0.27397 0.76494 -0.37500
O 	O 	0.60207 0.33746 0.71857 -0.39300
O 	O 	0.68618 0.34872 0.75504 -0.71800
H 	H 	0.69008 0.35016 0.77384 0.15400
C 	C 	0.94699 0.95022 0.05222 0.30900
C 	C 	0.92030 0.90292 0.97119 0.31100
C 	C 	0.98807 0.04921 0.95201 0.28500
Ni	Ni	0.94983 0.99827 0.00254 1.12100
O 	O 	0.90884 0.94063 0.97594 -0.38400
O 	O 	0.99837 0.98804 0.05724 -0.36900
O 	O 	0.92910 0.93987 0.02851 -0.38800
O 	O 	0.99909 0.01080 0.94648 -0.37600
O 	O 	0.96718 0.05153 0.97461 -0.38100
O 	O 	0.97341 0.05450 0.03103 -0.36800
O 	O 	0.97116 0.91169 0.97394 -0.38900
C 	C 	0.84614 0.93238 0.48782 0.28900
C 	C 	0.92574 0.07786 0.50833 0.31000
C 	C 	0.97270 0.91009 0.53465 0.29600
Ni	Ni	0.93377 0.98857 0.53066 1.11300
Ni	Ni	0.95611 0.02068 0.47058 1.12300
O 	O 	0.85730 0.95625 0.51069 -0.37000
O 	O 	0.88279 0.95132 0.46865 -0.38000
O 	O 	0.94788 0.06484 0.52702 -0.37700
O 	O 	0.91089 0.05044 0.48687 -0.37700
O 	O 	0.92861 0.91622 0.53642 -0.37400
O 	O 	0.97149 0.99255 0.50014 -0.71500
H 	H 	0.95260 0.95481 0.49531 0.15900
H 	H 	0.97289 0.10811 0.07589 0.04300
C 	C 	0.52868 0.74193 0.16407 -0.07200
C 	C 	0.57608 0.78947 0.17161 0.04700
C 	C 	0.57316 0.81778 0.19261 -0.07200
C 	C 	0.52356 0.79790 0.20657 0.02200
C 	C 	0.62809 0.80862 0.15816 -0.03000
C 	C 	0.67176 0.82489 0.14699 0.00000
C 	C 	0.72275 0.84408 0.13377 0.00000
C 	C 	0.76588 0.86054 0.12211 -0.03000
C 	C 	0.81657 0.88026 0.10750 0.04700
C 	C 	0.81998 0.84886 0.08812 -0.07300
C 	C 	0.86502 0.87076 0.07107 0.02300
C 	C 	0.90697 0.92429 0.07329 -0.09300
C 	C 	0.90539 0.95464 0.09381 0.02200
C 	C 	0.86019 0.93269 0.11081 -0.07300
H 	H 	0.53052 0.72012 0.14766 0.05100
H 	H 	0.60956 0.85479 0.19841 0.05200
H 	H 	0.52234 0.81954 0.22318 0.03900
H 	H 	0.78671 0.80810 0.08564 0.05200
H 	H 	0.86623 0.84674 0.05554 0.03600
H 	H 	0.93756 0.99597 0.09576 0.03700
H 	H 	0.85805 0.95707 0.12591 0.05200
C 	C 	0.53693 0.77126 0.38195 -0.02900
C 	C 	0.56824 0.78382 0.40001 0.00000
C 	C 	0.60690 0.79980 0.42039 0.00000
C 	C 	0.64183 0.81472 0.43700 -0.02900
C 	C 	0.68602 0.83433 0.45571 0.04600
C 	C 	0.69493 0.87594 0.47208 -0.07100
C 	C 	0.74576 0.90495 0.48508 0.02000
C 	C 	0.78808 0.89273 0.48156 -0.08400
C 	C 	0.77681 0.84771 0.46727 0.01900
C 	C 	0.72590 0.81859 0.45439 -0.07000
H 	H 	0.66395 0.88789 0.47350 0.05100
H 	H 	0.75373 0.93927 0.49632 0.03500
H 	H 	0.80881 0.83731 0.46482 0.03100
H 	H 	0.71894 0.78588 0.44212 0.05100
H 	H 	0.96883 0.85101 0.45200 0.02600
C 	C 	0.78144 0.28968 0.80067 -0.08200
C 	C 	0.83892 0.31977 0.80607 0.02000
C 	C 	0.86430 0.29831 0.82111 -0.07100
C 	C 	0.83253 0.24682 0.83094 0.04600
C 	C 	0.77482 0.21756 0.82650 -0.07000
C 	C 	0.74932 0.23892 0.81147 0.01800
C 	C 	0.85952 0.22330 0.84472 -0.02900
C 	C 	0.88224 0.20373 0.85625 0.00200
C 	C 	0.90850 0.18058 0.86983 -0.00100
C 	C 	0.93014 0.16042 0.88174 -0.02500
C 	C 	0.95467 0.13587 0.89657 0.03800
C 	C 	0.98730 0.16196 0.91811 -0.05300
C 	C 	0.98530 0.08121 0.93094 -0.06700
C 	C 	0.95629 0.05640 0.90831 0.01200
C 	C 	0.94085 0.08363 0.89123 -0.06400
H 	H 	0.86430 0.35898 0.79790 0.03600
H 	H 	0.90887 0.32133 0.82466 0.05200
H 	H 	0.74988 0.17792 0.83429 0.05100
H 	H 	0.70483 0.21560 0.80778 0.03200
H 	H 	0.99875 0.20257 0.92220 0.04900
H 	H 	0.94279 0.01512 0.90473 0.03800
H 	H 	0.91610 0.06335 0.87446 0.05000
C 	C 	0.75130 0.49305 0.80522 -0.08400
C 	C 	0.79090 0.54625 0.79983 0.01900
C 	C 	0.80357 0.58552 0.81829 -0.07100
C 	C 	0.77693 0.57186 0.84223 0.04600
C 	C 	0.73936 0.51857 0.84806 -0.07100
C 	C 	0.72660 0.47928 0.82964 0.01800
C 	C 	0.78650 0.61272 0.86043 -0.02900
C 	C 	0.79462 0.64703 0.87561 0.00000
C 	C 	0.80468 0.68739 0.89336 0.00000
C 	C 	0.81440 0.72211 0.90857 -0.03000
C 	C 	0.82810 0.76401 0.92679 0.04700
C 	C 	0.83165 0.81137 0.91877 -0.07300
C 	C 	0.85656 0.85608 0.93470 0.02200
C 	C 	0.87857 0.85372 0.95858 -0.09300
C 	C 	0.87029 0.80496 0.96746 0.02400
C 	C 	0.84517 0.76026 0.95160 -0.07200
H 	H 	0.81014 0.55748 0.78105 0.03600
H 	H 	0.83306 0.62664 0.81374 0.05100
H 	H 	0.71908 0.50766 0.86664 0.05100
H 	H 	0.69634 0.43831 0.83410 0.03300
H 	H 	0.81780 0.81437 0.89974 0.05100
H 	H 	0.86233 0.89342 0.92771 0.03400
H 	H 	0.88645 0.80251 0.98602 0.03400
H 	H 	0.84174 0.72354 0.95809 0.05200
C 	C 	0.56027 0.27822 0.81618 -0.08400
C 	C 	0.55014 0.31598 0.82766 0.01700
C 	C 	0.51962 0.30395 0.85048 -0.07000
C 	C 	0.54185 0.22929 0.82843 0.01900
H 	H 	0.56525 0.35433 0.81874 0.03300
H 	H 	0.54961 0.19988 0.81990 0.03600
C 	C 	0.90693 0.11552 0.51364 -0.09100
C 	C 	0.84953 0.09754 0.51431 0.02200
C 	C 	0.83009 0.12640 0.52775 -0.07200
C 	C 	0.86801 0.17348 0.54036 0.04700
C 	C 	0.92550 0.19455 0.53703 -0.07200
C 	C 	0.94494 0.16561 0.52373 0.02400
C 	C 	0.84858 0.19426 0.56028 -0.02900
C 	C 	0.83322 0.21228 0.57704 0.00100
C 	C 	0.81632 0.23209 0.59768 0.00100
C 	C 	0.80269 0.24806 0.61599 -0.02900
C 	C 	0.78723 0.26612 0.63852 0.04700
C 	C 	0.82355 0.28529 0.65958 -0.07200
C 	C 	0.80690 0.29861 0.68231 0.02100
C 	C 	0.75364 0.29284 0.68416 -0.09000
C 	C 	0.71776 0.27468 0.66280 0.02100
C 	C 	0.73451 0.26126 0.64010 -0.07200
H 	H 	0.81980 0.05926 0.50623 0.03400
H 	H 	0.78553 0.11034 0.52981 0.05100
H 	H 	0.95513 0.23152 0.54625 0.05300
H 	H 	0.98942 0.18038 0.52284 0.03500
H 	H 	0.86435 0.28901 0.65849 0.05200
H 	H 	0.83500 0.31247 0.69861 0.03700
H 	H 	0.67692 0.27083 0.66379 0.03800
H 	H 	0.70623 0.24650 0.62387 0.05200
C 	C 	0.73353 0.48347 0.69066 -0.09200
C 	C 	0.74521 0.53489 0.69674 0.02100
C 	C 	0.77047 0.57555 0.67856 -0.07300
C 	C 	0.78396 0.56501 0.65420 0.04700
C 	C 	0.76944 0.51315 0.64762 -0.07300
C 	C 	0.74422 0.47249 0.66575 0.02200
C 	C 	0.81553 0.60780 0.63649 -0.03000
C 	C 	0.84195 0.64352 0.62161 0.00000
C 	C 	0.87280 0.68564 0.60433 0.00100
C 	C 	0.89845 0.72215 0.58975 -0.03000
C 	C 	0.92759 0.76655 0.57261 0.04900
C 	C 	0.97342 0.81388 0.58153 -0.07600
C 	C 	0.99313 0.86070 0.56739 0.03300
C 	C 	0.96666 0.86042 0.54440 -0.08900
C 	C 	0.92464 0.81198 0.53428 0.02200
C 	C 	0.90508 0.76520 0.54838 -0.07200
H 	H 	0.73716 0.54392 0.71587 0.03700
H 	H 	0.78102 0.61548 0.68368 0.05100
H 	H 	0.77906 0.50459 0.62870 0.05200
H 	H 	0.73469 0.43281 0.66071 0.03600
H 	H 	0.99168 0.81508 0.60008 0.05400
H 	H 	0.90453 0.81118 0.51633 0.02800
H 	H 	0.87029 0.72855 0.54113 0.05200
C 	C 	0.51988 0.26168 0.70121 -0.09100
H 	H 	0.55384 0.32595 0.67365 0.03700
