data_crystal

_cell_length_a 18.56021
_cell_length_b 18.97085
_cell_length_c 34.95521
_cell_angle_alpha 95.41822
_cell_angle_beta  95.41820
_cell_angle_gamma 126.40744

_symmetry_space_group_name_	'P 1'
_symmetry_space_group_name_H-M	'P 1'

loop_
_symmetry_equiv_pos_as_xyz
  x,y,z

loop_
_atom_site_label
_atom_site_type_symbol
_atom_site_fract_x
_atom_site_fract_y
_atom_site_fract_z
_atom_site_charge
C 	C 	0.90160 0.99288 0.95961 0.02300
C 	C 	0.99503 0.04666 0.95881 -0.05200
C 	C 	0.04246 0.01060 0.96000 0.02200
C 	C 	0.99623 0.91997 0.96067 -0.05600
C 	C 	0.90242 0.86474 0.96039 0.02800
C 	C 	0.85477 0.90129 0.96023 -0.06000
H 	H 	0.03138 0.11720 0.95862 0.05200
H 	H 	0.03338 0.89240 0.96163 0.05200
H 	H 	0.78256 0.85932 0.96098 0.05400
C 	C 	0.94955 0.03913 0.50195 0.03600
C 	C 	0.04271 0.08392 0.50175 -0.07300
C 	C 	0.07868 0.03648 0.50111 0.03500
C 	C 	0.02153 0.94460 0.50035 -0.07300
C 	C 	0.92905 0.90019 0.50109 0.03700
C 	C 	0.89310 0.94745 0.50217 -0.07000
H 	H 	0.08660 0.15488 0.50163 0.05500
H 	H 	0.04913 0.90773 0.49933 0.05600
H 	H 	0.82109 0.91270 0.50227 0.05700
Cu	Cu	0.75596 0.34120 0.95770 0.92800
Cu	Cu	0.74884 0.27808 0.04232 0.86800
Cu	Cu	0.61220 0.29713 0.00758 0.89400
Cu	Cu	0.58547 0.33337 0.92785 0.89800
C 	C 	0.68805 0.30653 0.87519 0.29000
O 	O 	0.80805 0.47093 0.95557 -0.35400
C 	C 	0.67329 0.33225 0.09384 0.28900
O 	O 	0.61400 0.26788 0.95368 -0.63500
O 	O 	0.74583 0.35814 0.01314 -0.64600
O 	O 	0.81605 0.28145 0.96270 -0.36000
O 	O 	0.71803 0.18925 0.99990 -0.43000
O 	O 	0.65041 0.34588 0.88353 -0.38200
O 	O 	0.48113 0.22962 0.99915 -0.37500
C 	C 	0.43031 0.22562 0.96860 0.29500
C 	C 	0.76642 0.50399 0.96730 0.28500
O 	O 	0.68226 0.44988 0.97254 -0.38600
O 	O 	0.46654 0.28230 0.94440 -0.38500
O 	O 	0.74250 0.30671 0.90255 -0.35500
C 	C 	0.77611 0.20703 0.97672 0.28600
O 	O 	0.60952 0.31090 0.06417 -0.38200
O 	O 	0.74609 0.33881 0.08808 -0.41800
H 	H 	0.57500 0.20317 0.94281 0.16900
H 	H 	0.78391 0.42081 0.02719 0.17900
Cu	Cu	0.62289 0.21049 0.50788 0.92900
Cu	Cu	0.68733 0.21848 0.42332 0.87100
Cu	Cu	0.66159 0.34845 0.45747 0.89900
Cu	Cu	0.62213 0.37136 0.53692 0.89800
C 	C 	0.65701 0.27655 0.59026 0.29000
O 	O 	0.49066 0.15455 0.51028 -0.36100
C 	C 	0.62926 0.28987 0.37133 0.28800
O 	O 	0.69321 0.34860 0.51144 -0.63900
O 	O 	0.60371 0.21863 0.45226 -0.64000
O 	O 	0.68239 0.15163 0.50274 -0.36800
O 	O 	0.77737 0.24758 0.46586 -0.43700
O 	O 	0.61371 0.31032 0.58174 -0.38100
O 	O 	0.72578 0.47595 0.46576 -0.38100
C 	C 	0.72478 0.52351 0.49556 0.29500
C 	C 	0.45282 0.19051 0.49738 0.28700
O 	O 	0.50448 0.27318 0.49223 -0.39000
O 	O 	0.66707 0.48546 0.51963 -0.38600
O 	O 	0.65986 0.22540 0.56300 -0.35500
C 	C 	0.75820 0.19017 0.48885 0.29400
O 	O 	0.64656 0.35032 0.40086 -0.37800
O 	O 	0.62470 0.21983 0.37731 -0.41700
H 	H 	0.75937 0.38900 0.52242 0.16900
H 	H 	0.53962 0.17937 0.43819 0.18000
C 	C 	0.65821 0.19415 0.68419 -0.05900
C 	C 	0.69855 0.27221 0.71193 0.02200
C 	C 	0.73452 0.35333 0.69941 -0.05800
C 	C 	0.72549 0.35553 0.65947 0.01300
C 	C 	0.68086 0.27671 0.63167 -0.07700
C 	C 	0.64973 0.19643 0.64419 0.02000
C 	C 	0.69408 0.26758 0.75361 0.02200
H 	H 	0.76622 0.41403 0.72062 0.05100
H 	H 	0.75062 0.41800 0.65013 0.03100
H 	H 	0.61544 0.13518 0.62302 0.04400
H 	H 	0.63078 0.13130 0.69359 0.05200
C 	C 	0.61061 0.22940 0.76604 -0.05800
C 	C 	0.60805 0.23782 0.80596 0.01300
C 	C 	0.68888 0.28406 0.83382 -0.07700
C 	C 	0.77172 0.31761 0.82141 0.02000
C 	C 	0.77433 0.30970 0.78143 -0.05900
H 	H 	0.54823 0.19634 0.74477 0.05000
H 	H 	0.54363 0.21084 0.81522 0.03100
H 	H 	0.83455 0.35316 0.84263 0.04500
H 	H 	0.83903 0.33887 0.77210 0.05200
C 	C 	0.66277 0.40118 0.28355 -0.06000
C 	C 	0.61995 0.32780 0.25274 0.02000
C 	C 	0.57099 0.24130 0.26099 -0.06100
C 	C 	0.56924 0.22857 0.29973 0.01300
C 	C 	0.61723 0.30229 0.33071 -0.08400
C 	C 	0.66151 0.38854 0.32237 0.01100
C 	C 	0.63408 0.34176 0.21237 0.02000
H 	H 	0.53710 0.18411 0.23744 0.04600
H 	H 	0.53283 0.16152 0.30566 0.03600
H 	H 	0.69804 0.44605 0.34590 0.04000
H 	H 	0.69955 0.46815 0.27749 0.04900
C 	C 	0.55899 0.29873 0.18151 -0.06100
C 	C 	0.57196 0.29982 0.14270 0.01100
C 	C 	0.66027 0.34418 0.13441 -0.08400
C 	C 	0.73562 0.39240 0.16542 0.01300
C 	C 	0.72255 0.39079 0.20416 -0.06200
H 	H 	0.49046 0.26191 0.18754 0.04800
H 	H 	0.51316 0.26317 0.11916 0.03900
H 	H 	0.80424 0.42889 0.15953 0.03600
H 	H 	0.78107 0.42486 0.22774 0.04600
C 	C 	0.86982 0.80362 0.50030 0.01300
C 	C 	0.87603 0.77188 0.53410 -0.05800
C 	C 	0.82999 0.68057 0.53278 0.02400
C 	C 	0.77576 0.61992 0.49735 -0.08300
C 	C 	0.76812 0.65160 0.46371 0.01200
C 	C 	0.81485 0.74304 0.46499 -0.04000
H 	H 	0.91895 0.81870 0.56117 0.05500
H 	H 	0.72552 0.60495 0.43657 0.04300
C 	C 	0.80720 0.77441 0.42986 0.08700
C 	C 	0.84156 0.64993 0.56750 0.06300
N 	N 	0.80114 0.79965 0.40175 -0.11500
N 	N 	0.85082 0.62537 0.59529 -0.12000
C 	C 	0.90946 0.08658 0.49904 0.01500
C 	C 	0.89096 0.11462 0.53278 -0.06000
C 	C 	0.84301 0.15015 0.53002 0.02900
C 	C 	0.81272 0.15729 0.49301 -0.09300
C 	C 	0.83400 0.13194 0.45945 0.01100
C 	C 	0.88187 0.09650 0.46226 -0.04200
H 	H 	0.91278 0.10753 0.56112 0.05400
H 	H 	0.81147 0.13805 0.43101 0.01400
C 	C 	0.90062 0.06844 0.42714 0.08600
C 	C 	0.82714 0.18099 0.56531 0.07500
N 	N 	0.91567 0.04591 0.39905 -0.11600
N 	N 	0.81458 0.20569 0.59362 -0.10600
C 	C 	0.17637 0.08253 0.50116 0.01300
C 	C 	0.20901 0.10379 0.46621 -0.05900
C 	C 	0.29824 0.13540 0.46407 0.02400
C 	C 	0.35572 0.14627 0.49731 -0.08500
C 	C 	0.32307 0.12516 0.53226 0.00800
C 	C 	0.23424 0.09438 0.53450 -0.04000
H 	H 	0.16414 0.09358 0.44042 0.05400
H 	H 	0.36780 0.13515 0.55806 0.04100
C 	C 	0.20304 0.07578 0.57119 0.08500
C 	C 	0.32961 0.15438 0.42743 0.06600
N 	N 	0.17796 0.06082 0.60055 -0.11700
N 	N 	0.35482 0.16961 0.39810 -0.11500
C 	C 	0.85512 0.76858 0.96066 0.01300
C 	C 	0.83945 0.73846 0.99632 -0.04900
C 	C 	0.81517 0.65385 0.99937 0.03100
C 	C 	0.80597 0.59812 0.96636 -0.08300
C 	C 	0.82019 0.62767 0.93057 0.00600
C 	C 	0.84342 0.71179 0.92743 -0.03900
H 	H 	0.84949 0.78224 0.02206 0.04600
H 	H 	0.81061 0.58411 0.90486 0.04100
C 	C 	0.85536 0.73957 0.88998 0.08600
C 	C 	0.80207 0.62560 0.03671 0.05500
N 	N 	0.86499 0.76191 0.86000 -0.11700
N 	N 	0.79155 0.60288 0.06660 -0.11400
C 	C 	0.80630 0.15025 0.97157 -0.07800
C 	C 	0.82728 0.12411 0.00450 -0.00000
C 	C 	0.85146 0.06676 0.00054 -0.05200
C 	C 	0.85540 0.03499 0.96325 0.02900
C 	C 	0.83172 0.05879 0.93013 -0.06200
C 	C 	0.80710 0.11601 0.93405 0.02500
H 	H 	0.82539 0.14902 0.03335 0.01600
H 	H 	0.83502 0.03481 0.90141 0.05400
C 	C 	0.78132 0.13777 0.89939 0.07600
C 	C 	0.87457 0.04268 0.03506 0.08500
N 	N 	0.76067 0.15504 0.87157 -0.10600
N 	N 	0.89313 0.02335 0.06267 -0.11700
C 	C 	0.33104 0.16999 0.96625 -0.08500
C 	C 	0.29590 0.17449 0.99943 0.02200
C 	C 	0.20172 0.12406 0.99751 -0.03500
C 	C 	0.14177 0.06857 0.96201 0.01700
C 	C 	0.17678 0.06410 0.92883 -0.06100
C 	C 	0.27095 0.11404 0.93078 0.02500
H 	H 	0.34200 0.21779 0.02667 0.03400
H 	H 	0.13051 0.02062 0.90165 0.05400
C 	C 	0.30528 0.10529 0.89665 0.06300
C 	C 	0.16698 0.12880 0.03218 0.07500
N 	N 	0.33280 0.09831 0.86933 -0.12000
N 	N 	0.13904 0.13254 0.05991 -0.11500
