data_crystal

_cell_length_a 23.21393
_cell_length_b 23.41747
_cell_length_c 26.63374
_cell_angle_alpha 95.48348
_cell_angle_beta  95.48310
_cell_angle_gamma 125.93482

_symmetry_space_group_name_	'P 1'
_symmetry_space_group_name_H-M	'P 1'

loop_
_symmetry_equiv_pos_as_xyz
  x,y,z

loop_
_atom_site_label
_atom_site_type_symbol
_atom_site_fract_x
_atom_site_fract_y
_atom_site_fract_z
_atom_site_charge
C 	C 	0.95142 0.02904 0.99833 0.10100
N 	N 	0.02227 0.06561 0.99421 -0.12800
C 	C 	0.05187 0.03008 0.98951 0.12200
C 	C 	0.93905 0.00555 0.44212 0.10500
N 	N 	0.01211 0.04584 0.44619 -0.12800
C 	C 	0.04635 0.01496 0.45102 0.10800
Cu	Cu	0.62121 0.22852 0.00353 0.92700
Cu	Cu	0.68053 0.22968 0.89646 0.86900
Cu	Cu	0.65750 0.33884 0.93447 0.89600
Cu	Cu	0.61784 0.35899 0.03522 0.89600
C 	C 	0.64019 0.28367 0.11009 0.29200
O 	O 	0.51472 0.18360 0.00162 -0.36300
C 	C 	0.65477 0.29727 0.82531 0.28800
O 	O 	0.67722 0.33971 0.00647 -0.63700
O 	O 	0.61203 0.23403 0.92966 -0.64000
O 	O 	0.66739 0.17858 0.00285 -0.37100
O 	O 	0.74774 0.25222 0.95542 -0.44400
O 	O 	0.60616 0.31054 0.09538 -0.38500
O 	O 	0.70779 0.44164 0.94378 -0.38300
C 	C 	0.70458 0.48061 0.98103 0.30400
C 	C 	0.48530 0.21271 0.98263 0.28100
O 	O 	0.52716 0.27887 0.97502 -0.39500
O 	O 	0.65637 0.45090 0.01109 -0.39000
O 	O 	0.64545 0.24202 0.07681 -0.36300
C 	C 	0.72891 0.20669 0.98672 0.28800
O 	O 	0.65079 0.33896 0.85973 -0.37500
O 	O 	0.63937 0.23577 0.83388 -0.41700
H 	H 	0.72915 0.37224 0.02274 0.16300
H 	H 	0.56190 0.20226 0.90969 0.17300
Cu	Cu	0.74395 0.34061 0.43403 0.92500
Cu	Cu	0.76203 0.29754 0.54540 0.87100
Cu	Cu	0.63942 0.30284 0.50936 0.89700
Cu	Cu	0.60814 0.33918 0.40910 0.89500
C 	C 	0.67871 0.31627 0.32887 0.29200
O 	O 	0.78618 0.44530 0.43280 -0.36600
C 	C 	0.70418 0.33390 0.61966 0.28900
O 	O 	0.63313 0.28380 0.43647 -0.63800
O 	O 	0.74537 0.35500 0.50876 -0.64000
O 	O 	0.79449 0.29435 0.43302 -0.37200
O 	O 	0.73199 0.22377 0.48943 -0.44200
O 	O 	0.64964 0.34746 0.34522 -0.38500
O 	O 	0.53543 0.24917 0.50382 -0.38000
C 	C 	0.49340 0.25261 0.46912 0.30500
C 	C 	0.75740 0.47440 0.45311 0.28300
O 	O 	0.69318 0.43296 0.46501 -0.39200
O 	O 	0.52064 0.30244 0.44042 -0.39500
O 	O 	0.72297 0.31207 0.36070 -0.36400
C 	C 	0.77110 0.23714 0.45366 0.28700
O 	O 	0.64466 0.30307 0.58448 -0.38500
O 	O 	0.76404 0.34821 0.60655 -0.42100
H 	H 	0.60096 0.23217 0.42059 0.16200
H 	H 	0.77514 0.40592 0.52616 0.17200
C 	C 	0.63482 0.33248 0.74373 -0.04300
C 	C 	0.67550 0.31913 0.77599 -0.09200
C 	C 	0.73318 0.32217 0.75939 0.09500
C 	C 	0.74290 0.32887 0.70858 -0.04300
C 	C 	0.69956 0.33807 0.67506 -0.09700
C 	C 	0.64891 0.34562 0.69418 0.10900
N 	N 	0.61708 0.36935 0.66667 -0.19700
H 	H 	0.59279 0.33348 0.75730 0.05100
H 	H 	0.78397 0.32620 0.69501 0.03800
N 	N 	0.78018 0.31996 0.79229 -0.19700
H 	H 	0.57635 0.37020 0.67945 0.08800
H 	H 	0.63654 0.39270 0.63491 0.09300
H 	H 	0.77974 0.32340 0.83160 0.05000
H 	H 	0.82049 0.31873 0.77910 0.07200
C 	C 	0.71969 0.34605 0.19555 -0.04700
C 	C 	0.65553 0.28497 0.16530 -0.09100
C 	C 	0.60291 0.22999 0.18907 0.11200
C 	C 	0.61401 0.23924 0.24293 -0.04700
C 	C 	0.67601 0.30246 0.27326 -0.09000
C 	C 	0.73040 0.35571 0.24942 0.11100
N 	N 	0.79218 0.41673 0.27788 -0.20000
H 	H 	0.76031 0.38757 0.17719 0.03800
H 	H 	0.57293 0.19816 0.26129 0.03900
N 	N 	0.54121 0.16893 0.16058 -0.20000
H 	H 	0.83142 0.45617 0.25989 0.08400
H 	H 	0.80231 0.42548 0.31793 0.10100
H 	H 	0.53159 0.15979 0.12051 0.10200
H 	H 	0.50219 0.12923 0.17853 0.08400
C 	C 	0.79096 0.55120 0.45442 -0.09100
H 	H 	0.75036 0.56286 0.52152 0.03000
C 	C 	0.84650 0.10951 0.43267 0.03400
C 	C 	0.88985 0.18118 0.42602 -0.06900
C 	C 	0.86369 0.22197 0.42968 0.01400
C 	C 	0.90356 0.03926 0.43800 -0.03200
C 	C 	0.74946 0.11848 0.44429 0.01400
C 	C 	0.77572 0.07786 0.44064 -0.07000
C 	C 	0.87659 0.07030 0.43511 -0.01100
C 	C 	0.79403 0.19139 0.44030 -0.09500
H 	H 	0.94450 0.20594 0.41948 0.04800
H 	H 	0.89865 0.27799 0.42638 0.03100
H 	H 	0.69520 0.09382 0.45165 0.02800
H 	H 	0.74161 0.02234 0.44532 0.04700
C 	C 	0.27603 0.13569 0.46484 -0.00500
C 	C 	0.23014 0.06606 0.43566 -0.03000
C 	C 	0.15512 0.02730 0.43021 -0.04200
C 	C 	0.41737 0.21093 0.46952 -0.10700
C 	C 	0.17145 0.12798 0.48304 -0.02800
C 	C 	0.24661 0.16674 0.48837 -0.03400
C 	C 	0.35309 0.17662 0.46818 0.04600
C 	C 	0.12531 0.05788 0.45409 -0.00700
H 	H 	0.25255 0.04207 0.41692 0.03700
H 	H 	0.14921 0.15198 0.50200 0.04500
H 	H 	0.28187 0.22085 0.51069 0.04300
C 	C 	0.85166 0.12547 0.00684 0.04400
C 	C 	0.77911 0.08383 0.01277 -0.07500
C 	C 	0.73979 0.11159 0.00890 0.02400
C 	C 	0.91898 0.06556 0.00202 -0.02400
C 	C 	0.84660 0.22407 0.99555 0.01900
C 	C 	0.88573 0.19613 0.99935 -0.08000
C 	C 	0.88928 0.09384 0.00464 -0.01500
C 	C 	0.77279 0.18124 0.99884 -0.10500
H 	H 	0.75256 0.02928 0.01895 0.05100
H 	H 	0.68309 0.07801 0.01183 0.03200
H 	H 	0.87320 0.27837 0.98883 0.02600
H 	H 	0.94201 0.22887 0.99524 0.04800
C 	C 	0.26375 0.12407 0.98361 0.03000
C 	C 	0.29989 0.16846 0.94867 -0.06600
C 	C 	0.37135 0.19484 0.94663 0.01400
C 	C 	0.12704 0.06797 0.98687 -0.03300
C 	C 	0.36998 0.13091 0.01367 0.01900
C 	C 	0.29864 0.10471 0.01565 -0.06300
C 	C 	0.18965 0.09532 0.98504 -0.00400
C 	C 	0.40717 0.17700 0.97966 -0.09500
H 	H 	0.27282 0.18274 0.92322 0.05000
H 	H 	0.39914 0.22982 0.91988 0.03200
H 	H 	0.39694 0.11704 0.03962 0.03500
H 	H 	0.27062 0.06964 0.04232 0.04900
H 	H 	0.83724 0.55709 0.38656 0.03400
C 	C 	0.74457 0.55619 0.98255 -0.10800
C 	C 	0.82807 0.58525 0.41552 0.01500
C 	C 	0.77867 0.58833 0.49119 0.01400
N 	N 	0.01092 0.95859 0.98910 -0.12300
C 	C 	0.94036 0.92209 0.99336 0.11000
N 	N 	0.91057 0.95736 0.99785 -0.13000
N 	N 	0.00743 0.94385 0.45198 -0.12300
C 	C 	0.93460 0.90332 0.44787 0.11900
N 	N 	0.90005 0.93403 0.44293 -0.12900
C 	C 	0.83792 0.69142 0.44912 0.03500
C 	C 	0.85135 0.65503 0.41289 -0.06800
C 	C 	0.89470 0.82777 0.44804 -0.03100
C 	C 	0.80210 0.65814 0.48851 -0.06700
C 	C 	0.86675 0.76518 0.44846 -0.00600
H 	H 	0.87995 0.68081 0.38273 0.04900
H 	H 	0.79261 0.68634 0.51719 0.05000
H 	H 	0.12013 0.97354 0.40736 0.05900
C 	C 	0.81787 0.69605 0.98792 -0.00600
C 	C 	0.78596 0.72395 0.96329 -0.03600
C 	C 	0.82523 0.79809 0.96617 -0.02400
C 	C 	0.92798 0.81649 0.01909 -0.02000
C 	C 	0.88866 0.74246 0.01615 -0.03400
C 	C 	0.77787 0.61987 0.98464 0.04500
C 	C 	0.89675 0.84467 0.99366 -0.01800
H 	H 	0.73100 0.68826 0.94163 0.04300
H 	H 	0.80066 0.81913 0.94618 0.04400
H 	H 	0.98283 0.85195 0.04092 0.04200
H 	H 	0.91336 0.72118 0.03566 0.04000
