data_crystal

_cell_length_a 38.40110
_cell_length_b 34.20265
_cell_length_c 27.69013
_cell_angle_alpha 92.64784
_cell_angle_beta  85.31460
_cell_angle_gamma 123.95477

_symmetry_space_group_name_	'P 1'
_symmetry_space_group_name_H-M	'P 1'

loop_
_symmetry_equiv_pos_as_xyz
  x,y,z

loop_
_atom_site_label
_atom_site_type_symbol
_atom_site_fract_x
_atom_site_fract_y
_atom_site_fract_z
_atom_site_charge
C 	C 	0.02996 0.02160 0.03546 0.02400
C 	C 	0.03440 0.06045 0.01328 -0.01900
C 	C 	0.06624 0.03308 0.05869 -0.05700
S 	S 	0.08280 0.10698 0.02118 0.00000
H 	H 	0.01903 0.12238 0.97324 0.05000
C 	C 	0.09867 0.08099 0.05475 0.00200
H 	H 	0.07069 0.00690 0.07177 0.05100
C 	C 	0.22840 0.13440 0.06615 0.01900
C 	C 	0.20152 0.12384 0.10808 -0.04100
C 	C 	0.15904 0.10601 0.10425 -0.03600
C 	C 	0.14318 0.09895 0.05852 0.01200
C 	C 	0.16993 0.10902 0.01657 -0.03300
C 	C 	0.21236 0.12668 0.02036 -0.03900
H 	H 	0.21359 0.12968 0.14358 0.04400
H 	H 	0.13853 0.09806 0.13680 0.04300
H 	H 	0.15781 0.10295 0.98107 0.04100
H 	H 	0.23274 0.13421 0.98778 0.04200
C 	C 	0.02968 0.00508 0.55563 0.02500
C 	C 	0.03072 0.03908 0.52783 -0.02400
C 	C 	0.06844 0.02203 0.57591 -0.05900
S 	S 	0.07815 0.08907 0.53034 -0.00300
H 	H 	0.01707 0.10854 0.49960 0.04900
C 	C 	0.09907 0.06955 0.56506 0.00200
H 	H 	0.07345 0.00105 0.59888 0.05000
C 	C 	0.23144 0.13098 0.56484 0.01900
C 	C 	0.20457 0.08469 0.54825 -0.04300
C 	C 	0.16140 0.06468 0.54800 -0.03700
C 	C 	0.14463 0.09071 0.56469 0.01100
C 	C 	0.17154 0.13712 0.58095 -0.03700
C 	C 	0.21478 0.15716 0.58113 -0.04300
H 	H 	0.21715 0.06422 0.53560 0.04500
H 	H 	0.14105 0.02909 0.53459 0.04300
H 	H 	0.15893 0.15753 0.59374 0.04300
H 	H 	0.23533 0.19302 0.59378 0.04400
C 	C 	0.53415 0.26376 0.04722 0.29800
O 	O 	0.56200 0.30860 0.04846 -0.36200
O 	O 	0.54798 0.24337 0.01927 -0.33800
C 	C 	0.53625 0.25358 0.54514 0.29900
O 	O 	0.56555 0.29609 0.55636 -0.36400
O 	O 	0.55025 0.23744 0.51144 -0.33900
C 	C 	0.40638 0.20250 0.56274 0.06900
N 	N 	0.41958 0.17853 0.53515 -0.11300
C 	C 	0.46081 0.19359 0.53031 0.07100
C 	C 	0.49114 0.23519 0.55324 -0.10000
C 	C 	0.47807 0.25983 0.58254 0.03600
C 	C 	0.43563 0.24365 0.58712 -0.07800
H 	H 	0.47008 0.17358 0.50805 0.04200
H 	H 	0.50074 0.29179 0.60105 0.04100
H 	H 	0.42565 0.26346 0.60855 0.05500
C 	C 	0.27700 0.15202 0.56491 -0.01800
C 	C 	0.29672 0.16462 0.60857 -0.01600
C 	C 	0.33933 0.18191 0.60820 -0.05800
C 	C 	0.36197 0.18671 0.56394 0.05400
N 	N 	0.34219 0.17437 0.52182 -0.10500
C 	C 	0.30068 0.15757 0.52139 0.02500
H 	H 	0.27893 0.16021 0.64267 0.03700
H 	H 	0.35444 0.19062 0.64204 0.04900
H 	H 	0.28595 0.14807 0.48725 0.03500
C 	C 	0.35811 0.18809 0.07219 0.05500
N 	N 	0.34598 0.21359 0.05129 -0.10500
C 	C 	0.30463 0.19730 0.04979 0.02500
C 	C 	0.27330 0.15342 0.07011 -0.01700
C 	C 	0.28515 0.12737 0.09309 -0.01600
C 	C 	0.32767 0.14483 0.09449 -0.05800
H 	H 	0.29608 0.21829 0.03252 0.03600
H 	H 	0.26150 0.09350 0.10929 0.03700
H 	H 	0.33692 0.12482 0.11244 0.04900
C 	C 	0.48873 0.24292 0.05757 -0.09900
C 	C 	0.45941 0.19483 0.04949 0.03600
C 	C 	0.41651 0.17628 0.05554 -0.07800
C 	C 	0.40309 0.20588 0.07036 0.06900
N 	N 	0.43206 0.25238 0.07910 -0.11300
C 	C 	0.47414 0.27122 0.07354 0.07100
H 	H 	0.46978 0.17207 0.03766 0.04300
H 	H 	0.39388 0.13947 0.04746 0.05500
H 	H 	0.49620 0.30836 0.08064 0.04100
C 	C 	0.01205 0.05387 0.97268 0.02100
Co	Co	0.69243 0.30733 0.96468 1.18400
O 	O 	0.73584 0.30164 0.91927 -0.37200
Co	Co	0.60795 0.30822 0.00243 1.18600
O 	O 	0.63326 0.27785 0.94286 -0.44400
O 	O 	0.65660 0.37566 0.00218 -0.40800
O 	O 	0.69098 0.24379 0.96398 -0.34400
C 	C 	0.69446 0.39383 0.97946 0.33700
O 	O 	0.59835 0.30693 0.92703 -0.33800
C 	C 	0.67417 0.31382 0.05915 0.27400
O 	O 	0.71021 0.32588 0.03784 -0.34200
O 	O 	0.64394 0.28930 0.03064 -0.44300
O 	O 	0.70243 0.36893 0.94790 -0.53400
C 	C 	0.72186 0.25904 0.93155 0.30100
C 	C 	0.62198 0.29296 0.90941 0.27800
H 	H 	0.72109 0.38485 0.91746 0.17800
Co	Co	0.69752 0.30291 0.46657 1.18500
O 	O 	0.74350 0.30440 0.41902 -0.37200
Co	Co	0.61280 0.30104 0.50823 1.18600
O 	O 	0.64132 0.28221 0.44080 -0.44300
O 	O 	0.66420 0.36253 0.52432 -0.41900
O 	O 	0.69450 0.23925 0.44991 -0.34100
C 	C 	0.69767 0.38836 0.49425 0.34300
O 	O 	0.61099 0.31868 0.43557 -0.34200
C 	C 	0.67104 0.28846 0.56052 0.28200
O 	O 	0.70846 0.30372 0.54143 -0.33900
O 	O 	0.64353 0.27223 0.52829 -0.44300
O 	O 	0.71320 0.36944 0.46388 -0.52600
C 	C 	0.72803 0.25990 0.42102 0.30100
C 	C 	0.63428 0.30617 0.41307 0.27400
H 	H 	0.73574 0.39003 0.43786 0.17500
C 	C 	0.64114 0.26944 0.70909 0.10100
N 	N 	0.67904 0.27954 0.69016 -0.07000
N 	N 	0.68814 0.28418 0.64243 -0.05400
C 	C 	0.65942 0.27831 0.61227 0.03600
N 	N 	0.62114 0.26704 0.63107 -0.06600
N 	N 	0.61217 0.26284 0.67883 -0.07000
C 	C 	0.62372 0.28121 0.85818 0.03400
N 	N 	0.59797 0.28169 0.82778 -0.05400
N 	N 	0.60240 0.27590 0.78029 -0.07000
C 	C 	0.63308 0.27012 0.76177 0.10000
N 	N 	0.65844 0.26893 0.79227 -0.07000
N 	N 	0.65369 0.27419 0.83985 -0.06900
C 	C 	0.64731 0.30262 0.26246 0.10000
N 	N 	0.61902 0.31061 0.28474 -0.07000
N 	N 	0.61459 0.31134 0.33294 -0.05400
C 	C 	0.63787 0.30341 0.36019 0.03500
N 	N 	0.66581 0.29487 0.33794 -0.06900
N 	N 	0.67063 0.29473 0.28973 -0.07100
C 	C 	0.66673 0.30981 0.11191 0.03700
N 	N 	0.69696 0.31600 0.13973 -0.05500
N 	N 	0.69047 0.31294 0.18780 -0.07000
C 	C 	0.65380 0.30428 0.20944 0.10000
N 	N 	0.62363 0.29832 0.18162 -0.07000
N 	N 	0.62992 0.30078 0.13348 -0.06600
H 	H 	0.75694 0.60248 0.46819 0.04700
C 	C 	0.72060 0.44011 0.49801 -0.13000
C 	C 	0.69854 0.46176 0.50199 0.04900
C 	C 	0.72025 0.51038 0.50859 -0.08500
C 	C 	0.76415 0.53716 0.51076 0.07100
C 	C 	0.76442 0.46793 0.50067 0.07800
H 	H 	0.66464 0.44093 0.50044 0.02700
H 	H 	0.70306 0.52699 0.51296 0.05600
H 	H 	0.80453 0.13261 0.37050 0.04800
C 	C 	0.75444 0.24106 0.41243 -0.10200
C 	C 	0.73635 0.19258 0.41608 0.03800
C 	C 	0.76210 0.17578 0.41568 -0.07800
H 	H 	0.70251 0.16817 0.42092 0.04100
H 	H 	0.74815 0.13854 0.42104 0.05500
C 	C 	0.72515 0.44536 0.98171 -0.12800
C 	C 	0.76806 0.46431 0.98402 0.04100
C 	C 	0.78217 0.54262 0.98385 0.07100
N 	N 	0.74030 0.52347 0.98141 -0.11700
C 	C 	0.71178 0.47597 0.98067 0.08100
H 	H 	0.67878 0.46203 0.97841 0.03300
C 	C 	0.74786 0.23946 0.92618 -0.10200
C 	C 	0.73333 0.19593 0.94711 0.03700
H 	H 	0.70217 0.17521 0.96525 0.04200
C 	C 	0.78753 0.58817 0.52043 0.05300
C 	C 	0.77991 0.61715 0.49531 -0.05800
N 	N 	0.78505 0.51538 0.50703 -0.11700
H 	H 	0.78196 0.45172 0.49877 0.02300
C 	C 	0.80599 0.20767 0.41121 0.06900
C 	C 	0.79836 0.27160 0.40521 0.07200
N 	N 	0.80860 0.61994 0.94961 -0.10600
C 	C 	0.79674 0.51310 0.98501 -0.08400
H 	H 	0.77913 0.44136 0.98494 0.02200
C 	C 	0.75937 0.17948 0.94539 -0.07900
H 	H 	0.74837 0.14613 0.96215 0.05600
C 	C 	0.78798 0.26470 0.90176 0.07000
H 	H 	0.79957 0.29796 0.88444 0.03800
C 	C 	0.88113 0.08693 0.94587 -0.04300
H 	H 	0.88872 0.03242 0.96626 0.04300
H 	H 	0.84931 0.06931 0.96223 0.04400
C 	C 	0.88996 0.74416 0.98449 0.01900
C 	C 	0.87077 0.76912 0.99067 -0.04300
C 	C 	0.89534 0.81838 0.99081 -0.03700
H 	H 	0.83682 0.75033 0.99553 0.04500
H 	H 	0.88018 0.83725 0.99600 0.04200
C 	C 	0.88972 0.11999 0.51439 -0.04300
H 	H 	0.86828 0.12490 0.53751 0.04600
C 	C 	0.85748 0.73519 0.54950 0.01900
C 	C 	0.83977 0.75440 0.58011 -0.04300
C 	C 	0.86329 0.80262 0.59057 -0.03700
H 	H 	0.80789 0.73194 0.59593 0.04500
H 	H 	0.84942 0.81713 0.61441 0.04200
N 	N 	0.81769 0.60754 0.55311 -0.10500
C 	C 	0.84028 0.65455 0.56293 0.02500
C 	C 	0.83300 0.68435 0.53914 -0.01800
C 	C 	0.80259 0.66535 0.50503 -0.01600
H 	H 	0.86391 0.66878 0.58924 0.03600
H 	H 	0.79679 0.68790 0.48589 0.03700
C 	C 	0.83363 0.19191 0.41987 0.05400
N 	N 	0.86371 0.21563 0.45236 -0.10500
C 	C 	0.88657 0.19918 0.46586 0.02500
C 	C 	0.87956 0.15701 0.44630 -0.01800
C 	C 	0.85047 0.13351 0.41089 -0.01600
C 	C 	0.82755 0.15111 0.39736 -0.05800
H 	H 	0.84475 0.10102 0.39504 0.03700
N 	N 	0.82297 0.25450 0.40534 -0.11400
H 	H 	0.81304 0.30914 0.40135 0.03800
C 	C 	0.81193 0.59422 0.98284 0.05000
C 	C 	0.83391 0.66788 0.94903 0.02500
C 	C 	0.86389 0.69211 0.98353 -0.02000
C 	C 	0.86788 0.66635 0.01793 -0.01400
C 	C 	0.84182 0.61724 0.01770 -0.05500
H 	H 	0.83050 0.68719 0.92197 0.03400
H 	H 	0.89059 0.68432 0.04519 0.03800
H 	H 	0.84420 0.59725 0.04495 0.04900
H 	H 	0.83004 0.52789 0.98602 0.05500
C 	C 	0.82866 0.19113 0.92323 0.05500
N 	N 	0.84372 0.18237 0.88076 -0.10700
C 	C 	0.86756 0.16420 0.88014 0.02400
C 	C 	0.87728 0.15424 0.92377 -0.01700
C 	C 	0.86341 0.16470 0.96769 -0.01900
C 	C 	0.83904 0.18320 0.96750 -0.06000
H 	H 	0.87824 0.15662 0.84579 0.03500
H 	H 	0.87101 0.15788 0.00182 0.04000
H 	H 	0.82774 0.19070 0.00146 0.05200
C 	C 	0.79987 0.20659 0.92251 0.06800
N 	N 	0.81291 0.24786 0.90043 -0.11500
C 	C 	0.89950 0.13539 0.46611 0.01900
H 	H 	0.89879 0.08518 0.56987 0.04400
S 	S 	0.94771 0.00915 0.92667 -0.00500
C 	C 	0.95502 0.92281 0.96249 -0.05800
C 	C 	0.96545 0.89509 0.98502 -0.00100
H 	H 	0.93576 0.91098 0.93173 0.04900
C 	C 	0.90011 0.13098 0.92351 0.01800
C 	C 	0.94129 0.15337 0.90230 -0.04300
C 	C 	0.94467 0.08831 0.92675 0.01100
C 	C 	0.90335 0.06581 0.94774 -0.03700
H 	H 	0.95627 0.18745 0.88512 0.04400
C 	C 	0.93939 0.84318 0.98479 0.01200
C 	C 	0.95861 0.81825 0.97924 -0.03700
C 	C 	0.93401 0.76894 0.97892 -0.04300
H 	H 	0.94913 0.75001 0.97404 0.04400
S 	S 	0.91837 0.00688 0.53828 -0.00200
C 	C 	0.91824 0.91310 0.56687 -0.05900
C 	C 	0.92917 0.88281 0.58147 0.00200
H 	H 	0.88859 0.90044 0.55159 0.05000
C 	C 	0.92714 0.12864 0.43643 -0.04300
C 	C 	0.94443 0.10609 0.45476 -0.03700
C 	C 	0.93415 0.09010 0.50294 0.01100
C 	C 	0.90692 0.09739 0.53268 -0.03600
H 	H 	0.93488 0.14044 0.39910 0.04400
C 	C 	0.90469 0.83197 0.57050 0.01100
C 	C 	0.92219 0.81275 0.53931 -0.03600
C 	C 	0.89871 0.76451 0.52908 -0.04300
H 	H 	0.91248 0.74994 0.50514 0.04500
H 	H 	0.90944 0.21823 0.49275 0.03600
C 	C 	0.98279 0.00777 0.95665 -0.02100
C 	C 	0.97402 0.96867 0.98269 0.02100
C 	C 	0.96895 0.06721 0.93034 0.00200
C 	C 	0.96348 0.13213 0.90396 -0.03700
H 	H 	0.99538 0.14986 0.88782 0.04200
H 	H 	0.99258 0.83706 0.97479 0.04200
C 	C 	0.95444 0.99409 0.53417 -0.02400
C 	C 	0.95304 0.96080 0.56346 0.02600
C 	C 	0.94974 0.06338 0.52158 0.00200
H 	H 	0.96507 0.10019 0.43129 0.04200
H 	H 	0.95372 0.83518 0.52258 0.04300
C 	C 	0.99093 0.96742 0.57543 -0.02300
C 	C 	0.99795 0.97582 0.02194 -0.01900
C 	C 	0.00424 0.08733 0.95782 -0.05800
S 	S 	0.99665 0.92695 0.02949 -0.00100
C 	C 	0.99333 0.03532 0.51969 0.02600
C 	C 	0.99056 0.07418 0.51164 -0.05900
S 	S 	0.98102 0.91493 0.58799 -0.00400
