data_crystal

_cell_length_a 27.65822
_cell_length_b 28.17883
_cell_length_c 35.00777
_cell_angle_alpha 95.50930
_cell_angle_beta  95.50421
_cell_angle_gamma 125.65507

_symmetry_space_group_name_	'P 1'
_symmetry_space_group_name_H-M	'P 1'

loop_
_symmetry_equiv_pos_as_xyz
  x,y,z

loop_
_atom_site_label
_atom_site_type_symbol
_atom_site_fract_x
_atom_site_fract_y
_atom_site_fract_z
_atom_site_charge
C 	C 	0.97022 0.02222 0.99169 0.12600
N 	N 	0.02944 0.05304 0.98844 -0.13700
C 	C 	0.05499 0.02425 0.98438 0.12900
N 	N 	0.02144 0.96489 0.98355 -0.13500
C 	C 	0.96239 0.93412 0.98675 0.13400
N 	N 	0.93668 0.96272 0.99079 -0.13600
C 	C 	0.93888 0.00177 0.45391 0.12600
N 	N 	0.90738 0.94278 0.45495 -0.13500
C 	C 	0.93695 0.91765 0.45724 0.13400
N 	N 	0.99759 0.95137 0.45852 -0.13800
C 	C 	0.02892 0.01007 0.45750 0.13100
N 	N 	0.99962 0.03530 0.45520 -0.14000
Cu	Cu	0.64620 0.24656 0.00091 0.92700
Cu	Cu	0.69458 0.24902 0.91893 0.86900
Cu	Cu	0.67759 0.33897 0.94938 0.89700
Cu	Cu	0.64868 0.35769 0.02690 0.89500
C 	C 	0.66589 0.29250 0.08238 0.28800
O 	O 	0.55825 0.21288 0.00064 -0.36500
C 	C 	0.66492 0.30118 0.86452 0.28500
O 	O 	0.69575 0.33906 0.00372 -0.64100
O 	O 	0.63754 0.25190 0.94504 -0.64000
O 	O 	0.68263 0.20295 0.99853 -0.37400
O 	O 	0.75045 0.26489 0.96317 -0.44400
O 	O 	0.63874 0.31667 0.07221 -0.38400
O 	O 	0.72202 0.42447 0.95665 -0.38500
C 	C 	0.71978 0.45804 0.98440 0.31300
C 	C 	0.53509 0.23823 0.98589 0.30400
O 	O 	0.57091 0.29361 0.98140 -0.39500
O 	O 	0.68353 0.43535 0.00991 -0.39600
O 	O 	0.66742 0.25641 0.05633 -0.36100
C 	C 	0.73383 0.22585 0.98605 0.31200
O 	O 	0.66835 0.33866 0.89264 -0.37900
O 	O 	0.65813 0.25265 0.87142 -0.42000
H 	H 	0.73945 0.36483 0.01541 0.16400
H 	H 	0.59559 0.22648 0.92992 0.17500
Cu	Cu	0.73464 0.34209 0.45020 0.92700
Cu	Cu	0.73765 0.30362 0.53545 0.87100
Cu	Cu	0.63926 0.30955 0.50113 0.89700
Cu	Cu	0.61884 0.33499 0.42223 0.89500
C 	C 	0.68686 0.31768 0.36813 0.28800
O 	O 	0.76725 0.42770 0.44796 -0.36200
C 	C 	0.68371 0.33598 0.58690 0.28700
O 	O 	0.64032 0.29184 0.44709 -0.64000
O 	O 	0.72880 0.35327 0.50578 -0.64100
O 	O 	0.77974 0.30681 0.45466 -0.37300
O 	O 	0.72015 0.24471 0.49362 -0.44300
O 	O 	0.66020 0.34281 0.37689 -0.38300
O 	O 	0.55175 0.26249 0.49297 -0.38300
C 	C 	0.51715 0.26326 0.46466 0.30900
C 	C 	0.73965 0.44982 0.46052 0.30100
O 	O 	0.68382 0.41404 0.46597 -0.39300
O 	O 	0.54026 0.30075 0.44024 -0.39400
O 	O 	0.72468 0.31880 0.39505 -0.36100
C 	C 	0.75762 0.25826 0.46929 0.30700
O 	O 	0.63774 0.31453 0.55777 -0.38400
O 	O 	0.73389 0.34354 0.58083 -0.42000
H 	H 	0.61542 0.24885 0.43582 0.16400
H 	H 	0.75249 0.39517 0.51936 0.17400
C 	C 	0.64314 0.35290 0.77272 -0.06300
C 	C 	0.66560 0.33217 0.74700 0.01900
C 	C 	0.68720 0.30101 0.75977 -0.06400
C 	C 	0.68666 0.29077 0.79800 0.01100
C 	C 	0.66447 0.31161 0.82398 -0.08700
C 	C 	0.64268 0.34280 0.81115 0.01400
C 	C 	0.66677 0.34295 0.70665 0.01800
H 	H 	0.70456 0.28482 0.74003 0.04300
H 	H 	0.70413 0.26718 0.80757 0.02200
H 	H 	0.62507 0.35882 0.83076 0.03800
H 	H 	0.62622 0.37689 0.76302 0.04800
C 	C 	0.61495 0.30428 0.67752 -0.06200
C 	C 	0.61939 0.30503 0.63807 0.01000
C 	C 	0.67585 0.34437 0.62751 -0.08700
C 	C 	0.72652 0.38650 0.65675 0.01200
C 	C 	0.72199 0.38569 0.69615 -0.06300
H 	H 	0.57196 0.27151 0.68539 0.04600
H 	H 	0.57971 0.27280 0.61584 0.03700
H 	H 	0.76999 0.41817 0.64900 0.03100
H 	H 	0.76207 0.41630 0.71849 0.04500
C 	C 	0.71437 0.34596 0.19139 -0.06200
C 	C 	0.69118 0.29240 0.20464 0.02000
C 	C 	0.66494 0.23975 0.17757 -0.06200
C 	C 	0.65959 0.24023 0.13748 0.01600
C 	C 	0.68002 0.29335 0.12418 -0.08300
C 	C 	0.70867 0.34642 0.15135 0.01200
C 	C 	0.68904 0.29060 0.24641 0.02000
H 	H 	0.64716 0.19822 0.18755 0.04700
H 	H 	0.63741 0.19897 0.11681 0.04000
H 	H 	0.72512 0.38774 0.14142 0.02300
H 	H 	0.73491 0.38687 0.21210 0.04700
C 	C 	0.74279 0.31876 0.27387 -0.06200
C 	C 	0.74172 0.32461 0.31387 0.01600
C 	C 	0.68689 0.30274 0.32666 -0.08200
C 	C 	0.63279 0.27206 0.29915 0.01200
C 	C 	0.63384 0.26588 0.25921 -0.06200
H 	H 	0.78558 0.33769 0.26424 0.04700
H 	H 	0.78379 0.34832 0.33481 0.04000
H 	H 	0.59015 0.25449 0.30870 0.02300
H 	H 	0.59208 0.24381 0.23819 0.04700
C 	C 	0.85407 0.74153 0.45795 0.01700
C 	C 	0.81730 0.71183 0.48487 -0.04300
C 	C 	0.79545 0.65309 0.48627 -0.02900
C 	C 	0.81036 0.62390 0.46078 -0.00900
C 	C 	0.84674 0.65349 0.43370 -0.02800
C 	C 	0.86854 0.71213 0.43229 -0.04300
C 	C 	0.78616 0.56273 0.46118 0.04600
C 	C 	0.76605 0.51154 0.46137 -0.10900
C 	C 	0.88088 0.80351 0.45857 0.00500
C 	C 	0.90448 0.85534 0.45798 -0.03600
H 	H 	0.80619 0.73433 0.50496 0.04500
H 	H 	0.76697 0.63037 0.50711 0.04000
H 	H 	0.85811 0.63110 0.41373 0.04100
H 	H 	0.89722 0.73489 0.41155 0.04600
C 	C 	0.85855 0.08586 0.44961 0.01700
C 	C 	0.81160 0.07097 0.46987 -0.04500
C 	C 	0.78980 0.10505 0.47143 -0.02900
C 	C 	0.81486 0.15420 0.45275 -0.01100
C 	C 	0.86062 0.16807 0.43155 -0.02800
C 	C 	0.88242 0.13397 0.42997 -0.04400
C 	C 	0.79599 0.19226 0.45735 0.04700
C 	C 	0.77895 0.22295 0.46193 -0.11800
C 	C 	0.88531 0.05466 0.45133 0.00200
C 	C 	0.90847 0.02927 0.45234 -0.03700
H 	H 	0.79286 0.03385 0.48508 0.04300
H 	H 	0.75429 0.09393 0.48780 0.03600
H 	H 	0.88012 0.20586 0.41694 0.04000
H 	H 	0.91867 0.14572 0.41419 0.04500
C 	C 	0.33600 0.17018 0.46397 -0.00900
C 	C 	0.29766 0.10834 0.45146 -0.02900
C 	C 	0.23532 0.07660 0.45012 -0.04400
C 	C 	0.21105 0.10658 0.46129 0.01700
C 	C 	0.24940 0.16841 0.47391 -0.04400
C 	C 	0.31179 0.20018 0.47525 -0.02800
C 	C 	0.14691 0.07373 0.46012 0.00400
C 	C 	0.09306 0.04533 0.45892 -0.03800
C 	C 	0.39997 0.20292 0.46440 0.04700
C 	C 	0.45352 0.23023 0.46473 -0.10800
H 	H 	0.31608 0.08490 0.44264 0.03800
H 	H 	0.20594 0.02878 0.44039 0.04400
H 	H 	0.23094 0.19185 0.48265 0.04500
H 	H 	0.34117 0.24802 0.48489 0.04100
C 	C 	0.80744 0.63422 0.98241 -0.00900
C 	C 	0.87021 0.67128 0.98421 -0.02800
C 	C 	0.90049 0.73207 0.98491 -0.04300
C 	C 	0.86811 0.75605 0.98379 0.01700
C 	C 	0.80525 0.71895 0.98174 -0.04300
C 	C 	0.77494 0.65810 0.98105 -0.02700
C 	C 	0.89955 0.81871 0.98484 0.00500
C 	C 	0.92732 0.87136 0.98576 -0.03700
C 	C 	0.77666 0.57202 0.98293 0.04900
C 	C 	0.75093 0.51992 0.98337 -0.10900
H 	H 	0.89559 0.65310 0.98531 0.03900
H 	H 	0.94910 0.76053 0.98644 0.04500
H 	H 	0.77993 0.73720 0.98081 0.04600
H 	H 	0.72637 0.62966 0.97968 0.04100
C 	C 	0.82921 0.15798 0.99820 -0.01200
C 	C 	0.87427 0.17535 0.97569 -0.02900
C 	C 	0.90478 0.14960 0.97597 -0.04600
C 	C 	0.89042 0.10635 0.99876 0.01800
C 	C 	0.84643 0.09002 0.02205 -0.04600
C 	C 	0.81585 0.11580 0.02177 -0.02900
C 	C 	0.91859 0.07664 0.99665 0.00200
C 	C 	0.94247 0.05207 0.99465 -0.03700
C 	C 	0.79445 0.18095 0.99524 0.04900
C 	C 	0.76644 0.20125 0.99190 -0.12200
H 	H 	0.88489 0.20801 0.95745 0.03500
H 	H 	0.93882 0.16252 0.95796 0.04400
H 	H 	0.83521 0.05672 0.03985 0.04400
H 	H 	0.78116 0.10225 0.03931 0.04000
C 	C 	0.35463 0.16064 0.97551 -0.01000
C 	C 	0.31089 0.09948 0.96190 -0.02800
C 	C 	0.24975 0.07358 0.96196 -0.04400
C 	C 	0.23214 0.10876 0.97565 0.01700
C 	C 	0.27570 0.17018 0.98825 -0.04400
C 	C 	0.33685 0.19609 0.98817 -0.02800
C 	C 	0.17002 0.08114 0.97902 0.00400
C 	C 	0.11760 0.05639 0.98141 -0.03700
C 	C 	0.41793 0.18653 0.97853 0.04800
C 	C 	0.47123 0.20933 0.98137 -0.11100
H 	H 	0.32430 0.07184 0.95197 0.03900
H 	H 	0.21626 0.02605 0.95209 0.04400
H 	H 	0.26239 0.19766 0.99878 0.04500
H 	H 	0.37045 0.24347 0.99862 0.03900
