data_crystal

_cell_length_a 27.33386
_cell_length_b 28.83460
_cell_length_c 30.68030
_cell_angle_alpha 61.16551
_cell_angle_beta  118.48834
_cell_angle_gamma 133.20124

_symmetry_space_group_name_	'P 1'
_symmetry_space_group_name_H-M	'P 1'

loop_
_symmetry_equiv_pos_as_xyz
  x,y,z

loop_
_atom_site_label
_atom_site_type_symbol
_atom_site_fract_x
_atom_site_fract_y
_atom_site_fract_z
_atom_site_charge
C 	C 	0.72007 0.31519 0.01467 0.29000
N 	N 	0.75868 0.36877 0.03305 -0.09900
C 	C 	0.72690 0.38443 0.04080 0.28700
N 	N 	0.65719 0.34700 0.02991 -0.11500
C 	C 	0.61873 0.29249 0.01343 0.29900
N 	N 	0.65014 0.27679 0.00546 -0.10500
C 	C 	0.78398 0.32887 0.58539 0.29600
N 	N 	0.72909 0.28911 0.60679 -0.10200
C 	C 	0.71042 0.31563 0.61679 0.29400
N 	N 	0.74659 0.38165 0.60544 -0.11200
C 	C 	0.80118 0.42150 0.58412 0.29800
N 	N 	0.82001 0.39523 0.57394 -0.10000
C 	C 	0.27323 0.62922 0.27778 0.28600
N 	N 	0.22936 0.57252 0.26226 -0.10100
C 	C 	0.25505 0.54949 0.25621 0.29000
N 	N 	0.32406 0.58275 0.26588 -0.11100
C 	C 	0.36802 0.63945 0.28077 0.28800
N 	N 	0.34265 0.66276 0.28684 -0.09700
C 	C 	0.26679 0.66581 0.72444 0.29100
N 	N 	0.22644 0.59919 0.73568 -0.10300
C 	C 	0.24379 0.56828 0.73032 0.29600
N 	N 	0.30103 0.60381 0.71342 -0.11100
C 	C 	0.34087 0.67022 0.70126 0.29100
N 	N 	0.32395 0.70143 0.70691 -0.10000
Co	Co	0.07789 0.96068 0.16811 1.19900
Co	Co	0.90046 0.96311 0.12143 1.20200
Co	Co	0.02868 0.01363 0.20180 1.19700
Co	Co	0.95140 0.91399 0.08611 1.20900
C 	C 	0.07736 0.83990 0.21529 0.40800
Co	Co	0.05000 0.87886 0.10282 1.19000
Co	Co	0.91163 0.02235 0.19539 1.19900
C 	C 	0.00354 0.94261 0.99912 0.35400
O 	O 	0.00947 0.09359 0.22850 -0.37300
O 	O 	0.95161 0.00137 0.16931 -0.72300
C 	C 	0.06122 0.13460 0.20617 0.42300
O 	O 	0.10654 0.01002 0.21538 -0.36900
O 	O 	0.87493 0.92001 0.07070 -0.38300
C 	C 	0.87757 0.06942 0.08249 0.41500
O 	O 	0.00194 0.98560 0.13177 -0.56600
C 	C 	0.96994 0.96196 0.29199 0.41600
C 	C 	0.18497 0.00411 0.12460 0.42700
C 	C 	0.89914 0.78084 0.09445 0.42300
O 	O 	0.08177 0.11280 0.19419 -0.32300
O 	O 	0.15418 0.94127 0.13383 -0.33900
O 	O 	0.16570 0.02465 0.13933 -0.31600
O 	O 	0.91692 0.08815 0.12553 -0.32300
O 	O 	0.87155 0.02619 0.07128 -0.31100
O 	O 	0.91181 0.95447 0.26341 -0.32800
O 	O 	0.00566 0.96118 0.27457 -0.34400
O 	O 	0.94776 0.81232 0.07141 -0.34900
O 	O 	0.89660 0.81290 0.11170 -0.34200
O 	O 	0.02736 0.92509 0.11831 -0.76200
C 	C 	0.79020 0.89173 0.17302 0.42300
O 	O 	0.81027 0.95077 0.16589 -0.35500
O 	O 	0.82555 0.88410 0.16268 -0.34900
O 	O 	0.03808 0.81669 0.17429 -0.34200
O 	O 	0.07574 0.88005 0.22345 -0.33500
O 	O 	0.05795 0.94548 0.03275 -0.32000
O 	O 	0.96089 0.93999 0.01179 -0.29900
Co	Co	0.11599 0.02150 0.66492 1.20100
Co	Co	0.90898 0.97201 0.61446 1.20200
Co	Co	0.02375 0.02734 0.69996 1.19300
Co	Co	0.00515 0.97104 0.57867 1.18400
C 	C 	0.15622 0.93484 0.69730 0.41600
Co	Co	0.15151 0.00674 0.58744 1.19300
Co	Co	0.88468 0.00359 0.68920 1.19900
C 	C 	0.05177 0.00881 0.48710 0.39900
O 	O 	0.95403 0.10406 0.66957 -0.30000
O 	O 	0.94467 0.00473 0.66387 -0.72800
C 	C 	0.01946 0.13464 0.69447 0.37500
O 	O 	0.11173 0.03625 0.72088 -0.38000
O 	O 	0.90854 0.94169 0.56658 -0.37100
C 	C 	0.84337 0.03952 0.57639 0.42200
O 	O 	0.02278 0.02308 0.62742 -0.54600
C 	C 	0.96668 0.96998 0.78968 0.38800
C 	C 	0.25432 0.12097 0.63283 0.40700
C 	C 	0.01353 0.87024 0.58427 0.35300
O 	O 	0.05820 0.11722 0.70269 -0.30900
O 	O 	0.22347 0.10402 0.58940 -0.32100
O 	O 	0.21860 0.10374 0.66226 -0.30700
O 	O 	0.81904 0.00119 0.61756 -0.34500
O 	O 	0.87712 0.03189 0.56392 -0.30600
O 	O 	0.94352 0.00562 0.76371 -0.32000
O 	O 	0.98852 0.96043 0.76652 -0.32500
O 	O 	0.07935 0.90887 0.58333 -0.33400
O 	O 	0.99099 0.88270 0.60415 -0.30500
O 	O 	0.08998 0.01087 0.60638 -0.74200
C 	C 	0.79343 0.87164 0.67175 0.40300
O 	O 	0.82457 0.90260 0.70737 -0.33100
O 	O 	0.82935 0.88014 0.64758 -0.32500
O 	O 	0.19438 0.98034 0.66365 -0.36200
O 	O 	0.11327 0.93810 0.70212 -0.35600
O 	O 	0.11734 0.03660 0.50996 -0.30700
O 	O 	0.01215 0.00647 0.50266 -0.32600
C 	C 	0.04442 0.99544 0.87389 0.27000
C 	C 	0.97993 0.95195 0.84615 -0.13700
C 	C 	0.92339 0.90450 0.86939 0.29800
C 	C 	0.93027 0.90315 0.91839 0.28500
C 	C 	0.99396 0.94899 0.94496 -0.10700
C 	C 	0.05129 0.99453 0.92266 0.26500
F 	F 	0.11340 0.03905 0.94771 -0.31600
F 	F 	0.09952 0.04179 0.85211 -0.33800
F 	F 	0.87519 0.85674 0.94017 -0.31600
F 	F 	0.86073 0.86180 0.84335 -0.32200
C 	C 	0.07588 0.03991 0.40393 0.32300
C 	C 	0.02870 0.99865 0.43550 -0.21000
C 	C 	0.96378 0.94229 0.42125 0.33900
C 	C 	0.94630 0.92742 0.37622 0.28600
C 	C 	0.99369 0.96856 0.34492 -0.14000
C 	C 	0.05909 0.02391 0.35985 0.26400
F 	F 	0.10563 0.06391 0.33050 -0.33500
F 	F 	0.13781 0.09607 0.41559 -0.32100
F 	F 	0.88328 0.87294 0.36307 -0.30200
F 	F 	0.91828 0.90081 0.45169 -0.35300
C 	C 	0.19183 0.39737 0.77445 0.25700
C 	C 	0.13265 0.36947 0.73603 0.00500
C 	C 	0.10284 0.40287 0.70234 0.25700
C 	C 	0.13560 0.46628 0.70412 0.31200
C 	C 	0.19857 0.49673 0.73930 -0.13700
C 	C 	0.22464 0.46079 0.77614 0.31400
C 	C 	0.10597 0.30864 0.72795 0.00800
F 	F 	0.04417 0.37523 0.66617 -0.31300
F 	F 	0.28414 0.48894 0.81159 -0.31600
C 	C 	0.04681 0.24894 0.74447 0.25800
C 	C 	0.01988 0.19169 0.73489 0.29800
C 	C 	0.05190 0.19374 0.70860 -0.17400
C 	C 	0.11188 0.25333 0.69287 0.33300
C 	C 	0.13881 0.31060 0.70251 0.24900
F 	F 	0.01513 0.24658 0.76944 -0.30900
F 	F 	0.14263 0.25616 0.66671 -0.32900
F 	F 	0.96247 0.13412 0.75097 -0.32800
F 	F 	0.19602 0.36832 0.68627 -0.30300
F 	F 	0.21934 0.36421 0.80857 -0.30200
F 	F 	0.10894 0.49999 0.66918 -0.32500
C 	C 	0.45734 0.71121 0.63638 0.26100
C 	C 	0.52237 0.75335 0.66439 0.00200
C 	C 	0.52736 0.77672 0.69841 0.25600
C 	C 	0.46758 0.75373 0.70751 0.31300
C 	C 	0.40237 0.70778 0.68221 -0.13400
C 	C 	0.39763 0.68922 0.64474 0.31100
C 	C 	0.58496 0.76995 0.66057 0.01000
F 	F 	0.59017 0.81986 0.72400 -0.31200
F 	F 	0.33491 0.64752 0.61803 -0.31900
C 	C 	0.61156 0.81365 0.61669 0.24700
C 	C 	0.67740 0.83896 0.61707 0.32100
C 	C 	0.71816 0.82322 0.66209 -0.19200
C 	C 	0.68787 0.77297 0.70331 0.33600
C 	C 	0.62145 0.74642 0.70258 0.24500
F 	F 	0.57542 0.83450 0.57488 -0.29300
F 	F 	0.72516 0.75412 0.74588 -0.31300
F 	F 	0.70412 0.88361 0.57537 -0.34800
F 	F 	0.59412 0.70063 0.74384 -0.29600
F 	F 	0.45193 0.68962 0.60248 -0.29400
F 	F 	0.47308 0.77314 0.74307 -0.32000
C 	C 	0.12017 0.77461 0.72757 0.24000
C 	C 	0.18811 0.79355 0.74606 0.01400
C 	C 	0.24094 0.85153 0.76303 0.24300
C 	C 	0.22770 0.89447 0.75496 0.33100
C 	C 	0.16189 0.88020 0.72898 -0.19400
C 	C 	0.10696 0.81732 0.72030 0.31900
C 	C 	0.20559 0.75876 0.74016 0.00100
F 	F 	0.30613 0.86854 0.78382 -0.30000
F 	F 	0.04163 0.79965 0.70114 -0.35300
C 	C 	0.21712 0.77452 0.69336 0.25400
C 	C 	0.23819 0.74497 0.68844 0.31200
C 	C 	0.24770 0.69921 0.73026 -0.13300
C 	C 	0.23581 0.68320 0.77704 0.31300
C 	C 	0.21493 0.71296 0.78196 0.26400
F 	F 	0.20836 0.81889 0.65275 -0.32700
F 	F 	0.24539 0.63947 0.81789 -0.31500
F 	F 	0.24814 0.75990 0.64278 -0.32500
F 	F 	0.20433 0.69773 0.82743 -0.29600
F 	F 	0.06781 0.71677 0.71380 -0.30900
F 	F 	0.28019 0.95265 0.76811 -0.31000
C 	C 	0.14374 0.37297 0.25550 0.25600
C 	C 	0.16042 0.37928 0.21516 0.00100
C 	C 	0.19596 0.44123 0.18236 0.25800
C 	C 	0.21881 0.49683 0.19194 0.30900
C 	C 	0.20896 0.49143 0.23561 -0.13500
C 	C 	0.16829 0.42894 0.26585 0.31100
C 	C 	0.14350 0.32162 0.20874 0.00900
F 	F 	0.21123 0.44794 0.14264 -0.29900
F 	F 	0.15657 0.42279 0.30729 -0.32400
C 	C 	0.09609 0.29756 0.16498 0.24400
C 	C 	0.07674 0.24051 0.16063 0.32000
C 	C 	0.10174 0.20510 0.20106 -0.19600
C 	C 	0.15337 0.23206 0.24284 0.33400
C 	C 	0.17446 0.29030 0.24657 0.24400
F 	F 	0.06695 0.32815 0.12752 -0.30100
F 	F 	0.18057 0.20008 0.28105 -0.31000
F 	F 	0.03092 0.21775 0.11820 -0.35100
F 	F 	0.22353 0.31532 0.28758 -0.29800
F 	F 	0.10603 0.31287 0.28577 -0.31500
F 	F 	0.25521 0.55677 0.16095 -0.32100
C 	C 	0.68158 0.77740 0.26800 0.24600
C 	C 	0.61833 0.76632 0.23641 0.01000
C 	C 	0.60829 0.78336 0.18305 0.24400
C 	C 	0.66349 0.81826 0.16150 0.33700
C 	C 	0.72850 0.83472 0.19315 -0.20000
C 	C 	0.73559 0.80939 0.24624 0.32700
C 	C 	0.56351 0.73915 0.25888 0.00000
F 	F 	0.54582 0.76845 0.15210 -0.29900
F 	F 	0.79628 0.81934 0.27691 -0.33000
C 	C 	0.53926 0.77532 0.24587 0.25700
C 	C 	0.47837 0.74487 0.25815 0.31200
C 	C 	0.44238 0.67849 0.28473 -0.13100
C 	C 	0.47264 0.64580 0.30428 0.30900
C 	C 	0.53159 0.67514 0.29000 0.25800
F 	F 	0.57278 0.83895 0.21907 -0.30600
F 	F 	0.44164 0.58351 0.33382 -0.31700
F 	F 	0.45188 0.77842 0.24105 -0.32000
F 	F 	0.55538 0.64009 0.30399 -0.29300
F 	F 	0.69166 0.75980 0.31965 -0.29100
F 	F 	0.65510 0.83993 0.10992 -0.32400
C 	C 	0.24728 0.70817 0.32630 0.26300
C 	C 	0.19825 0.71593 0.28488 0.00000
C 	C 	0.17239 0.69337 0.24184 0.25400
C 	C 	0.19590 0.66403 0.23991 0.30900
C 	C 	0.24560 0.65690 0.28106 -0.13100
C 	C 	0.27088 0.67877 0.32444 0.31100
C 	C 	0.17542 0.74964 0.28554 0.01200
F 	F 	0.12536 0.70107 0.20142 -0.32600
F 	F 	0.31792 0.67114 0.36489 -0.31600
C 	C 	0.21582 0.81849 0.27222 0.24200
C 	C 	0.18643 0.85029 0.25807 0.31900
C 	C 	0.11595 0.81336 0.25530 -0.19100
C 	C 	0.07944 0.74542 0.27702 0.33300
C 	C 	0.10870 0.71345 0.29138 0.24500
F 	F 	0.28185 0.85434 0.26933 -0.30400
F 	F 	0.01350 0.70973 0.27993 -0.31400
F 	F 	0.22446 0.91668 0.24188 -0.35100
F 	F 	0.07062 0.64706 0.30759 -0.30100
F 	F 	0.27221 0.72930 0.36825 -0.29600
F 	F 	0.17196 0.64439 0.19736 -0.32700
C 	C 	0.84025 0.23068 0.60368 0.25800
C 	C 	0.82830 0.23349 0.55281 0.00400
C 	C 	0.80669 0.27184 0.51264 0.26500
C 	C 	0.79464 0.30507 0.52328 0.31600
C 	C 	0.80379 0.29993 0.57416 -0.13100
C 	C 	0.82780 0.26354 0.61429 0.31800
C 	C 	0.83214 0.19133 0.54191 0.01300
F 	F 	0.79584 0.27565 0.46335 -0.29100
F 	F 	0.83828 0.25938 0.66360 -0.31100
C 	C 	0.77154 0.13142 0.53012 0.24300
C 	C 	0.77528 0.08401 0.53275 0.33200
C 	C 	0.83959 0.09569 0.54814 -0.19100
C 	C 	0.90000 0.15927 0.55188 0.32200
C 	C 	0.89642 0.20655 0.54995 0.24600
F 	F 	0.70899 0.11727 0.51983 -0.29900
F 	F 	0.96250 0.17323 0.56238 -0.34500
F 	F 	0.71628 0.02420 0.52553 -0.30800
F 	F 	0.95544 0.26556 0.55892 -0.30000
F 	F 	0.86203 0.19451 0.64284 -0.31400
F 	F 	0.77191 0.34046 0.48416 -0.31000
C 	C 	0.82947 0.58369 0.53075 0.25900
C 	C 	0.88879 0.61863 0.56627 0.00700
C 	C 	0.92556 0.59242 0.60208 0.26000
C 	C 	0.90055 0.52979 0.60451 0.31600
C 	C 	0.83853 0.49289 0.57129 -0.13400
C 	C 	0.80461 0.52120 0.53310 0.31400
C 	C 	0.91228 0.68252 0.56618 0.01700
F 	F 	0.98445 0.62692 0.63538 -0.29200
F 	F 	0.74536 0.48653 0.50008 -0.31400
C 	C 	0.89734 0.68663 0.60160 0.25600
C 	C 	0.92486 0.74796 0.60447 0.33800
C 	C 	0.96901 0.80571 0.57273 -0.15200
C 	C 	0.97895 0.80084 0.53450 0.34800
C 	C 	0.95114 0.73961 0.53154 0.24800
F 	F 	0.85726 0.63130 0.63385 -0.29500
F 	F 	0.01799 0.85582 0.50149 -0.37900
F 	F 	0.90997 0.75117 0.63885 -0.31100
F 	F 	0.96369 0.73590 0.49592 -0.29800
F 	F 	0.79472 0.60946 0.49499 -0.29500
F 	F 	0.93435 0.50337 0.64112 -0.31000
C 	C 	0.42866 0.15754 0.69515 0.25000
C 	C 	0.46316 0.20803 0.65591 0.01100
C 	C 	0.43441 0.24036 0.61594 0.24400
C 	C 	0.36811 0.21721 0.61198 0.33300
C 	C 	0.33008 0.16148 0.64788 -0.18900
C 	C 	0.36276 0.13520 0.69160 0.32400
C 	C 	0.52599 0.22323 0.65406 0.00300
F 	F 	0.46925 0.29197 0.57947 -0.30100
F 	F 	0.32851 0.08457 0.72861 -0.32300
C 	C 	0.52297 0.20442 0.61775 0.25700
C 	C 	0.58385 0.22956 0.60884 0.31300
C 	C 	0.64817 0.27341 0.63640 -0.13400
C 	C 	0.65080 0.28653 0.67640 0.31200
C 	C 	0.58996 0.26207 0.68484 0.26100
F 	F 	0.46108 0.16445 0.58932 -0.31200
F 	F 	0.71261 0.32601 0.70521 -0.31200
F 	F 	0.58033 0.21501 0.57097 -0.31800
F 	F 	0.59334 0.27870 0.72124 -0.29100
F 	F 	0.45739 0.12793 0.73528 -0.28800
F 	F 	0.33881 0.24593 0.57125 -0.32100
C 	C 	0.75970 0.11702 0.02594 0.24000
C 	C 	0.80703 0.18528 0.01031 0.02100
C 	C 	0.87041 0.21136 0.00474 0.23500
C 	C 	0.88958 0.17030 0.02069 0.34600
C 	C 	0.84642 0.10345 0.04374 -0.18800
C 	C 	0.77922 0.07615 0.04225 0.32500
C 	C 	0.79467 0.22920 0.00762 -0.01500
F 	F 	0.91511 0.27693 0.98696 -0.26800
F 	F 	0.73541 0.01089 0.06167 -0.32900
C 	C 	0.82205 0.25306 0.05027 0.26000
C 	C 	0.80157 0.28566 0.05122 0.31500
C 	C 	0.75361 0.29482 0.00942 -0.14600
C 	C 	0.73014 0.27507 0.96532 0.32800
C 	C 	0.75035 0.24212 0.96455 0.28000
F 	F 	0.86604 0.24190 0.09175 -0.31000
F 	F 	0.68602 0.28603 0.92383 -0.31000
F 	F 	0.82515 0.30482 0.09394 -0.31900
F 	F 	0.72511 0.22085 0.92261 -0.29000
F 	F 	0.69683 0.09086 0.02904 -0.30200
F 	F 	0.95249 0.19635 0.01778 -0.31200
C 	C 	0.76509 0.47559 0.11999 0.26200
C 	C 	0.80223 0.54022 0.09097 -0.00000
C 	C 	0.82797 0.55420 0.05269 0.26200
C 	C 	0.80991 0.50302 0.03970 0.29900
C 	C 	0.76699 0.43775 0.06547 -0.12800
C 	C 	0.74905 0.42481 0.10808 0.30900
C 	C 	0.81019 0.59244 0.09815 0.01100
F 	F 	0.86784 0.61709 0.02658 -0.31200
F 	F 	0.71117 0.36214 0.13537 -0.31700
C 	C 	0.85102 0.61380 0.14361 0.24800
C 	C 	0.86865 0.67084 0.14647 0.32500
C 	C 	0.85024 0.70939 0.10279 -0.19500
C 	C 	0.80103 0.68279 0.06039 0.33300
C 	C 	0.78098 0.62437 0.05804 0.24500
F 	F 	0.87697 0.58167 0.18375 -0.28500
F 	F 	0.77857 0.71721 0.01921 -0.32100
F 	F 	0.90951 0.69220 0.18999 -0.32100
F 	F 	0.73654 0.60095 0.01559 -0.30100
F 	F 	0.74139 0.46153 0.15793 -0.29100
F 	F 	0.82991 0.51651 0.99971 -0.30000
C 	C 	0.35815 0.15045 0.09220 0.24600
C 	C 	0.35632 0.13317 0.05548 0.00900
C 	C 	0.29621 0.07690 0.03835 0.24700
C 	C 	0.23967 0.03578 0.05994 0.34400
C 	C 	0.24197 0.05149 0.09815 -0.19700
C 	C 	0.30106 0.10987 0.11339 0.33900
C 	C 	0.41935 0.17000 0.03896 0.01800
F 	F 	0.29367 0.06064 0.00213 -0.30400
F 	F 	0.30451 0.12559 0.15044 -0.32600
C 	C 	0.45874 0.14600 0.06111 0.24800
C 	C 	0.52128 0.18316 0.04832 0.32600
C 	C 	0.54523 0.24499 0.01370 -0.16400
C 	C 	0.50295 0.26635 0.98844 0.35600
C 	C 	0.44035 0.22911 0.00124 0.22000
F 	F 	0.43759 0.08776 0.09650 -0.29900
F 	F 	0.52438 0.32492 0.95346 -0.31800
F 	F 	0.56106 0.16138 0.07241 -0.32100
F 	F 	0.40101 0.25127 0.97807 -0.28300
F 	F 	0.41617 0.20528 0.10868 -0.30100
F 	F 	0.18354 0.97932 0.04509 -0.37000
