data_crystal

_cell_length_a 26.11692
_cell_length_b 26.22757
_cell_length_c 28.56968
_cell_angle_alpha 95.48946
_cell_angle_beta  95.48209
_cell_angle_gamma 125.76576

_symmetry_space_group_name_	'P 1'
_symmetry_space_group_name_H-M	'P 1'

loop_
_symmetry_equiv_pos_as_xyz
  x,y,z

loop_
_atom_site_label
_atom_site_type_symbol
_atom_site_fract_x
_atom_site_fract_y
_atom_site_fract_z
_atom_site_charge
C 	C 	0.96656 0.02687 0.99954 0.08800
N 	N 	0.03093 0.05939 0.00147 -0.12400
C 	C 	0.05639 0.02686 0.99633 0.10400
N 	N 	0.01756 0.96203 0.98934 -0.13100
C 	C 	0.95335 0.92938 0.98700 0.10700
N 	N 	0.92792 0.96186 0.99193 -0.13500
C 	C 	0.94521 0.00622 0.44456 0.10000
N 	N 	0.01047 0.04432 0.45184 -0.13400
C 	C 	0.04276 0.01861 0.45631 0.10800
N 	N 	0.00965 0.95462 0.45389 -0.13100
C 	C 	0.94457 0.91629 0.44734 0.10500
N 	N 	0.91221 0.94205 0.44263 -0.13400
Cu	Cu	0.63854 0.24003 0.00714 0.92800
Cu	Cu	0.69273 0.24103 0.90813 0.86700
Cu	Cu	0.66522 0.33265 0.93889 0.89500
Cu	Cu	0.63008 0.35392 0.03125 0.89500
C 	C 	0.65345 0.29283 0.10491 0.30200
O 	O 	0.54341 0.19730 0.00503 -0.35500
C 	C 	0.65794 0.28968 0.83711 0.29800
O 	O 	0.68471 0.33794 0.00649 -0.63800
O 	O 	0.62881 0.24081 0.93760 -0.64200
O 	O 	0.68353 0.19928 0.00924 -0.36300
O 	O 	0.75277 0.26489 0.96400 -0.44000
O 	O 	0.62130 0.31404 0.08899 -0.38500
O 	O 	0.70686 0.42343 0.94399 -0.38100
C 	C 	0.70219 0.45933 0.97644 0.27500
C 	C 	0.51497 0.22038 0.98570 0.27000
O 	O 	0.55008 0.27849 0.97653 -0.39300
O 	O 	0.66171 0.43407 0.00639 -0.38700
O 	O 	0.66056 0.25604 0.07574 -0.36000
C 	C 	0.73782 0.22494 0.99356 0.26700
O 	O 	0.65488 0.32762 0.86883 -0.37900
O 	O 	0.65335 0.23966 0.84787 -0.42200
H 	H 	0.73083 0.36882 0.02115 0.16500
H 	H 	0.58452 0.21043 0.91895 0.17500
Cu	Cu	0.73713 0.33874 0.43993 0.92700
Cu	Cu	0.73677 0.28555 0.53924 0.86800
Cu	Cu	0.64346 0.31113 0.50794 0.89600
Cu	Cu	0.62212 0.34626 0.41551 0.89400
C 	C 	0.68402 0.32348 0.34205 0.30200
O 	O 	0.77969 0.43351 0.44192 -0.36000
C 	C 	0.68737 0.31964 0.61000 0.29900
O 	O 	0.63868 0.29226 0.44037 -0.64000
O 	O 	0.73603 0.34844 0.50944 -0.64000
O 	O 	0.77804 0.29377 0.43799 -0.36900
O 	O 	0.71241 0.22529 0.48361 -0.44100
O 	O 	0.66229 0.35514 0.35783 -0.38600
O 	O 	0.55206 0.26876 0.50244 -0.38100
C 	C 	0.51601 0.27311 0.46975 0.28200
C 	C 	0.75594 0.46151 0.46082 0.27400
O 	O 	0.69768 0.42624 0.47013 -0.39100
O 	O 	0.54159 0.31436 0.44049 -0.39300
O 	O 	0.72126 0.31684 0.37132 -0.36000
C 	C 	0.75222 0.23979 0.45385 0.28000
O 	O 	0.64779 0.32040 0.57799 -0.37900
O 	O 	0.73804 0.32514 0.59922 -0.42200
H 	H 	0.60798 0.24636 0.42559 0.16400
H 	H 	0.76610 0.39265 0.52799 0.17500
C 	C 	0.66022 0.29954 0.78853 -0.10100
C 	C 	0.66409 0.30660 0.74758 0.03000
C 	C 	0.67058 0.31322 0.69956 0.03100
C 	C 	0.67755 0.31721 0.65860 -0.10100
C 	C 	0.66490 0.29528 0.15553 -0.09200
C 	C 	0.67214 0.29877 0.19836 0.03400
C 	C 	0.67822 0.30484 0.24863 0.03400
C 	C 	0.68168 0.31206 0.29144 -0.09200
C 	C 	0.77768 0.65867 0.51548 -0.03800
C 	C 	0.80043 0.72104 0.51106 -0.05000
C 	C 	0.84172 0.75210 0.47893 0.03300
C 	C 	0.86002 0.72002 0.45089 -0.02200
C 	C 	0.83725 0.65730 0.45543 -0.00300
C 	C 	0.79584 0.62649 0.48777 0.01200
C 	C 	0.85574 0.62537 0.42749 0.01200
C 	C 	0.89699 0.65640 0.39534 -0.03800
C 	C 	0.91975 0.71872 0.39095 -0.05000
C 	C 	0.90164 0.75089 0.41869 0.03400
C 	C 	0.92586 0.81403 0.41544 -0.06100
C 	C 	0.90953 0.84689 0.44452 0.00700
C 	C 	0.86625 0.81538 0.47536 -0.06100
C 	C 	0.77224 0.56351 0.49143 -0.02800
C 	C 	0.78889 0.53075 0.46244 -0.06100
C 	C 	0.83182 0.56241 0.43133 -0.02700
H 	H 	0.74582 0.63538 0.54040 0.03900
H 	H 	0.78608 0.74522 0.53278 0.04100
H 	H 	0.91140 0.63226 0.37366 0.03900
H 	H 	0.95171 0.74205 0.36609 0.04200
H 	H 	0.95885 0.83833 0.39134 0.05100
H 	H 	0.85378 0.84087 0.49782 0.04900
H 	H 	0.73997 0.53956 0.51601 0.04300
H 	H 	0.84484 0.53737 0.40899 0.05000
C 	C 	0.91182 0.21317 0.40196 -0.03700
C 	C 	0.93890 0.18023 0.40081 -0.05200
C 	C 	0.90960 0.12239 0.41774 0.03500
C 	C 	0.85169 0.09657 0.43471 -0.02500
C 	C 	0.82415 0.12952 0.43554 -0.00000
C 	C 	0.85493 0.18857 0.41987 0.00900
C 	C 	0.76679 0.10423 0.45323 0.00700
C 	C 	0.73659 0.04554 0.46899 -0.03600
C 	C 	0.76417 0.01307 0.46850 -0.05800
C 	C 	0.82212 0.03866 0.45198 0.03700
C 	C 	0.85171 0.00794 0.45368 -0.06800
C 	C 	0.91054 0.03467 0.43816 0.01000
C 	C 	0.93837 0.09097 0.41901 -0.06300
C 	C 	0.82954 0.22322 0.42364 -0.02500
C 	C 	0.77378 0.19939 0.44321 -0.07000
C 	C 	0.74135 0.13878 0.45632 -0.02700
H 	H 	0.93556 0.25819 0.38942 0.03800
H 	H 	0.98317 0.20021 0.38734 0.04100
H 	H 	0.69222 0.02546 0.48232 0.03300
H 	H 	0.74074 0.96834 0.48145 0.04500
H 	H 	0.83001 0.96446 0.46829 0.05500
H 	H 	0.98290 0.11078 0.40589 0.05000
H 	H 	0.85414 0.26938 0.41276 0.04800
H 	H 	0.69734 0.11938 0.47012 0.03800
C 	C 	0.31073 0.24195 0.42537 -0.03700
C 	C 	0.24442 0.20644 0.42363 -0.05000
C 	C 	0.21232 0.15176 0.44459 0.03400
C 	C 	0.24732 0.13310 0.46797 -0.02200
C 	C 	0.31403 0.16867 0.46951 -0.00100
C 	C 	0.34577 0.22313 0.44796 0.01100
C 	C 	0.34882 0.14932 0.49211 0.01100
C 	C 	0.31686 0.09515 0.51365 -0.03700
C 	C 	0.25065 0.05999 0.51232 -0.05100
C 	C 	0.21550 0.07840 0.48926 0.03400
C 	C 	0.14884 0.04226 0.48663 -0.06100
C 	C 	0.11352 0.05973 0.46222 0.00700
C 	C 	0.14556 0.11498 0.44177 -0.06100
C 	C 	0.41198 0.25774 0.44883 -0.02500
C 	C 	0.44670 0.23798 0.47064 -0.06000
C 	C 	0.41495 0.18391 0.49245 -0.02500
H 	H 	0.33474 0.28387 0.40885 0.03800
H 	H 	0.21802 0.22134 0.40576 0.04200
H 	H 	0.34320 0.08005 0.53129 0.03700
H 	H 	0.22667 0.01815 0.52893 0.04200
H 	H 	0.12435 0.00035 0.50321 0.05200
H 	H 	0.11840 0.12845 0.42282 0.05200
H 	H 	0.43640 0.29987 0.43252 0.04500
H 	H 	0.44148 0.16835 0.50906 0.04400
C 	C 	0.73208 0.66304 0.02076 -0.03700
C 	C 	0.76698 0.72890 0.02194 -0.04000
C 	C 	0.82074 0.76074 0.99972 0.01600
C 	C 	0.83897 0.72588 0.97553 -0.01500
C 	C 	0.80404 0.65964 0.97457 -0.00500
C 	C 	0.75061 0.62820 0.99747 0.01100
C 	C 	0.82310 0.62505 0.95126 0.01400
C 	C 	0.87622 0.65670 0.92836 -0.04000
C 	C 	0.91074 0.72244 0.92913 -0.04900
C 	C 	0.89274 0.75743 0.95298 0.02800
C 	C 	0.92854 0.82370 0.95530 -0.05600
C 	C 	0.91176 0.85893 0.98072 -0.00400
C 	C 	0.85722 0.82713 0.00222 -0.04200
C 	C 	0.71679 0.56251 0.99729 -0.03400
C 	C 	0.73638 0.52803 0.97484 -0.05600
C 	C 	0.78935 0.55947 0.95163 -0.02800
H 	H 	0.69091 0.63924 0.03829 0.03900
H 	H 	0.75239 0.75518 0.04041 0.04000
H 	H 	0.89105 0.63049 0.91014 0.03700
H 	H 	0.95183 0.74621 0.91152 0.04000
H 	H 	0.96983 0.84802 0.93786 0.05000
H 	H 	0.84423 0.85423 0.02185 0.04800
H 	H 	0.67547 0.53831 0.01467 0.05000
H 	H 	0.80475 0.53314 0.93448 0.04400
C 	C 	0.96278 0.20924 0.97722 -0.06400
C 	C 	0.93109 0.23764 0.97730 -0.03400
C 	C 	0.87227 0.20812 0.99318 0.00200
C 	C 	0.84608 0.15060 0.01043 0.00600
C 	C 	0.87821 0.12221 0.01065 -0.02500
C 	C 	0.93624 0.15113 0.99327 0.03800
C 	C 	0.85143 0.06410 0.02712 0.04100
C 	C 	0.79350 0.03548 0.04421 -0.05800
C 	C 	0.76140 0.06345 0.04369 -0.03400
C 	C 	0.78692 0.12053 0.02625 0.00900
C 	C 	0.75303 0.14678 0.02303 -0.02800
C 	C 	0.77766 0.20262 0.00379 -0.05700
C 	C 	0.83842 0.23437 0.99058 -0.03600
C 	C 	0.96616 0.12079 0.99101 -0.08200
C 	C 	0.93851 0.06183 0.00608 0.02800
C 	C 	0.88203 0.03451 0.02523 -0.07300
H 	H 	0.00763 0.23217 0.96421 0.04700
H 	H 	0.95186 0.28213 0.96432 0.03200
H 	H 	0.77280 0.99107 0.05730 0.04700
H 	H 	0.71628 0.04025 0.05634 0.03800
H 	H 	0.70678 0.12274 0.03405 0.04900
H 	H 	0.85847 0.27845 0.97707 0.03800
H 	H 	0.00978 0.14205 0.97638 0.05800
H 	H 	0.86151 0.98984 0.03798 0.05700
C 	C 	0.31714 0.07322 0.04662 -0.03800
C 	C 	0.25416 0.04945 0.05059 -0.05000
C 	C 	0.22219 0.06866 0.02397 0.03800
C 	C 	0.25388 0.11231 0.99327 -0.02600
C 	C 	0.31726 0.13609 0.98915 -0.00700
C 	C 	0.34903 0.11658 0.01603 0.01700
C 	C 	0.34892 0.17959 0.95834 0.01200
C 	C 	0.31690 0.19877 0.93170 -0.03900
C 	C 	0.25389 0.17506 0.93572 -0.05100
C 	C 	0.22202 0.13175 0.96636 0.03300
C 	C 	0.15822 0.10651 0.96965 -0.06000
C 	C 	0.12599 0.06144 0.99906 0.00200
C 	C 	0.15853 0.04373 0.02693 -0.05500
C 	C 	0.41268 0.14160 0.01275 -0.02100
C 	C 	0.44519 0.18666 0.98328 -0.06600
C 	C 	0.41257 0.20426 0.95521 -0.02800
H 	H 	0.34115 0.05797 0.06746 0.04000
H 	H 	0.23019 0.01591 0.07428 0.04300
H 	H 	0.34083 0.23221 0.90794 0.03800
H 	H 	0.22986 0.19027 0.91486 0.04100
H 	H 	0.13295 0.12002 0.94811 0.04900
H 	H 	0.13367 0.00936 0.04996 0.05100
H 	H 	0.43754 0.12770 0.03428 0.05000
H 	H 	0.43715 0.23807 0.93178 0.04300
