data_crystal

_cell_length_a 30.56219
_cell_length_b 31.11248
_cell_length_c 35.01914
_cell_angle_alpha 95.51712
_cell_angle_beta  95.51601
_cell_angle_gamma 125.54530

_symmetry_space_group_name_	'P 1'
_symmetry_space_group_name_H-M	'P 1'

loop_
_symmetry_equiv_pos_as_xyz
  x,y,z

loop_
_atom_site_label
_atom_site_type_symbol
_atom_site_fract_x
_atom_site_fract_y
_atom_site_fract_z
_atom_site_charge
C 	C 	0.97683 0.03476 0.00331 0.13100
N 	N 	0.94567 0.98101 0.00308 -0.13900
C 	C 	0.96827 0.95424 0.00107 0.13500
N 	N 	0.02223 0.98138 0.99963 -0.14200
C 	C 	0.05358 0.03503 0.99986 0.12700
N 	N 	0.03082 0.06171 0.00158 -0.13600
C 	C 	0.94342 0.98696 0.44480 0.12000
N 	N 	0.99797 0.01728 0.44450 -0.13300
C 	C 	0.02446 0.99427 0.44383 0.12100
N 	N 	0.99619 0.94069 0.44323 -0.13500
C 	C 	0.94167 0.91010 0.44351 0.12600
N 	N 	0.91525 0.93328 0.44440 -0.13500
Cu	Cu	0.65129 0.26454 0.99828 0.93700
Cu	Cu	0.70156 0.27573 0.91799 0.89000
Cu	Cu	0.68147 0.35302 0.95174 0.90600
Cu	Cu	0.64187 0.35731 0.02586 0.90400
C 	C 	0.65634 0.29551 0.07945 0.29600
O 	O 	0.56986 0.22778 0.99435 -0.32000
C 	C 	0.66958 0.32255 0.86662 0.30900
O 	O 	0.69095 0.34777 0.00538 -0.63900
O 	O 	0.64751 0.27437 0.94343 -0.63700
O 	O 	0.68905 0.22977 0.99606 -0.33400
O 	O 	0.75120 0.28987 0.96295 -0.42000
O 	O 	0.62951 0.31498 0.06847 -0.34200
O 	O 	0.71836 0.42965 0.96352 -0.36700
C 	C 	0.70810 0.45498 0.98946 0.29300
C 	C 	0.54658 0.24885 0.97981 0.28700
O 	O 	0.57711 0.29985 0.97703 -0.37200
O 	O 	0.67149 0.42922 0.01186 -0.37000
O 	O 	0.66638 0.26993 0.05359 -0.29600
C 	C 	0.73671 0.25356 0.98506 0.29100
O 	O 	0.68618 0.36096 0.89679 -0.35800
O 	O 	0.66893 0.28054 0.87084 -0.34100
H 	H 	0.72929 0.37207 0.01971 0.17800
H 	H 	0.61034 0.25176 0.92713 0.21300
Cu	Cu	0.72811 0.32612 0.44892 0.93700
Cu	Cu	0.72912 0.28366 0.53112 0.88400
Cu	Cu	0.64449 0.29838 0.50174 0.91100
Cu	Cu	0.63101 0.33354 0.42708 0.90500
C 	C 	0.68787 0.31695 0.36859 0.29600
O 	O 	0.76473 0.40589 0.45082 -0.31600
C 	C 	0.68545 0.31487 0.58599 0.30700
O 	O 	0.64406 0.28714 0.44694 -0.63900
O 	O 	0.72458 0.33322 0.50508 -0.63600
O 	O 	0.76350 0.28867 0.44850 -0.33200
O 	O 	0.70893 0.23162 0.48667 -0.42500
O 	O 	0.66767 0.34246 0.38092 -0.34300
O 	O 	0.56609 0.26127 0.49431 -0.34700
C 	C 	0.53740 0.26738 0.46760 0.29600
C 	C 	0.74439 0.42947 0.46621 0.28200
O 	O 	0.69416 0.39987 0.47272 -0.35900
O 	O 	0.56162 0.30597 0.44688 -0.36700
O 	O 	0.71613 0.30805 0.39324 -0.29800
C 	C 	0.74186 0.24341 0.46159 0.28800
O 	O 	0.64294 0.29538 0.55780 -0.32700
O 	O 	0.72908 0.31889 0.57870 -0.37800
H 	H 	0.61875 0.24907 0.43349 0.17400
H 	H 	0.74816 0.37056 0.52003 0.20300
C 	C 	0.61517 0.29691 0.75935 0.03700
C 	C 	0.66307 0.33661 0.74723 0.08900
C 	C 	0.70843 0.37943 0.77538 -0.10600
C 	C 	0.70843 0.37617 0.81516 0.07900
C 	C 	0.66309 0.33242 0.82690 -0.00000
C 	C 	0.61430 0.29513 0.79926 -0.06500
C 	C 	0.66753 0.32970 0.70564 0.09400
C 	C 	0.75742 0.42736 0.76298 0.78800
H 	H 	0.74472 0.40598 0.83685 0.08000
C 	C 	0.56235 0.25155 0.81186 0.77700
H 	H 	0.57968 0.26567 0.73758 0.10800
C 	C 	0.68381 0.29781 0.69132 -0.11200
C 	C 	0.68869 0.29321 0.65190 0.07800
C 	C 	0.67934 0.32094 0.62705 -0.00600
C 	C 	0.66402 0.35360 0.64158 -0.06200
C 	C 	0.65527 0.35506 0.68027 0.03200
C 	C 	0.69292 0.26622 0.71736 0.78900
H 	H 	0.69928 0.26752 0.64023 0.07200
C 	C 	0.65571 0.38587 0.61587 0.77600
H 	H 	0.64015 0.37702 0.69106 0.11400
F 	F 	0.56492 0.20967 0.81761 -0.42300
F 	F 	0.51667 0.23178 0.78375 -0.42700
F 	F 	0.55594 0.27163 0.84618 -0.45200
F 	F 	0.74040 0.45049 0.73985 -0.42500
F 	F 	0.78308 0.41100 0.74210 -0.40700
F 	F 	0.79536 0.46643 0.79482 -0.42900
F 	F 	0.60649 0.35180 0.58989 -0.44000
F 	F 	0.69790 0.41200 0.59528 -0.44500
F 	F 	0.65469 0.42462 0.63786 -0.41800
F 	F 	0.71335 0.24180 0.69898 -0.43200
F 	F 	0.64381 0.22654 0.72693 -0.43100
F 	F 	0.73005 0.29988 0.75122 -0.41600
C 	C 	0.72932 0.31625 0.26959 0.03100
C 	C 	0.67981 0.29518 0.24468 0.09100
C 	C 	0.63173 0.27539 0.26037 -0.10900
C 	C 	0.63506 0.27908 0.30102 0.07400
C 	C 	0.68574 0.30581 0.32621 -0.00200
C 	C 	0.73391 0.32572 0.31038 -0.06000
C 	C 	0.67943 0.29689 0.20247 0.09200
C 	C 	0.57670 0.24917 0.23387 0.78800
H 	H 	0.59837 0.26261 0.31336 0.06900
C 	C 	0.79003 0.35703 0.33653 0.77800
H 	H 	0.76498 0.32797 0.25705 0.11100
C 	C 	0.69728 0.34481 0.18843 -0.11000
C 	C 	0.69328 0.34384 0.14799 0.07400
C 	C 	0.66759 0.29541 0.12142 -0.00300
C 	C 	0.64894 0.24723 0.13557 -0.06000
C 	C 	0.65914 0.24972 0.17606 0.03000
C 	C 	0.72218 0.39734 0.21646 0.78800
H 	H 	0.70879 0.38062 0.13691 0.06800
C 	C 	0.61834 0.19333 0.10795 0.77800
H 	H 	0.64887 0.21424 0.18725 0.11200
F 	F 	0.83161 0.38186 0.31526 -0.41600
F 	F 	0.79488 0.32239 0.35518 -0.43600
F 	F 	0.79749 0.39683 0.36407 -0.43100
F 	F 	0.56029 0.20094 0.21223 -0.42500
F 	F 	0.58049 0.28250 0.20881 -0.41000
F 	F 	0.53657 0.23878 0.25503 -0.43100
F 	F 	0.65450 0.19110 0.08856 -0.43900
F 	F 	0.57732 0.18617 0.08108 -0.42700
F 	F 	0.59391 0.15097 0.12793 -0.41500
F 	F 	0.72946 0.43705 0.19691 -0.43200
F 	F 	0.77270 0.41522 0.23669 -0.42600
F 	F 	0.68844 0.39014 0.24272 -0.41100
C 	C 	0.91175 0.85214 0.44351 -0.01800
C 	C 	0.87744 0.82845 0.47064 -0.00900
C 	C 	0.85571 0.77551 0.47456 -0.04600
C 	C 	0.86795 0.74594 0.45126 0.03700
C 	C 	0.90027 0.76875 0.42307 -0.04600
C 	C 	0.92209 0.82160 0.41918 -0.00800
C 	C 	0.84908 0.69293 0.45715 -0.00200
C 	C 	0.83385 0.64848 0.46143 -0.00200
C 	C 	0.81595 0.59523 0.46577 0.04500
C 	C 	0.83173 0.56891 0.44269 -0.04600
C 	C 	0.81077 0.51560 0.44439 0.01800
C 	C 	0.77359 0.48806 0.46914 -0.05800
C 	C 	0.75993 0.51547 0.49361 0.01700
C 	C 	0.78091 0.56879 0.49180 -0.04900
H 	H 	0.86919 0.85159 0.48961 0.05100
H 	H 	0.83036 0.75797 0.49622 0.06000
H 	H 	0.90940 0.74592 0.40468 0.06200
H 	H 	0.94801 0.83924 0.39785 0.05000
H 	H 	0.85923 0.58931 0.42274 0.07400
H 	H 	0.82186 0.49516 0.42540 0.09000
H 	H 	0.73209 0.49511 0.51335 0.07400
H 	H 	0.76906 0.58912 0.51009 0.07000
C 	C 	0.75885 0.20854 0.45140 -0.07500
C 	C 	0.72769 0.15534 0.45787 0.02000
C 	C 	0.74743 0.12469 0.45351 -0.06000
C 	C 	0.79821 0.14669 0.44240 0.04800
C 	C 	0.82807 0.19865 0.43389 -0.05600
C 	C 	0.80847 0.22948 0.43828 0.02400
C 	C 	0.82164 0.11769 0.44283 -0.01100
C 	C 	0.84121 0.09339 0.44321 -0.00200
C 	C 	0.86580 0.06551 0.44464 0.02900
C 	C 	0.83802 0.01322 0.42325 -0.03600
C 	C 	0.86264 0.98680 0.42409 -0.02100
C 	C 	0.91529 0.01265 0.44631 -0.00800
C 	C 	0.94244 0.06463 0.46831 -0.01400
C 	C 	0.91778 0.09089 0.46743 -0.04300
H 	H 	0.68877 0.13813 0.46713 0.04500
H 	H 	0.72387 0.08434 0.45976 0.06200
H 	H 	0.86718 0.21576 0.42494 0.06800
H 	H 	0.83275 0.27017 0.43275 0.07200
H 	H 	0.79767 0.99323 0.40571 0.05400
H 	H 	0.84133 0.94683 0.40685 0.05300
H 	H 	0.98277 0.08480 0.48593 0.05100
H 	H 	0.93929 0.13114 0.48428 0.05700
C 	C 	0.47770 0.23646 0.46548 -0.06800
C 	C 	0.45028 0.25832 0.45399 0.02800
C 	C 	0.39357 0.22846 0.45116 -0.05800
C 	C 	0.36382 0.17662 0.45979 0.05000
C 	C 	0.39098 0.15479 0.47151 -0.05800
C 	C 	0.44771 0.18455 0.47436 0.02600
C 	C 	0.30534 0.14570 0.45632 -0.00800
C 	C 	0.25637 0.11993 0.45337 -0.00300
C 	C 	0.19789 0.08907 0.44983 0.03500
C 	C 	0.16393 0.03682 0.42771 -0.04700
C 	C 	0.10722 0.00616 0.42519 -0.00700
C 	C 	0.08404 0.02758 0.44487 -0.01600
C 	C 	0.11821 0.08032 0.46657 -0.01000
C 	C 	0.17492 0.11090 0.46901 -0.04600
H 	H 	0.47286 0.29849 0.44745 0.05600
H 	H 	0.37280 0.24562 0.44220 0.06500
H 	H 	0.36816 0.11469 0.47822 0.06500
H 	H 	0.46821 0.16703 0.48299 0.04800
H 	H 	0.18144 0.01982 0.41264 0.05900
H 	H 	0.08133 0.96580 0.40798 0.04700
H 	H 	0.10096 0.09726 0.48209 0.04900
H 	H 	0.20099 0.15134 0.48612 0.05900
C 	C 	0.93402 0.89558 0.99903 -0.02700
C 	C 	0.89234 0.87124 0.02111 -0.00500
C 	C 	0.86128 0.81579 0.02013 -0.04400
C 	C 	0.87161 0.78439 0.99706 0.03200
C 	C 	0.91265 0.80844 0.97465 -0.04700
C 	C 	0.94373 0.86378 0.97558 -0.00600
C 	C 	0.84068 0.72759 0.99666 -0.00400
C 	C 	0.81550 0.67993 0.99569 -0.00900
C 	C 	0.78630 0.62299 0.99383 0.04500
C 	C 	0.77480 0.58979 0.95862 -0.05800
C 	C 	0.74894 0.53488 0.95710 0.02600
C 	C 	0.73440 0.51273 0.99088 -0.07800
C 	C 	0.74542 0.54605 0.02607 0.02600
C 	C 	0.77135 0.60102 0.02750 -0.05700
H 	H 	0.88458 0.89533 0.03946 0.04900
H 	H 	0.82952 0.79738 0.03751 0.05800
H 	H 	0.92064 0.78429 0.95661 0.06100
H 	H 	0.97528 0.88191 0.95803 0.05100
H 	H 	0.78624 0.60658 0.93247 0.07100
H 	H 	0.74007 0.50957 0.92965 0.06000
H 	H 	0.73466 0.52956 0.05238 0.04900
H 	H 	0.78028 0.62655 0.05486 0.06500
C 	C 	0.95171 0.06339 0.00433 -0.01800
C 	C 	0.98197 0.11700 0.02405 -0.00700
C 	C 	0.95790 0.14389 0.02506 -0.04800
C 	C 	0.90352 0.11744 0.00642 0.04000
C 	C 	0.87323 0.06400 0.98683 -0.05200
C 	C 	0.89716 0.03705 0.98574 -0.00800
C 	C 	0.87905 0.14538 0.00658 -0.00300
C 	C 	0.85761 0.16787 0.00628 -0.00800
C 	C 	0.83115 0.19387 0.00491 0.05200
C 	C 	0.84832 0.23485 0.98327 -0.06400
C 	C 	0.81879 0.25587 0.97802 0.02100
C 	C 	0.77149 0.23577 0.99428 -0.07800
C 	C 	0.75591 0.19636 0.01751 0.02700
C 	C 	0.78555 0.17540 0.02264 -0.05600
H 	H 	0.02389 0.13766 0.03883 0.04900
H 	H 	0.98155 0.18524 0.04026 0.06000
H 	H 	0.83122 0.04340 0.97225 0.06000
H 	H 	0.87349 0.99590 0.97013 0.04800
H 	H 	0.88380 0.24956 0.96971 0.06400
H 	H 	0.83198 0.28682 0.96057 0.04400
H 	H 	0.72028 0.18116 0.03095 0.08700
H 	H 	0.77231 0.14398 0.03969 0.07300
C 	C 	0.11189 0.06385 0.99767 -0.02200
C 	C 	0.13529 0.10123 0.97274 -0.00900
C 	C 	0.18905 0.12421 0.96762 -0.04500
C 	C 	0.21970 0.11010 0.98746 0.03300
C 	C 	0.19697 0.07404 0.01317 -0.04200
C 	C 	0.14332 0.05101 0.01829 -0.00500
C 	C 	0.27420 0.13193 0.98113 -0.00100
C 	C 	0.31995 0.14941 0.97657 -0.00500
C 	C 	0.37489 0.16990 0.97232 0.05000
C 	C 	0.39916 0.14730 0.98832 -0.05200
C 	C 	0.45460 0.17122 0.98874 0.02100
C 	C 	0.48635 0.21826 0.97329 -0.06000
C 	C 	0.46095 0.23881 0.95506 0.02300
C 	C 	0.40549 0.21485 0.95481 -0.05200
H 	H 	0.11143 0.11135 0.95657 0.05000
H 	H 	0.20655 0.15236 0.94787 0.05900
H 	H 	0.22066 0.06337 0.02887 0.06300
H 	H 	0.12594 0.02271 0.03795 0.05200
H 	H 	0.37549 0.11213 0.00150 0.07700
H 	H 	0.47322 0.15430 0.00237 0.08600
H 	H 	0.48445 0.27416 0.94207 0.06200
H 	H 	0.38674 0.23209 0.94190 0.06700
