data_crystal

_cell_length_a 20.28056
_cell_length_b 21.25300
_cell_length_c 37.84579
_cell_angle_alpha 60.59460
_cell_angle_beta  119.11705
_cell_angle_gamma 133.21306

_symmetry_space_group_name_	'P 1'
_symmetry_space_group_name_H-M	'P 1'

loop_
_symmetry_equiv_pos_as_xyz
  x,y,z

loop_
_atom_site_label
_atom_site_type_symbol
_atom_site_fract_x
_atom_site_fract_y
_atom_site_fract_z
_atom_site_charge
C 	C 	0.28237 0.65607 0.16215 0.25500
N 	N 	0.23975 0.57121 0.16214 -0.10100
C 	C 	0.28626 0.55166 0.15769 0.27500
N 	N 	0.37495 0.61593 0.15377 -0.12200
C 	C 	0.41744 0.70033 0.15313 0.27200
N 	N 	0.37116 0.72084 0.15697 -0.10000
C 	C 	0.27771 0.62371 0.67944 0.26200
N 	N 	0.22622 0.54385 0.67052 -0.10200
C 	C 	0.27026 0.51248 0.67406 0.27100
N 	N 	0.36410 0.56140 0.68543 -0.12200
C 	C 	0.41508 0.64470 0.68914 0.27400
N 	N 	0.37227 0.67413 0.68828 -0.10100
Co	Co	0.04039 0.11432 0.07655 1.19900
Co	Co	0.08588 0.04088 0.03745 1.17500
Co	Co	0.07068 0.88804 0.02740 1.18600
C 	C 	0.25525 0.04914 0.05094 0.36200
O 	O 	0.10496 0.14969 0.03579 -0.41400
C 	C 	0.13867 0.22039 0.14143 0.39400
C 	C 	0.07125 0.77662 0.11505 0.42300
O 	O 	0.04051 0.77409 0.07598 -0.36600
O 	O 	0.05109 0.80819 0.12794 -0.31500
O 	O 	0.07469 0.15284 0.16288 -0.36700
O 	O 	0.14679 0.21080 0.11159 -0.32000
O 	O 	0.04393 0.93248 0.05424 -0.72800
O 	O 	0.20574 0.96169 0.05997 -0.30500
O 	O 	0.22422 0.09064 0.04816 -0.34400
Co	Co	0.00759 0.08110 0.57587 1.20200
Co	Co	0.06081 0.00342 0.54370 1.17600
Co	Co	0.05202 0.84563 0.54204 1.19000
C 	C 	0.23181 0.01562 0.56029 0.36600
O 	O 	0.01353 0.06582 0.68921 -0.35800
C 	C 	0.01005 0.99370 0.71410 0.29600
O 	O 	0.07620 0.11323 0.53797 -0.41400
C 	C 	0.09488 0.22347 0.61359 0.41700
C 	C 	0.07858 0.75946 0.63236 0.41800
O 	O 	0.01127 0.94728 0.70024 -0.30700
O 	O 	0.03571 0.74292 0.59562 -0.36700
O 	O 	0.07560 0.81082 0.64074 -0.32900
O 	O 	0.00862 0.19182 0.60688 -0.36500
O 	O 	0.11356 0.18050 0.60820 -0.35100
O 	O 	0.01893 0.89495 0.56228 -0.72700
O 	O 	0.19015 0.92948 0.56868 -0.30100
O 	O 	0.19855 0.04600 0.56565 -0.35800
C 	C 	0.02821 0.97808 0.75977 0.12000
C 	C 	0.03738 0.99796 0.36861 0.23500
C 	C 	0.07484 0.04018 0.33386 -0.14200
C 	C 	0.01714 0.00001 0.29997 0.06400
C 	C 	0.04516 0.00755 0.27035 -0.07600
N 	N 	0.06655 0.03856 0.39675 -0.18800
H 	H 	0.14453 0.10115 0.33312 0.13300
H 	H 	0.10052 0.06939 0.25549 0.11800
H 	H 	0.13634 0.08683 0.40808 0.15400
C 	C 	0.21883 0.36033 0.68622 0.26100
C 	C 	0.21946 0.43510 0.65826 -0.12300
C 	C 	0.20071 0.44750 0.61526 0.27000
C 	C 	0.17947 0.38499 0.60057 0.31100
C 	C 	0.16878 0.30563 0.62821 -0.19200
C 	C 	0.19716 0.29796 0.67126 0.29200
F 	F 	0.19850 0.22714 0.69864 -0.38900
F 	F 	0.24290 0.35001 0.72803 -0.35900
F 	F 	0.16436 0.39930 0.55910 -0.32400
F 	F 	0.20793 0.52255 0.58788 -0.33000
C 	C 	0.14185 0.60189 0.68334 0.27000
C 	C 	0.23143 0.65970 0.67605 -0.11600
C 	C 	0.27803 0.75274 0.66633 0.26800
C 	C 	0.23263 0.78643 0.66077 0.29500
C 	C 	0.13835 0.72874 0.66148 -0.18100
C 	C 	0.09605 0.63641 0.67645 0.30300
F 	F 	0.00791 0.57964 0.68150 -0.31600
F 	F 	0.09883 0.51248 0.69686 -0.33600
F 	F 	0.27799 0.87586 0.65082 -0.33700
F 	F 	0.36554 0.81073 0.66031 -0.32800
C 	C 	0.21832 0.45480 0.11397 0.27200
C 	C 	0.23896 0.46363 0.15319 -0.12700
C 	C 	0.23734 0.39612 0.18898 0.26700
C 	C 	0.21502 0.32041 0.18564 0.29400
C 	C 	0.19131 0.31010 0.14623 -0.19500
C 	C 	0.19682 0.37951 0.11063 0.30100
F 	F 	0.17911 0.37308 0.07260 -0.34500
F 	F 	0.22244 0.52098 0.07922 -0.32800
F 	F 	0.21462 0.25600 0.22066 -0.37700
F 	F 	0.26083 0.40547 0.22723 -0.34800
C 	C 	0.13217 0.61867 0.15990 0.26200
C 	C 	0.22940 0.67989 0.16373 -0.11200
C 	C 	0.27425 0.76702 0.16507 0.26600
C 	C 	0.22141 0.79622 0.15525 0.30000
C 	C 	0.12383 0.73872 0.14463 -0.19200
C 	C 	0.08015 0.64809 0.15090 0.32100
F 	F 	0.08762 0.53135 0.16399 -0.33300
F 	F 	0.26507 0.88249 0.15278 -0.34600
F 	F 	0.36860 0.82377 0.17522 -0.33500
C 	C 	0.39993 0.09759 0.59360 0.31000
C 	C 	0.32809 0.07526 0.55755 -0.18900
C 	C 	0.34738 0.09514 0.52107 0.28900
C 	C 	0.43789 0.13724 0.52055 0.27000
C 	C 	0.51021 0.16082 0.55642 -0.12900
C 	C 	0.49057 0.13958 0.59315 0.27000
F 	F 	0.38134 0.07672 0.62932 -0.34500
F 	F 	0.45630 0.15906 0.48458 -0.33700
F 	F 	0.27785 0.07267 0.48620 -0.39300
C 	C 	0.45817 0.15229 0.01289 0.25600
C 	C 	0.53360 0.19548 0.04423 -0.12300
C 	C 	0.51672 0.18541 0.07921 0.26500
C 	C 	0.42568 0.13922 0.08102 0.30500
C 	C 	0.35086 0.10125 0.04831 -0.18600
C 	C 	0.36717 0.10548 0.01491 0.27600
F 	F 	0.29472 0.06580 0.98391 -0.37800
F 	F 	0.47333 0.16044 0.97918 -0.32200
F 	F 	0.41013 0.13127 0.11455 -0.35000
O 	O 	0.03084 0.99111 0.09235 -0.51900
C 	C 	0.04923 0.02264 0.95472 0.22600
O 	O 	0.10318 0.99611 0.97606 -0.28400
C 	C 	0.02425 0.97121 0.46384 0.30000
O 	O 	0.07695 0.94361 0.48693 -0.33200
O 	O 	0.00686 0.99980 0.48035 -0.31000
C 	C 	0.08063 0.02583 0.81506 0.03700
C 	C 	0.10573 0.04438 0.78112 -0.08200
C 	C 	0.50889 0.70857 0.68205 -0.12700
F 	F 	0.46039 0.79181 0.61907 -0.32400
C 	C 	0.51056 0.76989 0.14494 -0.12400
F 	F 	0.45610 0.85150 0.08444 -0.33200
C 	C 	0.11641 0.08981 0.83398 -0.05700
H 	H 	0.18710 0.14969 0.83478 0.11500
H 	H 	0.15922 0.10998 0.76692 0.14000
H 	H 	0.16310 0.14059 0.90072 0.14500
F 	F 	0.03466 0.38581 0.01484 -0.31200
O 	O 	0.02226 0.03628 0.97442 -0.33400
C 	C 	0.05875 0.07246 0.85305 0.09000
N 	N 	0.09211 0.10086 0.88697 -0.14600
C 	C 	0.02440 0.04208 0.90846 0.04700
C 	C 	0.52459 0.77446 0.64427 0.27100
C 	C 	0.52303 0.83735 0.10772 0.27100
C 	C 	0.99857 0.98404 0.41796 0.03900
C 	C 	0.98962 0.95030 0.81302 0.13000
N 	N 	0.95754 0.92148 0.77938 -0.17000
F 	F 	0.98627 0.58961 0.14518 -0.34000
O 	O 	0.89551 0.97928 0.18237 -0.34600
C 	C 	0.94431 0.94749 0.20654 0.28000
O 	O 	0.96532 0.92134 0.19049 -0.31600
C 	C 	0.93169 0.93274 0.83202 -0.07800
C 	C 	0.96840 0.99569 0.85198 0.06600
C 	C 	0.94609 0.97533 0.88738 -0.02700
H 	H 	0.86103 0.87282 0.83119 0.11600
H 	H 	0.89596 0.90837 0.90262 0.10900
H 	H 	0.88709 0.88358 0.76451 0.14000
C 	C 	0.96862 0.93495 0.25231 0.07600
F 	F 	0.55998 0.16155 0.62812 -0.33900
F 	F 	0.58904 0.22386 0.11057 -0.33500
C 	C 	0.74899 0.31925 0.01247 0.25700
N 	N 	0.66712 0.25089 0.02445 -0.10600
C 	C 	0.62653 0.26666 0.03587 0.26500
N 	N 	0.66794 0.35032 0.03588 -0.12100
C 	C 	0.74891 0.41911 0.02397 0.27100
N 	N 	0.78963 0.40415 0.01182 -0.10200
C 	C 	0.71843 0.27358 0.52329 0.25700
N 	N 	0.63741 0.20735 0.53592 -0.10600
C 	C 	0.60653 0.22377 0.55285 0.27200
N 	N 	0.65846 0.30526 0.55890 -0.12200
C 	C 	0.73751 0.37263 0.54527 0.27100
N 	N 	0.76758 0.35741 0.52696 -0.10100
Co	Co	0.97242 0.85820 0.08731 1.18900
Co	Co	0.92554 0.93156 0.12597 1.20200
C 	C 	0.87108 0.75691 0.02075 0.37400
Co	Co	0.93739 0.08792 0.13182 1.17200
O 	O 	0.97489 0.04194 0.11182 -0.77500
O 	O 	0.90285 0.82194 0.12606 -0.39700
C 	C 	0.75823 0.92964 0.10414 0.43800
O 	O 	0.80403 0.01610 0.09704 -0.37600
O 	O 	0.78985 0.89661 0.09967 -0.34600
C 	C 	0.94142 0.19617 0.04449 0.41000
O 	O 	0.97268 0.20140 0.08299 -0.38400
O 	O 	0.94903 0.14986 0.03474 -0.35800
O 	O 	0.93236 0.82213 0.99801 -0.35300
O 	O 	0.86118 0.77304 0.04717 -0.33400
Co	Co	0.97093 0.83049 0.60349 1.19300
Co	Co	0.93487 0.91436 0.64163 1.19900
C 	C 	0.85762 0.70428 0.54614 0.38900
Co	Co	0.91483 0.06124 0.63389 1.17300
O 	O 	0.95034 0.01322 0.61426 -0.77300
O 	O 	0.93020 0.80858 0.65050 -0.40100
O 	O 	0.96595 0.94712 0.58241 -0.55000
C 	C 	0.76361 0.86558 0.64980 0.42800
O 	O 	0.81998 0.93573 0.66453 -0.38300
O 	O 	0.79488 0.84523 0.63657 -0.34700
C 	C 	0.85190 0.10636 0.54189 0.39700
O 	O 	0.82168 0.05028 0.57628 -0.35200
O 	O 	0.91672 0.11794 0.53338 -0.33500
O 	O 	0.91080 0.76956 0.51956 -0.37200
O 	O 	0.86005 0.71969 0.57734 -0.32200
C 	C 	0.92880 0.92204 0.30098 0.10000
C 	C 	0.89148 0.87971 0.33583 -0.03200
C 	C 	0.94931 0.91992 0.36972 -0.02200
N 	N 	0.89998 0.88110 0.27305 -0.15000
C 	C 	0.92183 0.91141 0.39990 -0.01400
H 	H 	0.82193 0.81856 0.33667 0.10400
H 	H 	0.86743 0.84896 0.41512 0.09800
H 	H 	0.83021 0.83316 0.26148 0.15700
C 	C 	0.57469 0.68965 0.70719 0.26300
C 	C 	0.60406 0.81940 0.63140 0.30200
C 	C 	0.66983 0.80061 0.65655 -0.20500
C 	C 	0.65433 0.73487 0.69430 0.30000
F 	F 	0.71874 0.71777 0.71940 -0.37200
F 	F 	0.56007 0.62571 0.74365 -0.34400
F 	F 	0.61906 0.88378 0.59507 -0.34400
C 	C 	0.58040 0.75602 0.16866 0.26100
C 	C 	0.65823 0.80403 0.15374 0.29600
C 	C 	0.66936 0.86950 0.11589 -0.20700
C 	C 	0.60212 0.88698 0.09324 0.30900
F 	F 	0.61284 0.95121 0.05689 -0.31800
F 	F 	0.72388 0.78811 0.17648 -0.39200
F 	F 	0.57045 0.69278 0.20536 -0.35300
C 	C 	0.88523 0.25486 0.51894 0.29000
C 	C 	0.82293 0.16620 0.51587 -0.19300
C 	C 	0.72775 0.12930 0.49959 0.30400
C 	C 	0.69423 0.17353 0.49464 0.26400
C 	C 	0.75526 0.25204 0.50849 -0.11800
C 	C 	0.85184 0.29677 0.51686 0.26100
F 	F 	0.91313 0.37797 0.52530 -0.34300
F 	F 	0.97816 0.29750 0.52739 -0.35000
F 	F 	0.60175 0.13678 0.47944 -0.32700
F 	F 	0.66697 0.04713 0.49222 -0.34700
C 	C 	0.77753 0.59211 0.50841 0.29200
C 	C 	0.81164 0.61256 0.54651 -0.19600
C 	C 	0.82552 0.55482 0.58400 0.29500
C 	C 	0.81350 0.48239 0.58319 0.26800
C 	C 	0.78149 0.46322 0.54504 -0.12900
C 	C 	0.76475 0.51923 0.50764 0.26200
F 	F 	0.73088 0.49997 0.47062 -0.34900
F 	F 	0.75961 0.64486 0.47193 -0.37000
F 	F 	0.82835 0.42781 0.61969 -0.33100
F 	F 	0.85308 0.57022 0.62123 -0.34800
C 	C 	0.94087 0.32929 0.00979 0.27400
C 	C 	0.89372 0.23874 0.01352 -0.17700
C 	C 	0.79603 0.18504 0.00222 0.26600
C 	C 	0.74734 0.21533 0.99680 0.31200
C 	C 	0.79654 0.29958 0.00315 -0.14800
C 	C 	0.89332 0.35905 0.00622 0.27700
F 	F 	0.94203 0.44413 0.00753 -0.34600
F 	F 	0.65280 0.16181 0.98675 -0.32200
F 	F 	0.74837 0.10026 0.00082 -0.35100
C 	C 	0.78677 0.57059 0.98533 0.28200
C 	C 	0.79045 0.50960 0.02360 -0.14400
C 	C 	0.80922 0.52566 0.06049 0.27400
C 	C 	0.82418 0.60170 0.05909 0.30000
C 	C 	0.82390 0.66446 0.02096 -0.21200
C 	C 	0.80156 0.64655 0.98389 0.30800
F 	F 	0.79665 0.70426 0.94647 -0.37000
F 	F 	0.76473 0.55429 0.94924 -0.34300
F 	F 	0.84166 0.61556 0.09502 -0.35800
F 	F 	0.80939 0.46553 0.09760 -0.31900
