data_crystal

_cell_length_a 27.73405
_cell_length_b 28.29972
_cell_length_c 33.64151
_cell_angle_alpha 95.51356
_cell_angle_beta  95.50156
_cell_angle_gamma 125.66560

_symmetry_space_group_name_	'P 1'
_symmetry_space_group_name_H-M	'P 1'

loop_
_symmetry_equiv_pos_as_xyz
  x,y,z

loop_
_atom_site_label
_atom_site_type_symbol
_atom_site_fract_x
_atom_site_fract_y
_atom_site_fract_z
_atom_site_charge
C 	C 	0.97040 0.03043 0.99836 0.05500
C 	C 	0.03145 0.06323 0.99486 -0.09100
C 	C 	0.05952 0.03520 0.99189 0.05600
C 	C 	0.02673 0.97466 0.99256 -0.09100
C 	C 	0.96585 0.94190 0.99599 0.05700
C 	C 	0.93765 0.96976 0.99899 -0.08700
H 	H 	0.05675 0.11010 0.99409 0.05700
H 	H 	0.04846 0.95296 0.99012 0.05800
H 	H 	0.89030 0.94424 0.00134 0.05500
C 	C 	0.93234 0.99244 0.44929 0.04800
C 	C 	0.99465 0.02631 0.44970 -0.07900
C 	C 	0.02463 0.00022 0.45246 0.04500
C 	C 	0.99236 0.94014 0.45443 -0.07900
C 	C 	0.93014 0.90596 0.45403 0.04900
C 	C 	0.89990 0.93206 0.45146 -0.08400
H 	H 	0.01984 0.07303 0.44839 0.05300
H 	H 	0.01575 0.92005 0.45664 0.05300
H 	H 	0.85179 0.90581 0.45145 0.05600
Cu	Cu	0.64562 0.25412 0.00187 0.92800
Cu	Cu	0.69434 0.25392 0.91659 0.87300
Cu	Cu	0.68479 0.34914 0.94969 0.89900
Cu	Cu	0.64632 0.36382 0.02734 0.89500
C 	C 	0.65415 0.29391 0.08593 0.25600
O 	O 	0.55720 0.22007 0.99883 -0.35700
C 	C 	0.66624 0.30792 0.86130 0.25700
O 	O 	0.69562 0.34623 0.00629 -0.64100
O 	O 	0.64063 0.26150 0.94398 -0.64000
O 	O 	0.68222 0.21079 0.00086 -0.37400
O 	O 	0.74972 0.27036 0.96303 -0.44300
O 	O 	0.62999 0.31996 0.07350 -0.36400
O 	O 	0.73101 0.43455 0.95947 -0.38100
C 	C 	0.72484 0.46630 0.98701 0.31200
C 	C 	0.53521 0.24591 0.98286 0.30300
O 	O 	0.57206 0.30080 0.97801 -0.39200
O 	O 	0.68296 0.44152 0.00971 -0.39600
O 	O 	0.66301 0.26292 0.05979 -0.34900
C 	C 	0.73284 0.23218 0.98744 0.31300
O 	O 	0.68878 0.35305 0.89153 -0.37500
O 	O 	0.65789 0.25867 0.86768 -0.39900
H 	H 	0.73824 0.37126 0.02064 0.16500
H 	H 	0.59912 0.23832 0.92790 0.17600
Cu	Cu	0.72782 0.33293 0.44658 0.92700
Cu	Cu	0.73310 0.29076 0.53371 0.87200
Cu	Cu	0.63439 0.29838 0.50169 0.89800
Cu	Cu	0.61430 0.33158 0.42293 0.89500
C 	C 	0.67678 0.31348 0.36290 0.25400
O 	O 	0.76275 0.41957 0.44749 -0.35600
C 	C 	0.68124 0.32118 0.58984 0.25600
O 	O 	0.63409 0.28493 0.44474 -0.63900
O 	O 	0.72355 0.34140 0.50506 -0.64000
O 	O 	0.77041 0.29496 0.44737 -0.36800
O 	O 	0.71222 0.23307 0.48831 -0.44200
O 	O 	0.65418 0.34140 0.37497 -0.37300
O 	O 	0.54721 0.25276 0.49411 -0.38000
C 	C 	0.51339 0.25655 0.46612 0.30800
C 	C 	0.73709 0.44234 0.46293 0.30100
O 	O 	0.68194 0.40723 0.46967 -0.39100
O 	O 	0.53740 0.29785 0.44359 -0.39500
O 	O 	0.71578 0.31301 0.38843 -0.33700
C 	C 	0.74876 0.24648 0.46242 0.30700
O 	O 	0.63384 0.29774 0.56045 -0.37600
O 	O 	0.73118 0.32962 0.58232 -0.39800
H 	H 	0.60801 0.24265 0.43145 0.16400
H 	H 	0.74773 0.38276 0.52004 0.17600
C 	C 	0.70574 0.34042 0.69521 0.11600
C 	C 	0.73236 0.36849 0.73597 -0.08900
C 	C 	0.70186 0.33698 0.76575 0.00500
C 	C 	0.64453 0.28503 0.75610 0.11700
C 	C 	0.61499 0.26061 0.71538 -0.08900
C 	C 	0.64907 0.28746 0.68553 0.00500
O 	O 	0.72518 0.36921 0.66268 -0.19200
C 	C 	0.67448 0.32764 0.63229 0.04000
C 	C 	0.62753 0.28042 0.64643 -0.05700
O 	O 	0.61492 0.26908 0.78879 -0.19300
C 	C 	0.66098 0.31653 0.81930 0.04000
C 	C 	0.71168 0.35901 0.80506 -0.05600
H 	H 	0.77397 0.41305 0.74400 0.06500
H 	H 	0.56760 0.22335 0.70742 0.06500
H 	H 	0.59024 0.23854 0.62768 0.05100
H 	H 	0.75596 0.39192 0.82367 0.04900
C 	C 	0.63524 0.29562 0.18639 0.11800
C 	C 	0.60536 0.28142 0.21948 -0.09000
C 	C 	0.64096 0.30060 0.25823 0.01200
C 	C 	0.70105 0.32407 0.26372 0.11500
C 	C 	0.72966 0.33225 0.23004 -0.08600
C 	C 	0.69614 0.32193 0.19191 0.00700
O 	O 	0.60539 0.27065 0.14638 -0.18800
C 	C 	0.65467 0.28541 0.12814 0.04800
C 	C 	0.70844 0.31331 0.15549 -0.06000
O 	O 	0.72446 0.32356 0.30197 -0.18300
C 	C 	0.67217 0.29839 0.31906 0.04500
C 	C 	0.62144 0.28131 0.29204 -0.06200
H 	H 	0.55657 0.25525 0.21509 0.06600
H 	H 	0.77510 0.34472 0.23327 0.06700
H 	H 	0.75308 0.33860 0.14786 0.04800
H 	H 	0.58005 0.27137 0.30034 0.04500
C 	C 	0.85151 0.73349 0.46329 0.02200
C 	C 	0.89111 0.72032 0.47690 -0.04600
C 	C 	0.86894 0.66175 0.47817 -0.02700
C 	C 	0.80706 0.61603 0.46586 -0.00900
C 	C 	0.76727 0.62928 0.45291 -0.02700
C 	C 	0.78947 0.68791 0.45161 -0.04600
C 	C 	0.78446 0.55534 0.46543 0.04700
C 	C 	0.76410 0.50411 0.46471 -0.10700
C 	C 	0.87527 0.79339 0.45942 -0.01200
C 	C 	0.89813 0.84436 0.45689 -0.02700
H 	H 	0.93916 0.75534 0.48598 0.04400
H 	H 	0.89995 0.65192 0.48831 0.04000
H 	H 	0.71932 0.59418 0.44343 0.03900
H 	H 	0.75857 0.69768 0.44106 0.04400
C 	C 	0.85498 0.07911 0.44924 0.02200
C 	C 	0.83045 0.08425 0.41289 -0.04700
C 	C 	0.80976 0.11917 0.41384 -0.02600
C 	C 	0.81366 0.14913 0.45114 -0.01200
C 	C 	0.83781 0.14360 0.48743 -0.02700
C 	C 	0.85840 0.10873 0.48648 -0.04800
C 	C 	0.79064 0.18361 0.45255 0.04800
C 	C 	0.77211 0.21300 0.45576 -0.11700
C 	C 	0.88075 0.04712 0.44828 -0.01200
C 	C 	0.90268 0.02070 0.44841 -0.02700
H 	H 	0.82793 0.06175 0.38395 0.04500
H 	H 	0.79077 0.12285 0.38566 0.04100
H 	H 	0.84061 0.16630 0.51638 0.03300
H 	H 	0.87760 0.10527 0.51468 0.04300
C 	C 	0.20701 0.09737 0.45863 0.02200
C 	C 	0.23357 0.06789 0.45548 -0.04700
C 	C 	0.29601 0.10020 0.45787 -0.02700
C 	C 	0.33214 0.16211 0.46343 -0.01000
C 	C 	0.30562 0.19164 0.46673 -0.02700
C 	C 	0.24315 0.15931 0.46433 -0.04700
C 	C 	0.39614 0.19521 0.46463 0.04800
C 	C 	0.44974 0.22288 0.46563 -0.10700
C 	C 	0.14279 0.06404 0.45639 -0.01300
C 	C 	0.08893 0.03541 0.45445 -0.02600
H 	H 	0.20588 0.02000 0.45114 0.04300
H 	H 	0.31621 0.07710 0.45521 0.03800
H 	H 	0.33329 0.23952 0.47096 0.04000
H 	H 	0.22291 0.18238 0.46685 0.04400
C 	C 	0.87282 0.76449 0.99312 0.02300
C 	C 	0.87352 0.74304 0.02885 -0.04900
C 	C 	0.84443 0.68246 0.02718 -0.03000
C 	C 	0.81456 0.64313 0.98978 -0.00800
C 	C 	0.81369 0.66455 0.95407 -0.02700
C 	C 	0.84279 0.72514 0.95574 -0.04700
C 	C 	0.78321 0.58066 0.98829 0.04900
C 	C 	0.75712 0.52843 0.98744 -0.10700
C 	C 	0.90516 0.82705 0.99452 -0.01000
C 	C 	0.93213 0.87939 0.99540 -0.02900
H 	H 	0.89686 0.77326 0.05783 0.04400
H 	H 	0.84503 0.66612 0.05493 0.03800
H 	H 	0.79045 0.63434 0.92507 0.04200
H 	H 	0.84229 0.74150 0.92798 0.04500
C 	C 	0.88337 0.10725 0.99882 0.02400
C 	C 	0.85745 0.10862 0.96152 -0.04800
C 	C 	0.82623 0.13343 0.96060 -0.02700
C 	C 	0.82075 0.15701 0.99699 -0.01100
C 	C 	0.84662 0.15565 0.03436 -0.02800
C 	C 	0.87789 0.13077 0.03527 -0.05000
C 	C 	0.78984 0.18385 0.99573 0.05000
C 	C 	0.76356 0.20580 0.99298 -0.12100
C 	C 	0.91460 0.08073 0.99957 -0.01100
C 	C 	0.94051 0.05828 0.99937 -0.02900
H 	H 	0.86142 0.09042 0.93324 0.04300
H 	H 	0.80647 0.13448 0.93161 0.03300
H 	H 	0.84269 0.17394 0.06261 0.04000
H 	H 	0.89773 0.12975 0.06424 0.04500
C 	C 	0.35700 0.17384 0.97670 -0.01000
C 	C 	0.34074 0.20719 0.99642 -0.02400
C 	C 	0.28003 0.18125 0.99775 -0.04400
C 	C 	0.23542 0.12194 0.97935 0.02000
C 	C 	0.25154 0.08919 0.95861 -0.04600
C 	C 	0.31221 0.11509 0.95731 -0.02600
C 	C 	0.17381 0.09338 0.98420 -0.00900
C 	C 	0.12181 0.06806 0.98769 -0.03000
C 	C 	0.41971 0.19878 0.97840 0.05000
C 	C 	0.47221 0.21962 0.97981 -0.10800
H 	H 	0.37516 0.25274 0.01137 0.03700
H 	H 	0.26786 0.20685 0.01379 0.04100
H 	H 	0.21723 0.04333 0.94423 0.04400
H 	H 	0.32446 0.08914 0.94191 0.04000
