data_crystal

_cell_length_a 15.14395
_cell_length_b 14.86110
_cell_length_c 53.93527
_cell_angle_alpha 90.20386
_cell_angle_beta  90.21423
_cell_angle_gamma 119.35637

_symmetry_space_group_name_	'P 1'
_symmetry_space_group_name_H-M	'P 1'

loop_
_symmetry_equiv_pos_as_xyz
  x,y,z

loop_
_atom_site_label
_atom_site_type_symbol
_atom_site_fract_x
_atom_site_fract_y
_atom_site_fract_z
_atom_site_charge
C 	C 	0.21460 0.63199 0.09891 0.35800
C 	C 	0.13188 0.62094 0.16541 0.32900
Ni	Ni	0.25843 0.53509 0.13989 1.13300
O 	O 	0.24866 0.57047 0.10521 -0.37100
O 	O 	0.35759 0.49028 0.12525 -0.32700
O 	O 	0.21296 0.71214 0.16813 -0.36600
O 	O 	0.13283 0.54431 0.15210 -0.32600
O 	O 	0.28207 0.48977 0.17279 -0.35400
O 	O 	0.20931 0.69589 0.11529 -0.34300
C 	C 	0.97781 0.78372 0.22735 0.30600
C 	C 	0.16629 0.16440 0.24134 0.32000
Ni	Ni	0.11204 0.96058 0.26519 1.12000
O 	O 	0.06440 0.83365 0.24040 -0.31500
O 	O 	0.16589 0.07507 0.23850 -0.31700
O 	O 	0.11318 0.17863 0.25931 -0.32500
O 	O 	0.98851 0.96020 0.26242 -0.74400
H 	H 	0.98759 0.97333 0.24451 0.17000
C 	C 	0.29115 0.35760 0.23754 0.10800
C 	C 	0.24185 0.25639 0.22686 -0.07500
C 	C 	0.26771 0.24340 0.20233 0.10300
C 	C 	0.34152 0.32936 0.18931 0.10700
C 	C 	0.37127 0.42952 0.19783 -0.08600
C 	C 	0.35538 0.44342 0.22282 0.10600
Br	Br	0.19066 0.11401 0.18483 -0.10000
C 	C 	0.97783 0.73445 0.18303 0.08500
C 	C 	0.96902 0.70818 0.20819 -0.07600
C 	C 	0.96653 0.61557 0.21504 0.08700
C 	C 	0.00318 0.56805 0.19842 0.13100
C 	C 	0.03581 0.61042 0.17471 -0.09000
C 	C 	0.00630 0.68147 0.16598 0.12700
Br	Br	0.01916 0.71693 0.13148 -0.10800
Br	Br	0.95228 0.84287 0.17208 -0.13700
Br	Br	0.02115 0.45466 0.20908 -0.11900
C 	C 	0.11704 0.50616 0.02884 0.02100
C 	C 	0.04256 0.49217 0.04653 0.08100
C 	C 	0.07203 0.54571 0.06939 0.14100
C 	C 	0.17432 0.62080 0.07364 -0.10600
C 	C 	0.24402 0.64397 0.05421 0.13300
C 	C 	0.21904 0.57584 0.03406 0.07200
Br	Br	0.32407 0.56744 0.01589 -0.10400
Br	Br	0.04706 0.26037 0.02776 -0.08000
Br	Br	0.37946 0.75735 0.05753 -0.13300
Br	Br	0.31527 0.37942 0.06867 -0.11300
Br	Br	0.29614 0.93327 0.03448 -0.13100
Br	Br	0.39269 0.31090 0.15820 -0.10800
C 	C 	0.37165 0.50378 0.17981 0.32200
C 	C 	0.49112 0.86967 0.18191 0.32800
C 	C 	0.43552 0.55357 0.11148 0.34200
C 	C 	0.50558 0.88183 0.11720 0.35400
Ni	Ni	0.49162 0.71022 0.14991 1.12400
Ni	Ni	0.31730 0.77173 0.14207 1.13100
O 	O 	0.49942 0.78570 0.18225 -0.35700
O 	O 	0.42538 0.87950 0.16670 -0.33100
O 	O 	0.47488 0.65207 0.11473 -0.35500
O 	O 	0.55703 0.85834 0.13322 -0.33400
O 	O 	0.41119 0.81794 0.11355 -0.37900
O 	O 	0.45748 0.56830 0.16777 -0.32000
O 	O 	0.35357 0.67119 0.15078 -0.72100
H 	H 	0.34006 0.66567 0.16873 0.18600
Br	Br	0.41075 0.58175 0.23580 -0.12300
C 	C 	0.55544 0.95718 0.22209 0.11000
C 	C 	0.56723 0.95918 0.19622 -0.10700
C 	C 	0.66696 0.01139 0.18695 0.12200
C 	C 	0.63848 0.97785 0.23768 0.11400
Br	Br	0.42338 0.91203 0.23580 -0.14000
C 	C 	0.56853 0.26032 0.01346 0.12900
C 	C 	0.55546 0.22501 0.03784 0.07200
C 	C 	0.48604 0.12193 0.04275 0.01700
C 	C 	0.40802 0.06504 0.02548 0.09200
C 	C 	0.50480 0.07071 0.06398 0.02500
C 	C 	0.57680 0.03651 0.06194 0.09100
C 	C 	0.60132 0.99634 0.08292 0.11500
C 	C 	0.54868 0.98341 0.10513 -0.12400
C 	C 	0.49656 0.03983 0.10824 0.14200
C 	C 	0.46634 0.07416 0.08737 0.06800
Br	Br	0.70007 0.95108 0.08082 -0.11700
Br	Br	0.37300 0.12683 0.09082 -0.09300
Br	Br	0.63661 0.31577 0.06428 -0.11100
Br	Br	0.63920 0.04227 0.03047 -0.08900
Br	Br	0.46674 0.07060 0.14071 -0.12700
C 	C 	0.66199 0.67892 0.01550 0.07000
C 	C 	0.69214 0.63161 0.03370 0.02300
C 	C 	0.77495 0.61589 0.02844 0.07200
C 	C 	0.62664 0.58313 0.05589 0.02100
C 	C 	0.66281 0.62018 0.08001 0.07400
C 	C 	0.59995 0.57122 0.10032 0.12600
C 	C 	0.49433 0.51737 0.09678 -0.09800
C 	C 	0.45759 0.47318 0.07327 0.12800
C 	C 	0.52494 0.50265 0.05290 0.07300
Br	Br	0.84235 0.58478 0.05445 -0.09800
Br	Br	0.65555 0.59481 0.13330 -0.15800
Br	Br	0.47852 0.43322 0.02142 -0.13200
Br	Br	0.59278 0.75232 0.02507 -0.09900
Br	Br	0.78395 0.75118 0.08491 -0.10400
Br	Br	0.69535 0.08217 0.15599 -0.11000
C 	C 	0.08783 0.45257 0.00433 0.02300
C 	C 	0.80883 0.62488 0.00375 0.12700
C 	C 	0.74727 0.02007 0.20175 0.12500
C 	C 	0.73076 0.99604 0.22704 -0.11000
Br	Br	0.69693 0.37230 0.00423 -0.17600
Br	Br	0.97837 0.49811 0.09670 -0.13200
C 	C 	0.80566 0.98239 0.24174 0.30800
O 	O 	0.77780 0.88900 0.25127 -0.34000
Br	Br	0.93154 0.62307 0.99611 -0.14200
Br	Br	0.89666 0.54529 0.24458 -0.13600
O 	O 	0.89877 0.79739 0.23145 -0.34400
Ni	Ni	0.86732 0.83254 0.26527 1.13000
O 	O 	0.89449 0.06513 0.24682 -0.33500
Br	Br	0.87764 0.06120 0.18722 -0.12700
Br	Br	0.90231 0.39107 0.04101 -0.11300
C 	C 	0.03035 0.34374 0.00298 0.08700
Br	Br	0.27181 0.38133 0.27183 -0.11400
Br	Br	0.13719 0.68918 0.27508 -0.13000
Br	Br	0.63077 0.99631 0.27273 -0.14900
Br	Br	0.60105 0.73959 0.28534 -0.14400
O 	O 	0.92405 0.74203 0.27843 -0.34600
Ni	Ni	0.97977 0.07345 0.27613 1.12700
C 	C 	0.99498 0.77182 0.29559 0.33600
O 	O 	0.19107 0.08408 0.28954 -0.33000
O 	O 	0.07073 0.86615 0.29593 -0.34300
O 	O 	0.84863 0.00743 0.29580 -0.32800
C 	C 	0.14842 0.10112 0.30875 0.34400
O 	O 	0.05239 0.07590 0.30799 -0.33800
C 	C 	0.99967 0.69500 0.31184 -0.11800
C 	C 	0.06661 0.65714 0.30623 0.13800
Br	Br	0.14760 0.51966 0.31571 -0.12000
C 	C 	0.62495 0.81208 0.31641 0.11600
Br	Br	0.40730 0.71749 0.32070 -0.12300
Br	Br	0.39811 0.26895 0.30424 -0.11600
C 	C 	0.80996 0.91697 0.30674 0.32400
O 	O 	0.83897 0.85059 0.30049 -0.35900
C 	C 	0.20971 0.15551 0.33079 -0.09900
C 	C 	0.29723 0.25207 0.32815 0.11600
C 	C 	0.09112 0.60625 0.32460 0.09600
C 	C 	0.54420 0.78336 0.33294 0.10900
C 	C 	0.72422 0.88477 0.32398 -0.08600
C 	C 	0.06650 0.61192 0.34935 -0.06100
C 	C 	0.95535 0.67713 0.33550 0.12100
C 	C 	0.31801 0.33021 0.34575 0.10400
Br	Br	0.42404 0.46926 0.33984 -0.12900
Br	Br	0.84482 0.70332 0.34168 -0.13300
C 	C 	0.16639 0.12621 0.35437 0.13200
C 	C 	0.99299 0.64121 0.35469 0.08200
C 	C 	0.56400 0.80469 0.35836 -0.08800
C 	C 	0.74211 0.91815 0.34884 0.09700
Br	Br	0.87035 0.03279 0.35872 -0.11200
C 	C 	0.13082 0.60757 0.36927 0.32000
O 	O 	0.18351 0.40493 0.38303 -0.33900
O 	O 	0.22389 0.68763 0.37195 -0.35000
C 	C 	0.25858 0.30637 0.36732 -0.08300
C 	C 	0.18906 0.20237 0.37265 0.10500
Br	Br	0.08401 0.98196 0.36191 -0.13900
C 	C 	0.26307 0.38942 0.38311 0.32200
C 	C 	0.48345 0.74489 0.37641 0.32600
O 	O 	0.47094 0.65363 0.38319 -0.33300
C 	C 	0.66496 0.86833 0.36644 0.11300
Ni	Ni	0.15633 0.48202 0.41030 1.13500
O 	O 	0.16529 0.69538 0.42029 -0.34100
O 	O 	0.08713 0.53601 0.38681 -0.33200
Br	Br	0.12553 0.16503 0.40467 -0.09600
Br	Br	0.94776 0.63725 0.38825 -0.13300
Ni	Ni	0.39863 0.58079 0.41551 1.12800
Ni	Ni	0.29822 0.72490 0.40458 1.13000
O 	O 	0.33531 0.43041 0.40051 -0.32600
O 	O 	0.44064 0.79201 0.38874 -0.34000
O 	O 	0.28850 0.59271 0.40392 -0.72500
H 	H 	0.29344 0.58425 0.38593 0.17600
Br	Br	0.58834 0.00337 0.42825 -0.09400
Br	Br	0.70125 0.86968 0.40071 -0.13300
C 	C 	0.12382 0.63070 0.43880 0.33900
O 	O 	0.18865 0.39418 0.43358 -0.33800
O 	O 	0.13440 0.54831 0.44043 -0.34700
C 	C 	0.05196 0.64146 0.45567 -0.06800
Br	Br	0.19352 0.86340 0.45581 -0.13300
C 	C 	0.25546 0.43277 0.45161 0.35300
Br	Br	0.44983 0.40323 0.45141 -0.15500
C 	C 	0.44695 0.77143 0.44498 0.34300
O 	O 	0.48611 0.72522 0.43192 -0.33900
O 	O 	0.35805 0.76054 0.43927 -0.35300
O 	O 	0.33320 0.52532 0.44962 -0.34700
C 	C 	0.58674 0.94073 0.45955 0.08100
Br	Br	0.90313 0.42943 0.44354 -0.13700
C 	C 	0.96497 0.55227 0.46391 0.10100
C 	C 	0.07407 0.73868 0.46567 0.11900
C 	C 	0.25586 0.36426 0.47118 -0.10700
C 	C 	0.50654 0.84215 0.46513 -0.09000
C 	C 	0.65495 0.00031 0.47829 0.13200
Br	Br	0.78107 0.12009 0.46985 -0.10300
C 	C 	0.01173 0.74335 0.48444 0.10200
Br	Br	0.05126 0.32277 0.48168 -0.10200
C 	C 	0.17017 0.30883 0.48626 0.13500
C 	C 	0.34479 0.35933 0.47603 0.13700
C 	C 	0.48448 0.81117 0.49003 0.11600
Br	Br	0.71829 0.62199 0.49793 -0.10800
C 	C 	0.91784 0.55596 0.48595 0.08300
Br	Br	0.01904 0.87267 0.49304 -0.10100
C 	C 	0.17536 0.25104 0.50625 0.07100
C 	C 	0.35493 0.31774 0.49841 0.06800
C 	C 	0.62920 0.97420 0.50329 -0.03900
C 	C 	0.54302 0.87928 0.50917 0.08800
Br	Br	0.56671 0.14658 0.50205 -0.08800
Br	Br	0.37197 0.67758 0.49793 -0.12200
Br	Br	0.48693 0.34433 0.50905 -0.09500
Br	Br	0.82788 0.42952 0.50247 -0.11600
C 	C 	0.94214 0.65231 0.49658 -0.01300
Br	Br	0.27989 0.05471 0.51596 -0.07700
Br	Br	0.05445 0.15777 0.52382 -0.07600
C 	C 	0.65515 0.13269 0.52573 0.06300
C 	C 	0.26991 0.26354 0.51376 0.02400
C 	C 	0.68018 0.05369 0.52284 0.05300
C 	C 	0.80182 0.62779 0.52557 0.07100
C 	C 	0.90491 0.65784 0.52181 0.02900
C 	C 	0.30740 0.15333 0.54219 0.07300
C 	C 	0.28306 0.23289 0.53902 0.02300
C 	C 	0.68852 0.19656 0.54680 0.13400
C 	C 	0.74641 0.04536 0.53993 0.08000
Br	Br	0.78959 0.94442 0.53452 -0.13500
Br	Br	0.11276 0.73126 0.53822 -0.09600
Br	Br	0.50173 0.84572 0.54324 -0.12100
Br	Br	0.65262 0.30318 0.55108 -0.16400
C 	C 	0.35675 0.14999 0.56408 0.13000
C 	C 	0.28745 0.29373 0.55963 0.07100
Br	Br	0.25459 0.40316 0.55603 -0.10400
Br	Br	0.40160 0.04973 0.56758 -0.11100
Br	Br	0.61973 0.55668 0.55529 -0.12400
C 	C 	0.73979 0.17651 0.56594 -0.10500
C 	C 	0.77593 0.10666 0.56163 0.12900
C 	C 	0.76063 0.60163 0.54965 0.12700
C 	C 	0.82355 0.60914 0.56970 -0.09400
C 	C 	0.92914 0.66534 0.56657 0.11500
C 	C 	0.97003 0.68282 0.54257 0.05000
C 	C 	0.46423 0.25693 0.59940 0.33100
O 	O 	0.63171 0.15454 0.60038 -0.33800
O 	O 	0.52798 0.35793 0.60073 -0.34800
H 	H 	0.66731 0.33151 0.60479 0.17200
C 	C 	0.37500 0.22207 0.58315 -0.09200
C 	C 	0.32577 0.28126 0.58226 0.13300
C 	C 	0.72520 0.20102 0.59151 0.32500
O 	O 	0.72898 0.54213 0.60791 -0.33200
C 	C 	0.78321 0.53172 0.58967 0.32800
O 	O 	0.80478 0.26415 0.60552 -0.32700
O 	O 	0.82355 0.47077 0.59201 -0.34600
Br	Br	0.85953 0.08999 0.58612 -0.10000
Br	Br	0.01666 0.71137 0.59526 -0.10100
O 	O 	0.46679 0.19069 0.61576 -0.33400
O 	O 	0.67706 0.33837 0.62285 -0.72300
Br	Br	0.31512 0.34831 0.61184 -0.11700
Ni	Ni	0.81780 0.39497 0.62439 1.12500
Ni	Ni	0.62096 0.42534 0.62956 1.13200
Ni	Ni	0.59300 0.19847 0.63197 1.13400
O 	O 	0.85769 0.53469 0.64261 -0.33700
Br	Br	0.82736 0.75689 0.64459 -0.13800
C 	C 	0.21465 0.09405 0.74701 0.35000
Ni	Ni	0.10588 0.15755 0.78090 1.13300
Ni	Ni	0.07061 0.92792 0.78042 1.12700
O 	O 	0.16137 0.14133 0.74874 -0.35600
O 	O 	0.20362 0.02284 0.76321 -0.33100
C 	C 	0.26575 0.09297 0.70341 0.13200
C 	C 	0.29376 0.12832 0.72793 -0.09500
Br	Br	0.43010 0.26175 0.76638 -0.12200
Br	Br	0.14049 0.96799 0.69686 -0.15000
C 	C 	0.39020 0.21375 0.73279 0.11200
Br	Br	0.91737 0.62311 0.75580 -0.13800
Br	Br	0.10052 0.22581 0.69583 -0.09700
C 	C 	0.50238 0.27142 0.66852 0.34500
O 	O 	0.50217 0.33698 0.65209 -0.34400
O 	O 	0.69892 0.17002 0.64823 -0.34000
O 	O 	0.56048 0.23003 0.66558 -0.35900
Br	Br	0.62838 0.13730 0.70950 -0.13000
C 	C 	0.45675 0.26513 0.71307 0.11200
C 	C 	0.42644 0.23226 0.68845 -0.09000
C 	C 	0.32912 0.14840 0.68365 0.10500
Br	Br	0.58867 0.38203 0.71969 -0.12200
Br	Br	0.28000 0.11258 0.65011 -0.10400
C 	C 	0.77127 0.23595 0.66299 0.35100
O 	O 	0.70437 0.48232 0.66079 -0.35700
C 	C 	0.76909 0.17655 0.70582 0.11900
Br	Br	0.77509 0.17713 0.75934 -0.12300
Br	Br	0.84725 0.90022 0.69429 -0.15600
C 	C 	0.84758 0.71550 0.67702 0.10800
C 	C 	0.80274 0.54197 0.66057 0.34500
O 	O 	0.81552 0.33481 0.65880 -0.35100
C 	C 	0.82637 0.17992 0.72661 0.10500
C 	C 	0.81370 0.19896 0.68227 -0.09600
C 	C 	0.85000 0.62259 0.67977 -0.09600
C 	C 	0.85997 0.77804 0.69785 0.11200
Ni	Ni	0.87794 0.96480 0.77617 1.10900
O 	O 	0.84735 0.83093 0.75645 -0.33700
C 	C 	0.88092 0.75091 0.72129 -0.09100
C 	C 	0.87441 0.59736 0.70301 0.11300
C 	C 	0.92198 0.18746 0.72353 -0.08200
C 	C 	0.91213 0.21306 0.67925 0.12000
C 	C 	0.95796 0.14219 0.74233 0.31800
C 	C 	0.91420 0.82597 0.74187 0.32700
O 	O 	0.91688 0.04220 0.74304 -0.34000
C 	C 	0.96629 0.20766 0.69989 0.09500
Br	Br	0.97240 0.23961 0.64680 -0.13800
C 	C 	0.88841 0.66057 0.72379 0.10700
Br	Br	0.88960 0.47667 0.70636 -0.13900
O 	O 	0.01800 0.19954 0.76039 -0.31400
O 	O 	0.01114 0.88426 0.74605 -0.34200
C 	C 	0.20223 0.07780 0.81804 0.35400
O 	O 	0.14397 0.97830 0.81274 -0.37100
O 	O 	0.21603 0.15173 0.80190 -0.34500
O 	O 	0.04171 0.18445 0.81057 -0.32300
Br	Br	0.99100 0.37594 0.80046 -0.13400
Br	Br	0.38021 0.03170 0.80781 -0.11000
Br	Br	0.69347 0.60528 0.79563 -0.11500
C 	C 	0.88160 0.81529 0.81250 0.31800
O 	O 	0.83891 0.87204 0.80699 -0.34500
O 	O 	0.87731 0.08964 0.79489 -0.32000
C 	C 	0.94274 0.14940 0.81240 0.30900
O 	O 	0.94606 0.80690 0.79696 -0.34100
H 	H 	0.00774 0.01262 0.80367 0.18500
O 	O 	0.01339 0.01492 0.78546 -0.70200
C 	C 	0.27240 0.10484 0.83916 -0.08900
C 	C 	0.35506 0.08604 0.83788 0.11700
Br	Br	0.53550 0.08680 0.85653 -0.12300
Br	Br	0.56184 0.46374 0.84420 -0.13100
C 	C 	0.74299 0.64997 0.82891 0.10900
C 	C 	0.83643 0.74085 0.83281 -0.08100
C 	C 	0.92650 0.29672 0.82969 0.11000
C 	C 	0.90749 0.19408 0.83172 -0.08500
Br	Br	0.91245 0.47687 0.84500 -0.13900
C 	C 	0.25115 0.13897 0.86156 0.11400
Br	Br	0.14169 0.16994 0.86324 -0.12100
C 	C 	0.31248 0.15440 0.88249 0.11400
C 	C 	0.40226 0.14894 0.88026 -0.09100
C 	C 	0.42025 0.10861 0.85843 0.11300
C 	C 	0.72236 0.62421 0.87365 -0.09600
C 	C 	0.68622 0.59155 0.84936 0.11400
C 	C 	0.80845 0.72125 0.87728 0.10900
C 	C 	0.80763 0.32223 0.88887 0.34800
C 	C 	0.87108 0.77313 0.85716 0.09600
C 	C 	0.84206 0.18458 0.87327 0.11200
C 	C 	0.85496 0.28486 0.87076 -0.09600
C 	C 	0.86340 0.13770 0.85332 0.12500
Br	Br	0.83010 0.99519 0.85544 -0.17500
Br	Br	0.00700 0.88282 0.86296 -0.13200
C 	C 	0.89785 0.34118 0.84897 0.11400
C 	C 	0.69912 0.54543 0.89262 0.34500
C 	C 	0.48686 0.21122 0.89716 0.34600
O 	O 	0.51960 0.31020 0.89843 -0.34800
O 	O 	0.75199 0.49809 0.89296 -0.36400
O 	O 	0.71122 0.26498 0.89332 -0.36000
Br	Br	0.79718 0.11180 0.90420 -0.13800
O 	O 	0.86454 0.40265 0.90314 -0.34900
O 	O 	0.51705 0.16620 0.91345 -0.33400
Ni	Ni	0.66061 0.23420 0.92795 1.13600
O 	O 	0.63063 0.52671 0.90977 -0.32900
Br	Br	0.27477 0.18434 0.91428 -0.12600
Br	Br	0.84116 0.78187 0.90991 -0.13100
Br	Br	0.08688 0.52127 0.92890 -0.13700
Ni	Ni	0.80917 0.47670 0.92458 1.13200
C 	C 	0.52641 0.22016 0.96893 0.32100
C 	C 	0.72221 0.56286 0.96319 0.32700
Ni	Ni	0.56873 0.39177 0.93124 1.12600
O 	O 	0.48479 0.26030 0.95372 -0.32100
O 	O 	0.59045 0.19020 0.96077 -0.33400
O 	O 	0.62586 0.49058 0.96126 -0.33700
O 	O 	0.67993 0.36914 0.93401 -0.72100
H 	H 	0.68810 0.37290 0.95208 0.17800
C 	C 	0.49637 0.20106 0.99510 -0.09500
C 	C 	0.41146 0.10672 0.00179 0.12400
Br	Br	0.30544 0.03112 0.97787 -0.08300
C 	C 	0.68927 0.67758 0.99057 0.12900
C 	C 	0.10389 0.50939 0.98221 0.06900
Br	Br	0.18363 0.65817 0.98189 -0.10000
C 	C 	0.75124 0.63454 0.98460 -0.09400
O 	O 	0.78677 0.58357 0.94439 -0.33200
Br	Br	0.63491 0.72462 0.96457 -0.11500
O 	O 	0.79807 0.26450 0.94308 -0.32800
C 	C 	0.05048 0.45687 0.96085 0.14400
C 	C 	0.86735 0.35169 0.95425 0.33400
O 	O 	0.86023 0.43673 0.95416 -0.36100
Br	Br	0.86344 0.15322 0.98341 -0.09600
C 	C 	0.96301 0.36049 0.96345 -0.11200
C 	C 	0.96122 0.29779 0.98314 0.11400
