data_crystal

_cell_length_a 31.90741
_cell_length_b 24.52834
_cell_length_c 25.20826
_cell_angle_alpha 89.92416
_cell_angle_beta  89.91991
_cell_angle_gamma 90.91480

_symmetry_space_group_name_	'P 1'
_symmetry_space_group_name_H-M	'P 1'

loop_
_symmetry_equiv_pos_as_xyz
  x,y,z

loop_
_atom_site_label
_atom_site_type_symbol
_atom_site_fract_x
_atom_site_fract_y
_atom_site_fract_z
_atom_site_charge
Zn	Zn	0.50728 0.47147 0.99469 1.23900
C 	C 	0.55275 0.57329 0.98484 0.33700
O 	O 	0.56447 0.44584 0.00353 -0.43600
O 	O 	0.57024 0.55890 0.02976 -0.41000
O 	O 	0.56253 0.45687 0.09293 -0.42400
C 	C 	0.45428 0.54411 0.05153 0.31900
O 	O 	0.45847 0.49399 0.03502 -0.41300
O 	O 	0.48502 0.56806 0.07729 -0.46500
C 	C 	0.58135 0.43856 0.05031 0.30900
O 	O 	0.48232 0.38214 0.00848 -0.32000
Zn	Zn	0.53616 0.52849 0.09260 1.18900
O 	O 	0.52277 0.54289 0.96354 -0.34300
C 	C 	0.47369 0.38181 0.95826 0.27300
O 	O 	0.48440 0.42587 0.93265 -0.27500
Zn	Zn	0.31644 0.11275 0.98602 1.23100
C 	C 	0.35221 0.12301 0.08958 0.31300
O 	O 	0.25502 0.10667 0.99241 -0.39000
O 	O 	0.34369 0.17520 0.09090 -0.43700
O 	O 	0.25351 0.14380 0.07512 -0.45200
C 	C 	0.35044 0.22064 0.97279 0.33600
O 	O 	0.35989 0.16897 0.97725 -0.45100
O 	O 	0.31504 0.23808 0.99264 -0.48300
C 	C 	0.23692 0.11164 0.03901 0.28700
O 	O 	0.31457 0.10992 0.89223 -0.30300
Zn	Zn	0.29012 0.20472 0.05565 1.17200
O 	O 	0.33139 0.09023 0.05777 -0.40000
C 	C 	0.33094 0.06205 0.89755 0.27700
O 	O 	0.33339 0.04517 0.94606 -0.34100
C 	C 	0.51211 0.99845 0.29065 0.15600
C 	C 	0.48121 0.02706 0.26336 -0.11600
H 	H 	0.45625 0.04612 0.28539 0.07400
C 	C 	0.48223 0.03018 0.20788 0.05600
C 	C 	0.51362 0.00315 0.17973 -0.09700
C 	C 	0.54497 0.97505 0.20694 0.06400
C 	C 	0.54386 0.97227 0.26248 -0.10900
H 	H 	0.56719 0.94935 0.28381 0.07500
N 	N 	0.51091 0.99546 0.34752 -0.17600
C 	C 	0.49336 0.95037 0.37162 0.19500
C 	C 	0.49020 0.94778 0.42725 -0.05800
C 	C 	0.50509 0.99190 0.45772 0.04100
C 	C 	0.52323 0.03763 0.43249 -0.06500
C 	C 	0.52625 0.03844 0.37681 0.18700
C 	C 	0.47222 0.90195 0.45275 -0.00700
C 	C 	0.46921 0.90023 0.50807 -0.00800
C 	C 	0.48410 0.94434 0.53879 -0.05500
C 	C 	0.50185 0.99029 0.51351 0.04000
C 	C 	0.51649 0.03457 0.54396 -0.06400
C 	C 	0.53785 0.08189 0.46318 -0.00900
C 	C 	0.53442 0.08042 0.51846 -0.00900
C 	C 	0.48188 0.94306 0.59454 0.19400
N 	N 	0.49695 0.98625 0.62377 -0.17300
C 	C 	0.51330 0.03202 0.59957 0.18700
C 	C 	0.49712 0.98266 0.68061 0.14300
C 	C 	0.46087 0.99490 0.70956 -0.09000
C 	C 	0.46115 0.99166 0.76506 0.06000
C 	C 	0.49818 0.97787 0.79143 -0.08300
C 	C 	0.53474 0.96699 0.76270 0.05600
C 	C 	0.53386 0.96809 0.70721 -0.09900
O 	O 	0.54375 0.08075 0.35265 -0.19400
O 	O 	0.47902 0.90956 0.34249 -0.19400
O 	O 	0.46577 0.89992 0.61882 -0.18400
O 	O 	0.52638 0.07359 0.62861 -0.19400
H 	H 	0.56159 0.95810 0.68462 0.07600
H 	H 	0.43287 0.00738 0.68888 0.06700
H 	H 	0.55183 0.11753 0.44438 0.05700
H 	H 	0.54587 0.11492 0.54131 0.05700
H 	H 	0.46059 0.86756 0.42988 0.05800
H 	H 	0.45534 0.86453 0.52688 0.06100
H 	H 	0.49871 0.97631 0.83437 0.05800
H 	H 	0.51323 0.00319 0.13674 0.05300
Zn	Zn	0.69093 0.85995 0.97640 1.22900
C 	C 	0.66366 0.86321 0.08486 0.31300
O 	O 	0.75256 0.85920 0.97452 -0.42000
O 	O 	0.66730 0.81002 0.08767 -0.43900
O 	O 	0.75749 0.82930 0.05977 -0.47800
C 	C 	0.65111 0.75534 0.97399 0.32300
O 	O 	0.64433 0.80774 0.97786 -0.43300
O 	O 	0.68570 0.73508 0.99326 -0.42500
C 	C 	0.77410 0.85442 0.01865 0.30600
O 	O 	0.68604 0.85332 0.88309 -0.26200
Zn	Zn	0.71626 0.77104 0.05054 1.17700
O 	O 	0.68299 0.89078 0.04724 -0.44600
C 	C 	0.67247 0.90292 0.88526 0.26900
O 	O 	0.67462 0.92486 0.93183 -0.37100
Zn	Zn	0.20656 0.64609 0.00226 1.21800
C 	C 	0.18241 0.66378 0.10967 0.31100
O 	O 	0.16881 0.70874 0.99719 -0.38200
O 	O 	0.19328 0.71549 0.10600 -0.43200
O 	O 	0.22127 0.77184 0.00352 -0.48900
C 	C 	0.29121 0.64026 0.03980 0.30400
O 	O 	0.26682 0.63365 0.99812 -0.41800
O 	O 	0.28001 0.67273 0.07852 -0.47800
C 	C 	0.18337 0.75817 0.98772 0.33100
O 	O 	0.20189 0.63456 0.90897 -0.25300
Zn	Zn	0.24730 0.73739 0.06471 1.17900
O 	O 	0.19880 0.62834 0.07724 -0.44100
C 	C 	0.17704 0.59369 0.92033 0.28600
O 	O 	0.17261 0.58381 0.97042 -0.35400
C 	C 	0.01271 0.51077 0.70033 0.13300
C 	C 	0.04771 0.52618 0.73078 -0.09700
H 	H 	0.07534 0.54301 0.71137 0.07700
C 	C 	0.04681 0.52010 0.78612 0.05900
C 	C 	0.01011 0.50063 0.81099 -0.09100
C 	C 	0.97476 0.48614 0.78080 0.06500
C 	C 	0.97648 0.49013 0.72532 -0.08800
H 	H 	0.94985 0.47734 0.70154 0.07400
N 	N 	0.01382 0.51652 0.64354 -0.18000
C 	C 	0.03090 0.47603 0.61325 0.18900
C 	C 	0.03130 0.48030 0.55751 -0.05300
C 	C 	0.01396 0.52637 0.53330 0.02300
C 	C 	0.99678 0.56762 0.56482 -0.04200
C 	C 	0.99719 0.56205 0.62045 0.19800
C 	C 	0.04861 0.43918 0.52573 -0.01100
C 	C 	0.04852 0.44402 0.47042 -0.01000
C 	C 	0.03109 0.49003 0.44595 -0.05500
C 	C 	0.01376 0.53118 0.47746 0.02500
C 	C 	0.99623 0.57711 0.45325 -0.04600
C 	C 	0.97935 0.61364 0.54036 -0.00900
C 	C 	0.97904 0.61832 0.48504 -0.00700
C 	C 	0.03076 0.49566 0.39032 0.18900
N 	N 	0.01353 0.54078 0.36721 -0.18100
C 	C 	0.99625 0.58113 0.39749 0.19900
C 	C 	0.01404 0.54617 0.31037 0.12800
C 	C 	0.04646 0.57589 0.28540 -0.09900
C 	C 	0.04741 0.58041 0.22994 0.05100
C 	C 	0.01578 0.55534 0.19968 -0.09500
C 	C 	0.98346 0.52534 0.22430 0.06200
C 	C 	0.98272 0.52057 0.27976 -0.08900
O 	O 	0.98148 0.60068 0.65049 -0.17500
O 	O 	0.04676 0.43279 0.63643 -0.19100
O 	O 	0.04722 0.45754 0.36032 -0.19400
O 	O 	0.97959 0.62382 0.37427 -0.19000
H 	H 	0.95837 0.49655 0.29913 0.07400
H 	H 	0.07105 0.59449 0.30913 0.07000
H 	H 	0.96596 0.64584 0.56402 0.06500
H 	H 	0.96544 0.65406 0.46707 0.06000
H 	H 	0.06216 0.40341 0.54369 0.05800
H 	H 	0.06201 0.41188 0.44676 0.05700
H 	H 	0.01720 0.55751 0.15675 0.05600
H 	H 	0.00904 0.49690 0.85380 0.06100
Zn	Zn	0.83555 0.37745 0.00160 1.21800
C 	C 	0.83643 0.39307 0.88918 0.31600
O 	O 	0.77809 0.37304 0.03019 -0.47000
O 	O 	0.82433 0.34298 0.87831 -0.43300
O 	O 	0.74869 0.35732 0.94934 -0.47900
C 	C 	0.86852 0.27462 0.96753 0.34100
O 	O 	0.87738 0.32648 0.97575 -0.44200
O 	O 	0.82934 0.25756 0.96501 -0.49800
C 	C 	0.74496 0.37160 0.99929 0.36500
O 	O 	0.86350 0.36376 0.08783 -0.30800
Zn	Zn	0.78625 0.29919 0.92980 1.17800
O 	O 	0.82523 0.41517 0.93424 -0.41900
C 	C 	0.87285 0.41544 0.08563 0.27800
O 	O 	0.86281 0.43980 0.04212 -0.38000
Zn	Zn	0.01114 0.00550 0.01501 1.21800
C 	C 	0.05536 0.90846 0.98621 0.35800
O 	O 	0.96301 0.95701 0.00284 -0.38500
O 	O 	0.02993 0.88457 0.02033 -0.42300
O 	O 	0.96244 0.92830 0.08869 -0.47200
C 	C 	0.07896 0.00586 0.08727 0.31600
O 	O 	0.04474 0.03124 0.07414 -0.45700
O 	O 	0.07672 0.95366 0.09828 -0.47700
C 	C 	0.94413 0.93153 0.04209 0.32000
O 	O 	0.96541 0.07618 0.03707 -0.29600
Zn	Zn	0.02264 0.91535 0.09549 1.17600
O 	O 	0.05426 0.96171 0.97954 -0.40000
C 	C 	0.97626 0.09711 0.99179 0.31000
O 	O 	0.00203 0.06882 0.96365 -0.34100
C 	C 	0.90245 0.23485 0.96390 -0.12100
C 	C 	0.89746 0.18856 0.93177 0.04600
C 	C 	0.92524 0.14544 0.93615 -0.05100
C 	C 	0.95827 0.14816 0.97262 0.04300
C 	C 	0.96717 0.19791 0.99908 -0.10700
C 	C 	0.93817 0.24046 0.99592 0.12300
H 	H 	0.91920 0.10822 0.91415 0.07100
H 	H 	0.94244 0.27671 0.01998 0.04800
H 	H 	0.87087 0.18487 0.90526 0.02500
C 	C 	0.00592 0.20439 0.03333 0.75600
F 	F 	0.01609 0.25889 0.04103 -0.45900
F 	F 	0.99876 0.18027 0.08218 -0.44000
F 	F 	0.03984 0.17999 0.00931 -0.46400
C 	C 	0.87518 0.47879 0.84193 0.01400
H 	H 	0.85117 0.51014 0.84943 0.06200
C 	C 	0.89119 0.46110 0.78654 -0.04100
H 	H 	0.88052 0.47826 0.74818 0.05700
C 	C 	0.92078 0.48055 0.86282 -0.03700
H 	H 	0.93462 0.51375 0.88739 0.06200
C 	C 	0.93645 0.46249 0.80783 0.00800
C 	C 	0.87165 0.41851 0.85829 -0.07500
C 	C 	0.91683 0.42000 0.87950 0.00500
H 	H 	0.92729 0.40302 0.91803 0.04800
C 	C 	0.93275 0.40220 0.82429 -0.04100
H 	H 	0.95672 0.37077 0.81693 0.05800
C 	C 	0.88712 0.40041 0.80335 0.01000
H 	H 	0.87299 0.36721 0.77903 0.04300
C 	C 	0.93284 0.51956 0.14031 -0.03800
H 	H 	0.93801 0.56195 0.12592 0.05200
C 	C 	0.88985 0.49428 0.15585 0.00400
H 	H 	0.85936 0.51535 0.15383 0.05100
C 	C 	0.94376 0.46735 0.10935 0.00500
H 	H 	0.95778 0.46621 0.06903 0.04500
C 	C 	0.90108 0.44235 0.12521 -0.05600
C 	C 	0.95219 0.49467 0.19059 0.00400
C 	C 	0.96328 0.44264 0.15990 -0.03700
H 	H 	0.99379 0.42158 0.16180 0.06300
C 	C 	0.92017 0.41720 0.17540 0.00700
H 	H 	0.91476 0.37477 0.18949 0.05600
C 	C 	0.90941 0.46968 0.20663 -0.03800
H 	H 	0.89509 0.47078 0.24676 0.05300
C 	C 	0.09076 0.87759 0.96551 -0.10100
C 	C 	0.13167 0.89417 0.97844 0.04400
C 	C 	0.16353 0.85589 0.98068 -0.04100
C 	C 	0.15503 0.80107 0.96766 0.03300
C 	C 	0.11646 0.78774 0.94240 -0.12100
C 	C 	0.08361 0.82521 0.94488 0.10400
H 	H 	0.19397 0.86814 0.99592 0.10100
H 	H 	0.05230 0.81306 0.93250 0.09700
H 	H 	0.13796 0.93553 0.99143 0.06100
C 	C 	0.11058 0.73550 0.91114 0.78900
F 	F 	0.08159 0.74240 0.87097 -0.44500
F 	F 	0.14791 0.72047 0.88787 -0.45900
F 	F 	0.09624 0.69435 0.94434 -0.46000
C 	C 	0.08557 0.59578 0.84501 -0.02000
H 	H 	0.06183 0.62803 0.84032 0.09900
C 	C 	0.13237 0.60103 0.82903 0.01800
H 	H 	0.14766 0.63774 0.81133 0.09200
C 	C 	0.09811 0.56907 0.89810 0.01500
H 	H 	0.08503 0.57946 0.93759 0.07900
C 	C 	0.14453 0.57406 0.88183 -0.03300
C 	C 	0.08344 0.53897 0.81934 0.00300
C 	C 	0.09583 0.51208 0.87218 -0.03900
H 	H 	0.08086 0.47524 0.89007 0.05400
C 	C 	0.14259 0.51726 0.85623 -0.00100
H 	H 	0.16635 0.48506 0.86108 0.05800
C 	C 	0.12989 0.54385 0.80283 -0.03700
H 	H 	0.14298 0.53324 0.76342 0.05800
C 	C 	0.08012 0.64953 0.15809 -0.04400
H 	H 	0.05040 0.66855 0.14547 0.04600
C 	C 	0.10892 0.61539 0.12224 0.00700
H 	H 	0.10341 0.60660 0.07958 0.04500
C 	C 	0.11893 0.68052 0.18059 0.00900
H 	H 	0.12169 0.72533 0.18606 0.03500
C 	C 	0.14728 0.64596 0.14505 -0.07500
C 	C 	0.08435 0.60636 0.20210 0.00600
C 	C 	0.12268 0.63706 0.22517 -0.04500
H 	H 	0.12852 0.64614 0.26766 0.04600
C 	C 	0.15160 0.60294 0.18902 0.00900
H 	H 	0.18135 0.58389 0.20148 0.03900
C 	C 	0.11294 0.57218 0.16643 -0.04100
H 	H 	0.11032 0.52738 0.16068 0.05000
C 	C 	0.81689 0.87687 0.02215 -0.12300
C 	C 	0.82854 0.90911 0.06564 0.03300
C 	C 	0.87007 0.92651 0.07184 -0.04300
C 	C 	0.90081 0.91085 0.03530 0.00200
C 	C 	0.88951 0.87639 0.99209 -0.10400
C 	C 	0.84701 0.86200 0.98465 0.11000
H 	H 	0.87840 0.95244 0.10508 0.05900
H 	H 	0.83756 0.83757 0.95081 0.07300
H 	H 	0.80532 0.92077 0.09473 0.03800
C 	C 	0.92242 0.85413 0.95463 0.78500
F 	F 	0.90646 0.81165 0.92426 -0.43200
F 	F 	0.93628 0.89495 0.92072 -0.42600
F 	F 	0.95595 0.83432 0.98303 -0.43900
C 	C 	0.61963 0.95419 0.77270 -0.04000
H 	H 	0.63059 0.96975 0.73361 0.05300
C 	C 	0.62653 0.89574 0.79443 0.00800
H 	H 	0.64349 0.86288 0.77360 0.06900
C 	C 	0.63245 0.97838 0.82731 0.00900
H 	H 	0.65430 0.01347 0.83349 0.03400
C 	C 	0.63873 0.92032 0.84844 -0.05000
C 	C 	0.57372 0.95081 0.79171 0.00300
C 	C 	0.58623 0.97527 0.84576 -0.03200
H 	H 	0.56970 0.00820 0.86705 0.03600
C 	C 	0.59283 0.91706 0.86712 0.00000
H 	H 	0.58193 0.90160 0.90630 0.04700
C 	C 	0.58020 0.89275 0.81288 -0.03300
H 	H 	0.55837 0.85760 0.80688 0.06500
C 	C 	0.58976 0.90929 0.09904 0.00200
H 	H 	0.57723 0.90170 0.05859 0.03100
C 	C 	0.59738 0.96599 0.12429 -0.03200
H 	H 	0.59086 0.00570 0.10504 0.03300
C 	C 	0.56974 0.88835 0.15135 -0.04100
H 	H 	0.54016 0.86411 0.15453 0.04700
C 	C 	0.57763 0.94479 0.17629 0.00100
C 	C 	0.63286 0.89148 0.11924 -0.07700
C 	C 	0.61331 0.87013 0.17116 0.00800
H 	H 	0.62013 0.83039 0.19016 0.03900
C 	C 	0.62086 0.92700 0.19653 -0.04200
H 	H 	0.63391 0.93450 0.23670 0.04700
C 	C 	0.64084 0.94786 0.14413 0.00600
H 	H 	0.67042 0.97212 0.14088 0.04100
C 	C 	0.12021 0.03329 0.07940 -0.10200
C 	C 	0.12212 0.08878 0.06581 0.02700
C 	C 	0.16010 0.11331 0.05110 -0.03900
C 	C 	0.19698 0.08314 0.05023 0.03200
C 	C 	0.19586 0.02742 0.06537 -0.13700
C 	C 	0.15727 0.00307 0.08043 0.07700
H 	H 	0.16094 0.15619 0.04064 0.05700
H 	H 	0.15591 0.96049 0.09177 0.06300
H 	H 	0.09400 0.11293 0.06603 0.08900
C 	C 	0.23566 0.99428 0.06605 0.79700
F 	F 	0.22798 0.94076 0.08119 -0.47900
F 	F 	0.25337 0.99386 0.01595 -0.46600
F 	F 	0.26393 0.01711 0.10149 -0.46200
C 	C 	0.42014 0.06740 0.81866 -0.03900
H 	H 	0.44283 0.10138 0.81130 0.04900
C 	C 	0.40902 0.04332 0.87359 -0.00500
H 	H 	0.42212 0.05781 0.91196 0.04000
C 	C 	0.37310 0.06719 0.80351 0.00800
H 	H 	0.35646 0.10118 0.78401 0.05000
C 	C 	0.36236 0.04283 0.85821 -0.06100
C 	C 	0.42380 0.00918 0.79679 -0.00500
C 	C 	0.37714 0.00856 0.78102 -0.05300
H 	H 	0.36416 0.99399 0.74265 0.06300
C 	C 	0.36579 0.98462 0.83639 0.02000
H 	H 	0.34309 0.95071 0.84395 0.05600
C 	C 	0.41274 0.98495 0.85154 -0.02600
H 	H 	0.42892 0.95087 0.87155 0.05200
C 	C 	0.42257 0.13364 0.14859 0.00700
H 	H 	0.42684 0.17861 0.14680 0.04000
C 	C 	0.45401 0.09136 0.12740 -0.04800
H 	H 	0.48467 0.10126 0.10856 0.04000
C 	C 	0.41653 0.09948 0.19991 -0.04400
H 	H 	0.41604 0.11651 0.24068 0.04800
C 	C 	0.44754 0.05740 0.17826 0.00500
C 	C 	0.38663 0.10091 0.12267 -0.07000
C 	C 	0.38007 0.06712 0.17342 0.01500
H 	H 	0.34930 0.05737 0.19205 0.05600
C 	C 	0.41150 0.02492 0.15218 -0.04600
H 	H 	0.40720 0.97994 0.15383 0.06400
C 	C 	0.41765 0.05901 0.10107 0.00900
H 	H 	0.41788 0.04255 0.06005 0.03400
C 	C 	0.38151 0.26024 0.95103 -0.11100
C 	C 	0.42372 0.24592 0.94566 0.04200
C 	C 	0.45449 0.28639 0.93807 -0.05500
C 	C 	0.44350 0.34154 0.93667 0.05600
C 	C 	0.40059 0.35493 0.93166 -0.13300
C 	C 	0.36981 0.31414 0.94063 0.10000
H 	H 	0.48724 0.27536 0.93893 0.06100
H 	H 	0.33698 0.32471 0.94167 0.06800
H 	H 	0.43307 0.20398 0.95081 0.04000
C 	C 	0.38753 0.41307 0.92110 0.79400
F 	F 	0.34597 0.41531 0.90560 -0.43600
F 	F 	0.39252 0.44365 0.96674 -0.42500
F 	F 	0.41163 0.43562 0.88079 -0.40200
C 	C 	0.33215 0.61350 0.04197 -0.12000
C 	C 	0.34826 0.59607 0.09073 0.03400
C 	C 	0.38837 0.57437 0.09357 -0.03800
C 	C 	0.41316 0.57031 0.04785 0.01100
C 	C 	0.39744 0.58882 0.99841 -0.09000
C 	C 	0.35641 0.60900 0.99587 0.11600
H 	H 	0.40015 0.56031 0.13141 0.04800
H 	H 	0.34381 0.62293 0.95844 0.07900
H 	H 	0.32961 0.59918 0.12652 0.03900
C 	C 	0.42518 0.59075 0.94948 0.78800
F 	F 	0.43732 0.53876 0.93606 -0.40900
F 	F 	0.40481 0.61278 0.90620 -0.42400
F 	F 	0.46026 0.62273 0.95968 -0.45200
C 	C 	0.70322 0.38266 0.02148 -0.13300
C 	C 	0.66848 0.35103 0.00585 0.01700
C 	C 	0.62831 0.36479 0.02255 -0.04100
C 	C 	0.62218 0.41119 0.05400 0.03300
C 	C 	0.65766 0.43833 0.07634 -0.13200
C 	C 	0.69803 0.42498 0.05812 0.10900
H 	H 	0.60152 0.34196 0.00744 0.05100
H 	H 	0.72521 0.44823 0.07137 0.06400
H 	H 	0.67245 0.31667 0.97945 0.03400
C 	C 	0.65273 0.48091 0.11942 0.78900
F 	F 	0.62736 0.46051 0.15957 -0.46200
F 	F 	0.69093 0.49542 0.14173 -0.45400
F 	F 	0.63514 0.52727 0.09839 -0.49000
C 	C 	0.56569 0.62495 0.96037 -0.06900
C 	C 	0.55247 0.67362 0.98369 0.05900
C 	C 	0.57826 0.72009 0.98184 -0.01800
C 	C 	0.61723 0.71817 0.95626 0.02300
C 	C 	0.62596 0.67338 0.92283 -0.11500
C 	C 	0.60065 0.62601 0.92664 0.10200
H 	H 	0.56998 0.75556 0.00497 0.04000
H 	H 	0.61008 0.58888 0.90694 0.07900
H 	H 	0.52475 0.67362 0.00857 0.04700
C 	C 	0.66341 0.67441 0.88586 0.78800
F 	F 	0.65596 0.64140 0.84226 -0.43200
F 	F 	0.67155 0.72676 0.86756 -0.44200
F 	F 	0.69821 0.65561 0.91240 -0.43700
