data_crystal

_cell_length_a 20.79620
_cell_length_b 21.57571
_cell_length_c 39.82608
_cell_angle_alpha 60.68240
_cell_angle_beta  119.03768
_cell_angle_gamma 133.25029

_symmetry_space_group_name_	'P 1'
_symmetry_space_group_name_H-M	'P 1'

loop_
_symmetry_equiv_pos_as_xyz
  x,y,z

loop_
_atom_site_label
_atom_site_type_symbol
_atom_site_fract_x
_atom_site_fract_y
_atom_site_fract_z
_atom_site_charge
Co	Co	0.05290 0.03912 0.03218 1.17000
Co	Co	0.11350 0.93350 0.03359 1.17100
O 	O 	0.00560 0.06132 0.18121 -0.41300
O 	O 	0.02979 0.12314 0.02529 -0.48200
O 	O 	0.05542 0.95020 0.05629 -0.75500
Co	Co	0.06664 0.00887 0.54585 1.17000
Co	Co	0.08344 0.86588 0.54813 1.16600
O 	O 	0.03443 0.06497 0.69018 -0.41700
C 	C 	0.03764 0.99817 0.71496 0.30700
O 	O 	0.05917 0.10566 0.53764 -0.47300
O 	O 	0.03788 0.95079 0.70246 -0.38700
O 	O 	0.08608 0.77418 0.60058 -0.42100
O 	O 	0.11871 0.83927 0.64260 -0.39200
O 	O 	0.04456 0.90731 0.56791 -0.75900
C 	C 	0.01067 0.97783 0.81973 -0.02800
C 	C 	0.09993 0.02992 0.81488 -0.03800
C 	C 	0.03852 0.97504 0.75722 -0.08800
C 	C 	0.04039 0.94043 0.32018 -0.05600
C 	C 	0.04018 0.94467 0.28322 -0.00800
C 	C 	0.09436 0.91727 0.35672 0.09600
C 	C 	0.06383 0.05025 0.40609 -0.02500
C 	C 	0.06242 0.04357 0.37196 -0.06700
S 	S 	0.12625 0.59110 0.17404 -0.04800
H 	H 	0.11481 0.73087 0.15477 0.03900
C 	C 	0.04904 0.21811 0.10621 0.27300
O 	O 	0.07390 0.18965 0.09500 -0.39600
C 	C 	0.08112 0.21539 0.61147 0.27500
O 	O 	0.10308 0.17965 0.60356 -0.39100
C 	C 	0.09541 0.92743 0.28231 0.09200
O 	O 	0.05256 0.80229 0.06371 -0.42600
C 	C 	0.02589 0.96697 0.47234 0.26400
O 	O 	0.08814 0.95317 0.49319 -0.39400
Co	Co	0.02599 0.88420 0.10033 1.17100
S 	S 	0.09968 0.24081 0.18920 -0.03500
C 	C 	0.02794 0.05778 0.85809 -0.08500
C 	C 	0.06322 0.13809 0.82725 0.10000
N 	N 	0.09142 0.20225 0.80260 -0.12500
H 	H 	0.01441 0.19910 0.19200 0.03100
Co	Co	0.00530 0.84314 0.60933 1.17200
C 	C 	0.02271 0.05747 0.89263 -0.01400
C 	C 	0.06940 0.13946 0.90103 0.08200
N 	N 	0.10665 0.20501 0.90773 -0.11200
C 	C 	0.13531 0.13090 0.41920 0.08800
C 	C 	0.13033 0.11855 0.34933 0.09200
C 	C 	0.11227 0.03490 0.78122 0.00400
C 	C 	0.11129 0.30879 0.11118 -0.07900
S 	S 	0.13074 0.37787 0.53929 -0.05900
H 	H 	0.12220 0.54554 0.00979 0.03100
C 	C 	0.11910 0.32274 0.14460 0.04600
H 	H 	0.10336 0.64580 0.69377 0.03200
Co	Co	0.00141 0.07103 0.57896 1.16600
C 	C 	0.13036 0.79561 0.63426 0.30400
C 	C 	0.00371 0.99375 0.20751 0.28000
O 	O 	0.00118 0.98740 0.48837 -0.36800
N 	N 	0.13746 0.89880 0.38595 -0.11700
N 	N 	0.13956 0.91364 0.28161 -0.11000
C 	C 	0.13979 0.38002 0.07819 -0.01100
H 	H 	0.13506 0.37073 0.05249 0.04000
O 	O 	0.00213 0.90647 0.98715 -0.41600
O 	O 	0.00015 0.94105 0.19681 -0.37400
O 	O 	0.14624 0.88964 0.13309 -0.38100
O 	O 	0.99736 0.17362 0.61163 -0.38000
C 	C 	0.99419 0.97817 0.85311 0.09100
O 	O 	0.99638 0.02015 0.97361 -0.35800
C 	C 	0.99293 0.96929 0.96154 0.32500
H 	H 	0.36951 0.98341 0.60932 0.04800
S 	S 	0.35114 0.94010 0.64603 -0.02400
H 	H 	0.15354 0.41384 0.16933 0.05200
C 	C 	0.92055 0.81763 0.88078 0.10500
N 	N 	0.90359 0.75317 0.88199 -0.11400
S 	S 	0.95237 0.72254 0.99345 -0.02500
H 	H 	0.88211 0.70295 0.96055 0.05200
C 	C 	0.98869 0.95953 0.32144 0.04500
C 	C 	0.98847 0.96847 0.24730 -0.02900
C 	C 	0.94184 0.89836 0.87920 -0.05500
C 	C 	0.99511 0.96392 0.35994 0.05300
C 	C 	0.91780 0.89915 0.90649 0.02400
Co	Co	0.97768 0.08103 0.07029 1.19000
C 	C 	0.20215 0.90699 0.11708 0.29500
O 	O 	0.21785 0.96435 0.08305 -0.39300
O 	O 	0.96456 0.17103 0.10761 -0.37300
H 	H 	0.20778 0.41290 0.53067 0.04400
C 	C 	0.17464 0.75891 0.14687 -0.00400
H 	H 	0.91671 0.30060 0.97047 0.05000
H 	H 	0.14801 0.58348 0.11044 0.05200
H 	H 	0.16292 0.54166 0.64038 0.05100
C 	C 	0.23129 0.12581 0.02118 0.31500
O 	O 	0.18278 0.06428 0.00289 -0.42300
O 	O 	0.19265 0.12481 0.03985 -0.40500
C 	C 	0.24197 0.04663 0.55058 0.27800
O 	O 	0.21399 0.96485 0.56836 -0.38200
O 	O 	0.20606 0.07788 0.55207 -0.38600
C 	C 	0.17824 0.07353 0.84517 0.08500
C 	C 	0.20009 0.10093 0.77150 0.08100
N 	N 	0.24084 0.10836 0.86938 -0.12000
N 	N 	0.19244 0.19519 0.42974 -0.11500
N 	N 	0.18446 0.17834 0.33121 -0.11700
C 	C 	0.18306 0.44861 0.59683 -0.06800
C 	C 	0.15615 0.37631 0.58865 0.05100
C 	C 	0.14875 0.30296 0.61967 -0.08300
H 	H 	0.19050 0.50539 0.57283 0.05000
C 	C 	0.30885 0.78678 0.64863 -0.06700
C 	C 	0.27962 0.82620 0.65143 0.04900
C 	C 	0.19601 0.77378 0.66099 -0.09000
C 	C 	0.16088 0.68527 0.68126 -0.00500
H 	H 	0.36583 0.82745 0.63553 0.04900
C 	C 	0.14691 0.40399 0.14329 -0.06500
C 	C 	0.23390 0.85069 0.13303 -0.08700
C 	C 	0.19144 0.70279 0.14966 0.00000
C 	C 	0.31262 0.88516 0.12411 0.04700
H 	H 	0.39280 0.03566 0.07696 0.02700
H 	H 	0.16841 0.57970 0.21348 0.04100
H 	H 	0.27398 0.90351 0.54981 0.02800
S 	S 	0.31283 0.22493 0.94766 -0.02600
H 	H 	0.26013 0.14825 0.93686 0.04700
C 	C 	0.71287 0.26760 0.04659 0.03400
C 	C 	0.78321 0.35131 0.05540 -0.07100
C 	C 	0.76301 0.39292 0.06318 0.03500
C 	C 	0.67325 0.35321 0.06084 -0.07100
C 	C 	0.60464 0.26857 0.05525 0.03300
C 	C 	0.62594 0.22299 0.05163 -0.07100
H 	H 	0.85313 0.38292 0.05755 0.05500
H 	H 	0.65652 0.38901 0.06279 0.05500
H 	H 	0.57667 0.15305 0.05462 0.05200
C 	C 	0.71799 0.27472 0.52430 0.03500
C 	C 	0.62637 0.24499 0.50901 -0.07500
C 	C 	0.59082 0.26134 0.52368 0.03500
C 	C 	0.65032 0.31719 0.54929 -0.07400
C 	C 	0.74382 0.36743 0.55435 0.03500
C 	C 	0.77816 0.33999 0.54578 -0.07200
H 	H 	0.58167 0.20334 0.48852 0.05300
H 	H 	0.62431 0.32732 0.56258 0.05400
H 	H 	0.85004 0.36873 0.55576 0.05900
C 	C 	0.28538 0.68229 0.13687 0.03500
C 	C 	0.21853 0.60727 0.12097 -0.07400
C 	C 	0.24449 0.56461 0.11790 0.03700
C 	C 	0.33629 0.60130 0.12689 -0.07400
C 	C 	0.40255 0.67709 0.14066 0.03800
C 	C 	0.37728 0.71359 0.14859 -0.07500
H 	H 	0.35632 0.57044 0.12312 0.05900
H 	H 	0.42948 0.76990 0.16137 0.05700
C 	C 	0.29763 0.65397 0.65989 0.03400
C 	C 	0.23541 0.57426 0.64774 -0.07300
C 	C 	0.26837 0.53763 0.64499 0.03600
C 	C 	0.36135 0.58285 0.65147 -0.07500
C 	C 	0.42249 0.66449 0.66001 0.03700
C 	C 	0.39155 0.69850 0.66596 -0.07400
H 	H 	0.38630 0.55506 0.64887 0.05800
H 	H 	0.44033 0.75978 0.67484 0.05500
Co	Co	0.94552 0.92297 0.13794 1.18900
C 	C 	0.96902 0.74840 0.06788 0.33200
Co	Co	0.89356 0.03885 0.13557 1.18000
O 	O 	0.94020 0.01117 0.11225 -0.75100
O 	O 	0.97556 0.84310 0.14597 -0.44500
O 	O 	0.97727 0.96777 0.07977 -0.56100
C 	C 	0.76881 0.84411 0.14824 0.30900
O 	O 	0.81816 0.90741 0.16551 -0.38200
O 	O 	0.80705 0.83507 0.13417 -0.38100
C 	C 	0.80927 0.07409 0.05152 0.29300
O 	O 	0.78971 0.01719 0.08543 -0.39400
O 	O 	0.86485 0.08763 0.03680 -0.36800
O 	O 	0.94004 0.77042 0.08060 -0.37800
Co	Co	0.96060 0.91452 0.64745 1.19100
C 	C 	0.90285 0.70895 0.56061 0.29100
Co	Co	0.92426 0.04475 0.64281 1.17200
O 	O 	0.96182 0.00567 0.62064 -0.74600
O 	O 	0.96810 0.81818 0.65574 -0.44500
O 	O 	0.98528 0.94825 0.58931 -0.55900
C 	C 	0.79191 0.85088 0.66098 0.31300
O 	O 	0.84589 0.91895 0.67570 -0.40000
O 	O 	0.82455 0.83395 0.64785 -0.37900
C 	C 	0.83751 0.07330 0.55793 0.28900
O 	O 	0.82018 0.01958 0.59269 -0.39900
O 	O 	0.89619 0.08893 0.54424 -0.36200
O 	O 	0.94741 0.77188 0.53255 -0.37300
O 	O 	0.90255 0.72762 0.58818 -0.36000
C 	C 	0.97022 0.97669 0.91829 -0.04300
C 	C 	0.95598 0.90912 0.76891 0.03200
C 	C 	0.93759 0.92071 0.79434 -0.00600
C 	C 	0.89909 0.82411 0.76119 0.08700
C 	C 	0.84472 0.88093 0.79155 0.08800
C 	C 	0.83744 0.82178 0.92117 0.08800
N 	N 	0.27026 0.15377 0.76368 -0.11100
N 	N 	0.85426 0.75582 0.75529 -0.10600
N 	N 	0.77052 0.84926 0.78938 -0.11100
N 	N 	0.77299 0.76004 0.93286 -0.10700
C 	C 	0.93328 0.97810 0.28614 -0.04400
C 	C 	0.93338 0.98357 0.24932 0.03400
C 	C 	0.87960 0.00885 0.21357 0.04600
C 	C 	0.92572 0.89323 0.38077 -0.03300
C 	C 	0.92519 0.90182 0.41376 0.00200
C 	C 	0.99867 0.97713 0.42872 -0.00300
C 	C 	0.85542 0.81156 0.36850 0.09900
C 	C 	0.84970 0.83261 0.43270 0.09300
C 	C 	0.87738 0.99422 0.28750 0.12300
N 	N 	0.78927 0.77750 0.44778 -0.10800
N 	N 	0.79931 0.74638 0.35868 -0.11100
N 	N 	0.83652 0.02958 0.18548 -0.15400
N 	N 	0.83288 0.00706 0.28864 -0.12400
C 	C 	0.20703 0.45088 0.63604 -0.00200
C 	C 	0.17576 0.30669 0.65890 -0.01300
C 	C 	0.20051 0.37784 0.66705 -0.00100
S 	S 	0.22439 0.37534 0.71642 -0.02500
H 	H 	0.14705 0.34155 0.72432 0.04000
H 	H 	0.16990 0.25057 0.68301 0.04900
C 	C 	0.51862 0.71621 0.66035 0.00200
C 	C 	0.54004 0.73669 0.62617 -0.07000
C 	C 	0.62655 0.76843 0.62771 0.05600
C 	C 	0.69579 0.78956 0.66251 -0.09100
C 	C 	0.67423 0.76894 0.69667 0.00100
C 	C 	0.58581 0.73008 0.69609 -0.00300
S 	S 	0.64559 0.77654 0.58672 -0.03300
S 	S 	0.55947 0.69600 0.74065 -0.01700
H 	H 	0.52992 0.61036 0.75829 0.04300
H 	H 	0.69189 0.86200 0.56549 0.04900
H 	H 	0.48771 0.72330 0.59891 0.05300
H 	H 	0.72694 0.78570 0.72341 0.05300
C 	C 	0.26527 0.69529 0.66319 0.00200
C 	C 	0.19610 0.64598 0.68310 -0.00200
S 	S 	0.15991 0.53958 0.71359 -0.04600
H 	H 	0.21625 0.54527 0.75077 0.04300
C 	C 	0.16960 0.46214 0.07731 -0.00300
C 	C 	0.17708 0.47554 0.11079 -0.00200
S 	S 	0.19790 0.54800 0.03424 -0.03900
C 	C 	0.49827 0.72257 0.14291 0.00200
C 	C 	0.55125 0.70102 0.17817 -0.06500
C 	C 	0.63689 0.73141 0.17916 0.05600
C 	C 	0.67055 0.78442 0.14460 -0.09000
C 	C 	0.61499 0.80103 0.10882 -0.00300
C 	C 	0.53064 0.77306 0.10804 0.00100
S 	S 	0.70245 0.70428 0.22406 -0.02000
S 	S 	0.46732 0.80403 0.06352 -0.03200
H 	H 	0.48865 0.88082 0.06227 0.03900
H 	H 	0.68412 0.62809 0.22651 0.04300
H 	H 	0.52519 0.65942 0.20469 0.05600
H 	H 	0.64042 0.84160 0.08214 0.05000
C 	C 	0.26336 0.73808 0.13480 0.00100
C 	C 	0.32164 0.82962 0.12113 -0.06600
S 	S 	0.40116 0.99802 0.11687 -0.01300
H 	H 	0.37675 0.85817 0.10950 0.05000
C 	C 	0.79708 0.12297 0.53595 -0.08200
C 	C 	0.85382 0.21518 0.52329 -0.00700
C 	C 	0.82637 0.26571 0.51637 0.00100
C 	C 	0.74421 0.22393 0.52509 0.00000
C 	C 	0.68506 0.13164 0.53468 -0.06400
C 	C 	0.70874 0.08182 0.53760 0.03900
S 	S 	0.89054 0.37857 0.49338 -0.02400
S 	S 	0.62693 0.96772 0.54338 -0.02400
H 	H 	0.62635 0.92805 0.58269 0.04200
H 	H 	0.85802 0.39058 0.45310 0.04400
H 	H 	0.92009 0.24779 0.51987 0.05500
H 	H 	0.62041 0.09825 0.54009 0.04500
C 	C 	0.79944 0.45863 0.55708 0.00300
C 	C 	0.82523 0.47351 0.59363 -0.06500
C 	C 	0.84898 0.55084 0.59534 0.05200
C 	C 	0.85047 0.61627 0.56001 -0.07800
C 	C 	0.82188 0.59945 0.52355 -0.00900
C 	C 	0.80115 0.52392 0.52206 0.00100
S 	S 	0.86760 0.56014 0.64123 -0.02500
S 	S 	0.77417 0.51032 0.47572 -0.02200
H 	H 	0.68206 0.46475 0.46065 0.04200
H 	H 	0.95880 0.61126 0.65710 0.04800
H 	H 	0.82115 0.42242 0.62057 0.05500
H 	H 	0.82075 0.64792 0.49620 0.05700
C 	C 	0.31856 0.10493 0.53121 -0.08400
C 	C 	0.36985 0.19658 0.52302 -0.00300
C 	C 	0.45308 0.25015 0.51293 -0.00200
C 	C 	0.49085 0.21139 0.51657 0.00200
C 	C 	0.43477 0.12084 0.52008 -0.06500
C 	C 	0.34638 0.06901 0.52399 0.04500
S 	S 	0.50335 0.36315 0.49139 -0.02700
S 	S 	0.26904 0.96344 0.51524 -0.05400
H 	H 	0.55644 0.40812 0.52030 0.03800
H 	H 	0.34511 0.22620 0.52411 0.05000
H 	H 	0.46006 0.09032 0.52033 0.04600
C 	C 	0.73078 0.22630 0.03290 0.00500
C 	C 	0.81849 0.26922 0.02954 -0.06600
C 	C 	0.83970 0.22229 0.02702 0.05600
C 	C 	0.77695 0.13042 0.03235 -0.08900
C 	C 	0.68652 0.09137 0.02957 -0.00400
C 	C 	0.66159 0.14242 0.02439 -0.00700
S 	S 	0.93731 0.28040 0.01102 -0.02800
S 	S 	0.55486 0.11758 0.99318 -0.04200
H 	H 	0.56122 0.15522 0.95449 0.04300
H 	H 	0.86732 0.33952 0.02535 0.05400
H 	H 	0.63482 0.02274 0.02909 0.03700
C 	C 	0.83364 0.48355 0.06857 0.00700
C 	C 	0.86867 0.55251 0.03621 -0.06700
C 	C 	0.90950 0.63853 0.03493 0.05800
C 	C 	0.91512 0.65651 0.06644 -0.09100
C 	C 	0.88633 0.58831 0.10021 0.00300
C 	C 	0.84872 0.50280 0.10195 -0.00400
S 	S 	0.82531 0.42147 0.14661 -0.02100
H 	H 	0.74249 0.38647 0.14943 0.03600
H 	H 	0.85952 0.53857 0.01089 0.05500
H 	H 	0.89681 0.60242 0.12580 0.04500
C 	C 	0.33116 0.18211 0.02800 -0.10600
C 	C 	0.38480 0.18707 0.06683 0.00500
C 	C 	0.47377 0.21391 0.07632 -0.00900
C 	C 	0.50887 0.23365 0.04693 0.00700
C 	C 	0.45724 0.23399 0.00772 -0.08400
C 	C 	0.37049 0.21201 0.99790 0.06700
S 	S 	0.53903 0.21944 0.12533 -0.03500
H 	H 	0.57673 0.29769 0.13045 0.03600
H 	H 	0.35581 0.16561 0.09008 0.04200
H 	H 	0.48593 0.25439 0.98458 0.06200
