data_crystal

_cell_length_a 16.27234
_cell_length_b 15.06849
_cell_length_c 38.17920
_cell_angle_alpha 89.86943
_cell_angle_beta  89.87262
_cell_angle_gamma 119.36390

_symmetry_space_group_name_	'P 1'
_symmetry_space_group_name_H-M	'P 1'

loop_
_symmetry_equiv_pos_as_xyz
  x,y,z

loop_
_atom_site_label
_atom_site_type_symbol
_atom_site_fract_x
_atom_site_fract_y
_atom_site_fract_z
_atom_site_charge
Ni	Ni	0.05602 0.91226 0.73336 1.11200
O 	O 	0.02457 0.01456 0.74393 -0.70300
H 	H 	0.02175 0.00560 0.76953 0.13600
O 	O 	0.08119 0.18908 0.26777 -0.35700
N 	N 	0.04717 0.22022 0.40636 -0.02600
C 	C 	0.09107 0.47689 0.55301 0.11800
Br	Br	0.13652 0.49573 0.60019 -0.14400
Br	Br	0.01396 0.55115 0.94147 -0.15500
N 	N 	0.05749 0.37609 0.79492 -0.02700
O 	O 	0.07757 0.44947 0.77268 -0.08700
O 	O 	0.03262 0.79345 0.90528 -0.06400
O 	O 	0.05244 0.18366 0.78767 -0.34700
O 	O 	0.06643 0.21807 0.71386 -0.35000
H 	H 	0.99527 0.22437 0.07517 0.10100
H 	H 	0.04834 0.86849 0.63719 0.07500
O 	O 	0.10379 0.75511 0.60053 -0.06300
C 	C 	0.10073 0.54360 0.49377 -0.08800
C 	C 	0.00805 0.64222 0.19685 0.10200
H 	H 	0.01911 0.50524 0.19534 0.08100
N 	N 	0.10740 0.40640 0.68836 -0.01600
O 	O 	0.12180 0.35779 0.66310 -0.05100
C 	C 	0.00913 0.81241 0.19870 0.29900
C 	C 	0.02262 0.15675 0.12055 0.10500
H 	H 	0.99716 0.84493 0.84437 0.08800
O 	O 	0.12513 0.37584 0.81295 -0.05900
Ni	Ni	0.11852 0.15497 0.74761 1.12600
O 	O 	0.17802 0.48804 0.70116 -0.06300
C 	C 	0.09047 0.18633 0.34824 -0.03000
C 	C 	0.13206 0.55848 0.52882 0.09100
C 	C 	0.20352 0.04377 0.78685 0.30800
C 	C 	0.20945 0.08112 0.69393 0.32200
O 	O 	0.18282 0.98060 0.76033 -0.38400
O 	O 	0.19268 0.12560 0.78464 -0.34700
O 	O 	0.13035 0.99521 0.69006 -0.37100
O 	O 	0.21128 0.15997 0.71001 -0.34400
C 	C 	0.23949 0.39334 0.40558 0.32300
C 	C 	0.21999 0.64521 0.35337 0.31700
C 	C 	0.17242 0.58525 0.46609 0.34100
C 	C 	0.42588 0.78816 0.48034 0.32600
Ni	Ni	0.36618 0.58549 0.37328 1.11700
Ni	Ni	0.33374 0.56359 0.45718 1.12900
Ni	Ni	0.31387 0.73565 0.41712 1.13900
O 	O 	0.20024 0.52536 0.45361 -0.38000
O 	O 	0.23923 0.46229 0.38563 -0.36600
O 	O 	0.28975 0.42188 0.43471 -0.33900
O 	O 	0.41598 0.82081 0.44953 -0.36700
O 	O 	0.29065 0.63522 0.34081 -0.33500
O 	O 	0.20703 0.64021 0.38684 -0.35600
O 	O 	0.37569 0.68907 0.48971 -0.33700
O 	O 	0.21967 0.68325 0.45823 -0.32900
O 	O 	0.36436 0.64562 0.41636 -0.71300
C 	C 	0.19178 0.61376 0.16332 0.31600
C 	C 	0.16332 0.40364 0.08168 0.31700
C 	C 	0.06520 0.61804 0.06895 0.33600
C 	C 	0.30223 0.83088 0.03604 0.32900
Ni	Ni	0.31627 0.58096 0.11273 1.12100
Ni	Ni	0.24487 0.74611 0.10509 1.12600
Ni	Ni	0.21632 0.59787 0.04276 1.12800
O 	O 	0.12297 0.71257 0.07866 -0.34300
O 	O 	0.26961 0.60688 0.16215 -0.33100
O 	O 	0.15991 0.62732 0.13448 -0.38000
O 	O 	0.23886 0.73794 0.02385 -0.33600
O 	O 	0.18357 0.45986 0.10901 -0.36600
O 	O 	0.18505 0.44790 0.05059 -0.33800
O 	O 	0.31468 0.85088 0.06973 -0.37100
O 	O 	0.09715 0.55548 0.06791 -0.38600
O 	O 	0.28834 0.66283 0.08313 -0.71600
C 	C 	0.06596 0.12898 0.18156 0.29300
C 	C 	0.12980 0.15868 0.28739 0.29600
C 	C 	0.02438 0.81312 0.28081 0.27800
Ni	Ni	0.09798 0.00299 0.23404 1.12300
O 	O 	0.05839 0.91042 0.19302 -0.38000
O 	O 	0.12885 0.12367 0.20192 -0.36000
O 	O 	0.09633 0.89164 0.26455 -0.36700
O 	O 	0.16230 0.10121 0.27396 -0.34600
C 	C 	0.18689 0.22146 0.13476 -0.02000
C 	C 	0.09193 0.16542 0.14468 -0.06000
C 	C 	0.04909 0.22334 0.09156 -0.03000
C 	C 	0.14368 0.29800 0.08697 -0.05400
C 	C 	0.21261 0.28367 0.10478 0.09800
N 	N 	0.30990 0.34225 0.09536 -0.02500
H 	H 	0.24105 0.22053 0.15097 0.08200
O 	O 	0.37218 0.39482 0.11906 -0.10400
O 	O 	0.33760 0.33276 0.06434 -0.04700
C 	C 	0.15651 0.79797 0.20598 -0.02800
C 	C 	0.05844 0.74985 0.19966 -0.07500
C 	C 	0.05757 0.58704 0.19896 -0.01900
C 	C 	0.15644 0.63858 0.19542 -0.07300
C 	C 	0.20420 0.74067 0.20659 0.08900
N 	N 	0.30121 0.78726 0.21731 -0.02000
H 	H 	0.19540 0.87920 0.21062 0.05800
O 	O 	0.34602 0.88272 0.22632 -0.08200
O 	O 	0.34182 0.73200 0.22137 -0.07100
C 	C 	0.28084 0.29188 0.36659 -0.02900
C 	C 	0.21361 0.29519 0.38896 -0.06200
C 	C 	0.11754 0.23042 0.38163 0.11400
C 	C 	0.15905 0.20038 0.32314 -0.06700
C 	C 	0.25467 0.24844 0.33315 0.10800
N 	N 	0.32605 0.25943 0.30878 -0.02200
H 	H 	0.35500 0.33638 0.37279 0.08600
O 	O 	0.34116 0.31393 0.28057 -0.07900
O 	O 	0.38163 0.22300 0.31641 -0.06100
C 	C 	0.11434 0.81125 0.33165 -0.02200
C 	C 	0.05033 0.75562 0.30539 -0.04600
C 	C 	0.03861 0.65918 0.29612 0.08300
C 	C 	0.10500 0.63096 0.30792 -0.00900
C 	C 	0.17462 0.69157 0.33221 -0.07000
C 	C 	0.17880 0.78289 0.34393 0.11300
N 	N 	0.24857 0.84737 0.36850 -0.03200
H 	H 	0.12050 0.88294 0.34013 0.08400
H 	H 	0.09743 0.55795 0.30052 0.07200
O 	O 	0.32113 0.93067 0.35741 -0.06000
O 	O 	0.22817 0.83659 0.40174 -0.12800
Br	Br	0.33297 0.92748 0.49921 -0.12400
Br	Br	0.22907 0.68978 0.54383 -0.12700
Br	Br	0.37800 0.27397 0.44492 -0.13700
Br	Br	0.39745 0.31013 0.53332 -0.14300
C 	C 	0.37148 0.11175 0.70461 -0.01800
C 	C 	0.29851 0.08965 0.68089 -0.07700
C 	C 	0.31232 0.07785 0.64506 0.11700
C 	C 	0.40162 0.09708 0.63334 -0.02600
H 	H 	0.35975 0.11567 0.73236 0.07200
H 	H 	0.41380 0.09477 0.60550 0.08500
N 	N 	0.23873 0.05429 0.62014 -0.02200
O 	O 	0.19910 0.11102 0.61812 -0.05900
O 	O 	0.22092 0.98558 0.59636 -0.06300
C 	C 	0.99827 0.61252 0.01184 0.09500
Br	Br	0.06396 0.75043 0.99578 -0.12900
Br	Br	0.21589 0.97873 0.03798 -0.13900
Br	Br	0.23353 0.34996 0.99338 -0.13400
C 	C 	0.33754 0.01695 0.80449 -0.01400
C 	C 	0.26810 0.04268 0.81392 -0.07000
C 	C 	0.27047 0.08117 0.84782 0.11200
C 	C 	0.34938 0.10796 0.86910 -0.02300
H 	H 	0.33235 0.97845 0.77998 0.07200
H 	H 	0.35418 0.14361 0.89422 0.08000
N 	N 	0.19707 0.10060 0.85958 -0.01900
O 	O 	0.10917 0.03110 0.85650 -0.08500
O 	O 	0.21829 0.18673 0.87445 -0.05400
O 	O 	0.36363 0.80177 0.13784 -0.34300
H 	H 	0.35059 0.71304 0.07368 0.19100
O 	O 	0.05527 0.20261 0.43918 -0.04800
O 	O 	0.40348 0.81186 0.37533 -0.32300
Br	Br	0.28541 0.41150 0.90793 -0.13400
C 	C 	0.48296 0.80946 0.36765 0.29000
C 	C 	0.48411 0.53931 0.42917 0.32500
O 	O 	0.48126 0.72249 0.36104 -0.35000
O 	O 	0.44731 0.52213 0.39654 -0.34000
O 	O 	0.46486 0.59053 0.45216 -0.37400
H 	H 	0.43169 0.69353 0.42005 0.17800
C 	C 	0.37567 0.56783 0.03347 0.32300
C 	C 	0.44314 0.79620 0.13187 0.29700
O 	O 	0.37125 0.53837 0.06746 -0.31100
O 	O 	0.33798 0.62258 0.02320 -0.36100
O 	O 	0.43956 0.70977 0.12295 -0.34700
H 	H 	0.49289 0.93907 0.18550 0.09300
N 	N 	0.49562 0.91375 0.30166 -0.02000
O 	O 	0.46983 0.98275 0.30350 -0.05000
O 	O 	0.44556 0.83109 0.28384 -0.06400
C 	C 	0.53375 0.05009 0.51051 0.10100
C 	C 	0.45875 0.95027 0.50740 0.10300
C 	C 	0.47682 0.86774 0.50670 -0.08600
Br	Br	0.51724 0.16306 0.49683 -0.14500
C 	C 	0.49097 0.40461 0.50123 0.10400
C 	C 	0.52846 0.48244 0.44328 -0.09400
C 	C 	0.47145 0.39919 0.46506 0.10100
C 	C 	0.47882 0.13751 0.65634 -0.05400
C 	C 	0.46095 0.13331 0.69262 0.10400
N 	N 	0.53533 0.15927 0.71725 -0.01900
O 	O 	0.54173 0.21399 0.74449 -0.06700
C 	C 	0.40045 0.10045 0.00695 0.10100
C 	C 	0.43892 0.93997 0.99988 0.10000
C 	C 	0.35015 0.91842 0.01235 -0.09100
C 	C 	0.33091 0.00032 0.01590 0.11400
Br	Br	0.36654 0.20546 0.00200 -0.14200
C 	C 	0.37732 0.47845 0.94389 0.11000
C 	C 	0.35104 0.46497 0.97965 0.10100
C 	C 	0.41490 0.53136 0.00528 -0.07700
C 	C 	0.42951 0.10874 0.85507 -0.05800
C 	C 	0.41813 0.04927 0.82528 0.11000
H 	H 	0.01641 0.14237 0.34185 0.07700
O 	O 	0.58833 0.11710 0.71502 -0.06600
C 	C 	0.47272 0.53126 0.93494 -0.09200
N 	N 	0.48848 0.02300 0.81576 -0.01800
O 	O 	0.46898 0.92840 0.81693 -0.06500
C 	C 	0.58146 0.47492 0.51355 -0.08700
C 	C 	0.52020 0.20100 0.86079 0.29300
C 	C 	0.51064 0.46759 0.92092 0.32100
O 	O 	0.52650 0.28936 0.85250 -0.34700
O 	O 	0.55486 0.48726 0.88943 -0.33700
O 	O 	0.52019 0.40923 0.94386 -0.37400
H 	H 	0.56036 0.31000 0.91359 0.17700
C 	C 	0.62191 0.43783 0.54087 0.32400
C 	C 	0.56934 0.21892 0.64266 0.29100
O 	O 	0.65020 0.37452 0.53045 -0.36300
O 	O 	0.57173 0.30469 0.63302 -0.34700
C 	C 	0.54820 0.92622 0.17531 -0.01900
C 	C 	0.53716 0.87907 0.14272 -0.05600
O 	O 	0.56168 0.87530 0.06964 -0.06600
C 	C 	0.56765 0.90211 0.35647 -0.05500
C 	C 	0.57602 0.92629 0.32068 0.11300
C 	C 	0.62134 0.06732 0.52292 -0.08100
C 	C 	0.56452 0.88351 0.51875 0.10400
Br	Br	0.58552 0.76909 0.52387 -0.15000
C 	C 	0.62215 0.54231 0.45358 0.10900
C 	C 	0.49260 0.12150 0.99872 -0.08800
C 	C 	0.51295 0.04062 0.99979 0.11100
Br	Br	0.45967 0.83151 0.98413 -0.13900
C 	C 	0.53143 0.60844 0.95829 0.10000
C 	C 	0.50829 0.59783 0.99434 0.10100
C 	C 	0.54872 0.20507 0.97432 0.33000
O 	O 	0.56868 0.09180 0.80284 -0.05300
O 	O 	0.63475 0.47259 0.57426 -0.33500
C 	C 	0.64468 0.54983 0.48958 0.10100
O 	O 	0.59621 0.19521 0.87088 -0.32200
O 	O 	0.56434 0.17742 0.94364 -0.37000
C 	C 	0.67737 0.15909 0.54420 0.32100
O 	O 	0.67402 0.14588 0.57844 -0.36600
O 	O 	0.64908 0.21412 0.64723 -0.33900
H 	H 	0.64766 0.29047 0.58163 0.18200
C 	C 	0.61749 0.88111 0.12756 0.11300
N 	N 	0.62500 0.87431 0.09016 -0.01700
O 	O 	0.60298 0.05011 0.23859 -0.06900
C 	C 	0.65065 0.92913 0.37536 -0.02400
C 	C 	0.65670 0.94156 0.30243 -0.02000
H 	H 	0.64687 0.91958 0.40358 0.08000
H 	H 	0.65675 0.94194 0.27415 0.08400
C 	C 	0.63693 0.98307 0.52680 0.09900
O 	O 	0.59576 0.30268 0.98530 -0.33800
N 	N 	0.04349 0.76295 0.58025 -0.02400
C 	C 	0.63422 0.96313 0.19363 0.10300
O 	O 	0.62860 0.35710 0.91235 -0.71200
H 	H 	0.02031 0.51528 0.67878 0.07300
Br	Br	0.60230 0.67835 0.02816 -0.13700
Ni	Ni	0.63906 0.42303 0.86906 1.11700
O 	O 	0.66352 0.06483 0.87118 -0.06300
O 	O 	0.65232 0.66967 0.78542 -0.07700
O 	O 	0.05053 0.75816 0.54644 -0.04900
Br	Br	0.62584 0.73721 0.94034 -0.13400
N 	N 	0.66317 0.04874 0.21643 -0.02000
O 	O 	0.72019 0.26206 0.76803 -0.06700
Ni	Ni	0.64834 0.43281 0.95408 1.12900
H 	H 	0.65382 0.67424 0.86841 0.08700
C 	C 	0.01319 0.37781 0.69894 0.08900
Ni	Ni	0.69473 0.43048 0.61769 1.11700
O 	O 	0.69980 0.83536 0.62289 -0.05900
Ni	Ni	0.67567 0.26447 0.91525 1.14100
Br	Br	0.64124 0.06760 0.99565 -0.11800
O 	O 	0.74011 0.24792 0.52891 -0.33500
O 	O 	0.71251 0.34019 0.58866 -0.71300
C 	C 	0.69015 0.88963 0.14957 -0.01900
C 	C 	0.69919 0.93011 0.18321 -0.05500
O 	O 	0.70151 0.88172 0.07652 -0.04500
Br	Br	0.71326 0.63191 0.41989 -0.13900
H 	H 	0.73200 0.68118 0.58332 0.08900
O 	O 	0.69259 0.73248 0.66701 -0.07800
N 	N 	0.69768 0.75124 0.80429 -0.01900
O 	O 	0.67728 0.82435 0.80178 -0.07500
O 	O 	0.70210 0.57835 0.93266 -0.33700
O 	O 	0.72056 0.37371 0.83972 -0.32700
O 	O 	0.74030 0.13308 0.20948 -0.06900
C 	C 	0.73372 0.94663 0.32053 -0.06500
C 	C 	0.73295 0.94615 0.35750 0.11300
Br	Br	0.75293 0.66985 0.50620 -0.13900
O 	O 	0.73829 0.40294 0.74090 -0.06700
N 	N 	0.73519 0.78633 0.63939 -0.02200
N 	N 	0.73929 0.15198 0.87606 -0.04000
Ni	Ni	0.75635 0.25641 0.61035 1.12800
O 	O 	0.75142 0.41331 0.66556 -0.33300
H 	H 	0.73953 0.86643 0.14031 0.09800
Br	Br	0.75573 0.00351 0.54461 -0.11800
N 	N 	0.75902 0.33000 0.74340 -0.01900
C 	C 	0.72907 0.71444 0.86367 -0.03000
C 	C 	0.01833 0.45217 0.48554 0.07400
Ni	Ni	0.77408 0.39369 0.54524 1.12900
Br	Br	0.74020 0.29917 0.04538 -0.13600
C 	C 	0.75943 0.60899 0.90515 0.32200
O 	O 	0.76351 0.54132 0.88584 -0.36200
O 	O 	0.75868 0.30894 0.95929 -0.32800
O 	O 	0.77265 0.17688 0.90760 -0.12200
C 	C 	0.76280 0.75607 0.83024 0.10200
C 	C 	0.77665 0.93945 0.20692 0.30400
C 	C 	0.78498 0.35776 0.85499 0.31700
O 	O 	0.78138 0.46916 0.95684 -0.37700
C 	C 	0.98172 0.59095 0.04761 -0.09000
C 	C 	0.96125 0.53216 0.98786 0.10900
O 	O 	0.97725 0.82973 0.77688 -0.34800
O 	O 	0.97767 0.23381 0.39644 -0.04500
O 	O 	0.94702 0.50001 0.26798 -0.07700
N 	N 	0.95386 0.58509 0.27895 -0.01400
O 	O 	0.99193 0.12886 0.19562 -0.33200
O 	O 	0.85797 0.09479 0.11997 -0.06700
N 	N 	0.92753 0.07628 0.12397 -0.01400
N 	N 	0.90936 0.58969 0.18860 -0.01300
O 	O 	0.87785 0.62194 0.16308 -0.05100
O 	O 	0.93803 0.80295 0.28308 -0.33800
O 	O 	0.92136 0.77333 0.21007 -0.33200
O 	O 	0.97631 0.97878 0.24821 -0.71100
H 	H 	0.98742 0.97819 0.27354 0.15300
O 	O 	0.91048 0.98308 0.12809 -0.07500
C 	C 	0.80434 0.40504 0.96938 0.34700
O 	O 	0.79018 0.36187 0.88860 -0.35200
C 	C 	0.82860 0.40521 0.66538 0.32200
C 	C 	0.84673 0.59579 0.57995 0.32800
C 	C 	0.92645 0.36901 0.56736 0.36500
O 	O 	0.86889 0.27780 0.58001 -0.34500
O 	O 	0.85197 0.37623 0.63709 -0.37100
O 	O 	0.82923 0.54407 0.60845 -0.36900
O 	O 	0.81527 0.54679 0.55015 -0.33900
O 	O 	0.89789 0.43447 0.56609 -0.38700
C 	C 	0.90967 0.85970 0.67915 0.31800
C 	C 	0.89699 0.82699 0.78566 0.28900
C 	C 	0.97791 0.19823 0.71507 0.30400
C 	C 	0.95998 0.14804 0.79012 0.29400
Ni	Ni	0.89619 0.98333 0.73747 1.12400
O 	O 	0.90916 0.10470 0.71073 -0.36000
O 	O 	0.94077 0.82035 0.70266 -0.36000
O 	O 	0.87733 0.92044 0.68879 -0.33900
O 	O 	0.89926 0.05105 0.78323 -0.36800
O 	O 	0.84794 0.84520 0.76171 -0.33900
C 	C 	0.81164 0.94780 0.30043 0.31100
Ni	Ni	0.94893 0.08681 0.24730 1.12100
Ni	Ni	0.87509 0.84235 0.24489 1.12300
O 	O 	0.88962 0.03596 0.29624 -0.35800
O 	O 	0.79252 0.86605 0.28090 -0.35100
O 	O 	0.80943 0.01067 0.23081 -0.35100
O 	O 	0.80901 0.87393 0.20454 -0.35000
O 	O 	0.85324 0.50327 0.20374 -0.05200
N 	N 	0.81198 0.95501 0.37689 -0.02600
O 	O 	0.84131 0.01334 0.40431 -0.04800
O 	O 	0.84588 0.89458 0.37013 -0.06500
O 	O 	0.87909 0.59553 0.27909 -0.06800
C 	C 	0.98448 0.36984 0.50909 0.12200
C 	C 	0.00587 0.38920 0.54466 -0.13000
Br	Br	0.96192 0.43554 0.44007 -0.13000
Br	Br	0.90753 0.23287 0.49321 -0.12000
C 	C 	0.86643 0.26316 0.72862 -0.03700
C 	C 	0.95413 0.28205 0.71481 -0.05400
C 	C 	0.97771 0.44521 0.69316 0.00900
C 	C 	0.88054 0.40982 0.69753 -0.08000
C 	C 	0.83385 0.33289 0.72252 0.10900
H 	H 	0.82412 0.19493 0.74392 0.07400
C 	C 	0.80195 0.72444 0.59431 -0.02600
C 	C 	0.87351 0.70358 0.58355 -0.06000
C 	C 	0.96578 0.76960 0.59511 0.12000
C 	C 	0.97906 0.82767 0.62552 -0.01000
C 	C 	0.90143 0.82646 0.64219 -0.06900
C 	C 	0.81392 0.78159 0.62478 0.11200
C 	C 	0.84927 0.42460 0.03176 0.10000
C 	C 	0.87768 0.44236 0.99627 -0.09900
C 	C 	0.89939 0.50026 0.05720 0.10500
Br	Br	0.86890 0.46966 0.10595 -0.13200
C 	C 	0.90725 0.35698 0.81611 -0.01400
C 	C 	0.82615 0.30200 0.83676 -0.06400
C 	C 	0.80066 0.20071 0.84696 0.11500
C 	C 	0.84557 0.15219 0.83166 -0.01900
C 	C 	0.92517 0.20613 0.81063 -0.05800
C 	C 	0.96159 0.31210 0.80568 0.10400
H 	H 	0.93296 0.43712 0.81095 0.08100
H 	H 	0.82153 0.07298 0.83800 0.09400
C 	C 	0.92228 0.80963 0.84957 -0.02400
C 	C 	0.85982 0.79766 0.82225 -0.06200
C 	C 	0.79013 0.70878 0.88849 -0.06000
C 	C 	0.88761 0.77190 0.88335 0.11500
N 	N 	0.95179 0.78849 0.91146 -0.01600
O 	O 	0.92993 0.80036 0.94325 -0.04100
