data_crystal

_cell_length_a 31.79086
_cell_length_b 31.78928
_cell_length_c 31.78955
_cell_angle_alpha 90.00025
_cell_angle_beta  90.00530
_cell_angle_gamma 90.00024

_symmetry_space_group_name_	'P 1'
_symmetry_space_group_name_H-M	'P 1'

loop_
_symmetry_equiv_pos_as_xyz
  x,y,z

loop_
_atom_site_label
_atom_site_type_symbol
_atom_site_fract_x
_atom_site_fract_y
_atom_site_fract_z
_atom_site_charge
C 	C 	0.27394 0.41855 0.20798 0.29900
C 	C 	0.20631 0.58070 0.27470 0.30800
C 	C 	0.20607 0.41990 0.27479 0.30800
C 	C 	0.27428 0.58172 0.20771 0.29800
C 	C 	0.10846 0.50042 0.18004 0.30900
C 	C 	0.17799 0.50015 0.10823 0.30000
Ni	Ni	0.25051 0.50022 0.25167 1.11400
Ni	Ni	0.18689 0.55137 0.18723 1.12000
Ni	Ni	0.18668 0.44914 0.18735 1.12000
O 	O 	0.28805 0.45373 0.22505 -0.36400
O 	O 	0.24289 0.41911 0.18019 -0.36700
O 	O 	0.12560 0.53632 0.19148 -0.37300
O 	O 	0.22185 0.54531 0.28893 -0.36400
O 	O 	0.17890 0.58033 0.24379 -0.36600
O 	O 	0.18879 0.46378 0.12557 -0.37400
O 	O 	0.22185 0.45519 0.28901 -0.36400
O 	O 	0.17851 0.42047 0.24402 -0.36600
O 	O 	0.18885 0.53655 0.12547 -0.37400
O 	O 	0.28821 0.54660 0.22504 -0.36400
O 	O 	0.24323 0.58111 0.17991 -0.36700
O 	O 	0.12544 0.46444 0.19146 -0.37300
O 	O 	0.21294 0.50023 0.20565 -0.71000
H 	H 	0.23503 0.50016 0.18376 0.14300
C 	C 	0.73349 0.58172 0.20772 0.29800
C 	C 	0.80173 0.41991 0.27483 0.30800
C 	C 	0.80148 0.58070 0.27472 0.30800
C 	C 	0.73385 0.41854 0.20801 0.29800
C 	C 	0.89931 0.50044 0.18007 0.30900
C 	C 	0.82979 0.50014 0.10826 0.30000
Ni	Ni	0.75728 0.50022 0.25170 1.11400
Ni	Ni	0.82111 0.44914 0.18739 1.12000
Ni	Ni	0.82088 0.55138 0.18725 1.12000
O 	O 	0.71958 0.54660 0.22507 -0.36400
O 	O 	0.76454 0.58110 0.17993 -0.36700
O 	O 	0.88234 0.46446 0.19151 -0.37300
O 	O 	0.78594 0.45519 0.28904 -0.36400
O 	O 	0.82928 0.42048 0.24406 -0.36600
O 	O 	0.81892 0.53654 0.12549 -0.37400
O 	O 	0.78594 0.54531 0.28895 -0.36400
O 	O 	0.82888 0.58034 0.24380 -0.36600
O 	O 	0.81899 0.46377 0.12560 -0.37400
O 	O 	0.71974 0.45372 0.22507 -0.36400
O 	O 	0.76491 0.41910 0.18023 -0.36700
O 	O 	0.88217 0.53633 0.19151 -0.37300
O 	O 	0.79484 0.50023 0.20568 -0.71000
H 	H 	0.77275 0.50015 0.18379 0.14300
C 	C 	0.58547 0.79617 0.27426 0.29800
C 	C 	0.42349 0.72926 0.20623 0.30800
C 	C 	0.58430 0.72927 0.20625 0.30800
C 	C 	0.42231 0.79616 0.27424 0.29800
C 	C 	0.50390 0.82408 0.10861 0.30900
C 	C 	0.50388 0.89575 0.17808 0.30000
Ni	Ni	0.50389 0.75231 0.25057 1.11400
Ni	Ni	0.45277 0.81672 0.18689 1.12000
Ni	Ni	0.55501 0.81673 0.18690 1.12000
O 	O 	0.55032 0.77892 0.28823 -0.36400
O 	O 	0.58488 0.82395 0.24319 -0.36700
O 	O 	0.46796 0.81259 0.12562 -0.37300
O 	O 	0.45882 0.71503 0.22191 -0.36400
O 	O 	0.42397 0.76011 0.17876 -0.36600
O 	O 	0.54026 0.87850 0.18896 -0.37300
O 	O 	0.54896 0.71503 0.22190 -0.36400
O 	O 	0.58383 0.76013 0.17880 -0.36600
O 	O 	0.46751 0.87849 0.18896 -0.37300
O 	O 	0.45746 0.77892 0.28821 -0.36400
O 	O 	0.42288 0.82393 0.24316 -0.36700
O 	O 	0.53982 0.81258 0.12564 -0.37300
O 	O 	0.50389 0.79835 0.21304 -0.71000
H 	H 	0.50389 0.82023 0.23514 0.14300
C 	C 	0.58551 0.27022 0.20805 0.29800
C 	C 	0.42352 0.20200 0.27472 0.30800
C 	C 	0.58427 0.20200 0.27473 0.30800
C 	C 	0.42228 0.27022 0.20803 0.29800
C 	C 	0.50389 0.10481 0.17947 0.30900
C 	C 	0.50389 0.17451 0.10801 0.30000
Ni	Ni	0.50389 0.24649 0.25173 1.11400
Ni	Ni	0.45277 0.18303 0.18710 1.12000
Ni	Ni	0.55502 0.18304 0.18710 1.12000
O 	O 	0.55037 0.28420 0.22531 -0.36400
O 	O 	0.58486 0.23934 0.18008 -0.36700
O 	O 	0.46797 0.12177 0.19105 -0.37300
O 	O 	0.45889 0.21762 0.28893 -0.36400
O 	O 	0.42391 0.17474 0.24367 -0.36600
O 	O 	0.54027 0.18531 0.12533 -0.37300
O 	O 	0.54890 0.21762 0.28893 -0.36400
O 	O 	0.58388 0.17474 0.24368 -0.36600
O 	O 	0.46751 0.18530 0.12532 -0.37300
O 	O 	0.45741 0.28420 0.22530 -0.36400
O 	O 	0.42292 0.23933 0.18006 -0.36700
O 	O 	0.53982 0.12177 0.19106 -0.37300
O 	O 	0.50389 0.20912 0.20556 -0.71000
H 	H 	0.50389 0.23130 0.18376 0.14300
C 	C 	0.58549 0.20411 0.73322 0.29800
C 	C 	0.42353 0.27097 0.80150 0.30800
C 	C 	0.58430 0.27097 0.80151 0.30800
C 	C 	0.42235 0.20411 0.73321 0.29800
C 	C 	0.50392 0.17587 0.89882 0.30900
C 	C 	0.50392 0.10428 0.82913 0.30000
Ni	Ni	0.50392 0.24793 0.75705 1.11400
Ni	Ni	0.45280 0.18336 0.82053 1.12000
Ni	Ni	0.55504 0.18336 0.82053 1.12000
O 	O 	0.55036 0.22147 0.71933 -0.36400
O 	O 	0.58489 0.17627 0.76423 -0.36700
O 	O 	0.46799 0.18738 0.88181 -0.37300
O 	O 	0.45889 0.28515 0.78585 -0.36400
O 	O 	0.42393 0.23994 0.82878 -0.36600
O 	O 	0.54030 0.12159 0.81833 -0.37300
O 	O 	0.54894 0.28515 0.78586 -0.36400
O 	O 	0.58391 0.23993 0.82879 -0.36600
O 	O 	0.46754 0.12159 0.81833 -0.37300
O 	O 	0.45748 0.22147 0.71932 -0.36400
O 	O 	0.42294 0.17627 0.76422 -0.36700
O 	O 	0.53986 0.18737 0.88181 -0.37300
O 	O 	0.50392 0.20180 0.79444 -0.71000
H 	H 	0.50392 0.17997 0.77228 0.14300
C 	C 	0.79979 0.27001 0.58516 0.29800
C 	C 	0.73274 0.20220 0.42310 0.30800
C 	C 	0.73291 0.20220 0.58390 0.30800
C 	C 	0.79975 0.27034 0.42198 0.29800
C 	C 	0.82756 0.10455 0.50342 0.30900
C 	C 	0.89933 0.17394 0.50333 0.30000
Ni	Ni	0.75594 0.24655 0.50353 1.11400
Ni	Ni	0.82028 0.18291 0.45233 1.12000
Ni	Ni	0.82037 0.18280 0.55458 1.12000
O 	O 	0.78252 0.28410 0.55007 -0.36400
O 	O 	0.82769 0.23907 0.58443 -0.36700
O 	O 	0.81624 0.12161 0.46744 -0.37300
O 	O 	0.71860 0.21802 0.45841 -0.36400
O 	O 	0.76363 0.17476 0.42360 -0.36600
O 	O 	0.88214 0.18472 0.53977 -0.37400
O 	O 	0.71868 0.21772 0.54850 -0.36400
O 	O 	0.76382 0.17480 0.58354 -0.36600
O 	O 	0.88206 0.18501 0.46703 -0.37400
O 	O 	0.78256 0.28426 0.45718 -0.36400
O 	O 	0.82746 0.23920 0.42246 -0.36700
O 	O 	0.81598 0.12159 0.53931 -0.37300
O 	O 	0.80196 0.20901 0.50349 -0.71000
H 	H 	0.82385 0.23110 0.50349 0.14300
C 	C 	0.20803 0.27035 0.42196 0.29800
C 	C 	0.27492 0.20219 0.58386 0.30800
C 	C 	0.27505 0.20220 0.42306 0.30800
C 	C 	0.20805 0.27000 0.58513 0.29800
C 	C 	0.18025 0.10455 0.50337 0.30900
C 	C 	0.10848 0.17393 0.50332 0.30000
Ni	Ni	0.25187 0.24655 0.50350 1.11400
Ni	Ni	0.18746 0.18279 0.55455 1.12000
Ni	Ni	0.18751 0.18292 0.45230 1.12000
O 	O 	0.22525 0.28426 0.45715 -0.36400
O 	O 	0.18032 0.23922 0.42245 -0.36700
O 	O 	0.19183 0.12158 0.53927 -0.37300
O 	O 	0.28915 0.21773 0.54847 -0.36400
O 	O 	0.24402 0.17477 0.58349 -0.36600
O 	O 	0.12574 0.18501 0.46701 -0.37400
O 	O 	0.28919 0.21800 0.45838 -0.36400
O 	O 	0.24415 0.17478 0.42355 -0.36600
O 	O 	0.12568 0.18472 0.53976 -0.37400
O 	O 	0.22530 0.28410 0.55003 -0.36400
O 	O 	0.18016 0.23905 0.58441 -0.36700
O 	O 	0.19157 0.12162 0.46740 -0.37300
O 	O 	0.20585 0.20900 0.50346 -0.71000
H 	H 	0.18396 0.23110 0.50347 0.14300
C 	C 	0.20832 0.41807 0.73374 0.29800
C 	C 	0.27484 0.58024 0.80159 0.30800
C 	C 	0.27519 0.41946 0.80180 0.30800
C 	C 	0.20806 0.58132 0.73368 0.29800
C 	C 	0.18001 0.49979 0.89916 0.30900
C 	C 	0.10849 0.49954 0.82977 0.30000
Ni	Ni	0.25194 0.49977 0.75730 1.11400
Ni	Ni	0.18739 0.55085 0.82090 1.12000
Ni	Ni	0.18760 0.44858 0.82100 1.12000
O 	O 	0.22543 0.45326 0.71969 -0.36400
O 	O 	0.18050 0.41862 0.76475 -0.36700
O 	O 	0.19159 0.53570 0.88216 -0.37300
O 	O 	0.28912 0.54486 0.78607 -0.36400
O 	O 	0.24392 0.57984 0.82898 -0.36600
O 	O 	0.12580 0.46320 0.81884 -0.37400
O 	O 	0.28930 0.45479 0.78601 -0.36400
O 	O 	0.24428 0.41991 0.82921 -0.36600
O 	O 	0.12565 0.53595 0.81885 -0.37400
O 	O 	0.22532 0.54620 0.71964 -0.36400
O 	O 	0.18013 0.58061 0.76459 -0.36700
O 	O 	0.19162 0.46385 0.88224 -0.37300
O 	O 	0.20589 0.49972 0.79482 -0.71000
H 	H 	0.18401 0.49966 0.77270 0.14300
C 	C 	0.20834 0.73002 0.58572 0.29800
C 	C 	0.27468 0.79755 0.42333 0.30800
C 	C 	0.27528 0.79800 0.58413 0.30800
C 	C 	0.20773 0.72959 0.42254 0.29800
C 	C 	0.18025 0.89543 0.50377 0.30900
C 	C 	0.10848 0.82605 0.50426 0.30000
Ni	Ni	0.25187 0.75343 0.50392 1.11400
Ni	Ni	0.18728 0.81697 0.45286 1.12000
Ni	Ni	0.18768 0.81727 0.55510 1.12000
O 	O 	0.22540 0.71592 0.55053 -0.36400
O 	O 	0.18056 0.76109 0.58517 -0.36700
O 	O 	0.19158 0.87827 0.46785 -0.37300
O 	O 	0.28899 0.78205 0.45871 -0.36400
O 	O 	0.24375 0.82495 0.42374 -0.36600
O 	O 	0.12585 0.81522 0.54060 -0.37400
O 	O 	0.28934 0.78217 0.54880 -0.36400
O 	O 	0.24441 0.82545 0.58368 -0.36600
O 	O 	0.12557 0.81502 0.46786 -0.37400
O 	O 	0.22514 0.71568 0.45764 -0.36400
O 	O 	0.17990 0.76060 0.42321 -0.36700
O 	O 	0.19182 0.87849 0.53972 -0.37300
O 	O 	0.20585 0.79097 0.50399 -0.71000
H 	H 	0.18395 0.76888 0.50414 0.14300
C 	C 	0.80007 0.72959 0.42257 0.29800
C 	C 	0.73254 0.79800 0.58415 0.30800
C 	C 	0.73312 0.79756 0.42335 0.30800
C 	C 	0.79948 0.73002 0.58575 0.29800
C 	C 	0.82756 0.89543 0.50379 0.30900
C 	C 	0.89933 0.82605 0.50430 0.30000
Ni	Ni	0.75594 0.75343 0.50395 1.11400
Ni	Ni	0.82013 0.81728 0.55513 1.12000
Ni	Ni	0.82053 0.81697 0.45288 1.12000
O 	O 	0.78267 0.71568 0.45767 -0.36400
O 	O 	0.82790 0.76060 0.42324 -0.36700
O 	O 	0.81599 0.87849 0.53974 -0.37300
O 	O 	0.71848 0.78217 0.54882 -0.36400
O 	O 	0.76341 0.82546 0.58371 -0.36600
O 	O 	0.88224 0.81501 0.46789 -0.37400
O 	O 	0.71881 0.78205 0.45873 -0.36400
O 	O 	0.76405 0.82495 0.42376 -0.36600
O 	O 	0.88197 0.81523 0.54064 -0.37400
O 	O 	0.78242 0.71593 0.55056 -0.36400
O 	O 	0.82726 0.76109 0.58520 -0.36700
O 	O 	0.81624 0.87827 0.46787 -0.37300
O 	O 	0.80197 0.79098 0.50401 -0.71000
H 	H 	0.82386 0.76888 0.50416 0.14300
C 	C 	0.58551 0.72948 0.79971 0.29800
C 	C 	0.42355 0.79768 0.73273 0.30800
C 	C 	0.58429 0.79767 0.73275 0.30800
C 	C 	0.42233 0.72948 0.79969 0.29800
C 	C 	0.50393 0.89510 0.82775 0.30900
C 	C 	0.50391 0.82549 0.89942 0.30000
Ni	Ni	0.50392 0.75323 0.75586 1.11400
Ni	Ni	0.45280 0.81682 0.82032 1.12000
Ni	Ni	0.55504 0.81681 0.82034 1.12000
O 	O 	0.55037 0.71555 0.78238 -0.36400
O 	O 	0.58490 0.76052 0.82752 -0.36700
O 	O 	0.46799 0.87809 0.81624 -0.37300
O 	O 	0.45890 0.78197 0.71858 -0.36400
O 	O 	0.42396 0.82500 0.76372 -0.36600
O 	O 	0.54030 0.81469 0.88212 -0.37300
O 	O 	0.54893 0.78199 0.71860 -0.36400
O 	O 	0.58391 0.82498 0.76375 -0.36600
O 	O 	0.46753 0.81468 0.88210 -0.37300
O 	O 	0.45747 0.71555 0.78238 -0.36400
O 	O 	0.42293 0.76053 0.82748 -0.36700
O 	O 	0.53986 0.87808 0.81624 -0.37300
O 	O 	0.50392 0.79069 0.80194 -0.71000
H 	H 	0.50392 0.76856 0.82380 0.14300
C 	C 	0.79979 0.58132 0.73371 0.29800
C 	C 	0.73264 0.41947 0.80183 0.30800
C 	C 	0.73301 0.58024 0.80160 0.30800
C 	C 	0.79951 0.41807 0.73377 0.29800
C 	C 	0.82783 0.49981 0.89920 0.30900
C 	C 	0.89936 0.49953 0.82980 0.30000
Ni	Ni	0.75590 0.49978 0.75732 1.11400
Ni	Ni	0.82023 0.44858 0.82103 1.12000
Ni	Ni	0.82046 0.55085 0.82093 1.12000
O 	O 	0.78251 0.54620 0.71966 -0.36400
O 	O 	0.82772 0.58061 0.76461 -0.36700
O 	O 	0.81622 0.46386 0.88228 -0.37300
O 	O 	0.71853 0.45480 0.78603 -0.36400
O 	O 	0.76355 0.41993 0.82925 -0.36600
O 	O 	0.88220 0.53594 0.81888 -0.37400
O 	O 	0.71872 0.54486 0.78609 -0.36400
O 	O 	0.76394 0.57985 0.82899 -0.36600
O 	O 	0.88203 0.46319 0.81888 -0.37400
O 	O 	0.78240 0.45326 0.71972 -0.36400
O 	O 	0.82733 0.41861 0.76480 -0.36700
O 	O 	0.81626 0.53571 0.88218 -0.37300
O 	O 	0.80196 0.49973 0.79485 -0.71000
H 	H 	0.82382 0.49966 0.77273 0.14300
C 	C 	0.70496 0.61561 0.80179 -0.08000
C 	C 	0.67984 0.64401 0.80166 0.04700
C 	C 	0.64866 0.67563 0.80122 0.04300
C 	C 	0.62059 0.70111 0.80064 -0.07600
C 	C 	0.80012 0.70184 0.62099 -0.07700
C 	C 	0.80041 0.67649 0.64918 0.04400
C 	C 	0.80048 0.64499 0.68046 0.04400
C 	C 	0.80031 0.61665 0.70565 -0.07700
C 	C 	0.61943 0.79831 0.70442 -0.07900
C 	C 	0.64760 0.79860 0.67903 0.04600
C 	C 	0.67895 0.79867 0.64757 0.04600
C 	C 	0.70425 0.79851 0.61933 -0.07900
C 	C 	0.06391 0.83318 0.50441 -0.07500
C 	C 	0.02611 0.83615 0.50447 0.04500
C 	C 	0.98170 0.83616 0.50448 0.04500
C 	C 	0.94390 0.83318 0.50443 -0.07500
C 	C 	0.30358 0.79852 0.61931 -0.07900
C 	C 	0.32888 0.79868 0.64755 0.04600
C 	C 	0.36024 0.79861 0.67901 0.04600
C 	C 	0.38841 0.79832 0.70439 -0.07900
C 	C 	0.06393 0.49944 0.83688 -0.07500
C 	C 	0.02613 0.49940 0.83986 0.04500
C 	C 	0.98173 0.49940 0.83987 0.04500
C 	C 	0.94392 0.49944 0.83691 -0.07500
C 	C 	0.30288 0.61560 0.80177 -0.08000
C 	C 	0.32800 0.64401 0.80163 0.04700
C 	C 	0.35918 0.67562 0.80119 0.04300
C 	C 	0.38725 0.70111 0.80061 -0.07600
C 	C 	0.20753 0.61665 0.70562 -0.07700
C 	C 	0.20736 0.64499 0.68044 0.04400
C 	C 	0.20742 0.67649 0.64915 0.04400
C 	C 	0.20771 0.70184 0.62096 -0.07700
C 	C 	0.17307 0.05999 0.50340 -0.07700
C 	C 	0.17007 0.02219 0.50345 0.04700
C 	C 	0.17007 0.97779 0.50355 0.04700
C 	C 	0.17307 0.93999 0.50365 -0.07700
C 	C 	0.20750 0.29805 0.62048 -0.07700
C 	C 	0.20733 0.32327 0.64879 0.04400
C 	C 	0.20741 0.35461 0.68024 0.04400
C 	C 	0.20771 0.38283 0.70555 -0.07700
C 	C 	0.83474 0.05999 0.50344 -0.07700
C 	C 	0.83774 0.02219 0.50350 0.04700
C 	C 	0.83774 0.97779 0.50359 0.04700
C 	C 	0.83474 0.93999 0.50368 -0.07700
C 	C 	0.94390 0.16681 0.50326 -0.07500
C 	C 	0.98170 0.16384 0.50323 0.04500
C 	C 	0.02611 0.16384 0.50323 0.04500
C 	C 	0.06391 0.16681 0.50325 -0.07500
C 	C 	0.80035 0.29806 0.62051 -0.07700
C 	C 	0.80051 0.32327 0.64882 0.04400
C 	C 	0.80042 0.35461 0.68027 0.04400
C 	C 	0.80012 0.38283 0.70558 -0.07700
C 	C 	0.50393 0.93963 0.83513 -0.07700
C 	C 	0.50393 0.97742 0.83835 0.04700
C 	C 	0.50393 0.02183 0.83866 0.04400
C 	C 	0.50393 0.05966 0.83595 -0.07400
C 	C 	0.30346 0.38427 0.80233 -0.08000
C 	C 	0.32878 0.35604 0.80250 0.04600
C 	C 	0.36017 0.32462 0.80243 0.04600
C 	C 	0.38837 0.29927 0.80214 -0.08000
C 	C 	0.30299 0.20203 0.61921 -0.08000
C 	C 	0.32810 0.20217 0.64763 0.04700
C 	C 	0.35925 0.20261 0.67928 0.04300
C 	C 	0.38729 0.20318 0.70480 -0.07600
C 	C 	0.70437 0.38428 0.80236 -0.08000
C 	C 	0.67905 0.35605 0.80253 0.04600
C 	C 	0.64767 0.32462 0.80245 0.04600
C 	C 	0.61947 0.29927 0.80215 -0.07900
C 	C 	0.62055 0.20319 0.70481 -0.07600
C 	C 	0.64859 0.20262 0.67930 0.04300
C 	C 	0.67973 0.20219 0.64765 0.04700
C 	C 	0.70484 0.20204 0.61924 -0.08000
C 	C 	0.50390 0.16770 0.06339 -0.07400
C 	C 	0.50390 0.16499 0.02556 0.04400
C 	C 	0.50391 0.16529 0.98115 0.04700
C 	C 	0.50392 0.16850 0.94336 -0.07700
C 	C 	0.38832 0.20145 0.30296 -0.07900
C 	C 	0.36008 0.20127 0.32828 0.04600
C 	C 	0.32867 0.20133 0.35967 0.04600
C 	C 	0.30333 0.20160 0.38789 -0.07900
C 	C 	0.61947 0.20144 0.30298 -0.07900
C 	C 	0.64770 0.20126 0.32830 0.04600
C 	C 	0.67912 0.20131 0.35970 0.04600
C 	C 	0.70446 0.20158 0.38792 -0.07900
C 	C 	0.50388 0.94034 0.17113 -0.07400
C 	C 	0.50388 0.97815 0.16836 0.04400
C 	C 	0.50388 0.02254 0.16867 0.04700
C 	C 	0.50389 0.06031 0.17195 -0.07700
C 	C 	0.50390 0.83145 0.06407 -0.07700
C 	C 	0.50390 0.83467 0.02628 0.04700
C 	C 	0.50391 0.83499 0.98187 0.04400
C 	C 	0.50391 0.83229 0.94404 -0.07400
C 	C 	0.62060 0.79702 0.30258 -0.07600
C 	C 	0.64871 0.79748 0.32803 0.04300
C 	C 	0.67992 0.79778 0.35962 0.04700
C 	C 	0.70506 0.79782 0.38800 -0.08000
C 	C 	0.30274 0.79781 0.38798 -0.08000
C 	C 	0.32788 0.79777 0.35960 0.04700
C 	C 	0.35908 0.79747 0.32801 0.04300
C 	C 	0.38718 0.79700 0.30256 -0.07600
C 	C 	0.83660 0.50008 0.06366 -0.07400
C 	C 	0.83925 0.50001 0.02584 0.04400
C 	C 	0.83879 0.49993 0.98144 0.04700
C 	C 	0.83541 0.49986 0.94368 -0.07800
C 	C 	0.80192 0.38451 0.30282 -0.08100
C 	C 	0.80178 0.35605 0.32787 0.04700
C 	C 	0.80131 0.32435 0.35896 0.04300
C 	C 	0.80071 0.29879 0.38696 -0.07600
C 	C 	0.62077 0.29836 0.20750 -0.07700
C 	C 	0.64904 0.32362 0.20727 0.04400
C 	C 	0.68046 0.35500 0.20725 0.04400
C 	C 	0.70573 0.38325 0.20745 -0.07700
C 	C 	0.61963 0.70119 0.20597 -0.08000
C 	C 	0.64803 0.67606 0.20600 0.04700
C 	C 	0.67965 0.64489 0.20632 0.04300
C 	C 	0.70513 0.61681 0.20682 -0.07600
C 	C 	0.80094 0.70127 0.38744 -0.07600
C 	C 	0.80142 0.67586 0.35931 0.04300
C 	C 	0.80172 0.64432 0.32805 0.04700
C 	C 	0.80175 0.61599 0.30285 -0.08000
C 	C 	0.94388 0.50053 0.17291 -0.07700
C 	C 	0.98168 0.50057 0.16992 0.04600
C 	C 	0.02609 0.50057 0.16992 0.04600
C 	C 	0.06389 0.50053 0.17289 -0.07700
C 	C 	0.17242 0.49985 0.94364 -0.07800
C 	C 	0.16903 0.49992 0.98140 0.04700
C 	C 	0.16856 0.50001 0.02580 0.04400
C 	C 	0.17119 0.50008 0.06362 -0.07400
C 	C 	0.30206 0.38326 0.20742 -0.07700
C 	C 	0.32733 0.35500 0.20722 0.04400
C 	C 	0.35874 0.32362 0.20725 0.04400
C 	C 	0.38701 0.29836 0.20748 -0.07700
C 	C 	0.20707 0.29880 0.38694 -0.07600
C 	C 	0.20647 0.32435 0.35893 0.04300
C 	C 	0.20601 0.35605 0.32784 0.04700
C 	C 	0.20587 0.38450 0.30279 -0.08100
C 	C 	0.30264 0.61682 0.20680 -0.07600
C 	C 	0.32813 0.64489 0.20630 0.04300
C 	C 	0.35975 0.67606 0.20598 0.04700
C 	C 	0.38815 0.70119 0.20594 -0.08000
C 	C 	0.20603 0.61599 0.30283 -0.08000
C 	C 	0.20606 0.64432 0.32803 0.04700
C 	C 	0.20636 0.67585 0.35928 0.04300
C 	C 	0.20685 0.70127 0.38742 -0.07600
