data_crystal

_cell_length_a 22.15639
_cell_length_b 21.71093
_cell_length_c 50.67070
_cell_angle_alpha 89.88885
_cell_angle_beta  89.89083
_cell_angle_gamma 119.78358

_symmetry_space_group_name_	'P 1'
_symmetry_space_group_name_H-M	'P 1'

loop_
_symmetry_equiv_pos_as_xyz
  x,y,z

loop_
_atom_site_label
_atom_site_type_symbol
_atom_site_fract_x
_atom_site_fract_y
_atom_site_fract_z
_atom_site_charge
C 	C 	0.64744 0.38999 0.98511 0.31700
C 	C 	0.56260 0.15647 0.91101 0.33100
C 	C 	0.74401 0.29900 0.96151 0.33000
C 	C 	0.46477 0.25140 0.92970 0.28400
C 	C 	0.73267 0.34541 0.88036 0.31300
C 	C 	0.66072 0.46240 0.89608 0.29600
Ni	Ni	0.59225 0.25291 0.95566 1.11400
Ni	Ni	0.58844 0.29969 0.89514 1.12400
Ni	Ni	0.71720 0.39875 0.93199 1.12100
O 	O 	0.59254 0.32625 0.98146 -0.37100
O 	O 	0.70691 0.41200 0.97178 -0.37400
O 	O 	0.66817 0.29312 0.87970 -0.38100
O 	O 	0.60677 0.18802 0.93000 -0.38600
O 	O 	0.53753 0.19126 0.89802 -0.37000
O 	O 	0.68245 0.46378 0.92054 -0.37700
O 	O 	0.68491 0.27442 0.97436 -0.36200
O 	O 	0.75264 0.33077 0.93881 -0.39500
O 	O 	0.62504 0.40187 0.88254 -0.36800
O 	O 	0.48824 0.21493 0.94350 -0.36100
O 	O 	0.50020 0.29238 0.90936 -0.37100
O 	O 	0.75027 0.40254 0.89452 -0.38700
O 	O 	0.62370 0.32495 0.93013 -0.71900
H 	H 	0.59973 0.35065 0.93584 0.16900
C 	C 	0.81172 0.44046 0.54339 0.31300
C 	C 	0.56653 0.18580 0.57820 0.33200
C 	C 	0.61780 0.39181 0.54154 0.33400
C 	C 	0.75896 0.23887 0.58221 0.28600
C 	C 	0.60539 0.36396 0.62751 0.31600
C 	C 	0.78678 0.43758 0.63338 0.29500
Ni	Ni	0.68342 0.30052 0.54962 1.11400
Ni	Ni	0.67874 0.28854 0.61391 1.12200
Ni	Ni	0.71508 0.43558 0.58608 1.12600
O 	O 	0.78079 0.37338 0.53585 -0.37000
O 	O 	0.77521 0.46966 0.55246 -0.37100
O 	O 	0.59773 0.30294 0.62000 -0.38300
O 	O 	0.58266 0.23913 0.56249 -0.37100
O 	O 	0.60921 0.19236 0.59749 -0.37000
O 	O 	0.79695 0.45998 0.60880 -0.38200
O 	O 	0.65109 0.36368 0.52964 -0.36700
O 	O 	0.62518 0.40453 0.56682 -0.37500
O 	O 	0.74419 0.36883 0.63935 -0.36200
O 	O 	0.71453 0.22745 0.56247 -0.36000
O 	O 	0.75110 0.26064 0.60583 -0.36700
O 	O 	0.65875 0.42421 0.61939 -0.37300
O 	O 	0.70908 0.34558 0.58268 -0.71300
H 	H 	0.75860 0.35931 0.58304 0.16900
C 	C 	0.97513 0.09998 0.70608 0.28800
C 	C 	0.93700 0.91155 0.79528 0.31100
C 	C 	0.94088 0.11324 0.77810 0.31300
C 	C 	0.97668 0.88045 0.73075 0.29200
C 	C 	0.12870 0.11369 0.80292 0.31300
C 	C 	0.18073 0.11594 0.73165 0.29500
Ni	Ni	0.92764 0.98749 0.74810 1.11200
Ni	Ni	0.07190 0.99473 0.76609 1.11600
Ni	Ni	0.07035 0.13715 0.75386 1.12200
O 	O 	0.93816 0.03061 0.71063 -0.35600
O 	O 	0.00858 0.14584 0.72553 -0.36600
O 	O 	0.08945 0.04484 0.80076 -0.37900
O 	O 	0.91822 0.95670 0.78720 -0.37500
O 	O 	0.99051 0.91043 0.78450 -0.37900
O 	O 	0.13946 0.14283 0.72731 -0.38200
O 	O 	0.90510 0.06611 0.75991 -0.35500
O 	O 	0.00509 0.12994 0.78300 -0.38400
O 	O 	0.16693 0.06635 0.75020 -0.36000
O 	O 	0.92419 0.89345 0.73477 -0.36100
O 	O 	0.04265 0.92967 0.73457 -0.37500
O 	O 	0.14150 0.15529 0.78227 -0.38300
O 	O 	0.02494 0.03726 0.74955 -0.71500
H 	H 	0.03580 0.03376 0.73092 0.17000
C 	C 	0.22079 0.73765 0.40655 0.29100
C 	C 	0.37358 0.63107 0.47259 0.33400
C 	C 	0.39154 0.83361 0.44121 0.32900
C 	C 	0.20094 0.53127 0.44923 0.31400
C 	C 	0.47030 0.71710 0.39538 0.31000
C 	C 	0.29511 0.60182 0.36306 0.28900
Ni	Ni	0.28354 0.68769 0.45100 1.11400
Ni	Ni	0.33891 0.59924 0.41750 1.12300
Ni	Ni	0.35288 0.74150 0.39329 1.12300
O 	O 	0.23932 0.74302 0.43195 -0.36200
O 	O 	0.25889 0.73235 0.38736 -0.36900
O 	O 	0.42636 0.64822 0.39505 -0.37500
O 	O 	0.31871 0.63759 0.47746 -0.37200
O 	O 	0.40029 0.64410 0.44898 -0.39100
O 	O 	0.33906 0.67216 0.36314 -0.36500
O 	O 	0.37949 0.77703 0.45414 -0.38200
O 	O 	0.37330 0.82808 0.41620 -0.36000
O 	O 	0.28488 0.56181 0.38427 -0.37700
O 	O 	0.19682 0.58948 0.44661 -0.38300
O 	O 	0.25651 0.52756 0.44082 -0.37000
O 	O 	0.44876 0.76133 0.40183 -0.38500
O 	O 	0.30783 0.66650 0.41821 -0.71700
H 	H 	0.26212 0.63907 0.40969 0.17000
C 	C 	0.48967 0.73654 0.06527 0.28500
C 	C 	0.21600 0.52116 0.02185 0.33600
C 	C 	0.35500 0.75809 0.02767 0.33000
C 	C 	0.36019 0.50414 0.05638 0.30400
C 	C 	0.20303 0.63964 0.09188 0.31100
C 	C 	0.32499 0.60142 0.12738 0.29600
Ni	Ni	0.36628 0.63064 0.03099 1.11700
Ni	Ni	0.25574 0.54163 0.07736 1.12500
Ni	Ni	0.35118 0.70931 0.08328 1.12200
O 	O 	0.46313 0.72010 0.04091 -0.36200
O 	O 	0.45282 0.73899 0.08554 -0.36800
O 	O 	0.20098 0.57917 0.09739 -0.37600
O 	O 	0.28018 0.54318 0.01410 -0.36100
O 	O 	0.20361 0.54046 0.04467 -0.37800
O 	O 	0.33100 0.66402 0.12046 -0.37300
O 	O 	0.32127 0.69100 0.02205 -0.36600
O 	O 	0.37997 0.77799 0.05165 -0.36800
O 	O 	0.30733 0.54939 0.11031 -0.38800
O 	O 	0.39781 0.55867 0.04059 -0.37400
O 	O 	0.29280 0.48099 0.06034 -0.35700
O 	O 	0.25355 0.68762 0.07749 -0.38400
O 	O 	0.33765 0.62512 0.06629 -0.71100
H 	H 	0.37377 0.61917 0.07528 0.16000
C 	C 	0.06332 0.15563 0.26471 0.28900
C 	C 	0.04521 0.92259 0.19601 0.31100
C 	C 	0.08381 0.15303 0.20139 0.30500
C 	C 	0.03842 0.91649 0.27111 0.29100
C 	C 	0.86604 0.94954 0.19071 0.29800
C 	C 	0.85511 0.94471 0.26823 0.28900
Ni	Ni	0.08714 0.04343 0.23513 1.11800
Ni	Ni	0.93237 0.90544 0.23112 1.12100
Ni	Ni	0.94767 0.05958 0.22986 1.12300
O 	O 	0.10684 0.13202 0.25834 -0.36200
O 	O 	0.99473 0.11523 0.26283 -0.37100
O 	O 	0.85500 0.90413 0.20981 -0.37900
O 	O 	0.09249 0.96457 0.21313 -0.36500
O 	O 	0.98200 0.91299 0.19677 -0.38300
O 	O 	0.85922 0.99089 0.24991 -0.37700
O 	O 	0.09586 0.09981 0.20109 -0.36700
O 	O 	0.02408 0.14500 0.20994 -0.37100
O 	O 	0.87761 0.89935 0.26350 -0.37100
O 	O 	0.08333 0.98523 0.26834 -0.36500
O 	O 	0.99662 0.87933 0.25142 -0.37100
O 	O 	0.90831 0.01781 0.19425 -0.36200
O 	O 	0.99064 0.00429 0.23756 -0.71100
H 	H 	0.98781 0.00392 0.25698 0.15900
C 	C 	0.22968 0.34068 0.20737 -0.03800
C 	C 	0.22067 0.37123 0.18421 0.02400
C 	C 	0.17484 0.32704 0.16463 -0.05400
C 	C 	0.13298 0.25397 0.16917 0.03100
C 	C 	0.13873 0.22417 0.19311 -0.08000
C 	C 	0.18999 0.26716 0.21136 0.00800
C 	C 	0.25771 0.44958 0.18042 0.02400
C 	C 	0.32983 0.48636 0.17576 -0.05200
C 	C 	0.36135 0.55422 0.16425 0.02800
C 	C 	0.31927 0.58164 0.15530 -0.07500
C 	C 	0.25339 0.55481 0.16688 0.01300
C 	C 	0.22023 0.48623 0.17770 -0.03700
C 	C 	0.43431 0.58954 0.15750 0.08100
C 	C 	0.14645 0.45116 0.18307 0.09900
C 	C 	0.27790 0.38459 0.22746 0.09400
C 	C 	0.08369 0.21005 0.14933 0.08800
N 	N 	0.49277 0.61787 0.15203 -0.10100
N 	N 	0.08729 0.42295 0.18724 -0.10700
N 	N 	0.04417 0.17482 0.13345 -0.09600
N 	N 	0.31673 0.42011 0.24345 -0.10700
H 	H 	0.19621 0.24400 0.22940 0.04100
H 	H 	0.17005 0.34999 0.14626 0.05800
H 	H 	0.36014 0.46041 0.17928 0.06100
H 	H 	0.22329 0.58064 0.16297 0.04500
C 	C 	0.70426 0.86592 0.14865 -0.03700
C 	C 	0.73201 0.86754 0.12338 0.02300
C 	C 	0.80433 0.89980 0.12004 -0.05600
C 	C 	0.84892 0.92863 0.14180 0.02600
C 	C 	0.82091 0.92525 0.16717 -0.07500
C 	C 	0.74872 0.89441 0.17035 0.01300
C 	C 	0.68513 0.83388 0.10049 0.02200
C 	C 	0.66754 0.87507 0.08430 -0.05600
C 	C 	0.60806 0.84224 0.06834 0.02600
C 	C 	0.56510 0.76782 0.06905 -0.07200
C 	C 	0.58925 0.72679 0.08178 0.00900
C 	C 	0.64887 0.75942 0.09764 -0.03600
C 	C 	0.58864 0.88539 0.05274 0.08200
C 	C 	0.66988 0.71606 0.11224 0.09500
C 	C 	0.63010 0.83451 0.15247 0.09800
C 	C 	0.92307 0.95968 0.13805 0.08500
N 	N 	0.57295 0.91984 0.04023 -0.10800
N 	N 	0.68675 0.68138 0.12398 -0.10500
N 	N 	0.98248 0.98453 0.13509 -0.09800
N 	N 	0.57067 0.80929 0.15549 -0.10700
H 	H 	0.72710 0.89210 0.18980 0.04600
H 	H 	0.82580 0.90150 0.10062 0.05700
H 	H 	0.69736 0.93250 0.08544 0.05600
H 	H 	0.55795 0.66936 0.08143 0.03500
C 	C 	0.02949 0.75763 0.16467 -0.04100
C 	C 	0.08918 0.78625 0.14848 0.02500
C 	C 	0.13233 0.86013 0.14676 -0.05900
C 	C 	0.11787 0.90545 0.16180 0.03600
C 	C 	0.05970 0.87662 0.17883 -0.08100
C 	C 	0.01505 0.80284 0.17972 0.01800
C 	C 	0.11055 0.73925 0.13524 0.02300
C 	C 	0.08750 0.71512 0.10955 -0.05700
C 	C 	0.11267 0.67631 0.09586 0.03000
C 	C 	0.16172 0.66189 0.10789 -0.08200
C 	C 	0.18186 0.68302 0.13404 0.01100
C 	C 	0.15616 0.72097 0.14782 -0.03800
C 	C 	0.08891 0.65255 0.06933 0.08200
C 	C 	0.17851 0.74289 0.17462 0.09500
C 	C 	0.98352 0.68183 0.16631 0.09900
C 	C 	0.16205 0.98135 0.15921 0.07100
N 	N 	0.06992 0.63348 0.04807 -0.10000
N 	N 	0.19636 0.76048 0.19609 -0.10800
N 	N 	0.19740 0.04216 0.15713 -0.09000
N 	N 	0.94673 0.62110 0.16760 -0.10700
H 	H 	0.96980 0.78056 0.19257 0.03800
H 	H 	0.17789 0.88221 0.13408 0.05800
H 	H 	0.05115 0.72779 0.10006 0.05800
H 	H 	0.22135 0.67440 0.14301 0.04300
C 	C 	0.69075 0.87968 0.30747 -0.03800
C 	C 	0.71171 0.86599 0.33204 0.02300
C 	C 	0.78239 0.89053 0.33673 -0.05400
C 	C 	0.83146 0.92449 0.31662 0.02900
C 	C 	0.80931 0.93083 0.29118 -0.07300
C 	C 	0.73954 0.91156 0.28712 0.01400
C 	C 	0.65951 0.82326 0.35246 0.02300
C 	C 	0.61619 0.75018 0.34857 -0.05700
C 	C 	0.55784 0.71129 0.36474 0.02800
C 	C 	0.54209 0.74641 0.38485 -0.08000
C 	C 	0.59160 0.81687 0.39110 0.01300
C 	C 	0.64918 0.85589 0.37466 -0.04000
C 	C 	0.51672 0.63545 0.36122 0.08700
C 	C 	0.69562 0.93014 0.38004 0.09400
C 	C 	0.61912 0.86026 0.30291 0.09500
C 	C 	0.90448 0.95327 0.32222 0.07700
N 	N 	0.48408 0.57463 0.35838 -0.10500
N 	N 	0.73285 0.98963 0.38433 -0.11000
N 	N 	0.96300 0.97635 0.32668 -0.10400
N 	N 	0.56171 0.84466 0.29929 -0.10900
H 	H 	0.72265 0.91822 0.26776 0.04800
H 	H 	0.79898 0.88240 0.35592 0.05800
H 	H 	0.62666 0.72412 0.33239 0.06000
H 	H 	0.58260 0.84281 0.40770 0.04900
C 	C 	0.27552 0.46864 0.31425 -0.03500
C 	C 	0.20343 0.43679 0.30941 0.02400
C 	C 	0.16834 0.47353 0.31609 -0.05100
C 	C 	0.20309 0.53813 0.32967 0.02400
C 	C 	0.27237 0.56460 0.33773 -0.06800
C 	C 	0.31001 0.53383 0.32744 0.01300
C 	C 	0.16375 0.36389 0.29836 0.02400
C 	C 	0.15455 0.30571 0.31358 -0.05400
C 	C 	0.11989 0.23695 0.30310 0.02800
C 	C 	0.09223 0.22572 0.27737 -0.07200
C 	C 	0.09826 0.28339 0.26268 0.00600
C 	C 	0.13474 0.35242 0.27287 -0.03600
C 	C 	0.11295 0.17825 0.31886 0.08700
C 	C 	0.14317 0.41143 0.25698 0.09500
C 	C 	0.31329 0.43240 0.30763 0.10100
C 	C 	0.16689 0.57613 0.33585 0.08000
N 	N 	0.10747 0.13126 0.33148 -0.09600
N 	N 	0.15022 0.45927 0.24451 -0.10800
N 	N 	0.13785 0.60667 0.34069 -0.10500
N 	N 	0.34358 0.40329 0.30248 -0.10400
H 	H 	0.36451 0.55632 0.33239 0.05200
H 	H 	0.11363 0.45086 0.31140 0.06000
H 	H 	0.17540 0.31419 0.33343 0.06100
H 	H 	0.07652 0.27481 0.24298 0.04400
C 	C 	0.07641 0.72282 0.36548 -0.03400
C 	C 	0.09788 0.79539 0.36215 0.02100
C 	C 	0.14478 0.84471 0.38025 -0.05400
C 	C 	0.17995 0.82451 0.39819 0.02600
C 	C 	0.16585 0.75354 0.39877 -0.07000
C 	C 	0.10905 0.70215 0.38442 0.01300
C 	C 	0.08112 0.82147 0.33758 0.02600
C 	C 	0.01312 0.80810 0.33323 -0.05700
C 	C 	0.99705 0.83355 0.31034 0.02900
C 	C 	0.05069 0.87787 0.29265 -0.07100
C 	C 	0.11819 0.88942 0.29664 0.01600
C 	C 	0.13327 0.86018 0.31860 -0.03800
C 	C 	0.92520 0.81044 0.30452 0.07800
C 	C 	0.20213 0.86924 0.32132 0.09800
C 	C 	0.02393 0.66984 0.34860 0.09700
C 	C 	0.23410 0.87799 0.41436 0.08700
N 	N 	0.86732 0.79107 0.30002 -0.10300
N 	N 	0.25724 0.87642 0.32353 -0.10800
N 	N 	0.27747 0.92132 0.42720 -0.10100
N 	N 	0.98190 0.62739 0.33506 -0.10700
H 	H 	0.09472 0.64673 0.38620 0.04500
H 	H 	0.15838 0.89999 0.37878 0.05800
H 	H 	0.97249 0.77685 0.34743 0.05900
H 	H 	0.15905 0.92122 0.28259 0.04700
C 	C 	0.48553 0.99585 0.48257 -0.12100
C 	C 	0.43459 0.98049 0.50202 -0.00100
C 	C 	0.36571 0.92702 0.49740 0.12300
C 	C 	0.34939 0.88614 0.47446 -0.02800
C 	C 	0.40206 0.89523 0.45671 -0.11900
C 	C 	0.46970 0.95268 0.46016 0.20100
C 	C 	0.45400 0.01909 0.52746 0.01500
O 	O 	0.31455 0.91341 0.51558 -0.27400
H 	H 	0.29682 0.84277 0.47173 0.05300
O 	O 	0.52094 0.96526 0.44216 -0.28600
H 	H 	0.53806 0.03925 0.48539 0.08300
C 	C 	0.50216 0.01470 0.54437 0.12700
C 	C 	0.53057 0.06212 0.56555 -0.03300
C 	C 	0.51272 0.11506 0.56927 -0.12500
C 	C 	0.45443 0.10916 0.55586 0.19800
C 	C 	0.42718 0.06338 0.53427 -0.11100
O 	O 	0.52091 0.96396 0.54038 -0.27300
H 	H 	0.57039 0.06140 0.57764 0.07500
O 	O 	0.42974 0.15425 0.56177 -0.28400
H 	H 	0.38738 0.06449 0.52221 0.09200
H 	H 	0.54300 0.93801 0.44866 0.15500
H 	H 	0.56226 0.98654 0.52865 0.15100
H 	H 	0.39301 0.12886 0.57525 0.15900
H 	H 	0.31434 0.87744 0.52774 0.15100
C 	C 	0.03176 0.42998 0.47943 -0.10700
C 	C 	0.05101 0.46567 0.50373 0.00400
C 	C 	0.11996 0.49360 0.51247 0.12400
C 	C 	0.17011 0.49520 0.49521 -0.03600
C 	C 	0.15375 0.47915 0.46845 -0.11400
C 	C 	0.08336 0.43741 0.46155 0.19500
C 	C 	0.00227 0.48242 0.51782 0.00700
O 	O 	0.13916 0.52278 0.53714 -0.27000
H 	H 	0.22376 0.52037 0.50152 0.06900
O 	O 	0.06527 0.40992 0.43660 -0.28400
H 	H 	0.97768 0.40221 0.47348 0.07500
C 	C 	0.97091 0.51648 0.50453 0.11600
C 	C 	0.91323 0.51673 0.51581 -0.02800
C 	C 	0.88704 0.48304 0.54012 -0.12300
C 	C 	0.92871 0.46552 0.55575 0.19300
C 	C 	0.98355 0.46076 0.54409 -0.11200
O 	O 	0.99656 0.54944 0.48069 -0.27100
H 	H 	0.88458 0.53596 0.50441 0.06000
O 	O 	0.91006 0.44371 0.58135 -0.30000
H 	H 	0.00930 0.43754 0.55505 0.08800
H 	H 	0.06156 0.44652 0.42611 0.15600
H 	H 	0.96747 0.51433 0.46714 0.14700
H 	H 	0.93583 0.48722 0.59212 0.16300
H 	H 	0.15335 0.57361 0.53488 0.14900
C 	C 	0.48839 0.58436 0.51123 -0.11000
C 	C 	0.45516 0.51111 0.50638 0.00600
C 	C 	0.38743 0.47653 0.49599 0.12300
C 	C 	0.35551 0.51589 0.48898 -0.03600
C 	C 	0.39227 0.59026 0.49065 -0.12600
C 	C 	0.45768 0.62414 0.50301 0.19900
C 	C 	0.49149 0.47086 0.51202 0.00900
O 	O 	0.35288 0.40446 0.49219 -0.26900
H 	H 	0.30449 0.48902 0.48008 0.06500
O 	O 	0.49249 0.69635 0.50641 -0.28500
H 	H 	0.53919 0.61089 0.52042 0.07500
C 	C 	0.55309 0.48640 0.49844 0.11600
C 	C 	0.59091 0.45318 0.50598 -0.02900
C 	C 	0.56774 0.40482 0.52707 -0.12400
C 	C 	0.50216 0.38345 0.53847 0.20100
C 	C 	0.46526 0.41773 0.53143 -0.11000
O 	O 	0.57599 0.53341 0.47770 -0.26900
H 	H 	0.64038 0.46850 0.49657 0.06200
O 	O 	0.47664 0.33278 0.55797 -0.27800
H 	H 	0.41704 0.40419 0.54153 0.09000
H 	H 	0.52190 0.71613 0.49041 0.15900
H 	H 	0.60912 0.58003 0.48550 0.14700
H 	H 	0.44822 0.28718 0.54865 0.17000
H 	H 	0.36545 0.39765 0.47406 0.15400
C 	C 	0.95859 0.12569 0.63317 -0.03600
C 	C 	0.92339 0.16481 0.63355 0.02400
C 	C 	0.91001 0.18706 0.65774 -0.05500
C 	C 	0.92850 0.16808 0.68153 0.02600
C 	C 	0.96222 0.12734 0.68126 -0.06800
C 	C 	0.97782 0.10716 0.65701 0.01000
C 	C 	0.89484 0.17783 0.60904 0.02300
C 	C 	0.83042 0.12451 0.59962 -0.05300
C 	C 	0.78884 0.14270 0.58433 0.02500
C 	C 	0.81023 0.21469 0.57983 -0.07000
C 	C 	0.88046 0.26500 0.58382 0.00800
C 	C 	0.92269 0.24721 0.59889 -0.03400
C 	C 	0.72558 0.08753 0.57291 0.08400
C 	C 	0.99296 0.30107 0.60505 0.09600
C 	C 	0.97497 0.10423 0.60846 0.09800
C 	C 	0.90930 0.18746 0.70613 0.08800
N 	N 	0.67525 0.04275 0.56362 -0.10600
N 	N 	0.04929 0.34426 0.61000 -0.10600
N 	N 	0.89378 0.20301 0.72578 -0.10400
N 	N 	0.98808 0.08705 0.58865 -0.10600
H 	H 	0.00391 0.07607 0.65671 0.04900
H 	H 	0.88293 0.21719 0.65803 0.05900
H 	H 	0.81094 0.06978 0.60554 0.06000
H 	H 	0.89980 0.31952 0.57784 0.05100
C 	C 	0.43898 0.33330 0.65661 -0.03900
C 	C 	0.44055 0.30093 0.68061 0.02500
C 	C 	0.50395 0.30958 0.68975 -0.05500
C 	C 	0.56351 0.34331 0.67393 0.02900
C 	C 	0.55872 0.36423 0.64801 -0.08000
C 	C 	0.49799 0.36421 0.64029 0.01800
C 	C 	0.37522 0.25097 0.69454 0.02300
C 	C 	0.32642 0.18856 0.68181 -0.05300
C 	C 	0.26349 0.14169 0.69424 0.02600
C 	C 	0.25106 0.15453 0.72039 -0.06900
C 	C 	0.30157 0.21490 0.73362 0.01400
C 	C 	0.36266 0.26398 0.72067 -0.03700
C 	C 	0.20999 0.08369 0.67934 0.08300
C 	C 	0.41047 0.32910 0.73388 0.09500
C 	C 	0.37672 0.33353 0.64839 0.09800
C 	C 	0.62882 0.35394 0.68408 0.07400
N 	N 	0.16706 0.03757 0.66729 -0.09700
N 	N 	0.44879 0.38126 0.74445 -0.10800
N 	N 	0.68090 0.36231 0.69246 -0.10200
N 	N 	0.32681 0.33368 0.64182 -0.10700
H 	H 	0.49503 0.38335 0.62080 0.05300
H 	H 	0.50622 0.28748 0.70870 0.06000
H 	H 	0.33652 0.17777 0.66188 0.06000
H 	H 	0.29106 0.22612 0.75343 0.05000
C 	C 	0.87626 0.54017 0.69534 -0.03800
C 	C 	0.87260 0.60270 0.69169 0.02400
C 	C 	0.83568 0.60803 0.67036 -0.05700
C 	C 	0.80669 0.55450 0.65150 0.03000
C 	C 	0.81134 0.49187 0.65457 -0.07300
C 	C 	0.84494 0.48466 0.67689 0.01600
C 	C 	0.91105 0.66553 0.70884 0.02300
C 	C 	0.97609 0.72004 0.70024 -0.05600
C 	C 	0.00014 0.79044 0.70800 0.02400
C 	C 	0.95943 0.80622 0.72529 -0.07200
C 	C 	0.89952 0.75004 0.73683 0.01300
C 	C 	0.87527 0.67997 0.72870 -0.03700
C 	C 	0.06563 0.84566 0.69768 0.08400
C 	C 	0.81152 0.62355 0.73976 0.10100
C 	C 	0.91206 0.53263 0.71781 0.09800
C 	C 	0.77519 0.56621 0.62849 0.06900
N 	N 	0.11830 0.88960 0.68941 -0.10200
N 	N 	0.76041 0.57830 0.74860 -0.10500
N 	N 	0.75042 0.57636 0.61010 -0.12900
N 	N 	0.94075 0.52662 0.73583 -0.10700
H 	H 	0.84858 0.43701 0.67949 0.04800
H 	H 	0.83218 0.65583 0.66783 0.05900
H 	H 	0.00517 0.70851 0.68573 0.05700
H 	H 	0.87063 0.76112 0.75157 0.05000
C 	C 	0.05129 0.35554 0.00589 -0.10800
C 	C 	0.01860 0.38362 0.99027 0.00700
C 	C 	0.05758 0.45299 0.98014 0.11900
C 	C 	0.12669 0.49618 0.98801 -0.02500
C 	C 	0.15715 0.47048 0.00591 -0.12300
C 	C 	0.12070 0.39854 0.01349 0.19600
C 	C 	0.94251 0.34352 0.98676 0.01000
O 	O 	0.02666 0.48034 0.96416 -0.27000
H 	H 	0.15485 0.55121 0.98173 0.06600
O 	O 	0.15084 0.37199 0.03025 -0.28900
H 	H 	0.02205 0.30147 0.01314 0.08500
C 	C 	0.91366 0.30262 0.96397 0.11800
C 	C 	0.84394 0.27844 0.95769 -0.02600
C 	C 	0.80351 0.29729 0.97350 -0.12500
C 	C 	0.83034 0.33162 0.99773 0.19800
C 	C 	0.89960 0.35415 0.00436 -0.10900
O 	O 	0.95395 0.28786 0.94746 -0.26300
H 	H 	0.82295 0.24997 0.93941 0.06200
O 	O 	0.78999 0.34595 0.01440 -0.28100
H 	H 	0.92111 0.38377 0.02239 0.08400
H 	H 	0.17434 0.35365 0.01860 0.16600
H 	H 	0.97397 0.32736 0.93447 0.15000
H 	H 	0.79889 0.39388 0.00928 0.15900
H 	H 	0.03428 0.46915 0.94591 0.14700
C 	C 	0.42049 0.83616 0.95985 -0.10800
C 	C 	0.42686 0.90326 0.96233 0.00300
C 	C 	0.41121 0.92374 0.98664 0.11900
C 	C 	0.38820 0.87643 0.00808 -0.02500
C 	C 	0.38270 0.80952 0.00565 -0.12400
C 	C 	0.40105 0.79040 0.98153 0.20300
C 	C 	0.45896 0.95529 0.94071 0.01600
O 	O 	0.41815 0.98979 0.98943 -0.27800
H 	H 	0.37465 0.89182 0.02652 0.06300
O 	O 	0.40053 0.72716 0.97920 -0.30700
H 	H 	0.43363 0.82064 0.94134 0.08600
C 	C 	0.53043 0.98540 0.93529 0.09700
C 	C 	0.56346 0.04506 0.91892 -0.00600
C 	C 	0.52682 0.07844 0.91010 -0.13400
C 	C 	0.45365 0.03954 0.91063 0.22000
C 	C 	0.41977 0.97907 0.92671 -0.12900
O 	O 	0.56848 0.95856 0.94687 -0.26700
H 	H 	0.61938 0.07109 0.91630 0.06200
O 	O 	0.41561 0.05861 0.89470 -0.28400
H 	H 	0.36372 0.95215 0.92890 0.08800
H 	H 	0.44799 0.73777 0.98422 0.14500
H 	H 	0.58526 0.98452 0.96378 0.14700
H 	H 	0.40604 0.09084 0.90544 0.16600
H 	H 	0.46670 0.02085 0.99539 0.15700
C 	C 	0.59392 0.49599 0.02462 -0.11100
C 	C 	0.56800 0.45050 0.04657 0.00200
C 	C 	0.59352 0.40421 0.05201 0.12600
C 	C 	0.63457 0.39482 0.03319 -0.03200
C 	C 	0.64712 0.42903 0.00857 -0.11600
C 	C 	0.63381 0.48549 0.00560 0.18900
C 	C 	0.50403 0.44007 0.05955 0.01400
O 	O 	0.57270 0.36298 0.07436 -0.26500
H 	H 	0.64884 0.35430 0.03632 0.06900
O 	O 	0.65134 0.52390 0.98257 -0.28400
H 	H 	0.57745 0.53467 0.02103 0.07600
C 	C 	0.50762 0.48883 0.07852 0.11900
C 	C 	0.45019 0.49828 0.08251 -0.03200
C 	C 	0.39176 0.46326 0.06612 -0.11600
C 	C 	0.38320 0.40468 0.05141 0.19900
C 	C 	0.43947 0.39289 0.04827 -0.11000
O 	O 	0.56816 0.52986 0.09205 -0.26300
H 	H 	0.45498 0.54003 0.09553 0.05700
O 	O 	0.32221 0.36297 0.03822 -0.27800
H 	H 	0.43510 0.35207 0.03485 0.08500
H 	H 	0.69826 0.56508 0.98572 0.15500
H 	H 	0.59499 0.57291 0.08102 0.14700
H 	H 	0.32853 0.38503 0.02052 0.15700
H 	H 	0.60806 0.39115 0.08787 0.15900
C 	C 	0.86414 0.29608 0.85933 -0.04000
C 	C 	0.84871 0.28419 0.83221 0.02500
C 	C 	0.80747 0.30860 0.82030 -0.05700
C 	C 	0.77561 0.33785 0.83571 0.03300
C 	C 	0.78434 0.34180 0.86333 -0.08300
C 	C 	0.83228 0.32542 0.87473 0.01600
C 	C 	0.87012 0.24063 0.81673 0.02400
C 	C 	0.82927 0.16641 0.81766 -0.05300
C 	C 	0.85061 0.12394 0.80439 0.02700
C 	C 	0.91328 0.15605 0.78987 -0.07700
C 	C 	0.95287 0.23032 0.78826 0.02000
C 	C 	0.93159 0.27269 0.80157 -0.03800
C 	C 	0.80930 0.04761 0.80657 0.09800
C 	C 	0.97357 0.34902 0.79988 0.09700
C 	C 	0.91057 0.27592 0.87162 0.09300
C 	C 	0.73218 0.36157 0.82320 0.07700
N 	N 	0.77627 0.98647 0.80831 -0.11400
N 	N 	0.00715 0.41017 0.79853 -0.10700
N 	N 	0.69737 0.38053 0.81316 -0.10400
N 	N 	0.94777 0.25969 0.88141 -0.10800
H 	H 	0.84096 0.33081 0.89587 0.04200
H 	H 	0.79799 0.30218 0.79922 0.06200
H 	H 	0.78157 0.14182 0.82916 0.06000
H 	H 	0.00071 0.25507 0.77684 0.03800
C 	C 	0.16896 0.16865 0.87413 -0.03800
C 	C 	0.23589 0.17673 0.87662 0.02500
C 	C 	0.26922 0.16898 0.85437 -0.05700
C 	C 	0.23583 0.15138 0.82987 0.03000
C 	C 	0.16866 0.14271 0.82735 -0.08100
C 	C 	0.13585 0.15206 0.84948 0.01700
C 	C 	0.27283 0.19495 0.90225 0.02300
C 	C 	0.27974 0.14254 0.91599 -0.05600
C 	C 	0.33813 0.16210 0.93197 0.02300
C 	C 	0.39139 0.23361 0.93253 -0.07200
C 	C 	0.37446 0.28554 0.92507 0.01200
C 	C 	0.31614 0.26666 0.90918 -0.03600
C 	C 	0.34185 0.10960 0.94830 0.08000
C 	C 	0.30435 0.32132 0.89834 0.09700
C 	C 	0.13362 0.17634 0.89678 0.10000
C 	C 	0.26962 0.13908 0.80773 0.07600
N 	N 	0.34474 0.06745 0.96141 -0.09700
N 	N 	0.29485 0.36509 0.88964 -0.10800
N 	N 	0.29683 0.12905 0.79009 -0.10200
N 	N 	0.10533 0.18255 0.91493 -0.10500
H 	H 	0.08385 0.14459 0.84765 0.04800
H 	H 	0.32095 0.17573 0.85625 0.06000
H 	H 	0.24261 0.08690 0.91279 0.06000
H 	H 	0.41167 0.34117 0.92831 0.04700
C 	C 	0.76926 0.60404 0.84669 -0.03700
C 	C 	0.76571 0.66275 0.85661 0.02200
C 	C 	0.72309 0.65415 0.87841 -0.05600
C 	C 	0.68558 0.58786 0.89084 0.02700
C 	C 	0.69080 0.52963 0.88134 -0.07400
C 	C 	0.73156 0.53791 0.85898 0.01300
C 	C 	0.80603 0.73317 0.84399 0.02500
C 	C 	0.77774 0.74962 0.82223 -0.05800
C 	C 	0.81953 0.80876 0.80647 0.03200
C 	C 	0.89036 0.85316 0.81292 -0.08400
C 	C 	0.91759 0.83887 0.83558 0.01800
C 	C 	0.87575 0.77928 0.85119 -0.04000
C 	C 	0.79027 0.82127 0.78297 0.07100
C 	C 	0.90513 0.76470 0.87417 0.09500
C 	C 	0.81303 0.61180 0.82430 0.09900
C 	C 	0.64062 0.57960 0.91286 0.08400
N 	N 	0.76682 0.83125 0.76415 -0.11700
N 	N 	0.92862 0.75296 0.89258 -0.11200
N 	N 	0.60454 0.57299 0.93047 -0.09900
N 	N 	0.84819 0.61812 0.80640 -0.10700
H 	H 	0.73606 0.49333 0.85178 0.05400
H 	H 	0.71946 0.69912 0.88575 0.05700
H 	H 	0.72397 0.71427 0.81680 0.06000
H 	H 	0.97168 0.87346 0.84077 0.04200
