data_crystal

_cell_length_a 24.50508
_cell_length_b 22.55906
_cell_length_c 40.18745
_cell_angle_alpha 104.02850
_cell_angle_beta  115.95165
_cell_angle_gamma 111.52352

_symmetry_space_group_name_	'P 1'
_symmetry_space_group_name_H-M	'P 1'

loop_
_symmetry_equiv_pos_as_xyz
  x,y,z

loop_
_atom_site_label
_atom_site_type_symbol
_atom_site_fract_x
_atom_site_fract_y
_atom_site_fract_z
_atom_site_charge
C 	C 	0.74576 0.53307 0.97421 0.02600
C 	C 	0.79857 0.54049 0.01144 0.01700
C 	C 	0.78468 0.48208 0.01978 -0.04800
C 	C 	0.71875 0.41506 0.99047 0.09900
C 	C 	0.66517 0.40802 0.95342 -0.05600
C 	C 	0.67872 0.46689 0.94547 0.01500
N 	N 	0.70890 0.35298 0.99726 -0.13600
C 	C 	0.50784 0.22293 0.97700 0.02600
C 	C 	0.53523 0.18918 0.96099 0.01500
C 	C 	0.60064 0.23099 0.96713 -0.05100
C 	C 	0.63891 0.30788 0.98869 0.10000
C 	C 	0.61171 0.34108 0.00563 -0.04900
C 	C 	0.54580 0.29893 0.99886 0.02400
C 	C 	0.79137 0.24529 0.95137 0.02400
C 	C 	0.81847 0.27494 0.99422 0.02500
C 	C 	0.79166 0.31094 0.00911 -0.05200
C 	C 	0.73657 0.31644 0.98127 0.10100
C 	C 	0.70900 0.28631 0.93815 -0.05900
C 	C 	0.73661 0.25120 0.92341 0.01300
H 	H 	0.85100 0.59101 0.03341 0.09300
H 	H 	0.82616 0.48793 0.04830 0.09200
H 	H 	0.61377 0.35672 0.93058 0.07400
H 	H 	0.63786 0.46057 0.91648 0.08700
H 	H 	0.50609 0.13039 0.94408 0.08900
H 	H 	0.62136 0.20333 0.95544 0.07700
H 	H 	0.64179 0.39969 0.02404 0.09500
H 	H 	0.52450 0.32538 0.01094 0.10600
H 	H 	0.85944 0.26894 0.01583 0.09700
H 	H 	0.81295 0.33377 0.04224 0.09600
H 	H 	0.66479 0.28792 0.91600 0.07200
H 	H 	0.71436 0.22717 0.89012 0.07800
C 	C 	0.74817 0.51771 0.46921 0.02200
C 	C 	0.79405 0.52802 0.50943 0.01400
C 	C 	0.77615 0.47071 0.51852 -0.05400
C 	C 	0.71233 0.40261 0.48755 0.09600
C 	C 	0.66526 0.39288 0.44752 -0.05700
C 	C 	0.68378 0.44992 0.43827 0.01900
N 	N 	0.69730 0.34272 0.49666 -0.13900
C 	C 	0.49675 0.23579 0.48132 0.02400
C 	C 	0.53088 0.19874 0.47864 0.02300
C 	C 	0.59627 0.23334 0.48352 -0.04900
C 	C 	0.62732 0.30518 0.48967 0.10200
C 	C 	0.59534 0.34376 0.49579 -0.05000
C 	C 	0.53002 0.30883 0.49096 0.02000
C 	C 	0.75357 0.20334 0.44885 0.01400
C 	C 	0.79766 0.25368 0.49197 0.01600
C 	C 	0.77979 0.30057 0.50726 -0.05400
C 	C 	0.71747 0.29725 0.47972 0.09800
C 	C 	0.67427 0.24807 0.43618 -0.05600
C 	C 	0.69328 0.20246 0.42079 0.02400
H 	H 	0.84422 0.58008 0.53337 0.08100
H 	H 	0.81247 0.47870 0.54941 0.08100
H 	H 	0.61422 0.34167 0.42391 0.08700
H 	H 	0.64836 0.44135 0.40701 0.09000
H 	H 	0.50684 0.14313 0.47296 0.10700
H 	H 	0.62328 0.20473 0.48332 0.10200
H 	H 	0.62161 0.40105 0.50500 0.09200
H 	H 	0.50541 0.33871 0.49495 0.09800
H 	H 	0.84501 0.25543 0.51372 0.07200
H 	H 	0.81349 0.33853 0.54068 0.08100
H 	H 	0.62480 0.24319 0.41469 0.08500
H 	H 	0.65973 0.16462 0.38734 0.09000
C 	C 	0.32197 0.53622 0.98415 0.02300
C 	C 	0.35467 0.58944 0.02501 0.01700
C 	C 	0.39437 0.66313 0.03711 -0.04800
C 	C 	0.40268 0.68431 0.00875 0.10000
C 	C 	0.37247 0.63068 0.96833 -0.05100
C 	C 	0.33229 0.55704 0.95617 0.02000
N 	N 	0.44016 0.76073 0.02102 -0.14000
C 	C 	0.59905 0.82640 0.99661 0.02600
C 	C 	0.53121 0.81378 0.96875 0.02100
C 	C 	0.47861 0.79223 0.97646 -0.04800
C 	C 	0.49397 0.78425 0.01267 0.09900
C 	C 	0.56232 0.79815 0.04078 -0.04700
C 	C 	0.61471 0.81941 0.03291 0.01700
C 	C 	0.30917 0.84917 0.99781 0.02300
C 	C 	0.37809 0.88772 0.03589 0.02000
C 	C 	0.42129 0.85886 0.04294 -0.04500
C 	C 	0.39580 0.79096 0.01219 0.10000
C 	C 	0.32632 0.75226 0.97398 -0.04600
C 	C 	0.28301 0.78084 0.96724 0.02500
H 	H 	0.34863 0.57370 0.04719 0.08800
H 	H 	0.41809 0.70395 0.06839 0.08600
H 	H 	0.37853 0.64602 0.94608 0.08700
H 	H 	0.30836 0.51618 0.92484 0.08400
H 	H 	0.51909 0.82014 0.94097 0.09800
H 	H 	0.42585 0.78056 0.95402 0.09000
H 	H 	0.57467 0.79225 0.06869 0.08200
H 	H 	0.66731 0.82997 0.05486 0.08900
H 	H 	0.39841 0.94027 0.05983 0.09400
H 	H 	0.47445 0.88894 0.07243 0.08900
H 	H 	0.30635 0.70095 0.94930 0.08800
H 	H 	0.22964 0.75058 0.93784 0.09400
C 	C 	0.29027 0.53493 0.47566 0.02200
C 	C 	0.33350 0.58806 0.51814 0.01600
C 	C 	0.37936 0.66066 0.53066 -0.05000
C 	C 	0.38334 0.68067 0.50101 0.09800
C 	C 	0.34079 0.62694 0.45844 -0.05700
C 	C 	0.29463 0.55451 0.44595 0.01800
N 	N 	0.42951 0.75647 0.51440 -0.13800
C 	C 	0.58590 0.81030 0.48692 0.03300
C 	C 	0.55784 0.74583 0.48883 0.00700
C 	C 	0.50705 0.72826 0.49798 -0.04600
C 	C 	0.47992 0.77287 0.50273 0.09500
C 	C 	0.51157 0.83971 0.50300 -0.04200
C 	C 	0.56399 0.85798 0.49511 0.01600
C 	C 	0.30843 0.85534 0.49111 0.02500
C 	C 	0.36010 0.87468 0.53262 0.01600
C 	C 	0.39934 0.84158 0.54002 -0.04900
C 	C 	0.38861 0.79027 0.50613 0.10000
C 	C 	0.33841 0.77268 0.46457 -0.04600
C 	C 	0.29646 0.80275 0.45712 0.02500
H 	H 	0.33160 0.57305 0.54144 0.08700
H 	H 	0.41189 0.70152 0.56342 0.08500
H 	H 	0.34549 0.64087 0.43549 0.08500
H 	H 	0.26272 0.51347 0.41328 0.08400
H 	H 	0.57677 0.71015 0.48426 0.10500
H 	H 	0.49006 0.68085 0.50223 0.07800
H 	H 	0.49729 0.87852 0.51054 0.09700
H 	H 	0.58840 0.90980 0.49600 0.11100
H 	H 	0.36916 0.91464 0.55906 0.08900
H 	H 	0.43832 0.85591 0.57210 0.08600
H 	H 	0.33234 0.73638 0.43822 0.09100
H 	H 	0.25482 0.78540 0.42495 0.10100
Zn	Zn	0.16608 0.14143 0.98795 1.19300
Zn	Zn	0.04375 0.08602 0.90125 1.19900
O 	O 	0.04835 0.96778 0.84287 -0.40000
O 	O 	0.01320 0.04855 0.84065 -0.41200
O 	O 	0.04842 0.88436 0.90293 -0.43000
C 	C 	0.23818 0.11095 0.95393 0.30200
O 	O 	0.98137 0.98729 0.88917 -0.87100
C 	C 	0.16963 0.24139 0.95067 0.33900
O 	O 	0.23917 0.12497 0.98795 -0.41800
O 	O 	0.18528 0.10309 0.92030 -0.23900
O 	O 	0.06959 0.10325 0.95982 -0.76600
O 	O 	0.10421 0.98532 0.96420 -0.41400
O 	O 	0.10543 0.18850 0.91548 -0.40500
O 	O 	0.19887 0.23411 0.98465 -0.39200
Zn	Zn	0.85232 0.87569 0.91162 1.19600
Zn	Zn	0.98242 0.92416 0.99098 1.21200
Zn	Zn	0.00716 0.00525 0.94493 1.21600
C 	C 	0.85671 0.77420 0.94710 0.32700
C 	C 	0.81573 0.92402 0.96500 0.34200
O 	O 	0.91328 0.03259 0.92674 -0.41300
Zn	Zn	0.98227 0.05392 0.01480 1.20900
O 	O 	0.92633 0.82190 0.97689 -0.36400
O 	O 	0.82033 0.78275 0.91494 -0.38100
O 	O 	0.79458 0.90092 0.92572 -0.38500
O 	O 	0.88269 0.94805 0.99464 -0.42600
C 	C 	0.02989 0.01573 0.08067 0.31000
O 	O 	0.94518 0.90719 0.93058 -0.74200
C 	C 	0.90470 0.07671 0.94939 0.32100
O 	O 	0.01930 0.95803 0.05364 -0.34900
O 	O 	0.02858 0.06819 0.07208 -0.40100
O 	O 	0.93071 0.09256 0.98883 -0.41000
O 	O 	0.03254 0.02235 0.00027 -0.88900
Zn	Zn	0.00944 0.92625 0.87132 1.20000
C 	C 	0.02984 0.00533 0.82491 0.31900
C 	C 	0.09924 0.92627 0.94352 0.33800
H 	H 	0.08507 0.05028 0.02271 0.20300
H 	H 	0.92943 0.96724 0.86883 0.19000
Zn	Zn	0.14959 0.15660 0.49193 1.20400
Zn	Zn	0.02084 0.08744 0.39981 1.22300
O 	O 	0.04539 0.99227 0.34376 -0.42000
O 	O 	0.99212 0.05726 0.33978 -0.39600
O 	O 	0.04960 0.89375 0.39561 -0.43400
C 	C 	0.23257 0.12592 0.46798 0.32800
O 	O 	0.96930 0.98542 0.38667 -0.85200
C 	C 	0.13560 0.24656 0.44896 0.33300
O 	O 	0.23745 0.16497 0.50043 -0.35400
O 	O 	0.16883 0.08014 0.43175 -0.32400
O 	O 	0.05151 0.09914 0.45825 -0.73000
O 	O 	0.10186 0.98916 0.45857 -0.37500
O 	O 	0.07084 0.19208 0.41504 -0.35500
O 	O 	0.16486 0.24522 0.48501 -0.37700
Zn	Zn	0.85276 0.86142 0.40862 1.18900
Zn	Zn	0.98371 0.91064 0.48690 1.22000
Zn	Zn	0.99936 0.99817 0.44242 1.22500
C 	C 	0.86143 0.75738 0.44117 0.34400
C 	C 	0.81369 0.90063 0.46265 0.31100
O 	O 	0.89780 0.01153 0.42800 -0.42900
Zn	Zn	0.98077 0.03815 0.51536 1.20500
O 	O 	0.93027 0.80707 0.47189 -0.33400
O 	O 	0.82417 0.76656 0.40960 -0.40100
O 	O 	0.79406 0.88176 0.42376 -0.44600
O 	O 	0.88171 0.92912 0.49302 -0.39200
C 	C 	0.03767 0.99634 0.57893 0.36500
O 	O 	0.94566 0.89761 0.42702 -0.73700
C 	C 	0.89433 0.05852 0.45267 0.33900
O 	O 	0.02771 0.94166 0.55012 -0.34100
O 	O 	0.02986 0.04763 0.57156 -0.43000
O 	O 	0.92867 0.07865 0.49305 -0.45500
O 	O 	0.02964 0.01021 0.49763 -0.89000
Zn	Zn	0.00565 0.93616 0.36719 1.20100
C 	C 	0.01868 0.02551 0.32562 0.29500
C 	C 	0.09891 0.93284 0.43649 0.34000
H 	H 	0.08263 0.03934 0.51908 0.21300
H 	H 	0.91626 0.96042 0.36683 0.18800
C 	C 	0.05098 0.00430 0.72502 0.08800
N 	N 	0.04939 0.95221 0.73677 -0.08700
C 	C 	0.04194 0.95136 0.76830 0.13600
C 	C 	0.03586 0.00503 0.78983 -0.09300
C 	C 	0.03794 0.05938 0.77842 0.06800
C 	C 	0.04542 0.05904 0.74594 -0.05700
H 	H 	0.04059 0.90884 0.77655 0.06800
H 	H 	0.03418 0.10195 0.79474 0.06700
H 	H 	0.04596 0.10046 0.73672 0.09100
C 	C 	0.05337 0.99769 0.61904 -0.04000
C 	C 	0.02227 0.93263 0.61987 0.06600
C 	C 	0.02331 0.93441 0.65507 -0.00100
C 	C 	0.05624 0.00154 0.68951 0.06300
N 	N 	0.09031 0.06444 0.68921 -0.09300
C 	C 	0.08977 0.06389 0.65513 0.07000
H 	H 	0.99395 0.88075 0.59249 0.09400
H 	H 	0.99621 0.88394 0.65487 0.08600
H 	H 	0.11564 0.11491 0.65556 0.06200
C 	C 	0.04087 0.03013 0.19077 0.07900
N 	N 	0.99413 0.96572 0.15414 -0.08600
C 	C 	0.99296 0.95910 0.11922 0.11100
C 	C 	0.03946 0.01959 0.12003 -0.08800
C 	C 	0.08859 0.08596 0.15757 0.06000
C 	C 	0.08954 0.09130 0.19313 -0.06200
H 	H 	0.95388 0.90753 0.09032 0.06300
H 	H 	0.12490 0.13351 0.15894 0.05900
H 	H 	0.12657 0.14293 0.22200 0.08900
C 	C 	0.02720 0.03504 0.29298 -0.06800
C 	C 	0.09379 0.05821 0.29908 0.05500
C 	C 	0.09924 0.05878 0.26606 -0.05700
C 	C 	0.03771 0.03573 0.22700 0.08900
N 	N 	0.97358 0.01452 0.22188 -0.09800
C 	C 	0.96738 0.01454 0.25394 0.05000
H 	H 	0.14082 0.07454 0.32906 0.09300
H 	H 	0.15038 0.07524 0.27041 0.10700
H 	H 	0.91538 0.99628 0.24862 0.07300
C 	C 	0.27084 0.41263 0.45852 0.00900
C 	C 	0.24476 0.45775 0.46288 0.09000
C 	C 	0.17711 0.42972 0.45676 -0.12600
C 	C 	0.14107 0.35938 0.45130 0.08100
C 	C 	0.16906 0.31559 0.44899 -0.00200
C 	C 	0.23201 0.34053 0.44989 -0.07000
C 	C 	0.26039 0.29207 0.44439 0.76900
H 	H 	0.32225 0.43438 0.46276 0.09700
H 	H 	0.09225 0.33928 0.45000 0.11600
C 	C 	0.14503 0.47572 0.45804 0.79200
F 	F 	0.31014 0.31870 0.43556 -0.41700
F 	F 	0.20438 0.22281 0.41129 -0.46200
F 	F 	0.29360 0.28845 0.48118 -0.44500
F 	F 	0.14816 0.50824 0.43327 -0.42000
F 	F 	0.18323 0.52899 0.49919 -0.42500
F 	F 	0.07332 0.43415 0.44294 -0.40000
C 	C 	0.71208 0.85177 0.51221 0.01900
C 	C 	0.64314 0.83087 0.48003 0.09600
C 	C 	0.62937 0.82969 0.44180 -0.11300
C 	C 	0.68724 0.85765 0.43855 0.08800
C 	C 	0.75639 0.87670 0.47010 -0.01400
C 	C 	0.76787 0.86977 0.50672 -0.06200
C 	C 	0.83856 0.88229 0.54035 0.77700
H 	H 	0.72190 0.85308 0.54150 0.10100
H 	H 	0.67832 0.86384 0.41106 0.10000
C 	C 	0.55349 0.80047 0.40476 0.79400
F 	F 	0.83255 0.86066 0.56867 -0.43200
F 	F 	0.89158 0.95559 0.56293 -0.45600
F 	F 	0.85888 0.84247 0.52226 -0.46100
F 	F 	0.53470 0.85021 0.41286 -0.39200
F 	F 	0.50438 0.73524 0.39813 -0.42200
F 	F 	0.54875 0.78794 0.36783 -0.40400
C 	C 	0.21036 0.94356 0.44744 0.10700
C 	C 	0.15869 0.92226 0.45599 -0.01000
C 	C 	0.16149 0.88619 0.48040 -0.04500
C 	C 	0.21294 0.86710 0.49307 0.01200
C 	C 	0.26295 0.88607 0.48317 0.10600
C 	C 	0.26536 0.92965 0.46305 -0.12700
C 	C 	0.32490 0.95952 0.45703 0.81200
H 	H 	0.20751 0.97085 0.42851 0.07700
H 	H 	0.21298 0.83561 0.50959 0.11200
C 	C 	0.10893 0.86710 0.49225 0.76900
F 	F 	0.33055 0.01732 0.44939 -0.44900
F 	F 	0.31002 0.90587 0.42295 -0.42500
F 	F 	0.39095 0.98409 0.49285 -0.41800
F 	F 	0.03893 0.82234 0.45603 -0.43200
F 	F 	0.11773 0.93003 0.51601 -0.49000
F 	F 	0.11970 0.83146 0.51579 -0.39500
C 	C 	0.31169 0.41829 0.97192 0.00400
C 	C 	0.27934 0.45834 0.97120 0.09200
C 	C 	0.20727 0.42422 0.95886 -0.12800
C 	C 	0.17182 0.35254 0.95177 0.08000
C 	C 	0.20510 0.31324 0.95378 -0.01400
C 	C 	0.27393 0.34480 0.96141 -0.06200
C 	C 	0.30696 0.30030 0.95816 0.76900
H 	H 	0.36652 0.44472 0.98091 0.10100
H 	H 	0.11892 0.32770 0.94562 0.09600
C 	C 	0.16930 0.46501 0.95512 0.79100
F 	F 	0.36653 0.33609 0.95817 -0.42900
F 	F 	0.25682 0.23506 0.92094 -0.42000
F 	F 	0.32856 0.28687 0.99203 -0.44200
F 	F 	0.17762 0.49942 0.93192 -0.42700
F 	F 	0.19824 0.51633 0.99495 -0.41700
F 	F 	0.09595 0.41853 0.93498 -0.38900
C 	C 	0.70709 0.92496 0.00938 -0.00100
C 	C 	0.65514 0.85046 0.98888 0.10200
C 	C 	0.65690 0.79975 0.96124 -0.12200
C 	C 	0.70897 0.82541 0.95316 0.08600
C 	C 	0.76060 0.90003 0.97336 -0.00800
C 	C 	0.75979 0.95062 0.00173 -0.03700
C 	C 	0.81443 0.03176 0.02354 0.75400
H 	H 	0.70587 0.96292 0.03108 0.10800
H 	H 	0.70984 0.78732 0.93130 0.07900
C 	C 	0.60111 0.71869 0.93861 0.79500
F 	F 	0.80069 0.07209 0.04700 -0.42800
F 	F 	0.81202 0.05331 0.99380 -0.42600
F 	F 	0.88307 0.04746 0.05054 -0.46300
F 	F 	0.53468 0.70365 0.90819 -0.42700
F 	F 	0.59550 0.69683 0.96690 -0.40400
F 	F 	0.61934 0.67806 0.91904 -0.41500
C 	C 	0.21870 0.86732 0.00314 0.00300
C 	C 	0.26404 0.88024 0.98977 0.10000
C 	C 	0.26123 0.91683 0.96559 -0.13000
C 	C 	0.20807 0.93357 0.95187 0.07900
C 	C 	0.16001 0.91694 0.96323 -0.02500
C 	C 	0.16694 0.88617 0.99045 -0.05200
C 	C 	0.11769 0.87131 0.00478 0.76500
H 	H 	0.22238 0.84048 0.02231 0.11000
H 	H 	0.20252 0.95770 0.93133 0.08800
C 	C 	0.31360 0.93624 0.95351 0.79100
F 	F 	0.13446 0.84360 0.03239 -0.41100
F 	F 	0.04681 0.82144 0.97011 -0.42100
F 	F 	0.12431 0.93516 0.02519 -0.48700
F 	F 	0.30082 0.87351 0.92650 -0.42700
F 	F 	0.38387 0.97605 0.98933 -0.41600
F 	F 	0.30661 0.97744 0.93333 -0.41500
C 	C 	0.78016 0.04788 0.43479 0.08600
C 	C 	0.84051 0.07673 0.43390 -0.03400
C 	C 	0.85759 0.13536 0.42514 -0.06600
C 	C 	0.82321 0.17318 0.42607 0.00100
C 	C 	0.77016 0.15069 0.43350 0.09700
C 	C 	0.74380 0.08388 0.43405 -0.14000
C 	C 	0.68103 0.05426 0.43745 0.78100
H 	H 	0.76571 0.00112 0.43984 0.05800
H 	H 	0.84119 0.22298 0.42407 0.10300
C 	C 	0.91674 0.16158 0.41860 0.77200
F 	F 	0.65668 0.98385 0.43099 -0.39900
F 	F 	0.62387 0.05340 0.40736 -0.42400
F 	F 	0.70244 0.09747 0.47719 -0.44100
F 	F 	0.90823 0.10301 0.39084 -0.51300
F 	F 	0.98341 0.19787 0.45685 -0.47200
F 	F 	0.91490 0.20828 0.40185 -0.42700
C 	C 	0.77333 0.67956 0.45024 0.09100
C 	C 	0.82539 0.69021 0.44220 -0.00700
C 	C 	0.84600 0.63936 0.43832 -0.05700
C 	C 	0.81998 0.58334 0.44739 0.00500
C 	C 	0.77150 0.57546 0.45819 0.09400
C 	C 	0.74753 0.62378 0.45958 -0.12900
C 	C 	0.69545 0.61657 0.47155 0.79500
H 	H 	0.75496 0.71654 0.45068 0.09400
H 	H 	0.83835 0.54634 0.44679 0.10200
C 	C 	0.89899 0.64699 0.42712 0.77400
F 	F 	0.72365 0.61927 0.51056 -0.43200
F 	F 	0.63012 0.55102 0.44163 -0.43300
F 	F 	0.68269 0.67188 0.47395 -0.43000
F 	F 	0.96845 0.69861 0.46279 -0.37700
F 	F 	0.88526 0.66765 0.39609 -0.41200
F 	F 	0.89407 0.58183 0.41199 -0.40600
C 	C 	0.42767 0.19436 0.51001 0.02800
C 	C 	0.42739 0.19886 0.47577 0.10800
C 	C 	0.36129 0.16988 0.43696 -0.11000
C 	C 	0.29755 0.14403 0.43472 0.10700
C 	C 	0.29831 0.14309 0.46972 0.01100
C 	C 	0.36296 0.16279 0.50660 -0.04600
C 	C 	0.36416 0.15189 0.54270 0.77800
H 	H 	0.47851 0.21569 0.53941 0.10200
H 	H 	0.24758 0.12686 0.40617 0.10000
C 	C 	0.35913 0.17013 0.39863 0.79600
F 	F 	0.42148 0.14569 0.56569 -0.41200
F 	F 	0.30154 0.08913 0.52793 -0.44300
F 	F 	0.37174 0.21097 0.56937 -0.41800
F 	F 	0.39706 0.14186 0.39195 -0.42300
F 	F 	0.38957 0.24057 0.40504 -0.41500
F 	F 	0.28907 0.12844 0.36235 -0.43000
C 	C 	0.76777 0.12477 0.91307 0.02200
C 	C 	0.81431 0.20061 0.93507 0.09500
C 	C 	0.88623 0.23199 0.94747 -0.13500
C 	C 	0.91457 0.18801 0.94700 0.08100
C 	C 	0.87044 0.11319 0.93151 -0.01500
C 	C 	0.79478 0.08038 0.90902 -0.07600
C 	C 	0.74254 0.99881 0.88216 0.79600
H 	H 	0.71133 0.10039 0.90102 0.09200
H 	H 	0.97201 0.21274 0.96184 0.05900
C 	C 	0.93430 0.31268 0.96408 0.79400
F 	F 	0.68036 0.98254 0.84682 -0.41800
F 	F 	0.72399 0.97077 0.90521 -0.40800
F 	F 	0.77158 0.96563 0.86833 -0.46500
F 	F 	0.96527 0.34996 0.00668 -0.42800
F 	F 	0.89489 0.33815 0.94284 -0.41600
F 	F 	0.98879 0.32666 0.95853 -0.40800
C 	C 	0.78380 0.58488 0.93483 0.00700
C 	C 	0.76407 0.59127 0.96279 0.09800
C 	C 	0.76700 0.65507 0.98182 -0.12300
C 	C 	0.79673 0.71421 0.97569 0.09000
C 	C 	0.81949 0.70895 0.94923 -0.00900
C 	C 	0.81084 0.64304 0.92739 -0.04900
C 	C 	0.83235 0.63547 0.89717 0.77000
H 	H 	0.77998 0.53517 0.91989 0.10600
H 	H 	0.80365 0.76509 0.99218 0.07000
C 	C 	0.74106 0.66117 0.00983 0.79500
F 	F 	0.81703 0.56616 0.87771 -0.40800
F 	F 	0.90570 0.68423 0.91900 -0.39100
F 	F 	0.79506 0.64964 0.86601 -0.42100
F 	F 	0.78874 0.66700 0.04743 -0.43800
F 	F 	0.67323 0.60034 0.98982 -0.40800
F 	F 	0.73641 0.72164 0.01903 -0.41600
C 	C 	0.37410 0.14549 0.92871 0.02600
C 	C 	0.43747 0.17857 0.96913 0.10800
C 	C 	0.43286 0.17156 0.00201 -0.11800
C 	C 	0.36576 0.14457 0.99593 0.10400
C 	C 	0.30285 0.11812 0.95639 0.01700
C 	C 	0.30631 0.10899 0.92125 -0.03400
C 	C 	0.23964 0.05689 0.87616 0.76800
H 	H 	0.37758 0.14735 0.90296 0.10100
H 	H 	0.36288 0.14637 0.02226 0.08900
C 	C 	0.49945 0.19582 0.04408 0.79600
F 	F 	0.25760 0.02938 0.85064 -0.41800
F 	F 	0.20891 0.09298 0.86047 -0.41200
F 	F 	0.18969 0.99847 0.87402 -0.42300
F 	F 	0.53885 0.27063 0.06807 -0.42600
F 	F 	0.54224 0.17486 0.03802 -0.41800
F 	F 	0.48073 0.16505 0.06633 -0.41300
