data_crystal

_cell_length_a 26.20043
_cell_length_b 26.47584
_cell_length_c 43.29768
_cell_angle_alpha 95.45981
_cell_angle_beta  95.45819
_cell_angle_gamma 125.77411

_symmetry_space_group_name_	'P 1'
_symmetry_space_group_name_H-M	'P 1'

loop_
_symmetry_equiv_pos_as_xyz
  x,y,z

loop_
_atom_site_label
_atom_site_type_symbol
_atom_site_fract_x
_atom_site_fract_y
_atom_site_fract_z
_atom_site_charge
C 	C 	0.98475 0.05412 0.99181 0.02500
C 	C 	0.07881 0.05666 0.99017 0.02400
C 	C 	0.05037 0.08806 0.99113 -0.07200
H 	H 	0.07907 0.13859 0.99128 0.04800
C 	C 	0.99275 0.01932 0.46760 -0.06400
H 	H 	0.02004 0.06962 0.46730 0.04600
Cu	Cu	0.66062 0.26848 0.00323 0.92600
Cu	Cu	0.69031 0.26263 0.93182 0.86800
Cu	Cu	0.68645 0.36531 0.96163 0.89600
Cu	Cu	0.67490 0.39247 0.02931 0.89300
C 	C 	0.67972 0.30847 0.06969 0.29100
O 	O 	0.57035 0.23260 0.00918 -0.37000
C 	C 	0.64891 0.31683 0.89214 0.28600
O 	O 	0.71397 0.36683 0.00453 -0.63900
O 	O 	0.64047 0.27202 0.95865 -0.64200
O 	O 	0.69715 0.22077 0.99723 -0.37300
O 	O 	0.75745 0.28120 0.96328 -0.44100
O 	O 	0.68807 0.36248 0.06794 -0.38700
C 	C 	0.54561 0.26289 0.00429 0.28200
O 	O 	0.58181 0.32139 0.99969 -0.39000
O 	O 	0.69117 0.28099 0.04717 -0.36800
C 	C 	0.74574 0.24177 0.98256 0.28400
O 	O 	0.67062 0.36415 0.91588 -0.38700
O 	O 	0.64254 0.26503 0.89674 -0.42300
H 	H 	0.76101 0.39214 0.01109 0.16500
H 	H 	0.59427 0.24679 0.94954 0.17300
Cu	Cu	0.72186 0.31706 0.45863 0.92700
Cu	Cu	0.72257 0.27206 0.52638 0.86800
Cu	Cu	0.62320 0.28472 0.50079 0.89500
Cu	Cu	0.60077 0.31183 0.43728 0.89300
C 	C 	0.67022 0.29196 0.39262 0.28700
O 	O 	0.75733 0.40842 0.45709 -0.36200
C 	C 	0.67023 0.30942 0.56991 0.28800
O 	O 	0.62252 0.26471 0.45692 -0.64000
O 	O 	0.71723 0.32891 0.50384 -0.64100
O 	O 	0.76910 0.27939 0.46155 -0.37200
O 	O 	0.70381 0.21098 0.49156 -0.44200
O 	O 	0.64393 0.32029 0.40036 -0.38700
O 	O 	0.53097 0.23610 0.49515 -0.38300
C 	C 	0.49388 0.23499 0.47170 0.28500
C 	C 	0.72960 0.43295 0.46804 0.27800
O 	O 	0.67064 0.39539 0.47277 -0.39300
O 	O 	0.51811 0.27554 0.45215 -0.39400
O 	O 	0.70976 0.29183 0.41397 -0.36400
C 	C 	0.74479 0.22668 0.47253 0.28800
O 	O 	0.62359 0.29336 0.54673 -0.38600
O 	O 	0.72113 0.31382 0.56423 -0.42200
H 	H 	0.59531 0.21882 0.44792 0.16200
H 	H 	0.74383 0.37336 0.51528 0.17400
C 	C 	0.63511 0.32369 0.85946 -0.08900
C 	C 	0.66195 0.38413 0.85214 0.01100
C 	C 	0.65771 0.39142 0.82062 -0.06700
C 	C 	0.62698 0.33852 0.79612 0.02500
C 	C 	0.59662 0.27779 0.80348 -0.06700
C 	C 	0.60022 0.27035 0.83495 0.01100
C 	C 	0.63250 0.34713 0.76302 -0.00100
C 	C 	0.57755 0.31242 0.73917 -0.03900
C 	C 	0.58349 0.31207 0.70738 -0.03900
C 	C 	0.64440 0.34693 0.69921 -0.00100
C 	C 	0.69910 0.38508 0.72309 -0.03900
C 	C 	0.69323 0.38490 0.75483 -0.03900
C 	C 	0.65124 0.33800 0.66606 0.02600
C 	C 	0.62425 0.35318 0.64255 -0.06800
C 	C 	0.63041 0.34397 0.61112 0.01500
C 	C 	0.66381 0.31969 0.60300 -0.09100
C 	C 	0.69069 0.30453 0.62660 0.01300
C 	C 	0.68429 0.31347 0.65790 -0.06900
H 	H 	0.68814 0.42569 0.87072 0.03600
H 	H 	0.68023 0.43841 0.81522 0.04400
H 	H 	0.57231 0.23653 0.78479 0.04300
H 	H 	0.57760 0.22326 0.84020 0.03000
H 	H 	0.53040 0.28395 0.74522 0.03700
H 	H 	0.54092 0.28284 0.68914 0.03700
H 	H 	0.74630 0.41292 0.71703 0.03700
H 	H 	0.73598 0.41209 0.77300 0.03600
H 	H 	0.59874 0.37225 0.64862 0.04500
H 	H 	0.60970 0.35617 0.59319 0.03300
H 	H 	0.71587 0.28502 0.62064 0.02300
H 	H 	0.70464 0.30092 0.67581 0.04300
C 	C 	0.67429 0.28850 0.10054 -0.08500
C 	C 	0.63052 0.28652 0.11769 0.01400
C 	C 	0.62950 0.27395 0.14833 -0.06600
C 	C 	0.67248 0.26359 0.16219 0.02600
C 	C 	0.71496 0.26361 0.14473 -0.06700
C 	C 	0.71570 0.27575 0.11395 0.01600
C 	C 	0.67620 0.25763 0.19568 -0.00100
C 	C 	0.72747 0.30842 0.21844 -0.03800
C 	C 	0.72675 0.30667 0.25057 -0.03800
C 	C 	0.67488 0.25391 0.26022 -0.00000
C 	C 	0.62511 0.20178 0.23740 -0.03900
C 	C 	0.62565 0.20376 0.20525 -0.03900
C 	C 	0.66999 0.25574 0.29399 0.02600
C 	C 	0.61799 0.25075 0.30391 -0.06600
C 	C 	0.61676 0.25972 0.33608 0.01200
C 	C 	0.66790 0.27454 0.35875 -0.08500
C 	C 	0.71858 0.27668 0.34877 0.01400
C 	C 	0.71953 0.26725 0.31654 -0.06600
H 	H 	0.59799 0.29574 0.10745 0.02600
H 	H 	0.59646 0.27391 0.16163 0.04500
H 	H 	0.74822 0.25551 0.15523 0.04600
H 	H 	0.74974 0.27719 0.10095 0.03600
H 	H 	0.76673 0.35016 0.21125 0.03900
H 	H 	0.76540 0.34717 0.26796 0.03900
H 	H 	0.58522 0.16051 0.24458 0.03700
H 	H 	0.58605 0.16417 0.18782 0.03800
H 	H 	0.57938 0.24165 0.28671 0.04400
H 	H 	0.57668 0.25650 0.34339 0.02400
H 	H 	0.75813 0.28748 0.36591 0.04100
H 	H 	0.75949 0.27038 0.30912 0.04600
C 	C 	0.77257 0.19233 0.46881 -0.08600
C 	C 	0.73614 0.13149 0.45029 0.01100
C 	C 	0.75870 0.09490 0.44995 -0.06100
C 	C 	0.81929 0.11957 0.46779 0.01500
C 	C 	0.85407 0.17966 0.48794 -0.00200
C 	C 	0.83169 0.21657 0.48733 -0.01400
C 	C 	0.90878 0.20068 0.50973 -0.03500
C 	C 	0.92880 0.16246 0.51216 -0.05500
C 	C 	0.89740 0.10455 0.49127 0.03200
C 	C 	0.84428 0.08402 0.46776 -0.01600
C 	C 	0.82033 0.03119 0.44378 -0.02800
C 	C 	0.89555 0.01535 0.46916 0.01300
C 	C 	0.92067 0.06852 0.49263 -0.07000
H 	H 	0.68918 0.11158 0.43693 0.02700
H 	H 	0.72711 0.04631 0.43756 0.04200
H 	H 	0.85875 0.26288 0.50247 0.02100
H 	H 	0.93493 0.24615 0.52550 0.03200
H 	H 	0.97008 0.17879 0.52984 0.04000
H 	H 	0.78569 0.01903 0.42326 0.03400
H 	H 	0.96011 0.08331 0.51122 0.04600
C 	C 	0.09292 0.02827 0.46848 0.01500
C 	C 	0.11783 0.05496 0.44234 -0.05000
C 	C 	0.18341 0.08948 0.44243 -0.02800
C 	C 	0.22486 0.09551 0.46838 -0.01600
C 	C 	0.20019 0.07294 0.49576 0.03200
C 	C 	0.13415 0.03807 0.49533 -0.07000
C 	C 	0.24191 0.08712 0.52354 -0.05400
C 	C 	0.30783 0.12393 0.52455 -0.03500
C 	C 	0.33291 0.14382 0.49726 0.00100
C 	C 	0.29124 0.12676 0.46846 0.01400
C 	C 	0.31634 0.13826 0.44035 -0.05800
C 	C 	0.38230 0.17332 0.44157 0.00400
C 	C 	0.42411 0.19522 0.47053 -0.07600
C 	C 	0.39920 0.17929 0.49826 -0.01500
H 	H 	0.20187 0.11391 0.42309 0.03400
H 	H 	0.11489 0.01916 0.51595 0.04600
H 	H 	0.22333 0.07074 0.54466 0.04000
H 	H 	0.33943 0.13597 0.54651 0.03600
H 	H 	0.28513 0.11759 0.41749 0.04100
H 	H 	0.40087 0.18251 0.41983 0.02600
H 	H 	0.43128 0.19469 0.52059 0.04500
C 	C 	0.78378 0.21703 0.98561 -0.08300
C 	C 	0.77851 0.18264 0.00942 0.00500
C 	C 	0.81185 0.15646 0.01134 -0.06000
C 	C 	0.85363 0.16673 0.99019 0.01500
C 	C 	0.85637 0.19877 0.96523 -0.00200
C 	C 	0.82294 0.22511 0.96363 -0.01800
C 	C 	0.89021 0.20186 0.94136 -0.03500
C 	C 	0.91999 0.17222 0.94147 -0.05500
C 	C 	0.91988 0.14220 0.96646 0.03200
C 	C 	0.88972 0.14220 0.99198 -0.01500
C 	C 	0.89873 0.12030 0.01903 -0.02900
C 	C 	0.92962 0.09156 0.01883 -0.04900
C 	C 	0.95464 0.08689 0.99242 0.01300
C 	C 	0.95085 0.11327 0.96655 -0.06900
H 	H 	0.74740 0.17489 0.02611 0.04000
H 	H 	0.80206 0.12548 0.02808 0.04200
H 	H 	0.82593 0.25025 0.94469 0.02800
H 	H 	0.89200 0.22592 0.92213 0.03100
H 	H 	0.94411 0.17342 0.92224 0.03900
H 	H 	0.88510 0.12822 0.04071 0.03400
H 	H 	0.93500 0.07375 0.03946 0.04000
H 	H 	0.97192 0.11120 0.94651 0.04600
C 	C 	0.47681 0.23074 0.00295 -0.08200
C 	C 	0.43192 0.17171 0.98322 0.01000
C 	C 	0.36643 0.14302 0.98037 -0.06000
C 	C 	0.34506 0.17412 0.99679 0.01700
C 	C 	0.39034 0.23077 0.01896 -0.00200
C 	C 	0.45600 0.25977 0.02111 -0.01100
C 	C 	0.36949 0.25665 0.03943 -0.03300
C 	C 	0.30424 0.22644 0.03843 -0.05400
C 	C 	0.25878 0.17235 0.01550 0.03200
C 	C 	0.27904 0.14803 0.99319 -0.01500
C 	C 	0.23353 0.10093 0.96704 -0.02800
C 	C 	0.16847 0.07275 0.96563 -0.04900
C 	C 	0.14790 0.09209 0.98970 0.01300
C 	C 	0.19318 0.14297 0.01417 -0.07000
H 	H 	0.44775 0.14804 0.96999 0.02600
H 	H 	0.33283 0.09564 0.96668 0.04200
H 	H 	0.49087 0.30440 0.03723 0.02800
H 	H 	0.40395 0.29947 0.05674 0.03400
H 	H 	0.28903 0.24596 0.05517 0.04000
H 	H 	0.24829 0.08802 0.94717 0.03300
H 	H 	0.17736 0.15918 0.03229 0.04600
O 	O 	0.73722 0.45660 0.96712 -0.38400
C 	C 	0.73814 0.49352 0.99032 0.28700
O 	O 	0.70123 0.46972 0.01161 -0.39400
C 	C 	0.88558 0.82023 0.46683 0.01400
C 	C 	0.86270 0.79526 0.49366 -0.04900
C 	C 	0.83780 0.73242 0.49511 -0.02800
C 	C 	0.83318 0.69259 0.46899 -0.01500
C 	C 	0.85853 0.71884 0.44237 0.03200
C 	C 	0.88218 0.78159 0.44100 -0.06900
C 	C 	0.86341 0.68346 0.41823 -0.05300
C 	C 	0.84483 0.62295 0.42047 -0.03500
C 	C 	0.81688 0.59481 0.44580 0.00200
C 	C 	0.80775 0.62814 0.46953 0.01300
C 	C 	0.77048 0.59525 0.49194 -0.05700
C 	C 	0.74818 0.53280 0.49240 0.00300
C 	C 	0.76023 0.50112 0.46989 -0.07700
C 	C 	0.79506 0.53242 0.44682 -0.01700
H 	H 	0.86722 0.82554 0.51411 0.04000
H 	H 	0.82662 0.71674 0.51727 0.03400
H 	H 	0.90103 0.80143 0.42048 0.04700
H 	H 	0.88345 0.70367 0.39803 0.04000
H 	H 	0.85087 0.59720 0.40201 0.03700
H 	H 	0.75510 0.61598 0.50765 0.04100
H 	H 	0.71966 0.50831 0.50972 0.03100
H 	H 	0.80255 0.50725 0.42875 0.04500
C 	C 	0.77245 0.56149 0.98939 -0.07500
C 	C 	0.78034 0.58223 0.96040 0.00600
C 	C 	0.81021 0.64615 0.95934 -0.05800
C 	C 	0.83547 0.69111 0.98758 0.01400
C 	C 	0.82339 0.66935 0.01657 0.00000
C 	C 	0.79376 0.60511 0.01740 -0.01700
C 	C 	0.83902 0.71149 0.04424 -0.03500
C 	C 	0.86638 0.77491 0.04348 -0.05400
C 	C 	0.88251 0.79835 0.01550 0.03100
C 	C 	0.86981 0.75718 0.98754 -0.01400
C 	C 	0.89530 0.78355 0.96108 -0.02900
C 	C 	0.92716 0.84824 0.96155 -0.04800
H 	H 	0.76124 0.54846 0.93851 0.03800
H 	H 	0.80996 0.65950 0.93654 0.04200
H 	H 	0.78652 0.58894 0.03978 0.03400
H 	H 	0.82876 0.69477 0.06635 0.03400
H 	H 	0.87667 0.80637 0.06499 0.04000
H 	H 	0.89427 0.75533 0.94095 0.03400
H 	H 	0.13389 0.03563 0.94580 0.03900
C 	C 	0.84532 0.99681 0.44484 -0.04800
C 	C 	0.91411 0.86322 0.01555 -0.06900
H 	H 	0.94649 0.86779 0.94110 0.04000
C 	C 	0.92230 0.88902 0.46769 0.02000
H 	H 	0.84078 0.89049 0.46834 0.04700
H 	H 	0.01215 0.90289 0.46802 0.04600
C 	C 	0.93661 0.88817 0.98868 0.01300
H 	H 	0.92324 0.89465 0.03683 0.04600
C 	C 	0.89164 0.91831 0.46807 -0.06800
H 	H 	0.08636 0.04953 0.42201 0.04000
C 	C 	0.97575 0.95711 0.98998 0.02500
C 	C 	0.98829 0.92531 0.46791 -0.06300
H 	H 	0.89670 0.96216 0.99139 0.04900
H 	H 	0.06337 0.96700 0.98941 0.04900
H 	H 	0.82729 0.95719 0.42599 0.04000
C 	C 	0.94753 0.98861 0.99124 -0.07100
C 	C 	0.04140 0.99127 0.98980 -0.07200
C 	C 	0.92695 0.98368 0.46811 0.02000
C 	C 	0.02351 0.99034 0.46786 0.01600
