data_crystal

_cell_length_a 19.37164
_cell_length_b 27.73760
_cell_length_c 38.86467
_cell_angle_alpha 89.99997
_cell_angle_beta  76.97850
_cell_angle_gamma 90.00038

_symmetry_space_group_name_	'P 1'
_symmetry_space_group_name_H-M	'P 1'

loop_
_symmetry_equiv_pos_as_xyz
  x,y,z

loop_
_atom_site_label
_atom_site_type_symbol
_atom_site_fract_x
_atom_site_fract_y
_atom_site_fract_z
_atom_site_charge
Cu	Cu	0.50192 0.44624 0.17058 0.93200
Cu	Cu	0.60611 0.50724 0.20991 0.87200
Cu	Cu	0.47541 0.54866 0.19787 0.89700
Cu	Cu	0.35183 0.49616 0.18108 0.89800
C 	C 	0.37411 0.39088 0.17976 0.29000
O 	O 	0.48970 0.46147 0.12127 -0.35000
C 	C 	0.59743 0.61020 0.19975 0.28400
O 	O 	0.42546 0.48793 0.20531 -0.63800
O 	O 	0.55379 0.50677 0.17268 -0.64300
O 	O 	0.57292 0.40259 0.18379 -0.35600
O 	O 	0.57738 0.44723 0.23229 -0.42900
O 	O 	0.34462 0.42762 0.16706 -0.38100
O 	O 	0.39924 0.58743 0.22519 -0.37100
C 	C 	0.33339 0.58773 0.22111 0.29500
C 	C 	0.46605 0.50354 0.11315 0.28400
O 	O 	0.42643 0.53030 0.13783 -0.39300
O 	O 	0.30323 0.54828 0.21240 -0.38600
O 	O 	0.44312 0.38984 0.17727 -0.34900
C 	C 	0.59036 0.40690 0.21437 0.29600
O 	O 	0.53419 0.60675 0.19232 -0.36900
O 	O 	0.63873 0.57198 0.19848 -0.40700
H 	H 	0.41039 0.47792 0.23034 0.17100
H 	H 	0.57986 0.52017 0.14983 0.18700
Cu	Cu	0.49116 0.43600 0.79130 0.93100
Cu	Cu	0.38699 0.49473 0.75111 0.86900
Cu	Cu	0.50932 0.54083 0.76949 0.89800
Cu	Cu	0.63423 0.49244 0.78733 0.89800
C 	C 	0.62341 0.38632 0.78388 0.29300
O 	O 	0.49615 0.44770 0.84208 -0.35700
C 	C 	0.38294 0.59716 0.76658 0.28600
O 	O 	0.56560 0.48296 0.76034 -0.64000
O 	O 	0.43381 0.49422 0.79052 -0.64300
O 	O 	0.42749 0.39087 0.77384 -0.36200
O 	O 	0.42560 0.43793 0.72631 -0.42700
O 	O 	0.64724 0.42348 0.79886 -0.38000
O 	O 	0.58245 0.58487 0.74581 -0.37600
C 	C 	0.64862 0.58647 0.74947 0.29600
C 	C 	0.51448 0.48970 0.85313 0.28300
O 	O 	0.55248 0.52005 0.83053 -0.38900
O 	O 	0.68028 0.54821 0.75914 -0.38500
O 	O 	0.55574 0.38287 0.78349 -0.34900
C 	C 	0.41668 0.39565 0.74191 0.29500
O 	O 	0.44456 0.59564 0.77586 -0.36900
O 	O 	0.34659 0.55745 0.76399 -0.40500
H 	H 	0.58421 0.47555 0.73502 0.17300
H 	H 	0.40394 0.50469 0.81344 0.18300
Cu	Cu	0.92706 0.94727 0.30523 0.93100
Cu	Cu	0.79736 0.00687 0.28363 0.87800
Cu	Cu	0.94285 0.05111 0.27918 0.90400
Cu	Cu	0.07487 0.99931 0.28752 0.89300
C 	C 	0.05608 0.89262 0.28878 0.28000
O 	O 	0.95306 0.95808 0.35225 -0.35400
C 	C 	0.81265 0.10839 0.28659 0.28500
O 	O 	0.99422 0.99153 0.26822 -0.62200
O 	O 	0.87222 0.00752 0.30964 -0.63800
O 	O 	0.85214 0.90354 0.29622 -0.36700
O 	O 	0.82340 0.95173 0.25436 -0.42200
O 	O 	0.08867 0.93011 0.29879 -0.38000
O 	O 	0.01339 0.09009 0.24798 -0.38000
C 	C 	0.08078 0.09284 0.24935 0.29200
C 	C 	0.97807 0.99956 0.36057 0.28700
O 	O 	0.00923 0.02919 0.33545 -0.39800
O 	O 	0.11553 0.05480 0.25713 -0.38100
O 	O 	0.98688 0.89258 0.29180 -0.34300
C 	C 	0.82583 0.90875 0.26816 0.29300
O 	O 	0.88151 0.10840 0.28525 -0.36600
O 	O 	0.77291 0.07113 0.29932 -0.40100
H 	H 	0.00413 0.98217 0.24300 0.15900
H 	H 	0.85619 0.01954 0.33413 0.17900
Cu	Cu	0.05980 0.94302 0.66304 0.92800
Cu	Cu	0.18564 0.00004 0.69117 0.87700
Cu	Cu	0.03883 0.04009 0.70064 0.89300
Cu	Cu	0.90924 0.99290 0.68265 0.89700
C 	C 	0.93174 0.88766 0.67470 0.30400
O 	O 	0.03768 0.96225 0.61633 -0.35300
C 	C 	0.16600 0.10230 0.68965 0.29100
O 	O 	0.98780 0.98038 0.70282 -0.63000
O 	O 	0.11126 0.00383 0.66543 -0.64300
O 	O 	0.13487 0.89763 0.67026 -0.35900
O 	O 	0.16049 0.94091 0.71554 -0.43400
O 	O 	0.89911 0.92587 0.66584 -0.37800
O 	O 	0.96423 0.07241 0.73399 -0.36800
C 	C 	0.90026 0.07932 0.72852 0.28900
C 	C 	0.01150 0.00490 0.61155 0.27900
O 	O 	0.97781 0.03002 0.63885 -0.37700
O 	O 	0.86571 0.04413 0.71675 -0.37700
O 	O 	0.00142 0.88661 0.66971 -0.36500
C 	C 	0.16283 0.90021 0.69803 0.28800
O 	O 	0.09923 0.09513 0.70617 -0.39100
O 	O 	0.20917 0.06580 0.67884 -0.40400
H 	H 	0.97577 0.96558 0.72661 0.17000
H 	H 	0.12599 0.02107 0.64265 0.18100
C 	C 	0.00845 0.97627 0.45168 -0.05000
C 	C 	0.99624 0.02220 0.46741 0.03200
C 	C 	0.97801 0.06092 0.44797 -0.05500
C 	C 	0.97078 0.05398 0.41320 0.02200
C 	C 	0.98384 0.00804 0.39734 -0.06200
C 	C 	0.00278 0.96955 0.41678 -0.00700
C 	C 	0.99949 0.02935 0.50479 0.04100
C 	C 	0.06571 0.03040 0.51375 -0.07700
C 	C 	0.07034 0.02532 0.54902 0.03900
C 	C 	0.00805 0.02002 0.57569 -0.09900
C 	C 	0.94176 0.02381 0.56707 0.03600
C 	C 	0.93713 0.02811 0.53176 -0.04900
C 	C 	0.13911 0.02534 0.55761 0.06600
C 	C 	0.86827 0.02917 0.52329 0.09700
C 	C 	0.02583 0.93564 0.47142 0.09100
C 	C 	0.94710 0.09357 0.39461 0.07600
N 	N 	0.19422 0.02536 0.56448 -0.11000
N 	N 	0.81313 0.03002 0.51648 -0.11300
N 	N 	0.92810 0.12527 0.37972 -0.10900
N 	N 	0.03975 0.90314 0.48726 -0.11100
H 	H 	0.01325 0.93428 0.40465 0.04900
H 	H 	0.96797 0.09615 0.46019 0.05800
H 	H 	0.11368 0.03271 0.49307 0.06000
H 	H 	0.89375 0.02090 0.58768 0.03000
C 	C 	0.77604 0.68990 0.74746 -0.03900
C 	C 	0.77239 0.71313 0.71565 0.02400
C 	C 	0.73000 0.69372 0.69425 -0.05800
C 	C 	0.69036 0.65183 0.70452 0.02900
C 	C 	0.69185 0.62956 0.73710 -0.07900
C 	C 	0.73548 0.64853 0.75811 0.01300
C 	C 	0.81240 0.75811 0.70466 0.02200
C 	C 	0.87572 0.75618 0.67876 -0.05600
C 	C 	0.91470 0.79826 0.66812 0.02600
C 	C 	0.89088 0.84280 0.68424 -0.07900
C 	C 	0.82684 0.84470 0.70972 0.01100
C 	C 	0.78730 0.80276 0.71979 -0.03800
C 	C 	0.97720 0.79564 0.63972 0.10600
C 	C 	0.72085 0.80582 0.74558 0.09400
C 	C 	0.82134 0.70833 0.76930 0.09500
C 	C 	0.65071 0.63097 0.68088 0.07900
N 	N 	0.02726 0.79351 0.61696 -0.11200
N 	N 	0.66761 0.80822 0.76623 -0.11000
N 	N 	0.61896 0.61429 0.66191 -0.11300
N 	N 	0.85763 0.72313 0.78677 -0.11000
H 	H 	0.73742 0.63122 0.78291 0.03900
H 	H 	0.72812 0.71120 0.66950 0.05700
H 	H 	0.89437 0.72190 0.66671 0.05800
H 	H 	0.80800 0.87889 0.72186 0.03100
C 	C 	0.73626 0.28012 0.79735 -0.03900
C 	C 	0.74767 0.25733 0.76412 0.02300
C 	C 	0.71995 0.27781 0.73711 -0.05500
C 	C 	0.68071 0.32061 0.74302 0.02800
C 	C 	0.66780 0.34278 0.77653 -0.07600
C 	C 	0.69630 0.32260 0.80341 0.01500
C 	C 	0.78867 0.21191 0.75731 0.02300
C 	C 	0.75536 0.16802 0.76870 -0.05700
C 	C 	0.79222 0.12444 0.76109 0.02700
C 	C 	0.86273 0.12462 0.74089 -0.07700
C 	C 	0.89681 0.16873 0.73080 0.01000
C 	C 	0.86026 0.21228 0.73895 -0.03800
C 	C 	0.75839 0.08010 0.77539 0.08200
C 	C 	0.89654 0.25722 0.72837 0.09500
C 	C 	0.76568 0.26023 0.82529 0.09600
C 	C 	0.65482 0.34197 0.71443 0.07400
N 	N 	0.73124 0.04460 0.78687 -0.10600
N 	N 	0.92557 0.29324 0.71991 -0.10900
N 	N 	0.63399 0.35908 0.69156 -0.11200
N 	N 	0.78927 0.24427 0.84765 -0.10800
H 	H 	0.68669 0.33972 0.82915 0.04700
H 	H 	0.72929 0.26049 0.71144 0.05600
H 	H 	0.70077 0.16785 0.78358 0.05800
H 	H 	0.95141 0.16905 0.71591 0.04400
C 	C 	0.29537 0.32650 0.69601 -0.04100
C 	C 	0.31309 0.27850 0.70218 0.02300
C 	C 	0.37040 0.26911 0.71761 -0.05900
C 	C 	0.40690 0.30700 0.72934 0.03000
C 	C 	0.38618 0.35523 0.72535 -0.08600
C 	C 	0.33207 0.36459 0.70749 0.01200
C 	C 	0.26722 0.23804 0.69643 0.02200
C 	C 	0.28516 0.21125 0.66510 -0.05900
C 	C 	0.24944 0.16820 0.66159 0.02600
C 	C 	0.19627 0.15117 0.69010 -0.08300
C 	C 	0.17515 0.17985 0.72043 0.01000
C 	C 	0.21020 0.22311 0.72369 -0.04000
C 	C 	0.26625 0.14254 0.62840 0.07500
C 	C 	0.18858 0.25144 0.75549 0.09200
C 	C 	0.23844 0.33692 0.67871 0.09000
C 	C 	0.46506 0.29585 0.74560 0.08400
N 	N 	0.27971 0.12200 0.60181 -0.10700
N 	N 	0.17132 0.27418 0.78094 -0.11300
N 	N 	0.51136 0.28641 0.75871 -0.10000
N 	N 	0.19279 0.34523 0.66487 -0.11400
H 	H 	0.31671 0.40149 0.70375 0.02500
H 	H 	0.38489 0.23210 0.72168 0.05500
H 	H 	0.32781 0.22345 0.64375 0.05600
H 	H 	0.13309 0.16760 0.74206 0.04400
C 	C 	0.36458 0.72604 0.73838 -0.03800
C 	C 	0.29033 0.73184 0.74635 0.02100
C 	C 	0.24690 0.69512 0.76431 -0.05600
C 	C 	0.27669 0.65226 0.77344 0.02400
C 	C 	0.35071 0.64477 0.76270 -0.07500
C 	C 	0.39426 0.68245 0.74615 0.00800
C 	C 	0.25743 0.77514 0.73421 0.02200
C 	C 	0.26174 0.78164 0.69801 -0.05800
C 	C 	0.23295 0.82278 0.68573 0.02600
C 	C 	0.19575 0.85692 0.71011 -0.08500
C 	C 	0.19091 0.85005 0.74642 0.01000
C 	C 	0.22230 0.80981 0.75850 -0.04100
C 	C 	0.24515 0.83078 0.64810 0.07900
C 	C 	0.21925 0.80477 0.79581 0.09100
C 	C 	0.41067 0.76472 0.72230 0.09200
C 	C 	0.23146 0.61753 0.79540 0.08100
N 	N 	0.25500 0.83711 0.61795 -0.10400
N 	N 	0.21683 0.80071 0.82569 -0.11200
N 	N 	0.19516 0.58976 0.81302 -0.11100
N 	N 	0.44756 0.79571 0.70942 -0.11300
H 	H 	0.45123 0.67743 0.73863 0.04800
H 	H 	0.18988 0.70001 0.77125 0.05600
H 	H 	0.28904 0.75508 0.67930 0.05600
H 	H 	0.16279 0.87612 0.76528 0.03900
C 	C 	0.21115 0.69306 0.21974 -0.03800
C 	C 	0.21003 0.71490 0.25263 0.02300
C 	C 	0.24565 0.69303 0.27618 -0.05800
C 	C 	0.28396 0.65038 0.26680 0.03200
C 	C 	0.28853 0.63011 0.23302 -0.07700
C 	C 	0.25080 0.65107 0.21002 0.01200
C 	C 	0.17172 0.76077 0.26263 0.02300
C 	C 	0.10610 0.76013 0.28686 -0.06100
C 	C 	0.06839 0.80299 0.29631 0.03300
C 	C 	0.09567 0.84702 0.28050 -0.07800
C 	C 	0.16205 0.84765 0.25679 0.01000
C 	C 	0.20048 0.80493 0.24809 -0.03900
C 	C 	0.00357 0.80169 0.32337 0.06800
C 	C 	0.26960 0.80670 0.22441 0.09400
C 	C 	0.17167 0.71352 0.19587 0.09300
C 	C 	0.31641 0.62691 0.29236 0.08300
N 	N 	0.95167 0.80062 0.34503 -0.09000
N 	N 	0.32497 0.80806 0.20544 -0.11100
N 	N 	0.34242 0.60812 0.31284 -0.11000
N 	N 	0.14003 0.72994 0.17677 -0.11200
H 	H 	0.25306 0.63497 0.18434 0.03600
H 	H 	0.24339 0.70924 0.30181 0.05600
H 	H 	0.08467 0.72624 0.29855 0.05600
H 	H 	0.18366 0.88146 0.24503 0.03400
C 	C 	0.72746 0.79133 0.26629 -0.04000
C 	C 	0.72711 0.78706 0.23017 0.02300
C 	C 	0.75982 0.82262 0.20635 -0.05700
C 	C 	0.79391 0.86188 0.21810 0.02700
C 	C 	0.79232 0.86699 0.25452 -0.08400
C 	C 	0.75902 0.83143 0.27830 0.01200
C 	C 	0.69334 0.74495 0.21706 0.02100
C 	C 	0.61936 0.74063 0.22577 -0.05500
C 	C 	0.58670 0.69759 0.21920 0.02200
C 	C 	0.62853 0.65871 0.20235 -0.07400
C 	C 	0.70222 0.66492 0.19086 0.00900
C 	C 	0.73482 0.70734 0.19867 -0.03800
C 	C 	0.51074 0.69337 0.23094 0.08200
C 	C 	0.81108 0.71135 0.18869 0.09300
C 	C 	0.69648 0.75427 0.29113 0.09300
C 	C 	0.83332 0.89514 0.19241 0.08000
N 	N 	0.44984 0.69036 0.24038 -0.10100
N 	N 	0.87217 0.71460 0.18072 -0.10700
N 	N 	0.86490 0.92173 0.17179 -0.10700
N 	N 	0.67165 0.72456 0.31099 -0.11300
H 	H 	0.75776 0.83496 0.30623 0.04600
H 	H 	0.76012 0.81910 0.17851 0.05800
H 	H 	0.58737 0.77007 0.23920 0.05500
H 	H 	0.73451 0.63608 0.17678 0.04700
C 	C 	0.76770 0.24093 0.28484 -0.03900
C 	C 	0.71694 0.24064 0.26392 0.02300
C 	C 	0.69618 0.19684 0.25143 -0.05700
C 	C 	0.72675 0.15346 0.25881 0.02500
C 	C 	0.77798 0.15362 0.27958 -0.07800
C 	C 	0.79777 0.19747 0.29267 0.01600
C 	C 	0.68833 0.28624 0.25305 0.02400
C 	C 	0.71918 0.30612 0.22001 -0.05900
C 	C 	0.68868 0.34630 0.20746 0.02800
C 	C 	0.62628 0.36685 0.22812 -0.08600
C 	C 	0.59730 0.34832 0.26187 0.01600
C 	C 	0.62763 0.30790 0.27431 -0.04000
C 	C 	0.72264 0.36689 0.17374 0.07000
C 	C 	0.59579 0.28855 0.30873 0.09600
C 	C 	0.78951 0.28569 0.29816 0.09700
C 	C 	0.70759 0.10924 0.24363 0.05900
N 	N 	0.74984 0.38339 0.14674 -0.10700
N 	N 	0.57033 0.27302 0.33631 -0.11100
N 	N 	0.69225 0.07384 0.23146 -0.12300
N 	N 	0.80694 0.32157 0.30882 -0.11000
H 	H 	0.83675 0.19776 0.30881 0.05100
H 	H 	0.65728 0.19670 0.23523 0.05800
H 	H 	0.76646 0.28983 0.20387 0.05900
H 	H 	0.55034 0.36478 0.27815 0.04600
C 	C 	0.13904 0.22291 0.24027 -0.04000
C 	C 	0.20367 0.21953 0.21496 0.02200
C 	C 	0.22546 0.17498 0.19918 -0.05800
C 	C 	0.18420 0.13361 0.20897 0.02800
C 	C 	0.12116 0.13654 0.23558 -0.07900
C 	C 	0.09821 0.18146 0.25044 0.01000
C 	C 	0.24927 0.26250 0.20503 0.02200
C 	C 	0.29397 0.27732 0.22682 -0.05600
C 	C 	0.33551 0.31891 0.21869 0.02400
C 	C 	0.33320 0.34575 0.18808 -0.07700
C 	C 	0.28936 0.33031 0.16595 0.01200
C 	C 	0.24728 0.28904 0.17434 -0.03900
C 	C 	0.37829 0.33474 0.24257 0.07400
C 	C 	0.20152 0.27446 0.15156 0.09300
C 	C 	0.11432 0.26878 0.25591 0.09100
C 	C 	0.20552 0.08882 0.19068 0.08000
N 	N 	0.41251 0.34743 0.26171 -0.11300
N 	N 	0.16485 0.26274 0.13333 -0.11200
N 	N 	0.22261 0.05296 0.17601 -0.10800
N 	N 	0.09456 0.30554 0.26843 -0.11500
H 	H 	0.04922 0.18397 0.27045 0.04000
H 	H 	0.27443 0.17260 0.17916 0.05800
H 	H 	0.29550 0.25686 0.25043 0.05500
H 	H 	0.28782 0.35057 0.14225 0.04700
C 	C 	0.41714 0.52269 0.02585 -0.04000
C 	C 	0.48440 0.52214 0.00250 0.02300
C 	C 	0.54560 0.52294 0.01611 -0.05600
C 	C 	0.54033 0.51951 0.05256 0.02800
C 	C 	0.47305 0.51633 0.07576 -0.08000
C 	C 	0.41184 0.52018 0.06234 0.01500
C 	C 	0.49126 0.51381 0.96423 0.02200
C 	C 	0.48108 0.55215 0.94236 -0.05700
C 	C 	0.48638 0.54459 0.90617 0.02500
C 	C 	0.50430 0.49841 0.89146 -0.08000
C 	C 	0.51395 0.46010 0.91352 0.01000
C 	C 	0.50690 0.46744 0.94973 -0.03900
C 	C 	0.47040 0.58376 0.88473 0.07400
C 	C 	0.51522 0.42707 0.97195 0.09500
C 	C 	0.35334 0.52386 0.01251 0.09200
C 	C 	0.60414 0.51896 0.06591 0.07100
N 	N 	0.45757 0.61512 0.86754 -0.10600
N 	N 	0.52186 0.39478 0.98978 -0.10800
N 	N 	0.65536 0.51851 0.07653 -0.11300
N 	N 	0.30227 0.52480 0.00178 -0.11200
H 	H 	0.36003 0.51878 0.08022 0.03300
H 	H 	0.59737 0.52379 0.99817 0.05700
H 	H 	0.46799 0.58768 0.95363 0.05700
H 	H 	0.52762 0.42456 0.90238 0.04900
