data_crystal

_cell_length_a 35.16122
_cell_length_b 35.92483
_cell_length_c 35.07692
_cell_angle_alpha 95.57524
_cell_angle_beta  95.57422
_cell_angle_gamma 125.39403

_symmetry_space_group_name_	'P 1'
_symmetry_space_group_name_H-M	'P 1'

loop_
_symmetry_equiv_pos_as_xyz
  x,y,z

loop_
_atom_site_label
_atom_site_type_symbol
_atom_site_fract_x
_atom_site_fract_y
_atom_site_fract_z
_atom_site_charge
C 	C 	0.98410 0.03063 0.99248 0.05700
C 	C 	0.03169 0.05606 0.98802 -0.09000
C 	C 	0.05312 0.03350 0.98270 0.05700
C 	C 	0.02701 0.98560 0.98191 -0.09100
C 	C 	0.97950 0.96016 0.98638 0.05600
C 	C 	0.95800 0.98265 0.99168 -0.09100
H 	H 	0.05190 0.09318 0.98862 0.05600
H 	H 	0.04364 0.96816 0.97783 0.05600
H 	H 	0.92116 0.96293 0.99505 0.05600
C 	C 	0.93993 0.98697 0.44039 0.04800
C 	C 	0.91354 0.93892 0.43961 -0.08500
C 	C 	0.93675 0.91774 0.44188 0.05000
C 	C 	0.98614 0.94455 0.44494 -0.08300
C 	C 	0.01244 0.99243 0.44570 0.04600
C 	C 	0.98937 0.01365 0.44343 -0.08100
H 	H 	0.87529 0.91822 0.43729 0.05500
H 	H 	0.00407 0.92815 0.44668 0.05400
H 	H 	0.00979 0.05079 0.44407 0.05300
Cu	Cu	0.66334 0.27680 0.99775 0.92900
Cu	Cu	0.70753 0.27744 0.91935 0.87100
Cu	Cu	0.69529 0.35051 0.94658 0.89800
Cu	Cu	0.66045 0.36207 0.01870 0.89400
C 	C 	0.67124 0.31250 0.07741 0.29100
O 	O 	0.59323 0.24832 0.99227 -0.36300
C 	C 	0.68666 0.31803 0.86296 0.29300
O 	O 	0.70114 0.34900 0.00111 -0.64100
O 	O 	0.66211 0.28195 0.94204 -0.64100
O 	O 	0.69272 0.24324 0.99989 -0.37300
O 	O 	0.74874 0.29018 0.96584 -0.44300
O 	O 	0.64967 0.33043 0.06456 -0.38500
O 	O 	0.73027 0.41744 0.95517 -0.38100
C 	C 	0.72319 0.44201 0.97996 0.30800
C 	C 	0.57504 0.26732 0.97567 0.30200
O 	O 	0.60302 0.31059 0.97112 -0.39200
O 	O 	0.68834 0.42205 0.99985 -0.39400
O 	O 	0.67450 0.28413 0.05341 -0.35600
C 	C 	0.73381 0.26027 0.98938 0.31100
O 	O 	0.70152 0.35327 0.89134 -0.38300
O 	O 	0.68163 0.28029 0.87037 -0.41900
H 	H 	0.73422 0.36917 0.01591 0.16400
H 	H 	0.63006 0.26304 0.92541 0.17300
Cu	Cu	0.71423 0.32465 0.44218 0.92700
Cu	Cu	0.72301 0.29954 0.52861 0.87100
Cu	Cu	0.64174 0.29946 0.49533 0.89800
Cu	Cu	0.61978 0.31454 0.41445 0.89600
C 	C 	0.68230 0.31539 0.36135 0.29500
O 	O 	0.74000 0.39098 0.43835 -0.37200
C 	C 	0.68030 0.32409 0.58033 0.29400
O 	O 	0.64062 0.28469 0.44116 -0.63900
O 	O 	0.71196 0.33544 0.49806 -0.64100
O 	O 	0.75084 0.29823 0.44560 -0.37400
O 	O 	0.70873 0.25214 0.48769 -0.44300
O 	O 	0.64128 0.30770 0.36519 -0.38200
O 	O 	0.57322 0.26091 0.48881 -0.38100
C 	C 	0.54517 0.26140 0.46135 0.30700
C 	C 	0.71667 0.40800 0.44633 0.30500
O 	O 	0.67338 0.38086 0.45289 -0.39000
O 	O 	0.56255 0.29246 0.43846 -0.39300
O 	O 	0.70419 0.30600 0.38710 -0.36400
C 	C 	0.73623 0.26184 0.46187 0.30800
O 	O 	0.64268 0.30371 0.55201 -0.38600
O 	O 	0.72016 0.33136 0.57375 -0.41900
H 	H 	0.62232 0.25093 0.43092 0.16600
H 	H 	0.72961 0.36854 0.51047 0.17300
C 	C 	0.65400 0.34178 0.76672 -0.07300
C 	C 	0.67960 0.33358 0.74344 0.01300
C 	C 	0.70868 0.32188 0.75989 -0.00700
C 	C 	0.71113 0.31758 0.79906 -0.00300
C 	C 	0.68467 0.32462 0.82219 -0.09400
C 	C 	0.65602 0.33697 0.80590 0.05800
C 	C 	0.67328 0.33405 0.70125 0.01300
S 	S 	0.74133 0.31144 0.73144 -0.04900
H 	H 	0.73349 0.30848 0.81156 0.02900
S 	S 	0.62064 0.34405 0.83350 -0.05000
H 	H 	0.63146 0.35059 0.75404 0.05400
C 	C 	0.63774 0.29301 0.67447 -0.00700
C 	C 	0.63839 0.29119 0.63455 -0.00400
C 	C 	0.67444 0.32987 0.62100 -0.09500
C 	C 	0.70754 0.37211 0.64747 0.05800
C 	C 	0.70673 0.37398 0.68744 -0.07300
S 	S 	0.59371 0.24301 0.69077 -0.04200
H 	H 	0.61221 0.25894 0.61419 0.03800
S 	S 	0.74957 0.42292 0.63093 -0.05600
H 	H 	0.73333 0.40595 0.70794 0.05300
H 	H 	0.57745 0.30196 0.83014 0.03500
H 	H 	0.61043 0.21791 0.69916 0.03200
H 	H 	0.79009 0.42575 0.63045 0.03700
H 	H 	0.71327 0.26575 0.71312 0.03100
C 	C 	0.73121 0.33457 0.18118 -0.07200
C 	C 	0.69264 0.31699 0.20049 0.01300
C 	C 	0.64685 0.29670 0.17906 -0.00500
C 	C 	0.64025 0.29487 0.13879 -0.00200
C 	C 	0.67887 0.31304 0.11950 -0.08800
C 	C 	0.72455 0.33257 0.14079 0.05300
C 	C 	0.70054 0.32107 0.24331 0.01300
S 	S 	0.59753 0.27340 0.20236 -0.03800
H 	H 	0.60500 0.27938 0.12242 0.04400
S 	S 	0.77382 0.35579 0.11745 -0.05300
H 	H 	0.76641 0.35007 0.19762 0.05200
C 	C 	0.69451 0.28431 0.26010 -0.00600
C 	C 	0.69218 0.28441 0.29973 -0.00100
C 	C 	0.69555 0.32077 0.32271 -0.08800
C 	C 	0.70566 0.35938 0.30665 0.05500
C 	C 	0.70832 0.35942 0.26711 -0.07200
S 	S 	0.68811 0.23728 0.23151 -0.03700
H 	H 	0.68548 0.25514 0.31222 0.04400
S 	S 	0.71456 0.40760 0.33568 -0.05900
H 	H 	0.71428 0.38833 0.25443 0.05200
H 	H 	0.79338 0.40151 0.11657 0.02900
H 	H 	0.73210 0.24749 0.23094 0.03700
H 	H 	0.76141 0.43830 0.35330 0.04200
H 	H 	0.57892 0.22808 0.20419 0.03800
C 	C 	0.77377 0.54399 0.44418 -0.01000
C 	C 	0.79931 0.57830 0.47806 -0.03000
C 	C 	0.81669 0.62430 0.47672 -0.04500
C 	C 	0.80854 0.63622 0.44145 0.01100
C 	C 	0.78300 0.60178 0.40755 -0.04500
C 	C 	0.76573 0.55584 0.40892 -0.03000
C 	C 	0.82779 0.68493 0.43979 0.00400
C 	C 	0.81325 0.70753 0.46220 -0.03700
C 	C 	0.83276 0.75418 0.46155 -0.04400
C 	C 	0.86680 0.77844 0.43847 0.01700
C 	C 	0.88066 0.75567 0.41554 -0.04400
C 	C 	0.86128 0.70910 0.41620 -0.03700
C 	C 	0.88995 0.82744 0.44026 -0.01200
C 	C 	0.91018 0.86847 0.44097 -0.03000
C 	C 	0.75440 0.49633 0.44578 0.04600
C 	C 	0.73784 0.45621 0.44642 -0.11400
H 	H 	0.80558 0.56936 0.50543 0.03800
H 	H 	0.83667 0.65069 0.50298 0.04100
H 	H 	0.77648 0.61061 0.38020 0.04100
H 	H 	0.74591 0.52945 0.38264 0.03800
H 	H 	0.78715 0.68907 0.48028 0.03900
H 	H 	0.82190 0.77157 0.47938 0.04100
H 	H 	0.90705 0.77425 0.39770 0.04100
H 	H 	0.87275 0.69200 0.39883 0.03900
C 	C 	0.78230 0.18173 0.44109 -0.01200
C 	C 	0.75967 0.13954 0.45448 -0.03100
C 	C 	0.77733 0.11332 0.45137 -0.04500
C 	C 	0.81775 0.12912 0.43481 0.01100
C 	C 	0.83955 0.17072 0.42037 -0.04500
C 	C 	0.82188 0.19696 0.42355 -0.03000
C 	C 	0.83883 0.10356 0.43466 0.00400
C 	C 	0.81261 0.05751 0.41429 -0.03800
C 	C 	0.83215 0.03290 0.41525 -0.04300
C 	C 	0.87795 0.05418 0.43653 0.01700
C 	C 	0.90421 0.10018 0.45675 -0.04400
C 	C 	0.88473 0.12479 0.45586 -0.03700
C 	C 	0.89840 0.02915 0.43731 -0.01200
C 	C 	0.91657 0.00920 0.43856 -0.02800
C 	C 	0.76669 0.21070 0.44762 0.04700
C 	C 	0.75289 0.23426 0.45347 -0.11900
H 	H 	0.72901 0.12753 0.46801 0.03600
H 	H 	0.76027 0.08130 0.46263 0.04000
H 	H 	0.87057 0.18306 0.40728 0.04100
H 	H 	0.83948 0.22947 0.41303 0.03900
H 	H 	0.77718 0.04083 0.39781 0.03900
H 	H 	0.81170 0.99739 0.39945 0.04000
H 	H 	0.93967 0.11686 0.47321 0.04100
H 	H 	0.90512 0.16018 0.47188 0.03800
C 	C 	0.40330 0.18683 0.46210 -0.00900
C 	C 	0.37054 0.15435 0.42890 -0.03000
C 	C 	0.32184 0.13078 0.42792 -0.04500
C 	C 	0.30563 0.13962 0.46015 0.01100
C 	C 	0.33847 0.17173 0.49358 -0.04400
C 	C 	0.38718 0.19526 0.49453 -0.03000
C 	C 	0.25433 0.11561 0.45874 0.00400
C 	C 	0.22826 0.12275 0.43147 -0.03700
C 	C 	0.17935 0.09897 0.42941 -0.04400
C 	C 	0.15625 0.06798 0.45460 0.01800
C 	C 	0.18231 0.06126 0.48218 -0.04400
C 	C 	0.23121 0.08499 0.48427 -0.03700
C 	C 	0.10557 0.04182 0.45125 -0.01300
C 	C 	0.06315 0.01970 0.44873 -0.02800
C 	C 	0.45343 0.21301 0.46218 0.04600
C 	C 	0.49536 0.23480 0.46203 -0.10800
H 	H 	0.38278 0.14767 0.40374 0.03700
H 	H 	0.29673 0.10581 0.40209 0.04100
H 	H 	0.32628 0.17878 0.51860 0.04100
H 	H 	0.41234 0.22038 0.52028 0.04000
H 	H 	0.24586 0.14655 0.41181 0.03900
H 	H 	0.15940 0.10436 0.40804 0.04100
H 	H 	0.16464 0.03732 0.50173 0.04100
H 	H 	0.25103 0.07923 0.50539 0.03900
C 	C 	0.79190 0.58031 0.97974 -0.00900
C 	C 	0.83906 0.61301 0.99921 -0.03000
C 	C 	0.86159 0.66040 0.99971 -0.04400
C 	C 	0.83705 0.67533 0.98070 0.01100
C 	C 	0.78987 0.64250 0.96114 -0.04400
C 	C 	0.76738 0.59514 0.96068 -0.03000
C 	C 	0.86087 0.72527 0.98106 0.00300
C 	C 	0.90063 0.75016 0.96334 -0.03700
C 	C 	0.92362 0.79765 0.96415 -0.04400
C 	C 	0.90702 0.82054 0.98262 0.01800
C 	C 	0.86711 0.79571 0.00009 -0.04600
C 	C 	0.84407 0.74819 0.99932 -0.03500
C 	C 	0.93163 0.86971 0.98434 -0.01100
C 	C 	0.95290 0.91090 0.98536 -0.03200
C 	C 	0.76832 0.53162 0.97997 0.04600
C 	C 	0.74810 0.49074 0.97992 -0.10700
H 	H 	0.85819 0.60178 0.01407 0.03700
H 	H 	0.89799 0.68550 0.01496 0.04000
H 	H 	0.77071 0.65369 0.94623 0.04100
H 	H 	0.73089 0.57003 0.94560 0.04000
H 	H 	0.91369 0.73272 0.94900 0.03900
H 	H 	0.95446 0.81666 0.95057 0.04100
H 	H 	0.85411 0.81322 0.01445 0.04100
H 	H 	0.81344 0.72927 0.01314 0.03800
C 	C 	0.92117 0.09630 0.00513 0.01600
C 	C 	0.92753 0.12715 0.98048 -0.04300
C 	C 	0.90509 0.14883 0.98361 -0.03700
C 	C 	0.87615 0.13983 0.01150 0.00300
C 	C 	0.87024 0.10932 0.03648 -0.03700
C 	C 	0.89269 0.08760 0.03328 -0.04400
C 	C 	0.85073 0.16106 0.01352 0.01100
C 	C 	0.87628 0.20963 0.02174 -0.04500
C 	C 	0.85223 0.22984 0.01984 -0.03000
C 	C 	0.80254 0.20165 0.00981 -0.01200
C 	C 	0.77688 0.15313 0.00303 -0.03100
C 	C 	0.80088 0.13288 0.00486 -0.04600
C 	C 	0.77826 0.22241 0.00313 0.04600
C 	C 	0.75795 0.23982 0.99754 -0.12000
C 	C 	0.94319 0.07296 0.00103 -0.01100
C 	C 	0.96183 0.05364 0.99729 -0.03100
H 	H 	0.94953 0.13403 0.95867 0.04100
H 	H 	0.90968 0.17214 0.96406 0.03800
H 	H 	0.84808 0.10225 0.05817 0.03900
H 	H 	0.88768 0.06384 0.05249 0.04100
H 	H 	0.91475 0.23168 0.02880 0.04100
H 	H 	0.87229 0.26737 0.02523 0.03700
H 	H 	0.73844 0.13112 0.99534 0.03800
H 	H 	0.78083 0.09535 0.99852 0.04100
C 	C 	0.43239 0.20250 0.96371 -0.01000
C 	C 	0.40667 0.16788 0.98547 -0.03000
C 	C 	0.35895 0.14875 0.98554 -0.04400
C 	C 	0.33664 0.16414 0.96384 0.01000
C 	C 	0.36207 0.19791 0.94121 -0.04400
C 	C 	0.40985 0.21707 0.94118 -0.03100
C 	C 	0.28714 0.14583 0.96575 0.00500
C 	C 	0.27557 0.15452 0.00110 -0.03800
C 	C 	0.22816 0.13413 0.00378 -0.04400
C 	C 	0.19204 0.10498 0.97116 0.01700
C 	C 	0.20363 0.09742 0.93551 -0.04300
C 	C 	0.25107 0.11781 0.93279 -0.03800
C 	C 	0.14305 0.08016 0.97505 -0.01000
C 	C 	0.10206 0.05943 0.97843 -0.03200
C 	C 	0.48268 0.22552 0.96697 0.04600
C 	C 	0.52475 0.24430 0.97015 -0.11100
H 	H 	0.42386 0.15643 0.00291 0.03900
H 	H 	0.33947 0.12238 0.00282 0.04100
H 	H 	0.34508 0.20988 0.92425 0.04100
H 	H 	0.42954 0.24383 0.92428 0.03800
H 	H 	0.30323 0.17642 0.02662 0.03900
H 	H 	0.21946 0.14022 0.03140 0.04100
H 	H 	0.17588 0.07497 0.91014 0.04100
H 	H 	0.25968 0.11102 0.90535 0.03900
