data_crystal

_cell_length_a 25.86436
_cell_length_b 26.82025
_cell_length_c 30.00840
_cell_angle_alpha 61.24595
_cell_angle_beta  118.44063
_cell_angle_gamma 133.07050

_symmetry_space_group_name_	'P 1'
_symmetry_space_group_name_H-M	'P 1'

loop_
_symmetry_equiv_pos_as_xyz
  x,y,z

loop_
_atom_site_label
_atom_site_type_symbol
_atom_site_fract_x
_atom_site_fract_y
_atom_site_fract_z
_atom_site_charge
Co	Co	0.11017 0.96194 0.18434 1.18200
Co	Co	0.05418 0.02118 0.21098 1.19100
Co	Co	0.09679 0.88845 0.11472 1.17300
O 	O 	0.05491 0.13472 0.21650 -0.37200
C 	C 	0.10833 0.16623 0.19598 0.27300
O 	O 	0.11334 0.12940 0.18305 -0.37900
O 	O 	0.03832 0.99422 0.28400 -0.37600
O 	O 	0.05651 0.91606 0.13837 -0.76500
O 	O 	0.12802 0.88753 0.23982 -0.37200
O 	O 	0.03049 0.88829 0.03957 -0.39000
Co	Co	0.07470 0.97826 0.67512 1.18000
Co	Co	0.02068 0.04156 0.69933 1.18900
C 	C 	0.06829 0.84510 0.72715 0.26500
Co	Co	0.05360 0.89107 0.61291 1.17600
C 	C 	0.05461 0.18378 0.68492 0.25900
O 	O 	0.10110 0.03172 0.72120 -0.44900
O 	O 	0.07933 0.14575 0.70184 -0.35400
O 	O 	0.02708 0.94260 0.62356 -0.76700
O 	O 	0.03354 0.82238 0.68448 -0.37300
O 	O 	0.06312 0.88817 0.73198 -0.37300
O 	O 	0.06807 0.96341 0.54158 -0.37600
C 	C 	0.06265 0.98100 0.93208 0.11200
C 	C 	0.04666 0.98982 0.87830 -0.03400
H 	H 	0.08721 0.00821 0.86108 0.07900
C 	C 	0.00714 0.93660 0.38805 -0.02900
C 	C 	0.00918 0.92606 0.43919 0.12500
Br	Br	0.01171 0.84949 0.49205 -0.25600
H 	H 	0.00807 0.90231 0.37952 0.07100
C 	C 	0.02219 0.93892 0.01202 0.31200
O 	O 	0.01268 0.78715 0.14117 -0.35900
C 	C 	0.01232 0.96160 0.50480 0.31000
O 	O 	0.99898 0.01116 0.63060 -0.56300
C 	C 	0.01110 0.95917 0.95469 -0.07600
C 	C 	0.00667 0.96968 0.45060 -0.09200
H 	H 	0.00892 0.70345 0.76248 0.06700
O 	O 	0.11571 0.74066 0.26813 -0.18300
H 	H 	0.09940 0.63005 0.26485 0.07400
C 	C 	0.10704 0.25800 0.68732 0.04800
C 	C 	0.06230 0.73796 0.78460 -0.05300
H 	H 	0.05374 0.62540 0.79413 0.07200
H 	H 	0.03904 0.29426 0.63161 0.05600
H 	H 	0.10346 0.27904 0.13918 0.06000
C 	C 	0.09190 0.30675 0.65599 -0.05600
H 	H 	0.09306 0.41735 0.64212 0.07100
O 	O 	0.13474 0.01182 0.23239 -0.44600
C 	C 	0.14990 0.86188 0.23050 0.27500
Br	Br	0.15679 0.00278 0.97333 -0.21200
C 	C 	0.09894 0.80990 0.77343 0.04900
C 	C 	0.15465 0.29024 0.16659 -0.05400
C 	C 	0.15363 0.67233 0.27983 -0.08900
C 	C 	0.00181 0.98973 0.34771 -0.09900
C 	C 	0.13553 0.41241 0.67193 -0.08400
C 	C 	0.14344 0.36312 0.67634 0.01200
C 	C 	0.10661 0.67115 0.80637 -0.08200
H 	H 	0.14577 0.39221 0.15838 0.07100
O 	O 	0.16842 0.88777 0.18658 -0.38800
O 	O 	0.16759 0.28022 0.72919 -0.18100
O 	O 	0.17604 0.99402 0.09045 -0.37400
O 	O 	0.16244 0.95503 0.64927 -0.38600
C 	C 	0.11342 0.72625 0.80944 0.01100
C 	C 	0.17761 0.37703 0.19349 -0.08100
C 	C 	0.16821 0.24021 0.19598 0.04900
C 	C 	0.16456 0.72358 0.29244 0.12200
C 	C 	0.16290 0.81046 0.27186 0.04400
H 	H 	0.17269 0.57822 0.28380 0.06900
O 	O 	0.01218 0.96312 0.03419 -0.39900
O 	O 	0.19483 0.04445 0.14543 -0.37200
O 	O 	0.17256 0.04451 0.65340 -0.37000
C 	C 	0.18747 0.34682 0.71996 0.12000
C 	C 	0.18348 0.45366 0.70852 0.11800
O 	O 	0.17617 0.49748 0.71335 -0.19600
C 	C 	0.20091 0.39548 0.23941 0.11700
C 	C 	0.19716 0.33896 0.19403 0.01300
O 	O 	0.17058 0.63880 0.79927 -0.19500
O 	O 	0.20905 0.45257 0.23900 -0.19900
O 	O 	0.22314 0.25730 0.24143 -0.18100
C 	C 	0.19735 0.02240 0.64312 0.29000
C 	C 	0.17038 0.67961 0.81527 0.11400
C 	C 	0.17975 0.79098 0.81302 0.12300
O 	O 	0.17440 0.84660 0.79205 -0.18900
C 	C 	0.21516 0.68196 0.28190 0.02300
C 	C 	0.21833 0.63230 0.28536 -0.08500
C 	C 	0.22045 0.03607 0.12234 0.28300
O 	O 	0.98535 0.15864 0.66289 -0.37700
O 	O 	0.98034 0.97767 0.76594 -0.42400
H 	H 	0.29338 0.32356 0.31951 0.07700
C 	C 	0.73285 0.29417 0.01173 0.09600
N 	N 	0.66535 0.25337 0.02012 -0.11500
C 	C 	0.64300 0.28253 0.02652 0.10100
N 	N 	0.68792 0.35216 0.02446 -0.11300
C 	C 	0.75609 0.39243 0.01809 0.10300
N 	N 	0.77872 0.36353 0.01177 -0.12700
C 	C 	0.67815 0.32270 0.49343 0.10200
N 	N 	0.60563 0.28146 0.49007 -0.12800
C 	C 	0.57576 0.30623 0.49246 0.10200
N 	N 	0.61805 0.37339 0.49610 -0.11000
C 	C 	0.69062 0.41469 0.49996 0.10100
N 	N 	0.72093 0.38909 0.49925 -0.11500
C 	C 	0.32100 0.62722 0.30581 0.10100
N 	N 	0.39367 0.66663 0.31081 -0.10800
C 	C 	0.42241 0.64066 0.30861 0.10100
N 	N 	0.37849 0.57419 0.30290 -0.12800
C 	C 	0.30576 0.53455 0.29762 0.10100
N 	N 	0.27674 0.56137 0.29836 -0.12100
C 	C 	0.27607 0.66512 0.78452 0.10100
N 	N 	0.34697 0.71220 0.78140 -0.12700
C 	C 	0.37864 0.69286 0.77422 0.10200
N 	N 	0.33967 0.62665 0.77015 -0.11900
C 	C 	0.26844 0.57993 0.77170 0.10200
N 	N 	0.23629 0.59925 0.77851 -0.11000
Co	Co	0.92399 0.96892 0.12582 1.17700
Co	Co	0.97684 0.90387 0.10283 1.18600
Co	Co	0.94788 0.06177 0.18429 1.18100
O 	O 	0.97432 0.00910 0.17508 -0.74500
O 	O 	0.89543 0.91186 0.08189 -0.46400
C 	C 	0.92539 0.09889 0.06995 0.26300
O 	O 	0.00248 0.93947 0.17007 -0.58300
C 	C 	0.99475 0.99689 0.29339 0.30600
C 	C 	0.94390 0.76228 0.11804 0.26000
O 	O 	0.96262 0.12587 0.11069 -0.36900
O 	O 	0.93183 0.05591 0.06652 -0.36600
O 	O 	0.93771 0.99334 0.25740 -0.38200
O 	O 	0.91770 0.79748 0.10567 -0.36400
C 	C 	0.80419 0.92682 0.16000 0.27200
O 	O 	0.83820 0.99462 0.15130 -0.40800
O 	O 	0.82871 0.90351 0.15087 -0.36700
Co	Co	0.89080 0.98862 0.61476 1.17700
Co	Co	0.94899 0.93341 0.58629 1.18400
Co	Co	0.90003 0.05620 0.68671 1.17800
O 	O 	0.94244 0.03161 0.66226 -0.75400
O 	O 	0.86855 0.94293 0.56458 -0.46500
C 	C 	0.85085 0.08818 0.57053 0.27100
C 	C 	0.96999 0.00053 0.78904 0.37000
C 	C 	0.89259 0.78912 0.59699 0.27300
O 	O 	0.83066 0.06016 0.61411 -0.37500
O 	O 	0.87398 0.06411 0.56077 -0.35900
O 	O 	0.96341 0.05235 0.76267 -0.38700
O 	O 	0.94715 0.82110 0.57755 -0.37100
O 	O 	0.88779 0.82489 0.61131 -0.38500
C 	C 	0.77713 0.90918 0.67533 0.26300
O 	O 	0.81939 0.94998 0.70806 -0.36700
O 	O 	0.80534 0.90368 0.65229 -0.37900
O 	O 	0.96791 0.96357 0.51379 -0.38200
C 	C 	0.94433 0.94717 0.92277 -0.04300
C 	C 	0.98012 0.97830 0.84633 -0.11500
C 	C 	0.92833 0.95595 0.86897 0.13400
Br	Br	0.83396 0.93349 0.82767 -0.25100
H 	H 	0.90377 0.92877 0.93999 0.06800
C 	C 	0.99972 0.03360 0.35914 0.15100
C 	C 	0.00158 0.02297 0.41027 -0.02800
H 	H 	0.00061 0.05724 0.41879 0.07300
Br	Br	0.99825 0.11073 0.30632 -0.24500
C 	C 	0.22959 0.38341 0.75936 -0.08700
C 	C 	0.23004 0.44019 0.75010 0.02400
C 	C 	0.22542 0.51084 0.76173 0.10300
C 	C 	0.25381 0.47259 0.78534 -0.08200
H 	H 	0.25823 0.36656 0.79625 0.07700
H 	H 	0.30211 0.48451 0.81675 0.07000
C 	C 	0.55176 0.77081 0.76710 0.11900
C 	C 	0.59621 0.75726 0.76849 -0.07900
C 	C 	0.61839 0.78329 0.72289 0.01400
C 	C 	0.60079 0.82458 0.67851 0.12400
C 	C 	0.55604 0.83786 0.67710 -0.09000
C 	C 	0.53464 0.81255 0.72292 0.02400
O 	O 	0.50324 0.72611 0.79922 -0.19700
C 	C 	0.45429 0.74369 0.76952 0.10100
C 	C 	0.47291 0.79551 0.72415 -0.08600
O 	O 	0.64995 0.87012 0.64679 -0.19200
C 	C 	0.70054 0.85469 0.67737 0.05200
C 	C 	0.68137 0.80210 0.72237 -0.05000
H 	H 	0.61110 0.72563 0.80342 0.07600
H 	H 	0.54126 0.86962 0.64223 0.07100
H 	H 	0.43421 0.80185 0.68974 0.06400
H 	H 	0.72007 0.79645 0.75722 0.07000
C 	C 	0.24292 0.80110 0.81774 -0.09000
C 	C 	0.23719 0.74268 0.82285 0.02500
C 	C 	0.24365 0.68429 0.79707 0.10300
C 	C 	0.28362 0.74608 0.81100 -0.08500
H 	H 	0.29353 0.85339 0.81411 0.07400
H 	H 	0.33451 0.79393 0.80067 0.06700
C 	C 	0.23655 0.31825 0.23889 0.12500
C 	C 	0.26181 0.33890 0.28424 -0.08800
C 	C 	0.23989 0.37454 0.28407 0.02900
C 	C 	0.25832 0.46500 0.28724 0.10100
C 	C 	0.27679 0.41854 0.31436 -0.08500
H 	H 	0.32687 0.42987 0.34357 0.06800
C 	C 	0.64717 0.78616 0.21001 0.12100
C 	C 	0.61501 0.72460 0.24865 -0.09000
C 	C 	0.58760 0.72296 0.28041 0.02600
C 	C 	0.58951 0.77915 0.27292 0.11500
C 	C 	0.62222 0.84078 0.23450 -0.08200
C 	C 	0.64753 0.84152 0.20184 0.01000
O 	O 	0.69980 0.80509 0.19134 -0.18100
C 	C 	0.73232 0.87733 0.17200 0.04000
C 	C 	0.70143 0.89937 0.17802 -0.05500
O 	O 	0.53562 0.76047 0.28982 -0.19600
C 	C 	0.49882 0.68755 0.30557 0.10300
C 	C 	0.53017 0.66484 0.30091 -0.08600
H 	H 	0.61287 0.68012 0.25456 0.07500
H 	H 	0.62428 0.88527 0.22843 0.06900
H 	H 	0.72909 0.95242 0.17936 0.05500
H 	H 	0.50147 0.61255 0.29736 0.06900
C 	C 	0.28418 0.73497 0.30086 0.11600
C 	C 	0.29549 0.78430 0.31591 -0.08300
C 	C 	0.23422 0.77707 0.31177 0.01100
C 	C 	0.23305 0.83174 0.29904 -0.05200
O 	O 	0.33607 0.72360 0.31690 -0.19500
C 	C 	0.29066 0.65756 0.30626 0.10200
H 	H 	0.35001 0.82728 0.32978 0.07100
H 	H 	0.28043 0.88616 0.29393 0.05700
C 	C 	0.76684 0.17164 0.49084 0.12200
C 	C 	0.70529 0.16534 0.48441 -0.08800
C 	C 	0.71565 0.21285 0.50099 0.02600
C 	C 	0.78364 0.26901 0.51753 0.11500
C 	C 	0.84561 0.27762 0.52189 -0.08400
C 	C 	0.83571 0.22804 0.50777 0.01400
O 	O 	0.76329 0.11300 0.50155 -0.17800
C 	C 	0.83505 0.13759 0.52898 0.04900
C 	C 	0.87882 0.20659 0.53170 -0.05800
O 	O 	0.78512 0.32322 0.51493 -0.19600
C 	C 	0.71077 0.29371 0.49435 0.10100
C 	C 	0.66920 0.22801 0.48588 -0.08500
H 	H 	0.65111 0.12158 0.47106 0.07700
H 	H 	0.89952 0.32071 0.53633 0.07000
H 	H 	0.92771 0.22851 0.56200 0.05500
H 	H 	0.61478 0.20228 0.46136 0.06900
C 	C 	0.80481 0.61786 0.59956 0.12500
C 	C 	0.82164 0.57702 0.60115 -0.08800
C 	C 	0.79904 0.55893 0.55520 0.02800
C 	C 	0.75501 0.57391 0.51108 0.11900
C 	C 	0.73642 0.61306 0.50970 -0.07900
C 	C 	0.76128 0.63370 0.55505 0.01300
O 	O 	0.85060 0.66566 0.63039 -0.18600
C 	C 	0.83454 0.71442 0.59873 0.04800
C 	C 	0.77961 0.69439 0.55464 -0.05100
O 	O 	0.71350 0.52939 0.47817 -0.19500
C 	C 	0.73631 0.48560 0.50723 0.10600
C 	C 	0.78733 0.50287 0.55325 -0.08300
H 	H 	0.85533 0.56390 0.63599 0.07500
H 	H 	0.70304 0.62638 0.47468 0.07300
H 	H 	0.77317 0.73117 0.51924 0.06000
H 	H 	0.79555 0.46595 0.58725 0.07000
C 	C 	0.35580 0.10860 0.60612 0.12400
C 	C 	0.38575 0.10785 0.57817 -0.08900
C 	C 	0.41189 0.16428 0.53518 0.02800
C 	C 	0.41296 0.22168 0.52248 0.11600
C 	C 	0.38157 0.22176 0.54978 -0.08000
C 	C 	0.35553 0.16530 0.59283 0.01100
O 	O 	0.30379 0.04709 0.63346 -0.17600
C 	C 	0.27065 0.07162 0.63380 0.04300
C 	C 	0.30123 0.14208 0.60982 -0.04800
O 	O 	0.46739 0.28364 0.49718 -0.19500
C 	C 	0.50004 0.25836 0.49714 0.10300
C 	C 	0.46665 0.18714 0.51908 -0.08400
H 	H 	0.38662 0.06371 0.58859 0.07700
H 	H 	0.38073 0.26590 0.53942 0.07200
H 	H 	0.27272 0.16572 0.59286 0.06100
H 	H 	0.49356 0.16191 0.53597 0.06900
C 	C 	0.86880 0.20604 0.98435 0.12500
C 	C 	0.87805 0.26645 0.97927 -0.09000
C 	C 	0.81686 0.25979 0.97421 0.02700
C 	C 	0.75190 0.19469 0.98205 0.11500
C 	C 	0.74423 0.13366 0.99114 -0.07800
C 	C 	0.80207 0.14144 0.98793 0.01900
O 	O 	0.92687 0.20173 0.00554 -0.18600
C 	C 	0.88942 0.12870 0.02379 0.05200
C 	C 	0.81495 0.09248 0.01275 -0.06400
O 	O 	0.70866 0.19364 0.99813 -0.19300
C 	C 	0.75473 0.26410 0.99999 0.10800
C 	C 	0.81909 0.30384 0.98579 -0.08600
H 	H 	0.93180 0.31566 0.98272 0.07600
H 	H 	0.69702 0.08211 0.00357 0.07200
H 	H 	0.77953 0.04060 0.03529 0.06400
H 	H 	0.86799 0.35307 0.99590 0.07000
C 	C 	0.87105 0.59821 0.11092 0.12000
C 	C 	0.89041 0.55886 0.11373 -0.08900
C 	C 	0.87040 0.54118 0.06825 0.02300
C 	C 	0.82807 0.55710 0.02279 0.11400
C 	C 	0.80927 0.59705 0.01978 -0.08800
C 	C 	0.82966 0.61512 0.06520 0.01500
O 	O 	0.91177 0.64273 0.14363 -0.18100
C 	C 	0.89344 0.68986 0.11237 0.05000
C 	C 	0.84384 0.67330 0.06577 -0.05700
O 	O 	0.78658 0.51154 0.99071 -0.18800
C 	C 	0.80652 0.46560 0.02183 0.09700
C 	C 	0.85715 0.48351 0.06779 -0.08300
H 	H 	0.92246 0.54489 0.14963 0.07200
H 	H 	0.77727 0.61106 0.98387 0.07900
H 	H 	0.83889 0.71137 0.03094 0.06100
H 	H 	0.86352 0.44625 0.10269 0.06500
C 	C 	0.38784 0.10929 0.11095 0.12800
C 	C 	0.45350 0.11989 0.12218 -0.08900
C 	C 	0.50392 0.17984 0.09185 0.02600
C 	C 	0.48900 0.22556 0.05126 0.11700
C 	C 	0.42324 0.21475 0.04041 -0.07800
C 	C 	0.37286 0.15437 0.07040 0.01500
O 	O 	0.34244 0.06513 0.14528 -0.18600
C 	C 	0.29717 0.08733 0.12034 0.04600
C 	C 	0.31805 0.14360 0.07710 -0.04600
O 	O 	0.53033 0.26561 0.01452 -0.19300
C 	C 	0.57114 0.23906 0.03675 0.10500
C 	C 	0.55347 0.18593 0.08178 -0.08300
H 	H 	0.46487 0.08324 0.15320 0.07800
H 	H 	0.41082 0.25028 0.00864 0.07500
H 	H 	0.28338 0.15891 0.04636 0.06800
H 	H 	0.58661 0.16776 0.11020 0.07000
