data_crystal

_cell_length_a 25.91268
_cell_length_b 26.62670
_cell_length_c 34.50805
_cell_angle_alpha 95.50198
_cell_angle_beta  95.50086
_cell_angle_gamma 125.83386

_symmetry_space_group_name_	'P 1'
_symmetry_space_group_name_H-M	'P 1'

loop_
_symmetry_equiv_pos_as_xyz
  x,y,z

loop_
_atom_site_label
_atom_site_type_symbol
_atom_site_fract_x
_atom_site_fract_y
_atom_site_fract_z
_atom_site_charge
C 	C 	0.92273 0.99976 0.97890 0.11800
N 	N 	0.98581 0.03103 0.97520 -0.13800
C 	C 	0.01693 0.00487 0.98237 0.11300
N 	N 	0.98443 0.94702 0.99238 -0.14000
C 	C 	0.92111 0.91513 0.99520 0.12300
N 	N 	0.89047 0.94176 0.98873 -0.14600
C 	C 	0.96835 0.01771 0.46957 0.12900
N 	N 	0.93765 0.95642 0.47314 -0.14800
C 	C 	0.97081 0.93140 0.47410 0.12800
N 	N 	0.03513 0.96861 0.47323 -0.14900
C 	C 	0.06639 0.03046 0.47154 0.12300
N 	N 	0.03286 0.05482 0.46919 -0.15000
Cu	Cu	0.61483 0.23488 0.99684 0.92300
Cu	Cu	0.64665 0.22910 0.90777 0.88900
Cu	Cu	0.63421 0.33664 0.95189 0.91000
Cu	Cu	0.59873 0.33841 0.03186 0.89600
C 	C 	0.63445 0.27415 0.08116 0.30300
O 	O 	0.51828 0.18518 0.99739 -0.36100
C 	C 	0.65397 0.32553 0.87369 0.31200
O 	O 	0.65509 0.33150 0.00538 -0.63800
O 	O 	0.59999 0.24570 0.94160 -0.62800
O 	O 	0.67090 0.20626 0.99140 -0.37600
O 	O 	0.62777 0.15728 0.92692 -0.41400
O 	O 	0.59682 0.29179 0.07421 -0.38100
O 	O 	0.67288 0.42540 0.96387 -0.38000
C 	C 	0.66790 0.45338 0.99546 0.28900
C 	C 	0.48627 0.20795 0.98783 0.29000
O 	O 	0.51805 0.26769 0.98529 -0.39700
O 	O 	0.62552 0.42072 0.01808 -0.39200
O 	O 	0.63926 0.24108 0.05257 -0.34800
C 	C 	0.65974 0.16461 0.96138 0.29500
O 	O 	0.62493 0.34032 0.89608 -0.37500
O 	O 	0.68799 0.30796 0.88924 -0.41600
H 	H 	0.70161 0.36226 0.01752 0.16200
H 	H 	0.55349 0.21828 0.92920 0.16800
Cu	Cu	0.77348 0.35989 0.45620 0.92800
Cu	Cu	0.78258 0.31947 0.54225 0.87300
Cu	Cu	0.67463 0.32456 0.51037 0.90000
Cu	Cu	0.65057 0.35583 0.43192 0.89500
C 	C 	0.71745 0.33484 0.37402 0.30000
O 	O 	0.81130 0.45166 0.45574 -0.36000
C 	C 	0.72684 0.35264 0.59637 0.30400
O 	O 	0.67321 0.30839 0.45486 -0.64000
O 	O 	0.77012 0.37104 0.51314 -0.64000
O 	O 	0.82029 0.32125 0.45812 -0.36600
O 	O 	0.76026 0.25608 0.49920 -0.44300
O 	O 	0.69169 0.36347 0.38456 -0.38200
O 	O 	0.58128 0.27548 0.50349 -0.37400
C 	C 	0.54433 0.27875 0.47628 0.29700
C 	C 	0.78271 0.47610 0.46835 0.28900
O 	O 	0.72386 0.43903 0.47557 -0.38700
O 	O 	0.56948 0.32176 0.45354 -0.39200
O 	O 	0.75954 0.33587 0.39974 -0.34600
C 	C 	0.79717 0.26947 0.47253 0.29500
O 	O 	0.67524 0.32506 0.56782 -0.37000
O 	O 	0.78061 0.36209 0.58906 -0.41400
H 	H 	0.64565 0.26304 0.44265 0.15900
H 	H 	0.79569 0.41552 0.52692 0.17800
C 	C 	0.63756 0.28964 0.76307 -0.07000
C 	C 	0.67423 0.35066 0.75457 0.02300
C 	C 	0.69607 0.40265 0.78432 0.05400
C 	C 	0.68463 0.39339 0.82284 0.00000
C 	C 	0.65259 0.33288 0.83201 -0.09800
C 	C 	0.62678 0.28047 0.80162 0.11000
C 	C 	0.69443 0.36006 0.71563 0.02700
N 	N 	0.73150 0.46506 0.77584 -0.01600
H 	H 	0.70366 0.43368 0.84603 0.05600
N 	N 	0.59046 0.21791 0.81000 -0.03300
H 	H 	0.61906 0.24942 0.73994 0.07500
C 	C 	0.74032 0.35079 0.70614 0.05200
C 	C 	0.75245 0.35098 0.66748 -0.00600
C 	C 	0.72007 0.36147 0.63812 -0.09300
C 	C 	0.67779 0.37556 0.64846 0.11700
C 	C 	0.66430 0.37357 0.68695 -0.07400
N 	N 	0.77367 0.33973 0.73556 -0.01600
H 	H 	0.78601 0.34143 0.66009 0.05100
N 	N 	0.64977 0.39334 0.62030 -0.02100
H 	H 	0.63028 0.38239 0.69451 0.07900
O 	O 	0.60522 0.18045 0.79879 -0.12800
O 	O 	0.54056 0.19730 0.82698 -0.14300
O 	O 	0.70965 0.49798 0.78102 -0.11000
O 	O 	0.78806 0.49082 0.76612 -0.09600
O 	O 	0.68694 0.44178 0.60406 -0.11400
O 	O 	0.58733 0.36363 0.61283 -0.10700
O 	O 	0.77176 0.28968 0.72900 -0.11300
O 	O 	0.80880 0.38134 0.76795 -0.09700
C 	C 	0.65650 0.22973 0.17917 -0.07300
C 	C 	0.68910 0.28809 0.20484 0.02400
C 	C 	0.71015 0.34269 0.18907 0.05300
C 	C 	0.69581 0.33792 0.14814 -0.00600
C 	C 	0.65897 0.27895 0.12272 -0.09300
C 	C 	0.64000 0.22453 0.13830 0.12000
C 	C 	0.69525 0.29088 0.24823 0.02500
N 	N 	0.74389 0.40275 0.21471 -0.01600
H 	H 	0.71092 0.37988 0.13627 0.04300
N 	N 	0.60120 0.16359 0.11316 -0.02100
H 	H 	0.64075 0.18775 0.19119 0.07800
C 	C 	0.64045 0.26687 0.26613 0.05300
C 	C 	0.64810 0.27777 0.30749 -0.00600
C 	C 	0.71009 0.31414 0.33132 -0.09200
C 	C 	0.76474 0.33590 0.31346 0.12100
C 	C 	0.75679 0.32297 0.27208 -0.07300
N 	N 	0.57718 0.23352 0.24235 -0.01600
H 	H 	0.60589 0.26026 0.32106 0.04300
N 	N 	0.82858 0.37403 0.33699 -0.02000
H 	H 	0.79896 0.34089 0.25842 0.07800
O 	O 	0.54295 0.14022 0.09535 -0.10600
O 	O 	0.62070 0.12832 0.11227 -0.11600
O 	O 	0.80255 0.44844 0.21167 -0.11100
O 	O 	0.71420 0.41324 0.23883 -0.10000
O 	O 	0.86244 0.35248 0.33948 -0.10200
O 	O 	0.85502 0.43221 0.35284 -0.10400
O 	O 	0.53247 0.17521 0.24453 -0.11200
O 	O 	0.56279 0.26289 0.22101 -0.10000
C 	C 	0.87703 0.64406 0.44911 -0.09500
C 	C 	0.86382 0.67227 0.47895 0.00600
C 	C 	0.82609 0.63678 0.50611 0.02700
C 	C 	0.80439 0.57417 0.50397 -0.01700
C 	C 	0.81550 0.54493 0.47325 -0.10900
C 	C 	0.85124 0.58005 0.44501 0.10400
C 	C 	0.88817 0.73869 0.48069 -0.00300
C 	C 	0.80645 0.66450 0.53623 -0.17500
H 	H 	0.77678 0.54736 0.52545 0.04600
C 	C 	0.86067 0.54960 0.40999 -0.21300
H 	H 	0.90599 0.67160 0.42830 0.05600
C 	C 	0.94738 0.78842 0.50549 0.03200
C 	C 	0.97074 0.85103 0.50516 -0.03400
C 	C 	0.93836 0.86495 0.47842 -0.05100
C 	C 	0.87946 0.81496 0.45305 0.07200
C 	C 	0.85392 0.75224 0.45541 -0.08100
C 	C 	0.98761 0.77512 0.53055 -0.16000
H 	H 	0.01570 0.88924 0.52468 0.03600
C 	C 	0.84427 0.82785 0.42300 -0.19200
H 	H 	0.80833 0.71380 0.43655 0.05000
H 	H 	0.89448 0.53873 0.42016 0.09900
H 	H 	0.88160 0.58117 0.38815 0.08300
H 	H 	0.81349 0.50573 0.39421 0.09900
H 	H 	0.77812 0.67827 0.52084 0.06800
H 	H 	0.85000 0.70670 0.55625 0.06700
H 	H 	0.77589 0.63023 0.55481 0.07000
H 	H 	0.03213 0.81908 0.54876 0.05600
H 	H 	0.00261 0.75191 0.51115 0.06000
H 	H 	0.95933 0.74380 0.55106 0.06400
H 	H 	0.80454 0.78406 0.40199 0.06700
H 	H 	0.87805 0.86129 0.40516 0.07200
H 	H 	0.82257 0.84780 0.43837 0.07400
C 	C 	0.89422 0.09181 0.42608 -0.07800
C 	C 	0.88046 0.11177 0.46003 -0.00800
C 	C 	0.88829 0.09399 0.49617 0.03900
C 	C 	0.91446 0.06047 0.49844 -0.04600
C 	C 	0.93161 0.04359 0.46500 -0.04800
C 	C 	0.91893 0.05700 0.42816 0.06900
C 	C 	0.85987 0.15310 0.45784 0.00900
C 	C 	0.87055 0.11216 0.53254 -0.17900
H 	H 	0.92320 0.04908 0.52651 0.04400
C 	C 	0.93385 0.03634 0.39136 -0.19000
H 	H 	0.88693 0.10449 0.39823 0.05100
C 	C 	0.90595 0.21946 0.46652 0.02200
C 	C 	0.88473 0.25740 0.46897 -0.01300
C 	C 	0.81832 0.22994 0.46216 -0.11300
C 	C 	0.77257 0.16389 0.44960 0.10300
C 	C 	0.79370 0.12586 0.44833 -0.09600
C 	C 	0.97755 0.24980 0.47450 -0.16400
H 	H 	0.91984 0.30819 0.47768 0.03700
C 	C 	0.70118 0.13355 0.43870 -0.20400
H 	H 	0.75856 0.07496 0.44068 0.05300
H 	H 	0.98707 0.06641 0.39267 0.07300
H 	H 	0.91071 0.04016 0.36413 0.06700
H 	H 	0.91526 0.98627 0.38883 0.06900
H 	H 	0.81941 0.09518 0.52595 0.06600
H 	H 	0.90274 0.16423 0.54208 0.06300
H 	H 	0.87550 0.09117 0.55763 0.06400
H 	H 	0.00716 0.30194 0.47786 0.05600
H 	H 	0.99033 0.23222 0.44947 0.06800
H 	H 	0.99060 0.23848 0.50221 0.06200
H 	H 	0.67459 0.08579 0.42016 0.07000
H 	H 	0.69308 0.16214 0.42131 0.07500
H 	H 	0.68058 0.12902 0.46603 0.07200
C 	C 	0.24611 0.11987 0.50907 -0.07900
C 	C 	0.27092 0.14180 0.47512 -0.00600
C 	C 	0.22865 0.12942 0.44037 0.03800
C 	C 	0.16182 0.09429 0.44000 -0.04600
C 	C 	0.13693 0.07147 0.47376 -0.04800
C 	C 	0.17947 0.08569 0.50892 0.07000
C 	C 	0.34132 0.17720 0.47612 0.00700
C 	C 	0.25442 0.15217 0.40343 -0.17900
H 	H 	0.12899 0.08362 0.41319 0.04100
C 	C 	0.15393 0.06320 0.54597 -0.19200
H 	H 	0.27881 0.12961 0.53567 0.05200
C 	C 	0.38390 0.24318 0.48948 0.02700
C 	C 	0.45041 0.27563 0.48978 -0.01000
C 	C 	0.47480 0.24307 0.47708 -0.10300
C 	C 	0.43233 0.17700 0.46410 0.09700
C 	C 	0.36582 0.14450 0.46397 -0.09200
C 	C 	0.35866 0.27893 0.50371 -0.17300
H 	H 	0.48331 0.32633 0.49990 0.04600
C 	C 	0.45761 0.14116 0.45019 -0.20200
H 	H 	0.33293 0.09375 0.45408 0.05300
H 	H 	0.11904 0.07318 0.55180 0.07200
H 	H 	0.19359 0.08741 0.57238 0.06700
H 	H 	0.12936 0.01169 0.54246 0.07200
H 	H 	0.27558 0.12874 0.39227 0.06800
H 	H 	0.29233 0.20404 0.41000 0.06600
H 	H 	0.21566 0.14148 0.37948 0.06300
H 	H 	0.39787 0.33048 0.51208 0.06600
H 	H 	0.33675 0.26234 0.53015 0.06900
H 	H 	0.32147 0.27139 0.47994 0.06400
H 	H 	0.49061 0.14468 0.47518 0.07400
H 	H 	0.48440 0.16092 0.42584 0.06300
H 	H 	0.41773 0.09038 0.43881 0.06800
C 	C 	0.80910 0.76201 0.03097 -0.08100
C 	C 	0.80988 0.71992 0.00380 -0.00400
C 	C 	0.84805 0.74216 0.97424 0.03700
C 	C 	0.88423 0.80623 0.97198 -0.04500
C 	C 	0.88359 0.84847 0.99913 -0.05100
C 	C 	0.84688 0.82653 0.02947 0.07400
C 	C 	0.76993 0.65230 0.00611 0.01100
C 	C 	0.84927 0.69749 0.94462 -0.18100
H 	H 	0.91250 0.82326 0.94878 0.04500
C 	C 	0.84714 0.87133 0.05993 -0.19400
H 	H 	0.77955 0.74457 0.05354 0.05000
C 	C 	0.79526 0.62820 0.02967 0.02600
C 	C 	0.76034 0.56274 0.02659 -0.01600
C 	C 	0.70041 0.52147 0.00080 -0.10200
C 	C 	0.67319 0.54568 0.97917 0.10300
C 	C 	0.70831 0.61111 0.98202 -0.09800
C 	C 	0.86039 0.67199 0.05694 -0.17400
H 	H 	0.78042 0.54382 0.04366 0.03100
C 	C 	0.60794 0.50195 0.95200 -0.20800
H 	H 	0.68874 0.62999 0.96443 0.05400
H 	H 	0.89745 0.91421 0.07162 0.07400
H 	H 	0.82653 0.84931 0.08556 0.06700
H 	H 	0.81763 0.88510 0.04630 0.07500
H 	H 	0.80048 0.66299 0.92578 0.07300
H 	H 	0.86373 0.67179 0.96026 0.07000
H 	H 	0.88438 0.72286 0.92490 0.06900
H 	H 	0.87144 0.64603 0.07514 0.06500
H 	H 	0.86110 0.70718 0.07753 0.06800
H 	H 	0.89909 0.69695 0.03928 0.06700
H 	H 	0.57122 0.46810 0.96837 0.07800
H 	H 	0.61109 0.47546 0.92664 0.08500
H 	H 	0.59093 0.52821 0.94004 0.07100
C 	C 	0.79442 0.02032 0.94384 -0.07200
C 	C 	0.81699 0.07647 0.96903 -0.01100
C 	C 	0.87728 0.11030 0.99528 0.04100
C 	C 	0.91279 0.08584 0.99705 -0.05400
C 	C 	0.88933 0.02875 0.97257 -0.04000
C 	C 	0.83111 0.99719 0.94448 0.06300
C 	C 	0.77742 0.09997 0.96731 0.01200
C 	C 	0.90300 0.17147 0.02208 -0.17900
H 	H 	0.95788 0.11038 0.01820 0.04700
C 	C 	0.80712 0.93819 0.91576 -0.18900
H 	H 	0.74849 0.99492 0.92342 0.04700
C 	C 	0.77957 0.13418 0.93788 0.02100
C 	C 	0.73958 0.15361 0.93583 -0.01000
C 	C 	0.69846 0.14046 0.96320 -0.11700
C 	C 	0.69627 0.10620 0.99266 0.10800
C 	C 	0.73601 0.08635 0.99452 -0.10200
C 	C 	0.82391 0.14947 0.90840 -0.17200
H 	H 	0.74121 0.17997 0.91328 0.02200
C 	C 	0.65269 0.09167 0.02252 -0.21400
H 	H 	0.73472 0.06022 0.01713 0.05900
H 	H 	0.77170 0.92901 0.88994 0.06600
H 	H 	0.78300 0.89707 0.93087 0.07400
H 	H 	0.84792 0.94288 0.90404 0.07300
H 	H 	0.87129 0.16238 0.04409 0.07000
H 	H 	0.90441 0.20482 0.00437 0.06800
H 	H 	0.95297 0.19461 0.03844 0.06500
H 	H 	0.82427 0.18133 0.88967 0.06500
H 	H 	0.80753 0.10537 0.88861 0.06700
H 	H 	0.87439 0.17345 0.92414 0.06500
H 	H 	0.64944 0.05695 0.03966 0.08300
H 	H 	0.60282 0.07131 0.00735 0.08800
H 	H 	0.67211 0.13562 0.04367 0.10600
C 	C 	0.19923 0.12268 0.99278 -0.08100
C 	C 	0.21307 0.08594 0.97112 -0.00700
C 	C 	0.16200 0.02468 0.95040 0.04100
C 	C 	0.09773 0.00069 0.95223 -0.04800
C 	C 	0.08386 0.03604 0.97560 -0.04400
C 	C 	0.13506 0.09787 0.99585 0.06500
C 	C 	0.28146 0.11069 0.97230 0.00600
C 	C 	0.17594 0.98356 0.92809 -0.18300
H 	H 	0.05841 0.95345 0.93654 0.04300
C 	C 	0.12183 0.13720 0.02114 -0.18700
H 	H 	0.23869 0.17003 0.00821 0.05100
C 	C 	0.31612 0.14586 0.94407 0.02300
C 	C 	0.38221 0.17264 0.94767 -0.01400
C 	C 	0.41470 0.16686 0.97987 -0.11500
C 	C 	0.37933 0.12986 0.00746 0.10800
C 	C 	0.31270 0.10130 0.00299 -0.09400
C 	C 	0.28384 0.15803 0.91147 -0.17200
H 	H 	0.40921 0.20053 0.92636 0.03700
C 	C 	0.41244 0.12204 0.04220 -0.21500
H 	H 	0.28543 0.07322 0.02415 0.05600
H 	H 	0.09621 0.15037 0.00202 0.07200
H 	H 	0.16739 0.18138 0.03829 0.06500
H 	H 	0.09179 0.11052 0.04277 0.07100
H 	H 	0.20081 0.97191 0.94927 0.06800
H 	H 	0.20733 0.00833 0.90654 0.06800
H 	H 	0.13079 0.93867 0.91125 0.06400
H 	H 	0.31615 0.18250 0.89021 0.06400
H 	H 	0.27083 0.18811 0.92450 0.06500
H 	H 	0.23926 0.11288 0.89451 0.06400
H 	H 	0.37874 0.09530 0.06232 0.08100
H 	H 	0.45332 0.16887 0.05990 0.09700
H 	H 	0.43075 0.09563 0.03140 0.10000
