data_crystal

_cell_length_a 35.22454
_cell_length_b 35.75942
_cell_length_c 40.18094
_cell_angle_alpha 95.55418
_cell_angle_beta  95.55877
_cell_angle_gamma 125.43989

_symmetry_space_group_name_	'P 1'
_symmetry_space_group_name_H-M	'P 1'

loop_
_symmetry_equiv_pos_as_xyz
  x,y,z

loop_
_atom_site_label
_atom_site_type_symbol
_atom_site_fract_x
_atom_site_fract_y
_atom_site_fract_z
_atom_site_charge
C 	C 	0.98008 0.02349 0.99642 0.13100
C 	C 	0.04811 0.02731 0.99127 0.13200
N 	N 	0.02678 0.04882 0.99443 -0.14000
C 	C 	0.95180 0.99738 0.45363 0.13500
C 	C 	0.02156 0.00216 0.45716 0.13200
N 	N 	0.99927 0.02277 0.45453 -0.14200
Cu	Cu	0.65641 0.26656 0.99666 0.92800
Cu	Cu	0.69090 0.26467 0.92386 0.87100
Cu	Cu	0.68425 0.34030 0.95222 0.89700
Cu	Cu	0.65953 0.35488 0.01935 0.89400
C 	C 	0.67230 0.30290 0.06776 0.28800
O 	O 	0.58773 0.24070 0.99670 -0.36300
C 	C 	0.66503 0.30568 0.87797 0.28900
O 	O 	0.69599 0.33927 0.99955 -0.64000
O 	O 	0.64972 0.27123 0.94810 -0.64100
O 	O 	0.68393 0.23117 0.99423 -0.37500
O 	O 	0.73595 0.27696 0.96156 -0.44200
O 	O 	0.65181 0.32287 0.05903 -0.38400
O 	O 	0.72109 0.40775 0.95953 -0.38300
C 	C 	0.71832 0.43390 0.98327 0.30900
C 	C 	0.56978 0.26111 0.98430 0.30200
O 	O 	0.59808 0.30442 0.98002 -0.39300
O 	O 	0.68703 0.41548 0.00353 -0.39600
O 	O 	0.67301 0.27415 0.04494 -0.36200
C 	C 	0.72337 0.24768 0.98266 0.31000
O 	O 	0.68335 0.34174 0.90311 -0.38600
O 	O 	0.66076 0.26766 0.88319 -0.41900
H 	H 	0.72997 0.35874 0.01035 0.16300
H 	H 	0.61665 0.25285 0.93544 0.17300
Cu	Cu	0.72360 0.33459 0.45230 0.92800
Cu	Cu	0.72075 0.29622 0.52343 0.86700
Cu	Cu	0.64933 0.30996 0.49664 0.89600
Cu	Cu	0.63309 0.33004 0.42860 0.89400
C 	C 	0.68684 0.31812 0.38112 0.28900
O 	O 	0.74877 0.40213 0.45228 -0.36200
C 	C 	0.67644 0.31739 0.56991 0.28500
O 	O 	0.64955 0.29510 0.44948 -0.64100
O 	O 	0.71886 0.34091 0.50085 -0.64100
O 	O 	0.76027 0.30819 0.45488 -0.37300
O 	O 	0.71097 0.25444 0.48490 -0.44400
O 	O 	0.66668 0.33845 0.38955 -0.38400
O 	O 	0.58100 0.27514 0.49070 -0.38500
C 	C 	0.55314 0.27388 0.46540 0.31000
C 	C 	0.72729 0.41919 0.46437 0.30100
O 	O 	0.68310 0.39079 0.46813 -0.39500
O 	O 	0.57025 0.30105 0.44259 -0.39500
O 	O 	0.71635 0.31812 0.40409 -0.36100
C 	C 	0.74291 0.26865 0.46552 0.31000
O 	O 	0.65117 0.32130 0.54583 -0.37700
O 	O 	0.71525 0.32184 0.56510 -0.41800
H 	H 	0.62961 0.26126 0.43971 0.16300
H 	H 	0.73894 0.37319 0.51420 0.17500
C 	C 	0.65568 0.31059 0.84267 -0.09000
C 	C 	0.68530 0.35377 0.83250 0.01600
C 	C 	0.68160 0.35654 0.79796 -0.07000
C 	C 	0.64818 0.31630 0.77343 0.03900
C 	C 	0.61656 0.27389 0.78371 -0.07100
C 	C 	0.62024 0.27101 0.81818 0.01600
C 	C 	0.65016 0.31713 0.73785 -0.02200
C 	C 	0.65116 0.31697 0.70793 -0.02200
C 	C 	0.65312 0.31522 0.67221 0.04000
C 	C 	0.65066 0.27835 0.65375 -0.07100
C 	C 	0.65703 0.27854 0.61998 0.01600
C 	C 	0.66547 0.31540 0.60430 -0.09000
C 	C 	0.66642 0.35162 0.62242 0.02200
C 	C 	0.66048 0.35163 0.65639 -0.07100
H 	H 	0.71257 0.38469 0.85111 0.03600
H 	H 	0.70596 0.38955 0.79022 0.04900
H 	H 	0.59031 0.24273 0.76490 0.04700
H 	H 	0.59651 0.23771 0.82574 0.02900
H 	H 	0.64480 0.25002 0.66578 0.04700
H 	H 	0.65602 0.25034 0.60613 0.01500
H 	H 	0.67304 0.38031 0.61054 0.03200
H 	H 	0.66246 0.38029 0.67052 0.05000
C 	C 	0.68331 0.30334 0.10421 -0.08600
C 	C 	0.70177 0.34379 0.12836 0.01600
C 	C 	0.70608 0.34258 0.16312 -0.07000
C 	C 	0.69200 0.30100 0.17402 0.04000
C 	C 	0.67571 0.26116 0.15008 -0.06900
C 	C 	0.67145 0.26230 0.11527 0.02000
C 	C 	0.69041 0.29822 0.20944 -0.02100
C 	C 	0.68943 0.29689 0.23923 -0.02100
C 	C 	0.68742 0.29620 0.27481 0.04000
C 	C 	0.64504 0.28115 0.28596 -0.07000
C 	C 	0.64439 0.28632 0.32078 0.01600
C 	C 	0.68615 0.30658 0.34475 -0.08600
C 	C 	0.72808 0.31956 0.33350 0.02000
C 	C 	0.72870 0.31450 0.29863 -0.06900
H 	H 	0.71171 0.37584 0.12018 0.02300
H 	H 	0.71908 0.37363 0.18151 0.04900
H 	H 	0.66500 0.22895 0.15835 0.05000
H 	H 	0.65726 0.23085 0.09694 0.04000
H 	H 	0.61292 0.26669 0.26767 0.04900
H 	H 	0.61169 0.27561 0.32913 0.02200
H 	H 	0.76057 0.33519 0.35171 0.04000
H 	H 	0.76156 0.32606 0.29018 0.05000
C 	C 	0.78395 0.55724 0.47028 -0.00900
C 	C 	0.83307 0.59215 0.47727 -0.03000
C 	C 	0.85101 0.63874 0.47700 -0.04400
C 	C 	0.81988 0.65065 0.46973 0.01100
C 	C 	0.77070 0.61569 0.46318 -0.04400
C 	C 	0.75282 0.56915 0.46345 -0.03000
C 	C 	0.83880 0.69952 0.46821 0.00500
C 	C 	0.86623 0.73464 0.49734 -0.03800
C 	C 	0.88587 0.78122 0.49550 -0.04000
C 	C 	0.87821 0.79302 0.46455 0.01300
C 	C 	0.84995 0.75788 0.43561 -0.04000
C 	C 	0.83030 0.71127 0.43741 -0.03800
C 	C 	0.90233 0.84143 0.46192 0.00500
C 	C 	0.76540 0.50892 0.46871 0.04600
C 	C 	0.74875 0.46817 0.46720 -0.10900
H 	H 	0.85735 0.58320 0.48252 0.03900
H 	H 	0.88904 0.66546 0.48202 0.04200
H 	H 	0.74639 0.62455 0.45772 0.04200
H 	H 	0.71480 0.54233 0.45804 0.03900
H 	H 	0.87268 0.72589 0.52129 0.04000
H 	H 	0.90770 0.80821 0.51798 0.04300
H 	H 	0.84395 0.76673 0.41158 0.04300
H 	H 	0.80915 0.68441 0.41478 0.04000
C 	C 	0.79749 0.19552 0.44974 -0.01200
C 	C 	0.84578 0.21688 0.46134 -0.03000
C 	C 	0.86332 0.19042 0.45925 -0.04500
C 	C 	0.83265 0.14237 0.44549 0.01100
C 	C 	0.78450 0.12127 0.43319 -0.04500
C 	C 	0.76701 0.14778 0.43533 -0.03000
C 	C 	0.85069 0.11397 0.44493 0.00500
C 	C 	0.88629 0.12379 0.42641 -0.03800
C 	C 	0.90512 0.09850 0.42734 -0.04000
C 	C 	0.88848 0.06320 0.44674 0.01200
C 	C 	0.85232 0.05275 0.46476 -0.04000
C 	C 	0.83347 0.07804 0.46387 -0.03800
C 	C 	0.91003 0.03923 0.44936 0.00600
C 	C 	0.92849 0.01954 0.45126 -0.04100
C 	C 	0.77858 0.22174 0.45492 0.04700
C 	C 	0.76255 0.24350 0.45920 -0.12100
H 	H 	0.86955 0.25375 0.47257 0.03700
H 	H 	0.90053 0.20703 0.46884 0.04100
H 	H 	0.76060 0.08430 0.42230 0.04100
H 	H 	0.72963 0.13102 0.42631 0.03800
H 	H 	0.89963 0.15126 0.41157 0.04000
H 	H 	0.93302 0.10673 0.41330 0.04300
H 	H 	0.83927 0.02551 0.47981 0.04200
H 	H 	0.80607 0.07024 0.47831 0.03900
C 	C 	0.41149 0.20089 0.46610 -0.00900
C 	C 	0.37991 0.15457 0.44854 -0.03000
C 	C 	0.33119 0.13009 0.44781 -0.04400
C 	C 	0.31377 0.15181 0.46467 0.01100
C 	C 	0.34549 0.19812 0.48242 -0.04400
C 	C 	0.39420 0.22257 0.48311 -0.02900
C 	C 	0.26234 0.12613 0.46367 0.00500
C 	C 	0.23779 0.08601 0.47823 -0.03800
C 	C 	0.18897 0.06144 0.47702 -0.04000
C 	C 	0.16440 0.07681 0.46128 0.01300
C 	C 	0.18886 0.11696 0.44684 -0.04000
C 	C 	0.23770 0.14156 0.44801 -0.03800
C 	C 	0.11400 0.05102 0.45962 0.00500
C 	C 	0.07180 0.02903 0.45844 -0.03900
C 	C 	0.46150 0.22652 0.46597 0.04700
C 	C 	0.50336 0.24795 0.46584 -0.10800
H 	H 	0.39304 0.13764 0.43529 0.03700
H 	H 	0.30697 0.09439 0.43398 0.04100
H 	H 	0.33240 0.21510 0.49565 0.04200
H 	H 	0.41843 0.25838 0.49674 0.04000
H 	H 	0.25653 0.07394 0.49050 0.04000
H 	H 	0.17027 0.03044 0.48826 0.04300
H 	H 	0.17007 0.12902 0.43460 0.04300
H 	H 	0.25632 0.17242 0.43662 0.04000
C 	C 	0.78971 0.57337 0.98384 -0.00800
C 	C 	0.81808 0.60544 0.01416 -0.03100
C 	C 	0.84074 0.65318 0.01518 -0.04500
C 	C 	0.83518 0.66914 0.98583 0.01200
C 	C 	0.80698 0.63698 0.95542 -0.04400
C 	C 	0.78430 0.58923 0.95445 -0.03000
C 	C 	0.85923 0.71950 0.98688 0.00500
C 	C 	0.90896 0.75049 0.99373 -0.03800
C 	C 	0.93179 0.79828 0.99493 -0.03900
C 	C 	0.90510 0.81540 0.98927 0.01200
C 	C 	0.85543 0.78454 0.98242 -0.04000
C 	C 	0.83252 0.73670 0.98123 -0.03800
C 	C 	0.76469 0.52409 0.98328 0.04700
C 	C 	0.74389 0.48289 0.98307 -0.10800
H 	H 	0.82227 0.59337 0.03700 0.03700
H 	H 	0.86240 0.67773 0.03878 0.04100
H 	H 	0.80271 0.64901 0.93259 0.04200
H 	H 	0.76234 0.56459 0.93093 0.04000
H 	H 	0.92986 0.73751 0.99801 0.04000
H 	H 	0.97022 0.82196 0.00018 0.04200
H 	H 	0.83459 0.79756 0.97801 0.04300
H 	H 	0.79410 0.71305 0.97605 0.04000
C 	C 	0.91464 0.08704 0.00401 0.01300
C 	C 	0.86571 0.06106 0.99193 -0.04000
C 	C 	0.84326 0.08291 0.99296 -0.03700
C 	C 	0.86965 0.13093 0.00613 0.00400
C 	C 	0.91852 0.15673 0.01880 -0.03800
C 	C 	0.94094 0.13482 0.01771 -0.04000
C 	C 	0.84655 0.15458 0.00510 0.01000
C 	C 	0.80928 0.14120 0.02274 -0.04400
C 	C 	0.78531 0.16146 0.01986 -0.03100
C 	C 	0.79850 0.19520 0.99939 -0.01100
C 	C 	0.83643 0.20940 0.98244 -0.03100
C 	C 	0.86037 0.18916 0.98525 -0.04400
C 	C 	0.77153 0.21339 0.99421 0.04700
C 	C 	0.74950 0.22911 0.98946 -0.12000
C 	C 	0.93803 0.06490 0.00150 0.00300
C 	C 	0.95732 0.04607 0.99929 -0.03700
H 	H 	0.84517 0.02408 0.98137 0.04300
H 	H 	0.80556 0.06273 0.98301 0.03900
H 	H 	0.93915 0.19376 0.02914 0.04000
H 	H 	0.97877 0.15509 0.02720 0.04300
H 	H 	0.79854 0.11476 0.03830 0.04100
H 	H 	0.75608 0.15040 0.03310 0.04000
H 	H 	0.84683 0.23551 0.96660 0.03600
H 	H 	0.88903 0.19966 0.97150 0.04100
C 	C 	0.18869 0.10025 0.98710 0.01400
C 	C 	0.22032 0.10735 0.01532 -0.04100
C 	C 	0.26796 0.12878 0.01352 -0.03900
C 	C 	0.28430 0.14329 0.98345 0.00600
C 	C 	0.25273 0.13678 0.95537 -0.03800
C 	C 	0.20504 0.11530 0.95720 -0.04000
C 	C 	0.33433 0.16490 0.98134 0.01200
C 	C 	0.37054 0.20740 0.00286 -0.04500
C 	C 	0.41805 0.22662 0.00221 -0.03000
C 	C 	0.42969 0.20353 0.98005 -0.00900
C 	C 	0.39361 0.16146 0.95813 -0.03000
C 	C 	0.34602 0.14217 0.95876 -0.04400
C 	C 	0.47867 0.22251 0.98053 0.04700
C 	C 	0.52007 0.23952 0.98170 -0.11100
C 	C 	0.13901 0.07506 0.98820 0.00500
C 	C 	0.09753 0.05390 0.98955 -0.03900
H 	H 	0.20787 0.09569 0.03848 0.04300
H 	H 	0.29207 0.13363 0.03532 0.04000
H 	H 	0.26509 0.14814 0.93212 0.04000
H 	H 	0.18075 0.10987 0.93527 0.04300
H 	H 	0.36185 0.22529 0.02026 0.04200
H 	H 	0.44580 0.25923 0.01916 0.03800
H 	H 	0.40237 0.14347 0.94089 0.03800
H 	H 	0.31829 0.10929 0.94210 0.04100
N 	N 	0.95476 0.97668 0.99523 -0.14000
C 	C 	0.97619 0.95527 0.99209 0.13300
N 	N 	0.02281 0.98060 0.99012 -0.14000
N 	N 	0.92659 0.95129 0.45541 -0.14000
C 	C 	0.94898 0.93071 0.45803 0.13300
N 	N 	0.99641 0.95619 0.45891 -0.14000
C 	C 	0.92273 0.88209 0.46008 -0.03900
C 	C 	0.92883 0.86457 0.99014 0.00600
C 	C 	0.94978 0.90593 0.99104 -0.03900
