data_crystal

_cell_length_a 18.50869
_cell_length_b 18.81554
_cell_length_c 34.64236
_cell_angle_alpha 95.42347
_cell_angle_beta  95.42340
_cell_angle_gamma 126.44058

_symmetry_space_group_name_	'P 1'
_symmetry_space_group_name_H-M	'P 1'

loop_
_symmetry_equiv_pos_as_xyz
  x,y,z

loop_
_atom_site_label
_atom_site_type_symbol
_atom_site_fract_x
_atom_site_fract_y
_atom_site_fract_z
_atom_site_charge
C 	C 	0.86750 0.94159 0.96408 0.11600
N 	N 	0.82121 0.85112 0.96092 -0.14100
C 	C 	0.86751 0.81575 0.95938 0.11800
N 	N 	0.95936 0.87083 0.96127 -0.14200
C 	C 	0.00575 0.96119 0.96619 0.11500
N 	N 	0.95958 0.99620 0.96724 -0.14200
C 	C 	0.99712 0.09468 0.50106 0.11400
N 	N 	0.94500 0.00452 0.49963 -0.13800
C 	C 	0.98468 0.96290 0.50085 0.10700
N 	N 	0.07605 0.01104 0.50293 -0.13900
C 	C 	0.12842 0.10104 0.50470 0.11600
N 	N 	0.08913 0.14324 0.50386 -0.14200
Cu	Cu	0.71674 0.28584 0.95198 0.92800
Cu	Cu	0.70637 0.22561 0.03798 0.86400
Cu	Cu	0.58163 0.26054 0.00337 0.89000
Cu	Cu	0.53977 0.26703 0.91970 0.89500
C 	C 	0.64662 0.24276 0.86877 0.29200
O 	O 	0.76109 0.41311 0.94660 -0.35900
C 	C 	0.63695 0.29014 0.08923 0.28300
O 	O 	0.57519 0.21171 0.95025 -0.63500
O 	O 	0.71220 0.31012 0.00790 -0.64800
O 	O 	0.78004 0.22933 0.95906 -0.36700
O 	O 	0.67907 0.13688 0.99582 -0.43300
O 	O 	0.60920 0.28273 0.87659 -0.39000
O 	O 	0.45220 0.20479 0.99909 -0.38200
C 	C 	0.39272 0.18394 0.96735 0.30200
C 	C 	0.71830 0.44561 0.95842 0.28400
O 	O 	0.63262 0.39038 0.96262 -0.40300
O 	O 	0.41567 0.19796 0.93233 -0.40200
O 	O 	0.70000 0.24299 0.89691 -0.36600
C 	C 	0.74093 0.15598 0.97438 0.29100
O 	O 	0.59330 0.29906 0.05988 -0.38300
O 	O 	0.70538 0.28777 0.08453 -0.42200
H 	H 	0.53579 0.14519 0.94370 0.16600
H 	H 	0.75560 0.37386 0.02140 0.16800
Cu	Cu	0.66779 0.26453 0.51076 0.92600
Cu	Cu	0.70563 0.25292 0.42077 0.86900
Cu	Cu	0.70866 0.40264 0.45879 0.89700
Cu	Cu	0.69409 0.44244 0.54376 0.89400
C 	C 	0.69642 0.32218 0.59381 0.28700
O 	O 	0.53959 0.21513 0.51831 -0.37500
C 	C 	0.64561 0.32937 0.37263 0.28700
O 	O 	0.74697 0.40445 0.51246 -0.63800
O 	O 	0.63919 0.27007 0.45524 -0.64200
O 	O 	0.71997 0.19839 0.50261 -0.38000
O 	O 	0.80429 0.28320 0.45932 -0.44300
O 	O 	0.71521 0.40137 0.59178 -0.39000
O 	O 	0.78377 0.53210 0.46585 -0.38900
C 	C 	0.78527 0.58394 0.49491 0.29800
C 	C 	0.50766 0.26055 0.51302 0.29300
O 	O 	0.56139 0.34267 0.50663 -0.39700
O 	O 	0.73086 0.54991 0.52077 -0.39900
O 	O 	0.71004 0.28084 0.56577 -0.37300
C 	C 	0.79033 0.23085 0.48479 0.29500
O 	O 	0.68913 0.40077 0.40141 -0.39200
O 	O 	0.63539 0.25559 0.37786 -0.42200
H 	H 	0.81399 0.43935 0.52061 0.16300
H 	H 	0.57320 0.23565 0.44433 0.17200
C 	C 	0.70258 0.21766 0.68121 -0.06500
C 	C 	0.66329 0.24238 0.70668 0.01900
C 	C 	0.63255 0.29064 0.69451 -0.06400
C 	C 	0.64228 0.31533 0.65752 0.01000
C 	C 	0.68274 0.29193 0.63212 -0.08700
C 	C 	0.71207 0.24208 0.64401 0.01300
C 	C 	0.65832 0.22205 0.74689 0.01900
H 	H 	0.60257 0.31044 0.71406 0.04300
H 	H 	0.61921 0.35355 0.64877 0.02300
H 	H 	0.74376 0.22381 0.62488 0.03300
H 	H 	0.72655 0.18040 0.69037 0.04300
C 	C 	0.57334 0.17108 0.75881 -0.06400
C 	C 	0.56927 0.17120 0.79890 0.01100
C 	C 	0.65010 0.22162 0.82736 -0.08700
C 	C 	0.73479 0.26500 0.81517 0.01500
C 	C 	0.73890 0.26544 0.77506 -0.06400
H 	H 	0.51065 0.13575 0.73721 0.04200
H 	H 	0.50346 0.13613 0.80795 0.02000
H 	H 	0.79765 0.30334 0.83686 0.03500
H 	H 	0.80485 0.30402 0.76613 0.04400
C 	C 	0.59961 0.37151 0.18382 -0.06600
C 	C 	0.59854 0.31535 0.20814 0.01800
C 	C 	0.60486 0.24806 0.19253 -0.06600
C 	C 	0.61459 0.23840 0.15336 0.01000
C 	C 	0.61806 0.29581 0.12925 -0.09100
C 	C 	0.60901 0.36155 0.14441 0.01400
C 	C 	0.59720 0.33043 0.25058 0.01700
H 	H 	0.60446 0.20463 0.21109 0.04100
H 	H 	0.62080 0.18702 0.14185 0.01400
H 	H 	0.61176 0.40639 0.12608 0.03000
H 	H 	0.59466 0.42361 0.19559 0.04200
C 	C 	0.67326 0.40848 0.27580 -0.06500
C 	C 	0.68496 0.41193 0.31661 0.00900
C 	C 	0.62103 0.33702 0.33239 -0.09100
C 	C 	0.54033 0.26303 0.30756 0.01100
C 	C 	0.52824 0.25996 0.26683 -0.06500
H 	H 	0.72623 0.46395 0.26363 0.04100
H 	H 	0.74672 0.47023 0.33558 0.02800
H 	H 	0.48928 0.20584 0.31955 0.02600
H 	H 	0.46811 0.20032 0.24768 0.04200
C 	C 	0.90091 0.74096 0.52935 -0.02200
C 	C 	0.83803 0.68062 0.49517 -0.10700
C 	C 	0.81887 0.71302 0.46362 0.09500
C 	C 	0.86578 0.80590 0.46640 -0.07500
C 	C 	0.92926 0.86610 0.50049 -0.02500
C 	C 	0.94495 0.83330 0.53271 0.04100
C 	C 	0.00995 0.89659 0.57042 -0.17500
H 	H 	0.91433 0.71564 0.55370 0.02800
H 	H 	0.85393 0.83154 0.44177 0.04700
C 	C 	0.74946 0.64925 0.42692 -0.20200
H 	H 	0.99920 0.85998 0.59524 0.05800
H 	H 	0.99924 0.94761 0.57910 0.06500
H 	H 	0.08159 0.93106 0.56623 0.06600
H 	H 	0.68392 0.59514 0.43489 0.07500
H 	H 	0.77593 0.61891 0.41000 0.08200
H 	H 	0.73463 0.68431 0.40735 0.06500
C 	C 	0.86436 0.16924 0.45583 -0.02100
C 	C 	0.84728 0.20020 0.48962 -0.11300
C 	C 	0.88691 0.20400 0.52750 0.09600
C 	C 	0.93822 0.17143 0.53079 -0.07500
C 	C 	0.95306 0.13834 0.49695 -0.02500
C 	C 	0.91788 0.13926 0.45921 0.04000
C 	C 	0.93473 0.10554 0.42248 -0.17700
H 	H 	0.83498 0.16749 0.42682 0.01800
H 	H 	0.96552 0.17062 0.55972 0.04900
C 	C 	0.87309 0.24047 0.56440 -0.20400
H 	H 	0.91052 0.11891 0.39554 0.05600
H 	H 	0.89806 0.03185 0.41910 0.06600
H 	H 	0.00907 0.13977 0.42449 0.06500
H 	H 	0.80243 0.19059 0.56921 0.08600
H 	H 	0.88474 0.30481 0.56185 0.07700
H 	H 	0.92155 0.25415 0.59082 0.06800
C 	C 	0.27899 0.16074 0.54297 -0.07100
C 	C 	0.22757 0.15224 0.50798 -0.02800
C 	C 	0.26815 0.17841 0.47443 0.04300
C 	C 	0.35900 0.21025 0.47609 -0.02200
C 	C 	0.40990 0.21715 0.51086 -0.10800
C 	C 	0.37009 0.19338 0.54476 0.08900
C 	C 	0.42495 0.20433 0.58304 -0.20000
H 	H 	0.24723 0.13989 0.56857 0.04700
H 	H 	0.39048 0.23034 0.45037 0.03200
C 	C 	0.21432 0.17092 0.43665 -0.17900
H 	H 	0.38479 0.18552 0.60712 0.06500
H 	H 	0.48631 0.27559 0.59245 0.06300
H 	H 	0.44669 0.16078 0.57913 0.07900
H 	H 	0.18952 0.21142 0.44220 0.06700
H 	H 	0.15487 0.09951 0.42522 0.06600
H 	H 	0.25651 0.19600 0.41340 0.06000
C 	C 	0.78538 0.57785 0.92534 -0.02800
C 	C 	0.76010 0.54176 0.95960 -0.09900
C 	C 	0.76499 0.59462 0.99316 0.09000
C 	C 	0.79324 0.68200 0.99152 -0.05800
C 	C 	0.81938 0.71831 0.95738 -0.03300
C 	C 	0.81326 0.66503 0.92369 0.04700
C 	C 	0.83863 0.70161 0.88626 -0.18100
H 	H 	0.78104 0.53713 0.89953 0.04400
H 	H 	0.79813 0.72300 0.01736 0.03600
C 	C 	0.74012 0.55832 0.03069 -0.20500
H 	H 	0.81194 0.64689 0.86059 0.06200
H 	H 	0.91420 0.74916 0.88973 0.06900
H 	H 	0.80925 0.73712 0.87950 0.06600
H 	H 	0.77198 0.52537 0.03808 0.06100
H 	H 	0.66469 0.50873 0.02702 0.07100
H 	H 	0.76455 0.61282 0.05611 0.06400
C 	C 	0.82515 0.02387 0.00332 -0.07100
C 	C 	0.81939 0.98182 0.96633 -0.02300
C 	C 	0.78700 0.99657 0.93171 0.03900
C 	C 	0.76502 0.05662 0.93469 -0.01900
C 	C 	0.77390 0.10108 0.97174 -0.09000
C 	C 	0.80589 0.08578 0.00636 0.06800
C 	C 	0.82024 0.13556 0.04659 -0.18300
H 	H 	0.84997 0.01242 0.02984 0.04600
H 	H 	0.74014 0.06799 0.90817 0.04300
C 	C 	0.77972 0.95165 0.89157 -0.17800
H 	H 	0.86522 0.13291 0.06903 0.05800
H 	H 	0.75344 0.10472 0.05603 0.03700
H 	H 	0.85360 0.20765 0.04602 0.03100
H 	H 	0.74347 0.87857 0.89067 0.06700
H 	H 	0.84923 0.98230 0.88519 0.06500
H 	H 	0.74089 0.95902 0.86794 0.06100
C 	C 	0.14401 0.09085 0.94703 -0.07400
C 	C 	0.10576 0.02130 0.96878 -0.02300
C 	C 	0.16375 0.01204 0.99373 0.05400
C 	C 	0.25757 0.06590 0.99294 -0.01100
C 	C 	0.29539 0.13373 0.97024 -0.10600
C 	C 	0.23883 0.14999 0.94914 0.09300
C 	C 	0.27863 0.22982 0.92882 -0.19800
H 	H 	0.09990 0.09949 0.92867 0.05300
H 	H 	0.30112 0.05459 0.00984 0.02800
C 	C 	0.12649 0.94507 0.02109 -0.19300
H 	H 	0.23124 0.24745 0.92408 0.06700
H 	H 	0.29090 0.21385 0.89962 0.07100
H 	H 	0.34374 0.29007 0.94704 0.07000
H 	H 	0.09357 0.87657 0.00418 0.06700
H 	H 	0.07609 0.94574 0.03583 0.06700
H 	H 	0.18181 0.96144 0.04477 0.05900
