data_crystal

_cell_length_a 18.00347
_cell_length_b 19.63287
_cell_length_c 26.45539
_cell_angle_alpha 95.42768
_cell_angle_beta  95.43024
_cell_angle_gamma 126.41297

_symmetry_space_group_name_	'P 1'
_symmetry_space_group_name_H-M	'P 1'

loop_
_symmetry_equiv_pos_as_xyz
  x,y,z

loop_
_atom_site_label
_atom_site_type_symbol
_atom_site_fract_x
_atom_site_fract_y
_atom_site_fract_z
_atom_site_charge
C 	C 	0.96615 0.04413 0.97094 0.04500
C 	C 	0.06337 0.09088 0.97384 -0.08500
C 	C 	0.10343 0.04780 0.97071 0.04200
C 	C 	0.04649 0.95795 0.96644 -0.08600
C 	C 	0.94846 0.91029 0.96140 0.04200
C 	C 	0.90851 0.95384 0.96318 -0.08200
H 	H 	0.10775 0.16058 0.97881 0.05300
H 	H 	0.07834 0.92533 0.96726 0.05300
H 	H 	0.83308 0.91770 0.95967 0.05200
C 	C 	0.90242 0.99579 0.49933 0.02300
C 	C 	0.84319 0.90556 0.49272 -0.06600
C 	C 	0.88051 0.86036 0.48778 0.02600
C 	C 	0.97656 0.90481 0.48841 -0.05500
C 	C 	0.03575 0.99455 0.49415 0.01200
C 	C 	0.99908 0.04031 0.50032 -0.05400
H 	H 	0.76815 0.87061 0.49053 0.05200
H 	H 	0.00507 0.86950 0.48387 0.04500
H 	H 	0.04499 0.10992 0.50450 0.04300
Cu	Cu	0.68454 0.26664 0.01211 0.92900
Cu	Cu	0.78965 0.29776 0.91394 0.86400
Cu	Cu	0.70793 0.38116 0.93502 0.88600
Cu	Cu	0.67469 0.42114 0.03878 0.89900
C 	C 	0.69999 0.33413 0.11721 0.28400
O 	O 	0.54539 0.21071 0.00747 -0.35600
C 	C 	0.70018 0.31729 0.82698 0.27800
O 	O 	0.74905 0.39699 0.00897 -0.63800
O 	O 	0.67561 0.26569 0.93731 -0.64500
O 	O 	0.74402 0.20724 0.01529 -0.35700
O 	O 	0.85821 0.30571 0.97593 -0.44000
O 	O 	0.65343 0.36124 0.09842 -0.38500
O 	O 	0.73103 0.49238 0.93275 -0.38100
C 	C 	0.75121 0.55119 0.97219 0.28800
C 	C 	0.50448 0.24201 0.98672 0.27900
O 	O 	0.55578 0.32196 0.97886 -0.39700
O 	O 	0.74587 0.53574 0.01960 -0.39000
O 	O 	0.71604 0.28912 0.08632 -0.36200
C 	C 	0.82232 0.23824 0.99799 0.29600
O 	O 	0.68383 0.36162 0.85878 -0.38100
O 	O 	0.73202 0.27653 0.84429 -0.42000
H 	H 	0.81775 0.43977 0.02134 0.15900
H 	H 	0.61549 0.21741 0.91466 0.17800
Cu	Cu	0.61423 0.21926 0.50179 0.92500
Cu	Cu	0.66639 0.18676 0.39076 0.88000
Cu	Cu	0.63910 0.33640 0.42566 0.91000
Cu	Cu	0.57096 0.35220 0.52279 0.89600
C 	C 	0.62596 0.28925 0.60638 0.28100
O 	O 	0.47352 0.14419 0.49991 -0.36200
C 	C 	0.68298 0.30648 0.33039 0.28200
O 	O 	0.66239 0.34573 0.49911 -0.63900
O 	O 	0.59500 0.21557 0.42569 -0.62800
O 	O 	0.70328 0.18905 0.50858 -0.37300
O 	O 	0.64288 0.10267 0.42940 -0.42100
O 	O 	0.57072 0.30828 0.58788 -0.38300
O 	O 	0.68705 0.45497 0.42992 -0.37800
C 	C 	0.67088 0.49427 0.46539 0.29300
C 	C 	0.42160 0.16426 0.47851 0.29000
O 	O 	0.46235 0.24011 0.46575 -0.39300
O 	O 	0.59965 0.44993 0.48940 -0.39100
O 	O 	0.64553 0.24629 0.57602 -0.36000
C 	C 	0.69351 0.12837 0.47572 0.29500
O 	O 	0.63367 0.32634 0.35174 -0.38000
O 	O 	0.72967 0.28716 0.35870 -0.42300
H 	H 	0.72793 0.39311 0.51637 0.16100
H 	H 	0.52804 0.17373 0.40894 0.15900
C 	C 	0.68279 0.37460 0.74985 -0.01400
C 	C 	0.67699 0.30862 0.77054 -0.06600
C 	C 	0.65487 0.23652 0.73697 -0.01300
C 	C 	0.64021 0.23108 0.68349 -0.01000
C 	C 	0.64660 0.29723 0.66281 -0.06500
C 	C 	0.66756 0.36886 0.69624 -0.01300
H 	H 	0.70066 0.43095 0.77521 0.04200
H 	H 	0.64899 0.18459 0.75232 0.04000
H 	H 	0.62237 0.17472 0.65814 0.04500
H 	H 	0.67262 0.42032 0.68071 0.03200
C 	C 	0.70825 0.38830 0.25912 -0.00600
C 	C 	0.69756 0.31860 0.27715 -0.07500
C 	C 	0.69887 0.25937 0.24382 -0.01000
C 	C 	0.70532 0.26702 0.19206 -0.01400
C 	C 	0.71117 0.33441 0.17331 -0.06400
C 	C 	0.71595 0.39664 0.20765 -0.01400
H 	H 	0.70985 0.43568 0.28485 0.04300
H 	H 	0.69188 0.20590 0.25756 0.01900
H 	H 	0.70227 0.21883 0.16625 0.04700
H 	H 	0.72279 0.45014 0.19405 0.03400
C 	C 	0.72167 0.58761 0.47146 -0.09600
C 	C 	0.72425 0.62395 0.42790 -0.00000
C 	C 	0.77290 0.71294 0.43302 -0.00500
C 	C 	0.81924 0.76621 0.48223 0.00600
C 	C 	0.81492 0.72970 0.52587 -0.07300
C 	C 	0.76724 0.64094 0.52076 0.05800
S 	S 	0.77623 0.75709 0.37759 -0.04100
S 	S 	0.76954 0.59798 0.57594 -0.08200
H 	H 	0.84437 0.59559 0.58110 0.03200
H 	H 	0.70392 0.76294 0.37092 0.03500
H 	H 	0.68848 0.58296 0.39004 0.04200
H 	H 	0.85125 0.77086 0.56366 0.05200
C 	C 	0.86149 0.04243 0.49868 0.00900
C 	C 	0.86838 0.08489 0.45763 -0.07700
C 	C 	0.81871 0.11847 0.45174 0.06600
C 	C 	0.75769 0.10600 0.48592 -0.10400
C 	C 	0.75586 0.06903 0.52904 0.00200
C 	C 	0.80866 0.03846 0.53607 -0.00600
S 	S 	0.83739 0.17978 0.40321 -0.12300
S 	S 	0.81070 0.99827 0.59252 -0.04500
H 	H 	0.88418 0.06404 0.62987 0.03700
H 	H 	0.90846 0.26497 0.42312 0.03900
H 	H 	0.91134 0.09059 0.42974 0.05400
H 	H 	0.71237 0.06290 0.55669 0.03900
C 	C 	0.13524 0.03986 0.49073 0.00900
C 	C 	0.16211 0.05480 0.44254 -0.07500
C 	C 	0.25436 0.09002 0.43723 0.05800
C 	C 	0.32119 0.11205 0.48078 -0.09700
C 	C 	0.29362 0.09507 0.52872 -0.00500
C 	C 	0.20130 0.05962 0.53396 -0.00600
S 	S 	0.28447 0.10317 0.37557 -0.06500
S 	S 	0.16948 0.04133 0.59496 -0.04200
H 	H 	0.13437 0.95866 0.59926 0.03300
H 	H 	0.31619 0.18369 0.36789 0.04000
H 	H 	0.11063 0.03745 0.40897 0.05100
H 	H 	0.34496 0.11241 0.56237 0.04400
C 	C 	0.88843 0.81553 0.95932 -0.00100
C 	C 	0.83009 0.78031 0.99583 -0.07400
C 	C 	0.77634 0.69199 0.99634 0.05300
C 	C 	0.78832 0.63913 0.96366 -0.09000
C 	C 	0.84280 0.67332 0.92532 -0.00900
C 	C 	0.89005 0.76031 0.92183 -0.00200
S 	S 	0.68792 0.64742 0.03402 -0.05500
S 	S 	0.94555 0.79764 0.86869 -0.04800
H 	H 	0.88356 0.78954 0.82966 0.03600
H 	H 	0.60586 0.62344 0.00525 0.03600
H 	H 	0.82542 0.82152 0.02343 0.05400
H 	H 	0.84904 0.63253 0.89841 0.04000
C 	C 	0.85594 0.18577 0.99138 -0.11000
C 	C 	0.86911 0.16558 0.94227 -0.00200
C 	C 	0.90335 0.11804 0.93499 -0.00500
C 	C 	0.92489 0.09010 0.97717 -0.00500
C 	C 	0.91055 0.10908 0.02615 -0.06600
C 	C 	0.87654 0.15695 0.03355 0.06200
S 	S 	0.91911 0.09404 0.87290 -0.04300
S 	S 	0.86406 0.18339 0.09608 -0.04000
H 	H 	0.94569 0.26098 0.12067 0.03800
H 	H 	0.00979 0.15616 0.86791 0.03100
H 	H 	0.85253 0.18683 0.90964 0.00400
H 	H 	0.92733 0.08778 0.05868 0.05000
C 	C 	0.40212 0.19402 0.98288 -0.09200
C 	C 	0.34456 0.16659 0.93433 -0.01000
C 	C 	0.24678 0.11826 0.92980 0.00000
C 	C 	0.20602 0.09739 0.97431 -0.00800
C 	C 	0.26354 0.12532 0.02280 -0.06300
C 	C 	0.36110 0.17385 0.02746 0.05400
S 	S 	0.17613 0.08358 0.86829 -0.04600
S 	S 	0.43112 0.21156 0.08951 -0.04400
H 	H 	0.44660 0.15383 0.10091 0.04500
H 	H 	0.14605 0.00244 0.84802 0.03500
H 	H 	0.37568 0.18204 0.90004 0.03500
H 	H 	0.23232 0.10992 0.05708 0.04900
