data_crystal

_cell_length_a 35.11308
_cell_length_b 35.83791
_cell_length_c 26.51013
_cell_angle_alpha 95.52232
_cell_angle_beta  95.52481
_cell_angle_gamma 125.39978

_symmetry_space_group_name_	'P 1'
_symmetry_space_group_name_H-M	'P 1'

loop_
_symmetry_equiv_pos_as_xyz
  x,y,z

loop_
_atom_site_label
_atom_site_type_symbol
_atom_site_fract_x
_atom_site_fract_y
_atom_site_fract_z
_atom_site_charge
C 	C 	0.98081 0.02429 0.99280 0.12800
C 	C 	0.04817 0.02669 0.98426 0.13100
N 	N 	0.02737 0.04877 0.98879 -0.14000
N 	N 	0.99757 0.02187 0.42764 -0.14100
Cu	Cu	0.65722 0.26917 0.99489 0.92800
Cu	Cu	0.70015 0.27189 0.88954 0.87400
Cu	Cu	0.68833 0.34438 0.92919 0.89800
Cu	Cu	0.65635 0.35536 0.02687 0.89800
C 	C 	0.66726 0.30362 0.10135 0.30100
O 	O 	0.58743 0.24177 0.98963 -0.35100
C 	C 	0.67675 0.31305 0.81749 0.30600
O 	O 	0.69595 0.34183 0.00091 -0.63700
O 	O 	0.65494 0.27556 0.92154 -0.64100
O 	O 	0.68579 0.23473 0.99452 -0.36700
O 	O 	0.74167 0.28290 0.94980 -0.44000
O 	O 	0.64569 0.32207 0.08618 -0.37100
O 	O 	0.72404 0.41152 0.94171 -0.37800
C 	C 	0.71802 0.43624 0.97574 0.30200
C 	C 	0.56969 0.26172 0.96896 0.30400
O 	O 	0.59810 0.30536 0.96396 -0.39000
O 	O 	0.68480 0.41650 0.00423 -0.38300
O 	O 	0.66952 0.27520 0.06831 -0.34100
C 	C 	0.72672 0.25202 0.97994 0.30800
O 	O 	0.69206 0.34791 0.85579 -0.38100
O 	O 	0.67366 0.27575 0.82571 -0.40200
H 	H 	0.72937 0.36160 0.01953 0.16800
H 	H 	0.62270 0.25692 0.89999 0.18400
Cu	Cu	0.72477 0.33648 0.42665 0.93000
Cu	Cu	0.72432 0.29728 0.53367 0.87400
Cu	Cu	0.64864 0.30620 0.49335 0.89900
Cu	Cu	0.63514 0.33484 0.39432 0.89700
C 	C 	0.68823 0.32440 0.31987 0.30200
O 	O 	0.75163 0.40463 0.43019 -0.34700
C 	C 	0.68196 0.31976 0.60536 0.30600
O 	O 	0.65061 0.29763 0.42150 -0.64000
O 	O 	0.71901 0.34007 0.50023 -0.64000
O 	O 	0.76012 0.30845 0.42757 -0.36400
O 	O 	0.71190 0.25522 0.47428 -0.43900
O 	O 	0.66855 0.34480 0.33460 -0.37300
O 	O 	0.57997 0.26995 0.48161 -0.37700
C 	C 	0.55375 0.27370 0.44628 0.30900
C 	C 	0.73044 0.42164 0.44959 0.30200
O 	O 	0.68634 0.39328 0.45584 -0.38700
O 	O 	0.57301 0.30639 0.41787 -0.39000
O 	O 	0.71781 0.32312 0.35319 -0.34400
C 	C 	0.74270 0.26882 0.44337 0.30900
O 	O 	0.64600 0.30399 0.56720 -0.38000
O 	O 	0.72070 0.32429 0.59685 -0.40200
H 	H 	0.63082 0.26466 0.40365 0.16600
H 	H 	0.73769 0.37197 0.52096 0.18400
C 	C 	0.70978 0.35989 0.74926 -0.03900
C 	C 	0.67208 0.31985 0.76396 -0.08700
C 	C 	0.63314 0.28399 0.72600 0.12400
C 	C 	0.63488 0.28595 0.67373 -0.03900
C 	C 	0.67504 0.32372 0.65899 -0.08700
C 	C 	0.71126 0.36209 0.69700 0.12400
Br	Br	0.76256 0.41799 0.67828 -0.24800
H 	H 	0.73898 0.38848 0.77836 0.06600
H 	H 	0.60596 0.25711 0.64463 0.06600
Br	Br	0.57704 0.23252 0.74479 -0.24900
C 	C 	0.71815 0.34417 0.18785 -0.04100
C 	C 	0.67682 0.30446 0.15670 -0.08000
C 	C 	0.64214 0.26864 0.17967 0.12700
C 	C 	0.64781 0.27411 0.23347 -0.04100
C 	C 	0.68773 0.31513 0.26461 -0.08100
C 	C 	0.72374 0.34972 0.24164 0.12800
Br	Br	0.77956 0.40587 0.28306 -0.22500
H 	H 	0.74512 0.37161 0.17028 0.05500
H 	H 	0.62022 0.24724 0.25104 0.05500
Br	Br	0.58562 0.21313 0.13824 -0.22300
C 	C 	0.75172 0.47043 0.45379 -0.09800
C 	C 	0.79956 0.19766 0.42122 -0.00900
C 	C 	0.77740 0.15807 0.38233 -0.02800
C 	C 	0.79426 0.13096 0.37979 -0.04300
C 	C 	0.83334 0.14328 0.41622 0.01200
C 	C 	0.85627 0.18366 0.45421 -0.04400
C 	C 	0.83942 0.21073 0.45669 -0.02900
C 	C 	0.84938 0.11323 0.41565 0.00600
C 	C 	0.86954 0.10848 0.37455 -0.03700
C 	C 	0.88741 0.08231 0.37563 -0.03900
C 	C 	0.88517 0.06068 0.41774 0.01300
C 	C 	0.86398 0.06442 0.45820 -0.03900
C 	C 	0.84612 0.09060 0.45718 -0.03700
C 	C 	0.90743 0.03731 0.42103 0.00800
C 	C 	0.92615 0.01782 0.42345 -0.04000
C 	C 	0.77911 0.22258 0.42752 0.05000
C 	C 	0.76268 0.24401 0.43363 -0.11400
H 	H 	0.74656 0.14773 0.35478 0.04300
H 	H 	0.77643 0.09996 0.35020 0.04400
H 	H 	0.88673 0.19370 0.48220 0.04300
H 	H 	0.85676 0.24130 0.48682 0.03800
H 	H 	0.87216 0.12575 0.34229 0.04200
H 	H 	0.90375 0.07956 0.34421 0.04500
H 	H 	0.86205 0.04775 0.49085 0.04400
H 	H 	0.83029 0.09377 0.48890 0.04100
C 	C 	0.16360 0.07707 0.43721 0.01400
C 	C 	0.18770 0.11641 0.41408 -0.03900
C 	C 	0.23662 0.14097 0.41553 -0.03700
C 	C 	0.26171 0.12629 0.44016 0.00700
C 	C 	0.23752 0.08702 0.46350 -0.03700
C 	C 	0.18863 0.06249 0.46200 -0.03900
C 	C 	0.31321 0.15192 0.44136 0.01200
C 	C 	0.34492 0.19841 0.46723 -0.04200
C 	C 	0.39376 0.22264 0.46847 -0.02800
C 	C 	0.41120 0.20057 0.44390 -0.00600
C 	C 	0.37963 0.15413 0.41813 -0.02900
C 	C 	0.33077 0.12985 0.41684 -0.04200
C 	C 	0.46143 0.22584 0.44453 0.05000
C 	C 	0.50357 0.24740 0.44536 -0.10200
C 	C 	0.11308 0.05118 0.43486 0.00700
C 	C 	0.07080 0.02904 0.43330 -0.03700
H 	H 	0.16855 0.12785 0.39481 0.04500
H 	H 	0.25496 0.17119 0.39730 0.04200
H 	H 	0.25662 0.07556 0.48281 0.04300
H 	H 	0.17020 0.03211 0.47998 0.04500
H 	H 	0.33172 0.21567 0.48646 0.04400
H 	H 	0.41799 0.25856 0.48845 0.04400
H 	H 	0.39288 0.13688 0.39899 0.04100
H 	H 	0.30655 0.09401 0.39665 0.04400
C 	C 	0.74260 0.48501 0.97561 -0.10200
C 	C 	0.79359 0.19075 0.00165 0.00800
C 	C 	0.83968 0.21567 0.03076 -0.03300
C 	C 	0.86368 0.19531 0.03288 -0.04100
C 	C 	0.84169 0.14993 0.00579 0.01600
C 	C 	0.79501 0.12456 0.97798 -0.04700
C 	C 	0.77106 0.14492 0.97593 -0.03900
C 	C 	0.86831 0.12990 0.00424 0.01000
C 	C 	0.88117 0.11871 0.04898 -0.03500
C 	C 	0.90498 0.09819 0.04693 -0.04400
C 	C 	0.91611 0.08883 0.00022 0.03200
C 	C 	0.90387 0.10056 0.95568 -0.05000
C 	C 	0.88005 0.12104 0.95766 -0.04100
C 	C 	0.93907 0.06618 0.99770 -0.00700
C 	C 	0.95829 0.04721 0.99562 -0.03300
C 	C 	0.77067 0.21316 0.99513 0.03800
C 	C 	0.75075 0.23116 0.98908 -0.11200
H 	H 	0.85728 0.25109 0.05084 0.04500
H 	H 	0.89967 0.21511 0.05457 0.04400
H 	H 	0.77762 0.08938 0.95728 0.04200
H 	H 	0.73537 0.12541 0.95347 0.04100
H 	H 	0.87225 0.12544 0.08510 0.04200
H 	H 	0.91439 0.08924 0.08153 0.04700
H 	H 	0.91249 0.09352 0.91946 0.04600
H 	H 	0.87050 0.12981 0.92300 0.04000
C 	C 	0.18747 0.09630 0.97142 0.00700
C 	C 	0.21762 0.09323 0.00649 -0.03200
C 	C 	0.26467 0.11384 0.00088 -0.03000
C 	C 	0.28187 0.13765 0.96008 -0.00000
C 	C 	0.25183 0.14128 0.92539 -0.03600
C 	C 	0.20473 0.12062 0.93106 -0.03800
C 	C 	0.33133 0.15884 0.95388 0.01300
C 	C 	0.34653 0.13067 0.94422 -0.04300
C 	C 	0.39445 0.15104 0.94322 -0.02700
C 	C 	0.42741 0.19965 0.95181 -0.00600
C 	C 	0.41200 0.22777 0.95958 -0.02800
C 	C 	0.36410 0.20745 0.96062 -0.04400
C 	C 	0.47742 0.22074 0.95703 0.05200
C 	C 	0.51944 0.23903 0.96155 -0.10100
C 	C 	0.13825 0.07245 0.97538 0.00800
C 	C 	0.09717 0.05221 0.97945 -0.04000
H 	H 	0.20448 0.07447 0.03778 0.04500
H 	H 	0.28773 0.11123 0.02812 0.04400
H 	H 	0.26485 0.15971 0.89386 0.04200
H 	H 	0.18158 0.12308 0.90376 0.04400
H 	H 	0.32139 0.09308 0.93851 0.04400
H 	H 	0.40610 0.12909 0.93702 0.04500
H 	H 	0.43730 0.26539 0.96614 0.04100
H 	H 	0.35268 0.22947 0.96799 0.04300
C 	C 	0.76818 0.51099 0.45584 0.05100
C 	C 	0.76251 0.52594 0.97563 0.04800
H 	H 	0.71934 0.54235 0.42053 0.04200
C 	C 	0.78636 0.55900 0.45747 -0.00400
C 	C 	0.75646 0.56985 0.43647 -0.02800
H 	H 	0.71986 0.56785 0.96382 0.04200
C 	C 	0.78555 0.57467 0.97554 -0.00700
C 	C 	0.02045 0.00183 0.43165 0.13300
H 	H 	0.85759 0.58668 0.49452 0.04500
H 	H 	0.85649 0.59266 0.98739 0.04100
C 	C 	0.75830 0.59148 0.96916 -0.02800
C 	C 	0.94999 0.99614 0.42661 0.13700
N 	N 	0.95508 0.97776 0.99218 -0.13900
C 	C 	0.97596 0.95577 0.98767 0.13400
N 	N 	0.02245 0.98024 0.98368 -0.13900
N 	N 	0.92528 0.95027 0.42969 -0.13900
C 	C 	0.94831 0.93028 0.43370 0.13400
N 	N 	0.99582 0.95610 0.43468 -0.13900
C 	C 	0.77461 0.61620 0.43508 -0.04200
C 	C 	0.82283 0.65202 0.45473 0.01200
C 	C 	0.85250 0.64118 0.47677 -0.04200
C 	C 	0.83430 0.59479 0.47808 -0.02700
C 	C 	0.84272 0.70056 0.45004 0.00700
C 	C 	0.82661 0.72376 0.47537 -0.03700
C 	C 	0.84577 0.76987 0.47104 -0.03900
C 	C 	0.88106 0.79299 0.44135 0.01400
C 	C 	0.89673 0.76966 0.41555 -0.03800
C 	C 	0.87763 0.72363 0.41984 -0.03700
C 	C 	0.90314 0.84138 0.43948 0.00700
C 	C 	0.92264 0.88184 0.43684 -0.03700
H 	H 	0.75144 0.62417 0.41793 0.04400
H 	H 	0.88972 0.66862 0.49231 0.04500
H 	H 	0.79960 0.70623 0.49869 0.04200
H 	H 	0.83356 0.78772 0.49120 0.04500
H 	H 	0.92403 0.78734 0.39258 0.04600
H 	H 	0.88999 0.70590 0.39976 0.04400
C 	C 	0.83522 0.60544 0.98240 -0.02800
C 	C 	0.85759 0.65291 0.98306 -0.04400
C 	C 	0.83036 0.66984 0.97684 0.01300
C 	C 	0.78061 0.63892 0.96980 -0.04400
C 	C 	0.85393 0.71989 0.97777 -0.00000
C 	C 	0.88028 0.74127 0.93971 -0.03600
C 	C 	0.90359 0.78897 0.94132 -0.03800
C 	C 	0.90067 0.81558 0.98092 0.00700
C 	C 	0.87388 0.79421 0.01861 -0.03200
C 	C 	0.85055 0.74648 0.01706 -0.03000
C 	C 	0.92667 0.86508 0.98393 0.00800
C 	C 	0.94870 0.90648 0.98581 -0.03900
H 	H 	0.89603 0.67654 0.98866 0.04300
H 	H 	0.75930 0.65165 0.96474 0.04300
H 	H 	0.88284 0.72095 0.90906 0.04300
H 	H 	0.92424 0.80530 0.91204 0.04500
H 	H 	0.87151 0.81460 0.04935 0.04600
H 	H 	0.83030 0.73028 0.04663 0.04300
