data_crystal

_cell_length_a 24.81039
_cell_length_b 21.20514
_cell_length_c 28.18012
_cell_angle_alpha 92.69842
_cell_angle_beta  85.32214
_cell_angle_gamma 124.79602

_symmetry_space_group_name_	'P 1'
_symmetry_space_group_name_H-M	'P 1'

loop_
_symmetry_equiv_pos_as_xyz
  x,y,z

loop_
_atom_site_label
_atom_site_type_symbol
_atom_site_fract_x
_atom_site_fract_y
_atom_site_fract_z
_atom_site_charge
C 	C 	0.91677 0.12791 0.96379 0.00600
C 	C 	0.93679 0.08595 0.93762 -0.01800
C 	C 	0.96529 0.05561 0.96034 -0.07600
C 	C 	0.97440 0.06767 0.00950 0.09500
C 	C 	0.95824 0.11384 0.03470 -0.07000
C 	C 	0.92946 0.14374 0.01202 -0.01000
N 	N 	0.99406 0.02742 0.03521 -0.13200
C 	C 	0.19829 0.13175 0.04693 0.01400
C 	C 	0.15315 0.09385 0.08594 -0.02500
C 	C 	0.08630 0.06083 0.08196 -0.06200
C 	C 	0.06383 0.06533 0.03902 0.07100
C 	C 	0.10947 0.10478 0.00010 -0.05900
C 	C 	0.17637 0.13805 0.00423 -0.02600
C 	C 	0.88234 0.78580 0.01338 0.02300
C 	C 	0.94379 0.83315 0.98855 -0.04400
C 	C 	0.98063 0.91271 0.99511 -0.05800
C 	C 	0.95639 0.94556 0.02703 0.06800
C 	C 	0.89440 0.89809 0.05104 -0.06000
C 	C 	0.85741 0.81868 0.04413 -0.02800
H 	H 	0.92815 0.07457 0.90014 0.03800
H 	H 	0.97871 0.02130 0.94015 0.05500
H 	H 	0.96559 0.12391 0.07239 0.05800
H 	H 	0.91468 0.17676 0.03236 0.04500
H 	H 	0.16976 0.08901 0.11910 0.04500
H 	H 	0.05162 0.03077 0.11208 0.05200
H 	H 	0.09316 0.10782 0.96642 0.04000
H 	H 	0.21096 0.16697 0.97386 0.03400
H 	H 	0.96323 0.80824 0.96452 0.04100
H 	H 	0.02748 0.94864 0.97520 0.03300
H 	H 	0.87510 0.92293 0.07525 0.05000
H 	H 	0.80968 0.78256 0.06306 0.04700
C 	C 	0.92404 0.12487 0.49012 0.01900
C 	C 	0.96266 0.10511 0.46356 -0.03300
C 	C 	0.98870 0.07163 0.48608 -0.05100
C 	C 	0.97689 0.05860 0.53561 0.07700
C 	C 	0.94014 0.08086 0.56215 -0.06100
C 	C 	0.91372 0.11371 0.53956 -0.02600
N 	N 	0.99791 0.01757 0.55892 -0.12600
C 	C 	0.20410 0.12176 0.56411 0.02100
C 	C 	0.15836 0.04782 0.58228 -0.03500
C 	C 	0.09108 0.01495 0.58171 -0.03900
C 	C 	0.06849 0.05441 0.56103 0.06100
C 	C 	0.11493 0.13174 0.54702 -0.06000
C 	C 	0.18227 0.16447 0.54785 -0.03600
C 	C 	0.89125 0.78094 0.52166 0.01800
C 	C 	0.94761 0.83479 0.49363 -0.03300
C 	C 	0.98231 0.91283 0.50509 -0.04900
C 	C 	0.96089 0.93763 0.54497 0.06000
C 	C 	0.90393 0.88371 0.57238 -0.05800
C 	C 	0.86937 0.80570 0.56092 -0.03600
H 	H 	0.97160 0.11456 0.42545 0.04100
H 	H 	0.01838 0.05652 0.46529 0.04100
H 	H 	0.93076 0.07092 0.60019 0.05400
H 	H 	0.88419 0.12920 0.56032 0.04700
H 	H 	0.17497 0.01536 0.59624 0.04900
H 	H 	0.05636 0.95828 0.59673 0.03300
H 	H 	0.09936 0.16669 0.53578 0.04600
H 	H 	0.21750 0.22261 0.53509 0.04000
H 	H 	0.96486 0.81608 0.46328 0.04700
H 	H 	0.02651 0.95372 0.48378 0.03500
H 	H 	0.88699 0.90232 0.60294 0.04600
H 	H 	0.82562 0.76444 0.58256 0.04200
Co	Co	0.71914 0.31265 0.97127 1.18200
O 	O 	0.78908 0.30928 0.92653 -0.36800
Co	Co	0.59198 0.31864 0.01042 1.18600
O 	O 	0.63358 0.28393 0.94489 -0.46500
O 	O 	0.67512 0.41659 0.02601 -0.42100
O 	O 	0.70749 0.20568 0.95632 -0.35000
C 	C 	0.72762 0.45638 0.99617 0.33800
O 	O 	0.59241 0.34846 0.93878 -0.37000
C 	C 	0.47173 0.24672 0.04492 0.30300
C 	C 	0.67726 0.29219 0.06360 0.31700
O 	O 	0.51927 0.31547 0.05580 -0.36700
O 	O 	0.49216 0.21787 0.01310 -0.34300
O 	O 	0.73479 0.31362 0.04494 -0.35800
O 	O 	0.63465 0.26740 0.03166 -0.45700
O 	O 	0.75094 0.42325 0.96831 -0.52400
C 	C 	0.76109 0.23612 0.92931 0.30400
C 	C 	0.62605 0.32494 0.91708 0.31500
H 	H 	0.79022 0.45632 0.94512 0.17900
Co	Co	0.73011 0.31613 0.47170 1.18400
O 	O 	0.80115 0.31044 0.43007 -0.37300
Co	Co	0.59754 0.31562 0.50448 1.18400
O 	O 	0.63981 0.26952 0.44656 -0.46000
O 	O 	0.67397 0.42525 0.50773 -0.41300
O 	O 	0.72722 0.21318 0.47037 -0.34600
C 	C 	0.73443 0.45615 0.48795 0.35400
O 	O 	0.58836 0.31855 0.42990 -0.36100
C 	C 	0.47950 0.24149 0.54384 0.30200
C 	C 	0.69549 0.32115 0.56374 0.31700
O 	O 	0.52376 0.31420 0.54723 -0.36300
O 	O 	0.50204 0.20954 0.51687 -0.34800
O 	O 	0.75274 0.34182 0.54479 -0.36100
O 	O 	0.65019 0.28272 0.53395 -0.46300
O 	O 	0.74877 0.41797 0.45687 -0.53800
C 	C 	0.77855 0.24070 0.44124 0.30600
C 	C 	0.62522 0.29629 0.41322 0.31400
H 	H 	0.78137 0.44653 0.42881 0.17200
C 	C 	0.64450 0.31175 0.76607 0.06500
N 	N 	0.67210 0.28819 0.79409 -0.11600
C 	C 	0.66586 0.29091 0.84246 0.07300
C 	C 	0.63107 0.31925 0.86473 -0.12100
C 	C 	0.60288 0.34439 0.83647 0.04200
C 	C 	0.60955 0.34065 0.78705 -0.08300
H 	H 	0.68854 0.27181 0.86354 0.01600
H 	H 	0.57632 0.36727 0.85266 0.03200
H 	H 	0.58885 0.36145 0.76518 0.05200
C 	C 	0.68080 0.31616 0.61577 -0.11800
C 	C 	0.61639 0.28396 0.63503 0.03900
C 	C 	0.60392 0.28181 0.68429 -0.07900
C 	C 	0.65620 0.31250 0.71401 0.06500
N 	N 	0.71835 0.34279 0.69465 -0.11700
C 	C 	0.73168 0.34574 0.64670 0.07900
H 	H 	0.57619 0.26075 0.61203 0.02100
H 	H 	0.55406 0.25631 0.69928 0.05100
H 	H 	0.78190 0.37127 0.63265 0.03500
C 	C 	0.63481 0.25447 0.21261 0.06500
N 	N 	0.67927 0.24392 0.18902 -0.11500
C 	C 	0.69124 0.25216 0.14093 0.07900
C 	C 	0.65792 0.27248 0.11433 -0.12000
C 	C 	0.61071 0.28133 0.13764 0.03900
C 	C 	0.59937 0.27298 0.18693 -0.08000
H 	H 	0.72751 0.24423 0.12349 0.03600
H 	H 	0.58507 0.29804 0.11798 0.01500
H 	H 	0.56535 0.28392 0.20522 0.05300
C 	C 	0.62518 0.27343 0.36327 -0.12300
C 	C 	0.56678 0.23389 0.33978 0.04700
C 	C 	0.56898 0.22378 0.29063 -0.08400
C 	C 	0.63003 0.25519 0.26513 0.06600
N 	N 	0.68589 0.28945 0.28904 -0.11600
C 	C 	0.68461 0.29865 0.33719 0.07100
H 	H 	0.52005 0.21243 0.35941 0.03200
H 	H 	0.52383 0.19319 0.27238 0.05400
H 	H 	0.73016 0.32843 0.35490 0.00900
C 	C 	0.78192 0.53967 0.49246 -0.14300
C 	C 	0.82251 0.57031 0.53098 0.17100
C 	C 	0.85801 0.64932 0.54036 -0.10600
C 	C 	0.85550 0.69839 0.51036 -0.00600
C 	C 	0.81682 0.66804 0.47073 0.09200
C 	C 	0.78131 0.58897 0.46141 -0.01800
H 	H 	0.88737 0.67240 0.57107 0.06700
H 	H 	0.75141 0.56568 0.43100 0.04600
O 	O 	0.82332 0.52222 0.56189 -0.20700
O 	O 	0.81708 0.71633 0.43929 -0.19100
C 	C 	0.87637 0.51713 0.54690 -0.02000
H 	H 	0.87071 0.49195 0.51054 0.03700
H 	H 	0.87700 0.47835 0.57158 0.05200
H 	H 	0.92443 0.57403 0.54840 0.03800
C 	C 	0.76325 0.72078 0.45247 -0.02500
H 	H 	0.71559 0.66400 0.44906 0.04100
H 	H 	0.76449 0.76099 0.42788 0.04300
H 	H 	0.76610 0.74395 0.48916 0.04100
C 	C 	0.89168 0.15388 0.46611 -0.00700
C 	C 	0.82600 0.10310 0.45421 0.09600
C 	C 	0.79051 0.13234 0.44225 -0.02700
C 	C 	0.82058 0.21190 0.44075 -0.11300
C 	C 	0.88875 0.26246 0.44677 0.16300
C 	C 	0.92348 0.23315 0.46060 -0.10200
H 	H 	0.73860 0.09305 0.43656 0.06000
H 	H 	0.97447 0.27235 0.46884 0.06600
O 	O 	0.79397 0.02490 0.46010 -0.17300
O 	O 	0.91989 0.34099 0.44436 -0.19700
C 	C 	0.79736 0.99279 0.41594 -0.06000
H 	H 	0.77034 0.99932 0.38909 0.04100
H 	H 	0.77332 0.93037 0.42098 0.04800
H 	H 	0.84915 0.01781 0.40236 0.05500
C 	C 	0.94922 0.36546 0.39792 -0.02100
H 	H 	0.98852 0.35553 0.38985 0.03800
H 	H 	0.97273 0.42819 0.39554 0.04600
H 	H 	0.91205 0.33731 0.37064 0.04800
C 	C 	0.40856 0.20855 0.55056 -0.11200
C 	C 	0.38435 0.23496 0.58759 0.16100
C 	C 	0.31775 0.20801 0.59092 -0.10000
C 	C 	0.27453 0.15228 0.55903 -0.01100
C 	C 	0.29838 0.12467 0.52268 0.09800
C 	C 	0.36486 0.15156 0.51931 -0.03100
H 	H 	0.29958 0.22971 0.61874 0.06500
H 	H 	0.38263 0.12927 0.49160 0.06300
O 	O 	0.42664 0.29091 0.61875 -0.19500
O 	O 	0.25554 0.06673 0.49271 -0.18900
C 	C 	0.42827 0.25452 0.65871 -0.02200
H 	H 	0.37916 0.21994 0.67847 0.03700
H 	H 	0.46299 0.29944 0.68336 0.04400
H 	H 	0.44666 0.21823 0.64856 0.03900
C 	C 	0.25517 0.10031 0.45081 -0.02500
H 	H 	0.23882 0.13916 0.45844 0.03900
H 	H 	0.21951 0.05383 0.42735 0.04500
H 	H 	0.30423 0.13149 0.43084 0.04100
C 	C 	0.76773 0.54074 0.00011 -0.12500
C 	C 	0.77876 0.58647 0.96091 0.15700
C 	C 	0.81848 0.66676 0.96496 -0.11000
C 	C 	0.84495 0.70157 0.00840 -0.00200
C 	C 	0.83464 0.65575 0.04736 0.09300
C 	C 	0.79471 0.57558 0.04337 -0.02200
H 	H 	0.82754 0.70186 0.93459 0.06400
H 	H 	0.78557 0.54050 0.07378 0.05500
O 	O 	0.75427 0.55280 0.91763 -0.21100
O 	O 	0.85969 0.68928 0.09054 -0.19000
C 	C 	0.69356 0.54330 0.91462 -0.01900
H 	H 	0.65741 0.50745 0.94429 0.04100
H 	H 	0.67246 0.51295 0.88090 0.04600
H 	H 	0.70020 0.59977 0.91358 0.03600
C 	C 	0.92142 0.70093 0.09230 -0.02600
H 	H 	0.91680 0.64546 0.09084 0.04200
H 	H 	0.94187 0.72873 0.12671 0.04600
H 	H 	0.95712 0.74011 0.06348 0.04200
C 	C 	0.87607 0.14780 0.94246 -0.00300
C 	C 	0.80706 0.09834 0.94835 0.09600
C 	C 	0.76897 0.12582 0.94022 -0.02900
C 	C 	0.79921 0.20184 0.92519 -0.11300
C 	C 	0.86742 0.24693 0.91208 0.16200
C 	C 	0.90580 0.22057 0.92228 -0.10400
H 	H 	0.71618 0.08914 0.94795 0.06400
H 	H 	0.95882 0.25785 0.91614 0.06700
O 	O 	0.77727 0.02630 0.96797 -0.17900
O 	O 	0.89762 0.31949 0.89320 -0.19300
C 	C 	0.75796 0.97236 0.93064 -0.03900
H 	H 	0.71960 0.96882 0.91039 0.03700
H 	H 	0.73609 0.91491 0.94631 0.04300
H 	H 	0.80065 0.98518 0.90621 0.03500
C 	C 	0.89801 0.31316 0.84316 -0.02300
H 	H 	0.92700 0.29039 0.82899 0.03900
H 	H 	0.92206 0.37134 0.82792 0.04900
H 	H 	0.84713 0.27713 0.83093 0.04700
C 	C 	0.40172 0.21836 0.05194 -0.11200
C 	C 	0.38232 0.26953 0.05381 0.16200
C 	C 	0.31573 0.24064 0.05145 -0.10200
C 	C 	0.26800 0.16127 0.04992 -0.00800
C 	C 	0.28704 0.11016 0.05006 0.09900
C 	C 	0.35356 0.13893 0.05217 -0.03000
H 	H 	0.30123 0.28009 0.05092 0.06500
H 	H 	0.36789 0.09929 0.05251 0.05900
O 	O 	0.42887 0.34800 0.05359 -0.19500
O 	O 	0.24006 0.03176 0.05146 -0.19500
C 	C 	0.43506 0.37481 0.10096 -0.02100
H 	H 	0.38894 0.36752 0.11609 0.03700
H 	H 	0.47461 0.43716 0.10104 0.04800
H 	H 	0.44949 0.34627 0.12409 0.04800
C 	C 	0.23190 0.00306 0.00450 0.01100
H 	H 	0.21526 0.02958 0.98175 0.02900
H 	H 	0.19310 0.94046 0.00564 0.02700
H 	H 	0.27780 0.01097 0.98820 0.03200
