data_crystal

_cell_length_a 27.88285
_cell_length_b 28.99577
_cell_length_c 22.35585
_cell_angle_alpha 61.86890
_cell_angle_beta  117.74209
_cell_angle_gamma 133.21299

_symmetry_space_group_name_	'P 1'
_symmetry_space_group_name_H-M	'P 1'

loop_
_symmetry_equiv_pos_as_xyz
  x,y,z

loop_
_atom_site_label
_atom_site_type_symbol
_atom_site_fract_x
_atom_site_fract_y
_atom_site_fract_z
_atom_site_charge
C 	C 	0.73807 0.32251 0.06323 0.11700
N 	N 	0.77165 0.37838 0.08155 -0.13900
C 	C 	0.73675 0.39024 0.09168 0.11900
N 	N 	0.66880 0.34673 0.08302 -0.14000
C 	C 	0.63534 0.29111 0.06516 0.12200
N 	N 	0.66992 0.27877 0.05556 -0.13700
C 	C 	0.73204 0.31721 0.55375 0.11600
N 	N 	0.76921 0.37253 0.57511 -0.14100
C 	C 	0.73769 0.38749 0.58630 0.11800
N 	N 	0.66954 0.34780 0.57544 -0.14000
C 	C 	0.63247 0.29276 0.55444 0.11900
N 	N 	0.66366 0.27720 0.54396 -0.13900
C 	C 	0.26739 0.65350 0.31953 0.11500
N 	N 	0.23015 0.59106 0.31520 -0.13900
C 	C 	0.25865 0.57240 0.30486 0.11800
N 	N 	0.32390 0.61570 0.29965 -0.14000
C 	C 	0.36047 0.67805 0.30199 0.11900
N 	N 	0.33243 0.69700 0.31230 -0.14100
C 	C 	0.27895 0.65013 0.84790 0.11400
N 	N 	0.34716 0.68888 0.85616 -0.14200
C 	C 	0.37625 0.66900 0.84945 0.11700
N 	N 	0.33725 0.61101 0.83374 -0.14000
C 	C 	0.26934 0.57267 0.82415 0.11700
N 	N 	0.23993 0.59191 0.83159 -0.14000
Co	Co	0.07794 0.96591 0.22014 1.16700
Co	Co	0.92811 0.99864 0.16662 1.16200
Co	Co	0.04659 0.02425 0.28310 1.19200
Co	Co	0.95976 0.94083 0.10453 1.17400
C 	C 	0.05810 0.83911 0.26039 0.30000
Co	Co	0.03946 0.89475 0.10866 1.16800
Co	Co	0.95338 0.05645 0.28081 1.17500
C 	C 	0.00293 0.97079 0.97651 0.20700
O 	O 	0.05173 0.11170 0.33562 -0.38900
O 	O 	0.97983 0.02710 0.23871 -0.74500
C 	C 	0.10307 0.14841 0.30706 0.30300
O 	O 	0.11004 0.00556 0.29752 -0.44600
O 	O 	0.89498 0.95744 0.09064 -0.48500
C 	C 	0.93408 0.11914 0.13087 0.29100
O 	O 	0.01764 0.00476 0.17972 -0.55100
C 	C 	0.98664 0.97446 0.40559 0.17900
C 	C 	0.17979 0.00774 0.15520 0.34800
C 	C 	0.89225 0.80789 0.09804 0.30700
O 	O 	0.11399 0.12244 0.28416 -0.38000
O 	O 	0.14213 0.94647 0.15380 -0.44200
O 	O 	0.16711 0.02550 0.18751 -0.38000
O 	O 	0.97344 0.13049 0.19234 -0.40000
O 	O 	0.91886 0.07495 0.10738 -0.36500
O 	O 	0.93693 0.97908 0.36579 -0.37600
O 	O 	0.01646 0.96876 0.37940 -0.36400
O 	O 	0.93750 0.83862 0.06318 -0.40800
O 	O 	0.89605 0.83980 0.12873 -0.40600
O 	O 	0.02913 0.94290 0.14397 -0.76600
C 	C 	0.81928 0.94131 0.22873 0.25900
O 	O 	0.85198 0.00120 0.23135 -0.36200
O 	O 	0.84774 0.92631 0.21506 -0.40100
O 	O 	0.02039 0.82418 0.20009 -0.39600
O 	O 	0.06035 0.87660 0.28118 -0.40200
O 	O 	0.05283 0.96627 0.01733 -0.36400
O 	O 	0.97066 0.97486 0.00143 -0.35800
Co	Co	0.08143 0.96900 0.72297 1.16700
Co	Co	0.92093 0.98712 0.67120 1.16400
Co	Co	0.04480 0.02519 0.78241 1.19100
Co	Co	0.95868 0.93297 0.61160 1.17300
C 	C 	0.07395 0.84818 0.76858 0.29600
Co	Co	0.04701 0.89620 0.61591 1.16800
Co	Co	0.94598 0.05167 0.77803 1.18000
C 	C 	0.00004 0.96301 0.48212 0.23400
O 	O 	0.04470 0.11424 0.82670 -0.38900
O 	O 	0.97452 0.02221 0.73897 -0.74400
C 	C 	0.09473 0.15092 0.79616 0.30200
O 	O 	0.11201 0.01085 0.79747 -0.44900
O 	O 	0.88859 0.94228 0.59922 -0.48600
C 	C 	0.91771 0.10395 0.62589 0.29700
O 	O 	0.01433 0.00054 0.68189 -0.55200
C 	C 	0.98924 0.97907 0.90722 0.17100
C 	C 	0.18348 0.01655 0.65385 0.34700
C 	C 	0.90064 0.80097 0.61215 0.30700
O 	O 	0.10780 0.12458 0.77674 -0.38100
O 	O 	0.15025 0.95525 0.65596 -0.44200
O 	O 	0.16918 0.03257 0.68642 -0.38100
O 	O 	0.95911 0.12015 0.68512 -0.39900
O 	O 	0.90172 0.05646 0.60763 -0.36400
O 	O 	0.93720 0.98015 0.86798 -0.37300
O 	O 	0.01965 0.97381 0.88122 -0.36300
O 	O 	0.94499 0.83306 0.57551 -0.41200
O 	O 	0.90201 0.83217 0.64139 -0.40700
O 	O 	0.03176 0.94164 0.64920 -0.76600
C 	C 	0.81707 0.92702 0.74253 0.30500
O 	O 	0.84426 0.98778 0.73557 -0.43100
O 	O 	0.84519 0.91346 0.72596 -0.41000
O 	O 	0.03528 0.82945 0.71021 -0.39600
O 	O 	0.07216 0.88382 0.78761 -0.40300
O 	O 	0.05310 0.96357 0.52200 -0.38000
O 	O 	0.96527 0.96380 0.50725 -0.37200
C 	C 	0.20019 0.30775 0.84387 -0.06400
C 	C 	0.17553 0.34035 0.78501 0.02500
C 	C 	0.13733 0.31668 0.72445 -0.06200
C 	C 	0.11935 0.25814 0.72475 0.01300
C 	C 	0.13740 0.22172 0.78617 -0.08700
C 	C 	0.18112 0.24864 0.84443 0.01800
C 	C 	0.18811 0.39811 0.78755 0.00700
H 	H 	0.11920 0.34209 0.67813 0.04600
H 	H 	0.08683 0.23855 0.67892 0.03700
H 	H 	0.19625 0.22146 0.89185 0.03200
H 	H 	0.23194 0.32686 0.89006 0.04700
C 	C 	0.17217 0.39504 0.84108 -0.04500
C 	C 	0.19229 0.45173 0.84887 -0.02100
C 	C 	0.22823 0.51177 0.80310 -0.02100
C 	C 	0.23826 0.51354 0.74579 -0.02000
C 	C 	0.21896 0.45717 0.73844 -0.04500
H 	H 	0.14641 0.34926 0.87807 0.04200
H 	H 	0.18367 0.44958 0.89293 0.03800
H 	H 	0.26512 0.55952 0.70952 0.03900
H 	H 	0.23054 0.46002 0.69625 0.04200
C 	C 	0.54106 0.80654 0.79525 -0.04700
C 	C 	0.57460 0.77756 0.82837 0.00500
C 	C 	0.54792 0.71839 0.87841 -0.04500
C 	C 	0.48571 0.68603 0.89124 -0.02100
C 	C 	0.44914 0.71205 0.85341 -0.02200
C 	C 	0.47855 0.77390 0.80779 -0.02300
C 	C 	0.63553 0.80735 0.80794 0.02400
H 	H 	0.57398 0.69617 0.90524 0.04000
H 	H 	0.46398 0.63878 0.92750 0.03800
H 	H 	0.45115 0.79480 0.77878 0.03600
H 	H 	0.56221 0.85317 0.75795 0.03600
C 	C 	0.63316 0.81920 0.73837 -0.06800
C 	C 	0.69222 0.85292 0.71781 0.01700
C 	C 	0.75398 0.87485 0.76661 -0.09500
C 	C 	0.75535 0.85850 0.83703 0.01200
C 	C 	0.69644 0.82517 0.85760 -0.06700
H 	H 	0.58598 0.80401 0.69994 0.04500
H 	H 	0.69060 0.86515 0.66333 0.02400
H 	H 	0.80273 0.87475 0.87524 0.03400
H 	H 	0.69861 0.81521 0.91165 0.04400
C 	C 	0.25218 0.73356 0.90556 -0.04600
C 	C 	0.19254 0.72402 0.85807 0.00500
C 	C 	0.15951 0.68722 0.80959 -0.04500
C 	C 	0.18657 0.66145 0.80765 -0.02300
C 	C 	0.24725 0.67254 0.85383 -0.02000
C 	C 	0.27946 0.70808 0.90340 -0.02400
C 	C 	0.16676 0.75584 0.85599 0.02400
H 	H 	0.11373 0.67987 0.77233 0.04200
H 	H 	0.16132 0.63445 0.76896 0.04200
H 	H 	0.32583 0.71633 0.93995 0.03700
H 	H 	0.27782 0.76134 0.94358 0.03600
C 	C 	0.09927 0.71889 0.85847 -0.06700
C 	C 	0.07042 0.74999 0.83993 0.01900
C 	C 	0.10865 0.81823 0.81827 -0.09300
C 	C 	0.17825 0.85500 0.82506 0.01000
C 	C 	0.20710 0.82401 0.84300 -0.06600
H 	H 	0.06815 0.66619 0.87076 0.04700
H 	H 	0.01691 0.72095 0.83646 0.03100
H 	H 	0.20866 0.90771 0.80979 0.02100
H 	H 	0.25967 0.85314 0.84243 0.04000
C 	C 	0.20628 0.44903 0.23061 -0.04400
C 	C 	0.18352 0.39358 0.28575 0.00800
C 	C 	0.17192 0.39407 0.34033 -0.04400
C 	C 	0.18959 0.45150 0.34313 -0.02000
C 	C 	0.21764 0.50836 0.29076 -0.02000
C 	C 	0.22154 0.50546 0.23232 -0.01800
C 	C 	0.17447 0.33607 0.28773 0.02500
H 	H 	0.15156 0.35077 0.38176 0.04300
H 	H 	0.18531 0.45276 0.38800 0.04000
H 	H 	0.24176 0.54874 0.19079 0.04100
H 	H 	0.21492 0.44941 0.18784 0.04300
C 	C 	0.14067 0.31164 0.22805 -0.06100
C 	C 	0.12804 0.25479 0.23154 0.01500
C 	C 	0.14456 0.21927 0.29558 -0.08800
C 	C 	0.18398 0.24687 0.35344 0.01800
C 	C 	0.19943 0.30533 0.34940 -0.06300
H 	H 	0.12202 0.33523 0.17969 0.04700
H 	H 	0.10023 0.23542 0.18572 0.03900
H 	H 	0.19851 0.22071 0.40286 0.03400
H 	H 	0.22865 0.32540 0.39488 0.04800
C 	C 	0.65919 0.80657 0.29267 -0.06300
C 	C 	0.61830 0.82707 0.24632 0.02300
C 	C 	0.64054 0.87933 0.18845 -0.06500
C 	C 	0.70440 0.91292 0.17896 0.01000
C 	C 	0.74707 0.89522 0.22772 -0.08100
C 	C 	0.72342 0.84061 0.28337 0.01000
C 	C 	0.55236 0.79402 0.25833 0.00700
H 	H 	0.60906 0.89503 0.15189 0.04100
H 	H 	0.72209 0.95478 0.13553 0.02000
H 	H 	0.75600 0.82654 0.32129 0.03400
H 	H 	0.64181 0.76527 0.33664 0.04700
C 	C 	0.49344 0.76609 0.20716 -0.04600
C 	C 	0.43075 0.73284 0.21931 -0.02000
C 	C 	0.42619 0.72635 0.28311 -0.02300
C 	C 	0.48526 0.75696 0.33300 -0.02100
C 	C 	0.54822 0.79078 0.32065 -0.04700
H 	H 	0.49612 0.76890 0.15861 0.04200
H 	H 	0.38535 0.70958 0.18033 0.03900
H 	H 	0.48226 0.75225 0.38241 0.03700
H 	H 	0.59360 0.81345 0.35988 0.04000
C 	C 	0.17093 0.66411 0.38247 -0.04400
C 	C 	0.18200 0.72356 0.33932 0.00400
C 	C 	0.21963 0.75875 0.28871 -0.04400
C 	C 	0.24644 0.73526 0.28169 -0.02200
C 	C 	0.23561 0.67600 0.32481 -0.01900
C 	C 	0.19743 0.64031 0.37506 -0.02200
C 	C 	0.15044 0.74703 0.34355 0.02800
H 	H 	0.22740 0.80396 0.25417 0.03800
H 	H 	0.27534 0.76300 0.24238 0.03900
H 	H 	0.18911 0.59475 0.40898 0.04000
H 	H 	0.14181 0.63637 0.42157 0.04200
C 	C 	0.07995 0.70878 0.33167 -0.07300
C 	C 	0.04886 0.73710 0.31551 0.03500
C 	C 	0.08789 0.80425 0.30923 -0.09900
C 	C 	0.15837 0.83997 0.33110 0.01600
C 	C 	0.18963 0.81152 0.34807 -0.06900
H 	H 	0.04905 0.65846 0.32992 0.05100
H 	H 	0.99428 0.70832 0.30119 0.01900
H 	H 	0.18915 0.89141 0.32832 0.02000
H 	H 	0.24420 0.84091 0.35985 0.04200
C 	C 	0.90805 0.24360 0.54428 -0.06500
C 	C 	0.84011 0.21062 0.54131 0.02500
C 	C 	0.79529 0.14275 0.54931 -0.06200
C 	C 	0.81966 0.10767 0.56749 0.01500
C 	C 	0.88908 0.14002 0.57902 -0.08500
C 	C 	0.93240 0.20843 0.56292 0.01500
C 	C 	0.81792 0.24560 0.53903 0.00700
H 	H 	0.74243 0.11680 0.54577 0.05200
H 	H 	0.78552 0.05493 0.57872 0.04400
H 	H 	0.98590 0.23410 0.57014 0.02700
H 	H 	0.94274 0.29614 0.53608 0.04400
C 	C 	0.84877 0.27754 0.59165 -0.04500
C 	C 	0.82294 0.30409 0.59438 -0.02200
C 	C 	0.76572 0.29859 0.54480 -0.01900
C 	C 	0.73673 0.26919 0.49042 -0.02000
C 	C 	0.76275 0.24289 0.48754 -0.04400
H 	H 	0.89136 0.27989 0.63174 0.04100
H 	H 	0.84577 0.32656 0.63661 0.04000
H 	H 	0.69317 0.26550 0.45123 0.04200
H 	H 	0.73908 0.21913 0.44620 0.04400
C 	C 	0.79071 0.63951 0.57550 -0.06600
C 	C 	0.81982 0.61054 0.63338 0.02500
C 	C 	0.86020 0.63686 0.69219 -0.06600
C 	C 	0.87736 0.69564 0.68992 0.01500
C 	C 	0.85659 0.72964 0.62798 -0.09400
C 	C 	0.80881 0.69872 0.57300 0.01900
C 	C 	0.81181 0.55568 0.63031 0.00500
H 	H 	0.88114 0.61374 0.73815 0.04300
H 	H 	0.91192 0.71766 0.73397 0.03300
H 	H 	0.79069 0.72352 0.52567 0.02900
H 	H 	0.75702 0.61804 0.53097 0.04800
C 	C 	0.78071 0.49524 0.67753 -0.04500
C 	C 	0.76365 0.44088 0.66791 -0.02100
C 	C 	0.77661 0.44629 0.61035 -0.02100
C 	C 	0.81348 0.50793 0.56707 -0.02200
C 	C 	0.83103 0.56248 0.57697 -0.04600
H 	H 	0.76692 0.48970 0.71974 0.04100
H 	H 	0.73625 0.39366 0.70244 0.03900
H 	H 	0.82451 0.51289 0.52299 0.03800
H 	H 	0.85695 0.60942 0.54144 0.04000
C 	C 	0.30474 0.10676 0.54230 -0.06500
C 	C 	0.36670 0.13916 0.58838 0.03000
C 	C 	0.36814 0.13720 0.65309 -0.06700
C 	C 	0.30785 0.10054 0.67287 0.02800
C 	C 	0.24580 0.06535 0.62819 -0.09900
C 	C 	0.24449 0.06989 0.56217 0.02500
C 	C 	0.42996 0.17359 0.56984 0.00700
H 	H 	0.41594 0.16290 0.68859 0.05000
H 	H 	0.30940 0.09724 0.72400 0.03500
H 	H 	0.19677 0.04316 0.52715 0.04200
H 	H 	0.30327 0.10877 0.49187 0.05400
C 	C 	0.46643 0.14767 0.60299 -0.04300
C 	C 	0.53087 0.18443 0.59254 -0.01900
C 	C 	0.55943 0.24754 0.54941 -0.02000
C 	C 	0.52072 0.27126 0.51215 -0.01900
C 	C 	0.45622 0.23441 0.52239 -0.04400
H 	H 	0.44586 0.10012 0.63877 0.04800
H 	H 	0.56015 0.16548 0.62122 0.04300
H 	H 	0.54202 0.31963 0.47801 0.04100
H 	H 	0.42781 0.25424 0.49565 0.04400
C 	C 	0.81302 0.16013 0.05316 -0.05700
C 	C 	0.85785 0.22674 0.05239 0.02000
C 	C 	0.92715 0.25990 0.06169 -0.05700
C 	C 	0.95198 0.22548 0.07895 0.00100
C 	C 	0.90775 0.15762 0.08705 -0.07900
C 	C 	0.83791 0.12589 0.06971 0.01200
C 	C 	0.83323 0.25964 0.05001 0.02100
H 	H 	0.96209 0.31167 0.05912 0.04300
H 	H 	0.00596 0.25082 0.09072 0.04100
H 	H 	0.80319 0.07373 0.07472 0.04400
H 	H 	0.75930 0.13411 0.04491 0.05300
C 	C 	0.77985 0.25857 0.99609 -0.05700
C 	C 	0.75095 0.28224 0.99862 -0.03200
C 	C 	0.77548 0.30769 0.05483 -0.00700
C 	C 	0.83116 0.31197 0.10683 -0.02200
C 	C 	0.85970 0.28777 0.10465 -0.04600
H 	H 	0.75967 0.23795 0.95314 0.04300
H 	H 	0.70850 0.27942 0.95772 0.04100
H 	H 	0.85052 0.33144 0.15047 0.04100
H 	H 	0.90084 0.28886 0.14662 0.04200
C 	C 	0.84545 0.64163 0.18204 -0.06500
C 	C 	0.80955 0.61620 0.12288 0.02500
C 	C 	0.78425 0.64675 0.06162 -0.06500
C 	C 	0.80228 0.70659 0.05684 0.01900
C 	C 	0.84624 0.73655 0.11297 -0.09300
C 	C 	0.86231 0.70095 0.17743 0.01600
C 	C 	0.80234 0.56046 0.12346 0.00600
H 	H 	0.75372 0.62596 0.01658 0.05000
H 	H 	0.78745 0.73255 0.00743 0.03200
H 	H 	0.89347 0.72213 0.22220 0.03600
H 	H 	0.86329 0.61734 0.23041 0.04500
C 	C 	0.82472 0.56612 0.07388 -0.04500
C 	C 	0.80939 0.51106 0.06795 -0.02100
C 	C 	0.77174 0.45005 0.11163 -0.02000
C 	C 	0.75512 0.44578 0.16542 -0.02000
C 	C 	0.76982 0.50060 0.17094 -0.04500
H 	H 	0.85174 0.61261 0.03828 0.04200
H 	H 	0.82313 0.51517 0.02672 0.04100
H 	H 	0.72711 0.39909 0.20030 0.04100
H 	H 	0.75346 0.49588 0.21024 0.04200
C 	C 	0.36616 0.12671 0.16074 -0.06700
C 	C 	0.36714 0.12687 0.09843 0.03300
C 	C 	0.30632 0.09213 0.05244 -0.06500
C 	C 	0.24488 0.05560 0.06967 0.02800
C 	C 	0.24380 0.05371 0.13297 -0.09800
C 	C 	0.30467 0.09036 0.17790 0.02800
C 	C 	0.43184 0.16362 0.08136 0.00500
H 	H 	0.30668 0.09261 0.00389 0.05800
H 	H 	0.19811 0.02772 0.03448 0.04300
H 	H 	0.30443 0.08901 0.22703 0.03700
H 	H 	0.41303 0.15411 0.19616 0.05200
C 	C 	0.45454 0.22194 0.02984 -0.03300
C 	C 	0.51969 0.26125 0.01992 -0.00800
C 	C 	0.56260 0.24250 0.06148 -0.02200
C 	C 	0.53797 0.18173 0.10924 -0.01700
C 	C 	0.47287 0.14253 0.11940 -0.04200
H 	H 	0.42270 0.23804 0.99945 0.03300
H 	H 	0.53805 0.30782 0.98240 0.02900
H 	H 	0.57059 0.16666 0.14135 0.04400
H 	H 	0.45518 0.09690 0.15846 0.04900
