data_crystal

_cell_length_a 32.20548
_cell_length_b 28.98645
_cell_length_c 27.81650
_cell_angle_alpha 92.66830
_cell_angle_beta  85.32582
_cell_angle_gamma 124.33440

_symmetry_space_group_name_	'P 1'
_symmetry_space_group_name_H-M	'P 1'

loop_
_symmetry_equiv_pos_as_xyz
  x,y,z

loop_
_atom_site_label
_atom_site_type_symbol
_atom_site_fract_x
_atom_site_fract_y
_atom_site_fract_z
_atom_site_charge
C 	C 	0.92184 0.83385 0.97098 0.01100
C 	C 	0.96255 0.85692 0.93609 -0.01900
C 	C 	0.99268 0.91453 0.92800 -0.05600
C 	C 	0.98325 0.94991 0.95530 0.08300
C 	C 	0.94308 0.92698 0.99103 -0.07000
C 	C 	0.91217 0.86921 0.99831 -0.02400
N 	N 	0.01557 0.00944 0.94689 -0.14000
C 	C 	0.94222 0.09322 0.93962 0.01000
C 	C 	0.96306 0.09467 0.98251 -0.02300
C 	C 	0.98661 0.06663 0.98549 -0.06500
C 	C 	0.99005 0.03729 0.94523 0.08800
C 	C 	0.96878 0.03555 0.90261 -0.05900
C 	C 	0.94490 0.06324 0.89980 -0.01600
C 	C 	0.15413 0.09048 0.01432 0.02700
C 	C 	0.15289 0.10415 0.96696 -0.02800
C 	C 	0.10700 0.07868 0.94568 -0.04500
C 	C 	0.06189 0.03911 0.97129 0.07100
C 	C 	0.06291 0.02704 0.01955 -0.04000
C 	C 	0.10889 0.05251 0.04080 -0.02700
C 	C 	0.87125 0.18055 0.93110 0.03400
C 	C 	0.85330 0.13867 0.96582 -0.00100
C 	C 	0.87640 0.11012 0.96857 -0.02100
C 	C 	0.91750 0.12303 0.93643 0.02700
C 	C 	0.93495 0.16439 0.90120 -0.02200
C 	C 	0.91158 0.19265 0.89827 -0.00000
C 	C 	0.82729 0.65660 0.99354 0.01000
C 	C 	0.83849 0.67842 0.94675 0.00800
C 	C 	0.86853 0.73619 0.93948 -0.02100
C 	C 	0.88929 0.77267 0.97879 0.02100
C 	C 	0.87935 0.75066 0.02546 -0.01600
C 	C 	0.84828 0.69290 0.03281 0.01100
C 	C 	0.30288 0.15638 0.05367 0.03000
C 	C 	0.26707 0.09842 0.05391 0.00300
C 	C 	0.21735 0.07666 0.04402 -0.01500
C 	C 	0.20298 0.11280 0.03466 0.02700
C 	C 	0.23769 0.17074 0.03916 -0.01600
C 	C 	0.28742 0.19244 0.04900 0.00400
H 	H 	0.97090 0.83021 0.91531 0.06000
H 	H 	0.02378 0.93188 0.90079 0.06800
H 	H 	0.93599 0.95380 0.01322 0.07000
H 	H 	0.88074 0.85192 0.02518 0.07200
H 	H 	0.96106 0.11756 0.01351 0.07800
H 	H 	0.00155 0.06716 0.01909 0.06900
H 	H 	0.97099 0.01285 0.87159 0.06900
H 	H 	0.92847 0.06139 0.86669 0.05500
H 	H 	0.18763 0.13340 0.94622 0.08200
H 	H 	0.10653 0.08854 0.90873 0.07100
H 	H 	0.02831 0.99818 0.04049 0.05400
H 	H 	0.10943 0.04222 0.07759 0.05900
H 	H 	0.82156 0.12839 0.99073 0.08700
H 	H 	0.86226 0.07784 0.99552 0.06900
H 	H 	0.96665 0.17470 0.87623 0.06700
H 	H 	0.92512 0.22431 0.87085 0.08500
H 	H 	0.82360 0.65062 0.91609 0.09000
H 	H 	0.87573 0.75260 0.90332 0.07100
H 	H 	0.89583 0.77827 0.05598 0.06500
H 	H 	0.84046 0.67633 0.06898 0.08000
H 	H 	0.27845 0.07030 0.05889 0.08600
H 	H 	0.19066 0.03184 0.04132 0.07100
H 	H 	0.22668 0.19896 0.03301 0.07300
H 	H 	0.31456 0.23728 0.05029 0.08900
C 	C 	0.90057 0.83250 0.53037 0.01000
C 	C 	0.94140 0.86924 0.49841 -0.01800
C 	C 	0.97027 0.92660 0.50782 -0.05700
C 	C 	0.95765 0.94799 0.54867 0.08200
C 	C 	0.91688 0.91125 0.58043 -0.05600
C 	C 	0.88869 0.85380 0.57161 -0.01400
N 	N 	0.98662 0.00708 0.55895 -0.13700
C 	C 	0.93232 0.09418 0.49901 0.00700
C 	C 	0.94510 0.10294 0.54715 -0.01500
C 	C 	0.96457 0.07559 0.56606 -0.05800
C 	C 	0.97125 0.03903 0.53722 0.08700
C 	C 	0.96012 0.03185 0.48834 -0.06200
C 	C 	0.94070 0.05930 0.46947 -0.01300
C 	C 	0.14359 0.08036 0.56390 0.00700
C 	C 	0.12476 0.08357 0.52138 -0.01700
C 	C 	0.07329 0.06027 0.51956 -0.06200
C 	C 	0.04013 0.03322 0.56037 0.08400
C 	C 	0.05926 0.03054 0.60288 -0.05800
C 	C 	0.11074 0.05406 0.60470 -0.01500
C 	C 	0.86381 0.17196 0.44897 0.03600
C 	C 	0.83757 0.12873 0.48303 -0.00100
C 	C 	0.85948 0.10243 0.49846 -0.02200
C 	C 	0.90803 0.11948 0.48030 0.02800
C 	C 	0.93395 0.16198 0.44554 -0.02400
C 	C 	0.91201 0.18834 0.43010 -0.00200
C 	C 	0.81342 0.65497 0.51130 0.03100
C 	C 	0.78937 0.68303 0.51734 -0.00100
C 	C 	0.81786 0.74115 0.52200 -0.02200
C 	C 	0.87066 0.77165 0.52110 0.03000
C 	C 	0.89474 0.74365 0.51311 -0.01900
C 	C 	0.86621 0.68565 0.50736 0.00300
C 	C 	0.30050 0.14821 0.56800 0.03600
C 	C 	0.26848 0.09644 0.54581 -0.00100
C 	C 	0.21715 0.07415 0.54468 -0.02200
C 	C 	0.19755 0.10364 0.56545 0.02800
C 	C 	0.22952 0.15538 0.58766 -0.02300
C 	C 	0.28091 0.17780 0.58860 -0.00000
H 	H 	0.95077 0.85335 0.46635 0.05600
H 	H 	0.00204 0.95433 0.48326 0.05500
H 	H 	0.90729 0.92734 0.61219 0.06700
H 	H 	0.85778 0.82579 0.59693 0.06700
H 	H 	0.93920 0.13027 0.57009 0.05900
H 	H 	0.97336 0.08169 0.60354 0.06800
H 	H 	0.96670 0.00547 0.46499 0.06300
H 	H 	0.93144 0.05279 0.43210 0.06400
H 	H 	0.14995 0.10380 0.48970 0.05800
H 	H 	0.05915 0.06221 0.48630 0.06000
H 	H 	0.03403 0.00985 0.63442 0.06700
H 	H 	0.12505 0.05145 0.63767 0.06600
H 	H 	0.80064 0.11637 0.49828 0.09000
H 	H 	0.83911 0.06944 0.52513 0.07000
H 	H 	0.97144 0.17536 0.43128 0.06800
H 	H 	0.93275 0.22209 0.40417 0.08600
H 	H 	0.74861 0.65970 0.51937 0.08200
H 	H 	0.79891 0.76241 0.52702 0.06800
H 	H 	0.93544 0.76670 0.51216 0.07000
H 	H 	0.88507 0.66440 0.50113 0.09200
H 	H 	0.28348 0.07376 0.52914 0.08700
H 	H 	0.19266 0.03414 0.52749 0.06900
H 	H 	0.21465 0.17843 0.60373 0.06900
H 	H 	0.30556 0.21828 0.60501 0.08900
Co	Co	0.71201 0.31962 0.97867 1.19900
O 	O 	0.76844 0.32419 0.93178 -0.30500
Co	Co	0.60620 0.30848 0.01790 1.19700
O 	O 	0.64242 0.28463 0.95411 -0.42200
O 	O 	0.66259 0.38782 0.02852 -0.37300
O 	O 	0.71533 0.24800 0.96786 -0.28300
C 	C 	0.70717 0.41646 0.00392 0.36500
O 	O 	0.59953 0.31860 0.94361 -0.31000
C 	C 	0.51458 0.24657 0.05498 0.31500
C 	C 	0.68385 0.31087 0.07290 0.28800
O 	O 	0.54658 0.29908 0.06306 -0.28900
O 	O 	0.53519 0.22839 0.02529 -0.29300
O 	O 	0.72861 0.33063 0.05295 -0.25700
O 	O 	0.64958 0.28479 0.04211 -0.41600
O 	O 	0.72091 0.39279 0.97012 -0.51400
C 	C 	0.75381 0.27304 0.93717 0.31300
C 	C 	0.62966 0.30599 0.92347 0.28200
H 	H 	0.74348 0.41578 0.94119 0.21700
Co	Co	0.71237 0.31871 0.48030 1.20000
O 	O 	0.76959 0.32336 0.43462 -0.28000
Co	Co	0.60612 0.30707 0.51761 1.20400
O 	O 	0.64375 0.28539 0.45357 -0.42300
O 	O 	0.66444 0.38387 0.53041 -0.37900
O 	O 	0.71565 0.24699 0.46997 -0.28900
C 	C 	0.70346 0.41513 0.49957 0.36500
O 	O 	0.60182 0.32068 0.44365 -0.22000
C 	C 	0.51429 0.24676 0.55366 0.28500
C 	C 	0.68109 0.30633 0.57399 0.27400
O 	O 	0.54713 0.29866 0.56300 -0.28500
O 	O 	0.53372 0.22808 0.52300 -0.26700
O 	O 	0.72642 0.32725 0.55514 -0.26600
O 	O 	0.64788 0.28155 0.54204 -0.42400
O 	O 	0.72634 0.39491 0.47327 -0.50500
C 	C 	0.75524 0.27242 0.44060 0.29000
C 	C 	0.63230 0.30862 0.42346 0.28600
H 	H 	0.75596 0.42078 0.45003 0.23500
C 	C 	0.64076 0.28515 0.77493 0.12900
N 	N 	0.60629 0.29448 0.79507 -0.04300
N 	N 	0.60217 0.30025 0.84269 -0.02800
C 	C 	0.63205 0.29626 0.87153 0.06300
N 	N 	0.66587 0.28591 0.85152 -0.03400
N 	N 	0.67035 0.28070 0.80385 -0.02900
C 	C 	0.66810 0.29425 0.62556 0.07000
N 	N 	0.70267 0.29979 0.65442 -0.02300
N 	N 	0.69306 0.29462 0.70207 -0.03800
C 	C 	0.64891 0.28462 0.72228 0.13000
N 	N 	0.61400 0.27829 0.69335 -0.04600
N 	N 	0.62339 0.28279 0.64562 -0.05100
C 	C 	0.65458 0.29333 0.22177 0.13400
N 	N 	0.61846 0.28424 0.19308 -0.02600
N 	N 	0.62717 0.28790 0.14527 -0.03300
C 	C 	0.67238 0.30124 0.12489 0.08000
N 	N 	0.70833 0.30991 0.15354 -0.01800
N 	N 	0.69942 0.30560 0.20128 -0.03800
C 	C 	0.63602 0.30113 0.37128 0.09200
N 	N 	0.67125 0.29313 0.35094 -0.04800
N 	N 	0.67658 0.28960 0.30315 -0.04300
C 	C 	0.64646 0.29340 0.27445 0.13700
N 	N 	0.61077 0.30063 0.29488 -0.02600
N 	N 	0.60584 0.30479 0.34262 -0.00400
C 	C 	0.75769 0.56583 0.46830 0.00400
C 	C 	0.78317 0.59330 0.50974 0.09000
C 	C 	0.77913 0.56176 0.54944 -0.13300
C 	C 	0.75435 0.50365 0.54450 0.09200
C 	C 	0.72914 0.47623 0.50300 -0.03700
C 	C 	0.72857 0.50714 0.46547 -0.06200
C 	C 	0.69580 0.47768 0.42337 0.76900
H 	H 	0.76038 0.59034 0.43848 0.09900
H 	H 	0.75447 0.47948 0.57301 0.08700
C 	C 	0.80254 0.58991 0.59644 0.79200
F 	F 	0.69556 0.51478 0.39397 -0.40900
F 	F 	0.64666 0.43906 0.44046 -0.41100
F 	F 	0.71349 0.45058 0.39572 -0.43600
F 	F 	0.79187 0.62887 0.61009 -0.43200
F 	F 	0.85418 0.61619 0.59071 -0.43100
F 	F 	0.78398 0.55150 0.63353 -0.41700
C 	C 	0.85962 0.25422 0.46300 0.00900
C 	C 	0.84341 0.20451 0.43773 0.08600
C 	C 	0.80408 0.18324 0.40628 -0.12600
C 	C 	0.77683 0.20774 0.40625 0.07500
C 	C 	0.79039 0.25495 0.43457 0.00600
C 	C 	0.83365 0.28009 0.46173 -0.06800
C 	C 	0.85197 0.33402 0.48952 0.77500
H 	H 	0.89121 0.27127 0.48538 0.09800
H 	H 	0.74391 0.18899 0.38544 0.09200
C 	C 	0.78917 0.13257 0.37489 0.79100
F 	F 	0.89366 0.35049 0.51464 -0.41600
F 	F 	0.81435 0.32699 0.52255 -0.43500
F 	F 	0.86547 0.37641 0.45782 -0.41300
F 	F 	0.76206 0.08484 0.40291 -0.42800
F 	F 	0.83160 0.13722 0.35324 -0.42700
F 	F 	0.75972 0.12729 0.33864 -0.41200
C 	C 	0.38449 0.20562 0.52450 0.01000
C 	C 	0.35535 0.17399 0.56528 0.08500
C 	C 	0.37845 0.16669 0.60267 -0.12400
C 	C 	0.43081 0.19156 0.59825 0.07200
C 	C 	0.45992 0.22287 0.55729 0.00800
C 	C 	0.43682 0.23073 0.52013 -0.06700
C 	C 	0.46755 0.26444 0.47525 0.77400
H 	H 	0.36609 0.21033 0.49604 0.09900
H 	H 	0.44909 0.18636 0.62651 0.09400
C 	C 	0.34735 0.13241 0.64711 0.79100
F 	F 	0.43880 0.27101 0.44549 -0.40600
F 	F 	0.48631 0.23745 0.44922 -0.41400
F 	F 	0.50712 0.31715 0.48806 -0.41400
F 	F 	0.31050 0.07858 0.63363 -0.42700
F 	F 	0.32471 0.15646 0.67105 -0.42700
F 	F 	0.37657 0.12930 0.67894 -0.41000
C 	C 	0.71451 0.50577 0.99605 0.08400
C 	C 	0.73693 0.47813 0.00696 -0.02900
C 	C 	0.78777 0.50954 0.01913 -0.06200
C 	C 	0.81705 0.56792 0.01340 -0.00100
C 	C 	0.79490 0.59549 0.00133 0.11100
C 	C 	0.74234 0.56444 0.99594 -0.14400
C 	C 	0.71612 0.59338 0.98828 0.78900
H 	H 	0.67544 0.48145 0.98718 0.08300
H 	H 	0.85710 0.59210 0.01836 0.10100
C 	C 	0.81033 0.48129 0.03956 0.77100
F 	F 	0.66449 0.55758 0.99764 -0.41500
F 	F 	0.72552 0.61126 0.94101 -0.43200
F 	F 	0.73310 0.63880 0.01884 -0.42100
F 	F 	0.81739 0.45118 0.00378 -0.44100
F 	F 	0.77841 0.44569 0.07660 -0.42400
F 	F 	0.85641 0.51982 0.05811 -0.41000
C 	C 	0.83007 0.27907 0.95783 0.07500
C 	C 	0.78869 0.25548 0.92936 0.00300
C 	C 	0.77820 0.21161 0.89704 -0.06800
C 	C 	0.80636 0.18823 0.89752 0.01100
C 	C 	0.84620 0.20997 0.92776 0.08400
C 	C 	0.85978 0.25743 0.95667 -0.12200
C 	C 	0.90441 0.28338 0.98786 0.77800
H 	H 	0.83796 0.31303 0.98213 0.10000
H 	H 	0.79661 0.15220 0.87525 0.09500
C 	C 	0.73556 0.18807 0.86369 0.77400
F 	F 	0.91517 0.33306 0.00855 -0.39700
F 	F 	0.94688 0.29472 0.96029 -0.42700
F 	F 	0.89394 0.24686 0.02445 -0.41700
F 	F 	0.73875 0.23108 0.84012 -0.41800
F 	F 	0.68986 0.15787 0.89036 -0.41300
F 	F 	0.73728 0.15322 0.82903 -0.41700
C 	C 	0.43807 0.21129 0.01132 0.08700
C 	C 	0.46021 0.22243 0.05545 -0.00300
C 	C 	0.43055 0.21119 0.09929 -0.06200
C 	C 	0.37921 0.19052 0.09789 0.00800
C 	C 	0.35706 0.17910 0.05370 0.08800
C 	C 	0.38654 0.18904 0.00985 -0.12100
C 	C 	0.36331 0.17683 0.96149 0.78500
H 	H 	0.46137 0.22059 0.97805 0.08600
H 	H 	0.35630 0.18317 0.13111 0.10000
C 	C 	0.45373 0.22212 0.14741 0.77300
F 	F 	0.39784 0.18729 0.92325 -0.41100
F 	F 	0.34584 0.21010 0.95588 -0.43300
F 	F 	0.32368 0.12127 0.95914 -0.43200
F 	F 	0.48736 0.27900 0.15373 -0.40200
F 	F 	0.47897 0.19630 0.14856 -0.41300
F 	F 	0.41755 0.20178 0.18563 -0.41000
