data_crystal

_cell_length_a 18.47375
_cell_length_b 18.84652
_cell_length_c 26.56509
_cell_angle_alpha 95.42508
_cell_angle_beta  95.42436
_cell_angle_gamma 126.41283

_symmetry_space_group_name_	'P 1'
_symmetry_space_group_name_H-M	'P 1'

loop_
_symmetry_equiv_pos_as_xyz
  x,y,z

loop_
_atom_site_label
_atom_site_type_symbol
_atom_site_fract_x
_atom_site_fract_y
_atom_site_fract_z
_atom_site_charge
C 	C 	0.00007 0.08564 0.98753 0.16000
N 	N 	0.09293 0.13572 0.99958 -0.14000
C 	C 	0.13312 0.09414 0.00041 0.17000
N 	N 	0.08040 0.00324 0.99060 -0.14000
C 	C 	0.98803 0.95347 0.97765 0.14100
N 	N 	0.94829 0.99499 0.97556 -0.14700
C 	C 	0.85721 0.94350 0.44896 0.14000
N 	N 	0.80989 0.85251 0.43960 -0.12800
C 	C 	0.85639 0.81716 0.44314 0.14400
N 	N 	0.94927 0.87261 0.45464 -0.13300
C 	C 	0.99616 0.96295 0.46455 0.13900
N 	N 	0.94968 0.99777 0.46327 -0.13600
Cu	Cu	0.68104 0.26986 0.02317 0.92800
Cu	Cu	0.69904 0.22074 0.90278 0.89100
Cu	Cu	0.70949 0.39367 0.94763 0.90900
Cu	Cu	0.70800 0.45244 0.05756 0.90900
C 	C 	0.71025 0.34418 0.12961 0.32300
O 	O 	0.55088 0.22001 0.03041 -0.34900
C 	C 	0.68733 0.33279 0.84228 0.33400
O 	O 	0.75669 0.40783 0.01819 -0.63200
O 	O 	0.64976 0.26397 0.94814 -0.63400
O 	O 	0.74899 0.21679 0.02472 -0.33500
O 	O 	0.69044 0.13940 0.94214 -0.39600
O 	O 	0.74130 0.42518 0.12228 -0.35900
O 	O 	0.77705 0.52008 0.94748 -0.36500
C 	C 	0.78355 0.57854 0.98293 0.29400
C 	C 	0.51887 0.26563 0.02350 0.30900
O 	O 	0.57212 0.34663 0.01326 -0.37600
O 	O 	0.74133 0.55419 0.02255 -0.35600
O 	O 	0.71685 0.29210 0.09672 -0.33600
C 	C 	0.74973 0.17016 0.98491 0.29000
O 	O 	0.66479 0.37045 0.87463 -0.35900
O 	O 	0.73908 0.31075 0.85981 -0.41000
H 	H 	0.82427 0.44418 0.02636 0.17300
H 	H 	0.58279 0.22812 0.93631 0.17100
Cu	Cu	0.70287 0.28830 0.43685 0.92700
Cu	Cu	0.72031 0.24006 0.55041 0.87800
Cu	Cu	0.57425 0.25273 0.51292 0.90300
Cu	Cu	0.51554 0.25871 0.40256 0.90900
C 	C 	0.62766 0.25920 0.33058 0.32000
O 	O 	0.75178 0.41641 0.43069 -0.35400
C 	C 	0.65491 0.29827 0.62404 0.32600
O 	O 	0.56186 0.21114 0.44149 -0.63400
O 	O 	0.70664 0.31437 0.51141 -0.63800
O 	O 	0.76448 0.22898 0.43921 -0.34400
O 	O 	0.68075 0.14492 0.49597 -0.43000
O 	O 	0.54461 0.22750 0.33785 -0.35700
O 	O 	0.44352 0.18290 0.51101 -0.36000
C 	C 	0.38467 0.17555 0.47434 0.31500
C 	C 	0.70363 0.44599 0.43772 0.30600
O 	O 	0.62102 0.39214 0.44757 -0.36400
O 	O 	0.41271 0.22510 0.43835 -0.37800
O 	O 	0.68152 0.25330 0.36337 -0.33900
C 	C 	0.73108 0.15796 0.46105 0.30300
O 	O 	0.58993 0.28377 0.58839 -0.35500
O 	O 	0.72646 0.30585 0.61190 -0.39800
H 	H 	0.52634 0.14517 0.43207 0.17900
H 	H 	0.74610 0.37888 0.52735 0.18700
C 	C 	0.59589 0.24666 0.75453 0.10100
C 	C 	0.66777 0.32879 0.78659 -0.11400
C 	C 	0.72573 0.40473 0.76478 0.10700
C 	C 	0.71639 0.39650 0.71086 0.10400
C 	C 	0.65036 0.31207 0.67889 -0.10700
C 	C 	0.58725 0.23817 0.70066 0.10000
Br	Br	0.49138 0.12444 0.65672 -0.21000
Br	Br	0.51024 0.14557 0.78462 -0.23400
Br	Br	0.79297 0.50073 0.68063 -0.19400
Br	Br	0.81930 0.51917 0.80879 -0.18600
C 	C 	0.63874 0.34315 0.20538 0.10400
C 	C 	0.68978 0.32156 0.18108 -0.10000
C 	C 	0.72161 0.27974 0.20669 0.10400
C 	C 	0.69270 0.25049 0.25269 0.10700
C 	C 	0.65126 0.28175 0.27957 -0.10300
C 	C 	0.62937 0.33288 0.25657 0.10400
Br	Br	0.59410 0.39532 0.29622 -0.22500
Br	Br	0.57412 0.37837 0.16735 -0.20800
Br	Br	0.69845 0.15868 0.27407 -0.18100
Br	Br	0.81371 0.27315 0.18352 -0.17100
C 	C 	0.74565 0.54235 0.44018 -0.10400
C 	C 	0.79277 0.58650 0.40163 -0.03900
C 	C 	0.82276 0.67422 0.39993 0.14800
C 	C 	0.80686 0.71920 0.43745 -0.03700
C 	C 	0.75873 0.67466 0.47556 -0.08200
C 	C 	0.72957 0.58739 0.47765 0.18400
H 	H 	0.80468 0.55232 0.37234 0.07800
O 	O 	0.87013 0.71691 0.36250 -0.26800
H 	H 	0.74749 0.70917 0.50506 0.07900
O 	O 	0.68554 0.54632 0.51642 -0.27600
H 	H 	0.73472 0.56224 0.54468 0.15800
H 	H 	0.82282 0.70248 0.33345 0.16300
C 	C 	0.80997 0.98452 0.44059 -0.03500
C 	C 	0.85150 0.06105 0.41765 -0.08700
C 	C 	0.82364 0.11600 0.42164 0.18700
C 	C 	0.75172 0.09352 0.44787 -0.11000
C 	C 	0.70397 0.01173 0.46596 -0.04300
C 	C 	0.73390 0.95843 0.46336 0.13900
H 	H 	0.90866 0.08050 0.39881 0.08700
O 	O 	0.87014 0.19376 0.40230 -0.27600
H 	H 	0.64578 0.99114 0.48402 0.06700
O 	O 	0.68966 0.88192 0.48399 -0.26500
H 	H 	0.72089 0.90145 0.52051 0.15000
H 	H 	0.83862 0.17642 0.36602 0.18100
C 	C 	0.09763 0.02314 0.47398 -0.02800
C 	C 	0.14599 0.99233 0.49312 -0.09000
C 	C 	0.24087 0.04375 0.49593 0.19100
C 	C 	0.28844 0.12736 0.48015 -0.10800
C 	C 	0.24132 0.16115 0.46493 -0.03900
C 	C 	0.14655 0.10936 0.46101 0.14200
H 	H 	0.10977 0.92748 0.50467 0.08500
O 	O 	0.28584 0.00974 0.51115 -0.28300
H 	H 	0.27792 0.22673 0.45427 0.07400
O 	O 	0.10135 0.14072 0.44127 -0.26500
H 	H 	0.10218 0.17695 0.47128 0.15700
H 	H 	0.30436 0.02934 0.54910 0.17400
C 	C 	0.82896 0.67101 0.97465 -0.10200
C 	C 	0.90975 0.71454 0.95453 -0.04100
C 	C 	0.96042 0.80617 0.95325 0.13700
C 	C 	0.93041 0.85505 0.97262 -0.03400
C 	C 	0.84631 0.80983 0.98943 -0.10000
C 	C 	0.79477 0.71801 0.98945 0.17500
H 	H 	0.93464 0.67794 0.94112 0.07100
O 	O 	0.03714 0.84696 0.93140 -0.25500
H 	H 	0.82157 0.84625 0.00343 0.09000
O 	O 	0.71165 0.67457 0.00479 -0.25500
H 	H 	0.66616 0.65300 0.97290 0.14600
H 	H 	0.08764 0.86433 0.95920 0.15200
C 	C 	0.95451 0.12805 0.99158 -0.06000
C 	C 	0.93262 0.15266 0.94785 -0.08100
C 	C 	0.86692 0.16795 0.94568 0.18100
C 	C 	0.82177 0.15774 0.98748 -0.12500
C 	C 	0.84844 0.13936 0.03260 -0.02800
C 	C 	0.91403 0.12392 0.03463 0.15900
H 	H 	0.96360 0.15611 0.91458 0.07400
O 	O 	0.84566 0.19104 0.90233 -0.31100
H 	H 	0.81649 0.13448 0.06562 0.08200
O 	O 	0.93746 0.10335 0.07847 -0.26600
H 	H 	0.89330 0.03709 0.07423 0.15800
H 	H 	0.88811 0.25759 0.90855 0.13200
C 	C 	0.41956 0.22041 0.01755 -0.09200
C 	C 	0.37664 0.23717 0.97911 -0.05500
C 	C 	0.28440 0.20132 0.97562 0.13900
C 	C 	0.23353 0.14683 0.01018 -0.03000
C 	C 	0.27664 0.13111 0.04911 -0.08000
C 	C 	0.36914 0.16736 0.05282 0.18500
H 	H 	0.41480 0.27783 0.95171 0.06800
O 	O 	0.24276 0.21536 0.93653 -0.26800
H 	H 	0.23785 0.08919 0.07591 0.08000
O 	O 	0.41090 0.15383 0.09213 -0.26700
H 	H 	0.40116 0.09731 0.07861 0.16300
H 	H 	0.25129 0.27102 0.95064 0.15500
