data_crystal

_cell_length_a 18.16221
_cell_length_b 19.38430
_cell_length_c 26.83871
_cell_angle_alpha 95.42258
_cell_angle_beta  95.42516
_cell_angle_gamma 126.43388

_symmetry_space_group_name_	'P 1'
_symmetry_space_group_name_H-M	'P 1'

loop_
_symmetry_equiv_pos_as_xyz
  x,y,z

loop_
_atom_site_label
_atom_site_type_symbol
_atom_site_fract_x
_atom_site_fract_y
_atom_site_fract_z
_atom_site_charge
C 	C 	0.93120 0.01881 0.98018 0.10100
N 	N 	0.02233 0.06822 0.97552 -0.09500
C 	C 	0.06396 0.02984 0.96688 0.15000
N 	N 	0.01415 0.94212 0.96223 -0.09300
C 	C 	0.92334 0.89261 0.96678 0.12200
N 	N 	0.88176 0.93089 0.97570 -0.11400
C 	C 	0.93412 0.02092 0.48250 0.10000
N 	N 	0.02533 0.07015 0.47802 -0.09600
C 	C 	0.06706 0.03170 0.47011 0.15000
N 	N 	0.01737 0.94411 0.46609 -0.09700
C 	C 	0.92628 0.89466 0.47002 0.12300
N 	N 	0.88463 0.93304 0.47841 -0.11400
Cu	Cu	0.63239 0.22986 0.00874 0.93000
Cu	Cu	0.71470 0.22439 0.90572 0.88800
Cu	Cu	0.68548 0.35663 0.93445 0.90000
Cu	Cu	0.62721 0.38877 0.02936 0.90000
C 	C 	0.64907 0.30424 0.11189 0.28700
O 	O 	0.49464 0.17344 0.00378 -0.34000
C 	C 	0.67407 0.29089 0.82670 0.28000
O 	O 	0.70522 0.36349 0.00674 -0.64400
O 	O 	0.62390 0.22983 0.93429 -0.63000
O 	O 	0.68997 0.16833 0.01486 -0.35000
O 	O 	0.79491 0.25217 0.96687 -0.43000
O 	O 	0.61123 0.33952 0.09301 -0.36300
O 	O 	0.75235 0.48153 0.94007 -0.36200
C 	C 	0.73909 0.52958 0.97037 0.31000
C 	C 	0.45682 0.20658 0.98257 0.30800
O 	O 	0.51031 0.28471 0.97162 -0.37600
O 	O 	0.67499 0.49497 0.99920 -0.37200
O 	O 	0.65974 0.25350 0.08192 -0.34900
C 	C 	0.76564 0.19474 0.99671 0.32000
O 	O 	0.68375 0.35183 0.86027 -0.36300
O 	O 	0.66234 0.22197 0.84030 -0.39600
H 	H 	0.77129 0.40423 0.02414 0.16800
H 	H 	0.56017 0.19047 0.91356 0.18900
Cu	Cu	0.63566 0.23250 0.50914 0.93200
Cu	Cu	0.71714 0.22769 0.40578 0.88700
Cu	Cu	0.68412 0.35724 0.43396 0.89700
Cu	Cu	0.62996 0.39094 0.53033 0.90600
C 	C 	0.65419 0.30720 0.61257 0.29000
O 	O 	0.49810 0.17610 0.50532 -0.33600
C 	C 	0.67293 0.29172 0.32639 0.28100
O 	O 	0.70745 0.36582 0.50645 -0.63900
O 	O 	0.62523 0.23119 0.43460 -0.63200
O 	O 	0.69305 0.17080 0.51470 -0.34500
O 	O 	0.79774 0.25483 0.46664 -0.42900
O 	O 	0.61578 0.34220 0.59409 -0.35800
O 	O 	0.74885 0.48185 0.43830 -0.37200
C 	C 	0.74164 0.53119 0.47179 0.31300
C 	C 	0.45952 0.20857 0.48409 0.30300
O 	O 	0.51231 0.28669 0.47305 -0.38000
O 	O 	0.67686 0.49670 0.50014 -0.36800
O 	O 	0.66534 0.25721 0.58225 -0.35000
C 	C 	0.76859 0.19729 0.49642 0.31500
O 	O 	0.67607 0.34931 0.35936 -0.37100
O 	O 	0.66416 0.22412 0.34014 -0.39500
H 	H 	0.77397 0.40702 0.52304 0.17600
H 	H 	0.56130 0.19068 0.41417 0.18800
C 	C 	0.64036 0.34963 0.70046 -0.00100
C 	C 	0.66518 0.30786 0.66816 -0.04800
C 	C 	0.69676 0.26385 0.68886 -0.00600
C 	C 	0.70028 0.25902 0.74058 -0.00500
C 	C 	0.67272 0.29844 0.77240 -0.05500
C 	C 	0.64389 0.34470 0.75217 -0.00200
H 	H 	0.61709 0.38494 0.68545 0.06300
H 	H 	0.71789 0.23273 0.66491 0.05900
H 	H 	0.72462 0.22471 0.75591 0.04500
H 	H 	0.62283 0.37575 0.77627 0.06800
C 	C 	0.62829 0.33312 0.25029 -0.00000
C 	C 	0.67038 0.29867 0.27207 -0.05900
C 	C 	0.70901 0.26946 0.24161 -0.00400
C 	C 	0.70400 0.27304 0.18970 -0.00800
C 	C 	0.65965 0.30534 0.16750 -0.04900
C 	C 	0.62290 0.33646 0.19837 -0.00500
H 	H 	0.59818 0.35584 0.27332 0.05700
H 	H 	0.74312 0.24410 0.25817 0.04300
H 	H 	0.73428 0.25037 0.16681 0.05600
H 	H 	0.58882 0.36199 0.18208 0.06300
C 	C 	0.89296 0.77558 0.51454 -0.06800
C 	C 	0.87602 0.80137 0.47056 -0.01200
C 	C 	0.81840 0.73850 0.42605 0.09600
C 	C 	0.77763 0.65043 0.42609 -0.01500
C 	C 	0.79372 0.62452 0.47033 -0.09200
C 	C 	0.85239 0.68770 0.51460 0.14000
Br	Br	0.88046 0.65549 0.57499 -0.24800
H 	H 	0.93879 0.82410 0.54856 0.08000
H 	H 	0.73203 0.60198 0.39201 0.07000
Br	Br	0.79505 0.77179 0.36488 -0.19800
C 	C 	0.88257 0.17499 0.53259 -0.00200
C 	C 	0.80354 0.14555 0.49694 -0.11300
C 	C 	0.76429 0.07184 0.45852 0.14600
C 	C 	0.80649 0.03070 0.45478 -0.09100
C 	C 	0.88762 0.06204 0.48922 0.00600
C 	C 	0.92417 0.13306 0.52932 0.05900
Br	Br	0.02763 0.17104 0.58136 -0.15600
H 	H 	0.91231 0.23099 0.56259 0.05300
H 	H 	0.77713 0.97526 0.42441 0.10400
Br	Br	0.65400 0.02743 0.41014 -0.28300
C 	C 	0.22503 0.11109 0.52137 -0.06100
C 	C 	0.16838 0.08546 0.47380 -0.01200
C 	C 	0.20768 0.10121 0.42958 0.09900
C 	C 	0.30288 0.14105 0.43327 -0.01700
C 	C 	0.35907 0.16421 0.48075 -0.09000
C 	C 	0.31979 0.14986 0.52512 0.14000
Br	Br	0.39415 0.18378 0.59137 -0.20800
H 	H 	0.19483 0.09887 0.55545 0.09100
H 	H 	0.33298 0.15334 0.39916 0.06600
Br	Br	0.13223 0.06813 0.36388 -0.17500
C 	C 	0.84695 0.68515 0.01236 -0.02600
C 	C 	0.78960 0.62247 0.96804 -0.08600
C 	C 	0.77403 0.64871 0.92352 0.14200
C 	C 	0.81639 0.73716 0.92379 -0.06800
C 	C 	0.87381 0.79966 0.96815 -0.00500
C 	C 	0.88902 0.77338 0.01261 0.09100
Br	Br	0.96620 0.85712 0.07428 -0.21100
H 	H 	0.85813 0.66512 0.04686 0.05800
H 	H 	0.80496 0.75732 0.88942 0.08300
Br	Br	0.69277 0.56468 0.86258 -0.21300
C 	C 	0.80282 0.02818 0.95387 -0.09200
C 	C 	0.88473 0.05980 0.98766 0.01200
C 	C 	0.92163 0.13053 0.02803 0.05500
C 	C 	0.87977 0.17213 0.03208 -0.00700
C 	C 	0.80002 0.14252 0.99701 -0.10700
C 	C 	0.76026 0.06887 0.95847 0.14500
Br	Br	0.64883 0.02401 0.91098 -0.28500
H 	H 	0.77307 0.97284 0.92336 0.09800
H 	H 	0.90993 0.22810 0.06219 0.05300
Br	Br	0.02590 0.16844 0.07943 -0.15200
C 	C 	0.30122 0.14209 0.93145 -0.01700
C 	C 	0.35634 0.16266 0.97886 -0.08500
C 	C 	0.31590 0.14575 0.02286 0.13700
C 	C 	0.22101 0.10670 0.01874 -0.06700
C 	C 	0.16543 0.08367 0.97119 -0.00300
C 	C 	0.20593 0.10223 0.92740 0.09900
Br	Br	0.13208 0.07301 0.86179 -0.18300
H 	H 	0.33220 0.15638 0.89765 0.06800
H 	H 	0.18988 0.09235 0.05250 0.09800
Br	Br	0.38890 0.17693 0.08916 -0.20800
