data_crystal

_cell_length_a 39.10241
_cell_length_b 32.47191
_cell_length_c 14.77506
_cell_angle_alpha 88.86959
_cell_angle_beta  90.00186
_cell_angle_gamma 130.27479

_symmetry_space_group_name_	'P 1'
_symmetry_space_group_name_H-M	'P 1'

loop_
_symmetry_equiv_pos_as_xyz
  x,y,z

loop_
_atom_site_label
_atom_site_type_symbol
_atom_site_fract_x
_atom_site_fract_y
_atom_site_fract_z
_atom_site_charge
C 	C 	0.01232 0.24370 0.00902 -0.03200
C 	C 	0.03746 0.33243 0.96978 -0.03400
H 	H 	0.01584 0.21334 0.00401 0.04600
C 	C 	0.01293 0.20867 0.52224 -0.06100
C 	C 	0.00907 0.20904 0.42776 -0.02300
C 	C 	0.01232 0.74370 0.00902 -0.03200
C 	C 	0.03746 0.83243 0.96978 -0.03500
H 	H 	0.01584 0.71334 0.00401 0.04600
C 	C 	0.01293 0.70867 0.52224 -0.06100
C 	C 	0.00907 0.70904 0.42776 -0.02400
I 	I 	0.99870 0.38373 0.03646 -0.10900
I 	I 	0.99870 0.88373 0.03646 -0.11000
C 	C 	0.00233 0.32166 0.02229 0.06300
C 	C 	0.00233 0.82166 0.02229 0.06300
C 	C 	0.04287 0.29376 0.96423 -0.04400
H 	H 	0.03870 0.23287 0.38438 0.04400
C 	C 	0.04287 0.79376 0.96423 -0.04500
H 	H 	0.03870 0.73287 0.38438 0.04400
C 	C 	0.07885 0.30445 0.90711 0.28400
O 	O 	0.05814 0.25955 0.65085 -0.39300
O 	O 	0.07539 0.30565 0.81838 -0.41900
C 	C 	0.05671 0.24852 0.56510 0.29200
H 	H 	0.06089 0.37111 0.93457 0.04800
C 	C 	0.07885 0.80445 0.90711 0.28400
O 	O 	0.05814 0.75954 0.65085 -0.39300
O 	O 	0.07539 0.80565 0.81838 -0.41900
C 	C 	0.05671 0.74852 0.56510 0.29200
H 	H 	0.06089 0.87111 0.93457 0.04700
Zn	Zn	0.11772 0.32029 0.72180 1.22100
O 	O 	0.09358 0.27690 0.51545 -0.46200
O 	O 	0.10649 0.29873 0.94330 -0.44700
Zn	Zn	0.11773 0.82030 0.72180 1.22100
O 	O 	0.09358 0.77690 0.51545 -0.46200
O 	O 	0.10649 0.79873 0.94330 -0.44700
H 	H 	0.12920 0.25168 0.71962 0.18400
H 	H 	0.12919 0.75168 0.71962 0.18400
Zn	Zn	0.14907 0.29420 0.55874 1.19700
Zn	Zn	0.17297 0.34882 0.91997 1.19400
C 	C 	0.16555 0.40223 0.57386 0.29100
O 	O 	0.14577 0.28856 0.69362 -0.78800
O 	O 	0.16301 0.27464 0.90498 -0.40600
O 	O 	0.17810 0.37106 0.79114 -0.79600
O 	O 	0.13329 0.37868 0.63595 -0.42700
H 	H 	0.15753 0.18381 0.97551 0.05500
I 	I 	0.17830 0.12193 0.09264 -0.12700
Zn	Zn	0.14907 0.79420 0.55874 1.19700
Zn	Zn	0.17297 0.84882 0.91997 1.19400
C 	C 	0.16555 0.90223 0.57386 0.29000
O 	O 	0.14577 0.78856 0.69362 -0.78800
O 	O 	0.16301 0.77463 0.90498 -0.40600
O 	O 	0.17810 0.87106 0.79114 -0.79600
O 	O 	0.13329 0.87868 0.63595 -0.42700
H 	H 	0.15753 0.68381 0.97551 0.05500
I 	I 	0.17830 0.62193 0.09264 -0.12800
Zn	Zn	0.21157 0.35115 0.73982 1.22400
O 	O 	0.20770 0.31369 0.53012 -0.45300
O 	O 	0.21496 0.29913 0.79784 -0.44000
H 	H 	0.19437 0.41010 0.78224 0.17700
O 	O 	0.18274 0.38005 0.54960 -0.40300
C 	C 	0.19555 0.27596 0.87609 0.30500
C 	C 	0.18406 0.45515 0.53337 -0.04800
C 	C 	0.19219 0.46456 0.43960 -0.01700
C 	C 	0.21597 0.51671 0.40237 0.01000
C 	C 	0.19766 0.49781 0.58897 -0.03800
H 	H 	0.19101 0.49075 0.66126 0.05100
H 	H 	0.18128 0.43177 0.39582 0.04100
C 	C 	0.21777 0.26439 0.93946 -0.06500
C 	C 	0.21581 0.20133 0.03630 0.05900
C 	C 	0.19346 0.21391 0.98395 -0.02000
Zn	Zn	0.21157 0.85115 0.73982 1.22400
O 	O 	0.20770 0.81369 0.53012 -0.45300
O 	O 	0.21496 0.79913 0.79784 -0.44000
H 	H 	0.19436 0.91010 0.78224 0.17700
O 	O 	0.18274 0.88005 0.54960 -0.40300
C 	C 	0.19555 0.77596 0.87609 0.30500
C 	C 	0.18406 0.95515 0.53337 -0.04400
C 	C 	0.19219 0.96456 0.43960 -0.02500
C 	C 	0.21597 0.01671 0.40237 0.01800
C 	C 	0.19766 0.99781 0.58897 -0.04600
H 	H 	0.19101 0.99075 0.66126 0.05200
H 	H 	0.18128 0.93177 0.39582 0.04300
C 	C 	0.21777 0.76440 0.93946 -0.06500
C 	C 	0.21581 0.70133 0.03630 0.05900
C 	C 	0.19346 0.71391 0.98395 -0.02000
O 	O 	0.23551 0.38291 0.94929 -0.45500
C 	C 	0.22195 0.55028 0.55208 0.07900
H 	H 	0.22378 0.52377 0.33046 0.02700
O 	O 	0.23551 0.88291 0.94929 -0.45600
C 	C 	0.22195 0.05028 0.55208 0.08600
H 	H 	0.22378 0.02377 0.33046 0.02600
O 	O 	0.27035 0.41421 0.81032 -0.37800
O 	O 	0.24777 0.38306 0.62863 -0.43100
C 	C 	0.26961 0.42152 0.89762 0.29200
C 	C 	0.24585 0.35247 0.56841 0.31300
C 	C 	0.26799 0.11583 0.42340 0.31600
O 	O 	0.25847 0.13688 0.36148 -0.42600
O 	O 	0.27658 0.21696 0.18944 -0.41100
C 	C 	0.23254 0.56023 0.45856 -0.09000
I 	I 	0.24295 0.61390 0.63927 -0.10800
C 	C 	0.28379 0.50597 0.91669 -0.04300
H 	H 	0.25707 0.49192 0.86986 0.03000
I 	I 	0.26408 0.57857 0.97182 -0.23300
C 	C 	0.26447 0.30279 0.94926 0.00200
C 	C 	0.28675 0.29092 0.00257 -0.00900
C 	C 	0.26284 0.24027 0.04614 -0.08500
H 	H 	0.28363 0.34178 0.91471 0.04900
H 	H 	0.30778 0.40053 0.43173 0.05800
O 	O 	0.27035 0.91421 0.81032 -0.37900
O 	O 	0.24777 0.88306 0.62863 -0.43200
C 	C 	0.26961 0.92152 0.89762 0.29400
C 	C 	0.24584 0.85247 0.56841 0.31300
C 	C 	0.26799 0.61583 0.42340 0.31500
O 	O 	0.25847 0.63688 0.36148 -0.42600
O 	O 	0.27658 0.71696 0.18944 -0.41100
C 	C 	0.23254 0.06023 0.45856 -0.09400
I 	I 	0.24295 0.11390 0.63927 -0.10700
C 	C 	0.28379 0.00597 0.91669 -0.03100
H 	H 	0.25707 0.99192 0.86986 0.02400
I 	I 	0.26408 0.07857 0.97182 -0.23000
C 	C 	0.26447 0.80278 0.94926 0.00100
C 	C 	0.28675 0.79092 0.00257 -0.00800
C 	C 	0.26284 0.74027 0.04614 -0.08500
H 	H 	0.28363 0.84178 0.91471 0.04900
H 	H 	0.30778 0.90053 0.43173 0.05700
C 	C 	0.28709 0.22862 0.10239 0.30500
Zn	Zn	0.30395 0.20079 0.28162 1.22400
Zn	Zn	0.33713 0.19033 0.07683 1.20200
H 	H 	0.28966 0.11844 0.20127 0.18400
O 	O 	0.30356 0.25371 0.36355 -0.38400
O 	O 	0.31456 0.15799 0.20053 -0.79400
O 	O 	0.32417 0.24076 0.06983 -0.44500
O 	O 	0.30961 0.14145 0.44792 -0.40000
C 	C 	0.31940 0.26844 0.44574 0.31200
C 	C 	0.29788 0.47631 0.93016 -0.07000
C 	C 	0.33180 0.49374 0.99198 0.01000
C 	C 	0.33445 0.56778 0.03246 -0.11000
C 	C 	0.29956 0.54924 0.97145 0.08700
H 	H 	0.32274 0.32121 0.00993 0.04800
C 	C 	0.28354 0.35381 0.55690 -0.06100
C 	C 	0.28618 0.32118 0.61450 -0.02200
C 	C 	0.30278 0.29712 0.58125 0.01200
C 	C 	0.31828 0.30737 0.49129 -0.10100
C 	C 	0.32503 0.34965 0.44134 0.07900
C 	C 	0.30687 0.37214 0.47392 -0.03100
H 	H 	0.27057 0.30937 0.68109 0.04400
C 	C 	0.28709 0.72862 0.10239 0.30500
Zn	Zn	0.30395 0.70079 0.28162 1.22400
Zn	Zn	0.33712 0.69033 0.07683 1.20200
H 	H 	0.28966 0.61844 0.20127 0.18400
O 	O 	0.30356 0.75371 0.36355 -0.38400
O 	O 	0.31456 0.65799 0.20053 -0.79400
O 	O 	0.32417 0.74076 0.06983 -0.44600
O 	O 	0.30960 0.64145 0.44792 -0.40000
C 	C 	0.31940 0.76844 0.44574 0.31200
C 	C 	0.29788 0.97631 0.93016 -0.07700
C 	C 	0.33180 0.99374 0.99198 0.00700
C 	C 	0.33445 0.06778 0.03246 -0.11000
C 	C 	0.29956 0.04924 0.97145 0.08500
H 	H 	0.32274 0.82122 0.00993 0.04800
C 	C 	0.28354 0.85381 0.55690 -0.06100
C 	C 	0.28618 0.82118 0.61450 -0.02200
C 	C 	0.30278 0.79712 0.58125 0.01200
C 	C 	0.31828 0.80737 0.49129 -0.10100
C 	C 	0.32503 0.84965 0.44134 0.07800
C 	C 	0.30687 0.87214 0.47392 -0.03100
H 	H 	0.27057 0.80937 0.68109 0.04400
I 	I 	0.36344 0.38122 0.31883 -0.12500
I 	I 	0.36344 0.88122 0.31883 -0.12700
Zn	Zn	0.36844 0.17677 0.25324 1.22400
Zn	Zn	0.36643 0.22785 0.44075 1.20200
H 	H 	0.38867 0.27327 0.28359 0.18900
O 	O 	0.36410 0.15922 0.03809 -0.44700
O 	O 	0.36234 0.11902 0.16959 -0.38400
O 	O 	0.36693 0.23574 0.30791 -0.79000
O 	O 	0.36931 0.13986 0.35883 -0.43300
O 	O 	0.32901 0.24232 0.49218 -0.45700
C 	C 	0.35547 0.11756 0.08148 0.30300
C 	C 	0.35070 0.54004 0.04175 -0.00500
H 	H 	0.37752 0.55395 0.08818 0.04400
H 	H 	0.34259 0.47062 0.00329 0.03100
H 	H 	0.29995 0.26709 0.62266 0.04700
Zn	Zn	0.36844 0.67676 0.25324 1.22400
Zn	Zn	0.36643 0.72785 0.44075 1.20200
H 	H 	0.38867 0.77327 0.28359 0.18900
O 	O 	0.36410 0.65922 0.03809 -0.44700
O 	O 	0.36234 0.61902 0.16959 -0.38500
O 	O 	0.36693 0.73574 0.30791 -0.79000
O 	O 	0.36931 0.63986 0.35883 -0.43400
O 	O 	0.32901 0.74232 0.49218 -0.45700
C 	C 	0.35547 0.61756 0.08148 0.30300
C 	C 	0.35070 0.04004 0.04175 -0.00000
H 	H 	0.37752 0.05395 0.08818 0.04400
H 	H 	0.34259 0.97062 0.00329 0.03100
H 	H 	0.29995 0.76709 0.62266 0.04600
I 	I 	0.37337 0.09831 0.62101 -0.09100
I 	I 	0.37337 0.59831 0.62101 -0.09300
C 	C 	0.39837 0.16743 0.42379 0.33800
C 	C 	0.39837 0.66743 0.42379 0.33900
O 	O 	0.40565 0.20974 0.45719 -0.45700
O 	O 	0.42922 0.23307 0.20594 -0.44300
O 	O 	0.40652 0.26267 0.10211 -0.39900
C 	C 	0.43671 0.25952 0.13056 0.32300
O 	O 	0.40565 0.70974 0.45719 -0.45700
O 	O 	0.42922 0.73307 0.20594 -0.44300
O 	O 	0.40652 0.76267 0.10211 -0.39900
C 	C 	0.43671 0.75952 0.13056 0.32300
H 	H 	0.45376 0.19341 0.09443 0.04300
C 	C 	0.46699 0.18260 0.38991 0.00900
C 	C 	0.42939 0.15850 0.44673 -0.10300
C 	C 	0.43194 0.14745 0.53773 0.08100
C 	C 	0.47393 0.17350 0.57601 -0.03900
H 	H 	0.47630 0.16875 0.64794 0.06300
H 	H 	0.45376 0.69341 0.09443 0.04300
C 	C 	0.46698 0.68261 0.38991 0.00900
C 	C 	0.42939 0.65850 0.44673 -0.10300
C 	C 	0.43194 0.64745 0.53773 0.08100
C 	C 	0.47393 0.67350 0.57601 -0.03900
H 	H 	0.47630 0.66875 0.64794 0.06200
O 	O 	0.55814 0.25955 0.65085 -0.39200
C 	C 	0.54287 0.29376 0.96423 -0.04400
C 	C 	0.51233 0.24370 0.00902 -0.02900
C 	C 	0.47682 0.23226 0.05962 0.01200
C 	C 	0.47156 0.27104 0.06744 -0.09700
C 	C 	0.50233 0.32166 0.02229 0.06700
C 	C 	0.53746 0.33243 0.96978 -0.03400
H 	H 	0.56089 0.37111 0.93457 0.04900
H 	H 	0.51584 0.21334 0.00401 0.04700
I 	I 	0.49870 0.38373 0.03646 -0.11100
C 	C 	0.51293 0.20867 0.52224 -0.05800
C 	C 	0.50907 0.20904 0.42776 -0.02000
H 	H 	0.46470 0.18772 0.31805 0.03500
H 	H 	0.53870 0.23287 0.38438 0.04400
O 	O 	0.55814 0.75954 0.65085 -0.39300
C 	C 	0.54287 0.79376 0.96423 -0.04500
C 	C 	0.51233 0.74370 0.00902 -0.02900
C 	C 	0.47682 0.73226 0.05962 0.01200
C 	C 	0.47156 0.77104 0.06744 -0.09700
C 	C 	0.50233 0.82166 0.02229 0.06700
C 	C 	0.53746 0.83243 0.96978 -0.03400
H 	H 	0.56089 0.87111 0.93457 0.04800
H 	H 	0.51584 0.71334 0.00401 0.04700
I 	I 	0.49870 0.88373 0.03646 -0.11300
C 	C 	0.51293 0.70867 0.52224 -0.05800
C 	C 	0.50907 0.70904 0.42776 -0.02000
H 	H 	0.46470 0.68772 0.31805 0.03500
H 	H 	0.53870 0.73287 0.38438 0.04400
C 	C 	0.57886 0.30445 0.90711 0.28400
O 	O 	0.59358 0.27690 0.51545 -0.46200
O 	O 	0.60649 0.29873 0.94330 -0.44600
O 	O 	0.57539 0.30565 0.81838 -0.41800
C 	C 	0.55671 0.24852 0.56510 0.29200
C 	C 	0.57886 0.80445 0.90711 0.28400
O 	O 	0.59358 0.77690 0.51545 -0.46200
O 	O 	0.60649 0.79873 0.94330 -0.44700
O 	O 	0.57539 0.80565 0.81838 -0.41900
C 	C 	0.55671 0.74852 0.56510 0.29200
C 	C 	0.97682 0.23226 0.05962 0.01400
C 	C 	0.97156 0.27104 0.06744 -0.09500
H 	H 	0.95376 0.19341 0.09443 0.04300
C 	C 	0.96699 0.18260 0.38991 0.01100
C 	C 	0.92939 0.15850 0.44673 -0.10300
C 	C 	0.93194 0.14745 0.53773 0.08100
C 	C 	0.97393 0.17350 0.57601 -0.03600
H 	H 	0.96470 0.18772 0.31805 0.03500
H 	H 	0.97630 0.16875 0.64794 0.06300
I 	I 	0.87337 0.09831 0.62101 -0.09100
C 	C 	0.97682 0.73226 0.05962 0.01400
C 	C 	0.97156 0.77104 0.06744 -0.09500
H 	H 	0.95376 0.69341 0.09443 0.04300
C 	C 	0.96699 0.68261 0.38991 0.01100
C 	C 	0.92939 0.65850 0.44673 -0.10400
C 	C 	0.93194 0.64745 0.53773 0.08100
C 	C 	0.97393 0.67350 0.57601 -0.03600
H 	H 	0.96470 0.68772 0.31805 0.03500
H 	H 	0.97630 0.66875 0.64794 0.06200
I 	I 	0.87337 0.59831 0.62101 -0.09300
Zn	Zn	0.71157 0.35115 0.73982 1.22400
Zn	Zn	0.64907 0.29420 0.55874 1.19700
Zn	Zn	0.61772 0.32029 0.72180 1.22100
Zn	Zn	0.67297 0.34882 0.91997 1.19400
H 	H 	0.62919 0.25168 0.71962 0.18400
C 	C 	0.66555 0.40223 0.57386 0.29100
O 	O 	0.73551 0.38291 0.94929 -0.45500
O 	O 	0.77035 0.41421 0.81032 -0.37800
O 	O 	0.64577 0.28856 0.69362 -0.78800
O 	O 	0.70770 0.31369 0.53012 -0.45300
O 	O 	0.71496 0.29913 0.79784 -0.44000
O 	O 	0.74777 0.38306 0.62863 -0.43100
O 	O 	0.66301 0.27464 0.90498 -0.40600
H 	H 	0.69437 0.41010 0.78224 0.17700
O 	O 	0.67810 0.37106 0.79114 -0.79600
O 	O 	0.63329 0.37868 0.63595 -0.42700
O 	O 	0.68274 0.38005 0.54960 -0.40300
C 	C 	0.76961 0.42152 0.89762 0.29200
C 	C 	0.74584 0.35247 0.56841 0.31300
C 	C 	0.69555 0.27596 0.87609 0.30500
Zn	Zn	0.86844 0.17677 0.25324 1.22400
Zn	Zn	0.86643 0.22785 0.44075 1.20200
C 	C 	0.78709 0.22862 0.10239 0.30500
Zn	Zn	0.80395 0.20079 0.28162 1.22400
Zn	Zn	0.83713 0.19033 0.07683 1.20200
H 	H 	0.88867 0.27327 0.28359 0.18900
C 	C 	0.76799 0.11583 0.42340 0.31600
O 	O 	0.86410 0.15922 0.03809 -0.44700
O 	O 	0.86234 0.11902 0.16959 -0.38400
O 	O 	0.86693 0.23574 0.30791 -0.79000
O 	O 	0.90565 0.20974 0.45719 -0.45700
O 	O 	0.92922 0.23307 0.20594 -0.44300
O 	O 	0.86931 0.13986 0.35883 -0.43300
O 	O 	0.90652 0.26267 0.10211 -0.39800
O 	O 	0.82901 0.24232 0.49218 -0.45700
H 	H 	0.78966 0.11844 0.20127 0.18400
O 	O 	0.80356 0.25371 0.36355 -0.38400
O 	O 	0.81456 0.15799 0.20053 -0.79400
O 	O 	0.82417 0.24076 0.06983 -0.44500
O 	O 	0.75847 0.13688 0.36148 -0.42600
O 	O 	0.77658 0.21696 0.18944 -0.41100
O 	O 	0.80961 0.14145 0.44792 -0.40000
C 	C 	0.85547 0.11756 0.08148 0.30300
C 	C 	0.89837 0.16743 0.42379 0.33900
C 	C 	0.93671 0.25952 0.13056 0.32200
C 	C 	0.81940 0.26844 0.44574 0.31200
C 	C 	0.68406 0.45515 0.53337 -0.04800
C 	C 	0.69219 0.46456 0.43960 -0.01700
C 	C 	0.71598 0.51671 0.40237 0.01000
C 	C 	0.73254 0.56023 0.45856 -0.09000
C 	C 	0.72195 0.55028 0.55208 0.07900
C 	C 	0.69766 0.49781 0.58897 -0.03800
H 	H 	0.72378 0.52377 0.33046 0.02700
H 	H 	0.69101 0.49075 0.66126 0.05100
H 	H 	0.68128 0.43177 0.39582 0.04100
I 	I 	0.74295 0.61390 0.63927 -0.10800
C 	C 	0.79788 0.47631 0.93016 -0.07000
C 	C 	0.83180 0.49374 0.99198 0.01000
C 	C 	0.85070 0.54004 0.04175 -0.00500
C 	C 	0.83445 0.56778 0.03246 -0.11000
C 	C 	0.79956 0.54924 0.97145 0.08700
C 	C 	0.78379 0.50597 0.91669 -0.04300
H 	H 	0.87752 0.55395 0.08818 0.04500
H 	H 	0.75707 0.49192 0.86986 0.03000
H 	H 	0.84259 0.47062 0.00329 0.03100
I 	I 	0.76408 0.57857 0.97182 -0.23300
C 	C 	0.71777 0.26439 0.93946 -0.06500
C 	C 	0.76447 0.30279 0.94926 0.00200
C 	C 	0.78675 0.29092 0.00257 -0.00900
C 	C 	0.76284 0.24027 0.04614 -0.08500
C 	C 	0.71581 0.20133 0.03630 0.05900
C 	C 	0.69346 0.21391 0.98395 -0.02000
H 	H 	0.82274 0.32121 0.00993 0.04800
H 	H 	0.65753 0.18381 0.97551 0.05600
H 	H 	0.78363 0.34178 0.91471 0.04900
I 	I 	0.67830 0.12193 0.09264 -0.12600
C 	C 	0.78354 0.35381 0.55690 -0.06100
C 	C 	0.78618 0.32118 0.61450 -0.02200
C 	C 	0.80278 0.29712 0.58125 0.01200
C 	C 	0.81828 0.30737 0.49129 -0.10100
C 	C 	0.82503 0.34965 0.44134 0.07900
C 	C 	0.80687 0.37214 0.47392 -0.03100
H 	H 	0.79995 0.26709 0.62266 0.04700
H 	H 	0.80778 0.40053 0.43173 0.05800
H 	H 	0.77057 0.30937 0.68109 0.04400
I 	I 	0.86344 0.38122 0.31883 -0.12500
Zn	Zn	0.71157 0.85115 0.73982 1.22400
Zn	Zn	0.64907 0.79420 0.55874 1.19700
Zn	Zn	0.61772 0.82030 0.72180 1.22100
Zn	Zn	0.67297 0.84882 0.91997 1.19400
H 	H 	0.62919 0.75168 0.71962 0.18400
C 	C 	0.66555 0.90223 0.57386 0.29000
O 	O 	0.73551 0.88291 0.94929 -0.45600
O 	O 	0.77035 0.91421 0.81032 -0.37900
O 	O 	0.64577 0.78856 0.69362 -0.78800
O 	O 	0.70770 0.81369 0.53012 -0.45300
O 	O 	0.71496 0.79913 0.79784 -0.44000
O 	O 	0.74777 0.88306 0.62863 -0.43200
O 	O 	0.66301 0.77463 0.90498 -0.40600
H 	H 	0.69437 0.91010 0.78224 0.17700
O 	O 	0.67810 0.87106 0.79114 -0.79600
O 	O 	0.63329 0.87868 0.63595 -0.42700
O 	O 	0.68274 0.88005 0.54960 -0.40300
C 	C 	0.76961 0.92152 0.89762 0.29300
C 	C 	0.74584 0.85247 0.56841 0.31300
C 	C 	0.69555 0.77596 0.87609 0.30500
Zn	Zn	0.86844 0.67676 0.25324 1.22400
Zn	Zn	0.86643 0.72785 0.44075 1.20200
C 	C 	0.78709 0.72862 0.10239 0.30500
Zn	Zn	0.80395 0.70079 0.28162 1.22400
Zn	Zn	0.83712 0.69033 0.07683 1.20200
H 	H 	0.88867 0.77327 0.28359 0.18900
C 	C 	0.76799 0.61583 0.42340 0.31500
O 	O 	0.86410 0.65922 0.03809 -0.44700
O 	O 	0.86234 0.61902 0.16959 -0.38400
O 	O 	0.86693 0.73574 0.30791 -0.79000
O 	O 	0.90565 0.70974 0.45719 -0.45700
O 	O 	0.92922 0.73307 0.20594 -0.44300
O 	O 	0.86931 0.63986 0.35883 -0.43400
O 	O 	0.90652 0.76267 0.10211 -0.39800
O 	O 	0.82901 0.74232 0.49218 -0.45700
H 	H 	0.78966 0.61844 0.20127 0.18400
O 	O 	0.80356 0.75371 0.36355 -0.38400
O 	O 	0.81456 0.65799 0.20053 -0.79400
O 	O 	0.82417 0.74076 0.06983 -0.44500
O 	O 	0.75847 0.63688 0.36148 -0.42600
O 	O 	0.77658 0.71696 0.18944 -0.41100
O 	O 	0.80961 0.64145 0.44792 -0.40000
C 	C 	0.85547 0.61756 0.08148 0.30300
C 	C 	0.89837 0.66743 0.42379 0.33900
C 	C 	0.93671 0.75952 0.13056 0.32200
C 	C 	0.81940 0.76844 0.44574 0.31200
C 	C 	0.68406 0.95515 0.53337 -0.04400
C 	C 	0.69219 0.96456 0.43960 -0.02500
C 	C 	0.71598 0.01671 0.40237 0.01800
C 	C 	0.73254 0.06023 0.45856 -0.09400
C 	C 	0.72195 0.05028 0.55208 0.08600
C 	C 	0.69766 0.99781 0.58897 -0.04600
H 	H 	0.72378 0.02377 0.33046 0.02600
H 	H 	0.69101 0.99075 0.66126 0.05200
H 	H 	0.68128 0.93177 0.39582 0.04300
I 	I 	0.74295 0.11390 0.63927 -0.10700
C 	C 	0.79788 0.97631 0.93016 -0.07700
C 	C 	0.83180 0.99374 0.99198 0.00700
C 	C 	0.85070 0.04004 0.04175 -0.00000
C 	C 	0.83445 0.06778 0.03246 -0.10900
C 	C 	0.79956 0.04924 0.97145 0.08500
C 	C 	0.78379 0.00597 0.91669 -0.03100
H 	H 	0.87752 0.05395 0.08818 0.04400
H 	H 	0.75707 0.99192 0.86986 0.02400
H 	H 	0.84259 0.97062 0.00329 0.03200
I 	I 	0.76408 0.07857 0.97182 -0.23000
C 	C 	0.71777 0.76440 0.93946 -0.06500
C 	C 	0.76447 0.80278 0.94926 0.00100
C 	C 	0.78675 0.79092 0.00257 -0.00800
C 	C 	0.76284 0.74027 0.04614 -0.08500
C 	C 	0.71581 0.70133 0.03630 0.05900
C 	C 	0.69346 0.71391 0.98395 -0.02000
H 	H 	0.82274 0.82122 0.00993 0.04800
H 	H 	0.65753 0.68381 0.97551 0.05500
H 	H 	0.78363 0.84178 0.91471 0.04900
I 	I 	0.67830 0.62193 0.09264 -0.12800
C 	C 	0.78354 0.85381 0.55690 -0.06100
C 	C 	0.78618 0.82118 0.61450 -0.02200
C 	C 	0.80278 0.79712 0.58125 0.01200
C 	C 	0.81828 0.80737 0.49129 -0.10100
C 	C 	0.82503 0.84965 0.44134 0.07800
C 	C 	0.80687 0.87214 0.47392 -0.03100
H 	H 	0.79995 0.76709 0.62266 0.04600
H 	H 	0.80778 0.90053 0.43173 0.05700
H 	H 	0.77057 0.80937 0.68109 0.04400
I 	I 	0.86344 0.88122 0.31883 -0.12700
