data_crystal

_cell_length_a 26.16710
_cell_length_b 26.38778
_cell_length_c 35.05318
_cell_angle_alpha 95.47898
_cell_angle_beta  95.47657
_cell_angle_gamma 125.80208

_symmetry_space_group_name_	'P 1'
_symmetry_space_group_name_H-M	'P 1'

loop_
_symmetry_equiv_pos_as_xyz
  x,y,z

loop_
_atom_site_label
_atom_site_type_symbol
_atom_site_fract_x
_atom_site_fract_y
_atom_site_fract_z
_atom_site_charge
C 	C 	0.96004 0.03318 0.98605 0.11000
N 	N 	0.92432 0.97046 0.98811 -0.12800
C 	C 	0.94977 0.93825 0.98430 0.12100
N 	N 	0.01152 0.96919 0.97949 -0.12100
C 	C 	0.04751 0.03196 0.97764 0.11900
N 	N 	0.02148 0.06380 0.98050 -0.12400
C 	C 	0.94267 0.99181 0.45824 0.14200
N 	N 	0.91288 0.93107 0.46397 -0.13300
C 	C 	0.94637 0.90673 0.46746 0.12200
N 	N 	0.01004 0.94397 0.46660 -0.12500
C 	C 	0.04011 0.00497 0.46163 0.12100
N 	N 	0.00637 0.02885 0.45734 -0.13400
Cu	Cu	0.63233 0.24743 0.00304 0.92800
Cu	Cu	0.69128 0.25574 0.92320 0.87300
Cu	Cu	0.67050 0.35021 0.95434 0.90000
Cu	Cu	0.62371 0.35923 0.02764 0.89600
C 	C 	0.63777 0.28744 0.08347 0.29900
O 	O 	0.53725 0.20564 0.99842 -0.36100
C 	C 	0.65724 0.31073 0.86972 0.30000
O 	O 	0.68047 0.34586 0.00842 -0.64200
O 	O 	0.62886 0.25693 0.94773 -0.64000
O 	O 	0.67463 0.20459 0.00259 -0.37100
O 	O 	0.74837 0.27291 0.96872 -0.43200
O 	O 	0.60754 0.31086 0.07127 -0.38400
O 	O 	0.71535 0.44123 0.96467 -0.37600
C 	C 	0.70498 0.47269 0.99045 0.29500
C 	C 	0.51113 0.23029 0.98215 0.28200
O 	O 	0.54757 0.29049 0.97913 -0.38200
O 	O 	0.66032 0.44348 0.01197 -0.38500
O 	O 	0.64926 0.25584 0.05861 -0.36200
C 	C 	0.73005 0.23062 0.99137 0.29400
O 	O 	0.67676 0.35720 0.89913 -0.38300
O 	O 	0.65411 0.26035 0.87531 -0.41700
H 	H 	0.72530 0.37445 0.02289 0.16900
H 	H 	0.58541 0.23029 0.93133 0.17500
Cu	Cu	0.73861 0.32945 0.45298 0.92900
Cu	Cu	0.74184 0.27657 0.53412 0.87600
Cu	Cu	0.64067 0.29229 0.50645 0.89900
Cu	Cu	0.62490 0.33872 0.43405 0.89600
C 	C 	0.68994 0.32181 0.37377 0.29800
O 	O 	0.78137 0.42398 0.45708 -0.36000
C 	C 	0.68920 0.30933 0.58996 0.29900
O 	O 	0.64018 0.28267 0.45155 -0.64000
O 	O 	0.73471 0.33489 0.50930 -0.63900
O 	O 	0.78116 0.28662 0.45029 -0.36100
O 	O 	0.71984 0.21761 0.48876 -0.43300
O 	O 	0.66758 0.35216 0.38767 -0.38400
O 	O 	0.54883 0.24789 0.49932 -0.37000
C 	C 	0.51547 0.25670 0.47373 0.29000
C 	C 	0.75821 0.45100 0.47428 0.28400
O 	O 	0.69913 0.41541 0.48041 -0.38500
O 	O 	0.54404 0.30447 0.45464 -0.38900
O 	O 	0.72431 0.31119 0.39707 -0.36200
C 	C 	0.75917 0.23412 0.46403 0.29000
O 	O 	0.63879 0.28462 0.56197 -0.38400
O 	O 	0.74087 0.31573 0.58240 -0.41400
H 	H 	0.61046 0.23817 0.43719 0.16900
H 	H 	0.76192 0.37863 0.52482 0.17600
C 	C 	0.65126 0.32113 0.82946 -0.11000
C 	C 	0.59741 0.27364 0.80054 0.13100
C 	C 	0.60059 0.27687 0.76098 -0.09700
C 	C 	0.65604 0.32733 0.75009 0.00200
C 	C 	0.70667 0.37861 0.77912 0.06200
C 	C 	0.70378 0.37492 0.81864 -0.02300
N 	N 	0.54251 0.22539 0.81057 -0.20300
H 	H 	0.56077 0.23890 0.73864 0.06200
C 	C 	0.66403 0.32194 0.70897 0.00300
N 	N 	0.75862 0.43072 0.76928 -0.19200
H 	H 	0.74402 0.41251 0.84093 0.04700
C 	C 	0.64489 0.34764 0.68303 -0.09700
C 	C 	0.65567 0.34708 0.64451 0.13300
C 	C 	0.68234 0.31642 0.63113 -0.10900
C 	C 	0.70068 0.29002 0.65706 -0.02000
C 	C 	0.69222 0.29281 0.69591 0.06000
H 	H 	0.62371 0.37026 0.69325 0.06300
N 	N 	0.64267 0.37804 0.62119 -0.20200
H 	H 	0.72092 0.26644 0.64682 0.03900
N 	N 	0.71105 0.26726 0.72042 -0.19100
H 	H 	0.62064 0.39825 0.63080 0.09500
H 	H 	0.65708 0.38519 0.59425 0.09800
H 	H 	0.73197 0.24604 0.71048 0.08400
H 	H 	0.70516 0.26802 0.74945 0.08900
H 	H 	0.79661 0.46754 0.79091 0.08900
H 	H 	0.76122 0.43595 0.74023 0.09300
H 	H 	0.53690 0.22467 0.83965 0.09700
H 	H 	0.50370 0.18929 0.78905 0.09200
C 	C 	0.68511 0.30911 0.33113 -0.10800
C 	C 	0.74022 0.33288 0.31394 0.13400
C 	C 	0.73282 0.32054 0.27313 -0.09800
C 	C 	0.67314 0.29256 0.24927 0.00300
C 	C 	0.61820 0.26943 0.26640 0.06100
C 	C 	0.62461 0.27630 0.30713 -0.02200
N 	N 	0.80028 0.37061 0.33607 -0.20300
H 	H 	0.77464 0.33766 0.25987 0.06200
C 	C 	0.66985 0.29313 0.20685 0.00300
N 	N 	0.55951 0.24173 0.24406 -0.19200
H 	H 	0.58249 0.25791 0.32029 0.03500
C 	C 	0.64458 0.23664 0.18075 -0.09800
C 	C 	0.63014 0.23248 0.14041 0.13400
C 	C 	0.64979 0.28838 0.12569 -0.10800
C 	C 	0.67924 0.34593 0.15178 -0.02200
C 	C 	0.68759 0.34852 0.19224 0.06200
H 	H 	0.63118 0.19439 0.19205 0.06200
N 	N 	0.59392 0.17442 0.11652 -0.20200
H 	H 	0.69421 0.38864 0.14054 0.03600
N 	N 	0.71166 0.40393 0.21678 -0.19200
H 	H 	0.58399 0.13441 0.12712 0.09300
H 	H 	0.57060 0.16732 0.08851 0.10600
H 	H 	0.72528 0.44465 0.20564 0.08900
H 	H 	0.71615 0.40710 0.24697 0.09300
H 	H 	0.51930 0.22454 0.25704 0.08700
H 	H 	0.55312 0.23753 0.21379 0.09300
H 	H 	0.80873 0.39112 0.36508 0.10700
H 	H 	0.84005 0.38405 0.32339 0.09400
C 	C 	0.92078 0.76661 0.50643 -0.02400
C 	C 	0.86571 0.71504 0.48020 0.01000
C 	C 	0.83368 0.72659 0.45204 -0.04100
C 	C 	0.85826 0.78902 0.44824 -0.00300
C 	C 	0.91456 0.84078 0.47378 -0.01500
C 	C 	0.94440 0.82901 0.50337 -0.02000
C 	C 	0.84324 0.64885 0.48057 0.02600
C 	C 	0.81137 0.61796 0.51015 -0.06000
C 	C 	0.78773 0.55466 0.51016 0.02500
C 	C 	0.79334 0.52073 0.47921 -0.08400
C 	C 	0.82779 0.55266 0.45060 0.01100
C 	C 	0.85315 0.61651 0.45132 -0.04200
C 	C 	0.76031 0.52587 0.54280 0.07200
C 	C 	0.88924 0.64854 0.42191 0.09200
C 	C 	0.95439 0.75593 0.53582 0.08700
C 	C 	0.82716 0.79940 0.41695 0.09100
N 	N 	0.73843 0.50291 0.56900 -0.11800
N 	N 	0.91815 0.67425 0.39837 -0.11200
N 	N 	0.80226 0.80771 0.39189 -0.10300
N 	N 	0.98129 0.74733 0.55935 -0.11100
H 	H 	0.98717 0.86861 0.52336 0.05000
H 	H 	0.79085 0.68686 0.43215 0.05200
H 	H 	0.80533 0.64339 0.53328 0.05700
H 	H 	0.83327 0.52726 0.42711 0.04500
C 	C 	0.86264 0.06719 0.48624 -0.03000
C 	C 	0.85163 0.08328 0.45070 0.01500
C 	C 	0.86585 0.06459 0.41699 -0.04800
C 	C 	0.89290 0.03190 0.41873 0.00700
C 	C 	0.90668 0.01846 0.45466 -0.03300
C 	C 	0.89005 0.03488 0.48802 -0.01400
C 	C 	0.82775 0.12209 0.44898 0.02300
C 	C 	0.87165 0.18858 0.45810 -0.06000
C 	C 	0.85000 0.22613 0.46132 0.02400
C 	C 	0.78344 0.19689 0.45480 -0.08800
C 	C 	0.73966 0.13047 0.44369 0.01100
C 	C 	0.76144 0.09299 0.44079 -0.03800
C 	C 	0.89636 0.29429 0.47313 0.06600
C 	C 	0.71544 0.02465 0.43022 0.08000
C 	C 	0.84653 0.08428 0.52106 0.08600
C 	C 	0.90524 0.01125 0.38342 0.07300
N 	N 	0.93353 0.34889 0.48260 -0.11300
N 	N 	0.67863 0.96989 0.42177 -0.09900
N 	N 	0.91500 0.99461 0.35512 -0.08900
N 	N 	0.83359 0.09800 0.54893 -0.11900
H 	H 	0.89988 0.02384 0.51556 0.04400
H 	H 	0.85632 0.07594 0.38950 0.05400
H 	H 	0.92271 0.21096 0.46398 0.05500
H 	H 	0.68855 0.10787 0.43827 0.03900
C 	C 	0.21661 0.09490 0.50104 -0.02400
C 	C 	0.24345 0.11844 0.46818 0.01100
C 	C 	0.20354 0.10685 0.43362 -0.04200
C 	C 	0.13705 0.07105 0.43135 -0.00300
C 	C 	0.11007 0.04648 0.46402 -0.01500
C 	C 	0.15016 0.05897 0.49877 -0.02000
C 	C 	0.31328 0.15427 0.46947 0.02700
C 	C 	0.33882 0.12096 0.46193 -0.06000
C 	C 	0.40485 0.15388 0.46339 0.02600
C 	C 	0.44595 0.22097 0.47247 -0.08000
C 	C 	0.42028 0.25425 0.47989 0.01400
C 	C 	0.35427 0.22128 0.47851 -0.04200
C 	C 	0.42981 0.11855 0.45456 0.06800
C 	C 	0.32899 0.25648 0.48666 0.09400
C 	C 	0.25700 0.10740 0.53718 0.08900
C 	C 	0.09676 0.05829 0.39510 0.08900
N 	N 	0.44982 0.09026 0.44749 -0.11600
N 	N 	0.30868 0.28463 0.49319 -0.11100
N 	N 	0.06457 0.04810 0.36604 -0.10200
N 	N 	0.28940 0.11745 0.56611 -0.11100
H 	H 	0.12948 0.04032 0.52396 0.04800
H 	H 	0.22428 0.12523 0.40839 0.05200
H 	H 	0.30719 0.06938 0.45491 0.05600
H 	H 	0.45181 0.30583 0.48700 0.04200
C 	C 	0.85036 0.78411 0.02105 -0.02500
C 	C 	0.84045 0.74010 0.98949 0.01200
C 	C 	0.86448 0.76098 0.95568 -0.04100
C 	C 	0.89933 0.82547 0.95337 -0.00400
C 	C 	0.91043 0.86978 0.98527 -0.01200
C 	C 	0.88509 0.84863 0.01873 -0.02100
C 	C 	0.80565 0.67203 0.99171 0.02900
C 	C 	0.73865 0.63088 0.98081 -0.06000
C 	C 	0.70504 0.56569 0.98075 0.02900
C 	C 	0.73881 0.54132 0.99186 -0.07900
C 	C 	0.80577 0.58263 0.00312 0.01100
C 	C 	0.83931 0.64781 0.00325 -0.04400
C 	C 	0.63621 0.52392 0.96808 0.07800
C 	C 	0.90826 0.68958 0.01524 0.09200
C 	C 	0.82570 0.76350 0.05606 0.09000
C 	C 	0.92250 0.84564 0.91791 0.08700
N 	N 	0.58107 0.49045 0.95792 -0.10600
N 	N 	0.96349 0.72310 0.02484 -0.11200
N 	N 	0.94109 0.86184 0.88953 -0.10900
N 	N 	0.80593 0.74693 0.08410 -0.11000
H 	H 	0.89332 0.88260 0.04320 0.05200
H 	H 	0.85628 0.72697 0.93126 0.05200
H 	H 	0.71280 0.64956 0.97191 0.05900
H 	H 	0.83176 0.56394 0.01172 0.03400
C 	C 	0.88103 0.10132 0.02926 -0.02700
C 	C 	0.87137 0.12670 0.99813 0.01500
C 	C 	0.89414 0.12444 0.96387 -0.04400
C 	C 	0.92445 0.09520 0.95986 -0.00600
C 	C 	0.93244 0.06811 0.99056 -0.01200
C 	C 	0.91124 0.07197 0.02526 -0.02300
C 	C 	0.83434 0.15261 0.00027 0.01800
C 	C 	0.86697 0.21840 0.01112 -0.06000
C 	C 	0.83309 0.24432 0.01028 0.02400
C 	C 	0.76577 0.20406 0.99807 -0.08800
C 	C 	0.73296 0.13797 0.98903 0.00600
C 	C 	0.76685 0.11212 0.98989 -0.03500
C 	C 	0.86754 0.31203 0.02275 0.07200
C 	C 	0.73217 0.04407 0.97941 0.07700
C 	C 	0.85946 0.10465 0.06520 0.08900
C 	C 	0.94531 0.09136 0.92369 0.08400
N 	N 	0.89515 0.36627 0.03274 -0.11300
N 	N 	0.70445 0.98956 0.97103 -0.10000
N 	N 	0.96204 0.08827 0.89473 -0.11100
N 	N 	0.84215 0.10733 0.09398 -0.11100
H 	H 	0.91787 0.05166 0.04902 0.04900
H 	H 	0.88694 0.14425 0.94000 0.04800
H 	H 	0.91880 0.24942 0.01983 0.05400
H 	H 	0.68117 0.10682 0.98002 0.03600
C 	C 	0.19162 0.06219 0.94003 -0.01700
C 	C 	0.24237 0.11732 0.96647 0.00800
C 	C 	0.22888 0.14790 0.99415 -0.03600
C 	C 	0.16535 0.12166 0.99744 -0.00500
C 	C 	0.11442 0.06500 0.97192 -0.00700
C 	C 	0.12803 0.03664 0.94269 -0.03500
C 	C 	0.30953 0.14018 0.96775 0.02600
C 	C 	0.34413 0.17647 0.94061 -0.05900
C 	C 	0.40914 0.20250 0.94327 0.02400
C 	C 	0.44059 0.19412 0.97431 -0.08000
C 	C 	0.40492 0.15489 0.00014 0.00400
C 	C 	0.33965 0.12764 0.99686 -0.03700
C 	C 	0.44253 0.23578 0.91334 0.07200
C 	C 	0.30390 0.08717 0.02365 0.08900
C 	C 	0.20440 0.03060 0.91078 0.08600
C 	C 	0.15309 0.15143 0.02829 0.08800
N 	N 	0.46929 0.26242 0.88937 -0.11400
N 	N 	0.27521 0.05476 0.04508 -0.11200
N 	N 	0.14328 0.17527 0.05300 -0.10700
N 	N 	0.21469 0.00533 0.88735 -0.11100
H 	H 	0.08903 0.99368 0.92265 0.07000
H 	H 	0.26800 0.19074 0.01421 0.05000
H 	H 	0.32044 0.18454 0.91750 0.05800
H 	H 	0.42846 0.14719 0.02357 0.04500
