data_crystal

_cell_length_a 25.87527
_cell_length_b 30.95802
_cell_length_c 16.40993
_cell_angle_alpha 90.00035
_cell_angle_beta  90.00080
_cell_angle_gamma 90.00401

_symmetry_space_group_name_	'P 1'
_symmetry_space_group_name_H-M	'P 1'

loop_
_symmetry_equiv_pos_as_xyz
  x,y,z

loop_
_atom_site_label
_atom_site_type_symbol
_atom_site_fract_x
_atom_site_fract_y
_atom_site_fract_z
_atom_site_charge
Co	Co	0.44071 0.33190 0.87055 1.18200
O 	O 	0.36840 0.30534 0.84468 -0.37900
Co	Co	0.56854 0.34515 0.86934 1.18000
O 	O 	0.49874 0.32339 0.78885 -0.46900
O 	O 	0.55267 0.31536 0.97471 -0.41300
O 	O 	0.38782 0.36600 0.79255 -0.34400
C 	C 	0.50869 0.29547 0.99251 0.31000
O 	O 	0.56863 0.28723 0.79736 -0.36900
C 	C 	0.64945 0.38669 0.81945 0.30200
C 	C 	0.48529 0.39766 0.95212 0.28600
O 	O 	0.64373 0.36792 0.88907 -0.37600
O 	O 	0.60729 0.38334 0.77778 -0.35600
O 	O 	0.44065 0.37956 0.96496 -0.36200
O 	O 	0.50534 0.38438 0.88417 -0.45700
O 	O 	0.47489 0.28603 0.93506 -0.53300
C 	C 	0.35325 0.33600 0.79736 0.27300
C 	C 	0.52145 0.28749 0.77068 0.32100
H 	H 	0.45843 0.25631 0.93403 0.16900
Co	Co	0.44096 0.64325 0.12020 1.18200
O 	O 	0.36868 0.66541 0.15751 -0.38400
Co	Co	0.56794 0.63741 0.09884 1.18400
O 	O 	0.50364 0.66092 0.18721 -0.45900
O 	O 	0.53658 0.65624 0.99429 -0.42600
O 	O 	0.40032 0.61059 0.21636 -0.36000
C 	C 	0.50065 0.68635 0.98766 0.30900
O 	O 	0.56862 0.69989 0.15655 -0.36200
C 	C 	0.65444 0.60125 0.13780 0.30400
C 	C 	0.48562 0.57423 0.04820 0.31800
O 	O 	0.64149 0.61509 0.06646 -0.37400
O 	O 	0.61719 0.60778 0.18850 -0.34600
O 	O 	0.43908 0.58923 0.03867 -0.36200
O 	O 	0.50896 0.59410 0.10712 -0.46400
O 	O 	0.46018 0.68811 0.03776 -0.51500
C 	C 	0.36208 0.63721 0.21410 0.30700
C 	C 	0.52391 0.69897 0.19265 0.28700
H 	H 	0.43454 0.71266 0.03178 0.17100
Co	Co	0.05947 0.34429 0.60273 1.18400
O 	O 	0.13420 0.32076 0.62120 -0.38300
Co	Co	0.93165 0.35282 0.61115 1.18100
O 	O 	0.00350 0.32965 0.68533 -0.44900
O 	O 	0.94847 0.32919 0.50107 -0.41500
O 	O 	0.11119 0.37799 0.68336 -0.35100
C 	C 	0.99024 0.30691 0.48063 0.31100
O 	O 	0.93469 0.29188 0.67366 -0.35600
C 	C 	0.84962 0.39132 0.66491 0.27000
C 	C 	0.00997 0.41136 0.53324 0.31600
O 	O 	0.85692 0.37621 0.59261 -0.36700
O 	O 	0.89048 0.38502 0.70865 -0.34200
O 	O 	0.05492 0.39535 0.51515 -0.36000
O 	O 	0.99220 0.39475 0.60010 -0.47500
O 	O 	0.02762 0.29882 0.53346 -0.52200
C 	C 	0.14830 0.35118 0.66977 0.30600
C 	C 	0.98266 0.29218 0.69707 0.28300
H 	H 	0.04734 0.27060 0.52932 0.17100
Co	Co	0.06071 0.65099 0.35865 1.18500
O 	O 	0.13590 0.67322 0.34110 -0.37600
Co	Co	0.93365 0.64266 0.34367 1.18100
O 	O 	0.00730 0.66209 0.26997 -0.44700
O 	O 	0.94872 0.67051 0.45090 -0.41500
O 	O 	0.11408 0.61366 0.28720 -0.34000
C 	C 	0.98856 0.69597 0.46731 0.30400
O 	O 	0.93859 0.70046 0.27227 -0.36100
C 	C 	0.85365 0.60199 0.28863 0.27300
C 	C 	0.00871 0.58675 0.43396 0.34700
O 	O 	0.85805 0.62047 0.35876 -0.36600
O 	O 	0.89630 0.60602 0.24869 -0.34600
O 	O 	0.05305 0.60361 0.45339 -0.36500
O 	O 	0.99316 0.60118 0.36414 -0.48600
O 	O 	0.02799 0.70021 0.41649 -0.51900
C 	C 	0.15070 0.64155 0.29595 0.27400
C 	C 	0.98671 0.69878 0.25023 0.28600
H 	H 	0.04845 0.72813 0.41614 0.17000
Co	Co	0.55939 0.83505 0.61367 1.18300
O 	O 	0.62950 0.80798 0.65119 -0.38300
Co	Co	0.43227 0.85164 0.60137 1.18200
O 	O 	0.49760 0.82878 0.68943 -0.46900
O 	O 	0.45177 0.82014 0.49965 -0.41900
O 	O 	0.60897 0.87023 0.69546 -0.35000
C 	C 	0.49418 0.79687 0.48756 0.34700
O 	O 	0.42619 0.79483 0.67591 -0.36300
C 	C 	0.35193 0.89784 0.63757 0.26900
C 	C 	0.52042 0.89981 0.52330 0.28500
O 	O 	0.36065 0.87807 0.56970 -0.36700
O 	O 	0.39041 0.89195 0.68654 -0.34500
O 	O 	0.56509 0.88091 0.51648 -0.36100
O 	O 	0.49741 0.88859 0.59022 -0.45700
O 	O 	0.52713 0.78856 0.54725 -0.54000
C 	C 	0.64254 0.83951 0.69802 0.30400
C 	C 	0.47258 0.79369 0.70589 0.31700
H 	H 	0.54444 0.75920 0.54956 0.17400
Co	Co	0.56263 0.14545 0.35155 1.18300
O 	O 	0.63494 0.17023 0.32007 -0.38500
Co	Co	0.43513 0.13589 0.37078 1.18200
O 	O 	0.49890 0.16627 0.28857 -0.46100
O 	O 	0.46577 0.15170 0.47716 -0.42500
O 	O 	0.60391 0.11925 0.24890 -0.34900
C 	C 	0.49969 0.18316 0.48632 0.31600
O 	O 	0.43197 0.20098 0.32648 -0.36700
C 	C 	0.35020 0.09924 0.32513 0.27100
C 	C 	0.51963 0.07305 0.41237 0.32100
O 	O 	0.36204 0.11070 0.39848 -0.36800
O 	O 	0.38714 0.10923 0.27586 -0.33800
O 	O 	0.56640 0.08739 0.42213 -0.35900
O 	O 	0.49577 0.09463 0.35622 -0.46200
O 	O 	0.54475 0.18294 0.44684 -0.51900
C 	C 	0.64164 0.14608 0.25731 0.30700
C 	C 	0.47685 0.20385 0.29131 0.31100
H 	H 	0.57303 0.20353 0.46475 0.16800
Co	Co	0.94636 0.84065 0.85857 1.18000
O 	O 	0.87476 0.81140 0.83996 -0.38000
Co	Co	0.07268 0.85815 0.84389 1.18100
O 	O 	0.00058 0.83516 0.76985 -0.46500
O 	O 	0.06145 0.82753 0.94971 -0.41400
O 	O 	0.88739 0.87370 0.78952 -0.34600
C 	C 	0.02264 0.80114 0.96694 0.32700
O 	O 	0.07232 0.80104 0.76989 -0.36800
C 	C 	0.15078 0.90136 0.78821 0.30000
C 	C 	0.99147 0.90675 0.93869 0.25400
O 	O 	0.14785 0.88198 0.85765 -0.37300
O 	O 	0.10713 0.89806 0.75038 -0.35500
O 	O 	0.94878 0.88651 0.95592 -0.35900
O 	O 	0.00888 0.89534 0.86767 -0.44100
O 	O 	0.98497 0.79376 0.91427 -0.54300
C 	C 	0.85523 0.84195 0.79668 0.27300
C 	C 	0.02415 0.80016 0.74831 0.32000
H 	H 	0.96828 0.76416 0.91232 0.16700
Co	Co	0.94340 0.15406 0.09645 1.18100
O 	O 	0.86950 0.18026 0.10842 -0.37700
Co	Co	0.07043 0.14273 0.11355 1.18400
O 	O 	0.99759 0.16859 0.18196 -0.48000
O 	O 	0.05721 0.16469 0.00081 -0.40400
O 	O 	0.88778 0.12364 0.17527 -0.35200
C 	C 	0.01690 0.18796 0.97710 0.31400
O 	O 	0.06756 0.20471 0.17194 -0.36700
C 	C 	0.14890 0.10405 0.17818 0.30200
C 	C 	0.99182 0.08366 0.03600 0.28000
O 	O 	0.14579 0.11864 0.10475 -0.37100
O 	O 	0.10611 0.11100 0.21643 -0.34600
O 	O 	0.94831 0.10087 0.01327 -0.35800
O 	O 	0.00874 0.10197 0.10187 -0.44700
O 	O 	0.97879 0.19766 0.02749 -0.53600
C 	C 	0.85277 0.15224 0.16004 0.27400
C 	C 	0.01936 0.20571 0.19383 0.32800
H 	H 	0.96052 0.22647 0.02152 0.16900
C 	C 	0.00150 0.95020 0.97245 -0.02900
C 	C 	0.02786 0.98144 0.92635 -0.02900
C 	C 	0.02762 0.02473 0.95083 -0.00000
C 	C 	0.00111 0.03734 0.02150 -0.08700
C 	C 	0.97787 0.00533 0.07168 0.11800
C 	C 	0.97943 0.96188 0.04728 -0.07300
H 	H 	0.04612 0.04881 0.91280 0.03300
H 	H 	0.96116 0.93742 0.08480 0.06100
H 	H 	0.04666 0.97258 0.86979 0.04700
N 	N 	0.95287 0.01610 0.14182 -0.20000
H 	H 	0.94969 0.04803 0.16126 0.10700
H 	H 	0.93588 0.99217 0.17790 0.09100
C 	C 	0.29633 0.09734 0.29699 -0.03200
C 	C 	0.28146 0.06588 0.24033 -0.03200
C 	C 	0.23282 0.06782 0.20349 0.02200
C 	C 	0.19885 0.10184 0.22131 -0.11700
C 	C 	0.21400 0.13417 0.27805 0.13300
C 	C 	0.26185 0.13043 0.31796 -0.07000
H 	H 	0.22185 0.04322 0.15979 0.03400
H 	H 	0.27368 0.15506 0.36111 0.06000
H 	H 	0.30800 0.04027 0.22370 0.04900
N 	N 	0.18438 0.16982 0.29109 -0.20200
H 	H 	0.15376 0.17774 0.25262 0.10300
H 	H 	0.19423 0.19185 0.33679 0.09300
C 	C 	0.79727 0.14516 0.17562 -0.03500
C 	C 	0.78138 0.11680 0.23735 -0.03400
C 	C 	0.72924 0.11420 0.25898 0.02500
C 	C 	0.69241 0.13996 0.21933 -0.12200
C 	C 	0.70758 0.16601 0.15268 0.13100
C 	C 	0.76012 0.16872 0.13182 -0.07100
H 	H 	0.71781 0.09381 0.30955 0.03400
H 	H 	0.77204 0.18961 0.08224 0.06500
H 	H 	0.80963 0.09800 0.27078 0.05200
N 	N 	0.67204 0.18876 0.10916 -0.20500
H 	H 	0.63249 0.18542 0.12015 0.09600
H 	H 	0.68372 0.20920 0.06193 0.09200
C 	C 	0.29871 0.90383 0.66866 -0.03300
C 	C 	0.28984 0.92827 0.73924 -0.03400
C 	C 	0.24088 0.92863 0.77565 0.02000
C 	C 	0.20049 0.90356 0.74345 -0.11800
C 	C 	0.20948 0.87857 0.67202 0.13200
C 	C 	0.25755 0.88133 0.63260 -0.07300
H 	H 	0.23471 0.94755 0.83035 0.03300
H 	H 	0.26406 0.86285 0.57742 0.06500
H 	H 	0.32108 0.94642 0.76680 0.05000
N 	N 	0.17383 0.84981 0.64433 -0.20200
H 	H 	0.14546 0.83729 0.68264 0.10300
H 	H 	0.17806 0.83574 0.58682 0.09200
C 	C 	0.79930 0.84541 0.77973 -0.03600
C 	C 	0.78084 0.87528 0.72243 -0.03400
C 	C 	0.72879 0.87477 0.69918 0.02300
C 	C 	0.69467 0.84432 0.73275 -0.12100
C 	C 	0.71236 0.81584 0.79420 0.13000
C 	C 	0.76472 0.81640 0.81666 -0.07100
H 	H 	0.71542 0.89701 0.65276 0.03600
H 	H 	0.77856 0.79401 0.86252 0.06200
H 	H 	0.80708 0.89797 0.69390 0.05300
N 	N 	0.67927 0.78828 0.83236 -0.20300
H 	H 	0.63958 0.78900 0.82094 0.09400
H 	H 	0.69294 0.76655 0.87609 0.08900
C 	C 	0.51049 0.94183 0.48415 -0.04800
C 	C 	0.53768 0.95332 0.41351 -0.02800
C 	C 	0.53643 0.99579 0.38520 0.02700
C 	C 	0.50782 0.02726 0.42694 -0.12800
C 	C 	0.47512 0.01465 0.49190 0.12600
C 	C 	0.47713 0.97192 0.52067 -0.06600
H 	H 	0.56016 0.00485 0.33354 0.04000
H 	H 	0.45371 0.96251 0.57251 0.05500
H 	H 	0.56168 0.92978 0.38260 0.05000
N 	N 	0.44186 0.04321 0.52654 -0.20200
H 	H 	0.43612 0.07380 0.50162 0.08100
H 	H 	0.41943 0.03419 0.57671 0.09300
C 	C 	0.02574 0.77442 0.04109 -0.06000
C 	C 	0.02098 0.79373 0.11782 -0.01900
C 	C 	0.01128 0.76834 0.18660 0.01000
C 	C 	0.00492 0.72348 0.17907 -0.11000
C 	C 	0.01160 0.70364 0.10163 0.12400
C 	C 	0.02526 0.72929 0.03446 -0.05200
H 	H 	0.00650 0.78377 0.24541 0.03200
H 	H 	0.03102 0.71434 0.97538 0.04200
H 	H 	0.02237 0.82858 0.12368 0.04500
N 	N 	0.00189 0.66085 0.09023 -0.19400
H 	H 	0.98116 0.64280 0.13273 0.10100
H 	H 	0.01110 0.64607 0.03483 0.09500
C 	C 	0.98621 0.72393 0.53981 -0.05700
C 	C 	0.98656 0.70555 0.61772 -0.02600
C 	C 	0.99677 0.73117 0.68590 0.00300
C 	C 	0.00746 0.77532 0.67678 -0.12500
C 	C 	0.00486 0.79448 0.59826 0.14600
C 	C 	0.99161 0.76875 0.53104 -0.08600
H 	H 	0.99815 0.71639 0.74574 0.02200
H 	H 	0.98923 0.78315 0.47091 0.04700
H 	H 	0.98119 0.67111 0.62518 0.03700
N 	N 	0.01738 0.83673 0.58638 -0.20600
H 	H 	0.03388 0.85540 0.63242 0.10900
H 	H 	0.01318 0.85079 0.52885 0.09400
C 	C 	0.01982 0.21084 0.89875 -0.05200
C 	C 	0.03741 0.25359 0.89676 -0.02600
C 	C 	0.02820 0.27935 0.82848 0.00400
C 	C 	0.00170 0.26247 0.76086 -0.10200
C 	C 	0.98939 0.21785 0.75893 0.11100
C 	C 	0.99720 0.19263 0.82920 -0.07500
H 	H 	0.03955 0.31303 0.82971 0.04000
H 	H 	0.98487 0.15915 0.83013 0.05000
H 	H 	0.05558 0.26763 0.95005 0.03600
N 	N 	0.97145 0.19895 0.68967 -0.20000
H 	H 	0.97117 0.21550 0.63423 0.09000
H 	H 	0.96028 0.16650 0.68980 0.08700
C 	C 	0.98998 0.28362 0.40270 -0.08200
C 	C 	0.97130 0.24125 0.39926 -0.01600
C 	C 	0.97709 0.21692 0.32827 -0.00300
C 	C 	0.00197 0.23465 0.25987 -0.11600
C 	C 	0.01625 0.27887 0.26055 0.12100
C 	C 	0.01130 0.30275 0.33305 -0.04400
H 	H 	0.96459 0.18352 0.32789 0.04100
H 	H 	0.02421 0.33606 0.33525 0.04900
H 	H 	0.95399 0.22661 0.45267 0.03400
N 	N 	0.03343 0.29867 0.19171 -0.20100
H 	H 	0.03212 0.28315 0.13524 0.09600
H 	H 	0.04588 0.33078 0.19347 0.09200
C 	C 	0.99667 0.45557 0.50880 -0.06600
C 	C 	0.99496 0.46621 0.42599 -0.02600
C 	C 	0.99406 0.50940 0.40174 0.02600
C 	C 	0.99565 0.54255 0.46016 -0.14700
C 	C 	0.99212 0.53196 0.54391 0.13200
C 	C 	0.99309 0.48833 0.56766 -0.06200
H 	H 	0.99541 0.51711 0.33737 0.03700
H 	H 	0.99298 0.48003 0.63186 0.05800
H 	H 	0.99678 0.44101 0.38023 0.03800
N 	N 	0.98742 0.56335 0.60137 -0.20500
H 	H 	0.98245 0.59566 0.58503 0.08900
H 	H 	0.98662 0.55539 0.66326 0.08700
C 	C 	0.50164 0.71513 0.91586 -0.06000
C 	C 	0.50449 0.69759 0.83729 -0.02600
C 	C 	0.49627 0.72380 0.76914 0.01600
C 	C 	0.48458 0.76776 0.77869 -0.13500
C 	C 	0.48309 0.78598 0.85810 0.13300
C 	C 	0.49368 0.75963 0.92579 -0.07300
H 	H 	0.49784 0.70969 0.70875 0.02500
H 	H 	0.49286 0.77334 0.98660 0.04600
H 	H 	0.51121 0.66333 0.82904 0.04600
N 	N 	0.46955 0.82800 0.87005 -0.20400
H 	H 	0.45528 0.84709 0.82278 0.10900
H 	H 	0.47077 0.84144 0.92845 0.09000
C 	C 	0.51273 0.72701 0.26353 -0.04700
C 	C 	0.54601 0.76120 0.28355 -0.03200
C 	C 	0.53929 0.78398 0.35634 0.02300
C 	C 	0.49924 0.77300 0.41009 -0.14500
C 	C 	0.46464 0.73920 0.38942 0.13700
C 	C 	0.47089 0.71735 0.31500 -0.07200
H 	H 	0.56561 0.81002 0.37139 0.02600
H 	H 	0.44436 0.69165 0.29886 0.05100
H 	H 	0.57772 0.76966 0.24352 0.05100
N 	N 	0.42658 0.72664 0.44155 -0.20500
H 	H 	0.42353 0.73950 0.50013 0.09800
H 	H 	0.40048 0.70247 0.42468 0.08900
C 	C 	0.20536 0.63091 0.28349 -0.03300
C 	C 	0.24263 0.64557 0.33901 -0.03300
C 	C 	0.29500 0.64289 0.31977 0.02400
C 	C 	0.31064 0.62604 0.24457 -0.12500
C 	C 	0.27362 0.60668 0.19250 0.13700
C 	C 	0.22093 0.60961 0.21229 -0.07200
H 	H 	0.32328 0.65669 0.36096 0.02500
H 	H 	0.19211 0.59680 0.17083 0.06400
H 	H 	0.23095 0.66062 0.39570 0.05200
N 	N 	0.28840 0.58567 0.12354 -0.20400
H 	H 	0.32737 0.58064 0.11005 0.10000
H 	H 	0.26075 0.57276 0.08400 0.09500
C 	C 	0.80412 0.60213 0.24565 -0.03400
C 	C 	0.78358 0.56372 0.21446 -0.03200
C 	C 	0.73571 0.56400 0.17495 0.02100
C 	C 	0.70832 0.60279 0.16545 -0.11800
C 	C 	0.73045 0.64210 0.19296 0.13300
C 	C 	0.77799 0.64123 0.23385 -0.06800
H 	H 	0.71921 0.53386 0.15371 0.03200
H 	H 	0.79485 0.67108 0.25600 0.05800
H 	H 	0.80416 0.53352 0.22222 0.04500
N 	N 	0.70638 0.68060 0.18023 -0.20100
H 	H 	0.67292 0.68288 0.14507 0.09300
H 	H 	0.72213 0.70915 0.20346 0.09200
C 	C 	0.50095 0.27777 0.07545 -0.05400
C 	C 	0.45069 0.27041 0.10429 -0.03100
C 	C 	0.44285 0.24889 0.17787 0.02300
C 	C 	0.48517 0.23551 0.22511 -0.12400
C 	C 	0.53562 0.24815 0.20181 0.11700
C 	C 	0.54342 0.26747 0.12515 -0.06000
H 	H 	0.40380 0.24100 0.19649 0.04200
H 	H 	0.58232 0.27477 0.10485 0.06000
H 	H 	0.41756 0.28019 0.06836 0.03900
N 	N 	0.57583 0.24429 0.25442 -0.20400
H 	H 	0.56964 0.23630 0.31545 0.06900
H 	H 	0.61336 0.25205 0.23596 0.09200
C 	C 	0.49381 0.21246 0.55666 -0.06000
C 	C 	0.48286 0.19561 0.63405 -0.02400
C 	C 	0.48941 0.22120 0.70342 0.01700
C 	C 	0.50758 0.26370 0.69635 -0.13500
C 	C 	0.51597 0.28169 0.61779 0.13500
C 	C 	0.50709 0.25613 0.54851 -0.07200
H 	H 	0.48232 0.20740 0.76308 0.02400
H 	H 	0.51389 0.26947 0.48833 0.04700
H 	H 	0.47178 0.16205 0.64085 0.04800
N 	N 	0.53423 0.32264 0.60849 -0.20500
H 	H 	0.54463 0.34165 0.65829 0.10900
H 	H 	0.53952 0.33559 0.55026 0.09100
C 	C 	0.29872 0.34219 0.77380 -0.03500
C 	C 	0.28325 0.37984 0.73296 -0.03400
C 	C 	0.23257 0.38401 0.70471 0.02300
C 	C 	0.19687 0.35048 0.71616 -0.12300
C 	C 	0.21107 0.31385 0.76273 0.13300
C 	C 	0.26231 0.30963 0.78982 -0.07300
H 	H 	0.22171 0.41250 0.67039 0.03600
H 	H 	0.27375 0.28096 0.82320 0.06300
H 	H 	0.31078 0.40545 0.72125 0.05700
N 	N 	0.17558 0.28328 0.78308 -0.20300
H 	H 	0.13637 0.28752 0.77046 0.09400
H 	H 	0.18672 0.25565 0.81519 0.09000
C 	C 	0.79760 0.39189 0.70170 -0.03300
C 	C 	0.78735 0.41748 0.77031 -0.03400
C 	C 	0.73880 0.41583 0.80798 0.02000
C 	C 	0.70043 0.38772 0.77879 -0.12000
C 	C 	0.71152 0.36045 0.71135 0.13200
C 	C 	0.75897 0.36463 0.67086 -0.07200
H 	H 	0.73110 0.43627 0.86018 0.03100
H 	H 	0.76703 0.34441 0.61843 0.06300
H 	H 	0.81691 0.43872 0.79444 0.04800
N 	N 	0.67834 0.32864 0.68839 -0.20200
H 	H 	0.64963 0.31750 0.72757 0.10100
H 	H 	0.68434 0.31172 0.63408 0.09100
C 	C 	0.49625 0.44109 0.98455 -0.06000
C 	C 	0.51934 0.47268 0.93508 -0.02400
C 	C 	0.51902 0.51601 0.95912 0.00600
C 	C 	0.49598 0.52821 0.03293 -0.11800
C 	C 	0.47694 0.49589 0.08653 0.13200
C 	C 	0.47756 0.45250 0.06170 -0.05500
H 	H 	0.53459 0.54038 0.91856 0.02900
H 	H 	0.46162 0.42782 0.10130 0.05800
H 	H 	0.53524 0.46405 0.87622 0.04700
N 	N 	0.45730 0.50628 0.16094 -0.20300
H 	H 	0.45804 0.53786 0.18295 0.11100
H 	H 	0.44198 0.48231 0.19872 0.09500
