data_crystal

_cell_length_a 26.67319
_cell_length_b 23.66866
_cell_length_c 57.87315
_cell_angle_alpha 90.46399
_cell_angle_beta  91.36799
_cell_angle_gamma 110.79710

_symmetry_space_group_name_	'P 1'
_symmetry_space_group_name_H-M	'P 1'

loop_
_symmetry_equiv_pos_as_xyz
  x,y,z

loop_
_atom_site_label
_atom_site_type_symbol
_atom_site_fract_x
_atom_site_fract_y
_atom_site_fract_z
_atom_site_charge
Ni	Ni	0.71162 0.31774 0.90306 1.09900
O 	O 	0.64080 0.27093 0.88595 -0.70400
Ni	Ni	0.58879 0.29049 0.90582 1.10000
O 	O 	0.75380 0.28908 0.87932 -0.36900
O 	O 	0.70238 0.19023 0.88528 -0.41400
O 	O 	0.71293 0.38703 0.88178 -0.39800
Ni	Ni	0.62233 0.18406 0.88491 1.06200
O 	O 	0.74586 0.39795 0.95184 -0.41000
O 	O 	0.62393 0.17834 0.91998 -0.41300
O 	O 	0.52288 0.24990 0.88517 -0.38100
O 	O 	0.65803 0.32532 0.92531 -0.70500
O 	O 	0.78239 0.37111 0.91933 -0.35500
O 	O 	0.54797 0.33408 0.92427 -0.36600
O 	O 	0.61647 0.42443 0.92054 -0.39700
Ni	Ni	0.68193 0.40954 0.93577 1.07100
H 	H 	0.63931 0.28612 0.87015 0.15400
H 	H 	0.65744 0.29942 0.93872 0.16100
C 	C 	0.58228 0.17762 0.93165 0.26300
O 	O 	0.73211 0.45766 0.91090 -0.39800
C 	C 	0.73977 0.23129 0.87366 0.27200
C 	C 	0.51405 0.19552 0.87610 0.27800
C 	C 	0.72651 0.44354 0.88877 0.30600
C 	C 	0.56740 0.39331 0.92686 0.23800
C 	C 	0.78733 0.39390 0.94068 0.26100
O 	O 	0.56035 0.21871 0.92801 -0.34900
O 	O 	0.54048 0.16137 0.88428 -0.40800
Ni	Ni	0.63192 0.30736 0.52102 1.09900
O 	O 	0.69985 0.33792 0.50214 -0.70100
Ni	Ni	0.75230 0.31643 0.52248 1.09900
O 	O 	0.59435 0.35692 0.50364 -0.37100
O 	O 	0.66550 0.44483 0.50983 -0.39000
O 	O 	0.59495 0.23844 0.49717 -0.36300
Ni	Ni	0.72866 0.42474 0.49575 1.07000
O 	O 	0.57448 0.17767 0.53911 -0.41100
O 	O 	0.77740 0.46838 0.52357 -0.39300
O 	O 	0.82402 0.36082 0.50658 -0.37200
O 	O 	0.68200 0.27791 0.53945 -0.70000
O 	O 	0.56717 0.27140 0.54119 -0.37900
O 	O 	0.79141 0.27765 0.54473 -0.37000
O 	O 	0.73020 0.18376 0.53637 -0.41300
Ni	Ni	0.65454 0.18998 0.53787 1.06500
H 	H 	0.69467 0.31490 0.48737 0.15800
H 	H 	0.68474 0.29227 0.55571 0.15400
C 	C 	0.79411 0.44180 0.54041 0.30600
O 	O 	0.65353 0.18952 0.50290 -0.40300
C 	C 	0.61514 0.41623 0.50322 0.24000
C 	C 	0.83271 0.40727 0.49254 0.25600
C 	C 	0.61309 0.19544 0.49142 0.26200
C 	C 	0.77155 0.21930 0.54873 0.27700
C 	C 	0.55513 0.21603 0.54909 0.27600
O 	O 	0.76663 0.38591 0.54558 -0.40500
O 	O 	0.79290 0.41501 0.48054 -0.39600
Ni	Ni	0.01520 0.94287 0.72706 1.10100
O 	O 	0.03090 0.87808 0.70810 -0.70400
Ni	Ni	0.06818 0.92679 0.68148 1.10000
O 	O 	0.97878 0.88136 0.75189 -0.37000
O 	O 	0.92311 0.81652 0.72482 -0.41100
O 	O 	0.08867 0.95804 0.74270 -0.38500
Ni	Ni	0.96747 0.81386 0.69589 1.06300
O 	O 	0.02838 0.08827 0.71885 -0.40800
O 	O 	0.93551 0.87070 0.67981 -0.41200
O 	O 	0.08877 0.86088 0.66617 -0.38100
O 	O 	0.04080 0.98645 0.69777 -0.70400
O 	O 	0.00614 0.01215 0.74600 -0.37300
O 	O 	0.11776 0.99132 0.66066 -0.37400
O 	O 	0.15651 0.05427 0.69148 -0.41600
Ni	Ni	0.09004 0.06781 0.70545 1.06800
H 	H 	0.05498 0.86115 0.71650 0.15600
H 	H 	0.00966 0.99073 0.68944 0.15600
C 	C 	0.95798 0.90201 0.66179 0.28600
O 	O 	0.11556 0.05986 0.73835 -0.39900
C 	C 	0.94449 0.82718 0.74594 0.27500
C 	C 	0.05200 0.80622 0.66326 0.27600
C 	C 	0.12508 0.01225 0.74560 0.29700
C 	C 	0.15723 0.03804 0.66961 0.26100
C 	C 	0.99971 0.06024 0.73666 0.27400
O 	O 	0.00758 0.90915 0.65680 -0.36900
O 	O 	0.00038 0.79735 0.66601 -0.40200
Ni	Ni	0.25538 0.67495 0.40979 1.10000
O 	O 	0.32412 0.71584 0.39220 -0.70400
Ni	Ni	0.37836 0.70194 0.41347 1.10000
O 	O 	0.21107 0.69628 0.38427 -0.37400
O 	O 	0.26288 0.79659 0.38783 -0.40900
O 	O 	0.25112 0.59905 0.39130 -0.39500
Ni	Ni	0.34276 0.80191 0.38806 1.06500
O 	O 	0.22456 0.60978 0.46061 -0.39400
O 	O 	0.34717 0.81961 0.42269 -0.39800
O 	O 	0.44192 0.73537 0.39229 -0.37800
O 	O 	0.31157 0.67436 0.43321 -0.70300
O 	O 	0.18576 0.62733 0.42633 -0.36700
O 	O 	0.42063 0.66296 0.43399 -0.36900
O 	O 	0.35045 0.57275 0.43291 -0.39500
Ni	Ni	0.28814 0.59433 0.44684 1.07100
H 	H 	0.32343 0.69565 0.37709 0.15400
H 	H 	0.31407 0.70485 0.44542 0.16000
C 	C 	0.39063 0.82363 0.43460 0.26300
O 	O 	0.23543 0.53908 0.42290 -0.39500
C 	C 	0.22347 0.75239 0.37734 0.27400
C 	C 	0.44915 0.78604 0.38092 0.27300
C 	C 	0.24014 0.54561 0.40049 0.30500
C 	C 	0.40112 0.60455 0.43803 0.23600
C 	C 	0.18201 0.60945 0.44815 0.26000
O 	O 	0.41049 0.78010 0.43330 -0.36500
O 	O 	0.42442 0.82328 0.38733 -0.40700
Ni	Ni	0.34391 0.69237 0.00872 1.10000
O 	O 	0.26873 0.66636 0.99392 -0.70000
Ni	Ni	0.22629 0.68167 0.01991 1.09900
O 	O 	0.37306 0.64844 0.98474 -0.36500
O 	O 	0.30404 0.55962 0.99006 -0.39200
O 	O 	0.37083 0.76682 0.98765 -0.34800
Ni	Ni	0.23634 0.58177 0.98337 1.06900
O 	O 	0.41026 0.81589 0.03277 -0.41000
O 	O 	0.19884 0.53060 0.01105 -0.39500
O 	O 	0.14854 0.64125 0.00708 -0.36000
O 	O 	0.30310 0.71591 0.03337 -0.69900
O 	O 	0.41653 0.72312 0.02546 -0.37700
O 	O 	0.19761 0.71321 0.04795 -0.37000
O 	O 	0.25622 0.80941 0.04289 -0.41100
Ni	Ni	0.33103 0.80351 0.03722 1.06500
H 	H 	0.26799 0.69316 0.98098 0.15900
H 	H 	0.30690 0.69676 0.04813 0.15300
C 	C 	0.19115 0.55207 0.03119 0.30700
O 	O 	0.31997 0.81603 0.00321 -0.41300
C 	C 	0.35021 0.58999 0.98084 0.24000
C 	C 	0.13413 0.59890 0.99059 0.25900
C 	C 	0.35598 0.81421 0.98859 0.26300
C 	C 	0.21958 0.76982 0.05521 0.27700
C 	C 	0.43218 0.77474 0.03724 0.28000
O 	O 	0.22110 0.60660 0.03809 -0.40300
O 	O 	0.16811 0.59623 0.97479 -0.41100
Ni	Ni	0.94028 0.02294 0.23993 1.09600
O 	O 	0.94997 0.09639 0.21964 -0.70900
Ni	Ni	0.91727 0.05552 0.18993 1.09900
O 	O 	0.97651 0.07804 0.26772 -0.37500
O 	O 	0.04992 0.12767 0.24642 -0.41400
O 	O 	0.86704 0.02686 0.24814 -0.40200
Ni	Ni	0.02419 0.14453 0.21374 1.06400
O 	O 	0.89760 0.87251 0.23018 -0.41200
O 	O 	0.04348 0.07368 0.20147 -0.41700
O 	O 	0.92258 0.13162 0.17254 -0.38500
O 	O 	0.91915 0.98394 0.20885 -0.70300
O 	O 	0.92481 0.94644 0.25917 -0.37800
O 	O 	0.86597 0.00231 0.16500 -0.39000
O 	O 	0.80752 0.95041 0.19233 -0.41800
Ni	Ni	0.85437 0.91308 0.21170 1.07100
H 	H 	0.93035 0.12196 0.22538 0.15400
H 	H 	0.94778 0.96960 0.20382 0.15400
C 	C 	0.02487 0.04745 0.18139 0.29700
O 	O 	0.82163 0.92585 0.24200 -0.39800
C 	C 	0.02162 0.12430 0.26512 0.27700
C 	C 	0.96926 0.17689 0.17179 0.27600
C 	C 	0.82408 0.97828 0.25057 0.31500
C 	C 	0.81800 0.96545 0.17058 0.28000
C 	C 	0.92268 0.89371 0.25030 0.28600
O 	O 	0.98168 0.05263 0.17165 -0.37900
O 	O 	0.01364 0.17115 0.18076 -0.40300
C 	C 	0.97569 0.22422 0.15451 -0.09300
C 	C 	0.01489 0.28176 0.15832 0.02200
C 	C 	0.03184 0.32157 0.13999 -0.07900
C 	C 	0.00898 0.30469 0.11769 0.05300
C 	C 	0.96700 0.24899 0.11427 -0.08300
C 	C 	0.95016 0.20906 0.13261 0.02500
C 	C 	0.03406 0.34066 0.09744 -0.05400
C 	C 	0.04988 0.40129 0.09789 -0.05200
C 	C 	0.08696 0.43776 0.08055 0.04800
C 	C 	0.07428 0.42817 0.05678 -0.07400
C 	C 	0.10915 0.46424 0.04060 0.02400
C 	C 	0.15678 0.51041 0.04805 -0.09200
C 	C 	0.16947 0.51952 0.07182 0.02500
C 	C 	0.13457 0.48365 0.08795 -0.07700
H 	H 	0.03440 0.29431 0.17519 0.01200
H 	H 	0.06469 0.36412 0.14288 0.04600
H 	H 	0.94890 0.23557 0.09719 0.04900
H 	H 	0.91958 0.16496 0.12944 0.03600
H 	H 	0.04167 0.31743 0.08239 0.04500
H 	H 	0.04083 0.42433 0.11266 0.04200
H 	H 	0.03712 0.39352 0.05088 0.05100
H 	H 	0.09850 0.45723 0.02234 0.03300
H 	H 	0.20621 0.55466 0.07784 0.03100
H 	H 	0.14462 0.49145 0.10623 0.04600
C 	C 	0.48331 0.79304 0.05039 -0.09200
C 	C 	0.49451 0.75183 0.06503 0.01600
C 	C 	0.54255 0.76950 0.07801 -0.07700
C 	C 	0.57963 0.82856 0.07653 0.04600
C 	C 	0.56947 0.86904 0.06112 -0.07600
C 	C 	0.52128 0.85152 0.04827 0.02000
C 	C 	0.62873 0.84778 0.09132 -0.05300
C 	C 	0.64340 0.89950 0.10375 -0.05300
C 	C 	0.68902 0.91540 0.12041 0.04600
C 	C 	0.73023 0.97193 0.11936 -0.07200
C 	C 	0.77283 0.98802 0.13555 0.02800
C 	C 	0.77407 0.94796 0.15314 -0.09700
C 	C 	0.73252 0.89158 0.15429 0.01900
C 	C 	0.69011 0.87542 0.13803 -0.07800
H 	H 	0.46565 0.70641 0.06662 0.02300
H 	H 	0.55047 0.73769 0.08958 0.04500
H 	H 	0.59880 0.91405 0.05917 0.05000
H 	H 	0.51366 0.88320 0.03653 0.03700
H 	H 	0.65049 0.81701 0.09362 0.04200
H 	H 	0.62186 0.93049 0.10153 0.04200
H 	H 	0.72929 0.00332 0.10598 0.04200
H 	H 	0.80439 0.03196 0.13464 0.02900
H 	H 	0.73310 0.86030 0.16777 0.01300
H 	H 	0.65785 0.83210 0.13924 0.04600
C 	C 	0.19552 0.79162 0.07438 -0.09200
C 	C 	0.13988 0.76771 0.07747 0.02200
C 	C 	0.11686 0.79150 0.09471 -0.07500
C 	C 	0.14917 0.83953 0.10893 0.04600
C 	C 	0.20510 0.86147 0.10657 -0.07700
C 	C 	0.22807 0.83803 0.08923 0.01700
C 	C 	0.12407 0.86650 0.12627 -0.05100
C 	C 	0.13765 0.92679 0.12824 -0.05800
C 	C 	0.10830 0.95370 0.14356 0.06100
C 	C 	0.13691 0.00269 0.15817 -0.09300
C 	C 	0.10964 0.03228 0.17108 0.03100
C 	C 	0.05348 0.01361 0.16922 -0.11100
C 	C 	0.02481 0.96399 0.15485 0.03900
C 	C 	0.05206 0.93440 0.14199 -0.08700
H 	H 	0.11433 0.73170 0.06619 0.04100
H 	H 	0.07379 0.77352 0.09668 0.04900
H 	H 	0.23070 0.89681 0.11808 0.04500
H 	H 	0.27116 0.85596 0.08731 0.00600
H 	H 	0.09120 0.83682 0.13615 0.04000
H 	H 	0.17065 0.95663 0.11848 0.04600
H 	H 	0.18033 0.01831 0.15932 0.04800
H 	H 	0.13226 0.07065 0.18202 0.02400
H 	H 	0.98143 0.94879 0.15343 0.01800
H 	H 	0.02957 0.89744 0.13040 0.05100
C 	C 	0.49601 0.81008 0.36602 -0.08800
C 	C 	0.54394 0.80042 0.37145 0.02000
C 	C 	0.59049 0.83061 0.35935 -0.07500
C 	C 	0.58950 0.87020 0.34157 0.04600
C 	C 	0.54128 0.87880 0.33579 -0.07600
C 	C 	0.49475 0.84855 0.34783 0.01500
C 	C 	0.64003 0.90595 0.33030 -0.05200
C 	C 	0.64244 0.91001 0.30712 -0.05300
C 	C 	0.69386 0.94114 0.29553 0.04900
C 	C 	0.69370 0.97225 0.27498 -0.08000
C 	C 	0.73906 0.99087 0.26124 0.03100
C 	C 	0.78495 0.97857 0.26794 -0.09700
C 	C 	0.78671 0.95211 0.28941 0.02800
C 	C 	0.74122 0.93259 0.30298 -0.07700
H 	H 	0.54569 0.77127 0.38554 0.03900
H 	H 	0.62752 0.82388 0.36404 0.04800
H 	H 	0.54015 0.91011 0.32241 0.04600
H 	H 	0.45803 0.85628 0.34343 0.01100
H 	H 	0.67605 0.92661 0.34103 0.04400
H 	H 	0.60610 0.89010 0.29650 0.04100
H 	H 	0.65762 0.97948 0.26909 0.04800
H 	H 	0.73728 0.01136 0.24471 0.01500
H 	H 	0.82201 0.94243 0.29475 0.03500
H 	H 	0.74191 0.90770 0.31852 0.04900
C 	C 	0.04502 0.16690 0.28465 -0.09600
C 	C 	0.09997 0.20228 0.28524 0.01300
C 	C 	0.12090 0.24836 0.30183 -0.07800
C 	C 	0.08747 0.25872 0.31847 0.04600
C 	C 	0.03298 0.22208 0.31839 -0.07900
C 	C 	0.01184 0.17630 0.30161 0.02100
C 	C 	0.10781 0.31181 0.33436 -0.05300
C 	C 	0.15710 0.32849 0.34434 -0.05300
C 	C 	0.17908 0.38464 0.35848 0.04700
C 	C 	0.20571 0.38428 0.37962 -0.07600
C 	C 	0.22690 0.43722 0.39304 0.02300
C 	C 	0.22198 0.49122 0.38537 -0.09100
C 	C 	0.19701 0.49206 0.36378 0.02200
C 	C 	0.17593 0.43912 0.35035 -0.07600
H 	H 	0.12627 0.19517 0.27247 0.02700
H 	H 	0.16273 0.27722 0.30128 0.04500
H 	H 	0.00675 0.22990 0.33104 0.04900
H 	H 	0.96939 0.14952 0.30137 0.03100
H 	H 	0.08197 0.33720 0.33811 0.04300
H 	H 	0.18067 0.29952 0.34274 0.04200
H 	H 	0.20946 0.34281 0.38577 0.04900
H 	H 	0.24688 0.43618 0.40947 0.03300
H 	H 	0.19309 0.53339 0.35758 0.03600
H 	H 	0.15720 0.44045 0.33365 0.04700
C 	C 	0.94468 0.85557 0.26404 -0.09100
C 	C 	0.94224 0.85622 0.28823 0.02200
C 	C 	0.97070 0.82818 0.30153 -0.08100
C 	C 	0.00219 0.79971 0.29074 0.05000
C 	C 	0.00117 0.79483 0.26657 -0.07400
C 	C 	0.97261 0.82283 0.25323 0.01300
C 	C 	0.03926 0.77913 0.30461 -0.05400
C 	C 	0.07545 0.81762 0.31926 -0.05300
C 	C 	0.11379 0.79836 0.33287 0.04700
C 	C 	0.16792 0.83591 0.33446 -0.07800
C 	C 	0.20390 0.82040 0.34868 0.01700
C 	C 	0.18590 0.76748 0.36168 -0.09200
C 	C 	0.13166 0.72969 0.35998 0.02000
C 	C 	0.09575 0.74523 0.34574 -0.07600
H 	H 	0.91943 0.87977 0.29674 0.03600
H 	H 	0.96974 0.83029 0.32021 0.05000
H 	H 	0.02445 0.77176 0.25811 0.04600
H 	H 	0.97418 0.82136 0.23455 0.02500
H 	H 	0.03939 0.73373 0.30176 0.04200
H 	H 	0.07849 0.86463 0.32037 0.04600
H 	H 	0.18208 0.87725 0.32472 0.04700
H 	H 	0.24571 0.84962 0.34965 0.01300
H 	H 	0.11705 0.68901 0.37007 0.03900
H 	H 	0.05373 0.71669 0.34511 0.05000
C 	C 	0.45174 0.97758 0.44965 0.12300
C 	C 	0.45699 0.03240 0.46087 -0.10000
C 	C 	0.50820 0.06839 0.46936 0.01200
C 	C 	0.55244 0.05334 0.46584 0.10400
C 	C 	0.54764 0.99914 0.45454 -0.07800
C 	C 	0.49646 0.96235 0.44627 0.00300
O 	O 	0.40364 0.92844 0.44854 -0.19500
C 	C 	0.42411 0.88227 0.44483 0.03700
C 	C 	0.47937 0.90218 0.44421 -0.05300
O 	O 	0.60078 0.10078 0.46931 -0.19400
C 	C 	0.58098 0.14600 0.47578 0.03600
C 	C 	0.52539 0.12748 0.47465 -0.05900
H 	H 	0.42235 0.04502 0.46371 0.06500
H 	H 	0.58224 0.98601 0.45235 0.06300
H 	H 	0.50287 0.87644 0.43793 0.06100
H 	H 	0.50171 0.14990 0.48320 0.06100
C 	C 	0.95518 0.51459 0.47397 0.11800
C 	C 	0.98894 0.54660 0.45658 -0.09700
C 	C 	0.04126 0.54591 0.45635 0.01800
C 	C 	0.06116 0.51928 0.47350 0.11100
C 	C 	0.02777 0.48778 0.49112 -0.08100
C 	C 	0.97488 0.48744 0.49121 0.00000
O 	O 	0.89969 0.49048 0.47085 -0.19700
C 	C 	0.88825 0.44508 0.48732 0.04200
C 	C 	0.93256 0.44321 0.49969 -0.05700
O 	O 	0.11701 0.54107 0.47555 -0.19300
C 	C 	0.12832 0.58415 0.45805 0.04400
C 	C 	0.08328 0.58720 0.44666 -0.05800
H 	H 	0.97410 0.56849 0.44308 0.06400
H 	H 	0.04263 0.46545 0.50445 0.06300
H 	H 	0.93440 0.40477 0.50924 0.05800
H 	H 	0.08197 0.62334 0.43556 0.05700
C 	C 	0.55263 0.51949 0.48689 0.11300
C 	C 	0.55261 0.56776 0.47296 -0.09000
C 	C 	0.50881 0.55848 0.45757 0.00700
C 	C 	0.46534 0.50503 0.45692 0.11500
C 	C 	0.46501 0.45728 0.47111 -0.09200
C 	C 	0.50851 0.46659 0.48663 0.01000
O 	O 	0.59983 0.51277 0.49483 -0.19800
C 	C 	0.57967 0.45068 0.49895 0.04400
C 	C 	0.52546 0.42295 0.49416 -0.06100
O 	O 	0.41835 0.51055 0.44827 -0.19900
C 	C 	0.43755 0.57267 0.44437 0.04200
C 	C 	0.49136 0.60179 0.44986 -0.06000
H 	H 	0.58647 0.61000 0.47339 0.06300
H 	H 	0.43118 0.41501 0.47063 0.06400
H 	H 	0.50558 0.37521 0.49019 0.06100
H 	H 	0.51010 0.64956 0.45401 0.05800
C 	C 	0.80152 0.19201 0.56367 -0.09400
C 	C 	0.81129 0.20953 0.58705 0.01300
C 	C 	0.82928 0.17511 0.60245 -0.07800
C 	C 	0.83860 0.12371 0.59447 0.04500
C 	C 	0.83123 0.10794 0.57086 -0.07700
C 	C 	0.81308 0.14213 0.55554 0.01900
C 	C 	0.85146 0.08358 0.61109 -0.05500
C 	C 	0.89219 0.06410 0.60742 -0.05300
C 	C 	0.89995 0.01598 0.62154 0.04000
C 	C 	0.91414 0.97081 0.61073 -0.07000
C 	C 	0.92886 0.92988 0.62398 0.02300
C 	C 	0.92948 0.93367 0.64818 -0.09800
C 	C 	0.91190 0.97626 0.65901 0.02300
C 	C 	0.89810 0.01799 0.64578 -0.08600
H 	H 	0.80251 0.24803 0.59349 0.02200
H 	H 	0.83488 0.18765 0.62064 0.04400
H 	H 	0.83774 0.06795 0.56453 0.04700
H 	H 	0.80600 0.12850 0.53747 0.03200
H 	H 	0.82651 0.06856 0.62603 0.04000
H 	H 	0.91726 0.08004 0.59255 0.04100
H 	H 	0.91536 0.96861 0.59205 0.04800
H 	H 	0.94201 0.89685 0.61546 0.03400
H 	H 	0.91218 0.97950 0.67770 0.01400
H 	H 	0.88822 0.05331 0.65440 0.04500
C 	C 	0.50962 0.19232 0.56470 -0.09100
C 	C 	0.47511 0.13167 0.56280 0.01600
C 	C 	0.43274 0.10900 0.57792 -0.07700
C 	C 	0.42403 0.14673 0.59494 0.04500
C 	C 	0.45869 0.20731 0.59697 -0.07500
C 	C 	0.50106 0.23007 0.58182 0.01500
C 	C 	0.38047 0.12130 0.61144 -0.05400
C 	C 	0.34576 0.14926 0.61604 -0.05200
C 	C 	0.29840 0.11996 0.63026 0.04200
C 	C 	0.28577 0.15290 0.64803 -0.07400
C 	C 	0.24000 0.12609 0.66103 0.01100
C 	C 	0.20607 0.06624 0.65618 -0.08300
C 	C 	0.21855 0.03354 0.63822 0.00500
C 	C 	0.26422 0.06036 0.62526 -0.07000
H 	H 	0.48090 0.10211 0.54956 0.03200
H 	H 	0.40654 0.06208 0.57635 0.04600
H 	H 	0.45335 0.23646 0.61048 0.04600
H 	H 	0.52774 0.27674 0.58365 0.02700
H 	H 	0.37408 0.07686 0.61844 0.04100
H 	H 	0.35228 0.19401 0.60933 0.04300
H 	H 	0.31144 0.19921 0.65179 0.04400
H 	H 	0.23061 0.15208 0.67465 0.02000
H 	H 	0.19292 0.98731 0.63431 0.04600
H 	H 	0.27272 0.03502 0.61117 0.04600
C 	C 	0.06485 0.76171 0.64922 -0.08700
C 	C 	0.07507 0.77276 0.62568 0.02300
C 	C 	0.06290 0.72429 0.60994 -0.07400
C 	C 	0.04072 0.66488 0.61776 0.04500
C 	C 	0.04013 0.65429 0.64161 -0.07400
C 	C 	0.05179 0.70268 0.65732 0.01300
C 	C 	0.00732 0.61681 0.60171 -0.04600
C 	C 	0.95425 0.59155 0.60482 -0.05900
C 	C 	0.91807 0.54918 0.58764 0.04900
C 	C 	0.87701 0.49778 0.59532 -0.07900
C 	C 	0.83667 0.46271 0.57994 0.02500
C 	C 	0.83683 0.47878 0.55662 -0.09300
C 	C 	0.87881 0.52924 0.54873 0.02300
C 	C 	0.91905 0.56456 0.56419 -0.07600
H 	H 	0.08704 0.81846 0.61932 0.03800
H 	H 	0.06569 0.73297 0.59157 0.05000
H 	H 	0.02558 0.60843 0.64787 0.04500
H 	H 	0.04574 0.69381 0.67557 0.01000
H 	H 	0.02487 0.60661 0.58618 0.04300
H 	H 	0.93716 0.60200 0.62046 0.04300
H 	H 	0.87562 0.48586 0.61340 0.04500
H 	H 	0.80473 0.42372 0.58626 0.03100
H 	H 	0.88012 0.54130 0.53067 0.03400
H 	H 	0.94996 0.60482 0.55810 0.05000
C 	C 	0.92586 0.45095 0.95398 0.12200
C 	C 	0.97649 0.44709 0.95784 -0.10000
C 	C 	0.00923 0.48238 0.97582 0.02400
C 	C 	0.99352 0.52230 0.98877 0.10000
C 	C 	0.94207 0.52467 0.98530 -0.08200
C 	C 	0.90989 0.49000 0.96707 0.00400
O 	O 	0.88386 0.40503 0.94304 -0.18900
C 	C 	0.84103 0.41933 0.95147 0.04100
C 	C 	0.85624 0.46998 0.96571 -0.05600
O 	O 	0.03610 0.57112 0.99795 -0.18200
C 	C 	0.07832 0.55726 0.98870 0.04100
C 	C 	0.06286 0.50447 0.97576 -0.06700
H 	H 	0.98965 0.41702 0.94743 0.06500
H 	H 	0.92888 0.55501 0.99554 0.06100
H 	H 	0.83038 0.48258 0.97723 0.04700
H 	H 	0.08701 0.49376 0.96283 0.04800
C 	C 	0.46211 0.93684 0.96722 0.10600
C 	C 	0.50399 0.96674 0.95250 -0.07300
C 	C 	0.51170 0.02679 0.94701 -0.00800
C 	C 	0.48136 0.05699 0.95639 0.12500
C 	C 	0.43958 0.02725 0.97116 -0.10400
C 	C 	0.43213 0.96733 0.97688 0.02400
O 	O 	0.43739 0.87430 0.96717 -0.18200
C 	C 	0.38925 0.87021 0.97749 0.04100
C 	C 	0.38591 0.92555 0.98317 -0.07000
O 	O 	0.50501 0.11953 0.95568 -0.18700
C 	C 	0.55276 0.12384 0.94492 0.03500
C 	C 	0.55783 0.06850 0.94064 -0.05200
H 	H 	0.52845 0.94359 0.94510 0.06200
H 	H 	0.41492 0.05036 0.97841 0.06600
H 	H 	0.34978 0.93363 0.98762 0.05400
H 	H 	0.58592 0.06035 0.92904 0.04000
C 	C 	0.40297 0.48843 0.95450 0.11300
C 	C 	0.41472 0.43524 0.95565 -0.08800
C 	C 	0.46834 0.43993 0.95352 0.00800
C 	C 	0.50820 0.49418 0.94887 0.11400
C 	C 	0.49637 0.54718 0.94745 -0.09000
C 	C 	0.44278 0.54261 0.94957 0.01000
O 	O 	0.35961 0.49482 0.96564 -0.19700
C 	C 	0.37789 0.55791 0.96724 0.04000
C 	C 	0.42718 0.58672 0.95770 -0.06100
O 	O 	0.55240 0.48816 0.93839 -0.20000
C 	C 	0.53437 0.42513 0.93667 0.03800
C 	C 	0.48456 0.39591 0.94571 -0.06100
H 	H 	0.38366 0.39229 0.95910 0.06400
H 	H 	0.52750 0.59013 0.94406 0.06400
H 	H 	0.45400 0.63204 0.96231 0.06300
H 	H 	0.45847 0.35013 0.94133 0.06100
C 	C 	0.96487 0.08752 0.74823 -0.08500
C 	C 	0.97808 0.15056 0.74877 0.01100
C 	C 	0.94817 0.17645 0.76194 -0.07400
C 	C 	0.90528 0.13963 0.77481 0.04400
C 	C 	0.89044 0.07656 0.77334 -0.07400
C 	C 	0.92010 0.05065 0.76015 0.01500
C 	C 	0.87631 0.16716 0.79006 -0.05400
C 	C 	0.87212 0.15422 0.81267 -0.05300
C 	C 	0.83698 0.17408 0.82755 0.04400
C 	C 	0.80258 0.13278 0.84253 -0.07600
C 	C 	0.77088 0.15132 0.85751 0.01200
C 	C 	0.77355 0.21174 0.85784 -0.09000
C 	C 	0.80824 0.25324 0.84287 0.01500
C 	C 	0.84012 0.23461 0.82794 -0.07400
H 	H 	0.01233 0.17958 0.73958 0.03300
H 	H 	0.95930 0.22514 0.76265 0.04400
H 	H 	0.85636 0.04766 0.78268 0.04600
H 	H 	0.90873 0.00192 0.75946 0.02800
H 	H 	0.85821 0.19780 0.78277 0.03900
H 	H 	0.89085 0.12390 0.81978 0.04400
H 	H 	0.80039 0.08618 0.84257 0.04500
H 	H 	0.74460 0.11875 0.86898 0.02800
H 	H 	0.81059 0.29988 0.84279 0.03600
H 	H 	0.86763 0.26733 0.81690 0.04700
C 	C 	0.46433 0.16588 0.86225 -0.08900
C 	C 	0.42065 0.18553 0.86409 0.02200
C 	C 	0.37220 0.15432 0.85237 -0.07600
C 	C 	0.36699 0.10361 0.83851 0.04800
C 	C 	0.41053 0.08385 0.83663 -0.07700
C 	C 	0.45913 0.11519 0.84827 0.01700
C 	C 	0.31548 0.07112 0.82630 -0.05500
C 	C 	0.31358 0.05926 0.80350 -0.05100
C 	C 	0.26270 0.04383 0.79006 0.04100
C 	C 	0.24773 0.99572 0.77396 -0.07000
C 	C 	0.20159 0.98395 0.75993 0.02800
C 	C 	0.17069 0.02091 0.76167 -0.09900
C 	C 	0.18534 0.06852 0.77799 0.02400
C 	C 	0.23125 0.08018 0.79200 -0.07600
H 	H 	0.42382 0.22420 0.87495 0.04000
H 	H 	0.33868 0.16966 0.85400 0.04900
H 	H 	0.40660 0.04399 0.82634 0.04500
H 	H 	0.49253 0.09968 0.84662 0.01300
H 	H 	0.27847 0.06417 0.83530 0.04500
H 	H 	0.35018 0.06450 0.79446 0.03900
H 	H 	0.27206 0.96782 0.77218 0.04700
H 	H 	0.19069 0.94720 0.74732 0.02300
H 	H 	0.16150 0.09700 0.77962 0.03600
H 	H 	0.24307 0.11828 0.80402 0.04800
C 	C 	0.92324 0.78139 0.76378 -0.09400
C 	C 	0.91283 0.72021 0.75851 0.01800
C 	C 	0.89189 0.67628 0.77517 -0.07900
C 	C 	0.88025 0.69288 0.79713 0.04800
C 	C 	0.89093 0.75412 0.80252 -0.07700
C 	C 	0.91244 0.79824 0.78591 0.02300
C 	C 	0.85947 0.64617 0.81476 -0.05400
C 	C 	0.81242 0.63769 0.82475 -0.05300
C 	C 	0.78919 0.58736 0.84084 0.04700
C 	C 	0.76876 0.59811 0.86185 -0.07600
C 	C 	0.74718 0.55093 0.87726 0.02300
C 	C 	0.74552 0.49233 0.87173 -0.09100
C 	C 	0.76420 0.48118 0.85028 0.02100
C 	C 	0.78558 0.52834 0.83487 -0.07600
H 	H 	0.92137 0.70675 0.74155 0.00100
H 	H 	0.88441 0.62924 0.77097 0.04400
H 	H 	0.88293 0.76752 0.81958 0.05000
H 	H 	0.92015 0.84529 0.79017 0.03700
H 	H 	0.88077 0.61547 0.81828 0.04300
H 	H 	0.79157 0.66897 0.82150 0.04300
H 	H 	0.77021 0.64318 0.86639 0.04900
H 	H 	0.73198 0.56002 0.89353 0.03200
H 	H 	0.76292 0.43623 0.84566 0.03500
H 	H 	0.79937 0.51901 0.81831 0.04700
