data_crystal

_cell_length_a 27.23905
_cell_length_b 24.54769
_cell_length_c 31.71691
_cell_angle_alpha 104.09468
_cell_angle_beta  115.96292
_cell_angle_gamma 111.20772

_symmetry_space_group_name_	'P 1'
_symmetry_space_group_name_H-M	'P 1'

loop_
_symmetry_equiv_pos_as_xyz
  x,y,z

loop_
_atom_site_label
_atom_site_type_symbol
_atom_site_fract_x
_atom_site_fract_y
_atom_site_fract_z
_atom_site_charge
N 	N 	0.61835 0.23467 0.89154 -0.13400
C 	C 	0.58688 0.26575 0.89521 0.14500
N 	N 	0.60733 0.32644 0.89749 -0.13300
C 	C 	0.65893 0.35584 0.89592 0.14900
N 	N 	0.68960 0.32421 0.89160 -0.13300
C 	C 	0.67027 0.26430 0.89043 0.14700
C 	C 	0.43892 0.19239 0.92184 0.02300
C 	C 	0.42977 0.21317 0.88282 -0.03200
C 	C 	0.47748 0.23555 0.87329 -0.00100
C 	C 	0.53506 0.23699 0.90222 -0.03600
C 	C 	0.54339 0.21410 0.93969 0.07100
C 	C 	0.49480 0.19151 0.94947 0.04400
H 	H 	0.38635 0.21346 0.86064 0.06200
H 	H 	0.46984 0.25249 0.84378 0.05400
N 	N 	0.60004 0.22025 0.97380 -0.10000
N 	N 	0.51097 0.17869 0.99155 -0.09200
C 	C 	0.78986 0.18213 0.90992 0.02300
C 	C 	0.81782 0.24962 0.94211 0.04400
C 	C 	0.77825 0.27720 0.93541 0.07300
C 	C 	0.71131 0.23682 0.89630 -0.03700
C 	C 	0.68378 0.16920 0.86297 -0.00100
C 	C 	0.72274 0.14218 0.86958 -0.03300
N 	N 	0.88079 0.29038 0.98577 -0.09300
N 	N 	0.80833 0.34089 0.97363 -0.10400
C 	C 	0.74988 0.55664 0.92149 0.02300
C 	C 	0.78465 0.53709 0.95551 -0.03600
C 	C 	0.75398 0.47227 0.94845 -0.00000
C 	C 	0.68777 0.42556 0.90724 -0.03600
C 	C 	0.65203 0.44562 0.87504 0.07100
C 	C 	0.68344 0.51190 0.88226 0.04600
H 	H 	0.83600 0.57150 0.98657 0.06300
H 	H 	0.78223 0.45795 0.97437 0.05600
N 	N 	0.58958 0.40257 0.83093 -0.10700
N 	N 	0.64701 0.52392 0.84425 -0.09500
S 	S 	0.58413 0.19639 0.01254 0.12400
S 	S 	0.88143 0.35708 0.01185 0.11900
S 	S 	0.57907 0.45111 0.80533 0.13900
H 	H 	0.63215 0.13730 0.83214 0.05100
H 	H 	0.70035 0.08978 0.84417 0.06300
N 	N 	0.56348 0.20803 0.37823 -0.13600
C 	C 	0.54424 0.24843 0.39307 0.14500
N 	N 	0.57081 0.31060 0.39852 -0.13300
C 	C 	0.61670 0.33241 0.38932 0.14600
N 	N 	0.63620 0.29204 0.37502 -0.13400
C 	C 	0.60964 0.22981 0.36936 0.14700
C 	C 	0.40883 0.18634 0.43391 0.02500
C 	C 	0.39838 0.21015 0.39658 -0.03500
C 	C 	0.44276 0.23054 0.38343 -0.00200
C 	C 	0.49796 0.22655 0.40669 -0.03900
C 	C 	0.50789 0.20160 0.44291 0.07000
C 	C 	0.46296 0.18141 0.45663 0.04000
H 	H 	0.35620 0.21355 0.37808 0.06400
H 	H 	0.43395 0.24923 0.35499 0.04900
N 	N 	0.56271 0.20163 0.47138 -0.10900
N 	N 	0.48027 0.16448 0.49641 -0.10000
C 	C 	0.71201 0.13326 0.36089 0.03000
C 	C 	0.69406 0.15971 0.32664 0.04100
C 	C 	0.65626 0.18810 0.32665 0.07100
C 	C 	0.63742 0.19002 0.36133 -0.03900
C 	C 	0.65229 0.15931 0.39323 -0.00000
C 	C 	0.68927 0.13139 0.39307 -0.03700
N 	N 	0.71528 0.16578 0.29523 -0.10100
N 	N 	0.64573 0.21757 0.29502 -0.10300
C 	C 	0.71343 0.53258 0.41353 0.02500
C 	C 	0.74868 0.50388 0.43290 -0.03600
C 	C 	0.71710 0.43917 0.42592 0.00000
C 	C 	0.64943 0.40162 0.39937 -0.03700
C 	C 	0.61431 0.43067 0.38151 0.07200
C 	C 	0.64669 0.49685 0.38887 0.04700
H 	H 	0.80055 0.53121 0.45261 0.06400
H 	H 	0.74539 0.41811 0.44086 0.05300
N 	N 	0.54829 0.39652 0.35082 -0.10900
N 	N 	0.60762 0.51777 0.36449 -0.09300
S 	S 	0.54986 0.17602 0.51068 0.12400
S 	S 	0.68451 0.20550 0.27002 0.13600
S 	S 	0.53642 0.45207 0.33616 0.12800
H 	H 	0.63781 0.15967 0.42008 0.05500
H 	H 	0.70238 0.11065 0.41964 0.07900
N 	N 	0.49593 0.83193 0.03785 -0.13400
C 	C 	0.52561 0.79904 0.03313 0.14300
N 	N 	0.50030 0.73583 0.02590 -0.13500
C 	C 	0.44522 0.70552 0.02292 0.14800
N 	N 	0.41514 0.73821 0.02658 -0.13800
C 	C 	0.44039 0.80138 0.03405 0.14800
C 	C 	0.69081 0.88445 0.02730 0.02600
C 	C 	0.68632 0.84531 0.05295 -0.04000
C 	C 	0.63312 0.81871 0.05578 -0.00400
C 	C 	0.58305 0.83048 0.03280 -0.03600
C 	C 	0.58837 0.87123 0.00875 0.06500
C 	C 	0.64306 0.89895 0.00653 0.03900
H 	H 	0.72317 0.83395 0.06955 0.05300
H 	H 	0.63065 0.78833 0.07538 0.04800
N 	N 	0.53964 0.87976 0.98025 -0.10400
N 	N 	0.63986 0.93072 0.97645 -0.08900
C 	C 	0.31979 0.88198 0.01666 0.02100
C 	C 	0.33539 0.85844 0.05348 0.03800
C 	C 	0.37749 0.83397 0.06096 0.07200
C 	C 	0.40357 0.83351 0.03154 -0.04700
C 	C 	0.38927 0.85939 0.99572 0.00700
C 	C 	0.34755 0.88301 0.98815 -0.02800
N 	N 	0.31121 0.85542 0.08310 -0.10400
N 	N 	0.38861 0.81065 0.09694 -0.10500
C 	C 	0.35310 0.50566 0.99984 0.03600
C 	C 	0.31828 0.52511 0.96568 -0.04500
C 	C 	0.34921 0.58948 0.97186 0.01300
C 	C 	0.41575 0.63590 0.01234 -0.05200
C 	C 	0.45139 0.61593 0.04481 0.07600
C 	C 	0.41969 0.55022 0.03856 0.03500
H 	H 	0.26675 0.49098 0.93515 0.06400
H 	H 	0.32094 0.60366 0.94581 0.04900
N 	N 	0.51424 0.65879 0.08832 -0.11100
N 	N 	0.45628 0.53853 0.07676 -0.09400
S 	S 	0.56942 0.92155 0.95552 0.13800
S 	S 	0.34479 0.82267 0.11603 0.12200
S 	S 	0.52472 0.61084 0.11461 0.12100
H 	H 	0.40883 0.85942 0.97244 0.05400
H 	H 	0.33598 0.90104 0.95938 0.07200
N 	N 	0.43353 0.80296 0.50674 -0.13800
C 	C 	0.45653 0.76502 0.49541 0.14500
N 	N 	0.42739 0.70092 0.48565 -0.13400
C 	C 	0.37553 0.67491 0.48748 0.14600
N 	N 	0.35234 0.71275 0.49834 -0.13100
C 	C 	0.38146 0.77691 0.50833 0.14600
C 	C 	0.61177 0.84183 0.47725 0.02300
C 	C 	0.54820 0.79094 0.43282 -0.03400
C 	C 	0.49773 0.76575 0.43899 -0.00200
C 	C 	0.50955 0.79160 0.48958 -0.04000
C 	C 	0.57210 0.84327 0.53362 0.07000
C 	C 	0.62370 0.86840 0.52744 0.03900
H 	H 	0.53790 0.77018 0.39351 0.06500
H 	H 	0.44939 0.72616 0.40430 0.04900
N 	N 	0.58971 0.86758 0.58483 -0.10800
N 	N 	0.68427 0.91363 0.57349 -0.10500
C 	C 	0.27258 0.86704 0.51042 0.02400
C 	C 	0.29058 0.84152 0.54545 0.04400
C 	C 	0.33068 0.81544 0.54769 0.07100
C 	C 	0.35218 0.81548 0.51486 -0.03800
C 	C 	0.33794 0.84616 0.48284 -0.00100
C 	C 	0.29848 0.87156 0.48060 -0.03700
N 	N 	0.26517 0.83152 0.57363 -0.10100
N 	N 	0.33888 0.78408 0.57801 -0.10400
C 	C 	0.27541 0.47443 0.46087 0.02400
C 	C 	0.24255 0.49664 0.42830 -0.03300
C 	C 	0.27586 0.56145 0.43595 -0.00100
C 	C 	0.34294 0.60513 0.47582 -0.03700
C 	C 	0.37650 0.58235 0.50659 0.07100
C 	C 	0.34237 0.51642 0.49911 0.04200
H 	H 	0.19081 0.46438 0.39793 0.06400
H 	H 	0.24914 0.57799 0.41136 0.05300
N 	N 	0.43982 0.62274 0.54964 -0.10600
N 	N 	0.37738 0.50204 0.53586 -0.09700
S 	S 	0.66787 0.91837 0.61761 0.11100
S 	S 	0.29552 0.79177 0.59918 0.13400
S 	S 	0.44759 0.57252 0.57408 0.13700
H 	H 	0.35469 0.84744 0.45757 0.04900
H 	H 	0.28571 0.89203 0.45376 0.07000
Zn	Zn	0.20122 0.15938 0.02498 1.18600
Zn	Zn	0.09155 0.11255 0.91483 1.20500
O 	O 	0.07096 0.99892 0.82054 -0.46500
O 	O 	0.05412 0.08453 0.83668 -0.42600
O 	O 	0.08645 0.92135 0.89833 -0.45700
C 	C 	0.25176 0.12301 0.97005 0.35200
O 	O 	0.03065 0.02228 0.89528 -0.87500
C 	C 	0.20683 0.25432 0.98372 0.36000
O 	O 	0.26748 0.15375 0.01830 -0.46200
O 	O 	0.19063 0.08713 0.92918 -0.37400
O 	O 	0.11423 0.12233 0.98815 -0.75400
O 	O 	0.13753 0.00670 0.98060 -0.44800
O 	O 	0.15914 0.20302 0.93553 -0.43900
O 	O 	0.22505 0.24726 0.02689 -0.44000
Zn	Zn	0.91462 0.92030 0.91689 1.18300
Zn	Zn	0.02388 0.94602 0.01370 1.18600
Zn	Zn	0.05528 0.03104 0.96441 1.21900
C 	C 	0.90037 0.81358 0.94827 0.35700
C 	C 	0.88630 0.96523 0.98808 0.35100
O 	O 	0.97422 0.05987 0.94946 -0.45000
Zn	Zn	0.04072 0.07364 0.05740 1.20600
O 	O 	0.96242 0.85154 0.98871 -0.42400
O 	O 	0.87491 0.82991 0.91122 -0.44600
O 	O 	0.86829 0.94958 0.93892 -0.46900
O 	O 	0.94390 0.97901 0.02377 -0.45500
C 	C 	0.06711 0.01918 0.12895 0.33000
O 	O 	0.99574 0.94028 0.94041 -0.77700
C 	C 	0.97129 0.10218 0.98167 0.37000
O 	O 	0.05720 0.96858 0.09204 -0.42900
O 	O 	0.07588 0.07382 0.12545 -0.44600
O 	O 	0.00344 0.12017 0.03273 -0.48200
O 	O 	0.07841 0.03812 0.03294 -0.89400
Zn	Zn	0.05098 0.96544 0.86543 1.19100
C 	C 	0.05972 0.04224 0.80738 0.32400
C 	C 	0.12990 0.95264 0.95023 0.33900
H 	H 	0.12504 0.05798 0.05994 0.17500
H 	H 	0.98484 0.00796 0.87132 0.17300
Zn	Zn	0.13681 0.13889 0.49981 1.19600
Zn	Zn	0.03209 0.07438 0.38113 1.19900
O 	O 	0.03823 0.96467 0.31019 -0.45700
O 	O 	0.00627 0.03847 0.30502 -0.42700
O 	O 	0.03308 0.88924 0.38652 -0.48800
C 	C 	0.20922 0.10991 0.46681 0.34600
O 	O 	0.97433 0.98441 0.36533 -0.86500
C 	C 	0.13850 0.22079 0.44618 0.34900
O 	O 	0.21450 0.14402 0.50917 -0.42700
O 	O 	0.15153 0.06766 0.42164 -0.32600
O 	O 	0.04914 0.09089 0.45399 -0.76800
O 	O 	0.08128 0.98191 0.46328 -0.42700
O 	O 	0.09685 0.16537 0.39965 -0.42800
O 	O 	0.15241 0.21999 0.49128 -0.44100
Zn	Zn	0.85440 0.88479 0.38810 1.17900
Zn	Zn	0.96364 0.92707 0.49174 1.19300
Zn	Zn	0.99412 0.00072 0.43510 1.22100
C 	C 	0.84914 0.78907 0.43181 0.34600
C 	C 	0.81607 0.93365 0.44928 0.35700
O 	O 	0.90701 0.02216 0.40751 -0.46400
Zn	Zn	0.96867 0.05028 0.51965 1.20700
O 	O 	0.91008 0.83328 0.47314 -0.42900
O 	O 	0.82023 0.79943 0.39143 -0.45500
O 	O 	0.80114 0.91178 0.40072 -0.46800
O 	O 	0.87465 0.95512 0.48942 -0.47500
C 	C 	0.00297 0.01399 0.60340 0.31600
O 	O 	0.93806 0.91110 0.41647 -0.78600
C 	C 	0.90169 0.06767 0.43403 0.35600
O 	O 	0.99300 0.95961 0.57034 -0.40600
O 	O 	0.00390 0.06211 0.59164 -0.45700
O 	O 	0.92782 0.08886 0.48514 -0.45500
O 	O 	0.01303 0.01661 0.50421 -0.89700
Zn	Zn	0.00084 0.92805 0.34537 1.18700
C 	C 	0.02243 0.99893 0.28677 0.29900
C 	C 	0.07669 0.92690 0.43830 0.34000
H 	H 	0.05963 0.04076 0.53351 0.18300
H 	H 	0.92814 0.96633 0.33838 0.15500
C 	C 	0.01802 0.02312 0.65603 -0.08900
C 	C 	0.97487 0.02400 0.66932 0.09500
C 	C 	0.99003 0.03162 0.71939 -0.02200
C 	C 	0.04801 0.03974 0.75692 -0.10000
C 	C 	0.09332 0.04375 0.74511 0.09700
C 	C 	0.07701 0.03336 0.69417 -0.02800
H 	H 	0.95597 0.03021 0.72882 0.05500
H 	H 	0.11111 0.03503 0.68475 0.05600
N 	N 	0.91539 0.01726 0.63231 -0.13700
N 	N 	0.15712 0.06126 0.78516 -0.14200
C 	C 	0.86342 0.94733 0.59505 -0.10100
H 	H 	0.87234 0.92482 0.56650 0.09100
H 	H 	0.81693 0.94409 0.57219 0.07700
H 	H 	0.85870 0.91868 0.61682 0.08000
C 	C 	0.19928 0.13253 0.82338 -0.09000
H 	H 	0.19945 0.16260 0.80223 0.06700
H 	H 	0.24958 0.14514 0.84926 0.06600
H 	H 	0.18384 0.14598 0.84933 0.06500
H 	H 	0.92095 0.04442 0.61221 0.09900
H 	H 	0.15598 0.03234 0.80446 0.11500
C 	C 	0.03471 0.00263 0.24663 -0.08600
C 	C 	0.99348 0.94886 0.19408 0.11900
C 	C 	0.00808 0.95298 0.15739 -0.07000
C 	C 	0.06097 0.01135 0.17127 -0.06100
C 	C 	0.10237 0.06481 0.22378 0.09000
C 	C 	0.08968 0.05940 0.26146 -0.02500
H 	H 	0.97625 0.91187 0.11711 0.10100
H 	H 	0.12259 0.09951 0.30225 0.07500
N 	N 	0.93504 0.89088 0.17678 -0.13600
N 	N 	0.15886 0.12355 0.23935 -0.13500
C 	C 	0.88164 0.90175 0.15942 -0.09700
H 	H 	0.89216 0.94289 0.19299 0.05300
H 	H 	0.83694 0.85563 0.14481 0.05300
H 	H 	0.87247 0.91332 0.12595 0.08200
C 	C 	0.15123 0.18049 0.24797 -0.09800
H 	H 	0.10618 0.16850 0.21222 0.07900
H 	H 	0.19287 0.22315 0.25519 0.06200
H 	H 	0.15011 0.19583 0.28335 0.07900
H 	H 	0.94160 0.87586 0.20596 0.06900
H 	H 	0.19999 0.13447 0.27401 0.09200
C 	C 	0.17161 0.28463 0.44788 -0.11700
C 	C 	0.20921 0.29400 0.42766 0.20800
C 	C 	0.24208 0.35583 0.43134 -0.10100
C 	C 	0.23904 0.40904 0.45609 0.01200
C 	C 	0.20228 0.39999 0.47699 0.13500
C 	C 	0.16850 0.33788 0.47252 -0.01800
H 	H 	0.27088 0.36284 0.41571 0.09000
H 	H 	0.14024 0.33115 0.48865 0.07900
Cl	Cl	0.21880 0.23014 0.40058 -0.34300
Cl	Cl	0.19967 0.46664 0.51028 -0.29600
C 	C 	0.66478 0.86566 0.47071 0.00800
C 	C 	0.68946 0.82606 0.46179 0.13300
C 	C 	0.73789 0.84819 0.45361 -0.02000
C 	C 	0.76346 0.91051 0.45581 -0.12700
C 	C 	0.73969 0.95068 0.46562 0.20300
C 	C 	0.69017 0.92795 0.47267 -0.10100
H 	H 	0.75641 0.81735 0.44637 0.07500
H 	H 	0.67150 0.95871 0.47977 0.09000
Cl	Cl	0.66174 0.74966 0.46260 -0.30200
Cl	Cl	0.77194 0.02979 0.46975 -0.32700
C 	C 	0.22076 0.88032 0.49909 0.01500
C 	C 	0.15559 0.82910 0.45931 0.13600
C 	C 	0.10762 0.84395 0.44386 -0.01800
C 	C 	0.12409 0.91003 0.46693 -0.12200
C 	C 	0.18862 0.95995 0.51140 0.21200
C 	C 	0.23672 0.94506 0.52613 -0.09700
H 	H 	0.05774 0.80445 0.41198 0.07100
H 	H 	0.28659 0.98395 0.55858 0.09200
Cl	Cl	0.13361 0.74633 0.42703 -0.30400
Cl	Cl	0.20936 0.03901 0.55207 -0.35400
C 	C 	0.24493 0.31890 0.98868 -0.11100
C 	C 	0.25114 0.37644 0.01931 0.20300
C 	C 	0.28793 0.43752 0.02378 -0.10900
C 	C 	0.31844 0.44175 0.99771 0.01900
C 	C 	0.31272 0.38436 0.96746 0.13700
C 	C 	0.27592 0.32324 0.96296 -0.01500
H 	H 	0.29202 0.48159 0.04689 0.09200
H 	H 	0.27161 0.27913 0.93962 0.06700
Cl	Cl	0.21079 0.37223 0.05037 -0.32000
Cl	Cl	0.35110 0.38829 0.93477 -0.29000
C 	C 	0.74153 0.90412 0.01792 0.00200
C 	C 	0.72815 0.86613 0.96881 0.15300
C 	C 	0.77502 0.88761 0.95892 -0.01200
C 	C 	0.83622 0.94616 0.99822 -0.10200
C 	C 	0.84995 0.98378 0.04780 0.20000
C 	C 	0.80248 0.96266 0.05727 -0.09300
H 	H 	0.76452 0.85758 0.92120 0.07800
H 	H 	0.81288 0.99200 0.09514 0.08600
Cl	Cl	0.65308 0.79071 0.91962 -0.29400
Cl	Cl	0.92555 0.05837 0.09786 -0.34000
C 	C 	0.17809 0.93489 0.97299 -0.10900
C 	C 	0.15886 0.86781 0.95776 0.20200
C 	C 	0.20560 0.85115 0.97328 -0.08600
C 	C 	0.27159 0.90095 0.00476 0.00200
C 	C 	0.29094 0.96825 0.02268 0.14000
C 	C 	0.24424 0.98494 0.00717 -0.03400
H 	H 	0.19061 0.79937 0.96048 0.09100
H 	H 	0.25943 0.03674 0.02029 0.07300
Cl	Cl	0.07666 0.80452 0.92130 -0.33100
Cl	Cl	0.37354 0.03211 0.06412 -0.29800
C 	C 	0.85555 0.08443 0.40454 -0.12600
C 	C 	0.87403 0.15141 0.42147 0.21300
C 	C 	0.82670 0.16704 0.40380 -0.09900
C 	C 	0.76093 0.11623 0.36907 0.01600
C 	C 	0.74281 0.04931 0.34790 0.14100
C 	C 	0.79025 0.03369 0.36521 -0.00800
H 	H 	0.84092 0.21873 0.41885 0.09500
H 	H 	0.77594 0.98203 0.35037 0.06300
Cl	Cl	0.95636 0.21618 0.46523 -0.32800
Cl	Cl	0.66072 0.98456 0.30136 -0.30500
C 	C 	0.74642 0.59818 0.41745 0.01500
C 	C 	0.74913 0.60295 0.37511 0.13500
C 	C 	0.78307 0.66551 0.38033 -0.01600
C 	C 	0.81490 0.72371 0.42773 -0.11800
C 	C 	0.81184 0.71885 0.47004 0.21200
C 	C 	0.77764 0.65620 0.46465 -0.09800
H 	H 	0.78513 0.66886 0.34762 0.06800
H 	H 	0.77549 0.65261 0.49726 0.09500
Cl	Cl	0.71060 0.53082 0.31542 -0.29800
Cl	Cl	0.84909 0.79059 0.52949 -0.32700
C 	C 	0.36305 0.16692 0.44848 0.01300
C 	C 	0.36166 0.21561 0.48143 0.14200
C 	C 	0.31406 0.19633 0.49078 -0.01100
C 	C 	0.26712 0.12867 0.46695 -0.10300
C 	C 	0.27192 0.07995 0.43771 0.21300
C 	C 	0.31931 0.09926 0.42806 -0.10000
H 	H 	0.31155 0.23410 0.51432 0.08500
H 	H 	0.32171 0.06165 0.40423 0.09000
Cl	Cl	0.41862 0.30098 0.51050 -0.29400
Cl	Cl	0.22057 0.99479 0.41473 -0.33300
C 	C 	0.82892 0.15203 0.92121 0.01300
C 	C 	0.83149 0.12230 0.95423 0.13400
C 	C 	0.87746 0.10520 0.97298 -0.01100
C 	C 	0.92080 0.11682 0.95869 -0.12900
C 	C 	0.91644 0.14390 0.92376 0.21400
C 	C 	0.87041 0.16118 0.90506 -0.10300
H 	H 	0.88023 0.08390 0.99947 0.08500
H 	H 	0.86855 0.18411 0.87965 0.09400
Cl	Cl	0.77897 0.10860 0.97415 -0.29400
Cl	Cl	0.97082 0.16025 0.90571 -0.36200
C 	C 	0.78429 0.62172 0.92530 0.01500
C 	C 	0.80940 0.62804 0.89505 0.13500
C 	C 	0.84732 0.69104 0.90283 -0.01200
C 	C 	0.86074 0.74798 0.94081 -0.11800
C 	C 	0.83465 0.74157 0.97036 0.21700
C 	C 	0.79660 0.67854 0.96249 -0.10300
H 	H 	0.86677 0.69578 0.87961 0.07600
H 	H 	0.77728 0.67380 0.98579 0.09300
Cl	Cl	0.79436 0.55741 0.84778 -0.29300
Cl	Cl	0.84884 0.81195 0.01706 -0.35000
C 	C 	0.39153 0.17474 0.93487 0.01400
C 	C 	0.39228 0.22476 0.96873 0.12900
C 	C 	0.34789 0.20724 0.98157 -0.00600
C 	C 	0.30223 0.14004 0.96064 -0.12400
C 	C 	0.30189 0.08996 0.92714 0.20900
C 	C 	0.34650 0.10755 0.91447 -0.10400
H 	H 	0.34788 0.24596 0.00685 0.06300
H 	H 	0.34621 0.06896 0.88877 0.09200
Cl	Cl	0.44861 0.30961 0.99532 -0.28000
Cl	Cl	0.24673 0.00505 0.90160 -0.32400
