data_crystal

_cell_length_a 42.45377
_cell_length_b 42.03208
_cell_length_c 33.08106
_cell_angle_alpha 89.95561
_cell_angle_beta  89.95521
_cell_angle_gamma 90.57797

_symmetry_space_group_name_	'P 1'
_symmetry_space_group_name_H-M	'P 1'

loop_
_symmetry_equiv_pos_as_xyz
  x,y,z

loop_
_atom_site_label
_atom_site_type_symbol
_atom_site_fract_x
_atom_site_fract_y
_atom_site_fract_z
_atom_site_charge
Zn	Zn	0.48801 0.51257 0.01343 1.22200
C 	C 	0.52712 0.56904 0.01327 0.33900
O 	O 	0.50726 0.48610 0.05519 -0.48000
O 	O 	0.50877 0.57852 0.04279 -0.45700
O 	O 	0.53486 0.52411 0.08813 -0.49300
C 	C 	0.43975 0.55211 0.04324 0.34000
O 	O 	0.45616 0.54514 0.01094 -0.45300
O 	O 	0.45123 0.54657 0.07942 -0.50700
C 	C 	0.53318 0.49543 0.07296 0.33500
O 	O 	0.44577 0.47645 0.01035 -0.32600
Zn	Zn	0.49657 0.54943 0.09044 1.17000
O 	O 	0.52445 0.53994 0.99874 -0.43900
C 	C 	0.45896 0.46544 0.97801 0.28800
O 	O 	0.48431 0.48053 0.96681 -0.38300
Zn	Zn	0.36733 0.15690 0.98751 1.22100
C 	C 	0.39136 0.15806 0.06946 0.34100
O 	O 	0.32219 0.14483 0.99004 -0.46100
O 	O 	0.38059 0.18704 0.07361 -0.45000
O 	O 	0.31778 0.15790 0.05640 -0.49700
C 	C 	0.37877 0.22397 0.98965 0.33800
O 	O 	0.39250 0.19623 0.98697 -0.45100
O 	O 	0.35064 0.22614 0.00559 -0.51200
C 	C 	0.30689 0.14303 0.02453 0.33400
O 	O 	0.36416 0.16195 0.91614 -0.32300
Zn	Zn	0.33732 0.19932 0.05029 1.17200
O 	O 	0.38131 0.13988 0.03983 -0.43600
C 	C 	0.37959 0.13545 0.91566 0.29800
O 	O 	0.38674 0.12396 0.95064 -0.38600
C 	C 	0.54645 0.99018 0.33761 0.14700
C 	C 	0.52993 0.01328 0.31582 -0.11300
H 	H 	0.51709 0.03153 0.33185 0.07400
C 	C 	0.53003 0.01273 0.27347 0.07100
C 	C 	0.54654 0.98900 0.25290 -0.09700
C 	C 	0.56301 0.96586 0.27461 0.07200
C 	C 	0.56302 0.96650 0.31695 -0.11200
H 	H 	0.57582 0.94870 0.33385 0.07400
N 	N 	0.54638 0.99075 0.38106 -0.17900
C 	C 	0.52531 0.97189 0.40183 0.19000
C 	C 	0.52515 0.97180 0.44439 -0.06100
C 	C 	0.54659 0.99141 0.46532 0.03200
C 	C 	0.56789 0.01073 0.44365 -0.06100
C 	C 	0.56748 0.01000 0.40109 0.18900
C 	C 	0.50394 0.95239 0.46626 -0.01300
C 	C 	0.50415 0.95260 0.50854 -0.01300
C 	C 	0.52554 0.97227 0.52966 -0.06000
C 	C 	0.54673 0.99171 0.50799 0.03200
C 	C 	0.56805 0.01146 0.52891 -0.06100
C 	C 	0.58925 0.03042 0.46477 -0.01300
C 	C 	0.58932 0.03080 0.50705 -0.01300
C 	C 	0.52606 0.97287 0.57221 0.19100
N 	N 	0.54686 0.99245 0.59225 -0.17900
C 	C 	0.56771 0.01157 0.57148 0.19000
C 	C 	0.54665 0.99314 0.63570 0.14700
C 	C 	0.52507 0.01234 0.65624 -0.11300
C 	C 	0.52468 0.01282 0.69858 0.07100
C 	C 	0.54600 0.99425 0.72040 -0.09700
C 	C 	0.56763 0.97510 0.69994 0.07200
C 	C 	0.56792 0.97450 0.65760 -0.11200
O 	O 	0.58753 0.02780 0.38039 -0.20100
O 	O 	0.50511 0.95382 0.38183 -0.20100
O 	O 	0.50650 0.95452 0.59291 -0.20000
O 	O 	0.58740 0.03020 0.59148 -0.20100
H 	H 	0.58456 0.95965 0.64165 0.07400
H 	H 	0.50863 0.02669 0.63926 0.07400
H 	H 	0.60583 0.04549 0.44856 0.05000
H 	H 	0.60594 0.04615 0.52267 0.05000
H 	H 	0.48726 0.93710 0.45064 0.04900
H 	H 	0.48763 0.93748 0.52475 0.05000
H 	H 	0.54571 0.99464 0.75320 0.06100
H 	H 	0.54658 0.98854 0.22010 0.06100
Zn	Zn	0.72045 0.82159 0.98882 1.22100
C 	C 	0.69936 0.81853 0.07194 0.34100
O 	O 	0.76617 0.83050 0.99052 -0.46800
O 	O 	0.70823 0.78869 0.07341 -0.44900
O 	O 	0.77295 0.81214 0.05461 -0.49700
C 	C 	0.70142 0.75595 0.98779 0.34000
O 	O 	0.69134 0.78533 0.98730 -0.45400
O 	O 	0.73003 0.74993 0.00017 -0.51000
C 	C 	0.78166 0.83084 0.02487 0.33500
O 	O 	0.72180 0.81904 0.91722 -0.32400
Zn	Zn	0.74872 0.77362 0.04474 1.17100
O 	O 	0.70926 0.83731 0.04275 -0.43800
C 	C 	0.70857 0.84672 0.91877 0.29800
O 	O 	0.70309 0.85750 0.95463 -0.38400
Zn	Zn	0.14575 0.67068 0.99291 1.22100
C 	C 	0.14148 0.65848 0.07882 0.34000
O 	O 	0.13167 0.71466 0.98267 -0.46300
O 	O 	0.16868 0.67297 0.08428 -0.45100
O 	O 	0.13896 0.72997 0.04781 -0.49800
C 	C 	0.21183 0.66360 0.00814 0.34300
O 	O 	0.18502 0.64821 0.00369 -0.45000
O 	O 	0.21202 0.69418 0.01568 -0.51500
C 	C 	0.12591 0.73438 0.01244 0.33400
O 	O 	0.15662 0.66432 0.92298 -0.32400
Zn	Zn	0.18103 0.71288 0.05143 1.17100
O 	O 	0.12534 0.66302 0.04549 -0.43700
C 	C 	0.13137 0.64667 0.92308 0.29800
O 	O 	0.11718 0.64370 0.95743 -0.38600
C 	C 	0.97852 0.49072 0.63875 0.14600
C 	C 	0.99992 0.51004 0.66002 -0.11200
H 	H 	0.01799 0.52321 0.64374 0.07400
C 	C 	0.99792 0.51227 0.70220 0.07300
C 	C 	0.97448 0.49525 0.72309 -0.09800
C 	C 	0.95307 0.47597 0.70188 0.07300
C 	C 	0.95511 0.47367 0.65973 -0.11200
H 	H 	0.93861 0.45874 0.64321 0.07400
N 	N 	0.98048 0.48850 0.59547 -0.18000
C 	C 	0.99999 0.46644 0.57830 0.19200
C 	C 	0.00210 0.46381 0.53596 -0.06200
C 	C 	0.98396 0.48394 0.51155 0.03200
C 	C 	0.96406 0.50636 0.52957 -0.06100
C 	C 	0.96268 0.50837 0.57201 0.19100
C 	C 	0.02203 0.44139 0.51775 -0.01200
C 	C 	0.02385 0.43918 0.47563 -0.01300
C 	C 	0.00577 0.45933 0.45102 -0.06100
C 	C 	0.98576 0.48166 0.46905 0.03100
C 	C 	0.96760 0.50177 0.44464 -0.06000
C 	C 	0.94586 0.52642 0.50497 -0.01300
C 	C 	0.94760 0.52412 0.46285 -0.01300
C 	C 	0.00745 0.45762 0.40857 0.19000
N 	N 	0.98976 0.47760 0.38512 -0.17900
C 	C 	0.96984 0.49928 0.40231 0.19000
C 	C 	0.99249 0.47617 0.34186 0.14600
C 	C 	0.01368 0.49647 0.32166 -0.11300
C 	C 	0.01546 0.49600 0.27940 0.07200
C 	C 	0.99629 0.47501 0.25732 -0.09800
C 	C 	0.97507 0.45473 0.27741 0.07200
C 	C 	0.97322 0.45525 0.31970 -0.11200
O 	O 	0.94422 0.52942 0.58930 -0.20000
O 	O 	0.01679 0.44762 0.60157 -0.20100
O 	O 	0.02623 0.43687 0.39126 -0.20100
O 	O 	0.95283 0.51791 0.37905 -0.20100
H 	H 	0.95661 0.43981 0.33534 0.07400
H 	H 	0.02832 0.51285 0.33884 0.07300
H 	H 	0.93035 0.54381 0.51833 0.05000
H 	H 	0.93341 0.53980 0.44451 0.05000
H 	H 	0.03617 0.42567 0.53609 0.05000
H 	H 	0.03937 0.42179 0.46226 0.05000
H 	H 	0.99749 0.47484 0.22455 0.06100
H 	H 	0.97293 0.49700 0.75576 0.06200
Zn	Zn	0.79428 0.33146 0.98765 1.22000
C 	C 	0.79363 0.34597 0.90248 0.34000
O 	O 	0.75180 0.33861 0.00930 -0.46400
O 	O 	0.78158 0.31766 0.89512 -0.44900
O 	O 	0.72712 0.33442 0.94858 -0.49400
C 	C 	0.80748 0.26824 0.96092 0.34200
O 	O 	0.81902 0.29711 0.96483 -0.45800
O 	O 	0.77703 0.26364 0.95704 -0.51000
C 	C 	0.72815 0.34554 0.98556 0.33000
O 	O 	0.81084 0.31366 0.05218 -0.32400
Zn	Zn	0.74978 0.29605 0.93390 1.17000
O 	O 	0.79228 0.35815 0.93897 -0.44100
C 	C 	0.82527 0.34095 0.05411 0.29800
O 	O 	0.82219 0.35932 0.02306 -0.38200
Zn	Zn	0.00735 0.03198 0.03043 1.22300
C 	C 	0.04020 0.97279 0.02320 0.33100
O 	O 	0.97686 0.02119 0.07306 -0.47500
O 	O 	0.05857 0.98484 0.05138 -0.45400
O 	O 	0.00225 0.98042 0.10297 -0.49700
C 	C 	0.06646 0.05667 0.05724 0.34400
O 	O 	0.05036 0.04782 0.02534 -0.44900
O 	O 	0.05670 0.04838 0.09340 -0.51100
C 	C 	0.97624 0.99267 0.08898 0.33900
O 	O 	0.99265 0.08551 0.03524 -0.32900
Zn	Zn	0.04101 0.00534 0.10322 1.17000
O 	O 	0.01540 0.98853 0.01053 -0.43100
C 	C 	0.97736 0.08069 0.00190 0.29900
O 	O 	0.97911 0.05213 0.98730 -0.38700
C 	C 	0.91367 0.17178 0.01135 -0.07500
C 	C 	0.91042 0.14743 0.97629 0.02700
C 	C 	0.85202 0.16086 0.97207 -0.07400
C 	C 	0.86908 0.19358 0.96832 0.01900
C 	C 	0.88944 0.19881 0.00667 -0.07300
H 	H 	0.90993 0.15966 0.04094 0.04700
H 	H 	0.93790 0.18218 0.01175 0.04800
C 	C 	0.93378 0.12206 0.98183 0.02400
H 	H 	0.83727 0.15638 0.94481 0.04200
H 	H 	0.83594 0.16085 0.99867 0.04200
C 	C 	0.84626 0.21963 0.96447 0.03500
H 	H 	0.87414 0.19957 0.03401 0.04700
H 	H 	0.90212 0.22210 0.00482 0.04800
C 	C 	0.89134 0.19247 0.93106 -0.07500
H 	H 	0.90404 0.21563 0.92763 0.04500
H 	H 	0.87736 0.18861 0.90300 0.04300
C 	C 	0.91566 0.16532 0.93576 -0.07800
H 	H 	0.91328 0.14847 0.90997 0.04500
H 	H 	0.93994 0.17553 0.93458 0.04500
C 	C 	0.87634 0.13371 0.97675 -0.08200
H 	H 	0.87322 0.11627 0.95173 0.04600
H 	H 	0.87185 0.12076 0.00559 0.04900
C 	C 	0.95346 0.10243 0.98927 -0.09300
C 	C 	0.82822 0.24154 0.96244 -0.11500
C 	C 	0.88603 0.42655 0.76531 0.02100
C 	C 	0.88698 0.39326 0.76719 -0.04600
C 	C 	0.86630 0.37664 0.79269 -0.02600
C 	C 	0.84459 0.39324 0.81641 -0.01200
C 	C 	0.84300 0.42646 0.81360 -0.02600
C 	C 	0.86368 0.44309 0.78810 -0.04600
C 	C 	0.90932 0.44383 0.74222 -0.00600
C 	C 	0.92913 0.45841 0.72351 -0.03200
C 	C 	0.82583 0.37649 0.84598 0.05600
C 	C 	0.81075 0.36253 0.87142 -0.11600
H 	H 	0.90416 0.38032 0.74960 0.04500
H 	H 	0.86765 0.35095 0.79469 0.03900
H 	H 	0.82626 0.43946 0.83183 0.04000
H 	H 	0.86277 0.46882 0.78674 0.04500
C 	C 	0.87773 0.37036 0.15055 -0.00600
C 	C 	0.86470 0.39126 0.17886 -0.02800
C 	C 	0.88397 0.40588 0.20782 -0.04500
C 	C 	0.91633 0.39965 0.20859 0.02000
C 	C 	0.92910 0.37767 0.18144 -0.04500
C 	C 	0.90984 0.36305 0.15247 -0.02800
C 	C 	0.85896 0.35906 0.11720 0.04600
C 	C 	0.84347 0.35037 0.08868 -0.09400
C 	C 	0.93687 0.41829 0.23406 -0.00500
C 	C 	0.95420 0.43455 0.25438 -0.03300
H 	H 	0.83988 0.39696 0.17764 0.04100
H 	H 	0.87391 0.42279 0.22877 0.04500
H 	H 	0.95409 0.37267 0.18190 0.04400
H 	H 	0.92006 0.34684 0.13077 0.04100
C 	C 	0.03739 0.85648 0.01542 -0.07300
C 	C 	0.06333 0.88040 0.00156 0.02400
C 	C 	0.10467 0.84277 0.02948 -0.07500
C 	C 	0.08493 0.82171 0.00034 0.02300
C 	C 	0.05011 0.82194 0.01471 -0.07300
H 	H 	0.02938 0.86238 0.04656 0.04000
H 	H 	0.01651 0.85817 0.99523 0.04000
C 	C 	0.05218 0.91342 0.00399 0.03000
H 	H 	0.12982 0.84320 0.01986 0.03700
H 	H 	0.10388 0.83272 0.06064 0.03800
C 	C 	0.09774 0.78926 0.00106 0.03300
H 	H 	0.04815 0.81139 0.04551 0.04200
H 	H 	0.03530 0.80709 0.99418 0.04100
C 	C 	0.08658 0.83669 0.95744 -0.07800
H 	H 	0.07246 0.82211 0.93585 0.04500
H 	H 	0.11134 0.83694 0.94633 0.04200
C 	C 	0.07384 0.87130 0.95816 -0.07900
H 	H 	0.09253 0.88805 0.94742 0.04300
H 	H 	0.05362 0.87328 0.93694 0.04400
C 	C 	0.09205 0.87708 0.03019 -0.07600
H 	H 	0.11119 0.89389 0.02093 0.04100
H 	H 	0.08527 0.88337 0.06171 0.03700
C 	C 	0.04537 0.94072 0.01036 -0.11100
C 	C 	0.10986 0.76361 0.00477 -0.12100
C 	C 	0.09403 0.60270 0.82405 -0.00600
C 	C 	0.10193 0.57110 0.81553 -0.02800
C 	C 	0.08436 0.55361 0.78737 -0.04500
C 	C 	0.05882 0.56765 0.76760 0.01900
C 	C 	0.05188 0.59970 0.77467 -0.04500
C 	C 	0.06945 0.61719 0.80283 -0.02800
C 	C 	0.10834 0.61879 0.85788 0.04600
C 	C 	0.11940 0.63180 0.88715 -0.09400
C 	C 	0.03786 0.54838 0.74345 -0.00500
C 	C 	0.01987 0.53203 0.72418 -0.03300
H 	H 	0.12093 0.55975 0.83175 0.04100
H 	H 	0.08994 0.52888 0.78194 0.04500
H 	H 	0.03225 0.61076 0.75938 0.04500
H 	H 	0.06324 0.64163 0.80918 0.04100
C 	C 	0.10371 0.60046 0.16538 -0.01300
C 	C 	0.08059 0.61201 0.19168 -0.02600
C 	C 	0.06451 0.59112 0.21755 -0.04700
C 	C 	0.07148 0.55860 0.21722 0.02000
C 	C 	0.09535 0.54723 0.19193 -0.04700
C 	C 	0.11143 0.56812 0.16606 -0.02600
C 	C 	0.11762 0.62120 0.13553 0.05500
C 	C 	0.12877 0.63835 0.10993 -0.11700
C 	C 	0.05235 0.53659 0.24010 -0.00600
C 	C 	0.03581 0.51810 0.25845 -0.03300
H 	H 	0.07454 0.63700 0.19138 0.03800
H 	H 	0.04611 0.60009 0.23707 0.04400
H 	H 	0.10089 0.52212 0.19155 0.04400
H 	H 	0.12932 0.55903 0.14587 0.03900
C 	C 	0.91392 0.90246 0.04488 -0.07600
C 	C 	0.90121 0.93302 0.06526 0.02300
C 	C 	0.85028 0.92585 0.02516 -0.07200
C 	C 	0.85445 0.89361 0.04730 0.02200
C 	C 	0.88645 0.87931 0.03432 -0.07500
H 	H 	0.92707 0.90874 0.01680 0.04600
H 	H 	0.93074 0.89032 0.06542 0.04200
C 	C 	0.92746 0.95488 0.07508 0.03500
H 	H 	0.82750 0.93676 0.03400 0.04600
H 	H 	0.84957 0.92203 0.99188 0.04300
C 	C 	0.82837 0.87148 0.03763 0.03400
H 	H 	0.88646 0.87457 0.00121 0.04400
H 	H 	0.89016 0.85614 0.04985 0.04100
C 	C 	0.85554 0.90006 0.09350 -0.07600
H 	H 	0.85862 0.87732 0.11027 0.04200
H 	H 	0.83287 0.91046 0.10374 0.04500
C 	C 	0.88301 0.92322 0.10405 -0.07600
H 	H 	0.87347 0.94468 0.11928 0.04300
H 	H 	0.89922 0.91152 0.12580 0.04200
C 	C 	0.87777 0.94903 0.03573 -0.07700
H 	H 	0.86812 0.97101 0.04959 0.04600
H 	H 	0.89018 0.95628 0.00746 0.04800
C 	C 	0.94943 0.97238 0.08219 -0.11800
C 	C 	0.80706 0.85307 0.03093 -0.11400
C 	C 	0.62842 0.92173 0.76678 0.02000
C 	C 	0.62025 0.89044 0.77748 -0.04500
C 	C 	0.63864 0.87378 0.80529 -0.02800
C 	C 	0.66527 0.88834 0.82251 -0.00600
C 	C 	0.67413 0.91917 0.81059 -0.02800
C 	C 	0.65574 0.93583 0.78278 -0.04500
C 	C 	0.60738 0.94025 0.74226 -0.00500
C 	C 	0.58943 0.95600 0.72255 -0.03200
C 	C 	0.68143 0.87307 0.85541 0.04600
C 	C 	0.69426 0.86076 0.88384 -0.09300
H 	H 	0.59920 0.87934 0.76515 0.04500
H 	H 	0.63165 0.84994 0.81432 0.04100
H 	H 	0.69471 0.93058 0.82374 0.04100
H 	H 	0.66226 0.95998 0.77457 0.04500
C 	C 	0.61158 0.89854 0.21188 0.02000
C 	C 	0.59633 0.88122 0.18131 -0.04700
C 	C 	0.61371 0.86166 0.15558 -0.02600
C 	C 	0.64642 0.85935 0.16033 -0.01300
C 	C 	0.66145 0.87560 0.19201 -0.02600
C 	C 	0.64407 0.89516 0.21773 -0.04700
C 	C 	0.59445 0.92177 0.23482 -0.00600
C 	C 	0.58013 0.94167 0.25332 -0.03200
C 	C 	0.66491 0.84356 0.13000 0.05500
C 	C 	0.68055 0.83145 0.10388 -0.11600
H 	H 	0.57119 0.88361 0.17670 0.04400
H 	H 	0.60191 0.84916 0.13119 0.03900
H 	H 	0.68673 0.87392 0.19590 0.03800
H 	H 	0.65601 0.90838 0.24140 0.04500
C 	C 	0.19322 0.13733 0.02844 -0.07000
C 	C 	0.21611 0.10896 0.03300 0.01900
C 	C 	0.17660 0.08281 0.08104 -0.07500
C 	C 	0.15716 0.08973 0.04238 0.02100
C 	C 	0.15857 0.12602 0.03397 -0.07700
H 	H 	0.19883 0.15598 0.05129 0.03600
H 	H 	0.19608 0.14844 0.99808 0.03800
C 	C 	0.24897 0.11996 0.02823 0.03300
H 	H 	0.17608 0.05685 0.08781 0.03800
H 	H 	0.16607 0.09517 0.10749 0.03900
C 	C 	0.12433 0.07884 0.04774 0.03400
H 	H 	0.14767 0.13925 0.05946 0.04300
H 	H 	0.14489 0.13171 0.00623 0.04600
C 	C 	0.17277 0.07225 0.00630 -0.07300
H 	H 	0.15938 0.07687 0.97800 0.04300
H 	H 	0.17218 0.04608 0.01152 0.04300
C 	C 	0.20744 0.08356 0.00078 -0.07200
H 	H 	0.22340 0.06281 0.00342 0.04400
H 	H 	0.21061 0.09361 0.96988 0.04200
C 	C 	0.21123 0.09409 0.07553 -0.07500
H 	H 	0.22724 0.07353 0.07966 0.04300
H 	H 	0.21722 0.11184 0.09937 0.04000
C 	C 	0.27563 0.12986 0.02568 -0.12300
C 	C 	0.09771 0.06925 0.05220 -0.12000
C 	C 	0.46189 0.06666 0.76158 0.01900
C 	C 	0.47076 0.09697 0.77537 -0.04500
C 	C 	0.45161 0.11314 0.80279 -0.02800
C 	C 	0.42350 0.09905 0.81655 -0.00600
C 	C 	0.41388 0.06944 0.80120 -0.02800
C 	C 	0.43304 0.05327 0.77377 -0.04500
C 	C 	0.48370 0.04806 0.73833 -0.00600
C 	C 	0.50225 0.03216 0.71978 -0.03300
C 	C 	0.40693 0.11280 0.85018 0.04600
C 	C 	0.39391 0.12359 0.87946 -0.09400
H 	H 	0.49296 0.10755 0.76593 0.04400
H 	H 	0.45919 0.13605 0.81446 0.04100
H 	H 	0.39217 0.05840 0.81163 0.04100
H 	H 	0.42594 0.02991 0.76309 0.04500
C 	C 	0.48153 0.07821 0.20748 0.02100
C 	C 	0.49600 0.09263 0.17395 -0.04600
C 	C 	0.47842 0.11175 0.14792 -0.02600
C 	C 	0.44631 0.11656 0.15532 -0.01300
C 	C 	0.43212 0.10309 0.18967 -0.02600
C 	C 	0.44970 0.08396 0.21570 -0.04700
C 	C 	0.49864 0.05564 0.23152 -0.00700
C 	C 	0.51293 0.03629 0.25099 -0.03300
C 	C 	0.42726 0.13241 0.12560 0.05500
C 	C 	0.41105 0.14472 0.10022 -0.11600
H 	H 	0.52063 0.08837 0.16747 0.04400
H 	H 	0.48956 0.12208 0.12144 0.04000
H 	H 	0.40731 0.10671 0.19561 0.03700
H 	H 	0.43837 0.07298 0.24163 0.04400
C 	C 	0.45965 0.35211 0.99200 -0.08100
C 	C 	0.43770 0.37127 0.96365 0.03000
C 	C 	0.42701 0.32015 0.92407 -0.07500
C 	C 	0.41879 0.31133 0.96850 0.02200
C 	C 	0.44853 0.31690 0.99486 -0.07800
H 	H 	0.48429 0.35311 0.98048 0.04400
H 	H 	0.45981 0.36279 0.02280 0.04800
C 	C 	0.44748 0.40500 0.96284 0.01900
H 	H 	0.40603 0.31645 0.90439 0.04500
H 	H 	0.44590 0.30435 0.91259 0.04400
C 	C 	0.40727 0.27830 0.97264 0.03200
H 	H 	0.46783 0.30105 0.98467 0.04300
H 	H 	0.44337 0.31086 0.02698 0.04500
C 	C 	0.39261 0.33399 0.98338 -0.07700
H 	H 	0.38621 0.32839 0.01529 0.04200
H 	H 	0.37092 0.33063 0.96489 0.04200
C 	C 	0.40366 0.36904 0.98053 -0.08200
H 	H 	0.38727 0.38241 0.96065 0.04500
H 	H 	0.40251 0.38010 0.01108 0.04900
C 	C 	0.43818 0.35554 0.92120 -0.07900
H 	H 	0.42252 0.36872 0.90019 0.04500
H 	H 	0.46241 0.35666 0.90838 0.04500
C 	C 	0.45366 0.43285 0.96705 -0.08800
C 	C 	0.39549 0.25258 0.97905 -0.11600
C 	C 	0.30167 0.59140 0.98716 -0.07800
C 	C 	0.29649 0.61786 0.01908 0.02300
C 	C 	0.33167 0.58724 0.06770 -0.07600
C 	C 	0.35213 0.59145 0.02915 0.02400
C 	C 	0.33440 0.57586 0.99308 -0.07800
H 	H 	0.28287 0.57285 0.98983 0.04500
H 	H 	0.30015 0.60156 0.95614 0.04500
C 	C 	0.26559 0.63299 0.01378 0.03400
H 	H 	0.34372 0.59833 0.09413 0.04000
H 	H 	0.32845 0.56149 0.07466 0.04400
C 	C 	0.38329 0.57693 0.03473 0.03300
H 	H 	0.33122 0.54988 0.99855 0.04500
H 	H 	0.34849 0.57859 0.96487 0.04600
C 	C 	0.35589 0.62756 0.02041 -0.07300
H 	H 	0.37042 0.63135 0.99275 0.04200
H 	H 	0.36843 0.63948 0.04588 0.04000
C 	C 	0.32323 0.64307 0.01449 -0.07300
H 	H 	0.32020 0.66239 0.03713 0.03900
H 	H 	0.32217 0.65426 0.98401 0.04000
C 	C 	0.29897 0.60276 0.06178 -0.07600
H 	H 	0.29543 0.62123 0.08541 0.04000
H 	H 	0.28014 0.58442 0.06593 0.04500
C 	C 	0.24075 0.64638 0.01049 -0.11700
C 	C 	0.40898 0.56546 0.03896 -0.11400
C 	C 	0.62486 0.39039 0.00909 -0.07200
C 	C 	0.65683 0.40355 0.02479 0.01900
C 	C 	0.63424 0.45952 0.02146 -0.07300
C 	C 	0.61024 0.44063 0.04780 0.02100
C 	C 	0.59753 0.41213 0.02259 -0.07300
H 	H 	0.62520 0.38884 0.97549 0.04000
H 	H 	0.62069 0.36587 0.02085 0.04000
C 	C 	0.68267 0.38279 0.01151 0.03900
H 	H 	0.64394 0.48007 0.03883 0.04400
H 	H 	0.62231 0.46935 0.99428 0.04300
C 	C 	0.58385 0.46113 0.05982 0.03500
H 	H 	0.58483 0.42092 0.99541 0.04400
H 	H 	0.58030 0.39798 0.04077 0.04400
C 	C 	0.62782 0.42730 0.08518 -0.07600
H 	H 	0.61119 0.41350 0.10463 0.04200
H 	H 	0.63738 0.44723 0.10378 0.04200
C 	C 	0.65524 0.40548 0.07163 -0.07500
H 	H 	0.67789 0.41498 0.08381 0.04500
H 	H 	0.65169 0.38127 0.08465 0.04300
C 	C 	0.66160 0.43774 0.00794 -0.07200
H 	H 	0.68438 0.44789 0.01884 0.04500
H 	H 	0.66271 0.43718 0.97431 0.04200
C 	C 	0.70350 0.36575 0.99991 -0.12100
C 	C 	0.56125 0.47725 0.06731 -0.11700
C 	C 	0.62864 0.62366 0.00182 -0.06400
C 	C 	0.59571 0.63517 0.98816 0.01400
C 	C 	0.61044 0.69085 0.01279 -0.07500
C 	C 	0.63745 0.68207 0.98342 0.02200
C 	C 	0.65316 0.65122 0.99904 -0.08500
H 	H 	0.62754 0.61473 0.03350 0.03900
H 	H 	0.63636 0.60351 0.98249 0.03900
C 	C 	0.57206 0.60945 0.99236 0.03400
H 	H 	0.59856 0.71285 0.00226 0.04700
H 	H 	0.62007 0.69589 0.04346 0.04300
C 	C 	0.66060 0.70843 0.98197 0.03200
H 	H 	0.66373 0.65540 0.02940 0.04300
H 	H 	0.67263 0.64424 0.97840 0.04300
C 	C 	0.62294 0.67510 0.94121 -0.07700
H 	H 	0.64182 0.66860 0.91946 0.04500
H 	H 	0.61134 0.69680 0.92924 0.04600
C 	C 	0.59833 0.64745 0.94401 -0.07400
H 	H 	0.57501 0.65596 0.93339 0.04400
H 	H 	0.60547 0.62774 0.92361 0.04400
C 	C 	0.58600 0.66339 0.01558 -0.07000
H 	H 	0.56244 0.67231 0.00640 0.04300
H 	H 	0.58399 0.65538 0.04759 0.03900
C 	C 	0.55188 0.58991 0.99973 -0.11800
C 	C 	0.67930 0.73018 0.98338 -0.11700
