data_crystal

_cell_length_a 19.50688
_cell_length_b 17.39377
_cell_length_c 46.53130
_cell_angle_alpha 89.61836
_cell_angle_beta  89.62154
_cell_angle_gamma 119.40206

_symmetry_space_group_name_	'P 1'
_symmetry_space_group_name_H-M	'P 1'

loop_
_symmetry_equiv_pos_as_xyz
  x,y,z

loop_
_atom_site_label
_atom_site_type_symbol
_atom_site_fract_x
_atom_site_fract_y
_atom_site_fract_z
_atom_site_charge
O 	O 	0.05839 0.89806 0.70962 -0.35700
H 	H 	0.05182 0.15232 0.35785 0.05300
H 	H 	0.03137 0.38381 0.43728 0.06400
O 	O 	0.07782 0.94033 0.77207 -0.35300
O 	O 	0.09037 0.07475 0.73070 -0.71500
Ni	Ni	0.13833 0.00398 0.73348 1.10900
Ni	Ni	0.13636 0.17860 0.70690 1.12200
O 	O 	0.12179 0.24449 0.73965 -0.37900
O 	O 	0.14160 0.11217 0.67216 -0.37400
H 	H 	0.10739 0.10307 0.74953 0.15100
C 	C 	0.04524 0.15209 0.16629 0.30500
C 	C 	0.08378 0.22569 0.24752 0.28500
C 	C 	0.04746 0.91127 0.19145 0.32100
C 	C 	0.09382 0.00028 0.27042 0.25100
Ni	Ni	0.10317 0.08986 0.21541 1.11900
O 	O 	0.01243 0.17862 0.18565 -0.36700
O 	O 	0.07882 0.10539 0.17390 -0.37900
O 	O 	0.03777 0.92641 0.25878 -0.35900
C 	C 	0.02221 0.29977 0.04953 0.01800
C 	C 	0.01108 0.22627 0.09477 0.02900
C 	C 	0.05194 0.18309 0.13629 -0.07500
C 	C 	0.01227 0.22549 0.12527 -0.01200
C 	C 	0.00799 0.71410 0.14391 0.01600
S 	S 	0.00495 0.80772 0.14379 0.04500
C 	C 	0.06273 0.85567 0.17201 -0.07600
C 	C 	0.11334 0.19272 0.35194 -0.05100
C 	C 	0.13631 0.21185 0.32304 0.02000
S 	S 	0.14851 0.25879 0.40525 0.05000
C 	C 	0.11901 0.24904 0.27609 -0.07300
C 	C 	0.08264 0.19821 0.30072 -0.02100
S 	S 	0.20868 0.06039 0.31245 0.01800
C 	C 	0.11756 0.99828 0.30015 -0.03400
C 	C 	0.04861 0.49906 0.46038 -0.08500
N 	N 	0.05637 0.62561 0.48670 -0.02400
O 	O 	0.09107 0.69131 0.46863 -0.07900
O 	O 	0.05739 0.64085 0.51407 -0.08900
C 	C 	0.05949 0.61923 0.98425 -0.08700
C 	C 	0.03827 0.62255 0.95548 0.11200
H 	H 	0.02393 0.54590 0.02416 0.05900
H 	H 	0.05901 0.95601 0.84458 0.06100
O 	O 	0.13653 0.07239 0.25458 -0.37200
C 	C 	0.17656 0.06395 0.67195 0.30000
O 	O 	0.23192 0.10728 0.75432 -0.36700
O 	O 	0.20539 0.04996 0.69573 -0.36900
C 	C 	0.13484 0.54615 0.45586 0.32300
O 	O 	0.18811 0.45750 0.41655 -0.37800
O 	O 	0.17910 0.52689 0.47243 -0.35400
O 	O 	0.16551 0.60116 0.43406 -0.37500
C 	C 	0.14080 0.67818 0.99364 0.32200
O 	O 	0.15662 0.69444 0.02111 -0.38300
O 	O 	0.10688 0.98040 0.20321 -0.37200
O 	O 	0.12288 0.21299 0.22625 -0.36600
C 	C 	0.04758 0.18209 0.08221 -0.00400
C 	C 	0.08058 0.20458 0.05451 -0.04500
C 	C 	0.06615 0.26293 0.03790 0.01800
S 	S 	0.08216 0.14576 0.10864 0.04000
S 	S 	0.04796 0.39280 0.03157 0.05800
C 	C 	0.11239 0.39056 0.00823 -0.07100
C 	C 	0.11548 0.31286 0.01443 -0.01200
H 	H 	0.12078 0.18274 0.04693 0.05600
C 	C 	0.03372 0.61003 0.11903 0.04000
C 	C 	0.05637 0.58651 0.09293 -0.02400
C 	C 	0.08730 0.79716 0.18231 -0.01200
H 	H 	0.04011 0.60098 0.07221 0.05300
C 	C 	0.17010 0.23581 0.37302 -0.00100
C 	C 	0.21482 0.27179 0.31553 0.00200
C 	C 	0.19483 0.01136 0.34445 -0.00800
C 	C 	0.07328 0.93326 0.32070 -0.03300
H 	H 	0.01553 0.87783 0.31661 0.05400
N 	N 	0.08420 0.69920 0.93789 -0.02100
O 	O 	0.10614 0.69083 0.91218 -0.09900
O 	O 	0.09937 0.77667 0.94680 -0.08700
C 	C 	0.26630 0.18963 0.74438 0.28800
O 	O 	0.24739 0.20847 0.71895 -0.37000
C 	C 	0.23184 0.42457 0.42669 0.28600
Ni	Ni	0.23295 0.58603 0.40386 1.12100
O 	O 	0.22938 0.68829 0.07292 -0.37600
O 	O 	0.19830 0.70287 0.97499 -0.37000
H 	H 	0.16193 0.30182 0.00613 0.06000
C 	C 	0.07613 0.60667 0.14296 -0.00700
C 	C 	0.05732 0.71817 0.16629 0.01200
H 	H 	0.12322 0.80966 0.20122 0.04800
C 	C 	0.26898 0.32274 0.33651 -0.05200
C 	C 	0.24614 0.30377 0.36557 0.02300
C 	C 	0.23241 0.35147 0.41162 -0.07000
S 	S 	0.21579 0.30661 0.28197 0.03400
C 	C 	0.25462 0.00945 0.36038 -0.06700
C 	C 	0.11699 0.94074 0.34580 0.04000
H 	H 	0.31596 0.05528 0.35561 0.05500
C 	C 	0.21286 0.02946 0.59142 0.00000
C 	C 	0.26011 0.00778 0.60864 0.01900
S 	S 	0.15546 0.04871 0.61325 0.03900
C 	C 	0.18487 0.02748 0.64454 -0.07600
C 	C 	0.24465 0.00710 0.63859 -0.01800
H 	H 	0.28323 0.00547 0.65494 0.04800
C 	C 	0.01169 0.53739 0.47635 0.11800
O 	O 	0.27139 0.45358 0.45100 -0.35900
O 	O 	0.25941 0.70572 0.38835 -0.38000
C 	C 	0.18423 0.47238 0.00014 0.30500
O 	O 	0.18016 0.53393 0.98468 -0.37000
C 	C 	0.09196 0.66418 0.16607 -0.04300
C 	C 	0.11881 0.56880 0.09594 -0.07200
C 	C 	0.28141 0.36770 0.38746 -0.01900
C 	C 	0.09626 0.87116 0.36545 -0.05100
C 	C 	0.23993 0.07114 0.56461 -0.04700
H 	H 	0.21102 0.10290 0.55397 0.05500
O 	O 	0.37143 0.99482 0.03464 -0.09800
Ni	Ni	0.30094 0.57743 0.46748 1.11500
C 	C 	0.18210 0.60285 0.07451 0.30400
Ni	Ni	0.26863 0.75479 0.03519 1.12600
C 	C 	0.23318 0.94192 0.38096 0.04200
H 	H 	0.03893 0.81245 0.36477 0.05600
H 	H 	0.34942 0.95240 0.38721 0.05800
O 	O 	0.26150 0.82170 0.49415 -0.07100
C 	C 	0.30990 0.07861 0.55336 0.02200
C 	C 	0.33074 0.01683 0.59761 -0.05000
O 	O 	0.48418 0.99662 0.04553 -0.09200
O 	O 	0.04286 0.17930 0.68840 -0.37000
O 	O 	0.29580 0.57324 0.37131 -0.37800
Ni	Ni	0.27456 0.65775 0.97772 1.12400
O 	O 	0.25034 0.48863 0.01197 -0.36400
O 	O 	0.30980 0.84252 0.00184 -0.34400
S 	S 	0.14056 0.57827 0.13084 0.04000
H 	H 	0.13592 0.67291 0.18178 0.05000
H 	H 	0.32426 0.38017 0.33044 0.05300
H 	H 	0.33337 0.43114 0.38350 0.04200
C 	C 	0.15391 0.87625 0.38434 0.00100
C 	C 	0.28690 0.91644 0.39201 -0.01300
N 	N 	0.43464 0.99344 0.02638 -0.01100
C 	C 	0.34127 0.25368 0.75691 -0.06600
H 	H 	0.30660 0.33740 0.78087 0.04700
H 	H 	0.37111 0.00830 0.61141 0.05100
C 	C 	0.35176 0.04623 0.56914 0.00500
O 	O 	0.32499 0.69725 0.48618 -0.34800
O 	O 	0.31858 0.62068 0.42935 -0.71000
H 	H 	0.33861 0.58345 0.42122 0.14100
O 	O 	0.20134 0.54863 0.06202 -0.37100
O 	O 	0.29966 0.67825 0.01743 -0.71900
C 	C 	0.28640 0.77550 0.40487 0.30800
S 	S 	0.15248 0.78894 0.39956 0.06300
C 	C 	0.24932 0.83102 0.40392 -0.05700
N 	N 	0.32440 0.88880 0.48348 -0.02400
O 	O 	0.31770 0.93815 0.46381 -0.08800
C 	C 	0.35694 0.14327 0.53226 -0.00900
H 	H 	0.33821 0.18571 0.52188 0.05300
O 	O 	0.32618 0.38039 0.02373 -0.11100
C 	C 	0.35339 0.33053 0.77069 -0.02100
C 	C 	0.36718 0.85162 0.98415 0.28600
O 	O 	0.36051 0.78302 0.96918 -0.36300
C 	C 	0.36985 0.63438 0.36591 0.28700
Ni	Ni	0.30720 0.59298 0.03971 1.11900
O 	O 	0.37525 0.81440 0.05424 -0.35000
H 	H 	0.35632 0.71990 0.01522 0.15700
S 	S 	0.42813 0.27038 0.74465 0.03600
O 	O 	0.35158 0.80153 0.41956 -0.36600
H 	H 	0.00697 0.06090 0.24873 0.15300
C 	C 	0.45901 0.01098 0.99693 0.06600
C 	C 	0.05293 0.21446 0.75321 0.29500
H 	H 	0.01997 0.15297 0.30251 0.04500
C 	C 	0.39203 0.77034 0.48115 0.31600
O 	O 	0.42027 0.61360 0.47118 -0.35200
O 	O 	0.34707 0.60640 0.96973 -0.36600
C 	C 	0.40031 0.91157 0.49471 0.11400
S 	S 	0.44387 0.09927 0.55741 0.03500
N 	N 	0.39257 0.45149 0.01818 -0.02200
O 	O 	0.00766 0.19895 0.24507 -0.35900
Ni	Ni	0.40889 0.73171 0.42085 1.12500
O 	O 	0.40063 0.71302 0.37793 -0.37600
C 	C 	0.39871 0.60048 0.98697 0.30400
C 	C 	0.40480 0.77209 0.06915 0.29000
S 	S 	0.42065 0.67738 0.31085 0.03900
C 	C 	0.41234 0.62360 0.34172 -0.07100
C 	C 	0.43559 0.16166 0.53168 -0.07500
C 	C 	0.43104 0.94199 0.97660 -0.04600
C 	C 	0.42147 0.47179 0.98921 0.09800
H 	H 	0.42210 0.34956 0.98423 0.07200
C 	C 	0.43410 0.39627 0.77158 0.02200
C 	C 	0.41987 0.84550 0.50070 -0.07200
O 	O 	0.47315 0.32450 0.44636 -0.10200
C 	C 	0.43448 0.41122 0.97391 -0.02700
O 	O 	0.44109 0.77225 0.46152 -0.36300
O 	O 	0.40546 0.62234 0.01450 -0.35500
O 	O 	0.36701 0.68455 0.07207 -0.36100
H 	H 	0.41868 0.74987 0.12807 0.05200
H 	H 	0.44477 0.05135 0.49032 0.07500
H 	H 	0.47361 0.48375 0.42661 0.05700
C 	C 	0.43759 0.55237 0.97612 -0.07200
O 	O 	0.43820 0.49569 0.03923 -0.11000
O 	O 	0.45500 0.46453 0.88495 -0.09900
C 	C 	0.48386 0.37198 0.75699 -0.00000
H 	H 	0.42531 0.47404 0.80602 0.05900
C 	C 	0.46840 0.62269 0.44939 0.29600
C 	C 	0.45751 0.00053 0.49764 -0.04500
C 	C 	0.47167 0.43363 0.94683 -0.06900
C 	C 	0.47015 0.57237 0.94825 -0.02300
C 	C 	0.47052 0.82355 0.08813 -0.05900
C 	C 	0.48339 0.51151 0.93302 0.09200
H 	H 	0.47904 0.63216 0.93752 0.06900
C 	C 	0.46444 0.46132 0.79274 -0.04800
O 	O 	0.47450 0.67099 0.42613 -0.36500
C 	C 	0.47107 0.79868 0.11682 -0.01700
C 	C 	0.46276 0.96048 0.94861 -0.01200
H 	H 	0.44414 0.90799 0.93308 0.07500
C 	C 	0.50054 0.25061 0.52574 0.29000
N 	N 	0.50067 0.52477 0.90288 -0.02100
C 	C 	0.51884 0.39232 0.93831 0.29400
O 	O 	0.52207 0.37148 0.91101 -0.35200
C 	C 	0.48606 0.62990 0.34647 -0.02600
C 	C 	0.48818 0.86780 0.51650 -0.02500
C 	C 	0.51741 0.51694 0.44302 -0.02800
C 	C 	0.51284 0.09756 0.98835 -0.01500
H 	H 	0.53103 0.15059 0.00367 0.06500
N 	N 	0.54307 0.39270 0.44354 -0.02500
C 	C 	0.04199 0.27324 0.77241 -0.06300
O 	O 	0.52664 0.30763 0.54665 -0.36500
O 	O 	0.52910 0.27489 0.49939 -0.35700
H 	H 	0.50161 0.61437 0.36719 0.04700
H 	H 	0.50127 0.81643 0.52295 0.08000
C 	C 	0.52853 0.59670 0.45426 -0.07200
C 	C 	0.51459 0.71261 0.30324 -0.00300
O 	O 	0.53729 0.23011 0.93120 -0.36300
O 	O 	0.54971 0.36678 0.95892 -0.36700
C 	C 	0.53205 0.02409 0.50896 -0.08200
C 	C 	0.55823 0.47628 0.45438 0.09600
O 	O 	0.55156 0.60270 0.89318 -0.11600
C 	C 	0.56214 0.40512 0.76520 -0.05000
C 	C 	0.51758 0.04701 0.94032 0.08500
H 	H 	0.53927 0.81832 0.27281 0.05000
C 	C 	0.53965 0.11664 0.95986 -0.07200
H 	H 	0.51905 0.75397 0.16721 0.05000
C 	C 	0.54532 0.95667 0.52013 0.12000
C 	C 	0.54475 0.50043 0.79915 -0.00000
H 	H 	0.59577 0.37490 0.75745 0.04800
C 	C 	0.54790 0.82791 0.12712 0.02200
S 	S 	0.56365 0.87792 0.07622 0.05500
C 	C 	0.54412 0.68215 0.32554 0.02400
O 	O 	0.59511 0.38792 0.42716 -0.11100
O 	O 	0.50939 0.05307 0.88979 -0.10600
Ni	Ni	0.59002 0.31781 0.89853 1.12500
C 	C 	0.57652 0.20858 0.94931 0.31500
C 	C 	0.56295 0.79325 0.28907 -0.04900
C 	C 	0.59247 0.46954 0.78663 0.01800
S 	S 	0.57909 0.53451 0.83182 0.05900
H 	H 	0.04394 0.20884 0.81258 0.04400
O 	O 	0.59058 0.16692 0.48618 -0.37500
C 	C 	0.58733 0.64106 0.47489 0.10100
C 	C 	0.56375 0.78975 0.15092 -0.05200
C 	C 	0.59580 0.11825 0.50668 0.30800
C 	C 	0.61091 0.51605 0.47730 -0.07000
H 	H 	0.60160 0.07003 0.60844 0.05800
N 	N 	0.55233 0.06363 0.91226 -0.02000
O 	O 	0.62279 0.38567 0.86070 -0.37600
C 	C 	0.60692 0.87628 0.10662 -0.00000
N 	N 	0.60328 0.72568 0.48519 -0.02000
O 	O 	0.60646 0.74011 0.51268 -0.09100
C 	C 	0.62740 0.12074 0.62457 -0.02800
O 	O 	0.63793 0.27056 0.96274 -0.35500
C 	C 	0.62816 0.60050 0.48630 -0.02500
C 	C 	0.62845 0.23947 0.59321 0.30500
N 	N 	0.61764 0.97737 0.53380 -0.01800
O 	O 	0.61806 0.78946 0.46710 -0.08200
C 	C 	0.63197 0.20360 0.62150 -0.07300
C 	C 	0.00348 0.41306 0.44998 -0.01100
C 	C 	0.63941 0.46541 0.49432 0.30600
Ni	Ni	0.63911 0.29807 0.48812 1.12400
O 	O 	0.63067 0.19850 0.57010 -0.38800
O 	O 	0.64643 0.47687 0.52248 -0.36100
O 	O 	0.62738 0.99890 0.56077 -0.10100
Ni	Ni	0.64576 0.38664 0.55279 1.11400
O 	O 	0.63934 0.32020 0.59133 -0.36700
C 	C 	0.62466 0.72828 0.33205 -0.05400
O 	O 	0.64658 0.25081 0.88873 -0.36300
C 	C 	0.65349 0.51294 0.83199 -0.07500
C 	C 	0.65477 0.47944 0.80470 -0.01400
C 	C 	0.00822 0.54884 0.00209 -0.00500
C 	C 	0.01937 0.94654 0.78519 0.32700
H 	H 	0.66018 0.45448 0.91594 0.14800
C 	C 	0.66700 0.47270 0.85749 0.29400
C 	C 	0.63831 0.79732 0.15280 0.00100
C 	C 	0.64184 0.84189 0.29722 0.01800
C 	C 	0.67489 0.11743 0.64702 0.03000
O 	O 	0.66401 0.14421 0.51904 -0.35800
H 	H 	0.64859 0.70460 0.34866 0.05500
H 	H 	0.67687 0.99917 0.63373 0.07700
O 	O 	0.67329 0.42634 0.48090 -0.36600
Ni	Ni	0.66836 0.40359 0.96018 1.11600
O 	O 	0.67362 0.40775 0.91962 -0.71200
O 	O 	0.67797 0.32633 0.52644 -0.71000
H 	H 	0.68806 0.44583 0.80042 0.04500
O 	O 	0.67006 0.96534 0.52023 -0.07000
H 	H 	0.67146 0.63351 0.50286 0.07400
S 	S 	0.69292 0.26856 0.64680 0.03100
O 	O 	0.62413 0.07861 0.90902 -0.09600
C 	C 	0.67104 0.81057 0.31893 0.00400
S 	S 	0.68129 0.79972 0.18363 0.03500
C 	C 	0.68129 0.88340 0.10831 -0.04800
C 	C 	0.70266 0.05664 0.64738 -0.07700
C 	C 	0.02595 0.25126 0.80170 -0.01200
H 	H 	0.69005 0.93380 0.26033 0.05100
H 	H 	0.69592 0.63355 0.89609 0.05800
C 	C 	0.71427 0.28632 0.87475 0.31200
C 	C 	0.69792 0.84729 0.13252 0.01900
C 	C 	0.71505 0.19720 0.66209 -0.00700
H 	H 	0.72715 0.28511 0.81577 0.04800
C 	C 	0.70163 0.91081 0.28046 -0.01400
O 	O 	0.70866 0.54007 0.95783 -0.35500
Ni	Ni	0.72038 0.25679 0.54162 1.12100
C 	C 	0.73351 0.23016 0.85733 -0.06400
H 	H 	0.72769 0.37897 0.52089 0.13900
H 	H 	0.72600 0.91960 0.09207 0.05500
O 	O 	0.73355 0.51845 0.87194 -0.38100
C 	C 	0.99930 0.28703 0.07858 -0.06700
O 	O 	0.99698 0.04133 0.22869 -0.72800
C 	C 	0.99921 0.66431 0.11941 -0.07700
H 	H 	0.99630 0.90156 0.89768 0.05900
H 	H 	0.98830 0.25773 0.13855 0.04100
H 	H 	0.97885 0.32807 0.08876 0.05800
O 	O 	0.97459 0.88458 0.19951 -0.39900
H 	H 	0.97298 0.67385 0.10021 0.05800
C 	C 	0.96964 0.55241 0.94443 -0.03600
H 	H 	0.95335 0.55612 0.92245 0.05100
C 	C 	0.76697 0.59271 0.93995 0.28900
C 	C 	0.83422 0.43327 0.95443 0.32200
Ni	Ni	0.77291 0.46190 0.90071 1.12200
O 	O 	0.81297 0.56597 0.92787 -0.37800
O 	O 	0.78261 0.43824 0.97144 -0.35400
O 	O 	0.81536 0.40462 0.92799 -0.38000
O 	O 	0.75616 0.37215 0.87076 -0.38800
C 	C 	0.81128 0.43727 0.56967 0.28900
C 	C 	0.80960 0.34220 0.48773 0.28400
O 	O 	0.76349 0.46750 0.56193 -0.36700
O 	O 	0.78646 0.35098 0.57131 -0.37300
O 	O 	0.80965 0.30457 0.51271 -0.36300
O 	O 	0.74386 0.31458 0.47244 -0.34500
C 	C 	0.98327 0.87313 0.70890 0.29700
C 	C 	0.97543 0.10836 0.68278 0.30200
Ni	Ni	0.98055 0.02428 0.73580 1.11600
O 	O 	0.95836 0.03213 0.69434 -0.39800
O 	O 	0.95074 0.89639 0.72931 -0.37700
O 	O 	0.98853 0.14276 0.74440 -0.38800
O 	O 	0.99845 0.00517 0.77722 -0.40900
C 	C 	0.84633 0.97223 0.26984 0.30800
C 	C 	0.83648 0.91792 0.19238 0.32300
Ni	Ni	0.93799 0.09576 0.21792 1.11100
Ni	Ni	0.94492 0.91879 0.23656 1.12100
O 	O 	0.84843 0.02632 0.24887 -0.38000
O 	O 	0.89936 0.94571 0.27169 -0.38700
O 	O 	0.87541 0.00307 0.18682 -0.39200
O 	O 	0.84089 0.88733 0.21776 -0.38300
C 	C 	0.77489 0.85985 0.17275 -0.07900
C 	C 	0.77474 0.88190 0.14369 -0.01300
H 	H 	0.82648 0.93284 0.13269 0.05100
S 	S 	0.76856 0.86382 0.31650 0.03500
C 	C 	0.77777 0.93242 0.28933 -0.07200
C 	C 	0.93097 0.48764 0.48303 -0.04800
C 	C 	0.88654 0.40005 0.47380 -0.05500
C 	C 	0.92268 0.36359 0.45645 0.08600
H 	H 	0.90358 0.51601 0.49642 0.06300
N 	N 	0.87829 0.27502 0.44636 -0.01900
O 	O 	0.81870 0.25340 0.42954 -0.08800
O 	O 	0.90111 0.21786 0.45216 -0.09600
C 	C 	0.76945 0.07679 0.66360 0.00900
C 	C 	0.78786 0.22219 0.67477 -0.04800
C 	C 	0.81450 0.16065 0.67557 0.01100
S 	S 	0.82887 0.03506 0.65773 0.02700
C 	C 	0.91211 0.11944 0.67009 -0.07500
C 	C 	0.89444 0.18430 0.67948 -0.01600
H 	H 	0.82545 0.28958 0.68154 0.04500
H 	H 	0.93702 0.24521 0.68942 0.04900
C 	C 	0.89436 0.65947 0.66469 0.00000
C 	C 	0.89391 0.58105 0.65804 -0.05100
C 	C 	0.91653 0.57188 0.63012 0.01800
C 	C 	0.94910 0.64471 0.61099 0.00100
C 	C 	0.95345 0.72492 0.61849 -0.04900
C 	C 	0.92613 0.73164 0.64574 0.02200
S 	S 	0.89703 0.69665 0.69763 0.03300
C 	C 	0.93344 0.80355 0.68916 -0.06800
C 	C 	0.94794 0.81287 0.65937 -0.01700
S 	S 	0.92972 0.60502 0.57798 0.05400
C 	C 	0.88124 0.49705 0.58586 -0.06800
C 	C 	0.88099 0.48942 0.61595 -0.01700
H 	H 	0.87055 0.52627 0.67321 0.04700
H 	H 	0.97621 0.77983 0.60338 0.05700
H 	H 	0.98460 0.87625 0.64897 0.05200
H 	H 	0.84277 0.42812 0.62717 0.04800
C 	C 	0.91740 0.48314 0.96247 -0.07300
C 	C 	0.93856 0.47965 0.99119 0.08400
N 	N 	0.88835 0.40648 0.00953 -0.01900
O 	O 	0.86074 0.32608 0.00051 -0.09800
O 	O 	0.87351 0.42013 0.03573 -0.11000
C 	C 	0.93727 0.30385 0.79278 0.00500
C 	C 	0.85913 0.28576 0.79407 -0.05500
C 	C 	0.81255 0.23786 0.81772 0.02200
C 	C 	0.84322 0.20560 0.83884 -0.00500
C 	C 	0.92084 0.22192 0.83723 -0.04700
C 	C 	0.96630 0.26701 0.81301 0.01000
S 	S 	0.98467 0.31462 0.76216 0.02200
S 	S 	0.79612 0.19801 0.86940 0.05300
C 	C 	0.74905 0.24823 0.82782 -0.01700
H 	H 	0.83582 0.31037 0.77752 0.04800
H 	H 	0.94408 0.19706 0.85372 0.04900
C 	C 	0.87002 0.81877 0.90321 0.00000
C 	C 	0.93942 0.87202 0.88740 -0.04900
C 	C 	0.93361 0.87932 0.85757 0.02400
C 	C 	0.86115 0.83074 0.84406 0.00300
C 	C 	0.79435 0.76860 0.85919 -0.04900
C 	C 	0.79859 0.76476 0.88928 0.02800
S 	S 	0.86786 0.76853 0.93392 0.05100
C 	C 	0.77826 0.67949 0.93166 -0.06900
C 	C 	0.74648 0.68857 0.90564 -0.01900
S 	S 	0.87862 0.82556 0.80939 0.03400
C 	C 	0.97706 0.88739 0.80949 -0.07700
C 	C 	0.99890 0.91250 0.83816 -0.02500
H 	H 	0.74257 0.72104 0.84787 0.05800
