data_crystal

_cell_length_a 25.09837
_cell_length_b 21.87010
_cell_length_c 24.38108
_cell_angle_alpha 92.69506
_cell_angle_beta  85.32039
_cell_angle_gamma 124.79213

_symmetry_space_group_name_	'P 1'
_symmetry_space_group_name_H-M	'P 1'

loop_
_symmetry_equiv_pos_as_xyz
  x,y,z

loop_
_atom_site_label
_atom_site_type_symbol
_atom_site_fract_x
_atom_site_fract_y
_atom_site_fract_z
_atom_site_charge
C 	C 	0.91196 0.11265 0.98622 -0.01000
C 	C 	0.94592 0.09388 0.94865 0.01300
C 	C 	0.97251 0.05759 0.96688 -0.09600
C 	C 	0.96642 0.04115 0.02317 0.12500
C 	C 	0.93396 0.06175 0.06067 -0.07700
C 	C 	0.90658 0.09698 0.04232 0.02500
N 	N 	0.99114 0.00105 0.04265 -0.12900
C 	C 	0.19684 0.11705 0.03402 0.06600
C 	C 	0.16380 0.12319 0.08081 -0.02500
C 	C 	0.09643 0.08742 0.08246 -0.05200
C 	C 	0.06143 0.04475 0.03760 0.09400
C 	C 	0.09503 0.04102 0.98977 -0.07400
C 	C 	0.16241 0.07682 0.98819 -0.04500
C 	C 	0.88790 0.76738 0.00960 0.08000
C 	C 	0.94902 0.80579 0.03131 -0.05000
C 	C 	0.98293 0.88221 0.04148 -0.01500
C 	C 	0.95765 0.92248 0.02750 0.04500
C 	C 	0.89504 0.88273 0.00693 0.02400
C 	C 	0.86085 0.80598 0.99789 -0.09200
H 	H 	0.95066 0.10618 0.90530 0.05800
H 	H 	0.99610 0.04049 0.93729 0.07300
H 	H 	0.92914 0.04935 0.10399 0.07700
H 	H 	0.88072 0.11161 0.07164 0.05700
H 	H 	0.19015 0.15453 0.11624 0.06600
H 	H 	0.07105 0.09099 0.11923 0.06400
H 	H 	0.06867 0.00800 0.95490 0.05800
H 	H 	0.18766 0.07203 0.95184 0.06200
H 	H 	0.96961 0.77605 0.04163 0.07000
H 	H 	0.02824 0.90987 0.06135 0.04300
H 	H 	0.87191 0.91043 0.99928 0.03200
H 	H 	0.81275 0.77625 0.98260 0.08000
C 	C 	0.93237 0.14060 0.49030 0.04500
C 	C 	0.91965 0.07806 0.45977 -0.02400
C 	C 	0.94241 0.03683 0.47599 -0.03500
C 	C 	0.97429 0.05476 0.52527 0.07400
C 	C 	0.98841 0.11841 0.55473 -0.03500
C 	C 	0.96913 0.16215 0.53659 -0.03300
N 	N 	0.99343 0.00938 0.54582 -0.12400
C 	C 	0.19643 0.10522 0.53533 0.04000
C 	C 	0.15650 0.05993 0.58004 -0.03200
C 	C 	0.08994 0.02884 0.58318 -0.03500
C 	C 	0.06241 0.04186 0.54138 0.06800
C 	C 	0.10238 0.08622 0.49588 -0.05200
C 	C 	0.16924 0.11884 0.49351 -0.02000
C 	C 	0.88004 0.77676 0.51417 0.03900
C 	C 	0.93255 0.82507 0.47743 -0.02700
C 	C 	0.96898 0.90181 0.48664 -0.04000
C 	C 	0.95324 0.93088 0.53307 0.06800
C 	C 	0.89993 0.88243 0.56909 -0.04900
C 	C 	0.86357 0.80566 0.55982 -0.02100
H 	H 	0.89083 0.06036 0.42427 0.07500
H 	H 	0.93391 0.99029 0.45101 0.05300
H 	H 	0.01423 0.13375 0.59190 0.05100
H 	H 	0.98006 0.21093 0.56002 0.06400
H 	H 	0.17715 0.04913 0.61248 0.06200
H 	H 	0.05951 0.99446 0.61811 0.04600
H 	H 	0.08167 0.09487 0.46233 0.06100
H 	H 	0.19985 0.15408 0.45895 0.06700
H 	H 	0.94512 0.80311 0.44179 0.06400
H 	H 	0.00899 0.93866 0.45768 0.04800
H 	H 	0.88747 0.90432 0.60481 0.06300
H 	H 	0.82284 0.76858 0.58824 0.06400
Co	Co	0.72306 0.31169 0.96947 1.18300
O 	O 	0.79754 0.30806 0.92765 -0.34400
Co	Co	0.59067 0.31177 0.99614 1.17400
O 	O 	0.63831 0.26981 0.93271 -0.45100
O 	O 	0.66653 0.41669 0.00631 -0.37100
O 	O 	0.72003 0.21171 0.96966 -0.33400
C 	C 	0.72723 0.44833 0.98510 0.34800
O 	O 	0.59176 0.32102 0.90915 -0.33700
C 	C 	0.47014 0.24015 0.03226 0.31400
C 	C 	0.67748 0.31040 0.07316 0.29900
O 	O 	0.51406 0.31007 0.03908 -0.34800
O 	O 	0.49438 0.20967 0.00320 -0.30100
O 	O 	0.73587 0.33180 0.05576 -0.30000
O 	O 	0.63698 0.27590 0.03506 -0.43500
O 	O 	0.74463 0.41180 0.95180 -0.53200
C 	C 	0.77396 0.23995 0.94006 0.31500
C 	C 	0.62910 0.29956 0.89298 0.29500
H 	H 	0.78002 0.43995 0.92146 0.18700
Co	Co	0.72936 0.32528 0.47244 1.19200
O 	O 	0.80842 0.32635 0.43600 -0.35000
Co	Co	0.59370 0.31844 0.49483 1.18700
O 	O 	0.64684 0.28276 0.43211 -0.44500
O 	O 	0.66719 0.42280 0.50988 -0.40800
O 	O 	0.72728 0.22618 0.47043 -0.31200
C 	C 	0.72785 0.45870 0.48780 0.37000
O 	O 	0.59922 0.33227 0.40792 -0.33200
C 	C 	0.47223 0.24072 0.52744 0.31500
C 	C 	0.67717 0.31647 0.57484 0.29600
O 	O 	0.51362 0.31088 0.53583 -0.33800
O 	O 	0.49946 0.21373 0.49825 -0.33100
O 	O 	0.73680 0.34104 0.55953 -0.29700
O 	O 	0.63943 0.28314 0.53482 -0.44500
O 	O 	0.74929 0.42505 0.45591 -0.52800
C 	C 	0.78475 0.25762 0.44652 0.31100
C 	C 	0.63870 0.31354 0.39243 0.29200
H 	H 	0.78527 0.45496 0.42630 0.19300
C 	C 	0.67056 0.28730 0.72405 0.10700
C 	C 	0.61446 0.28373 0.74280 0.10300
N 	N 	0.59993 0.28357 0.79765 -0.07800
C 	C 	0.63876 0.28583 0.83476 -0.03000
C 	C 	0.69314 0.28582 0.81592 0.05000
N 	N 	0.70822 0.28707 0.76091 -0.09600
N 	N 	0.68889 0.29547 0.66948 -0.07000
N 	N 	0.57746 0.28539 0.70603 -0.09400
H 	H 	0.72464 0.28793 0.84480 0.02700
C 	C 	0.65272 0.29898 0.63263 -0.01700
C 	C 	0.59523 0.29240 0.65125 0.05200
H 	H 	0.56609 0.29532 0.62256 0.04300
C 	C 	0.67992 0.29861 0.22373 0.10900
C 	C 	0.62182 0.29046 0.24253 0.10700
N 	N 	0.60801 0.29209 0.29733 -0.07800
C 	C 	0.64950 0.30044 0.33437 -0.02700
C 	C 	0.70640 0.30572 0.31561 0.05100
N 	N 	0.72070 0.30517 0.26060 -0.09700
N 	N 	0.69631 0.30318 0.16888 -0.07200
N 	N 	0.58135 0.28466 0.20574 -0.09500
H 	H 	0.74015 0.31302 0.34449 0.02700
C 	C 	0.65631 0.29862 0.13189 -0.01200
C 	C 	0.59725 0.28810 0.15076 0.05900
H 	H 	0.56499 0.28447 0.12196 0.03900
C 	C 	0.84246 0.69578 0.50505 -0.00100
C 	C 	0.78387 0.65889 0.47867 0.13600
C 	C 	0.74736 0.58154 0.47237 -0.01200
C 	C 	0.76896 0.54049 0.49201 -0.13200
C 	C 	0.82817 0.57755 0.51756 0.20500
C 	C 	0.86467 0.65496 0.52388 -0.09600
H 	H 	0.70200 0.55324 0.45236 0.07600
H 	H 	0.90990 0.68332 0.54409 0.09400
Cl	Cl	0.75569 0.70900 0.45331 -0.29900
Cl	Cl	0.85603 0.52747 0.54361 -0.31100
C 	C 	0.89859 0.17597 0.47947 -0.00300
C 	C 	0.90643 0.20765 0.42779 0.14200
C 	C 	0.86963 0.23521 0.41750 -0.02500
C 	C 	0.82718 0.23438 0.45910 -0.09400
C 	C 	0.82419 0.20909 0.51225 0.20200
C 	C 	0.85765 0.17741 0.52142 -0.09000
H 	H 	0.87403 0.25716 0.37719 0.08300
H 	H 	0.85256 0.15477 0.56162 0.09200
Cl	Cl	0.96426 0.21656 0.37666 -0.29500
Cl	Cl	0.78311 0.22203 0.56886 -0.28500
C 	C 	0.26698 0.13969 0.53301 -0.00500
C 	C 	0.29658 0.11818 0.49255 0.14200
C 	C 	0.36359 0.15176 0.49087 -0.02600
C 	C 	0.40148 0.20541 0.53028 -0.09700
C 	C 	0.37125 0.22447 0.57226 0.19900
C 	C 	0.30458 0.19271 0.57270 -0.09200
H 	H 	0.38618 0.13592 0.45893 0.09100
H 	H 	0.28169 0.20828 0.60457 0.08900
Cl	Cl	0.24990 0.04716 0.44496 -0.29600
Cl	Cl	0.41520 0.28416 0.62659 -0.29300
C 	C 	0.85017 0.68567 0.00269 0.01800
C 	C 	0.83615 0.65322 0.94993 0.11200
C 	C 	0.79692 0.57566 0.94445 -0.00500
C 	C 	0.77310 0.52979 0.99115 -0.15400
C 	C 	0.78904 0.56230 0.04376 0.23800
C 	C 	0.82705 0.63986 0.04931 -0.10600
H 	H 	0.78414 0.55109 0.90389 0.06500
H 	H 	0.83827 0.66457 0.08996 0.09600
Cl	Cl	0.86833 0.70903 0.89033 -0.30500
Cl	Cl	0.76236 0.50653 0.10309 -0.30600
C 	C 	0.81535 0.21259 0.94409 -0.10400
C 	C 	0.87362 0.25445 0.97151 0.21400
C 	C 	0.90692 0.22267 0.98193 -0.13200
C 	C 	0.88179 0.14868 0.96700 0.02100
C 	C 	0.82452 0.10747 0.93856 0.13100
C 	C 	0.79205 0.13981 0.92679 -0.01900
H 	H 	0.95102 0.25457 0.00375 0.12200
H 	H 	0.74724 0.10727 0.90595 0.08100
Cl	Cl	0.90307 0.34454 0.99684 -0.30800
Cl	Cl	0.79086 0.01393 0.92011 -0.29800
C 	C 	0.26691 0.14934 0.03416 -0.01500
C 	C 	0.31356 0.22332 0.01729 0.16600
C 	C 	0.37987 0.25303 0.01766 -0.03100
C 	C 	0.40021 0.20933 0.03462 -0.08900
C 	C 	0.35341 0.13559 0.05222 0.19600
C 	C 	0.28713 0.10593 0.05173 -0.08200
H 	H 	0.41555 0.30974 0.00394 0.09400
H 	H 	0.25129 0.04917 0.06526 0.09200
Cl	Cl	0.28954 0.27919 0.99518 -0.32300
Cl	Cl	0.37709 0.08057 0.07687 -0.28000
