data_crystal

_cell_length_a 33.80744
_cell_length_b 33.92608
_cell_length_c 36.78692
_cell_angle_alpha 95.52614
_cell_angle_beta  95.53044
_cell_angle_gamma 125.45623

_symmetry_space_group_name_	'P 1'
_symmetry_space_group_name_H-M	'P 1'

loop_
_symmetry_equiv_pos_as_xyz
  x,y,z

loop_
_atom_site_label
_atom_site_type_symbol
_atom_site_fract_x
_atom_site_fract_y
_atom_site_fract_z
_atom_site_charge
C 	C 	0.98037 0.02598 0.99468 0.11100
N 	N 	0.02937 0.05115 0.99371 -0.14000
C 	C 	0.04990 0.02672 0.99037 0.11500
C 	C 	0.95655 0.00332 0.45509 0.11200
C 	C 	0.03039 0.01007 0.46075 0.11600
N 	N 	0.00649 0.03119 0.45815 -0.13900
Cu	Cu	0.65050 0.25891 0.99917 0.92700
Cu	Cu	0.69213 0.26313 0.92158 0.87000
Cu	Cu	0.67938 0.33852 0.95253 0.89600
Cu	Cu	0.64891 0.34895 0.02458 0.89400
C 	C 	0.66224 0.29367 0.07671 0.30400
O 	O 	0.57784 0.22885 0.99695 -0.36400
C 	C 	0.66613 0.30687 0.87136 0.30700
O 	O 	0.68970 0.33564 0.00399 -0.64000
O 	O 	0.64583 0.26596 0.94647 -0.64200
O 	O 	0.68189 0.22409 0.99714 -0.37400
O 	O 	0.73755 0.27606 0.96386 -0.44200
O 	O 	0.63958 0.31329 0.06689 -0.38600
O 	O 	0.71567 0.40939 0.96200 -0.38300
C 	C 	0.70965 0.43525 0.98709 0.28900
C 	C 	0.55831 0.24968 0.98331 0.28200
O 	O 	0.58724 0.29605 0.97990 -0.39400
O 	O 	0.67715 0.41400 0.00922 -0.39400
O 	O 	0.66514 0.26495 0.05195 -0.36200
C 	C 	0.72414 0.24365 0.98570 0.28900
O 	O 	0.68070 0.34276 0.89938 -0.38800
O 	O 	0.66240 0.26708 0.87667 -0.42300
H 	H 	0.72479 0.35690 0.01665 0.16400
H 	H 	0.61187 0.24591 0.93163 0.17200
Cu	Cu	0.72652 0.33548 0.45269 0.92800
Cu	Cu	0.72447 0.29630 0.53111 0.87000
Cu	Cu	0.64768 0.30755 0.50024 0.89700
Cu	Cu	0.63545 0.33605 0.42762 0.89400
C 	C 	0.69012 0.32190 0.37511 0.30400
O 	O 	0.75631 0.40763 0.45389 -0.36400
C 	C 	0.68106 0.32264 0.58143 0.30600
O 	O 	0.64963 0.29623 0.44867 -0.64100
O 	O 	0.72053 0.34140 0.50558 -0.64100
O 	O 	0.76174 0.30451 0.45490 -0.37400
O 	O 	0.71073 0.25007 0.48927 -0.44200
O 	O 	0.67020 0.34430 0.38478 -0.38700
O 	O 	0.57652 0.27094 0.49147 -0.38300
C 	C 	0.54995 0.27576 0.46599 0.29000
C 	C 	0.73541 0.42725 0.46722 0.28200
O 	O 	0.68921 0.39848 0.47142 -0.39300
O 	O 	0.57082 0.30835 0.44395 -0.39500
O 	O 	0.71942 0.31964 0.39990 -0.36200
C 	C 	0.74254 0.26280 0.46688 0.28800
O 	O 	0.64451 0.30738 0.55363 -0.38800
O 	O 	0.72112 0.32682 0.57583 -0.42300
H 	H 	0.62833 0.26109 0.43642 0.16300
H 	H 	0.74064 0.37550 0.51996 0.17200
C 	C 	0.66180 0.33192 0.68888 -0.00700
C 	C 	0.70042 0.37090 0.71644 -0.03500
C 	C 	0.69823 0.36860 0.75403 -0.03500
C 	C 	0.65741 0.32729 0.76421 -0.00700
C 	C 	0.61761 0.28955 0.73667 -0.03500
C 	C 	0.61980 0.29187 0.69908 -0.03500
C 	C 	0.66796 0.33003 0.65069 0.04400
C 	C 	0.67368 0.32733 0.61893 -0.11200
C 	C 	0.65917 0.32078 0.80231 0.04400
C 	C 	0.66170 0.31471 0.83399 -0.11200
H 	H 	0.73294 0.40208 0.70879 0.03800
H 	H 	0.72906 0.39802 0.77516 0.03900
H 	H 	0.58584 0.25758 0.74431 0.03800
H 	H 	0.58969 0.26167 0.67794 0.03900
C 	C 	0.68475 0.29166 0.18728 -0.00400
C 	C 	0.64655 0.25341 0.20192 -0.03400
C 	C 	0.64984 0.25674 0.24044 -0.03500
C 	C 	0.69135 0.29831 0.26448 -0.00400
C 	C 	0.73052 0.33550 0.24984 -0.03400
C 	C 	0.72722 0.33218 0.21132 -0.03500
C 	C 	0.67801 0.29185 0.14805 0.04300
C 	C 	0.67140 0.29248 0.11536 -0.10300
C 	C 	0.69137 0.30536 0.30374 0.04300
C 	C 	0.69097 0.31229 0.33644 -0.10300
H 	H 	0.61365 0.22190 0.18352 0.04100
H 	H 	0.61945 0.22778 0.25154 0.03800
H 	H 	0.76280 0.36770 0.26824 0.04100
H 	H 	0.75697 0.36184 0.20022 0.03800
C 	C 	0.91619 0.80287 0.44106 -0.04900
C 	C 	0.87884 0.78016 0.46218 0.01300
C 	C 	0.85550 0.72850 0.46584 0.00500
C 	C 	0.82830 0.69081 0.43434 -0.04100
C 	C 	0.80994 0.64243 0.43712 -0.03700
C 	C 	0.81865 0.63131 0.47142 -0.00100
C 	C 	0.84478 0.66876 0.50313 -0.03700
C 	C 	0.86315 0.71719 0.50035 -0.04100
C 	C 	0.80129 0.58067 0.47387 0.02600
C 	C 	0.81985 0.55920 0.45414 -0.06600
C 	C 	0.80003 0.50969 0.45343 0.01300
C 	C 	0.76130 0.48109 0.47241 -0.08900
C 	C 	0.74451 0.50338 0.49371 0.01100
C 	C 	0.76435 0.55291 0.49434 -0.06600
H 	H 	0.92733 0.78231 0.42686 0.04200
H 	H 	0.83559 0.78976 0.49657 0.04200
H 	H 	0.82200 0.69915 0.40764 0.03900
H 	H 	0.78935 0.61364 0.41257 0.03800
H 	H 	0.85154 0.66049 0.52974 0.03800
H 	H 	0.88421 0.74608 0.52480 0.03900
H 	H 	0.84888 0.58059 0.43868 0.04600
H 	H 	0.81367 0.49322 0.43711 0.03800
H 	H 	0.71539 0.48211 0.50912 0.03100
H 	H 	0.75016 0.56935 0.50997 0.04500
C 	C 	0.75971 0.23230 0.45784 -0.09600
C 	C 	0.80612 0.25342 0.44764 0.01400
C 	C 	0.82474 0.22599 0.44339 -0.06800
C 	C 	0.79717 0.17727 0.44926 0.02600
C 	C 	0.75000 0.15548 0.45788 -0.06900
C 	C 	0.73125 0.18275 0.46201 0.01200
C 	C 	0.81899 0.15024 0.44890 -0.00200
C 	C 	0.82433 0.13233 0.41516 -0.03700
C 	C 	0.84500 0.10660 0.41492 -0.04100
C 	C 	0.86072 0.09884 0.44846 0.00500
C 	C 	0.85535 0.11682 0.48219 -0.04200
C 	C 	0.83446 0.14229 0.48239 -0.03700
C 	C 	0.88378 0.07286 0.44839 0.01200
C 	C 	0.92728 0.09177 0.43413 -0.04800
C 	C 	0.95051 0.06861 0.43572 -0.02100
C 	C 	0.93067 0.02642 0.45185 -0.02000
C 	C 	0.88666 0.00709 0.46560 -0.02500
C 	C 	0.86330 0.03013 0.46378 -0.04700
H 	H 	0.82843 0.29147 0.44412 0.03500
H 	H 	0.86112 0.24300 0.43654 0.04600
H 	H 	0.72827 0.11769 0.46206 0.04400
H 	H 	0.69498 0.16562 0.46910 0.02800
H 	H 	0.81237 0.13822 0.38917 0.03900
H 	H 	0.84881 0.09272 0.38872 0.03900
H 	H 	0.86770 0.11137 0.50825 0.03800
H 	H 	0.83056 0.15611 0.50857 0.03500
H 	H 	0.94341 0.12475 0.42223 0.04100
H 	H 	0.98400 0.08355 0.42449 0.03900
H 	H 	0.82955 0.01507 0.47465 0.04000
C 	C 	0.49636 0.24878 0.46543 -0.08700
C 	C 	0.47038 0.20505 0.47972 0.01400
C 	C 	0.41985 0.17992 0.47966 -0.06700
C 	C 	0.39471 0.19806 0.46515 0.02700
C 	C 	0.42047 0.24151 0.45066 -0.06700
C 	C 	0.47103 0.26682 0.45085 0.01300
C 	C 	0.34137 0.17150 0.46505 -0.00100
C 	C 	0.30755 0.12288 0.44551 -0.03700
C 	C 	0.25704 0.09770 0.44547 -0.04100
C 	C 	0.23991 0.12096 0.46485 0.00500
C 	C 	0.27364 0.16964 0.48423 -0.04100
C 	C 	0.32420 0.19479 0.48440 -0.03700
C 	C 	0.18674 0.09411 0.46523 0.01200
C 	C 	0.16298 0.05428 0.48385 -0.04700
C 	C 	0.11217 0.02750 0.48303 -0.02400
C 	C 	0.08453 0.04018 0.46341 -0.02000
C 	C 	0.10858 0.08067 0.44531 -0.02100
C 	C 	0.15948 0.10752 0.44627 -0.04800
H 	H 	0.48923 0.19040 0.49072 0.03200
H 	H 	0.40025 0.14642 0.49095 0.04500
H 	H 	0.40131 0.25566 0.43924 0.04500
H 	H 	0.49052 0.30062 0.43995 0.03300
H 	H 	0.32041 0.10471 0.43030 0.03700
H 	H 	0.23119 0.06016 0.43034 0.03900
H 	H 	0.26072 0.18781 0.49935 0.04000
H 	H 	0.35003 0.23225 0.49968 0.03900
H 	H 	0.18388 0.04395 0.49881 0.04100
H 	H 	0.08775 0.09076 0.42992 0.04000
H 	H 	0.17759 0.13828 0.43183 0.04200
C 	C 	0.85897 0.74292 0.98607 0.00400
C 	C 	0.83420 0.70833 0.95269 -0.04100
C 	C 	0.80981 0.65819 0.95308 -0.03700
C 	C 	0.80981 0.64222 0.98687 -0.00200
C 	C 	0.83408 0.67670 0.02028 -0.03600
C 	C 	0.85864 0.72687 0.01989 -0.04000
C 	C 	0.78448 0.58942 0.98725 0.02600
C 	C 	0.80335 0.56517 0.97255 -0.06700
C 	C 	0.77922 0.51501 0.97275 0.01400
C 	C 	0.73576 0.48854 0.98752 -0.08800
C 	C 	0.71707 0.51306 0.00237 0.01400
C 	C 	0.74138 0.56325 0.00226 -0.06600
H 	H 	0.93571 0.79759 0.95117 0.04100
H 	H 	0.83403 0.72034 0.92646 0.03900
H 	H 	0.79092 0.63176 0.92718 0.03900
H 	H 	0.83425 0.66465 0.04649 0.03800
H 	H 	0.87788 0.75329 0.04579 0.03900
H 	H 	0.83679 0.58522 0.96108 0.04500
H 	H 	0.79443 0.49683 0.96159 0.03300
H 	H 	0.68345 0.49320 0.01362 0.03300
H 	H 	0.72654 0.58173 0.01361 0.04600
C 	C 	0.75439 0.22607 0.99450 -0.09800
C 	C 	0.73278 0.17952 0.00427 0.01600
C 	C 	0.75997 0.16057 0.00826 -0.06900
C 	C 	0.80893 0.18793 0.00256 0.02800
C 	C 	0.83121 0.23519 0.99438 -0.07100
C 	C 	0.80419 0.25428 0.99051 0.01300
C 	C 	0.83573 0.16583 0.00266 -0.00200
C 	C 	0.85439 0.16098 0.03632 -0.03700
C 	C 	0.87990 0.14007 0.03631 -0.04100
C 	C 	0.88667 0.12359 0.00259 0.00600
C 	C 	0.86795 0.12848 0.96894 -0.04300
C 	C 	0.84271 0.14962 0.96900 -0.03800
C 	C 	0.91234 0.10017 0.00241 0.01300
C 	C 	0.89360 0.05724 0.01721 -0.04900
C 	C 	0.91635 0.03360 0.01534 -0.02000
C 	C 	0.95792 0.05246 0.99837 -0.02100
C 	C 	0.97714 0.09594 0.98411 -0.02500
C 	C 	0.95452 0.11972 0.98622 -0.04900
H 	H 	0.69455 0.15739 0.00766 0.03500
H 	H 	0.74259 0.12412 0.01479 0.04600
H 	H 	0.86919 0.25675 0.99032 0.04400
H 	H 	0.82171 0.29063 0.98376 0.02700
H 	H 	0.84925 0.17352 0.06244 0.03900
H 	H 	0.89436 0.13663 0.06244 0.03900
H 	H 	0.87263 0.11554 0.94275 0.03800
H 	H 	0.82831 0.15316 0.94288 0.03500
H 	H 	0.86105 0.04183 0.02974 0.04100
H 	H 	0.90153 0.00054 0.02697 0.03900
H 	H 	0.00904 0.11087 0.97084 0.04200
H 	H 	0.96947 0.15305 0.97494 0.04000
C 	C 	0.50408 0.22303 0.97621 -0.08900
C 	C 	0.47416 0.18248 0.99316 0.01200
C 	C 	0.42380 0.16116 0.99026 -0.06700
C 	C 	0.40278 0.17999 0.97032 0.02600
C 	C 	0.43209 0.21909 0.95207 -0.06700
C 	C 	0.48245 0.24043 0.95489 0.01100
C 	C 	0.35075 0.16036 0.97015 -0.00200
C 	C 	0.31267 0.11095 0.95441 -0.03700
C 	C 	0.26372 0.09126 0.95700 -0.04200
C 	C 	0.25245 0.12082 0.97540 0.00600
C 	C 	0.29033 0.17060 0.99019 -0.04300
C 	C 	0.33930 0.19031 0.98759 -0.03600
C 	C 	0.20148 0.09889 0.98101 0.01200
C 	C 	0.17937 0.06187 0.00235 -0.04800
C 	C 	0.13037 0.03941 0.00636 -0.01900
C 	C 	0.10292 0.05375 0.98904 -0.02300
C 	C 	0.12552 0.09185 0.96856 -0.02000
C 	C 	0.17461 0.11429 0.96454 -0.04900
H 	H 	0.49013 0.16845 0.00955 0.03900
H 	H 	0.40139 0.13082 0.00432 0.04700
H 	H 	0.41600 0.23343 0.93619 0.04500
H 	H 	0.50479 0.27101 0.94104 0.03100
H 	H 	0.32111 0.08766 0.94067 0.03700
H 	H 	0.23465 0.05288 0.94522 0.03900
H 	H 	0.28199 0.19370 0.00443 0.04100
H 	H 	0.36846 0.22850 0.99984 0.03800
H 	H 	0.20006 0.05023 0.01559 0.04200
H 	H 	0.11360 0.01058 0.02268 0.04000
H 	H 	0.10474 0.10318 0.95499 0.03900
H 	H 	0.19147 0.14300 0.94813 0.04100
N 	N 	0.02140 0.97714 0.98815 -0.13800
C 	C 	0.97247 0.95180 0.98901 0.11600
N 	N 	0.95200 0.97627 0.99217 -0.13900
N 	N 	0.93056 0.95417 0.45495 -0.13900
C 	C 	0.95441 0.93299 0.45771 0.11600
N 	N 	0.00424 0.96099 0.46049 -0.13800
C 	C 	0.92643 0.87975 0.45758 -0.02200
C 	C 	0.93985 0.85238 0.43875 -0.02000
C 	C 	0.86460 0.80710 0.48037 -0.04900
C 	C 	0.88822 0.85669 0.47801 -0.02000
H 	H 	0.96889 0.86960 0.42257 0.03900
H 	H 	0.87763 0.87743 0.49276 0.03900
H 	H 	0.87098 0.97472 0.47824 0.04200
H 	H 	0.09428 0.99685 0.49759 0.04400
C 	C 	0.94179 0.89790 0.98680 -0.02300
C 	C 	0.95334 0.86955 0.96677 -0.02000
C 	C 	0.92598 0.81894 0.96624 -0.04900
C 	C 	0.88659 0.79603 0.98552 0.01200
C 	C 	0.87435 0.82407 0.00495 -0.04800
C 	C 	0.90184 0.87477 0.00564 -0.01900
H 	H 	0.98360 0.88673 0.95169 0.04000
H 	H 	0.84380 0.80664 0.01973 0.04200
H 	H 	0.89262 0.89616 0.02134 0.03900
