data_crystal

_cell_length_a 14.87702
_cell_length_b 15.49149
_cell_length_c 31.45776
_cell_angle_alpha 95.39958
_cell_angle_beta  95.40234
_cell_angle_gamma 126.65858

_symmetry_space_group_name_	'P 1'
_symmetry_space_group_name_H-M	'P 1'

loop_
_symmetry_equiv_pos_as_xyz
  x,y,z

loop_
_atom_site_label
_atom_site_type_symbol
_atom_site_fract_x
_atom_site_fract_y
_atom_site_fract_z
_atom_site_charge
N 	N 	0.04477 0.08557 0.98743 -0.13900
C 	C 	0.09991 0.04045 0.99101 0.10800
N 	N 	0.97893 0.04734 0.47354 -0.14700
C 	C 	0.03654 0.00498 0.47653 0.10900
C 	C 	0.16154 0.07749 0.48008 -0.02000
C 	C 	0.22329 0.04130 0.48789 -0.14200
H 	H 	0.20416 0.16289 0.47784 0.04600
C 	C 	0.28376 0.19073 0.97501 -0.13500
C 	C 	0.22543 0.10951 0.99731 -0.00700
H 	H 	0.26919 0.08641 0.01704 0.04000
N 	N 	0.97876 0.89635 0.47630 -0.13700
H 	H 	0.18131 0.95632 0.49062 0.08600
H 	H 	0.23896 0.21081 0.95397 0.07900
N 	N 	0.03961 0.93173 0.99115 -0.13700
C 	C 	0.92918 0.02127 0.98360 0.11200
C 	C 	0.92429 0.86712 0.98683 0.12300
N 	N 	0.86950 0.91228 0.98347 -0.13700
C 	C 	0.86440 0.98206 0.47176 0.13400
C 	C 	0.86446 0.83076 0.47449 0.12100
N 	N 	0.80708 0.87359 0.47220 -0.13900
Cu	Cu	0.80726 0.37053 0.95651 0.92900
Cu	Cu	0.80237 0.28036 0.04754 0.86800
Cu	Cu	0.62960 0.31108 0.01412 0.89300
Cu	Cu	0.60426 0.38025 0.93063 0.89500
C 	C 	0.72161 0.34672 0.86679 0.30200
O 	O 	0.88264 0.53236 0.95946 -0.36100
C 	C 	0.70707 0.33647 0.10846 0.30400
O 	O 	0.63083 0.28740 0.95335 -0.63700
O 	O 	0.79640 0.38213 0.01884 -0.64500
O 	O 	0.88773 0.30278 0.95677 -0.36800
O 	O 	0.77373 0.18183 0.99809 -0.43800
O 	O 	0.68227 0.39965 0.88005 -0.38400
O 	O 	0.46587 0.23492 0.00500 -0.39400
C 	C 	0.40714 0.24890 0.97599 0.31600
C 	C 	0.83971 0.57817 0.97640 0.29700
O 	O 	0.73342 0.51666 0.98195 -0.39000
O 	O 	0.45763 0.32238 0.95080 -0.39800
O 	O 	0.78688 0.33734 0.89433 -0.35800
C 	C 	0.85025 0.21437 0.97317 0.30200
O 	O 	0.62400 0.30811 0.07670 -0.38800
O 	O 	0.79813 0.34694 0.10057 -0.42300
H 	H 	0.57805 0.20965 0.93854 0.16300
H 	H 	0.84612 0.45776 0.03591 0.17100
Cu	Cu	0.57683 0.17189 0.50842 0.92300
Cu	Cu	0.63584 0.14871 0.41283 0.87400
Cu	Cu	0.59848 0.32792 0.45018 0.91100
Cu	Cu	0.54436 0.35175 0.53763 0.89500
C 	C 	0.61694 0.26078 0.59895 0.28700
O 	O 	0.40797 0.08484 0.51032 -0.36800
C 	C 	0.64062 0.30129 0.36676 0.28600
O 	O 	0.64319 0.33698 0.51054 -0.64000
O 	O 	0.54647 0.17426 0.44585 -0.63300
O 	O 	0.67523 0.12307 0.50672 -0.37700
O 	O 	0.60417 0.02862 0.43697 -0.42500
O 	O 	0.54839 0.28627 0.58868 -0.38300
O 	O 	0.65967 0.47953 0.45601 -0.38100
C 	C 	0.65483 0.53571 0.48881 0.30300
C 	C 	0.34881 0.11718 0.49558 0.30000
O 	O 	0.40178 0.21807 0.48915 -0.40100
O 	O 	0.58571 0.48649 0.51637 -0.39700
O 	O 	0.62391 0.19779 0.57030 -0.35900
C 	C 	0.65434 0.04501 0.47665 0.29200
O 	O 	0.57883 0.31796 0.38787 -0.37900
O 	O 	0.70346 0.27891 0.38738 -0.43200
H 	H 	0.72548 0.39459 0.52233 0.16000
H 	H 	0.46471 0.12051 0.43241 0.15900
C 	C 	0.71035 0.30440 0.73599 0.01600
C 	C 	0.65556 0.20122 0.70985 -0.05800
C 	C 	0.63130 0.18791 0.66455 0.01500
C 	C 	0.72015 0.32732 0.82110 -0.09600
C 	C 	0.72091 0.38178 0.67139 0.01000
C 	C 	0.74593 0.39513 0.71656 -0.05600
C 	C 	0.71682 0.31493 0.78240 0.03700
C 	C 	0.66083 0.27766 0.64526 -0.08200
H 	H 	0.62805 0.13069 0.72460 0.04700
H 	H 	0.58502 0.10712 0.64469 0.03800
H 	H 	0.74492 0.45172 0.65681 0.02200
H 	H 	0.78888 0.47526 0.73653 0.04900
C 	C 	0.67442 0.34844 0.23573 0.01100
C 	C 	0.77028 0.38603 0.26671 -0.06000
C 	C 	0.76011 0.37408 0.30987 0.01000
C 	C 	0.69168 0.34299 0.15271 -0.10800
C 	C 	0.55887 0.29146 0.29179 0.00900
C 	C 	0.56909 0.30289 0.24849 -0.05900
C 	C 	0.68206 0.34642 0.19036 0.03600
C 	C 	0.65383 0.32461 0.32245 -0.09200
H 	H 	0.85209 0.42178 0.25713 0.04400
H 	H 	0.83448 0.40177 0.33336 0.03100
H 	H 	0.47650 0.25356 0.30112 0.02900
H 	H 	0.49457 0.27371 0.22472 0.04400
C 	C 	0.80247 0.71234 0.47117 -0.02200
C 	C 	0.71149 0.65289 0.49004 -0.12700
H 	H 	0.83648 0.67454 0.45569 0.05100
H 	H 	0.68237 0.69213 0.50829 0.07800
C 	C 	0.80157 0.02655 0.46431 -0.04200
C 	C 	0.71404 0.99770 0.48425 -0.10900
H 	H 	0.83043 0.08767 0.44372 0.03100
H 	H 	0.69040 0.94360 0.50765 0.07300
C 	C 	0.85756 0.74748 0.98469 -0.02400
C 	C 	0.90807 0.69859 0.98526 -0.12400
H 	H 	0.76524 0.69810 0.98062 0.04800
H 	H 	0.00015 0.74733 0.98873 0.07800
C 	C 	0.86952 0.07070 0.98506 -0.02400
C 	C 	0.90633 0.16159 0.96871 -0.13700
H 	H 	0.79215 0.03001 0.99863 0.04300
H 	H 	0.97962 0.19859 0.95273 0.08100
