data_crystal

_cell_length_a 24.50706
_cell_length_b 24.63975
_cell_length_c 26.59916
_cell_angle_alpha 95.51447
_cell_angle_beta  95.51257
_cell_angle_gamma 125.80871

_symmetry_space_group_name_	'P 1'
_symmetry_space_group_name_H-M	'P 1'

loop_
_symmetry_equiv_pos_as_xyz
  x,y,z

loop_
_atom_site_label
_atom_site_type_symbol
_atom_site_fract_x
_atom_site_fract_y
_atom_site_fract_z
_atom_site_charge
C 	C 	0.06415 0.03124 0.00100 0.10200
N 	N 	0.04302 0.06871 0.01784 -0.11300
N 	N 	0.00336 0.04551 0.44500 -0.11600
C 	C 	0.04066 0.02470 0.46317 0.09800
H 	H 	0.72506 0.00167 0.43447 0.07100
O 	O 	0.15317 0.05574 0.50557 -0.19800
C 	C 	0.11513 0.07407 0.48034 0.10500
C 	C 	0.28341 0.06976 0.00556 -0.08300
C 	C 	0.23392 0.07835 0.01730 0.02400
C 	C 	0.13750 0.06455 0.00214 0.10100
C 	C 	0.16598 0.03022 0.00579 -0.08200
H 	H 	0.27091 0.01953 0.99566 0.06900
H 	H 	0.27102 0.06535 0.51980 0.07600
C 	C 	0.27046 0.10040 0.49851 -0.08300
C 	C 	0.21777 0.10765 0.49785 0.11800
H 	H 	0.77520 0.04214 0.05751 0.07300
C 	C 	0.77030 0.04455 0.42382 -0.08700
C 	C 	0.81915 0.08688 0.04733 -0.07800
C 	C 	0.15368 0.13254 0.46026 -0.08500
H 	H 	0.71296 0.10447 0.03014 0.06400
O 	O 	0.73543 0.11922 0.43710 -0.18800
C 	C 	0.78468 0.10906 0.43116 0.11800
C 	C 	0.81292 0.13198 0.02386 0.00800
C 	C 	0.81615 0.03716 0.40203 0.01600
C 	C 	0.31958 0.13616 0.46805 0.01700
H 	H 	0.13383 0.14425 0.42828 0.07300
C 	C 	0.21852 0.15361 0.47145 0.02600
C 	C 	0.38401 0.15576 0.47737 -0.05800
H 	H 	0.40500 0.14363 0.50826 0.07600
C 	C 	0.24511 0.14041 0.01956 0.11800
C 	C 	0.34908 0.12857 0.00521 0.12500
O 	O 	0.18539 0.13556 0.01089 -0.19600
O 	O 	0.39868 0.12697 0.98551 -0.18800
C 	C 	0.76622 0.14312 0.02875 -0.05300
C 	C 	0.89536 0.02223 0.40648 0.09100
C 	C 	0.88315 0.09889 0.05400 0.11400
O 	O 	0.88919 0.04627 0.05431 -0.19500
C 	C 	0.87548 0.09238 0.39032 0.11900
C 	C 	0.31992 0.18148 0.44120 0.12200
H 	H 	0.02104 0.16859 0.00824 0.07900
C 	C 	0.84289 0.16338 0.41873 0.00800
C 	C 	0.88841 0.15641 0.39638 -0.08200
C 	C 	0.26816 0.18989 0.44141 -0.08800
C 	C 	0.77015 0.18532 0.42661 0.04000
C 	C 	0.86795 0.18887 0.01066 0.12200
O 	O 	0.92805 0.08571 0.39174 -0.19900
C 	C 	0.93904 0.15689 0.04162 0.03200
O 	O 	0.54372 0.20166 0.00269 -0.33000
O 	O 	0.69029 0.19912 0.01226 -0.34500
F 	F 	0.56184 0.19758 0.64809 -0.44400
C 	C 	0.30877 0.19785 0.01345 -0.08400
C 	C 	0.36131 0.19094 0.01029 0.01700
C 	C 	0.44246 0.19513 0.97974 0.04600
C 	C 	0.93239 0.20217 0.01845 -0.09300
H 	H 	0.93427 0.19987 0.38685 0.07200
C 	C 	0.95318 0.07759 0.03998 0.11000
C 	C 	0.79288 0.20567 0.01501 0.05200
H 	H 	0.56985 0.20562 0.74755 0.09100
C 	C 	0.42153 0.21231 0.45508 0.05300
O 	O 	0.71002 0.21172 0.47746 -0.40800
C 	C 	0.83327 0.21087 0.41365 -0.05300
H 	H 	0.59292 0.21917 0.91331 0.17900
C 	C 	0.97606 0.03746 0.02071 0.09000
C 	C 	0.98333 0.14345 0.03249 -0.09700
H 	H 	0.26756 0.22480 0.41996 0.07600
C 	C 	0.74933 0.22557 0.99749 0.24900
C 	C 	0.51604 0.22871 0.98216 0.24600
O 	O 	0.38360 0.23125 0.43070 -0.18200
C 	C 	0.75182 0.22983 0.44475 0.25700
C 	C 	0.41831 0.23246 0.99192 -0.06400
H 	H 	0.59983 0.23778 0.41287 0.18100
O 	O 	0.85890 0.23851 0.00393 -0.18600
C 	C 	0.93476 0.99958 0.42799 0.10400
C 	C 	0.82873 0.99280 0.41247 -0.06900
N 	N 	0.01784 0.96258 0.98580 -0.12300
Cu	Cu	0.64501 0.24497 0.00840 0.93200
Cu	Cu	0.70512 0.24285 0.90370 0.87800
Cu	Cu	0.68560 0.34787 0.93761 0.90000
Cu	Cu	0.64040 0.36957 0.03358 0.89900
C 	C 	0.65441 0.29765 0.11295 0.34000
C 	C 	0.67150 0.29741 0.82759 0.33100
O 	O 	0.69807 0.34990 0.00996 -0.63700
O 	O 	0.63978 0.24840 0.93426 -0.64200
O 	O 	0.62462 0.32430 0.09476 -0.38100
O 	O 	0.73417 0.44503 0.94640 -0.34400
C 	C 	0.71560 0.47925 0.97076 0.25400
O 	O 	0.55565 0.29100 0.97320 -0.38000
O 	O 	0.68044 0.45772 0.00842 -0.36900
O 	O 	0.66402 0.25978 0.08203 -0.34000
O 	O 	0.69001 0.34887 0.86390 -0.35300
O 	O 	0.66459 0.24306 0.83895 -0.41200
H 	H 	0.74643 0.38076 0.02808 0.18600
Cu	Cu	0.73670 0.33673 0.43553 0.93000
Cu	Cu	0.73497 0.27323 0.53893 0.87900
Cu	Cu	0.62981 0.29315 0.50460 0.90100
Cu	Cu	0.61335 0.34477 0.41014 0.90500
C 	C 	0.68075 0.32422 0.33124 0.33400
C 	C 	0.67845 0.30461 0.61443 0.33200
O 	O 	0.63081 0.28517 0.43243 -0.63600
O 	O 	0.73038 0.33931 0.50933 -0.63800
O 	O 	0.65766 0.35781 0.34879 -0.35700
O 	O 	0.53145 0.24398 0.49417 -0.35400
C 	C 	0.49627 0.25384 0.46042 0.25800
C 	C 	0.75521 0.46577 0.46257 0.25400
O 	O 	0.69276 0.42626 0.47155 -0.37700
O 	O 	0.52724 0.30713 0.43761 -0.35600
O 	O 	0.72424 0.32085 0.36176 -0.35600
O 	O 	0.62651 0.28443 0.57759 -0.35600
O 	O 	0.73367 0.31225 0.60373 -0.41200
H 	H 	0.75930 0.38544 0.53105 0.18000
C 	C 	0.72311 0.36427 0.70571 -0.08900
C 	C 	0.67020 0.30823 0.66840 -0.12900
C 	C 	0.61364 0.25206 0.68376 0.33700
C 	C 	0.61238 0.25026 0.73605 -0.09000
C 	C 	0.66718 0.30468 0.77338 -0.12900
C 	C 	0.72157 0.36274 0.75800 0.33700
F 	F 	0.77481 0.41599 0.79365 -0.44000
H 	H 	0.76660 0.40807 0.69421 0.09100
C 	C 	0.72929 0.32776 0.25226 -0.08500
C 	C 	0.67210 0.30640 0.27517 -0.12500
C 	C 	0.60778 0.27502 0.24392 0.33700
C 	C 	0.60164 0.26945 0.19061 -0.08600
C 	C 	0.65953 0.29470 0.16795 -0.12500
C 	C 	0.72301 0.32184 0.19875 0.33800
H 	H 	0.55213 0.24691 0.16695 0.09800
F 	F 	0.55151 0.25156 0.26539 -0.45400
C 	C 	0.74767 0.56049 0.45215 -0.05500
H 	H 	0.73066 0.65945 0.43710 0.07200
H 	H 	0.69239 0.52977 0.44762 0.05300
H 	H 	0.31599 0.24480 0.00909 0.07400
H 	H 	0.14015 0.97667 0.99074 0.06800
H 	H 	0.44875 0.28757 0.99962 0.05100
N 	N 	0.00935 0.95766 0.46364 -0.11000
O 	O 	0.76775 0.26683 0.96450 -0.40500
C 	C 	0.74065 0.54641 0.95916 0.05300
H 	H 	0.68657 0.57240 0.00489 0.06700
C 	C 	0.71296 0.57954 0.97291 -0.06600
H 	H 	0.72633 0.69829 0.99880 0.07200
O 	O 	0.78295 0.43828 0.44314 -0.33400
O 	O 	0.78051 0.28947 0.43114 -0.35600
H 	H 	0.77907 0.35158 0.27596 0.10200
C 	C 	0.78708 0.53810 0.46251 0.04300
O 	O 	0.79016 0.57849 0.92854 -0.17300
F 	F 	0.77917 0.34537 0.17715 -0.44100
C 	C 	0.77751 0.66743 0.43025 -0.08200
C 	C 	0.78612 0.61609 0.43182 0.01000
H 	H 	0.80227 0.95559 0.43672 0.06700
C 	C 	0.79071 0.63491 0.92606 0.12000
C 	C 	0.75540 0.69663 0.97128 -0.08500
C 	C 	0.74447 0.63538 0.95162 0.01700
C 	C 	0.83339 0.73111 0.42300 0.11500
C 	C 	0.80861 0.75661 0.95727 0.11600
C 	C 	0.84921 0.62941 0.43390 0.12300
O 	O 	0.83732 0.78978 0.43391 -0.19800
O 	O 	0.85388 0.58156 0.45324 -0.18200
C 	C 	0.84753 0.69593 0.91613 -0.08700
C 	C 	0.85222 0.75533 0.92878 0.02500
O 	O 	0.83578 0.82084 0.98472 -0.19600
N 	N 	0.90347 0.93244 0.42856 -0.11700
C 	C 	0.90676 0.69506 0.43222 -0.09100
C 	C 	0.89607 0.74350 0.42247 0.02700
C 	C 	0.90842 0.83819 0.44127 0.10500
H 	H 	0.87331 0.26388 0.41326 0.06100
H 	H 	0.88847 0.69775 0.90197 0.07700
C 	C 	0.90028 0.85728 0.97096 0.10500
C 	C 	0.91055 0.81897 0.93764 -0.08700
N 	N 	0.93029 0.96872 0.00657 -0.10000
C 	C 	0.94089 0.91132 0.44583 0.09500
C 	C 	0.94366 0.81117 0.43446 -0.08700
C 	C 	0.95082 0.93130 0.98835 0.09100
H 	H 	0.95788 0.70853 0.44014 0.07500
H 	H 	0.96006 0.83270 0.93194 0.06600
H 	H 	0.97585 0.24638 0.00734 0.07400
H 	H 	0.99789 0.83738 0.44828 0.07100
