data_crystal

_cell_length_a 26.88404
_cell_length_b 26.67960
_cell_length_c 31.00360
_cell_angle_alpha 95.51142
_cell_angle_beta  95.49811
_cell_angle_gamma 125.74183

_symmetry_space_group_name_	'P 1'
_symmetry_space_group_name_H-M	'P 1'

loop_
_symmetry_equiv_pos_as_xyz
  x,y,z

loop_
_atom_site_label
_atom_site_type_symbol
_atom_site_fract_x
_atom_site_fract_y
_atom_site_fract_z
_atom_site_charge
C 	C 	0.02771 0.97300 0.99329 -0.08700
C 	C 	0.06743 0.03892 0.99977 0.04400
C 	C 	0.04330 0.07283 0.00686 -0.08400
H 	H 	0.04638 0.94676 0.98765 0.05200
H 	H 	0.07410 0.12379 0.01222 0.05100
C 	C 	0.00347 0.94835 0.44499 -0.09600
C 	C 	0.03418 0.01288 0.44578 0.05900
C 	C 	0.00037 0.03766 0.44682 -0.09600
H 	H 	0.02884 0.92849 0.44250 0.05500
H 	H 	0.02396 0.08744 0.44732 0.05400
C 	C 	0.33827 0.17090 0.46607 0.00100
C 	C 	0.29402 0.13670 0.42687 -0.03600
C 	C 	0.23033 0.09856 0.42816 -0.04900
C 	C 	0.21024 0.09521 0.46869 0.02400
C 	C 	0.25446 0.12929 0.50792 -0.05000
C 	C 	0.31818 0.16754 0.50663 -0.03500
C 	C 	0.14308 0.05350 0.47051 -0.04300
C 	C 	0.10127 0.05434 0.44371 -0.06300
H 	H 	0.30900 0.13933 0.39541 0.03400
H 	H 	0.19667 0.07125 0.39773 0.04000
H 	H 	0.23945 0.12667 0.53936 0.04000
H 	H 	0.35181 0.19502 0.53704 0.03800
H 	H 	0.12809 0.02416 0.49548 0.03900
H 	H 	0.11700 0.08807 0.42171 0.04400
C 	C 	0.22431 0.10485 0.96556 0.02800
C 	C 	0.25005 0.14092 0.93297 -0.05200
C 	C 	0.31438 0.17690 0.93391 -0.03600
C 	C 	0.35322 0.17589 0.96683 0.00300
C 	C 	0.32732 0.13936 0.99927 -0.04000
C 	C 	0.26315 0.10357 0.99838 -0.05500
C 	C 	0.15651 0.06790 0.96490 -0.05500
C 	C 	0.13489 0.07284 0.00113 -0.04700
H 	H 	0.22037 0.14181 0.90732 0.04000
H 	H 	0.33396 0.20532 0.90898 0.03600
H 	H 	0.35701 0.13914 0.02536 0.04400
H 	H 	0.24363 0.07501 0.02325 0.04500
H 	H 	0.12415 0.03934 0.93396 0.04200
H 	H 	0.16729 0.10539 0.03109 0.04200
C 	C 	0.97929 0.04110 0.00593 0.05000
C 	C 	0.93978 0.97520 0.00022 -0.08800
C 	C 	0.96396 0.94109 0.99442 0.04900
H 	H 	0.89055 0.95062 0.00090 0.05200
C 	C 	0.93635 0.99839 0.44809 0.05800
C 	C 	0.90666 0.93461 0.44925 -0.09900
C 	C 	0.94007 0.90948 0.44745 0.05900
H 	H 	0.85744 0.90438 0.45080 0.05400
Cu	Cu	0.63953 0.24843 0.00718 0.93000
Cu	Cu	0.68929 0.24112 0.91612 0.86500
Cu	Cu	0.66576 0.33494 0.94104 0.89400
Cu	Cu	0.63658 0.36416 0.02657 0.89300
C 	C 	0.65765 0.30511 0.09667 0.28400
O 	O 	0.54887 0.21103 0.00654 -0.36600
C 	C 	0.65750 0.28842 0.84863 0.27800
O 	O 	0.68656 0.34380 0.00370 -0.64000
O 	O 	0.62874 0.24494 0.94265 -0.64300
O 	O 	0.67738 0.20305 0.01050 -0.37500
O 	O 	0.74648 0.26185 0.96772 -0.44700
O 	O 	0.62853 0.32800 0.08144 -0.38400
O 	O 	0.70804 0.42396 0.94252 -0.39000
C 	C 	0.71197 0.46320 0.97455 0.30400
C 	C 	0.52157 0.23185 0.98553 0.29700
O 	O 	0.55512 0.28955 0.97781 -0.39600
O 	O 	0.67197 0.44267 0.00192 -0.39400
O 	O 	0.66357 0.26787 0.07003 -0.36400
C 	C 	0.72903 0.22340 0.99583 0.30000
O 	O 	0.65110 0.32438 0.87636 -0.37900
O 	O 	0.65265 0.23943 0.85961 -0.41900
H 	H 	0.73173 0.37325 0.01634 0.16200
H 	H 	0.58544 0.21504 0.92593 0.17300
Cu	Cu	0.72002 0.33106 0.43823 0.92800
Cu	Cu	0.74375 0.28114 0.52483 0.86900
Cu	Cu	0.64127 0.29490 0.51060 0.89600
Cu	Cu	0.60276 0.33180 0.43092 0.89300
C 	C 	0.66510 0.33226 0.35467 0.28700
O 	O 	0.75935 0.42351 0.44313 -0.37800
C 	C 	0.70505 0.30832 0.59980 0.28200
O 	O 	0.62727 0.28198 0.44738 -0.63900
O 	O 	0.73007 0.33840 0.50319 -0.64100
O 	O 	0.76208 0.29119 0.42549 -0.38000
O 	O 	0.71416 0.22276 0.47164 -0.44800
O 	O 	0.61908 0.32997 0.36923 -0.38500
O 	O 	0.55324 0.24811 0.51254 -0.38600
C 	C 	0.51441 0.25345 0.48776 0.30700
C 	C 	0.73761 0.44996 0.46380 0.30600
O 	O 	0.68300 0.41516 0.47544 -0.39400
O 	O 	0.53548 0.30097 0.46665 -0.39900
O 	O 	0.69422 0.31284 0.37571 -0.36600
C 	C 	0.74570 0.23956 0.43945 0.31100
O 	O 	0.65416 0.29390 0.57443 -0.38400
O 	O 	0.75289 0.31909 0.58297 -0.42200
H 	H 	0.59844 0.23721 0.43273 0.16400
H 	H 	0.75844 0.38199 0.52017 0.17200
C 	C 	0.66128 0.29769 0.80268 -0.07600
C 	C 	0.62544 0.31321 0.78033 0.00800
C 	C 	0.62796 0.32007 0.73621 -0.05900
C 	C 	0.66662 0.31181 0.71411 0.01300
C 	C 	0.70367 0.29748 0.73685 0.01100
C 	C 	0.70065 0.29032 0.78095 -0.02200
C 	C 	0.74282 0.28987 0.71509 -0.06000
C 	C 	0.74427 0.29498 0.67079 0.00200
C 	C 	0.70651 0.30774 0.64752 -0.07600
C 	C 	0.66822 0.31693 0.66946 -0.02000
H 	H 	0.59492 0.31898 0.79688 0.03700
H 	H 	0.59955 0.33138 0.71921 0.04300
H 	H 	0.72892 0.27912 0.79840 0.02500
H 	H 	0.77171 0.27929 0.73234 0.03600
H 	H 	0.77382 0.28763 0.65425 0.02400
H 	H 	0.63963 0.32764 0.65185 0.04500
C 	C 	0.66993 0.30871 0.14491 -0.06900
C 	C 	0.67753 0.26587 0.16159 0.00400
C 	C 	0.68218 0.26467 0.20671 -0.05600
C 	C 	0.67909 0.30605 0.23575 0.01400
C 	C 	0.67406 0.35094 0.21952 0.01300
C 	C 	0.67040 0.35263 0.17427 -0.02200
C 	C 	0.67063 0.39212 0.24852 -0.05800
C 	C 	0.66964 0.38714 0.29293 0.00400
C 	C 	0.67263 0.34134 0.30898 -0.06900
C 	C 	0.67887 0.30180 0.28055 -0.01900
H 	H 	0.67832 0.23243 0.13951 0.04400
H 	H 	0.68687 0.23062 0.21891 0.04400
H 	H 	0.66643 0.38702 0.16181 0.03700
H 	H 	0.66748 0.42720 0.23653 0.04000
H 	H 	0.66578 0.41843 0.31482 0.03000
H 	H 	0.68128 0.26643 0.29287 0.04800
C 	C 	0.85401 0.74814 0.48048 0.02300
C 	C 	0.87461 0.71569 0.46016 -0.04900
C 	C 	0.84118 0.65088 0.45792 -0.03600
C 	C 	0.78837 0.61821 0.47779 0.00100
C 	C 	0.76895 0.65103 0.49918 -0.03600
C 	C 	0.80181 0.71572 0.50075 -0.05000
C 	C 	0.74977 0.54886 0.47275 0.00900
C 	C 	0.77601 0.51886 0.47553 -0.15300
C 	C 	0.88775 0.81643 0.48175 -0.04200
C 	C 	0.90799 0.84176 0.44607 -0.06400
H 	H 	0.91626 0.74053 0.44588 0.03900
H 	H 	0.85567 0.62597 0.44006 0.03800
H 	H 	0.72805 0.62629 0.51428 0.03500
H 	H 	0.78611 0.74046 0.51712 0.03800
H 	H 	0.69923 0.52204 0.46655 0.02700
H 	H 	0.82646 0.54548 0.48291 0.07300
H 	H 	0.89292 0.84573 0.51134 0.03800
H 	H 	0.90174 0.81271 0.41593 0.04400
C 	C 	0.86564 0.08446 0.42371 0.02400
C 	C 	0.89537 0.14891 0.42567 -0.05100
C 	C 	0.86198 0.17357 0.43021 -0.03600
C 	C 	0.79804 0.13360 0.43177 -0.00100
C 	C 	0.76791 0.06881 0.42826 -0.03600
C 	C 	0.80139 0.04424 0.42390 -0.05000
C 	C 	0.76435 0.16001 0.44265 0.00600
C 	C 	0.77046 0.20588 0.42327 -0.16200
C 	C 	0.90204 0.05934 0.42148 -0.04300
C 	C 	0.90070 0.02436 0.45045 -0.06300
H 	H 	0.94477 0.18017 0.42501 0.03800
H 	H 	0.88621 0.22387 0.43390 0.03300
H 	H 	0.71872 0.03761 0.42957 0.03400
H 	H 	0.77761 0.99411 0.42120 0.04000
H 	H 	0.73431 0.14169 0.46689 0.02400
H 	H 	0.79722 0.22124 0.39698 0.07900
H 	H 	0.93240 0.07201 0.39737 0.03900
H 	H 	0.87035 0.01185 0.47456 0.04300
C 	C 	0.40537 0.21310 0.46407 0.00800
C 	C 	0.44787 0.21354 0.49119 -0.15000
H 	H 	0.41951 0.24097 0.43822 0.03000
H 	H 	0.43304 0.18244 0.51504 0.07700
C 	C 	0.80668 0.64202 0.00662 -0.00100
C 	C 	0.78745 0.68043 0.01392 -0.03500
C 	C 	0.82907 0.74511 0.01509 -0.04800
C 	C 	0.89049 0.77199 0.00913 0.02200
C 	C 	0.91014 0.73380 0.00284 -0.04600
C 	C 	0.86844 0.66908 0.00149 -0.03100
C 	C 	0.93553 0.84068 0.01230 -0.03700
C 	C 	0.92167 0.87171 0.98822 -0.06700
C 	C 	0.76298 0.57403 0.00690 0.01400
C 	C 	0.75366 0.53114 0.97392 -0.15600
H 	H 	0.74027 0.66018 0.01872 0.03700
H 	H 	0.81388 0.77442 0.02124 0.04100
H 	H 	0.95773 0.75427 0.99905 0.03400
H 	H 	0.88432 0.64013 0.99706 0.03000
H 	H 	0.98072 0.86588 0.03396 0.03800
H 	H 	0.87655 0.84624 0.96640 0.04300
H 	H 	0.73664 0.55907 0.03341 0.03100
H 	H 	0.77863 0.54651 0.94673 0.07700
C 	C 	0.83340 0.17056 0.98950 0.00100
C 	C 	0.89785 0.20121 0.99398 -0.03800
C 	C 	0.92157 0.16648 0.99320 -0.05100
C 	C 	0.88094 0.10063 0.98805 0.02500
C 	C 	0.81653 0.06999 0.98353 -0.05200
C 	C 	0.79279 0.10467 0.98418 -0.03800
C 	C 	0.90489 0.06308 0.98330 -0.05200
C 	C 	0.95410 0.07733 0.01193 -0.05300
C 	C 	0.80829 0.20693 0.98538 -0.00300
C 	C 	0.76216 0.19610 0.00620 -0.14800
H 	H 	0.92946 0.25186 0.99728 0.03300
H 	H 	0.97127 0.19057 0.99545 0.03800
H 	H 	0.78475 0.01917 0.97882 0.03800
H 	H 	0.74278 0.08022 0.97927 0.03300
H 	H 	0.88076 0.02213 0.95691 0.03900
H 	H 	0.97821 0.11818 0.03840 0.04200
H 	H 	0.82754 0.24258 0.96486 0.02600
H 	H 	0.74599 0.16348 0.02901 0.07700
C 	C 	0.42141 0.21554 0.96863 0.00600
C 	C 	0.45303 0.19119 0.97315 -0.15000
H 	H 	0.44591 0.26512 0.96739 0.03200
H 	H 	0.42771 0.14101 0.97237 0.07300
