data_crystal

_cell_length_a 30.74981
_cell_length_b 31.02257
_cell_length_c 34.94081
_cell_angle_alpha 95.52847
_cell_angle_beta  95.52765
_cell_angle_gamma 125.54894

_symmetry_space_group_name_	'P 1'
_symmetry_space_group_name_H-M	'P 1'

loop_
_symmetry_equiv_pos_as_xyz
  x,y,z

loop_
_atom_site_label
_atom_site_type_symbol
_atom_site_fract_x
_atom_site_fract_y
_atom_site_fract_z
_atom_site_charge
N 	N 	0.00082 0.02995 0.45154 -0.14000
N 	N 	0.00113 0.95626 0.46112 -0.13500
N 	N 	0.02663 0.97679 0.98559 -0.13500
C 	C 	0.02811 0.00826 0.45655 0.13000
N 	N 	0.03145 0.05550 0.98869 -0.13700
C 	C 	0.97894 0.02743 0.99385 0.11200
C 	C 	0.05522 0.03012 0.98455 0.13000
C 	C 	0.97428 0.94871 0.99075 0.12800
N 	N 	0.95043 0.97396 0.99488 -0.13900
C 	C 	0.94639 0.99963 0.45116 0.11900
N 	N 	0.91939 0.94740 0.45583 -0.14000
C 	C 	0.94686 0.92578 0.46074 0.12700
Cu	Cu	0.64944 0.25572 0.99887 0.92700
Cu	Cu	0.69624 0.25733 0.91778 0.87100
Cu	Cu	0.68542 0.34287 0.94919 0.89600
Cu	Cu	0.64783 0.35464 0.02297 0.89400
C 	C 	0.65605 0.29182 0.07976 0.27800
O 	O 	0.56946 0.22330 0.99490 -0.36500
C 	C 	0.67163 0.30702 0.86424 0.27900
O 	O 	0.69346 0.33954 0.00358 -0.64000
O 	O 	0.64629 0.26306 0.94316 -0.64100
O 	O 	0.68277 0.21650 0.99857 -0.37500
O 	O 	0.74487 0.27129 0.96312 -0.44400
O 	O 	0.63379 0.31521 0.06772 -0.38300
O 	O 	0.72673 0.42057 0.95916 -0.38400
C 	C 	0.71977 0.44900 0.98512 0.28700
C 	C 	0.54871 0.24607 0.97939 0.28200
O 	O 	0.58122 0.29652 0.97523 -0.39300
O 	O 	0.68059 0.42551 0.00582 -0.39200
O 	O 	0.66374 0.26316 0.05466 -0.35700
C 	C 	0.72878 0.23603 0.98630 0.31000
O 	O 	0.69089 0.34756 0.89361 -0.38700
O 	O 	0.66505 0.26240 0.87009 -0.41700
H 	H 	0.73157 0.36251 0.01798 0.16400
H 	H 	0.60920 0.24191 0.92717 0.17200
Cu	Cu	0.72761 0.33675 0.44741 0.92700
Cu	Cu	0.72851 0.29401 0.52988 0.87100
Cu	Cu	0.64161 0.30407 0.49882 0.89700
Cu	Cu	0.62675 0.33757 0.42372 0.89400
C 	C 	0.68365 0.32087 0.36661 0.27600
O 	O 	0.76026 0.41598 0.44967 -0.36300
C 	C 	0.68024 0.32027 0.58385 0.27800
O 	O 	0.64299 0.29356 0.44423 -0.64000
O 	O 	0.72198 0.34237 0.50345 -0.64000
O 	O 	0.76651 0.30284 0.44811 -0.37400
O 	O 	0.71236 0.24365 0.48534 -0.44400
O 	O 	0.66338 0.34663 0.37783 -0.38200
O 	O 	0.56318 0.26338 0.49016 -0.38300
C 	C 	0.53384 0.27001 0.46460 0.29000
C 	C 	0.73752 0.43710 0.46476 0.28200
O 	O 	0.68702 0.40531 0.46984 -0.39200
O 	O 	0.55671 0.30728 0.44258 -0.39600
O 	O 	0.71856 0.32036 0.39150 -0.35700
C 	C 	0.74675 0.25783 0.46135 0.30900
O 	O 	0.63883 0.30129 0.55493 -0.38500
O 	O 	0.72515 0.32712 0.57726 -0.41800
H 	H 	0.61944 0.25533 0.43078 0.16300
H 	H 	0.74382 0.37963 0.51868 0.17200
C 	C 	0.75512 0.41259 0.72162 -0.04300
C 	C 	0.75361 0.41087 0.76140 -0.04300
C 	C 	0.70906 0.36602 0.77295 0.01500
C 	C 	0.66476 0.32352 0.74431 -0.00900
C 	C 	0.66602 0.32553 0.70427 -0.00900
C 	C 	0.71196 0.36963 0.69290 0.01500
C 	C 	0.62235 0.28238 0.67562 0.01500
C 	C 	0.57709 0.23825 0.68719 -0.04300
C 	C 	0.57612 0.23598 0.72695 -0.04300
C 	C 	0.62022 0.27797 0.75564 0.01400
C 	C 	0.62132 0.27406 0.79538 -0.02700
C 	C 	0.66643 0.31535 0.82378 -0.06200
C 	C 	0.70932 0.36207 0.81266 -0.02700
C 	C 	0.71509 0.36920 0.65305 -0.02700
C 	C 	0.67265 0.32515 0.62459 -0.06200
C 	C 	0.62554 0.28278 0.63582 -0.02800
H 	H 	0.79029 0.44697 0.71319 0.03700
H 	H 	0.78760 0.44398 0.78318 0.03700
H 	H 	0.54309 0.20515 0.66541 0.03800
H 	H 	0.54140 0.20113 0.73537 0.03700
H 	H 	0.58793 0.23837 0.80413 0.03800
H 	H 	0.74398 0.39402 0.83468 0.04200
H 	H 	0.75107 0.40222 0.64423 0.03900
H 	H 	0.59269 0.24895 0.61377 0.04300
C 	C 	0.76259 0.33039 0.20956 -0.04300
C 	C 	0.76647 0.33418 0.25020 -0.04200
C 	C 	0.72001 0.31472 0.26696 0.01600
C 	C 	0.66896 0.28968 0.24256 -0.00800
C 	C 	0.66507 0.28598 0.20168 -0.00800
C 	C 	0.71220 0.30714 0.18517 0.01700
C 	C 	0.61436 0.26286 0.17747 0.01700
C 	C 	0.56762 0.24185 0.19410 -0.04200
C 	C 	0.57147 0.24547 0.23466 -0.04300
C 	C 	0.62212 0.27019 0.25912 0.01600
C 	C 	0.62683 0.27755 0.29994 -0.02800
C 	C 	0.67798 0.30480 0.32434 -0.05700
C 	C 	0.72425 0.32187 0.30785 -0.02400
C 	C 	0.70861 0.30646 0.14466 -0.02900
C 	C 	0.65853 0.28568 0.12090 -0.05500
C 	C 	0.61133 0.26270 0.13716 -0.02500
H 	H 	0.79895 0.34632 0.19715 0.03900
H 	H 	0.80579 0.35302 0.26865 0.04000
H 	H 	0.52838 0.22347 0.17568 0.03900
H 	H 	0.53516 0.22984 0.24709 0.03700
H 	H 	0.59110 0.26375 0.31279 0.03100
H 	H 	0.76370 0.34271 0.32674 0.05000
H 	H 	0.74488 0.32374 0.13189 0.03800
H 	H 	0.57260 0.24594 0.11854 0.04500
C 	C 	0.76624 0.49617 0.47162 -0.09000
C 	C 	0.74786 0.51968 0.49510 0.01100
C 	C 	0.77028 0.57429 0.49755 -0.06700
C 	C 	0.81156 0.60606 0.47684 0.02700
C 	C 	0.83155 0.58327 0.45469 -0.06600
C 	C 	0.80907 0.52862 0.45210 0.01300
C 	C 	0.83262 0.66269 0.47727 -0.00200
C 	C 	0.88695 0.70461 0.49423 -0.03500
C 	C 	0.90781 0.75808 0.49257 -0.04200
C 	C 	0.87455 0.77001 0.47392 0.01400
C 	C 	0.81995 0.72830 0.45766 -0.04200
C 	C 	0.79899 0.67477 0.45937 -0.03500
C 	C 	0.89755 0.82460 0.46930 0.00300
C 	C 	0.91876 0.87062 0.46537 -0.03900
H 	H 	0.71558 0.49547 0.51092 0.03100
H 	H 	0.75511 0.59175 0.51515 0.04600
H 	H 	0.86366 0.60761 0.43878 0.04700
H 	H 	0.82385 0.51124 0.43397 0.03800
H 	H 	0.91313 0.69571 0.50827 0.03800
H 	H 	0.95006 0.79014 0.50521 0.04300
H 	H 	0.79401 0.73719 0.44316 0.04300
H 	H 	0.75698 0.64266 0.44619 0.03900
C 	C 	0.91714 0.02386 0.44668 -0.02200
C 	C 	0.87795 0.01305 0.46958 -0.02400
C 	C 	0.85444 0.04039 0.46828 -0.04700
C 	C 	0.86978 0.07865 0.44400 0.01200
C 	C 	0.90740 0.08799 0.42003 -0.04800
C 	C 	0.93098 0.06074 0.42135 -0.02000
C 	C 	0.84919 0.11139 0.44557 0.00800
C 	C 	0.81604 0.10707 0.41256 -0.04400
C 	C 	0.79672 0.13831 0.41418 -0.03000
C 	C 	0.81059 0.17413 0.44874 -0.01200
C 	C 	0.84411 0.17883 0.48157 -0.03100
C 	C 	0.86335 0.14760 0.48001 -0.04400
C 	C 	0.78822 0.20402 0.45135 0.04700
C 	C 	0.76942 0.22884 0.45500 -0.12200
H 	H 	0.86690 0.98472 0.48924 0.04400
H 	H 	0.82513 0.03265 0.48670 0.04100
H 	H 	0.91932 0.11727 0.40107 0.04200
H 	H 	0.96057 0.06887 0.40310 0.04000
H 	H 	0.80500 0.07932 0.38581 0.04100
H 	H 	0.77066 0.13431 0.38873 0.03900
H 	H 	0.85489 0.20634 0.50840 0.03200
H 	H 	0.88927 0.15155 0.50553 0.04000
C 	C 	0.47507 0.24048 0.46455 -0.08800
C 	C 	0.44505 0.18872 0.47394 0.01400
C 	C 	0.38921 0.16049 0.47329 -0.06700
C 	C 	0.36290 0.18373 0.46329 0.02800
C 	C 	0.39287 0.23552 0.45416 -0.06700
C 	C 	0.44865 0.26378 0.45478 0.01500
C 	C 	0.30391 0.15374 0.46212 -0.00200
C 	C 	0.26871 0.13900 0.42669 -0.03500
C 	C 	0.21281 0.11089 0.42564 -0.04200
C 	C 	0.19179 0.09735 0.45996 0.01400
C 	C 	0.22688 0.11217 0.49539 -0.04200
C 	C 	0.28279 0.14030 0.49649 -0.03500
C 	C 	0.13404 0.06671 0.45860 0.00400
C 	C 	0.08567 0.04045 0.45757 -0.03900
H 	H 	0.46480 0.17011 0.48127 0.03100
H 	H 	0.36632 0.12042 0.48026 0.04600
H 	H 	0.37294 0.25392 0.44669 0.04700
H 	H 	0.47135 0.30391 0.44794 0.03300
H 	H 	0.28464 0.14912 0.40000 0.03800
H 	H 	0.18588 0.09940 0.39812 0.04300
H 	H 	0.21085 0.10172 0.52202 0.04300
H 	H 	0.30968 0.15176 0.52401 0.03900
C 	C 	0.75099 0.50773 0.98688 -0.08900
C 	C 	0.76089 0.54160 0.02152 0.01500
C 	C 	0.78867 0.59697 0.02282 -0.06500
C 	C 	0.80691 0.61903 0.98955 0.02600
C 	C 	0.79766 0.58541 0.95506 -0.06700
C 	C 	0.76984 0.53002 0.95370 0.01500
C 	C 	0.83535 0.67728 0.99073 -0.00400
C 	C 	0.81227 0.69540 0.96661 -0.03500
C 	C 	0.83964 0.75062 0.96733 -0.04200
C 	C 	0.89015 0.78801 0.99218 0.01200
C 	C 	0.91307 0.77002 0.01651 -0.04000
C 	C 	0.88577 0.71482 0.01581 -0.03300
C 	C 	0.91925 0.84471 0.99186 0.00400
C 	C 	0.94407 0.89220 0.99144 -0.04000
H 	H 	0.74709 0.52506 0.04744 0.02700
H 	H 	0.79571 0.62267 0.04959 0.04600
H 	H 	0.81186 0.60217 0.92929 0.04700
H 	H 	0.76226 0.50440 0.92671 0.03800
H 	H 	0.77323 0.66672 0.94731 0.03900
H 	H 	0.82171 0.76427 0.94843 0.04300
H 	H 	0.95217 0.79874 0.03575 0.04300
H 	H 	0.90394 0.70120 0.03448 0.03800
C 	C 	0.95253 0.05455 0.99737 -0.02300
C 	C 	0.91528 0.04049 0.02271 -0.01700
C 	C 	0.88785 0.06389 0.02433 -0.04900
C 	C 	0.89734 0.10146 0.00063 0.01500
C 	C 	0.93547 0.11651 0.97601 -0.05100
C 	C 	0.96299 0.09322 0.97440 -0.01900
C 	C 	0.86536 0.12293 0.00004 0.01100
C 	C 	0.82746 0.10860 0.96643 -0.04800
C 	C 	0.79826 0.13016 0.96533 -0.02900
C 	C 	0.80673 0.16618 0.99778 -0.01700
C 	C 	0.84397 0.17996 0.03163 -0.02600
C 	C 	0.87318 0.15831 0.03279 -0.04600
C 	C 	0.77922 0.19102 0.99546 0.04800
C 	C 	0.75615 0.21166 0.99211 -0.12500
H 	H 	0.90738 0.01126 0.04097 0.04000
H 	H 	0.85857 0.05216 0.04350 0.04300
H 	H 	0.94318 0.14566 0.95771 0.04100
H 	H 	0.99150 0.10433 0.95466 0.03900
H 	H 	0.82092 0.08104 0.94111 0.04000
H 	H 	0.76953 0.11934 0.93907 0.03200
H 	H 	0.85077 0.20785 0.05681 0.03800
H 	H 	0.90228 0.16951 0.05889 0.04100
C 	C 	0.48927 0.21805 0.97263 -0.09000
C 	C 	0.45662 0.17627 0.99269 0.01100
C 	C 	0.40173 0.15458 0.99040 -0.06900
C 	C 	0.37883 0.17423 0.96798 0.02800
C 	C 	0.41060 0.21411 0.94646 -0.06700
C 	C 	0.46558 0.23591 0.94871 0.01100
C 	C 	0.32253 0.15508 0.96881 -0.00500
C 	C 	0.28128 0.12114 0.93597 -0.03500
C 	C 	0.22710 0.09915 0.93803 -0.04200
C 	C 	0.21396 0.11111 0.97287 0.01200
C 	C 	0.25534 0.14642 0.00526 -0.04000
C 	C 	0.30946 0.16837 0.00325 -0.03300
C 	C 	0.15786 0.08371 0.97649 0.00400
C 	C 	0.11096 0.05983 0.97999 -0.04000
H 	H 	0.47411 0.16182 0.01108 0.04000
H 	H 	0.37726 0.12333 0.00676 0.04900
H 	H 	0.39304 0.22910 0.92874 0.04600
H 	H 	0.48996 0.26736 0.93248 0.03100
H 	H 	0.29104 0.11082 0.90923 0.03800
H 	H 	0.19530 0.07189 0.91285 0.04300
H 	H 	0.24547 0.15591 0.03226 0.04300
H 	H 	0.34113 0.19486 0.02866 0.03900
