data_crystal

_cell_length_a 14.87180
_cell_length_b 15.83669
_cell_length_c 39.48384
_cell_angle_alpha 90.35262
_cell_angle_beta  90.35413
_cell_angle_gamma 119.34463

_symmetry_space_group_name_	'P 1'
_symmetry_space_group_name_H-M	'P 1'

loop_
_symmetry_equiv_pos_as_xyz
  x,y,z

loop_
_atom_site_label
_atom_site_type_symbol
_atom_site_fract_x
_atom_site_fract_y
_atom_site_fract_z
_atom_site_charge
Ni	Ni	0.07347 0.11410 0.80285 1.12200
Ni	Ni	0.08347 0.91971 0.78991 1.13200
C 	C 	0.15770 0.21373 0.30456 0.30700
C 	C 	0.10795 0.16749 0.21247 0.27600
O 	O 	0.07545 0.83076 0.24722 -0.35200
O 	O 	0.08827 0.19605 0.28130 -0.37700
O 	O 	0.08398 0.89748 0.31770 -0.36900
O 	O 	0.01334 0.10184 0.22090 -0.37300
O 	O 	0.05710 0.99888 0.26308 -0.67600
H 	H 	0.04863 0.98382 0.23860 0.16500
C 	C 	0.15752 0.48661 0.63147 -0.09800
C 	C 	0.15078 0.52783 0.60086 0.00300
C 	C 	0.07729 0.45443 0.65514 0.13700
C 	C 	0.22012 0.53619 0.57264 0.00500
C 	C 	0.08191 0.40308 0.68658 -0.22300
H 	H 	0.22227 0.47446 0.63598 0.05500
C 	C 	0.19486 0.45450 0.55229 -0.09800
H 	H 	0.13532 0.38371 0.56031 0.05800
H 	H 	0.16107 0.41514 0.69135 0.08100
H 	H 	0.14357 0.36027 0.48313 0.08400
C 	C 	0.10307 0.71255 0.00884 -0.02800
C 	C 	0.19099 0.78583 0.02560 0.05200
C 	C 	0.19832 0.88166 0.03438 -0.19000
C 	C 	0.01931 0.78987 0.95592 -0.07900
H 	H 	0.28009 0.93835 0.03792 0.07600
H 	H 	0.01667 0.73935 0.93581 0.06500
H 	H 	0.10101 0.83943 0.96284 0.05400
O 	O 	0.15875 0.96196 0.83469 -0.33900
O 	O 	0.19435 0.12319 0.83117 -0.36400
H 	H 	0.05452 0.68026 0.49634 0.07400
H 	H 	0.05933 0.43061 0.70905 0.10100
H 	H 	0.19421 0.31260 0.51492 0.06700
C 	C 	0.21226 0.37634 0.49892 -0.20900
H 	H 	0.12803 0.65801 0.55769 0.06100
H 	H 	0.29203 0.74755 0.58428 0.06500
C 	C 	0.10323 0.62738 0.99887 -0.07200
H 	H 	0.04035 0.57423 0.98328 0.04800
C 	C 	0.17452 0.88480 0.23983 0.27400
C 	C 	0.18126 0.92356 0.31411 0.32800
C 	C 	0.12009 0.25279 0.19533 -0.03000
C 	C 	0.13094 0.32895 0.18484 -0.05400
C 	C 	0.18904 0.29763 0.32587 -0.03800
C 	C 	0.30293 0.62705 0.56331 0.02500
C 	C 	0.34154 0.71360 0.58676 -0.17500
H 	H 	0.34132 0.69196 0.61347 0.06900
C 	C 	0.44516 0.14502 0.91194 0.29000
O 	O 	0.45173 0.18585 0.94247 -0.38000
O 	O 	0.44867 0.26231 0.64814 -0.37900
C 	C 	0.22277 0.11021 0.75721 0.30300
C 	C 	0.19996 0.05160 0.84742 0.24100
O 	O 	0.14733 0.12998 0.75927 -0.39000
O 	O 	0.21144 0.02713 0.76802 -0.39100
C 	C 	0.33982 0.77344 0.45619 0.28700
C 	C 	0.24348 0.46606 0.35539 0.29500
C 	C 	0.32281 0.57612 0.47189 0.30800
C 	C 	0.27273 0.72976 0.34247 0.27700
Ni	Ni	0.24363 0.60963 0.40508 1.10900
Ni	Ni	0.42225 0.65811 0.34842 1.12200
Ni	Ni	0.48895 0.71040 0.42771 1.11800
O 	O 	0.27415 0.73697 0.43024 -0.37600
O 	O 	0.43620 0.78812 0.45431 -0.38100
O 	O 	0.21045 0.47443 0.38526 -0.36600
O 	O 	0.28693 0.54109 0.33575 -0.37300
O 	O 	0.24116 0.55425 0.45304 -0.38500
O 	O 	0.41007 0.59465 0.45788 -0.39700
O 	O 	0.20648 0.65182 0.35920 -0.35600
O 	O 	0.35889 0.73691 0.33028 -0.35300
O 	O 	0.56248 0.64390 0.40851 -0.39900
O 	O 	0.38541 0.67476 0.39363 -0.71300
H 	H 	0.39614 0.74085 0.39071 0.15100
C 	C 	0.26222 0.69066 0.21260 0.27400
C 	C 	0.26233 0.62840 0.06997 0.30700
C 	C 	0.15759 0.42842 0.17943 0.30500
C 	C 	0.34553 0.82338 0.12712 0.29000
C 	C 	0.41179 0.50600 0.12420 0.30000
Ni	Ni	0.19822 0.60898 0.14238 1.11000
Ni	Ni	0.36609 0.58213 0.18679 1.11800
O 	O 	0.18349 0.62799 0.19390 -0.35200
O 	O 	0.34683 0.68099 0.21653 -0.35900
O 	O 	0.18508 0.58205 0.09061 -0.37500
O 	O 	0.34973 0.62842 0.07514 -0.38500
O 	O 	0.13852 0.45863 0.15058 -0.36300
O 	O 	0.22133 0.49150 0.20078 -0.37900
O 	O 	0.24734 0.75666 0.13271 -0.36400
O 	O 	0.40479 0.80438 0.10711 -0.38600
O 	O 	0.36167 0.48014 0.15345 -0.37300
O 	O 	0.33785 0.64282 0.14948 -0.70300
H 	H 	0.36277 0.70545 0.16059 0.13100
Ni	Ni	0.20222 0.07671 0.26366 1.09700
O 	O 	0.21278 0.97712 0.23106 -0.34700
O 	O 	0.21672 0.17392 0.30234 -0.36900
O 	O 	0.24535 0.00732 0.30038 -0.39500
O 	O 	0.19238 0.16680 0.22508 -0.36000
C 	C 	0.25773 0.77482 0.22493 -0.04000
C 	C 	0.23037 0.83349 0.23203 -0.02700
C 	C 	0.21290 0.37209 0.34109 -0.03700
C 	C 	0.21736 0.85846 0.32454 -0.05300
C 	C 	0.24321 0.80012 0.33274 -0.01900
C 	C 	0.26689 0.94410 0.59936 -0.05400
C 	C 	0.26684 0.97376 0.56598 0.03300
C 	C 	0.28452 0.06864 0.56036 -0.00200
C 	C 	0.33144 0.13848 0.58610 -0.02100
C 	C 	0.35803 0.11291 0.61693 -0.09100
C 	C 	0.31200 0.01381 0.62526 0.03600
C 	C 	0.28444 0.92074 0.53832 -0.01500
C 	C 	0.27107 0.09944 0.52555 -0.16300
H 	H 	0.35576 0.21341 0.58096 0.03400
C 	C 	0.31592 0.98247 0.66092 -0.12600
H 	H 	0.24278 0.86883 0.60445 0.04600
C 	C 	0.38579 0.94837 0.52807 0.07600
C 	C 	0.40111 0.90441 0.49962 -0.03700
C 	C 	0.31772 0.82498 0.48357 -0.09000
C 	C 	0.21614 0.79201 0.49565 0.09300
C 	C 	0.20038 0.84299 0.52213 -0.08200
C 	C 	0.12490 0.70262 0.48103 -0.20600
H 	H 	0.12279 0.82093 0.53058 0.05600
H 	H 	0.38417 0.97225 0.66416 0.08100
H 	H 	0.24526 0.91295 0.66637 0.07100
H 	H 	0.32031 0.03708 0.67965 0.06300
H 	H 	0.20398 0.03948 0.51221 0.05700
H 	H 	0.34184 0.12073 0.51059 0.05800
H 	H 	0.25715 0.16218 0.52715 0.05700
H 	H 	0.14063 0.64099 0.48072 0.07600
H 	H 	0.10761 0.71715 0.45501 0.08500
C 	C 	0.34558 0.63790 0.53089 -0.01900
C 	C 	0.30924 0.55837 0.50856 -0.11700
C 	C 	0.24121 0.46475 0.52061 0.10500
H 	H 	0.40251 0.70914 0.52237 0.03500
H 	H 	0.42198 0.76865 0.58058 0.06500
H 	H 	0.27685 0.38782 0.48215 0.08000
C 	C 	0.34226 0.24355 0.44337 -0.17500
H 	H 	0.35937 0.38226 0.39920 0.04400
H 	H 	0.40877 0.42343 0.55838 0.06900
H 	H 	0.44638 0.37575 0.59288 0.06600
H 	H 	0.28213 0.21956 0.42317 0.07000
H 	H 	0.31119 0.25731 0.46695 0.06100
C 	C 	0.32345 0.18461 0.74690 -0.04500
C 	C 	0.40914 0.24622 0.73897 -0.03500
C 	C 	0.26469 0.76338 0.03867 -0.02700
C 	C 	0.24423 0.66694 0.03836 -0.10500
C 	C 	0.17160 0.60224 0.01456 0.10200
H 	H 	0.33055 0.81794 0.05261 0.05300
C 	C 	0.15528 0.50137 0.01011 -0.21000
H 	H 	0.22625 0.49905 0.01699 0.08600
H 	H 	0.13569 0.47713 0.98330 0.07500
H 	H 	0.09149 0.45079 0.02656 0.08800
C 	C 	0.43921 0.06923 0.10177 -0.02700
C 	C 	0.35938 0.98033 0.11349 0.04400
C 	C 	0.38252 0.92561 0.13607 -0.12800
C 	C 	0.47453 0.97482 0.15545 0.15500
C 	C 	0.41822 0.12178 0.07383 -0.15300
H 	H 	0.28350 0.94865 0.10194 0.03200
C 	C 	0.48695 0.93494 0.18851 -0.23000
H 	H 	0.61299 0.32874 0.11294 0.06300
H 	H 	0.33519 0.10081 0.07264 0.04700
H 	H 	0.44078 0.10427 0.04912 0.05500
H 	H 	0.46276 0.20127 0.07824 0.05800
H 	H 	0.45361 0.95853 0.20913 0.09500
H 	H 	0.56966 0.96134 0.19447 0.09300
C 	C 	0.31594 0.37579 0.98888 -0.00000
C 	C 	0.29157 0.28313 0.97608 0.02400
C 	C 	0.31093 0.27404 0.94177 -0.02300
C 	C 	0.37496 0.35763 0.92353 -0.11000
C 	C 	0.34071 0.40009 0.02574 0.00200
C 	C 	0.25182 0.19642 0.99890 -0.17500
H 	H 	0.28869 0.20369 0.93113 0.05200
C 	C 	0.38879 0.43604 0.09558 -0.10900
C 	C 	0.28611 0.37282 0.08490 0.10800
C 	C 	0.26199 0.35955 0.04994 -0.09500
C 	C 	0.20713 0.30668 0.10951 -0.21800
H 	H 	0.18253 0.31511 0.04171 0.05400
H 	H 	0.17648 0.18080 0.00960 0.06400
H 	H 	0.30790 0.21021 0.01977 0.05600
H 	H 	0.24013 0.13065 0.98490 0.06100
H 	H 	0.14884 0.32999 0.11332 0.09700
H 	H 	0.24337 0.30486 0.13391 0.09500
H 	H 	0.16715 0.23139 0.09927 0.07500
C 	C 	0.34924 0.10452 0.89321 -0.06200
C 	C 	0.27736 0.07830 0.87364 -0.02100
H 	H 	0.02871 0.32399 0.68371 0.09700
C 	C 	0.45018 0.18566 0.63546 0.28900
C 	C 	0.34023 0.45067 0.96541 -0.09300
C 	C 	0.36955 0.44150 0.93223 0.10500
Ni	Ni	0.44151 0.69868 0.11560 1.12000
H 	H 	0.35943 0.18367 0.44778 0.06300
H 	H 	0.34831 0.51925 0.97389 0.05200
H 	H 	0.44808 0.85508 0.18773 0.08400
C 	C 	0.67930 0.31656 0.11788 -0.17400
O 	O 	0.47884 0.56838 0.35944 -0.38700
C 	C 	0.43371 0.39534 0.40868 -0.01500
C 	C 	0.47740 0.37108 0.91435 0.31400
O 	O 	0.48831 0.32426 0.88825 -0.37000
O 	O 	0.52819 0.16888 0.89410 -0.38900
C 	C 	0.51186 0.31780 0.72928 0.28900
O 	O 	0.51695 0.15978 0.64663 -0.38800
O 	O 	0.52484 0.38823 0.70915 -0.36500
C 	C 	0.51526 0.56526 0.38969 0.30600
O 	O 	0.56123 0.77894 0.34709 -0.37100
O 	O 	0.48234 0.59654 0.11952 -0.38800
C 	C 	0.47793 0.02274 0.54804 -0.25500
H 	H 	0.47879 0.93057 0.49046 0.05700
H 	H 	0.47383 0.99883 0.57463 0.10000
H 	H 	0.47974 0.09344 0.54775 0.07900
C 	C 	0.47532 0.41955 0.56964 -0.20200
H 	H 	0.46024 0.41794 0.50184 0.05700
C 	C 	0.43874 0.33382 0.43323 0.03000
C 	C 	0.54075 0.10284 0.11403 0.03500
C 	C 	0.55479 0.06282 0.14370 -0.14900
C 	C 	0.41453 0.52763 0.90930 -0.21100
C 	C 	0.44427 0.45557 0.03704 0.02800
C 	C 	0.46703 0.46072 0.07179 -0.01800
H 	H 	0.37234 0.56892 0.91198 0.07800
H 	H 	0.40846 0.50423 0.88240 0.08700
H 	H 	0.75100 0.38779 0.11948 0.05700
H 	H 	0.63030 0.09502 0.15573 0.05900
O 	O 	0.52048 0.65803 0.18430 -0.38800
H 	H 	0.66949 0.28131 0.14284 0.06300
Ni	Ni	0.57635 0.31015 0.96244 1.11800
O 	O 	0.54707 0.40321 0.93802 -0.40500
Ni	Ni	0.57865 0.39401 0.66056 1.11000
O 	O 	0.59191 0.31169 0.74067 -0.35600
O 	O 	0.55375 0.78450 0.14899 -0.38500
H 	H 	0.55176 0.03363 0.53736 0.06400
C 	C 	0.49955 0.37926 0.51020 -0.09500
C 	C 	0.51821 0.37548 0.54485 0.09600
C 	C 	0.52360 0.47980 0.39947 -0.10700
H 	H 	0.53566 0.49442 0.57640 0.07900
C 	C 	0.64749 0.09826 0.06676 -0.08700
C 	C 	0.62899 0.15306 0.09097 -0.00900
C 	C 	0.68641 0.25512 0.08989 0.02800
H 	H 	0.60980 0.02006 0.06893 0.04700
C 	C 	0.52717 0.52219 0.01331 -0.18200
H 	H 	0.54666 0.50048 0.08026 0.03800
H 	H 	0.49702 0.57580 0.91599 0.08400
H 	H 	0.51038 0.57934 0.00436 0.07100
H 	H 	0.53218 0.48095 0.99146 0.07700
C 	C 	0.06768 0.54594 0.59534 0.05200
O 	O 	0.58922 0.83005 0.40299 -0.37900
C 	C 	0.57427 0.75005 0.17671 0.29300
C 	C 	0.53477 0.33737 0.48610 0.00400
C 	C 	0.53349 0.36138 0.44993 0.00200
Ni	Ni	0.61657 0.30757 0.88249 1.12100
O 	O 	0.62992 0.23357 0.98748 -0.39200
H 	H 	0.66595 0.25626 0.93036 0.16500
C 	C 	0.61671 0.34236 0.59140 0.29300
O 	O 	0.62184 0.41283 0.61037 -0.38600
C 	C 	0.62410 0.82401 0.37290 0.29000
C 	C 	0.58018 0.33430 0.55550 -0.10700
H 	H 	0.65069 0.05358 0.99338 0.07300
H 	H 	0.60349 0.55967 0.02604 0.07100
Ni	Ni	0.98886 0.86773 0.27745 1.10500
H 	H 	0.98703 0.83454 0.94551 0.03500
C 	C 	0.00219 0.70800 0.01279 0.10300
C 	C 	0.95660 0.73232 0.98566 -0.07300
H 	H 	0.16541 0.90643 0.01404 0.07600
C 	C 	0.72567 0.27289 0.99932 0.29900
C 	C 	0.79266 0.50583 0.87554 0.30700
C 	C 	0.74286 0.50936 0.98022 0.32800
C 	C 	0.78911 0.25521 0.88347 0.27800
Ni	Ni	0.81016 0.40216 0.93549 1.11100
O 	O 	0.80325 0.35169 0.98550 -0.38000
O 	O 	0.84920 0.47214 0.88914 -0.37500
O 	O 	0.69272 0.45101 0.87245 -0.37100
O 	O 	0.78285 0.51147 0.95086 -0.39200
O 	O 	0.67378 0.42578 0.99276 -0.39300
O 	O 	0.83407 0.29734 0.91258 -0.37500
O 	O 	0.73556 0.28682 0.86509 -0.35900
O 	O 	0.66900 0.31943 0.92777 -0.71000
C 	C 	0.76152 0.56093 0.69412 0.28800
C 	C 	0.73938 0.19177 0.70869 0.30600
C 	C 	0.89009 0.39929 0.66387 0.28400
Ni	Ni	0.67299 0.24371 0.64641 1.11400
Ni	Ni	0.73027 0.37033 0.71653 1.12000
O 	O 	0.69405 0.53731 0.66913 -0.36400
O 	O 	0.74041 0.50175 0.71957 -0.37700
O 	O 	0.67602 0.15672 0.68278 -0.38700
O 	O 	0.87224 0.42058 0.69527 -0.38700
O 	O 	0.82968 0.31381 0.64873 -0.39100
O 	O 	0.67143 0.29998 0.59992 -0.39300
O 	O 	0.72918 0.24906 0.72995 -0.38300
O 	O 	0.66827 0.34482 0.67191 -0.69800
H 	H 	0.72522 0.39823 0.65991 0.12400
C 	C 	0.91195 0.77291 0.83406 0.27900
C 	C 	0.90131 0.07820 0.75342 0.26700
C 	C 	0.91397 0.81481 0.74013 0.27200
C 	C 	0.89251 0.08181 0.84213 0.26200
Ni	Ni	0.86020 0.90874 0.79663 1.11200
O 	O 	0.85676 0.81833 0.83537 -0.36200
O 	O 	0.97777 0.78887 0.80911 -0.37700
O 	O 	0.86917 0.98517 0.75332 -0.35200
O 	O 	0.96810 0.13667 0.77642 -0.38200
O 	O 	0.85201 0.80055 0.76541 -0.36000
O 	O 	0.01359 0.87638 0.74340 -0.33400
O 	O 	0.82630 0.99805 0.82751 -0.34000
O 	O 	0.99256 0.11148 0.84416 -0.39500
O 	O 	0.00311 0.97773 0.80369 -0.69700
H 	H 	0.00370 0.97014 0.82842 0.16900
C 	C 	0.89452 0.93908 0.32866 0.33600
C 	C 	0.83378 0.87939 0.23391 0.28700
Ni	Ni	0.97584 0.06115 0.26927 1.09500
O 	O 	0.95207 0.02890 0.31868 -0.43000
O 	O 	0.88284 0.82995 0.23977 -0.37900
O 	O 	0.84101 0.94582 0.25558 -0.37700
O 	O 	0.88399 0.86613 0.30965 -0.39100
C 	C 	0.67138 0.80460 0.19358 -0.04400
C 	C 	0.74849 0.84053 0.21073 -0.03500
C 	C 	0.81283 0.91798 0.35164 -0.05300
C 	C 	0.73060 0.88256 0.36526 -0.02900
C 	C 	0.98906 0.51588 0.61942 -0.04300
C 	C 	0.98943 0.46379 0.64790 -0.12800
C 	C 	0.05726 0.58843 0.56245 -0.14400
H 	H 	0.92263 0.52516 0.61441 0.04000
H 	H 	0.99156 0.60321 0.56286 0.03700
H 	H 	0.04435 0.53726 0.54122 0.06600
C 	C 	0.58347 0.28487 0.49688 0.02000
C 	C 	0.60967 0.28703 0.53126 -0.02100
C 	C 	0.61071 0.22913 0.47177 -0.17000
H 	H 	0.65346 0.25221 0.53905 0.03700
C 	C 	0.62030 0.49114 0.40948 0.10400
C 	C 	0.62479 0.43366 0.43563 -0.09200
C 	C 	0.71880 0.57067 0.39503 -0.20500
H 	H 	0.69870 0.45090 0.44681 0.04800
H 	H 	0.68319 0.27937 0.45872 0.05900
H 	H 	0.54785 0.19203 0.45270 0.06100
H 	H 	0.62168 0.17246 0.48456 0.05400
H 	H 	0.74683 0.63730 0.41081 0.08000
H 	H 	0.70652 0.58671 0.36859 0.08200
H 	H 	0.77926 0.54878 0.39461 0.06400
C 	C 	0.79465 0.14444 0.72031 -0.05500
C 	C 	0.84405 0.11245 0.73400 -0.03800
C 	C 	0.87799 0.73862 0.71543 -0.03200
C 	C 	0.82956 0.66119 0.70150 -0.04100
C 	C 	0.84845 0.68482 0.98330 0.03200
C 	C 	0.79230 0.59842 0.00122 -0.15100
C 	C 	0.83169 0.59443 0.03328 0.13600
C 	C 	0.93835 0.65099 0.03911 -0.16300
H 	H 	0.81214 0.69923 0.96188 0.03200
C 	C 	0.76071 0.54596 0.06238 -0.22400
H 	H 	0.97245 0.64275 0.06234 0.06100
H 	H 	0.15551 0.87455 0.05807 0.07900
H 	H 	0.73521 0.59567 0.07305 0.07600
H 	H 	0.80099 0.52900 0.08274 0.06900
H 	H 	0.69203 0.47736 0.05433 0.08400
C 	C 	0.74424 0.29941 0.06085 -0.02100
C 	C 	0.74000 0.24232 0.03294 -0.10800
C 	C 	0.70620 0.14335 0.03810 0.09300
H 	H 	0.78160 0.37727 0.05836 0.03800
C 	C 	0.71842 0.08309 0.01081 -0.20000
H 	H 	0.72445 0.02191 0.02207 0.05900
H 	H 	0.78965 0.12735 0.99612 0.06800
C 	C 	0.82198 0.19277 0.86778 -0.03900
C 	C 	0.85376 0.14180 0.85609 -0.03800
C 	C 	0.83974 0.60316 0.86333 -0.04800
C 	C 	0.87386 0.68275 0.85141 -0.03000
