data_crystal

_cell_length_a 24.32655
_cell_length_b 24.66771
_cell_length_c 34.99035
_cell_angle_alpha 95.52049
_cell_angle_beta  95.51883
_cell_angle_gamma 125.67471

_symmetry_space_group_name_	'P 1'
_symmetry_space_group_name_H-M	'P 1'

loop_
_symmetry_equiv_pos_as_xyz
  x,y,z

loop_
_atom_site_label
_atom_site_type_symbol
_atom_site_fract_x
_atom_site_fract_y
_atom_site_fract_z
_atom_site_charge
N 	N 	0.04058 0.97304 0.97571 -0.13600
C 	C 	0.07817 0.04020 0.99157 0.09900
N 	N 	0.04747 0.07191 0.99180 -0.13200
C 	C 	0.02570 0.00231 0.46665 0.09600
C 	C 	0.19144 0.05278 0.45898 0.07800
C 	C 	0.18639 0.09103 0.43426 0.02200
N 	N 	0.13989 0.02627 0.47912 -0.16200
C 	C 	0.10008 0.04520 0.46674 0.06000
C 	C 	0.12915 0.08786 0.43987 -0.07100
H 	H 	0.10255 0.09978 0.41978 0.05700
H 	H 	0.12576 0.98753 0.49494 0.09100
H 	H 	0.02713 0.16925 0.97302 0.08800
N 	N 	0.19656 0.14478 0.01817 -0.16200
C 	C 	0.14968 0.07655 0.01232 0.06100
C 	C 	0.18107 0.04562 0.02091 -0.06800
H 	H 	0.16035 0.99378 0.00867 0.05600
H 	H 	0.18973 0.17678 0.00441 0.09200
C 	C 	0.25495 0.06608 0.47260 -0.08000
C 	C 	0.31154 0.11381 0.45691 0.01700
C 	C 	0.30725 0.15393 0.43312 0.07900
C 	C 	0.24516 0.14593 0.42345 -0.08300
H 	H 	0.26110 0.04393 0.49641 0.06100
H 	H 	0.24379 0.18337 0.41047 0.05900
C 	C 	0.25818 0.15823 0.03064 0.07800
C 	C 	0.32046 0.21556 0.02423 -0.07800
C 	C 	0.30397 0.09285 0.02805 -0.08400
C 	C 	0.25047 0.09807 0.03299 0.02600
H 	H 	0.32375 0.25854 0.01613 0.05800
H 	H 	0.29465 0.04389 0.02282 0.06300
N 	N 	0.36956 0.21384 0.43671 -0.15200
C 	C 	0.37920 0.15148 0.47606 -0.05000
H 	H 	0.37814 0.25781 0.42911 0.09400
C 	C 	0.37661 0.21293 0.02562 0.01900
C 	C 	0.36863 0.15278 0.02716 0.09300
C 	C 	0.41290 0.21312 0.46348 0.01200
H 	H 	0.39706 0.14285 0.50274 0.06200
N 	N 	0.41761 0.15370 0.01162 -0.15100
H 	H 	0.01122 0.84922 0.95341 0.05300
C 	C 	0.43224 0.25183 0.00782 -0.04400
H 	H 	0.43089 0.12100 0.01563 0.10400
C 	C 	0.45809 0.21487 0.00090 0.01400
H 	H 	0.46003 0.30591 0.00874 0.05200
C 	C 	0.48807 0.26149 0.46895 0.26100
O 	O 	0.51538 0.30573 0.44540 -0.37400
Br	Br	0.50661 0.25090 0.60191 -0.23600
Br	Br	0.52153 0.24735 0.11226 -0.25100
O 	O 	0.52605 0.26654 0.50066 -0.35900
C 	C 	0.53134 0.24782 0.99962 0.25900
Br	Br	0.53324 0.17323 0.81816 -0.24400
H 	H 	0.53888 0.28792 0.68810 0.08100
O 	O 	0.55922 0.21698 0.00757 -0.34600
H 	H 	0.56025 0.25262 0.19625 0.08000
H 	H 	0.56202 0.21296 0.74107 0.07900
O 	O 	0.57000 0.31029 0.99363 -0.37900
N 	N 	0.99323 0.93673 0.47036 -0.12800
N 	N 	0.98880 0.02677 0.46052 -0.12400
C 	C 	0.97936 0.03643 0.97646 0.10700
N 	N 	0.94224 0.96943 0.96061 -0.13400
C 	C 	0.97255 0.93755 0.96025 0.10600
C 	C 	0.91941 0.98580 0.45848 0.09400
N 	N 	0.88657 0.91925 0.46158 -0.12900
C 	C 	0.92388 0.89469 0.46720 0.10000
Cu	Cu	0.66042 0.26160 0.00716 0.92900
Cu	Cu	0.71529 0.26788 0.92474 0.87400
Cu	Cu	0.69474 0.36730 0.95576 0.89600
Cu	Cu	0.66303 0.38883 0.03526 0.90000
C 	C 	0.66534 0.30043 0.08812 0.31300
C 	C 	0.66407 0.31560 0.87070 0.30900
O 	O 	0.71458 0.36706 0.01007 -0.63700
O 	O 	0.64889 0.26776 0.95124 -0.64100
O 	O 	0.70644 0.21607 0.00493 -0.35200
O 	O 	0.78019 0.28896 0.96907 -0.43000
O 	O 	0.67137 0.35656 0.08430 -0.36600
O 	O 	0.74623 0.46515 0.96358 -0.36700
C 	C 	0.74260 0.50102 0.99234 0.26000
O 	O 	0.69306 0.47134 0.01281 -0.37700
O 	O 	0.68357 0.27333 0.06260 -0.36000
C 	C 	0.76371 0.24348 0.99113 0.26100
O 	O 	0.68538 0.36701 0.89911 -0.38300
O 	O 	0.67058 0.26746 0.87676 -0.39600
H 	H 	0.76438 0.39602 0.02153 0.17100
H 	H 	0.60095 0.23884 0.93640 0.18500
Cu	Cu	0.72366 0.32689 0.45260 0.93000
Cu	Cu	0.69620 0.24747 0.52628 0.86700
Cu	Cu	0.62136 0.30037 0.50507 0.89700
Cu	Cu	0.60682 0.34511 0.43051 0.89800
C 	C 	0.67646 0.32186 0.37299 0.31100
O 	O 	0.77299 0.42912 0.45989 -0.35000
C 	C 	0.65567 0.29861 0.58724 0.30400
O 	O 	0.61841 0.28273 0.44973 -0.63900
O 	O 	0.71659 0.32822 0.50816 -0.64400
O 	O 	0.76167 0.27380 0.44967 -0.35400
O 	O 	0.67795 0.19216 0.47797 -0.42300
O 	O 	0.65690 0.35886 0.38623 -0.38200
C 	C 	0.74880 0.45871 0.47755 0.25400
O 	O 	0.68318 0.42323 0.47968 -0.38100
O 	O 	0.71361 0.31158 0.39684 -0.34500
C 	C 	0.72606 0.21168 0.45689 0.26500
O 	O 	0.63068 0.31887 0.56170 -0.36000
O 	O 	0.69553 0.28105 0.57810 -0.41300
H 	H 	0.58419 0.23459 0.43671 0.17200
H 	H 	0.75175 0.37157 0.52645 0.18100
C 	C 	0.64401 0.31829 0.83008 -0.09700
C 	C 	0.59717 0.25790 0.80229 0.14700
C 	C 	0.59461 0.25989 0.76239 -0.08700
C 	C 	0.63531 0.32210 0.74993 0.02100
C 	C 	0.67317 0.38310 0.77764 0.08900
C 	C 	0.67871 0.38103 0.81759 -0.01400
C 	C 	0.64283 0.32246 0.70850 0.02200
H 	H 	0.71211 0.42804 0.83877 0.06900
C 	C 	0.58633 0.30089 0.67966 -0.08500
C 	C 	0.58941 0.29233 0.63996 0.14300
C 	C 	0.65125 0.30933 0.62883 -0.09500
C 	C 	0.70845 0.33311 0.65786 -0.01500
C 	C 	0.70379 0.33749 0.69737 0.08600
H 	H 	0.75612 0.34633 0.64965 0.06400
Br	Br	0.71837 0.46940 0.76142 -0.21100
Br	Br	0.77960 0.35946 0.73546 -0.22100
C 	C 	0.65877 0.28110 0.12680 -0.09400
C 	C 	0.60161 0.26493 0.14340 0.14700
C 	C 	0.60308 0.26224 0.18320 -0.08300
C 	C 	0.66134 0.27583 0.20669 0.02100
C 	C 	0.71574 0.28578 0.18938 0.08700
C 	C 	0.71421 0.28831 0.14953 -0.01000
C 	C 	0.66876 0.28828 0.24962 0.02300
H 	H 	0.75774 0.29936 0.13672 0.06900
C 	C 	0.64317 0.23387 0.26959 -0.08300
C 	C 	0.64621 0.24438 0.31004 0.14500
C 	C 	0.67498 0.30995 0.33075 -0.09700
C 	C 	0.70144 0.36444 0.31077 -0.01100
C 	C 	0.69838 0.35391 0.27043 0.08400
H 	H 	0.62020 0.18327 0.25362 0.08300
H 	H 	0.72432 0.41509 0.32663 0.06600
Br	Br	0.79399 0.29943 0.22014 -0.21000
Br	Br	0.60831 0.16814 0.33613 -0.24300
Br	Br	0.73444 0.42976 0.24412 -0.21600
C 	C 	0.82219 0.63200 0.51344 0.08000
C 	C 	0.80873 0.68054 0.51511 -0.08300
C 	C 	0.85601 0.74159 0.50291 0.02100
C 	C 	0.90503 0.74800 0.48283 0.07900
C 	C 	0.91295 0.69619 0.47659 -0.08100
C 	C 	0.87508 0.64106 0.49555 0.01500
N 	N 	0.77346 0.56541 0.51243 -0.15200
C 	C 	0.79518 0.53191 0.49432 0.00500
C 	C 	0.85778 0.57713 0.48317 -0.04500
N 	N 	0.92345 0.79446 0.46007 -0.16300
C 	C 	0.88983 0.82190 0.46719 0.05800
C 	C 	0.84426 0.78726 0.49232 -0.07000
H 	H 	0.76232 0.66992 0.52384 0.06000
H 	H 	0.94457 0.69715 0.45647 0.06000
H 	H 	0.87540 0.56428 0.45903 0.05800
H 	H 	0.82224 0.80654 0.50936 0.05700
H 	H 	0.72202 0.54395 0.51386 0.09400
H 	H 	0.96724 0.81648 0.44729 0.09400
C 	C 	0.86838 0.09355 0.44900 0.07700
C 	C 	0.86301 0.13699 0.42861 -0.08100
C 	C 	0.80057 0.12895 0.42424 0.01600
C 	C 	0.74581 0.07996 0.44015 0.08000
C 	C 	0.75078 0.03532 0.45976 -0.08400
C 	C 	0.81376 0.04438 0.46469 0.02600
N 	N 	0.90922 0.07519 0.44185 -0.16300
C 	C 	0.88043 0.01369 0.45195 0.06700
C 	C 	0.82150 0.99325 0.46699 -0.07900
N 	N 	0.70758 0.10075 0.44943 -0.15000
C 	C 	0.73767 0.16284 0.43978 0.00700
C 	C 	0.79558 0.18202 0.42402 -0.03700
H 	H 	0.90583 0.17561 0.41660 0.06000
H 	H 	0.70811 0.99672 0.47186 0.05500
H 	H 	0.78114 0.94157 0.46940 0.06000
H 	H 	0.83895 0.23424 0.42488 0.05900
H 	H 	0.94515 0.09555 0.42338 0.09400
H 	H 	0.67644 0.08350 0.47056 0.08600
C 	C 	0.86473 0.67381 0.98554 0.08200
C 	C 	0.91338 0.71729 0.96402 -0.08400
C 	C 	0.90387 0.76118 0.94701 0.02400
C 	C 	0.84693 0.76054 0.95061 0.07800
C 	C 	0.79756 0.71570 0.97144 -0.07900
C 	C 	0.80921 0.67473 0.99021 0.01300
N 	N 	0.84958 0.61283 0.98905 -0.15300
C 	C 	0.78478 0.57509 0.99629 0.00500
C 	C 	0.75782 0.61157 0.99710 -0.04100
N 	N 	0.86291 0.82249 0.94960 -0.16200
C 	C 	0.93003 0.86345 0.94656 0.05600
C 	C 	0.95713 0.82695 0.94461 -0.06300
H 	H 	0.95744 0.71756 0.96101 0.06000
H 	H 	0.75334 0.71516 0.97444 0.05700
H 	H 	0.70331 0.58879 0.99061 0.05300
H 	H 	0.87317 0.59281 0.97683 0.09100
H 	H 	0.83695 0.83985 0.96174 0.09200
C 	C 	0.80825 0.13451 0.96687 0.07700
C 	C 	0.80243 0.07433 0.96529 -0.08300
C 	C 	0.86081 0.07767 0.96039 0.02200
C 	C 	0.92473 0.13973 0.96332 0.07500
C 	C 	0.93200 0.20085 0.97003 -0.07700
C 	C 	0.87147 0.19622 0.96840 0.00800
N 	N 	0.76557 0.14434 0.98236 -0.15200
C 	C 	0.80004 0.21238 0.99257 -0.00200
C 	C 	0.86727 0.24601 0.98584 -0.04300
N 	N 	0.97555 0.13457 0.97529 -0.15900
C 	C 	0.94470 0.06922 0.97917 0.05700
C 	C 	0.87340 0.03313 0.97135 -0.06600
H 	H 	0.75606 0.02814 0.97013 0.06000
H 	H 	0.98237 0.24940 0.97843 0.05800
H 	H 	0.90188 0.29940 0.98444 0.04900
H 	H 	0.83572 0.97854 0.96750 0.05500
H 	H 	0.71202 0.10850 0.97749 0.08700
