data_crystal

_cell_length_a 20.58630
_cell_length_b 21.31308
_cell_length_c 28.18250
_cell_angle_alpha 60.93960
_cell_angle_beta  118.73982
_cell_angle_gamma 133.25584

_symmetry_space_group_name_	'P 1'
_symmetry_space_group_name_H-M	'P 1'

loop_
_symmetry_equiv_pos_as_xyz
  x,y,z

loop_
_atom_site_label
_atom_site_type_symbol
_atom_site_fract_x
_atom_site_fract_y
_atom_site_fract_z
_atom_site_charge
C 	C 	0.70805 0.27638 0.04028 0.10800
N 	N 	0.61909 0.24622 0.02571 -0.14700
C 	C 	0.59790 0.29175 0.02890 0.11600
N 	N 	0.66548 0.37095 0.04216 -0.14500
C 	C 	0.75428 0.40290 0.05600 0.10900
C 	C 	0.70957 0.29544 0.50497 0.11100
C 	C 	0.71253 0.40235 0.51327 0.11600
N 	N 	0.62312 0.34211 0.51448 -0.14300
C 	C 	0.57704 0.25795 0.51301 0.11700
N 	N 	0.61964 0.23471 0.50724 -0.14500
C 	C 	0.30121 0.68405 0.20060 0.11600
N 	N 	0.23309 0.60851 0.18141 -0.14200
C 	C 	0.25518 0.56650 0.17430 0.11700
N 	N 	0.34406 0.60211 0.18345 -0.14300
C 	C 	0.41147 0.67831 0.20035 0.12000
N 	N 	0.39039 0.71798 0.21045 -0.14100
C 	C 	0.28956 0.64451 0.73410 0.11500
N 	N 	0.23364 0.56256 0.72368 -0.14100
C 	C 	0.27158 0.52735 0.72623 0.11700
N 	N 	0.36361 0.57332 0.73933 -0.14200
C 	C 	0.41884 0.65659 0.74551 0.11900
N 	N 	0.38221 0.69092 0.74514 -0.14100
Co	Co	0.05053 0.02736 0.04376 1.15800
C 	C 	0.22744 0.11114 0.02300 0.31500
Co	Co	0.11326 0.91366 0.05576 1.17600
O 	O 	0.01903 0.10952 0.02752 -0.48200
C 	C 	0.04198 0.22745 0.13307 0.31600
C 	C 	0.20465 0.89693 0.17339 0.29500
O 	O 	0.06771 0.20260 0.11428 -0.39400
O 	O 	0.21916 0.95115 0.12422 -0.38300
O 	O 	0.14437 0.87736 0.19370 -0.37000
O 	O 	0.06185 0.94379 0.08407 -0.73500
C 	C 	0.01916 0.01675 0.29079 0.25100
O 	O 	0.18127 0.04071 0.00549 -0.44200
O 	O 	0.18788 0.12023 0.04226 -0.41000
Co	Co	0.07010 0.01497 0.56041 1.16400
Co	Co	0.00485 0.08435 0.60235 1.18000
C 	C 	0.24817 0.04121 0.58427 0.24700
Co	Co	0.08131 0.86598 0.56519 1.17500
O 	O 	0.07096 0.11801 0.54900 -0.47600
C 	C 	0.08850 0.22245 0.65626 0.30900
C 	C 	0.10275 0.78008 0.68503 0.30100
O 	O 	0.10627 0.96219 0.49099 -0.39400
O 	O 	0.00285 0.18778 0.64824 -0.40200
O 	O 	0.10918 0.18656 0.64352 -0.39900
O 	O 	0.06315 0.76367 0.63613 -0.41100
O 	O 	0.09478 0.82851 0.69540 -0.38500
O 	O 	0.03859 0.91007 0.58870 -0.73500
C 	C 	0.00112 0.99269 0.79209 0.35300
O 	O 	0.21322 0.95593 0.60153 -0.35700
O 	O 	0.21043 0.07060 0.58727 -0.39800
C 	C 	0.22597 0.37710 0.74561 -0.07200
C 	C 	0.21497 0.44474 0.70843 -0.02700
C 	C 	0.17712 0.44564 0.65104 0.04700
C 	C 	0.15208 0.37988 0.63208 -0.01900
C 	C 	0.15870 0.30981 0.66985 -0.10500
C 	C 	0.20372 0.31348 0.72613 0.09300
C 	C 	0.22614 0.24841 0.76635 -0.20500
H 	H 	0.25819 0.37777 0.78934 0.04900
H 	H 	0.11951 0.37865 0.58845 0.04300
C 	C 	0.16423 0.51701 0.60976 -0.18100
H 	H 	0.29801 0.28440 0.79092 0.06700
H 	H 	0.22007 0.21231 0.74468 0.07800
H 	H 	0.17956 0.19964 0.79536 0.07700
H 	H 	0.23187 0.58298 0.60806 0.07100
H 	H 	0.12106 0.51741 0.62236 0.07400
H 	H 	0.12961 0.50590 0.56703 0.06800
C 	C 	0.52633 0.76993 0.68392 -0.07200
C 	C 	0.51188 0.71546 0.73735 -0.02600
C 	C 	0.57783 0.70002 0.77689 0.04800
C 	C 	0.65608 0.73782 0.76184 -0.01700
C 	C 	0.67161 0.79431 0.70887 -0.10800
C 	C 	0.60321 0.80563 0.66851 0.09900
C 	C 	0.61360 0.85935 0.60963 -0.21300
H 	H 	0.47469 0.78016 0.65314 0.05000
C 	C 	0.56375 0.64127 0.83460 -0.18200
H 	H 	0.54582 0.83009 0.57968 0.07700
H 	H 	0.65868 0.86046 0.59778 0.09300
H 	H 	0.64232 0.92827 0.60552 0.09400
H 	H 	0.51361 0.57047 0.83289 0.07200
H 	H 	0.53765 0.65592 0.85151 0.07500
H 	H 	0.62898 0.65207 0.86401 0.07000
C 	C 	0.17536 0.63281 0.75532 -0.06600
C 	C 	0.24981 0.68514 0.73112 -0.02800
C 	C 	0.28917 0.77728 0.70708 0.05300
C 	C 	0.25415 0.81408 0.70896 -0.03200
C 	C 	0.16944 0.75874 0.72260 -0.09400
C 	C 	0.13588 0.66940 0.75195 0.08500
C 	C 	0.05735 0.61202 0.77908 -0.18300
H 	H 	0.14773 0.56366 0.77657 0.05200
H 	H 	0.28598 0.88464 0.69214 0.05700
C 	C 	0.36425 0.83573 0.67653 -0.18600
H 	H 	0.07832 0.58473 0.82406 0.07000
H 	H 	0.03574 0.64973 0.77590 0.07400
H 	H 	0.35078 0.80035 0.65060 0.07300
H 	H 	0.43146 0.85684 0.70692 0.08000
H 	H 	0.36840 0.89640 0.64771 0.07500
C 	C 	0.18182 0.47588 0.10982 -0.07100
C 	C 	0.18405 0.48074 0.15864 -0.02700
C 	C 	0.14231 0.40178 0.19963 0.04600
C 	C 	0.10536 0.32062 0.19318 -0.02000
C 	C 	0.10528 0.31589 0.14511 -0.10600
C 	C 	0.14702 0.39499 0.10393 0.09400
C 	C 	0.15996 0.39496 0.05563 -0.20100
H 	H 	0.21453 0.53666 0.07848 0.04800
H 	H 	0.07324 0.26010 0.22480 0.03900
C 	C 	0.13853 0.40393 0.25091 -0.18000
H 	H 	0.19630 0.36482 0.07130 0.08000
H 	H 	0.20177 0.46342 0.03043 0.06500
H 	H 	0.09279 0.35735 0.02761 0.07100
H 	H 	0.10256 0.43326 0.23831 0.06800
H 	H 	0.20900 0.44415 0.27584 0.06900
H 	H 	0.10076 0.33626 0.27811 0.06300
C 	C 	0.56463 0.71447 0.25618 -0.07200
C 	C 	0.50672 0.72078 0.20376 -0.02700
C 	C 	0.53638 0.75689 0.15488 0.05000
C 	C 	0.62376 0.78584 0.15946 -0.01800
C 	C 	0.68433 0.78597 0.21181 -0.10700
C 	C 	0.65268 0.74529 0.26065 0.09600
H 	H 	0.54088 0.68485 0.29361 0.05100
H 	H 	0.64747 0.81534 0.12203 0.05200
C 	C 	0.47551 0.76546 0.09786 -0.18200
H 	H 	0.44555 0.79464 0.09604 0.07500
H 	H 	0.41941 0.69900 0.08873 0.07100
H 	H 	0.51445 0.80956 0.06468 0.07200
C 	C 	0.17957 0.75005 0.21502 -0.02900
C 	C 	0.24057 0.84320 0.19978 -0.08400
C 	C 	0.32773 0.88232 0.19529 0.05900
C 	C 	0.34476 0.82981 0.19391 -0.05600
C 	C 	0.28016 0.73682 0.20358 -0.03200
C 	C 	0.19956 0.69620 0.21839 0.05300
C 	C 	0.13490 0.59673 0.23775 -0.18200
H 	H 	0.11471 0.71937 0.22168 0.04800
H 	H 	0.40835 0.86179 0.18477 0.05300
C 	C 	0.40080 0.98107 0.18778 -0.07500
H 	H 	0.08947 0.57801 0.25997 0.06500
H 	H 	0.17376 0.56838 0.26746 0.06900
H 	H 	0.09088 0.56689 0.20126 0.07500
H 	H 	0.39369 0.00900 0.20808 0.01700
H 	H 	0.39580 0.01434 0.14259 0.01900
H 	H 	0.47015 0.99595 0.20703 0.05400
C 	C 	0.74006 0.56207 0.42374 -0.18300
H 	H 	0.78107 0.63195 0.40008 0.06300
H 	H 	0.66597 0.53302 0.40607 0.06700
H 	H 	0.75559 0.52582 0.41805 0.07100
C 	C 	0.40377 0.08815 0.60066 -0.03200
C 	C 	0.33746 0.10482 0.56928 -0.09400
C 	C 	0.34836 0.16784 0.51724 0.08500
C 	C 	0.41933 0.20536 0.49486 -0.07000
C 	C 	0.48678 0.19034 0.52664 -0.03000
C 	C 	0.47755 0.12931 0.57952 0.03900
C 	C 	0.54793 0.11030 0.61444 -0.17500
H 	H 	0.39653 0.04115 0.64113 0.02900
H 	H 	0.42695 0.25284 0.45454 0.04900
C 	C 	0.28804 0.19908 0.48687 -0.19900
H 	H 	0.52829 0.05780 0.65340 0.04700
H 	H 	0.61522 0.17135 0.62640 0.06300
H 	H 	0.55476 0.08686 0.59063 0.06000
H 	H 	0.29200 0.22573 0.51436 0.07700
H 	H 	0.21612 0.14357 0.47402 0.06800
H 	H 	0.30958 0.25287 0.44864 0.06900
C 	C 	0.67241 0.12562 0.06413 0.03700
C 	C 	0.60254 0.08210 0.09508 -0.17300
H 	H 	0.63791 0.00049 0.07204 0.02900
H 	H 	0.58577 0.01598 0.12259 0.04600
H 	H 	0.53821 0.07239 0.06491 0.06000
H 	H 	0.62944 0.12289 0.12235 0.05800
H 	H 	0.76922 0.54084 0.94815 0.07100
C 	C 	0.38876 0.18106 0.07504 -0.01800
C 	C 	0.32533 0.17754 0.02367 -0.13300
C 	C 	0.35442 0.21944 0.97373 0.11100
C 	C 	0.44231 0.25209 0.97605 -0.06100
C 	C 	0.50343 0.24910 0.02759 -0.04400
C 	C 	0.47760 0.21591 0.07753 0.04100
C 	C 	0.54447 0.21756 0.13341 -0.17700
H 	H 	0.36699 0.15106 0.11334 0.03500
H 	H 	0.46359 0.28109 0.93772 0.04800
C 	C 	0.29054 0.22553 0.91785 -0.20700
H 	H 	0.51121 0.18192 0.16852 0.05500
H 	H 	0.60129 0.28726 0.13673 0.06800
H 	H 	0.57297 0.18499 0.13830 0.05800
H 	H 	0.24308 0.23174 0.92048 0.07900
H 	H 	0.24997 0.16522 0.90321 0.07500
H 	H 	0.32992 0.28512 0.88665 0.06700
H 	H 	0.70409 0.23983 0.43380 0.04500
C 	C 	0.68391 0.07219 0.05809 -0.03200
O 	O 	0.02914 0.99727 0.12670 -0.55100
O 	O 	0.01080 0.07960 0.25250 -0.38900
C 	C 	0.04985 0.98300 0.45706 0.31200
O 	O 	0.02197 0.00597 0.47602 -0.41500
O 	O 	0.00879 0.06510 0.75715 -0.43500
C 	C 	0.02613 0.00372 0.34902 -0.10900
C 	C 	0.03292 0.99573 0.39711 0.02200
H 	H 	0.70803 0.72807 0.79264 0.04000
C 	C 	0.71503 0.74100 0.31761 -0.20300
H 	H 	0.67474 0.68339 0.34904 0.06800
H 	H 	0.71633 0.07848 0.45493 0.06000
C 	C 	0.72920 0.21928 0.04352 -0.03000
Co	Co	0.02911 0.88041 0.14591 1.18500
O 	O 	0.04732 0.78316 0.10308 -0.39400
H 	H 	0.76298 0.73330 0.31733 0.07300
C 	C 	0.74653 0.23198 0.47499 -0.07500
H 	H 	0.73443 0.17840 0.40237 0.06000
N 	N 	0.75575 0.37975 0.50759 -0.14400
C 	C 	0.76194 0.26400 0.51551 -0.02700
O 	O 	0.01803 0.96358 0.27682 -0.32200
C 	C 	0.76467 0.55818 0.48437 0.04700
H 	H 	0.75514 0.80280 0.33045 0.08400
N 	N 	0.77639 0.35547 0.05559 -0.14300
C 	C 	0.76484 0.15213 0.44448 -0.19800
H 	H 	0.77834 0.26706 0.62065 0.06100
H 	H 	0.78422 0.68003 0.46593 0.04400
C 	C 	0.76649 0.86093 0.70288 0.31500
C 	C 	0.78343 0.18723 0.48814 0.08700
C 	C 	0.76464 0.48659 0.52667 -0.03100
C 	C 	0.78303 0.84994 0.21468 0.31300
C 	C 	0.76260 0.10995 0.04350 -0.10500
O 	O 	0.78898 0.00556 0.12021 -0.42000
C 	C 	0.78596 0.62583 0.49872 -0.02500
C 	C 	0.79199 0.48688 0.58282 -0.07100
H 	H 	0.78915 0.43036 0.61533 0.04500
C 	C 	0.80036 0.25700 0.02086 -0.06600
C 	C 	0.80123 0.05786 0.07056 0.29500
O 	O 	0.82023 0.84874 0.18826 -0.40000
O 	O 	0.81885 0.03981 0.60835 -0.42400
O 	O 	0.80090 0.84603 0.68363 -0.38800
C 	C 	0.81770 0.25438 0.56885 0.03600
H 	H 	0.79892 0.56228 0.66375 0.08000
C 	C 	0.82536 0.48899 0.07154 -0.02600
H 	H 	0.81825 0.42990 0.15791 0.04300
C 	C 	0.81791 0.55713 0.59720 0.09000
C 	C 	0.81681 0.20287 0.02003 0.06800
O 	O 	0.83044 0.91728 0.23563 -0.39500
O 	O 	0.81921 0.92894 0.72424 -0.39500
C 	C 	0.83207 0.17050 0.54331 -0.11200
H 	H 	0.82979 0.17245 0.44251 0.07200
C 	C 	0.82094 0.63038 0.55466 -0.10000
H 	H 	0.82698 0.48768 0.68523 0.06400
H 	H 	0.99794 0.55582 0.75914 0.05300
O 	O 	0.99953 0.94098 0.77626 -0.38500
C 	C 	0.84164 0.29387 0.61205 -0.17400
C 	C 	0.83937 0.49071 0.12503 -0.07300
C 	C 	0.84179 0.56972 0.97160 -0.16400
H 	H 	0.84488 0.49742 0.21792 0.06300
C 	C 	0.99628 0.97128 0.84906 -0.06900
Co	Co	0.98867 0.84308 0.64354 1.17700
Co	Co	0.97791 0.08107 0.09308 1.16500
O 	O 	0.99953 0.87900 0.99070 -0.38300
O 	O 	0.95776 0.17585 0.13872 -0.42100
H 	H 	0.91467 0.60529 0.67097 0.07600
Co	Co	0.96035 0.93584 0.19614 1.18800
Co	Co	0.89725 0.04584 0.18717 1.15600
C 	C 	0.96168 0.73457 0.10496 0.28500
O 	O 	0.95534 0.02332 0.15827 -0.78000
O 	O 	0.98189 0.84750 0.20971 -0.47600
C 	C 	0.99046 0.94107 0.95236 0.27500
O 	O 	0.85392 0.06967 0.04798 -0.40400
O 	O 	0.98444 0.98946 0.96581 -0.34700
O 	O 	0.93396 0.76482 0.11721 -0.40100
Co	Co	0.94086 0.91828 0.69384 1.19100
Co	Co	0.91087 0.05600 0.68406 1.15600
C 	C 	0.88630 0.71938 0.56567 0.29400
O 	O 	0.95445 0.01575 0.65812 -0.78400
C 	C 	0.84773 0.10197 0.56380 0.29600
O 	O 	0.94177 0.81652 0.70535 -0.47100
O 	O 	0.97755 0.95548 0.61495 -0.56800
O 	O 	0.91171 0.11856 0.54870 -0.39000
O 	O 	0.94375 0.78440 0.53261 -0.39800
O 	O 	0.88558 0.73269 0.60750 -0.38400
C 	C 	0.99198 0.95901 0.89518 -0.02000
C 	C 	0.84709 0.20335 0.58322 -0.01600
H 	H 	0.87377 0.18212 0.62675 0.00600
H 	H 	0.88419 0.27844 0.65216 0.05400
H 	H 	0.88177 0.36731 0.59697 0.06800
C 	C 	0.84099 0.55287 0.65769 -0.20200
H 	H 	0.84177 0.32798 0.00291 0.04200
C 	C 	0.88583 0.24330 0.98975 -0.15400
H 	H 	0.85211 0.20864 0.95680 0.06800
H 	H 	0.94191 0.23712 0.01935 0.05100
H 	H 	0.91663 0.31495 0.96949 0.05900
C 	C 	0.85272 0.56832 0.02891 0.03000
C 	C 	0.88427 0.64506 0.03858 -0.02600
C 	C 	0.89725 0.64682 0.09176 -0.09800
C 	C 	0.87261 0.56818 0.13507 0.08600
C 	C 	0.88235 0.56650 0.19212 -0.19900
H 	H 	0.90328 0.70512 0.00522 0.03800
H 	H 	0.85371 0.59815 0.18850 0.07600
H 	H 	0.95574 0.60263 0.21410 0.06400
H 	H 	0.86189 0.53070 0.97478 0.07200
H 	H 	0.88598 0.63859 0.94769 0.06600
