data_crystal

_cell_length_a 18.63850
_cell_length_b 16.31665
_cell_length_c 40.12092
_cell_angle_alpha 88.30247
_cell_angle_beta  88.46129
_cell_angle_gamma 107.55706

_symmetry_space_group_name_	'P 1'
_symmetry_space_group_name_H-M	'P 1'

loop_
_symmetry_equiv_pos_as_xyz
  x,y,z

loop_
_atom_site_label
_atom_site_type_symbol
_atom_site_fract_x
_atom_site_fract_y
_atom_site_fract_z
_atom_site_charge
C 	C 	0.10966 0.24579 0.82890 -0.04000
Zn	Zn	0.00021 0.99260 0.65283 1.18200
O 	O 	0.01814 0.86758 0.65833 -0.42900
O 	O 	0.02440 0.27805 0.22722 -0.45100
H 	H 	0.99683 0.32168 0.29694 0.02600
H 	H 	0.99747 0.52451 0.31542 0.05400
C 	C 	0.00007 0.69166 0.27979 -0.03100
C 	C 	0.01602 0.75379 0.60600 0.00300
C 	C 	0.01705 0.59420 0.98854 -0.00700
C 	C 	0.02906 0.77379 0.20256 -0.05400
H 	H 	0.02295 0.70617 0.20601 0.04100
H 	H 	0.95042 0.80547 0.37653 0.05100
C 	C 	0.02644 0.55434 0.24624 -0.05600
H 	H 	0.03655 0.50167 0.23322 0.04100
C 	C 	0.03122 0.82485 0.58343 -0.06800
C 	C 	0.17368 0.24209 0.84550 -0.01700
C 	C 	0.01167 0.65531 0.74195 -0.08400
C 	C 	0.98728 0.41685 0.34944 0.04000
Zn	Zn	0.04194 0.94230 0.78830 1.19000
C 	C 	0.03828 0.38472 0.18173 -0.12500
C 	C 	0.03608 0.49595 0.13981 -0.02600
C 	C 	0.99914 0.77991 0.32996 -0.06600
C 	C 	0.02913 0.65431 0.01164 -0.17500
O 	O 	0.05268 0.13339 0.75284 -0.45000
C 	C 	0.04169 0.55497 0.44410 0.31400
O 	O 	0.05463 0.17608 0.16614 -0.47300
C 	C 	0.03976 0.18450 0.31126 0.29300
H 	H 	0.11453 0.29523 0.80960 0.04200
H 	H 	0.01836 0.59273 0.69597 0.00600
O 	O 	0.05020 0.93187 0.73913 -0.79700
C 	C 	0.05768 0.94655 0.18365 -0.05900
H 	H 	0.05748 0.55889 0.98470 0.01800
O 	O 	0.05277 0.62894 0.42780 -0.41400
O 	O 	0.05200 0.14497 0.28450 -0.42400
H 	H 	0.07488 0.91360 0.11944 0.04800
C 	C 	0.04559 0.33516 0.31243 -0.03500
H 	H 	0.06420 0.67111 0.63499 0.03400
C 	C 	0.05518 0.39852 0.33586 0.00600
C 	C 	0.07379 0.68658 0.27557 -0.03900
C 	C 	0.07543 0.72571 0.61748 -0.04200
H 	H 	0.08235 0.89719 0.73138 0.18100
C 	C 	0.09546 0.00881 0.15672 0.05300
C 	C 	0.08669 0.61799 0.25884 -0.03400
H 	H 	0.22773 0.28850 0.83904 0.03200
H 	H 	0.07181 0.67444 0.74530 0.03600
Zn	Zn	0.08848 0.05508 0.72459 1.22300
C 	C 	0.10160 0.14600 0.18248 0.29900
C 	C 	0.09183 0.83522 0.21447 -0.02600
O 	O 	0.07061 0.74478 0.37407 -0.43400
C 	C 	0.09282 0.66671 0.03385 0.32300
O 	O 	0.09927 0.14403 0.21552 -0.37900
C 	C 	0.11139 0.97534 0.12673 -0.07700
C 	C 	0.08371 0.27369 0.31593 -0.09500
Zn	Zn	0.00137 0.15610 0.24312 1.21900
C 	C 	0.07186 0.77995 0.34402 0.28400
O 	O 	0.09680 0.52051 0.44676 -0.46700
C 	C 	0.10365 0.92228 0.20669 -0.03000
H 	H 	0.07434 0.75714 0.86714 0.03300
H 	H 	0.90917 0.95491 0.38066 0.04100
C 	C 	0.98554 0.76644 0.29577 0.04000
H 	H 	0.00072 0.64311 0.14927 0.03400
C 	C 	0.98152 0.60884 0.71424 0.03000
C 	C 	0.94651 0.80484 0.34962 -0.01500
Zn	Zn	0.57770 0.31363 0.89664 1.22300
Zn	Zn	0.70300 0.46340 0.93702 1.19500
C 	C 	0.78877 0.23344 0.84315 0.30000
Zn	Zn	0.75234 0.35832 0.88588 1.22300
Zn	Zn	0.62359 0.19951 0.84743 1.19800
H 	H 	0.68376 0.30112 0.94066 0.17900
C 	C 	0.74136 0.52363 0.86305 0.29500
O 	O 	0.51245 0.15286 0.84951 -0.46100
O 	O 	0.48623 0.27529 0.86421 -0.39700
O 	O 	0.67854 0.34252 0.92305 -0.79200
O 	O 	0.60338 0.47293 0.95169 -0.47000
O 	O 	0.53756 0.20227 0.92180 -0.44600
O 	O 	0.53496 0.40643 0.90826 -0.44300
O 	O 	0.62520 0.14779 0.89792 -0.42100
O 	O 	0.81341 0.51885 0.93251 -0.46800
H 	H 	0.64598 0.36027 0.84143 0.17700
O 	O 	0.84517 0.40030 0.91771 -0.40800
O 	O 	0.65136 0.32132 0.85995 -0.79100
O 	O 	0.72197 0.17854 0.83862 -0.44200
O 	O 	0.78331 0.47147 0.86225 -0.43900
O 	O 	0.80207 0.27427 0.87121 -0.43100
O 	O 	0.69031 0.51503 0.88738 -0.41100
C 	C 	0.46748 0.20129 0.84949 0.30400
C 	C 	0.53819 0.43946 0.93789 0.33800
C 	C 	0.57025 0.14121 0.92009 0.32600
C 	C 	0.86143 0.47421 0.93237 0.32800
Zn	Zn	0.66470 0.41986 0.55268 1.22300
Zn	Zn	0.51542 0.29742 0.51366 1.19400
C 	C 	0.69134 0.15708 0.60959 0.32500
Zn	Zn	0.59657 0.21838 0.56310 1.22200
Zn	Zn	0.71650 0.33953 0.61262 1.20000
H 	H 	0.65065 0.29488 0.50853 0.17200
C 	C 	0.44816 0.22028 0.58274 0.30900
O 	O 	0.79114 0.45413 0.60799 -0.46000
O 	O 	0.71261 0.52164 0.58520 -0.40500
O 	O 	0.61893 0.30695 0.52679 -0.79400
O 	O 	0.51001 0.41671 0.51405 -0.46400
O 	O 	0.76644 0.42517 0.53642 -0.44600
O 	O 	0.62407 0.50396 0.52960 -0.44200
O 	O 	0.77229 0.30832 0.56801 -0.42000
O 	O 	0.46513 0.17236 0.51089 -0.46500
H 	H 	0.58509 0.34897 0.60399 0.18600
O 	O 	0.55892 0.11891 0.52833 -0.39300
O 	O 	0.62389 0.33556 0.58971 -0.78800
O 	O 	0.68638 0.21847 0.62889 -0.46900
O 	O 	0.49654 0.17683 0.58543 -0.43400
O 	O 	0.66700 0.15410 0.57890 -0.41900
O 	O 	0.46509 0.29048 0.56362 -0.41500
C 	C 	0.77303 0.52438 0.60172 0.31100
C 	C 	0.56685 0.48756 0.50963 0.32400
C 	C 	0.79671 0.36322 0.54239 0.32200
C 	C 	0.50115 0.11426 0.50936 0.31400
Zn	Zn	0.93833 0.90383 0.72178 1.22400
C 	C 	0.16701 0.08531 0.65786 0.30700
C 	C 	0.99431 0.10519 0.77390 0.32000
O 	O 	0.89634 0.92641 0.64268 -0.45900
O 	O 	0.83726 0.89596 0.69444 -0.38300
O 	O 	0.95161 0.84393 0.80181 -0.44800
O 	O 	0.94703 0.79960 0.70281 -0.44600
O 	O 	0.87397 0.87280 0.76290 -0.43200
O 	O 	0.12250 0.04443 0.80180 -0.44800
H 	H 	0.95733 0.05658 0.70374 0.17400
O 	O 	0.18801 0.07749 0.75201 -0.39900
O 	O 	0.98770 0.01696 0.70051 -0.77800
O 	O 	0.11192 0.02983 0.64274 -0.44700
O 	O 	0.15573 0.11636 0.68683 -0.44300
O 	O 	0.96956 0.02362 0.78382 -0.40700
C 	C 	0.83866 0.92345 0.66285 0.29200
C 	C 	0.88772 0.82149 0.78625 0.31200
C 	C 	0.96598 0.80042 0.67138 0.33700
C 	C 	0.18648 0.07542 0.78472 0.31100
Zn	Zn	0.30492 0.72085 0.37967 1.22500
Zn	Zn	0.20563 0.58480 0.43869 1.19400
Zn	Zn	0.13172 0.67038 0.38695 1.22600
Zn	Zn	0.24035 0.82680 0.33296 1.19100
H 	H 	0.21532 0.74310 0.43178 0.17800
C 	C 	0.14296 0.50157 0.37276 0.29800
O 	O 	0.35265 0.87896 0.32422 -0.45700
O 	O 	0.38297 0.75740 0.33874 -0.40200
O 	O 	0.21637 0.69768 0.41613 -0.79600
O 	O 	0.31362 0.58938 0.44297 -0.47200
O 	O 	0.35068 0.83452 0.39772 -0.45100
O 	O 	0.35104 0.62940 0.38856 -0.44800
O 	O 	0.25339 0.88381 0.38203 -0.43200
H 	H 	0.22016 0.66585 0.33321 0.17600
O 	O 	0.22049 0.70730 0.35078 -0.79500
O 	O 	0.13438 0.83732 0.33178 -0.43900
O 	O 	0.10136 0.55393 0.37096 -0.44800
O 	O 	0.20157 0.51847 0.39203 -0.41700
C 	C 	0.40259 0.83619 0.32582 0.29700
C 	C 	0.36507 0.60479 0.41848 0.34400
C 	C 	0.31337 0.89115 0.39989 0.32300
Zn	Zn	0.21170 0.76581 0.08182 1.22100
Zn	Zn	0.35878 0.89568 0.11885 1.19600
C 	C 	0.38347 0.60311 0.04202 0.36500
Zn	Zn	0.37870 0.76167 0.07300 1.22200
Zn	Zn	0.22683 0.61449 0.04204 1.19500
H 	H 	0.30684 0.73277 0.12824 0.17800
C 	C 	0.39654 0.93003 0.04277 0.36800
O 	O 	0.11868 0.60180 0.04079 -0.47400
O 	O 	0.12018 0.74065 0.04827 -0.40300
O 	O 	0.31072 0.77398 0.10916 -0.78800
O 	O 	0.26786 0.92706 0.12986 -0.47500
O 	O 	0.14882 0.67127 0.11249 -0.42800
O 	O 	0.19675 0.88186 0.08449 -0.42500
O 	O 	0.21084 0.57754 0.09530 -0.40900
O 	O 	0.46946 0.93138 0.11166 -0.46600
H 	H 	0.27981 0.77231 0.02694 0.16900
O 	O 	0.47662 0.79708 0.10248 -0.40600
O 	O 	0.27736 0.73776 0.04788 -0.79400
O 	O 	0.31139 0.56243 0.03832 -0.46500
O 	O 	0.42431 0.86444 0.04306 -0.45600
O 	O 	0.40450 0.65491 0.06680 -0.45600
O 	O 	0.35215 0.93884 0.06757 -0.44500
C 	C 	0.22205 0.93915 0.10735 0.30100
C 	C 	0.15848 0.59448 0.11432 0.28900
C 	C 	0.50885 0.87718 0.11018 0.30000
Zn	Zn	0.87738 0.10173 0.31092 1.19500
C 	C 	0.78469 0.02774 0.17155 0.32100
Zn	Zn	0.83203 0.04068 0.24164 1.22100
Zn	Zn	0.94690 0.11891 0.17231 1.20000
H 	H 	0.87129 0.19689 0.25832 0.17500
C 	C 	0.88496 0.92854 0.28619 0.28600
O 	O 	0.89090 0.14785 0.26298 -0.76600
O 	O 	0.97760 0.15288 0.32971 -0.43200
O 	O 	0.94026 0.24540 0.18603 -0.41400
O 	O 	0.77456 0.01596 0.31934 -0.45000
H 	H 	0.95571 0.01253 0.21863 0.18700
O 	O 	0.73115 0.03581 0.26837 -0.41300
O 	O 	0.93713 0.06321 0.21767 -0.79200
O 	O 	0.84101 0.09113 0.15821 -0.45700
O 	O 	0.83570 0.92887 0.26322 -0.43600
O 	O 	0.76582 0.02794 0.20339 -0.42900
O 	O 	0.92356 0.00044 0.29896 -0.40100
C 	C 	0.99787 0.30076 0.19965 0.33900
C 	C 	0.71811 0.00926 0.29960 0.33200
C 	C 	0.11761 0.42305 0.18357 0.04000
C 	C 	0.15489 0.49505 0.16285 -0.03700
H 	H 	0.21555 0.52249 0.16378 0.04000
C 	C 	0.11550 0.52951 0.14000 -0.05800
C 	C 	0.99814 0.42383 0.16057 0.03100
H 	H 	0.93740 0.39755 0.15985 0.03100
C 	C 	0.99193 0.53527 0.11798 0.04100
C 	C 	0.97701 0.61108 0.12708 -0.03000
C 	C 	0.93137 0.64549 0.10748 -0.02000
C 	C 	0.89940 0.60356 0.07911 -0.03800
C 	C 	0.91359 0.52758 0.07013 -0.01300
C 	C 	0.96012 0.49366 0.08938 -0.05000
C 	C 	0.16367 0.38646 0.20536 0.01400
C 	C 	0.20907 0.34103 0.19116 -0.04000
C 	C 	0.26341 0.31994 0.21001 -0.01700
C 	C 	0.27429 0.34634 0.24276 -0.03500
C 	C 	0.22979 0.39240 0.25698 -0.02200
C 	C 	0.17425 0.41203 0.23845 -0.04000
H 	H 	0.29850 0.28514 0.19892 0.03300
H 	H 	0.31839 0.33282 0.25682 0.03500
H 	H 	0.23960 0.41480 0.28205 0.03400
H 	H 	0.14115 0.44928 0.24941 0.04100
H 	H 	0.20395 0.32487 0.16517 0.04800
H 	H 	0.92043 0.70436 0.11437 0.03200
H 	H 	0.97102 0.43488 0.08225 0.04800
H 	H 	0.88906 0.49542 0.04807 0.02800
H 	H 	0.86400 0.63018 0.06398 0.03100
C 	C 	0.58856 0.90565 0.11897 -0.06400
C 	C 	0.63661 0.98659 0.10726 -0.02500
C 	C 	0.70415 0.02377 0.12305 0.03900
H 	H 	0.73868 0.08818 0.11533 0.03300
C 	C 	0.72588 0.97967 0.14948 -0.13100
C 	C 	0.68351 0.89337 0.15759 0.03900
C 	C 	0.61408 0.85772 0.14289 -0.03700
H 	H 	0.57926 0.79346 0.15066 0.04500
C 	C 	0.71440 0.83741 0.17869 -0.00300
C 	C 	0.75133 0.78393 0.16366 -0.05000
C 	C 	0.77103 0.72184 0.18296 -0.02600
C 	C 	0.75720 0.71549 0.21749 -0.03800
C 	C 	0.72054 0.76861 0.23260 -0.01800
C 	C 	0.69814 0.82873 0.21321 -0.05100
C 	C 	0.61962 0.03048 0.07720 0.04300
C 	C 	0.60093 0.10717 0.08018 -0.05000
C 	C 	0.60330 0.16043 0.05197 -0.02000
C 	C 	0.62317 0.13684 0.02068 -0.03400
C 	C 	0.63955 0.05922 0.01745 -0.02200
C 	C 	0.63674 0.00548 0.04554 -0.03200
H 	H 	0.59243 0.22142 0.05455 0.02500
H 	H 	0.62632 0.17893 0.99896 0.02600
H 	H 	0.65552 0.04131 0.99325 0.03600
H 	H 	0.65155 0.94661 0.04298 0.03100
H 	H 	0.58811 0.12736 0.10453 0.04700
H 	H 	0.76250 0.78863 0.13692 0.03600
H 	H 	0.79637 0.67807 0.17109 0.03000
H 	H 	0.66747 0.86769 0.22487 0.04800
H 	H 	0.70895 0.76264 0.25927 0.03700
H 	H 	0.77405 0.66867 0.23248 0.03500
C 	C 	0.18437 0.00415 0.11328 -0.03500
C 	C 	0.22837 0.08839 0.11969 -0.00000
C 	C 	0.20497 0.13295 0.14521 0.00300
H 	H 	0.23674 0.19903 0.14934 0.03100
C 	C 	0.13874 0.09265 0.16442 -0.11100
C 	C 	0.97493 0.80007 0.18556 -0.01400
C 	C 	0.98753 0.88727 0.17746 -0.03200
C 	C 	0.29625 0.13134 0.09862 0.02100
C 	C 	0.36754 0.15576 0.11254 -0.05600
C 	C 	0.43151 0.19732 0.09249 -0.01900
C 	C 	0.42452 0.21463 0.05857 -0.03600
C 	C 	0.35372 0.18966 0.04457 -0.02000
C 	C 	0.28966 0.14784 0.06447 -0.04600
H 	H 	0.48642 0.21657 0.10327 0.02900
H 	H 	0.47385 0.24785 0.04317 0.03300
H 	H 	0.34849 0.20269 0.01829 0.03200
H 	H 	0.23492 0.12883 0.05346 0.04500
H 	H 	0.37333 0.14253 0.13878 0.03600
H 	H 	0.15531 0.96880 0.21390 0.03500
H 	H 	0.13387 0.81526 0.22769 0.02200
H 	H 	0.94843 0.90650 0.16181 0.00300
H 	H 	0.92600 0.75265 0.17677 0.02900
C 	C 	0.64052 0.96078 0.31093 -0.12400
C 	C 	0.59532 0.00086 0.32906 0.06800
C 	C 	0.51700 0.96138 0.33239 -0.05300
H 	H 	0.48252 0.99180 0.34667 0.04800
C 	C 	0.48348 0.88147 0.31842 -0.06300
C 	C 	0.52940 0.84021 0.30133 0.00600
C 	C 	0.60746 0.87947 0.29827 0.00200
H 	H 	0.64238 0.84759 0.28523 0.03100
C 	C 	0.49610 0.75678 0.28589 0.02200
C 	C 	0.45565 0.75277 0.25665 -0.05400
C 	C 	0.42195 0.67332 0.24275 -0.02300
C 	C 	0.42881 0.59782 0.25785 -0.04100
C 	C 	0.46991 0.60169 0.28673 -0.01900
C 	C 	0.50384 0.68101 0.30068 -0.04400
C 	C 	0.62970 0.08169 0.34610 -0.00500
C 	C 	0.63200 0.08102 0.38105 -0.04100
C 	C 	0.66279 0.15774 0.39728 -0.03100
C 	C 	0.69109 0.23533 0.37874 -0.04200
C 	C 	0.68900 0.23633 0.34392 -0.03400
C 	C 	0.65778 0.15983 0.32758 -0.05100
H 	H 	0.66419 0.15714 0.42424 0.02700
H 	H 	0.71392 0.29477 0.39137 0.02700
H 	H 	0.71104 0.29646 0.32962 0.02700
H 	H 	0.65525 0.16126 0.30063 0.04000
H 	H 	0.60919 0.02134 0.39560 0.04500
H 	H 	0.44989 0.81100 0.24491 0.03200
H 	H 	0.39031 0.67024 0.22034 0.02100
H 	H 	0.53519 0.68353 0.32318 0.04400
H 	H 	0.47524 0.54321 0.29836 0.03000
H 	H 	0.40230 0.53634 0.24717 0.03600
C 	C 	0.14826 0.29235 0.33557 0.02800
C 	C 	0.17038 0.37018 0.35220 -0.02900
H 	H 	0.22183 0.38679 0.36589 0.04700
C 	C 	0.12289 0.42283 0.35322 -0.07500
C 	C 	0.94619 0.36748 0.37682 -0.05800
C 	C 	0.88306 0.38598 0.39020 -0.01700
C 	C 	0.86066 0.45359 0.37633 -0.04300
C 	C 	0.90132 0.50271 0.34902 -0.01400
C 	C 	0.96424 0.48405 0.33545 -0.05400
C 	C 	0.18992 0.22892 0.34065 0.01200
C 	C 	0.26426 0.24720 0.32803 -0.04500
C 	C 	0.30381 0.18760 0.33296 -0.02200
C 	C 	0.27003 0.11053 0.35117 -0.03800
C 	C 	0.19701 0.09341 0.36487 -0.02100
C 	C 	0.15729 0.15289 0.36006 -0.04000
H 	H 	0.36090 0.20156 0.32294 0.03100
H 	H 	0.30075 0.06452 0.35496 0.03900
H 	H 	0.17137 0.03431 0.37940 0.04400
H 	H 	0.10152 0.14018 0.37151 0.04800
H 	H 	0.29192 0.30825 0.31519 0.03800
H 	H 	0.96355 0.31537 0.38781 0.04800
H 	H 	0.85190 0.34841 0.41151 0.02700
H 	H 	0.88469 0.55595 0.33865 0.03300
H 	H 	0.81212 0.46825 0.38689 0.03300
C 	C 	0.93815 0.80778 0.28007 -0.02800
H 	H 	0.93415 0.80811 0.25324 0.04300
C 	C 	0.89562 0.84806 0.29929 -0.07100
C 	C 	0.89101 0.83308 0.33418 0.01800
C 	C 	0.83163 0.85313 0.35454 0.01600
C 	C 	0.75550 0.80869 0.34999 -0.04300
C 	C 	0.69915 0.82896 0.36866 -0.01700
C 	C 	0.71841 0.89417 0.39160 -0.03300
C 	C 	0.79408 0.93935 0.39592 -0.02400
C 	C 	0.85071 0.91894 0.37748 -0.05800
C 	C 	0.93959 0.62619 0.26765 -0.02900
C 	C 	0.95301 0.55834 0.25067 -0.01500
H 	H 	0.90642 0.50865 0.24108 0.02900
H 	H 	0.14355 0.61485 0.25526 0.02100
H 	H 	0.12130 0.73764 0.28352 -0.00200
H 	H 	0.88235 0.62826 0.27120 0.03400
H 	H 	0.74010 0.75877 0.33196 0.04100
H 	H 	0.64052 0.79454 0.36516 0.03500
H 	H 	0.80882 0.99041 0.41345 0.02300
H 	H 	0.67472 0.90969 0.40603 0.03200
C 	C 	0.47268 0.03970 0.48834 -0.13700
C 	C 	0.41864 0.03741 0.46653 0.01400
C 	C 	0.39272 0.96471 0.44433 -0.00400
C 	C 	0.33720 0.96144 0.42321 -0.17800
H 	H 	0.41950 0.91400 0.44498 0.03500
H 	H 	0.49748 0.98741 0.48992 0.06000
H 	H 	0.30949 0.01132 0.42306 0.08700
H 	H 	0.39458 0.09026 0.46461 0.02800
C 	C 	0.86396 0.36219 0.52264 -0.15500
C 	C 	0.87492 0.39607 0.49138 0.01300
C 	C 	0.95173 0.43728 0.47726 0.00400
C 	C 	0.96527 0.50771 0.45699 -0.13500
H 	H 	0.99767 0.41380 0.48504 0.03900
H 	H 	0.90894 0.34502 0.53495 0.07500
H 	H 	0.91910 0.53218 0.45040 0.07800
H 	H 	0.82758 0.40613 0.47835 0.02500
C 	C 	0.55397 0.55946 0.49061 -0.16100
C 	C 	0.52012 0.54551 0.46141 0.01000
C 	C 	0.47213 0.59754 0.45045 0.01300
C 	C 	0.43240 0.57777 0.42295 -0.16500
H 	H 	0.46174 0.64482 0.46697 0.02700
H 	H 	0.56257 0.62066 0.50240 0.07900
H 	H 	0.44650 0.53611 0.40491 0.07700
H 	H 	0.51824 0.48736 0.44836 0.01200
C 	C 	0.79028 0.97599 0.65324 -0.10100
C 	C 	0.73717 0.95004 0.62796 -0.00500
C 	C 	0.70593 0.01017 0.61323 0.03000
H 	H 	0.66222 0.98941 0.59528 0.02300
C 	C 	0.73116 0.09674 0.62150 -0.09600
C 	C 	0.78909 0.12344 0.64443 0.02500
C 	C 	0.81196 0.06185 0.66253 -0.01100
H 	H 	0.85325 0.08250 0.68145 0.01200
C 	C 	0.83229 0.21547 0.64656 0.00100
C 	C 	0.87875 0.25928 0.61947 -0.06200
C 	C 	0.91799 0.34677 0.62120 -0.02600
C 	C 	0.91171 0.39055 0.65003 -0.04500
C 	C 	0.86626 0.34690 0.67721 -0.03500
C 	C 	0.82687 0.25943 0.67558 -0.06200
C 	C 	0.71280 0.86043 0.61692 0.02300
C 	C 	0.76062 0.83093 0.59596 -0.05000
C 	C 	0.73349 0.75153 0.58111 -0.01100
C 	C 	0.65818 0.70231 0.58632 -0.04000
C 	C 	0.61007 0.73178 0.60676 -0.01700
C 	C 	0.63732 0.81021 0.62230 -0.05600
H 	H 	0.77051 0.72891 0.56505 0.04100
H 	H 	0.63696 0.64159 0.57437 0.05600
H 	H 	0.55180 0.69351 0.61081 0.03000
H 	H 	0.59951 0.83287 0.63792 0.04100
H 	H 	0.81774 0.87086 0.59015 0.05000
H 	H 	0.88372 0.22580 0.59702 0.04700
H 	H 	0.95291 0.38073 0.60011 0.03600
H 	H 	0.79158 0.22607 0.69659 0.04900
H 	H 	0.86152 0.38086 0.69951 0.03300
H 	H 	0.94184 0.45836 0.65125 0.04200
C 	C 	0.23960 0.12299 0.63948 -0.07400
C 	C 	0.30820 0.12182 0.65345 0.01200
C 	C 	0.37618 0.15840 0.63517 -0.01100
H 	H 	0.42878 0.15733 0.64585 0.04000
C 	C 	0.37665 0.19263 0.60269 -0.08100
C 	C 	0.30791 0.19285 0.58861 0.02500
C 	C 	0.24017 0.15906 0.60726 -0.02000
H 	H 	0.18758 0.15967 0.59646 0.03000
C 	C 	0.30570 0.22417 0.55384 0.01000
C 	C 	0.31376 0.31134 0.54678 -0.04700
C 	C 	0.31383 0.34128 0.51375 -0.02700
C 	C 	0.30425 0.28411 0.48777 -0.05400
C 	C 	0.29437 0.19684 0.49478 -0.02800
C 	C 	0.29519 0.16678 0.52775 -0.05000
C 	C 	0.30963 0.07673 0.68592 0.05300
C 	C 	0.35529 0.12052 0.71110 -0.06500
C 	C 	0.37077 0.07463 0.73853 0.02300
C 	C 	0.33822 0.98557 0.74177 -0.07900
C 	C 	0.28967 0.94214 0.71770 -0.00100
C 	C 	0.27617 0.98722 0.68958 -0.09400
H 	H 	0.40859 0.10801 0.75712 0.02400
H 	H 	0.35074 0.95015 0.76292 0.04000
H 	H 	0.26394 0.87321 0.72044 0.01600
H 	H 	0.24188 0.95233 0.67014 0.04800
H 	H 	0.38127 0.18954 0.70868 0.04700
H 	H 	0.32137 0.35597 0.56680 0.04500
H 	H 	0.32149 0.40881 0.50827 0.03200
H 	H 	0.28838 0.09927 0.53298 0.05000
H 	H 	0.28623 0.15254 0.47467 0.03000
H 	H 	0.30428 0.30738 0.46222 0.03200
C 	C 	0.81694 0.60447 0.61606 -0.07900
C 	C 	0.79159 0.63247 0.64584 0.01800
C 	C 	0.83842 0.70380 0.66105 -0.00700
H 	H 	0.81802 0.72664 0.68340 0.04700
C 	C 	0.91369 0.74030 0.64977 -0.09400
C 	C 	0.93871 0.71336 0.61969 0.04200
C 	C 	0.88963 0.64648 0.60274 -0.02500
H 	H 	0.90906 0.62470 0.57988 0.04600
C 	C 	0.14965 0.76974 0.60705 -0.02400
C 	C 	0.16472 0.84146 0.58503 -0.04000
C 	C 	0.10554 0.86879 0.57313 -0.01800
C 	C 	0.71744 0.58540 0.66218 0.01600
C 	C 	0.70051 0.49798 0.67201 -0.06400
C 	C 	0.62867 0.45293 0.68506 -0.03500
C 	C 	0.57534 0.49605 0.69066 -0.04100
C 	C 	0.59407 0.58450 0.68355 -0.02100
C 	C 	0.66526 0.62936 0.66974 -0.05000
H 	H 	0.61439 0.38471 0.69089 0.01400
H 	H 	0.51987 0.46115 0.70095 0.03500
H 	H 	0.55351 0.61835 0.68881 0.03100
H 	H 	0.68040 0.69829 0.66550 0.05000
H 	H 	0.74282 0.46515 0.66962 0.01500
H 	H 	0.19552 0.74871 0.61625 0.02800
H 	H 	0.98572 0.84732 0.57464 0.04800
H 	H 	0.11733 0.92446 0.55616 0.01900
H 	H 	0.22225 0.87594 0.57722 0.03300
C 	C 	0.93482 0.50774 0.94782 -0.16400
C 	C 	0.94747 0.57138 0.96949 0.02300
H 	H 	0.97747 0.47592 0.94322 0.08200
H 	H 	0.99154 0.69349 0.01435 0.08900
H 	H 	0.90494 0.60321 0.97442 0.02500
C 	C 	0.54489 0.06465 0.94280 -0.15700
C 	C 	0.48501 0.05484 0.96583 0.02100
C 	C 	0.46467 0.98627 0.98938 -0.00400
C 	C 	0.40957 0.98580 0.01660 -0.21600
H 	H 	0.49238 0.93641 0.98878 0.03500
H 	H 	0.57356 0.01579 0.94162 0.08000
H 	H 	0.38185 0.03566 0.01628 0.10500
H 	H 	0.45604 0.10352 0.96657 0.03800
C 	C 	0.47091 0.45593 0.95259 -0.15800
C 	C 	0.47178 0.48370 0.98527 -0.00000
C 	C 	0.41827 0.52062 0.99726 0.01600
C 	C 	0.43558 0.57557 0.02644 -0.20400
H 	H 	0.36792 0.51612 0.98342 0.02000
H 	H 	0.42239 0.45070 0.93743 0.07600
H 	H 	0.49363 0.59877 0.03405 0.09000
H 	H 	0.51900 0.48395 0.00066 0.03500
C 	C 	0.85314 0.22575 0.82264 -0.07400
C 	C 	0.84612 0.21212 0.78810 0.01800
C 	C 	0.89844 0.18126 0.77086 -0.01000
H 	H 	0.89017 0.16475 0.74495 0.02900
C 	C 	0.95808 0.16542 0.78767 -0.08500
C 	C 	0.97134 0.19164 0.82069 0.04300
C 	C 	0.91851 0.22117 0.83812 -0.02200
H 	H 	0.92645 0.23624 0.86417 0.05600
C 	C 	0.03938 0.18604 0.83743 0.00400
C 	C 	0.16798 0.17828 0.87033 -0.03500
C 	C 	0.09813 0.11822 0.87872 -0.01200
C 	C 	0.03386 0.12195 0.86232 -0.06400
C 	C 	0.78281 0.22728 0.77019 0.00800
C 	C 	0.78028 0.31152 0.76412 -0.06400
C 	C 	0.71871 0.32552 0.74842 -0.03600
C 	C 	0.65902 0.25559 0.73921 -0.05300
C 	C 	0.66131 0.17162 0.74523 -0.03500
C 	C 	0.72323 0.15731 0.76051 -0.05800
H 	H 	0.71740 0.39055 0.74333 0.02600
H 	H 	0.61095 0.26634 0.72746 0.02800
H 	H 	0.61514 0.11764 0.73801 0.03300
H 	H 	0.72458 0.09207 0.76519 0.05000
H 	H 	0.82599 0.36593 0.77149 0.04000
H 	H 	0.97992 0.07517 0.86890 0.05900
H 	H 	0.09376 0.06886 0.89795 0.02800
H 	H 	0.21774 0.17514 0.88295 0.04000
C 	C 	0.25677 0.10822 0.80233 -0.08400
C 	C 	0.27681 0.05711 0.82737 0.03700
C 	C 	0.34597 0.08860 0.84263 -0.02300
H 	H 	0.36186 0.04929 0.86162 0.04900
C 	C 	0.39434 0.17087 0.83385 -0.07900
C 	C 	0.37354 0.22250 0.80939 0.01600
C 	C 	0.30507 0.19069 0.79369 -0.01400
H 	H 	0.28944 0.23000 0.77463 0.04300
C 	C 	0.42418 0.30906 0.79952 0.01400
C 	C 	0.48891 0.31790 0.77929 -0.05600
C 	C 	0.54128 0.39907 0.77315 -0.03000
C 	C 	0.52866 0.47175 0.78662 -0.04000
C 	C 	0.46364 0.46342 0.80632 -0.02100
C 	C 	0.41139 0.38229 0.81278 -0.04200
C 	C 	0.22432 0.97236 0.83885 -0.00400
C 	C 	0.20252 0.90473 0.81674 -0.07400
C 	C 	0.14824 0.82756 0.82693 -0.05200
C 	C 	0.11663 0.81678 0.85936 -0.05100
C 	C 	0.13969 0.88289 0.88176 -0.02500
C 	C 	0.19373 0.96035 0.87165 -0.07400
H 	H 	0.13028 0.77635 0.80960 0.01700
H 	H 	0.11545 0.87426 0.90691 0.02300
H 	H 	0.21115 0.01130 0.88914 0.05600
H 	H 	0.22557 0.91298 0.79144 0.02600
H 	H 	0.49951 0.26172 0.76911 0.02900
H 	H 	0.59181 0.40562 0.75811 0.02600
H 	H 	0.36214 0.37605 0.82876 0.04200
H 	H 	0.45413 0.51971 0.81688 0.03100
H 	H 	0.56936 0.53448 0.78185 0.03600
C 	C 	0.75386 0.59313 0.83675 -0.07500
C 	C 	0.73985 0.67203 0.84302 0.01700
C 	C 	0.77760 0.74601 0.82331 -0.01300
H 	H 	0.77037 0.80752 0.82925 0.04000
C 	C 	0.82895 0.74197 0.79761 -0.08400
C 	C 	0.83457 0.66067 0.78873 0.02800
C 	C 	0.79369 0.58665 0.80736 -0.02200
H 	H 	0.79873 0.52462 0.80065 0.03900
C 	C 	0.88604 0.65199 0.76125 -0.00900
C 	C 	0.85614 0.60492 0.73341 -0.02400
C 	C 	0.90378 0.58261 0.71025 -0.04600
C 	C 	0.96404 0.67517 0.76582 -0.00900
C 	C 	0.68429 0.67732 0.86914 0.02200
C 	C 	0.70854 0.71232 0.89990 -0.05200
C 	C 	0.65580 0.71085 0.92557 -0.02400
C 	C 	0.57884 0.67504 0.92055 -0.03600
C 	C 	0.55444 0.64117 0.88978 -0.01600
C 	C 	0.60694 0.64267 0.86402 -0.04100
H 	H 	0.67459 0.73687 0.94942 0.02600
H 	H 	0.53816 0.67315 0.94055 0.03500
H 	H 	0.49489 0.61300 0.88599 0.03100
H 	H 	0.58773 0.61539 0.84038 0.04200
H 	H 	0.76812 0.73886 0.90413 0.04200
H 	H 	0.79587 0.58378 0.73024 0.03600
H 	H 	0.88046 0.54585 0.68898 0.04200
H 	H 	0.98737 0.70565 0.78836 0.03100
