data_crystal

_cell_length_a 18.94041
_cell_length_b 16.53617
_cell_length_c 38.58173
_cell_angle_alpha 90.90862
_cell_angle_beta  91.29692
_cell_angle_gamma 111.08617

_symmetry_space_group_name_	'P 1'
_symmetry_space_group_name_H-M	'P 1'

loop_
_symmetry_equiv_pos_as_xyz
  x,y,z

loop_
_atom_site_label
_atom_site_type_symbol
_atom_site_fract_x
_atom_site_fract_y
_atom_site_fract_z
_atom_site_charge
Ni	Ni	0.74528 0.32265 0.89080 1.10200
O 	O 	0.64568 0.24636 0.86674 -0.70300
Ni	Ni	0.57065 0.25211 0.90145 1.09900
O 	O 	0.81183 0.27615 0.86143 -0.37200
O 	O 	0.73849 0.13432 0.87043 -0.40400
O 	O 	0.76295 0.41444 0.85318 -0.37200
Ni	Ni	0.62794 0.12425 0.85657 1.06900
O 	O 	0.79054 0.51582 0.91634 -0.41100
O 	O 	0.58380 0.05352 0.90012 -0.39400
O 	O 	0.47330 0.15563 0.88315 -0.38600
O 	O 	0.66908 0.34081 0.92197 -0.70100
O 	O 	0.83865 0.40624 0.91658 -0.38000
O 	O 	0.50891 0.28765 0.93765 -0.37300
O 	O 	0.55863 0.42805 0.92076 -0.41600
Ni	Ni	0.67513 0.46053 0.91897 1.06600
H 	H 	0.63683 0.27358 0.84522 0.15600
H 	H 	0.67888 0.32775 0.94617 0.15400
C 	C 	0.56152 0.08391 0.92793 0.31000
O 	O 	0.66352 0.45349 0.86668 -0.42300
C 	C 	0.79884 0.19300 0.85719 0.27000
C 	C 	0.46417 0.10959 0.85379 0.28200
C 	C 	0.72272 0.46360 0.84813 0.30300
C 	C 	0.51694 0.36960 0.94190 0.28100
C 	C 	0.83888 0.48158 0.92887 0.28300
O 	O 	0.58753 0.16716 0.93505 -0.40300
O 	O 	0.52280 0.10697 0.83601 -0.41100
Ni	Ni	0.59972 0.30101 0.55612 1.10100
O 	O 	0.68341 0.31950 0.52007 -0.69600
Ni	Ni	0.75557 0.27916 0.54750 1.09700
O 	O 	0.55284 0.38915 0.53916 -0.37000
O 	O 	0.63163 0.44048 0.49459 -0.42000
O 	O 	0.52426 0.20700 0.52409 -0.37500
Ni	Ni	0.73569 0.44019 0.50959 1.07300
O 	O 	0.49880 0.12404 0.58560 -0.41200
O 	O 	0.73767 0.46695 0.56134 -0.42600
O 	O 	0.84574 0.31662 0.51478 -0.38400
O 	O 	0.66419 0.24451 0.57899 -0.70700
O 	O 	0.51879 0.26955 0.59283 -0.37600
O 	O 	0.80554 0.21048 0.57637 -0.36400
O 	O 	0.69977 0.08835 0.57008 -0.41100
Ni	Ni	0.60470 0.12052 0.57768 1.06400
H 	H 	0.66562 0.28393 0.49854 0.15800
H 	H 	0.67810 0.26692 0.60311 0.15500
C 	C 	0.79444 0.46069 0.58021 0.28400
O 	O 	0.58685 0.11213 0.52528 -0.41400
C 	C 	0.58249 0.44863 0.51604 0.30900
C 	C 	0.87183 0.39609 0.50308 0.29400
C 	C 	0.53822 0.14134 0.51032 0.29700
C 	C 	0.76544 0.13132 0.58572 0.27700
C 	C 	0.48293 0.18758 0.60104 0.27700
O 	O 	0.80867 0.38752 0.57962 -0.36900
O 	O 	0.84514 0.45336 0.51471 -0.42300
Ni	Ni	0.01409 0.93493 0.76220 1.09100
O 	O 	0.00299 0.84784 0.72278 -0.71500
Ni	Ni	0.05544 0.92563 0.68517 1.09200
O 	O 	0.95786 0.83465 0.79373 -0.36600
O 	O 	0.85617 0.79890 0.75620 -0.41800
O 	O 	0.11843 0.93297 0.77806 -0.38800
Ni	Ni	0.89746 0.79144 0.70736 1.06700
O 	O 	0.09676 0.14783 0.78220 -0.40900
O 	O 	0.88050 0.90364 0.69634 -0.42000
O 	O 	0.04842 0.82719 0.65059 -0.37300
O 	O 	0.04937 0.01566 0.72181 -0.68500
O 	O 	0.02055 0.01805 0.80189 -0.37900
O 	O 	0.13588 0.01148 0.65512 -0.35900
O 	O 	0.18554 0.13668 0.68730 -0.39300
Ni	Ni	0.13493 0.12149 0.73540 1.07100
H 	H 	0.02722 0.80538 0.72828 0.15900
H 	H 	0.00736 0.03535 0.71569 0.14600
C 	C 	0.90796 0.94638 0.66841 0.29400
O 	O 	0.20010 0.05681 0.75449 -0.40600
C 	C 	0.88912 0.78278 0.78415 0.28000
C 	C 	0.98121 0.76343 0.64673 0.27400
C 	C 	0.18076 0.00334 0.78047 0.29600
C 	C 	0.19553 0.07466 0.66856 0.27800
C 	C 	0.03234 0.09898 0.79572 0.28100
O 	O 	0.97167 0.94598 0.65587 -0.37100
O 	O 	0.91952 0.77544 0.65690 -0.40600
Ni	Ni	0.23655 0.68268 0.37890 1.09600
O 	O 	0.32992 0.71890 0.34923 -0.71300
Ni	Ni	0.41142 0.73527 0.38492 1.09800
O 	O 	0.17148 0.67717 0.33569 -0.38400
O 	O 	0.23539 0.82007 0.32360 -0.40700
O 	O 	0.21745 0.55220 0.36985 -0.37000
Ni	Ni	0.34977 0.83184 0.32871 1.06000
O 	O 	0.18260 0.55266 0.43752 -0.42200
O 	O 	0.35180 0.89680 0.37472 -0.41700
O 	O 	0.49770 0.76363 0.35114 -0.37800
O 	O 	0.31858 0.71328 0.41588 -0.70000
O 	O 	0.14372 0.64989 0.40954 -0.39700
O 	O 	0.48497 0.71797 0.42176 -0.36800
O 	O 	0.40409 0.66625 0.46551 -0.41500
Ni	Ni	0.29498 0.61399 0.44591 1.07000
H 	H 	0.32858 0.67409 0.33164 0.15500
H 	H 	0.31991 0.76530 0.42930 0.15500
C 	C 	0.40726 0.91200 0.39781 0.29700
O 	O 	0.31148 0.54035 0.40633 -0.42300
C 	C 	0.17473 0.74797 0.31993 0.28100
C 	C 	0.51264 0.83081 0.33051 0.27800
C 	C 	0.25776 0.50715 0.38205 0.28100
C 	C 	0.46087 0.66485 0.44746 0.30400
C 	C 	0.13409 0.59159 0.43359 0.30000
O 	O 	0.45007 0.86497 0.39801 -0.37400
O 	O 	0.46711 0.87648 0.32880 -0.41000
Ni	Ni	0.36875 0.68943 0.06829 1.09600
O 	O 	0.27574 0.67034 0.03706 -0.70800
Ni	Ni	0.21985 0.72932 0.06494 1.10000
O 	O 	0.40889 0.61957 0.03488 -0.37500
O 	O 	0.29900 0.50266 0.03807 -0.41300
O 	O 	0.42335 0.80030 0.04086 -0.36800
Ni	Ni	0.21170 0.54924 0.02991 1.06700
O 	O 	0.47674 0.85825 0.10255 -0.41900
O 	O 	0.18988 0.52887 0.08103 -0.41200
O 	O 	0.13698 0.71477 0.02807 -0.37700
O 	O 	0.30667 0.73483 0.09948 -0.69900
O 	O 	0.46333 0.71603 0.09977 -0.39000
O 	O 	0.18220 0.81939 0.08850 -0.36300
O 	O 	0.27574 0.87156 0.13053 -0.42000
Ni	Ni	0.37003 0.85475 0.11093 1.06500
H 	H 	0.28919 0.69846 0.01445 0.15200
H 	H 	0.28988 0.69904 0.12018 0.16100
C 	C 	0.13791 0.55247 0.09501 0.29600
O 	O 	0.35887 0.88546 0.06070 -0.43400
C 	C 	0.36656 0.53968 0.02536 0.28200
C 	C 	0.10320 0.63967 0.01140 0.28300
C 	C 	0.39899 0.86548 0.03663 0.27800
C 	C 	0.21926 0.87896 0.11225 0.29500
C 	C 	0.50106 0.79597 0.11087 0.29100
O 	O 	0.14112 0.63326 0.09286 -0.36900
O 	O 	0.11174 0.56842 0.02253 -0.41200
Ni	Ni	0.98252 0.06217 0.26830 1.09800
O 	O 	0.97686 0.15943 0.23800 -0.71000
Ni	Ni	0.92911 0.09516 0.19428 1.09900
O 	O 	0.03828 0.15074 0.30752 -0.36200
O 	O 	0.13213 0.21921 0.27041 -0.40800
O 	O 	0.87527 0.03822 0.28904 -0.35500
Ni	Ni	0.07747 0.23936 0.22594 1.06600
O 	O 	0.88461 0.86497 0.27709 -0.41800
O 	O 	0.11553 0.15023 0.20361 -0.39900
O 	O 	0.92026 0.20045 0.16978 -0.37000
O 	O 	0.94972 0.99805 0.22173 -0.69000
O 	O 	0.99518 0.96633 0.29713 -0.37900
O 	O 	0.85295 0.01910 0.15665 -0.35600
O 	O 	0.83814 0.88428 0.17501 -0.40600
Ni	Ni	0.86451 0.88976 0.22722 1.07100
H 	H 	0.94579 0.19036 0.24809 0.15600
H 	H 	0.99171 0.98316 0.21248 0.15500
C 	C 	0.08329 0.10322 0.17592 0.28700
O 	O 	0.80701 0.96680 0.24064 -0.43300
C 	C 	0.10410 0.21258 0.30150 0.27100
C 	C 	0.98070 0.27309 0.16991 0.27200
C 	C 	0.80913 0.99234 0.27309 0.28000
C 	C 	0.80942 0.93790 0.16158 0.28900
C 	C 	0.95379 0.88536 0.28982 0.29500
O 	O 	0.01855 0.10405 0.16334 -0.36600
O 	O 	0.04800 0.27130 0.17849 -0.40200
C 	C 	0.97957 0.34631 0.14914 -0.06900
C 	C 	0.98258 0.33799 0.11312 -0.02700
C 	C 	0.03130 0.40642 0.09430 0.05000
C 	C 	0.07260 0.48666 0.11142 -0.08100
C 	C 	0.05574 0.49997 0.14576 -0.02000
C 	C 	0.00816 0.43025 0.16451 0.02600
S 	S 	0.04082 0.38970 0.04980 -0.08300
S 	S 	0.99149 0.44654 0.20825 -0.07000
H 	H 	0.04649 0.43417 0.22882 0.00800
H 	H 	0.98723 0.41028 0.03130 0.04700
H 	H 	0.95534 0.27492 0.10051 0.05300
H 	H 	0.08309 0.56280 0.15854 0.04100
C 	C 	0.58034 0.82032 0.12293 -0.07800
C 	C 	0.63814 0.86158 0.09999 -0.02200
C 	C 	0.71304 0.90283 0.11229 0.03900
C 	C 	0.73049 0.90351 0.14806 -0.08400
C 	C 	0.67290 0.86031 0.17081 -0.02800
C 	C 	0.59828 0.81858 0.15844 0.03100
S 	S 	0.78419 0.95183 0.08258 -0.03700
S 	S 	0.52765 0.76526 0.18779 -0.07500
H 	H 	0.49736 0.82265 0.20095 0.01600
H 	H 	0.79186 0.03691 0.07914 0.04700
H 	H 	0.62441 0.86365 0.07265 0.05100
H 	H 	0.68637 0.85855 0.19819 0.02900
C 	C 	0.17995 0.93280 0.12769 -0.07500
C 	C 	0.17453 0.93532 0.16388 -0.02600
C 	C 	0.14638 0.99302 0.18001 0.02600
C 	C 	0.11842 0.04600 0.15966 -0.07400
C 	C 	0.12146 0.04158 0.12332 -0.01100
C 	C 	0.15323 0.98644 0.10728 0.02400
S 	S 	0.14755 0.99850 0.22573 -0.09400
S 	S 	0.16183 0.98795 0.06192 -0.04400
H 	H 	0.23081 0.04744 0.05377 0.04300
H 	H 	0.21437 0.05967 0.23775 0.05300
H 	H 	0.19418 0.89353 0.17964 0.04300
H 	H 	0.10040 0.08224 0.10757 0.05200
C 	C 	0.74018 0.95088 0.29360 -0.08400
C 	C 	0.70154 0.86074 0.28954 -0.01600
C 	C 	0.62706 0.82132 0.30061 0.03100
C 	C 	0.59124 0.87135 0.31778 -0.06500
C 	C 	0.63123 0.96088 0.32348 -0.03700
C 	C 	0.70495 0.00085 0.31122 0.05100
S 	S 	0.57776 0.71074 0.29041 -0.06400
S 	S 	0.75123 0.11351 0.31735 -0.04800
H 	H 	0.73539 0.15502 0.28944 0.02900
H 	H 	0.58811 0.66176 0.31699 0.04100
H 	H 	0.72795 0.82182 0.27588 0.02200
H 	H 	0.60489 0.99965 0.33723 0.04800
C 	C 	0.23231 0.41362 0.37246 -0.07600
C 	C 	0.26968 0.38650 0.34643 -0.03000
C 	C 	0.23138 0.31038 0.32678 0.03200
C 	C 	0.15235 0.26665 0.33056 -0.07200
C 	C 	0.11841 0.28706 0.35961 -0.03000
C 	C 	0.15987 0.35678 0.38184 0.03800
S 	S 	0.28416 0.26557 0.30088 -0.04600
S 	S 	0.12578 0.36422 0.42318 -0.02700
H 	H 	0.15182 0.31780 0.44592 0.03500
H 	H 	0.30703 0.21013 0.32021 0.03700
H 	H 	0.32768 0.42551 0.34081 0.03200
H 	H 	0.05993 0.24931 0.36490 0.05300
C 	C 	0.98688 0.81867 0.29423 -0.09800
C 	C 	0.02995 0.80396 0.26740 -0.02600
C 	C 	0.08896 0.77425 0.27494 0.03600
C 	C 	0.10283 0.75615 0.30937 -0.07300
C 	C 	0.05162 0.75703 0.33495 -0.02900
C 	C 	0.99380 0.78851 0.32752 0.04700
S 	S 	0.14544 0.76108 0.24132 -0.06900
S 	S 	0.93284 0.79405 0.36048 -0.03400
H 	H 	0.87052 0.71901 0.35980 0.03500
H 	H 	0.20866 0.83465 0.23950 0.02400
H 	H 	0.02151 0.82222 0.24120 0.01400
H 	H 	0.05980 0.73856 0.36116 0.04600
C 	C 	0.38788 0.97883 0.45261 -0.05300
C 	C 	0.42683 0.98738 0.42166 -0.10500
C 	C 	0.49529 0.05835 0.41799 0.12100
C 	C 	0.52972 0.11102 0.44707 -0.04300
C 	C 	0.49484 0.09617 0.47917 -0.09600
C 	C 	0.42113 0.03292 0.48153 0.11600
N 	N 	0.38269 0.02278 0.51149 -0.19900
H 	H 	0.33379 0.92642 0.45494 0.03200
H 	H 	0.58450 0.16233 0.44487 0.03400
N 	N 	0.52834 0.07560 0.38670 -0.20000
H 	H 	0.32932 0.97418 0.51324 0.07500
H 	H 	0.40405 0.06447 0.53287 0.10500
H 	H 	0.50070 0.04202 0.36420 0.09400
H 	H 	0.58078 0.12553 0.38438 0.08300
C 	C 	0.05833 0.55972 0.48540 -0.05000
C 	C 	0.06026 0.55162 0.44929 -0.10100
C 	C 	0.00261 0.48241 0.43157 0.11400
C 	C 	0.94686 0.42064 0.45060 -0.05300
C 	C 	0.94542 0.42923 0.48673 -0.09600
C 	C 	0.00527 0.49552 0.50435 0.11300
N 	N 	0.01024 0.49933 0.53961 -0.20000
H 	H 	0.10299 0.61178 0.49910 0.02900
H 	H 	0.90114 0.36971 0.43697 0.03800
N 	N 	0.00086 0.47452 0.39638 -0.20100
H 	H 	0.05179 0.55121 0.55269 0.08600
H 	H 	0.97433 0.44942 0.55426 0.10800
H 	H 	0.03839 0.52202 0.38138 0.10600
H 	H 	0.96023 0.42130 0.38358 0.08400
C 	C 	0.55053 0.64757 0.49063 -0.03600
C 	C 	0.50554 0.61613 0.46051 -0.10500
C 	C 	0.48211 0.52755 0.45133 0.09800
C 	C 	0.49164 0.46972 0.47528 -0.03900
C 	C 	0.53961 0.50077 0.50448 -0.09800
C 	C 	0.56693 0.59029 0.51303 0.09800
N 	N 	0.60912 0.62139 0.54260 -0.20200
H 	H 	0.56843 0.71583 0.49784 0.04800
H 	H 	0.47058 0.40087 0.46877 0.05100
N 	N 	0.45103 0.49811 0.41936 -0.19900
H 	H 	0.63155 0.68801 0.54823 0.08400
H 	H 	0.61830 0.57950 0.56065 0.08700
H 	H 	0.45174 0.54131 0.39978 0.08200
H 	H 	0.42958 0.43172 0.41324 0.08600
C 	C 	0.86388 0.98796 0.64896 -0.09000
C 	C 	0.85978 0.06572 0.66185 -0.01600
C 	C 	0.82875 0.11407 0.64123 0.03000
C 	C 	0.80119 0.08399 0.60735 -0.08300
C 	C 	0.80311 0.00474 0.59495 -0.00700
C 	C 	0.83362 0.95629 0.61563 0.03000
S 	S 	0.82311 0.21085 0.65841 -0.05400
S 	S 	0.83205 0.85510 0.59982 -0.04100
H 	H 	0.89744 0.86657 0.58274 0.04900
H 	H 	0.75499 0.19294 0.67394 0.01800
H 	H 	0.88226 0.08951 0.68763 0.03200
H 	H 	0.78066 0.98071 0.56915 0.03800
C 	C 	0.26762 0.09779 0.65011 -0.06700
C 	C 	0.27659 0.14496 0.61954 -0.02200
C 	C 	0.34730 0.17780 0.60399 0.03600
C 	C 	0.41051 0.16415 0.61930 -0.07300
C 	C 	0.40123 0.11617 0.64967 -0.02500
C 	C 	0.33035 0.08289 0.66507 0.02600
S 	S 	0.35526 0.23409 0.56501 -0.02300
S 	S 	0.32064 0.02096 0.70253 -0.04300
H 	H 	0.29954 0.93504 0.69320 0.02100
H 	H 	0.33966 0.17668 0.53739 0.04200
H 	H 	0.22868 0.15706 0.60805 0.05100
H 	H 	0.44896 0.10345 0.66104 0.02700
C 	C 	0.85444 0.54062 0.59494 -0.07800
C 	C 	0.89421 0.53427 0.62537 -0.02300
C 	C 	0.95332 0.60696 0.63926 0.02200
C 	C 	0.97047 0.68805 0.62384 -0.07300
C 	C 	0.94195 0.69022 0.59020 -0.02700
C 	C 	0.88082 0.61929 0.57648 0.05100
S 	S 	0.99929 0.59816 0.67837 -0.06600
S 	S 	0.83652 0.63254 0.53744 -0.09700
H 	H 	0.87873 0.62545 0.50998 0.03400
H 	H 	0.96125 0.61498 0.70571 0.00800
H 	H 	0.87844 0.47314 0.63855 0.04400
H 	H 	0.95961 0.75117 0.57684 0.04800
C 	C 	0.04017 0.62422 0.95386 -0.05500
C 	C 	0.03527 0.62823 0.99000 -0.08800
C 	C 	0.96335 0.59689 0.00513 0.11000
C 	C 	0.89917 0.55094 0.98445 -0.04800
C 	C 	0.90553 0.53825 0.94890 -0.09800
C 	C 	0.97558 0.57987 0.93300 0.11700
N 	N 	0.98121 0.57758 0.89792 -0.20000
H 	H 	0.09502 0.65099 0.94214 0.03500
H 	H 	0.84447 0.52308 0.99623 0.02600
N 	N 	0.95610 0.60829 0.03968 -0.19900
H 	H 	0.03361 0.60658 0.88651 0.08500
H 	H 	0.93354 0.54961 0.88160 0.10900
H 	H 	0.00211 0.64620 0.05537 0.11000
H 	H 	0.90337 0.58138 0.05102 0.08500
C 	C 	0.54832 0.04072 0.98942 -0.02700
C 	C 	0.52045 0.02360 0.95502 -0.08500
C 	C 	0.44832 0.95794 0.94797 0.09900
C 	C 	0.40638 0.91124 0.97557 -0.04400
C 	C 	0.43438 0.92907 0.00987 -0.08700
C 	C 	0.50467 0.99688 0.01696 0.09100
N 	N 	0.52995 0.02126 0.05015 -0.18900
H 	H 	0.60295 0.09125 0.99495 0.04700
H 	H 	0.35275 0.85891 0.97014 0.03300
N 	N 	0.41901 0.93912 0.91503 -0.19900
H 	H 	0.58439 0.06652 0.05525 0.08400
H 	H 	0.49420 0.00038 0.07096 0.08500
H 	H 	0.45031 0.96692 0.89365 0.09300
H 	H 	0.36453 0.89352 0.91043 0.08200
C 	C 	0.49592 0.42151 0.99947 -0.04800
C 	C 	0.46830 0.39352 0.96570 -0.09700
C 	C 	0.40175 0.40463 0.95320 0.10900
C 	C 	0.36877 0.45200 0.97335 -0.04600
C 	C 	0.39997 0.48599 0.00606 -0.09800
C 	C 	0.46162 0.46666 0.02010 0.10900
N 	N 	0.48733 0.49001 0.05335 -0.19900
H 	H 	0.54580 0.41066 0.00931 0.02900
H 	H 	0.31924 0.46339 0.96338 0.02400
N 	N 	0.36946 0.37007 0.92191 -0.19900
H 	H 	0.53467 0.47824 0.06298 0.08200
H 	H 	0.45898 0.51659 0.07036 0.09600
H 	H 	0.38987 0.32981 0.90737 0.09300
H 	H 	0.32160 0.38084 0.91235 0.08000
C 	C 	0.85811 0.16678 0.84157 -0.07600
C 	C 	0.87785 0.18918 0.80721 -0.02900
C 	C 	0.94057 0.17633 0.79292 0.03600
C 	C 	0.98395 0.13951 0.81292 -0.08300
C 	C 	0.96668 0.12165 0.84790 -0.02100
C 	C 	0.90387 0.13432 0.86219 0.03600
S 	S 	0.96344 0.20546 0.74977 -0.10000
S 	S 	0.88390 0.11025 0.90600 -0.03500
H 	H 	0.91989 0.18298 0.92624 0.03600
H 	H 	0.01321 0.28943 0.74929 0.03600
H 	H 	0.84480 0.21763 0.79167 0.03500
H 	H 	0.00030 0.09427 0.86360 0.05400
C 	C 	0.24094 0.00657 0.80597 -0.06000
C 	C 	0.29482 0.97027 0.79695 -0.03500
C 	C 	0.36620 0.99791 0.81405 0.02900
C 	C 	0.38544 0.06656 0.83916 -0.06600
C 	C 	0.32826 0.09536 0.85062 -0.02500
C 	C 	0.25601 0.06400 0.83480 0.02800
S 	S 	0.42630 0.93971 0.80652 -0.06900
S 	S 	0.18496 0.09771 0.85127 -0.02900
H 	H 	0.19379 0.17799 0.83904 0.03800
H 	H 	0.41169 0.87428 0.82976 0.03100
H 	H 	0.28203 0.92230 0.77597 0.04200
H 	H 	0.34034 0.14372 0.87140 0.04900
C 	C 	0.75740 0.54492 0.82971 -0.08800
C 	C 	0.76882 0.62402 0.84720 -0.01500
C 	C 	0.81640 0.70222 0.83376 0.03600
C 	C 	0.85189 0.70190 0.80214 -0.08300
C 	C 	0.83946 0.62313 0.78436 -0.02900
C 	C 	0.79167 0.54501 0.79766 0.04400
S 	S 	0.83084 0.80010 0.85671 -0.03600
S 	S 	0.77250 0.44818 0.77320 -0.06700
H 	H 	0.82433 0.41126 0.78216 0.04400
H 	H 	0.77871 0.83431 0.84535 0.03400
H 	H 	0.74286 0.62441 0.87193 0.02400
H 	H 	0.86514 0.62305 0.75952 0.00900
