data_crystal

_cell_length_a 25.67759
_cell_length_b 26.37625
_cell_length_c 34.89670
_cell_angle_alpha 95.44637
_cell_angle_beta  95.44507
_cell_angle_gamma 125.76411

_symmetry_space_group_name_	'P 1'
_symmetry_space_group_name_H-M	'P 1'

loop_
_symmetry_equiv_pos_as_xyz
  x,y,z

loop_
_atom_site_label
_atom_site_type_symbol
_atom_site_fract_x
_atom_site_fract_y
_atom_site_fract_z
_atom_site_charge
C 	C 	0.00069 0.06163 0.98416 0.22000
N 	N 	0.06367 0.09420 0.97902 -0.08100
C 	C 	0.08597 0.06241 0.96386 0.17200
N 	N 	0.04491 0.99808 0.95363 -0.07200
C 	C 	0.98288 0.96506 0.96046 0.17500
N 	N 	0.96095 0.99704 0.97593 -0.05900
C 	C 	0.89767 0.95364 0.44585 0.19100
N 	N 	0.85847 0.88935 0.44217 -0.08600
C 	C 	0.88517 0.85777 0.44497 0.19300
N 	N 	0.95104 0.89071 0.45265 -0.08600
C 	C 	0.99029 0.95489 0.45626 0.16400
N 	N 	0.96361 0.98646 0.45336 -0.07700
Cu	Cu	0.68678 0.29581 0.02451 0.94100
Cu	Cu	0.73977 0.28831 0.94346 0.90300
Cu	Cu	0.73227 0.39444 0.97140 0.91700
Cu	Cu	0.69374 0.41823 0.04668 0.93500
C 	C 	0.70083 0.34538 0.10494 0.29400
O 	O 	0.59232 0.26381 0.02077 -0.29300
C 	C 	0.70902 0.34334 0.88752 0.28600
O 	O 	0.74397 0.39477 0.02669 -0.63000
O 	O 	0.68299 0.30065 0.96835 -0.63300
O 	O 	0.72123 0.24472 0.02544 -0.31800
O 	O 	0.79738 0.30395 0.98897 -0.35500
O 	O 	0.67499 0.37309 0.09211 -0.29300
O 	O 	0.77877 0.48574 0.97790 -0.29100
C 	C 	0.76073 0.51701 0.99711 0.30300
C 	C 	0.57083 0.29255 0.00399 0.29500
O 	O 	0.61228 0.35148 0.99936 -0.32300
O 	O 	0.73984 0.50283 0.03051 -0.31700
O 	O 	0.70509 0.30704 0.08043 -0.30900
C 	C 	0.77602 0.26411 0.01344 0.31200
O 	O 	0.73695 0.39420 0.91529 -0.30000
O 	O 	0.70239 0.29189 0.89474 -0.36200
H 	H 	0.79016 0.42062 0.04015 0.21700
H 	H 	0.63823 0.27596 0.95275 0.19500
Cu	Cu	0.70238 0.30081 0.45809 0.94300
Cu	Cu	0.73208 0.27257 0.54393 0.90600
Cu	Cu	0.61073 0.26075 0.51712 0.92100
Cu	Cu	0.56578 0.27642 0.43803 0.91900
C 	C 	0.64768 0.28541 0.37924 0.28500
O 	O 	0.72983 0.38911 0.45446 -0.30800
C 	C 	0.67573 0.30120 0.60044 0.29500
O 	O 	0.60290 0.24067 0.46182 -0.63400
O 	O 	0.70605 0.31566 0.51509 -0.63300
O 	O 	0.75755 0.27076 0.45753 -0.31900
O 	O 	0.71088 0.20754 0.50241 -0.34600
O 	O 	0.59073 0.27050 0.38595 -0.32900
O 	O 	0.51762 0.20282 0.51504 -0.30600
C 	C 	0.47372 0.20100 0.49069 0.30300
C 	C 	0.69597 0.40864 0.46551 0.29800
O 	O 	0.63914 0.36863 0.47511 -0.32100
O 	O 	0.49090 0.24178 0.46657 -0.30400
O 	O 	0.68229 0.27446 0.40259 -0.31500
C 	C 	0.74194 0.22103 0.47280 0.30400
O 	O 	0.62038 0.26711 0.57451 -0.32300
O 	O 	0.73054 0.31495 0.59086 -0.35600
H 	H 	0.57966 0.19478 0.45167 0.22700
H 	H 	0.72848 0.36067 0.52721 0.24200
C 	C 	0.69631 0.34815 0.84661 -0.01800
C 	C 	0.63501 0.30198 0.82306 0.02300
C 	C 	0.62583 0.29938 0.78261 -0.01900
C 	C 	0.67947 0.34041 0.76488 0.02600
C 	C 	0.73905 0.39169 0.78922 0.04500
C 	C 	0.74724 0.39500 0.82999 0.00400
C 	C 	0.79009 0.43830 0.77257 -0.01200
C 	C 	0.78401 0.43284 0.73198 -0.01300
C 	C 	0.72817 0.37904 0.70726 0.04200
C 	C 	0.67546 0.33164 0.72346 0.02600
C 	C 	0.62313 0.27460 0.69833 -0.02000
C 	C 	0.62180 0.26662 0.65803 0.02500
C 	C 	0.67363 0.31374 0.64211 -0.02700
C 	C 	0.72615 0.37030 0.66663 -0.00200
H 	H 	0.59442 0.26788 0.83610 0.08400
H 	H 	0.57684 0.26729 0.76569 0.09000
H 	H 	0.79398 0.43223 0.84852 0.10500
H 	H 	0.83490 0.47878 0.79114 0.09800
H 	H 	0.82408 0.46943 0.71970 0.09400
H 	H 	0.58561 0.23472 0.70984 0.08400
H 	H 	0.58180 0.22215 0.63938 0.09100
H 	H 	0.76641 0.40663 0.65428 0.09300
C 	C 	0.70921 0.34449 0.14730 -0.01700
C 	C 	0.72170 0.39477 0.17450 0.02700
C 	C 	0.71949 0.39008 0.21392 -0.01800
C 	C 	0.70212 0.33362 0.22646 0.02700
C 	C 	0.69833 0.28677 0.20018 0.04200
C 	C 	0.70051 0.29177 0.16053 0.00200
C 	C 	0.69247 0.23561 0.21377 -0.01400
C 	C 	0.68845 0.22954 0.25287 -0.01400
C 	C 	0.68578 0.27207 0.27842 0.03800
C 	C 	0.69012 0.32329 0.26499 0.02700
C 	C 	0.67676 0.35920 0.28897 -0.02300
C 	C 	0.66473 0.34760 0.32653 0.02200
C 	C 	0.66407 0.29926 0.34052 -0.03300
C 	C 	0.67507 0.26183 0.31660 -0.00100
H 	H 	0.73292 0.43755 0.16505 0.08600
H 	H 	0.73385 0.43121 0.23464 0.09000
H 	H 	0.69382 0.25405 0.13995 0.09500
H 	H 	0.69149 0.20062 0.19404 0.09200
H 	H 	0.68496 0.19021 0.26296 0.09100
H 	H 	0.67175 0.39337 0.27799 0.09400
H 	H 	0.65460 0.37557 0.34457 0.07400
H 	H 	0.67267 0.22321 0.32710 0.09200
C 	C 	0.81877 0.68581 0.41802 0.05100
C 	C 	0.78138 0.65985 0.44706 0.09100
C 	C 	0.77128 0.69743 0.47245 -0.08100
C 	C 	0.80404 0.76207 0.47038 0.06100
C 	C 	0.84287 0.78827 0.44200 0.06500
C 	C 	0.84605 0.74860 0.41359 -0.06800
C 	C 	0.75721 0.59491 0.45246 0.10200
C 	C 	0.73037 0.67051 0.50393 0.78700
H 	H 	0.80152 0.79274 0.49185 0.11700
C 	C 	0.88095 0.77362 0.37960 0.78400
H 	H 	0.82713 0.65713 0.39912 0.12600
C 	C 	0.70172 0.54036 0.42699 -0.10100
C 	C 	0.68357 0.47991 0.43142 0.08200
C 	C 	0.71730 0.47294 0.46190 0.00200
C 	C 	0.77088 0.52716 0.48837 -0.05000
C 	C 	0.79194 0.58790 0.48231 0.03400
C 	C 	0.66453 0.54649 0.39344 0.79000
H 	H 	0.64340 0.43798 0.41092 0.07500
C 	C 	0.80558 0.52034 0.52294 0.77600
H 	H 	0.83529 0.63002 0.50088 0.13300
F 	F 	0.85929 0.72428 0.34905 -0.36300
F 	F 	0.94737 0.80606 0.39192 -0.37200
F 	F 	0.86939 0.81404 0.36532 -0.34300
F 	F 	0.76596 0.66752 0.53474 -0.39000
F 	F 	0.67346 0.61025 0.48923 -0.36600
F 	F 	0.71279 0.70830 0.51813 -0.36800
F 	F 	0.83722 0.49606 0.50955 -0.42100
F 	F 	0.76071 0.47963 0.54444 -0.42300
F 	F 	0.85144 0.57811 0.54775 -0.38400
F 	F 	0.60459 0.48894 0.37815 -0.38900
F 	F 	0.70051 0.56645 0.36387 -0.40100
F 	F 	0.65294 0.58980 0.40599 -0.36400
C 	C 	0.82641 0.03586 0.40981 0.01400
C 	C 	0.82266 0.06202 0.44541 0.09800
C 	C 	0.83753 0.04730 0.48094 -0.08000
C 	C 	0.86221 0.01171 0.48034 0.02700
C 	C 	0.86890 0.98813 0.44494 0.09100
C 	C 	0.84908 0.99851 0.40913 -0.03400
C 	C 	0.80141 0.10351 0.44504 0.09500
C 	C 	0.82406 0.06673 0.51902 0.78500
H 	H 	0.87617 0.00204 0.50740 0.11200
C 	C 	0.85149 0.96926 0.37031 0.77800
H 	H 	0.81227 0.04537 0.38273 0.13300
C 	C 	0.84747 0.17040 0.44997 -0.09600
C 	C 	0.82669 0.20868 0.45752 0.08000
C 	C 	0.76048 0.18091 0.45723 0.00500
C 	C 	0.71343 0.11428 0.44527 -0.05800
C 	C 	0.73466 0.07594 0.44094 0.04000
C 	C 	0.91832 0.20074 0.44707 0.78900
H 	H 	0.86209 0.25994 0.46498 0.10100
C 	C 	0.64083 0.08364 0.43846 0.77800
H 	H 	0.69944 0.02459 0.43545 0.12700
F 	F 	0.91497 0.99123 0.36898 -0.33300
F 	F 	0.82958 0.98437 0.33874 -0.35300
F 	F 	0.81243 0.90376 0.36635 -0.35800
F 	F 	0.75800 0.03838 0.51548 -0.40400
F 	F 	0.85835 0.13202 0.52765 -0.38800
F 	F 	0.84233 0.04829 0.55029 -0.38800
F 	F 	0.60559 0.02458 0.41424 -0.39200
F 	F 	0.62788 0.12086 0.42069 -0.43700
F 	F 	0.61968 0.07594 0.47389 -0.40400
F 	F 	0.95407 0.26595 0.44978 -0.38800
F 	F 	0.92141 0.17576 0.41142 -0.39700
F 	F 	0.94713 0.18899 0.47692 -0.37800
C 	C 	0.16761 0.04926 0.44504 0.05800
C 	C 	0.19720 0.05191 0.48181 0.08300
C 	C 	0.15898 0.02450 0.51082 -0.10000
C 	C 	0.09150 0.99491 0.50211 0.08100
C 	C 	0.06163 0.99019 0.46483 0.12000
C 	C 	0.09966 0.01652 0.43564 -0.09700
C 	C 	0.26888 0.08617 0.49006 0.11300
C 	C 	0.19043 0.03036 0.55179 0.76800
H 	H 	0.06189 0.97541 0.52434 0.12500
C 	C 	0.06855 0.01288 0.39522 0.77200
H 	H 	0.19784 0.07270 0.42372 0.12700
C 	C 	0.29765 0.05806 0.47499 -0.12900
C 	C 	0.36565 0.09616 0.47688 0.08900
C 	C 	0.40506 0.16021 0.49520 0.00500
C 	C 	0.37704 0.18611 0.51415 -0.04800
C 	C 	0.30875 0.14966 0.50965 0.03100
C 	C 	0.25578 0.98934 0.45365 0.81800
H 	H 	0.38776 0.07675 0.46268 0.09200
C 	C 	0.41944 0.25366 0.53729 0.77700
H 	H 	0.28630 0.17104 0.52050 0.14000
F 	F 	0.11148 0.03143 0.36928 -0.36000
F 	F 	0.04998 0.05264 0.39792 -0.35700
F 	F 	0.01430 0.95127 0.37991 -0.30700
F 	F 	0.22422 0.09213 0.57178 -0.39000
F 	F 	0.23318 0.01477 0.55010 -0.37700
F 	F 	0.14414 0.99015 0.57283 -0.34700
F 	F 	0.44054 0.29606 0.51175 -0.39100
F 	F 	0.47309 0.26537 0.56099 -0.40500
F 	F 	0.38527 0.26405 0.56121 -0.37100
F 	F 	0.29256 0.96684 0.45071 -0.36500
F 	F 	0.22850 0.98511 0.41628 -0.37500
F 	F 	0.20638 0.95040 0.47334 -0.35700
C 	C 	0.83871 0.79094 0.94884 0.06200
C 	C 	0.87068 0.76538 0.96176 0.08500
C 	C 	0.93956 0.80265 0.96733 -0.06400
C 	C 	0.97538 0.86819 0.96762 0.02800
C 	C 	0.94354 0.89501 0.95686 0.08900
C 	C 	0.87475 0.85463 0.94375 -0.07100
C 	C 	0.83180 0.70013 0.97031 0.10000
C 	C 	0.97477 0.77261 0.97240 0.76200
H 	H 	0.02802 0.89862 0.97668 0.15200
C 	C 	0.83938 0.87851 0.92451 0.78500
H 	H 	0.78577 0.76133 0.94304 0.13300
C 	C 	0.82550 0.68979 0.00915 -0.09000
C 	C 	0.80400 0.63004 0.01748 0.09100
C 	C 	0.78007 0.57853 0.98703 0.01800
C 	C 	0.77449 0.58655 0.94749 -0.05600
C 	C 	0.80409 0.64825 0.93967 0.04400
C 	C 	0.84127 0.74207 0.04155 0.79100
H 	H 	0.80645 0.62367 0.04765 0.11400
C 	C 	0.73931 0.53062 0.91352 0.77900
H 	H 	0.80685 0.65618 0.90977 0.12700
F 	F 	0.82623 0.90753 0.95303 -0.35000
F 	F 	0.78079 0.82868 0.90090 -0.36700
F 	F 	0.87651 0.92129 0.90108 -0.37600
F 	F 	0.94766 0.72074 0.94268 -0.39900
F 	F 	0.96959 0.75291 0.00806 -0.36900
F 	F 	0.04044 0.81497 0.97103 -0.34700
F 	F 	0.71794 0.54446 0.88099 -0.39800
F 	F 	0.68500 0.47721 0.92294 -0.43400
F 	F 	0.78172 0.51755 0.90371 -0.41800
F 	F 	0.82032 0.71894 0.07525 -0.37100
F 	F 	0.81036 0.76825 0.02962 -0.37800
F 	F 	0.90791 0.78921 0.05058 -0.36200
C 	C 	0.91802 0.11983 0.03790 0.04400
C 	C 	0.91028 0.15188 0.01072 0.10000
C 	C 	0.93897 0.16053 0.97686 -0.08700
C 	C 	0.96980 0.13170 0.96927 0.07900
C 	C 	0.97400 0.09635 0.99529 0.04000
C 	C 	0.95099 0.09301 0.03096 -0.05000
C 	C 	0.87224 0.17658 0.01808 0.09700
C 	C 	0.93862 0.20206 0.94960 0.78900
H 	H 	0.98974 0.13577 0.94275 0.13500
C 	C 	0.95919 0.05894 0.06097 0.74000
H 	H 	0.89727 0.11488 0.06415 0.13400
C 	C 	0.80394 0.13866 0.00417 -0.09500
C 	C 	0.77192 0.16743 0.00516 0.08200
C 	C 	0.80648 0.23211 0.02123 -0.00000
C 	C 	0.87229 0.26712 0.04046 -0.05300
C 	C 	0.90513 0.23936 0.03778 0.03900
C 	C 	0.76539 0.06791 0.98829 0.78600
H 	H 	0.72079 0.14038 0.99192 0.09000
C 	C 	0.90855 0.33496 0.06210 0.77700
H 	H 	0.95688 0.26725 0.04973 0.13200
F 	F 	0.91455 0.99394 0.04830 -0.33100
F 	F 	0.94904 0.07474 0.09706 -0.37300
F 	F 	0.02176 0.07546 0.06617 -0.36900
F 	F 	0.97317 0.26388 0.96970 -0.40000
F 	F 	0.87523 0.17977 0.93549 -0.39200
F 	F 	0.96721 0.20279 0.91775 -0.37500
F 	F 	0.96332 0.35336 0.08819 -0.38800
F 	F 	0.86873 0.34069 0.08325 -0.42200
F 	F 	0.92812 0.37551 0.03545 -0.39400
F 	F 	0.69933 0.03919 0.97738 -0.38800
F 	F 	0.77281 0.03842 0.01674 -0.38800
F 	F 	0.78756 0.05829 0.95578 -0.37100
C 	C 	0.26120 0.18174 0.95113 0.05000
C 	C 	0.29212 0.15941 0.97082 0.09400
C 	C 	0.25479 0.10397 0.98722 -0.08500
C 	C 	0.18778 0.07428 0.98539 0.05700
C 	C 	0.15662 0.09586 0.96508 0.06700
C 	C 	0.19302 0.14827 0.94603 -0.07000
C 	C 	0.36436 0.19779 0.97741 0.09700
C 	C 	0.28698 0.07926 0.00945 0.79000
H 	H 	0.15966 0.03459 0.00021 0.11700
C 	C 	0.16008 0.17013 0.92148 0.78400
H 	H 	0.29048 0.22543 0.93993 0.13500
C 	C 	0.39679 0.19166 0.94867 -0.09500
C 	C 	0.46484 0.22400 0.95787 0.08600
C 	C 	0.50025 0.26156 0.99496 0.00500
C 	C 	0.46818 0.26975 0.02303 -0.04800
C 	C 	0.40053 0.23867 0.01352 0.04100
C 	C 	0.35943 0.15269 0.90790 0.79000
H 	H 	0.49046 0.21983 0.93631 0.08400
C 	C 	0.50566 0.30980 0.06351 0.77900
H 	H 	0.37524 0.24435 0.03469 0.13400
F 	F 	0.20006 0.20949 0.89745 -0.36300
F 	F 	0.14599 0.20340 0.94584 -0.38400
F 	F 	0.10290 0.11857 0.89767 -0.37800
F 	F 	0.32041 0.11797 0.04579 -0.39300
F 	F 	0.33011 0.07824 0.98909 -0.38200
F 	F 	0.24114 0.01787 0.01492 -0.37300
F 	F 	0.46603 0.31300 0.08631 -0.38300
F 	F 	0.55564 0.37114 0.06028 -0.43800
F 	F 	0.53170 0.28356 0.08257 -0.40800
F 	F 	0.39870 0.14829 0.88540 -0.39700
F 	F 	0.33578 0.18103 0.88899 -0.39200
F 	F 	0.30764 0.09159 0.91024 -0.37400
