data_crystal

_cell_length_a 18.47693
_cell_length_b 18.86668
_cell_length_c 36.50756
_cell_angle_alpha 95.43089
_cell_angle_beta  95.43098
_cell_angle_gamma 126.42879

_symmetry_space_group_name_	'P 1'
_symmetry_space_group_name_H-M	'P 1'

loop_
_symmetry_equiv_pos_as_xyz
  x,y,z

loop_
_atom_site_label
_atom_site_type_symbol
_atom_site_fract_x
_atom_site_fract_y
_atom_site_fract_z
_atom_site_charge
C 	C 	0.91160 0.99973 0.96509 0.23300
N 	N 	0.86596 0.90996 0.96408 -0.10700
C 	C 	0.91329 0.87541 0.96469 0.17400
N 	N 	0.00521 0.93051 0.96661 -0.07900
C 	C 	0.05074 0.01986 0.96858 0.14700
N 	N 	0.00379 0.05415 0.96749 -0.14500
C 	C 	0.94199 0.02932 0.50113 0.13200
N 	N 	0.88687 0.93906 0.49893 -0.08700
C 	C 	0.92311 0.89415 0.49880 0.17400
N 	N 	0.01448 0.93962 0.50096 -0.08100
C 	C 	0.06975 0.02959 0.50290 0.15700
N 	N 	0.03351 0.07463 0.50275 -0.09900
Cu	Cu	0.76701 0.34894 0.96203 0.93000
Cu	Cu	0.75462 0.28538 0.04300 0.87700
Cu	Cu	0.62553 0.31467 0.00915 0.90400
Cu	Cu	0.59354 0.33586 0.93109 0.90800
C 	C 	0.70106 0.31160 0.88293 0.30900
O 	O 	0.81592 0.47837 0.95871 -0.31600
C 	C 	0.67862 0.34255 0.09104 0.30400
O 	O 	0.62425 0.27471 0.95835 -0.64100
O 	O 	0.75794 0.36893 0.01478 -0.63600
O 	O 	0.82751 0.28936 0.96832 -0.32500
O 	O 	0.72550 0.19615 0.00272 -0.42500
O 	O 	0.66376 0.35169 0.89031 -0.35300
O 	O 	0.49478 0.25276 0.00279 -0.36900
C 	C 	0.43927 0.24044 0.97295 0.33300
C 	C 	0.77203 0.51043 0.96885 0.32000
O 	O 	0.68699 0.45505 0.97340 -0.38900
O 	O 	0.46949 0.27602 0.94318 -0.34600
O 	O 	0.75368 0.31073 0.90962 -0.32600
C 	C 	0.78541 0.21392 0.98135 0.31600
O 	O 	0.62982 0.34474 0.06284 -0.35900
O 	O 	0.75040 0.34568 0.08679 -0.40300
H 	H 	0.58462 0.20876 0.95009 0.17500
H 	H 	0.79900 0.43219 0.02807 0.18900
Cu	Cu	0.61250 0.19852 0.50685 0.93300
Cu	Cu	0.67487 0.20861 0.42559 0.87800
Cu	Cu	0.64162 0.33376 0.45904 0.90800
Cu	Cu	0.62252 0.36576 0.53737 0.90500
C 	C 	0.65229 0.26381 0.58587 0.30800
O 	O 	0.48211 0.14903 0.51129 -0.35500
C 	C 	0.61647 0.28325 0.37756 0.30600
O 	O 	0.68610 0.33777 0.50973 -0.63800
O 	O 	0.58936 0.20494 0.45394 -0.63800
O 	O 	0.66748 0.13531 0.49989 -0.33400
O 	O 	0.76472 0.23360 0.46562 -0.42900
O 	O 	0.60995 0.29903 0.57859 -0.36900
O 	O 	0.70124 0.46097 0.46477 -0.34000
C 	C 	0.71381 0.51533 0.49459 0.34400
C 	C 	0.44634 0.18822 0.49997 0.33100
O 	O 	0.50028 0.27189 0.49559 -0.36700
O 	O 	0.67906 0.48593 0.52465 -0.37800
O 	O 	0.65476 0.21372 0.55908 -0.33000
C 	C 	0.74402 0.17413 0.48689 0.33400
O 	O 	0.60881 0.32729 0.40537 -0.34300
O 	O 	0.61407 0.21332 0.38163 -0.40100
H 	H 	0.75360 0.37785 0.51755 0.18400
H 	H 	0.52460 0.16323 0.44090 0.19300
C 	C 	0.70176 0.25192 0.69553 0.00900
C 	C 	0.63157 0.18055 0.71002 -0.02400
C 	C 	0.63701 0.18611 0.74879 -0.02600
C 	C 	0.71268 0.26303 0.77319 0.01100
C 	C 	0.78619 0.33105 0.75871 -0.02400
C 	C 	0.78073 0.32550 0.71994 -0.02400
C 	C 	0.70852 0.27849 0.81207 0.06100
C 	C 	0.70573 0.29211 0.84465 -0.06700
C 	C 	0.68627 0.25628 0.65668 0.06000
C 	C 	0.67244 0.25910 0.62409 -0.07300
H 	H 	0.57068 0.12295 0.69133 0.06000
H 	H 	0.58031 0.13276 0.75976 0.05600
H 	H 	0.84542 0.39032 0.77740 0.06500
H 	H 	0.83575 0.38055 0.70896 0.05800
C 	C 	0.61278 0.33701 0.27208 0.00700
C 	C 	0.53866 0.27385 0.24308 -0.02600
C 	C 	0.54715 0.28205 0.20574 -0.02600
C 	C 	0.62982 0.35341 0.19730 0.00500
C 	C 	0.70126 0.42026 0.22638 -0.02500
C 	C 	0.69276 0.41208 0.26370 -0.02600
C 	C 	0.64634 0.35056 0.15962 0.05700
C 	C 	0.66032 0.34829 0.12809 -0.08800
C 	C 	0.61221 0.31790 0.30936 0.05700
C 	C 	0.61265 0.30272 0.34069 -0.08100
H 	H 	0.47621 0.21609 0.24933 0.05700
H 	H 	0.49120 0.23056 0.18342 0.05600
H 	H 	0.76508 0.47611 0.22010 0.05800
H 	H 	0.75005 0.46171 0.28598 0.05900
C 	C 	0.88280 0.74575 0.47321 -0.11600
C 	C 	0.86347 0.79606 0.49490 -0.05000
C 	C 	0.79139 0.75291 0.51483 0.32100
C 	C 	0.74093 0.66075 0.51379 -0.06700
C 	C 	0.76278 0.61107 0.49332 -0.13100
C 	C 	0.83356 0.65402 0.47270 0.36100
F 	F 	0.85686 0.60760 0.45327 -0.43700
H 	H 	0.93749 0.77825 0.45735 0.11600
H 	H 	0.68558 0.62815 0.52931 0.10800
F 	F 	0.77246 0.80072 0.53630 -0.41100
C 	C 	0.84719 0.06787 0.52672 -0.12400
C 	C 	0.90193 0.07708 0.50060 -0.04800
C 	C 	0.91014 0.12406 0.47173 0.30600
C 	C 	0.86041 0.15770 0.46793 -0.07300
C 	C 	0.80227 0.14513 0.49308 -0.14200
C 	C 	0.79816 0.10237 0.52325 0.36100
F 	F 	0.74706 0.09446 0.54925 -0.42800
H 	H 	0.84160 0.03276 0.54941 0.12100
H 	H 	0.86509 0.19129 0.44478 0.08400
F 	F 	0.96301 0.13350 0.44631 -0.43500
C 	C 	0.30762 0.09750 0.52810 -0.07100
C 	C 	0.34904 0.14552 0.49991 -0.13700
C 	C 	0.29969 0.15988 0.47400 0.35800
C 	C 	0.20974 0.12615 0.47631 -0.12000
C 	C 	0.16814 0.07722 0.50423 -0.05000
C 	C 	0.21784 0.06386 0.53038 0.31200
F 	F 	0.17884 0.01795 0.55795 -0.42400
H 	H 	0.34567 0.08774 0.54872 0.10300
H 	H 	0.17144 0.13567 0.45571 0.12800
F 	F 	0.33837 0.20516 0.44624 -0.43400
C 	C 	0.79477 0.65109 0.99486 -0.07900
C 	C 	0.81154 0.60541 0.96851 -0.12500
C 	C 	0.85409 0.64615 0.93892 0.35600
C 	C 	0.88081 0.73192 0.93617 -0.11400
C 	C 	0.86585 0.77838 0.96295 -0.04700
C 	C 	0.82173 0.73705 0.99211 0.31800
F 	F 	0.80798 0.78134 0.01859 -0.39100
H 	H 	0.76072 0.61990 0.01747 0.11000
H 	H 	0.91519 0.76328 0.91364 0.11400
F 	F 	0.86755 0.60191 0.91228 -0.42700
C 	C 	0.79136 0.09190 0.99898 -0.08200
C 	C 	0.80984 0.15204 0.97457 -0.13200
C 	C 	0.85028 0.15168 0.94383 0.34800
C 	C 	0.87652 0.09573 0.93899 -0.10600
C 	C 	0.86239 0.03925 0.96457 -0.09800
C 	C 	0.81718 0.03573 0.99394 0.28700
F 	F 	0.80286 0.98163 0.01890 -0.37100
H 	H 	0.75910 0.09027 0.02249 0.08700
H 	H 	0.91072 0.09849 0.91602 0.09700
F 	F 	0.86421 0.20521 0.91866 -0.42800
C 	C 	0.19178 0.15144 0.95226 -0.12600
C 	C 	0.15080 0.07931 0.97139 -0.04000
C 	C 	0.20566 0.06332 0.99262 0.26900
C 	C 	0.29980 0.11656 0.99330 -0.06700
C 	C 	0.34053 0.18729 0.97338 -0.13600
C 	C 	0.28621 0.20570 0.95346 0.36300
F 	F 	0.32499 0.27681 0.93573 -0.42700
H 	H 	0.15029 0.16492 0.93611 0.11800
H 	H 	0.34101 0.10222 0.00903 0.09500
F 	F 	0.16791 0.99687 0.01293 -0.37100
