data_crystal

_cell_length_a 26.07124
_cell_length_b 26.31604
_cell_length_c 23.29829
_cell_angle_alpha 95.49088
_cell_angle_beta  95.48929
_cell_angle_gamma 125.83243

_symmetry_space_group_name_	'P 1'
_symmetry_space_group_name_H-M	'P 1'

loop_
_symmetry_equiv_pos_as_xyz
  x,y,z

loop_
_atom_site_label
_atom_site_type_symbol
_atom_site_fract_x
_atom_site_fract_y
_atom_site_fract_z
_atom_site_charge
C 	C 	0.05644 0.03085 0.96785 0.11800
N 	N 	0.03189 0.06340 0.97950 -0.13300
N 	N 	0.00035 0.03445 0.43987 -0.13500
C 	C 	0.03330 0.01029 0.45148 0.11600
C 	C 	0.19706 0.05845 0.43097 -0.04300
C 	C 	0.23725 0.12187 0.46133 0.00500
C 	C 	0.21010 0.14914 0.48716 -0.04400
C 	C 	0.14334 0.11314 0.48291 -0.02200
C 	C 	0.10323 0.04943 0.45319 -0.01700
C 	C 	0.13041 0.02234 0.42707 -0.02600
H 	H 	0.12294 0.13440 0.50359 0.04200
H 	H 	0.21748 0.03722 0.41025 0.04000
C 	C 	0.25213 0.11696 0.95401 0.00700
C 	C 	0.20225 0.06383 0.91218 -0.04300
C 	C 	0.13812 0.03780 0.91466 -0.02500
C 	C 	0.12338 0.06477 0.95899 -0.01900
C 	C 	0.17347 0.12000 0.99893 -0.01600
H 	H 	0.21310 0.04162 0.87883 0.04200
H 	H 	0.16272 0.14129 0.03328 0.03600
C 	C 	0.23763 0.14587 0.99656 -0.04000
C 	C 	0.30763 0.16002 0.46510 0.02500
H 	H 	0.24075 0.19804 0.51077 0.04200
H 	H 	0.27598 0.18732 0.02870 0.03600
H 	H 	0.31714 0.09608 0.50836 0.04600
C 	C 	0.31910 0.13973 0.95568 0.01700
H 	H 	0.32190 0.09859 0.03076 0.03900
H 	H 	0.33103 0.18486 0.88025 0.04600
C 	C 	0.97078 0.03202 0.98987 0.11200
C 	C 	0.88544 0.09351 0.37614 -0.04500
C 	C 	0.84377 0.08813 0.41326 0.00400
C 	C 	0.82901 0.04944 0.45581 -0.04400
C 	C 	0.85698 0.01783 0.46218 -0.02700
C 	C 	0.90048 0.02511 0.42650 -0.02100
C 	C 	0.91386 0.06239 0.38289 -0.02300
H 	H 	0.79708 0.04506 0.48482 0.03700
H 	H 	0.94680 0.06779 0.35465 0.03800
H 	H 	0.89652 0.12253 0.34266 0.04000
C 	C 	0.75148 0.09463 0.40253 -0.06800
H 	H 	0.67642 0.10624 0.40267 0.02800
H 	H 	0.71826 0.04305 0.39576 0.04500
C 	C 	0.34189 0.13925 0.49013 -0.06500
H 	H 	0.43362 0.15651 0.50962 0.03400
C 	C 	0.92151 0.14011 0.97422 -0.04100
C 	C 	0.88397 0.12675 0.01790 -0.00100
C 	C 	0.87767 0.08451 0.05421 -0.04600
C 	C 	0.90705 0.05450 0.04579 -0.02100
C 	C 	0.94351 0.06689 0.00133 -0.03000
C 	C 	0.95140 0.11058 0.96618 -0.01800
H 	H 	0.84941 0.07438 0.08846 0.04100
H 	H 	0.90125 0.02143 0.07363 0.03700
H 	H 	0.97923 0.12036 0.93162 0.03600
C 	C 	0.74708 0.14003 0.01553 0.01200
C 	C 	0.78126 0.11434 0.01732 -0.06900
H 	H 	0.69495 0.10834 0.00847 0.02800
H 	H 	0.75522 0.06310 0.01181 0.04400
C 	C 	0.81807 0.12541 0.40958 0.02400
C 	C 	0.72774 0.13045 0.40616 0.01500
C 	C 	0.84864 0.15446 0.02351 0.02500
C 	C 	0.34874 0.12687 0.99929 -0.04500
C 	C 	0.40806 0.17377 0.49113 0.01300
H 	H 	0.92641 0.17234 0.94571 0.03700
C 	C 	0.35386 0.17545 0.91455 -0.05900
C 	C 	0.41351 0.15175 0.00327 -0.00700
H 	H 	0.43640 0.14323 0.03837 0.04200
C 	C 	0.41874 0.20055 0.91856 0.00600
C 	C 	0.86040 0.19224 0.41682 -0.06800
C 	C 	0.77030 0.19741 0.41641 -0.09700
C 	C 	0.44936 0.19013 0.96383 -0.07800
O 	O 	0.54667 0.20326 0.00269 -0.36700
O 	O 	0.68746 0.20609 0.02107 -0.37000
C 	C 	0.77991 0.20601 0.01921 -0.09700
H 	H 	0.09984 0.99563 0.88313 0.04600
N 	N 	0.01992 0.96708 0.96675 -0.13100
N 	N 	0.00152 0.94962 0.46099 -0.13100
H 	H 	0.09986 0.97338 0.40361 0.04600
H 	H 	0.31418 0.23254 0.42251 0.04600
H 	H 	0.44557 0.22930 0.88734 0.03300
H 	H 	0.84642 0.98938 0.49609 0.04200
N 	N 	0.93447 0.96813 0.98880 -0.13700
C 	C 	0.95908 0.93566 0.97733 0.10900
C 	C 	0.93565 0.99795 0.43762 0.11200
C 	C 	0.93692 0.91283 0.45868 0.10800
N 	N 	0.90386 0.93695 0.44690 -0.13900
Cu	Cu	0.64284 0.24669 0.01231 0.92600
Cu	Cu	0.70696 0.24860 0.89751 0.86900
Cu	Cu	0.67810 0.34007 0.92761 0.89700
Cu	Cu	0.63145 0.35900 0.03418 0.89300
C 	C 	0.65050 0.30039 0.12901 0.28000
C 	C 	0.67500 0.29373 0.80457 0.28100
O 	O 	0.68973 0.34439 0.01097 -0.64200
O 	O 	0.64001 0.24821 0.92716 -0.63800
O 	O 	0.76233 0.27205 0.96964 -0.43800
O 	O 	0.61786 0.31953 0.10559 -0.38300
O 	O 	0.72030 0.43081 0.93405 -0.38300
C 	C 	0.71063 0.46522 0.97010 0.29700
C 	C 	0.51988 0.22543 0.97416 0.28600
O 	O 	0.55623 0.28365 0.96379 -0.39200
O 	O 	0.66528 0.43848 0.00225 -0.40200
O 	O 	0.65842 0.26225 0.09670 -0.35400
C 	C 	0.74373 0.23161 0.00566 0.28500
O 	O 	0.67937 0.33753 0.84253 -0.37700
O 	O 	0.67108 0.24525 0.82090 -0.41900
H 	H 	0.73483 0.37537 0.03217 0.16200
H 	H 	0.59690 0.21810 0.90183 0.17500
Cu	Cu	0.73150 0.33507 0.42421 0.92600
Cu	Cu	0.73235 0.27411 0.54029 0.86900
Cu	Cu	0.63733 0.29936 0.50928 0.89600
Cu	Cu	0.61690 0.34472 0.40231 0.89400
C 	C 	0.67608 0.32592 0.30735 0.28000
O 	O 	0.77469 0.43035 0.43295 -0.36200
C 	C 	0.68647 0.30565 0.63270 0.28100
O 	O 	0.63287 0.28798 0.42590 -0.63900
O 	O 	0.73042 0.33868 0.50948 -0.64000
O 	O 	0.77235 0.29050 0.41569 -0.37100
O 	O 	0.70707 0.21765 0.46885 -0.44300
O 	O 	0.65613 0.35776 0.33055 -0.38200
O 	O 	0.54549 0.25631 0.50281 -0.38100
C 	C 	0.51033 0.26516 0.46647 0.28900
C 	C 	0.75160 0.45668 0.46059 0.28300
O 	O 	0.69327 0.42024 0.47186 -0.39300
O 	O 	0.53717 0.31098 0.43525 -0.39600
O 	O 	0.71521 0.31888 0.33978 -0.35400
C 	C 	0.74662 0.23498 0.43170 0.29000
O 	O 	0.63985 0.29683 0.59425 -0.37800
O 	O 	0.73605 0.31089 0.61637 -0.41900
H 	H 	0.60197 0.24321 0.40481 0.16300
H 	H 	0.76025 0.38175 0.53430 0.17300
C 	C 	0.67682 0.30017 0.74412 -0.04900
C 	C 	0.68022 0.30372 0.69320 -0.05000
C 	C 	0.66938 0.31456 0.24461 -0.04300
C 	C 	0.66185 0.30705 0.19175 -0.04300
C 	C 	0.79875 0.62080 0.51571 -0.06500
C 	C 	0.83163 0.65370 0.47240 0.02300
C 	C 	0.84364 0.62357 0.42852 -0.06500
C 	C 	0.82084 0.56021 0.42666 0.01200
C 	C 	0.78543 0.52625 0.46851 -0.08900
C 	C 	0.77575 0.55737 0.51380 0.01100
C 	C 	0.85335 0.71962 0.47281 0.00500
H 	H 	0.86984 0.64896 0.39539 0.04500
H 	H 	0.82862 0.53687 0.39143 0.03700
H 	H 	0.74914 0.53197 0.54674 0.03100
H 	H 	0.78999 0.64397 0.55019 0.04600
C 	C 	0.82568 0.73306 0.42776 -0.04500
C 	C 	0.85026 0.79627 0.42522 -0.02300
C 	C 	0.90296 0.84649 0.46748 -0.01900
C 	C 	0.92852 0.83272 0.51407 -0.02300
C 	C 	0.90379 0.76957 0.51673 -0.04500
H 	H 	0.78618 0.69468 0.39403 0.04000
H 	H 	0.83013 0.80629 0.38909 0.04000
H 	H 	0.96881 0.87109 0.54726 0.03800
H 	H 	0.92501 0.75960 0.55198 0.04000
C 	C 	0.83658 0.22804 0.41987 0.01200
H 	H 	0.91188 0.21654 0.42208 0.04400
H 	H 	0.86994 0.27965 0.42774 0.02700
C 	C 	0.44077 0.22977 0.46748 -0.08600
C 	C 	0.40643 0.25104 0.44339 0.01300
C 	C 	0.34026 0.21622 0.44206 -0.06500
H 	H 	0.43087 0.29439 0.42546 0.03400
C 	C 	0.75579 0.63207 0.99201 -0.06000
C 	C 	0.81237 0.66505 0.96880 0.02200
C 	C 	0.83460 0.63204 0.94446 -0.06400
C 	C 	0.80120 0.56681 0.94436 0.01400
C 	C 	0.74485 0.53376 0.96822 -0.08900
C 	C 	0.72206 0.56679 0.99157 0.01900
C 	C 	0.84952 0.73454 0.97179 0.01200
H 	H 	0.87807 0.65707 0.92609 0.04500
H 	H 	0.81959 0.54223 0.92641 0.03400
H 	H 	0.67838 0.54203 0.00959 0.02900
H 	H 	0.73835 0.65717 0.01102 0.04000
C 	C 	0.82079 0.75993 0.94506 -0.04600
C 	C 	0.85606 0.82583 0.94808 -0.02300
C 	C 	0.92048 0.86680 0.97744 -0.01300
C 	C 	0.94893 0.84139 0.00467 -0.02800
C 	C 	0.91356 0.77562 0.00201 -0.05100
H 	H 	0.77138 0.72859 0.92160 0.04200
H 	H 	0.83375 0.84489 0.92662 0.04100
H 	H 	0.99845 0.87264 0.02791 0.03800
H 	H 	0.93588 0.75655 0.02345 0.03900
C 	C 	0.88172 0.22077 0.03091 -0.06900
C 	C 	0.84750 0.24640 0.02851 0.01300
H 	H 	0.93379 0.25229 0.03689 0.04300
H 	H 	0.87342 0.29748 0.03226 0.02600
